data_functionalizedCrystal
_audit_creation_method	'EQeq! by Chris Wilmer'
_symmetry_space_group_name_H-M	'P1'
_symmetry_Int_Tables_number	1
_symmetry_cell_setting	triclinic
loop_
_symmetry_equiv_pos_as_xyz
  x,y,z
_cell_length_a	41.041
_cell_length_b	10.1287
_cell_length_c	40.3822
_cell_angle_alpha	90
_cell_angle_beta	90
_cell_angle_gamma	90
loop_
_atom_site_label
_atom_site_type_symbol
_atom_site_fract_x
_atom_site_fract_y
_atom_site_fract_z
_atom_site_charge
Mof_Zn	Zn	0.0593	0.0723	0.79331	1.231
Mof_Zn	Zn	0.39354	0.29619	0.29006	1.212
Mof_Zn	Zn	0.46452	0.23607	0.267	1.198
Mof_Zn	Zn	0.9331	0.43552	0.33467	1.194
Mof_H 	H 	0.3209	0.6548	0.8993	0.075
Mof_H 	H 	0.3037	0.4509	0.9826	0.079
Mof_H 	H 	0.3767	0.7117	0.9796	0.076
Mof_H 	H 	0.3994	0.5735	0.0166	0.043
Mof_H 	H 	0.4147	0.5172	0.0693	0.041
Mof_H 	H 	0.3214	0.4331	0.0907	0.043
Mof_H 	H 	0.3071	0.4928	0.0376	0.043
Mof_H 	H 	0.4284	0.3958	0.1111	0.073
Mof_H 	H 	0.4441	0.3369	0.164	0.015
Mof_H 	H 	0.3515	0.3806	0.1939	0.02
Mof_H 	H 	0.3364	0.4452	0.1415	0.077
Mof_H 	H 	0.2505	0.4604	0.9605	0.042
Mof_H 	H 	0.2056	0.3628	0.9324	0.047
Mof_H 	H 	0.2605	0.3583	0.8488	0.046
Mof_H 	H 	0.3017	0.4667	0.8769	0.04
Mof_H 	H 	0.2304	0.1652	0.8392	0.067
Mof_H 	H 	0.1887	0.0553	0.8123	0.025
Mof_H 	H 	0.1227	0.2479	0.8674	0.021
Mof_H 	H 	0.1637	0.357	0.8954	0.071
Mof_H 	H 	0.384	0.915	0.9566	0.05
Mof_H 	H 	0.3652	0.7219	0.8717	0.043
Mof_H 	H 	0.1105	0.6956	0.5123	0.072
Mof_H 	H 	0.186	0.4416	0.5164	0.075
Mof_H 	H 	0.1754	0.6807	0.4379	0.075
Mof_H 	H 	0.0848	0.8357	0.4867	0.042
Mof_H 	H 	0.0541	0.9794	0.4572	0.042
Mof_H 	H 	0.1131	0.9386	0.381	0.044
Mof_H 	H 	0.1451	0.7923	0.4101	0.045
Mof_H 	H 	0.0449	0.1857	0.4335	0.077
Mof_H 	H 	0.0108	0.322	0.4038	0.01
Mof_H 	H 	0.0319	0.1237	0.3203	0.014
Mof_H 	H 	0.0671	0.9823	0.3499	0.076
Mof_H 	H 	0.2303	0.6686	0.4374	0.051
Mof_H 	H 	0.2791	0.589	0.4173	0.045
Mof_H 	H 	0.2569	0.2286	0.452	0.042
Mof_H 	H 	0.2115	0.3095	0.4761	0.05
Mof_H 	H 	0.122	0.6906	0.5695	0.052
Mof_H 	H 	0.103	0.6235	0.6207	0.044
Mof_H 	H 	0.1306	0.2546	0.5992	0.042
Mof_H 	H 	0.1461	0.3183	0.5479	0.051
Mof_H 	H 	0.1049	0.565	0.6709	0.09
Mof_H 	H 	0.0884	0.5039	0.723	0.004
Mof_H 	H 	0.0838	0.1305	0.6923	0.016
Mof_H 	H 	0.097	0.199	0.6397	0.086
Mof_H 	H 	0.2874	0.1581	0.4085	0.08
Mof_H 	H 	0.3339	0.0759	0.3851	0.019
Mof_H 	H 	0.3721	0.4415	0.3859	0.02
Mof_H 	H 	0.3281	0.5178	0.4124	0.08
Mof_H 	H 	0.49	0.1861	0.1982	-0.01
Mof_H 	H 	0.5084	0.0123	0.1654	0.076
Mof_H 	H 	0.5283	0.8198	0.1928	0.002
Mof_H 	H 	0.5129	0.7816	0.2456	0.096
Mof_H 	H 	0.4896	0.9517	0.2761	-0.027
Mof_H 	H 	0.4166	0.0611	0.9286	0.046
Mof_H 	H 	0.3986	0.8664	0.8435	0.046
Mof_H 	H 	0.4697	0.0896	0.8983	0.078
Mof_H 	H 	0.5014	0.2266	0.8699	0.011
Mof_H 	H 	0.4034	0.0973	0.8248	0.074
Mof_H 	H 	0.4376	0.2366	0.7954	0.019
Mof_H 	H 	0.3694	0.0029	0.2917	-0.034
Mof_H 	H 	0.3248	0.331	0.2976	-0.021
Mof_H 	H 	0.3223	0.8849	0.2921	0.112
Mof_H 	H 	0.274	0.2178	0.304	0.1
Mof_H 	H 	0.2768	0.9871	0.3068	-0.021
Mof_C 	C 	0.35189	0.7027	0.93673	0.074
Mof_C 	C 	0.32569	0.6368	0.92164	-0.133
Mof_C 	C 	0.30644	0.5447	0.93883	0.073
Mof_C 	C 	0.31546	0.5155	0.97091	-0.142
Mof_C 	C 	0.34092	0.5771	0.98638	0.076
Mof_C 	C 	0.35905	0.67	0.96905	-0.138
Mof_C 	C 	0.35146	0.5378	0.02107	-0.009
Mof_C 	C 	0.38335	0.5443	0.03155	-0.048
Mof_C 	C 	0.3927	0.5095	0.06315	-0.049
Mof_C 	C 	0.37071	0.4642	0.08568	-0.013
Mof_C 	C 	0.33755	0.4603	0.07571	-0.047
Mof_C 	C 	0.32912	0.4966	0.04383	-0.047
Mof_C 	C 	0.3809	0.4269	0.12077	0.073
Mof_C 	C 	0.41273	0.3938	0.1281	-0.141
Mof_C 	C 	0.4222	0.3578	0.15962	0.064
Mof_C 	C 	0.3989	0.3525	0.18522	-0.155
Mof_C 	C 	0.36743	0.3846	0.17727	0.074
Mof_C 	C 	0.3582	0.4224	0.14583	-0.142
Mof_C 	C 	0.27967	0.477	0.92121	-0.015
Mof_C 	C 	0.25208	0.4427	0.9377	-0.047
Mof_C 	C 	0.2252	0.3802	0.92116	-0.061
Mof_C 	C 	0.22899	0.3463	0.88823	0.001
Mof_C 	C 	0.25791	0.3797	0.87132	-0.057
Mof_C 	C 	0.2825	0.4444	0.88829	-0.043
Mof_C 	C 	0.20219	0.2742	0.8704	0.051
Mof_C 	C 	0.20867	0.1826	0.84517	-0.117
Mof_C 	C 	0.18379	0.1175	0.82885	0.043
Mof_C 	C 	0.14456	0.2322	0.86183	0.044
Mof_C 	C 	0.169	0.297	0.87852	-0.118
Mof_C 	C 	0.38711	0.9043	0.93365	-0.049
Mof_C 	C 	0.3721	0.8013	0.9177	-0.004
Mof_C 	C 	0.376	0.7893	0.88324	-0.046
Mof_C 	C 	0.40927	0.3165	0.21945	0.414
Mof_C 	C 	0.13823	0.7014	0.47104	0.064
Mof_C 	C 	0.12899	0.6578	0.50231	-0.126
Mof_C 	C 	0.14632	0.5585	0.51978	0.062
Mof_C 	C 	0.1742	0.5074	0.50519	-0.131
Mof_C 	C 	0.18517	0.5511	0.47424	0.068
Mof_C 	C 	0.16758	0.6483	0.45823	-0.128
Mof_C 	C 	0.11872	0.7978	0.45187	-0.003
Mof_C 	C 	0.09097	0.8561	0.46491	-0.047
Mof_C 	C 	0.07253	0.9414	0.44719	-0.046
Mof_C 	C 	0.07981	0.9734	0.41572	-0.005
Mof_C 	C 	0.10715	0.917	0.40277	-0.043
Mof_C 	C 	0.1266	0.8295	0.42012	-0.046
Mof_C 	C 	0.0589	0.0674	0.39573	0.072
Mof_C 	C 	0.04217	0.1711	0.41063	-0.14
Mof_C 	C 	0.02176	0.2531	0.39289	0.091
Mof_C 	C 	0.01733	0.2356	0.35992	-0.17
Mof_C 	C 	0.0345	0.1344	0.34326	0.065
Mof_C 	C 	0.05556	0.0494	0.36093	-0.125
Mof_C 	C 	0.21488	0.4969	0.45976	-0.003
Mof_C 	C 	0.23602	0.5799	0.44109	-0.054
Mof_C 	C 	0.26487	0.5308	0.42832	-0.038
Mof_C 	C 	0.27386	0.3956	0.43123	-0.017
Mof_C 	C 	0.25216	0.3188	0.44933	-0.036
Mof_C 	C 	0.22451	0.3667	0.46344	-0.053
Mof_C 	C 	0.13494	0.5168	0.55239	0
Mof_C 	C 	0.12314	0.6005	0.57501	-0.057
Mof_C 	C 	0.1124	0.5612	0.60641	-0.035
Mof_C 	C 	0.11562	0.4301	0.61668	-0.026
Mof_C 	C 	0.12833	0.344	0.59335	-0.031
Mof_C 	C 	0.13772	0.3814	0.56265	-0.059
Mof_C 	C 	0.10451	0.3898	0.65024	0.104
Mof_C 	C 	0.10071	0.4753	0.67504	-0.164
Mof_C 	C 	0.091	0.4397	0.70638	0.091
Mof_C 	C 	0.08515	0.3079	0.71309	-0.158
Mof_C 	C 	0.0879	0.2204	0.6883	0.091
Mof_C 	C 	0.0965	0.2612	0.65699	-0.159
Mof_C 	C 	0.30307	0.347	0.41524	0.078
Mof_C 	C 	0.30524	0.2146	0.405	-0.135
Mof_C 	C 	0.33261	0.1663	0.39013	0.062
Mof_C 	C 	0.35531	0.3822	0.39117	0.068
Mof_C 	C 	0.32905	0.4277	0.40685	-0.139
Mof_C 	C 	0.99313	0.3112	0.33934	0.463
Mof_C 	C 	0.49391	0.1029	0.20772	0.073
Mof_C 	C 	0.5064	0.0026	0.18851	-0.139
Mof_C 	C 	0.5163	0.8837	0.2045	0.078
Mof_C 	C 	0.50874	0.8637	0.23556	-0.163
Mof_C 	C 	0.4944	0.9657	0.25358	0.099
Mof_C 	C 	0.3588	0.2497	0.38232	-0.135
Mof_C 	C 	0.15219	0.1435	0.83673	-0.122
Mof_C 	C 	0.41167	0.9808	0.88267	-0.008
Mof_C 	C 	0.40654	0.992	0.9169	-0.042
Mof_C 	C 	0.43219	0.0792	0.86412	0.076
Mof_C 	C 	0.12503	0.0719	0.81867	0.361
Mof_C 	C 	0.39575	0.8768	0.86643	-0.043
Mof_C 	C 	0.38746	0.1999	0.36364	0.343
Mof_C 	C 	0.07546	0.2653	0.74661	0.362
Mof_C 	C 	0.47345	0.2497	0.82911	-0.136
Mof_C 	C 	0.46289	0.1202	0.87747	-0.14
Mof_C 	C 	0.48146	0.2005	0.86045	0.067
Mof_C 	C 	0.42345	0.1233	0.83407	-0.136
Mof_C 	C 	0.444	0.2075	0.8165	0.055
Mof_C 	C 	0.34956	0.0482	0.29411	0.129
Mof_C 	C 	0.32467	0.2382	0.2982	0.143
Mof_C 	C 	0.49472	0.3411	0.80995	0.336
Mof_C 	C 	0.322	0.9766	0.2956	-0.223
Mof_C 	C 	0.29376	0.172	0.3019	-0.203
Mof_C 	C 	0.2956	0.0365	0.3019	0.148
Mof_N 	N 	0.48716	0.0834	0.24006	-0.256
Mof_N 	N 	0.35044	0.1812	0.29582	-0.277
Mof_O 	O 	0.43831	0.2857	0.22501	-0.49
Mof_O 	O 	0.38739	0.3197	0.24125	-0.477
Mof_O 	O 	0.06008	0.8806	0.79545	-0.746
Mof_O 	O 	0.07798	0.3417	0.77093	-0.352
Mof_O 	O 	0.99444	0.3081	0.30969	-0.517
Mof_O 	O 	0.97243	0.3709	0.35604	-0.52
Mof_O 	O 	0.42571	0.1198	0.28892	-0.682
Mof_O 	O 	0.13227	0.9742	0.80121	-0.437
Mof_O 	O 	0.39441	0.0797	0.36454	-0.468
Mof_O 	O 	0.09591	0.1174	0.82316	-0.456
Mof_O 	O 	0.40399	0.2841	0.34715	-0.454
Mof_O 	O 	0.06695	0.1424	0.74993	-0.473
Mof_O 	O 	0.48428	0.3994	0.78487	-0.318
Mof_O 	O 	0.52483	0.3501	0.81955	-0.46
Mof_H 	H 	0.42571	0.01515	0.28397	0.116
Mof_H 	H 	0.43992	0.3806	0.32021	0.145
Mof_Zn	Zn	0.9407	0.9277	0.29331	1.23
Mof_Zn	Zn	0.60646	0.70381	0.79006	1.211
Mof_Zn	Zn	0.53548	0.76393	0.767	1.198
Mof_Zn	Zn	0.0669	0.56448	0.83467	1.194
Mof_H 	H 	0.6791	0.3452	0.3993	0.075
Mof_H 	H 	0.6963	0.5491	0.4826	0.079
Mof_H 	H 	0.6233	0.2883	0.4796	0.076
Mof_H 	H 	0.6006	0.4265	0.5166	0.043
Mof_H 	H 	0.5853	0.4828	0.5693	0.041
Mof_H 	H 	0.6786	0.5669	0.5907	0.043
Mof_H 	H 	0.6929	0.5072	0.5376	0.043
Mof_H 	H 	0.5716	0.6042	0.6111	0.073
Mof_H 	H 	0.5559	0.6631	0.664	0.015
Mof_H 	H 	0.6485	0.6194	0.6939	0.02
Mof_H 	H 	0.6636	0.5548	0.6415	0.077
Mof_H 	H 	0.7495	0.5396	0.4605	0.042
Mof_H 	H 	0.7944	0.6372	0.4324	0.047
Mof_H 	H 	0.7395	0.6417	0.3488	0.047
Mof_H 	H 	0.6983	0.5333	0.3769	0.04
Mof_H 	H 	0.7696	0.8348	0.3392	0.067
Mof_H 	H 	0.8113	0.9447	0.3123	0.025
Mof_H 	H 	0.8773	0.7521	0.3674	0.021
Mof_H 	H 	0.8363	0.643	0.3954	0.071
Mof_H 	H 	0.616	0.085	0.4566	0.05
Mof_H 	H 	0.6348	0.2781	0.3717	0.043
Mof_H 	H 	0.8895	0.3044	0.0123	0.072
Mof_H 	H 	0.814	0.5584	0.0164	0.075
Mof_H 	H 	0.8246	0.3193	0.9379	0.074
Mof_H 	H 	0.9152	0.1643	0.9867	0.042
Mof_H 	H 	0.9459	0.0206	0.9572	0.042
Mof_H 	H 	0.8869	0.0614	0.881	0.043
Mof_H 	H 	0.8549	0.2077	0.9101	0.045
Mof_H 	H 	0.9551	0.8143	0.9335	0.077
Mof_H 	H 	0.9892	0.678	0.9038	0.01
Mof_H 	H 	0.9681	0.8763	0.8203	0.014
Mof_H 	H 	0.9329	0.0177	0.8499	0.077
Mof_H 	H 	0.7697	0.3314	0.9374	0.051
Mof_H 	H 	0.7209	0.411	0.9173	0.045
Mof_H 	H 	0.7431	0.7714	0.952	0.042
Mof_H 	H 	0.7885	0.6905	0.9761	0.051
Mof_H 	H 	0.878	0.3094	0.0695	0.052
Mof_H 	H 	0.897	0.3765	0.1207	0.043
Mof_H 	H 	0.8694	0.7454	0.0992	0.041
Mof_H 	H 	0.8539	0.6817	0.0479	0.051
Mof_H 	H 	0.8951	0.435	0.1709	0.09
Mof_H 	H 	0.9116	0.4961	0.223	0.004
Mof_H 	H 	0.9162	0.8695	0.1923	0.016
Mof_H 	H 	0.903	0.801	0.1397	0.086
Mof_H 	H 	0.7126	0.8419	0.9085	0.08
Mof_H 	H 	0.6661	0.9241	0.8851	0.019
Mof_H 	H 	0.6279	0.5585	0.8859	0.02
Mof_H 	H 	0.6719	0.4822	0.9124	0.08
Mof_H 	H 	0.51	0.8139	0.6982	-0.01
Mof_H 	H 	0.4916	0.9877	0.6654	0.076
Mof_H 	H 	0.4717	0.1802	0.6928	0.002
Mof_H 	H 	0.4871	0.2184	0.7456	0.096
Mof_H 	H 	0.5104	0.0483	0.7761	-0.027
Mof_H 	H 	0.5834	0.9389	0.4286	0.046
Mof_H 	H 	0.6014	0.1336	0.3435	0.046
Mof_H 	H 	0.5303	0.9104	0.3983	0.078
Mof_H 	H 	0.4986	0.7734	0.3699	0.011
Mof_H 	H 	0.5966	0.9027	0.3248	0.074
Mof_H 	H 	0.5624	0.7634	0.2954	0.019
Mof_H 	H 	0.6306	0.9971	0.7917	-0.034
Mof_H 	H 	0.6752	0.669	0.7976	-0.021
Mof_H 	H 	0.6777	0.1151	0.7921	0.112
Mof_H 	H 	0.726	0.7822	0.804	0.1
Mof_H 	H 	0.7232	0.0129	0.8068	-0.021
Mof_C 	C 	0.64811	0.2973	0.43673	0.074
Mof_C 	C 	0.67431	0.3632	0.42164	-0.133
Mof_C 	C 	0.69356	0.4553	0.43883	0.074
Mof_C 	C 	0.68454	0.4845	0.47091	-0.143
Mof_C 	C 	0.65908	0.4229	0.48638	0.078
Mof_C 	C 	0.64095	0.33	0.46905	-0.138
Mof_C 	C 	0.64854	0.4622	0.52107	-0.01
Mof_C 	C 	0.61665	0.4557	0.53155	-0.048
Mof_C 	C 	0.6073	0.4905	0.56315	-0.05
Mof_C 	C 	0.62929	0.5358	0.58568	-0.012
Mof_C 	C 	0.66245	0.5397	0.57571	-0.048
Mof_C 	C 	0.67088	0.5034	0.54383	-0.047
Mof_C 	C 	0.6191	0.5731	0.62077	0.073
Mof_C 	C 	0.58727	0.6062	0.6281	-0.141
Mof_C 	C 	0.5778	0.6422	0.65962	0.064
Mof_C 	C 	0.6011	0.6475	0.68522	-0.155
Mof_C 	C 	0.63257	0.6154	0.67727	0.074
Mof_C 	C 	0.6418	0.5776	0.64583	-0.142
Mof_C 	C 	0.72033	0.523	0.42121	-0.015
Mof_C 	C 	0.74792	0.5573	0.4377	-0.046
Mof_C 	C 	0.7748	0.6198	0.42116	-0.061
Mof_C 	C 	0.77101	0.6537	0.38823	0.002
Mof_C 	C 	0.74209	0.6203	0.37132	-0.057
Mof_C 	C 	0.7175	0.5556	0.38829	-0.043
Mof_C 	C 	0.79781	0.7258	0.3704	0.051
Mof_C 	C 	0.79133	0.8174	0.34517	-0.117
Mof_C 	C 	0.81621	0.8825	0.32885	0.043
Mof_C 	C 	0.85544	0.7678	0.36183	0.044
Mof_C 	C 	0.831	0.703	0.37852	-0.118
Mof_C 	C 	0.61289	0.0957	0.43365	-0.049
Mof_C 	C 	0.6279	0.1987	0.4177	-0.004
Mof_C 	C 	0.624	0.2107	0.38324	-0.046
Mof_C 	C 	0.59073	0.6835	0.71945	0.414
Mof_C 	C 	0.86177	0.2986	0.97104	0.063
Mof_C 	C 	0.87101	0.3422	0.00231	-0.124
Mof_C 	C 	0.85368	0.4415	0.01978	0.061
Mof_C 	C 	0.8258	0.4926	0.00519	-0.129
Mof_C 	C 	0.81483	0.4489	0.97424	0.067
Mof_C 	C 	0.83242	0.3517	0.95823	-0.127
Mof_C 	C 	0.88128	0.2022	0.95187	-0.002
Mof_C 	C 	0.90903	0.1439	0.96491	-0.047
Mof_C 	C 	0.92747	0.0586	0.94719	-0.046
Mof_C 	C 	0.92019	0.0266	0.91572	-0.005
Mof_C 	C 	0.89285	0.083	0.90277	-0.043
Mof_C 	C 	0.8734	0.1705	0.92012	-0.046
Mof_C 	C 	0.9411	0.9326	0.89573	0.072
Mof_C 	C 	0.95783	0.8289	0.91063	-0.14
Mof_C 	C 	0.97824	0.7469	0.89289	0.091
Mof_C 	C 	0.98267	0.7644	0.85992	-0.17
Mof_C 	C 	0.9655	0.8656	0.84326	0.065
Mof_C 	C 	0.94444	0.9506	0.86093	-0.125
Mof_C 	C 	0.78512	0.5031	0.95976	-0.002
Mof_C 	C 	0.76398	0.4201	0.94109	-0.054
Mof_C 	C 	0.73513	0.4692	0.92832	-0.038
Mof_C 	C 	0.72614	0.6044	0.93123	-0.018
Mof_C 	C 	0.74784	0.6812	0.94933	-0.036
Mof_C 	C 	0.77549	0.6333	0.96344	-0.053
Mof_C 	C 	0.86506	0.4832	0.05239	0.001
Mof_C 	C 	0.87686	0.3995	0.07501	-0.057
Mof_C 	C 	0.8876	0.4388	0.10641	-0.035
Mof_C 	C 	0.88438	0.5699	0.11668	-0.027
Mof_C 	C 	0.87167	0.656	0.09335	-0.03
Mof_C 	C 	0.86228	0.6186	0.06265	-0.059
Mof_C 	C 	0.89549	0.6102	0.15024	0.104
Mof_C 	C 	0.89929	0.5247	0.17504	-0.164
Mof_C 	C 	0.909	0.5603	0.20638	0.092
Mof_C 	C 	0.91485	0.6921	0.21309	-0.158
Mof_C 	C 	0.9121	0.7796	0.1883	0.091
Mof_C 	C 	0.9035	0.7388	0.15699	-0.159
Mof_C 	C 	0.69693	0.653	0.91524	0.078
Mof_C 	C 	0.69476	0.7854	0.905	-0.136
Mof_C 	C 	0.66739	0.8337	0.89013	0.062
Mof_C 	C 	0.64469	0.6178	0.89117	0.068
Mof_C 	C 	0.67095	0.5723	0.90685	-0.139
Mof_C 	C 	0.00687	0.6888	0.83934	0.463
Mof_C 	C 	0.50609	0.8971	0.70772	0.073
Mof_C 	C 	0.4936	0.9974	0.68851	-0.139
Mof_C 	C 	0.4837	0.1163	0.7045	0.078
Mof_C 	C 	0.49126	0.1363	0.73556	-0.163
Mof_C 	C 	0.5056	0.0343	0.75358	0.099
Mof_C 	C 	0.6412	0.7503	0.88232	-0.135
Mof_C 	C 	0.84781	0.8565	0.33673	-0.122
Mof_C 	C 	0.58833	0.0192	0.38267	-0.008
Mof_C 	C 	0.59346	0.008	0.4169	-0.042
Mof_C 	C 	0.56781	0.9208	0.36412	0.076
Mof_C 	C 	0.87497	0.9281	0.31867	0.361
Mof_C 	C 	0.60425	0.1232	0.36643	-0.043
Mof_C 	C 	0.61254	0.8001	0.86364	0.343
Mof_C 	C 	0.92454	0.7347	0.24661	0.362
Mof_C 	C 	0.52655	0.7503	0.32911	-0.136
Mof_C 	C 	0.53711	0.8798	0.37747	-0.14
Mof_C 	C 	0.51854	0.7995	0.36045	0.067
Mof_C 	C 	0.57655	0.8767	0.33407	-0.136
Mof_C 	C 	0.556	0.7925	0.3165	0.055
Mof_C 	C 	0.65044	0.9518	0.79411	0.129
Mof_C 	C 	0.67533	0.7618	0.7982	0.143
Mof_C 	C 	0.50528	0.6589	0.30995	0.336
Mof_C 	C 	0.678	0.0234	0.7956	-0.223
Mof_C 	C 	0.70624	0.828	0.8019	-0.203
Mof_C 	C 	0.7044	0.9635	0.8019	0.148
Mof_N 	N 	0.51284	0.9166	0.74006	-0.256
Mof_N 	N 	0.64956	0.8188	0.79582	-0.277
Mof_O 	O 	0.56169	0.7143	0.72501	-0.49
Mof_O 	O 	0.61261	0.6803	0.74125	-0.477
Mof_O 	O 	0.93992	0.1194	0.29545	-0.746
Mof_O 	O 	0.92202	0.6583	0.27093	-0.352
Mof_O 	O 	0.00556	0.6919	0.80969	-0.517
Mof_O 	O 	0.02757	0.6291	0.85604	-0.521
Mof_O 	O 	0.57429	0.8802	0.78892	-0.682
Mof_O 	O 	0.86773	0.0258	0.30121	-0.437
Mof_O 	O 	0.60559	0.9203	0.86454	-0.468
Mof_O 	O 	0.90409	0.8826	0.32316	-0.456
Mof_O 	O 	0.59601	0.7159	0.84715	-0.454
Mof_O 	O 	0.93305	0.8576	0.24993	-0.473
Mof_O 	O 	0.51572	0.6006	0.28487	-0.318
Mof_O 	O 	0.47517	0.6499	0.31955	-0.46
Mof_H 	H 	0.57429	0.98485	0.78397	0.116
Mof_H 	H 	0.56008	0.6194	0.82021	0.145
Mof_Zn	Zn	0.5593	0.4277	0.79331	1.231
Mof_Zn	Zn	0.89354	0.20381	0.29006	1.211
Mof_Zn	Zn	0.96452	0.26393	0.267	1.198
Mof_Zn	Zn	0.4331	0.06448	0.33467	1.194
Mof_H 	H 	0.8209	0.8452	0.8993	0.075
Mof_H 	H 	0.8037	0.0491	0.9826	0.081
Mof_H 	H 	0.8767	0.7883	0.9796	0.077
Mof_H 	H 	0.8994	0.9265	0.0166	0.042
Mof_H 	H 	0.9147	0.9828	0.0693	0.043
Mof_H 	H 	0.8214	0.0669	0.0907	0.045
Mof_H 	H 	0.8071	0.0072	0.0376	0.042
Mof_H 	H 	0.9284	0.1042	0.1111	0.073
Mof_H 	H 	0.9441	0.1631	0.164	0.015
Mof_H 	H 	0.8515	0.1194	0.1939	0.02
Mof_H 	H 	0.8364	0.0548	0.1415	0.077
Mof_H 	H 	0.7505	0.0396	0.9605	0.042
Mof_H 	H 	0.7056	0.1372	0.9324	0.047
Mof_H 	H 	0.7605	0.1417	0.8488	0.046
Mof_H 	H 	0.8017	0.0333	0.8769	0.041
Mof_H 	H 	0.7304	0.3348	0.8392	0.068
Mof_H 	H 	0.6887	0.4447	0.8123	0.026
Mof_H 	H 	0.6227	0.2521	0.8674	0.021
Mof_H 	H 	0.6637	0.143	0.8954	0.072
Mof_H 	H 	0.884	0.585	0.9566	0.048
Mof_H 	H 	0.8652	0.7781	0.8717	0.043
Mof_H 	H 	0.6105	0.8044	0.5123	0.073
Mof_H 	H 	0.686	0.0584	0.5164	0.079
Mof_H 	H 	0.6754	0.8193	0.4379	0.074
Mof_H 	H 	0.5848	0.6643	0.4867	0.041
Mof_H 	H 	0.5541	0.5206	0.4572	0.043
Mof_H 	H 	0.6131	0.5614	0.381	0.044
Mof_H 	H 	0.6451	0.7077	0.4101	0.044
Mof_H 	H 	0.5449	0.3143	0.4335	0.077
Mof_H 	H 	0.5108	0.178	0.4038	0.01
Mof_H 	H 	0.5319	0.3763	0.3203	0.013
Mof_H 	H 	0.5671	0.5177	0.3499	0.078
Mof_H 	H 	0.7303	0.8314	0.4374	0.052
Mof_H 	H 	0.7791	0.911	0.4173	0.046
Mof_H 	H 	0.7569	0.2714	0.452	0.043
Mof_H 	H 	0.7115	0.1905	0.4761	0.051
Mof_H 	H 	0.622	0.8094	0.5695	0.049
Mof_H 	H 	0.603	0.8765	0.6207	0.047
Mof_H 	H 	0.6306	0.2454	0.5992	0.045
Mof_H 	H 	0.6461	0.1817	0.5479	0.048
Mof_H 	H 	0.6049	0.935	0.6709	0.086
Mof_H 	H 	0.5884	0.9961	0.723	0.003
Mof_H 	H 	0.5838	0.3695	0.6923	0.018
Mof_H 	H 	0.597	0.301	0.6397	0.085
Mof_H 	H 	0.7874	0.3419	0.4085	0.078
Mof_H 	H 	0.8339	0.4241	0.3851	0.022
Mof_H 	H 	0.8721	0.0585	0.3859	0.025
Mof_H 	H 	0.8281	0.9822	0.4124	0.072
Mof_H 	H 	0.99	0.3139	0.1982	-0.01
Mof_H 	H 	0.0084	0.4877	0.1654	0.075
Mof_H 	H 	0.0283	0.6802	0.1928	0.003
Mof_H 	H 	0.0129	0.7184	0.2456	0.096
Mof_H 	H 	0.9896	0.5483	0.2761	-0.027
Mof_H 	H 	0.9166	0.4389	0.9286	0.048
Mof_H 	H 	0.8986	0.6336	0.8435	0.046
Mof_H 	H 	0.9697	0.4104	0.8983	0.079
Mof_H 	H 	0.0014	0.2734	0.8699	0.01
Mof_H 	H 	0.9034	0.4027	0.8248	0.075
Mof_H 	H 	0.9376	0.2634	0.7954	0.019
Mof_H 	H 	0.8694	0.4971	0.2917	-0.04
Mof_H 	H 	0.8248	0.169	0.2976	-0.023
Mof_H 	H 	0.8223	0.6151	0.2921	0.122
Mof_H 	H 	0.774	0.2822	0.304	0.106
Mof_H 	H 	0.7768	0.5129	0.3068	-0.032
Mof_C 	C 	0.85189	0.7973	0.93673	0.075
Mof_C 	C 	0.82569	0.8632	0.92164	-0.134
Mof_C 	C 	0.80644	0.9553	0.93883	0.073
Mof_C 	C 	0.81546	0.9845	0.97091	-0.146
Mof_C 	C 	0.84092	0.9229	0.98638	0.079
Mof_C 	C 	0.85905	0.83	0.96905	-0.14
Mof_C 	C 	0.85146	0.9622	0.02107	-0.015
Mof_C 	C 	0.88335	0.9557	0.03155	-0.044
Mof_C 	C 	0.8927	0.9905	0.06315	-0.055
Mof_C 	C 	0.87071	0.0358	0.08568	-0.008
Mof_C 	C 	0.83755	0.0397	0.07571	-0.051
Mof_C 	C 	0.82912	0.0034	0.04383	-0.041
Mof_C 	C 	0.8809	0.0731	0.12077	0.071
Mof_C 	C 	0.91273	0.1062	0.1281	-0.139
Mof_C 	C 	0.9222	0.1422	0.15962	0.063
Mof_C 	C 	0.8989	0.1475	0.18522	-0.154
Mof_C 	C 	0.86743	0.1154	0.17727	0.074
Mof_C 	C 	0.8582	0.0776	0.14583	-0.141
Mof_C 	C 	0.77967	0.023	0.92121	-0.014
Mof_C 	C 	0.75208	0.0573	0.9377	-0.047
Mof_C 	C 	0.7252	0.1198	0.92116	-0.06
Mof_C 	C 	0.72899	0.1537	0.88823	0.001
Mof_C 	C 	0.75791	0.1203	0.87132	-0.056
Mof_C 	C 	0.7825	0.0556	0.88829	-0.044
Mof_C 	C 	0.70219	0.2258	0.8704	0.052
Mof_C 	C 	0.70867	0.3174	0.84517	-0.118
Mof_C 	C 	0.68379	0.3825	0.82885	0.045
Mof_C 	C 	0.64456	0.2678	0.86183	0.045
Mof_C 	C 	0.669	0.203	0.87852	-0.118
Mof_C 	C 	0.88711	0.5957	0.93365	-0.047
Mof_C 	C 	0.8721	0.6987	0.9177	-0.006
Mof_C 	C 	0.876	0.7107	0.88324	-0.046
Mof_C 	C 	0.90927	0.1835	0.21945	0.414
Mof_C 	C 	0.63823	0.7986	0.47104	0.066
Mof_C 	C 	0.62899	0.8422	0.50231	-0.129
Mof_C 	C 	0.64632	0.9415	0.51978	0.068
Mof_C 	C 	0.6742	0.9926	0.50519	-0.138
Mof_C 	C 	0.68517	0.9489	0.47424	0.067
Mof_C 	C 	0.66758	0.8517	0.45823	-0.129
Mof_C 	C 	0.61872	0.7022	0.45187	-0.005
Mof_C 	C 	0.59097	0.6439	0.46491	-0.045
Mof_C 	C 	0.57253	0.5586	0.44719	-0.048
Mof_C 	C 	0.57981	0.5266	0.41572	-0.003
Mof_C 	C 	0.60715	0.583	0.40277	-0.045
Mof_C 	C 	0.6266	0.6705	0.42012	-0.044
Mof_C 	C 	0.5589	0.4326	0.39573	0.071
Mof_C 	C 	0.54217	0.3289	0.41063	-0.14
Mof_C 	C 	0.52176	0.2469	0.39289	0.091
Mof_C 	C 	0.51733	0.2644	0.35992	-0.17
Mof_C 	C 	0.5345	0.3656	0.34326	0.066
Mof_C 	C 	0.55556	0.4506	0.36093	-0.127
Mof_C 	C 	0.71488	0.0031	0.45976	0.001
Mof_C 	C 	0.73602	0.9201	0.44109	-0.056
Mof_C 	C 	0.76487	0.9692	0.42832	-0.045
Mof_C 	C 	0.77386	0.1044	0.43123	-0.009
Mof_C 	C 	0.75216	0.1812	0.44933	-0.039
Mof_C 	C 	0.72451	0.1333	0.46344	-0.052
Mof_C 	C 	0.63494	0.9832	0.55239	-0.009
Mof_C 	C 	0.62314	0.8995	0.57501	-0.048
Mof_C 	C 	0.6124	0.9388	0.60641	-0.045
Mof_C 	C 	0.61562	0.0699	0.61668	-0.017
Mof_C 	C 	0.62833	0.156	0.59335	-0.039
Mof_C 	C 	0.63772	0.1186	0.56265	-0.048
Mof_C 	C 	0.60451	0.1102	0.65024	0.097
Mof_C 	C 	0.60071	0.0247	0.67504	-0.157
Mof_C 	C 	0.591	0.0603	0.70638	0.09
Mof_C 	C 	0.58515	0.1921	0.71309	-0.156
Mof_C 	C 	0.5879	0.2796	0.6883	0.088
Mof_C 	C 	0.5965	0.2388	0.65699	-0.155
Mof_C 	C 	0.80307	0.153	0.41524	0.069
Mof_C 	C 	0.80524	0.2854	0.405	-0.128
Mof_C 	C 	0.83261	0.3337	0.39013	0.056
Mof_C 	C 	0.85531	0.1178	0.39117	0.057
Mof_C 	C 	0.82905	0.0723	0.40685	-0.123
Mof_C 	C 	0.49313	0.1888	0.33934	0.463
Mof_C 	C 	0.99391	0.3971	0.20772	0.073
Mof_C 	C 	0.0064	0.4974	0.18851	-0.137
Mof_C 	C 	0.0163	0.6163	0.2045	0.076
Mof_C 	C 	0.00874	0.6363	0.23556	-0.161
Mof_C 	C 	0.9944	0.5343	0.25358	0.097
Mof_C 	C 	0.8588	0.2503	0.38232	-0.129
Mof_C 	C 	0.65219	0.3565	0.83673	-0.123
Mof_C 	C 	0.91167	0.5192	0.88267	-0.008
Mof_C 	C 	0.90654	0.508	0.9169	-0.045
Mof_C 	C 	0.93219	0.4208	0.86412	0.077
Mof_C 	C 	0.62503	0.4281	0.81867	0.366
Mof_C 	C 	0.89575	0.6232	0.86643	-0.044
Mof_C 	C 	0.88746	0.3001	0.36364	0.34
Mof_C 	C 	0.57546	0.2347	0.74661	0.361
Mof_C 	C 	0.97345	0.2503	0.82911	-0.137
Mof_C 	C 	0.96289	0.3798	0.87747	-0.141
Mof_C 	C 	0.98146	0.2995	0.86045	0.068
Mof_C 	C 	0.92345	0.3767	0.83407	-0.136
Mof_C 	C 	0.944	0.2925	0.8165	0.056
Mof_C 	C 	0.84956	0.4518	0.29411	0.147
Mof_C 	C 	0.82467	0.2618	0.2982	0.153
Mof_C 	C 	0.99472	0.1589	0.80995	0.336
Mof_C 	C 	0.822	0.5234	0.2956	-0.252
Mof_C 	C 	0.79376	0.328	0.3019	-0.221
Mof_C 	C 	0.7956	0.4635	0.3019	0.178
Mof_N 	N 	0.98716	0.4166	0.24006	-0.256
Mof_N 	N 	0.85044	0.3188	0.29582	-0.282
Mof_O 	O 	0.93831	0.2143	0.22501	-0.49
Mof_O 	O 	0.88739	0.1803	0.24125	-0.477
Mof_O 	O 	0.56008	0.6194	0.79545	-0.746
Mof_O 	O 	0.57798	0.1583	0.77093	-0.351
Mof_O 	O 	0.49444	0.1919	0.30969	-0.518
Mof_O 	O 	0.47243	0.1291	0.35604	-0.521
Mof_O 	O 	0.92571	0.3802	0.28892	-0.682
Mof_O 	O 	0.63227	0.5258	0.80121	-0.441
Mof_O 	O 	0.89441	0.4203	0.36454	-0.467
Mof_O 	O 	0.59591	0.3826	0.82316	-0.456
Mof_O 	O 	0.90399	0.2159	0.34715	-0.453
Mof_O 	O 	0.56695	0.3576	0.74993	-0.472
Mof_O 	O 	0.98428	0.1006	0.78487	-0.318
Mof_O 	O 	0.02483	0.1499	0.81955	-0.461
Mof_H 	H 	0.92571	0.48485	0.28397	0.117
Mof_H 	H 	0.93992	0.1194	0.32021	0.146
Mof_Zn	Zn	0.4407	0.5723	0.29331	1.231
Mof_Zn	Zn	0.10646	0.79619	0.79006	1.211
Mof_Zn	Zn	0.03548	0.73607	0.767	1.198
Mof_Zn	Zn	0.5669	0.93552	0.83467	1.194
Mof_H 	H 	0.1791	0.1548	0.3993	0.075
Mof_H 	H 	0.1963	0.9509	0.4826	0.081
Mof_H 	H 	0.1233	0.2117	0.4796	0.077
Mof_H 	H 	0.1006	0.0735	0.5166	0.041
Mof_H 	H 	0.0853	0.0172	0.5693	0.043
Mof_H 	H 	0.1786	0.9331	0.5907	0.045
Mof_H 	H 	0.1929	0.9928	0.5376	0.042
Mof_H 	H 	0.0716	0.8958	0.6111	0.072
Mof_H 	H 	0.0559	0.8369	0.664	0.015
Mof_H 	H 	0.1485	0.8806	0.6939	0.02
Mof_H 	H 	0.1636	0.9452	0.6415	0.077
Mof_H 	H 	0.2495	0.9604	0.4605	0.042
Mof_H 	H 	0.2944	0.8628	0.4324	0.047
Mof_H 	H 	0.2395	0.8583	0.3488	0.046
Mof_H 	H 	0.1983	0.9667	0.3769	0.041
Mof_H 	H 	0.2696	0.6652	0.3392	0.068
Mof_H 	H 	0.3113	0.5553	0.3123	0.026
Mof_H 	H 	0.3773	0.7479	0.3674	0.021
Mof_H 	H 	0.3363	0.857	0.3954	0.072
Mof_H 	H 	0.116	0.415	0.4566	0.049
Mof_H 	H 	0.1348	0.2219	0.3717	0.043
Mof_H 	H 	0.3895	0.1956	0.0123	0.073
Mof_H 	H 	0.314	0.9416	0.0164	0.079
Mof_H 	H 	0.3246	0.1807	0.9379	0.074
Mof_H 	H 	0.4152	0.3357	0.9867	0.042
Mof_H 	H 	0.4459	0.4794	0.9572	0.043
Mof_H 	H 	0.3869	0.4386	0.881	0.044
Mof_H 	H 	0.3549	0.2923	0.9101	0.044
Mof_H 	H 	0.4551	0.6857	0.9335	0.077
Mof_H 	H 	0.4892	0.822	0.9038	0.01
Mof_H 	H 	0.4681	0.6237	0.8203	0.013
Mof_H 	H 	0.4329	0.4823	0.8499	0.078
Mof_H 	H 	0.2697	0.1686	0.9374	0.052
Mof_H 	H 	0.2209	0.089	0.9173	0.046
Mof_H 	H 	0.2431	0.7286	0.952	0.043
Mof_H 	H 	0.2885	0.8095	0.9761	0.051
Mof_H 	H 	0.378	0.1906	0.0695	0.049
Mof_H 	H 	0.397	0.1235	0.1207	0.047
Mof_H 	H 	0.3694	0.7546	0.0992	0.045
Mof_H 	H 	0.3539	0.8183	0.0479	0.048
Mof_H 	H 	0.3951	0.065	0.1709	0.087
Mof_H 	H 	0.4116	0.0039	0.223	0.003
Mof_H 	H 	0.4162	0.6305	0.1923	0.018
Mof_H 	H 	0.403	0.699	0.1397	0.085
Mof_H 	H 	0.2126	0.6581	0.9085	0.078
Mof_H 	H 	0.1661	0.5759	0.8851	0.022
Mof_H 	H 	0.1279	0.9415	0.8859	0.025
Mof_H 	H 	0.1719	0.0178	0.9124	0.072
Mof_H 	H 	0.01	0.6861	0.6982	-0.01
Mof_H 	H 	0.9916	0.5123	0.6654	0.075
Mof_H 	H 	0.9717	0.3198	0.6928	0.003
Mof_H 	H 	0.9871	0.2816	0.7456	0.096
Mof_H 	H 	0.0104	0.4517	0.7761	-0.027
Mof_H 	H 	0.0834	0.5611	0.4286	0.048
Mof_H 	H 	0.1014	0.3664	0.3435	0.046
Mof_H 	H 	0.0303	0.5896	0.3983	0.079
Mof_H 	H 	0.9986	0.7266	0.3699	0.01
Mof_H 	H 	0.0966	0.5973	0.3248	0.075
Mof_H 	H 	0.0624	0.7366	0.2954	0.019
Mof_H 	H 	0.1306	0.5029	0.7917	-0.04
Mof_H 	H 	0.1752	0.831	0.7976	-0.023
Mof_H 	H 	0.1777	0.3849	0.7921	0.122
Mof_H 	H 	0.226	0.7178	0.804	0.106
Mof_H 	H 	0.2232	0.4871	0.8068	-0.032
Mof_C 	C 	0.14811	0.2027	0.43673	0.075
Mof_C 	C 	0.17431	0.1368	0.42164	-0.134
Mof_C 	C 	0.19356	0.0447	0.43883	0.074
Mof_C 	C 	0.18454	0.0155	0.47091	-0.147
Mof_C 	C 	0.15908	0.0771	0.48638	0.081
Mof_C 	C 	0.14095	0.17	0.46905	-0.14
Mof_C 	C 	0.14854	0.0378	0.52107	-0.016
Mof_C 	C 	0.11665	0.0443	0.53155	-0.043
Mof_C 	C 	0.1073	0.0095	0.56315	-0.056
Mof_C 	C 	0.12929	0.9642	0.58568	-0.008
Mof_C 	C 	0.16245	0.9603	0.57571	-0.052
Mof_C 	C 	0.17088	0.9966	0.54383	-0.041
Mof_C 	C 	0.1191	0.9269	0.62077	0.071
Mof_C 	C 	0.08727	0.8938	0.6281	-0.139
Mof_C 	C 	0.0778	0.8578	0.65962	0.063
Mof_C 	C 	0.1011	0.8525	0.68522	-0.154
Mof_C 	C 	0.13257	0.8846	0.67727	0.073
Mof_C 	C 	0.1418	0.9224	0.64583	-0.14
Mof_C 	C 	0.22033	0.977	0.42121	-0.014
Mof_C 	C 	0.24792	0.9427	0.4377	-0.047
Mof_C 	C 	0.2748	0.8802	0.42116	-0.06
Mof_C 	C 	0.27101	0.8463	0.38823	0.001
Mof_C 	C 	0.24209	0.8797	0.37132	-0.056
Mof_C 	C 	0.2175	0.9444	0.38829	-0.044
Mof_C 	C 	0.29781	0.7742	0.3704	0.052
Mof_C 	C 	0.29133	0.6826	0.34517	-0.118
Mof_C 	C 	0.31621	0.6175	0.32885	0.045
Mof_C 	C 	0.35544	0.7322	0.36183	0.045
Mof_C 	C 	0.331	0.797	0.37852	-0.118
Mof_C 	C 	0.11289	0.4043	0.43365	-0.047
Mof_C 	C 	0.1279	0.3013	0.4177	-0.006
Mof_C 	C 	0.124	0.2893	0.38324	-0.045
Mof_C 	C 	0.09073	0.8165	0.71945	0.414
Mof_C 	C 	0.36177	0.2014	0.97104	0.064
Mof_C 	C 	0.37101	0.1578	0.00231	-0.127
Mof_C 	C 	0.35368	0.0585	0.01978	0.066
Mof_C 	C 	0.3258	0.0074	0.00519	-0.136
Mof_C 	C 	0.31483	0.0511	0.97424	0.065
Mof_C 	C 	0.33242	0.1483	0.95823	-0.128
Mof_C 	C 	0.38128	0.2978	0.95187	-0.004
Mof_C 	C 	0.40903	0.3561	0.96491	-0.046
Mof_C 	C 	0.42747	0.4414	0.94719	-0.047
Mof_C 	C 	0.42019	0.4734	0.91572	-0.003
Mof_C 	C 	0.39285	0.417	0.90277	-0.044
Mof_C 	C 	0.3734	0.3295	0.92012	-0.045
Mof_C 	C 	0.4411	0.5674	0.89573	0.071
Mof_C 	C 	0.45783	0.6711	0.91063	-0.141
Mof_C 	C 	0.47824	0.7531	0.89289	0.091
Mof_C 	C 	0.48267	0.7356	0.85992	-0.171
Mof_C 	C 	0.4655	0.6344	0.84326	0.066
Mof_C 	C 	0.44444	0.5494	0.86093	-0.127
Mof_C 	C 	0.28512	0.9969	0.95976	0.002
Mof_C 	C 	0.26398	0.0799	0.94109	-0.056
Mof_C 	C 	0.23513	0.0308	0.92832	-0.044
Mof_C 	C 	0.22614	0.8956	0.93123	-0.01
Mof_C 	C 	0.24784	0.8188	0.94933	-0.039
Mof_C 	C 	0.27549	0.8667	0.96344	-0.052
Mof_C 	C 	0.36506	0.0168	0.05239	-0.008
Mof_C 	C 	0.37686	0.1005	0.07501	-0.049
Mof_C 	C 	0.3876	0.0612	0.10641	-0.045
Mof_C 	C 	0.38438	0.9301	0.11668	-0.017
Mof_C 	C 	0.37167	0.844	0.09335	-0.039
Mof_C 	C 	0.36228	0.8814	0.06265	-0.049
Mof_C 	C 	0.39549	0.8898	0.15024	0.098
Mof_C 	C 	0.39929	0.9753	0.17504	-0.157
Mof_C 	C 	0.409	0.9397	0.20638	0.09
Mof_C 	C 	0.41485	0.8079	0.21309	-0.156
Mof_C 	C 	0.4121	0.7204	0.1883	0.088
Mof_C 	C 	0.4035	0.7612	0.15699	-0.155
Mof_C 	C 	0.19693	0.847	0.91524	0.069
Mof_C 	C 	0.19476	0.7146	0.905	-0.128
Mof_C 	C 	0.16739	0.6663	0.89013	0.056
Mof_C 	C 	0.14469	0.8822	0.89117	0.058
Mof_C 	C 	0.17095	0.9277	0.90685	-0.123
Mof_C 	C 	0.50687	0.8112	0.83934	0.463
Mof_C 	C 	0.00609	0.6029	0.70772	0.073
Mof_C 	C 	0.9936	0.5026	0.68851	-0.137
Mof_C 	C 	0.9837	0.3837	0.7045	0.076
Mof_C 	C 	0.99126	0.3637	0.73556	-0.161
Mof_C 	C 	0.0056	0.4657	0.75358	0.097
Mof_C 	C 	0.1412	0.7497	0.88232	-0.129
Mof_C 	C 	0.34781	0.6435	0.33673	-0.123
Mof_C 	C 	0.08833	0.4808	0.38267	-0.008
Mof_C 	C 	0.09346	0.492	0.4169	-0.045
Mof_C 	C 	0.06781	0.5792	0.36412	0.077
Mof_C 	C 	0.37497	0.5719	0.31867	0.366
Mof_C 	C 	0.10425	0.3768	0.36643	-0.044
Mof_C 	C 	0.11254	0.6999	0.86364	0.34
Mof_C 	C 	0.42454	0.7653	0.24661	0.361
Mof_C 	C 	0.02655	0.7497	0.32911	-0.137
Mof_C 	C 	0.03711	0.6202	0.37747	-0.141
Mof_C 	C 	0.01854	0.7005	0.36045	0.068
Mof_C 	C 	0.07655	0.6233	0.33407	-0.136
Mof_C 	C 	0.056	0.7075	0.3165	0.056
Mof_C 	C 	0.15044	0.5482	0.79411	0.147
Mof_C 	C 	0.17533	0.7382	0.7982	0.153
Mof_C 	C 	0.00528	0.8411	0.30995	0.336
Mof_C 	C 	0.178	0.4766	0.7956	-0.252
Mof_C 	C 	0.20624	0.672	0.8019	-0.221
Mof_C 	C 	0.2044	0.5365	0.8019	0.178
Mof_N 	N 	0.01284	0.5834	0.74006	-0.256
Mof_N 	N 	0.14956	0.6812	0.79582	-0.282
Mof_O 	O 	0.06169	0.7857	0.72501	-0.49
Mof_O 	O 	0.11261	0.8197	0.74125	-0.477
Mof_O 	O 	0.43992	0.3806	0.29545	-0.746
Mof_O 	O 	0.42202	0.8417	0.27093	-0.351
Mof_O 	O 	0.50556	0.8081	0.80969	-0.518
Mof_O 	O 	0.52757	0.8709	0.85604	-0.521
Mof_O 	O 	0.07429	0.6198	0.78892	-0.682
Mof_O 	O 	0.36773	0.4742	0.30121	-0.441
Mof_O 	O 	0.10559	0.5797	0.86454	-0.467
Mof_O 	O 	0.40409	0.6174	0.32316	-0.456
Mof_O 	O 	0.09601	0.7841	0.84715	-0.453
Mof_O 	O 	0.43305	0.6424	0.24993	-0.472
Mof_O 	O 	0.01572	0.8994	0.28487	-0.318
Mof_O 	O 	0.97517	0.8501	0.31955	-0.461
Mof_H 	H 	0.07429	0.51515	0.78397	0.117
Mof_H 	H 	0.06008	0.8806	0.82021	0.146
_end
