data_functionalizedCrystal
_audit_creation_method	'EQeq! by Chris Wilmer'
_symmetry_space_group_name_H-M	'P1'
_symmetry_Int_Tables_number	1
_symmetry_cell_setting	triclinic
loop_
_symmetry_equiv_pos_as_xyz
  x,y,z
_cell_length_a	6.3773
_cell_length_b	6.9719
_cell_length_c	15.5118
_cell_angle_alpha	78.963
_cell_angle_beta	87.657
_cell_angle_gamma	71.99
loop_
_atom_site_label
_atom_site_type_symbol
_atom_site_fract_x
_atom_site_fract_y
_atom_site_fract_z
_atom_site_charge
Mof_La	La	0.29202	0.93712	0.25822	1.985
Mof_O 	O 	0.6613	0.9903	0.2763	-0.475
Mof_O 	O 	0.9532	0.9864	0.35296	-0.466
Mof_O 	O 	0.5183	0.7962	0.13646	-0.469
Mof_O 	O 	0.7108	0.4668	0.1849	-0.308
Mof_O 	O 	0.8464	0.3616	0.75144	-0.491
Mof_O 	O 	0.8071	0.6969	0.71572	-0.457
Mof_N 	N 	0.4283	0.9583	0.42366	-0.193
Mof_N 	N 	0.7847	0.4062	0.01686	-0.11
Mof_N 	N 	0.7077	0.7473	0.88117	-0.182
Mof_C 	C 	0.7568	0.9919	0.34523	0.41
Mof_C 	C 	0.6187	0.9986	0.42729	-0.088
Mof_C 	C 	0.3105	0.9582	0.4972	0.063
Mof_C 	C 	0.6421	0.6207	0.1267	0.363
Mof_C 	C 	0.7021	0.5973	0.03238	-0.048
Mof_C 	C 	0.8219	0.3864	0.9332	0.077
Mof_C 	C 	0.8139	0.5352	0.7696	0.429
Mof_C 	C 	0.7779	0.5559	0.86486	-0.092
Mof_C 	C 	0.6703	0.767	0.9646	0.058
Mof_H 	H 	0.182	0.918	0.496	-0.001
Mof_H 	H 	0.8789	0.2556	0.9201	-0.017
Mof_H 	H 	0.6214	0.898	0.9779	0.012
Mof_La	La	0.70798	0.06288	0.74178	1.985
Mof_O 	O 	0.3387	0.0097	0.7237	-0.475
Mof_O 	O 	0.0468	0.0136	0.64704	-0.466
Mof_O 	O 	0.4817	0.2038	0.86354	-0.469
Mof_O 	O 	0.2892	0.5332	0.8151	-0.308
Mof_O 	O 	0.1536	0.6384	0.24856	-0.491
Mof_O 	O 	0.1929	0.3031	0.28428	-0.457
Mof_N 	N 	0.5717	0.0417	0.57634	-0.193
Mof_N 	N 	0.2153	0.5938	0.98314	-0.11
Mof_N 	N 	0.2923	0.2527	0.11883	-0.182
Mof_C 	C 	0.2432	0.0081	0.65477	0.41
Mof_C 	C 	0.3813	0.0014	0.57271	-0.088
Mof_C 	C 	0.6895	0.0418	0.5028	0.063
Mof_C 	C 	0.3579	0.3793	0.8733	0.363
Mof_C 	C 	0.2979	0.4027	0.96762	-0.048
Mof_C 	C 	0.1781	0.6136	0.0668	0.077
Mof_C 	C 	0.1861	0.4648	0.2304	0.429
Mof_C 	C 	0.2221	0.4441	0.13514	-0.092
Mof_C 	C 	0.3297	0.233	0.0354	0.058
Mof_H 	H 	0.818	0.082	0.504	-0.001
Mof_H 	H 	0.1211	0.7444	0.0799	-0.017
Mof_H 	H 	0.3786	0.102	0.0221	0.012
_end
