data_functionalizedCrystal
_audit_creation_method	'EQeq! by Chris Wilmer'
_symmetry_space_group_name_H-M	'P1'
_symmetry_Int_Tables_number	1
_symmetry_cell_setting	triclinic
loop_
_symmetry_equiv_pos_as_xyz
  x,y,z
_cell_length_a	13.9508
_cell_length_b	13.9508
_cell_length_c	22.402
_cell_angle_alpha	90
_cell_angle_beta	90
_cell_angle_gamma	120
loop_
_atom_site_label
_atom_site_type_symbol
_atom_site_fract_x
_atom_site_fract_y
_atom_site_fract_z
_atom_site_charge
Mof_O 	O 	0.4324	0.5551	0.0912	-0.671
Mof_O 	O 	0.2491	0.4405	0.1091	-0.715
Mof_C 	C 	0.3373	0.4686	0.0828	0.52
Mof_C 	C 	0.3293	0.3886	0.0359	-0.066
Mof_C 	C 	0.2503	0.2896	0.0234	0.001
Mof_H 	H 	0.1813	0.2517	0.0417	0.008
Mof_O 	O 	0.09907	0.88843	0.42453	-0.641
Mof_O 	O 	0.91577	0.77383	0.44243	-0.691
Mof_C 	C 	0.00397	0.80193	0.41613	0.463
Mof_C 	C 	0.99597	0.72193	0.36923	0.005
Mof_C 	C 	0.91697	0.62293	0.35673	-0.079
Mof_H 	H 	0.84797	0.58503	0.37503	0.042
Mof_O 	O 	0.76573	0.22177	0.75787	-0.672
Mof_O 	O 	0.58243	0.10717	0.77577	-0.719
Mof_C 	C 	0.67063	0.13527	0.74947	0.527
Mof_C 	C 	0.66263	0.05527	0.70257	-0.092
Mof_C 	C 	0.58363	0.95627	0.69007	0.033
Mof_H 	H 	0.51463	0.91837	0.70837	0.005
Mof_O 	O 	0.4449	0.8773	0.0912	-0.666
Mof_O 	O 	0.5595	0.8086	0.1091	-0.711
Mof_C 	C 	0.5314	0.8687	0.0828	0.521
Mof_C 	C 	0.6114	0.9407	0.0359	-0.055
Mof_C 	C 	0.7104	0.9607	0.0234	0.028
Mof_H 	H 	0.7483	0.9296	0.0417	0.011
Mof_O 	O 	0.11157	0.21063	0.42453	-0.665
Mof_O 	O 	0.22617	0.14193	0.44243	-0.705
Mof_C 	C 	0.19807	0.20203	0.41613	0.508
Mof_C 	C 	0.27807	0.27403	0.36923	-0.055
Mof_C 	C 	0.37707	0.29403	0.35673	-0.027
Mof_H 	H 	0.41497	0.26293	0.37503	0.02
Mof_O 	O 	0.77823	0.54397	0.75787	-0.666
Mof_O 	O 	0.89283	0.47527	0.77577	-0.705
Mof_C 	C 	0.86473	0.53537	0.74947	0.503
Mof_C 	C 	0.94473	0.60737	0.70257	-0.013
Mof_C 	C 	0.04373	0.62737	0.69007	-0.088
Mof_H 	H 	0.08163	0.59627	0.70837	0.037
Mof_O 	O 	0.1227	0.5676	0.0912	-0.671
Mof_O 	O 	0.1914	0.7509	0.1091	-0.711
Mof_C 	C 	0.1313	0.6627	0.0828	0.513
Mof_C 	C 	0.0593	0.6707	0.0359	-0.05
Mof_C 	C 	0.0393	0.7497	0.0234	-0.035
Mof_H 	H 	0.0704	0.8187	0.0417	0.027
Mof_O 	O 	0.78937	0.90093	0.42453	-0.679
Mof_O 	O 	0.85807	0.08423	0.44243	-0.711
Mof_C 	C 	0.79797	0.99603	0.41613	0.557
Mof_C 	C 	0.72597	0.00403	0.36923	-0.101
Mof_C 	C 	0.70597	0.08303	0.35673	0.018
Mof_H 	H 	0.73707	0.15203	0.37503	0.007
Mof_O 	O 	0.45603	0.23427	0.75787	-0.672
Mof_O 	O 	0.52473	0.41757	0.77577	-0.713
Mof_C 	C 	0.46463	0.32937	0.74947	0.514
Mof_C 	C 	0.39263	0.33737	0.70257	-0.056
Mof_C 	C 	0.37263	0.41637	0.69007	-0.027
Mof_H 	H 	0.40373	0.48537	0.70837	0.02
Mof_O 	O 	0.5551	0.4324	0.9088	-0.673
Mof_O 	O 	0.4405	0.2491	0.8909	-0.715
Mof_C 	C 	0.4686	0.3373	0.9172	0.514
Mof_C 	C 	0.3886	0.3293	0.9641	-0.062
Mof_C 	C 	0.2896	0.2503	0.9766	-0.051
Mof_H 	H 	0.2517	0.1813	0.9583	0.019
Mof_O 	O 	0.22177	0.76573	0.24213	-0.673
Mof_O 	O 	0.10717	0.58243	0.22423	-0.72
Mof_C 	C 	0.13527	0.67063	0.25053	0.529
Mof_C 	C 	0.05527	0.66263	0.29743	-0.097
Mof_C 	C 	0.95627	0.58363	0.30993	0.041
Mof_H 	H 	0.91837	0.51463	0.29163	0.004
Mof_O 	O 	0.88843	0.09907	0.57547	-0.64
Mof_O 	O 	0.77383	0.91577	0.55757	-0.694
Mof_C 	C 	0.80193	0.00397	0.58387	0.469
Mof_C 	C 	0.72193	0.99597	0.63077	-0.002
Mof_C 	C 	0.62293	0.91697	0.64327	-0.073
Mof_H 	H 	0.58503	0.84797	0.62497	0.039
Mof_O 	O 	0.8773	0.4449	0.9088	-0.669
Mof_O 	O 	0.8086	0.5595	0.8909	-0.712
Mof_C 	C 	0.8687	0.5314	0.9172	0.515
Mof_C 	C 	0.9407	0.6114	0.9641	-0.05
Mof_C 	C 	0.9607	0.7104	0.9766	-0.018
Mof_H 	H 	0.9296	0.7483	0.9583	0.021
Mof_O 	O 	0.54397	0.77823	0.24213	-0.667
Mof_O 	O 	0.47527	0.89283	0.22423	-0.706
Mof_C 	C 	0.53537	0.86473	0.25053	0.505
Mof_C 	C 	0.60737	0.94473	0.29743	-0.018
Mof_C 	C 	0.62737	0.04373	0.30993	-0.08
Mof_H 	H 	0.59627	0.08163	0.29163	0.036
Mof_O 	O 	0.21063	0.11157	0.57547	-0.666
Mof_O 	O 	0.14193	0.22617	0.55757	-0.705
Mof_C 	C 	0.20203	0.19807	0.58387	0.508
Mof_C 	C 	0.27403	0.27807	0.63077	-0.055
Mof_C 	C 	0.29403	0.37707	0.64327	-0.028
Mof_H 	H 	0.26293	0.41497	0.62497	0.019
Mof_O 	O 	0.5676	0.1227	0.9088	-0.674
Mof_O 	O 	0.7509	0.1914	0.8909	-0.711
Mof_C 	C 	0.6627	0.1313	0.9172	0.509
Mof_C 	C 	0.6707	0.0593	0.9641	-0.049
Mof_C 	C 	0.7497	0.0393	0.9766	-0.08
Mof_H 	H 	0.8187	0.0704	0.9583	0.037
Mof_O 	O 	0.23427	0.45603	0.24213	-0.672
Mof_O 	O 	0.41757	0.52473	0.22423	-0.713
Mof_C 	C 	0.32937	0.46463	0.25053	0.515
Mof_C 	C 	0.33737	0.39263	0.29743	-0.055
Mof_C 	C 	0.41637	0.37263	0.30993	-0.026
Mof_H 	H 	0.48537	0.40373	0.29163	0.021
Mof_O 	O 	0.90093	0.78937	0.57547	-0.681
Mof_O 	O 	0.08423	0.85807	0.55757	-0.716
Mof_C 	C 	0.99603	0.79797	0.58387	0.564
Mof_C 	C 	0.00403	0.72597	0.63077	-0.109
Mof_C 	C 	0.08303	0.70597	0.64327	0.025
Mof_H 	H 	0.15203	0.73707	0.62497	0.004
Mof_In	In	0.47962	0.66667	0.16667	2.441
Mof_In	In	0.14629	-1.3371e-32	0.5	2.367
Mof_In	In	0.33333	0.81296	0.16667	2.445
Mof_In	In	-7.99941e-18	0.14629	0.5	2.362
Mof_In	In	0.18704	0.52038	0.16667	2.426
Mof_In	In	0.85371	0.85371	0.5	2.486
Mof_In	In	0.66667	0.47962	0.83333	2.435
Mof_In	In	0.81296	0.33333	0.83333	2.44
Mof_In	In	0.52038	0.18704	0.83333	2.42
Mof_O 	O 	0.4215	0.4215	-0	-0.139
Mof_O 	O 	0.08817	0.75483	0.33333	-0.162
Mof_O 	O 	0.75483	0.08817	0.66667	-0.161
Mof_O 	O 	0.5785	0	-0	-0.156
Mof_O 	O 	0.24517	0.33333	0.33333	-0.156
Mof_O 	O 	0.91183	0.66667	0.66667	-0.14
Mof_O 	O 	-0	0.5785	-0	-0.159
Mof_O 	O 	0.66667	0.91183	0.33333	-0.141
Mof_O 	O 	0.33333	0.24517	0.66667	-0.156
Mof_O 	O 	0.33333	0.66667	0.16667	-1.279
Mof_O 	O 	-1.3371e-32	-1.3371e-32	0.5	-1.29
Mof_O 	O 	0.66667	0.33333	0.83333	-1.277
_end
