data_functionalizedCrystal
_audit_creation_method	'EQeq! by Chris Wilmer'
_symmetry_space_group_name_H-M	'P1'
_symmetry_Int_Tables_number	1
_symmetry_cell_setting	triclinic
loop_
_symmetry_equiv_pos_as_xyz
  x,y,z
_cell_length_a	8.2936
_cell_length_b	16.2539
_cell_length_c	17.0073
_cell_angle_alpha	90
_cell_angle_beta	100.023
_cell_angle_gamma	90
loop_
_atom_site_label
_atom_site_type_symbol
_atom_site_fract_x
_atom_site_fract_y
_atom_site_fract_z
_atom_site_charge
Mof_C 	C 	0.7959	0.8843	0.1378	0.11
Mof_H 	H 	0.8969	0.8998	0.1259	-0.005
Mof_C 	C 	0.6612	0.931	0.1084	-0.183
Mof_H 	H 	0.6718	0.9773	0.0776	0.103
Mof_C 	C 	0.5108	0.9093	0.1248	0.117
Mof_C 	C 	0.499	0.8382	0.1678	-0.176
Mof_H 	H 	0.3976	0.8199	0.1769	0.099
Mof_C 	C 	0.6396	0.7945	0.1971	0.104
Mof_H 	H 	0.6312	0.7477	0.2276	-0.001
Mof_C 	C 	0.364	0.9615	0.0968	-0.038
Mof_C 	C 	0.3493	0.0423	0.1098	-0.033
Mof_C 	C 	0.4816	0.0969	0.1518	0.114
Mof_C 	C 	0.5189	0.1693	0.1161	-0.176
Mof_H 	H 	0.4559	0.1872	0.0686	0.099
Mof_C 	C 	0.6541	0.2147	0.1534	0.104
Mof_H 	H 	0.6787	0.2638	0.13	-0.005
Mof_C 	C 	0.7069	0.1228	0.2568	0.1
Mof_H 	H 	0.7688	0.1074	0.3056	-0.002
Mof_C 	C 	0.5733	0.0741	0.2236	-0.174
Mof_H 	H 	0.547	0.0271	0.2498	0.103
Mof_C 	C 	0.0728	0.0005	0.0236	-0.009
Mof_Fe	Fe	0.01656	0.75311	0.23304	0.677
Mof_N 	N 	0.7887	0.8171	0.1831	-0.191
Mof_N 	N 	0.7487	0.191	0.2207	-0.192
Mof_N 	N 	0.143	0.87	0.2462	-0.212
Mof_C 	C 	0.1825	0.9336	0.2697	0.17
Mof_C 	C 	0.1657	0.0732	0.2857	0.177
Mof_N 	N 	0.1115	0.1376	0.2762	-0.21
Mof_N 	N 	0.9702	0.7716	0.3506	-0.222
Mof_C 	C 	0.9811	0.7931	0.4142	0.208
Mof_C 	C 	0.0293	0.7918	0.5515	0.209
Mof_N 	N 	0.0587	0.7672	0.6142	-0.224
Mof_N 	N 	0.047	0.832	0.4846	-0.125
Mof_N 	N 	0.2435	0.0036	0.2996	-0.178
Mof_S 	S 	0.1617	0.08892	0.07151	-0.002
Mof_S 	S 	0.19504	0.91127	0.04003	-0.008
Mof_N 	N 	0.934	0.8173	0.4829	-0.124
Mof_C 	C 	0.2041	0.3843	0.3622	0.109
Mof_H 	H 	0.1031	0.3998	0.3741	-0.006
Mof_C 	C 	0.3388	0.431	0.3916	-0.184
Mof_H 	H 	0.3282	0.4773	0.4224	0.102
Mof_C 	C 	0.4892	0.4093	0.3752	0.117
Mof_C 	C 	0.501	0.3382	0.3322	-0.176
Mof_H 	H 	0.6024	0.3199	0.3231	0.098
Mof_C 	C 	0.3604	0.2945	0.3029	0.104
Mof_H 	H 	0.3688	0.2477	0.2724	-0.001
Mof_C 	C 	0.636	0.4615	0.4032	-0.037
Mof_C 	C 	0.6507	0.5423	0.3902	-0.034
Mof_C 	C 	0.5184	0.5969	0.3482	0.115
Mof_C 	C 	0.4811	0.6693	0.3839	-0.177
Mof_H 	H 	0.5441	0.6872	0.4314	0.099
Mof_C 	C 	0.3459	0.7147	0.3466	0.104
Mof_H 	H 	0.3213	0.7638	0.37	-0.005
Mof_C 	C 	0.2931	0.6228	0.2432	0.1
Mof_H 	H 	0.2312	0.6074	0.1944	-0.002
Mof_C 	C 	0.4267	0.5741	0.2764	-0.175
Mof_H 	H 	0.453	0.5271	0.2502	0.103
Mof_C 	C 	0.9272	0.5005	0.4764	-0.011
Mof_Fe	Fe	0.98344	0.25311	0.26696	0.677
Mof_N 	N 	0.2113	0.3171	0.3169	-0.191
Mof_N 	N 	0.2513	0.691	0.2793	-0.192
Mof_N 	N 	0.857	0.37	0.2538	-0.212
Mof_C 	C 	0.8175	0.4336	0.2303	0.173
Mof_C 	C 	0.8343	0.5732	0.2143	0.176
Mof_N 	N 	0.8885	0.6376	0.2238	-0.21
Mof_N 	N 	0.0298	0.2716	0.1494	-0.222
Mof_C 	C 	0.0189	0.2931	0.0858	0.207
Mof_C 	C 	0.9707	0.2918	0.9485	0.208
Mof_N 	N 	0.9413	0.2672	0.8858	-0.224
Mof_N 	N 	0.953	0.332	0.0154	-0.124
Mof_N 	N 	0.7565	0.5036	0.2004	-0.179
Mof_S 	S 	0.8383	0.58892	0.42849	-0.002
Mof_S 	S 	0.80496	0.41127	0.45997	-0.005
Mof_N 	N 	0.066	0.3173	0.0171	-0.125
Mof_C 	C 	0.2041	0.1157	0.8622	0.109
Mof_H 	H 	0.1031	0.1002	0.8741	-0.006
Mof_C 	C 	0.3388	0.069	0.8916	-0.184
Mof_H 	H 	0.3282	0.0227	0.9224	0.102
Mof_C 	C 	0.4892	0.0907	0.8752	0.117
Mof_C 	C 	0.501	0.1618	0.8322	-0.176
Mof_H 	H 	0.6024	0.1801	0.8231	0.099
Mof_C 	C 	0.3604	0.2055	0.8029	0.104
Mof_H 	H 	0.3688	0.2523	0.7724	-0.001
Mof_C 	C 	0.636	0.0385	0.9032	-0.038
Mof_C 	C 	0.6507	0.9577	0.8902	-0.033
Mof_C 	C 	0.5184	0.9031	0.8482	0.114
Mof_C 	C 	0.4811	0.8307	0.8839	-0.176
Mof_H 	H 	0.5441	0.8128	0.9314	0.099
Mof_C 	C 	0.3459	0.7853	0.8466	0.104
Mof_H 	H 	0.3213	0.7362	0.87	-0.005
Mof_C 	C 	0.2931	0.8772	0.7432	0.1
Mof_H 	H 	0.2312	0.8926	0.6944	-0.002
Mof_C 	C 	0.4267	0.9259	0.7764	-0.174
Mof_H 	H 	0.453	0.9729	0.7502	0.103
Mof_C 	C 	0.9272	0.9995	0.9764	-0.009
Mof_Fe	Fe	0.98344	0.24689	0.76696	0.677
Mof_N 	N 	0.2113	0.1829	0.8169	-0.191
Mof_N 	N 	0.2513	0.809	0.7793	-0.192
Mof_N 	N 	0.857	0.13	0.7538	-0.212
Mof_C 	C 	0.8175	0.0664	0.7303	0.17
Mof_C 	C 	0.8343	0.9268	0.7143	0.177
Mof_N 	N 	0.8885	0.8624	0.7238	-0.21
Mof_N 	N 	0.0298	0.2284	0.6494	-0.222
Mof_C 	C 	0.0189	0.2069	0.5858	0.208
Mof_C 	C 	0.9707	0.2082	0.4485	0.209
Mof_N 	N 	0.9413	0.2328	0.3858	-0.224
Mof_N 	N 	0.953	0.168	0.5154	-0.125
Mof_N 	N 	0.7565	0.9964	0.7004	-0.178
Mof_S 	S 	0.8383	0.91108	0.92849	-0.002
Mof_S 	S 	0.80496	0.08873	0.95997	-0.008
Mof_N 	N 	0.066	0.1827	0.5171	-0.124
Mof_C 	C 	0.7959	0.6157	0.6378	0.109
Mof_H 	H 	0.8969	0.6002	0.6259	-0.006
Mof_C 	C 	0.6612	0.569	0.6084	-0.184
Mof_H 	H 	0.6718	0.5227	0.5776	0.102
Mof_C 	C 	0.5108	0.5907	0.6248	0.117
Mof_C 	C 	0.499	0.6618	0.6678	-0.176
Mof_H 	H 	0.3976	0.6801	0.6769	0.098
Mof_C 	C 	0.6396	0.7055	0.6971	0.104
Mof_H 	H 	0.6312	0.7523	0.7276	-0.001
Mof_C 	C 	0.364	0.5385	0.5968	-0.037
Mof_C 	C 	0.3493	0.4577	0.6098	-0.034
Mof_C 	C 	0.4816	0.4031	0.6518	0.115
Mof_C 	C 	0.5189	0.3307	0.6161	-0.177
Mof_H 	H 	0.4559	0.3128	0.5686	0.099
Mof_C 	C 	0.6541	0.2853	0.6534	0.104
Mof_H 	H 	0.6787	0.2362	0.63	-0.005
Mof_C 	C 	0.7069	0.3772	0.7568	0.1
Mof_H 	H 	0.7688	0.3926	0.8056	-0.002
Mof_C 	C 	0.5733	0.4259	0.7236	-0.175
Mof_H 	H 	0.547	0.4729	0.7498	0.103
Mof_C 	C 	0.0728	0.4995	0.5236	-0.011
Mof_Fe	Fe	0.01656	0.74689	0.73304	0.677
Mof_N 	N 	0.7887	0.6829	0.6831	-0.191
Mof_N 	N 	0.7487	0.309	0.7207	-0.192
Mof_N 	N 	0.143	0.63	0.7462	-0.212
Mof_C 	C 	0.1825	0.5664	0.7697	0.173
Mof_C 	C 	0.1657	0.4268	0.7857	0.176
Mof_N 	N 	0.1115	0.3624	0.7762	-0.21
Mof_N 	N 	0.9702	0.7284	0.8506	-0.222
Mof_C 	C 	0.9811	0.7069	0.9142	0.207
Mof_C 	C 	0.0293	0.7082	0.0515	0.208
Mof_N 	N 	0.0587	0.7328	0.1142	-0.224
Mof_N 	N 	0.047	0.668	0.9846	-0.124
Mof_N 	N 	0.2435	0.4964	0.7996	-0.179
Mof_S 	S 	0.1617	0.41108	0.57151	-0.002
Mof_S 	S 	0.19504	0.58873	0.54003	-0.005
Mof_N 	N 	0.934	0.6827	0.9829	-0.125
_end
