data_functionalizedCrystal
_audit_creation_method	'EQeq! by Chris Wilmer'
_symmetry_space_group_name_H-M	'P1'
_symmetry_Int_Tables_number	1
_symmetry_cell_setting	triclinic
loop_
_symmetry_equiv_pos_as_xyz
  x,y,z
_cell_length_a	35.126
_cell_length_b	35.126
_cell_length_c	11.239
_cell_angle_alpha	90
_cell_angle_beta	90
_cell_angle_gamma	90
loop_
_atom_site_label
_atom_site_type_symbol
_atom_site_fract_x
_atom_site_fract_y
_atom_site_fract_z
_atom_site_charge
Mof_O 	O 	0.60433	0.45993	0.5844	-0.67
Mof_O 	O 	0.46695	0.51497	0.3475	-1.34
Mof_O 	O 	0.60216	0.5196	0.6553	-0.752
Mof_O 	O 	0.90931	0.44784	0.8535	-0.637
Mof_O 	O 	0.51103	0.5578	0.4618	-1.353
Mof_C 	C 	0.79456	0.46079	0.8048	-0.072
Mof_H 	H 	0.7768	0.4508	0.8605	0.077
Mof_O 	O 	0.92279	0.49622	0.7308	-0.773
Mof_C 	C 	0.80752	0.49421	0.6221	0.079
Mof_C 	C 	0.83338	0.45653	0.8242	0.035
Mof_H 	H 	0.8422	0.4437	0.8932	0.06
Mof_C 	C 	0.85932	0.47112	0.7425	-0.145
Mof_C 	C 	0.71932	0.45138	0.6546	-0.088
Mof_H 	H 	0.7322	0.4277	0.6489	0.065
Mof_C 	C 	0.68032	0.45324	0.6345	0.045
Mof_H 	H 	0.6666	0.4308	0.615	0.034
Mof_C 	C 	0.66149	0.48793	0.6429	-0.154
Mof_C 	C 	0.72065	0.51888	0.6915	0.07
Mof_C 	C 	0.68164	0.52074	0.6714	-0.033
Mof_H 	H 	0.6688	0.5444	0.6771	0.017
Mof_C 	C 	0.7979	0.5123	0.4993	-0.424
Mof_H 	H 	0.7838	0.536	0.5114	0.127
Mof_H 	H 	0.7824	0.4945	0.4528	0.149
Mof_H 	H 	0.8216	0.5177	0.4563	0.129
Mof_C 	C 	0.84641	0.48994	0.6416	-0.043
Mof_H 	H 	0.8641	0.4999	0.5858	0.018
Mof_C 	C 	0.78166	0.47965	0.7036	-0.018
Mof_C 	C 	0.9006	0.4709	0.7711	0.518
Mof_C 	C 	0.7395	0.48419	0.683	-0.007
Mof_C 	C 	0.6201	0.48993	0.6215	0.524
Mof_C 	C 	0.742	0.557	0.7234	-0.411
Mof_H 	H 	0.7234	0.5775	0.7335	0.125
Mof_H 	H 	0.7596	0.5636	0.659	0.122
Mof_H 	H 	0.7563	0.5535	0.7975	0.147
Mof_O 	O 	0.89567	0.04007	0.5844	-0.672
Mof_O 	O 	0.03305	0.98503	0.3475	-1.341
Mof_O 	O 	0.89784	0.9804	0.6553	-0.757
Mof_O 	O 	0.59069	0.05216	0.8535	-0.636
Mof_O 	O 	0.98897	0.9422	0.4618	-1.357
Mof_C 	C 	0.70544	0.03921	0.8048	-0.066
Mof_H 	H 	0.7232	0.0492	0.8605	0.075
Mof_O 	O 	0.57721	0.00378	0.7308	-0.77
Mof_C 	C 	0.69248	0.00579	0.6221	0.094
Mof_C 	C 	0.66662	0.04347	0.8242	0.03
Mof_H 	H 	0.6578	0.0563	0.8932	0.061
Mof_C 	C 	0.64068	0.02888	0.7425	-0.139
Mof_C 	C 	0.78068	0.04862	0.6546	-0.092
Mof_H 	H 	0.7678	0.0723	0.6489	0.066
Mof_C 	C 	0.81968	0.04676	0.6345	0.047
Mof_H 	H 	0.8334	0.0692	0.615	0.033
Mof_C 	C 	0.83851	0.01207	0.6429	-0.152
Mof_C 	C 	0.77935	0.98112	0.6915	0.063
Mof_C 	C 	0.81836	0.97926	0.6714	-0.035
Mof_H 	H 	0.8312	0.9556	0.6771	0.017
Mof_C 	C 	0.7021	0.9877	0.4993	-0.454
Mof_H 	H 	0.7162	0.964	0.5114	0.135
Mof_H 	H 	0.7176	0.0055	0.4528	0.161
Mof_H 	H 	0.6784	0.9823	0.4563	0.136
Mof_C 	C 	0.65359	0.01006	0.6416	-0.051
Mof_H 	H 	0.6359	0.0001	0.5858	0.023
Mof_C 	C 	0.71834	0.02035	0.7036	-0.027
Mof_C 	C 	0.5994	0.0291	0.7711	0.516
Mof_C 	C 	0.7605	0.01581	0.683	0.002
Mof_C 	C 	0.8799	0.01007	0.6215	0.529
Mof_C 	C 	0.758	0.943	0.7234	-0.406
Mof_H 	H 	0.7766	0.9225	0.7335	0.123
Mof_H 	H 	0.7404	0.9364	0.659	0.119
Mof_H 	H 	0.7437	0.9465	0.7975	0.145
Mof_O 	O 	0.04007	0.60433	0.0844	-0.709
Mof_O 	O 	0.98503	0.46695	0.8475	-1.313
Mof_O 	O 	0.9804	0.60216	0.1553	-0.788
Mof_O 	O 	0.05216	0.90931	0.3535	-0.674
Mof_O 	O 	0.9422	0.51103	0.9618	-1.3
Mof_C 	C 	0.03921	0.79456	0.3048	-0.177
Mof_H 	H 	0.0492	0.7768	0.3605	0.084
Mof_O 	O 	0.00378	0.92279	0.2308	-0.797
Mof_C 	C 	0.00579	0.80752	0.1221	-0.179
Mof_C 	C 	0.04347	0.83338	0.3242	0.112
Mof_H 	H 	0.0563	0.8422	0.3932	0.005
Mof_C 	C 	0.02888	0.85932	0.2425	-0.244
Mof_C 	C 	0.04862	0.71932	0.1546	-0.077
Mof_H 	H 	0.0723	0.7322	0.1489	0.039
Mof_C 	C 	0.04676	0.68032	0.1345	0.022
Mof_H 	H 	0.0692	0.6666	0.115	0.018
Mof_C 	C 	0.01207	0.66149	0.1429	-0.165
Mof_C 	C 	0.98112	0.72065	0.1915	0.058
Mof_C 	C 	0.97926	0.68164	0.1714	-0.049
Mof_H 	H 	0.9556	0.6688	0.1771	0.003
Mof_C 	C 	0.9877	0.7979	0.9993	0.149
Mof_H 	H 	0.964	0.7838	0.0114	-0.102
Mof_H 	H 	0.0055	0.7824	0.9528	0.018
Mof_H 	H 	0.9823	0.8216	0.9563	-0.002
Mof_C 	C 	0.01006	0.84641	0.1416	0.102
Mof_H 	H 	0.0001	0.8641	0.0858	-0.054
Mof_C 	C 	0.02035	0.78166	0.2036	0.097
Mof_C 	C 	0.0291	0.9006	0.2711	0.549
Mof_C 	C 	0.01581	0.7395	0.183	-0.058
Mof_C 	C 	0.01007	0.6201	0.1215	0.521
Mof_C 	C 	0.943	0.742	0.2234	-0.378
Mof_H 	H 	0.9225	0.7234	0.2335	0.094
Mof_H 	H 	0.9364	0.7596	0.159	0.103
Mof_H 	H 	0.9465	0.7563	0.2975	0.112
Mof_O 	O 	0.45993	0.89567	0.0844	-0.709
Mof_O 	O 	0.51497	0.03305	0.8475	-1.309
Mof_O 	O 	0.5196	0.89784	0.1553	-0.784
Mof_O 	O 	0.44784	0.59069	0.3535	-0.674
Mof_O 	O 	0.5578	0.98897	0.9618	-1.302
Mof_C 	C 	0.46079	0.70544	0.3048	-0.183
Mof_H 	H 	0.4508	0.7232	0.3605	0.086
Mof_O 	O 	0.49622	0.57721	0.2308	-0.799
Mof_C 	C 	0.49421	0.69248	0.1221	-0.193
Mof_C 	C 	0.45653	0.66662	0.3242	0.117
Mof_H 	H 	0.4437	0.6578	0.3932	0.003
Mof_C 	C 	0.47112	0.64068	0.2425	-0.249
Mof_C 	C 	0.45138	0.78068	0.1546	-0.073
Mof_H 	H 	0.4277	0.7678	0.1489	0.038
Mof_C 	C 	0.45324	0.81968	0.1345	0.02
Mof_H 	H 	0.4308	0.8334	0.115	0.019
Mof_C 	C 	0.48793	0.83851	0.1429	-0.168
Mof_C 	C 	0.51888	0.77935	0.1915	0.067
Mof_C 	C 	0.52074	0.81836	0.1714	-0.046
Mof_H 	H 	0.5444	0.8312	0.1771	0.003
Mof_C 	C 	0.5123	0.7021	0.9993	0.174
Mof_H 	H 	0.536	0.7162	0.0114	-0.108
Mof_H 	H 	0.4945	0.7176	0.9528	0.009
Mof_H 	H 	0.5177	0.6784	0.9563	-0.007
Mof_C 	C 	0.48994	0.65359	0.1416	0.109
Mof_H 	H 	0.4999	0.6359	0.0858	-0.058
Mof_C 	C 	0.47965	0.71834	0.2036	0.104
Mof_C 	C 	0.4709	0.5994	0.2711	0.55
Mof_C 	C 	0.48419	0.7605	0.183	-0.067
Mof_C 	C 	0.48993	0.8799	0.1215	0.515
Mof_C 	C 	0.557	0.758	0.2234	-0.385
Mof_H 	H 	0.5775	0.7766	0.2335	0.096
Mof_H 	H 	0.5636	0.7404	0.159	0.106
Mof_H 	H 	0.5535	0.7437	0.2975	0.115
Mof_O 	O 	0.39567	0.95993	0.9156	-0.64
Mof_O 	O 	0.53305	0.01497	0.1525	-1.349
Mof_O 	O 	0.39784	0.0196	0.8447	-0.743
Mof_O 	O 	0.09069	0.94784	0.6465	-0.652
Mof_O 	O 	0.48897	0.0578	0.0382	-1.401
Mof_C 	C 	0.20544	0.96079	0.6952	0.01
Mof_H 	H 	0.2232	0.9508	0.6395	0.026
Mof_O 	O 	0.07721	0.99622	0.7692	-0.759
Mof_C 	C 	0.19248	0.99421	0.8779	0.319
Mof_C 	C 	0.16662	0.95653	0.6758	-0.044
Mof_H 	H 	0.1578	0.9437	0.6068	0.06
Mof_C 	C 	0.14068	0.97112	0.7575	-0.072
Mof_C 	C 	0.28068	0.95138	0.8454	-0.119
Mof_H 	H 	0.2678	0.9277	0.8511	0.087
Mof_C 	C 	0.31968	0.95324	0.8655	0.074
Mof_H 	H 	0.3334	0.9308	0.885	0.038
Mof_C 	C 	0.33851	0.98793	0.8571	-0.169
Mof_C 	C 	0.27935	0.01888	0.8085	0.03
Mof_C 	C 	0.31836	0.02074	0.8286	-0.001
Mof_H 	H 	0.3312	0.0444	0.8229	0.008
Mof_C 	C 	0.2021	0.0123	0.0007	-0.953
Mof_H 	H 	0.2162	0.036	0.9886	0.338
Mof_H 	H 	0.2176	0.9945	0.0472	0.271
Mof_H 	H 	0.1784	0.0177	0.0437	0.249
Mof_C 	C 	0.15359	0.98994	0.8584	-0.178
Mof_H 	H 	0.1359	0.9999	0.9142	0.084
Mof_C 	C 	0.21834	0.97965	0.7964	-0.14
Mof_C 	C 	0.0994	0.9709	0.7289	0.497
Mof_C 	C 	0.2605	0.98419	0.817	0.051
Mof_C 	C 	0.3799	0.98993	0.8785	0.53
Mof_C 	C 	0.258	0.057	0.7766	-0.357
Mof_H 	H 	0.2766	0.0775	0.7665	0.102
Mof_H 	H 	0.2404	0.0636	0.841	0.106
Mof_H 	H 	0.2437	0.0535	0.7025	0.11
Mof_O 	O 	0.10433	0.54007	0.9156	-0.641
Mof_O 	O 	0.96695	0.48503	0.1525	-1.354
Mof_O 	O 	0.10216	0.4804	0.8447	-0.747
Mof_O 	O 	0.40931	0.55216	0.6465	-0.652
Mof_O 	O 	0.01103	0.4422	0.0382	-1.398
Mof_C 	C 	0.29456	0.53921	0.6952	0.017
Mof_H 	H 	0.2768	0.5492	0.6395	0.024
Mof_O 	O 	0.42279	0.50378	0.7692	-0.758
Mof_C 	C 	0.30752	0.50579	0.8779	0.334
Mof_C 	C 	0.33338	0.54347	0.6758	-0.049
Mof_H 	H 	0.3422	0.5563	0.6068	0.062
Mof_C 	C 	0.35932	0.52888	0.7575	-0.066
Mof_C 	C 	0.21932	0.54862	0.8454	-0.123
Mof_H 	H 	0.2322	0.5723	0.8511	0.089
Mof_C 	C 	0.18032	0.54676	0.8655	0.076
Mof_H 	H 	0.1666	0.5692	0.885	0.037
Mof_C 	C 	0.16149	0.51207	0.8571	-0.168
Mof_C 	C 	0.22065	0.48112	0.8085	0.023
Mof_C 	C 	0.18164	0.47926	0.8286	-0.002
Mof_H 	H 	0.1688	0.4556	0.8229	0.007
Mof_C 	C 	0.2979	0.4877	0.0007	-0.987
Mof_H 	H 	0.2838	0.464	0.9886	0.348
Mof_H 	H 	0.2824	0.5055	0.0472	0.284
Mof_H 	H 	0.3216	0.4823	0.0437	0.257
Mof_C 	C 	0.34641	0.51006	0.8584	-0.187
Mof_H 	H 	0.3641	0.5001	0.9142	0.088
Mof_C 	C 	0.28166	0.52035	0.7964	-0.149
Mof_C 	C 	0.4006	0.5291	0.7289	0.495
Mof_C 	C 	0.2395	0.51581	0.817	0.06
Mof_C 	C 	0.1201	0.51007	0.8785	0.534
Mof_C 	C 	0.242	0.443	0.7766	-0.352
Mof_H 	H 	0.2234	0.4225	0.7665	0.1
Mof_H 	H 	0.2596	0.4364	0.841	0.103
Mof_H 	H 	0.2563	0.4465	0.7025	0.108
Mof_O 	O 	0.95993	0.10433	0.4156	-0.68
Mof_O 	O 	0.01497	0.96695	0.6525	-1.324
Mof_O 	O 	0.0196	0.10216	0.3447	-0.773
Mof_O 	O 	0.94784	0.40931	0.1465	-0.686
Mof_O 	O 	0.0578	0.01103	0.5382	-1.349
Mof_C 	C 	0.96079	0.29456	0.1952	-0.094
Mof_H 	H 	0.9508	0.2768	0.1395	0.034
Mof_O 	O 	0.99622	0.42279	0.2692	-0.786
Mof_C 	C 	0.99421	0.30752	0.3779	0.064
Mof_C 	C 	0.95653	0.33338	0.1758	0.033
Mof_H 	H 	0.9437	0.3422	0.1068	0.005
Mof_C 	C 	0.97112	0.35932	0.2575	-0.171
Mof_C 	C 	0.95138	0.21932	0.3454	-0.106
Mof_H 	H 	0.9277	0.2322	0.3511	0.061
Mof_C 	C 	0.95324	0.18032	0.3655	0.05
Mof_H 	H 	0.9308	0.1666	0.385	0.023
Mof_C 	C 	0.98793	0.16149	0.3571	-0.183
Mof_C 	C 	0.01888	0.22065	0.3085	0.028
Mof_C 	C 	0.02074	0.18164	0.3286	-0.013
Mof_H 	H 	0.0444	0.1688	0.3229	-0.006
Mof_C 	C 	0.0123	0.2979	0.5007	-0.398
Mof_H 	H 	0.036	0.2838	0.4886	0.12
Mof_H 	H 	0.9945	0.2824	0.5472	0.141
Mof_H 	H 	0.0177	0.3216	0.5437	0.122
Mof_C 	C 	0.98994	0.34641	0.3584	-0.036
Mof_H 	H 	0.9999	0.3641	0.4142	0.012
Mof_C 	C 	0.97965	0.28166	0.2964	-0.026
Mof_C 	C 	0.9709	0.4006	0.2289	0.526
Mof_C 	C 	0.98419	0.2395	0.317	-0.006
Mof_C 	C 	0.98993	0.1201	0.3785	0.523
Mof_C 	C 	0.057	0.242	0.2766	-0.334
Mof_H 	H 	0.0775	0.2234	0.2665	0.075
Mof_H 	H 	0.0636	0.2596	0.341	0.092
Mof_H 	H 	0.0535	0.2563	0.2025	0.081
Mof_O 	O 	0.54007	0.39567	0.4156	-0.681
Mof_O 	O 	0.48503	0.53305	0.6525	-1.325
Mof_O 	O 	0.4804	0.39784	0.3447	-0.777
Mof_O 	O 	0.55216	0.09069	0.1465	-0.684
Mof_O 	O 	0.4422	0.48897	0.5382	-1.352
Mof_C 	C 	0.53921	0.20544	0.1952	-0.087
Mof_H 	H 	0.5492	0.2232	0.1395	0.032
Mof_O 	O 	0.50378	0.07721	0.2692	-0.782
Mof_C 	C 	0.50579	0.19248	0.3779	0.078
Mof_C 	C 	0.54347	0.16662	0.1758	0.028
Mof_H 	H 	0.5563	0.1578	0.1068	0.007
Mof_C 	C 	0.52888	0.14068	0.2575	-0.165
Mof_C 	C 	0.54862	0.28068	0.3454	-0.11
Mof_H 	H 	0.5723	0.2678	0.3511	0.062
Mof_C 	C 	0.54676	0.31968	0.3655	0.052
Mof_H 	H 	0.5692	0.3334	0.385	0.022
Mof_C 	C 	0.51207	0.33851	0.3571	-0.182
Mof_C 	C 	0.48112	0.27935	0.3085	0.02
Mof_C 	C 	0.47926	0.31836	0.3286	-0.015
Mof_H 	H 	0.4556	0.3312	0.3229	-0.006
Mof_C 	C 	0.4877	0.2021	0.5007	-0.426
Mof_H 	H 	0.464	0.2162	0.4886	0.127
Mof_H 	H 	0.5055	0.2176	0.5472	0.152
Mof_H 	H 	0.4823	0.1784	0.5437	0.129
Mof_C 	C 	0.51006	0.15359	0.3584	-0.044
Mof_H 	H 	0.5001	0.1359	0.4142	0.016
Mof_C 	C 	0.52035	0.21834	0.2964	-0.034
Mof_C 	C 	0.5291	0.0994	0.2289	0.524
Mof_C 	C 	0.51581	0.2605	0.317	0.003
Mof_C 	C 	0.51007	0.3799	0.3785	0.527
Mof_C 	C 	0.443	0.258	0.2766	-0.328
Mof_H 	H 	0.4225	0.2766	0.2665	0.073
Mof_H 	H 	0.4364	0.2404	0.341	0.089
Mof_H 	H 	0.4465	0.2437	0.2025	0.078
Mof_O 	O 	0.39567	0.54007	0.4156	-0.681
Mof_O 	O 	0.53305	0.48503	0.6525	-1.325
Mof_O 	O 	0.39784	0.4804	0.3447	-0.777
Mof_O 	O 	0.09069	0.55216	0.1465	-0.684
Mof_O 	O 	0.48897	0.4422	0.5382	-1.352
Mof_C 	C 	0.20544	0.53921	0.1952	-0.087
Mof_H 	H 	0.2232	0.5492	0.1395	0.032
Mof_O 	O 	0.07721	0.50378	0.2692	-0.782
Mof_C 	C 	0.19248	0.50579	0.3779	0.078
Mof_C 	C 	0.16662	0.54347	0.1758	0.028
Mof_H 	H 	0.1578	0.5563	0.1068	0.007
Mof_C 	C 	0.14068	0.52888	0.2575	-0.165
Mof_C 	C 	0.28068	0.54862	0.3454	-0.11
Mof_H 	H 	0.2678	0.5723	0.3511	0.062
Mof_C 	C 	0.31968	0.54676	0.3655	0.052
Mof_H 	H 	0.3334	0.5692	0.385	0.022
Mof_C 	C 	0.33851	0.51207	0.3571	-0.182
Mof_C 	C 	0.27935	0.48112	0.3085	0.02
Mof_C 	C 	0.31836	0.47926	0.3286	-0.015
Mof_H 	H 	0.3312	0.4556	0.3229	-0.006
Mof_C 	C 	0.2021	0.4877	0.5007	-0.426
Mof_H 	H 	0.2162	0.464	0.4886	0.127
Mof_H 	H 	0.2176	0.5055	0.5472	0.152
Mof_H 	H 	0.1784	0.4823	0.5437	0.129
Mof_C 	C 	0.15359	0.51006	0.3584	-0.044
Mof_H 	H 	0.1359	0.5001	0.4142	0.016
Mof_C 	C 	0.21834	0.52035	0.2964	-0.034
Mof_C 	C 	0.0994	0.5291	0.2289	0.524
Mof_C 	C 	0.2605	0.51581	0.317	0.003
Mof_C 	C 	0.3799	0.51007	0.3785	0.527
Mof_C 	C 	0.258	0.443	0.2766	-0.328
Mof_H 	H 	0.2766	0.4225	0.2665	0.073
Mof_H 	H 	0.2404	0.4364	0.341	0.089
Mof_H 	H 	0.2437	0.4465	0.2025	0.078
Mof_O 	O 	0.10433	0.95993	0.4156	-0.68
Mof_O 	O 	0.96695	0.01497	0.6525	-1.324
Mof_O 	O 	0.10216	0.0196	0.3447	-0.773
Mof_O 	O 	0.40931	0.94784	0.1465	-0.686
Mof_O 	O 	0.01103	0.0578	0.5382	-1.349
Mof_C 	C 	0.29456	0.96079	0.1952	-0.094
Mof_H 	H 	0.2768	0.9508	0.1395	0.034
Mof_O 	O 	0.42279	0.99622	0.2692	-0.786
Mof_C 	C 	0.30752	0.99421	0.3779	0.064
Mof_C 	C 	0.33338	0.95653	0.1758	0.033
Mof_H 	H 	0.3422	0.9437	0.1068	0.005
Mof_C 	C 	0.35932	0.97112	0.2575	-0.171
Mof_C 	C 	0.21932	0.95138	0.3454	-0.106
Mof_H 	H 	0.2322	0.9277	0.3511	0.061
Mof_C 	C 	0.18032	0.95324	0.3655	0.05
Mof_H 	H 	0.1666	0.9308	0.385	0.023
Mof_C 	C 	0.16149	0.98793	0.3571	-0.183
Mof_C 	C 	0.22065	0.01888	0.3085	0.028
Mof_C 	C 	0.18164	0.02074	0.3286	-0.013
Mof_H 	H 	0.1688	0.0444	0.3229	-0.006
Mof_C 	C 	0.2979	0.0123	0.5007	-0.398
Mof_H 	H 	0.2838	0.036	0.4886	0.12
Mof_H 	H 	0.2824	0.9945	0.5472	0.141
Mof_H 	H 	0.3216	0.0177	0.5437	0.122
Mof_C 	C 	0.34641	0.98994	0.3584	-0.036
Mof_H 	H 	0.3641	0.9999	0.4142	0.012
Mof_C 	C 	0.28166	0.97965	0.2964	-0.026
Mof_C 	C 	0.4006	0.9709	0.2289	0.526
Mof_C 	C 	0.2395	0.98419	0.317	-0.006
Mof_C 	C 	0.1201	0.98993	0.3785	0.523
Mof_C 	C 	0.242	0.057	0.2766	-0.334
Mof_H 	H 	0.2234	0.0775	0.2665	0.075
Mof_H 	H 	0.2596	0.0636	0.341	0.092
Mof_H 	H 	0.2563	0.0535	0.2025	0.081
Mof_O 	O 	0.95993	0.39567	0.9156	-0.64
Mof_O 	O 	0.01497	0.53305	0.1525	-1.349
Mof_O 	O 	0.0196	0.39784	0.8447	-0.743
Mof_O 	O 	0.94784	0.09069	0.6465	-0.652
Mof_O 	O 	0.0578	0.48897	0.0382	-1.401
Mof_C 	C 	0.96079	0.20544	0.6952	0.01
Mof_H 	H 	0.9508	0.2232	0.6395	0.026
Mof_O 	O 	0.99622	0.07721	0.7692	-0.759
Mof_C 	C 	0.99421	0.19248	0.8779	0.319
Mof_C 	C 	0.95653	0.16662	0.6758	-0.044
Mof_H 	H 	0.9437	0.1578	0.6068	0.06
Mof_C 	C 	0.97112	0.14068	0.7575	-0.072
Mof_C 	C 	0.95138	0.28068	0.8454	-0.119
Mof_H 	H 	0.9277	0.2678	0.8511	0.087
Mof_C 	C 	0.95324	0.31968	0.8655	0.074
Mof_H 	H 	0.9308	0.3334	0.885	0.038
Mof_C 	C 	0.98793	0.33851	0.8571	-0.169
Mof_C 	C 	0.01888	0.27935	0.8085	0.03
Mof_C 	C 	0.02074	0.31836	0.8286	-0.001
Mof_H 	H 	0.0444	0.3312	0.8229	0.008
Mof_C 	C 	0.0123	0.2021	0.0007	-0.953
Mof_H 	H 	0.036	0.2162	0.9886	0.338
Mof_H 	H 	0.9945	0.2176	0.0472	0.271
Mof_H 	H 	0.0177	0.1784	0.0437	0.249
Mof_C 	C 	0.98994	0.15359	0.8584	-0.178
Mof_H 	H 	0.9999	0.1359	0.9142	0.084
Mof_C 	C 	0.97965	0.21834	0.7964	-0.14
Mof_C 	C 	0.9709	0.0994	0.7289	0.497
Mof_C 	C 	0.98419	0.2605	0.817	0.051
Mof_C 	C 	0.98993	0.3799	0.8785	0.53
Mof_C 	C 	0.057	0.258	0.7766	-0.357
Mof_H 	H 	0.0775	0.2766	0.7665	0.102
Mof_H 	H 	0.0636	0.2404	0.841	0.106
Mof_H 	H 	0.0535	0.2437	0.7025	0.11
Mof_O 	O 	0.54007	0.10433	0.9156	-0.641
Mof_O 	O 	0.48503	0.96695	0.1525	-1.354
Mof_O 	O 	0.4804	0.10216	0.8447	-0.747
Mof_O 	O 	0.55216	0.40931	0.6465	-0.652
Mof_O 	O 	0.4422	0.01103	0.0382	-1.398
Mof_C 	C 	0.53921	0.29456	0.6952	0.017
Mof_H 	H 	0.5492	0.2768	0.6395	0.024
Mof_O 	O 	0.50378	0.42279	0.7692	-0.758
Mof_C 	C 	0.50579	0.30752	0.8779	0.334
Mof_C 	C 	0.54347	0.33338	0.6758	-0.049
Mof_H 	H 	0.5563	0.3422	0.6068	0.062
Mof_C 	C 	0.52888	0.35932	0.7575	-0.066
Mof_C 	C 	0.54862	0.21932	0.8454	-0.123
Mof_H 	H 	0.5723	0.2322	0.8511	0.089
Mof_C 	C 	0.54676	0.18032	0.8655	0.076
Mof_H 	H 	0.5692	0.1666	0.885	0.037
Mof_C 	C 	0.51207	0.16149	0.8571	-0.168
Mof_C 	C 	0.48112	0.22065	0.8085	0.023
Mof_C 	C 	0.47926	0.18164	0.8286	-0.002
Mof_H 	H 	0.4556	0.1688	0.8229	0.007
Mof_C 	C 	0.4877	0.2979	0.0007	-0.987
Mof_H 	H 	0.464	0.2838	0.9886	0.348
Mof_H 	H 	0.5055	0.2824	0.0472	0.284
Mof_H 	H 	0.4823	0.3216	0.0437	0.257
Mof_C 	C 	0.51006	0.34641	0.8584	-0.187
Mof_H 	H 	0.5001	0.3641	0.9142	0.088
Mof_C 	C 	0.52035	0.28166	0.7964	-0.149
Mof_C 	C 	0.5291	0.4006	0.7289	0.495
Mof_C 	C 	0.51581	0.2395	0.817	0.06
Mof_C 	C 	0.51007	0.1201	0.8785	0.534
Mof_C 	C 	0.443	0.242	0.7766	-0.352
Mof_H 	H 	0.4225	0.2234	0.7665	0.1
Mof_H 	H 	0.4364	0.2596	0.841	0.103
Mof_H 	H 	0.4465	0.2563	0.7025	0.108
Mof_O 	O 	0.60433	0.04007	0.0844	-0.709
Mof_O 	O 	0.46695	0.98503	0.8475	-1.313
Mof_O 	O 	0.60216	0.9804	0.1553	-0.788
Mof_O 	O 	0.90931	0.05216	0.3535	-0.674
Mof_O 	O 	0.51103	0.9422	0.9618	-1.3
Mof_C 	C 	0.79456	0.03921	0.3048	-0.177
Mof_H 	H 	0.7768	0.0492	0.3605	0.084
Mof_O 	O 	0.92279	0.00378	0.2308	-0.797
Mof_C 	C 	0.80752	0.00579	0.1221	-0.179
Mof_C 	C 	0.83338	0.04347	0.3242	0.112
Mof_H 	H 	0.8422	0.0563	0.3932	0.005
Mof_C 	C 	0.85932	0.02888	0.2425	-0.244
Mof_C 	C 	0.71932	0.04862	0.1546	-0.077
Mof_H 	H 	0.7322	0.0723	0.1489	0.039
Mof_C 	C 	0.68032	0.04676	0.1345	0.022
Mof_H 	H 	0.6666	0.0692	0.115	0.018
Mof_C 	C 	0.66149	0.01207	0.1429	-0.165
Mof_C 	C 	0.72065	0.98112	0.1915	0.058
Mof_C 	C 	0.68164	0.97926	0.1714	-0.049
Mof_H 	H 	0.6688	0.9556	0.1771	0.003
Mof_C 	C 	0.7979	0.9877	0.9993	0.149
Mof_H 	H 	0.7838	0.964	0.0114	-0.102
Mof_H 	H 	0.7824	0.0055	0.9528	0.018
Mof_H 	H 	0.8216	0.9823	0.9563	-0.002
Mof_C 	C 	0.84641	0.01006	0.1416	0.102
Mof_H 	H 	0.8641	0.0001	0.0858	-0.054
Mof_C 	C 	0.78166	0.02035	0.2036	0.097
Mof_C 	C 	0.9006	0.0291	0.2711	0.549
Mof_C 	C 	0.7395	0.01581	0.183	-0.058
Mof_C 	C 	0.6201	0.01007	0.1215	0.521
Mof_C 	C 	0.742	0.943	0.2234	-0.378
Mof_H 	H 	0.7234	0.9225	0.2335	0.094
Mof_H 	H 	0.7596	0.9364	0.159	0.103
Mof_H 	H 	0.7563	0.9465	0.2975	0.112
Mof_O 	O 	0.89567	0.45993	0.0844	-0.709
Mof_O 	O 	0.03305	0.51497	0.8475	-1.309
Mof_O 	O 	0.89784	0.5196	0.1553	-0.784
Mof_O 	O 	0.59069	0.44784	0.3535	-0.674
Mof_O 	O 	0.98897	0.5578	0.9618	-1.302
Mof_C 	C 	0.70544	0.46079	0.3048	-0.183
Mof_H 	H 	0.7232	0.4508	0.3605	0.086
Mof_O 	O 	0.57721	0.49622	0.2308	-0.799
Mof_C 	C 	0.69248	0.49421	0.1221	-0.193
Mof_C 	C 	0.66662	0.45653	0.3242	0.117
Mof_H 	H 	0.6578	0.4437	0.3932	0.003
Mof_C 	C 	0.64068	0.47112	0.2425	-0.249
Mof_C 	C 	0.78068	0.45138	0.1546	-0.073
Mof_H 	H 	0.7678	0.4277	0.1489	0.038
Mof_C 	C 	0.81968	0.45324	0.1345	0.02
Mof_H 	H 	0.8334	0.4308	0.115	0.019
Mof_C 	C 	0.83851	0.48793	0.1429	-0.168
Mof_C 	C 	0.77935	0.51888	0.1915	0.067
Mof_C 	C 	0.81836	0.52074	0.1714	-0.046
Mof_H 	H 	0.8312	0.5444	0.1771	0.003
Mof_C 	C 	0.7021	0.5123	0.9993	0.174
Mof_H 	H 	0.7162	0.536	0.0114	-0.108
Mof_H 	H 	0.7176	0.4945	0.9528	0.009
Mof_H 	H 	0.6784	0.5177	0.9563	-0.007
Mof_C 	C 	0.65359	0.48994	0.1416	0.109
Mof_H 	H 	0.6359	0.4999	0.0858	-0.058
Mof_C 	C 	0.71834	0.47965	0.2036	0.104
Mof_C 	C 	0.5994	0.4709	0.2711	0.55
Mof_C 	C 	0.7605	0.48419	0.183	-0.067
Mof_C 	C 	0.8799	0.48993	0.1215	0.515
Mof_C 	C 	0.758	0.557	0.2234	-0.385
Mof_H 	H 	0.7766	0.5775	0.2335	0.096
Mof_H 	H 	0.7404	0.5636	0.159	0.106
Mof_H 	H 	0.7437	0.5535	0.2975	0.115
Mof_O 	O 	0.04007	0.89567	0.5844	-0.672
Mof_O 	O 	0.98503	0.03305	0.3475	-1.341
Mof_O 	O 	0.9804	0.89784	0.6553	-0.757
Mof_O 	O 	0.05216	0.59069	0.8535	-0.636
Mof_O 	O 	0.9422	0.98897	0.4618	-1.357
Mof_C 	C 	0.03921	0.70544	0.8048	-0.066
Mof_H 	H 	0.0492	0.7232	0.8605	0.075
Mof_O 	O 	0.00378	0.57721	0.7308	-0.77
Mof_C 	C 	0.00579	0.69248	0.6221	0.094
Mof_C 	C 	0.04347	0.66662	0.8242	0.03
Mof_H 	H 	0.0563	0.6578	0.8932	0.061
Mof_C 	C 	0.02888	0.64068	0.7425	-0.139
Mof_C 	C 	0.04862	0.78068	0.6546	-0.092
Mof_H 	H 	0.0723	0.7678	0.6489	0.066
Mof_C 	C 	0.04676	0.81968	0.6345	0.047
Mof_H 	H 	0.0692	0.8334	0.615	0.033
Mof_C 	C 	0.01207	0.83851	0.6429	-0.152
Mof_C 	C 	0.98112	0.77935	0.6915	0.063
Mof_C 	C 	0.97926	0.81836	0.6714	-0.035
Mof_H 	H 	0.9556	0.8312	0.6771	0.017
Mof_C 	C 	0.9877	0.7021	0.4993	-0.454
Mof_H 	H 	0.964	0.7162	0.5114	0.135
Mof_H 	H 	0.0055	0.7176	0.4528	0.161
Mof_H 	H 	0.9823	0.6784	0.4563	0.136
Mof_C 	C 	0.01006	0.65359	0.6416	-0.051
Mof_H 	H 	0.0001	0.6359	0.5858	0.023
Mof_C 	C 	0.02035	0.71834	0.7036	-0.027
Mof_C 	C 	0.0291	0.5994	0.7711	0.516
Mof_C 	C 	0.01581	0.7605	0.683	0.002
Mof_C 	C 	0.01007	0.8799	0.6215	0.529
Mof_C 	C 	0.943	0.758	0.7234	-0.406
Mof_H 	H 	0.9225	0.7766	0.7335	0.123
Mof_H 	H 	0.9364	0.7404	0.659	0.119
Mof_H 	H 	0.9465	0.7437	0.7975	0.145
Mof_O 	O 	0.45993	0.60433	0.5844	-0.671
Mof_O 	O 	0.51497	0.46695	0.3475	-1.34
Mof_O 	O 	0.5196	0.60216	0.6553	-0.752
Mof_O 	O 	0.44784	0.90931	0.8535	-0.637
Mof_O 	O 	0.5578	0.51103	0.4618	-1.353
Mof_C 	C 	0.46079	0.79456	0.8048	-0.072
Mof_H 	H 	0.4508	0.7768	0.8605	0.077
Mof_O 	O 	0.49622	0.92279	0.7308	-0.773
Mof_C 	C 	0.49421	0.80752	0.6221	0.079
Mof_C 	C 	0.45653	0.83338	0.8242	0.035
Mof_H 	H 	0.4437	0.8422	0.8932	0.06
Mof_C 	C 	0.47112	0.85932	0.7425	-0.145
Mof_C 	C 	0.45138	0.71932	0.6546	-0.088
Mof_H 	H 	0.4277	0.7322	0.6489	0.065
Mof_C 	C 	0.45324	0.68032	0.6345	0.045
Mof_H 	H 	0.4308	0.6666	0.615	0.034
Mof_C 	C 	0.48793	0.66149	0.6429	-0.154
Mof_C 	C 	0.51888	0.72065	0.6915	0.07
Mof_C 	C 	0.52074	0.68164	0.6714	-0.033
Mof_H 	H 	0.5444	0.6688	0.6771	0.017
Mof_C 	C 	0.5123	0.7979	0.4993	-0.424
Mof_H 	H 	0.536	0.7838	0.5114	0.127
Mof_H 	H 	0.4945	0.7824	0.4528	0.149
Mof_H 	H 	0.5177	0.8216	0.4563	0.129
Mof_C 	C 	0.48994	0.84641	0.6416	-0.043
Mof_H 	H 	0.4999	0.8641	0.5858	0.018
Mof_C 	C 	0.47965	0.78166	0.7036	-0.018
Mof_C 	C 	0.4709	0.9006	0.7711	0.518
Mof_C 	C 	0.48419	0.7395	0.683	-0.007
Mof_C 	C 	0.48993	0.6201	0.6215	0.524
Mof_C 	C 	0.557	0.742	0.7234	-0.411
Mof_H 	H 	0.5775	0.7234	0.7335	0.125
Mof_H 	H 	0.5636	0.7596	0.659	0.122
Mof_H 	H 	0.5535	0.7563	0.7975	0.147
Mof_Zr	Zr	0.45058	0.54942	0.5	3.214
Mof_Zr	Zr	0.04942	0.95058	0.5	3.214
Mof_Zr	Zr	0.95058	0.45058	-0	3.201
Mof_Zr	Zr	0.54942	0.04942	-0	3.202
Mof_Zr	Zr	0.54942	0.45058	0.5	3.214
Mof_Zr	Zr	0.95058	0.04942	0.5	3.214
Mof_Zr	Zr	0.04942	0.54942	-0	3.202
Mof_Zr	Zr	0.45058	0.95058	-0	3.201
Mof_Zr	Zr	0.54369	0.54369	0.6124	3.18
Mof_Zr	Zr	0.52536	0.52536	0.30905	3.177
Mof_Zr	Zr	0.95631	0.95631	0.6124	3.179
Mof_Zr	Zr	0.97464	0.97464	0.30905	3.176
Mof_Zr	Zr	0.95631	0.54369	0.1124	3.17
Mof_Zr	Zr	0.97464	0.52536	0.80905	3.178
Mof_Zr	Zr	0.54369	0.95631	0.1124	3.17
Mof_Zr	Zr	0.52536	0.97464	0.80905	3.178
Mof_Zr	Zr	0.45631	0.04369	0.8876	3.186
Mof_Zr	Zr	0.47464	0.02536	0.19095	3.178
Mof_Zr	Zr	0.04369	0.45631	0.8876	3.186
Mof_Zr	Zr	0.02536	0.47464	0.19095	3.178
Mof_Zr	Zr	0.04369	0.04369	0.3876	3.178
Mof_Zr	Zr	0.02536	0.02536	0.69095	3.18
Mof_Zr	Zr	0.45631	0.45631	0.3876	3.178
Mof_Zr	Zr	0.47464	0.47464	0.69095	3.179
_end
