data_functionalizedCrystal
_audit_creation_method	'EQeq! by Chris Wilmer'
_symmetry_space_group_name_H-M	'P1'
_symmetry_Int_Tables_number	1
_symmetry_cell_setting	triclinic
loop_
_symmetry_equiv_pos_as_xyz
  x,y,z
_cell_length_a	18.426
_cell_length_b	18.507
_cell_length_c	48.374
_cell_angle_alpha	90
_cell_angle_beta	90
_cell_angle_gamma	90
loop_
_atom_site_label
_atom_site_type_symbol
_atom_site_fract_x
_atom_site_fract_y
_atom_site_fract_z
_atom_site_charge
Mof_Tm	Tm	0.7996	0.92953	0.87817	2.268
Mof_Tm	Tm	0.681	0.48634	0.87587	2.048
Mof_Tm	Tm	0.36911	0.90188	0.12229	2.197
Mof_Tm	Tm	0.2996	0.07047	0.62183	2.269
Mof_Tm	Tm	0.181	0.51366	0.62413	2.05
Mof_Tm	Tm	0.86911	0.09812	0.37771	2.197
Mof_Tm	Tm	0.7004	0.42953	0.12183	2.272
Mof_Tm	Tm	0.819	0.98634	0.12413	2.044
Mof_Tm	Tm	0.13089	0.40188	0.87771	2.197
Mof_Tm	Tm	0.2004	0.57047	0.37817	2.272
Mof_Tm	Tm	0.319	0.01366	0.37587	2.046
Mof_Tm	Tm	0.63089	0.59812	0.62229	2.197
Mof_Tm	Tm	0.2004	0.07047	0.12183	2.269
Mof_Tm	Tm	0.319	0.51366	0.12413	2.049
Mof_Tm	Tm	0.63089	0.09812	0.87771	2.197
Mof_Tm	Tm	0.7004	0.92953	0.37817	2.269
Mof_Tm	Tm	0.819	0.48634	0.37587	2.05
Mof_Tm	Tm	0.13089	0.90188	0.62229	2.197
Mof_Tm	Tm	0.2996	0.57047	0.87817	2.272
Mof_Tm	Tm	0.181	0.01366	0.87587	2.044
Mof_Tm	Tm	0.86911	0.59812	0.12229	2.197
Mof_Tm	Tm	0.7996	0.42953	0.62183	2.272
Mof_Tm	Tm	0.681	0.98634	0.62413	2.046
Mof_Tm	Tm	0.36911	0.40188	0.37771	2.197
Mof_Co	Co	0.95374	0.61475	0.7554	1.128
Mof_Co	Co	0.60833	0.74756	0.9977	1.17
Mof_Co	Co	0.45374	0.38525	0.7446	1.129
Mof_Co	Co	0.10833	0.25244	0.5023	1.17
Mof_Co	Co	0.54626	0.11475	0.2446	1.129
Mof_Co	Co	0.89167	0.24756	0.0023	1.17
Mof_Co	Co	0.04626	0.88525	0.2554	1.129
Mof_Co	Co	0.39167	0.75244	0.4977	1.17
Mof_Co	Co	0.04626	0.38525	0.2446	1.128
Mof_Co	Co	0.39167	0.25244	0.0023	1.17
Mof_Co	Co	0.54626	0.61475	0.2554	1.129
Mof_Co	Co	0.89167	0.74756	0.4977	1.17
Mof_Co	Co	0.45374	0.88525	0.7554	1.129
Mof_Co	Co	0.10833	0.75244	0.9977	1.17
Mof_Co	Co	0.95374	0.11475	0.7446	1.129
Mof_Co	Co	0.60833	0.24756	0.5023	1.17
Mof_H 	H 	0.8011	0.7731	0.8792	0.432
Mof_H 	H 	0.7237	0.7927	0.8802	0.416
Mof_H 	H 	0.5502	0.4812	0.9099	0.398
Mof_H 	H 	0.541	0.4217	0.89	0.402
Mof_H 	H 	0.6809	0.3316	0.8868	0.408
Mof_H 	H 	0.6582	0.338	0.8577	0.398
Mof_H 	H 	0.4989	0.9081	0.0909	0.427
Mof_H 	H 	0.5211	0.9257	0.1193	0.434
Mof_H 	H 	0.9712	0.9577	0.8752	0.36
Mof_H 	H 	0.9405	0.0311	0.8752	0.346
Mof_H 	H 	0.5377	0.7249	0.0549	-0.006
Mof_H 	H 	0.3706	0.863	0.0568	0.002
Mof_H 	H 	0.41	0.9097	0.0146	0.112
Mof_H 	H 	0.4623	0.9561	0.9771	0.108
Mof_H 	H 	0.5313	0.9994	0.94	-0.013
Mof_H 	H 	0.6687	0.8342	0.95	-0.01
Mof_H 	H 	0.7919	0.1866	0.9565	-0.006
Mof_H 	H 	0.9105	0.0259	0.9241	-0.001
Mof_H 	H 	0.994	0.0396	0.9597	0.08
Mof_H 	H 	0.0607	0.0537	0.9964	0.084
Mof_H 	H 	0.1263	0.0743	0.0369	0.039
Mof_H 	H 	0.9944	0.2423	0.0527	0.002
Mof_H 	H 	0.9427	0.7033	0.811	-0.001
Mof_H 	H 	0.8018	0.8656	0.7994	0.026
Mof_H 	H 	0.7769	0.8183	0.7561	0.097
Mof_H 	H 	0.763	0.7711	0.7156	0.096
Mof_H 	H 	0.7381	0.7059	0.6759	-0.016
Mof_H 	H 	0.8743	0.5528	0.7021	-0.007
Mof_H 	H 	0.4733	0.7982	0.6985	-0.002
Mof_H 	H 	0.6278	0.6503	0.7098	0.032
Mof_H 	H 	0.6435	0.6942	0.7544	0.089
Mof_H 	H 	0.6553	0.7422	0.7948	0.095
Mof_H 	H 	0.6819	0.8145	0.8329	-0.017
Mof_H 	H 	0.5319	0.9562	0.8068	-0.011
Mof_H 	H 	0.8525	0.5772	0.8056	0.005
Mof_H 	H 	0.8555	0.3636	0.8163	0.028
Mof_H 	H 	0.9253	0.3535	0.7766	0.075
Mof_H 	H 	0.9739	0.3524	0.7342	0.077
Mof_H 	H 	0.0386	0.3616	0.6931	0.028
Mof_H 	H 	0.0472	0.5751	0.7044	0.005
Mof_H 	H 	0.6263	0.6623	0.9449	0.005
Mof_H 	H 	0.8405	0.6393	0.9348	0.045
Mof_H 	H 	0.8586	0.7085	0.9743	0.077
Mof_H 	H 	0.8628	0.7858	0.0124	0.083
Mof_H 	H 	0.8512	0.8672	0.0492	0.022
Mof_H 	H 	0.6355	0.8611	0.0398	-0.003
Mof_H 	H 	0.3011	0.2269	0.6208	0.432
Mof_H 	H 	0.2237	0.2073	0.6198	0.416
Mof_H 	H 	0.0502	0.5188	0.5901	0.398
Mof_H 	H 	0.041	0.5783	0.61	0.403
Mof_H 	H 	0.1809	0.6684	0.6132	0.408
Mof_H 	H 	0.1582	0.662	0.6423	0.398
Mof_H 	H 	0.9989	0.0919	0.4091	0.426
Mof_H 	H 	0.0211	0.0743	0.3807	0.428
Mof_H 	H 	0.4712	0.0423	0.6248	0.359
Mof_H 	H 	0.4405	0.9689	0.6248	0.342
Mof_H 	H 	0.0377	0.2751	0.4451	-0.005
Mof_H 	H 	0.8706	0.137	0.4432	0.002
Mof_H 	H 	0.91	0.0903	0.4854	0.113
Mof_H 	H 	0.9623	0.0439	0.5229	0.113
Mof_H 	H 	0.0313	0.0006	0.56	-0.016
Mof_H 	H 	0.1687	0.1658	0.55	-0.01
Mof_H 	H 	0.2919	0.8134	0.5435	-0.006
Mof_H 	H 	0.4105	0.9741	0.5759	-0.002
Mof_H 	H 	0.494	0.9604	0.5403	0.079
Mof_H 	H 	0.5607	0.9463	0.5036	0.083
Mof_H 	H 	0.6263	0.9257	0.4631	0.04
Mof_H 	H 	0.4944	0.7577	0.4473	-0.003
Mof_H 	H 	0.4427	0.2967	0.689	-0.001
Mof_H 	H 	0.3018	0.1344	0.7006	0.026
Mof_H 	H 	0.2769	0.1817	0.7439	0.097
Mof_H 	H 	0.263	0.2289	0.7844	0.096
Mof_H 	H 	0.2381	0.2941	0.8241	-0.016
Mof_H 	H 	0.3743	0.4472	0.7979	-0.007
Mof_H 	H 	0.9733	0.2018	0.8015	-0.001
Mof_H 	H 	0.1278	0.3497	0.7902	0.032
Mof_H 	H 	0.1435	0.3058	0.7456	0.089
Mof_H 	H 	0.1553	0.2578	0.7052	0.095
Mof_H 	H 	0.1819	0.1855	0.6671	-0.017
Mof_H 	H 	0.0319	0.0438	0.6932	-0.011
Mof_H 	H 	0.3525	0.4228	0.6944	0.005
Mof_H 	H 	0.3555	0.6364	0.6837	0.028
Mof_H 	H 	0.4253	0.6465	0.7234	0.076
Mof_H 	H 	0.4739	0.6476	0.7658	0.076
Mof_H 	H 	0.5386	0.6384	0.8069	0.029
Mof_H 	H 	0.5472	0.4249	0.7956	0.006
Mof_H 	H 	0.1263	0.3377	0.5551	0.005
Mof_H 	H 	0.3405	0.3607	0.5652	0.045
Mof_H 	H 	0.3586	0.2915	0.5257	0.077
Mof_H 	H 	0.3628	0.2142	0.4876	0.084
Mof_H 	H 	0.3512	0.1328	0.4508	0.023
Mof_H 	H 	0.1355	0.1389	0.4602	-0.004
Mof_H 	H 	0.6989	0.2731	0.1208	0.432
Mof_H 	H 	0.7763	0.2927	0.1198	0.416
Mof_H 	H 	0.9498	0.9812	0.0901	0.396
Mof_H 	H 	0.959	0.9217	0.11	0.401
Mof_H 	H 	0.8191	0.8316	0.1132	0.408
Mof_H 	H 	0.8418	0.838	0.1423	0.398
Mof_H 	H 	0.0011	0.4081	0.9091	0.427
Mof_H 	H 	0.9789	0.4257	0.8807	0.433
Mof_H 	H 	0.5288	0.4577	0.1248	0.359
Mof_H 	H 	0.5595	0.5311	0.1248	0.342
Mof_H 	H 	0.9623	0.2249	0.9451	-0.006
Mof_H 	H 	0.1294	0.363	0.9432	0.002
Mof_H 	H 	0.09	0.4097	0.9854	0.112
Mof_H 	H 	0.0377	0.4561	0.0229	0.107
Mof_H 	H 	0.9687	0.4994	0.06	-0.013
Mof_H 	H 	0.8313	0.3342	0.05	-0.01
Mof_H 	H 	0.7081	0.6866	0.0435	-0.006
Mof_H 	H 	0.5895	0.5259	0.0759	-0.002
Mof_H 	H 	0.506	0.5396	0.0403	0.079
Mof_H 	H 	0.4393	0.5537	0.0036	0.083
Mof_H 	H 	0.3737	0.5743	0.9631	0.04
Mof_H 	H 	0.5056	0.7423	0.9473	-0.003
Mof_H 	H 	0.5573	0.2033	0.189	-0.001
Mof_H 	H 	0.6982	0.3656	0.2006	0.026
Mof_H 	H 	0.7231	0.3183	0.2439	0.097
Mof_H 	H 	0.737	0.2711	0.2844	0.096
Mof_H 	H 	0.7619	0.2059	0.3241	-0.016
Mof_H 	H 	0.6257	0.0528	0.2979	-0.007
Mof_H 	H 	0.0267	0.2982	0.3015	-0.007
Mof_H 	H 	0.8722	0.1503	0.2902	0.031
Mof_H 	H 	0.8565	0.1942	0.2456	0.09
Mof_H 	H 	0.8447	0.2422	0.2052	0.095
Mof_H 	H 	0.8181	0.3145	0.1671	-0.017
Mof_H 	H 	0.9681	0.4562	0.1932	-0.01
Mof_H 	H 	0.6475	0.0772	0.1944	0.005
Mof_H 	H 	0.6445	0.8636	0.1837	0.028
Mof_H 	H 	0.5747	0.8535	0.2234	0.076
Mof_H 	H 	0.5261	0.8524	0.2658	0.076
Mof_H 	H 	0.4614	0.8616	0.3069	0.029
Mof_H 	H 	0.4528	0.0751	0.2956	0.006
Mof_H 	H 	0.8737	0.1623	0.0551	0.005
Mof_H 	H 	0.6595	0.1393	0.0652	0.045
Mof_H 	H 	0.6414	0.2085	0.0257	0.077
Mof_H 	H 	0.6372	0.2858	0.9876	0.084
Mof_H 	H 	0.6488	0.3672	0.9508	0.023
Mof_H 	H 	0.8645	0.3611	0.9602	-0.003
Mof_H 	H 	0.1989	0.7269	0.3792	0.432
Mof_H 	H 	0.2763	0.7073	0.3802	0.416
Mof_H 	H 	0.4498	0.0188	0.4099	0.397
Mof_H 	H 	0.459	0.0783	0.39	0.402
Mof_H 	H 	0.3191	0.1684	0.3868	0.408
Mof_H 	H 	0.3418	0.162	0.3577	0.398
Mof_H 	H 	0.5011	0.5919	0.5909	0.427
Mof_H 	H 	0.4789	0.5743	0.6193	0.434
Mof_H 	H 	0.0288	0.5423	0.3752	0.359
Mof_H 	H 	0.0595	0.4689	0.3752	0.341
Mof_H 	H 	0.4623	0.7751	0.5549	-0.006
Mof_H 	H 	0.6294	0.637	0.5568	0.002
Mof_H 	H 	0.59	0.5903	0.5146	0.112
Mof_H 	H 	0.5377	0.5439	0.4771	0.107
Mof_H 	H 	0.4687	0.5006	0.44	-0.013
Mof_H 	H 	0.3313	0.6658	0.45	-0.01
Mof_H 	H 	0.2081	0.3134	0.4565	-0.006
Mof_H 	H 	0.0895	0.4741	0.4241	-0.002
Mof_H 	H 	0.006	0.4604	0.4597	0.079
Mof_H 	H 	0.9393	0.4463	0.4964	0.083
Mof_H 	H 	0.8737	0.4257	0.5369	0.04
Mof_H 	H 	0.0056	0.2577	0.5527	-0.005
Mof_H 	H 	0.0573	0.7967	0.311	-0
Mof_H 	H 	0.1982	0.6344	0.2994	0.026
Mof_H 	H 	0.2231	0.6817	0.2561	0.097
Mof_H 	H 	0.237	0.7289	0.2156	0.096
Mof_H 	H 	0.2619	0.7941	0.1759	-0.016
Mof_H 	H 	0.1257	0.9472	0.2021	-0.006
Mof_H 	H 	0.5267	0.7018	0.1985	-0.002
Mof_H 	H 	0.3722	0.8497	0.2098	0.032
Mof_H 	H 	0.3565	0.8058	0.2544	0.089
Mof_H 	H 	0.3447	0.7578	0.2948	0.095
Mof_H 	H 	0.3181	0.6855	0.3329	-0.017
Mof_H 	H 	0.4681	0.5438	0.3068	-0.011
Mof_H 	H 	0.1475	0.9228	0.3056	0.004
Mof_H 	H 	0.1445	0.1364	0.3163	0.028
Mof_H 	H 	0.0747	0.1465	0.2766	0.075
Mof_H 	H 	0.0261	0.1476	0.2342	0.077
Mof_H 	H 	0.9614	0.1384	0.1931	0.027
Mof_H 	H 	0.9528	0.9249	0.2044	0.007
Mof_H 	H 	0.3737	0.8377	0.4449	0.005
Mof_H 	H 	0.1595	0.8607	0.4348	0.045
Mof_H 	H 	0.1414	0.7915	0.4743	0.077
Mof_H 	H 	0.1372	0.7142	0.5124	0.084
Mof_H 	H 	0.1488	0.6328	0.5492	0.023
Mof_H 	H 	0.3645	0.6389	0.5398	-0.003
Mof_H 	H 	0.1989	0.2269	0.1208	0.432
Mof_H 	H 	0.2763	0.2073	0.1198	0.416
Mof_H 	H 	0.4498	0.5188	0.0901	0.398
Mof_H 	H 	0.459	0.5783	0.11	0.402
Mof_H 	H 	0.3191	0.6684	0.1132	0.408
Mof_H 	H 	0.3418	0.662	0.1423	0.398
Mof_H 	H 	0.5011	0.0919	0.9091	0.427
Mof_H 	H 	0.4789	0.0743	0.8807	0.434
Mof_H 	H 	0.0288	0.0423	0.1248	0.36
Mof_H 	H 	0.0595	0.9689	0.1248	0.346
Mof_H 	H 	0.4623	0.2751	0.9451	-0.006
Mof_H 	H 	0.6294	0.137	0.9432	0.002
Mof_H 	H 	0.59	0.0903	0.9854	0.112
Mof_H 	H 	0.5377	0.0439	0.0229	0.108
Mof_H 	H 	0.4687	0.0006	0.06	-0.013
Mof_H 	H 	0.3313	0.1658	0.05	-0.01
Mof_H 	H 	0.2081	0.8134	0.0435	-0.006
Mof_H 	H 	0.0895	0.9741	0.0759	-0.001
Mof_H 	H 	0.006	0.9604	0.0403	0.08
Mof_H 	H 	0.9393	0.9463	0.0036	0.084
Mof_H 	H 	0.8737	0.9257	0.9631	0.039
Mof_H 	H 	0.0056	0.7577	0.9473	0.002
Mof_H 	H 	0.0573	0.2967	0.189	-0.001
Mof_H 	H 	0.1982	0.1344	0.2006	0.026
Mof_H 	H 	0.2231	0.1817	0.2439	0.097
Mof_H 	H 	0.237	0.2289	0.2844	0.096
Mof_H 	H 	0.2619	0.2941	0.3241	-0.016
Mof_H 	H 	0.1257	0.4472	0.2979	-0.007
Mof_H 	H 	0.5267	0.2018	0.3015	-0.002
Mof_H 	H 	0.3722	0.3497	0.2902	0.032
Mof_H 	H 	0.3565	0.3058	0.2456	0.089
Mof_H 	H 	0.3447	0.2578	0.2052	0.095
Mof_H 	H 	0.3181	0.1855	0.1671	-0.017
Mof_H 	H 	0.4681	0.0438	0.1932	-0.011
Mof_H 	H 	0.1475	0.4228	0.1944	0.005
Mof_H 	H 	0.1445	0.6364	0.1837	0.028
Mof_H 	H 	0.0747	0.6465	0.2234	0.075
Mof_H 	H 	0.0261	0.6476	0.2658	0.077
Mof_H 	H 	0.9614	0.6384	0.3069	0.028
Mof_H 	H 	0.9528	0.4249	0.2956	0.005
Mof_H 	H 	0.3737	0.3377	0.0551	0.005
Mof_H 	H 	0.1595	0.3607	0.0652	0.045
Mof_H 	H 	0.1414	0.2915	0.0257	0.077
Mof_H 	H 	0.1372	0.2142	0.9876	0.083
Mof_H 	H 	0.1488	0.1328	0.9508	0.022
Mof_H 	H 	0.3645	0.1389	0.9602	-0.003
Mof_H 	H 	0.6989	0.7731	0.3792	0.432
Mof_H 	H 	0.7763	0.7927	0.3802	0.416
Mof_H 	H 	0.9498	0.4812	0.4099	0.398
Mof_H 	H 	0.959	0.4217	0.39	0.403
Mof_H 	H 	0.8191	0.3316	0.3868	0.408
Mof_H 	H 	0.8418	0.338	0.3577	0.398
Mof_H 	H 	0.0011	0.9081	0.5909	0.426
Mof_H 	H 	0.9789	0.9257	0.6193	0.428
Mof_H 	H 	0.5288	0.9577	0.3752	0.359
Mof_H 	H 	0.5595	0.0311	0.3752	0.342
Mof_H 	H 	0.9623	0.7249	0.5549	-0.005
Mof_H 	H 	0.1294	0.863	0.5568	0.002
Mof_H 	H 	0.09	0.9097	0.5146	0.113
Mof_H 	H 	0.0377	0.9561	0.4771	0.113
Mof_H 	H 	0.9687	0.9994	0.44	-0.016
Mof_H 	H 	0.8313	0.8342	0.45	-0.01
Mof_H 	H 	0.7081	0.1866	0.4565	-0.006
Mof_H 	H 	0.5895	0.0259	0.4241	-0.002
Mof_H 	H 	0.506	0.0396	0.4597	0.079
Mof_H 	H 	0.4393	0.0537	0.4964	0.083
Mof_H 	H 	0.3737	0.0743	0.5369	0.04
Mof_H 	H 	0.5056	0.2423	0.5527	-0.003
Mof_H 	H 	0.5573	0.7033	0.311	-0.001
Mof_H 	H 	0.6982	0.8656	0.2994	0.026
Mof_H 	H 	0.7231	0.8183	0.2561	0.097
Mof_H 	H 	0.737	0.7711	0.2156	0.096
Mof_H 	H 	0.7619	0.7059	0.1759	-0.016
Mof_H 	H 	0.6257	0.5528	0.2021	-0.007
Mof_H 	H 	0.0267	0.7982	0.1985	-0.001
Mof_H 	H 	0.8722	0.6503	0.2098	0.032
Mof_H 	H 	0.8565	0.6942	0.2544	0.089
Mof_H 	H 	0.8447	0.7422	0.2948	0.095
Mof_H 	H 	0.8181	0.8145	0.3329	-0.017
Mof_H 	H 	0.9681	0.9562	0.3068	-0.011
Mof_H 	H 	0.6475	0.5772	0.3056	0.005
Mof_H 	H 	0.6445	0.3636	0.3163	0.028
Mof_H 	H 	0.5747	0.3535	0.2766	0.076
Mof_H 	H 	0.5261	0.3524	0.2342	0.076
Mof_H 	H 	0.4614	0.3616	0.1931	0.029
Mof_H 	H 	0.4528	0.5751	0.2044	0.006
Mof_H 	H 	0.8737	0.6623	0.4449	0.005
Mof_H 	H 	0.6595	0.6393	0.4348	0.045
Mof_H 	H 	0.6414	0.7085	0.4743	0.077
Mof_H 	H 	0.6372	0.7858	0.5124	0.084
Mof_H 	H 	0.6488	0.8672	0.5492	0.023
Mof_H 	H 	0.8645	0.8611	0.5398	-0.004
Mof_H 	H 	0.3011	0.7269	0.8792	0.432
Mof_H 	H 	0.2237	0.7073	0.8802	0.416
Mof_H 	H 	0.0502	0.0188	0.9099	0.396
Mof_H 	H 	0.041	0.0783	0.89	0.401
Mof_H 	H 	0.1809	0.1684	0.8868	0.408
Mof_H 	H 	0.1582	0.162	0.8577	0.398
Mof_H 	H 	0.9989	0.5919	0.0909	0.427
Mof_H 	H 	0.0211	0.5743	0.1193	0.433
Mof_H 	H 	0.4712	0.5423	0.8752	0.359
Mof_H 	H 	0.4405	0.4689	0.8752	0.342
Mof_H 	H 	0.0377	0.7751	0.0549	-0.006
Mof_H 	H 	0.8706	0.637	0.0568	0.002
Mof_H 	H 	0.91	0.5903	0.0146	0.112
Mof_H 	H 	0.9623	0.5439	0.9771	0.107
Mof_H 	H 	0.0313	0.5006	0.94	-0.013
Mof_H 	H 	0.1687	0.6658	0.95	-0.01
Mof_H 	H 	0.2919	0.3134	0.9565	-0.006
Mof_H 	H 	0.4105	0.4741	0.9241	-0.002
Mof_H 	H 	0.494	0.4604	0.9597	0.079
Mof_H 	H 	0.5607	0.4463	0.9964	0.083
Mof_H 	H 	0.6263	0.4257	0.0369	0.04
Mof_H 	H 	0.4944	0.2577	0.0527	-0.003
Mof_H 	H 	0.4427	0.7967	0.811	-0.001
Mof_H 	H 	0.3018	0.6344	0.7994	0.026
Mof_H 	H 	0.2769	0.6817	0.7561	0.097
Mof_H 	H 	0.263	0.7289	0.7156	0.096
Mof_H 	H 	0.2381	0.7941	0.6759	-0.016
Mof_H 	H 	0.3743	0.9472	0.7021	-0.007
Mof_H 	H 	0.9733	0.7018	0.6985	-0.007
Mof_H 	H 	0.1278	0.8497	0.7098	0.031
Mof_H 	H 	0.1435	0.8058	0.7544	0.09
Mof_H 	H 	0.1553	0.7578	0.7948	0.095
Mof_H 	H 	0.1819	0.6855	0.8329	-0.017
Mof_H 	H 	0.0319	0.5438	0.8068	-0.01
Mof_H 	H 	0.3525	0.9228	0.8056	0.005
Mof_H 	H 	0.3555	0.1364	0.8163	0.028
Mof_H 	H 	0.4253	0.1465	0.7766	0.076
Mof_H 	H 	0.4739	0.1476	0.7342	0.076
Mof_H 	H 	0.5386	0.1384	0.6931	0.029
Mof_H 	H 	0.5472	0.9249	0.7044	0.006
Mof_H 	H 	0.1263	0.8377	0.9449	0.005
Mof_H 	H 	0.3405	0.8607	0.9348	0.045
Mof_H 	H 	0.3586	0.7915	0.9743	0.077
Mof_H 	H 	0.3628	0.7142	0.0124	0.084
Mof_H 	H 	0.3512	0.6328	0.0492	0.023
Mof_H 	H 	0.1355	0.6389	0.0398	-0.003
Mof_H 	H 	0.8011	0.2731	0.6208	0.432
Mof_H 	H 	0.7237	0.2927	0.6198	0.416
Mof_H 	H 	0.5502	0.9812	0.5901	0.397
Mof_H 	H 	0.541	0.9217	0.61	0.402
Mof_H 	H 	0.6809	0.8316	0.6132	0.408
Mof_H 	H 	0.6582	0.838	0.6423	0.398
Mof_H 	H 	0.4989	0.4081	0.4091	0.427
Mof_H 	H 	0.5211	0.4257	0.3807	0.434
Mof_H 	H 	0.9712	0.4577	0.6248	0.359
Mof_H 	H 	0.9405	0.5311	0.6248	0.341
Mof_H 	H 	0.5377	0.2249	0.4451	-0.006
Mof_H 	H 	0.3706	0.363	0.4432	0.002
Mof_H 	H 	0.41	0.4097	0.4854	0.112
Mof_H 	H 	0.4623	0.4561	0.5229	0.107
Mof_H 	H 	0.5313	0.4994	0.56	-0.013
Mof_H 	H 	0.6687	0.3342	0.55	-0.01
Mof_H 	H 	0.7919	0.6866	0.5435	-0.006
Mof_H 	H 	0.9105	0.5259	0.5759	-0.002
Mof_H 	H 	0.994	0.5396	0.5403	0.079
Mof_H 	H 	0.0607	0.5537	0.5036	0.083
Mof_H 	H 	0.1263	0.5743	0.4631	0.04
Mof_H 	H 	0.9944	0.7423	0.4473	-0.005
Mof_H 	H 	0.9427	0.2033	0.689	-0
Mof_H 	H 	0.8018	0.3656	0.7006	0.026
Mof_H 	H 	0.7769	0.3183	0.7439	0.097
Mof_H 	H 	0.763	0.2711	0.7844	0.096
Mof_H 	H 	0.7381	0.2059	0.8241	-0.016
Mof_H 	H 	0.8743	0.0528	0.7979	-0.006
Mof_H 	H 	0.4733	0.2982	0.8015	-0.002
Mof_H 	H 	0.6278	0.1503	0.7902	0.032
Mof_H 	H 	0.6435	0.1942	0.7456	0.089
Mof_H 	H 	0.6553	0.2422	0.7052	0.095
Mof_H 	H 	0.6819	0.3145	0.6671	-0.017
Mof_H 	H 	0.5319	0.4562	0.6932	-0.011
Mof_H 	H 	0.8525	0.0772	0.6944	0.004
Mof_H 	H 	0.8555	0.8636	0.6837	0.028
Mof_H 	H 	0.9253	0.8535	0.7234	0.075
Mof_H 	H 	0.9739	0.8524	0.7658	0.077
Mof_H 	H 	0.0386	0.8616	0.8069	0.027
Mof_H 	H 	0.0472	0.0751	0.7956	0.007
Mof_H 	H 	0.6263	0.1623	0.5551	0.005
Mof_H 	H 	0.8405	0.1393	0.5652	0.045
Mof_H 	H 	0.8586	0.2085	0.5257	0.077
Mof_H 	H 	0.8628	0.2858	0.4876	0.084
Mof_H 	H 	0.8512	0.3672	0.4508	0.023
Mof_H 	H 	0.6355	0.3611	0.4602	-0.003
Mof_C 	C 	0.5114	0.7621	0.04671	0.114
Mof_C 	C 	0.4514	0.789	0.0604	-0.201
Mof_C 	C 	0.4118	0.8445	0.04825	0.098
Mof_C 	C 	0.435	0.872	0.02302	-0.157
Mof_C 	C 	0.4957	0.8427	0.01044	0.058
Mof_C 	C 	0.5281	0.8708	0.98476	0.079
Mof_C 	C 	0.5044	0.9326	0.97154	-0.169
Mof_C 	C 	0.546	0.9584	0.94957	0.142
Mof_C 	C 	0.6093	0.923	0.94209	-0.21
Mof_C 	C 	0.6274	0.8594	0.95556	0.15
Mof_C 	C 	0.4288	0.7551	0.08745	0.449
Mof_C 	C 	0.6572	0.951	0.91941	0.545
Mof_C 	C 	0.7848	0.0892	0.91469	0.509
Mof_C 	C 	0.8323	0.1565	0.95715	0.134
Mof_C 	C 	0.8407	0.1035	0.93699	-0.188
Mof_C 	C 	0.9027	0.0603	0.93784	0.108
Mof_C 	C 	0.9527	0.0683	0.95891	-0.147
Mof_C 	C 	0.9393	0.1202	0.97882	0.066
Mof_C 	C 	0.9877	0.1332	0.00239	0.054
Mof_C 	C 	0.047	0.0906	0.00838	-0.129
Mof_C 	C 	0.0864	0.1029	0.03245	0.066
Mof_C 	C 	0.065	0.1589	0.0497	-0.151
Mof_C 	C 	0.007	0.203	0.0417	0.09
Mof_C 	C 	0.1062	0.1697	0.07629	0.425
Mof_C 	C 	0.8936	0.8139	0.83874	0.424
Mof_C 	C 	0.909	0.7267	0.79988	0.099
Mof_C 	C 	0.8745	0.7884	0.81022	-0.165
Mof_C 	C 	0.8248	0.8238	0.79338	0.086
Mof_C 	C 	0.8103	0.7956	0.76759	-0.137
Mof_C 	C 	0.8457	0.733	0.75879	0.053
Mof_C 	C 	0.8317	0.6973	0.73208	0.078
Mof_C 	C 	0.7843	0.7261	0.7127	-0.172
Mof_C 	C 	0.7694	0.6874	0.68918	0.142
Mof_C 	C 	0.8015	0.6202	0.68546	-0.219
Mof_C 	C 	0.8509	0.5966	0.70503	0.147
Mof_C 	C 	0.7816	0.5736	0.66114	0.554
Mof_C 	C 	0.5372	0.6969	0.6694	0.431
Mof_C 	C 	0.5089	0.7777	0.70962	0.098
Mof_C 	C 	0.5496	0.7215	0.6989	-0.164
Mof_C 	C 	0.6005	0.6893	0.71605	0.077
Mof_C 	C 	0.6103	0.7159	0.74256	-0.129
Mof_C 	C 	0.5701	0.7751	0.75126	0.054
Mof_C 	C 	0.582	0.8112	0.77819	0.081
Mof_C 	C 	0.6323	0.7865	0.7972	-0.164
Mof_C 	C 	0.6477	0.8294	0.81992	0.139
Mof_C 	C 	0.612	0.8946	0.82316	-0.212
Mof_C 	C 	0.5579	0.9136	0.80416	0.147
Mof_C 	C 	0.6352	0.9475	0.84498	0.539
Mof_C 	C 	0.7939	0.4814	0.83845	0.333
Mof_C 	C 	0.8676	0.5316	0.79981	0.091
Mof_C 	C 	0.8454	0.4717	0.81492	-0.114
Mof_C 	C 	0.8682	0.4046	0.80634	0.055
Mof_C 	C 	0.9102	0.3987	0.78279	-0.114
Mof_C 	C 	0.9293	0.4604	0.76854	0.065
Mof_C 	C 	0.9721	0.4594	0.74274	0.065
Mof_C 	C 	0.9887	0.3974	0.72774	-0.114
Mof_C 	C 	0.0272	0.4027	0.70333	0.064
Mof_C 	C 	0.0484	0.4703	0.69437	-0.114
Mof_C 	C 	0.0314	0.5299	0.71025	0.1
Mof_C 	C 	0.0895	0.4824	0.66795	0.342
Mof_C 	C 	0.7145	0.6015	0.91004	0.321
Mof_C 	C 	0.6734	0.6721	0.95069	0.091
Mof_C 	C 	0.7318	0.6452	0.93526	-0.105
Mof_C 	C 	0.8011	0.658	0.94436	0.06
Mof_C 	C 	0.812	0.699	0.96796	-0.099
Mof_C 	C 	0.7521	0.7256	0.98185	0.06
Mof_C 	C 	0.7544	0.7755	0.00556	0.067
Mof_C 	C 	0.8173	0.8011	0.01825	-0.124
Mof_C 	C 	0.8103	0.8503	0.03998	0.084
Mof_C 	C 	0.7415	0.8736	0.0477	-0.148
Mof_C 	C 	0.6814	0.8454	0.03451	0.119
Mof_C 	C 	0.7283	0.9281	0.07049	0.431
Mof_C 	C 	0.0114	0.2379	0.45329	0.109
Mof_C 	C 	0.9514	0.211	0.4396	-0.198
Mof_C 	C 	0.9118	0.1555	0.45175	0.097
Mof_C 	C 	0.935	0.128	0.47698	-0.157
Mof_C 	C 	0.9957	0.1573	0.48956	0.061
Mof_C 	C 	0.0281	0.1292	0.51524	0.078
Mof_C 	C 	0.0044	0.0674	0.52846	-0.177
Mof_C 	C 	0.046	0.0416	0.55043	0.146
Mof_C 	C 	0.1093	0.077	0.55791	-0.212
Mof_C 	C 	0.1274	0.1406	0.54444	0.151
Mof_C 	C 	0.9288	0.2449	0.41255	0.449
Mof_C 	C 	0.1572	0.049	0.58059	0.544
Mof_C 	C 	0.2848	0.9108	0.58531	0.509
Mof_C 	C 	0.3323	0.8435	0.54285	0.134
Mof_C 	C 	0.3407	0.8965	0.56301	-0.188
Mof_C 	C 	0.4027	0.9397	0.56216	0.108
Mof_C 	C 	0.4527	0.9317	0.54109	-0.148
Mof_C 	C 	0.4393	0.8798	0.52118	0.067
Mof_C 	C 	0.4877	0.8668	0.49761	0.049
Mof_C 	C 	0.547	0.9094	0.49162	-0.124
Mof_C 	C 	0.5864	0.8971	0.46755	0.066
Mof_C 	C 	0.565	0.8411	0.4503	-0.153
Mof_C 	C 	0.507	0.797	0.4583	0.098
Mof_C 	C 	0.6062	0.8303	0.42371	0.426
Mof_C 	C 	0.3936	0.1861	0.66126	0.424
Mof_C 	C 	0.409	0.2733	0.70012	0.099
Mof_C 	C 	0.3745	0.2116	0.68978	-0.164
Mof_C 	C 	0.3248	0.1762	0.70662	0.086
Mof_C 	C 	0.3103	0.2044	0.73241	-0.137
Mof_C 	C 	0.3457	0.267	0.74121	0.053
Mof_C 	C 	0.3317	0.3027	0.76792	0.078
Mof_C 	C 	0.2843	0.2739	0.7873	-0.172
Mof_C 	C 	0.2694	0.3126	0.81082	0.142
Mof_C 	C 	0.3015	0.3798	0.81454	-0.218
Mof_C 	C 	0.3509	0.4034	0.79497	0.147
Mof_C 	C 	0.2816	0.4264	0.83886	0.554
Mof_C 	C 	0.0372	0.3031	0.8306	0.431
Mof_C 	C 	0.0089	0.2223	0.79038	0.097
Mof_C 	C 	0.0496	0.2785	0.8011	-0.163
Mof_C 	C 	0.1005	0.3107	0.78395	0.077
Mof_C 	C 	0.1103	0.2841	0.75744	-0.129
Mof_C 	C 	0.0701	0.2249	0.74874	0.054
Mof_C 	C 	0.082	0.1888	0.72181	0.081
Mof_C 	C 	0.1323	0.2135	0.7028	-0.164
Mof_C 	C 	0.1477	0.1706	0.68008	0.139
Mof_C 	C 	0.112	0.1054	0.67684	-0.212
Mof_C 	C 	0.0579	0.0864	0.69584	0.146
Mof_C 	C 	0.1352	0.0525	0.65502	0.536
Mof_C 	C 	0.2939	0.5186	0.66155	0.333
Mof_C 	C 	0.3676	0.4684	0.70019	0.092
Mof_C 	C 	0.3454	0.5283	0.68508	-0.114
Mof_C 	C 	0.3682	0.5954	0.69366	0.055
Mof_C 	C 	0.4102	0.6013	0.71721	-0.114
Mof_C 	C 	0.4293	0.5396	0.73146	0.066
Mof_C 	C 	0.4721	0.5406	0.75726	0.064
Mof_C 	C 	0.4887	0.6026	0.77226	-0.11
Mof_C 	C 	0.5272	0.5973	0.79667	0.06
Mof_C 	C 	0.5484	0.5297	0.80563	-0.112
Mof_C 	C 	0.5314	0.4701	0.78975	0.096
Mof_C 	C 	0.5895	0.5176	0.83205	0.341
Mof_C 	C 	0.2145	0.3985	0.58996	0.321
Mof_C 	C 	0.1734	0.3279	0.54931	0.091
Mof_C 	C 	0.2318	0.3548	0.56474	-0.105
Mof_C 	C 	0.3011	0.342	0.55564	0.06
Mof_C 	C 	0.312	0.301	0.53204	-0.099
Mof_C 	C 	0.2521	0.2744	0.51815	0.06
Mof_C 	C 	0.2544	0.2245	0.49444	0.067
Mof_C 	C 	0.3173	0.1989	0.48175	-0.124
Mof_C 	C 	0.3103	0.1497	0.46002	0.084
Mof_C 	C 	0.2415	0.1264	0.4523	-0.148
Mof_C 	C 	0.1814	0.1546	0.46549	0.119
Mof_C 	C 	0.2283	0.0719	0.42951	0.431
Mof_C 	C 	0.9886	0.2621	0.95329	0.115
Mof_C 	C 	0.0486	0.289	0.9396	-0.203
Mof_C 	C 	0.0882	0.3445	0.95175	0.098
Mof_C 	C 	0.065	0.372	0.97698	-0.156
Mof_C 	C 	0.0043	0.3427	0.98956	0.056
Mof_C 	C 	0.9719	0.3708	0.01524	0.08
Mof_C 	C 	0.9956	0.4326	0.02846	-0.168
Mof_C 	C 	0.954	0.4584	0.05043	0.142
Mof_C 	C 	0.8907	0.423	0.05791	-0.21
Mof_C 	C 	0.8726	0.3594	0.04444	0.151
Mof_C 	C 	0.0712	0.2551	0.91255	0.45
Mof_C 	C 	0.8428	0.451	0.08059	0.547
Mof_C 	C 	0.7152	0.5892	0.08531	0.509
Mof_C 	C 	0.6677	0.6565	0.04285	0.134
Mof_C 	C 	0.6593	0.6035	0.06301	-0.189
Mof_C 	C 	0.5973	0.5603	0.06216	0.108
Mof_C 	C 	0.5473	0.5683	0.04109	-0.148
Mof_C 	C 	0.5607	0.6202	0.02118	0.067
Mof_C 	C 	0.5123	0.6332	0.99761	0.049
Mof_C 	C 	0.453	0.5906	0.99162	-0.124
Mof_C 	C 	0.4136	0.6029	0.96755	0.066
Mof_C 	C 	0.435	0.6589	0.9503	-0.153
Mof_C 	C 	0.493	0.703	0.9583	0.098
Mof_C 	C 	0.3938	0.6697	0.92371	0.426
Mof_C 	C 	0.6064	0.3139	0.16126	0.424
Mof_C 	C 	0.591	0.2267	0.20012	0.099
Mof_C 	C 	0.6255	0.2884	0.18978	-0.164
Mof_C 	C 	0.6752	0.3238	0.20662	0.086
Mof_C 	C 	0.6897	0.2956	0.23241	-0.137
Mof_C 	C 	0.6543	0.233	0.24121	0.053
Mof_C 	C 	0.6683	0.1973	0.26792	0.078
Mof_C 	C 	0.7157	0.2261	0.2873	-0.172
Mof_C 	C 	0.7306	0.1874	0.31082	0.142
Mof_C 	C 	0.6985	0.1202	0.31454	-0.218
Mof_C 	C 	0.6491	0.0966	0.29497	0.147
Mof_C 	C 	0.7184	0.0736	0.33886	0.554
Mof_C 	C 	0.9628	0.1969	0.3306	0.438
Mof_C 	C 	0.9911	0.2777	0.29038	0.107
Mof_C 	C 	0.9504	0.2215	0.3011	-0.168
Mof_C 	C 	0.8995	0.1893	0.28395	0.08
Mof_C 	C 	0.8897	0.2159	0.25744	-0.131
Mof_C 	C 	0.9299	0.2751	0.24874	0.055
Mof_C 	C 	0.918	0.3112	0.22181	0.081
Mof_C 	C 	0.8677	0.2865	0.2028	-0.164
Mof_C 	C 	0.8523	0.3294	0.18008	0.14
Mof_C 	C 	0.888	0.3946	0.17684	-0.213
Mof_C 	C 	0.9421	0.4136	0.19584	0.147
Mof_C 	C 	0.8648	0.4475	0.15502	0.541
Mof_C 	C 	0.7061	0.9814	0.16155	0.331
Mof_C 	C 	0.6324	0.0316	0.20019	0.093
Mof_C 	C 	0.6546	0.9717	0.18508	-0.115
Mof_C 	C 	0.6318	0.9046	0.19366	0.055
Mof_C 	C 	0.5898	0.8987	0.21721	-0.114
Mof_C 	C 	0.5707	0.9604	0.23146	0.066
Mof_C 	C 	0.5279	0.9594	0.25726	0.064
Mof_C 	C 	0.5113	0.8974	0.27226	-0.11
Mof_C 	C 	0.4728	0.9027	0.29667	0.06
Mof_C 	C 	0.4516	0.9703	0.30563	-0.111
Mof_C 	C 	0.4686	0.0299	0.28975	0.095
Mof_C 	C 	0.4105	0.9824	0.33205	0.342
Mof_C 	C 	0.7855	0.1015	0.08996	0.321
Mof_C 	C 	0.8266	0.1721	0.04931	0.091
Mof_C 	C 	0.7682	0.1452	0.06474	-0.105
Mof_C 	C 	0.6989	0.158	0.05564	0.059
Mof_C 	C 	0.688	0.199	0.03204	-0.099
Mof_C 	C 	0.7479	0.2256	0.01815	0.06
Mof_C 	C 	0.7456	0.2755	0.99444	0.067
Mof_C 	C 	0.6827	0.3011	0.98175	-0.124
Mof_C 	C 	0.6897	0.3503	0.96002	0.084
Mof_C 	C 	0.7585	0.3736	0.9523	-0.147
Mof_C 	C 	0.8186	0.3454	0.96549	0.119
Mof_C 	C 	0.7717	0.4281	0.92951	0.431
Mof_C 	C 	0.4886	0.7379	0.54671	0.114
Mof_C 	C 	0.5486	0.711	0.5604	-0.201
Mof_C 	C 	0.5882	0.6555	0.54825	0.098
Mof_C 	C 	0.565	0.628	0.52302	-0.157
Mof_C 	C 	0.5043	0.6573	0.51044	0.058
Mof_C 	C 	0.4719	0.6292	0.48476	0.079
Mof_C 	C 	0.4956	0.5674	0.47154	-0.169
Mof_C 	C 	0.454	0.5416	0.44957	0.143
Mof_C 	C 	0.3907	0.577	0.44209	-0.211
Mof_C 	C 	0.3726	0.6406	0.45556	0.151
Mof_C 	C 	0.5712	0.7449	0.58745	0.449
Mof_C 	C 	0.3428	0.549	0.41941	0.547
Mof_C 	C 	0.2152	0.4108	0.41469	0.509
Mof_C 	C 	0.1677	0.3435	0.45715	0.134
Mof_C 	C 	0.1593	0.3965	0.43699	-0.189
Mof_C 	C 	0.0973	0.4397	0.43784	0.108
Mof_C 	C 	0.0473	0.4317	0.45891	-0.148
Mof_C 	C 	0.0607	0.3798	0.47882	0.067
Mof_C 	C 	0.0123	0.3668	0.50239	0.048
Mof_C 	C 	0.953	0.4094	0.50838	-0.123
Mof_C 	C 	0.9136	0.3971	0.53245	0.066
Mof_C 	C 	0.935	0.3411	0.5497	-0.154
Mof_C 	C 	0.993	0.297	0.5417	0.102
Mof_C 	C 	0.8938	0.3303	0.57629	0.426
Mof_C 	C 	0.1064	0.6861	0.33874	0.424
Mof_C 	C 	0.091	0.7733	0.29988	0.099
Mof_C 	C 	0.1255	0.7116	0.31022	-0.164
Mof_C 	C 	0.1752	0.6762	0.29338	0.085
Mof_C 	C 	0.1897	0.7044	0.26759	-0.137
Mof_C 	C 	0.1543	0.767	0.25879	0.053
Mof_C 	C 	0.1683	0.8027	0.23208	0.078
Mof_C 	C 	0.2157	0.7739	0.2127	-0.172
Mof_C 	C 	0.2306	0.8126	0.18918	0.142
Mof_C 	C 	0.1985	0.8798	0.18546	-0.218
Mof_C 	C 	0.1491	0.9034	0.20503	0.147
Mof_C 	C 	0.2184	0.9264	0.16114	0.553
Mof_C 	C 	0.4628	0.8031	0.1694	0.431
Mof_C 	C 	0.4911	0.7223	0.20962	0.098
Mof_C 	C 	0.4504	0.7785	0.1989	-0.163
Mof_C 	C 	0.3995	0.8107	0.21605	0.077
Mof_C 	C 	0.3897	0.7841	0.24256	-0.129
Mof_C 	C 	0.4299	0.7249	0.25126	0.054
Mof_C 	C 	0.418	0.6888	0.27819	0.081
Mof_C 	C 	0.3677	0.7135	0.2972	-0.164
Mof_C 	C 	0.3523	0.6706	0.31992	0.14
Mof_C 	C 	0.388	0.6054	0.32316	-0.213
Mof_C 	C 	0.4421	0.5864	0.30416	0.147
Mof_C 	C 	0.3648	0.5525	0.34498	0.541
Mof_C 	C 	0.2061	0.0186	0.33845	0.331
Mof_C 	C 	0.1324	0.9684	0.29981	0.096
Mof_C 	C 	0.1546	0.0283	0.31492	-0.117
Mof_C 	C 	0.1318	0.0954	0.30634	0.055
Mof_C 	C 	0.0898	0.1013	0.28279	-0.114
Mof_C 	C 	0.0707	0.0396	0.26854	0.063
Mof_C 	C 	0.0279	0.0406	0.24274	0.063
Mof_C 	C 	0.0113	0.1026	0.22774	-0.118
Mof_C 	C 	0.9728	0.0973	0.20333	0.068
Mof_C 	C 	0.9516	0.0297	0.19437	-0.109
Mof_C 	C 	0.9686	0.9701	0.21025	0.09
Mof_C 	C 	0.9105	0.0176	0.16795	0.345
Mof_C 	C 	0.2855	0.8985	0.41004	0.321
Mof_C 	C 	0.3266	0.8279	0.45069	0.091
Mof_C 	C 	0.2682	0.8548	0.43526	-0.105
Mof_C 	C 	0.1989	0.842	0.44436	0.06
Mof_C 	C 	0.188	0.801	0.46796	-0.099
Mof_C 	C 	0.2479	0.7744	0.48185	0.06
Mof_C 	C 	0.2456	0.7245	0.50556	0.067
Mof_C 	C 	0.1827	0.6989	0.51825	-0.124
Mof_C 	C 	0.1897	0.6497	0.53998	0.084
Mof_C 	C 	0.2585	0.6264	0.5477	-0.147
Mof_C 	C 	0.3186	0.6546	0.53451	0.119
Mof_C 	C 	0.2717	0.5719	0.57049	0.431
Mof_C 	C 	0.4886	0.2379	0.95329	0.114
Mof_C 	C 	0.5486	0.211	0.9396	-0.201
Mof_C 	C 	0.5882	0.1555	0.95175	0.098
Mof_C 	C 	0.565	0.128	0.97698	-0.157
Mof_C 	C 	0.5043	0.1573	0.98956	0.058
Mof_C 	C 	0.4719	0.1292	0.01524	0.079
Mof_C 	C 	0.4956	0.0674	0.02846	-0.169
Mof_C 	C 	0.454	0.0416	0.05043	0.142
Mof_C 	C 	0.3907	0.077	0.05791	-0.21
Mof_C 	C 	0.3726	0.1406	0.04444	0.15
Mof_C 	C 	0.5712	0.2449	0.91255	0.449
Mof_C 	C 	0.3428	0.049	0.08059	0.545
Mof_C 	C 	0.2152	0.9108	0.08531	0.509
Mof_C 	C 	0.1677	0.8435	0.04285	0.134
Mof_C 	C 	0.1593	0.8965	0.06301	-0.188
Mof_C 	C 	0.0973	0.9397	0.06216	0.108
Mof_C 	C 	0.0473	0.9317	0.04109	-0.147
Mof_C 	C 	0.0607	0.8798	0.02118	0.066
Mof_C 	C 	0.0123	0.8668	0.99761	0.054
Mof_C 	C 	0.953	0.9094	0.99162	-0.129
Mof_C 	C 	0.9136	0.8971	0.96755	0.066
Mof_C 	C 	0.935	0.8411	0.9503	-0.151
Mof_C 	C 	0.993	0.797	0.9583	0.09
Mof_C 	C 	0.8938	0.8303	0.92371	0.425
Mof_C 	C 	0.1064	0.1861	0.16126	0.424
Mof_C 	C 	0.091	0.2733	0.20012	0.099
Mof_C 	C 	0.1255	0.2116	0.18978	-0.165
Mof_C 	C 	0.1752	0.1762	0.20662	0.086
Mof_C 	C 	0.1897	0.2044	0.23241	-0.137
Mof_C 	C 	0.1543	0.267	0.24121	0.053
Mof_C 	C 	0.1683	0.3027	0.26792	0.078
Mof_C 	C 	0.2157	0.2739	0.2873	-0.172
Mof_C 	C 	0.2306	0.3126	0.31082	0.142
Mof_C 	C 	0.1985	0.3798	0.31454	-0.219
Mof_C 	C 	0.1491	0.4034	0.29497	0.147
Mof_C 	C 	0.2184	0.4264	0.33886	0.554
Mof_C 	C 	0.4628	0.3031	0.3306	0.431
Mof_C 	C 	0.4911	0.2223	0.29038	0.098
Mof_C 	C 	0.4504	0.2785	0.3011	-0.164
Mof_C 	C 	0.3995	0.3107	0.28395	0.077
Mof_C 	C 	0.3897	0.2841	0.25744	-0.129
Mof_C 	C 	0.4299	0.2249	0.24874	0.054
Mof_C 	C 	0.418	0.1888	0.22181	0.081
Mof_C 	C 	0.3677	0.2135	0.2028	-0.164
Mof_C 	C 	0.3523	0.1706	0.18008	0.139
Mof_C 	C 	0.388	0.1054	0.17684	-0.212
Mof_C 	C 	0.4421	0.0864	0.19584	0.147
Mof_C 	C 	0.3648	0.0525	0.15502	0.539
Mof_C 	C 	0.2061	0.5186	0.16155	0.333
Mof_C 	C 	0.1324	0.4684	0.20019	0.091
Mof_C 	C 	0.1546	0.5283	0.18508	-0.114
Mof_C 	C 	0.1318	0.5954	0.19366	0.055
Mof_C 	C 	0.0898	0.6013	0.21721	-0.114
Mof_C 	C 	0.0707	0.5396	0.23146	0.065
Mof_C 	C 	0.0279	0.5406	0.25726	0.065
Mof_C 	C 	0.0113	0.6026	0.27226	-0.114
Mof_C 	C 	0.9728	0.5973	0.29667	0.064
Mof_C 	C 	0.9516	0.5297	0.30563	-0.114
Mof_C 	C 	0.9686	0.4701	0.28975	0.1
Mof_C 	C 	0.9105	0.5176	0.33205	0.342
Mof_C 	C 	0.2855	0.3985	0.08996	0.321
Mof_C 	C 	0.3266	0.3279	0.04931	0.091
Mof_C 	C 	0.2682	0.3548	0.06474	-0.105
Mof_C 	C 	0.1989	0.342	0.05564	0.06
Mof_C 	C 	0.188	0.301	0.03204	-0.099
Mof_C 	C 	0.2479	0.2744	0.01815	0.06
Mof_C 	C 	0.2456	0.2245	0.99444	0.067
Mof_C 	C 	0.1827	0.1989	0.98175	-0.124
Mof_C 	C 	0.1897	0.1497	0.96002	0.084
Mof_C 	C 	0.2585	0.1264	0.9523	-0.148
Mof_C 	C 	0.3186	0.1546	0.96549	0.119
Mof_C 	C 	0.2717	0.0719	0.92951	0.431
Mof_C 	C 	0.9886	0.7621	0.54671	0.109
Mof_C 	C 	0.0486	0.789	0.5604	-0.198
Mof_C 	C 	0.0882	0.8445	0.54825	0.097
Mof_C 	C 	0.065	0.872	0.52302	-0.157
Mof_C 	C 	0.0043	0.8427	0.51044	0.061
Mof_C 	C 	0.9719	0.8708	0.48476	0.078
Mof_C 	C 	0.9956	0.9326	0.47154	-0.177
Mof_C 	C 	0.954	0.9584	0.44957	0.146
Mof_C 	C 	0.8907	0.923	0.44209	-0.212
Mof_C 	C 	0.8726	0.8594	0.45556	0.151
Mof_C 	C 	0.0712	0.7551	0.58745	0.449
Mof_C 	C 	0.8428	0.951	0.41941	0.544
Mof_C 	C 	0.7152	0.0892	0.41469	0.509
Mof_C 	C 	0.6677	0.1565	0.45715	0.134
Mof_C 	C 	0.6593	0.1035	0.43699	-0.188
Mof_C 	C 	0.5973	0.0603	0.43784	0.108
Mof_C 	C 	0.5473	0.0683	0.45891	-0.148
Mof_C 	C 	0.5607	0.1202	0.47882	0.067
Mof_C 	C 	0.5123	0.1332	0.50239	0.049
Mof_C 	C 	0.453	0.0906	0.50838	-0.124
Mof_C 	C 	0.4136	0.1029	0.53245	0.066
Mof_C 	C 	0.435	0.1589	0.5497	-0.153
Mof_C 	C 	0.493	0.203	0.5417	0.098
Mof_C 	C 	0.3938	0.1697	0.57629	0.426
Mof_C 	C 	0.6064	0.8139	0.33874	0.424
Mof_C 	C 	0.591	0.7267	0.29988	0.099
Mof_C 	C 	0.6255	0.7884	0.31022	-0.164
Mof_C 	C 	0.6752	0.8238	0.29338	0.086
Mof_C 	C 	0.6897	0.7956	0.26759	-0.137
Mof_C 	C 	0.6543	0.733	0.25879	0.053
Mof_C 	C 	0.6683	0.6973	0.23208	0.078
Mof_C 	C 	0.7157	0.7261	0.2127	-0.172
Mof_C 	C 	0.7306	0.6874	0.18918	0.142
Mof_C 	C 	0.6985	0.6202	0.18546	-0.218
Mof_C 	C 	0.6491	0.5966	0.20503	0.147
Mof_C 	C 	0.7184	0.5736	0.16114	0.554
Mof_C 	C 	0.9628	0.6969	0.1694	0.431
Mof_C 	C 	0.9911	0.7777	0.20962	0.097
Mof_C 	C 	0.9504	0.7215	0.1989	-0.163
Mof_C 	C 	0.8995	0.6893	0.21605	0.077
Mof_C 	C 	0.8897	0.7159	0.24256	-0.129
Mof_C 	C 	0.9299	0.7751	0.25126	0.054
Mof_C 	C 	0.918	0.8112	0.27819	0.081
Mof_C 	C 	0.8677	0.7865	0.2972	-0.164
Mof_C 	C 	0.8523	0.8294	0.31992	0.139
Mof_C 	C 	0.888	0.8946	0.32316	-0.212
Mof_C 	C 	0.9421	0.9136	0.30416	0.146
Mof_C 	C 	0.8648	0.9475	0.34498	0.536
Mof_C 	C 	0.7061	0.4814	0.33845	0.333
Mof_C 	C 	0.6324	0.5316	0.29981	0.092
Mof_C 	C 	0.6546	0.4717	0.31492	-0.114
Mof_C 	C 	0.6318	0.4046	0.30634	0.055
Mof_C 	C 	0.5898	0.3987	0.28279	-0.114
Mof_C 	C 	0.5707	0.4604	0.26854	0.066
Mof_C 	C 	0.5279	0.4594	0.24274	0.064
Mof_C 	C 	0.5113	0.3974	0.22774	-0.11
Mof_C 	C 	0.4728	0.4027	0.20333	0.06
Mof_C 	C 	0.4516	0.4703	0.19437	-0.112
Mof_C 	C 	0.4686	0.5299	0.21025	0.096
Mof_C 	C 	0.4105	0.4824	0.16795	0.341
Mof_C 	C 	0.7855	0.6015	0.41004	0.321
Mof_C 	C 	0.8266	0.6721	0.45069	0.091
Mof_C 	C 	0.7682	0.6452	0.43526	-0.105
Mof_C 	C 	0.6989	0.658	0.44436	0.06
Mof_C 	C 	0.688	0.699	0.46796	-0.099
Mof_C 	C 	0.7479	0.7256	0.48185	0.06
Mof_C 	C 	0.7456	0.7755	0.50556	0.067
Mof_C 	C 	0.6827	0.8011	0.51825	-0.124
Mof_C 	C 	0.6897	0.8503	0.53998	0.084
Mof_C 	C 	0.7585	0.8736	0.5477	-0.148
Mof_C 	C 	0.8186	0.8454	0.53451	0.119
Mof_C 	C 	0.7717	0.9281	0.57049	0.431
Mof_C 	C 	0.0114	0.7379	0.04671	0.115
Mof_C 	C 	0.9514	0.711	0.0604	-0.203
Mof_C 	C 	0.9118	0.6555	0.04825	0.098
Mof_C 	C 	0.935	0.628	0.02302	-0.156
Mof_C 	C 	0.9957	0.6573	0.01044	0.056
Mof_C 	C 	0.0281	0.6292	0.98476	0.08
Mof_C 	C 	0.0044	0.5674	0.97154	-0.168
Mof_C 	C 	0.046	0.5416	0.94957	0.142
Mof_C 	C 	0.1093	0.577	0.94209	-0.21
Mof_C 	C 	0.1274	0.6406	0.95556	0.151
Mof_C 	C 	0.9288	0.7449	0.08745	0.45
Mof_C 	C 	0.1572	0.549	0.91941	0.547
Mof_C 	C 	0.2848	0.4108	0.91469	0.509
Mof_C 	C 	0.3323	0.3435	0.95715	0.134
Mof_C 	C 	0.3407	0.3965	0.93699	-0.189
Mof_C 	C 	0.4027	0.4397	0.93784	0.108
Mof_C 	C 	0.4527	0.4317	0.95891	-0.148
Mof_C 	C 	0.4393	0.3798	0.97882	0.067
Mof_C 	C 	0.4877	0.3668	0.00239	0.049
Mof_C 	C 	0.547	0.4094	0.00838	-0.124
Mof_C 	C 	0.5864	0.3971	0.03245	0.066
Mof_C 	C 	0.565	0.3411	0.0497	-0.153
Mof_C 	C 	0.507	0.297	0.0417	0.098
Mof_C 	C 	0.6062	0.3303	0.07629	0.426
Mof_C 	C 	0.3936	0.6861	0.83874	0.424
Mof_C 	C 	0.409	0.7733	0.79988	0.099
Mof_C 	C 	0.3745	0.7116	0.81022	-0.164
Mof_C 	C 	0.3248	0.6762	0.79338	0.086
Mof_C 	C 	0.3103	0.7044	0.76759	-0.137
Mof_C 	C 	0.3457	0.767	0.75879	0.053
Mof_C 	C 	0.3317	0.8027	0.73208	0.078
Mof_C 	C 	0.2843	0.7739	0.7127	-0.172
Mof_C 	C 	0.2694	0.8126	0.68918	0.142
Mof_C 	C 	0.3015	0.8798	0.68546	-0.218
Mof_C 	C 	0.3509	0.9034	0.70503	0.147
Mof_C 	C 	0.2816	0.9264	0.66114	0.554
Mof_C 	C 	0.0372	0.8031	0.6694	0.438
Mof_C 	C 	0.0089	0.7223	0.70962	0.107
Mof_C 	C 	0.0496	0.7785	0.6989	-0.168
Mof_C 	C 	0.1005	0.8107	0.71605	0.08
Mof_C 	C 	0.1103	0.7841	0.74256	-0.131
Mof_C 	C 	0.0701	0.7249	0.75126	0.055
Mof_C 	C 	0.082	0.6888	0.77819	0.081
Mof_C 	C 	0.1323	0.7135	0.7972	-0.164
Mof_C 	C 	0.1477	0.6706	0.81992	0.14
Mof_C 	C 	0.112	0.6054	0.82316	-0.213
Mof_C 	C 	0.0579	0.5864	0.80416	0.147
Mof_C 	C 	0.1352	0.5525	0.84498	0.541
Mof_C 	C 	0.2939	0.0186	0.83845	0.331
Mof_C 	C 	0.3676	0.9684	0.79981	0.093
Mof_C 	C 	0.3454	0.0283	0.81492	-0.115
Mof_C 	C 	0.3682	0.0954	0.80634	0.055
Mof_C 	C 	0.4102	0.1013	0.78279	-0.114
Mof_C 	C 	0.4293	0.0396	0.76854	0.066
Mof_C 	C 	0.4721	0.0406	0.74274	0.064
Mof_C 	C 	0.4887	0.1026	0.72774	-0.11
Mof_C 	C 	0.5272	0.0973	0.70333	0.06
Mof_C 	C 	0.5484	0.0297	0.69437	-0.111
Mof_C 	C 	0.5314	0.9701	0.71025	0.095
Mof_C 	C 	0.5895	0.0176	0.66795	0.342
Mof_C 	C 	0.2145	0.8985	0.91004	0.321
Mof_C 	C 	0.1734	0.8279	0.95069	0.091
Mof_C 	C 	0.2318	0.8548	0.93526	-0.105
Mof_C 	C 	0.3011	0.842	0.94436	0.059
Mof_C 	C 	0.312	0.801	0.96796	-0.099
Mof_C 	C 	0.2521	0.7744	0.98185	0.06
Mof_C 	C 	0.2544	0.7245	0.00556	0.067
Mof_C 	C 	0.3173	0.6989	0.01825	-0.124
Mof_C 	C 	0.3103	0.6497	0.03998	0.084
Mof_C 	C 	0.2415	0.6264	0.0477	-0.147
Mof_C 	C 	0.1814	0.6546	0.03451	0.119
Mof_C 	C 	0.2283	0.5719	0.07049	0.431
Mof_C 	C 	0.5114	0.2621	0.45329	0.114
Mof_C 	C 	0.4514	0.289	0.4396	-0.201
Mof_C 	C 	0.4118	0.3445	0.45175	0.098
Mof_C 	C 	0.435	0.372	0.47698	-0.157
Mof_C 	C 	0.4957	0.3427	0.48956	0.058
Mof_C 	C 	0.5281	0.3708	0.51524	0.079
Mof_C 	C 	0.5044	0.4326	0.52846	-0.169
Mof_C 	C 	0.546	0.4584	0.55043	0.143
Mof_C 	C 	0.6093	0.423	0.55791	-0.211
Mof_C 	C 	0.6274	0.3594	0.54444	0.151
Mof_C 	C 	0.4288	0.2551	0.41255	0.449
Mof_C 	C 	0.6572	0.451	0.58059	0.547
Mof_C 	C 	0.7848	0.5892	0.58531	0.509
Mof_C 	C 	0.8323	0.6565	0.54285	0.134
Mof_C 	C 	0.8407	0.6035	0.56301	-0.189
Mof_C 	C 	0.9027	0.5603	0.56216	0.108
Mof_C 	C 	0.9527	0.5683	0.54109	-0.148
Mof_C 	C 	0.9393	0.6202	0.52118	0.067
Mof_C 	C 	0.9877	0.6332	0.49761	0.048
Mof_C 	C 	0.047	0.5906	0.49162	-0.123
Mof_C 	C 	0.0864	0.6029	0.46755	0.066
Mof_C 	C 	0.065	0.6589	0.4503	-0.154
Mof_C 	C 	0.007	0.703	0.4583	0.102
Mof_C 	C 	0.1062	0.6697	0.42371	0.426
Mof_C 	C 	0.8936	0.3139	0.66126	0.424
Mof_C 	C 	0.909	0.2267	0.70012	0.099
Mof_C 	C 	0.8745	0.2884	0.68978	-0.164
Mof_C 	C 	0.8248	0.3238	0.70662	0.085
Mof_C 	C 	0.8103	0.2956	0.73241	-0.137
Mof_C 	C 	0.8457	0.233	0.74121	0.053
Mof_C 	C 	0.8317	0.1973	0.76792	0.078
Mof_C 	C 	0.7843	0.2261	0.7873	-0.172
Mof_C 	C 	0.7694	0.1874	0.81082	0.142
Mof_C 	C 	0.8015	0.1202	0.81454	-0.218
Mof_C 	C 	0.8509	0.0966	0.79497	0.147
Mof_C 	C 	0.7816	0.0736	0.83886	0.553
Mof_C 	C 	0.5372	0.1969	0.8306	0.431
Mof_C 	C 	0.5089	0.2777	0.79038	0.098
Mof_C 	C 	0.5496	0.2215	0.8011	-0.163
Mof_C 	C 	0.6005	0.1893	0.78395	0.077
Mof_C 	C 	0.6103	0.2159	0.75744	-0.129
Mof_C 	C 	0.5701	0.2751	0.74874	0.054
Mof_C 	C 	0.582	0.3112	0.72181	0.081
Mof_C 	C 	0.6323	0.2865	0.7028	-0.164
Mof_C 	C 	0.6477	0.3294	0.68008	0.14
Mof_C 	C 	0.612	0.3946	0.67684	-0.213
Mof_C 	C 	0.5579	0.4136	0.69584	0.147
Mof_C 	C 	0.6352	0.4475	0.65502	0.541
Mof_C 	C 	0.7939	0.9814	0.66155	0.331
Mof_C 	C 	0.8676	0.0316	0.70019	0.096
Mof_C 	C 	0.8454	0.9717	0.68508	-0.117
Mof_C 	C 	0.8682	0.9046	0.69366	0.055
Mof_C 	C 	0.9102	0.8987	0.71721	-0.114
Mof_C 	C 	0.9293	0.9604	0.73146	0.063
Mof_C 	C 	0.9721	0.9594	0.75726	0.063
Mof_C 	C 	0.9887	0.8974	0.77226	-0.118
Mof_C 	C 	0.0272	0.9027	0.79667	0.068
Mof_C 	C 	0.0484	0.9703	0.80563	-0.109
Mof_C 	C 	0.0314	0.0299	0.78975	0.09
Mof_C 	C 	0.0895	0.9824	0.83205	0.345
Mof_C 	C 	0.7145	0.1015	0.58996	0.321
Mof_C 	C 	0.6734	0.1721	0.54931	0.091
Mof_C 	C 	0.7318	0.1452	0.56474	-0.105
Mof_C 	C 	0.8011	0.158	0.55564	0.06
Mof_C 	C 	0.812	0.199	0.53204	-0.099
Mof_C 	C 	0.7521	0.2256	0.51815	0.06
Mof_C 	C 	0.7544	0.2755	0.49444	0.067
Mof_C 	C 	0.8173	0.3011	0.48175	-0.124
Mof_C 	C 	0.8103	0.3503	0.46002	0.084
Mof_C 	C 	0.7415	0.3736	0.4523	-0.147
Mof_C 	C 	0.6814	0.3454	0.46549	0.119
Mof_C 	C 	0.7283	0.4281	0.42951	0.431
Mof_N 	N 	0.5332	0.7876	0.02208	-0.259
Mof_N 	N 	0.5874	0.8332	0.97626	-0.269
Mof_N 	N 	0.881	0.1653	0.97746	-0.259
Mof_N 	N 	0.9694	0.19	0.01859	-0.255
Mof_N 	N 	0.8663	0.6339	0.72793	-0.249
Mof_N 	N 	0.8958	0.7001	0.77495	-0.242
Mof_N 	N 	0.5179	0.8042	0.73507	-0.237
Mof_N 	N 	0.5426	0.8724	0.7824	-0.248
Mof_N 	N 	0.9935	0.5254	0.7336	-0.24
Mof_N 	N 	0.9097	0.5268	0.77731	-0.238
Mof_N 	N 	0.6834	0.7111	0.97327	-0.254
Mof_N 	N 	0.6872	0.7966	0.0145	-0.265
Mof_N 	N 	0.0332	0.2124	0.47792	-0.26
Mof_N 	N 	0.0874	0.1668	0.52374	-0.27
Mof_N 	N 	0.381	0.8347	0.52254	-0.259
Mof_N 	N 	0.4694	0.81	0.48141	-0.257
Mof_N 	N 	0.3663	0.3661	0.77207	-0.249
Mof_N 	N 	0.3958	0.2999	0.72505	-0.241
Mof_N 	N 	0.0179	0.1958	0.76493	-0.237
Mof_N 	N 	0.0426	0.1276	0.7176	-0.249
Mof_N 	N 	0.4935	0.4746	0.7664	-0.238
Mof_N 	N 	0.4097	0.4732	0.72269	-0.238
Mof_N 	N 	0.1834	0.2889	0.52673	-0.254
Mof_N 	N 	0.1872	0.2034	0.4855	-0.266
Mof_N 	N 	0.9668	0.2876	0.97792	-0.258
Mof_N 	N 	0.9126	0.3332	0.02374	-0.269
Mof_N 	N 	0.619	0.6653	0.02254	-0.259
Mof_N 	N 	0.5306	0.69	0.98141	-0.257
Mof_N 	N 	0.6337	0.1339	0.27207	-0.249
Mof_N 	N 	0.6042	0.2001	0.22505	-0.241
Mof_N 	N 	0.9821	0.3042	0.26493	-0.238
Mof_N 	N 	0.9574	0.3724	0.2176	-0.248
Mof_N 	N 	0.5065	0.0254	0.2664	-0.238
Mof_N 	N 	0.5903	0.0268	0.22269	-0.238
Mof_N 	N 	0.8166	0.2111	0.02673	-0.254
Mof_N 	N 	0.8128	0.2966	0.9855	-0.265
Mof_N 	N 	0.4668	0.7124	0.52208	-0.259
Mof_N 	N 	0.4126	0.6668	0.47626	-0.269
Mof_N 	N 	0.119	0.3347	0.47746	-0.259
Mof_N 	N 	0.0306	0.31	0.51859	-0.258
Mof_N 	N 	0.1337	0.8661	0.22793	-0.249
Mof_N 	N 	0.1042	0.7999	0.27495	-0.241
Mof_N 	N 	0.4821	0.6958	0.23507	-0.237
Mof_N 	N 	0.4574	0.6276	0.2824	-0.248
Mof_N 	N 	0.0065	0.9746	0.2336	-0.235
Mof_N 	N 	0.0903	0.9732	0.27731	-0.237
Mof_N 	N 	0.3166	0.7889	0.47327	-0.254
Mof_N 	N 	0.3128	0.7034	0.5145	-0.265
Mof_N 	N 	0.4668	0.2124	0.97792	-0.259
Mof_N 	N 	0.4126	0.1668	0.02374	-0.269
Mof_N 	N 	0.119	0.8347	0.02254	-0.259
Mof_N 	N 	0.0306	0.81	0.98141	-0.255
Mof_N 	N 	0.1337	0.3661	0.27207	-0.249
Mof_N 	N 	0.1042	0.2999	0.22505	-0.242
Mof_N 	N 	0.4821	0.1958	0.26493	-0.237
Mof_N 	N 	0.4574	0.1276	0.2176	-0.248
Mof_N 	N 	0.0065	0.4746	0.2664	-0.24
Mof_N 	N 	0.0903	0.4732	0.22269	-0.238
Mof_N 	N 	0.3166	0.2889	0.02673	-0.254
Mof_N 	N 	0.3128	0.2034	0.9855	-0.265
Mof_N 	N 	0.9668	0.7876	0.52208	-0.26
Mof_N 	N 	0.9126	0.8332	0.47626	-0.27
Mof_N 	N 	0.619	0.1653	0.47746	-0.259
Mof_N 	N 	0.5306	0.19	0.51859	-0.257
Mof_N 	N 	0.6337	0.6339	0.22793	-0.249
Mof_N 	N 	0.6042	0.7001	0.27495	-0.241
Mof_N 	N 	0.9821	0.8042	0.23507	-0.237
Mof_N 	N 	0.9574	0.8724	0.2824	-0.249
Mof_N 	N 	0.5065	0.5254	0.2336	-0.238
Mof_N 	N 	0.5903	0.5268	0.27731	-0.238
Mof_N 	N 	0.8166	0.7111	0.47327	-0.254
Mof_N 	N 	0.8128	0.7966	0.5145	-0.266
Mof_N 	N 	0.0332	0.7124	0.02208	-0.258
Mof_N 	N 	0.0874	0.6668	0.97626	-0.269
Mof_N 	N 	0.381	0.3347	0.97746	-0.259
Mof_N 	N 	0.4694	0.31	0.01859	-0.257
Mof_N 	N 	0.3663	0.8661	0.72793	-0.249
Mof_N 	N 	0.3958	0.7999	0.77495	-0.241
Mof_N 	N 	0.0179	0.6958	0.73507	-0.238
Mof_N 	N 	0.0426	0.6276	0.7824	-0.248
Mof_N 	N 	0.4935	0.9746	0.7336	-0.238
Mof_N 	N 	0.4097	0.9732	0.77731	-0.238
Mof_N 	N 	0.1834	0.7889	0.97327	-0.254
Mof_N 	N 	0.1872	0.7034	0.0145	-0.265
Mof_N 	N 	0.5332	0.2876	0.47792	-0.259
Mof_N 	N 	0.5874	0.3332	0.52374	-0.269
Mof_N 	N 	0.881	0.6653	0.52254	-0.259
Mof_N 	N 	0.9694	0.69	0.48141	-0.258
Mof_N 	N 	0.8663	0.1339	0.77207	-0.249
Mof_N 	N 	0.8958	0.2001	0.72505	-0.241
Mof_N 	N 	0.5179	0.3042	0.76493	-0.237
Mof_N 	N 	0.5426	0.3724	0.7176	-0.248
Mof_N 	N 	0.9935	0.0254	0.7664	-0.235
Mof_N 	N 	0.9097	0.0268	0.72269	-0.237
Mof_N 	N 	0.6834	0.2111	0.52673	-0.254
Mof_N 	N 	0.6872	0.2966	0.4855	-0.265
Mof_O 	O 	0.3909	0.7929	0.10349	-0.527
Mof_O 	O 	0.4479	0.6917	0.09121	-0.314
Mof_O 	O 	0.6365	0.0095	0.90832	-0.571
Mof_O 	O 	0.7123	0.9152	0.91394	-0.495
Mof_O 	O 	0.7318	0.1317	0.91147	-0.439
Mof_O 	O 	0.7969	0.0337	0.9008	-0.571
Mof_O 	O 	0.1144	0.2318	0.08538	-0.295
Mof_O 	O 	0.1316	0.1121	0.08657	-0.493
Mof_O 	O 	0.8686	0.8742	0.84586	-0.494
Mof_O 	O 	0.9335	0.7746	0.85284	-0.287
Mof_O 	O 	0.8164	0.5165	0.65722	-0.495
Mof_O 	O 	0.7296	0.5963	0.64686	-0.606
Mof_O 	O 	0.6943	0.9317	0.85712	-0.595
Mof_O 	O 	0.5975	0.0023	0.84948	-0.517
Mof_O 	O 	0.5837	0.6559	0.65953	-0.506
Mof_O 	O 	0.483	0.7236	0.65739	-0.291
Mof_O 	O 	0.7938	0.4374	0.85814	-0.401
Mof_O 	O 	0.7482	0.5319	0.83734	-0.403
Mof_O 	O 	0.1129	0.5457	0.66331	-0.428
Mof_O 	O 	0.0998	0.4327	0.65115	-0.392
Mof_O 	O 	0.7643	0.5847	0.89354	-0.366
Mof_O 	O 	0.6497	0.5813	0.90654	-0.414
Mof_O 	O 	0.7849	0.9472	0.08309	-0.496
Mof_O 	O 	0.6646	0.9472	0.07439	-0.291
Mof_O 	O 	0.768	0.8051	0.87947	-0.958
Mof_O 	O 	0.5659	0.4567	0.89635	-0.906
Mof_O 	O 	0.6713	0.3577	0.8728	-0.9
Mof_O 	O 	0.4882	0.9145	0.10778	-0.994
Mof_O 	O 	0.9346	0.9856	0.87562	-0.779
Mof_O 	O 	0.8909	0.2071	0.39651	-0.526
Mof_O 	O 	0.9479	0.3083	0.40879	-0.312
Mof_O 	O 	0.1365	0.9905	0.59168	-0.569
Mof_O 	O 	0.2123	0.0848	0.58606	-0.495
Mof_O 	O 	0.2318	0.8683	0.58853	-0.44
Mof_O 	O 	0.2969	0.9663	0.5992	-0.571
Mof_O 	O 	0.6144	0.7682	0.41462	-0.295
Mof_O 	O 	0.6316	0.8879	0.41343	-0.493
Mof_O 	O 	0.3686	0.1258	0.65414	-0.494
Mof_O 	O 	0.4335	0.2254	0.64716	-0.286
Mof_O 	O 	0.3164	0.4835	0.84278	-0.495
Mof_O 	O 	0.2296	0.4037	0.85314	-0.606
Mof_O 	O 	0.1943	0.0683	0.64288	-0.594
Mof_O 	O 	0.0975	0.9977	0.65052	-0.514
Mof_O 	O 	0.0837	0.3441	0.84047	-0.506
Mof_O 	O 	0.983	0.2764	0.84261	-0.29
Mof_O 	O 	0.2938	0.5626	0.64186	-0.401
Mof_O 	O 	0.2482	0.4681	0.66266	-0.403
Mof_O 	O 	0.6129	0.4543	0.83669	-0.428
Mof_O 	O 	0.5998	0.5673	0.84885	-0.392
Mof_O 	O 	0.2643	0.4153	0.60646	-0.366
Mof_O 	O 	0.1497	0.4187	0.59346	-0.414
Mof_O 	O 	0.2849	0.0528	0.41691	-0.496
Mof_O 	O 	0.1646	0.0528	0.42561	-0.292
Mof_O 	O 	0.268	0.1949	0.62053	-0.958
Mof_O 	O 	0.0659	0.5433	0.60365	-0.906
Mof_O 	O 	0.1713	0.6423	0.6272	-0.9
Mof_O 	O 	0.9882	0.0855	0.39222	-0.986
Mof_O 	O 	0.4346	0.0144	0.62438	-0.774
Mof_O 	O 	0.1091	0.2929	0.89651	-0.527
Mof_O 	O 	0.0521	0.1917	0.90879	-0.314
Mof_O 	O 	0.8635	0.5095	0.09168	-0.572
Mof_O 	O 	0.7877	0.4152	0.08606	-0.495
Mof_O 	O 	0.7682	0.6317	0.08853	-0.44
Mof_O 	O 	0.7031	0.5337	0.0992	-0.572
Mof_O 	O 	0.3856	0.7318	0.91462	-0.295
Mof_O 	O 	0.3684	0.6121	0.91343	-0.493
Mof_O 	O 	0.6314	0.3742	0.15414	-0.494
Mof_O 	O 	0.5665	0.2746	0.14716	-0.286
Mof_O 	O 	0.6836	0.0165	0.34278	-0.494
Mof_O 	O 	0.7704	0.0963	0.35314	-0.606
Mof_O 	O 	0.8057	0.4317	0.14288	-0.595
Mof_O 	O 	0.9025	0.5023	0.15052	-0.517
Mof_O 	O 	0.9163	0.1559	0.34047	-0.507
Mof_O 	O 	0.017	0.2236	0.34261	-0.295
Mof_O 	O 	0.7062	0.9374	0.14186	-0.4
Mof_O 	O 	0.7518	0.0319	0.16266	-0.401
Mof_O 	O 	0.3871	0.0457	0.33669	-0.428
Mof_O 	O 	0.4002	0.9327	0.34885	-0.391
Mof_O 	O 	0.7357	0.0847	0.10646	-0.365
Mof_O 	O 	0.8503	0.0813	0.09346	-0.412
Mof_O 	O 	0.7151	0.4472	0.91691	-0.496
Mof_O 	O 	0.8354	0.4472	0.92561	-0.291
Mof_O 	O 	0.732	0.3051	0.12053	-0.959
Mof_O 	O 	0.9341	0.9567	0.10365	-0.905
Mof_O 	O 	0.8287	0.8577	0.1272	-0.899
Mof_O 	O 	0.0118	0.4145	0.89222	-0.993
Mof_O 	O 	0.5654	0.4856	0.12438	-0.773
Mof_O 	O 	0.6091	0.7071	0.60349	-0.527
Mof_O 	O 	0.5521	0.8083	0.59121	-0.314
Mof_O 	O 	0.3635	0.4905	0.40832	-0.572
Mof_O 	O 	0.2877	0.5848	0.41394	-0.495
Mof_O 	O 	0.2682	0.3683	0.41147	-0.44
Mof_O 	O 	0.2031	0.4663	0.4008	-0.572
Mof_O 	O 	0.8856	0.2682	0.58538	-0.295
Mof_O 	O 	0.8684	0.3879	0.58657	-0.493
Mof_O 	O 	0.1314	0.6258	0.34586	-0.494
Mof_O 	O 	0.0665	0.7254	0.35284	-0.286
Mof_O 	O 	0.1836	0.9835	0.15722	-0.494
Mof_O 	O 	0.2704	0.9037	0.14686	-0.606
Mof_O 	O 	0.3057	0.5683	0.35712	-0.595
Mof_O 	O 	0.4025	0.4977	0.34948	-0.518
Mof_O 	O 	0.4163	0.8441	0.15953	-0.506
Mof_O 	O 	0.517	0.7764	0.15739	-0.291
Mof_O 	O 	0.2062	0.0626	0.35814	-0.401
Mof_O 	O 	0.2518	0.9681	0.33734	-0.401
Mof_O 	O 	0.8871	0.9543	0.16331	-0.43
Mof_O 	O 	0.9002	0.0673	0.15115	-0.391
Mof_O 	O 	0.2357	0.9153	0.39354	-0.365
Mof_O 	O 	0.3503	0.9187	0.40654	-0.413
Mof_O 	O 	0.2151	0.5528	0.58309	-0.496
Mof_O 	O 	0.3354	0.5528	0.57439	-0.291
Mof_O 	O 	0.232	0.6949	0.37947	-0.959
Mof_O 	O 	0.4341	0.0433	0.39635	-0.906
Mof_O 	O 	0.3287	0.1423	0.3728	-0.9
Mof_O 	O 	0.5118	0.5855	0.60778	-0.994
Mof_O 	O 	0.0654	0.5144	0.37562	-0.772
Mof_O 	O 	0.6091	0.2071	0.89651	-0.527
Mof_O 	O 	0.5521	0.3083	0.90879	-0.314
Mof_O 	O 	0.3635	0.9905	0.09168	-0.571
Mof_O 	O 	0.2877	0.0848	0.08606	-0.495
Mof_O 	O 	0.2682	0.8683	0.08853	-0.439
Mof_O 	O 	0.2031	0.9663	0.0992	-0.571
Mof_O 	O 	0.8856	0.7682	0.91462	-0.295
Mof_O 	O 	0.8684	0.8879	0.91343	-0.493
Mof_O 	O 	0.1314	0.1258	0.15414	-0.494
Mof_O 	O 	0.0665	0.2254	0.14716	-0.287
Mof_O 	O 	0.1836	0.4835	0.34278	-0.495
Mof_O 	O 	0.2704	0.4037	0.35314	-0.606
Mof_O 	O 	0.3057	0.0683	0.14288	-0.595
Mof_O 	O 	0.4025	0.9977	0.15052	-0.517
Mof_O 	O 	0.4163	0.3441	0.34047	-0.506
Mof_O 	O 	0.517	0.2764	0.34261	-0.291
Mof_O 	O 	0.2062	0.5626	0.14186	-0.401
Mof_O 	O 	0.2518	0.4681	0.16266	-0.403
Mof_O 	O 	0.8871	0.4543	0.33669	-0.428
Mof_O 	O 	0.9002	0.5673	0.34885	-0.392
Mof_O 	O 	0.2357	0.4153	0.10646	-0.366
Mof_O 	O 	0.3503	0.4187	0.09346	-0.414
Mof_O 	O 	0.2151	0.0528	0.91691	-0.496
Mof_O 	O 	0.3354	0.0528	0.92561	-0.291
Mof_O 	O 	0.232	0.1949	0.12053	-0.958
Mof_O 	O 	0.4341	0.5433	0.10365	-0.906
Mof_O 	O 	0.3287	0.6423	0.1272	-0.9
Mof_O 	O 	0.5118	0.0855	0.89222	-0.994
Mof_O 	O 	0.0654	0.0144	0.12438	-0.779
Mof_O 	O 	0.1091	0.7929	0.60349	-0.526
Mof_O 	O 	0.0521	0.6917	0.59121	-0.312
Mof_O 	O 	0.8635	0.0095	0.40832	-0.569
Mof_O 	O 	0.7877	0.9152	0.41394	-0.495
Mof_O 	O 	0.7682	0.1317	0.41147	-0.44
Mof_O 	O 	0.7031	0.0337	0.4008	-0.571
Mof_O 	O 	0.3856	0.2318	0.58538	-0.295
Mof_O 	O 	0.3684	0.1121	0.58657	-0.493
Mof_O 	O 	0.6314	0.8742	0.34586	-0.494
Mof_O 	O 	0.5665	0.7746	0.35284	-0.286
Mof_O 	O 	0.6836	0.5165	0.15722	-0.495
Mof_O 	O 	0.7704	0.5963	0.14686	-0.606
Mof_O 	O 	0.8057	0.9317	0.35712	-0.594
Mof_O 	O 	0.9025	0.0023	0.34948	-0.514
Mof_O 	O 	0.9163	0.6559	0.15953	-0.506
Mof_O 	O 	0.017	0.7236	0.15739	-0.29
Mof_O 	O 	0.7062	0.4374	0.35814	-0.401
Mof_O 	O 	0.7518	0.5319	0.33734	-0.403
Mof_O 	O 	0.3871	0.5457	0.16331	-0.428
Mof_O 	O 	0.4002	0.4327	0.15115	-0.392
Mof_O 	O 	0.7357	0.5847	0.39354	-0.366
Mof_O 	O 	0.8503	0.5813	0.40654	-0.414
Mof_O 	O 	0.7151	0.9472	0.58309	-0.496
Mof_O 	O 	0.8354	0.9472	0.57439	-0.292
Mof_O 	O 	0.732	0.8051	0.37947	-0.958
Mof_O 	O 	0.9341	0.4567	0.39635	-0.906
Mof_O 	O 	0.8287	0.3577	0.3728	-0.9
Mof_O 	O 	0.0118	0.9145	0.60778	-0.986
Mof_O 	O 	0.5654	0.9856	0.37562	-0.774
Mof_O 	O 	0.8909	0.7071	0.10349	-0.527
Mof_O 	O 	0.9479	0.8083	0.09121	-0.314
Mof_O 	O 	0.1365	0.4905	0.90832	-0.572
Mof_O 	O 	0.2123	0.5848	0.91394	-0.495
Mof_O 	O 	0.2318	0.3683	0.91147	-0.44
Mof_O 	O 	0.2969	0.4663	0.9008	-0.572
Mof_O 	O 	0.6144	0.2682	0.08538	-0.295
Mof_O 	O 	0.6316	0.3879	0.08657	-0.493
Mof_O 	O 	0.3686	0.6258	0.84586	-0.494
Mof_O 	O 	0.4335	0.7254	0.85284	-0.286
Mof_O 	O 	0.3164	0.9835	0.65722	-0.494
Mof_O 	O 	0.2296	0.9037	0.64686	-0.606
Mof_O 	O 	0.1943	0.5683	0.85712	-0.595
Mof_O 	O 	0.0975	0.4977	0.84948	-0.517
Mof_O 	O 	0.0837	0.8441	0.65953	-0.507
Mof_O 	O 	0.983	0.7764	0.65739	-0.295
Mof_O 	O 	0.2938	0.0626	0.85814	-0.4
Mof_O 	O 	0.2482	0.9681	0.83734	-0.401
Mof_O 	O 	0.6129	0.9543	0.66331	-0.428
Mof_O 	O 	0.5998	0.0673	0.65115	-0.391
Mof_O 	O 	0.2643	0.9153	0.89354	-0.365
Mof_O 	O 	0.1497	0.9187	0.90654	-0.412
Mof_O 	O 	0.2849	0.5528	0.08309	-0.496
Mof_O 	O 	0.1646	0.5528	0.07439	-0.291
Mof_O 	O 	0.268	0.6949	0.87947	-0.959
Mof_O 	O 	0.0659	0.0433	0.89635	-0.905
Mof_O 	O 	0.1713	0.1423	0.8728	-0.899
Mof_O 	O 	0.9882	0.5855	0.10778	-0.993
Mof_O 	O 	0.4346	0.5144	0.87562	-0.773
Mof_O 	O 	0.3909	0.2929	0.39651	-0.527
Mof_O 	O 	0.4479	0.1917	0.40879	-0.314
Mof_O 	O 	0.6365	0.5095	0.59168	-0.572
Mof_O 	O 	0.7123	0.4152	0.58606	-0.495
Mof_O 	O 	0.7318	0.6317	0.58853	-0.44
Mof_O 	O 	0.7969	0.5337	0.5992	-0.572
Mof_O 	O 	0.1144	0.7318	0.41462	-0.295
Mof_O 	O 	0.1316	0.6121	0.41343	-0.493
Mof_O 	O 	0.8686	0.3742	0.65414	-0.494
Mof_O 	O 	0.9335	0.2746	0.64716	-0.286
Mof_O 	O 	0.8164	0.0165	0.84278	-0.494
Mof_O 	O 	0.7296	0.0963	0.85314	-0.606
Mof_O 	O 	0.6943	0.4317	0.64288	-0.595
Mof_O 	O 	0.5975	0.5023	0.65052	-0.518
Mof_O 	O 	0.5837	0.1559	0.84047	-0.506
Mof_O 	O 	0.483	0.2236	0.84261	-0.291
Mof_O 	O 	0.7938	0.9374	0.64186	-0.401
Mof_O 	O 	0.7482	0.0319	0.66266	-0.401
Mof_O 	O 	0.1129	0.0457	0.83669	-0.43
Mof_O 	O 	0.0998	0.9327	0.84885	-0.391
Mof_O 	O 	0.7643	0.0847	0.60646	-0.365
Mof_O 	O 	0.6497	0.0813	0.59346	-0.413
Mof_O 	O 	0.7849	0.4472	0.41691	-0.496
Mof_O 	O 	0.6646	0.4472	0.42561	-0.291
Mof_O 	O 	0.768	0.3051	0.62053	-0.959
Mof_O 	O 	0.5659	0.9567	0.60365	-0.906
Mof_O 	O 	0.6713	0.8577	0.6272	-0.9
Mof_O 	O 	0.4882	0.4145	0.39222	-0.994
Mof_O 	O 	0.9346	0.4856	0.62438	-0.772
Mof_Cl	Cl	0.70491	0.99172	0.7614	-0.215
Mof_O 	O 	0.76116	0.01493	0.74376	-0.035
Mof_O 	O 	0.64011	0.03381	0.7596	-0.039
Mof_O 	O 	0.68028	0.92029	0.74937	-0.053
Mof_O 	O 	0.72558	0.97544	0.78883	-0.042
Mof_Cl	Cl	0.22504	0.49447	0.99222	-0.213
Mof_O 	O 	0.2539	0.5637	0.98517	-0.036
Mof_O 	O 	0.2096	0.4538	0.96749	-0.048
Mof_O 	O 	0.2767	0.4548	0.00782	-0.034
Mof_O 	O 	0.1591	0.504	0.00723	-0.045
Mof_Cl	Cl	0.20491	0.00828	0.7386	-0.216
Mof_O 	O 	0.26116	0.98507	0.75624	-0.034
Mof_O 	O 	0.14011	0.96619	0.7404	-0.037
Mof_O 	O 	0.18028	0.07971	0.75063	-0.053
Mof_O 	O 	0.22558	0.02456	0.71117	-0.042
Mof_Cl	Cl	0.72504	0.50553	0.50778	-0.213
Mof_O 	O 	0.7539	0.4363	0.51483	-0.036
Mof_O 	O 	0.7096	0.5462	0.53251	-0.048
Mof_O 	O 	0.7767	0.5452	0.49218	-0.034
Mof_O 	O 	0.6591	0.496	0.49277	-0.045
Mof_Cl	Cl	0.79509	0.49172	0.2386	-0.212
Mof_O 	O 	0.73884	0.51493	0.25624	-0.037
Mof_O 	O 	0.85989	0.53381	0.2404	-0.04
Mof_O 	O 	0.81972	0.42029	0.25063	-0.053
Mof_O 	O 	0.77442	0.47544	0.21117	-0.042
Mof_Cl	Cl	0.27496	0.99447	0.00778	-0.21
Mof_O 	O 	0.2461	0.0637	0.01483	-0.038
Mof_O 	O 	0.2904	0.9538	0.03251	-0.048
Mof_O 	O 	0.2233	0.9548	0.99218	-0.034
Mof_O 	O 	0.3409	0.004	0.99277	-0.047
Mof_Cl	Cl	0.29509	0.50828	0.2614	-0.212
Mof_O 	O 	0.23884	0.48507	0.24376	-0.037
Mof_O 	O 	0.35989	0.46619	0.2596	-0.04
Mof_O 	O 	0.31972	0.57971	0.24937	-0.053
Mof_O 	O 	0.27442	0.52456	0.28883	-0.042
Mof_Cl	Cl	0.77496	0.00553	0.49222	-0.209
Mof_O 	O 	0.7461	0.9363	0.48517	-0.038
Mof_O 	O 	0.7904	0.0462	0.46749	-0.048
Mof_O 	O 	0.7233	0.0452	0.50782	-0.034
Mof_O 	O 	0.8409	0.996	0.50723	-0.048
Mof_Cl	Cl	0.29509	0.00828	0.2386	-0.215
Mof_O 	O 	0.23884	0.98507	0.25624	-0.035
Mof_O 	O 	0.35989	0.96619	0.2404	-0.039
Mof_O 	O 	0.31972	0.07971	0.25063	-0.053
Mof_O 	O 	0.27442	0.02456	0.21117	-0.042
Mof_Cl	Cl	0.77496	0.50553	0.00778	-0.213
Mof_O 	O 	0.7461	0.4363	0.01483	-0.036
Mof_O 	O 	0.7904	0.5462	0.03251	-0.048
Mof_O 	O 	0.7233	0.5452	0.99218	-0.034
Mof_O 	O 	0.8409	0.496	0.99277	-0.045
Mof_Cl	Cl	0.79509	0.99172	0.2614	-0.216
Mof_O 	O 	0.73884	0.01493	0.24376	-0.034
Mof_O 	O 	0.85989	0.03381	0.2596	-0.037
Mof_O 	O 	0.81972	0.92029	0.24937	-0.053
Mof_O 	O 	0.77442	0.97544	0.28883	-0.042
Mof_Cl	Cl	0.27496	0.49447	0.49222	-0.213
Mof_O 	O 	0.2461	0.5637	0.48517	-0.036
Mof_O 	O 	0.2904	0.4538	0.46749	-0.048
Mof_O 	O 	0.2233	0.4548	0.50782	-0.034
Mof_O 	O 	0.3409	0.504	0.50723	-0.045
Mof_Cl	Cl	0.20491	0.50828	0.7614	-0.212
Mof_O 	O 	0.26116	0.48507	0.74376	-0.037
Mof_O 	O 	0.14011	0.46619	0.7596	-0.04
Mof_O 	O 	0.18028	0.57971	0.74937	-0.053
Mof_O 	O 	0.22558	0.52456	0.78883	-0.042
Mof_Cl	Cl	0.72504	0.00553	0.99222	-0.21
Mof_O 	O 	0.7539	0.9363	0.98517	-0.038
Mof_O 	O 	0.7096	0.0462	0.96749	-0.048
Mof_O 	O 	0.7767	0.0452	0.00782	-0.034
Mof_O 	O 	0.6591	0.996	0.00723	-0.047
Mof_Cl	Cl	0.70491	0.49172	0.7386	-0.212
Mof_O 	O 	0.76116	0.51493	0.75624	-0.037
Mof_O 	O 	0.64011	0.53381	0.7404	-0.04
Mof_O 	O 	0.68028	0.42029	0.75063	-0.053
Mof_O 	O 	0.72558	0.47544	0.71117	-0.042
Mof_Cl	Cl	0.22504	0.99447	0.50778	-0.209
Mof_O 	O 	0.2539	0.0637	0.51483	-0.038
Mof_O 	O 	0.2096	0.9538	0.53251	-0.048
Mof_O 	O 	0.2767	0.9548	0.49218	-0.034
Mof_O 	O 	0.1591	0.004	0.49277	-0.048
_end
