data_functionalizedCrystal
_audit_creation_method	'EQeq! by Chris Wilmer'
_symmetry_space_group_name_H-M	'P1'
_symmetry_Int_Tables_number	1
_symmetry_cell_setting	triclinic
loop_
_symmetry_equiv_pos_as_xyz
  x,y,z
_cell_length_a	12.711
_cell_length_b	24.3
_cell_length_c	15.085
_cell_angle_alpha	90
_cell_angle_beta	92.506
_cell_angle_gamma	90
loop_
_atom_site_label
_atom_site_type_symbol
_atom_site_fract_x
_atom_site_fract_y
_atom_site_fract_z
_atom_site_charge
Mof_Cd	Cd	0.96281	0.13416	0.55485	0.388
Mof_Cd	Cd	0.49703	0.13971	0.27898	0.391
Mof_Cd	Cd	0.95838	0.12973	0.82682	0.379
Mof_Cd	Cd	0.51027	0.13387	0.00664	0.383
Mof_N 	N 	0.9125	0.5667	0.1857	-0.145
Mof_O 	O 	0.0738	0.20195	0.8027	-0.25
Mof_N 	N 	0.1705	0.69578	0.4459	-0.145
Mof_N 	N 	0.3814	0.07087	0.0228	-0.146
Mof_O 	O 	0.3983	0.20482	0.0413	-0.258
Mof_N 	N 	0.3655	0.70008	0.712	-0.145
Mof_N 	N 	0.0961	0.07233	0.5582	-0.147
Mof_N 	N 	0.6457	0.19427	0.0299	-0.149
Mof_N 	N 	0.172	0.69283	0.1849	-0.145
Mof_O 	O 	0.5095	0.12218	0.44649	-0.268
Mof_C 	C 	0.9972	0.12382	0.0457	0.263
Mof_N 	N 	0.248	0.77648	0.4268	-0.137
Mof_O 	O 	0.0084	0.147	0.97306	-0.264
Mof_O 	O 	0.42	0.19211	0.3939	-0.258
Mof_C 	C 	0.7548	0.32439	0.0997	0.095
Mof_C 	C 	0.3648	0.21617	0.1159	0.223
Mof_C 	C 	0.3714	0.75267	0.6906	0.103
Mof_H 	H 	0.4344	0.7719	0.6872	0.004
Mof_C 	C 	0.4498	0.1621	0.4563	0.273
Mof_C 	C 	0.2714	0.6893	0.2196	0.009
Mof_H 	H 	0.301	0.6581	0.2461	0.036
Mof_C 	C 	0.4717	0.1363	0.7892	0.258
Mof_N 	N 	0.2489	0.77375	0.1697	-0.134
Mof_O 	O 	0.9517	0.11277	0.38837	-0.264
Mof_C 	C 	0.7997	0.43236	0.1478	0.092
Mof_O 	O 	0.0432	0.1832	0.4429	-0.251
Mof_C 	C 	0.0077	0.1383	0.2126	-0.076
Mof_H 	H 	0.9595	0.11	0.2195	0.075
Mof_C 	C 	0.4223	0.16188	0.7066	0.018
Mof_C 	C 	0.1539	0.22237	0.1936	0.225
Mof_O 	O 	0.0601	0.19602	0.6534	-0.246
Mof_C 	C 	0.638	0.24656	0.051	0.104
Mof_H 	H 	0.5748	0.2658	0.0503	0
Mof_N 	N 	0.2942	0.99565	0.3149	-0.126
Mof_C 	C 	0.3847	0.02399	0.3114	0.091
Mof_H 	H 	0.4502	0.0099	0.3295	-0.003
Mof_C 	C 	0.0105	0.15297	0.3785	0.258
Mof_C 	C 	0.2508	0.83079	0.6482	0.096
Mof_C 	C 	0.3014	0.22759	0.6396	0.226
Mof_O 	O 	0.4555	0.15765	0.86302	-0.259
Mof_C 	C 	0.7482	0.1823	0.0397	0.012
Mof_H 	H 	0.7767	0.1477	0.0298	0.034
Mof_C 	C 	0.2607	0.83186	0.3991	0.091
Mof_C 	C 	0.3938	0.02004	0.0515	0.091
Mof_H 	H 	0.4594	0.0039	0.0627	-0.011
Mof_N 	N 	0.3704	0.07375	0.2797	-0.144
Mof_N 	N 	0.3035	0.99398	0.0627	-0.128
Mof_C 	C 	0.4585	0.1489	0.6226	-0.079
Mof_H 	H 	0.511	0.1226	0.6164	0.076
Mof_C 	C 	0.093	0.21717	0.7253	0.208
Mof_O 	O 	0.9486	0.07848	0.0551	-0.246
Mof_C 	C 	0.1148	0.19416	0.1195	-0.174
Mof_H 	H 	0.1375	0.2035	0.0637	0.111
Mof_O 	O 	0.3878	0.19398	0.1873	-0.256
Mof_O 	O 	0.2245	0.26506	0.1893	-0.265
Mof_O 	O 	0.2246	0.2678	0.64384	-0.258
Mof_N 	N 	0.2757	0.77536	0.6742	-0.137
Mof_C 	C 	0.2836	0.94048	0.3438	0.095
Mof_N 	N 	0.7332	0.26928	0.0741	-0.136
Mof_C 	C 	0.0461	0.16745	0.2871	0.013
Mof_C 	C 	0.1752	0.8674	0.3995	-0.074
Mof_H 	H 	0.1107	0.855	0.4183	0.054
Mof_C 	C 	0.2648	0.8303	0.1448	0.089
Mof_C 	C 	0.2908	0.26616	0.1156	0.225
Mof_H 	H 	0.2473	0.2665	0.0604	-0.027
Mof_C 	C 	0.0918	0.02103	0.5838	0.094
Mof_H 	H 	0.0318	0.005	0.6056	-0.008
Mof_C 	C 	0.3693	0.9057	0.3477	-0.078
Mof_H 	H 	0.4347	0.9185	0.3317	0.064
Mof_C 	C 	0.8545	0.3446	0.0968	-0.078
Mof_H 	H 	0.9076	0.322	0.0771	0.065
Mof_O 	O 	0.5286	0.09388	0.7802	-0.244
Mof_C 	C 	0.0937	0.32014	0.7145	-0.68
Mof_H 	H 	0.1387	0.3518	0.7116	0.24
Mof_H 	H 	0.052	0.3228	0.7658	0.234
Mof_H 	H 	0.0483	0.3186	0.662	0.244
Mof_C 	C 	0.699	0.41243	0.1493	-0.076
Mof_H 	H 	0.6448	0.4356	0.1652	0.062
Mof_C 	C 	0.1607	0.26829	0.7208	0.21
Mof_H 	H 	0.2069	0.2703	0.7744	-0.021
Mof_C 	C 	0.1863	0.922	0.3716	-0.077
Mof_H 	H 	0.1291	0.9459	0.3715	0.066
Mof_N 	N 	0.1826	0.99392	0.5755	-0.128
Mof_N 	N 	0.8225	0.48826	0.1723	-0.137
Mof_C 	C 	0.1186	0.20959	0.2776	-0.166
Mof_H 	H 	0.1437	0.2293	0.327	0.119
Mof_C 	C 	0.2909	0.93863	0.0922	0.1
Mof_C 	C 	0.3432	0.20004	0.7146	-0.176
Mof_H 	H 	0.3174	0.2075	0.7701	0.113
Mof_C 	C 	0.0407	0.15127	0.1278	0.008
Mof_C 	C 	0.2757	0.6915	0.4729	0
Mof_H 	H 	0.308	0.6598	0.4956	0.044
Mof_C 	C 	0.4142	0.1762	0.5482	0.014
Mof_C 	C 	0.2065	0.93886	0.6002	0.095
Mof_C 	C 	0.3303	0.8652	0.6218	-0.076
Mof_H 	H 	0.3986	0.8519	0.6189	0.062
Mof_C 	C 	0.6772	0.3591	0.1277	-0.071
Mof_H 	H 	0.6089	0.3458	0.1319	0.051
Mof_C 	C 	0.2162	0.0302	0.2813	-0.009
Mof_H 	H 	0.1445	0.0226	0.2746	0.038
Mof_C 	C 	0.3227	0.73857	0.21	0.007
Mof_H 	H 	0.3922	0.7467	0.2269	0.038
Mof_C 	C 	0.9147	0.51464	0.1597	0.093
Mof_H 	H 	0.9729	0.4981	0.1357	-0.001
Mof_C 	C 	0.3367	0.2156	0.5572	-0.173
Mof_H 	H 	0.3087	0.2339	0.5074	0.122
Mof_C 	C 	0.1945	0.9209	0.1168	-0.083
Mof_H 	H 	0.1379	0.9452	0.1167	0.068
Mof_C 	C 	0.1578	0.74671	0.4188	0.105
Mof_H 	H 	0.094	0.7609	0.3965	0.003
Mof_C 	C 	0.362	0.8488	0.1225	-0.072
Mof_H 	H 	0.4197	0.8252	0.1258	0.061
Mof_C 	C 	0.2656	0.0775	0.2599	0.019
Mof_H 	H 	0.2322	0.1082	0.2351	0.044
Mof_C 	C 	0.3245	0.7404	0.4611	0.01
Mof_H 	H 	0.3952	0.7483	0.4734	0.037
Mof_C 	C 	0.2729	0.0777	0.0121	0.009
Mof_H 	H 	0.2386	0.1093	0.9913	0.049
Mof_C 	C 	0.2257	0.0306	0.0372	-0.002
Mof_H 	H 	0.1535	0.0241	0.0371	0.041
Mof_C 	C 	0.759	0.5254	0.2094	0.016
Mof_H 	H 	0.6907	0.5192	0.2268	0.037
Mof_C 	C 	0.2027	0.7335	0.6839	0.009
Mof_H 	H 	0.1298	0.7362	0.6773	0.039
Mof_C 	C 	0.2599	0.6876	0.7052	0.005
Mof_H 	H 	0.2316	0.6528	0.7139	0.036
Mof_C 	C 	0.3582	0.8513	0.3755	-0.073
Mof_H 	H 	0.4164	0.828	0.3782	0.063
Mof_C 	C 	0.193	0.0792	0.5303	0.026
Mof_H 	H 	0.2187	0.1118	0.5073	0.042
Mof_C 	C 	0.1813	0.8658	0.1421	-0.068
Mof_H 	H 	0.1152	0.8534	0.1572	0.05
Mof_C 	C 	0.3553	0.3185	0.1222	-0.704
Mof_H 	H 	0.309	0.3497	0.1218	0.247
Mof_H 	H 	0.4	0.3207	0.0727	0.241
Mof_H 	H 	0.3978	0.3182	0.1764	0.251
Mof_C 	C 	0.3088	0.9193	0.5997	-0.074
Mof_H 	H 	0.3632	0.9426	0.5845	0.066
Mof_C 	C 	0.1279	0.904	0.6231	-0.075
Mof_H 	H 	0.0587	0.9165	0.6222	0.062
Mof_C 	C 	0.3739	0.90236	0.0954	-0.08
Mof_H 	H 	0.4397	0.9143	0.0788	0.06
Mof_C 	C 	0.2493	0.0316	0.5402	-0.012
Mof_H 	H 	0.3188	0.0259	0.5258	0.042
Mof_C 	C 	0.8126	0.5733	0.2169	0.004
Mof_H 	H 	0.7862	0.6059	0.2395	0.046
Mof_C 	C 	0.1504	0.85	0.6479	-0.078
Mof_H 	H 	0.0963	0.8269	0.6644	0.067
Mof_C 	C 	0.8784	0.3972	0.1221	-0.072
Mof_H 	H 	0.9477	0.4095	0.122	0.059
Mof_C 	C 	0.8056	0.2272	0.0661	0.002
Mof_H 	H 	0.8782	0.2292	0.0766	0.04
Mof_C 	C 	0.1598	0.74479	0.1545	0.096
Mof_H 	H 	0.0985	0.7586	0.127	0.007
Mof_Cd	Cd	0.03719	0.63416	0.44515	0.388
Mof_Cd	Cd	0.50297	0.63971	0.72102	0.392
Mof_Cd	Cd	0.04162	0.62973	0.17318	0.38
Mof_Cd	Cd	0.48973	0.63387	0.99336	0.384
Mof_N 	N 	0.0875	0.0667	0.8143	-0.141
Mof_O 	O 	0.9262	0.70195	0.1973	-0.249
Mof_N 	N 	0.8295	0.19578	0.5541	-0.145
Mof_N 	N 	0.6186	0.57087	0.9772	-0.146
Mof_O 	O 	0.6017	0.70482	0.9587	-0.258
Mof_N 	N 	0.6345	0.20008	0.288	-0.145
Mof_N 	N 	0.9039	0.57233	0.4418	-0.148
Mof_N 	N 	0.3543	0.69427	0.9701	-0.149
Mof_N 	N 	0.828	0.19283	0.8151	-0.145
Mof_O 	O 	0.4905	0.62218	0.55351	-0.267
Mof_C 	C 	0.0028	0.62382	0.9543	0.261
Mof_N 	N 	0.752	0.27648	0.5732	-0.137
Mof_O 	O 	0.9916	0.647	0.02694	-0.263
Mof_O 	O 	0.58	0.69211	0.6061	-0.258
Mof_C 	C 	0.2452	0.82439	0.9003	0.095
Mof_C 	C 	0.6352	0.71617	0.8841	0.223
Mof_C 	C 	0.6286	0.25267	0.3094	0.103
Mof_H 	H 	0.5656	0.2719	0.3128	0.004
Mof_C 	C 	0.5502	0.6621	0.5437	0.272
Mof_C 	C 	0.7286	0.1893	0.7804	0.009
Mof_H 	H 	0.699	0.1581	0.7539	0.035
Mof_C 	C 	0.5283	0.6363	0.2108	0.257
Mof_N 	N 	0.7511	0.27375	0.8303	-0.134
Mof_O 	O 	0.0483	0.61277	0.61163	-0.262
Mof_C 	C 	0.2003	0.93236	0.8522	0.092
Mof_O 	O 	0.9568	0.6832	0.5571	-0.251
Mof_C 	C 	0.9923	0.6383	0.7874	-0.077
Mof_H 	H 	0.0405	0.61	0.7805	0.076
Mof_C 	C 	0.5777	0.66188	0.2934	0.019
Mof_C 	C 	0.8461	0.72237	0.8064	0.226
Mof_O 	O 	0.9399	0.69602	0.3466	-0.245
Mof_C 	C 	0.362	0.74656	0.949	0.104
Mof_H 	H 	0.4252	0.7658	0.9497	0
Mof_N 	N 	0.7058	0.49565	0.6851	-0.138
Mof_C 	C 	0.6153	0.52399	0.6886	0.102
Mof_H 	H 	0.5498	0.5099	0.6705	-0.003
Mof_C 	C 	0.9895	0.65297	0.6215	0.258
Mof_C 	C 	0.7492	0.33079	0.3518	0.097
Mof_C 	C 	0.6986	0.72759	0.3604	0.227
Mof_O 	O 	0.5445	0.65765	0.13698	-0.258
Mof_C 	C 	0.2518	0.6823	0.9603	0.012
Mof_H 	H 	0.2233	0.6477	0.9702	0.035
Mof_C 	C 	0.7393	0.33186	0.6009	0.092
Mof_C 	C 	0.6062	0.52004	0.9485	0.103
Mof_H 	H 	0.5406	0.5039	0.9373	-0.011
Mof_N 	N 	0.6296	0.57375	0.7203	-0.145
Mof_N 	N 	0.6965	0.49398	0.9373	-0.14
Mof_C 	C 	0.5415	0.6489	0.3774	-0.08
Mof_H 	H 	0.489	0.6226	0.3836	0.077
Mof_C 	C 	0.907	0.71717	0.2747	0.207
Mof_O 	O 	0.0514	0.57848	0.9449	-0.243
Mof_C 	C 	0.8852	0.69416	0.8805	-0.175
Mof_H 	H 	0.8625	0.7035	0.9363	0.111
Mof_O 	O 	0.6122	0.69398	0.8127	-0.256
Mof_O 	O 	0.7755	0.76506	0.8107	-0.265
Mof_O 	O 	0.7754	0.7678	0.35616	-0.258
Mof_N 	N 	0.7243	0.27536	0.3258	-0.137
Mof_C 	C 	0.7164	0.44048	0.6562	0.093
Mof_N 	N 	0.2668	0.76928	0.9259	-0.137
Mof_C 	C 	0.9539	0.66745	0.7129	0.014
Mof_C 	C 	0.8248	0.3674	0.6005	-0.075
Mof_H 	H 	0.8893	0.355	0.5817	0.055
Mof_C 	C 	0.7352	0.3303	0.8552	0.089
Mof_C 	C 	0.7092	0.76616	0.8844	0.227
Mof_H 	H 	0.7527	0.7665	0.9396	-0.027
Mof_C 	C 	0.9082	0.52103	0.4162	0.104
Mof_H 	H 	0.9682	0.505	0.3944	-0.008
Mof_C 	C 	0.6307	0.4057	0.6523	-0.077
Mof_H 	H 	0.5653	0.4185	0.6683	0.061
Mof_C 	C 	0.1455	0.8446	0.9032	-0.078
Mof_H 	H 	0.0924	0.822	0.9229	0.065
Mof_O 	O 	0.4714	0.59388	0.2198	-0.242
Mof_C 	C 	0.9063	0.82014	0.2855	-0.685
Mof_H 	H 	0.8613	0.8518	0.2884	0.243
Mof_H 	H 	0.948	0.8228	0.2342	0.236
Mof_H 	H 	0.9517	0.8186	0.338	0.246
Mof_C 	C 	0.301	0.91243	0.8507	-0.075
Mof_H 	H 	0.3552	0.9356	0.8348	0.065
Mof_C 	C 	0.8393	0.76829	0.2792	0.212
Mof_H 	H 	0.7931	0.7703	0.2256	-0.021
Mof_C 	C 	0.8137	0.422	0.6284	-0.077
Mof_H 	H 	0.8709	0.4459	0.6285	0.063
Mof_N 	N 	0.8174	0.49392	0.4245	-0.138
Mof_N 	N 	0.1775	0.98826	0.8277	-0.123
Mof_C 	C 	0.8814	0.70959	0.7224	-0.166
Mof_H 	H 	0.8563	0.7293	0.673	0.12
Mof_C 	C 	0.7091	0.43863	0.9078	0.098
Mof_C 	C 	0.6568	0.70004	0.2854	-0.177
Mof_H 	H 	0.6826	0.7075	0.2299	0.113
Mof_C 	C 	0.9593	0.65127	0.8722	0.009
Mof_C 	C 	0.7243	0.1915	0.5271	0
Mof_H 	H 	0.692	0.1598	0.5044	0.044
Mof_C 	C 	0.5858	0.6762	0.4518	0.015
Mof_C 	C 	0.7935	0.43886	0.3998	0.094
Mof_C 	C 	0.6697	0.3652	0.3782	-0.077
Mof_H 	H 	0.6014	0.3519	0.3811	0.062
Mof_C 	C 	0.3228	0.8591	0.8723	-0.071
Mof_H 	H 	0.3911	0.8458	0.8681	0.051
Mof_C 	C 	0.7838	0.5302	0.7187	0.004
Mof_H 	H 	0.8555	0.5226	0.7254	0.037
Mof_C 	C 	0.6773	0.23857	0.79	0.007
Mof_H 	H 	0.6078	0.2467	0.7731	0.038
Mof_C 	C 	0.0853	0.01464	0.8403	0.066
Mof_H 	H 	0.0271	0.9981	0.8643	0.016
Mof_C 	C 	0.6633	0.7156	0.4428	-0.173
Mof_H 	H 	0.6913	0.7339	0.4926	0.122
Mof_C 	C 	0.8055	0.4209	0.8832	-0.082
Mof_H 	H 	0.8621	0.4452	0.8833	0.065
Mof_C 	C 	0.8422	0.24671	0.5812	0.105
Mof_H 	H 	0.906	0.2609	0.6035	0.003
Mof_C 	C 	0.638	0.3488	0.8775	-0.073
Mof_H 	H 	0.5803	0.3252	0.8742	0.061
Mof_C 	C 	0.7344	0.5775	0.7401	0.015
Mof_H 	H 	0.7678	0.6082	0.7649	0.045
Mof_C 	C 	0.6755	0.2404	0.5389	0.009
Mof_H 	H 	0.6048	0.2483	0.5266	0.037
Mof_C 	C 	0.7271	0.5777	0.9879	0.004
Mof_H 	H 	0.7614	0.6093	0.0087	0.051
Mof_C 	C 	0.7743	0.5306	0.9628	0.012
Mof_H 	H 	0.8465	0.5241	0.9629	0.039
Mof_C 	C 	0.241	0.0254	0.7906	0.003
Mof_H 	H 	0.3093	0.0192	0.7732	0.038
Mof_C 	C 	0.7973	0.2335	0.3161	0.009
Mof_H 	H 	0.8702	0.2362	0.3227	0.039
Mof_C 	C 	0.7401	0.1876	0.2948	0.005
Mof_H 	H 	0.7684	0.1528	0.2861	0.035
Mof_C 	C 	0.6418	0.3513	0.6245	-0.074
Mof_H 	H 	0.5836	0.328	0.6218	0.063
Mof_C 	C 	0.807	0.5792	0.4697	0.022
Mof_H 	H 	0.7813	0.6118	0.4927	0.044
Mof_C 	C 	0.8187	0.3658	0.8579	-0.069
Mof_H 	H 	0.8848	0.3534	0.8428	0.05
Mof_C 	C 	0.6447	0.8185	0.8778	-0.708
Mof_H 	H 	0.691	0.8497	0.8782	0.249
Mof_H 	H 	0.6	0.8207	0.9273	0.242
Mof_H 	H 	0.6022	0.8182	0.8236	0.252
Mof_C 	C 	0.6912	0.4193	0.4003	-0.074
Mof_H 	H 	0.6368	0.4426	0.4155	0.063
Mof_C 	C 	0.8721	0.404	0.3769	-0.075
Mof_H 	H 	0.9413	0.4165	0.3778	0.06
Mof_C 	C 	0.6261	0.40236	0.9046	-0.08
Mof_H 	H 	0.5603	0.4143	0.9212	0.057
Mof_C 	C 	0.7507	0.5316	0.4598	-0
Mof_H 	H 	0.6812	0.5259	0.4742	0.041
Mof_C 	C 	0.1874	0.0733	0.7831	0.009
Mof_H 	H 	0.2138	0.1059	0.7605	0.044
Mof_C 	C 	0.8496	0.35	0.3521	-0.078
Mof_H 	H 	0.9037	0.3269	0.3356	0.067
Mof_C 	C 	0.1216	0.8972	0.8779	-0.071
Mof_H 	H 	0.0523	0.9095	0.878	0.059
Mof_C 	C 	0.1944	0.7272	0.9339	0.002
Mof_H 	H 	0.1218	0.7292	0.9234	0.04
Mof_C 	C 	0.8402	0.24479	0.8455	0.096
Mof_H 	H 	0.9015	0.2586	0.873	0.007
_end
