data_functionalizedCrystal
_audit_creation_method	'EQeq! by Chris Wilmer'
_symmetry_space_group_name_H-M	'P1'
_symmetry_Int_Tables_number	1
_symmetry_cell_setting	triclinic
loop_
_symmetry_equiv_pos_as_xyz
  x,y,z
_cell_length_a	13.5779
_cell_length_b	16.9882
_cell_length_c	9.6192
_cell_angle_alpha	90
_cell_angle_beta	90
_cell_angle_gamma	90
loop_
_atom_site_label
_atom_site_type_symbol
_atom_site_fract_x
_atom_site_fract_y
_atom_site_fract_z
_atom_site_charge
Mof_O 	O 	0.60181	0.58433	0.3847	-0.269
Mof_C 	C 	0.72	0.71693	0.6275	-0.17
Mof_H 	H 	0.6986	0.6946	0.713	0.318
Mof_H 	H 	0.441	0.3913	0.1142	-1.673
Mof_C 	C 	0.4127	0.4591	0.0799	-0.496
Mof_H 	H 	0.3525	0.4855	0.1143	-0.056
Mof_H 	H 	0.4122	0.4041	0.1143	1.706
Mof_O 	O 	0.10181	0.08433	0.3847	-0.739
Mof_C 	C 	0.22	0.21693	0.6275	-0.672
Mof_H 	H 	0.1986	0.1946	0.713	0.322
Mof_H 	H 	0.941	0.8913	0.1142	-46.955
Mof_C 	C 	0.9127	0.9591	0.0799	-12.139
Mof_H 	H 	0.8525	0.9855	0.1143	1.04
Mof_H 	H 	0.9122	0.9041	0.1143	50.07
Mof_O 	O 	0.39819	0.41567	0.3847	-0.66
Mof_C 	C 	0.28	0.28307	0.6275	0.151
Mof_H 	H 	0.3014	0.3054	0.713	-0.211
Mof_H 	H 	0.559	0.6087	0.1142	1.78
Mof_C 	C 	0.5873	0.5409	0.0799	0.495
Mof_H 	H 	0.6475	0.5145	0.1143	0.111
Mof_H 	H 	0.5878	0.5959	0.1143	-1.729
Mof_O 	O 	0.89819	0.91567	0.3847	0.677
Mof_C 	C 	0.78	0.78307	0.6275	0.663
Mof_H 	H 	0.8014	0.8054	0.713	-0.273
Mof_H 	H 	0.059	0.1087	0.1142	28.257
Mof_C 	C 	0.0873	0.0409	0.0799	6.875
Mof_H 	H 	0.1475	0.0145	0.1143	0.046
Mof_H 	H 	0.0878	0.0959	0.1143	-29.987
Mof_O 	O 	0.39819	0.58433	0.6153	-0.661
Mof_C 	C 	0.28	0.71693	0.3725	0.154
Mof_H 	H 	0.3014	0.6946	0.287	-0.213
Mof_H 	H 	0.559	0.3913	0.8858	1.781
Mof_C 	C 	0.5873	0.4591	0.9201	0.493
Mof_H 	H 	0.6475	0.4855	0.8857	0.114
Mof_H 	H 	0.5878	0.4041	0.8857	-1.729
Mof_O 	O 	0.89819	0.08433	0.6153	0.684
Mof_C 	C 	0.78	0.21693	0.3725	0.67
Mof_H 	H 	0.8014	0.1946	0.287	-0.281
Mof_H 	H 	0.059	0.8913	0.8858	27.603
Mof_C 	C 	0.0873	0.9591	0.9201	7.078
Mof_H 	H 	0.1475	0.9855	0.8857	-1.294
Mof_H 	H 	0.0878	0.9041	0.8857	-29.386
Mof_O 	O 	0.60181	0.41567	0.6153	-0.27
Mof_C 	C 	0.72	0.28307	0.3725	-0.175
Mof_H 	H 	0.6986	0.3054	0.287	0.319
Mof_H 	H 	0.441	0.6087	0.8858	-1.676
Mof_C 	C 	0.4127	0.5409	0.9201	-0.495
Mof_H 	H 	0.3525	0.5145	0.8857	-0.059
Mof_H 	H 	0.4122	0.5959	0.8857	1.706
Mof_O 	O 	0.10181	0.91567	0.6153	-0.76
Mof_C 	C 	0.22	0.78307	0.3725	-0.679
Mof_H 	H 	0.1986	0.8054	0.287	0.328
Mof_H 	H 	0.941	0.1087	0.8858	-46.567
Mof_C 	C 	0.9127	0.0409	0.9201	-12.251
Mof_H 	H 	0.8525	0.0145	0.8857	1.92
Mof_H 	H 	0.9122	0.0959	0.8857	49.708
Mof_O 	O 	0.39819	0.41567	0.6153	-0.66
Mof_C 	C 	0.28	0.28307	0.3725	0.151
Mof_H 	H 	0.3014	0.3054	0.287	-0.211
Mof_H 	H 	0.559	0.6087	0.8858	1.78
Mof_C 	C 	0.5873	0.5409	0.9201	0.495
Mof_H 	H 	0.6475	0.5145	0.8857	0.111
Mof_H 	H 	0.5878	0.5959	0.8857	-1.729
Mof_O 	O 	0.89819	0.91567	0.6153	0.677
Mof_C 	C 	0.78	0.78307	0.3725	0.663
Mof_H 	H 	0.8014	0.8054	0.287	-0.273
Mof_H 	H 	0.059	0.1087	0.8858	28.257
Mof_C 	C 	0.0873	0.0409	0.9201	6.875
Mof_H 	H 	0.1475	0.0145	0.8857	0.046
Mof_H 	H 	0.0878	0.0959	0.8857	-29.987
Mof_O 	O 	0.60181	0.58433	0.6153	-0.27
Mof_C 	C 	0.72	0.71693	0.3725	-0.171
Mof_H 	H 	0.6986	0.6946	0.287	0.317
Mof_H 	H 	0.441	0.3913	0.8858	-1.674
Mof_C 	C 	0.4127	0.4591	0.9201	-0.497
Mof_H 	H 	0.3525	0.4855	0.8857	-0.057
Mof_H 	H 	0.4122	0.4041	0.8857	1.705
Mof_O 	O 	0.10181	0.08433	0.6153	-0.74
Mof_C 	C 	0.22	0.21693	0.3725	-0.672
Mof_H 	H 	0.1986	0.1946	0.287	0.322
Mof_H 	H 	0.941	0.8913	0.8858	-46.955
Mof_C 	C 	0.9127	0.9591	0.9201	-12.139
Mof_H 	H 	0.8525	0.9855	0.8857	1.04
Mof_H 	H 	0.9122	0.9041	0.8857	50.07
Mof_O 	O 	0.60181	0.41567	0.3847	-0.27
Mof_C 	C 	0.72	0.28307	0.6275	-0.175
Mof_H 	H 	0.6986	0.3054	0.713	0.319
Mof_H 	H 	0.441	0.6087	0.1142	-1.676
Mof_C 	C 	0.4127	0.5409	0.0799	-0.495
Mof_H 	H 	0.3525	0.5145	0.1143	-0.059
Mof_H 	H 	0.4122	0.5959	0.1143	1.706
Mof_O 	O 	0.10181	0.91567	0.3847	-0.76
Mof_C 	C 	0.22	0.78307	0.6275	-0.679
Mof_H 	H 	0.1986	0.8054	0.713	0.328
Mof_H 	H 	0.941	0.1087	0.1142	-46.567
Mof_C 	C 	0.9127	0.0409	0.0799	-12.251
Mof_H 	H 	0.8525	0.0145	0.1143	1.92
Mof_H 	H 	0.9122	0.0959	0.1143	49.708
Mof_O 	O 	0.39819	0.58433	0.3847	-0.661
Mof_C 	C 	0.28	0.71693	0.6275	0.154
Mof_H 	H 	0.3014	0.6946	0.713	-0.213
Mof_H 	H 	0.559	0.3913	0.1142	1.781
Mof_C 	C 	0.5873	0.4591	0.0799	0.493
Mof_H 	H 	0.6475	0.4855	0.1143	0.114
Mof_H 	H 	0.5878	0.4041	0.1143	-1.729
Mof_O 	O 	0.89819	0.08433	0.3847	0.684
Mof_C 	C 	0.78	0.21693	0.6275	0.67
Mof_H 	H 	0.8014	0.1946	0.713	-0.281
Mof_H 	H 	0.059	0.8913	0.1142	27.603
Mof_C 	C 	0.0873	0.9591	0.0799	7.078
Mof_H 	H 	0.1475	0.9855	0.1143	-1.294
Mof_H 	H 	0.0878	0.9041	0.1143	-29.386
Mof_Zn	Zn	0.5	0.5	0.34787	1.217
Mof_N 	N 	0.5	0.5	0.1338	-0.195
Mof_Zn	Zn	3.7683e-33	0	0.34787	-0.168
Mof_N 	N 	1.06647e-33	-7.11069e-34	0.1338	-1.925
Mof_Zn	Zn	0.5	0.5	0.65213	1.217
Mof_N 	N 	0.5	0.5	0.8662	-0.195
Mof_Zn	Zn	1.73222e-33	0	0.65213	-0.168
Mof_N 	N 	-3.38771e-33	0	0.8662	-1.925
Mof_C 	C 	0.6266	0.61112	0.5	0.41
Mof_C 	C 	0.6906	0.68297	0.5	0.376
Mof_C 	C 	0.1266	0.11112	0.5	-0.222
Mof_C 	C 	0.1906	0.18297	0.5	0.086
Mof_C 	C 	0.3734	0.38888	0.5	0.394
Mof_C 	C 	0.3094	0.31703	0.5	-0.53
Mof_C 	C 	0.8734	0.88888	0.5	0.663
Mof_C 	C 	0.8094	0.81703	0.5	-0.132
Mof_C 	C 	0.3734	0.61112	0.5	0.394
Mof_C 	C 	0.3094	0.68297	0.5	-0.534
Mof_C 	C 	0.8734	0.11112	0.5	0.668
Mof_C 	C 	0.8094	0.18297	0.5	-0.138
Mof_C 	C 	0.6266	0.38888	0.5	0.409
Mof_C 	C 	0.6906	0.31703	0.5	0.38
Mof_C 	C 	0.1266	0.88888	0.5	-0.228
Mof_C 	C 	0.1906	0.81703	0.5	0.088
Mof_C 	C 	0.5	0.4195	0.0799	-0.069
Mof_C 	C 	-9.03166e-33	0.9195	0.0799	3.926
Mof_C 	C 	0.5	0.5805	0.0799	-0.07
Mof_C 	C 	-1.2099e-33	0.0805	0.0799	3.702
Mof_C 	C 	0.5	0.4195	0.9201	-0.069
Mof_C 	C 	8.13256e-33	0.9195	0.9201	3.926
Mof_C 	C 	0.5	0.5805	0.9201	-0.07
Mof_C 	C 	8.13256e-33	0.0805	0.9201	3.702
_end
