data_functionalizedCrystal
_audit_creation_method	'EQeq! by Chris Wilmer'
_symmetry_space_group_name_H-M	'P1'
_symmetry_Int_Tables_number	1
_symmetry_cell_setting	triclinic
loop_
_symmetry_equiv_pos_as_xyz
  x,y,z
_cell_length_a	13.834
_cell_length_b	13.834
_cell_length_c	6.162
_cell_angle_alpha	90
_cell_angle_beta	90
_cell_angle_gamma	90
loop_
_atom_site_label
_atom_site_type_symbol
_atom_site_fract_x
_atom_site_fract_y
_atom_site_fract_z
_atom_site_charge
Mof_S 	S 	0.47298	0.60196	0.23856	-0.018
Mof_N 	N 	0.32319	0.65123	0.7473	-0.199
Mof_C 	C 	0.37797	0.5588	0.0862	-0.042
Mof_C 	C 	0.34311	0.47269	0.1639	-0.03
Mof_H 	H 	0.2921	0.4388	0.1017	0.039
Mof_C 	C 	0.39397	0.44188	0.3491	-0.069
Mof_H 	H 	0.3798	0.3851	0.4232	0.053
Mof_C 	C 	0.46636	0.50366	0.4093	0.007
Mof_C 	C 	0.3469	0.6095	0.8986	0.092
Mof_S 	S 	0.02702	0.89804	0.23856	-0.018
Mof_N 	N 	0.17681	0.84877	0.7473	-0.199
Mof_C 	C 	0.12203	0.9412	0.0862	-0.042
Mof_C 	C 	0.15689	0.02731	0.1639	-0.03
Mof_H 	H 	0.2079	0.0612	0.1017	0.039
Mof_C 	C 	0.10603	0.05812	0.3491	-0.069
Mof_H 	H 	0.1202	0.1149	0.4232	0.053
Mof_C 	C 	0.03364	0.99634	0.4093	0.007
Mof_C 	C 	0.1531	0.8905	0.8986	0.092
Mof_S 	S 	0.89804	0.47298	0.23856	-0.018
Mof_N 	N 	0.84877	0.32319	0.7473	-0.199
Mof_C 	C 	0.9412	0.37797	0.0862	-0.042
Mof_C 	C 	0.02731	0.34311	0.1639	-0.03
Mof_H 	H 	0.0612	0.2921	0.1017	0.039
Mof_C 	C 	0.05812	0.39397	0.3491	-0.069
Mof_H 	H 	0.1149	0.3798	0.4232	0.053
Mof_C 	C 	0.99634	0.46636	0.4093	0.007
Mof_C 	C 	0.8905	0.3469	0.8986	0.092
Mof_S 	S 	0.60196	0.02702	0.23856	-0.018
Mof_N 	N 	0.65123	0.17681	0.7473	-0.199
Mof_C 	C 	0.5588	0.12203	0.0862	-0.042
Mof_C 	C 	0.47269	0.15689	0.1639	-0.03
Mof_H 	H 	0.4388	0.2079	0.1017	0.039
Mof_C 	C 	0.44188	0.10603	0.3491	-0.069
Mof_H 	H 	0.3851	0.1202	0.4232	0.053
Mof_C 	C 	0.50366	0.03364	0.4093	0.007
Mof_C 	C 	0.6095	0.1531	0.8986	0.092
Mof_S 	S 	0.52702	0.39804	0.76144	-0.018
Mof_N 	N 	0.67681	0.34877	0.2527	-0.199
Mof_C 	C 	0.62203	0.4412	0.9138	-0.042
Mof_C 	C 	0.65689	0.52731	0.8361	-0.03
Mof_H 	H 	0.7079	0.5612	0.8983	0.039
Mof_C 	C 	0.60603	0.55812	0.6509	-0.069
Mof_H 	H 	0.6202	0.6149	0.5768	0.053
Mof_C 	C 	0.53364	0.49634	0.5907	0.007
Mof_C 	C 	0.6531	0.3905	0.1014	0.092
Mof_S 	S 	0.97298	0.10196	0.76144	-0.018
Mof_N 	N 	0.82319	0.15123	0.2527	-0.199
Mof_C 	C 	0.87797	0.0588	0.9138	-0.042
Mof_C 	C 	0.84311	0.97269	0.8361	-0.03
Mof_H 	H 	0.7921	0.9388	0.8983	0.039
Mof_C 	C 	0.89397	0.94188	0.6509	-0.069
Mof_H 	H 	0.8798	0.8851	0.5768	0.053
Mof_C 	C 	0.96636	0.00366	0.5907	0.007
Mof_C 	C 	0.8469	0.1095	0.1014	0.092
Mof_S 	S 	0.10196	0.52702	0.76144	-0.018
Mof_N 	N 	0.15123	0.67681	0.2527	-0.199
Mof_C 	C 	0.0588	0.62203	0.9138	-0.042
Mof_C 	C 	0.97269	0.65689	0.8361	-0.03
Mof_H 	H 	0.9388	0.7079	0.8983	0.039
Mof_C 	C 	0.94188	0.60603	0.6509	-0.069
Mof_H 	H 	0.8851	0.6202	0.5768	0.053
Mof_C 	C 	0.00366	0.53364	0.5907	0.007
Mof_C 	C 	0.1095	0.6531	0.1014	0.092
Mof_S 	S 	0.39804	0.97298	0.76144	-0.018
Mof_N 	N 	0.34877	0.82319	0.2527	-0.199
Mof_C 	C 	0.4412	0.87797	0.9138	-0.042
Mof_C 	C 	0.52731	0.84311	0.8361	-0.03
Mof_H 	H 	0.5612	0.7921	0.8983	0.039
Mof_C 	C 	0.55812	0.89397	0.6509	-0.069
Mof_H 	H 	0.6149	0.8798	0.5768	0.053
Mof_C 	C 	0.49634	0.96636	0.5907	0.007
Mof_C 	C 	0.3905	0.8469	0.1014	0.092
Mof_Ag	Ag	0.25	0.75	0.5	0.668
Mof_Ag	Ag	0.75	0.25	0.5	0.668
_end
