data_functionalizedCrystal
_audit_creation_method	'EQeq! by Chris Wilmer'
_symmetry_space_group_name_H-M	'P1'
_symmetry_Int_Tables_number	1
_symmetry_cell_setting	triclinic
loop_
_symmetry_equiv_pos_as_xyz
  x,y,z
_cell_length_a	9.9817
_cell_length_b	16.6382
_cell_length_c	17.0675
_cell_angle_alpha	100.544
_cell_angle_beta	107.003
_cell_angle_gamma	90
loop_
_atom_site_label
_atom_site_type_symbol
_atom_site_fract_x
_atom_site_fract_y
_atom_site_fract_z
_atom_site_charge
Mof_Cd	Cd	-0	0	-0	0.358
Mof_Cd	Cd	-9.48813e-33	0.5	-0	0.366
Mof_H 	H 	0.1518	0.833	0.9738	0
Mof_H 	H 	0.7808	0.8657	0.848	-0.004
Mof_H 	H 	0.775	0.7506	0.7514	0.164
Mof_H 	H 	0.1561	0.7144	0.8858	0.156
Mof_H 	H 	0.0524	0.4558	0.6274	0.064
Mof_H 	H 	0.0983	0.5164	0.7136	0.065
Mof_H 	H 	0.0945	0.5863	0.5762	0.046
Mof_H 	H 	0.201	0.6072	0.666	0.037
Mof_H 	H 	0.8947	0.5639	0.4918	0.061
Mof_H 	H 	0.7425	0.5887	0.4902	0.081
Mof_H 	H 	0.7194	0.4999	0.5704	0.078
Mof_H 	H 	0.8343	0.4445	0.5472	0.063
Mof_H 	H 	0.6724	0.4904	0.7016	0.148
Mof_H 	H 	0.5041	0.6091	0.8744	0.132
Mof_H 	H 	0.7082	0.5948	0.973	0.011
Mof_H 	H 	0.8745	0.4862	0.8082	0
Mof_H 	H 	0.0524	0.6201	0.7688	0.144
Mof_H 	H 	0.381	0.5918	0.7288	0.145
Mof_H 	H 	0.178	0.667	0.0262	-0.022
Mof_H 	H 	0.9328	0.6343	0.152	0.015
Mof_H 	H 	0.0236	0.7494	0.2486	0.149
Mof_H 	H 	0.2703	0.7856	0.1142	0.141
Mof_H 	H 	0.425	0.0442	0.3726	0.053
Mof_H 	H 	0.3847	0.9836	0.2864	0.058
Mof_H 	H 	0.5183	0.9137	0.4238	0.054
Mof_H 	H 	0.535	0.8928	0.334	0.041
Mof_H 	H 	0.4029	0.9361	0.5082	0.059
Mof_H 	H 	0.2523	0.9113	0.5098	0.082
Mof_H 	H 	0.149	0.0001	0.4296	0.059
Mof_H 	H 	0.2871	0.0555	0.4528	0.046
Mof_H 	H 	0.9708	0.0096	0.2984	0.154
Mof_H 	H 	0.6297	0.8909	0.1256	0.129
Mof_H 	H 	0.7352	0.9052	0.027	-0.011
Mof_H 	H 	0.0663	0.0138	0.1918	-0.035
Mof_H 	H 	0.2836	0.8799	0.2312	0.154
Mof_H 	H 	0.6522	0.9082	0.2712	0.144
Mof_H 	H 	0.8482	0.167	0.0262	-0.025
Mof_H 	H 	0.2192	0.1343	0.152	-0.007
Mof_H 	H 	0.225	0.2494	0.2486	0.157
Mof_H 	H 	0.8439	0.2856	0.1142	0.137
Mof_H 	H 	0.9476	0.5442	0.3726	0.062
Mof_H 	H 	0.9017	0.4836	0.2864	0.059
Mof_H 	H 	0.9055	0.4137	0.4238	0.059
Mof_H 	H 	0.799	0.3928	0.334	0.043
Mof_H 	H 	0.1053	0.4361	0.5082	0.051
Mof_H 	H 	0.2575	0.4113	0.5098	0.078
Mof_H 	H 	0.2806	0.5001	0.4296	0.078
Mof_H 	H 	0.1657	0.5555	0.4528	0.058
Mof_H 	H 	0.3276	0.5096	0.2984	0.148
Mof_H 	H 	0.4959	0.3909	0.1256	0.126
Mof_H 	H 	0.2918	0.4052	0.027	-0.013
Mof_H 	H 	0.1255	0.5138	0.1918	-0.008
Mof_H 	H 	0.9476	0.3799	0.2312	0.166
Mof_H 	H 	0.619	0.4082	0.2712	0.143
Mof_H 	H 	0.822	0.333	0.9738	-0.002
Mof_H 	H 	0.0672	0.3657	0.848	-0.025
Mof_H 	H 	0.9764	0.2506	0.7514	0.172
Mof_H 	H 	0.7297	0.2144	0.8858	0.154
Mof_H 	H 	0.575	0.9558	0.6274	0.071
Mof_H 	H 	0.6153	0.0164	0.7136	0.065
Mof_H 	H 	0.4817	0.0863	0.5762	0.051
Mof_H 	H 	0.465	0.1072	0.666	0.038
Mof_H 	H 	0.5971	0.0639	0.4918	0.054
Mof_H 	H 	0.7477	0.0887	0.4902	0.078
Mof_H 	H 	0.851	0.9999	0.5704	0.093
Mof_H 	H 	0.7129	0.9445	0.5472	0.072
Mof_H 	H 	0.0292	0.9904	0.7016	0.144
Mof_H 	H 	0.3703	0.1091	0.8744	0.13
Mof_H 	H 	0.2648	0.0948	0.973	0.01
Mof_H 	H 	0.9337	0.9862	0.8082	0.022
Mof_H 	H 	0.7164	0.1201	0.7688	0.156
Mof_H 	H 	0.3478	0.0918	0.7288	0.143
Mof_C 	C 	0.0735	0.8169	0.9278	0.175
Mof_C 	C 	0.861	0.836	0.855	0.178
Mof_C 	C 	0.8548	0.7655	0.797	-0.296
Mof_C 	C 	0.077	0.745	0.8748	-0.319
Mof_C 	C 	0.96737	0.7182	0.80734	0.311
Mof_C 	C 	0.87883	0.6112	0.68046	0.285
Mof_C 	C 	0.05671	0.5129	0.65402	-0.087
Mof_C 	C 	0.15204	0.5626	0.62168	-0.035
Mof_C 	C 	0.80177	0.5427	0.48754	-0.055
Mof_C 	C 	0.81084	0.5008	0.56128	-0.058
Mof_C 	C 	0.3911	0.5067	0.637	0.285
Mof_C 	C 	0.67675	0.5128	0.7565	-0.244
Mof_C 	C 	0.56324	0.5493	0.77508	0.245
Mof_C 	C 	0.577	0.5824	0.859	-0.244
Mof_C 	C 	0.701	0.5743	0.9174	0.151
Mof_C 	C 	0.79789	0.5102	0.82158	0.148
Mof_C 	C 	0.1457	0.6831	0.0722	0.172
Mof_C 	C 	0.006	0.664	0.145	0.131
Mof_C 	C 	0.0578	0.7345	0.203	-0.272
Mof_C 	C 	0.2022	0.755	0.1252	-0.299
Mof_C 	C 	0.16003	0.7818	0.19266	0.279
Mof_C 	C 	0.19837	0.8888	0.31954	0.284
Mof_C 	C 	0.40269	0.9871	0.34598	-0.054
Mof_C 	C 	0.53036	0.9374	0.37832	-0.048
Mof_C 	C 	0.31423	0.9573	0.51246	-0.062
Mof_C 	C 	0.24956	0.9992	0.43872	-0.025
Mof_C 	C 	0.7541	0.9933	0.363	0.293
Mof_C 	C 	0.92025	0.9872	0.2435	-0.259
Mof_C 	C 	0.78816	0.9507	0.22492	0.254
Mof_C 	C 	0.718	0.9176	0.141	-0.256
Mof_C 	C 	0.7836	0.9257	0.0826	0.155
Mof_C 	C 	0.97631	0.9898	0.17842	0.195
Mof_C 	C 	0.9265	0.1831	0.0722	0.185
Mof_C 	C 	0.139	0.164	0.145	0.159
Mof_C 	C 	0.1452	0.2345	0.203	-0.284
Mof_C 	C 	0.923	0.255	0.1252	-0.285
Mof_C 	C 	0.03263	0.2818	0.19266	0.269
Mof_C 	C 	0.12117	0.3888	0.31954	0.282
Mof_C 	C 	0.94329	0.4871	0.34598	-0.054
Mof_C 	C 	0.84796	0.4374	0.37832	-0.051
Mof_C 	C 	0.19823	0.4573	0.51246	-0.051
Mof_C 	C 	0.18916	0.4992	0.43872	-0.06
Mof_C 	C 	0.6089	0.4933	0.363	0.285
Mof_C 	C 	0.32325	0.4872	0.2435	-0.247
Mof_C 	C 	0.43676	0.4507	0.22492	0.245
Mof_C 	C 	0.423	0.4176	0.141	-0.251
Mof_C 	C 	0.299	0.4257	0.0826	0.149
Mof_C 	C 	0.20211	0.4898	0.17842	0.148
Mof_C 	C 	0.8543	0.3169	0.9278	0.186
Mof_C 	C 	0.994	0.336	0.855	0.207
Mof_C 	C 	0.9422	0.2655	0.797	-0.309
Mof_C 	C 	0.7978	0.245	0.8748	-0.307
Mof_C 	C 	0.83997	0.2182	0.80734	0.303
Mof_C 	C 	0.80163	0.1112	0.68046	0.284
Mof_C 	C 	0.59731	0.0129	0.65402	-0.085
Mof_C 	C 	0.46964	0.0626	0.62168	-0.039
Mof_C 	C 	0.68577	0.0427	0.48754	-0.048
Mof_C 	C 	0.75044	0.0008	0.56128	-0.085
Mof_C 	C 	0.2459	0.0067	0.637	0.276
Mof_C 	C 	0.07975	0.0128	0.7565	-0.237
Mof_C 	C 	0.21184	0.0493	0.77508	0.237
Mof_C 	C 	0.282	0.0824	0.859	-0.239
Mof_C 	C 	0.2164	0.0743	0.9174	0.146
Mof_C 	C 	0.02369	0.0102	0.82158	0.109
Mof_Br	Br	0.28028	0.97159	0.09644	-0.298
Mof_Br	Br	0.18384	0.52841	0.90356	-0.27
Mof_Br	Br	0.71972	0.02841	0.90356	-0.265
Mof_Br	Br	0.81616	0.47159	0.09644	-0.297
Mof_N 	N 	0.96891	0.8648	0.91862	-0.171
Mof_N 	N 	0.91435	0.5406	0.6387	-0.133
Mof_N 	N 	0.97714	0.6458	0.75408	-0.275
Mof_N 	N 	0.81167	0.5393	0.90074	-0.164
Mof_N 	N 	0.25467	0.5128	0.59274	-0.145
Mof_N 	N 	0.43571	0.5553	0.71562	-0.269
Mof_N 	N 	0.05029	0.6352	0.08138	-0.186
Mof_N 	N 	0.27565	0.9594	0.3613	-0.147
Mof_N 	N 	0.22306	0.8542	0.24592	-0.283
Mof_N 	N 	0.91093	0.9607	0.09926	-0.181
Mof_N 	N 	0.66193	0.9872	0.40726	-0.141
Mof_N 	N 	0.72009	0.9447	0.28438	-0.271
Mof_N 	N 	0.03109	0.1352	0.08138	-0.199
Mof_N 	N 	0.08565	0.4594	0.3613	-0.148
Mof_N 	N 	0.02286	0.3542	0.24592	-0.293
Mof_N 	N 	0.18833	0.4607	0.09926	-0.18
Mof_N 	N 	0.74533	0.4872	0.40726	-0.141
Mof_N 	N 	0.56429	0.4447	0.28438	-0.269
Mof_N 	N 	0.94971	0.3648	0.91862	-0.183
Mof_N 	N 	0.72435	0.0406	0.6387	-0.136
Mof_N 	N 	0.77694	0.1458	0.75408	-0.285
Mof_N 	N 	0.08907	0.0393	0.90074	-0.162
Mof_N 	N 	0.33807	0.0128	0.59274	-0.144
Mof_N 	N 	0.27991	0.0553	0.71562	-0.268
Mof_O 	O 	0.76735	0.6415	0.6547	-0.249
Mof_O 	O 	0.46734	0.46	0.60948	-0.247
Mof_O 	O 	0.11265	0.8585	0.3453	-0.253
Mof_O 	O 	0.85786	0.04	0.39052	-0.249
Mof_O 	O 	0.23265	0.3585	0.3453	-0.25
Mof_O 	O 	0.53266	0.54	0.39052	-0.247
Mof_O 	O 	0.88735	0.1415	0.6547	-0.246
Mof_O 	O 	0.14214	0.96	0.60948	-0.244
_end
