data_functionalizedCrystal
_audit_creation_method	'EQeq! by Chris Wilmer'
_symmetry_space_group_name_H-M	'P1'
_symmetry_Int_Tables_number	1
_symmetry_cell_setting	triclinic
loop_
_symmetry_equiv_pos_as_xyz
  x,y,z
_cell_length_a	37.2914
_cell_length_b	37.2914
_cell_length_c	37.2914
_cell_angle_alpha	60
_cell_angle_beta	60
_cell_angle_gamma	60
loop_
_atom_site_label
_atom_site_type_symbol
_atom_site_fract_x
_atom_site_fract_y
_atom_site_fract_z
_atom_site_charge
Mof_Cu	Cu	0.71704	0.5	0.50005	0.925
Mof_Cu	Cu	0.77428	0.49985	0.49987	0.917
Mof_Cu	Cu	0.50009	0.71715	0.28274	0.924
Mof_Cu	Cu	0.50021	0.77406	0.2263	0.916
Mof_Cu	Cu	0.49997	0.28274	0.71734	0.924
Mof_Cu	Cu	0.50036	0.22571	0.77403	0.916
Mof_Cu	Cu	0.28283	0.50001	0.5	0.925
Mof_Cu	Cu	0.22592	0.49985	0.49978	0.917
Mof_Cu	Cu	0.71758	0.49996	0.28252	0.927
Mof_Cu	Cu	0.77502	0.49999	0.22475	0.917
Mof_Cu	Cu	0.50014	0.2829	0.49996	0.926
Mof_Cu	Cu	0.4997	0.2255	0.50017	0.918
Mof_Cu	Cu	0.50003	0.71714	0.49991	0.925
Mof_Cu	Cu	0.49982	0.77461	0.50012	0.917
Mof_Cu	Cu	0.28301	0.50006	0.71704	0.926
Mof_Cu	Cu	0.22544	0.4997	0.7745	0.918
Mof_Cu	Cu	0.71702	0.28295	0.49994	0.926
Mof_Cu	Cu	0.77486	0.2256	0.49971	0.918
Mof_Cu	Cu	0.49996	0.49999	0.71761	0.928
Mof_Cu	Cu	0.49995	0.49998	0.7757	0.918
Mof_Cu	Cu	0.49989	0.50006	0.28241	0.929
Mof_Cu	Cu	0.49991	0.50004	0.22435	0.917
Mof_Cu	Cu	0.28279	0.7171	0.50008	0.926
Mof_Cu	Cu	0.22556	0.77488	0.49984	0.918
Mof_H 	H 	0.85426	0.36599	0.52853	0.047
Mof_H 	H 	0.98592	0.18522	0.52832	0.047
Mof_H 	H 	0.05741	0.14586	0.53342	0.035
Mof_H 	H 	0.36604	0.85404	0.25141	0.047
Mof_H 	H 	0.18527	0.98586	0.30054	0.047
Mof_H 	H 	0.14589	0.05736	0.26331	0.035
Mof_H 	H 	0.52819	0.25134	0.85432	0.047
Mof_H 	H 	0.52838	0.30053	0.98594	0.046
Mof_H 	H 	0.53343	0.26329	0.05743	0.034
Mof_H 	H 	0.25109	0.5287	0.36601	0.046
Mof_H 	H 	0.30052	0.52834	0.1852	0.046
Mof_H 	H 	0.2633	0.53344	0.14583	0.034
Mof_H 	H 	0.85397	0.52835	0.25155	0.046
Mof_H 	H 	0.98587	0.52836	0.30051	0.046
Mof_H 	H 	0.05733	0.53349	0.26326	0.034
Mof_H 	H 	0.36605	0.25129	0.52819	0.046
Mof_H 	H 	0.18511	0.30051	0.52835	0.046
Mof_H 	H 	0.14584	0.26324	0.53344	0.034
Mof_H 	H 	0.5287	0.85423	0.3658	0.046
Mof_H 	H 	0.52837	0.98598	0.18519	0.046
Mof_H 	H 	0.53346	0.05744	0.14584	0.034
Mof_H 	H 	0.25118	0.36597	0.85465	0.046
Mof_H 	H 	0.30054	0.18513	0.98597	0.046
Mof_H 	H 	0.2633	0.14583	0.05746	0.034
Mof_H 	H 	0.85411	0.25111	0.36596	0.046
Mof_H 	H 	0.98595	0.30049	0.18519	0.046
Mof_H 	H 	0.05745	0.26327	0.14586	0.034
Mof_H 	H 	0.36605	0.52834	0.85426	0.046
Mof_H 	H 	0.18514	0.52836	0.98593	0.046
Mof_H 	H 	0.14583	0.53347	0.05739	0.034
Mof_H 	H 	0.52828	0.36611	0.25141	0.046
Mof_H 	H 	0.52836	0.18514	0.30057	0.046
Mof_H 	H 	0.53346	0.14586	0.26329	0.034
Mof_H 	H 	0.25106	0.85421	0.52878	0.046
Mof_H 	H 	0.30053	0.98593	0.52836	0.046
Mof_H 	H 	0.26329	0.05742	0.53343	0.034
Mof_H 	H 	0.63411	0.14587	0.47124	0.046
Mof_H 	H 	0.81483	0.01408	0.47162	0.046
Mof_H 	H 	0.85415	0.94262	0.46652	0.034
Mof_H 	H 	0.1458	0.63413	0.74892	0.046
Mof_H 	H 	0.01417	0.81476	0.69945	0.046
Mof_H 	H 	0.94267	0.85411	0.73667	0.034
Mof_H 	H 	0.74861	0.47159	0.14605	0.046
Mof_H 	H 	0.69947	0.47163	0.01414	0.046
Mof_H 	H 	0.73669	0.46653	0.94266	0.034
Mof_H 	H 	0.47176	0.7487	0.63397	0.046
Mof_H 	H 	0.47162	0.69947	0.81485	0.046
Mof_H 	H 	0.46657	0.7367	0.85416	0.034
Mof_H 	H 	0.47125	0.14594	0.74878	0.046
Mof_H 	H 	0.47162	0.01405	0.69951	0.046
Mof_H 	H 	0.46653	0.94258	0.73676	0.034
Mof_H 	H 	0.74861	0.63402	0.47181	0.046
Mof_H 	H 	0.69948	0.81483	0.47162	0.046
Mof_H 	H 	0.7367	0.85416	0.46655	0.034
Mof_H 	H 	0.14563	0.47176	0.634	0.046
Mof_H 	H 	0.01407	0.47158	0.81482	0.046
Mof_H 	H 	0.94257	0.46656	0.85415	0.034
Mof_H 	H 	0.63382	0.74866	0.14569	0.046
Mof_H 	H 	0.81474	0.69951	0.01411	0.046
Mof_H 	H 	0.85414	0.73669	0.94258	0.034
Mof_H 	H 	0.74863	0.14557	0.63406	0.046
Mof_H 	H 	0.69954	0.01404	0.81484	0.046
Mof_H 	H 	0.73676	0.94253	0.85414	0.034
Mof_H 	H 	0.4715	0.634	0.14566	0.046
Mof_H 	H 	0.47164	0.81483	0.01404	0.046
Mof_H 	H 	0.46654	0.85416	0.94259	0.034
Mof_H 	H 	0.63405	0.47147	0.74879	0.046
Mof_H 	H 	0.81487	0.47161	0.69948	0.046
Mof_H 	H 	0.85415	0.46656	0.73673	0.034
Mof_H 	H 	0.14547	0.74873	0.47168	0.046
Mof_H 	H 	0.01408	0.6995	0.47158	0.046
Mof_H 	H 	0.94257	0.73672	0.46657	0.034
Mof_H 	H 	0.1456	0.634	0.47172	0.046
Mof_H 	H 	0.01409	0.81485	0.47158	0.046
Mof_H 	H 	0.94258	0.85416	0.46657	0.034
Mof_H 	H 	0.63399	0.14563	0.74881	0.046
Mof_H 	H 	0.81488	0.01404	0.69947	0.046
Mof_H 	H 	0.85418	0.94253	0.73667	0.034
Mof_H 	H 	0.47163	0.74855	0.14579	0.046
Mof_H 	H 	0.47164	0.69947	0.01401	0.046
Mof_H 	H 	0.46652	0.73673	0.94258	0.034
Mof_H 	H 	0.74859	0.47179	0.63399	0.046
Mof_H 	H 	0.69948	0.4716	0.81483	0.046
Mof_H 	H 	0.73671	0.46655	0.85415	0.034
Mof_H 	H 	0.14545	0.47169	0.74881	0.046
Mof_H 	H 	0.01398	0.47159	0.69949	0.046
Mof_H 	H 	0.9425	0.46659	0.73674	0.034
Mof_H 	H 	0.63417	0.74884	0.47129	0.046
Mof_H 	H 	0.81484	0.69949	0.47162	0.046
Mof_H 	H 	0.85416	0.73673	0.46654	0.034
Mof_H 	H 	0.47189	0.14531	0.63409	0.046
Mof_H 	H 	0.47164	0.01402	0.81489	0.046
Mof_H 	H 	0.46658	0.94254	0.85418	0.034
Mof_H 	H 	0.74902	0.63442	0.14544	0.046
Mof_H 	H 	0.69946	0.81497	0.01393	0.046
Mof_H 	H 	0.73678	0.85418	0.94247	0.034
Mof_H 	H 	0.14558	0.74854	0.63391	0.046
Mof_H 	H 	0.0141	0.69943	0.81484	0.046
Mof_H 	H 	0.94262	0.7367	0.85413	0.034
Mof_H 	H 	0.63413	0.47151	0.14562	0.046
Mof_H 	H 	0.81489	0.47163	0.01405	0.046
Mof_H 	H 	0.85414	0.46653	0.94261	0.034
Mof_H 	H 	0.47141	0.63411	0.74883	0.046
Mof_H 	H 	0.47161	0.81487	0.69949	0.046
Mof_H 	H 	0.46655	0.85414	0.73675	0.034
Mof_H 	H 	0.74864	0.14549	0.47184	0.046
Mof_H 	H 	0.69946	0.01409	0.47162	0.046
Mof_H 	H 	0.7367	0.94261	0.46653	0.034
Mof_H 	H 	0.36602	0.85446	0.52816	0.046
Mof_H 	H 	0.18515	0.98596	0.52836	0.046
Mof_H 	H 	0.14585	0.05744	0.53342	0.034
Mof_H 	H 	0.85488	0.36578	0.25121	0.046
Mof_H 	H 	0.98603	0.18507	0.30053	0.046
Mof_H 	H 	0.0575	0.14582	0.26326	0.034
Mof_H 	H 	0.25124	0.52869	0.85415	0.046
Mof_H 	H 	0.30052	0.52836	0.98591	0.046
Mof_H 	H 	0.26327	0.53349	0.05736	0.034
Mof_H 	H 	0.52875	0.25116	0.36587	0.046
Mof_H 	H 	0.52836	0.30054	0.18522	0.046
Mof_H 	H 	0.53347	0.2633	0.14588	0.034
Mof_H 	H 	0.52827	0.85438	0.25125	0.046
Mof_H 	H 	0.52836	0.98605	0.30052	0.046
Mof_H 	H 	0.53343	0.0575	0.26328	0.034
Mof_H 	H 	0.25115	0.36598	0.52872	0.046
Mof_H 	H 	0.30052	0.18521	0.52835	0.046
Mof_H 	H 	0.26332	0.14584	0.53341	0.034
Mof_H 	H 	0.85426	0.52859	0.36596	0.046
Mof_H 	H 	0.98588	0.52834	0.18517	0.046
Mof_H 	H 	0.05737	0.53342	0.14584	0.034
Mof_H 	H 	0.36592	0.25129	0.85419	0.046
Mof_H 	H 	0.18524	0.30051	0.98589	0.046
Mof_H 	H 	0.14586	0.26332	0.0574	0.034
Mof_H 	H 	0.25117	0.85429	0.36588	0.046
Mof_H 	H 	0.30058	0.98596	0.18513	0.046
Mof_H 	H 	0.26328	0.05743	0.14585	0.034
Mof_H 	H 	0.52858	0.36585	0.85436	0.046
Mof_H 	H 	0.52838	0.18509	0.98601	0.046
Mof_H 	H 	0.53345	0.14586	0.05746	0.034
Mof_H 	H 	0.36582	0.52844	0.25124	0.046
Mof_H 	H 	0.18511	0.52834	0.30051	0.046
Mof_H 	H 	0.14582	0.53348	0.26323	0.034
Mof_H 	H 	0.85427	0.25116	0.52863	0.046
Mof_H 	H 	0.98599	0.30054	0.52832	0.046
Mof_H 	H 	0.05745	0.26327	0.53344	0.034
Mof_H 	H 	0.74542	0.37132	0.5118	0.055
Mof_H 	H 	0.37127	0.74521	0.3716	0.055
Mof_H 	H 	0.51129	0.3717	0.74562	0.055
Mof_H 	H 	0.37153	0.51173	0.37124	0.055
Mof_H 	H 	0.74523	0.51172	0.37174	0.055
Mof_H 	H 	0.37156	0.37141	0.51145	0.055
Mof_H 	H 	0.51158	0.74547	0.37153	0.055
Mof_H 	H 	0.37132	0.37174	0.74566	0.055
Mof_H 	H 	0.74579	0.37172	0.37114	0.055
Mof_H 	H 	0.37149	0.51168	0.74533	0.055
Mof_H 	H 	0.51169	0.37138	0.37158	0.055
Mof_H 	H 	0.3714	0.74556	0.5115	0.055
Mof_H 	H 	0.62853	0.25448	0.48854	0.055
Mof_H 	H 	0.25448	0.62839	0.62856	0.055
Mof_H 	H 	0.62812	0.48847	0.25467	0.055
Mof_H 	H 	0.48873	0.62838	0.62857	0.055
Mof_H 	H 	0.48857	0.25446	0.62834	0.055
Mof_H 	H 	0.62841	0.62857	0.48853	0.055
Mof_H 	H 	0.25423	0.489	0.6285	0.055
Mof_H 	H 	0.62899	0.62817	0.25435	0.055
Mof_H 	H 	0.62844	0.25433	0.62837	0.055
Mof_H 	H 	0.48855	0.6283	0.25452	0.056
Mof_H 	H 	0.62834	0.48873	0.62849	0.055
Mof_H 	H 	0.25427	0.62848	0.48892	0.055
Mof_H 	H 	0.11157	0.11159	0.55212	0.05
Mof_H 	H 	0.11163	0.11155	0.22471	0.05
Mof_H 	H 	0.55207	0.22476	0.11162	0.05
Mof_H 	H 	0.22472	0.55206	0.11159	0.05
Mof_H 	H 	0.11158	0.552	0.22473	0.05
Mof_H 	H 	0.1116	0.22469	0.5521	0.05
Mof_H 	H 	0.55205	0.11162	0.11163	0.05
Mof_H 	H 	0.22472	0.11157	0.11157	0.05
Mof_H 	H 	0.11161	0.22473	0.11156	0.05
Mof_H 	H 	0.11156	0.55206	0.11159	0.05
Mof_H 	H 	0.55209	0.11162	0.22472	0.05
Mof_H 	H 	0.22472	0.11157	0.55212	0.05
Mof_H 	H 	0.88838	0.8884	0.44799	0.05
Mof_H 	H 	0.88849	0.8884	0.77521	0.05
Mof_H 	H 	0.77522	0.44799	0.88842	0.05
Mof_H 	H 	0.44795	0.77525	0.8884	0.05
Mof_H 	H 	0.44796	0.88838	0.77528	0.05
Mof_H 	H 	0.77525	0.88841	0.44796	0.05
Mof_H 	H 	0.88837	0.44798	0.88841	0.05
Mof_H 	H 	0.88845	0.77526	0.88839	0.05
Mof_H 	H 	0.77536	0.88839	0.88834	0.05
Mof_H 	H 	0.44789	0.8884	0.88843	0.05
Mof_H 	H 	0.88836	0.44792	0.77532	0.05
Mof_H 	H 	0.88839	0.77528	0.44795	0.05
Mof_C 	C 	0.77733	0.42041	0.51382	0.354
Mof_C 	C 	0.79694	0.37363	0.52065	-0.107
Mof_C 	C 	0.8374	0.35001	0.52738	0.015
Mof_C 	C 	0.00185	0.20159	0.53019	-0.052
Mof_C 	C 	0.04326	0.17884	0.53396	-0.026
Mof_C 	C 	0.42056	0.7773	0.28838	0.355
Mof_C 	C 	0.37374	0.79683	0.30889	-0.107
Mof_C 	C 	0.35007	0.83723	0.28536	0.015
Mof_C 	C 	0.20164	0.0018	0.26637	-0.052
Mof_C 	C 	0.17887	0.04321	0.24395	-0.026
Mof_C 	C 	0.51364	0.28852	0.77731	0.354
Mof_C 	C 	0.52054	0.30888	0.79688	-0.106
Mof_C 	C 	0.52713	0.2853	0.8374	0.015
Mof_C 	C 	0.53022	0.26637	0.00184	-0.052
Mof_C 	C 	0.53397	0.24394	0.04325	-0.026
Mof_C 	C 	0.28851	0.51363	0.42046	0.354
Mof_C 	C 	0.30881	0.52054	0.37368	-0.107
Mof_C 	C 	0.28515	0.52737	0.35008	0.015
Mof_C 	C 	0.26637	0.53018	0.20157	-0.053
Mof_C 	C 	0.24393	0.53396	0.17882	-0.025
Mof_C 	C 	0.77699	0.51376	0.28867	0.353
Mof_C 	C 	0.7966	0.52073	0.30899	-0.106
Mof_C 	C 	0.83712	0.52731	0.28546	0.015
Mof_C 	C 	0.00176	0.53023	0.26634	-0.052
Mof_C 	C 	0.04317	0.53401	0.24391	-0.026
Mof_C 	C 	0.42052	0.28828	0.51368	0.354
Mof_C 	C 	0.37374	0.30871	0.52052	-0.107
Mof_C 	C 	0.35008	0.28526	0.5271	0.015
Mof_C 	C 	0.20153	0.26636	0.53021	-0.053
Mof_C 	C 	0.17883	0.2439	0.53397	-0.025
Mof_C 	C 	0.51368	0.77752	0.42049	0.354
Mof_C 	C 	0.52063	0.79698	0.37367	-0.107
Mof_C 	C 	0.52746	0.83737	0.34992	0.015
Mof_C 	C 	0.5302	0.00189	0.20161	-0.052
Mof_C 	C 	0.53399	0.04329	0.17884	-0.026
Mof_C 	C 	0.2883	0.42059	0.77746	0.354
Mof_C 	C 	0.30869	0.37376	0.79707	-0.106
Mof_C 	C 	0.28521	0.35014	0.83762	0.015
Mof_C 	C 	0.26638	0.20152	0.00189	-0.052
Mof_C 	C 	0.24393	0.1788	0.04329	-0.026
Mof_C 	C 	0.77747	0.28851	0.42033	0.354
Mof_C 	C 	0.7971	0.30893	0.37356	-0.107
Mof_C 	C 	0.83742	0.28519	0.34999	0.015
Mof_C 	C 	0.00188	0.26633	0.20158	-0.052
Mof_C 	C 	0.04328	0.24391	0.17884	-0.026
Mof_C 	C 	0.42062	0.51359	0.77737	0.355
Mof_C 	C 	0.37378	0.52057	0.79683	-0.107
Mof_C 	C 	0.35013	0.52724	0.83731	0.015
Mof_C 	C 	0.20157	0.53018	0.00183	-0.052
Mof_C 	C 	0.17883	0.53398	0.04323	-0.026
Mof_C 	C 	0.51352	0.42067	0.28848	0.354
Mof_C 	C 	0.52058	0.37377	0.30887	-0.106
Mof_C 	C 	0.52725	0.35014	0.28533	0.014
Mof_C 	C 	0.5302	0.20156	0.26641	-0.052
Mof_C 	C 	0.53398	0.17884	0.24395	-0.026
Mof_C 	C 	0.28833	0.77746	0.51371	0.354
Mof_C 	C 	0.30876	0.79701	0.52053	-0.107
Mof_C 	C 	0.28516	0.83741	0.52738	0.015
Mof_C 	C 	0.26637	0.00185	0.5302	-0.052
Mof_C 	C 	0.24393	0.04325	0.53398	-0.026
Mof_C 	C 	0.57938	0.22247	0.48643	0.353
Mof_C 	C 	0.62627	0.20303	0.47946	-0.105
Mof_C 	C 	0.64998	0.16264	0.47264	0.014
Mof_C 	C 	0.79841	0.99816	0.46981	-0.052
Mof_C 	C 	0.82115	0.95677	0.46601	-0.026
Mof_C 	C 	0.22259	0.57933	0.71161	0.353
Mof_C 	C 	0.20303	0.62619	0.69123	-0.106
Mof_C 	C 	0.16264	0.64989	0.71482	0.014
Mof_C 	C 	0.99822	0.79838	0.7336	-0.052
Mof_C 	C 	0.95682	0.82113	0.75603	-0.026
Mof_C 	C 	0.71116	0.48641	0.223	0.354
Mof_C 	C 	0.69091	0.47943	0.20339	-0.107
Mof_C 	C 	0.71461	0.47273	0.16288	0.015
Mof_C 	C 	0.73362	0.46979	0.99822	-0.052
Mof_C 	C 	0.75605	0.46601	0.95681	-0.026
Mof_C 	C 	0.48647	0.71159	0.5794	0.354
Mof_C 	C 	0.47962	0.69118	0.62625	-0.106
Mof_C 	C 	0.47291	0.71473	0.64989	0.015
Mof_C 	C 	0.46979	0.73363	0.79845	-0.053
Mof_C 	C 	0.46602	0.75606	0.82118	-0.026
Mof_C 	C 	0.48643	0.22258	0.71154	0.353
Mof_C 	C 	0.47966	0.20298	0.69107	-0.106
Mof_C 	C 	0.47271	0.16265	0.7147	0.015
Mof_C 	C 	0.46979	0.99815	0.73367	-0.052
Mof_C 	C 	0.46601	0.95674	0.75611	-0.026
Mof_C 	C 	0.71159	0.5793	0.48658	0.353
Mof_C 	C 	0.6912	0.62623	0.47951	-0.105
Mof_C 	C 	0.71467	0.64988	0.47287	0.014
Mof_C 	C 	0.73363	0.79844	0.4698	-0.052
Mof_C 	C 	0.75607	0.82119	0.466	-0.026
Mof_C 	C 	0.22256	0.48644	0.57937	0.353
Mof_C 	C 	0.20299	0.4796	0.62628	-0.105
Mof_C 	C 	0.16252	0.47294	0.6499	0.014
Mof_C 	C 	0.99814	0.46975	0.79842	-0.052
Mof_C 	C 	0.95673	0.46599	0.82118	-0.026
Mof_C 	C 	0.57954	0.71132	0.22265	0.355
Mof_C 	C 	0.62646	0.69106	0.20316	-0.107
Mof_C 	C 	0.64989	0.71469	0.16259	0.015
Mof_C 	C 	0.79838	0.73366	0.99814	-0.052
Mof_C 	C 	0.82116	0.75606	0.95674	-0.026
Mof_C 	C 	0.71171	0.22245	0.57923	0.353
Mof_C 	C 	0.6913	0.20297	0.62616	-0.105
Mof_C 	C 	0.71471	0.16254	0.64992	0.014
Mof_C 	C 	0.73369	0.99812	0.79842	-0.052
Mof_C 	C 	0.75613	0.95672	0.82116	-0.026
Mof_C 	C 	0.48634	0.57937	0.22266	0.354
Mof_C 	C 	0.47942	0.62621	0.20314	-0.106
Mof_C 	C 	0.47279	0.64983	0.1626	0.015
Mof_C 	C 	0.46981	0.79845	0.99811	-0.052
Mof_C 	C 	0.46603	0.82117	0.95672	-0.026
Mof_C 	C 	0.57934	0.48638	0.71166	0.354
Mof_C 	C 	0.62618	0.47954	0.69121	-0.106
Mof_C 	C 	0.64985	0.47283	0.71473	0.015
Mof_C 	C 	0.79846	0.46978	0.73363	-0.053
Mof_C 	C 	0.82118	0.466	0.75609	-0.026
Mof_C 	C 	0.22241	0.7117	0.48659	0.353
Mof_C 	C 	0.20289	0.69129	0.47965	-0.106
Mof_C 	C 	0.16246	0.71476	0.47288	0.014
Mof_C 	C 	0.99813	0.73365	0.46976	-0.052
Mof_C 	C 	0.95674	0.7561	0.46598	-0.026
Mof_C 	C 	0.22259	0.57937	0.4864	0.353
Mof_C 	C 	0.20301	0.62626	0.47955	-0.105
Mof_C 	C 	0.1625	0.64987	0.47296	0.014
Mof_C 	C 	0.99815	0.79845	0.46976	-0.052
Mof_C 	C 	0.95675	0.82119	0.46598	-0.026
Mof_C 	C 	0.57954	0.22253	0.71158	0.353
Mof_C 	C 	0.62629	0.203	0.69114	-0.106
Mof_C 	C 	0.64987	0.16249	0.71473	0.015
Mof_C 	C 	0.7985	0.99811	0.73361	-0.052
Mof_C 	C 	0.82122	0.95671	0.75605	-0.026
Mof_C 	C 	0.48655	0.71167	0.22261	0.352
Mof_C 	C 	0.4795	0.6912	0.20315	-0.104
Mof_C 	C 	0.4727	0.71465	0.16275	0.014
Mof_C 	C 	0.4698	0.73363	0.99813	-0.052
Mof_C 	C 	0.46603	0.75607	0.95673	-0.026
Mof_C 	C 	0.71158	0.4866	0.57929	0.353
Mof_C 	C 	0.69116	0.47956	0.62621	-0.105
Mof_C 	C 	0.71466	0.47284	0.64988	0.014
Mof_C 	C 	0.73363	0.46978	0.79842	-0.053
Mof_C 	C 	0.75607	0.466	0.82117	-0.026
Mof_C 	C 	0.22247	0.48641	0.71169	0.354
Mof_C 	C 	0.20287	0.47968	0.69126	-0.107
Mof_C 	C 	0.1624	0.47296	0.71478	0.015
Mof_C 	C 	0.99808	0.46976	0.73363	-0.052
Mof_C 	C 	0.95668	0.466	0.7561	-0.026
Mof_C 	C 	0.57941	0.71173	0.48635	0.353
Mof_C 	C 	0.62627	0.69126	0.47944	-0.106
Mof_C 	C 	0.64996	0.71479	0.47264	0.014
Mof_C 	C 	0.79845	0.73364	0.4698	-0.052
Mof_C 	C 	0.82118	0.75609	0.466	-0.025
Mof_C 	C 	0.48635	0.2225	0.5794	0.353
Mof_C 	C 	0.47941	0.203	0.62624	-0.106
Mof_C 	C 	0.47289	0.16243	0.64991	0.015
Mof_C 	C 	0.4698	0.99811	0.79849	-0.052
Mof_C 	C 	0.46603	0.95671	0.82121	-0.026
Mof_C 	C 	0.71223	0.57936	0.2218	0.354
Mof_C 	C 	0.69156	0.62619	0.20263	-0.107
Mof_C 	C 	0.71497	0.65011	0.16238	0.015
Mof_C 	C 	0.73362	0.79852	0.99805	-0.052
Mof_C 	C 	0.75611	0.8212	0.95666	-0.026
Mof_C 	C 	0.2226	0.71161	0.57937	0.353
Mof_C 	C 	0.20311	0.69119	0.62626	-0.106
Mof_C 	C 	0.16257	0.71464	0.64987	0.014
Mof_C 	C 	0.99819	0.73359	0.79843	-0.052
Mof_C 	C 	0.9568	0.75605	0.82115	-0.026
Mof_C 	C 	0.57933	0.48643	0.22231	0.354
Mof_C 	C 	0.62616	0.47946	0.20302	-0.107
Mof_C 	C 	0.64994	0.47276	0.16258	0.015
Mof_C 	C 	0.79844	0.46979	0.99819	-0.052
Mof_C 	C 	0.82115	0.46601	0.95678	-0.026
Mof_C 	C 	0.48634	0.57942	0.7119	0.354
Mof_C 	C 	0.4795	0.62626	0.69133	-0.106
Mof_C 	C 	0.47271	0.64997	0.71481	0.015
Mof_C 	C 	0.46978	0.79844	0.73365	-0.053
Mof_C 	C 	0.46601	0.82116	0.7561	-0.026
Mof_C 	C 	0.71164	0.22261	0.48645	0.354
Mof_C 	C 	0.69132	0.20308	0.47943	-0.106
Mof_C 	C 	0.71473	0.16252	0.47287	0.014
Mof_C 	C 	0.73361	0.99814	0.46982	-0.052
Mof_C 	C 	0.75606	0.95676	0.46601	-0.026
Mof_C 	C 	0.42055	0.77748	0.5136	0.353
Mof_C 	C 	0.37371	0.79703	0.52048	-0.106
Mof_C 	C 	0.35006	0.83751	0.52713	0.015
Mof_C 	C 	0.20156	0.00187	0.5302	-0.052
Mof_C 	C 	0.17883	0.04326	0.53398	-0.026
Mof_C 	C 	0.77803	0.42051	0.28772	0.354
Mof_C 	C 	0.79735	0.37369	0.30839	-0.106
Mof_C 	C 	0.83784	0.34991	0.28514	0.015
Mof_C 	C 	0.00193	0.20149	0.26637	-0.052
Mof_C 	C 	0.04332	0.17879	0.24391	-0.026
Mof_C 	C 	0.28834	0.51358	0.77744	0.353
Mof_C 	C 	0.30876	0.52059	0.7969	-0.106
Mof_C 	C 	0.28527	0.52739	0.83731	0.015
Mof_C 	C 	0.26637	0.53018	0.00182	-0.052
Mof_C 	C 	0.24392	0.53399	0.04322	-0.026
Mof_C 	C 	0.51359	0.28838	0.42063	0.352
Mof_C 	C 	0.52052	0.30879	0.37377	-0.105
Mof_C 	C 	0.52737	0.28521	0.35008	0.014
Mof_C 	C 	0.5302	0.26638	0.20162	-0.052
Mof_C 	C 	0.53398	0.24395	0.17887	-0.026
Mof_C 	C 	0.51378	0.77737	0.28852	0.354
Mof_C 	C 	0.52063	0.7969	0.30884	-0.108
Mof_C 	C 	0.52715	0.8375	0.28525	0.016
Mof_C 	C 	0.53019	0.00195	0.26639	-0.052
Mof_C 	C 	0.53397	0.04334	0.24392	-0.025
Mof_C 	C 	0.28852	0.42051	0.51353	0.354
Mof_C 	C 	0.30887	0.37371	0.52041	-0.107
Mof_C 	C 	0.28522	0.35005	0.52735	0.015
Mof_C 	C 	0.26636	0.20158	0.5302	-0.053
Mof_C 	C 	0.24395	0.17883	0.53396	-0.025
Mof_C 	C 	0.77727	0.51378	0.42056	0.354
Mof_C 	C 	0.79685	0.52058	0.37383	-0.107
Mof_C 	C 	0.83734	0.5273	0.35015	0.015
Mof_C 	C 	0.0018	0.53022	0.20153	-0.052
Mof_C 	C 	0.04321	0.53397	0.17881	-0.026
Mof_C 	C 	0.4207	0.28836	0.77747	0.352
Mof_C 	C 	0.37376	0.30882	0.79703	-0.105
Mof_C 	C 	0.35005	0.28529	0.83736	0.014
Mof_C 	C 	0.2016	0.26634	0.00185	-0.052
Mof_C 	C 	0.17884	0.24392	0.04325	-0.026
Mof_C 	C 	0.28825	0.77744	0.42054	0.354
Mof_C 	C 	0.3087	0.79687	0.37374	-0.107
Mof_C 	C 	0.28521	0.83736	0.35004	0.015
Mof_C 	C 	0.26642	0.00185	0.20154	-0.052
Mof_C 	C 	0.24395	0.04325	0.17884	-0.026
Mof_C 	C 	0.51355	0.4206	0.77775	0.354
Mof_C 	C 	0.52044	0.37378	0.79709	-0.107
Mof_C 	C 	0.52726	0.35002	0.83748	0.015
Mof_C 	C 	0.53022	0.20154	0.00187	-0.052
Mof_C 	C 	0.53398	0.17884	0.04328	-0.026
Mof_C 	C 	0.42048	0.51374	0.28803	0.354
Mof_C 	C 	0.37363	0.52068	0.3086	-0.107
Mof_C 	C 	0.34991	0.52735	0.28521	0.015
Mof_C 	C 	0.20155	0.53019	0.26636	-0.053
Mof_C 	C 	0.17882	0.53397	0.2439	-0.025
Mof_C 	C 	0.77741	0.28836	0.51377	0.354
Mof_C 	C 	0.79697	0.30877	0.52061	-0.107
Mof_C 	C 	0.83742	0.28521	0.52734	0.015
Mof_C 	C 	0.00187	0.26638	0.53019	-0.052
Mof_C 	C 	0.04328	0.24393	0.53396	-0.026
Mof_C 	C 	0.77651	0.35284	0.51777	0.058
Mof_C 	C 	0.85712	0.30609	0.5307	-0.015
Mof_C 	C 	0.90026	0.28402	0.53172	0.005
Mof_C 	C 	0.9372	0.26599	0.53086	-0.029
Mof_C 	C 	0.98096	0.24462	0.52982	0.035
Mof_C 	C 	0.0642	0.19874	0.53831	-0.008
Mof_C 	C 	0.10791	0.1735	0.54507	0.04
Mof_C 	C 	0.35284	0.77634	0.35299	0.058
Mof_C 	C 	0.30615	0.85701	0.30614	-0.015
Mof_C 	C 	0.28415	0.90018	0.28398	0.004
Mof_C 	C 	0.26613	0.93714	0.2659	-0.028
Mof_C 	C 	0.24469	0.98092	0.24457	0.034
Mof_C 	C 	0.19876	0.06416	0.19875	-0.008
Mof_C 	C 	0.17353	0.10789	0.17351	0.039
Mof_C 	C 	0.51758	0.35304	0.77654	0.057
Mof_C 	C 	0.53039	0.30616	0.8572	-0.015
Mof_C 	C 	0.53155	0.28402	0.90028	0.004
Mof_C 	C 	0.53085	0.26593	0.93718	-0.029
Mof_C 	C 	0.52989	0.24457	0.98094	0.035
Mof_C 	C 	0.53832	0.19876	0.0642	-0.008
Mof_C 	C 	0.54505	0.17355	0.10792	0.04
Mof_C 	C 	0.3529	0.5178	0.35276	0.058
Mof_C 	C 	0.30601	0.53066	0.30617	-0.015
Mof_C 	C 	0.28393	0.5317	0.28409	0.005
Mof_C 	C 	0.26592	0.53087	0.26598	-0.029
Mof_C 	C 	0.24458	0.52983	0.24459	0.035
Mof_C 	C 	0.19873	0.53831	0.19872	-0.008
Mof_C 	C 	0.1735	0.54505	0.17349	0.04
Mof_C 	C 	0.77628	0.51779	0.35311	0.057
Mof_C 	C 	0.85701	0.53056	0.30625	-0.015
Mof_C 	C 	0.90017	0.5316	0.28403	0.004
Mof_C 	C 	0.93711	0.53082	0.26591	-0.029
Mof_C 	C 	0.98087	0.52985	0.24455	0.035
Mof_C 	C 	0.06414	0.53832	0.19873	-0.008
Mof_C 	C 	0.10789	0.54503	0.17351	0.039
Mof_C 	C 	0.35298	0.35285	0.51759	0.058
Mof_C 	C 	0.30613	0.30616	0.53052	-0.015
Mof_C 	C 	0.284	0.28408	0.53164	0.005
Mof_C 	C 	0.26593	0.26601	0.53087	-0.029
Mof_C 	C 	0.24456	0.24461	0.52986	0.035
Mof_C 	C 	0.19875	0.19871	0.53832	-0.008
Mof_C 	C 	0.17352	0.17348	0.54508	0.04
Mof_C 	C 	0.51774	0.77647	0.35294	0.058
Mof_C 	C 	0.53055	0.85719	0.30608	-0.015
Mof_C 	C 	0.53163	0.90031	0.28402	0.005
Mof_C 	C 	0.53085	0.93724	0.26605	-0.029
Mof_C 	C 	0.52983	0.98102	0.24465	0.035
Mof_C 	C 	0.53832	0.06424	0.19874	-0.008
Mof_C 	C 	0.54505	0.10796	0.17352	0.04
Mof_C 	C 	0.35286	0.35299	0.77663	0.056
Mof_C 	C 	0.30617	0.30621	0.85723	-0.014
Mof_C 	C 	0.28407	0.28401	0.90032	0.004
Mof_C 	C 	0.26602	0.26586	0.93722	-0.028
Mof_C 	C 	0.24463	0.24453	0.98097	0.035
Mof_C 	C 	0.19874	0.19872	0.0642	-0.008
Mof_C 	C 	0.17352	0.1735	0.10791	0.039
Mof_C 	C 	0.77681	0.35307	0.35263	0.057
Mof_C 	C 	0.85732	0.306	0.30614	-0.015
Mof_C 	C 	0.90039	0.28383	0.28412	0.004
Mof_C 	C 	0.9373	0.26582	0.26601	-0.029
Mof_C 	C 	0.98103	0.24452	0.24461	0.035
Mof_C 	C 	0.06423	0.19872	0.19873	-0.008
Mof_C 	C 	0.10793	0.1735	0.17349	0.039
Mof_C 	C 	0.35292	0.5178	0.77636	0.057
Mof_C 	C 	0.30621	0.53057	0.85705	-0.015
Mof_C 	C 	0.28409	0.53166	0.90018	0.004
Mof_C 	C 	0.26598	0.53087	0.93712	-0.029
Mof_C 	C 	0.2446	0.52983	0.98091	0.035
Mof_C 	C 	0.19873	0.53833	0.06416	-0.008
Mof_C 	C 	0.1735	0.54505	0.10789	0.039
Mof_C 	C 	0.51778	0.35288	0.35297	0.057
Mof_C 	C 	0.5306	0.30619	0.30616	-0.014
Mof_C 	C 	0.53164	0.28412	0.28404	0.004
Mof_C 	C 	0.53084	0.26601	0.26601	-0.029
Mof_C 	C 	0.52984	0.2446	0.24465	0.035
Mof_C 	C 	0.53832	0.19877	0.19877	-0.008
Mof_C 	C 	0.54505	0.17355	0.17353	0.04
Mof_C 	C 	0.3529	0.77659	0.51761	0.057
Mof_C 	C 	0.30611	0.85718	0.53052	-0.015
Mof_C 	C 	0.284	0.90028	0.53164	0.005
Mof_C 	C 	0.26594	0.9372	0.53086	-0.029
Mof_C 	C 	0.24459	0.98096	0.52984	0.035
Mof_C 	C 	0.19874	0.06418	0.53833	-0.008
Mof_C 	C 	0.17351	0.10789	0.54508	0.04
Mof_C 	C 	0.64716	0.22355	0.48225	0.057
Mof_C 	C 	0.69381	0.14282	0.46957	-0.014
Mof_C 	C 	0.71591	0.09973	0.4684	0.004
Mof_C 	C 	0.734	0.06283	0.46911	-0.029
Mof_C 	C 	0.75538	0.01906	0.47015	0.035
Mof_C 	C 	0.80125	0.93583	0.46165	-0.008
Mof_C 	C 	0.82647	0.8921	0.45496	0.04
Mof_C 	C 	0.22353	0.64704	0.64711	0.057
Mof_C 	C 	0.14285	0.69377	0.69381	-0.014
Mof_C 	C 	0.09977	0.71592	0.7159	0.004
Mof_C 	C 	0.06287	0.734	0.73399	-0.028
Mof_C 	C 	0.01911	0.75536	0.75539	0.035
Mof_C 	C 	0.93589	0.80124	0.80123	-0.008
Mof_C 	C 	0.89216	0.82646	0.82644	0.039
Mof_C 	C 	0.64682	0.48226	0.22369	0.058
Mof_C 	C 	0.69383	0.46954	0.14296	-0.015
Mof_C 	C 	0.71601	0.46842	0.09984	0.004
Mof_C 	C 	0.73404	0.46915	0.06292	-0.029
Mof_C 	C 	0.7554	0.47013	0.01914	0.035
Mof_C 	C 	0.80124	0.46167	0.93586	-0.008
Mof_C 	C 	0.82644	0.45496	0.89212	0.04
Mof_C 	C 	0.48249	0.64702	0.64713	0.057
Mof_C 	C 	0.46958	0.69384	0.69382	-0.015
Mof_C 	C 	0.4684	0.71595	0.71596	0.004
Mof_C 	C 	0.46912	0.73403	0.73406	-0.029
Mof_C 	C 	0.47013	0.75541	0.75543	0.035
Mof_C 	C 	0.46167	0.80125	0.80128	-0.008
Mof_C 	C 	0.45496	0.82647	0.8265	0.04
Mof_C 	C 	0.48243	0.22342	0.64696	0.057
Mof_C 	C 	0.46955	0.14281	0.69383	-0.015
Mof_C 	C 	0.46839	0.09971	0.71605	0.004
Mof_C 	C 	0.46913	0.06279	0.73415	-0.029
Mof_C 	C 	0.47015	0.01904	0.75547	0.035
Mof_C 	C 	0.46167	0.93579	0.80129	-0.008
Mof_C 	C 	0.45495	0.89207	0.8265	0.04
Mof_C 	C 	0.64707	0.64712	0.48228	0.057
Mof_C 	C 	0.6938	0.69381	0.46956	-0.014
Mof_C 	C 	0.71595	0.71593	0.46842	0.004
Mof_C 	C 	0.73405	0.73402	0.46914	-0.029
Mof_C 	C 	0.75541	0.7554	0.47016	0.035
Mof_C 	C 	0.80126	0.80128	0.46165	-0.008
Mof_C 	C 	0.82647	0.82649	0.45497	0.04
Mof_C 	C 	0.22332	0.48263	0.64712	0.057
Mof_C 	C 	0.14269	0.46977	0.69379	-0.015
Mof_C 	C 	0.09962	0.46852	0.71588	0.004
Mof_C 	C 	0.06275	0.46916	0.73395	-0.029
Mof_C 	C 	0.01902	0.4701	0.75538	0.035
Mof_C 	C 	0.93578	0.46165	0.80129	-0.008
Mof_C 	C 	0.89205	0.45497	0.82651	0.04
Mof_C 	C 	0.64746	0.64689	0.22341	0.057
Mof_C 	C 	0.69382	0.69395	0.14276	-0.015
Mof_C 	C 	0.71583	0.71613	0.09966	0.004
Mof_C 	C 	0.73393	0.73418	0.06275	-0.029
Mof_C 	C 	0.75535	0.7555	0.019	0.035
Mof_C 	C 	0.8013	0.80126	0.93578	-0.008
Mof_C 	C 	0.82655	0.82646	0.89205	0.039
Mof_C 	C 	0.64711	0.22342	0.64697	0.057
Mof_C 	C 	0.69375	0.14274	0.6938	-0.014
Mof_C 	C 	0.71592	0.09966	0.71593	0.004
Mof_C 	C 	0.7341	0.06277	0.73397	-0.028
Mof_C 	C 	0.75548	0.01902	0.75537	0.035
Mof_C 	C 	0.80133	0.93579	0.80124	-0.008
Mof_C 	C 	0.82656	0.89206	0.82643	0.039
Mof_C 	C 	0.48227	0.64703	0.22361	0.056
Mof_C 	C 	0.46952	0.69374	0.1429	-0.014
Mof_C 	C 	0.46838	0.71591	0.09975	0.004
Mof_C 	C 	0.46911	0.73407	0.06282	-0.028
Mof_C 	C 	0.47013	0.75543	0.01904	0.035
Mof_C 	C 	0.46168	0.80125	0.9358	-0.008
Mof_C 	C 	0.45494	0.82648	0.89209	0.04
Mof_C 	C 	0.647	0.48242	0.64707	0.057
Mof_C 	C 	0.69374	0.46966	0.69377	-0.014
Mof_C 	C 	0.71592	0.46847	0.7159	0.004
Mof_C 	C 	0.73406	0.46914	0.73398	-0.029
Mof_C 	C 	0.75543	0.47013	0.75538	0.035
Mof_C 	C 	0.80125	0.46166	0.80128	-0.008
Mof_C 	C 	0.82644	0.45497	0.82651	0.04
Mof_C 	C 	0.22338	0.64712	0.48253	0.057
Mof_C 	C 	0.1427	0.69375	0.46977	-0.014
Mof_C 	C 	0.09964	0.71587	0.46854	0.004
Mof_C 	C 	0.06276	0.734	0.46917	-0.029
Mof_C 	C 	0.01904	0.75542	0.47012	0.035
Mof_C 	C 	0.93582	0.80129	0.46163	-0.008
Mof_C 	C 	0.89207	0.82649	0.45498	0.04
Mof_C 	C 	0.12947	0.12946	0.54733	-0.079
Mof_C 	C 	0.1295	0.12946	0.19371	-0.079
Mof_C 	C 	0.54729	0.19377	0.1295	-0.079
Mof_C 	C 	0.19371	0.5473	0.12946	-0.079
Mof_C 	C 	0.12947	0.54726	0.19373	-0.079
Mof_C 	C 	0.12948	0.1937	0.54732	-0.079
Mof_C 	C 	0.54729	0.12952	0.12949	-0.079
Mof_C 	C 	0.19375	0.12947	0.12948	-0.079
Mof_C 	C 	0.12949	0.19373	0.12946	-0.079
Mof_C 	C 	0.12946	0.54728	0.12947	-0.079
Mof_C 	C 	0.54729	0.12952	0.19374	-0.079
Mof_C 	C 	0.19373	0.12945	0.54733	-0.079
Mof_C 	C 	0.87049	0.87052	0.45275	-0.079
Mof_C 	C 	0.8706	0.8705	0.80621	-0.079
Mof_C 	C 	0.80622	0.45274	0.87054	-0.079
Mof_C 	C 	0.45271	0.80625	0.87052	-0.079
Mof_C 	C 	0.45273	0.8705	0.80627	-0.079
Mof_C 	C 	0.80624	0.87052	0.45273	-0.079
Mof_C 	C 	0.87048	0.45274	0.87054	-0.079
Mof_C 	C 	0.87058	0.80624	0.87048	-0.079
Mof_C 	C 	0.80634	0.87049	0.87046	-0.079
Mof_C 	C 	0.4527	0.87051	0.87053	-0.079
Mof_C 	C 	0.87047	0.45273	0.8063	-0.079
Mof_C 	C 	0.87049	0.80627	0.45274	-0.079
Mof_O 	O 	0.73921	0.44118	0.51019	-0.409
Mof_O 	O 	0.79878	0.44049	0.51059	-0.417
Mof_O 	O 	0.44134	0.73919	0.30924	-0.41
Mof_O 	O 	0.44076	0.79868	0.25011	-0.416
Mof_O 	O 	0.51002	0.30949	0.73921	-0.41
Mof_O 	O 	0.51038	0.25022	0.79872	-0.417
Mof_O 	O 	0.30939	0.51014	0.44124	-0.41
Mof_O 	O 	0.25023	0.51033	0.44052	-0.417
Mof_O 	O 	0.73891	0.51009	0.3097	-0.408
Mof_O 	O 	0.79849	0.51033	0.2504	-0.418
Mof_O 	O 	0.44132	0.30922	0.51009	-0.41
Mof_O 	O 	0.44052	0.25003	0.51033	-0.417
Mof_O 	O 	0.51012	0.7394	0.44116	-0.409
Mof_O 	O 	0.5104	0.79894	0.44067	-0.416
Mof_O 	O 	0.30934	0.44134	0.73936	-0.41
Mof_O 	O 	0.24999	0.44067	0.79895	-0.418
Mof_O 	O 	0.73929	0.30941	0.44111	-0.409
Mof_O 	O 	0.79903	0.2502	0.44035	-0.417
Mof_O 	O 	0.44139	0.51007	0.73922	-0.409
Mof_O 	O 	0.44061	0.51027	0.79899	-0.419
Mof_O 	O 	0.50993	0.44147	0.30938	-0.409
Mof_O 	O 	0.51019	0.44066	0.25018	-0.418
Mof_O 	O 	0.30923	0.73929	0.51019	-0.41
Mof_O 	O 	0.25005	0.79905	0.51041	-0.418
Mof_O 	O 	0.55881	0.26063	0.48986	-0.41
Mof_O 	O 	0.55909	0.20109	0.48977	-0.416
Mof_O 	O 	0.26083	0.55873	0.69068	-0.41
Mof_O 	O 	0.20113	0.5591	0.7499	-0.416
Mof_O 	O 	0.69032	0.48987	0.2612	-0.408
Mof_O 	O 	0.74945	0.4897	0.20141	-0.419
Mof_O 	O 	0.48994	0.69066	0.55868	-0.409
Mof_O 	O 	0.48987	0.74984	0.55926	-0.418
Mof_O 	O 	0.4898	0.26079	0.69067	-0.409
Mof_O 	O 	0.48979	0.20116	0.74982	-0.416
Mof_O 	O 	0.69064	0.55866	0.49	-0.41
Mof_O 	O 	0.74985	0.55901	0.49006	-0.415
Mof_O 	O 	0.26069	0.48994	0.55872	-0.409
Mof_O 	O 	0.20118	0.4898	0.55906	-0.416
Mof_O 	O 	0.55876	0.69044	0.26074	-0.41
Mof_O 	O 	0.55932	0.74956	0.20124	-0.417
Mof_O 	O 	0.69068	0.26062	0.55864	-0.409
Mof_O 	O 	0.75004	0.20105	0.55898	-0.416
Mof_O 	O 	0.48986	0.55861	0.26081	-0.409
Mof_O 	O 	0.48965	0.55936	0.20106	-0.419
Mof_O 	O 	0.55857	0.4899	0.69076	-0.409
Mof_O 	O 	0.55931	0.48967	0.74999	-0.418
Mof_O 	O 	0.26057	0.69068	0.49006	-0.409
Mof_O 	O 	0.20102	0.75003	0.48991	-0.416
Mof_O 	O 	0.26069	0.55872	0.48995	-0.409
Mof_O 	O 	0.20122	0.55908	0.48974	-0.416
Mof_O 	O 	0.5587	0.26069	0.69076	-0.41
Mof_O 	O 	0.55954	0.20092	0.74987	-0.417
Mof_O 	O 	0.49003	0.69063	0.26074	-0.409
Mof_O 	O 	0.48994	0.74999	0.20132	-0.414
Mof_O 	O 	0.69063	0.48996	0.55867	-0.41
Mof_O 	O 	0.74985	0.49007	0.559	-0.416
Mof_O 	O 	0.26063	0.48998	0.69074	-0.41
Mof_O 	O 	0.20095	0.48961	0.75001	-0.418
Mof_O 	O 	0.55873	0.6908	0.48979	-0.41
Mof_O 	O 	0.55926	0.75008	0.4896	-0.415
Mof_O 	O 	0.49009	0.26059	0.55865	-0.41
Mof_O 	O 	0.48962	0.20098	0.55932	-0.417
Mof_O 	O 	0.69151	0.55861	0.26005	-0.411
Mof_O 	O 	0.75051	0.55934	0.20014	-0.416
Mof_O 	O 	0.26073	0.69061	0.55873	-0.409
Mof_O 	O 	0.20114	0.74991	0.55913	-0.416
Mof_O 	O 	0.55853	0.48997	0.26044	-0.409
Mof_O 	O 	0.55932	0.48975	0.20067	-0.417
Mof_O 	O 	0.48986	0.55866	0.69101	-0.409
Mof_O 	O 	0.48965	0.55938	0.75024	-0.417
Mof_O 	O 	0.69062	0.26081	0.48985	-0.41
Mof_O 	O 	0.74992	0.20118	0.48986	-0.417
Mof_O 	O 	0.44127	0.73932	0.51005	-0.409
Mof_O 	O 	0.44067	0.79903	0.51018	-0.418
Mof_O 	O 	0.74	0.44126	0.30874	-0.41
Mof_O 	O 	0.79953	0.44062	0.24936	-0.416
Mof_O 	O 	0.30935	0.51019	0.73926	-0.409
Mof_O 	O 	0.25007	0.51012	0.79888	-0.416
Mof_O 	O 	0.51029	0.3093	0.44127	-0.409
Mof_O 	O 	0.51015	0.2501	0.4408	-0.416
Mof_O 	O 	0.51023	0.7392	0.30936	-0.41
Mof_O 	O 	0.51045	0.79898	0.2503	-0.418
Mof_O 	O 	0.30939	0.44126	0.51011	-0.41
Mof_O 	O 	0.25024	0.44059	0.51023	-0.417
Mof_O 	O 	0.73915	0.51015	0.44133	-0.41
Mof_O 	O 	0.79875	0.51057	0.4406	-0.418
Mof_O 	O 	0.4413	0.30937	0.73934	-0.409
Mof_O 	O 	0.44105	0.24999	0.79881	-0.415
Mof_O 	O 	0.30916	0.73929	0.44136	-0.41
Mof_O 	O 	0.24998	0.79905	0.44055	-0.418
Mof_O 	O 	0.51004	0.44138	0.73962	-0.409
Mof_O 	O 	0.51024	0.44059	0.7994	-0.417
Mof_O 	O 	0.44125	0.5102	0.30892	-0.409
Mof_O 	O 	0.44052	0.51034	0.24973	-0.417
Mof_O 	O 	0.73928	0.30932	0.51013	-0.409
Mof_O 	O 	0.79899	0.25008	0.51046	-0.417
_end
