data_functionalizedCrystal
_audit_creation_method	'EQeq! by Chris Wilmer'
_symmetry_space_group_name_H-M	'P1'
_symmetry_Int_Tables_number	1
_symmetry_cell_setting	triclinic
loop_
_symmetry_equiv_pos_as_xyz
  x,y,z
_cell_length_a	18.7793
_cell_length_b	18.7793
_cell_length_c	32.796
_cell_angle_alpha	90
_cell_angle_beta	90
_cell_angle_gamma	120
loop_
_atom_site_label
_atom_site_type_symbol
_atom_site_fract_x
_atom_site_fract_y
_atom_site_fract_z
_atom_site_charge
Mof_O 	O 	0.3721	0.4828	0.00469	-0.373
Mof_O 	O 	0.4105	0.4426	0.94859	-0.376
Mof_C 	C 	0.2801	0.4322	0.94961	-0.044
Mof_C 	C 	0.2634	0.3977	0.90997	-0.051
Mof_H 	H 	0.3006	0.3862	0.8971	0.082
Mof_C 	C 	0.3602	0.4535	0.96908	0.335
Mof_O 	O 	0.03877	0.81613	0.33802	-0.373
Mof_O 	O 	0.07717	0.77593	0.28192	-0.376
Mof_C 	C 	0.94677	0.76553	0.28294	-0.044
Mof_C 	C 	0.93007	0.73103	0.2433	-0.051
Mof_H 	H 	0.96727	0.71953	0.23043	0.082
Mof_C 	C 	0.02687	0.78683	0.30241	0.335
Mof_O 	O 	0.70543	0.14947	0.67136	-0.373
Mof_O 	O 	0.74383	0.10927	0.61526	-0.376
Mof_C 	C 	0.61343	0.09887	0.61628	-0.044
Mof_C 	C 	0.59673	0.06437	0.57664	-0.051
Mof_H 	H 	0.63393	0.05287	0.56377	0.082
Mof_C 	C 	0.69353	0.12017	0.63575	0.335
Mof_O 	O 	0.5172	0.8893	0.00469	-0.373
Mof_O 	O 	0.5574	0.9679	0.94859	-0.376
Mof_C 	C 	0.5678	0.8479	0.94961	-0.044
Mof_C 	C 	0.6023	0.8657	0.90997	-0.051
Mof_H 	H 	0.6138	0.9144	0.8971	0.082
Mof_C 	C 	0.5465	0.9067	0.96908	0.335
Mof_O 	O 	0.18387	0.22263	0.33802	-0.373
Mof_O 	O 	0.22407	0.30123	0.28192	-0.376
Mof_C 	C 	0.23447	0.18123	0.28294	-0.044
Mof_C 	C 	0.26897	0.19903	0.2433	-0.051
Mof_H 	H 	0.28047	0.24773	0.23043	0.082
Mof_C 	C 	0.21317	0.24003	0.30241	0.335
Mof_O 	O 	0.85053	0.55597	0.67136	-0.373
Mof_O 	O 	0.89073	0.63457	0.61526	-0.376
Mof_C 	C 	0.90113	0.51457	0.61628	-0.044
Mof_C 	C 	0.93563	0.53237	0.57664	-0.051
Mof_H 	H 	0.94713	0.58107	0.56377	0.082
Mof_C 	C 	0.87983	0.57337	0.63575	0.335
Mof_O 	O 	0.1107	0.6279	0.00469	-0.373
Mof_O 	O 	0.0321	0.5895	0.94859	-0.376
Mof_C 	C 	0.1521	0.7199	0.94961	-0.044
Mof_C 	C 	0.1343	0.7366	0.90997	-0.051
Mof_H 	H 	0.0856	0.6994	0.8971	0.082
Mof_C 	C 	0.0933	0.6398	0.96908	0.335
Mof_O 	O 	0.77737	0.96123	0.33802	-0.373
Mof_O 	O 	0.69877	0.92283	0.28192	-0.376
Mof_C 	C 	0.81877	0.05323	0.28294	-0.044
Mof_C 	C 	0.80097	0.06993	0.2433	-0.051
Mof_H 	H 	0.75227	0.03273	0.23043	0.082
Mof_C 	C 	0.75997	0.97313	0.30241	0.335
Mof_O 	O 	0.44403	0.29457	0.67136	-0.373
Mof_O 	O 	0.36543	0.25617	0.61526	-0.376
Mof_C 	C 	0.48543	0.38657	0.61628	-0.044
Mof_C 	C 	0.46763	0.40327	0.57664	-0.051
Mof_H 	H 	0.41893	0.36607	0.56377	0.082
Mof_C 	C 	0.42663	0.30647	0.63575	0.335
Mof_O 	O 	0.4828	0.3721	0.99531	-0.373
Mof_O 	O 	0.4426	0.4105	0.05141	-0.376
Mof_C 	C 	0.4322	0.2801	0.05039	-0.044
Mof_C 	C 	0.3977	0.2634	0.09003	-0.051
Mof_H 	H 	0.3862	0.3006	0.1029	0.082
Mof_C 	C 	0.4535	0.3602	0.03092	0.335
Mof_O 	O 	0.14947	0.70543	0.32864	-0.373
Mof_O 	O 	0.10927	0.74383	0.38474	-0.376
Mof_C 	C 	0.09887	0.61343	0.38372	-0.044
Mof_C 	C 	0.06437	0.59673	0.42336	-0.051
Mof_H 	H 	0.05287	0.63393	0.43623	0.082
Mof_C 	C 	0.12017	0.69353	0.36425	0.335
Mof_O 	O 	0.81613	0.03877	0.66198	-0.373
Mof_O 	O 	0.77593	0.07717	0.71808	-0.376
Mof_C 	C 	0.76553	0.94677	0.71706	-0.044
Mof_C 	C 	0.73103	0.93007	0.7567	-0.051
Mof_H 	H 	0.71953	0.96727	0.76957	0.082
Mof_C 	C 	0.78683	0.02687	0.69759	0.335
Mof_O 	O 	0.8893	0.5172	0.99531	-0.373
Mof_O 	O 	0.9679	0.5574	0.05141	-0.376
Mof_C 	C 	0.8479	0.5678	0.05039	-0.044
Mof_C 	C 	0.8657	0.6023	0.09003	-0.051
Mof_H 	H 	0.9144	0.6138	0.1029	0.082
Mof_C 	C 	0.9067	0.5465	0.03092	0.335
Mof_O 	O 	0.55597	0.85053	0.32864	-0.373
Mof_O 	O 	0.63457	0.89073	0.38474	-0.376
Mof_C 	C 	0.51457	0.90113	0.38372	-0.044
Mof_C 	C 	0.53237	0.93563	0.42336	-0.051
Mof_H 	H 	0.58107	0.94713	0.43623	0.082
Mof_C 	C 	0.57337	0.87983	0.36425	0.335
Mof_O 	O 	0.22263	0.18387	0.66198	-0.373
Mof_O 	O 	0.30123	0.22407	0.71808	-0.376
Mof_C 	C 	0.18123	0.23447	0.71706	-0.044
Mof_C 	C 	0.19903	0.26897	0.7567	-0.051
Mof_H 	H 	0.24773	0.28047	0.76957	0.082
Mof_C 	C 	0.24003	0.21317	0.69759	0.335
Mof_O 	O 	0.6279	0.1107	0.99531	-0.373
Mof_O 	O 	0.5895	0.0321	0.05141	-0.376
Mof_C 	C 	0.7199	0.1521	0.05039	-0.044
Mof_C 	C 	0.7366	0.1343	0.09003	-0.051
Mof_H 	H 	0.6994	0.0856	0.1029	0.082
Mof_C 	C 	0.6398	0.0933	0.03092	0.335
Mof_O 	O 	0.29457	0.44403	0.32864	-0.373
Mof_O 	O 	0.25617	0.36543	0.38474	-0.376
Mof_C 	C 	0.38657	0.48543	0.38372	-0.044
Mof_C 	C 	0.40327	0.46763	0.42336	-0.051
Mof_H 	H 	0.36607	0.41893	0.43623	0.082
Mof_C 	C 	0.30647	0.42663	0.36425	0.335
Mof_O 	O 	0.96123	0.77737	0.66198	-0.373
Mof_O 	O 	0.92283	0.69877	0.71808	-0.376
Mof_C 	C 	0.05323	0.81877	0.71706	-0.044
Mof_C 	C 	0.06993	0.80097	0.7567	-0.051
Mof_H 	H 	0.03273	0.75227	0.76957	0.082
Mof_C 	C 	0.97313	0.75997	0.69759	0.335
Mof_O 	O 	0.6279	0.5172	0.99531	-0.373
Mof_O 	O 	0.5895	0.5574	0.05141	-0.376
Mof_C 	C 	0.7199	0.5678	0.05039	-0.044
Mof_C 	C 	0.7366	0.6023	0.09003	-0.051
Mof_H 	H 	0.6994	0.6138	0.1029	0.082
Mof_C 	C 	0.6398	0.5465	0.03092	0.335
Mof_O 	O 	0.29457	0.85053	0.32864	-0.373
Mof_O 	O 	0.25617	0.89073	0.38474	-0.376
Mof_C 	C 	0.38657	0.90113	0.38372	-0.044
Mof_C 	C 	0.40327	0.93563	0.42336	-0.051
Mof_H 	H 	0.36607	0.94713	0.43623	0.082
Mof_C 	C 	0.30647	0.87983	0.36425	0.335
Mof_O 	O 	0.96123	0.18387	0.66198	-0.373
Mof_O 	O 	0.92283	0.22407	0.71808	-0.376
Mof_C 	C 	0.05323	0.23447	0.71706	-0.044
Mof_C 	C 	0.06993	0.26897	0.7567	-0.051
Mof_H 	H 	0.03273	0.28047	0.76957	0.082
Mof_C 	C 	0.97313	0.21317	0.69759	0.335
Mof_O 	O 	0.4828	0.1107	0.99531	-0.373
Mof_O 	O 	0.4426	0.0321	0.05141	-0.376
Mof_C 	C 	0.4322	0.1521	0.05039	-0.044
Mof_C 	C 	0.3977	0.1343	0.09003	-0.051
Mof_H 	H 	0.3862	0.0856	0.1029	0.082
Mof_C 	C 	0.4535	0.0933	0.03092	0.335
Mof_O 	O 	0.14947	0.44403	0.32864	-0.373
Mof_O 	O 	0.10927	0.36543	0.38474	-0.376
Mof_C 	C 	0.09887	0.48543	0.38372	-0.044
Mof_C 	C 	0.06437	0.46763	0.42336	-0.051
Mof_H 	H 	0.05287	0.41893	0.43623	0.082
Mof_C 	C 	0.12017	0.42663	0.36425	0.335
Mof_O 	O 	0.81613	0.77737	0.66198	-0.373
Mof_O 	O 	0.77593	0.69877	0.71808	-0.376
Mof_C 	C 	0.76553	0.81877	0.71706	-0.044
Mof_C 	C 	0.73103	0.80097	0.7567	-0.051
Mof_H 	H 	0.71953	0.75227	0.76957	0.082
Mof_C 	C 	0.78683	0.75997	0.69759	0.335
Mof_O 	O 	0.8893	0.3721	0.99531	-0.373
Mof_O 	O 	0.9679	0.4105	0.05141	-0.376
Mof_C 	C 	0.8479	0.2801	0.05039	-0.044
Mof_C 	C 	0.8657	0.2634	0.09003	-0.051
Mof_H 	H 	0.9144	0.3006	0.1029	0.082
Mof_C 	C 	0.9067	0.3602	0.03092	0.335
Mof_O 	O 	0.55597	0.70543	0.32864	-0.373
Mof_O 	O 	0.63457	0.74383	0.38474	-0.376
Mof_C 	C 	0.51457	0.61343	0.38372	-0.044
Mof_C 	C 	0.53237	0.59673	0.42336	-0.051
Mof_H 	H 	0.58107	0.63393	0.43623	0.082
Mof_C 	C 	0.57337	0.69353	0.36425	0.335
Mof_O 	O 	0.22263	0.03877	0.66198	-0.373
Mof_O 	O 	0.30123	0.07717	0.71808	-0.376
Mof_C 	C 	0.18123	0.94677	0.71706	-0.044
Mof_C 	C 	0.19903	0.93007	0.7567	-0.051
Mof_H 	H 	0.24773	0.96727	0.76957	0.082
Mof_C 	C 	0.24003	0.02687	0.69759	0.335
Mof_O 	O 	0.5172	0.6279	0.00469	-0.373
Mof_O 	O 	0.5574	0.5895	0.94859	-0.376
Mof_C 	C 	0.5678	0.7199	0.94961	-0.044
Mof_C 	C 	0.6023	0.7366	0.90997	-0.051
Mof_H 	H 	0.6138	0.6994	0.8971	0.082
Mof_C 	C 	0.5465	0.6398	0.96908	0.335
Mof_O 	O 	0.18387	0.96123	0.33802	-0.373
Mof_O 	O 	0.22407	0.92283	0.28192	-0.376
Mof_C 	C 	0.23447	0.05323	0.28294	-0.044
Mof_C 	C 	0.26897	0.06993	0.2433	-0.051
Mof_H 	H 	0.28047	0.03273	0.23043	0.082
Mof_C 	C 	0.21317	0.97313	0.30241	0.335
Mof_O 	O 	0.85053	0.29457	0.67136	-0.373
Mof_O 	O 	0.89073	0.25617	0.61526	-0.376
Mof_C 	C 	0.90113	0.38657	0.61628	-0.044
Mof_C 	C 	0.93563	0.40327	0.57664	-0.051
Mof_H 	H 	0.94713	0.36607	0.56377	0.082
Mof_C 	C 	0.87983	0.30647	0.63575	0.335
Mof_O 	O 	0.1107	0.4828	0.00469	-0.373
Mof_O 	O 	0.0321	0.4426	0.94859	-0.376
Mof_C 	C 	0.1521	0.4322	0.94961	-0.044
Mof_C 	C 	0.1343	0.3977	0.90997	-0.051
Mof_H 	H 	0.0856	0.3862	0.8971	0.082
Mof_C 	C 	0.0933	0.4535	0.96908	0.335
Mof_O 	O 	0.77737	0.81613	0.33802	-0.373
Mof_O 	O 	0.69877	0.77593	0.28192	-0.376
Mof_C 	C 	0.81877	0.76553	0.28294	-0.044
Mof_C 	C 	0.80097	0.73103	0.2433	-0.051
Mof_H 	H 	0.75227	0.71953	0.23043	0.082
Mof_C 	C 	0.75997	0.78683	0.30241	0.335
Mof_O 	O 	0.44403	0.14947	0.67136	-0.373
Mof_O 	O 	0.36543	0.10927	0.61526	-0.376
Mof_C 	C 	0.48543	0.09887	0.61628	-0.044
Mof_C 	C 	0.46763	0.06437	0.57664	-0.051
Mof_H 	H 	0.41893	0.05287	0.56377	0.082
Mof_C 	C 	0.42663	0.12017	0.63575	0.335
Mof_O 	O 	0.3721	0.8893	0.00469	-0.373
Mof_O 	O 	0.4105	0.9679	0.94859	-0.376
Mof_C 	C 	0.2801	0.8479	0.94961	-0.044
Mof_C 	C 	0.2634	0.8657	0.90997	-0.051
Mof_H 	H 	0.3006	0.9144	0.8971	0.082
Mof_C 	C 	0.3602	0.9067	0.96908	0.335
Mof_O 	O 	0.03877	0.22263	0.33802	-0.373
Mof_O 	O 	0.07717	0.30123	0.28192	-0.376
Mof_C 	C 	0.94677	0.18123	0.28294	-0.044
Mof_C 	C 	0.93007	0.19903	0.2433	-0.051
Mof_H 	H 	0.96727	0.24773	0.23043	0.082
Mof_C 	C 	0.02687	0.24003	0.30241	0.335
Mof_O 	O 	0.70543	0.55597	0.67136	-0.373
Mof_O 	O 	0.74383	0.63457	0.61526	-0.376
Mof_C 	C 	0.61343	0.51457	0.61628	-0.044
Mof_C 	C 	0.59673	0.53237	0.57664	-0.051
Mof_H 	H 	0.63393	0.58107	0.56377	0.082
Mof_C 	C 	0.69353	0.57337	0.63575	0.335
Mof_Cu	Cu	0.47692	0.52308	0.03342	0.929
Mof_O 	O 	0.45	0.55	0.0933	-0.121
Mof_O 	O 	0.4334	0.5666	0.0837	-0.066
Mof_Cu	Cu	0.14359	0.85641	0.36675	0.929
Mof_O 	O 	0.11667	0.88333	0.42663	-0.121
Mof_O 	O 	0.10007	0.89993	0.41703	-0.066
Mof_Cu	Cu	0.81025	0.18975	0.70009	0.929
Mof_O 	O 	0.78333	0.21667	0.75997	-0.121
Mof_O 	O 	0.76673	0.23327	0.75037	-0.066
Mof_Cu	Cu	0.47692	0.95384	0.03342	0.929
Mof_O 	O 	0.45	0.9	0.0933	-0.121
Mof_O 	O 	0.4334	0.8668	0.0837	-0.066
Mof_Cu	Cu	0.14359	0.28717	0.36675	0.929
Mof_O 	O 	0.11667	0.23333	0.42663	-0.121
Mof_O 	O 	0.10007	0.20013	0.41703	-0.066
Mof_Cu	Cu	0.81025	0.62051	0.70009	0.929
Mof_O 	O 	0.78333	0.56667	0.75997	-0.121
Mof_O 	O 	0.76673	0.53347	0.75037	-0.066
Mof_Cu	Cu	0.04616	0.52308	0.03342	0.929
Mof_O 	O 	0.1	0.55	0.0933	-0.121
Mof_O 	O 	0.1332	0.5666	0.0837	-0.066
Mof_Cu	Cu	0.71283	0.85641	0.36675	0.929
Mof_O 	O 	0.76667	0.88333	0.42663	-0.121
Mof_O 	O 	0.79987	0.89993	0.41703	-0.066
Mof_Cu	Cu	0.37949	0.18975	0.70009	0.929
Mof_O 	O 	0.43333	0.21667	0.75997	-0.121
Mof_O 	O 	0.46653	0.23327	0.75037	-0.066
Mof_Cu	Cu	0.52308	0.47692	0.96658	0.929
Mof_O 	O 	0.55	0.45	0.9067	-0.121
Mof_O 	O 	0.5666	0.4334	0.9163	-0.066
Mof_Cu	Cu	0.18975	0.81025	0.29991	0.929
Mof_O 	O 	0.21667	0.78333	0.24003	-0.121
Mof_O 	O 	0.23327	0.76673	0.24963	-0.066
Mof_Cu	Cu	0.85641	0.14359	0.63325	0.929
Mof_O 	O 	0.88333	0.11667	0.57337	-0.121
Mof_O 	O 	0.89993	0.10007	0.58297	-0.066
Mof_Cu	Cu	0.95384	0.47692	0.96658	0.929
Mof_O 	O 	0.9	0.45	0.9067	-0.121
Mof_O 	O 	0.8668	0.4334	0.9163	-0.066
Mof_Cu	Cu	0.62051	0.81025	0.29991	0.929
Mof_O 	O 	0.56667	0.78333	0.24003	-0.121
Mof_O 	O 	0.53347	0.76673	0.24963	-0.066
Mof_Cu	Cu	0.28717	0.14359	0.63325	0.929
Mof_O 	O 	0.23333	0.11667	0.57337	-0.121
Mof_O 	O 	0.20013	0.10007	0.58297	-0.066
Mof_Cu	Cu	0.52308	0.04616	0.96658	0.929
Mof_O 	O 	0.55	0.1	0.9067	-0.121
Mof_O 	O 	0.5666	0.1332	0.9163	-0.066
Mof_Cu	Cu	0.18975	0.37949	0.29991	0.929
Mof_O 	O 	0.21667	0.43333	0.24003	-0.121
Mof_O 	O 	0.23327	0.46653	0.24963	-0.066
Mof_Cu	Cu	0.85641	0.71283	0.63325	0.929
Mof_O 	O 	0.88333	0.76667	0.57337	-0.121
Mof_O 	O 	0.89993	0.79987	0.58297	-0.066
Mof_C 	C 	0.22455	0.4491	0.9686	-0.003
Mof_H 	H 	0.23605	0.4721	0.9946	0.078
Mof_C 	C 	0.19055	0.3811	0.8902	0.043
Mof_C 	C 	0.17285	0.3457	0.8497	-0.006
Mof_C 	C 	0.89122	0.78243	0.30193	-0.003
Mof_H 	H 	0.90272	0.80543	0.32793	0.078
Mof_C 	C 	0.85722	0.71443	0.22353	0.043
Mof_C 	C 	0.83952	0.67903	0.18303	-0.006
Mof_C 	C 	0.55788	0.11577	0.63527	-0.003
Mof_H 	H 	0.56938	0.13877	0.66127	0.078
Mof_C 	C 	0.52388	0.04777	0.55687	0.043
Mof_C 	C 	0.50618	0.01237	0.51637	-0.006
Mof_C 	C 	0.5509	0.77545	0.9686	-0.003
Mof_H 	H 	0.5279	0.76395	0.9946	0.078
Mof_C 	C 	0.6189	0.80945	0.8902	0.043
Mof_C 	C 	0.6543	0.82715	0.8497	-0.006
Mof_C 	C 	0.21757	0.10878	0.30193	-0.003
Mof_H 	H 	0.19457	0.09728	0.32793	0.078
Mof_C 	C 	0.28557	0.14278	0.22353	0.043
Mof_C 	C 	0.32097	0.16048	0.18303	-0.006
Mof_C 	C 	0.88423	0.44212	0.63527	-0.003
Mof_H 	H 	0.86123	0.43062	0.66127	0.078
Mof_C 	C 	0.95223	0.47612	0.55687	0.043
Mof_C 	C 	0.98763	0.49382	0.51637	-0.006
Mof_C 	C 	0.22455	0.77545	0.9686	-0.003
Mof_H 	H 	0.23605	0.76395	0.9946	0.078
Mof_C 	C 	0.19055	0.80945	0.8902	0.043
Mof_C 	C 	0.17285	0.82715	0.8497	-0.006
Mof_C 	C 	0.89122	0.10878	0.30193	-0.003
Mof_H 	H 	0.90272	0.09728	0.32793	0.078
Mof_C 	C 	0.85722	0.14278	0.22353	0.043
Mof_C 	C 	0.83952	0.16048	0.18303	-0.006
Mof_C 	C 	0.55788	0.44212	0.63527	-0.003
Mof_H 	H 	0.56938	0.43062	0.66127	0.078
Mof_C 	C 	0.52388	0.47612	0.55687	0.043
Mof_C 	C 	0.50618	0.49382	0.51637	-0.006
Mof_C 	C 	0.4491	0.22455	0.0314	-0.003
Mof_H 	H 	0.4721	0.23605	0.0054	0.078
Mof_C 	C 	0.3811	0.19055	0.1098	0.043
Mof_C 	C 	0.3457	0.17285	0.1503	-0.006
Mof_C 	C 	0.11577	0.55788	0.36473	-0.003
Mof_H 	H 	0.13877	0.56938	0.33873	0.078
Mof_C 	C 	0.04777	0.52388	0.44313	0.043
Mof_C 	C 	0.01237	0.50618	0.48363	-0.006
Mof_C 	C 	0.78243	0.89122	0.69807	-0.003
Mof_H 	H 	0.80543	0.90272	0.67207	0.078
Mof_C 	C 	0.71443	0.85722	0.77647	0.043
Mof_C 	C 	0.67903	0.83952	0.81697	-0.006
Mof_C 	C 	0.77545	0.5509	0.0314	-0.003
Mof_H 	H 	0.76395	0.5279	0.0054	0.078
Mof_C 	C 	0.80945	0.6189	0.1098	0.043
Mof_C 	C 	0.82715	0.6543	0.1503	-0.006
Mof_C 	C 	0.44212	0.88423	0.36473	-0.003
Mof_H 	H 	0.43062	0.86123	0.33873	0.078
Mof_C 	C 	0.47612	0.95223	0.44313	0.043
Mof_C 	C 	0.49382	0.98763	0.48363	-0.006
Mof_C 	C 	0.10878	0.21757	0.69807	-0.003
Mof_H 	H 	0.09728	0.19457	0.67207	0.078
Mof_C 	C 	0.14278	0.28557	0.77647	0.043
Mof_C 	C 	0.16048	0.32097	0.81697	-0.006
Mof_C 	C 	0.77545	0.22455	0.0314	-0.003
Mof_H 	H 	0.76395	0.23605	0.0054	0.078
Mof_C 	C 	0.80945	0.19055	0.1098	0.043
Mof_C 	C 	0.82715	0.17285	0.1503	-0.006
Mof_C 	C 	0.44212	0.55788	0.36473	-0.003
Mof_H 	H 	0.43062	0.56938	0.33873	0.078
Mof_C 	C 	0.47612	0.52388	0.44313	0.043
Mof_C 	C 	0.49382	0.50618	0.48363	-0.006
Mof_C 	C 	0.10878	0.89122	0.69807	-0.003
Mof_H 	H 	0.09728	0.90272	0.67207	0.078
Mof_C 	C 	0.14278	0.85722	0.77647	0.043
Mof_C 	C 	0.16048	0.83952	0.81697	-0.006
_end
