data_functionalizedCrystal
_audit_creation_method	'EQeq! by Chris Wilmer'
_symmetry_space_group_name_H-M	'P1'
_symmetry_Int_Tables_number	1
_symmetry_cell_setting	triclinic
loop_
_symmetry_equiv_pos_as_xyz
  x,y,z
_cell_length_a	54.076
_cell_length_b	15.3088
_cell_length_c	16.0309
_cell_angle_alpha	90
_cell_angle_beta	90
_cell_angle_gamma	90
loop_
_atom_site_label
_atom_site_type_symbol
_atom_site_fract_x
_atom_site_fract_y
_atom_site_fract_z
_atom_site_charge
Mof_Zn	Zn	0.25296	0.93899	0.54909	1.228
Mof_Zn	Zn	0.20057	0.94878	0.65008	1.235
Mof_Zn	Zn	0.09555	0.67407	0.2935	1.226
Mof_Zn	Zn	0.07028	0.84885	0.33811	1.233
Mof_O 	O 	0.1009	0.7787	0.3619	-0.582
Mof_O 	O 	0.1643	0.9185	0.1618	-0.287
Mof_O 	O 	0.1841	0.0066	0.2464	-0.411
Mof_O 	O 	0.159	0.8512	0.597	-0.27
Mof_O 	O 	0.18693	0.9333	0.539	-0.442
Mof_O 	O 	0.22972	0.0178	0.6154	-0.559
Mof_O 	O 	0.2433	0.0439	0.9297	-0.371
Mof_O 	O 	0.2723	0.145	0.9386	-0.28
Mof_O 	O 	0.0721	0.8552	0.2173	-0.457
Mof_O 	O 	0.0753	0.0338	0.8652	-0.462
Mof_O 	O 	0.1349	0.6506	0.246	-0.348
Mof_O 	O 	0.0829	0.7181	0.1827	-0.45
Mof_O 	O 	0.0651	0.6339	0.3503	-0.449
Mof_O 	O 	0.0449	0.7631	0.3643	-0.488
Mof_O 	O 	0.1072	0.5512	0.2722	-0.404
Mof_O 	O 	0.214	0.4462	0.0369	-0.325
Mof_O 	O 	0.21648	0.5609	0.1183	-0.405
Mof_O 	O 	0.2849	0.3421	0.7001	-0.435
Mof_O 	O 	0.262	0.3228	0.5845	-0.453
Mof_O 	O 	0.148	0.2678	0.2047	-0.166
Mof_O 	O 	0.0718	0.0774	0.9905	-0.324
Mof_C 	C 	0.1234	0.8233	0.3681	0.284
Mof_C 	C 	0.1344	0.8571	0.2986	-0.238
Mof_H 	H 	0.1273	0.8481	0.2465	0.121
Mof_C 	C 	0.1331	0.832	0.4452	-0.222
Mof_H 	H 	0.1251	0.8088	0.4916	0.143
Mof_C 	C 	0.1562	0.9053	0.3053	0.053
Mof_C 	C 	0.1556	0.8773	0.4535	0.043
Mof_C 	C 	0.1662	0.9144	0.3862	-0.092
Mof_H 	H 	0.1806	0.947	0.3933	0.104
Mof_C 	C 	0.1682	0.9435	0.2302	0.287
Mof_C 	C 	0.1683	0.8862	0.5356	0.311
Mof_C 	C 	0.2401	0.0781	0.6709	0.287
Mof_C 	C 	0.2486	0.1555	0.636	-0.227
Mof_H 	H 	0.2465	0.1675	0.5796	0.145
Mof_C 	C 	0.2423	0.0599	0.7516	-0.258
Mof_H 	H 	0.2352	0.0088	0.7722	0.129
Mof_C 	C 	0.26	0.2128	0.6874	0.056
Mof_C 	C 	0.2547	0.1148	0.8059	0.076
Mof_C 	C 	0.2652	0.1942	0.7723	-0.108
Mof_H 	H 	0.2748	0.2314	0.8048	0.112
Mof_C 	C 	0.2571	0.1011	0.8957	0.244
Mof_C 	C 	0.206	0.4897	0.0937	0.29
Mof_C 	C 	0.1828	0.4678	0.1382	0.005
Mof_C 	C 	0.0461	0.6831	0.3623	0.356
Mof_C 	C 	0.2701	0.3013	0.653	0.325
Mof_C 	C 	0.1757	0.3775	0.1448	-0.142
Mof_H 	H 	0.1854	0.3351	0.1193	0.11
Mof_C 	C 	0.0783	0.7956	0.1635	0.33
Mof_C 	C 	0.1675	0.5287	0.171	-0.056
Mof_H 	H 	0.1717	0.5874	0.166	0.088
Mof_C 	C 	0.1549	0.3525	0.1879	0.198
Mof_C 	C 	0.1271	0.5734	0.2443	0.289
Mof_C 	C 	0.1458	0.5061	0.212	0.013
Mof_C 	C 	0.1383	0.4187	0.218	-0.136
Mof_H 	H 	0.123	0.404	0.2408	0.124
Mof_C 	C 	0.0827	0.82	0.0762	0.011
Mof_C 	C 	0.076	0.9042	0.0495	-0.094
Mof_H 	H 	0.0685	0.9425	0.0867	0.089
Mof_C 	C 	0.0908	0.7615	0.0185	-0.183
Mof_H 	H 	0.096	0.7065	0.0359	0.121
Mof_C 	C 	0.075	0.0232	0.9426	0.363
Mof_C 	C 	0.0917	0.7821	0.935	0.233
Mof_C 	C 	0.0805	0.9297	0.971	0.033
Mof_O 	O 	0.1017	0.7263	0.872	-0.172
Mof_C 	C 	0.0898	0.8704	0.914	-0.152
Mof_H 	H 	0.0948	0.8895	0.8616	0.126
Mof_C 	C 	0.0195	0.546	0.374	-0.108
Mof_H 	H 	0.0337	0.518	0.3561	0.086
Mof_C 	C 	0.0217	0.639	0.388	0.012
Mof_C 	C 	0.0227	0.545	0.404	-0.002
Mof_H 	H 	0.0377	0.5164	0.4131	0.045
Mof_C 	C 	0.0204	0.633	0.371	-0.034
Mof_Zn	Zn	0.75296	0.43899	0.54909	1.231
Mof_Zn	Zn	0.70057	0.44878	0.65008	1.237
Mof_Zn	Zn	0.59555	0.17407	0.2935	1.227
Mof_Zn	Zn	0.57028	0.34885	0.33811	1.234
Mof_O 	O 	0.6009	0.2787	0.3619	-0.58
Mof_O 	O 	0.6643	0.4185	0.1618	-0.286
Mof_O 	O 	0.6841	0.5066	0.2464	-0.416
Mof_O 	O 	0.659	0.3512	0.597	-0.268
Mof_O 	O 	0.68693	0.4333	0.539	-0.44
Mof_O 	O 	0.72972	0.5178	0.6154	-0.563
Mof_O 	O 	0.7433	0.5439	0.9297	-0.374
Mof_O 	O 	0.7723	0.645	0.9386	-0.282
Mof_O 	O 	0.5721	0.3552	0.2173	-0.456
Mof_O 	O 	0.5753	0.5338	0.8652	-0.462
Mof_O 	O 	0.6349	0.1506	0.246	-0.348
Mof_O 	O 	0.5829	0.2181	0.1827	-0.449
Mof_O 	O 	0.5651	0.1339	0.3503	-0.448
Mof_O 	O 	0.5449	0.2631	0.3643	-0.487
Mof_O 	O 	0.6072	0.0512	0.2722	-0.402
Mof_O 	O 	0.714	0.9462	0.0369	-0.325
Mof_O 	O 	0.71648	0.0609	0.1183	-0.401
Mof_O 	O 	0.7849	0.8421	0.7001	-0.436
Mof_O 	O 	0.762	0.8228	0.5845	-0.453
Mof_O 	O 	0.648	0.7678	0.2047	-0.167
Mof_O 	O 	0.5718	0.5774	0.9905	-0.323
Mof_C 	C 	0.6234	0.3233	0.3681	0.284
Mof_C 	C 	0.6344	0.3571	0.2986	-0.237
Mof_H 	H 	0.6273	0.3481	0.2465	0.121
Mof_C 	C 	0.6331	0.332	0.4452	-0.222
Mof_H 	H 	0.6251	0.3088	0.4916	0.144
Mof_C 	C 	0.6562	0.4053	0.3053	0.052
Mof_C 	C 	0.6556	0.3773	0.4535	0.044
Mof_C 	C 	0.6662	0.4144	0.3862	-0.091
Mof_H 	H 	0.6806	0.447	0.3933	0.104
Mof_C 	C 	0.6682	0.4435	0.2302	0.292
Mof_C 	C 	0.6683	0.3862	0.5356	0.311
Mof_C 	C 	0.7401	0.5781	0.6709	0.286
Mof_C 	C 	0.7486	0.6555	0.636	-0.226
Mof_H 	H 	0.7465	0.6675	0.5796	0.144
Mof_C 	C 	0.7423	0.5599	0.7516	-0.257
Mof_H 	H 	0.7352	0.5088	0.7722	0.127
Mof_C 	C 	0.76	0.7128	0.6874	0.055
Mof_C 	C 	0.7547	0.6148	0.8059	0.074
Mof_C 	C 	0.7652	0.6942	0.7723	-0.107
Mof_H 	H 	0.7748	0.7314	0.8048	0.111
Mof_C 	C 	0.7571	0.6011	0.8957	0.244
Mof_C 	C 	0.706	0.9897	0.0937	0.286
Mof_C 	C 	0.6828	0.9678	0.1382	0.001
Mof_C 	C 	0.5461	0.1831	0.3623	0.357
Mof_C 	C 	0.7701	0.8013	0.653	0.325
Mof_C 	C 	0.6757	0.8775	0.1448	-0.142
Mof_H 	H 	0.6854	0.8351	0.1193	0.111
Mof_C 	C 	0.5783	0.2956	0.1635	0.326
Mof_C 	C 	0.6675	0.0287	0.171	-0.051
Mof_H 	H 	0.6717	0.0874	0.166	0.087
Mof_C 	C 	0.6549	0.8525	0.1879	0.199
Mof_C 	C 	0.6271	0.0734	0.2443	0.288
Mof_C 	C 	0.6458	0.0061	0.212	0.019
Mof_C 	C 	0.6383	0.9187	0.218	-0.144
Mof_H 	H 	0.623	0.904	0.2408	0.125
Mof_C 	C 	0.5827	0.32	0.0762	0.02
Mof_C 	C 	0.576	0.4042	0.0495	-0.109
Mof_H 	H 	0.5685	0.4425	0.0867	0.095
Mof_C 	C 	0.5908	0.2615	0.0185	-0.194
Mof_H 	H 	0.596	0.2065	0.0359	0.124
Mof_C 	C 	0.575	0.5232	0.9426	0.352
Mof_C 	C 	0.5917	0.2821	0.935	0.243
Mof_C 	C 	0.5805	0.4297	0.971	0.051
Mof_O 	O 	0.6017	0.2263	0.872	-0.171
Mof_C 	C 	0.5898	0.3704	0.914	-0.163
Mof_H 	H 	0.5948	0.3895	0.8616	0.132
Mof_C 	C 	0.5195	0.046	0.374	-0.057
Mof_H 	H 	0.5337	0.018	0.3561	0.07
Mof_C 	C 	0.5217	0.139	0.388	0.001
Mof_C 	C 	0.5227	0.045	0.404	-0.051
Mof_H 	H 	0.5377	0.0164	0.4131	0.066
Mof_C 	C 	0.5204	0.133	0.371	-0.023
Mof_Zn	Zn	0.74704	0.06101	0.04909	1.226
Mof_Zn	Zn	0.79943	0.05122	0.15008	1.237
Mof_Zn	Zn	0.90445	0.32593	0.7935	1.228
Mof_Zn	Zn	0.92972	0.15115	0.83811	1.235
Mof_O 	O 	0.8991	0.2213	0.8619	-0.582
Mof_O 	O 	0.8357	0.0815	0.6618	-0.28
Mof_O 	O 	0.8159	0.9934	0.7464	-0.42
Mof_O 	O 	0.841	0.1488	0.097	-0.266
Mof_O 	O 	0.81307	0.0667	0.039	-0.441
Mof_O 	O 	0.77028	0.9822	0.1154	-0.569
Mof_O 	O 	0.7567	0.9561	0.4297	-0.389
Mof_O 	O 	0.7277	0.855	0.4386	-0.296
Mof_O 	O 	0.9279	0.1448	0.7173	-0.458
Mof_O 	O 	0.9247	0.9662	0.3652	-0.471
Mof_O 	O 	0.8651	0.3494	0.746	-0.345
Mof_O 	O 	0.9171	0.2819	0.6827	-0.451
Mof_O 	O 	0.9349	0.3661	0.8503	-0.445
Mof_O 	O 	0.9551	0.2369	0.8643	-0.484
Mof_O 	O 	0.8928	0.4488	0.7722	-0.4
Mof_O 	O 	0.786	0.5538	0.5369	-0.315
Mof_O 	O 	0.78352	0.4391	0.6183	-0.4
Mof_O 	O 	0.7151	0.6579	0.2001	-0.437
Mof_O 	O 	0.738	0.6772	0.0845	-0.461
Mof_O 	O 	0.852	0.7322	0.7047	-0.162
Mof_O 	O 	0.9282	0.9226	0.4905	-0.34
Mof_C 	C 	0.8766	0.1767	0.8681	0.301
Mof_C 	C 	0.8656	0.1429	0.7986	-0.25
Mof_H 	H 	0.8727	0.1519	0.7465	0.127
Mof_C 	C 	0.8669	0.168	0.9452	-0.246
Mof_H 	H 	0.8749	0.1912	0.9916	0.16
Mof_C 	C 	0.8438	0.0947	0.8053	0.067
Mof_C 	C 	0.8444	0.1227	0.9535	0.09
Mof_C 	C 	0.8338	0.0856	0.8862	-0.116
Mof_H 	H 	0.8194	0.053	0.8933	0.12
Mof_C 	C 	0.8318	0.0565	0.7302	0.294
Mof_C 	C 	0.8317	0.1138	0.0356	0.275
Mof_C 	C 	0.7599	0.9219	0.1709	0.282
Mof_C 	C 	0.7514	0.8445	0.136	-0.223
Mof_H 	H 	0.7535	0.8325	0.0796	0.138
Mof_C 	C 	0.7577	0.9401	0.2516	-0.254
Mof_H 	H 	0.7648	0.9912	0.2722	0.123
Mof_C 	C 	0.74	0.7872	0.1874	0.051
Mof_C 	C 	0.7453	0.8852	0.3059	0.067
Mof_C 	C 	0.7348	0.8058	0.2723	-0.104
Mof_H 	H 	0.7252	0.7686	0.3048	0.108
Mof_C 	C 	0.7429	0.8989	0.3957	0.247
Mof_C 	C 	0.794	0.5103	0.5937	0.288
Mof_C 	C 	0.8172	0.5322	0.6382	0.011
Mof_C 	C 	0.9539	0.3169	0.8623	0.357
Mof_C 	C 	0.7299	0.6987	0.153	0.328
Mof_C 	C 	0.8243	0.6225	0.6448	-0.143
Mof_H 	H 	0.8146	0.6649	0.6193	0.114
Mof_C 	C 	0.9217	0.2044	0.6635	0.348
Mof_C 	C 	0.8325	0.4713	0.671	-0.057
Mof_H 	H 	0.8283	0.4126	0.666	0.091
Mof_C 	C 	0.8451	0.6475	0.6879	0.202
Mof_C 	C 	0.8729	0.4266	0.7443	0.289
Mof_C 	C 	0.8542	0.4939	0.712	0.018
Mof_C 	C 	0.8617	0.5813	0.718	-0.136
Mof_H 	H 	0.877	0.596	0.7408	0.127
Mof_C 	C 	0.9173	0.18	0.5762	-0.032
Mof_C 	C 	0.924	0.0958	0.5495	-0.021
Mof_H 	H 	0.9315	0.0575	0.5867	0.074
Mof_C 	C 	0.9092	0.2385	0.5185	-0.108
Mof_H 	H 	0.904	0.2935	0.5359	0.103
Mof_C 	C 	0.925	0.9768	0.4426	0.373
Mof_C 	C 	0.9083	0.2179	0.435	0.173
Mof_C 	C 	0.9195	0.0703	0.471	-0.022
Mof_O 	O 	0.8983	0.2737	0.372	-0.167
Mof_C 	C 	0.9102	0.1296	0.414	-0.109
Mof_H 	H 	0.9052	0.1105	0.3616	0.112
Mof_C 	C 	0.9805	0.454	0.874	-0.103
Mof_H 	H 	0.9663	0.482	0.8561	0.086
Mof_C 	C 	0.9783	0.361	0.888	0.013
Mof_C 	C 	0.9773	0.455	0.904	-0.008
Mof_H 	H 	0.9623	0.4836	0.9131	0.051
Mof_C 	C 	0.9796	0.367	0.871	-0.03
Mof_Zn	Zn	0.24704	0.56101	0.04909	1.226
Mof_Zn	Zn	0.29943	0.55122	0.15008	1.236
Mof_Zn	Zn	0.40445	0.82593	0.7935	1.228
Mof_Zn	Zn	0.42972	0.65115	0.83811	1.234
Mof_O 	O 	0.3991	0.7213	0.8619	-0.583
Mof_O 	O 	0.3357	0.5815	0.6618	-0.28
Mof_O 	O 	0.3159	0.4934	0.7464	-0.412
Mof_O 	O 	0.341	0.6488	0.097	-0.267
Mof_O 	O 	0.31307	0.5667	0.039	-0.442
Mof_O 	O 	0.27028	0.4822	0.1154	-0.567
Mof_O 	O 	0.2567	0.4561	0.4297	-0.387
Mof_O 	O 	0.2277	0.355	0.4386	-0.295
Mof_O 	O 	0.4279	0.6448	0.7173	-0.459
Mof_O 	O 	0.4247	0.4662	0.3652	-0.471
Mof_O 	O 	0.3651	0.8494	0.746	-0.346
Mof_O 	O 	0.4171	0.7819	0.6827	-0.452
Mof_O 	O 	0.4349	0.8661	0.8503	-0.446
Mof_O 	O 	0.4551	0.7369	0.8643	-0.485
Mof_O 	O 	0.3928	0.9488	0.7722	-0.403
Mof_O 	O 	0.286	0.0538	0.5369	-0.314
Mof_O 	O 	0.28352	0.9391	0.6183	-0.406
Mof_O 	O 	0.2151	0.1579	0.2001	-0.437
Mof_O 	O 	0.238	0.1772	0.0845	-0.461
Mof_O 	O 	0.352	0.2322	0.7047	-0.161
Mof_O 	O 	0.4282	0.4226	0.4905	-0.34
Mof_C 	C 	0.3766	0.6767	0.8681	0.3
Mof_C 	C 	0.3656	0.6429	0.7986	-0.25
Mof_H 	H 	0.3727	0.6519	0.7465	0.127
Mof_C 	C 	0.3669	0.668	0.9452	-0.245
Mof_H 	H 	0.3749	0.6912	0.9916	0.158
Mof_C 	C 	0.3438	0.5947	0.8053	0.068
Mof_C 	C 	0.3444	0.6227	0.9535	0.087
Mof_C 	C 	0.3338	0.5856	0.8862	-0.115
Mof_H 	H 	0.3194	0.553	0.8933	0.119
Mof_C 	C 	0.3318	0.5565	0.7302	0.286
Mof_C 	C 	0.3317	0.6138	0.0356	0.277
Mof_C 	C 	0.2599	0.4219	0.1709	0.283
Mof_C 	C 	0.2514	0.3445	0.136	-0.223
Mof_H 	H 	0.2535	0.3325	0.0796	0.138
Mof_C 	C 	0.2577	0.4401	0.2516	-0.254
Mof_H 	H 	0.2648	0.4912	0.2722	0.124
Mof_C 	C 	0.24	0.2872	0.1874	0.051
Mof_C 	C 	0.2453	0.3852	0.3059	0.068
Mof_C 	C 	0.2348	0.3058	0.2723	-0.104
Mof_H 	H 	0.2252	0.2686	0.3048	0.108
Mof_C 	C 	0.2429	0.3989	0.3957	0.247
Mof_C 	C 	0.294	0.0103	0.5937	0.294
Mof_C 	C 	0.3172	0.0322	0.6382	0.017
Mof_C 	C 	0.4539	0.8169	0.8623	0.355
Mof_C 	C 	0.2299	0.1987	0.153	0.328
Mof_C 	C 	0.3243	0.1225	0.6448	-0.142
Mof_H 	H 	0.3146	0.1649	0.6193	0.114
Mof_C 	C 	0.4217	0.7044	0.6635	0.349
Mof_C 	C 	0.3325	0.9713	0.671	-0.064
Mof_H 	H 	0.3283	0.9126	0.666	0.093
Mof_C 	C 	0.3451	0.1475	0.6879	0.2
Mof_C 	C 	0.3729	0.9266	0.7443	0.29
Mof_C 	C 	0.3542	0.9939	0.712	0.01
Mof_C 	C 	0.3617	0.0813	0.718	-0.125
Mof_H 	H 	0.377	0.096	0.7408	0.126
Mof_C 	C 	0.4173	0.68	0.5762	-0.035
Mof_C 	C 	0.424	0.5958	0.5495	-0.017
Mof_H 	H 	0.4315	0.5575	0.5867	0.072
Mof_C 	C 	0.4092	0.7385	0.5185	-0.106
Mof_H 	H 	0.404	0.7935	0.5359	0.102
Mof_C 	C 	0.425	0.4768	0.4426	0.378
Mof_C 	C 	0.4083	0.7179	0.435	0.17
Mof_C 	C 	0.4195	0.5703	0.471	-0.029
Mof_O 	O 	0.3983	0.7737	0.372	-0.168
Mof_C 	C 	0.4102	0.6296	0.414	-0.105
Mof_H 	H 	0.4052	0.6105	0.3616	0.109
Mof_C 	C 	0.4805	0.954	0.874	-0.169
Mof_H 	H 	0.4663	0.982	0.8561	0.106
Mof_C 	C 	0.4783	0.861	0.888	0.027
Mof_C 	C 	0.4773	0.955	0.904	0.056
Mof_H 	H 	0.4623	0.9836	0.9131	0.025
Mof_C 	C 	0.4796	0.867	0.871	-0.045
Mof_Zn	Zn	0.25296	0.06101	0.04909	1.226
Mof_Zn	Zn	0.20057	0.05122	0.15008	1.237
Mof_Zn	Zn	0.09555	0.32593	0.7935	1.228
Mof_Zn	Zn	0.07028	0.15115	0.83811	1.235
Mof_O 	O 	0.1009	0.2213	0.8619	-0.582
Mof_O 	O 	0.1643	0.0815	0.6618	-0.28
Mof_O 	O 	0.1841	0.9934	0.7464	-0.42
Mof_O 	O 	0.159	0.1488	0.097	-0.266
Mof_O 	O 	0.18693	0.0667	0.039	-0.441
Mof_O 	O 	0.22972	0.9822	0.1154	-0.569
Mof_O 	O 	0.2433	0.9561	0.4297	-0.389
Mof_O 	O 	0.2723	0.855	0.4386	-0.296
Mof_O 	O 	0.0721	0.1448	0.7173	-0.458
Mof_O 	O 	0.0753	0.9662	0.3652	-0.471
Mof_O 	O 	0.1349	0.3494	0.746	-0.345
Mof_O 	O 	0.0829	0.2819	0.6827	-0.451
Mof_O 	O 	0.0651	0.3661	0.8503	-0.445
Mof_O 	O 	0.0449	0.2369	0.8643	-0.484
Mof_O 	O 	0.1072	0.4488	0.7722	-0.4
Mof_O 	O 	0.214	0.5538	0.5369	-0.315
Mof_O 	O 	0.21648	0.4391	0.6183	-0.4
Mof_O 	O 	0.2849	0.6579	0.2001	-0.437
Mof_O 	O 	0.262	0.6772	0.0845	-0.461
Mof_O 	O 	0.148	0.7322	0.7047	-0.162
Mof_O 	O 	0.0718	0.9226	0.4905	-0.34
Mof_C 	C 	0.1234	0.1767	0.8681	0.301
Mof_C 	C 	0.1344	0.1429	0.7986	-0.25
Mof_H 	H 	0.1273	0.1519	0.7465	0.127
Mof_C 	C 	0.1331	0.168	0.9452	-0.246
Mof_H 	H 	0.1251	0.1912	0.9916	0.16
Mof_C 	C 	0.1562	0.0947	0.8053	0.067
Mof_C 	C 	0.1556	0.1227	0.9535	0.09
Mof_C 	C 	0.1662	0.0856	0.8862	-0.116
Mof_H 	H 	0.1806	0.053	0.8933	0.12
Mof_C 	C 	0.1682	0.0565	0.7302	0.294
Mof_C 	C 	0.1683	0.1138	0.0356	0.275
Mof_C 	C 	0.2401	0.9219	0.1709	0.282
Mof_C 	C 	0.2486	0.8445	0.136	-0.223
Mof_H 	H 	0.2465	0.8325	0.0796	0.138
Mof_C 	C 	0.2423	0.9401	0.2516	-0.254
Mof_H 	H 	0.2352	0.9912	0.2722	0.123
Mof_C 	C 	0.26	0.7872	0.1874	0.051
Mof_C 	C 	0.2547	0.8852	0.3059	0.067
Mof_C 	C 	0.2652	0.8058	0.2723	-0.104
Mof_H 	H 	0.2748	0.7686	0.3048	0.108
Mof_C 	C 	0.2571	0.8989	0.3957	0.247
Mof_C 	C 	0.206	0.5103	0.5937	0.288
Mof_C 	C 	0.1828	0.5322	0.6382	0.011
Mof_C 	C 	0.0461	0.3169	0.8623	0.357
Mof_C 	C 	0.2701	0.6987	0.153	0.328
Mof_C 	C 	0.1757	0.6225	0.6448	-0.143
Mof_H 	H 	0.1854	0.6649	0.6193	0.114
Mof_C 	C 	0.0783	0.2044	0.6635	0.348
Mof_C 	C 	0.1675	0.4713	0.671	-0.057
Mof_H 	H 	0.1717	0.4126	0.666	0.091
Mof_C 	C 	0.1549	0.6475	0.6879	0.202
Mof_C 	C 	0.1271	0.4266	0.7443	0.289
Mof_C 	C 	0.1458	0.4939	0.712	0.018
Mof_C 	C 	0.1383	0.5813	0.718	-0.136
Mof_H 	H 	0.123	0.596	0.7408	0.127
Mof_C 	C 	0.0827	0.18	0.5762	-0.033
Mof_C 	C 	0.076	0.0958	0.5495	-0.021
Mof_H 	H 	0.0685	0.0575	0.5867	0.074
Mof_C 	C 	0.0908	0.2385	0.5185	-0.108
Mof_H 	H 	0.096	0.2935	0.5359	0.103
Mof_C 	C 	0.075	0.9768	0.4426	0.373
Mof_C 	C 	0.0917	0.2179	0.435	0.173
Mof_C 	C 	0.0805	0.0703	0.471	-0.022
Mof_O 	O 	0.1017	0.2737	0.372	-0.167
Mof_C 	C 	0.0898	0.1296	0.414	-0.109
Mof_H 	H 	0.0948	0.1105	0.3616	0.112
Mof_C 	C 	0.0195	0.454	0.874	-0.103
Mof_H 	H 	0.0337	0.482	0.8561	0.086
Mof_C 	C 	0.0217	0.361	0.888	0.012
Mof_C 	C 	0.0227	0.455	0.904	-0.008
Mof_H 	H 	0.0377	0.4836	0.9131	0.051
Mof_C 	C 	0.0204	0.367	0.871	-0.03
Mof_Zn	Zn	0.75296	0.56101	0.04909	1.226
Mof_Zn	Zn	0.70057	0.55122	0.15008	1.236
Mof_Zn	Zn	0.59555	0.82593	0.7935	1.228
Mof_Zn	Zn	0.57028	0.65115	0.83811	1.234
Mof_O 	O 	0.6009	0.7213	0.8619	-0.583
Mof_O 	O 	0.6643	0.5815	0.6618	-0.28
Mof_O 	O 	0.6841	0.4934	0.7464	-0.412
Mof_O 	O 	0.659	0.6488	0.097	-0.267
Mof_O 	O 	0.68693	0.5667	0.039	-0.442
Mof_O 	O 	0.72972	0.4822	0.1154	-0.567
Mof_O 	O 	0.7433	0.4561	0.4297	-0.387
Mof_O 	O 	0.7723	0.355	0.4386	-0.295
Mof_O 	O 	0.5721	0.6448	0.7173	-0.459
Mof_O 	O 	0.5753	0.4662	0.3652	-0.471
Mof_O 	O 	0.6349	0.8494	0.746	-0.346
Mof_O 	O 	0.5829	0.7819	0.6827	-0.452
Mof_O 	O 	0.5651	0.8661	0.8503	-0.446
Mof_O 	O 	0.5449	0.7369	0.8643	-0.485
Mof_O 	O 	0.6072	0.9488	0.7722	-0.403
Mof_O 	O 	0.714	0.0538	0.5369	-0.314
Mof_O 	O 	0.71648	0.9391	0.6183	-0.406
Mof_O 	O 	0.7849	0.1579	0.2001	-0.437
Mof_O 	O 	0.762	0.1772	0.0845	-0.461
Mof_O 	O 	0.648	0.2322	0.7047	-0.161
Mof_O 	O 	0.5718	0.4226	0.4905	-0.34
Mof_C 	C 	0.6234	0.6767	0.8681	0.3
Mof_C 	C 	0.6344	0.6429	0.7986	-0.25
Mof_H 	H 	0.6273	0.6519	0.7465	0.127
Mof_C 	C 	0.6331	0.668	0.9452	-0.245
Mof_H 	H 	0.6251	0.6912	0.9916	0.158
Mof_C 	C 	0.6562	0.5947	0.8053	0.068
Mof_C 	C 	0.6556	0.6227	0.9535	0.087
Mof_C 	C 	0.6662	0.5856	0.8862	-0.115
Mof_H 	H 	0.6806	0.553	0.8933	0.119
Mof_C 	C 	0.6682	0.5565	0.7302	0.286
Mof_C 	C 	0.6683	0.6138	0.0356	0.277
Mof_C 	C 	0.7401	0.4219	0.1709	0.283
Mof_C 	C 	0.7486	0.3445	0.136	-0.223
Mof_H 	H 	0.7465	0.3325	0.0796	0.138
Mof_C 	C 	0.7423	0.4401	0.2516	-0.254
Mof_H 	H 	0.7352	0.4912	0.2722	0.124
Mof_C 	C 	0.76	0.2872	0.1874	0.051
Mof_C 	C 	0.7547	0.3852	0.3059	0.068
Mof_C 	C 	0.7652	0.3058	0.2723	-0.104
Mof_H 	H 	0.7748	0.2686	0.3048	0.108
Mof_C 	C 	0.7571	0.3989	0.3957	0.247
Mof_C 	C 	0.706	0.0103	0.5937	0.294
Mof_C 	C 	0.6828	0.0322	0.6382	0.017
Mof_C 	C 	0.5461	0.8169	0.8623	0.355
Mof_C 	C 	0.7701	0.1987	0.153	0.328
Mof_C 	C 	0.6757	0.1225	0.6448	-0.142
Mof_H 	H 	0.6854	0.1649	0.6193	0.114
Mof_C 	C 	0.5783	0.7044	0.6635	0.349
Mof_C 	C 	0.6675	0.9713	0.671	-0.064
Mof_H 	H 	0.6717	0.9126	0.666	0.093
Mof_C 	C 	0.6549	0.1475	0.6879	0.2
Mof_C 	C 	0.6271	0.9266	0.7443	0.29
Mof_C 	C 	0.6458	0.9939	0.712	0.01
Mof_C 	C 	0.6383	0.0813	0.718	-0.125
Mof_H 	H 	0.623	0.096	0.7408	0.126
Mof_C 	C 	0.5827	0.68	0.5762	-0.035
Mof_C 	C 	0.576	0.5958	0.5495	-0.017
Mof_H 	H 	0.5685	0.5575	0.5867	0.072
Mof_C 	C 	0.5908	0.7385	0.5185	-0.106
Mof_H 	H 	0.596	0.7935	0.5359	0.102
Mof_C 	C 	0.575	0.4768	0.4426	0.378
Mof_C 	C 	0.5917	0.7179	0.435	0.17
Mof_C 	C 	0.5805	0.5703	0.471	-0.029
Mof_O 	O 	0.6017	0.7737	0.372	-0.168
Mof_C 	C 	0.5898	0.6296	0.414	-0.105
Mof_H 	H 	0.5948	0.6105	0.3616	0.109
Mof_C 	C 	0.5195	0.954	0.874	-0.169
Mof_H 	H 	0.5337	0.982	0.8561	0.106
Mof_C 	C 	0.5217	0.861	0.888	0.027
Mof_C 	C 	0.5227	0.955	0.904	0.056
Mof_H 	H 	0.5377	0.9836	0.9131	0.025
Mof_C 	C 	0.5204	0.867	0.871	-0.045
Mof_Zn	Zn	0.74704	0.93899	0.54909	1.229
Mof_Zn	Zn	0.79943	0.94878	0.65008	1.236
Mof_Zn	Zn	0.90445	0.67407	0.2935	1.227
Mof_Zn	Zn	0.92972	0.84885	0.33811	1.234
Mof_O 	O 	0.8991	0.7787	0.3619	-0.581
Mof_O 	O 	0.8357	0.9185	0.1618	-0.286
Mof_O 	O 	0.8159	0.0066	0.2464	-0.411
Mof_O 	O 	0.841	0.8512	0.597	-0.27
Mof_O 	O 	0.81307	0.9333	0.539	-0.442
Mof_O 	O 	0.77028	0.0178	0.6154	-0.559
Mof_O 	O 	0.7567	0.0439	0.9297	-0.371
Mof_O 	O 	0.7277	0.145	0.9386	-0.28
Mof_O 	O 	0.9279	0.8552	0.2173	-0.457
Mof_O 	O 	0.9247	0.0338	0.8652	-0.462
Mof_O 	O 	0.8651	0.6506	0.246	-0.348
Mof_O 	O 	0.9171	0.7181	0.1827	-0.45
Mof_O 	O 	0.9349	0.6339	0.3503	-0.449
Mof_O 	O 	0.9551	0.7631	0.3643	-0.488
Mof_O 	O 	0.8928	0.5512	0.2722	-0.404
Mof_O 	O 	0.786	0.4462	0.0369	-0.325
Mof_O 	O 	0.78352	0.5609	0.1183	-0.405
Mof_O 	O 	0.7151	0.3421	0.7001	-0.435
Mof_O 	O 	0.738	0.3228	0.5845	-0.453
Mof_O 	O 	0.852	0.2678	0.2047	-0.166
Mof_O 	O 	0.9282	0.0774	0.9905	-0.324
Mof_C 	C 	0.8766	0.8233	0.3681	0.284
Mof_C 	C 	0.8656	0.8571	0.2986	-0.238
Mof_H 	H 	0.8727	0.8481	0.2465	0.121
Mof_C 	C 	0.8669	0.832	0.4452	-0.222
Mof_H 	H 	0.8749	0.8088	0.4916	0.143
Mof_C 	C 	0.8438	0.9053	0.3053	0.053
Mof_C 	C 	0.8444	0.8773	0.4535	0.043
Mof_C 	C 	0.8338	0.9144	0.3862	-0.092
Mof_H 	H 	0.8194	0.947	0.3933	0.104
Mof_C 	C 	0.8318	0.9435	0.2302	0.287
Mof_C 	C 	0.8317	0.8862	0.5356	0.311
Mof_C 	C 	0.7599	0.0781	0.6709	0.287
Mof_C 	C 	0.7514	0.1555	0.636	-0.227
Mof_H 	H 	0.7535	0.1675	0.5796	0.145
Mof_C 	C 	0.7577	0.0599	0.7516	-0.258
Mof_H 	H 	0.7648	0.0088	0.7722	0.129
Mof_C 	C 	0.74	0.2128	0.6874	0.056
Mof_C 	C 	0.7453	0.1148	0.8059	0.076
Mof_C 	C 	0.7348	0.1942	0.7723	-0.108
Mof_H 	H 	0.7252	0.2314	0.8048	0.112
Mof_C 	C 	0.7429	0.1011	0.8957	0.244
Mof_C 	C 	0.794	0.4897	0.0937	0.29
Mof_C 	C 	0.8172	0.4678	0.1382	0.005
Mof_C 	C 	0.9539	0.6831	0.3623	0.356
Mof_C 	C 	0.7299	0.3013	0.653	0.325
Mof_C 	C 	0.8243	0.3775	0.1448	-0.142
Mof_H 	H 	0.8146	0.3351	0.1193	0.11
Mof_C 	C 	0.9217	0.7956	0.1635	0.33
Mof_C 	C 	0.8325	0.5287	0.171	-0.056
Mof_H 	H 	0.8283	0.5874	0.166	0.088
Mof_C 	C 	0.8451	0.3525	0.1879	0.198
Mof_C 	C 	0.8729	0.5734	0.2443	0.289
Mof_C 	C 	0.8542	0.5061	0.212	0.013
Mof_C 	C 	0.8617	0.4187	0.218	-0.136
Mof_H 	H 	0.877	0.404	0.2408	0.124
Mof_C 	C 	0.9173	0.82	0.0762	0.011
Mof_C 	C 	0.924	0.9042	0.0495	-0.094
Mof_H 	H 	0.9315	0.9425	0.0867	0.089
Mof_C 	C 	0.9092	0.7615	0.0185	-0.183
Mof_H 	H 	0.904	0.7065	0.0359	0.121
Mof_C 	C 	0.925	0.0232	0.9426	0.363
Mof_C 	C 	0.9083	0.7821	0.935	0.233
Mof_C 	C 	0.9195	0.9297	0.971	0.033
Mof_O 	O 	0.8983	0.7263	0.872	-0.172
Mof_C 	C 	0.9102	0.8704	0.914	-0.152
Mof_H 	H 	0.9052	0.8895	0.8616	0.126
Mof_C 	C 	0.9805	0.546	0.374	-0.108
Mof_H 	H 	0.9663	0.518	0.3561	0.086
Mof_C 	C 	0.9783	0.639	0.388	0.012
Mof_C 	C 	0.9773	0.545	0.404	-0.002
Mof_H 	H 	0.9623	0.5164	0.4131	0.045
Mof_C 	C 	0.9796	0.633	0.371	-0.034
Mof_Zn	Zn	0.24704	0.43899	0.54909	1.231
Mof_Zn	Zn	0.29943	0.44878	0.65008	1.237
Mof_Zn	Zn	0.40445	0.17407	0.2935	1.227
Mof_Zn	Zn	0.42972	0.34885	0.33811	1.234
Mof_O 	O 	0.3991	0.2787	0.3619	-0.58
Mof_O 	O 	0.3357	0.4185	0.1618	-0.286
Mof_O 	O 	0.3159	0.5066	0.2464	-0.416
Mof_O 	O 	0.341	0.3512	0.597	-0.268
Mof_O 	O 	0.31307	0.4333	0.539	-0.44
Mof_O 	O 	0.27028	0.5178	0.6154	-0.563
Mof_O 	O 	0.2567	0.5439	0.9297	-0.374
Mof_O 	O 	0.2277	0.645	0.9386	-0.282
Mof_O 	O 	0.4279	0.3552	0.2173	-0.456
Mof_O 	O 	0.4247	0.5338	0.8652	-0.462
Mof_O 	O 	0.3651	0.1506	0.246	-0.348
Mof_O 	O 	0.4171	0.2181	0.1827	-0.449
Mof_O 	O 	0.4349	0.1339	0.3503	-0.448
Mof_O 	O 	0.4551	0.2631	0.3643	-0.487
Mof_O 	O 	0.3928	0.0512	0.2722	-0.402
Mof_O 	O 	0.286	0.9462	0.0369	-0.325
Mof_O 	O 	0.28352	0.0609	0.1183	-0.401
Mof_O 	O 	0.2151	0.8421	0.7001	-0.436
Mof_O 	O 	0.238	0.8228	0.5845	-0.453
Mof_O 	O 	0.352	0.7678	0.2047	-0.167
Mof_O 	O 	0.4282	0.5774	0.9905	-0.323
Mof_C 	C 	0.3766	0.3233	0.3681	0.284
Mof_C 	C 	0.3656	0.3571	0.2986	-0.237
Mof_H 	H 	0.3727	0.3481	0.2465	0.121
Mof_C 	C 	0.3669	0.332	0.4452	-0.222
Mof_H 	H 	0.3749	0.3088	0.4916	0.144
Mof_C 	C 	0.3438	0.4053	0.3053	0.052
Mof_C 	C 	0.3444	0.3773	0.4535	0.044
Mof_C 	C 	0.3338	0.4144	0.3862	-0.091
Mof_H 	H 	0.3194	0.447	0.3933	0.104
Mof_C 	C 	0.3318	0.4435	0.2302	0.292
Mof_C 	C 	0.3317	0.3862	0.5356	0.311
Mof_C 	C 	0.2599	0.5781	0.6709	0.286
Mof_C 	C 	0.2514	0.6555	0.636	-0.226
Mof_H 	H 	0.2535	0.6675	0.5796	0.144
Mof_C 	C 	0.2577	0.5599	0.7516	-0.257
Mof_H 	H 	0.2648	0.5088	0.7722	0.127
Mof_C 	C 	0.24	0.7128	0.6874	0.055
Mof_C 	C 	0.2453	0.6148	0.8059	0.074
Mof_C 	C 	0.2348	0.6942	0.7723	-0.107
Mof_H 	H 	0.2252	0.7314	0.8048	0.111
Mof_C 	C 	0.2429	0.6011	0.8957	0.244
Mof_C 	C 	0.294	0.9897	0.0937	0.286
Mof_C 	C 	0.3172	0.9678	0.1382	0.001
Mof_C 	C 	0.4539	0.1831	0.3623	0.357
Mof_C 	C 	0.2299	0.8013	0.653	0.325
Mof_C 	C 	0.3243	0.8775	0.1448	-0.142
Mof_H 	H 	0.3146	0.8351	0.1193	0.111
Mof_C 	C 	0.4217	0.2956	0.1635	0.326
Mof_C 	C 	0.3325	0.0287	0.171	-0.051
Mof_H 	H 	0.3283	0.0874	0.166	0.087
Mof_C 	C 	0.3451	0.8525	0.1879	0.199
Mof_C 	C 	0.3729	0.0734	0.2443	0.288
Mof_C 	C 	0.3542	0.0061	0.212	0.019
Mof_C 	C 	0.3617	0.9187	0.218	-0.144
Mof_H 	H 	0.377	0.904	0.2408	0.125
Mof_C 	C 	0.4173	0.32	0.0762	0.02
Mof_C 	C 	0.424	0.4042	0.0495	-0.109
Mof_H 	H 	0.4315	0.4425	0.0867	0.095
Mof_C 	C 	0.4092	0.2615	0.0185	-0.194
Mof_H 	H 	0.404	0.2065	0.0359	0.124
Mof_C 	C 	0.425	0.5232	0.9426	0.352
Mof_C 	C 	0.4083	0.2821	0.935	0.243
Mof_C 	C 	0.4195	0.4297	0.971	0.051
Mof_O 	O 	0.3983	0.2263	0.872	-0.171
Mof_C 	C 	0.4102	0.3704	0.914	-0.163
Mof_H 	H 	0.4052	0.3895	0.8616	0.132
Mof_C 	C 	0.4805	0.046	0.374	-0.057
Mof_H 	H 	0.4663	0.018	0.3561	0.07
Mof_C 	C 	0.4783	0.139	0.388	0.001
Mof_C 	C 	0.4773	0.045	0.404	-0.051
Mof_H 	H 	0.4623	0.0164	0.4131	0.066
Mof_C 	C 	0.4796	0.133	0.371	-0.023
Mof_O 	O 	4.29045e-34	0.409	0.386	-0.059
Mof_C 	C 	1.37679e-33	0.498	0.383	-0.029
Mof_C 	C 	-5.40931e-34	0.676	0.369	-0.018
Mof_H 	H 	3.23293e-33	0.7299	0.3416	0.042
Mof_C 	C 	4.65724e-34	0.508	0.419	0.189
Mof_O 	O 	2.38678e-33	0.416	0.436	-0.128
Mof_C 	C 	-2.42864e-33	0.676	0.382	-0.022
Mof_H 	H 	-1.46111e-33	0.7348	0.3968	0.051
Mof_O 	O 	0.5	0.909	0.386	-0.112
Mof_C 	C 	0.5	0.998	0.383	0.11
Mof_C 	C 	0.5	0.176	0.369	-0.015
Mof_H 	H 	0.5	0.2299	0.3416	0.04
Mof_C 	C 	0.5	0.008	0.419	0.046
Mof_O 	O 	0.5	0.916	0.436	-0.084
Mof_C 	C 	0.5	0.176	0.382	-0.026
Mof_H 	H 	0.5	0.2348	0.3968	0.055
Mof_O 	O 	9.84802e-34	0.591	0.886	-0.063
Mof_C 	C 	9.81467e-34	0.502	0.883	-0.015
Mof_C 	C 	9.65906e-34	0.324	0.869	-0.019
Mof_H 	H 	-9.66708e-34	0.2701	0.8416	0.044
Mof_C 	C 	1.02148e-33	0.492	0.919	0.178
Mof_O 	O 	-2.76394e-33	0.584	0.936	-0.117
Mof_C 	C 	4.78467e-33	0.324	0.882	-0.024
Mof_H 	H 	9.96806e-34	0.2652	0.8968	0.055
Mof_O 	O 	0.5	0.091	0.886	0.007
Mof_C 	C 	0.5	0.002	0.883	-0.199
Mof_C 	C 	0.5	0.824	0.869	-0.022
Mof_H 	H 	0.5	0.7701	0.8416	0.046
Mof_C 	C 	0.5	0.992	0.919	0.366
Mof_O 	O 	0.5	0.084	0.936	-0.173
Mof_C 	C 	0.5	0.824	0.882	-0.018
Mof_H 	H 	0.5	0.7652	0.8968	0.05
_end
