data_functionalizedCrystal
_audit_creation_method	'EQeq! by Chris Wilmer'
_symmetry_space_group_name_H-M	'P1'
_symmetry_Int_Tables_number	1
_symmetry_cell_setting	triclinic
loop_
_symmetry_equiv_pos_as_xyz
  x,y,z
_cell_length_a	6.608
_cell_length_b	7.7998
_cell_length_c	10.617
_cell_angle_alpha	111.551
_cell_angle_beta	104.75
_cell_angle_gamma	90
loop_
_atom_site_label
_atom_site_type_symbol
_atom_site_fract_x
_atom_site_fract_y
_atom_site_fract_z
_atom_site_charge
Mof_Al	Al	-0	0	-0	1.53
Mof_Al	Al	0.5	0	-0	2.579
Mof_C 	C 	0.908	0.949	0.358	-0.01
Mof_C 	C 	0.124	0.952	0.424	-0.101
Mof_C 	C 	0.19	0.975	0.57	0.445
Mof_C 	C 	0.048	0.014	0.648	-0.675
Mof_C 	C 	0.832	0.011	0.582	-0.064
Mof_C 	C 	0.77	0.98	0.44	0.277
Mof_C 	C 	0.844	0.917	0.214	0.56
Mof_C 	C 	0.112	0.036	0.792	0.53
Mof_C 	C 	0.408	0.409	0.358	-0.326
Mof_C 	C 	0.624	0.472	0.424	0.148
Mof_C 	C 	0.69	0.595	0.57	-0.038
Mof_C 	C 	0.548	0.634	0.648	-0.091
Mof_C 	C 	0.332	0.571	0.582	-0.048
Mof_C 	C 	0.27	0.46	0.44	0.063
Mof_C 	C 	0.344	0.297	0.214	0.634
Mof_C 	C 	0.612	0.756	0.792	0.584
Mof_N 	N 	0.276	0.913	0.346	-0.138
Mof_N 	N 	0.776	0.433	0.346	-0.203
Mof_O 	O 	0.974	0.892	0.144	-0.375
Mof_O 	O 	0.656	0.922	0.156	-0.601
Mof_O 	O 	0.3	0.037	0.85	-0.759
Mof_O 	O 	0.982	0.066	0.862	-0.427
Mof_O 	O 	0.26625	0.89234	0.00528	-1.066
Mof_O 	O 	0.474	0.252	0.144	-0.812
Mof_O 	O 	0.156	0.234	0.156	-0.734
Mof_O 	O 	0.8	0.813	0.85	-0.32
Mof_O 	O 	0.482	0.796	0.862	-0.674
Mof_O 	O 	0.76625	0.11294	0.00528	-1.146
Mof_H 	H 	0.36019	0.96067	0.62015	0.048
Mof_H 	H 	0.71226	0.03391	0.64573	-0.021
Mof_H 	H 	0.59725	0.97931	0.38545	0.006
Mof_H 	H 	0.86019	0.65948	0.62015	0.133
Mof_H 	H 	0.21226	0.61182	0.64573	0.032
Mof_H 	H 	0.09725	0.40613	0.38545	-0.101
Mof_H 	H 	0.22872	0.82153	0.23268	0.055
Mof_H 	H 	0.44182	0.97405	0.39849	0.129
Mof_H 	H 	0.72872	0.34153	0.23268	0.088
Mof_H 	H 	0.94182	0.49405	0.39849	0.153
Mof_H 	H 	0.76625	0.25079	0.04248	0.291
Mof_H 	H 	0.26625	0.75449	0.96808	0.445
_end
