data_functionalizedCrystal
_audit_creation_method	'EQeq! by Chris Wilmer'
_symmetry_space_group_name_H-M	'P1'
_symmetry_Int_Tables_number	1
_symmetry_cell_setting	triclinic
loop_
_symmetry_equiv_pos_as_xyz
  x,y,z
_cell_length_a	18.7209
_cell_length_b	18.7209
_cell_length_c	18.7209
_cell_angle_alpha	60
_cell_angle_beta	60
_cell_angle_gamma	60
loop_
_atom_site_label
_atom_site_type_symbol
_atom_site_fract_x
_atom_site_fract_y
_atom_site_fract_z
_atom_site_charge
Mof_Ca	Ca	0.5	0.5	0.5	1.649
Mof_Ca	Ca	1.22522e-17	0	0.5	1.006
Mof_Ca	Ca	-0	0.5	-0	1.007
Mof_Ca	Ca	1.22522e-17	0.5	0.5	1.326
Mof_Ca	Ca	0.5	0.5	-0	1.334
Mof_Ca	Ca	-0	0	-0	0.688
Mof_Ca	Ca	0.5	0	0.5	1.335
Mof_Ca	Ca	0.5	0	-0	1.015
Mof_Dy	Dy	0.75	0.25	0.25	2.265
Mof_Dy	Dy	0.75	0.25	0.75	2.28
Mof_Dy	Dy	0.75	0.75	0.25	2.28
Mof_Dy	Dy	0.25	0.25	0.25	2.25
Mof_Dy	Dy	0.25	0.75	0.75	2.278
Mof_Dy	Dy	0.25	0.75	0.25	2.264
Mof_Dy	Dy	0.25	0.25	0.75	2.264
Mof_Dy	Dy	0.75	0.75	0.75	2.293
Mof_H 	H 	0.516	0.4164	0.3448	0.098
Mof_H 	H 	0.5763	0.4741	0.2949	0.095
Mof_H 	H 	0.9164	0.016	0.7228	0.089
Mof_H 	H 	0.9741	0.0763	0.6547	0.129
Mof_H 	H 	0.8448	0.7228	0.016	0.064
Mof_H 	H 	0.7949	0.6547	0.0763	0.065
Mof_H 	H 	0.2228	0.3448	0.4164	0.098
Mof_H 	H 	0.1547	0.2949	0.4741	0.079
Mof_H 	H 	0.516	0.3448	0.7228	0.105
Mof_H 	H 	0.5763	0.2949	0.6547	0.097
Mof_H 	H 	0.9164	0.7228	0.3448	0.153
Mof_H 	H 	0.9741	0.6547	0.2949	0.166
Mof_H 	H 	0.8448	0.016	0.4164	0.057
Mof_H 	H 	0.7949	0.0763	0.4741	0.064
Mof_H 	H 	0.2228	0.4164	0.016	0.032
Mof_H 	H 	0.1547	0.4741	0.0763	0.04
Mof_H 	H 	0.516	0.7228	0.4164	0.106
Mof_H 	H 	0.5763	0.6547	0.4741	0.102
Mof_H 	H 	0.9164	0.3448	0.016	0.081
Mof_H 	H 	0.9741	0.2949	0.0763	0.123
Mof_H 	H 	0.8448	0.4164	0.7228	0.128
Mof_H 	H 	0.7949	0.4741	0.6547	0.107
Mof_H 	H 	0.2228	0.016	0.3448	0.03
Mof_H 	H 	0.1547	0.0763	0.2949	0.034
Mof_H 	H 	0.5836	0.484	0.1552	0.083
Mof_H 	H 	0.5259	0.4237	0.2051	0.099
Mof_H 	H 	0.984	0.0836	0.7772	0.131
Mof_H 	H 	0.9237	0.0259	0.8453	0.111
Mof_H 	H 	0.2772	0.1552	0.484	0.076
Mof_H 	H 	0.3453	0.2051	0.4237	0.098
Mof_H 	H 	0.6552	0.7772	0.0836	0.062
Mof_H 	H 	0.7051	0.8453	0.0259	0.067
Mof_H 	H 	0.6552	0.484	0.7772	0.105
Mof_H 	H 	0.7051	0.4237	0.8453	0.126
Mof_H 	H 	0.2772	0.0836	0.1552	0.03
Mof_H 	H 	0.3453	0.0259	0.2051	0.035
Mof_H 	H 	0.984	0.1552	0.0836	0.11
Mof_H 	H 	0.9237	0.2051	0.0259	0.09
Mof_H 	H 	0.5836	0.7772	0.484	0.104
Mof_H 	H 	0.5259	0.8453	0.4237	0.121
Mof_H 	H 	0.2772	0.484	0.0836	0.05
Mof_H 	H 	0.3453	0.4237	0.0259	0.035
Mof_H 	H 	0.6552	0.0836	0.484	0.059
Mof_H 	H 	0.7051	0.0259	0.4237	0.043
Mof_H 	H 	0.5836	0.1552	0.7772	0.085
Mof_H 	H 	0.5259	0.2051	0.8453	0.122
Mof_H 	H 	0.984	0.7772	0.1552	0.156
Mof_H 	H 	0.9237	0.8453	0.2051	0.172
Mof_H 	H 	0.484	0.5836	0.6552	0.102
Mof_H 	H 	0.4237	0.5259	0.7051	0.105
Mof_H 	H 	0.0836	0.984	0.2772	0.121
Mof_H 	H 	0.0259	0.9237	0.3453	0.086
Mof_H 	H 	0.1552	0.2772	0.984	0.147
Mof_H 	H 	0.2051	0.3453	0.9237	0.149
Mof_H 	H 	0.7772	0.6552	0.5836	0.105
Mof_H 	H 	0.8453	0.7051	0.5259	0.127
Mof_H 	H 	0.484	0.6552	0.2772	0.096
Mof_H 	H 	0.4237	0.7051	0.3453	0.103
Mof_H 	H 	0.0836	0.2772	0.6552	0.05
Mof_H 	H 	0.0259	0.3453	0.7051	0.04
Mof_H 	H 	0.1552	0.984	0.5836	0.152
Mof_H 	H 	0.2051	0.9237	0.5259	0.151
Mof_H 	H 	0.7772	0.5836	0.984	0.171
Mof_H 	H 	0.8453	0.5259	0.9237	0.17
Mof_H 	H 	0.484	0.2772	0.5836	0.095
Mof_H 	H 	0.4237	0.3453	0.5259	0.098
Mof_H 	H 	0.0836	0.6552	0.984	0.127
Mof_H 	H 	0.0259	0.7051	0.9237	0.092
Mof_H 	H 	0.1552	0.5836	0.2772	0.075
Mof_H 	H 	0.2051	0.5259	0.3453	0.098
Mof_H 	H 	0.7772	0.984	0.6552	0.171
Mof_H 	H 	0.8453	0.9237	0.7051	0.173
Mof_H 	H 	0.4164	0.516	0.8448	0.122
Mof_H 	H 	0.4741	0.5763	0.7949	0.107
Mof_H 	H 	0.016	0.9164	0.2228	0.079
Mof_H 	H 	0.0763	0.9741	0.1547	0.11
Mof_H 	H 	0.7228	0.8448	0.516	0.128
Mof_H 	H 	0.6547	0.7949	0.5763	0.108
Mof_H 	H 	0.3448	0.2228	0.9164	0.147
Mof_H 	H 	0.2949	0.1547	0.9741	0.15
Mof_H 	H 	0.3448	0.516	0.2228	0.098
Mof_H 	H 	0.2949	0.5763	0.1547	0.08
Mof_H 	H 	0.7228	0.9164	0.8448	0.171
Mof_H 	H 	0.6547	0.9741	0.7949	0.172
Mof_H 	H 	0.016	0.8448	0.9164	0.101
Mof_H 	H 	0.0763	0.7949	0.9741	0.13
Mof_H 	H 	0.4164	0.2228	0.516	0.1
Mof_H 	H 	0.4741	0.1547	0.5763	0.086
Mof_H 	H 	0.7228	0.516	0.9164	0.153
Mof_H 	H 	0.6547	0.5763	0.9741	0.169
Mof_H 	H 	0.3448	0.9164	0.516	0.146
Mof_H 	H 	0.2949	0.9741	0.5763	0.165
Mof_H 	H 	0.4164	0.8448	0.2228	0.122
Mof_H 	H 	0.4741	0.7949	0.1547	0.091
Mof_H 	H 	0.016	0.2228	0.8448	0.053
Mof_H 	H 	0.0763	0.1547	0.7949	0.046
Mof_C 	C 	0.5763	0.4147	0.3181	-0.237
Mof_C 	C 	0.62055	0.35973	0.38547	0.489
Mof_C 	C 	0.9147	0.0763	0.6909	-0.231
Mof_C 	C 	0.85973	0.12055	0.63425	0.462
Mof_C 	C 	0.8181	0.6909	0.0763	-0.176
Mof_C 	C 	0.88547	0.63425	0.12055	0.434
Mof_C 	C 	0.1909	0.3181	0.4147	-0.228
Mof_C 	C 	0.13425	0.38547	0.35973	0.472
Mof_C 	C 	0.5763	0.3181	0.6909	-0.241
Mof_C 	C 	0.62055	0.38547	0.63425	0.492
Mof_C 	C 	0.9147	0.6909	0.3181	-0.288
Mof_C 	C 	0.85973	0.63425	0.38547	0.504
Mof_C 	C 	0.8181	0.0763	0.4147	-0.172
Mof_C 	C 	0.88547	0.12055	0.35973	0.431
Mof_C 	C 	0.1909	0.4147	0.0763	-0.169
Mof_C 	C 	0.13425	0.35973	0.12055	0.429
Mof_C 	C 	0.5763	0.6909	0.4147	-0.245
Mof_C 	C 	0.62055	0.63425	0.35973	0.494
Mof_C 	C 	0.9147	0.3181	0.0763	-0.222
Mof_C 	C 	0.85973	0.38547	0.12055	0.457
Mof_C 	C 	0.8181	0.4147	0.6909	-0.237
Mof_C 	C 	0.88547	0.35973	0.63425	0.478
Mof_C 	C 	0.1909	0.0763	0.3181	-0.163
Mof_C 	C 	0.13425	0.12055	0.38547	0.427
Mof_C 	C 	0.5853	0.4237	0.1819	-0.234
Mof_C 	C 	0.64027	0.37945	0.11453	0.475
Mof_C 	C 	0.9237	0.0853	0.8091	-0.219
Mof_C 	C 	0.87945	0.14027	0.86575	0.447
Mof_C 	C 	0.3091	0.1819	0.4237	-0.228
Mof_C 	C 	0.36575	0.11453	0.37945	0.471
Mof_C 	C 	0.6819	0.8091	0.0853	-0.176
Mof_C 	C 	0.61453	0.86575	0.14027	0.435
Mof_C 	C 	0.6819	0.4237	0.8091	-0.238
Mof_C 	C 	0.61453	0.37945	0.86575	0.477
Mof_C 	C 	0.3091	0.0853	0.1819	-0.163
Mof_C 	C 	0.36575	0.14027	0.11453	0.427
Mof_C 	C 	0.9237	0.1819	0.0853	-0.218
Mof_C 	C 	0.87945	0.11453	0.14027	0.445
Mof_C 	C 	0.5853	0.8091	0.4237	-0.235
Mof_C 	C 	0.64027	0.86575	0.37945	0.476
Mof_C 	C 	0.3091	0.4237	0.0853	-0.173
Mof_C 	C 	0.36575	0.37945	0.14027	0.444
Mof_C 	C 	0.6819	0.0853	0.4237	-0.183
Mof_C 	C 	0.61453	0.14027	0.37945	0.45
Mof_C 	C 	0.5853	0.1819	0.8091	-0.226
Mof_C 	C 	0.64027	0.11453	0.86575	0.46
Mof_C 	C 	0.9237	0.8091	0.1819	-0.272
Mof_C 	C 	0.87945	0.86575	0.11453	0.473
Mof_C 	C 	0.4237	0.5853	0.6819	-0.246
Mof_C 	C 	0.37945	0.64027	0.61453	0.493
Mof_C 	C 	0.0853	0.9237	0.3091	-0.219
Mof_C 	C 	0.14027	0.87945	0.36575	0.458
Mof_C 	C 	0.1819	0.3091	0.9237	-0.275
Mof_C 	C 	0.11453	0.36575	0.87945	0.486
Mof_C 	C 	0.8091	0.6819	0.5853	-0.237
Mof_C 	C 	0.86575	0.61453	0.64027	0.478
Mof_C 	C 	0.4237	0.6819	0.3091	-0.241
Mof_C 	C 	0.37945	0.61453	0.36575	0.49
Mof_C 	C 	0.0853	0.3091	0.6819	-0.175
Mof_C 	C 	0.14027	0.36575	0.61453	0.446
Mof_C 	C 	0.1819	0.9237	0.5853	-0.279
Mof_C 	C 	0.11453	0.87945	0.64027	0.488
Mof_C 	C 	0.8091	0.5853	0.9237	-0.279
Mof_C 	C 	0.86575	0.64027	0.87945	0.489
Mof_C 	C 	0.4237	0.3091	0.5853	-0.237
Mof_C 	C 	0.37945	0.36575	0.64027	0.488
Mof_C 	C 	0.0853	0.6819	0.9237	-0.227
Mof_C 	C 	0.14027	0.61453	0.87945	0.463
Mof_C 	C 	0.1819	0.5853	0.3091	-0.228
Mof_C 	C 	0.11453	0.64027	0.36575	0.472
Mof_C 	C 	0.8091	0.9237	0.6819	-0.28
Mof_C 	C 	0.86575	0.87945	0.61453	0.49
Mof_C 	C 	0.4147	0.5763	0.8181	-0.234
Mof_C 	C 	0.35973	0.62055	0.88547	0.477
Mof_C 	C 	0.0763	0.9147	0.1909	-0.215
Mof_C 	C 	0.12055	0.85973	0.13425	0.442
Mof_C 	C 	0.6909	0.8181	0.5763	-0.238
Mof_C 	C 	0.63425	0.88547	0.62055	0.479
Mof_C 	C 	0.3181	0.1909	0.9147	-0.275
Mof_C 	C 	0.38547	0.13425	0.85973	0.486
Mof_C 	C 	0.3181	0.5763	0.1909	-0.228
Mof_C 	C 	0.38547	0.62055	0.13425	0.473
Mof_C 	C 	0.6909	0.9147	0.8181	-0.28
Mof_C 	C 	0.63425	0.85973	0.88547	0.49
Mof_C 	C 	0.0763	0.8181	0.9147	-0.216
Mof_C 	C 	0.12055	0.88547	0.85973	0.443
Mof_C 	C 	0.4147	0.1909	0.5763	-0.233
Mof_C 	C 	0.35973	0.13425	0.62055	0.476
Mof_C 	C 	0.6909	0.5763	0.9147	-0.29
Mof_C 	C 	0.63425	0.62055	0.85973	0.506
Mof_C 	C 	0.3181	0.9147	0.5763	-0.284
Mof_C 	C 	0.38547	0.85973	0.62055	0.502
Mof_C 	C 	0.4147	0.8181	0.1909	-0.225
Mof_C 	C 	0.35973	0.88547	0.13425	0.461
Mof_C 	C 	0.0763	0.1909	0.8181	-0.16
Mof_C 	C 	0.12055	0.13425	0.88547	0.414
Mof_O 	O 	0.68705	0.29561	0.37195	-0.49
Mof_O 	O 	0.58905	0.38161	0.45071	-0.479
Mof_O 	O 	0.79561	0.18705	0.64539	-0.486
Mof_O 	O 	0.88161	0.08905	0.57863	-0.398
Mof_O 	O 	0.87195	0.64539	0.18705	-0.458
Mof_O 	O 	0.95071	0.57863	0.08905	-0.35
Mof_O 	O 	0.14539	0.37195	0.29561	-0.512
Mof_O 	O 	0.07863	0.45071	0.38161	-0.493
Mof_O 	O 	0.68705	0.37195	0.64539	-0.492
Mof_O 	O 	0.58905	0.45071	0.57863	-0.478
Mof_O 	O 	0.79561	0.64539	0.37195	-0.49
Mof_O 	O 	0.88161	0.57863	0.45071	-0.404
Mof_O 	O 	0.87195	0.18705	0.29561	-0.457
Mof_O 	O 	0.95071	0.08905	0.38161	-0.35
Mof_O 	O 	0.14539	0.29561	0.18705	-0.508
Mof_O 	O 	0.07863	0.38161	0.08905	-0.489
Mof_O 	O 	0.68705	0.64539	0.29561	-0.493
Mof_O 	O 	0.58905	0.57863	0.38161	-0.48
Mof_O 	O 	0.79561	0.37195	0.18705	-0.484
Mof_O 	O 	0.88161	0.45071	0.08905	-0.397
Mof_O 	O 	0.87195	0.29561	0.64539	-0.463
Mof_O 	O 	0.95071	0.38161	0.57863	-0.357
Mof_O 	O 	0.14539	0.18705	0.37195	-0.507
Mof_O 	O 	0.07863	0.08905	0.45071	-0.487
Mof_O 	O 	0.70439	0.31295	0.12805	-0.513
Mof_O 	O 	0.61839	0.41095	0.04929	-0.506
Mof_O 	O 	0.81295	0.20439	0.85461	-0.449
Mof_O 	O 	0.91095	0.11839	0.92137	-0.262
Mof_O 	O 	0.35461	0.12805	0.31295	-0.514
Mof_O 	O 	0.42137	0.04929	0.41095	-0.508
Mof_O 	O 	0.62805	0.85461	0.20439	-0.457
Mof_O 	O 	0.54929	0.92137	0.11839	-0.352
Mof_O 	O 	0.62805	0.31295	0.85461	-0.467
Mof_O 	O 	0.54929	0.41095	0.92137	-0.376
Mof_O 	O 	0.35461	0.20439	0.12805	-0.504
Mof_O 	O 	0.42137	0.11839	0.04929	-0.486
Mof_O 	O 	0.81295	0.12805	0.20439	-0.498
Mof_O 	O 	0.91095	0.04929	0.11839	-0.392
Mof_O 	O 	0.70439	0.85461	0.31295	-0.465
Mof_O 	O 	0.61839	0.92137	0.41095	-0.375
Mof_O 	O 	0.35461	0.31295	0.20439	-0.488
Mof_O 	O 	0.42137	0.41095	0.11839	-0.461
Mof_O 	O 	0.62805	0.20439	0.31295	-0.49
Mof_O 	O 	0.54929	0.11839	0.41095	-0.462
Mof_O 	O 	0.70439	0.12805	0.85461	-0.48
Mof_O 	O 	0.61839	0.04929	0.92137	-0.396
Mof_O 	O 	0.81295	0.85461	0.12805	-0.474
Mof_O 	O 	0.91095	0.92137	0.04929	-0.308
Mof_O 	O 	0.31295	0.70439	0.62805	-0.496
Mof_O 	O 	0.41095	0.61839	0.54929	-0.481
Mof_O 	O 	0.20439	0.81295	0.35461	-0.478
Mof_O 	O 	0.11839	0.91095	0.42137	-0.367
Mof_O 	O 	0.12805	0.35461	0.81295	-0.504
Mof_O 	O 	0.04929	0.42137	0.91095	-0.414
Mof_O 	O 	0.85461	0.62805	0.70439	-0.463
Mof_O 	O 	0.92137	0.54929	0.61839	-0.371
Mof_O 	O 	0.31295	0.62805	0.35461	-0.496
Mof_O 	O 	0.41095	0.54929	0.42137	-0.482
Mof_O 	O 	0.20439	0.35461	0.62805	-0.486
Mof_O 	O 	0.11839	0.42137	0.54929	-0.459
Mof_O 	O 	0.12805	0.81295	0.70439	-0.504
Mof_O 	O 	0.04929	0.91095	0.61839	-0.413
Mof_O 	O 	0.85461	0.70439	0.81295	-0.456
Mof_O 	O 	0.92137	0.61839	0.91095	-0.285
Mof_O 	O 	0.31295	0.35461	0.70439	-0.493
Mof_O 	O 	0.41095	0.42137	0.61839	-0.48
Mof_O 	O 	0.20439	0.62805	0.81295	-0.48
Mof_O 	O 	0.11839	0.54929	0.91095	-0.368
Mof_O 	O 	0.12805	0.70439	0.35461	-0.51
Mof_O 	O 	0.04929	0.61839	0.42137	-0.504
Mof_O 	O 	0.85461	0.81295	0.62805	-0.457
Mof_O 	O 	0.92137	0.91095	0.54929	-0.286
Mof_O 	O 	0.29561	0.68705	0.87195	-0.459
Mof_O 	O 	0.38161	0.58905	0.95071	-0.358
Mof_O 	O 	0.18705	0.79561	0.14539	-0.502
Mof_O 	O 	0.08905	0.88161	0.07863	-0.41
Mof_O 	O 	0.64539	0.87195	0.68705	-0.461
Mof_O 	O 	0.57863	0.95071	0.58905	-0.358
Mof_O 	O 	0.37195	0.14539	0.79561	-0.505
Mof_O 	O 	0.45071	0.07863	0.88161	-0.414
Mof_O 	O 	0.37195	0.68705	0.14539	-0.507
Mof_O 	O 	0.45071	0.58905	0.07863	-0.488
Mof_O 	O 	0.64539	0.79561	0.87195	-0.46
Mof_O 	O 	0.57863	0.88161	0.95071	-0.289
Mof_O 	O 	0.18705	0.87195	0.79561	-0.453
Mof_O 	O 	0.08905	0.95071	0.88161	-0.28
Mof_O 	O 	0.29561	0.14539	0.68705	-0.508
Mof_O 	O 	0.38161	0.07863	0.58905	-0.49
Mof_O 	O 	0.64539	0.68705	0.79561	-0.488
Mof_O 	O 	0.57863	0.58905	0.88161	-0.404
Mof_O 	O 	0.37195	0.79561	0.68705	-0.485
Mof_O 	O 	0.45071	0.88161	0.58905	-0.403
Mof_O 	O 	0.29561	0.87195	0.14539	-0.479
Mof_O 	O 	0.38161	0.95071	0.07863	-0.368
Mof_O 	O 	0.18705	0.14539	0.87195	-0.474
Mof_O 	O 	0.08905	0.07863	0.95071	-0.362
Mof_O 	O 	0.61964	0.38036	0.25	-0.257
Mof_O 	O 	0.88036	0.11964	0.75	-0.253
Mof_O 	O 	0.75	0.75	0.11964	-0.28
Mof_O 	O 	0.25	0.25	0.38036	-0.262
Mof_O 	O 	0.61964	0.25	0.75	-0.255
Mof_O 	O 	0.88036	0.75	0.25	-0.224
Mof_O 	O 	0.75	0.11964	0.38036	-0.282
Mof_O 	O 	0.25	0.38036	0.11964	-0.291
Mof_O 	O 	0.61964	0.75	0.38036	-0.249
Mof_O 	O 	0.88036	0.25	0.11964	-0.26
Mof_O 	O 	0.75	0.38036	0.75	-0.246
Mof_O 	O 	0.25	0.11964	0.25	-0.297
Mof_O 	O 	0.38036	0.61964	0.75	-0.249
Mof_O 	O 	0.11964	0.88036	0.25	-0.261
Mof_O 	O 	0.25	0.25	0.88036	-0.231
Mof_O 	O 	0.75	0.75	0.61964	-0.247
Mof_O 	O 	0.38036	0.75	0.25	-0.253
Mof_O 	O 	0.11964	0.25	0.75	-0.289
Mof_O 	O 	0.25	0.88036	0.61964	-0.227
Mof_O 	O 	0.75	0.61964	0.88036	-0.221
Mof_O 	O 	0.38036	0.25	0.61964	-0.256
Mof_O 	O 	0.11964	0.75	0.88036	-0.254
Mof_O 	O 	0.25	0.61964	0.25	-0.262
Mof_O 	O 	0.75	0.88036	0.75	-0.219
_end
