data_functionalizedCrystal
_audit_creation_method	'EQeq! by Chris Wilmer'
_symmetry_space_group_name_H-M	'P1'
_symmetry_Int_Tables_number	1
_symmetry_cell_setting	triclinic
loop_
_symmetry_equiv_pos_as_xyz
  x,y,z
_cell_length_a	11.2487
_cell_length_b	7.1296
_cell_length_c	6.5731
_cell_angle_alpha	90
_cell_angle_beta	109.51
_cell_angle_gamma	90
loop_
_atom_site_label
_atom_site_type_symbol
_atom_site_fract_x
_atom_site_fract_y
_atom_site_fract_z
_atom_site_charge
Mof_O 	O 	0.9925	0.7593	0.6647	-0.166
Mof_O 	O 	0.1706	0.707	0.1145	-0.429
Mof_O 	O 	0.3463	0.5642	0.1178	-0.468
Mof_C 	C 	0.2358	0.6093	0.0351	0.256
Mof_H 	H 	0.1955	0.5652	0.8958	0.017
Mof_O 	O 	0.4925	0.2593	0.6647	-0.383
Mof_O 	O 	0.6706	0.207	0.1145	-0.397
Mof_O 	O 	0.8463	0.0642	0.1178	-0.261
Mof_C 	C 	0.7358	0.1093	0.0351	0.224
Mof_H 	H 	0.6955	0.0652	0.8958	0.084
Mof_O 	O 	0.0075	0.7593	0.3353	-0.397
Mof_O 	O 	0.8294	0.707	0.8855	-0.427
Mof_O 	O 	0.6537	0.5642	0.8822	-0.525
Mof_C 	C 	0.7642	0.6093	0.9649	0.871
Mof_H 	H 	0.8045	0.5652	0.1042	-0.314
Mof_O 	O 	0.5075	0.2593	0.3353	-0.432
Mof_O 	O 	0.3294	0.207	0.8855	-0.487
Mof_O 	O 	0.1537	0.0642	0.8822	-0.424
Mof_C 	C 	0.2642	0.1093	0.9649	0.873
Mof_H 	H 	0.3045	0.0652	0.1042	-0.306
Mof_Ho	Ho	-0	0.9047	-0	1.032
Mof_Ho	Ho	0.5	0.4047	-0	1.565
Mof_C 	C 	2.85998e-17	0.8379	0.5	0.245
Mof_H 	H 	1.42999e-17	0.9684	0.5	-0.125
Mof_C 	C 	0.5	0.3379	0.5	0.536
Mof_H 	H 	0.5	0.4684	0.5	-0.162
_end
