data_functionalizedCrystal
_audit_creation_method	'EQeq! by Chris Wilmer'
_symmetry_space_group_name_H-M	'P1'
_symmetry_Int_Tables_number	1
_symmetry_cell_setting	triclinic
loop_
_symmetry_equiv_pos_as_xyz
  x,y,z
_cell_length_a	33.003
_cell_length_b	34.597
_cell_length_c	34.597
_cell_angle_alpha	120
_cell_angle_beta	90
_cell_angle_gamma	90
loop_
_atom_site_label
_atom_site_type_symbol
_atom_site_fract_x
_atom_site_fract_y
_atom_site_fract_z
_atom_site_charge
Mof_Zn	Zn	0.82297	0.43481	0.48995	1.198
Mof_Zn	Zn	0.73016	0.40957	0.00165	1.199
Mof_Zn	Zn	0.76984	0.59208	0.00165	1.199
Mof_Zn	Zn	0.26984	0.40792	0.99835	1.199
Mof_Zn	Zn	0.17098	0.51069	0.95406	1.203
Mof_Zn	Zn	0.98547	0.70964	0.31673	1.191
Mof_Zn	Zn	0.75	0.49947	0.99894	1.213
Mof_Zn	Zn	0.17098	0.44337	0.48931	1.202
Mof_Zn	Zn	0.17098	0.04594	0.55663	1.202
Mof_Zn	Zn	0.48547	0.39291	0.70964	1.19
Mof_Zn	Zn	0.23016	0.00165	0.59208	1.198
Mof_Zn	Zn	0.98547	0.60709	0.29036	1.19
Mof_Zn	Zn	0.17703	0.94486	0.51005	1.197
Mof_Zn	Zn	0.73016	0.59208	0.59043	1.198
Mof_Zn	Zn	0.32902	0.51069	0.55663	1.202
Mof_Zn	Zn	0.32902	0.44337	0.95406	1.202
Mof_Zn	Zn	0.17703	0.48995	0.43481	1.197
Mof_Zn	Zn	0.67098	0.95406	0.44337	1.202
Mof_Zn	Zn	0.82902	0.48931	0.44337	1.202
Mof_Zn	Zn	0.32297	0.94486	0.43481	1.197
Mof_Zn	Zn	0.51453	0.68327	0.29036	1.19
Mof_Zn	Zn	0.25	0.50053	0.49947	1.212
Mof_Zn	Zn	0.23016	0.40792	0.40957	1.198
Mof_Zn	Zn	0.01453	0.29036	0.60709	1.19
Mof_Zn	Zn	0.76984	0.40957	0.40792	1.198
Mof_Zn	Zn	0.75	0.00106	0.50053	1.212
Mof_Zn	Zn	0.26984	0.59043	0.59208	1.198
Mof_Zn	Zn	0.01453	0.39291	0.68327	1.19
Mof_Zn	Zn	0.67098	0.48931	0.04594	1.202
Mof_Zn	Zn	0.82902	0.55663	0.04594	1.202
Mof_Zn	Zn	0.82297	0.51005	0.94486	1.197
Mof_Zn	Zn	0.26984	0.00165	0.40957	1.198
Mof_Zn	Zn	0.25	0.99894	0.49947	1.212
Mof_Zn	Zn	0.67703	0.51005	0.56519	1.197
Mof_Zn	Zn	0.25	0.50053	0.00106	1.212
Mof_Zn	Zn	0.51453	0.70964	0.39291	1.19
Mof_Zn	Zn	0.56257	0.33333	0.66666	1.216
Mof_Zn	Zn	0.17703	0.56519	0.05514	1.197
Mof_Zn	Zn	0.32902	0.04594	0.48931	1.202
Mof_Zn	Zn	0.32297	0.56519	0.51005	1.197
Mof_Zn	Zn	0.67703	0.05514	0.48995	1.197
Mof_Zn	Zn	0.48547	0.31673	0.60709	1.19
Mof_Zn	Zn	0.06257	0.66667	0.33334	1.216
Mof_Zn	Zn	0.43743	0.66667	0.33334	1.216
Mof_Zn	Zn	0.67098	0.55663	0.51069	1.202
Mof_Zn	Zn	0.98547	0.68327	0.39291	1.19
Mof_Zn	Zn	0.73016	0.99835	0.40792	1.198
Mof_Zn	Zn	0.51453	0.60709	0.31673	1.19
Mof_Zn	Zn	0.82902	0.95406	0.51069	1.202
Mof_Zn	Zn	0.76984	0.99835	0.59043	1.198
Mof_Zn	Zn	0.75	0.49947	0.50053	1.212
Mof_Zn	Zn	0.67703	0.43481	0.94486	1.197
Mof_Zn	Zn	0.32297	0.48995	0.05514	1.197
Mof_Zn	Zn	0.93743	0.33333	0.66666	1.216
Mof_Zn	Zn	0.23016	0.59043	0.99835	1.198
Mof_Zn	Zn	0.82297	0.05514	0.56519	1.197
Mof_Zn	Zn	0.01453	0.31673	0.70964	1.19
Mof_Zn	Zn	0.48547	0.29036	0.68327	1.19
Mof_H 	H 	0.3708	0.6355	0.9481	0.179
Mof_H 	H 	0.6681	0.6139	0.7352	0.492
Mof_H 	H 	0.5881	0.9711	0.6357	0.182
Mof_H 	H 	0.4393	0.9505	0.4183	-0.596
Mof_H 	H 	0.3096	0.8226	0.3749	0.024
Mof_H 	H 	0.7786	0.6979	0.613	-0.016
Mof_H 	H 	0.6893	0.6775	0.1235	0.066
Mof_H 	H 	0.8465	0.3471	0.791	0.188
Mof_H 	H 	0.0165	0.9652	0.5289	-0.572
Mof_H 	H 	0.194	0.6778	0.617	0.146
Mof_H 	H 	0.1773	0.6936	0.0744	0.525
Mof_H 	H 	0.605	0.7494	0.5407	0.464
Mof_H 	H 	0.4201	0.392	0.5597	-0.026
Mof_H 	H 	0.9757	0.3944	0.4763	-0.601
Mof_H 	H 	0.6154	0.4469	0.3797	0.081
Mof_H 	H 	0.7735	0.5897	0.3865	0.159
Mof_H 	H 	0.6398	0.6737	0.1838	0.165
Mof_H 	H 	0.9224	0.4903	0.5257	-0.494
Mof_H 	H 	0.8153	0.7886	0.3859	0.166
Mof_H 	H 	0.8977	0.9022	0.4145	-0.013
Mof_H 	H 	0.0165	0.4711	0.4363	-0.571
Mof_H 	H 	0.7503	0.6026	0.8968	0.546
Mof_H 	H 	0.1944	0.5529	0.2303	0.176
Mof_H 	H 	0.1359	0.5897	0.3728	0.057
Mof_H 	H 	0.8153	0.5973	0.2114	0.166
Mof_H 	H 	0.8227	0.6192	0.9256	0.525
Mof_H 	H 	0.1398	0.3263	0.8162	0.165
Mof_H 	H 	0.0323	0.5243	0.5029	-0.471
Mof_H 	H 	0.8585	0.7287	0.1282	0.478
Mof_H 	H 	0.7037	0.7229	0.5537	0.484
Mof_H 	H 	0.2735	0.4103	0.6135	0.159
Mof_H 	H 	0.1769	0.4928	0.7033	0.132
Mof_H 	H 	0.895	0.7494	0.2087	0.464
Mof_H 	H 	0.395	0.2087	0.4593	0.464
Mof_H 	H 	0.1023	0.4877	0.5855	-0.014
Mof_H 	H 	0.2484	0.8125	0.4558	0.064
Mof_H 	H 	0.2503	0.3974	0.1032	0.546
Mof_H 	H 	0.8528	0.4372	0.2309	0.458
Mof_H 	H 	0.725	0.2168	0.9611	-0.112
Mof_H 	H 	0.764	0.6031	0.8537	0.501
Mof_H 	H 	0.1644	0.4467	0.6624	0.156
Mof_H 	H 	0.6562	0.3191	0.4087	0.15
Mof_H 	H 	0.8056	0.4471	0.6774	0.176
Mof_H 	H 	0.7011	0.6938	0.5016	0.483
Mof_H 	H 	0.6886	0.6111	0.4363	0.176
Mof_H 	H 	0.8641	0.4103	0.7831	0.057
Mof_H 	H 	0.5165	0.5289	0.5637	-0.571
Mof_H 	H 	0.8528	0.7691	0.2063	0.458
Mof_H 	H 	0.1904	0.6251	0.1774	0.024
Mof_H 	H 	0.8045	0.7076	0.8998	0.507
Mof_H 	H 	0.7735	0.7968	0.4103	0.159
Mof_H 	H 	0.2011	0.5016	0.8078	0.483
Mof_H 	H 	0.1955	0.8998	0.7076	0.507
Mof_H 	H 	0.0607	0.9505	0.5322	-0.596
Mof_H 	H 	0.3096	0.6251	0.4477	0.024
Mof_H 	H 	0.1893	0.1235	0.446	0.066
Mof_H 	H 	0.8438	0.5913	0.6809	0.15
Mof_H 	H 	0.4835	0.9652	0.4363	-0.571
Mof_H 	H 	0.2004	0.3292	0.4692	0.507
Mof_H 	H 	0.4677	0.5243	0.0214	-0.471
Mof_H 	H 	0.1944	0.6774	0.4471	0.176
Mof_H 	H 	0.6542	0.0777	0.343	0.504
Mof_H 	H 	0.4224	0.5097	0.4743	-0.494
Mof_H 	H 	0.2716	0.366	0.2489	0.512
Mof_H 	H 	0.736	0.2506	0.8537	0.501
Mof_H 	H 	0.0243	0.4763	0.3944	-0.601
Mof_H 	H 	0.2716	0.8829	0.634	0.512
Mof_H 	H 	0.8602	0.8162	0.3263	0.165
Mof_H 	H 	0.642	0.7644	0.2534	0.467
Mof_H 	H 	0.3833	0.5173	0.3778	0.215
Mof_H 	H 	0.7284	0.2489	0.366	0.512
Mof_H 	H 	0.3585	0.1282	0.3995	0.479
Mof_H 	H 	0.0799	0.4403	0.608	-0.026
Mof_H 	H 	0.0323	0.4971	0.0214	-0.472
Mof_H 	H 	0.2417	0.3025	0.1911	0.498
Mof_H 	H 	0.5255	0.4162	0.8363	0.161
Mof_H 	H 	0.3977	0.4877	0.9022	-0.013
Mof_H 	H 	0.1292	0.0519	0.3645	0.179
Mof_H 	H 	0.2284	0.366	0.1171	0.512
Mof_H 	H 	0.6542	0.657	0.7347	0.504
Mof_H 	H 	0.3458	0.9223	0.2653	0.504
Mof_H 	H 	0.1248	0.6679	0.5264	0.187
Mof_H 	H 	0.0799	0.1677	0.5597	-0.026
Mof_H 	H 	0.6535	0.4439	0.791	0.188
Mof_H 	H 	0.2503	0.8968	0.2942	0.546
Mof_H 	H 	0.7214	0.9151	0.613	-0.016
Mof_H 	H 	0.9119	0.3643	0.0289	0.182
Mof_H 	H 	0.6415	0.8718	0.2713	0.479
Mof_H 	H 	0.2214	0.0849	0.387	-0.016
Mof_H 	H 	0.3114	0.1748	0.5637	0.176
Mof_H 	H 	0.6773	0.3064	0.9256	0.525
Mof_H 	H 	0.2214	0.613	0.6979	-0.016
Mof_H 	H 	0.895	0.4593	0.2506	0.464
Mof_H 	H 	0.7089	0.1905	0.8555	0.482
Mof_H 	H 	0.8458	0.2653	0.343	0.504
Mof_H 	H 	0.1562	0.9104	0.3191	0.15
Mof_H 	H 	0.1016	0.576	0.872	0.492
Mof_H 	H 	0.3986	0.3085	0.7738	-0.083
Mof_H 	H 	0.8585	0.3995	0.2713	0.479
Mof_H 	H 	0.1562	0.6809	0.5913	0.15
Mof_H 	H 	0.4201	0.1677	0.608	-0.026
Mof_H 	H 	0.6248	0.3321	0.4736	0.187
Mof_H 	H 	0.6359	0.2169	0.5897	0.057
Mof_H 	H 	0.3585	0.6005	0.7287	0.479
Mof_H 	H 	0.8846	0.4469	0.0672	0.08
Mof_H 	H 	0.8353	0.209	0.5121	0.165
Mof_H 	H 	0.264	0.7494	0.6031	0.5
Mof_H 	H 	0.5243	0.0819	0.4763	-0.601
Mof_H 	H 	0.1014	0.4653	0.7738	-0.083
Mof_H 	H 	0.142	0.2356	0.7466	0.467
Mof_H 	H 	0.5505	0.0603	0.5684	-0.492
Mof_H 	H 	0.8045	0.1922	0.2924	0.506
Mof_H 	H 	0.6512	0.311	0.3602	0.147
Mof_H 	H 	0.739	0.9228	0.6783	-0.04
Mof_H 	H 	0.6847	0.5973	0.3859	0.166
Mof_H 	H 	0.8984	0.872	0.576	0.492
Mof_H 	H 	0.3056	0.6774	0.2303	0.176
Mof_H 	H 	0.9745	0.1637	0.5838	0.161
Mof_H 	H 	0.3153	0.2114	0.6141	0.166
Mof_H 	H 	0.6154	0.9328	0.5531	0.081
Mof_H 	H 	0.6014	0.6915	0.4653	-0.083
Mof_H 	H 	0.2911	0.335	0.1445	0.482
Mof_H 	H 	0.3708	0.0519	0.6874	0.179
Mof_H 	H 	0.1154	0.3797	0.9328	0.08
Mof_H 	H 	0.8107	0.8765	0.3225	0.066
Mof_H 	H 	0.1014	0.3085	0.5347	-0.083
Mof_H 	H 	0.6681	0.2648	0.8787	0.492
Mof_H 	H 	0.8833	0.1395	0.5173	0.215
Mof_H 	H 	0.605	0.7913	0.2506	0.464
Mof_H 	H 	0.7484	0.1875	0.5442	0.064
Mof_H 	H 	0.3984	0.296	0.872	0.492
Mof_H 	H 	0.3045	0.8998	0.1922	0.506
Mof_H 	H 	0.2963	0.2771	0.8308	0.484
Mof_H 	H 	0.6415	0.7287	0.6005	0.479
Mof_H 	H 	0.1394	0.1006	0.6765	0.507
Mof_H 	H 	0.1167	0.6222	0.4827	0.215
Mof_H 	H 	0.0607	0.5817	0.0495	-0.596
Mof_H 	H 	0.0165	0.5637	0.0348	-0.572
Mof_H 	H 	0.764	0.1463	0.7494	0.501
Mof_H 	H 	0.1016	0.128	0.704	0.492
Mof_H 	H 	0.1512	0.9508	0.311	0.148
Mof_H 	H 	0.6167	0.1395	0.6222	0.215
Mof_H 	H 	0.7583	0.1114	0.8089	0.499
Mof_H 	H 	0.7583	0.6975	0.8886	0.499
Mof_H 	H 	0.5071	0.8907	0.4598	-0.219
Mof_H 	H 	0.3528	0.2309	0.7937	0.458
Mof_H 	H 	0.3153	0.4027	0.7886	0.166
Mof_H 	H 	0.775	0.0389	0.7832	-0.112
Mof_H 	H 	0.7911	0.665	0.8555	0.482
Mof_H 	H 	0.3977	0.4145	0.5123	-0.014
Mof_H 	H 	0.7011	0.8078	0.3062	0.483
Mof_H 	H 	0.6394	0.6765	0.5759	0.507
Mof_H 	H 	0.0116	0.4133	0.5255	-0.22
Mof_H 	H 	0.6535	0.209	0.6529	0.188
Mof_H 	H 	0.775	0.7443	0.9611	-0.112
Mof_H 	H 	0.0505	0.9397	0.4316	-0.492
Mof_H 	H 	0.194	0.9392	0.3222	0.147
Mof_H 	H 	0.7989	0.4984	0.3062	0.483
Mof_H 	H 	0.264	0.8537	0.2506	0.501
Mof_H 	H 	0.1014	0.2262	0.6915	-0.083
Mof_H 	H 	0.3231	0.4928	0.7895	0.132
Mof_H 	H 	0.1644	0.3376	0.7843	0.156
Mof_H 	H 	0.1512	0.3602	0.0492	0.148
Mof_H 	H 	0.395	0.5407	0.7494	0.464
Mof_H 	H 	0.6847	0.6141	0.2114	0.166
Mof_H 	H 	0.6944	0.4471	0.7697	0.176
Mof_H 	H 	0.1562	0.4087	0.0896	0.15
Mof_H 	H 	0.6167	0.4827	0.8605	0.215
Mof_H 	H 	0.1542	0.7347	0.0777	0.504
Mof_H 	H 	0.105	0.2087	0.7494	0.464
Mof_H 	H 	0.3781	0.6706	0.9985	0.174
Mof_H 	H 	0.7989	0.6938	0.1922	0.483
Mof_H 	H 	0.9769	0.932	0.475	-0.2
Mof_H 	H 	0.2284	0.7511	0.634	0.512
Mof_H 	H 	0.6535	0.3471	0.5561	0.188
Mof_H 	H 	0.7516	0.1875	0.6433	0.064
Mof_H 	H 	0.6681	0.1213	0.3861	0.492
Mof_H 	H 	0.1248	0.8585	0.3321	0.188
Mof_H 	H 	0.2963	0.5537	0.7229	0.484
Mof_H 	H 	0.3781	0.3279	0.3294	0.174
Mof_H 	H 	0.761	0.7555	0.6783	-0.04
Mof_H 	H 	0.8602	0.5101	0.1838	0.165
Mof_H 	H 	0.6292	0.9481	0.6355	0.179
Mof_H 	H 	0.9677	0.0214	0.4971	-0.472
Mof_H 	H 	0.5505	0.4316	0.4919	-0.492
Mof_H 	H 	0.1886	0.3889	0.5637	0.176
Mof_H 	H 	0.3438	0.4087	0.3191	0.15
Mof_H 	H 	0.3319	0.8787	0.2648	0.492
Mof_H 	H 	0.8319	0.6139	0.8787	0.492
Mof_H 	H 	0.6644	0.6624	0.2157	0.156
Mof_H 	H 	0.8096	0.4477	0.8226	0.024
Mof_H 	H 	0.105	0.2506	0.4593	0.464
Mof_H 	H 	0.4769	0.068	0.525	-0.199
Mof_H 	H 	0.1542	0.9223	0.657	0.504
Mof_H 	H 	0.5505	0.5081	0.9397	-0.492
Mof_H 	H 	0.3488	0.689	0.0492	0.148
Mof_H 	H 	0.5799	0.608	0.1677	-0.026
Mof_H 	H 	0.6188	0.0953	0.6243	0.224
Mof_H 	H 	0.1847	0.4027	0.6141	0.166
Mof_H 	H 	0.6016	0.872	0.296	0.492
Mof_H 	H 	0.6644	0.5533	0.3376	0.156
Mof_H 	H 	0.105	0.5407	0.7913	0.464
Mof_H 	H 	0.1415	0.6005	0.8718	0.478
Mof_H 	H 	0.3319	0.3861	0.1213	0.492
Mof_H 	H 	0.0071	0.1093	0.5402	-0.219
Mof_H 	H 	0.3752	0.8585	0.5264	0.187
Mof_H 	H 	0.3606	0.3235	0.8994	0.507
Mof_H 	H 	0.306	0.383	0.3222	0.146
Mof_H 	H 	0.8227	0.0744	0.6936	0.525
Mof_H 	H 	0.8114	0.5637	0.3889	0.176
Mof_H 	H 	0.6644	0.7843	0.4467	0.156
Mof_H 	H 	0.8602	0.6737	0.4899	0.165
Mof_H 	H 	0.7989	0.8078	0.5016	0.483
Mof_H 	H 	0.4119	0.0289	0.6646	0.182
Mof_H 	H 	0.4769	0.475	0.543	-0.199
Mof_H 	H 	0.1535	0.791	0.3471	0.188
Mof_H 	H 	0.7996	0.4692	0.3292	0.507
Mof_H 	H 	0.4745	0.5799	0.1637	0.161
Mof_H 	H 	0.2089	0.335	0.1905	0.482
Mof_H 	H 	0.6955	0.7076	0.8078	0.506
Mof_H 	H 	0.5776	0.4743	0.5097	-0.494
Mof_H 	H 	0.3319	0.7352	0.6139	0.492
Mof_H 	H 	0.3986	0.2262	0.5347	-0.083
Mof_H 	H 	0.3356	0.4467	0.7843	0.156
Mof_H 	H 	0.3458	0.7347	0.657	0.504
Mof_H 	H 	0.6398	0.5101	0.3263	0.165
Mof_H 	H 	0.0071	0.4598	0.5691	-0.219
Mof_H 	H 	0.3602	0.1838	0.6737	0.165
Mof_H 	H 	0.6904	0.4477	0.6251	0.024
Mof_H 	H 	0.3528	0.2063	0.4372	0.458
Mof_H 	H 	0.7716	0.634	0.7511	0.512
Mof_H 	H 	0.2265	0.2032	0.6135	0.159
Mof_H 	H 	0.8708	0.9481	0.3126	0.179
Mof_H 	H 	0.8056	0.2303	0.5529	0.176
Mof_H 	H 	0.0255	0.8363	0.4201	0.161
Mof_H 	H 	0.2786	0.613	0.9151	-0.016
Mof_H 	H 	0.761	0.3217	0.0772	-0.04
Mof_H 	H 	0.1944	0.7697	0.3226	0.176
Mof_H 	H 	0.3353	0.5121	0.3031	0.165
Mof_H 	H 	0.4757	0.9181	0.3944	-0.601
Mof_H 	H 	0.1886	0.4363	0.8252	0.176
Mof_H 	H 	0.6773	0.6192	0.6936	0.525
Mof_H 	H 	0.6023	0.5123	0.4145	-0.014
Mof_H 	H 	0.1955	0.2924	0.1922	0.506
Mof_H 	H 	0.225	0.7832	0.0389	-0.112
Mof_H 	H 	0.6904	0.1774	0.5523	0.024
Mof_H 	H 	0.9835	0.0348	0.5637	-0.572
Mof_H 	H 	0.3231	0.2967	0.5072	0.132
Mof_H 	H 	0.0243	0.9181	0.5237	-0.601
Mof_H 	H 	0.275	0.2557	0.0389	-0.112
Mof_H 	H 	0.6944	0.2303	0.6774	0.176
Mof_H 	H 	0.1292	0.3126	0.9481	0.179
Mof_H 	H 	0.1154	0.5531	0.6203	0.081
Mof_H 	H 	0.1647	0.5121	0.209	0.165
Mof_H 	H 	0.4393	0.5817	0.5322	-0.596
Mof_H 	H 	0.3465	0.791	0.4439	0.188
Mof_H 	H 	0.3606	0.5759	0.6765	0.507
Mof_H 	H 	0.3602	0.4899	0.8162	0.165
Mof_H 	H 	0.8984	0.424	0.296	0.492
Mof_H 	H 	0.1359	0.6272	0.2169	0.057
Mof_H 	H 	0.9884	0.5867	0.1122	-0.22
Mof_H 	H 	0.2497	0.8968	0.6026	0.546
Mof_H 	H 	0.7516	0.3567	0.5442	0.064
Mof_H 	H 	0.2516	0.5442	0.1875	0.064
Mof_H 	H 	0.2497	0.3974	0.2942	0.546
Mof_H 	H 	0.7089	0.1445	0.335	0.482
Mof_H 	H 	0.5255	0.4201	0.5838	0.161
Mof_H 	H 	0.2484	0.6433	0.1875	0.064
Mof_H 	H 	0.6023	0.5855	0.0978	-0.013
Mof_H 	H 	0.8606	0.6765	0.1006	0.507
Mof_H 	H 	0.2996	0.5308	0.6708	0.507
Mof_H 	H 	0.1219	0.0015	0.3294	0.173
Mof_H 	H 	0.694	0.617	0.9392	0.147
Mof_H 	H 	0.5607	0.4183	0.9505	-0.596
Mof_H 	H 	0.6647	0.4879	0.791	0.165
Mof_H 	H 	0.3153	0.3859	0.5973	0.166
Mof_H 	H 	0.6415	0.3995	0.1282	0.479
Mof_H 	H 	0.0231	0.068	0.543	-0.2
Mof_H 	H 	0.8977	0.5855	0.4877	-0.014
Mof_H 	H 	0.5799	0.8323	0.4403	-0.026
Mof_H 	H 	0.225	0.2557	0.2168	-0.111
Mof_H 	H 	0.5116	0.8878	0.4133	-0.22
Mof_H 	H 	0.6562	0.0896	0.6809	0.15
Mof_H 	H 	0.7004	0.4692	0.14	0.507
Mof_H 	H 	0.2911	0.8095	0.665	0.482
Mof_H 	H 	0.2417	0.8886	0.6975	0.499
Mof_H 	H 	0.1472	0.5628	0.7937	0.458
Mof_H 	H 	0.761	0.9228	0.2445	-0.04
Mof_H 	H 	0.5231	0.525	0.068	-0.199
Mof_H 	H 	0.7265	0.5897	0.2032	0.159
Mof_H 	H 	0.5243	0.5237	0.6056	-0.601
Mof_H 	H 	0.2011	0.3062	0.4984	0.483
Mof_H 	H 	0.7214	0.6979	0.0849	-0.016
Mof_H 	H 	0.7735	0.6135	0.2032	0.159
Mof_H 	H 	0.4929	0.4309	0.5402	-0.219
Mof_H 	H 	0.6014	0.7738	0.3085	-0.083
Mof_H 	H 	0.1535	0.6529	0.4439	0.188
Mof_H 	H 	0.8986	0.5347	0.3085	-0.083
Mof_H 	H 	0.239	0.2445	0.9228	-0.04
Mof_H 	H 	0.7503	0.1032	0.7058	0.546
Mof_H 	H 	0.0607	0.4678	0.4183	-0.596
Mof_H 	H 	0.0243	0.6056	0.0819	-0.601
Mof_H 	H 	0.806	0.617	0.6778	0.146
Mof_H 	H 	0.3846	0.0672	0.6203	0.081
Mof_H 	H 	0.6542	0.2653	0.9223	0.504
Mof_H 	H 	0.2265	0.3865	0.5897	0.159
Mof_H 	H 	0.9201	0.608	0.4403	-0.026
Mof_H 	H 	0.8781	0.6721	0.6706	0.174
Mof_H 	H 	0.9769	0.543	0.068	-0.2
Mof_H 	H 	0.1647	0.6969	0.4879	0.165
Mof_H 	H 	0.275	0.9611	0.2168	-0.112
Mof_H 	H 	0.3438	0.9104	0.5913	0.15
Mof_H 	H 	0.0231	0.475	0.932	-0.2
Mof_H 	H 	0.3231	0.2105	0.7033	0.132
Mof_H 	H 	0.6847	0.7886	0.4027	0.166
Mof_H 	H 	0.2503	0.7058	0.6026	0.546
Mof_H 	H 	0.1893	0.3225	0.8765	0.066
Mof_H 	H 	0.7284	0.634	0.8829	0.512
Mof_H 	H 	0.5776	0.0354	0.5257	-0.494
Mof_H 	H 	0.6472	0.4372	0.2063	0.458
Mof_H 	H 	0.1893	0.554	0.6775	0.066
Mof_H 	H 	0.9495	0.4316	0.9397	-0.492
Mof_H 	H 	0.8781	0.9985	0.3279	0.173
Mof_H 	H 	0.236	0.3969	0.2506	0.5
Mof_H 	H 	0.8488	0.6398	0.689	0.147
Mof_H 	H 	0.3812	0.9047	0.529	0.224
Mof_H 	H 	0.7516	0.4558	0.8125	0.064
Mof_H 	H 	0.736	0.1463	0.3969	0.501
Mof_H 	H 	0.1219	0.6706	0.6721	0.174
Mof_H 	H 	0.4757	0.6056	0.5237	-0.601
Mof_H 	H 	0.358	0.2356	0.489	0.467
Mof_H 	H 	0.2214	0.3021	0.9151	-0.016
Mof_H 	H 	0.1847	0.2114	0.5973	0.166
Mof_H 	H 	0.1955	0.8078	0.1002	0.507
Mof_H 	H 	0.6647	0.3031	0.5121	0.165
Mof_H 	H 	0.6398	0.8162	0.4899	0.165
Mof_H 	H 	0.8107	0.446	0.1235	0.066
Mof_H 	H 	0.2583	0.3025	0.1114	0.498
Mof_H 	H 	0.1016	0.296	0.424	0.492
Mof_H 	H 	0.739	0.3217	0.2445	-0.04
Mof_H 	H 	0.3984	0.576	0.704	0.492
Mof_H 	H 	0.3528	0.5628	0.7691	0.458
Mof_H 	H 	0.4745	0.5838	0.4201	0.161
Mof_H 	H 	0.9119	0.6646	0.6357	0.182
Mof_H 	H 	0.3438	0.6809	0.0896	0.15
Mof_H 	H 	0.0116	0.1122	0.5867	-0.22
Mof_H 	H 	0.7911	0.1905	0.335	0.482
Mof_H 	H 	0.7497	0.1032	0.3974	0.546
Mof_H 	H 	0.3107	0.3225	0.446	0.066
Mof_H 	H 	0.9677	0.5029	0.5243	-0.471
Mof_H 	H 	0.395	0.2506	0.7913	0.464
Mof_H 	H 	0.694	0.0608	0.6778	0.147
Mof_H 	H 	0.3752	0.4736	0.3321	0.187
Mof_H 	H 	0.8356	0.5533	0.2157	0.156
Mof_H 	H 	0.8812	0.3757	0.9047	0.224
Mof_H 	H 	0.1904	0.8226	0.4477	0.024
Mof_H 	H 	0.0231	0.457	0.525	-0.199
Mof_H 	H 	0.2716	0.7511	0.1171	0.512
Mof_H 	H 	0.6154	0.6203	0.0672	0.081
Mof_H 	H 	0.1219	0.3279	0.9985	0.173
Mof_H 	H 	0.736	0.6031	0.7494	0.5
Mof_H 	H 	0.4757	0.4763	0.0819	-0.601
Mof_H 	H 	0.4224	0.5257	0.0354	-0.494
Mof_H 	H 	0.8096	0.3749	0.5523	0.024
Mof_H 	H 	0.725	0.7443	0.7832	-0.111
Mof_H 	H 	0.2037	0.2771	0.4463	0.484
Mof_H 	H 	0.2583	0.8886	0.1911	0.498
Mof_H 	H 	0.1188	0.471	0.0953	0.224
Mof_H 	H 	0.4884	0.1122	0.5255	-0.22
Mof_H 	H 	0.261	0.2445	0.3217	-0.04
Mof_H 	H 	0.8045	0.1002	0.8078	0.507
Mof_H 	H 	0.9835	0.4363	0.4711	-0.571
Mof_H 	H 	0.7583	0.1911	0.3025	0.498
Mof_H 	H 	0.9495	0.5081	0.5684	-0.492
Mof_H 	H 	0.8781	0.3294	0.0015	0.173
Mof_H 	H 	0.2011	0.1922	0.6938	0.483
Mof_H 	H 	0.2484	0.5442	0.3567	0.064
Mof_H 	H 	0.8458	0.0777	0.7347	0.504
Mof_H 	H 	0.1394	0.5759	0.8994	0.507
Mof_H 	H 	0.0881	0.6357	0.6646	0.182
Mof_H 	H 	0.739	0.7555	0.0772	-0.04
Mof_H 	H 	0.6769	0.7033	0.2105	0.132
Mof_H 	H 	0.7417	0.1911	0.8886	0.498
Mof_H 	H 	0.8585	0.8718	0.6005	0.478
Mof_H 	H 	0.7963	0.7229	0.1692	0.484
Mof_H 	H 	0.3708	0.3126	0.3645	0.179
Mof_H 	H 	0.3045	0.2924	0.1002	0.506
Mof_H 	H 	0.7004	0.6708	0.5308	0.507
Mof_H 	H 	0.0799	0.392	0.8323	-0.026
Mof_H 	H 	0.0116	0.4745	0.8878	-0.22
Mof_H 	H 	0.9929	0.5691	0.4598	-0.219
Mof_H 	H 	0.806	0.0608	0.383	0.147
Mof_H 	H 	0.4119	0.6357	0.9711	0.182
Mof_H 	H 	0.8833	0.4827	0.6222	0.215
Mof_H 	H 	0.8319	0.1213	0.7352	0.492
Mof_H 	H 	0.7004	0.86	0.3292	0.507
Mof_H 	H 	0.358	0.2534	0.7644	0.467
Mof_H 	H 	0.5165	0.4363	0.9652	-0.571
Mof_H 	H 	0.275	0.7832	0.7443	-0.111
Mof_H 	H 	0.8353	0.3031	0.791	0.165
Mof_H 	H 	0.7265	0.7968	0.3865	0.159
Mof_H 	H 	0.858	0.7644	0.511	0.467
Mof_H 	H 	0.5255	0.1637	0.5799	0.161
Mof_H 	H 	0.8107	0.6775	0.554	0.066
Mof_H 	H 	0.1773	0.9256	0.6192	0.525
Mof_H 	H 	0.6292	0.3645	0.3126	0.179
Mof_H 	H 	0.8465	0.209	0.5561	0.188
Mof_H 	H 	0.8227	0.3064	0.3808	0.525
Mof_H 	H 	0.4495	0.5684	0.0603	-0.492
Mof_H 	H 	0.4884	0.4745	0.5867	-0.22
Mof_H 	H 	0.1398	0.4899	0.6737	0.165
Mof_H 	H 	0.2786	0.3021	0.387	-0.016
Mof_H 	H 	0.1472	0.2063	0.7691	0.458
Mof_H 	H 	0.2786	0.0849	0.6979	-0.016
Mof_H 	H 	0.858	0.489	0.2534	0.467
Mof_H 	H 	0.3096	0.5523	0.1774	0.024
Mof_H 	H 	0.1394	0.3235	0.4241	0.507
Mof_H 	H 	0.7716	0.1171	0.366	0.512
Mof_H 	H 	0.3986	0.4653	0.6915	-0.083
Mof_H 	H 	0.6014	0.5347	0.2262	-0.083
Mof_H 	H 	0.8984	0.704	0.128	0.492
Mof_H 	H 	0.9393	0.5322	0.9505	-0.596
Mof_H 	H 	0.2735	0.2032	0.5897	0.159
Mof_H 	H 	0.1023	0.0978	0.5123	-0.013
Mof_H 	H 	0.3641	0.7831	0.3728	0.057
Mof_H 	H 	0.6893	0.446	0.3225	0.066
Mof_H 	H 	0.6886	0.5637	0.1748	0.176
Mof_H 	H 	0.7417	0.6975	0.8089	0.498
Mof_H 	H 	0.6472	0.7937	0.2309	0.458
Mof_H 	H 	0.5231	0.543	0.475	-0.199
Mof_H 	H 	0.9884	0.8878	0.4745	-0.22
Mof_H 	H 	0.1472	0.2309	0.4372	0.458
Mof_H 	H 	0.3227	0.9256	0.3064	0.525
Mof_H 	H 	0.5607	0.0495	0.4678	-0.596
Mof_H 	H 	0.4677	0.4971	0.4757	-0.471
Mof_H 	H 	0.8528	0.7937	0.5628	0.458
Mof_H 	H 	0.775	0.2168	0.2557	-0.111
Mof_H 	H 	0.0776	0.9646	0.4743	-0.495
Mof_H 	H 	0.4224	0.9646	0.4903	-0.494
Mof_H 	H 	0.9119	0.9711	0.3354	0.181
Mof_H 	H 	0.3045	0.8078	0.7076	0.506
Mof_H 	H 	0.1647	0.791	0.3031	0.165
Mof_H 	H 	0.1512	0.689	0.6398	0.147
Mof_H 	H 	0.8231	0.7895	0.2967	0.132
Mof_H 	H 	0.3114	0.4363	0.6111	0.176
Mof_H 	H 	0.5243	0.3944	0.9181	-0.601
Mof_H 	H 	0.3641	0.5897	0.2169	0.057
Mof_H 	H 	0.5776	0.4903	0.9646	-0.494
Mof_H 	H 	0.7265	0.6135	0.4103	0.159
Mof_H 	H 	0.1847	0.3859	0.7886	0.166
Mof_H 	H 	0.6219	0.9985	0.6706	0.174
Mof_H 	H 	0.3056	0.7697	0.4471	0.176
Mof_H 	H 	0.8356	0.7843	0.3376	0.156
Mof_H 	H 	0.1681	0.7352	0.1213	0.492
Mof_H 	H 	0.9835	0.5289	0.9652	-0.572
Mof_H 	H 	0.1154	0.0672	0.4469	0.08
Mof_H 	H 	0.0881	0.3354	0.9711	0.181
Mof_H 	H 	0.8986	0.6915	0.2262	-0.083
Mof_H 	H 	0.2004	0.14	0.6708	0.507
Mof_H 	H 	0.9201	0.8323	0.392	-0.026
Mof_H 	H 	0.3114	0.3889	0.8252	0.176
Mof_H 	H 	0.1769	0.2967	0.7895	0.132
Mof_H 	H 	0.239	0.0772	0.3217	-0.04
Mof_H 	H 	0.7963	0.8308	0.5537	0.484
Mof_H 	H 	0.7417	0.1114	0.3025	0.498
Mof_H 	H 	0.642	0.7466	0.511	0.467
Mof_H 	H 	0.5799	0.5597	0.392	-0.026
Mof_H 	H 	0.7996	0.6708	0.14	0.507
Mof_H 	H 	0.5071	0.5402	0.4309	-0.219
Mof_H 	H 	0.6886	0.8252	0.3889	0.176
Mof_H 	H 	0.6394	0.4241	0.1006	0.507
Mof_H 	H 	0.3056	0.5529	0.3226	0.176
Mof_H 	H 	0.3353	0.791	0.4879	0.165
Mof_H 	H 	0.8846	0.6203	0.5531	0.081
Mof_H 	H 	0.6394	0.8994	0.3235	0.507
Mof_H 	H 	0.2089	0.8555	0.665	0.482
Mof_H 	H 	0.5116	0.5867	0.4745	-0.22
Mof_H 	H 	0.2089	0.8095	0.1445	0.482
Mof_H 	H 	0.2497	0.7058	0.1032	0.546
Mof_H 	H 	0.8465	0.4439	0.6529	0.188
Mof_H 	H 	0.8977	0.5123	0.0978	-0.013
Mof_H 	H 	0.2996	0.3292	0.86	0.507
Mof_H 	H 	0.6167	0.3778	0.5173	0.215
Mof_H 	H 	0.8231	0.7033	0.4928	0.132
Mof_H 	H 	0.9757	0.5237	0.9181	-0.601
Mof_H 	H 	0.8056	0.3226	0.7697	0.176
Mof_H 	H 	0.261	0.0772	0.7555	-0.04
Mof_H 	H 	0.5165	0.0348	0.4711	-0.571
Mof_H 	H 	0.7284	0.1171	0.7511	0.512
Mof_H 	H 	0.8438	0.3191	0.9104	0.15
Mof_H 	H 	0.1248	0.4736	0.1415	0.187
Mof_H 	H 	0.6219	0.6721	0.0015	0.174
Mof_H 	H 	0.6512	0.6398	0.9508	0.148
Mof_H 	H 	0.239	0.6783	0.7555	-0.04
Mof_H 	H 	0.9393	0.0495	0.5817	-0.596
Mof_H 	H 	0.1023	0.4145	0.9022	-0.013
Mof_H 	H 	0.142	0.511	0.7644	0.467
Mof_H 	H 	0.6893	0.8765	0.554	0.066
Mof_H 	H 	0.642	0.489	0.2356	0.467
Mof_H 	H 	0.142	0.2534	0.489	0.467
Mof_H 	H 	0.6016	0.424	0.128	0.492
Mof_H 	H 	0.2265	0.4103	0.7968	0.159
Mof_H 	H 	0.6016	0.704	0.576	0.492
Mof_H 	H 	0.3752	0.6679	0.1415	0.187
Mof_H 	H 	0.806	0.3222	0.9392	0.147
Mof_H 	H 	0.4929	0.1093	0.5691	-0.219
Mof_H 	H 	0.3465	0.5561	0.3471	0.188
Mof_H 	H 	0.9769	0.525	0.457	-0.199
Mof_H 	H 	0.3977	0.0978	0.5855	-0.013
Mof_H 	H 	0.8752	0.3321	0.8585	0.188
Mof_H 	H 	0.0881	0.0289	0.3643	0.182
Mof_H 	H 	0.6944	0.3226	0.5529	0.176
Mof_H 	H 	0.0505	0.4919	0.0603	-0.493
Mof_H 	H 	0.6955	0.1002	0.2924	0.506
Mof_H 	H 	0.1415	0.2713	0.3995	0.479
Mof_H 	H 	0.236	0.7494	0.1463	0.501
Mof_H 	H 	0.6219	0.3294	0.3279	0.174
Mof_H 	H 	0.7089	0.665	0.8095	0.482
Mof_H 	H 	0.4677	0.9786	0.5029	-0.471
Mof_H 	H 	0.8114	0.6111	0.1748	0.176
Mof_H 	H 	0.3107	0.1235	0.6775	0.066
Mof_H 	H 	0.8438	0.0896	0.4087	0.15
Mof_H 	H 	0.764	0.2506	0.3969	0.5
Mof_H 	H 	0.6292	0.6874	0.0519	0.179
Mof_H 	H 	0.6562	0.5913	0.9104	0.15
Mof_H 	H 	0.5231	0.932	0.457	-0.199
Mof_H 	H 	0.9757	0.0819	0.6056	-0.601
Mof_H 	H 	0.9745	0.4201	0.8363	0.161
Mof_H 	H 	0.5881	0.6646	0.0289	0.182
Mof_H 	H 	0.7786	0.387	0.0849	-0.016
Mof_H 	H 	0.1681	0.3861	0.2648	0.492
Mof_H 	H 	0.3356	0.3376	0.5533	0.156
Mof_H 	H 	0.3984	0.128	0.424	0.492
Mof_H 	H 	0.6904	0.3749	0.8226	0.024
Mof_H 	H 	0.5607	0.5322	0.5817	-0.596
Mof_H 	H 	0.8606	0.4241	0.3235	0.507
Mof_H 	H 	0.8356	0.6624	0.4467	0.156
Mof_H 	H 	0.3465	0.6529	0.209	0.188
Mof_H 	H 	0.6773	0.0744	0.3808	0.525
Mof_H 	H 	0.2911	0.8555	0.1905	0.482
Mof_H 	H 	0.4835	0.5637	0.5289	-0.571
Mof_H 	H 	0.6359	0.3728	0.7831	0.057
Mof_H 	H 	0.3833	0.6222	0.1395	0.215
Mof_H 	H 	0.5323	0.4757	0.4971	-0.471
Mof_H 	H 	0.1769	0.2105	0.5072	0.132
Mof_H 	H 	0.9224	0.0354	0.5097	-0.495
Mof_H 	H 	0.3781	0.0015	0.6721	0.174
Mof_H 	H 	0.9677	0.4757	0.9786	-0.472
Mof_H 	H 	0.9495	0.0603	0.4919	-0.493
Mof_H 	H 	0.3833	0.8605	0.4827	0.215
Mof_H 	H 	0.8812	0.0953	0.471	0.224
Mof_H 	H 	0.2989	0.3062	0.8078	0.483
Mof_H 	H 	0.6647	0.209	0.6969	0.165
Mof_H 	H 	0.7037	0.8308	0.2771	0.484
Mof_H 	H 	0.7011	0.4984	0.1922	0.483
Mof_H 	H 	0.1398	0.1838	0.5101	0.165
Mof_H 	H 	0.8606	0.8994	0.5759	0.507
Mof_H 	H 	0.694	0.3222	0.383	0.146
Mof_H 	H 	0.7037	0.4463	0.1692	0.484
Mof_H 	H 	0.7214	0.387	0.3021	-0.016
Mof_H 	H 	0.8708	0.6874	0.6355	0.179
Mof_H 	H 	0.4769	0.457	0.932	-0.199
Mof_H 	H 	0.858	0.7466	0.2356	0.467
Mof_H 	H 	0.895	0.7913	0.5407	0.464
Mof_H 	H 	0.358	0.511	0.7466	0.467
Mof_H 	H 	0.0255	0.5838	0.1637	0.161
Mof_H 	H 	0.6248	0.5264	0.8585	0.187
Mof_H 	H 	0.3606	0.1006	0.4241	0.507
Mof_H 	H 	0.306	0.6778	0.0608	0.147
Mof_H 	H 	0.1188	0.9047	0.3757	0.224
Mof_H 	H 	0.1292	0.6355	0.6874	0.179
Mof_H 	H 	0.3107	0.554	0.8765	0.066
Mof_H 	H 	0.7497	0.6026	0.7058	0.546
Mof_H 	H 	0.1773	0.3808	0.3064	0.525
Mof_H 	H 	0.8353	0.4879	0.6969	0.165
Mof_H 	H 	0.261	0.6783	0.9228	-0.04
Mof_H 	H 	0.6023	0.9022	0.4877	-0.013
Mof_H 	H 	0.8096	0.1774	0.6251	0.024
Mof_H 	H 	0.2735	0.3865	0.7968	0.159
Mof_H 	H 	0.8641	0.3728	0.5897	0.057
Mof_H 	H 	0.8231	0.5072	0.2105	0.132
Mof_H 	H 	0.2989	0.1922	0.4984	0.483
Mof_H 	H 	0.5116	0.5255	0.1122	-0.22
Mof_H 	H 	0.9393	0.4183	0.4678	-0.596
Mof_H 	H 	0.8114	0.8252	0.4363	0.176
Mof_H 	H 	0.3356	0.2157	0.6624	0.156
Mof_H 	H 	0.605	0.4593	0.2087	0.464
Mof_H 	H 	0.7716	0.2489	0.8829	0.512
Mof_H 	H 	0.725	0.0389	0.2557	-0.112
Mof_H 	H 	0.4393	0.4678	0.0495	-0.596
Mof_H 	H 	0.8752	0.5264	0.6679	0.187
Mof_H 	H 	0.6769	0.5072	0.2967	0.132
Mof_H 	H 	0.2963	0.1692	0.4463	0.484
Mof_H 	H 	0.2989	0.5016	0.6938	0.483
Mof_H 	H 	0.3227	0.3808	0.0744	0.525
Mof_H 	H 	0.1535	0.5561	0.209	0.188
Mof_H 	H 	0.6188	0.529	0.9047	0.224
Mof_H 	H 	0.2284	0.8829	0.2489	0.512
Mof_H 	H 	0.3602	0.3263	0.5101	0.165
Mof_H 	H 	0.1167	0.5173	0.1395	0.215
Mof_H 	H 	0.5323	0.0214	0.5243	-0.471
Mof_H 	H 	0.9929	0.5402	0.1093	-0.219
Mof_H 	H 	0.7911	0.1445	0.8095	0.482
Mof_H 	H 	0.1886	0.1748	0.6111	0.176
Mof_H 	H 	0.3812	0.471	0.3757	0.224
Mof_H 	H 	0.4495	0.4919	0.4316	-0.492
Mof_H 	H 	0.7963	0.4463	0.2771	0.484
Mof_H 	H 	0.236	0.8537	0.6031	0.501
Mof_H 	H 	0.3227	0.6936	0.6192	0.525
Mof_H 	H 	0.9745	0.4162	0.5799	0.161
Mof_H 	H 	0.3846	0.3797	0.4469	0.081
Mof_H 	H 	0.0071	0.4309	0.8907	-0.219
Mof_H 	H 	0.6248	0.1415	0.6679	0.187
Mof_H 	H 	0.0776	0.5257	0.4903	-0.494
Mof_H 	H 	0.0323	0.9786	0.4757	-0.472
Mof_H 	H 	0.306	0.9392	0.617	0.147
Mof_H 	H 	0.3458	0.343	0.0777	0.504
Mof_H 	H 	0.3641	0.6272	0.4103	0.057
Mof_H 	H 	0.1188	0.6243	0.529	0.224
Mof_H 	H 	0.1904	0.5523	0.3749	0.024
Mof_H 	H 	0.6472	0.7691	0.5628	0.458
Mof_H 	H 	0.6188	0.3757	0.471	0.224
Mof_H 	H 	0.6955	0.1922	0.8998	0.506
Mof_H 	H 	0.4495	0.9397	0.5081	-0.492
Mof_H 	H 	0.8846	0.9328	0.3797	0.08
Mof_H 	H 	0.1167	0.8605	0.3778	0.215
Mof_H 	H 	0.1359	0.7831	0.4103	0.057
Mof_H 	H 	0.4884	0.4133	0.8878	-0.22
Mof_H 	H 	0.8458	0.657	0.9223	0.504
Mof_H 	H 	0.0776	0.5097	0.0354	-0.495
Mof_H 	H 	0.7503	0.2942	0.3974	0.546
Mof_H 	H 	0.8812	0.529	0.6243	0.224
Mof_H 	H 	0.6512	0.0492	0.689	0.148
Mof_H 	H 	0.8153	0.6141	0.4027	0.166
Mof_H 	H 	0.9201	0.5597	0.1677	-0.026
Mof_H 	H 	0.9224	0.4743	0.9646	-0.495
Mof_H 	H 	0.3585	0.2713	0.8718	0.479
Mof_H 	H 	0.1415	0.1282	0.7287	0.478
Mof_H 	H 	0.9884	0.5255	0.4133	-0.22
Mof_H 	H 	0.2996	0.14	0.4692	0.507
Mof_H 	H 	0.1681	0.8787	0.6139	0.492
Mof_H 	H 	0.3488	0.9508	0.6398	0.148
Mof_H 	H 	0.2516	0.8125	0.3567	0.064
Mof_H 	H 	0.7786	0.9151	0.3021	-0.016
Mof_H 	H 	0.9929	0.8907	0.4309	-0.219
Mof_H 	H 	0.8708	0.3645	0.0519	0.179
Mof_H 	H 	0.4929	0.4598	0.8907	-0.219
Mof_H 	H 	0.1542	0.343	0.2653	0.504
Mof_H 	H 	0.7484	0.3567	0.8125	0.064
Mof_H 	H 	0.5071	0.5691	0.1093	-0.219
Mof_H 	H 	0.8488	0.0492	0.3602	0.148
Mof_H 	H 	0.7484	0.4558	0.6433	0.064
Mof_H 	H 	0.7996	0.86	0.5308	0.507
Mof_H 	H 	0.2037	0.1692	0.7229	0.484
Mof_H 	H 	0.1644	0.2157	0.5533	0.156
Mof_H 	H 	0.2583	0.8089	0.6975	0.498
Mof_H 	H 	0.2516	0.6433	0.4558	0.064
Mof_H 	H 	0.8319	0.2648	0.3861	0.492
Mof_H 	H 	0.6359	0.4103	0.6272	0.057
Mof_H 	H 	0.8752	0.1415	0.4736	0.187
Mof_H 	H 	0.0505	0.5684	0.5081	-0.492
Mof_H 	H 	0.5881	0.3643	0.3354	0.182
Mof_H 	H 	0.4835	0.4711	0.0348	-0.571
Mof_H 	H 	0.3353	0.6969	0.209	0.165
Mof_H 	H 	0.3846	0.5531	0.9328	0.081
Mof_H 	H 	0.8986	0.7738	0.4653	-0.083
Mof_H 	H 	0.225	0.9611	0.7443	-0.112
Mof_H 	H 	0.2417	0.8089	0.1114	0.499
Mof_H 	H 	0.3812	0.6243	0.0953	0.224
Mof_H 	H 	0.2004	0.5308	0.86	0.507
Mof_H 	H 	0.8488	0.311	0.9508	0.148
Mof_H 	H 	0.8833	0.3778	0.8605	0.215
Mof_H 	H 	0.6769	0.7895	0.4928	0.132
Mof_H 	H 	0.2037	0.5537	0.8308	0.484
Mof_H 	H 	0.8641	0.2169	0.6272	0.057
Mof_H 	H 	0.4119	0.3354	0.3643	0.182
Mof_H 	H 	0.0255	0.5799	0.4162	0.161
Mof_H 	H 	0.4745	0.8363	0.4162	0.161
Mof_H 	H 	0.194	0.383	0.0608	0.147
Mof_H 	H 	0.4201	0.4403	0.8323	-0.026
Mof_H 	H 	0.7497	0.2942	0.8968	0.546
Mof_H 	H 	0.3488	0.3602	0.311	0.147
Mof_H 	H 	0.264	0.3969	0.1463	0.501
Mof_H 	H 	0.5323	0.5029	0.9786	-0.471
Mof_C 	C 	0.71314	0.84597	0.45167	0.071
Mof_C 	C 	0.0643	0.7575	0.3764	0.368
Mof_C 	C 	0.4606	0.5238	0.076	-1.65
Mof_C 	C 	0.1921	0.3034	0.4707	-1.607
Mof_C 	C 	0.6339	0.7915	0.2544	-1.54
Mof_C 	C 	0.28686	0.15403	0.6057	0.071
Mof_C 	C 	0.8704	0.3637	0.8751	-0.608
Mof_C 	C 	0.77	0.0411	0.7261	-0.626
Mof_C 	C 	0.7399	0.6653	0.6811	0.474
Mof_C 	C 	0.8338	0.8048	0.3265	-0.502
Mof_C 	C 	0.65708	0.59252	0.97177	0.046
Mof_C 	C 	0.2532	0.2622	0.3098	0.194
Mof_C 	C 	0.6948	0.51314	0.35719	0.077
Mof_C 	C 	0.63435	0.4511	0.6011	-0.023
Mof_C 	C 	0.3542	0.1683	0.4681	1.102
Mof_C 	C 	0.7155	0.1137	0.3156	-1.677
Mof_C 	C 	0.7162	0.0893	0.3425	1.25
Mof_C 	C 	0.76402	0.0806	0.48755	0.139
Mof_C 	C 	0.9492	0.4636	0.954	1.807
Mof_C 	C 	0.42183	0.6077	0.41038	-0.004
Mof_C 	C 	0.36995	0.39684	0.4379	-0.138
Mof_C 	C 	0.325	0.7255	0.6347	-1.67
Mof_C 	C 	0.1753	0.67	0.4633	-0.553
Mof_C 	C 	0.73598	0.40695	0.48755	0.139
Mof_C 	C 	0.7539	0.2626	0.379	-1.734
Mof_C 	C 	0.36995	0.04106	0.60316	-0.138
Mof_C 	C 	0.6306	0.4248	0.1274	-1.582
Mof_C 	C 	0.2485	0.6632	0.6917	-0.31
Mof_C 	C 	0.30503	0.9185	0.52111	-0.12
Mof_C 	C 	0.8704	0.1249	0.4886	-0.608
Mof_C 	C 	0.6261	0.656	0.4913	-0.488
Mof_C 	C 	0.67518	0.12212	0.62742	0.101
Mof_C 	C 	0.6182	0.5623	0.0955	0.151
Mof_C 	C 	0.35331	0.43736	0.46961	0.011
Mof_C 	C 	0.0394	0.924	0.4762	-1.652
Mof_C 	C 	0.2155	0.7981	0.1137	-1.677
Mof_C 	C 	0.80503	0.0815	0.47889	-0.12
Mof_C 	C 	0.4492	0.954	0.4904	1.805
Mof_C 	C 	0.88675	0.55263	0.423	-0.284
Mof_C 	C 	0.91298	0.5764	0.3733	-0.269
Mof_C 	C 	0.80503	0.39739	0.9185	-0.12
Mof_C 	C 	0.6662	0.6735	0.1952	-0.502
Mof_C 	C 	0.23822	0.11835	0.5398	-0.101
Mof_C 	C 	0.6182	0.9045	0.4668	0.151
Mof_C 	C 	0.82628	0.03704	0.44799	-0.087
Mof_C 	C 	0.86565	0.3989	0.5489	-0.023
Mof_C 	C 	0.2022	0.4028	0.592	-0.525
Mof_C 	C 	0.2626	0.6331	0.16094	-0.134
Mof_C 	C 	0.23598	0.48755	0.0806	0.139
Mof_C 	C 	0.0048	0.4441	0.5371	0.875
Mof_C 	C 	0.7601	0.3189	0.3347	0.474
Mof_C 	C 	0.90853	0.8331	0.417	0.185
Mof_C 	C 	0.10899	0.5816	0.11298	-0.05
Mof_C 	C 	0.2022	0.1892	0.5972	-0.525
Mof_C 	C 	0.1458	0.1683	0.7002	1.102
Mof_C 	C 	0.4357	0.7575	0.3811	0.368
Mof_C 	C 	0.5394	0.076	0.5238	-1.65
Mof_C 	C 	0.439	0.2429	0.6129	0.521
Mof_C 	C 	0.38106	0.57797	0.19217	-0.092
Mof_C 	C 	0.74495	0.91541	0.50388	0.122
Mof_C 	C 	0.4492	0.5364	0.046	1.805
Mof_C 	C 	0.33147	0.54386	0.0068	0.133
Mof_C 	C 	0.1458	0.2998	0.4681	1.103
Mof_C 	C 	0.2461	0.7374	0.1164	-1.735
Mof_C 	C 	0.36475	0.01082	0.61809	0.109
Mof_C 	C 	0.1182	0.0955	0.5332	0.151
Mof_C 	C 	0.13435	0.5489	0.3989	-0.023
Mof_C 	C 	0.8956	0.6628	0.202	0.269
Mof_C 	C 	0.1948	0.48686	0.64281	0.077
Mof_C 	C 	0.7601	0.6653	0.9842	0.474
Mof_C 	C 	0.8346	0.0601	0.3879	-0.482
Mof_C 	C 	0.69639	0.16184	0.64266	0.084
Mof_C 	C 	0.035	0.9405	0.5178	2.156
Mof_C 	C 	0.2428	0.51204	0.39171	-0.025
Mof_C 	C 	0.8224	0.1498	0.6096	-0.006
Mof_C 	C 	0.7515	0.3368	0.0285	-0.31
Mof_C 	C 	0.2548	0.193	0.9565	0.365
Mof_C 	C 	0.73822	0.88165	0.4602	-0.101
Mof_C 	C 	0.92183	0.19732	0.6077	-0.004
Mof_C 	C 	0.22661	0.37445	0.91349	-0.013
Mof_C 	C 	0.66853	0.53706	0.9932	0.133
Mof_C 	C 	0.59147	0.8331	0.4161	0.185
Mof_C 	C 	0.73822	0.57855	0.11835	-0.101
Mof_C 	C 	0.2346	0.0591	0.3822	0.092
Mof_C 	C 	0.19497	0.9185	0.39739	-0.12
Mof_C 	C 	0.8661	0.7915	0.5371	-1.54
Mof_C 	C 	0.30503	0.47889	0.39739	-0.12
Mof_C 	C 	0.76178	0.5398	0.11835	-0.101
Mof_C 	C 	0.25505	0.50388	0.91541	0.122
Mof_C 	C 	0.73598	0.0806	0.59305	0.139
Mof_C 	C 	0.1753	0.7933	0.33	-0.554
Mof_C 	C 	0.2452	0.193	0.2365	0.365
Mof_C 	C 	0.0508	0.5096	0.046	1.808
Mof_C 	C 	0.1776	0.5402	0.3904	-0.006
Mof_C 	C 	0.6458	0.4681	0.1683	1.102
Mof_C 	C 	0.5048	0.5371	0.093	0.875
Mof_C 	C 	0.92183	0.3923	0.58962	-0.004
Mof_C 	C 	0.65708	0.37925	0.40748	0.045
Mof_C 	C 	0.9357	0.2425	0.6189	0.368
Mof_C 	C 	0.7539	0.621	0.8836	-1.735
Mof_C 	C 	0.79847	0.87781	0.34727	-0.14
Mof_C 	C 	0.13435	0.6011	0.15	-0.023
Mof_C 	C 	0.175	0.7255	0.0908	-1.671
Mof_C 	C 	0.39101	0.53138	0.11298	-0.049
Mof_C 	C 	0.1168	0.3349	0.9754	-0.547
Mof_C 	C 	0.05281	0.8397	0.4279	-0.31
Mof_C 	C 	0.7433	0.2648	0.0223	-0.274
Mof_C 	C 	0.35331	0.53039	0.96775	0.01
Mof_C 	C 	0.17518	0.4947	0.12212	0.101
Mof_C 	C 	0.67518	0.5053	0.87788	0.101
Mof_C 	C 	0.465	0.5773	0.5178	2.153
Mof_C 	C 	0.8739	0.8353	0.4913	-0.488
Mof_C 	C 	0.63058	0.8715	0.3869	0.387
Mof_C 	C 	0.6662	0.5217	0.3265	-0.502
Mof_C 	C 	0.83147	0.45614	0.9932	0.134
Mof_C 	C 	0.7485	0.6917	0.0285	-0.311
Mof_C 	C 	0.9492	0.046	0.5096	1.808
Mof_C 	C 	0.19639	0.83816	0.35734	0.084
Mof_C 	C 	0.28686	0.3943	0.54833	0.071
Mof_C 	C 	0.26402	0.9194	0.51245	0.139
Mof_C 	C 	0.8542	0.8317	0.5319	1.102
Mof_C 	C 	0.82628	0.41095	0.96296	-0.087
Mof_C 	C 	0.1662	0.3265	0.8048	-0.502
Mof_C 	C 	0.89101	0.4184	0.53138	-0.049
Mof_C 	C 	0.26178	0.4602	0.88165	-0.101
Mof_C 	C 	0.965	0.0595	0.5773	2.156
Mof_C 	C 	0.7452	0.2365	0.0435	0.365
Mof_C 	C 	0.66853	0.45614	0.46294	0.133
Mof_C 	C 	0.42183	0.80268	0.3923	-0.004
Mof_C 	C 	0.14669	0.43736	0.96775	0.01
Mof_C 	C 	0.2461	0.8836	0.621	-1.735
Mof_C 	C 	0.90853	0.583	0.4161	0.185
Mof_C 	C 	0.38106	0.80783	0.3858	-0.092
Mof_C 	C 	0.7433	0.9777	0.2425	-0.275
Mof_C 	C 	0.78686	0.6057	0.45167	0.071
Mof_C 	C 	0.7162	0.2532	0.9107	1.25
Mof_C 	C 	0.3224	0.8502	0.3904	-0.005
Mof_C 	C 	0.7346	0.3822	0.3231	0.092
Mof_C 	C 	0.3346	0.6722	0.0601	-0.482
Mof_C 	C 	0.15708	0.40748	0.02823	0.046
Mof_C 	C 	0.41298	0.4236	0.6267	-0.269
Mof_C 	C 	0.7532	0.3098	0.0476	0.194
Mof_C 	C 	0.82482	0.37258	0.87788	0.101
Mof_C 	C 	0.70153	0.46946	0.34727	-0.14
Mof_C 	C 	0.88106	0.19217	0.6142	-0.093
Mof_C 	C 	0.6306	0.8726	0.2974	-1.582
Mof_C 	C 	0.8346	0.6121	0.6722	-0.481
Mof_C 	C 	0.63005	0.4379	0.39684	-0.138
Mof_C 	C 	0.7626	0.3669	0.83906	-0.134
Mof_C 	C 	0.3832	0.0246	0.6651	-0.548
Mof_C 	C 	0.2601	0.6811	0.6653	0.474
Mof_C 	C 	0.67372	0.41095	0.44799	-0.086
Mof_C 	C 	0.8247	0.33	0.7933	-0.554
Mof_C 	C 	0.3542	0.2998	0.8317	1.102
Mof_C 	C 	0.1306	0.5752	0.8726	-1.582
Mof_C 	C 	0.94719	0.4279	0.8397	-0.31
Mof_C 	C 	0.2485	0.0285	0.3368	-0.31
Mof_C 	C 	0.3247	0.7933	0.4633	-0.553
Mof_C 	C 	0.2428	0.60829	0.12033	-0.025
Mof_C 	C 	0.1296	0.8751	0.3637	-0.608
Mof_C 	C 	0.3247	0.5367	0.33	-0.553
Mof_C 	C 	0.23822	0.4602	0.57855	-0.101
Mof_C 	C 	0.3079	0.1673	0.4707	-1.607
Mof_C 	C 	0.1296	0.6363	0.5114	-0.608
Mof_C 	C 	0.061	0.37	0.6129	0.521
Mof_C 	C 	0.36475	0.60727	0.98918	0.109
Mof_C 	C 	0.56822	0.45697	0.5751	0.499
Mof_C 	C 	0.75505	0.91541	0.41153	0.122
Mof_C 	C 	0.2572	0.87967	0.39171	-0.025
Mof_C 	C 	0.8079	0.6966	0.1673	-1.607
Mof_C 	C 	0.2626	0.83906	0.47216	-0.134
Mof_C 	C 	0.3832	0.6405	0.9754	-0.548
Mof_C 	C 	0.3224	0.6096	0.4598	-0.005
Mof_C 	C 	0.3704	0.6363	0.1249	-0.607
Mof_C 	C 	0.8052	0.51314	0.15595	0.077
Mof_C 	C 	0.6044	0.798	0.3372	0.269
Mof_C 	C 	0.29847	0.34727	0.46946	-0.14
Mof_C 	C 	0.30503	0.60261	0.0815	-0.12
Mof_C 	C 	0.6921	0.8327	0.3034	-1.607
Mof_C 	C 	0.13005	0.39684	0.95894	-0.137
Mof_C 	C 	0.17372	0.44799	0.03704	-0.087
Mof_C 	C 	0.5048	0.5559	0.4629	0.874
Mof_C 	C 	0.59147	0.5839	0.417	0.185
Mof_C 	C 	0.13005	0.5621	0.60316	-0.138
Mof_C 	C 	0.32482	0.62742	0.12212	0.101
Mof_C 	C 	0.2461	0.379	0.2626	-1.734
Mof_C 	C 	0.2515	0.6632	0.9715	-0.311
Mof_C 	C 	0.2572	0.51204	0.12033	-0.025
Mof_C 	C 	0.6753	0.4633	0.7933	-0.553
Mof_C 	C 	0.42183	0.58962	0.19732	-0.004
Mof_C 	C 	0.69639	0.35734	0.51918	0.084
Mof_C 	C 	0.2838	0.9107	0.2532	1.25
Mof_C 	C 	0.8247	0.2067	0.5367	-0.553
Mof_C 	C 	0.9606	0.4762	0.924	-1.652
Mof_C 	C 	0.6296	0.3637	0.4886	-0.608
Mof_C 	C 	0.2838	0.7468	0.6575	1.249
Mof_C 	C 	0.2433	0.7352	0.9777	-0.275
Mof_C 	C 	0.2601	0.9842	0.3189	0.474
Mof_C 	C 	0.2433	0.2425	0.2648	-0.274
Mof_C 	C 	0.6044	0.5392	0.202	0.269
Mof_C 	C 	0.5508	0.4636	0.5096	1.805
Mof_C 	C 	0.535	0.0595	0.4822	2.153
Mof_C 	C 	0.7485	0.3368	0.3083	-0.31
Mof_C 	C 	0.26178	0.11835	0.57855	-0.101
Mof_C 	C 	0.4952	0.4629	0.5559	0.874
Mof_C 	C 	0.7399	0.0158	0.3347	0.474
Mof_C 	C 	0.7838	0.2532	0.3425	1.25
Mof_C 	C 	0.21314	0.15403	0.54833	0.071
Mof_C 	C 	0.27	0.7261	0.685	-0.625
Mof_C 	C 	0.69497	0.0815	0.60261	-0.12
Mof_C 	C 	0.325	0.9092	0.2745	-1.671
Mof_C 	C 	0.17372	0.96296	0.41095	-0.087
Mof_C 	C 	0.8818	0.9045	0.4377	0.151
Mof_C 	C 	0.7461	0.621	0.7374	-1.734
Mof_C 	C 	0.39101	0.88702	0.4184	-0.049
Mof_C 	C 	0.36565	0.6011	0.4511	-0.023
Mof_C 	C 	0.8338	0.6735	0.4783	-0.502
Mof_C 	C 	0.22661	0.08651	0.46096	-0.013
Mof_C 	C 	0.535	0.5178	0.5773	2.153
Mof_C 	C 	0.7428	0.48796	0.60829	-0.025
Mof_C 	C 	0.2468	0.0476	0.3098	0.194
Mof_C 	C 	0.56822	0.11813	0.54303	0.499
Mof_C 	C 	0.09147	0.1669	0.5839	0.185
Mof_C 	C 	0.8661	0.4629	0.2544	-1.54
Mof_C 	C 	0.25505	0.41153	0.49612	0.122
Mof_C 	C 	0.675	0.2745	0.9092	-1.671
Mof_C 	C 	0.2654	0.6178	0.9409	0.092
Mof_C 	C 	0.36942	0.4846	0.6131	0.387
Mof_C 	C 	0.63005	0.60316	0.04106	-0.138
Mof_C 	C 	0.8079	0.4707	0.3034	-1.607
Mof_C 	C 	0.07817	0.58962	0.3923	-0.004
Mof_C 	C 	0.78686	0.84597	0.3943	0.071
Mof_C 	C 	0.73	0.0411	0.315	-0.626
Mof_C 	C 	0.85331	0.46961	0.03225	0.01
Mof_C 	C 	0.23822	0.42145	0.88165	-0.101
Mof_C 	C 	0.4357	0.6189	0.3764	0.368
Mof_C 	C 	0.3704	0.4886	0.3637	-0.608
Mof_C 	C 	0.63525	0.61809	0.01082	0.109
Mof_C 	C 	0.86565	0.4511	0.85	-0.023
Mof_C 	C 	0.2317	0.7531	0.022	0.34
Mof_C 	C 	0.7626	0.47216	0.6331	-0.134
Mof_C 	C 	0.6948	0.84405	0.48686	0.077
Mof_C 	C 	0.0048	0.4629	0.907	0.876
Mof_C 	C 	0.1261	0.4913	0.8353	-0.488
Mof_C 	C 	0.84292	0.37925	0.97177	0.046
Mof_C 	C 	0.38675	0.44737	0.577	-0.284
Mof_C 	C 	0.7654	0.6769	0.6178	0.092
Mof_C 	C 	0.0048	0.093	0.5559	0.876
Mof_C 	C 	0.2539	0.379	0.1164	-1.734
Mof_C 	C 	0.1306	0.1274	0.7026	-1.582
Mof_C 	C 	0.1339	0.2544	0.4629	-1.54
Mof_C 	C 	0.965	0.4227	0.4822	2.153
Mof_C 	C 	0.2468	0.6902	0.7378	0.194
Mof_C 	C 	0.23	0.9589	0.685	-0.626
Mof_C 	C 	0.1168	0.0246	0.3595	-0.548
Mof_C 	C 	0.5643	0.3764	0.6189	0.368
Mof_C 	C 	0.70153	0.65273	0.12219	-0.14
Mof_C 	C 	0.27339	0.08651	0.62555	-0.013
Mof_C 	C 	0.1654	0.9399	0.3278	-0.482
Mof_C 	C 	0.80361	0.16184	0.51918	0.084
Mof_C 	C 	0.15708	0.62075	0.59252	0.045
Mof_C 	C 	0.7374	0.3669	0.52784	-0.134
Mof_C 	C 	0.6753	0.2067	0.67	-0.553
Mof_C 	C 	0.11325	0.12963	0.577	-0.284
Mof_C 	C 	0.83147	0.0068	0.46294	0.134
Mof_C 	C 	0.86995	0.4379	0.04106	-0.137
Mof_C 	C 	0.4606	0.5522	0.4762	-1.65
Mof_C 	C 	0.0643	0.6189	0.2425	0.368
Mof_C 	C 	0.34292	0.62075	0.02823	0.045
Mof_C 	C 	0.38106	0.6142	0.42203	-0.092
Mof_C 	C 	0.7468	0.7378	0.0476	0.194
Mof_C 	C 	0.25505	0.08459	0.58847	0.122
Mof_C 	C 	0.2845	0.3156	0.1137	-1.677
Mof_C 	C 	0.7978	0.8108	0.408	-0.525
Mof_C 	C 	0.535	0.4227	0.9405	2.153
Mof_C 	C 	0.1753	0.5367	0.2067	-0.554
Mof_C 	C 	0.43178	0.54303	0.11813	0.499
Mof_C 	C 	0.2978	0.1892	0.592	-0.525
Mof_C 	C 	0.3338	0.3265	0.5217	-0.502
Mof_C 	C 	0.7317	0.2469	0.978	0.34
Mof_C 	C 	0.10899	0.53138	0.4184	-0.049
Mof_C 	C 	0.64669	0.56264	0.03225	0.01
Mof_C 	C 	0.17518	0.87788	0.37258	0.101
Mof_C 	C 	0.44719	0.8397	0.4118	-0.31
Mof_C 	C 	0.57817	0.41038	0.6077	-0.004
Mof_C 	C 	0.6339	0.4629	0.2085	-1.54
Mof_C 	C 	0.19639	0.51918	0.16184	0.084
Mof_C 	C 	0.7346	0.9409	0.6178	0.092
Mof_C 	C 	0.58702	0.6267	0.4236	-0.269
Mof_C 	C 	0.7162	0.6575	0.7468	1.249
Mof_C 	C 	0.06822	0.88187	0.45697	0.5
Mof_C 	C 	0.175	0.9092	0.6347	-1.671
Mof_C 	C 	0.19639	0.64266	0.48082	0.084
Mof_C 	C 	0.2838	0.3425	0.0893	1.25
Mof_C 	C 	0.71314	0.54833	0.3943	0.071
Mof_C 	C 	0.1458	0.5319	0.8317	1.102
Mof_C 	C 	0.7654	0.3822	0.0591	0.092
Mof_C 	C 	0.86475	0.61809	0.60727	0.11
Mof_C 	C 	0.34292	0.97177	0.59252	0.046
Mof_C 	C 	0.08702	0.3733	0.5764	-0.269
Mof_C 	C 	0.7838	0.6575	0.9107	1.25
Mof_C 	C 	0.21314	0.3943	0.84597	0.071
Mof_C 	C 	0.7838	0.0893	0.7468	1.25
Mof_C 	C 	0.26178	0.42145	0.5398	-0.101
Mof_C 	C 	0.80361	0.35734	0.83816	0.084
Mof_C 	C 	0.1182	0.4668	0.5623	0.151
Mof_C 	C 	0.7845	0.1137	0.7981	-1.677
Mof_C 	C 	0.74495	0.58847	0.08459	0.122
Mof_C 	C 	0.465	0.9405	0.4227	2.153
Mof_C 	C 	0.2317	0.978	0.7311	0.34
Mof_C 	C 	0.84292	0.02823	0.40748	0.046
Mof_C 	C 	0.5394	0.4478	0.924	-1.65
Mof_C 	C 	0.88106	0.42203	0.80783	-0.093
Mof_C 	C 	0.175	0.3653	0.2745	-1.67
Mof_C 	C 	0.1948	0.35719	0.84405	0.077
Mof_C 	C 	0.60899	0.46862	0.5816	-0.049
Mof_C 	C 	0.4606	0.924	0.4478	-1.65
Mof_C 	C 	0.8694	0.4248	0.2974	-1.582
Mof_C 	C 	0.77339	0.46096	0.08651	-0.013
Mof_C 	C 	0.77339	0.91349	0.37445	-0.013
Mof_C 	C 	0.63525	0.39273	0.38191	0.11
Mof_C 	C 	0.1662	0.4783	0.6735	-0.502
Mof_C 	C 	0.16853	0.9932	0.45614	0.134
Mof_C 	C 	0.7374	0.47216	0.83906	-0.134
Mof_C 	C 	0.85331	0.56264	0.53039	0.011
Mof_C 	C 	0.16853	0.46294	0.0068	0.134
Mof_C 	C 	0.17372	0.58905	0.55201	-0.086
Mof_C 	C 	0.89101	0.11298	0.5816	-0.05
Mof_C 	C 	0.82482	0.5053	0.62742	0.101
Mof_C 	C 	0.32628	0.96296	0.55201	-0.086
Mof_C 	C 	0.7683	0.2469	0.2689	0.339
Mof_C 	C 	0.1044	0.202	0.6628	0.269
Mof_C 	C 	0.63058	0.6131	0.4846	0.387
Mof_C 	C 	0.91298	0.6267	0.2031	-0.269
Mof_C 	C 	0.7452	0.9565	0.193	0.365
Mof_C 	C 	0.825	0.2745	0.3653	-1.67
Mof_C 	C 	0.2317	0.2689	0.2469	0.339
Mof_C 	C 	0.8739	0.5087	0.344	-0.488
Mof_C 	C 	0.6753	0.33	0.5367	-0.553
Mof_C 	C 	0.10899	0.88702	0.46862	-0.05
Mof_C 	C 	0.2399	0.6811	0.0158	0.474
Mof_C 	C 	0.3346	0.3879	0.3278	-0.481
Mof_C 	C 	0.5508	0.046	0.5364	1.805
Mof_C 	C 	0.8694	0.8726	0.5752	-1.582
Mof_C 	C 	0.3052	0.15595	0.64281	0.077
Mof_C 	C 	0.9492	0.4904	0.5364	1.805
Mof_C 	C 	0.7845	0.2019	0.3156	-1.677
Mof_C 	C 	0.2155	0.3156	0.2019	-1.677
Mof_C 	C 	0.2845	0.8863	0.2019	-1.677
Mof_C 	C 	0.6296	0.5114	0.8751	-0.607
Mof_C 	C 	0.11325	0.44737	0.87037	-0.284
Mof_C 	C 	0.32482	0.4947	0.37258	0.101
Mof_C 	C 	0.7978	0.592	0.4028	-0.525
Mof_C 	C 	0.79847	0.65273	0.53054	-0.14
Mof_C 	C 	0.2162	0.9107	0.6575	1.25
Mof_C 	C 	0.73	0.685	0.7261	-0.625
Mof_C 	C 	0.19497	0.47889	0.0815	-0.12
Mof_C 	C 	0.3956	0.202	0.5392	0.269
Mof_C 	C 	0.16853	0.54386	0.53706	0.133
Mof_C 	C 	0.6339	0.7456	0.5371	-1.54
Mof_C 	C 	0.40853	0.1669	0.583	0.185
Mof_C 	C 	0.3338	0.4783	0.8048	-0.502
Mof_C 	C 	0.1948	0.15595	0.51314	0.077
Mof_C 	C 	0.1261	0.344	0.5087	-0.488
Mof_C 	C 	0.7317	0.022	0.2689	0.34
Mof_C 	C 	0.33147	0.46294	0.45614	0.133
Mof_C 	C 	0.1044	0.3372	0.5392	0.269
Mof_C 	C 	0.7022	0.592	0.1892	-0.525
Mof_C 	C 	0.88675	0.87037	0.44737	-0.284
Mof_C 	C 	0.57817	0.19732	0.58962	-0.004
Mof_C 	C 	0.61894	0.3858	0.80783	-0.092
Mof_C 	C 	0.7374	0.16094	0.6331	-0.134
Mof_C 	C 	0.9357	0.3764	0.7575	0.368
Mof_C 	C 	0.89101	0.46862	0.88702	-0.05
Mof_C 	C 	0.17518	0.62742	0.5053	0.101
Mof_C 	C 	0.77	0.685	0.9589	-0.626
Mof_C 	C 	0.63435	0.3989	0.85	-0.023
Mof_C 	C 	0.6921	0.4707	0.1673	-1.607
Mof_C 	C 	0.41298	0.2031	0.5764	-0.269
Mof_C 	C 	0.35331	0.03225	0.56264	0.01
Mof_C 	C 	0.2601	0.3347	0.0158	0.474
Mof_C 	C 	0.23598	0.59305	0.51245	0.139
Mof_C 	C 	0.93178	0.4249	0.54303	0.499
Mof_C 	C 	0.38675	0.423	0.87037	-0.284
Mof_C 	C 	0.60899	0.11298	0.53138	-0.049
Mof_C 	C 	0.7572	0.12033	0.60829	-0.025
Mof_C 	C 	0.939	0.7571	0.3871	0.521
Mof_C 	C 	0.1182	0.4377	0.9045	0.151
Mof_C 	C 	0.6168	0.9754	0.6405	-0.548
Mof_C 	C 	0.20153	0.53054	0.65273	-0.14
Mof_C 	C 	0.1776	0.6096	0.1498	-0.006
Mof_C 	C 	0.061	0.3871	0.7571	0.521
Mof_C 	C 	0.3052	0.35719	0.51314	0.077
Mof_C 	C 	0.44719	0.5882	0.4279	-0.31
Mof_C 	C 	0.67372	0.55201	0.96296	-0.086
Mof_C 	C 	0.77	0.2739	0.315	-0.625
Mof_C 	C 	0.88675	0.577	0.12963	-0.284
Mof_C 	C 	0.3661	0.5371	0.7456	-1.54
Mof_C 	C 	0.8224	0.4598	0.8502	-0.006
Mof_C 	C 	0.4492	0.5096	0.4636	1.805
Mof_C 	C 	0.07817	0.80268	0.41038	-0.004
Mof_C 	C 	0.1261	0.1647	0.656	-0.488
Mof_C 	C 	0.0394	0.5522	0.076	-1.652
Mof_C 	C 	0.6654	0.0601	0.6722	-0.482
Mof_C 	C 	0.6168	0.3595	0.3349	-0.549
Mof_C 	C 	0.23598	0.9194	0.40695	0.139
Mof_C 	C 	0.67372	0.03704	0.58905	-0.086
Mof_C 	C 	0.6776	0.1498	0.5402	-0.005
Mof_C 	C 	0.86475	0.98918	0.38191	0.108
Mof_C 	C 	0.3079	0.5293	0.6966	-1.607
Mof_C 	C 	0.8739	0.656	0.1647	-0.488
Mof_C 	C 	0.061	0.2429	0.63	0.521
Mof_C 	C 	0.1044	0.4608	0.798	0.269
Mof_C 	C 	0.4357	0.6236	0.2425	0.368
Mof_C 	C 	0.2346	0.3231	0.9409	0.092
Mof_C 	C 	0.33147	0.9932	0.53706	0.133
Mof_C 	C 	0.74495	0.49612	0.41153	0.122
Mof_C 	C 	0.0508	0.954	0.4636	1.807
Mof_C 	C 	0.13435	0.85	0.4511	-0.023
Mof_C 	C 	0.3739	0.344	0.8353	-0.488
Mof_C 	C 	0.2433	0.0223	0.7575	-0.275
Mof_C 	C 	0.2683	0.7531	0.7311	0.339
Mof_C 	C 	0.8346	0.3278	0.9399	-0.482
Mof_C 	C 	0.41298	0.3733	0.7969	-0.269
Mof_C 	C 	0.09147	0.417	0.8331	0.185
Mof_C 	C 	0.13058	0.1285	0.6131	0.386
Mof_C 	C 	0.24495	0.08459	0.49612	0.122
Mof_C 	C 	0.27339	0.53904	0.91349	-0.013
Mof_C 	C 	0.2539	0.8836	0.2626	-1.734
Mof_C 	C 	0.7567	0.9777	0.7352	-0.275
Mof_C 	C 	0.3956	0.4608	0.6628	0.269
Mof_C 	C 	0.1296	0.4886	0.1249	-0.608
Mof_C 	C 	0.27	0.315	0.0411	-0.626
Mof_C 	C 	0.32628	0.44799	0.41095	-0.086
Mof_C 	C 	0.63525	0.98918	0.60727	0.109
Mof_C 	C 	0.1654	0.6722	0.6121	-0.481
Mof_C 	C 	0.2374	0.83906	0.3669	-0.134
Mof_C 	C 	0.7654	0.9409	0.3231	0.092
Mof_C 	C 	0.9952	0.5371	0.4441	0.875
Mof_C 	C 	0.09147	0.4161	0.583	0.185
Mof_C 	C 	0.8818	0.5623	0.4668	0.151
Mof_C 	C 	0.7461	0.2626	0.8836	-1.734
Mof_C 	C 	0.55281	0.4279	0.5882	-0.31
Mof_C 	C 	0.7572	0.39171	0.51204	-0.025
Mof_C 	C 	0.3818	0.4377	0.5332	0.151
Mof_C 	C 	0.7532	0.9524	0.2622	0.194
Mof_C 	C 	0.3818	0.4668	0.9045	0.151
Mof_C 	C 	0.65708	0.02823	0.62075	0.045
Mof_C 	C 	0.7155	0.6844	0.7981	-1.676
Mof_C 	C 	0.36942	0.1285	0.5154	0.387
Mof_C 	C 	0.06822	0.5751	0.11813	0.5
Mof_C 	C 	0.26402	0.59305	0.0806	0.139
Mof_C 	C 	0.6182	0.5332	0.4377	0.151
Mof_C 	C 	0.28686	0.45167	0.84597	0.071
Mof_C 	C 	0.2399	0.9842	0.6653	0.474
Mof_C 	C 	0.67518	0.37258	0.4947	0.101
Mof_C 	C 	0.2485	0.3083	0.9715	-0.311
Mof_C 	C 	0.7155	0.2019	0.8863	-1.677
Mof_C 	C 	0.73	0.2739	0.9589	-0.626
Mof_C 	C 	0.05281	0.5882	0.1603	-0.31
Mof_C 	C 	0.7626	0.16094	0.52784	-0.134
Mof_C 	C 	0.1339	0.2085	0.7456	-1.54
Mof_C 	C 	0.22661	0.53904	0.62555	-0.013
Mof_C 	C 	0.86942	0.6131	0.1285	0.386
Mof_C 	C 	0.86942	0.8715	0.4846	0.387
Mof_C 	C 	0.8832	0.9754	0.3349	-0.547
Mof_C 	C 	0.88106	0.3858	0.57797	-0.093
Mof_C 	C 	0.035	0.5773	0.0595	2.156
Mof_C 	C 	0.2452	0.0435	0.807	0.365
Mof_C 	C 	0.9606	0.4478	0.5238	-1.651
Mof_C 	C 	0.13525	0.60727	0.61809	0.11
Mof_C 	C 	0.3661	0.2544	0.7915	-1.54
Mof_C 	C 	0.0394	0.5238	0.4478	-1.651
Mof_C 	C 	0.9357	0.3811	0.6236	0.368
Mof_C 	C 	0.86995	0.60316	0.5621	-0.138
Mof_C 	C 	0.5394	0.4762	0.5522	-1.65
Mof_C 	C 	0.7452	0.807	0.7635	0.365
Mof_C 	C 	0.58702	0.5764	0.2031	-0.269
Mof_C 	C 	0.0643	0.6236	0.3811	0.368
Mof_C 	C 	0.30361	0.64266	0.16184	0.084
Mof_C 	C 	0.7539	0.1164	0.7374	-1.735
Mof_C 	C 	0.36995	0.5621	0.95894	-0.138
Mof_C 	C 	0.2683	0.978	0.2469	0.34
Mof_C 	C 	0.7548	0.807	0.0435	0.365
Mof_C 	C 	0.3694	0.5752	0.7026	-1.582
Mof_C 	C 	0.2022	0.408	0.8108	-0.525
Mof_C 	C 	0.3224	0.5402	0.1498	-0.005
Mof_C 	C 	0.75505	0.58847	0.50388	0.122
Mof_C 	C 	0.5508	0.4904	0.954	1.805
Mof_C 	C 	0.34292	0.40748	0.37925	0.045
Mof_C 	C 	0.939	0.63	0.2429	0.521
Mof_C 	C 	0.69639	0.48082	0.83816	0.084
Mof_C 	C 	0.8052	0.64281	0.48686	0.077
Mof_C 	C 	0.825	0.0908	0.7255	-1.671
Mof_C 	C 	0.2654	0.0591	0.6769	0.092
Mof_C 	C 	0.07817	0.6077	0.19732	-0.004
Mof_C 	C 	0.27	0.9589	0.2739	-0.626
Mof_C 	C 	0.15708	0.97177	0.37925	0.046
Mof_C 	C 	0.84292	0.59252	0.62075	0.045
Mof_C 	C 	0.14669	0.53039	0.56264	0.011
Mof_C 	C 	0.6261	0.5087	0.1647	-0.488
Mof_C 	C 	0.9952	0.907	0.4629	0.876
Mof_C 	C 	0.2515	0.0285	0.6917	-0.311
Mof_C 	C 	0.965	0.5178	0.9405	2.156
Mof_C 	C 	0.86995	0.95894	0.39684	-0.137
Mof_C 	C 	0.8956	0.5392	0.3372	0.269
Mof_C 	C 	0.08702	0.2031	0.6267	-0.269
Mof_C 	C 	0.2532	0.0476	0.7378	0.194
Mof_C 	C 	0.1654	0.3879	0.0601	-0.482
Mof_C 	C 	0.86942	0.5154	0.3869	0.387
Mof_C 	C 	0.23	0.7261	0.0411	-0.626
Mof_C 	C 	0.05281	0.5721	0.4118	-0.31
Mof_C 	C 	0.9606	0.076	0.5522	-1.652
Mof_C 	C 	0.7548	0.2365	0.193	0.365
Mof_C 	C 	0.325	0.3653	0.0908	-1.671
Mof_C 	C 	0.7022	0.5972	0.408	-0.525
Mof_C 	C 	0.4952	0.093	0.5371	0.875
Mof_C 	C 	0.63435	0.15	0.5489	-0.023
Mof_C 	C 	0.8542	0.4681	0.2998	1.103
Mof_C 	C 	0.75505	0.49612	0.08459	0.122
Mof_C 	C 	0.3739	0.1647	0.5087	-0.488
Mof_C 	C 	0.3247	0.67	0.2067	-0.553
Mof_C 	C 	0.439	0.3871	0.63	0.521
Mof_C 	C 	0.24495	0.41153	0.91541	0.122
Mof_C 	C 	0.675	0.0908	0.3653	-1.671
Mof_C 	C 	0.60899	0.4184	0.88702	-0.049
Mof_C 	C 	0.6776	0.4598	0.6096	-0.005
Mof_C 	C 	0.6306	0.7026	0.5752	-1.582
Mof_C 	C 	0.6458	0.8317	0.2998	1.102
Mof_C 	C 	0.2567	0.2425	0.9777	-0.275
Mof_C 	C 	0.2452	0.7635	0.9565	0.365
Mof_C 	C 	0.19497	0.60261	0.52111	-0.12
Mof_C 	C 	0.76178	0.57855	0.4602	-0.101
Mof_C 	C 	0.61325	0.55263	0.12963	-0.284
Mof_C 	C 	0.77339	0.62555	0.53904	-0.013
Mof_C 	C 	0.8956	0.798	0.4608	0.269
Mof_C 	C 	0.61325	0.87037	0.423	-0.284
Mof_C 	C 	0.2428	0.87967	0.48796	-0.025
Mof_C 	C 	0.7461	0.1164	0.379	-1.734
Mof_C 	C 	0.3739	0.4913	0.656	-0.488
Mof_C 	C 	0.2572	0.60829	0.48796	-0.025
Mof_C 	C 	0.90853	0.5839	0.1669	0.185
Mof_C 	C 	0.3542	0.5319	0.7002	1.103
Mof_C 	C 	0.06822	0.54303	0.4249	0.499
Mof_C 	C 	0.6776	0.3904	0.8502	-0.005
Mof_C 	C 	0.39101	0.5816	0.46862	-0.049
Mof_C 	C 	0.2548	0.0435	0.2365	0.365
Mof_C 	C 	0.57817	0.3923	0.80268	-0.004
Mof_C 	C 	0.36942	0.3869	0.8715	0.387
Mof_C 	C 	0.13525	0.38191	0.98918	0.108
Mof_C 	C 	0.3832	0.3349	0.3595	-0.549
Mof_C 	C 	0.5643	0.2425	0.6236	0.368
Mof_C 	C 	0.6261	0.8353	0.344	-0.488
Mof_C 	C 	0.21314	0.45167	0.6057	0.071
Mof_C 	C 	0.1339	0.5371	0.7915	-1.54
Mof_C 	C 	0.7428	0.39171	0.87967	-0.025
Mof_C 	C 	0.9952	0.5559	0.093	0.876
Mof_C 	C 	0.3661	0.2085	0.4629	-1.54
Mof_C 	C 	0.83147	0.53706	0.54386	0.133
Mof_C 	C 	0.8052	0.84405	0.35719	0.077
Mof_C 	C 	0.61325	0.577	0.44737	-0.284
Mof_C 	C 	0.3704	0.8751	0.5114	-0.607
Mof_C 	C 	0.61894	0.42203	0.6142	-0.092
Mof_C 	C 	0.93178	0.11813	0.5751	0.5
Mof_C 	C 	0.6168	0.6651	0.0246	-0.548
Mof_C 	C 	0.2155	0.8863	0.6844	-1.677
Mof_C 	C 	0.2626	0.52784	0.3669	-0.134
Mof_C 	C 	0.8704	0.5114	0.6363	-0.608
Mof_C 	C 	0.43178	0.5751	0.45697	0.499
Mof_C 	C 	0.71314	0.6057	0.15403	0.071
Mof_C 	C 	0.7515	0.9715	0.3083	-0.311
Mof_C 	C 	0.7346	0.6769	0.0591	0.092
Mof_C 	C 	0.8818	0.5332	0.0955	0.151
Mof_C 	C 	0.7485	0.9715	0.6632	-0.311
Mof_C 	C 	0.86475	0.39273	0.01082	0.109
Mof_C 	C 	0.93178	0.45697	0.88187	0.5
Mof_C 	C 	0.27339	0.37445	0.46096	-0.013
Mof_C 	C 	0.61894	0.19217	0.57797	-0.092
Mof_C 	C 	0.63005	0.95894	0.5621	-0.138
Mof_C 	C 	0.1662	0.1952	0.5217	-0.502
Mof_C 	C 	0.561	0.7571	0.37	0.521
Mof_C 	C 	0.3694	0.2974	0.8726	-1.582
Mof_C 	C 	0.11894	0.6142	0.19217	-0.093
Mof_C 	C 	0.85331	0.96775	0.43736	0.01
Mof_C 	C 	0.30361	0.51918	0.35734	0.084
Mof_C 	C 	0.73822	0.5398	0.42145	-0.101
Mof_C 	C 	0.8338	0.5217	0.1952	-0.502
Mof_C 	C 	0.7683	0.7311	0.978	0.34
Mof_C 	C 	0.29847	0.12219	0.65273	-0.14
Mof_C 	C 	0.6948	0.64281	0.15595	0.077
Mof_C 	C 	0.6662	0.8048	0.4783	-0.502
Mof_C 	C 	0.3694	0.1274	0.4248	-1.582
Mof_C 	C 	0.3338	0.1952	0.6735	-0.502
Mof_C 	C 	0.439	0.37	0.7571	0.521
Mof_C 	C 	0.7468	0.9524	0.6902	0.194
Mof_C 	C 	0.2548	0.7635	0.807	0.365
Mof_C 	C 	0.675	0.6347	0.7255	-1.67
Mof_C 	C 	0.82628	0.55201	0.58905	-0.086
Mof_C 	C 	0.2567	0.0223	0.2648	-0.274
Mof_C 	C 	0.2468	0.2622	0.9524	0.194
Mof_C 	C 	0.561	0.63	0.3871	0.521
Mof_C 	C 	0.3956	0.3372	0.798	0.269
Mof_C 	C 	0.64669	0.46961	0.43736	0.011
Mof_C 	C 	0.6044	0.6628	0.4608	0.269
Mof_C 	C 	0.2845	0.7981	0.6844	-1.676
Mof_C 	C 	0.76402	0.40695	0.9194	0.139
Mof_C 	C 	0.2374	0.52784	0.16094	-0.134
Mof_C 	C 	0.6921	0.6966	0.5293	-1.607
Mof_C 	C 	0.6296	0.1249	0.6363	-0.607
Mof_C 	C 	0.2539	0.7374	0.621	-1.734
Mof_C 	C 	0.6654	0.6121	0.9399	-0.482
Mof_C 	C 	0.6654	0.3278	0.3879	-0.481
Mof_C 	C 	0.2978	0.408	0.5972	-0.525
Mof_C 	C 	0.92183	0.41038	0.80268	-0.004
Mof_C 	C 	0.2978	0.4028	0.8108	-0.525
Mof_C 	C 	0.72661	0.46096	0.37445	-0.013
Mof_C 	C 	0.7532	0.7378	0.6902	0.194
Mof_C 	C 	0.36565	0.5489	0.15	-0.023
Mof_C 	C 	0.7567	0.7575	0.0223	-0.275
Mof_C 	C 	0.64669	0.96775	0.53039	0.01
Mof_C 	C 	0.6458	0.7002	0.5319	1.103
Mof_C 	C 	0.8247	0.4633	0.67	-0.553
Mof_C 	C 	0.7978	0.5972	0.1892	-0.525
Mof_C 	C 	0.29847	0.53054	0.87781	-0.14
Mof_C 	C 	0.8832	0.6651	0.6405	-0.549
Mof_C 	C 	0.8694	0.7026	0.1274	-1.582
Mof_C 	C 	0.36565	0.85	0.3989	-0.023
Mof_C 	C 	0.44719	0.5721	0.1603	-0.31
Mof_C 	C 	0.7317	0.7311	0.7531	0.339
Mof_C 	C 	0.7515	0.6917	0.6632	-0.31
Mof_C 	C 	0.2654	0.3231	0.3822	0.092
Mof_C 	C 	0.72661	0.91349	0.53904	-0.013
Mof_C 	C 	0.7845	0.6844	0.8863	-1.677
Mof_C 	C 	0.939	0.6129	0.37	0.521
Mof_C 	C 	0.26402	0.48755	0.40695	0.139
Mof_C 	C 	0.465	0.4822	0.0595	2.153
Mof_C 	C 	0.7433	0.7575	0.7352	-0.274
Mof_C 	C 	0.7022	0.8108	0.4028	-0.525
Mof_C 	C 	0.69497	0.52111	0.9185	-0.12
Mof_C 	C 	0.72661	0.62555	0.08651	-0.013
Mof_C 	C 	0.4952	0.4441	0.907	0.875
Mof_C 	C 	0.91298	0.7969	0.4236	-0.269
Mof_C 	C 	0.40853	0.417	0.5839	0.185
Mof_C 	C 	0.2532	0.6902	0.9524	0.194
Mof_C 	C 	0.7399	0.3189	0.9842	0.474
Mof_C 	C 	0.32628	0.58905	0.03704	-0.086
Mof_C 	C 	0.1306	0.2974	0.4248	-1.582
Mof_C 	C 	0.1168	0.6405	0.6651	-0.549
Mof_C 	C 	0.38675	0.12963	0.55263	-0.284
Mof_C 	C 	0.11894	0.80783	0.42203	-0.093
Mof_C 	C 	0.55281	0.4118	0.8397	-0.31
Mof_C 	C 	0.59147	0.583	0.1669	0.185
Mof_C 	C 	0.8661	0.7456	0.2085	-1.54
Mof_C 	C 	0.63058	0.5154	0.1285	0.387
Mof_C 	C 	0.3346	0.9399	0.6121	-0.482
Mof_C 	C 	0.8224	0.3904	0.5402	-0.006
Mof_C 	C 	0.5048	0.907	0.4441	0.875
Mof_C 	C 	0.86565	0.15	0.6011	-0.023
Mof_C 	C 	0.1921	0.1673	0.6966	-1.607
Mof_C 	C 	0.80503	0.52111	0.60261	-0.12
Mof_C 	C 	0.11894	0.57797	0.3858	-0.093
Mof_C 	C 	0.3052	0.48686	0.84405	0.077
Mof_C 	C 	0.3079	0.3034	0.8327	-1.607
Mof_C 	C 	0.82482	0.12212	0.4947	0.101
Mof_C 	C 	0.5643	0.3811	0.7575	0.368
Mof_C 	C 	0.43178	0.88187	0.4249	0.499
Mof_C 	C 	0.7567	0.2648	0.2425	-0.274
Mof_C 	C 	0.32482	0.87788	0.5053	0.101
Mof_C 	C 	0.76402	0.51245	0.59305	0.139
Mof_C 	C 	0.2374	0.6331	0.47216	-0.134
Mof_C 	C 	0.2346	0.6178	0.6769	0.092
Mof_C 	C 	0.14669	0.03225	0.46961	0.01
Mof_C 	C 	0.55281	0.1603	0.5721	-0.31
Mof_C 	C 	0.94719	0.1603	0.5882	-0.31
Mof_C 	C 	0.561	0.6129	0.2429	0.521
Mof_C 	C 	0.08702	0.4236	0.7969	-0.269
Mof_C 	C 	0.80361	0.48082	0.64266	0.084
Mof_C 	C 	0.13058	0.4846	0.8715	0.387
Mof_C 	C 	0.825	0.6347	0.9092	-1.671
Mof_C 	C 	0.20153	0.34727	0.87781	-0.14
Mof_C 	C 	0.8832	0.3595	0.0246	-0.548
Mof_C 	C 	0.66853	0.0068	0.54386	0.133
Mof_C 	C 	0.7468	0.3098	0.2622	0.194
Mof_C 	C 	0.23	0.315	0.2739	-0.625
Mof_C 	C 	0.11325	0.423	0.55263	-0.284
Mof_C 	C 	0.7683	0.022	0.7531	0.34
Mof_C 	C 	0.2515	0.3083	0.3368	-0.31
Mof_C 	C 	0.69497	0.39739	0.47889	-0.12
Mof_C 	C 	0.40853	0.4161	0.8331	0.185
Mof_C 	C 	0.30361	0.83816	0.48082	0.084
Mof_C 	C 	0.76178	0.88165	0.42145	-0.101
Mof_C 	C 	0.73598	0.51245	0.9194	0.139
Mof_C 	C 	0.1776	0.8502	0.4598	-0.006
Mof_C 	C 	0.56822	0.4249	0.88187	0.499
Mof_C 	C 	0.2399	0.3347	0.3189	0.474
Mof_C 	C 	0.79847	0.46946	0.12219	-0.14
Mof_C 	C 	0.13005	0.04106	0.4379	-0.137
Mof_C 	C 	0.78686	0.54833	0.15403	0.071
Mof_C 	C 	0.2162	0.3425	0.2532	1.25
Mof_C 	C 	0.58702	0.7969	0.3733	-0.269
Mof_C 	C 	0.0508	0.5364	0.4904	1.805
Mof_C 	C 	0.2162	0.7468	0.0893	1.25
Mof_C 	C 	0.035	0.4822	0.4227	2.153
Mof_C 	C 	0.8542	0.7002	0.1683	1.102
Mof_C 	C 	0.7601	0.0158	0.6811	0.474
Mof_C 	C 	0.94719	0.4118	0.5721	-0.31
Mof_C 	C 	0.24495	0.50388	0.58847	0.122
Mof_C 	C 	0.7548	0.9565	0.7635	0.365
Mof_C 	C 	0.8079	0.8327	0.5293	-1.607
Mof_C 	C 	0.1921	0.5293	0.8327	-1.607
Mof_C 	C 	0.13058	0.3869	0.5154	0.387
Mof_C 	C 	0.13525	0.01082	0.39273	0.109
Mof_C 	C 	0.2683	0.2689	0.022	0.34
Mof_C 	C 	0.7572	0.48796	0.87967	-0.025
Mof_C 	C 	0.70153	0.87781	0.53054	-0.14
Mof_C 	C 	0.36475	0.38191	0.39273	0.11
Mof_C 	C 	0.3818	0.0955	0.5623	0.151
Mof_C 	C 	0.2567	0.7352	0.7575	-0.274
Mof_C 	C 	0.20153	0.12219	0.46946	-0.14
Mof_C 	C 	0.7428	0.12033	0.51204	-0.025
Mof_N 	N 	0.35917	0.4556	0.5176	-0.284
Mof_N 	N 	0.14083	0.062	0.5176	-0.284
Mof_N 	N 	0.69923	0.4021	0.88432	-0.259
Mof_N 	N 	0.85917	0.938	0.4556	-0.284
Mof_N 	N 	0.80077	0.11568	0.5979	-0.259
Mof_N 	N 	0.19923	0.88432	0.48222	-0.259
Mof_N 	N 	0.85917	0.5176	0.062	-0.284
Mof_N 	N 	0.85917	0.5444	0.4824	-0.284
Mof_N 	N 	0.19923	0.51778	0.4021	-0.259
Mof_N 	N 	0.14083	0.4824	0.5444	-0.284
Mof_N 	N 	0.7392	0.9465	0.5828	-0.282
Mof_N 	N 	0.7392	0.6363	0.0535	-0.282
Mof_N 	N 	0.2392	0.0535	0.4172	-0.282
Mof_N 	N 	0.2392	0.5828	0.6363	-0.282
Mof_N 	N 	0.69923	0.48222	0.5979	-0.259
Mof_N 	N 	0.14083	0.4556	0.938	-0.284
Mof_N 	N 	0.64083	0.938	0.4824	-0.284
Mof_N 	N 	0.69923	0.11568	0.51778	-0.259
Mof_N 	N 	0.80077	0.48222	0.88432	-0.259
Mof_N 	N 	0.7608	0.6363	0.5828	-0.282
Mof_N 	N 	0.35917	0.4824	0.938	-0.284
Mof_N 	N 	0.35917	0.062	0.5444	-0.284
Mof_N 	N 	0.30077	0.5979	0.48222	-0.259
Mof_N 	N 	0.30077	0.51778	0.11568	-0.259
Mof_N 	N 	0.64083	0.5444	0.062	-0.284
Mof_N 	N 	0.2608	0.0535	0.6363	-0.282
Mof_N 	N 	0.7392	0.4172	0.3637	-0.282
Mof_N 	N 	0.19923	0.5979	0.11568	-0.259
Mof_N 	N 	0.64083	0.5176	0.4556	-0.284
Mof_N 	N 	0.80077	0.4021	0.51778	-0.259
Mof_N 	N 	0.2608	0.3637	0.4172	-0.282
Mof_N 	N 	0.30077	0.88432	0.4021	-0.259
Mof_N 	N 	0.2392	0.3637	0.9465	-0.282
Mof_N 	N 	0.2608	0.5828	0.9465	-0.282
Mof_N 	N 	0.7608	0.4172	0.0535	-0.282
Mof_N 	N 	0.7608	0.9465	0.3637	-0.282
Mof_O 	O 	0.31199	0.49964	0.48896	-0.643
Mof_O 	O 	0.0319	0.644	0.3993	-0.506
Mof_O 	O 	0.2348	0.1834	0.9808	-0.266
Mof_O 	O 	0.6518	0.90448	0.3877	-0.519
Mof_O 	O 	0.74312	0.43101	0.95776	-0.657
Mof_O 	O 	0.2661	0.747	0.8306	-0.251
Mof_O 	O 	0.3281	0.42636	0.00316	-0.69
Mof_O 	O 	0.1518	0.51678	0.90448	-0.519
Mof_O 	O 	0.9681	0.356	0.7553	-0.506
Mof_O 	O 	0.9388	0.6692	0.2712	-0.535
Mof_O 	O 	0.2652	0.7974	0.9808	-0.266
Mof_O 	O 	0.73168	0.95173	0.43788	-0.648
Mof_O 	O 	0.9458	0.6467	0.4013	-0.566
Mof_O 	O 	0.08465	0.63203	0.3578	-0.529
Mof_O 	O 	0.5542	0.6467	0.2454	-0.566
Mof_O 	O 	0.6719	0.4232	0.99684	-0.69
Mof_O 	O 	0.23168	0.04827	0.56212	-0.648
Mof_O 	O 	0.91535	0.27423	0.6422	-0.529
Mof_O 	O 	0.0319	0.6007	0.2447	-0.506
Mof_O 	O 	0.3785	0.5065	0.0726	-0.326
Mof_O 	O 	0.26832	0.51385	0.56212	-0.648
Mof_O 	O 	0.41535	0.6422	0.36797	-0.529
Mof_O 	O 	0.2339	0.1694	0.253	-0.251
Mof_O 	O 	0.6215	0.0726	0.5065	-0.326
Mof_O 	O 	0.0612	0.3308	0.602	-0.535
Mof_O 	O 	0.5542	0.5987	0.3533	-0.566
Mof_O 	O 	0.25688	0.95776	0.43101	-0.657
Mof_O 	O 	0.18801	0.49964	0.01068	-0.643
Mof_O 	O 	0.3482	0.09552	0.48322	-0.519
Mof_O 	O 	0.8281	0.57364	0.99684	-0.69
Mof_O 	O 	0.25688	0.56899	0.52675	-0.657
Mof_O 	O 	0.4458	0.4013	0.7546	-0.566
Mof_O 	O 	0.1215	0.9274	0.4935	-0.326
Mof_O 	O 	0.1215	0.5661	0.0726	-0.326
Mof_O 	O 	0.24312	0.56899	0.04224	-0.657
Mof_O 	O 	0.26832	0.04827	0.48615	-0.648
Mof_O 	O 	0.58465	0.36797	0.6422	-0.529
Mof_O 	O 	0.5319	0.2447	0.644	-0.506
Mof_O 	O 	0.4458	0.2454	0.6467	-0.566
Mof_O 	O 	0.5319	0.356	0.6007	-0.506
Mof_O 	O 	0.4388	0.2712	0.602	-0.535
Mof_O 	O 	0.18801	0.98932	0.48896	-0.643
Mof_O 	O 	0.4681	0.7553	0.3993	-0.506
Mof_O 	O 	0.1518	0.09552	0.6123	-0.519
Mof_O 	O 	0.0542	0.3533	0.7546	-0.566
Mof_O 	O 	0.1719	0.5768	0.00316	-0.69
Mof_O 	O 	0.8482	0.6123	0.09552	-0.519
Mof_O 	O 	0.41535	0.63203	0.27423	-0.529
Mof_O 	O 	0.8281	0.00316	0.5768	-0.69
Mof_O 	O 	0.25688	0.47325	0.04224	-0.657
Mof_O 	O 	0.8482	0.48322	0.3877	-0.519
Mof_O 	O 	0.0542	0.4013	0.6467	-0.566
Mof_O 	O 	0.7661	0.253	0.1694	-0.251
Mof_O 	O 	0.18801	0.51104	0.50036	-0.643
Mof_O 	O 	0.23166	0.65562	0.03142	-0.565
Mof_O 	O 	0.91535	0.36797	0.72577	-0.529
Mof_O 	O 	0.08465	0.72577	0.36797	-0.529
Mof_O 	O 	0.75688	0.52675	0.95776	-0.657
Mof_O 	O 	0.73166	0.34438	0.96858	-0.565
Mof_O 	O 	0.8785	0.4935	0.9274	-0.326
Mof_O 	O 	0.2348	0.0192	0.2026	-0.266
Mof_O 	O 	0.3281	0.99684	0.4232	-0.69
Mof_O 	O 	0.9681	0.3993	0.644	-0.506
Mof_O 	O 	0.26834	0.3758	0.03142	-0.565
Mof_O 	O 	0.0542	0.2454	0.5987	-0.566
Mof_O 	O 	0.2348	0.7974	0.8166	-0.266
Mof_O 	O 	0.3785	0.5661	0.4935	-0.326
Mof_O 	O 	0.24312	0.47325	0.43101	-0.657
Mof_O 	O 	0.5542	0.7546	0.4013	-0.566
Mof_O 	O 	0.3482	0.51678	0.6123	-0.519
Mof_O 	O 	0.9681	0.2447	0.6007	-0.506
Mof_O 	O 	0.5612	0.7288	0.3308	-0.535
Mof_O 	O 	0.1215	0.5065	0.4339	-0.326
Mof_O 	O 	0.91535	0.3578	0.63203	-0.529
Mof_O 	O 	0.73168	0.48615	0.04827	-0.648
Mof_O 	O 	0.6518	0.6123	0.51678	-0.519
Mof_O 	O 	0.7652	0.2026	0.0192	-0.266
Mof_O 	O 	0.76832	0.56212	0.04827	-0.648
Mof_O 	O 	0.2652	0.0192	0.8166	-0.266
Mof_O 	O 	0.73166	0.03142	0.3758	-0.565
Mof_O 	O 	0.4681	0.6007	0.356	-0.506
Mof_O 	O 	0.4388	0.3308	0.7288	-0.535
Mof_O 	O 	0.7348	0.8166	0.0192	-0.266
Mof_O 	O 	0.68801	0.50036	0.98932	-0.643
Mof_O 	O 	0.23168	0.51385	0.95173	-0.648
Mof_O 	O 	0.41535	0.72577	0.3578	-0.529
Mof_O 	O 	0.0319	0.7553	0.356	-0.506
Mof_O 	O 	0.3785	0.9274	0.4339	-0.326
Mof_O 	O 	0.81199	0.50036	0.51104	-0.643
Mof_O 	O 	0.8281	0.4232	0.42636	-0.69
Mof_O 	O 	0.2661	0.1694	0.9164	-0.251
Mof_O 	O 	0.9458	0.5987	0.2454	-0.566
Mof_O 	O 	0.7339	0.9164	0.1694	-0.251
Mof_O 	O 	0.8785	0.4339	0.5065	-0.326
Mof_O 	O 	0.7348	0.9808	0.7974	-0.266
Mof_O 	O 	0.31199	0.51104	0.01068	-0.643
Mof_O 	O 	0.75688	0.43101	0.47325	-0.657
Mof_O 	O 	0.75688	0.04224	0.56899	-0.657
Mof_O 	O 	0.8482	0.90448	0.51678	-0.519
Mof_O 	O 	0.76832	0.95173	0.51385	-0.648
Mof_O 	O 	0.9954	0.33333	0.66666	-0.954
Mof_O 	O 	0.26832	0.43788	0.95173	-0.648
Mof_O 	O 	0.5319	0.3993	0.7553	-0.506
Mof_O 	O 	0.3281	0.5768	0.57364	-0.69
Mof_O 	O 	0.4954	0.66667	0.33334	-0.954
Mof_O 	O 	0.26834	0.96858	0.34438	-0.565
Mof_O 	O 	0.6215	0.4935	0.5661	-0.326
Mof_O 	O 	0.6215	0.4339	0.9274	-0.326
Mof_O 	O 	0.1719	0.99684	0.57364	-0.69
Mof_O 	O 	0.81199	0.48896	0.98932	-0.643
Mof_O 	O 	0.7661	0.8306	0.0836	-0.251
Mof_O 	O 	0.7339	0.8306	0.747	-0.251
Mof_O 	O 	0.2339	0.0836	0.8306	-0.251
Mof_O 	O 	0.68801	0.48896	0.49964	-0.643
Mof_O 	O 	0.4458	0.3533	0.5987	-0.566
Mof_O 	O 	0.31199	0.98932	0.50036	-0.643
Mof_O 	O 	0.76834	0.6242	0.96858	-0.565
Mof_O 	O 	0.4388	0.398	0.6692	-0.535
Mof_O 	O 	0.8785	0.0726	0.5661	-0.326
Mof_O 	O 	0.9388	0.7288	0.398	-0.535
Mof_O 	O 	0.0612	0.2712	0.6692	-0.535
Mof_O 	O 	0.1719	0.42636	0.4232	-0.69
Mof_O 	O 	0.26834	0.65562	0.6242	-0.565
Mof_O 	O 	0.68801	0.01068	0.51104	-0.643
Mof_O 	O 	0.6719	0.00316	0.42636	-0.69
Mof_O 	O 	0.6719	0.57364	0.5768	-0.69
Mof_O 	O 	0.5046	0.33333	0.66666	-0.954
Mof_O 	O 	0.7652	0.9808	0.1834	-0.266
Mof_O 	O 	0.74312	0.04224	0.47325	-0.657
Mof_O 	O 	0.23166	0.3758	0.34438	-0.565
Mof_O 	O 	0.23168	0.43788	0.48615	-0.648
Mof_O 	O 	0.7661	0.9164	0.747	-0.251
Mof_O 	O 	0.81199	0.01068	0.49964	-0.643
Mof_O 	O 	0.08465	0.6422	0.27423	-0.529
Mof_O 	O 	0.9388	0.602	0.3308	-0.535
Mof_O 	O 	0.23166	0.96858	0.6242	-0.565
Mof_O 	O 	0.74312	0.52675	0.56899	-0.657
Mof_O 	O 	0.5612	0.6692	0.398	-0.535
Mof_O 	O 	0.0612	0.398	0.7288	-0.535
Mof_O 	O 	0.7339	0.253	0.0836	-0.251
Mof_O 	O 	0.73166	0.6242	0.65562	-0.565
Mof_O 	O 	0.73168	0.56212	0.51385	-0.648
Mof_O 	O 	0.7348	0.2026	0.1834	-0.266
Mof_O 	O 	0.2339	0.747	0.9164	-0.251
Mof_O 	O 	0.24312	0.95776	0.52675	-0.657
Mof_O 	O 	0.76834	0.03142	0.65562	-0.565
Mof_O 	O 	0.76832	0.48615	0.43788	-0.648
Mof_O 	O 	0.58465	0.27423	0.63203	-0.529
Mof_O 	O 	0.76834	0.34438	0.3758	-0.565
Mof_O 	O 	0.2652	0.1834	0.2026	-0.266
Mof_O 	O 	0.5612	0.602	0.2712	-0.535
Mof_O 	O 	0.3482	0.3877	0.90448	-0.519
Mof_O 	O 	0.2661	0.0836	0.253	-0.251
Mof_O 	O 	0.1518	0.3877	0.48322	-0.519
Mof_O 	O 	0.7652	0.8166	0.7974	-0.266
Mof_O 	O 	0.0046	0.66667	0.33334	-0.954
Mof_O 	O 	0.58465	0.3578	0.72577	-0.529
Mof_O 	O 	0.9458	0.7546	0.3533	-0.566
Mof_O 	O 	0.6518	0.48322	0.09552	-0.519
Mof_O 	O 	0.4681	0.644	0.2447	-0.506
_end
