data_functionalizedCrystal
_audit_creation_method	'EQeq! by Chris Wilmer'
_symmetry_space_group_name_H-M	'P1'
_symmetry_Int_Tables_number	1
_symmetry_cell_setting	triclinic
loop_
_symmetry_equiv_pos_as_xyz
  x,y,z
_cell_length_a	8.959
_cell_length_b	10.0692
_cell_length_c	10.1205
_cell_angle_alpha	119.75
_cell_angle_beta	116.182
_cell_angle_gamma	90.1611
loop_
_atom_site_label
_atom_site_type_symbol
_atom_site_fract_x
_atom_site_fract_y
_atom_site_fract_z
_atom_site_charge
Mof_Zn	Zn	0.16937	0.83602	0.27434	1.154
Mof_Zn	Zn	0.39503	0.56168	0.72566	1.178
Mof_H 	H 	0.5004	0.1079	0.6576	0.172
Mof_H 	H 	0.5467	0.2849	0.7748	0.163
Mof_H 	H 	0.7058	0.8705	0.8974	0.127
Mof_H 	H 	0.8878	0.9468	0.0492	0.134
Mof_H 	H 	0.3428	0.4503	0.3424	0.141
Mof_H 	H 	0.2719	0.5101	0.2252	0.144
Mof_H 	H 	0.3084	0.9731	0.1026	0.099
Mof_H 	H 	0.3386	0.8976	0.9508	0.123
Mof_C 	C 	0.3414	0.198	0.5446	0.219
Mof_C 	C 	0.783	0.7506	0.0006	0.206
Mof_C 	C 	0.2968	0.6534	0.4554	0.193
Mof_C 	C 	0.2824	0.75	0.9994	0.194
Mof_N 	N 	0.4798	0.1968	0.675	-0.35
Mof_N 	N 	0.3091	0.3301	0.5482	-0.279
Mof_N 	N 	0.1784	0.2761	0.3828	-0.082
Mof_N 	N 	0.1297	0.1247	0.2916	-0.078
Mof_N 	N 	0.232	0.0695	0.3878	-0.261
Mof_N 	N 	0.7934	0.87	0.98	-0.338
Mof_N 	N 	0.9129	0.7392	0.122	-0.256
Mof_N 	N 	0.8467	0.6038	0.1066	-0.06
Mof_N 	N 	0.6924	0.5369	0.9748	-0.073
Mof_N 	N 	0.6459	0.6252	0.9036	-0.273
Mof_N 	N 	0.3048	0.5218	0.325	-0.343
Mof_N 	N 	0.2609	0.7819	0.4518	-0.293
Mof_N 	N 	0.2956	0.8933	0.6172	-0.108
Mof_N 	N 	0.3381	0.8331	0.7084	-0.099
Mof_N 	N 	0.3442	0.6817	0.6122	-0.285
Mof_N 	N 	0.3134	0.89	0.02	-0.341
Mof_N 	N 	0.2909	0.6172	0.878	-0.274
Mof_N 	N 	0.2401	0.4972	0.8934	-0.077
Mof_N 	N 	0.2176	0.5621	0.0252	-0.088
Mof_N 	N 	0.2423	0.7216	0.0964	-0.289
_end
