data_functionalizedCrystal
_audit_creation_method	'EQeq! by Chris Wilmer'
_symmetry_space_group_name_H-M	'P1'
_symmetry_Int_Tables_number	1
_symmetry_cell_setting	triclinic
loop_
_symmetry_equiv_pos_as_xyz
  x,y,z
_cell_length_a	15.8574
_cell_length_b	19.3325
_cell_length_c	25.2962
_cell_angle_alpha	90
_cell_angle_beta	102.694
_cell_angle_gamma	90
loop_
_atom_site_label
_atom_site_type_symbol
_atom_site_fract_x
_atom_site_fract_y
_atom_site_fract_z
_atom_site_charge
Mof_C 	C 	0.422	0.1172	0.07453	0.08
Mof_H 	H 	0.4787	0.1223	0.0709	-0.024
Mof_C 	C 	0.3614	0.1662	0.0504	-0.166
Mof_H 	H 	0.3768	0.2019	0.0298	0.086
Mof_C 	C 	0.277	0.1608	0.05781	0.095
Mof_C 	C 	0.2582	0.106	0.0891	-0.163
Mof_H 	H 	0.2031	0.1017	0.0959	0.089
Mof_C 	C 	0.3214	0.0579	0.1102	0.084
Mof_H 	H 	0.3071	0.0209	0.1301	-0.015
Mof_C 	C 	0.216	0.278	0.0255	-0.034
Mof_C 	C 	0.291	0.3218	0.0501	0.102
Mof_C 	C 	0.3198	0.373	0.0197	-0.17
Mof_H 	H 	0.2933	0.3793	0.9834	0.093
Mof_C 	C 	0.3878	0.4139	0.044	0.089
Mof_H 	H 	0.4071	0.4471	0.0228	-0.024
Mof_C 	C 	0.4025	0.3593	0.1252	0.09
Mof_H 	H 	0.4311	0.3539	0.1612	-0.02
Mof_C 	C 	0.3344	0.3144	0.1044	-0.166
Mof_H 	H 	0.3183	0.2802	0.1261	0.09
Mof_C 	C 	0.0587	0.2491	0.9765	-0.005
Mof_C 	C 	0.9737	0.2531	0.9543	-0.008
Mof_C 	C 	0.8155	0.2954	0.9241	-0.037
Mof_C 	C 	0.7429	0.3441	0.9133	0.106
Mof_C 	C 	0.7469	0.4055	0.8863	-0.172
Mof_H 	H 	0.7964	0.4172	0.8743	0.092
Mof_C 	C 	0.6774	0.449	0.8775	0.091
Mof_H 	H 	0.6816	0.49	0.859	-0.021
Mof_C 	C 	0.5997	0.3781	0.9207	0.094
Mof_H 	H 	0.5494	0.3678	0.9324	-0.026
Mof_C 	C 	0.6679	0.3313	0.9325	-0.171
Mof_H 	H 	0.6637	0.2919	0.953	0.09
Mof_C 	C 	0.8107	0.2261	0.928	-0.033
Mof_C 	C 	0.7304	0.1834	0.917	0.099
Mof_C 	C 	0.6751	0.1842	0.8657	-0.163
Mof_H 	H 	0.6862	0.2133	0.8388	0.088
Mof_C 	C 	0.604	0.1414	0.8556	0.081
Mof_H 	H 	0.5678	0.1422	0.8212	-0.018
Mof_C 	C 	0.6355	0.1003	0.9431	0.084
Mof_H 	H 	0.6207	0.0733	0.9701	-0.021
Mof_C 	C 	0.7094	0.1412	0.9562	-0.166
Mof_H 	H 	0.7443	0.14	0.9909	0.09
Mof_C 	C 	0.4727	0.0319	0.2399	0.087
Mof_H 	H 	0.43	0.06	0.2196	-0.019
Mof_C 	C 	0.4845	0.0329	0.2949	-0.168
Mof_H 	H 	0.4488	0.06	0.3111	0.089
Mof_C 	C 	0.5493	0.9936	0.32688	0.102
Mof_C 	C 	0.5996	0.9524	0.30003	-0.168
Mof_H 	H 	0.6435	0.9245	0.3195	0.09
Mof_C 	C 	0.5826	0.9543	0.24438	0.092
Mof_H 	H 	0.6171	0.9273	0.2271	-0.025
Mof_C 	C 	0.5623	0.9927	0.3863	-0.033
Mof_C 	C 	0.5211	0.9953	0.47994	-0.004
Mof_C 	C 	0.6376	0.9934	0.42318	-0.035
Mof_C 	C 	0.7251	0.9962	0.41175	0.105
Mof_C 	C 	0.7484	0.0478	0.3794	-0.177
Mof_H 	H 	0.709	0.0818	0.3644	0.092
Mof_C 	C 	0.83	0.0478	0.3698	0.09
Mof_H 	H 	0.8443	0.0822	0.3475	-0.028
Mof_C 	C 	0.8682	0.9511	0.42227	0.09
Mof_H 	H 	0.9089	0.9175	0.4365	-0.025
Mof_C 	C 	0.7883	0.9473	0.43443	-0.174
Mof_H 	H 	0.7761	0.9129	0.4573	0.093
Mof_C 	C 	0.9257	0.9535	0.2553	0.092
Mof_H 	H 	0.8963	0.922	0.2724	-0.025
Mof_C 	C 	0.9076	0.9538	0.1996	-0.166
Mof_H 	H 	0.8669	0.9235	0.1801	0.09
Mof_C 	C 	0.9511	0.0006	0.1728	0.097
Mof_C 	C 	0.0108	0.0437	0.2046	-0.161
Mof_H 	H 	0.042	0.0749	0.1884	0.086
Mof_C 	C 	0.0246	0.0404	0.2604	0.081
Mof_H 	H 	0.0644	0.0706	0.2809	-0.017
Mof_C 	C 	0.936	0.0031	0.1133	-0.032
Mof_C 	C 	0.8609	0.0024	0.0766	-0.036
Mof_C 	C 	0.7724	0.0013	0.0871	0.109
Mof_C 	C 	0.7501	0.0407	0.1273	-0.177
Mof_H 	H 	0.7907	0.0697	0.1486	0.092
Mof_C 	C 	0.6667	0.0368	0.1359	0.093
Mof_H 	H 	0.6527	0.0644	0.1628	-0.027
Mof_C 	C 	0.6275	0.9579	0.06891	0.099
Mof_H 	H 	0.586	0.9288	0.0487	-0.032
Mof_C 	C 	0.7082	0.9594	0.0569	-0.182
Mof_H 	H 	0.7196	0.9325	0.0289	0.099
Mof_C 	C 	0.9784	0.004	0.0199	-0.005
Mof_C 	C 	0.2092	0.2088	0.0311	-0.035
Mof_Cu	Cu	0.49222	0.98638	0.13011	0.851
Mof_Cu	Cu	0.00385	0.99568	0.36878	0.852
Mof_N 	N 	0.4029	0.0628	0.10285	-0.241
Mof_N 	N 	0.4289	0.4092	0.09678	-0.242
Mof_N 	N 	0.6025	0.4366	0.8937	-0.248
Mof_N 	N 	0.5845	0.0983	0.89313	-0.244
Mof_N 	N 	0.5201	0.9921	0.21316	-0.245
Mof_N 	N 	0.8912	0.0006	0.39087	-0.257
Mof_N 	N 	0.6057	0.9957	0.10763	-0.257
Mof_N 	N 	0.9829	0.9954	0.28656	-0.246
Mof_S 	S 	0.12705	0.3222	0.98546	-0.003
Mof_S 	S 	0.11178	0.17056	0.99659	-0.002
Mof_S 	S 	0.90775	0.17902	0.94378	-0.002
Mof_S 	S 	0.92085	0.33063	0.9323	-0.005
Mof_S 	S 	0.46762	0.98713	0.4117	-0.008
Mof_S 	S 	0.63429	0.98871	0.49204	-0.001
Mof_S 	S 	0.86506	0.00771	0.0076	-0.007
Mof_S 	S 	0.03073	0.01073	0.0883	-0.006
Mof_C 	C 	0.078	0.6172	0.42547	0.081
Mof_H 	H 	0.0213	0.6223	0.4291	-0.023
Mof_C 	C 	0.1386	0.6662	0.4496	-0.165
Mof_H 	H 	0.1232	0.7019	0.4702	0.087
Mof_C 	C 	0.223	0.6608	0.44219	0.096
Mof_C 	C 	0.2418	0.606	0.4109	-0.162
Mof_H 	H 	0.2969	0.6017	0.4041	0.089
Mof_C 	C 	0.1786	0.5579	0.3898	0.083
Mof_H 	H 	0.1929	0.5209	0.3699	-0.015
Mof_C 	C 	0.284	0.778	0.4745	-0.034
Mof_C 	C 	0.209	0.8218	0.4499	0.101
Mof_C 	C 	0.1802	0.873	0.4803	-0.17
Mof_H 	H 	0.2067	0.8793	0.5166	0.093
Mof_C 	C 	0.1122	0.9139	0.456	0.089
Mof_H 	H 	0.0929	0.9471	0.4772	-0.024
Mof_C 	C 	0.0975	0.8593	0.3748	0.09
Mof_H 	H 	0.0689	0.8539	0.3388	-0.02
Mof_C 	C 	0.1656	0.8144	0.3956	-0.166
Mof_H 	H 	0.1817	0.7802	0.3739	0.09
Mof_C 	C 	0.4413	0.7491	0.5235	-0.007
Mof_C 	C 	0.5263	0.7531	0.5457	-0.006
Mof_C 	C 	0.6845	0.7954	0.5759	-0.037
Mof_C 	C 	0.7571	0.8441	0.5867	0.106
Mof_C 	C 	0.7531	0.9055	0.6137	-0.171
Mof_H 	H 	0.7036	0.9172	0.6257	0.092
Mof_C 	C 	0.8226	0.949	0.6225	0.091
Mof_H 	H 	0.8184	0.99	0.641	-0.02
Mof_C 	C 	0.9003	0.8781	0.5793	0.094
Mof_H 	H 	0.9506	0.8678	0.5676	-0.025
Mof_C 	C 	0.8321	0.8313	0.5675	-0.171
Mof_H 	H 	0.8363	0.7919	0.547	0.09
Mof_C 	C 	0.6893	0.7261	0.572	-0.033
Mof_C 	C 	0.7696	0.6834	0.583	0.099
Mof_C 	C 	0.8249	0.6842	0.6343	-0.163
Mof_H 	H 	0.8138	0.7133	0.6612	0.088
Mof_C 	C 	0.896	0.6414	0.6444	0.082
Mof_H 	H 	0.9322	0.6422	0.6788	-0.018
Mof_C 	C 	0.8645	0.6003	0.5569	0.084
Mof_H 	H 	0.8793	0.5733	0.5299	-0.021
Mof_C 	C 	0.7906	0.6412	0.5438	-0.166
Mof_H 	H 	0.7557	0.64	0.5091	0.091
Mof_C 	C 	0.0273	0.5319	0.2601	0.087
Mof_H 	H 	0.07	0.56	0.2804	-0.019
Mof_C 	C 	0.0155	0.5329	0.2051	-0.169
Mof_H 	H 	0.0512	0.56	0.1889	0.089
Mof_C 	C 	0.9507	0.4936	0.17312	0.103
Mof_C 	C 	0.9004	0.4524	0.19997	-0.169
Mof_H 	H 	0.8565	0.4245	0.1805	0.09
Mof_C 	C 	0.9174	0.4543	0.25562	0.092
Mof_H 	H 	0.8829	0.4273	0.2729	-0.025
Mof_C 	C 	0.9377	0.4927	0.1137	-0.033
Mof_C 	C 	0.9789	0.4953	0.02006	-0.003
Mof_C 	C 	0.8624	0.4934	0.07682	-0.034
Mof_C 	C 	0.7749	0.4962	0.08825	0.102
Mof_C 	C 	0.7516	0.5478	0.1206	-0.174
Mof_H 	H 	0.791	0.5818	0.1356	0.091
Mof_C 	C 	0.67	0.5478	0.1302	0.089
Mof_H 	H 	0.6557	0.5822	0.1525	-0.027
Mof_C 	C 	0.6318	0.4511	0.07773	0.087
Mof_H 	H 	0.5911	0.4175	0.0635	-0.025
Mof_C 	C 	0.7117	0.4473	0.06557	-0.172
Mof_H 	H 	0.7239	0.4129	0.0427	0.092
Mof_C 	C 	0.5743	0.4535	0.2447	0.094
Mof_H 	H 	0.6037	0.422	0.2276	-0.026
Mof_C 	C 	0.5924	0.4538	0.3004	-0.171
Mof_H 	H 	0.6331	0.4235	0.3199	0.091
Mof_C 	C 	0.5489	0.5006	0.3272	0.102
Mof_C 	C 	0.4892	0.5437	0.2954	-0.166
Mof_H 	H 	0.458	0.5749	0.3116	0.088
Mof_C 	C 	0.4754	0.5404	0.2396	0.083
Mof_H 	H 	0.4356	0.5706	0.2191	-0.018
Mof_C 	C 	0.564	0.5031	0.3867	-0.032
Mof_C 	C 	0.6391	0.5024	0.4234	-0.036
Mof_C 	C 	0.7276	0.5013	0.4129	0.11
Mof_C 	C 	0.7499	0.5407	0.3727	-0.177
Mof_H 	H 	0.7093	0.5697	0.3514	0.092
Mof_C 	C 	0.8333	0.5368	0.3641	0.093
Mof_H 	H 	0.8473	0.5644	0.3372	-0.027
Mof_C 	C 	0.8725	0.4579	0.43109	0.099
Mof_H 	H 	0.914	0.4288	0.4513	-0.032
Mof_C 	C 	0.7918	0.4594	0.4431	-0.184
Mof_H 	H 	0.7804	0.4325	0.4711	0.099
Mof_C 	C 	0.5216	0.504	0.4801	-0.004
Mof_C 	C 	0.2908	0.7088	0.4689	-0.035
Mof_Cu	Cu	0.00778	0.48638	0.36989	0.851
Mof_Cu	Cu	0.49615	0.49568	0.13122	0.853
Mof_N 	N 	0.0971	0.5628	0.39715	-0.241
Mof_N 	N 	0.0711	0.9092	0.40322	-0.242
Mof_N 	N 	0.8975	0.9366	0.6063	-0.247
Mof_N 	N 	0.9155	0.5983	0.60687	-0.244
Mof_N 	N 	0.9799	0.4921	0.28684	-0.244
Mof_N 	N 	0.6088	0.5006	0.10913	-0.256
Mof_N 	N 	0.8943	0.4957	0.39237	-0.258
Mof_N 	N 	0.5171	0.4954	0.21344	-0.247
Mof_S 	S 	0.37295	0.8222	0.51454	-0.003
Mof_S 	S 	0.38822	0.67056	0.50341	-0.003
Mof_S 	S 	0.59225	0.67902	0.55622	-0.001
Mof_S 	S 	0.57915	0.83063	0.5677	-0.005
Mof_S 	S 	0.03238	0.48713	0.0883	-0.008
Mof_S 	S 	0.86571	0.48871	0.00796	-0.001
Mof_S 	S 	0.63494	0.50771	0.4924	-0.007
Mof_S 	S 	0.46927	0.51073	0.4117	-0.01
Mof_C 	C 	0.578	0.8828	0.92547	0.081
Mof_H 	H 	0.5213	0.8777	0.9291	-0.023
Mof_C 	C 	0.6386	0.8338	0.9496	-0.165
Mof_H 	H 	0.6232	0.7981	0.9702	0.087
Mof_C 	C 	0.723	0.8392	0.94219	0.096
Mof_C 	C 	0.7418	0.894	0.9109	-0.162
Mof_H 	H 	0.7969	0.8983	0.9041	0.089
Mof_C 	C 	0.6786	0.9421	0.8898	0.084
Mof_H 	H 	0.6929	0.9791	0.8699	-0.015
Mof_C 	C 	0.784	0.722	0.9745	-0.034
Mof_C 	C 	0.709	0.6782	0.9499	0.102
Mof_C 	C 	0.6802	0.627	0.9803	-0.17
Mof_H 	H 	0.7067	0.6207	0.0166	0.093
Mof_C 	C 	0.6122	0.5861	0.956	0.089
Mof_H 	H 	0.5929	0.5529	0.9772	-0.024
Mof_C 	C 	0.5975	0.6407	0.8748	0.09
Mof_H 	H 	0.5689	0.6461	0.8388	-0.02
Mof_C 	C 	0.6656	0.6856	0.8956	-0.166
Mof_H 	H 	0.6817	0.7198	0.8739	0.09
Mof_C 	C 	0.9413	0.7509	0.0235	-0.005
Mof_C 	C 	0.0263	0.7469	0.0457	-0.008
Mof_C 	C 	0.1845	0.7046	0.0759	-0.037
Mof_C 	C 	0.2571	0.6559	0.0867	0.106
Mof_C 	C 	0.2531	0.5945	0.1137	-0.172
Mof_H 	H 	0.2036	0.5828	0.1257	0.092
Mof_C 	C 	0.3226	0.551	0.1225	0.091
Mof_H 	H 	0.3184	0.51	0.141	-0.021
Mof_C 	C 	0.4003	0.6219	0.0793	0.094
Mof_H 	H 	0.4506	0.6322	0.0676	-0.026
Mof_C 	C 	0.3321	0.6687	0.0675	-0.171
Mof_H 	H 	0.3363	0.7081	0.047	0.09
Mof_C 	C 	0.1893	0.7739	0.072	-0.033
Mof_C 	C 	0.2696	0.8166	0.083	0.099
Mof_C 	C 	0.3249	0.8158	0.1343	-0.163
Mof_H 	H 	0.3138	0.7867	0.1612	0.088
Mof_C 	C 	0.396	0.8586	0.1444	0.081
Mof_H 	H 	0.4322	0.8578	0.1788	-0.018
Mof_C 	C 	0.3645	0.8997	0.0569	0.084
Mof_H 	H 	0.3793	0.9267	0.0299	-0.021
Mof_C 	C 	0.2906	0.8588	0.0438	-0.166
Mof_H 	H 	0.2557	0.86	0.0091	0.09
Mof_C 	C 	0.5273	0.9681	0.7601	0.087
Mof_H 	H 	0.57	0.94	0.7804	-0.019
Mof_C 	C 	0.5155	0.9671	0.7051	-0.168
Mof_H 	H 	0.5512	0.94	0.6889	0.089
Mof_C 	C 	0.4507	0.0064	0.67312	0.102
Mof_C 	C 	0.4004	0.0476	0.69997	-0.168
Mof_H 	H 	0.3565	0.0755	0.6805	0.09
Mof_C 	C 	0.4174	0.0457	0.75562	0.092
Mof_H 	H 	0.3829	0.0727	0.7729	-0.025
Mof_C 	C 	0.4377	0.0073	0.6137	-0.033
Mof_C 	C 	0.4789	0.0047	0.52006	-0.004
Mof_C 	C 	0.3624	0.0066	0.57682	-0.035
Mof_C 	C 	0.2749	0.0038	0.58825	0.105
Mof_C 	C 	0.2516	0.9522	0.6206	-0.177
Mof_H 	H 	0.291	0.9182	0.6356	0.092
Mof_C 	C 	0.17	0.9522	0.6302	0.09
Mof_H 	H 	0.1557	0.9178	0.6525	-0.028
Mof_C 	C 	0.1318	0.0489	0.57773	0.09
Mof_H 	H 	0.0911	0.0825	0.5635	-0.025
Mof_C 	C 	0.2117	0.0527	0.56557	-0.174
Mof_H 	H 	0.2239	0.0871	0.5427	0.093
Mof_C 	C 	0.0743	0.0465	0.7447	0.092
Mof_H 	H 	0.1037	0.078	0.7276	-0.025
Mof_C 	C 	0.0924	0.0462	0.8004	-0.166
Mof_H 	H 	0.1331	0.0765	0.8199	0.09
Mof_C 	C 	0.0489	0.9994	0.8272	0.097
Mof_C 	C 	0.9892	0.9563	0.7954	-0.161
Mof_H 	H 	0.958	0.9251	0.8116	0.086
Mof_C 	C 	0.9754	0.9596	0.7396	0.081
Mof_H 	H 	0.9356	0.9294	0.7191	-0.017
Mof_C 	C 	0.064	0.9969	0.8867	-0.032
Mof_C 	C 	0.1391	0.9976	0.9234	-0.036
Mof_C 	C 	0.2276	0.9987	0.9129	0.109
Mof_C 	C 	0.2499	0.9593	0.8727	-0.177
Mof_H 	H 	0.2093	0.9303	0.8514	0.092
Mof_C 	C 	0.3333	0.9632	0.8641	0.093
Mof_H 	H 	0.3473	0.9356	0.8372	-0.027
Mof_C 	C 	0.3725	0.0421	0.93109	0.099
Mof_H 	H 	0.414	0.0712	0.9513	-0.032
Mof_C 	C 	0.2918	0.0406	0.9431	-0.182
Mof_H 	H 	0.2804	0.0675	0.9711	0.099
Mof_C 	C 	0.0216	0.996	0.9801	-0.005
Mof_C 	C 	0.7908	0.7912	0.9689	-0.035
Mof_Cu	Cu	0.50778	0.01362	0.86989	0.851
Mof_Cu	Cu	0.99615	0.00432	0.63122	0.852
Mof_N 	N 	0.5971	0.9372	0.89715	-0.241
Mof_N 	N 	0.5711	0.5908	0.90322	-0.242
Mof_N 	N 	0.3975	0.5634	0.1063	-0.248
Mof_N 	N 	0.4155	0.9017	0.10687	-0.244
Mof_N 	N 	0.4799	0.0079	0.78684	-0.245
Mof_N 	N 	0.1088	0.9994	0.60913	-0.257
Mof_N 	N 	0.3943	0.0043	0.89237	-0.257
Mof_N 	N 	0.0171	0.0046	0.71344	-0.246
Mof_S 	S 	0.87295	0.6778	0.01454	-0.003
Mof_S 	S 	0.88822	0.82944	0.00341	-0.002
Mof_S 	S 	0.09225	0.82098	0.05622	-0.002
Mof_S 	S 	0.07915	0.66937	0.0677	-0.005
Mof_S 	S 	0.53238	0.01287	0.5883	-0.008
Mof_S 	S 	0.36571	0.01129	0.50796	-0.001
Mof_S 	S 	0.13494	0.99229	0.9924	-0.007
Mof_S 	S 	0.96927	0.98927	0.9117	-0.006
Mof_C 	C 	0.922	0.3828	0.57453	0.081
Mof_H 	H 	0.9787	0.3777	0.5709	-0.023
Mof_C 	C 	0.8614	0.3338	0.5504	-0.165
Mof_H 	H 	0.8768	0.2981	0.5298	0.087
Mof_C 	C 	0.777	0.3392	0.55781	0.096
Mof_C 	C 	0.7582	0.394	0.5891	-0.162
Mof_H 	H 	0.7031	0.3983	0.5959	0.089
Mof_C 	C 	0.8214	0.4421	0.6102	0.083
Mof_H 	H 	0.8071	0.4791	0.6301	-0.015
Mof_C 	C 	0.716	0.222	0.5255	-0.034
Mof_C 	C 	0.791	0.1782	0.5501	0.101
Mof_C 	C 	0.8198	0.127	0.5197	-0.17
Mof_H 	H 	0.7933	0.1207	0.4834	0.093
Mof_C 	C 	0.8878	0.0861	0.544	0.089
Mof_H 	H 	0.9071	0.0529	0.5228	-0.024
Mof_C 	C 	0.9025	0.1407	0.6252	0.09
Mof_H 	H 	0.9311	0.1461	0.6612	-0.02
Mof_C 	C 	0.8344	0.1856	0.6044	-0.166
Mof_H 	H 	0.8183	0.2198	0.6261	0.09
Mof_C 	C 	0.5587	0.2509	0.4765	-0.007
Mof_C 	C 	0.4737	0.2469	0.4543	-0.006
Mof_C 	C 	0.3155	0.2046	0.4241	-0.037
Mof_C 	C 	0.2429	0.1559	0.4133	0.106
Mof_C 	C 	0.2469	0.0945	0.3863	-0.171
Mof_H 	H 	0.2964	0.0828	0.3743	0.092
Mof_C 	C 	0.1774	0.051	0.3775	0.091
Mof_H 	H 	0.1816	0.01	0.359	-0.02
Mof_C 	C 	0.0997	0.1219	0.4207	0.094
Mof_H 	H 	0.0494	0.1322	0.4324	-0.025
Mof_C 	C 	0.1679	0.1687	0.4325	-0.171
Mof_H 	H 	0.1637	0.2081	0.453	0.09
Mof_C 	C 	0.3107	0.2739	0.428	-0.033
Mof_C 	C 	0.2304	0.3166	0.417	0.099
Mof_C 	C 	0.1751	0.3158	0.3657	-0.163
Mof_H 	H 	0.1862	0.2867	0.3388	0.088
Mof_C 	C 	0.104	0.3586	0.3556	0.082
Mof_H 	H 	0.0678	0.3578	0.3212	-0.018
Mof_C 	C 	0.1355	0.3997	0.4431	0.084
Mof_H 	H 	0.1207	0.4267	0.4701	-0.021
Mof_C 	C 	0.2094	0.3588	0.4562	-0.166
Mof_H 	H 	0.2443	0.36	0.4909	0.091
Mof_C 	C 	0.9727	0.4681	0.7399	0.087
Mof_H 	H 	0.93	0.44	0.7196	-0.019
Mof_C 	C 	0.9845	0.4671	0.7949	-0.169
Mof_H 	H 	0.9488	0.44	0.8111	0.089
Mof_C 	C 	0.0493	0.5064	0.82688	0.103
Mof_C 	C 	0.0996	0.5476	0.80003	-0.169
Mof_H 	H 	0.1435	0.5755	0.8195	0.09
Mof_C 	C 	0.0826	0.5457	0.74438	0.092
Mof_H 	H 	0.1171	0.5727	0.7271	-0.025
Mof_C 	C 	0.0623	0.5073	0.8863	-0.033
Mof_C 	C 	0.0211	0.5047	0.97994	-0.003
Mof_C 	C 	0.1376	0.5066	0.92318	-0.034
Mof_C 	C 	0.2251	0.5038	0.91175	0.102
Mof_C 	C 	0.2484	0.4522	0.8794	-0.174
Mof_H 	H 	0.209	0.4182	0.8644	0.091
Mof_C 	C 	0.33	0.4522	0.8698	0.089
Mof_H 	H 	0.3443	0.4178	0.8475	-0.027
Mof_C 	C 	0.3682	0.5489	0.92227	0.087
Mof_H 	H 	0.4089	0.5825	0.9365	-0.025
Mof_C 	C 	0.2883	0.5527	0.93443	-0.172
Mof_H 	H 	0.2761	0.5871	0.9573	0.092
Mof_C 	C 	0.4257	0.5465	0.7553	0.094
Mof_H 	H 	0.3963	0.578	0.7724	-0.026
Mof_C 	C 	0.4076	0.5462	0.6996	-0.171
Mof_H 	H 	0.3669	0.5765	0.6801	0.091
Mof_C 	C 	0.4511	0.4994	0.6728	0.102
Mof_C 	C 	0.5108	0.4563	0.7046	-0.166
Mof_H 	H 	0.542	0.4251	0.6884	0.088
Mof_C 	C 	0.5246	0.4596	0.7604	0.083
Mof_H 	H 	0.5644	0.4294	0.7809	-0.018
Mof_C 	C 	0.436	0.4969	0.6133	-0.032
Mof_C 	C 	0.3609	0.4976	0.5766	-0.036
Mof_C 	C 	0.2724	0.4987	0.5871	0.11
Mof_C 	C 	0.2501	0.4593	0.6273	-0.177
Mof_H 	H 	0.2907	0.4303	0.6486	0.092
Mof_C 	C 	0.1667	0.4632	0.6359	0.093
Mof_H 	H 	0.1527	0.4356	0.6628	-0.027
Mof_C 	C 	0.1275	0.5421	0.56891	0.099
Mof_H 	H 	0.086	0.5712	0.5487	-0.032
Mof_C 	C 	0.2082	0.5406	0.5569	-0.184
Mof_H 	H 	0.2196	0.5675	0.5289	0.099
Mof_C 	C 	0.4784	0.496	0.5199	-0.004
Mof_C 	C 	0.7092	0.2912	0.5311	-0.035
Mof_Cu	Cu	0.99222	0.51362	0.63011	0.851
Mof_Cu	Cu	0.50385	0.50432	0.86878	0.853
Mof_N 	N 	0.9029	0.4372	0.60285	-0.241
Mof_N 	N 	0.9289	0.0908	0.59678	-0.242
Mof_N 	N 	0.1025	0.0634	0.3937	-0.247
Mof_N 	N 	0.0845	0.4017	0.39313	-0.244
Mof_N 	N 	0.0201	0.5079	0.71316	-0.244
Mof_N 	N 	0.3912	0.4994	0.89087	-0.256
Mof_N 	N 	0.1057	0.5043	0.60763	-0.258
Mof_N 	N 	0.4829	0.5046	0.78656	-0.247
Mof_S 	S 	0.62705	0.1778	0.48546	-0.003
Mof_S 	S 	0.61178	0.32944	0.49659	-0.003
Mof_S 	S 	0.40775	0.32098	0.44378	-0.001
Mof_S 	S 	0.42085	0.16937	0.4323	-0.005
Mof_S 	S 	0.96762	0.51287	0.9117	-0.008
Mof_S 	S 	0.13429	0.51129	0.99204	-0.001
Mof_S 	S 	0.36506	0.49229	0.5076	-0.007
Mof_S 	S 	0.53073	0.48927	0.5883	-0.01
_end
