data_functionalizedCrystal
_audit_creation_method	'EQeq! by Chris Wilmer'
_symmetry_space_group_name_H-M	'P1'
_symmetry_Int_Tables_number	1
_symmetry_cell_setting	triclinic
loop_
_symmetry_equiv_pos_as_xyz
  x,y,z
_cell_length_a	28.1333
_cell_length_b	28.1333
_cell_length_c	69.411
_cell_angle_alpha	90
_cell_angle_beta	90
_cell_angle_gamma	120
loop_
_atom_site_label
_atom_site_type_symbol
_atom_site_fract_x
_atom_site_fract_y
_atom_site_fract_z
_atom_site_charge
Mof_O 	O 	0.54339	0.17956	0.10313	-0.643
Mof_O 	O 	0.51633	0.2074	0.12965	-0.645
Mof_O 	O 	0.66021	0.23855	0.16071	-0.638
Mof_O 	O 	0.66966	0.24588	0.06934	-0.61
Mof_C 	C 	0.51204	0.17167	0.11728	0.521
Mof_C 	C 	0.46434	0.11451	0.11985	-0.204
Mof_C 	C 	0.42653	0.1035	0.13385	0.132
Mof_H 	H 	0.4303	0.1319	0.1418	0.003
Mof_C 	C 	0.3818	0.0505	0.13672	-0.206
Mof_H 	H 	0.3564	0.0438	0.1464	0.104
Mof_C 	C 	0.3762	0.0087	0.1251	0.156
Mof_C 	C 	0.4172	0.0191	0.11172	-0.17
Mof_H 	H 	0.4158	0.9902	0.1048	0.083
Mof_C 	C 	0.4602	0.0724	0.10864	0.118
Mof_H 	H 	0.486	0.0793	0.0991	0.009
Mof_C 	C 	0.332	0.9534	0.12684	-0.103
Mof_C 	C 	0.2924	0.9089	0.12883	0.04
Mof_C 	C 	0.2434	0.8563	0.13009	-0.044
Mof_C 	C 	0.2047	0.8472	0.14373	0.028
Mof_C 	C 	0.2118	0.8861	0.15805	-0.089
Mof_H 	H 	0.2441	0.9199	0.1578	0.065
Mof_C 	C 	0.1754	0.8773	0.17172	0.015
Mof_C 	C 	0.2362	0.8154	0.11644	0.025
Mof_C 	C 	0.2769	0.8223	0.10186	-0.085
Mof_H 	H 	0.3101	0.8552	0.1016	0.066
Mof_C 	C 	0.2687	0.7837	0.08884	0.012
Mof_C 	C 	0.6936	0.2195	0.03407	0.084
Mof_H 	H 	0.6594	0.1963	0.0395	0.021
Mof_C 	C 	0.7099	0.2074	0.01622	-0.168
Mof_H 	H 	0.6859	0.1749	0.0099	0.092
Mof_C 	C 	0.8518	0.2355	0.94983	0.022
Mof_C 	C 	0.8865	0.2899	0.9569	-0.069
Mof_H 	H 	0.8754	0.3016	0.9677	0.056
Mof_C 	C 	0.9324	0.3228	0.9489	-0.025
Mof_H 	H 	0.9534	0.3583	0.9536	0.035
Mof_C 	C 	0.9514	0.3054	0.933	-0.032
Mof_H 	H 	0.9862	0.3291	0.9281	0.04
Mof_C 	C 	0.9215	0.2567	0.9246	-0.066
Mof_H 	H 	0.9351	0.2485	0.9136	0.057
Mof_C 	C 	0.8695	0.2168	0.9319	0.022
Mof_C 	C 	0.9387	0.1468	0.87234	-0.171
Mof_H 	H 	0.9611	0.1817	0.8774	0.093
Mof_C 	C 	0.9579	0.1267	0.85691	0.105
Mof_H 	H 	0.993	0.1488	0.852	0.011
Mof_O 	O 	0.21006	0.51289	0.43646	-0.644
Mof_O 	O 	0.183	0.54073	0.46298	-0.645
Mof_O 	O 	0.32688	0.57188	0.49404	-0.638
Mof_O 	O 	0.33633	0.57921	0.40267	-0.609
Mof_C 	C 	0.17871	0.505	0.45061	0.528
Mof_C 	C 	0.13101	0.44784	0.45318	-0.22
Mof_C 	C 	0.0932	0.43683	0.46718	0.152
Mof_H 	H 	0.09697	0.46523	0.47513	-0.002
Mof_C 	C 	0.04847	0.38383	0.47005	-0.224
Mof_H 	H 	0.02307	0.37713	0.47973	0.113
Mof_C 	C 	0.04287	0.34203	0.45843	0.18
Mof_C 	C 	0.08387	0.35243	0.44505	-0.218
Mof_H 	H 	0.08247	0.32353	0.43813	0.113
Mof_C 	C 	0.12687	0.40573	0.44197	0.148
Mof_H 	H 	0.15267	0.41263	0.43243	-0.003
Mof_C 	C 	0.99867	0.28673	0.46017	-0.113
Mof_C 	C 	0.95907	0.24223	0.46216	0.045
Mof_C 	C 	0.91007	0.18963	0.46342	-0.048
Mof_C 	C 	0.87137	0.18053	0.47706	0.031
Mof_C 	C 	0.87847	0.21943	0.49138	-0.092
Mof_H 	H 	0.91077	0.25323	0.49113	0.067
Mof_C 	C 	0.84207	0.21063	0.50505	0.018
Mof_C 	C 	0.90287	0.14873	0.44977	0.026
Mof_C 	C 	0.94357	0.15563	0.43519	-0.085
Mof_H 	H 	0.97677	0.18853	0.43493	0.065
Mof_C 	C 	0.93537	0.11703	0.42217	0.011
Mof_C 	C 	0.36027	0.55283	0.3674	0.084
Mof_H 	H 	0.32607	0.52963	0.37283	0.02
Mof_C 	C 	0.37657	0.54073	0.34955	-0.168
Mof_H 	H 	0.35257	0.50823	0.34323	0.091
Mof_C 	C 	0.51847	0.56883	0.28316	0.022
Mof_C 	C 	0.55317	0.62323	0.29023	-0.069
Mof_H 	H 	0.54207	0.63493	0.30103	0.057
Mof_C 	C 	0.59907	0.65613	0.28223	-0.024
Mof_H 	H 	0.62007	0.69163	0.28693	0.037
Mof_C 	C 	0.61807	0.63873	0.26633	-0.032
Mof_H 	H 	0.65287	0.66243	0.26143	0.044
Mof_C 	C 	0.58817	0.59003	0.25793	-0.065
Mof_H 	H 	0.60177	0.58183	0.24693	0.058
Mof_C 	C 	0.53617	0.55013	0.26523	0.022
Mof_C 	C 	0.60537	0.48013	0.20567	-0.171
Mof_H 	H 	0.62777	0.51503	0.21073	0.095
Mof_C 	C 	0.62457	0.46003	0.19024	0.105
Mof_H 	H 	0.65967	0.48213	0.18533	0.014
Mof_O 	O 	0.87672	0.84623	0.7698	-0.645
Mof_O 	O 	0.84966	0.87407	0.79632	-0.646
Mof_O 	O 	0.99354	0.90522	0.82738	-0.648
Mof_O 	O 	0.00299	0.91255	0.73601	-0.603
Mof_C 	C 	0.84537	0.83834	0.78395	0.525
Mof_C 	C 	0.79767	0.78118	0.78652	-0.211
Mof_C 	C 	0.75986	0.77017	0.80052	0.137
Mof_H 	H 	0.76363	0.79857	0.80847	0.001
Mof_C 	C 	0.71513	0.71717	0.80339	-0.206
Mof_H 	H 	0.68973	0.71047	0.81307	0.101
Mof_C 	C 	0.70953	0.67537	0.79177	0.15
Mof_C 	C 	0.75053	0.68577	0.77839	-0.201
Mof_H 	H 	0.74913	0.65687	0.77147	0.103
Mof_C 	C 	0.79353	0.73907	0.77531	0.134
Mof_H 	H 	0.81933	0.74597	0.76577	0
Mof_C 	C 	0.66533	0.62007	0.79351	-0.088
Mof_C 	C 	0.62573	0.57557	0.7955	0.035
Mof_C 	C 	0.57673	0.52297	0.79676	-0.041
Mof_C 	C 	0.53803	0.51387	0.8104	0.028
Mof_C 	C 	0.54513	0.55277	0.82472	-0.09
Mof_H 	H 	0.57743	0.58657	0.82447	0.068
Mof_C 	C 	0.50873	0.54397	0.83839	0.018
Mof_C 	C 	0.56953	0.48207	0.78311	0.024
Mof_C 	C 	0.61023	0.48897	0.76853	-0.084
Mof_H 	H 	0.64343	0.52187	0.76827	0.067
Mof_C 	C 	0.60203	0.45037	0.75551	0.012
Mof_C 	C 	0.02693	0.88617	0.70074	0.11
Mof_H 	H 	0.99273	0.86297	0.70617	0.001
Mof_C 	C 	0.04323	0.87407	0.68289	-0.179
Mof_H 	H 	0.01923	0.84157	0.67657	0.098
Mof_C 	C 	0.18513	0.90217	0.6165	0.007
Mof_C 	C 	0.21983	0.95657	0.62357	-0.029
Mof_H 	H 	0.20873	0.96827	0.63437	0.041
Mof_C 	C 	0.26573	0.98947	0.61557	-0.086
Mof_H 	H 	0.28673	0.02497	0.62027	0.068
Mof_C 	C 	0.28473	0.97207	0.59967	0.007
Mof_H 	H 	0.31953	0.99577	0.59477	0.026
Mof_C 	C 	0.25483	0.92337	0.59127	-0.092
Mof_H 	H 	0.26843	0.91517	0.58027	0.067
Mof_C 	C 	0.20283	0.88347	0.59857	0.033
Mof_C 	C 	0.27203	0.81347	0.53901	-0.171
Mof_H 	H 	0.29443	0.84837	0.54407	0.093
Mof_C 	C 	0.29123	0.79337	0.52358	0.104
Mof_H 	H 	0.32633	0.81547	0.51867	0.013
Mof_O 	O 	0.82044	0.36383	0.10313	-0.645
Mof_O 	O 	0.7926	0.30893	0.12965	-0.646
Mof_O 	O 	0.76145	0.42166	0.16071	-0.637
Mof_O 	O 	0.75412	0.42378	0.06934	-0.609
Mof_C 	C 	0.82833	0.34037	0.11728	0.527
Mof_C 	C 	0.88549	0.34983	0.11985	-0.217
Mof_C 	C 	0.8965	0.32303	0.13385	0.14
Mof_H 	H 	0.8681	0.2984	0.1418	0
Mof_C 	C 	0.9495	0.3313	0.13672	-0.206
Mof_H 	H 	0.9562	0.3126	0.1464	0.099
Mof_C 	C 	0.9913	0.3675	0.1251	0.144
Mof_C 	C 	0.9809	0.3981	0.11172	-0.228
Mof_H 	H 	0.0098	0.4256	0.1048	0.121
Mof_C 	C 	0.9276	0.3878	0.10864	0.148
Mof_H 	H 	0.9207	0.4067	0.0991	-0.006
Mof_C 	C 	0.0466	0.3786	0.12684	-0.074
Mof_C 	C 	0.0911	0.3835	0.12883	0.03
Mof_C 	C 	0.1437	0.3871	0.13009	-0.038
Mof_C 	C 	0.1528	0.3575	0.14373	0.028
Mof_C 	C 	0.1139	0.3257	0.15805	-0.091
Mof_H 	H 	0.0801	0.3242	0.1578	0.071
Mof_C 	C 	0.1227	0.2981	0.17172	0.02
Mof_C 	C 	0.1846	0.4208	0.11644	0.023
Mof_C 	C 	0.1777	0.4546	0.10186	-0.084
Mof_H 	H 	0.1448	0.4549	0.1016	0.067
Mof_C 	C 	0.2163	0.485	0.08884	0.013
Mof_C 	C 	0.7805	0.4741	0.03407	0.083
Mof_H 	H 	0.8037	0.4631	0.0395	0.019
Mof_C 	C 	0.7926	0.5025	0.01622	-0.168
Mof_H 	H 	0.8251	0.511	0.0099	0.09
Mof_C 	C 	0.7645	0.6163	0.94983	0.022
Mof_C 	C 	0.7101	0.5966	0.9569	-0.069
Mof_H 	H 	0.6984	0.5738	0.9677	0.057
Mof_C 	C 	0.6772	0.6096	0.9489	-0.025
Mof_H 	H 	0.6417	0.5951	0.9536	0.037
Mof_C 	C 	0.6946	0.646	0.933	-0.032
Mof_H 	H 	0.6709	0.6571	0.9281	0.043
Mof_C 	C 	0.7433	0.6648	0.9246	-0.066
Mof_H 	H 	0.7515	0.6866	0.9136	0.058
Mof_C 	C 	0.7832	0.6527	0.9319	0.022
Mof_C 	C 	0.8532	0.7919	0.87234	-0.173
Mof_H 	H 	0.8183	0.7794	0.8774	0.094
Mof_C 	C 	0.8733	0.8312	0.85691	0.106
Mof_H 	H 	0.8512	0.8442	0.852	0.012
Mof_O 	O 	0.48711	0.69716	0.43646	-0.644
Mof_O 	O 	0.45927	0.64226	0.46298	-0.645
Mof_O 	O 	0.42812	0.75499	0.49404	-0.638
Mof_O 	O 	0.42079	0.75711	0.40267	-0.609
Mof_C 	C 	0.495	0.6737	0.45061	0.525
Mof_C 	C 	0.55216	0.68316	0.45318	-0.21
Mof_C 	C 	0.56317	0.65636	0.46718	0.136
Mof_H 	H 	0.53477	0.63173	0.47513	0.002
Mof_C 	C 	0.61617	0.66463	0.47005	-0.205
Mof_H 	H 	0.62287	0.64593	0.47973	0.101
Mof_C 	C 	0.65797	0.70083	0.45843	0.149
Mof_C 	C 	0.64757	0.73143	0.44505	-0.2
Mof_H 	H 	0.67647	0.75893	0.43813	0.102
Mof_C 	C 	0.59427	0.72113	0.44197	0.133
Mof_H 	H 	0.58737	0.74003	0.43243	0.001
Mof_C 	C 	0.71327	0.71193	0.46017	-0.088
Mof_C 	C 	0.75777	0.71683	0.46216	0.034
Mof_C 	C 	0.81037	0.72043	0.46342	-0.041
Mof_C 	C 	0.81947	0.69083	0.47706	0.026
Mof_C 	C 	0.78057	0.65903	0.49138	-0.09
Mof_H 	H 	0.74677	0.65753	0.49113	0.068
Mof_C 	C 	0.78937	0.63143	0.50505	0.018
Mof_C 	C 	0.85127	0.75413	0.44977	0.022
Mof_C 	C 	0.84437	0.78793	0.43519	-0.084
Mof_H 	H 	0.81147	0.78823	0.43493	0.066
Mof_C 	C 	0.88297	0.81833	0.42217	0.01
Mof_C 	C 	0.44717	0.80743	0.3674	0.083
Mof_H 	H 	0.47037	0.79643	0.37283	0.019
Mof_C 	C 	0.45927	0.83583	0.34955	-0.168
Mof_H 	H 	0.49177	0.84433	0.34323	0.09
Mof_C 	C 	0.43117	0.94963	0.28316	0.019
Mof_C 	C 	0.37677	0.92993	0.29023	-0.058
Mof_H 	H 	0.36507	0.90713	0.30103	0.053
Mof_C 	C 	0.34387	0.94293	0.28223	-0.042
Mof_H 	H 	0.30837	0.92843	0.28693	0.042
Mof_C 	C 	0.36127	0.97933	0.26633	-0.009
Mof_H 	H 	0.33757	0.99043	0.26143	0.032
Mof_C 	C 	0.40997	0.99813	0.25793	-0.098
Mof_H 	H 	0.41817	0.01993	0.24693	0.08
Mof_C 	C 	0.44987	0.98603	0.26523	0.015
Mof_C 	C 	0.51987	0.12523	0.20567	-0.169
Mof_H 	H 	0.48497	0.11273	0.21073	0.096
Mof_C 	C 	0.53997	0.16453	0.19024	0.104
Mof_H 	H 	0.51787	0.17753	0.18533	0.015
Mof_O 	O 	0.15377	0.0305	0.7698	-0.643
Mof_O 	O 	0.12593	0.9756	0.79632	-0.657
Mof_O 	O 	0.09478	0.08833	0.82738	-0.634
Mof_O 	O 	0.08745	0.09045	0.73601	-0.607
Mof_C 	C 	0.16166	0.00704	0.78395	0.537
Mof_C 	C 	0.21882	0.0165	0.78652	-0.201
Mof_C 	C 	0.22983	0.9897	0.80052	0.127
Mof_H 	H 	0.20143	0.96507	0.80847	0.003
Mof_C 	C 	0.28283	0.99797	0.80339	-0.224
Mof_H 	H 	0.28953	0.97927	0.81307	0.105
Mof_C 	C 	0.32463	0.03417	0.79177	0.169
Mof_C 	C 	0.31423	0.06477	0.77839	-0.207
Mof_H 	H 	0.34313	0.09227	0.77147	0.105
Mof_C 	C 	0.26093	0.05447	0.77531	0.136
Mof_H 	H 	0.25403	0.07337	0.76577	0.001
Mof_C 	C 	0.37993	0.04527	0.79351	-0.093
Mof_C 	C 	0.42443	0.05017	0.7955	0.044
Mof_C 	C 	0.47703	0.05377	0.79676	-0.046
Mof_C 	C 	0.48613	0.02417	0.8104	0.041
Mof_C 	C 	0.44723	0.99237	0.82472	-0.107
Mof_H 	H 	0.41343	0.99087	0.82447	0.07
Mof_C 	C 	0.45603	0.96477	0.83839	0.02
Mof_C 	C 	0.51793	0.08747	0.78311	0.026
Mof_C 	C 	0.51103	0.12127	0.76853	-0.085
Mof_H 	H 	0.47813	0.12157	0.76827	0.067
Mof_C 	C 	0.54963	0.15167	0.75551	0.013
Mof_C 	C 	0.11383	0.14077	0.70074	0.103
Mof_H 	H 	0.13703	0.12977	0.70617	0.015
Mof_C 	C 	0.12593	0.16917	0.68289	-0.186
Mof_H 	H 	0.15843	0.17767	0.67657	0.098
Mof_C 	C 	0.09783	0.28297	0.6165	0.053
Mof_C 	C 	0.04343	0.26327	0.62357	-0.126
Mof_H 	H 	0.03173	0.24047	0.63437	0.08
Mof_C 	C 	0.01053	0.27627	0.61557	0.058
Mof_H 	H 	0.97503	0.26177	0.62027	-0.001
Mof_C 	C 	0.02793	0.31267	0.59967	-0.088
Mof_H 	H 	0.00423	0.32377	0.59477	0.068
Mof_C 	C 	0.07663	0.33147	0.59127	-0.024
Mof_H 	H 	0.08483	0.35327	0.58027	0.045
Mof_C 	C 	0.11653	0.31937	0.59857	-0.003
Mof_C 	C 	0.18653	0.45857	0.53901	-0.169
Mof_H 	H 	0.15163	0.44607	0.54407	0.095
Mof_C 	C 	0.20663	0.49787	0.52358	0.104
Mof_H 	H 	0.18453	0.51087	0.51867	0.015
Mof_O 	O 	0.63617	0.45661	0.10313	-0.644
Mof_O 	O 	0.69107	0.48367	0.12965	-0.645
Mof_O 	O 	0.57834	0.33979	0.16071	-0.637
Mof_O 	O 	0.57622	0.33034	0.06934	-0.609
Mof_C 	C 	0.65963	0.48796	0.11728	0.524
Mof_C 	C 	0.65017	0.53566	0.11985	-0.211
Mof_C 	C 	0.67697	0.57347	0.13385	0.136
Mof_H 	H 	0.7016	0.5697	0.1418	0.002
Mof_C 	C 	0.6687	0.6182	0.13672	-0.206
Mof_H 	H 	0.6874	0.6436	0.1464	0.101
Mof_C 	C 	0.6325	0.6238	0.1251	0.15
Mof_C 	C 	0.6019	0.5828	0.11172	-0.201
Mof_H 	H 	0.5744	0.5842	0.1048	0.103
Mof_C 	C 	0.6122	0.5398	0.10864	0.133
Mof_H 	H 	0.5933	0.514	0.0991	0.001
Mof_C 	C 	0.6214	0.668	0.12684	-0.088
Mof_C 	C 	0.6165	0.7076	0.12883	0.035
Mof_C 	C 	0.6129	0.7566	0.13009	-0.041
Mof_C 	C 	0.6425	0.7953	0.14373	0.028
Mof_C 	C 	0.6743	0.7882	0.15805	-0.09
Mof_H 	H 	0.6758	0.7559	0.1578	0.068
Mof_C 	C 	0.7019	0.8246	0.17172	0.019
Mof_C 	C 	0.5792	0.7638	0.11644	0.024
Mof_C 	C 	0.5454	0.7231	0.10186	-0.084
Mof_H 	H 	0.5451	0.6899	0.1016	0.067
Mof_C 	C 	0.515	0.7313	0.08884	0.012
Mof_C 	C 	0.5259	0.3064	0.03407	0.084
Mof_H 	H 	0.5369	0.3406	0.0395	0.02
Mof_C 	C 	0.4975	0.2901	0.01622	-0.168
Mof_H 	H 	0.489	0.3141	0.0099	0.091
Mof_C 	C 	0.3837	0.1482	0.94983	0.023
Mof_C 	C 	0.4034	0.1135	0.9569	-0.069
Mof_H 	H 	0.4262	0.1246	0.9677	0.058
Mof_C 	C 	0.3904	0.0676	0.9489	-0.022
Mof_H 	H 	0.4049	0.0466	0.9536	0.039
Mof_C 	C 	0.354	0.0486	0.933	-0.032
Mof_H 	H 	0.3429	0.0138	0.9281	0.048
Mof_C 	C 	0.3352	0.0785	0.9246	-0.064
Mof_H 	H 	0.3134	0.0649	0.9136	0.06
Mof_C 	C 	0.3473	0.1305	0.9319	0.022
Mof_C 	C 	0.2081	0.0613	0.87234	-0.168
Mof_H 	H 	0.2206	0.0389	0.8774	0.097
Mof_C 	C 	0.1688	0.0421	0.85691	0.104
Mof_H 	H 	0.1558	0.007	0.852	0.019
Mof_O 	O 	0.30284	0.78994	0.43646	-0.643
Mof_O 	O 	0.35774	0.817	0.46298	-0.645
Mof_O 	O 	0.24501	0.67312	0.49404	-0.637
Mof_O 	O 	0.24289	0.66367	0.40267	-0.609
Mof_C 	C 	0.3263	0.82129	0.45061	0.521
Mof_C 	C 	0.31684	0.86899	0.45318	-0.2
Mof_C 	C 	0.34364	0.9068	0.46718	0.121
Mof_H 	H 	0.36827	0.90303	0.47513	0.006
Mof_C 	C 	0.33537	0.95153	0.47005	-0.186
Mof_H 	H 	0.35407	0.97693	0.47973	0.09
Mof_C 	C 	0.29917	0.95713	0.45843	0.12
Mof_C 	C 	0.26857	0.91613	0.44505	-0.182
Mof_H 	H 	0.24107	0.91753	0.43813	0.093
Mof_C 	C 	0.27887	0.87313	0.44197	0.119
Mof_H 	H 	0.25997	0.84733	0.43243	0.006
Mof_C 	C 	0.28807	0.00133	0.46017	-0.061
Mof_C 	C 	0.28317	0.04093	0.46216	0.025
Mof_C 	C 	0.27957	0.08993	0.46342	-0.034
Mof_C 	C 	0.30917	0.12863	0.47706	0.026
Mof_C 	C 	0.34097	0.12153	0.49138	-0.089
Mof_H 	H 	0.34247	0.08923	0.49113	0.069
Mof_C 	C 	0.36857	0.15793	0.50505	0.019
Mof_C 	C 	0.24587	0.09713	0.44977	0.023
Mof_C 	C 	0.21207	0.05643	0.43519	-0.084
Mof_H 	H 	0.21177	0.02323	0.43493	0.07
Mof_C 	C 	0.18167	0.06463	0.42217	0.017
Mof_C 	C 	0.19257	0.63973	0.3674	0.084
Mof_H 	H 	0.20357	0.67393	0.37283	0.02
Mof_C 	C 	0.16417	0.62343	0.34955	-0.168
Mof_H 	H 	0.15567	0.64743	0.34323	0.092
Mof_C 	C 	0.05037	0.48153	0.28316	0.025
Mof_C 	C 	0.07007	0.44683	0.29023	-0.078
Mof_H 	H 	0.09287	0.45793	0.30103	0.061
Mof_C 	C 	0.05707	0.40093	0.28223	-0.009
Mof_H 	H 	0.07157	0.37993	0.28693	0.033
Mof_C 	C 	0.02067	0.38193	0.26633	-0.052
Mof_H 	H 	0.00957	0.34713	0.26143	0.054
Mof_C 	C 	0.00187	0.41183	0.25793	-0.036
Mof_H 	H 	0.98007	0.39823	0.24693	0.04
Mof_C 	C 	0.01397	0.46383	0.26523	0.028
Mof_C 	C 	0.87477	0.39463	0.20567	-0.172
Mof_H 	H 	0.88727	0.37223	0.21073	0.094
Mof_C 	C 	0.83547	0.37543	0.19024	0.105
Mof_H 	H 	0.82247	0.34033	0.18533	0.014
Mof_O 	O 	0.9695	0.12328	0.7698	-0.644
Mof_O 	O 	0.0244	0.15034	0.79632	-0.63
Mof_O 	O 	0.91167	0.00646	0.82738	-0.634
Mof_O 	O 	0.90955	0.99701	0.73601	-0.618
Mof_C 	C 	0.99296	0.15463	0.78395	0.51
Mof_C 	C 	0.9835	0.20233	0.78652	-0.22
Mof_C 	C 	0.0103	0.24014	0.80052	0.147
Mof_H 	H 	0.03493	0.23637	0.80847	0.002
Mof_C 	C 	0.00203	0.28487	0.80339	-0.184
Mof_H 	H 	0.02073	0.31027	0.81307	0.098
Mof_C 	C 	0.96583	0.29047	0.79177	0.128
Mof_C 	C 	0.93523	0.24947	0.77839	-0.193
Mof_H 	H 	0.90773	0.25087	0.77147	0.1
Mof_C 	C 	0.94553	0.20647	0.77531	0.13
Mof_H 	H 	0.92663	0.18067	0.76577	0.001
Mof_C 	C 	0.95473	0.33467	0.79351	-0.082
Mof_C 	C 	0.94983	0.37427	0.7955	0.024
Mof_C 	C 	0.94623	0.42327	0.79676	-0.036
Mof_C 	C 	0.97583	0.46197	0.8104	0.013
Mof_C 	C 	0.00763	0.45487	0.82472	-0.071
Mof_H 	H 	0.00913	0.42257	0.82447	0.066
Mof_C 	C 	0.03523	0.49127	0.83839	0.016
Mof_C 	C 	0.91253	0.43047	0.78311	0.021
Mof_C 	C 	0.87873	0.38977	0.76853	-0.084
Mof_H 	H 	0.87843	0.35657	0.76827	0.067
Mof_C 	C 	0.84833	0.39797	0.75551	0.012
Mof_C 	C 	0.85923	0.97307	0.70074	0.046
Mof_H 	H 	0.87023	0.00727	0.70617	0.04
Mof_C 	C 	0.83083	0.95677	0.68289	-0.146
Mof_H 	H 	0.82233	0.98077	0.67657	0.079
Mof_C 	C 	0.71703	0.81487	0.6165	0.011
Mof_C 	C 	0.73673	0.78017	0.62357	-0.058
Mof_H 	H 	0.75953	0.79127	0.63437	0.052
Mof_C 	C 	0.72373	0.73427	0.61557	-0.035
Mof_H 	H 	0.73823	0.71327	0.62027	0.04
Mof_C 	C 	0.68733	0.71527	0.59967	-0.023
Mof_H 	H 	0.67623	0.68047	0.59477	0.04
Mof_C 	C 	0.66853	0.74517	0.59127	-0.075
Mof_H 	H 	0.64673	0.73157	0.58027	0.062
Mof_C 	C 	0.68063	0.79717	0.59857	0.032
Mof_C 	C 	0.54143	0.72797	0.53901	-0.172
Mof_H 	H 	0.55393	0.70557	0.54407	0.095
Mof_C 	C 	0.50213	0.70877	0.52358	0.106
Mof_H 	H 	0.48913	0.67367	0.51867	0.014
Mof_O 	O 	0.82044	0.45661	0.10313	-0.645
Mof_O 	O 	0.7926	0.48367	0.12965	-0.646
Mof_O 	O 	0.76145	0.33979	0.16071	-0.637
Mof_O 	O 	0.75412	0.33034	0.06934	-0.609
Mof_C 	C 	0.82833	0.48796	0.11728	0.527
Mof_C 	C 	0.88549	0.53566	0.11985	-0.218
Mof_C 	C 	0.8965	0.57347	0.13385	0.14
Mof_H 	H 	0.8681	0.5697	0.1418	0
Mof_C 	C 	0.9495	0.6182	0.13672	-0.207
Mof_H 	H 	0.9562	0.6436	0.1464	0.099
Mof_C 	C 	0.9913	0.6238	0.1251	0.145
Mof_C 	C 	0.9809	0.5828	0.11172	-0.228
Mof_H 	H 	0.0098	0.5842	0.1048	0.12
Mof_C 	C 	0.9276	0.5398	0.10864	0.148
Mof_H 	H 	0.9207	0.514	0.0991	-0.006
Mof_C 	C 	0.0466	0.668	0.12684	-0.075
Mof_C 	C 	0.0911	0.7076	0.12883	0.03
Mof_C 	C 	0.1437	0.7566	0.13009	-0.038
Mof_C 	C 	0.1528	0.7953	0.14373	0.028
Mof_C 	C 	0.1139	0.7882	0.15805	-0.091
Mof_H 	H 	0.0801	0.7559	0.1578	0.07
Mof_C 	C 	0.1227	0.8246	0.17172	0.021
Mof_C 	C 	0.1846	0.7638	0.11644	0.023
Mof_C 	C 	0.1777	0.7231	0.10186	-0.084
Mof_H 	H 	0.1448	0.6899	0.1016	0.067
Mof_C 	C 	0.2163	0.7313	0.08884	0.013
Mof_C 	C 	0.7805	0.3064	0.03407	0.083
Mof_H 	H 	0.8037	0.3406	0.0395	0.019
Mof_C 	C 	0.7926	0.2901	0.01622	-0.168
Mof_H 	H 	0.8251	0.3141	0.0099	0.09
Mof_C 	C 	0.7645	0.1482	0.94983	0.023
Mof_C 	C 	0.7101	0.1135	0.9569	-0.069
Mof_H 	H 	0.6984	0.1246	0.9677	0.058
Mof_C 	C 	0.6772	0.0676	0.9489	-0.023
Mof_H 	H 	0.6417	0.0466	0.9536	0.039
Mof_C 	C 	0.6946	0.0486	0.933	-0.032
Mof_H 	H 	0.6709	0.0138	0.9281	0.047
Mof_C 	C 	0.7433	0.0785	0.9246	-0.064
Mof_H 	H 	0.7515	0.0649	0.9136	0.06
Mof_C 	C 	0.7832	0.1305	0.9319	0.022
Mof_C 	C 	0.8532	0.0613	0.87234	-0.17
Mof_H 	H 	0.8183	0.0389	0.8774	0.096
Mof_C 	C 	0.8733	0.0421	0.85691	0.105
Mof_H 	H 	0.8512	0.007	0.852	0.017
Mof_O 	O 	0.48711	0.78994	0.43646	-0.643
Mof_O 	O 	0.45927	0.817	0.46298	-0.645
Mof_O 	O 	0.42812	0.67312	0.49404	-0.638
Mof_O 	O 	0.42079	0.66367	0.40267	-0.609
Mof_C 	C 	0.495	0.82129	0.45061	0.521
Mof_C 	C 	0.55216	0.86899	0.45318	-0.201
Mof_C 	C 	0.56317	0.9068	0.46718	0.122
Mof_H 	H 	0.53477	0.90303	0.47513	0.005
Mof_C 	C 	0.61617	0.95153	0.47005	-0.187
Mof_H 	H 	0.62287	0.97693	0.47973	0.091
Mof_C 	C 	0.65797	0.95713	0.45843	0.121
Mof_C 	C 	0.64757	0.91613	0.44505	-0.183
Mof_H 	H 	0.67647	0.91753	0.43813	0.093
Mof_C 	C 	0.59427	0.87313	0.44197	0.119
Mof_H 	H 	0.58737	0.84733	0.43243	0.005
Mof_C 	C 	0.71327	0.00133	0.46017	-0.063
Mof_C 	C 	0.75777	0.04093	0.46216	0.024
Mof_C 	C 	0.81037	0.08993	0.46342	-0.034
Mof_C 	C 	0.81947	0.12863	0.47706	0.025
Mof_C 	C 	0.78057	0.12153	0.49138	-0.088
Mof_H 	H 	0.74677	0.08923	0.49113	0.069
Mof_C 	C 	0.78937	0.15793	0.50505	0.018
Mof_C 	C 	0.85127	0.09713	0.44977	0.022
Mof_C 	C 	0.84437	0.05643	0.43519	-0.084
Mof_H 	H 	0.81147	0.02323	0.43493	0.069
Mof_C 	C 	0.88297	0.06463	0.42217	0.014
Mof_C 	C 	0.44717	0.63973	0.3674	0.084
Mof_H 	H 	0.47037	0.67393	0.37283	0.02
Mof_C 	C 	0.45927	0.62343	0.34955	-0.168
Mof_H 	H 	0.49177	0.64743	0.34323	0.091
Mof_C 	C 	0.43117	0.48153	0.28316	0.022
Mof_C 	C 	0.37677	0.44683	0.29023	-0.069
Mof_H 	H 	0.36507	0.45793	0.30103	0.057
Mof_C 	C 	0.34387	0.40093	0.28223	-0.024
Mof_H 	H 	0.30837	0.37993	0.28693	0.038
Mof_C 	C 	0.36127	0.38193	0.26633	-0.032
Mof_H 	H 	0.33757	0.34713	0.26143	0.044
Mof_C 	C 	0.40997	0.41183	0.25793	-0.065
Mof_H 	H 	0.41817	0.39823	0.24693	0.059
Mof_C 	C 	0.44987	0.46383	0.26523	0.022
Mof_C 	C 	0.51987	0.39463	0.20567	-0.171
Mof_H 	H 	0.48497	0.37223	0.21073	0.095
Mof_C 	C 	0.53997	0.37543	0.19024	0.105
Mof_H 	H 	0.51787	0.34033	0.18533	0.014
Mof_O 	O 	0.15377	0.12328	0.7698	-0.643
Mof_O 	O 	0.12593	0.15034	0.79632	-0.644
Mof_O 	O 	0.09478	0.00646	0.82738	-0.629
Mof_O 	O 	0.08745	0.99701	0.73601	-0.616
Mof_C 	C 	0.16166	0.15463	0.78395	0.524
Mof_C 	C 	0.21882	0.20233	0.78652	-0.21
Mof_C 	C 	0.22983	0.24014	0.80052	0.136
Mof_H 	H 	0.20143	0.23637	0.80847	0.003
Mof_C 	C 	0.28283	0.28487	0.80339	-0.205
Mof_H 	H 	0.28953	0.31027	0.81307	0.101
Mof_C 	C 	0.32463	0.29047	0.79177	0.15
Mof_C 	C 	0.31423	0.24947	0.77839	-0.2
Mof_H 	H 	0.34313	0.25087	0.77147	0.103
Mof_C 	C 	0.26093	0.20647	0.77531	0.133
Mof_H 	H 	0.25403	0.18067	0.76577	0.002
Mof_C 	C 	0.37993	0.33467	0.79351	-0.088
Mof_C 	C 	0.42443	0.37427	0.7955	0.035
Mof_C 	C 	0.47703	0.42327	0.79676	-0.041
Mof_C 	C 	0.48613	0.46197	0.8104	0.028
Mof_C 	C 	0.44723	0.45487	0.82472	-0.09
Mof_H 	H 	0.41343	0.42257	0.82447	0.068
Mof_C 	C 	0.45603	0.49127	0.83839	0.018
Mof_C 	C 	0.51793	0.43047	0.78311	0.024
Mof_C 	C 	0.51103	0.38977	0.76853	-0.084
Mof_H 	H 	0.47813	0.35657	0.76827	0.067
Mof_C 	C 	0.54963	0.39797	0.75551	0.013
Mof_C 	C 	0.11383	0.97307	0.70074	0.06
Mof_H 	H 	0.13703	0.00727	0.70617	0.038
Mof_C 	C 	0.12593	0.95677	0.68289	-0.159
Mof_H 	H 	0.15843	0.98077	0.67657	0.085
Mof_C 	C 	0.09783	0.81487	0.6165	0.039
Mof_C 	C 	0.04343	0.78017	0.62357	-0.112
Mof_H 	H 	0.03173	0.79127	0.63437	0.074
Mof_C 	C 	0.01053	0.73427	0.61557	0.042
Mof_H 	H 	0.97503	0.71327	0.62027	0.004
Mof_C 	C 	0.02793	0.71527	0.59967	-0.075
Mof_H 	H 	0.00423	0.68047	0.59477	0.063
Mof_C 	C 	0.07663	0.74517	0.59127	-0.036
Mof_H 	H 	0.08483	0.73157	0.58027	0.05
Mof_C 	C 	0.11653	0.79717	0.59857	0.009
Mof_C 	C 	0.18653	0.72797	0.53901	-0.17
Mof_H 	H 	0.15163	0.70557	0.54407	0.096
Mof_C 	C 	0.20663	0.70877	0.52358	0.105
Mof_H 	H 	0.18453	0.67367	0.51867	0.015
Mof_O 	O 	0.63617	0.17956	0.10313	-0.642
Mof_O 	O 	0.69107	0.2074	0.12965	-0.644
Mof_O 	O 	0.57834	0.23855	0.16071	-0.637
Mof_O 	O 	0.57622	0.24588	0.06934	-0.609
Mof_C 	C 	0.65963	0.17167	0.11728	0.522
Mof_C 	C 	0.65017	0.11451	0.11985	-0.203
Mof_C 	C 	0.67697	0.1035	0.13385	0.133
Mof_H 	H 	0.7016	0.1319	0.1418	0.003
Mof_C 	C 	0.6687	0.0505	0.13672	-0.205
Mof_H 	H 	0.6874	0.0438	0.1464	0.104
Mof_C 	C 	0.6325	0.0087	0.1251	0.156
Mof_C 	C 	0.6019	0.0191	0.11172	-0.171
Mof_H 	H 	0.5744	0.9902	0.1048	0.084
Mof_C 	C 	0.6122	0.0724	0.10864	0.118
Mof_H 	H 	0.5933	0.0793	0.0991	0.009
Mof_C 	C 	0.6214	0.9534	0.12684	-0.102
Mof_C 	C 	0.6165	0.9089	0.12883	0.04
Mof_C 	C 	0.6129	0.8563	0.13009	-0.044
Mof_C 	C 	0.6425	0.8472	0.14373	0.028
Mof_C 	C 	0.6743	0.8861	0.15805	-0.089
Mof_H 	H 	0.6758	0.9199	0.1578	0.065
Mof_C 	C 	0.7019	0.8773	0.17172	0.016
Mof_C 	C 	0.5792	0.8154	0.11644	0.025
Mof_C 	C 	0.5454	0.8223	0.10186	-0.085
Mof_H 	H 	0.5451	0.8552	0.1016	0.066
Mof_C 	C 	0.515	0.7837	0.08884	0.012
Mof_C 	C 	0.5259	0.2195	0.03407	0.084
Mof_H 	H 	0.5369	0.1963	0.0395	0.021
Mof_C 	C 	0.4975	0.2074	0.01622	-0.168
Mof_H 	H 	0.489	0.1749	0.0099	0.092
Mof_C 	C 	0.3837	0.2355	0.94983	0.023
Mof_C 	C 	0.4034	0.2899	0.9569	-0.069
Mof_H 	H 	0.4262	0.3016	0.9677	0.057
Mof_C 	C 	0.3904	0.3228	0.9489	-0.024
Mof_H 	H 	0.4049	0.3583	0.9536	0.037
Mof_C 	C 	0.354	0.3054	0.933	-0.032
Mof_H 	H 	0.3429	0.3291	0.9281	0.044
Mof_C 	C 	0.3352	0.2567	0.9246	-0.064
Mof_H 	H 	0.3134	0.2485	0.9136	0.059
Mof_C 	C 	0.3473	0.2168	0.9319	0.022
Mof_C 	C 	0.2081	0.1468	0.87234	-0.168
Mof_H 	H 	0.2206	0.1817	0.8774	0.095
Mof_C 	C 	0.1688	0.1267	0.85691	0.104
Mof_H 	H 	0.1558	0.1488	0.852	0.016
Mof_O 	O 	0.30284	0.51289	0.43646	-0.643
Mof_O 	O 	0.35774	0.54073	0.46298	-0.645
Mof_O 	O 	0.24501	0.57188	0.49404	-0.637
Mof_O 	O 	0.24289	0.57921	0.40267	-0.609
Mof_C 	C 	0.3263	0.505	0.45061	0.525
Mof_C 	C 	0.31684	0.44784	0.45318	-0.211
Mof_C 	C 	0.34364	0.43683	0.46718	0.137
Mof_H 	H 	0.36827	0.46523	0.47513	0.002
Mof_C 	C 	0.33537	0.38383	0.47005	-0.206
Mof_H 	H 	0.35407	0.37713	0.47973	0.102
Mof_C 	C 	0.29917	0.34203	0.45843	0.15
Mof_C 	C 	0.26857	0.35243	0.44505	-0.201
Mof_H 	H 	0.24107	0.32353	0.43813	0.104
Mof_C 	C 	0.27887	0.40573	0.44197	0.134
Mof_H 	H 	0.25997	0.41263	0.43243	0.001
Mof_C 	C 	0.28807	0.28673	0.46017	-0.088
Mof_C 	C 	0.28317	0.24223	0.46216	0.036
Mof_C 	C 	0.27957	0.18963	0.46342	-0.042
Mof_C 	C 	0.30917	0.18053	0.47706	0.029
Mof_C 	C 	0.34097	0.21943	0.49138	-0.09
Mof_H 	H 	0.34247	0.25323	0.49113	0.068
Mof_C 	C 	0.36857	0.21063	0.50505	0.019
Mof_C 	C 	0.24587	0.14873	0.44977	0.025
Mof_C 	C 	0.21207	0.15563	0.43519	-0.085
Mof_H 	H 	0.21177	0.18853	0.43493	0.068
Mof_C 	C 	0.18167	0.11703	0.42217	0.015
Mof_C 	C 	0.19257	0.55283	0.3674	0.084
Mof_H 	H 	0.20357	0.52963	0.37283	0.02
Mof_C 	C 	0.16417	0.54073	0.34955	-0.168
Mof_H 	H 	0.15567	0.50823	0.34323	0.092
Mof_C 	C 	0.05037	0.56883	0.28316	0.025
Mof_C 	C 	0.07007	0.62323	0.29023	-0.078
Mof_H 	H 	0.09287	0.63493	0.30103	0.061
Mof_C 	C 	0.05707	0.65613	0.28223	-0.01
Mof_H 	H 	0.07157	0.69163	0.28693	0.033
Mof_C 	C 	0.02067	0.63873	0.26633	-0.051
Mof_H 	H 	0.00957	0.66243	0.26143	0.053
Mof_C 	C 	0.00187	0.59003	0.25793	-0.038
Mof_H 	H 	0.98007	0.58183	0.24693	0.041
Mof_C 	C 	0.01397	0.55013	0.26523	0.029
Mof_C 	C 	0.87477	0.48013	0.20567	-0.172
Mof_H 	H 	0.88727	0.51503	0.21073	0.094
Mof_C 	C 	0.83547	0.46003	0.19024	0.105
Mof_H 	H 	0.82247	0.48213	0.18533	0.014
Mof_O 	O 	0.9695	0.84623	0.7698	-0.645
Mof_O 	O 	0.0244	0.87407	0.79632	-0.632
Mof_O 	O 	0.91167	0.90522	0.82738	-0.643
Mof_O 	O 	0.90955	0.91255	0.73601	-0.613
Mof_C 	C 	0.99296	0.83834	0.78395	0.512
Mof_C 	C 	0.9835	0.78118	0.78652	-0.22
Mof_C 	C 	0.0103	0.77017	0.80052	0.147
Mof_H 	H 	0.03493	0.79857	0.80847	0.001
Mof_C 	C 	0.00203	0.71717	0.80339	-0.185
Mof_H 	H 	0.02073	0.71047	0.81307	0.098
Mof_C 	C 	0.96583	0.67537	0.79177	0.129
Mof_C 	C 	0.93523	0.68577	0.77839	-0.194
Mof_H 	H 	0.90773	0.65687	0.77147	0.1
Mof_C 	C 	0.94553	0.73907	0.77531	0.131
Mof_H 	H 	0.92663	0.74597	0.76577	0.001
Mof_C 	C 	0.95473	0.62007	0.79351	-0.082
Mof_C 	C 	0.94983	0.57557	0.7955	0.025
Mof_C 	C 	0.94623	0.52297	0.79676	-0.036
Mof_C 	C 	0.97583	0.51387	0.8104	0.013
Mof_C 	C 	0.00763	0.55277	0.82472	-0.071
Mof_H 	H 	0.00913	0.58657	0.82447	0.066
Mof_C 	C 	0.03523	0.54397	0.83839	0.016
Mof_C 	C 	0.91253	0.48207	0.78311	0.021
Mof_C 	C 	0.87873	0.48897	0.76853	-0.084
Mof_H 	H 	0.87843	0.52187	0.76827	0.067
Mof_C 	C 	0.84833	0.45037	0.75551	0.012
Mof_C 	C 	0.85923	0.88617	0.70074	0.068
Mof_H 	H 	0.87023	0.86297	0.70617	0.024
Mof_C 	C 	0.83083	0.87407	0.68289	-0.154
Mof_H 	H 	0.82233	0.84157	0.67657	0.085
Mof_C 	C 	0.71703	0.90217	0.6165	-0.004
Mof_C 	C 	0.73673	0.95657	0.62357	-0.021
Mof_H 	H 	0.75953	0.96827	0.63437	0.037
Mof_C 	C 	0.72373	0.98947	0.61557	-0.094
Mof_H 	H 	0.73823	0.02497	0.62027	0.069
Mof_C 	C 	0.68733	0.97207	0.59967	0.015
Mof_H 	H 	0.67623	0.99577	0.59477	0.024
Mof_C 	C 	0.66853	0.92337	0.59127	-0.1
Mof_H 	H 	0.64673	0.91517	0.58027	0.07
Mof_C 	C 	0.68063	0.88347	0.59857	0.043
Mof_C 	C 	0.54143	0.81347	0.53901	-0.172
Mof_H 	H 	0.55393	0.84837	0.54407	0.094
Mof_C 	C 	0.50213	0.79337	0.52358	0.105
Mof_H 	H 	0.48913	0.81547	0.51867	0.013
Mof_O 	O 	0.54339	0.36383	0.10313	-0.643
Mof_O 	O 	0.51633	0.30893	0.12965	-0.645
Mof_O 	O 	0.66021	0.42166	0.16071	-0.637
Mof_O 	O 	0.66966	0.42378	0.06934	-0.609
Mof_C 	C 	0.51204	0.34037	0.11728	0.525
Mof_C 	C 	0.46434	0.34983	0.11985	-0.21
Mof_C 	C 	0.42653	0.32303	0.13385	0.137
Mof_H 	H 	0.4303	0.2984	0.1418	0.002
Mof_C 	C 	0.3818	0.3313	0.13672	-0.205
Mof_H 	H 	0.3564	0.3126	0.1464	0.102
Mof_C 	C 	0.3762	0.3675	0.1251	0.15
Mof_C 	C 	0.4172	0.3981	0.11172	-0.2
Mof_H 	H 	0.4158	0.4256	0.1048	0.103
Mof_C 	C 	0.4602	0.3878	0.10864	0.134
Mof_H 	H 	0.486	0.4067	0.0991	0.001
Mof_C 	C 	0.332	0.3786	0.12684	-0.088
Mof_C 	C 	0.2924	0.3835	0.12883	0.035
Mof_C 	C 	0.2434	0.3871	0.13009	-0.041
Mof_C 	C 	0.2047	0.3575	0.14373	0.028
Mof_C 	C 	0.2118	0.3257	0.15805	-0.09
Mof_H 	H 	0.2441	0.3242	0.1578	0.068
Mof_C 	C 	0.1754	0.2981	0.17172	0.018
Mof_C 	C 	0.2362	0.4208	0.11644	0.024
Mof_C 	C 	0.2769	0.4546	0.10186	-0.084
Mof_H 	H 	0.3101	0.4549	0.1016	0.067
Mof_C 	C 	0.2687	0.485	0.08884	0.012
Mof_C 	C 	0.6936	0.4741	0.03407	0.083
Mof_H 	H 	0.6594	0.4631	0.0395	0.02
Mof_C 	C 	0.7099	0.5025	0.01622	-0.168
Mof_H 	H 	0.6859	0.511	0.0099	0.091
Mof_C 	C 	0.8518	0.6163	0.94983	0.021
Mof_C 	C 	0.8865	0.5966	0.9569	-0.069
Mof_H 	H 	0.8754	0.5738	0.9677	0.056
Mof_C 	C 	0.9324	0.6096	0.9489	-0.026
Mof_H 	H 	0.9534	0.5951	0.9536	0.035
Mof_C 	C 	0.9514	0.646	0.933	-0.032
Mof_H 	H 	0.9862	0.6571	0.9281	0.04
Mof_C 	C 	0.9215	0.6648	0.9246	-0.067
Mof_H 	H 	0.9351	0.6866	0.9136	0.057
Mof_C 	C 	0.8695	0.6527	0.9319	0.022
Mof_C 	C 	0.9387	0.7919	0.87234	-0.173
Mof_H 	H 	0.9611	0.7794	0.8774	0.093
Mof_C 	C 	0.9579	0.8312	0.85691	0.105
Mof_H 	H 	0.993	0.8442	0.852	0.009
Mof_O 	O 	0.21006	0.69716	0.43646	-0.644
Mof_O 	O 	0.183	0.64226	0.46298	-0.645
Mof_O 	O 	0.32688	0.75499	0.49404	-0.638
Mof_O 	O 	0.33633	0.75711	0.40267	-0.609
Mof_C 	C 	0.17871	0.6737	0.45061	0.528
Mof_C 	C 	0.13101	0.68316	0.45318	-0.22
Mof_C 	C 	0.0932	0.65636	0.46718	0.151
Mof_H 	H 	0.09697	0.63173	0.47513	-0.002
Mof_C 	C 	0.04847	0.66463	0.47005	-0.223
Mof_H 	H 	0.02307	0.64593	0.47973	0.112
Mof_C 	C 	0.04287	0.70083	0.45843	0.177
Mof_C 	C 	0.08387	0.73143	0.44505	-0.217
Mof_H 	H 	0.08247	0.75893	0.43813	0.111
Mof_C 	C 	0.12687	0.72113	0.44197	0.147
Mof_H 	H 	0.15267	0.74003	0.43243	-0.003
Mof_C 	C 	0.99867	0.71193	0.46017	-0.112
Mof_C 	C 	0.95907	0.71683	0.46216	0.044
Mof_C 	C 	0.91007	0.72043	0.46342	-0.047
Mof_C 	C 	0.87137	0.69083	0.47706	0.029
Mof_C 	C 	0.87847	0.65903	0.49138	-0.091
Mof_H 	H 	0.91077	0.65753	0.49113	0.066
Mof_C 	C 	0.84207	0.63143	0.50505	0.018
Mof_C 	C 	0.90287	0.75413	0.44977	0.024
Mof_C 	C 	0.94357	0.78793	0.43519	-0.084
Mof_H 	H 	0.97677	0.78823	0.43493	0.064
Mof_C 	C 	0.93537	0.81833	0.42217	0.008
Mof_C 	C 	0.36027	0.80743	0.3674	0.083
Mof_H 	H 	0.32607	0.79643	0.37283	0.02
Mof_C 	C 	0.37657	0.83583	0.34955	-0.168
Mof_H 	H 	0.35257	0.84433	0.34323	0.09
Mof_C 	C 	0.51847	0.94963	0.28316	0.019
Mof_C 	C 	0.55317	0.92993	0.29023	-0.059
Mof_H 	H 	0.54207	0.90713	0.30103	0.053
Mof_C 	C 	0.59907	0.94293	0.28223	-0.041
Mof_H 	H 	0.62007	0.92843	0.28693	0.042
Mof_C 	C 	0.61807	0.97933	0.26633	-0.01
Mof_H 	H 	0.65287	0.99043	0.26143	0.033
Mof_C 	C 	0.58817	0.99813	0.25793	-0.097
Mof_H 	H 	0.60177	0.01993	0.24693	0.079
Mof_C 	C 	0.53617	0.98603	0.26523	0.014
Mof_C 	C 	0.60537	0.12523	0.20567	-0.169
Mof_H 	H 	0.62777	0.11273	0.21073	0.095
Mof_C 	C 	0.62457	0.16453	0.19024	0.104
Mof_H 	H 	0.65967	0.17753	0.18533	0.014
Mof_O 	O 	0.87672	0.0305	0.7698	-0.644
Mof_O 	O 	0.84966	0.9756	0.79632	-0.657
Mof_O 	O 	0.99354	0.08833	0.82738	-0.645
Mof_O 	O 	0.00299	0.09045	0.73601	-0.601
Mof_C 	C 	0.84537	0.00704	0.78395	0.536
Mof_C 	C 	0.79767	0.0165	0.78652	-0.203
Mof_C 	C 	0.75986	0.9897	0.80052	0.128
Mof_H 	H 	0.76363	0.96507	0.80847	0.002
Mof_C 	C 	0.71513	0.99797	0.80339	-0.224
Mof_H 	H 	0.68973	0.97927	0.81307	0.105
Mof_C 	C 	0.70953	0.03417	0.79177	0.168
Mof_C 	C 	0.75053	0.06477	0.77839	-0.207
Mof_H 	H 	0.74913	0.09227	0.77147	0.105
Mof_C 	C 	0.79353	0.05447	0.77531	0.136
Mof_H 	H 	0.81933	0.07337	0.76577	0
Mof_C 	C 	0.66533	0.04527	0.79351	-0.093
Mof_C 	C 	0.62573	0.05017	0.7955	0.043
Mof_C 	C 	0.57673	0.05377	0.79676	-0.045
Mof_C 	C 	0.53803	0.02417	0.8104	0.041
Mof_C 	C 	0.54513	0.99237	0.82472	-0.107
Mof_H 	H 	0.57743	0.99087	0.82447	0.07
Mof_C 	C 	0.50873	0.96477	0.83839	0.02
Mof_C 	C 	0.56953	0.08747	0.78311	0.026
Mof_C 	C 	0.61023	0.12127	0.76853	-0.085
Mof_H 	H 	0.64343	0.12157	0.76827	0.067
Mof_C 	C 	0.60203	0.15167	0.75551	0.013
Mof_C 	C 	0.02693	0.14077	0.70074	0.131
Mof_H 	H 	0.99273	0.12977	0.70617	-0.006
Mof_C 	C 	0.04323	0.16917	0.68289	-0.197
Mof_H 	H 	0.01923	0.17767	0.67657	0.105
Mof_C 	C 	0.18513	0.28297	0.6165	0.036
Mof_C 	C 	0.21983	0.26327	0.62357	-0.082
Mof_H 	H 	0.20873	0.24047	0.63437	0.062
Mof_C 	C 	0.26573	0.27627	0.61557	-0.011
Mof_H 	H 	0.28673	0.26177	0.62027	0.034
Mof_C 	C 	0.28473	0.31267	0.59967	-0.044
Mof_H 	H 	0.31953	0.32377	0.59477	0.048
Mof_C 	C 	0.25483	0.33147	0.59127	-0.054
Mof_H 	H 	0.26843	0.35327	0.58027	0.055
Mof_C 	C 	0.20283	0.31937	0.59857	0.01
Mof_C 	C 	0.27203	0.45857	0.53901	-0.169
Mof_H 	H 	0.29443	0.44607	0.54407	0.094
Mof_C 	C 	0.29123	0.49787	0.52358	0.104
Mof_H 	H 	0.32633	0.51087	0.51867	0.014
Mof_Zr	Zr	0.70816	0.29184	0.13615	3.214
Mof_O 	O 	0.71358	0.28642	0.10366	-1.019
Mof_C 	C 	0.71742	0.28258	0.0619	0.43
Mof_C 	C 	0.73175	0.26825	0.04296	-0.146
Mof_C 	C 	0.7588	0.2412	0.0082	0.131
Mof_C 	C 	0.7732	0.2268	0.9891	-0.078
Mof_C 	C 	0.785	0.215	0.9752	0.033
Mof_C 	C 	0.8012	0.1988	0.95716	-0.037
Mof_C 	C 	0.8338	0.1662	0.92486	-0.037
Mof_C 	C 	0.8525	0.1475	0.90771	0.039
Mof_C 	C 	0.8664	0.1336	0.8952	-0.079
Mof_C 	C 	0.8864	0.1136	0.87965	0.13
Mof_Zr	Zr	0.37483	0.62517	0.46949	3.214
Mof_O 	O 	0.38025	0.61975	0.43699	-1.019
Mof_C 	C 	0.38409	0.61591	0.39523	0.43
Mof_C 	C 	0.39842	0.60158	0.37629	-0.146
Mof_C 	C 	0.42547	0.57453	0.34153	0.131
Mof_C 	C 	0.43987	0.56013	0.32243	-0.078
Mof_C 	C 	0.45167	0.54833	0.30853	0.033
Mof_C 	C 	0.46787	0.53213	0.29049	-0.037
Mof_C 	C 	0.50047	0.49953	0.25819	-0.036
Mof_C 	C 	0.51917	0.48083	0.24104	0.039
Mof_C 	C 	0.53307	0.46693	0.22853	-0.078
Mof_C 	C 	0.55307	0.44693	0.21298	0.13
Mof_Zr	Zr	0.04149	0.95851	0.80282	3.214
Mof_O 	O 	0.04691	0.95309	0.77033	-1.021
Mof_C 	C 	0.05075	0.94925	0.72857	0.43
Mof_C 	C 	0.06508	0.93492	0.70963	-0.147
Mof_C 	C 	0.09213	0.90787	0.67487	0.132
Mof_C 	C 	0.10653	0.89347	0.65577	-0.078
Mof_C 	C 	0.11833	0.88167	0.64187	0.033
Mof_C 	C 	0.13453	0.86547	0.62383	-0.038
Mof_C 	C 	0.16713	0.83287	0.59153	-0.036
Mof_C 	C 	0.18583	0.81417	0.57438	0.039
Mof_C 	C 	0.19973	0.80027	0.56187	-0.078
Mof_C 	C 	0.21973	0.78027	0.54632	0.13
Mof_Zr	Zr	0.70816	0.41632	0.13615	3.214
Mof_O 	O 	0.71358	0.42716	0.10366	-1.019
Mof_C 	C 	0.71742	0.43484	0.0619	0.43
Mof_C 	C 	0.73175	0.4635	0.04296	-0.146
Mof_C 	C 	0.7588	0.5176	0.0082	0.13
Mof_C 	C 	0.7732	0.5464	0.9891	-0.078
Mof_C 	C 	0.785	0.57	0.9752	0.032
Mof_C 	C 	0.8012	0.6024	0.95716	-0.037
Mof_C 	C 	0.8338	0.6676	0.92486	-0.037
Mof_C 	C 	0.8525	0.705	0.90771	0.038
Mof_C 	C 	0.8664	0.7328	0.8952	-0.08
Mof_C 	C 	0.8864	0.7728	0.87965	0.13
Mof_Zr	Zr	0.37483	0.74965	0.46949	3.214
Mof_O 	O 	0.38025	0.76049	0.43699	-1.019
Mof_C 	C 	0.38409	0.76817	0.39523	0.43
Mof_C 	C 	0.39842	0.79683	0.37629	-0.146
Mof_C 	C 	0.42547	0.85093	0.34153	0.13
Mof_C 	C 	0.43987	0.87973	0.32243	-0.078
Mof_C 	C 	0.45167	0.90333	0.30853	0.031
Mof_C 	C 	0.46787	0.93573	0.29049	-0.037
Mof_C 	C 	0.50047	0.00093	0.25819	-0.011
Mof_C 	C 	0.51917	0.03833	0.24104	0.036
Mof_C 	C 	0.53307	0.06613	0.22853	-0.071
Mof_C 	C 	0.55307	0.10613	0.21298	0.129
Mof_Zr	Zr	0.04149	0.08299	0.80282	3.215
Mof_O 	O 	0.04691	0.09383	0.77033	-1.015
Mof_C 	C 	0.05075	0.10151	0.72857	0.438
Mof_C 	C 	0.06508	0.13017	0.70963	-0.165
Mof_C 	C 	0.09213	0.18427	0.67487	0.153
Mof_C 	C 	0.10653	0.21307	0.65577	-0.088
Mof_C 	C 	0.11833	0.23667	0.64187	0.045
Mof_C 	C 	0.13453	0.26907	0.62383	-0.055
Mof_C 	C 	0.16713	0.33427	0.59153	-0.021
Mof_C 	C 	0.18583	0.37167	0.57438	0.033
Mof_C 	C 	0.19973	0.39947	0.56187	-0.074
Mof_C 	C 	0.21973	0.43947	0.54632	0.128
Mof_Zr	Zr	0.58368	0.29184	0.13615	3.214
Mof_O 	O 	0.57284	0.28642	0.10366	-1.019
Mof_C 	C 	0.56516	0.28258	0.0619	0.431
Mof_C 	C 	0.5365	0.26825	0.04296	-0.146
Mof_C 	C 	0.4824	0.2412	0.0082	0.132
Mof_C 	C 	0.4536	0.2268	0.9891	-0.077
Mof_C 	C 	0.43	0.215	0.9752	0.033
Mof_C 	C 	0.3976	0.1988	0.95716	-0.037
Mof_C 	C 	0.3324	0.1662	0.92486	-0.036
Mof_C 	C 	0.295	0.1475	0.90771	0.039
Mof_C 	C 	0.2672	0.1336	0.8952	-0.077
Mof_C 	C 	0.2272	0.1136	0.87965	0.13
Mof_Zr	Zr	0.25035	0.62517	0.46949	3.214
Mof_O 	O 	0.23951	0.61975	0.43699	-1.019
Mof_C 	C 	0.23183	0.61591	0.39523	0.431
Mof_C 	C 	0.20317	0.60158	0.37629	-0.146
Mof_C 	C 	0.14907	0.57453	0.34153	0.132
Mof_C 	C 	0.12027	0.56013	0.32243	-0.077
Mof_C 	C 	0.09667	0.54833	0.30853	0.034
Mof_C 	C 	0.06427	0.53213	0.29049	-0.037
Mof_C 	C 	0.99907	0.49953	0.25819	-0.058
Mof_C 	C 	0.96167	0.48083	0.24104	0.042
Mof_C 	C 	0.93387	0.46693	0.22853	-0.085
Mof_C 	C 	0.89387	0.44693	0.21298	0.131
Mof_Zr	Zr	0.91701	0.95851	0.80282	3.213
Mof_O 	O 	0.90617	0.95309	0.77033	-1.026
Mof_C 	C 	0.89849	0.94925	0.72857	0.423
Mof_C 	C 	0.86983	0.93492	0.70963	-0.131
Mof_C 	C 	0.81573	0.90787	0.67487	0.113
Mof_C 	C 	0.78693	0.89347	0.65577	-0.069
Mof_C 	C 	0.76333	0.88167	0.64187	0.022
Mof_C 	C 	0.73093	0.86547	0.62383	-0.022
Mof_C 	C 	0.66573	0.83287	0.59153	-0.049
Mof_C 	C 	0.62833	0.81417	0.57438	0.044
Mof_C 	C 	0.60053	0.80027	0.56187	-0.082
Mof_C 	C 	0.56053	0.78027	0.54632	0.132
Mof_Zr	Zr	0.62514	0.25028	0.09505	3.214
Mof_O 	O 	0.63164	0.26328	0.12423	-1.438
Mof_C 	C 	0.61135	0.2227	0.16661	0.505
Mof_C 	C 	0.59165	0.1833	0.18274	-0.185
Mof_Zr	Zr	0.29181	0.58361	0.42838	3.214
Mof_O 	O 	0.29831	0.59661	0.45756	-1.437
Mof_C 	C 	0.27802	0.55603	0.49994	0.505
Mof_C 	C 	0.25832	0.51663	0.51607	-0.185
Mof_Zr	Zr	0.95847	0.91695	0.76172	3.212
Mof_O 	O 	0.96497	0.92995	0.7909	-1.448
Mof_C 	C 	0.94468	0.88937	0.83328	0.506
Mof_C 	C 	0.92498	0.84997	0.84941	-0.19
Mof_Zr	Zr	0.74972	0.37486	0.09505	3.214
Mof_O 	O 	0.73672	0.36836	0.12423	-1.438
Mof_C 	C 	0.7773	0.38865	0.16661	0.505
Mof_C 	C 	0.8167	0.40835	0.18274	-0.186
Mof_Zr	Zr	0.41639	0.70819	0.42838	3.214
Mof_O 	O 	0.40339	0.70169	0.45756	-1.437
Mof_C 	C 	0.44397	0.72198	0.49994	0.505
Mof_C 	C 	0.48337	0.74168	0.51607	-0.187
Mof_Zr	Zr	0.08305	0.04153	0.76172	3.215
Mof_O 	O 	0.07005	0.03503	0.7909	-1.432
Mof_C 	C 	0.11063	0.05532	0.83328	0.503
Mof_C 	C 	0.15003	0.07502	0.84941	-0.182
Mof_Zr	Zr	0.62514	0.37486	0.09505	3.214
Mof_O 	O 	0.63164	0.36836	0.12423	-1.438
Mof_C 	C 	0.61135	0.38865	0.16661	0.505
Mof_C 	C 	0.59165	0.40835	0.18274	-0.186
Mof_Zr	Zr	0.29181	0.70819	0.42838	3.214
Mof_O 	O 	0.29831	0.70169	0.45756	-1.437
Mof_C 	C 	0.27802	0.72198	0.49994	0.505
Mof_C 	C 	0.25832	0.74168	0.51607	-0.186
Mof_Zr	Zr	0.95847	0.04153	0.76172	3.213
Mof_O 	O 	0.96497	0.03503	0.7909	-1.441
Mof_C 	C 	0.94468	0.05532	0.83328	0.505
Mof_C 	C 	0.92498	0.07502	0.84941	-0.187
Mof_O 	O 	0.66667	0.33333	0.08924	-1.424
Mof_O 	O 	0.66667	0.33333	0.15047	-1.021
Mof_O 	O 	0.33333	0.66667	0.42257	-1.424
Mof_O 	O 	0.33333	0.66667	0.4838	-1.022
Mof_O 	O 	-0	-3.39571e-32	0.75591	-1.408
Mof_O 	O 	1.69785e-32	0	0.81714	-1.005
Mof_O 	O 	0.17956	0.54339	0.89687	-0.642
Mof_O 	O 	0.2074	0.51633	0.87035	-0.644
Mof_O 	O 	0.23855	0.66021	0.83929	-0.637
Mof_O 	O 	0.24588	0.66966	0.93066	-0.609
Mof_C 	C 	0.17167	0.51204	0.88272	0.522
Mof_C 	C 	0.11451	0.46434	0.88015	-0.203
Mof_C 	C 	0.1035	0.42653	0.86615	0.133
Mof_H 	H 	0.1319	0.4303	0.8582	0.004
Mof_C 	C 	0.0505	0.3818	0.86328	-0.205
Mof_H 	H 	0.0438	0.3564	0.8536	0.105
Mof_C 	C 	0.0087	0.3762	0.8749	0.156
Mof_C 	C 	0.0191	0.4172	0.88828	-0.17
Mof_H 	H 	0.9902	0.4158	0.8952	0.083
Mof_C 	C 	0.0724	0.4602	0.89136	0.118
Mof_H 	H 	0.0793	0.486	0.9009	0.009
Mof_C 	C 	0.9534	0.332	0.87316	-0.103
Mof_C 	C 	0.9089	0.2924	0.87117	0.04
Mof_C 	C 	0.8563	0.2434	0.86991	-0.044
Mof_C 	C 	0.8472	0.2047	0.85627	0.028
Mof_C 	C 	0.8861	0.2118	0.84195	-0.089
Mof_H 	H 	0.9199	0.2441	0.8422	0.065
Mof_C 	C 	0.8773	0.1754	0.82828	0.015
Mof_C 	C 	0.8154	0.2362	0.88356	0.025
Mof_C 	C 	0.8223	0.2769	0.89814	-0.085
Mof_H 	H 	0.8552	0.3101	0.8984	0.066
Mof_C 	C 	0.7837	0.2687	0.91116	0.012
Mof_C 	C 	0.2195	0.6936	0.96593	0.084
Mof_H 	H 	0.1963	0.6594	0.9605	0.021
Mof_C 	C 	0.2074	0.7099	0.98378	-0.168
Mof_H 	H 	0.1749	0.6859	0.9901	0.092
Mof_C 	C 	0.2355	0.8518	0.05017	0.022
Mof_C 	C 	0.2899	0.8865	0.0431	-0.069
Mof_H 	H 	0.3016	0.8754	0.0323	0.056
Mof_C 	C 	0.3228	0.9324	0.0511	-0.025
Mof_H 	H 	0.3583	0.9534	0.0464	0.035
Mof_C 	C 	0.3054	0.9514	0.067	-0.032
Mof_H 	H 	0.3291	0.9862	0.0719	0.04
Mof_C 	C 	0.2567	0.9215	0.0754	-0.066
Mof_H 	H 	0.2485	0.9351	0.0864	0.057
Mof_C 	C 	0.2168	0.8695	0.0681	0.022
Mof_C 	C 	0.1468	0.9387	0.12766	-0.171
Mof_H 	H 	0.1817	0.9611	0.1226	0.093
Mof_C 	C 	0.1267	0.9579	0.14309	0.105
Mof_H 	H 	0.1488	0.993	0.148	0.011
Mof_O 	O 	0.84623	0.87672	0.2302	-0.645
Mof_O 	O 	0.87407	0.84966	0.20368	-0.646
Mof_O 	O 	0.90522	0.99354	0.17262	-0.648
Mof_O 	O 	0.91255	0.00299	0.26399	-0.603
Mof_C 	C 	0.83834	0.84537	0.21605	0.525
Mof_C 	C 	0.78118	0.79767	0.21348	-0.211
Mof_C 	C 	0.77017	0.75986	0.19948	0.137
Mof_H 	H 	0.79857	0.76363	0.19153	0.001
Mof_C 	C 	0.71717	0.71513	0.19661	-0.206
Mof_H 	H 	0.71047	0.68973	0.18693	0.101
Mof_C 	C 	0.67537	0.70953	0.20823	0.15
Mof_C 	C 	0.68577	0.75053	0.22161	-0.201
Mof_H 	H 	0.65687	0.74913	0.22853	0.103
Mof_C 	C 	0.73907	0.79353	0.22469	0.134
Mof_H 	H 	0.74597	0.81933	0.23423	0
Mof_C 	C 	0.62007	0.66533	0.20649	-0.088
Mof_C 	C 	0.57557	0.62573	0.2045	0.035
Mof_C 	C 	0.52297	0.57673	0.20324	-0.041
Mof_C 	C 	0.51387	0.53803	0.1896	0.028
Mof_C 	C 	0.55277	0.54513	0.17528	-0.09
Mof_H 	H 	0.58657	0.57743	0.17553	0.068
Mof_C 	C 	0.54397	0.50873	0.16161	0.018
Mof_C 	C 	0.48207	0.56953	0.21689	0.024
Mof_C 	C 	0.48897	0.61023	0.23147	-0.084
Mof_H 	H 	0.52187	0.64343	0.23173	0.067
Mof_C 	C 	0.45037	0.60203	0.24449	0.012
Mof_C 	C 	0.88617	0.02693	0.29926	0.11
Mof_H 	H 	0.86297	0.99273	0.29383	0.001
Mof_C 	C 	0.87407	0.04323	0.31711	-0.179
Mof_H 	H 	0.84157	0.01923	0.32343	0.098
Mof_C 	C 	0.90217	0.18513	0.3835	0.007
Mof_C 	C 	0.95657	0.21983	0.37643	-0.029
Mof_H 	H 	0.96827	0.20873	0.36563	0.041
Mof_C 	C 	0.98947	0.26573	0.38443	-0.086
Mof_H 	H 	0.02497	0.28673	0.37973	0.068
Mof_C 	C 	0.97207	0.28473	0.40033	0.007
Mof_H 	H 	0.99577	0.31953	0.40523	0.026
Mof_C 	C 	0.92337	0.25483	0.40873	-0.092
Mof_H 	H 	0.91517	0.26843	0.41973	0.067
Mof_C 	C 	0.88347	0.20283	0.40143	0.033
Mof_C 	C 	0.81347	0.27203	0.46099	-0.171
Mof_H 	H 	0.84837	0.29443	0.45593	0.093
Mof_C 	C 	0.79337	0.29123	0.47642	0.104
Mof_H 	H 	0.81547	0.32633	0.48133	0.013
Mof_O 	O 	0.51289	0.21006	0.56354	-0.644
Mof_O 	O 	0.54073	0.183	0.53702	-0.645
Mof_O 	O 	0.57188	0.32688	0.50596	-0.638
Mof_O 	O 	0.57921	0.33633	0.59733	-0.609
Mof_C 	C 	0.505	0.17871	0.54939	0.528
Mof_C 	C 	0.44784	0.13101	0.54682	-0.22
Mof_C 	C 	0.43683	0.0932	0.53282	0.152
Mof_H 	H 	0.46523	0.09697	0.52487	-0.002
Mof_C 	C 	0.38383	0.04847	0.52995	-0.224
Mof_H 	H 	0.37713	0.02307	0.52027	0.113
Mof_C 	C 	0.34203	0.04287	0.54157	0.18
Mof_C 	C 	0.35243	0.08387	0.55495	-0.218
Mof_H 	H 	0.32353	0.08247	0.56187	0.113
Mof_C 	C 	0.40573	0.12687	0.55803	0.148
Mof_H 	H 	0.41263	0.15267	0.56757	-0.003
Mof_C 	C 	0.28673	0.99867	0.53983	-0.113
Mof_C 	C 	0.24223	0.95907	0.53784	0.045
Mof_C 	C 	0.18963	0.91007	0.53658	-0.048
Mof_C 	C 	0.18053	0.87137	0.52294	0.031
Mof_C 	C 	0.21943	0.87847	0.50862	-0.092
Mof_H 	H 	0.25323	0.91077	0.50887	0.067
Mof_C 	C 	0.21063	0.84207	0.49495	0.018
Mof_C 	C 	0.14873	0.90287	0.55023	0.026
Mof_C 	C 	0.15563	0.94357	0.56481	-0.085
Mof_H 	H 	0.18853	0.97677	0.56507	0.065
Mof_C 	C 	0.11703	0.93537	0.57783	0.011
Mof_C 	C 	0.55283	0.36027	0.6326	0.084
Mof_H 	H 	0.52963	0.32607	0.62717	0.02
Mof_C 	C 	0.54073	0.37657	0.65045	-0.168
Mof_H 	H 	0.50823	0.35257	0.65677	0.091
Mof_C 	C 	0.56883	0.51847	0.71684	0.022
Mof_C 	C 	0.62323	0.55317	0.70977	-0.069
Mof_H 	H 	0.63493	0.54207	0.69897	0.057
Mof_C 	C 	0.65613	0.59907	0.71777	-0.024
Mof_H 	H 	0.69163	0.62007	0.71307	0.037
Mof_C 	C 	0.63873	0.61807	0.73367	-0.032
Mof_H 	H 	0.66243	0.65287	0.73857	0.044
Mof_C 	C 	0.59003	0.58817	0.74207	-0.065
Mof_H 	H 	0.58183	0.60177	0.75307	0.058
Mof_C 	C 	0.55013	0.53617	0.73477	0.022
Mof_C 	C 	0.48013	0.60537	0.79433	-0.171
Mof_H 	H 	0.51503	0.62777	0.78927	0.095
Mof_C 	C 	0.46003	0.62457	0.80976	0.105
Mof_H 	H 	0.48213	0.65967	0.81467	0.014
Mof_O 	O 	0.36383	0.82044	0.89687	-0.645
Mof_O 	O 	0.30893	0.7926	0.87035	-0.646
Mof_O 	O 	0.42166	0.76145	0.83929	-0.637
Mof_O 	O 	0.42378	0.75412	0.93066	-0.609
Mof_C 	C 	0.34037	0.82833	0.88272	0.527
Mof_C 	C 	0.34983	0.88549	0.88015	-0.217
Mof_C 	C 	0.32303	0.8965	0.86615	0.14
Mof_H 	H 	0.2984	0.8681	0.8582	0
Mof_C 	C 	0.3313	0.9495	0.86328	-0.206
Mof_H 	H 	0.3126	0.9562	0.8536	0.099
Mof_C 	C 	0.3675	0.9913	0.8749	0.144
Mof_C 	C 	0.3981	0.9809	0.88828	-0.228
Mof_H 	H 	0.4256	0.0098	0.8952	0.121
Mof_C 	C 	0.3878	0.9276	0.89136	0.148
Mof_H 	H 	0.4067	0.9207	0.9009	-0.006
Mof_C 	C 	0.3786	0.0466	0.87316	-0.074
Mof_C 	C 	0.3835	0.0911	0.87117	0.03
Mof_C 	C 	0.3871	0.1437	0.86991	-0.038
Mof_C 	C 	0.3575	0.1528	0.85627	0.028
Mof_C 	C 	0.3257	0.1139	0.84195	-0.091
Mof_H 	H 	0.3242	0.0801	0.8422	0.071
Mof_C 	C 	0.2981	0.1227	0.82828	0.02
Mof_C 	C 	0.4208	0.1846	0.88356	0.023
Mof_C 	C 	0.4546	0.1777	0.89814	-0.084
Mof_H 	H 	0.4549	0.1448	0.8984	0.067
Mof_C 	C 	0.485	0.2163	0.91116	0.013
Mof_C 	C 	0.4741	0.7805	0.96593	0.083
Mof_H 	H 	0.4631	0.8037	0.9605	0.019
Mof_C 	C 	0.5025	0.7926	0.98378	-0.168
Mof_H 	H 	0.511	0.8251	0.9901	0.09
Mof_C 	C 	0.6163	0.7645	0.05017	0.022
Mof_C 	C 	0.5966	0.7101	0.0431	-0.069
Mof_H 	H 	0.5738	0.6984	0.0323	0.057
Mof_C 	C 	0.6096	0.6772	0.0511	-0.025
Mof_H 	H 	0.5951	0.6417	0.0464	0.037
Mof_C 	C 	0.646	0.6946	0.067	-0.032
Mof_H 	H 	0.6571	0.6709	0.0719	0.043
Mof_C 	C 	0.6648	0.7433	0.0754	-0.066
Mof_H 	H 	0.6866	0.7515	0.0864	0.058
Mof_C 	C 	0.6527	0.7832	0.0681	0.022
Mof_C 	C 	0.7919	0.8532	0.12766	-0.173
Mof_H 	H 	0.7794	0.8183	0.1226	0.094
Mof_C 	C 	0.8312	0.8733	0.14309	0.106
Mof_H 	H 	0.8442	0.8512	0.148	0.012
Mof_O 	O 	0.0305	0.15377	0.2302	-0.643
Mof_O 	O 	0.9756	0.12593	0.20368	-0.657
Mof_O 	O 	0.08833	0.09478	0.17262	-0.634
Mof_O 	O 	0.09045	0.08745	0.26399	-0.607
Mof_C 	C 	0.00704	0.16166	0.21605	0.537
Mof_C 	C 	0.0165	0.21882	0.21348	-0.201
Mof_C 	C 	0.9897	0.22983	0.19948	0.127
Mof_H 	H 	0.96507	0.20143	0.19153	0.003
Mof_C 	C 	0.99797	0.28283	0.19661	-0.224
Mof_H 	H 	0.97927	0.28953	0.18693	0.105
Mof_C 	C 	0.03417	0.32463	0.20823	0.169
Mof_C 	C 	0.06477	0.31423	0.22161	-0.207
Mof_H 	H 	0.09227	0.34313	0.22853	0.105
Mof_C 	C 	0.05447	0.26093	0.22469	0.136
Mof_H 	H 	0.07337	0.25403	0.23423	0.001
Mof_C 	C 	0.04527	0.37993	0.20649	-0.093
Mof_C 	C 	0.05017	0.42443	0.2045	0.044
Mof_C 	C 	0.05377	0.47703	0.20324	-0.046
Mof_C 	C 	0.02417	0.48613	0.1896	0.041
Mof_C 	C 	0.99237	0.44723	0.17528	-0.107
Mof_H 	H 	0.99087	0.41343	0.17553	0.07
Mof_C 	C 	0.96477	0.45603	0.16161	0.02
Mof_C 	C 	0.08747	0.51793	0.21689	0.026
Mof_C 	C 	0.12127	0.51103	0.23147	-0.085
Mof_H 	H 	0.12157	0.47813	0.23173	0.067
Mof_C 	C 	0.15167	0.54963	0.24449	0.013
Mof_C 	C 	0.14077	0.11383	0.29926	0.103
Mof_H 	H 	0.12977	0.13703	0.29383	0.015
Mof_C 	C 	0.16917	0.12593	0.31711	-0.186
Mof_H 	H 	0.17767	0.15843	0.32343	0.098
Mof_C 	C 	0.28297	0.09783	0.3835	0.053
Mof_C 	C 	0.26327	0.04343	0.37643	-0.126
Mof_H 	H 	0.24047	0.03173	0.36563	0.08
Mof_C 	C 	0.27627	0.01053	0.38443	0.058
Mof_H 	H 	0.26177	0.97503	0.37973	-0.001
Mof_C 	C 	0.31267	0.02793	0.40033	-0.088
Mof_H 	H 	0.32377	0.00423	0.40523	0.068
Mof_C 	C 	0.33147	0.07663	0.40873	-0.024
Mof_H 	H 	0.35327	0.08483	0.41973	0.045
Mof_C 	C 	0.31937	0.11653	0.40143	-0.003
Mof_C 	C 	0.45857	0.18653	0.46099	-0.169
Mof_H 	H 	0.44607	0.15163	0.45593	0.095
Mof_C 	C 	0.49787	0.20663	0.47642	0.104
Mof_H 	H 	0.51087	0.18453	0.48133	0.015
Mof_O 	O 	0.69716	0.48711	0.56354	-0.644
Mof_O 	O 	0.64226	0.45927	0.53702	-0.645
Mof_O 	O 	0.75499	0.42812	0.50596	-0.638
Mof_O 	O 	0.75711	0.42079	0.59733	-0.609
Mof_C 	C 	0.6737	0.495	0.54939	0.525
Mof_C 	C 	0.68316	0.55216	0.54682	-0.21
Mof_C 	C 	0.65636	0.56317	0.53282	0.136
Mof_H 	H 	0.63173	0.53477	0.52487	0.002
Mof_C 	C 	0.66463	0.61617	0.52995	-0.205
Mof_H 	H 	0.64593	0.62287	0.52027	0.101
Mof_C 	C 	0.70083	0.65797	0.54157	0.149
Mof_C 	C 	0.73143	0.64757	0.55495	-0.2
Mof_H 	H 	0.75893	0.67647	0.56187	0.102
Mof_C 	C 	0.72113	0.59427	0.55803	0.133
Mof_H 	H 	0.74003	0.58737	0.56757	0.001
Mof_C 	C 	0.71193	0.71327	0.53983	-0.088
Mof_C 	C 	0.71683	0.75777	0.53784	0.034
Mof_C 	C 	0.72043	0.81037	0.53658	-0.041
Mof_C 	C 	0.69083	0.81947	0.52294	0.026
Mof_C 	C 	0.65903	0.78057	0.50862	-0.09
Mof_H 	H 	0.65753	0.74677	0.50887	0.068
Mof_C 	C 	0.63143	0.78937	0.49495	0.018
Mof_C 	C 	0.75413	0.85127	0.55023	0.022
Mof_C 	C 	0.78793	0.84437	0.56481	-0.084
Mof_H 	H 	0.78823	0.81147	0.56507	0.066
Mof_C 	C 	0.81833	0.88297	0.57783	0.01
Mof_C 	C 	0.80743	0.44717	0.6326	0.083
Mof_H 	H 	0.79643	0.47037	0.62717	0.019
Mof_C 	C 	0.83583	0.45927	0.65045	-0.168
Mof_H 	H 	0.84433	0.49177	0.65677	0.09
Mof_C 	C 	0.94963	0.43117	0.71684	0.019
Mof_C 	C 	0.92993	0.37677	0.70977	-0.058
Mof_H 	H 	0.90713	0.36507	0.69897	0.053
Mof_C 	C 	0.94293	0.34387	0.71777	-0.042
Mof_H 	H 	0.92843	0.30837	0.71307	0.042
Mof_C 	C 	0.97933	0.36127	0.73367	-0.009
Mof_H 	H 	0.99043	0.33757	0.73857	0.032
Mof_C 	C 	0.99813	0.40997	0.74207	-0.098
Mof_H 	H 	0.01993	0.41817	0.75307	0.08
Mof_C 	C 	0.98603	0.44987	0.73477	0.015
Mof_C 	C 	0.12523	0.51987	0.79433	-0.169
Mof_H 	H 	0.11273	0.48497	0.78927	0.096
Mof_C 	C 	0.16453	0.53997	0.80976	0.104
Mof_H 	H 	0.17753	0.51787	0.81467	0.015
Mof_O 	O 	0.45661	0.63617	0.89687	-0.644
Mof_O 	O 	0.48367	0.69107	0.87035	-0.645
Mof_O 	O 	0.33979	0.57834	0.83929	-0.637
Mof_O 	O 	0.33034	0.57622	0.93066	-0.609
Mof_C 	C 	0.48796	0.65963	0.88272	0.524
Mof_C 	C 	0.53566	0.65017	0.88015	-0.211
Mof_C 	C 	0.57347	0.67697	0.86615	0.136
Mof_H 	H 	0.5697	0.7016	0.8582	0.002
Mof_C 	C 	0.6182	0.6687	0.86328	-0.206
Mof_H 	H 	0.6436	0.6874	0.8536	0.101
Mof_C 	C 	0.6238	0.6325	0.8749	0.15
Mof_C 	C 	0.5828	0.6019	0.88828	-0.201
Mof_H 	H 	0.5842	0.5744	0.8952	0.103
Mof_C 	C 	0.5398	0.6122	0.89136	0.133
Mof_H 	H 	0.514	0.5933	0.9009	0.001
Mof_C 	C 	0.668	0.6214	0.87316	-0.088
Mof_C 	C 	0.7076	0.6165	0.87117	0.035
Mof_C 	C 	0.7566	0.6129	0.86991	-0.041
Mof_C 	C 	0.7953	0.6425	0.85627	0.028
Mof_C 	C 	0.7882	0.6743	0.84195	-0.09
Mof_H 	H 	0.7559	0.6758	0.8422	0.068
Mof_C 	C 	0.8246	0.7019	0.82828	0.019
Mof_C 	C 	0.7638	0.5792	0.88356	0.024
Mof_C 	C 	0.7231	0.5454	0.89814	-0.084
Mof_H 	H 	0.6899	0.5451	0.8984	0.067
Mof_C 	C 	0.7313	0.515	0.91116	0.012
Mof_C 	C 	0.3064	0.5259	0.96593	0.084
Mof_H 	H 	0.3406	0.5369	0.9605	0.02
Mof_C 	C 	0.2901	0.4975	0.98378	-0.168
Mof_H 	H 	0.3141	0.489	0.9901	0.091
Mof_C 	C 	0.1482	0.3837	0.05017	0.023
Mof_C 	C 	0.1135	0.4034	0.0431	-0.069
Mof_H 	H 	0.1246	0.4262	0.0323	0.058
Mof_C 	C 	0.0676	0.3904	0.0511	-0.022
Mof_H 	H 	0.0466	0.4049	0.0464	0.039
Mof_C 	C 	0.0486	0.354	0.067	-0.032
Mof_H 	H 	0.0138	0.3429	0.0719	0.048
Mof_C 	C 	0.0785	0.3352	0.0754	-0.064
Mof_H 	H 	0.0649	0.3134	0.0864	0.06
Mof_C 	C 	0.1305	0.3473	0.0681	0.022
Mof_C 	C 	0.0613	0.2081	0.12766	-0.168
Mof_H 	H 	0.0389	0.2206	0.1226	0.097
Mof_C 	C 	0.0421	0.1688	0.14309	0.104
Mof_H 	H 	0.007	0.1558	0.148	0.019
Mof_O 	O 	0.12328	0.9695	0.2302	-0.644
Mof_O 	O 	0.15034	0.0244	0.20368	-0.63
Mof_O 	O 	0.00646	0.91167	0.17262	-0.634
Mof_O 	O 	0.99701	0.90955	0.26399	-0.618
Mof_C 	C 	0.15463	0.99296	0.21605	0.51
Mof_C 	C 	0.20233	0.9835	0.21348	-0.22
Mof_C 	C 	0.24014	0.0103	0.19948	0.147
Mof_H 	H 	0.23637	0.03493	0.19153	0.002
Mof_C 	C 	0.28487	0.00203	0.19661	-0.184
Mof_H 	H 	0.31027	0.02073	0.18693	0.098
Mof_C 	C 	0.29047	0.96583	0.20823	0.128
Mof_C 	C 	0.24947	0.93523	0.22161	-0.193
Mof_H 	H 	0.25087	0.90773	0.22853	0.1
Mof_C 	C 	0.20647	0.94553	0.22469	0.13
Mof_H 	H 	0.18067	0.92663	0.23423	0.001
Mof_C 	C 	0.33467	0.95473	0.20649	-0.082
Mof_C 	C 	0.37427	0.94983	0.2045	0.024
Mof_C 	C 	0.42327	0.94623	0.20324	-0.036
Mof_C 	C 	0.46197	0.97583	0.1896	0.013
Mof_C 	C 	0.45487	0.00763	0.17528	-0.071
Mof_H 	H 	0.42257	0.00913	0.17553	0.066
Mof_C 	C 	0.49127	0.03523	0.16161	0.016
Mof_C 	C 	0.43047	0.91253	0.21689	0.021
Mof_C 	C 	0.38977	0.87873	0.23147	-0.084
Mof_H 	H 	0.35657	0.87843	0.23173	0.067
Mof_C 	C 	0.39797	0.84833	0.24449	0.012
Mof_C 	C 	0.97307	0.85923	0.29926	0.046
Mof_H 	H 	0.00727	0.87023	0.29383	0.04
Mof_C 	C 	0.95677	0.83083	0.31711	-0.146
Mof_H 	H 	0.98077	0.82233	0.32343	0.079
Mof_C 	C 	0.81487	0.71703	0.3835	0.011
Mof_C 	C 	0.78017	0.73673	0.37643	-0.058
Mof_H 	H 	0.79127	0.75953	0.36563	0.052
Mof_C 	C 	0.73427	0.72373	0.38443	-0.035
Mof_H 	H 	0.71327	0.73823	0.37973	0.04
Mof_C 	C 	0.71527	0.68733	0.40033	-0.023
Mof_H 	H 	0.68047	0.67623	0.40523	0.04
Mof_C 	C 	0.74517	0.66853	0.40873	-0.075
Mof_H 	H 	0.73157	0.64673	0.41973	0.062
Mof_C 	C 	0.79717	0.68063	0.40143	0.032
Mof_C 	C 	0.72797	0.54143	0.46099	-0.172
Mof_H 	H 	0.70557	0.55393	0.45593	0.095
Mof_C 	C 	0.70877	0.50213	0.47642	0.106
Mof_H 	H 	0.67367	0.48913	0.48133	0.014
Mof_O 	O 	0.78994	0.30284	0.56354	-0.643
Mof_O 	O 	0.817	0.35774	0.53702	-0.645
Mof_O 	O 	0.67312	0.24501	0.50596	-0.637
Mof_O 	O 	0.66367	0.24289	0.59733	-0.609
Mof_C 	C 	0.82129	0.3263	0.54939	0.521
Mof_C 	C 	0.86899	0.31684	0.54682	-0.2
Mof_C 	C 	0.9068	0.34364	0.53282	0.121
Mof_H 	H 	0.90303	0.36827	0.52487	0.006
Mof_C 	C 	0.95153	0.33537	0.52995	-0.186
Mof_H 	H 	0.97693	0.35407	0.52027	0.09
Mof_C 	C 	0.95713	0.29917	0.54157	0.12
Mof_C 	C 	0.91613	0.26857	0.55495	-0.182
Mof_H 	H 	0.91753	0.24107	0.56187	0.093
Mof_C 	C 	0.87313	0.27887	0.55803	0.119
Mof_H 	H 	0.84733	0.25997	0.56757	0.006
Mof_C 	C 	0.00133	0.28807	0.53983	-0.061
Mof_C 	C 	0.04093	0.28317	0.53784	0.025
Mof_C 	C 	0.08993	0.27957	0.53658	-0.034
Mof_C 	C 	0.12863	0.30917	0.52294	0.026
Mof_C 	C 	0.12153	0.34097	0.50862	-0.089
Mof_H 	H 	0.08923	0.34247	0.50887	0.069
Mof_C 	C 	0.15793	0.36857	0.49495	0.019
Mof_C 	C 	0.09713	0.24587	0.55023	0.023
Mof_C 	C 	0.05643	0.21207	0.56481	-0.084
Mof_H 	H 	0.02323	0.21177	0.56507	0.07
Mof_C 	C 	0.06463	0.18167	0.57783	0.017
Mof_C 	C 	0.63973	0.19257	0.6326	0.084
Mof_H 	H 	0.67393	0.20357	0.62717	0.02
Mof_C 	C 	0.62343	0.16417	0.65045	-0.168
Mof_H 	H 	0.64743	0.15567	0.65677	0.092
Mof_C 	C 	0.48153	0.05037	0.71684	0.025
Mof_C 	C 	0.44683	0.07007	0.70977	-0.078
Mof_H 	H 	0.45793	0.09287	0.69897	0.061
Mof_C 	C 	0.40093	0.05707	0.71777	-0.009
Mof_H 	H 	0.37993	0.07157	0.71307	0.033
Mof_C 	C 	0.38193	0.02067	0.73367	-0.052
Mof_H 	H 	0.34713	0.00957	0.73857	0.054
Mof_C 	C 	0.41183	0.00187	0.74207	-0.036
Mof_H 	H 	0.39823	0.98007	0.75307	0.04
Mof_C 	C 	0.46383	0.01397	0.73477	0.028
Mof_C 	C 	0.39463	0.87477	0.79433	-0.172
Mof_H 	H 	0.37223	0.88727	0.78927	0.094
Mof_C 	C 	0.37543	0.83547	0.80976	0.105
Mof_H 	H 	0.34033	0.82247	0.81467	0.014
Mof_O 	O 	0.45661	0.82044	0.89687	-0.645
Mof_O 	O 	0.48367	0.7926	0.87035	-0.646
Mof_O 	O 	0.33979	0.76145	0.83929	-0.637
Mof_O 	O 	0.33034	0.75412	0.93066	-0.609
Mof_C 	C 	0.48796	0.82833	0.88272	0.527
Mof_C 	C 	0.53566	0.88549	0.88015	-0.218
Mof_C 	C 	0.57347	0.8965	0.86615	0.14
Mof_H 	H 	0.5697	0.8681	0.8582	0
Mof_C 	C 	0.6182	0.9495	0.86328	-0.207
Mof_H 	H 	0.6436	0.9562	0.8536	0.099
Mof_C 	C 	0.6238	0.9913	0.8749	0.145
Mof_C 	C 	0.5828	0.9809	0.88828	-0.228
Mof_H 	H 	0.5842	0.0098	0.8952	0.12
Mof_C 	C 	0.5398	0.9276	0.89136	0.148
Mof_H 	H 	0.514	0.9207	0.9009	-0.006
Mof_C 	C 	0.668	0.0466	0.87316	-0.075
Mof_C 	C 	0.7076	0.0911	0.87117	0.03
Mof_C 	C 	0.7566	0.1437	0.86991	-0.038
Mof_C 	C 	0.7953	0.1528	0.85627	0.028
Mof_C 	C 	0.7882	0.1139	0.84195	-0.091
Mof_H 	H 	0.7559	0.0801	0.8422	0.07
Mof_C 	C 	0.8246	0.1227	0.82828	0.021
Mof_C 	C 	0.7638	0.1846	0.88356	0.023
Mof_C 	C 	0.7231	0.1777	0.89814	-0.084
Mof_H 	H 	0.6899	0.1448	0.8984	0.067
Mof_C 	C 	0.7313	0.2163	0.91116	0.013
Mof_C 	C 	0.3064	0.7805	0.96593	0.083
Mof_H 	H 	0.3406	0.8037	0.9605	0.019
Mof_C 	C 	0.2901	0.7926	0.98378	-0.168
Mof_H 	H 	0.3141	0.8251	0.9901	0.09
Mof_C 	C 	0.1482	0.7645	0.05017	0.023
Mof_C 	C 	0.1135	0.7101	0.0431	-0.069
Mof_H 	H 	0.1246	0.6984	0.0323	0.058
Mof_C 	C 	0.0676	0.6772	0.0511	-0.023
Mof_H 	H 	0.0466	0.6417	0.0464	0.039
Mof_C 	C 	0.0486	0.6946	0.067	-0.032
Mof_H 	H 	0.0138	0.6709	0.0719	0.047
Mof_C 	C 	0.0785	0.7433	0.0754	-0.064
Mof_H 	H 	0.0649	0.7515	0.0864	0.06
Mof_C 	C 	0.1305	0.7832	0.0681	0.022
Mof_C 	C 	0.0613	0.8532	0.12766	-0.17
Mof_H 	H 	0.0389	0.8183	0.1226	0.096
Mof_C 	C 	0.0421	0.8733	0.14309	0.105
Mof_H 	H 	0.007	0.8512	0.148	0.017
Mof_O 	O 	0.12328	0.15377	0.2302	-0.643
Mof_O 	O 	0.15034	0.12593	0.20368	-0.644
Mof_O 	O 	0.00646	0.09478	0.17262	-0.629
Mof_O 	O 	0.99701	0.08745	0.26399	-0.616
Mof_C 	C 	0.15463	0.16166	0.21605	0.524
Mof_C 	C 	0.20233	0.21882	0.21348	-0.21
Mof_C 	C 	0.24014	0.22983	0.19948	0.136
Mof_H 	H 	0.23637	0.20143	0.19153	0.003
Mof_C 	C 	0.28487	0.28283	0.19661	-0.205
Mof_H 	H 	0.31027	0.28953	0.18693	0.101
Mof_C 	C 	0.29047	0.32463	0.20823	0.15
Mof_C 	C 	0.24947	0.31423	0.22161	-0.2
Mof_H 	H 	0.25087	0.34313	0.22853	0.103
Mof_C 	C 	0.20647	0.26093	0.22469	0.133
Mof_H 	H 	0.18067	0.25403	0.23423	0.002
Mof_C 	C 	0.33467	0.37993	0.20649	-0.088
Mof_C 	C 	0.37427	0.42443	0.2045	0.035
Mof_C 	C 	0.42327	0.47703	0.20324	-0.041
Mof_C 	C 	0.46197	0.48613	0.1896	0.028
Mof_C 	C 	0.45487	0.44723	0.17528	-0.09
Mof_H 	H 	0.42257	0.41343	0.17553	0.068
Mof_C 	C 	0.49127	0.45603	0.16161	0.018
Mof_C 	C 	0.43047	0.51793	0.21689	0.024
Mof_C 	C 	0.38977	0.51103	0.23147	-0.084
Mof_H 	H 	0.35657	0.47813	0.23173	0.067
Mof_C 	C 	0.39797	0.54963	0.24449	0.013
Mof_C 	C 	0.97307	0.11383	0.29926	0.06
Mof_H 	H 	0.00727	0.13703	0.29383	0.038
Mof_C 	C 	0.95677	0.12593	0.31711	-0.159
Mof_H 	H 	0.98077	0.15843	0.32343	0.085
Mof_C 	C 	0.81487	0.09783	0.3835	0.039
Mof_C 	C 	0.78017	0.04343	0.37643	-0.112
Mof_H 	H 	0.79127	0.03173	0.36563	0.074
Mof_C 	C 	0.73427	0.01053	0.38443	0.042
Mof_H 	H 	0.71327	0.97503	0.37973	0.004
Mof_C 	C 	0.71527	0.02793	0.40033	-0.075
Mof_H 	H 	0.68047	0.00423	0.40523	0.063
Mof_C 	C 	0.74517	0.07663	0.40873	-0.036
Mof_H 	H 	0.73157	0.08483	0.41973	0.05
Mof_C 	C 	0.79717	0.11653	0.40143	0.009
Mof_C 	C 	0.72797	0.18653	0.46099	-0.17
Mof_H 	H 	0.70557	0.15163	0.45593	0.096
Mof_C 	C 	0.70877	0.20663	0.47642	0.105
Mof_H 	H 	0.67367	0.18453	0.48133	0.015
Mof_O 	O 	0.78994	0.48711	0.56354	-0.643
Mof_O 	O 	0.817	0.45927	0.53702	-0.645
Mof_O 	O 	0.67312	0.42812	0.50596	-0.638
Mof_O 	O 	0.66367	0.42079	0.59733	-0.609
Mof_C 	C 	0.82129	0.495	0.54939	0.521
Mof_C 	C 	0.86899	0.55216	0.54682	-0.201
Mof_C 	C 	0.9068	0.56317	0.53282	0.122
Mof_H 	H 	0.90303	0.53477	0.52487	0.005
Mof_C 	C 	0.95153	0.61617	0.52995	-0.187
Mof_H 	H 	0.97693	0.62287	0.52027	0.091
Mof_C 	C 	0.95713	0.65797	0.54157	0.121
Mof_C 	C 	0.91613	0.64757	0.55495	-0.183
Mof_H 	H 	0.91753	0.67647	0.56187	0.093
Mof_C 	C 	0.87313	0.59427	0.55803	0.119
Mof_H 	H 	0.84733	0.58737	0.56757	0.005
Mof_C 	C 	0.00133	0.71327	0.53983	-0.063
Mof_C 	C 	0.04093	0.75777	0.53784	0.024
Mof_C 	C 	0.08993	0.81037	0.53658	-0.034
Mof_C 	C 	0.12863	0.81947	0.52294	0.025
Mof_C 	C 	0.12153	0.78057	0.50862	-0.088
Mof_H 	H 	0.08923	0.74677	0.50887	0.069
Mof_C 	C 	0.15793	0.78937	0.49495	0.018
Mof_C 	C 	0.09713	0.85127	0.55023	0.022
Mof_C 	C 	0.05643	0.84437	0.56481	-0.084
Mof_H 	H 	0.02323	0.81147	0.56507	0.069
Mof_C 	C 	0.06463	0.88297	0.57783	0.014
Mof_C 	C 	0.63973	0.44717	0.6326	0.084
Mof_H 	H 	0.67393	0.47037	0.62717	0.02
Mof_C 	C 	0.62343	0.45927	0.65045	-0.168
Mof_H 	H 	0.64743	0.49177	0.65677	0.091
Mof_C 	C 	0.48153	0.43117	0.71684	0.022
Mof_C 	C 	0.44683	0.37677	0.70977	-0.069
Mof_H 	H 	0.45793	0.36507	0.69897	0.057
Mof_C 	C 	0.40093	0.34387	0.71777	-0.024
Mof_H 	H 	0.37993	0.30837	0.71307	0.038
Mof_C 	C 	0.38193	0.36127	0.73367	-0.032
Mof_H 	H 	0.34713	0.33757	0.73857	0.044
Mof_C 	C 	0.41183	0.40997	0.74207	-0.065
Mof_H 	H 	0.39823	0.41817	0.75307	0.059
Mof_C 	C 	0.46383	0.44987	0.73477	0.022
Mof_C 	C 	0.39463	0.51987	0.79433	-0.171
Mof_H 	H 	0.37223	0.48497	0.78927	0.095
Mof_C 	C 	0.37543	0.53997	0.80976	0.105
Mof_H 	H 	0.34033	0.51787	0.81467	0.014
Mof_O 	O 	0.17956	0.63617	0.89687	-0.642
Mof_O 	O 	0.2074	0.69107	0.87035	-0.644
Mof_O 	O 	0.23855	0.57834	0.83929	-0.637
Mof_O 	O 	0.24588	0.57622	0.93066	-0.609
Mof_C 	C 	0.17167	0.65963	0.88272	0.522
Mof_C 	C 	0.11451	0.65017	0.88015	-0.203
Mof_C 	C 	0.1035	0.67697	0.86615	0.133
Mof_H 	H 	0.1319	0.7016	0.8582	0.003
Mof_C 	C 	0.0505	0.6687	0.86328	-0.205
Mof_H 	H 	0.0438	0.6874	0.8536	0.104
Mof_C 	C 	0.0087	0.6325	0.8749	0.156
Mof_C 	C 	0.0191	0.6019	0.88828	-0.171
Mof_H 	H 	0.9902	0.5744	0.8952	0.084
Mof_C 	C 	0.0724	0.6122	0.89136	0.118
Mof_H 	H 	0.0793	0.5933	0.9009	0.009
Mof_C 	C 	0.9534	0.6214	0.87316	-0.102
Mof_C 	C 	0.9089	0.6165	0.87117	0.04
Mof_C 	C 	0.8563	0.6129	0.86991	-0.044
Mof_C 	C 	0.8472	0.6425	0.85627	0.028
Mof_C 	C 	0.8861	0.6743	0.84195	-0.089
Mof_H 	H 	0.9199	0.6758	0.8422	0.065
Mof_C 	C 	0.8773	0.7019	0.82828	0.016
Mof_C 	C 	0.8154	0.5792	0.88356	0.025
Mof_C 	C 	0.8223	0.5454	0.89814	-0.085
Mof_H 	H 	0.8552	0.5451	0.8984	0.066
Mof_C 	C 	0.7837	0.515	0.91116	0.012
Mof_C 	C 	0.2195	0.5259	0.96593	0.084
Mof_H 	H 	0.1963	0.5369	0.9605	0.021
Mof_C 	C 	0.2074	0.4975	0.98378	-0.168
Mof_H 	H 	0.1749	0.489	0.9901	0.092
Mof_C 	C 	0.2355	0.3837	0.05017	0.023
Mof_C 	C 	0.2899	0.4034	0.0431	-0.069
Mof_H 	H 	0.3016	0.4262	0.0323	0.057
Mof_C 	C 	0.3228	0.3904	0.0511	-0.024
Mof_H 	H 	0.3583	0.4049	0.0464	0.037
Mof_C 	C 	0.3054	0.354	0.067	-0.032
Mof_H 	H 	0.3291	0.3429	0.0719	0.044
Mof_C 	C 	0.2567	0.3352	0.0754	-0.064
Mof_H 	H 	0.2485	0.3134	0.0864	0.059
Mof_C 	C 	0.2168	0.3473	0.0681	0.022
Mof_C 	C 	0.1468	0.2081	0.12766	-0.168
Mof_H 	H 	0.1817	0.2206	0.1226	0.095
Mof_C 	C 	0.1267	0.1688	0.14309	0.104
Mof_H 	H 	0.1488	0.1558	0.148	0.016
Mof_O 	O 	0.84623	0.9695	0.2302	-0.645
Mof_O 	O 	0.87407	0.0244	0.20368	-0.632
Mof_O 	O 	0.90522	0.91167	0.17262	-0.643
Mof_O 	O 	0.91255	0.90955	0.26399	-0.613
Mof_C 	C 	0.83834	0.99296	0.21605	0.512
Mof_C 	C 	0.78118	0.9835	0.21348	-0.22
Mof_C 	C 	0.77017	0.0103	0.19948	0.147
Mof_H 	H 	0.79857	0.03493	0.19153	0.001
Mof_C 	C 	0.71717	0.00203	0.19661	-0.185
Mof_H 	H 	0.71047	0.02073	0.18693	0.098
Mof_C 	C 	0.67537	0.96583	0.20823	0.129
Mof_C 	C 	0.68577	0.93523	0.22161	-0.194
Mof_H 	H 	0.65687	0.90773	0.22853	0.1
Mof_C 	C 	0.73907	0.94553	0.22469	0.131
Mof_H 	H 	0.74597	0.92663	0.23423	0.001
Mof_C 	C 	0.62007	0.95473	0.20649	-0.082
Mof_C 	C 	0.57557	0.94983	0.2045	0.025
Mof_C 	C 	0.52297	0.94623	0.20324	-0.036
Mof_C 	C 	0.51387	0.97583	0.1896	0.013
Mof_C 	C 	0.55277	0.00763	0.17528	-0.071
Mof_H 	H 	0.58657	0.00913	0.17553	0.066
Mof_C 	C 	0.54397	0.03523	0.16161	0.016
Mof_C 	C 	0.48207	0.91253	0.21689	0.021
Mof_C 	C 	0.48897	0.87873	0.23147	-0.084
Mof_H 	H 	0.52187	0.87843	0.23173	0.067
Mof_C 	C 	0.45037	0.84833	0.24449	0.012
Mof_C 	C 	0.88617	0.85923	0.29926	0.068
Mof_H 	H 	0.86297	0.87023	0.29383	0.024
Mof_C 	C 	0.87407	0.83083	0.31711	-0.154
Mof_H 	H 	0.84157	0.82233	0.32343	0.085
Mof_C 	C 	0.90217	0.71703	0.3835	-0.004
Mof_C 	C 	0.95657	0.73673	0.37643	-0.021
Mof_H 	H 	0.96827	0.75953	0.36563	0.037
Mof_C 	C 	0.98947	0.72373	0.38443	-0.094
Mof_H 	H 	0.02497	0.73823	0.37973	0.069
Mof_C 	C 	0.97207	0.68733	0.40033	0.015
Mof_H 	H 	0.99577	0.67623	0.40523	0.024
Mof_C 	C 	0.92337	0.66853	0.40873	-0.1
Mof_H 	H 	0.91517	0.64673	0.41973	0.07
Mof_C 	C 	0.88347	0.68063	0.40143	0.043
Mof_C 	C 	0.81347	0.54143	0.46099	-0.172
Mof_H 	H 	0.84837	0.55393	0.45593	0.094
Mof_C 	C 	0.79337	0.50213	0.47642	0.105
Mof_H 	H 	0.81547	0.48913	0.48133	0.013
Mof_O 	O 	0.51289	0.30284	0.56354	-0.643
Mof_O 	O 	0.54073	0.35774	0.53702	-0.645
Mof_O 	O 	0.57188	0.24501	0.50596	-0.637
Mof_O 	O 	0.57921	0.24289	0.59733	-0.609
Mof_C 	C 	0.505	0.3263	0.54939	0.525
Mof_C 	C 	0.44784	0.31684	0.54682	-0.211
Mof_C 	C 	0.43683	0.34364	0.53282	0.137
Mof_H 	H 	0.46523	0.36827	0.52487	0.002
Mof_C 	C 	0.38383	0.33537	0.52995	-0.206
Mof_H 	H 	0.37713	0.35407	0.52027	0.102
Mof_C 	C 	0.34203	0.29917	0.54157	0.15
Mof_C 	C 	0.35243	0.26857	0.55495	-0.201
Mof_H 	H 	0.32353	0.24107	0.56187	0.104
Mof_C 	C 	0.40573	0.27887	0.55803	0.134
Mof_H 	H 	0.41263	0.25997	0.56757	0.001
Mof_C 	C 	0.28673	0.28807	0.53983	-0.088
Mof_C 	C 	0.24223	0.28317	0.53784	0.036
Mof_C 	C 	0.18963	0.27957	0.53658	-0.042
Mof_C 	C 	0.18053	0.30917	0.52294	0.029
Mof_C 	C 	0.21943	0.34097	0.50862	-0.09
Mof_H 	H 	0.25323	0.34247	0.50887	0.068
Mof_C 	C 	0.21063	0.36857	0.49495	0.019
Mof_C 	C 	0.14873	0.24587	0.55023	0.025
Mof_C 	C 	0.15563	0.21207	0.56481	-0.085
Mof_H 	H 	0.18853	0.21177	0.56507	0.068
Mof_C 	C 	0.11703	0.18167	0.57783	0.015
Mof_C 	C 	0.55283	0.19257	0.6326	0.084
Mof_H 	H 	0.52963	0.20357	0.62717	0.02
Mof_C 	C 	0.54073	0.16417	0.65045	-0.168
Mof_H 	H 	0.50823	0.15567	0.65677	0.092
Mof_C 	C 	0.56883	0.05037	0.71684	0.025
Mof_C 	C 	0.62323	0.07007	0.70977	-0.078
Mof_H 	H 	0.63493	0.09287	0.69897	0.061
Mof_C 	C 	0.65613	0.05707	0.71777	-0.01
Mof_H 	H 	0.69163	0.07157	0.71307	0.033
Mof_C 	C 	0.63873	0.02067	0.73367	-0.051
Mof_H 	H 	0.66243	0.00957	0.73857	0.053
Mof_C 	C 	0.59003	0.00187	0.74207	-0.038
Mof_H 	H 	0.58183	0.98007	0.75307	0.041
Mof_C 	C 	0.55013	0.01397	0.73477	0.029
Mof_C 	C 	0.48013	0.87477	0.79433	-0.172
Mof_H 	H 	0.51503	0.88727	0.78927	0.094
Mof_C 	C 	0.46003	0.83547	0.80976	0.105
Mof_H 	H 	0.48213	0.82247	0.81467	0.014
Mof_O 	O 	0.36383	0.54339	0.89687	-0.643
Mof_O 	O 	0.30893	0.51633	0.87035	-0.645
Mof_O 	O 	0.42166	0.66021	0.83929	-0.637
Mof_O 	O 	0.42378	0.66966	0.93066	-0.609
Mof_C 	C 	0.34037	0.51204	0.88272	0.525
Mof_C 	C 	0.34983	0.46434	0.88015	-0.21
Mof_C 	C 	0.32303	0.42653	0.86615	0.137
Mof_H 	H 	0.2984	0.4303	0.8582	0.002
Mof_C 	C 	0.3313	0.3818	0.86328	-0.205
Mof_H 	H 	0.3126	0.3564	0.8536	0.102
Mof_C 	C 	0.3675	0.3762	0.8749	0.15
Mof_C 	C 	0.3981	0.4172	0.88828	-0.2
Mof_H 	H 	0.4256	0.4158	0.8952	0.103
Mof_C 	C 	0.3878	0.4602	0.89136	0.134
Mof_H 	H 	0.4067	0.486	0.9009	0.001
Mof_C 	C 	0.3786	0.332	0.87316	-0.088
Mof_C 	C 	0.3835	0.2924	0.87117	0.035
Mof_C 	C 	0.3871	0.2434	0.86991	-0.041
Mof_C 	C 	0.3575	0.2047	0.85627	0.028
Mof_C 	C 	0.3257	0.2118	0.84195	-0.09
Mof_H 	H 	0.3242	0.2441	0.8422	0.068
Mof_C 	C 	0.2981	0.1754	0.82828	0.018
Mof_C 	C 	0.4208	0.2362	0.88356	0.024
Mof_C 	C 	0.4546	0.2769	0.89814	-0.084
Mof_H 	H 	0.4549	0.3101	0.8984	0.067
Mof_C 	C 	0.485	0.2687	0.91116	0.012
Mof_C 	C 	0.4741	0.6936	0.96593	0.083
Mof_H 	H 	0.4631	0.6594	0.9605	0.02
Mof_C 	C 	0.5025	0.7099	0.98378	-0.168
Mof_H 	H 	0.511	0.6859	0.9901	0.091
Mof_C 	C 	0.6163	0.8518	0.05017	0.021
Mof_C 	C 	0.5966	0.8865	0.0431	-0.069
Mof_H 	H 	0.5738	0.8754	0.0323	0.056
Mof_C 	C 	0.6096	0.9324	0.0511	-0.026
Mof_H 	H 	0.5951	0.9534	0.0464	0.035
Mof_C 	C 	0.646	0.9514	0.067	-0.032
Mof_H 	H 	0.6571	0.9862	0.0719	0.04
Mof_C 	C 	0.6648	0.9215	0.0754	-0.067
Mof_H 	H 	0.6866	0.9351	0.0864	0.057
Mof_C 	C 	0.6527	0.8695	0.0681	0.022
Mof_C 	C 	0.7919	0.9387	0.12766	-0.173
Mof_H 	H 	0.7794	0.9611	0.1226	0.093
Mof_C 	C 	0.8312	0.9579	0.14309	0.105
Mof_H 	H 	0.8442	0.993	0.148	0.009
Mof_O 	O 	0.0305	0.87672	0.2302	-0.644
Mof_O 	O 	0.9756	0.84966	0.20368	-0.657
Mof_O 	O 	0.08833	0.99354	0.17262	-0.645
Mof_O 	O 	0.09045	0.00299	0.26399	-0.601
Mof_C 	C 	0.00704	0.84537	0.21605	0.536
Mof_C 	C 	0.0165	0.79767	0.21348	-0.203
Mof_C 	C 	0.9897	0.75986	0.19948	0.128
Mof_H 	H 	0.96507	0.76363	0.19153	0.002
Mof_C 	C 	0.99797	0.71513	0.19661	-0.224
Mof_H 	H 	0.97927	0.68973	0.18693	0.105
Mof_C 	C 	0.03417	0.70953	0.20823	0.168
Mof_C 	C 	0.06477	0.75053	0.22161	-0.207
Mof_H 	H 	0.09227	0.74913	0.22853	0.105
Mof_C 	C 	0.05447	0.79353	0.22469	0.136
Mof_H 	H 	0.07337	0.81933	0.23423	0
Mof_C 	C 	0.04527	0.66533	0.20649	-0.093
Mof_C 	C 	0.05017	0.62573	0.2045	0.043
Mof_C 	C 	0.05377	0.57673	0.20324	-0.045
Mof_C 	C 	0.02417	0.53803	0.1896	0.041
Mof_C 	C 	0.99237	0.54513	0.17528	-0.107
Mof_H 	H 	0.99087	0.57743	0.17553	0.07
Mof_C 	C 	0.96477	0.50873	0.16161	0.02
Mof_C 	C 	0.08747	0.56953	0.21689	0.026
Mof_C 	C 	0.12127	0.61023	0.23147	-0.085
Mof_H 	H 	0.12157	0.64343	0.23173	0.067
Mof_C 	C 	0.15167	0.60203	0.24449	0.013
Mof_C 	C 	0.14077	0.02693	0.29926	0.131
Mof_H 	H 	0.12977	0.99273	0.29383	-0.006
Mof_C 	C 	0.16917	0.04323	0.31711	-0.197
Mof_H 	H 	0.17767	0.01923	0.32343	0.105
Mof_C 	C 	0.28297	0.18513	0.3835	0.036
Mof_C 	C 	0.26327	0.21983	0.37643	-0.082
Mof_H 	H 	0.24047	0.20873	0.36563	0.062
Mof_C 	C 	0.27627	0.26573	0.38443	-0.011
Mof_H 	H 	0.26177	0.28673	0.37973	0.034
Mof_C 	C 	0.31267	0.28473	0.40033	-0.044
Mof_H 	H 	0.32377	0.31953	0.40523	0.048
Mof_C 	C 	0.33147	0.25483	0.40873	-0.054
Mof_H 	H 	0.35327	0.26843	0.41973	0.055
Mof_C 	C 	0.31937	0.20283	0.40143	0.01
Mof_C 	C 	0.45857	0.27203	0.46099	-0.169
Mof_H 	H 	0.44607	0.29443	0.45593	0.094
Mof_C 	C 	0.49787	0.29123	0.47642	0.104
Mof_H 	H 	0.51087	0.32633	0.48133	0.014
Mof_O 	O 	0.69716	0.21006	0.56354	-0.644
Mof_O 	O 	0.64226	0.183	0.53702	-0.645
Mof_O 	O 	0.75499	0.32688	0.50596	-0.638
Mof_O 	O 	0.75711	0.33633	0.59733	-0.609
Mof_C 	C 	0.6737	0.17871	0.54939	0.528
Mof_C 	C 	0.68316	0.13101	0.54682	-0.22
Mof_C 	C 	0.65636	0.0932	0.53282	0.151
Mof_H 	H 	0.63173	0.09697	0.52487	-0.002
Mof_C 	C 	0.66463	0.04847	0.52995	-0.223
Mof_H 	H 	0.64593	0.02307	0.52027	0.112
Mof_C 	C 	0.70083	0.04287	0.54157	0.177
Mof_C 	C 	0.73143	0.08387	0.55495	-0.217
Mof_H 	H 	0.75893	0.08247	0.56187	0.111
Mof_C 	C 	0.72113	0.12687	0.55803	0.147
Mof_H 	H 	0.74003	0.15267	0.56757	-0.003
Mof_C 	C 	0.71193	0.99867	0.53983	-0.112
Mof_C 	C 	0.71683	0.95907	0.53784	0.044
Mof_C 	C 	0.72043	0.91007	0.53658	-0.047
Mof_C 	C 	0.69083	0.87137	0.52294	0.029
Mof_C 	C 	0.65903	0.87847	0.50862	-0.091
Mof_H 	H 	0.65753	0.91077	0.50887	0.066
Mof_C 	C 	0.63143	0.84207	0.49495	0.018
Mof_C 	C 	0.75413	0.90287	0.55023	0.024
Mof_C 	C 	0.78793	0.94357	0.56481	-0.084
Mof_H 	H 	0.78823	0.97677	0.56507	0.064
Mof_C 	C 	0.81833	0.93537	0.57783	0.008
Mof_C 	C 	0.80743	0.36027	0.6326	0.083
Mof_H 	H 	0.79643	0.32607	0.62717	0.02
Mof_C 	C 	0.83583	0.37657	0.65045	-0.168
Mof_H 	H 	0.84433	0.35257	0.65677	0.09
Mof_C 	C 	0.94963	0.51847	0.71684	0.019
Mof_C 	C 	0.92993	0.55317	0.70977	-0.059
Mof_H 	H 	0.90713	0.54207	0.69897	0.053
Mof_C 	C 	0.94293	0.59907	0.71777	-0.041
Mof_H 	H 	0.92843	0.62007	0.71307	0.042
Mof_C 	C 	0.97933	0.61807	0.73367	-0.01
Mof_H 	H 	0.99043	0.65287	0.73857	0.033
Mof_C 	C 	0.99813	0.58817	0.74207	-0.097
Mof_H 	H 	0.01993	0.60177	0.75307	0.079
Mof_C 	C 	0.98603	0.53617	0.73477	0.014
Mof_C 	C 	0.12523	0.60537	0.79433	-0.169
Mof_H 	H 	0.11273	0.62777	0.78927	0.095
Mof_C 	C 	0.16453	0.62457	0.80976	0.104
Mof_H 	H 	0.17753	0.65967	0.81467	0.014
Mof_Zr	Zr	0.29184	0.70816	0.86385	3.214
Mof_O 	O 	0.28642	0.71358	0.89634	-1.019
Mof_C 	C 	0.28258	0.71742	0.9381	0.43
Mof_C 	C 	0.26825	0.73175	0.95704	-0.146
Mof_C 	C 	0.2412	0.7588	0.9918	0.131
Mof_C 	C 	0.2268	0.7732	0.0109	-0.078
Mof_C 	C 	0.215	0.785	0.0248	0.033
Mof_C 	C 	0.1988	0.8012	0.04284	-0.037
Mof_C 	C 	0.1662	0.8338	0.07514	-0.037
Mof_C 	C 	0.1475	0.8525	0.09229	0.039
Mof_C 	C 	0.1336	0.8664	0.1048	-0.079
Mof_C 	C 	0.1136	0.8864	0.12035	0.13
Mof_Zr	Zr	0.95851	0.04149	0.19718	3.214
Mof_O 	O 	0.95309	0.04691	0.22967	-1.021
Mof_C 	C 	0.94925	0.05075	0.27143	0.43
Mof_C 	C 	0.93492	0.06508	0.29037	-0.147
Mof_C 	C 	0.90787	0.09213	0.32513	0.132
Mof_C 	C 	0.89347	0.10653	0.34423	-0.078
Mof_C 	C 	0.88167	0.11833	0.35813	0.033
Mof_C 	C 	0.86547	0.13453	0.37617	-0.038
Mof_C 	C 	0.83287	0.16713	0.40847	-0.036
Mof_C 	C 	0.81417	0.18583	0.42562	0.039
Mof_C 	C 	0.80027	0.19973	0.43813	-0.078
Mof_C 	C 	0.78027	0.21973	0.45368	0.13
Mof_Zr	Zr	0.62517	0.37483	0.53051	3.214
Mof_O 	O 	0.61975	0.38025	0.56301	-1.019
Mof_C 	C 	0.61591	0.38409	0.60477	0.43
Mof_C 	C 	0.60158	0.39842	0.62371	-0.146
Mof_C 	C 	0.57453	0.42547	0.65847	0.131
Mof_C 	C 	0.56013	0.43987	0.67757	-0.078
Mof_C 	C 	0.54833	0.45167	0.69147	0.033
Mof_C 	C 	0.53213	0.46787	0.70951	-0.037
Mof_C 	C 	0.49953	0.50047	0.74181	-0.036
Mof_C 	C 	0.48083	0.51917	0.75896	0.039
Mof_C 	C 	0.46693	0.53307	0.77147	-0.078
Mof_C 	C 	0.44693	0.55307	0.78702	0.13
Mof_Zr	Zr	0.41632	0.70816	0.86385	3.214
Mof_O 	O 	0.42716	0.71358	0.89634	-1.019
Mof_C 	C 	0.43484	0.71742	0.9381	0.43
Mof_C 	C 	0.4635	0.73175	0.95704	-0.146
Mof_C 	C 	0.5176	0.7588	0.9918	0.13
Mof_C 	C 	0.5464	0.7732	0.0109	-0.078
Mof_C 	C 	0.57	0.785	0.0248	0.032
Mof_C 	C 	0.6024	0.8012	0.04284	-0.037
Mof_C 	C 	0.6676	0.8338	0.07514	-0.037
Mof_C 	C 	0.705	0.8525	0.09229	0.038
Mof_C 	C 	0.7328	0.8664	0.1048	-0.08
Mof_C 	C 	0.7728	0.8864	0.12035	0.13
Mof_Zr	Zr	0.08299	0.04149	0.19718	3.215
Mof_O 	O 	0.09383	0.04691	0.22967	-1.015
Mof_C 	C 	0.10151	0.05075	0.27143	0.438
Mof_C 	C 	0.13017	0.06508	0.29037	-0.165
Mof_C 	C 	0.18427	0.09213	0.32513	0.153
Mof_C 	C 	0.21307	0.10653	0.34423	-0.088
Mof_C 	C 	0.23667	0.11833	0.35813	0.045
Mof_C 	C 	0.26907	0.13453	0.37617	-0.055
Mof_C 	C 	0.33427	0.16713	0.40847	-0.021
Mof_C 	C 	0.37167	0.18583	0.42562	0.033
Mof_C 	C 	0.39947	0.19973	0.43813	-0.074
Mof_C 	C 	0.43947	0.21973	0.45368	0.128
Mof_Zr	Zr	0.74965	0.37483	0.53051	3.214
Mof_O 	O 	0.76049	0.38025	0.56301	-1.019
Mof_C 	C 	0.76817	0.38409	0.60477	0.43
Mof_C 	C 	0.79683	0.39842	0.62371	-0.146
Mof_C 	C 	0.85093	0.42547	0.65847	0.13
Mof_C 	C 	0.87973	0.43987	0.67757	-0.078
Mof_C 	C 	0.90333	0.45167	0.69147	0.031
Mof_C 	C 	0.93573	0.46787	0.70951	-0.037
Mof_C 	C 	0.00093	0.50047	0.74181	-0.011
Mof_C 	C 	0.03833	0.51917	0.75896	0.036
Mof_C 	C 	0.06613	0.53307	0.77147	-0.071
Mof_C 	C 	0.10613	0.55307	0.78702	0.129
Mof_Zr	Zr	0.29184	0.58368	0.86385	3.214
Mof_O 	O 	0.28642	0.57284	0.89634	-1.019
Mof_C 	C 	0.28258	0.56516	0.9381	0.431
Mof_C 	C 	0.26825	0.5365	0.95704	-0.146
Mof_C 	C 	0.2412	0.4824	0.9918	0.132
Mof_C 	C 	0.2268	0.4536	0.0109	-0.077
Mof_C 	C 	0.215	0.43	0.0248	0.033
Mof_C 	C 	0.1988	0.3976	0.04284	-0.037
Mof_C 	C 	0.1662	0.3324	0.07514	-0.036
Mof_C 	C 	0.1475	0.295	0.09229	0.039
Mof_C 	C 	0.1336	0.2672	0.1048	-0.077
Mof_C 	C 	0.1136	0.2272	0.12035	0.13
Mof_Zr	Zr	0.95851	0.91701	0.19718	3.213
Mof_O 	O 	0.95309	0.90617	0.22967	-1.026
Mof_C 	C 	0.94925	0.89849	0.27143	0.423
Mof_C 	C 	0.93492	0.86983	0.29037	-0.131
Mof_C 	C 	0.90787	0.81573	0.32513	0.113
Mof_C 	C 	0.89347	0.78693	0.34423	-0.069
Mof_C 	C 	0.88167	0.76333	0.35813	0.022
Mof_C 	C 	0.86547	0.73093	0.37617	-0.022
Mof_C 	C 	0.83287	0.66573	0.40847	-0.049
Mof_C 	C 	0.81417	0.62833	0.42562	0.044
Mof_C 	C 	0.80027	0.60053	0.43813	-0.082
Mof_C 	C 	0.78027	0.56053	0.45368	0.132
Mof_Zr	Zr	0.62517	0.25035	0.53051	3.214
Mof_O 	O 	0.61975	0.23951	0.56301	-1.019
Mof_C 	C 	0.61591	0.23183	0.60477	0.431
Mof_C 	C 	0.60158	0.20317	0.62371	-0.146
Mof_C 	C 	0.57453	0.14907	0.65847	0.132
Mof_C 	C 	0.56013	0.12027	0.67757	-0.077
Mof_C 	C 	0.54833	0.09667	0.69147	0.034
Mof_C 	C 	0.53213	0.06427	0.70951	-0.037
Mof_C 	C 	0.49953	0.99907	0.74181	-0.058
Mof_C 	C 	0.48083	0.96167	0.75896	0.042
Mof_C 	C 	0.46693	0.93387	0.77147	-0.085
Mof_C 	C 	0.44693	0.89387	0.78702	0.131
Mof_Zr	Zr	0.25028	0.62514	0.90495	3.214
Mof_O 	O 	0.26328	0.63164	0.87577	-1.438
Mof_C 	C 	0.2227	0.61135	0.83339	0.505
Mof_C 	C 	0.1833	0.59165	0.81726	-0.185
Mof_Zr	Zr	0.91695	0.95847	0.23828	3.212
Mof_O 	O 	0.92995	0.96497	0.2091	-1.448
Mof_C 	C 	0.88937	0.94468	0.16672	0.506
Mof_C 	C 	0.84997	0.92498	0.15059	-0.19
Mof_Zr	Zr	0.58361	0.29181	0.57162	3.214
Mof_O 	O 	0.59661	0.29831	0.54244	-1.437
Mof_C 	C 	0.55603	0.27802	0.50006	0.505
Mof_C 	C 	0.51663	0.25832	0.48393	-0.185
Mof_Zr	Zr	0.37486	0.74972	0.90495	3.214
Mof_O 	O 	0.36836	0.73672	0.87577	-1.438
Mof_C 	C 	0.38865	0.7773	0.83339	0.505
Mof_C 	C 	0.40835	0.8167	0.81726	-0.186
Mof_Zr	Zr	0.04153	0.08305	0.23828	3.215
Mof_O 	O 	0.03503	0.07005	0.2091	-1.432
Mof_C 	C 	0.05532	0.11063	0.16672	0.503
Mof_C 	C 	0.07502	0.15003	0.15059	-0.182
Mof_Zr	Zr	0.70819	0.41639	0.57162	3.214
Mof_O 	O 	0.70169	0.40339	0.54244	-1.437
Mof_C 	C 	0.72198	0.44397	0.50006	0.505
Mof_C 	C 	0.74168	0.48337	0.48393	-0.187
Mof_Zr	Zr	0.37486	0.62514	0.90495	3.214
Mof_O 	O 	0.36836	0.63164	0.87577	-1.438
Mof_C 	C 	0.38865	0.61135	0.83339	0.505
Mof_C 	C 	0.40835	0.59165	0.81726	-0.186
Mof_Zr	Zr	0.04153	0.95847	0.23828	3.213
Mof_O 	O 	0.03503	0.96497	0.2091	-1.441
Mof_C 	C 	0.05532	0.94468	0.16672	0.505
Mof_C 	C 	0.07502	0.92498	0.15059	-0.187
Mof_Zr	Zr	0.70819	0.29181	0.57162	3.214
Mof_O 	O 	0.70169	0.29831	0.54244	-1.437
Mof_C 	C 	0.72198	0.27802	0.50006	0.505
Mof_C 	C 	0.74168	0.25832	0.48393	-0.186
Mof_O 	O 	0.33333	0.66667	0.91076	-1.424
Mof_O 	O 	0.33333	0.66667	0.84953	-1.021
Mof_O 	O 	-8.48927e-33	-8.48927e-33	0.24409	-1.408
Mof_O 	O 	4.24463e-33	0	0.18286	-1.005
Mof_O 	O 	0.66667	0.33333	0.57743	-1.424
Mof_O 	O 	0.66667	0.33333	0.5162	-1.022
_end
