data_functionalizedCrystal
_audit_creation_method	'EQeq! by Chris Wilmer'
_symmetry_space_group_name_H-M	'P1'
_symmetry_Int_Tables_number	1
_symmetry_cell_setting	triclinic
loop_
_symmetry_equiv_pos_as_xyz
  x,y,z
_cell_length_a	9.8536
_cell_length_b	9.8536
_cell_length_c	48.8865
_cell_angle_alpha	90
_cell_angle_beta	90
_cell_angle_gamma	90
loop_
_atom_site_label
_atom_site_type_symbol
_atom_site_fract_x
_atom_site_fract_y
_atom_site_fract_z
_atom_site_charge
Mof_Cd	Cd	0.75151	0.80887	0.07767	0.452
Mof_C 	C 	0.7213	0.8017	0.1629	-0.098
Mof_C 	C 	0.7072	0.6773	0.1779	0.033
Mof_H 	H 	0.7023	0.5949	0.1686	0.041
Mof_C 	C 	0.7008	0.6806	0.2065	-0.112
Mof_C 	C 	0.7056	0.8054	0.22	0.039
Mof_H 	H 	0.6976	0.8086	0.2389	0.032
Mof_C 	C 	0.7224	0.927	0.2049	-0.119
Mof_C 	C 	0.7362	0.9198	0.177	0.044
Mof_H 	H 	0.7566	0.9986	0.1674	0.043
Mof_C 	C 	0.7299	0.7996	0.1329	0.297
Mof_C 	C 	0.6902	0.5532	0.2222	0.308
Mof_C 	C 	0.7258	0.0596	0.2196	0.334
Mof_C 	C 	0.2832	0.4758	0.0465	0.076
Mof_C 	C 	0.398	0.413	0.0403	-0.081
Mof_H 	H 	0.4776	0.4625	0.0379	0.068
Mof_C 	C 	0.398	0.272	0.0373	-0.073
Mof_H 	H 	0.4793	0.226	0.0353	0.067
Mof_C 	C 	0.2803	0.204	0.0373	0.077
Mof_C 	C 	0.1642	0.2708	0.0426	-0.079
Mof_H 	H 	0.0825	0.2238	0.0437	0.062
Mof_C 	C 	0.167	0.409	0.0462	-0.074
Mof_H 	H 	0.0861	0.4564	0.0486	0.07
Mof_C 	C 	0.2857	0.6316	0.0535	-0.129
Mof_H 	H 	0.3681	0.6522	0.0635	0.087
Mof_H 	H 	0.2873	0.6833	0.0366	0.086
Mof_C 	C 	0.157	0.647	0.0973	-0.001
Mof_H 	H 	0.2217	0.6099	0.1089	0.04
Mof_C 	C 	0.0309	0.688	0.1045	-0.014
Mof_H 	H 	0.9935	0.6831	0.122	0.056
Mof_C 	C 	0.0574	0.7256	0.0614	0.073
Mof_H 	H 	0.0398	0.7524	0.0435	0.033
Mof_C 	C 	0.279	0.05	0.0337	-0.146
Mof_H 	H 	0.1868	0.0173	0.0353	0.087
Mof_H 	H 	0.3119	0.0276	0.0156	0.084
Mof_C 	C 	0.332	0.977	0.0809	0.002
Mof_H 	H 	0.253	0.0043	0.0897	0.036
Mof_C 	C 	0.447	0.92	0.092	0.016
Mof_H 	H 	0.4575	0.9044	0.1107	0.039
Mof_C 	C 	0.4858	0.9332	0.0499	0.074
Mof_H 	H 	0.5283	0.9288	0.033	0.036
Mof_N 	N 	0.968	0.738	0.0816	-0.123
Mof_N 	N 	0.1727	0.6718	0.0692	-0.1
Mof_N 	N 	0.5433	0.8898	0.0735	-0.136
Mof_N 	N 	0.3622	0.9826	0.0537	-0.095
Mof_O 	O 	0.6799	0.7036	0.11925	-0.26
Mof_O 	O 	0.7795	0.9026	0.12127	-0.261
Mof_O 	O 	0.6807	0.4409	0.21025	-0.302
Mof_O 	O 	0.6898	0.5586	0.2483	-0.265
Mof_O 	O 	0.7835	0.1605	0.2074	-0.292
Mof_O 	O 	0.6652	0.0774	0.2405	-0.297
Mof_Cd	Cd	0.24849	0.19113	0.57767	0.453
Mof_C 	C 	0.2787	0.1983	0.6629	-0.097
Mof_C 	C 	0.2928	0.3227	0.6779	0.034
Mof_H 	H 	0.2977	0.4051	0.6686	0.042
Mof_C 	C 	0.2992	0.3194	0.7065	-0.111
Mof_C 	C 	0.2944	0.1946	0.72	0.04
Mof_H 	H 	0.3024	0.1914	0.7389	0.033
Mof_C 	C 	0.2776	0.073	0.7049	-0.118
Mof_C 	C 	0.2638	0.0802	0.677	0.045
Mof_H 	H 	0.2434	0.0014	0.6674	0.044
Mof_C 	C 	0.2701	0.2004	0.6329	0.298
Mof_C 	C 	0.3098	0.4468	0.7222	0.309
Mof_C 	C 	0.2742	0.9404	0.7196	0.335
Mof_C 	C 	0.7168	0.5242	0.5465	0.077
Mof_C 	C 	0.602	0.587	0.5403	-0.08
Mof_H 	H 	0.5224	0.5375	0.5379	0.069
Mof_C 	C 	0.602	0.728	0.5373	-0.072
Mof_H 	H 	0.5207	0.774	0.5353	0.068
Mof_C 	C 	0.7197	0.796	0.5373	0.078
Mof_C 	C 	0.8358	0.7292	0.5426	-0.078
Mof_H 	H 	0.9175	0.7762	0.5437	0.063
Mof_C 	C 	0.833	0.591	0.5462	-0.073
Mof_H 	H 	0.9139	0.5436	0.5486	0.071
Mof_C 	C 	0.7143	0.3684	0.5535	-0.13
Mof_H 	H 	0.6319	0.3478	0.5635	0.087
Mof_H 	H 	0.7127	0.3167	0.5366	0.086
Mof_C 	C 	0.843	0.353	0.5973	-0.001
Mof_H 	H 	0.7783	0.3901	0.6089	0.04
Mof_C 	C 	0.9691	0.312	0.6045	-0.014
Mof_H 	H 	0.0065	0.3169	0.622	0.056
Mof_C 	C 	0.9426	0.2744	0.5614	0.073
Mof_H 	H 	0.9602	0.2476	0.5435	0.033
Mof_C 	C 	0.721	0.95	0.5337	-0.146
Mof_H 	H 	0.8132	0.9827	0.5353	0.087
Mof_H 	H 	0.6881	0.9724	0.5156	0.084
Mof_C 	C 	0.668	0.023	0.5809	0.002
Mof_H 	H 	0.747	0.9957	0.5897	0.036
Mof_C 	C 	0.553	0.08	0.592	0.016
Mof_H 	H 	0.5425	0.0956	0.6107	0.039
Mof_C 	C 	0.5142	0.0668	0.5499	0.074
Mof_H 	H 	0.4717	0.0712	0.533	0.036
Mof_N 	N 	0.032	0.262	0.5816	-0.123
Mof_N 	N 	0.8273	0.3282	0.5692	-0.099
Mof_N 	N 	0.4567	0.1102	0.5735	-0.136
Mof_N 	N 	0.6378	0.0174	0.5537	-0.095
Mof_O 	O 	0.3201	0.2964	0.61925	-0.26
Mof_O 	O 	0.2205	0.0974	0.62127	-0.261
Mof_O 	O 	0.3193	0.5591	0.71025	-0.302
Mof_O 	O 	0.3102	0.4414	0.7483	-0.265
Mof_O 	O 	0.2165	0.8395	0.7074	-0.292
Mof_O 	O 	0.3348	0.9226	0.7405	-0.297
Mof_Cd	Cd	0.69113	0.25151	0.32767	0.452
Mof_C 	C 	0.6983	0.2213	0.4129	-0.095
Mof_C 	C 	0.8227	0.2072	0.4279	0.031
Mof_H 	H 	0.9051	0.2023	0.4186	0.041
Mof_C 	C 	0.8194	0.2008	0.4565	-0.106
Mof_C 	C 	0.6946	0.2056	0.47	0.037
Mof_H 	H 	0.6914	0.1976	0.4889	0.035
Mof_C 	C 	0.573	0.2224	0.4549	-0.114
Mof_C 	C 	0.5802	0.2362	0.427	0.043
Mof_H 	H 	0.5014	0.2566	0.4174	0.044
Mof_C 	C 	0.7004	0.2299	0.3829	0.298
Mof_C 	C 	0.9468	0.1902	0.4722	0.298
Mof_C 	C 	0.4404	0.2258	0.4696	0.333
Mof_C 	C 	0.0242	0.7832	0.2965	0.073
Mof_C 	C 	0.087	0.898	0.2903	-0.076
Mof_H 	H 	0.0375	0.9776	0.2879	0.066
Mof_C 	C 	0.228	0.898	0.2873	-0.076
Mof_H 	H 	0.274	0.9793	0.2853	0.069
Mof_C 	C 	0.296	0.7803	0.2873	0.082
Mof_C 	C 	0.2292	0.6642	0.2926	-0.082
Mof_H 	H 	0.2762	0.5825	0.2937	0.067
Mof_C 	C 	0.091	0.667	0.2962	-0.069
Mof_H 	H 	0.0436	0.5861	0.2986	0.072
Mof_C 	C 	0.8684	0.7857	0.3035	-0.126
Mof_H 	H 	0.8478	0.8681	0.3135	0.085
Mof_H 	H 	0.8167	0.7873	0.2866	0.085
Mof_C 	C 	0.853	0.657	0.3473	-0.016
Mof_H 	H 	0.8901	0.7217	0.3589	0.045
Mof_C 	C 	0.812	0.5309	0.3545	0.019
Mof_H 	H 	0.8169	0.4935	0.372	0.037
Mof_C 	C 	0.7744	0.5574	0.3114	0.084
Mof_H 	H 	0.7476	0.5398	0.2935	0.032
Mof_C 	C 	0.45	0.779	0.2837	-0.145
Mof_H 	H 	0.4827	0.6868	0.2853	0.091
Mof_H 	H 	0.4724	0.8119	0.2656	0.087
Mof_C 	C 	0.523	0.832	0.3309	-0.01
Mof_H 	H 	0.4957	0.753	0.3397	0.045
Mof_C 	C 	0.58	0.947	0.342	0.014
Mof_H 	H 	0.5956	0.9575	0.3607	0.036
Mof_C 	C 	0.5668	0.9858	0.2999	0.055
Mof_H 	H 	0.5712	0.0283	0.283	0.044
Mof_N 	N 	0.762	0.468	0.3316	-0.138
Mof_N 	N 	0.8282	0.6727	0.3192	-0.099
Mof_N 	N 	0.6102	0.0433	0.3235	-0.128
Mof_N 	N 	0.5174	0.8622	0.3037	-0.094
Mof_O 	O 	0.7964	0.1799	0.36925	-0.26
Mof_O 	O 	0.5974	0.2795	0.37127	-0.263
Mof_O 	O 	0.0591	0.1807	0.46025	-0.291
Mof_O 	O 	0.9414	0.1898	0.4983	-0.265
Mof_O 	O 	0.3395	0.2835	0.4574	-0.292
Mof_O 	O 	0.4226	0.1652	0.4905	-0.295
Mof_Cd	Cd	0.30887	0.74849	0.82767	0.452
Mof_C 	C 	0.3017	0.7787	0.9129	-0.095
Mof_C 	C 	0.1773	0.7928	0.9279	0.031
Mof_H 	H 	0.0949	0.7977	0.9186	0.041
Mof_C 	C 	0.1806	0.7992	0.9565	-0.106
Mof_C 	C 	0.3054	0.7944	0.97	0.037
Mof_H 	H 	0.3086	0.8024	0.9889	0.035
Mof_C 	C 	0.427	0.7776	0.9549	-0.114
Mof_C 	C 	0.4198	0.7638	0.927	0.043
Mof_H 	H 	0.4986	0.7434	0.9174	0.044
Mof_C 	C 	0.2996	0.7701	0.8829	0.298
Mof_C 	C 	0.0532	0.8098	0.9722	0.298
Mof_C 	C 	0.5596	0.7742	0.9696	0.333
Mof_C 	C 	0.9758	0.2168	0.7965	0.073
Mof_C 	C 	0.913	0.102	0.7903	-0.076
Mof_H 	H 	0.9625	0.0224	0.7879	0.066
Mof_C 	C 	0.772	0.102	0.7873	-0.076
Mof_H 	H 	0.726	0.0207	0.7853	0.069
Mof_C 	C 	0.704	0.2197	0.7873	0.081
Mof_C 	C 	0.7708	0.3358	0.7926	-0.082
Mof_H 	H 	0.7238	0.4175	0.7937	0.067
Mof_C 	C 	0.909	0.333	0.7962	-0.069
Mof_H 	H 	0.9564	0.4139	0.7986	0.072
Mof_C 	C 	0.1316	0.2143	0.8035	-0.126
Mof_H 	H 	0.1522	0.1319	0.8135	0.085
Mof_H 	H 	0.1833	0.2127	0.7866	0.085
Mof_C 	C 	0.147	0.343	0.8473	-0.016
Mof_H 	H 	0.1099	0.2783	0.8589	0.045
Mof_C 	C 	0.188	0.4691	0.8545	0.019
Mof_H 	H 	0.1831	0.5065	0.872	0.037
Mof_C 	C 	0.2256	0.4426	0.8114	0.084
Mof_H 	H 	0.2524	0.4602	0.7935	0.032
Mof_C 	C 	0.55	0.221	0.7837	-0.145
Mof_H 	H 	0.5173	0.3132	0.7853	0.091
Mof_H 	H 	0.5276	0.1881	0.7656	0.087
Mof_C 	C 	0.477	0.168	0.8309	-0.01
Mof_H 	H 	0.5043	0.247	0.8397	0.045
Mof_C 	C 	0.42	0.053	0.842	0.014
Mof_H 	H 	0.4044	0.0425	0.8607	0.036
Mof_C 	C 	0.4332	0.0142	0.7999	0.055
Mof_H 	H 	0.4288	0.9717	0.783	0.044
Mof_N 	N 	0.238	0.532	0.8316	-0.138
Mof_N 	N 	0.1718	0.3273	0.8192	-0.099
Mof_N 	N 	0.3898	0.9567	0.8235	-0.128
Mof_N 	N 	0.4826	0.1378	0.8037	-0.094
Mof_O 	O 	0.2036	0.8201	0.86925	-0.26
Mof_O 	O 	0.4026	0.7205	0.87127	-0.263
Mof_O 	O 	0.9409	0.8193	0.96025	-0.291
Mof_O 	O 	0.0586	0.8102	0.9983	-0.264
Mof_O 	O 	0.6605	0.7165	0.9574	-0.292
Mof_O 	O 	0.5774	0.8348	0.9905	-0.295
Mof_Cd	Cd	0.74849	0.30887	0.17233	0.452
Mof_C 	C 	0.7787	0.3017	0.0871	-0.095
Mof_C 	C 	0.7928	0.1773	0.0721	0.032
Mof_H 	H 	0.7977	0.0949	0.0814	0.041
Mof_C 	C 	0.7992	0.1806	0.0435	-0.106
Mof_C 	C 	0.7944	0.3054	0.03	0.037
Mof_H 	H 	0.8024	0.3086	0.0111	0.035
Mof_C 	C 	0.7776	0.427	0.0451	-0.114
Mof_C 	C 	0.7638	0.4198	0.073	0.043
Mof_H 	H 	0.7434	0.4986	0.0826	0.044
Mof_C 	C 	0.7701	0.2996	0.1171	0.298
Mof_C 	C 	0.8098	0.0532	0.0278	0.298
Mof_C 	C 	0.7742	0.5596	0.0304	0.333
Mof_C 	C 	0.2168	0.9758	0.2035	0.073
Mof_C 	C 	0.102	0.913	0.2097	-0.076
Mof_H 	H 	0.0224	0.9625	0.2121	0.066
Mof_C 	C 	0.102	0.772	0.2127	-0.076
Mof_H 	H 	0.0207	0.726	0.2147	0.069
Mof_C 	C 	0.2197	0.704	0.2127	0.082
Mof_C 	C 	0.3358	0.7708	0.2074	-0.082
Mof_H 	H 	0.4175	0.7238	0.2063	0.067
Mof_C 	C 	0.333	0.909	0.2038	-0.069
Mof_H 	H 	0.4139	0.9564	0.2014	0.072
Mof_C 	C 	0.2143	0.1316	0.1965	-0.126
Mof_H 	H 	0.1319	0.1522	0.1865	0.085
Mof_H 	H 	0.2127	0.1833	0.2134	0.085
Mof_C 	C 	0.343	0.147	0.1527	-0.016
Mof_H 	H 	0.2783	0.1099	0.1411	0.045
Mof_C 	C 	0.4691	0.188	0.1455	0.019
Mof_H 	H 	0.5065	0.1831	0.128	0.037
Mof_C 	C 	0.4426	0.2256	0.1886	0.084
Mof_H 	H 	0.4602	0.2524	0.2065	0.032
Mof_C 	C 	0.221	0.55	0.2163	-0.145
Mof_H 	H 	0.3132	0.5173	0.2147	0.091
Mof_H 	H 	0.1881	0.5276	0.2344	0.087
Mof_C 	C 	0.168	0.477	0.1691	-0.01
Mof_H 	H 	0.247	0.5043	0.1603	0.045
Mof_C 	C 	0.053	0.42	0.158	0.014
Mof_H 	H 	0.0425	0.4044	0.1393	0.036
Mof_C 	C 	0.0142	0.4332	0.2001	0.055
Mof_H 	H 	0.9717	0.4288	0.217	0.044
Mof_N 	N 	0.532	0.238	0.1684	-0.138
Mof_N 	N 	0.3273	0.1718	0.1808	-0.099
Mof_N 	N 	0.9567	0.3898	0.1765	-0.128
Mof_N 	N 	0.1378	0.4826	0.1963	-0.094
Mof_O 	O 	0.8201	0.2036	0.13075	-0.26
Mof_O 	O 	0.7205	0.4026	0.12873	-0.263
Mof_O 	O 	0.8193	0.9409	0.03975	-0.291
Mof_O 	O 	0.8102	0.0586	0.0017	-0.265
Mof_O 	O 	0.7165	0.6605	0.0426	-0.292
Mof_O 	O 	0.8348	0.5774	0.0095	-0.295
Mof_Cd	Cd	0.25151	0.69113	0.67233	0.452
Mof_C 	C 	0.2213	0.6983	0.5871	-0.095
Mof_C 	C 	0.2072	0.8227	0.5721	0.031
Mof_H 	H 	0.2023	0.9051	0.5814	0.041
Mof_C 	C 	0.2008	0.8194	0.5435	-0.106
Mof_C 	C 	0.2056	0.6946	0.53	0.037
Mof_H 	H 	0.1976	0.6914	0.5111	0.035
Mof_C 	C 	0.2224	0.573	0.5451	-0.114
Mof_C 	C 	0.2362	0.5802	0.573	0.043
Mof_H 	H 	0.2566	0.5014	0.5826	0.044
Mof_C 	C 	0.2299	0.7004	0.6171	0.298
Mof_C 	C 	0.1902	0.9468	0.5278	0.298
Mof_C 	C 	0.2258	0.4404	0.5304	0.333
Mof_C 	C 	0.7832	0.0242	0.7035	0.073
Mof_C 	C 	0.898	0.087	0.7097	-0.076
Mof_H 	H 	0.9776	0.0375	0.7121	0.066
Mof_C 	C 	0.898	0.228	0.7127	-0.076
Mof_H 	H 	0.9793	0.274	0.7147	0.069
Mof_C 	C 	0.7803	0.296	0.7127	0.082
Mof_C 	C 	0.6642	0.2292	0.7074	-0.082
Mof_H 	H 	0.5825	0.2762	0.7063	0.067
Mof_C 	C 	0.667	0.091	0.7038	-0.069
Mof_H 	H 	0.5861	0.0436	0.7014	0.072
Mof_C 	C 	0.7857	0.8684	0.6965	-0.126
Mof_H 	H 	0.8681	0.8478	0.6865	0.085
Mof_H 	H 	0.7873	0.8167	0.7134	0.085
Mof_C 	C 	0.657	0.853	0.6527	-0.016
Mof_H 	H 	0.7217	0.8901	0.6411	0.045
Mof_C 	C 	0.5309	0.812	0.6455	0.019
Mof_H 	H 	0.4935	0.8169	0.628	0.037
Mof_C 	C 	0.5574	0.7744	0.6886	0.084
Mof_H 	H 	0.5398	0.7476	0.7065	0.032
Mof_C 	C 	0.779	0.45	0.7163	-0.145
Mof_H 	H 	0.6868	0.4827	0.7147	0.091
Mof_H 	H 	0.8119	0.4724	0.7344	0.087
Mof_C 	C 	0.832	0.523	0.6691	-0.01
Mof_H 	H 	0.753	0.4957	0.6603	0.045
Mof_C 	C 	0.947	0.58	0.658	0.014
Mof_H 	H 	0.9575	0.5956	0.6393	0.036
Mof_C 	C 	0.9858	0.5668	0.7001	0.055
Mof_H 	H 	0.0283	0.5712	0.717	0.044
Mof_N 	N 	0.468	0.762	0.6684	-0.138
Mof_N 	N 	0.6727	0.8282	0.6808	-0.099
Mof_N 	N 	0.0433	0.6102	0.6765	-0.128
Mof_N 	N 	0.8622	0.5174	0.6963	-0.094
Mof_O 	O 	0.1799	0.7964	0.63075	-0.26
Mof_O 	O 	0.2795	0.5974	0.62873	-0.263
Mof_O 	O 	0.1807	0.0591	0.53975	-0.291
Mof_O 	O 	0.1898	0.9414	0.5017	-0.265
Mof_O 	O 	0.2835	0.3395	0.5426	-0.292
Mof_O 	O 	0.1652	0.4226	0.5095	-0.295
Mof_Cd	Cd	0.80887	0.75151	0.92233	0.453
Mof_C 	C 	0.8017	0.7213	0.8371	-0.097
Mof_C 	C 	0.6773	0.7072	0.8221	0.034
Mof_H 	H 	0.5949	0.7023	0.8314	0.042
Mof_C 	C 	0.6806	0.7008	0.7935	-0.111
Mof_C 	C 	0.8054	0.7056	0.78	0.04
Mof_H 	H 	0.8086	0.6976	0.7611	0.033
Mof_C 	C 	0.927	0.7224	0.7951	-0.118
Mof_C 	C 	0.9198	0.7362	0.823	0.045
Mof_H 	H 	0.9986	0.7566	0.8326	0.044
Mof_C 	C 	0.7996	0.7299	0.8671	0.298
Mof_C 	C 	0.5532	0.6902	0.7778	0.309
Mof_C 	C 	0.0596	0.7258	0.7804	0.335
Mof_C 	C 	0.4758	0.2832	0.9535	0.077
Mof_C 	C 	0.413	0.398	0.9597	-0.079
Mof_H 	H 	0.4625	0.4776	0.9621	0.069
Mof_C 	C 	0.272	0.398	0.9627	-0.072
Mof_H 	H 	0.226	0.4793	0.9647	0.068
Mof_C 	C 	0.204	0.2803	0.9627	0.078
Mof_C 	C 	0.2708	0.1642	0.9574	-0.078
Mof_H 	H 	0.2238	0.0825	0.9563	0.063
Mof_C 	C 	0.409	0.167	0.9538	-0.073
Mof_H 	H 	0.4564	0.0861	0.9514	0.071
Mof_C 	C 	0.6316	0.2857	0.9465	-0.13
Mof_H 	H 	0.6522	0.3681	0.9365	0.087
Mof_H 	H 	0.6833	0.2873	0.9634	0.086
Mof_C 	C 	0.647	0.157	0.9027	-0.001
Mof_H 	H 	0.6099	0.2217	0.8911	0.04
Mof_C 	C 	0.688	0.0309	0.8955	-0.014
Mof_H 	H 	0.6831	0.9935	0.878	0.056
Mof_C 	C 	0.7256	0.0574	0.9386	0.073
Mof_H 	H 	0.7524	0.0398	0.9565	0.033
Mof_C 	C 	0.05	0.279	0.9663	-0.146
Mof_H 	H 	0.0173	0.1868	0.9647	0.087
Mof_H 	H 	0.0276	0.3119	0.9844	0.084
Mof_C 	C 	0.977	0.332	0.9191	0.002
Mof_H 	H 	0.0043	0.253	0.9103	0.036
Mof_C 	C 	0.92	0.447	0.908	0.016
Mof_H 	H 	0.9044	0.4575	0.8893	0.039
Mof_C 	C 	0.9332	0.4858	0.9501	0.074
Mof_H 	H 	0.9288	0.5283	0.967	0.036
Mof_N 	N 	0.738	0.968	0.9184	-0.123
Mof_N 	N 	0.6718	0.1727	0.9308	-0.099
Mof_N 	N 	0.8898	0.5433	0.9265	-0.136
Mof_N 	N 	0.9826	0.3622	0.9463	-0.095
Mof_O 	O 	0.7036	0.6799	0.88075	-0.26
Mof_O 	O 	0.9026	0.7795	0.87873	-0.261
Mof_O 	O 	0.4409	0.6807	0.78975	-0.302
Mof_O 	O 	0.5586	0.6898	0.7517	-0.265
Mof_O 	O 	0.1605	0.7835	0.7926	-0.292
Mof_O 	O 	0.0774	0.6652	0.7595	-0.297
Mof_Cd	Cd	0.19113	0.24849	0.42233	0.453
Mof_C 	C 	0.1983	0.2787	0.3371	-0.097
Mof_C 	C 	0.3227	0.2928	0.3221	0.034
Mof_H 	H 	0.4051	0.2977	0.3314	0.042
Mof_C 	C 	0.3194	0.2992	0.2935	-0.111
Mof_C 	C 	0.1946	0.2944	0.28	0.04
Mof_H 	H 	0.1914	0.3024	0.2611	0.033
Mof_C 	C 	0.073	0.2776	0.2951	-0.118
Mof_C 	C 	0.0802	0.2638	0.323	0.045
Mof_H 	H 	0.0014	0.2434	0.3326	0.044
Mof_C 	C 	0.2004	0.2701	0.3671	0.298
Mof_C 	C 	0.4468	0.3098	0.2778	0.309
Mof_C 	C 	0.9404	0.2742	0.2804	0.335
Mof_C 	C 	0.5242	0.7168	0.4535	0.077
Mof_C 	C 	0.587	0.602	0.4597	-0.08
Mof_H 	H 	0.5375	0.5224	0.4621	0.069
Mof_C 	C 	0.728	0.602	0.4627	-0.072
Mof_H 	H 	0.774	0.5207	0.4647	0.068
Mof_C 	C 	0.796	0.7197	0.4627	0.078
Mof_C 	C 	0.7292	0.8358	0.4574	-0.078
Mof_H 	H 	0.7762	0.9175	0.4563	0.063
Mof_C 	C 	0.591	0.833	0.4538	-0.073
Mof_H 	H 	0.5436	0.9139	0.4514	0.071
Mof_C 	C 	0.3684	0.7143	0.4465	-0.13
Mof_H 	H 	0.3478	0.6319	0.4365	0.087
Mof_H 	H 	0.3167	0.7127	0.4634	0.086
Mof_C 	C 	0.353	0.843	0.4027	-0.001
Mof_H 	H 	0.3901	0.7783	0.3911	0.04
Mof_C 	C 	0.312	0.9691	0.3955	-0.014
Mof_H 	H 	0.3169	0.0065	0.378	0.056
Mof_C 	C 	0.2744	0.9426	0.4386	0.073
Mof_H 	H 	0.2476	0.9602	0.4565	0.033
Mof_C 	C 	0.95	0.721	0.4663	-0.146
Mof_H 	H 	0.9827	0.8132	0.4647	0.087
Mof_H 	H 	0.9724	0.6881	0.4844	0.084
Mof_C 	C 	0.023	0.668	0.4191	0.002
Mof_H 	H 	0.9957	0.747	0.4103	0.036
Mof_C 	C 	0.08	0.553	0.408	0.016
Mof_H 	H 	0.0956	0.5425	0.3893	0.039
Mof_C 	C 	0.0668	0.5142	0.4501	0.074
Mof_H 	H 	0.0712	0.4717	0.467	0.036
Mof_N 	N 	0.262	0.032	0.4184	-0.123
Mof_N 	N 	0.3282	0.8273	0.4308	-0.099
Mof_N 	N 	0.1102	0.4567	0.4265	-0.136
Mof_N 	N 	0.0174	0.6378	0.4463	-0.095
Mof_O 	O 	0.2964	0.3201	0.38075	-0.26
Mof_O 	O 	0.0974	0.2205	0.37873	-0.261
Mof_O 	O 	0.5591	0.3193	0.28975	-0.302
Mof_O 	O 	0.4414	0.3102	0.2517	-0.265
Mof_O 	O 	0.8395	0.2165	0.2926	-0.292
Mof_O 	O 	0.9226	0.3348	0.2595	-0.297
Mof_Cd	Cd	0.69472	0.30528	0.25	0.485
Mof_Cd	Cd	0.30528	0.69472	0.75	0.485
Mof_Cd	Cd	0.19472	0.19472	0.5	0.49
Mof_Cd	Cd	0.80528	0.80528	-0	0.489
_end
