data_functionalizedCrystal
_audit_creation_method	'EQeq! by Chris Wilmer'
_symmetry_space_group_name_H-M	'P1'
_symmetry_Int_Tables_number	1
_symmetry_cell_setting	triclinic
loop_
_symmetry_equiv_pos_as_xyz
  x,y,z
_cell_length_a	17.5185
_cell_length_b	6.875
_cell_length_c	12.168
_cell_angle_alpha	90
_cell_angle_beta	90
_cell_angle_gamma	90
loop_
_atom_site_label
_atom_site_type_symbol
_atom_site_fract_x
_atom_site_fract_y
_atom_site_fract_z
_atom_site_charge
Mof_O 	O 	0.08936	0.9136	0.0892	-0.545
Mof_O 	O 	0.42601	0.588	0.3853	-0.531
Mof_C 	C 	0.227	0.5758	0.2015	-0.007
Mof_H 	H 	0.2046	0.4584	0.1815	0.021
Mof_C 	C 	0.2942	0.5765	0.2595	-0.014
Mof_H 	H 	0.3169	0.4592	0.2792	0.034
Mof_O 	O 	0.41064	0.0864	0.5892	-0.547
Mof_O 	O 	0.07399	0.412	0.8853	-0.479
Mof_C 	C 	0.273	0.4242	0.7015	-0.027
Mof_H 	H 	0.2954	0.5416	0.6815	0.076
Mof_C 	C 	0.2058	0.4235	0.7595	0.002
Mof_H 	H 	0.1831	0.5408	0.7792	0.065
Mof_O 	O 	0.91064	0.4136	0.9108	-0.351
Mof_O 	O 	0.57399	0.088	0.6147	-0.551
Mof_C 	C 	0.773	0.0758	0.7985	-0.161
Mof_H 	H 	0.7954	0.9584	0.8185	0.205
Mof_C 	C 	0.7058	0.0765	0.7405	-0.11
Mof_H 	H 	0.6831	0.9592	0.7208	0.177
Mof_O 	O 	0.58936	0.5864	0.4108	-0.522
Mof_O 	O 	0.92601	0.912	0.1147	-0.424
Mof_C 	C 	0.727	0.9242	0.2985	0.136
Mof_H 	H 	0.7046	0.0416	0.3185	-0.076
Mof_C 	C 	0.7942	0.9235	0.2405	0.119
Mof_H 	H 	0.8169	0.0408	0.2208	-0.069
Mof_O 	O 	0.91064	0.0864	0.9108	-0.396
Mof_O 	O 	0.57399	0.412	0.6147	-0.504
Mof_C 	C 	0.773	0.4242	0.7985	-0.036
Mof_H 	H 	0.7954	0.5416	0.8185	0.099
Mof_C 	C 	0.7058	0.4235	0.7405	0.02
Mof_H 	H 	0.6831	0.5408	0.7208	0.067
Mof_O 	O 	0.58936	0.9136	0.4108	-0.462
Mof_O 	O 	0.92601	0.588	0.1147	-0.483
Mof_C 	C 	0.727	0.5758	0.2985	0.002
Mof_H 	H 	0.7046	0.4584	0.3185	0.038
Mof_C 	C 	0.7942	0.5765	0.2405	-0.015
Mof_H 	H 	0.8169	0.4592	0.2208	0.046
Mof_O 	O 	0.08936	0.5864	0.0892	-0.609
Mof_O 	O 	0.42601	0.912	0.3853	-0.472
Mof_C 	C 	0.227	0.9242	0.2015	0.13
Mof_H 	H 	0.2046	0.0416	0.1815	-0.096
Mof_C 	C 	0.2942	0.9235	0.2595	0.121
Mof_H 	H 	0.3169	0.0408	0.2792	-0.081
Mof_O 	O 	0.41064	0.4136	0.5892	-0.499
Mof_O 	O 	0.07399	0.088	0.8853	-0.525
Mof_C 	C 	0.273	0.0758	0.7015	-0.159
Mof_H 	H 	0.2954	0.9584	0.6815	0.187
Mof_C 	C 	0.2058	0.0765	0.7595	-0.125
Mof_H 	H 	0.1831	0.9592	0.7792	0.174
Mof_V 	V 	-0	0	-0	1.592
Mof_V 	V 	0.5	0	0.5	1.756
Mof_V 	V 	2.15314e-33	0.5	-0	1.635
Mof_V 	V 	0.5	0.5	0.5	1.799
Mof_O 	O 	0.9932	0.75	0.9255	-0.307
Mof_C 	C 	0.3287	0.75	0.2889	-0.14
Mof_C 	C 	0.1925	0.75	0.1728	-0.157
Mof_C 	C 	0.3988	0.75	0.3588	0.445
Mof_C 	C 	0.1182	0.75	0.1118	0.416
Mof_O 	O 	0.5068	0.25	0.4255	-0.642
Mof_C 	C 	0.1713	0.25	0.7889	-0.057
Mof_C 	C 	0.3075	0.25	0.6728	-0.029
Mof_C 	C 	0.1012	0.25	0.8588	0.424
Mof_C 	C 	0.3818	0.25	0.6118	0.4
Mof_O 	O 	0.0068	0.25	0.0745	-0.793
Mof_C 	C 	0.6713	0.25	0.7111	-0.058
Mof_C 	C 	0.8075	0.25	0.8272	0.013
Mof_C 	C 	0.6012	0.25	0.6412	0.429
Mof_C 	C 	0.8818	0.25	0.8882	0.386
Mof_O 	O 	0.4932	0.75	0.5745	-0.553
Mof_C 	C 	0.8287	0.75	0.2111	-0.116
Mof_C 	C 	0.6925	0.75	0.3272	-0.133
Mof_C 	C 	0.8988	0.75	0.1412	0.415
Mof_C 	C 	0.6182	0.75	0.3882	0.432
_end
