data_functionalizedCrystal
_audit_creation_method	'EQeq! by Chris Wilmer'
_symmetry_space_group_name_H-M	'P1'
_symmetry_Int_Tables_number	1
_symmetry_cell_setting	triclinic
loop_
_symmetry_equiv_pos_as_xyz
  x,y,z
_cell_length_a	22.9511
_cell_length_b	22.9511
_cell_length_c	15.8965
_cell_angle_alpha	90
_cell_angle_beta	90
_cell_angle_gamma	120
loop_
_atom_site_label
_atom_site_type_symbol
_atom_site_fract_x
_atom_site_fract_y
_atom_site_fract_z
_atom_site_charge
Mof_Zn	Zn	0.64116	0.88155	0.0753	0.984
Mof_O 	O 	0.6828	0.8341	0.0057	-0.681
Mof_O 	O 	0.5942	0.6785	0.045	-0.498
Mof_C 	C 	0.69	0.8917	0.8781	-0.2
Mof_O 	O 	0.6349	0.9314	0.1706	-0.592
Mof_C 	C 	0.653	0.7771	0.8751	-0.119
Mof_H 	H 	0.6431	0.7375	0.9027	0.077
Mof_C 	C 	0.6762	0.8347	0.9216	0.258
Mof_C 	C 	0.5764	0.6278	0.0862	0.424
Mof_O 	O 	0.5382	0.8426	0.0322	-0.341
Mof_C 	C 	0.5164	0.8457	0.9571	0.077
Mof_Zn	Zn	0.30783	0.21488	0.40863	0.984
Mof_O 	O 	0.34947	0.16743	0.33903	-0.681
Mof_O 	O 	0.26087	0.01183	0.37833	-0.538
Mof_C 	C 	0.35667	0.22503	0.21143	-0.193
Mof_O 	O 	0.30157	0.26473	0.50393	-0.603
Mof_C 	C 	0.31967	0.11043	0.20843	-0.125
Mof_H 	H 	0.30977	0.07083	0.23603	0.072
Mof_C 	C 	0.34287	0.16803	0.25493	0.254
Mof_C 	C 	0.24307	0.96113	0.41953	0.468
Mof_O 	O 	0.20487	0.17593	0.36553	-0.348
Mof_C 	C 	0.18307	0.17903	0.29043	0.066
Mof_Zn	Zn	0.97449	0.54822	0.74197	0.996
Mof_O 	O 	0.01613	0.50077	0.67237	-0.676
Mof_O 	O 	0.92753	0.34517	0.71167	-0.484
Mof_C 	C 	0.02333	0.55837	0.54477	-0.145
Mof_O 	O 	0.96823	0.59807	0.83727	-0.595
Mof_C 	C 	0.98633	0.44377	0.54177	-0.022
Mof_H 	H 	0.97643	0.40417	0.56937	0.055
Mof_C 	C 	0.00953	0.50137	0.58827	0.174
Mof_C 	C 	0.90973	0.29447	0.75287	0.423
Mof_O 	O 	0.87153	0.50927	0.69887	-0.338
Mof_C 	C 	0.84973	0.51237	0.62377	0.075
Mof_Zn	Zn	0.11845	0.75961	0.0753	0.984
Mof_O 	O 	0.1659	0.8487	0.0057	-0.677
Mof_O 	O 	0.3215	0.9157	0.045	-0.499
Mof_C 	C 	0.1083	0.7983	0.8781	-0.18
Mof_O 	O 	0.0686	0.7035	0.1706	-0.612
Mof_C 	C 	0.2229	0.8759	0.8751	-0.113
Mof_H 	H 	0.2625	0.9056	0.9027	0.081
Mof_C 	C 	0.1653	0.8415	0.9216	0.25
Mof_C 	C 	0.3722	0.9486	0.0862	0.441
Mof_O 	O 	0.1574	0.6956	0.0322	-0.345
Mof_C 	C 	0.1543	0.6707	0.9571	0.069
Mof_Zn	Zn	0.78512	0.09294	0.40863	0.984
Mof_O 	O 	0.83257	0.18203	0.33903	-0.679
Mof_O 	O 	0.98817	0.24903	0.37833	-0.459
Mof_C 	C 	0.77497	0.13163	0.21143	-0.192
Mof_O 	O 	0.73527	0.03683	0.50393	-0.605
Mof_C 	C 	0.88957	0.20923	0.20843	-0.109
Mof_H 	H 	0.92917	0.23893	0.23603	0.08
Mof_C 	C 	0.83197	0.17483	0.25493	0.249
Mof_C 	C 	0.03887	0.28193	0.41953	0.377
Mof_O 	O 	0.82407	0.02893	0.36553	-0.334
Mof_C 	C 	0.82097	0.00403	0.29043	0.016
Mof_Zn	Zn	0.45178	0.42628	0.74197	0.985
Mof_O 	O 	0.49923	0.51537	0.67237	-0.679
Mof_O 	O 	0.65483	0.58237	0.71167	-0.497
Mof_C 	C 	0.44163	0.46497	0.54477	-0.19
Mof_O 	O 	0.40193	0.37017	0.83727	-0.602
Mof_C 	C 	0.55623	0.54257	0.54177	-0.116
Mof_H 	H 	0.59583	0.57227	0.56937	0.076
Mof_C 	C 	0.49863	0.50817	0.58827	0.251
Mof_C 	C 	0.70553	0.61527	0.75287	0.423
Mof_O 	O 	0.49073	0.36227	0.69887	-0.342
Mof_C 	C 	0.48763	0.33737	0.62377	0.073
Mof_Zn	Zn	0.24039	0.35884	0.0753	0.985
Mof_O 	O 	0.1513	0.3172	0.0057	-0.683
Mof_O 	O 	0.0843	0.4058	0.045	-0.497
Mof_C 	C 	0.2017	0.31	0.8781	-0.191
Mof_O 	O 	0.2965	0.3651	0.1706	-0.603
Mof_C 	C 	0.1241	0.347	0.8751	-0.116
Mof_H 	H 	0.0944	0.3569	0.9027	0.07
Mof_C 	C 	0.1585	0.3238	0.9216	0.247
Mof_C 	C 	0.0514	0.4236	0.0862	0.407
Mof_O 	O 	0.3044	0.4618	0.0322	-0.342
Mof_C 	C 	0.3293	0.4836	0.9571	0.073
Mof_Zn	Zn	0.90706	0.69217	0.40863	0.987
Mof_O 	O 	0.81797	0.65053	0.33903	-0.678
Mof_O 	O 	0.75097	0.73913	0.37833	-0.495
Mof_C 	C 	0.86837	0.64333	0.21143	-0.184
Mof_O 	O 	0.96317	0.69843	0.50393	-0.599
Mof_C 	C 	0.79077	0.68033	0.20843	-0.113
Mof_H 	H 	0.76107	0.69023	0.23603	0.076
Mof_C 	C 	0.82517	0.65713	0.25493	0.25
Mof_C 	C 	0.71807	0.75693	0.41953	0.426
Mof_O 	O 	0.97107	0.79513	0.36553	-0.344
Mof_C 	C 	0.99597	0.81693	0.29043	0.136
Mof_Zn	Zn	0.57372	0.02551	0.74197	0.973
Mof_O 	O 	0.48463	0.98387	0.67237	-0.679
Mof_O 	O 	0.41763	0.07247	0.71167	-0.506
Mof_C 	C 	0.53503	0.97667	0.54477	-0.235
Mof_O 	O 	0.62983	0.03177	0.83727	-0.611
Mof_C 	C 	0.45743	0.01367	0.54177	-0.209
Mof_H 	H 	0.42773	0.02357	0.56937	0.098
Mof_C 	C 	0.49183	0.99047	0.58827	0.328
Mof_C 	C 	0.38473	0.09027	0.75287	0.425
Mof_O 	O 	0.63773	0.12847	0.69887	-0.346
Mof_C 	C 	0.66263	0.15027	0.62377	0.07
Mof_Zn	Zn	0.88155	0.64116	0.4247	0.985
Mof_O 	O 	0.8341	0.6828	0.4943	-0.679
Mof_O 	O 	0.6785	0.5942	0.455	-0.498
Mof_C 	C 	0.8917	0.69	0.6219	-0.199
Mof_O 	O 	0.9314	0.6349	0.3294	-0.592
Mof_C 	C 	0.7771	0.653	0.6249	-0.119
Mof_H 	H 	0.7375	0.6431	0.5973	0.078
Mof_C 	C 	0.8347	0.6762	0.5784	0.258
Mof_C 	C 	0.6278	0.5764	0.4138	0.424
Mof_O 	O 	0.8426	0.5382	0.4678	-0.34
Mof_C 	C 	0.8457	0.5164	0.5429	0.077
Mof_Zn	Zn	0.54822	0.97449	0.75803	0.996
Mof_O 	O 	0.50077	0.01613	0.82763	-0.676
Mof_O 	O 	0.34517	0.92753	0.78833	-0.484
Mof_C 	C 	0.55837	0.02333	0.95523	-0.146
Mof_O 	O 	0.59807	0.96823	0.66273	-0.594
Mof_C 	C 	0.44377	0.98633	0.95823	-0.023
Mof_H 	H 	0.40417	0.97643	0.93063	0.055
Mof_C 	C 	0.50137	0.00953	0.91173	0.174
Mof_C 	C 	0.29447	0.90973	0.74713	0.423
Mof_O 	O 	0.50927	0.87153	0.80113	-0.338
Mof_C 	C 	0.51237	0.84973	0.87623	0.075
Mof_Zn	Zn	0.21488	0.30783	0.09137	0.984
Mof_O 	O 	0.16743	0.34947	0.16097	-0.681
Mof_O 	O 	0.01183	0.26087	0.12167	-0.538
Mof_C 	C 	0.22503	0.35667	0.28857	-0.193
Mof_O 	O 	0.26473	0.30157	0.99607	-0.603
Mof_C 	C 	0.11043	0.31967	0.29157	-0.125
Mof_H 	H 	0.07083	0.30977	0.26397	0.072
Mof_C 	C 	0.16803	0.34287	0.24507	0.254
Mof_C 	C 	0.96113	0.24307	0.08047	0.469
Mof_O 	O 	0.17593	0.20487	0.13447	-0.348
Mof_C 	C 	0.17903	0.18307	0.20957	0.067
Mof_Zn	Zn	0.75961	0.11845	0.4247	0.984
Mof_O 	O 	0.8487	0.1659	0.4943	-0.676
Mof_O 	O 	0.9157	0.3215	0.455	-0.498
Mof_C 	C 	0.7983	0.1083	0.6219	-0.179
Mof_O 	O 	0.7035	0.0686	0.3294	-0.611
Mof_C 	C 	0.8759	0.2229	0.6249	-0.112
Mof_H 	H 	0.9056	0.2625	0.5973	0.081
Mof_C 	C 	0.8415	0.1653	0.5784	0.249
Mof_C 	C 	0.9486	0.3722	0.4138	0.442
Mof_O 	O 	0.6956	0.1574	0.4678	-0.344
Mof_C 	C 	0.6707	0.1543	0.5429	0.069
Mof_Zn	Zn	0.42628	0.45178	0.75803	0.985
Mof_O 	O 	0.51537	0.49923	0.82763	-0.679
Mof_O 	O 	0.58237	0.65483	0.78833	-0.497
Mof_C 	C 	0.46497	0.44163	0.95523	-0.19
Mof_O 	O 	0.37017	0.40193	0.66273	-0.602
Mof_C 	C 	0.54257	0.55623	0.95823	-0.116
Mof_H 	H 	0.57227	0.59583	0.93063	0.076
Mof_C 	C 	0.50817	0.49863	0.91173	0.251
Mof_C 	C 	0.61527	0.70553	0.74713	0.423
Mof_O 	O 	0.36227	0.49073	0.80113	-0.342
Mof_C 	C 	0.33737	0.48763	0.87623	0.073
Mof_Zn	Zn	0.09294	0.78512	0.09137	0.984
Mof_O 	O 	0.18203	0.83257	0.16097	-0.679
Mof_O 	O 	0.24903	0.98817	0.12167	-0.46
Mof_C 	C 	0.13163	0.77497	0.28857	-0.192
Mof_O 	O 	0.03683	0.73527	0.99607	-0.605
Mof_C 	C 	0.20923	0.88957	0.29157	-0.11
Mof_H 	H 	0.23893	0.92917	0.26397	0.08
Mof_C 	C 	0.17483	0.83197	0.24507	0.249
Mof_C 	C 	0.28193	0.03887	0.08047	0.378
Mof_O 	O 	0.02893	0.82407	0.13447	-0.334
Mof_C 	C 	0.00403	0.82097	0.20957	0.015
Mof_Zn	Zn	0.35884	0.24039	0.4247	0.985
Mof_O 	O 	0.3172	0.1513	0.4943	-0.683
Mof_O 	O 	0.4058	0.0843	0.455	-0.496
Mof_C 	C 	0.31	0.2017	0.6219	-0.191
Mof_O 	O 	0.3651	0.2965	0.3294	-0.603
Mof_C 	C 	0.347	0.1241	0.6249	-0.116
Mof_H 	H 	0.3569	0.0944	0.5973	0.07
Mof_C 	C 	0.3238	0.1585	0.5784	0.247
Mof_C 	C 	0.4236	0.0514	0.4138	0.406
Mof_O 	O 	0.4618	0.3044	0.4678	-0.342
Mof_C 	C 	0.4836	0.3293	0.5429	0.073
Mof_Zn	Zn	0.02551	0.57372	0.75803	0.973
Mof_O 	O 	0.98387	0.48463	0.82763	-0.679
Mof_O 	O 	0.07247	0.41763	0.78833	-0.506
Mof_C 	C 	0.97667	0.53503	0.95523	-0.235
Mof_O 	O 	0.03177	0.62983	0.66273	-0.61
Mof_C 	C 	0.01367	0.45743	0.95823	-0.207
Mof_H 	H 	0.02357	0.42773	0.93063	0.098
Mof_C 	C 	0.99047	0.49183	0.91173	0.327
Mof_C 	C 	0.09027	0.38473	0.74713	0.425
Mof_O 	O 	0.12847	0.63773	0.80113	-0.346
Mof_C 	C 	0.15027	0.66263	0.87623	0.07
Mof_Zn	Zn	0.69217	0.90706	0.09137	0.987
Mof_O 	O 	0.65053	0.81797	0.16097	-0.678
Mof_O 	O 	0.73913	0.75097	0.12167	-0.495
Mof_C 	C 	0.64333	0.86837	0.28857	-0.184
Mof_O 	O 	0.69843	0.96317	0.99607	-0.6
Mof_C 	C 	0.68033	0.79077	0.29157	-0.113
Mof_H 	H 	0.69023	0.76107	0.26397	0.076
Mof_C 	C 	0.65713	0.82517	0.24507	0.25
Mof_C 	C 	0.75693	0.71807	0.08047	0.426
Mof_O 	O 	0.79513	0.97107	0.13447	-0.344
Mof_C 	C 	0.81693	0.99597	0.20957	0.135
Mof_Zn	Zn	0.35884	0.11845	0.9247	0.984
Mof_O 	O 	0.3172	0.1659	0.9943	-0.68
Mof_O 	O 	0.4058	0.3215	0.955	-0.498
Mof_C 	C 	0.31	0.1083	0.1219	-0.18
Mof_O 	O 	0.3651	0.0686	0.8294	-0.612
Mof_C 	C 	0.347	0.2229	0.1249	-0.112
Mof_H 	H 	0.3569	0.2625	0.0973	0.075
Mof_C 	C 	0.3238	0.1653	0.0784	0.245
Mof_C 	C 	0.4236	0.3722	0.9138	0.424
Mof_O 	O 	0.4618	0.1574	0.9678	-0.344
Mof_C 	C 	0.4836	0.1543	0.0429	0.069
Mof_Zn	Zn	0.02551	0.45178	0.25803	0.973
Mof_O 	O 	0.98387	0.49923	0.32763	-0.679
Mof_O 	O 	0.07247	0.65483	0.28833	-0.506
Mof_C 	C 	0.97667	0.44163	0.45523	-0.235
Mof_O 	O 	0.03177	0.40193	0.16273	-0.61
Mof_C 	C 	0.01367	0.55623	0.45823	-0.209
Mof_H 	H 	0.02357	0.59583	0.43063	0.098
Mof_C 	C 	0.99047	0.49863	0.41173	0.328
Mof_C 	C 	0.09027	0.70553	0.24713	0.424
Mof_O 	O 	0.12847	0.49073	0.30113	-0.346
Mof_C 	C 	0.15027	0.48763	0.37623	0.07
Mof_Zn	Zn	0.69217	0.78512	0.59137	0.985
Mof_O 	O 	0.65053	0.83257	0.66097	-0.678
Mof_O 	O 	0.73913	0.98817	0.62167	-0.456
Mof_C 	C 	0.64333	0.77497	0.78857	-0.187
Mof_O 	O 	0.69843	0.73527	0.49607	-0.602
Mof_C 	C 	0.68033	0.88957	0.79157	-0.107
Mof_H 	H 	0.69023	0.92917	0.76397	0.08
Mof_C 	C 	0.65713	0.83197	0.74507	0.248
Mof_C 	C 	0.75693	0.03887	0.58047	0.379
Mof_O 	O 	0.79513	0.82407	0.63447	-0.336
Mof_C 	C 	0.81693	0.82097	0.70957	0.079
Mof_Zn	Zn	0.88155	0.24039	0.9247	0.985
Mof_O 	O 	0.8341	0.1513	0.9943	-0.683
Mof_O 	O 	0.6785	0.0843	0.955	-0.497
Mof_C 	C 	0.8917	0.2017	0.1219	-0.201
Mof_O 	O 	0.9314	0.2965	0.8294	-0.592
Mof_C 	C 	0.7771	0.1241	0.1249	-0.12
Mof_H 	H 	0.7375	0.0944	0.0973	0.072
Mof_C 	C 	0.8347	0.1585	0.0784	0.255
Mof_C 	C 	0.6278	0.0514	0.9138	0.407
Mof_O 	O 	0.8426	0.3044	0.9678	-0.341
Mof_C 	C 	0.8457	0.3293	0.0429	0.077
Mof_Zn	Zn	0.54822	0.57372	0.25803	0.985
Mof_O 	O 	0.50077	0.48463	0.32763	-0.679
Mof_O 	O 	0.34517	0.41763	0.28833	-0.498
Mof_C 	C 	0.55837	0.53503	0.45523	-0.19
Mof_O 	O 	0.59807	0.62983	0.16273	-0.602
Mof_C 	C 	0.44377	0.45743	0.45823	-0.116
Mof_H 	H 	0.40417	0.42773	0.43063	0.076
Mof_C 	C 	0.50137	0.49183	0.41173	0.251
Mof_C 	C 	0.29447	0.38473	0.24713	0.425
Mof_O 	O 	0.50927	0.63773	0.30113	-0.342
Mof_C 	C 	0.51237	0.66263	0.37623	0.073
Mof_Zn	Zn	0.21488	0.90706	0.59137	0.986
Mof_O 	O 	0.16743	0.81797	0.66097	-0.68
Mof_O 	O 	0.01183	0.75097	0.62167	-0.536
Mof_C 	C 	0.22503	0.86837	0.78857	-0.187
Mof_O 	O 	0.26473	0.96317	0.49607	-0.6
Mof_C 	C 	0.11043	0.79077	0.79157	-0.121
Mof_H 	H 	0.07083	0.76107	0.76397	0.072
Mof_C 	C 	0.16803	0.82517	0.74507	0.253
Mof_C 	C 	0.96113	0.71807	0.58047	0.47
Mof_O 	O 	0.17593	0.97107	0.63447	-0.35
Mof_C 	C 	0.17903	0.99597	0.70957	0.13
Mof_Zn	Zn	0.75961	0.64116	0.9247	0.985
Mof_O 	O 	0.8487	0.6828	0.9943	-0.677
Mof_O 	O 	0.9157	0.5942	0.955	-0.499
Mof_C 	C 	0.7983	0.69	0.1219	-0.189
Mof_O 	O 	0.7035	0.6349	0.8294	-0.602
Mof_C 	C 	0.8759	0.653	0.1249	-0.116
Mof_H 	H 	0.9056	0.6431	0.0973	0.082
Mof_C 	C 	0.8415	0.6762	0.0784	0.256
Mof_C 	C 	0.9486	0.5764	0.9138	0.441
Mof_O 	O 	0.6956	0.5382	0.9678	-0.343
Mof_C 	C 	0.6707	0.5164	0.0429	0.072
Mof_Zn	Zn	0.42628	0.97449	0.25803	0.996
Mof_O 	O 	0.51537	0.01613	0.32763	-0.676
Mof_O 	O 	0.58237	0.92753	0.28833	-0.484
Mof_C 	C 	0.46497	0.02333	0.45523	-0.145
Mof_O 	O 	0.37017	0.96823	0.16273	-0.594
Mof_C 	C 	0.54257	0.98633	0.45823	-0.022
Mof_H 	H 	0.57227	0.97643	0.43063	0.054
Mof_C 	C 	0.50817	0.00953	0.41173	0.174
Mof_C 	C 	0.61527	0.90973	0.24713	0.422
Mof_O 	O 	0.36227	0.87153	0.30113	-0.338
Mof_C 	C 	0.33737	0.84973	0.37623	0.075
Mof_Zn	Zn	0.09294	0.30783	0.59137	0.983
Mof_O 	O 	0.18203	0.34947	0.66097	-0.68
Mof_O 	O 	0.24903	0.26087	0.62167	-0.5
Mof_C 	C 	0.13163	0.35667	0.78857	-0.195
Mof_O 	O 	0.03683	0.30157	0.49607	-0.605
Mof_C 	C 	0.20923	0.31967	0.79157	-0.119
Mof_H 	H 	0.23893	0.30977	0.76397	0.076
Mof_C 	C 	0.17483	0.34287	0.74507	0.252
Mof_C 	C 	0.28193	0.24307	0.58047	0.422
Mof_O 	O 	0.02893	0.20487	0.63447	-0.34
Mof_C 	C 	0.00403	0.18307	0.70957	0.01
Mof_Zn	Zn	0.11845	0.35884	0.5753	0.984
Mof_O 	O 	0.1659	0.3172	0.5057	-0.679
Mof_O 	O 	0.3215	0.4058	0.545	-0.497
Mof_C 	C 	0.1083	0.31	0.3781	-0.18
Mof_O 	O 	0.0686	0.3651	0.6706	-0.612
Mof_C 	C 	0.2229	0.347	0.3751	-0.112
Mof_H 	H 	0.2625	0.3569	0.4027	0.075
Mof_C 	C 	0.1653	0.3238	0.4216	0.244
Mof_C 	C 	0.3722	0.4236	0.5862	0.424
Mof_O 	O 	0.1574	0.4618	0.5322	-0.344
Mof_C 	C 	0.1543	0.4836	0.4571	0.069
Mof_Zn	Zn	0.78512	0.69217	0.90863	0.985
Mof_O 	O 	0.83257	0.65053	0.83903	-0.678
Mof_O 	O 	0.98817	0.73913	0.87833	-0.457
Mof_C 	C 	0.77497	0.64333	0.71143	-0.187
Mof_O 	O 	0.73527	0.69843	0.00393	-0.602
Mof_C 	C 	0.88957	0.68033	0.70843	-0.107
Mof_H 	H 	0.92917	0.69023	0.73603	0.08
Mof_C 	C 	0.83197	0.65713	0.75493	0.248
Mof_C 	C 	0.03887	0.75693	0.91953	0.38
Mof_O 	O 	0.82407	0.79513	0.86553	-0.336
Mof_C 	C 	0.82097	0.81693	0.79043	0.079
Mof_Zn	Zn	0.45178	0.02551	0.24197	0.974
Mof_O 	O 	0.49923	0.98387	0.17237	-0.679
Mof_O 	O 	0.65483	0.07247	0.21167	-0.506
Mof_C 	C 	0.44163	0.97667	0.04477	-0.235
Mof_O 	O 	0.40193	0.03177	0.33727	-0.61
Mof_C 	C 	0.55623	0.01367	0.04177	-0.207
Mof_H 	H 	0.59583	0.02357	0.06937	0.098
Mof_C 	C 	0.49863	0.99047	0.08827	0.327
Mof_C 	C 	0.70553	0.09027	0.25287	0.423
Mof_O 	O 	0.49073	0.12847	0.19887	-0.346
Mof_C 	C 	0.48763	0.15027	0.12377	0.07
Mof_Zn	Zn	0.24039	0.88155	0.5753	0.986
Mof_O 	O 	0.1513	0.8341	0.5057	-0.683
Mof_O 	O 	0.0843	0.6785	0.545	-0.497
Mof_C 	C 	0.2017	0.8917	0.3781	-0.2
Mof_O 	O 	0.2965	0.9314	0.6706	-0.592
Mof_C 	C 	0.1241	0.7771	0.3751	-0.119
Mof_H 	H 	0.0944	0.7375	0.4027	0.072
Mof_C 	C 	0.1585	0.8347	0.4216	0.254
Mof_C 	C 	0.0514	0.6278	0.5862	0.406
Mof_O 	O 	0.3044	0.8426	0.5322	-0.34
Mof_C 	C 	0.3293	0.8457	0.4571	0.077
Mof_Zn	Zn	0.90706	0.21488	0.90863	0.986
Mof_O 	O 	0.81797	0.16743	0.83903	-0.68
Mof_O 	O 	0.75097	0.01183	0.87833	-0.536
Mof_C 	C 	0.86837	0.22503	0.71143	-0.187
Mof_O 	O 	0.96317	0.26473	0.00393	-0.6
Mof_C 	C 	0.79077	0.11043	0.70843	-0.122
Mof_H 	H 	0.76107	0.07083	0.73603	0.072
Mof_C 	C 	0.82517	0.16803	0.75493	0.253
Mof_C 	C 	0.71807	0.96113	0.91953	0.47
Mof_O 	O 	0.97107	0.17593	0.86553	-0.35
Mof_C 	C 	0.99597	0.17903	0.79043	0.13
Mof_Zn	Zn	0.57372	0.54822	0.24197	0.985
Mof_O 	O 	0.48463	0.50077	0.17237	-0.679
Mof_O 	O 	0.41763	0.34517	0.21167	-0.498
Mof_C 	C 	0.53503	0.55837	0.04477	-0.19
Mof_O 	O 	0.62983	0.59807	0.33727	-0.602
Mof_C 	C 	0.45743	0.44377	0.04177	-0.116
Mof_H 	H 	0.42773	0.40417	0.06937	0.076
Mof_C 	C 	0.49183	0.50137	0.08827	0.251
Mof_C 	C 	0.38473	0.29447	0.25287	0.425
Mof_O 	O 	0.63773	0.50927	0.19887	-0.342
Mof_C 	C 	0.66263	0.51237	0.12377	0.072
Mof_Zn	Zn	0.64116	0.75961	0.5753	0.985
Mof_O 	O 	0.6828	0.8487	0.5057	-0.676
Mof_O 	O 	0.5942	0.9157	0.545	-0.498
Mof_C 	C 	0.69	0.7983	0.3781	-0.189
Mof_O 	O 	0.6349	0.7035	0.6706	-0.602
Mof_C 	C 	0.653	0.8759	0.3751	-0.116
Mof_H 	H 	0.6431	0.9056	0.4027	0.082
Mof_C 	C 	0.6762	0.8415	0.4216	0.255
Mof_C 	C 	0.5764	0.9486	0.5862	0.441
Mof_O 	O 	0.5382	0.6956	0.5322	-0.342
Mof_C 	C 	0.5164	0.6707	0.4571	0.073
Mof_Zn	Zn	0.30783	0.09294	0.90863	0.983
Mof_O 	O 	0.34947	0.18203	0.83903	-0.68
Mof_O 	O 	0.26087	0.24903	0.87833	-0.5
Mof_C 	C 	0.35667	0.13163	0.71143	-0.195
Mof_O 	O 	0.30157	0.03683	0.00393	-0.605
Mof_C 	C 	0.31967	0.20923	0.70843	-0.119
Mof_H 	H 	0.30977	0.23893	0.73603	0.076
Mof_C 	C 	0.34287	0.17483	0.75493	0.252
Mof_C 	C 	0.24307	0.28193	0.91953	0.422
Mof_O 	O 	0.20487	0.02893	0.86553	-0.34
Mof_C 	C 	0.18307	0.00403	0.79043	0.009
Mof_Zn	Zn	0.97449	0.42628	0.24197	0.997
Mof_O 	O 	0.01613	0.51537	0.17237	-0.676
Mof_O 	O 	0.92753	0.58237	0.21167	-0.484
Mof_C 	C 	0.02333	0.46497	0.04477	-0.146
Mof_O 	O 	0.96823	0.37017	0.33727	-0.594
Mof_C 	C 	0.98633	0.54257	0.04177	-0.022
Mof_H 	H 	0.97643	0.57227	0.06937	0.055
Mof_C 	C 	0.00953	0.50817	0.08827	0.174
Mof_C 	C 	0.90973	0.61527	0.25287	0.422
Mof_O 	O 	0.87153	0.36227	0.19887	-0.338
Mof_C 	C 	0.84973	0.33737	0.12377	0.075
Mof_Zn	Zn	0.66667	0.76196	0.08333	1.238
Mof_Zn	Zn	0.23804	0.9047	0.08333	1.238
Mof_Zn	Zn	0.0953	0.33333	0.08333	1.236
Mof_Zn	Zn	0.76196	0.66667	0.41667	1.238
Mof_Zn	Zn	0.42863	0	0.75	1.226
Mof_Zn	Zn	0.9047	0.23804	0.41667	1.238
Mof_Zn	Zn	0.57137	0.57137	0.75	1.237
Mof_Zn	Zn	0.33333	0.0953	0.41667	1.236
Mof_Zn	Zn	3.04472e-17	0.42863	0.75	1.227
Mof_Zn	Zn	0.33333	0.23804	0.91667	1.237
Mof_Zn	Zn	-2.12055e-17	0.57137	0.25	1.226
Mof_Zn	Zn	0.76196	0.0953	0.91667	1.236
Mof_Zn	Zn	0.42863	0.42863	0.25	1.237
Mof_Zn	Zn	0.9047	0.66667	0.91667	1.238
Mof_Zn	Zn	0.57137	0	0.25	1.226
Mof_Zn	Zn	0.23804	0.33333	0.58333	1.237
Mof_Zn	Zn	0.0953	0.76196	0.58333	1.236
Mof_Zn	Zn	0.66667	0.9047	0.58333	1.239
_end
