data_functionalizedCrystal
_audit_creation_method	'EQeq! by Chris Wilmer'
_symmetry_space_group_name_H-M	'P1'
_symmetry_Int_Tables_number	1
_symmetry_cell_setting	triclinic
loop_
_symmetry_equiv_pos_as_xyz
  x,y,z
_cell_length_a	18.7892
_cell_length_b	23.2307
_cell_length_c	21.1355
_cell_angle_alpha	90
_cell_angle_beta	95.085
_cell_angle_gamma	90
loop_
_atom_site_label
_atom_site_type_symbol
_atom_site_fract_x
_atom_site_fract_y
_atom_site_fract_z
_atom_site_charge
Mof_Mn	Mn	0.16197	0.88138	0.34316	0.918
Mof_Mn	Mn	0.26885	0.87838	0.16902	0.921
Mof_Mn	Mn	0.20685	0.0062	0.24693	0.865
Mof_Mn	Mn	0.70725	0.74936	0.25895	0.877
Mof_Mn	Mn	0.66257	0.88231	0.34137	0.921
Mof_Mn	Mn	0.76902	0.8679	0.16734	0.914
Mof_O 	O 	0.27741	0.89541	0.34485	-0.371
Mof_O 	O 	0.2946	0.94114	0.25373	-0.422
Mof_O 	O 	0.2611	0.80927	0.23194	-0.393
Mof_O 	O 	0.1725	0.80061	0.29597	-0.377
Mof_O 	O 	0.65337	0.86443	0.15746	-0.367
Mof_O 	O 	0.63935	0.82804	0.25415	-0.45
Mof_O 	O 	0.74225	0.44635	0.28344	-0.384
Mof_O 	O 	0.82775	0.45691	0.21576	-0.381
Mof_O 	O 	0.15349	0.68865	0.90519	-0.376
Mof_O 	O 	0.2211	0.75256	0.85811	-0.394
Mof_O 	O 	0.2064	0.01283	0.14648	-0.387
Mof_O 	O 	0.2807	0.94839	0.10817	-0.382
Mof_O 	O 	0.77702	0.86723	0.34429	-0.371
Mof_O 	O 	0.79557	0.81291	0.25914	-0.422
Mof_O 	O 	0.13723	0.92896	0.25153	-0.424
Mof_O 	O 	0.1528	0.88377	0.15972	-0.35
Mof_O 	O 	0.1951	0.76386	0.66004	-0.39
Mof_O 	O 	0.2778	0.71058	0.61721	-0.381
Mof_O 	O 	0.2242	0.01584	0.34631	-0.383
Mof_O 	O 	0.1549	0.95755	0.39918	-0.381
Mof_N 	N 	0.5448	0.90275	0.3443	-0.173
Mof_N 	N 	0.2432	0.597	0.2524	-0.168
Mof_N 	N 	0.3874	0.86128	0.1688	-0.174
Mof_N 	N 	0.7601	0.65956	0.265	-0.168
Mof_N 	N 	0.2472	0.8209	0.0815	-0.168
Mof_N 	N 	0.241	0.0878	0.929	-0.166
Mof_N 	N 	0.0443	0.86176	0.3463	-0.172
Mof_N 	N 	0.8872	0.8833	0.1694	-0.175
Mof_N 	N 	0.1856	0.83607	0.4364	-0.169
Mof_N 	N 	0.3019	0.0641	0.5715	-0.167
Mof_C 	C 	0.5144	0.9456	0.307	0.045
Mof_C 	C 	0.4412	0.9521	0.2951	0.021
Mof_C 	C 	0.4998	0.8667	0.371	0.042
Mof_C 	C 	0.4263	0.8717	0.3619	0.025
Mof_C 	C 	0.3958	0.9139	0.322	-0.106
Mof_C 	C 	0.3162	0.9169	0.3069	0.377
Mof_C 	C 	0.2087	0.6216	0.2979	0.045
Mof_C 	C 	0.1971	0.6797	0.3018	0.024
Mof_C 	C 	0.2681	0.6328	0.209	0.033
Mof_C 	C 	0.2614	0.6915	0.2111	0.023
Mof_C 	C 	0.2259	0.7162	0.2587	-0.108
Mof_C 	C 	0.219	0.7807	0.2624	0.394
Mof_C 	C 	0.419	0.8206	0.2067	0.047
Mof_C 	C 	0.492	0.8149	0.218	0.006
Mof_C 	C 	0.431	0.8962	0.1385	0.048
Mof_C 	C 	0.503	0.8921	0.1454	0.024
Mof_C 	C 	0.5357	0.8519	0.187	-0.104
Mof_C 	C 	0.6155	0.8482	0.2002	0.372
Mof_C 	C 	0.7953	0.6355	0.2188	0.042
Mof_C 	C 	0.8057	0.5766	0.2147	0.025
Mof_C 	C 	0.7361	0.6239	0.3081	0.034
Mof_C 	C 	0.7431	0.5657	0.3062	0.021
Mof_C 	C 	0.778	0.5406	0.258	-0.104
Mof_C 	C 	0.7839	0.4757	0.2523	0.388
Mof_C 	C 	0.1943	0.782	0.0757	0.052
Mof_C 	C 	0.1746	0.7523	0.0204	0.021
Mof_C 	C 	0.2831	0.8301	0.0306	0.045
Mof_C 	C 	0.2677	0.8025	0.9735	0.024
Mof_C 	C 	0.2117	0.7629	0.9678	-0.099
Mof_C 	C 	0.1935	0.7322	0.9052	0.38
Mof_C 	C 	0.1985	0.1035	0.9751	0.042
Mof_C 	C 	0.1987	0.0748	0.0318	0.023
Mof_C 	C 	0.285	0.0416	0.9412	0.047
Mof_C 	C 	0.2868	0.011	0.9967	0.026
Mof_C 	C 	0.2426	0.027	0.0434	-0.104
Mof_C 	C 	0.2431	0.9935	0.1039	0.381
Mof_C 	C 	0.9977	0.9001	0.3677	0.042
Mof_C 	C 	0.9248	0.894	0.3592	0.024
Mof_C 	C 	0.0154	0.8143	0.3163	0.047
Mof_C 	C 	0.9427	0.8066	0.3039	0.02
Mof_C 	C 	0.8956	0.8473	0.3252	-0.105
Mof_C 	C 	0.8166	0.8421	0.3092	0.374
Mof_C 	C 	0.9311	0.8465	0.1441	0.048
Mof_C 	C 	0.005	0.8524	0.1504	0.026
Mof_C 	C 	0.9169	0.9284	0.2021	0.045
Mof_C 	C 	0.9896	0.9367	0.2131	0.011
Mof_C 	C 	0.0348	0.8978	0.1872	-0.12
Mof_C 	C 	0.1509	0.85	0.4874	0.047
Mof_C 	C 	0.1644	0.8234	0.5462	0.023
Mof_C 	C 	0.2371	0.7949	0.4447	0.049
Mof_C 	C 	0.2538	0.767	0.5009	0.024
Mof_C 	C 	0.2159	0.7805	0.5529	-0.101
Mof_C 	C 	0.2313	0.749	0.6149	0.383
Mof_C 	C 	0.3261	0.0774	0.5141	0.043
Mof_C 	C 	0.2946	0.0568	0.4578	0.027
Mof_C 	C 	0.2466	0.0277	0.5712	0.053
Mof_C 	C 	0.2118	0.0055	0.5161	0.022
Mof_C 	C 	0.2365	0.0195	0.4574	-0.098
Mof_C 	C 	0.2012	0.9952	0.3963	0.381
Mof_C 	C 	0.109	0.9039	0.1977	0.338
Mof_Mn	Mn	0.33803	0.38138	0.15684	0.919
Mof_Mn	Mn	0.23115	0.37838	0.33098	0.922
Mof_Mn	Mn	0.29315	0.5062	0.25307	0.865
Mof_Mn	Mn	0.79275	0.24936	0.24105	0.878
Mof_Mn	Mn	0.83743	0.38231	0.15863	0.922
Mof_Mn	Mn	0.73098	0.3679	0.33266	0.915
Mof_O 	O 	0.22259	0.39541	0.15515	-0.37
Mof_O 	O 	0.2054	0.44114	0.24627	-0.421
Mof_O 	O 	0.2389	0.30927	0.26806	-0.392
Mof_O 	O 	0.3275	0.30061	0.20403	-0.376
Mof_O 	O 	0.84663	0.36443	0.34254	-0.366
Mof_O 	O 	0.86065	0.32804	0.24585	-0.449
Mof_O 	O 	0.75775	0.94635	0.21656	-0.383
Mof_O 	O 	0.67225	0.95691	0.28424	-0.38
Mof_O 	O 	0.34651	0.18865	0.59481	-0.375
Mof_O 	O 	0.2789	0.25256	0.64189	-0.393
Mof_O 	O 	0.2936	0.51283	0.35352	-0.387
Mof_O 	O 	0.2193	0.44839	0.39183	-0.381
Mof_O 	O 	0.72298	0.36723	0.15571	-0.37
Mof_O 	O 	0.70443	0.31291	0.24086	-0.421
Mof_O 	O 	0.36277	0.42896	0.24847	-0.424
Mof_O 	O 	0.3472	0.38377	0.34028	-0.35
Mof_O 	O 	0.3049	0.26386	0.83996	-0.39
Mof_O 	O 	0.2222	0.21058	0.88279	-0.381
Mof_O 	O 	0.2758	0.51584	0.15369	-0.384
Mof_O 	O 	0.3451	0.45755	0.10082	-0.381
Mof_N 	N 	0.9552	0.40275	0.1557	-0.173
Mof_N 	N 	0.2568	0.097	0.2476	-0.168
Mof_N 	N 	0.1126	0.36128	0.3312	-0.174
Mof_N 	N 	0.7399	0.15956	0.235	-0.168
Mof_N 	N 	0.2528	0.3209	0.4185	-0.168
Mof_N 	N 	0.259	0.5878	0.571	-0.166
Mof_N 	N 	0.4557	0.36176	0.1537	-0.172
Mof_N 	N 	0.6128	0.3833	0.3306	-0.175
Mof_N 	N 	0.3144	0.33607	0.0636	-0.169
Mof_N 	N 	0.1981	0.5641	0.9285	-0.167
Mof_C 	C 	0.9856	0.4456	0.193	0.045
Mof_C 	C 	0.0588	0.4521	0.2049	0.021
Mof_C 	C 	0.0002	0.3667	0.129	0.042
Mof_C 	C 	0.0737	0.3717	0.1381	0.025
Mof_C 	C 	0.1042	0.4139	0.178	-0.106
Mof_C 	C 	0.1838	0.4169	0.1931	0.377
Mof_C 	C 	0.2913	0.1216	0.2021	0.045
Mof_C 	C 	0.3029	0.1797	0.1982	0.024
Mof_C 	C 	0.2319	0.1328	0.291	0.033
Mof_C 	C 	0.2386	0.1915	0.2889	0.023
Mof_C 	C 	0.2741	0.2162	0.2413	-0.108
Mof_C 	C 	0.281	0.2807	0.2376	0.394
Mof_C 	C 	0.081	0.3206	0.2933	0.047
Mof_C 	C 	0.008	0.3149	0.282	0.006
Mof_C 	C 	0.069	0.3962	0.3615	0.048
Mof_C 	C 	0.997	0.3921	0.3546	0.024
Mof_C 	C 	0.9643	0.3519	0.313	-0.104
Mof_C 	C 	0.8845	0.3482	0.2998	0.372
Mof_C 	C 	0.7047	0.1355	0.2812	0.042
Mof_C 	C 	0.6943	0.0766	0.2853	0.025
Mof_C 	C 	0.7639	0.1239	0.1919	0.034
Mof_C 	C 	0.7569	0.0657	0.1938	0.022
Mof_C 	C 	0.722	0.0406	0.242	-0.103
Mof_C 	C 	0.7161	0.9757	0.2477	0.388
Mof_C 	C 	0.3057	0.282	0.4243	0.052
Mof_C 	C 	0.3254	0.2523	0.4796	0.022
Mof_C 	C 	0.2169	0.3301	0.4694	0.045
Mof_C 	C 	0.2323	0.3025	0.5265	0.024
Mof_C 	C 	0.2883	0.2629	0.5322	-0.099
Mof_C 	C 	0.3065	0.2322	0.5948	0.38
Mof_C 	C 	0.3015	0.6035	0.5249	0.042
Mof_C 	C 	0.3013	0.5748	0.4682	0.023
Mof_C 	C 	0.215	0.5416	0.5588	0.047
Mof_C 	C 	0.2132	0.511	0.5033	0.026
Mof_C 	C 	0.2574	0.527	0.4566	-0.104
Mof_C 	C 	0.2569	0.4935	0.3961	0.381
Mof_C 	C 	0.5023	0.4001	0.1323	0.042
Mof_C 	C 	0.5752	0.394	0.1408	0.024
Mof_C 	C 	0.4846	0.3143	0.1837	0.047
Mof_C 	C 	0.5573	0.3066	0.1961	0.02
Mof_C 	C 	0.6044	0.3473	0.1748	-0.105
Mof_C 	C 	0.6834	0.3421	0.1908	0.374
Mof_C 	C 	0.5689	0.3465	0.3559	0.048
Mof_C 	C 	0.495	0.3524	0.3496	0.026
Mof_C 	C 	0.5831	0.4284	0.2979	0.045
Mof_C 	C 	0.5104	0.4367	0.2869	0.012
Mof_C 	C 	0.4652	0.3978	0.3128	-0.12
Mof_C 	C 	0.3491	0.35	0.0126	0.047
Mof_C 	C 	0.3356	0.3234	0.9538	0.023
Mof_C 	C 	0.2629	0.2949	0.0553	0.05
Mof_C 	C 	0.2462	0.267	0.9991	0.023
Mof_C 	C 	0.2841	0.2805	0.9471	-0.101
Mof_C 	C 	0.2687	0.249	0.8851	0.383
Mof_C 	C 	0.1739	0.5774	0.9859	0.043
Mof_C 	C 	0.2054	0.5568	0.0422	0.027
Mof_C 	C 	0.2534	0.5277	0.9288	0.053
Mof_C 	C 	0.2882	0.5055	0.9839	0.022
Mof_C 	C 	0.2635	0.5195	0.0426	-0.098
Mof_C 	C 	0.2988	0.4952	0.1037	0.38
Mof_C 	C 	0.391	0.4039	0.3023	0.338
Mof_Mn	Mn	0.83803	0.11862	0.65684	0.919
Mof_Mn	Mn	0.73115	0.12162	0.83098	0.922
Mof_Mn	Mn	0.79315	0.9938	0.75307	0.866
Mof_Mn	Mn	0.29275	0.25064	0.74105	0.878
Mof_Mn	Mn	0.33743	0.11769	0.65863	0.922
Mof_Mn	Mn	0.23098	0.1321	0.83266	0.915
Mof_O 	O 	0.72259	0.10459	0.65515	-0.37
Mof_O 	O 	0.7054	0.05886	0.74627	-0.421
Mof_O 	O 	0.7389	0.19073	0.76806	-0.392
Mof_O 	O 	0.8275	0.19939	0.70403	-0.376
Mof_O 	O 	0.34663	0.13557	0.84254	-0.366
Mof_O 	O 	0.36065	0.17196	0.74585	-0.449
Mof_O 	O 	0.25775	0.55365	0.71656	-0.383
Mof_O 	O 	0.17225	0.54309	0.78424	-0.38
Mof_O 	O 	0.84651	0.31135	0.09481	-0.375
Mof_O 	O 	0.7789	0.24744	0.14189	-0.393
Mof_O 	O 	0.7936	0.98717	0.85352	-0.386
Mof_O 	O 	0.7193	0.05161	0.89183	-0.381
Mof_O 	O 	0.22298	0.13277	0.65571	-0.37
Mof_O 	O 	0.20443	0.18709	0.74086	-0.421
Mof_O 	O 	0.86277	0.07104	0.74847	-0.424
Mof_O 	O 	0.8472	0.11623	0.84028	-0.35
Mof_O 	O 	0.8049	0.23614	0.33996	-0.39
Mof_O 	O 	0.7222	0.28942	0.38279	-0.381
Mof_O 	O 	0.7758	0.98416	0.65369	-0.383
Mof_O 	O 	0.8451	0.04245	0.60082	-0.381
Mof_N 	N 	0.4552	0.09725	0.6557	-0.173
Mof_N 	N 	0.7568	0.403	0.7476	-0.168
Mof_N 	N 	0.6126	0.13872	0.8312	-0.174
Mof_N 	N 	0.2399	0.34044	0.735	-0.168
Mof_N 	N 	0.7528	0.1791	0.9185	-0.168
Mof_N 	N 	0.759	0.9122	0.071	-0.166
Mof_N 	N 	0.9557	0.13824	0.6537	-0.172
Mof_N 	N 	0.1128	0.1167	0.8306	-0.175
Mof_N 	N 	0.8144	0.16393	0.5636	-0.169
Mof_N 	N 	0.6981	0.9359	0.4285	-0.167
Mof_C 	C 	0.4856	0.0544	0.693	0.045
Mof_C 	C 	0.5588	0.0479	0.7049	0.021
Mof_C 	C 	0.5002	0.1333	0.629	0.042
Mof_C 	C 	0.5737	0.1283	0.6381	0.025
Mof_C 	C 	0.6042	0.0861	0.678	-0.106
Mof_C 	C 	0.6838	0.0831	0.6931	0.377
Mof_C 	C 	0.7913	0.3784	0.7021	0.045
Mof_C 	C 	0.8029	0.3203	0.6982	0.024
Mof_C 	C 	0.7319	0.3672	0.791	0.033
Mof_C 	C 	0.7386	0.3085	0.7889	0.023
Mof_C 	C 	0.7741	0.2838	0.7413	-0.108
Mof_C 	C 	0.781	0.2193	0.7376	0.394
Mof_C 	C 	0.581	0.1794	0.7933	0.047
Mof_C 	C 	0.508	0.1851	0.782	0.006
Mof_C 	C 	0.569	0.1038	0.8615	0.048
Mof_C 	C 	0.497	0.1079	0.8546	0.024
Mof_C 	C 	0.4643	0.1481	0.813	-0.104
Mof_C 	C 	0.3845	0.1518	0.7998	0.372
Mof_C 	C 	0.2047	0.3645	0.7812	0.042
Mof_C 	C 	0.1943	0.4234	0.7853	0.025
Mof_C 	C 	0.2639	0.3761	0.6919	0.034
Mof_C 	C 	0.2569	0.4343	0.6938	0.021
Mof_C 	C 	0.222	0.4594	0.742	-0.104
Mof_C 	C 	0.2161	0.5243	0.7477	0.388
Mof_C 	C 	0.8057	0.218	0.9243	0.052
Mof_C 	C 	0.8254	0.2477	0.9796	0.021
Mof_C 	C 	0.7169	0.1699	0.9694	0.045
Mof_C 	C 	0.7323	0.1975	0.0265	0.024
Mof_C 	C 	0.7883	0.2371	0.0322	-0.099
Mof_C 	C 	0.8065	0.2678	0.0948	0.38
Mof_C 	C 	0.8015	0.8965	0.0249	0.042
Mof_C 	C 	0.8013	0.9252	0.9682	0.023
Mof_C 	C 	0.715	0.9584	0.0588	0.047
Mof_C 	C 	0.7132	0.989	0.0033	0.026
Mof_C 	C 	0.7574	0.973	0.9566	-0.104
Mof_C 	C 	0.7569	0.0065	0.8961	0.381
Mof_C 	C 	0.0023	0.0999	0.6323	0.042
Mof_C 	C 	0.0752	0.106	0.6408	0.024
Mof_C 	C 	0.9846	0.1857	0.6837	0.047
Mof_C 	C 	0.0573	0.1934	0.6961	0.02
Mof_C 	C 	0.1044	0.1527	0.6748	-0.105
Mof_C 	C 	0.1834	0.1579	0.6908	0.374
Mof_C 	C 	0.0689	0.1535	0.8559	0.048
Mof_C 	C 	0.995	0.1476	0.8496	0.026
Mof_C 	C 	0.0831	0.0716	0.7979	0.045
Mof_C 	C 	0.0104	0.0633	0.7869	0.011
Mof_C 	C 	0.9652	0.1022	0.8128	-0.12
Mof_C 	C 	0.8491	0.15	0.5126	0.047
Mof_C 	C 	0.8356	0.1766	0.4538	0.023
Mof_C 	C 	0.7629	0.2051	0.5553	0.049
Mof_C 	C 	0.7462	0.233	0.4991	0.024
Mof_C 	C 	0.7841	0.2195	0.4471	-0.101
Mof_C 	C 	0.7687	0.251	0.3851	0.383
Mof_C 	C 	0.6739	0.9226	0.4859	0.043
Mof_C 	C 	0.7054	0.9432	0.5422	0.027
Mof_C 	C 	0.7534	0.9723	0.4288	0.053
Mof_C 	C 	0.7882	0.9945	0.4839	0.022
Mof_C 	C 	0.7635	0.9805	0.5426	-0.098
Mof_C 	C 	0.7988	0.0048	0.6037	0.381
Mof_C 	C 	0.891	0.0961	0.8023	0.338
Mof_Mn	Mn	0.66197	0.61862	0.84316	0.919
Mof_Mn	Mn	0.76885	0.62162	0.66902	0.922
Mof_Mn	Mn	0.70685	0.4938	0.74693	0.865
Mof_Mn	Mn	0.20725	0.75064	0.75895	0.878
Mof_Mn	Mn	0.16257	0.61769	0.84137	0.922
Mof_Mn	Mn	0.26902	0.6321	0.66734	0.915
Mof_O 	O 	0.77741	0.60459	0.84485	-0.37
Mof_O 	O 	0.7946	0.55886	0.75373	-0.421
Mof_O 	O 	0.7611	0.69073	0.73194	-0.392
Mof_O 	O 	0.6725	0.69939	0.79597	-0.376
Mof_O 	O 	0.15337	0.63557	0.65746	-0.366
Mof_O 	O 	0.13935	0.67196	0.75415	-0.449
Mof_O 	O 	0.24225	0.05365	0.78344	-0.383
Mof_O 	O 	0.32775	0.04309	0.71576	-0.38
Mof_O 	O 	0.65349	0.81135	0.40519	-0.375
Mof_O 	O 	0.7211	0.74744	0.35811	-0.393
Mof_O 	O 	0.7064	0.48717	0.64648	-0.387
Mof_O 	O 	0.7807	0.55161	0.60817	-0.381
Mof_O 	O 	0.27702	0.63277	0.84429	-0.37
Mof_O 	O 	0.29557	0.68709	0.75914	-0.421
Mof_O 	O 	0.63723	0.57104	0.75153	-0.424
Mof_O 	O 	0.6528	0.61623	0.65972	-0.35
Mof_O 	O 	0.6951	0.73614	0.16004	-0.39
Mof_O 	O 	0.7778	0.78942	0.11721	-0.381
Mof_O 	O 	0.7242	0.48416	0.84631	-0.384
Mof_O 	O 	0.6549	0.54245	0.89918	-0.381
Mof_N 	N 	0.0448	0.59725	0.8443	-0.173
Mof_N 	N 	0.7432	0.903	0.7524	-0.168
Mof_N 	N 	0.8874	0.63872	0.6688	-0.174
Mof_N 	N 	0.2601	0.84044	0.765	-0.168
Mof_N 	N 	0.7472	0.6791	0.5815	-0.168
Mof_N 	N 	0.741	0.4122	0.429	-0.166
Mof_N 	N 	0.5443	0.63824	0.8463	-0.172
Mof_N 	N 	0.3872	0.6167	0.6694	-0.175
Mof_N 	N 	0.6856	0.66393	0.9364	-0.169
Mof_N 	N 	0.8019	0.4359	0.0715	-0.167
Mof_C 	C 	0.0144	0.5544	0.807	0.045
Mof_C 	C 	0.9412	0.5479	0.7951	0.021
Mof_C 	C 	0.9998	0.6333	0.871	0.042
Mof_C 	C 	0.9263	0.6283	0.8619	0.025
Mof_C 	C 	0.8958	0.5861	0.822	-0.106
Mof_C 	C 	0.8162	0.5831	0.8069	0.377
Mof_C 	C 	0.7087	0.8784	0.7979	0.045
Mof_C 	C 	0.6971	0.8203	0.8018	0.024
Mof_C 	C 	0.7681	0.8672	0.709	0.033
Mof_C 	C 	0.7614	0.8085	0.7111	0.023
Mof_C 	C 	0.7259	0.7838	0.7587	-0.108
Mof_C 	C 	0.719	0.7193	0.7624	0.394
Mof_C 	C 	0.919	0.6794	0.7067	0.047
Mof_C 	C 	0.992	0.6851	0.718	0.006
Mof_C 	C 	0.931	0.6038	0.6385	0.048
Mof_C 	C 	0.003	0.6079	0.6454	0.024
Mof_C 	C 	0.0357	0.6481	0.687	-0.104
Mof_C 	C 	0.1155	0.6518	0.7002	0.372
Mof_C 	C 	0.2953	0.8645	0.7188	0.042
Mof_C 	C 	0.3057	0.9234	0.7147	0.025
Mof_C 	C 	0.2361	0.8761	0.8081	0.034
Mof_C 	C 	0.2431	0.9343	0.8062	0.022
Mof_C 	C 	0.278	0.9594	0.758	-0.103
Mof_C 	C 	0.2839	0.0243	0.7523	0.388
Mof_C 	C 	0.6943	0.718	0.5757	0.052
Mof_C 	C 	0.6746	0.7477	0.5204	0.022
Mof_C 	C 	0.7831	0.6699	0.5306	0.045
Mof_C 	C 	0.7677	0.6975	0.4735	0.024
Mof_C 	C 	0.7117	0.7371	0.4678	-0.099
Mof_C 	C 	0.6935	0.7678	0.4052	0.38
Mof_C 	C 	0.6985	0.3965	0.4751	0.042
Mof_C 	C 	0.6987	0.4252	0.5318	0.023
Mof_C 	C 	0.785	0.4584	0.4412	0.047
Mof_C 	C 	0.7868	0.489	0.4967	0.026
Mof_C 	C 	0.7426	0.473	0.5434	-0.104
Mof_C 	C 	0.7431	0.5065	0.6039	0.381
Mof_C 	C 	0.4977	0.5999	0.8677	0.042
Mof_C 	C 	0.4248	0.606	0.8592	0.024
Mof_C 	C 	0.5154	0.6857	0.8163	0.047
Mof_C 	C 	0.4427	0.6934	0.8039	0.02
Mof_C 	C 	0.3956	0.6527	0.8252	-0.105
Mof_C 	C 	0.3166	0.6579	0.8092	0.374
Mof_C 	C 	0.4311	0.6535	0.6441	0.048
Mof_C 	C 	0.505	0.6476	0.6504	0.026
Mof_C 	C 	0.4169	0.5716	0.7021	0.045
Mof_C 	C 	0.4896	0.5633	0.7131	0.012
Mof_C 	C 	0.5348	0.6022	0.6872	-0.12
Mof_C 	C 	0.6509	0.65	0.9874	0.047
Mof_C 	C 	0.6644	0.6766	0.0462	0.023
Mof_C 	C 	0.7371	0.7051	0.9447	0.05
Mof_C 	C 	0.7538	0.733	0.0009	0.023
Mof_C 	C 	0.7159	0.7195	0.0529	-0.101
Mof_C 	C 	0.7313	0.751	0.1149	0.383
Mof_C 	C 	0.8261	0.4226	0.0141	0.043
Mof_C 	C 	0.7946	0.4432	0.9578	0.027
Mof_C 	C 	0.7466	0.4723	0.0712	0.053
Mof_C 	C 	0.7118	0.4945	0.0161	0.022
Mof_C 	C 	0.7365	0.4805	0.9574	-0.098
Mof_C 	C 	0.7012	0.5048	0.8963	0.38
Mof_C 	C 	0.609	0.5961	0.6977	0.338
_end
