data_functionalizedCrystal
_audit_creation_method	'EQeq! by Chris Wilmer'
_symmetry_space_group_name_H-M	'P1'
_symmetry_Int_Tables_number	1
_symmetry_cell_setting	triclinic
loop_
_symmetry_equiv_pos_as_xyz
  x,y,z
_cell_length_a	17.0474
_cell_length_b	17.0474
_cell_length_c	32.588
_cell_angle_alpha	94.1421
_cell_angle_beta	94.1421
_cell_angle_gamma	107.555
loop_
_atom_site_label
_atom_site_type_symbol
_atom_site_fract_x
_atom_site_fract_y
_atom_site_fract_z
_atom_site_charge
Mof_Zn	Zn	0.22035	0.24579	0.3757	1.22
Mof_Zn	Zn	0.25312	0.23668	0.96701	1.22
Mof_Zn	Zn	0.23668	0.25312	0.46701	1.22
Mof_Zn	Zn	0.24579	0.22035	0.8757	1.22
Mof_H 	H 	0.0868	0.2264	0.2317	0.084
Mof_H 	H 	0.3341	0.2531	0.3098	0.004
Mof_H 	H 	0.2624	0.4926	0.9809	0.023
Mof_H 	H 	0.9911	0.2417	0.482	0.015
Mof_H 	H 	0.8412	0.1716	0.8522	0.101
Mof_H 	H 	0.3208	0.2462	0.174	0.07
Mof_H 	H 	0.9602	0.2304	0.3571	0.017
Mof_H 	H 	0.4795	0.2937	0.3591	0.015
Mof_H 	H 	0.2668	0.1542	0.6053	0.088
Mof_H 	H 	0.2563	0.7251	0.9592	0.096
Mof_H 	H 	0.2239	0.4979	0.3693	0.006
Mof_H 	H 	0.274	0.7438	0.8818	0.099
Mof_H 	H 	0.9835	0.1807	0.8558	0.016
Mof_H 	H 	0.2509	0.3315	0.7395	0.09
Mof_H 	H 	0.2173	0.9999	0.4794	0.015
Mof_H 	H 	0.6147	0.3005	0.3568	0.094
Mof_H 	H 	0.2087	0.3659	0.6075	0.09
Mof_H 	H 	0.222	0.638	0.4973	0.096
Mof_H 	H 	0.2552	0.6298	0.9766	0.084
Mof_H 	H 	0.638	0.222	0.9973	0.096
Mof_H 	H 	0.2172	0.862	0.4758	0.1
Mof_H 	H 	0.2407	0.5081	0.4944	0.008
Mof_H 	H 	0.3593	0.2095	0.0369	-0.008
Mof_H 	H 	0.2066	0.627	0.3724	0.106
Mof_H 	H 	0.7251	0.2563	0.4592	0.096
Mof_H 	H 	0.2407	0.8255	0.8609	0.083
Mof_H 	H 	0.7438	0.274	0.3818	0.099
Mof_H 	H 	0.2304	0.9602	0.8571	0.016
Mof_H 	H 	0.3005	0.6147	0.8568	0.094
Mof_H 	H 	0.2095	0.3593	0.5369	-0.008
Mof_H 	H 	0.8255	0.2407	0.3609	0.083
Mof_H 	H 	0.2752	0.155	0.5355	-0.002
Mof_H 	H 	0.3659	0.2087	0.1075	0.09
Mof_H 	H 	0.8617	0.2553	0.4865	0.094
Mof_H 	H 	0.4926	0.2624	0.4809	0.022
Mof_H 	H 	0.1807	0.9835	0.3558	0.016
Mof_H 	H 	0.3315	0.2509	0.2395	0.09
Mof_H 	H 	0.1716	0.8412	0.3522	0.1
Mof_H 	H 	0.2245	0.0941	0.8028	0.005
Mof_H 	H 	0.2417	0.9911	0.982	0.014
Mof_H 	H 	0.5081	0.2407	0.9944	0.008
Mof_H 	H 	0.9999	0.2173	0.9794	0.015
Mof_H 	H 	0.6298	0.2552	0.4766	0.083
Mof_H 	H 	0.862	0.2172	0.9758	0.1
Mof_H 	H 	0.2462	0.3208	0.674	0.069
Mof_H 	H 	0.153	0.2356	0.1679	0.055
Mof_H 	H 	0.2937	0.4795	0.8591	0.014
Mof_H 	H 	0.0941	0.2245	0.3028	0.005
Mof_H 	H 	0.4979	0.2239	0.8693	0.006
Mof_H 	H 	0.1542	0.2668	0.1053	0.088
Mof_H 	H 	0.2356	0.153	0.6679	0.055
Mof_H 	H 	0.2553	0.8617	0.9865	0.094
Mof_H 	H 	0.627	0.2066	0.8724	0.106
Mof_H 	H 	0.2264	0.0868	0.7317	0.083
Mof_H 	H 	0.155	0.2752	0.0355	-0.002
Mof_H 	H 	0.2531	0.3341	0.8098	0.003
Mof_C 	C 	0.27025	0.38359	0.9206	0.405
Mof_C 	C 	0.23325	0.53239	0.46959	0.104
Mof_C 	C 	0.20968	0.88652	0.45113	-0.181
Mof_C 	C 	0.95774	0.24306	0.4576	0.101
Mof_C 	C 	0.23174	0.13786	0.74715	-0.146
Mof_C 	C 	0.24681	0.28195	0.75205	-0.155
Mof_C 	C 	0.52635	0.22345	0.89542	0.111
Mof_C 	C 	0.96848	0.20992	0.95338	0.097
Mof_C 	C 	0.26405	0.59875	0.95297	-0.16
Mof_C 	C 	0.31742	0.22218	0.05127	0.102
Mof_C 	C 	0.83213	0.24967	0.4244	0.134
Mof_C 	C 	0.38359	0.27025	0.4206	0.405
Mof_C 	C 	0.13786	0.23174	0.24715	-0.146
Mof_C 	C 	0.14306	0.23154	0.28939	0.078
Mof_C 	C 	0.20615	0.09403	0.4199	0.404
Mof_C 	C 	0.59875	0.26405	0.45297	-0.16
Mof_C 	C 	0.25007	0.88153	0.96023	-0.175
Mof_C 	C 	0.23154	0.14306	0.78939	0.078
Mof_C 	C 	0.21356	0.60264	0.39716	-0.187
Mof_C 	C 	0.19885	0.84115	0.41363	0.17
Mof_C 	C 	0.23772	0.98768	0.91901	-0.166
Mof_C 	C 	0.64514	0.21346	0.9354	0.164
Mof_C 	C 	0.5104	0.2866	0.38325	0.1
Mof_C 	C 	0.32217	0.22263	0.09316	-0.172
Mof_C 	C 	0.60264	0.21356	0.89716	-0.187
Mof_C 	C 	0.19717	0.25963	0.05031	0.095
Mof_C 	C 	0.20992	0.96848	0.45338	0.097
Mof_C 	C 	0.25782	0.19858	0.59171	-0.167
Mof_C 	C 	0.28908	0.58892	0.88154	-0.176
Mof_C 	C 	0.84115	0.19885	0.91363	0.17
Mof_C 	C 	0.51665	0.26615	0.45544	0.08
Mof_C 	C 	0.9585	0.1871	0.88047	0.097
Mof_C 	C 	0.2401	0.21088	0.72737	0.109
Mof_C 	C 	0.40447	0.24155	0.9288	0.422
Mof_C 	C 	0.21346	0.64514	0.4354	0.164
Mof_C 	C 	0.24155	0.40447	0.4288	0.422
Mof_C 	C 	0.24182	0.85998	0.88537	-0.162
Mof_C 	C 	0.19858	0.25782	0.09171	-0.167
Mof_C 	C 	0.60931	0.22281	0.9713	-0.187
Mof_C 	C 	0.98768	0.23772	0.41901	-0.166
Mof_C 	C 	0.07322	0.23442	0.41681	0.42
Mof_C 	C 	0.24325	0.26915	0.65986	-0.094
Mof_C 	C 	0.24306	0.95774	0.9576	0.101
Mof_C 	C 	0.2866	0.5104	0.88325	0.1
Mof_C 	C 	0.1871	0.9585	0.38047	0.097
Mof_C 	C 	0.23285	0.48975	0.43105	-0.173
Mof_C 	C 	0.93967	0.23573	0.38312	0.089
Mof_C 	C 	0.22281	0.60931	0.4713	-0.187
Mof_C 	C 	0.26329	0.24331	0.11488	0.128
Mof_C 	C 	0.2477	0.2835	0.79388	0.097
Mof_C 	C 	0.26915	0.24325	0.15986	-0.094
Mof_C 	C 	0.2835	0.2477	0.29388	0.097
Mof_C 	C 	0.58892	0.28908	0.38154	-0.176
Mof_C 	C 	0.473	0.27402	0.41933	-0.151
Mof_C 	C 	0.27474	0.63266	0.91639	0.135
Mof_C 	C 	0.88153	0.25007	0.46023	-0.175
Mof_C 	C 	0.22345	0.52635	0.39542	0.111
Mof_C 	C 	0.22263	0.32217	0.59316	-0.172
Mof_C 	C 	0.87412	0.18388	0.87806	-0.18
Mof_C 	C 	0.26615	0.51665	0.95544	0.08
Mof_C 	C 	0.23442	0.07322	0.91681	0.419
Mof_C 	C 	0.21088	0.2401	0.22737	0.109
Mof_C 	C 	0.23918	0.20482	0.68212	-0.071
Mof_C 	C 	0.23573	0.93967	0.88312	0.089
Mof_C 	C 	0.25963	0.19717	0.55031	0.095
Mof_C 	C 	0.24967	0.83213	0.9244	0.134
Mof_C 	C 	0.24331	0.26329	0.61488	0.128
Mof_C 	C 	0.48975	0.23285	0.93105	-0.173
Mof_C 	C 	0.53239	0.23325	0.96959	0.104
Mof_C 	C 	0.28195	0.24681	0.25205	-0.155
Mof_C 	C 	0.88652	0.20968	0.95113	-0.181
Mof_C 	C 	0.85998	0.24182	0.38537	-0.162
Mof_C 	C 	0.18388	0.87412	0.37806	-0.18
Mof_C 	C 	0.0034	0.19918	0.91747	-0.158
Mof_C 	C 	0.27402	0.473	0.91933	-0.151
Mof_C 	C 	0.63266	0.27474	0.41639	0.135
Mof_C 	C 	0.22218	0.31742	0.55127	0.102
Mof_C 	C 	0.20482	0.23918	0.18212	-0.071
Mof_C 	C 	0.09403	0.20615	0.9199	0.404
Mof_C 	C 	0.19918	0.0034	0.41747	-0.158
Mof_N 	N 	0.75839	0.20011	0.90808	-0.101
Mof_N 	N 	0.74666	0.25894	0.43538	-0.14
Mof_N 	N 	0.24113	0.21591	0.81298	-0.251
Mof_N 	N 	0.72164	0.26956	0.40539	-0.139
Mof_N 	N 	0.25894	0.74666	0.93538	-0.14
Mof_N 	N 	0.23909	0.25607	0.5297	-0.254
Mof_N 	N 	0.72778	0.20742	0.94112	-0.104
Mof_N 	N 	0.20742	0.72778	0.44112	-0.104
Mof_N 	N 	0.21591	0.24113	0.31298	-0.251
Mof_N 	N 	0.25607	0.23909	0.0297	-0.254
Mof_N 	N 	0.26956	0.72164	0.90539	-0.139
Mof_N 	N 	0.20011	0.75839	0.40808	-0.101
Mof_O 	O 	0.34301	0.26745	0.3862	-0.467
Mof_O 	O 	0.37637	0.25453	0.96214	-0.464
Mof_O 	O 	0.22626	0.09838	0.88222	-0.463
Mof_O 	O 	0.36712	0.23506	0.89397	-0.477
Mof_O 	O 	0.1162	0.24016	0.45063	-0.475
Mof_O 	O 	0.24016	0.1162	0.95063	-0.475
Mof_O 	O 	0.35617	0.26961	0.45512	-0.465
Mof_O 	O 	0.2162	0.13182	0.45514	-0.47
Mof_O 	O 	0.23506	0.36712	0.39397	-0.477
Mof_O 	O 	0.13182	0.2162	0.95514	-0.47
Mof_O 	O 	0.20612	0.12684	0.38601	-0.463
Mof_O 	O 	0.25453	0.37637	0.46214	-0.464
Mof_O 	O 	0.26961	0.35617	0.95512	-0.465
Mof_O 	O 	0.09838	0.22626	0.38222	-0.463
Mof_O 	O 	0.26745	0.34301	0.8862	-0.467
Mof_O 	O 	0.12684	0.20612	0.88601	-0.463
Mof_Zn	Zn	0.76332	0.74688	0.53299	1.219
Mof_Zn	Zn	0.75421	0.77965	0.1243	1.219
Mof_Zn	Zn	0.77965	0.75421	0.6243	1.219
Mof_Zn	Zn	0.74688	0.76332	0.03299	1.219
Mof_H 	H 	0.7696	0.0398	0.1429	0.016
Mof_H 	H 	0.0165	0.8193	0.1442	0.016
Mof_H 	H 	0.7469	0.6659	0.1902	0.003
Mof_H 	H 	0.7934	0.373	0.6276	0.106
Mof_H 	H 	0.7332	0.8458	0.3947	0.088
Mof_H 	H 	0.7593	0.1745	0.1391	0.083
Mof_H 	H 	0.847	0.7644	0.8321	0.055
Mof_H 	H 	0.9059	0.7755	0.6972	0.005
Mof_H 	H 	0.3702	0.7448	0.5234	0.083
Mof_H 	H 	0.7248	0.845	0.4645	-0.002
Mof_H 	H 	0.0398	0.7696	0.6429	0.016
Mof_H 	H 	0.362	0.778	0.0027	0.096
Mof_H 	H 	0.8458	0.7332	0.8947	0.088
Mof_H 	H 	0.7761	0.5021	0.6307	0.006
Mof_H 	H 	0.6792	0.7538	0.826	0.069
Mof_H 	H 	0.9132	0.7736	0.7683	0.083
Mof_H 	H 	0.7755	0.9059	0.1972	0.005
Mof_H 	H 	0.7447	0.1383	0.0135	0.094
Mof_H 	H 	0.7644	0.847	0.3321	0.055
Mof_H 	H 	0.2749	0.7437	0.5408	0.096
Mof_H 	H 	0.7913	0.6341	0.3925	0.09
Mof_H 	H 	0.8284	0.1588	0.6478	0.1
Mof_H 	H 	0.1745	0.7593	0.6391	0.083
Mof_H 	H 	0.7448	0.3702	0.0234	0.084
Mof_H 	H 	0.7828	0.138	0.5242	0.1
Mof_H 	H 	0.7583	0.0089	0.018	0.014
Mof_H 	H 	0.1588	0.8284	0.1478	0.1
Mof_H 	H 	0.0089	0.7583	0.518	0.014
Mof_H 	H 	0.8193	0.0165	0.6442	0.016
Mof_H 	H 	0.7827	0.0001	0.5206	0.015
Mof_H 	H 	0.6407	0.7905	0.9631	-0.008
Mof_H 	H 	0.1383	0.7447	0.5135	0.094
Mof_H 	H 	0.6659	0.7469	0.6902	0.003
Mof_H 	H 	0.7736	0.9132	0.2683	0.083
Mof_H 	H 	0.6685	0.7491	0.7605	0.09
Mof_H 	H 	0.6341	0.7913	0.8925	0.09
Mof_H 	H 	0.7905	0.6407	0.4631	-0.008
Mof_H 	H 	0.6995	0.3853	0.1432	0.094
Mof_H 	H 	0.726	0.2562	0.1182	0.099
Mof_H 	H 	0.0001	0.7827	0.0206	0.015
Mof_H 	H 	0.138	0.7828	0.0242	0.1
Mof_H 	H 	0.778	0.362	0.5027	0.096
Mof_H 	H 	0.845	0.7248	0.9645	-0.002
Mof_H 	H 	0.7538	0.6792	0.326	0.069
Mof_H 	H 	0.7063	0.5205	0.1409	0.014
Mof_H 	H 	0.2562	0.726	0.6182	0.099
Mof_H 	H 	0.3853	0.6995	0.6432	0.094
Mof_H 	H 	0.373	0.7934	0.1276	0.106
Mof_H 	H 	0.5074	0.7376	0.5191	0.022
Mof_H 	H 	0.7593	0.4919	0.5056	0.008
Mof_H 	H 	0.7376	0.5074	0.0191	0.022
Mof_H 	H 	0.4919	0.7593	0.0056	0.008
Mof_H 	H 	0.7437	0.2749	0.0408	0.096
Mof_H 	H 	0.5205	0.7063	0.6409	0.014
Mof_H 	H 	0.5021	0.7761	0.1307	0.006
Mof_H 	H 	0.7491	0.6685	0.2605	0.09
Mof_C 	C 	0.75675	0.73085	0.34014	-0.094
Mof_C 	C 	0.36734	0.72526	0.58361	0.135
Mof_C 	C 	0.9966	0.80082	0.08253	-0.158
Mof_C 	C 	0.7523	0.7165	0.20612	0.097
Mof_C 	C 	0.76228	0.01232	0.08099	-0.166
Mof_C 	C 	0.76846	0.85694	0.21061	0.078
Mof_C 	C 	0.76558	0.92678	0.08319	0.419
Mof_C 	C 	0.0415	0.8129	0.11953	0.097
Mof_C 	C 	0.75033	0.16787	0.0756	0.134
Mof_C 	C 	0.76675	0.46761	0.53041	0.104
Mof_C 	C 	0.35486	0.78654	0.0646	0.164
Mof_C 	C 	0.74993	0.11847	0.03977	-0.175
Mof_C 	C 	0.80115	0.15885	0.58637	0.17
Mof_C 	C 	0.04226	0.75694	0.5424	0.101
Mof_C 	C 	0.06033	0.76427	0.61688	0.089
Mof_C 	C 	0.86214	0.76826	0.75285	-0.146
Mof_C 	C 	0.76826	0.86214	0.25285	-0.146
Mof_C 	C 	0.75694	0.04226	0.0424	0.101
Mof_C 	C 	0.47365	0.77655	0.10458	0.111
Mof_C 	C 	0.80082	0.9966	0.58253	-0.158
Mof_C 	C 	0.79518	0.76082	0.81788	-0.071
Mof_C 	C 	0.03152	0.79008	0.04662	0.097
Mof_C 	C 	0.72598	0.527	0.08067	-0.151
Mof_C 	C 	0.78654	0.35486	0.5646	0.164
Mof_C 	C 	0.71092	0.41108	0.11846	-0.176
Mof_C 	C 	0.73671	0.75669	0.88512	0.128
Mof_C 	C 	0.80283	0.74037	0.94969	0.095
Mof_C 	C 	0.68258	0.77782	0.94873	0.102
Mof_C 	C 	0.75319	0.71805	0.24795	-0.155
Mof_C 	C 	0.77655	0.47365	0.60458	0.111
Mof_C 	C 	0.12588	0.81612	0.12194	-0.18
Mof_C 	C 	0.15885	0.80115	0.08637	0.17
Mof_C 	C 	0.79008	0.03152	0.54662	0.097
Mof_C 	C 	0.76427	0.06033	0.11688	0.089
Mof_C 	C 	0.51025	0.76715	0.06895	-0.173
Mof_C 	C 	0.72526	0.36734	0.08361	0.135
Mof_C 	C 	0.73385	0.48335	0.04456	0.08
Mof_C 	C 	0.7134	0.4896	0.11675	0.1
Mof_C 	C 	0.76715	0.51025	0.56895	-0.173
Mof_C 	C 	0.8129	0.0415	0.61953	0.097
Mof_C 	C 	0.16787	0.75033	0.5756	0.134
Mof_C 	C 	0.41108	0.71092	0.61846	-0.176
Mof_C 	C 	0.79385	0.90597	0.5801	0.404
Mof_C 	C 	0.4896	0.7134	0.61675	0.1
Mof_C 	C 	0.11348	0.79032	0.04887	-0.181
Mof_C 	C 	0.46761	0.76675	0.03041	0.104
Mof_C 	C 	0.77737	0.67783	0.40684	-0.172
Mof_C 	C 	0.85694	0.76846	0.71061	0.078
Mof_C 	C 	0.90597	0.79385	0.0801	0.404
Mof_C 	C 	0.80142	0.74218	0.90829	-0.167
Mof_C 	C 	0.59553	0.75845	0.0712	0.422
Mof_C 	C 	0.75818	0.14002	0.11463	-0.162
Mof_C 	C 	0.01232	0.76228	0.58099	-0.166
Mof_C 	C 	0.92678	0.76558	0.58319	0.42
Mof_C 	C 	0.77719	0.39069	0.5287	-0.187
Mof_C 	C 	0.67783	0.77737	0.90684	-0.172
Mof_C 	C 	0.40125	0.73595	0.54703	-0.16
Mof_C 	C 	0.73085	0.75675	0.84014	-0.094
Mof_C 	C 	0.48335	0.73385	0.54456	0.08
Mof_C 	C 	0.73595	0.40125	0.04703	-0.16
Mof_C 	C 	0.81612	0.12588	0.62194	-0.18
Mof_C 	C 	0.7165	0.7523	0.70612	0.097
Mof_C 	C 	0.77782	0.68258	0.44873	0.102
Mof_C 	C 	0.74037	0.80283	0.44969	0.095
Mof_C 	C 	0.78644	0.39736	0.60284	-0.187
Mof_C 	C 	0.71805	0.75319	0.74795	-0.155
Mof_C 	C 	0.72975	0.61641	0.0794	0.405
Mof_C 	C 	0.39736	0.78644	0.10284	-0.187
Mof_C 	C 	0.527	0.72598	0.58067	-0.151
Mof_C 	C 	0.61641	0.72975	0.5794	0.405
Mof_C 	C 	0.75669	0.73671	0.38512	0.128
Mof_C 	C 	0.78912	0.7599	0.77263	0.109
Mof_C 	C 	0.74218	0.80142	0.40829	-0.167
Mof_C 	C 	0.75845	0.59553	0.5712	0.422
Mof_C 	C 	0.11847	0.74993	0.53977	-0.175
Mof_C 	C 	0.76082	0.79518	0.31788	-0.071
Mof_C 	C 	0.14002	0.75818	0.61463	-0.162
Mof_C 	C 	0.39069	0.77719	0.0287	-0.187
Mof_C 	C 	0.79032	0.11348	0.54887	-0.181
Mof_C 	C 	0.7599	0.78912	0.27263	0.109
Mof_N 	N 	0.79258	0.27222	0.55888	-0.104
Mof_N 	N 	0.78409	0.75887	0.68702	-0.251
Mof_N 	N 	0.79989	0.24161	0.59192	-0.101
Mof_N 	N 	0.24161	0.79989	0.09192	-0.101
Mof_N 	N 	0.73044	0.27836	0.09461	-0.139
Mof_N 	N 	0.75887	0.78409	0.18702	-0.251
Mof_N 	N 	0.76091	0.74393	0.4703	-0.254
Mof_N 	N 	0.25334	0.74106	0.56462	-0.14
Mof_N 	N 	0.74106	0.25334	0.06462	-0.14
Mof_N 	N 	0.27222	0.79258	0.05888	-0.104
Mof_N 	N 	0.74393	0.76091	0.9703	-0.254
Mof_N 	N 	0.27836	0.73044	0.59461	-0.139
Mof_O 	O 	0.76494	0.63288	0.60603	-0.477
Mof_O 	O 	0.74547	0.62363	0.53786	-0.464
Mof_O 	O 	0.64383	0.73039	0.54488	-0.465
Mof_O 	O 	0.90162	0.77374	0.61778	-0.463
Mof_O 	O 	0.73039	0.64383	0.04488	-0.465
Mof_O 	O 	0.86818	0.7838	0.04486	-0.47
Mof_O 	O 	0.63288	0.76494	0.10603	-0.477
Mof_O 	O 	0.65699	0.73255	0.6138	-0.467
Mof_O 	O 	0.77374	0.90162	0.11778	-0.463
Mof_O 	O 	0.75984	0.8838	0.04937	-0.475
Mof_O 	O 	0.62363	0.74547	0.03786	-0.464
Mof_O 	O 	0.7838	0.86818	0.54486	-0.47
Mof_O 	O 	0.79388	0.87316	0.61399	-0.463
Mof_O 	O 	0.8838	0.75984	0.54937	-0.475
Mof_O 	O 	0.87316	0.79388	0.11399	-0.463
Mof_O 	O 	0.73255	0.65699	0.1138	-0.467
Mof_Zn	Zn	0.46847	0.52217	0.70365	1.22
Mof_Zn	Zn	0.52217	0.46847	0.20365	1.22
Mof_Zn	Zn	0.53153	0.47783	0.29635	1.22
Mof_Zn	Zn	0.47783	0.53153	0.79635	1.22
Mof_H 	H 	0.5503	0.7367	0.3151	0.006
Mof_H 	H 	0.5243	0.2223	0.299	-0.002
Mof_H 	H 	0.348	0.486	0.559	0.092
Mof_H 	H 	0.9094	0.464	0.2045	0.114
Mof_H 	H 	0.514	0.652	0.941	0.092
Mof_H 	H 	0.9181	0.4811	0.3283	0.111
Mof_H 	H 	0.0819	0.5189	0.6717	0.111
Mof_H 	H 	0.4757	0.7777	0.701	-0.002
Mof_H 	H 	0.2633	0.4497	0.1849	0.006
Mof_H 	H 	0.5074	0.2128	0.1762	-0.005
Mof_H 	H 	0.8685	0.5439	0.8175	0.106
Mof_H 	H 	0.4062	0.4678	0.4304	0.092
Mof_H 	H 	0.4497	0.2633	0.6849	0.006
Mof_H 	H 	0.5189	0.0819	0.1717	0.111
Mof_H 	H 	0.464	0.9094	0.7045	0.114
Mof_H 	H 	0.8646	0.5572	0.6944	0.109
Mof_H 	H 	0.6487	0.4963	0.3714	-0.009
Mof_H 	H 	0.652	0.514	0.441	0.092
Mof_H 	H 	0.5037	0.3513	0.1286	-0.009
Mof_H 	H 	0.5439	0.8685	0.3175	0.106
Mof_H 	H 	0.2706	0.4414	0.3083	0.009
Mof_H 	H 	0.3513	0.5037	0.6286	-0.009
Mof_H 	H 	0.4811	0.9181	0.8283	0.111
Mof_H 	H 	0.4108	0.463	0.359	0.009
Mof_H 	H 	0.1354	0.4428	0.3056	0.109
Mof_H 	H 	0.5322	0.5938	0.0696	0.092
Mof_H 	H 	0.7777	0.4757	0.201	-0.002
Mof_H 	H 	0.7294	0.5586	0.6917	0.009
Mof_H 	H 	0.5586	0.7294	0.1917	0.009
Mof_H 	H 	0.7367	0.5503	0.8151	0.006
Mof_H 	H 	0.1315	0.4561	0.1825	0.106
Mof_H 	H 	0.5572	0.8646	0.1944	0.109
Mof_H 	H 	0.5892	0.537	0.641	0.009
Mof_H 	H 	0.536	0.0906	0.2955	0.114
Mof_H 	H 	0.2128	0.5074	0.6762	-0.005
Mof_H 	H 	0.486	0.348	0.059	0.092
Mof_H 	H 	0.7872	0.4926	0.3238	-0.005
Mof_H 	H 	0.4561	0.1315	0.6825	0.106
Mof_H 	H 	0.537	0.5892	0.141	0.009
Mof_H 	H 	0.463	0.4108	0.859	0.009
Mof_H 	H 	0.4678	0.4062	0.9304	0.092
Mof_H 	H 	0.4428	0.1354	0.8056	0.109
Mof_H 	H 	0.4414	0.2706	0.8083	0.009
Mof_H 	H 	0.4926	0.7872	0.8238	-0.005
Mof_H 	H 	0.2223	0.5243	0.799	-0.002
Mof_H 	H 	0.5938	0.5322	0.5696	0.092
Mof_H 	H 	0.0906	0.536	0.7955	0.114
Mof_H 	H 	0.4963	0.6487	0.8714	-0.009
Mof_C 	C 	0.23803	0.45035	0.20988	0.124
Mof_C 	C 	0.45035	0.23803	0.70988	0.124
Mof_C 	C 	0.23159	0.51465	0.7378	-0.202
Mof_C 	C 	0.51324	0.18796	0.20092	0.139
Mof_C 	C 	0.50618	0.40134	0.11683	0.106
Mof_C 	C 	0.47177	0.92723	0.76681	0.191
Mof_C 	C 	0.75758	0.55524	0.71746	0.118
Mof_C 	C 	0.83764	0.55436	0.71899	-0.198
Mof_C 	C 	0.19367	0.52313	0.77274	0.134
Mof_C 	C 	0.60032	0.50246	0.42496	-0.164
Mof_C 	C 	0.54965	0.76197	0.29012	0.124
Mof_C 	C 	0.44865	0.28341	0.74687	-0.182
Mof_C 	C 	0.54933	0.87927	0.25603	0.177
Mof_C 	C 	0.68263	0.48931	0.25978	0.416
Mof_C 	C 	0.47687	0.80633	0.72726	0.134
Mof_C 	C 	0.45756	0.4771	0.419	-0.142
Mof_C 	C 	0.55135	0.71659	0.25313	-0.182
Mof_C 	C 	0.3719	0.45226	0.24792	0.435
Mof_C 	C 	0.54244	0.5229	0.581	-0.142
Mof_C 	C 	0.16236	0.44564	0.28101	-0.198
Mof_C 	C 	0.54722	0.84018	0.29179	-0.205
Mof_C 	C 	0.46088	0.47288	0.37626	0.083
Mof_C 	C 	0.52823	0.07277	0.23319	0.191
Mof_C 	C 	0.48003	0.88977	0.80193	-0.22
Mof_C 	C 	0.28341	0.44865	0.24687	-0.182
Mof_C 	C 	0.48931	0.68263	0.75978	0.416
Mof_C 	C 	0.55436	0.83764	0.21899	-0.198
Mof_C 	C 	0.51465	0.23159	0.2378	-0.202
Mof_C 	C 	0.53912	0.52712	0.62374	0.083
Mof_C 	C 	0.46834	0.50466	0.55507	0.108
Mof_C 	C 	0.12073	0.45067	0.24397	0.177
Mof_C 	C 	0.45226	0.3719	0.74792	0.435
Mof_C 	C 	0.81204	0.48676	0.29908	0.139
Mof_C 	C 	0.48676	0.81204	0.79908	0.139
Mof_C 	C 	0.4771	0.45756	0.919	-0.142
Mof_C 	C 	0.4954	0.46826	0.01015	-0.029
Mof_C 	C 	0.6281	0.54774	0.75208	0.435
Mof_C 	C 	0.47	0.8846	0.72924	-0.213
Mof_C 	C 	0.47288	0.46088	0.87626	0.083
Mof_C 	C 	0.80633	0.47687	0.22726	0.134
Mof_C 	C 	0.15982	0.45278	0.20821	-0.205
Mof_C 	C 	0.40134	0.50618	0.61683	0.106
Mof_C 	C 	0.45278	0.15982	0.70821	-0.205
Mof_C 	C 	0.84018	0.54722	0.79179	-0.205
Mof_C 	C 	0.07277	0.52823	0.73319	0.191
Mof_C 	C 	0.51997	0.11023	0.19807	-0.22
Mof_C 	C 	0.18796	0.51324	0.70092	0.139
Mof_C 	C 	0.49382	0.59866	0.88317	0.106
Mof_C 	C 	0.51069	0.31737	0.24022	0.416
Mof_C 	C 	0.44564	0.16236	0.78101	-0.198
Mof_C 	C 	0.39968	0.49754	0.57504	-0.164
Mof_C 	C 	0.5229	0.54244	0.081	-0.142
Mof_C 	C 	0.8846	0.47	0.22924	-0.213
Mof_C 	C 	0.31737	0.51069	0.74022	0.416
Mof_C 	C 	0.71659	0.55135	0.75313	-0.182
Mof_C 	C 	0.5046	0.53174	0.98985	-0.029
Mof_C 	C 	0.53	0.1154	0.27076	-0.213
Mof_C 	C 	0.45067	0.12073	0.74397	0.177
Mof_C 	C 	0.44476	0.24242	0.78254	0.118
Mof_C 	C 	0.49754	0.39968	0.07504	-0.164
Mof_C 	C 	0.59866	0.49382	0.38317	0.106
Mof_C 	C 	0.46826	0.4954	0.51015	-0.029
Mof_C 	C 	0.49534	0.53166	0.94493	0.108
Mof_C 	C 	0.54774	0.6281	0.25208	0.435
Mof_C 	C 	0.55524	0.75758	0.21746	0.118
Mof_C 	C 	0.48535	0.76841	0.7622	-0.202
Mof_C 	C 	0.50466	0.46834	0.05507	0.108
Mof_C 	C 	0.87927	0.54933	0.75603	0.177
Mof_C 	C 	0.50246	0.60032	0.92496	-0.164
Mof_C 	C 	0.11023	0.51997	0.69807	-0.22
Mof_C 	C 	0.52712	0.53912	0.12374	0.083
Mof_C 	C 	0.76197	0.54965	0.79012	0.124
Mof_C 	C 	0.76841	0.48535	0.2622	-0.202
Mof_C 	C 	0.53174	0.5046	0.48985	-0.029
Mof_C 	C 	0.52313	0.19367	0.27274	0.134
Mof_C 	C 	0.24242	0.44476	0.28254	0.118
Mof_C 	C 	0.53166	0.49534	0.44493	0.108
Mof_C 	C 	0.1154	0.53	0.77076	-0.213
Mof_C 	C 	0.92723	0.47177	0.26681	0.191
Mof_C 	C 	0.88977	0.48003	0.30193	-0.22
Mof_N 	N 	0.96248	0.54524	0.76041	-0.101
Mof_N 	N 	0.48215	0.53131	0.85813	-0.261
Mof_N 	N 	0.45476	0.03752	0.73959	-0.101
Mof_N 	N 	0.53428	0.99108	0.22802	-0.103
Mof_N 	N 	0.51785	0.46869	0.14187	-0.261
Mof_N 	N 	0.03752	0.45476	0.23959	-0.101
Mof_N 	N 	0.53131	0.48215	0.35813	-0.261
Mof_N 	N 	0.46869	0.51785	0.64187	-0.261
Mof_N 	N 	0.00892	0.46572	0.27198	-0.103
Mof_N 	N 	0.99108	0.53428	0.72802	-0.103
Mof_N 	N 	0.54524	0.96248	0.26041	-0.101
Mof_N 	N 	0.46572	0.00892	0.77198	-0.103
Mof_O 	O 	0.45691	0.40389	0.71552	-0.485
Mof_O 	O 	0.40389	0.45691	0.21552	-0.485
Mof_O 	O 	0.59611	0.54309	0.78448	-0.485
Mof_O 	O 	0.54309	0.59611	0.28448	-0.485
Mof_O 	O 	0.51974	0.3563	0.27592	-0.464
Mof_O 	O 	0.54931	0.59223	0.21662	-0.467
Mof_O 	O 	0.45069	0.40777	0.78338	-0.467
Mof_O 	O 	0.40777	0.45069	0.28338	-0.467
Mof_O 	O 	0.49947	0.65347	0.79317	-0.471
Mof_O 	O 	0.6437	0.48026	0.22408	-0.464
Mof_O 	O 	0.3563	0.51974	0.77592	-0.464
Mof_O 	O 	0.48026	0.6437	0.72408	-0.464
Mof_O 	O 	0.59223	0.54931	0.71662	-0.467
Mof_O 	O 	0.65347	0.49947	0.29317	-0.471
Mof_O 	O 	0.50053	0.34653	0.20683	-0.471
Mof_O 	O 	0.34653	0.50053	0.70683	-0.471
_end
