data_functionalizedCrystal
_audit_creation_method	'EQeq! by Chris Wilmer'
_symmetry_space_group_name_H-M	'P1'
_symmetry_Int_Tables_number	1
_symmetry_cell_setting	triclinic
loop_
_symmetry_equiv_pos_as_xyz
  x,y,z
_cell_length_a	14.329
_cell_length_b	14.329
_cell_length_c	44.554
_cell_angle_alpha	90
_cell_angle_beta	90
_cell_angle_gamma	90
loop_
_atom_site_label
_atom_site_type_symbol
_atom_site_fract_x
_atom_site_fract_y
_atom_site_fract_z
_atom_site_charge
Mof_N 	N 	0.43093	0.32087	0.55079	-0.241
Mof_N 	N 	0.38603	0.44426	0.5237	-0.095
Mof_N 	N 	0.35463	0.36349	0.51098	-0.102
Mof_N 	N 	0.14068	0.37139	0.40482	-0.106
Mof_N 	N 	0.1138	0.45179	0.39113	-0.098
Mof_N 	N 	0.06473	0.32718	0.36528	-0.247
Mof_C 	C 	0.4307	0.41489	0.54756	0.087
Mof_H 	H 	0.4603	0.4559	0.5614	-0.008
Mof_C 	C 	0.38188	0.29107	0.52731	0.09
Mof_H 	H 	0.3684	0.2276	0.5229	-0.007
Mof_C 	C 	0.29987	0.3655	0.48377	0.024
Mof_C 	C 	0.34715	0.36739	0.45646	0.01
Mof_C 	C 	0.44595	0.36514	0.45384	-0.059
Mof_H 	H 	0.4832	0.361	0.4714	0.063
Mof_C 	C 	0.48805	0.36886	0.42635	-0.028
Mof_H 	H 	0.5541	0.3656	0.4249	0.041
Mof_C 	C 	0.4337	0.37753	0.40009	-0.046
Mof_H 	H 	0.4639	0.383	0.3812	0.043
Mof_C 	C 	0.33947	0.37815	0.40127	-0.046
Mof_H 	H 	0.3045	0.3827	0.3832	0.051
Mof_C 	C 	0.29165	0.37209	0.42949	-0.012
Mof_C 	C 	0.19494	0.3716	0.43212	0.048
Mof_C 	C 	0.14802	0.37083	0.45951	-0.034
Mof_C 	C 	0.0486	0.375	0.46197	0.011
Mof_H 	H 	0.0113	0.3759	0.4443	0.025
Mof_C 	C 	0.0074	0.3774	0.48925	-0.144
Mof_H 	H 	0.9413	0.38	0.4906	0.102
Mof_C 	C 	0.0616	0.3763	0.5159	0.03
Mof_H 	H 	0.0312	0.379	0.5348	0.011
Mof_C 	C 	0.1559	0.3714	0.51485	-0.096
Mof_H 	H 	0.1909	0.3699	0.5329	0.069
Mof_C 	C 	0.20302	0.36856	0.48647	0.028
Mof_C 	C 	0.11075	0.29821	0.38925	0.089
Mof_H 	H 	0.1209	0.2348	0.3945	-0.016
Mof_C 	C 	0.0689	0.42144	0.3674	0.086
Mof_H 	H 	0.0416	0.462	0.353	-0.014
Mof_N 	N 	0.93093	0.82087	0.05079	-0.232
Mof_N 	N 	0.88603	0.94426	0.0237	-0.089
Mof_N 	N 	0.85463	0.86349	0.01098	-0.1
Mof_N 	N 	0.64068	0.87139	0.90482	-0.105
Mof_N 	N 	0.6138	0.95179	0.89113	-0.095
Mof_N 	N 	0.56473	0.82718	0.86528	-0.242
Mof_C 	C 	0.9307	0.91489	0.04756	0.09
Mof_H 	H 	0.9603	0.9559	0.0614	0.001
Mof_C 	C 	0.88188	0.79107	0.02731	0.094
Mof_H 	H 	0.8684	0.7276	0.0229	-0.002
Mof_C 	C 	0.79987	0.8655	0.98377	0.024
Mof_C 	C 	0.84715	0.86739	0.95646	0.037
Mof_C 	C 	0.94595	0.86514	0.95384	-0.115
Mof_H 	H 	0.9832	0.861	0.9714	0.093
Mof_C 	C 	0.98805	0.86886	0.92635	0.084
Mof_H 	H 	0.0541	0.8656	0.9249	-0.016
Mof_C 	C 	0.9337	0.87753	0.90009	-0.108
Mof_H 	H 	0.9639	0.883	0.8812	0.075
Mof_C 	C 	0.83947	0.87815	0.90127	-0.005
Mof_H 	H 	0.8045	0.8827	0.8832	0.039
Mof_C 	C 	0.79165	0.87209	0.92949	-0.03
Mof_C 	C 	0.69494	0.8716	0.93212	0.049
Mof_C 	C 	0.64802	0.87083	0.95951	-0.009
Mof_C 	C 	0.5486	0.875	0.96197	-0.042
Mof_H 	H 	0.5113	0.8759	0.9443	0.053
Mof_C 	C 	0.5074	0.8774	0.98925	-0.038
Mof_H 	H 	0.4413	0.88	0.9906	0.047
Mof_C 	C 	0.5616	0.8763	0.0159	-0.027
Mof_H 	H 	0.5312	0.879	0.0348	0.041
Mof_C 	C 	0.6559	0.8714	0.01485	-0.057
Mof_H 	H 	0.6909	0.8699	0.0329	0.058
Mof_C 	C 	0.70302	0.86856	0.98647	0.011
Mof_C 	C 	0.61075	0.79821	0.88925	0.092
Mof_H 	H 	0.6209	0.7348	0.8945	-0.011
Mof_C 	C 	0.5689	0.92144	0.8674	0.089
Mof_H 	H 	0.5416	0.962	0.853	-0.009
Mof_N 	N 	0.06907	0.67913	0.05079	-0.245
Mof_N 	N 	0.11397	0.55574	0.0237	-0.097
Mof_N 	N 	0.14537	0.63651	0.01098	-0.106
Mof_N 	N 	0.35932	0.62861	0.90482	-0.101
Mof_N 	N 	0.3862	0.54821	0.89113	-0.096
Mof_N 	N 	0.43527	0.67282	0.86528	-0.242
Mof_C 	C 	0.0693	0.58511	0.04756	0.085
Mof_H 	H 	0.0397	0.5441	0.0614	-0.017
Mof_C 	C 	0.11812	0.70893	0.02731	0.089
Mof_H 	H 	0.1316	0.7724	0.0229	-0.012
Mof_C 	C 	0.20013	0.6345	0.98377	0.049
Mof_C 	C 	0.15285	0.63261	0.95646	-0.033
Mof_C 	C 	0.05405	0.63486	0.95384	0.008
Mof_H 	H 	0.0168	0.639	0.9714	0.028
Mof_C 	C 	0.01195	0.63114	0.92635	-0.149
Mof_H 	H 	0.9459	0.6344	0.9249	0.1
Mof_C 	C 	0.0663	0.62247	0.90009	0.026
Mof_H 	H 	0.0361	0.617	0.8812	0.008
Mof_C 	C 	0.16053	0.62185	0.90127	-0.099
Mof_H 	H 	0.1955	0.6173	0.8832	0.068
Mof_C 	C 	0.20835	0.62791	0.92949	0.025
Mof_C 	C 	0.30506	0.6284	0.93212	0.024
Mof_C 	C 	0.35198	0.62917	0.95951	0.008
Mof_C 	C 	0.4514	0.625	0.96197	-0.055
Mof_H 	H 	0.4887	0.6241	0.9443	0.058
Mof_C 	C 	0.4926	0.6226	0.98925	-0.027
Mof_H 	H 	0.5587	0.62	0.9906	0.044
Mof_C 	C 	0.4384	0.6237	0.0159	-0.038
Mof_H 	H 	0.4688	0.621	0.0348	0.045
Mof_C 	C 	0.3441	0.6286	0.01485	-0.045
Mof_H 	H 	0.3091	0.6301	0.0329	0.054
Mof_C 	C 	0.29698	0.63144	0.98647	-0.008
Mof_C 	C 	0.38925	0.70179	0.88925	0.09
Mof_H 	H 	0.3791	0.7652	0.8945	-0.01
Mof_C 	C 	0.4311	0.57856	0.8674	0.088
Mof_H 	H 	0.4584	0.538	0.853	-0.009
Mof_N 	N 	0.56907	0.17913	0.55079	-0.241
Mof_N 	N 	0.61397	0.05574	0.5237	-0.093
Mof_N 	N 	0.64537	0.13651	0.51098	-0.104
Mof_N 	N 	0.85932	0.12861	0.40482	-0.1
Mof_N 	N 	0.8862	0.04821	0.39113	-0.092
Mof_N 	N 	0.93527	0.17282	0.36528	-0.234
Mof_C 	C 	0.5693	0.08511	0.54756	0.088
Mof_H 	H 	0.5397	0.0441	0.5614	-0.009
Mof_C 	C 	0.61812	0.20893	0.52731	0.093
Mof_H 	H 	0.6316	0.2724	0.5229	-0.007
Mof_C 	C 	0.70013	0.1345	0.48377	0.048
Mof_C 	C 	0.65285	0.13261	0.45646	-0.007
Mof_C 	C 	0.55405	0.13486	0.45384	-0.047
Mof_H 	H 	0.5168	0.139	0.4714	0.058
Mof_C 	C 	0.51195	0.13114	0.42635	-0.037
Mof_H 	H 	0.4459	0.1344	0.4249	0.043
Mof_C 	C 	0.5663	0.12247	0.40009	-0.036
Mof_H 	H 	0.5361	0.117	0.3812	0.04
Mof_C 	C 	0.66053	0.12185	0.40127	-0.058
Mof_H 	H 	0.6955	0.1173	0.3832	0.056
Mof_C 	C 	0.70835	0.12791	0.42949	0.007
Mof_C 	C 	0.80506	0.1284	0.43212	0.025
Mof_C 	C 	0.85198	0.12917	0.45951	0.034
Mof_C 	C 	0.9514	0.125	0.46197	-0.109
Mof_H 	H 	0.9887	0.1241	0.4443	0.087
Mof_C 	C 	0.9926	0.1226	0.48925	0.079
Mof_H 	H 	0.0587	0.12	0.4906	-0.011
Mof_C 	C 	0.9384	0.1237	0.5159	-0.095
Mof_H 	H 	0.9688	0.121	0.5348	0.076
Mof_C 	C 	0.8441	0.1286	0.51485	-0.006
Mof_H 	H 	0.8091	0.1301	0.5329	0.043
Mof_C 	C 	0.79698	0.13144	0.48647	-0.025
Mof_C 	C 	0.88925	0.20179	0.38925	0.093
Mof_H 	H 	0.8791	0.2652	0.3945	-0.004
Mof_C 	C 	0.9311	0.07856	0.3674	0.091
Mof_H 	H 	0.9584	0.038	0.353	-0.002
Mof_N 	N 	0.42913	0.68093	0.80079	-0.24
Mof_N 	N 	0.30574	0.63603	0.7737	-0.094
Mof_N 	N 	0.38651	0.60463	0.76098	-0.103
Mof_N 	N 	0.37861	0.39068	0.65482	-0.103
Mof_N 	N 	0.29821	0.3638	0.64113	-0.098
Mof_N 	N 	0.42282	0.31473	0.61528	-0.242
Mof_C 	C 	0.33511	0.6807	0.79756	0.087
Mof_H 	H 	0.2941	0.7103	0.8114	-0.009
Mof_C 	C 	0.45893	0.63188	0.77731	0.091
Mof_H 	H 	0.5224	0.6184	0.7729	-0.007
Mof_C 	C 	0.3845	0.54987	0.73377	0.036
Mof_C 	C 	0.38261	0.59715	0.70646	0.001
Mof_C 	C 	0.38486	0.69595	0.70384	-0.054
Mof_H 	H 	0.389	0.7332	0.7214	0.061
Mof_C 	C 	0.38114	0.73805	0.67635	-0.033
Mof_H 	H 	0.3844	0.8041	0.6749	0.042
Mof_C 	C 	0.37247	0.6837	0.65009	-0.041
Mof_H 	H 	0.367	0.7139	0.6312	0.041
Mof_C 	C 	0.37185	0.58947	0.65127	-0.052
Mof_H 	H 	0.3673	0.5545	0.6332	0.053
Mof_C 	C 	0.37791	0.54165	0.67949	-0.003
Mof_C 	C 	0.3784	0.44494	0.68212	0.036
Mof_C 	C 	0.37917	0.39802	0.70951	-0.001
Mof_C 	C 	0.375	0.2986	0.71197	-0.049
Mof_H 	H 	0.3741	0.2613	0.6943	0.055
Mof_C 	C 	0.3726	0.2574	0.73925	-0.033
Mof_H 	H 	0.37	0.1913	0.7406	0.046
Mof_C 	C 	0.3737	0.3116	0.7659	-0.032
Mof_H 	H 	0.371	0.2812	0.7848	0.043
Mof_C 	C 	0.3786	0.4059	0.76485	-0.052
Mof_H 	H 	0.3801	0.4409	0.7829	0.055
Mof_C 	C 	0.38144	0.45302	0.73647	0.001
Mof_C 	C 	0.45179	0.36075	0.63925	0.091
Mof_H 	H 	0.5152	0.3709	0.6445	-0.01
Mof_C 	C 	0.32856	0.3189	0.6174	0.088
Mof_H 	H 	0.288	0.2916	0.603	-0.011
Mof_N 	N 	0.92913	0.18093	0.30079	-0.241
Mof_N 	N 	0.80574	0.13603	0.2737	-0.093
Mof_N 	N 	0.88651	0.10463	0.26098	-0.112
Mof_N 	N 	0.87861	0.89068	0.15482	-0.112
Mof_N 	N 	0.79821	0.8638	0.14113	-0.095
Mof_N 	N 	0.92282	0.81473	0.11528	-0.243
Mof_C 	C 	0.83511	0.1807	0.29756	0.088
Mof_H 	H 	0.7941	0.2103	0.3114	-0.006
Mof_C 	C 	0.95893	0.13188	0.27731	0.149
Mof_H 	H 	0.0224	0.1184	0.2729	-0.047
Mof_C 	C 	0.8845	0.04987	0.23377	0.044
Mof_C 	C 	0.88261	0.09715	0.20646	0.003
Mof_C 	C 	0.88486	0.19595	0.20384	-0.048
Mof_H 	H 	0.889	0.2332	0.2214	0.064
Mof_C 	C 	0.88114	0.23805	0.17635	-0.03
Mof_H 	H 	0.8844	0.3041	0.1749	0.047
Mof_C 	C 	0.87247	0.1837	0.15009	-0.036
Mof_H 	H 	0.867	0.2139	0.1312	0.043
Mof_C 	C 	0.87185	0.08947	0.15127	-0.048
Mof_H 	H 	0.8673	0.0545	0.1332	0.055
Mof_C 	C 	0.87791	0.04165	0.17949	-0
Mof_C 	C 	0.8784	0.94494	0.18212	0.043
Mof_C 	C 	0.87917	0.89802	0.20951	0.002
Mof_C 	C 	0.875	0.7986	0.21197	-0.045
Mof_H 	H 	0.8741	0.7613	0.1943	0.058
Mof_C 	C 	0.8726	0.7574	0.23925	-0.029
Mof_H 	H 	0.87	0.6913	0.2406	0.05
Mof_C 	C 	0.8737	0.8116	0.2659	-0.03
Mof_H 	H 	0.871	0.7812	0.2848	0.048
Mof_C 	C 	0.8786	0.9059	0.26485	-0.047
Mof_H 	H 	0.8801	0.9409	0.2829	0.057
Mof_C 	C 	0.88144	0.95302	0.23647	0.002
Mof_C 	C 	0.95179	0.86075	0.13925	0.149
Mof_H 	H 	0.0152	0.8709	0.1445	-0.051
Mof_C 	C 	0.82856	0.8189	0.1174	0.088
Mof_H 	H 	0.788	0.7916	0.103	-0.007
Mof_N 	N 	0.07087	0.31907	0.30079	-0.235
Mof_N 	N 	0.19426	0.36397	0.2737	-0.094
Mof_N 	N 	0.11349	0.39537	0.26098	-0.093
Mof_N 	N 	0.12139	0.60932	0.15482	-0.094
Mof_N 	N 	0.20179	0.6362	0.14113	-0.095
Mof_N 	N 	0.07718	0.68527	0.11528	-0.237
Mof_C 	C 	0.16489	0.3193	0.29756	0.088
Mof_H 	H 	0.2059	0.2897	0.3114	-0.01
Mof_C 	C 	0.04107	0.36812	0.27731	0.034
Mof_H 	H 	0.9776	0.3816	0.2729	0.034
Mof_C 	C 	0.1155	0.45013	0.23377	0.03
Mof_C 	C 	0.11739	0.40285	0.20646	0
Mof_C 	C 	0.11514	0.30405	0.20384	-0.058
Mof_H 	H 	0.111	0.2668	0.2214	0.058
Mof_C 	C 	0.11886	0.26195	0.17635	-0.035
Mof_H 	H 	0.1156	0.1959	0.1749	0.037
Mof_C 	C 	0.12753	0.3163	0.15009	-0.045
Mof_H 	H 	0.133	0.2861	0.1312	0.039
Mof_C 	C 	0.12815	0.41053	0.15127	-0.056
Mof_H 	H 	0.1327	0.4455	0.1332	0.052
Mof_C 	C 	0.12209	0.45835	0.17949	-0.004
Mof_C 	C 	0.1216	0.55506	0.18212	0.03
Mof_C 	C 	0.12083	0.60198	0.20951	-0.002
Mof_C 	C 	0.125	0.7014	0.21197	-0.053
Mof_H 	H 	0.1259	0.7387	0.1943	0.053
Mof_C 	C 	0.1274	0.7426	0.23925	-0.036
Mof_H 	H 	0.13	0.8087	0.2406	0.041
Mof_C 	C 	0.1263	0.6884	0.2659	-0.035
Mof_H 	H 	0.129	0.7188	0.2848	0.039
Mof_C 	C 	0.1214	0.5941	0.26485	-0.055
Mof_H 	H 	0.1199	0.5591	0.2829	0.054
Mof_C 	C 	0.11856	0.54698	0.23647	0
Mof_C 	C 	0.04821	0.63925	0.13925	0.032
Mof_H 	H 	0.9848	0.6291	0.1445	0.031
Mof_C 	C 	0.17144	0.6811	0.1174	0.089
Mof_H 	H 	0.212	0.7084	0.103	-0.01
Mof_N 	N 	0.57087	0.81907	0.80079	-0.24
Mof_N 	N 	0.69426	0.86397	0.7737	-0.092
Mof_N 	N 	0.61349	0.89537	0.76098	-0.103
Mof_N 	N 	0.62139	0.10932	0.65482	-0.103
Mof_N 	N 	0.70179	0.1362	0.64113	-0.093
Mof_N 	N 	0.57718	0.18527	0.61528	-0.242
Mof_C 	C 	0.66489	0.8193	0.79756	0.088
Mof_H 	H 	0.7059	0.7897	0.8114	-0.008
Mof_C 	C 	0.54107	0.86812	0.77731	0.091
Mof_H 	H 	0.4776	0.8816	0.7729	-0.007
Mof_C 	C 	0.6155	0.95013	0.73377	0.037
Mof_C 	C 	0.61739	0.90285	0.70646	0.002
Mof_C 	C 	0.61514	0.80405	0.70384	-0.053
Mof_H 	H 	0.611	0.7668	0.7214	0.06
Mof_C 	C 	0.61886	0.76195	0.67635	-0.032
Mof_H 	H 	0.6156	0.6959	0.6749	0.042
Mof_C 	C 	0.62753	0.8163	0.65009	-0.04
Mof_H 	H 	0.633	0.7861	0.6312	0.042
Mof_C 	C 	0.62815	0.91053	0.65127	-0.051
Mof_H 	H 	0.6327	0.9455	0.6332	0.054
Mof_C 	C 	0.62209	0.95835	0.67949	-0.001
Mof_C 	C 	0.6216	0.05506	0.68212	0.037
Mof_C 	C 	0.62083	0.10198	0.70951	0.001
Mof_C 	C 	0.625	0.2014	0.71197	-0.049
Mof_H 	H 	0.6259	0.2387	0.6943	0.056
Mof_C 	C 	0.6274	0.2426	0.73925	-0.032
Mof_H 	H 	0.63	0.3087	0.7406	0.045
Mof_C 	C 	0.6263	0.1884	0.7659	-0.032
Mof_H 	H 	0.629	0.2188	0.7848	0.043
Mof_C 	C 	0.6214	0.0941	0.76485	-0.05
Mof_H 	H 	0.6199	0.0591	0.7829	0.056
Mof_C 	C 	0.61856	0.04698	0.73647	0.001
Mof_C 	C 	0.54821	0.13925	0.63925	0.091
Mof_H 	H 	0.4848	0.1291	0.6445	-0.011
Mof_C 	C 	0.67144	0.1811	0.6174	0.089
Mof_H 	H 	0.712	0.2084	0.603	-0.006
Mof_Cu	Cu	0.5	0.25	0.58329	0.851
Mof_Cu	Cu	9.24954e-33	0.75	0.08329	0.838
Mof_Cu	Cu	0.5	0.75	0.83329	0.851
Mof_Cu	Cu	3.88557e-33	0.25	0.33329	0.838
Mof_N 	N 	0.56907	0.67913	0.44921	-0.241
Mof_N 	N 	0.61397	0.55574	0.4763	-0.093
Mof_N 	N 	0.64537	0.63651	0.48902	-0.104
Mof_N 	N 	0.85932	0.62861	0.59518	-0.1
Mof_N 	N 	0.8862	0.54821	0.60887	-0.092
Mof_N 	N 	0.93527	0.67282	0.63472	-0.234
Mof_C 	C 	0.5693	0.58511	0.45244	0.088
Mof_H 	H 	0.5397	0.5441	0.4386	-0.008
Mof_C 	C 	0.61812	0.70893	0.47269	0.093
Mof_H 	H 	0.6316	0.7724	0.4771	-0.007
Mof_C 	C 	0.70013	0.6345	0.51623	0.049
Mof_C 	C 	0.65285	0.63261	0.54354	-0.007
Mof_C 	C 	0.55405	0.63486	0.54616	-0.047
Mof_H 	H 	0.5168	0.639	0.5286	0.058
Mof_C 	C 	0.51195	0.63114	0.57365	-0.037
Mof_H 	H 	0.4459	0.6344	0.5751	0.043
Mof_C 	C 	0.5663	0.62247	0.59991	-0.036
Mof_H 	H 	0.5361	0.617	0.6188	0.04
Mof_C 	C 	0.66053	0.62185	0.59873	-0.058
Mof_H 	H 	0.6955	0.6173	0.6168	0.056
Mof_C 	C 	0.70835	0.62791	0.57051	0.007
Mof_C 	C 	0.80506	0.6284	0.56788	0.025
Mof_C 	C 	0.85198	0.62917	0.54049	0.034
Mof_C 	C 	0.9514	0.625	0.53803	-0.109
Mof_H 	H 	0.9887	0.6241	0.5557	0.087
Mof_C 	C 	0.9926	0.6226	0.51075	0.08
Mof_H 	H 	0.0587	0.62	0.5094	-0.011
Mof_C 	C 	0.9384	0.6237	0.4841	-0.095
Mof_H 	H 	0.9688	0.621	0.4652	0.076
Mof_C 	C 	0.8441	0.6286	0.48515	-0.006
Mof_H 	H 	0.8091	0.6301	0.4671	0.043
Mof_C 	C 	0.79698	0.63144	0.51353	-0.025
Mof_C 	C 	0.88925	0.70179	0.61075	0.093
Mof_H 	H 	0.8791	0.7652	0.6055	-0.004
Mof_C 	C 	0.9311	0.57856	0.6326	0.091
Mof_H 	H 	0.9584	0.538	0.647	-0.002
Mof_N 	N 	0.06907	0.17913	0.94921	-0.245
Mof_N 	N 	0.11397	0.05574	0.9763	-0.097
Mof_N 	N 	0.14537	0.13651	0.98902	-0.105
Mof_N 	N 	0.35932	0.12861	0.09518	-0.101
Mof_N 	N 	0.3862	0.04821	0.10887	-0.096
Mof_N 	N 	0.43527	0.17282	0.13472	-0.242
Mof_C 	C 	0.0693	0.08511	0.95244	0.085
Mof_H 	H 	0.0397	0.0441	0.9386	-0.017
Mof_C 	C 	0.11812	0.20893	0.97269	0.089
Mof_H 	H 	0.1316	0.2724	0.9771	-0.012
Mof_C 	C 	0.20013	0.1345	0.01623	0.049
Mof_C 	C 	0.15285	0.13261	0.04354	-0.033
Mof_C 	C 	0.05405	0.13486	0.04616	0.008
Mof_H 	H 	0.0168	0.139	0.0286	0.028
Mof_C 	C 	0.01195	0.13114	0.07365	-0.148
Mof_H 	H 	0.9459	0.1344	0.0751	0.099
Mof_C 	C 	0.0663	0.12247	0.09991	0.025
Mof_H 	H 	0.0361	0.117	0.1188	0.008
Mof_C 	C 	0.16053	0.12185	0.09873	-0.098
Mof_H 	H 	0.1955	0.1173	0.1168	0.068
Mof_C 	C 	0.20835	0.12791	0.07051	0.025
Mof_C 	C 	0.30506	0.1284	0.06788	0.024
Mof_C 	C 	0.35198	0.12917	0.04049	0.008
Mof_C 	C 	0.4514	0.125	0.03803	-0.055
Mof_H 	H 	0.4887	0.1241	0.0557	0.058
Mof_C 	C 	0.4926	0.1226	0.01075	-0.027
Mof_H 	H 	0.5587	0.12	0.0094	0.044
Mof_C 	C 	0.4384	0.1237	0.9841	-0.038
Mof_H 	H 	0.4688	0.121	0.9652	0.045
Mof_C 	C 	0.3441	0.1286	0.98515	-0.045
Mof_H 	H 	0.3091	0.1301	0.9671	0.054
Mof_C 	C 	0.29698	0.13144	0.01353	-0.008
Mof_C 	C 	0.38925	0.20179	0.11075	0.09
Mof_H 	H 	0.3791	0.2652	0.1055	-0.01
Mof_C 	C 	0.4311	0.07856	0.1326	0.088
Mof_H 	H 	0.4584	0.038	0.147	-0.009
Mof_N 	N 	0.93093	0.32087	0.94921	-0.232
Mof_N 	N 	0.88603	0.44426	0.9763	-0.089
Mof_N 	N 	0.85463	0.36349	0.98902	-0.1
Mof_N 	N 	0.64068	0.37139	0.09518	-0.105
Mof_N 	N 	0.6138	0.45179	0.10887	-0.095
Mof_N 	N 	0.56473	0.32718	0.13472	-0.242
Mof_C 	C 	0.9307	0.41489	0.95244	0.09
Mof_H 	H 	0.9603	0.4559	0.9386	0.002
Mof_C 	C 	0.88188	0.29107	0.97269	0.094
Mof_H 	H 	0.8684	0.2276	0.9771	-0.002
Mof_C 	C 	0.79987	0.3655	0.01623	0.024
Mof_C 	C 	0.84715	0.36739	0.04354	0.037
Mof_C 	C 	0.94595	0.36514	0.04616	-0.116
Mof_H 	H 	0.9832	0.361	0.0286	0.094
Mof_C 	C 	0.98805	0.36886	0.07365	0.085
Mof_H 	H 	0.0541	0.3656	0.0751	-0.016
Mof_C 	C 	0.9337	0.37753	0.09991	-0.108
Mof_H 	H 	0.9639	0.383	0.1188	0.076
Mof_C 	C 	0.83947	0.37815	0.09873	-0.005
Mof_H 	H 	0.8045	0.3827	0.1168	0.039
Mof_C 	C 	0.79165	0.37209	0.07051	-0.03
Mof_C 	C 	0.69494	0.3716	0.06788	0.049
Mof_C 	C 	0.64802	0.37083	0.04049	-0.009
Mof_C 	C 	0.5486	0.375	0.03803	-0.042
Mof_H 	H 	0.5113	0.3759	0.0557	0.053
Mof_C 	C 	0.5074	0.3774	0.01075	-0.038
Mof_H 	H 	0.4413	0.38	0.0094	0.047
Mof_C 	C 	0.5616	0.3763	0.9841	-0.027
Mof_H 	H 	0.5312	0.379	0.9652	0.041
Mof_C 	C 	0.6559	0.3714	0.98515	-0.057
Mof_H 	H 	0.6909	0.3699	0.9671	0.059
Mof_C 	C 	0.70302	0.36856	0.01353	0.011
Mof_C 	C 	0.61075	0.29821	0.11075	0.092
Mof_H 	H 	0.6209	0.2348	0.1055	-0.011
Mof_C 	C 	0.5689	0.42144	0.1326	0.089
Mof_H 	H 	0.5416	0.462	0.147	-0.008
Mof_N 	N 	0.43093	0.82087	0.44921	-0.24
Mof_N 	N 	0.38603	0.94426	0.4763	-0.094
Mof_N 	N 	0.35463	0.86349	0.48902	-0.101
Mof_N 	N 	0.14068	0.87139	0.59518	-0.106
Mof_N 	N 	0.1138	0.95179	0.60887	-0.098
Mof_N 	N 	0.06473	0.82718	0.63472	-0.247
Mof_C 	C 	0.4307	0.91489	0.45244	0.087
Mof_H 	H 	0.4603	0.9559	0.4386	-0.008
Mof_C 	C 	0.38188	0.79107	0.47269	0.09
Mof_H 	H 	0.3684	0.7276	0.4771	-0.007
Mof_C 	C 	0.29987	0.8655	0.51623	0.024
Mof_C 	C 	0.34715	0.86739	0.54354	0.01
Mof_C 	C 	0.44595	0.86514	0.54616	-0.059
Mof_H 	H 	0.4832	0.861	0.5286	0.063
Mof_C 	C 	0.48805	0.86886	0.57365	-0.028
Mof_H 	H 	0.5541	0.8656	0.5751	0.041
Mof_C 	C 	0.4337	0.87753	0.59991	-0.046
Mof_H 	H 	0.4639	0.883	0.6188	0.043
Mof_C 	C 	0.33947	0.87815	0.59873	-0.046
Mof_H 	H 	0.3045	0.8827	0.6168	0.051
Mof_C 	C 	0.29165	0.87209	0.57051	-0.012
Mof_C 	C 	0.19494	0.8716	0.56788	0.048
Mof_C 	C 	0.14802	0.87083	0.54049	-0.034
Mof_C 	C 	0.0486	0.875	0.53803	0.011
Mof_H 	H 	0.0113	0.8759	0.5557	0.025
Mof_C 	C 	0.0074	0.8774	0.51075	-0.143
Mof_H 	H 	0.9413	0.88	0.5094	0.102
Mof_C 	C 	0.0616	0.8763	0.4841	0.029
Mof_H 	H 	0.0312	0.879	0.4652	0.011
Mof_C 	C 	0.1559	0.8714	0.48515	-0.095
Mof_H 	H 	0.1909	0.8699	0.4671	0.068
Mof_C 	C 	0.20302	0.86856	0.51353	0.027
Mof_C 	C 	0.11075	0.79821	0.61075	0.089
Mof_H 	H 	0.1209	0.7348	0.6055	-0.016
Mof_C 	C 	0.0689	0.92144	0.6326	0.086
Mof_H 	H 	0.0416	0.962	0.647	-0.014
Mof_N 	N 	0.57087	0.31907	0.19921	-0.24
Mof_N 	N 	0.69426	0.36397	0.2263	-0.092
Mof_N 	N 	0.61349	0.39537	0.23902	-0.103
Mof_N 	N 	0.62139	0.60932	0.34518	-0.103
Mof_N 	N 	0.70179	0.6362	0.35887	-0.093
Mof_N 	N 	0.57718	0.68527	0.38472	-0.242
Mof_C 	C 	0.66489	0.3193	0.20244	0.088
Mof_H 	H 	0.7059	0.2897	0.1886	-0.008
Mof_C 	C 	0.54107	0.36812	0.22269	0.091
Mof_H 	H 	0.4776	0.3816	0.2271	-0.007
Mof_C 	C 	0.6155	0.45013	0.26623	0.037
Mof_C 	C 	0.61739	0.40285	0.29354	0.002
Mof_C 	C 	0.61514	0.30405	0.29616	-0.053
Mof_H 	H 	0.611	0.2668	0.2786	0.061
Mof_C 	C 	0.61886	0.26195	0.32365	-0.032
Mof_H 	H 	0.6156	0.1959	0.3251	0.042
Mof_C 	C 	0.62753	0.3163	0.34991	-0.04
Mof_H 	H 	0.633	0.2861	0.3688	0.042
Mof_C 	C 	0.62815	0.41053	0.34873	-0.051
Mof_H 	H 	0.6327	0.4455	0.3668	0.054
Mof_C 	C 	0.62209	0.45835	0.32051	-0.002
Mof_C 	C 	0.6216	0.55506	0.31788	0.038
Mof_C 	C 	0.62083	0.60198	0.29049	0
Mof_C 	C 	0.625	0.7014	0.28803	-0.048
Mof_H 	H 	0.6259	0.7387	0.3057	0.056
Mof_C 	C 	0.6274	0.7426	0.26075	-0.032
Mof_H 	H 	0.63	0.8087	0.2594	0.045
Mof_C 	C 	0.6263	0.6884	0.2341	-0.032
Mof_H 	H 	0.629	0.7188	0.2152	0.043
Mof_C 	C 	0.6214	0.5941	0.23515	-0.051
Mof_H 	H 	0.6199	0.5591	0.2171	0.056
Mof_C 	C 	0.61856	0.54698	0.26353	0.002
Mof_C 	C 	0.54821	0.63925	0.36075	0.091
Mof_H 	H 	0.4848	0.6291	0.3555	-0.011
Mof_C 	C 	0.67144	0.6811	0.3826	0.089
Mof_H 	H 	0.712	0.7084	0.397	-0.006
Mof_N 	N 	0.07087	0.81907	0.69921	-0.236
Mof_N 	N 	0.19426	0.86397	0.7263	-0.094
Mof_N 	N 	0.11349	0.89537	0.73902	-0.094
Mof_N 	N 	0.12139	0.10932	0.84518	-0.094
Mof_N 	N 	0.20179	0.1362	0.85887	-0.095
Mof_N 	N 	0.07718	0.18527	0.88472	-0.237
Mof_C 	C 	0.16489	0.8193	0.70244	0.088
Mof_H 	H 	0.2059	0.7897	0.6886	-0.01
Mof_C 	C 	0.04107	0.86812	0.72269	0.034
Mof_H 	H 	0.9776	0.8816	0.7271	0.034
Mof_C 	C 	0.1155	0.95013	0.76623	0.03
Mof_C 	C 	0.11739	0.90285	0.79354	0
Mof_C 	C 	0.11514	0.80405	0.79616	-0.058
Mof_H 	H 	0.111	0.7668	0.7786	0.058
Mof_C 	C 	0.11886	0.76195	0.82365	-0.035
Mof_H 	H 	0.1156	0.6959	0.8251	0.037
Mof_C 	C 	0.12753	0.8163	0.84991	-0.045
Mof_H 	H 	0.133	0.7861	0.8688	0.039
Mof_C 	C 	0.12815	0.91053	0.84873	-0.056
Mof_H 	H 	0.1327	0.9455	0.8668	0.052
Mof_C 	C 	0.12209	0.95835	0.82051	-0.004
Mof_C 	C 	0.1216	0.05506	0.81788	0.03
Mof_C 	C 	0.12083	0.10198	0.79049	-0.002
Mof_C 	C 	0.125	0.2014	0.78803	-0.053
Mof_H 	H 	0.1259	0.2387	0.8057	0.053
Mof_C 	C 	0.1274	0.2426	0.76075	-0.035
Mof_H 	H 	0.13	0.3087	0.7594	0.041
Mof_C 	C 	0.1263	0.1884	0.7341	-0.035
Mof_H 	H 	0.129	0.2188	0.7152	0.039
Mof_C 	C 	0.1214	0.0941	0.73515	-0.055
Mof_H 	H 	0.1199	0.0591	0.7171	0.054
Mof_C 	C 	0.11856	0.04698	0.76353	-0
Mof_C 	C 	0.04821	0.13925	0.86075	0.033
Mof_H 	H 	0.9848	0.1291	0.8555	0.03
Mof_C 	C 	0.17144	0.1811	0.8826	0.089
Mof_H 	H 	0.212	0.2084	0.897	-0.01
Mof_N 	N 	0.92913	0.68093	0.69921	-0.242
Mof_N 	N 	0.80574	0.63603	0.7263	-0.093
Mof_N 	N 	0.88651	0.60463	0.73902	-0.112
Mof_N 	N 	0.87861	0.39068	0.84518	-0.113
Mof_N 	N 	0.79821	0.3638	0.85887	-0.095
Mof_N 	N 	0.92282	0.31473	0.88472	-0.244
Mof_C 	C 	0.83511	0.6807	0.70244	0.088
Mof_H 	H 	0.7941	0.7103	0.6886	-0.006
Mof_C 	C 	0.95893	0.63188	0.72269	0.149
Mof_H 	H 	0.0224	0.6184	0.7271	-0.048
Mof_C 	C 	0.8845	0.54987	0.76623	0.043
Mof_C 	C 	0.88261	0.59715	0.79354	0.003
Mof_C 	C 	0.88486	0.69595	0.79616	-0.049
Mof_H 	H 	0.889	0.7332	0.7786	0.064
Mof_C 	C 	0.88114	0.73805	0.82365	-0.03
Mof_H 	H 	0.8844	0.8041	0.8251	0.046
Mof_C 	C 	0.87247	0.6837	0.84991	-0.036
Mof_H 	H 	0.867	0.7139	0.8688	0.043
Mof_C 	C 	0.87185	0.58947	0.84873	-0.048
Mof_H 	H 	0.8673	0.5545	0.8668	0.055
Mof_C 	C 	0.87791	0.54165	0.82051	-0.001
Mof_C 	C 	0.8784	0.44494	0.81788	0.043
Mof_C 	C 	0.87917	0.39802	0.79049	0.002
Mof_C 	C 	0.875	0.2986	0.78803	-0.045
Mof_H 	H 	0.8741	0.2613	0.8057	0.058
Mof_C 	C 	0.8726	0.2574	0.76075	-0.029
Mof_H 	H 	0.87	0.1913	0.7594	0.05
Mof_C 	C 	0.8737	0.3116	0.7341	-0.03
Mof_H 	H 	0.871	0.2812	0.7152	0.047
Mof_C 	C 	0.8786	0.4059	0.73515	-0.047
Mof_H 	H 	0.8801	0.4409	0.7171	0.058
Mof_C 	C 	0.88144	0.45302	0.76353	0.003
Mof_C 	C 	0.95179	0.36075	0.86075	0.15
Mof_H 	H 	0.0152	0.3709	0.8555	-0.051
Mof_C 	C 	0.82856	0.3189	0.8826	0.088
Mof_H 	H 	0.788	0.2916	0.897	-0.007
Mof_N 	N 	0.42913	0.18093	0.19921	-0.24
Mof_N 	N 	0.30574	0.13603	0.2263	-0.094
Mof_N 	N 	0.38651	0.10463	0.23902	-0.103
Mof_N 	N 	0.37861	0.89068	0.34518	-0.103
Mof_N 	N 	0.29821	0.8638	0.35887	-0.098
Mof_N 	N 	0.42282	0.81473	0.38472	-0.242
Mof_C 	C 	0.33511	0.1807	0.20244	0.088
Mof_H 	H 	0.2941	0.2103	0.1886	-0.009
Mof_C 	C 	0.45893	0.13188	0.22269	0.091
Mof_H 	H 	0.5224	0.1184	0.2271	-0.007
Mof_C 	C 	0.3845	0.04987	0.26623	0.036
Mof_C 	C 	0.38261	0.09715	0.29354	0.001
Mof_C 	C 	0.38486	0.19595	0.29616	-0.054
Mof_H 	H 	0.389	0.2332	0.2786	0.061
Mof_C 	C 	0.38114	0.23805	0.32365	-0.033
Mof_H 	H 	0.3844	0.3041	0.3251	0.042
Mof_C 	C 	0.37247	0.1837	0.34991	-0.041
Mof_H 	H 	0.367	0.2139	0.3688	0.041
Mof_C 	C 	0.37185	0.08947	0.34873	-0.053
Mof_H 	H 	0.3673	0.0545	0.3668	0.053
Mof_C 	C 	0.37791	0.04165	0.32051	-0.003
Mof_C 	C 	0.3784	0.94494	0.31788	0.036
Mof_C 	C 	0.37917	0.89802	0.29049	-0
Mof_C 	C 	0.375	0.7986	0.28803	-0.049
Mof_H 	H 	0.3741	0.7613	0.3057	0.055
Mof_C 	C 	0.3726	0.7574	0.26075	-0.033
Mof_H 	H 	0.37	0.6913	0.2594	0.045
Mof_C 	C 	0.3737	0.8116	0.2341	-0.033
Mof_H 	H 	0.371	0.7812	0.2152	0.043
Mof_C 	C 	0.3786	0.9059	0.23515	-0.051
Mof_H 	H 	0.3801	0.9409	0.2171	0.055
Mof_C 	C 	0.38144	0.95302	0.26353	0
Mof_C 	C 	0.45179	0.86075	0.36075	0.091
Mof_H 	H 	0.5152	0.8709	0.3555	-0.01
Mof_C 	C 	0.32856	0.8189	0.3826	0.088
Mof_H 	H 	0.288	0.7916	0.397	-0.011
Mof_Cu	Cu	0.5	0.75	0.41671	0.851
Mof_Cu	Cu	3.27633e-32	0.25	0.91671	0.838
Mof_Cu	Cu	0.5	0.25	0.16671	0.851
Mof_Cu	Cu	7.77266e-33	0.75	0.66671	0.838
_end
