data_functionalizedCrystal
_audit_creation_method	'EQeq! by Chris Wilmer'
_symmetry_space_group_name_H-M	'P1'
_symmetry_Int_Tables_number	1
_symmetry_cell_setting	triclinic
loop_
_symmetry_equiv_pos_as_xyz
  x,y,z
_cell_length_a	36.332
_cell_length_b	36.332
_cell_length_c	15.208
_cell_angle_alpha	90
_cell_angle_beta	90
_cell_angle_gamma	90
loop_
_atom_site_label
_atom_site_type_symbol
_atom_site_fract_x
_atom_site_fract_y
_atom_site_fract_z
_atom_site_charge
Mof_C 	C 	0.0698	0.3521	0.2226	0.246
Mof_C 	C 	0.0737	0.3268	0.3016	0.081
Mof_C 	C 	0.1457	0.4257	0.3038	0.132
Mof_C 	C 	0.1632	0.4305	0.2135	0.213
Mof_C 	C 	0.206	0.3049	0.2797	0.315
Mof_C 	C 	0.1876	0.2917	0.1923	0.087
Mof_C 	C 	0.0456	0.2973	0.4218	-0.074
Mof_C 	C 	0.0473	0.2585	0.4201	0.265
Mof_C 	C 	0.1161	0.4546	0.4224	-0.098
Mof_C 	C 	0.185	0.249	0.0784	-0.09
Mof_C 	C 	0.1572	0.2266	0.0793	0.254
Mof_C 	C 	0.0781	0.4531	0.4194	0.319
Mof_C 	C 	0.0571	0.4492	0.3353	-0.794
Mof_H 	H 	0.0738	0.4505	0.2865	0.256
Mof_H 	H 	0.0393	0.4687	0.3309	0.232
Mof_H 	H 	0.0446	0.4259	0.3346	0.255
Mof_C 	C 	0.0517	0.2376	0.3353	-0.711
Mof_H 	H 	0.0507	0.2544	0.2867	0.219
Mof_H 	H 	0.0321	0.2199	0.3299	0.203
Mof_H 	H 	0.0749	0.225	0.3351	0.223
Mof_C 	C 	0.1417	0.2093	0.1634	-0.679
Mof_H 	H 	0.121	0.1941	0.1489	0.207
Mof_H 	H 	0.134	0.2284	0.203	0.218
Mof_H 	H 	0.1603	0.1946	0.191	0.193
Mof_Mn	Mn	0.14727	0.35212	0.24824	0.999
Mof_N 	N 	0.0447	0.3168	0.3414	-0.219
Mof_N 	N 	0.137	0.4572	0.3393	-0.229
Mof_N 	N 	0.2011	0.26273	0.1601	-0.219
Mof_O 	O 	0.0361	0.3577	0.1997	-0.364
Mof_O 	O 	0.0971	0.36318	0.1828	-0.328
Mof_O 	O 	0.1072	0.319	0.3246	-0.272
Mof_O 	O 	0.1711	0.4623	0.1893	-0.351
Mof_O 	O 	0.173	0.40002	0.1757	-0.284
Mof_O 	O 	0.1402	0.3947	0.3324	-0.322
Mof_O 	O 	0.1613	0.31152	0.1639	-0.308
Mof_O 	O 	0.1932	0.33314	0.315	-0.4
Mof_O 	O 	0.2311	0.28504	0.3089	-0.569
Mof_C 	C 	0.9302	0.6479	0.2226	0.246
Mof_C 	C 	0.9263	0.6732	0.3016	0.083
Mof_C 	C 	0.8543	0.5743	0.3038	0.132
Mof_C 	C 	0.8368	0.5695	0.2135	0.215
Mof_C 	C 	0.794	0.6951	0.2797	0.316
Mof_C 	C 	0.8124	0.7083	0.1923	0.087
Mof_C 	C 	0.9544	0.7027	0.4218	-0.076
Mof_C 	C 	0.9527	0.7415	0.4201	0.28
Mof_C 	C 	0.8839	0.5454	0.4224	-0.103
Mof_C 	C 	0.815	0.751	0.0784	-0.092
Mof_C 	C 	0.8428	0.7734	0.0793	0.258
Mof_C 	C 	0.9219	0.5469	0.4194	0.332
Mof_C 	C 	0.9429	0.5508	0.3353	-0.818
Mof_H 	H 	0.9262	0.5495	0.2865	0.264
Mof_H 	H 	0.9607	0.5313	0.3309	0.243
Mof_H 	H 	0.9554	0.5741	0.3346	0.266
Mof_C 	C 	0.9483	0.7624	0.3353	-0.736
Mof_H 	H 	0.9493	0.7456	0.2867	0.229
Mof_H 	H 	0.9679	0.7801	0.3299	0.217
Mof_H 	H 	0.9251	0.775	0.3351	0.232
Mof_C 	C 	0.8583	0.7907	0.1634	-0.686
Mof_H 	H 	0.879	0.8059	0.1489	0.212
Mof_H 	H 	0.866	0.7716	0.203	0.221
Mof_H 	H 	0.8397	0.8054	0.191	0.195
Mof_Mn	Mn	0.85273	0.64788	0.24824	0.999
Mof_N 	N 	0.9553	0.6832	0.3414	-0.215
Mof_N 	N 	0.863	0.5428	0.3393	-0.228
Mof_N 	N 	0.7989	0.73727	0.1601	-0.219
Mof_O 	O 	0.9639	0.6423	0.1997	-0.355
Mof_O 	O 	0.9029	0.63682	0.1828	-0.327
Mof_O 	O 	0.8928	0.681	0.3246	-0.272
Mof_O 	O 	0.8289	0.5377	0.1893	-0.35
Mof_O 	O 	0.827	0.59998	0.1757	-0.284
Mof_O 	O 	0.8598	0.6053	0.3324	-0.322
Mof_O 	O 	0.8387	0.68848	0.1639	-0.308
Mof_O 	O 	0.8068	0.66686	0.315	-0.4
Mof_O 	O 	0.7689	0.71496	0.3089	-0.569
Mof_C 	C 	0.6479	0.0698	0.2226	0.247
Mof_C 	C 	0.6732	0.0737	0.3016	0.082
Mof_C 	C 	0.5743	0.1457	0.3038	0.133
Mof_C 	C 	0.5695	0.1632	0.2135	0.214
Mof_C 	C 	0.6951	0.206	0.2797	0.316
Mof_C 	C 	0.7083	0.1876	0.1923	0.087
Mof_C 	C 	0.7027	0.0456	0.4218	-0.075
Mof_C 	C 	0.7415	0.0473	0.4201	0.266
Mof_C 	C 	0.5454	0.1161	0.4224	-0.098
Mof_C 	C 	0.751	0.185	0.0784	-0.09
Mof_C 	C 	0.7734	0.1572	0.0793	0.255
Mof_C 	C 	0.5469	0.0781	0.4194	0.319
Mof_C 	C 	0.5508	0.0571	0.3353	-0.794
Mof_H 	H 	0.5495	0.0738	0.2865	0.256
Mof_H 	H 	0.5313	0.0393	0.3309	0.232
Mof_H 	H 	0.5741	0.0446	0.3346	0.255
Mof_C 	C 	0.7624	0.0517	0.3353	-0.714
Mof_H 	H 	0.7456	0.0507	0.2867	0.22
Mof_H 	H 	0.7801	0.0321	0.3299	0.204
Mof_H 	H 	0.775	0.0749	0.3351	0.225
Mof_C 	C 	0.7907	0.1417	0.1634	-0.681
Mof_H 	H 	0.8059	0.121	0.1489	0.209
Mof_H 	H 	0.7716	0.134	0.203	0.219
Mof_H 	H 	0.8054	0.1603	0.191	0.194
Mof_Mn	Mn	0.64788	0.14727	0.24824	0.999
Mof_N 	N 	0.6832	0.0447	0.3414	-0.219
Mof_N 	N 	0.5428	0.137	0.3393	-0.229
Mof_N 	N 	0.73727	0.2011	0.1601	-0.219
Mof_O 	O 	0.6423	0.0361	0.1997	-0.364
Mof_O 	O 	0.63682	0.0971	0.1828	-0.328
Mof_O 	O 	0.681	0.1072	0.3246	-0.272
Mof_O 	O 	0.5377	0.1711	0.1893	-0.351
Mof_O 	O 	0.59998	0.173	0.1757	-0.284
Mof_O 	O 	0.6053	0.1402	0.3324	-0.322
Mof_O 	O 	0.68848	0.1613	0.1639	-0.308
Mof_O 	O 	0.66686	0.1932	0.315	-0.4
Mof_O 	O 	0.71496	0.2311	0.3089	-0.569
Mof_C 	C 	0.3521	0.9302	0.2226	0.246
Mof_C 	C 	0.3268	0.9263	0.3016	0.083
Mof_C 	C 	0.4257	0.8543	0.3038	0.132
Mof_C 	C 	0.4305	0.8368	0.2135	0.215
Mof_C 	C 	0.3049	0.794	0.2797	0.316
Mof_C 	C 	0.2917	0.8124	0.1923	0.087
Mof_C 	C 	0.2973	0.9544	0.4218	-0.076
Mof_C 	C 	0.2585	0.9527	0.4201	0.279
Mof_C 	C 	0.4546	0.8839	0.4224	-0.103
Mof_C 	C 	0.249	0.815	0.0784	-0.091
Mof_C 	C 	0.2266	0.8428	0.0793	0.257
Mof_C 	C 	0.4531	0.9219	0.4194	0.332
Mof_C 	C 	0.4492	0.9429	0.3353	-0.818
Mof_H 	H 	0.4505	0.9262	0.2865	0.264
Mof_H 	H 	0.4687	0.9607	0.3309	0.243
Mof_H 	H 	0.4259	0.9554	0.3346	0.266
Mof_C 	C 	0.2376	0.9483	0.3353	-0.733
Mof_H 	H 	0.2544	0.9493	0.2867	0.229
Mof_H 	H 	0.2199	0.9679	0.3299	0.216
Mof_H 	H 	0.225	0.9251	0.3351	0.231
Mof_C 	C 	0.2093	0.8583	0.1634	-0.684
Mof_H 	H 	0.1941	0.879	0.1489	0.21
Mof_H 	H 	0.2284	0.866	0.203	0.22
Mof_H 	H 	0.1946	0.8397	0.191	0.194
Mof_Mn	Mn	0.35212	0.85273	0.24824	0.999
Mof_N 	N 	0.3168	0.9553	0.3414	-0.216
Mof_N 	N 	0.4572	0.863	0.3393	-0.228
Mof_N 	N 	0.26273	0.7989	0.1601	-0.219
Mof_O 	O 	0.3577	0.9639	0.1997	-0.355
Mof_O 	O 	0.36318	0.9029	0.1828	-0.327
Mof_O 	O 	0.319	0.8928	0.3246	-0.272
Mof_O 	O 	0.4623	0.8289	0.1893	-0.35
Mof_O 	O 	0.40002	0.827	0.1757	-0.284
Mof_O 	O 	0.3947	0.8598	0.3324	-0.322
Mof_O 	O 	0.31152	0.8387	0.1639	-0.308
Mof_O 	O 	0.33314	0.8068	0.315	-0.4
Mof_O 	O 	0.28504	0.7689	0.3089	-0.569
Mof_C 	C 	0.9302	0.3521	0.7774	0.246
Mof_C 	C 	0.9263	0.3268	0.6984	0.082
Mof_C 	C 	0.8543	0.4257	0.6962	0.131
Mof_C 	C 	0.8368	0.4305	0.7865	0.215
Mof_C 	C 	0.794	0.3049	0.7203	0.315
Mof_C 	C 	0.8124	0.2917	0.8077	0.086
Mof_C 	C 	0.9544	0.2973	0.5782	-0.075
Mof_C 	C 	0.9527	0.2585	0.5799	0.277
Mof_C 	C 	0.8839	0.4546	0.5776	-0.103
Mof_C 	C 	0.815	0.249	0.9216	-0.099
Mof_C 	C 	0.8428	0.2266	0.9207	0.244
Mof_C 	C 	0.9219	0.4531	0.5806	0.331
Mof_C 	C 	0.9429	0.4492	0.6647	-0.814
Mof_H 	H 	0.9262	0.4505	0.7135	0.261
Mof_H 	H 	0.9607	0.4687	0.6691	0.241
Mof_H 	H 	0.9554	0.4259	0.6654	0.265
Mof_C 	C 	0.9483	0.2376	0.6647	-0.728
Mof_H 	H 	0.9493	0.2544	0.7133	0.226
Mof_H 	H 	0.9679	0.2199	0.6701	0.213
Mof_H 	H 	0.9251	0.225	0.6649	0.229
Mof_C 	C 	0.8583	0.2093	0.8366	-0.671
Mof_H 	H 	0.879	0.1941	0.8511	0.203
Mof_H 	H 	0.866	0.2284	0.797	0.216
Mof_H 	H 	0.8397	0.1946	0.809	0.19
Mof_Mn	Mn	0.85273	0.35212	0.75176	0.998
Mof_N 	N 	0.9553	0.3168	0.6586	-0.216
Mof_N 	N 	0.863	0.4572	0.6607	-0.228
Mof_N 	N 	0.7989	0.26273	0.8399	-0.219
Mof_O 	O 	0.9639	0.3577	0.8003	-0.359
Mof_O 	O 	0.9029	0.36318	0.8172	-0.331
Mof_O 	O 	0.8928	0.319	0.6754	-0.272
Mof_O 	O 	0.8289	0.4623	0.8107	-0.355
Mof_O 	O 	0.827	0.40002	0.8243	-0.289
Mof_O 	O 	0.8598	0.3947	0.6676	-0.322
Mof_O 	O 	0.8387	0.31152	0.8361	-0.312
Mof_O 	O 	0.8068	0.33314	0.685	-0.4
Mof_O 	O 	0.7689	0.28504	0.6911	-0.568
Mof_C 	C 	0.0698	0.6479	0.7774	0.247
Mof_C 	C 	0.0737	0.6732	0.6984	0.081
Mof_C 	C 	0.1457	0.5743	0.6962	0.132
Mof_C 	C 	0.1632	0.5695	0.7865	0.214
Mof_C 	C 	0.206	0.6951	0.7203	0.315
Mof_C 	C 	0.1876	0.7083	0.8077	0.086
Mof_C 	C 	0.0456	0.7027	0.5782	-0.074
Mof_C 	C 	0.0473	0.7415	0.5799	0.265
Mof_C 	C 	0.1161	0.5454	0.5776	-0.097
Mof_C 	C 	0.185	0.751	0.9216	-0.099
Mof_C 	C 	0.1572	0.7734	0.9207	0.242
Mof_C 	C 	0.0781	0.5469	0.5806	0.318
Mof_C 	C 	0.0571	0.5508	0.6647	-0.79
Mof_H 	H 	0.0738	0.5495	0.7135	0.253
Mof_H 	H 	0.0393	0.5313	0.6691	0.23
Mof_H 	H 	0.0446	0.5741	0.6654	0.254
Mof_C 	C 	0.0517	0.7624	0.6647	-0.709
Mof_H 	H 	0.0507	0.7456	0.7133	0.217
Mof_H 	H 	0.0321	0.7801	0.6701	0.201
Mof_H 	H 	0.0749	0.775	0.6649	0.223
Mof_C 	C 	0.1417	0.7907	0.8366	-0.668
Mof_H 	H 	0.121	0.8059	0.8511	0.201
Mof_H 	H 	0.134	0.7716	0.797	0.215
Mof_H 	H 	0.1603	0.8054	0.809	0.189
Mof_Mn	Mn	0.14727	0.64788	0.75176	0.997
Mof_N 	N 	0.0447	0.6832	0.6586	-0.219
Mof_N 	N 	0.137	0.5428	0.6607	-0.229
Mof_N 	N 	0.2011	0.73727	0.8399	-0.219
Mof_O 	O 	0.0361	0.6423	0.8003	-0.368
Mof_O 	O 	0.0971	0.63682	0.8172	-0.333
Mof_O 	O 	0.1072	0.681	0.6754	-0.272
Mof_O 	O 	0.1711	0.5377	0.8107	-0.355
Mof_O 	O 	0.173	0.59998	0.8243	-0.289
Mof_O 	O 	0.1402	0.6053	0.6676	-0.322
Mof_O 	O 	0.1613	0.68848	0.8361	-0.312
Mof_O 	O 	0.1932	0.66686	0.685	-0.4
Mof_O 	O 	0.2311	0.71496	0.6911	-0.568
Mof_C 	C 	0.3521	0.0698	0.7774	0.247
Mof_C 	C 	0.3268	0.0737	0.6984	0.081
Mof_C 	C 	0.4257	0.1457	0.6962	0.132
Mof_C 	C 	0.4305	0.1632	0.7865	0.214
Mof_C 	C 	0.3049	0.206	0.7203	0.315
Mof_C 	C 	0.2917	0.1876	0.8077	0.086
Mof_C 	C 	0.2973	0.0456	0.5782	-0.074
Mof_C 	C 	0.2585	0.0473	0.5799	0.264
Mof_C 	C 	0.4546	0.1161	0.5776	-0.097
Mof_C 	C 	0.249	0.185	0.9216	-0.098
Mof_C 	C 	0.2266	0.1572	0.9207	0.241
Mof_C 	C 	0.4531	0.0781	0.5806	0.318
Mof_C 	C 	0.4492	0.0571	0.6647	-0.79
Mof_H 	H 	0.4505	0.0738	0.7135	0.253
Mof_H 	H 	0.4687	0.0393	0.6691	0.23
Mof_H 	H 	0.4259	0.0446	0.6654	0.254
Mof_C 	C 	0.2376	0.0517	0.6647	-0.706
Mof_H 	H 	0.2544	0.0507	0.7133	0.216
Mof_H 	H 	0.2199	0.0321	0.6701	0.2
Mof_H 	H 	0.225	0.0749	0.6649	0.221
Mof_C 	C 	0.2093	0.1417	0.8366	-0.666
Mof_H 	H 	0.1941	0.121	0.8511	0.2
Mof_H 	H 	0.2284	0.134	0.797	0.214
Mof_H 	H 	0.1946	0.1603	0.809	0.188
Mof_Mn	Mn	0.35212	0.14727	0.75176	0.998
Mof_N 	N 	0.3168	0.0447	0.6586	-0.219
Mof_N 	N 	0.4572	0.137	0.6607	-0.229
Mof_N 	N 	0.26273	0.2011	0.8399	-0.22
Mof_O 	O 	0.3577	0.0361	0.8003	-0.368
Mof_O 	O 	0.36318	0.0971	0.8172	-0.332
Mof_O 	O 	0.319	0.1072	0.6754	-0.272
Mof_O 	O 	0.4623	0.1711	0.8107	-0.355
Mof_O 	O 	0.40002	0.173	0.8243	-0.289
Mof_O 	O 	0.3947	0.1402	0.6676	-0.322
Mof_O 	O 	0.31152	0.1613	0.8361	-0.312
Mof_O 	O 	0.33314	0.1932	0.685	-0.4
Mof_O 	O 	0.28504	0.2311	0.6911	-0.568
Mof_C 	C 	0.6479	0.9302	0.7774	0.246
Mof_C 	C 	0.6732	0.9263	0.6984	0.082
Mof_C 	C 	0.5743	0.8543	0.6962	0.131
Mof_C 	C 	0.5695	0.8368	0.7865	0.215
Mof_C 	C 	0.6951	0.794	0.7203	0.315
Mof_C 	C 	0.7083	0.8124	0.8077	0.086
Mof_C 	C 	0.7027	0.9544	0.5782	-0.076
Mof_C 	C 	0.7415	0.9527	0.5799	0.279
Mof_C 	C 	0.5454	0.8839	0.5776	-0.103
Mof_C 	C 	0.751	0.815	0.9216	-0.1
Mof_C 	C 	0.7734	0.8428	0.9207	0.245
Mof_C 	C 	0.5469	0.9219	0.5806	0.331
Mof_C 	C 	0.5508	0.9429	0.6647	-0.814
Mof_H 	H 	0.5495	0.9262	0.7135	0.261
Mof_H 	H 	0.5313	0.9607	0.6691	0.241
Mof_H 	H 	0.5741	0.9554	0.6654	0.265
Mof_C 	C 	0.7624	0.9483	0.6647	-0.731
Mof_H 	H 	0.7456	0.9493	0.7133	0.227
Mof_H 	H 	0.7801	0.9679	0.6701	0.214
Mof_H 	H 	0.775	0.9251	0.6649	0.23
Mof_C 	C 	0.7907	0.8583	0.8366	-0.673
Mof_H 	H 	0.8059	0.879	0.8511	0.204
Mof_H 	H 	0.7716	0.866	0.797	0.217
Mof_H 	H 	0.8054	0.8397	0.809	0.191
Mof_Mn	Mn	0.64788	0.85273	0.75176	0.998
Mof_N 	N 	0.6832	0.9553	0.6586	-0.216
Mof_N 	N 	0.5428	0.863	0.6607	-0.228
Mof_N 	N 	0.73727	0.7989	0.8399	-0.219
Mof_O 	O 	0.6423	0.9639	0.8003	-0.359
Mof_O 	O 	0.63682	0.9029	0.8172	-0.331
Mof_O 	O 	0.681	0.8928	0.6754	-0.272
Mof_O 	O 	0.5377	0.8289	0.8107	-0.355
Mof_O 	O 	0.59998	0.827	0.8243	-0.289
Mof_O 	O 	0.6053	0.8598	0.6676	-0.322
Mof_O 	O 	0.68848	0.8387	0.8361	-0.312
Mof_O 	O 	0.66686	0.8068	0.685	-0.4
Mof_O 	O 	0.71496	0.7689	0.6911	-0.568
Mof_C 	C 	0.9302	0.6479	0.7774	0.246
Mof_C 	C 	0.9263	0.6732	0.6984	0.082
Mof_C 	C 	0.8543	0.5743	0.6962	0.131
Mof_C 	C 	0.8368	0.5695	0.7865	0.215
Mof_C 	C 	0.794	0.6951	0.7203	0.315
Mof_C 	C 	0.8124	0.7083	0.8077	0.086
Mof_C 	C 	0.9544	0.7027	0.5782	-0.076
Mof_C 	C 	0.9527	0.7415	0.5799	0.279
Mof_C 	C 	0.8839	0.5454	0.5776	-0.103
Mof_C 	C 	0.815	0.751	0.9216	-0.1
Mof_C 	C 	0.8428	0.7734	0.9207	0.245
Mof_C 	C 	0.9219	0.5469	0.5806	0.331
Mof_C 	C 	0.9429	0.5508	0.6647	-0.814
Mof_H 	H 	0.9262	0.5495	0.7135	0.261
Mof_H 	H 	0.9607	0.5313	0.6691	0.241
Mof_H 	H 	0.9554	0.5741	0.6654	0.265
Mof_C 	C 	0.9483	0.7624	0.6647	-0.731
Mof_H 	H 	0.9493	0.7456	0.7133	0.227
Mof_H 	H 	0.9679	0.7801	0.6701	0.214
Mof_H 	H 	0.9251	0.775	0.6649	0.23
Mof_C 	C 	0.8583	0.7907	0.8366	-0.673
Mof_H 	H 	0.879	0.8059	0.8511	0.204
Mof_H 	H 	0.866	0.7716	0.797	0.217
Mof_H 	H 	0.8397	0.8054	0.809	0.191
Mof_Mn	Mn	0.85273	0.64788	0.75176	0.998
Mof_N 	N 	0.9553	0.6832	0.6586	-0.216
Mof_N 	N 	0.863	0.5428	0.6607	-0.228
Mof_N 	N 	0.7989	0.73727	0.8399	-0.219
Mof_O 	O 	0.9639	0.6423	0.8003	-0.359
Mof_O 	O 	0.9029	0.63682	0.8172	-0.331
Mof_O 	O 	0.8928	0.681	0.6754	-0.272
Mof_O 	O 	0.8289	0.5377	0.8107	-0.355
Mof_O 	O 	0.827	0.59998	0.8243	-0.289
Mof_O 	O 	0.8598	0.6053	0.6676	-0.322
Mof_O 	O 	0.8387	0.68848	0.8361	-0.312
Mof_O 	O 	0.8068	0.66686	0.685	-0.4
Mof_O 	O 	0.7689	0.71496	0.6911	-0.568
Mof_C 	C 	0.0698	0.3521	0.7774	0.247
Mof_C 	C 	0.0737	0.3268	0.6984	0.081
Mof_C 	C 	0.1457	0.4257	0.6962	0.132
Mof_C 	C 	0.1632	0.4305	0.7865	0.214
Mof_C 	C 	0.206	0.3049	0.7203	0.315
Mof_C 	C 	0.1876	0.2917	0.8077	0.086
Mof_C 	C 	0.0456	0.2973	0.5782	-0.074
Mof_C 	C 	0.0473	0.2585	0.5799	0.264
Mof_C 	C 	0.1161	0.4546	0.5776	-0.097
Mof_C 	C 	0.185	0.249	0.9216	-0.098
Mof_C 	C 	0.1572	0.2266	0.9207	0.241
Mof_C 	C 	0.0781	0.4531	0.5806	0.318
Mof_C 	C 	0.0571	0.4492	0.6647	-0.79
Mof_H 	H 	0.0738	0.4505	0.7135	0.253
Mof_H 	H 	0.0393	0.4687	0.6691	0.23
Mof_H 	H 	0.0446	0.4259	0.6654	0.254
Mof_C 	C 	0.0517	0.2376	0.6647	-0.706
Mof_H 	H 	0.0507	0.2544	0.7133	0.216
Mof_H 	H 	0.0321	0.2199	0.6701	0.2
Mof_H 	H 	0.0749	0.225	0.6649	0.221
Mof_C 	C 	0.1417	0.2093	0.8366	-0.666
Mof_H 	H 	0.121	0.1941	0.8511	0.2
Mof_H 	H 	0.134	0.2284	0.797	0.214
Mof_H 	H 	0.1603	0.1946	0.809	0.188
Mof_Mn	Mn	0.14727	0.35212	0.75176	0.998
Mof_N 	N 	0.0447	0.3168	0.6586	-0.219
Mof_N 	N 	0.137	0.4572	0.6607	-0.229
Mof_N 	N 	0.2011	0.26273	0.8399	-0.22
Mof_O 	O 	0.0361	0.3577	0.8003	-0.368
Mof_O 	O 	0.0971	0.36318	0.8172	-0.332
Mof_O 	O 	0.1072	0.319	0.6754	-0.272
Mof_O 	O 	0.1711	0.4623	0.8107	-0.355
Mof_O 	O 	0.173	0.40002	0.8243	-0.289
Mof_O 	O 	0.1402	0.3947	0.6676	-0.322
Mof_O 	O 	0.1613	0.31152	0.8361	-0.312
Mof_O 	O 	0.1932	0.33314	0.685	-0.4
Mof_O 	O 	0.2311	0.28504	0.6911	-0.568
Mof_C 	C 	0.3521	0.9302	0.7774	0.246
Mof_C 	C 	0.3268	0.9263	0.6984	0.082
Mof_C 	C 	0.4257	0.8543	0.6962	0.131
Mof_C 	C 	0.4305	0.8368	0.7865	0.215
Mof_C 	C 	0.3049	0.794	0.7203	0.315
Mof_C 	C 	0.2917	0.8124	0.8077	0.086
Mof_C 	C 	0.2973	0.9544	0.5782	-0.075
Mof_C 	C 	0.2585	0.9527	0.5799	0.277
Mof_C 	C 	0.4546	0.8839	0.5776	-0.103
Mof_C 	C 	0.249	0.815	0.9216	-0.099
Mof_C 	C 	0.2266	0.8428	0.9207	0.244
Mof_C 	C 	0.4531	0.9219	0.5806	0.331
Mof_C 	C 	0.4492	0.9429	0.6647	-0.814
Mof_H 	H 	0.4505	0.9262	0.7135	0.261
Mof_H 	H 	0.4687	0.9607	0.6691	0.241
Mof_H 	H 	0.4259	0.9554	0.6654	0.265
Mof_C 	C 	0.2376	0.9483	0.6647	-0.728
Mof_H 	H 	0.2544	0.9493	0.7133	0.226
Mof_H 	H 	0.2199	0.9679	0.6701	0.213
Mof_H 	H 	0.225	0.9251	0.6649	0.229
Mof_C 	C 	0.2093	0.8583	0.8366	-0.671
Mof_H 	H 	0.1941	0.879	0.8511	0.203
Mof_H 	H 	0.2284	0.866	0.797	0.216
Mof_H 	H 	0.1946	0.8397	0.809	0.19
Mof_Mn	Mn	0.35212	0.85273	0.75176	0.998
Mof_N 	N 	0.3168	0.9553	0.6586	-0.216
Mof_N 	N 	0.4572	0.863	0.6607	-0.228
Mof_N 	N 	0.26273	0.7989	0.8399	-0.219
Mof_O 	O 	0.3577	0.9639	0.8003	-0.359
Mof_O 	O 	0.36318	0.9029	0.8172	-0.331
Mof_O 	O 	0.319	0.8928	0.6754	-0.272
Mof_O 	O 	0.4623	0.8289	0.8107	-0.355
Mof_O 	O 	0.40002	0.827	0.8243	-0.289
Mof_O 	O 	0.3947	0.8598	0.6676	-0.322
Mof_O 	O 	0.31152	0.8387	0.8361	-0.312
Mof_O 	O 	0.33314	0.8068	0.685	-0.4
Mof_O 	O 	0.28504	0.7689	0.6911	-0.568
Mof_C 	C 	0.6479	0.0698	0.7774	0.247
Mof_C 	C 	0.6732	0.0737	0.6984	0.081
Mof_C 	C 	0.5743	0.1457	0.6962	0.132
Mof_C 	C 	0.5695	0.1632	0.7865	0.214
Mof_C 	C 	0.6951	0.206	0.7203	0.315
Mof_C 	C 	0.7083	0.1876	0.8077	0.086
Mof_C 	C 	0.7027	0.0456	0.5782	-0.074
Mof_C 	C 	0.7415	0.0473	0.5799	0.265
Mof_C 	C 	0.5454	0.1161	0.5776	-0.097
Mof_C 	C 	0.751	0.185	0.9216	-0.099
Mof_C 	C 	0.7734	0.1572	0.9207	0.242
Mof_C 	C 	0.5469	0.0781	0.5806	0.318
Mof_C 	C 	0.5508	0.0571	0.6647	-0.79
Mof_H 	H 	0.5495	0.0738	0.7135	0.253
Mof_H 	H 	0.5313	0.0393	0.6691	0.23
Mof_H 	H 	0.5741	0.0446	0.6654	0.254
Mof_C 	C 	0.7624	0.0517	0.6647	-0.709
Mof_H 	H 	0.7456	0.0507	0.7133	0.217
Mof_H 	H 	0.7801	0.0321	0.6701	0.201
Mof_H 	H 	0.775	0.0749	0.6649	0.223
Mof_C 	C 	0.7907	0.1417	0.8366	-0.668
Mof_H 	H 	0.8059	0.121	0.8511	0.201
Mof_H 	H 	0.7716	0.134	0.797	0.215
Mof_H 	H 	0.8054	0.1603	0.809	0.189
Mof_Mn	Mn	0.64788	0.14727	0.75176	0.997
Mof_N 	N 	0.6832	0.0447	0.6586	-0.219
Mof_N 	N 	0.5428	0.137	0.6607	-0.229
Mof_N 	N 	0.73727	0.2011	0.8399	-0.219
Mof_O 	O 	0.6423	0.0361	0.8003	-0.368
Mof_O 	O 	0.63682	0.0971	0.8172	-0.333
Mof_O 	O 	0.681	0.1072	0.6754	-0.272
Mof_O 	O 	0.5377	0.1711	0.8107	-0.355
Mof_O 	O 	0.59998	0.173	0.8243	-0.289
Mof_O 	O 	0.6053	0.1402	0.6676	-0.322
Mof_O 	O 	0.68848	0.1613	0.8361	-0.312
Mof_O 	O 	0.66686	0.1932	0.685	-0.4
Mof_O 	O 	0.71496	0.2311	0.6911	-0.568
Mof_C 	C 	0.0698	0.6479	0.2226	0.247
Mof_C 	C 	0.0737	0.6732	0.3016	0.082
Mof_C 	C 	0.1457	0.5743	0.3038	0.133
Mof_C 	C 	0.1632	0.5695	0.2135	0.214
Mof_C 	C 	0.206	0.6951	0.2797	0.316
Mof_C 	C 	0.1876	0.7083	0.1923	0.087
Mof_C 	C 	0.0456	0.7027	0.4218	-0.075
Mof_C 	C 	0.0473	0.7415	0.4201	0.266
Mof_C 	C 	0.1161	0.5454	0.4224	-0.098
Mof_C 	C 	0.185	0.751	0.0784	-0.09
Mof_C 	C 	0.1572	0.7734	0.0793	0.255
Mof_C 	C 	0.0781	0.5469	0.4194	0.319
Mof_C 	C 	0.0571	0.5508	0.3353	-0.794
Mof_H 	H 	0.0738	0.5495	0.2865	0.256
Mof_H 	H 	0.0393	0.5313	0.3309	0.232
Mof_H 	H 	0.0446	0.5741	0.3346	0.255
Mof_C 	C 	0.0517	0.7624	0.3353	-0.714
Mof_H 	H 	0.0507	0.7456	0.2867	0.22
Mof_H 	H 	0.0321	0.7801	0.3299	0.204
Mof_H 	H 	0.0749	0.775	0.3351	0.225
Mof_C 	C 	0.1417	0.7907	0.1634	-0.681
Mof_H 	H 	0.121	0.8059	0.1489	0.209
Mof_H 	H 	0.134	0.7716	0.203	0.219
Mof_H 	H 	0.1603	0.8054	0.191	0.194
Mof_Mn	Mn	0.14727	0.64788	0.24824	0.999
Mof_N 	N 	0.0447	0.6832	0.3414	-0.219
Mof_N 	N 	0.137	0.5428	0.3393	-0.229
Mof_N 	N 	0.2011	0.73727	0.1601	-0.219
Mof_O 	O 	0.0361	0.6423	0.1997	-0.364
Mof_O 	O 	0.0971	0.63682	0.1828	-0.328
Mof_O 	O 	0.1072	0.681	0.3246	-0.272
Mof_O 	O 	0.1711	0.5377	0.1893	-0.351
Mof_O 	O 	0.173	0.59998	0.1757	-0.284
Mof_O 	O 	0.1402	0.6053	0.3324	-0.322
Mof_O 	O 	0.1613	0.68848	0.1639	-0.308
Mof_O 	O 	0.1932	0.66686	0.315	-0.4
Mof_O 	O 	0.2311	0.71496	0.3089	-0.569
Mof_C 	C 	0.9302	0.3521	0.2226	0.246
Mof_C 	C 	0.9263	0.3268	0.3016	0.083
Mof_C 	C 	0.8543	0.4257	0.3038	0.132
Mof_C 	C 	0.8368	0.4305	0.2135	0.215
Mof_C 	C 	0.794	0.3049	0.2797	0.316
Mof_C 	C 	0.8124	0.2917	0.1923	0.087
Mof_C 	C 	0.9544	0.2973	0.4218	-0.076
Mof_C 	C 	0.9527	0.2585	0.4201	0.279
Mof_C 	C 	0.8839	0.4546	0.4224	-0.103
Mof_C 	C 	0.815	0.249	0.0784	-0.091
Mof_C 	C 	0.8428	0.2266	0.0793	0.257
Mof_C 	C 	0.9219	0.4531	0.4194	0.332
Mof_C 	C 	0.9429	0.4492	0.3353	-0.818
Mof_H 	H 	0.9262	0.4505	0.2865	0.264
Mof_H 	H 	0.9607	0.4687	0.3309	0.243
Mof_H 	H 	0.9554	0.4259	0.3346	0.266
Mof_C 	C 	0.9483	0.2376	0.3353	-0.733
Mof_H 	H 	0.9493	0.2544	0.2867	0.229
Mof_H 	H 	0.9679	0.2199	0.3299	0.216
Mof_H 	H 	0.9251	0.225	0.3351	0.231
Mof_C 	C 	0.8583	0.2093	0.1634	-0.684
Mof_H 	H 	0.879	0.1941	0.1489	0.21
Mof_H 	H 	0.866	0.2284	0.203	0.22
Mof_H 	H 	0.8397	0.1946	0.191	0.194
Mof_Mn	Mn	0.85273	0.35212	0.24824	0.999
Mof_N 	N 	0.9553	0.3168	0.3414	-0.216
Mof_N 	N 	0.863	0.4572	0.3393	-0.228
Mof_N 	N 	0.7989	0.26273	0.1601	-0.219
Mof_O 	O 	0.9639	0.3577	0.1997	-0.355
Mof_O 	O 	0.9029	0.36318	0.1828	-0.327
Mof_O 	O 	0.8928	0.319	0.3246	-0.272
Mof_O 	O 	0.8289	0.4623	0.1893	-0.35
Mof_O 	O 	0.827	0.40002	0.1757	-0.284
Mof_O 	O 	0.8598	0.3947	0.3324	-0.322
Mof_O 	O 	0.8387	0.31152	0.1639	-0.308
Mof_O 	O 	0.8068	0.33314	0.315	-0.4
Mof_O 	O 	0.7689	0.28504	0.3089	-0.569
Mof_C 	C 	0.6479	0.9302	0.2226	0.246
Mof_C 	C 	0.6732	0.9263	0.3016	0.083
Mof_C 	C 	0.5743	0.8543	0.3038	0.132
Mof_C 	C 	0.5695	0.8368	0.2135	0.215
Mof_C 	C 	0.6951	0.794	0.2797	0.316
Mof_C 	C 	0.7083	0.8124	0.1923	0.087
Mof_C 	C 	0.7027	0.9544	0.4218	-0.076
Mof_C 	C 	0.7415	0.9527	0.4201	0.28
Mof_C 	C 	0.5454	0.8839	0.4224	-0.103
Mof_C 	C 	0.751	0.815	0.0784	-0.092
Mof_C 	C 	0.7734	0.8428	0.0793	0.258
Mof_C 	C 	0.5469	0.9219	0.4194	0.332
Mof_C 	C 	0.5508	0.9429	0.3353	-0.818
Mof_H 	H 	0.5495	0.9262	0.2865	0.264
Mof_H 	H 	0.5313	0.9607	0.3309	0.243
Mof_H 	H 	0.5741	0.9554	0.3346	0.266
Mof_C 	C 	0.7624	0.9483	0.3353	-0.736
Mof_H 	H 	0.7456	0.9493	0.2867	0.229
Mof_H 	H 	0.7801	0.9679	0.3299	0.217
Mof_H 	H 	0.775	0.9251	0.3351	0.232
Mof_C 	C 	0.7907	0.8583	0.1634	-0.686
Mof_H 	H 	0.8059	0.879	0.1489	0.212
Mof_H 	H 	0.7716	0.866	0.203	0.221
Mof_H 	H 	0.8054	0.8397	0.191	0.195
Mof_Mn	Mn	0.64788	0.85273	0.24824	0.999
Mof_N 	N 	0.6832	0.9553	0.3414	-0.215
Mof_N 	N 	0.5428	0.863	0.3393	-0.228
Mof_N 	N 	0.73727	0.7989	0.1601	-0.219
Mof_O 	O 	0.6423	0.9639	0.1997	-0.355
Mof_O 	O 	0.63682	0.9029	0.1828	-0.327
Mof_O 	O 	0.681	0.8928	0.3246	-0.272
Mof_O 	O 	0.5377	0.8289	0.1893	-0.35
Mof_O 	O 	0.59998	0.827	0.1757	-0.284
Mof_O 	O 	0.6053	0.8598	0.3324	-0.322
Mof_O 	O 	0.68848	0.8387	0.1639	-0.308
Mof_O 	O 	0.66686	0.8068	0.315	-0.4
Mof_O 	O 	0.71496	0.7689	0.3089	-0.569
Mof_C 	C 	0.3521	0.0698	0.2226	0.247
Mof_C 	C 	0.3268	0.0737	0.3016	0.082
Mof_C 	C 	0.4257	0.1457	0.3038	0.133
Mof_C 	C 	0.4305	0.1632	0.2135	0.214
Mof_C 	C 	0.3049	0.206	0.2797	0.316
Mof_C 	C 	0.2917	0.1876	0.1923	0.087
Mof_C 	C 	0.2973	0.0456	0.4218	-0.074
Mof_C 	C 	0.2585	0.0473	0.4201	0.265
Mof_C 	C 	0.4546	0.1161	0.4224	-0.098
Mof_C 	C 	0.249	0.185	0.0784	-0.09
Mof_C 	C 	0.2266	0.1572	0.0793	0.254
Mof_C 	C 	0.4531	0.0781	0.4194	0.319
Mof_C 	C 	0.4492	0.0571	0.3353	-0.794
Mof_H 	H 	0.4505	0.0738	0.2865	0.256
Mof_H 	H 	0.4687	0.0393	0.3309	0.232
Mof_H 	H 	0.4259	0.0446	0.3346	0.255
Mof_C 	C 	0.2376	0.0517	0.3353	-0.711
Mof_H 	H 	0.2544	0.0507	0.2867	0.219
Mof_H 	H 	0.2199	0.0321	0.3299	0.203
Mof_H 	H 	0.225	0.0749	0.3351	0.223
Mof_C 	C 	0.2093	0.1417	0.1634	-0.679
Mof_H 	H 	0.1941	0.121	0.1489	0.207
Mof_H 	H 	0.2284	0.134	0.203	0.218
Mof_H 	H 	0.1946	0.1603	0.191	0.193
Mof_Mn	Mn	0.35212	0.14727	0.24824	0.999
Mof_N 	N 	0.3168	0.0447	0.3414	-0.219
Mof_N 	N 	0.4572	0.137	0.3393	-0.229
Mof_N 	N 	0.26273	0.2011	0.1601	-0.219
Mof_O 	O 	0.3577	0.0361	0.1997	-0.364
Mof_O 	O 	0.36318	0.0971	0.1828	-0.328
Mof_O 	O 	0.319	0.1072	0.3246	-0.272
Mof_O 	O 	0.4623	0.1711	0.1893	-0.351
Mof_O 	O 	0.40002	0.173	0.1757	-0.284
Mof_O 	O 	0.3947	0.1402	0.3324	-0.322
Mof_O 	O 	0.31152	0.1613	0.1639	-0.308
Mof_O 	O 	0.33314	0.1932	0.315	-0.4
Mof_O 	O 	0.28504	0.2311	0.3089	-0.569
Mof_C 	C 	0.0466	0.3168	0.5	0.052
Mof_C 	C 	0.05	0.2399	0.5	-0.348
Mof_H 	H 	0.0535	0.2145	0.5	0.131
Mof_C 	C 	0.1373	0.4556	0.5	0.077
Mof_C 	C 	0.1783	0.4542	0.5	-0.061
Mof_C 	C 	0.0599	0.4514	0.5	-0.394
Mof_H 	H 	0.0344	0.4491	0.5	0.147
Mof_C 	C 	0.0465	0.3586	0.5	-0.05
Mof_O 	O 	0.252	0.2135	0.5	-0.38
Mof_C 	C 	0.9534	0.6832	0.5	0.057
Mof_C 	C 	0.95	0.7601	0.5	-0.358
Mof_H 	H 	0.9465	0.7855	0.5	0.139
Mof_C 	C 	0.8627	0.5444	0.5	0.082
Mof_C 	C 	0.8217	0.5458	0.5	-0.062
Mof_C 	C 	0.9401	0.5486	0.5	-0.407
Mof_H 	H 	0.9656	0.5509	0.5	0.157
Mof_C 	C 	0.9535	0.6414	0.5	-0.045
Mof_O 	O 	0.748	0.7865	0.5	-0.38
Mof_C 	C 	0.6832	0.0466	0.5	0.052
Mof_C 	C 	0.7601	0.05	0.5	-0.349
Mof_H 	H 	0.7855	0.0535	0.5	0.132
Mof_C 	C 	0.5444	0.1373	0.5	0.077
Mof_C 	C 	0.5458	0.1783	0.5	-0.061
Mof_C 	C 	0.5486	0.0599	0.5	-0.394
Mof_H 	H 	0.5509	0.0344	0.5	0.147
Mof_C 	C 	0.6414	0.0465	0.5	-0.05
Mof_O 	O 	0.7865	0.252	0.5	-0.38
Mof_C 	C 	0.3168	0.9534	0.5	0.056
Mof_C 	C 	0.2399	0.95	0.5	-0.357
Mof_H 	H 	0.2145	0.9465	0.5	0.137
Mof_C 	C 	0.4556	0.8627	0.5	0.082
Mof_C 	C 	0.4542	0.8217	0.5	-0.062
Mof_C 	C 	0.4514	0.9401	0.5	-0.407
Mof_H 	H 	0.4491	0.9656	0.5	0.157
Mof_C 	C 	0.3586	0.9535	0.5	-0.045
Mof_O 	O 	0.2135	0.748	0.5	-0.38
Mof_C 	C 	0.9534	0.3168	0.5	0.056
Mof_C 	C 	0.95	0.2399	0.5	-0.357
Mof_H 	H 	0.9465	0.2145	0.5	0.137
Mof_C 	C 	0.8627	0.4556	0.5	0.082
Mof_C 	C 	0.8217	0.4542	0.5	-0.062
Mof_C 	C 	0.9401	0.4514	0.5	-0.407
Mof_H 	H 	0.9656	0.4491	0.5	0.157
Mof_C 	C 	0.9535	0.3586	0.5	-0.045
Mof_O 	O 	0.748	0.2135	0.5	-0.38
Mof_C 	C 	0.0466	0.6832	0.5	0.052
Mof_C 	C 	0.05	0.7601	0.5	-0.349
Mof_H 	H 	0.0535	0.7855	0.5	0.132
Mof_C 	C 	0.1373	0.5444	0.5	0.077
Mof_C 	C 	0.1783	0.5458	0.5	-0.061
Mof_C 	C 	0.0599	0.5486	0.5	-0.394
Mof_H 	H 	0.0344	0.5509	0.5	0.147
Mof_C 	C 	0.0465	0.6414	0.5	-0.05
Mof_O 	O 	0.252	0.7865	0.5	-0.38
Mof_C 	C 	0.3168	0.0466	0.5	0.052
Mof_C 	C 	0.2399	0.05	0.5	-0.348
Mof_H 	H 	0.2145	0.0535	0.5	0.131
Mof_C 	C 	0.4556	0.1373	0.5	0.077
Mof_C 	C 	0.4542	0.1783	0.5	-0.061
Mof_C 	C 	0.4514	0.0599	0.5	-0.394
Mof_H 	H 	0.4491	0.0344	0.5	0.147
Mof_C 	C 	0.3586	0.0465	0.5	-0.05
Mof_O 	O 	0.2135	0.252	0.5	-0.38
Mof_C 	C 	0.6832	0.9534	0.5	0.057
Mof_C 	C 	0.7601	0.95	0.5	-0.358
Mof_H 	H 	0.7855	0.9465	0.5	0.139
Mof_C 	C 	0.5444	0.8627	0.5	0.082
Mof_C 	C 	0.5458	0.8217	0.5	-0.062
Mof_C 	C 	0.5486	0.9401	0.5	-0.407
Mof_H 	H 	0.5509	0.9656	0.5	0.157
Mof_C 	C 	0.6414	0.9535	0.5	-0.045
Mof_O 	O 	0.7865	0.748	0.5	-0.38
Mof_C 	C 	0.1998	0.2632	-0	0.08
Mof_C 	C 	0.2284	0.2921	-0	-0.048
Mof_C 	C 	0.1424	0.2117	-0	-0.292
Mof_H 	H 	0.1243	0.1936	-0	0.115
Mof_C 	C 	0.8002	0.7368	-0	0.082
Mof_C 	C 	0.7716	0.7079	-0	-0.048
Mof_C 	C 	0.8576	0.7883	-0	-0.295
Mof_H 	H 	0.8757	0.8064	-0	0.118
Mof_C 	C 	0.7368	0.1998	-0	0.081
Mof_C 	C 	0.7079	0.2284	-0	-0.048
Mof_C 	C 	0.7883	0.1424	-0	-0.293
Mof_H 	H 	0.8064	0.1243	-0	0.116
Mof_C 	C 	0.2632	0.8002	-0	0.081
Mof_C 	C 	0.2921	0.7716	-0	-0.048
Mof_C 	C 	0.2117	0.8576	-0	-0.294
Mof_H 	H 	0.1936	0.8757	-0	0.117
Mof_C 	C 	0.8002	0.2632	-0	0.081
Mof_C 	C 	0.7716	0.2921	-0	-0.048
Mof_C 	C 	0.8576	0.2117	-0	-0.294
Mof_H 	H 	0.8757	0.1936	-0	0.117
Mof_C 	C 	0.1998	0.7368	-0	0.081
Mof_C 	C 	0.2284	0.7079	-0	-0.048
Mof_C 	C 	0.1424	0.7883	-0	-0.293
Mof_H 	H 	0.1243	0.8064	-0	0.116
Mof_C 	C 	0.2632	0.1998	-0	0.08
Mof_C 	C 	0.2921	0.2284	-0	-0.048
Mof_C 	C 	0.2117	0.1424	-0	-0.292
Mof_H 	H 	0.1936	0.1243	-0	0.115
Mof_C 	C 	0.7368	0.8002	-0	0.082
Mof_C 	C 	0.7079	0.7716	-0	-0.048
Mof_C 	C 	0.7883	0.8576	-0	-0.295
Mof_H 	H 	0.8064	0.8757	-0	0.118
Mof_Cu	Cu	-8.27983e-34	0.33259	0.27366	0.868
Mof_Cu	Cu	4.20192e-33	0.66741	0.27366	0.868
Mof_Cu	Cu	0.66741	0	0.27366	0.868
Mof_Cu	Cu	0.33259	0	0.27366	0.868
Mof_Cu	Cu	-3.88996e-33	0.33259	0.72634	0.868
Mof_Cu	Cu	-3.88996e-33	0.66741	0.72634	0.868
Mof_Cu	Cu	0.33259	-2.51495e-33	0.72634	0.868
Mof_Cu	Cu	0.66741	-2.51495e-33	0.72634	0.868
Mof_Cu	Cu	0.15185	0.5	0.26938	0.88
Mof_Cu	Cu	0.84815	0.5	0.26938	0.88
Mof_Cu	Cu	0.5	0.15185	0.26938	0.88
Mof_Cu	Cu	0.5	0.84815	0.26938	0.88
Mof_Cu	Cu	0.84815	0.5	0.73062	0.879
Mof_Cu	Cu	0.15185	0.5	0.73062	0.879
Mof_Cu	Cu	0.5	0.15185	0.73062	0.879
Mof_Cu	Cu	0.5	0.84815	0.73062	0.879
Mof_Cu	Cu	0.2423	0.2423	0.23092	0.863
Mof_Na	Na	0.2725	0.2725	0.4301	1.14
Mof_Cu	Cu	0.7577	0.7577	0.23092	0.863
Mof_Na	Na	0.7275	0.7275	0.4301	1.14
Mof_Cu	Cu	0.7577	0.2423	0.23092	0.863
Mof_Na	Na	0.7275	0.2725	0.4301	1.14
Mof_Cu	Cu	0.2423	0.7577	0.23092	0.863
Mof_Na	Na	0.2725	0.7275	0.4301	1.14
Mof_Cu	Cu	0.7577	0.2423	0.76908	0.862
Mof_Na	Na	0.7275	0.2725	0.5699	1.13
Mof_Cu	Cu	0.2423	0.7577	0.76908	0.862
Mof_Na	Na	0.2725	0.7275	0.5699	1.13
Mof_Cu	Cu	0.2423	0.2423	0.76908	0.862
Mof_Na	Na	0.2725	0.2725	0.5699	1.13
Mof_Cu	Cu	0.7577	0.7577	0.76908	0.862
Mof_Na	Na	0.7275	0.7275	0.5699	1.129
_end
