data_functionalizedCrystal
_audit_creation_method	'EQeq! by Chris Wilmer'
_symmetry_space_group_name_H-M	'P1'
_symmetry_Int_Tables_number	1
_symmetry_cell_setting	triclinic
loop_
_symmetry_equiv_pos_as_xyz
  x,y,z
_cell_length_a	9.932
_cell_length_b	18.818
_cell_length_c	20.335
_cell_angle_alpha	88.731
_cell_angle_beta	83.542
_cell_angle_gamma	86.247
loop_
_atom_site_label
_atom_site_type_symbol
_atom_site_fract_x
_atom_site_fract_y
_atom_site_fract_z
_atom_site_charge
Mof_Cd	Cd	0.88823	0.04729	0.96163	0.515
Mof_Cd	Cd	0.40103	0.45878	0.45717	0.531
Mof_Cd	Cd	0.59897	0.54122	0.54283	0.531
Mof_Cd	Cd	0.11177	0.95271	0.03837	0.515
Mof_H 	H 	0.2615	0.6759	0.678	0.069
Mof_H 	H 	0.3948	0.0553	0.9468	0.067
Mof_H 	H 	0.3937	0.8162	0.1746	0.057
Mof_H 	H 	0.5799	0.3851	0.7062	0.038
Mof_H 	H 	0.9424	0.4433	0.4356	0.078
Mof_H 	H 	0.1062	0.1917	0.2764	0.079
Mof_H 	H 	0.8485	0.6931	0.696	0.067
Mof_H 	H 	0.2149	0.706	0.7943	0.082
Mof_H 	H 	0.5444	0.3038	0.7939	0.087
Mof_H 	H 	0.4556	0.6962	0.2061	0.087
Mof_H 	H 	0.3083	0.1977	0.6935	0.086
Mof_H 	H 	0.7851	0.294	0.2057	0.082
Mof_H 	H 	0.4201	0.6149	0.2938	0.038
Mof_H 	H 	0.1515	0.3069	0.304	0.067
Mof_H 	H 	0.6672	0.7197	0.3922	0.036
Mof_H 	H 	0.7896	0.212	0.1281	0.038
Mof_H 	H 	0.0576	0.5567	0.5644	0.078
Mof_H 	H 	0.6063	0.1838	0.8254	0.057
Mof_H 	H 	0.2104	0.788	0.8719	0.038
Mof_H 	H 	0.6052	0.9447	0.0532	0.067
Mof_H 	H 	0.1119	0.1099	0.1961	0.044
Mof_H 	H 	0.6917	0.8023	0.3065	0.086
Mof_H 	H 	0.7882	0.8255	0.1881	0.058
Mof_H 	H 	0.2118	0.1745	0.8119	0.058
Mof_H 	H 	0.3328	0.2803	0.6078	0.036
Mof_H 	H 	0.7385	0.3241	0.322	0.069
Mof_H 	H 	0.8938	0.8083	0.7236	0.079
Mof_H 	H 	0.8881	0.8901	0.8039	0.044
Mof_C 	C 	0.9315	0.6723	0.6764	-0.034
Mof_C 	C 	0.591	0.8128	0.1934	-0.022
Mof_C 	C 	0.4803	0.3964	0.5962	0.315
Mof_C 	C 	0.9551	0.8522	0.8014	0.041
Mof_C 	C 	0.4607	0.3416	0.6483	-0.109
Mof_C 	C 	0.8219	0.3904	0.3832	-0.037
Mof_C 	C 	0.5752	0.7574	0.2471	0.091
Mof_C 	C 	0.5231	0.1638	0.8386	-0.012
Mof_C 	C 	0.0511	0.8463	0.8479	-0.095
Mof_C 	C 	0.4772	0.6522	0.2971	0.056
Mof_C 	C 	0.2817	0.1109	0.8831	-0.066
Mof_C 	C 	0.0685	0.3277	0.3236	-0.034
Mof_C 	C 	0.7183	0.8891	0.1169	-0.066
Mof_C 	C 	0.5228	0.3478	0.7029	0.056
Mof_C 	C 	0.4248	0.2426	0.7529	0.091
Mof_C 	C 	0.3601	0.9116	0.0822	0.299
Mof_C 	C 	0.3094	0.5766	0.5798	0.306
Mof_C 	C 	0.3995	0.0883	0.9113	0.014
Mof_C 	C 	0.6005	0.9117	0.0887	0.014
Mof_C 	C 	0.3785	0.2853	0.6454	0.057
Mof_C 	C 	0.9489	0.1537	0.1521	-0.095
Mof_C 	C 	0.5021	0.2979	0.7555	-0.129
Mof_C 	C 	0.6372	0.7638	0.3029	-0.129
Mof_C 	C 	0.7089	0.8402	0.169	-0.013
Mof_C 	C 	0.4769	0.8362	0.1614	-0.012
Mof_C 	C 	0.6399	0.0884	0.9178	0.299
Mof_C 	C 	0.042	0.9015	0.9008	0.321
Mof_C 	C 	0.5393	0.6584	0.3517	-0.109
Mof_C 	C 	0.409	0.1872	0.8066	-0.022
Mof_C 	C 	0.8515	0.256	0.205	-0.113
Mof_C 	C 	0.5175	0.1132	0.8882	-0.068
Mof_C 	C 	0.4979	0.7021	0.2445	-0.129
Mof_C 	C 	0.0449	0.1478	0.1986	0.041
Mof_C 	C 	0.8019	0.5951	0.6062	0.367
Mof_C 	C 	0.1781	0.6096	0.6168	-0.037
Mof_C 	C 	0.9425	0.2531	0.2544	0.062
Mof_C 	C 	0.8207	0.3382	0.3347	-0.039
Mof_C 	C 	0.0568	0.6917	0.6935	0.005
Mof_C 	C 	0.2911	0.1598	0.831	-0.013
Mof_C 	C 	0.0618	0.3805	0.3724	-0.045
Mof_C 	C 	0.0576	0.5903	0.598	-0.01
Mof_C 	C 	0.9424	0.4097	0.402	-0.01
Mof_C 	C 	0.6906	0.4234	0.4202	0.306
Mof_C 	C 	0.5197	0.6036	0.4038	0.315
Mof_C 	C 	0.6215	0.7147	0.3546	0.057
Mof_C 	C 	0.9597	0.8037	0.7534	-0.106
Mof_C 	C 	0.4825	0.8868	0.1118	-0.068
Mof_C 	C 	0.0403	0.1963	0.2466	-0.106
Mof_C 	C 	0.3628	0.2362	0.6971	-0.129
Mof_C 	C 	0.1482	0.0864	0.9096	0.302
Mof_C 	C 	0.1793	0.6618	0.6653	-0.039
Mof_C 	C 	0.9432	0.3083	0.3065	0.005
Mof_C 	C 	0.1981	0.4049	0.3938	0.367
Mof_C 	C 	0.1448	0.7922	0.8419	0.053
Mof_C 	C 	0.958	0.0985	0.0992	0.321
Mof_C 	C 	0.9382	0.6195	0.6276	-0.045
Mof_C 	C 	0.1485	0.744	0.795	-0.113
Mof_C 	C 	0.8518	0.9136	0.0904	0.302
Mof_C 	C 	0.0575	0.7469	0.7456	0.062
Mof_C 	C 	0.8552	0.2078	0.1581	0.053
Mof_O 	O 	0.7013	0.6379	0.6152	-0.166
Mof_O 	O 	0.7376	0.1281	0.9133	-0.246
Mof_O 	O 	0.5828	0.403	0.4022	-0.261
Mof_O 	O 	0.8649	0.9505	0.0374	-0.27
Mof_O 	O 	0.2972	0.5331	0.5359	-0.269
Mof_O 	O 	0.7028	0.4669	0.4641	-0.269
Mof_O 	O 	0.4172	0.597	0.5978	-0.261
Mof_O 	O 	0.0412	0.1046	0.8842	-0.247
Mof_O 	O 	0.2624	0.8719	0.0867	-0.246
Mof_O 	O 	0.8097	0.5492	0.5679	-0.292
Mof_O 	O 	0.6555	0.0306	0.9484	-0.246
Mof_O 	O 	0.299	0.3909	0.3491	-0.131
Mof_O 	O 	0.5865	0.6109	0.4585	-0.253
Mof_O 	O 	0.4404	0.5572	0.403	-0.282
Mof_O 	O 	0.883	0.1111	0.0544	-0.27
Mof_O 	O 	0.701	0.6091	0.6509	-0.131
Mof_O 	O 	0.3445	0.9694	0.0516	-0.246
Mof_O 	O 	0.5596	0.4428	0.597	-0.282
Mof_O 	O 	0.117	0.8889	0.9456	-0.27
Mof_O 	O 	0.0518	0.049	0.101	-0.261
Mof_O 	O 	0.4135	0.3891	0.5415	-0.253
Mof_O 	O 	0.1351	0.0495	0.9626	-0.27
Mof_O 	O 	0.1903	0.4508	0.4321	-0.292
Mof_O 	O 	0.2987	0.3621	0.3848	-0.166
Mof_O 	O 	0.9588	0.8954	0.1158	-0.247
Mof_O 	O 	0.9482	0.951	0.899	-0.261
_end
