data_functionalizedCrystal
_audit_creation_method	'EQeq! by Chris Wilmer'
_symmetry_space_group_name_H-M	'P1'
_symmetry_Int_Tables_number	1
_symmetry_cell_setting	triclinic
loop_
_symmetry_equiv_pos_as_xyz
  x,y,z
_cell_length_a	15.319
_cell_length_b	15.456
_cell_length_c	16.237
_cell_angle_alpha	90
_cell_angle_beta	90
_cell_angle_gamma	90
loop_
_atom_site_label
_atom_site_type_symbol
_atom_site_fract_x
_atom_site_fract_y
_atom_site_fract_z
_atom_site_charge
Mof_Ag	Ag	0.4156	0.89813	0.11812	0.494
Mof_C 	C 	0.1942	0.8293	0.0837	-0.185
Mof_H 	H 	0.1877	0.819	0.1423	0.065
Mof_H 	H 	0.1874	0.8908	0.0737	0.071
Mof_C 	C 	0.1261	0.779	0.0363	0.071
Mof_C 	C 	0.1248	0.776	0.9482	-0.129
Mof_H 	H 	0.1659	0.8083	0.9193	0.074
Mof_C 	C 	0.0655	0.7275	0.9044	0.074
Mof_C 	C 	0.0066	0.6877	0.9539	-0.036
Mof_H 	H 	0.9626	0.6557	0.9288	0.034
Mof_C 	C 	0.0671	0.7342	0.0798	-0.03
Mof_H 	H 	0.0695	0.7342	0.137	0.016
Mof_C 	C 	0.0659	0.714	0.8085	-0.171
Mof_H 	H 	0.1134	0.7472	0.7847	0.062
Mof_H 	H 	0.0117	0.736	0.7858	0.062
Mof_C 	C 	0.1853	0.5734	0.81	-0.163
Mof_H 	H 	0.2024	0.5188	0.7852	0.057
Mof_H 	H 	0.2243	0.6178	0.7893	0.06
Mof_C 	C 	0.1965	0.5665	0.9054	0.073
Mof_C 	C 	0.2503	0.6208	0.9484	-0.13
Mof_H 	H 	0.285	0.66	0.9198	0.076
Mof_C 	C 	0.2543	0.6185	0.0382	0.076
Mof_C 	C 	0.2034	0.5627	0.081	-0.045
Mof_H 	H 	0.2046	0.5631	0.1383	0.018
Mof_C 	C 	0.1487	0.5099	0.9535	-0.036
Mof_H 	H 	0.1122	0.471	0.9267	0.034
Mof_C 	C 	0.3066	0.6802	0.0864	-0.19
Mof_H 	H 	0.3674	0.6628	0.084	0.074
Mof_H 	H 	0.2883	0.6774	0.1435	0.07
Mof_N 	N 	0.0072	0.6911	0.0421	-0.153
Mof_N 	N 	0.1514	0.5068	0.0412	-0.156
Mof_S 	S 	0.2976	0.7946	0.0503	-0.053
Mof_S 	S 	0.0786	0.598	0.77897	-0.088
Mof_Ag	Ag	0.9156	0.39813	0.61812	0.497
Mof_C 	C 	0.6942	0.3293	0.5837	-0.195
Mof_H 	H 	0.6877	0.319	0.6423	0.07
Mof_H 	H 	0.6874	0.3908	0.5737	0.076
Mof_C 	C 	0.6261	0.279	0.5363	0.088
Mof_C 	C 	0.6248	0.276	0.4482	-0.148
Mof_H 	H 	0.6659	0.3083	0.4193	0.079
Mof_C 	C 	0.5655	0.2275	0.4044	0.084
Mof_C 	C 	0.5066	0.1877	0.4539	-0.049
Mof_H 	H 	0.4626	0.1557	0.4288	0.037
Mof_C 	C 	0.5671	0.2342	0.5798	-0.038
Mof_H 	H 	0.5695	0.2342	0.637	0.019
Mof_C 	C 	0.5659	0.214	0.3085	-0.177
Mof_H 	H 	0.6134	0.2472	0.2847	0.064
Mof_H 	H 	0.5117	0.236	0.2858	0.063
Mof_C 	C 	0.6853	0.0734	0.31	-0.169
Mof_H 	H 	0.7024	0.0188	0.2852	0.058
Mof_H 	H 	0.7243	0.1178	0.2893	0.062
Mof_C 	C 	0.6965	0.0665	0.4054	0.082
Mof_C 	C 	0.7503	0.1208	0.4484	-0.149
Mof_H 	H 	0.785	0.16	0.4198	0.08
Mof_C 	C 	0.7543	0.1185	0.5382	0.093
Mof_C 	C 	0.7034	0.0627	0.581	-0.052
Mof_H 	H 	0.7046	0.0631	0.6383	0.02
Mof_C 	C 	0.6487	0.0099	0.4535	-0.05
Mof_H 	H 	0.6122	0.971	0.4267	0.036
Mof_C 	C 	0.8066	0.1802	0.5864	-0.2
Mof_H 	H 	0.8674	0.1628	0.584	0.078
Mof_H 	H 	0.7883	0.1774	0.6435	0.073
Mof_N 	N 	0.5072	0.1911	0.5421	-0.147
Mof_N 	N 	0.6514	0.0068	0.5412	-0.15
Mof_S 	S 	0.7976	0.2946	0.5503	-0.045
Mof_S 	S 	0.5786	0.098	0.27897	-0.087
Mof_Ag	Ag	0.5844	0.10187	0.11812	0.495
Mof_C 	C 	0.8058	0.1707	0.0837	-0.184
Mof_H 	H 	0.8123	0.181	0.1423	0.066
Mof_H 	H 	0.8126	0.1092	0.0737	0.072
Mof_C 	C 	0.8739	0.221	0.0363	0.071
Mof_C 	C 	0.8752	0.224	0.9482	-0.129
Mof_H 	H 	0.8341	0.1917	0.9193	0.074
Mof_C 	C 	0.9345	0.2725	0.9044	0.074
Mof_C 	C 	0.9934	0.3123	0.9539	-0.036
Mof_H 	H 	0.0374	0.3443	0.9288	0.034
Mof_C 	C 	0.9329	0.2658	0.0798	-0.03
Mof_H 	H 	0.9305	0.2658	0.137	0.016
Mof_C 	C 	0.9341	0.286	0.8085	-0.171
Mof_H 	H 	0.8866	0.2528	0.7847	0.062
Mof_H 	H 	0.9883	0.264	0.7858	0.062
Mof_C 	C 	0.8147	0.4266	0.81	-0.163
Mof_H 	H 	0.7976	0.4812	0.7852	0.057
Mof_H 	H 	0.7757	0.3822	0.7893	0.06
Mof_C 	C 	0.8035	0.4335	0.9054	0.073
Mof_C 	C 	0.7497	0.3792	0.9484	-0.13
Mof_H 	H 	0.715	0.34	0.9198	0.076
Mof_C 	C 	0.7457	0.3815	0.0382	0.076
Mof_C 	C 	0.7966	0.4373	0.081	-0.045
Mof_H 	H 	0.7954	0.4369	0.1383	0.018
Mof_C 	C 	0.8513	0.4901	0.9535	-0.036
Mof_H 	H 	0.8878	0.529	0.9267	0.034
Mof_C 	C 	0.6934	0.3198	0.0864	-0.19
Mof_H 	H 	0.6326	0.3372	0.084	0.074
Mof_H 	H 	0.7117	0.3226	0.1435	0.07
Mof_N 	N 	0.9928	0.3089	0.0421	-0.153
Mof_N 	N 	0.8486	0.4932	0.0412	-0.156
Mof_S 	S 	0.7024	0.2054	0.0503	-0.053
Mof_S 	S 	0.9214	0.402	0.77897	-0.088
Mof_Ag	Ag	0.0844	0.60187	0.61812	0.497
Mof_C 	C 	0.3058	0.6707	0.5837	-0.195
Mof_H 	H 	0.3123	0.681	0.6423	0.07
Mof_H 	H 	0.3126	0.6092	0.5737	0.076
Mof_C 	C 	0.3739	0.721	0.5363	0.088
Mof_C 	C 	0.3752	0.724	0.4482	-0.148
Mof_H 	H 	0.3341	0.6917	0.4193	0.079
Mof_C 	C 	0.4345	0.7725	0.4044	0.084
Mof_C 	C 	0.4934	0.8123	0.4539	-0.049
Mof_H 	H 	0.5374	0.8443	0.4288	0.037
Mof_C 	C 	0.4329	0.7658	0.5798	-0.038
Mof_H 	H 	0.4305	0.7658	0.637	0.019
Mof_C 	C 	0.4341	0.786	0.3085	-0.177
Mof_H 	H 	0.3866	0.7528	0.2847	0.064
Mof_H 	H 	0.4883	0.764	0.2858	0.063
Mof_C 	C 	0.3147	0.9266	0.31	-0.169
Mof_H 	H 	0.2976	0.9812	0.2852	0.058
Mof_H 	H 	0.2757	0.8822	0.2893	0.062
Mof_C 	C 	0.3035	0.9335	0.4054	0.082
Mof_C 	C 	0.2497	0.8792	0.4484	-0.149
Mof_H 	H 	0.215	0.84	0.4198	0.08
Mof_C 	C 	0.2457	0.8815	0.5382	0.093
Mof_C 	C 	0.2966	0.9373	0.581	-0.052
Mof_H 	H 	0.2954	0.9369	0.6383	0.02
Mof_C 	C 	0.3513	0.9901	0.4535	-0.05
Mof_H 	H 	0.3878	0.029	0.4267	0.036
Mof_C 	C 	0.1934	0.8198	0.5864	-0.2
Mof_H 	H 	0.1326	0.8372	0.584	0.078
Mof_H 	H 	0.2117	0.8226	0.6435	0.073
Mof_N 	N 	0.4928	0.8089	0.5421	-0.147
Mof_N 	N 	0.3486	0.9932	0.5412	-0.15
Mof_S 	S 	0.2024	0.7054	0.5503	-0.045
Mof_S 	S 	0.4214	0.902	0.27897	-0.087
Mof_Ag	Ag	0.9156	0.60187	0.11812	0.495
Mof_C 	C 	0.6942	0.6707	0.0837	-0.184
Mof_H 	H 	0.6877	0.681	0.1423	0.066
Mof_H 	H 	0.6874	0.6092	0.0737	0.072
Mof_C 	C 	0.6261	0.721	0.0363	0.07
Mof_C 	C 	0.6248	0.724	0.9482	-0.129
Mof_H 	H 	0.6659	0.6917	0.9193	0.074
Mof_C 	C 	0.5655	0.7725	0.9044	0.073
Mof_C 	C 	0.5066	0.8123	0.9539	-0.036
Mof_H 	H 	0.4626	0.8443	0.9288	0.034
Mof_C 	C 	0.5671	0.7658	0.0798	-0.03
Mof_H 	H 	0.5695	0.7658	0.137	0.016
Mof_C 	C 	0.5659	0.786	0.8085	-0.171
Mof_H 	H 	0.6134	0.7528	0.7847	0.062
Mof_H 	H 	0.5117	0.764	0.7858	0.062
Mof_C 	C 	0.6853	0.9266	0.81	-0.163
Mof_H 	H 	0.7024	0.9812	0.7852	0.057
Mof_H 	H 	0.7243	0.8822	0.7893	0.06
Mof_C 	C 	0.6965	0.9335	0.9054	0.073
Mof_C 	C 	0.7503	0.8792	0.9484	-0.131
Mof_H 	H 	0.785	0.84	0.9198	0.076
Mof_C 	C 	0.7543	0.8815	0.0382	0.077
Mof_C 	C 	0.7034	0.9373	0.081	-0.045
Mof_H 	H 	0.7046	0.9369	0.1383	0.018
Mof_C 	C 	0.6487	0.9901	0.9535	-0.037
Mof_H 	H 	0.6122	0.029	0.9267	0.034
Mof_C 	C 	0.8066	0.8198	0.0864	-0.19
Mof_H 	H 	0.8674	0.8372	0.084	0.074
Mof_H 	H 	0.7883	0.8226	0.1435	0.07
Mof_N 	N 	0.5072	0.8089	0.0421	-0.154
Mof_N 	N 	0.6514	0.9932	0.0412	-0.156
Mof_S 	S 	0.7976	0.7054	0.0503	-0.053
Mof_S 	S 	0.5786	0.902	0.77897	-0.088
Mof_Ag	Ag	0.4156	0.10187	0.61812	0.497
Mof_C 	C 	0.1942	0.1707	0.5837	-0.195
Mof_H 	H 	0.1877	0.181	0.6423	0.07
Mof_H 	H 	0.1874	0.1092	0.5737	0.076
Mof_C 	C 	0.1261	0.221	0.5363	0.088
Mof_C 	C 	0.1248	0.224	0.4482	-0.148
Mof_H 	H 	0.1659	0.1917	0.4193	0.079
Mof_C 	C 	0.0655	0.2725	0.4044	0.084
Mof_C 	C 	0.0066	0.3123	0.4539	-0.049
Mof_H 	H 	0.9626	0.3443	0.4288	0.037
Mof_C 	C 	0.0671	0.2658	0.5798	-0.038
Mof_H 	H 	0.0695	0.2658	0.637	0.019
Mof_C 	C 	0.0659	0.286	0.3085	-0.177
Mof_H 	H 	0.1134	0.2528	0.2847	0.064
Mof_H 	H 	0.0117	0.264	0.2858	0.063
Mof_C 	C 	0.1853	0.4266	0.31	-0.169
Mof_H 	H 	0.2024	0.4812	0.2852	0.058
Mof_H 	H 	0.2243	0.3822	0.2893	0.062
Mof_C 	C 	0.1965	0.4335	0.4054	0.082
Mof_C 	C 	0.2503	0.3792	0.4484	-0.149
Mof_H 	H 	0.285	0.34	0.4198	0.08
Mof_C 	C 	0.2543	0.3815	0.5382	0.093
Mof_C 	C 	0.2034	0.4373	0.581	-0.052
Mof_H 	H 	0.2046	0.4369	0.6383	0.02
Mof_C 	C 	0.1487	0.4901	0.4535	-0.05
Mof_H 	H 	0.1122	0.529	0.4267	0.036
Mof_C 	C 	0.3066	0.3198	0.5864	-0.2
Mof_H 	H 	0.3674	0.3372	0.584	0.078
Mof_H 	H 	0.2883	0.3226	0.6435	0.073
Mof_N 	N 	0.0072	0.3089	0.5421	-0.147
Mof_N 	N 	0.1514	0.4932	0.5412	-0.15
Mof_S 	S 	0.2976	0.2054	0.5503	-0.045
Mof_S 	S 	0.0786	0.402	0.27897	-0.087
Mof_Ag	Ag	0.0844	0.39813	0.11812	0.495
Mof_C 	C 	0.3058	0.3293	0.0837	-0.184
Mof_H 	H 	0.3123	0.319	0.1423	0.066
Mof_H 	H 	0.3126	0.3908	0.0737	0.072
Mof_C 	C 	0.3739	0.279	0.0363	0.07
Mof_C 	C 	0.3752	0.276	0.9482	-0.129
Mof_H 	H 	0.3341	0.3083	0.9193	0.074
Mof_C 	C 	0.4345	0.2275	0.9044	0.073
Mof_C 	C 	0.4934	0.1877	0.9539	-0.036
Mof_H 	H 	0.5374	0.1557	0.9288	0.034
Mof_C 	C 	0.4329	0.2342	0.0798	-0.03
Mof_H 	H 	0.4305	0.2342	0.137	0.016
Mof_C 	C 	0.4341	0.214	0.8085	-0.171
Mof_H 	H 	0.3866	0.2472	0.7847	0.062
Mof_H 	H 	0.4883	0.236	0.7858	0.062
Mof_C 	C 	0.3147	0.0734	0.81	-0.163
Mof_H 	H 	0.2976	0.0188	0.7852	0.057
Mof_H 	H 	0.2757	0.1178	0.7893	0.06
Mof_C 	C 	0.3035	0.0665	0.9054	0.073
Mof_C 	C 	0.2497	0.1208	0.9484	-0.131
Mof_H 	H 	0.215	0.16	0.9198	0.076
Mof_C 	C 	0.2457	0.1185	0.0382	0.077
Mof_C 	C 	0.2966	0.0627	0.081	-0.045
Mof_H 	H 	0.2954	0.0631	0.1383	0.018
Mof_C 	C 	0.3513	0.0099	0.9535	-0.037
Mof_H 	H 	0.3878	0.971	0.9267	0.034
Mof_C 	C 	0.1934	0.1802	0.0864	-0.19
Mof_H 	H 	0.1326	0.1628	0.084	0.074
Mof_H 	H 	0.2117	0.1774	0.1435	0.07
Mof_N 	N 	0.4928	0.1911	0.0421	-0.154
Mof_N 	N 	0.3486	0.0068	0.0412	-0.156
Mof_S 	S 	0.2024	0.2946	0.0503	-0.053
Mof_S 	S 	0.4214	0.098	0.77897	-0.088
Mof_Ag	Ag	0.5844	0.89813	0.61812	0.497
Mof_C 	C 	0.8058	0.8293	0.5837	-0.195
Mof_H 	H 	0.8123	0.819	0.6423	0.07
Mof_H 	H 	0.8126	0.8908	0.5737	0.076
Mof_C 	C 	0.8739	0.779	0.5363	0.088
Mof_C 	C 	0.8752	0.776	0.4482	-0.148
Mof_H 	H 	0.8341	0.8083	0.4193	0.079
Mof_C 	C 	0.9345	0.7275	0.4044	0.084
Mof_C 	C 	0.9934	0.6877	0.4539	-0.049
Mof_H 	H 	0.0374	0.6557	0.4288	0.037
Mof_C 	C 	0.9329	0.7342	0.5798	-0.038
Mof_H 	H 	0.9305	0.7342	0.637	0.019
Mof_C 	C 	0.9341	0.714	0.3085	-0.177
Mof_H 	H 	0.8866	0.7472	0.2847	0.064
Mof_H 	H 	0.9883	0.736	0.2858	0.063
Mof_C 	C 	0.8147	0.5734	0.31	-0.169
Mof_H 	H 	0.7976	0.5188	0.2852	0.058
Mof_H 	H 	0.7757	0.6178	0.2893	0.062
Mof_C 	C 	0.8035	0.5665	0.4054	0.082
Mof_C 	C 	0.7497	0.6208	0.4484	-0.149
Mof_H 	H 	0.715	0.66	0.4198	0.08
Mof_C 	C 	0.7457	0.6185	0.5382	0.093
Mof_C 	C 	0.7966	0.5627	0.581	-0.052
Mof_H 	H 	0.7954	0.5631	0.6383	0.02
Mof_C 	C 	0.8513	0.5099	0.4535	-0.05
Mof_H 	H 	0.8878	0.471	0.4267	0.036
Mof_C 	C 	0.6934	0.6802	0.5864	-0.2
Mof_H 	H 	0.6326	0.6628	0.584	0.078
Mof_H 	H 	0.7117	0.6774	0.6435	0.073
Mof_N 	N 	0.9928	0.6911	0.5421	-0.147
Mof_N 	N 	0.8486	0.5068	0.5412	-0.15
Mof_S 	S 	0.7024	0.7946	0.5503	-0.045
Mof_S 	S 	0.9214	0.598	0.27897	-0.087
_end
