data_functionalizedCrystal
_audit_creation_method	'EQeq! by Chris Wilmer'
_symmetry_space_group_name_H-M	'P1'
_symmetry_Int_Tables_number	1
_symmetry_cell_setting	triclinic
loop_
_symmetry_equiv_pos_as_xyz
  x,y,z
_cell_length_a	32.702
_cell_length_b	32.702
_cell_length_c	32.702
_cell_angle_alpha	90
_cell_angle_beta	90
_cell_angle_gamma	90
loop_
_atom_site_label
_atom_site_type_symbol
_atom_site_fract_x
_atom_site_fract_y
_atom_site_fract_z
_atom_site_charge
Mof_C 	C 	0.7041	0.3295	0.1316	0
Mof_H 	H 	0.7118	0.3431	0.1561	0
Mof_C 	C 	0.726	0.2997	0.1133	0.006
Mof_H 	H 	0.7525	0.2903	0.1209	0.018
Mof_C 	C 	0.6695	0.31001	0.08113	0.109
Mof_H 	H 	0.6481	0.3075	0.0616	-0.037
Mof_C 	C 	0.7113	0.2522	0.0558	0.206
Mof_C 	C 	0.6861	0.24437	0.0225	-0.248
Mof_H 	H 	0.6634	0.2617	0.0169	0.116
Mof_N 	N 	0.66981	0.33707	0.1103	-0.293
Mof_N 	N 	0.70284	0.28604	0.0819	-0.16
Mof_C 	C 	0.7041	0.8295	0.6316	0
Mof_H 	H 	0.7118	0.8431	0.6561	0
Mof_C 	C 	0.726	0.7997	0.6133	0.006
Mof_H 	H 	0.7525	0.7903	0.6209	0.018
Mof_C 	C 	0.6695	0.81001	0.58113	0.109
Mof_H 	H 	0.6481	0.8075	0.5616	-0.037
Mof_C 	C 	0.7113	0.7522	0.5558	0.206
Mof_C 	C 	0.6861	0.74437	0.5225	-0.248
Mof_H 	H 	0.6634	0.7617	0.5169	0.116
Mof_N 	N 	0.66981	0.83707	0.6103	-0.293
Mof_N 	N 	0.70284	0.78604	0.5819	-0.16
Mof_C 	C 	0.2041	0.3295	0.6316	0
Mof_H 	H 	0.2118	0.3431	0.6561	0
Mof_C 	C 	0.226	0.2997	0.6133	0.006
Mof_H 	H 	0.2525	0.2903	0.6209	0.018
Mof_C 	C 	0.1695	0.31001	0.58113	0.109
Mof_H 	H 	0.1481	0.3075	0.5616	-0.037
Mof_C 	C 	0.2113	0.2522	0.5558	0.206
Mof_C 	C 	0.1861	0.24437	0.5225	-0.248
Mof_H 	H 	0.1634	0.2617	0.5169	0.116
Mof_N 	N 	0.16981	0.33707	0.6103	-0.293
Mof_N 	N 	0.20284	0.28604	0.5819	-0.16
Mof_C 	C 	0.2041	0.8295	0.1316	0
Mof_H 	H 	0.2118	0.8431	0.1561	0
Mof_C 	C 	0.226	0.7997	0.1133	0.006
Mof_H 	H 	0.2525	0.7903	0.1209	0.018
Mof_C 	C 	0.1695	0.81001	0.08113	0.109
Mof_H 	H 	0.1481	0.8075	0.0616	-0.037
Mof_C 	C 	0.2113	0.7522	0.0558	0.206
Mof_C 	C 	0.1861	0.74437	0.0225	-0.248
Mof_H 	H 	0.1634	0.7617	0.0169	0.116
Mof_N 	N 	0.16981	0.83707	0.1103	-0.293
Mof_N 	N 	0.20284	0.78604	0.0819	-0.16
Mof_C 	C 	0.5459	0.4205	0.6316	0
Mof_H 	H 	0.5382	0.4069	0.6561	0
Mof_C 	C 	0.524	0.4503	0.6133	0.006
Mof_H 	H 	0.4975	0.4597	0.6209	0.018
Mof_C 	C 	0.5805	0.43999	0.58113	0.109
Mof_H 	H 	0.6019	0.4425	0.5616	-0.037
Mof_C 	C 	0.5387	0.4978	0.5558	0.206
Mof_C 	C 	0.5639	0.50563	0.5225	-0.248
Mof_H 	H 	0.5866	0.4883	0.5169	0.116
Mof_N 	N 	0.58019	0.41293	0.6103	-0.293
Mof_N 	N 	0.54716	0.46396	0.5819	-0.16
Mof_C 	C 	0.5459	0.9205	0.1316	0
Mof_H 	H 	0.5382	0.9069	0.1561	0
Mof_C 	C 	0.524	0.9503	0.1133	0.006
Mof_H 	H 	0.4975	0.9597	0.1209	0.018
Mof_C 	C 	0.5805	0.93999	0.08113	0.109
Mof_H 	H 	0.6019	0.9425	0.0616	-0.037
Mof_C 	C 	0.5387	0.9978	0.0558	0.204
Mof_C 	C 	0.5639	0.00563	0.0225	-0.246
Mof_H 	H 	0.5866	0.9883	0.0169	0.115
Mof_N 	N 	0.58019	0.91293	0.1103	-0.293
Mof_N 	N 	0.54716	0.96396	0.0819	-0.16
Mof_C 	C 	0.0459	0.4205	0.1316	0
Mof_H 	H 	0.0382	0.4069	0.1561	0
Mof_C 	C 	0.024	0.4503	0.1133	0.007
Mof_H 	H 	0.9975	0.4597	0.1209	0.018
Mof_C 	C 	0.0805	0.43999	0.08113	0.109
Mof_H 	H 	0.1019	0.4425	0.0616	-0.037
Mof_C 	C 	0.0387	0.4978	0.0558	0.205
Mof_C 	C 	0.0639	0.50563	0.0225	-0.246
Mof_H 	H 	0.0866	0.4883	0.0169	0.115
Mof_N 	N 	0.08019	0.41293	0.1103	-0.293
Mof_N 	N 	0.04716	0.46396	0.0819	-0.16
Mof_C 	C 	0.0459	0.9205	0.6316	0.001
Mof_H 	H 	0.0382	0.9069	0.6561	0
Mof_C 	C 	0.024	0.9503	0.6133	0.005
Mof_H 	H 	0.9975	0.9597	0.6209	0.019
Mof_C 	C 	0.0805	0.93999	0.58113	0.109
Mof_H 	H 	0.1019	0.9425	0.5616	-0.037
Mof_C 	C 	0.0387	0.9978	0.5558	0.204
Mof_C 	C 	0.0639	0.00563	0.5225	-0.246
Mof_H 	H 	0.0866	0.9883	0.5169	0.115
Mof_N 	N 	0.08019	0.91293	0.6103	-0.293
Mof_N 	N 	0.04716	0.96396	0.5819	-0.16
Mof_C 	C 	0.0459	0.8295	0.1184	0
Mof_H 	H 	0.0382	0.8431	0.0939	0
Mof_C 	C 	0.024	0.7997	0.1367	0.006
Mof_H 	H 	0.9975	0.7903	0.1291	0.018
Mof_C 	C 	0.0805	0.81001	0.16887	0.109
Mof_H 	H 	0.1019	0.8075	0.1884	-0.037
Mof_C 	C 	0.0387	0.7522	0.1942	0.206
Mof_C 	C 	0.0639	0.74437	0.2275	-0.248
Mof_H 	H 	0.0866	0.7617	0.2331	0.116
Mof_N 	N 	0.08019	0.83707	0.1397	-0.293
Mof_N 	N 	0.04716	0.78604	0.1681	-0.16
Mof_C 	C 	0.0459	0.3295	0.6184	0
Mof_H 	H 	0.0382	0.3431	0.5939	0
Mof_C 	C 	0.024	0.2997	0.6367	0.006
Mof_H 	H 	0.9975	0.2903	0.6291	0.017
Mof_C 	C 	0.0805	0.31001	0.66887	0.108
Mof_H 	H 	0.1019	0.3075	0.6884	-0.038
Mof_C 	C 	0.0387	0.2522	0.6942	0.205
Mof_C 	C 	0.0639	0.24437	0.7275	-0.249
Mof_H 	H 	0.0866	0.2617	0.7331	0.115
Mof_N 	N 	0.08019	0.33707	0.6397	-0.294
Mof_N 	N 	0.04716	0.28604	0.6681	-0.161
Mof_C 	C 	0.5459	0.8295	0.6184	-0.001
Mof_H 	H 	0.5382	0.8431	0.5939	-0.001
Mof_C 	C 	0.524	0.7997	0.6367	0.005
Mof_H 	H 	0.4975	0.7903	0.6291	0.017
Mof_C 	C 	0.5805	0.81001	0.66887	0.108
Mof_H 	H 	0.6019	0.8075	0.6884	-0.038
Mof_C 	C 	0.5387	0.7522	0.6942	0.205
Mof_C 	C 	0.5639	0.74437	0.7275	-0.249
Mof_H 	H 	0.5866	0.7617	0.7331	0.115
Mof_N 	N 	0.58019	0.83707	0.6397	-0.294
Mof_N 	N 	0.54716	0.78604	0.6681	-0.161
Mof_C 	C 	0.5459	0.3295	0.1184	-0.001
Mof_H 	H 	0.5382	0.3431	0.0939	-0.001
Mof_C 	C 	0.524	0.2997	0.1367	0.005
Mof_H 	H 	0.4975	0.2903	0.1291	0.017
Mof_C 	C 	0.5805	0.31001	0.16887	0.108
Mof_H 	H 	0.6019	0.3075	0.1884	-0.038
Mof_C 	C 	0.5387	0.2522	0.1942	0.205
Mof_C 	C 	0.5639	0.24437	0.2275	-0.249
Mof_H 	H 	0.5866	0.2617	0.2331	0.115
Mof_N 	N 	0.58019	0.33707	0.1397	-0.294
Mof_N 	N 	0.54716	0.28604	0.1681	-0.161
Mof_C 	C 	0.2041	0.9205	0.6184	-0.001
Mof_H 	H 	0.2118	0.9069	0.5939	-0.001
Mof_C 	C 	0.226	0.9503	0.6367	0.005
Mof_H 	H 	0.2525	0.9597	0.6291	0.017
Mof_C 	C 	0.1695	0.93999	0.66887	0.108
Mof_H 	H 	0.1481	0.9425	0.6884	-0.038
Mof_C 	C 	0.2113	0.9978	0.6942	0.204
Mof_C 	C 	0.1861	0.00563	0.7275	-0.248
Mof_H 	H 	0.1634	0.9883	0.7331	0.115
Mof_N 	N 	0.16981	0.91293	0.6397	-0.294
Mof_N 	N 	0.20284	0.96396	0.6681	-0.161
Mof_C 	C 	0.2041	0.4205	0.1184	-0.001
Mof_H 	H 	0.2118	0.4069	0.0939	-0.001
Mof_C 	C 	0.226	0.4503	0.1367	0.005
Mof_H 	H 	0.2525	0.4597	0.1291	0.017
Mof_C 	C 	0.1695	0.43999	0.16887	0.108
Mof_H 	H 	0.1481	0.4425	0.1884	-0.038
Mof_C 	C 	0.2113	0.4978	0.1942	0.205
Mof_C 	C 	0.1861	0.50563	0.2275	-0.249
Mof_H 	H 	0.1634	0.4883	0.2331	0.115
Mof_N 	N 	0.16981	0.41293	0.1397	-0.294
Mof_N 	N 	0.20284	0.46396	0.1681	-0.161
Mof_C 	C 	0.7041	0.9205	0.1184	-0.001
Mof_H 	H 	0.7118	0.9069	0.0939	-0.001
Mof_C 	C 	0.726	0.9503	0.1367	0.005
Mof_H 	H 	0.7525	0.9597	0.1291	0.017
Mof_C 	C 	0.6695	0.93999	0.16887	0.108
Mof_H 	H 	0.6481	0.9425	0.1884	-0.038
Mof_C 	C 	0.7113	0.9978	0.1942	0.204
Mof_C 	C 	0.6861	0.00563	0.2275	-0.248
Mof_H 	H 	0.6634	0.9883	0.2331	0.115
Mof_N 	N 	0.66981	0.91293	0.1397	-0.294
Mof_N 	N 	0.70284	0.96396	0.1681	-0.161
Mof_C 	C 	0.7041	0.4205	0.6184	-0.001
Mof_H 	H 	0.7118	0.4069	0.5939	-0.001
Mof_C 	C 	0.726	0.4503	0.6367	0.005
Mof_H 	H 	0.7525	0.4597	0.6291	0.017
Mof_C 	C 	0.6695	0.43999	0.66887	0.108
Mof_H 	H 	0.6481	0.4425	0.6884	-0.038
Mof_C 	C 	0.7113	0.4978	0.6942	0.205
Mof_C 	C 	0.6861	0.50563	0.7275	-0.249
Mof_H 	H 	0.6634	0.4883	0.7331	0.115
Mof_N 	N 	0.66981	0.41293	0.6397	-0.294
Mof_N 	N 	0.70284	0.46396	0.6681	-0.161
Mof_C 	C 	0.1316	0.7041	0.3295	-0.001
Mof_H 	H 	0.1561	0.7118	0.3431	-0.001
Mof_C 	C 	0.1133	0.726	0.2997	0.005
Mof_H 	H 	0.1209	0.7525	0.2903	0.017
Mof_C 	C 	0.08113	0.6695	0.31001	0.108
Mof_H 	H 	0.0616	0.6481	0.3075	-0.038
Mof_C 	C 	0.0558	0.7113	0.2522	0.205
Mof_C 	C 	0.0225	0.6861	0.24437	-0.249
Mof_H 	H 	0.0169	0.6634	0.2617	0.115
Mof_N 	N 	0.1103	0.66981	0.33707	-0.294
Mof_N 	N 	0.0819	0.70284	0.28604	-0.161
Mof_C 	C 	0.1316	0.2041	0.8295	-0.001
Mof_H 	H 	0.1561	0.2118	0.8431	-0.001
Mof_C 	C 	0.1133	0.226	0.7997	0.005
Mof_H 	H 	0.1209	0.2525	0.7903	0.017
Mof_C 	C 	0.08113	0.1695	0.81001	0.108
Mof_H 	H 	0.0616	0.1481	0.8075	-0.038
Mof_C 	C 	0.0558	0.2113	0.7522	0.205
Mof_C 	C 	0.0225	0.1861	0.74437	-0.249
Mof_H 	H 	0.0169	0.1634	0.7617	0.115
Mof_N 	N 	0.1103	0.16981	0.83707	-0.294
Mof_N 	N 	0.0819	0.20284	0.78604	-0.161
Mof_C 	C 	0.6316	0.7041	0.8295	-0.001
Mof_H 	H 	0.6561	0.7118	0.8431	-0.001
Mof_C 	C 	0.6133	0.726	0.7997	0.005
Mof_H 	H 	0.6209	0.7525	0.7903	0.017
Mof_C 	C 	0.58113	0.6695	0.81001	0.108
Mof_H 	H 	0.5616	0.6481	0.8075	-0.038
Mof_C 	C 	0.5558	0.7113	0.7522	0.205
Mof_C 	C 	0.5225	0.6861	0.74437	-0.249
Mof_H 	H 	0.5169	0.6634	0.7617	0.115
Mof_N 	N 	0.6103	0.66981	0.83707	-0.294
Mof_N 	N 	0.5819	0.70284	0.78604	-0.161
Mof_C 	C 	0.6316	0.2041	0.3295	-0.001
Mof_H 	H 	0.6561	0.2118	0.3431	-0.001
Mof_C 	C 	0.6133	0.226	0.2997	0.005
Mof_H 	H 	0.6209	0.2525	0.2903	0.017
Mof_C 	C 	0.58113	0.1695	0.31001	0.108
Mof_H 	H 	0.5616	0.1481	0.3075	-0.038
Mof_C 	C 	0.5558	0.2113	0.2522	0.205
Mof_C 	C 	0.5225	0.1861	0.24437	-0.249
Mof_H 	H 	0.5169	0.1634	0.2617	0.115
Mof_N 	N 	0.6103	0.16981	0.33707	-0.294
Mof_N 	N 	0.5819	0.20284	0.28604	-0.161
Mof_C 	C 	0.6316	0.5459	0.4205	-0.001
Mof_H 	H 	0.6561	0.5382	0.4069	-0.001
Mof_C 	C 	0.6133	0.524	0.4503	0.005
Mof_H 	H 	0.6209	0.4975	0.4597	0.017
Mof_C 	C 	0.58113	0.5805	0.43999	0.108
Mof_H 	H 	0.5616	0.6019	0.4425	-0.038
Mof_C 	C 	0.5558	0.5387	0.4978	0.205
Mof_C 	C 	0.5225	0.5639	0.50563	-0.249
Mof_H 	H 	0.5169	0.5866	0.4883	0.115
Mof_N 	N 	0.6103	0.58019	0.41293	-0.294
Mof_N 	N 	0.5819	0.54716	0.46396	-0.161
Mof_C 	C 	0.6316	0.0459	0.9205	-0
Mof_H 	H 	0.6561	0.0382	0.9069	-0.001
Mof_C 	C 	0.6133	0.024	0.9503	0.004
Mof_H 	H 	0.6209	0.9975	0.9597	0.018
Mof_C 	C 	0.58113	0.0805	0.93999	0.108
Mof_H 	H 	0.5616	0.1019	0.9425	-0.038
Mof_C 	C 	0.5558	0.0387	0.9978	0.203
Mof_C 	C 	0.5225	0.0639	0.00563	-0.247
Mof_H 	H 	0.5169	0.0866	0.9883	0.114
Mof_N 	N 	0.6103	0.08019	0.91293	-0.294
Mof_N 	N 	0.5819	0.04716	0.96396	-0.161
Mof_C 	C 	0.1316	0.5459	0.9205	-0.001
Mof_H 	H 	0.1561	0.5382	0.9069	-0.001
Mof_C 	C 	0.1133	0.524	0.9503	0.005
Mof_H 	H 	0.1209	0.4975	0.9597	0.017
Mof_C 	C 	0.08113	0.5805	0.93999	0.108
Mof_H 	H 	0.0616	0.6019	0.9425	-0.038
Mof_C 	C 	0.0558	0.5387	0.9978	0.203
Mof_C 	C 	0.0225	0.5639	0.00563	-0.247
Mof_H 	H 	0.0169	0.5866	0.9883	0.114
Mof_N 	N 	0.1103	0.58019	0.91293	-0.294
Mof_N 	N 	0.0819	0.54716	0.96396	-0.161
Mof_C 	C 	0.1316	0.0459	0.4205	-0.001
Mof_H 	H 	0.1561	0.0382	0.4069	-0.001
Mof_C 	C 	0.1133	0.024	0.4503	0.006
Mof_H 	H 	0.1209	0.9975	0.4597	0.017
Mof_C 	C 	0.08113	0.0805	0.43999	0.108
Mof_H 	H 	0.0616	0.1019	0.4425	-0.038
Mof_C 	C 	0.0558	0.0387	0.4978	0.204
Mof_C 	C 	0.0225	0.0639	0.50563	-0.247
Mof_H 	H 	0.0169	0.0866	0.4883	0.114
Mof_N 	N 	0.1103	0.08019	0.41293	-0.294
Mof_N 	N 	0.0819	0.04716	0.46396	-0.161
Mof_C 	C 	0.1184	0.0459	0.8295	-0.001
Mof_H 	H 	0.0939	0.0382	0.8431	-0.001
Mof_C 	C 	0.1367	0.024	0.7997	0.005
Mof_H 	H 	0.1291	0.9975	0.7903	0.017
Mof_C 	C 	0.16887	0.0805	0.81001	0.108
Mof_H 	H 	0.1884	0.1019	0.8075	-0.038
Mof_C 	C 	0.1942	0.0387	0.7522	0.205
Mof_C 	C 	0.2275	0.0639	0.74437	-0.249
Mof_H 	H 	0.2331	0.0866	0.7617	0.115
Mof_N 	N 	0.1397	0.08019	0.83707	-0.294
Mof_N 	N 	0.1681	0.04716	0.78604	-0.161
Mof_C 	C 	0.1184	0.5459	0.3295	-0.001
Mof_H 	H 	0.0939	0.5382	0.3431	-0.001
Mof_C 	C 	0.1367	0.524	0.2997	0.005
Mof_H 	H 	0.1291	0.4975	0.2903	0.017
Mof_C 	C 	0.16887	0.5805	0.31001	0.108
Mof_H 	H 	0.1884	0.6019	0.3075	-0.038
Mof_C 	C 	0.1942	0.5387	0.2522	0.205
Mof_C 	C 	0.2275	0.5639	0.24437	-0.249
Mof_H 	H 	0.2331	0.5866	0.2617	0.115
Mof_N 	N 	0.1397	0.58019	0.33707	-0.294
Mof_N 	N 	0.1681	0.54716	0.28604	-0.161
Mof_C 	C 	0.6184	0.0459	0.3295	-0.001
Mof_H 	H 	0.5939	0.0382	0.3431	-0.001
Mof_C 	C 	0.6367	0.024	0.2997	0.005
Mof_H 	H 	0.6291	0.9975	0.2903	0.017
Mof_C 	C 	0.66887	0.0805	0.31001	0.108
Mof_H 	H 	0.6884	0.1019	0.3075	-0.038
Mof_C 	C 	0.6942	0.0387	0.2522	0.205
Mof_C 	C 	0.7275	0.0639	0.24437	-0.249
Mof_H 	H 	0.7331	0.0866	0.2617	0.115
Mof_N 	N 	0.6397	0.08019	0.33707	-0.294
Mof_N 	N 	0.6681	0.04716	0.28604	-0.161
Mof_C 	C 	0.6184	0.5459	0.8295	-0.001
Mof_H 	H 	0.5939	0.5382	0.8431	-0.001
Mof_C 	C 	0.6367	0.524	0.7997	0.005
Mof_H 	H 	0.6291	0.4975	0.7903	0.017
Mof_C 	C 	0.66887	0.5805	0.81001	0.108
Mof_H 	H 	0.6884	0.6019	0.8075	-0.038
Mof_C 	C 	0.6942	0.5387	0.7522	0.205
Mof_C 	C 	0.7275	0.5639	0.74437	-0.249
Mof_H 	H 	0.7331	0.5866	0.7617	0.115
Mof_N 	N 	0.6397	0.58019	0.83707	-0.294
Mof_N 	N 	0.6681	0.54716	0.78604	-0.161
Mof_C 	C 	0.6184	0.2041	0.9205	-0.001
Mof_H 	H 	0.5939	0.2118	0.9069	-0.001
Mof_C 	C 	0.6367	0.226	0.9503	0.005
Mof_H 	H 	0.6291	0.2525	0.9597	0.017
Mof_C 	C 	0.66887	0.1695	0.93999	0.108
Mof_H 	H 	0.6884	0.1481	0.9425	-0.038
Mof_C 	C 	0.6942	0.2113	0.9978	0.204
Mof_C 	C 	0.7275	0.1861	0.00563	-0.248
Mof_H 	H 	0.7331	0.1634	0.9883	0.115
Mof_N 	N 	0.6397	0.16981	0.91293	-0.294
Mof_N 	N 	0.6681	0.20284	0.96396	-0.161
Mof_C 	C 	0.6184	0.7041	0.4205	-0.001
Mof_H 	H 	0.5939	0.7118	0.4069	-0.001
Mof_C 	C 	0.6367	0.726	0.4503	0.005
Mof_H 	H 	0.6291	0.7525	0.4597	0.017
Mof_C 	C 	0.66887	0.6695	0.43999	0.108
Mof_H 	H 	0.6884	0.6481	0.4425	-0.038
Mof_C 	C 	0.6942	0.7113	0.4978	0.205
Mof_C 	C 	0.7275	0.6861	0.50563	-0.249
Mof_H 	H 	0.7331	0.6634	0.4883	0.115
Mof_N 	N 	0.6397	0.66981	0.41293	-0.294
Mof_N 	N 	0.6681	0.70284	0.46396	-0.161
Mof_C 	C 	0.1184	0.2041	0.4205	-0.001
Mof_H 	H 	0.0939	0.2118	0.4069	-0.001
Mof_C 	C 	0.1367	0.226	0.4503	0.005
Mof_H 	H 	0.1291	0.2525	0.4597	0.017
Mof_C 	C 	0.16887	0.1695	0.43999	0.108
Mof_H 	H 	0.1884	0.1481	0.4425	-0.038
Mof_C 	C 	0.1942	0.2113	0.4978	0.205
Mof_C 	C 	0.2275	0.1861	0.50563	-0.249
Mof_H 	H 	0.2331	0.1634	0.4883	0.115
Mof_N 	N 	0.1397	0.16981	0.41293	-0.294
Mof_N 	N 	0.1681	0.20284	0.46396	-0.161
Mof_C 	C 	0.1184	0.7041	0.9205	-0.001
Mof_H 	H 	0.0939	0.7118	0.9069	-0.001
Mof_C 	C 	0.1367	0.726	0.9503	0.005
Mof_H 	H 	0.1291	0.7525	0.9597	0.017
Mof_C 	C 	0.16887	0.6695	0.93999	0.108
Mof_H 	H 	0.1884	0.6481	0.9425	-0.038
Mof_C 	C 	0.1942	0.7113	0.9978	0.204
Mof_C 	C 	0.2275	0.6861	0.00563	-0.248
Mof_H 	H 	0.2331	0.6634	0.9883	0.115
Mof_N 	N 	0.1397	0.66981	0.91293	-0.294
Mof_N 	N 	0.1681	0.70284	0.96396	-0.161
Mof_C 	C 	0.3295	0.1316	0.7041	-0.001
Mof_H 	H 	0.3431	0.1561	0.7118	-0.001
Mof_C 	C 	0.2997	0.1133	0.726	0.005
Mof_H 	H 	0.2903	0.1209	0.7525	0.017
Mof_C 	C 	0.31001	0.08113	0.6695	0.108
Mof_H 	H 	0.3075	0.0616	0.6481	-0.038
Mof_C 	C 	0.2522	0.0558	0.7113	0.205
Mof_C 	C 	0.24437	0.0225	0.6861	-0.249
Mof_H 	H 	0.2617	0.0169	0.6634	0.115
Mof_N 	N 	0.33707	0.1103	0.66981	-0.294
Mof_N 	N 	0.28604	0.0819	0.70284	-0.161
Mof_C 	C 	0.3295	0.6316	0.2041	-0.001
Mof_H 	H 	0.3431	0.6561	0.2118	-0.001
Mof_C 	C 	0.2997	0.6133	0.226	0.005
Mof_H 	H 	0.2903	0.6209	0.2525	0.017
Mof_C 	C 	0.31001	0.58113	0.1695	0.108
Mof_H 	H 	0.3075	0.5616	0.1481	-0.038
Mof_C 	C 	0.2522	0.5558	0.2113	0.205
Mof_C 	C 	0.24437	0.5225	0.1861	-0.249
Mof_H 	H 	0.2617	0.5169	0.1634	0.115
Mof_N 	N 	0.33707	0.6103	0.16981	-0.294
Mof_N 	N 	0.28604	0.5819	0.20284	-0.161
Mof_C 	C 	0.8295	0.1316	0.2041	-0.001
Mof_H 	H 	0.8431	0.1561	0.2118	-0.001
Mof_C 	C 	0.7997	0.1133	0.226	0.005
Mof_H 	H 	0.7903	0.1209	0.2525	0.017
Mof_C 	C 	0.81001	0.08113	0.1695	0.108
Mof_H 	H 	0.8075	0.0616	0.1481	-0.038
Mof_C 	C 	0.7522	0.0558	0.2113	0.205
Mof_C 	C 	0.74437	0.0225	0.1861	-0.249
Mof_H 	H 	0.7617	0.0169	0.1634	0.115
Mof_N 	N 	0.83707	0.1103	0.16981	-0.294
Mof_N 	N 	0.78604	0.0819	0.20284	-0.161
Mof_C 	C 	0.8295	0.6316	0.7041	-0.001
Mof_H 	H 	0.8431	0.6561	0.7118	-0.001
Mof_C 	C 	0.7997	0.6133	0.726	0.005
Mof_H 	H 	0.7903	0.6209	0.7525	0.017
Mof_C 	C 	0.81001	0.58113	0.6695	0.108
Mof_H 	H 	0.8075	0.5616	0.6481	-0.038
Mof_C 	C 	0.7522	0.5558	0.7113	0.205
Mof_C 	C 	0.74437	0.5225	0.6861	-0.249
Mof_H 	H 	0.7617	0.5169	0.6634	0.115
Mof_N 	N 	0.83707	0.6103	0.66981	-0.294
Mof_N 	N 	0.78604	0.5819	0.70284	-0.161
Mof_C 	C 	0.4205	0.6316	0.5459	-0.001
Mof_H 	H 	0.4069	0.6561	0.5382	-0.001
Mof_C 	C 	0.4503	0.6133	0.524	0.005
Mof_H 	H 	0.4597	0.6209	0.4975	0.017
Mof_C 	C 	0.43999	0.58113	0.5805	0.108
Mof_H 	H 	0.4425	0.5616	0.6019	-0.038
Mof_C 	C 	0.4978	0.5558	0.5387	0.205
Mof_C 	C 	0.50563	0.5225	0.5639	-0.249
Mof_H 	H 	0.4883	0.5169	0.5866	0.115
Mof_N 	N 	0.41293	0.6103	0.58019	-0.294
Mof_N 	N 	0.46396	0.5819	0.54716	-0.161
Mof_C 	C 	0.4205	0.1316	0.0459	-0.001
Mof_H 	H 	0.4069	0.1561	0.0382	-0.001
Mof_C 	C 	0.4503	0.1133	0.024	0.006
Mof_H 	H 	0.4597	0.1209	0.9975	0.017
Mof_C 	C 	0.43999	0.08113	0.0805	0.108
Mof_H 	H 	0.4425	0.0616	0.1019	-0.038
Mof_C 	C 	0.4978	0.0558	0.0387	0.204
Mof_C 	C 	0.50563	0.0225	0.0639	-0.247
Mof_H 	H 	0.4883	0.0169	0.0866	0.114
Mof_N 	N 	0.41293	0.1103	0.08019	-0.294
Mof_N 	N 	0.46396	0.0819	0.04716	-0.161
Mof_C 	C 	0.9205	0.6316	0.0459	-0
Mof_H 	H 	0.9069	0.6561	0.0382	-0.001
Mof_C 	C 	0.9503	0.6133	0.024	0.004
Mof_H 	H 	0.9597	0.6209	0.9975	0.018
Mof_C 	C 	0.93999	0.58113	0.0805	0.108
Mof_H 	H 	0.9425	0.5616	0.1019	-0.038
Mof_C 	C 	0.9978	0.5558	0.0387	0.203
Mof_C 	C 	0.00563	0.5225	0.0639	-0.247
Mof_H 	H 	0.9883	0.5169	0.0866	0.114
Mof_N 	N 	0.91293	0.6103	0.08019	-0.294
Mof_N 	N 	0.96396	0.5819	0.04716	-0.161
Mof_C 	C 	0.9205	0.1316	0.5459	-0.001
Mof_H 	H 	0.9069	0.1561	0.5382	-0.001
Mof_C 	C 	0.9503	0.1133	0.524	0.005
Mof_H 	H 	0.9597	0.1209	0.4975	0.017
Mof_C 	C 	0.93999	0.08113	0.5805	0.108
Mof_H 	H 	0.9425	0.0616	0.6019	-0.038
Mof_C 	C 	0.9978	0.0558	0.5387	0.203
Mof_C 	C 	0.00563	0.0225	0.5639	-0.247
Mof_H 	H 	0.9883	0.0169	0.5866	0.114
Mof_N 	N 	0.91293	0.1103	0.58019	-0.294
Mof_N 	N 	0.96396	0.0819	0.54716	-0.161
Mof_C 	C 	0.8295	0.1184	0.0459	-0.001
Mof_H 	H 	0.8431	0.0939	0.0382	-0.001
Mof_C 	C 	0.7997	0.1367	0.024	0.005
Mof_H 	H 	0.7903	0.1291	0.9975	0.017
Mof_C 	C 	0.81001	0.16887	0.0805	0.108
Mof_H 	H 	0.8075	0.1884	0.1019	-0.038
Mof_C 	C 	0.7522	0.1942	0.0387	0.205
Mof_C 	C 	0.74437	0.2275	0.0639	-0.249
Mof_H 	H 	0.7617	0.2331	0.0866	0.115
Mof_N 	N 	0.83707	0.1397	0.08019	-0.294
Mof_N 	N 	0.78604	0.1681	0.04716	-0.161
Mof_C 	C 	0.8295	0.6184	0.5459	-0.001
Mof_H 	H 	0.8431	0.5939	0.5382	-0.001
Mof_C 	C 	0.7997	0.6367	0.524	0.005
Mof_H 	H 	0.7903	0.6291	0.4975	0.017
Mof_C 	C 	0.81001	0.66887	0.5805	0.108
Mof_H 	H 	0.8075	0.6884	0.6019	-0.038
Mof_C 	C 	0.7522	0.6942	0.5387	0.205
Mof_C 	C 	0.74437	0.7275	0.5639	-0.249
Mof_H 	H 	0.7617	0.7331	0.5866	0.115
Mof_N 	N 	0.83707	0.6397	0.58019	-0.294
Mof_N 	N 	0.78604	0.6681	0.54716	-0.161
Mof_C 	C 	0.3295	0.1184	0.5459	-0.001
Mof_H 	H 	0.3431	0.0939	0.5382	-0.001
Mof_C 	C 	0.2997	0.1367	0.524	0.005
Mof_H 	H 	0.2903	0.1291	0.4975	0.017
Mof_C 	C 	0.31001	0.16887	0.5805	0.108
Mof_H 	H 	0.3075	0.1884	0.6019	-0.038
Mof_C 	C 	0.2522	0.1942	0.5387	0.205
Mof_C 	C 	0.24437	0.2275	0.5639	-0.249
Mof_H 	H 	0.2617	0.2331	0.5866	0.115
Mof_N 	N 	0.33707	0.1397	0.58019	-0.294
Mof_N 	N 	0.28604	0.1681	0.54716	-0.161
Mof_C 	C 	0.3295	0.6184	0.0459	-0.001
Mof_H 	H 	0.3431	0.5939	0.0382	-0.001
Mof_C 	C 	0.2997	0.6367	0.024	0.005
Mof_H 	H 	0.2903	0.6291	0.9975	0.017
Mof_C 	C 	0.31001	0.66887	0.0805	0.108
Mof_H 	H 	0.3075	0.6884	0.1019	-0.038
Mof_C 	C 	0.2522	0.6942	0.0387	0.205
Mof_C 	C 	0.24437	0.7275	0.0639	-0.249
Mof_H 	H 	0.2617	0.7331	0.0866	0.115
Mof_N 	N 	0.33707	0.6397	0.08019	-0.294
Mof_N 	N 	0.28604	0.6681	0.04716	-0.161
Mof_C 	C 	0.9205	0.6184	0.2041	-0.001
Mof_H 	H 	0.9069	0.5939	0.2118	-0.001
Mof_C 	C 	0.9503	0.6367	0.226	0.005
Mof_H 	H 	0.9597	0.6291	0.2525	0.017
Mof_C 	C 	0.93999	0.66887	0.1695	0.108
Mof_H 	H 	0.9425	0.6884	0.1481	-0.038
Mof_C 	C 	0.9978	0.6942	0.2113	0.204
Mof_C 	C 	0.00563	0.7275	0.1861	-0.248
Mof_H 	H 	0.9883	0.7331	0.1634	0.115
Mof_N 	N 	0.91293	0.6397	0.16981	-0.294
Mof_N 	N 	0.96396	0.6681	0.20284	-0.161
Mof_C 	C 	0.9205	0.1184	0.7041	-0.001
Mof_H 	H 	0.9069	0.0939	0.7118	-0.001
Mof_C 	C 	0.9503	0.1367	0.726	0.005
Mof_H 	H 	0.9597	0.1291	0.7525	0.017
Mof_C 	C 	0.93999	0.16887	0.6695	0.108
Mof_H 	H 	0.9425	0.1884	0.6481	-0.038
Mof_C 	C 	0.9978	0.1942	0.7113	0.204
Mof_C 	C 	0.00563	0.2275	0.6861	-0.248
Mof_H 	H 	0.9883	0.2331	0.6634	0.115
Mof_N 	N 	0.91293	0.1397	0.66981	-0.294
Mof_N 	N 	0.96396	0.1681	0.70284	-0.161
Mof_C 	C 	0.4205	0.6184	0.7041	-0.001
Mof_H 	H 	0.4069	0.5939	0.7118	-0.001
Mof_C 	C 	0.4503	0.6367	0.726	0.005
Mof_H 	H 	0.4597	0.6291	0.7525	0.017
Mof_C 	C 	0.43999	0.66887	0.6695	0.108
Mof_H 	H 	0.4425	0.6884	0.6481	-0.038
Mof_C 	C 	0.4978	0.6942	0.7113	0.205
Mof_C 	C 	0.50563	0.7275	0.6861	-0.249
Mof_H 	H 	0.4883	0.7331	0.6634	0.115
Mof_N 	N 	0.41293	0.6397	0.66981	-0.294
Mof_N 	N 	0.46396	0.6681	0.70284	-0.161
Mof_C 	C 	0.4205	0.1184	0.2041	-0.001
Mof_H 	H 	0.4069	0.0939	0.2118	-0.001
Mof_C 	C 	0.4503	0.1367	0.226	0.005
Mof_H 	H 	0.4597	0.1291	0.2525	0.017
Mof_C 	C 	0.43999	0.16887	0.1695	0.108
Mof_H 	H 	0.4425	0.1884	0.1481	-0.038
Mof_C 	C 	0.4978	0.1942	0.2113	0.205
Mof_C 	C 	0.50563	0.2275	0.1861	-0.249
Mof_H 	H 	0.4883	0.2331	0.1634	0.115
Mof_N 	N 	0.41293	0.1397	0.16981	-0.294
Mof_N 	N 	0.46396	0.1681	0.20284	-0.161
Mof_C 	C 	0.9205	0.0459	0.1316	-0.001
Mof_H 	H 	0.9069	0.0382	0.1561	-0.001
Mof_C 	C 	0.9503	0.024	0.1133	0.005
Mof_H 	H 	0.9597	0.9975	0.1209	0.017
Mof_C 	C 	0.93999	0.0805	0.08113	0.108
Mof_H 	H 	0.9425	0.1019	0.0616	-0.038
Mof_C 	C 	0.9978	0.0387	0.0558	0.201
Mof_C 	C 	0.00563	0.0639	0.0225	-0.243
Mof_H 	H 	0.9883	0.0866	0.0169	0.113
Mof_N 	N 	0.91293	0.08019	0.1103	-0.294
Mof_N 	N 	0.96396	0.04716	0.0819	-0.161
Mof_C 	C 	0.9205	0.5459	0.6316	-0.001
Mof_H 	H 	0.9069	0.5382	0.6561	-0.001
Mof_C 	C 	0.9503	0.524	0.6133	0.005
Mof_H 	H 	0.9597	0.4975	0.6209	0.017
Mof_C 	C 	0.93999	0.5805	0.58113	0.108
Mof_H 	H 	0.9425	0.6019	0.5616	-0.038
Mof_C 	C 	0.9978	0.5387	0.5558	0.205
Mof_C 	C 	0.00563	0.5639	0.5225	-0.249
Mof_H 	H 	0.9883	0.5866	0.5169	0.115
Mof_N 	N 	0.91293	0.58019	0.6103	-0.294
Mof_N 	N 	0.96396	0.54716	0.5819	-0.161
Mof_C 	C 	0.4205	0.0459	0.6316	-0.001
Mof_H 	H 	0.4069	0.0382	0.6561	-0.001
Mof_C 	C 	0.4503	0.024	0.6133	0.005
Mof_H 	H 	0.4597	0.9975	0.6209	0.017
Mof_C 	C 	0.43999	0.0805	0.58113	0.108
Mof_H 	H 	0.4425	0.1019	0.5616	-0.038
Mof_C 	C 	0.4978	0.0387	0.5558	0.205
Mof_C 	C 	0.50563	0.0639	0.5225	-0.249
Mof_H 	H 	0.4883	0.0866	0.5169	0.115
Mof_N 	N 	0.41293	0.08019	0.6103	-0.294
Mof_N 	N 	0.46396	0.04716	0.5819	-0.161
Mof_C 	C 	0.4205	0.5459	0.1316	-0.001
Mof_H 	H 	0.4069	0.5382	0.1561	-0.001
Mof_C 	C 	0.4503	0.524	0.1133	0.005
Mof_H 	H 	0.4597	0.4975	0.1209	0.017
Mof_C 	C 	0.43999	0.5805	0.08113	0.108
Mof_H 	H 	0.4425	0.6019	0.0616	-0.038
Mof_C 	C 	0.4978	0.5387	0.0558	0.205
Mof_C 	C 	0.50563	0.5639	0.0225	-0.249
Mof_H 	H 	0.4883	0.5866	0.0169	0.115
Mof_N 	N 	0.41293	0.58019	0.1103	-0.294
Mof_N 	N 	0.46396	0.54716	0.0819	-0.161
Mof_C 	C 	0.8295	0.2041	0.6316	-0.001
Mof_H 	H 	0.8431	0.2118	0.6561	-0.001
Mof_C 	C 	0.7997	0.226	0.6133	0.005
Mof_H 	H 	0.7903	0.2525	0.6209	0.017
Mof_C 	C 	0.81001	0.1695	0.58113	0.108
Mof_H 	H 	0.8075	0.1481	0.5616	-0.038
Mof_C 	C 	0.7522	0.2113	0.5558	0.205
Mof_C 	C 	0.74437	0.1861	0.5225	-0.249
Mof_H 	H 	0.7617	0.1634	0.5169	0.115
Mof_N 	N 	0.83707	0.16981	0.6103	-0.294
Mof_N 	N 	0.78604	0.20284	0.5819	-0.161
Mof_C 	C 	0.8295	0.7041	0.1316	-0.001
Mof_H 	H 	0.8431	0.7118	0.1561	-0.001
Mof_C 	C 	0.7997	0.726	0.1133	0.005
Mof_H 	H 	0.7903	0.7525	0.1209	0.017
Mof_C 	C 	0.81001	0.6695	0.08113	0.108
Mof_H 	H 	0.8075	0.6481	0.0616	-0.038
Mof_C 	C 	0.7522	0.7113	0.0558	0.205
Mof_C 	C 	0.74437	0.6861	0.0225	-0.249
Mof_H 	H 	0.7617	0.6634	0.0169	0.115
Mof_N 	N 	0.83707	0.66981	0.1103	-0.294
Mof_N 	N 	0.78604	0.70284	0.0819	-0.161
Mof_C 	C 	0.3295	0.2041	0.1316	-0.001
Mof_H 	H 	0.3431	0.2118	0.1561	-0.001
Mof_C 	C 	0.2997	0.226	0.1133	0.005
Mof_H 	H 	0.2903	0.2525	0.1209	0.017
Mof_C 	C 	0.31001	0.1695	0.08113	0.108
Mof_H 	H 	0.3075	0.1481	0.0616	-0.038
Mof_C 	C 	0.2522	0.2113	0.0558	0.204
Mof_C 	C 	0.24437	0.1861	0.0225	-0.248
Mof_H 	H 	0.2617	0.1634	0.0169	0.114
Mof_N 	N 	0.33707	0.16981	0.1103	-0.294
Mof_N 	N 	0.28604	0.20284	0.0819	-0.161
Mof_C 	C 	0.3295	0.7041	0.6316	-0.001
Mof_H 	H 	0.3431	0.7118	0.6561	-0.001
Mof_C 	C 	0.2997	0.726	0.6133	0.005
Mof_H 	H 	0.2903	0.7525	0.6209	0.017
Mof_C 	C 	0.31001	0.6695	0.58113	0.108
Mof_H 	H 	0.3075	0.6481	0.5616	-0.038
Mof_C 	C 	0.2522	0.7113	0.5558	0.205
Mof_C 	C 	0.24437	0.6861	0.5225	-0.249
Mof_H 	H 	0.2617	0.6634	0.5169	0.115
Mof_N 	N 	0.33707	0.66981	0.6103	-0.294
Mof_N 	N 	0.28604	0.70284	0.5819	-0.161
Mof_C 	C 	0.4205	0.7041	0.1184	-0.001
Mof_H 	H 	0.4069	0.7118	0.0939	-0.001
Mof_C 	C 	0.4503	0.726	0.1367	0.005
Mof_H 	H 	0.4597	0.7525	0.1291	0.017
Mof_C 	C 	0.43999	0.6695	0.16887	0.108
Mof_H 	H 	0.4425	0.6481	0.1884	-0.038
Mof_C 	C 	0.4978	0.7113	0.1942	0.205
Mof_C 	C 	0.50563	0.6861	0.2275	-0.249
Mof_H 	H 	0.4883	0.6634	0.2331	0.115
Mof_N 	N 	0.41293	0.66981	0.1397	-0.294
Mof_N 	N 	0.46396	0.70284	0.1681	-0.161
Mof_C 	C 	0.4205	0.2041	0.6184	-0.001
Mof_H 	H 	0.4069	0.2118	0.5939	-0.001
Mof_C 	C 	0.4503	0.226	0.6367	0.005
Mof_H 	H 	0.4597	0.2525	0.6291	0.017
Mof_C 	C 	0.43999	0.1695	0.66887	0.108
Mof_H 	H 	0.4425	0.1481	0.6884	-0.038
Mof_C 	C 	0.4978	0.2113	0.6942	0.205
Mof_C 	C 	0.50563	0.1861	0.7275	-0.249
Mof_H 	H 	0.4883	0.1634	0.7331	0.115
Mof_N 	N 	0.41293	0.16981	0.6397	-0.294
Mof_N 	N 	0.46396	0.20284	0.6681	-0.161
Mof_C 	C 	0.9205	0.7041	0.6184	-0.001
Mof_H 	H 	0.9069	0.7118	0.5939	-0.001
Mof_C 	C 	0.9503	0.726	0.6367	0.005
Mof_H 	H 	0.9597	0.7525	0.6291	0.017
Mof_C 	C 	0.93999	0.6695	0.66887	0.108
Mof_H 	H 	0.9425	0.6481	0.6884	-0.038
Mof_C 	C 	0.9978	0.7113	0.6942	0.206
Mof_C 	C 	0.00563	0.6861	0.7275	-0.25
Mof_H 	H 	0.9883	0.6634	0.7331	0.115
Mof_N 	N 	0.91293	0.66981	0.6397	-0.294
Mof_N 	N 	0.96396	0.70284	0.6681	-0.161
Mof_C 	C 	0.9205	0.2041	0.1184	-0.001
Mof_H 	H 	0.9069	0.2118	0.0939	-0.001
Mof_C 	C 	0.9503	0.226	0.1367	0.005
Mof_H 	H 	0.9597	0.2525	0.1291	0.017
Mof_C 	C 	0.93999	0.1695	0.16887	0.108
Mof_H 	H 	0.9425	0.1481	0.1884	-0.038
Mof_C 	C 	0.9978	0.2113	0.1942	0.203
Mof_C 	C 	0.00563	0.1861	0.2275	-0.247
Mof_H 	H 	0.9883	0.1634	0.2331	0.114
Mof_N 	N 	0.91293	0.16981	0.1397	-0.294
Mof_N 	N 	0.96396	0.20284	0.1681	-0.161
Mof_C 	C 	0.3295	0.5459	0.6184	-0.001
Mof_H 	H 	0.3431	0.5382	0.5939	-0.001
Mof_C 	C 	0.2997	0.524	0.6367	0.005
Mof_H 	H 	0.2903	0.4975	0.6291	0.017
Mof_C 	C 	0.31001	0.5805	0.66887	0.108
Mof_H 	H 	0.3075	0.6019	0.6884	-0.038
Mof_C 	C 	0.2522	0.5387	0.6942	0.205
Mof_C 	C 	0.24437	0.5639	0.7275	-0.249
Mof_H 	H 	0.2617	0.5866	0.7331	0.115
Mof_N 	N 	0.33707	0.58019	0.6397	-0.294
Mof_N 	N 	0.28604	0.54716	0.6681	-0.161
Mof_C 	C 	0.3295	0.0459	0.1184	-0.001
Mof_H 	H 	0.3431	0.0382	0.0939	-0.001
Mof_C 	C 	0.2997	0.024	0.1367	0.006
Mof_H 	H 	0.2903	0.9975	0.1291	0.017
Mof_C 	C 	0.31001	0.0805	0.16887	0.108
Mof_H 	H 	0.3075	0.1019	0.1884	-0.038
Mof_C 	C 	0.2522	0.0387	0.1942	0.204
Mof_C 	C 	0.24437	0.0639	0.2275	-0.248
Mof_H 	H 	0.2617	0.0866	0.2331	0.114
Mof_N 	N 	0.33707	0.08019	0.1397	-0.294
Mof_N 	N 	0.28604	0.04716	0.1681	-0.161
Mof_C 	C 	0.8295	0.5459	0.1184	-0.001
Mof_H 	H 	0.8431	0.5382	0.0939	-0.001
Mof_C 	C 	0.7997	0.524	0.1367	0.005
Mof_H 	H 	0.7903	0.4975	0.1291	0.017
Mof_C 	C 	0.81001	0.5805	0.16887	0.108
Mof_H 	H 	0.8075	0.6019	0.1884	-0.038
Mof_C 	C 	0.7522	0.5387	0.1942	0.205
Mof_C 	C 	0.74437	0.5639	0.2275	-0.249
Mof_H 	H 	0.7617	0.5866	0.2331	0.115
Mof_N 	N 	0.83707	0.58019	0.1397	-0.294
Mof_N 	N 	0.78604	0.54716	0.1681	-0.161
Mof_C 	C 	0.8295	0.0459	0.6184	-0.001
Mof_H 	H 	0.8431	0.0382	0.5939	-0.001
Mof_C 	C 	0.7997	0.024	0.6367	0.005
Mof_H 	H 	0.7903	0.9975	0.6291	0.018
Mof_C 	C 	0.81001	0.0805	0.66887	0.108
Mof_H 	H 	0.8075	0.1019	0.6884	-0.038
Mof_C 	C 	0.7522	0.0387	0.6942	0.205
Mof_C 	C 	0.74437	0.0639	0.7275	-0.249
Mof_H 	H 	0.7617	0.0866	0.7331	0.115
Mof_N 	N 	0.83707	0.08019	0.6397	-0.294
Mof_N 	N 	0.78604	0.04716	0.6681	-0.161
Mof_C 	C 	0.5459	0.6184	0.3295	-0.001
Mof_H 	H 	0.5382	0.5939	0.3431	-0.001
Mof_C 	C 	0.524	0.6367	0.2997	0.005
Mof_H 	H 	0.4975	0.6291	0.2903	0.017
Mof_C 	C 	0.5805	0.66887	0.31001	0.108
Mof_H 	H 	0.6019	0.6884	0.3075	-0.038
Mof_C 	C 	0.5387	0.6942	0.2522	0.205
Mof_C 	C 	0.5639	0.7275	0.24437	-0.249
Mof_H 	H 	0.5866	0.7331	0.2617	0.115
Mof_N 	N 	0.58019	0.6397	0.33707	-0.294
Mof_N 	N 	0.54716	0.6681	0.28604	-0.161
Mof_C 	C 	0.5459	0.1184	0.8295	-0.001
Mof_H 	H 	0.5382	0.0939	0.8431	-0.001
Mof_C 	C 	0.524	0.1367	0.7997	0.005
Mof_H 	H 	0.4975	0.1291	0.7903	0.017
Mof_C 	C 	0.5805	0.16887	0.81001	0.108
Mof_H 	H 	0.6019	0.1884	0.8075	-0.038
Mof_C 	C 	0.5387	0.1942	0.7522	0.205
Mof_C 	C 	0.5639	0.2275	0.74437	-0.249
Mof_H 	H 	0.5866	0.2331	0.7617	0.115
Mof_N 	N 	0.58019	0.1397	0.83707	-0.294
Mof_N 	N 	0.54716	0.1681	0.78604	-0.161
Mof_C 	C 	0.0459	0.6184	0.8295	-0.001
Mof_H 	H 	0.0382	0.5939	0.8431	-0.001
Mof_C 	C 	0.024	0.6367	0.7997	0.005
Mof_H 	H 	0.9975	0.6291	0.7903	0.018
Mof_C 	C 	0.0805	0.66887	0.81001	0.108
Mof_H 	H 	0.1019	0.6884	0.8075	-0.038
Mof_C 	C 	0.0387	0.6942	0.7522	0.205
Mof_C 	C 	0.0639	0.7275	0.74437	-0.249
Mof_H 	H 	0.0866	0.7331	0.7617	0.115
Mof_N 	N 	0.08019	0.6397	0.83707	-0.294
Mof_N 	N 	0.04716	0.6681	0.78604	-0.161
Mof_C 	C 	0.0459	0.1184	0.3295	-0.001
Mof_H 	H 	0.0382	0.0939	0.3431	-0.001
Mof_C 	C 	0.024	0.1367	0.2997	0.006
Mof_H 	H 	0.9975	0.1291	0.2903	0.017
Mof_C 	C 	0.0805	0.16887	0.31001	0.108
Mof_H 	H 	0.1019	0.1884	0.3075	-0.038
Mof_C 	C 	0.0387	0.1942	0.2522	0.204
Mof_C 	C 	0.0639	0.2275	0.24437	-0.248
Mof_H 	H 	0.0866	0.2331	0.2617	0.114
Mof_N 	N 	0.08019	0.1397	0.33707	-0.294
Mof_N 	N 	0.04716	0.1681	0.28604	-0.161
Mof_C 	C 	0.7041	0.1184	0.4205	-0.001
Mof_H 	H 	0.7118	0.0939	0.4069	-0.001
Mof_C 	C 	0.726	0.1367	0.4503	0.005
Mof_H 	H 	0.7525	0.1291	0.4597	0.017
Mof_C 	C 	0.6695	0.16887	0.43999	0.108
Mof_H 	H 	0.6481	0.1884	0.4425	-0.038
Mof_C 	C 	0.7113	0.1942	0.4978	0.205
Mof_C 	C 	0.6861	0.2275	0.50563	-0.249
Mof_H 	H 	0.6634	0.2331	0.4883	0.115
Mof_N 	N 	0.66981	0.1397	0.41293	-0.294
Mof_N 	N 	0.70284	0.1681	0.46396	-0.161
Mof_C 	C 	0.7041	0.6184	0.9205	-0.001
Mof_H 	H 	0.7118	0.5939	0.9069	-0.001
Mof_C 	C 	0.726	0.6367	0.9503	0.005
Mof_H 	H 	0.7525	0.6291	0.9597	0.017
Mof_C 	C 	0.6695	0.66887	0.93999	0.108
Mof_H 	H 	0.6481	0.6884	0.9425	-0.038
Mof_C 	C 	0.7113	0.6942	0.9978	0.206
Mof_C 	C 	0.6861	0.7275	0.00563	-0.25
Mof_H 	H 	0.6634	0.7331	0.9883	0.115
Mof_N 	N 	0.66981	0.6397	0.91293	-0.294
Mof_N 	N 	0.70284	0.6681	0.96396	-0.161
Mof_C 	C 	0.2041	0.1184	0.9205	-0.001
Mof_H 	H 	0.2118	0.0939	0.9069	-0.001
Mof_C 	C 	0.226	0.1367	0.9503	0.005
Mof_H 	H 	0.2525	0.1291	0.9597	0.017
Mof_C 	C 	0.1695	0.16887	0.93999	0.108
Mof_H 	H 	0.1481	0.1884	0.9425	-0.038
Mof_C 	C 	0.2113	0.1942	0.9978	0.203
Mof_C 	C 	0.1861	0.2275	0.00563	-0.247
Mof_H 	H 	0.1634	0.2331	0.9883	0.114
Mof_N 	N 	0.16981	0.1397	0.91293	-0.294
Mof_N 	N 	0.20284	0.1681	0.96396	-0.161
Mof_C 	C 	0.2041	0.6184	0.4205	-0.001
Mof_H 	H 	0.2118	0.5939	0.4069	-0.001
Mof_C 	C 	0.226	0.6367	0.4503	0.005
Mof_H 	H 	0.2525	0.6291	0.4597	0.017
Mof_C 	C 	0.1695	0.66887	0.43999	0.108
Mof_H 	H 	0.1481	0.6884	0.4425	-0.038
Mof_C 	C 	0.2113	0.6942	0.4978	0.205
Mof_C 	C 	0.1861	0.7275	0.50563	-0.249
Mof_H 	H 	0.1634	0.7331	0.4883	0.115
Mof_N 	N 	0.16981	0.6397	0.41293	-0.294
Mof_N 	N 	0.20284	0.6681	0.46396	-0.161
Mof_C 	C 	0.2041	0.6316	0.8295	-0.001
Mof_H 	H 	0.2118	0.6561	0.8431	-0.001
Mof_C 	C 	0.226	0.6133	0.7997	0.005
Mof_H 	H 	0.2525	0.6209	0.7903	0.017
Mof_C 	C 	0.1695	0.58113	0.81001	0.108
Mof_H 	H 	0.1481	0.5616	0.8075	-0.038
Mof_C 	C 	0.2113	0.5558	0.7522	0.205
Mof_C 	C 	0.1861	0.5225	0.74437	-0.249
Mof_H 	H 	0.1634	0.5169	0.7617	0.115
Mof_N 	N 	0.16981	0.6103	0.83707	-0.294
Mof_N 	N 	0.20284	0.5819	0.78604	-0.161
Mof_C 	C 	0.2041	0.1316	0.3295	-0.001
Mof_H 	H 	0.2118	0.1561	0.3431	-0.001
Mof_C 	C 	0.226	0.1133	0.2997	0.005
Mof_H 	H 	0.2525	0.1209	0.2903	0.017
Mof_C 	C 	0.1695	0.08113	0.31001	0.108
Mof_H 	H 	0.1481	0.0616	0.3075	-0.038
Mof_C 	C 	0.2113	0.0558	0.2522	0.204
Mof_C 	C 	0.1861	0.0225	0.24437	-0.248
Mof_H 	H 	0.1634	0.0169	0.2617	0.114
Mof_N 	N 	0.16981	0.1103	0.33707	-0.294
Mof_N 	N 	0.20284	0.0819	0.28604	-0.161
Mof_C 	C 	0.7041	0.6316	0.3295	-0.001
Mof_H 	H 	0.7118	0.6561	0.3431	-0.001
Mof_C 	C 	0.726	0.6133	0.2997	0.005
Mof_H 	H 	0.7525	0.6209	0.2903	0.017
Mof_C 	C 	0.6695	0.58113	0.31001	0.108
Mof_H 	H 	0.6481	0.5616	0.3075	-0.038
Mof_C 	C 	0.7113	0.5558	0.2522	0.205
Mof_C 	C 	0.6861	0.5225	0.24437	-0.249
Mof_H 	H 	0.6634	0.5169	0.2617	0.115
Mof_N 	N 	0.66981	0.6103	0.33707	-0.294
Mof_N 	N 	0.70284	0.5819	0.28604	-0.161
Mof_C 	C 	0.7041	0.1316	0.8295	-0.001
Mof_H 	H 	0.7118	0.1561	0.8431	-0.001
Mof_C 	C 	0.726	0.1133	0.7997	0.005
Mof_H 	H 	0.7525	0.1209	0.7903	0.017
Mof_C 	C 	0.6695	0.08113	0.81001	0.108
Mof_H 	H 	0.6481	0.0616	0.8075	-0.038
Mof_C 	C 	0.7113	0.0558	0.7522	0.205
Mof_C 	C 	0.6861	0.0225	0.74437	-0.249
Mof_H 	H 	0.6634	0.0169	0.7617	0.115
Mof_N 	N 	0.66981	0.1103	0.83707	-0.294
Mof_N 	N 	0.70284	0.0819	0.78604	-0.161
Mof_C 	C 	0.0459	0.1316	0.9205	-0.001
Mof_H 	H 	0.0382	0.1561	0.9069	-0.001
Mof_C 	C 	0.024	0.1133	0.9503	0.005
Mof_H 	H 	0.9975	0.1209	0.9597	0.017
Mof_C 	C 	0.0805	0.08113	0.93999	0.108
Mof_H 	H 	0.1019	0.0616	0.9425	-0.038
Mof_C 	C 	0.0387	0.0558	0.9978	0.201
Mof_C 	C 	0.0639	0.0225	0.00563	-0.243
Mof_H 	H 	0.0866	0.0169	0.9883	0.113
Mof_N 	N 	0.08019	0.1103	0.91293	-0.294
Mof_N 	N 	0.04716	0.0819	0.96396	-0.161
Mof_C 	C 	0.0459	0.6316	0.4205	-0.001
Mof_H 	H 	0.0382	0.6561	0.4069	-0.001
Mof_C 	C 	0.024	0.6133	0.4503	0.005
Mof_H 	H 	0.9975	0.6209	0.4597	0.017
Mof_C 	C 	0.0805	0.58113	0.43999	0.108
Mof_H 	H 	0.1019	0.5616	0.4425	-0.038
Mof_C 	C 	0.0387	0.5558	0.4978	0.205
Mof_C 	C 	0.0639	0.5225	0.50563	-0.249
Mof_H 	H 	0.0866	0.5169	0.4883	0.115
Mof_N 	N 	0.08019	0.6103	0.41293	-0.294
Mof_N 	N 	0.04716	0.5819	0.46396	-0.161
Mof_C 	C 	0.5459	0.1316	0.4205	-0.001
Mof_H 	H 	0.5382	0.1561	0.4069	-0.001
Mof_C 	C 	0.524	0.1133	0.4503	0.005
Mof_H 	H 	0.4975	0.1209	0.4597	0.017
Mof_C 	C 	0.5805	0.08113	0.43999	0.108
Mof_H 	H 	0.6019	0.0616	0.4425	-0.038
Mof_C 	C 	0.5387	0.0558	0.4978	0.205
Mof_C 	C 	0.5639	0.0225	0.50563	-0.249
Mof_H 	H 	0.5866	0.0169	0.4883	0.115
Mof_N 	N 	0.58019	0.1103	0.41293	-0.294
Mof_N 	N 	0.54716	0.0819	0.46396	-0.161
Mof_C 	C 	0.5459	0.6316	0.9205	-0.001
Mof_H 	H 	0.5382	0.6561	0.9069	-0.001
Mof_C 	C 	0.524	0.6133	0.9503	0.005
Mof_H 	H 	0.4975	0.6209	0.9597	0.017
Mof_C 	C 	0.5805	0.58113	0.93999	0.108
Mof_H 	H 	0.6019	0.5616	0.9425	-0.038
Mof_C 	C 	0.5387	0.5558	0.9978	0.205
Mof_C 	C 	0.5639	0.5225	0.00563	-0.249
Mof_H 	H 	0.5866	0.5169	0.9883	0.115
Mof_N 	N 	0.58019	0.6103	0.91293	-0.294
Mof_N 	N 	0.54716	0.5819	0.96396	-0.161
Mof_C 	C 	0.1184	0.4205	0.7041	-0.001
Mof_H 	H 	0.0939	0.4069	0.7118	-0.001
Mof_C 	C 	0.1367	0.4503	0.726	0.005
Mof_H 	H 	0.1291	0.4597	0.7525	0.017
Mof_C 	C 	0.16887	0.43999	0.6695	0.108
Mof_H 	H 	0.1884	0.4425	0.6481	-0.038
Mof_C 	C 	0.1942	0.4978	0.7113	0.205
Mof_C 	C 	0.2275	0.50563	0.6861	-0.249
Mof_H 	H 	0.2331	0.4883	0.6634	0.115
Mof_N 	N 	0.1397	0.41293	0.66981	-0.294
Mof_N 	N 	0.1681	0.46396	0.70284	-0.161
Mof_C 	C 	0.1184	0.9205	0.2041	-0.001
Mof_H 	H 	0.0939	0.9069	0.2118	-0.001
Mof_C 	C 	0.1367	0.9503	0.226	0.005
Mof_H 	H 	0.1291	0.9597	0.2525	0.017
Mof_C 	C 	0.16887	0.93999	0.1695	0.108
Mof_H 	H 	0.1884	0.9425	0.1481	-0.038
Mof_C 	C 	0.1942	0.9978	0.2113	0.203
Mof_C 	C 	0.2275	0.00563	0.1861	-0.247
Mof_H 	H 	0.2331	0.9883	0.1634	0.114
Mof_N 	N 	0.1397	0.91293	0.16981	-0.294
Mof_N 	N 	0.1681	0.96396	0.20284	-0.161
Mof_C 	C 	0.6184	0.4205	0.2041	-0.001
Mof_H 	H 	0.5939	0.4069	0.2118	-0.001
Mof_C 	C 	0.6367	0.4503	0.226	0.005
Mof_H 	H 	0.6291	0.4597	0.2525	0.017
Mof_C 	C 	0.66887	0.43999	0.1695	0.108
Mof_H 	H 	0.6884	0.4425	0.1481	-0.038
Mof_C 	C 	0.6942	0.4978	0.2113	0.205
Mof_C 	C 	0.7275	0.50563	0.1861	-0.249
Mof_H 	H 	0.7331	0.4883	0.1634	0.115
Mof_N 	N 	0.6397	0.41293	0.16981	-0.294
Mof_N 	N 	0.6681	0.46396	0.20284	-0.161
Mof_C 	C 	0.6184	0.9205	0.7041	-0.001
Mof_H 	H 	0.5939	0.9069	0.7118	-0.001
Mof_C 	C 	0.6367	0.9503	0.726	0.005
Mof_H 	H 	0.6291	0.9597	0.7525	0.017
Mof_C 	C 	0.66887	0.93999	0.6695	0.108
Mof_H 	H 	0.6884	0.9425	0.6481	-0.038
Mof_C 	C 	0.6942	0.9978	0.7113	0.206
Mof_C 	C 	0.7275	0.00563	0.6861	-0.25
Mof_H 	H 	0.7331	0.9883	0.6634	0.115
Mof_N 	N 	0.6397	0.91293	0.66981	-0.294
Mof_N 	N 	0.6681	0.96396	0.70284	-0.161
Mof_C 	C 	0.6184	0.3295	0.5459	-0.001
Mof_H 	H 	0.5939	0.3431	0.5382	-0.001
Mof_C 	C 	0.6367	0.2997	0.524	0.005
Mof_H 	H 	0.6291	0.2903	0.4975	0.017
Mof_C 	C 	0.66887	0.31001	0.5805	0.108
Mof_H 	H 	0.6884	0.3075	0.6019	-0.038
Mof_C 	C 	0.6942	0.2522	0.5387	0.205
Mof_C 	C 	0.7275	0.24437	0.5639	-0.249
Mof_H 	H 	0.7331	0.2617	0.5866	0.115
Mof_N 	N 	0.6397	0.33707	0.58019	-0.294
Mof_N 	N 	0.6681	0.28604	0.54716	-0.161
Mof_C 	C 	0.6184	0.8295	0.0459	-0.001
Mof_H 	H 	0.5939	0.8431	0.0382	-0.001
Mof_C 	C 	0.6367	0.7997	0.024	0.005
Mof_H 	H 	0.6291	0.7903	0.9975	0.018
Mof_C 	C 	0.66887	0.81001	0.0805	0.108
Mof_H 	H 	0.6884	0.8075	0.1019	-0.038
Mof_C 	C 	0.6942	0.7522	0.0387	0.205
Mof_C 	C 	0.7275	0.74437	0.0639	-0.249
Mof_H 	H 	0.7331	0.7617	0.0866	0.115
Mof_N 	N 	0.6397	0.83707	0.08019	-0.294
Mof_N 	N 	0.6681	0.78604	0.04716	-0.161
Mof_C 	C 	0.1184	0.3295	0.0459	-0.001
Mof_H 	H 	0.0939	0.3431	0.0382	-0.001
Mof_C 	C 	0.1367	0.2997	0.024	0.006
Mof_H 	H 	0.1291	0.2903	0.9975	0.017
Mof_C 	C 	0.16887	0.31001	0.0805	0.108
Mof_H 	H 	0.1884	0.3075	0.1019	-0.038
Mof_C 	C 	0.1942	0.2522	0.0387	0.204
Mof_C 	C 	0.2275	0.24437	0.0639	-0.248
Mof_H 	H 	0.2331	0.2617	0.0866	0.114
Mof_N 	N 	0.1397	0.33707	0.08019	-0.294
Mof_N 	N 	0.1681	0.28604	0.04716	-0.161
Mof_C 	C 	0.1184	0.8295	0.5459	-0.001
Mof_H 	H 	0.0939	0.8431	0.5382	-0.001
Mof_C 	C 	0.1367	0.7997	0.524	0.005
Mof_H 	H 	0.1291	0.7903	0.4975	0.017
Mof_C 	C 	0.16887	0.81001	0.5805	0.108
Mof_H 	H 	0.1884	0.8075	0.6019	-0.038
Mof_C 	C 	0.1942	0.7522	0.5387	0.205
Mof_C 	C 	0.2275	0.74437	0.5639	-0.249
Mof_H 	H 	0.2331	0.7617	0.5866	0.115
Mof_N 	N 	0.1397	0.83707	0.58019	-0.294
Mof_N 	N 	0.1681	0.78604	0.54716	-0.161
Mof_C 	C 	0.1316	0.9205	0.0459	-0.001
Mof_H 	H 	0.1561	0.9069	0.0382	-0.001
Mof_C 	C 	0.1133	0.9503	0.024	0.005
Mof_H 	H 	0.1209	0.9597	0.9975	0.017
Mof_C 	C 	0.08113	0.93999	0.0805	0.108
Mof_H 	H 	0.0616	0.9425	0.1019	-0.038
Mof_C 	C 	0.0558	0.9978	0.0387	0.201
Mof_C 	C 	0.0225	0.00563	0.0639	-0.243
Mof_H 	H 	0.0169	0.9883	0.0866	0.113
Mof_N 	N 	0.1103	0.91293	0.08019	-0.294
Mof_N 	N 	0.0819	0.96396	0.04716	-0.161
Mof_C 	C 	0.1316	0.4205	0.5459	-0.001
Mof_H 	H 	0.1561	0.4069	0.5382	-0.001
Mof_C 	C 	0.1133	0.4503	0.524	0.005
Mof_H 	H 	0.1209	0.4597	0.4975	0.017
Mof_C 	C 	0.08113	0.43999	0.5805	0.108
Mof_H 	H 	0.0616	0.4425	0.6019	-0.038
Mof_C 	C 	0.0558	0.4978	0.5387	0.205
Mof_C 	C 	0.0225	0.50563	0.5639	-0.249
Mof_H 	H 	0.0169	0.4883	0.5866	0.115
Mof_N 	N 	0.1103	0.41293	0.58019	-0.294
Mof_N 	N 	0.0819	0.46396	0.54716	-0.161
Mof_C 	C 	0.6316	0.9205	0.5459	-0.001
Mof_H 	H 	0.6561	0.9069	0.5382	-0.001
Mof_C 	C 	0.6133	0.9503	0.524	0.005
Mof_H 	H 	0.6209	0.9597	0.4975	0.017
Mof_C 	C 	0.58113	0.93999	0.5805	0.108
Mof_H 	H 	0.5616	0.9425	0.6019	-0.038
Mof_C 	C 	0.5558	0.9978	0.5387	0.205
Mof_C 	C 	0.5225	0.00563	0.5639	-0.249
Mof_H 	H 	0.5169	0.9883	0.5866	0.115
Mof_N 	N 	0.6103	0.91293	0.58019	-0.294
Mof_N 	N 	0.5819	0.96396	0.54716	-0.161
Mof_C 	C 	0.6316	0.4205	0.0459	-0.001
Mof_H 	H 	0.6561	0.4069	0.0382	-0.001
Mof_C 	C 	0.6133	0.4503	0.024	0.005
Mof_H 	H 	0.6209	0.4597	0.9975	0.017
Mof_C 	C 	0.58113	0.43999	0.0805	0.108
Mof_H 	H 	0.5616	0.4425	0.1019	-0.038
Mof_C 	C 	0.5558	0.4978	0.0387	0.205
Mof_C 	C 	0.5225	0.50563	0.0639	-0.249
Mof_H 	H 	0.5169	0.4883	0.0866	0.115
Mof_N 	N 	0.6103	0.41293	0.08019	-0.294
Mof_N 	N 	0.5819	0.46396	0.04716	-0.161
Mof_C 	C 	0.6316	0.8295	0.2041	-0.001
Mof_H 	H 	0.6561	0.8431	0.2118	-0.001
Mof_C 	C 	0.6133	0.7997	0.226	0.005
Mof_H 	H 	0.6209	0.7903	0.2525	0.017
Mof_C 	C 	0.58113	0.81001	0.1695	0.108
Mof_H 	H 	0.5616	0.8075	0.1481	-0.038
Mof_C 	C 	0.5558	0.7522	0.2113	0.205
Mof_C 	C 	0.5225	0.74437	0.1861	-0.249
Mof_H 	H 	0.5169	0.7617	0.1634	0.115
Mof_N 	N 	0.6103	0.83707	0.16981	-0.294
Mof_N 	N 	0.5819	0.78604	0.20284	-0.161
Mof_C 	C 	0.6316	0.3295	0.7041	-0.001
Mof_H 	H 	0.6561	0.3431	0.7118	-0.001
Mof_C 	C 	0.6133	0.2997	0.726	0.005
Mof_H 	H 	0.6209	0.2903	0.7525	0.017
Mof_C 	C 	0.58113	0.31001	0.6695	0.108
Mof_H 	H 	0.5616	0.3075	0.6481	-0.038
Mof_C 	C 	0.5558	0.2522	0.7113	0.205
Mof_C 	C 	0.5225	0.24437	0.6861	-0.249
Mof_H 	H 	0.5169	0.2617	0.6634	0.115
Mof_N 	N 	0.6103	0.33707	0.66981	-0.294
Mof_N 	N 	0.5819	0.28604	0.70284	-0.161
Mof_C 	C 	0.1316	0.8295	0.7041	-0.001
Mof_H 	H 	0.1561	0.8431	0.7118	-0.001
Mof_C 	C 	0.1133	0.7997	0.726	0.005
Mof_H 	H 	0.1209	0.7903	0.7525	0.017
Mof_C 	C 	0.08113	0.81001	0.6695	0.108
Mof_H 	H 	0.0616	0.8075	0.6481	-0.038
Mof_C 	C 	0.0558	0.7522	0.7113	0.205
Mof_C 	C 	0.0225	0.74437	0.6861	-0.249
Mof_H 	H 	0.0169	0.7617	0.6634	0.115
Mof_N 	N 	0.1103	0.83707	0.66981	-0.294
Mof_N 	N 	0.0819	0.78604	0.70284	-0.161
Mof_C 	C 	0.1316	0.3295	0.2041	-0.001
Mof_H 	H 	0.1561	0.3431	0.2118	-0.001
Mof_C 	C 	0.1133	0.2997	0.226	0.005
Mof_H 	H 	0.1209	0.2903	0.2525	0.017
Mof_C 	C 	0.08113	0.31001	0.1695	0.108
Mof_H 	H 	0.0616	0.3075	0.1481	-0.038
Mof_C 	C 	0.0558	0.2522	0.2113	0.204
Mof_C 	C 	0.0225	0.24437	0.1861	-0.248
Mof_H 	H 	0.0169	0.2617	0.1634	0.114
Mof_N 	N 	0.1103	0.33707	0.16981	-0.294
Mof_N 	N 	0.0819	0.28604	0.20284	-0.161
Mof_Zn	Zn	0.625	0.375	0.125	1.174
Mof_Zn	Zn	0.625	0.875	0.625	1.174
Mof_Zn	Zn	0.625	0.375	0.625	1.174
Mof_Zn	Zn	0.125	0.875	0.125	1.174
Mof_Zn	Zn	0.125	0.875	0.625	1.174
Mof_Zn	Zn	0.125	0.375	0.125	1.174
Mof_Zn	Zn	0.125	0.625	0.375	1.174
Mof_Zn	Zn	0.625	0.625	0.875	1.174
Mof_Zn	Zn	0.625	0.625	0.375	1.174
Mof_Zn	Zn	0.125	0.125	0.875	1.174
Mof_Zn	Zn	0.625	0.125	0.875	1.174
Mof_Zn	Zn	0.375	0.125	0.625	1.174
Mof_Zn	Zn	0.875	0.625	0.625	1.174
Mof_Zn	Zn	0.375	0.625	0.625	1.174
Mof_Zn	Zn	0.375	0.125	0.125	1.174
Mof_Zn	Zn	0.875	0.125	0.125	1.174
Mof_Zn	Zn	0.875	0.625	0.125	1.174
Mof_Zn	Zn	0.375	0.625	0.125	1.174
Mof_Zn	Zn	0.875	0.125	0.625	1.174
Mof_Zn	Zn	0.625	0.125	0.375	1.174
Mof_Zn	Zn	0.125	0.625	0.875	1.174
Mof_Zn	Zn	0.125	0.125	0.375	1.174
Mof_Zn	Zn	0.125	0.375	0.625	1.174
Mof_Zn	Zn	0.625	0.875	0.125	1.174
Mof_C 	C 	0.0795	0.9541	0.8684	-0.001
Mof_H 	H 	0.0931	0.9618	0.8439	-0.001
Mof_C 	C 	0.0497	0.976	0.8867	0.005
Mof_H 	H 	0.0403	0.0025	0.8791	0.017
Mof_C 	C 	0.06001	0.9195	0.91887	0.108
Mof_H 	H 	0.0575	0.8981	0.9384	-0.038
Mof_C 	C 	0.0022	0.9613	0.9442	0.201
Mof_C 	C 	0.99437	0.9361	0.9775	-0.243
Mof_H 	H 	0.0117	0.9134	0.9831	0.113
Mof_N 	N 	0.08707	0.91981	0.8897	-0.294
Mof_N 	N 	0.03604	0.95284	0.9181	-0.161
Mof_C 	C 	0.0795	0.4541	0.3684	-0.001
Mof_H 	H 	0.0931	0.4618	0.3439	-0.001
Mof_C 	C 	0.0497	0.476	0.3867	0.005
Mof_H 	H 	0.0403	0.5025	0.3791	0.017
Mof_C 	C 	0.06001	0.4195	0.41887	0.108
Mof_H 	H 	0.0575	0.3981	0.4384	-0.038
Mof_C 	C 	0.0022	0.4613	0.4442	0.205
Mof_C 	C 	0.99437	0.4361	0.4775	-0.249
Mof_H 	H 	0.0117	0.4134	0.4831	0.115
Mof_N 	N 	0.08707	0.41981	0.3897	-0.294
Mof_N 	N 	0.03604	0.45284	0.4181	-0.161
Mof_C 	C 	0.5795	0.9541	0.3684	-0.001
Mof_H 	H 	0.5931	0.9618	0.3439	-0.001
Mof_C 	C 	0.5497	0.976	0.3867	0.005
Mof_H 	H 	0.5403	0.0025	0.3791	0.017
Mof_C 	C 	0.56001	0.9195	0.41887	0.108
Mof_H 	H 	0.5575	0.8981	0.4384	-0.038
Mof_C 	C 	0.5022	0.9613	0.4442	0.205
Mof_C 	C 	0.49437	0.9361	0.4775	-0.249
Mof_H 	H 	0.5117	0.9134	0.4831	0.115
Mof_N 	N 	0.58707	0.91981	0.3897	-0.294
Mof_N 	N 	0.53604	0.95284	0.4181	-0.161
Mof_C 	C 	0.5795	0.4541	0.8684	-0.001
Mof_H 	H 	0.5931	0.4618	0.8439	-0.001
Mof_C 	C 	0.5497	0.476	0.8867	0.005
Mof_H 	H 	0.5403	0.5025	0.8791	0.017
Mof_C 	C 	0.56001	0.4195	0.91887	0.108
Mof_H 	H 	0.5575	0.3981	0.9384	-0.038
Mof_C 	C 	0.5022	0.4613	0.9442	0.205
Mof_C 	C 	0.49437	0.4361	0.9775	-0.249
Mof_H 	H 	0.5117	0.4134	0.9831	0.115
Mof_N 	N 	0.58707	0.41981	0.8897	-0.294
Mof_N 	N 	0.53604	0.45284	0.9181	-0.161
Mof_C 	C 	0.1705	0.7959	0.3684	-0.001
Mof_H 	H 	0.1569	0.7882	0.3439	-0.001
Mof_C 	C 	0.2003	0.774	0.3867	0.005
Mof_H 	H 	0.2097	0.7475	0.3791	0.017
Mof_C 	C 	0.18999	0.8305	0.41887	0.108
Mof_H 	H 	0.1925	0.8519	0.4384	-0.038
Mof_C 	C 	0.2478	0.7887	0.4442	0.205
Mof_C 	C 	0.25563	0.8139	0.4775	-0.249
Mof_H 	H 	0.2383	0.8366	0.4831	0.115
Mof_N 	N 	0.16293	0.83019	0.3897	-0.294
Mof_N 	N 	0.21396	0.79716	0.4181	-0.161
Mof_C 	C 	0.1705	0.2959	0.8684	-0.001
Mof_H 	H 	0.1569	0.2882	0.8439	-0.001
Mof_C 	C 	0.2003	0.274	0.8867	0.005
Mof_H 	H 	0.2097	0.2475	0.8791	0.017
Mof_C 	C 	0.18999	0.3305	0.91887	0.108
Mof_H 	H 	0.1925	0.3519	0.9384	-0.038
Mof_C 	C 	0.2478	0.2887	0.9442	0.205
Mof_C 	C 	0.25563	0.3139	0.9775	-0.249
Mof_H 	H 	0.2383	0.3366	0.9831	0.115
Mof_N 	N 	0.16293	0.33019	0.8897	-0.294
Mof_N 	N 	0.21396	0.29716	0.9181	-0.161
Mof_C 	C 	0.6705	0.7959	0.8684	-0.001
Mof_H 	H 	0.6569	0.7882	0.8439	-0.001
Mof_C 	C 	0.7003	0.774	0.8867	0.005
Mof_H 	H 	0.7097	0.7475	0.8791	0.017
Mof_C 	C 	0.68999	0.8305	0.91887	0.108
Mof_H 	H 	0.6925	0.8519	0.9384	-0.038
Mof_C 	C 	0.7478	0.7887	0.9442	0.204
Mof_C 	C 	0.75563	0.8139	0.9775	-0.248
Mof_H 	H 	0.7383	0.8366	0.9831	0.114
Mof_N 	N 	0.66293	0.83019	0.8897	-0.294
Mof_N 	N 	0.71396	0.79716	0.9181	-0.161
Mof_C 	C 	0.6705	0.2959	0.3684	-0.001
Mof_H 	H 	0.6569	0.2882	0.3439	-0.001
Mof_C 	C 	0.7003	0.274	0.3867	0.005
Mof_H 	H 	0.7097	0.2475	0.3791	0.017
Mof_C 	C 	0.68999	0.3305	0.41887	0.108
Mof_H 	H 	0.6925	0.3519	0.4384	-0.038
Mof_C 	C 	0.7478	0.2887	0.4442	0.205
Mof_C 	C 	0.75563	0.3139	0.4775	-0.249
Mof_H 	H 	0.7383	0.3366	0.4831	0.115
Mof_N 	N 	0.66293	0.33019	0.3897	-0.294
Mof_N 	N 	0.71396	0.29716	0.4181	-0.161
Mof_C 	C 	0.5795	0.2959	0.8816	-0.001
Mof_H 	H 	0.5931	0.2882	0.9061	-0.001
Mof_C 	C 	0.5497	0.274	0.8633	0.005
Mof_H 	H 	0.5403	0.2475	0.8709	0.017
Mof_C 	C 	0.56001	0.3305	0.83113	0.108
Mof_H 	H 	0.5575	0.3519	0.8116	-0.038
Mof_C 	C 	0.5022	0.2887	0.8058	0.205
Mof_C 	C 	0.49437	0.3139	0.7725	-0.249
Mof_H 	H 	0.5117	0.3366	0.7669	0.115
Mof_N 	N 	0.58707	0.33019	0.8603	-0.294
Mof_N 	N 	0.53604	0.29716	0.8319	-0.161
Mof_C 	C 	0.5795	0.7959	0.3816	-0.001
Mof_H 	H 	0.5931	0.7882	0.4061	-0.001
Mof_C 	C 	0.5497	0.774	0.3633	0.005
Mof_H 	H 	0.5403	0.7475	0.3709	0.017
Mof_C 	C 	0.56001	0.8305	0.33113	0.108
Mof_H 	H 	0.5575	0.8519	0.3116	-0.038
Mof_C 	C 	0.5022	0.7887	0.3058	0.205
Mof_C 	C 	0.49437	0.8139	0.2725	-0.249
Mof_H 	H 	0.5117	0.8366	0.2669	0.115
Mof_N 	N 	0.58707	0.83019	0.3603	-0.294
Mof_N 	N 	0.53604	0.79716	0.3319	-0.161
Mof_C 	C 	0.0795	0.2959	0.3816	-0.001
Mof_H 	H 	0.0931	0.2882	0.4061	-0.001
Mof_C 	C 	0.0497	0.274	0.3633	0.005
Mof_H 	H 	0.0403	0.2475	0.3709	0.017
Mof_C 	C 	0.06001	0.3305	0.33113	0.108
Mof_H 	H 	0.0575	0.3519	0.3116	-0.038
Mof_C 	C 	0.0022	0.2887	0.3058	0.206
Mof_C 	C 	0.99437	0.3139	0.2725	-0.25
Mof_H 	H 	0.0117	0.3366	0.2669	0.115
Mof_N 	N 	0.08707	0.33019	0.3603	-0.294
Mof_N 	N 	0.03604	0.29716	0.3319	-0.161
Mof_C 	C 	0.0795	0.7959	0.8816	-0.001
Mof_H 	H 	0.0931	0.7882	0.9061	-0.001
Mof_C 	C 	0.0497	0.774	0.8633	0.005
Mof_H 	H 	0.0403	0.7475	0.8709	0.017
Mof_C 	C 	0.06001	0.8305	0.83113	0.108
Mof_H 	H 	0.0575	0.8519	0.8116	-0.038
Mof_C 	C 	0.0022	0.7887	0.8058	0.203
Mof_C 	C 	0.99437	0.8139	0.7725	-0.247
Mof_H 	H 	0.0117	0.8366	0.7669	0.114
Mof_N 	N 	0.08707	0.83019	0.8603	-0.294
Mof_N 	N 	0.03604	0.79716	0.8319	-0.161
Mof_C 	C 	0.6705	0.4541	0.3816	-0.001
Mof_H 	H 	0.6569	0.4618	0.4061	-0.001
Mof_C 	C 	0.7003	0.476	0.3633	0.005
Mof_H 	H 	0.7097	0.5025	0.3709	0.017
Mof_C 	C 	0.68999	0.4195	0.33113	0.108
Mof_H 	H 	0.6925	0.3981	0.3116	-0.038
Mof_C 	C 	0.7478	0.4613	0.3058	0.205
Mof_C 	C 	0.75563	0.4361	0.2725	-0.249
Mof_H 	H 	0.7383	0.4134	0.2669	0.115
Mof_N 	N 	0.66293	0.41981	0.3603	-0.294
Mof_N 	N 	0.71396	0.45284	0.3319	-0.161
Mof_C 	C 	0.6705	0.9541	0.8816	-0.001
Mof_H 	H 	0.6569	0.9618	0.9061	-0.001
Mof_C 	C 	0.7003	0.976	0.8633	0.006
Mof_H 	H 	0.7097	0.0025	0.8709	0.017
Mof_C 	C 	0.68999	0.9195	0.83113	0.108
Mof_H 	H 	0.6925	0.8981	0.8116	-0.038
Mof_C 	C 	0.7478	0.9613	0.8058	0.204
Mof_C 	C 	0.75563	0.9361	0.7725	-0.248
Mof_H 	H 	0.7383	0.9134	0.7669	0.114
Mof_N 	N 	0.66293	0.91981	0.8603	-0.294
Mof_N 	N 	0.71396	0.95284	0.8319	-0.161
Mof_C 	C 	0.1705	0.4541	0.8816	-0.001
Mof_H 	H 	0.1569	0.4618	0.9061	-0.001
Mof_C 	C 	0.2003	0.476	0.8633	0.005
Mof_H 	H 	0.2097	0.5025	0.8709	0.017
Mof_C 	C 	0.18999	0.4195	0.83113	0.108
Mof_H 	H 	0.1925	0.3981	0.8116	-0.038
Mof_C 	C 	0.2478	0.4613	0.8058	0.205
Mof_C 	C 	0.25563	0.4361	0.7725	-0.249
Mof_H 	H 	0.2383	0.4134	0.7669	0.115
Mof_N 	N 	0.16293	0.41981	0.8603	-0.294
Mof_N 	N 	0.21396	0.45284	0.8319	-0.161
Mof_C 	C 	0.1705	0.9541	0.3816	-0.001
Mof_H 	H 	0.1569	0.9618	0.4061	-0.001
Mof_C 	C 	0.2003	0.976	0.3633	0.005
Mof_H 	H 	0.2097	0.0025	0.3709	0.018
Mof_C 	C 	0.18999	0.9195	0.33113	0.108
Mof_H 	H 	0.1925	0.8981	0.3116	-0.038
Mof_C 	C 	0.2478	0.9613	0.3058	0.205
Mof_C 	C 	0.25563	0.9361	0.2725	-0.249
Mof_H 	H 	0.2383	0.9134	0.2669	0.115
Mof_N 	N 	0.16293	0.91981	0.3603	-0.294
Mof_N 	N 	0.21396	0.95284	0.3319	-0.161
Mof_C 	C 	0.4541	0.3816	0.6705	-0.001
Mof_H 	H 	0.4618	0.4061	0.6569	-0.001
Mof_C 	C 	0.476	0.3633	0.7003	0.005
Mof_H 	H 	0.5025	0.3709	0.7097	0.017
Mof_C 	C 	0.4195	0.33113	0.68999	0.108
Mof_H 	H 	0.3981	0.3116	0.6925	-0.038
Mof_C 	C 	0.4613	0.3058	0.7478	0.205
Mof_C 	C 	0.4361	0.2725	0.75563	-0.249
Mof_H 	H 	0.4134	0.2669	0.7383	0.115
Mof_N 	N 	0.41981	0.3603	0.66293	-0.294
Mof_N 	N 	0.45284	0.3319	0.71396	-0.161
Mof_C 	C 	0.4541	0.8816	0.1705	-0.001
Mof_H 	H 	0.4618	0.9061	0.1569	-0.001
Mof_C 	C 	0.476	0.8633	0.2003	0.005
Mof_H 	H 	0.5025	0.8709	0.2097	0.017
Mof_C 	C 	0.4195	0.83113	0.18999	0.108
Mof_H 	H 	0.3981	0.8116	0.1925	-0.038
Mof_C 	C 	0.4613	0.8058	0.2478	0.205
Mof_C 	C 	0.4361	0.7725	0.25563	-0.249
Mof_H 	H 	0.4134	0.7669	0.2383	0.115
Mof_N 	N 	0.41981	0.8603	0.16293	-0.294
Mof_N 	N 	0.45284	0.8319	0.21396	-0.161
Mof_C 	C 	0.9541	0.3816	0.1705	-0.001
Mof_H 	H 	0.9618	0.4061	0.1569	-0.001
Mof_C 	C 	0.976	0.3633	0.2003	0.005
Mof_H 	H 	0.0025	0.3709	0.2097	0.018
Mof_C 	C 	0.9195	0.33113	0.18999	0.108
Mof_H 	H 	0.8981	0.3116	0.1925	-0.038
Mof_C 	C 	0.9613	0.3058	0.2478	0.205
Mof_C 	C 	0.9361	0.2725	0.25563	-0.249
Mof_H 	H 	0.9134	0.2669	0.2383	0.115
Mof_N 	N 	0.91981	0.3603	0.16293	-0.294
Mof_N 	N 	0.95284	0.3319	0.21396	-0.161
Mof_C 	C 	0.9541	0.8816	0.6705	-0.001
Mof_H 	H 	0.9618	0.9061	0.6569	-0.001
Mof_C 	C 	0.976	0.8633	0.7003	0.006
Mof_H 	H 	0.0025	0.8709	0.7097	0.017
Mof_C 	C 	0.9195	0.83113	0.68999	0.108
Mof_H 	H 	0.8981	0.8116	0.6925	-0.038
Mof_C 	C 	0.9613	0.8058	0.7478	0.204
Mof_C 	C 	0.9361	0.7725	0.75563	-0.248
Mof_H 	H 	0.9134	0.7669	0.7383	0.114
Mof_N 	N 	0.91981	0.8603	0.66293	-0.294
Mof_N 	N 	0.95284	0.8319	0.71396	-0.161
Mof_C 	C 	0.2959	0.8816	0.5795	-0.001
Mof_H 	H 	0.2882	0.9061	0.5931	-0.001
Mof_C 	C 	0.274	0.8633	0.5497	0.005
Mof_H 	H 	0.2475	0.8709	0.5403	0.017
Mof_C 	C 	0.3305	0.83113	0.56001	0.108
Mof_H 	H 	0.3519	0.8116	0.5575	-0.038
Mof_C 	C 	0.2887	0.8058	0.5022	0.205
Mof_C 	C 	0.3139	0.7725	0.49437	-0.249
Mof_H 	H 	0.3366	0.7669	0.5117	0.115
Mof_N 	N 	0.33019	0.8603	0.58707	-0.294
Mof_N 	N 	0.29716	0.8319	0.53604	-0.161
Mof_C 	C 	0.2959	0.3816	0.0795	-0.001
Mof_H 	H 	0.2882	0.4061	0.0931	-0.001
Mof_C 	C 	0.274	0.3633	0.0497	0.005
Mof_H 	H 	0.2475	0.3709	0.0403	0.017
Mof_C 	C 	0.3305	0.33113	0.06001	0.108
Mof_H 	H 	0.3519	0.3116	0.0575	-0.038
Mof_C 	C 	0.2887	0.3058	0.0022	0.206
Mof_C 	C 	0.3139	0.2725	0.99437	-0.25
Mof_H 	H 	0.3366	0.2669	0.0117	0.115
Mof_N 	N 	0.33019	0.3603	0.08707	-0.294
Mof_N 	N 	0.29716	0.3319	0.03604	-0.161
Mof_C 	C 	0.7959	0.8816	0.0795	-0.001
Mof_H 	H 	0.7882	0.9061	0.0931	-0.001
Mof_C 	C 	0.774	0.8633	0.0497	0.005
Mof_H 	H 	0.7475	0.8709	0.0403	0.017
Mof_C 	C 	0.8305	0.83113	0.06001	0.108
Mof_H 	H 	0.8519	0.8116	0.0575	-0.038
Mof_C 	C 	0.7887	0.8058	0.0022	0.203
Mof_C 	C 	0.8139	0.7725	0.99437	-0.247
Mof_H 	H 	0.8366	0.7669	0.0117	0.114
Mof_N 	N 	0.83019	0.8603	0.08707	-0.294
Mof_N 	N 	0.79716	0.8319	0.03604	-0.161
Mof_C 	C 	0.7959	0.3816	0.5795	-0.001
Mof_H 	H 	0.7882	0.4061	0.5931	-0.001
Mof_C 	C 	0.774	0.3633	0.5497	0.005
Mof_H 	H 	0.7475	0.3709	0.5403	0.017
Mof_C 	C 	0.8305	0.33113	0.56001	0.108
Mof_H 	H 	0.8519	0.3116	0.5575	-0.038
Mof_C 	C 	0.7887	0.3058	0.5022	0.205
Mof_C 	C 	0.8139	0.2725	0.49437	-0.249
Mof_H 	H 	0.8366	0.2669	0.5117	0.115
Mof_N 	N 	0.83019	0.3603	0.58707	-0.294
Mof_N 	N 	0.79716	0.3319	0.53604	-0.161
Mof_C 	C 	0.7959	0.3684	0.1705	-0.001
Mof_H 	H 	0.7882	0.3439	0.1569	-0.001
Mof_C 	C 	0.774	0.3867	0.2003	0.005
Mof_H 	H 	0.7475	0.3791	0.2097	0.017
Mof_C 	C 	0.8305	0.41887	0.18999	0.108
Mof_H 	H 	0.8519	0.4384	0.1925	-0.038
Mof_C 	C 	0.7887	0.4442	0.2478	0.205
Mof_C 	C 	0.8139	0.4775	0.25563	-0.249
Mof_H 	H 	0.8366	0.4831	0.2383	0.115
Mof_N 	N 	0.83019	0.3897	0.16293	-0.294
Mof_N 	N 	0.79716	0.4181	0.21396	-0.161
Mof_C 	C 	0.7959	0.8684	0.6705	-0.001
Mof_H 	H 	0.7882	0.8439	0.6569	-0.001
Mof_C 	C 	0.774	0.8867	0.7003	0.005
Mof_H 	H 	0.7475	0.8791	0.7097	0.017
Mof_C 	C 	0.8305	0.91887	0.68999	0.108
Mof_H 	H 	0.8519	0.9384	0.6925	-0.038
Mof_C 	C 	0.7887	0.9442	0.7478	0.204
Mof_C 	C 	0.8139	0.9775	0.75563	-0.248
Mof_H 	H 	0.8366	0.9831	0.7383	0.114
Mof_N 	N 	0.83019	0.8897	0.66293	-0.294
Mof_N 	N 	0.79716	0.9181	0.71396	-0.161
Mof_C 	C 	0.2959	0.3684	0.6705	-0.001
Mof_H 	H 	0.2882	0.3439	0.6569	-0.001
Mof_C 	C 	0.274	0.3867	0.7003	0.005
Mof_H 	H 	0.2475	0.3791	0.7097	0.017
Mof_C 	C 	0.3305	0.41887	0.68999	0.108
Mof_H 	H 	0.3519	0.4384	0.6925	-0.038
Mof_C 	C 	0.2887	0.4442	0.7478	0.205
Mof_C 	C 	0.3139	0.4775	0.75563	-0.249
Mof_H 	H 	0.3366	0.4831	0.7383	0.115
Mof_N 	N 	0.33019	0.3897	0.66293	-0.294
Mof_N 	N 	0.29716	0.4181	0.71396	-0.161
Mof_C 	C 	0.2959	0.8684	0.1705	-0.001
Mof_H 	H 	0.2882	0.8439	0.1569	-0.001
Mof_C 	C 	0.274	0.8867	0.2003	0.005
Mof_H 	H 	0.2475	0.8791	0.2097	0.017
Mof_C 	C 	0.3305	0.91887	0.18999	0.108
Mof_H 	H 	0.3519	0.9384	0.1925	-0.038
Mof_C 	C 	0.2887	0.9442	0.2478	0.205
Mof_C 	C 	0.3139	0.9775	0.25563	-0.249
Mof_H 	H 	0.3366	0.9831	0.2383	0.115
Mof_N 	N 	0.33019	0.8897	0.16293	-0.294
Mof_N 	N 	0.29716	0.9181	0.21396	-0.161
Mof_C 	C 	0.9541	0.8684	0.0795	-0.001
Mof_H 	H 	0.9618	0.8439	0.0931	-0.001
Mof_C 	C 	0.976	0.8867	0.0497	0.005
Mof_H 	H 	0.0025	0.8791	0.0403	0.017
Mof_C 	C 	0.9195	0.91887	0.06001	0.108
Mof_H 	H 	0.8981	0.9384	0.0575	-0.038
Mof_C 	C 	0.9613	0.9442	0.0022	0.201
Mof_C 	C 	0.9361	0.9775	0.99437	-0.243
Mof_H 	H 	0.9134	0.9831	0.0117	0.113
Mof_N 	N 	0.91981	0.8897	0.08707	-0.294
Mof_N 	N 	0.95284	0.9181	0.03604	-0.161
Mof_C 	C 	0.9541	0.3684	0.5795	-0.001
Mof_H 	H 	0.9618	0.3439	0.5931	-0.001
Mof_C 	C 	0.976	0.3867	0.5497	0.005
Mof_H 	H 	0.0025	0.3791	0.5403	0.017
Mof_C 	C 	0.9195	0.41887	0.56001	0.108
Mof_H 	H 	0.8981	0.4384	0.5575	-0.038
Mof_C 	C 	0.9613	0.4442	0.5022	0.205
Mof_C 	C 	0.9361	0.4775	0.49437	-0.249
Mof_H 	H 	0.9134	0.4831	0.5117	0.115
Mof_N 	N 	0.91981	0.3897	0.58707	-0.294
Mof_N 	N 	0.95284	0.4181	0.53604	-0.161
Mof_C 	C 	0.4541	0.8684	0.5795	-0.001
Mof_H 	H 	0.4618	0.8439	0.5931	-0.001
Mof_C 	C 	0.476	0.8867	0.5497	0.005
Mof_H 	H 	0.5025	0.8791	0.5403	0.017
Mof_C 	C 	0.4195	0.91887	0.56001	0.108
Mof_H 	H 	0.3981	0.9384	0.5575	-0.038
Mof_C 	C 	0.4613	0.9442	0.5022	0.205
Mof_C 	C 	0.4361	0.9775	0.49437	-0.249
Mof_H 	H 	0.4134	0.9831	0.5117	0.115
Mof_N 	N 	0.41981	0.8897	0.58707	-0.294
Mof_N 	N 	0.45284	0.9181	0.53604	-0.161
Mof_C 	C 	0.4541	0.3684	0.0795	-0.001
Mof_H 	H 	0.4618	0.3439	0.0931	-0.001
Mof_C 	C 	0.476	0.3867	0.0497	0.005
Mof_H 	H 	0.5025	0.3791	0.0403	0.017
Mof_C 	C 	0.4195	0.41887	0.06001	0.108
Mof_H 	H 	0.3981	0.4384	0.0575	-0.038
Mof_C 	C 	0.4613	0.4442	0.0022	0.205
Mof_C 	C 	0.4361	0.4775	0.99437	-0.249
Mof_H 	H 	0.4134	0.4831	0.0117	0.115
Mof_N 	N 	0.41981	0.3897	0.08707	-0.294
Mof_N 	N 	0.45284	0.4181	0.03604	-0.161
Mof_C 	C 	0.8816	0.5795	0.2959	-0.001
Mof_H 	H 	0.9061	0.5931	0.2882	-0.001
Mof_C 	C 	0.8633	0.5497	0.274	0.005
Mof_H 	H 	0.8709	0.5403	0.2475	0.017
Mof_C 	C 	0.83113	0.56001	0.3305	0.108
Mof_H 	H 	0.8116	0.5575	0.3519	-0.038
Mof_C 	C 	0.8058	0.5022	0.2887	0.205
Mof_C 	C 	0.7725	0.49437	0.3139	-0.249
Mof_H 	H 	0.7669	0.5117	0.3366	0.115
Mof_N 	N 	0.8603	0.58707	0.33019	-0.294
Mof_N 	N 	0.8319	0.53604	0.29716	-0.161
Mof_C 	C 	0.8816	0.0795	0.7959	-0.001
Mof_H 	H 	0.9061	0.0931	0.7882	-0.001
Mof_C 	C 	0.8633	0.0497	0.774	0.005
Mof_H 	H 	0.8709	0.0403	0.7475	0.017
Mof_C 	C 	0.83113	0.06001	0.8305	0.108
Mof_H 	H 	0.8116	0.0575	0.8519	-0.038
Mof_C 	C 	0.8058	0.0022	0.7887	0.203
Mof_C 	C 	0.7725	0.99437	0.8139	-0.247
Mof_H 	H 	0.7669	0.0117	0.8366	0.114
Mof_N 	N 	0.8603	0.08707	0.83019	-0.294
Mof_N 	N 	0.8319	0.03604	0.79716	-0.161
Mof_C 	C 	0.3816	0.5795	0.7959	-0.001
Mof_H 	H 	0.4061	0.5931	0.7882	-0.001
Mof_C 	C 	0.3633	0.5497	0.774	0.005
Mof_H 	H 	0.3709	0.5403	0.7475	0.017
Mof_C 	C 	0.33113	0.56001	0.8305	0.108
Mof_H 	H 	0.3116	0.5575	0.8519	-0.038
Mof_C 	C 	0.3058	0.5022	0.7887	0.205
Mof_C 	C 	0.2725	0.49437	0.8139	-0.249
Mof_H 	H 	0.2669	0.5117	0.8366	0.115
Mof_N 	N 	0.3603	0.58707	0.83019	-0.294
Mof_N 	N 	0.3319	0.53604	0.79716	-0.161
Mof_C 	C 	0.3816	0.0795	0.2959	-0.001
Mof_H 	H 	0.4061	0.0931	0.2882	-0.001
Mof_C 	C 	0.3633	0.0497	0.274	0.005
Mof_H 	H 	0.3709	0.0403	0.2475	0.017
Mof_C 	C 	0.33113	0.06001	0.3305	0.108
Mof_H 	H 	0.3116	0.0575	0.3519	-0.038
Mof_C 	C 	0.3058	0.0022	0.2887	0.206
Mof_C 	C 	0.2725	0.99437	0.3139	-0.25
Mof_H 	H 	0.2669	0.0117	0.3366	0.115
Mof_N 	N 	0.3603	0.08707	0.33019	-0.294
Mof_N 	N 	0.3319	0.03604	0.29716	-0.161
Mof_C 	C 	0.3816	0.6705	0.4541	-0.001
Mof_H 	H 	0.4061	0.6569	0.4618	-0.001
Mof_C 	C 	0.3633	0.7003	0.476	0.005
Mof_H 	H 	0.3709	0.7097	0.5025	0.017
Mof_C 	C 	0.33113	0.68999	0.4195	0.108
Mof_H 	H 	0.3116	0.6925	0.3981	-0.038
Mof_C 	C 	0.3058	0.7478	0.4613	0.205
Mof_C 	C 	0.2725	0.75563	0.4361	-0.249
Mof_H 	H 	0.2669	0.7383	0.4134	0.115
Mof_N 	N 	0.3603	0.66293	0.41981	-0.294
Mof_N 	N 	0.3319	0.71396	0.45284	-0.161
Mof_C 	C 	0.3816	0.1705	0.9541	-0.001
Mof_H 	H 	0.4061	0.1569	0.9618	-0.001
Mof_C 	C 	0.3633	0.2003	0.976	0.005
Mof_H 	H 	0.3709	0.2097	0.0025	0.018
Mof_C 	C 	0.33113	0.18999	0.9195	0.108
Mof_H 	H 	0.3116	0.1925	0.8981	-0.038
Mof_C 	C 	0.3058	0.2478	0.9613	0.205
Mof_C 	C 	0.2725	0.25563	0.9361	-0.249
Mof_H 	H 	0.2669	0.2383	0.9134	0.115
Mof_N 	N 	0.3603	0.16293	0.91981	-0.294
Mof_N 	N 	0.3319	0.21396	0.95284	-0.161
Mof_C 	C 	0.8816	0.6705	0.9541	-0.001
Mof_H 	H 	0.9061	0.6569	0.9618	-0.001
Mof_C 	C 	0.8633	0.7003	0.976	0.006
Mof_H 	H 	0.8709	0.7097	0.0025	0.017
Mof_C 	C 	0.83113	0.68999	0.9195	0.108
Mof_H 	H 	0.8116	0.6925	0.8981	-0.038
Mof_C 	C 	0.8058	0.7478	0.9613	0.204
Mof_C 	C 	0.7725	0.75563	0.9361	-0.248
Mof_H 	H 	0.7669	0.7383	0.9134	0.114
Mof_N 	N 	0.8603	0.66293	0.91981	-0.294
Mof_N 	N 	0.8319	0.71396	0.95284	-0.161
Mof_C 	C 	0.8816	0.1705	0.4541	-0.001
Mof_H 	H 	0.9061	0.1569	0.4618	-0.001
Mof_C 	C 	0.8633	0.2003	0.476	0.005
Mof_H 	H 	0.8709	0.2097	0.5025	0.017
Mof_C 	C 	0.83113	0.18999	0.4195	0.108
Mof_H 	H 	0.8116	0.1925	0.3981	-0.038
Mof_C 	C 	0.8058	0.2478	0.4613	0.205
Mof_C 	C 	0.7725	0.25563	0.4361	-0.249
Mof_H 	H 	0.7669	0.2383	0.4134	0.115
Mof_N 	N 	0.8603	0.16293	0.41981	-0.294
Mof_N 	N 	0.8319	0.21396	0.45284	-0.161
Mof_C 	C 	0.8684	0.0795	0.9541	-0.001
Mof_H 	H 	0.8439	0.0931	0.9618	-0.001
Mof_C 	C 	0.8867	0.0497	0.976	0.005
Mof_H 	H 	0.8791	0.0403	0.0025	0.017
Mof_C 	C 	0.91887	0.06001	0.9195	0.108
Mof_H 	H 	0.9384	0.0575	0.8981	-0.038
Mof_C 	C 	0.9442	0.0022	0.9613	0.201
Mof_C 	C 	0.9775	0.99437	0.9361	-0.243
Mof_H 	H 	0.9831	0.0117	0.9134	0.113
Mof_N 	N 	0.8897	0.08707	0.91981	-0.294
Mof_N 	N 	0.9181	0.03604	0.95284	-0.161
Mof_C 	C 	0.8684	0.5795	0.4541	-0.001
Mof_H 	H 	0.8439	0.5931	0.4618	-0.001
Mof_C 	C 	0.8867	0.5497	0.476	0.005
Mof_H 	H 	0.8791	0.5403	0.5025	0.017
Mof_C 	C 	0.91887	0.56001	0.4195	0.108
Mof_H 	H 	0.9384	0.5575	0.3981	-0.038
Mof_C 	C 	0.9442	0.5022	0.4613	0.205
Mof_C 	C 	0.9775	0.49437	0.4361	-0.249
Mof_H 	H 	0.9831	0.5117	0.4134	0.115
Mof_N 	N 	0.8897	0.58707	0.41981	-0.294
Mof_N 	N 	0.9181	0.53604	0.45284	-0.161
Mof_C 	C 	0.3684	0.0795	0.4541	-0.001
Mof_H 	H 	0.3439	0.0931	0.4618	-0.001
Mof_C 	C 	0.3867	0.0497	0.476	0.005
Mof_H 	H 	0.3791	0.0403	0.5025	0.017
Mof_C 	C 	0.41887	0.06001	0.4195	0.108
Mof_H 	H 	0.4384	0.0575	0.3981	-0.038
Mof_C 	C 	0.4442	0.0022	0.4613	0.205
Mof_C 	C 	0.4775	0.99437	0.4361	-0.249
Mof_H 	H 	0.4831	0.0117	0.4134	0.115
Mof_N 	N 	0.3897	0.08707	0.41981	-0.294
Mof_N 	N 	0.4181	0.03604	0.45284	-0.161
Mof_C 	C 	0.3684	0.5795	0.9541	-0.001
Mof_H 	H 	0.3439	0.5931	0.9618	-0.001
Mof_C 	C 	0.3867	0.5497	0.976	0.005
Mof_H 	H 	0.3791	0.5403	0.0025	0.017
Mof_C 	C 	0.41887	0.56001	0.9195	0.108
Mof_H 	H 	0.4384	0.5575	0.8981	-0.038
Mof_C 	C 	0.4442	0.5022	0.9613	0.205
Mof_C 	C 	0.4775	0.49437	0.9361	-0.249
Mof_H 	H 	0.4831	0.5117	0.9134	0.115
Mof_N 	N 	0.3897	0.58707	0.91981	-0.294
Mof_N 	N 	0.4181	0.53604	0.95284	-0.161
Mof_C 	C 	0.3684	0.1705	0.7959	-0.001
Mof_H 	H 	0.3439	0.1569	0.7882	-0.001
Mof_C 	C 	0.3867	0.2003	0.774	0.005
Mof_H 	H 	0.3791	0.2097	0.7475	0.017
Mof_C 	C 	0.41887	0.18999	0.8305	0.108
Mof_H 	H 	0.4384	0.1925	0.8519	-0.038
Mof_C 	C 	0.4442	0.2478	0.7887	0.205
Mof_C 	C 	0.4775	0.25563	0.8139	-0.249
Mof_H 	H 	0.4831	0.2383	0.8366	0.115
Mof_N 	N 	0.3897	0.16293	0.83019	-0.294
Mof_N 	N 	0.4181	0.21396	0.79716	-0.161
Mof_C 	C 	0.3684	0.6705	0.2959	-0.001
Mof_H 	H 	0.3439	0.6569	0.2882	-0.001
Mof_C 	C 	0.3867	0.7003	0.274	0.005
Mof_H 	H 	0.3791	0.7097	0.2475	0.017
Mof_C 	C 	0.41887	0.68999	0.3305	0.108
Mof_H 	H 	0.4384	0.6925	0.3519	-0.038
Mof_C 	C 	0.4442	0.7478	0.2887	0.205
Mof_C 	C 	0.4775	0.75563	0.3139	-0.249
Mof_H 	H 	0.4831	0.7383	0.3366	0.115
Mof_N 	N 	0.3897	0.66293	0.33019	-0.294
Mof_N 	N 	0.4181	0.71396	0.29716	-0.161
Mof_C 	C 	0.8684	0.1705	0.2959	-0.001
Mof_H 	H 	0.8439	0.1569	0.2882	-0.001
Mof_C 	C 	0.8867	0.2003	0.274	0.005
Mof_H 	H 	0.8791	0.2097	0.2475	0.017
Mof_C 	C 	0.91887	0.18999	0.3305	0.108
Mof_H 	H 	0.9384	0.1925	0.3519	-0.038
Mof_C 	C 	0.9442	0.2478	0.2887	0.205
Mof_C 	C 	0.9775	0.25563	0.3139	-0.249
Mof_H 	H 	0.9831	0.2383	0.3366	0.115
Mof_N 	N 	0.8897	0.16293	0.33019	-0.294
Mof_N 	N 	0.9181	0.21396	0.29716	-0.161
Mof_C 	C 	0.8684	0.6705	0.7959	-0.001
Mof_H 	H 	0.8439	0.6569	0.7882	-0.001
Mof_C 	C 	0.8867	0.7003	0.774	0.005
Mof_H 	H 	0.8791	0.7097	0.7475	0.017
Mof_C 	C 	0.91887	0.68999	0.8305	0.108
Mof_H 	H 	0.9384	0.6925	0.8519	-0.038
Mof_C 	C 	0.9442	0.7478	0.7887	0.204
Mof_C 	C 	0.9775	0.75563	0.8139	-0.248
Mof_H 	H 	0.9831	0.7383	0.8366	0.114
Mof_N 	N 	0.8897	0.66293	0.83019	-0.294
Mof_N 	N 	0.9181	0.71396	0.79716	-0.161
Mof_C 	C 	0.2959	0.6705	0.8684	-0.001
Mof_H 	H 	0.2882	0.6569	0.8439	-0.001
Mof_C 	C 	0.274	0.7003	0.8867	0.005
Mof_H 	H 	0.2475	0.7097	0.8791	0.017
Mof_C 	C 	0.3305	0.68999	0.91887	0.108
Mof_H 	H 	0.3519	0.6925	0.9384	-0.038
Mof_C 	C 	0.2887	0.7478	0.9442	0.205
Mof_C 	C 	0.3139	0.75563	0.9775	-0.249
Mof_H 	H 	0.3366	0.7383	0.9831	0.115
Mof_N 	N 	0.33019	0.66293	0.8897	-0.294
Mof_N 	N 	0.29716	0.71396	0.9181	-0.161
Mof_C 	C 	0.2959	0.1705	0.3684	-0.001
Mof_H 	H 	0.2882	0.1569	0.3439	-0.001
Mof_C 	C 	0.274	0.2003	0.3867	0.005
Mof_H 	H 	0.2475	0.2097	0.3791	0.017
Mof_C 	C 	0.3305	0.18999	0.41887	0.108
Mof_H 	H 	0.3519	0.1925	0.4384	-0.038
Mof_C 	C 	0.2887	0.2478	0.4442	0.205
Mof_C 	C 	0.3139	0.25563	0.4775	-0.249
Mof_H 	H 	0.3366	0.2383	0.4831	0.115
Mof_N 	N 	0.33019	0.16293	0.3897	-0.294
Mof_N 	N 	0.29716	0.21396	0.4181	-0.161
Mof_C 	C 	0.7959	0.6705	0.3684	-0.001
Mof_H 	H 	0.7882	0.6569	0.3439	-0.001
Mof_C 	C 	0.774	0.7003	0.3867	0.005
Mof_H 	H 	0.7475	0.7097	0.3791	0.017
Mof_C 	C 	0.8305	0.68999	0.41887	0.108
Mof_H 	H 	0.8519	0.6925	0.4384	-0.038
Mof_C 	C 	0.7887	0.7478	0.4442	0.205
Mof_C 	C 	0.8139	0.75563	0.4775	-0.249
Mof_H 	H 	0.8366	0.7383	0.4831	0.115
Mof_N 	N 	0.83019	0.66293	0.3897	-0.294
Mof_N 	N 	0.79716	0.71396	0.4181	-0.161
Mof_C 	C 	0.7959	0.1705	0.8684	-0.001
Mof_H 	H 	0.7882	0.1569	0.8439	-0.001
Mof_C 	C 	0.774	0.2003	0.8867	0.005
Mof_H 	H 	0.7475	0.2097	0.8791	0.017
Mof_C 	C 	0.8305	0.18999	0.91887	0.108
Mof_H 	H 	0.8519	0.1925	0.9384	-0.038
Mof_C 	C 	0.7887	0.2478	0.9442	0.205
Mof_C 	C 	0.8139	0.25563	0.9775	-0.249
Mof_H 	H 	0.8366	0.2383	0.9831	0.115
Mof_N 	N 	0.83019	0.16293	0.8897	-0.294
Mof_N 	N 	0.79716	0.21396	0.9181	-0.161
Mof_C 	C 	0.4541	0.5795	0.3684	-0.001
Mof_H 	H 	0.4618	0.5931	0.3439	-0.001
Mof_C 	C 	0.476	0.5497	0.3867	0.005
Mof_H 	H 	0.5025	0.5403	0.3791	0.017
Mof_C 	C 	0.4195	0.56001	0.41887	0.108
Mof_H 	H 	0.3981	0.5575	0.4384	-0.038
Mof_C 	C 	0.4613	0.5022	0.4442	0.205
Mof_C 	C 	0.4361	0.49437	0.4775	-0.249
Mof_H 	H 	0.4134	0.5117	0.4831	0.115
Mof_N 	N 	0.41981	0.58707	0.3897	-0.294
Mof_N 	N 	0.45284	0.53604	0.4181	-0.161
Mof_C 	C 	0.4541	0.0795	0.8684	-0.001
Mof_H 	H 	0.4618	0.0931	0.8439	-0.001
Mof_C 	C 	0.476	0.0497	0.8867	0.005
Mof_H 	H 	0.5025	0.0403	0.8791	0.017
Mof_C 	C 	0.4195	0.06001	0.91887	0.108
Mof_H 	H 	0.3981	0.0575	0.9384	-0.038
Mof_C 	C 	0.4613	0.0022	0.9442	0.203
Mof_C 	C 	0.4361	0.99437	0.9775	-0.247
Mof_H 	H 	0.4134	0.0117	0.9831	0.114
Mof_N 	N 	0.41981	0.08707	0.8897	-0.294
Mof_N 	N 	0.45284	0.03604	0.9181	-0.161
Mof_C 	C 	0.9541	0.5795	0.8684	-0.001
Mof_H 	H 	0.9618	0.5931	0.8439	-0.001
Mof_C 	C 	0.976	0.5497	0.8867	0.006
Mof_H 	H 	0.0025	0.5403	0.8791	0.017
Mof_C 	C 	0.9195	0.56001	0.91887	0.108
Mof_H 	H 	0.8981	0.5575	0.9384	-0.038
Mof_C 	C 	0.9613	0.5022	0.9442	0.204
Mof_C 	C 	0.9361	0.49437	0.9775	-0.247
Mof_H 	H 	0.9134	0.5117	0.9831	0.114
Mof_N 	N 	0.91981	0.58707	0.8897	-0.294
Mof_N 	N 	0.95284	0.53604	0.9181	-0.161
Mof_C 	C 	0.9541	0.0795	0.3684	-0
Mof_H 	H 	0.9618	0.0931	0.3439	-0.001
Mof_C 	C 	0.976	0.0497	0.3867	0.004
Mof_H 	H 	0.0025	0.0403	0.3791	0.018
Mof_C 	C 	0.9195	0.06001	0.41887	0.108
Mof_H 	H 	0.8981	0.0575	0.4384	-0.038
Mof_C 	C 	0.9613	0.0022	0.4442	0.203
Mof_C 	C 	0.9361	0.99437	0.4775	-0.247
Mof_H 	H 	0.9134	0.0117	0.4831	0.114
Mof_N 	N 	0.91981	0.08707	0.3897	-0.294
Mof_N 	N 	0.95284	0.03604	0.4181	-0.161
Mof_C 	C 	0.9541	0.1705	0.8816	-0.001
Mof_H 	H 	0.9618	0.1569	0.9061	-0.001
Mof_C 	C 	0.976	0.2003	0.8633	0.005
Mof_H 	H 	0.0025	0.2097	0.8709	0.017
Mof_C 	C 	0.9195	0.18999	0.83113	0.108
Mof_H 	H 	0.8981	0.1925	0.8116	-0.038
Mof_C 	C 	0.9613	0.2478	0.8058	0.205
Mof_C 	C 	0.9361	0.25563	0.7725	-0.249
Mof_H 	H 	0.9134	0.2383	0.7669	0.115
Mof_N 	N 	0.91981	0.16293	0.8603	-0.294
Mof_N 	N 	0.95284	0.21396	0.8319	-0.161
Mof_C 	C 	0.9541	0.6705	0.3816	-0.001
Mof_H 	H 	0.9618	0.6569	0.4061	-0.001
Mof_C 	C 	0.976	0.7003	0.3633	0.005
Mof_H 	H 	0.0025	0.7097	0.3709	0.017
Mof_C 	C 	0.9195	0.68999	0.33113	0.108
Mof_H 	H 	0.8981	0.6925	0.3116	-0.038
Mof_C 	C 	0.9613	0.7478	0.3058	0.205
Mof_C 	C 	0.9361	0.75563	0.2725	-0.249
Mof_H 	H 	0.9134	0.7383	0.2669	0.115
Mof_N 	N 	0.91981	0.66293	0.3603	-0.294
Mof_N 	N 	0.95284	0.71396	0.3319	-0.161
Mof_C 	C 	0.4541	0.1705	0.3816	-0.001
Mof_H 	H 	0.4618	0.1569	0.4061	-0.001
Mof_C 	C 	0.476	0.2003	0.3633	0.005
Mof_H 	H 	0.5025	0.2097	0.3709	0.017
Mof_C 	C 	0.4195	0.18999	0.33113	0.108
Mof_H 	H 	0.3981	0.1925	0.3116	-0.038
Mof_C 	C 	0.4613	0.2478	0.3058	0.205
Mof_C 	C 	0.4361	0.25563	0.2725	-0.249
Mof_H 	H 	0.4134	0.2383	0.2669	0.115
Mof_N 	N 	0.41981	0.16293	0.3603	-0.294
Mof_N 	N 	0.45284	0.21396	0.3319	-0.161
Mof_C 	C 	0.4541	0.6705	0.8816	-0.001
Mof_H 	H 	0.4618	0.6569	0.9061	-0.001
Mof_C 	C 	0.476	0.7003	0.8633	0.005
Mof_H 	H 	0.5025	0.7097	0.8709	0.017
Mof_C 	C 	0.4195	0.68999	0.83113	0.108
Mof_H 	H 	0.3981	0.6925	0.8116	-0.038
Mof_C 	C 	0.4613	0.7478	0.8058	0.205
Mof_C 	C 	0.4361	0.75563	0.7725	-0.249
Mof_H 	H 	0.4134	0.7383	0.7669	0.115
Mof_N 	N 	0.41981	0.66293	0.8603	-0.294
Mof_N 	N 	0.45284	0.71396	0.8319	-0.161
Mof_C 	C 	0.7959	0.0795	0.3816	-0.001
Mof_H 	H 	0.7882	0.0931	0.4061	-0.001
Mof_C 	C 	0.774	0.0497	0.3633	0.005
Mof_H 	H 	0.7475	0.0403	0.3709	0.017
Mof_C 	C 	0.8305	0.06001	0.33113	0.108
Mof_H 	H 	0.8519	0.0575	0.3116	-0.038
Mof_C 	C 	0.7887	0.0022	0.3058	0.204
Mof_C 	C 	0.8139	0.99437	0.2725	-0.248
Mof_H 	H 	0.8366	0.0117	0.2669	0.115
Mof_N 	N 	0.83019	0.08707	0.3603	-0.294
Mof_N 	N 	0.79716	0.03604	0.3319	-0.161
Mof_C 	C 	0.7959	0.5795	0.8816	-0.001
Mof_H 	H 	0.7882	0.5931	0.9061	-0.001
Mof_C 	C 	0.774	0.5497	0.8633	0.005
Mof_H 	H 	0.7475	0.5403	0.8709	0.017
Mof_C 	C 	0.8305	0.56001	0.83113	0.108
Mof_H 	H 	0.8519	0.5575	0.8116	-0.038
Mof_C 	C 	0.7887	0.5022	0.8058	0.205
Mof_C 	C 	0.8139	0.49437	0.7725	-0.249
Mof_H 	H 	0.8366	0.5117	0.7669	0.115
Mof_N 	N 	0.83019	0.58707	0.8603	-0.294
Mof_N 	N 	0.79716	0.53604	0.8319	-0.161
Mof_C 	C 	0.2959	0.0795	0.8816	-0.001
Mof_H 	H 	0.2882	0.0931	0.9061	-0.001
Mof_C 	C 	0.274	0.0497	0.8633	0.005
Mof_H 	H 	0.2475	0.0403	0.8709	0.017
Mof_C 	C 	0.3305	0.06001	0.83113	0.108
Mof_H 	H 	0.3519	0.0575	0.8116	-0.038
Mof_C 	C 	0.2887	0.0022	0.8058	0.204
Mof_C 	C 	0.3139	0.99437	0.7725	-0.248
Mof_H 	H 	0.3366	0.0117	0.7669	0.115
Mof_N 	N 	0.33019	0.08707	0.8603	-0.294
Mof_N 	N 	0.29716	0.03604	0.8319	-0.161
Mof_C 	C 	0.2959	0.5795	0.3816	-0.001
Mof_H 	H 	0.2882	0.5931	0.4061	-0.001
Mof_C 	C 	0.274	0.5497	0.3633	0.005
Mof_H 	H 	0.2475	0.5403	0.3709	0.017
Mof_C 	C 	0.3305	0.56001	0.33113	0.108
Mof_H 	H 	0.3519	0.5575	0.3116	-0.038
Mof_C 	C 	0.2887	0.5022	0.3058	0.205
Mof_C 	C 	0.3139	0.49437	0.2725	-0.249
Mof_H 	H 	0.3366	0.5117	0.2669	0.115
Mof_N 	N 	0.33019	0.58707	0.3603	-0.294
Mof_N 	N 	0.29716	0.53604	0.3319	-0.161
Mof_C 	C 	0.8684	0.2959	0.6705	-0.001
Mof_H 	H 	0.8439	0.2882	0.6569	-0.001
Mof_C 	C 	0.8867	0.274	0.7003	0.005
Mof_H 	H 	0.8791	0.2475	0.7097	0.017
Mof_C 	C 	0.91887	0.3305	0.68999	0.108
Mof_H 	H 	0.9384	0.3519	0.6925	-0.038
Mof_C 	C 	0.9442	0.2887	0.7478	0.205
Mof_C 	C 	0.9775	0.3139	0.75563	-0.249
Mof_H 	H 	0.9831	0.3366	0.7383	0.115
Mof_N 	N 	0.8897	0.33019	0.66293	-0.294
Mof_N 	N 	0.9181	0.29716	0.71396	-0.161
Mof_C 	C 	0.8684	0.7959	0.1705	-0.001
Mof_H 	H 	0.8439	0.7882	0.1569	-0.001
Mof_C 	C 	0.8867	0.774	0.2003	0.005
Mof_H 	H 	0.8791	0.7475	0.2097	0.017
Mof_C 	C 	0.91887	0.8305	0.18999	0.108
Mof_H 	H 	0.9384	0.8519	0.1925	-0.038
Mof_C 	C 	0.9442	0.7887	0.2478	0.205
Mof_C 	C 	0.9775	0.8139	0.25563	-0.249
Mof_H 	H 	0.9831	0.8366	0.2383	0.115
Mof_N 	N 	0.8897	0.83019	0.16293	-0.294
Mof_N 	N 	0.9181	0.79716	0.21396	-0.161
Mof_C 	C 	0.3684	0.2959	0.1705	-0.001
Mof_H 	H 	0.3439	0.2882	0.1569	-0.001
Mof_C 	C 	0.3867	0.274	0.2003	0.005
Mof_H 	H 	0.3791	0.2475	0.2097	0.017
Mof_C 	C 	0.41887	0.3305	0.18999	0.108
Mof_H 	H 	0.4384	0.3519	0.1925	-0.038
Mof_C 	C 	0.4442	0.2887	0.2478	0.205
Mof_C 	C 	0.4775	0.3139	0.25563	-0.249
Mof_H 	H 	0.4831	0.3366	0.2383	0.115
Mof_N 	N 	0.3897	0.33019	0.16293	-0.294
Mof_N 	N 	0.4181	0.29716	0.21396	-0.161
Mof_C 	C 	0.3684	0.7959	0.6705	-0.001
Mof_H 	H 	0.3439	0.7882	0.6569	-0.001
Mof_C 	C 	0.3867	0.774	0.7003	0.005
Mof_H 	H 	0.3791	0.7475	0.7097	0.017
Mof_C 	C 	0.41887	0.8305	0.68999	0.108
Mof_H 	H 	0.4384	0.8519	0.6925	-0.038
Mof_C 	C 	0.4442	0.7887	0.7478	0.205
Mof_C 	C 	0.4775	0.8139	0.75563	-0.249
Mof_H 	H 	0.4831	0.8366	0.7383	0.115
Mof_N 	N 	0.3897	0.83019	0.66293	-0.294
Mof_N 	N 	0.4181	0.79716	0.71396	-0.161
Mof_C 	C 	0.3684	0.4541	0.5795	-0.001
Mof_H 	H 	0.3439	0.4618	0.5931	-0.001
Mof_C 	C 	0.3867	0.476	0.5497	0.005
Mof_H 	H 	0.3791	0.5025	0.5403	0.017
Mof_C 	C 	0.41887	0.4195	0.56001	0.108
Mof_H 	H 	0.4384	0.3981	0.5575	-0.038
Mof_C 	C 	0.4442	0.4613	0.5022	0.205
Mof_C 	C 	0.4775	0.4361	0.49437	-0.249
Mof_H 	H 	0.4831	0.4134	0.5117	0.115
Mof_N 	N 	0.3897	0.41981	0.58707	-0.294
Mof_N 	N 	0.4181	0.45284	0.53604	-0.161
Mof_C 	C 	0.3684	0.9541	0.0795	-0
Mof_H 	H 	0.3439	0.9618	0.0931	-0.001
Mof_C 	C 	0.3867	0.976	0.0497	0.004
Mof_H 	H 	0.3791	0.0025	0.0403	0.018
Mof_C 	C 	0.41887	0.9195	0.06001	0.108
Mof_H 	H 	0.4384	0.8981	0.0575	-0.038
Mof_C 	C 	0.4442	0.9613	0.0022	0.203
Mof_C 	C 	0.4775	0.9361	0.99437	-0.247
Mof_H 	H 	0.4831	0.9134	0.0117	0.114
Mof_N 	N 	0.3897	0.91981	0.08707	-0.294
Mof_N 	N 	0.4181	0.95284	0.03604	-0.161
Mof_C 	C 	0.8684	0.4541	0.0795	-0.001
Mof_H 	H 	0.8439	0.4618	0.0931	-0.001
Mof_C 	C 	0.8867	0.476	0.0497	0.005
Mof_H 	H 	0.8791	0.5025	0.0403	0.017
Mof_C 	C 	0.91887	0.4195	0.06001	0.108
Mof_H 	H 	0.9384	0.3981	0.0575	-0.038
Mof_C 	C 	0.9442	0.4613	0.0022	0.203
Mof_C 	C 	0.9775	0.4361	0.99437	-0.247
Mof_H 	H 	0.9831	0.4134	0.0117	0.114
Mof_N 	N 	0.8897	0.41981	0.08707	-0.294
Mof_N 	N 	0.9181	0.45284	0.03604	-0.161
Mof_C 	C 	0.8684	0.9541	0.5795	-0.001
Mof_H 	H 	0.8439	0.9618	0.5931	-0.001
Mof_C 	C 	0.8867	0.976	0.5497	0.006
Mof_H 	H 	0.8791	0.0025	0.5403	0.017
Mof_C 	C 	0.91887	0.9195	0.56001	0.108
Mof_H 	H 	0.9384	0.8981	0.5575	-0.038
Mof_C 	C 	0.9442	0.9613	0.5022	0.204
Mof_C 	C 	0.9775	0.9361	0.49437	-0.247
Mof_H 	H 	0.9831	0.9134	0.5117	0.114
Mof_N 	N 	0.8897	0.91981	0.58707	-0.294
Mof_N 	N 	0.9181	0.95284	0.53604	-0.161
Mof_C 	C 	0.8816	0.9541	0.1705	-0.001
Mof_H 	H 	0.9061	0.9618	0.1569	-0.001
Mof_C 	C 	0.8633	0.976	0.2003	0.005
Mof_H 	H 	0.8709	0.0025	0.2097	0.017
Mof_C 	C 	0.83113	0.9195	0.18999	0.108
Mof_H 	H 	0.8116	0.8981	0.1925	-0.038
Mof_C 	C 	0.8058	0.9613	0.2478	0.205
Mof_C 	C 	0.7725	0.9361	0.25563	-0.249
Mof_H 	H 	0.7669	0.9134	0.2383	0.115
Mof_N 	N 	0.8603	0.91981	0.16293	-0.294
Mof_N 	N 	0.8319	0.95284	0.21396	-0.161
Mof_C 	C 	0.8816	0.4541	0.6705	-0.001
Mof_H 	H 	0.9061	0.4618	0.6569	-0.001
Mof_C 	C 	0.8633	0.476	0.7003	0.005
Mof_H 	H 	0.8709	0.5025	0.7097	0.017
Mof_C 	C 	0.83113	0.4195	0.68999	0.108
Mof_H 	H 	0.8116	0.3981	0.6925	-0.038
Mof_C 	C 	0.8058	0.4613	0.7478	0.205
Mof_C 	C 	0.7725	0.4361	0.75563	-0.249
Mof_H 	H 	0.7669	0.4134	0.7383	0.115
Mof_N 	N 	0.8603	0.41981	0.66293	-0.294
Mof_N 	N 	0.8319	0.45284	0.71396	-0.161
Mof_C 	C 	0.3816	0.9541	0.6705	-0.001
Mof_H 	H 	0.4061	0.9618	0.6569	-0.001
Mof_C 	C 	0.3633	0.976	0.7003	0.005
Mof_H 	H 	0.3709	0.0025	0.7097	0.017
Mof_C 	C 	0.33113	0.9195	0.68999	0.108
Mof_H 	H 	0.3116	0.8981	0.6925	-0.038
Mof_C 	C 	0.3058	0.9613	0.7478	0.205
Mof_C 	C 	0.2725	0.9361	0.75563	-0.249
Mof_H 	H 	0.2669	0.9134	0.7383	0.115
Mof_N 	N 	0.3603	0.91981	0.66293	-0.294
Mof_N 	N 	0.3319	0.95284	0.71396	-0.161
Mof_C 	C 	0.3816	0.4541	0.1705	-0.001
Mof_H 	H 	0.4061	0.4618	0.1569	-0.001
Mof_C 	C 	0.3633	0.476	0.2003	0.005
Mof_H 	H 	0.3709	0.5025	0.2097	0.017
Mof_C 	C 	0.33113	0.4195	0.18999	0.108
Mof_H 	H 	0.3116	0.3981	0.1925	-0.038
Mof_C 	C 	0.3058	0.4613	0.2478	0.205
Mof_C 	C 	0.2725	0.4361	0.25563	-0.249
Mof_H 	H 	0.2669	0.4134	0.2383	0.115
Mof_N 	N 	0.3603	0.41981	0.16293	-0.294
Mof_N 	N 	0.3319	0.45284	0.21396	-0.161
Mof_C 	C 	0.3816	0.7959	0.0795	-0.001
Mof_H 	H 	0.4061	0.7882	0.0931	-0.001
Mof_C 	C 	0.3633	0.774	0.0497	0.005
Mof_H 	H 	0.3709	0.7475	0.0403	0.017
Mof_C 	C 	0.33113	0.8305	0.06001	0.108
Mof_H 	H 	0.3116	0.8519	0.0575	-0.038
Mof_C 	C 	0.3058	0.7887	0.0022	0.204
Mof_C 	C 	0.2725	0.8139	0.99437	-0.248
Mof_H 	H 	0.2669	0.8366	0.0117	0.115
Mof_N 	N 	0.3603	0.83019	0.08707	-0.294
Mof_N 	N 	0.3319	0.79716	0.03604	-0.161
Mof_C 	C 	0.3816	0.2959	0.5795	-0.001
Mof_H 	H 	0.4061	0.2882	0.5931	-0.001
Mof_C 	C 	0.3633	0.274	0.5497	0.005
Mof_H 	H 	0.3709	0.2475	0.5403	0.017
Mof_C 	C 	0.33113	0.3305	0.56001	0.108
Mof_H 	H 	0.3116	0.3519	0.5575	-0.038
Mof_C 	C 	0.3058	0.2887	0.5022	0.205
Mof_C 	C 	0.2725	0.3139	0.49437	-0.249
Mof_H 	H 	0.2669	0.3366	0.5117	0.115
Mof_N 	N 	0.3603	0.33019	0.58707	-0.294
Mof_N 	N 	0.3319	0.29716	0.53604	-0.161
Mof_C 	C 	0.8816	0.7959	0.5795	-0.001
Mof_H 	H 	0.9061	0.7882	0.5931	-0.001
Mof_C 	C 	0.8633	0.774	0.5497	0.005
Mof_H 	H 	0.8709	0.7475	0.5403	0.017
Mof_C 	C 	0.83113	0.8305	0.56001	0.108
Mof_H 	H 	0.8116	0.8519	0.5575	-0.038
Mof_C 	C 	0.8058	0.7887	0.5022	0.205
Mof_C 	C 	0.7725	0.8139	0.49437	-0.249
Mof_H 	H 	0.7669	0.8366	0.5117	0.115
Mof_N 	N 	0.8603	0.83019	0.58707	-0.294
Mof_N 	N 	0.8319	0.79716	0.53604	-0.161
Mof_C 	C 	0.8816	0.2959	0.0795	-0.001
Mof_H 	H 	0.9061	0.2882	0.0931	-0.001
Mof_C 	C 	0.8633	0.274	0.0497	0.005
Mof_H 	H 	0.8709	0.2475	0.0403	0.017
Mof_C 	C 	0.83113	0.3305	0.06001	0.108
Mof_H 	H 	0.8116	0.3519	0.0575	-0.038
Mof_C 	C 	0.8058	0.2887	0.0022	0.204
Mof_C 	C 	0.7725	0.3139	0.99437	-0.248
Mof_H 	H 	0.7669	0.3366	0.0117	0.115
Mof_N 	N 	0.8603	0.33019	0.08707	-0.294
Mof_N 	N 	0.8319	0.29716	0.03604	-0.161
Mof_C 	C 	0.6705	0.8684	0.2959	-0.001
Mof_H 	H 	0.6569	0.8439	0.2882	-0.001
Mof_C 	C 	0.7003	0.8867	0.274	0.005
Mof_H 	H 	0.7097	0.8791	0.2475	0.017
Mof_C 	C 	0.68999	0.91887	0.3305	0.108
Mof_H 	H 	0.6925	0.9384	0.3519	-0.038
Mof_C 	C 	0.7478	0.9442	0.2887	0.205
Mof_C 	C 	0.75563	0.9775	0.3139	-0.249
Mof_H 	H 	0.7383	0.9831	0.3366	0.115
Mof_N 	N 	0.66293	0.8897	0.33019	-0.294
Mof_N 	N 	0.71396	0.9181	0.29716	-0.161
Mof_C 	C 	0.6705	0.3684	0.7959	-0.001
Mof_H 	H 	0.6569	0.3439	0.7882	-0.001
Mof_C 	C 	0.7003	0.3867	0.774	0.005
Mof_H 	H 	0.7097	0.3791	0.7475	0.017
Mof_C 	C 	0.68999	0.41887	0.8305	0.108
Mof_H 	H 	0.6925	0.4384	0.8519	-0.038
Mof_C 	C 	0.7478	0.4442	0.7887	0.205
Mof_C 	C 	0.75563	0.4775	0.8139	-0.249
Mof_H 	H 	0.7383	0.4831	0.8366	0.115
Mof_N 	N 	0.66293	0.3897	0.83019	-0.294
Mof_N 	N 	0.71396	0.4181	0.79716	-0.161
Mof_C 	C 	0.1705	0.8684	0.7959	-0.001
Mof_H 	H 	0.1569	0.8439	0.7882	-0.001
Mof_C 	C 	0.2003	0.8867	0.774	0.005
Mof_H 	H 	0.2097	0.8791	0.7475	0.017
Mof_C 	C 	0.18999	0.91887	0.8305	0.108
Mof_H 	H 	0.1925	0.9384	0.8519	-0.038
Mof_C 	C 	0.2478	0.9442	0.7887	0.205
Mof_C 	C 	0.25563	0.9775	0.8139	-0.249
Mof_H 	H 	0.2383	0.9831	0.8366	0.115
Mof_N 	N 	0.16293	0.8897	0.83019	-0.294
Mof_N 	N 	0.21396	0.9181	0.79716	-0.161
Mof_C 	C 	0.1705	0.3684	0.2959	-0.001
Mof_H 	H 	0.1569	0.3439	0.2882	-0.001
Mof_C 	C 	0.2003	0.3867	0.274	0.005
Mof_H 	H 	0.2097	0.3791	0.2475	0.017
Mof_C 	C 	0.18999	0.41887	0.3305	0.108
Mof_H 	H 	0.1925	0.4384	0.3519	-0.038
Mof_C 	C 	0.2478	0.4442	0.2887	0.205
Mof_C 	C 	0.25563	0.4775	0.3139	-0.249
Mof_H 	H 	0.2383	0.4831	0.3366	0.115
Mof_N 	N 	0.16293	0.3897	0.33019	-0.294
Mof_N 	N 	0.21396	0.4181	0.29716	-0.161
Mof_C 	C 	0.5795	0.3684	0.4541	-0.001
Mof_H 	H 	0.5931	0.3439	0.4618	-0.001
Mof_C 	C 	0.5497	0.3867	0.476	0.005
Mof_H 	H 	0.5403	0.3791	0.5025	0.017
Mof_C 	C 	0.56001	0.41887	0.4195	0.108
Mof_H 	H 	0.5575	0.4384	0.3981	-0.038
Mof_C 	C 	0.5022	0.4442	0.4613	0.205
Mof_C 	C 	0.49437	0.4775	0.4361	-0.249
Mof_H 	H 	0.5117	0.4831	0.4134	0.115
Mof_N 	N 	0.58707	0.3897	0.41981	-0.294
Mof_N 	N 	0.53604	0.4181	0.45284	-0.161
Mof_C 	C 	0.5795	0.8684	0.9541	-0.001
Mof_H 	H 	0.5931	0.8439	0.9618	-0.001
Mof_C 	C 	0.5497	0.8867	0.976	0.006
Mof_H 	H 	0.5403	0.8791	0.0025	0.017
Mof_C 	C 	0.56001	0.91887	0.9195	0.108
Mof_H 	H 	0.5575	0.9384	0.8981	-0.038
Mof_C 	C 	0.5022	0.9442	0.9613	0.204
Mof_C 	C 	0.49437	0.9775	0.9361	-0.247
Mof_H 	H 	0.5117	0.9831	0.9134	0.114
Mof_N 	N 	0.58707	0.8897	0.91981	-0.294
Mof_N 	N 	0.53604	0.9181	0.95284	-0.161
Mof_C 	C 	0.0795	0.3684	0.9541	-0
Mof_H 	H 	0.0931	0.3439	0.9618	-0.001
Mof_C 	C 	0.0497	0.3867	0.976	0.004
Mof_H 	H 	0.0403	0.3791	0.0025	0.018
Mof_C 	C 	0.06001	0.41887	0.9195	0.108
Mof_H 	H 	0.0575	0.4384	0.8981	-0.038
Mof_C 	C 	0.0022	0.4442	0.9613	0.203
Mof_C 	C 	0.99437	0.4775	0.9361	-0.247
Mof_H 	H 	0.0117	0.4831	0.9134	0.114
Mof_N 	N 	0.08707	0.3897	0.91981	-0.294
Mof_N 	N 	0.03604	0.4181	0.95284	-0.161
Mof_C 	C 	0.0795	0.8684	0.4541	-0.001
Mof_H 	H 	0.0931	0.8439	0.4618	-0.001
Mof_C 	C 	0.0497	0.8867	0.476	0.005
Mof_H 	H 	0.0403	0.8791	0.5025	0.017
Mof_C 	C 	0.06001	0.91887	0.4195	0.108
Mof_H 	H 	0.0575	0.9384	0.3981	-0.038
Mof_C 	C 	0.0022	0.9442	0.4613	0.203
Mof_C 	C 	0.99437	0.9775	0.4361	-0.247
Mof_H 	H 	0.0117	0.9831	0.4134	0.114
Mof_N 	N 	0.08707	0.8897	0.41981	-0.294
Mof_N 	N 	0.03604	0.9181	0.45284	-0.161
Mof_C 	C 	0.1705	0.8816	0.9541	-0.001
Mof_H 	H 	0.1569	0.9061	0.9618	-0.001
Mof_C 	C 	0.2003	0.8633	0.976	0.005
Mof_H 	H 	0.2097	0.8709	0.0025	0.017
Mof_C 	C 	0.18999	0.83113	0.9195	0.108
Mof_H 	H 	0.1925	0.8116	0.8981	-0.038
Mof_C 	C 	0.2478	0.8058	0.9613	0.205
Mof_C 	C 	0.25563	0.7725	0.9361	-0.249
Mof_H 	H 	0.2383	0.7669	0.9134	0.115
Mof_N 	N 	0.16293	0.8603	0.91981	-0.294
Mof_N 	N 	0.21396	0.8319	0.95284	-0.161
Mof_C 	C 	0.1705	0.3816	0.4541	-0.001
Mof_H 	H 	0.1569	0.4061	0.4618	-0.001
Mof_C 	C 	0.2003	0.3633	0.476	0.005
Mof_H 	H 	0.2097	0.3709	0.5025	0.017
Mof_C 	C 	0.18999	0.33113	0.4195	0.108
Mof_H 	H 	0.1925	0.3116	0.3981	-0.038
Mof_C 	C 	0.2478	0.3058	0.4613	0.205
Mof_C 	C 	0.25563	0.2725	0.4361	-0.249
Mof_H 	H 	0.2383	0.2669	0.4134	0.115
Mof_N 	N 	0.16293	0.3603	0.41981	-0.294
Mof_N 	N 	0.21396	0.3319	0.45284	-0.161
Mof_C 	C 	0.6705	0.8816	0.4541	-0.001
Mof_H 	H 	0.6569	0.9061	0.4618	-0.001
Mof_C 	C 	0.7003	0.8633	0.476	0.005
Mof_H 	H 	0.7097	0.8709	0.5025	0.017
Mof_C 	C 	0.68999	0.83113	0.4195	0.108
Mof_H 	H 	0.6925	0.8116	0.3981	-0.038
Mof_C 	C 	0.7478	0.8058	0.4613	0.205
Mof_C 	C 	0.75563	0.7725	0.4361	-0.249
Mof_H 	H 	0.7383	0.7669	0.4134	0.115
Mof_N 	N 	0.66293	0.8603	0.41981	-0.294
Mof_N 	N 	0.71396	0.8319	0.45284	-0.161
Mof_C 	C 	0.6705	0.3816	0.9541	-0.001
Mof_H 	H 	0.6569	0.4061	0.9618	-0.001
Mof_C 	C 	0.7003	0.3633	0.976	0.005
Mof_H 	H 	0.7097	0.3709	0.0025	0.017
Mof_C 	C 	0.68999	0.33113	0.9195	0.108
Mof_H 	H 	0.6925	0.3116	0.8981	-0.038
Mof_C 	C 	0.7478	0.3058	0.9613	0.205
Mof_C 	C 	0.75563	0.2725	0.9361	-0.249
Mof_H 	H 	0.7383	0.2669	0.9134	0.115
Mof_N 	N 	0.66293	0.3603	0.91981	-0.294
Mof_N 	N 	0.71396	0.3319	0.95284	-0.161
Mof_C 	C 	0.0795	0.3816	0.7959	-0.001
Mof_H 	H 	0.0931	0.4061	0.7882	-0.001
Mof_C 	C 	0.0497	0.3633	0.774	0.005
Mof_H 	H 	0.0403	0.3709	0.7475	0.017
Mof_C 	C 	0.06001	0.33113	0.8305	0.108
Mof_H 	H 	0.0575	0.3116	0.8519	-0.038
Mof_C 	C 	0.0022	0.3058	0.7887	0.204
Mof_C 	C 	0.99437	0.2725	0.8139	-0.248
Mof_H 	H 	0.0117	0.2669	0.8366	0.115
Mof_N 	N 	0.08707	0.3603	0.83019	-0.294
Mof_N 	N 	0.03604	0.3319	0.79716	-0.161
Mof_C 	C 	0.0795	0.8816	0.2959	-0.001
Mof_H 	H 	0.0931	0.9061	0.2882	-0.001
Mof_C 	C 	0.0497	0.8633	0.274	0.005
Mof_H 	H 	0.0403	0.8709	0.2475	0.017
Mof_C 	C 	0.06001	0.83113	0.3305	0.108
Mof_H 	H 	0.0575	0.8116	0.3519	-0.038
Mof_C 	C 	0.0022	0.8058	0.2887	0.204
Mof_C 	C 	0.99437	0.7725	0.3139	-0.248
Mof_H 	H 	0.0117	0.7669	0.3366	0.115
Mof_N 	N 	0.08707	0.8603	0.33019	-0.294
Mof_N 	N 	0.03604	0.8319	0.29716	-0.161
Mof_C 	C 	0.5795	0.3816	0.2959	-0.001
Mof_H 	H 	0.5931	0.4061	0.2882	-0.001
Mof_C 	C 	0.5497	0.3633	0.274	0.005
Mof_H 	H 	0.5403	0.3709	0.2475	0.017
Mof_C 	C 	0.56001	0.33113	0.3305	0.108
Mof_H 	H 	0.5575	0.3116	0.3519	-0.038
Mof_C 	C 	0.5022	0.3058	0.2887	0.205
Mof_C 	C 	0.49437	0.2725	0.3139	-0.249
Mof_H 	H 	0.5117	0.2669	0.3366	0.115
Mof_N 	N 	0.58707	0.3603	0.33019	-0.294
Mof_N 	N 	0.53604	0.3319	0.29716	-0.161
Mof_C 	C 	0.5795	0.8816	0.7959	-0.001
Mof_H 	H 	0.5931	0.9061	0.7882	-0.001
Mof_C 	C 	0.5497	0.8633	0.774	0.005
Mof_H 	H 	0.5403	0.8709	0.7475	0.017
Mof_C 	C 	0.56001	0.83113	0.8305	0.108
Mof_H 	H 	0.5575	0.8116	0.8519	-0.038
Mof_C 	C 	0.5022	0.8058	0.7887	0.205
Mof_C 	C 	0.49437	0.7725	0.8139	-0.249
Mof_H 	H 	0.5117	0.7669	0.8366	0.115
Mof_N 	N 	0.58707	0.8603	0.83019	-0.294
Mof_N 	N 	0.53604	0.8319	0.79716	-0.161
Mof_Zn	Zn	0.125	0.875	0.875	1.174
Mof_Zn	Zn	0.125	0.375	0.375	1.174
Mof_Zn	Zn	0.125	0.875	0.375	1.174
Mof_Zn	Zn	0.625	0.375	0.875	1.174
Mof_Zn	Zn	0.625	0.375	0.375	1.174
Mof_Zn	Zn	0.625	0.875	0.875	1.174
Mof_Zn	Zn	0.375	0.375	0.625	1.174
Mof_Zn	Zn	0.375	0.875	0.625	1.174
Mof_Zn	Zn	0.375	0.375	0.125	1.174
Mof_Zn	Zn	0.875	0.375	0.125	1.174
Mof_Zn	Zn	0.875	0.875	0.625	1.174
Mof_Zn	Zn	0.875	0.875	0.125	1.174
Mof_Zn	Zn	0.875	0.625	0.375	1.174
Mof_Zn	Zn	0.375	0.625	0.375	1.174
Mof_Zn	Zn	0.875	0.125	0.875	1.174
Mof_Zn	Zn	0.375	0.125	0.875	1.174
Mof_Zn	Zn	0.375	0.625	0.875	1.174
Mof_Zn	Zn	0.375	0.125	0.375	1.174
Mof_Zn	Zn	0.875	0.125	0.375	1.174
Mof_Zn	Zn	0.875	0.625	0.875	1.174
Mof_Zn	Zn	0.875	0.375	0.625	1.174
Mof_Zn	Zn	0.375	0.875	0.125	1.174
Mof_Zn	Zn	0.625	0.875	0.375	1.174
Mof_Zn	Zn	0.125	0.375	0.875	1.174
_end
