data_functionalizedCrystal
_audit_creation_method	'EQeq! by Chris Wilmer'
_symmetry_space_group_name_H-M	'P1'
_symmetry_Int_Tables_number	1
_symmetry_cell_setting	triclinic
loop_
_symmetry_equiv_pos_as_xyz
  x,y,z
_cell_length_a	11.9308
_cell_length_b	18.9239
_cell_length_c	22.4189
_cell_angle_alpha	90
_cell_angle_beta	90
_cell_angle_gamma	90
loop_
_atom_site_label
_atom_site_type_symbol
_atom_site_fract_x
_atom_site_fract_y
_atom_site_fract_z
_atom_site_charge
Mof_Ag	Ag	0.27978	0.19757	0.69825	0.631
Mof_N 	N 	0.3934	0.2914	0.6784	-0.168
Mof_N 	N 	0.3694	0.3601	0.6834	-0.119
Mof_N 	N 	0.5429	0.3507	0.65378	-0.205
Mof_N 	N 	0.0148	0.1746	0.6681	-0.113
Mof_N 	N 	0.0917	0.2267	0.683	-0.164
Mof_N 	N 	0.9374	0.2791	0.6563	-0.204
Mof_N 	N 	0.9088	0.6335	0.6871	-0.117
Mof_N 	N 	0.8224	0.6264	0.7243	-0.168
Mof_N 	N 	0.8325	0.5305	0.67067	-0.207
Mof_N 	N 	0.7895	0.373	0.3887	-0.155
Mof_N 	N 	0.818	0.4433	0.3926	-0.11
Mof_N 	N 	0.7887	0.4025	0.48274	-0.201
Mof_C 	C 	0.4975	0.2865	0.6624	0.109
Mof_H 	H 	0.5358	0.2441	0.6574	-0.022
Mof_C 	C 	0.4594	0.3931	0.6689	0.114
Mof_H 	H 	0.4653	0.4421	0.6691	-0.018
Mof_C 	C 	0.9253	0.2085	0.6523	0.101
Mof_H 	H 	0.8599	0.1865	0.6395	-0.017
Mof_C 	C 	0.0438	0.2864	0.6744	0.121
Mof_H 	H 	0.0788	0.3298	0.6801	-0.033
Mof_C 	C 	0.9137	0.576	0.6564	0.106
Mof_H 	H 	0.9678	0.5672	0.6275	-0.012
Mof_C 	C 	0.7773	0.5658	0.7134	0.118
Mof_H 	H 	0.7141	0.5487	0.7329	-0.027
Mof_C 	C 	0.7731	0.3504	0.443	0.11
Mof_H 	H 	0.7532	0.3043	0.4528	-0.03
Mof_C 	C 	0.8179	0.4592	0.4495	0.097
Mof_H 	H 	0.8355	0.5035	0.4649	-0.018
Mof_C 	C 	0.6572	0.3698	0.6346	0.384
Mof_C 	C 	0.739	0.3128	0.6564	-0.505
Mof_H 	H 	0.7355	0.3089	0.6995	0.167
Mof_H 	H 	0.7193	0.2674	0.6393	0.175
Mof_C 	C 	0.8564	0.3339	0.6371	0.376
Mof_C 	C 	0.8885	0.4057	0.6654	-0.523
Mof_H 	H 	0.8864	0.4021	0.7085	0.181
Mof_H 	H 	0.964	0.4187	0.6536	0.182
Mof_C 	C 	0.8066	0.4609	0.6445	0.399
Mof_C 	C 	0.687	0.4412	0.663	-0.522
Mof_H 	H 	0.6349	0.4772	0.6497	0.184
Mof_H 	H 	0.6821	0.4378	0.7061	0.187
Mof_C 	C 	0.6623	0.3758	0.5664	-0.515
Mof_H 	H 	0.6427	0.3309	0.5483	0.178
Mof_H 	H 	0.6096	0.4112	0.5526	0.18
Mof_C 	C 	0.7817	0.3967	0.5487	0.391
Mof_C 	C 	0.8629	0.3396	0.5683	-0.512
Mof_H 	H 	0.9385	0.3517	0.5561	0.178
Mof_H 	H 	0.843	0.2948	0.5502	0.177
Mof_C 	C 	0.8122	0.4675	0.5764	-0.525
Mof_H 	H 	0.7603	0.5036	0.5629	0.181
Mof_H 	H 	0.8872	0.4812	0.5643	0.181
Mof_Ag	Ag	0.77978	0.30243	0.30175	0.632
Mof_N 	N 	0.8934	0.2086	0.3216	-0.167
Mof_N 	N 	0.8694	0.1399	0.3166	-0.119
Mof_N 	N 	0.0429	0.1493	0.34622	-0.204
Mof_N 	N 	0.5148	0.3254	0.3319	-0.113
Mof_N 	N 	0.5917	0.2733	0.317	-0.164
Mof_N 	N 	0.4374	0.2209	0.3437	-0.204
Mof_N 	N 	0.4088	0.8665	0.3129	-0.117
Mof_N 	N 	0.3224	0.8736	0.2757	-0.168
Mof_N 	N 	0.3325	0.9695	0.32933	-0.207
Mof_N 	N 	0.2895	0.127	0.6113	-0.155
Mof_N 	N 	0.318	0.0567	0.6074	-0.11
Mof_N 	N 	0.2887	0.0975	0.51726	-0.201
Mof_C 	C 	0.9975	0.2135	0.3376	0.109
Mof_H 	H 	0.0358	0.2559	0.3426	-0.022
Mof_C 	C 	0.9594	0.1069	0.3311	0.114
Mof_H 	H 	0.9653	0.0579	0.3309	-0.018
Mof_C 	C 	0.4253	0.2915	0.3477	0.101
Mof_H 	H 	0.3599	0.3135	0.3605	-0.017
Mof_C 	C 	0.5438	0.2136	0.3256	0.121
Mof_H 	H 	0.5788	0.1702	0.3199	-0.033
Mof_C 	C 	0.4137	0.924	0.3436	0.106
Mof_H 	H 	0.4678	0.9328	0.3725	-0.012
Mof_C 	C 	0.2773	0.9342	0.2866	0.118
Mof_H 	H 	0.2141	0.9513	0.2671	-0.027
Mof_C 	C 	0.2731	0.1496	0.557	0.11
Mof_H 	H 	0.2532	0.1957	0.5472	-0.03
Mof_C 	C 	0.3179	0.0408	0.5505	0.097
Mof_H 	H 	0.3355	0.9965	0.5351	-0.018
Mof_C 	C 	0.1572	0.1302	0.3654	0.384
Mof_C 	C 	0.239	0.1872	0.3436	-0.505
Mof_H 	H 	0.2355	0.1911	0.3005	0.167
Mof_H 	H 	0.2193	0.2326	0.3607	0.175
Mof_C 	C 	0.3564	0.1661	0.3629	0.376
Mof_C 	C 	0.3885	0.0943	0.3346	-0.523
Mof_H 	H 	0.3864	0.0979	0.2915	0.181
Mof_H 	H 	0.464	0.0813	0.3464	0.182
Mof_C 	C 	0.3066	0.0391	0.3555	0.399
Mof_C 	C 	0.187	0.0588	0.337	-0.522
Mof_H 	H 	0.1349	0.0228	0.3503	0.184
Mof_H 	H 	0.1821	0.0622	0.2939	0.187
Mof_C 	C 	0.1623	0.1242	0.4336	-0.515
Mof_H 	H 	0.1427	0.1691	0.4517	0.178
Mof_H 	H 	0.1096	0.0888	0.4474	0.18
Mof_C 	C 	0.2817	0.1033	0.4513	0.391
Mof_C 	C 	0.3629	0.1604	0.4317	-0.512
Mof_H 	H 	0.4385	0.1483	0.4439	0.178
Mof_H 	H 	0.343	0.2052	0.4498	0.177
Mof_C 	C 	0.3122	0.0325	0.4236	-0.525
Mof_H 	H 	0.2603	0.9964	0.4371	0.181
Mof_H 	H 	0.3872	0.0188	0.4357	0.181
Mof_Ag	Ag	0.77978	0.69757	0.80175	0.632
Mof_N 	N 	0.8934	0.7914	0.8216	-0.168
Mof_N 	N 	0.8694	0.8601	0.8166	-0.119
Mof_N 	N 	0.0429	0.8507	0.84622	-0.205
Mof_N 	N 	0.5148	0.6746	0.8319	-0.113
Mof_N 	N 	0.5917	0.7267	0.817	-0.164
Mof_N 	N 	0.4374	0.7791	0.8437	-0.204
Mof_N 	N 	0.4088	0.1335	0.8129	-0.117
Mof_N 	N 	0.3224	0.1264	0.7757	-0.168
Mof_N 	N 	0.3325	0.0305	0.82933	-0.207
Mof_N 	N 	0.2895	0.873	0.1113	-0.155
Mof_N 	N 	0.318	0.9433	0.1074	-0.11
Mof_N 	N 	0.2887	0.9025	0.01726	-0.201
Mof_C 	C 	0.9975	0.7865	0.8376	0.11
Mof_H 	H 	0.0358	0.7441	0.8426	-0.023
Mof_C 	C 	0.9594	0.8931	0.8311	0.115
Mof_H 	H 	0.9653	0.9421	0.8309	-0.018
Mof_C 	C 	0.4253	0.7085	0.8477	0.101
Mof_H 	H 	0.3599	0.6865	0.8605	-0.017
Mof_C 	C 	0.5438	0.7864	0.8256	0.121
Mof_H 	H 	0.5788	0.8298	0.8199	-0.033
Mof_C 	C 	0.4137	0.076	0.8436	0.106
Mof_H 	H 	0.4678	0.0672	0.8725	-0.012
Mof_C 	C 	0.2773	0.0658	0.7866	0.118
Mof_H 	H 	0.2141	0.0487	0.7671	-0.027
Mof_C 	C 	0.2731	0.8504	0.057	0.11
Mof_H 	H 	0.2532	0.8043	0.0472	-0.03
Mof_C 	C 	0.3179	0.9592	0.0505	0.098
Mof_H 	H 	0.3355	0.0035	0.0351	-0.018
Mof_C 	C 	0.1572	0.8698	0.8654	0.384
Mof_C 	C 	0.239	0.8128	0.8436	-0.505
Mof_H 	H 	0.2355	0.8089	0.8005	0.167
Mof_H 	H 	0.2193	0.7674	0.8607	0.175
Mof_C 	C 	0.3564	0.8339	0.8629	0.376
Mof_C 	C 	0.3885	0.9057	0.8346	-0.523
Mof_H 	H 	0.3864	0.9021	0.7915	0.181
Mof_H 	H 	0.464	0.9187	0.8464	0.182
Mof_C 	C 	0.3066	0.9609	0.8555	0.399
Mof_C 	C 	0.187	0.9412	0.837	-0.522
Mof_H 	H 	0.1349	0.9772	0.8503	0.184
Mof_H 	H 	0.1821	0.9378	0.7939	0.187
Mof_C 	C 	0.1623	0.8758	0.9336	-0.515
Mof_H 	H 	0.1427	0.8309	0.9517	0.178
Mof_H 	H 	0.1096	0.9112	0.9474	0.179
Mof_C 	C 	0.2817	0.8967	0.9513	0.391
Mof_C 	C 	0.3629	0.8396	0.9317	-0.512
Mof_H 	H 	0.4385	0.8517	0.9439	0.178
Mof_H 	H 	0.343	0.7948	0.9498	0.177
Mof_C 	C 	0.3122	0.9675	0.9236	-0.525
Mof_H 	H 	0.2603	0.0036	0.9371	0.182
Mof_H 	H 	0.3872	0.9812	0.9357	0.181
Mof_Ag	Ag	0.27978	0.80243	0.19825	0.632
Mof_N 	N 	0.3934	0.7086	0.1784	-0.167
Mof_N 	N 	0.3694	0.6399	0.1834	-0.119
Mof_N 	N 	0.5429	0.6493	0.15378	-0.205
Mof_N 	N 	0.0148	0.8254	0.1681	-0.112
Mof_N 	N 	0.0917	0.7733	0.183	-0.164
Mof_N 	N 	0.9374	0.7209	0.1563	-0.204
Mof_N 	N 	0.9088	0.3665	0.1871	-0.118
Mof_N 	N 	0.8224	0.3736	0.2243	-0.168
Mof_N 	N 	0.8325	0.4695	0.17067	-0.207
Mof_N 	N 	0.7895	0.627	0.8887	-0.155
Mof_N 	N 	0.818	0.5567	0.8926	-0.11
Mof_N 	N 	0.7887	0.5975	0.98274	-0.201
Mof_C 	C 	0.4975	0.7135	0.1624	0.109
Mof_H 	H 	0.5358	0.7559	0.1574	-0.022
Mof_C 	C 	0.4594	0.6069	0.1689	0.114
Mof_H 	H 	0.4653	0.5579	0.1691	-0.018
Mof_C 	C 	0.9253	0.7915	0.1523	0.1
Mof_H 	H 	0.8599	0.8135	0.1395	-0.017
Mof_C 	C 	0.0438	0.7136	0.1744	0.121
Mof_H 	H 	0.0788	0.6702	0.1801	-0.033
Mof_C 	C 	0.9137	0.424	0.1564	0.106
Mof_H 	H 	0.9678	0.4328	0.1275	-0.012
Mof_C 	C 	0.7773	0.4342	0.2134	0.118
Mof_H 	H 	0.7141	0.4513	0.2329	-0.027
Mof_C 	C 	0.7731	0.6496	0.943	0.11
Mof_H 	H 	0.7532	0.6957	0.9528	-0.03
Mof_C 	C 	0.8179	0.5408	0.9495	0.097
Mof_H 	H 	0.8355	0.4965	0.9649	-0.018
Mof_C 	C 	0.6572	0.6302	0.1346	0.384
Mof_C 	C 	0.739	0.6872	0.1564	-0.505
Mof_H 	H 	0.7355	0.6911	0.1995	0.167
Mof_H 	H 	0.7193	0.7326	0.1393	0.175
Mof_C 	C 	0.8564	0.6661	0.1371	0.376
Mof_C 	C 	0.8885	0.5943	0.1654	-0.523
Mof_H 	H 	0.8864	0.5979	0.2085	0.181
Mof_H 	H 	0.964	0.5813	0.1536	0.182
Mof_C 	C 	0.8066	0.5391	0.1445	0.399
Mof_C 	C 	0.687	0.5588	0.163	-0.522
Mof_H 	H 	0.6349	0.5228	0.1497	0.184
Mof_H 	H 	0.6821	0.5622	0.2061	0.187
Mof_C 	C 	0.6623	0.6242	0.0664	-0.515
Mof_H 	H 	0.6427	0.6691	0.0483	0.178
Mof_H 	H 	0.6096	0.5888	0.0526	0.179
Mof_C 	C 	0.7817	0.6033	0.0487	0.391
Mof_C 	C 	0.8629	0.6604	0.0683	-0.512
Mof_H 	H 	0.9385	0.6483	0.0561	0.178
Mof_H 	H 	0.843	0.7052	0.0502	0.177
Mof_C 	C 	0.8122	0.5325	0.0764	-0.524
Mof_H 	H 	0.7603	0.4964	0.0629	0.181
Mof_H 	H 	0.8872	0.5188	0.0643	0.181
Mof_Ag	Ag	0.22022	0.30243	0.19825	0.632
Mof_N 	N 	0.1066	0.2086	0.1784	-0.168
Mof_N 	N 	0.1306	0.1399	0.1834	-0.119
Mof_N 	N 	0.9571	0.1493	0.15378	-0.205
Mof_N 	N 	0.4852	0.3254	0.1681	-0.113
Mof_N 	N 	0.4083	0.2733	0.183	-0.164
Mof_N 	N 	0.5626	0.2209	0.1563	-0.204
Mof_N 	N 	0.5912	0.8665	0.1871	-0.117
Mof_N 	N 	0.6776	0.8736	0.2243	-0.168
Mof_N 	N 	0.6675	0.9695	0.17067	-0.207
Mof_N 	N 	0.7105	0.127	0.8887	-0.155
Mof_N 	N 	0.682	0.0567	0.8926	-0.11
Mof_N 	N 	0.7113	0.0975	0.98274	-0.201
Mof_C 	C 	0.0025	0.2135	0.1624	0.11
Mof_H 	H 	0.9642	0.2559	0.1574	-0.023
Mof_C 	C 	0.0406	0.1069	0.1689	0.115
Mof_H 	H 	0.0347	0.0579	0.1691	-0.018
Mof_C 	C 	0.5747	0.2915	0.1523	0.101
Mof_H 	H 	0.6401	0.3135	0.1395	-0.017
Mof_C 	C 	0.4562	0.2136	0.1744	0.121
Mof_H 	H 	0.4212	0.1702	0.1801	-0.033
Mof_C 	C 	0.5863	0.924	0.1564	0.106
Mof_H 	H 	0.5322	0.9328	0.1275	-0.012
Mof_C 	C 	0.7227	0.9342	0.2134	0.118
Mof_H 	H 	0.7859	0.9513	0.2329	-0.027
Mof_C 	C 	0.7269	0.1496	0.943	0.11
Mof_H 	H 	0.7468	0.1957	0.9528	-0.03
Mof_C 	C 	0.6821	0.0408	0.9495	0.098
Mof_H 	H 	0.6645	0.9965	0.9649	-0.018
Mof_C 	C 	0.8428	0.1302	0.1346	0.384
Mof_C 	C 	0.761	0.1872	0.1564	-0.505
Mof_H 	H 	0.7645	0.1911	0.1995	0.167
Mof_H 	H 	0.7807	0.2326	0.1393	0.175
Mof_C 	C 	0.6436	0.1661	0.1371	0.376
Mof_C 	C 	0.6115	0.0943	0.1654	-0.523
Mof_H 	H 	0.6136	0.0979	0.2085	0.181
Mof_H 	H 	0.536	0.0813	0.1536	0.182
Mof_C 	C 	0.6934	0.0391	0.1445	0.399
Mof_C 	C 	0.813	0.0588	0.163	-0.522
Mof_H 	H 	0.8651	0.0228	0.1497	0.184
Mof_H 	H 	0.8179	0.0622	0.2061	0.187
Mof_C 	C 	0.8377	0.1242	0.0664	-0.515
Mof_H 	H 	0.8573	0.1691	0.0483	0.178
Mof_H 	H 	0.8904	0.0888	0.0526	0.179
Mof_C 	C 	0.7183	0.1033	0.0487	0.391
Mof_C 	C 	0.6371	0.1604	0.0683	-0.512
Mof_H 	H 	0.5615	0.1483	0.0561	0.178
Mof_H 	H 	0.657	0.2052	0.0502	0.177
Mof_C 	C 	0.6878	0.0325	0.0764	-0.525
Mof_H 	H 	0.7397	0.9964	0.0629	0.182
Mof_H 	H 	0.6128	0.0188	0.0643	0.181
Mof_Ag	Ag	0.72022	0.19757	0.80175	0.632
Mof_N 	N 	0.6066	0.2914	0.8216	-0.167
Mof_N 	N 	0.6306	0.3601	0.8166	-0.119
Mof_N 	N 	0.4571	0.3507	0.84622	-0.205
Mof_N 	N 	0.9852	0.1746	0.8319	-0.112
Mof_N 	N 	0.9083	0.2267	0.817	-0.164
Mof_N 	N 	0.0626	0.2791	0.8437	-0.204
Mof_N 	N 	0.0912	0.6335	0.8129	-0.118
Mof_N 	N 	0.1776	0.6264	0.7757	-0.168
Mof_N 	N 	0.1675	0.5305	0.82933	-0.207
Mof_N 	N 	0.2105	0.373	0.1113	-0.155
Mof_N 	N 	0.182	0.4433	0.1074	-0.11
Mof_N 	N 	0.2113	0.4025	0.01726	-0.201
Mof_C 	C 	0.5025	0.2865	0.8376	0.109
Mof_H 	H 	0.4642	0.2441	0.8426	-0.022
Mof_C 	C 	0.5406	0.3931	0.8311	0.114
Mof_H 	H 	0.5347	0.4421	0.8309	-0.018
Mof_C 	C 	0.0747	0.2085	0.8477	0.1
Mof_H 	H 	0.1401	0.1865	0.8605	-0.017
Mof_C 	C 	0.9562	0.2864	0.8256	0.121
Mof_H 	H 	0.9212	0.3298	0.8199	-0.033
Mof_C 	C 	0.0863	0.576	0.8436	0.106
Mof_H 	H 	0.0322	0.5672	0.8725	-0.012
Mof_C 	C 	0.2227	0.5658	0.7866	0.118
Mof_H 	H 	0.2859	0.5487	0.7671	-0.027
Mof_C 	C 	0.2269	0.3504	0.057	0.11
Mof_H 	H 	0.2468	0.3043	0.0472	-0.03
Mof_C 	C 	0.1821	0.4592	0.0505	0.097
Mof_H 	H 	0.1645	0.5035	0.0351	-0.018
Mof_C 	C 	0.3428	0.3698	0.8654	0.384
Mof_C 	C 	0.261	0.3128	0.8436	-0.505
Mof_H 	H 	0.2645	0.3089	0.8005	0.167
Mof_H 	H 	0.2807	0.2674	0.8607	0.175
Mof_C 	C 	0.1436	0.3339	0.8629	0.376
Mof_C 	C 	0.1115	0.4057	0.8346	-0.523
Mof_H 	H 	0.1136	0.4021	0.7915	0.181
Mof_H 	H 	0.036	0.4187	0.8464	0.182
Mof_C 	C 	0.1934	0.4609	0.8555	0.399
Mof_C 	C 	0.313	0.4412	0.837	-0.522
Mof_H 	H 	0.3651	0.4772	0.8503	0.184
Mof_H 	H 	0.3179	0.4378	0.7939	0.187
Mof_C 	C 	0.3377	0.3758	0.9336	-0.515
Mof_H 	H 	0.3573	0.3309	0.9517	0.178
Mof_H 	H 	0.3904	0.4112	0.9474	0.179
Mof_C 	C 	0.2183	0.3967	0.9513	0.391
Mof_C 	C 	0.1371	0.3396	0.9317	-0.512
Mof_H 	H 	0.0615	0.3517	0.9439	0.178
Mof_H 	H 	0.157	0.2948	0.9498	0.177
Mof_C 	C 	0.1878	0.4675	0.9236	-0.524
Mof_H 	H 	0.2397	0.5036	0.9371	0.181
Mof_H 	H 	0.1128	0.4812	0.9357	0.181
Mof_Ag	Ag	0.72022	0.80243	0.30175	0.632
Mof_N 	N 	0.6066	0.7086	0.3216	-0.167
Mof_N 	N 	0.6306	0.6399	0.3166	-0.119
Mof_N 	N 	0.4571	0.6493	0.34622	-0.205
Mof_N 	N 	0.9852	0.8254	0.3319	-0.113
Mof_N 	N 	0.9083	0.7733	0.317	-0.164
Mof_N 	N 	0.0626	0.7209	0.3437	-0.204
Mof_N 	N 	0.0912	0.3665	0.3129	-0.117
Mof_N 	N 	0.1776	0.3736	0.2757	-0.168
Mof_N 	N 	0.1675	0.4695	0.32933	-0.207
Mof_N 	N 	0.2105	0.627	0.6113	-0.155
Mof_N 	N 	0.182	0.5567	0.6074	-0.11
Mof_N 	N 	0.2113	0.5975	0.51726	-0.201
Mof_C 	C 	0.5025	0.7135	0.3376	0.109
Mof_H 	H 	0.4642	0.7559	0.3426	-0.022
Mof_C 	C 	0.5406	0.6069	0.3311	0.114
Mof_H 	H 	0.5347	0.5579	0.3309	-0.018
Mof_C 	C 	0.0747	0.7915	0.3477	0.101
Mof_H 	H 	0.1401	0.8135	0.3605	-0.017
Mof_C 	C 	0.9562	0.7136	0.3256	0.121
Mof_H 	H 	0.9212	0.6702	0.3199	-0.033
Mof_C 	C 	0.0863	0.424	0.3436	0.106
Mof_H 	H 	0.0322	0.4328	0.3725	-0.012
Mof_C 	C 	0.2227	0.4342	0.2866	0.118
Mof_H 	H 	0.2859	0.4513	0.2671	-0.027
Mof_C 	C 	0.2269	0.6496	0.557	0.11
Mof_H 	H 	0.2468	0.6957	0.5472	-0.03
Mof_C 	C 	0.1821	0.5408	0.5505	0.097
Mof_H 	H 	0.1645	0.4965	0.5351	-0.018
Mof_C 	C 	0.3428	0.6302	0.3654	0.384
Mof_C 	C 	0.261	0.6872	0.3436	-0.505
Mof_H 	H 	0.2645	0.6911	0.3005	0.167
Mof_H 	H 	0.2807	0.7326	0.3607	0.175
Mof_C 	C 	0.1436	0.6661	0.3629	0.376
Mof_C 	C 	0.1115	0.5943	0.3346	-0.523
Mof_H 	H 	0.1136	0.5979	0.2915	0.181
Mof_H 	H 	0.036	0.5813	0.3464	0.182
Mof_C 	C 	0.1934	0.5391	0.3555	0.399
Mof_C 	C 	0.313	0.5588	0.337	-0.522
Mof_H 	H 	0.3651	0.5228	0.3503	0.184
Mof_H 	H 	0.3179	0.5622	0.2939	0.187
Mof_C 	C 	0.3377	0.6242	0.4336	-0.515
Mof_H 	H 	0.3573	0.6691	0.4517	0.178
Mof_H 	H 	0.3904	0.5888	0.4474	0.18
Mof_C 	C 	0.2183	0.6033	0.4513	0.391
Mof_C 	C 	0.1371	0.6604	0.4317	-0.512
Mof_H 	H 	0.0615	0.6483	0.4439	0.178
Mof_H 	H 	0.157	0.7052	0.4498	0.177
Mof_C 	C 	0.1878	0.5325	0.4236	-0.525
Mof_H 	H 	0.2397	0.4964	0.4371	0.181
Mof_H 	H 	0.1128	0.5188	0.4357	0.181
Mof_Ag	Ag	0.22022	0.69757	0.69825	0.632
Mof_N 	N 	0.1066	0.7914	0.6784	-0.167
Mof_N 	N 	0.1306	0.8601	0.6834	-0.119
Mof_N 	N 	0.9571	0.8507	0.65378	-0.204
Mof_N 	N 	0.4852	0.6746	0.6681	-0.113
Mof_N 	N 	0.4083	0.7267	0.683	-0.164
Mof_N 	N 	0.5626	0.7791	0.6563	-0.204
Mof_N 	N 	0.5912	0.1335	0.6871	-0.117
Mof_N 	N 	0.6776	0.1264	0.7243	-0.168
Mof_N 	N 	0.6675	0.0305	0.67067	-0.207
Mof_N 	N 	0.7105	0.873	0.3887	-0.155
Mof_N 	N 	0.682	0.9433	0.3926	-0.11
Mof_N 	N 	0.7113	0.9025	0.48274	-0.201
Mof_C 	C 	0.0025	0.7865	0.6624	0.109
Mof_H 	H 	0.9642	0.7441	0.6574	-0.022
Mof_C 	C 	0.0406	0.8931	0.6689	0.114
Mof_H 	H 	0.0347	0.9421	0.6691	-0.018
Mof_C 	C 	0.5747	0.7085	0.6523	0.101
Mof_H 	H 	0.6401	0.6865	0.6395	-0.017
Mof_C 	C 	0.4562	0.7864	0.6744	0.121
Mof_H 	H 	0.4212	0.8298	0.6801	-0.033
Mof_C 	C 	0.5863	0.076	0.6564	0.106
Mof_H 	H 	0.5322	0.0672	0.6275	-0.012
Mof_C 	C 	0.7227	0.0658	0.7134	0.118
Mof_H 	H 	0.7859	0.0487	0.7329	-0.027
Mof_C 	C 	0.7269	0.8504	0.443	0.11
Mof_H 	H 	0.7468	0.8043	0.4528	-0.03
Mof_C 	C 	0.6821	0.9592	0.4495	0.097
Mof_H 	H 	0.6645	0.0035	0.4649	-0.018
Mof_C 	C 	0.8428	0.8698	0.6346	0.384
Mof_C 	C 	0.761	0.8128	0.6564	-0.505
Mof_H 	H 	0.7645	0.8089	0.6995	0.167
Mof_H 	H 	0.7807	0.7674	0.6393	0.175
Mof_C 	C 	0.6436	0.8339	0.6371	0.376
Mof_C 	C 	0.6115	0.9057	0.6654	-0.523
Mof_H 	H 	0.6136	0.9021	0.7085	0.181
Mof_H 	H 	0.536	0.9187	0.6536	0.182
Mof_C 	C 	0.6934	0.9609	0.6445	0.399
Mof_C 	C 	0.813	0.9412	0.663	-0.522
Mof_H 	H 	0.8651	0.9772	0.6497	0.184
Mof_H 	H 	0.8179	0.9378	0.7061	0.187
Mof_C 	C 	0.8377	0.8758	0.5664	-0.515
Mof_H 	H 	0.8573	0.8309	0.5483	0.178
Mof_H 	H 	0.8904	0.9112	0.5526	0.18
Mof_C 	C 	0.7183	0.8967	0.5487	0.391
Mof_C 	C 	0.6371	0.8396	0.5683	-0.512
Mof_H 	H 	0.5615	0.8517	0.5561	0.178
Mof_H 	H 	0.657	0.7948	0.5502	0.177
Mof_C 	C 	0.6878	0.9675	0.5764	-0.525
Mof_H 	H 	0.7397	0.0036	0.5629	0.181
Mof_H 	H 	0.6128	0.9812	0.5643	0.181
_end
