data_functionalizedCrystal
_audit_creation_method	'EQeq! by Chris Wilmer'
_symmetry_space_group_name_H-M	'P1'
_symmetry_Int_Tables_number	1
_symmetry_cell_setting	triclinic
loop_
_symmetry_equiv_pos_as_xyz
  x,y,z
_cell_length_a	12.7137
_cell_length_b	13.3301
_cell_length_c	13.4034
_cell_angle_alpha	64.676
_cell_angle_beta	61.81
_cell_angle_gamma	84.079
loop_
_atom_site_label
_atom_site_type_symbol
_atom_site_fract_x
_atom_site_fract_y
_atom_site_fract_z
_atom_site_charge
Mof_W 	W 	0.85169	0.26308	0.54495	1.013
Mof_W 	W 	0.97449	0.74266	0.76313	1.05
Mof_W 	W 	0.82595	0.96526	0.75227	0.982
Mof_W 	W 	0.00382	0.20566	0.70131	0.655
Mof_W 	W 	0.8508	0.01618	0.29184	1.014
Mof_W 	W 	0.82791	0.82173	0.59619	0.98
Mof_O 	O 	0.908	0.4077	0.4831	-0.479
Mof_O 	O 	0.8265	0.0881	0.6203	-0.387
Mof_O 	O 	0.8639	0.6994	0.7318	-0.421
Mof_O 	O 	0.8352	0.9585	0.4725	-0.396
Mof_O 	O 	0.7393	0.8718	0.7289	-0.415
Mof_O 	O 	0.8629	0.8144	0.8565	-0.391
Mof_O 	O 	0.036	0.2197	0.5154	-0.435
Mof_O 	O 	0.0999	0.842	0.7356	-0.431
Mof_O 	O 	0.8466	0.8551	0.3409	-0.448
Mof_O 	O 	0.9607	0.0263	0.7427	-0.363
Mof_O 	O 	0.9606	0.9017	0.616	-0.292
Mof_O 	O 	0.8521	0.2252	0.7035	-0.412
Mof_O 	O 	0.8957	0.2644	0.3883	-0.401
Mof_O 	O 	0.8992	0.0449	0.1312	-0.492
Mof_N 	N 	0.8556	0.4901	0.6584	-0.211
Mof_C 	C 	0.8605	0.4701	0.7609	0.034
Mof_H 	H 	0.9332	0.4565	0.7622	0.005
Mof_O 	O 	0.4506	0.5377	0.8736	-0.35
Mof_N 	N 	0.6544	0.4897	0.8676	-0.174
Mof_C 	C 	0.7468	0.5065	0.6606	0.031
Mof_H 	H 	0.7393	0.5175	0.591	0.004
Mof_O 	O 	0.5145	0.55	0.6809	-0.24
Mof_C 	C 	0.6473	0.5066	0.7672	-0.061
Mof_C 	C 	0.7596	0.469	0.8677	-0.001
Mof_H 	H 	0.7655	0.4537	0.9392	0.047
Mof_C 	C 	0.5306	0.5293	0.7737	0.271
Mof_Cu	Cu	0.989	0.997	0.009	0.59
Mof_O 	O 	0.8588	0.91	0.0377	-0.338
Mof_W 	W 	0.14831	0.73692	0.45505	0.982
Mof_W 	W 	0.02551	0.25734	0.23687	0.925
Mof_W 	W 	0.17405	0.03474	0.24773	0.963
Mof_W 	W 	0.99618	0.79434	0.29869	0.704
Mof_W 	W 	0.1492	0.98382	0.70816	0.975
Mof_W 	W 	0.17209	0.17827	0.40381	0.971
Mof_O 	O 	0.092	0.5923	0.5169	-0.499
Mof_O 	O 	0.1735	0.9119	0.3797	-0.408
Mof_O 	O 	0.1361	0.3006	0.2682	-0.424
Mof_O 	O 	0.1648	0.0415	0.5275	-0.394
Mof_O 	O 	0.2607	0.1282	0.2711	-0.428
Mof_O 	O 	0.1371	0.1856	0.1435	-0.427
Mof_O 	O 	0.964	0.7803	0.4846	-0.407
Mof_O 	O 	0.9001	0.158	0.2644	-0.408
Mof_O 	O 	0.1534	0.1449	0.6591	-0.429
Mof_O 	O 	0.0393	0.9737	0.2573	-0.434
Mof_O 	O 	0.0394	0.0983	0.384	-0.302
Mof_O 	O 	0.1479	0.7748	0.2965	-0.46
Mof_O 	O 	0.1043	0.7356	0.6117	-0.436
Mof_O 	O 	0.1008	0.9551	0.8688	-0.448
Mof_N 	N 	0.1444	0.5099	0.3416	-0.222
Mof_C 	C 	0.1395	0.5299	0.2391	0.023
Mof_H 	H 	0.0668	0.5435	0.2378	-0.027
Mof_O 	O 	0.5494	0.4623	0.1264	-0.416
Mof_N 	N 	0.3456	0.5103	0.1324	-0.202
Mof_C 	C 	0.2532	0.4935	0.3394	0.029
Mof_H 	H 	0.2607	0.4825	0.409	0.002
Mof_O 	O 	0.4855	0.45	0.3191	-0.253
Mof_C 	C 	0.3527	0.4934	0.2328	-0.077
Mof_C 	C 	0.2404	0.531	0.1323	-0.013
Mof_H 	H 	0.2345	0.5463	0.0608	-0.003
Mof_C 	C 	0.4694	0.4707	0.2263	0.273
Mof_Cu	Cu	0.011	0.003	0.991	0.255
Mof_O 	O 	0.1412	0.09	0.9623	-0.243
Mof_Cu	Cu	4.74827e-17	0.5	0.5	0.867
Mof_Cu	Cu	0.5	0.5	-0	0.853
_end
