data_functionalizedCrystal
_audit_creation_method	'EQeq! by Chris Wilmer'
_symmetry_space_group_name_H-M	'P1'
_symmetry_Int_Tables_number	1
_symmetry_cell_setting	triclinic
loop_
_symmetry_equiv_pos_as_xyz
  x,y,z
_cell_length_a	18.861
_cell_length_b	20.019
_cell_length_c	20.019
_cell_angle_alpha	90
_cell_angle_beta	90
_cell_angle_gamma	90
loop_
_atom_site_label
_atom_site_type_symbol
_atom_site_fract_x
_atom_site_fract_y
_atom_site_fract_z
_atom_site_charge
Mof_Mn	Mn	0.44591	0.21578	0.16469	0.838
Mof_Mn	Mn	0.75	0.79018	0.29018	0.901
Mof_Mn	Mn	0.84803	0.71013	0.71956	0.854
Mof_Mn	Mn	0.22484	0.9214	0.79369	0.804
Mof_Mn	Mn	0.94707	0.29598	0.44822	0.801
Mof_Mn	Mn	0.27516	0.29369	0.4214	0.804
Mof_Mn	Mn	0.55293	0.05178	0.20402	0.801
Mof_Mn	Mn	0.05293	0.44822	0.70402	0.801
Mof_Mn	Mn	0.3795	0.42806	0.76829	0.84
Mof_Mn	Mn	0.94591	0.71578	0.33531	0.838
Mof_Mn	Mn	0.27516	0.70631	0.5786	0.804
Mof_Mn	Mn	0.6205	0.23171	0.42806	0.84
Mof_Mn	Mn	0.34803	0.21013	0.78044	0.853
Mof_Mn	Mn	0.44591	0.78422	0.83531	0.837
Mof_Mn	Mn	0.05409	0.66469	0.71578	0.837
Mof_Mn	Mn	0.77516	0.79369	0.0786	0.803
Mof_Mn	Mn	0.84803	0.28987	0.28044	0.853
Mof_Mn	Mn	0.25	0.29018	0.20982	0.9
Mof_Mn	Mn	0.3795	0.57194	0.23171	0.839
Mof_Mn	Mn	0.8795	0.92806	0.73171	0.839
Mof_Mn	Mn	0.72484	0.4214	0.70631	0.803
Mof_Mn	Mn	0.15197	0.28044	0.71013	0.853
Mof_Mn	Mn	0.75	0.20982	0.70982	0.9
Mof_Mn	Mn	0.8795	0.07194	0.26829	0.839
Mof_Mn	Mn	0.65197	0.21956	0.21013	0.853
Mof_Mn	Mn	0.15197	0.71956	0.28987	0.853
Mof_Mn	Mn	0.1205	0.26829	0.92806	0.839
Mof_Mn	Mn	0.34803	0.78987	0.21956	0.853
Mof_Mn	Mn	0.22484	0.0786	0.20631	0.803
Mof_Mn	Mn	0.94707	0.70402	0.55178	0.8
Mof_Mn	Mn	0.44707	0.79598	0.05178	0.8
Mof_Mn	Mn	0.77516	0.20631	0.9214	0.803
Mof_Mn	Mn	0.72484	0.5786	0.29369	0.803
Mof_Mn	Mn	0.55293	0.94822	0.79598	0.8
Mof_Mn	Mn	0.55409	0.16469	0.78422	0.837
Mof_Mn	Mn	0.94591	0.28422	0.66469	0.837
Mof_Mn	Mn	0.25	0.70982	0.79018	0.9
Mof_Mn	Mn	0.6205	0.76829	0.57194	0.839
Mof_Mn	Mn	0.55409	0.83531	0.21578	0.837
Mof_Mn	Mn	0.1205	0.73171	0.07194	0.839
Mof_Mn	Mn	0.05409	0.33531	0.28422	0.837
Mof_Mn	Mn	0.65197	0.78044	0.78987	0.853
Mof_Mn	Mn	0.05293	0.55178	0.29598	0.8
Mof_Mn	Mn	0.44707	0.20402	0.94822	0.8
Mof_H 	H 	0.2541	0.6844	0.2204	0.263
Mof_H 	H 	0.7459	0.7796	0.6844	0.263
Mof_H 	H 	0.2541	0.3156	0.7796	0.263
Mof_H 	H 	0.2459	0.7204	0.1844	0.263
Mof_H 	H 	0.2459	0.2796	0.8156	0.263
Mof_H 	H 	0.7541	0.8156	0.7204	0.263
Mof_H 	H 	0.7541	0.1844	0.2796	0.263
Mof_H 	H 	0.7459	0.2204	0.3156	0.263
Mof_C 	C 	0.2114	0.4275	0.7419	0.347
Mof_C 	C 	0.0992	0.3066	0.5019	-0.031
Mof_C 	C 	0.5877	0.6503	0.2484	-0.039
Mof_C 	C 	0.7435	0.0565	0.7396	-0.036
Mof_C 	C 	0.7565	0.7604	0.4435	-0.036
Mof_C 	C 	0.7012	0.9996	0.2445	-0.04
Mof_C 	C 	0.9008	0.5019	0.6934	-0.031
Mof_C 	C 	0.5171	0.6503	0.2355	-0.036
Mof_C 	C 	0.8562	0.7531	0.2039	0.352
Mof_C 	C 	0.9123	0.2516	0.8497	-0.039
Mof_C 	C 	0.2886	0.2419	0.9275	0.347
Mof_C 	C 	0.3176	0.4311	0.2125	0.37
Mof_C 	C 	0.2886	0.7581	0.0725	0.347
Mof_C 	C 	0.9603	0.7997	0.7261	0.33
Mof_C 	C 	0.9123	0.7484	0.1503	-0.039
Mof_C 	C 	0.8572	0.5558	0.7012	-0.02
Mof_C 	C 	0.8176	0.0689	0.7125	0.37
Mof_C 	C 	0.0397	0.7261	0.2003	0.33
Mof_C 	C 	0.2012	0.5004	0.7445	-0.04
Mof_C 	C 	0.5877	0.3497	0.7516	-0.039
Mof_C 	C 	0.2565	0.7396	0.9435	-0.036
Mof_C 	C 	0.7886	0.7419	0.5725	0.347
Mof_C 	C 	0.6824	0.7875	0.4311	0.37
Mof_C 	C 	0.1428	0.7012	0.4442	-0.02
Mof_C 	C 	0.2988	0.7555	0.9996	-0.04
Mof_C 	C 	0.278	0.0704	0.7968	0.332
Mof_C 	C 	0.8924	0.5718	0.32	0.367
Mof_C 	C 	0.4008	0.0019	0.8066	-0.032
Mof_C 	C 	0.4008	0.9981	0.1934	-0.032
Mof_C 	C 	0.6076	0.18	0.9282	0.368
Mof_C 	C 	0.278	0.9296	0.2032	0.332
Mof_C 	C 	0.8572	0.4442	0.2988	-0.02
Mof_C 	C 	0.1824	0.7125	0.9311	0.37
Mof_C 	C 	0.6824	0.2125	0.5689	0.37
Mof_C 	C 	0.9603	0.2003	0.2739	0.33
Mof_C 	C 	0.7988	0.7445	0.4996	-0.04
Mof_C 	C 	0.222	0.7032	0.4296	0.332
Mof_C 	C 	0.5992	0.1934	0.0019	-0.032
Mof_C 	C 	0.2565	0.2604	0.0565	-0.036
Mof_C 	C 	0.1076	0.68	0.5718	0.367
Mof_C 	C 	0.2988	0.2445	0.0004	-0.04
Mof_C 	C 	0.778	0.5704	0.7032	0.332
Mof_C 	C 	0.3924	0.0718	0.18	0.368
Mof_C 	C 	0.9008	0.4981	0.3066	-0.031
Mof_C 	C 	0.3562	0.2531	0.2961	0.352
Mof_C 	C 	0.778	0.4296	0.2968	0.332
Mof_C 	C 	0.5992	0.8066	0.9981	-0.032
Mof_C 	C 	0.722	0.2032	0.0704	0.332
Mof_C 	C 	0.7435	0.9435	0.2604	-0.036
Mof_C 	C 	0.6076	0.82	0.0718	0.368
Mof_C 	C 	0.6428	0.7988	0.9442	-0.02
Mof_C 	C 	0.0397	0.2739	0.7997	0.33
Mof_C 	C 	0.7988	0.2555	0.5004	-0.04
Mof_C 	C 	0.6428	0.2012	0.0558	-0.02
Mof_C 	C 	0.3572	0.9442	0.2012	-0.02
Mof_C 	C 	0.6438	0.2961	0.7469	0.352
Mof_C 	C 	0.3572	0.0558	0.7988	-0.02
Mof_C 	C 	0.7012	0.0004	0.7555	-0.04
Mof_C 	C 	0.4829	0.2355	0.3497	-0.036
Mof_C 	C 	0.1438	0.7961	0.7531	0.352
Mof_C 	C 	0.8562	0.2469	0.7961	0.352
Mof_C 	C 	0.4829	0.7645	0.6503	-0.036
Mof_C 	C 	0.4123	0.7516	0.6503	-0.039
Mof_C 	C 	0.2435	0.5565	0.7604	-0.036
Mof_C 	C 	0.7114	0.0725	0.2419	0.347
Mof_C 	C 	0.7565	0.2396	0.5565	-0.036
Mof_C 	C 	0.9829	0.7355	0.1503	-0.037
Mof_C 	C 	0.0877	0.8497	0.7484	-0.039
Mof_C 	C 	0.5171	0.3497	0.7645	-0.036
Mof_C 	C 	0.8176	0.9311	0.2875	0.37
Mof_C 	C 	0.0877	0.1503	0.2516	-0.039
Mof_C 	C 	0.8924	0.4282	0.68	0.367
Mof_C 	C 	0.0992	0.6934	0.4981	-0.031
Mof_C 	C 	0.2435	0.4435	0.2396	-0.036
Mof_C 	C 	0.4603	0.7003	0.2261	0.33
Mof_C 	C 	0.9829	0.2645	0.8497	-0.037
Mof_C 	C 	0.222	0.2968	0.5704	0.332
Mof_C 	C 	0.1076	0.32	0.4282	0.367
Mof_C 	C 	0.1428	0.2988	0.5558	-0.02
Mof_C 	C 	0.3562	0.7469	0.7039	0.352
Mof_C 	C 	0.7114	0.9275	0.7581	0.347
Mof_C 	C 	0.5397	0.2261	0.2997	0.33
Mof_C 	C 	0.1438	0.2039	0.2469	0.352
Mof_C 	C 	0.6438	0.7039	0.2531	0.352
Mof_C 	C 	0.4603	0.2997	0.7739	0.33
Mof_C 	C 	0.1824	0.2875	0.0689	0.37
Mof_C 	C 	0.2114	0.5725	0.2581	0.347
Mof_C 	C 	0.7886	0.2581	0.4275	0.347
Mof_C 	C 	0.3924	0.9282	0.82	0.368
Mof_C 	C 	0.0171	0.8497	0.7355	-0.037
Mof_C 	C 	0.722	0.7968	0.9296	0.332
Mof_C 	C 	0.0171	0.1503	0.2645	-0.037
Mof_C 	C 	0.5397	0.7739	0.7003	0.33
Mof_C 	C 	0.2012	0.4996	0.2555	-0.04
Mof_C 	C 	0.3176	0.5689	0.7875	0.37
Mof_C 	C 	0.4123	0.2484	0.3497	-0.039
Mof_N 	N 	0.3997	0.8889	0.2107	-0.145
Mof_N 	N 	0.5051	0.7612	0.5856	-0.14
Mof_N 	N 	0.4684	0.9756	0.1954	-0.133
Mof_N 	N 	0.0527	0.9523	0.7498	-0.056
Mof_N 	N 	0.7287	0.9698	0.9318	-0.07
Mof_N 	N 	0.5956	0.3542	0.9434	-0.082
Mof_N 	N 	0.9656	0.5905	0.7062	-0.123
Mof_N 	N 	0.9044	0.5566	0.1458	-0.082
Mof_N 	N 	0.6003	0.2107	0.1111	-0.145
Mof_N 	N 	0.8629	0.2738	0.5253	-0.128
Mof_N 	N 	0.0051	0.7388	0.0856	-0.14
Mof_N 	N 	0.3629	0.7738	0.9747	-0.128
Mof_N 	N 	0.9473	0.7498	0.0477	-0.056
Mof_N 	N 	0.4161	0.1017	0.9476	-0.137
Mof_N 	N 	0.0051	0.2612	0.9144	-0.14
Mof_N 	N 	0.9949	0.0856	0.2612	-0.14
Mof_N 	N 	0.5839	0.9476	0.8983	-0.137
Mof_N 	N 	0.7713	0.4318	0.4698	-0.069
Mof_N 	N 	0.2287	0.5302	0.4318	-0.069
Mof_N 	N 	0.2287	0.4698	0.5682	-0.069
Mof_N 	N 	0.9684	0.5244	0.6954	-0.133
Mof_N 	N 	0.4718	0.9376	0.6701	-0.049
Mof_N 	N 	0.4718	0.0624	0.3299	-0.049
Mof_N 	N 	0.4656	0.0905	0.7938	-0.123
Mof_N 	N 	0.1371	0.5253	0.7262	-0.128
Mof_N 	N 	0.1003	0.2893	0.6111	-0.145
Mof_N 	N 	0.9718	0.4376	0.8299	-0.049
Mof_N 	N 	0.6086	0.4138	0.7422	-0.128
Mof_N 	N 	0.8473	0.4139	0.4694	-0.049
Mof_N 	N 	0.0316	0.3046	0.5244	-0.133
Mof_N 	N 	0.6086	0.5862	0.2578	-0.128
Mof_N 	N 	0.0839	0.4476	0.6017	-0.137
Mof_N 	N 	0.9161	0.3983	0.4476	-0.137
Mof_N 	N 	0.5282	0.6701	0.0624	-0.049
Mof_N 	N 	0.6003	0.7893	0.8889	-0.145
Mof_N 	N 	0.9699	0.8092	0.5694	-0.142
Mof_N 	N 	0.4044	0.9434	0.6458	-0.082
Mof_N 	N 	0.9684	0.4756	0.3046	-0.133
Mof_N 	N 	0.4473	0.2498	0.4523	-0.056
Mof_N 	N 	0.6395	0.9088	0.232	-0.118
Mof_N 	N 	0.1086	0.0862	0.2422	-0.128
Mof_N 	N 	0.9473	0.2502	0.9523	-0.056
Mof_N 	N 	0.7966	0.246	0.6105	-0.122
Mof_N 	N 	0.6371	0.0253	0.7738	-0.128
Mof_N 	N 	0.3473	0.9139	0.0306	-0.05
Mof_N 	N 	0.3473	0.0861	0.9694	-0.05
Mof_N 	N 	0.9949	0.9144	0.7388	-0.14
Mof_N 	N 	0.4699	0.6908	0.0694	-0.142
Mof_N 	N 	0.0344	0.7062	0.4095	-0.123
Mof_N 	N 	0.0316	0.6954	0.4756	-0.133
Mof_N 	N 	0.8914	0.7578	0.0862	-0.128
Mof_N 	N 	0.0839	0.5524	0.3983	-0.137
Mof_N 	N 	0.4699	0.3092	0.9306	-0.142
Mof_N 	N 	0.8605	0.732	0.4088	-0.118
Mof_N 	N 	0.5301	0.0694	0.3092	-0.142
Mof_N 	N 	0.8473	0.5861	0.5306	-0.049
Mof_N 	N 	0.4949	0.4144	0.7612	-0.14
Mof_N 	N 	0.0527	0.0477	0.2502	-0.056
Mof_N 	N 	0.0344	0.2938	0.5905	-0.123
Mof_N 	N 	0.9699	0.1908	0.4306	-0.142
Mof_N 	N 	0.2966	0.746	0.8895	-0.122
Mof_N 	N 	0.0282	0.8299	0.5624	-0.049
Mof_N 	N 	0.2713	0.0682	0.9698	-0.07
Mof_N 	N 	0.5527	0.5477	0.2498	-0.056
Mof_N 	N 	0.3629	0.2262	0.0253	-0.128
Mof_N 	N 	0.7713	0.5682	0.5302	-0.069
Mof_N 	N 	0.5527	0.4523	0.7502	-0.056
Mof_N 	N 	0.0282	0.1701	0.4376	-0.049
Mof_N 	N 	0.3914	0.7422	0.5862	-0.128
Mof_N 	N 	0.5282	0.3299	0.9376	-0.049
Mof_N 	N 	0.1003	0.7107	0.3889	-0.145
Mof_N 	N 	0.4684	0.0244	0.8046	-0.133
Mof_N 	N 	0.7034	0.8895	0.254	-0.122
Mof_N 	N 	0.9718	0.5624	0.1701	-0.049
Mof_N 	N 	0.9161	0.6017	0.5524	-0.137
Mof_N 	N 	0.7034	0.1105	0.746	-0.122
Mof_N 	N 	0.0301	0.5694	0.1908	-0.142
Mof_N 	N 	0.8997	0.3889	0.2893	-0.145
Mof_N 	N 	0.8914	0.2422	0.9138	-0.128
Mof_N 	N 	0.3605	0.768	0.9088	-0.118
Mof_N 	N 	0.8605	0.268	0.5912	-0.118
Mof_N 	N 	0.0301	0.4306	0.8092	-0.142
Mof_N 	N 	0.5301	0.9306	0.6908	-0.142
Mof_N 	N 	0.6527	0.0306	0.0861	-0.05
Mof_N 	N 	0.2713	0.9318	0.0302	-0.07
Mof_N 	N 	0.2034	0.6105	0.754	-0.122
Mof_N 	N 	0.3997	0.1111	0.7893	-0.145
Mof_N 	N 	0.4656	0.9095	0.2062	-0.123
Mof_N 	N 	0.5956	0.6458	0.0566	-0.082
Mof_N 	N 	0.9044	0.4434	0.8542	-0.082
Mof_N 	N 	0.7966	0.754	0.3895	-0.122
Mof_N 	N 	0.3914	0.2578	0.4138	-0.128
Mof_N 	N 	0.2966	0.254	0.1105	-0.122
Mof_N 	N 	0.4044	0.0566	0.3542	-0.082
Mof_N 	N 	0.6395	0.0912	0.768	-0.118
Mof_N 	N 	0.4949	0.5856	0.2388	-0.14
Mof_N 	N 	0.6527	0.9694	0.9139	-0.05
Mof_N 	N 	0.2034	0.3895	0.246	-0.122
Mof_N 	N 	0.8629	0.7262	0.4747	-0.128
Mof_N 	N 	0.8997	0.6111	0.7107	-0.145
Mof_N 	N 	0.9656	0.4095	0.2938	-0.123
Mof_N 	N 	0.5316	0.1954	0.0244	-0.133
Mof_N 	N 	0.5344	0.2062	0.0905	-0.123
Mof_N 	N 	0.4473	0.7502	0.5477	-0.056
Mof_N 	N 	0.0956	0.1458	0.4434	-0.082
Mof_N 	N 	0.1527	0.5306	0.4139	-0.049
Mof_N 	N 	0.1371	0.4747	0.2738	-0.128
Mof_N 	N 	0.7287	0.0302	0.0682	-0.07
Mof_N 	N 	0.5051	0.2388	0.4144	-0.14
Mof_N 	N 	0.1086	0.9138	0.7578	-0.128
Mof_N 	N 	0.5839	0.0524	0.1017	-0.137
Mof_N 	N 	0.5344	0.7938	0.9095	-0.123
Mof_N 	N 	0.1395	0.5912	0.732	-0.118
Mof_N 	N 	0.6371	0.9747	0.2262	-0.128
Mof_N 	N 	0.0956	0.8542	0.5566	-0.082
Mof_N 	N 	0.1395	0.4088	0.268	-0.118
Mof_N 	N 	0.1527	0.4694	0.5861	-0.049
Mof_N 	N 	0.5316	0.8046	0.9756	-0.133
Mof_N 	N 	0.3605	0.232	0.0912	-0.118
Mof_N 	N 	0.4161	0.8983	0.0524	-0.137
Mof_O 	O 	0.1039	0.2719	0.8214	-0.415
Mof_O 	O 	0.7038	0.6862	0.2766	-0.426
Mof_O 	O 	0.9486	0.3948	0.6767	-0.418
Mof_O 	O 	0.829	0.1265	0.6937	-0.361
Mof_O 	O 	0.8961	0.1786	0.2719	-0.415
Mof_O 	O 	0.766	0.801	0.9747	-0.376
Mof_O 	O 	0.3961	0.3214	0.7719	-0.415
Mof_O 	O 	0.7038	0.3138	0.7234	-0.426
Mof_O 	O 	0.7301	0.7567	0.5974	-0.402
Mof_O 	O 	0.2038	0.8138	0.7766	-0.426
Mof_O 	O 	0.25	0.7263	0.2263	-0.675
Mof_O 	O 	0.25	0.2737	0.7737	-0.675
Mof_O 	O 	0.734	0.4747	0.301	-0.376
Mof_O 	O 	0.7373	0.7888	0.8673	-0.33
Mof_O 	O 	0.6319	0.7613	0.2364	-0.416
Mof_O 	O 	0.766	0.199	0.0253	-0.376
Mof_O 	O 	0.3323	0.096	0.1739	-0.378
Mof_O 	O 	0.6677	0.1739	0.904	-0.378
Mof_O 	O 	0.329	0.6265	0.8063	-0.36
Mof_O 	O 	0.6039	0.2281	0.3214	-0.415
Mof_O 	O 	0.6319	0.2387	0.7636	-0.416
Mof_O 	O 	0.8961	0.8214	0.7281	-0.415
Mof_O 	O 	0.8681	0.2636	0.7387	-0.416
Mof_O 	O 	0.2038	0.1862	0.2234	-0.426
Mof_O 	O 	0.2627	0.1327	0.7888	-0.33
Mof_O 	O 	0.3434	0.7742	0.1078	-0.406
Mof_O 	O 	0.1677	0.3261	0.404	-0.378
Mof_O 	O 	0.1566	0.6078	0.2742	-0.406
Mof_O 	O 	0.2699	0.5974	0.2433	-0.402
Mof_O 	O 	0.8629	0.976	0.2855	-0.418
Mof_O 	O 	0.6371	0.2145	0.524	-0.418
Mof_O 	O 	0.4486	0.8948	0.8233	-0.418
Mof_O 	O 	0.3681	0.7636	0.7613	-0.416
Mof_O 	O 	0.7962	0.7766	0.1862	-0.426
Mof_O 	O 	0.2962	0.7234	0.6862	-0.426
Mof_O 	O 	0.8434	0.7258	0.6078	-0.406
Mof_O 	O 	0.266	0.699	0.4747	-0.376
Mof_O 	O 	0.671	0.1937	0.6265	-0.36
Mof_O 	O 	0.1319	0.7387	0.7364	-0.416
Mof_O 	O 	0.6566	0.1078	0.2258	-0.406
Mof_O 	O 	0.8681	0.7364	0.2613	-0.416
Mof_O 	O 	0.266	0.301	0.5253	-0.376
Mof_O 	O 	0.5514	0.8233	0.1052	-0.418
Mof_O 	O 	0.9705	0.739	0.7156	-0.437
Mof_O 	O 	0.7627	0.3673	0.2888	-0.33
Mof_O 	O 	0.2373	0.7112	0.3673	-0.33
Mof_O 	O 	0.8323	0.404	0.6739	-0.378
Mof_O 	O 	0.171	0.6937	0.8735	-0.361
Mof_O 	O 	0.4705	0.239	0.7844	-0.437
Mof_O 	O 	0.6039	0.7719	0.6786	-0.415
Mof_O 	O 	0.734	0.5253	0.699	-0.376
Mof_O 	O 	0.0295	0.2844	0.739	-0.437
Mof_O 	O 	0.0514	0.6767	0.6052	-0.418
Mof_O 	O 	0.3323	0.904	0.8261	-0.378
Mof_O 	O 	0.7627	0.6327	0.7112	-0.33
Mof_O 	O 	0.671	0.8063	0.3735	-0.36
Mof_O 	O 	0.2373	0.2888	0.6327	-0.33
Mof_O 	O 	0.1677	0.6739	0.596	-0.378
Mof_O 	O 	0.171	0.3063	0.1265	-0.361
Mof_O 	O 	0.7962	0.2234	0.8138	-0.426
Mof_O 	O 	0.234	0.9747	0.199	-0.376
Mof_O 	O 	0.2301	0.2567	0.9026	-0.402
Mof_O 	O 	0.0295	0.7156	0.261	-0.437
Mof_O 	O 	0.7301	0.2433	0.4026	-0.402
Mof_O 	O 	0.6371	0.7855	0.476	-0.418
Mof_O 	O 	0.5295	0.7844	0.761	-0.437
Mof_O 	O 	0.234	0.0253	0.801	-0.376
Mof_O 	O 	0.5295	0.2156	0.239	-0.437
Mof_O 	O 	0.3681	0.2364	0.2387	-0.416
Mof_O 	O 	0.3961	0.6786	0.2281	-0.415
Mof_O 	O 	0.75	0.7737	0.7263	-0.675
Mof_O 	O 	0.8323	0.596	0.3261	-0.378
Mof_O 	O 	0.8434	0.2742	0.3922	-0.406
Mof_O 	O 	0.2699	0.4026	0.7567	-0.402
Mof_O 	O 	0.2627	0.8673	0.2112	-0.33
Mof_O 	O 	0.7699	0.9026	0.7433	-0.402
Mof_O 	O 	0.3629	0.476	0.2145	-0.418
Mof_O 	O 	0.1566	0.3922	0.7258	-0.406
Mof_O 	O 	0.6566	0.8922	0.7742	-0.406
Mof_O 	O 	0.3434	0.2258	0.8922	-0.406
Mof_O 	O 	0.4486	0.1052	0.1767	-0.418
Mof_O 	O 	0.6677	0.8261	0.096	-0.378
Mof_O 	O 	0.829	0.8735	0.3063	-0.361
Mof_O 	O 	0.4705	0.761	0.2156	-0.437
Mof_O 	O 	0.5514	0.1767	0.8948	-0.418
Mof_O 	O 	0.3629	0.524	0.7855	-0.418
Mof_O 	O 	0.1319	0.2613	0.2636	-0.416
Mof_O 	O 	0.8629	0.024	0.7145	-0.418
Mof_O 	O 	0.329	0.3735	0.1937	-0.36
Mof_O 	O 	0.75	0.2263	0.2737	-0.675
Mof_O 	O 	0.1039	0.7281	0.1786	-0.415
Mof_O 	O 	0.2962	0.2766	0.3138	-0.426
Mof_O 	O 	0.1371	0.2855	0.024	-0.418
Mof_O 	O 	0.0514	0.3233	0.3948	-0.418
Mof_O 	O 	0.9486	0.6052	0.3233	-0.418
Mof_O 	O 	0.2301	0.7433	0.0974	-0.402
Mof_O 	O 	0.7373	0.2112	0.1327	-0.33
Mof_O 	O 	0.9705	0.261	0.2844	-0.437
Mof_O 	O 	0.7699	0.0974	0.2567	-0.402
Mof_O 	O 	0.1371	0.7145	0.976	-0.418
_end
