data_functionalizedCrystal
_audit_creation_method	'EQeq! by Chris Wilmer'
_symmetry_space_group_name_H-M	'P1'
_symmetry_Int_Tables_number	1
_symmetry_cell_setting	triclinic
loop_
_symmetry_equiv_pos_as_xyz
  x,y,z
_cell_length_a	7.73
_cell_length_b	21.26
_cell_length_c	21.26
_cell_angle_alpha	120
_cell_angle_beta	90
_cell_angle_gamma	90
loop_
_atom_site_label
_atom_site_type_symbol
_atom_site_fract_x
_atom_site_fract_y
_atom_site_fract_z
_atom_site_charge
Mof_Zn	Zn	-0	0.29909	0.70092	1.225
Mof_Zn	Zn	0.66667	0.40183	0.70091	1.23
Mof_Zn	Zn	0.33333	0.29909	0.59818	1.229
Mof_Zn	Zn	2.91999e-32	0.70091	0.29908	1.226
Mof_Zn	Zn	0.66667	0.59817	0.29908	1.23
Mof_Zn	Zn	0.33333	0.70092	0.40183	1.228
Mof_H 	H 	0.1096	0.1534	0.4076	0.043
Mof_H 	H 	0.5653	0.0705	0.4132	0.19
Mof_H 	H 	0.6925	0.1571	0.5193	-0.021
Mof_H 	H 	0.9892	0.0648	0.3015	0.292
Mof_H 	H 	0.77627	0.2542	0.8466	0.021
Mof_H 	H 	0.23197	0.3427	0.9295	0.181
Mof_H 	H 	0.35917	0.3622	0.8429	-0.036
Mof_H 	H 	0.65587	0.2367	0.9352	0.288
Mof_H 	H 	0.44293	0.5924	0.7458	0.004
Mof_H 	H 	0.89863	0.5868	0.6573	0.225
Mof_H 	H 	0.02583	0.4807	0.6378	-0.058
Mof_H 	H 	0.32253	0.6985	0.7633	0.314
Mof_H 	H 	0.1096	0.8466	0.5924	0.047
Mof_H 	H 	0.5653	0.9295	0.5868	0.168
Mof_H 	H 	0.6925	0.8429	0.4807	-0.017
Mof_H 	H 	0.9892	0.9352	0.6985	0.267
Mof_H 	H 	0.77627	0.7458	0.1534	0.015
Mof_H 	H 	0.23197	0.6573	0.0705	0.206
Mof_H 	H 	0.35917	0.6378	0.1571	-0.041
Mof_H 	H 	0.65587	0.7633	0.0648	0.314
Mof_H 	H 	0.44293	0.4076	0.2542	0.005
Mof_H 	H 	0.89863	0.4132	0.3427	0.225
Mof_H 	H 	0.02583	0.5193	0.3622	-0.058
Mof_H 	H 	0.32253	0.3015	0.2367	0.315
Mof_H 	H 	0.55707	0.7458	0.5924	0.01
Mof_H 	H 	0.10137	0.6573	0.5868	0.189
Mof_H 	H 	0.97417	0.6378	0.4807	-0.036
Mof_H 	H 	0.67747	0.7633	0.6985	0.308
Mof_H 	H 	0.8904	0.4076	0.1534	-0.011
Mof_H 	H 	0.4347	0.4132	0.0705	0.22
Mof_H 	H 	0.3075	0.5193	0.1571	-0.057
Mof_H 	H 	0.0108	0.3015	0.0648	0.329
Mof_H 	H 	0.22373	0.8466	0.2542	0.016
Mof_H 	H 	0.76803	0.9295	0.3427	0.185
Mof_H 	H 	0.64083	0.8429	0.3622	-0.036
Mof_H 	H 	0.34413	0.9352	0.2367	0.285
Mof_H 	H 	0.55707	0.2542	0.4076	0.01
Mof_H 	H 	0.10137	0.3427	0.4132	0.189
Mof_H 	H 	0.97417	0.3622	0.5193	-0.035
Mof_H 	H 	0.67747	0.2367	0.3015	0.31
Mof_H 	H 	0.8904	0.5924	0.8466	-0.006
Mof_H 	H 	0.4347	0.5868	0.9295	0.197
Mof_H 	H 	0.3075	0.4807	0.8429	-0.053
Mof_H 	H 	0.0108	0.6985	0.9352	0.304
Mof_H 	H 	0.22373	0.1534	0.7458	0.01
Mof_H 	H 	0.76803	0.0705	0.6573	0.208
Mof_H 	H 	0.64083	0.1571	0.6378	-0.042
Mof_H 	H 	0.34413	0.0648	0.7633	0.31
Mof_C 	C 	0.0038	0.2189	0.5413	0.451
Mof_C 	C 	0.0002	0.1358	0.4088	0.193
Mof_C 	C 	0.6764	0.0863	0.4115	-0.326
Mof_C 	C 	0.7521	0.1387	0.4757	0.219
Mof_C 	C 	0.9174	0.1635	0.4743	-0.216
Mof_C 	C 	0.9281	0.0831	0.3449	-0.276
Mof_C 	C 	0.7592	0.0569	0.3456	0.397
Mof_C 	C 	0.5409	0.0424	0.255	0.992
Mof_C 	C 	0.67047	0.3224	0.7811	0.496
Mof_C 	C 	0.66687	0.273	0.8642	0.262
Mof_C 	C 	0.34307	0.3252	0.9137	-0.35
Mof_C 	C 	0.41877	0.337	0.8613	0.249
Mof_C 	C 	0.58407	0.3108	0.8365	-0.281
Mof_C 	C 	0.59477	0.2618	0.9169	-0.326
Mof_C 	C 	0.42587	0.2887	0.9431	0.387
Mof_C 	C 	0.20757	0.2126	0.9576	0.973
Mof_C 	C 	0.33713	0.4587	0.6776	0.512
Mof_C 	C 	0.33353	0.5912	0.727	0.309
Mof_C 	C 	0.00973	0.5885	0.6748	-0.428
Mof_C 	C 	0.08543	0.5243	0.663	0.307
Mof_C 	C 	0.25073	0.5257	0.6892	-0.319
Mof_C 	C 	0.26143	0.6551	0.7382	-0.379
Mof_C 	C 	0.09253	0.6544	0.7113	0.467
Mof_C 	C 	0.87423	0.745	0.7874	1.019
Mof_C 	C 	0.0038	0.7811	0.4587	0.446
Mof_C 	C 	0.0002	0.8642	0.5912	0.172
Mof_C 	C 	0.6764	0.9137	0.5885	-0.305
Mof_C 	C 	0.7521	0.8613	0.5243	0.197
Mof_C 	C 	0.9174	0.8365	0.5257	-0.207
Mof_C 	C 	0.9281	0.9169	0.6551	-0.257
Mof_C 	C 	0.7592	0.9431	0.6544	0.351
Mof_C 	C 	0.5409	0.9576	0.745	0.97
Mof_C 	C 	0.67047	0.6776	0.2189	0.505
Mof_C 	C 	0.66687	0.727	0.1358	0.289
Mof_C 	C 	0.34307	0.6748	0.0863	-0.376
Mof_C 	C 	0.41877	0.663	0.1387	0.277
Mof_C 	C 	0.58407	0.6892	0.1635	-0.295
Mof_C 	C 	0.59477	0.7382	0.0831	-0.35
Mof_C 	C 	0.42587	0.7113	0.0569	0.44
Mof_C 	C 	0.20757	0.7874	0.0424	0.999
Mof_C 	C 	0.33713	0.5413	0.3224	0.512
Mof_C 	C 	0.33353	0.4088	0.273	0.309
Mof_C 	C 	0.00973	0.4115	0.3252	-0.428
Mof_C 	C 	0.08543	0.4757	0.337	0.306
Mof_C 	C 	0.25073	0.4743	0.3108	-0.319
Mof_C 	C 	0.26143	0.3449	0.2618	-0.379
Mof_C 	C 	0.09253	0.3456	0.2887	0.467
Mof_C 	C 	0.87423	0.255	0.2126	1.018
Mof_C 	C 	0.66287	0.6776	0.4587	0.504
Mof_C 	C 	0.66647	0.727	0.5912	0.291
Mof_C 	C 	0.99027	0.6748	0.5885	-0.362
Mof_C 	C 	0.91457	0.663	0.5243	0.269
Mof_C 	C 	0.74927	0.6892	0.5257	-0.295
Mof_C 	C 	0.73857	0.7382	0.6551	-0.361
Mof_C 	C 	0.90747	0.7113	0.6544	0.452
Mof_C 	C 	0.12577	0.7874	0.745	1.012
Mof_C 	C 	0.9962	0.5413	0.2189	0.55
Mof_C 	C 	0.9998	0.4088	0.1358	0.365
Mof_C 	C 	0.3236	0.4115	0.0863	-0.412
Mof_C 	C 	0.2479	0.4757	0.1387	0.322
Mof_C 	C 	0.0826	0.4743	0.1635	-0.359
Mof_C 	C 	0.0719	0.3449	0.0831	-0.406
Mof_C 	C 	0.2408	0.3456	0.0569	0.467
Mof_C 	C 	0.4591	0.255	0.0424	0.997
Mof_C 	C 	0.32953	0.7811	0.3224	0.498
Mof_C 	C 	0.33313	0.8642	0.273	0.262
Mof_C 	C 	0.65693	0.9137	0.3252	-0.347
Mof_C 	C 	0.58123	0.8613	0.337	0.25
Mof_C 	C 	0.41593	0.8365	0.3108	-0.283
Mof_C 	C 	0.40523	0.9169	0.2618	-0.325
Mof_C 	C 	0.57413	0.9431	0.2887	0.383
Mof_C 	C 	0.79243	0.9576	0.2126	0.967
Mof_C 	C 	0.66287	0.3224	0.5413	0.504
Mof_C 	C 	0.66647	0.273	0.4088	0.29
Mof_C 	C 	0.99027	0.3252	0.4115	-0.362
Mof_C 	C 	0.91457	0.337	0.4757	0.269
Mof_C 	C 	0.74927	0.3108	0.4743	-0.295
Mof_C 	C 	0.73857	0.2618	0.3449	-0.361
Mof_C 	C 	0.90747	0.2887	0.3456	0.452
Mof_C 	C 	0.12577	0.2126	0.255	1.01
Mof_C 	C 	0.9962	0.4587	0.7811	0.544
Mof_C 	C 	0.9998	0.5912	0.8642	0.343
Mof_C 	C 	0.3236	0.5885	0.9137	-0.389
Mof_C 	C 	0.2479	0.5243	0.8613	0.298
Mof_C 	C 	0.0826	0.5257	0.8365	-0.349
Mof_C 	C 	0.0719	0.6551	0.9169	-0.386
Mof_C 	C 	0.2408	0.6544	0.9431	0.419
Mof_C 	C 	0.4591	0.745	0.9576	0.974
Mof_C 	C 	0.32953	0.2189	0.6776	0.506
Mof_C 	C 	0.33313	0.1358	0.727	0.288
Mof_C 	C 	0.65693	0.0863	0.6748	-0.373
Mof_C 	C 	0.58123	0.1387	0.663	0.277
Mof_C 	C 	0.41593	0.1635	0.6892	-0.297
Mof_C 	C 	0.40523	0.0831	0.7382	-0.348
Mof_C 	C 	0.57413	0.0569	0.7113	0.433
Mof_C 	C 	0.79243	0.0424	0.7874	0.992
Mof_C 	C 	0.66667	-1.87864e-17	0.2765	-0.489
Mof_C 	C 	0.33333	0.2765	-0	-0.51
Mof_C 	C 	1.66857e-32	0.7235	0.7235	-0.587
Mof_C 	C 	0.66667	0	0.7235	-0.492
Mof_C 	C 	0.33333	0.7235	-0	-0.513
Mof_C 	C 	4.17142e-33	0.2765	0.2765	-0.586
Mof_O 	O 	0.9258	0.239	0.6006	-0.501
Mof_O 	O 	0.1462	0.2421	0.5356	-0.498
Mof_O 	O 	0.59247	0.3616	0.761	-0.524
Mof_O 	O 	0.81287	0.2935	0.7579	-0.503
Mof_O 	O 	0.25913	0.3994	0.6384	-0.53
Mof_O 	O 	0.47953	0.4644	0.7065	-0.511
Mof_O 	O 	0.9258	0.761	0.3994	-0.502
Mof_O 	O 	0.1462	0.7579	0.4644	-0.498
Mof_O 	O 	0.59247	0.6384	0.239	-0.524
Mof_O 	O 	0.81287	0.7065	0.2421	-0.504
Mof_O 	O 	0.25913	0.6006	0.3616	-0.53
Mof_O 	O 	0.47953	0.5356	0.2935	-0.51
Mof_O 	O 	0.74087	0.6384	0.3994	-0.523
Mof_O 	O 	0.52047	0.7065	0.4644	-0.511
Mof_O 	O 	0.0742	0.6006	0.239	-0.543
Mof_O 	O 	0.8538	0.5356	0.2421	-0.517
Mof_O 	O 	0.40753	0.761	0.3616	-0.527
Mof_O 	O 	0.18713	0.7579	0.2935	-0.511
Mof_O 	O 	0.74087	0.3616	0.6006	-0.523
Mof_O 	O 	0.52047	0.2935	0.5356	-0.51
Mof_O 	O 	0.0742	0.3994	0.761	-0.545
Mof_O 	O 	0.8538	0.4644	0.7579	-0.517
Mof_O 	O 	0.40753	0.239	0.6384	-0.527
Mof_O 	O 	0.18713	0.2421	0.7065	-0.513
Mof_F 	F 	0.4157	0.0713	0.3018	-0.491
Mof_F 	F 	0.4691	0.0036	0.19	-0.346
Mof_F 	F 	0.6253	0.0976	0.2534	-0.385
Mof_F 	F 	0.08237	0.2305	0.9287	-0.503
Mof_F 	F 	0.13577	0.1864	0.9964	-0.378
Mof_F 	F 	0.29197	0.1558	0.9024	-0.391
Mof_F 	F 	0.74903	0.6982	0.7695	-0.501
Mof_F 	F 	0.80243	0.81	0.8136	-0.372
Mof_F 	F 	0.95863	0.7466	0.8442	-0.395
Mof_F 	F 	0.4157	0.9287	0.6982	-0.5
Mof_F 	F 	0.4691	0.9964	0.81	-0.38
Mof_F 	F 	0.6253	0.9024	0.7466	-0.393
Mof_F 	F 	0.08237	0.7695	0.0713	-0.496
Mof_F 	F 	0.13577	0.8136	0.0036	-0.355
Mof_F 	F 	0.29197	0.8442	0.0976	-0.393
Mof_F 	F 	0.74903	0.3018	0.2305	-0.499
Mof_F 	F 	0.80243	0.19	0.1864	-0.359
Mof_F 	F 	0.95863	0.2534	0.1558	-0.386
Mof_F 	F 	0.25097	0.7695	0.6982	-0.502
Mof_F 	F 	0.19757	0.8136	0.81	-0.375
Mof_F 	F 	0.04137	0.8442	0.7466	-0.404
Mof_F 	F 	0.5843	0.3018	0.0713	-0.49
Mof_F 	F 	0.5309	0.19	0.0036	-0.345
Mof_F 	F 	0.3747	0.2534	0.0976	-0.387
Mof_F 	F 	0.91763	0.9287	0.2305	-0.494
Mof_F 	F 	0.86423	0.9964	0.1864	-0.37
Mof_F 	F 	0.70803	0.9024	0.1558	-0.388
Mof_F 	F 	0.25097	0.2305	0.3018	-0.5
Mof_F 	F 	0.19757	0.1864	0.19	-0.363
Mof_F 	F 	0.04137	0.1558	0.2534	-0.394
Mof_F 	F 	0.5843	0.6982	0.9287	-0.499
Mof_F 	F 	0.5309	0.81	0.9964	-0.38
Mof_F 	F 	0.3747	0.7466	0.9024	-0.395
Mof_F 	F 	0.91763	0.0713	0.7695	-0.487
Mof_F 	F 	0.86423	0.0036	0.8136	-0.348
Mof_F 	F 	0.70803	0.0976	0.8442	-0.39
_end
