data_functionalizedCrystal
_audit_creation_method	'EQeq! by Chris Wilmer'
_symmetry_space_group_name_H-M	'P1'
_symmetry_Int_Tables_number	1
_symmetry_cell_setting	triclinic
loop_
_symmetry_equiv_pos_as_xyz
  x,y,z
_cell_length_a	15.2299
_cell_length_b	15.2299
_cell_length_c	18.5141
_cell_angle_alpha	76.082
_cell_angle_beta	76.082
_cell_angle_gamma	68.2043
loop_
_atom_site_label
_atom_site_type_symbol
_atom_site_fract_x
_atom_site_fract_y
_atom_site_fract_z
_atom_site_charge
Mof_Ho	Ho	0.96184	0.04366	0.10434	2.079
Mof_Ho	Ho	0.95634	0.03816	0.39566	2.091
Mof_Ho	Ho	0.03816	0.95634	0.89566	2.079
Mof_Ho	Ho	0.04366	0.96184	0.60434	2.091
Mof_H 	H 	0.9869	0.2855	0.7868	-0.005
Mof_H 	H 	0.9792	0.4396	0.7563	0.091
Mof_H 	H 	0.9595	0.4493	0.9717	0.094
Mof_H 	H 	0.9669	0.2945	0.0035	-0.051
Mof_H 	H 	0.6531	0.0767	0.0934	-0.005
Mof_H 	H 	0.5067	0.0677	0.091	0.078
Mof_H 	H 	0.6169	0.9589	0.9024	0.081
Mof_H 	H 	0.7628	0.967	0.9039	0.006
Mof_H 	H 	0.8951	0.7625	0.9067	-0.011
Mof_H 	H 	0.884	0.612	0.9353	0.084
Mof_H 	H 	0.0484	0.5564	0.7357	0.083
Mof_H 	H 	0.051	0.7076	0.7063	-0.016
Mof_H 	H 	0.7145	0.0131	0.7132	-0.003
Mof_H 	H 	0.5604	0.0208	0.7437	0.087
Mof_H 	H 	0.5507	0.0405	0.5283	0.088
Mof_H 	H 	0.7055	0.0331	0.4965	-0.039
Mof_H 	H 	0.9233	0.3469	0.4066	-0.007
Mof_H 	H 	0.9323	0.4933	0.409	0.078
Mof_H 	H 	0.0411	0.3831	0.5976	0.081
Mof_H 	H 	0.033	0.2372	0.5961	0.004
Mof_H 	H 	0.2375	0.1049	0.5933	-0.012
Mof_H 	H 	0.388	0.116	0.5647	0.085
Mof_H 	H 	0.4436	0.9516	0.7643	0.084
Mof_H 	H 	0.2924	0.949	0.7937	-0.017
Mof_H 	H 	0.0131	0.7145	0.2132	-0.006
Mof_H 	H 	0.0208	0.5604	0.2437	0.09
Mof_H 	H 	0.0405	0.5507	0.0283	0.094
Mof_H 	H 	0.0331	0.7055	0.9965	-0.051
Mof_H 	H 	0.3469	0.9233	0.9066	-0.005
Mof_H 	H 	0.4933	0.9323	0.909	0.078
Mof_H 	H 	0.3831	0.0411	0.0976	0.081
Mof_H 	H 	0.2372	0.033	0.0961	0.006
Mof_H 	H 	0.1049	0.2375	0.0933	-0.011
Mof_H 	H 	0.116	0.388	0.0647	0.084
Mof_H 	H 	0.9516	0.4436	0.2643	0.083
Mof_H 	H 	0.949	0.2924	0.2937	-0.016
Mof_H 	H 	0.2855	0.9869	0.2868	-0.003
Mof_H 	H 	0.4396	0.9792	0.2563	0.087
Mof_H 	H 	0.4493	0.9595	0.4717	0.088
Mof_H 	H 	0.2945	0.9669	0.5035	-0.039
Mof_H 	H 	0.0767	0.6531	0.5934	-0.007
Mof_H 	H 	0.0677	0.5067	0.591	0.078
Mof_H 	H 	0.9589	0.6169	0.4024	0.081
Mof_H 	H 	0.967	0.7628	0.4039	0.004
Mof_H 	H 	0.7625	0.8951	0.4067	-0.012
Mof_H 	H 	0.612	0.884	0.4353	0.085
Mof_H 	H 	0.5564	0.0484	0.2357	0.084
Mof_H 	H 	0.7076	0.051	0.2063	-0.017
Mof_C 	C 	0.9923	0.1663	0.9196	0.532
Mof_C 	C 	0.9825	0.2691	0.9003	-0.252
Mof_C 	C 	0.9829	0.3181	0.8246	0.134
Mof_C 	C 	0.9778	0.4106	0.8066	-0.182
Mof_C 	C 	0.9702	0.4648	0.8594	0.086
Mof_C 	C 	0.9661	0.4161	0.9335	-0.201
Mof_C 	C 	0.9712	0.3226	0.9529	0.172
Mof_C 	C 	0.8191	0.0317	0.9991	0.541
Mof_C 	C 	0.7245	0.0235	0.9979	-0.213
Mof_C 	C 	0.6461	0.0523	0.0544	0.103
Mof_C 	C 	0.5585	0.0453	0.0538	-0.161
Mof_C 	C 	0.5469	0.0057	0.999	0.072
Mof_C 	C 	0.6243	0.9811	0.9425	-0.161
Mof_C 	C 	0.7118	0.9874	0.9423	0.118
Mof_C 	C 	0.9841	0.8503	0.7858	0.582
Mof_C 	C 	0.9758	0.7522	0.8046	-0.244
Mof_C 	C 	0.9259	0.7209	0.872	0.126
Mof_C 	C 	0.9202	0.6298	0.8898	-0.166
Mof_C 	C 	0.9679	0.5639	0.8407	0.062
Mof_C 	C 	0.017	0.5976	0.7707	-0.171
Mof_C 	C 	0.0195	0.6877	0.7534	0.121
Mof_C 	C 	0.8337	0.0077	0.5804	0.526
Mof_C 	C 	0.7309	0.0175	0.5997	-0.241
Mof_C 	C 	0.6819	0.0171	0.6754	0.124
Mof_C 	C 	0.5894	0.0222	0.6934	-0.173
Mof_C 	C 	0.5352	0.0298	0.6406	0.077
Mof_C 	C 	0.5839	0.0339	0.5665	-0.186
Mof_C 	C 	0.6774	0.0288	0.5471	0.149
Mof_C 	C 	0.9683	0.1809	0.5009	0.537
Mof_C 	C 	0.9765	0.2755	0.5021	-0.222
Mof_C 	C 	0.9477	0.3539	0.4456	0.11
Mof_C 	C 	0.9547	0.4415	0.4462	-0.159
Mof_C 	C 	0.9943	0.4531	0.501	0.067
Mof_C 	C 	0.0189	0.3757	0.5575	-0.16
Mof_C 	C 	0.0126	0.2882	0.5577	0.125
Mof_C 	C 	0.1497	0.0159	0.7142	0.582
Mof_C 	C 	0.2478	0.0242	0.6954	-0.246
Mof_C 	C 	0.2791	0.0741	0.628	0.128
Mof_C 	C 	0.3702	0.0798	0.6102	-0.169
Mof_C 	C 	0.4361	0.0321	0.6593	0.065
Mof_C 	C 	0.4024	0.983	0.7293	-0.172
Mof_C 	C 	0.3123	0.9805	0.7466	0.125
Mof_C 	C 	0.0077	0.8337	0.0804	0.532
Mof_C 	C 	0.0175	0.7309	0.0997	-0.252
Mof_C 	C 	0.0171	0.6819	0.1754	0.134
Mof_C 	C 	0.0222	0.5894	0.1934	-0.182
Mof_C 	C 	0.0298	0.5352	0.1406	0.086
Mof_C 	C 	0.0339	0.5839	0.0665	-0.201
Mof_C 	C 	0.0288	0.6774	0.0471	0.172
Mof_C 	C 	0.1809	0.9683	0.0009	0.541
Mof_C 	C 	0.2755	0.9765	0.0021	-0.213
Mof_C 	C 	0.3539	0.9477	0.9456	0.103
Mof_C 	C 	0.4415	0.9547	0.9462	-0.161
Mof_C 	C 	0.4531	0.9943	0.001	0.072
Mof_C 	C 	0.3757	0.0189	0.0575	-0.161
Mof_C 	C 	0.2882	0.0126	0.0577	0.118
Mof_C 	C 	0.0159	0.1497	0.2142	0.582
Mof_C 	C 	0.0242	0.2478	0.1954	-0.244
Mof_C 	C 	0.0741	0.2791	0.128	0.126
Mof_C 	C 	0.0798	0.3702	0.1102	-0.166
Mof_C 	C 	0.0321	0.4361	0.1593	0.062
Mof_C 	C 	0.983	0.4024	0.2293	-0.171
Mof_C 	C 	0.9805	0.3123	0.2466	0.121
Mof_C 	C 	0.1663	0.9923	0.4196	0.526
Mof_C 	C 	0.2691	0.9825	0.4003	-0.241
Mof_C 	C 	0.3181	0.9829	0.3246	0.124
Mof_C 	C 	0.4106	0.9778	0.3066	-0.173
Mof_C 	C 	0.4648	0.9702	0.3594	0.077
Mof_C 	C 	0.4161	0.9661	0.4335	-0.186
Mof_C 	C 	0.3226	0.9712	0.4529	0.149
Mof_C 	C 	0.0317	0.8191	0.4991	0.537
Mof_C 	C 	0.0235	0.7245	0.4979	-0.222
Mof_C 	C 	0.0523	0.6461	0.5544	0.11
Mof_C 	C 	0.0453	0.5585	0.5538	-0.159
Mof_C 	C 	0.0057	0.5469	0.499	0.067
Mof_C 	C 	0.9811	0.6243	0.4425	-0.16
Mof_C 	C 	0.9874	0.7118	0.4423	0.125
Mof_C 	C 	0.8503	0.9841	0.2858	0.582
Mof_C 	C 	0.7522	0.9758	0.3046	-0.246
Mof_C 	C 	0.7209	0.9259	0.372	0.128
Mof_C 	C 	0.6298	0.9202	0.3898	-0.169
Mof_C 	C 	0.5639	0.9679	0.3407	0.065
Mof_C 	C 	0.5976	0.017	0.2707	-0.172
Mof_C 	C 	0.6877	0.0195	0.2534	0.125
Mof_O 	O 	0.9868	0.129	0.9873	-0.607
Mof_O 	O 	0.96076	0.89656	0.839	-0.567
Mof_O 	O 	0.8326	0.044	0.0603	-0.565
Mof_O 	O 	0.0195	0.8759	0.7209	-0.606
Mof_O 	O 	0.9895	0.8801	0.1334	-0.51
Mof_O 	O 	0.8777	0.0245	0.9405	-0.551
Mof_O 	O 	0.871	0.0132	0.5127	-0.611
Mof_O 	O 	0.10344	0.03924	0.661	-0.568
Mof_O 	O 	0.956	0.1674	0.4397	-0.56
Mof_O 	O 	0.1241	0.9805	0.7791	-0.605
Mof_O 	O 	0.1199	0.0105	0.3666	-0.508
Mof_O 	O 	0.9755	0.1223	0.5595	-0.554
Mof_O 	O 	0.0132	0.871	0.0127	-0.607
Mof_O 	O 	0.03924	0.10344	0.161	-0.567
Mof_O 	O 	0.1674	0.956	0.9397	-0.565
Mof_O 	O 	0.9805	0.1241	0.2791	-0.606
Mof_O 	O 	0.0105	0.1199	0.8666	-0.51
Mof_O 	O 	0.1223	0.9755	0.0595	-0.551
Mof_O 	O 	0.129	0.9868	0.4873	-0.611
Mof_O 	O 	0.89656	0.96076	0.339	-0.568
Mof_O 	O 	0.044	0.8326	0.5603	-0.56
Mof_O 	O 	0.8759	0.0195	0.2209	-0.605
Mof_O 	O 	0.8801	0.9895	0.6334	-0.508
Mof_O 	O 	0.0245	0.8777	0.4405	-0.554
_end
