data_functionalizedCrystal
_audit_creation_method	'EQeq! by Chris Wilmer'
_symmetry_space_group_name_H-M	'P1'
_symmetry_Int_Tables_number	1
_symmetry_cell_setting	triclinic
loop_
_symmetry_equiv_pos_as_xyz
  x,y,z
_cell_length_a	15.284
_cell_length_b	17.726
_cell_length_c	5.1882
_cell_angle_alpha	90
_cell_angle_beta	90
_cell_angle_gamma	90
loop_
_atom_site_label
_atom_site_type_symbol
_atom_site_fract_x
_atom_site_fract_y
_atom_site_fract_z
_atom_site_charge
Mof_Zn	Zn	0.28064	0.80316	0.6676	1.219
Mof_Zn	Zn	0.10691	0.80464	0.2648	1.225
Mof_Zn	Zn	0.40651	0.7519	0.1726	1.223
Mof_Zn	Zn	0.26684	0.06355	0.3504	1.242
Mof_P 	P 	0.39952	0.65526	0.69	0.536
Mof_P 	P 	0.28031	0.89476	0.173	0.523
Mof_P 	P 	0.1121	0.70694	0.7488	0.574
Mof_O 	O 	0.305	0.886	0.8886	-0.482
Mof_O 	O 	0.1601	0.7715	0.6041	-0.644
Mof_O 	O 	0.3243	0.826	0.3229	-0.643
Mof_O 	O 	0.3565	0.7256	0.8313	-0.643
Mof_O 	O 	0.1212	0.7205	0.035	-0.521
Mof_O 	O 	0.4938	0.6495	0.784	-0.506
Mof_O 	O 	0.1825	0.8909	0.2134	-0.52
Mof_O 	O 	0.0197	0.7059	0.646	-0.511
Mof_O 	O 	0.3889	0.6671	0.3986	-0.491
Mof_O 	O 	0.3182	0.9685	0.2781	-0.444
Mof_O 	O 	0.3538	0.5825	0.7703	-0.447
Mof_O 	O 	0.1557	0.6322	0.676	-0.436
Mof_O 	O 	0.2621	0.0855	0.729	-0.337
Mof_H 	H 	0.0237	0.0356	0.4683	0.129
Mof_C 	C 	0.0693	0.9657	0.731	-0.354
Mof_H 	H 	0.1134	0.9442	0.6217	0.113
Mof_H 	H 	0.0443	0.9269	0.837	0.133
Mof_H 	H 	0.0951	0.0037	0.8386	0.163
Mof_Zn	Zn	0.71936	0.19684	0.6676	1.218
Mof_Zn	Zn	0.89309	0.19536	0.2648	1.222
Mof_Zn	Zn	0.59349	0.2481	0.1726	1.222
Mof_Zn	Zn	0.73316	0.93645	0.3504	1.239
Mof_P 	P 	0.60048	0.34474	0.69	0.536
Mof_P 	P 	0.71969	0.10524	0.173	0.523
Mof_P 	P 	0.8879	0.29306	0.7488	0.574
Mof_O 	O 	0.695	0.114	0.8886	-0.48
Mof_O 	O 	0.8399	0.2285	0.6041	-0.645
Mof_O 	O 	0.6757	0.174	0.3229	-0.643
Mof_O 	O 	0.6435	0.2744	0.8313	-0.643
Mof_O 	O 	0.8788	0.2795	0.035	-0.524
Mof_O 	O 	0.5062	0.3505	0.784	-0.506
Mof_O 	O 	0.8175	0.1091	0.2134	-0.519
Mof_O 	O 	0.9803	0.2941	0.646	-0.52
Mof_O 	O 	0.6111	0.3329	0.3986	-0.491
Mof_O 	O 	0.6818	0.0315	0.2781	-0.438
Mof_O 	O 	0.6462	0.4175	0.7703	-0.447
Mof_O 	O 	0.8443	0.3678	0.676	-0.438
Mof_O 	O 	0.7379	0.9145	0.729	-0.339
Mof_H 	H 	0.9763	0.9644	0.4683	0.118
Mof_C 	C 	0.9307	0.0343	0.731	-0.31
Mof_H 	H 	0.8866	0.0558	0.6217	0.1
Mof_H 	H 	0.9557	0.0731	0.837	0.116
Mof_H 	H 	0.9049	0.9963	0.8386	0.141
Mof_Zn	Zn	0.78064	0.69684	0.1676	1.216
Mof_Zn	Zn	0.60691	0.69536	0.7648	1.224
Mof_Zn	Zn	0.90651	0.7481	0.6726	1.222
Mof_Zn	Zn	0.76684	0.43645	0.8504	1.241
Mof_P 	P 	0.89952	0.84474	0.19	0.53
Mof_P 	P 	0.78031	0.60524	0.673	0.529
Mof_P 	P 	0.6121	0.79306	0.2488	0.57
Mof_O 	O 	0.805	0.614	0.3886	-0.489
Mof_O 	O 	0.6601	0.7285	0.1041	-0.647
Mof_O 	O 	0.8243	0.674	0.8229	-0.642
Mof_O 	O 	0.8565	0.7744	0.3313	-0.647
Mof_O 	O 	0.6212	0.7795	0.535	-0.517
Mof_O 	O 	0.9938	0.8505	0.284	-0.515
Mof_O 	O 	0.6825	0.6091	0.7134	-0.517
Mof_O 	O 	0.5197	0.7941	0.146	-0.519
Mof_O 	O 	0.8889	0.8329	0.8986	-0.486
Mof_O 	O 	0.8182	0.5315	0.7781	-0.441
Mof_O 	O 	0.8538	0.9175	0.2703	-0.451
Mof_O 	O 	0.6557	0.8678	0.176	-0.441
Mof_O 	O 	0.7621	0.4145	0.229	-0.343
Mof_H 	H 	0.5237	0.4644	0.9683	0.134
Mof_C 	C 	0.5693	0.5343	0.231	-0.315
Mof_H 	H 	0.6134	0.5558	0.1217	0.099
Mof_H 	H 	0.5443	0.5731	0.337	0.116
Mof_H 	H 	0.5951	0.4963	0.3386	0.145
Mof_Zn	Zn	0.21936	0.30316	0.1676	1.217
Mof_Zn	Zn	0.39309	0.30464	0.7648	1.224
Mof_Zn	Zn	0.09349	0.2519	0.6726	1.225
Mof_Zn	Zn	0.23316	0.56355	0.8504	1.241
Mof_P 	P 	0.10048	0.15526	0.19	0.53
Mof_P 	P 	0.21969	0.39476	0.673	0.53
Mof_P 	P 	0.3879	0.20694	0.2488	0.57
Mof_O 	O 	0.195	0.386	0.3886	-0.487
Mof_O 	O 	0.3399	0.2715	0.1041	-0.647
Mof_O 	O 	0.1757	0.326	0.8229	-0.639
Mof_O 	O 	0.1435	0.2256	0.3313	-0.645
Mof_O 	O 	0.3788	0.2205	0.535	-0.516
Mof_O 	O 	0.0062	0.1495	0.284	-0.504
Mof_O 	O 	0.3175	0.3909	0.7134	-0.517
Mof_O 	O 	0.4803	0.2059	0.146	-0.518
Mof_O 	O 	0.1111	0.1671	0.8986	-0.483
Mof_O 	O 	0.1818	0.4685	0.7781	-0.438
Mof_O 	O 	0.1462	0.0825	0.2703	-0.448
Mof_O 	O 	0.3443	0.1322	0.176	-0.439
Mof_O 	O 	0.2379	0.5855	0.229	-0.342
Mof_H 	H 	0.4763	0.5356	0.9683	0.134
Mof_C 	C 	0.4307	0.4657	0.231	-0.315
Mof_H 	H 	0.3866	0.4442	0.1217	0.099
Mof_H 	H 	0.4557	0.4269	0.337	0.116
Mof_H 	H 	0.4049	0.5037	0.3386	0.145
Mof_N 	N 	7.25465e-34	0	0.57	-0.147
Mof_N 	N 	0.5	0.5	0.07	-0.169
_end
