data_functionalizedCrystal
_audit_creation_method	'EQeq! by Chris Wilmer'
_symmetry_space_group_name_H-M	'P1'
_symmetry_Int_Tables_number	1
_symmetry_cell_setting	triclinic
loop_
_symmetry_equiv_pos_as_xyz
  x,y,z
_cell_length_a	10.117
_cell_length_b	29.539
_cell_length_c	29.556
_cell_angle_alpha	91.446
_cell_angle_beta	93.321
_cell_angle_gamma	91.615
loop_
_atom_site_label
_atom_site_type_symbol
_atom_site_fract_x
_atom_site_fract_y
_atom_site_fract_z
_atom_site_charge
Mof_Zn	Zn	0.8994	0.23206	0.77574	1.201
Mof_Zn	Zn	0.25868	0.406	0.59359	1.217
Mof_Zn	Zn	0.26718	0.03857	0.59677	1.211
Mof_Zn	Zn	0.60471	0.22766	0.76648	1.198
Mof_Zn	Zn	0.236	0.40468	0.96225	1.211
Mof_Zn	Zn	0.24767	0.05175	0.94888	1.21
Mof_H 	H 	0.1227	0.7892	0.7581	0.066
Mof_H 	H 	0.377	0.0266	0.0422	0.012
Mof_H 	H 	0.2491	0.5735	0.5946	0.097
Mof_H 	H 	0.542	0.1304	0.8717	0.04
Mof_H 	H 	0.0896	0.1384	0.0758	0.075
Mof_H 	H 	0.1334	0.9584	0.9742	0.009
Mof_H 	H 	0.3607	0.4981	0.9849	-0.015
Mof_H 	H 	0.0405	0.1466	0.1409	0.034
Mof_H 	H 	0.154	0.075	0.3675	0.022
Mof_H 	H 	0.1311	0.2901	0.4776	0.083
Mof_H 	H 	0.3546	0.2176	0.358	0.07
Mof_H 	H 	0.3474	0.6334	0.9263	0.031
Mof_H 	H 	0.4309	0.9522	0.5916	0.001
Mof_H 	H 	0.5685	0.3291	0.6692	0.036
Mof_H 	H 	0.453	0.8598	0.8504	0.033
Mof_H 	H 	0.1595	0.0152	0.5006	-0.025
Mof_H 	H 	0.7459	0.0465	0.9533	0.033
Mof_H 	H 	0.381	0.13	0.2511	0.064
Mof_H 	H 	0.0424	0.1869	0.2088	0.061
Mof_H 	H 	0.4396	0.8231	0.6578	0.027
Mof_H 	H 	0.1035	0.5231	0.8581	0.094
Mof_H 	H 	0.3521	0.1501	0.4833	0.107
Mof_H 	H 	0.1247	0.751	0.8687	0.064
Mof_H 	H 	0.4331	0.8823	0.6237	0.088
Mof_H 	H 	0.7737	0.0346	0.5904	0.039
Mof_H 	H 	0.4599	0.7915	0.8121	0.06
Mof_H 	H 	0.3894	0.2786	0.1454	0.031
Mof_H 	H 	0.3713	0.181	0.4249	0.018
Mof_H 	H 	0.2944	0.3992	0.4282	0.106
Mof_H 	H 	0.4019	0.3163	0.0903	0.081
Mof_H 	H 	0.9414	0.1273	0.871	0.039
Mof_H 	H 	0.2938	0.1238	0.5535	-0.033
Mof_H 	H 	0.0937	0.9081	0.6775	0.088
Mof_H 	H 	0.3411	0.3558	0.3697	0.028
Mof_H 	H 	0.378	0.2386	0.2119	0.061
Mof_H 	H 	0.3918	0.5207	0.7089	0.09
Mof_H 	H 	0.3656	0.7009	0.8872	0.063
Mof_H 	H 	0.1664	0.697	0.6847	0.067
Mof_H 	H 	0.9159	0.3297	0.8805	0.035
Mof_H 	H 	0.3581	0.0483	0.1179	0.078
Mof_H 	H 	0.586	0.12	0.6705	0.035
Mof_H 	H 	0.3574	0.4505	0.675	-0.022
Mof_H 	H 	0.4035	0.3528	0.0229	-0.013
Mof_H 	H 	0.0311	0.2828	0.408	0.029
Mof_H 	H 	0.14	0.1128	0.3	0.067
Mof_H 	H 	0.155	0.8835	0.9516	0.081
Mof_H 	H 	0.3789	0.0891	0.1824	0.03
Mof_H 	H 	0.0605	0.3443	0.1755	0.032
Mof_H 	H 	0.2125	0.4997	0.565	-0.031
Mof_H 	H 	0.3145	0.4309	0.5012	-0.044
Mof_H 	H 	0.1261	0.8199	0.9094	0.03
Mof_H 	H 	0.1483	0.6446	0.7819	0.067
Mof_H 	H 	0.4724	0.6578	0.7646	0.069
Mof_H 	H 	0.181	0.0443	0.4289	0.119
Mof_H 	H 	0.986	0.1238	0.6722	0.039
Mof_H 	H 	0.0511	0.3032	0.241	0.062
Mof_H 	H 	0.1106	0.113	0.0028	-0.016
Mof_H 	H 	0.0744	0.3806	0.1172	0.085
Mof_H 	H 	0.1175	0.8563	0.7206	0.026
Mof_H 	H 	0.3967	0.9254	0.8576	0.077
Mof_H 	H 	0.9645	0.3334	0.674	0.035
Mof_H 	H 	0.4513	0.7569	0.6992	0.067
Mof_H 	H 	0.1316	0.5776	0.8191	0.025
Mof_H 	H 	0.3448	0.3127	0.3037	0.068
Mof_H 	H 	0.479	0.5907	0.723	0.029
Mof_H 	H 	0.0795	0.4134	0.0477	0.001
Mof_H 	H 	0.1423	0.3276	0.5483	-0.009
Mof_H 	H 	0.5174	0.3286	0.8778	0.037
Mof_H 	H 	0.0285	0.24	0.3393	0.068
Mof_H 	H 	0.1185	0.4513	0.8902	-0.028
Mof_H 	H 	0.732	0.4101	0.9673	0.038
Mof_H 	H 	0.0906	0.9764	0.6404	-0.016
Mof_H 	H 	0.3611	0.5684	0.9537	0.108
Mof_H 	H 	0.7626	0.4131	0.5882	0.04
Mof_H 	H 	0.38	0.998	0.8835	-0.015
Mof_H 	H 	0.1675	0.6296	0.6434	0.03
Mof_C 	C 	0.1132	0.1441	0.1624	-0.012
Mof_C 	C 	0.4837	0.38877	0.94478	0.315
Mof_C 	C 	0.1852	0.8356	0.7149	0.004
Mof_C 	C 	0.1905	0.7962	0.7383	-0.102
Mof_C 	C 	0.2787	0.3314	0.3644	0.006
Mof_C 	C 	0.0204	0.05679	0.61164	0.307
Mof_C 	C 	0.1913	0.77347	0.86401	-0.091
Mof_C 	C 	0.7772	0.0583	0.6128	0.047
Mof_C 	C 	0.2247	0.316	0.15365	-0.04
Mof_C 	C 	0.2976	0.72387	0.7597	-0.049
Mof_C 	C 	0.7859	0.12806	0.67724	-0.134
Mof_C 	C 	0.2327	0.3426	0.11172	0.103
Mof_C 	C 	0.163	0.0998	0.02648	0.086
Mof_C 	C 	0.0963	0.289	0.387	0.001
Mof_C 	C 	0.9025	0.11128	0.66119	0.058
Mof_C 	C 	0.2552	0.3832	0.4517	-0.216
Mof_C 	C 	0.9728	0.39191	0.9463	0.336
Mof_C 	C 	0.2754	0.84601	0.6832	-0.054
Mof_C 	C 	0.3142	0.5571	0.6563	0.124
Mof_C 	C 	0.8632	0.08304	0.91422	-0.111
Mof_C 	C 	0.2152	0.0618	0.4546	-0.227
Mof_C 	C 	0.2244	0.09704	0.10677	0.088
Mof_C 	C 	0.307	0.5025	0.958	0.132
Mof_C 	C 	0.3199	0.67552	0.8727	-0.098
Mof_C 	C 	0.2583	0.12412	0.40416	-0.089
Mof_C 	C 	0.189	0.95148	0.9503	0.091
Mof_C 	C 	0.1199	0.2975	0.2213	-0.092
Mof_C 	C 	0.3111	0.2595	0.2043	-0.089
Mof_C 	C 	0.3332	0.4763	0.6582	0.109
Mof_C 	C 	0.6052	0.37169	0.92554	-0.117
Mof_C 	C 	0.2089	0.2647	0.23273	0.054
Mof_C 	C 	0.2399	0.59743	0.8761	-0.059
Mof_C 	C 	0.1428	0.373	0.0979	-0.159
Mof_C 	C 	0.3084	0.5447	0.9389	-0.185
Mof_C 	C 	0.2757	0.89531	0.90183	0.095
Mof_C 	C 	0.3329	0.3582	0.042	0.09
Mof_C 	C 	0.4126	0.6117	0.7153	0.002
Mof_C 	C 	0.5178	0.39126	0.60637	0.342
Mof_C 	C 	0.7444	0.06888	0.93077	0.051
Mof_C 	C 	0.1682	0.4759	0.9046	0.128
Mof_C 	C 	0.2836	0.72205	0.8047	-0.037
Mof_C 	C 	0.7672	0.29076	0.71211	0.413
Mof_C 	C 	0.882	0.37629	0.62838	-0.122
Mof_C 	C 	0.2811	0.3056	0.325	-0.105
Mof_C 	C 	0.2361	0.1713	0.32155	0.064
Mof_C 	C 	0.1838	0.1275	0.32585	-0.11
Mof_C 	C 	0.1477	0.3934	0.0563	0.095
Mof_C 	C 	0.2694	0.4023	0.4973	0.186
Mof_C 	C 	0.6235	0.11837	0.88272	0.057
Mof_C 	C 	0.6455	0.37472	0.62549	-0.127
Mof_C 	C 	0.7418	0.13322	0.86562	-0.129
Mof_C 	C 	0.2652	0.1017	0.4479	0.194
Mof_C 	C 	0.3878	0.7974	0.8304	-0.086
Mof_C 	C 	0.096	0.2626	0.3459	-0.102
Mof_C 	C 	0.1873	0.3225	0.3964	-0.06
Mof_C 	C 	0.7163	0.32398	0.87289	-0.135
Mof_C 	C 	0.7634	0.39101	0.61098	0.064
Mof_C 	C 	0.8364	0.34063	0.89179	0.069
Mof_C 	C 	0.15	0.1151	0.0701	-0.14
Mof_C 	C 	0.2085	0.0428	0.498	0.159
Mof_C 	C 	0.5	0.06912	0.93581	0.315
Mof_C 	C 	0.3066	0.1216	0.4848	-0.229
Mof_C 	C 	0.8607	0.11613	0.88199	0.06
Mof_C 	C 	0.1927	0.3457	0.4413	0.133
Mof_C 	C 	0.2672	0.67937	0.8292	0.058
Mof_C 	C 	0.2298	0.6348	0.6684	0.002
Mof_C 	C 	0.6661	0.10878	0.65999	0.067
Mof_C 	C 	0.8437	0.37271	0.92664	-0.122
Mof_C 	C 	0.8823	0.34365	0.66157	0.076
Mof_C 	C 	0.7277	0.38802	0.94331	0.054
Mof_C 	C 	0.3121	0.11042	0.187	-0.012
Mof_C 	C 	0.7407	0.16935	0.82985	0.41
Mof_C 	C 	0.2861	0.76463	0.8334	0.049
Mof_C 	C 	0.5283	0.05379	0.61023	0.326
Mof_C 	C 	0.2886	0.1038	0.5277	0.14
Mof_C 	C 	0.2159	0.1168	0.15262	-0.035
Mof_C 	C 	0.3326	0.3362	0.0824	-0.156
Mof_C 	C 	0.7682	0.3263	0.67656	-0.145
Mof_C 	C 	0.66	0.07462	0.62876	-0.113
Mof_C 	C 	0.228	0.6747	0.6935	-0.104
Mof_C 	C 	0.3524	0.5182	0.679	-0.172
Mof_C 	C 	0.1626	0.5194	0.8838	-0.188
Mof_C 	C 	0.9899	0.06358	0.9314	0.309
Mof_C 	C 	0.3121	0.68333	0.7308	0.063
Mof_C 	C 	0.2694	0.5487	0.6134	-0.187
Mof_C 	C 	0.1143	0.1679	0.2032	-0.087
Mof_C 	C 	0.7128	0.29012	0.83326	0.41
Mof_C 	C 	0.3632	0.9021	0.6293	-0.166
Mof_C 	C 	0.1738	0.3429	0.523	0.077
Mof_C 	C 	0.6009	0.3399	0.89036	0.065
Mof_C 	C 	0.3225	0.6017	0.6793	-0.056
Mof_C 	C 	0.1811	0.60238	0.8333	0.003
Mof_C 	C 	0.293	0.76632	0.7337	0.067
Mof_C 	C 	0.649	0.34129	0.65891	0.072
Mof_C 	C 	0.3212	0.16729	0.39979	0.019
Mof_C 	C 	0.3102	0.18903	0.36003	-0.109
Mof_C 	C 	0.2649	0.88888	0.657	0.12
Mof_C 	C 	0.1927	0.6422	0.8109	-0.099
Mof_C 	C 	0.1257	0.3225	0.1822	-0.01
Mof_C 	C 	0.307	0.063	0.09493	-0.137
Mof_C 	C 	0.381	0.7769	0.7038	-0.108
Mof_C 	C 	0.1657	0.9581	0.6382	0.103
Mof_C 	C 	0.2048	0.2397	0.27587	-0.043
Mof_C 	C 	0.1607	0.3209	0.4805	-0.154
Mof_C 	C 	0.2182	0.195	0.27782	-0.041
Mof_C 	C 	0.0088	0.39463	0.61103	0.331
Mof_C 	C 	0.1915	0.81482	0.8882	-0.013
Mof_C 	C 	0.8956	0.0761	0.62899	-0.106
Mof_C 	C 	0.7905	0.16719	0.71134	0.416
Mof_C 	C 	0.1924	0.2697	0.31606	0.063
Mof_C 	C 	0.3425	0.93147	0.8821	-0.146
Mof_C 	C 	0.313	0.13466	0.22832	-0.094
Mof_C 	C 	0.4082	0.6517	0.7403	-0.102
Mof_C 	C 	0.3194	0.2838	0.1648	-0.011
Mof_C 	C 	0.2366	0.55382	0.8994	0.138
Mof_C 	C 	0.1662	0.9164	0.6601	-0.175
Mof_C 	C 	0.251	0.5037	0.5949	0.144
Mof_C 	C 	0.2167	0.1651	0.23631	0.053
Mof_C 	C 	0.3605	0.9436	0.6098	0.093
Mof_C 	C 	0.2857	0.84824	0.8815	-0.036
Mof_C 	C 	0.6246	0.0855	0.91628	-0.111
Mof_C 	C 	0.3085	0.63515	0.8964	0
Mof_C 	C 	0.3168	0.0495	0.04931	0.085
Mof_C 	C 	0.384	0.8379	0.8537	-0.01
Mof_C 	C 	0.3316	0.97453	0.89712	0.086
Mof_C 	C 	0.3737	0.8167	0.6785	0.003
Mof_C 	C 	0.1931	0.1046	0.36609	0.022
Mof_C 	C 	0.2007	0.90664	0.93645	-0.147
Mof_N 	N 	0.2449	0.06765	0.01568	-0.267
Mof_N 	N 	0.2651	0.06102	0.53346	-0.302
Mof_N 	N 	0.2537	0.9851	0.93099	-0.265
Mof_N 	N 	0.2351	0.46867	0.94063	-0.293
Mof_N 	N 	0.2304	0.3858	0.52977	-0.308
Mof_N 	N 	0.2627	0.97264	0.6152	-0.276
Mof_N 	N 	0.2413	0.38651	0.02798	-0.275
Mof_N 	N 	0.2829	0.46973	0.61621	-0.295
Mof_O 	O 	0.0767	0.37531	0.9314	-0.443
Mof_O 	O 	0.68	0.18068	0.72186	-0.487
Mof_O 	O 	0.3722	0.37048	0.93044	-0.429
Mof_O 	O 	0.4255	0.06808	0.62737	-0.445
Mof_O 	O 	0.9869	0.03045	0.95734	-0.312
Mof_O 	O 	0.8513	0.18367	0.81864	-0.49
Mof_O 	O 	0.8776	0.27873	0.728	-0.483
Mof_O 	O 	0.6292	0.1819	0.81475	-0.482
Mof_O 	O 	0.0091	0.02785	0.57932	-0.327
Mof_O 	O 	0.1149	0.37636	0.62525	-0.439
Mof_O 	O 	0.1307	0.07083	0.63015	-0.43
Mof_O 	O 	0.6023	0.2767	0.8165	-0.465
Mof_O 	O 	0.6548	0.27664	0.72279	-0.483
Mof_O 	O 	0.0051	0.42556	0.58362	-0.327
Mof_O 	O 	0.3913	0.08352	0.91831	-0.435
Mof_O 	O 	0.9773	0.4223	0.97618	-0.322
Mof_O 	O 	0.5135	0.41896	0.57598	-0.329
Mof_O 	O 	0.9003	0.18229	0.72649	-0.469
Mof_O 	O 	0.4919	0.41986	0.97459	-0.335
Mof_O 	O 	0.5066	0.04276	0.96812	-0.322
Mof_O 	O 	0.8234	0.27806	0.82131	-0.484
Mof_O 	O 	0.4125	0.37463	0.62171	-0.438
Mof_O 	O 	0.0958	0.08216	0.9181	-0.432
Mof_O 	O 	0.526	0.02398	0.57928	-0.317
Mof_Zn	Zn	0.1006	0.76794	0.22425	1.2
Mof_Zn	Zn	0.74132	0.594	0.40641	1.216
Mof_Zn	Zn	0.73282	0.96143	0.40323	1.211
Mof_Zn	Zn	0.75233	0.94825	0.05112	1.21
Mof_Zn	Zn	0.764	0.59532	0.03775	1.211
Mof_Zn	Zn	0.39529	0.77234	0.23352	1.198
Mof_H 	H 	0.7056	0.6008	0.5718	0.106
Mof_H 	H 	0.6855	0.5691	0.4988	-0.044
Mof_H 	H 	0.8753	0.249	0.1313	0.064
Mof_H 	H 	0.8825	0.1437	0.2794	0.026
Mof_H 	H 	0.6389	0.4316	0.0463	0.108
Mof_H 	H 	0.268	0.5899	0.0327	0.038
Mof_H 	H 	0.622	0.7614	0.7881	0.061
Mof_H 	H 	0.6454	0.7824	0.642	0.07
Mof_H 	H 	0.6211	0.9109	0.8176	0.03
Mof_H 	H 	0.5965	0.6472	0.9771	-0.013
Mof_H 	H 	0.6589	0.6442	0.6303	0.028
Mof_H 	H 	0.8965	0.4769	0.1419	0.094
Mof_H 	H 	0.62	0.002	0.1165	-0.015
Mof_H 	H 	0.9205	0.5866	0.9523	0.001
Mof_H 	H 	0.8773	0.2108	0.2419	0.066
Mof_H 	H 	0.845	0.1165	0.0484	0.081
Mof_H 	H 	0.86	0.8872	0.7	0.067
Mof_H 	H 	0.7062	0.8762	0.4465	-0.033
Mof_H 	H 	0.414	0.88	0.3295	0.035
Mof_H 	H 	0.9104	0.8616	0.9242	0.075
Mof_H 	H 	0.5981	0.6837	0.9097	0.081
Mof_H 	H 	0.619	0.87	0.7489	0.064
Mof_H 	H 	0.0841	0.6703	0.1195	0.035
Mof_H 	H 	0.9395	0.6557	0.8245	0.032
Mof_H 	H 	0.2374	0.5869	0.4118	0.04
Mof_H 	H 	0.9256	0.6194	0.8828	0.085
Mof_H 	H 	0.458	0.8696	0.1283	0.04
Mof_H 	H 	0.8815	0.5487	0.1098	-0.028
Mof_H 	H 	0.8405	0.9848	0.4994	-0.025
Mof_H 	H 	0.623	0.9734	0.9578	0.012
Mof_H 	H 	0.6344	0.2991	0.1128	0.063
Mof_H 	H 	0.9715	0.76	0.6607	0.068
Mof_H 	H 	0.8666	0.0416	0.0258	0.009
Mof_H 	H 	0.6479	0.8499	0.5167	0.107
Mof_H 	H 	0.8517	0.3554	0.2181	0.067
Mof_H 	H 	0.547	0.1402	0.1496	0.033
Mof_H 	H 	0.846	0.925	0.6325	0.022
Mof_H 	H 	0.8689	0.7099	0.5224	0.083
Mof_H 	H 	0.5669	0.1177	0.3763	0.088
Mof_H 	H 	0.8894	0.887	0.9972	-0.016
Mof_H 	H 	0.6526	0.3666	0.0737	0.031
Mof_H 	H 	0.7875	0.5003	0.435	-0.031
Mof_H 	H 	0.6393	0.5019	0.0151	-0.015
Mof_H 	H 	0.2541	0.9535	0.0467	0.033
Mof_H 	H 	0.9689	0.7172	0.592	0.029
Mof_H 	H 	0.9595	0.8534	0.8591	0.034
Mof_H 	H 	0.7509	0.4265	0.4054	0.097
Mof_H 	H 	0.6552	0.6873	0.6963	0.068
Mof_H 	H 	0.0586	0.8727	0.129	0.039
Mof_H 	H 	0.6082	0.4793	0.2911	0.09
Mof_H 	H 	0.8336	0.303	0.3153	0.067
Mof_H 	H 	0.4315	0.6709	0.3308	0.036
Mof_H 	H 	0.6106	0.7214	0.8546	0.031
Mof_H 	H 	0.6426	0.5495	0.325	-0.022
Mof_H 	H 	0.9063	0.0919	0.3225	0.088
Mof_H 	H 	0.5604	0.1769	0.3422	0.027
Mof_H 	H 	0.8325	0.3704	0.3566	0.03
Mof_H 	H 	0.9094	0.0236	0.3596	-0.016
Mof_H 	H 	0.5276	0.3422	0.2354	0.069
Mof_H 	H 	0.4826	0.6714	0.1222	0.037
Mof_H 	H 	0.6033	0.0746	0.1424	0.077
Mof_H 	H 	0.0355	0.6666	0.326	0.035
Mof_H 	H 	0.014	0.8762	0.3278	0.039
Mof_H 	H 	0.8739	0.1801	0.0906	0.03
Mof_H 	H 	0.8684	0.4224	0.1809	0.025
Mof_H 	H 	0.6287	0.819	0.5751	0.018
Mof_H 	H 	0.819	0.9557	0.5711	0.119
Mof_H 	H 	0.6419	0.9517	0.8821	0.078
Mof_H 	H 	0.8577	0.6724	0.4517	-0.009
Mof_H 	H 	0.2263	0.9654	0.4096	0.039
Mof_H 	H 	0.9489	0.6968	0.759	0.062
Mof_H 	H 	0.521	0.4093	0.277	0.029
Mof_H 	H 	0.5401	0.2085	0.1879	0.06
Mof_H 	H 	0.9576	0.8131	0.7912	0.061
Mof_H 	H 	0.5691	0.0478	0.4084	0.001
Mof_H 	H 	0.5487	0.2431	0.3008	0.067
Mof_C 	C 	0.4717	0.94621	0.38977	0.326
Mof_C 	C 	0.1177	0.65635	0.33843	0.076
Mof_C 	C 	0.8095	0.2038	0.2617	-0.102
Mof_C 	C 	0.1044	0.9239	0.37101	-0.106
Mof_C 	C 	0.8374	0.4806	0.1162	-0.188
Mof_C 	C 	0.8743	0.6775	0.8178	-0.01
Mof_C 	C 	0.6915	0.36485	0.1036	0
Mof_C 	C 	0.0101	0.93642	0.0686	0.309
Mof_C 	C 	0.6668	0.5237	0.3418	0.109
Mof_C 	C 	0.3948	0.62831	0.07446	-0.117
Mof_C 	C 	0.8343	0.0419	0.3618	0.103
Mof_C 	C 	0.7348	0.8983	0.5521	0.194
Mof_C 	C 	0.7114	0.8962	0.4723	0.14
Mof_C 	C 	0.118	0.62371	0.37162	-0.122
Mof_C 	C 	0.3765	0.88163	0.11728	0.057
Mof_C 	C 	0.7306	0.5977	0.5027	0.186
Mof_C 	C 	0.5918	0.3483	0.2597	-0.102
Mof_C 	C 	0.8338	0.0836	0.3399	-0.175
Mof_C 	C 	0.3754	0.9145	0.08372	-0.111
Mof_C 	C 	0.1636	0.65937	0.10821	0.069
Mof_C 	C 	0.7952	0.7603	0.72413	-0.043
Mof_C 	C 	0.7164	0.27795	0.1953	-0.037
Mof_C 	C 	0.904	0.7374	0.6541	-0.102
Mof_C 	C 	0.7993	0.09336	0.06355	-0.147
Mof_C 	C 	0.6775	0.3983	0.3207	-0.056
Mof_C 	C 	0.2328	0.70924	0.28789	0.413
Mof_C 	C 	0.2723	0.61198	0.05669	0.054
Mof_C 	C 	0.7756	0.90296	0.89323	0.088
Mof_C 	C 	0.772	0.3253	0.3065	-0.104
Mof_C 	C 	0.8857	0.8321	0.7968	-0.087
Mof_C 	C 	0.2228	0.9417	0.3872	0.047
Mof_C 	C 	0.7848	0.9382	0.5454	-0.227
Mof_C 	C 	0.2872	0.70988	0.16674	0.41
Mof_C 	C 	0.693	0.4975	0.042	0.132
Mof_C 	C 	0.34	0.92538	0.37124	-0.113
Mof_C 	C 	0.2837	0.67602	0.12711	-0.135
Mof_C 	C 	0.8868	0.8559	0.8376	-0.012
Mof_C 	C 	0.7243	0.10469	0.09817	0.095
Mof_C 	C 	0.6368	0.0979	0.3707	-0.166
Mof_C 	C 	0.7189	0.6944	0.675	-0.105
Mof_C 	C 	0.9912	0.60537	0.38897	0.331
Mof_C 	C 	0.8069	0.8954	0.63391	0.022
Mof_C 	C 	0.7634	0.44618	0.1006	0.138
Mof_C 	C 	0.6934	0.8784	0.5152	-0.229
Mof_C 	C 	0.7911	0.7353	0.76727	0.054
Mof_C 	C 	0.6671	0.6418	0.958	0.09
Mof_C 	C 	0.8127	0.6775	0.6036	-0.06
Mof_C 	C 	0.6858	0.4429	0.3437	0.124
Mof_C 	C 	0.6801	0.32448	0.1273	-0.098
Mof_C 	C 	0.5874	0.3883	0.2847	0.002
Mof_C 	C 	0.7601	0.40257	0.1239	-0.059
Mof_C 	C 	0.6916	0.4553	0.0611	-0.185
Mof_C 	C 	0.6684	0.02547	0.10288	0.086
Mof_C 	C 	0.8162	0.8725	0.67415	-0.11
Mof_C 	C 	0.2318	0.6737	0.32344	-0.145
Mof_C 	C 	0.6879	0.88958	0.813	-0.012
Mof_C 	C 	0.619	0.2231	0.2962	-0.108
Mof_C 	C 	0.7417	0.87588	0.59584	-0.089
Mof_C 	C 	0.6898	0.81097	0.63997	-0.109
Mof_C 	C 	0.6674	0.6638	0.9176	-0.156
Mof_C 	C 	0.7841	0.8832	0.84738	-0.035
Mof_C 	C 	0.707	0.23368	0.2663	0.067
Mof_C 	C 	0.7213	0.6686	0.6356	0.006
Mof_C 	C 	0.85	0.8849	0.9299	-0.14
Mof_C 	C 	0.749	0.4963	0.4051	0.144
Mof_C 	C 	0.5163	0.61123	0.05522	0.315
Mof_C 	C 	0.8085	0.18518	0.1118	-0.013
Mof_C 	C 	0.6806	0.7162	0.8352	-0.011
Mof_C 	C 	0.8572	0.627	0.9021	-0.159
Mof_C 	C 	0.7639	0.8287	0.67845	0.064
Mof_C 	C 	0.7351	0.11112	0.343	0.12
Mof_C 	C 	0.6575	0.06853	0.1179	-0.146
Mof_C 	C 	0.1393	0.88387	0.11801	0.06
Mof_C 	C 	0.687	0.86534	0.77168	-0.094
Mof_C 	C 	0.616	0.1621	0.1463	-0.01
Mof_C 	C 	0.2095	0.83281	0.28866	0.416
Mof_C 	C 	0.6122	0.2026	0.1696	-0.086
Mof_C 	C 	0.2593	0.83065	0.17015	0.41
Mof_C 	C 	0.7139	0.23537	0.1666	0.049
Mof_C 	C 	0.8076	0.7303	0.68394	0.063
Mof_C 	C 	0.5	0.93088	0.06419	0.315
Mof_C 	C 	0.7673	0.6574	0.88828	0.103
Mof_C 	C 	0.9037	0.711	0.613	0.001
Mof_C 	C 	0.2582	0.86678	0.13438	-0.129
Mof_C 	C 	0.8262	0.6571	0.477	0.077
Mof_C 	C 	0.0975	0.88872	0.33881	0.058
Mof_C 	C 	0.3545	0.62528	0.37451	-0.127
Mof_C 	C 	0.8189	0.39762	0.1667	0.003
Mof_C 	C 	0.7306	0.4513	0.3866	-0.187
Mof_C 	C 	0.6832	0.9505	0.95069	0.085
Mof_C 	C 	0.837	0.9002	0.97352	0.086
Mof_C 	C 	0.6879	0.31667	0.2692	0.063
Mof_C 	C 	0.7328	0.32063	0.1708	0.058
Mof_C 	C 	0.7753	0.684	0.84635	-0.04
Mof_C 	C 	0.8148	0.1644	0.2851	0.004
Mof_C 	C 	0.6889	0.7405	0.7957	-0.089
Mof_C 	C 	0.7702	0.3652	0.3316	0.002
Mof_C 	C 	0.351	0.65871	0.34109	0.072
Mof_C 	C 	0.8073	0.6543	0.5587	0.133
Mof_C 	C 	0.7833	0.8349	0.76369	0.053
Mof_C 	C 	0.7448	0.6168	0.5483	-0.216
Mof_C 	C 	0.0272	0.60809	0.0537	0.336
Mof_C 	C 	0.2556	0.93112	0.06923	0.051
Mof_C 	C 	0.7024	0.27613	0.2403	-0.049
Mof_C 	C 	0.3339	0.89122	0.34001	0.067
Mof_C 	C 	0.8801	0.7025	0.7787	-0.092
Mof_C 	C 	0.8087	0.22653	0.13599	-0.091
Mof_C 	C 	0.6395	0.0564	0.3902	0.093
Mof_C 	C 	0.8073	0.3578	0.1891	-0.099
Mof_C 	C 	0.6476	0.4818	0.321	-0.172
Mof_C 	C 	0.8318	0.5241	0.0954	0.128
Mof_C 	C 	0.6263	0.1833	0.3215	0.003
Mof_C 	C 	0.811	0.04852	0.0497	0.091
Mof_C 	C 	0.8393	0.6791	0.5195	-0.154
Mof_C 	C 	0.1563	0.62729	0.07336	-0.122
Mof_C 	C 	0.9796	0.94321	0.38836	0.307
Mof_C 	C 	0.7818	0.805	0.72218	-0.041
Mof_C 	C 	0.8523	0.6066	0.9437	0.095
Mof_C 	C 	0.7915	0.9572	0.502	0.159
Mof_C 	C 	0.1368	0.91696	0.08578	-0.111
Mof_C 	C 	0.693	0.937	0.90507	-0.137
Mof_C 	C 	0.7143	0.15176	0.1185	-0.036
Mof_C 	C 	0.7246	0.15399	0.3168	-0.054
Mof_C 	C 	0.2366	0.60899	0.38902	0.064
Mof_C 	C 	0.4822	0.60874	0.39363	0.342
Mof_C 	C 	0.6788	0.83271	0.60021	0.019
Mof_C 	C 	0.3991	0.6601	0.10964	0.065
Mof_C 	C 	0.2141	0.87194	0.32276	-0.134
Mof_N 	N 	0.7349	0.93898	0.46654	-0.302
Mof_N 	N 	0.7551	0.93235	0.98432	-0.267
Mof_N 	N 	0.7171	0.53027	0.38379	-0.295
Mof_N 	N 	0.7696	0.6142	0.47023	-0.308
Mof_N 	N 	0.7373	0.02736	0.3848	-0.276
Mof_N 	N 	0.7587	0.61349	0.97202	-0.275
Mof_N 	N 	0.7649	0.53133	0.05937	-0.293
Mof_N 	N 	0.7463	0.0149	0.06901	-0.265
Mof_O 	O 	0.9233	0.62469	0.0686	-0.443
Mof_O 	O 	0.0997	0.81771	0.27351	-0.469
Mof_O 	O 	0.5875	0.62537	0.37829	-0.438
Mof_O 	O 	0.6278	0.62952	0.06956	-0.429
Mof_O 	O 	0.1766	0.72194	0.17869	-0.484
Mof_O 	O 	0.9042	0.91784	0.0819	-0.432
Mof_O 	O 	0.8693	0.92917	0.36985	-0.43
Mof_O 	O 	0.3452	0.72336	0.27721	-0.483
Mof_O 	O 	0.5745	0.93192	0.37263	-0.445
Mof_O 	O 	0.474	0.97602	0.42072	-0.317
Mof_O 	O 	0.3708	0.8181	0.18525	-0.482
Mof_O 	O 	0.1224	0.72127	0.272	-0.483
Mof_O 	O 	0.0131	0.96955	0.04266	-0.312
Mof_O 	O 	0.6087	0.91648	0.08169	-0.435
Mof_O 	O 	0.1487	0.81633	0.18136	-0.49
Mof_O 	O 	0.4934	0.95724	0.03188	-0.322
Mof_O 	O 	0.4865	0.58104	0.42402	-0.329
Mof_O 	O 	0.32	0.81932	0.27814	-0.487
Mof_O 	O 	0.3977	0.7233	0.1835	-0.465
Mof_O 	O 	0.9949	0.57444	0.41638	-0.327
Mof_O 	O 	0.5081	0.58014	0.02541	-0.335
Mof_O 	O 	0.9909	0.97215	0.42068	-0.327
Mof_O 	O 	0.0227	0.5777	0.02382	-0.322
Mof_O 	O 	0.8851	0.62364	0.37475	-0.439
_end
