data_functionalizedCrystal
_audit_creation_method	'EQeq! by Chris Wilmer'
_symmetry_space_group_name_H-M	'P1'
_symmetry_Int_Tables_number	1
_symmetry_cell_setting	triclinic
loop_
_symmetry_equiv_pos_as_xyz
  x,y,z
_cell_length_a	8.0173
_cell_length_b	15.5052
_cell_length_c	18.3232
_cell_angle_alpha	74.6311
_cell_angle_beta	77.3629
_cell_angle_gamma	75.0168
loop_
_atom_site_label
_atom_site_type_symbol
_atom_site_fract_x
_atom_site_fract_y
_atom_site_fract_z
_atom_site_charge
Mof_Co	Co	0.14522	0.87324	0.8976	1.122
Mof_Co	Co	0.82203	0.97806	0.99354	1.123
Mof_Co	Co	0.88274	0.74885	0.98683	1.152
Mof_Co	Co	0.91606	0.62676	0.6024	1.123
Mof_Co	Co	0.79363	0.52194	0.50646	1.131
Mof_Co	Co	0.61842	0.75115	0.51317	1.158
Mof_Co	Co	0.85478	0.12676	0.1024	1.121
Mof_Co	Co	0.17797	0.02194	0.00646	1.122
Mof_Co	Co	0.11726	0.25115	0.01317	1.152
Mof_Co	Co	0.08394	0.37324	0.3976	1.123
Mof_Co	Co	0.20637	0.47806	0.49354	1.131
Mof_Co	Co	0.38158	0.24885	0.48683	1.158
Mof_H 	H 	0.0424	0.8218	0.0476	0.16
Mof_H 	H 	0.0452	0.055	0.8786	0.176
Mof_H 	H 	0.5019	0.725	0.8658	0.165
Mof_H 	H 	0.6719	0.6916	0.895	0.145
Mof_H 	H 	0.5147	0.944	0.0852	0.141
Mof_H 	H 	0.6426	0.8584	0.1002	0.133
Mof_H 	H 	0.5959	0.3251	0.2493	0.015
Mof_H 	H 	0.8888	0.4894	0.0994	0.028
Mof_H 	H 	0.5651	0.5763	0.2789	0.019
Mof_H 	H 	0.9118	0.6782	0.4524	0.169
Mof_H 	H 	0.9788	0.445	0.6214	0.174
Mof_H 	H 	0.0927	0.775	0.6342	0.166
Mof_H 	H 	0.2585	0.8084	0.605	0.146
Mof_H 	H 	0.5439	0.556	0.4148	0.137
Mof_H 	H 	0.6012	0.6416	0.3998	0.131
Mof_H 	H 	0.1703	0.1749	0.2507	0.012
Mof_H 	H 	0.4776	0.0106	0.4006	0.027
Mof_H 	H 	0.4203	0.9237	0.2211	0.017
Mof_H 	H 	0.9576	0.1782	0.9524	0.16
Mof_H 	H 	0.9548	0.945	0.1214	0.176
Mof_H 	H 	0.4981	0.275	0.1342	0.165
Mof_H 	H 	0.3281	0.3084	0.105	0.145
Mof_H 	H 	0.4853	0.056	0.9148	0.141
Mof_H 	H 	0.3574	0.1416	0.8998	0.133
Mof_H 	H 	0.4041	0.6749	0.7507	0.015
Mof_H 	H 	0.1112	0.5106	0.9006	0.028
Mof_H 	H 	0.4349	0.4237	0.7211	0.019
Mof_H 	H 	0.0882	0.3218	0.5476	0.169
Mof_H 	H 	0.0212	0.555	0.3786	0.174
Mof_H 	H 	0.9073	0.225	0.3658	0.166
Mof_H 	H 	0.7415	0.1916	0.395	0.146
Mof_H 	H 	0.4561	0.444	0.5852	0.137
Mof_H 	H 	0.3988	0.3584	0.6002	0.131
Mof_H 	H 	0.8297	0.8251	0.7493	0.012
Mof_H 	H 	0.5224	0.9894	0.5994	0.027
Mof_H 	H 	0.5797	0.0763	0.7789	0.017
Mof_C 	C 	0.51948	0.79054	0.9397	0.201
Mof_C 	C 	0.52887	0.86856	0.0171	0.182
Mof_C 	C 	0.56048	0.44824	0.2756	-0.162
Mof_C 	C 	0.63136	0.38058	0.2335	0.079
Mof_C 	C 	0.75529	0.39622	0.1678	-0.156
Mof_C 	C 	0.80667	0.47886	0.1434	0.076
Mof_C 	C 	0.7346	0.5462	0.1852	-0.146
Mof_C 	C 	0.61216	0.53088	0.2512	0.076
Mof_C 	C 	0.42881	0.43118	0.347	0.377
Mof_C 	C 	0.84076	0.32228	0.1242	0.395
Mof_C 	C 	0.24972	0.70946	0.5603	0.202
Mof_C 	C 	0.41453	0.63144	0.4829	0.165
Mof_C 	C 	0.28432	0.05176	0.2244	-0.173
Mof_C 	C 	0.24544	0.11942	0.2665	0.083
Mof_C 	C 	0.31931	0.10378	0.3322	-0.159
Mof_C 	C 	0.42893	0.02114	0.3566	0.073
Mof_C 	C 	0.466	0.9538	0.3148	-0.147
Mof_C 	C 	0.39424	0.96912	0.2488	0.086
Mof_C 	C 	0.20699	0.06882	0.153	0.381
Mof_C 	C 	0.28724	0.17772	0.3758	0.396
Mof_C 	C 	0.48052	0.20946	0.0603	0.201
Mof_C 	C 	0.47113	0.13144	0.9829	0.182
Mof_C 	C 	0.43952	0.55176	0.7244	-0.162
Mof_C 	C 	0.36864	0.61942	0.7665	0.079
Mof_C 	C 	0.24471	0.60378	0.8322	-0.156
Mof_C 	C 	0.19333	0.52114	0.8566	0.076
Mof_C 	C 	0.2654	0.4538	0.8148	-0.146
Mof_C 	C 	0.38784	0.46912	0.7488	0.076
Mof_C 	C 	0.57119	0.56882	0.653	0.377
Mof_C 	C 	0.15924	0.67772	0.8758	0.395
Mof_C 	C 	0.75028	0.29054	0.4397	0.202
Mof_C 	C 	0.58547	0.36856	0.5171	0.165
Mof_C 	C 	0.71568	0.94824	0.7756	-0.173
Mof_C 	C 	0.75456	0.88058	0.7335	0.083
Mof_C 	C 	0.68069	0.89622	0.6678	-0.159
Mof_C 	C 	0.57107	0.97886	0.6434	0.073
Mof_C 	C 	0.534	0.0462	0.6852	-0.147
Mof_C 	C 	0.60576	0.03088	0.7512	0.086
Mof_C 	C 	0.79301	0.93118	0.847	0.381
Mof_C 	C 	0.71276	0.82228	0.6242	0.396
Mof_S 	S 	0.8196	0.6457	0.16254	0.534
Mof_S 	S 	0.62784	0.8543	0.33746	0.535
Mof_S 	S 	0.1804	0.3543	0.83746	0.534
Mof_S 	S 	0.37216	0.1457	0.66254	0.535
Mof_N 	N 	0.37355	0.90085	0.99605	-0.242
Mof_N 	N 	0.36745	0.84976	0.94374	-0.256
Mof_N 	N 	0.62635	0.79885	0.98445	-0.304
Mof_N 	N 	0.57067	0.72806	0.8946	-0.342
Mof_N 	N 	0.6	0.90421	0.06279	-0.375
Mof_N 	N 	0.27045	0.59915	0.50395	-0.235
Mof_N 	N 	0.16095	0.65024	0.55626	-0.255
Mof_N 	N 	0.40965	0.70115	0.51555	-0.297
Mof_N 	N 	0.19333	0.77194	0.6054	-0.343
Mof_N 	N 	0.567	0.59579	0.43721	-0.374
Mof_N 	N 	0.62645	0.09915	0.00395	-0.242
Mof_N 	N 	0.63255	0.15024	0.05626	-0.256
Mof_N 	N 	0.37365	0.20115	0.01555	-0.304
Mof_N 	N 	0.42933	0.27194	0.1054	-0.342
Mof_N 	N 	0.4	0.09579	0.93721	-0.375
Mof_N 	N 	0.72955	0.40085	0.49605	-0.235
Mof_N 	N 	0.83905	0.34976	0.44374	-0.255
Mof_N 	N 	0.59035	0.29885	0.48445	-0.297
Mof_N 	N 	0.80667	0.22806	0.3946	-0.343
Mof_N 	N 	0.433	0.40421	0.56279	-0.374
Mof_O 	O 	0.3969	0.48378	0.39222	-0.464
Mof_O 	O 	0.36092	0.36325	0.35811	-0.497
Mof_O 	O 	0.76798	0.25679	0.13385	-0.459
Mof_O 	O 	0.98417	0.33231	0.08055	-0.463
Mof_O 	O 	0.93496	0.62793	0.21755	-0.285
Mof_O 	O 	0.91695	0.6496	0.0841	-0.426
Mof_O 	O 	0.67719	0.72254	0.16768	-0.301
Mof_O 	O 	0.98079	0.84203	0.00339	-0.708
Mof_O 	O 	0.05814	0.00365	0.92307	-0.693
Mof_O 	O 	0.2729	0.01622	0.10778	-0.472
Mof_O 	O 	0.08228	0.13675	0.14189	-0.503
Mof_O 	O 	0.15862	0.24321	0.36615	-0.46
Mof_O 	O 	0.39703	0.16769	0.41945	-0.466
Mof_O 	O 	0.78044	0.87207	0.28245	-0.284
Mof_O 	O 	0.65065	0.8504	0.4159	-0.43
Mof_O 	O 	0.56741	0.77746	0.33232	-0.303
Mof_O 	O 	0.82621	0.65797	0.49661	-0.726
Mof_O 	O 	0.98486	0.49635	0.57693	-0.704
Mof_O 	O 	0.6031	0.51622	0.60778	-0.464
Mof_O 	O 	0.63908	0.63675	0.64189	-0.497
Mof_O 	O 	0.23202	0.74321	0.86615	-0.459
Mof_O 	O 	0.01583	0.66769	0.91945	-0.463
Mof_O 	O 	0.06504	0.37207	0.78245	-0.285
Mof_O 	O 	0.08305	0.3504	0.9159	-0.426
Mof_O 	O 	0.32281	0.27746	0.83232	-0.301
Mof_O 	O 	0.01921	0.15797	0.99661	-0.708
Mof_O 	O 	0.94186	0.99635	0.07693	-0.693
Mof_O 	O 	0.7271	0.98378	0.89222	-0.472
Mof_O 	O 	0.91772	0.86325	0.85811	-0.503
Mof_O 	O 	0.84138	0.75679	0.63385	-0.46
Mof_O 	O 	0.60297	0.83231	0.58055	-0.466
Mof_O 	O 	0.21956	0.12793	0.71755	-0.284
Mof_O 	O 	0.34935	0.1496	0.5841	-0.43
Mof_O 	O 	0.43259	0.22254	0.66768	-0.303
Mof_O 	O 	0.17379	0.34203	0.50339	-0.726
Mof_O 	O 	0.01514	0.50365	0.42307	-0.704
_end
