data_functionalizedCrystal
_audit_creation_method	'EQeq! by Chris Wilmer'
_symmetry_space_group_name_H-M	'P1'
_symmetry_Int_Tables_number	1
_symmetry_cell_setting	triclinic
loop_
_symmetry_equiv_pos_as_xyz
  x,y,z
_cell_length_a	20.2327
_cell_length_b	10.0714
_cell_length_c	21.673
_cell_angle_alpha	90
_cell_angle_beta	97.856
_cell_angle_gamma	90
loop_
_atom_site_label
_atom_site_type_symbol
_atom_site_fract_x
_atom_site_fract_y
_atom_site_fract_z
_atom_site_charge
Mof_Th	Th	0.14896	0.79057	0.41306	0.043
Mof_Th	Th	0.35648	0.78556	0.59304	0.045
Mof_O 	O 	0.1615	0.8651	0.51827	-0.164
Mof_O 	O 	0.1761	0.7525	0.80523	-0.168
Mof_O 	O 	0.3441	0.8522	0.48742	-0.169
Mof_O 	O 	0.1067	0.895	0.83782	-0.17
Mof_O 	O 	0.3276	0.7422	0.2	-0.167
Mof_O 	O 	0.2682	0.7719	0.4149	-0.158
Mof_O 	O 	0.3839	0.9045	0.16743	-0.181
Mof_O 	O 	0.1925	0.6014	0.474	-0.16
Mof_O 	O 	0.5408	0.1524	0.3307	-0.172
Mof_O 	O 	0.9443	0.1223	0.66691	-0.17
Mof_O 	O 	0.1925	0.9989	0.3984	-0.165
Mof_O 	O 	0.9431	0.0438	0.5723	-0.177
Mof_C 	C 	0.1564	0.8576	0.6843	-0.011
Mof_H 	H 	0.1969	0.815	0.6963	0.088
Mof_C 	C 	0.1371	0.8908	0.6218	-0.023
Mof_C 	C 	0.3607	0.8861	0.3835	-0.024
Mof_C 	C 	0.0751	0.9502	0.6031	-0.013
Mof_H 	H 	0.0607	0.9657	0.5611	0.086
Mof_C 	C 	0.3214	0.8339	0.4319	0.277
Mof_C 	C 	0.4164	0.9644	0.4001	-0.011
Mof_H 	H 	0.4304	0.9839	0.4418	0.085
Mof_C 	C 	0.115	0.8884	0.7283	-0.027
Mof_C 	C 	0.1339	0.8455	0.7944	0.28
Mof_C 	C 	0.0355	0.9858	0.6476	-0.029
Mof_C 	C 	0.3627	0.8476	0.2104	0.289
Mof_C 	C 	0.0561	0.957	0.7102	-0.006
Mof_H 	H 	0.0302	0.9841	0.7402	0.081
Mof_C 	C 	0.2891	0.1992	0.556	-0.028
Mof_C 	C 	0.3783	0.8971	0.276	-0.03
Mof_C 	C 	0.1832	0.8634	0.5752	0.274
Mof_C 	C 	0.248	0.4052	0.5069	-0.024
Mof_C 	C 	0.3414	0.852	0.3213	-0.009
Mof_H 	H 	0.304	0.7991	0.3102	0.089
Mof_C 	C 	0.2198	0.3358	0.4547	-0.011
Mof_H 	H 	0.1974	0.3813	0.4208	0.087
Mof_C 	C 	0.4517	0.0139	0.3542	-0.03
Mof_C 	C 	0.225	0.1966	0.4528	-0.03
Mof_C 	C 	0.2832	0.338	0.5574	-0.013
Mof_H 	H 	0.3029	0.3853	0.592	0.087
Mof_O 	O 	0.5354	0.1093	0.4286	-0.175
Mof_O 	O 	0.2426	0.8431	0.5962	-0.162
Mof_O 	O 	0.3464	0.0128	0.6042	-0.16
Mof_O 	O 	0.2834	0.6163	0.5442	-0.161
Mof_C 	C 	0.9704	0.0536	0.6277	0.28
Mof_C 	C 	0.2414	0.5521	0.5089	0.277
Mof_C 	C 	0.2605	0.1309	0.5037	-0.013
Mof_H 	H 	0.2649	0.0391	0.5024	0.094
Mof_C 	C 	0.4323	0.9812	0.2921	-0.004
Mof_H 	H 	0.4554	0.0155	0.2614	0.082
Mof_C 	C 	0.1933	0.1246	0.3961	0.293
Mof_C 	C 	0.5123	0.0983	0.3721	0.285
Mof_C 	C 	0.3266	0.1305	0.6114	0.288
Mof_O 	O 	0.1674	0.1877	0.3519	-0.2
Mof_O 	O 	0.3395	0.1909	0.6601	-0.196
Mof_Th	Th	0.85104	0.29057	0.08694	0.043
Mof_Th	Th	0.64352	0.28556	0.90696	0.045
Mof_O 	O 	0.8385	0.3651	0.98173	-0.164
Mof_O 	O 	0.8239	0.2525	0.69477	-0.168
Mof_O 	O 	0.6559	0.3522	0.01258	-0.168
Mof_O 	O 	0.8933	0.395	0.66218	-0.171
Mof_O 	O 	0.6724	0.2422	0.3	-0.167
Mof_O 	O 	0.7318	0.2719	0.0851	-0.158
Mof_O 	O 	0.6161	0.4045	0.33257	-0.181
Mof_O 	O 	0.8075	0.1014	0.026	-0.159
Mof_O 	O 	0.4592	0.6524	0.1693	-0.172
Mof_O 	O 	0.0557	0.6223	0.83309	-0.17
Mof_O 	O 	0.8075	0.4989	0.1016	-0.165
Mof_O 	O 	0.0569	0.5438	0.9277	-0.177
Mof_C 	C 	0.8436	0.3576	0.8157	-0.011
Mof_H 	H 	0.8031	0.315	0.8037	0.088
Mof_C 	C 	0.8629	0.3908	0.8782	-0.024
Mof_C 	C 	0.6393	0.3861	0.1165	-0.024
Mof_C 	C 	0.9249	0.4502	0.8969	-0.012
Mof_H 	H 	0.9393	0.4657	0.9389	0.085
Mof_C 	C 	0.6786	0.3339	0.0681	0.277
Mof_C 	C 	0.5836	0.4644	0.0999	-0.012
Mof_H 	H 	0.5696	0.4839	0.0582	0.085
Mof_C 	C 	0.885	0.3884	0.7717	-0.027
Mof_C 	C 	0.8661	0.3455	0.7056	0.28
Mof_C 	C 	0.9645	0.4858	0.8524	-0.03
Mof_C 	C 	0.6373	0.3476	0.2896	0.289
Mof_C 	C 	0.9439	0.457	0.7898	-0.006
Mof_H 	H 	0.9698	0.4841	0.7598	0.081
Mof_C 	C 	0.7109	0.6992	0.944	-0.028
Mof_C 	C 	0.6217	0.3971	0.224	-0.03
Mof_C 	C 	0.8168	0.3634	0.9248	0.274
Mof_C 	C 	0.752	0.9052	0.9931	-0.024
Mof_C 	C 	0.6586	0.352	0.1787	-0.009
Mof_H 	H 	0.696	0.2991	0.1898	0.089
Mof_C 	C 	0.7802	0.8358	0.0453	-0.011
Mof_H 	H 	0.8026	0.8813	0.0792	0.087
Mof_C 	C 	0.5483	0.5139	0.1458	-0.03
Mof_C 	C 	0.775	0.6966	0.0472	-0.03
Mof_C 	C 	0.7168	0.838	0.9426	-0.013
Mof_H 	H 	0.6971	0.8853	0.908	0.088
Mof_O 	O 	0.4646	0.6093	0.0714	-0.175
Mof_O 	O 	0.7574	0.3431	0.9038	-0.162
Mof_O 	O 	0.6536	0.5128	0.8958	-0.16
Mof_O 	O 	0.7166	0.1163	0.9558	-0.161
Mof_C 	C 	0.0296	0.5536	0.8723	0.281
Mof_C 	C 	0.7586	0.0521	0.9911	0.276
Mof_C 	C 	0.7395	0.6309	0.9963	-0.013
Mof_H 	H 	0.7351	0.5391	0.9976	0.095
Mof_C 	C 	0.5677	0.4812	0.2079	-0.004
Mof_H 	H 	0.5446	0.5155	0.2386	0.083
Mof_C 	C 	0.8067	0.6246	0.1039	0.294
Mof_C 	C 	0.4877	0.5983	0.1279	0.285
Mof_C 	C 	0.6734	0.6305	0.8886	0.288
Mof_O 	O 	0.8326	0.6877	0.1481	-0.2
Mof_O 	O 	0.6605	0.6909	0.8399	-0.196
Mof_Th	Th	0.85104	0.20943	0.58694	0.043
Mof_Th	Th	0.64352	0.21444	0.40696	0.045
Mof_O 	O 	0.8385	0.1349	0.48173	-0.164
Mof_O 	O 	0.8239	0.2475	0.19477	-0.168
Mof_O 	O 	0.6559	0.1478	0.51258	-0.169
Mof_O 	O 	0.8933	0.105	0.16218	-0.17
Mof_O 	O 	0.6724	0.2578	0.8	-0.167
Mof_O 	O 	0.7318	0.2281	0.5851	-0.158
Mof_O 	O 	0.6161	0.0955	0.83257	-0.181
Mof_O 	O 	0.8075	0.3986	0.526	-0.16
Mof_O 	O 	0.4592	0.8476	0.6693	-0.172
Mof_O 	O 	0.0557	0.8777	0.33309	-0.17
Mof_O 	O 	0.8075	0.0011	0.6016	-0.165
Mof_O 	O 	0.0569	0.9562	0.4277	-0.177
Mof_C 	C 	0.8436	0.1424	0.3157	-0.011
Mof_H 	H 	0.8031	0.185	0.3037	0.088
Mof_C 	C 	0.8629	0.1092	0.3782	-0.023
Mof_C 	C 	0.6393	0.1139	0.6165	-0.024
Mof_C 	C 	0.9249	0.0498	0.3969	-0.013
Mof_H 	H 	0.9393	0.0343	0.4389	0.086
Mof_C 	C 	0.6786	0.1661	0.5681	0.277
Mof_C 	C 	0.5836	0.0356	0.5999	-0.011
Mof_H 	H 	0.5696	0.0161	0.5582	0.085
Mof_C 	C 	0.885	0.1116	0.2717	-0.027
Mof_C 	C 	0.8661	0.1545	0.2056	0.28
Mof_C 	C 	0.9645	0.0142	0.3524	-0.029
Mof_C 	C 	0.6373	0.1524	0.7896	0.289
Mof_C 	C 	0.9439	0.043	0.2898	-0.006
Mof_H 	H 	0.9698	0.0159	0.2598	0.081
Mof_C 	C 	0.7109	0.8008	0.444	-0.028
Mof_C 	C 	0.6217	0.1029	0.724	-0.03
Mof_C 	C 	0.8168	0.1366	0.4248	0.274
Mof_C 	C 	0.752	0.5948	0.4931	-0.024
Mof_C 	C 	0.6586	0.148	0.6787	-0.009
Mof_H 	H 	0.696	0.2009	0.6898	0.089
Mof_C 	C 	0.7802	0.6642	0.5453	-0.011
Mof_H 	H 	0.8026	0.6187	0.5792	0.087
Mof_C 	C 	0.5483	0.9861	0.6458	-0.03
Mof_C 	C 	0.775	0.8034	0.5472	-0.03
Mof_C 	C 	0.7168	0.662	0.4426	-0.013
Mof_H 	H 	0.6971	0.6147	0.408	0.087
Mof_O 	O 	0.4646	0.8907	0.5714	-0.175
Mof_O 	O 	0.7574	0.1569	0.4038	-0.162
Mof_O 	O 	0.6536	0.9872	0.3958	-0.16
Mof_O 	O 	0.7166	0.3837	0.4558	-0.161
Mof_C 	C 	0.0296	0.9464	0.3723	0.28
Mof_C 	C 	0.7586	0.4479	0.4911	0.277
Mof_C 	C 	0.7395	0.8691	0.4963	-0.013
Mof_H 	H 	0.7351	0.9609	0.4976	0.094
Mof_C 	C 	0.5677	0.0188	0.7079	-0.004
Mof_H 	H 	0.5446	0.9845	0.7386	0.082
Mof_C 	C 	0.8067	0.8754	0.6039	0.293
Mof_C 	C 	0.4877	0.9017	0.6279	0.285
Mof_C 	C 	0.6734	0.8695	0.3886	0.288
Mof_O 	O 	0.8326	0.8123	0.6481	-0.2
Mof_O 	O 	0.6605	0.8091	0.3399	-0.196
Mof_Th	Th	0.14896	0.70943	0.91306	0.043
Mof_Th	Th	0.35648	0.71444	0.09304	0.045
Mof_O 	O 	0.1615	0.6349	0.01827	-0.164
Mof_O 	O 	0.1761	0.7475	0.30523	-0.168
Mof_O 	O 	0.3441	0.6478	0.98742	-0.168
Mof_O 	O 	0.1067	0.605	0.33782	-0.171
Mof_O 	O 	0.3276	0.7578	0.7	-0.167
Mof_O 	O 	0.2682	0.7281	0.9149	-0.158
Mof_O 	O 	0.3839	0.5955	0.66743	-0.181
Mof_O 	O 	0.1925	0.8986	0.974	-0.159
Mof_O 	O 	0.5408	0.3476	0.8307	-0.172
Mof_O 	O 	0.9443	0.3777	0.16691	-0.17
Mof_O 	O 	0.1925	0.5011	0.8984	-0.165
Mof_O 	O 	0.9431	0.4562	0.0723	-0.177
Mof_C 	C 	0.1564	0.6424	0.1843	-0.011
Mof_H 	H 	0.1969	0.685	0.1963	0.088
Mof_C 	C 	0.1371	0.6092	0.1218	-0.024
Mof_C 	C 	0.3607	0.6139	0.8835	-0.024
Mof_C 	C 	0.0751	0.5498	0.1031	-0.012
Mof_H 	H 	0.0607	0.5343	0.0611	0.085
Mof_C 	C 	0.3214	0.6661	0.9319	0.277
Mof_C 	C 	0.4164	0.5356	0.9001	-0.012
Mof_H 	H 	0.4304	0.5161	0.9418	0.085
Mof_C 	C 	0.115	0.6116	0.2283	-0.027
Mof_C 	C 	0.1339	0.6545	0.2944	0.28
Mof_C 	C 	0.0355	0.5142	0.1476	-0.03
Mof_C 	C 	0.3627	0.6524	0.7104	0.289
Mof_C 	C 	0.0561	0.543	0.2102	-0.006
Mof_H 	H 	0.0302	0.5159	0.2402	0.081
Mof_C 	C 	0.2891	0.3008	0.056	-0.028
Mof_C 	C 	0.3783	0.6029	0.776	-0.03
Mof_C 	C 	0.1832	0.6366	0.0752	0.274
Mof_C 	C 	0.248	0.0948	0.0069	-0.024
Mof_C 	C 	0.3414	0.648	0.8213	-0.009
Mof_H 	H 	0.304	0.7009	0.8102	0.089
Mof_C 	C 	0.2198	0.1642	0.9547	-0.011
Mof_H 	H 	0.1974	0.1187	0.9208	0.087
Mof_C 	C 	0.4517	0.4861	0.8542	-0.03
Mof_C 	C 	0.225	0.3034	0.9528	-0.03
Mof_C 	C 	0.2832	0.162	0.0574	-0.013
Mof_H 	H 	0.3029	0.1147	0.092	0.088
Mof_O 	O 	0.5354	0.3907	0.9286	-0.175
Mof_O 	O 	0.2426	0.6569	0.0962	-0.162
Mof_O 	O 	0.3464	0.4872	0.1042	-0.16
Mof_O 	O 	0.2834	0.8837	0.0442	-0.161
Mof_C 	C 	0.9704	0.4464	0.1277	0.281
Mof_C 	C 	0.2414	0.9479	0.0089	0.276
Mof_C 	C 	0.2605	0.3691	0.0037	-0.013
Mof_H 	H 	0.2649	0.4609	0.0024	0.095
Mof_C 	C 	0.4323	0.5188	0.7921	-0.004
Mof_H 	H 	0.4554	0.4845	0.7614	0.083
Mof_C 	C 	0.1933	0.3754	0.8961	0.294
Mof_C 	C 	0.5123	0.4017	0.8721	0.285
Mof_C 	C 	0.3266	0.3695	0.1114	0.288
Mof_O 	O 	0.1674	0.3123	0.8519	-0.2
Mof_O 	O 	0.3395	0.3091	0.1601	-0.196
_end
