data_functionalizedCrystal
_audit_creation_method	'EQeq! by Chris Wilmer'
_symmetry_space_group_name_H-M	'P1'
_symmetry_Int_Tables_number	1
_symmetry_cell_setting	triclinic
loop_
_symmetry_equiv_pos_as_xyz
  x,y,z
_cell_length_a	14.1561
_cell_length_b	10.5239
_cell_length_c	27.033
_cell_angle_alpha	90
_cell_angle_beta	100.649
_cell_angle_gamma	90
loop_
_atom_site_label
_atom_site_type_symbol
_atom_site_fract_x
_atom_site_fract_y
_atom_site_fract_z
_atom_site_charge
Mof_Mn	Mn	0.25262	0.60763	0.48919	0.907
Mof_C 	C 	0.3408	0.4753	0.4033	0.358
Mof_C 	C 	0.305	0.413	0.3521	-0.041
Mof_C 	C 	0.364	0.3372	0.3296	-0.063
Mof_H 	H 	0.4269	0.3218	0.3456	0.063
Mof_C 	C 	0.3301	0.2849	0.2837	0.032
Mof_H 	H 	0.3703	0.2336	0.2687	0.018
Mof_C 	C 	0.182	0.3767	0.2811	0.041
Mof_H 	H 	0.1195	0.3908	0.2641	0.01
Mof_C 	C 	0.211	0.4306	0.3277	-0.069
Mof_H 	H 	0.1683	0.4778	0.3426	0.062
Mof_C 	C 	0.2027	0.2525	0.2089	-0.025
Mof_H 	H 	0.1392	0.2167	0.2079	0.032
Mof_H 	H 	0.245	0.1849	0.2021	0.038
Mof_C 	C 	0.1976	0.3543	0.169	-0.15
Mof_H 	H 	0.262	0.376	0.1644	0.084
Mof_H 	H 	0.1681	0.4302	0.1797	0.082
Mof_C 	C 	0.1394	0.3072	0.1198	-0.027
Mof_H 	H 	0.1736	0.2389	0.1067	0.051
Mof_H 	H 	0.0782	0.2743	0.1254	0.042
Mof_C 	C 	0.1781	0.4251	0.0475	0.081
Mof_H 	H 	0.2253	0.3647	0.0455	0.016
Mof_C 	C 	0.1648	0.526	0.0145	-0.145
Mof_H 	H 	0.2021	0.5324	0.9897	0.118
Mof_C 	C 	0.0957	0.6188	0.0181	0.005
Mof_C 	C 	0.04	0.6001	0.0544	-0.178
Mof_H 	H 	0.9914	0.6579	0.0569	0.136
Mof_C 	C 	0.0539	0.5015	0.0861	0.099
Mof_H 	H 	0.0162	0.4927	0.1106	-0.008
Mof_C 	C 	0.081	0.7307	0.9835	0.323
Mof_C 	C 	0.4316	0.7707	0.5113	0.348
Mof_C 	C 	0.4923	0.8713	0.5425	-0.049
Mof_C 	C 	0.4504	0.9744	0.5613	-0.002
Mof_H 	H 	0.3838	0.9801	0.5573	0.058
Mof_C 	C 	0.507	0.0676	0.5858	-0.012
Mof_H 	H 	0.4786	0.1381	0.5977	0.05
Mof_C 	C 	0.6459	0.9589	0.5764	0.06
Mof_H 	H 	0.7126	0.9534	0.5824	0.034
Mof_C 	C 	0.5918	0.8639	0.5506	-0.052
Mof_H 	H 	0.6217	0.7949	0.5385	0.072
Mof_C 	C 	0.6631	0.1647	0.6193	-0.059
Mof_H 	H 	0.6322	0.246	0.6104	0.069
Mof_H 	H 	0.7255	0.1654	0.6093	0.064
Mof_C 	C 	0.6747	0.1432	0.6749	-0.112
Mof_H 	H 	0.7035	0.0604	0.6832	0.069
Mof_H 	H 	0.612	0.1436	0.6845	0.066
Mof_C 	C 	0.7377	0.2454	0.7044	-0.056
Mof_H 	H 	0.7951	0.2579	0.6901	0.057
Mof_H 	H 	0.7029	0.3252	0.7023	0.056
Mof_C 	C 	0.6977	0.1739	0.7844	0.033
Mof_H 	H 	0.6333	0.174	0.7688	0.019
Mof_C 	C 	0.7225	0.1417	0.8342	-0.059
Mof_H 	H 	0.6749	0.1247	0.8528	0.061
Mof_C 	C 	0.8174	0.1346	0.8567	-0.045
Mof_C 	C 	0.8855	0.1648	0.8279	-0.061
Mof_H 	H 	0.9506	0.1592	0.8417	0.071
Mof_C 	C 	0.8569	0.203	0.7787	0.037
Mof_H 	H 	0.9026	0.2275	0.76	0.026
Mof_C 	C 	0.8468	0.1012	0.9112	0.35
Mof_N 	N 	0.3653	0.4803	0.5293	-0.197
Mof_N 	N 	0.3506	0.3973	0.5566	-0.034
Mof_N 	N 	0.3383	0.315	0.5838	-0.081
Mof_N 	N 	0.139	0.4567	0.4766	-0.19
Mof_N 	N 	0.1632	0.3557	0.463	-0.04
Mof_N 	N 	0.1897	0.259	0.4511	-0.084
Mof_N 	N 	0.2389	0.3064	0.2596	-0.124
Mof_N 	N 	0.1227	0.4142	0.0826	-0.133
Mof_N 	N 	0.6028	0.0598	0.5931	-0.115
Mof_N 	N 	0.7652	0.2053	0.7581	-0.116
Mof_O 	O 	0.4223	0.4447	0.4252	-0.372
Mof_O 	O 	0.2852	0.5554	0.417	-0.377
Mof_O 	O 	0.1453	0.7494	0.9564	-0.336
Mof_O 	O 	0.0086	0.7957	0.983	-0.333
Mof_O 	O 	0.4751	0.6986	0.4858	-0.366
Mof_O 	O 	0.3436	0.7747	0.5102	-0.351
Mof_O 	O 	0.9249	0.0417	0.9237	-0.332
Mof_O 	O 	0.7927	0.1397	0.9388	-0.355
Mof_Mn	Mn	0.74738	0.10763	0.01081	0.856
Mof_C 	C 	0.6592	0.9753	0.0967	0.389
Mof_C 	C 	0.695	0.913	0.1479	-0.043
Mof_C 	C 	0.636	0.8372	0.1704	-0.055
Mof_H 	H 	0.5731	0.8218	0.1544	0.065
Mof_C 	C 	0.6699	0.7849	0.2163	0.034
Mof_H 	H 	0.6297	0.7336	0.2313	0.023
Mof_C 	C 	0.818	0.8767	0.2189	0.045
Mof_H 	H 	0.8805	0.8908	0.2359	0.027
Mof_C 	C 	0.789	0.9306	0.1723	-0.059
Mof_H 	H 	0.8317	0.9778	0.1574	0.078
Mof_C 	C 	0.7973	0.7525	0.2911	-0.041
Mof_H 	H 	0.8608	0.7167	0.2921	0.053
Mof_H 	H 	0.755	0.6849	0.2979	0.051
Mof_C 	C 	0.8024	0.8543	0.331	-0.13
Mof_H 	H 	0.738	0.876	0.3356	0.083
Mof_H 	H 	0.8319	0.9302	0.3203	0.086
Mof_C 	C 	0.8606	0.8072	0.3802	-0.055
Mof_H 	H 	0.8264	0.7389	0.3933	0.069
Mof_H 	H 	0.9218	0.7743	0.3746	0.071
Mof_C 	C 	0.8219	0.9251	0.4525	0.057
Mof_H 	H 	0.7747	0.8647	0.4545	0.037
Mof_C 	C 	0.8352	0.026	0.4855	-0.053
Mof_H 	H 	0.7979	0.0324	0.5103	0.065
Mof_C 	C 	0.9043	0.1188	0.4819	-0.085
Mof_C 	C 	0.96	0.1001	0.4456	0.096
Mof_H 	H 	0.0086	0.1579	0.4431	-0.014
Mof_C 	C 	0.9461	0.0015	0.4139	-0.101
Mof_H 	H 	0.9838	0.9927	0.3894	0.101
Mof_C 	C 	0.919	0.2307	0.5165	0.347
Mof_C 	C 	0.5684	0.2707	0.9887	0.371
Mof_C 	C 	0.5077	0.3713	0.9575	-0.038
Mof_C 	C 	0.5496	0.4744	0.9387	-0.052
Mof_H 	H 	0.6162	0.4801	0.9427	0.069
Mof_C 	C 	0.493	0.5676	0.9142	0.04
Mof_H 	H 	0.5214	0.6381	0.9023	0.037
Mof_C 	C 	0.3541	0.4589	0.9236	0.041
Mof_H 	H 	0.2874	0.4534	0.9176	0.028
Mof_C 	C 	0.4082	0.3639	0.9494	-0.053
Mof_H 	H 	0.3783	0.2949	0.9615	0.077
Mof_C 	C 	0.3369	0.6647	0.8807	-0.053
Mof_H 	H 	0.3678	0.746	0.8896	0.071
Mof_H 	H 	0.2745	0.6654	0.8907	0.062
Mof_C 	C 	0.3253	0.6432	0.8251	-0.118
Mof_H 	H 	0.2965	0.5604	0.8168	0.074
Mof_H 	H 	0.388	0.6436	0.8155	0.071
Mof_C 	C 	0.2623	0.7454	0.7956	-0.054
Mof_H 	H 	0.2049	0.7579	0.8099	0.054
Mof_H 	H 	0.2971	0.8252	0.7977	0.062
Mof_C 	C 	0.3023	0.6739	0.7156	0.032
Mof_H 	H 	0.3667	0.674	0.7312	0.023
Mof_C 	C 	0.2775	0.6417	0.6658	-0.05
Mof_H 	H 	0.3251	0.6247	0.6472	0.062
Mof_C 	C 	0.1826	0.6346	0.6433	-0.053
Mof_C 	C 	0.1145	0.6648	0.6721	-0.054
Mof_H 	H 	0.0494	0.6592	0.6583	0.052
Mof_C 	C 	0.1431	0.703	0.7213	0.034
Mof_H 	H 	0.0974	0.7275	0.74	0.016
Mof_C 	C 	0.1532	0.6012	0.5888	0.364
Mof_N 	N 	0.6347	0.9803	0.9707	-0.165
Mof_N 	N 	0.6494	0.8973	0.9434	-0.027
Mof_N 	N 	0.6617	0.815	0.9162	-0.072
Mof_N 	N 	0.861	0.9567	0.0234	-0.162
Mof_N 	N 	0.8368	0.8557	0.037	-0.035
Mof_N 	N 	0.8103	0.759	0.0489	-0.078
Mof_N 	N 	0.7611	0.8064	0.2404	-0.117
Mof_N 	N 	0.8773	0.9142	0.4174	-0.075
Mof_N 	N 	0.3972	0.5598	0.9069	-0.111
Mof_N 	N 	0.2348	0.7053	0.7419	-0.115
Mof_O 	O 	0.5777	0.9447	0.0748	-0.361
Mof_O 	O 	0.7148	0.0554	0.083	-0.4
Mof_O 	O 	0.8547	0.2494	0.5436	-0.335
Mof_O 	O 	0.9914	0.2957	0.517	-0.326
Mof_O 	O 	0.5249	0.1986	0.0142	-0.387
Mof_O 	O 	0.6564	0.2747	0.9898	-0.34
Mof_O 	O 	0.0751	0.5417	0.5763	-0.369
Mof_O 	O 	0.2073	0.6397	0.5612	-0.371
Mof_Mn	Mn	0.74738	0.39237	0.51081	0.909
Mof_C 	C 	0.6592	0.5247	0.5967	0.358
Mof_C 	C 	0.695	0.587	0.6479	-0.04
Mof_C 	C 	0.636	0.6628	0.6704	-0.059
Mof_H 	H 	0.5731	0.6782	0.6544	0.066
Mof_C 	C 	0.6699	0.7151	0.7163	0.034
Mof_H 	H 	0.6297	0.7664	0.7313	0.026
Mof_C 	C 	0.818	0.6233	0.7189	0.045
Mof_H 	H 	0.8805	0.6092	0.7359	0.025
Mof_C 	C 	0.789	0.5694	0.6723	-0.064
Mof_H 	H 	0.8317	0.5222	0.6574	0.072
Mof_C 	C 	0.7973	0.7475	0.7911	-0.053
Mof_H 	H 	0.8608	0.7833	0.7921	0.06
Mof_H 	H 	0.755	0.8151	0.7979	0.06
Mof_C 	C 	0.8024	0.6457	0.831	-0.116
Mof_H 	H 	0.738	0.624	0.8356	0.075
Mof_H 	H 	0.8319	0.5698	0.8203	0.076
Mof_C 	C 	0.8606	0.6928	0.8802	-0.065
Mof_H 	H 	0.8264	0.7611	0.8933	0.078
Mof_H 	H 	0.9218	0.7257	0.8746	0.076
Mof_C 	C 	0.8219	0.5749	0.9525	-0.001
Mof_H 	H 	0.7747	0.6353	0.9545	0.06
Mof_C 	C 	0.8352	0.474	0.9855	0.035
Mof_H 	H 	0.7979	0.4676	0.0103	0.025
Mof_C 	C 	0.9043	0.3812	0.9819	-0.063
Mof_C 	C 	0.96	0.3999	0.9456	0.054
Mof_H 	H 	0.0086	0.3421	0.9431	0.012
Mof_C 	C 	0.9461	0.4985	0.9139	-0.012
Mof_H 	H 	0.9838	0.5073	0.8894	0.056
Mof_C 	C 	0.919	0.2693	0.0165	0.322
Mof_C 	C 	0.5684	0.2293	0.4887	0.334
Mof_C 	C 	0.5077	0.1287	0.4575	-0.021
Mof_C 	C 	0.5496	0.0256	0.4387	-0.114
Mof_H 	H 	0.6162	0.0199	0.4427	0.079
Mof_C 	C 	0.493	0.9324	0.4142	0.092
Mof_H 	H 	0.5214	0.8619	0.4023	0.02
Mof_C 	C 	0.3541	0.0411	0.4236	0.016
Mof_H 	H 	0.2874	0.0466	0.4176	0.026
Mof_C 	C 	0.4082	0.1361	0.4494	-0.065
Mof_H 	H 	0.3783	0.2051	0.4615	0.072
Mof_C 	C 	0.3369	0.8353	0.3807	-0.042
Mof_H 	H 	0.3678	0.754	0.3896	0.064
Mof_H 	H 	0.2745	0.8346	0.3907	0.061
Mof_C 	C 	0.3253	0.8568	0.3251	-0.133
Mof_H 	H 	0.2965	0.9396	0.3168	0.085
Mof_H 	H 	0.388	0.8564	0.3155	0.077
Mof_C 	C 	0.2623	0.7546	0.2956	-0.042
Mof_H 	H 	0.2049	0.7421	0.3099	0.047
Mof_H 	H 	0.2971	0.6748	0.2977	0.051
Mof_C 	C 	0.3023	0.8261	0.2156	0.035
Mof_H 	H 	0.3667	0.826	0.2312	0.023
Mof_C 	C 	0.2775	0.8583	0.1658	-0.052
Mof_H 	H 	0.3251	0.8753	0.1472	0.067
Mof_C 	C 	0.1826	0.8654	0.1433	-0.047
Mof_C 	C 	0.1145	0.8352	0.1721	-0.057
Mof_H 	H 	0.0494	0.8408	0.1583	0.054
Mof_C 	C 	0.1431	0.797	0.2213	0.037
Mof_H 	H 	0.0974	0.7725	0.24	0.013
Mof_C 	C 	0.1532	0.8988	0.0888	0.363
Mof_N 	N 	0.6347	0.5197	0.4707	-0.197
Mof_N 	N 	0.6494	0.6027	0.4434	-0.034
Mof_N 	N 	0.6617	0.685	0.4162	-0.077
Mof_N 	N 	0.861	0.5433	0.5234	-0.177
Mof_N 	N 	0.8368	0.6443	0.537	-0.034
Mof_N 	N 	0.8103	0.741	0.5489	-0.072
Mof_N 	N 	0.7611	0.6936	0.7404	-0.115
Mof_N 	N 	0.8773	0.5858	0.9174	-0.087
Mof_N 	N 	0.3972	0.9402	0.4069	-0.108
Mof_N 	N 	0.2348	0.7947	0.2419	-0.118
Mof_O 	O 	0.5777	0.5553	0.5748	-0.371
Mof_O 	O 	0.7148	0.4446	0.583	-0.375
Mof_O 	O 	0.8547	0.2506	0.0436	-0.33
Mof_O 	O 	0.9914	0.2043	0.017	-0.324
Mof_O 	O 	0.5249	0.3014	0.5142	-0.365
Mof_O 	O 	0.6564	0.2253	0.4898	-0.352
Mof_O 	O 	0.0751	0.9583	0.0763	-0.35
Mof_O 	O 	0.2073	0.8603	0.0612	-0.377
Mof_Mn	Mn	0.25262	0.89237	0.98919	0.966
Mof_C 	C 	0.3408	0.0247	0.9033	0.321
Mof_C 	C 	0.305	0.087	0.8521	-0.034
Mof_C 	C 	0.364	0.1628	0.8296	-0.069
Mof_H 	H 	0.4269	0.1782	0.8456	0.066
Mof_C 	C 	0.3301	0.2151	0.7837	0.034
Mof_H 	H 	0.3703	0.2664	0.7687	0.02
Mof_C 	C 	0.182	0.1233	0.7811	0.043
Mof_H 	H 	0.1195	0.1092	0.7641	0.007
Mof_C 	C 	0.211	0.0694	0.8277	-0.077
Mof_H 	H 	0.1683	0.0222	0.8426	0.057
Mof_C 	C 	0.2027	0.2475	0.7089	-0.037
Mof_H 	H 	0.1392	0.2833	0.7079	0.041
Mof_H 	H 	0.245	0.3151	0.7021	0.047
Mof_C 	C 	0.1976	0.1457	0.669	-0.135
Mof_H 	H 	0.262	0.124	0.6644	0.076
Mof_H 	H 	0.1681	0.0698	0.6797	0.071
Mof_C 	C 	0.1394	0.1928	0.6198	-0.036
Mof_H 	H 	0.1736	0.2611	0.6067	0.059
Mof_H 	H 	0.0782	0.2257	0.6254	0.046
Mof_C 	C 	0.1781	0.0749	0.5475	0.017
Mof_H 	H 	0.2253	0.1353	0.5455	0.041
Mof_C 	C 	0.1648	0.974	0.5145	-0.049
Mof_H 	H 	0.2021	0.9676	0.4897	0.075
Mof_C 	C 	0.0957	0.8812	0.5181	0.02
Mof_C 	C 	0.04	0.8999	0.5544	-0.216
Mof_H 	H 	0.9914	0.8421	0.5569	0.158
Mof_C 	C 	0.0539	0.9985	0.5861	0.196
Mof_H 	H 	0.0162	0.0073	0.6106	-0.059
Mof_C 	C 	0.081	0.7693	0.4835	0.308
Mof_C 	C 	0.4316	0.7293	0.0113	0.307
Mof_C 	C 	0.4923	0.6287	0.0425	-0.027
Mof_C 	C 	0.4504	0.5256	0.0613	-0.067
Mof_H 	H 	0.3838	0.5199	0.0573	0.068
Mof_C 	C 	0.507	0.4324	0.0858	0.041
Mof_H 	H 	0.4786	0.3619	0.0977	0.033
Mof_C 	C 	0.6459	0.5411	0.0764	0.039
Mof_H 	H 	0.7126	0.5466	0.0824	0.031
Mof_C 	C 	0.5918	0.6361	0.0506	-0.067
Mof_H 	H 	0.6217	0.7051	0.0385	0.071
Mof_C 	C 	0.6631	0.3353	0.1193	-0.049
Mof_H 	H 	0.6322	0.254	0.1104	0.063
Mof_H 	H 	0.7255	0.3346	0.1093	0.063
Mof_C 	C 	0.6747	0.3568	0.1749	-0.126
Mof_H 	H 	0.7035	0.4396	0.1832	0.08
Mof_H 	H 	0.612	0.3564	0.1845	0.072
Mof_C 	C 	0.7377	0.2546	0.2044	-0.044
Mof_H 	H 	0.7951	0.2421	0.1901	0.051
Mof_H 	H 	0.7029	0.1748	0.2023	0.046
Mof_C 	C 	0.6977	0.3261	0.2844	0.033
Mof_H 	H 	0.6333	0.326	0.2688	0.019
Mof_C 	C 	0.7225	0.3583	0.3342	-0.057
Mof_H 	H 	0.6749	0.3753	0.3528	0.063
Mof_C 	C 	0.8174	0.3654	0.3567	-0.045
Mof_C 	C 	0.8855	0.3352	0.3279	-0.06
Mof_H 	H 	0.9506	0.3408	0.3417	0.07
Mof_C 	C 	0.8569	0.297	0.2787	0.037
Mof_H 	H 	0.9026	0.2725	0.26	0.024
Mof_C 	C 	0.8468	0.3988	0.4112	0.358
Mof_N 	N 	0.3653	0.0197	0.0293	-0.215
Mof_N 	N 	0.3506	0.1027	0.0566	-0.04
Mof_N 	N 	0.3383	0.185	0.0838	-0.084
Mof_N 	N 	0.139	0.0433	0.9766	-0.189
Mof_N 	N 	0.1632	0.1443	0.963	-0.037
Mof_N 	N 	0.1897	0.241	0.9511	-0.076
Mof_N 	N 	0.2389	0.1936	0.7596	-0.122
Mof_N 	N 	0.1227	0.0858	0.5826	-0.147
Mof_N 	N 	0.6028	0.4402	0.0931	-0.114
Mof_N 	N 	0.7652	0.2947	0.2581	-0.118
Mof_O 	O 	0.4223	0.0553	0.9252	-0.355
Mof_O 	O 	0.2852	0.9446	0.917	-0.347
Mof_O 	O 	0.1453	0.7506	0.4564	-0.335
Mof_O 	O 	0.0086	0.7043	0.483	-0.355
Mof_O 	O 	0.4751	0.8014	0.9858	-0.32
Mof_O 	O 	0.3436	0.7253	0.0102	-0.358
Mof_O 	O 	0.9249	0.4583	0.4237	-0.342
Mof_O 	O 	0.7927	0.3603	0.4388	-0.369
Mof_Mn	Mn	0.5	0.5	0.5	0.914
Mof_Mn	Mn	0.5	0	-0	0.836
Mof_Mn	Mn	-0	0	-0	0.782
Mof_Mn	Mn	4.24155e-33	0.5	0.5	0.861
_end
