data_functionalizedCrystal
_audit_creation_method	'EQeq! by Chris Wilmer'
_symmetry_space_group_name_H-M	'P1'
_symmetry_Int_Tables_number	1
_symmetry_cell_setting	triclinic
loop_
_symmetry_equiv_pos_as_xyz
  x,y,z
_cell_length_a	8.6538
_cell_length_b	14.4144
_cell_length_c	37.4884
_cell_angle_alpha	90
_cell_angle_beta	90
_cell_angle_gamma	90
loop_
_atom_site_label
_atom_site_type_symbol
_atom_site_fract_x
_atom_site_fract_y
_atom_site_fract_z
_atom_site_charge
Mof_Zn	Zn	0.06017	0.28394	0.14143	1.17
Mof_O 	O 	0.1289	0.21802	0.18447	-0.523
Mof_O 	O 	0.34314	0.18818	0.15502	-0.584
Mof_N 	N 	0.0335	0.20111	0.09847	-0.308
Mof_C 	C 	0.9413	0.03638	0.00502	-0.163
Mof_H 	H 	0.8426	0.006	0.0088	0.059
Mof_H 	H 	0.9292	0.0785	0.985	0.058
Mof_C 	C 	0.9255	0.22362	0.07458	0.076
Mof_H 	H 	0.8682	0.2773	0.0784	-0.054
Mof_C 	C 	0.9791	0.0927	0.03782	0.125
Mof_C 	C 	0.1153	0.12424	0.09204	0.089
Mof_H 	H 	0.1906	0.1068	0.1084	-0.04
Mof_C 	C 	0.0931	0.06961	0.06227	-0.204
Mof_H 	H 	0.1543	0.0175	0.0586	0.077
Mof_C 	C 	0.8945	0.17222	0.04487	-0.208
Mof_H 	H 	0.8165	0.1906	0.0293	0.08
Mof_C 	C 	0.3344	0.1562	0.21807	-0.327
Mof_C 	C 	0.2664	0.18951	0.1837	0.443
Mof_C 	C 	0.4618	0.09746	0.21819	0.308
Mof_H 	H 	0.5055	0.0794	0.1966	-0.146
Mof_C 	C 	0.6644	0.9373	0.28272	-1.413
Mof_H 	H 	0.6723	0.9747	0.3038	0.413
Mof_H 	H 	0.7504	0.8953	0.2816	0.406
Mof_H 	H 	0.5698	0.9026	0.2833	0.413
Mof_H 	H 	0.8991	0.0189	0.2465	0.158
Mof_H 	H 	0.82	0.0898	0.2724	0.176
Mof_H 	H 	0.8054	0.1029	0.2311	0.153
Mof_Zn	Zn	0.43983	0.78394	0.85857	1.169
Mof_O 	O 	0.3711	0.71802	0.81553	-0.525
Mof_O 	O 	0.15686	0.68818	0.84498	-0.584
Mof_N 	N 	0.4665	0.70111	0.90153	-0.308
Mof_C 	C 	0.5587	0.53638	0.99498	-0.163
Mof_H 	H 	0.6574	0.506	0.9912	0.059
Mof_H 	H 	0.5708	0.5785	0.015	0.059
Mof_C 	C 	0.5745	0.72362	0.92542	0.075
Mof_H 	H 	0.6318	0.7773	0.9216	-0.054
Mof_C 	C 	0.5209	0.5927	0.96218	0.124
Mof_C 	C 	0.3847	0.62424	0.90796	0.088
Mof_H 	H 	0.3094	0.6068	0.8916	-0.04
Mof_C 	C 	0.4069	0.56961	0.93773	-0.203
Mof_H 	H 	0.3457	0.5175	0.9414	0.077
Mof_C 	C 	0.6055	0.67222	0.95513	-0.208
Mof_H 	H 	0.6835	0.6906	0.9707	0.08
Mof_C 	C 	0.1656	0.6562	0.78193	-0.33
Mof_C 	C 	0.2336	0.68951	0.8163	0.444
Mof_C 	C 	0.0382	0.59746	0.78181	0.312
Mof_H 	H 	0.9945	0.5794	0.8034	-0.148
Mof_C 	C 	0.8356	0.4373	0.71728	-1.431
Mof_H 	H 	0.8277	0.4747	0.6962	0.42
Mof_H 	H 	0.7496	0.3953	0.7184	0.411
Mof_H 	H 	0.9302	0.4026	0.7167	0.418
Mof_H 	H 	0.6009	0.5189	0.7535	0.16
Mof_H 	H 	0.68	0.5898	0.7276	0.178
Mof_H 	H 	0.6946	0.6029	0.7689	0.155
Mof_Zn	Zn	0.93983	0.71606	0.64143	1.169
Mof_O 	O 	0.8711	0.78198	0.68447	-0.524
Mof_O 	O 	0.65686	0.81182	0.65502	-0.584
Mof_N 	N 	0.9665	0.79889	0.59847	-0.308
Mof_C 	C 	0.0587	0.96362	0.50502	-0.164
Mof_H 	H 	0.1574	0.994	0.5088	0.059
Mof_H 	H 	0.0708	0.9215	0.485	0.059
Mof_C 	C 	0.0745	0.77638	0.57458	0.076
Mof_H 	H 	0.1318	0.7227	0.5784	-0.054
Mof_C 	C 	0.0209	0.9073	0.53782	0.125
Mof_C 	C 	0.8847	0.87576	0.59204	0.089
Mof_H 	H 	0.8094	0.8932	0.6084	-0.04
Mof_C 	C 	0.9069	0.93039	0.56227	-0.204
Mof_H 	H 	0.8457	0.9825	0.5586	0.077
Mof_C 	C 	0.1055	0.82778	0.54487	-0.208
Mof_H 	H 	0.1835	0.8094	0.5293	0.08
Mof_C 	C 	0.6656	0.8438	0.71807	-0.327
Mof_C 	C 	0.7336	0.81049	0.6837	0.443
Mof_C 	C 	0.5382	0.90254	0.71819	0.308
Mof_H 	H 	0.4945	0.9206	0.6966	-0.146
Mof_C 	C 	0.3356	0.0627	0.78272	-1.413
Mof_H 	H 	0.3277	0.0253	0.8038	0.413
Mof_H 	H 	0.2496	0.1047	0.7816	0.406
Mof_H 	H 	0.4302	0.0974	0.7833	0.413
Mof_H 	H 	0.1009	0.9811	0.7465	0.158
Mof_H 	H 	0.18	0.9102	0.7724	0.176
Mof_H 	H 	0.1946	0.8971	0.7311	0.153
Mof_Zn	Zn	0.56017	0.21606	0.35857	1.169
Mof_O 	O 	0.6289	0.28198	0.31553	-0.525
Mof_O 	O 	0.84314	0.31182	0.34498	-0.584
Mof_N 	N 	0.5335	0.29889	0.40153	-0.308
Mof_C 	C 	0.4413	0.46362	0.49498	-0.163
Mof_H 	H 	0.3426	0.494	0.4912	0.059
Mof_H 	H 	0.4292	0.4215	0.515	0.059
Mof_C 	C 	0.4255	0.27638	0.42542	0.075
Mof_H 	H 	0.3682	0.2227	0.4216	-0.054
Mof_C 	C 	0.4791	0.4073	0.46218	0.124
Mof_C 	C 	0.6153	0.37576	0.40796	0.088
Mof_H 	H 	0.6906	0.3932	0.3916	-0.04
Mof_C 	C 	0.5931	0.43039	0.43773	-0.203
Mof_H 	H 	0.6543	0.4825	0.4414	0.077
Mof_C 	C 	0.3945	0.32778	0.45513	-0.208
Mof_H 	H 	0.3165	0.3094	0.4707	0.08
Mof_C 	C 	0.8344	0.3438	0.28193	-0.33
Mof_C 	C 	0.7664	0.31049	0.3163	0.444
Mof_C 	C 	0.9618	0.40254	0.28181	0.312
Mof_H 	H 	0.0055	0.4206	0.3034	-0.148
Mof_C 	C 	0.1644	0.5627	0.21728	-1.431
Mof_H 	H 	0.1723	0.5253	0.1962	0.42
Mof_H 	H 	0.2504	0.6047	0.2184	0.411
Mof_H 	H 	0.0698	0.5974	0.2167	0.418
Mof_H 	H 	0.3991	0.4811	0.2535	0.16
Mof_H 	H 	0.32	0.4102	0.2276	0.178
Mof_H 	H 	0.3054	0.3971	0.2689	0.155
Mof_Zn	Zn	0.93983	0.71606	0.85857	1.169
Mof_O 	O 	0.8711	0.78198	0.81553	-0.524
Mof_O 	O 	0.65686	0.81182	0.84498	-0.584
Mof_N 	N 	0.9665	0.79889	0.90153	-0.308
Mof_C 	C 	0.0587	0.96362	0.99498	-0.163
Mof_H 	H 	0.1574	0.994	0.9912	0.059
Mof_H 	H 	0.0708	0.9215	0.015	0.058
Mof_C 	C 	0.0745	0.77638	0.92542	0.076
Mof_H 	H 	0.1318	0.7227	0.9216	-0.054
Mof_C 	C 	0.0209	0.9073	0.96218	0.125
Mof_C 	C 	0.8847	0.87576	0.90796	0.089
Mof_H 	H 	0.8094	0.8932	0.8916	-0.04
Mof_C 	C 	0.9069	0.93039	0.93773	-0.204
Mof_H 	H 	0.8457	0.9825	0.9414	0.077
Mof_C 	C 	0.1055	0.82778	0.95513	-0.208
Mof_H 	H 	0.1835	0.8094	0.9707	0.08
Mof_C 	C 	0.6656	0.8438	0.78193	-0.327
Mof_C 	C 	0.7336	0.81049	0.8163	0.443
Mof_C 	C 	0.5382	0.90254	0.78181	0.308
Mof_H 	H 	0.4945	0.9206	0.8034	-0.146
Mof_C 	C 	0.3356	0.0627	0.71728	-1.413
Mof_H 	H 	0.3277	0.0253	0.6962	0.413
Mof_H 	H 	0.2496	0.1047	0.7184	0.406
Mof_H 	H 	0.4302	0.0974	0.7167	0.413
Mof_H 	H 	0.1009	0.9811	0.7535	0.158
Mof_H 	H 	0.18	0.9102	0.7276	0.176
Mof_H 	H 	0.1946	0.8971	0.7689	0.153
Mof_Zn	Zn	0.56017	0.21606	0.14143	1.169
Mof_O 	O 	0.6289	0.28198	0.18447	-0.525
Mof_O 	O 	0.84314	0.31182	0.15502	-0.584
Mof_N 	N 	0.5335	0.29889	0.09847	-0.308
Mof_C 	C 	0.4413	0.46362	0.00502	-0.163
Mof_H 	H 	0.3426	0.494	0.0088	0.059
Mof_H 	H 	0.4292	0.4215	0.985	0.059
Mof_C 	C 	0.4255	0.27638	0.07458	0.075
Mof_H 	H 	0.3682	0.2227	0.0784	-0.054
Mof_C 	C 	0.4791	0.4073	0.03782	0.124
Mof_C 	C 	0.6153	0.37576	0.09204	0.088
Mof_H 	H 	0.6906	0.3932	0.1084	-0.04
Mof_C 	C 	0.5931	0.43039	0.06227	-0.203
Mof_H 	H 	0.6543	0.4825	0.0586	0.077
Mof_C 	C 	0.3945	0.32778	0.04487	-0.208
Mof_H 	H 	0.3165	0.3094	0.0293	0.08
Mof_C 	C 	0.8344	0.3438	0.21807	-0.33
Mof_C 	C 	0.7664	0.31049	0.1837	0.444
Mof_C 	C 	0.9618	0.40254	0.21819	0.312
Mof_H 	H 	0.0055	0.4206	0.1966	-0.148
Mof_C 	C 	0.1644	0.5627	0.28272	-1.431
Mof_H 	H 	0.1723	0.5253	0.3038	0.42
Mof_H 	H 	0.2504	0.6047	0.2816	0.411
Mof_H 	H 	0.0698	0.5974	0.2833	0.418
Mof_H 	H 	0.3991	0.4811	0.2465	0.16
Mof_H 	H 	0.32	0.4102	0.2724	0.178
Mof_H 	H 	0.3054	0.3971	0.2311	0.155
Mof_Zn	Zn	0.06017	0.28394	0.35857	1.169
Mof_O 	O 	0.1289	0.21802	0.31553	-0.524
Mof_O 	O 	0.34314	0.18818	0.34498	-0.584
Mof_N 	N 	0.0335	0.20111	0.40153	-0.308
Mof_C 	C 	0.9413	0.03638	0.49498	-0.164
Mof_H 	H 	0.8426	0.006	0.4912	0.059
Mof_H 	H 	0.9292	0.0785	0.515	0.059
Mof_C 	C 	0.9255	0.22362	0.42542	0.076
Mof_H 	H 	0.8682	0.2773	0.4216	-0.054
Mof_C 	C 	0.9791	0.0927	0.46218	0.125
Mof_C 	C 	0.1153	0.12424	0.40796	0.089
Mof_H 	H 	0.1906	0.1068	0.3916	-0.04
Mof_C 	C 	0.0931	0.06961	0.43773	-0.204
Mof_H 	H 	0.1543	0.0175	0.4414	0.077
Mof_C 	C 	0.8945	0.17222	0.45513	-0.208
Mof_H 	H 	0.8165	0.1906	0.4707	0.08
Mof_C 	C 	0.3344	0.1562	0.28193	-0.327
Mof_C 	C 	0.2664	0.18951	0.3163	0.443
Mof_C 	C 	0.4618	0.09746	0.28181	0.308
Mof_H 	H 	0.5055	0.0794	0.3034	-0.146
Mof_C 	C 	0.6644	0.9373	0.21728	-1.413
Mof_H 	H 	0.6723	0.9747	0.1962	0.413
Mof_H 	H 	0.7504	0.8953	0.2184	0.406
Mof_H 	H 	0.5698	0.9026	0.2167	0.413
Mof_H 	H 	0.8991	0.0189	0.2535	0.158
Mof_H 	H 	0.82	0.0898	0.2276	0.176
Mof_H 	H 	0.8054	0.1029	0.2689	0.153
Mof_Zn	Zn	0.43983	0.78394	0.64143	1.169
Mof_O 	O 	0.3711	0.71802	0.68447	-0.525
Mof_O 	O 	0.15686	0.68818	0.65502	-0.584
Mof_N 	N 	0.4665	0.70111	0.59847	-0.308
Mof_C 	C 	0.5587	0.53638	0.50502	-0.163
Mof_H 	H 	0.6574	0.506	0.5088	0.059
Mof_H 	H 	0.5708	0.5785	0.485	0.059
Mof_C 	C 	0.5745	0.72362	0.57458	0.075
Mof_H 	H 	0.6318	0.7773	0.5784	-0.054
Mof_C 	C 	0.5209	0.5927	0.53782	0.124
Mof_C 	C 	0.3847	0.62424	0.59204	0.088
Mof_H 	H 	0.3094	0.6068	0.6084	-0.04
Mof_C 	C 	0.4069	0.56961	0.56227	-0.203
Mof_H 	H 	0.3457	0.5175	0.5586	0.077
Mof_C 	C 	0.6055	0.67222	0.54487	-0.208
Mof_H 	H 	0.6835	0.6906	0.5293	0.08
Mof_C 	C 	0.1656	0.6562	0.71807	-0.33
Mof_C 	C 	0.2336	0.68951	0.6837	0.444
Mof_C 	C 	0.0382	0.59746	0.71819	0.312
Mof_H 	H 	0.9945	0.5794	0.6966	-0.148
Mof_C 	C 	0.8356	0.4373	0.78272	-1.431
Mof_H 	H 	0.8277	0.4747	0.8038	0.42
Mof_H 	H 	0.7496	0.3953	0.7816	0.411
Mof_H 	H 	0.9302	0.4026	0.7833	0.418
Mof_H 	H 	0.6009	0.5189	0.7465	0.16
Mof_H 	H 	0.68	0.5898	0.7724	0.178
Mof_H 	H 	0.6946	0.6029	0.7311	0.155
Mof_C 	C 	0.2672	0.1838	0.25	0.226
Mof_H 	H 	0.1785	0.2202	0.25	-0.034
Mof_C 	C 	0.5254	0.0651	0.25	-0.486
Mof_C 	C 	0.6655	0.9997	0.25	0.976
Mof_C 	C 	0.8108	0.0582	0.25	-1.146
Mof_C 	C 	0.2328	0.6838	0.75	0.228
Mof_H 	H 	0.3215	0.7202	0.75	-0.035
Mof_C 	C 	0.9746	0.5651	0.75	-0.495
Mof_C 	C 	0.8345	0.4997	0.75	0.993
Mof_C 	C 	0.6892	0.5582	0.75	-1.162
Mof_C 	C 	0.7328	0.8162	0.75	0.226
Mof_H 	H 	0.8215	0.7798	0.75	-0.034
Mof_C 	C 	0.4746	0.9349	0.75	-0.486
Mof_C 	C 	0.3345	0.0003	0.75	0.976
Mof_C 	C 	0.1892	0.9418	0.75	-1.146
Mof_C 	C 	0.7672	0.3162	0.25	0.228
Mof_H 	H 	0.6785	0.2798	0.25	-0.035
Mof_C 	C 	0.0254	0.4349	0.25	-0.495
Mof_C 	C 	0.1655	0.5003	0.25	0.993
Mof_C 	C 	0.3108	0.4418	0.25	-1.162
_end
