data_functionalizedCrystal
_audit_creation_method	'EQeq! by Chris Wilmer'
_symmetry_space_group_name_H-M	'P1'
_symmetry_Int_Tables_number	1
_symmetry_cell_setting	triclinic
loop_
_symmetry_equiv_pos_as_xyz
  x,y,z
_cell_length_a	6.1009
_cell_length_b	9.9758
_cell_length_c	13.3825
_cell_angle_alpha	68.871
_cell_angle_beta	81.033
_cell_angle_gamma	76.75
loop_
_atom_site_label
_atom_site_type_symbol
_atom_site_fract_x
_atom_site_fract_y
_atom_site_fract_z
_atom_site_charge
Mof_Eu	Eu	0.83164	0.61437	0.196	2.044
Mof_Eu	Eu	0.16836	0.38563	0.804	2.044
Mof_H 	H 	0.3248	0.0464	0.0288	0.004
Mof_H 	H 	0.706	0.3253	0.6289	-0.012
Mof_H 	H 	0.6752	0.9536	0.9712	0.004
Mof_H 	H 	0.294	0.6747	0.3711	-0.012
Mof_C 	C 	0.2866	0.7678	0.1416	0.428
Mof_C 	C 	0.1325	0.895	0.0681	-0.107
Mof_C 	C 	0.1905	0.0294	0.0154	0.09
Mof_C 	C 	0.9507	0.3836	0.4398	0.367
Mof_C 	C 	0.7097	0.4438	0.473	-0.083
Mof_C 	C 	0.6184	0.3975	0.577	0.084
Mof_C 	C 	0.0876	0.4393	0.0345	0.258
Mof_C 	C 	0.7134	0.2322	0.8584	0.428
Mof_C 	C 	0.8675	0.105	0.9319	-0.107
Mof_C 	C 	0.8095	0.9706	0.9846	0.09
Mof_C 	C 	0.0493	0.6164	0.5602	0.367
Mof_C 	C 	0.2903	0.5562	0.527	-0.083
Mof_C 	C 	0.3816	0.6025	0.423	0.084
Mof_C 	C 	0.9124	0.5607	0.9655	0.258
Mof_N 	N 	0.9395	0.8644	0.0542	-0.203
Mof_N 	N 	0.5939	0.547	0.3936	-0.207
Mof_N 	N 	0.0605	0.1356	0.9458	-0.203
Mof_N 	N 	0.4061	0.453	0.6064	-0.207
Mof_O 	O 	0.2144	0.6502	0.1843	-0.515
Mof_O 	O 	0.4785	0.7843	0.1509	-0.519
Mof_O 	O 	0.0142	0.4303	0.3426	-0.481
Mof_O 	O 	0.0682	0.2904	0.5102	-0.287
Mof_O 	O 	0.0844	0.4293	0.1301	-0.42
Mof_O 	O 	0.2235	0.3625	0.9867	-0.441
Mof_O 	O 	0.7856	0.3498	0.8157	-0.515
Mof_O 	O 	0.5215	0.2157	0.8491	-0.519
Mof_O 	O 	0.9858	0.5697	0.6574	-0.481
Mof_O 	O 	0.9318	0.7096	0.4898	-0.287
Mof_O 	O 	0.9156	0.5707	0.8699	-0.42
Mof_O 	O 	0.7765	0.6375	0.0133	-0.441
_end
