data_functionalizedCrystal
_audit_creation_method	'EQeq! by Chris Wilmer'
_symmetry_space_group_name_H-M	'P1'
_symmetry_Int_Tables_number	1
_symmetry_cell_setting	triclinic
loop_
_symmetry_equiv_pos_as_xyz
  x,y,z
_cell_length_a	9.9516
_cell_length_b	15.7818
_cell_length_c	16.5509
_cell_angle_alpha	110.421
_cell_angle_beta	101.582
_cell_angle_gamma	90.029
loop_
_atom_site_label
_atom_site_type_symbol
_atom_site_fract_x
_atom_site_fract_y
_atom_site_fract_z
_atom_site_charge
Mof_Cd	Cd	0.95979	0.77521	0.56704	0.432
Mof_N 	N 	0.3086	0.4003	0.9235	-0.141
Mof_N 	N 	0.1539	0.8562	0.6749	-0.151
Mof_N 	N 	0.4139	0.6075	0.9345	-0.14
Mof_N 	N 	0.9936	0.6713	0.6373	-0.151
Mof_N 	N 	0.769	0.6793	0.4698	-0.147
Mof_O 	O 	0.6052	0.4153	0.8878	-0.287
Mof_O 	O 	0.7384	0.5008	0.8491	-0.284
Mof_O 	O 	0.8479	0.3417	0.5414	-0.283
Mof_O 	O 	0.9387	0.2125	0.5351	-0.284
Mof_O 	O 	0.6335	0.027	0.6507	-0.447
Mof_O 	O 	0.8378	0.9004	0.558	-0.222
Mof_O 	O 	0.7943	0.8558	0.6597	-0.214
Mof_O 	O 	0.107	0.116	0.7105	-0.424
Mof_H 	H 	0.1217	0.0811	0.6637	0.253
Mof_O 	O 	0.1488	0.1013	0.8797	-0.433
Mof_H 	H 	0.0752	0.0948	0.8447	0.254
Mof_O 	O 	0.0873	0.8236	0.8986	-0.436
Mof_H 	H 	0.1331	0.8674	0.9376	0.255
Mof_O 	O 	0.993	0.6005	0.8984	-0.447
Mof_H 	H 	0.9218	0.5671	0.8789	0.286
Mof_O 	O 	0.3393	0.5171	0.4367	-0.44
Mof_H 	H 	0.3002	0.562	0.4338	0.277
Mof_C 	C 	0.6851	0.4259	0.842	0.31
Mof_C 	C 	0.8667	0.276	0.567	0.304
Mof_C 	C 	0.717	0.3409	0.7718	-0.09
Mof_C 	C 	0.7704	0.3473	0.7025	0.017
Mof_H 	H 	0.7821	0.4036	0.6976	0.037
Mof_C 	C 	0.8062	0.2709	0.6408	-0.091
Mof_C 	C 	0.7888	0.1869	0.6492	-0
Mof_H 	H 	0.8148	0.1355	0.6087	0.052
Mof_C 	C 	0.7336	0.1788	0.7168	-0.05
Mof_C 	C 	0.6978	0.2565	0.7776	-0.011
Mof_H 	H 	0.6602	0.2518	0.8231	0.023
Mof_C 	C 	0.7217	0.0873	0.7263	0.161
Mof_H 	H 	0.8118	0.064	0.7335	-0.01
Mof_H 	H 	0.6857	0.0933	0.7781	-0.029
Mof_C 	C 	0.6407	0.9527	0.6111	0.61
Mof_H 	H 	0.6167	0.9341	0.6574	-0.094
Mof_C 	C 	0.7677	0.9008	0.6113	0.072
Mof_C 	C 	0.5213	0.8981	0.5463	-1.179
Mof_H 	H 	0.442	0.9328	0.5501	0.388
Mof_H 	H 	0.5046	0.8443	0.5584	0.384
Mof_H 	H 	0.539	0.8816	0.4881	0.381
Mof_C 	C 	0.182	0.4258	0.9247	0.082
Mof_H 	H 	0.1712	0.4849	0.9596	0.025
Mof_C 	C 	0.0677	0.3705	0.8779	-0.126
Mof_H 	H 	0.9807	0.3916	0.8795	0.082
Mof_C 	C 	0.0834	0.2803	0.8267	0.03
Mof_H 	H 	0.0065	0.2405	0.7945	0.04
Mof_C 	C 	0.2152	0.2514	0.8247	-0.089
Mof_C 	C 	0.324	0.3141	0.8735	0.044
Mof_H 	H 	0.4127	0.2962	0.8718	0.012
Mof_C 	C 	0.2356	0.1531	0.7713	0.244
Mof_C 	C 	0.3497	0.1474	0.723	-0.763
Mof_H 	H 	0.3523	0.0859	0.6848	0.254
Mof_H 	H 	0.4358	0.167	0.7648	0.249
Mof_H 	H 	0.3339	0.1857	0.6885	0.262
Mof_C 	C 	0.2639	0.0964	0.8332	0.307
Mof_C 	C 	0.3934	0.1332	0.8952	-0.848
Mof_H 	H 	0.3882	0.1965	0.9272	0.29
Mof_H 	H 	0.4663	0.126	0.8637	0.27
Mof_H 	H 	0.4114	0.1015	0.9359	0.293
Mof_C 	C 	0.2711	0.9962	0.7791	-0.137
Mof_C 	C 	0.3937	0.9559	0.7769	0.065
Mof_H 	H 	0.4759	0.9896	0.8096	-0.003
Mof_C 	C 	0.3946	0.8654	0.7261	-0.158
Mof_H 	H 	0.4764	0.8369	0.7268	0.074
Mof_C 	C 	0.2748	0.8187	0.6753	0.083
Mof_H 	H 	0.2765	0.7585	0.6394	-0.005
Mof_C 	C 	0.1538	0.942	0.7275	0.084
Mof_H 	H 	0.0695	0.9671	0.7297	0.019
Mof_C 	C 	0.4787	0.6272	0.8801	0.054
Mof_H 	H 	0.5598	0.6004	0.8698	0.022
Mof_C 	C 	0.4297	0.6863	0.838	-0.118
Mof_H 	H 	0.4773	0.6991	0.8002	0.057
Mof_C 	C 	0.3088	0.7263	0.8532	0.031
Mof_H 	H 	0.2744	0.7661	0.8252	0.035
Mof_C 	C 	0.2394	0.7071	0.9098	-0.105
Mof_C 	C 	0.298	0.648	0.9497	0.063
Mof_H 	H 	0.2544	0.6356	0.9895	0.028
Mof_C 	C 	0.1004	0.7449	0.9254	0.31
Mof_C 	C 	0.0953	0.7689	0.0201	-0.878
Mof_H 	H 	0.177	0.8058	0.0565	0.28
Mof_H 	H 	0.0895	0.7145	0.0331	0.304
Mof_H 	H 	0.016	0.8019	0.0316	0.297
Mof_C 	C 	0.9794	0.6729	0.8655	0.269
Mof_C 	C 	0.8383	0.7105	0.8725	-0.779
Mof_H 	H 	0.7674	0.6661	0.8319	0.27
Mof_H 	H 	0.834	0.7647	0.8585	0.275
Mof_H 	H 	0.8253	0.7243	0.9316	0.274
Mof_C 	C 	0.9961	0.6399	0.7694	-0.102
Mof_C 	C 	0.0477	0.558	0.7323	0.055
Mof_H 	H 	0.0679	0.5196	0.7641	0.03
Mof_C 	C 	0.0692	0.5331	0.6486	-0.132
Mof_H 	H 	0.1008	0.4768	0.622	0.089
Mof_C 	C 	0.0439	0.5922	0.6039	0.08
Mof_H 	H 	0.0628	0.5758	0.5479	0.018
Mof_C 	C 	0.9684	0.6942	0.7199	0.065
Mof_H 	H 	0.9308	0.7489	0.7438	0.026
Mof_C 	C 	0.7354	0.666	0.3837	0.061
Mof_H 	H 	0.7915	0.6941	0.3603	0.016
Mof_C 	C 	0.6209	0.6125	0.3286	-0.13
Mof_H 	H 	0.6008	0.604	0.2688	0.083
Mof_C 	C 	0.5363	0.5717	0.363	0.033
Mof_H 	H 	0.4588	0.5349	0.3265	0.027
Mof_C 	C 	0.5673	0.5858	0.4524	-0.105
Mof_C 	C 	0.6852	0.6381	0.5014	0.06
Mof_H 	H 	0.7092	0.6458	0.561	0.024
Mof_C 	C 	0.4723	0.5449	0.4946	0.267
Mof_C 	C 	0.4579	0.6141	0.5838	-0.751
Mof_H 	H 	0.4443	0.6723	0.5785	0.249
Mof_H 	H 	0.5399	0.6184	0.6274	0.263
Mof_H 	H 	0.3804	0.5949	0.6013	0.266
Mof_Cd	Cd	0.04021	0.22479	0.43296	0.431
Mof_N 	N 	0.6914	0.5997	0.0765	-0.148
Mof_N 	N 	0.8461	0.1438	0.3251	-0.15
Mof_N 	N 	0.5861	0.3925	0.0655	-0.144
Mof_N 	N 	0.0064	0.3287	0.3627	-0.151
Mof_N 	N 	0.231	0.3207	0.5302	-0.147
Mof_O 	O 	0.3948	0.5847	0.1122	-0.298
Mof_O 	O 	0.2616	0.4992	0.1509	-0.29
Mof_O 	O 	0.1521	0.6583	0.4586	-0.283
Mof_O 	O 	0.0613	0.7875	0.4649	-0.284
Mof_O 	O 	0.3665	0.973	0.3493	-0.451
Mof_O 	O 	0.1622	0.0996	0.442	-0.221
Mof_O 	O 	0.2057	0.1442	0.3403	-0.214
Mof_O 	O 	0.893	0.884	0.2895	-0.425
Mof_H 	H 	0.8783	0.9189	0.3363	0.253
Mof_O 	O 	0.8512	0.8987	0.1203	-0.438
Mof_H 	H 	0.9248	0.9052	0.1553	0.253
Mof_O 	O 	0.9127	0.1764	0.1014	-0.425
Mof_H 	H 	0.8669	0.1326	0.0624	0.241
Mof_O 	O 	0.007	0.3995	0.1016	-0.455
Mof_H 	H 	0.0782	0.4329	0.1211	0.286
Mof_O 	O 	0.6607	0.4829	0.5633	-0.44
Mof_H 	H 	0.6998	0.438	0.5662	0.277
Mof_C 	C 	0.3149	0.5741	0.158	0.311
Mof_C 	C 	0.1333	0.724	0.433	0.304
Mof_C 	C 	0.283	0.6591	0.2282	-0.094
Mof_C 	C 	0.2296	0.6527	0.2975	0.019
Mof_H 	H 	0.2179	0.5964	0.3024	0.037
Mof_C 	C 	0.1938	0.7291	0.3592	-0.092
Mof_C 	C 	0.2112	0.8131	0.3508	0.002
Mof_H 	H 	0.1852	0.8645	0.3913	0.051
Mof_C 	C 	0.2664	0.8212	0.2832	-0.054
Mof_C 	C 	0.3022	0.7435	0.2224	-0.008
Mof_H 	H 	0.3398	0.7482	0.1769	0.019
Mof_C 	C 	0.2783	0.9127	0.2737	0.166
Mof_H 	H 	0.1882	0.936	0.2665	-0.013
Mof_H 	H 	0.3143	0.9067	0.2219	-0.033
Mof_C 	C 	0.3593	0.0473	0.3889	0.617
Mof_H 	H 	0.3833	0.0659	0.3426	-0.096
Mof_C 	C 	0.2323	0.0992	0.3887	0.07
Mof_C 	C 	0.4787	0.1019	0.4537	-1.186
Mof_H 	H 	0.558	0.0672	0.4499	0.391
Mof_H 	H 	0.4954	0.1557	0.4416	0.386
Mof_H 	H 	0.461	0.1184	0.5119	0.383
Mof_C 	C 	0.818	0.5742	0.0753	0.08
Mof_H 	H 	0.8288	0.5151	0.0404	0.017
Mof_C 	C 	0.9323	0.6295	0.1221	-0.13
Mof_H 	H 	0.0193	0.6084	0.1205	0.079
Mof_C 	C 	0.9166	0.7197	0.1733	0.03
Mof_H 	H 	0.9935	0.7595	0.2055	0.039
Mof_C 	C 	0.7848	0.7486	0.1753	-0.091
Mof_C 	C 	0.676	0.6859	0.1265	0.043
Mof_H 	H 	0.5873	0.7038	0.1282	0.009
Mof_C 	C 	0.7644	0.8469	0.2287	0.248
Mof_C 	C 	0.6503	0.8526	0.277	-0.767
Mof_H 	H 	0.6477	0.9141	0.3152	0.255
Mof_H 	H 	0.5642	0.833	0.2352	0.25
Mof_H 	H 	0.6661	0.8143	0.3115	0.264
Mof_C 	C 	0.7361	0.9036	0.1668	0.294
Mof_C 	C 	0.6066	0.8668	0.1048	-0.815
Mof_H 	H 	0.6118	0.8035	0.0728	0.272
Mof_H 	H 	0.5337	0.874	0.1363	0.256
Mof_H 	H 	0.5886	0.8985	0.0641	0.274
Mof_C 	C 	0.7289	0.0038	0.2209	-0.132
Mof_C 	C 	0.6063	0.0441	0.2231	0.06
Mof_H 	H 	0.5241	0.0104	0.1904	-0.004
Mof_C 	C 	0.6054	0.1346	0.2739	-0.156
Mof_H 	H 	0.5236	0.1631	0.2732	0.073
Mof_C 	C 	0.7252	0.1813	0.3247	0.081
Mof_H 	H 	0.7235	0.2415	0.3606	-0.005
Mof_C 	C 	0.8462	0.058	0.2725	0.08
Mof_H 	H 	0.9305	0.0329	0.2703	0.02
Mof_C 	C 	0.5213	0.3728	0.1199	0.047
Mof_H 	H 	0.4402	0.3996	0.1302	0.021
Mof_C 	C 	0.5703	0.3137	0.162	-0.114
Mof_H 	H 	0.5227	0.3009	0.1998	0.054
Mof_C 	C 	0.6912	0.2737	0.1468	0.019
Mof_H 	H 	0.7256	0.2339	0.1748	0.038
Mof_C 	C 	0.7606	0.2929	0.0902	-0.095
Mof_C 	C 	0.702	0.352	0.0503	0.052
Mof_H 	H 	0.7456	0.3644	0.0105	0.02
Mof_C 	C 	0.8996	0.2551	0.0746	0.263
Mof_C 	C 	0.9047	0.2311	0.9799	-0.789
Mof_H 	H 	0.823	0.1942	0.9435	0.262
Mof_H 	H 	0.9105	0.2855	0.9669	0.289
Mof_H 	H 	0.984	0.1981	0.9684	0.28
Mof_C 	C 	0.0206	0.3271	0.1345	0.277
Mof_C 	C 	0.1617	0.2895	0.1275	-0.775
Mof_H 	H 	0.2326	0.3339	0.1681	0.268
Mof_H 	H 	0.166	0.2353	0.1415	0.27
Mof_H 	H 	0.1747	0.2757	0.0684	0.263
Mof_C 	C 	0.0039	0.3601	0.2306	-0.104
Mof_C 	C 	0.9523	0.442	0.2677	0.056
Mof_H 	H 	0.9321	0.4804	0.2359	0.03
Mof_C 	C 	0.9308	0.4669	0.3514	-0.133
Mof_H 	H 	0.8992	0.5232	0.378	0.089
Mof_C 	C 	0.9561	0.4078	0.3961	0.08
Mof_H 	H 	0.9372	0.4242	0.4521	0.018
Mof_C 	C 	0.0316	0.3058	0.2801	0.067
Mof_H 	H 	0.0692	0.2511	0.2562	0.025
Mof_C 	C 	0.2646	0.334	0.6163	0.061
Mof_H 	H 	0.2085	0.3059	0.6397	0.016
Mof_C 	C 	0.3791	0.3875	0.6714	-0.13
Mof_H 	H 	0.3992	0.396	0.7312	0.083
Mof_C 	C 	0.4637	0.4283	0.637	0.033
Mof_H 	H 	0.5412	0.4651	0.6735	0.027
Mof_C 	C 	0.4327	0.4142	0.5476	-0.105
Mof_C 	C 	0.3148	0.3619	0.4986	0.06
Mof_H 	H 	0.2908	0.3542	0.439	0.024
Mof_C 	C 	0.5277	0.4551	0.5054	0.267
Mof_C 	C 	0.5421	0.3859	0.4162	-0.751
Mof_H 	H 	0.5557	0.3277	0.4215	0.249
Mof_H 	H 	0.4601	0.3816	0.3726	0.263
Mof_H 	H 	0.6196	0.4051	0.3987	0.266
Mof_Cd	Cd	0.5	0.5	-0	0.406
_end
