data_functionalizedCrystal
_audit_creation_method	'EQeq! by Chris Wilmer'
_symmetry_space_group_name_H-M	'P1'
_symmetry_Int_Tables_number	1
_symmetry_cell_setting	triclinic
loop_
_symmetry_equiv_pos_as_xyz
  x,y,z
_cell_length_a	8.6868
_cell_length_b	17.428
_cell_length_c	9.1589
_cell_angle_alpha	90
_cell_angle_beta	109.604
_cell_angle_gamma	90
loop_
_atom_site_label
_atom_site_type_symbol
_atom_site_fract_x
_atom_site_fract_y
_atom_site_fract_z
_atom_site_charge
Mof_H 	H 	0.55	0.788	0.898	0.856
Mof_P 	P 	0.20373	0.78832	0.02722	1.838
Mof_P 	P 	0.34018	0.0704	0.8682	1.911
Mof_P 	P 	0.25208	0.83769	0.4949	1.755
Mof_Al	Al	0.4903	0.83114	0.3103	7.332
Mof_Al	Al	0.36173	0.88868	0.83616	7.702
Mof_Al	Al	0.43534	0.70402	0.7027	7.934
Mof_O 	O 	0.2806	0.98819	0.84	-1.777
Mof_O 	O 	0.3647	0.7733	0.1621	-2.278
Mof_O 	O 	0.1643	0.71637	0.9255	-2.252
Mof_O 	O 	0.0671	0.8055	0.0893	-2.235
Mof_O 	O 	0.1901	0.1211	0.8195	-2.183
Mof_O 	O 	0.4468	0.0889	0.768	-2.297
Mof_O 	O 	0.2667	0.89074	0.6302	-2.046
Mof_O 	O 	0.2733	0.75376	0.5447	-2.159
Mof_O 	O 	0.458	0.7901	0.8212	-3.608
Mof_O 	O 	0.0851	0.84904	0.3722	-1.799
Mof_O 	O 	0.2259	0.8562	0.9319	-2.147
Mof_O 	O 	0.4406	0.0832	0.0376	-2.188
Mof_O 	O 	0.3827	0.8628	0.4268	-2.258
Mof_H 	H 	0.95	0.288	0.602	0.874
Mof_P 	P 	0.29627	0.28832	0.47278	1.87
Mof_P 	P 	0.15982	0.5704	0.6318	1.931
Mof_P 	P 	0.24792	0.33769	0.0051	1.741
Mof_Al	Al	0.0097	0.33114	0.1897	7.197
Mof_Al	Al	0.13827	0.38868	0.66384	7.696
Mof_Al	Al	0.06466	0.20402	0.7973	7.858
Mof_O 	O 	0.2194	0.48819	0.66	-1.793
Mof_O 	O 	0.1353	0.2733	0.3379	-2.258
Mof_O 	O 	0.3357	0.21637	0.5745	-2.307
Mof_O 	O 	0.4329	0.3055	0.4107	-2.262
Mof_O 	O 	0.3099	0.6211	0.6805	-2.188
Mof_O 	O 	0.0532	0.5889	0.732	-2.25
Mof_O 	O 	0.2333	0.39074	0.8698	-2.045
Mof_O 	O 	0.2267	0.25376	0.9553	-2.15
Mof_O 	O 	0.042	0.2901	0.6788	-3.612
Mof_O 	O 	0.4149	0.34904	0.1278	-1.822
Mof_O 	O 	0.2741	0.3562	0.5681	-2.167
Mof_O 	O 	0.0594	0.5832	0.4624	-2.183
Mof_O 	O 	0.1173	0.3628	0.0732	-2.232
Mof_H 	H 	0.45	0.212	0.102	0.857
Mof_P 	P 	0.79627	0.21168	0.97278	1.839
Mof_P 	P 	0.65982	0.9296	0.1318	1.911
Mof_P 	P 	0.74792	0.16231	0.5051	1.755
Mof_Al	Al	0.5097	0.16886	0.6897	7.332
Mof_Al	Al	0.63827	0.11132	0.16384	7.702
Mof_Al	Al	0.56466	0.29598	0.2973	7.934
Mof_O 	O 	0.7194	0.01181	0.16	-1.777
Mof_O 	O 	0.6353	0.2267	0.8379	-2.278
Mof_O 	O 	0.8357	0.28363	0.0745	-2.252
Mof_O 	O 	0.9329	0.1945	0.9107	-2.235
Mof_O 	O 	0.8099	0.8789	0.1805	-2.183
Mof_O 	O 	0.5532	0.9111	0.232	-2.297
Mof_O 	O 	0.7333	0.10926	0.3698	-2.046
Mof_O 	O 	0.7267	0.24624	0.4553	-2.159
Mof_O 	O 	0.542	0.2099	0.1788	-3.608
Mof_O 	O 	0.9149	0.15096	0.6278	-1.799
Mof_O 	O 	0.7741	0.1438	0.0681	-2.147
Mof_O 	O 	0.5594	0.9168	0.9624	-2.188
Mof_O 	O 	0.6173	0.1372	0.5732	-2.258
Mof_H 	H 	0.05	0.712	0.398	0.874
Mof_P 	P 	0.70373	0.71168	0.52722	1.87
Mof_P 	P 	0.84018	0.4296	0.3682	1.931
Mof_P 	P 	0.75208	0.66231	0.9949	1.741
Mof_Al	Al	0.9903	0.66886	0.8103	7.197
Mof_Al	Al	0.86173	0.61132	0.33616	7.696
Mof_Al	Al	0.93534	0.79598	0.2027	7.858
Mof_O 	O 	0.7806	0.51181	0.34	-1.793
Mof_O 	O 	0.8647	0.7267	0.6621	-2.258
Mof_O 	O 	0.6643	0.78363	0.4255	-2.307
Mof_O 	O 	0.5671	0.6945	0.5893	-2.262
Mof_O 	O 	0.6901	0.3789	0.3195	-2.188
Mof_O 	O 	0.9468	0.4111	0.268	-2.25
Mof_O 	O 	0.7667	0.60926	0.1302	-2.045
Mof_O 	O 	0.7733	0.74624	0.0447	-2.15
Mof_O 	O 	0.958	0.7099	0.3212	-3.612
Mof_O 	O 	0.5851	0.65096	0.8722	-1.822
Mof_O 	O 	0.7259	0.6438	0.4319	-2.167
Mof_O 	O 	0.9406	0.4168	0.5376	-2.183
Mof_O 	O 	0.8827	0.6372	0.9268	-2.232
_end
