data_functionalizedCrystal
_audit_creation_method	'EQeq! by Chris Wilmer'
_symmetry_space_group_name_H-M	'P1'
_symmetry_Int_Tables_number	1
_symmetry_cell_setting	triclinic
loop_
_symmetry_equiv_pos_as_xyz
  x,y,z
_cell_length_a	36.4551
_cell_length_b	18.1156
_cell_length_c	14.1588
_cell_angle_alpha	90
_cell_angle_beta	93.8165
_cell_angle_gamma	90
loop_
_atom_site_label
_atom_site_type_symbol
_atom_site_fract_x
_atom_site_fract_y
_atom_site_fract_z
_atom_site_charge
Mof_Zn	Zn	0.20871	0.8922	0.06614	1.208
Mof_Zn	Zn	0.31649	0.34436	0.19901	1.173
Mof_Zn	Zn	0.31873	0.6767	0.2312	0.59
Mof_O 	O 	0.2432	0.89613	0.9686	-0.46
Mof_F 	F 	0.50938	0.0937	0.867	-0.355
Mof_N 	N 	0.31415	0.56897	0.2587	-0.29
Mof_C 	C 	0.29964	0.5397	0.3348	0.111
Mof_H 	H 	0.2911	0.5676	0.3838	-0.012
Mof_N 	N 	0.31415	0.44752	0.25	-0.26
Mof_N 	N 	0.29886	0.46744	0.333	-0.247
Mof_F 	F 	0.55042	0.0757	0.0281	-0.363
Mof_C 	C 	0.32297	0.5091	0.2085	0.111
Mof_H 	H 	0.334	0.5111	0.1512	-0.033
Mof_C 	C 	0.31548	0.8972	0.5689	-0.311
Mof_H 	H 	0.2958	0.9151	0.6008	0.155
Mof_C 	C 	0.31022	0.838	0.5081	0.181
Mof_H 	H 	0.2875	0.8146	0.5017	-0.036
Mof_C 	C 	0.4283	0.2281	0.1566	0.218
Mof_H 	H 	0.4159	0.2094	0.2066	0.04
Mof_C 	C 	0.64517	0.3297	0.9708	0.535
Mof_C 	C 	0.35011	0.9307	0.5833	0.388
Mof_C 	C 	0.59229	0.2575	0.897	0.334
Mof_H 	H 	0.604	0.257	0.8405	-0.029
Mof_C 	C 	0.47736	0.2177	0.0512	0.398
Mof_C 	C 	0.60779	0.2957	0.973	-0.312
Mof_C 	C 	0.37818	0.906	0.5292	-0.295
Mof_H 	H 	0.4011	0.9286	0.5362	0.289
Mof_C 	C 	0.33891	0.8128	0.4562	-0.198
Mof_C 	C 	0.38189	0.3292	0.1413	0.37
Mof_O 	O 	0.37206	0.3902	0.108	-0.354
Mof_C 	C 	0.54118	0.2218	0.9863	0.453
Mof_C 	C 	0.45812	0.1898	0.125	-0.328
Mof_H 	H 	0.4653	0.1452	0.1534	0.294
Mof_C 	C 	0.50727	0.1736	0.0031	-0.54
Mof_C 	C 	0.37245	0.8483	0.4648	0.214
Mof_H 	H 	0.3912	0.8337	0.4275	0.06
Mof_C 	C 	0.58943	0.2988	0.0571	0.295
Mof_H 	H 	0.5997	0.3247	0.1091	-0.051
Mof_C 	C 	0.41678	0.2936	0.1149	-0.221
Mof_C 	C 	0.46668	0.286	0.0128	-0.327
Mof_H 	H 	0.4801	0.3069	0.9658	0.183
Mof_C 	C 	0.43655	0.3229	0.0437	0.212
Mof_H 	H 	0.4295	0.3678	0.0166	-0.023
Mof_C 	C 	0.55938	0.2195	0.9032	-0.369
Mof_H 	H 	0.5495	0.1925	0.8515	0.307
Mof_O 	O 	0.36189	0.29197	0.1944	-0.476
Mof_N 	N 	0.278	0.28921	0.2685	-0.258
Mof_O 	O 	0.65768	0.3621	0.0442	-0.535
Mof_O 	O 	0.66302	0.32298	0.9003	-0.544
Mof_N 	N 	0.2264	0.22915	0.2934	-0.26
Mof_F 	F 	0.40265	0.92877	0.7397	-0.468
Mof_F 	F 	0.31564	0.07555	0.56332	-0.545
Mof_F 	F 	0.49631	0.05488	0.0722	-0.364
Mof_F 	F 	0.42063	0.01525	0.6511	-0.385
Mof_C 	C 	0.32315	0.922	0.7761	-0.342
Mof_H 	H 	0.3375	0.8822	0.7598	0.202
Mof_O 	O 	0.309	0.70085	0.40814	-0.355
Mof_C 	C 	0.27628	0.972	0.8691	-0.236
Mof_C 	C 	0.29796	0.9128	0.8433	0.255
Mof_H 	H 	0.2954	0.867	0.8717	-0.009
Mof_C 	C 	0.52128	0.1079	0.0636	0.979
Mof_F 	F 	0.37089	0.06831	0.5225	-0.444
Mof_F 	F 	0.53219	0.12888	0.1516	-0.455
Mof_O 	O 	0.23177	0.01546	0.972	-0.358
Mof_C 	C 	0.25264	0.243	0.2332	0.104
Mof_H 	H 	0.2529	0.2223	0.1731	-0.031
Mof_C 	C 	0.35539	0.995	0.6548	-0.526
Mof_N 	N 	0.26752	0.30841	0.3575	-0.237
Mof_C 	C 	0.39422	0.9951	0.7066	0.996
Mof_C 	C 	0.30681	0.0492	0.7605	-0.357
Mof_H 	H 	0.3101	0.0955	0.7339	0.221
Mof_C 	C 	0.33211	0.7494	0.3894	0.352
Mof_C 	C 	0.55626	0.263	0.0622	-0.374
Mof_H 	H 	0.5438	0.2665	0.1172	0.202
Mof_C 	C 	0.35036	0.0672	0.596	0.991
Mof_C 	C 	0.24859	0.9621	0.9403	0.4
Mof_C 	C 	0.32747	0.9901	0.7321	0.42
Mof_F 	F 	0.48058	0.19666	0.84734	-0.482
Mof_F 	F 	0.35925	0.1275	0.6482	-0.487
Mof_F 	F 	0.45695	0.10866	0.9244	-0.406
Mof_F 	F 	0.3958	0.0414	0.7796	-0.414
Mof_C 	C 	0.28143	0.0403	0.8278	0.249
Mof_H 	H 	0.2676	0.0806	0.8455	-0.069
Mof_C 	C 	0.23674	0.2711	0.3687	0.123
Mof_H 	H 	0.2237	0.2737	0.423	0.006
Mof_O 	O 	0.34874	0.74795	0.3142	-0.408
Mof_C 	C 	0.48874	0.1428	0.9099	0.976
Mof_Zn	Zn	0.32721	0.6725	0.2312	0.637
Mof_Zn	Zn	0.70871	0.3922	0.06614	1.208
Mof_Zn	Zn	0.81649	0.84436	0.19901	1.174
Mof_Zn	Zn	0.81873	0.1767	0.2312	0.591
Mof_O 	O 	0.7432	0.39613	0.9686	-0.458
Mof_F 	F 	0.00938	0.5937	0.867	-0.355
Mof_N 	N 	0.81415	0.06897	0.2587	-0.29
Mof_C 	C 	0.79964	0.0397	0.3348	0.11
Mof_H 	H 	0.7911	0.0676	0.3838	-0.011
Mof_N 	N 	0.81415	0.94752	0.25	-0.259
Mof_N 	N 	0.79886	0.96744	0.333	-0.246
Mof_F 	F 	0.05042	0.5757	0.0281	-0.361
Mof_C 	C 	0.82297	0.0091	0.2085	0.109
Mof_H 	H 	0.834	0.0111	0.1512	-0.034
Mof_C 	C 	0.81548	0.3972	0.5689	-0.311
Mof_H 	H 	0.7958	0.4151	0.6008	0.155
Mof_C 	C 	0.81022	0.338	0.5081	0.181
Mof_H 	H 	0.7875	0.3146	0.5017	-0.036
Mof_C 	C 	0.9283	0.7281	0.1566	0.213
Mof_H 	H 	0.9159	0.7094	0.2066	0.042
Mof_C 	C 	0.14517	0.8297	0.9708	0.531
Mof_C 	C 	0.85011	0.4307	0.5833	0.388
Mof_C 	C 	0.09229	0.7575	0.897	0.33
Mof_H 	H 	0.104	0.757	0.8405	-0.028
Mof_C 	C 	0.97736	0.7177	0.0512	0.391
Mof_C 	C 	0.10779	0.7957	0.973	-0.312
Mof_C 	C 	0.87818	0.406	0.5292	-0.296
Mof_H 	H 	0.9011	0.4286	0.5362	0.289
Mof_C 	C 	0.83891	0.3128	0.4562	-0.198
Mof_C 	C 	0.88189	0.8292	0.1413	0.368
Mof_O 	O 	0.87206	0.8902	0.108	-0.352
Mof_C 	C 	0.04118	0.7218	0.9863	0.442
Mof_C 	C 	0.95812	0.6898	0.125	-0.322
Mof_H 	H 	0.9653	0.6452	0.1534	0.293
Mof_C 	C 	0.00727	0.6736	0.0031	-0.531
Mof_C 	C 	0.87245	0.3483	0.4648	0.214
Mof_H 	H 	0.8912	0.3337	0.4275	0.06
Mof_C 	C 	0.08943	0.7988	0.0571	0.294
Mof_H 	H 	0.0997	0.8247	0.1091	-0.05
Mof_C 	C 	0.91678	0.7936	0.1149	-0.216
Mof_C 	C 	0.96668	0.786	0.0128	-0.314
Mof_H 	H 	0.9801	0.8069	0.9658	0.176
Mof_C 	C 	0.93655	0.8229	0.0437	0.204
Mof_H 	H 	0.9295	0.8678	0.0166	-0.019
Mof_C 	C 	0.05938	0.7195	0.9032	-0.363
Mof_H 	H 	0.0495	0.6925	0.8515	0.305
Mof_O 	O 	0.86189	0.79197	0.1944	-0.476
Mof_N 	N 	0.778	0.78921	0.2685	-0.258
Mof_O 	O 	0.15768	0.8621	0.0442	-0.532
Mof_O 	O 	0.16302	0.82298	0.9003	-0.543
Mof_N 	N 	0.7264	0.72915	0.2934	-0.26
Mof_F 	F 	0.90265	0.42877	0.7397	-0.468
Mof_F 	F 	0.81564	0.57555	0.56332	-0.545
Mof_F 	F 	0.99631	0.55488	0.0722	-0.362
Mof_F 	F 	0.92063	0.51525	0.6511	-0.386
Mof_C 	C 	0.82315	0.422	0.7761	-0.342
Mof_H 	H 	0.8375	0.3822	0.7598	0.203
Mof_O 	O 	0.809	0.20085	0.40814	-0.355
Mof_C 	C 	0.77628	0.472	0.8691	-0.234
Mof_C 	C 	0.79796	0.4128	0.8433	0.255
Mof_H 	H 	0.7954	0.367	0.8717	-0.008
Mof_C 	C 	0.02128	0.6079	0.0636	0.977
Mof_F 	F 	0.87089	0.56831	0.5225	-0.443
Mof_F 	F 	0.03219	0.62888	0.1516	-0.454
Mof_O 	O 	0.73177	0.51546	0.972	-0.361
Mof_C 	C 	0.75264	0.743	0.2332	0.104
Mof_H 	H 	0.7529	0.7223	0.1731	-0.031
Mof_C 	C 	0.85539	0.495	0.6548	-0.526
Mof_N 	N 	0.76752	0.80841	0.3575	-0.237
Mof_C 	C 	0.89422	0.4951	0.7066	0.998
Mof_C 	C 	0.80681	0.5492	0.7605	-0.359
Mof_H 	H 	0.8101	0.5955	0.7339	0.221
Mof_C 	C 	0.83211	0.2494	0.3894	0.352
Mof_C 	C 	0.05626	0.763	0.0622	-0.365
Mof_H 	H 	0.0438	0.7665	0.1172	0.2
Mof_C 	C 	0.85036	0.5672	0.596	0.99
Mof_C 	C 	0.74859	0.4621	0.9403	0.404
Mof_C 	C 	0.82747	0.4901	0.7321	0.422
Mof_F 	F 	0.98058	0.69666	0.84734	-0.481
Mof_F 	F 	0.85925	0.6275	0.6482	-0.487
Mof_F 	F 	0.95695	0.60866	0.9244	-0.406
Mof_F 	F 	0.8958	0.5414	0.7796	-0.416
Mof_C 	C 	0.78143	0.5403	0.8278	0.247
Mof_H 	H 	0.7676	0.5806	0.8455	-0.069
Mof_C 	C 	0.73674	0.7711	0.3687	0.123
Mof_H 	H 	0.7237	0.7737	0.423	0.006
Mof_O 	O 	0.84874	0.24795	0.3142	-0.408
Mof_C 	C 	0.98874	0.6428	0.9099	0.972
Mof_Zn	Zn	0.82721	0.1725	0.2312	0.637
Mof_Zn	Zn	0.79129	0.8922	0.43386	1.209
Mof_Zn	Zn	0.68351	0.34436	0.30099	1.174
Mof_Zn	Zn	0.68127	0.6767	0.2688	0.591
Mof_O 	O 	0.7568	0.89613	0.5314	-0.458
Mof_F 	F 	0.49062	0.0937	0.633	-0.355
Mof_N 	N 	0.68585	0.56897	0.2413	-0.29
Mof_C 	C 	0.70036	0.5397	0.1652	0.111
Mof_H 	H 	0.7089	0.5676	0.1162	-0.012
Mof_N 	N 	0.68585	0.44752	0.25	-0.26
Mof_N 	N 	0.70114	0.46744	0.167	-0.247
Mof_F 	F 	0.44958	0.0757	0.4719	-0.362
Mof_C 	C 	0.67703	0.5091	0.2915	0.111
Mof_H 	H 	0.666	0.5111	0.3488	-0.033
Mof_C 	C 	0.68452	0.8972	0.9311	-0.311
Mof_H 	H 	0.7042	0.9151	0.8992	0.155
Mof_C 	C 	0.68978	0.838	0.9919	0.178
Mof_H 	H 	0.7125	0.8146	0.9983	-0.036
Mof_C 	C 	0.5717	0.2281	0.3434	0.216
Mof_H 	H 	0.5841	0.2094	0.2934	0.041
Mof_C 	C 	0.35483	0.3297	0.5292	0.533
Mof_C 	C 	0.64989	0.9307	0.9167	0.389
Mof_C 	C 	0.40771	0.2575	0.603	0.331
Mof_H 	H 	0.396	0.257	0.6595	-0.029
Mof_C 	C 	0.52264	0.2177	0.4488	0.395
Mof_C 	C 	0.39221	0.2957	0.527	-0.312
Mof_C 	C 	0.62182	0.906	0.9708	-0.3
Mof_H 	H 	0.5989	0.9286	0.9638	0.289
Mof_C 	C 	0.66109	0.8128	0.0438	-0.197
Mof_C 	C 	0.61811	0.3292	0.3587	0.369
Mof_O 	O 	0.62794	0.3902	0.392	-0.353
Mof_C 	C 	0.45882	0.2218	0.5137	0.446
Mof_C 	C 	0.54188	0.1898	0.375	-0.325
Mof_H 	H 	0.5347	0.1452	0.3466	0.294
Mof_C 	C 	0.49273	0.1736	0.4969	-0.535
Mof_C 	C 	0.62755	0.8483	0.0352	0.218
Mof_H 	H 	0.6088	0.8337	0.0725	0.059
Mof_C 	C 	0.41057	0.2988	0.4429	0.294
Mof_H 	H 	0.4003	0.3247	0.3909	-0.05
Mof_C 	C 	0.58322	0.2936	0.3851	-0.219
Mof_C 	C 	0.53332	0.286	0.4872	-0.321
Mof_H 	H 	0.5199	0.3069	0.5342	0.18
Mof_C 	C 	0.56345	0.3229	0.4563	0.208
Mof_H 	H 	0.5705	0.3678	0.4834	-0.021
Mof_C 	C 	0.44062	0.2195	0.5968	-0.365
Mof_H 	H 	0.4505	0.1925	0.6485	0.306
Mof_O 	O 	0.63811	0.29197	0.3056	-0.476
Mof_N 	N 	0.722	0.28921	0.2315	-0.258
Mof_O 	O 	0.34232	0.3621	0.4558	-0.534
Mof_O 	O 	0.33698	0.32298	0.5997	-0.543
Mof_N 	N 	0.7736	0.22915	0.2066	-0.26
Mof_F 	F 	0.59735	0.92877	0.7603	-0.467
Mof_F 	F 	0.68436	0.07555	0.93668	-0.544
Mof_F 	F 	0.50369	0.05488	0.4278	-0.363
Mof_F 	F 	0.57937	0.01525	0.8489	-0.384
Mof_C 	C 	0.67685	0.922	0.7239	-0.341
Mof_H 	H 	0.6625	0.8822	0.7402	0.202
Mof_O 	O 	0.691	0.70085	0.09186	-0.355
Mof_C 	C 	0.72372	0.972	0.6309	-0.235
Mof_C 	C 	0.70204	0.9128	0.6567	0.254
Mof_H 	H 	0.7046	0.867	0.6283	-0.008
Mof_C 	C 	0.47872	0.1079	0.4364	0.978
Mof_F 	F 	0.62911	0.06831	0.9775	-0.442
Mof_F 	F 	0.46781	0.12888	0.3484	-0.455
Mof_O 	O 	0.76823	0.01546	0.528	-0.361
Mof_C 	C 	0.74736	0.243	0.2668	0.104
Mof_H 	H 	0.7471	0.2223	0.3269	-0.031
Mof_C 	C 	0.64461	0.995	0.8452	-0.527
Mof_N 	N 	0.73248	0.30841	0.1425	-0.237
Mof_C 	C 	0.60578	0.9951	0.7934	0.995
Mof_C 	C 	0.69319	0.0492	0.7395	-0.356
Mof_H 	H 	0.6899	0.0955	0.7661	0.221
Mof_C 	C 	0.66789	0.7494	0.1106	0.352
Mof_C 	C 	0.44374	0.263	0.4378	-0.369
Mof_H 	H 	0.4562	0.2665	0.3828	0.201
Mof_C 	C 	0.64964	0.0672	0.904	0.992
Mof_C 	C 	0.75141	0.9621	0.5597	0.403
Mof_C 	C 	0.67253	0.9901	0.7679	0.419
Mof_F 	F 	0.51942	0.19666	0.65266	-0.481
Mof_F 	F 	0.64075	0.1275	0.8518	-0.487
Mof_F 	F 	0.54305	0.10866	0.5756	-0.406
Mof_F 	F 	0.6042	0.0414	0.7204	-0.414
Mof_C 	C 	0.71857	0.0403	0.6722	0.247
Mof_H 	H 	0.7324	0.0806	0.6545	-0.069
Mof_C 	C 	0.76326	0.2711	0.1313	0.123
Mof_H 	H 	0.7763	0.2737	0.077	0.005
Mof_O 	O 	0.65126	0.74795	0.1858	-0.408
Mof_C 	C 	0.51126	0.1428	0.5901	0.973
Mof_Zn	Zn	0.67279	0.6725	0.2688	0.637
Mof_Zn	Zn	0.29129	0.3922	0.43386	1.209
Mof_Zn	Zn	0.18351	0.84436	0.30099	1.174
Mof_Zn	Zn	0.18127	0.1767	0.2688	0.591
Mof_O 	O 	0.2568	0.39613	0.5314	-0.458
Mof_F 	F 	0.99062	0.5937	0.633	-0.355
Mof_N 	N 	0.18585	0.06897	0.2413	-0.29
Mof_C 	C 	0.20036	0.0397	0.1652	0.108
Mof_H 	H 	0.2089	0.0676	0.1162	-0.012
Mof_N 	N 	0.18585	0.94752	0.25	-0.259
Mof_N 	N 	0.20114	0.96744	0.167	-0.245
Mof_F 	F 	0.94958	0.5757	0.4719	-0.362
Mof_C 	C 	0.17703	0.0091	0.2915	0.109
Mof_H 	H 	0.166	0.0111	0.3488	-0.033
Mof_C 	C 	0.18452	0.3972	0.9311	-0.312
Mof_H 	H 	0.2042	0.4151	0.8992	0.155
Mof_C 	C 	0.18978	0.338	0.9919	0.183
Mof_H 	H 	0.2125	0.3146	0.9983	-0.036
Mof_C 	C 	0.0717	0.7281	0.3434	0.216
Mof_H 	H 	0.0841	0.7094	0.2934	0.041
Mof_C 	C 	0.85483	0.8297	0.5292	0.533
Mof_C 	C 	0.14989	0.4307	0.9167	0.388
Mof_C 	C 	0.90771	0.7575	0.603	0.331
Mof_H 	H 	0.896	0.757	0.6595	-0.029
Mof_C 	C 	0.02264	0.7177	0.4488	0.395
Mof_C 	C 	0.89221	0.7957	0.527	-0.312
Mof_C 	C 	0.12182	0.406	0.9708	-0.295
Mof_H 	H 	0.0989	0.4286	0.9638	0.289
Mof_C 	C 	0.16109	0.3128	0.0438	-0.2
Mof_C 	C 	0.11811	0.8292	0.3587	0.369
Mof_O 	O 	0.12794	0.8902	0.392	-0.353
Mof_C 	C 	0.95882	0.7218	0.5137	0.446
Mof_C 	C 	0.04188	0.6898	0.375	-0.325
Mof_H 	H 	0.0347	0.6452	0.3466	0.294
Mof_C 	C 	0.99273	0.6736	0.4969	-0.535
Mof_C 	C 	0.12755	0.3483	0.0352	0.213
Mof_H 	H 	0.1088	0.3337	0.0725	0.06
Mof_C 	C 	0.91057	0.7988	0.4429	0.294
Mof_H 	H 	0.9003	0.8247	0.3909	-0.05
Mof_C 	C 	0.08322	0.7936	0.3851	-0.219
Mof_C 	C 	0.03332	0.786	0.4872	-0.321
Mof_H 	H 	0.0199	0.8069	0.5342	0.18
Mof_C 	C 	0.06345	0.8229	0.4563	0.208
Mof_H 	H 	0.0705	0.8678	0.4834	-0.021
Mof_C 	C 	0.94062	0.7195	0.5968	-0.365
Mof_H 	H 	0.9505	0.6925	0.6485	0.306
Mof_O 	O 	0.13811	0.79197	0.3056	-0.476
Mof_N 	N 	0.222	0.78921	0.2315	-0.258
Mof_O 	O 	0.84232	0.8621	0.4558	-0.534
Mof_O 	O 	0.83698	0.82298	0.5997	-0.543
Mof_N 	N 	0.2736	0.72915	0.2066	-0.26
Mof_F 	F 	0.09735	0.42877	0.7603	-0.468
Mof_F 	F 	0.18436	0.57555	0.93668	-0.545
Mof_F 	F 	0.00369	0.55488	0.4278	-0.362
Mof_F 	F 	0.07937	0.51525	0.8489	-0.386
Mof_C 	C 	0.17685	0.422	0.7239	-0.342
Mof_H 	H 	0.1625	0.3822	0.7402	0.203
Mof_O 	O 	0.191	0.20085	0.09186	-0.356
Mof_C 	C 	0.22372	0.472	0.6309	-0.234
Mof_C 	C 	0.20204	0.4128	0.6567	0.255
Mof_H 	H 	0.2046	0.367	0.6283	-0.008
Mof_C 	C 	0.97872	0.6079	0.4364	0.978
Mof_F 	F 	0.12911	0.56831	0.9775	-0.444
Mof_F 	F 	0.96781	0.62888	0.3484	-0.455
Mof_O 	O 	0.26823	0.51546	0.528	-0.361
Mof_C 	C 	0.24736	0.743	0.2668	0.104
Mof_H 	H 	0.2471	0.7223	0.3269	-0.031
Mof_C 	C 	0.14461	0.495	0.8452	-0.526
Mof_N 	N 	0.23248	0.80841	0.1425	-0.237
Mof_C 	C 	0.10578	0.4951	0.7934	0.998
Mof_C 	C 	0.19319	0.5492	0.7395	-0.358
Mof_H 	H 	0.1899	0.5955	0.7661	0.221
Mof_C 	C 	0.16789	0.2494	0.1106	0.352
Mof_C 	C 	0.94374	0.763	0.4378	-0.369
Mof_H 	H 	0.9562	0.7665	0.3828	0.201
Mof_C 	C 	0.14964	0.5672	0.904	0.991
Mof_C 	C 	0.25141	0.4621	0.5597	0.404
Mof_C 	C 	0.17253	0.4901	0.7679	0.422
Mof_F 	F 	0.01942	0.69666	0.65266	-0.482
Mof_F 	F 	0.14075	0.6275	0.8518	-0.487
Mof_F 	F 	0.04305	0.60866	0.5756	-0.406
Mof_F 	F 	0.1042	0.5414	0.7204	-0.416
Mof_C 	C 	0.21857	0.5403	0.6722	0.247
Mof_H 	H 	0.2324	0.5806	0.6545	-0.069
Mof_C 	C 	0.26326	0.7711	0.1313	0.123
Mof_H 	H 	0.2763	0.7737	0.077	0.006
Mof_O 	O 	0.15126	0.24795	0.1858	-0.408
Mof_C 	C 	0.01126	0.6428	0.5901	0.973
Mof_Zn	Zn	0.17279	0.1725	0.2688	0.637
Mof_Zn	Zn	0.79129	0.1078	0.93386	1.209
Mof_Zn	Zn	0.68351	0.65564	0.80099	1.174
Mof_Zn	Zn	0.68127	0.3233	0.7688	0.591
Mof_O 	O 	0.7568	0.10387	0.0314	-0.459
Mof_F 	F 	0.49062	0.9063	0.133	-0.355
Mof_N 	N 	0.68585	0.43103	0.7413	-0.29
Mof_C 	C 	0.70036	0.4603	0.6652	0.111
Mof_H 	H 	0.7089	0.4324	0.6162	-0.012
Mof_N 	N 	0.68585	0.55248	0.75	-0.26
Mof_N 	N 	0.70114	0.53256	0.667	-0.247
Mof_F 	F 	0.44958	0.9243	0.9719	-0.363
Mof_C 	C 	0.67703	0.4909	0.7915	0.111
Mof_H 	H 	0.666	0.4889	0.8488	-0.033
Mof_C 	C 	0.68452	0.1028	0.4311	-0.311
Mof_H 	H 	0.7042	0.0849	0.3992	0.155
Mof_C 	C 	0.68978	0.162	0.4919	0.181
Mof_H 	H 	0.7125	0.1854	0.4983	-0.036
Mof_C 	C 	0.5717	0.7719	0.8434	0.218
Mof_H 	H 	0.5841	0.7906	0.7934	0.04
Mof_C 	C 	0.35483	0.6703	0.0292	0.535
Mof_C 	C 	0.64989	0.0693	0.4167	0.388
Mof_C 	C 	0.40771	0.7425	0.103	0.334
Mof_H 	H 	0.396	0.743	0.1595	-0.029
Mof_C 	C 	0.52264	0.7823	0.9488	0.398
Mof_C 	C 	0.39221	0.7043	0.027	-0.312
Mof_C 	C 	0.62182	0.094	0.4708	-0.295
Mof_H 	H 	0.5989	0.0714	0.4638	0.289
Mof_C 	C 	0.66109	0.1872	0.5438	-0.198
Mof_C 	C 	0.61811	0.6708	0.8587	0.37
Mof_O 	O 	0.62794	0.6098	0.892	-0.354
Mof_C 	C 	0.45882	0.7782	0.0137	0.453
Mof_C 	C 	0.54188	0.8102	0.875	-0.328
Mof_H 	H 	0.5347	0.8548	0.8466	0.294
Mof_C 	C 	0.49273	0.8264	0.9969	-0.54
Mof_C 	C 	0.62755	0.1517	0.5352	0.214
Mof_H 	H 	0.6088	0.1663	0.5725	0.06
Mof_C 	C 	0.41057	0.7012	0.9429	0.295
Mof_H 	H 	0.4003	0.6753	0.8909	-0.051
Mof_C 	C 	0.58322	0.7064	0.8851	-0.221
Mof_C 	C 	0.53332	0.714	0.9872	-0.327
Mof_H 	H 	0.5199	0.6931	0.0342	0.183
Mof_C 	C 	0.56345	0.6771	0.9563	0.212
Mof_H 	H 	0.5705	0.6322	0.9834	-0.023
Mof_C 	C 	0.44062	0.7805	0.0968	-0.369
Mof_H 	H 	0.4505	0.8075	0.1485	0.307
Mof_O 	O 	0.63811	0.70803	0.8056	-0.476
Mof_N 	N 	0.722	0.71079	0.7315	-0.258
Mof_O 	O 	0.34232	0.6379	0.9558	-0.535
Mof_O 	O 	0.33698	0.67702	0.0997	-0.544
Mof_N 	N 	0.7736	0.77085	0.7066	-0.26
Mof_F 	F 	0.59735	0.07123	0.2603	-0.468
Mof_F 	F 	0.68436	0.92445	0.43668	-0.545
Mof_F 	F 	0.50369	0.94512	0.9278	-0.364
Mof_F 	F 	0.57937	0.98475	0.3489	-0.385
Mof_C 	C 	0.67685	0.078	0.2239	-0.342
Mof_H 	H 	0.6625	0.1178	0.2402	0.202
Mof_O 	O 	0.691	0.29915	0.59186	-0.355
Mof_C 	C 	0.72372	0.028	0.1309	-0.236
Mof_C 	C 	0.70204	0.0872	0.1567	0.255
Mof_H 	H 	0.7046	0.133	0.1283	-0.009
Mof_C 	C 	0.47872	0.8921	0.9364	0.979
Mof_F 	F 	0.62911	0.93169	0.4775	-0.444
Mof_F 	F 	0.46781	0.87112	0.8484	-0.455
Mof_O 	O 	0.76823	0.98454	0.028	-0.358
Mof_C 	C 	0.74736	0.757	0.7668	0.104
Mof_H 	H 	0.7471	0.7777	0.8269	-0.031
Mof_C 	C 	0.64461	0.005	0.3452	-0.526
Mof_N 	N 	0.73248	0.69159	0.6425	-0.237
Mof_C 	C 	0.60578	0.0049	0.2934	0.996
Mof_C 	C 	0.69319	0.9508	0.2395	-0.357
Mof_H 	H 	0.6899	0.9045	0.2661	0.221
Mof_C 	C 	0.66789	0.2506	0.6106	0.352
Mof_C 	C 	0.44374	0.737	0.9378	-0.374
Mof_H 	H 	0.4562	0.7335	0.8828	0.202
Mof_C 	C 	0.64964	0.9328	0.404	0.991
Mof_C 	C 	0.75141	0.0379	0.0597	0.4
Mof_C 	C 	0.67253	0.0099	0.2679	0.42
Mof_F 	F 	0.51942	0.80334	0.15266	-0.482
Mof_F 	F 	0.64075	0.8725	0.3518	-0.487
Mof_F 	F 	0.54305	0.89134	0.0756	-0.406
Mof_F 	F 	0.6042	0.9586	0.2204	-0.414
Mof_C 	C 	0.71857	0.9597	0.1722	0.249
Mof_H 	H 	0.7324	0.9194	0.1545	-0.069
Mof_C 	C 	0.76326	0.7289	0.6313	0.123
Mof_H 	H 	0.7763	0.7263	0.577	0.006
Mof_O 	O 	0.65126	0.25205	0.6858	-0.408
Mof_C 	C 	0.51126	0.8572	0.0901	0.976
Mof_Zn	Zn	0.67279	0.3275	0.7688	0.637
Mof_Zn	Zn	0.29129	0.6078	0.93386	1.208
Mof_Zn	Zn	0.18351	0.15564	0.80099	1.174
Mof_Zn	Zn	0.18127	0.8233	0.7688	0.591
Mof_O 	O 	0.2568	0.60387	0.0314	-0.458
Mof_F 	F 	0.99062	0.4063	0.133	-0.355
Mof_N 	N 	0.18585	0.93103	0.7413	-0.29
Mof_C 	C 	0.20036	0.9603	0.6652	0.11
Mof_H 	H 	0.2089	0.9324	0.6162	-0.011
Mof_N 	N 	0.18585	0.05248	0.75	-0.259
Mof_N 	N 	0.20114	0.03256	0.667	-0.246
Mof_F 	F 	0.94958	0.4243	0.9719	-0.361
Mof_C 	C 	0.17703	0.9909	0.7915	0.109
Mof_H 	H 	0.166	0.9889	0.8488	-0.034
Mof_C 	C 	0.18452	0.6028	0.4311	-0.311
Mof_H 	H 	0.2042	0.5849	0.3992	0.155
Mof_C 	C 	0.18978	0.662	0.4919	0.181
Mof_H 	H 	0.2125	0.6854	0.4983	-0.036
Mof_C 	C 	0.0717	0.2719	0.8434	0.213
Mof_H 	H 	0.0841	0.2906	0.7934	0.042
Mof_C 	C 	0.85483	0.1703	0.0292	0.531
Mof_C 	C 	0.14989	0.5693	0.4167	0.388
Mof_C 	C 	0.90771	0.2425	0.103	0.33
Mof_H 	H 	0.896	0.243	0.1595	-0.028
Mof_C 	C 	0.02264	0.2823	0.9488	0.391
Mof_C 	C 	0.89221	0.2043	0.027	-0.312
Mof_C 	C 	0.12182	0.594	0.4708	-0.296
Mof_H 	H 	0.0989	0.5714	0.4638	0.289
Mof_C 	C 	0.16109	0.6872	0.5438	-0.198
Mof_C 	C 	0.11811	0.1708	0.8587	0.368
Mof_O 	O 	0.12794	0.1098	0.892	-0.352
Mof_C 	C 	0.95882	0.2782	0.0137	0.442
Mof_C 	C 	0.04188	0.3102	0.875	-0.322
Mof_H 	H 	0.0347	0.3548	0.8466	0.293
Mof_C 	C 	0.99273	0.3264	0.9969	-0.531
Mof_C 	C 	0.12755	0.6517	0.5352	0.214
Mof_H 	H 	0.1088	0.6663	0.5725	0.06
Mof_C 	C 	0.91057	0.2012	0.9429	0.294
Mof_H 	H 	0.9003	0.1753	0.8909	-0.05
Mof_C 	C 	0.08322	0.2064	0.8851	-0.216
Mof_C 	C 	0.03332	0.214	0.9872	-0.314
Mof_H 	H 	0.0199	0.1931	0.0342	0.176
Mof_C 	C 	0.06345	0.1771	0.9563	0.204
Mof_H 	H 	0.0705	0.1322	0.9834	-0.019
Mof_C 	C 	0.94062	0.2805	0.0968	-0.363
Mof_H 	H 	0.9505	0.3075	0.1485	0.305
Mof_O 	O 	0.13811	0.20803	0.8056	-0.476
Mof_N 	N 	0.222	0.21079	0.7315	-0.258
Mof_O 	O 	0.84232	0.1379	0.9558	-0.532
Mof_O 	O 	0.83698	0.17702	0.0997	-0.543
Mof_N 	N 	0.2736	0.27085	0.7066	-0.26
Mof_F 	F 	0.09735	0.57123	0.2603	-0.468
Mof_F 	F 	0.18436	0.42445	0.43668	-0.545
Mof_F 	F 	0.00369	0.44512	0.9278	-0.362
Mof_F 	F 	0.07937	0.48475	0.3489	-0.386
Mof_C 	C 	0.17685	0.578	0.2239	-0.342
Mof_H 	H 	0.1625	0.6178	0.2402	0.203
Mof_O 	O 	0.191	0.79915	0.59186	-0.355
Mof_C 	C 	0.22372	0.528	0.1309	-0.234
Mof_C 	C 	0.20204	0.5872	0.1567	0.255
Mof_H 	H 	0.2046	0.633	0.1283	-0.008
Mof_C 	C 	0.97872	0.3921	0.9364	0.977
Mof_F 	F 	0.12911	0.43169	0.4775	-0.443
Mof_F 	F 	0.96781	0.37112	0.8484	-0.454
Mof_O 	O 	0.26823	0.48454	0.028	-0.361
Mof_C 	C 	0.24736	0.257	0.7668	0.104
Mof_H 	H 	0.2471	0.2777	0.8269	-0.031
Mof_C 	C 	0.14461	0.505	0.3452	-0.526
Mof_N 	N 	0.23248	0.19159	0.6425	-0.237
Mof_C 	C 	0.10578	0.5049	0.2934	0.998
Mof_C 	C 	0.19319	0.4508	0.2395	-0.359
Mof_H 	H 	0.1899	0.4045	0.2661	0.221
Mof_C 	C 	0.16789	0.7506	0.6106	0.352
Mof_C 	C 	0.94374	0.237	0.9378	-0.365
Mof_H 	H 	0.9562	0.2335	0.8828	0.2
Mof_C 	C 	0.14964	0.4328	0.404	0.99
Mof_C 	C 	0.25141	0.5379	0.0597	0.404
Mof_C 	C 	0.17253	0.5099	0.2679	0.422
Mof_F 	F 	0.01942	0.30334	0.15266	-0.481
Mof_F 	F 	0.14075	0.3725	0.3518	-0.487
Mof_F 	F 	0.04305	0.39134	0.0756	-0.406
Mof_F 	F 	0.1042	0.4586	0.2204	-0.416
Mof_C 	C 	0.21857	0.4597	0.1722	0.247
Mof_H 	H 	0.2324	0.4194	0.1545	-0.069
Mof_C 	C 	0.26326	0.2289	0.6313	0.123
Mof_H 	H 	0.2763	0.2263	0.577	0.006
Mof_O 	O 	0.15126	0.75205	0.6858	-0.408
Mof_C 	C 	0.01126	0.3572	0.0901	0.972
Mof_Zn	Zn	0.17279	0.8275	0.7688	0.637
Mof_Zn	Zn	0.20871	0.1078	0.56614	1.209
Mof_Zn	Zn	0.31649	0.65564	0.69901	1.174
Mof_Zn	Zn	0.31873	0.3233	0.7312	0.591
Mof_O 	O 	0.2432	0.10387	0.4686	-0.458
Mof_F 	F 	0.50938	0.9063	0.367	-0.355
Mof_N 	N 	0.31415	0.43103	0.7587	-0.29
Mof_C 	C 	0.29964	0.4603	0.8348	0.111
Mof_H 	H 	0.2911	0.4324	0.8838	-0.012
Mof_N 	N 	0.31415	0.55248	0.75	-0.26
Mof_N 	N 	0.29886	0.53256	0.833	-0.247
Mof_F 	F 	0.55042	0.9243	0.5281	-0.362
Mof_C 	C 	0.32297	0.4909	0.7085	0.111
Mof_H 	H 	0.334	0.4889	0.6512	-0.033
Mof_C 	C 	0.31548	0.1028	0.0689	-0.311
Mof_H 	H 	0.2958	0.0849	0.1008	0.155
Mof_C 	C 	0.31022	0.162	0.0081	0.178
Mof_H 	H 	0.2875	0.1854	0.0017	-0.036
Mof_C 	C 	0.4283	0.7719	0.6566	0.216
Mof_H 	H 	0.4159	0.7906	0.7066	0.041
Mof_C 	C 	0.64517	0.6703	0.4708	0.533
Mof_C 	C 	0.35011	0.0693	0.0833	0.389
Mof_C 	C 	0.59229	0.7425	0.397	0.331
Mof_H 	H 	0.604	0.743	0.3405	-0.029
Mof_C 	C 	0.47736	0.7823	0.5512	0.395
Mof_C 	C 	0.60779	0.7043	0.473	-0.312
Mof_C 	C 	0.37818	0.094	0.0292	-0.3
Mof_H 	H 	0.4011	0.0714	0.0362	0.289
Mof_C 	C 	0.33891	0.1872	0.9562	-0.197
Mof_C 	C 	0.38189	0.6708	0.6413	0.369
Mof_O 	O 	0.37206	0.6098	0.608	-0.353
Mof_C 	C 	0.54118	0.7782	0.4863	0.446
Mof_C 	C 	0.45812	0.8102	0.625	-0.325
Mof_H 	H 	0.4653	0.8548	0.6534	0.294
Mof_C 	C 	0.50727	0.8264	0.5031	-0.535
Mof_C 	C 	0.37245	0.1517	0.9648	0.218
Mof_H 	H 	0.3912	0.1663	0.9275	0.059
Mof_C 	C 	0.58943	0.7012	0.5571	0.294
Mof_H 	H 	0.5997	0.6753	0.6091	-0.05
Mof_C 	C 	0.41678	0.7064	0.6149	-0.219
Mof_C 	C 	0.46668	0.714	0.5128	-0.321
Mof_H 	H 	0.4801	0.6931	0.4658	0.18
Mof_C 	C 	0.43655	0.6771	0.5437	0.208
Mof_H 	H 	0.4295	0.6322	0.5166	-0.021
Mof_C 	C 	0.55938	0.7805	0.4032	-0.365
Mof_H 	H 	0.5495	0.8075	0.3515	0.306
Mof_O 	O 	0.36189	0.70803	0.6944	-0.476
Mof_N 	N 	0.278	0.71079	0.7685	-0.258
Mof_O 	O 	0.65768	0.6379	0.5442	-0.534
Mof_O 	O 	0.66302	0.67702	0.4003	-0.543
Mof_N 	N 	0.2264	0.77085	0.7934	-0.26
Mof_F 	F 	0.40265	0.07123	0.2397	-0.467
Mof_F 	F 	0.31564	0.92445	0.06332	-0.544
Mof_F 	F 	0.49631	0.94512	0.5722	-0.363
Mof_F 	F 	0.42063	0.98475	0.1511	-0.384
Mof_C 	C 	0.32315	0.078	0.2761	-0.341
Mof_H 	H 	0.3375	0.1178	0.2598	0.202
Mof_O 	O 	0.309	0.29915	0.90814	-0.355
Mof_C 	C 	0.27628	0.028	0.3691	-0.235
Mof_C 	C 	0.29796	0.0872	0.3433	0.254
Mof_H 	H 	0.2954	0.133	0.3717	-0.008
Mof_C 	C 	0.52128	0.8921	0.5636	0.978
Mof_F 	F 	0.37089	0.93169	0.0225	-0.442
Mof_F 	F 	0.53219	0.87112	0.6516	-0.455
Mof_O 	O 	0.23177	0.98454	0.472	-0.361
Mof_C 	C 	0.25264	0.757	0.7332	0.104
Mof_H 	H 	0.2529	0.7777	0.6731	-0.031
Mof_C 	C 	0.35539	0.005	0.1548	-0.527
Mof_N 	N 	0.26752	0.69159	0.8575	-0.237
Mof_C 	C 	0.39422	0.0049	0.2066	0.995
Mof_C 	C 	0.30681	0.9508	0.2605	-0.356
Mof_H 	H 	0.3101	0.9045	0.2339	0.221
Mof_C 	C 	0.33211	0.2506	0.8894	0.352
Mof_C 	C 	0.55626	0.737	0.5622	-0.369
Mof_H 	H 	0.5438	0.7335	0.6172	0.201
Mof_C 	C 	0.35036	0.9328	0.096	0.992
Mof_C 	C 	0.24859	0.0379	0.4403	0.403
Mof_C 	C 	0.32747	0.0099	0.2321	0.419
Mof_F 	F 	0.48058	0.80334	0.34734	-0.481
Mof_F 	F 	0.35925	0.8725	0.1482	-0.487
Mof_F 	F 	0.45695	0.89134	0.4244	-0.406
Mof_F 	F 	0.3958	0.9586	0.2796	-0.414
Mof_C 	C 	0.28143	0.9597	0.3278	0.247
Mof_H 	H 	0.2676	0.9194	0.3455	-0.069
Mof_C 	C 	0.23674	0.7289	0.8687	0.123
Mof_H 	H 	0.2237	0.7263	0.923	0.005
Mof_O 	O 	0.34874	0.25205	0.8142	-0.408
Mof_C 	C 	0.48874	0.8572	0.4099	0.973
Mof_Zn	Zn	0.32721	0.3275	0.7312	0.637
Mof_Zn	Zn	0.70871	0.6078	0.56614	1.209
Mof_Zn	Zn	0.81649	0.15564	0.69901	1.174
Mof_Zn	Zn	0.81873	0.8233	0.7312	0.591
Mof_O 	O 	0.7432	0.60387	0.4686	-0.458
Mof_F 	F 	0.00938	0.4063	0.367	-0.355
Mof_N 	N 	0.81415	0.93103	0.7587	-0.29
Mof_C 	C 	0.79964	0.9603	0.8348	0.108
Mof_H 	H 	0.7911	0.9324	0.8838	-0.012
Mof_N 	N 	0.81415	0.05248	0.75	-0.259
Mof_N 	N 	0.79886	0.03256	0.833	-0.245
Mof_F 	F 	0.05042	0.4243	0.5281	-0.362
Mof_C 	C 	0.82297	0.9909	0.7085	0.109
Mof_H 	H 	0.834	0.9889	0.6512	-0.033
Mof_C 	C 	0.81548	0.6028	0.0689	-0.312
Mof_H 	H 	0.7958	0.5849	0.1008	0.155
Mof_C 	C 	0.81022	0.662	0.0081	0.183
Mof_H 	H 	0.7875	0.6854	0.0017	-0.036
Mof_C 	C 	0.9283	0.2719	0.6566	0.216
Mof_H 	H 	0.9159	0.2906	0.7066	0.041
Mof_C 	C 	0.14517	0.1703	0.4708	0.533
Mof_C 	C 	0.85011	0.5693	0.0833	0.388
Mof_C 	C 	0.09229	0.2425	0.397	0.331
Mof_H 	H 	0.104	0.243	0.3405	-0.029
Mof_C 	C 	0.97736	0.2823	0.5512	0.395
Mof_C 	C 	0.10779	0.2043	0.473	-0.312
Mof_C 	C 	0.87818	0.594	0.0292	-0.295
Mof_H 	H 	0.9011	0.5714	0.0362	0.289
Mof_C 	C 	0.83891	0.6872	0.9562	-0.2
Mof_C 	C 	0.88189	0.1708	0.6413	0.369
Mof_O 	O 	0.87206	0.1098	0.608	-0.353
Mof_C 	C 	0.04118	0.2782	0.4863	0.446
Mof_C 	C 	0.95812	0.3102	0.625	-0.325
Mof_H 	H 	0.9653	0.3548	0.6534	0.294
Mof_C 	C 	0.00727	0.3264	0.5031	-0.535
Mof_C 	C 	0.87245	0.6517	0.9648	0.213
Mof_H 	H 	0.8912	0.6663	0.9275	0.06
Mof_C 	C 	0.08943	0.2012	0.5571	0.294
Mof_H 	H 	0.0997	0.1753	0.6091	-0.05
Mof_C 	C 	0.91678	0.2064	0.6149	-0.219
Mof_C 	C 	0.96668	0.214	0.5128	-0.321
Mof_H 	H 	0.9801	0.1931	0.4658	0.18
Mof_C 	C 	0.93655	0.1771	0.5437	0.208
Mof_H 	H 	0.9295	0.1322	0.5166	-0.021
Mof_C 	C 	0.05938	0.2805	0.4032	-0.365
Mof_H 	H 	0.0495	0.3075	0.3515	0.306
Mof_O 	O 	0.86189	0.20803	0.6944	-0.476
Mof_N 	N 	0.778	0.21079	0.7685	-0.258
Mof_O 	O 	0.15768	0.1379	0.5442	-0.534
Mof_O 	O 	0.16302	0.17702	0.4003	-0.543
Mof_N 	N 	0.7264	0.27085	0.7934	-0.26
Mof_F 	F 	0.90265	0.57123	0.2397	-0.468
Mof_F 	F 	0.81564	0.42445	0.06332	-0.545
Mof_F 	F 	0.99631	0.44512	0.5722	-0.362
Mof_F 	F 	0.92063	0.48475	0.1511	-0.386
Mof_C 	C 	0.82315	0.578	0.2761	-0.342
Mof_H 	H 	0.8375	0.6178	0.2598	0.203
Mof_O 	O 	0.809	0.79915	0.90814	-0.356
Mof_C 	C 	0.77628	0.528	0.3691	-0.234
Mof_C 	C 	0.79796	0.5872	0.3433	0.255
Mof_H 	H 	0.7954	0.633	0.3717	-0.008
Mof_C 	C 	0.02128	0.3921	0.5636	0.978
Mof_F 	F 	0.87089	0.43169	0.0225	-0.444
Mof_F 	F 	0.03219	0.37112	0.6516	-0.455
Mof_O 	O 	0.73177	0.48454	0.472	-0.361
Mof_C 	C 	0.75264	0.257	0.7332	0.104
Mof_H 	H 	0.7529	0.2777	0.6731	-0.031
Mof_C 	C 	0.85539	0.505	0.1548	-0.526
Mof_N 	N 	0.76752	0.19159	0.8575	-0.237
Mof_C 	C 	0.89422	0.5049	0.2066	0.998
Mof_C 	C 	0.80681	0.4508	0.2605	-0.358
Mof_H 	H 	0.8101	0.4045	0.2339	0.221
Mof_C 	C 	0.83211	0.7506	0.8894	0.352
Mof_C 	C 	0.05626	0.237	0.5622	-0.369
Mof_H 	H 	0.0438	0.2335	0.6172	0.201
Mof_C 	C 	0.85036	0.4328	0.096	0.991
Mof_C 	C 	0.74859	0.5379	0.4403	0.404
Mof_C 	C 	0.82747	0.5099	0.2321	0.422
Mof_F 	F 	0.98058	0.30334	0.34734	-0.482
Mof_F 	F 	0.85925	0.3725	0.1482	-0.487
Mof_F 	F 	0.95695	0.39134	0.4244	-0.406
Mof_F 	F 	0.8958	0.4586	0.2796	-0.416
Mof_C 	C 	0.78143	0.4597	0.3278	0.247
Mof_H 	H 	0.7676	0.4194	0.3455	-0.069
Mof_C 	C 	0.73674	0.2289	0.8687	0.123
Mof_H 	H 	0.7237	0.2263	0.923	0.006
Mof_O 	O 	0.84874	0.75205	0.8142	-0.408
Mof_C 	C 	0.98874	0.3572	0.4099	0.973
Mof_Zn	Zn	0.82721	0.8275	0.7312	0.637
_end
