data_functionalizedCrystal
_audit_creation_method	'EQeq! by Chris Wilmer'
_symmetry_space_group_name_H-M	'P1'
_symmetry_Int_Tables_number	1
_symmetry_cell_setting	triclinic
loop_
_symmetry_equiv_pos_as_xyz
  x,y,z
_cell_length_a	14.4201
_cell_length_b	19.6832
_cell_length_c	24.3937
_cell_angle_alpha	90
_cell_angle_beta	95.632
_cell_angle_gamma	90
loop_
_atom_site_label
_atom_site_type_symbol
_atom_site_fract_x
_atom_site_fract_y
_atom_site_fract_z
_atom_site_charge
Mof_C 	C 	0.1584	0.674	0.2017	-0.919
Mof_H 	H 	0.1642	0.661	0.1638	0.399
Mof_H 	H 	0.2	0.6455	0.2254	0.221
Mof_C 	C 	0.1868	0.7479	0.2099	0.042
Mof_H 	H 	0.2512	0.753	0.2021	0.105
Mof_H 	H 	0.1831	0.7601	0.2481	0.531
Mof_C 	C 	0.1262	0.7962	0.1732	-1.026
Mof_H 	H 	0.0621	0.7919	0.1817	0.282
Mof_H 	H 	0.1287	0.7832	0.135	0.552
Mof_C 	C 	0.1565	0.8702	0.1804	0.802
Mof_C 	C 	0.2331	0.887	0.2194	-0.951
Mof_H 	H 	0.2674	0.853	0.2384	0.363
Mof_C 	C 	0.2553	0.953	0.2285	0.864
Mof_H 	H 	0.3052	0.9627	0.2545	-0.27
Mof_C 	C 	0.1396	0.9902	0.1677	0.848
Mof_H 	H 	0.1057	0.0252	0.1497	-0.311
Mof_C 	C 	0.1126	0.9227	0.1562	-1.045
Mof_H 	H 	0.0616	0.9147	0.1306	0.365
Mof_N 	N 	0.2108	0.0054	0.2028	-0.32
Mof_C 	C 	0.1401	0.6717	0.1794	-0.359
Mof_H 	H 	0.1889	0.6394	0.191	0.179
Mof_H 	H 	0.1189	0.6625	0.1411	-0.083
Mof_C 	C 	0.1788	0.7437	0.1848	1.504
Mof_H 	H 	0.2431	0.7418	0.1764	-0.539
Mof_H 	H 	0.18	0.7564	0.2233	-0.857
Mof_C 	C 	0.132	0.8024	0.1508	-0.472
Mof_H 	H 	0.0651	0.7961	0.1467	0.128
Mof_H 	H 	0.1537	0.803	0.1144	-0.109
Mof_C 	C 	0.2034	0.9101	0.1423	0.351
Mof_H 	H 	0.2169	0.8916	0.1089	-0.102
Mof_C 	C 	0.2275	0.9746	0.1555	-0.56
Mof_H 	H 	0.2577	0.9996	0.1302	0.185
Mof_C 	C 	0.1684	0.9691	0.2371	-0.571
Mof_H 	H 	0.1555	0.9884	0.2703	0.199
Mof_C 	C 	0.1411	0.9014	0.2258	0.278
Mof_H 	H 	0.1107	0.8779	0.2519	-0.114
Mof_C 	C 	0.7688	0.2202	0.0805	-0.421
Mof_H 	H 	0.8046	0.1793	0.0753	0.118
Mof_H 	H 	0.8117	0.2577	0.0881	0.138
Mof_C 	C 	0.7018	0.235	0.0286	0.012
Mof_H 	H 	0.6623	0.1958	0.0197	0.023
Mof_H 	H 	0.6621	0.2733	0.0354	-0.006
Mof_C 	C 	0.7589	0.251	0.9807	-0.256
Mof_H 	H 	0.7926	0.2112	0.9702	0.079
Mof_H 	H 	0.803	0.2874	0.9903	0.109
Mof_C 	C 	0.2243	0.7513	0.4058	-0.05
Mof_H 	H 	0.205	0.7925	0.386	-0.013
Mof_H 	H 	0.1691	0.7244	0.41	0.051
Mof_C 	C 	0.2721	0.7698	0.4628	0.209
Mof_H 	H 	0.3204	0.8013	0.4544	-0.044
Mof_H 	H 	0.2259	0.7974	0.4787	-0.05
Mof_C 	C 	0.3169	0.7313	0.5113	-0.208
Mof_H 	H 	0.381	0.7211	0.5055	0.068
Mof_H 	H 	0.2844	0.6886	0.5147	0.088
Mof_C 	C 	0.3462	0.1499	0.5788	-0.604
Mof_H 	H 	0.2966	0.1228	0.5908	0.146
Mof_H 	H 	0.3206	0.1848	0.5543	0.318
Mof_H 	H 	0.3805	0.1704	0.6103	0.188
Mof_C 	C 	0.4458	0.0478	0.5899	-0.081
Mof_H 	H 	0.4807	0.0678	0.6214	0.029
Mof_H 	H 	0.4848	0.0165	0.5725	-0.01
Mof_H 	H 	0.3929	0.0241	0.6014	0.092
Mof_C 	C 	0.4942	0.1453	0.535	-0.011
Mof_H 	H 	0.5305	0.1583	0.5685	-0.022
Mof_H 	H 	0.473	0.1852	0.515	-0.141
Mof_H 	H 	0.5319	0.1186	0.5129	0.284
Mof_C 	C 	0.6164	0.5782	0.8983	-0.335
Mof_H 	H 	0.619	0.5295	0.8995	0.032
Mof_H 	H 	0.6767	0.5959	0.8926	0.11
Mof_H 	H 	0.5718	0.5924	0.8687	0.119
Mof_C 	C 	0.4823	0.5884	0.9536	-0.689
Mof_H 	H 	0.4462	0.6137	0.9254	0.236
Mof_H 	H 	0.4639	0.6009	0.989	-0.063
Mof_H 	H 	0.4717	0.5407	0.9476	0.265
Mof_C 	C 	0.5956	0.6819	0.9535	-0.227
Mof_H 	H 	0.6593	0.6947	0.9634	-0.106
Mof_H 	H 	0.5575	0.6993	0.9804	0.206
Mof_H 	H 	0.5749	0.7004	0.918	0.074
Mof_Co	Co	0.49573	0.14072	0.27004	1.184
Mof_Co	Co	0.25169	0.10819	0.22647	1.142
Mof_O 	O 	0.4341	0.23279	0.25781	-0.46
Mof_O 	O 	0.2821	0.2082	0.24375	-0.484
Mof_O 	O 	0.5239	0.4774	0.2713	-0.356
Mof_O 	O 	0.4297	0.55027	0.22445	-0.446
Mof_O 	O 	0.1267	0.9166	0.42211	-0.331
Mof_O 	O 	0.1359	0.9363	0.5116	-0.53
Mof_H 	H 	0.1072	0.9692	0.5217	0.246
Mof_O 	O 	0.2855	0.0691	0.30322	-0.45
Mof_O 	O 	0.4242	0.1103	0.33622	-0.434
Mof_O 	O 	0.3948	0.09349	0.20874	-1.053
Mof_H 	H 	0.3869	0.1043	0.1758	0.371
Mof_H 	H 	0.4139	0.0541	0.2132	0.436
Mof_N 	N 	0.8861	0.6303	0.25	-0.329
Mof_N 	N 	0.5863	0.1714	0.2057	-0.267
Mof_N 	N 	0.5868	0.3166	0.8376	-0.253
Mof_C 	C 	0.3494	0.2486	0.2467	0.453
Mof_C 	C 	0.3274	0.3224	0.2371	-0.322
Mof_C 	C 	0.2361	0.3419	0.2214	0.357
Mof_H 	H 	0.1902	0.3087	0.2157	-0.119
Mof_C 	C 	0.2118	0.4098	0.2139	-0.621
Mof_C 	C 	0.2825	0.4573	0.2206	0.359
Mof_H 	H 	0.268	0.5029	0.2146	-0.128
Mof_C 	C 	0.3744	0.4393	0.2361	-0.311
Mof_C 	C 	0.3974	0.3714	0.2452	0.22
Mof_H 	H 	0.4585	0.3588	0.2565	-0.027
Mof_C 	C 	0.4487	0.4925	0.2444	0.423
Mof_C 	C 	0.1114	0.4338	0.2003	1.322
Mof_C 	C 	0.1025	0.4712	0.1452	-1.869
Mof_H 	H 	0.1427	0.5102	0.1477	0.573
Mof_H 	H 	0.0392	0.4855	0.1365	0.58
Mof_H 	H 	0.1201	0.4413	0.1169	0.571
Mof_C 	C 	0.0851	0.4808	0.2458	-1.867
Mof_H 	H 	0.0904	0.4567	0.2802	0.57
Mof_H 	H 	0.0221	0.4961	0.2374	0.578
Mof_H 	H 	0.1263	0.5192	0.2485	0.574
Mof_C 	C 	0.042	0.3724	0.1969	-1.757
Mof_H 	H 	0.0585	0.341	0.1694	0.543
Mof_H 	H 	0.9798	0.3887	0.1873	0.548
Mof_H 	H 	0.0452	0.35	0.232	0.539
Mof_C 	C 	0.3483	0.0817	0.341	0.422
Mof_C 	C 	0.3277	0.0609	0.3983	-0.197
Mof_C 	C 	0.2566	0.0147	0.4053	0.138
Mof_H 	H 	0.2233	0.995	0.3748	-0.015
Mof_C 	C 	0.2356	0.9981	0.458	-0.233
Mof_C 	C 	0.2856	0.0277	0.5036	0.137
Mof_H 	H 	0.27	0.017	0.5387	-0.032
Mof_C 	C 	0.3579	0.0729	0.498	-0.222
Mof_C 	C 	0.3779	0.0881	0.4445	0.119
Mof_H 	H 	0.4269	0.1175	0.4397	-0.005
Mof_C 	C 	0.1614	0.9477	0.4646	0.411
Mof_C 	C 	0.4121	0.1043	0.5485	0.457
Mof_C 	C 	0.9064	0.6234	0.1984	0.3
Mof_H 	H 	0.8604	0.6061	0.1728	-0.087
Mof_C 	C 	0.9904	0.6402	0.1803	-0.624
Mof_H 	H 	0.9989	0.6355	0.1432	0.224
Mof_C 	C 	0.0589	0.6628	0.2147	0.636
Mof_C 	C 	0.0404	0.6711	0.2693	-0.555
Mof_H 	H 	0.0867	0.687	0.2954	0.193
Mof_C 	C 	0.953	0.6558	0.2846	0.278
Mof_H 	H 	0.9409	0.6639	0.3208	-0.114
Mof_C 	C 	0.601	0.2352	0.1932	0.165
Mof_H 	H 	0.5692	0.2687	0.2107	-0.036
Mof_C 	C 	0.6613	0.2551	0.1555	-0.346
Mof_H 	H 	0.6688	0.3013	0.1493	0.133
Mof_C 	C 	0.7093	0.2109	0.1275	0.313
Mof_C 	C 	0.6943	0.1475	0.1406	-0.34
Mof_H 	H 	0.7263	0.1135	0.1238	0.123
Mof_C 	C 	0.6326	0.1283	0.1787	0.163
Mof_H 	H 	0.6242	0.0822	0.185	-0.046
Mof_C 	C 	0.6852	0.2729	0.9343	0.281
Mof_C 	C 	0.6257	0.2282	0.902	-0.269
Mof_H 	H 	0.6183	0.1833	0.9127	0.117
Mof_C 	C 	0.5793	0.2528	0.8546	0.164
Mof_H 	H 	0.5405	0.2235	0.8331	-0.021
Mof_C 	C 	0.6398	0.3577	0.8707	0.186
Mof_H 	H 	0.645	0.4028	0.8602	-0.048
Mof_C 	C 	0.6866	0.3375	0.9186	-0.347
Mof_H 	H 	0.7201	0.3692	0.9408	0.152
Mof_C 	C 	0.8416	0.174	0.2983	-0.932
Mof_H 	H 	0.8358	0.161	0.3362	0.406
Mof_H 	H 	0.8	0.1455	0.2746	0.226
Mof_C 	C 	0.8132	0.2479	0.2901	0.043
Mof_H 	H 	0.7488	0.253	0.2979	0.111
Mof_H 	H 	0.8169	0.2601	0.2519	0.545
Mof_C 	C 	0.8738	0.2962	0.3268	-1.045
Mof_H 	H 	0.9379	0.2919	0.3183	0.287
Mof_H 	H 	0.8713	0.2832	0.365	0.563
Mof_C 	C 	0.8435	0.3702	0.3196	0.823
Mof_C 	C 	0.7669	0.387	0.2806	-0.71
Mof_H 	H 	0.7326	0.353	0.2616	0.277
Mof_C 	C 	0.7447	0.453	0.2715	0.598
Mof_H 	H 	0.6948	0.4627	0.2455	-0.176
Mof_C 	C 	0.8604	0.4902	0.3323	0.619
Mof_H 	H 	0.8943	0.5252	0.3503	-0.233
Mof_C 	C 	0.8874	0.4227	0.3438	-0.829
Mof_H 	H 	0.9384	0.4147	0.3694	0.29
Mof_N 	N 	0.7892	0.5054	0.2972	-0.328
Mof_C 	C 	0.8599	0.1717	0.3206	-0.365
Mof_H 	H 	0.8111	0.1394	0.309	0.182
Mof_H 	H 	0.8811	0.1625	0.3589	-0.085
Mof_C 	C 	0.8212	0.2437	0.3152	1.537
Mof_H 	H 	0.7569	0.2418	0.3236	-0.553
Mof_H 	H 	0.82	0.2564	0.2767	-0.877
Mof_C 	C 	0.868	0.3024	0.3492	-0.483
Mof_H 	H 	0.9349	0.2961	0.3533	0.132
Mof_H 	H 	0.8463	0.303	0.3856	-0.112
Mof_C 	C 	0.7966	0.4101	0.3577	0.12
Mof_H 	H 	0.7831	0.3916	0.3911	-0.02
Mof_C 	C 	0.7725	0.4746	0.3445	-0.312
Mof_H 	H 	0.7423	0.4996	0.3698	0.099
Mof_C 	C 	0.8316	0.4691	0.2629	-0.298
Mof_H 	H 	0.8445	0.4884	0.2297	0.104
Mof_C 	C 	0.8589	0.4014	0.2742	0.02
Mof_H 	H 	0.8893	0.3779	0.2481	-0.024
Mof_C 	C 	0.2312	0.7202	0.4195	-0.423
Mof_H 	H 	0.1954	0.6793	0.4247	0.119
Mof_H 	H 	0.1883	0.7577	0.4119	0.138
Mof_C 	C 	0.2982	0.735	0.4714	0.012
Mof_H 	H 	0.3377	0.6958	0.4803	0.024
Mof_H 	H 	0.3379	0.7733	0.4646	-0.005
Mof_C 	C 	0.2411	0.751	0.5193	-0.253
Mof_H 	H 	0.2074	0.7112	0.5298	0.077
Mof_H 	H 	0.197	0.7874	0.5097	0.108
Mof_C 	C 	0.7757	0.2513	0.0942	-0.05
Mof_H 	H 	0.795	0.2925	0.114	-0.014
Mof_H 	H 	0.8309	0.2244	0.09	0.05
Mof_C 	C 	0.7279	0.2698	0.0372	0.207
Mof_H 	H 	0.6796	0.3013	0.0456	-0.043
Mof_H 	H 	0.7741	0.2974	0.0213	-0.05
Mof_C 	C 	0.6831	0.2313	0.9887	-0.205
Mof_H 	H 	0.619	0.2211	0.9945	0.067
Mof_H 	H 	0.7156	0.1886	0.9853	0.088
Mof_C 	C 	0.6538	0.6499	0.9212	-0.602
Mof_H 	H 	0.7034	0.6228	0.9092	0.145
Mof_H 	H 	0.6794	0.6848	0.9457	0.316
Mof_H 	H 	0.6195	0.6704	0.8897	0.187
Mof_C 	C 	0.5542	0.5478	0.9101	-0.082
Mof_H 	H 	0.5193	0.5678	0.8786	0.029
Mof_H 	H 	0.5152	0.5165	0.9275	-0.01
Mof_H 	H 	0.6071	0.5241	0.8986	0.091
Mof_C 	C 	0.5058	0.6453	0.965	-0.011
Mof_H 	H 	0.4695	0.6583	0.9315	-0.022
Mof_H 	H 	0.527	0.6852	0.985	-0.14
Mof_H 	H 	0.4681	0.6186	0.9871	0.283
Mof_C 	C 	0.3836	0.0782	0.6017	-0.338
Mof_H 	H 	0.381	0.0295	0.6005	0.032
Mof_H 	H 	0.3233	0.0959	0.6074	0.111
Mof_H 	H 	0.4282	0.0924	0.6313	0.121
Mof_C 	C 	0.5177	0.0884	0.5464	-0.692
Mof_H 	H 	0.5538	0.1137	0.5746	0.237
Mof_H 	H 	0.5361	0.1009	0.511	-0.063
Mof_H 	H 	0.5283	0.0407	0.5524	0.266
Mof_C 	C 	0.4044	0.1819	0.5465	-0.228
Mof_H 	H 	0.3407	0.1947	0.5366	-0.107
Mof_H 	H 	0.4425	0.1993	0.5196	0.207
Mof_H 	H 	0.4251	0.2004	0.582	0.074
Mof_Co	Co	0.50427	0.64072	0.22996	1.184
Mof_Co	Co	0.74831	0.60819	0.27353	1.142
Mof_O 	O 	0.5659	0.73279	0.24219	-0.459
Mof_O 	O 	0.7179	0.7082	0.25625	-0.484
Mof_O 	O 	0.4761	0.9774	0.2287	-0.355
Mof_O 	O 	0.5703	0.05027	0.27555	-0.447
Mof_O 	O 	0.8733	0.4166	0.07789	-0.33
Mof_O 	O 	0.8641	0.4363	0.9884	-0.528
Mof_H 	H 	0.8928	0.4692	0.9783	0.247
Mof_O 	O 	0.7145	0.5691	0.19678	-0.45
Mof_O 	O 	0.5758	0.6103	0.16378	-0.433
Mof_O 	O 	0.6052	0.59349	0.29126	-1.054
Mof_H 	H 	0.6131	0.6043	0.3242	0.372
Mof_H 	H 	0.5861	0.5541	0.2868	0.436
Mof_N 	N 	0.1139	0.1303	0.25	-0.33
Mof_N 	N 	0.4137	0.6714	0.2943	-0.267
Mof_N 	N 	0.4132	0.8166	0.6624	-0.253
Mof_C 	C 	0.6506	0.7486	0.2533	0.451
Mof_C 	C 	0.6726	0.8224	0.2629	-0.319
Mof_C 	C 	0.7639	0.8419	0.2786	0.348
Mof_H 	H 	0.8098	0.8087	0.2843	-0.115
Mof_C 	C 	0.7882	0.9098	0.2861	-0.607
Mof_C 	C 	0.7175	0.9573	0.2794	0.358
Mof_H 	H 	0.732	0.0029	0.2854	-0.129
Mof_C 	C 	0.6256	0.9393	0.2639	-0.309
Mof_C 	C 	0.6026	0.8714	0.2548	0.217
Mof_H 	H 	0.5415	0.8588	0.2435	-0.026
Mof_C 	C 	0.5513	0.9925	0.2556	0.424
Mof_C 	C 	0.8886	0.9338	0.2997	1.286
Mof_C 	C 	0.8975	0.9712	0.3548	-1.814
Mof_H 	H 	0.8573	0.0102	0.3523	0.553
Mof_H 	H 	0.9608	0.9855	0.3635	0.565
Mof_H 	H 	0.8799	0.9413	0.3831	0.556
Mof_C 	C 	0.9149	0.9808	0.2542	-1.809
Mof_H 	H 	0.9096	0.9567	0.2198	0.555
Mof_H 	H 	0.9779	0.9961	0.2626	0.563
Mof_H 	H 	0.8737	0.0192	0.2515	0.553
Mof_C 	C 	0.958	0.8724	0.3031	-1.714
Mof_H 	H 	0.9415	0.841	0.3306	0.531
Mof_H 	H 	0.0202	0.8887	0.3127	0.536
Mof_H 	H 	0.9548	0.85	0.268	0.529
Mof_C 	C 	0.6517	0.5817	0.159	0.418
Mof_C 	C 	0.6723	0.5609	0.1017	-0.187
Mof_C 	C 	0.7434	0.5147	0.0947	0.117
Mof_H 	H 	0.7767	0.495	0.1252	-0.005
Mof_C 	C 	0.7644	0.4981	0.042	-0.217
Mof_C 	C 	0.7144	0.5277	0.9964	0.123
Mof_H 	H 	0.73	0.517	0.9613	-0.029
Mof_C 	C 	0.6421	0.5729	0.002	-0.214
Mof_C 	C 	0.6221	0.5881	0.0555	0.111
Mof_H 	H 	0.5731	0.6175	0.0603	-0.002
Mof_C 	C 	0.8386	0.4477	0.0354	0.406
Mof_C 	C 	0.5879	0.6043	0.9515	0.452
Mof_C 	C 	0.0936	0.1234	0.3016	0.301
Mof_H 	H 	0.1396	0.1061	0.3272	-0.088
Mof_C 	C 	0.0096	0.1402	0.3197	-0.625
Mof_H 	H 	0.0011	0.1355	0.3568	0.226
Mof_C 	C 	0.9411	0.1628	0.2853	0.641
Mof_C 	C 	0.9596	0.1711	0.2307	-0.564
Mof_H 	H 	0.9133	0.187	0.2046	0.196
Mof_C 	C 	0.047	0.1558	0.2154	0.285
Mof_H 	H 	0.0591	0.1639	0.1792	-0.115
Mof_C 	C 	0.399	0.7352	0.3068	0.165
Mof_H 	H 	0.4308	0.7687	0.2893	-0.037
Mof_C 	C 	0.3387	0.7551	0.3445	-0.347
Mof_H 	H 	0.3312	0.8013	0.3507	0.133
Mof_C 	C 	0.2907	0.7109	0.3725	0.315
Mof_C 	C 	0.3057	0.6475	0.3594	-0.341
Mof_H 	H 	0.2737	0.6135	0.3762	0.124
Mof_C 	C 	0.3674	0.6283	0.3213	0.164
Mof_H 	H 	0.3758	0.5822	0.315	-0.046
Mof_C 	C 	0.3148	0.7729	0.5657	0.281
Mof_C 	C 	0.3743	0.7282	0.598	-0.269
Mof_H 	H 	0.3817	0.6833	0.5873	0.117
Mof_C 	C 	0.4207	0.7528	0.6454	0.164
Mof_H 	H 	0.4595	0.7235	0.6669	-0.021
Mof_C 	C 	0.3602	0.8577	0.6293	0.186
Mof_H 	H 	0.355	0.9028	0.6398	-0.049
Mof_C 	C 	0.3134	0.8375	0.5814	-0.347
Mof_H 	H 	0.2799	0.8692	0.5592	0.152
Mof_C 	C 	0.8416	0.326	0.7983	-0.918
Mof_H 	H 	0.8358	0.339	0.8362	0.4
Mof_H 	H 	0.8	0.3545	0.7746	0.222
Mof_C 	C 	0.8132	0.2521	0.7901	0.043
Mof_H 	H 	0.7488	0.247	0.7979	0.106
Mof_H 	H 	0.8169	0.2399	0.7519	0.532
Mof_C 	C 	0.8738	0.2038	0.8268	-1.025
Mof_H 	H 	0.9379	0.2081	0.8183	0.283
Mof_H 	H 	0.8713	0.2168	0.865	0.552
Mof_C 	C 	0.8435	0.1298	0.8196	0.802
Mof_C 	C 	0.7669	0.113	0.7806	-0.951
Mof_H 	H 	0.7326	0.147	0.7616	0.363
Mof_C 	C 	0.7447	0.047	0.7715	0.864
Mof_H 	H 	0.6948	0.0373	0.7455	-0.27
Mof_C 	C 	0.8604	0.0098	0.8323	0.848
Mof_H 	H 	0.8943	0.9748	0.8503	-0.311
Mof_C 	C 	0.8874	0.0773	0.8438	-1.045
Mof_H 	H 	0.9384	0.0853	0.8694	0.365
Mof_N 	N 	0.7892	0.9946	0.7972	-0.32
Mof_C 	C 	0.8599	0.3283	0.8206	-0.359
Mof_H 	H 	0.8111	0.3606	0.809	0.179
Mof_H 	H 	0.8811	0.3375	0.8589	-0.083
Mof_C 	C 	0.8212	0.2563	0.8152	1.504
Mof_H 	H 	0.7569	0.2582	0.8236	-0.539
Mof_H 	H 	0.82	0.2436	0.7767	-0.857
Mof_C 	C 	0.868	0.1976	0.8492	-0.472
Mof_H 	H 	0.9349	0.2039	0.8533	0.128
Mof_H 	H 	0.8463	0.197	0.8856	-0.109
Mof_C 	C 	0.7966	0.0899	0.8577	0.351
Mof_H 	H 	0.7831	0.1084	0.8911	-0.102
Mof_C 	C 	0.7725	0.0254	0.8445	-0.56
Mof_H 	H 	0.7423	0.0004	0.8698	0.185
Mof_C 	C 	0.8316	0.0309	0.7629	-0.571
Mof_H 	H 	0.8445	0.0116	0.7297	0.199
Mof_C 	C 	0.8589	0.0986	0.7742	0.278
Mof_H 	H 	0.8893	0.1221	0.7481	-0.114
Mof_C 	C 	0.2312	0.7798	0.9195	-0.421
Mof_H 	H 	0.1954	0.8207	0.9247	0.118
Mof_H 	H 	0.1883	0.7423	0.9119	0.138
Mof_C 	C 	0.2982	0.765	0.9714	0.012
Mof_H 	H 	0.3377	0.8042	0.9803	0.023
Mof_H 	H 	0.3379	0.7267	0.9646	-0.006
Mof_C 	C 	0.2411	0.749	0.0193	-0.256
Mof_H 	H 	0.2074	0.7888	0.0298	0.079
Mof_H 	H 	0.197	0.7126	0.0097	0.109
Mof_C 	C 	0.7757	0.2487	0.5942	-0.05
Mof_H 	H 	0.795	0.2075	0.614	-0.013
Mof_H 	H 	0.8309	0.2756	0.59	0.051
Mof_C 	C 	0.7279	0.2302	0.5372	0.209
Mof_H 	H 	0.6796	0.1987	0.5456	-0.044
Mof_H 	H 	0.7741	0.2026	0.5213	-0.05
Mof_C 	C 	0.6831	0.2687	0.4887	-0.208
Mof_H 	H 	0.619	0.2789	0.4945	0.068
Mof_H 	H 	0.7156	0.3114	0.4853	0.088
Mof_C 	C 	0.6538	0.8501	0.4212	-0.604
Mof_H 	H 	0.7034	0.8772	0.4092	0.146
Mof_H 	H 	0.6794	0.8152	0.4457	0.318
Mof_H 	H 	0.6195	0.8296	0.3897	0.188
Mof_C 	C 	0.5542	0.9522	0.4101	-0.081
Mof_H 	H 	0.5193	0.9322	0.3786	0.029
Mof_H 	H 	0.5152	0.9835	0.4275	-0.01
Mof_H 	H 	0.6071	0.9759	0.3986	0.092
Mof_C 	C 	0.5058	0.8547	0.465	-0.011
Mof_H 	H 	0.4695	0.8417	0.4315	-0.022
Mof_H 	H 	0.527	0.8148	0.485	-0.141
Mof_H 	H 	0.4681	0.8814	0.4871	0.284
Mof_C 	C 	0.3836	0.4218	0.1017	-0.335
Mof_H 	H 	0.381	0.4705	0.1005	0.032
Mof_H 	H 	0.3233	0.4041	0.1074	0.11
Mof_H 	H 	0.4282	0.4076	0.1313	0.119
Mof_C 	C 	0.5177	0.4116	0.0464	-0.689
Mof_H 	H 	0.5538	0.3863	0.0746	0.236
Mof_H 	H 	0.5361	0.3991	0.011	-0.063
Mof_H 	H 	0.5283	0.4593	0.0524	0.265
Mof_C 	C 	0.4044	0.3181	0.0465	-0.227
Mof_H 	H 	0.3407	0.3053	0.0366	-0.106
Mof_H 	H 	0.4425	0.3007	0.0196	0.206
Mof_H 	H 	0.4251	0.2996	0.082	0.074
Mof_Co	Co	0.50427	0.85928	0.72996	1.184
Mof_Co	Co	0.74831	0.89181	0.77353	1.142
Mof_O 	O 	0.5659	0.76721	0.74219	-0.46
Mof_O 	O 	0.7179	0.7918	0.75625	-0.484
Mof_O 	O 	0.4761	0.5226	0.7287	-0.356
Mof_O 	O 	0.5703	0.44973	0.77555	-0.446
Mof_O 	O 	0.8733	0.0834	0.57789	-0.331
Mof_O 	O 	0.8641	0.0637	0.4884	-0.53
Mof_H 	H 	0.8928	0.0308	0.4783	0.246
Mof_O 	O 	0.7145	0.9309	0.69678	-0.45
Mof_O 	O 	0.5758	0.8897	0.66378	-0.434
Mof_O 	O 	0.6052	0.90651	0.79126	-1.053
Mof_H 	H 	0.6131	0.8957	0.8242	0.371
Mof_H 	H 	0.5861	0.9459	0.7868	0.436
Mof_N 	N 	0.1139	0.3697	0.75	-0.329
Mof_N 	N 	0.4137	0.8286	0.7943	-0.267
Mof_N 	N 	0.4132	0.6834	0.1624	-0.253
Mof_C 	C 	0.6506	0.7514	0.7533	0.453
Mof_C 	C 	0.6726	0.6776	0.7629	-0.322
Mof_C 	C 	0.7639	0.6581	0.7786	0.357
Mof_H 	H 	0.8098	0.6913	0.7843	-0.119
Mof_C 	C 	0.7882	0.5902	0.7861	-0.621
Mof_C 	C 	0.7175	0.5427	0.7794	0.359
Mof_H 	H 	0.732	0.4971	0.7854	-0.128
Mof_C 	C 	0.6256	0.5607	0.7639	-0.311
Mof_C 	C 	0.6026	0.6286	0.7548	0.22
Mof_H 	H 	0.5415	0.6412	0.7435	-0.027
Mof_C 	C 	0.5513	0.5075	0.7556	0.423
Mof_C 	C 	0.8886	0.5662	0.7997	1.322
Mof_C 	C 	0.8975	0.5288	0.8548	-1.869
Mof_H 	H 	0.8573	0.4898	0.8523	0.573
Mof_H 	H 	0.9608	0.5145	0.8635	0.58
Mof_H 	H 	0.8799	0.5587	0.8831	0.571
Mof_C 	C 	0.9149	0.5192	0.7542	-1.867
Mof_H 	H 	0.9096	0.5433	0.7198	0.57
Mof_H 	H 	0.9779	0.5039	0.7626	0.578
Mof_H 	H 	0.8737	0.4808	0.7515	0.574
Mof_C 	C 	0.958	0.6276	0.8031	-1.757
Mof_H 	H 	0.9415	0.659	0.8306	0.543
Mof_H 	H 	0.0202	0.6113	0.8127	0.548
Mof_H 	H 	0.9548	0.65	0.768	0.539
Mof_C 	C 	0.6517	0.9183	0.659	0.422
Mof_C 	C 	0.6723	0.9391	0.6017	-0.197
Mof_C 	C 	0.7434	0.9853	0.5947	0.138
Mof_H 	H 	0.7767	0.005	0.6252	-0.015
Mof_C 	C 	0.7644	0.0019	0.542	-0.233
Mof_C 	C 	0.7144	0.9723	0.4964	0.137
Mof_H 	H 	0.73	0.983	0.4613	-0.032
Mof_C 	C 	0.6421	0.9271	0.502	-0.222
Mof_C 	C 	0.6221	0.9119	0.5555	0.119
Mof_H 	H 	0.5731	0.8825	0.5603	-0.005
Mof_C 	C 	0.8386	0.0523	0.5354	0.411
Mof_C 	C 	0.5879	0.8957	0.4515	0.457
Mof_C 	C 	0.0936	0.3766	0.8016	0.3
Mof_H 	H 	0.1396	0.3939	0.8272	-0.087
Mof_C 	C 	0.0096	0.3598	0.8197	-0.624
Mof_H 	H 	0.0011	0.3645	0.8568	0.224
Mof_C 	C 	0.9411	0.3372	0.7853	0.636
Mof_C 	C 	0.9596	0.3289	0.7307	-0.555
Mof_H 	H 	0.9133	0.313	0.7046	0.193
Mof_C 	C 	0.047	0.3442	0.7154	0.278
Mof_H 	H 	0.0591	0.3361	0.6792	-0.114
Mof_C 	C 	0.399	0.7648	0.8068	0.165
Mof_H 	H 	0.4308	0.7313	0.7893	-0.036
Mof_C 	C 	0.3387	0.7449	0.8445	-0.346
Mof_H 	H 	0.3312	0.6987	0.8507	0.133
Mof_C 	C 	0.2907	0.7891	0.8725	0.313
Mof_C 	C 	0.3057	0.8525	0.8594	-0.34
Mof_H 	H 	0.2737	0.8865	0.8762	0.123
Mof_C 	C 	0.3674	0.8717	0.8213	0.163
Mof_H 	H 	0.3758	0.9178	0.815	-0.046
Mof_C 	C 	0.3148	0.7271	0.0657	0.281
Mof_C 	C 	0.3743	0.7718	0.098	-0.269
Mof_H 	H 	0.3817	0.8167	0.0873	0.117
Mof_C 	C 	0.4207	0.7472	0.1454	0.164
Mof_H 	H 	0.4595	0.7765	0.1669	-0.021
Mof_C 	C 	0.3602	0.6423	0.1293	0.186
Mof_H 	H 	0.355	0.5972	0.1398	-0.048
Mof_C 	C 	0.3134	0.6625	0.0814	-0.347
Mof_H 	H 	0.2799	0.6308	0.0592	0.152
Mof_C 	C 	0.1584	0.826	0.7017	-0.932
Mof_H 	H 	0.1642	0.839	0.6638	0.406
Mof_H 	H 	0.2	0.8545	0.7254	0.226
Mof_C 	C 	0.1868	0.7521	0.7099	0.043
Mof_H 	H 	0.2512	0.747	0.7021	0.111
Mof_H 	H 	0.1831	0.7399	0.7481	0.545
Mof_C 	C 	0.1262	0.7038	0.6732	-1.045
Mof_H 	H 	0.0621	0.7081	0.6817	0.287
Mof_H 	H 	0.1287	0.7168	0.635	0.563
Mof_C 	C 	0.1565	0.6298	0.6804	0.823
Mof_C 	C 	0.2331	0.613	0.7194	-0.71
Mof_H 	H 	0.2674	0.647	0.7384	0.277
Mof_C 	C 	0.2553	0.547	0.7285	0.598
Mof_H 	H 	0.3052	0.5373	0.7545	-0.176
Mof_C 	C 	0.1396	0.5098	0.6677	0.619
Mof_H 	H 	0.1057	0.4748	0.6497	-0.233
Mof_C 	C 	0.1126	0.5773	0.6562	-0.829
Mof_H 	H 	0.0616	0.5853	0.6306	0.29
Mof_N 	N 	0.2108	0.4946	0.7028	-0.328
Mof_C 	C 	0.1401	0.8283	0.6794	-0.365
Mof_H 	H 	0.1889	0.8606	0.691	0.182
Mof_H 	H 	0.1189	0.8375	0.6411	-0.085
Mof_C 	C 	0.1788	0.7563	0.6848	1.537
Mof_H 	H 	0.2431	0.7582	0.6764	-0.553
Mof_H 	H 	0.18	0.7436	0.7233	-0.877
Mof_C 	C 	0.132	0.6976	0.6508	-0.483
Mof_H 	H 	0.0651	0.7039	0.6467	0.132
Mof_H 	H 	0.1537	0.697	0.6144	-0.112
Mof_C 	C 	0.2034	0.5899	0.6423	0.12
Mof_H 	H 	0.2169	0.6084	0.6089	-0.02
Mof_C 	C 	0.2275	0.5254	0.6555	-0.312
Mof_H 	H 	0.2577	0.5004	0.6302	0.099
Mof_C 	C 	0.1684	0.5309	0.7371	-0.298
Mof_H 	H 	0.1555	0.5116	0.7703	0.104
Mof_C 	C 	0.1411	0.5986	0.7258	0.02
Mof_H 	H 	0.1107	0.6221	0.7519	-0.024
Mof_C 	C 	0.7688	0.2798	0.5805	-0.423
Mof_H 	H 	0.8046	0.3207	0.5753	0.119
Mof_H 	H 	0.8117	0.2423	0.5881	0.138
Mof_C 	C 	0.7018	0.265	0.5286	0.012
Mof_H 	H 	0.6623	0.3042	0.5197	0.024
Mof_H 	H 	0.6621	0.2267	0.5354	-0.005
Mof_C 	C 	0.7589	0.249	0.4807	-0.253
Mof_H 	H 	0.7926	0.2888	0.4702	0.077
Mof_H 	H 	0.803	0.2126	0.4903	0.108
Mof_C 	C 	0.2243	0.7487	0.9058	-0.05
Mof_H 	H 	0.205	0.7075	0.886	-0.014
Mof_H 	H 	0.1691	0.7756	0.91	0.05
Mof_C 	C 	0.2721	0.7302	0.9628	0.207
Mof_H 	H 	0.3204	0.6987	0.9544	-0.043
Mof_H 	H 	0.2259	0.7026	0.9787	-0.05
Mof_C 	C 	0.3169	0.7687	0.0113	-0.205
Mof_H 	H 	0.381	0.7789	0.0055	0.067
Mof_H 	H 	0.2844	0.8114	0.0147	0.088
Mof_C 	C 	0.3462	0.3501	0.0788	-0.602
Mof_H 	H 	0.2966	0.3772	0.0908	0.145
Mof_H 	H 	0.3206	0.3152	0.0543	0.316
Mof_H 	H 	0.3805	0.3296	0.1103	0.187
Mof_C 	C 	0.4458	0.4522	0.0899	-0.082
Mof_H 	H 	0.4807	0.4322	0.1214	0.029
Mof_H 	H 	0.4848	0.4835	0.0725	-0.01
Mof_H 	H 	0.3929	0.4759	0.1014	0.091
Mof_C 	C 	0.4942	0.3547	0.035	-0.011
Mof_H 	H 	0.5305	0.3417	0.0685	-0.022
Mof_H 	H 	0.473	0.3148	0.015	-0.14
Mof_H 	H 	0.5319	0.3814	0.0129	0.283
Mof_C 	C 	0.6164	0.9218	0.3983	-0.338
Mof_H 	H 	0.619	0.9705	0.3995	0.032
Mof_H 	H 	0.6767	0.9041	0.3926	0.111
Mof_H 	H 	0.5718	0.9076	0.3687	0.121
Mof_C 	C 	0.4823	0.9116	0.4536	-0.692
Mof_H 	H 	0.4462	0.8863	0.4254	0.237
Mof_H 	H 	0.4639	0.8991	0.489	-0.063
Mof_H 	H 	0.4717	0.9593	0.4476	0.266
Mof_C 	C 	0.5956	0.8181	0.4535	-0.228
Mof_H 	H 	0.6593	0.8053	0.4634	-0.107
Mof_H 	H 	0.5575	0.8007	0.4804	0.207
Mof_H 	H 	0.5749	0.7996	0.418	0.074
Mof_Co	Co	0.49573	0.35928	0.77004	1.184
Mof_Co	Co	0.25169	0.39181	0.72647	1.142
Mof_O 	O 	0.4341	0.26721	0.75781	-0.459
Mof_O 	O 	0.2821	0.2918	0.74375	-0.484
Mof_O 	O 	0.5239	0.0226	0.7713	-0.355
Mof_O 	O 	0.4297	0.94973	0.72445	-0.447
Mof_O 	O 	0.1267	0.5834	0.92211	-0.33
Mof_O 	O 	0.1359	0.5637	0.0116	-0.528
Mof_H 	H 	0.1072	0.5308	0.0217	0.247
Mof_O 	O 	0.2855	0.4309	0.80322	-0.45
Mof_O 	O 	0.4242	0.3897	0.83622	-0.433
Mof_O 	O 	0.3948	0.40651	0.70874	-1.054
Mof_H 	H 	0.3869	0.3957	0.6758	0.372
Mof_H 	H 	0.4139	0.4459	0.7132	0.436
Mof_N 	N 	0.8861	0.8697	0.75	-0.33
Mof_N 	N 	0.5863	0.3286	0.7057	-0.267
Mof_N 	N 	0.5868	0.1834	0.3376	-0.253
Mof_C 	C 	0.3494	0.2514	0.7467	0.451
Mof_C 	C 	0.3274	0.1776	0.7371	-0.319
Mof_C 	C 	0.2361	0.1581	0.7214	0.348
Mof_H 	H 	0.1902	0.1913	0.7157	-0.115
Mof_C 	C 	0.2118	0.0902	0.7139	-0.607
Mof_C 	C 	0.2825	0.0427	0.7206	0.358
Mof_H 	H 	0.268	0.9971	0.7146	-0.129
Mof_C 	C 	0.3744	0.0607	0.7361	-0.309
Mof_C 	C 	0.3974	0.1286	0.7452	0.217
Mof_H 	H 	0.4585	0.1412	0.7565	-0.026
Mof_C 	C 	0.4487	0.0075	0.7444	0.424
Mof_C 	C 	0.1114	0.0662	0.7003	1.286
Mof_C 	C 	0.1025	0.0288	0.6452	-1.814
Mof_H 	H 	0.1427	0.9898	0.6477	0.553
Mof_H 	H 	0.0392	0.0145	0.6365	0.565
Mof_H 	H 	0.1201	0.0587	0.6169	0.556
Mof_C 	C 	0.0851	0.0192	0.7458	-1.809
Mof_H 	H 	0.0904	0.0433	0.7802	0.555
Mof_H 	H 	0.0221	0.0039	0.7374	0.563
Mof_H 	H 	0.1263	0.9808	0.7485	0.553
Mof_C 	C 	0.042	0.1276	0.6969	-1.714
Mof_H 	H 	0.0585	0.159	0.6694	0.531
Mof_H 	H 	0.9798	0.1113	0.6873	0.536
Mof_H 	H 	0.0452	0.15	0.732	0.529
Mof_C 	C 	0.3483	0.4183	0.841	0.418
Mof_C 	C 	0.3277	0.4391	0.8983	-0.187
Mof_C 	C 	0.2566	0.4853	0.9053	0.117
Mof_H 	H 	0.2233	0.505	0.8748	-0.005
Mof_C 	C 	0.2356	0.5019	0.958	-0.217
Mof_C 	C 	0.2856	0.4723	0.0036	0.123
Mof_H 	H 	0.27	0.483	0.0387	-0.029
Mof_C 	C 	0.3579	0.4271	0.998	-0.214
Mof_C 	C 	0.3779	0.4119	0.9445	0.111
Mof_H 	H 	0.4269	0.3825	0.9397	-0.002
Mof_C 	C 	0.1614	0.5523	0.9646	0.406
Mof_C 	C 	0.4121	0.3957	0.0485	0.452
Mof_C 	C 	0.9064	0.8766	0.6984	0.301
Mof_H 	H 	0.8604	0.8939	0.6728	-0.088
Mof_C 	C 	0.9904	0.8598	0.6803	-0.625
Mof_H 	H 	0.9989	0.8645	0.6432	0.226
Mof_C 	C 	0.0589	0.8372	0.7147	0.641
Mof_C 	C 	0.0404	0.8289	0.7693	-0.564
Mof_H 	H 	0.0867	0.813	0.7954	0.196
Mof_C 	C 	0.953	0.8442	0.7846	0.285
Mof_H 	H 	0.9409	0.8361	0.8208	-0.115
Mof_C 	C 	0.601	0.2648	0.6932	0.165
Mof_H 	H 	0.5692	0.2313	0.7107	-0.037
Mof_C 	C 	0.6613	0.2449	0.6555	-0.347
Mof_H 	H 	0.6688	0.1987	0.6493	0.133
Mof_C 	C 	0.7093	0.2891	0.6275	0.315
Mof_C 	C 	0.6943	0.3525	0.6406	-0.341
Mof_H 	H 	0.7263	0.3865	0.6238	0.124
Mof_C 	C 	0.6326	0.3717	0.6787	0.164
Mof_H 	H 	0.6242	0.4178	0.685	-0.046
Mof_C 	C 	0.6852	0.2271	0.4343	0.281
Mof_C 	C 	0.6257	0.2718	0.402	-0.269
Mof_H 	H 	0.6183	0.3167	0.4127	0.117
Mof_C 	C 	0.5793	0.2472	0.3546	0.164
Mof_H 	H 	0.5405	0.2765	0.3331	-0.021
Mof_C 	C 	0.6398	0.1423	0.3707	0.186
Mof_H 	H 	0.645	0.0972	0.3602	-0.049
Mof_C 	C 	0.6866	0.1625	0.4186	-0.347
Mof_H 	H 	0.7201	0.1308	0.4408	0.152
_end
