data_functionalizedCrystal
_audit_creation_method	'EQeq! by Chris Wilmer'
_symmetry_space_group_name_H-M	'P1'
_symmetry_Int_Tables_number	1
_symmetry_cell_setting	triclinic
loop_
_symmetry_equiv_pos_as_xyz
  x,y,z
_cell_length_a	12.1945
_cell_length_b	12.1945
_cell_length_c	12.169
_cell_angle_alpha	119.482
_cell_angle_beta	119.482
_cell_angle_gamma	52.6782
loop_
_atom_site_label
_atom_site_type_symbol
_atom_site_fract_x
_atom_site_fract_y
_atom_site_fract_z
_atom_site_charge
Mof_H 	H 	0.496	0.286	0.081	-0.244
Mof_H 	H 	0.525	0.013	0.75	-0.012
Mof_H 	H 	0.553	0.191	0.76	0.009
Mof_H 	H 	0.604	0.728	0.756	-0.04
Mof_H 	H 	0.209	0.997	0.772	0.044
Mof_H 	H 	0.205	0.791	0.567	-0.019
Mof_H 	H 	0.248	0.306	0.946	-0.074
Mof_H 	H 	0.221	0.075	0.051	-0.106
Mof_H 	H 	0.986	0.306	0.039	0.176
Mof_H 	H 	0.235	0.749	0.136	-0.029
Mof_C 	C 	0.50466	0.24526	0.9998	0.417
Mof_C 	C 	0.52858	0.19538	0.815	0.01
Mof_C 	C 	0.52441	0.08561	0.8146	0.013
Mof_C 	C 	0.50115	0.76875	0.7295	0.137
Mof_C 	C 	0.28351	0.80591	0.6316	0.031
Mof_C 	C 	0.2841	0.9171	0.7426	0
Mof_C 	C 	0.21312	0.28112	0.9764	0.256
Mof_C 	C 	0.06818	0.27678	0.0244	-0.373
Mof_C 	C 	0.19504	0.15304	0.0331	0.159
Mof_C 	C 	0.30621	0.68621	0.1908	0.007
Mof_N 	N 	0.50998	0.11678	0.9322	-0.336
Mof_N 	N 	0.51427	0.29927	0.9343	-0.334
Mof_N 	N 	0.42396	0.89276	0.8066	-0.251
Mof_N 	N 	0.42265	0.70965	0.6229	-0.352
Mof_N 	N 	0.28852	0.15532	0.0029	-0.408
Mof_N 	N 	0.0803	0.3579	0.9882	-0.069
Mof_N 	N 	0.42529	0.56429	0.1528	-0.348
Mof_H 	H 	0.46472	0.00699	0.46903	0.047
Mof_H 	H 	0.714	0.504	0.419	-0.09
Mof_H 	H 	0.987	0.475	0.75	0.027
Mof_H 	H 	0.809	0.447	0.74	0.026
Mof_H 	H 	0.272	0.396	0.744	-0.057
Mof_H 	H 	0.003	0.791	0.728	-0.014
Mof_H 	H 	0.209	0.795	0.933	0.044
Mof_H 	H 	0.694	0.752	0.554	-0.036
Mof_H 	H 	0.925	0.779	0.449	0.059
Mof_H 	H 	0.694	0.014	0.461	-0.075
Mof_H 	H 	0.251	0.765	0.364	-0.012
Mof_C 	C 	0.75474	0.49534	0.5002	0.179
Mof_C 	C 	0.80462	0.47142	0.685	0.014
Mof_C 	C 	0.91439	0.47559	0.6854	0.044
Mof_C 	C 	0.23125	0.49885	0.7705	0.139
Mof_C 	C 	0.19409	0.71649	0.8684	0.013
Mof_C 	C 	0.0829	0.7159	0.7574	0.015
Mof_C 	C 	0.71888	0.78688	0.5236	0.135
Mof_C 	C 	0.72322	0.93182	0.4756	0.156
Mof_C 	C 	0.84696	0.80496	0.4669	-0.044
Mof_C 	C 	0.31379	0.69379	0.3092	0.017
Mof_N 	N 	0.88322	0.49002	0.5678	-0.329
Mof_N 	N 	0.70073	0.48573	0.5657	-0.357
Mof_N 	N 	0.10724	0.57604	0.6934	-0.338
Mof_N 	N 	0.29035	0.57735	0.8771	-0.288
Mof_N 	N 	0.84468	0.71148	0.4971	-0.294
Mof_N 	N 	0.6421	0.9197	0.5118	-0.145
Mof_N 	N 	0.43571	0.57471	0.3472	-0.365
Mof_H 	H 	0.99301	0.53528	0.03097	0.087
Mof_H 	H 	0.504	0.714	0.919	0.088
Mof_H 	H 	0.475	0.987	0.25	0.024
Mof_H 	H 	0.447	0.809	0.24	0.012
Mof_H 	H 	0.396	0.272	0.244	-0.069
Mof_H 	H 	0.791	0.003	0.228	-0.022
Mof_H 	H 	0.795	0.209	0.433	-0.004
Mof_H 	H 	0.752	0.694	0.054	-0.004
Mof_H 	H 	0.779	0.925	0.949	0.107
Mof_H 	H 	0.014	0.694	0.961	-0.12
Mof_H 	H 	0.765	0.251	0.864	0.032
Mof_C 	C 	0.49534	0.75474	0.0002	-0.082
Mof_C 	C 	0.47142	0.80462	0.185	0.008
Mof_C 	C 	0.47559	0.91439	0.1854	0.033
Mof_C 	C 	0.49885	0.23125	0.2705	0.137
Mof_C 	C 	0.71649	0.19409	0.3684	0.018
Mof_C 	C 	0.7159	0.0829	0.2574	-0.008
Mof_C 	C 	0.78688	0.71888	0.0236	-0.004
Mof_C 	C 	0.93182	0.72322	0.9756	0.337
Mof_C 	C 	0.80496	0.84696	0.9669	-0.111
Mof_C 	C 	0.69379	0.31379	0.8092	0.019
Mof_N 	N 	0.49002	0.88322	0.0678	-0.27
Mof_N 	N 	0.48573	0.70073	0.0657	-0.3
Mof_N 	N 	0.57604	0.10724	0.1934	-0.317
Mof_N 	N 	0.57735	0.29035	0.3771	-0.352
Mof_N 	N 	0.71148	0.84468	0.9971	-0.168
Mof_N 	N 	0.9197	0.6421	0.0118	-0.24
Mof_N 	N 	0.57471	0.43571	0.8472	-0.301
Mof_H 	H 	0.286	0.496	0.581	-0.09
Mof_H 	H 	0.013	0.525	0.25	-0.033
Mof_H 	H 	0.191	0.553	0.26	-0.022
Mof_H 	H 	0.728	0.604	0.256	-0.051
Mof_H 	H 	0.997	0.209	0.272	0.019
Mof_H 	H 	0.791	0.205	0.067	-0.049
Mof_H 	H 	0.306	0.248	0.446	-0.055
Mof_H 	H 	0.075	0.221	0.551	-0.073
Mof_H 	H 	0.306	0.986	0.539	0.132
Mof_H 	H 	0.749	0.235	0.636	-0.006
Mof_C 	C 	0.24526	0.50466	0.4998	0.171
Mof_C 	C 	0.19538	0.52858	0.315	0.015
Mof_C 	C 	0.08561	0.52441	0.3146	0.011
Mof_C 	C 	0.76875	0.50115	0.2295	0.137
Mof_C 	C 	0.80591	0.28351	0.1316	0.016
Mof_C 	C 	0.9171	0.2841	0.2426	-0.003
Mof_C 	C 	0.28112	0.21312	0.4764	0.121
Mof_C 	C 	0.27678	0.06818	0.5244	-0.196
Mof_C 	C 	0.15304	0.19504	0.5331	0.109
Mof_C 	C 	0.68621	0.30621	0.6908	0.033
Mof_N 	N 	0.11678	0.50998	0.4322	-0.361
Mof_N 	N 	0.29927	0.51427	0.4343	-0.362
Mof_N 	N 	0.89276	0.42396	0.3066	-0.301
Mof_N 	N 	0.70965	0.42265	0.1229	-0.337
Mof_N 	N 	0.15532	0.28852	0.5029	-0.354
Mof_N 	N 	0.3579	0.0803	0.4882	-0.144
Mof_N 	N 	0.56429	0.42529	0.6528	-0.366
Mof_Ga	Ga	0.5	0	-0	1.403
Mof_Ga	Ga	2.36325e-17	0.5	0.5	1.697
Mof_Ga	Ga	0.5	0.5	-0	1.593
Mof_Ga	Ga	0.5	0.5	0.5	1.91
Mof_H 	H 	0.581	0.419	0.25	-0.085
Mof_C 	C 	0.4977	0.5023	0.25	0.165
Mof_H 	H 	0.419	0.581	0.75	-0.076
Mof_C 	C 	0.5023	0.4977	0.75	0.167
_end
