data_functionalizedCrystal
_audit_creation_method	'EQeq! by Chris Wilmer'
_symmetry_space_group_name_H-M	'P1'
_symmetry_Int_Tables_number	1
_symmetry_cell_setting	triclinic
loop_
_symmetry_equiv_pos_as_xyz
  x,y,z
_cell_length_a	12.4868
_cell_length_b	13.0255
_cell_length_c	23.7555
_cell_angle_alpha	90
_cell_angle_beta	90
_cell_angle_gamma	90
loop_
_atom_site_label
_atom_site_type_symbol
_atom_site_fract_x
_atom_site_fract_y
_atom_site_fract_z
_atom_site_charge
Mof_O 	O 	0.7778	0.14939	0.32341	-0.565
Mof_O 	O 	0.6577	0.0703	0.37567	-0.375
Mof_O 	O 	0.33891	0.66292	0.70685	-0.495
Mof_O 	O 	0.3703	0.50861	0.74518	-0.5
Mof_C 	C 	0.739	0.3864	0.4905	-0.266
Mof_C 	C 	0.6628	0.3087	0.49549	0.08
Mof_H 	H 	0.6135	0.3101	0.526	-0.013
Mof_C 	C 	0.6579	0.2296	0.4566	-0.087
Mof_H 	H 	0.6059	0.1769	0.4608	0.063
Mof_C 	C 	0.7291	0.2268	0.41129	-0.04
Mof_C 	C 	0.807	0.302	0.40609	-0.074
Mof_H 	H 	0.8566	0.3	0.3758	0.039
Mof_C 	C 	0.8117	0.3803	0.44568	0.068
Mof_H 	H 	0.8658	0.4312	0.4423	-0.005
Mof_C 	C 	0.7191	0.1444	0.36812	0.311
Mof_C 	C 	0.6324	0.5188	0.58606	-0.261
Mof_C 	C 	0.5999	0.4431	0.62422	0.066
Mof_H 	H 	0.633	0.3775	0.623	-0.011
Mof_C 	C 	0.5207	0.4617	0.66366	-0.064
Mof_H 	H 	0.4999	0.4089	0.6891	0.041
Mof_C 	C 	0.4713	0.5571	0.66618	-0.059
Mof_C 	C 	0.5015	0.6327	0.6285	-0.065
Mof_H 	H 	0.4677	0.698	0.6297	0.07
Mof_C 	C 	0.5808	0.6137	0.58886	0.067
Mof_H 	H 	0.6003	0.6663	0.5631	0.004
Mof_C 	C 	0.3862	0.5779	0.70955	0.395
Mof_O 	O 	0.7222	0.85061	0.32341	-0.519
Mof_O 	O 	0.8423	0.9297	0.37567	-0.307
Mof_O 	O 	0.16109	0.33708	0.70685	-0.495
Mof_O 	O 	0.1297	0.49139	0.74518	-0.496
Mof_C 	C 	0.761	0.6136	0.4905	-0.271
Mof_C 	C 	0.8372	0.6913	0.49549	0.096
Mof_H 	H 	0.8865	0.6899	0.526	-0.009
Mof_C 	C 	0.8421	0.7704	0.4566	-0.097
Mof_H 	H 	0.8941	0.8231	0.4608	0.089
Mof_C 	C 	0.7709	0.7732	0.41129	-0.012
Mof_C 	C 	0.693	0.698	0.40609	-0.084
Mof_H 	H 	0.6434	0.7	0.3758	0.051
Mof_C 	C 	0.6883	0.6197	0.44568	0.079
Mof_H 	H 	0.6342	0.5688	0.4423	-0.006
Mof_C 	C 	0.7809	0.8556	0.36812	0.301
Mof_C 	C 	0.8676	0.4812	0.58606	-0.273
Mof_C 	C 	0.9001	0.5569	0.62422	0.082
Mof_H 	H 	0.867	0.6225	0.623	-0.008
Mof_C 	C 	0.9793	0.5383	0.66366	-0.092
Mof_H 	H 	0.0001	0.5911	0.6891	0.057
Mof_C 	C 	0.0287	0.4429	0.66618	-0.034
Mof_C 	C 	0.9985	0.3673	0.6285	-0.097
Mof_H 	H 	0.0323	0.302	0.6297	0.078
Mof_C 	C 	0.9192	0.3863	0.58886	0.083
Mof_H 	H 	0.8997	0.3337	0.5631	-0.011
Mof_C 	C 	0.1138	0.4221	0.70955	0.386
Mof_O 	O 	0.7222	0.64939	0.17659	-0.549
Mof_O 	O 	0.8423	0.5703	0.12433	-0.349
Mof_O 	O 	0.16109	0.16292	0.79315	-0.511
Mof_O 	O 	0.1297	0.00861	0.75482	-0.547
Mof_C 	C 	0.761	0.8864	0.0095	-0.1
Mof_C 	C 	0.8372	0.8087	0.00451	-0.007
Mof_H 	H 	0.8865	0.8101	0.974	0.032
Mof_C 	C 	0.8421	0.7296	0.0434	-0.024
Mof_H 	H 	0.8941	0.6769	0.0392	0.054
Mof_C 	C 	0.7709	0.7268	0.08871	-0.073
Mof_C 	C 	0.693	0.802	0.09391	-0.008
Mof_H 	H 	0.6434	0.8	0.1242	0.027
Mof_C 	C 	0.6883	0.8803	0.05432	-0.019
Mof_H 	H 	0.6342	0.9312	0.0577	0.055
Mof_C 	C 	0.7809	0.6444	0.13188	0.324
Mof_C 	C 	0.8676	0.0188	0.91394	-0.262
Mof_C 	C 	0.9001	0.9431	0.87578	0.098
Mof_H 	H 	0.867	0.8775	0.877	-0.002
Mof_C 	C 	0.9793	0.9617	0.83634	0.045
Mof_H 	H 	0.0001	0.9089	0.8109	0.03
Mof_C 	C 	0.0287	0.0571	0.83382	-0.166
Mof_C 	C 	0.9985	0.1327	0.8715	-0.037
Mof_H 	H 	0.0323	0.198	0.8703	0.059
Mof_C 	C 	0.9192	0.1137	0.91114	0.026
Mof_H 	H 	0.8997	0.1663	0.9369	0.014
Mof_C 	C 	0.1138	0.0779	0.79045	0.421
Mof_O 	O 	0.7778	0.35061	0.17659	-0.551
Mof_O 	O 	0.6577	0.4297	0.12433	-0.346
Mof_O 	O 	0.33891	0.83708	0.79315	-0.484
Mof_O 	O 	0.3703	0.99139	0.75482	-0.444
Mof_C 	C 	0.739	0.1136	0.0095	-0.186
Mof_C 	C 	0.6628	0.1913	0.00451	0.028
Mof_H 	H 	0.6135	0.1899	0.974	0.006
Mof_C 	C 	0.6579	0.2704	0.0434	-0.055
Mof_H 	H 	0.6059	0.3231	0.0392	0.064
Mof_C 	C 	0.7291	0.2732	0.08871	-0.052
Mof_C 	C 	0.807	0.198	0.09391	-0.048
Mof_H 	H 	0.8566	0.2	0.1242	0.029
Mof_C 	C 	0.8117	0.1197	0.05432	0.017
Mof_H 	H 	0.8658	0.0688	0.0577	-0.004
Mof_C 	C 	0.7191	0.3556	0.13188	0.316
Mof_C 	C 	0.6324	0.9812	0.91394	-0.018
Mof_C 	C 	0.5999	0.0569	0.87578	-0.104
Mof_H 	H 	0.633	0.1225	0.877	0.045
Mof_C 	C 	0.5207	0.0383	0.83634	-0.099
Mof_H 	H 	0.4999	0.0911	0.8109	0.034
Mof_C 	C 	0.4713	0.9429	0.83382	0.003
Mof_C 	C 	0.5015	0.8673	0.8715	-0.025
Mof_H 	H 	0.4677	0.802	0.8703	0.057
Mof_C 	C 	0.5808	0.8863	0.91114	-0.026
Mof_H 	H 	0.6003	0.8337	0.9369	0.039
Mof_C 	C 	0.3862	0.9221	0.79045	0.383
Mof_O 	O 	0.2222	0.85061	0.67659	-0.52
Mof_O 	O 	0.3423	0.9297	0.62433	-0.307
Mof_O 	O 	0.66109	0.33708	0.29315	-0.497
Mof_O 	O 	0.6297	0.49139	0.25482	-0.498
Mof_C 	C 	0.261	0.6136	0.5095	-0.267
Mof_C 	C 	0.3372	0.6913	0.50451	0.094
Mof_H 	H 	0.3865	0.6899	0.474	-0.008
Mof_C 	C 	0.3421	0.7704	0.5434	-0.095
Mof_H 	H 	0.3941	0.8231	0.5392	0.089
Mof_C 	C 	0.2709	0.7732	0.58871	-0.013
Mof_C 	C 	0.193	0.698	0.59391	-0.082
Mof_H 	H 	0.1434	0.7	0.6242	0.05
Mof_C 	C 	0.1883	0.6197	0.55432	0.077
Mof_H 	H 	0.1342	0.5688	0.5577	-0.005
Mof_C 	C 	0.2809	0.8556	0.63188	0.302
Mof_C 	C 	0.3676	0.4812	0.41394	-0.258
Mof_C 	C 	0.4001	0.5569	0.37578	0.063
Mof_H 	H 	0.367	0.6225	0.377	-0.001
Mof_C 	C 	0.4793	0.5383	0.33634	-0.062
Mof_H 	H 	0.5001	0.5911	0.3109	0.046
Mof_C 	C 	0.5287	0.4429	0.33382	-0.06
Mof_C 	C 	0.4985	0.3673	0.3715	-0.067
Mof_H 	H 	0.5323	0.302	0.3703	0.065
Mof_C 	C 	0.4192	0.3863	0.41114	0.064
Mof_H 	H 	0.3997	0.3337	0.4369	-0.004
Mof_C 	C 	0.6138	0.4221	0.29045	0.394
Mof_O 	O 	0.2778	0.14939	0.67659	-0.566
Mof_O 	O 	0.1577	0.0703	0.62433	-0.375
Mof_O 	O 	0.83891	0.66292	0.29315	-0.498
Mof_O 	O 	0.8703	0.50861	0.25482	-0.502
Mof_C 	C 	0.239	0.3864	0.5095	-0.262
Mof_C 	C 	0.1628	0.3087	0.50451	0.078
Mof_H 	H 	0.1135	0.3101	0.474	-0.011
Mof_C 	C 	0.1579	0.2296	0.5434	-0.085
Mof_H 	H 	0.1059	0.1769	0.5392	0.063
Mof_C 	C 	0.2291	0.2268	0.58871	-0.041
Mof_C 	C 	0.307	0.302	0.59391	-0.072
Mof_H 	H 	0.3566	0.3	0.6242	0.039
Mof_C 	C 	0.3117	0.3803	0.55432	0.065
Mof_H 	H 	0.3658	0.4312	0.5577	-0.003
Mof_C 	C 	0.2191	0.1444	0.63188	0.311
Mof_C 	C 	0.1324	0.5188	0.41394	-0.247
Mof_C 	C 	0.0999	0.4431	0.37578	0.048
Mof_H 	H 	0.133	0.3775	0.377	-0.004
Mof_C 	C 	0.0207	0.4617	0.33634	-0.037
Mof_H 	H 	0.9999	0.4089	0.3109	0.029
Mof_C 	C 	0.9713	0.5571	0.33382	-0.082
Mof_C 	C 	0.0015	0.6327	0.3715	-0.039
Mof_H 	H 	0.9677	0.698	0.3703	0.059
Mof_C 	C 	0.0808	0.6137	0.41114	0.05
Mof_H 	H 	0.1003	0.6663	0.4369	0.01
Mof_C 	C 	0.8862	0.5779	0.29045	0.403
Mof_O 	O 	0.2778	0.35061	0.82341	-0.551
Mof_O 	O 	0.1577	0.4297	0.87567	-0.346
Mof_O 	O 	0.83891	0.83708	0.20685	-0.486
Mof_O 	O 	0.8703	0.99139	0.24518	-0.446
Mof_C 	C 	0.239	0.1136	0.9905	-0.184
Mof_C 	C 	0.1628	0.1913	0.99549	0.027
Mof_H 	H 	0.1135	0.1899	0.026	0.007
Mof_C 	C 	0.1579	0.2704	0.9566	-0.054
Mof_H 	H 	0.1059	0.3231	0.9608	0.065
Mof_C 	C 	0.2291	0.2732	0.91129	-0.053
Mof_C 	C 	0.307	0.198	0.90609	-0.047
Mof_H 	H 	0.3566	0.2	0.8758	0.029
Mof_C 	C 	0.3117	0.1197	0.94568	0.016
Mof_H 	H 	0.3658	0.0688	0.9423	-0.002
Mof_C 	C 	0.2191	0.3556	0.86812	0.316
Mof_C 	C 	0.1324	0.9812	0.08606	-0.01
Mof_C 	C 	0.0999	0.0569	0.12422	-0.117
Mof_H 	H 	0.133	0.1225	0.123	0.05
Mof_C 	C 	0.0207	0.0383	0.16366	-0.071
Mof_H 	H 	0.9999	0.0911	0.1891	0.023
Mof_C 	C 	0.9713	0.9429	0.16618	-0.019
Mof_C 	C 	0.0015	0.8673	0.1285	-0.003
Mof_H 	H 	0.9677	0.802	0.1297	0.048
Mof_C 	C 	0.0808	0.8863	0.08886	-0.04
Mof_H 	H 	0.1003	0.8337	0.0631	0.044
Mof_C 	C 	0.8862	0.9221	0.20955	0.39
Mof_O 	O 	0.2222	0.64939	0.82341	-0.549
Mof_O 	O 	0.3423	0.5703	0.87567	-0.348
Mof_O 	O 	0.66109	0.16292	0.20685	-0.514
Mof_O 	O 	0.6297	0.00861	0.24518	-0.55
Mof_C 	C 	0.261	0.8864	0.9905	-0.098
Mof_C 	C 	0.3372	0.8087	0.99549	-0.008
Mof_H 	H 	0.3865	0.8101	0.026	0.034
Mof_C 	C 	0.3421	0.7296	0.9566	-0.022
Mof_H 	H 	0.3941	0.6769	0.9608	0.054
Mof_C 	C 	0.2709	0.7268	0.91129	-0.074
Mof_C 	C 	0.193	0.802	0.90609	-0.006
Mof_H 	H 	0.1434	0.8	0.8758	0.027
Mof_C 	C 	0.1883	0.8803	0.94568	-0.021
Mof_H 	H 	0.1342	0.9312	0.9423	0.055
Mof_C 	C 	0.2809	0.6444	0.86812	0.324
Mof_C 	C 	0.3676	0.0188	0.08606	-0.248
Mof_C 	C 	0.4001	0.9431	0.12422	0.078
Mof_H 	H 	0.367	0.8775	0.123	0.005
Mof_C 	C 	0.4793	0.9617	0.16366	0.077
Mof_H 	H 	0.5001	0.9089	0.1891	0.018
Mof_C 	C 	0.5287	0.0571	0.16618	-0.195
Mof_C 	C 	0.4985	0.1327	0.1285	-0.003
Mof_H 	H 	0.5323	0.198	0.1297	0.045
Mof_C 	C 	0.4192	0.1137	0.08886	0.005
Mof_H 	H 	0.3997	0.1663	0.0631	0.022
Mof_C 	C 	0.6138	0.0779	0.20955	0.431
Mof_Zn	Zn	0.2407	0.75	0.75	1.202
Mof_Zn	Zn	0.2593	0.25	0.75	1.197
Mof_Zn	Zn	0.7593	0.25	0.25	1.198
Mof_Zn	Zn	0.7407	0.75	0.25	1.203
Mof_Zn	Zn	0.75	0	0.29852	1.204
Mof_Zn	Zn	0.75	0.5	0.20148	1.231
Mof_Zn	Zn	0.25	0	0.70148	1.205
Mof_Zn	Zn	0.25	0.5	0.79852	1.231
Mof_Si	Si	0.75	0.5	0.53842	0.771
Mof_Si	Si	0.75	0	0.96158	0.461
Mof_Si	Si	0.25	0.5	0.46158	0.761
Mof_Si	Si	0.25	0	0.03842	0.455
_end
