data_functionalizedCrystal
_audit_creation_method	'EQeq! by Chris Wilmer'
_symmetry_space_group_name_H-M	'P1'
_symmetry_Int_Tables_number	1
_symmetry_cell_setting	triclinic
loop_
_symmetry_equiv_pos_as_xyz
  x,y,z
_cell_length_a	10.7613
_cell_length_b	7.1944
_cell_length_c	17.2162
_cell_angle_alpha	90
_cell_angle_beta	97.107
_cell_angle_gamma	90
loop_
_atom_site_label
_atom_site_type_symbol
_atom_site_fract_x
_atom_site_fract_y
_atom_site_fract_z
_atom_site_charge
Mof_Sm	Sm	0.32635	0.51998	0.75283	2.324
Mof_O 	O 	0.00562	0.2501	0.68506	-0.435
Mof_O 	O 	0.20181	0.3083	0.66928	-0.662
Mof_O 	O 	0.1432	0.6897	0.69178	-0.636
Mof_O 	O 	0.083	0.9215	0.61298	-0.465
Mof_O 	O 	0.155	0.468	0.82406	-0.567
Mof_O 	O 	0.11223	0.1789	0.85868	-0.542
Mof_O 	O 	0.8483	0.185	0.84893	-0.267
Mof_O 	O 	0.851	0.0479	0.96527	-0.362
Mof_C 	C 	0.0838	0.3286	0.64884	0.377
Mof_C 	C 	0.0415	0.4264	0.57357	-0.063
Mof_C 	C 	0.0481	0.6182	0.56147	-0.077
Mof_C 	C 	0.0065	0.6897	0.4879	0.018
Mof_C 	C 	0.0945	0.7521	0.62487	0.393
Mof_C 	C 	0.1084	0.3534	0.8664	0.49
Mof_C 	C 	0.0468	0.4298	0.9338	-0.111
Mof_C 	C 	0.0988	0.589	0.97102	0.025
Mof_C 	C 	0.9468	0.3417	0.9625	-0.033
Mof_C 	C 	0.8781	0.1818	0.92017	0.33
Mof_H 	H 	0.007	0.826	0.478	0.053
Mof_H 	H 	0.178	0.648	0.952	0.037
Mof_H 	H 	0.814	0.946	0.936	0.192
Mof_Sm	Sm	0.17365	0.01998	0.74717	2.293
Mof_O 	O 	0.49438	0.7501	0.81494	-0.433
Mof_O 	O 	0.29819	0.8083	0.83072	-0.657
Mof_O 	O 	0.3568	0.1897	0.80822	-0.641
Mof_O 	O 	0.417	0.4215	0.88702	-0.473
Mof_O 	O 	0.345	0.968	0.67594	-0.56
Mof_O 	O 	0.38777	0.6789	0.64132	-0.54
Mof_O 	O 	0.6517	0.685	0.65107	-0.27
Mof_O 	O 	0.649	0.5479	0.53473	-0.367
Mof_C 	C 	0.4162	0.8286	0.85116	0.375
Mof_C 	C 	0.4585	0.9264	0.92643	-0.054
Mof_C 	C 	0.4519	0.1182	0.93853	-0.084
Mof_C 	C 	0.4935	0.1897	0.0121	0.017
Mof_C 	C 	0.4055	0.2521	0.87513	0.395
Mof_C 	C 	0.3916	0.8534	0.6336	0.487
Mof_C 	C 	0.4532	0.9298	0.5662	-0.103
Mof_C 	C 	0.4012	0.089	0.52898	0.021
Mof_C 	C 	0.5532	0.8417	0.5375	-0.037
Mof_C 	C 	0.6219	0.6818	0.57983	0.332
Mof_H 	H 	0.493	0.326	0.022	0.051
Mof_H 	H 	0.322	0.148	0.548	0.036
Mof_H 	H 	0.686	0.446	0.564	0.195
Mof_Sm	Sm	0.67365	0.48002	0.24717	2.323
Mof_O 	O 	0.99438	0.7499	0.31494	-0.436
Mof_O 	O 	0.79819	0.6917	0.33072	-0.663
Mof_O 	O 	0.8568	0.3103	0.30822	-0.637
Mof_O 	O 	0.917	0.0785	0.38702	-0.465
Mof_O 	O 	0.845	0.532	0.17594	-0.567
Mof_O 	O 	0.88777	0.8211	0.14132	-0.542
Mof_O 	O 	0.1517	0.815	0.15107	-0.267
Mof_O 	O 	0.149	0.9521	0.03473	-0.362
Mof_C 	C 	0.9162	0.6714	0.35116	0.377
Mof_C 	C 	0.9585	0.5736	0.42643	-0.063
Mof_C 	C 	0.9519	0.3818	0.43853	-0.077
Mof_C 	C 	0.9935	0.3103	0.5121	0.018
Mof_C 	C 	0.9055	0.2479	0.37513	0.393
Mof_C 	C 	0.8916	0.6466	0.1336	0.49
Mof_C 	C 	0.9532	0.5702	0.0662	-0.111
Mof_C 	C 	0.9012	0.411	0.02898	0.025
Mof_C 	C 	0.0532	0.6583	0.0375	-0.033
Mof_C 	C 	0.1219	0.8182	0.07983	0.33
Mof_H 	H 	0.993	0.174	0.522	0.053
Mof_H 	H 	0.822	0.352	0.048	0.037
Mof_H 	H 	0.186	0.054	0.064	0.192
Mof_Sm	Sm	0.82635	0.98002	0.25283	2.293
Mof_O 	O 	0.50562	0.2499	0.18506	-0.433
Mof_O 	O 	0.70181	0.1917	0.16928	-0.657
Mof_O 	O 	0.6432	0.8103	0.19178	-0.641
Mof_O 	O 	0.583	0.5785	0.11298	-0.473
Mof_O 	O 	0.655	0.032	0.32406	-0.56
Mof_O 	O 	0.61223	0.3211	0.35868	-0.54
Mof_O 	O 	0.3483	0.315	0.34893	-0.27
Mof_O 	O 	0.351	0.4521	0.46527	-0.367
Mof_C 	C 	0.5838	0.1714	0.14884	0.375
Mof_C 	C 	0.5415	0.0736	0.07357	-0.054
Mof_C 	C 	0.5481	0.8818	0.06147	-0.084
Mof_C 	C 	0.5065	0.8103	0.9879	0.017
Mof_C 	C 	0.5945	0.7479	0.12487	0.395
Mof_C 	C 	0.6084	0.1466	0.3664	0.487
Mof_C 	C 	0.5468	0.0702	0.4338	-0.103
Mof_C 	C 	0.5988	0.911	0.47102	0.021
Mof_C 	C 	0.4468	0.1583	0.4625	-0.037
Mof_C 	C 	0.3781	0.3182	0.42017	0.332
Mof_H 	H 	0.507	0.674	0.978	0.051
Mof_H 	H 	0.678	0.852	0.452	0.036
Mof_H 	H 	0.314	0.554	0.436	0.195
_end
