data_functionalizedCrystal
_audit_creation_method	'EQeq! by Chris Wilmer'
_symmetry_space_group_name_H-M	'P1'
_symmetry_Int_Tables_number	1
_symmetry_cell_setting	triclinic
loop_
_symmetry_equiv_pos_as_xyz
  x,y,z
_cell_length_a	13.041
_cell_length_b	14.411
_cell_length_c	16.307
_cell_angle_alpha	90
_cell_angle_beta	90
_cell_angle_gamma	90
loop_
_atom_site_label
_atom_site_type_symbol
_atom_site_fract_x
_atom_site_fract_y
_atom_site_fract_z
_atom_site_charge
Mof_Cu	Cu	0.79009	0.79449	0.83967	0.905
Mof_Cu	Cu	0.05982	0.53698	0.91402	0.903
Mof_Cu	Cu	0.20991	0.29449	0.66033	0.905
Mof_Cu	Cu	0.44018	0.46302	0.41402	0.902
Mof_Cu	Cu	0.94018	0.03698	0.58598	0.9
Mof_Cu	Cu	0.70991	0.20551	0.33967	0.905
Mof_Cu	Cu	0.55982	0.96302	0.08598	0.902
Mof_Cu	Cu	0.29009	0.70551	0.16033	0.903
Mof_H 	H 	0.9991	0.3449	0.9011	0.25
Mof_H 	H 	0.1914	0.3885	0.2386	0.261
Mof_H 	H 	0.4991	0.1551	0.0989	0.262
Mof_H 	H 	0.2165	0.6017	0.467	0.258
Mof_H 	H 	0.1567	0.4922	0.2298	0.271
Mof_H 	H 	0.0836	0.7644	0.1369	0.257
Mof_H 	H 	0.5267	0.8313	0.3284	0.164
Mof_H 	H 	0.9396	0.918	0.9758	0.158
Mof_H 	H 	0.9796	0.3288	0.3043	0.255
Mof_H 	H 	0.1487	0.2607	0.4448	0.018
Mof_H 	H 	0.435	0.2151	0.0373	0.257
Mof_H 	H 	0.0464	0.2545	0.9387	0.263
Mof_H 	H 	0.5025	0.6544	0.973	0.164
Mof_H 	H 	0.5792	0.0826	0.7381	0.249
Mof_H 	H 	0.5845	0.9141	0.3703	0.154
Mof_H 	H 	0.3776	0.4648	0.5935	0.145
Mof_H 	H 	0.2283	0.365	0.8338	0.144
Mof_H 	H 	0.0025	0.8456	0.027	0.152
Mof_H 	H 	0.9324	0.6919	0.4094	-0.025
Mof_H 	H 	0.4536	0.7455	0.4387	0.271
Mof_H 	H 	0.6347	0.862	0.2961	0.155
Mof_H 	H 	0.065	0.7849	0.5373	0.244
Mof_H 	H 	0.7283	0.135	0.1662	0.144
Mof_H 	H 	0.478	0.7694	0.828	0.275
Mof_H 	H 	0.0444	0.0278	0.7843	0.029
Mof_H 	H 	0.6914	0.1115	0.7614	0.262
Mof_H 	H 	0.4242	0.5885	0.929	0.154
Mof_H 	H 	0.9164	0.2644	0.3631	0.256
Mof_H 	H 	0.5009	0.6551	0.4011	0.262
Mof_H 	H 	0.4796	0.1712	0.6957	0.253
Mof_H 	H 	0.8513	0.7607	0.0552	0.02
Mof_H 	H 	0.8776	0.0352	0.4065	0.142
Mof_H 	H 	0.0845	0.5859	0.6297	0.155
Mof_H 	H 	0.1416	0.6778	0.5008	0.236
Mof_H 	H 	0.0792	0.4174	0.2619	0.248
Mof_H 	H 	0.6487	0.2393	0.5552	0.017
Mof_H 	H 	0.9975	0.3456	0.473	0.161
Mof_H 	H 	0.4015	0.4182	0.9716	0.244
Mof_H 	H 	0.9208	0.9174	0.2381	0.251
Mof_H 	H 	0.4208	0.5826	0.7619	0.249
Mof_H 	H 	0.7165	0.8983	0.533	0.258
Mof_H 	H 	0.4164	0.2356	0.6369	0.253
Mof_H 	H 	0.8086	0.8885	0.2614	0.262
Mof_H 	H 	0.2835	0.3983	0.967	0.258
Mof_H 	H 	0.5444	0.4722	0.2157	0.018
Mof_H 	H 	0.6224	0.9648	0.9065	0.146
Mof_H 	H 	0.4556	0.9722	0.2843	0.018
Mof_H 	H 	0.3433	0.5078	0.7298	0.272
Mof_H 	H 	0.8433	0.9922	0.2702	0.273
Mof_H 	H 	0.5204	0.6712	0.8043	0.253
Mof_H 	H 	0.978	0.7306	0.172	0.282
Mof_H 	H 	0.5985	0.9182	0.5284	0.244
Mof_H 	H 	0.3653	0.362	0.2039	0.155
Mof_H 	H 	0.4733	0.3313	0.1716	0.165
Mof_H 	H 	0.5604	0.082	0.4758	0.165
Mof_H 	H 	0.4324	0.8081	0.5906	-0.025
Mof_H 	H 	0.8584	0.1778	0.9992	0.232
Mof_H 	H 	0.9026	0.7276	0.3221	-0.024
Mof_H 	H 	0.9155	0.0859	0.8703	0.147
Mof_H 	H 	0.0676	0.1919	0.0906	-0.023
Mof_H 	H 	0.0267	0.6687	0.6716	0.164
Mof_H 	H 	0.4026	0.7724	0.6779	-0.024
Mof_H 	H 	0.5836	0.7356	0.8631	0.253
Mof_H 	H 	0.7835	0.1017	0.033	0.256
Mof_H 	H 	0.9556	0.5278	0.7157	0.019
Mof_H 	H 	0.4396	0.582	0.0242	0.163
Mof_H 	H 	0.5676	0.3081	0.9094	-0.024
Mof_H 	H 	0.0604	0.418	0.5242	0.162
Mof_H 	H 	0.6567	0.0078	0.7702	0.272
Mof_H 	H 	0.935	0.2849	0.9627	0.245
Mof_H 	H 	0.0758	0.4115	0.429	0.152
Mof_H 	H 	0.5758	0.0885	0.571	0.155
Mof_H 	H 	0.0974	0.2276	0.1779	-0.022
Mof_H 	H 	0.9015	0.0818	0.0284	0.242
Mof_H 	H 	0.522	0.2694	0.672	0.275
Mof_H 	H 	0.0009	0.8449	0.5989	0.248
Mof_H 	H 	0.022	0.2306	0.328	0.279
Mof_H 	H 	0.0204	0.8288	0.1957	0.256
Mof_H 	H 	0.3584	0.3222	0.0008	0.235
Mof_H 	H 	0.6416	0.8222	0.4992	0.235
Mof_H 	H 	0.3086	0.6115	0.7386	0.262
Mof_H 	H 	0.2717	0.635	0.3338	0.144
Mof_H 	H 	0.565	0.7151	0.4627	0.257
Mof_H 	H 	0.4975	0.1544	0.527	0.165
Mof_H 	H 	0.5464	0.2455	0.0613	0.271
Mof_H 	H 	0.0985	0.5818	0.4716	0.245
Mof_H 	H 	0.3513	0.7393	0.9448	0.017
Mof_H 	H 	0.1224	0.5352	0.0935	0.144
Mof_H 	H 	0.9733	0.1687	0.8284	0.157
Mof_H 	H 	0.4155	0.4141	0.1297	0.155
Mof_H 	H 	0.7717	0.865	0.6662	0.144
Mof_H 	H 	0.9536	0.7545	0.5613	0.261
Mof_H 	H 	0.5974	0.2724	0.8221	-0.023
Mof_H 	H 	0.8653	0.138	0.7961	0.148
Mof_H 	H 	0.1347	0.638	0.7039	0.155
Mof_H 	H 	0.9242	0.9115	0.071	0.148
Mof_C 	C 	0.5887	0.0341	0.2456	0.282
Mof_C 	C 	0.456	0.6386	0.5184	0.324
Mof_C 	C 	0.5629	0.1672	0.9007	-0.285
Mof_C 	C 	0.8527	0.8047	0.0093	0.032
Mof_C 	C 	0.572	0.3159	0.4212	0.115
Mof_C 	C 	0.0388	0.7658	0.1837	-0.854
Mof_C 	C 	0.101	0.41	0.1383	0.322
Mof_C 	C 	0.251	0.3545	0.4981	0.275
Mof_C 	C 	0.3638	0.3329	0.8751	0.309
Mof_C 	C 	0.044	0.3614	0.0184	0.313
Mof_C 	C 	0.1473	0.3047	0.4907	0.038
Mof_C 	C 	0.6362	0.8329	0.6249	0.309
Mof_C 	C 	0.0921	0.7248	0.2555	0.322
Mof_C 	C 	0.0623	0.3767	0.478	-0.485
Mof_C 	C 	0.3648	0.5713	0.725	-0.821
Mof_C 	C 	0.9508	0.7358	0.3668	0.139
Mof_C 	C 	0.0569	0.711	0.3358	-0.283
Mof_C 	C 	0.4288	0.3833	0.1809	-0.477
Mof_C 	C 	0.751	0.1455	0.5019	0.274
Mof_C 	C 	0.4113	0.5341	0.2544	0.281
Mof_C 	C 	0.5025	0.1934	0.0509	-0.853
Mof_C 	C 	0.4431	0.289	0.8358	-0.277
Mof_C 	C 	0.5712	0.8833	0.3191	-0.476
Mof_C 	C 	0.956	0.8614	0.4816	0.314
Mof_C 	C 	0.6494	0.8715	0.5383	-0.785
Mof_C 	C 	0.9113	0.9659	0.7456	0.291
Mof_C 	C 	0.1352	0.4287	0.225	-0.818
Mof_C 	C 	0.8506	0.1285	0.0383	-0.777
Mof_C 	C 	0.9975	0.8066	0.5509	-0.816
Mof_C 	C 	0.3527	0.6953	0.9907	0.039
Mof_C 	C 	0.5492	0.2642	0.8668	0.135
Mof_C 	C 	0.1362	0.6671	0.3751	0.311
Mof_C 	C 	0.9431	0.211	0.1642	-0.278
Mof_C 	C 	0.9612	0.2658	0.3163	-0.847
Mof_C 	C 	0.072	0.1841	0.5788	0.115
Mof_C 	C 	0.5388	0.7342	0.8163	-0.836
Mof_C 	C 	0.0887	0.4659	0.7544	0.282
Mof_C 	C 	0.4612	0.2342	0.6837	-0.836
Mof_C 	C 	0.4508	0.7642	0.6332	0.136
Mof_C 	C 	0.5623	0.1233	0.522	-0.493
Mof_C 	C 	0.5671	0.3437	0.331	0.124
Mof_C 	C 	0.0025	0.3066	0.9491	-0.818
Mof_C 	C 	0.4377	0.6233	0.978	-0.489
Mof_C 	C 	0.0712	0.6167	0.6809	-0.476
Mof_C 	C 	0.5201	0.9508	0.26	0.033
Mof_C 	C 	0.6352	0.0713	0.775	-0.821
Mof_C 	C 	0.0492	0.2358	0.1332	0.134
Mof_C 	C 	0.4329	0.8437	0.169	0.124
Mof_C 	C 	0.3506	0.3715	0.9617	-0.784
Mof_C 	C 	0.1494	0.6285	0.4617	-0.787
Mof_C 	C 	0.544	0.1386	0.9816	0.323
Mof_C 	C 	0.5569	0.789	0.6642	-0.277
Mof_C 	C 	0.9079	0.2248	0.2445	0.32
Mof_C 	C 	0.0671	0.1563	0.669	0.124
Mof_C 	C 	0.0629	0.3328	0.0993	-0.28
Mof_C 	C 	0.9329	0.6563	0.831	0.124
Mof_C 	C 	0.4079	0.2752	0.7555	0.318
Mof_C 	C 	0.399	0.59	0.6383	0.324
Mof_C 	C 	0.749	0.8545	0.0019	0.277
Mof_C 	C 	0.4799	0.4508	0.24	0.034
Mof_C 	C 	0.8638	0.1671	0.1249	0.308
Mof_C 	C 	0.5921	0.7752	0.7445	0.317
Mof_C 	C 	0.4371	0.6672	0.5993	-0.285
Mof_C 	C 	0.4975	0.6934	0.4491	-0.854
Mof_C 	C 	0.9377	0.8767	0.022	-0.465
Mof_C 	C 	0.9288	0.1167	0.8191	-0.454
Mof_C 	C 	0.428	0.8159	0.0788	0.114
Mof_C 	C 	0.6473	0.1953	0.5093	0.04
Mof_C 	C 	0.9371	0.8328	0.4007	-0.281
Mof_C 	C 	0.899	0.91	0.3617	0.324
Mof_C 	C 	0.8648	0.9287	0.275	-0.822
Mof_C 	C 	0.928	0.6841	0.9212	0.114
Mof_C 	C 	0.601	0.09	0.8617	0.324
Mof_C 	C 	0.249	0.6455	0.9981	0.276
Mof_C 	C 	0.9799	0.0492	0.76	0.011
Mof_C 	C 	0.0201	0.5492	0.74	0.034
Mof_N 	N 	0.6307	0.2445	0.4322	-0.237
Mof_N 	N 	0.8113	0.1933	0.2516	-0.233
Mof_N 	N 	0.4307	0.549	0.5093	-0.232
Mof_N 	N 	0.3693	0.7445	0.0678	-0.238
Mof_N 	N 	0.4982	0.9082	0.1815	-0.242
Mof_N 	N 	0.7132	0.8408	0.6779	-0.23
Mof_N 	N 	0.1026	0.4796	0.083	-0.229
Mof_N 	N 	0.3974	0.5204	0.583	-0.229
Mof_N 	N 	0.6026	0.0204	0.917	-0.23
Mof_N 	N 	0.9982	0.5918	0.8185	-0.242
Mof_N 	N 	0.2868	0.3408	0.8221	-0.23
Mof_N 	N 	0.0693	0.451	0.0093	-0.23
Mof_N 	N 	0.1307	0.2555	0.5678	-0.237
Mof_N 	N 	0.2132	0.6592	0.3221	-0.23
Mof_N 	N 	0.1887	0.6933	0.2484	-0.233
Mof_N 	N 	0.0018	0.0918	0.6815	-0.236
Mof_N 	N 	0.8974	0.9796	0.417	-0.226
Mof_N 	N 	0.6887	0.8067	0.7516	-0.232
Mof_N 	N 	0.3113	0.3067	0.7484	-0.232
Mof_N 	N 	0.5018	0.4082	0.3185	-0.242
Mof_N 	N 	0.7868	0.1592	0.1779	-0.229
Mof_N 	N 	0.8693	0.7555	0.9322	-0.236
Mof_N 	N 	0.9307	0.951	0.4907	-0.229
Mof_N 	N 	0.5693	0.049	0.9907	-0.232
Mof_O 	O 	0.6263	0.3028	0.2802	-0.339
Mof_O 	O 	0.1135	0.4489	0.8293	-0.404
Mof_O 	O 	0.6208	0.0785	0.3046	-0.36
Mof_O 	O 	0.3792	0.5785	0.1954	-0.36
Mof_O 	O 	0.7091	0.8573	0.9287	-0.392
Mof_O 	O 	0.9793	0.6373	0.9734	-0.33
Mof_O 	O 	0.4793	0.8627	0.0266	-0.331
Mof_O 	O 	0.3737	0.8028	0.2198	-0.339
Mof_O 	O 	0.2123	0.6076	0.9375	-0.355
Mof_O 	O 	0.7123	0.8924	0.0625	-0.355
Mof_O 	O 	0.1208	0.4215	0.6954	-0.359
Mof_O 	O 	0.0207	0.1373	0.5266	-0.328
Mof_O 	O 	0.6135	0.0511	0.1707	-0.405
Mof_O 	O 	0.8865	0.9489	0.6707	-0.406
Mof_O 	O 	0.3865	0.5511	0.3293	-0.405
Mof_O 	O 	0.5207	0.3627	0.4734	-0.33
Mof_O 	O 	0.7877	0.1076	0.5625	-0.356
Mof_O 	O 	0.1263	0.1972	0.7198	-0.337
Mof_O 	O 	0.7909	0.1427	0.4287	-0.392
Mof_O 	O 	0.8792	0.9215	0.8046	-0.361
Mof_O 	O 	0.8737	0.6972	0.7802	-0.339
Mof_O 	O 	0.2877	0.3924	0.4375	-0.355
Mof_O 	O 	0.2909	0.3573	0.5713	-0.392
Mof_O 	O 	0.2091	0.6427	0.0713	-0.393
_end
