data_functionalizedCrystal
_audit_creation_method	'EQeq! by Chris Wilmer'
_symmetry_space_group_name_H-M	'P1'
_symmetry_Int_Tables_number	1
_symmetry_cell_setting	triclinic
loop_
_symmetry_equiv_pos_as_xyz
  x,y,z
_cell_length_a	9.2406
_cell_length_b	9.957
_cell_length_c	13.3017
_cell_angle_alpha	78.394
_cell_angle_beta	73.58
_cell_angle_gamma	81.982
loop_
_atom_site_label
_atom_site_type_symbol
_atom_site_fract_x
_atom_site_fract_y
_atom_site_fract_z
_atom_site_charge
Mof_N 	N 	0.2648	0.0432	0.09029	-0.264
Mof_N 	N 	0.0642	0.1195	0.20681	-0.101
Mof_N 	N 	0.5725	0.1484	0.06577	-0.232
Mof_N 	N 	0.6329	0.3484	0.07925	-0.086
Mof_N 	N 	0.4605	0.1495	0.86494	-0.221
Mof_N 	N 	0.4777	0.2223	0.69444	-0.116
Mof_C 	C 	0.1377	0.9895	0.0846	0.097
Mof_H 	H 	0.1369	0.9303	0.0389	-0.019
Mof_C 	C 	0.0143	0.0366	0.1561	-0.091
Mof_H 	H 	0.915	0.0162	0.1682	0.047
Mof_C 	C 	0.215	0.1209	0.16459	0.075
Mof_H 	H 	0.2764	0.1706	0.1853	-0.008
Mof_C 	C 	0.9775	0.1779	0.301	-0.079
Mof_H 	H 	0.8717	0.1941	0.3005	0.054
Mof_H 	H 	0.0136	0.2659	0.2981	0.053
Mof_C 	C 	0.9909	0.084	0.4034	-0.051
Mof_C 	C 	0.0017	0.9414	0.414	0.058
Mof_H 	H 	0.0029	0.9012	0.3564	0.023
Mof_C 	C 	0.9893	0.1416	0.4903	0.02
Mof_H 	H 	0.9821	0.2368	0.4845	0.015
Mof_C 	C 	0.5801	0.1453	0.168	0.004
Mof_H 	H 	0.5627	0.0698	0.2225	0.015
Mof_C 	C 	0.6166	0.2682	0.1775	-0.016
Mof_H 	H 	0.6282	0.2931	0.2383	0.035
Mof_C 	C 	0.606	0.273	0.0148	-0.014
Mof_H 	H 	0.6104	0.3043	0.9434	0.049
Mof_C 	C 	0.6756	0.4908	0.0485	-0.181
Mof_H 	H 	0.6257	0.5412	0.106	0.083
Mof_H 	H 	0.6407	0.535	0.9866	0.116
Mof_C 	C 	0.8442	0.4969	0.0234	-0.025
Mof_C 	C 	0.9127	0.4932	0.1043	0.008
Mof_H 	H 	0.8545	0.4889	0.1743	0.025
Mof_C 	C 	0.9312	0.5039	0.9196	0.046
Mof_H 	H 	0.885	0.5067	0.8654	0.016
Mof_C 	C 	0.3187	0.1945	0.8505	-0.01
Mof_H 	H 	0.2295	0.1946	0.9048	0.032
Mof_C 	C 	0.3277	0.2383	0.7463	-0.007
Mof_H 	H 	0.248	0.2725	0.7159	0.028
Mof_C 	C 	0.5537	0.1696	0.76819	0.073
Mof_H 	H 	0.6582	0.1498	0.7532	-0.009
Mof_C 	C 	0.5416	0.2411	0.5778	-0.068
Mof_H 	H 	0.6485	0.2542	0.5605	0.047
Mof_H 	H 	0.4911	0.3226	0.5444	0.048
Mof_C 	C 	0.5215	0.1173	0.53581	-0.055
Mof_C 	C 	0.4078	0.1201	0.4856	0.034
Mof_H 	H 	0.3455	0.2006	0.4752	0.015
Mof_C 	C 	0.6134	0.9959	0.5489	0.063
Mof_H 	H 	0.6908	0.9925	0.5817	0.024
Mof_N 	N 	0.7352	0.9568	0.90971	-0.186
Mof_N 	N 	0.9358	0.8805	0.79319	-0.107
Mof_N 	N 	0.4275	0.8516	0.93423	-0.233
Mof_N 	N 	0.3671	0.6516	0.92075	-0.122
Mof_N 	N 	0.5395	0.8505	0.13506	-0.227
Mof_N 	N 	0.5223	0.7777	0.30556	-0.097
Mof_C 	C 	0.8623	0.0105	0.9154	-0.089
Mof_H 	H 	0.8631	0.0697	0.9611	0.063
Mof_C 	C 	0.9857	0.9634	0.8439	0.065
Mof_H 	H 	0.085	0.9838	0.8318	0.023
Mof_C 	C 	0.785	0.8791	0.83541	0.091
Mof_H 	H 	0.7236	0.8294	0.8147	-0.004
Mof_C 	C 	0.0225	0.8221	0.699	-0.169
Mof_H 	H 	0.1283	0.8059	0.6995	0.085
Mof_H 	H 	0.9864	0.7341	0.7019	0.077
Mof_C 	C 	0.0091	0.916	0.5966	0.164
Mof_C 	C 	0.9983	0.0586	0.586	-0.197
Mof_H 	H 	0.9971	0.0988	0.6436	0.093
Mof_C 	C 	0.0107	0.8584	0.5097	-0.177
Mof_H 	H 	0.0179	0.7632	0.5155	0.082
Mof_C 	C 	0.4199	0.8547	0.832	0.004
Mof_H 	H 	0.4373	0.9302	0.7775	0.036
Mof_C 	C 	0.3834	0.7318	0.8225	-0.004
Mof_H 	H 	0.3718	0.7069	0.7617	0.03
Mof_C 	C 	0.394	0.727	0.9852	0.169
Mof_H 	H 	0.3896	0.6957	0.0566	-0.066
Mof_C 	C 	0.3244	0.5092	0.9515	-0.081
Mof_H 	H 	0.3743	0.4588	0.894	0.061
Mof_H 	H 	0.3593	0.465	0.0134	0.026
Mof_C 	C 	0.1558	0.5031	0.9766	0.154
Mof_C 	C 	0.0873	0.5068	0.8957	-0.151
Mof_H 	H 	0.1455	0.5111	0.8257	0.079
Mof_C 	C 	0.0688	0.4961	0.0804	-0.189
Mof_H 	H 	0.115	0.4933	0.1346	0.088
Mof_C 	C 	0.6813	0.8055	0.1495	-0.001
Mof_H 	H 	0.7705	0.8054	0.0952	0.018
Mof_C 	C 	0.6723	0.7617	0.2537	-0.009
Mof_H 	H 	0.752	0.7275	0.2841	0.033
Mof_C 	C 	0.4463	0.8304	0.23181	0.08
Mof_H 	H 	0.3418	0.8502	0.2468	0.002
Mof_C 	C 	0.4584	0.7589	0.4222	-0.183
Mof_H 	H 	0.3515	0.7458	0.4395	0.085
Mof_H 	H 	0.5089	0.6774	0.4556	0.081
Mof_C 	C 	0.4785	0.8827	0.46419	0.173
Mof_C 	C 	0.5922	0.8799	0.5144	-0.175
Mof_H 	H 	0.6545	0.7994	0.5248	0.088
Mof_C 	C 	0.3866	0.0041	0.4511	-0.209
Mof_H 	H 	0.3092	0.0075	0.4183	0.096
Mof_Co	Co	0.5	0	-0	1.08
_end
