data_functionalizedCrystal
_audit_creation_method	'EQeq! by Chris Wilmer'
_symmetry_space_group_name_H-M	'P1'
_symmetry_Int_Tables_number	1
_symmetry_cell_setting	triclinic
loop_
_symmetry_equiv_pos_as_xyz
  x,y,z
_cell_length_a	24.402
_cell_length_b	9.3439
_cell_length_c	10.3469
_cell_angle_alpha	90
_cell_angle_beta	97.371
_cell_angle_gamma	90
loop_
_atom_site_label
_atom_site_type_symbol
_atom_site_fract_x
_atom_site_fract_y
_atom_site_fract_z
_atom_site_charge
Mof_C 	C 	0.17754	0.1784	0.9929	-0.04
Mof_H 	H 	0.1616	0.2167	0.914	0.068
Mof_O 	O 	0.06999	0.0956	0.9045	-0.527
Mof_C 	C 	0.23275	0.2042	0.0374	0.062
Mof_C 	C 	0.14656	0.0963	0.0658	-0.118
Mof_C 	C 	0.08608	0.0698	0.0201	0.51
Mof_C 	C 	0.1714	0.0406	0.1818	-0.008
Mof_H 	H 	0.1513	0.9864	0.2347	0.033
Mof_N 	N 	0.25764	0.1483	0.1486	-0.113
Mof_C 	C 	0.227	0.0674	0.2175	0.013
Mof_H 	H 	0.244	0.0266	0.2943	0.041
Mof_O 	O 	0.05726	0.0231	0.1001	-0.586
Mof_O 	O 	0.0307	0.2509	0.683	-0.257
Mof_O 	O 	0.0249	0.447	0.757	-0.162
Mof_C 	C 	0.67754	0.6784	0.9929	-0.015
Mof_H 	H 	0.6616	0.7167	0.914	0.059
Mof_O 	O 	0.56999	0.5956	0.9045	-0.549
Mof_C 	C 	0.73275	0.7042	0.0374	0.044
Mof_C 	C 	0.64656	0.5963	0.0658	-0.143
Mof_C 	C 	0.58608	0.5698	0.0201	0.541
Mof_C 	C 	0.6714	0.5406	0.1818	0.005
Mof_H 	H 	0.6513	0.4864	0.2347	0.027
Mof_N 	N 	0.75764	0.6483	0.1486	-0.107
Mof_C 	C 	0.727	0.5674	0.2175	0.005
Mof_H 	H 	0.744	0.5266	0.2943	0.046
Mof_O 	O 	0.55726	0.5231	0.1001	-0.616
Mof_O 	O 	0.5307	0.7509	0.683	-0.266
Mof_O 	O 	0.5249	0.947	0.757	-0.085
Mof_C 	C 	0.82246	0.1784	0.5071	-0.029
Mof_H 	H 	0.8384	0.2167	0.586	0.068
Mof_O 	O 	0.93001	0.0956	0.5955	-0.463
Mof_C 	C 	0.76725	0.2042	0.4626	0.054
Mof_C 	C 	0.85344	0.0963	0.4342	-0.111
Mof_C 	C 	0.91392	0.0698	0.4799	0.496
Mof_C 	C 	0.8286	0.0406	0.3182	-0.008
Mof_H 	H 	0.8487	0.9864	0.2653	0.038
Mof_N 	N 	0.74236	0.1483	0.3514	-0.112
Mof_C 	C 	0.773	0.0674	0.2825	0.015
Mof_H 	H 	0.756	0.0266	0.2057	0.042
Mof_O 	O 	0.94274	0.0231	0.3999	-0.513
Mof_O 	O 	0.9693	0.2509	0.817	-0.155
Mof_O 	O 	0.9751	0.447	0.743	0.035
Mof_C 	C 	0.32246	0.6784	0.5071	-0.013
Mof_H 	H 	0.3384	0.7167	0.586	0.058
Mof_O 	O 	0.43001	0.5956	0.5955	-0.549
Mof_C 	C 	0.26725	0.7042	0.4626	0.044
Mof_C 	C 	0.35344	0.5963	0.4342	-0.144
Mof_C 	C 	0.41392	0.5698	0.4799	0.54
Mof_C 	C 	0.3286	0.5406	0.3182	0.005
Mof_H 	H 	0.3487	0.4864	0.2653	0.027
Mof_N 	N 	0.24236	0.6483	0.3514	-0.11
Mof_C 	C 	0.273	0.5674	0.2825	0.004
Mof_H 	H 	0.256	0.5266	0.2057	0.043
Mof_O 	O 	0.44274	0.5231	0.3999	-0.616
Mof_O 	O 	0.4693	0.7509	0.817	-0.266
Mof_O 	O 	0.4751	0.947	0.743	-0.084
Mof_C 	C 	0.82246	0.8216	0.0071	-0.031
Mof_H 	H 	0.8384	0.7833	0.086	0.069
Mof_O 	O 	0.93001	0.9044	0.0955	-0.463
Mof_C 	C 	0.76725	0.7958	0.9626	0.053
Mof_C 	C 	0.85344	0.9037	0.9342	-0.111
Mof_C 	C 	0.91392	0.9302	0.9799	0.495
Mof_C 	C 	0.8286	0.9594	0.8182	-0.008
Mof_H 	H 	0.8487	0.0136	0.7653	0.037
Mof_N 	N 	0.74236	0.8517	0.8514	-0.112
Mof_C 	C 	0.773	0.9326	0.7825	0.015
Mof_H 	H 	0.756	0.9734	0.7057	0.041
Mof_O 	O 	0.94274	0.9769	0.8999	-0.513
Mof_O 	O 	0.9693	0.7491	0.317	-0.153
Mof_O 	O 	0.9751	0.553	0.243	0.036
Mof_C 	C 	0.32246	0.3216	0.0071	0
Mof_H 	H 	0.3384	0.2833	0.086	0.054
Mof_O 	O 	0.43001	0.4044	0.0955	-0.548
Mof_C 	C 	0.26725	0.2958	0.9626	0.032
Mof_C 	C 	0.35344	0.4037	0.9342	-0.151
Mof_C 	C 	0.41392	0.4302	0.9799	0.54
Mof_C 	C 	0.3286	0.4594	0.8182	0.01
Mof_H 	H 	0.3487	0.5136	0.7653	0.025
Mof_N 	N 	0.24236	0.3517	0.8514	-0.107
Mof_C 	C 	0.273	0.4326	0.7825	0.001
Mof_H 	H 	0.256	0.4734	0.7057	0.044
Mof_O 	O 	0.44274	0.4769	0.8999	-0.617
Mof_O 	O 	0.4693	0.2491	0.317	-0.266
Mof_O 	O 	0.4751	0.053	0.243	-0.084
Mof_C 	C 	0.17754	0.8216	0.4929	-0.023
Mof_H 	H 	0.1616	0.7833	0.414	0.062
Mof_O 	O 	0.06999	0.9044	0.4045	-0.524
Mof_C 	C 	0.23275	0.7958	0.5374	0.049
Mof_C 	C 	0.14656	0.9037	0.5658	-0.129
Mof_C 	C 	0.08608	0.9302	0.5201	0.507
Mof_C 	C 	0.1714	0.9594	0.6818	-0.002
Mof_H 	H 	0.1513	0.0136	0.7347	0.032
Mof_N 	N 	0.25764	0.8517	0.6486	-0.111
Mof_C 	C 	0.227	0.9326	0.7175	0.009
Mof_H 	H 	0.244	0.9734	0.7943	0.043
Mof_O 	O 	0.05726	0.9769	0.6001	-0.587
Mof_O 	O 	0.0307	0.7491	0.183	-0.257
Mof_O 	O 	0.0249	0.553	0.257	-0.162
Mof_C 	C 	0.67754	0.3216	0.4929	-0.012
Mof_H 	H 	0.6616	0.2833	0.414	0.058
Mof_O 	O 	0.56999	0.4044	0.4045	-0.549
Mof_C 	C 	0.73275	0.2958	0.5374	0.043
Mof_C 	C 	0.64656	0.4037	0.5658	-0.144
Mof_C 	C 	0.58608	0.4302	0.5201	0.541
Mof_C 	C 	0.6714	0.4594	0.6818	0.006
Mof_H 	H 	0.6513	0.5136	0.7347	0.027
Mof_N 	N 	0.75764	0.3517	0.6486	-0.107
Mof_C 	C 	0.727	0.4326	0.7175	0.004
Mof_H 	H 	0.744	0.4734	0.7943	0.045
Mof_O 	O 	0.55726	0.4769	0.6001	-0.616
Mof_O 	O 	0.5307	0.2491	0.183	-0.266
Mof_O 	O 	0.5249	0.053	0.257	-0.084
Mof_Dy	Dy	-6.0738e-18	0.0131	0.75	1.745
Mof_N 	N 	1.34533e-33	0.3143	0.75	-0.01
Mof_Dy	Dy	0.5	0.5131	0.75	2.039
Mof_N 	N 	0.5	0.8143	0.75	0.076
Mof_Dy	Dy	4.48444e-34	0.9869	0.25	1.746
Mof_N 	N 	4.48444e-34	0.6857	0.25	-0.011
Mof_Dy	Dy	0.5	0.4869	0.25	2.04
Mof_N 	N 	0.5	0.1857	0.25	0.076
_end
