data_functionalizedCrystal
_audit_creation_method	'EQeq! by Chris Wilmer'
_symmetry_space_group_name_H-M	'P1'
_symmetry_Int_Tables_number	1
_symmetry_cell_setting	triclinic
loop_
_symmetry_equiv_pos_as_xyz
  x,y,z
_cell_length_a	25.9263
_cell_length_b	25.9263
_cell_length_c	19.6532
_cell_angle_alpha	90
_cell_angle_beta	90
_cell_angle_gamma	120
loop_
_atom_site_label
_atom_site_type_symbol
_atom_site_fract_x
_atom_site_fract_y
_atom_site_fract_z
_atom_site_charge
Mof_Zn	Zn	0.10131	0.43277	0.40307	1.19
Mof_N 	N 	0.036	0.3734	0.4585	-0.284
Mof_C 	C 	0.0215	0.3167	0.4746	0.045
Mof_C 	C 	0.048	0.2821	0.4434	-0.127
Mof_H 	H 	0.0762	0.2957	0.4074	0.051
Mof_C 	C 	0.0236	0.2244	0.4772	0.057
Mof_H 	H 	0.0416	0.2011	0.4671	-0.203
Mof_C 	C 	0.039	0.178	0.452	0.382
Mof_H 	H 	0.0033	0.1389	0.4494	-0.092
Mof_H 	H 	0.0676	0.1759	0.4838	-0.053
Mof_H 	H 	0.0578	0.1893	0.4068	-0.08
Mof_N 	N 	0.172	0.4318	0.4368	-0.288
Mof_C 	C 	0.1902	0.4338	0.5012	0.06
Mof_C 	C 	0.1577	0.4328	0.5667	-0.182
Mof_H 	H 	0.1201	0.4309	0.5676	0.08
Mof_C 	C 	0.1908	0.4353	0.6272	0.124
Mof_C 	C 	0.147	0.437	0.679	0.736
Mof_H 	H 	0.1685	0.4625	0.7168	-0.125
Mof_H 	H 	0.1199	0.3961	0.6953	-0.165
Mof_H 	H 	0.123	0.4517	0.6561	-0.193
Mof_N 	N 	0.1127	0.5129	0.4273	-0.291
Mof_C 	C 	0.1599	0.5524	0.4612	0.007
Mof_H 	H 	0.1889	0.5455	0.482	0.019
Mof_O 	O 	0.0133	0.5473	0.3687	-0.171
Mof_N 	N 	0.0819	0.4058	0.3061	-0.281
Mof_C 	C 	0.0311	0.3544	0.2835	-0.002
Mof_H 	H 	0.0015	0.3245	0.3118	0.021
Mof_O 	O 	0.1851	0.5097	0.3049	-0.16
Mof_H 	H 	0.1747	0.437	0.67	-0.343
Mof_Zn	Zn	0.56723	0.66854	0.40307	1.191
Mof_N 	N 	0.6266	0.6626	0.4585	-0.284
Mof_C 	C 	0.6833	0.7048	0.4746	0.049
Mof_C 	C 	0.7179	0.7659	0.4434	-0.129
Mof_H 	H 	0.7043	0.7805	0.4074	0.053
Mof_C 	C 	0.7756	0.7992	0.4772	0.063
Mof_H 	H 	0.7989	0.8405	0.4671	-0.203
Mof_C 	C 	0.822	0.861	0.452	0.381
Mof_H 	H 	0.8611	0.8644	0.4494	-0.089
Mof_H 	H 	0.8241	0.8917	0.4838	-0.051
Mof_H 	H 	0.8107	0.8685	0.4068	-0.078
Mof_N 	N 	0.5682	0.7402	0.4368	-0.287
Mof_C 	C 	0.5662	0.7564	0.5012	0.061
Mof_C 	C 	0.5672	0.7249	0.5667	-0.181
Mof_H 	H 	0.5691	0.6892	0.5676	0.081
Mof_C 	C 	0.5647	0.7555	0.6272	0.125
Mof_C 	C 	0.563	0.71	0.679	0.738
Mof_H 	H 	0.5375	0.706	0.7168	-0.125
Mof_H 	H 	0.6039	0.7238	0.6953	-0.163
Mof_H 	H 	0.5483	0.6713	0.6561	-0.192
Mof_N 	N 	0.4871	0.5998	0.4273	-0.29
Mof_C 	C 	0.4476	0.6075	0.4612	0.007
Mof_H 	H 	0.4545	0.6434	0.482	0.019
Mof_O 	O 	0.4527	0.466	0.3687	-0.17
Mof_N 	N 	0.5942	0.6761	0.3061	-0.281
Mof_C 	C 	0.6456	0.6767	0.2835	-0.001
Mof_H 	H 	0.6755	0.677	0.3118	0.022
Mof_O 	O 	0.4903	0.6754	0.3049	-0.16
Mof_H 	H 	0.563	0.7377	0.67	-0.344
Mof_Zn	Zn	0.33146	0.89869	0.40307	1.192
Mof_N 	N 	0.3374	0.964	0.4585	-0.283
Mof_C 	C 	0.2952	0.9785	0.4746	0.054
Mof_C 	C 	0.2341	0.952	0.4434	-0.133
Mof_H 	H 	0.2195	0.9238	0.4074	0.055
Mof_C 	C 	0.2008	0.9764	0.4772	0.07
Mof_H 	H 	0.1595	0.9584	0.4671	-0.204
Mof_C 	C 	0.139	0.961	0.452	0.379
Mof_H 	H 	0.1356	0.9967	0.4494	-0.088
Mof_H 	H 	0.1083	0.9324	0.4838	-0.05
Mof_H 	H 	0.1315	0.9422	0.4068	-0.078
Mof_N 	N 	0.2598	0.828	0.4368	-0.287
Mof_C 	C 	0.2436	0.8098	0.5012	0.061
Mof_C 	C 	0.2751	0.8423	0.5667	-0.182
Mof_H 	H 	0.3108	0.8799	0.5676	0.082
Mof_C 	C 	0.2445	0.8092	0.6272	0.126
Mof_C 	C 	0.29	0.853	0.679	0.739
Mof_H 	H 	0.294	0.8315	0.7168	-0.124
Mof_H 	H 	0.2762	0.8801	0.6953	-0.163
Mof_H 	H 	0.3287	0.877	0.6561	-0.191
Mof_N 	N 	0.4002	0.8873	0.4273	-0.29
Mof_C 	C 	0.3925	0.8401	0.4612	0.007
Mof_H 	H 	0.3566	0.8111	0.482	0.019
Mof_O 	O 	0.534	0.9867	0.3687	-0.169
Mof_N 	N 	0.3239	0.9181	0.3061	-0.281
Mof_C 	C 	0.3233	0.9689	0.2835	-0.001
Mof_H 	H 	0.323	0.9985	0.3118	0.022
Mof_O 	O 	0.3246	0.8149	0.3049	-0.16
Mof_H 	H 	0.2623	0.8253	0.67	-0.344
Mof_Zn	Zn	0.89869	0.56723	0.90307	1.192
Mof_N 	N 	0.964	0.6266	0.9585	-0.282
Mof_C 	C 	0.9785	0.6833	0.9746	0.058
Mof_C 	C 	0.952	0.7179	0.9434	-0.135
Mof_H 	H 	0.9238	0.7043	0.9074	0.056
Mof_C 	C 	0.9764	0.7756	0.9772	0.075
Mof_H 	H 	0.9584	0.7989	0.9671	-0.205
Mof_C 	C 	0.961	0.822	0.952	0.377
Mof_H 	H 	0.9967	0.8611	0.9494	-0.086
Mof_H 	H 	0.9324	0.8241	0.9838	-0.048
Mof_H 	H 	0.9422	0.8107	0.9068	-0.077
Mof_N 	N 	0.828	0.5682	0.9368	-0.285
Mof_C 	C 	0.8098	0.5662	0.0012	0.058
Mof_C 	C 	0.8423	0.5672	0.0667	-0.181
Mof_H 	H 	0.8799	0.5691	0.0676	0.081
Mof_C 	C 	0.8092	0.5647	0.1272	0.125
Mof_C 	C 	0.853	0.563	0.179	0.738
Mof_H 	H 	0.8315	0.5375	0.2168	-0.125
Mof_H 	H 	0.8801	0.6039	0.1953	-0.163
Mof_H 	H 	0.877	0.5483	0.1561	-0.192
Mof_N 	N 	0.8873	0.4871	0.9273	-0.29
Mof_C 	C 	0.8401	0.4476	0.9612	0.008
Mof_H 	H 	0.8111	0.4545	0.982	0.02
Mof_O 	O 	0.9867	0.4527	0.8687	-0.169
Mof_N 	N 	0.9181	0.5942	0.8061	-0.281
Mof_C 	C 	0.9689	0.6456	0.7835	-0.001
Mof_H 	H 	0.9985	0.6755	0.8118	0.022
Mof_O 	O 	0.8149	0.4903	0.8049	-0.16
Mof_H 	H 	0.8253	0.563	0.17	-0.344
Mof_Zn	Zn	0.43277	0.33146	0.90307	1.192
Mof_N 	N 	0.3734	0.3374	0.9585	-0.282
Mof_C 	C 	0.3167	0.2952	0.9746	0.055
Mof_C 	C 	0.2821	0.2341	0.9434	-0.133
Mof_H 	H 	0.2957	0.2195	0.9074	0.055
Mof_C 	C 	0.2244	0.2008	0.9772	0.071
Mof_H 	H 	0.2011	0.1595	0.9671	-0.204
Mof_C 	C 	0.178	0.139	0.952	0.378
Mof_H 	H 	0.1389	0.1356	0.9494	-0.088
Mof_H 	H 	0.1759	0.1083	0.9838	-0.049
Mof_H 	H 	0.1893	0.1315	0.9068	-0.078
Mof_N 	N 	0.4318	0.2598	0.9368	-0.285
Mof_C 	C 	0.4338	0.2436	0.0012	0.058
Mof_C 	C 	0.4328	0.2751	0.0667	-0.181
Mof_H 	H 	0.4309	0.3108	0.0676	0.081
Mof_C 	C 	0.4353	0.2445	0.1272	0.125
Mof_C 	C 	0.437	0.29	0.179	0.737
Mof_H 	H 	0.4625	0.294	0.2168	-0.125
Mof_H 	H 	0.3961	0.2762	0.1953	-0.164
Mof_H 	H 	0.4517	0.3287	0.1561	-0.192
Mof_N 	N 	0.5129	0.4002	0.9273	-0.29
Mof_C 	C 	0.5524	0.3925	0.9612	0.007
Mof_H 	H 	0.5455	0.3566	0.982	0.02
Mof_O 	O 	0.5473	0.534	0.8687	-0.169
Mof_N 	N 	0.4058	0.3239	0.8061	-0.281
Mof_C 	C 	0.3544	0.3233	0.7835	-0.001
Mof_H 	H 	0.3245	0.323	0.8118	0.022
Mof_O 	O 	0.5097	0.3246	0.8049	-0.16
Mof_H 	H 	0.437	0.2623	0.17	-0.343
Mof_Zn	Zn	0.66854	0.10131	0.90307	1.192
Mof_N 	N 	0.6626	0.036	0.9585	-0.281
Mof_C 	C 	0.7048	0.0215	0.9746	0.05
Mof_C 	C 	0.7659	0.048	0.9434	-0.129
Mof_H 	H 	0.7805	0.0762	0.9074	0.053
Mof_C 	C 	0.7992	0.0236	0.9772	0.063
Mof_H 	H 	0.8405	0.0416	0.9671	-0.203
Mof_C 	C 	0.861	0.039	0.952	0.381
Mof_H 	H 	0.8644	0.0033	0.9494	-0.09
Mof_H 	H 	0.8917	0.0676	0.9838	-0.051
Mof_H 	H 	0.8685	0.0578	0.9068	-0.079
Mof_N 	N 	0.7402	0.172	0.9368	-0.285
Mof_C 	C 	0.7564	0.1902	0.0012	0.057
Mof_C 	C 	0.7249	0.1577	0.0667	-0.181
Mof_H 	H 	0.6892	0.1201	0.0676	0.08
Mof_C 	C 	0.7555	0.1908	0.1272	0.124
Mof_C 	C 	0.71	0.147	0.179	0.736
Mof_H 	H 	0.706	0.1685	0.2168	-0.125
Mof_H 	H 	0.7238	0.1199	0.1953	-0.164
Mof_H 	H 	0.6713	0.123	0.1561	-0.192
Mof_N 	N 	0.5998	0.1127	0.9273	-0.29
Mof_C 	C 	0.6075	0.1599	0.9612	0.007
Mof_H 	H 	0.6434	0.1889	0.982	0.02
Mof_O 	O 	0.466	0.0133	0.8687	-0.17
Mof_N 	N 	0.6761	0.0819	0.8061	-0.281
Mof_C 	C 	0.6767	0.0311	0.7835	-0.002
Mof_H 	H 	0.677	0.0015	0.8118	0.021
Mof_O 	O 	0.6754	0.1851	0.8049	-0.16
Mof_H 	H 	0.7377	0.1747	0.17	-0.343
Mof_Zn	Zn	0.43277	0.10131	0.59693	1.191
Mof_N 	N 	0.3734	0.036	0.5415	-0.283
Mof_C 	C 	0.3167	0.0215	0.5254	0.044
Mof_C 	C 	0.2821	0.048	0.5566	-0.125
Mof_H 	H 	0.2957	0.0762	0.5926	0.052
Mof_C 	C 	0.2244	0.0236	0.5228	0.055
Mof_H 	H 	0.2011	0.0416	0.5329	-0.202
Mof_C 	C 	0.178	0.039	0.548	0.384
Mof_H 	H 	0.1389	0.0033	0.5506	-0.092
Mof_H 	H 	0.1759	0.0676	0.5162	-0.052
Mof_H 	H 	0.1893	0.0578	0.5932	-0.08
Mof_N 	N 	0.4318	0.172	0.5632	-0.287
Mof_C 	C 	0.4338	0.1902	0.4988	0.06
Mof_C 	C 	0.4328	0.1577	0.4333	-0.181
Mof_H 	H 	0.4309	0.1201	0.4324	0.081
Mof_C 	C 	0.4353	0.1908	0.3728	0.125
Mof_C 	C 	0.437	0.147	0.321	0.736
Mof_H 	H 	0.4625	0.1685	0.2832	-0.124
Mof_H 	H 	0.3961	0.1199	0.3047	-0.164
Mof_H 	H 	0.4517	0.123	0.3439	-0.192
Mof_N 	N 	0.5129	0.1127	0.5727	-0.29
Mof_C 	C 	0.5524	0.1599	0.5388	0.007
Mof_H 	H 	0.5455	0.1889	0.518	0.019
Mof_O 	O 	0.5473	0.0133	0.6313	-0.171
Mof_N 	N 	0.4058	0.0819	0.6939	-0.281
Mof_C 	C 	0.3544	0.0311	0.7165	-0.002
Mof_H 	H 	0.3245	0.0015	0.6882	0.021
Mof_O 	O 	0.5097	0.1851	0.6951	-0.16
Mof_H 	H 	0.437	0.1747	0.33	-0.343
Mof_Zn	Zn	0.66854	0.56723	0.59693	1.191
Mof_N 	N 	0.6626	0.6266	0.5415	-0.284
Mof_C 	C 	0.7048	0.6833	0.5254	0.049
Mof_C 	C 	0.7659	0.7179	0.5566	-0.129
Mof_H 	H 	0.7805	0.7043	0.5926	0.053
Mof_C 	C 	0.7992	0.7756	0.5228	0.063
Mof_H 	H 	0.8405	0.7989	0.5329	-0.204
Mof_C 	C 	0.861	0.822	0.548	0.382
Mof_H 	H 	0.8644	0.8611	0.5506	-0.089
Mof_H 	H 	0.8917	0.8241	0.5162	-0.051
Mof_H 	H 	0.8685	0.8107	0.5932	-0.078
Mof_N 	N 	0.7402	0.5682	0.5632	-0.287
Mof_C 	C 	0.7564	0.5662	0.4988	0.061
Mof_C 	C 	0.7249	0.5672	0.4333	-0.181
Mof_H 	H 	0.6892	0.5691	0.4324	0.081
Mof_C 	C 	0.7555	0.5647	0.3728	0.125
Mof_C 	C 	0.71	0.563	0.321	0.738
Mof_H 	H 	0.706	0.5375	0.2832	-0.125
Mof_H 	H 	0.7238	0.6039	0.3047	-0.163
Mof_H 	H 	0.6713	0.5483	0.3439	-0.192
Mof_N 	N 	0.5998	0.4871	0.5727	-0.29
Mof_C 	C 	0.6075	0.4476	0.5388	0.007
Mof_H 	H 	0.6434	0.4545	0.518	0.019
Mof_O 	O 	0.466	0.4527	0.6313	-0.17
Mof_N 	N 	0.6761	0.5942	0.6939	-0.281
Mof_C 	C 	0.6767	0.6456	0.7165	-0.001
Mof_H 	H 	0.677	0.6755	0.6882	0.022
Mof_O 	O 	0.6754	0.4903	0.6951	-0.16
Mof_H 	H 	0.7377	0.563	0.33	-0.343
Mof_Zn	Zn	0.89869	0.33146	0.59693	1.191
Mof_N 	N 	0.964	0.3374	0.5415	-0.283
Mof_C 	C 	0.9785	0.2952	0.5254	0.052
Mof_C 	C 	0.952	0.2341	0.5566	-0.131
Mof_H 	H 	0.9238	0.2195	0.5926	0.054
Mof_C 	C 	0.9764	0.2008	0.5228	0.067
Mof_H 	H 	0.9584	0.1595	0.5329	-0.204
Mof_C 	C 	0.961	0.139	0.548	0.38
Mof_H 	H 	0.9967	0.1356	0.5506	-0.089
Mof_H 	H 	0.9324	0.1083	0.5162	-0.05
Mof_H 	H 	0.9422	0.1315	0.5932	-0.078
Mof_N 	N 	0.828	0.2598	0.5632	-0.287
Mof_C 	C 	0.8098	0.2436	0.4988	0.061
Mof_C 	C 	0.8423	0.2751	0.4333	-0.182
Mof_H 	H 	0.8799	0.3108	0.4324	0.082
Mof_C 	C 	0.8092	0.2445	0.3728	0.126
Mof_C 	C 	0.853	0.29	0.321	0.738
Mof_H 	H 	0.8315	0.294	0.2832	-0.125
Mof_H 	H 	0.8801	0.2762	0.3047	-0.163
Mof_H 	H 	0.877	0.3287	0.3439	-0.192
Mof_N 	N 	0.8873	0.4002	0.5727	-0.29
Mof_C 	C 	0.8401	0.3925	0.5388	0.007
Mof_H 	H 	0.8111	0.3566	0.518	0.019
Mof_O 	O 	0.9867	0.534	0.6313	-0.169
Mof_N 	N 	0.9181	0.3239	0.6939	-0.281
Mof_C 	C 	0.9689	0.3233	0.7165	-0.001
Mof_H 	H 	0.9985	0.323	0.6882	0.022
Mof_O 	O 	0.8149	0.3246	0.6951	-0.16
Mof_H 	H 	0.8253	0.2623	0.33	-0.344
Mof_Zn	Zn	0.56723	0.89869	0.09693	1.191
Mof_N 	N 	0.6266	0.964	0.0415	-0.282
Mof_C 	C 	0.6833	0.9785	0.0254	0.049
Mof_C 	C 	0.7179	0.952	0.0566	-0.129
Mof_H 	H 	0.7043	0.9238	0.0926	0.053
Mof_C 	C 	0.7756	0.9764	0.0228	0.063
Mof_H 	H 	0.7989	0.9584	0.0329	-0.204
Mof_C 	C 	0.822	0.961	0.048	0.382
Mof_H 	H 	0.8611	0.9967	0.0506	-0.089
Mof_H 	H 	0.8241	0.9324	0.0162	-0.051
Mof_H 	H 	0.8107	0.9422	0.0932	-0.078
Mof_N 	N 	0.5682	0.828	0.0632	-0.289
Mof_C 	C 	0.5662	0.8098	0.9988	0.064
Mof_C 	C 	0.5672	0.8423	0.9333	-0.182
Mof_H 	H 	0.5691	0.8799	0.9324	0.083
Mof_C 	C 	0.5647	0.8092	0.8728	0.127
Mof_C 	C 	0.563	0.853	0.821	0.739
Mof_H 	H 	0.5375	0.8315	0.7832	-0.124
Mof_H 	H 	0.6039	0.8801	0.8047	-0.163
Mof_H 	H 	0.5483	0.877	0.8439	-0.191
Mof_N 	N 	0.4871	0.8873	0.0727	-0.29
Mof_C 	C 	0.4476	0.8401	0.0388	0.007
Mof_H 	H 	0.4545	0.8111	0.018	0.018
Mof_O 	O 	0.4527	0.9867	0.1313	-0.169
Mof_N 	N 	0.5942	0.9181	0.1939	-0.281
Mof_C 	C 	0.6456	0.9689	0.2165	-0.001
Mof_H 	H 	0.6755	0.9985	0.1882	0.023
Mof_O 	O 	0.4903	0.8149	0.1951	-0.16
Mof_H 	H 	0.563	0.8253	0.83	-0.344
Mof_Zn	Zn	0.33146	0.43277	0.09693	1.191
Mof_N 	N 	0.3374	0.3734	0.0415	-0.283
Mof_C 	C 	0.2952	0.3167	0.0254	0.043
Mof_C 	C 	0.2341	0.2821	0.0566	-0.125
Mof_H 	H 	0.2195	0.2957	0.0926	0.052
Mof_C 	C 	0.2008	0.2244	0.0228	0.054
Mof_H 	H 	0.1595	0.2011	0.0329	-0.202
Mof_C 	C 	0.139	0.178	0.048	0.384
Mof_H 	H 	0.1356	0.1389	0.0506	-0.092
Mof_H 	H 	0.1083	0.1759	0.0162	-0.053
Mof_H 	H 	0.1315	0.1893	0.0932	-0.08
Mof_N 	N 	0.2598	0.4318	0.0632	-0.289
Mof_C 	C 	0.2436	0.4338	0.9988	0.064
Mof_C 	C 	0.2751	0.4328	0.9333	-0.182
Mof_H 	H 	0.3108	0.4309	0.9324	0.083
Mof_C 	C 	0.2445	0.4353	0.8728	0.126
Mof_C 	C 	0.29	0.437	0.821	0.738
Mof_H 	H 	0.294	0.4625	0.7832	-0.124
Mof_H 	H 	0.2762	0.3961	0.8047	-0.163
Mof_H 	H 	0.3287	0.4517	0.8439	-0.192
Mof_N 	N 	0.4002	0.5129	0.0727	-0.29
Mof_C 	C 	0.3925	0.5524	0.0388	0.007
Mof_H 	H 	0.3566	0.5455	0.018	0.018
Mof_O 	O 	0.534	0.5473	0.1313	-0.17
Mof_N 	N 	0.3239	0.4058	0.1939	-0.281
Mof_C 	C 	0.3233	0.3544	0.2165	-0.001
Mof_H 	H 	0.323	0.3245	0.1882	0.022
Mof_O 	O 	0.3246	0.5097	0.1951	-0.16
Mof_H 	H 	0.2623	0.437	0.83	-0.344
Mof_Zn	Zn	0.10131	0.66854	0.09693	1.191
Mof_N 	N 	0.036	0.6626	0.0415	-0.282
Mof_C 	C 	0.0215	0.7048	0.0254	0.04
Mof_C 	C 	0.048	0.7659	0.0566	-0.122
Mof_H 	H 	0.0762	0.7805	0.0926	0.051
Mof_C 	C 	0.0236	0.7992	0.0228	0.05
Mof_H 	H 	0.0416	0.8405	0.0329	-0.202
Mof_C 	C 	0.039	0.861	0.048	0.386
Mof_H 	H 	0.0033	0.8644	0.0506	-0.093
Mof_H 	H 	0.0676	0.8917	0.0162	-0.053
Mof_H 	H 	0.0578	0.8685	0.0932	-0.08
Mof_N 	N 	0.172	0.7402	0.0632	-0.289
Mof_C 	C 	0.1902	0.7564	0.9988	0.063
Mof_C 	C 	0.1577	0.7249	0.9333	-0.181
Mof_H 	H 	0.1201	0.6892	0.9324	0.082
Mof_C 	C 	0.1908	0.7555	0.8728	0.125
Mof_C 	C 	0.147	0.71	0.821	0.737
Mof_H 	H 	0.1685	0.706	0.7832	-0.124
Mof_H 	H 	0.1199	0.7238	0.8047	-0.164
Mof_H 	H 	0.123	0.6713	0.8439	-0.192
Mof_N 	N 	0.1127	0.5998	0.0727	-0.29
Mof_C 	C 	0.1599	0.6075	0.0388	0.007
Mof_H 	H 	0.1889	0.6434	0.018	0.018
Mof_O 	O 	0.0133	0.466	0.1313	-0.171
Mof_N 	N 	0.0819	0.6761	0.1939	-0.281
Mof_C 	C 	0.0311	0.6767	0.2165	-0.001
Mof_H 	H 	0.0015	0.677	0.1882	0.021
Mof_O 	O 	0.1851	0.6754	0.1951	-0.16
Mof_H 	H 	0.1747	0.7377	0.83	-0.343
Mof_Zn	Zn	0.89869	0.56723	0.59693	1.191
Mof_N 	N 	0.964	0.6266	0.5415	-0.283
Mof_C 	C 	0.9785	0.6833	0.5254	0.053
Mof_C 	C 	0.952	0.7179	0.5566	-0.132
Mof_H 	H 	0.9238	0.7043	0.5926	0.054
Mof_C 	C 	0.9764	0.7756	0.5228	0.068
Mof_H 	H 	0.9584	0.7989	0.5329	-0.204
Mof_C 	C 	0.961	0.822	0.548	0.38
Mof_H 	H 	0.9967	0.8611	0.5506	-0.088
Mof_H 	H 	0.9324	0.8241	0.5162	-0.05
Mof_H 	H 	0.9422	0.8107	0.5932	-0.078
Mof_N 	N 	0.828	0.5682	0.5632	-0.287
Mof_C 	C 	0.8098	0.5662	0.4988	0.061
Mof_C 	C 	0.8423	0.5672	0.4333	-0.182
Mof_H 	H 	0.8799	0.5691	0.4324	0.082
Mof_C 	C 	0.8092	0.5647	0.3728	0.126
Mof_C 	C 	0.853	0.563	0.321	0.738
Mof_H 	H 	0.8315	0.5375	0.2832	-0.125
Mof_H 	H 	0.8801	0.6039	0.3047	-0.163
Mof_H 	H 	0.877	0.5483	0.3439	-0.192
Mof_N 	N 	0.8873	0.4871	0.5727	-0.29
Mof_C 	C 	0.8401	0.4476	0.5388	0.007
Mof_H 	H 	0.8111	0.4545	0.518	0.019
Mof_O 	O 	0.9867	0.4527	0.6313	-0.169
Mof_N 	N 	0.9181	0.5942	0.6939	-0.281
Mof_C 	C 	0.9689	0.6456	0.7165	-0.001
Mof_H 	H 	0.9985	0.6755	0.6882	0.022
Mof_O 	O 	0.8149	0.4903	0.6951	-0.16
Mof_H 	H 	0.8253	0.563	0.33	-0.344
Mof_Zn	Zn	0.43277	0.33146	0.59693	1.191
Mof_N 	N 	0.3734	0.3374	0.5415	-0.284
Mof_C 	C 	0.3167	0.2952	0.5254	0.049
Mof_C 	C 	0.2821	0.2341	0.5566	-0.129
Mof_H 	H 	0.2957	0.2195	0.5926	0.053
Mof_C 	C 	0.2244	0.2008	0.5228	0.063
Mof_H 	H 	0.2011	0.1595	0.5329	-0.203
Mof_C 	C 	0.178	0.139	0.548	0.381
Mof_H 	H 	0.1389	0.1356	0.5506	-0.09
Mof_H 	H 	0.1759	0.1083	0.5162	-0.051
Mof_H 	H 	0.1893	0.1315	0.5932	-0.079
Mof_N 	N 	0.4318	0.2598	0.5632	-0.287
Mof_C 	C 	0.4338	0.2436	0.4988	0.061
Mof_C 	C 	0.4328	0.2751	0.4333	-0.181
Mof_H 	H 	0.4309	0.3108	0.4324	0.081
Mof_C 	C 	0.4353	0.2445	0.3728	0.125
Mof_C 	C 	0.437	0.29	0.321	0.737
Mof_H 	H 	0.4625	0.294	0.2832	-0.124
Mof_H 	H 	0.3961	0.2762	0.3047	-0.163
Mof_H 	H 	0.4517	0.3287	0.3439	-0.192
Mof_N 	N 	0.5129	0.4002	0.5727	-0.29
Mof_C 	C 	0.5524	0.3925	0.5388	0.007
Mof_H 	H 	0.5455	0.3566	0.518	0.019
Mof_O 	O 	0.5473	0.534	0.6313	-0.17
Mof_N 	N 	0.4058	0.3239	0.6939	-0.281
Mof_C 	C 	0.3544	0.3233	0.7165	-0.001
Mof_H 	H 	0.3245	0.323	0.6882	0.022
Mof_O 	O 	0.5097	0.3246	0.6951	-0.16
Mof_H 	H 	0.437	0.2623	0.33	-0.343
Mof_Zn	Zn	0.66854	0.10131	0.59693	1.191
Mof_N 	N 	0.6626	0.036	0.5415	-0.283
Mof_C 	C 	0.7048	0.0215	0.5254	0.043
Mof_C 	C 	0.7659	0.048	0.5566	-0.125
Mof_H 	H 	0.7805	0.0762	0.5926	0.052
Mof_C 	C 	0.7992	0.0236	0.5228	0.055
Mof_H 	H 	0.8405	0.0416	0.5329	-0.202
Mof_C 	C 	0.861	0.039	0.548	0.384
Mof_H 	H 	0.8644	0.0033	0.5506	-0.092
Mof_H 	H 	0.8917	0.0676	0.5162	-0.053
Mof_H 	H 	0.8685	0.0578	0.5932	-0.079
Mof_N 	N 	0.7402	0.172	0.5632	-0.287
Mof_C 	C 	0.7564	0.1902	0.4988	0.06
Mof_C 	C 	0.7249	0.1577	0.4333	-0.181
Mof_H 	H 	0.6892	0.1201	0.4324	0.081
Mof_C 	C 	0.7555	0.1908	0.3728	0.124
Mof_C 	C 	0.71	0.147	0.321	0.737
Mof_H 	H 	0.706	0.1685	0.2832	-0.125
Mof_H 	H 	0.7238	0.1199	0.3047	-0.164
Mof_H 	H 	0.6713	0.123	0.3439	-0.192
Mof_N 	N 	0.5998	0.1127	0.5727	-0.29
Mof_C 	C 	0.6075	0.1599	0.5388	0.007
Mof_H 	H 	0.6434	0.1889	0.518	0.019
Mof_O 	O 	0.466	0.0133	0.6313	-0.171
Mof_N 	N 	0.6761	0.0819	0.6939	-0.281
Mof_C 	C 	0.6767	0.0311	0.7165	-0.002
Mof_H 	H 	0.677	0.0015	0.6882	0.021
Mof_O 	O 	0.6754	0.1851	0.6951	-0.16
Mof_H 	H 	0.7377	0.1747	0.33	-0.343
Mof_Zn	Zn	0.10131	0.43277	0.09693	1.191
Mof_N 	N 	0.036	0.3734	0.0415	-0.282
Mof_C 	C 	0.0215	0.3167	0.0254	0.04
Mof_C 	C 	0.048	0.2821	0.0566	-0.122
Mof_H 	H 	0.0762	0.2957	0.0926	0.051
Mof_C 	C 	0.0236	0.2244	0.0228	0.05
Mof_H 	H 	0.0416	0.2011	0.0329	-0.202
Mof_C 	C 	0.039	0.178	0.048	0.386
Mof_H 	H 	0.0033	0.1389	0.0506	-0.093
Mof_H 	H 	0.0676	0.1759	0.0162	-0.053
Mof_H 	H 	0.0578	0.1893	0.0932	-0.08
Mof_N 	N 	0.172	0.4318	0.0632	-0.289
Mof_C 	C 	0.1902	0.4338	0.9988	0.064
Mof_C 	C 	0.1577	0.4328	0.9333	-0.181
Mof_H 	H 	0.1201	0.4309	0.9324	0.082
Mof_C 	C 	0.1908	0.4353	0.8728	0.125
Mof_C 	C 	0.147	0.437	0.821	0.737
Mof_H 	H 	0.1685	0.4625	0.7832	-0.124
Mof_H 	H 	0.1199	0.3961	0.8047	-0.164
Mof_H 	H 	0.123	0.4517	0.8439	-0.192
Mof_N 	N 	0.1127	0.5129	0.0727	-0.29
Mof_C 	C 	0.1599	0.5524	0.0388	0.007
Mof_H 	H 	0.1889	0.5455	0.018	0.018
Mof_O 	O 	0.0133	0.5473	0.1313	-0.171
Mof_N 	N 	0.0819	0.4058	0.1939	-0.281
Mof_C 	C 	0.0311	0.3544	0.2165	-0.001
Mof_H 	H 	0.0015	0.3245	0.1882	0.021
Mof_O 	O 	0.1851	0.5097	0.1951	-0.16
Mof_H 	H 	0.1747	0.437	0.83	-0.343
Mof_Zn	Zn	0.56723	0.66854	0.09693	1.191
Mof_N 	N 	0.6266	0.6626	0.0415	-0.283
Mof_C 	C 	0.6833	0.7048	0.0254	0.043
Mof_C 	C 	0.7179	0.7659	0.0566	-0.125
Mof_H 	H 	0.7043	0.7805	0.0926	0.052
Mof_C 	C 	0.7756	0.7992	0.0228	0.055
Mof_H 	H 	0.7989	0.8405	0.0329	-0.203
Mof_C 	C 	0.822	0.861	0.048	0.384
Mof_H 	H 	0.8611	0.8644	0.0506	-0.091
Mof_H 	H 	0.8241	0.8917	0.0162	-0.052
Mof_H 	H 	0.8107	0.8685	0.0932	-0.079
Mof_N 	N 	0.5682	0.7402	0.0632	-0.289
Mof_C 	C 	0.5662	0.7564	0.9988	0.064
Mof_C 	C 	0.5672	0.7249	0.9333	-0.181
Mof_H 	H 	0.5691	0.6892	0.9324	0.083
Mof_C 	C 	0.5647	0.7555	0.8728	0.126
Mof_C 	C 	0.563	0.71	0.821	0.738
Mof_H 	H 	0.5375	0.706	0.7832	-0.125
Mof_H 	H 	0.6039	0.7238	0.8047	-0.163
Mof_H 	H 	0.5483	0.6713	0.8439	-0.192
Mof_N 	N 	0.4871	0.5998	0.0727	-0.29
Mof_C 	C 	0.4476	0.6075	0.0388	0.007
Mof_H 	H 	0.4545	0.6434	0.018	0.018
Mof_O 	O 	0.4527	0.466	0.1313	-0.17
Mof_N 	N 	0.5942	0.6761	0.1939	-0.281
Mof_C 	C 	0.6456	0.6767	0.2165	-0.001
Mof_H 	H 	0.6755	0.677	0.1882	0.022
Mof_O 	O 	0.4903	0.6754	0.1951	-0.16
Mof_H 	H 	0.563	0.7377	0.83	-0.344
Mof_Zn	Zn	0.33146	0.89869	0.09693	1.191
Mof_N 	N 	0.3374	0.964	0.0415	-0.282
Mof_C 	C 	0.2952	0.9785	0.0254	0.048
Mof_C 	C 	0.2341	0.952	0.0566	-0.129
Mof_H 	H 	0.2195	0.9238	0.0926	0.053
Mof_C 	C 	0.2008	0.9764	0.0228	0.062
Mof_H 	H 	0.1595	0.9584	0.0329	-0.204
Mof_C 	C 	0.139	0.961	0.048	0.382
Mof_H 	H 	0.1356	0.9967	0.0506	-0.09
Mof_H 	H 	0.1083	0.9324	0.0162	-0.051
Mof_H 	H 	0.1315	0.9422	0.0932	-0.078
Mof_N 	N 	0.2598	0.828	0.0632	-0.289
Mof_C 	C 	0.2436	0.8098	0.9988	0.064
Mof_C 	C 	0.2751	0.8423	0.9333	-0.182
Mof_H 	H 	0.3108	0.8799	0.9324	0.083
Mof_C 	C 	0.2445	0.8092	0.8728	0.127
Mof_C 	C 	0.29	0.853	0.821	0.739
Mof_H 	H 	0.294	0.8315	0.7832	-0.124
Mof_H 	H 	0.2762	0.8801	0.8047	-0.163
Mof_H 	H 	0.3287	0.877	0.8439	-0.191
Mof_N 	N 	0.4002	0.8873	0.0727	-0.29
Mof_C 	C 	0.3925	0.8401	0.0388	0.007
Mof_H 	H 	0.3566	0.8111	0.018	0.018
Mof_O 	O 	0.534	0.9867	0.1313	-0.169
Mof_N 	N 	0.3239	0.9181	0.1939	-0.281
Mof_C 	C 	0.3233	0.9689	0.2165	-0.001
Mof_H 	H 	0.323	0.9985	0.1882	0.022
Mof_O 	O 	0.3246	0.8149	0.1951	-0.16
Mof_H 	H 	0.2623	0.8253	0.83	-0.344
Mof_Zn	Zn	0.56723	0.89869	0.40307	1.192
Mof_N 	N 	0.6266	0.964	0.4585	-0.283
Mof_C 	C 	0.6833	0.9785	0.4746	0.054
Mof_C 	C 	0.7179	0.952	0.4434	-0.133
Mof_H 	H 	0.7043	0.9238	0.4074	0.055
Mof_C 	C 	0.7756	0.9764	0.4772	0.07
Mof_H 	H 	0.7989	0.9584	0.4671	-0.204
Mof_C 	C 	0.822	0.961	0.452	0.379
Mof_H 	H 	0.8611	0.9967	0.4494	-0.087
Mof_H 	H 	0.8241	0.9324	0.4838	-0.049
Mof_H 	H 	0.8107	0.9422	0.4068	-0.077
Mof_N 	N 	0.5682	0.828	0.4368	-0.287
Mof_C 	C 	0.5662	0.8098	0.5012	0.061
Mof_C 	C 	0.5672	0.8423	0.5667	-0.182
Mof_H 	H 	0.5691	0.8799	0.5676	0.082
Mof_C 	C 	0.5647	0.8092	0.6272	0.126
Mof_C 	C 	0.563	0.853	0.679	0.739
Mof_H 	H 	0.5375	0.8315	0.7168	-0.125
Mof_H 	H 	0.6039	0.8801	0.6953	-0.163
Mof_H 	H 	0.5483	0.877	0.6561	-0.192
Mof_N 	N 	0.4871	0.8873	0.4273	-0.29
Mof_C 	C 	0.4476	0.8401	0.4612	0.007
Mof_H 	H 	0.4545	0.8111	0.482	0.019
Mof_O 	O 	0.4527	0.9867	0.3687	-0.169
Mof_N 	N 	0.5942	0.9181	0.3061	-0.281
Mof_C 	C 	0.6456	0.9689	0.2835	-0.001
Mof_H 	H 	0.6755	0.9985	0.3118	0.023
Mof_O 	O 	0.4903	0.8149	0.3049	-0.16
Mof_H 	H 	0.563	0.8253	0.67	-0.344
Mof_Zn	Zn	0.33146	0.43277	0.40307	1.191
Mof_N 	N 	0.3374	0.3734	0.4585	-0.284
Mof_C 	C 	0.2952	0.3167	0.4746	0.049
Mof_C 	C 	0.2341	0.2821	0.4434	-0.129
Mof_H 	H 	0.2195	0.2957	0.4074	0.053
Mof_C 	C 	0.2008	0.2244	0.4772	0.062
Mof_H 	H 	0.1595	0.2011	0.4671	-0.203
Mof_C 	C 	0.139	0.178	0.452	0.381
Mof_H 	H 	0.1356	0.1389	0.4494	-0.09
Mof_H 	H 	0.1083	0.1759	0.4838	-0.051
Mof_H 	H 	0.1315	0.1893	0.4068	-0.079
Mof_N 	N 	0.2598	0.4318	0.4368	-0.287
Mof_C 	C 	0.2436	0.4338	0.5012	0.061
Mof_C 	C 	0.2751	0.4328	0.5667	-0.181
Mof_H 	H 	0.3108	0.4309	0.5676	0.081
Mof_C 	C 	0.2445	0.4353	0.6272	0.125
Mof_C 	C 	0.29	0.437	0.679	0.737
Mof_H 	H 	0.294	0.4625	0.7168	-0.124
Mof_H 	H 	0.2762	0.3961	0.6953	-0.163
Mof_H 	H 	0.3287	0.4517	0.6561	-0.192
Mof_N 	N 	0.4002	0.5129	0.4273	-0.29
Mof_C 	C 	0.3925	0.5524	0.4612	0.007
Mof_H 	H 	0.3566	0.5455	0.482	0.019
Mof_O 	O 	0.534	0.5473	0.3687	-0.17
Mof_N 	N 	0.3239	0.4058	0.3061	-0.281
Mof_C 	C 	0.3233	0.3544	0.2835	-0.001
Mof_H 	H 	0.323	0.3245	0.3118	0.022
Mof_O 	O 	0.3246	0.5097	0.3049	-0.16
Mof_H 	H 	0.2623	0.437	0.67	-0.344
Mof_Zn	Zn	0.10131	0.66854	0.40307	1.191
Mof_N 	N 	0.036	0.6626	0.4585	-0.283
Mof_C 	C 	0.0215	0.7048	0.4746	0.045
Mof_C 	C 	0.048	0.7659	0.4434	-0.126
Mof_H 	H 	0.0762	0.7805	0.4074	0.052
Mof_C 	C 	0.0236	0.7992	0.4772	0.057
Mof_H 	H 	0.0416	0.8405	0.4671	-0.203
Mof_C 	C 	0.039	0.861	0.452	0.383
Mof_H 	H 	0.0033	0.8644	0.4494	-0.091
Mof_H 	H 	0.0676	0.8917	0.4838	-0.052
Mof_H 	H 	0.0578	0.8685	0.4068	-0.079
Mof_N 	N 	0.172	0.7402	0.4368	-0.287
Mof_C 	C 	0.1902	0.7564	0.5012	0.06
Mof_C 	C 	0.1577	0.7249	0.5667	-0.181
Mof_H 	H 	0.1201	0.6892	0.5676	0.081
Mof_C 	C 	0.1908	0.7555	0.6272	0.125
Mof_C 	C 	0.147	0.71	0.679	0.737
Mof_H 	H 	0.1685	0.706	0.7168	-0.125
Mof_H 	H 	0.1199	0.7238	0.6953	-0.164
Mof_H 	H 	0.123	0.6713	0.6561	-0.192
Mof_N 	N 	0.1127	0.5998	0.4273	-0.29
Mof_C 	C 	0.1599	0.6075	0.4612	0.007
Mof_H 	H 	0.1889	0.6434	0.482	0.019
Mof_O 	O 	0.0133	0.466	0.3687	-0.171
Mof_N 	N 	0.0819	0.6761	0.3061	-0.281
Mof_C 	C 	0.0311	0.6767	0.2835	-0.002
Mof_H 	H 	0.0015	0.677	0.3118	0.021
Mof_O 	O 	0.1851	0.6754	0.3049	-0.16
Mof_H 	H 	0.1747	0.7377	0.67	-0.343
Mof_Zn	Zn	0.43277	0.10131	0.90307	1.192
Mof_N 	N 	0.3734	0.036	0.9585	-0.281
Mof_C 	C 	0.3167	0.0215	0.9746	0.05
Mof_C 	C 	0.2821	0.048	0.9434	-0.129
Mof_H 	H 	0.2957	0.0762	0.9074	0.053
Mof_C 	C 	0.2244	0.0236	0.9772	0.063
Mof_H 	H 	0.2011	0.0416	0.9671	-0.203
Mof_C 	C 	0.178	0.039	0.952	0.381
Mof_H 	H 	0.1389	0.0033	0.9494	-0.09
Mof_H 	H 	0.1759	0.0676	0.9838	-0.051
Mof_H 	H 	0.1893	0.0578	0.9068	-0.079
Mof_N 	N 	0.4318	0.172	0.9368	-0.285
Mof_C 	C 	0.4338	0.1902	0.0012	0.058
Mof_C 	C 	0.4328	0.1577	0.0667	-0.181
Mof_H 	H 	0.4309	0.1201	0.0676	0.08
Mof_C 	C 	0.4353	0.1908	0.1272	0.124
Mof_C 	C 	0.437	0.147	0.179	0.736
Mof_H 	H 	0.4625	0.1685	0.2168	-0.125
Mof_H 	H 	0.3961	0.1199	0.1953	-0.164
Mof_H 	H 	0.4517	0.123	0.1561	-0.192
Mof_N 	N 	0.5129	0.1127	0.9273	-0.29
Mof_C 	C 	0.5524	0.1599	0.9612	0.007
Mof_H 	H 	0.5455	0.1889	0.982	0.02
Mof_O 	O 	0.5473	0.0133	0.8687	-0.17
Mof_N 	N 	0.4058	0.0819	0.8061	-0.281
Mof_C 	C 	0.3544	0.0311	0.7835	-0.002
Mof_H 	H 	0.3245	0.0015	0.8118	0.021
Mof_O 	O 	0.5097	0.1851	0.8049	-0.16
Mof_H 	H 	0.437	0.1747	0.17	-0.343
Mof_Zn	Zn	0.66854	0.56723	0.90307	1.192
Mof_N 	N 	0.6626	0.6266	0.9585	-0.282
Mof_C 	C 	0.7048	0.6833	0.9746	0.055
Mof_C 	C 	0.7659	0.7179	0.9434	-0.133
Mof_H 	H 	0.7805	0.7043	0.9074	0.055
Mof_C 	C 	0.7992	0.7756	0.9772	0.071
Mof_H 	H 	0.8405	0.7989	0.9671	-0.204
Mof_C 	C 	0.861	0.822	0.952	0.379
Mof_H 	H 	0.8644	0.8611	0.9494	-0.087
Mof_H 	H 	0.8917	0.8241	0.9838	-0.049
Mof_H 	H 	0.8685	0.8107	0.9068	-0.077
Mof_N 	N 	0.7402	0.5682	0.9368	-0.285
Mof_C 	C 	0.7564	0.5662	0.0012	0.058
Mof_C 	C 	0.7249	0.5672	0.0667	-0.181
Mof_H 	H 	0.6892	0.5691	0.0676	0.081
Mof_C 	C 	0.7555	0.5647	0.1272	0.125
Mof_C 	C 	0.71	0.563	0.179	0.738
Mof_H 	H 	0.706	0.5375	0.2168	-0.125
Mof_H 	H 	0.7238	0.6039	0.1953	-0.164
Mof_H 	H 	0.6713	0.5483	0.1561	-0.192
Mof_N 	N 	0.5998	0.4871	0.9273	-0.29
Mof_C 	C 	0.6075	0.4476	0.9612	0.007
Mof_H 	H 	0.6434	0.4545	0.982	0.02
Mof_O 	O 	0.466	0.4527	0.8687	-0.169
Mof_N 	N 	0.6761	0.5942	0.8061	-0.281
Mof_C 	C 	0.6767	0.6456	0.7835	-0.001
Mof_H 	H 	0.677	0.6755	0.8118	0.022
Mof_O 	O 	0.6754	0.4903	0.8049	-0.16
Mof_H 	H 	0.7377	0.563	0.17	-0.343
Mof_Zn	Zn	0.89869	0.33146	0.90307	1.192
Mof_N 	N 	0.964	0.3374	0.9585	-0.282
Mof_C 	C 	0.9785	0.2952	0.9746	0.058
Mof_C 	C 	0.952	0.2341	0.9434	-0.135
Mof_H 	H 	0.9238	0.2195	0.9074	0.056
Mof_C 	C 	0.9764	0.2008	0.9772	0.075
Mof_H 	H 	0.9584	0.1595	0.9671	-0.205
Mof_C 	C 	0.961	0.139	0.952	0.377
Mof_H 	H 	0.9967	0.1356	0.9494	-0.087
Mof_H 	H 	0.9324	0.1083	0.9838	-0.048
Mof_H 	H 	0.9422	0.1315	0.9068	-0.077
Mof_N 	N 	0.828	0.2598	0.9368	-0.285
Mof_C 	C 	0.8098	0.2436	0.0012	0.058
Mof_C 	C 	0.8423	0.2751	0.0667	-0.182
Mof_H 	H 	0.8799	0.3108	0.0676	0.081
Mof_C 	C 	0.8092	0.2445	0.1272	0.126
Mof_C 	C 	0.853	0.29	0.179	0.738
Mof_H 	H 	0.8315	0.294	0.2168	-0.125
Mof_H 	H 	0.8801	0.2762	0.1953	-0.163
Mof_H 	H 	0.877	0.3287	0.1561	-0.192
Mof_N 	N 	0.8873	0.4002	0.9273	-0.29
Mof_C 	C 	0.8401	0.3925	0.9612	0.008
Mof_H 	H 	0.8111	0.3566	0.982	0.02
Mof_O 	O 	0.9867	0.534	0.8687	-0.169
Mof_N 	N 	0.9181	0.3239	0.8061	-0.281
Mof_C 	C 	0.9689	0.3233	0.7835	-0.001
Mof_H 	H 	0.9985	0.323	0.8118	0.022
Mof_O 	O 	0.8149	0.3246	0.8049	-0.16
Mof_H 	H 	0.8253	0.2623	0.17	-0.344
Mof_C 	C 	3.30812e-17	0.3836	0.5	0.076
Mof_H 	H 	3.30812e-17	0.4202	0.5	-0.012
Mof_C 	C 	0.6164	0.6164	0.5	0.078
Mof_H 	H 	0.5798	0.5798	0.5	-0.012
Mof_C 	C 	0.3836	0	0.5	0.074
Mof_H 	H 	0.4202	0	0.5	-0.012
Mof_C 	C 	3.97489e-17	0.6164	-0	0.072
Mof_H 	H 	-0	0.5798	-0	-0.012
Mof_C 	C 	0.3836	0.3836	-0	0.074
Mof_H 	H 	0.4202	0.4202	-0	-0.012
Mof_C 	C 	0.6164	0	-0	0.07
Mof_H 	H 	0.5798	0	-0	-0.012
Mof_C 	C 	7.28301e-17	0.6164	0.5	0.076
Mof_H 	H 	3.30812e-17	0.5798	0.5	-0.012
Mof_C 	C 	0.3836	0.3836	0.5	0.078
Mof_H 	H 	0.4202	0.4202	0.5	-0.012
Mof_C 	C 	0.6164	0	0.5	0.074
Mof_H 	H 	0.5798	0	0.5	-0.012
Mof_C 	C 	-0	0.3836	-0	0.072
Mof_H 	H 	-0	0.4202	-0	-0.012
Mof_C 	C 	0.6164	0.6164	-0	0.074
Mof_H 	H 	0.5798	0.5798	-0	-0.012
Mof_C 	C 	0.3836	0	-0	0.07
Mof_H 	H 	0.4202	0	-0	-0.012
Mof_C 	C 	0.2165	0.433	0.3997	0.087
Mof_H 	H 	0.21735	0.4347	0.3514	-0.015
Mof_C 	C 	0.567	0.7835	0.3997	0.087
Mof_H 	H 	0.5653	0.78265	0.3514	-0.015
Mof_C 	C 	0.2165	0.7835	0.3997	0.087
Mof_H 	H 	0.21735	0.78265	0.3514	-0.015
Mof_C 	C 	0.7835	0.567	0.8997	0.088
Mof_H 	H 	0.78265	0.5653	0.8514	-0.015
Mof_C 	C 	0.433	0.2165	0.8997	0.088
Mof_H 	H 	0.4347	0.21735	0.8514	-0.015
Mof_C 	C 	0.7835	0.2165	0.8997	0.088
Mof_H 	H 	0.78265	0.21735	0.8514	-0.015
Mof_C 	C 	0.433	0.2165	0.6003	0.087
Mof_H 	H 	0.4347	0.21735	0.6486	-0.015
Mof_C 	C 	0.7835	0.567	0.6003	0.087
Mof_H 	H 	0.78265	0.5653	0.6486	-0.015
Mof_C 	C 	0.7835	0.2165	0.6003	0.087
Mof_H 	H 	0.78265	0.21735	0.6486	-0.015
Mof_C 	C 	0.567	0.7835	0.1003	0.087
Mof_H 	H 	0.5653	0.78265	0.1486	-0.015
Mof_C 	C 	0.2165	0.433	0.1003	0.087
Mof_H 	H 	0.21735	0.4347	0.1486	-0.015
Mof_C 	C 	0.2165	0.7835	0.1003	0.087
Mof_H 	H 	0.21735	0.78265	0.1486	-0.015
Mof_C 	C 	0.0923	0.54615	0.4131	0.227
Mof_N 	N 	0.039	0.5195	0.3751	-0.031
Mof_C 	C 	0.45385	0.54615	0.4131	0.227
Mof_N 	N 	0.4805	0.5195	0.3751	-0.031
Mof_C 	C 	0.45385	0.9077	0.4131	0.228
Mof_N 	N 	0.4805	0.961	0.3751	-0.031
Mof_C 	C 	0.9077	0.45385	0.9131	0.228
Mof_N 	N 	0.961	0.4805	0.8751	-0.031
Mof_C 	C 	0.54615	0.45385	0.9131	0.228
Mof_N 	N 	0.5195	0.4805	0.8751	-0.031
Mof_C 	C 	0.54615	0.0923	0.9131	0.228
Mof_N 	N 	0.5195	0.039	0.8751	-0.031
Mof_C 	C 	0.54615	0.0923	0.5869	0.227
Mof_N 	N 	0.5195	0.039	0.6249	-0.031
Mof_C 	C 	0.54615	0.45385	0.5869	0.227
Mof_N 	N 	0.5195	0.4805	0.6249	-0.031
Mof_C 	C 	0.9077	0.45385	0.5869	0.228
Mof_N 	N 	0.961	0.4805	0.6249	-0.031
Mof_C 	C 	0.45385	0.9077	0.0869	0.228
Mof_N 	N 	0.4805	0.961	0.1249	-0.031
Mof_C 	C 	0.45385	0.54615	0.0869	0.227
Mof_N 	N 	0.4805	0.5195	0.1249	-0.031
Mof_C 	C 	0.0923	0.54615	0.0869	0.227
Mof_N 	N 	0.039	0.5195	0.1249	-0.031
Mof_C 	C 	0.1073	0.43	0.25	0.185
Mof_N 	N 	0.1613	0.4849	0.25	-0.04
Mof_C 	C 	0.57	0.6773	0.25	0.185
Mof_N 	N 	0.5151	0.6764	0.25	-0.04
Mof_C 	C 	0.3227	0.8927	0.25	0.185
Mof_N 	N 	0.3236	0.8387	0.25	-0.04
Mof_C 	C 	0.8927	0.57	0.75	0.185
Mof_N 	N 	0.8387	0.5151	0.75	-0.04
Mof_C 	C 	0.43	0.3227	0.75	0.185
Mof_N 	N 	0.4849	0.3236	0.75	-0.04
Mof_C 	C 	0.6773	0.1073	0.75	0.185
Mof_N 	N 	0.6764	0.1613	0.75	-0.04
Mof_C 	C 	0.43	0.1073	0.75	0.185
Mof_N 	N 	0.4849	0.1613	0.75	-0.04
Mof_C 	C 	0.6773	0.57	0.75	0.185
Mof_N 	N 	0.6764	0.5151	0.75	-0.04
Mof_C 	C 	0.8927	0.3227	0.75	0.185
Mof_N 	N 	0.8387	0.3236	0.75	-0.04
Mof_C 	C 	0.57	0.8927	0.25	0.185
Mof_N 	N 	0.5151	0.8387	0.25	-0.04
Mof_C 	C 	0.3227	0.43	0.25	0.185
Mof_N 	N 	0.3236	0.4849	0.25	-0.04
Mof_C 	C 	0.1073	0.6773	0.25	0.185
Mof_N 	N 	0.1613	0.6764	0.25	-0.04
_end
