data_functionalizedCrystal
_audit_creation_method	'EQeq! by Chris Wilmer'
_symmetry_space_group_name_H-M	'P1'
_symmetry_Int_Tables_number	1
_symmetry_cell_setting	triclinic
loop_
_symmetry_equiv_pos_as_xyz
  x,y,z
_cell_length_a	16.8944
_cell_length_b	16.8944
_cell_length_c	7.5454
_cell_angle_alpha	90
_cell_angle_beta	90
_cell_angle_gamma	90
loop_
_atom_site_label
_atom_site_type_symbol
_atom_site_fract_x
_atom_site_fract_y
_atom_site_fract_z
_atom_site_charge
Mof_O 	O 	0.5363	0.3808	0.0165	-0.478
Mof_N 	N 	0.4236	0.3135	0.0745	-0.293
Mof_H 	H 	0.3981	0.355	0.0411	0.144
Mof_C 	C 	0.5067	0.3174	0.0722	0.392
Mof_O 	O 	0.0363	0.8808	0.5165	-0.419
Mof_N 	N 	0.9236	0.8135	0.5745	-0.234
Mof_H 	H 	0.8981	0.855	0.5411	0.172
Mof_C 	C 	0.0067	0.8174	0.5722	0.297
Mof_O 	O 	0.4637	0.6192	0.0165	-0.477
Mof_N 	N 	0.5764	0.6865	0.0745	-0.291
Mof_H 	H 	0.6019	0.645	0.0411	0.145
Mof_C 	C 	0.4933	0.6826	0.0722	0.392
Mof_O 	O 	0.9637	0.1192	0.5165	-0.458
Mof_N 	N 	0.0764	0.1865	0.5745	-0.35
Mof_H 	H 	0.1019	0.145	0.5411	0.155
Mof_C 	C 	0.9933	0.1826	0.5722	0.5
Mof_O 	O 	0.3808	0.4637	0.9835	-0.423
Mof_N 	N 	0.3135	0.5764	0.9255	-0.293
Mof_H 	H 	0.355	0.6019	0.9589	0.179
Mof_C 	C 	0.3174	0.4933	0.9278	0.402
Mof_O 	O 	0.8808	0.9637	0.4835	-0.404
Mof_N 	N 	0.8135	0.0764	0.4255	-0.346
Mof_H 	H 	0.855	0.1019	0.4589	0.166
Mof_C 	C 	0.8174	0.9933	0.4278	0.494
Mof_O 	O 	0.6192	0.5363	0.9835	-0.421
Mof_N 	N 	0.6865	0.4236	0.9255	-0.294
Mof_H 	H 	0.645	0.3981	0.9589	0.179
Mof_C 	C 	0.6826	0.5067	0.9278	0.403
Mof_O 	O 	0.1192	0.0363	0.4835	-0.471
Mof_N 	N 	0.1865	0.9236	0.4255	-0.237
Mof_H 	H 	0.145	0.8981	0.4589	0.161
Mof_C 	C 	0.1826	0.0067	0.4278	0.293
Mof_O 	O 	0.9637	0.3808	0.7335	-0.437
Mof_N 	N 	0.0764	0.3135	0.6755	-0.349
Mof_H 	H 	0.1019	0.355	0.7089	0.161
Mof_C 	C 	0.9933	0.3174	0.6778	0.5
Mof_O 	O 	0.4637	0.8808	0.2335	-0.42
Mof_N 	N 	0.5764	0.8135	0.1755	-0.291
Mof_H 	H 	0.6019	0.855	0.2089	0.167
Mof_C 	C 	0.4933	0.8174	0.1778	0.392
Mof_O 	O 	0.0363	0.6192	0.7335	-0.45
Mof_N 	N 	0.9236	0.6865	0.6755	-0.235
Mof_H 	H 	0.8981	0.645	0.7089	0.167
Mof_C 	C 	0.0067	0.6826	0.6778	0.297
Mof_O 	O 	0.5363	0.1192	0.2335	-0.473
Mof_N 	N 	0.4236	0.1865	0.1755	-0.295
Mof_H 	H 	0.3981	0.145	0.2089	0.156
Mof_C 	C 	0.5067	0.1826	0.1778	0.392
Mof_O 	O 	0.1192	0.4637	0.7665	-0.472
Mof_N 	N 	0.1865	0.5764	0.8245	-0.293
Mof_H 	H 	0.145	0.6019	0.7911	0.158
Mof_C 	C 	0.1826	0.4933	0.8222	0.401
Mof_O 	O 	0.6192	0.9637	0.2665	-0.439
Mof_N 	N 	0.6865	0.0764	0.3245	-0.348
Mof_H 	H 	0.645	0.1019	0.2911	0.158
Mof_C 	C 	0.6826	0.9933	0.3222	0.497
Mof_O 	O 	0.8808	0.5363	0.7665	-0.418
Mof_N 	N 	0.8135	0.4236	0.8245	-0.291
Mof_H 	H 	0.855	0.3981	0.7911	0.169
Mof_C 	C 	0.8174	0.5067	0.8222	0.401
Mof_O 	O 	0.3808	0.0363	0.2665	-0.455
Mof_N 	N 	0.3135	0.9236	0.3245	-0.237
Mof_H 	H 	0.355	0.8981	0.2911	0.164
Mof_C 	C 	0.3174	0.0067	0.3222	0.294
Mof_Ni	Ni	0.5	0.5	-0	1.048
Mof_Ni	Ni	3.76765e-33	2.93037e-33	0.5	0.99
Mof_Ni	Ni	7.11666e-33	0.5	0.75	1.03
Mof_Ni	Ni	0.5	1.46519e-33	0.25	1.028
Mof_S 	S 	0.28287	0.25	0.125	-0.129
Mof_C 	C 	0.3801	0.25	0.125	0.171
Mof_C 	C 	0.5475	0.25	0.125	-0.458
Mof_H 	H 	0.6026	0.25	0.125	0.19
Mof_S 	S 	0.71713	0.75	0.125	-0.091
Mof_C 	C 	0.6199	0.75	0.125	0.17
Mof_C 	C 	0.4525	0.75	0.125	-0.447
Mof_H 	H 	0.3974	0.75	0.125	0.191
Mof_S 	S 	0.21713	0.25	0.625	-0.085
Mof_C 	C 	0.1199	0.25	0.625	0.166
Mof_C 	C 	0.9525	0.25	0.625	-0.509
Mof_H 	H 	0.8974	0.25	0.625	0.221
Mof_S 	S 	0.25	0.71713	0.875	-0.045
Mof_C 	C 	0.25	0.6199	0.875	0.172
Mof_C 	C 	0.25	0.4525	0.875	-0.452
Mof_H 	H 	0.25	0.3974	0.875	0.207
Mof_S 	S 	0.75	0.21713	0.375	-0.099
Mof_C 	C 	0.75	0.1199	0.375	0.171
Mof_C 	C 	0.75	0.9525	0.375	-0.497
Mof_H 	H 	0.75	0.8974	0.375	0.223
Mof_S 	S 	0.75	0.28287	0.875	-0.059
Mof_C 	C 	0.75	0.3801	0.875	0.181
Mof_C 	C 	0.75	0.5475	0.875	-0.442
Mof_H 	H 	0.75	0.6026	0.875	0.211
Mof_S 	S 	0.25	0.78287	0.375	-0.089
Mof_C 	C 	0.25	0.8801	0.375	0.178
Mof_C 	C 	0.25	0.0475	0.375	-0.398
Mof_H 	H 	0.25	0.1026	0.375	0.175
Mof_S 	S 	0.78287	0.75	0.625	-0.05
Mof_C 	C 	0.8801	0.75	0.625	0.181
Mof_C 	C 	0.0475	0.75	0.625	-0.388
Mof_H 	H 	0.1026	0.75	0.625	0.178
_end
