data_functionalizedCrystal
_audit_creation_method	'EQeq! by Chris Wilmer'
_symmetry_space_group_name_H-M	'P1'
_symmetry_Int_Tables_number	1
_symmetry_cell_setting	triclinic
loop_
_symmetry_equiv_pos_as_xyz
  x,y,z
_cell_length_a	10.1746
_cell_length_b	10.1746
_cell_length_c	29.5107
_cell_angle_alpha	90
_cell_angle_beta	90
_cell_angle_gamma	90
loop_
_atom_site_label
_atom_site_type_symbol
_atom_site_fract_x
_atom_site_fract_y
_atom_site_fract_z
_atom_site_charge
Mof_S 	S 	0.34284	0.39974	0.94163	-0.127
Mof_S 	S 	0.0746	0.66758	0.91464	-0.164
Mof_C 	C 	0.0628	0.7838	0.8753	0.08
Mof_C 	C 	0.2196	0.4289	0.97739	0.077
Mof_N 	N 	0.1356	0.4484	0.00263	-0.296
Mof_N 	N 	0.0514	0.8668	0.84917	-0.265
Mof_S 	S 	0.84284	0.89974	0.44163	0.058
Mof_S 	S 	0.5746	0.16758	0.41464	-0.163
Mof_C 	C 	0.5628	0.2838	0.3753	0.094
Mof_C 	C 	0.7196	0.9289	0.47739	0.115
Mof_N 	N 	0.6356	0.9484	0.50263	-0.227
Mof_N 	N 	0.5514	0.3668	0.34917	-0.281
Mof_S 	S 	0.65716	0.60026	0.94163	-0.075
Mof_S 	S 	0.9254	0.33242	0.91464	-0.043
Mof_C 	C 	0.9372	0.2162	0.8753	0.096
Mof_C 	C 	0.7804	0.5711	0.97739	0.113
Mof_N 	N 	0.8644	0.5516	0.00263	-0.233
Mof_N 	N 	0.9486	0.1332	0.84917	-0.258
Mof_S 	S 	0.15716	0.10026	0.44163	-0.263
Mof_S 	S 	0.4254	0.83242	0.41464	-0.049
Mof_C 	C 	0.4372	0.7162	0.3753	0.083
Mof_C 	C 	0.2804	0.0711	0.47739	0.075
Mof_N 	N 	0.3644	0.0516	0.50263	-0.303
Mof_N 	N 	0.4486	0.6332	0.34917	-0.276
Mof_S 	S 	0.39974	0.65716	0.05837	-0.097
Mof_S 	S 	0.66758	0.9254	0.08536	-0.009
Mof_C 	C 	0.7838	0.9372	0.1247	0.124
Mof_C 	C 	0.4289	0.7804	0.02261	0.108
Mof_N 	N 	0.4484	0.8644	0.99737	-0.236
Mof_N 	N 	0.8668	0.9486	0.15083	-0.2
Mof_S 	S 	0.89974	0.15716	0.55837	-0.098
Mof_S 	S 	0.16758	0.4254	0.58536	-0.163
Mof_C 	C 	0.2838	0.4372	0.6247	0.095
Mof_C 	C 	0.9289	0.2804	0.52261	0.128
Mof_N 	N 	0.9484	0.3644	0.49737	-0.236
Mof_N 	N 	0.3668	0.4486	0.65083	-0.283
Mof_S 	S 	0.60026	0.34284	0.05837	-0.102
Mof_S 	S 	0.33242	0.0746	0.08536	-0.199
Mof_C 	C 	0.2162	0.0628	0.1247	0.05
Mof_C 	C 	0.5711	0.2196	0.02261	0.083
Mof_N 	N 	0.5516	0.1356	0.99737	-0.293
Mof_N 	N 	0.1332	0.0514	0.15083	-0.325
Mof_S 	S 	0.10026	0.84284	0.55837	-0.099
Mof_S 	S 	0.83242	0.5746	0.58536	-0.05
Mof_C 	C 	0.7162	0.5628	0.6247	0.082
Mof_C 	C 	0.0711	0.7196	0.52261	0.063
Mof_N 	N 	0.0516	0.6356	0.49737	-0.293
Mof_N 	N 	0.6332	0.5514	0.65083	-0.273
Mof_S 	S 	0.15716	0.39974	0.80837	-0.192
Mof_S 	S 	0.4254	0.66758	0.83536	-0.088
Mof_C 	C 	0.4372	0.7838	0.8747	0.105
Mof_C 	C 	0.2804	0.4289	0.77261	0.1
Mof_N 	N 	0.3644	0.4484	0.74737	-0.279
Mof_N 	N 	0.4486	0.8668	0.90083	-0.241
Mof_S 	S 	0.65716	0.89974	0.30837	-0.008
Mof_S 	S 	0.9254	0.16758	0.33536	-0.08
Mof_C 	C 	0.9372	0.2838	0.3747	0.116
Mof_C 	C 	0.7804	0.9289	0.27261	0.135
Mof_N 	N 	0.8644	0.9484	0.24737	-0.196
Mof_N 	N 	0.9486	0.3668	0.40083	-0.24
Mof_S 	S 	0.84284	0.60026	0.80837	-0.008
Mof_S 	S 	0.5746	0.33242	0.83536	-0.124
Mof_C 	C 	0.5628	0.2162	0.8747	0.073
Mof_C 	C 	0.7196	0.5711	0.77261	0.093
Mof_N 	N 	0.6356	0.5516	0.74737	-0.266
Mof_N 	N 	0.5514	0.1332	0.90083	-0.299
Mof_S 	S 	0.34284	0.10026	0.30837	-0.197
Mof_S 	S 	0.0746	0.83242	0.33536	-0.124
Mof_C 	C 	0.0628	0.7162	0.3747	0.059
Mof_C 	C 	0.2196	0.0711	0.27261	0.052
Mof_N 	N 	0.1356	0.0516	0.24737	-0.32
Mof_N 	N 	0.0514	0.6332	0.40083	-0.3
Mof_S 	S 	0.10026	0.65716	0.69163	-0.168
Mof_S 	S 	0.83242	0.9254	0.66464	0.028
Mof_C 	C 	0.7162	0.9372	0.6253	0.104
Mof_C 	C 	0.0711	0.7804	0.72739	0.084
Mof_N 	N 	0.0516	0.8644	0.75263	-0.26
Mof_N 	N 	0.6332	0.9486	0.59917	-0.233
Mof_S 	S 	0.60026	0.15716	0.19163	-0.167
Mof_S 	S 	0.33242	0.4254	0.16464	-0.124
Mof_C 	C 	0.2162	0.4372	0.1253	0.075
Mof_C 	C 	0.5711	0.2804	0.22739	0.105
Mof_N 	N 	0.5516	0.3644	0.25263	-0.276
Mof_N 	N 	0.1332	0.4486	0.09917	-0.301
Mof_S 	S 	0.89974	0.34284	0.69163	-0.033
Mof_S 	S 	0.16758	0.0746	0.66464	-0.239
Mof_C 	C 	0.2838	0.0628	0.6253	0.07
Mof_C 	C 	0.9289	0.2196	0.72739	0.105
Mof_N 	N 	0.9484	0.1356	0.75263	-0.252
Mof_N 	N 	0.3668	0.0514	0.59917	-0.308
Mof_S 	S 	0.39974	0.84284	0.19163	-0.029
Mof_S 	S 	0.66758	0.5746	0.16464	-0.088
Mof_C 	C 	0.7838	0.5628	0.1253	0.103
Mof_C 	C 	0.4289	0.7196	0.22739	0.088
Mof_N 	N 	0.4484	0.6356	0.25263	-0.269
Mof_N 	N 	0.8668	0.5514	0.09917	-0.239
Mof_Hg	Hg	0.25	0.52953	0.875	0.124
Mof_Hg	Hg	0.75	0.02953	0.375	0.053
Mof_Hg	Hg	0.75	0.47047	0.875	0.146
Mof_Hg	Hg	0.25	0.97047	0.375	0.219
Mof_Hg	Hg	0.52953	0.75	0.125	0.145
Mof_Hg	Hg	0.47047	0.25	0.125	0.126
Mof_Hg	Hg	0.97047	0.75	0.625	0.237
Mof_Hg	Hg	0.02953	0.25	0.625	0.031
Mof_Ni	Ni	5.50268e-34	0.5	0.0506	0.978
Mof_Ni	Ni	0.5	-1.65259e-32	0.5506	0.979
Mof_Ni	Ni	0.5	3.30519e-32	0.9494	0.978
Mof_Ni	Ni	4.88716e-33	0.5	0.4494	0.978
Mof_Ni	Ni	0.5	0.5	0.6994	1.028
Mof_Ni	Ni	-1.96304e-33	0	0.1994	0.93
Mof_Ni	Ni	-2.43455e-32	-1.65259e-32	0.8006	0.928
Mof_Ni	Ni	0.5	0.5	0.3006	1.028
_end
