data_functionalizedCrystal
_audit_creation_method	'EQeq! by Chris Wilmer'
_symmetry_space_group_name_H-M	'P1'
_symmetry_Int_Tables_number	1
_symmetry_cell_setting	triclinic
loop_
_symmetry_equiv_pos_as_xyz
  x,y,z
_cell_length_a	35.1878
_cell_length_b	35.1878
_cell_length_c	21.718
_cell_angle_alpha	90
_cell_angle_beta	90
_cell_angle_gamma	120
loop_
_atom_site_label
_atom_site_type_symbol
_atom_site_fract_x
_atom_site_fract_y
_atom_site_fract_z
_atom_site_charge
Mof_O 	O 	0.63713	0.77953	0.40259	-0.412
Mof_O 	O 	0.61105	0.76628	0.30631	-0.406
Mof_C 	C 	0.61192	0.75512	0.36075	0.375
Mof_C 	C 	0.58042	0.70831	0.37839	-0.124
Mof_C 	C 	0.5532	0.67857	0.33306	0.064
Mof_H 	H 	0.5542	0.688	0.2918	0.028
Mof_C 	C 	0.52501	0.63538	0.34932	-0.139
Mof_H 	H 	0.5061	0.6154	0.319	0.093
Mof_C 	C 	0.52362	0.62066	0.4081	0.108
Mof_C 	C 	0.55099	0.6501	0.4531	-0.139
Mof_H 	H 	0.5504	0.6404	0.494	0.082
Mof_C 	C 	0.57928	0.69412	0.437	0.065
Mof_H 	H 	0.5978	0.7142	0.4675	0.026
Mof_C 	C 	0.49531	0.57343	0.4275	-0.063
Mof_C 	C 	0.51306	0.55377	0.4615	-0.04
Mof_H 	H 	0.5431	0.5707	0.4727	0.045
Mof_C 	C 	0.4123	0.6228	0.3618	-0.003
Mof_C 	C 	0.3827	0.5711	0.4604	-0.02
Mof_O 	O 	0.3038	0.11286	0.73592	-0.413
Mof_O 	O 	0.27772	0.09961	0.63964	-0.407
Mof_C 	C 	0.27859	0.08845	0.69408	0.374
Mof_C 	C 	0.24709	0.04164	0.71172	-0.125
Mof_C 	C 	0.21987	0.0119	0.66639	0.063
Mof_H 	H 	0.22087	0.02133	0.62513	0.028
Mof_C 	C 	0.19168	0.96871	0.68265	-0.138
Mof_H 	H 	0.17277	0.94873	0.65233	0.093
Mof_C 	C 	0.19029	0.95399	0.74143	0.107
Mof_C 	C 	0.21766	0.98343	0.78643	-0.138
Mof_H 	H 	0.21707	0.97373	0.82733	0.082
Mof_C 	C 	0.24595	0.02745	0.77033	0.064
Mof_H 	H 	0.26447	0.04753	0.80083	0.027
Mof_C 	C 	0.16198	0.90676	0.76083	-0.063
Mof_C 	C 	0.17973	0.8871	0.79483	-0.041
Mof_H 	H 	0.20977	0.90403	0.80603	0.045
Mof_C 	C 	0.07897	0.95613	0.69513	-0.003
Mof_C 	C 	0.04937	0.90443	0.79373	-0.02
Mof_O 	O 	0.97046	0.4462	0.06926	-0.412
Mof_O 	O 	0.94438	0.43295	0.97298	-0.408
Mof_C 	C 	0.94525	0.42179	0.02742	0.374
Mof_C 	C 	0.91375	0.37498	0.04506	-0.124
Mof_C 	C 	0.88653	0.34524	0.99973	0.061
Mof_H 	H 	0.88753	0.35467	0.95847	0.028
Mof_C 	C 	0.85834	0.30205	0.01599	-0.136
Mof_H 	H 	0.83943	0.28207	0.98567	0.092
Mof_C 	C 	0.85695	0.28733	0.07477	0.106
Mof_C 	C 	0.88432	0.31677	0.11977	-0.137
Mof_H 	H 	0.88373	0.30707	0.16067	0.081
Mof_C 	C 	0.91261	0.36079	0.10367	0.064
Mof_H 	H 	0.93113	0.38087	0.13417	0.027
Mof_C 	C 	0.82864	0.2401	0.09417	-0.062
Mof_C 	C 	0.84639	0.22044	0.12817	-0.041
Mof_H 	H 	0.87643	0.23737	0.13937	0.045
Mof_C 	C 	0.74563	0.28947	0.02847	-0.003
Mof_C 	C 	0.71603	0.23777	0.12707	-0.02
Mof_O 	O 	0.22047	0.8576	0.40259	-0.413
Mof_O 	O 	0.23372	0.84477	0.30631	-0.407
Mof_C 	C 	0.24488	0.8568	0.36075	0.374
Mof_C 	C 	0.29169	0.87211	0.37839	-0.125
Mof_C 	C 	0.32143	0.87463	0.33306	0.064
Mof_H 	H 	0.312	0.8662	0.2918	0.028
Mof_C 	C 	0.36462	0.88963	0.34932	-0.139
Mof_H 	H 	0.3846	0.8907	0.319	0.093
Mof_C 	C 	0.37934	0.90296	0.4081	0.108
Mof_C 	C 	0.3499	0.90089	0.4531	-0.139
Mof_H 	H 	0.3596	0.91	0.494	0.082
Mof_C 	C 	0.30588	0.88516	0.437	0.065
Mof_H 	H 	0.2858	0.8836	0.4675	0.026
Mof_C 	C 	0.42657	0.92188	0.4275	-0.063
Mof_C 	C 	0.44623	0.95929	0.4615	-0.041
Mof_H 	H 	0.4293	0.9724	0.4727	0.045
Mof_C 	C 	0.3772	0.7895	0.3618	-0.003
Mof_C 	C 	0.4289	0.8116	0.4604	-0.02
Mof_O 	O 	0.88714	0.19093	0.73592	-0.413
Mof_O 	O 	0.90039	0.1781	0.63964	-0.407
Mof_C 	C 	0.91155	0.19013	0.69408	0.374
Mof_C 	C 	0.95836	0.20544	0.71172	-0.125
Mof_C 	C 	0.9881	0.20796	0.66639	0.063
Mof_H 	H 	0.97867	0.19953	0.62513	0.028
Mof_C 	C 	0.03129	0.22296	0.68265	-0.138
Mof_H 	H 	0.05127	0.22403	0.65233	0.093
Mof_C 	C 	0.04601	0.23629	0.74143	0.107
Mof_C 	C 	0.01657	0.23422	0.78643	-0.138
Mof_H 	H 	0.02627	0.24333	0.82733	0.082
Mof_C 	C 	0.97255	0.21849	0.77033	0.064
Mof_H 	H 	0.95247	0.21693	0.80083	0.027
Mof_C 	C 	0.09324	0.25521	0.76083	-0.063
Mof_C 	C 	0.1129	0.29262	0.79483	-0.041
Mof_H 	H 	0.09597	0.30573	0.80603	0.045
Mof_C 	C 	0.04387	0.12283	0.69513	-0.003
Mof_C 	C 	0.09557	0.14493	0.79373	-0.02
Mof_O 	O 	0.5538	0.52427	0.06926	-0.413
Mof_O 	O 	0.56705	0.51144	0.97298	-0.408
Mof_C 	C 	0.57821	0.52347	0.02742	0.374
Mof_C 	C 	0.62502	0.53878	0.04506	-0.125
Mof_C 	C 	0.65476	0.5413	0.99973	0.063
Mof_H 	H 	0.64533	0.53287	0.95847	0.028
Mof_C 	C 	0.69795	0.5563	0.01599	-0.138
Mof_H 	H 	0.71793	0.55737	0.98567	0.093
Mof_C 	C 	0.71267	0.56963	0.07477	0.107
Mof_C 	C 	0.68323	0.56756	0.11977	-0.138
Mof_H 	H 	0.69293	0.57667	0.16067	0.082
Mof_C 	C 	0.63921	0.55183	0.10367	0.064
Mof_H 	H 	0.61913	0.55027	0.13417	0.027
Mof_C 	C 	0.7599	0.58855	0.09417	-0.062
Mof_C 	C 	0.77956	0.62596	0.12817	-0.041
Mof_H 	H 	0.76263	0.63907	0.13937	0.045
Mof_C 	C 	0.71053	0.45617	0.02847	-0.003
Mof_C 	C 	0.76223	0.47827	0.12707	-0.02
Mof_O 	O 	0.1424	0.36287	0.40259	-0.413
Mof_O 	O 	0.15523	0.38895	0.30631	-0.408
Mof_C 	C 	0.1432	0.38808	0.36075	0.374
Mof_C 	C 	0.12789	0.41958	0.37839	-0.125
Mof_C 	C 	0.12537	0.4468	0.33306	0.064
Mof_H 	H 	0.1338	0.4458	0.2918	0.028
Mof_C 	C 	0.11037	0.47499	0.34932	-0.139
Mof_H 	H 	0.1093	0.4939	0.319	0.093
Mof_C 	C 	0.09704	0.47638	0.4081	0.108
Mof_C 	C 	0.09911	0.44901	0.4531	-0.139
Mof_H 	H 	0.09	0.4496	0.494	0.082
Mof_C 	C 	0.11484	0.42072	0.437	0.065
Mof_H 	H 	0.1164	0.4022	0.4675	0.026
Mof_C 	C 	0.07812	0.50469	0.4275	-0.063
Mof_C 	C 	0.04071	0.48694	0.4615	-0.041
Mof_H 	H 	0.0276	0.4569	0.4727	0.045
Mof_C 	C 	0.2105	0.5877	0.3618	-0.003
Mof_C 	C 	0.1884	0.6173	0.4604	-0.02
Mof_O 	O 	0.80907	0.6962	0.73592	-0.413
Mof_O 	O 	0.8219	0.72228	0.63964	-0.408
Mof_C 	C 	0.80987	0.72141	0.69408	0.374
Mof_C 	C 	0.79456	0.75291	0.71172	-0.125
Mof_C 	C 	0.79204	0.78013	0.66639	0.064
Mof_H 	H 	0.80047	0.77913	0.62513	0.028
Mof_C 	C 	0.77704	0.80832	0.68265	-0.139
Mof_H 	H 	0.77597	0.82723	0.65233	0.093
Mof_C 	C 	0.76371	0.80971	0.74143	0.108
Mof_C 	C 	0.76578	0.78234	0.78643	-0.139
Mof_H 	H 	0.75667	0.78293	0.82733	0.082
Mof_C 	C 	0.78151	0.75405	0.77033	0.065
Mof_H 	H 	0.78307	0.73553	0.80083	0.026
Mof_C 	C 	0.74479	0.83802	0.76083	-0.063
Mof_C 	C 	0.70738	0.82027	0.79483	-0.04
Mof_H 	H 	0.69427	0.79023	0.80603	0.045
Mof_C 	C 	0.87717	0.92103	0.69513	-0.003
Mof_C 	C 	0.85507	0.95063	0.79373	-0.02
Mof_O 	O 	0.47573	0.02954	0.06926	-0.412
Mof_O 	O 	0.48856	0.05562	0.97298	-0.408
Mof_C 	C 	0.47653	0.05475	0.02742	0.374
Mof_C 	C 	0.46122	0.08625	0.04506	-0.124
Mof_C 	C 	0.4587	0.11347	0.99973	0.062
Mof_H 	H 	0.46713	0.11247	0.95847	0.028
Mof_C 	C 	0.4437	0.14166	0.01599	-0.137
Mof_H 	H 	0.44263	0.16057	0.98567	0.092
Mof_C 	C 	0.43037	0.14305	0.07477	0.107
Mof_C 	C 	0.43244	0.11568	0.11977	-0.138
Mof_H 	H 	0.42333	0.11627	0.16067	0.082
Mof_C 	C 	0.44817	0.08739	0.10367	0.064
Mof_H 	H 	0.44973	0.06887	0.13417	0.027
Mof_C 	C 	0.41145	0.17136	0.09417	-0.062
Mof_C 	C 	0.37404	0.15361	0.12817	-0.041
Mof_H 	H 	0.36093	0.12357	0.13937	0.045
Mof_C 	C 	0.54383	0.25437	0.02847	-0.003
Mof_C 	C 	0.52173	0.28397	0.12707	-0.02
Mof_O 	O 	0.77953	0.63713	0.59741	-0.413
Mof_O 	O 	0.76628	0.61105	0.69369	-0.407
Mof_C 	C 	0.75512	0.61192	0.63925	0.374
Mof_C 	C 	0.70831	0.58042	0.62161	-0.125
Mof_C 	C 	0.67857	0.5532	0.66694	0.064
Mof_H 	H 	0.688	0.5542	0.7082	0.028
Mof_C 	C 	0.63538	0.52501	0.65068	-0.139
Mof_H 	H 	0.6154	0.5061	0.681	0.093
Mof_C 	C 	0.62066	0.52362	0.5919	0.108
Mof_C 	C 	0.6501	0.55099	0.5469	-0.139
Mof_H 	H 	0.6404	0.5504	0.506	0.082
Mof_C 	C 	0.69412	0.57928	0.563	0.065
Mof_H 	H 	0.7142	0.5978	0.5325	0.026
Mof_C 	C 	0.57343	0.49531	0.5725	-0.063
Mof_C 	C 	0.55377	0.51306	0.5385	-0.04
Mof_H 	H 	0.5707	0.5431	0.5273	0.045
Mof_C 	C 	0.6228	0.4123	0.6382	-0.003
Mof_C 	C 	0.5711	0.3827	0.5396	-0.02
Mof_O 	O 	0.4462	0.97046	0.93074	-0.412
Mof_O 	O 	0.43295	0.94438	0.02702	-0.408
Mof_C 	C 	0.42179	0.94525	0.97258	0.374
Mof_C 	C 	0.37498	0.91375	0.95494	-0.124
Mof_C 	C 	0.34524	0.88653	0.00027	0.061
Mof_H 	H 	0.35467	0.88753	0.04153	0.028
Mof_C 	C 	0.30205	0.85834	0.98401	-0.136
Mof_H 	H 	0.28207	0.83943	0.01433	0.092
Mof_C 	C 	0.28733	0.85695	0.92523	0.106
Mof_C 	C 	0.31677	0.88432	0.88023	-0.137
Mof_H 	H 	0.30707	0.88373	0.83933	0.081
Mof_C 	C 	0.36079	0.91261	0.89633	0.064
Mof_H 	H 	0.38087	0.93113	0.86583	0.027
Mof_C 	C 	0.2401	0.82864	0.90583	-0.062
Mof_C 	C 	0.22044	0.84639	0.87183	-0.041
Mof_H 	H 	0.23737	0.87643	0.86063	0.045
Mof_C 	C 	0.28947	0.74563	0.97153	-0.003
Mof_C 	C 	0.23777	0.71603	0.87293	-0.02
Mof_O 	O 	0.11286	0.3038	0.26408	-0.413
Mof_O 	O 	0.09961	0.27772	0.36036	-0.407
Mof_C 	C 	0.08845	0.27859	0.30592	0.374
Mof_C 	C 	0.04164	0.24709	0.28828	-0.125
Mof_C 	C 	0.0119	0.21987	0.33361	0.063
Mof_H 	H 	0.02133	0.22087	0.37487	0.028
Mof_C 	C 	0.96871	0.19168	0.31735	-0.138
Mof_H 	H 	0.94873	0.17277	0.34767	0.093
Mof_C 	C 	0.95399	0.19029	0.25857	0.107
Mof_C 	C 	0.98343	0.21766	0.21357	-0.138
Mof_H 	H 	0.97373	0.21707	0.17267	0.082
Mof_C 	C 	0.02745	0.24595	0.22967	0.064
Mof_H 	H 	0.04753	0.26447	0.19917	0.027
Mof_C 	C 	0.90676	0.16198	0.23917	-0.063
Mof_C 	C 	0.8871	0.17973	0.20517	-0.041
Mof_H 	H 	0.90403	0.20977	0.19397	0.045
Mof_C 	C 	0.95613	0.07897	0.30487	-0.003
Mof_C 	C 	0.90443	0.04937	0.20627	-0.02
Mof_O 	O 	0.8576	0.22047	0.59741	-0.413
Mof_O 	O 	0.84477	0.23372	0.69369	-0.407
Mof_C 	C 	0.8568	0.24488	0.63925	0.374
Mof_C 	C 	0.87211	0.29169	0.62161	-0.125
Mof_C 	C 	0.87463	0.32143	0.66694	0.064
Mof_H 	H 	0.8662	0.312	0.7082	0.028
Mof_C 	C 	0.88963	0.36462	0.65068	-0.139
Mof_H 	H 	0.8907	0.3846	0.681	0.093
Mof_C 	C 	0.90296	0.37934	0.5919	0.108
Mof_C 	C 	0.90089	0.3499	0.5469	-0.139
Mof_H 	H 	0.91	0.3596	0.506	0.082
Mof_C 	C 	0.88516	0.30588	0.563	0.065
Mof_H 	H 	0.8836	0.2858	0.5325	0.026
Mof_C 	C 	0.92188	0.42657	0.5725	-0.063
Mof_C 	C 	0.95929	0.44623	0.5385	-0.041
Mof_H 	H 	0.9724	0.4293	0.5273	0.045
Mof_C 	C 	0.7895	0.3772	0.6382	-0.003
Mof_C 	C 	0.8116	0.4289	0.5396	-0.02
Mof_O 	O 	0.52427	0.5538	0.93074	-0.413
Mof_O 	O 	0.51144	0.56705	0.02702	-0.408
Mof_C 	C 	0.52347	0.57821	0.97258	0.374
Mof_C 	C 	0.53878	0.62502	0.95494	-0.125
Mof_C 	C 	0.5413	0.65476	0.00027	0.063
Mof_H 	H 	0.53287	0.64533	0.04153	0.028
Mof_C 	C 	0.5563	0.69795	0.98401	-0.138
Mof_H 	H 	0.55737	0.71793	0.01433	0.093
Mof_C 	C 	0.56963	0.71267	0.92523	0.107
Mof_C 	C 	0.56756	0.68323	0.88023	-0.138
Mof_H 	H 	0.57667	0.69293	0.83933	0.082
Mof_C 	C 	0.55183	0.63921	0.89633	0.064
Mof_H 	H 	0.55027	0.61913	0.86583	0.027
Mof_C 	C 	0.58855	0.7599	0.90583	-0.062
Mof_C 	C 	0.62596	0.77956	0.87183	-0.041
Mof_H 	H 	0.63907	0.76263	0.86063	0.045
Mof_C 	C 	0.45617	0.71053	0.97153	-0.003
Mof_C 	C 	0.47827	0.76223	0.87293	-0.02
Mof_O 	O 	0.19093	0.88714	0.26408	-0.413
Mof_O 	O 	0.1781	0.90039	0.36036	-0.407
Mof_C 	C 	0.19013	0.91155	0.30592	0.374
Mof_C 	C 	0.20544	0.95836	0.28828	-0.125
Mof_C 	C 	0.20796	0.9881	0.33361	0.063
Mof_H 	H 	0.19953	0.97867	0.37487	0.028
Mof_C 	C 	0.22296	0.03129	0.31735	-0.138
Mof_H 	H 	0.22403	0.05127	0.34767	0.093
Mof_C 	C 	0.23629	0.04601	0.25857	0.107
Mof_C 	C 	0.23422	0.01657	0.21357	-0.138
Mof_H 	H 	0.24333	0.02627	0.17267	0.082
Mof_C 	C 	0.21849	0.97255	0.22967	0.064
Mof_H 	H 	0.21693	0.95247	0.19917	0.027
Mof_C 	C 	0.25521	0.09324	0.23917	-0.063
Mof_C 	C 	0.29262	0.1129	0.20517	-0.041
Mof_H 	H 	0.30573	0.09597	0.19397	0.045
Mof_C 	C 	0.12283	0.04387	0.30487	-0.003
Mof_C 	C 	0.14493	0.09557	0.20627	-0.02
Mof_O 	O 	0.36287	0.1424	0.59741	-0.413
Mof_O 	O 	0.38895	0.15523	0.69369	-0.408
Mof_C 	C 	0.38808	0.1432	0.63925	0.374
Mof_C 	C 	0.41958	0.12789	0.62161	-0.125
Mof_C 	C 	0.4468	0.12537	0.66694	0.064
Mof_H 	H 	0.4458	0.1338	0.7082	0.028
Mof_C 	C 	0.47499	0.11037	0.65068	-0.139
Mof_H 	H 	0.4939	0.1093	0.681	0.093
Mof_C 	C 	0.47638	0.09704	0.5919	0.108
Mof_C 	C 	0.44901	0.09911	0.5469	-0.139
Mof_H 	H 	0.4496	0.09	0.506	0.082
Mof_C 	C 	0.42072	0.11484	0.563	0.065
Mof_H 	H 	0.4022	0.1164	0.5325	0.026
Mof_C 	C 	0.50469	0.07812	0.5725	-0.063
Mof_C 	C 	0.48694	0.04071	0.5385	-0.041
Mof_H 	H 	0.4569	0.0276	0.5273	0.045
Mof_C 	C 	0.5877	0.2105	0.6382	-0.003
Mof_C 	C 	0.6173	0.1884	0.5396	-0.02
Mof_O 	O 	0.02954	0.47573	0.93074	-0.412
Mof_O 	O 	0.05562	0.48856	0.02702	-0.408
Mof_C 	C 	0.05475	0.47653	0.97258	0.374
Mof_C 	C 	0.08625	0.46122	0.95494	-0.124
Mof_C 	C 	0.11347	0.4587	0.00027	0.062
Mof_H 	H 	0.11247	0.46713	0.04153	0.028
Mof_C 	C 	0.14166	0.4437	0.98401	-0.137
Mof_H 	H 	0.16057	0.44263	0.01433	0.092
Mof_C 	C 	0.14305	0.43037	0.92523	0.107
Mof_C 	C 	0.11568	0.43244	0.88023	-0.138
Mof_H 	H 	0.11627	0.42333	0.83933	0.082
Mof_C 	C 	0.08739	0.44817	0.89633	0.064
Mof_H 	H 	0.06887	0.44973	0.86583	0.027
Mof_C 	C 	0.17136	0.41145	0.90583	-0.062
Mof_C 	C 	0.15361	0.37404	0.87183	-0.041
Mof_H 	H 	0.12357	0.36093	0.86063	0.045
Mof_C 	C 	0.25437	0.54383	0.97153	-0.003
Mof_C 	C 	0.28397	0.52173	0.87293	-0.02
Mof_O 	O 	0.6962	0.80907	0.26408	-0.413
Mof_O 	O 	0.72228	0.8219	0.36036	-0.408
Mof_C 	C 	0.72141	0.80987	0.30592	0.374
Mof_C 	C 	0.75291	0.79456	0.28828	-0.125
Mof_C 	C 	0.78013	0.79204	0.33361	0.064
Mof_H 	H 	0.77913	0.80047	0.37487	0.028
Mof_C 	C 	0.80832	0.77704	0.31735	-0.139
Mof_H 	H 	0.82723	0.77597	0.34767	0.093
Mof_C 	C 	0.80971	0.76371	0.25857	0.108
Mof_C 	C 	0.78234	0.76578	0.21357	-0.139
Mof_H 	H 	0.78293	0.75667	0.17267	0.082
Mof_C 	C 	0.75405	0.78151	0.22967	0.065
Mof_H 	H 	0.73553	0.78307	0.19917	0.026
Mof_C 	C 	0.83802	0.74479	0.23917	-0.063
Mof_C 	C 	0.82027	0.70738	0.20517	-0.04
Mof_H 	H 	0.79023	0.69427	0.19397	0.045
Mof_C 	C 	0.92103	0.87717	0.30487	-0.003
Mof_C 	C 	0.95063	0.85507	0.20627	-0.02
Mof_O 	O 	0.36287	0.22047	0.59741	-0.413
Mof_O 	O 	0.38895	0.23372	0.69369	-0.407
Mof_C 	C 	0.38808	0.24488	0.63925	0.374
Mof_C 	C 	0.41958	0.29169	0.62161	-0.125
Mof_C 	C 	0.4468	0.32143	0.66694	0.064
Mof_H 	H 	0.4458	0.312	0.7082	0.028
Mof_C 	C 	0.47499	0.36462	0.65068	-0.139
Mof_H 	H 	0.4939	0.3846	0.681	0.093
Mof_C 	C 	0.47638	0.37934	0.5919	0.108
Mof_C 	C 	0.44901	0.3499	0.5469	-0.139
Mof_H 	H 	0.4496	0.3596	0.506	0.082
Mof_C 	C 	0.42072	0.30588	0.563	0.065
Mof_H 	H 	0.4022	0.2858	0.5325	0.026
Mof_C 	C 	0.50469	0.42657	0.5725	-0.063
Mof_C 	C 	0.48694	0.44623	0.5385	-0.04
Mof_H 	H 	0.4569	0.4293	0.5273	0.045
Mof_C 	C 	0.5877	0.3772	0.6382	-0.003
Mof_C 	C 	0.6173	0.4289	0.5396	-0.02
Mof_O 	O 	0.02954	0.5538	0.93074	-0.412
Mof_O 	O 	0.05562	0.56705	0.02702	-0.408
Mof_C 	C 	0.05475	0.57821	0.97258	0.374
Mof_C 	C 	0.08625	0.62502	0.95494	-0.124
Mof_C 	C 	0.11347	0.65476	0.00027	0.061
Mof_H 	H 	0.11247	0.64533	0.04153	0.028
Mof_C 	C 	0.14166	0.69795	0.98401	-0.136
Mof_H 	H 	0.16057	0.71793	0.01433	0.092
Mof_C 	C 	0.14305	0.71267	0.92523	0.106
Mof_C 	C 	0.11568	0.68323	0.88023	-0.137
Mof_H 	H 	0.11627	0.69293	0.83933	0.081
Mof_C 	C 	0.08739	0.63921	0.89633	0.064
Mof_H 	H 	0.06887	0.61913	0.86583	0.027
Mof_C 	C 	0.17136	0.7599	0.90583	-0.062
Mof_C 	C 	0.15361	0.77956	0.87183	-0.041
Mof_H 	H 	0.12357	0.76263	0.86063	0.045
Mof_C 	C 	0.25437	0.71053	0.97153	-0.003
Mof_C 	C 	0.28397	0.76223	0.87293	-0.02
Mof_O 	O 	0.6962	0.88714	0.26408	-0.413
Mof_O 	O 	0.72228	0.90039	0.36036	-0.407
Mof_C 	C 	0.72141	0.91155	0.30592	0.374
Mof_C 	C 	0.75291	0.95836	0.28828	-0.125
Mof_C 	C 	0.78013	0.9881	0.33361	0.063
Mof_H 	H 	0.77913	0.97867	0.37487	0.028
Mof_C 	C 	0.80832	0.03129	0.31735	-0.138
Mof_H 	H 	0.82723	0.05127	0.34767	0.093
Mof_C 	C 	0.80971	0.04601	0.25857	0.107
Mof_C 	C 	0.78234	0.01657	0.21357	-0.138
Mof_H 	H 	0.78293	0.02627	0.17267	0.082
Mof_C 	C 	0.75405	0.97255	0.22967	0.064
Mof_H 	H 	0.73553	0.95247	0.19917	0.027
Mof_C 	C 	0.83802	0.09324	0.23917	-0.063
Mof_C 	C 	0.82027	0.1129	0.20517	-0.041
Mof_H 	H 	0.79023	0.09597	0.19397	0.045
Mof_C 	C 	0.92103	0.04387	0.30487	-0.003
Mof_C 	C 	0.95063	0.09557	0.20627	-0.02
Mof_O 	O 	0.77953	0.1424	0.59741	-0.413
Mof_O 	O 	0.76628	0.15523	0.69369	-0.407
Mof_C 	C 	0.75512	0.1432	0.63925	0.374
Mof_C 	C 	0.70831	0.12789	0.62161	-0.125
Mof_C 	C 	0.67857	0.12537	0.66694	0.064
Mof_H 	H 	0.688	0.1338	0.7082	0.028
Mof_C 	C 	0.63538	0.11037	0.65068	-0.139
Mof_H 	H 	0.6154	0.1093	0.681	0.093
Mof_C 	C 	0.62066	0.09704	0.5919	0.108
Mof_C 	C 	0.6501	0.09911	0.5469	-0.139
Mof_H 	H 	0.6404	0.09	0.506	0.082
Mof_C 	C 	0.69412	0.11484	0.563	0.065
Mof_H 	H 	0.7142	0.1164	0.5325	0.026
Mof_C 	C 	0.57343	0.07812	0.5725	-0.063
Mof_C 	C 	0.55377	0.04071	0.5385	-0.041
Mof_H 	H 	0.5707	0.0276	0.5273	0.045
Mof_C 	C 	0.6228	0.2105	0.6382	-0.003
Mof_C 	C 	0.5711	0.1884	0.5396	-0.02
Mof_O 	O 	0.4462	0.47573	0.93074	-0.413
Mof_O 	O 	0.43295	0.48856	0.02702	-0.408
Mof_C 	C 	0.42179	0.47653	0.97258	0.374
Mof_C 	C 	0.37498	0.46122	0.95494	-0.125
Mof_C 	C 	0.34524	0.4587	0.00027	0.063
Mof_H 	H 	0.35467	0.46713	0.04153	0.028
Mof_C 	C 	0.30205	0.4437	0.98401	-0.138
Mof_H 	H 	0.28207	0.44263	0.01433	0.093
Mof_C 	C 	0.28733	0.43037	0.92523	0.107
Mof_C 	C 	0.31677	0.43244	0.88023	-0.138
Mof_H 	H 	0.30707	0.42333	0.83933	0.082
Mof_C 	C 	0.36079	0.44817	0.89633	0.064
Mof_H 	H 	0.38087	0.44973	0.86583	0.027
Mof_C 	C 	0.2401	0.41145	0.90583	-0.062
Mof_C 	C 	0.22044	0.37404	0.87183	-0.041
Mof_H 	H 	0.23737	0.36093	0.86063	0.045
Mof_C 	C 	0.28947	0.54383	0.97153	-0.003
Mof_C 	C 	0.23777	0.52173	0.87293	-0.02
Mof_O 	O 	0.11286	0.80907	0.26408	-0.413
Mof_O 	O 	0.09961	0.8219	0.36036	-0.407
Mof_C 	C 	0.08845	0.80987	0.30592	0.374
Mof_C 	C 	0.04164	0.79456	0.28828	-0.125
Mof_C 	C 	0.0119	0.79204	0.33361	0.063
Mof_H 	H 	0.02133	0.80047	0.37487	0.028
Mof_C 	C 	0.96871	0.77704	0.31735	-0.138
Mof_H 	H 	0.94873	0.77597	0.34767	0.093
Mof_C 	C 	0.95399	0.76371	0.25857	0.107
Mof_C 	C 	0.98343	0.76578	0.21357	-0.138
Mof_H 	H 	0.97373	0.75667	0.17267	0.082
Mof_C 	C 	0.02745	0.78151	0.22967	0.064
Mof_H 	H 	0.04753	0.78307	0.19917	0.027
Mof_C 	C 	0.90676	0.74479	0.23917	-0.063
Mof_C 	C 	0.8871	0.70738	0.20517	-0.041
Mof_H 	H 	0.90403	0.69427	0.19397	0.045
Mof_C 	C 	0.95613	0.87717	0.30487	-0.003
Mof_C 	C 	0.90443	0.85507	0.20627	-0.02
Mof_O 	O 	0.8576	0.63713	0.59741	-0.413
Mof_O 	O 	0.84477	0.61105	0.69369	-0.408
Mof_C 	C 	0.8568	0.61192	0.63925	0.374
Mof_C 	C 	0.87211	0.58042	0.62161	-0.125
Mof_C 	C 	0.87463	0.5532	0.66694	0.064
Mof_H 	H 	0.8662	0.5542	0.7082	0.028
Mof_C 	C 	0.88963	0.52501	0.65068	-0.139
Mof_H 	H 	0.8907	0.5061	0.681	0.093
Mof_C 	C 	0.90296	0.52362	0.5919	0.108
Mof_C 	C 	0.90089	0.55099	0.5469	-0.139
Mof_H 	H 	0.91	0.5504	0.506	0.082
Mof_C 	C 	0.88516	0.57928	0.563	0.065
Mof_H 	H 	0.8836	0.5978	0.5325	0.026
Mof_C 	C 	0.92188	0.49531	0.5725	-0.063
Mof_C 	C 	0.95929	0.51306	0.5385	-0.041
Mof_H 	H 	0.9724	0.5431	0.5273	0.045
Mof_C 	C 	0.7895	0.4123	0.6382	-0.003
Mof_C 	C 	0.8116	0.3827	0.5396	-0.02
Mof_O 	O 	0.52427	0.97046	0.93074	-0.412
Mof_O 	O 	0.51144	0.94438	0.02702	-0.408
Mof_C 	C 	0.52347	0.94525	0.97258	0.374
Mof_C 	C 	0.53878	0.91375	0.95494	-0.124
Mof_C 	C 	0.5413	0.88653	0.00027	0.062
Mof_H 	H 	0.53287	0.88753	0.04153	0.028
Mof_C 	C 	0.5563	0.85834	0.98401	-0.137
Mof_H 	H 	0.55737	0.83943	0.01433	0.092
Mof_C 	C 	0.56963	0.85695	0.92523	0.107
Mof_C 	C 	0.56756	0.88432	0.88023	-0.138
Mof_H 	H 	0.57667	0.88373	0.83933	0.082
Mof_C 	C 	0.55183	0.91261	0.89633	0.064
Mof_H 	H 	0.55027	0.93113	0.86583	0.027
Mof_C 	C 	0.58855	0.82864	0.90583	-0.062
Mof_C 	C 	0.62596	0.84639	0.87183	-0.041
Mof_H 	H 	0.63907	0.87643	0.86063	0.045
Mof_C 	C 	0.45617	0.74563	0.97153	-0.003
Mof_C 	C 	0.47827	0.71603	0.87293	-0.02
Mof_O 	O 	0.19093	0.3038	0.26408	-0.413
Mof_O 	O 	0.1781	0.27772	0.36036	-0.408
Mof_C 	C 	0.19013	0.27859	0.30592	0.374
Mof_C 	C 	0.20544	0.24709	0.28828	-0.125
Mof_C 	C 	0.20796	0.21987	0.33361	0.064
Mof_H 	H 	0.19953	0.22087	0.37487	0.028
Mof_C 	C 	0.22296	0.19168	0.31735	-0.139
Mof_H 	H 	0.22403	0.17277	0.34767	0.093
Mof_C 	C 	0.23629	0.19029	0.25857	0.108
Mof_C 	C 	0.23422	0.21766	0.21357	-0.139
Mof_H 	H 	0.24333	0.21707	0.17267	0.082
Mof_C 	C 	0.21849	0.24595	0.22967	0.065
Mof_H 	H 	0.21693	0.26447	0.19917	0.026
Mof_C 	C 	0.25521	0.16198	0.23917	-0.063
Mof_C 	C 	0.29262	0.17973	0.20517	-0.04
Mof_H 	H 	0.30573	0.20977	0.19397	0.045
Mof_C 	C 	0.12283	0.07897	0.30487	-0.003
Mof_C 	C 	0.14493	0.04937	0.20627	-0.02
Mof_O 	O 	0.22047	0.36287	0.40259	-0.413
Mof_O 	O 	0.23372	0.38895	0.30631	-0.407
Mof_C 	C 	0.24488	0.38808	0.36075	0.374
Mof_C 	C 	0.29169	0.41958	0.37839	-0.125
Mof_C 	C 	0.32143	0.4468	0.33306	0.064
Mof_H 	H 	0.312	0.4458	0.2918	0.028
Mof_C 	C 	0.36462	0.47499	0.34932	-0.139
Mof_H 	H 	0.3846	0.4939	0.319	0.093
Mof_C 	C 	0.37934	0.47638	0.4081	0.108
Mof_C 	C 	0.3499	0.44901	0.4531	-0.139
Mof_H 	H 	0.3596	0.4496	0.494	0.082
Mof_C 	C 	0.30588	0.42072	0.437	0.065
Mof_H 	H 	0.2858	0.4022	0.4675	0.026
Mof_C 	C 	0.42657	0.50469	0.4275	-0.063
Mof_C 	C 	0.44623	0.48694	0.4615	-0.04
Mof_H 	H 	0.4293	0.4569	0.4727	0.045
Mof_C 	C 	0.3772	0.5877	0.3618	-0.003
Mof_C 	C 	0.4289	0.6173	0.4604	-0.02
Mof_O 	O 	0.88714	0.6962	0.73592	-0.413
Mof_O 	O 	0.90039	0.72228	0.63964	-0.407
Mof_C 	C 	0.91155	0.72141	0.69408	0.374
Mof_C 	C 	0.95836	0.75291	0.71172	-0.125
Mof_C 	C 	0.9881	0.78013	0.66639	0.063
Mof_H 	H 	0.97867	0.77913	0.62513	0.028
Mof_C 	C 	0.03129	0.80832	0.68265	-0.138
Mof_H 	H 	0.05127	0.82723	0.65233	0.093
Mof_C 	C 	0.04601	0.80971	0.74143	0.107
Mof_C 	C 	0.01657	0.78234	0.78643	-0.138
Mof_H 	H 	0.02627	0.78293	0.82733	0.082
Mof_C 	C 	0.97255	0.75405	0.77033	0.064
Mof_H 	H 	0.95247	0.73553	0.80083	0.027
Mof_C 	C 	0.09324	0.83802	0.76083	-0.063
Mof_C 	C 	0.1129	0.82027	0.79483	-0.041
Mof_H 	H 	0.09597	0.79023	0.80603	0.045
Mof_C 	C 	0.04387	0.92103	0.69513	-0.003
Mof_C 	C 	0.09557	0.95063	0.79373	-0.02
Mof_O 	O 	0.5538	0.02954	0.06926	-0.412
Mof_O 	O 	0.56705	0.05562	0.97298	-0.408
Mof_C 	C 	0.57821	0.05475	0.02742	0.374
Mof_C 	C 	0.62502	0.08625	0.04506	-0.124
Mof_C 	C 	0.65476	0.11347	0.99973	0.061
Mof_H 	H 	0.64533	0.11247	0.95847	0.028
Mof_C 	C 	0.69795	0.14166	0.01599	-0.136
Mof_H 	H 	0.71793	0.16057	0.98567	0.092
Mof_C 	C 	0.71267	0.14305	0.07477	0.106
Mof_C 	C 	0.68323	0.11568	0.11977	-0.137
Mof_H 	H 	0.69293	0.11627	0.16067	0.081
Mof_C 	C 	0.63921	0.08739	0.10367	0.064
Mof_H 	H 	0.61913	0.06887	0.13417	0.027
Mof_C 	C 	0.7599	0.17136	0.09417	-0.062
Mof_C 	C 	0.77956	0.15361	0.12817	-0.041
Mof_H 	H 	0.76263	0.12357	0.13937	0.045
Mof_C 	C 	0.71053	0.25437	0.02847	-0.003
Mof_C 	C 	0.76223	0.28397	0.12707	-0.02
Mof_O 	O 	0.1424	0.77953	0.40259	-0.413
Mof_O 	O 	0.15523	0.76628	0.30631	-0.407
Mof_C 	C 	0.1432	0.75512	0.36075	0.374
Mof_C 	C 	0.12789	0.70831	0.37839	-0.125
Mof_C 	C 	0.12537	0.67857	0.33306	0.064
Mof_H 	H 	0.1338	0.688	0.2918	0.028
Mof_C 	C 	0.11037	0.63538	0.34932	-0.139
Mof_H 	H 	0.1093	0.6154	0.319	0.093
Mof_C 	C 	0.09704	0.62066	0.4081	0.108
Mof_C 	C 	0.09911	0.6501	0.4531	-0.139
Mof_H 	H 	0.09	0.6404	0.494	0.082
Mof_C 	C 	0.11484	0.69412	0.437	0.065
Mof_H 	H 	0.1164	0.7142	0.4675	0.026
Mof_C 	C 	0.07812	0.57343	0.4275	-0.063
Mof_C 	C 	0.04071	0.55377	0.4615	-0.041
Mof_H 	H 	0.0276	0.5707	0.4727	0.045
Mof_C 	C 	0.2105	0.6228	0.3618	-0.003
Mof_C 	C 	0.1884	0.5711	0.4604	-0.02
Mof_O 	O 	0.80907	0.11286	0.73592	-0.413
Mof_O 	O 	0.8219	0.09961	0.63964	-0.407
Mof_C 	C 	0.80987	0.08845	0.69408	0.374
Mof_C 	C 	0.79456	0.04164	0.71172	-0.125
Mof_C 	C 	0.79204	0.0119	0.66639	0.063
Mof_H 	H 	0.80047	0.02133	0.62513	0.028
Mof_C 	C 	0.77704	0.96871	0.68265	-0.138
Mof_H 	H 	0.77597	0.94873	0.65233	0.093
Mof_C 	C 	0.76371	0.95399	0.74143	0.107
Mof_C 	C 	0.76578	0.98343	0.78643	-0.138
Mof_H 	H 	0.75667	0.97373	0.82733	0.082
Mof_C 	C 	0.78151	0.02745	0.77033	0.064
Mof_H 	H 	0.78307	0.04753	0.80083	0.027
Mof_C 	C 	0.74479	0.90676	0.76083	-0.063
Mof_C 	C 	0.70738	0.8871	0.79483	-0.041
Mof_H 	H 	0.69427	0.90403	0.80603	0.045
Mof_C 	C 	0.87717	0.95613	0.69513	-0.003
Mof_C 	C 	0.85507	0.90443	0.79373	-0.02
Mof_O 	O 	0.47573	0.4462	0.06926	-0.413
Mof_O 	O 	0.48856	0.43295	0.97298	-0.408
Mof_C 	C 	0.47653	0.42179	0.02742	0.374
Mof_C 	C 	0.46122	0.37498	0.04506	-0.125
Mof_C 	C 	0.4587	0.34524	0.99973	0.063
Mof_H 	H 	0.46713	0.35467	0.95847	0.028
Mof_C 	C 	0.4437	0.30205	0.01599	-0.138
Mof_H 	H 	0.44263	0.28207	0.98567	0.093
Mof_C 	C 	0.43037	0.28733	0.07477	0.107
Mof_C 	C 	0.43244	0.31677	0.11977	-0.138
Mof_H 	H 	0.42333	0.30707	0.16067	0.082
Mof_C 	C 	0.44817	0.36079	0.10367	0.064
Mof_H 	H 	0.44973	0.38087	0.13417	0.027
Mof_C 	C 	0.41145	0.2401	0.09417	-0.062
Mof_C 	C 	0.37404	0.22044	0.12817	-0.041
Mof_H 	H 	0.36093	0.23737	0.13937	0.045
Mof_C 	C 	0.54383	0.28947	0.02847	-0.003
Mof_C 	C 	0.52173	0.23777	0.12707	-0.02
Mof_O 	O 	0.63713	0.8576	0.40259	-0.413
Mof_O 	O 	0.61105	0.84477	0.30631	-0.408
Mof_C 	C 	0.61192	0.8568	0.36075	0.374
Mof_C 	C 	0.58042	0.87211	0.37839	-0.125
Mof_C 	C 	0.5532	0.87463	0.33306	0.064
Mof_H 	H 	0.5542	0.8662	0.2918	0.028
Mof_C 	C 	0.52501	0.88963	0.34932	-0.139
Mof_H 	H 	0.5061	0.8907	0.319	0.093
Mof_C 	C 	0.52362	0.90296	0.4081	0.108
Mof_C 	C 	0.55099	0.90089	0.4531	-0.139
Mof_H 	H 	0.5504	0.91	0.494	0.082
Mof_C 	C 	0.57928	0.88516	0.437	0.065
Mof_H 	H 	0.5978	0.8836	0.4675	0.026
Mof_C 	C 	0.49531	0.92188	0.4275	-0.063
Mof_C 	C 	0.51306	0.95929	0.4615	-0.041
Mof_H 	H 	0.5431	0.9724	0.4727	0.045
Mof_C 	C 	0.4123	0.7895	0.3618	-0.003
Mof_C 	C 	0.3827	0.8116	0.4604	-0.02
Mof_O 	O 	0.3038	0.19093	0.73592	-0.413
Mof_O 	O 	0.27772	0.1781	0.63964	-0.408
Mof_C 	C 	0.27859	0.19013	0.69408	0.374
Mof_C 	C 	0.24709	0.20544	0.71172	-0.125
Mof_C 	C 	0.21987	0.20796	0.66639	0.064
Mof_H 	H 	0.22087	0.19953	0.62513	0.028
Mof_C 	C 	0.19168	0.22296	0.68265	-0.139
Mof_H 	H 	0.17277	0.22403	0.65233	0.093
Mof_C 	C 	0.19029	0.23629	0.74143	0.108
Mof_C 	C 	0.21766	0.23422	0.78643	-0.139
Mof_H 	H 	0.21707	0.24333	0.82733	0.082
Mof_C 	C 	0.24595	0.21849	0.77033	0.065
Mof_H 	H 	0.26447	0.21693	0.80083	0.026
Mof_C 	C 	0.16198	0.25521	0.76083	-0.063
Mof_C 	C 	0.17973	0.29262	0.79483	-0.04
Mof_H 	H 	0.20977	0.30573	0.80603	0.045
Mof_C 	C 	0.07897	0.12283	0.69513	-0.003
Mof_C 	C 	0.04937	0.14493	0.79373	-0.02
Mof_O 	O 	0.97046	0.52427	0.06926	-0.412
Mof_O 	O 	0.94438	0.51144	0.97298	-0.408
Mof_C 	C 	0.94525	0.52347	0.02742	0.374
Mof_C 	C 	0.91375	0.53878	0.04506	-0.124
Mof_C 	C 	0.88653	0.5413	0.99973	0.062
Mof_H 	H 	0.88753	0.53287	0.95847	0.028
Mof_C 	C 	0.85834	0.5563	0.01599	-0.137
Mof_H 	H 	0.83943	0.55737	0.98567	0.092
Mof_C 	C 	0.85695	0.56963	0.07477	0.107
Mof_C 	C 	0.88432	0.56756	0.11977	-0.138
Mof_H 	H 	0.88373	0.57667	0.16067	0.082
Mof_C 	C 	0.91261	0.55183	0.10367	0.064
Mof_H 	H 	0.93113	0.55027	0.13417	0.027
Mof_C 	C 	0.82864	0.58855	0.09417	-0.062
Mof_C 	C 	0.84639	0.62596	0.12817	-0.041
Mof_H 	H 	0.87643	0.63907	0.13937	0.045
Mof_C 	C 	0.74563	0.45617	0.02847	-0.003
Mof_C 	C 	0.71603	0.47827	0.12707	-0.02
Mof_Cu	Cu	0.68152	0.84076	0.39081	0.906
Mof_Cu	Cu	0.34819	0.17409	0.72414	0.906
Mof_Cu	Cu	0.01485	0.50743	0.05748	0.906
Mof_Cu	Cu	0.15924	0.84076	0.39081	0.906
Mof_Cu	Cu	0.82591	0.17409	0.72414	0.906
Mof_Cu	Cu	0.49257	0.50743	0.05748	0.906
Mof_Cu	Cu	0.15924	0.31848	0.39081	0.906
Mof_Cu	Cu	0.82591	0.65181	0.72414	0.906
Mof_Cu	Cu	0.49257	0.98515	0.05748	0.906
Mof_Cu	Cu	0.84076	0.68152	0.60919	0.906
Mof_Cu	Cu	0.50743	0.01485	0.94252	0.906
Mof_Cu	Cu	0.17409	0.34819	0.27586	0.906
Mof_Cu	Cu	0.84076	0.15924	0.60919	0.906
Mof_Cu	Cu	0.50743	0.49257	0.94252	0.906
Mof_Cu	Cu	0.17409	0.82591	0.27586	0.906
Mof_Cu	Cu	0.31848	0.15924	0.60919	0.906
Mof_Cu	Cu	0.98515	0.49257	0.94252	0.906
Mof_Cu	Cu	0.65181	0.82591	0.27586	0.906
Mof_O 	O 	0.43239	0.56761	0.3737	-0.217
Mof_C 	C 	0.48977	0.51023	0.4809	0.007
Mof_C 	C 	0.45136	0.54864	0.4085	0.136
Mof_C 	C 	0.41135	0.58865	0.4092	0.098
Mof_O 	O 	0.09906	0.90094	0.70703	-0.217
Mof_C 	C 	0.15644	0.84356	0.81423	0.006
Mof_C 	C 	0.11803	0.88197	0.74183	0.136
Mof_C 	C 	0.07802	0.92198	0.74253	0.098
Mof_O 	O 	0.76572	0.23428	0.04037	-0.217
Mof_C 	C 	0.8231	0.1769	0.14757	0.007
Mof_C 	C 	0.78469	0.21531	0.07517	0.135
Mof_C 	C 	0.74468	0.25532	0.07587	0.098
Mof_O 	O 	0.43239	0.86478	0.3737	-0.217
Mof_C 	C 	0.48977	0.97954	0.4809	0.007
Mof_C 	C 	0.45136	0.90272	0.4085	0.136
Mof_C 	C 	0.41135	0.8227	0.4092	0.098
Mof_O 	O 	0.09906	0.19811	0.70703	-0.217
Mof_C 	C 	0.15644	0.31287	0.81423	0.006
Mof_C 	C 	0.11803	0.23605	0.74183	0.136
Mof_C 	C 	0.07802	0.15603	0.74253	0.098
Mof_O 	O 	0.76572	0.53145	0.04037	-0.217
Mof_C 	C 	0.8231	0.64621	0.14757	0.007
Mof_C 	C 	0.78469	0.56939	0.07517	0.136
Mof_C 	C 	0.74468	0.48937	0.07587	0.098
Mof_O 	O 	0.13522	0.56761	0.3737	-0.217
Mof_C 	C 	0.02046	0.51023	0.4809	0.007
Mof_C 	C 	0.09728	0.54864	0.4085	0.136
Mof_C 	C 	0.1773	0.58865	0.4092	0.098
Mof_O 	O 	0.80189	0.90094	0.70703	-0.217
Mof_C 	C 	0.68713	0.84356	0.81423	0.006
Mof_C 	C 	0.76395	0.88197	0.74183	0.136
Mof_C 	C 	0.84397	0.92198	0.74253	0.098
Mof_O 	O 	0.46855	0.23428	0.04037	-0.217
Mof_C 	C 	0.35379	0.1769	0.14757	0.007
Mof_C 	C 	0.43061	0.21531	0.07517	0.136
Mof_C 	C 	0.51063	0.25532	0.07587	0.098
Mof_O 	O 	0.56761	0.43239	0.6263	-0.217
Mof_C 	C 	0.51023	0.48977	0.5191	0.007
Mof_C 	C 	0.54864	0.45136	0.5915	0.136
Mof_C 	C 	0.58865	0.41135	0.5908	0.098
Mof_O 	O 	0.23428	0.76572	0.95963	-0.217
Mof_C 	C 	0.1769	0.8231	0.85243	0.007
Mof_C 	C 	0.21531	0.78469	0.92483	0.135
Mof_C 	C 	0.25532	0.74468	0.92413	0.098
Mof_O 	O 	0.90094	0.09906	0.29297	-0.217
Mof_C 	C 	0.84356	0.15644	0.18577	0.006
Mof_C 	C 	0.88197	0.11803	0.25817	0.136
Mof_C 	C 	0.92198	0.07802	0.25747	0.098
Mof_O 	O 	0.86478	0.43239	0.6263	-0.217
Mof_C 	C 	0.97954	0.48977	0.5191	0.007
Mof_C 	C 	0.90272	0.45136	0.5915	0.136
Mof_C 	C 	0.8227	0.41135	0.5908	0.098
Mof_O 	O 	0.53145	0.76572	0.95963	-0.217
Mof_C 	C 	0.64621	0.8231	0.85243	0.007
Mof_C 	C 	0.56939	0.78469	0.92483	0.136
Mof_C 	C 	0.48937	0.74468	0.92413	0.098
Mof_O 	O 	0.19811	0.09906	0.29297	-0.217
Mof_C 	C 	0.31287	0.15644	0.18577	0.006
Mof_C 	C 	0.23605	0.11803	0.25817	0.136
Mof_C 	C 	0.15603	0.07802	0.25747	0.098
Mof_O 	O 	0.56761	0.13522	0.6263	-0.217
Mof_C 	C 	0.51023	0.02046	0.5191	0.007
Mof_C 	C 	0.54864	0.09728	0.5915	0.136
Mof_C 	C 	0.58865	0.1773	0.5908	0.098
Mof_O 	O 	0.23428	0.46855	0.95963	-0.217
Mof_C 	C 	0.1769	0.35379	0.85243	0.007
Mof_C 	C 	0.21531	0.43061	0.92483	0.136
Mof_C 	C 	0.25532	0.51063	0.92413	0.098
Mof_O 	O 	0.90094	0.80189	0.29297	-0.217
Mof_C 	C 	0.84356	0.68713	0.18577	0.006
Mof_C 	C 	0.88197	0.76395	0.25817	0.136
Mof_C 	C 	0.92198	0.84397	0.25747	0.098
_end
