data_functionalizedCrystal
_audit_creation_method	'EQeq! by Chris Wilmer'
_symmetry_space_group_name_H-M	'P1'
_symmetry_Int_Tables_number	1
_symmetry_cell_setting	triclinic
loop_
_symmetry_equiv_pos_as_xyz
  x,y,z
_cell_length_a	10.1383
_cell_length_b	10.1383
_cell_length_c	9.628
_cell_angle_alpha	90
_cell_angle_beta	90
_cell_angle_gamma	90
loop_
_atom_site_label
_atom_site_type_symbol
_atom_site_fract_x
_atom_site_fract_y
_atom_site_fract_z
_atom_site_charge
Mof_O 	O 	0.299	0.524	0.223	-0.349
Mof_O 	O 	0.799	0.024	0.723	-0.334
Mof_O 	O 	0.701	0.476	0.223	-0.356
Mof_O 	O 	0.201	0.976	0.723	-0.381
Mof_O 	O 	0.524	0.701	0.777	-0.356
Mof_O 	O 	0.024	0.201	0.277	-0.321
Mof_O 	O 	0.476	0.299	0.777	-0.349
Mof_O 	O 	0.976	0.799	0.277	-0.372
Mof_O 	O 	0.701	0.524	0.777	-0.356
Mof_O 	O 	0.201	0.024	0.277	-0.321
Mof_O 	O 	0.299	0.476	0.777	-0.349
Mof_O 	O 	0.799	0.976	0.277	-0.372
Mof_O 	O 	0.476	0.701	0.223	-0.356
Mof_O 	O 	0.976	0.201	0.723	-0.381
Mof_O 	O 	0.524	0.299	0.223	-0.348
Mof_O 	O 	0.024	0.799	0.723	-0.334
Mof_O 	O 	0.5	0.5	-0	-0.509
Mof_O 	O 	1.78034e-33	0	0.5	-0.484
Mof_O 	O 	0.296	0.704	0.052	-0.33
Mof_O 	O 	0.246	0.754	0.31	-0.31
Mof_P 	P 	0.3311	0.6689	0.1961	0.561
Mof_O 	O 	0.796	0.204	0.552	-0.354
Mof_O 	O 	0.746	0.254	0.81	-0.318
Mof_P 	P 	0.8311	0.1689	0.6961	0.559
Mof_O 	O 	0.704	0.296	0.052	-0.33
Mof_O 	O 	0.754	0.246	0.31	-0.31
Mof_P 	P 	0.6689	0.3311	0.1961	0.561
Mof_O 	O 	0.204	0.796	0.552	-0.354
Mof_O 	O 	0.254	0.746	0.81	-0.318
Mof_P 	P 	0.1689	0.8311	0.6961	0.559
Mof_O 	O 	0.704	0.704	0.948	-0.386
Mof_O 	O 	0.754	0.754	0.69	-0.316
Mof_P 	P 	0.6689	0.6689	0.8039	0.557
Mof_O 	O 	0.204	0.204	0.448	-0.353
Mof_O 	O 	0.254	0.254	0.19	-0.301
Mof_P 	P 	0.1689	0.1689	0.3039	0.564
Mof_O 	O 	0.296	0.296	0.948	-0.372
Mof_O 	O 	0.246	0.246	0.69	-0.312
Mof_P 	P 	0.3311	0.3311	0.8039	0.564
Mof_O 	O 	0.796	0.796	0.448	-0.357
Mof_O 	O 	0.746	0.746	0.19	-0.313
Mof_P 	P 	0.8311	0.8311	0.3039	0.559
Mof_Fe	Fe	0.3736	0.3736	0.1212	0.975
Mof_Fe	Fe	0.8736	0.8736	0.6212	0.867
Mof_Fe	Fe	0.6264	0.6264	0.1212	0.97
Mof_Fe	Fe	0.1264	0.1264	0.6212	0.996
Mof_Fe	Fe	0.3736	0.6264	0.8788	0.904
Mof_Fe	Fe	0.8736	0.1264	0.3788	0.931
Mof_Fe	Fe	0.6264	0.3736	0.8788	0.904
Mof_Fe	Fe	0.1264	0.8736	0.3788	0.931
_end
