data_functionalizedCrystal
_audit_creation_method	'EQeq! by Chris Wilmer'
_symmetry_space_group_name_H-M	'P1'
_symmetry_Int_Tables_number	1
_symmetry_cell_setting	triclinic
loop_
_symmetry_equiv_pos_as_xyz
  x,y,z
_cell_length_a	15.813
_cell_length_b	18.213
_cell_length_c	27.961
_cell_angle_alpha	104.736
_cell_angle_beta	91.538
_cell_angle_gamma	107.955
loop_
_atom_site_label
_atom_site_type_symbol
_atom_site_fract_x
_atom_site_fract_y
_atom_site_fract_z
_atom_site_charge
Mof_Cd	Cd	0.35875	0.14671	0.74135	0.506
Mof_Cd	Cd	0.16982	0.23356	0.73177	0.48
Mof_Cd	Cd	0.02269	0.3661	0.78257	0.508
Mof_O 	O 	0.3149	0.3269	0.7658	-0.257
Mof_O 	O 	0.4237	0.2757	0.7652	-0.284
Mof_O 	O 	0.8356	0.7019	0.1846	-0.496
Mof_O 	O 	0.9332	0.646	0.1467	-0.336
Mof_O 	O 	0.243	0.0328	0.7471	-0.254
Mof_O 	O 	0.2239	0.1554	0.7757	-0.257
Mof_O 	O 	0.4745	0.1013	0.743	-0.26
Mof_O 	O 	0.4259	0.1297	0.8165	-0.262
Mof_O 	O 	0.6393	0.7159	0.8235	-0.163
Mof_O 	O 	0.824	0.8549	0.9785	-0.165
Mof_O 	O 	0.6133	0.8728	0.8896	-0.151
Mof_O 	O 	0.901	0.8429	0.8763	-0.158
Mof_O 	O 	0.4736	0.6622	0.6365	-0.158
Mof_O 	O 	0.7701	0.6489	0.6377	-0.163
Mof_O 	O 	0.5971	0.6508	0.5312	-0.166
Mof_O 	O 	0.6955	0.8042	0.7018	-0.168
Mof_O 	O 	0.1497	0.4763	0.7756	-0.285
Mof_O 	O 	0.1381	0.3556	0.73202	-0.288
Mof_O 	O 	0.9154	0.4273	0.7878	-0.263
Mof_O 	O 	0.9658	0.4042	0.714	-0.247
Mof_O 	O 	0.0206	0.1957	0.7489	-0.282
Mof_O 	O 	0.9117	0.2476	0.7501	-0.275
Mof_O 	O 	0.7285	0.7887	0.3247	-0.588
Mof_O 	O 	0.6492	0.8727	0.3403	-0.334
Mof_C 	C 	0.3958	0.3344	0.7748	0.337
Mof_C 	C 	0.4611	0.4152	0.7993	-0.118
Mof_C 	C 	0.5445	0.4215	0.8199	0.059
Mof_H 	H 	0.5601	0.3752	0.8159	0.032
Mof_C 	C 	0.6053	0.4948	0.8461	-0.147
Mof_H 	H 	0.66	0.4966	0.8603	0.088
Mof_C 	C 	0.5859	0.5671	0.8519	0.106
Mof_C 	C 	0.5008	0.5593	0.8282	-0.138
Mof_H 	H 	0.4865	0.6054	0.8287	0.091
Mof_C 	C 	0.4398	0.4855	0.8048	0.059
Mof_H 	H 	0.3832	0.4823	0.7924	0.031
Mof_C 	C 	0.6463	0.643	0.8839	-0.087
Mof_C 	C 	0.6823	0.6441	0.9287	0.022
Mof_H 	H 	0.6673	0.5965	0.938	0.03
Mof_C 	C 	0.7407	0.7134	0.9615	-0.115
Mof_C 	C 	0.7621	0.7843	0.9471	0.141
Mof_C 	C 	0.7294	0.7847	0.9021	-0.058
Mof_C 	C 	0.6738	0.7156	0.8707	0.129
Mof_C 	C 	0.7763	0.7091	0.0113	0.204
Mof_C 	C 	0.7348	0.7206	0.0533	-0.289
Mof_H 	H 	0.6834	0.7353	0.0531	0.139
Mof_C 	C 	0.7683	0.7104	0.0956	0.236
Mof_H 	H 	0.7378	0.7184	0.1234	-0.031
Mof_C 	C 	0.8398	0.6905	0.1003	-0.281
Mof_C 	C 	0.8868	0.6859	0.0615	0.182
Mof_H 	H 	0.9419	0.6783	0.0647	-0.015
Mof_C 	C 	0.8547	0.6924	0.0152	-0.246
Mof_H 	H 	0.8866	0.6854	0.9879	0.126
Mof_C 	C 	0.8723	0.6746	0.1451	0.465
Mof_C 	C 	0.6962	0.6995	0.7854	-0.262
Mof_H 	H 	0.6686	0.6972	0.7538	0.126
Mof_H 	H 	0.7047	0.649	0.7838	0.117
Mof_H 	H 	0.7531	0.7414	0.7933	0.123
Mof_C 	C 	0.7946	0.9018	0.0184	-0.216
Mof_H 	H 	0.8251	0.9577	0.0219	0.101
Mof_H 	H 	0.8075	0.8892	0.0485	0.105
Mof_H 	H 	0.7313	0.8906	0.0121	0.106
Mof_C 	C 	0.7583	0.8588	0.884	-0.034
Mof_C 	C 	0.8475	0.8865	0.8717	0.117
Mof_C 	C 	0.8736	0.9535	0.8527	-0.072
Mof_C 	C 	0.8129	0.9905	0.847	-0.005
Mof_H 	H 	0.8316	0.0361	0.8356	0.038
Mof_C 	C 	0.7245	0.9648	0.8571	-0.084
Mof_C 	C 	0.7015	0.9007	0.8774	0.114
Mof_C 	C 	0.9832	0.8857	0.9108	-0.256
Mof_H 	H 	0.0149	0.8492	0.9127	0.119
Mof_H 	H 	0.9681	0.9074	0.9432	0.124
Mof_H 	H 	0.0203	0.9286	0.899	0.114
Mof_C 	C 	0.535	0.8289	0.8492	-0.281
Mof_H 	H 	0.4831	0.8043	0.8637	0.127
Mof_H 	H 	0.5494	0.7882	0.8248	0.132
Mof_H 	H 	0.5229	0.8663	0.8335	0.122
Mof_C 	C 	0.9635	0.9818	0.8343	0.084
Mof_C 	C 	0.9945	0.9294	0.7999	-0.127
Mof_H 	H 	0.9639	0.8745	0.7909	0.081
Mof_C 	C 	0.072	0.9598	0.7789	0.023
Mof_H 	H 	0.094	0.9249	0.7564	0.035
Mof_C 	C 	0.1168	0.0425	0.7913	-0.079
Mof_C 	C 	0.0846	0.0943	0.8274	0.027
Mof_H 	H 	0.115	0.1493	0.8369	0.046
Mof_C 	C 	0.0092	0.0639	0.8484	-0.118
Mof_H 	H 	0.9884	0.0982	0.8721	0.076
Mof_C 	C 	0.1996	0.0753	0.7696	0.264
Mof_C 	C 	0.6615	0.0059	0.8435	0.134
Mof_C 	C 	0.6664	0.0215	0.7979	-0.174
Mof_H 	H 	0.7099	0.0096	0.7785	0.098
Mof_C 	C 	0.6094	0.0538	0.7802	0.073
Mof_H 	H 	0.6133	0.063	0.749	0.024
Mof_C 	C 	0.5447	0.0731	0.8095	-0.113
Mof_C 	C 	0.5423	0.0612	0.8555	0.065
Mof_H 	H 	0.5018	0.0761	0.8761	0.024
Mof_C 	C 	0.6023	0.0254	0.8722	-0.17
Mof_H 	H 	0.5996	0.0159	0.9034	0.104
Mof_C 	C 	0.4768	0.1046	0.7897	0.309
Mof_C 	C 	0.1742	0.4321	0.7448	0.35
Mof_C 	C 	0.2562	0.4672	0.7187	-0.125
Mof_C 	C 	0.2868	0.4191	0.6859	0.082
Mof_H 	H 	0.2547	0.3645	0.676	0.022
Mof_C 	C 	0.3655	0.4468	0.6655	-0.161
Mof_H 	H 	0.3847	0.4116	0.6415	0.093
Mof_C 	C 	0.4158	0.5292	0.6818	0.116
Mof_C 	C 	0.3793	0.58	0.7137	-0.157
Mof_H 	H 	0.408	0.6353	0.722	0.093
Mof_C 	C 	0.3018	0.55	0.7331	0.067
Mof_H 	H 	0.2795	0.5845	0.7558	0.023
Mof_C 	C 	0.5049	0.5586	0.6665	-0.08
Mof_C 	C 	0.5688	0.5249	0.6766	-0.01
Mof_H 	H 	0.5511	0.4802	0.6888	0.042
Mof_C 	C 	0.6596	0.5558	0.669	-0.081
Mof_C 	C 	0.6826	0.6177	0.6476	0.113
Mof_C 	C 	0.6216	0.6545	0.6363	-0.043
Mof_C 	C 	0.5335	0.6234	0.6455	0.112
Mof_C 	C 	0.4068	0.6183	0.5934	-0.246
Mof_H 	H 	0.3706	0.6504	0.589	0.115
Mof_H 	H 	0.3695	0.5689	0.5985	0.11
Mof_H 	H 	0.4364	0.6068	0.5642	0.118
Mof_C 	C 	0.8334	0.6989	0.6788	-0.23
Mof_H 	H 	0.8923	0.7114	0.6683	0.108
Mof_H 	H 	0.831	0.6715	0.7041	0.106
Mof_H 	H 	0.82	0.7476	0.6918	0.113
Mof_C 	C 	0.7218	0.5185	0.6851	0.1
Mof_C 	C 	0.7165	0.5032	0.7319	-0.137
Mof_H 	H 	0.6708	0.5114	0.7505	0.082
Mof_C 	C 	0.7811	0.475	0.7505	0.042
Mof_H 	H 	0.7791	0.4675	0.7822	0.035
Mof_C 	C 	0.846	0.4589	0.7229	-0.089
Mof_C 	C 	0.8513	0.4704	0.6747	0.032
Mof_H 	H 	0.8949	0.4588	0.6553	0.037
Mof_C 	C 	0.786	0.5011	0.657	-0.129
Mof_H 	H 	0.7878	0.5091	0.6254	0.087
Mof_C 	C 	0.9129	0.428	0.7432	0.298
Mof_C 	C 	0.6497	0.7264	0.6175	-0.049
Mof_C 	C 	0.6865	0.8016	0.6515	0.126
Mof_C 	C 	0.7113	0.8725	0.6374	-0.089
Mof_C 	C 	0.697	0.8651	0.5874	0.013
Mof_H 	H 	0.7113	0.912	0.5774	0.029
Mof_C 	C 	0.663	0.7932	0.5514	-0.097
Mof_C 	C 	0.64	0.7229	0.5678	0.128
Mof_C 	C 	0.6244	0.8226	0.7285	-0.249
Mof_H 	H 	0.6369	0.8272	0.7632	0.115
Mof_H 	H 	0.5688	0.7805	0.7153	0.119
Mof_H 	H 	0.6201	0.8725	0.725	0.114
Mof_C 	C 	0.6368	0.5895	0.5253	-0.219
Mof_H 	H 	0.6268	0.5589	0.491	0.098
Mof_H 	H 	0.6106	0.5549	0.5455	0.107
Mof_H 	H 	0.7	0.6134	0.5355	0.105
Mof_C 	C 	0.7613	0.9535	0.671	0.117
Mof_C 	C 	0.835	0.9656	0.7045	-0.16
Mof_H 	H 	0.844	0.9216	0.7121	0.097
Mof_C 	C 	0.8938	0.0404	0.726	0.07
Mof_H 	H 	0.9471	0.0463	0.7438	0.021
Mof_C 	C 	0.8745	0.1083	0.7215	-0.129
Mof_C 	C 	0.7958	0.0976	0.6924	0.066
Mof_H 	H 	0.78	0.142	0.6904	0.028
Mof_C 	C 	0.7413	0.0206	0.6665	-0.158
Mof_H 	H 	0.6909	0.0141	0.6459	0.091
Mof_C 	C 	0.9399	0.1891	0.741	0.334
Mof_C 	C 	0.6586	0.7937	0.4987	0.161
Mof_C 	C 	0.7054	0.7527	0.465	-0.222
Mof_H 	H 	0.7305	0.7178	0.4743	0.11
Mof_C 	C 	0.7135	0.7644	0.4193	0.151
Mof_H 	H 	0.7461	0.7385	0.398	-0.04
Mof_C 	C 	0.6746	0.8142	0.4029	-0.225
Mof_C 	C 	0.6259	0.8517	0.4353	0.138
Mof_H 	H 	0.5971	0.8834	0.4249	-0.001
Mof_C 	C 	0.6195	0.8429	0.4826	-0.215
Mof_H 	H 	0.5886	0.8704	0.504	0.11
Mof_C 	C 	0.6856	0.8269	0.3527	0.456
Mof_Sm	Sm	0.83018	0.76644	0.26823	2.285
Mof_Cd	Cd	0.64125	0.85329	0.25865	0.487
Mof_Cd	Cd	0.97731	0.6339	0.21743	0.497
Mof_O 	O 	0.6851	0.6731	0.2342	-0.501
Mof_O 	O 	0.5763	0.7243	0.2348	-0.331
Mof_O 	O 	0.1644	0.2981	0.8154	-0.245
Mof_O 	O 	0.0668	0.354	0.8533	-0.289
Mof_O 	O 	0.757	0.9672	0.2529	-0.292
Mof_O 	O 	0.7761	0.8446	0.2243	-0.489
Mof_O 	O 	0.5255	0.8987	0.257	-0.259
Mof_O 	O 	0.5741	0.8703	0.1835	-0.262
Mof_O 	O 	0.3607	0.2841	0.1765	-0.163
Mof_O 	O 	0.176	0.1451	0.0215	-0.16
Mof_O 	O 	0.3867	0.1272	0.1104	-0.151
Mof_O 	O 	0.099	0.1571	0.1237	-0.165
Mof_O 	O 	0.5264	0.3378	0.3635	-0.162
Mof_O 	O 	0.2299	0.3511	0.3623	-0.165
Mof_O 	O 	0.4029	0.3492	0.4688	-0.163
Mof_O 	O 	0.3045	0.1958	0.2982	-0.169
Mof_O 	O 	0.8503	0.5237	0.2244	-0.329
Mof_O 	O 	0.8619	0.6444	0.26798	-0.543
Mof_O 	O 	0.0846	0.5727	0.2122	-0.261
Mof_O 	O 	0.0342	0.5958	0.286	-0.256
Mof_O 	O 	0.9794	0.8043	0.2511	-0.583
Mof_O 	O 	0.0883	0.7524	0.2499	-0.326
Mof_O 	O 	0.2715	0.2113	0.6753	-0.286
Mof_O 	O 	0.3508	0.1273	0.6597	-0.278
Mof_C 	C 	0.6042	0.6656	0.2252	0.448
Mof_C 	C 	0.5389	0.5848	0.2007	-0.181
Mof_C 	C 	0.4555	0.5785	0.1801	0.1
Mof_H 	H 	0.4399	0.6248	0.1841	0.016
Mof_C 	C 	0.3947	0.5052	0.1539	-0.176
Mof_H 	H 	0.34	0.5034	0.1397	0.098
Mof_C 	C 	0.4141	0.4329	0.1481	0.126
Mof_C 	C 	0.4992	0.4407	0.1718	-0.171
Mof_H 	H 	0.5135	0.3946	0.1713	0.102
Mof_C 	C 	0.5602	0.5145	0.1952	0.107
Mof_H 	H 	0.6168	0.5177	0.2076	0.008
Mof_C 	C 	0.3537	0.357	0.1161	-0.09
Mof_C 	C 	0.3177	0.3559	0.0713	0.014
Mof_H 	H 	0.3327	0.4035	0.062	0.033
Mof_C 	C 	0.2593	0.2866	0.0385	-0.095
Mof_C 	C 	0.2379	0.2157	0.0529	0.132
Mof_C 	C 	0.2706	0.2153	0.0979	-0.053
Mof_C 	C 	0.3262	0.2844	0.1293	0.128
Mof_C 	C 	0.2237	0.2909	0.9887	0.154
Mof_C 	C 	0.2652	0.2794	0.9467	-0.21
Mof_H 	H 	0.3166	0.2647	0.9469	0.112
Mof_C 	C 	0.2317	0.2896	0.9044	0.131
Mof_H 	H 	0.2622	0.2816	0.8766	0.014
Mof_C 	C 	0.1602	0.3095	0.8997	-0.173
Mof_C 	C 	0.1132	0.3141	0.9385	0.106
Mof_H 	H 	0.0581	0.3217	0.9353	0.014
Mof_C 	C 	0.1453	0.3076	0.9848	-0.186
Mof_H 	H 	0.1134	0.3146	0.0121	0.107
Mof_C 	C 	0.1277	0.3254	0.8549	0.338
Mof_C 	C 	0.3038	0.3005	0.2146	-0.262
Mof_H 	H 	0.3314	0.3028	0.2462	0.126
Mof_H 	H 	0.2953	0.351	0.2162	0.117
Mof_H 	H 	0.2469	0.2586	0.2067	0.123
Mof_C 	C 	0.2054	0.0982	0.9816	-0.222
Mof_H 	H 	0.1749	0.0423	0.9781	0.104
Mof_H 	H 	0.1925	0.1108	0.9515	0.107
Mof_H 	H 	0.2687	0.1094	0.9879	0.108
Mof_C 	C 	0.2417	0.1412	0.116	-0.04
Mof_C 	C 	0.1525	0.1135	0.1283	0.127
Mof_C 	C 	0.1264	0.0465	0.1473	-0.092
Mof_C 	C 	0.1871	0.0095	0.153	0.012
Mof_H 	H 	0.1684	0.9639	0.1644	0.03
Mof_C 	C 	0.2755	0.0352	0.1429	-0.089
Mof_C 	C 	0.2985	0.0993	0.1226	0.118
Mof_C 	C 	0.0168	0.1143	0.0892	-0.224
Mof_H 	H 	0.9851	0.1508	0.0873	0.107
Mof_H 	H 	0.0319	0.0926	0.0568	0.116
Mof_H 	H 	0.9797	0.0714	0.101	0.102
Mof_C 	C 	0.465	0.1711	0.1508	-0.281
Mof_H 	H 	0.5169	0.1957	0.1363	0.126
Mof_H 	H 	0.4506	0.2118	0.1752	0.131
Mof_H 	H 	0.4771	0.1337	0.1665	0.123
Mof_C 	C 	0.0365	0.0182	0.1657	0.128
Mof_C 	C 	0.0055	0.0706	0.2001	-0.168
Mof_H 	H 	0.0361	0.1255	0.2091	0.096
Mof_C 	C 	0.928	0.0402	0.2211	0.069
Mof_H 	H 	0.906	0.0751	0.2436	0.012
Mof_C 	C 	0.8832	0.9575	0.2087	-0.16
Mof_C 	C 	0.9154	0.9057	0.1726	0.09
Mof_H 	H 	0.885	0.8507	0.1631	0.002
Mof_C 	C 	0.9908	0.9361	0.1516	-0.186
Mof_H 	H 	0.0116	0.9018	0.1279	0.1
Mof_C 	C 	0.8004	0.9247	0.2304	0.323
Mof_C 	C 	0.3385	0.9941	0.1565	0.134
Mof_C 	C 	0.3336	0.9785	0.2021	-0.175
Mof_H 	H 	0.2901	0.9904	0.2215	0.098
Mof_C 	C 	0.3906	0.9462	0.2198	0.074
Mof_H 	H 	0.3867	0.937	0.251	0.024
Mof_C 	C 	0.4553	0.9269	0.1905	-0.114
Mof_C 	C 	0.4577	0.9388	0.1445	0.066
Mof_H 	H 	0.4982	0.9239	0.1239	0.024
Mof_C 	C 	0.3977	0.9746	0.1278	-0.171
Mof_H 	H 	0.4004	0.9841	0.0966	0.103
Mof_C 	C 	0.5232	0.8954	0.2103	0.309
Mof_C 	C 	0.8258	0.5679	0.2552	0.468
Mof_C 	C 	0.7438	0.5328	0.2813	-0.246
Mof_C 	C 	0.7132	0.5809	0.3141	0.21
Mof_H 	H 	0.7453	0.6355	0.324	-0.079
Mof_C 	C 	0.6345	0.5532	0.3345	-0.253
Mof_H 	H 	0.6153	0.5884	0.3585	0.121
Mof_C 	C 	0.5842	0.4708	0.3182	0.173
Mof_C 	C 	0.6207	0.42	0.2863	-0.228
Mof_H 	H 	0.592	0.3647	0.278	0.117
Mof_C 	C 	0.6982	0.45	0.2669	0.153
Mof_H 	H 	0.7205	0.4155	0.2442	-0.008
Mof_C 	C 	0.4951	0.4414	0.3335	-0.106
Mof_C 	C 	0.4312	0.4751	0.3234	0.006
Mof_H 	H 	0.4489	0.5198	0.3112	0.034
Mof_C 	C 	0.3404	0.4442	0.331	-0.089
Mof_C 	C 	0.3174	0.3823	0.3524	0.118
Mof_C 	C 	0.3784	0.3455	0.3637	-0.049
Mof_C 	C 	0.4665	0.3766	0.3545	0.123
Mof_C 	C 	0.5932	0.3817	0.4066	-0.241
Mof_H 	H 	0.6294	0.3496	0.411	0.113
Mof_H 	H 	0.6305	0.4311	0.4015	0.107
Mof_H 	H 	0.5636	0.3932	0.4358	0.116
Mof_C 	C 	0.1666	0.3011	0.3212	-0.226
Mof_H 	H 	0.1077	0.2886	0.3317	0.106
Mof_H 	H 	0.169	0.3285	0.2959	0.105
Mof_H 	H 	0.18	0.2524	0.3082	0.111
Mof_C 	C 	0.2782	0.4815	0.3149	0.105
Mof_C 	C 	0.2835	0.4968	0.2681	-0.141
Mof_H 	H 	0.3292	0.4886	0.2495	0.083
Mof_C 	C 	0.2189	0.525	0.2495	0.045
Mof_H 	H 	0.2209	0.5325	0.2178	0.034
Mof_C 	C 	0.154	0.5411	0.2771	-0.093
Mof_C 	C 	0.1487	0.5296	0.3253	0.035
Mof_H 	H 	0.1051	0.5412	0.3447	0.034
Mof_C 	C 	0.214	0.4989	0.343	-0.133
Mof_H 	H 	0.2122	0.4909	0.3746	0.088
Mof_C 	C 	0.0871	0.572	0.2568	0.301
Mof_C 	C 	0.3503	0.2736	0.3825	-0.047
Mof_C 	C 	0.3135	0.1984	0.3485	0.128
Mof_C 	C 	0.2887	0.1275	0.3626	-0.1
Mof_C 	C 	0.303	0.1349	0.4126	0.011
Mof_H 	H 	0.2887	0.088	0.4226	0.029
Mof_C 	C 	0.337	0.2068	0.4486	-0.083
Mof_C 	C 	0.36	0.2771	0.4322	0.122
Mof_C 	C 	0.3756	0.1774	0.2715	-0.248
Mof_H 	H 	0.3631	0.1728	0.2368	0.115
Mof_H 	H 	0.4312	0.2195	0.2847	0.119
Mof_H 	H 	0.3799	0.1275	0.275	0.114
Mof_C 	C 	0.3632	0.4105	0.4747	-0.222
Mof_H 	H 	0.3732	0.4411	0.509	0.1
Mof_H 	H 	0.3894	0.4451	0.4545	0.108
Mof_H 	H 	0.3	0.3866	0.4645	0.107
Mof_C 	C 	0.2387	0.0465	0.329	0.151
Mof_C 	C 	0.165	0.0344	0.2955	-0.214
Mof_H 	H 	0.156	0.0784	0.2879	0.112
Mof_C 	C 	0.1062	0.9596	0.274	0.132
Mof_H 	H 	0.0529	0.9537	0.2562	-0.025
Mof_C 	C 	0.1255	0.8917	0.2785	-0.225
Mof_C 	C 	0.2042	0.9024	0.3076	0.12
Mof_H 	H 	0.22	0.858	0.3096	0.003
Mof_C 	C 	0.2587	0.9794	0.3335	-0.208
Mof_H 	H 	0.3091	0.9859	0.3541	0.106
Mof_C 	C 	0.0601	0.8109	0.259	0.464
Mof_C 	C 	0.3414	0.2063	0.5013	0.122
Mof_C 	C 	0.2946	0.2473	0.535	-0.158
Mof_H 	H 	0.2695	0.2822	0.5257	0.092
Mof_C 	C 	0.2865	0.2356	0.5807	0.072
Mof_H 	H 	0.2539	0.2615	0.602	0.016
Mof_C 	C 	0.3254	0.1858	0.5971	-0.127
Mof_C 	C 	0.3741	0.1483	0.5647	0.073
Mof_H 	H 	0.4029	0.1166	0.5751	0.024
Mof_C 	C 	0.3805	0.1571	0.5174	-0.162
Mof_H 	H 	0.4114	0.1296	0.496	0.092
Mof_C 	C 	0.3144	0.1731	0.6473	0.328
_end
