data_functionalizedCrystal
_audit_creation_method	'EQeq! by Chris Wilmer'
_symmetry_space_group_name_H-M	'P1'
_symmetry_Int_Tables_number	1
_symmetry_cell_setting	triclinic
loop_
_symmetry_equiv_pos_as_xyz
  x,y,z
_cell_length_a	15.4556
_cell_length_b	18.3812
_cell_length_c	31.0901
_cell_angle_alpha	90
_cell_angle_beta	90
_cell_angle_gamma	90
loop_
_atom_site_label
_atom_site_type_symbol
_atom_site_fract_x
_atom_site_fract_y
_atom_site_fract_z
_atom_site_charge
Mof_C 	C 	0.683	0.25757	0.18784	0.379
Mof_C 	C 	0.7486	0.25823	0.2239	-0.08
Mof_C 	C 	0.7798	0.1931	0.24084	-0.019
Mof_H 	H 	0.7579	0.1491	0.2308	0.049
Mof_C 	C 	0.8429	0.19323	0.27234	-0.018
Mof_H 	H 	0.8631	0.1494	0.2833	0.053
Mof_C 	C 	0.87622	0.25854	0.28771	-0.074
Mof_C 	C 	0.8439	0.32353	0.27144	-0.018
Mof_H 	H 	0.8649	0.3675	0.2819	0.054
Mof_C 	C 	0.7807	0.32337	0.23988	-0.016
Mof_H 	H 	0.7597	0.3673	0.2293	0.05
Mof_C 	C 	0.9477	0.2588	0.32039	0.382
Mof_C 	C 	0.6976	0.2525	0.0693	0.382
Mof_C 	C 	0.7662	0.25174	0.03516	-0.078
Mof_C 	C 	0.8027	0.316	0.02098	-0.014
Mof_H 	H 	0.7848	0.36	0.0328	0.053
Mof_C 	C 	0.8656	0.31537	0.98936	-0.014
Mof_H 	H 	0.89	0.3589	0.9802	0.057
Mof_C 	C 	0.8926	0.25016	0.97124	-0.072
Mof_C 	C 	0.8556	0.18569	0.98558	-0.015
Mof_H 	H 	0.8732	0.1416	0.9738	0.052
Mof_C 	C 	0.793	0.18661	0.01716	-0.016
Mof_H 	H 	0.7685	0.1431	0.0264	0.054
Mof_C 	C 	0.9601	0.24936	0.93647	0.38
Mof_C 	C 	0.5919	0.4862	0.15239	0.101
Mof_H 	H 	0.6036	0.4641	0.1787	-0.01
Mof_C 	C 	0.5909	0.56073	0.15048	-0.171
Mof_H 	H 	0.6013	0.5881	0.1751	0.094
Mof_C 	C 	0.5739	0.59558	0.11108	0.119
Mof_C 	C 	0.5598	0.55142	0.07573	-0.17
Mof_H 	H 	0.5488	0.5719	0.0489	0.103
Mof_C 	C 	0.5622	0.47646	0.08059	0.101
Mof_H 	H 	0.5532	0.4475	0.0565	-0.005
Mof_C 	C 	0.572	0.6757	0.10921	-0.043
Mof_C 	C 	0.5162	0.71523	0.08122	0.055
Mof_C 	C 	0.5148	0.79377	0.082	0.057
Mof_C 	C 	0.571	0.83333	0.10969	-0.05
Mof_C 	C 	0.6252	0.79256	0.13494	-0.03
Mof_H 	H 	0.6636	0.8165	0.1531	0.049
Mof_C 	C 	0.6251	0.71624	0.13466	-0.036
Mof_H 	H 	0.6633	0.6921	0.1528	0.052
Mof_C 	C 	0.5723	0.91334	0.11254	0.129
Mof_C 	C 	0.6494	0.9513	0.11952	-0.187
Mof_H 	H 	0.7017	0.9264	0.1206	0.103
Mof_C 	C 	0.6475	0.0253	0.12473	0.12
Mof_H 	H 	0.6995	0.0495	0.1292	-0.014
Mof_C 	C 	0.5013	0.02874	0.11733	0.108
Mof_H 	H 	0.45	0.0552	0.1171	-0.011
Mof_C 	C 	0.4971	0.95447	0.1111	-0.177
Mof_H 	H 	0.4441	0.9321	0.106	0.106
Mof_N 	N 	0.57689	0.44389	0.11832	-0.259
Mof_N 	N 	0.57518	0.06428	0.12372	-0.265
Mof_N 	N 	0.46063	0.6869	0.0522	-0.119
Mof_N 	N 	0.45811	0.8225	0.05369	-0.12
Mof_O 	O 	0.65621	0.31784	0.17487	-0.461
Mof_O 	O 	0.66241	0.19668	0.17289	-0.464
Mof_O 	O 	0.97271	0.31909	0.33387	-0.457
Mof_O 	O 	0.97839	0.19777	0.33034	-0.46
Mof_O 	O 	0.67358	0.31319	0.08324	-0.463
Mof_O 	O 	0.66778	0.19234	0.08122	-0.459
Mof_O 	O 	0.98301	0.30988	0.92195	-0.45
Mof_O 	O 	0.98962	0.18874	0.9256	-0.454
Mof_S 	S 	0.4137	0.75477	0.02929	0.105
Mof_Zn	Zn	0.57349	0.33355	0.12421	1.212
Mof_Zn	Zn	0.57366	0.17462	0.12595	1.213
Mof_C 	C 	0.183	0.24243	0.81216	0.38
Mof_C 	C 	0.2486	0.24177	0.7761	-0.079
Mof_C 	C 	0.2798	0.3069	0.75916	-0.018
Mof_H 	H 	0.2579	0.3509	0.7692	0.049
Mof_C 	C 	0.3429	0.30677	0.72766	-0.018
Mof_H 	H 	0.3631	0.3506	0.7167	0.052
Mof_C 	C 	0.37622	0.24146	0.71229	-0.074
Mof_C 	C 	0.3439	0.17647	0.72856	-0.018
Mof_H 	H 	0.3649	0.1325	0.7181	0.054
Mof_C 	C 	0.2807	0.17663	0.76012	-0.016
Mof_H 	H 	0.2597	0.1327	0.7707	0.05
Mof_C 	C 	0.4477	0.2412	0.67961	0.382
Mof_C 	C 	0.1976	0.2475	0.9307	0.383
Mof_C 	C 	0.2662	0.24826	0.96484	-0.079
Mof_C 	C 	0.3027	0.184	0.97902	-0.012
Mof_H 	H 	0.2848	0.14	0.9672	0.052
Mof_C 	C 	0.3656	0.18463	0.01064	-0.015
Mof_H 	H 	0.39	0.1411	0.0198	0.057
Mof_C 	C 	0.3926	0.24984	0.02876	-0.071
Mof_C 	C 	0.3556	0.31431	0.01442	-0.016
Mof_H 	H 	0.3732	0.3584	0.0262	0.052
Mof_C 	C 	0.293	0.31339	0.98284	-0.015
Mof_H 	H 	0.2685	0.3569	0.9736	0.053
Mof_C 	C 	0.4601	0.25064	0.06353	0.38
Mof_C 	C 	0.0919	0.0138	0.84761	0.092
Mof_H 	H 	0.1036	0.0359	0.8213	-0.008
Mof_C 	C 	0.0909	0.93927	0.84952	-0.16
Mof_H 	H 	0.1013	0.9119	0.8249	0.091
Mof_C 	C 	0.0739	0.90442	0.88892	0.113
Mof_C 	C 	0.0598	0.94858	0.92427	-0.159
Mof_H 	H 	0.0488	0.9281	0.9511	0.1
Mof_C 	C 	0.0622	0.02354	0.91941	0.092
Mof_H 	H 	0.0532	0.0525	0.9435	-0.004
Mof_C 	C 	0.072	0.8243	0.89079	-0.041
Mof_C 	C 	0.0162	0.78477	0.91878	0.055
Mof_C 	C 	0.0148	0.70623	0.918	0.057
Mof_C 	C 	0.071	0.66667	0.89031	-0.049
Mof_C 	C 	0.1252	0.70744	0.86506	-0.03
Mof_H 	H 	0.1636	0.6835	0.8469	0.049
Mof_C 	C 	0.1251	0.78376	0.86534	-0.038
Mof_H 	H 	0.1633	0.8079	0.8472	0.053
Mof_C 	C 	0.0723	0.58666	0.88746	0.126
Mof_C 	C 	0.1494	0.5487	0.88048	-0.183
Mof_H 	H 	0.2017	0.5736	0.8794	0.102
Mof_C 	C 	0.1475	0.4747	0.87527	0.116
Mof_H 	H 	0.1995	0.4505	0.8708	-0.013
Mof_C 	C 	0.0013	0.47126	0.88267	0.103
Mof_H 	H 	0.95	0.4448	0.8829	-0.008
Mof_C 	C 	0.9971	0.54553	0.8889	-0.172
Mof_H 	H 	0.9441	0.5679	0.894	0.104
Mof_N 	N 	0.07689	0.05611	0.88168	-0.257
Mof_N 	N 	0.07518	0.43572	0.87628	-0.263
Mof_N 	N 	0.96063	0.8131	0.9478	-0.12
Mof_N 	N 	0.95811	0.6775	0.94631	-0.12
Mof_O 	O 	0.15621	0.18216	0.82513	-0.462
Mof_O 	O 	0.16241	0.30332	0.82711	-0.464
Mof_O 	O 	0.47271	0.18091	0.66613	-0.457
Mof_O 	O 	0.47839	0.30223	0.66966	-0.461
Mof_O 	O 	0.17358	0.18681	0.91676	-0.464
Mof_O 	O 	0.16778	0.30766	0.91878	-0.46
Mof_O 	O 	0.48301	0.19012	0.07805	-0.45
Mof_O 	O 	0.48962	0.31126	0.0744	-0.456
Mof_S 	S 	0.9137	0.74523	0.97071	0.104
Mof_Zn	Zn	0.07349	0.16645	0.87579	1.211
Mof_Zn	Zn	0.07366	0.32538	0.87405	1.212
Mof_C 	C 	0.183	0.25757	0.31216	0.38
Mof_C 	C 	0.2486	0.25823	0.2761	-0.079
Mof_C 	C 	0.2798	0.1931	0.25916	-0.018
Mof_H 	H 	0.2579	0.1491	0.2692	0.049
Mof_C 	C 	0.3429	0.19323	0.22766	-0.018
Mof_H 	H 	0.3631	0.1494	0.2167	0.052
Mof_C 	C 	0.37622	0.25854	0.21229	-0.074
Mof_C 	C 	0.3439	0.32353	0.22856	-0.018
Mof_H 	H 	0.3649	0.3675	0.2181	0.054
Mof_C 	C 	0.2807	0.32337	0.26012	-0.016
Mof_H 	H 	0.2597	0.3673	0.2707	0.05
Mof_C 	C 	0.4477	0.2588	0.17961	0.382
Mof_C 	C 	0.1976	0.2525	0.4307	0.383
Mof_C 	C 	0.2662	0.25174	0.46484	-0.08
Mof_C 	C 	0.3027	0.316	0.47902	-0.011
Mof_H 	H 	0.2848	0.36	0.4672	0.052
Mof_C 	C 	0.3656	0.31537	0.51064	-0.017
Mof_H 	H 	0.39	0.3589	0.5198	0.057
Mof_C 	C 	0.3926	0.25016	0.52876	-0.07
Mof_C 	C 	0.3556	0.18569	0.51442	-0.018
Mof_H 	H 	0.3732	0.1416	0.5262	0.052
Mof_C 	C 	0.293	0.18661	0.48284	-0.013
Mof_H 	H 	0.2685	0.1431	0.4736	0.052
Mof_C 	C 	0.4601	0.24936	0.56353	0.379
Mof_C 	C 	0.0919	0.4862	0.34761	0.101
Mof_H 	H 	0.1036	0.4641	0.3213	-0.01
Mof_C 	C 	0.0909	0.56073	0.34952	-0.171
Mof_H 	H 	0.1013	0.5881	0.3249	0.094
Mof_C 	C 	0.0739	0.59558	0.38892	0.12
Mof_C 	C 	0.0598	0.55142	0.42427	-0.17
Mof_H 	H 	0.0488	0.5719	0.4511	0.103
Mof_C 	C 	0.0622	0.47646	0.41941	0.101
Mof_H 	H 	0.0532	0.4475	0.4435	-0.006
Mof_C 	C 	0.072	0.6757	0.39079	-0.044
Mof_C 	C 	0.0162	0.71523	0.41878	0.056
Mof_C 	C 	0.0148	0.79377	0.418	0.059
Mof_C 	C 	0.071	0.83333	0.39031	-0.05
Mof_C 	C 	0.1252	0.79256	0.36506	-0.029
Mof_H 	H 	0.1636	0.8165	0.3469	0.049
Mof_C 	C 	0.1251	0.71624	0.36534	-0.036
Mof_H 	H 	0.1633	0.6921	0.3472	0.052
Mof_C 	C 	0.0723	0.91334	0.38746	0.13
Mof_C 	C 	0.1494	0.9513	0.38048	-0.18
Mof_H 	H 	0.2017	0.9264	0.3794	0.101
Mof_C 	C 	0.1475	0.0253	0.37527	0.112
Mof_H 	H 	0.1995	0.0495	0.3708	-0.012
Mof_C 	C 	0.0013	0.02874	0.38267	0.101
Mof_H 	H 	0.95	0.0552	0.3829	-0.005
Mof_C 	C 	0.9971	0.95447	0.3889	-0.178
Mof_H 	H 	0.9441	0.9321	0.394	0.105
Mof_N 	N 	0.07689	0.44389	0.38168	-0.259
Mof_N 	N 	0.07518	0.06428	0.37628	-0.263
Mof_N 	N 	0.96063	0.6869	0.4478	-0.12
Mof_N 	N 	0.95811	0.8225	0.44631	-0.122
Mof_O 	O 	0.15621	0.31784	0.32513	-0.461
Mof_O 	O 	0.16241	0.19668	0.32711	-0.464
Mof_O 	O 	0.47271	0.31909	0.16613	-0.457
Mof_O 	O 	0.47839	0.19777	0.16966	-0.461
Mof_O 	O 	0.17358	0.31319	0.41676	-0.463
Mof_O 	O 	0.16778	0.19234	0.41878	-0.46
Mof_O 	O 	0.48301	0.30988	0.57805	-0.45
Mof_O 	O 	0.48962	0.18874	0.5744	-0.456
Mof_S 	S 	0.9137	0.75477	0.47071	0.103
Mof_Zn	Zn	0.07349	0.33355	0.37579	1.212
Mof_Zn	Zn	0.07366	0.17462	0.37405	1.212
Mof_C 	C 	0.683	0.24243	0.68784	0.38
Mof_C 	C 	0.7486	0.24177	0.7239	-0.079
Mof_C 	C 	0.7798	0.3069	0.74084	-0.018
Mof_H 	H 	0.7579	0.3509	0.7308	0.049
Mof_C 	C 	0.8429	0.30677	0.77234	-0.018
Mof_H 	H 	0.8631	0.3506	0.7833	0.053
Mof_C 	C 	0.87622	0.24146	0.78771	-0.074
Mof_C 	C 	0.8439	0.17647	0.77144	-0.018
Mof_H 	H 	0.8649	0.1325	0.7819	0.055
Mof_C 	C 	0.7807	0.17663	0.73988	-0.016
Mof_H 	H 	0.7597	0.1327	0.7293	0.05
Mof_C 	C 	0.9477	0.2412	0.82039	0.382
Mof_C 	C 	0.6976	0.2475	0.5693	0.383
Mof_C 	C 	0.7662	0.24826	0.53516	-0.08
Mof_C 	C 	0.8027	0.184	0.52098	-0.011
Mof_H 	H 	0.7848	0.14	0.5328	0.052
Mof_C 	C 	0.8656	0.18463	0.48936	-0.017
Mof_H 	H 	0.89	0.1411	0.4802	0.058
Mof_C 	C 	0.8926	0.24984	0.47124	-0.07
Mof_C 	C 	0.8556	0.31431	0.48558	-0.018
Mof_H 	H 	0.8732	0.3584	0.4738	0.053
Mof_C 	C 	0.793	0.31339	0.51716	-0.013
Mof_H 	H 	0.7685	0.3569	0.5264	0.052
Mof_C 	C 	0.9601	0.25064	0.43647	0.379
Mof_C 	C 	0.5919	0.0138	0.65239	0.103
Mof_H 	H 	0.6036	0.0359	0.6787	-0.011
Mof_C 	C 	0.5909	0.93927	0.65048	-0.173
Mof_H 	H 	0.6013	0.9119	0.6751	0.095
Mof_C 	C 	0.5739	0.90442	0.61108	0.121
Mof_C 	C 	0.5598	0.94858	0.57573	-0.172
Mof_H 	H 	0.5488	0.9281	0.5489	0.103
Mof_C 	C 	0.5622	0.02354	0.58059	0.103
Mof_H 	H 	0.5532	0.0525	0.5565	-0.006
Mof_C 	C 	0.572	0.8243	0.60921	-0.044
Mof_C 	C 	0.5162	0.78477	0.58122	0.055
Mof_C 	C 	0.5148	0.70623	0.582	0.056
Mof_C 	C 	0.571	0.66667	0.60969	-0.049
Mof_C 	C 	0.6252	0.70744	0.63494	-0.03
Mof_H 	H 	0.6636	0.6835	0.6531	0.05
Mof_C 	C 	0.6251	0.78376	0.63466	-0.036
Mof_H 	H 	0.6633	0.8079	0.6528	0.052
Mof_C 	C 	0.5723	0.58666	0.61254	0.127
Mof_C 	C 	0.6494	0.5487	0.61952	-0.184
Mof_H 	H 	0.7017	0.5736	0.6206	0.102
Mof_C 	C 	0.6475	0.4747	0.62473	0.117
Mof_H 	H 	0.6995	0.4505	0.6292	-0.014
Mof_C 	C 	0.5013	0.47126	0.61733	0.107
Mof_H 	H 	0.45	0.4448	0.6171	-0.01
Mof_C 	C 	0.4971	0.54553	0.6111	-0.176
Mof_H 	H 	0.4441	0.5679	0.606	0.106
Mof_N 	N 	0.57689	0.05611	0.61832	-0.259
Mof_N 	N 	0.57518	0.43572	0.62372	-0.264
Mof_N 	N 	0.46063	0.8131	0.5522	-0.119
Mof_N 	N 	0.45811	0.6775	0.55369	-0.12
Mof_O 	O 	0.65621	0.18216	0.67487	-0.461
Mof_O 	O 	0.66241	0.30332	0.67289	-0.464
Mof_O 	O 	0.97271	0.18091	0.83387	-0.455
Mof_O 	O 	0.97839	0.30223	0.83034	-0.46
Mof_O 	O 	0.67358	0.18681	0.58324	-0.463
Mof_O 	O 	0.66778	0.30766	0.58122	-0.459
Mof_O 	O 	0.98301	0.19012	0.42195	-0.449
Mof_O 	O 	0.98962	0.31126	0.4256	-0.456
Mof_S 	S 	0.4137	0.74523	0.52929	0.105
Mof_Zn	Zn	0.57349	0.16645	0.62421	1.212
Mof_Zn	Zn	0.57366	0.32538	0.62595	1.213
Mof_C 	C 	0.817	0.74243	0.68784	0.38
Mof_C 	C 	0.7514	0.74177	0.7239	-0.079
Mof_C 	C 	0.7202	0.8069	0.74084	-0.018
Mof_H 	H 	0.7421	0.8509	0.7308	0.049
Mof_C 	C 	0.6571	0.80677	0.77234	-0.018
Mof_H 	H 	0.6369	0.8506	0.7833	0.052
Mof_C 	C 	0.62378	0.74146	0.78771	-0.074
Mof_C 	C 	0.6561	0.67647	0.77144	-0.018
Mof_H 	H 	0.6351	0.6325	0.7819	0.054
Mof_C 	C 	0.7193	0.67663	0.73988	-0.016
Mof_H 	H 	0.7403	0.6327	0.7293	0.05
Mof_C 	C 	0.5523	0.7412	0.82039	0.382
Mof_C 	C 	0.8024	0.7475	0.5693	0.383
Mof_C 	C 	0.7338	0.74826	0.53516	-0.08
Mof_C 	C 	0.6973	0.684	0.52098	-0.011
Mof_H 	H 	0.7152	0.64	0.5328	0.052
Mof_C 	C 	0.6344	0.68463	0.48936	-0.017
Mof_H 	H 	0.61	0.6411	0.4802	0.057
Mof_C 	C 	0.6074	0.74984	0.47124	-0.07
Mof_C 	C 	0.6444	0.81431	0.48558	-0.018
Mof_H 	H 	0.6268	0.8584	0.4738	0.052
Mof_C 	C 	0.707	0.81339	0.51716	-0.013
Mof_H 	H 	0.7315	0.8569	0.5264	0.052
Mof_C 	C 	0.5399	0.75064	0.43647	0.379
Mof_C 	C 	0.9081	0.5138	0.65239	0.101
Mof_H 	H 	0.8964	0.5359	0.6787	-0.01
Mof_C 	C 	0.9091	0.43927	0.65048	-0.171
Mof_H 	H 	0.8987	0.4119	0.6751	0.094
Mof_C 	C 	0.9261	0.40442	0.61108	0.12
Mof_C 	C 	0.9402	0.44858	0.57573	-0.17
Mof_H 	H 	0.9512	0.4281	0.5489	0.103
Mof_C 	C 	0.9378	0.52354	0.58059	0.101
Mof_H 	H 	0.9468	0.5525	0.5565	-0.006
Mof_C 	C 	0.928	0.3243	0.60921	-0.044
Mof_C 	C 	0.9838	0.28477	0.58122	0.056
Mof_C 	C 	0.9852	0.20623	0.582	0.059
Mof_C 	C 	0.929	0.16667	0.60969	-0.05
Mof_C 	C 	0.8748	0.20744	0.63494	-0.029
Mof_H 	H 	0.8364	0.1835	0.6531	0.049
Mof_C 	C 	0.8749	0.28376	0.63466	-0.036
Mof_H 	H 	0.8367	0.3079	0.6528	0.052
Mof_C 	C 	0.9277	0.08666	0.61254	0.13
Mof_C 	C 	0.8506	0.0487	0.61952	-0.18
Mof_H 	H 	0.7983	0.0736	0.6206	0.101
Mof_C 	C 	0.8525	0.9747	0.62473	0.112
Mof_H 	H 	0.8005	0.9505	0.6292	-0.012
Mof_C 	C 	0.9987	0.97126	0.61733	0.101
Mof_H 	H 	0.05	0.9448	0.6171	-0.005
Mof_C 	C 	0.0029	0.04553	0.6111	-0.178
Mof_H 	H 	0.0559	0.0679	0.606	0.105
Mof_N 	N 	0.92311	0.55611	0.61832	-0.259
Mof_N 	N 	0.92482	0.93572	0.62372	-0.263
Mof_N 	N 	0.03937	0.3131	0.5522	-0.12
Mof_N 	N 	0.04189	0.1775	0.55369	-0.122
Mof_O 	O 	0.84379	0.68216	0.67487	-0.461
Mof_O 	O 	0.83759	0.80332	0.67289	-0.464
Mof_O 	O 	0.52729	0.68091	0.83387	-0.457
Mof_O 	O 	0.52161	0.80223	0.83034	-0.461
Mof_O 	O 	0.82642	0.68681	0.58324	-0.463
Mof_O 	O 	0.83222	0.80766	0.58122	-0.46
Mof_O 	O 	0.51699	0.69012	0.42195	-0.45
Mof_O 	O 	0.51038	0.81126	0.4256	-0.456
Mof_S 	S 	0.0863	0.24523	0.52929	0.103
Mof_Zn	Zn	0.92651	0.66645	0.62421	1.212
Mof_Zn	Zn	0.92634	0.82538	0.62595	1.212
Mof_C 	C 	0.317	0.75757	0.31216	0.38
Mof_C 	C 	0.2514	0.75823	0.2761	-0.079
Mof_C 	C 	0.2202	0.6931	0.25916	-0.018
Mof_H 	H 	0.2421	0.6491	0.2692	0.049
Mof_C 	C 	0.1571	0.69323	0.22766	-0.018
Mof_H 	H 	0.1369	0.6494	0.2167	0.053
Mof_C 	C 	0.12378	0.75854	0.21229	-0.074
Mof_C 	C 	0.1561	0.82353	0.22856	-0.018
Mof_H 	H 	0.1351	0.8675	0.2181	0.055
Mof_C 	C 	0.2193	0.82337	0.26012	-0.016
Mof_H 	H 	0.2403	0.8673	0.2707	0.05
Mof_C 	C 	0.0523	0.7588	0.17961	0.382
Mof_C 	C 	0.3024	0.7525	0.4307	0.383
Mof_C 	C 	0.2338	0.75174	0.46484	-0.08
Mof_C 	C 	0.1973	0.816	0.47902	-0.011
Mof_H 	H 	0.2152	0.86	0.4672	0.052
Mof_C 	C 	0.1344	0.81537	0.51064	-0.017
Mof_H 	H 	0.11	0.8589	0.5198	0.058
Mof_C 	C 	0.1074	0.75016	0.52876	-0.07
Mof_C 	C 	0.1444	0.68569	0.51442	-0.018
Mof_H 	H 	0.1268	0.6416	0.5262	0.053
Mof_C 	C 	0.207	0.68661	0.48284	-0.013
Mof_H 	H 	0.2315	0.6431	0.4736	0.052
Mof_C 	C 	0.0399	0.74936	0.56353	0.379
Mof_C 	C 	0.4081	0.9862	0.34761	0.103
Mof_H 	H 	0.3964	0.9641	0.3213	-0.011
Mof_C 	C 	0.4091	0.06073	0.34952	-0.173
Mof_H 	H 	0.3987	0.0881	0.3249	0.095
Mof_C 	C 	0.4261	0.09558	0.38892	0.121
Mof_C 	C 	0.4402	0.05142	0.42427	-0.172
Mof_H 	H 	0.4512	0.0719	0.4511	0.103
Mof_C 	C 	0.4378	0.97646	0.41941	0.103
Mof_H 	H 	0.4468	0.9475	0.4435	-0.006
Mof_C 	C 	0.428	0.1757	0.39079	-0.044
Mof_C 	C 	0.4838	0.21523	0.41878	0.055
Mof_C 	C 	0.4852	0.29377	0.418	0.056
Mof_C 	C 	0.429	0.33333	0.39031	-0.049
Mof_C 	C 	0.3748	0.29256	0.36506	-0.03
Mof_H 	H 	0.3364	0.3165	0.3469	0.05
Mof_C 	C 	0.3749	0.21624	0.36534	-0.036
Mof_H 	H 	0.3367	0.1921	0.3472	0.052
Mof_C 	C 	0.4277	0.41334	0.38746	0.127
Mof_C 	C 	0.3506	0.4513	0.38048	-0.184
Mof_H 	H 	0.2983	0.4264	0.3794	0.102
Mof_C 	C 	0.3525	0.5253	0.37527	0.117
Mof_H 	H 	0.3005	0.5495	0.3708	-0.014
Mof_C 	C 	0.4987	0.52874	0.38267	0.107
Mof_H 	H 	0.55	0.5552	0.3829	-0.01
Mof_C 	C 	0.5029	0.45447	0.3889	-0.176
Mof_H 	H 	0.5559	0.4321	0.394	0.106
Mof_N 	N 	0.42311	0.94389	0.38168	-0.259
Mof_N 	N 	0.42482	0.56428	0.37628	-0.264
Mof_N 	N 	0.53937	0.1869	0.4478	-0.119
Mof_N 	N 	0.54189	0.3225	0.44631	-0.12
Mof_O 	O 	0.34379	0.81784	0.32513	-0.461
Mof_O 	O 	0.33759	0.69668	0.32711	-0.464
Mof_O 	O 	0.02729	0.81909	0.16613	-0.455
Mof_O 	O 	0.02161	0.69777	0.16966	-0.46
Mof_O 	O 	0.32642	0.81319	0.41676	-0.463
Mof_O 	O 	0.33222	0.69234	0.41878	-0.459
Mof_O 	O 	0.01699	0.80988	0.57805	-0.449
Mof_O 	O 	0.01038	0.68874	0.5744	-0.456
Mof_S 	S 	0.5863	0.25477	0.47071	0.105
Mof_Zn	Zn	0.42651	0.83355	0.37579	1.212
Mof_Zn	Zn	0.42634	0.67462	0.37405	1.213
Mof_C 	C 	0.317	0.74243	0.81216	0.38
Mof_C 	C 	0.2514	0.74177	0.7761	-0.079
Mof_C 	C 	0.2202	0.8069	0.75916	-0.018
Mof_H 	H 	0.2421	0.8509	0.7692	0.05
Mof_C 	C 	0.1571	0.80677	0.72766	-0.018
Mof_H 	H 	0.1369	0.8506	0.7167	0.053
Mof_C 	C 	0.12378	0.74146	0.71229	-0.074
Mof_C 	C 	0.1561	0.67647	0.72856	-0.018
Mof_H 	H 	0.1351	0.6325	0.7181	0.054
Mof_C 	C 	0.2193	0.67663	0.76012	-0.016
Mof_H 	H 	0.2403	0.6327	0.7707	0.05
Mof_C 	C 	0.0523	0.7412	0.67961	0.382
Mof_C 	C 	0.3024	0.7475	0.9307	0.382
Mof_C 	C 	0.2338	0.74826	0.96484	-0.078
Mof_C 	C 	0.1973	0.684	0.97902	-0.014
Mof_H 	H 	0.2152	0.64	0.9672	0.053
Mof_C 	C 	0.1344	0.68463	0.01064	-0.014
Mof_H 	H 	0.11	0.6411	0.0198	0.057
Mof_C 	C 	0.1074	0.74984	0.02876	-0.072
Mof_C 	C 	0.1444	0.81431	0.01442	-0.015
Mof_H 	H 	0.1268	0.8584	0.0262	0.052
Mof_C 	C 	0.207	0.81339	0.98284	-0.016
Mof_H 	H 	0.2315	0.8569	0.9736	0.054
Mof_C 	C 	0.0399	0.75064	0.06353	0.38
Mof_C 	C 	0.4081	0.5138	0.84761	0.101
Mof_H 	H 	0.3964	0.5359	0.8213	-0.01
Mof_C 	C 	0.4091	0.43927	0.84952	-0.171
Mof_H 	H 	0.3987	0.4119	0.8249	0.094
Mof_C 	C 	0.4261	0.40442	0.88892	0.119
Mof_C 	C 	0.4402	0.44858	0.92427	-0.17
Mof_H 	H 	0.4512	0.4281	0.9511	0.103
Mof_C 	C 	0.4378	0.52354	0.91941	0.101
Mof_H 	H 	0.4468	0.5525	0.9435	-0.005
Mof_C 	C 	0.428	0.3243	0.89079	-0.043
Mof_C 	C 	0.4838	0.28477	0.91878	0.055
Mof_C 	C 	0.4852	0.20623	0.918	0.057
Mof_C 	C 	0.429	0.16667	0.89031	-0.05
Mof_C 	C 	0.3748	0.20744	0.86506	-0.03
Mof_H 	H 	0.3364	0.1835	0.8469	0.049
Mof_C 	C 	0.3749	0.28376	0.86534	-0.036
Mof_H 	H 	0.3367	0.3079	0.8472	0.052
Mof_C 	C 	0.4277	0.08666	0.88746	0.129
Mof_C 	C 	0.3506	0.0487	0.88048	-0.187
Mof_H 	H 	0.2983	0.0736	0.8794	0.103
Mof_C 	C 	0.3525	0.9747	0.87527	0.12
Mof_H 	H 	0.3005	0.9505	0.8708	-0.014
Mof_C 	C 	0.4987	0.97126	0.88267	0.108
Mof_H 	H 	0.55	0.9448	0.8829	-0.011
Mof_C 	C 	0.5029	0.04553	0.8889	-0.177
Mof_H 	H 	0.5559	0.0679	0.894	0.106
Mof_N 	N 	0.42311	0.55611	0.88168	-0.259
Mof_N 	N 	0.42482	0.93572	0.87628	-0.265
Mof_N 	N 	0.53937	0.3131	0.9478	-0.119
Mof_N 	N 	0.54189	0.1775	0.94631	-0.12
Mof_O 	O 	0.34379	0.68216	0.82513	-0.461
Mof_O 	O 	0.33759	0.80332	0.82711	-0.464
Mof_O 	O 	0.02729	0.68091	0.66613	-0.457
Mof_O 	O 	0.02161	0.80223	0.66966	-0.46
Mof_O 	O 	0.32642	0.68681	0.91676	-0.463
Mof_O 	O 	0.33222	0.80766	0.91878	-0.459
Mof_O 	O 	0.01699	0.69012	0.07805	-0.45
Mof_O 	O 	0.01038	0.81126	0.0744	-0.454
Mof_S 	S 	0.5863	0.24523	0.97071	0.105
Mof_Zn	Zn	0.42651	0.66645	0.87579	1.212
Mof_Zn	Zn	0.42634	0.82538	0.87405	1.213
Mof_C 	C 	0.817	0.75757	0.18784	0.38
Mof_C 	C 	0.7514	0.75823	0.2239	-0.079
Mof_C 	C 	0.7202	0.6931	0.24084	-0.018
Mof_H 	H 	0.7421	0.6491	0.2308	0.049
Mof_C 	C 	0.6571	0.69323	0.27234	-0.018
Mof_H 	H 	0.6369	0.6494	0.2833	0.052
Mof_C 	C 	0.62378	0.75854	0.28771	-0.074
Mof_C 	C 	0.6561	0.82353	0.27144	-0.018
Mof_H 	H 	0.6351	0.8675	0.2819	0.054
Mof_C 	C 	0.7193	0.82337	0.23988	-0.016
Mof_H 	H 	0.7403	0.8673	0.2293	0.05
Mof_C 	C 	0.5523	0.7588	0.32039	0.382
Mof_C 	C 	0.8024	0.7525	0.0693	0.383
Mof_C 	C 	0.7338	0.75174	0.03516	-0.079
Mof_C 	C 	0.6973	0.816	0.02098	-0.012
Mof_H 	H 	0.7152	0.86	0.0328	0.052
Mof_C 	C 	0.6344	0.81537	0.98936	-0.015
Mof_H 	H 	0.61	0.8589	0.9802	0.057
Mof_C 	C 	0.6074	0.75016	0.97124	-0.071
Mof_C 	C 	0.6444	0.68569	0.98558	-0.016
Mof_H 	H 	0.6268	0.6416	0.9738	0.052
Mof_C 	C 	0.707	0.68661	0.01716	-0.015
Mof_H 	H 	0.7315	0.6431	0.0264	0.053
Mof_C 	C 	0.5399	0.74936	0.93647	0.38
Mof_C 	C 	0.9081	0.9862	0.15239	0.092
Mof_H 	H 	0.8964	0.9641	0.1787	-0.008
Mof_C 	C 	0.9091	0.06073	0.15048	-0.16
Mof_H 	H 	0.8987	0.0881	0.1751	0.091
Mof_C 	C 	0.9261	0.09558	0.11108	0.113
Mof_C 	C 	0.9402	0.05142	0.07573	-0.159
Mof_H 	H 	0.9512	0.0719	0.0489	0.1
Mof_C 	C 	0.9378	0.97646	0.08059	0.092
Mof_H 	H 	0.9468	0.9475	0.0565	-0.004
Mof_C 	C 	0.928	0.1757	0.10921	-0.041
Mof_C 	C 	0.9838	0.21523	0.08122	0.055
Mof_C 	C 	0.9852	0.29377	0.082	0.057
Mof_C 	C 	0.929	0.33333	0.10969	-0.049
Mof_C 	C 	0.8748	0.29256	0.13494	-0.03
Mof_H 	H 	0.8364	0.3165	0.1531	0.049
Mof_C 	C 	0.8749	0.21624	0.13466	-0.038
Mof_H 	H 	0.8367	0.1921	0.1528	0.053
Mof_C 	C 	0.9277	0.41334	0.11254	0.126
Mof_C 	C 	0.8506	0.4513	0.11952	-0.183
Mof_H 	H 	0.7983	0.4264	0.1206	0.102
Mof_C 	C 	0.8525	0.5253	0.12473	0.116
Mof_H 	H 	0.8005	0.5495	0.1292	-0.013
Mof_C 	C 	0.9987	0.52874	0.11733	0.103
Mof_H 	H 	0.05	0.5552	0.1171	-0.008
Mof_C 	C 	0.0029	0.45447	0.1111	-0.172
Mof_H 	H 	0.0559	0.4321	0.106	0.104
Mof_N 	N 	0.92311	0.94389	0.11832	-0.257
Mof_N 	N 	0.92482	0.56428	0.12372	-0.263
Mof_N 	N 	0.03937	0.1869	0.0522	-0.12
Mof_N 	N 	0.04189	0.3225	0.05369	-0.12
Mof_O 	O 	0.84379	0.81784	0.17487	-0.462
Mof_O 	O 	0.83759	0.69668	0.17289	-0.464
Mof_O 	O 	0.52729	0.81909	0.33387	-0.457
Mof_O 	O 	0.52161	0.69777	0.33034	-0.461
Mof_O 	O 	0.82642	0.81319	0.08324	-0.464
Mof_O 	O 	0.83222	0.69234	0.08122	-0.46
Mof_O 	O 	0.51699	0.80988	0.92195	-0.45
Mof_O 	O 	0.51038	0.68874	0.9256	-0.456
Mof_S 	S 	0.0863	0.25477	0.02929	0.104
Mof_Zn	Zn	0.92651	0.83355	0.12421	1.211
Mof_Zn	Zn	0.92634	0.67462	0.12595	1.212
_end
