data_functionalizedCrystal
_audit_creation_method	'EQeq! by Chris Wilmer'
_symmetry_space_group_name_H-M	'P1'
_symmetry_Int_Tables_number	1
_symmetry_cell_setting	triclinic
loop_
_symmetry_equiv_pos_as_xyz
  x,y,z
_cell_length_a	14.6958
_cell_length_b	11.6451
_cell_length_c	20.5912
_cell_angle_alpha	90
_cell_angle_beta	93.811
_cell_angle_gamma	90
loop_
_atom_site_label
_atom_site_type_symbol
_atom_site_fract_x
_atom_site_fract_y
_atom_site_fract_z
_atom_site_charge
Mof_Be	Be	0.6006	0.6732	0.2352	0.784
Mof_Be	Be	0.6551	0.7183	0.5064	0.802
Mof_Be	Be	0.4145	0.9309	0.6378	0.796
Mof_Be	Be	0.3472	0.6143	0.5961	0.798
Mof_Be	Be	0.3815	0.2744	0.617	0.774
Mof_P 	P 	0.6358	0.75094	0.36466	0.639
Mof_P 	P 	0.47546	0.77014	0.54238	0.665
Mof_P 	P 	0.28683	0.77268	0.69556	0.63
Mof_P 	P 	0.44169	0.46336	0.69596	0.637
Mof_P 	P 	0.2854	0.41309	0.52246	0.631
Mof_P 	P 	0.26498	0.08341	0.59238	0.621
Mof_P 	P 	0.52723	0.13046	0.66128	0.625
Mof_O 	O 	0.6164	0.6608	0.3131	-0.364
Mof_O 	O 	0.6271	0.7024	0.42943	-0.376
Mof_O 	O 	0.5622	0.8439	0.3566	-0.46
Mof_H 	H 	0.5454	0.8502	0.318	0.321
Mof_O 	O 	0.727	0.8063	0.3577	-0.283
Mof_O 	O 	0.5636	0.7034	0.54467	-0.36
Mof_O 	O 	0.48	0.8592	0.59486	-0.367
Mof_O 	O 	0.3939	0.6927	0.54522	-0.369
Mof_O 	O 	0.4623	0.8327	0.47564	-0.414
Mof_H 	H 	0.5015	0.8112	0.4518	0.312
Mof_O 	O 	0.3643	0.8553	0.69057	-0.371
Mof_O 	O 	0.2745	0.6918	0.63801	-0.384
Mof_O 	O 	0.198	0.8391	0.70187	-0.398
Mof_O 	O 	0.3078	0.6989	0.75794	-0.477
Mof_H 	H 	0.2699	0.7127	0.7844	0.33
Mof_O 	O 	0.4258	0.5571	0.64651	-0.372
Mof_O 	O 	0.384	0.3573	0.6802	-0.363
Mof_O 	O 	0.4111	0.5091	0.76397	-0.404
Mof_H 	H 	0.3799	0.567	0.7581	0.327
Mof_O 	O 	0.541	0.4328	0.70654	-0.351
Mof_O 	O 	0.2792	0.5246	0.55874	-0.355
Mof_O 	O 	0.3677	0.3427	0.54827	-0.36
Mof_O 	O 	0.3039	0.4457	0.44947	-0.401
Mof_H 	H 	0.2781	0.3994	0.4245	0.311
Mof_O 	O 	0.1977	0.3457	0.52157	-0.377
Mof_O 	O 	0.2981	0.1892	0.63098	-0.358
Mof_O 	O 	0.1862	0.0329	0.6309	-0.415
Mof_H 	H 	0.2035	0.9737	0.6493	0.308
Mof_O 	O 	0.2255	0.1164	0.52525	-0.352
Mof_O 	O 	0.3397	0.9955	0.58553	-0.355
Mof_O 	O 	0.4774	0.2055	0.61024	-0.358
Mof_O 	O 	0.4714	0.029	0.68074	-0.346
Mof_O 	O 	0.613	0.0812	0.63022	-0.415
Mof_H 	H 	0.656	0.1255	0.637	0.306
Mof_O 	O 	0.5551	0.2004	0.72194	-0.401
Mof_Be	Be	0.1006	0.1732	0.2352	0.781
Mof_Be	Be	0.1551	0.2183	0.5064	0.801
Mof_Be	Be	0.9145	0.4309	0.6378	0.795
Mof_Be	Be	0.8472	0.1143	0.5961	0.8
Mof_Be	Be	0.8815	0.7744	0.617	0.774
Mof_P 	P 	0.1358	0.25094	0.36466	0.639
Mof_P 	P 	0.97546	0.27014	0.54238	0.68
Mof_P 	P 	0.78683	0.27268	0.69556	0.63
Mof_P 	P 	0.94169	0.96336	0.69596	0.657
Mof_P 	P 	0.7854	0.91309	0.52246	0.632
Mof_P 	P 	0.76498	0.58341	0.59238	0.621
Mof_P 	P 	0.02723	0.63046	0.66128	0.585
Mof_O 	O 	0.1164	0.1608	0.3131	-0.369
Mof_O 	O 	0.1271	0.2024	0.42943	-0.38
Mof_O 	O 	0.0622	0.3439	0.3566	-0.464
Mof_H 	H 	0.0454	0.3502	0.318	0.316
Mof_O 	O 	0.227	0.3063	0.3577	-0.285
Mof_O 	O 	0.0636	0.2034	0.54467	-0.379
Mof_O 	O 	0.98	0.3592	0.59486	-0.36
Mof_O 	O 	0.8939	0.1927	0.54522	-0.367
Mof_O 	O 	0.9623	0.3327	0.47564	-0.375
Mof_H 	H 	0.0015	0.3112	0.4518	0.277
Mof_O 	O 	0.8643	0.3553	0.69057	-0.368
Mof_O 	O 	0.7745	0.1918	0.63801	-0.383
Mof_O 	O 	0.698	0.3391	0.70187	-0.397
Mof_O 	O 	0.8078	0.1989	0.75794	-0.474
Mof_H 	H 	0.7699	0.2127	0.7844	0.33
Mof_O 	O 	0.9258	0.0571	0.64651	-0.369
Mof_O 	O 	0.884	0.8573	0.6802	-0.36
Mof_O 	O 	0.9111	0.0091	0.76397	-0.397
Mof_H 	H 	0.8799	0.067	0.7581	0.327
Mof_O 	O 	0.041	0.9328	0.70654	-0.372
Mof_O 	O 	0.7792	0.0246	0.55874	-0.353
Mof_O 	O 	0.8677	0.8427	0.54827	-0.356
Mof_O 	O 	0.8039	0.9457	0.44947	-0.396
Mof_H 	H 	0.7781	0.8994	0.4245	0.311
Mof_O 	O 	0.6977	0.8457	0.52157	-0.373
Mof_O 	O 	0.7981	0.6892	0.63098	-0.355
Mof_O 	O 	0.6862	0.5329	0.6309	-0.411
Mof_H 	H 	0.7035	0.4737	0.6493	0.308
Mof_O 	O 	0.7255	0.6164	0.52525	-0.349
Mof_O 	O 	0.8397	0.4955	0.58553	-0.353
Mof_O 	O 	0.9774	0.7055	0.61024	-0.334
Mof_O 	O 	0.9714	0.529	0.68074	-0.321
Mof_O 	O 	0.113	0.5812	0.63022	-0.418
Mof_H 	H 	0.156	0.6255	0.637	0.306
Mof_O 	O 	0.0551	0.7004	0.72194	-0.403
Mof_Be	Be	0.6006	0.3268	0.7352	0.784
Mof_Be	Be	0.6551	0.2817	0.0064	0.747
Mof_Be	Be	0.4145	0.0691	0.1378	0.79
Mof_Be	Be	0.3472	0.3857	0.0961	0.791
Mof_Be	Be	0.3815	0.7256	0.117	0.772
Mof_P 	P 	0.6358	0.24906	0.86466	0.633
Mof_P 	P 	0.47546	0.22986	0.04238	0.616
Mof_P 	P 	0.28683	0.22732	0.19556	0.63
Mof_P 	P 	0.44169	0.53664	0.19596	0.637
Mof_P 	P 	0.2854	0.58691	0.02246	0.586
Mof_P 	P 	0.26498	0.91659	0.09238	0.621
Mof_P 	P 	0.52723	0.86954	0.16128	0.625
Mof_O 	O 	0.6164	0.3392	0.8131	-0.357
Mof_O 	O 	0.6271	0.2976	0.92943	-0.327
Mof_O 	O 	0.5622	0.1561	0.8566	-0.447
Mof_H 	H 	0.5454	0.1498	0.818	0.319
Mof_O 	O 	0.727	0.1937	0.8577	-0.269
Mof_O 	O 	0.5636	0.2966	0.04467	-0.358
Mof_O 	O 	0.48	0.1408	0.09486	-0.366
Mof_O 	O 	0.3939	0.3073	0.04522	-0.379
Mof_O 	O 	0.4623	0.1673	0.97564	-0.35
Mof_H 	H 	0.5015	0.1888	0.9518	0.308
Mof_O 	O 	0.3643	0.1447	0.19057	-0.373
Mof_O 	O 	0.2745	0.3082	0.13801	-0.386
Mof_O 	O 	0.198	0.1609	0.20187	-0.401
Mof_O 	O 	0.3078	0.3011	0.25794	-0.48
Mof_H 	H 	0.2699	0.2873	0.2844	0.329
Mof_O 	O 	0.4258	0.4429	0.14651	-0.373
Mof_O 	O 	0.384	0.6427	0.1802	-0.364
Mof_O 	O 	0.4111	0.4909	0.26397	-0.41
Mof_H 	H 	0.3799	0.433	0.2581	0.326
Mof_O 	O 	0.541	0.5672	0.20654	-0.354
Mof_O 	O 	0.2792	0.4754	0.05874	-0.36
Mof_O 	O 	0.3677	0.6573	0.04827	-0.367
Mof_O 	O 	0.3039	0.5543	0.94947	-0.344
Mof_H 	H 	0.2781	0.6006	0.9245	0.306
Mof_O 	O 	0.1977	0.6543	0.02157	-0.381
Mof_O 	O 	0.2981	0.8108	0.13098	-0.358
Mof_O 	O 	0.1862	0.9671	0.1309	-0.415
Mof_H 	H 	0.2035	0.0263	0.1493	0.304
Mof_O 	O 	0.2255	0.8836	0.02525	-0.361
Mof_O 	O 	0.3397	0.0045	0.08553	-0.367
Mof_O 	O 	0.4774	0.7945	0.11024	-0.365
Mof_O 	O 	0.4714	0.971	0.18074	-0.346
Mof_O 	O 	0.613	0.9188	0.13022	-0.419
Mof_H 	H 	0.656	0.8745	0.137	0.305
Mof_O 	O 	0.5551	0.7996	0.22194	-0.403
Mof_Be	Be	0.1006	0.8268	0.7352	0.782
Mof_Be	Be	0.1551	0.7817	0.0064	0.751
Mof_Be	Be	0.9145	0.5691	0.1378	0.791
Mof_Be	Be	0.8472	0.8857	0.0961	0.794
Mof_Be	Be	0.8815	0.2256	0.117	0.772
Mof_P 	P 	0.1358	0.74906	0.86466	0.633
Mof_P 	P 	0.97546	0.72986	0.04238	0.632
Mof_P 	P 	0.78683	0.72732	0.19556	0.63
Mof_P 	P 	0.94169	0.03664	0.19596	0.653
Mof_P 	P 	0.7854	0.08691	0.02246	0.582
Mof_P 	P 	0.76498	0.41659	0.09238	0.62
Mof_P 	P 	0.02723	0.36954	0.16128	0.586
Mof_O 	O 	0.1164	0.8392	0.8131	-0.362
Mof_O 	O 	0.1271	0.7976	0.92943	-0.334
Mof_O 	O 	0.0622	0.6561	0.8566	-0.452
Mof_H 	H 	0.0454	0.6498	0.818	0.314
Mof_O 	O 	0.227	0.6937	0.8577	-0.272
Mof_O 	O 	0.0636	0.7966	0.04467	-0.376
Mof_O 	O 	0.98	0.6408	0.09486	-0.359
Mof_O 	O 	0.8939	0.8073	0.04522	-0.376
Mof_O 	O 	0.9623	0.6673	0.97564	-0.311
Mof_H 	H 	0.0015	0.6888	0.9518	0.272
Mof_O 	O 	0.8643	0.6447	0.19057	-0.369
Mof_O 	O 	0.7745	0.8082	0.13801	-0.385
Mof_O 	O 	0.698	0.6609	0.20187	-0.399
Mof_O 	O 	0.8078	0.8011	0.25794	-0.477
Mof_H 	H 	0.7699	0.7873	0.2844	0.329
Mof_O 	O 	0.9258	0.9429	0.14651	-0.367
Mof_O 	O 	0.884	0.1427	0.1802	-0.361
Mof_O 	O 	0.9111	0.9909	0.26397	-0.401
Mof_H 	H 	0.8799	0.933	0.2581	0.326
Mof_O 	O 	0.041	0.0672	0.20654	-0.374
Mof_O 	O 	0.7792	0.9754	0.05874	-0.354
Mof_O 	O 	0.8677	0.1573	0.04827	-0.363
Mof_O 	O 	0.8039	0.0543	0.94947	-0.337
Mof_H 	H 	0.7781	0.1006	0.9245	0.306
Mof_O 	O 	0.6977	0.1543	0.02157	-0.378
Mof_O 	O 	0.7981	0.3108	0.13098	-0.355
Mof_O 	O 	0.6862	0.4671	0.1309	-0.414
Mof_H 	H 	0.7035	0.5263	0.1493	0.307
Mof_O 	O 	0.7255	0.3836	0.02525	-0.359
Mof_O 	O 	0.8397	0.5045	0.08553	-0.363
Mof_O 	O 	0.9774	0.2945	0.11024	-0.343
Mof_O 	O 	0.9714	0.471	0.18074	-0.325
Mof_O 	O 	0.113	0.4188	0.13022	-0.423
Mof_H 	H 	0.156	0.3745	0.137	0.305
Mof_O 	O 	0.0551	0.2996	0.22194	-0.405
_end
