data_functionalizedCrystal
_audit_creation_method	'EQeq! by Chris Wilmer'
_symmetry_space_group_name_H-M	'P1'
_symmetry_Int_Tables_number	1
_symmetry_cell_setting	triclinic
loop_
_symmetry_equiv_pos_as_xyz
  x,y,z
_cell_length_a	15.165
_cell_length_b	15.165
_cell_length_c	15.713
_cell_angle_alpha	90
_cell_angle_beta	90
_cell_angle_gamma	120
loop_
_atom_site_label
_atom_site_type_symbol
_atom_site_fract_x
_atom_site_fract_y
_atom_site_fract_z
_atom_site_charge
Mof_Er	Er	0.66667	0.33334	0.75	1.815
Mof_Er	Er	0.33333	0.66666	0.75	1.815
Mof_Er	Er	0.33333	0.66666	0.25	1.805
Mof_Er	Er	0.66667	0.33334	0.25	1.805
Mof_Fe	Fe	0.5	0	-0	0.627
Mof_Fe	Fe	0.5	0.5	-0	0.696
Mof_Fe	Fe	-0	0.5	-0	0.627
Mof_Fe	Fe	0.5	-8.06633e-33	0.5	0.745
Mof_Fe	Fe	9.21e-18	0.5	0.5	0.745
Mof_Fe	Fe	0.5	0.5	0.5	0.816
Mof_H 	H 	0.2885	0.0565	0.8456	0.058
Mof_H 	H 	0.768	0.7115	0.8456	0.077
Mof_H 	H 	0.9435	0.232	0.8456	0.082
Mof_H 	H 	0.7115	0.9435	0.8456	0.087
Mof_H 	H 	0.232	0.2885	0.8456	0.067
Mof_H 	H 	0.0565	0.768	0.8456	0.063
Mof_H 	H 	0.232	0.9435	0.6544	0.069
Mof_H 	H 	0.0565	0.2885	0.6544	0.044
Mof_H 	H 	0.7115	0.768	0.6544	0.064
Mof_H 	H 	0.768	0.0565	0.6544	0.05
Mof_H 	H 	0.9435	0.7115	0.6544	0.074
Mof_H 	H 	0.2885	0.232	0.6544	0.053
Mof_H 	H 	0.7115	0.9435	0.1544	0.062
Mof_H 	H 	0.232	0.2885	0.1544	0.04
Mof_H 	H 	0.0565	0.768	0.1544	0.038
Mof_H 	H 	0.2885	0.0565	0.1544	0.032
Mof_H 	H 	0.768	0.7115	0.1544	0.052
Mof_H 	H 	0.9435	0.232	0.1544	0.057
Mof_H 	H 	0.768	0.0565	0.3456	0.048
Mof_H 	H 	0.9435	0.7115	0.3456	0.072
Mof_H 	H 	0.2885	0.232	0.3456	0.051
Mof_H 	H 	0.232	0.9435	0.3456	0.067
Mof_H 	H 	0.0565	0.2885	0.3456	0.042
Mof_H 	H 	0.7115	0.768	0.3456	0.062
Mof_H 	H 	0.1999	0.09995	0.75	0.021
Mof_H 	H 	0.90005	0.8001	0.75	0.053
Mof_H 	H 	0.90005	0.09995	0.75	0.036
Mof_H 	H 	0.8001	0.90005	0.75	0.053
Mof_H 	H 	0.09995	0.1999	0.75	0.021
Mof_H 	H 	0.09995	0.90005	0.75	0.036
Mof_H 	H 	0.8001	0.90005	0.25	0.05
Mof_H 	H 	0.09995	0.1999	0.25	0.017
Mof_H 	H 	0.09995	0.90005	0.25	0.033
Mof_H 	H 	0.1999	0.09995	0.25	0.017
Mof_H 	H 	0.90005	0.8001	0.25	0.05
Mof_H 	H 	0.90005	0.09995	0.25	0.033
Mof_C 	C 	0.3229	0.1089	0.8066	-0.05
Mof_C 	C 	0.4273	0.1624	0.8036	-0.008
Mof_C 	C 	0.4934	0.14	0.8607	0.334
Mof_C 	C 	0.786	0.6771	0.8066	-0.042
Mof_C 	C 	0.7351	0.5727	0.8036	0.002
Mof_C 	C 	0.6466	0.5066	0.8607	0.338
Mof_C 	C 	0.8911	0.214	0.8066	-0.047
Mof_C 	C 	0.8376	0.2649	0.8036	0.005
Mof_C 	C 	0.86	0.3534	0.8607	0.332
Mof_C 	C 	0.6771	0.8911	0.8066	-0.043
Mof_C 	C 	0.5727	0.8376	0.8036	0.008
Mof_C 	C 	0.5066	0.86	0.8607	0.333
Mof_C 	C 	0.214	0.3229	0.8066	-0.049
Mof_C 	C 	0.2649	0.4273	0.8036	-0.005
Mof_C 	C 	0.3534	0.4934	0.8607	0.337
Mof_C 	C 	0.1089	0.786	0.8066	-0.047
Mof_C 	C 	0.1624	0.7351	0.8036	-0.004
Mof_C 	C 	0.14	0.6466	0.8607	0.335
Mof_C 	C 	0.214	0.8911	0.6934	-0.045
Mof_C 	C 	0.2649	0.8376	0.6964	-0.006
Mof_C 	C 	0.3534	0.86	0.6393	0.341
Mof_C 	C 	0.1089	0.3229	0.6934	-0.048
Mof_C 	C 	0.1624	0.4273	0.6964	-0.019
Mof_C 	C 	0.14	0.4934	0.6393	0.343
Mof_C 	C 	0.6771	0.786	0.6934	-0.04
Mof_C 	C 	0.5727	0.7351	0.6964	-0.009
Mof_C 	C 	0.5066	0.6466	0.6393	0.347
Mof_C 	C 	0.786	0.1089	0.6934	-0.045
Mof_C 	C 	0.7351	0.1624	0.6964	-0.015
Mof_C 	C 	0.6466	0.14	0.6393	0.344
Mof_C 	C 	0.8911	0.6771	0.6934	-0.041
Mof_C 	C 	0.8376	0.5727	0.6964	-0.003
Mof_C 	C 	0.86	0.5066	0.6393	0.341
Mof_C 	C 	0.3229	0.214	0.6934	-0.047
Mof_C 	C 	0.4273	0.2649	0.6964	-0.017
Mof_C 	C 	0.4934	0.3534	0.6393	0.346
Mof_C 	C 	0.6771	0.8911	0.1934	-0.036
Mof_C 	C 	0.5727	0.8376	0.1964	-0.012
Mof_C 	C 	0.5066	0.86	0.1393	0.337
Mof_C 	C 	0.214	0.3229	0.1934	-0.041
Mof_C 	C 	0.2649	0.4273	0.1964	-0.026
Mof_C 	C 	0.3534	0.4934	0.1393	0.342
Mof_C 	C 	0.1089	0.786	0.1934	-0.04
Mof_C 	C 	0.1624	0.7351	0.1964	-0.024
Mof_C 	C 	0.14	0.6466	0.1393	0.34
Mof_C 	C 	0.3229	0.1089	0.1934	-0.043
Mof_C 	C 	0.4273	0.1624	0.1964	-0.028
Mof_C 	C 	0.4934	0.14	0.1393	0.339
Mof_C 	C 	0.786	0.6771	0.1934	-0.035
Mof_C 	C 	0.7351	0.5727	0.1964	-0.018
Mof_C 	C 	0.6466	0.5066	0.1393	0.343
Mof_C 	C 	0.8911	0.214	0.1934	-0.04
Mof_C 	C 	0.8376	0.2649	0.1964	-0.015
Mof_C 	C 	0.86	0.3534	0.1393	0.337
Mof_C 	C 	0.786	0.1089	0.3066	-0.039
Mof_C 	C 	0.7351	0.1624	0.3036	-0.02
Mof_C 	C 	0.6466	0.14	0.3607	0.345
Mof_C 	C 	0.8911	0.6771	0.3066	-0.035
Mof_C 	C 	0.8376	0.5727	0.3036	-0.008
Mof_C 	C 	0.86	0.5066	0.3607	0.342
Mof_C 	C 	0.3229	0.214	0.3066	-0.041
Mof_C 	C 	0.4273	0.2649	0.3036	-0.021
Mof_C 	C 	0.4934	0.3534	0.3607	0.347
Mof_C 	C 	0.214	0.8911	0.3066	-0.039
Mof_C 	C 	0.2649	0.8376	0.3036	-0.011
Mof_C 	C 	0.3534	0.86	0.3607	0.342
Mof_C 	C 	0.1089	0.3229	0.3066	-0.042
Mof_C 	C 	0.1624	0.4273	0.3036	-0.024
Mof_C 	C 	0.14	0.4934	0.3607	0.344
Mof_C 	C 	0.6771	0.786	0.3066	-0.034
Mof_C 	C 	0.5727	0.7351	0.3036	-0.014
Mof_C 	C 	0.5066	0.6466	0.3607	0.348
Mof_C 	C 	0.2707	0.13535	0.75	-0.024
Mof_C 	C 	0.86465	0.7293	0.75	-0.011
Mof_C 	C 	0.86465	0.13535	0.75	-0.016
Mof_C 	C 	0.7293	0.86465	0.75	-0.011
Mof_C 	C 	0.13535	0.2707	0.75	-0.024
Mof_C 	C 	0.13535	0.86465	0.75	-0.016
Mof_C 	C 	0.7293	0.86465	0.25	-0.024
Mof_C 	C 	0.13535	0.2707	0.25	-0.038
Mof_C 	C 	0.13535	0.86465	0.25	-0.03
Mof_C 	C 	0.2707	0.13535	0.25	-0.038
Mof_C 	C 	0.86465	0.7293	0.25	-0.024
Mof_C 	C 	0.86465	0.13535	0.25	-0.03
Mof_N 	N 	0.4791	0.23955	0.75	-0.19
Mof_N 	N 	0.76045	0.5209	0.75	-0.19
Mof_N 	N 	0.76045	0.23955	0.75	-0.19
Mof_N 	N 	0.5209	0.76045	0.75	-0.19
Mof_N 	N 	0.23955	0.4791	0.75	-0.19
Mof_N 	N 	0.23955	0.76045	0.75	-0.19
Mof_N 	N 	0.5209	0.76045	0.25	-0.187
Mof_N 	N 	0.23955	0.4791	0.25	-0.187
Mof_N 	N 	0.23955	0.76045	0.25	-0.187
Mof_N 	N 	0.4791	0.23955	0.25	-0.187
Mof_N 	N 	0.76045	0.5209	0.25	-0.187
Mof_N 	N 	0.76045	0.23955	0.25	-0.187
Mof_O 	O 	0.5893	0.1997	0.8555	-0.392
Mof_O 	O 	0.4492	0.0649	0.9088	-0.304
Mof_O 	O 	0.6104	0.4107	0.8555	-0.388
Mof_O 	O 	0.6157	0.5508	0.9088	-0.294
Mof_O 	O 	0.8003	0.3896	0.8555	-0.379
Mof_O 	O 	0.9351	0.3843	0.9088	-0.265
Mof_O 	O 	0.4107	0.8003	0.8555	-0.379
Mof_O 	O 	0.5508	0.9351	0.9088	-0.263
Mof_O 	O 	0.3896	0.5893	0.8555	-0.389
Mof_O 	O 	0.3843	0.4492	0.9088	-0.298
Mof_O 	O 	0.1997	0.6104	0.8555	-0.391
Mof_O 	O 	0.0649	0.6157	0.9088	-0.302
Mof_O 	O 	0.3896	0.8003	0.6445	-0.401
Mof_O 	O 	0.3843	0.9351	0.5912	-0.319
Mof_O 	O 	0.1997	0.5893	0.6445	-0.415
Mof_O 	O 	0.0649	0.4492	0.5912	-0.359
Mof_O 	O 	0.4107	0.6104	0.6445	-0.411
Mof_O 	O 	0.5508	0.6157	0.5912	-0.349
Mof_O 	O 	0.6104	0.1997	0.6445	-0.414
Mof_O 	O 	0.6157	0.0649	0.5912	-0.357
Mof_O 	O 	0.8003	0.4107	0.6445	-0.401
Mof_O 	O 	0.9351	0.5508	0.5912	-0.317
Mof_O 	O 	0.5893	0.3896	0.6445	-0.412
Mof_O 	O 	0.4492	0.3843	0.5912	-0.354
Mof_O 	O 	0.4107	0.8003	0.1445	-0.409
Mof_O 	O 	0.5508	0.9351	0.0912	-0.324
Mof_O 	O 	0.3896	0.5893	0.1445	-0.42
Mof_O 	O 	0.3843	0.4492	0.0912	-0.361
Mof_O 	O 	0.1997	0.6104	0.1445	-0.422
Mof_O 	O 	0.0649	0.6157	0.0912	-0.364
Mof_O 	O 	0.5893	0.1997	0.1445	-0.423
Mof_O 	O 	0.4492	0.0649	0.0912	-0.366
Mof_O 	O 	0.6104	0.4107	0.1445	-0.419
Mof_O 	O 	0.6157	0.5508	0.0912	-0.356
Mof_O 	O 	0.8003	0.3896	0.1445	-0.409
Mof_O 	O 	0.9351	0.3843	0.0912	-0.326
Mof_O 	O 	0.6104	0.1997	0.3555	-0.413
Mof_O 	O 	0.6157	0.0649	0.4088	-0.357
Mof_O 	O 	0.8003	0.4107	0.3555	-0.4
Mof_O 	O 	0.9351	0.5508	0.4088	-0.317
Mof_O 	O 	0.5893	0.3896	0.3555	-0.411
Mof_O 	O 	0.4492	0.3843	0.4088	-0.354
Mof_O 	O 	0.3896	0.8003	0.3555	-0.4
Mof_O 	O 	0.3843	0.9351	0.4088	-0.319
Mof_O 	O 	0.1997	0.5893	0.3555	-0.414
Mof_O 	O 	0.0649	0.4492	0.4088	-0.359
Mof_O 	O 	0.4107	0.6104	0.3555	-0.41
Mof_O 	O 	0.5508	0.6157	0.4088	-0.349
_end
