data_functionalizedCrystal
_audit_creation_method	'EQeq! by Chris Wilmer'
_symmetry_space_group_name_H-M	'P1'
_symmetry_Int_Tables_number	1
_symmetry_cell_setting	triclinic
loop_
_symmetry_equiv_pos_as_xyz
  x,y,z
_cell_length_a	17.9702
_cell_length_b	25.078
_cell_length_c	27.0363
_cell_angle_alpha	90
_cell_angle_beta	90
_cell_angle_gamma	90
loop_
_atom_site_label
_atom_site_type_symbol
_atom_site_fract_x
_atom_site_fract_y
_atom_site_fract_z
_atom_site_charge
Mof_C 	C 	0.0115	0.2468	0.5525	0.309
Mof_C 	C 	0.0456	0.1909	0.5461	0.255
Mof_C 	C 	0.161	0.3682	0.6212	0.253
Mof_C 	C 	0.1381	0.3291	0.6629	0.296
Mof_C 	C 	0.8169	0.2071	0.463	0.257
Mof_C 	C 	0.7657	0.2149	0.5069	0.262
Mof_O 	O 	0.0536	0.2836	0.56301	-0.274
Mof_O 	O 	0.1143	0.1861	0.5508	-0.278
Mof_O 	O 	0.9415	0.2486	0.54851	-0.525
Mof_O 	O 	0.0014	0.15398	0.53567	-0.473
Mof_O 	O 	0.1786	0.35118	0.58077	-0.257
Mof_O 	O 	0.1399	0.2818	0.65386	-0.306
Mof_O 	O 	0.1593	0.4178	0.63406	-0.487
Mof_O 	O 	0.1184	0.35101	0.70317	-0.495
Mof_O 	O 	0.7962	0.2216	0.42183	-0.289
Mof_O 	O 	0.7026	0.2316	0.49969	-0.28
Mof_O 	O 	0.8801	0.1855	0.47246	-0.494
Mof_O 	O 	0.7933	0.2024	0.54898	-0.484
Mof_Cr	Cr	0.89708	0.17688	0.54415	2.094
Mof_Mn	Mn	0.17393	0.25831	0.57954	0.921
Mof_C 	C 	0.0115	0.7468	0.0525	0.31
Mof_C 	C 	0.0456	0.6909	0.0461	0.256
Mof_C 	C 	0.161	0.8682	0.1212	0.254
Mof_C 	C 	0.1381	0.8291	0.1629	0.297
Mof_C 	C 	0.8169	0.7071	0.963	0.258
Mof_C 	C 	0.7657	0.7149	0.0069	0.263
Mof_O 	O 	0.0536	0.7836	0.06301	-0.273
Mof_O 	O 	0.1143	0.6861	0.0508	-0.277
Mof_O 	O 	0.9415	0.7486	0.04851	-0.524
Mof_O 	O 	0.0014	0.65398	0.03567	-0.473
Mof_O 	O 	0.1786	0.85118	0.08077	-0.257
Mof_O 	O 	0.1399	0.7818	0.15386	-0.306
Mof_O 	O 	0.1593	0.9178	0.13406	-0.487
Mof_O 	O 	0.1184	0.85101	0.20317	-0.495
Mof_O 	O 	0.7962	0.7216	0.92183	-0.289
Mof_O 	O 	0.7026	0.7316	0.99969	-0.28
Mof_O 	O 	0.8801	0.6855	0.97246	-0.494
Mof_O 	O 	0.7933	0.7024	0.04898	-0.484
Mof_Cr	Cr	0.89708	0.67688	0.04415	2.095
Mof_Mn	Mn	0.17393	0.75831	0.07954	0.921
Mof_C 	C 	0.5115	0.2468	0.0525	0.27
Mof_C 	C 	0.5456	0.1909	0.0461	0.265
Mof_C 	C 	0.661	0.3682	0.1212	0.253
Mof_C 	C 	0.6381	0.3291	0.1629	0.296
Mof_C 	C 	0.3169	0.2071	0.963	0.258
Mof_C 	C 	0.2657	0.2149	0.0069	0.264
Mof_O 	O 	0.5536	0.2836	0.06301	-0.268
Mof_O 	O 	0.6143	0.1861	0.0508	-0.285
Mof_O 	O 	0.4415	0.2486	0.04851	-0.497
Mof_O 	O 	0.5014	0.15398	0.03567	-0.5
Mof_O 	O 	0.6786	0.35118	0.08077	-0.259
Mof_O 	O 	0.6399	0.2818	0.15386	-0.31
Mof_O 	O 	0.6593	0.4178	0.13406	-0.489
Mof_O 	O 	0.6184	0.35101	0.20317	-0.499
Mof_O 	O 	0.2962	0.2216	0.92183	-0.285
Mof_O 	O 	0.2026	0.2316	0.99969	-0.276
Mof_O 	O 	0.3801	0.1855	0.97246	-0.49
Mof_O 	O 	0.2933	0.2024	0.04898	-0.486
Mof_Cr	Cr	0.39708	0.17688	0.04415	2.123
Mof_Mn	Mn	0.67393	0.25831	0.07954	0.916
Mof_C 	C 	0.5115	0.7468	0.5525	0.27
Mof_C 	C 	0.5456	0.6909	0.5461	0.265
Mof_C 	C 	0.661	0.8682	0.6212	0.253
Mof_C 	C 	0.6381	0.8291	0.6629	0.296
Mof_C 	C 	0.3169	0.7071	0.463	0.258
Mof_C 	C 	0.2657	0.7149	0.5069	0.264
Mof_O 	O 	0.5536	0.7836	0.56301	-0.268
Mof_O 	O 	0.6143	0.6861	0.5508	-0.285
Mof_O 	O 	0.4415	0.7486	0.54851	-0.497
Mof_O 	O 	0.5014	0.65398	0.53567	-0.5
Mof_O 	O 	0.6786	0.85118	0.58077	-0.259
Mof_O 	O 	0.6399	0.7818	0.65386	-0.31
Mof_O 	O 	0.6593	0.9178	0.63406	-0.489
Mof_O 	O 	0.6184	0.85101	0.70317	-0.499
Mof_O 	O 	0.2962	0.7216	0.42183	-0.285
Mof_O 	O 	0.2026	0.7316	0.49969	-0.277
Mof_O 	O 	0.3801	0.6855	0.47246	-0.49
Mof_O 	O 	0.2933	0.7024	0.54898	-0.486
Mof_Cr	Cr	0.39708	0.67688	0.54415	2.124
Mof_Mn	Mn	0.67393	0.75831	0.57954	0.916
Mof_C 	C 	0.0115	0.7532	0.4475	0.31
Mof_C 	C 	0.0456	0.8091	0.4539	0.256
Mof_C 	C 	0.161	0.6318	0.3788	0.254
Mof_C 	C 	0.1381	0.6709	0.3371	0.297
Mof_C 	C 	0.8169	0.7929	0.537	0.258
Mof_C 	C 	0.7657	0.7851	0.4931	0.263
Mof_O 	O 	0.0536	0.7164	0.43699	-0.273
Mof_O 	O 	0.1143	0.8139	0.4492	-0.277
Mof_O 	O 	0.9415	0.7514	0.45149	-0.525
Mof_O 	O 	0.0014	0.84602	0.46433	-0.473
Mof_O 	O 	0.1786	0.64882	0.41923	-0.257
Mof_O 	O 	0.1399	0.7182	0.34614	-0.306
Mof_O 	O 	0.1593	0.5822	0.36594	-0.487
Mof_O 	O 	0.1184	0.64899	0.29683	-0.495
Mof_O 	O 	0.7962	0.7784	0.57817	-0.289
Mof_O 	O 	0.7026	0.7684	0.50031	-0.28
Mof_O 	O 	0.8801	0.8145	0.52754	-0.494
Mof_O 	O 	0.7933	0.7976	0.45102	-0.484
Mof_Cr	Cr	0.89708	0.82312	0.45585	2.094
Mof_Mn	Mn	0.17393	0.74169	0.42046	0.921
Mof_C 	C 	0.0115	0.2532	0.9475	0.31
Mof_C 	C 	0.0456	0.3091	0.9539	0.256
Mof_C 	C 	0.161	0.1318	0.8788	0.254
Mof_C 	C 	0.1381	0.1709	0.8371	0.297
Mof_C 	C 	0.8169	0.2929	0.037	0.258
Mof_C 	C 	0.7657	0.2851	0.9931	0.263
Mof_O 	O 	0.0536	0.2164	0.93699	-0.273
Mof_O 	O 	0.1143	0.3139	0.9492	-0.277
Mof_O 	O 	0.9415	0.2514	0.95149	-0.524
Mof_O 	O 	0.0014	0.34602	0.96433	-0.473
Mof_O 	O 	0.1786	0.14882	0.91923	-0.257
Mof_O 	O 	0.1399	0.2182	0.84614	-0.306
Mof_O 	O 	0.1593	0.0822	0.86594	-0.487
Mof_O 	O 	0.1184	0.14899	0.79683	-0.495
Mof_O 	O 	0.7962	0.2784	0.07817	-0.289
Mof_O 	O 	0.7026	0.2684	0.00031	-0.28
Mof_O 	O 	0.8801	0.3145	0.02754	-0.494
Mof_O 	O 	0.7933	0.2976	0.95102	-0.484
Mof_Cr	Cr	0.89708	0.32312	0.95585	2.095
Mof_Mn	Mn	0.17393	0.24169	0.92046	0.921
Mof_C 	C 	0.5115	0.7532	0.9475	0.27
Mof_C 	C 	0.5456	0.8091	0.9539	0.265
Mof_C 	C 	0.661	0.6318	0.8788	0.253
Mof_C 	C 	0.6381	0.6709	0.8371	0.296
Mof_C 	C 	0.3169	0.7929	0.037	0.258
Mof_C 	C 	0.2657	0.7851	0.9931	0.264
Mof_O 	O 	0.5536	0.7164	0.93699	-0.268
Mof_O 	O 	0.6143	0.8139	0.9492	-0.285
Mof_O 	O 	0.4415	0.7514	0.95149	-0.497
Mof_O 	O 	0.5014	0.84602	0.96433	-0.5
Mof_O 	O 	0.6786	0.64882	0.91923	-0.259
Mof_O 	O 	0.6399	0.7182	0.84614	-0.31
Mof_O 	O 	0.6593	0.5822	0.86594	-0.489
Mof_O 	O 	0.6184	0.64899	0.79683	-0.499
Mof_O 	O 	0.2962	0.7784	0.07817	-0.285
Mof_O 	O 	0.2026	0.7684	0.00031	-0.276
Mof_O 	O 	0.3801	0.8145	0.02754	-0.49
Mof_O 	O 	0.2933	0.7976	0.95102	-0.486
Mof_Cr	Cr	0.39708	0.82312	0.95585	2.123
Mof_Mn	Mn	0.67393	0.74169	0.92046	0.916
Mof_C 	C 	0.5115	0.2532	0.4475	0.27
Mof_C 	C 	0.5456	0.3091	0.4539	0.265
Mof_C 	C 	0.661	0.1318	0.3788	0.253
Mof_C 	C 	0.6381	0.1709	0.3371	0.296
Mof_C 	C 	0.3169	0.2929	0.537	0.258
Mof_C 	C 	0.2657	0.2851	0.4931	0.264
Mof_O 	O 	0.5536	0.2164	0.43699	-0.268
Mof_O 	O 	0.6143	0.3139	0.4492	-0.285
Mof_O 	O 	0.4415	0.2514	0.45149	-0.497
Mof_O 	O 	0.5014	0.34602	0.46433	-0.5
Mof_O 	O 	0.6786	0.14882	0.41923	-0.259
Mof_O 	O 	0.6399	0.2182	0.34614	-0.31
Mof_O 	O 	0.6593	0.0822	0.36594	-0.489
Mof_O 	O 	0.6184	0.14899	0.29683	-0.499
Mof_O 	O 	0.2962	0.2784	0.57817	-0.285
Mof_O 	O 	0.2026	0.2684	0.50031	-0.277
Mof_O 	O 	0.3801	0.3145	0.52754	-0.49
Mof_O 	O 	0.2933	0.2976	0.45102	-0.486
Mof_Cr	Cr	0.39708	0.32312	0.45585	2.124
Mof_Mn	Mn	0.67393	0.24169	0.42046	0.916
Mof_C 	C 	0.7615	0.9968	0.6975	0.27
Mof_C 	C 	0.7956	0.9409	0.7039	0.265
Mof_C 	C 	0.911	0.1182	0.6288	0.251
Mof_C 	C 	0.8881	0.0791	0.5871	0.292
Mof_C 	C 	0.5669	0.9571	0.787	0.257
Mof_C 	C 	0.5157	0.9649	0.7431	0.264
Mof_O 	O 	0.8036	0.0336	0.68699	-0.268
Mof_O 	O 	0.8643	0.9361	0.6992	-0.287
Mof_O 	O 	0.6915	0.9986	0.70149	-0.498
Mof_O 	O 	0.7514	0.90398	0.71433	-0.501
Mof_O 	O 	0.9286	0.10118	0.66923	-0.268
Mof_O 	O 	0.8899	0.0318	0.59614	-0.312
Mof_O 	O 	0.9093	0.1678	0.61594	-0.493
Mof_O 	O 	0.8684	0.10101	0.54683	-0.498
Mof_O 	O 	0.5462	0.9716	0.82817	-0.286
Mof_O 	O 	0.4526	0.9816	0.75031	-0.279
Mof_O 	O 	0.6301	0.9355	0.77754	-0.491
Mof_O 	O 	0.5433	0.9524	0.70102	-0.487
Mof_Cr	Cr	0.64708	0.92688	0.70585	2.123
Mof_Mn	Mn	0.92393	0.00831	0.67046	0.901
Mof_C 	C 	0.7615	0.4968	0.1975	0.27
Mof_C 	C 	0.7956	0.4409	0.2039	0.265
Mof_C 	C 	0.911	0.6182	0.1288	0.251
Mof_C 	C 	0.8881	0.5791	0.0871	0.292
Mof_C 	C 	0.5669	0.4571	0.287	0.257
Mof_C 	C 	0.5157	0.4649	0.2431	0.264
Mof_O 	O 	0.8036	0.5336	0.18699	-0.268
Mof_O 	O 	0.8643	0.4361	0.1992	-0.287
Mof_O 	O 	0.6915	0.4986	0.20149	-0.498
Mof_O 	O 	0.7514	0.40398	0.21433	-0.501
Mof_O 	O 	0.9286	0.60118	0.16923	-0.268
Mof_O 	O 	0.8899	0.5318	0.09614	-0.312
Mof_O 	O 	0.9093	0.6678	0.11594	-0.493
Mof_O 	O 	0.8684	0.60101	0.04683	-0.498
Mof_O 	O 	0.5462	0.4716	0.32817	-0.286
Mof_O 	O 	0.4526	0.4816	0.25031	-0.279
Mof_O 	O 	0.6301	0.4355	0.27754	-0.491
Mof_O 	O 	0.5433	0.4524	0.20102	-0.487
Mof_Cr	Cr	0.64708	0.42688	0.20585	2.123
Mof_Mn	Mn	0.92393	0.50831	0.17046	0.9
Mof_C 	C 	0.2615	0.9968	0.1975	0.271
Mof_C 	C 	0.2956	0.9409	0.2039	0.265
Mof_C 	C 	0.411	0.1182	0.1288	0.253
Mof_C 	C 	0.3881	0.0791	0.0871	0.296
Mof_C 	C 	0.0669	0.9571	0.287	0.248
Mof_C 	C 	0.0157	0.9649	0.2431	0.306
Mof_O 	O 	0.3036	0.0336	0.18699	-0.267
Mof_O 	O 	0.3643	0.9361	0.1992	-0.284
Mof_O 	O 	0.1915	0.9986	0.20149	-0.496
Mof_O 	O 	0.2514	0.90398	0.21433	-0.499
Mof_O 	O 	0.4286	0.10118	0.16923	-0.258
Mof_O 	O 	0.3899	0.0318	0.09614	-0.309
Mof_O 	O 	0.4093	0.1678	0.11594	-0.488
Mof_O 	O 	0.3684	0.10101	0.04683	-0.498
Mof_O 	O 	0.0462	0.9716	0.32817	-0.266
Mof_O 	O 	0.9526	0.9816	0.25031	-0.31
Mof_O 	O 	0.1301	0.9355	0.27754	-0.486
Mof_O 	O 	0.0433	0.9524	0.20102	-0.49
Mof_Cr	Cr	0.14708	0.92688	0.20585	2.127
Mof_Mn	Mn	0.42393	0.00831	0.17046	0.918
Mof_C 	C 	0.2615	0.4968	0.6975	0.271
Mof_C 	C 	0.2956	0.4409	0.7039	0.265
Mof_C 	C 	0.411	0.6182	0.6288	0.253
Mof_C 	C 	0.3881	0.5791	0.5871	0.296
Mof_C 	C 	0.0669	0.4571	0.787	0.248
Mof_C 	C 	0.0157	0.4649	0.7431	0.306
Mof_O 	O 	0.3036	0.5336	0.68699	-0.267
Mof_O 	O 	0.3643	0.4361	0.6992	-0.284
Mof_O 	O 	0.1915	0.4986	0.70149	-0.496
Mof_O 	O 	0.2514	0.40398	0.71433	-0.499
Mof_O 	O 	0.4286	0.60118	0.66923	-0.258
Mof_O 	O 	0.3899	0.5318	0.59614	-0.309
Mof_O 	O 	0.4093	0.6678	0.61594	-0.488
Mof_O 	O 	0.3684	0.60101	0.54683	-0.498
Mof_O 	O 	0.0462	0.4716	0.82817	-0.266
Mof_O 	O 	0.9526	0.4816	0.75031	-0.311
Mof_O 	O 	0.1301	0.4355	0.77754	-0.486
Mof_O 	O 	0.0433	0.4524	0.70102	-0.49
Mof_Cr	Cr	0.14708	0.42688	0.70585	2.127
Mof_Mn	Mn	0.42393	0.50831	0.67046	0.918
Mof_C 	C 	0.7615	0.5032	0.8025	0.27
Mof_C 	C 	0.7956	0.5591	0.7961	0.265
Mof_C 	C 	0.911	0.3818	0.8712	0.251
Mof_C 	C 	0.8881	0.4209	0.9129	0.292
Mof_C 	C 	0.5669	0.5429	0.713	0.257
Mof_C 	C 	0.5157	0.5351	0.7569	0.264
Mof_O 	O 	0.8036	0.4664	0.81301	-0.268
Mof_O 	O 	0.8643	0.5639	0.8008	-0.287
Mof_O 	O 	0.6915	0.5014	0.79851	-0.498
Mof_O 	O 	0.7514	0.59602	0.78567	-0.501
Mof_O 	O 	0.9286	0.39882	0.83077	-0.268
Mof_O 	O 	0.8899	0.4682	0.90386	-0.312
Mof_O 	O 	0.9093	0.3322	0.88406	-0.493
Mof_O 	O 	0.8684	0.39899	0.95317	-0.498
Mof_O 	O 	0.5462	0.5284	0.67183	-0.286
Mof_O 	O 	0.4526	0.5184	0.74969	-0.279
Mof_O 	O 	0.6301	0.5645	0.72246	-0.491
Mof_O 	O 	0.5433	0.5476	0.79898	-0.487
Mof_Cr	Cr	0.64708	0.57312	0.79415	2.123
Mof_Mn	Mn	0.92393	0.49169	0.82954	0.9
Mof_C 	C 	0.7615	0.0032	0.3025	0.27
Mof_C 	C 	0.7956	0.0591	0.2961	0.265
Mof_C 	C 	0.911	0.8818	0.3712	0.251
Mof_C 	C 	0.8881	0.9209	0.4129	0.292
Mof_C 	C 	0.5669	0.0429	0.213	0.257
Mof_C 	C 	0.5157	0.0351	0.2569	0.264
Mof_O 	O 	0.8036	0.9664	0.31301	-0.268
Mof_O 	O 	0.8643	0.0639	0.3008	-0.287
Mof_O 	O 	0.6915	0.0014	0.29851	-0.498
Mof_O 	O 	0.7514	0.09602	0.28567	-0.501
Mof_O 	O 	0.9286	0.89882	0.33077	-0.268
Mof_O 	O 	0.8899	0.9682	0.40386	-0.312
Mof_O 	O 	0.9093	0.8322	0.38406	-0.493
Mof_O 	O 	0.8684	0.89899	0.45317	-0.498
Mof_O 	O 	0.5462	0.0284	0.17183	-0.286
Mof_O 	O 	0.4526	0.0184	0.24969	-0.279
Mof_O 	O 	0.6301	0.0645	0.22246	-0.491
Mof_O 	O 	0.5433	0.0476	0.29898	-0.487
Mof_Cr	Cr	0.64708	0.07312	0.29415	2.123
Mof_Mn	Mn	0.92393	0.99169	0.32954	0.901
Mof_C 	C 	0.2615	0.5032	0.3025	0.271
Mof_C 	C 	0.2956	0.5591	0.2961	0.265
Mof_C 	C 	0.411	0.3818	0.3712	0.253
Mof_C 	C 	0.3881	0.4209	0.4129	0.296
Mof_C 	C 	0.0669	0.5429	0.213	0.248
Mof_C 	C 	0.0157	0.5351	0.2569	0.306
Mof_O 	O 	0.3036	0.4664	0.31301	-0.267
Mof_O 	O 	0.3643	0.5639	0.3008	-0.284
Mof_O 	O 	0.1915	0.5014	0.29851	-0.496
Mof_O 	O 	0.2514	0.59602	0.28567	-0.499
Mof_O 	O 	0.4286	0.39882	0.33077	-0.258
Mof_O 	O 	0.3899	0.4682	0.40386	-0.309
Mof_O 	O 	0.4093	0.3322	0.38406	-0.488
Mof_O 	O 	0.3684	0.39899	0.45317	-0.498
Mof_O 	O 	0.0462	0.5284	0.17183	-0.266
Mof_O 	O 	0.9526	0.5184	0.24969	-0.311
Mof_O 	O 	0.1301	0.5645	0.22246	-0.486
Mof_O 	O 	0.0433	0.5476	0.29898	-0.49
Mof_Cr	Cr	0.14708	0.57312	0.29415	2.127
Mof_Mn	Mn	0.42393	0.49169	0.32954	0.918
Mof_C 	C 	0.2615	0.0032	0.8025	0.271
Mof_C 	C 	0.2956	0.0591	0.7961	0.265
Mof_C 	C 	0.411	0.8818	0.8712	0.253
Mof_C 	C 	0.3881	0.9209	0.9129	0.296
Mof_C 	C 	0.0669	0.0429	0.713	0.248
Mof_C 	C 	0.0157	0.0351	0.7569	0.306
Mof_O 	O 	0.3036	0.9664	0.81301	-0.267
Mof_O 	O 	0.3643	0.0639	0.8008	-0.284
Mof_O 	O 	0.1915	0.0014	0.79851	-0.496
Mof_O 	O 	0.2514	0.09602	0.78567	-0.499
Mof_O 	O 	0.4286	0.89882	0.83077	-0.258
Mof_O 	O 	0.3899	0.9682	0.90386	-0.309
Mof_O 	O 	0.4093	0.8322	0.88406	-0.488
Mof_O 	O 	0.3684	0.89899	0.95317	-0.498
Mof_O 	O 	0.0462	0.0284	0.67183	-0.266
Mof_O 	O 	0.9526	0.0184	0.74969	-0.31
Mof_O 	O 	0.1301	0.0645	0.72246	-0.486
Mof_O 	O 	0.0433	0.0476	0.79898	-0.49
Mof_Cr	Cr	0.14708	0.07312	0.79415	2.127
Mof_Mn	Mn	0.42393	0.99169	0.82954	0.918
_end
