data_functionalizedCrystal
_audit_creation_method	'EQeq! by Chris Wilmer'
_symmetry_space_group_name_H-M	'P1'
_symmetry_Int_Tables_number	1
_symmetry_cell_setting	triclinic
loop_
_symmetry_equiv_pos_as_xyz
  x,y,z
_cell_length_a	14.104
_cell_length_b	26.799
_cell_length_c	7.657
_cell_angle_alpha	90
_cell_angle_beta	90
_cell_angle_gamma	90
loop_
_atom_site_label
_atom_site_type_symbol
_atom_site_fract_x
_atom_site_fract_y
_atom_site_fract_z
_atom_site_charge
Mof_Cd	Cd	0.2164	0.11507	0.1234	0.33
Mof_N 	N 	0.241	0.1716	0.897	-0.057
Mof_N 	N 	0.2414	0.1711	0.335	-0.082
Mof_N 	N 	0.1654	0.0527	0.336	-0.069
Mof_N 	N 	0.3686	0.0807	0.119	-0.073
Mof_N 	N 	0.1756	0.056	0.903	-0.104
Mof_N 	N 	0.0521	0.1275	0.078	-0.166
Mof_C 	C 	0.2435	0.2009	0.787	-0.23
Mof_C 	C 	0.2454	0.2013	0.442	-0.241
Mof_C 	C 	0.1041	0.0329	0.401	-0.265
Mof_C 	C 	0.4183	0.0502	0.075	-0.263
Mof_C 	C 	0.074	0.0597	0.874	-0.036
Mof_C 	C 	0.02	0.094	0.939	0.007
Mof_C 	C 	0.9131	0.0943	0.908	0.051
Mof_Cd	Cd	0.2836	0.88493	0.6234	0.38
Mof_N 	N 	0.259	0.8284	0.397	-0.076
Mof_N 	N 	0.2586	0.8289	0.835	-0.082
Mof_N 	N 	0.3346	0.9473	0.836	-0.065
Mof_N 	N 	0.1314	0.9193	0.619	-0.073
Mof_N 	N 	0.3244	0.944	0.403	-0.109
Mof_N 	N 	0.4479	0.8725	0.578	-0.122
Mof_C 	C 	0.2565	0.7991	0.287	-0.259
Mof_C 	C 	0.2546	0.7987	0.942	-0.198
Mof_C 	C 	0.3959	0.9671	0.901	-0.145
Mof_C 	C 	0.0817	0.9498	0.575	-0.214
Mof_C 	C 	0.426	0.9403	0.374	-0.015
Mof_C 	C 	0.48	0.906	0.439	0.033
Mof_C 	C 	0.5869	0.9057	0.408	-0.025
Mof_Cd	Cd	0.7836	0.61507	0.8766	0.417
Mof_N 	N 	0.759	0.6716	0.103	-0.094
Mof_N 	N 	0.7586	0.6711	0.665	-0.074
Mof_N 	N 	0.8346	0.5527	0.664	-0.069
Mof_N 	N 	0.6314	0.5807	0.881	-0.07
Mof_N 	N 	0.8244	0.556	0.097	-0.13
Mof_N 	N 	0.9479	0.6275	0.922	-0.082
Mof_C 	C 	0.7565	0.7009	0.213	-0.237
Mof_C 	C 	0.7546	0.7013	0.558	-0.222
Mof_C 	C 	0.8959	0.5329	0.599	-0.169
Mof_C 	C 	0.5817	0.5502	0.925	-0.18
Mof_C 	C 	0.926	0.5597	0.126	-0.022
Mof_C 	C 	0.98	0.594	0.061	0.072
Mof_C 	C 	0.0869	0.5943	0.092	-0.121
Mof_Cd	Cd	0.7164	0.38493	0.3766	0.375
Mof_N 	N 	0.741	0.3284	0.603	-0.073
Mof_N 	N 	0.7414	0.3289	0.165	-0.075
Mof_N 	N 	0.6654	0.4473	0.164	-0.068
Mof_N 	N 	0.8686	0.4193	0.381	-0.075
Mof_N 	N 	0.6756	0.444	0.597	-0.11
Mof_N 	N 	0.5521	0.3725	0.422	-0.125
Mof_C 	C 	0.7435	0.2991	0.713	-0.209
Mof_C 	C 	0.7454	0.2987	0.058	-0.257
Mof_C 	C 	0.6041	0.4671	0.099	-0.239
Mof_C 	C 	0.9183	0.4498	0.425	-0.174
Mof_C 	C 	0.574	0.4403	0.626	-0.012
Mof_C 	C 	0.52	0.406	0.561	0.037
Mof_C 	C 	0.4131	0.4057	0.592	-0.019
Mof_Cd	Cd	0.7836	0.88493	0.8766	0.422
Mof_N 	N 	0.759	0.8284	0.103	-0.094
Mof_N 	N 	0.7586	0.8289	0.665	-0.073
Mof_N 	N 	0.8346	0.9473	0.664	-0.069
Mof_N 	N 	0.6314	0.9193	0.881	-0.074
Mof_N 	N 	0.8244	0.944	0.097	-0.123
Mof_N 	N 	0.9479	0.8725	0.922	-0.081
Mof_C 	C 	0.7565	0.7991	0.213	-0.237
Mof_C 	C 	0.7546	0.7987	0.558	-0.222
Mof_C 	C 	0.8959	0.9671	0.599	-0.138
Mof_C 	C 	0.5817	0.9498	0.925	-0.15
Mof_C 	C 	0.926	0.9403	0.126	-0.004
Mof_C 	C 	0.98	0.906	0.061	0.067
Mof_C 	C 	0.0869	0.9057	0.092	-0.108
Mof_Cd	Cd	0.7164	0.11507	0.3766	0.37
Mof_N 	N 	0.741	0.1716	0.603	-0.073
Mof_N 	N 	0.7414	0.1711	0.165	-0.076
Mof_N 	N 	0.6654	0.0527	0.164	-0.07
Mof_N 	N 	0.8686	0.0807	0.381	-0.075
Mof_N 	N 	0.6756	0.056	0.597	-0.117
Mof_N 	N 	0.5521	0.1275	0.422	-0.126
Mof_C 	C 	0.7435	0.2009	0.713	-0.21
Mof_C 	C 	0.7454	0.2013	0.058	-0.257
Mof_C 	C 	0.6041	0.0329	0.099	-0.26
Mof_C 	C 	0.9183	0.0502	0.425	-0.192
Mof_C 	C 	0.574	0.0597	0.626	-0.028
Mof_C 	C 	0.52	0.094	0.561	0.041
Mof_C 	C 	0.4131	0.0943	0.592	-0.029
Mof_Cd	Cd	0.2164	0.38493	0.1234	0.334
Mof_N 	N 	0.241	0.3284	0.897	-0.058
Mof_N 	N 	0.2414	0.3289	0.335	-0.083
Mof_N 	N 	0.1654	0.4473	0.336	-0.066
Mof_N 	N 	0.3686	0.4193	0.119	-0.074
Mof_N 	N 	0.1756	0.444	0.903	-0.096
Mof_N 	N 	0.0521	0.3725	0.078	-0.165
Mof_C 	C 	0.2435	0.2991	0.787	-0.23
Mof_C 	C 	0.2454	0.2987	0.442	-0.241
Mof_C 	C 	0.1041	0.4671	0.401	-0.244
Mof_C 	C 	0.4183	0.4498	0.075	-0.245
Mof_C 	C 	0.074	0.4403	0.874	-0.02
Mof_C 	C 	0.02	0.406	0.939	0.003
Mof_C 	C 	0.9131	0.4057	0.908	0.061
Mof_Cd	Cd	0.2836	0.61507	0.6234	0.375
Mof_N 	N 	0.259	0.6716	0.397	-0.076
Mof_N 	N 	0.2586	0.6711	0.835	-0.082
Mof_N 	N 	0.3346	0.5527	0.836	-0.065
Mof_N 	N 	0.1314	0.5807	0.619	-0.07
Mof_N 	N 	0.3244	0.556	0.403	-0.116
Mof_N 	N 	0.4479	0.6275	0.578	-0.123
Mof_C 	C 	0.2565	0.7009	0.287	-0.259
Mof_C 	C 	0.2546	0.7013	0.942	-0.198
Mof_C 	C 	0.3959	0.5329	0.901	-0.178
Mof_C 	C 	0.0817	0.5502	0.575	-0.245
Mof_C 	C 	0.426	0.5597	0.374	-0.033
Mof_C 	C 	0.48	0.594	0.439	0.037
Mof_C 	C 	0.5869	0.5943	0.408	-0.037
Mof_Ni	Ni	0.2464	0.25	0.6145	1.063
Mof_Ni	Ni	0.2536	0.75	0.1145	1.035
Mof_Ni	Ni	0.7536	0.75	0.3855	1.063
Mof_Ni	Ni	0.7464	0.25	0.8855	1.086
Mof_Ni	Ni	1.01777e-33	0	0.5	1.012
Mof_Ni	Ni	0.5	0	-0	1.02
Mof_Ni	Ni	-1.16281e-33	0.5	0.5	1.033
Mof_Ni	Ni	0.5	0.5	-0	1.041
_end
