data_functionalizedCrystal
_audit_creation_method	'EQeq! by Chris Wilmer'
_symmetry_space_group_name_H-M	'P1'
_symmetry_Int_Tables_number	1
_symmetry_cell_setting	triclinic
loop_
_symmetry_equiv_pos_as_xyz
  x,y,z
_cell_length_a	21.7036
_cell_length_b	21.7036
_cell_length_c	6.844
_cell_angle_alpha	90
_cell_angle_beta	90
_cell_angle_gamma	120
loop_
_atom_site_label
_atom_site_type_symbol
_atom_site_fract_x
_atom_site_fract_y
_atom_site_fract_z
_atom_site_charge
Mof_Co	Co	0.28176	0.60829	0.33908	1.157
Mof_O 	O 	0.4199	0.6288	0.7865	-0.46
Mof_O 	O 	0.3624	0.6501	0.5495	-0.563
Mof_O 	O 	0.3525	0.5891	0.1932	-0.542
Mof_C 	C 	0.3955	0.6197	0.6154	0.424
Mof_C 	C 	0.4057	0.5181	0.1744	-0.243
Mof_H 	H 	0.3951	0.5123	0.0387	0.113
Mof_C 	C 	0.4381	0.4834	0.2552	0.056
Mof_H 	H 	0.448	0.4534	0.1761	0.007
Mof_C 	C 	0.408	0.5723	0.4829	-0.262
Mof_C 	C 	0.3878	0.5612	0.2815	0.278
Mof_C 	C 	0.4412	0.5376	0.5612	0.067
Mof_H 	H 	0.4541	0.5453	0.6953	0.018
Mof_C 	C 	0.4568	0.4922	0.4557	-0.05
Mof_Co	Co	0.39171	0.67347	0.00575	1.156
Mof_O 	O 	0.3712	0.7911	0.45317	-0.462
Mof_O 	O 	0.3499	0.7123	0.21617	-0.564
Mof_O 	O 	0.4109	0.7634	0.85987	-0.542
Mof_C 	C 	0.3803	0.7758	0.28207	0.425
Mof_C 	C 	0.4819	0.8876	0.84107	-0.246
Mof_H 	H 	0.4877	0.8828	0.70537	0.115
Mof_C 	C 	0.5166	0.9547	0.92187	0.06
Mof_H 	H 	0.5466	0.9946	0.84277	0.006
Mof_C 	C 	0.4277	0.8357	0.14957	-0.266
Mof_C 	C 	0.4388	0.8266	0.94817	0.283
Mof_C 	C 	0.4624	0.9036	0.22787	0.07
Mof_H 	H 	0.4547	0.9088	0.36197	0.016
Mof_C 	C 	0.5078	0.9646	0.12237	-0.053
Mof_Co	Co	0.32653	0.71824	0.67241	1.157
Mof_O 	O 	0.2089	0.5801	0.11983	-0.463
Mof_O 	O 	0.2877	0.6376	0.88283	-0.563
Mof_O 	O 	0.2366	0.6475	0.52653	-0.542
Mof_C 	C 	0.2242	0.6045	0.94873	0.427
Mof_C 	C 	0.1124	0.5943	0.50773	-0.243
Mof_H 	H 	0.1172	0.6049	0.37203	0.114
Mof_C 	C 	0.0453	0.5619	0.58853	0.056
Mof_H 	H 	0.0054	0.552	0.50943	0.007
Mof_C 	C 	0.1643	0.592	0.81623	-0.263
Mof_C 	C 	0.1734	0.6122	0.61483	0.279
Mof_C 	C 	0.0964	0.5588	0.89453	0.069
Mof_H 	H 	0.0912	0.5459	0.02863	0.016
Mof_C 	C 	0.0354	0.5432	0.78903	-0.049
Mof_Co	Co	0.60829	0.28176	0.66092	1.157
Mof_O 	O 	0.6288	0.4199	0.2135	-0.46
Mof_O 	O 	0.6501	0.3624	0.4505	-0.563
Mof_O 	O 	0.5891	0.3525	0.8068	-0.542
Mof_C 	C 	0.6197	0.3955	0.3846	0.424
Mof_C 	C 	0.5181	0.4057	0.8256	-0.243
Mof_H 	H 	0.5123	0.3951	0.9613	0.113
Mof_C 	C 	0.4834	0.4381	0.7448	0.056
Mof_H 	H 	0.4534	0.448	0.8239	0.007
Mof_C 	C 	0.5723	0.408	0.5171	-0.262
Mof_C 	C 	0.5612	0.3878	0.7185	0.278
Mof_C 	C 	0.5376	0.4412	0.4388	0.067
Mof_H 	H 	0.5453	0.4541	0.3047	0.018
Mof_C 	C 	0.4922	0.4568	0.5443	-0.05
Mof_Co	Co	0.67347	0.39171	0.99425	1.156
Mof_O 	O 	0.7911	0.3712	0.54683	-0.462
Mof_O 	O 	0.7123	0.3499	0.78383	-0.564
Mof_O 	O 	0.7634	0.4109	0.14013	-0.542
Mof_C 	C 	0.7758	0.3803	0.71793	0.425
Mof_C 	C 	0.8876	0.4819	0.15893	-0.246
Mof_H 	H 	0.8828	0.4877	0.29463	0.115
Mof_C 	C 	0.9547	0.5166	0.07813	0.06
Mof_H 	H 	0.9946	0.5466	0.15723	0.006
Mof_C 	C 	0.8357	0.4277	0.85043	-0.266
Mof_C 	C 	0.8266	0.4388	0.05183	0.283
Mof_C 	C 	0.9036	0.4624	0.77213	0.07
Mof_H 	H 	0.9088	0.4547	0.63803	0.016
Mof_C 	C 	0.9646	0.5078	0.87763	-0.053
Mof_Co	Co	0.71824	0.32653	0.32759	1.157
Mof_O 	O 	0.5801	0.2089	0.88017	-0.463
Mof_O 	O 	0.6376	0.2877	0.11717	-0.563
Mof_O 	O 	0.6475	0.2366	0.47347	-0.542
Mof_C 	C 	0.6045	0.2242	0.05127	0.427
Mof_C 	C 	0.5943	0.1124	0.49227	-0.243
Mof_H 	H 	0.6049	0.1172	0.62797	0.114
Mof_C 	C 	0.5619	0.0453	0.41147	0.056
Mof_H 	H 	0.552	0.0054	0.49057	0.007
Mof_C 	C 	0.592	0.1643	0.18377	-0.263
Mof_C 	C 	0.6122	0.1734	0.38517	0.279
Mof_C 	C 	0.5588	0.0964	0.10547	0.069
Mof_H 	H 	0.5459	0.0912	0.97137	0.016
Mof_C 	C 	0.5432	0.0354	0.21097	-0.049
_end
