data_functionalizedCrystal
_audit_creation_method	'EQeq! by Chris Wilmer'
_symmetry_space_group_name_H-M	'P1'
_symmetry_Int_Tables_number	1
_symmetry_cell_setting	triclinic
loop_
_symmetry_equiv_pos_as_xyz
  x,y,z
_cell_length_a	28.0724
_cell_length_b	14.0007
_cell_length_c	44.7159
_cell_angle_alpha	90
_cell_angle_beta	90
_cell_angle_gamma	90
loop_
_atom_site_label
_atom_site_type_symbol
_atom_site_fract_x
_atom_site_fract_y
_atom_site_fract_z
_atom_site_charge
Mof_I 	I 	0.19848	0.6641	0.81559	-0.373
Mof_I 	I 	0.32596	0.82782	0.83457	-0.375
Mof_I 	I 	0.42567	0.30643	0.37482	-0.373
Mof_I 	I 	0.49551	0.30448	0.46362	-0.394
Mof_I 	I 	0.44196	0.31918	0.58343	-0.383
Mof_I 	I 	0.51462	0.05536	0.61641	-0.368
Mof_Zn	Zn	0.23815	0.82645	0.82081	1.164
Mof_Zn	Zn	0.47724	0.38529	0.41372	1.163
Mof_Zn	Zn	0.45002	0.1382	0.58689	1.163
Mof_N 	N 	0.2291	0.8997	0.7816	-0.274
Mof_N 	N 	0.3859	0.0949	0.6054	-0.273
Mof_N 	N 	0.0414	0.0849	0.60711	-0.272
Mof_N 	N 	0.25743	0.0243	0.67933	-0.142
Mof_N 	N 	0.174	0.0196	0.68089	-0.142
Mof_N 	N 	0.21355	0.0624	0.63608	-0.14
Mof_N 	N 	0.44581	0.0805	0.54458	-0.276
Mof_N 	N 	0.449	0.518	0.42261	-0.276
Mof_N 	N 	0.3004	0.0939	0.35082	-0.281
Mof_N 	N 	0.4218	0.8472	0.46103	-0.143
Mof_N 	N 	0.3783	0.8468	0.41542	-0.133
Mof_N 	N 	0.3867	0.9904	0.44279	-0.139
Mof_C 	C 	0.1871	0.8978	0.76721	0.065
Mof_H 	H 	0.1606	0.8693	0.7769	-0.01
Mof_C 	C 	0.181	0.9354	0.73903	-0.116
Mof_H 	H 	0.1506	0.9344	0.7297	0.079
Mof_C 	C 	0.2201	0.9748	0.72458	0.051
Mof_C 	C 	0.2624	0.9778	0.73905	-0.112
Mof_H 	H 	0.2894	0.0052	0.7296	0.08
Mof_C 	C 	0.2662	0.9407	0.76785	0.059
Mof_H 	H 	0.2959	0.9444	0.778	0.002
Mof_C 	C 	0.2158	0.0097	0.69293	0.109
Mof_C 	C 	0.1743	0.0465	0.65206	0.102
Mof_C 	C 	0.2543	0.0491	0.65055	0.104
Mof_C 	C 	0.1281	0.0585	0.63677	0.056
Mof_C 	C 	0.0855	0.0483	0.65141	-0.12
Mof_H 	H 	0.0848	0.0319	0.672	0.082
Mof_C 	C 	0.0435	0.0622	0.63592	0.077
Mof_H 	H 	0.0144	0.0551	0.6465	-0.011
Mof_C 	C 	0.0832	0.0928	0.59278	0.074
Mof_H 	H 	0.0827	0.1075	0.572	-0.01
Mof_C 	C 	0.1263	0.0811	0.60628	-0.116
Mof_H 	H 	0.1549	0.0881	0.5951	0.08
Mof_C 	C 	0.2997	0.064	0.63445	0.05
Mof_C 	C 	0.3006	0.0943	0.605	-0.117
Mof_H 	H 	0.2719	0.1051	0.5943	0.078
Mof_C 	C 	0.3448	0.1088	0.59134	0.07
Mof_H 	H 	0.3454	0.1296	0.5711	-0.016
Mof_C 	C 	0.3843	0.0641	0.63388	0.062
Mof_H 	H 	0.4135	0.053	0.6441	-0.009
Mof_C 	C 	0.343	0.0483	0.64874	-0.116
Mof_H 	H 	0.3436	0.0266	0.6689	0.079
Mof_C 	C 	0.4281	0.1291	0.52159	0.075
Mof_H 	H 	0.4226	0.1956	0.5239	-0.009
Mof_C 	C 	0.4176	0.0872	0.49459	-0.122
Mof_H 	H 	0.4054	0.1242	0.4785	0.082
Mof_C 	C 	0.425	0.9902	0.49124	0.06
Mof_C 	C 	0.4448	0.9407	0.51468	-0.128
Mof_H 	H 	0.4519	0.8747	0.5127	0.094
Mof_C 	C 	0.4545	0.9876	0.54122	0.074
Mof_H 	H 	0.4677	0.9527	0.5575	-0.017
Mof_C 	C 	0.4104	0.9396	0.46339	0.093
Mof_C 	C 	0.3718	0.9392	0.41972	0.105
Mof_C 	C 	0.4052	0.8043	0.43686	0.087
Mof_C 	C 	0.454	0.5602	0.44913	0.083
Mof_H 	H 	0.4686	0.525	0.4648	-0.01
Mof_C 	C 	0.4392	0.6517	0.45508	-0.134
Mof_H 	H 	0.4429	0.6783	0.4745	0.094
Mof_C 	C 	0.4188	0.7043	0.43222	0.058
Mof_C 	C 	0.4118	0.6591	0.4051	-0.133
Mof_H 	H 	0.3963	0.6919	0.3892	0.098
Mof_C 	C 	0.4269	0.5676	0.40115	0.079
Mof_H 	H 	0.4216	0.5378	0.3824	-0.007
Mof_C 	C 	0.3467	0.9933	0.39526	0.073
Mof_C 	C 	0.3462	0.09	0.39558	-0.122
Mof_H 	H 	0.3615	0.1242	0.4112	0.084
Mof_C 	C 	0.3231	0.1385	0.3727	0.074
Mof_H 	H 	0.3235	0.2064	0.3728	-0.008
Mof_C 	C 	0.3016	0.0009	0.3505	0.095
Mof_H 	H 	0.2855	0.9683	0.3348	-0.02
Mof_C 	C 	0.3252	0.9472	0.37194	-0.137
Mof_H 	H 	0.3265	0.8795	0.3704	0.089
Mof_I 	I 	0.30152	0.3359	0.31559	-0.372
Mof_I 	I 	0.17404	0.17218	0.33457	-0.374
Mof_I 	I 	0.07433	0.69357	0.87482	-0.372
Mof_I 	I 	0.00449	0.69552	0.96362	-0.393
Mof_I 	I 	0.05804	0.68082	0.08343	-0.382
Mof_I 	I 	0.98538	0.94464	0.11641	-0.366
Mof_Zn	Zn	0.26185	0.17355	0.32081	1.165
Mof_Zn	Zn	0.02276	0.61471	0.91372	1.164
Mof_Zn	Zn	0.04998	0.8618	0.08689	1.164
Mof_N 	N 	0.2709	0.1003	0.2816	-0.272
Mof_N 	N 	0.1141	0.9051	0.1054	-0.272
Mof_N 	N 	0.4586	0.9151	0.10711	-0.271
Mof_N 	N 	0.24257	0.9757	0.17933	-0.142
Mof_N 	N 	0.326	0.9804	0.18089	-0.142
Mof_N 	N 	0.28645	0.9376	0.13608	-0.14
Mof_N 	N 	0.05419	0.9195	0.04458	-0.277
Mof_N 	N 	0.051	0.482	0.92261	-0.276
Mof_N 	N 	0.1996	0.9061	0.85082	-0.281
Mof_N 	N 	0.0782	0.1528	0.96103	-0.143
Mof_N 	N 	0.1217	0.1532	0.91542	-0.133
Mof_N 	N 	0.1133	0.0096	0.94279	-0.139
Mof_C 	C 	0.3129	0.1022	0.26721	0.065
Mof_H 	H 	0.3394	0.1307	0.2769	-0.01
Mof_C 	C 	0.319	0.0646	0.23903	-0.116
Mof_H 	H 	0.3494	0.0656	0.2297	0.08
Mof_C 	C 	0.2799	0.0252	0.22458	0.051
Mof_C 	C 	0.2376	0.0222	0.23905	-0.11
Mof_H 	H 	0.2106	0.9948	0.2296	0.079
Mof_C 	C 	0.2338	0.0593	0.26785	0.058
Mof_H 	H 	0.2041	0.0556	0.278	0.003
Mof_C 	C 	0.2842	0.9903	0.19293	0.108
Mof_C 	C 	0.3257	0.9535	0.15206	0.102
Mof_C 	C 	0.2457	0.9509	0.15055	0.104
Mof_C 	C 	0.3719	0.9415	0.13677	0.056
Mof_C 	C 	0.4145	0.9517	0.15141	-0.12
Mof_H 	H 	0.4152	0.9681	0.172	0.082
Mof_C 	C 	0.4565	0.9378	0.13592	0.077
Mof_H 	H 	0.4856	0.9449	0.1465	-0.011
Mof_C 	C 	0.4168	0.9072	0.09278	0.074
Mof_H 	H 	0.4173	0.8925	0.072	-0.01
Mof_C 	C 	0.3737	0.9189	0.10628	-0.116
Mof_H 	H 	0.3451	0.9119	0.0951	0.08
Mof_C 	C 	0.2003	0.936	0.13445	0.05
Mof_C 	C 	0.1994	0.9057	0.105	-0.117
Mof_H 	H 	0.2281	0.8949	0.0943	0.078
Mof_C 	C 	0.1552	0.8912	0.09134	0.07
Mof_H 	H 	0.1546	0.8704	0.0711	-0.016
Mof_C 	C 	0.1157	0.9359	0.13388	0.062
Mof_H 	H 	0.0865	0.947	0.1441	-0.009
Mof_C 	C 	0.157	0.9517	0.14874	-0.116
Mof_H 	H 	0.1564	0.9734	0.1689	0.079
Mof_C 	C 	0.0719	0.8709	0.02159	0.075
Mof_H 	H 	0.0774	0.8044	0.0239	-0.009
Mof_C 	C 	0.0824	0.9128	0.99459	-0.124
Mof_H 	H 	0.0946	0.8758	0.9785	0.082
Mof_C 	C 	0.075	0.0098	0.99124	0.062
Mof_C 	C 	0.0552	0.0593	0.01468	-0.129
Mof_H 	H 	0.0481	0.1253	0.0127	0.094
Mof_C 	C 	0.0455	0.0124	0.04122	0.075
Mof_H 	H 	0.0323	0.0473	0.0575	-0.017
Mof_C 	C 	0.0896	0.0604	0.96339	0.093
Mof_C 	C 	0.1282	0.0608	0.91972	0.105
Mof_C 	C 	0.0948	0.1957	0.93686	0.087
Mof_C 	C 	0.046	0.4398	0.94913	0.083
Mof_H 	H 	0.0314	0.475	0.9648	-0.01
Mof_C 	C 	0.0608	0.3483	0.95508	-0.134
Mof_H 	H 	0.0571	0.3217	0.9745	0.094
Mof_C 	C 	0.0812	0.2957	0.93222	0.058
Mof_C 	C 	0.0882	0.3409	0.9051	-0.133
Mof_H 	H 	0.1037	0.3081	0.8892	0.098
Mof_C 	C 	0.0731	0.4324	0.90115	0.079
Mof_H 	H 	0.0784	0.4622	0.8824	-0.007
Mof_C 	C 	0.1533	0.0067	0.89526	0.073
Mof_C 	C 	0.1538	0.91	0.89558	-0.123
Mof_H 	H 	0.1385	0.8758	0.9112	0.085
Mof_C 	C 	0.1769	0.8615	0.8727	0.075
Mof_H 	H 	0.1765	0.7936	0.8728	-0.008
Mof_C 	C 	0.1984	0.9991	0.8505	0.092
Mof_H 	H 	0.2145	0.0317	0.8348	-0.019
Mof_C 	C 	0.1748	0.0528	0.87194	-0.136
Mof_H 	H 	0.1735	0.1205	0.8704	0.089
Mof_I 	I 	0.80152	0.1641	0.68441	-0.372
Mof_I 	I 	0.67404	0.32782	0.66543	-0.374
Mof_I 	I 	0.57433	0.80643	0.12518	-0.372
Mof_I 	I 	0.50449	0.80448	0.03638	-0.393
Mof_I 	I 	0.55804	0.81918	0.91657	-0.382
Mof_I 	I 	0.48538	0.55536	0.88359	-0.366
Mof_Zn	Zn	0.76185	0.32645	0.67919	1.165
Mof_Zn	Zn	0.52276	0.88529	0.08628	1.164
Mof_Zn	Zn	0.54998	0.6382	0.91311	1.164
Mof_N 	N 	0.7709	0.3997	0.7184	-0.273
Mof_N 	N 	0.6141	0.5949	0.8946	-0.272
Mof_N 	N 	0.9586	0.5849	0.89289	-0.271
Mof_N 	N 	0.74257	0.5243	0.82067	-0.142
Mof_N 	N 	0.826	0.5196	0.81911	-0.142
Mof_N 	N 	0.78645	0.5624	0.86392	-0.14
Mof_N 	N 	0.55419	0.5805	0.95542	-0.276
Mof_N 	N 	0.551	0.018	0.07739	-0.276
Mof_N 	N 	0.6996	0.5939	0.14918	-0.281
Mof_N 	N 	0.5782	0.3472	0.03897	-0.143
Mof_N 	N 	0.6217	0.3468	0.08458	-0.133
Mof_N 	N 	0.6133	0.4904	0.05721	-0.139
Mof_C 	C 	0.8129	0.3978	0.73279	0.065
Mof_H 	H 	0.8394	0.3693	0.7231	-0.01
Mof_C 	C 	0.819	0.4354	0.76097	-0.116
Mof_H 	H 	0.8494	0.4344	0.7703	0.079
Mof_C 	C 	0.7799	0.4748	0.77542	0.051
Mof_C 	C 	0.7376	0.4778	0.76095	-0.112
Mof_H 	H 	0.7106	0.5052	0.7704	0.081
Mof_C 	C 	0.7338	0.4407	0.73215	0.059
Mof_H 	H 	0.7041	0.4444	0.722	0.002
Mof_C 	C 	0.7842	0.5097	0.80707	0.109
Mof_C 	C 	0.8257	0.5465	0.84794	0.102
Mof_C 	C 	0.7457	0.5491	0.84945	0.104
Mof_C 	C 	0.8719	0.5585	0.86323	0.056
Mof_C 	C 	0.9145	0.5483	0.84859	-0.12
Mof_H 	H 	0.9152	0.5319	0.828	0.082
Mof_C 	C 	0.9565	0.5622	0.86408	0.077
Mof_H 	H 	0.9856	0.5551	0.8535	-0.011
Mof_C 	C 	0.9168	0.5928	0.90722	0.074
Mof_H 	H 	0.9173	0.6075	0.928	-0.01
Mof_C 	C 	0.8737	0.5811	0.89372	-0.116
Mof_H 	H 	0.8451	0.5881	0.9049	0.08
Mof_C 	C 	0.7003	0.564	0.86555	0.05
Mof_C 	C 	0.6994	0.5943	0.895	-0.117
Mof_H 	H 	0.7281	0.6051	0.9057	0.078
Mof_C 	C 	0.6552	0.6088	0.90866	0.07
Mof_H 	H 	0.6546	0.6296	0.9289	-0.016
Mof_C 	C 	0.6157	0.5641	0.86612	0.062
Mof_H 	H 	0.5865	0.553	0.8559	-0.009
Mof_C 	C 	0.657	0.5483	0.85126	-0.116
Mof_H 	H 	0.6564	0.5266	0.8311	0.079
Mof_C 	C 	0.5719	0.6291	0.97841	0.075
Mof_H 	H 	0.5774	0.6956	0.9761	-0.009
Mof_C 	C 	0.5824	0.5872	0.00541	-0.123
Mof_H 	H 	0.5946	0.6242	0.0215	0.082
Mof_C 	C 	0.575	0.4902	0.00876	0.06
Mof_C 	C 	0.5552	0.4407	0.98532	-0.128
Mof_H 	H 	0.5481	0.3747	0.9873	0.094
Mof_C 	C 	0.5455	0.4876	0.95878	0.074
Mof_H 	H 	0.5323	0.4527	0.9425	-0.017
Mof_C 	C 	0.5896	0.4396	0.03661	0.093
Mof_C 	C 	0.6282	0.4392	0.08028	0.105
Mof_C 	C 	0.5948	0.3043	0.06314	0.087
Mof_C 	C 	0.546	0.0602	0.05087	0.083
Mof_H 	H 	0.5314	0.025	0.0352	-0.01
Mof_C 	C 	0.5608	0.1517	0.04492	-0.134
Mof_H 	H 	0.5571	0.1783	0.0255	0.094
Mof_C 	C 	0.5812	0.2043	0.06778	0.058
Mof_C 	C 	0.5882	0.1591	0.0949	-0.133
Mof_H 	H 	0.6037	0.1919	0.1108	0.098
Mof_C 	C 	0.5731	0.0676	0.09885	0.079
Mof_H 	H 	0.5784	0.0378	0.1176	-0.007
Mof_C 	C 	0.6533	0.4933	0.10474	0.073
Mof_C 	C 	0.6538	0.59	0.10442	-0.122
Mof_H 	H 	0.6385	0.6242	0.0888	0.085
Mof_C 	C 	0.6769	0.6385	0.1273	0.074
Mof_H 	H 	0.6765	0.7064	0.1272	-0.008
Mof_C 	C 	0.6984	0.5009	0.1495	0.092
Mof_H 	H 	0.7145	0.4683	0.1652	-0.019
Mof_C 	C 	0.6748	0.4472	0.12806	-0.136
Mof_H 	H 	0.6735	0.3795	0.1296	0.089
Mof_I 	I 	0.69848	0.8359	0.18441	-0.372
Mof_I 	I 	0.82596	0.67218	0.16543	-0.374
Mof_I 	I 	0.92567	0.19357	0.62518	-0.373
Mof_I 	I 	0.99551	0.19552	0.53638	-0.394
Mof_I 	I 	0.94196	0.18082	0.41657	-0.382
Mof_I 	I 	0.01462	0.44464	0.38359	-0.366
Mof_Zn	Zn	0.73815	0.67355	0.17919	1.165
Mof_Zn	Zn	0.97724	0.11471	0.58628	1.164
Mof_Zn	Zn	0.95002	0.3618	0.41311	1.164
Mof_N 	N 	0.7291	0.6003	0.2184	-0.273
Mof_N 	N 	0.8859	0.4051	0.3946	-0.272
Mof_N 	N 	0.5414	0.4151	0.39289	-0.271
Mof_N 	N 	0.75743	0.4757	0.32067	-0.142
Mof_N 	N 	0.674	0.4804	0.31911	-0.142
Mof_N 	N 	0.71355	0.4376	0.36392	-0.14
Mof_N 	N 	0.94581	0.4195	0.45542	-0.276
Mof_N 	N 	0.949	0.982	0.57739	-0.276
Mof_N 	N 	0.8004	0.4061	0.64918	-0.281
Mof_N 	N 	0.9218	0.6528	0.53897	-0.143
Mof_N 	N 	0.8783	0.6532	0.58458	-0.133
Mof_N 	N 	0.8867	0.5096	0.55721	-0.139
Mof_C 	C 	0.6871	0.6022	0.23279	0.065
Mof_H 	H 	0.6606	0.6307	0.2231	-0.01
Mof_C 	C 	0.681	0.5646	0.26097	-0.116
Mof_H 	H 	0.6506	0.5656	0.2703	0.079
Mof_C 	C 	0.7201	0.5252	0.27542	0.051
Mof_C 	C 	0.7624	0.5222	0.26095	-0.112
Mof_H 	H 	0.7894	0.4948	0.2704	0.081
Mof_C 	C 	0.7662	0.5593	0.23215	0.059
Mof_H 	H 	0.7959	0.5556	0.222	0.002
Mof_C 	C 	0.7158	0.4903	0.30707	0.109
Mof_C 	C 	0.6743	0.4535	0.34794	0.102
Mof_C 	C 	0.7543	0.4509	0.34945	0.104
Mof_C 	C 	0.6281	0.4415	0.36323	0.056
Mof_C 	C 	0.5855	0.4517	0.34859	-0.12
Mof_H 	H 	0.5848	0.4681	0.328	0.082
Mof_C 	C 	0.5435	0.4378	0.36408	0.077
Mof_H 	H 	0.5144	0.4449	0.3535	-0.011
Mof_C 	C 	0.5832	0.4072	0.40722	0.074
Mof_H 	H 	0.5827	0.3925	0.428	-0.01
Mof_C 	C 	0.6263	0.4189	0.39372	-0.116
Mof_H 	H 	0.6549	0.4119	0.4049	0.08
Mof_C 	C 	0.7997	0.436	0.36555	0.05
Mof_C 	C 	0.8006	0.4057	0.395	-0.117
Mof_H 	H 	0.7719	0.3949	0.4057	0.078
Mof_C 	C 	0.8448	0.3912	0.40866	0.07
Mof_H 	H 	0.8454	0.3704	0.4289	-0.016
Mof_C 	C 	0.8843	0.4359	0.36612	0.062
Mof_H 	H 	0.9135	0.447	0.3559	-0.009
Mof_C 	C 	0.843	0.4517	0.35126	-0.116
Mof_H 	H 	0.8436	0.4734	0.3311	0.079
Mof_C 	C 	0.9281	0.3709	0.47841	0.075
Mof_H 	H 	0.9226	0.3044	0.4761	-0.009
Mof_C 	C 	0.9176	0.4128	0.50541	-0.123
Mof_H 	H 	0.9054	0.3758	0.5215	0.082
Mof_C 	C 	0.925	0.5098	0.50876	0.06
Mof_C 	C 	0.9448	0.5593	0.48532	-0.128
Mof_H 	H 	0.9519	0.6253	0.4873	0.094
Mof_C 	C 	0.9545	0.5124	0.45878	0.074
Mof_H 	H 	0.9677	0.5473	0.4425	-0.017
Mof_C 	C 	0.9104	0.5604	0.53661	0.093
Mof_C 	C 	0.8718	0.5608	0.58028	0.105
Mof_C 	C 	0.9052	0.6957	0.56314	0.087
Mof_C 	C 	0.954	0.9398	0.55087	0.083
Mof_H 	H 	0.9686	0.975	0.5352	-0.01
Mof_C 	C 	0.9392	0.8483	0.54492	-0.134
Mof_H 	H 	0.9429	0.8217	0.5255	0.094
Mof_C 	C 	0.9188	0.7957	0.56778	0.058
Mof_C 	C 	0.9118	0.8409	0.5949	-0.132
Mof_H 	H 	0.8963	0.8081	0.6108	0.098
Mof_C 	C 	0.9269	0.9324	0.59885	0.079
Mof_H 	H 	0.9216	0.9622	0.6176	-0.007
Mof_C 	C 	0.8467	0.5067	0.60474	0.073
Mof_C 	C 	0.8462	0.41	0.60442	-0.122
Mof_H 	H 	0.8615	0.3758	0.5888	0.084
Mof_C 	C 	0.8231	0.3615	0.6273	0.074
Mof_H 	H 	0.8235	0.2936	0.6272	-0.008
Mof_C 	C 	0.8016	0.4991	0.6495	0.092
Mof_H 	H 	0.7855	0.5317	0.6652	-0.019
Mof_C 	C 	0.8252	0.5528	0.62806	-0.136
Mof_H 	H 	0.8265	0.6205	0.6296	0.089
Mof_I 	I 	0.80152	0.3359	0.18441	-0.372
Mof_I 	I 	0.67404	0.17218	0.16543	-0.374
Mof_I 	I 	0.57433	0.69357	0.62518	-0.372
Mof_I 	I 	0.50449	0.69552	0.53638	-0.393
Mof_I 	I 	0.55804	0.68082	0.41657	-0.382
Mof_I 	I 	0.48538	0.94464	0.38359	-0.367
Mof_Zn	Zn	0.76185	0.17355	0.17919	1.165
Mof_Zn	Zn	0.52276	0.61471	0.58628	1.164
Mof_Zn	Zn	0.54998	0.8618	0.41311	1.164
Mof_N 	N 	0.7709	0.1003	0.2184	-0.273
Mof_N 	N 	0.6141	0.9051	0.3946	-0.272
Mof_N 	N 	0.9586	0.9151	0.39289	-0.271
Mof_N 	N 	0.74257	0.9757	0.32067	-0.142
Mof_N 	N 	0.826	0.9804	0.31911	-0.142
Mof_N 	N 	0.78645	0.9376	0.36392	-0.14
Mof_N 	N 	0.55419	0.9195	0.45542	-0.276
Mof_N 	N 	0.551	0.482	0.57739	-0.276
Mof_N 	N 	0.6996	0.9061	0.64918	-0.281
Mof_N 	N 	0.5782	0.1528	0.53897	-0.143
Mof_N 	N 	0.6217	0.1532	0.58458	-0.133
Mof_N 	N 	0.6133	0.0096	0.55721	-0.139
Mof_C 	C 	0.8129	0.1022	0.23279	0.065
Mof_H 	H 	0.8394	0.1307	0.2231	-0.01
Mof_C 	C 	0.819	0.0646	0.26097	-0.116
Mof_H 	H 	0.8494	0.0656	0.2703	0.079
Mof_C 	C 	0.7799	0.0252	0.27542	0.051
Mof_C 	C 	0.7376	0.0222	0.26095	-0.112
Mof_H 	H 	0.7106	0.9948	0.2704	0.08
Mof_C 	C 	0.7338	0.0593	0.23215	0.059
Mof_H 	H 	0.7041	0.0556	0.222	0.002
Mof_C 	C 	0.7842	0.9903	0.30707	0.109
Mof_C 	C 	0.8257	0.9535	0.34794	0.102
Mof_C 	C 	0.7457	0.9509	0.34945	0.104
Mof_C 	C 	0.8719	0.9415	0.36323	0.056
Mof_C 	C 	0.9145	0.9517	0.34859	-0.12
Mof_H 	H 	0.9152	0.9681	0.328	0.082
Mof_C 	C 	0.9565	0.9378	0.36408	0.077
Mof_H 	H 	0.9856	0.9449	0.3535	-0.011
Mof_C 	C 	0.9168	0.9072	0.40722	0.074
Mof_H 	H 	0.9173	0.8925	0.428	-0.01
Mof_C 	C 	0.8737	0.9189	0.39372	-0.116
Mof_H 	H 	0.8451	0.9119	0.4049	0.08
Mof_C 	C 	0.7003	0.936	0.36555	0.05
Mof_C 	C 	0.6994	0.9057	0.395	-0.117
Mof_H 	H 	0.7281	0.8949	0.4057	0.078
Mof_C 	C 	0.6552	0.8912	0.40866	0.07
Mof_H 	H 	0.6546	0.8704	0.4289	-0.016
Mof_C 	C 	0.6157	0.9359	0.36612	0.062
Mof_H 	H 	0.5865	0.947	0.3559	-0.009
Mof_C 	C 	0.657	0.9517	0.35126	-0.116
Mof_H 	H 	0.6564	0.9734	0.3311	0.079
Mof_C 	C 	0.5719	0.8709	0.47841	0.075
Mof_H 	H 	0.5774	0.8044	0.4761	-0.009
Mof_C 	C 	0.5824	0.9128	0.50541	-0.122
Mof_H 	H 	0.5946	0.8758	0.5215	0.082
Mof_C 	C 	0.575	0.0098	0.50876	0.06
Mof_C 	C 	0.5552	0.0593	0.48532	-0.128
Mof_H 	H 	0.5481	0.1253	0.4873	0.094
Mof_C 	C 	0.5455	0.0124	0.45878	0.074
Mof_H 	H 	0.5323	0.0473	0.4425	-0.017
Mof_C 	C 	0.5896	0.0604	0.53661	0.093
Mof_C 	C 	0.6282	0.0608	0.58028	0.105
Mof_C 	C 	0.5948	0.1957	0.56314	0.087
Mof_C 	C 	0.546	0.4398	0.55087	0.083
Mof_H 	H 	0.5314	0.475	0.5352	-0.01
Mof_C 	C 	0.5608	0.3483	0.54492	-0.134
Mof_H 	H 	0.5571	0.3217	0.5255	0.094
Mof_C 	C 	0.5812	0.2957	0.56778	0.058
Mof_C 	C 	0.5882	0.3409	0.5949	-0.133
Mof_H 	H 	0.6037	0.3081	0.6108	0.098
Mof_C 	C 	0.5731	0.4324	0.59885	0.079
Mof_H 	H 	0.5784	0.4622	0.6176	-0.007
Mof_C 	C 	0.6533	0.0067	0.60474	0.073
Mof_C 	C 	0.6538	0.91	0.60442	-0.122
Mof_H 	H 	0.6385	0.8758	0.5888	0.084
Mof_C 	C 	0.6769	0.8615	0.6273	0.074
Mof_H 	H 	0.6765	0.7936	0.6272	-0.008
Mof_C 	C 	0.6984	0.9991	0.6495	0.095
Mof_H 	H 	0.7145	0.0317	0.6652	-0.02
Mof_C 	C 	0.6748	0.0528	0.62806	-0.137
Mof_H 	H 	0.6735	0.1205	0.6296	0.089
Mof_I 	I 	0.69848	0.6641	0.68441	-0.372
Mof_I 	I 	0.82596	0.82782	0.66543	-0.374
Mof_I 	I 	0.92567	0.30643	0.12518	-0.372
Mof_I 	I 	0.99551	0.30448	0.03638	-0.393
Mof_I 	I 	0.94196	0.31918	0.91657	-0.382
Mof_I 	I 	0.01462	0.05536	0.88359	-0.366
Mof_Zn	Zn	0.73815	0.82645	0.67919	1.165
Mof_Zn	Zn	0.97724	0.38529	0.08628	1.164
Mof_Zn	Zn	0.95002	0.1382	0.91311	1.164
Mof_N 	N 	0.7291	0.8997	0.7184	-0.272
Mof_N 	N 	0.8859	0.0949	0.8946	-0.272
Mof_N 	N 	0.5414	0.0849	0.89289	-0.271
Mof_N 	N 	0.75743	0.0243	0.82067	-0.142
Mof_N 	N 	0.674	0.0196	0.81911	-0.142
Mof_N 	N 	0.71355	0.0624	0.86392	-0.14
Mof_N 	N 	0.94581	0.0805	0.95542	-0.277
Mof_N 	N 	0.949	0.518	0.07739	-0.276
Mof_N 	N 	0.8004	0.0939	0.14918	-0.281
Mof_N 	N 	0.9218	0.8472	0.03897	-0.143
Mof_N 	N 	0.8783	0.8468	0.08458	-0.133
Mof_N 	N 	0.8867	0.9904	0.05721	-0.139
Mof_C 	C 	0.6871	0.8978	0.73279	0.065
Mof_H 	H 	0.6606	0.8693	0.7231	-0.01
Mof_C 	C 	0.681	0.9354	0.76097	-0.116
Mof_H 	H 	0.6506	0.9344	0.7703	0.08
Mof_C 	C 	0.7201	0.9748	0.77542	0.051
Mof_C 	C 	0.7624	0.9778	0.76095	-0.11
Mof_H 	H 	0.7894	0.0052	0.7704	0.079
Mof_C 	C 	0.7662	0.9407	0.73215	0.058
Mof_H 	H 	0.7959	0.9444	0.722	0.003
Mof_C 	C 	0.7158	0.0097	0.80707	0.108
Mof_C 	C 	0.6743	0.0465	0.84794	0.102
Mof_C 	C 	0.7543	0.0491	0.84945	0.104
Mof_C 	C 	0.6281	0.0585	0.86323	0.056
Mof_C 	C 	0.5855	0.0483	0.84859	-0.12
Mof_H 	H 	0.5848	0.0319	0.828	0.082
Mof_C 	C 	0.5435	0.0622	0.86408	0.077
Mof_H 	H 	0.5144	0.0551	0.8535	-0.011
Mof_C 	C 	0.5832	0.0928	0.90722	0.074
Mof_H 	H 	0.5827	0.1075	0.928	-0.01
Mof_C 	C 	0.6263	0.0811	0.89372	-0.116
Mof_H 	H 	0.6549	0.0881	0.9049	0.08
Mof_C 	C 	0.7997	0.064	0.86555	0.05
Mof_C 	C 	0.8006	0.0943	0.895	-0.117
Mof_H 	H 	0.7719	0.1051	0.9057	0.078
Mof_C 	C 	0.8448	0.1088	0.90866	0.07
Mof_H 	H 	0.8454	0.1296	0.9289	-0.016
Mof_C 	C 	0.8843	0.0641	0.86612	0.062
Mof_H 	H 	0.9135	0.053	0.8559	-0.009
Mof_C 	C 	0.843	0.0483	0.85126	-0.116
Mof_H 	H 	0.8436	0.0266	0.8311	0.079
Mof_C 	C 	0.9281	0.1291	0.97841	0.075
Mof_H 	H 	0.9226	0.1956	0.9761	-0.009
Mof_C 	C 	0.9176	0.0872	0.00541	-0.124
Mof_H 	H 	0.9054	0.1242	0.0215	0.082
Mof_C 	C 	0.925	0.9902	0.00876	0.062
Mof_C 	C 	0.9448	0.9407	0.98532	-0.129
Mof_H 	H 	0.9519	0.8747	0.9873	0.094
Mof_C 	C 	0.9545	0.9876	0.95878	0.075
Mof_H 	H 	0.9677	0.9527	0.9425	-0.017
Mof_C 	C 	0.9104	0.9396	0.03661	0.093
Mof_C 	C 	0.8718	0.9392	0.08028	0.105
Mof_C 	C 	0.9052	0.8043	0.06314	0.087
Mof_C 	C 	0.954	0.5602	0.05087	0.083
Mof_H 	H 	0.9686	0.525	0.0352	-0.01
Mof_C 	C 	0.9392	0.6517	0.04492	-0.134
Mof_H 	H 	0.9429	0.6783	0.0255	0.094
Mof_C 	C 	0.9188	0.7043	0.06778	0.058
Mof_C 	C 	0.9118	0.6591	0.0949	-0.133
Mof_H 	H 	0.8963	0.6919	0.1108	0.098
Mof_C 	C 	0.9269	0.5676	0.09885	0.079
Mof_H 	H 	0.9216	0.5378	0.1176	-0.007
Mof_C 	C 	0.8467	0.9933	0.10474	0.073
Mof_C 	C 	0.8462	0.09	0.10442	-0.123
Mof_H 	H 	0.8615	0.1242	0.0888	0.085
Mof_C 	C 	0.8231	0.1385	0.1273	0.075
Mof_H 	H 	0.8235	0.2064	0.1272	-0.008
Mof_C 	C 	0.8016	0.0009	0.1495	0.092
Mof_H 	H 	0.7855	0.9683	0.1652	-0.019
Mof_C 	C 	0.8252	0.9472	0.12806	-0.136
Mof_H 	H 	0.8265	0.8795	0.1296	0.089
Mof_I 	I 	0.19848	0.8359	0.31559	-0.372
Mof_I 	I 	0.32596	0.67218	0.33457	-0.374
Mof_I 	I 	0.42567	0.19357	0.87482	-0.372
Mof_I 	I 	0.49551	0.19552	0.96362	-0.393
Mof_I 	I 	0.44196	0.18082	0.08343	-0.382
Mof_I 	I 	0.51462	0.44464	0.11641	-0.366
Mof_Zn	Zn	0.23815	0.67355	0.32081	1.165
Mof_Zn	Zn	0.47724	0.11471	0.91372	1.164
Mof_Zn	Zn	0.45002	0.3618	0.08689	1.164
Mof_N 	N 	0.2291	0.6003	0.2816	-0.273
Mof_N 	N 	0.3859	0.4051	0.1054	-0.272
Mof_N 	N 	0.0414	0.4151	0.10711	-0.271
Mof_N 	N 	0.25743	0.4757	0.17933	-0.142
Mof_N 	N 	0.174	0.4804	0.18089	-0.142
Mof_N 	N 	0.21355	0.4376	0.13608	-0.14
Mof_N 	N 	0.44581	0.4195	0.04458	-0.276
Mof_N 	N 	0.449	0.982	0.92261	-0.276
Mof_N 	N 	0.3004	0.4061	0.85082	-0.281
Mof_N 	N 	0.4218	0.6528	0.96103	-0.143
Mof_N 	N 	0.3783	0.6532	0.91542	-0.133
Mof_N 	N 	0.3867	0.5096	0.94279	-0.139
Mof_C 	C 	0.1871	0.6022	0.26721	0.065
Mof_H 	H 	0.1606	0.6307	0.2769	-0.01
Mof_C 	C 	0.181	0.5646	0.23903	-0.116
Mof_H 	H 	0.1506	0.5656	0.2297	0.079
Mof_C 	C 	0.2201	0.5252	0.22458	0.051
Mof_C 	C 	0.2624	0.5222	0.23905	-0.112
Mof_H 	H 	0.2894	0.4948	0.2296	0.081
Mof_C 	C 	0.2662	0.5593	0.26785	0.059
Mof_H 	H 	0.2959	0.5556	0.278	0.002
Mof_C 	C 	0.2158	0.4903	0.19293	0.109
Mof_C 	C 	0.1743	0.4535	0.15206	0.102
Mof_C 	C 	0.2543	0.4509	0.15055	0.104
Mof_C 	C 	0.1281	0.4415	0.13677	0.056
Mof_C 	C 	0.0855	0.4517	0.15141	-0.12
Mof_H 	H 	0.0848	0.4681	0.172	0.082
Mof_C 	C 	0.0435	0.4378	0.13592	0.077
Mof_H 	H 	0.0144	0.4449	0.1465	-0.011
Mof_C 	C 	0.0832	0.4072	0.09278	0.074
Mof_H 	H 	0.0827	0.3925	0.072	-0.01
Mof_C 	C 	0.1263	0.4189	0.10628	-0.116
Mof_H 	H 	0.1549	0.4119	0.0951	0.08
Mof_C 	C 	0.2997	0.436	0.13445	0.05
Mof_C 	C 	0.3006	0.4057	0.105	-0.117
Mof_H 	H 	0.2719	0.3949	0.0943	0.078
Mof_C 	C 	0.3448	0.3912	0.09134	0.07
Mof_H 	H 	0.3454	0.3704	0.0711	-0.016
Mof_C 	C 	0.3843	0.4359	0.13388	0.062
Mof_H 	H 	0.4135	0.447	0.1441	-0.009
Mof_C 	C 	0.343	0.4517	0.14874	-0.116
Mof_H 	H 	0.3436	0.4734	0.1689	0.079
Mof_C 	C 	0.4281	0.3709	0.02159	0.075
Mof_H 	H 	0.4226	0.3044	0.0239	-0.009
Mof_C 	C 	0.4176	0.4128	0.99459	-0.123
Mof_H 	H 	0.4054	0.3758	0.9785	0.082
Mof_C 	C 	0.425	0.5098	0.99124	0.06
Mof_C 	C 	0.4448	0.5593	0.01468	-0.128
Mof_H 	H 	0.4519	0.6253	0.0127	0.094
Mof_C 	C 	0.4545	0.5124	0.04122	0.074
Mof_H 	H 	0.4677	0.5473	0.0575	-0.017
Mof_C 	C 	0.4104	0.5604	0.96339	0.093
Mof_C 	C 	0.3718	0.5608	0.91972	0.105
Mof_C 	C 	0.4052	0.6957	0.93686	0.087
Mof_C 	C 	0.454	0.9398	0.94913	0.083
Mof_H 	H 	0.4686	0.975	0.9648	-0.01
Mof_C 	C 	0.4392	0.8483	0.95508	-0.134
Mof_H 	H 	0.4429	0.8217	0.9745	0.094
Mof_C 	C 	0.4188	0.7957	0.93222	0.058
Mof_C 	C 	0.4118	0.8409	0.9051	-0.133
Mof_H 	H 	0.3963	0.8081	0.8892	0.098
Mof_C 	C 	0.4269	0.9324	0.90115	0.079
Mof_H 	H 	0.4216	0.9622	0.8824	-0.007
Mof_C 	C 	0.3467	0.5067	0.89526	0.073
Mof_C 	C 	0.3462	0.41	0.89558	-0.122
Mof_H 	H 	0.3615	0.3758	0.9112	0.085
Mof_C 	C 	0.3231	0.3615	0.8727	0.074
Mof_H 	H 	0.3235	0.2936	0.8728	-0.008
Mof_C 	C 	0.3016	0.4991	0.8505	0.092
Mof_H 	H 	0.2855	0.5317	0.8348	-0.019
Mof_C 	C 	0.3252	0.5528	0.87194	-0.136
Mof_H 	H 	0.3265	0.6205	0.8704	0.089
Mof_I 	I 	0.30152	0.1641	0.81559	-0.372
Mof_I 	I 	0.17404	0.32782	0.83457	-0.374
Mof_I 	I 	0.07433	0.80643	0.37482	-0.373
Mof_I 	I 	0.00449	0.80448	0.46362	-0.394
Mof_I 	I 	0.05804	0.81918	0.58343	-0.382
Mof_I 	I 	0.98538	0.55536	0.61641	-0.366
Mof_Zn	Zn	0.26185	0.32645	0.82081	1.165
Mof_Zn	Zn	0.02276	0.88529	0.41372	1.164
Mof_Zn	Zn	0.04998	0.6382	0.58689	1.164
Mof_N 	N 	0.2709	0.3997	0.7816	-0.273
Mof_N 	N 	0.1141	0.5949	0.6054	-0.272
Mof_N 	N 	0.4586	0.5849	0.60711	-0.271
Mof_N 	N 	0.24257	0.5243	0.67933	-0.142
Mof_N 	N 	0.326	0.5196	0.68089	-0.142
Mof_N 	N 	0.28645	0.5624	0.63608	-0.14
Mof_N 	N 	0.05419	0.5805	0.54458	-0.276
Mof_N 	N 	0.051	0.018	0.42261	-0.276
Mof_N 	N 	0.1996	0.5939	0.35082	-0.281
Mof_N 	N 	0.0782	0.3472	0.46103	-0.143
Mof_N 	N 	0.1217	0.3468	0.41542	-0.133
Mof_N 	N 	0.1133	0.4904	0.44279	-0.139
Mof_C 	C 	0.3129	0.3978	0.76721	0.065
Mof_H 	H 	0.3394	0.3693	0.7769	-0.01
Mof_C 	C 	0.319	0.4354	0.73903	-0.116
Mof_H 	H 	0.3494	0.4344	0.7297	0.079
Mof_C 	C 	0.2799	0.4748	0.72458	0.051
Mof_C 	C 	0.2376	0.4778	0.73905	-0.112
Mof_H 	H 	0.2106	0.5052	0.7296	0.081
Mof_C 	C 	0.2338	0.4407	0.76785	0.059
Mof_H 	H 	0.2041	0.4444	0.778	0.002
Mof_C 	C 	0.2842	0.5097	0.69293	0.109
Mof_C 	C 	0.3257	0.5465	0.65206	0.102
Mof_C 	C 	0.2457	0.5491	0.65055	0.104
Mof_C 	C 	0.3719	0.5585	0.63677	0.056
Mof_C 	C 	0.4145	0.5483	0.65141	-0.12
Mof_H 	H 	0.4152	0.5319	0.672	0.082
Mof_C 	C 	0.4565	0.5622	0.63592	0.077
Mof_H 	H 	0.4856	0.5551	0.6465	-0.011
Mof_C 	C 	0.4168	0.5928	0.59278	0.074
Mof_H 	H 	0.4173	0.6075	0.572	-0.01
Mof_C 	C 	0.3737	0.5811	0.60628	-0.116
Mof_H 	H 	0.3451	0.5881	0.5951	0.08
Mof_C 	C 	0.2003	0.564	0.63445	0.05
Mof_C 	C 	0.1994	0.5943	0.605	-0.117
Mof_H 	H 	0.2281	0.6051	0.5943	0.078
Mof_C 	C 	0.1552	0.6088	0.59134	0.07
Mof_H 	H 	0.1546	0.6296	0.5711	-0.016
Mof_C 	C 	0.1157	0.5641	0.63388	0.062
Mof_H 	H 	0.0865	0.553	0.6441	-0.009
Mof_C 	C 	0.157	0.5483	0.64874	-0.116
Mof_H 	H 	0.1564	0.5266	0.6689	0.079
Mof_C 	C 	0.0719	0.6291	0.52159	0.075
Mof_H 	H 	0.0774	0.6956	0.5239	-0.009
Mof_C 	C 	0.0824	0.5872	0.49459	-0.123
Mof_H 	H 	0.0946	0.6242	0.4785	0.082
Mof_C 	C 	0.075	0.4902	0.49124	0.06
Mof_C 	C 	0.0552	0.4407	0.51468	-0.128
Mof_H 	H 	0.0481	0.3747	0.5127	0.094
Mof_C 	C 	0.0455	0.4876	0.54122	0.074
Mof_H 	H 	0.0323	0.4527	0.5575	-0.017
Mof_C 	C 	0.0896	0.4396	0.46339	0.093
Mof_C 	C 	0.1282	0.4392	0.41972	0.105
Mof_C 	C 	0.0948	0.3043	0.43686	0.087
Mof_C 	C 	0.046	0.0602	0.44913	0.083
Mof_H 	H 	0.0314	0.025	0.4648	-0.01
Mof_C 	C 	0.0608	0.1517	0.45508	-0.134
Mof_H 	H 	0.0571	0.1783	0.4745	0.094
Mof_C 	C 	0.0812	0.2043	0.43222	0.058
Mof_C 	C 	0.0882	0.1591	0.4051	-0.132
Mof_H 	H 	0.1037	0.1919	0.3892	0.098
Mof_C 	C 	0.0731	0.0676	0.40115	0.079
Mof_H 	H 	0.0784	0.0378	0.3824	-0.007
Mof_C 	C 	0.1533	0.4933	0.39526	0.073
Mof_C 	C 	0.1538	0.59	0.39558	-0.122
Mof_H 	H 	0.1385	0.6242	0.4112	0.084
Mof_C 	C 	0.1769	0.6385	0.3727	0.074
Mof_H 	H 	0.1765	0.7064	0.3728	-0.008
Mof_C 	C 	0.1984	0.5009	0.3505	0.092
Mof_H 	H 	0.2145	0.4683	0.3348	-0.019
Mof_C 	C 	0.1748	0.4472	0.37194	-0.136
Mof_H 	H 	0.1735	0.3795	0.3704	0.089
_end
