data_functionalizedCrystal
_audit_creation_method	'EQeq! by Chris Wilmer'
_symmetry_space_group_name_H-M	'P1'
_symmetry_Int_Tables_number	1
_symmetry_cell_setting	triclinic
loop_
_symmetry_equiv_pos_as_xyz
  x,y,z
_cell_length_a	10.2416
_cell_length_b	24.956
_cell_length_c	11.4453
_cell_angle_alpha	90
_cell_angle_beta	91.106
_cell_angle_gamma	90
loop_
_atom_site_label
_atom_site_type_symbol
_atom_site_fract_x
_atom_site_fract_y
_atom_site_fract_z
_atom_site_charge
Mof_Co	Co	0.54913	0.86145	0.45244	1.162
Mof_Co	Co	0.04984	0.94129	0.43574	1.165
Mof_O 	O 	0.7364	0.8937	0.4475	-0.433
Mof_O 	O 	0.2362	0.9088	0.441	-0.436
Mof_N 	N 	0.5379	0.853	0.2625	-0.226
Mof_N 	N 	0.5468	0.8574	0.6417	-0.223
Mof_O 	O 	0.8605	0.9666	0.4313	-0.425
Mof_N 	N 	0.05	0.9448	0.6226	-0.222
Mof_O 	O 	0.3607	0.8357	0.4516	-0.434
Mof_C 	C 	0.2525	0.8595	0.4438	0.356
Mof_C 	C 	0.9441	0.9609	0.6846	0.056
Mof_H 	H 	0.8673	0.9711	0.6423	0.006
Mof_C 	C 	0.4304	0.8551	0.2007	0.082
Mof_H 	H 	0.3499	0.8577	0.2401	-0.003
Mof_N 	N 	0.0489	0.9469	0.246	-0.229
Mof_C 	C 	0.1595	0.9349	0.6958	0.055
Mof_H 	H 	0.2382	0.9252	0.6585	0.006
Mof_C 	C 	0.6503	0.8709	0.7137	0.063
Mof_H 	H 	0.7272	0.8832	0.677	0.002
Mof_O 	O 	0.0176	0.8548	0.4223	-0.43
Mof_H 	H 	0.96	0.835	0.382	0.205
Mof_N 	N 	0.8738	0.5207	0.5605	-0.239
Mof_O 	O 	0.518	0.9479	0.4511	-0.423
Mof_H 	H 	0.467	0.957	0.51	0.187
Mof_C 	C 	0.5469	0.8497	0.8912	0.041
Mof_N 	N 	0.631	0.7827	0.4656	-0.229
Mof_C 	C 	0.0519	0.9511	0.0029	0.05
Mof_C 	C 	0.1636	0.9376	0.814	-0.12
Mof_H 	H 	0.2424	0.9303	0.8562	0.067
Mof_C 	C 	0.5443	0.8486	0.0175	0.047
Mof_C 	C 	0.6534	0.8686	0.8301	-0.122
Mof_H 	H 	0.7295	0.88	0.8718	0.066
Mof_C 	C 	0.7507	0.9427	0.4379	0.343
Mof_C 	C 	0.4281	0.8538	0.0808	-0.131
Mof_H 	H 	0.3469	0.8565	0.0397	0.07
Mof_C 	C 	0.133	0.823	0.438	-0.063
Mof_H 	H 	0.1411	0.799	0.3685	0.049
Mof_C 	C 	0.9424	0.9634	0.8055	-0.117
Mof_H 	H 	0.8646	0.9737	0.8434	0.064
Mof_C 	C 	0.6521	0.8461	0.206	0.065
Mof_H 	H 	0.7307	0.843	0.2508	-0.005
Mof_C 	C 	0.7498	0.5308	0.5448	0.089
Mof_H 	H 	0.6915	0.5012	0.5449	-0.002
Mof_C 	C 	0.0529	0.9511	0.8713	0.045
Mof_C 	C 	0.1586	0.9545	0.1879	0.08
Mof_H 	H 	0.2378	0.958	0.2319	-0.004
Mof_C 	C 	0.95	0.5633	0.569	0.081
Mof_H 	H 	0.0393	0.5583	0.5907	-0.003
Mof_C 	C 	0.9397	0.9421	0.1842	0.078
Mof_H 	H 	0.8606	0.9367	0.2245	0.001
Mof_C 	C 	0.1642	0.9577	0.0712	-0.134
Mof_H 	H 	0.2453	0.9644	0.0351	0.071
Mof_C 	C 	0.6578	0.8435	0.0884	-0.122
Mof_H 	H 	0.7398	0.838	0.0528	0.068
Mof_C 	C 	0.4456	0.8367	0.7016	0.056
Mof_H 	H 	0.3734	0.8234	0.657	0.015
Mof_C 	C 	0.7762	0.6245	0.5302	0.066
Mof_C 	C 	0.725	0.6796	0.5083	0.045
Mof_C 	C 	0.9345	0.9444	0.0653	-0.128
Mof_H 	H 	0.8531	0.9415	0.0246	0.07
Mof_C 	C 	0.4382	0.8332	0.8218	-0.114
Mof_H 	H 	0.3615	0.82	0.8572	0.067
Mof_C 	C 	0.6312	0.9797	0.4309	-0.056
Mof_H 	H 	0.6392	0.0081	0.4922	0.048
Mof_C 	C 	0.9057	0.6144	0.549	-0.138
Mof_H 	H 	0.9662	0.6432	0.5484	0.074
Mof_C 	C 	0.8054	0.7234	0.5218	-0.117
Mof_H 	H 	0.8941	0.719	0.5457	0.071
Mof_C 	C 	0.6971	0.5804	0.5282	-0.141
Mof_H 	H 	0.6057	0.5843	0.5154	0.074
Mof_C 	C 	0.5991	0.688	0.4709	-0.118
Mof_H 	H 	0.5411	0.6586	0.4607	0.065
Mof_C 	C 	0.5511	0.984	0.2173	-0.125
Mof_H 	H 	0.4943	0.9547	0.2311	0.08
Mof_C 	C 	0.6249	0.0056	0.3101	0.087
Mof_C 	C 	0.0646	0.8059	0.6473	-0.123
Mof_H 	H 	0.0141	0.8379	0.6473	0.078
Mof_C 	C 	0.1954	0.7386	0.5451	-0.119
Mof_H 	H 	0.2335	0.7247	0.4764	0.069
Mof_C 	C 	0.1283	0.7881	0.5463	0.078
Mof_C 	C 	0.202	0.711	0.654	0.025
Mof_H 	H 	0.2484	0.678	0.6571	0.018
Mof_C 	C 	0.7051	0.0497	0.2873	-0.125
Mof_H 	H 	0.7546	0.0658	0.349	0.073
Mof_C 	C 	0.7122	0.0695	0.177	0.038
Mof_H 	H 	0.7657	0.0999	0.1633	0.014
Mof_C 	C 	0.6438	0.0467	0.0838	-0.109
Mof_H 	H 	0.6544	0.0595	0.0064	0.063
Mof_C 	C 	0.5596	0.0047	0.1068	0.039
Mof_H 	H 	0.5072	0.99	0.0453	0.013
Mof_C 	C 	0.079	0.7741	0.7482	0.036
Mof_H 	H 	0.0384	0.7861	0.8172	0.015
Mof_C 	C 	0.7539	0.7748	0.4996	0.062
Mof_H 	H 	0.8095	0.805	0.5094	0.007
Mof_C 	C 	0.5563	0.7404	0.4477	0.067
Mof_H 	H 	0.4701	0.7455	0.4178	0.001
Mof_C 	C 	0.145	0.7292	0.754	-0.111
Mof_H 	H 	0.154	0.71	0.8255	0.063
Mof_Co	Co	0.45087	0.36145	0.54756	1.161
Mof_Co	Co	0.95016	0.44129	0.56426	1.165
Mof_O 	O 	0.2636	0.3937	0.5525	-0.433
Mof_O 	O 	0.7638	0.4088	0.559	-0.436
Mof_N 	N 	0.4621	0.353	0.7375	-0.226
Mof_N 	N 	0.4532	0.3574	0.3583	-0.223
Mof_O 	O 	0.1395	0.4666	0.5687	-0.424
Mof_N 	N 	0.95	0.4448	0.3774	-0.222
Mof_O 	O 	0.6393	0.3357	0.5484	-0.434
Mof_C 	C 	0.7475	0.3595	0.5562	0.356
Mof_C 	C 	0.0559	0.4609	0.3154	0.056
Mof_H 	H 	0.1327	0.4711	0.3577	0.006
Mof_C 	C 	0.5696	0.3551	0.7993	0.083
Mof_H 	H 	0.6501	0.3577	0.7599	-0.003
Mof_N 	N 	0.9511	0.4469	0.754	-0.228
Mof_C 	C 	0.8405	0.4349	0.3042	0.055
Mof_H 	H 	0.7618	0.4252	0.3415	0.006
Mof_C 	C 	0.3497	0.3709	0.2863	0.063
Mof_H 	H 	0.2728	0.3832	0.323	0.002
Mof_O 	O 	0.9824	0.3548	0.5777	-0.43
Mof_H 	H 	0.04	0.335	0.618	0.205
Mof_N 	N 	0.1262	0.0207	0.4395	-0.239
Mof_O 	O 	0.482	0.4479	0.5489	-0.424
Mof_H 	H 	0.533	0.457	0.49	0.188
Mof_C 	C 	0.4531	0.3497	0.1088	0.041
Mof_N 	N 	0.369	0.2827	0.5344	-0.229
Mof_C 	C 	0.9481	0.4511	0.9971	0.051
Mof_C 	C 	0.8364	0.4376	0.186	-0.121
Mof_H 	H 	0.7576	0.4303	0.1438	0.067
Mof_C 	C 	0.4557	0.3486	0.9825	0.047
Mof_C 	C 	0.3466	0.3686	0.1699	-0.122
Mof_H 	H 	0.2705	0.38	0.1282	0.067
Mof_C 	C 	0.2493	0.4427	0.5621	0.342
Mof_C 	C 	0.5719	0.3538	0.9192	-0.131
Mof_H 	H 	0.6531	0.3565	0.9603	0.07
Mof_C 	C 	0.867	0.323	0.562	-0.063
Mof_H 	H 	0.8589	0.299	0.6315	0.049
Mof_C 	C 	0.0576	0.4634	0.1945	-0.118
Mof_H 	H 	0.1354	0.4737	0.1566	0.064
Mof_C 	C 	0.3479	0.3461	0.794	0.065
Mof_H 	H 	0.2693	0.343	0.7492	-0.005
Mof_C 	C 	0.2502	0.0308	0.4552	0.089
Mof_H 	H 	0.3085	0.0012	0.4551	-0.002
Mof_C 	C 	0.9471	0.4511	0.1287	0.046
Mof_C 	C 	0.8414	0.4545	0.8121	0.08
Mof_H 	H 	0.7622	0.458	0.7681	-0.003
Mof_C 	C 	0.05	0.0633	0.431	0.083
Mof_H 	H 	0.9607	0.0583	0.4093	-0.004
Mof_C 	C 	0.0603	0.4421	0.8158	0.078
Mof_H 	H 	0.1394	0.4367	0.7755	0.001
Mof_C 	C 	0.8358	0.4577	0.9288	-0.134
Mof_H 	H 	0.7547	0.4644	0.9649	0.072
Mof_C 	C 	0.3422	0.3435	0.9116	-0.122
Mof_H 	H 	0.2602	0.338	0.9472	0.068
Mof_C 	C 	0.5544	0.3367	0.2984	0.056
Mof_H 	H 	0.6266	0.3234	0.343	0.015
Mof_C 	C 	0.2238	0.1245	0.4698	0.066
Mof_C 	C 	0.275	0.1796	0.4917	0.044
Mof_C 	C 	0.0655	0.4444	0.9347	-0.128
Mof_H 	H 	0.1469	0.4415	0.9754	0.07
Mof_C 	C 	0.5618	0.3332	0.1782	-0.114
Mof_H 	H 	0.6385	0.32	0.1428	0.067
Mof_C 	C 	0.3688	0.4797	0.5691	-0.052
Mof_H 	H 	0.3608	0.5081	0.5078	0.046
Mof_C 	C 	0.0943	0.1144	0.451	-0.139
Mof_H 	H 	0.0338	0.1432	0.4516	0.074
Mof_C 	C 	0.1946	0.2234	0.4782	-0.117
Mof_H 	H 	0.1059	0.219	0.4543	0.071
Mof_C 	C 	0.3029	0.0804	0.4718	-0.141
Mof_H 	H 	0.3943	0.0843	0.4846	0.074
Mof_C 	C 	0.4009	0.188	0.5291	-0.118
Mof_H 	H 	0.4589	0.1586	0.5393	0.065
Mof_C 	C 	0.4489	0.484	0.7827	-0.117
Mof_H 	H 	0.5057	0.4547	0.7689	0.078
Mof_C 	C 	0.3751	0.5056	0.6899	0.081
Mof_C 	C 	0.9354	0.3059	0.3527	-0.123
Mof_H 	H 	0.9859	0.3379	0.3527	0.078
Mof_C 	C 	0.8046	0.2386	0.4549	-0.119
Mof_H 	H 	0.7665	0.2247	0.5236	0.069
Mof_C 	C 	0.8717	0.2881	0.4537	0.078
Mof_C 	C 	0.798	0.211	0.346	0.025
Mof_H 	H 	0.7516	0.178	0.3429	0.018
Mof_C 	C 	0.2949	0.5497	0.7127	-0.12
Mof_H 	H 	0.2454	0.5658	0.651	0.072
Mof_C 	C 	0.2878	0.5695	0.823	0.033
Mof_H 	H 	0.2343	0.5999	0.8367	0.016
Mof_C 	C 	0.3562	0.5467	0.9162	-0.103
Mof_H 	H 	0.3456	0.5595	0.9936	0.061
Mof_C 	C 	0.4404	0.5047	0.8932	0.03
Mof_H 	H 	0.4928	0.49	0.9547	0.016
Mof_C 	C 	0.921	0.2741	0.2518	0.036
Mof_H 	H 	0.9616	0.2861	0.1828	0.015
Mof_C 	C 	0.2461	0.2748	0.5004	0.062
Mof_H 	H 	0.1905	0.305	0.4906	0.007
Mof_C 	C 	0.4437	0.2404	0.5523	0.067
Mof_H 	H 	0.5299	0.2455	0.5822	0.001
Mof_C 	C 	0.855	0.2292	0.246	-0.111
Mof_H 	H 	0.846	0.21	0.1745	0.063
_end
