data_functionalizedCrystal
_audit_creation_method	'EQeq! by Chris Wilmer'
_symmetry_space_group_name_H-M	'P1'
_symmetry_Int_Tables_number	1
_symmetry_cell_setting	triclinic
loop_
_symmetry_equiv_pos_as_xyz
  x,y,z
_cell_length_a	20.6013
_cell_length_b	20.6013
_cell_length_c	17.8183
_cell_angle_alpha	90
_cell_angle_beta	90
_cell_angle_gamma	90
loop_
_atom_site_label
_atom_site_type_symbol
_atom_site_fract_x
_atom_site_fract_y
_atom_site_fract_z
_atom_site_charge
Mof_Zn	Zn	0.25839	0.11894	0.46489	1.238
Mof_O 	O 	0.24188	0.1594	0.30093	-0.321
Mof_O 	O 	0.19325	0.17236	0.41082	-0.451
Mof_O 	O 	0.12685	0.2357	0.07016	-0.369
Mof_O 	O 	0.0561	0.3137	0.08361	-0.235
Mof_O 	O 	0.96597	0.2568	0.4143	-0.429
Mof_O 	O 	0.94668	0.33768	0.33099	-0.302
Mof_C 	C 	0.1967	0.1795	0.3423	0.363
Mof_C 	C 	0.1409	0.2152	0.3037	-0.085
Mof_C 	C 	0.1438	0.2271	0.229	0.027
Mof_H 	H 	0.1792	0.2127	0.2012	0.066
Mof_C 	C 	0.0932	0.2615	0.1935	-0.062
Mof_C 	C 	0.04041	0.28464	0.23549	0.02
Mof_H 	H 	0.0074	0.3085	0.213	0.071
Mof_C 	C 	0.03898	0.2705	0.3128	-0.072
Mof_C 	C 	0.08768	0.2359	0.3473	0.031
Mof_H 	H 	0.0855	0.2264	0.3982	0.057
Mof_C 	C 	0.0918	0.272	0.1099	0.322
Mof_C 	C 	0.9784	0.2915	0.3563	0.348
Mof_Zn	Zn	0.75839	0.61894	0.96489	1.206
Mof_O 	O 	0.74188	0.6594	0.80093	-0.334
Mof_O 	O 	0.69325	0.67236	0.91082	-0.492
Mof_O 	O 	0.62685	0.7357	0.57016	-0.448
Mof_O 	O 	0.5561	0.8137	0.58361	-0.299
Mof_O 	O 	0.46597	0.7568	0.9143	-0.471
Mof_O 	O 	0.44668	0.83768	0.83099	-0.32
Mof_C 	C 	0.6967	0.6795	0.8423	0.377
Mof_C 	C 	0.6409	0.7152	0.8037	-0.118
Mof_C 	C 	0.6438	0.7271	0.729	0.051
Mof_H 	H 	0.6792	0.7127	0.7012	0.046
Mof_C 	C 	0.5932	0.7615	0.6935	-0.097
Mof_C 	C 	0.54041	0.78464	0.73549	0.04
Mof_H 	H 	0.5074	0.8085	0.713	0.053
Mof_C 	C 	0.53898	0.7705	0.8128	-0.103
Mof_C 	C 	0.58768	0.7359	0.8473	0.052
Mof_H 	H 	0.5855	0.7264	0.8982	0.026
Mof_C 	C 	0.5918	0.772	0.6099	0.342
Mof_C 	C 	0.4784	0.7915	0.8563	0.355
Mof_Zn	Zn	0.74161	0.88106	0.46489	1.237
Mof_O 	O 	0.75812	0.8406	0.30093	-0.322
Mof_O 	O 	0.80675	0.82764	0.41082	-0.452
Mof_O 	O 	0.87315	0.7643	0.07016	-0.37
Mof_O 	O 	0.9439	0.6863	0.08361	-0.235
Mof_O 	O 	0.03403	0.7432	0.4143	-0.429
Mof_O 	O 	0.05332	0.66232	0.33099	-0.302
Mof_C 	C 	0.8033	0.8205	0.3423	0.363
Mof_C 	C 	0.8591	0.7848	0.3037	-0.085
Mof_C 	C 	0.8562	0.7729	0.229	0.027
Mof_H 	H 	0.8208	0.7873	0.2012	0.066
Mof_C 	C 	0.9068	0.7385	0.1935	-0.062
Mof_C 	C 	0.95959	0.71536	0.23549	0.02
Mof_H 	H 	0.9926	0.6915	0.213	0.071
Mof_C 	C 	0.96102	0.7295	0.3128	-0.072
Mof_C 	C 	0.91232	0.7641	0.3473	0.031
Mof_H 	H 	0.9145	0.7736	0.3982	0.057
Mof_C 	C 	0.9082	0.728	0.1099	0.322
Mof_C 	C 	0.0216	0.7085	0.3563	0.348
Mof_Zn	Zn	0.24161	0.38106	0.96489	1.206
Mof_O 	O 	0.25812	0.3406	0.80093	-0.334
Mof_O 	O 	0.30675	0.32764	0.91082	-0.492
Mof_O 	O 	0.37315	0.2643	0.57016	-0.448
Mof_O 	O 	0.4439	0.1863	0.58361	-0.299
Mof_O 	O 	0.53403	0.2432	0.9143	-0.471
Mof_O 	O 	0.55332	0.16232	0.83099	-0.32
Mof_C 	C 	0.3033	0.3205	0.8423	0.377
Mof_C 	C 	0.3591	0.2848	0.8037	-0.118
Mof_C 	C 	0.3562	0.2729	0.729	0.051
Mof_H 	H 	0.3208	0.2873	0.7012	0.046
Mof_C 	C 	0.4068	0.2385	0.6935	-0.097
Mof_C 	C 	0.45959	0.21536	0.73549	0.04
Mof_H 	H 	0.4926	0.1915	0.713	0.053
Mof_C 	C 	0.46102	0.2295	0.8128	-0.103
Mof_C 	C 	0.41232	0.2641	0.8473	0.052
Mof_H 	H 	0.4145	0.2736	0.8982	0.026
Mof_C 	C 	0.4082	0.228	0.6099	0.342
Mof_C 	C 	0.5216	0.2085	0.8563	0.355
Mof_Zn	Zn	0.88106	0.25839	0.46489	1.237
Mof_O 	O 	0.8406	0.24188	0.30093	-0.322
Mof_O 	O 	0.82764	0.19325	0.41082	-0.452
Mof_O 	O 	0.7643	0.12685	0.07016	-0.37
Mof_O 	O 	0.6863	0.0561	0.08361	-0.235
Mof_O 	O 	0.7432	0.96597	0.4143	-0.429
Mof_O 	O 	0.66232	0.94668	0.33099	-0.302
Mof_C 	C 	0.8205	0.1967	0.3423	0.363
Mof_C 	C 	0.7848	0.1409	0.3037	-0.085
Mof_C 	C 	0.7729	0.1438	0.229	0.027
Mof_H 	H 	0.7873	0.1792	0.2012	0.066
Mof_C 	C 	0.7385	0.0932	0.1935	-0.062
Mof_C 	C 	0.71536	0.04041	0.23549	0.02
Mof_H 	H 	0.6915	0.0074	0.213	0.071
Mof_C 	C 	0.7295	0.03898	0.3128	-0.072
Mof_C 	C 	0.7641	0.08768	0.3473	0.031
Mof_H 	H 	0.7736	0.0855	0.3982	0.057
Mof_C 	C 	0.728	0.0918	0.1099	0.322
Mof_C 	C 	0.7085	0.9784	0.3563	0.348
Mof_Zn	Zn	0.38106	0.75839	0.96489	1.206
Mof_O 	O 	0.3406	0.74188	0.80093	-0.334
Mof_O 	O 	0.32764	0.69325	0.91082	-0.492
Mof_O 	O 	0.2643	0.62685	0.57016	-0.448
Mof_O 	O 	0.1863	0.5561	0.58361	-0.299
Mof_O 	O 	0.2432	0.46597	0.9143	-0.471
Mof_O 	O 	0.16232	0.44668	0.83099	-0.32
Mof_C 	C 	0.3205	0.6967	0.8423	0.377
Mof_C 	C 	0.2848	0.6409	0.8037	-0.118
Mof_C 	C 	0.2729	0.6438	0.729	0.051
Mof_H 	H 	0.2873	0.6792	0.7012	0.046
Mof_C 	C 	0.2385	0.5932	0.6935	-0.097
Mof_C 	C 	0.21536	0.54041	0.73549	0.04
Mof_H 	H 	0.1915	0.5074	0.713	0.053
Mof_C 	C 	0.2295	0.53898	0.8128	-0.103
Mof_C 	C 	0.2641	0.58768	0.8473	0.052
Mof_H 	H 	0.2736	0.5855	0.8982	0.026
Mof_C 	C 	0.228	0.5918	0.6099	0.342
Mof_C 	C 	0.2085	0.4784	0.8563	0.355
Mof_Zn	Zn	0.11894	0.74161	0.46489	1.237
Mof_O 	O 	0.1594	0.75812	0.30093	-0.322
Mof_O 	O 	0.17236	0.80675	0.41082	-0.452
Mof_O 	O 	0.2357	0.87315	0.07016	-0.37
Mof_O 	O 	0.3137	0.9439	0.08361	-0.235
Mof_O 	O 	0.2568	0.03403	0.4143	-0.429
Mof_O 	O 	0.33768	0.05332	0.33099	-0.302
Mof_C 	C 	0.1795	0.8033	0.3423	0.363
Mof_C 	C 	0.2152	0.8591	0.3037	-0.085
Mof_C 	C 	0.2271	0.8562	0.229	0.027
Mof_H 	H 	0.2127	0.8208	0.2012	0.066
Mof_C 	C 	0.2615	0.9068	0.1935	-0.062
Mof_C 	C 	0.28464	0.95959	0.23549	0.02
Mof_H 	H 	0.3085	0.9926	0.213	0.071
Mof_C 	C 	0.2705	0.96102	0.3128	-0.072
Mof_C 	C 	0.2359	0.91232	0.3473	0.031
Mof_H 	H 	0.2264	0.9145	0.3982	0.057
Mof_C 	C 	0.272	0.9082	0.1099	0.322
Mof_C 	C 	0.2915	0.0216	0.3563	0.348
Mof_Zn	Zn	0.61894	0.24161	0.96489	1.206
Mof_O 	O 	0.6594	0.25812	0.80093	-0.334
Mof_O 	O 	0.67236	0.30675	0.91082	-0.492
Mof_O 	O 	0.7357	0.37315	0.57016	-0.448
Mof_O 	O 	0.8137	0.4439	0.58361	-0.299
Mof_O 	O 	0.7568	0.53403	0.9143	-0.471
Mof_O 	O 	0.83768	0.55332	0.83099	-0.32
Mof_C 	C 	0.6795	0.3033	0.8423	0.377
Mof_C 	C 	0.7152	0.3591	0.8037	-0.118
Mof_C 	C 	0.7271	0.3562	0.729	0.051
Mof_H 	H 	0.7127	0.3208	0.7012	0.046
Mof_C 	C 	0.7615	0.4068	0.6935	-0.097
Mof_C 	C 	0.78464	0.45959	0.73549	0.04
Mof_H 	H 	0.8085	0.4926	0.713	0.053
Mof_C 	C 	0.7705	0.46102	0.8128	-0.103
Mof_C 	C 	0.7359	0.41232	0.8473	0.052
Mof_H 	H 	0.7264	0.4145	0.8982	0.026
Mof_C 	C 	0.772	0.4082	0.6099	0.342
Mof_C 	C 	0.7915	0.5216	0.8563	0.355
Mof_Zn	Zn	0.25839	0.88106	0.96489	1.206
Mof_O 	O 	0.24188	0.8406	0.80093	-0.334
Mof_O 	O 	0.19325	0.82764	0.91082	-0.492
Mof_O 	O 	0.12685	0.7643	0.57016	-0.448
Mof_O 	O 	0.0561	0.6863	0.58361	-0.299
Mof_O 	O 	0.96597	0.7432	0.9143	-0.47
Mof_O 	O 	0.94668	0.66232	0.83099	-0.32
Mof_C 	C 	0.1967	0.8205	0.8423	0.377
Mof_C 	C 	0.1409	0.7848	0.8037	-0.118
Mof_C 	C 	0.1438	0.7729	0.729	0.051
Mof_H 	H 	0.1792	0.7873	0.7012	0.046
Mof_C 	C 	0.0932	0.7385	0.6935	-0.097
Mof_C 	C 	0.04041	0.71536	0.73549	0.04
Mof_H 	H 	0.0074	0.6915	0.713	0.053
Mof_C 	C 	0.03898	0.7295	0.8128	-0.103
Mof_C 	C 	0.08768	0.7641	0.8473	0.052
Mof_H 	H 	0.0855	0.7736	0.8982	0.026
Mof_C 	C 	0.0918	0.728	0.6099	0.342
Mof_C 	C 	0.9784	0.7085	0.8563	0.356
Mof_Zn	Zn	0.75839	0.38106	0.46489	1.237
Mof_O 	O 	0.74188	0.3406	0.30093	-0.322
Mof_O 	O 	0.69325	0.32764	0.41082	-0.452
Mof_O 	O 	0.62685	0.2643	0.07016	-0.369
Mof_O 	O 	0.5561	0.1863	0.08361	-0.234
Mof_O 	O 	0.46597	0.2432	0.4143	-0.429
Mof_O 	O 	0.44668	0.16232	0.33099	-0.302
Mof_C 	C 	0.6967	0.3205	0.3423	0.363
Mof_C 	C 	0.6409	0.2848	0.3037	-0.085
Mof_C 	C 	0.6438	0.2729	0.229	0.027
Mof_H 	H 	0.6792	0.2873	0.2012	0.066
Mof_C 	C 	0.5932	0.2385	0.1935	-0.061
Mof_C 	C 	0.54041	0.21536	0.23549	0.02
Mof_H 	H 	0.5074	0.1915	0.213	0.072
Mof_C 	C 	0.53898	0.2295	0.3128	-0.071
Mof_C 	C 	0.58768	0.2641	0.3473	0.031
Mof_H 	H 	0.5855	0.2736	0.3982	0.057
Mof_C 	C 	0.5918	0.228	0.1099	0.321
Mof_C 	C 	0.4784	0.2085	0.3563	0.348
Mof_Zn	Zn	0.74161	0.11894	0.96489	1.206
Mof_O 	O 	0.75812	0.1594	0.80093	-0.334
Mof_O 	O 	0.80675	0.17236	0.91082	-0.492
Mof_O 	O 	0.87315	0.2357	0.57016	-0.448
Mof_O 	O 	0.9439	0.3137	0.58361	-0.299
Mof_O 	O 	0.03403	0.2568	0.9143	-0.47
Mof_O 	O 	0.05332	0.33768	0.83099	-0.32
Mof_C 	C 	0.8033	0.1795	0.8423	0.377
Mof_C 	C 	0.8591	0.2152	0.8037	-0.118
Mof_C 	C 	0.8562	0.2271	0.729	0.051
Mof_H 	H 	0.8208	0.2127	0.7012	0.046
Mof_C 	C 	0.9068	0.2615	0.6935	-0.097
Mof_C 	C 	0.95959	0.28464	0.73549	0.04
Mof_H 	H 	0.9926	0.3085	0.713	0.053
Mof_C 	C 	0.96102	0.2705	0.8128	-0.103
Mof_C 	C 	0.91232	0.2359	0.8473	0.052
Mof_H 	H 	0.9145	0.2264	0.8982	0.026
Mof_C 	C 	0.9082	0.272	0.6099	0.342
Mof_C 	C 	0.0216	0.2915	0.8563	0.356
Mof_Zn	Zn	0.24161	0.61894	0.46489	1.237
Mof_O 	O 	0.25812	0.6594	0.30093	-0.322
Mof_O 	O 	0.30675	0.67236	0.41082	-0.452
Mof_O 	O 	0.37315	0.7357	0.07016	-0.369
Mof_O 	O 	0.4439	0.8137	0.08361	-0.234
Mof_O 	O 	0.53403	0.7568	0.4143	-0.429
Mof_O 	O 	0.55332	0.83768	0.33099	-0.302
Mof_C 	C 	0.3033	0.6795	0.3423	0.363
Mof_C 	C 	0.3591	0.7152	0.3037	-0.085
Mof_C 	C 	0.3562	0.7271	0.229	0.027
Mof_H 	H 	0.3208	0.7127	0.2012	0.066
Mof_C 	C 	0.4068	0.7615	0.1935	-0.061
Mof_C 	C 	0.45959	0.78464	0.23549	0.02
Mof_H 	H 	0.4926	0.8085	0.213	0.072
Mof_C 	C 	0.46102	0.7705	0.3128	-0.071
Mof_C 	C 	0.41232	0.7359	0.3473	0.031
Mof_H 	H 	0.4145	0.7264	0.3982	0.057
Mof_C 	C 	0.4082	0.772	0.1099	0.321
Mof_C 	C 	0.5216	0.7915	0.3563	0.348
Mof_Zn	Zn	0.88106	0.74161	0.96489	1.206
Mof_O 	O 	0.8406	0.75812	0.80093	-0.334
Mof_O 	O 	0.82764	0.80675	0.91082	-0.492
Mof_O 	O 	0.7643	0.87315	0.57016	-0.448
Mof_O 	O 	0.6863	0.9439	0.58361	-0.299
Mof_O 	O 	0.7432	0.03403	0.9143	-0.47
Mof_O 	O 	0.66232	0.05332	0.83099	-0.32
Mof_C 	C 	0.8205	0.8033	0.8423	0.377
Mof_C 	C 	0.7848	0.8591	0.8037	-0.118
Mof_C 	C 	0.7729	0.8562	0.729	0.051
Mof_H 	H 	0.7873	0.8208	0.7012	0.046
Mof_C 	C 	0.7385	0.9068	0.6935	-0.097
Mof_C 	C 	0.71536	0.95959	0.73549	0.04
Mof_H 	H 	0.6915	0.9926	0.713	0.053
Mof_C 	C 	0.7295	0.96102	0.8128	-0.103
Mof_C 	C 	0.7641	0.91232	0.8473	0.052
Mof_H 	H 	0.7736	0.9145	0.8982	0.026
Mof_C 	C 	0.728	0.9082	0.6099	0.342
Mof_C 	C 	0.7085	0.0216	0.8563	0.356
Mof_Zn	Zn	0.38106	0.24161	0.46489	1.237
Mof_O 	O 	0.3406	0.25812	0.30093	-0.322
Mof_O 	O 	0.32764	0.30675	0.41082	-0.452
Mof_O 	O 	0.2643	0.37315	0.07016	-0.369
Mof_O 	O 	0.1863	0.4439	0.08361	-0.234
Mof_O 	O 	0.2432	0.53403	0.4143	-0.429
Mof_O 	O 	0.16232	0.55332	0.33099	-0.302
Mof_C 	C 	0.3205	0.3033	0.3423	0.363
Mof_C 	C 	0.2848	0.3591	0.3037	-0.085
Mof_C 	C 	0.2729	0.3562	0.229	0.027
Mof_H 	H 	0.2873	0.3208	0.2012	0.066
Mof_C 	C 	0.2385	0.4068	0.1935	-0.061
Mof_C 	C 	0.21536	0.45959	0.23549	0.02
Mof_H 	H 	0.1915	0.4926	0.213	0.072
Mof_C 	C 	0.2295	0.46102	0.3128	-0.071
Mof_C 	C 	0.2641	0.41232	0.3473	0.031
Mof_H 	H 	0.2736	0.4145	0.3982	0.057
Mof_C 	C 	0.228	0.4082	0.1099	0.321
Mof_C 	C 	0.2085	0.5216	0.3563	0.348
Mof_Zn	Zn	0.11894	0.25839	0.96489	1.206
Mof_O 	O 	0.1594	0.24188	0.80093	-0.334
Mof_O 	O 	0.17236	0.19325	0.91082	-0.492
Mof_O 	O 	0.2357	0.12685	0.57016	-0.448
Mof_O 	O 	0.3137	0.0561	0.58361	-0.299
Mof_O 	O 	0.2568	0.96597	0.9143	-0.47
Mof_O 	O 	0.33768	0.94668	0.83099	-0.32
Mof_C 	C 	0.1795	0.1967	0.8423	0.377
Mof_C 	C 	0.2152	0.1409	0.8037	-0.118
Mof_C 	C 	0.2271	0.1438	0.729	0.051
Mof_H 	H 	0.2127	0.1792	0.7012	0.046
Mof_C 	C 	0.2615	0.0932	0.6935	-0.097
Mof_C 	C 	0.28464	0.04041	0.73549	0.04
Mof_H 	H 	0.3085	0.0074	0.713	0.053
Mof_C 	C 	0.2705	0.03898	0.8128	-0.103
Mof_C 	C 	0.2359	0.08768	0.8473	0.052
Mof_H 	H 	0.2264	0.0855	0.8982	0.026
Mof_C 	C 	0.272	0.0918	0.6099	0.342
Mof_C 	C 	0.2915	0.9784	0.8563	0.356
Mof_Zn	Zn	0.61894	0.75839	0.46489	1.237
Mof_O 	O 	0.6594	0.74188	0.30093	-0.322
Mof_O 	O 	0.67236	0.69325	0.41082	-0.452
Mof_O 	O 	0.7357	0.62685	0.07016	-0.369
Mof_O 	O 	0.8137	0.5561	0.08361	-0.234
Mof_O 	O 	0.7568	0.46597	0.4143	-0.429
Mof_O 	O 	0.83768	0.44668	0.33099	-0.302
Mof_C 	C 	0.6795	0.6967	0.3423	0.363
Mof_C 	C 	0.7152	0.6409	0.3037	-0.085
Mof_C 	C 	0.7271	0.6438	0.229	0.027
Mof_H 	H 	0.7127	0.6792	0.2012	0.066
Mof_C 	C 	0.7615	0.5932	0.1935	-0.061
Mof_C 	C 	0.78464	0.54041	0.23549	0.02
Mof_H 	H 	0.8085	0.5074	0.213	0.072
Mof_C 	C 	0.7705	0.53898	0.3128	-0.071
Mof_C 	C 	0.7359	0.58768	0.3473	0.031
Mof_H 	H 	0.7264	0.5855	0.3982	0.057
Mof_C 	C 	0.772	0.5918	0.1099	0.321
Mof_C 	C 	0.7915	0.4784	0.3563	0.348
Mof_Cd	Cd	0.34589	0.15411	0.31584	0.497
Mof_O 	O 	0.34011	0.15989	0.4373	-0.551
Mof_Cd	Cd	0.65411	0.84589	0.31584	0.497
Mof_O 	O 	0.65989	0.84011	0.4373	-0.551
Mof_Cd	Cd	0.15411	0.34589	0.81584	0.486
Mof_O 	O 	0.15989	0.34011	0.9373	-0.597
Mof_Cd	Cd	0.84589	0.34589	0.31584	0.497
Mof_O 	O 	0.84011	0.34011	0.4373	-0.551
Mof_Cd	Cd	0.15411	0.65411	0.31584	0.497
Mof_O 	O 	0.15989	0.65989	0.4373	-0.551
Mof_Cd	Cd	0.34589	0.84589	0.81584	0.486
Mof_O 	O 	0.34011	0.84011	0.9373	-0.597
Mof_Cd	Cd	0.65411	0.15411	0.81584	0.486
Mof_O 	O 	0.65989	0.15989	0.9373	-0.597
Mof_Cd	Cd	0.84589	0.65411	0.81584	0.486
Mof_O 	O 	0.84011	0.65989	0.9373	-0.597
_end
