data_functionalizedCrystal
_audit_creation_method	'EQeq! by Chris Wilmer'
_symmetry_space_group_name_H-M	'P1'
_symmetry_Int_Tables_number	1
_symmetry_cell_setting	triclinic
loop_
_symmetry_equiv_pos_as_xyz
  x,y,z
_cell_length_a	20.0787
_cell_length_b	20.0787
_cell_length_c	20.0787
_cell_angle_alpha	90
_cell_angle_beta	90
_cell_angle_gamma	90
loop_
_atom_site_label
_atom_site_type_symbol
_atom_site_fract_x
_atom_site_fract_y
_atom_site_fract_z
_atom_site_charge
Mof_Zn	Zn	0.25119	0.27053	0.1457	1.19
Mof_N 	N 	0.34264	0.24318	0.17105	-0.265
Mof_C 	C 	0.4021	0.2689	0.1594	0.097
Mof_H 	H 	0.4105	0.3036	0.1299	0.003
Mof_C 	C 	0.45015	0.2367	0.1973	-0.146
Mof_N 	N 	0.35026	0.19397	0.21748	-0.264
Mof_O 	O 	0.54899	0.29235	0.1648	-0.359
Mof_C 	C 	0.5218	0.2503	0.2007	0.341
Mof_C 	C 	0.4147	0.1897	0.2328	0.095
Mof_H 	H 	0.433	0.1596	0.2629	0.003
Mof_O 	O 	0.55496	0.21668	0.24317	-0.455
Mof_Zn	Zn	0.24881	0.72947	0.6457	1.19
Mof_N 	N 	0.15736	0.75682	0.67105	-0.265
Mof_C 	C 	0.0979	0.7311	0.6594	0.097
Mof_H 	H 	0.0895	0.6964	0.6299	0.003
Mof_C 	C 	0.04985	0.7633	0.6973	-0.146
Mof_N 	N 	0.14974	0.80603	0.71748	-0.265
Mof_O 	O 	0.95101	0.70765	0.6648	-0.36
Mof_C 	C 	0.9782	0.7497	0.7007	0.34
Mof_C 	C 	0.0853	0.8103	0.7328	0.094
Mof_H 	H 	0.067	0.8404	0.7629	0.002
Mof_O 	O 	0.94504	0.78332	0.74317	-0.456
Mof_Zn	Zn	0.74881	0.77053	0.3543	1.189
Mof_N 	N 	0.65736	0.74318	0.32895	-0.266
Mof_C 	C 	0.5979	0.7689	0.3406	0.096
Mof_H 	H 	0.5895	0.8036	0.3701	0.002
Mof_C 	C 	0.54985	0.7367	0.3027	-0.147
Mof_N 	N 	0.64974	0.69397	0.28252	-0.265
Mof_O 	O 	0.45101	0.79235	0.3352	-0.36
Mof_C 	C 	0.4782	0.7503	0.2993	0.34
Mof_C 	C 	0.5853	0.6897	0.2672	0.094
Mof_H 	H 	0.567	0.6596	0.2371	0.002
Mof_O 	O 	0.44504	0.71668	0.25683	-0.456
Mof_Zn	Zn	0.75119	0.22947	0.8543	1.189
Mof_N 	N 	0.84264	0.25682	0.82895	-0.266
Mof_C 	C 	0.9021	0.2311	0.8406	0.096
Mof_H 	H 	0.9105	0.1964	0.8701	0.002
Mof_C 	C 	0.95015	0.2633	0.8027	-0.147
Mof_N 	N 	0.85026	0.30603	0.78252	-0.265
Mof_O 	O 	0.04899	0.20765	0.8352	-0.36
Mof_C 	C 	0.0218	0.2497	0.7993	0.34
Mof_C 	C 	0.9147	0.3103	0.7672	0.094
Mof_H 	H 	0.933	0.3404	0.7371	0.002
Mof_O 	O 	0.05496	0.28332	0.75683	-0.456
Mof_Zn	Zn	0.1457	0.25119	0.27053	1.189
Mof_N 	N 	0.17105	0.34264	0.24318	-0.266
Mof_C 	C 	0.1594	0.4021	0.2689	0.096
Mof_H 	H 	0.1299	0.4105	0.3036	0.002
Mof_C 	C 	0.1973	0.45015	0.2367	-0.147
Mof_N 	N 	0.21748	0.35026	0.19397	-0.265
Mof_O 	O 	0.1648	0.54899	0.29235	-0.36
Mof_C 	C 	0.2007	0.5218	0.2503	0.34
Mof_C 	C 	0.2328	0.4147	0.1897	0.094
Mof_H 	H 	0.2629	0.433	0.1596	0.002
Mof_O 	O 	0.24317	0.55496	0.21668	-0.456
Mof_Zn	Zn	0.6457	0.24881	0.72947	1.189
Mof_N 	N 	0.67105	0.15736	0.75682	-0.266
Mof_C 	C 	0.6594	0.0979	0.7311	0.096
Mof_H 	H 	0.6299	0.0895	0.6964	0.002
Mof_C 	C 	0.6973	0.04985	0.7633	-0.147
Mof_N 	N 	0.71748	0.14974	0.80603	-0.265
Mof_O 	O 	0.6648	0.95101	0.70765	-0.36
Mof_C 	C 	0.7007	0.9782	0.7497	0.34
Mof_C 	C 	0.7328	0.0853	0.8103	0.094
Mof_H 	H 	0.7629	0.067	0.8404	0.002
Mof_O 	O 	0.74317	0.94504	0.78332	-0.456
Mof_Zn	Zn	0.3543	0.74881	0.77053	1.189
Mof_N 	N 	0.32895	0.65736	0.74318	-0.266
Mof_C 	C 	0.3406	0.5979	0.7689	0.096
Mof_H 	H 	0.3701	0.5895	0.8036	0.002
Mof_C 	C 	0.3027	0.54985	0.7367	-0.147
Mof_N 	N 	0.28252	0.64974	0.69397	-0.265
Mof_O 	O 	0.3352	0.45101	0.79235	-0.36
Mof_C 	C 	0.2993	0.4782	0.7503	0.34
Mof_C 	C 	0.2672	0.5853	0.6897	0.094
Mof_H 	H 	0.2371	0.567	0.6596	0.002
Mof_O 	O 	0.25683	0.44504	0.71668	-0.456
Mof_Zn	Zn	0.8543	0.75119	0.22947	1.189
Mof_N 	N 	0.82895	0.84264	0.25682	-0.266
Mof_C 	C 	0.8406	0.9021	0.2311	0.096
Mof_H 	H 	0.8701	0.9105	0.1964	0.002
Mof_C 	C 	0.8027	0.95015	0.2633	-0.147
Mof_N 	N 	0.78252	0.85026	0.30603	-0.265
Mof_O 	O 	0.8352	0.04899	0.20765	-0.36
Mof_C 	C 	0.7993	0.0218	0.2497	0.34
Mof_C 	C 	0.7672	0.9147	0.3103	0.094
Mof_H 	H 	0.7371	0.933	0.3404	0.002
Mof_O 	O 	0.75683	0.05496	0.28332	-0.456
Mof_Zn	Zn	0.27053	0.1457	0.25119	1.189
Mof_N 	N 	0.24318	0.17105	0.34264	-0.266
Mof_C 	C 	0.2689	0.1594	0.4021	0.096
Mof_H 	H 	0.3036	0.1299	0.4105	0.002
Mof_C 	C 	0.2367	0.1973	0.45015	-0.147
Mof_N 	N 	0.19397	0.21748	0.35026	-0.265
Mof_O 	O 	0.29235	0.1648	0.54899	-0.36
Mof_C 	C 	0.2503	0.2007	0.5218	0.34
Mof_C 	C 	0.1897	0.2328	0.4147	0.094
Mof_H 	H 	0.1596	0.2629	0.433	0.002
Mof_O 	O 	0.21668	0.24317	0.55496	-0.456
Mof_Zn	Zn	0.72947	0.6457	0.24881	1.189
Mof_N 	N 	0.75682	0.67105	0.15736	-0.266
Mof_C 	C 	0.7311	0.6594	0.0979	0.096
Mof_H 	H 	0.6964	0.6299	0.0895	0.002
Mof_C 	C 	0.7633	0.6973	0.04985	-0.147
Mof_N 	N 	0.80603	0.71748	0.14974	-0.265
Mof_O 	O 	0.70765	0.6648	0.95101	-0.36
Mof_C 	C 	0.7497	0.7007	0.9782	0.34
Mof_C 	C 	0.8103	0.7328	0.0853	0.094
Mof_H 	H 	0.8404	0.7629	0.067	0.002
Mof_O 	O 	0.78332	0.74317	0.94504	-0.456
Mof_Zn	Zn	0.77053	0.3543	0.74881	1.189
Mof_N 	N 	0.74318	0.32895	0.65736	-0.266
Mof_C 	C 	0.7689	0.3406	0.5979	0.096
Mof_H 	H 	0.8036	0.3701	0.5895	0.002
Mof_C 	C 	0.7367	0.3027	0.54985	-0.147
Mof_N 	N 	0.69397	0.28252	0.64974	-0.265
Mof_O 	O 	0.79235	0.3352	0.45101	-0.36
Mof_C 	C 	0.7503	0.2993	0.4782	0.34
Mof_C 	C 	0.6897	0.2672	0.5853	0.094
Mof_H 	H 	0.6596	0.2371	0.567	0.002
Mof_O 	O 	0.71668	0.25683	0.44504	-0.456
Mof_Zn	Zn	0.22947	0.8543	0.75119	1.189
Mof_N 	N 	0.25682	0.82895	0.84264	-0.266
Mof_C 	C 	0.2311	0.8406	0.9021	0.096
Mof_H 	H 	0.1964	0.8701	0.9105	0.002
Mof_C 	C 	0.2633	0.8027	0.95015	-0.147
Mof_N 	N 	0.30603	0.78252	0.85026	-0.265
Mof_O 	O 	0.20765	0.8352	0.04899	-0.36
Mof_C 	C 	0.2497	0.7993	0.0218	0.34
Mof_C 	C 	0.3103	0.7672	0.9147	0.094
Mof_H 	H 	0.3404	0.7371	0.933	0.002
Mof_O 	O 	0.28332	0.75683	0.05496	-0.456
Mof_Zn	Zn	0.74881	0.72947	0.8543	1.189
Mof_N 	N 	0.65736	0.75682	0.82895	-0.266
Mof_C 	C 	0.5979	0.7311	0.8406	0.096
Mof_H 	H 	0.5895	0.6964	0.8701	0.002
Mof_C 	C 	0.54985	0.7633	0.8027	-0.147
Mof_N 	N 	0.64974	0.80603	0.78252	-0.265
Mof_O 	O 	0.45101	0.70765	0.8352	-0.36
Mof_C 	C 	0.4782	0.7497	0.7993	0.34
Mof_C 	C 	0.5853	0.8103	0.7672	0.094
Mof_H 	H 	0.567	0.8404	0.7371	0.002
Mof_O 	O 	0.44504	0.78332	0.75683	-0.456
Mof_Zn	Zn	0.75119	0.27053	0.3543	1.189
Mof_N 	N 	0.84264	0.24318	0.32895	-0.266
Mof_C 	C 	0.9021	0.2689	0.3406	0.096
Mof_H 	H 	0.9105	0.3036	0.3701	0.002
Mof_C 	C 	0.95015	0.2367	0.3027	-0.147
Mof_N 	N 	0.85026	0.19397	0.28252	-0.265
Mof_O 	O 	0.04899	0.29235	0.3352	-0.36
Mof_C 	C 	0.0218	0.2503	0.2993	0.34
Mof_C 	C 	0.9147	0.1897	0.2672	0.094
Mof_H 	H 	0.933	0.1596	0.2371	0.002
Mof_O 	O 	0.05496	0.21668	0.25683	-0.456
Mof_Zn	Zn	0.25119	0.22947	0.6457	1.189
Mof_N 	N 	0.34264	0.25682	0.67105	-0.266
Mof_C 	C 	0.4021	0.2311	0.6594	0.096
Mof_H 	H 	0.4105	0.1964	0.6299	0.002
Mof_C 	C 	0.45015	0.2633	0.6973	-0.147
Mof_N 	N 	0.35026	0.30603	0.71748	-0.265
Mof_O 	O 	0.54899	0.20765	0.6648	-0.36
Mof_C 	C 	0.5218	0.2497	0.7007	0.34
Mof_C 	C 	0.4147	0.3103	0.7328	0.094
Mof_H 	H 	0.433	0.3404	0.7629	0.002
Mof_O 	O 	0.55496	0.28332	0.74317	-0.456
Mof_Zn	Zn	0.24881	0.77053	0.1457	1.189
Mof_N 	N 	0.15736	0.74318	0.17105	-0.266
Mof_C 	C 	0.0979	0.7689	0.1594	0.096
Mof_H 	H 	0.0895	0.8036	0.1299	0.002
Mof_C 	C 	0.04985	0.7367	0.1973	-0.147
Mof_N 	N 	0.14974	0.69397	0.21748	-0.265
Mof_O 	O 	0.95101	0.79235	0.1648	-0.36
Mof_C 	C 	0.9782	0.7503	0.2007	0.34
Mof_C 	C 	0.0853	0.6897	0.2328	0.094
Mof_H 	H 	0.067	0.6596	0.2629	0.002
Mof_O 	O 	0.94504	0.71668	0.24317	-0.456
Mof_Zn	Zn	0.8543	0.74881	0.72947	1.189
Mof_N 	N 	0.82895	0.65736	0.75682	-0.266
Mof_C 	C 	0.8406	0.5979	0.7311	0.096
Mof_H 	H 	0.8701	0.5895	0.6964	0.002
Mof_C 	C 	0.8027	0.54985	0.7633	-0.147
Mof_N 	N 	0.78252	0.64974	0.80603	-0.265
Mof_O 	O 	0.8352	0.45101	0.70765	-0.36
Mof_C 	C 	0.7993	0.4782	0.7497	0.34
Mof_C 	C 	0.7672	0.5853	0.8103	0.094
Mof_H 	H 	0.7371	0.567	0.8404	0.002
Mof_O 	O 	0.75683	0.44504	0.78332	-0.456
Mof_Zn	Zn	0.3543	0.75119	0.27053	1.189
Mof_N 	N 	0.32895	0.84264	0.24318	-0.266
Mof_C 	C 	0.3406	0.9021	0.2689	0.096
Mof_H 	H 	0.3701	0.9105	0.3036	0.002
Mof_C 	C 	0.3027	0.95015	0.2367	-0.147
Mof_N 	N 	0.28252	0.85026	0.19397	-0.265
Mof_O 	O 	0.3352	0.04899	0.29235	-0.36
Mof_C 	C 	0.2993	0.0218	0.2503	0.34
Mof_C 	C 	0.2672	0.9147	0.1897	0.094
Mof_H 	H 	0.2371	0.933	0.1596	0.002
Mof_O 	O 	0.25683	0.05496	0.21668	-0.456
Mof_Zn	Zn	0.6457	0.25119	0.22947	1.189
Mof_N 	N 	0.67105	0.34264	0.25682	-0.266
Mof_C 	C 	0.6594	0.4021	0.2311	0.096
Mof_H 	H 	0.6299	0.4105	0.1964	0.002
Mof_C 	C 	0.6973	0.45015	0.2633	-0.147
Mof_N 	N 	0.71748	0.35026	0.30603	-0.265
Mof_O 	O 	0.6648	0.54899	0.20765	-0.36
Mof_C 	C 	0.7007	0.5218	0.2497	0.34
Mof_C 	C 	0.7328	0.4147	0.3103	0.094
Mof_H 	H 	0.7629	0.433	0.3404	0.002
Mof_O 	O 	0.74317	0.55496	0.28332	-0.456
Mof_Zn	Zn	0.1457	0.24881	0.77053	1.189
Mof_N 	N 	0.17105	0.15736	0.74318	-0.266
Mof_C 	C 	0.1594	0.0979	0.7689	0.096
Mof_H 	H 	0.1299	0.0895	0.8036	0.002
Mof_C 	C 	0.1973	0.04985	0.7367	-0.147
Mof_N 	N 	0.21748	0.14974	0.69397	-0.265
Mof_O 	O 	0.1648	0.95101	0.79235	-0.36
Mof_C 	C 	0.2007	0.9782	0.7503	0.34
Mof_C 	C 	0.2328	0.0853	0.6897	0.094
Mof_H 	H 	0.2629	0.067	0.6596	0.002
Mof_O 	O 	0.24317	0.94504	0.71668	-0.456
Mof_Zn	Zn	0.72947	0.8543	0.74881	1.189
Mof_N 	N 	0.75682	0.82895	0.65736	-0.266
Mof_C 	C 	0.7311	0.8406	0.5979	0.096
Mof_H 	H 	0.6964	0.8701	0.5895	0.002
Mof_C 	C 	0.7633	0.8027	0.54985	-0.147
Mof_N 	N 	0.80603	0.78252	0.64974	-0.265
Mof_O 	O 	0.70765	0.8352	0.45101	-0.36
Mof_C 	C 	0.7497	0.7993	0.4782	0.34
Mof_C 	C 	0.8103	0.7672	0.5853	0.094
Mof_H 	H 	0.8404	0.7371	0.567	0.002
Mof_O 	O 	0.78332	0.75683	0.44504	-0.456
Mof_Zn	Zn	0.27053	0.3543	0.75119	1.189
Mof_N 	N 	0.24318	0.32895	0.84264	-0.266
Mof_C 	C 	0.2689	0.3406	0.9021	0.096
Mof_H 	H 	0.3036	0.3701	0.9105	0.002
Mof_C 	C 	0.2367	0.3027	0.95015	-0.147
Mof_N 	N 	0.19397	0.28252	0.85026	-0.265
Mof_O 	O 	0.29235	0.3352	0.04899	-0.36
Mof_C 	C 	0.2503	0.2993	0.0218	0.34
Mof_C 	C 	0.1897	0.2672	0.9147	0.094
Mof_H 	H 	0.1596	0.2371	0.933	0.002
Mof_O 	O 	0.21668	0.25683	0.05496	-0.456
Mof_Zn	Zn	0.22947	0.6457	0.25119	1.189
Mof_N 	N 	0.25682	0.67105	0.34264	-0.266
Mof_C 	C 	0.2311	0.6594	0.4021	0.096
Mof_H 	H 	0.1964	0.6299	0.4105	0.002
Mof_C 	C 	0.2633	0.6973	0.45015	-0.147
Mof_N 	N 	0.30603	0.71748	0.35026	-0.265
Mof_O 	O 	0.20765	0.6648	0.54899	-0.36
Mof_C 	C 	0.2497	0.7007	0.5218	0.34
Mof_C 	C 	0.3103	0.7328	0.4147	0.094
Mof_H 	H 	0.3404	0.7629	0.433	0.002
Mof_O 	O 	0.28332	0.74317	0.55496	-0.456
Mof_Zn	Zn	0.77053	0.1457	0.24881	1.189
Mof_N 	N 	0.74318	0.17105	0.15736	-0.266
Mof_C 	C 	0.7689	0.1594	0.0979	0.096
Mof_H 	H 	0.8036	0.1299	0.0895	0.002
Mof_C 	C 	0.7367	0.1973	0.04985	-0.147
Mof_N 	N 	0.69397	0.21748	0.14974	-0.265
Mof_O 	O 	0.79235	0.1648	0.95101	-0.36
Mof_C 	C 	0.7503	0.2007	0.9782	0.34
Mof_C 	C 	0.6897	0.2328	0.0853	0.094
Mof_H 	H 	0.6596	0.2629	0.067	0.002
Mof_O 	O 	0.71668	0.24317	0.94504	-0.456
Mof_O 	O 	0.2012	0.2012	0.2012	-0.689
Mof_O 	O 	0.2988	0.7988	0.7012	-0.689
Mof_O 	O 	0.7988	0.7012	0.2988	-0.689
Mof_O 	O 	0.7012	0.2988	0.7988	-0.689
Mof_O 	O 	0.7988	0.7988	0.7988	-0.689
Mof_O 	O 	0.7012	0.2012	0.2988	-0.689
Mof_O 	O 	0.2012	0.2988	0.7012	-0.689
Mof_O 	O 	0.2988	0.7012	0.2012	-0.689
_end
