data_functionalizedCrystal
_audit_creation_method	'EQeq! by Chris Wilmer'
_symmetry_space_group_name_H-M	'P1'
_symmetry_Int_Tables_number	1
_symmetry_cell_setting	triclinic
loop_
_symmetry_equiv_pos_as_xyz
  x,y,z
_cell_length_a	46.374
_cell_length_b	51.581
_cell_length_c	53.407
_cell_angle_alpha	90
_cell_angle_beta	90
_cell_angle_gamma	90
loop_
_atom_site_label
_atom_site_type_symbol
_atom_site_fract_x
_atom_site_fract_y
_atom_site_fract_z
_atom_site_charge
Mof_C 	C 	0.4949	0.5204	0.791	0.011
Mof_C 	C 	0.4699	0.5167	0.7767	-0.008
Mof_C 	C 	0.4431	0.5113	0.7875	0.003
Mof_C 	C 	0.4415	0.5073	0.8131	-0.003
Mof_C 	C 	0.4651	0.5099	0.828	0.009
Mof_C 	C 	0.4912	0.5177	0.817	-0.027
Mof_C 	C 	0.7684	0.5096	0.9344	0.012
Mof_C 	C 	0.7673	0.4958	0.9568	-0.027
Mof_C 	C 	0.7613	0.4679	0.9569	0.006
Mof_C 	C 	0.7575	0.4545	0.9367	-0.003
Mof_C 	C 	0.7592	0.4694	0.9152	0.006
Mof_C 	C 	0.7654	0.4958	0.9141	-0.013
Mof_C 	C 	0.6617	0.4956	0.9508	0.018
Mof_C 	C 	0.6352	0.4853	0.9533	-0.021
Mof_C 	C 	0.6261	0.4604	0.9665	0.006
Mof_C 	C 	0.6481	0.4498	0.9789	-0.003
Mof_C 	C 	0.6773	0.4562	0.9754	0.004
Mof_C 	C 	0.6839	0.4772	0.9605	-0.011
Mof_C 	C 	0.4789	0.5971	0.8082	0.013
Mof_C 	C 	0.456	0.5798	0.8025	-0.007
Mof_C 	C 	0.4353	0.5887	0.7852	0.003
Mof_C 	C 	0.4364	0.615	0.7735	-0.002
Mof_C 	C 	0.46	0.6309	0.779	0.006
Mof_C 	C 	0.4813	0.6217	0.7974	-0.024
Mof_C 	C 	0.5067	0.5146	0.8874	0.019
Mof_C 	C 	0.5097	0.49	0.8815	-0.019
Mof_C 	C 	0.4867	0.472	0.8918	0.005
Mof_C 	C 	0.4648	0.4832	0.9085	-0.002
Mof_C 	C 	0.4597	0.5107	0.9089	0.004
Mof_C 	C 	0.4816	0.5264	0.894	-0.011
Mof_C 	C 	0.4903	0.5634	0.9487	0.017
Mof_C 	C 	0.5056	0.5447	0.9584	-0.028
Mof_C 	C 	0.4944	0.5259	0.9737	0.008
Mof_C 	C 	0.465	0.5279	0.9829	-0.004
Mof_C 	C 	0.4464	0.5465	0.9723	0.004
Mof_C 	C 	0.4603	0.5655	0.9541	-0.008
Mof_C 	C 	0.5446	0.5846	0.003	0.017
Mof_C 	C 	0.5584	0.5621	0.0084	-0.021
Mof_C 	C 	0.5466	0.5436	0.0236	0.008
Mof_C 	C 	0.5196	0.5487	0.0354	-0.005
Mof_C 	C 	0.5075	0.5719	0.0307	0.009
Mof_C 	C 	0.5169	0.586	0.013	-0.018
Mof_C 	C 	0.5941	0.476	0.9016	0.012
Mof_C 	C 	0.5725	0.4842	0.917	-0.027
Mof_C 	C 	0.5556	0.4664	0.9335	0.005
Mof_C 	C 	0.5637	0.438	0.9311	-0.002
Mof_C 	C 	0.5894	0.4314	0.9142	0.003
Mof_C 	C 	0.6027	0.4506	0.8975	-0.005
Mof_C 	C 	0.5847	0.4527	0.8318	0.011
Mof_C 	C 	0.572	0.4283	0.8383	-0.005
Mof_C 	C 	0.594	0.4109	0.8434	0.003
Mof_C 	C 	0.6219	0.4138	0.8361	-0.003
Mof_C 	C 	0.6328	0.4364	0.832	0.007
Mof_C 	C 	0.6126	0.4591	0.8287	-0.026
Mof_C 	C 	0.53664	0.61283	0.75344	0.012
Mof_C 	C 	0.5303	0.63916	0.7535	-0.02
Mof_C 	C 	0.5081	0.64867	0.73858	0.007
Mof_C 	C 	0.4923	0.6318	0.72359	-0.003
Mof_C 	C 	0.4987	0.6055	0.72353	0.005
Mof_C 	C 	0.52082	0.596	0.73845	-0.012
Mof_C 	C 	0.6085	0.51531	0.74	0.023
Mof_C 	C 	0.5913	0.53678	0.7351	-0.035
Mof_C 	C 	0.5872	0.54509	0.71063	0.01
Mof_C 	C 	0.6003	0.5319	0.691	-0.005
Mof_C 	C 	0.6175	0.5105	0.6958	0.005
Mof_C 	C 	0.6217	0.5022	0.7203	-0.01
Mof_C 	C 	0.675	0.56139	0.7539	0.002
Mof_C 	C 	0.6723	0.55115	0.7299	-0.004
Mof_C 	C 	0.696	0.53968	0.7184	0.003
Mof_C 	C 	0.7223	0.53844	0.7308	-0.002
Mof_C 	C 	0.725	0.54867	0.7547	0.007
Mof_C 	C 	0.7013	0.56015	0.7663	-0.023
Mof_C 	C 	0.4561	0.6482	0.8717	0.014
Mof_C 	C 	0.4586	0.6269	0.8559	-0.018
Mof_C 	C 	0.4358	0.6202	0.8403	0.006
Mof_C 	C 	0.4107	0.6349	0.8403	-0.003
Mof_C 	C 	0.4082	0.6562	0.8561	0.005
Mof_C 	C 	0.431	0.6629	0.8717	-0.013
Mof_C 	C 	0.6337	0.5517	0.0104	0.013
Mof_C 	C 	0.6244	0.5293	0.9983	-0.028
Mof_C 	C 	0.615	0.5072	0.0154	0.006
Mof_C 	C 	0.6171	0.5085	0.0408	-0.003
Mof_C 	C 	0.6261	0.531	0.0505	0.004
Mof_C 	C 	0.637	0.5526	0.0354	-0.007
Mof_C 	C 	0.7235	0.5606	0.0224	0.012
Mof_C 	C 	0.7357	0.549	0.0428	-0.016
Mof_C 	C 	0.7353	0.5623	0.0672	0.004
Mof_C 	C 	0.7243	0.5886	0.069	-0.002
Mof_C 	C 	0.7153	0.6017	0.0452	0.008
Mof_C 	C 	0.7137	0.5865	0.0239	-0.028
Mof_C 	C 	0.7502	0.529	0.8529	0.012
Mof_C 	C 	0.759	0.5038	0.8477	-0.006
Mof_C 	C 	0.7815	0.4994	0.831	0.004
Mof_C 	C 	0.7952	0.5202	0.8196	-0.003
Mof_C 	C 	0.7864	0.5454	0.8248	0.008
Mof_C 	C 	0.764	0.5498	0.8415	-0.029
Mof_C 	C 	0.8033	0.6197	0.9665	0.015
Mof_C 	C 	0.8255	0.6291	0.983	-0.006
Mof_C 	C 	0.8542	0.6355	0.974	0.003
Mof_C 	C 	0.8589	0.6352	0.9458	-0.001
Mof_C 	C 	0.8353	0.6245	0.9281	0.006
Mof_C 	C 	0.8085	0.6175	0.9404	-0.025
Mof_C 	C 	0.5888	0.4401	0.7471	0.01
Mof_C 	C 	0.5947	0.4445	0.7204	-0.019
Mof_C 	C 	0.6228	0.4371	0.7117	0.006
Mof_C 	C 	0.6432	0.4287	0.7274	-0.002
Mof_C 	C 	0.6376	0.4234	0.7537	0.004
Mof_C 	C 	0.6097	0.4304	0.7643	-0.008
Mof_Cd	Cd	0.60641	0.5898	0.854	0.254
Mof_Cd	Cd	0.54925	0.56788	0.908	0.27
Mof_Cd	Cd	0.66414	0.60793	0.90674	0.254
Mof_Cd	Cd	0.60245	0.58839	0.96	0.272
Mof_Cd	Cd	0.62675	0.53699	0.91043	0.272
Mof_Cd	Cd	0.52657	0.62468	0.85291	0.274
Mof_Cd	Cd	0.66788	0.61063	0.79957	0.272
Mof_Cd	Cd	0.68306	0.55938	0.96597	0.277
Mof_Cd	Cd	0.72996	0.62762	0.95255	0.279
Mof_Cd	Cd	0.54319	0.56778	0.80359	0.277
Mof_Cd	Cd	0.62619	0.5429	0.79471	0.277
Mof_Cd	Cd	0.68458	0.55729	0.84955	0.271
Mof_Cd	Cd	0.73966	0.56508	0.90576	0.277
Mof_Cd	Cd	0.57589	0.51496	0.85397	0.279
Mof_S 	S 	0.64599	0.57106	0.8803	-0.264
Mof_S 	S 	0.58784	0.55345	0.82662	-0.256
Mof_S 	S 	0.56571	0.60581	0.8807	-0.263
Mof_S 	S 	0.58547	0.5498	0.93716	-0.198
Mof_S 	S 	0.70446	0.58943	0.93315	-0.254
Mof_S 	S 	0.61439	0.49823	0.88251	-0.119
Mof_S 	S 	0.70761	0.59103	0.82358	-0.198
Mof_S 	S 	0.55987	0.60914	0.98279	-0.129
Mof_S 	S 	0.64297	0.57906	0.99166	-0.12
Mof_S 	S 	0.67157	0.52354	0.93524	-0.133
Mof_S 	S 	0.50228	0.58533	0.92669	-0.12
Mof_S 	S 	0.53232	0.53638	0.87386	-0.13
Mof_Cd	Cd	0.76865	0.56045	0.97596	0.285
Mof_Cd	Cd	0.56125	0.49211	0.78198	0.287
Mof_S 	S 	0.72236	0.54237	0.99463	-0.118
Mof_S 	S 	0.52641	0.52976	0.77631	-0.117
Mof_S 	S 	0.65998	0.52063	0.82542	-0.126
Mof_S 	S 	0.50359	0.58595	0.83051	-0.118
Mof_S 	S 	0.49224	0.64271	0.88632	-0.13
Mof_S 	S 	0.77042	0.61007	0.97849	-0.116
Mof_S 	S 	0.61126	0.50479	0.76825	-0.121
Mof_S 	S 	0.72211	0.53236	0.875	-0.12
Mof_S 	S 	0.55727	0.47771	0.82762	-0.112
Mof_S 	S 	0.6431	0.5805	0.76838	-0.118
Mof_S 	S 	0.7779	0.54321	0.93287	-0.119
Mof_S 	S 	0.5663	0.60011	0.77371	-0.125
Mof_S 	S 	0.55512	0.44915	0.75982	-0.108
Mof_C 	C 	0.6864	0.4984	0.8062	0.013
Mof_C 	C 	0.7049	0.4759	0.7709	0.003
Mof_C 	C 	0.6837	0.4911	0.7816	-0.009
Mof_C 	C 	0.7015	0.5167	0.7934	-0.018
Mof_C 	C 	0.4949	0.0204	0.291	0.011
Mof_C 	C 	0.4699	0.0167	0.2767	-0.008
Mof_C 	C 	0.4431	0.0113	0.2875	0.003
Mof_C 	C 	0.4415	0.0073	0.3131	-0.003
Mof_C 	C 	0.4651	0.0099	0.328	0.009
Mof_C 	C 	0.4912	0.0177	0.317	-0.027
Mof_C 	C 	0.7684	0.0096	0.4344	0.012
Mof_C 	C 	0.7673	0.9958	0.4568	-0.027
Mof_C 	C 	0.7613	0.9679	0.4569	0.006
Mof_C 	C 	0.7575	0.9545	0.4367	-0.003
Mof_C 	C 	0.7592	0.9694	0.4152	0.006
Mof_C 	C 	0.7654	0.9958	0.4141	-0.013
Mof_C 	C 	0.6617	0.9956	0.4508	0.018
Mof_C 	C 	0.6352	0.9853	0.4533	-0.021
Mof_C 	C 	0.6261	0.9604	0.4665	0.006
Mof_C 	C 	0.6481	0.9498	0.4789	-0.003
Mof_C 	C 	0.6773	0.9562	0.4754	0.004
Mof_C 	C 	0.6839	0.9772	0.4605	-0.011
Mof_C 	C 	0.4789	0.0971	0.3082	0.013
Mof_C 	C 	0.456	0.0798	0.3025	-0.007
Mof_C 	C 	0.4353	0.0887	0.2852	0.003
Mof_C 	C 	0.4364	0.115	0.2735	-0.002
Mof_C 	C 	0.46	0.1309	0.279	0.006
Mof_C 	C 	0.4813	0.1217	0.2974	-0.025
Mof_C 	C 	0.5067	0.0146	0.3874	0.018
Mof_C 	C 	0.5097	0.99	0.3815	-0.02
Mof_C 	C 	0.4867	0.972	0.3918	0.004
Mof_C 	C 	0.4648	0.9832	0.4085	-0.003
Mof_C 	C 	0.4597	0.0107	0.4089	0.003
Mof_C 	C 	0.4816	0.0264	0.394	-0.012
Mof_C 	C 	0.4903	0.0634	0.4487	0.016
Mof_C 	C 	0.5056	0.0447	0.4584	-0.029
Mof_C 	C 	0.4944	0.0259	0.4737	0.007
Mof_C 	C 	0.465	0.0279	0.4829	-0.005
Mof_C 	C 	0.4464	0.0465	0.4723	0.003
Mof_C 	C 	0.4603	0.0655	0.4541	-0.009
Mof_C 	C 	0.5446	0.0846	0.503	0.016
Mof_C 	C 	0.5584	0.0621	0.5084	-0.022
Mof_C 	C 	0.5466	0.0436	0.5236	0.007
Mof_C 	C 	0.5196	0.0487	0.5354	-0.006
Mof_C 	C 	0.5075	0.0719	0.5307	0.008
Mof_C 	C 	0.5169	0.086	0.513	-0.019
Mof_C 	C 	0.5941	0.976	0.4016	0.011
Mof_C 	C 	0.5725	0.9842	0.417	-0.028
Mof_C 	C 	0.5556	0.9664	0.4335	0.004
Mof_C 	C 	0.5637	0.938	0.4311	-0.003
Mof_C 	C 	0.5894	0.9314	0.4142	0.002
Mof_C 	C 	0.6027	0.9506	0.3975	-0.006
Mof_C 	C 	0.5847	0.9527	0.3318	0.01
Mof_C 	C 	0.572	0.9283	0.3383	-0.006
Mof_C 	C 	0.594	0.9109	0.3434	0.002
Mof_C 	C 	0.6219	0.9138	0.3361	-0.004
Mof_C 	C 	0.6328	0.9364	0.332	0.006
Mof_C 	C 	0.6126	0.9591	0.3287	-0.027
Mof_C 	C 	0.53664	0.11283	0.25344	0.011
Mof_C 	C 	0.5303	0.13916	0.2535	-0.021
Mof_C 	C 	0.5081	0.14867	0.23858	0.006
Mof_C 	C 	0.4923	0.1318	0.22359	-0.004
Mof_C 	C 	0.4987	0.1055	0.22353	0.004
Mof_C 	C 	0.52082	0.096	0.23845	-0.013
Mof_C 	C 	0.6085	0.01531	0.24	0.022
Mof_C 	C 	0.5913	0.03678	0.2351	-0.036
Mof_C 	C 	0.5872	0.04509	0.21063	0.009
Mof_C 	C 	0.6003	0.0319	0.191	-0.006
Mof_C 	C 	0.6175	0.0105	0.1958	0.004
Mof_C 	C 	0.6217	0.0022	0.2203	-0.011
Mof_C 	C 	0.675	0.06139	0.2539	0.001
Mof_C 	C 	0.6723	0.05115	0.2299	-0.005
Mof_C 	C 	0.696	0.03968	0.2184	0.002
Mof_C 	C 	0.7223	0.03844	0.2308	-0.003
Mof_C 	C 	0.725	0.04867	0.2547	0.006
Mof_C 	C 	0.7013	0.06015	0.2663	-0.024
Mof_C 	C 	0.4561	0.1482	0.3717	0.013
Mof_C 	C 	0.4586	0.1269	0.3559	-0.019
Mof_C 	C 	0.4358	0.1202	0.3403	0.005
Mof_C 	C 	0.4107	0.1349	0.3403	-0.004
Mof_C 	C 	0.4082	0.1562	0.3561	0.004
Mof_C 	C 	0.431	0.1629	0.3717	-0.014
Mof_C 	C 	0.6337	0.0517	0.5104	0.012
Mof_C 	C 	0.6244	0.0293	0.4983	-0.029
Mof_C 	C 	0.615	0.0072	0.5154	0.005
Mof_C 	C 	0.6171	0.0085	0.5408	-0.004
Mof_C 	C 	0.6261	0.031	0.5505	0.003
Mof_C 	C 	0.637	0.0526	0.5354	-0.008
Mof_C 	C 	0.7235	0.0606	0.5224	0.011
Mof_C 	C 	0.7357	0.049	0.5428	-0.017
Mof_C 	C 	0.7353	0.0623	0.5672	0.003
Mof_C 	C 	0.7243	0.0886	0.569	-0.003
Mof_C 	C 	0.7153	0.1017	0.5452	0.007
Mof_C 	C 	0.7137	0.0865	0.5239	-0.029
Mof_C 	C 	0.7502	0.029	0.3529	0.011
Mof_C 	C 	0.759	0.0038	0.3477	-0.007
Mof_C 	C 	0.7815	0.9994	0.331	0.003
Mof_C 	C 	0.7952	0.0202	0.3196	-0.004
Mof_C 	C 	0.7864	0.0454	0.3248	0.007
Mof_C 	C 	0.764	0.0498	0.3415	-0.03
Mof_C 	C 	0.8033	0.1197	0.4665	0.014
Mof_C 	C 	0.8255	0.1291	0.483	-0.007
Mof_C 	C 	0.8542	0.1355	0.474	0.002
Mof_C 	C 	0.8589	0.1352	0.4458	-0.002
Mof_C 	C 	0.8353	0.1245	0.4281	0.005
Mof_C 	C 	0.8085	0.1175	0.4404	-0.026
Mof_C 	C 	0.5888	0.9401	0.2471	0.009
Mof_C 	C 	0.5947	0.9445	0.2204	-0.02
Mof_C 	C 	0.6228	0.9371	0.2117	0.005
Mof_C 	C 	0.6432	0.9287	0.2274	-0.003
Mof_C 	C 	0.6376	0.9234	0.2537	0.003
Mof_C 	C 	0.6097	0.9304	0.2643	-0.009
Mof_Cd	Cd	0.60641	0.0898	0.354	0.253
Mof_Cd	Cd	0.54925	0.06788	0.408	0.269
Mof_Cd	Cd	0.66414	0.10793	0.40674	0.253
Mof_Cd	Cd	0.60245	0.08839	0.46	0.271
Mof_Cd	Cd	0.62675	0.03699	0.41043	0.271
Mof_Cd	Cd	0.52657	0.12468	0.35291	0.273
Mof_Cd	Cd	0.66788	0.11063	0.29957	0.271
Mof_Cd	Cd	0.68306	0.05938	0.46597	0.276
Mof_Cd	Cd	0.72996	0.12762	0.45255	0.278
Mof_Cd	Cd	0.54319	0.06778	0.30359	0.276
Mof_Cd	Cd	0.62619	0.0429	0.29471	0.276
Mof_Cd	Cd	0.68458	0.05729	0.34955	0.27
Mof_Cd	Cd	0.73966	0.06508	0.40576	0.276
Mof_Cd	Cd	0.57589	0.01496	0.35397	0.278
Mof_S 	S 	0.64599	0.07106	0.3803	-0.265
Mof_S 	S 	0.58784	0.05345	0.32662	-0.257
Mof_S 	S 	0.56571	0.10581	0.3807	-0.264
Mof_S 	S 	0.58547	0.0498	0.43716	-0.199
Mof_S 	S 	0.70446	0.08943	0.43315	-0.255
Mof_S 	S 	0.61439	0.99823	0.38251	-0.12
Mof_S 	S 	0.70761	0.09103	0.32358	-0.199
Mof_S 	S 	0.55987	0.10914	0.48279	-0.13
Mof_S 	S 	0.64297	0.07906	0.49166	-0.121
Mof_S 	S 	0.67157	0.02354	0.43524	-0.134
Mof_S 	S 	0.50228	0.08533	0.42669	-0.121
Mof_S 	S 	0.53232	0.03638	0.37386	-0.131
Mof_Cd	Cd	0.76865	0.06045	0.47596	0.284
Mof_Cd	Cd	0.56125	0.99211	0.28198	0.286
Mof_S 	S 	0.72236	0.04237	0.49463	-0.119
Mof_S 	S 	0.52641	0.02976	0.27631	-0.118
Mof_S 	S 	0.65998	0.02063	0.32542	-0.127
Mof_S 	S 	0.50359	0.08595	0.33051	-0.119
Mof_S 	S 	0.49224	0.14271	0.38632	-0.131
Mof_S 	S 	0.77042	0.11007	0.47849	-0.117
Mof_S 	S 	0.61126	0.00479	0.26825	-0.122
Mof_S 	S 	0.72211	0.03236	0.375	-0.121
Mof_S 	S 	0.55727	0.97771	0.32762	-0.113
Mof_S 	S 	0.6431	0.0805	0.26838	-0.119
Mof_S 	S 	0.7779	0.04321	0.43287	-0.12
Mof_S 	S 	0.5663	0.10011	0.27371	-0.126
Mof_S 	S 	0.55512	0.94915	0.25982	-0.109
Mof_C 	C 	0.6864	0.9984	0.3062	0.012
Mof_C 	C 	0.7049	0.9759	0.2709	0.002
Mof_C 	C 	0.6837	0.9911	0.2816	-0.01
Mof_C 	C 	0.7015	0.0167	0.2934	-0.019
Mof_C 	C 	0.9949	0.5204	0.291	0.01
Mof_C 	C 	0.9699	0.5167	0.2767	-0.009
Mof_C 	C 	0.9431	0.5113	0.2875	0.002
Mof_C 	C 	0.9415	0.5073	0.3131	-0.004
Mof_C 	C 	0.9651	0.5099	0.328	0.008
Mof_C 	C 	0.9912	0.5177	0.317	-0.028
Mof_C 	C 	0.2684	0.5096	0.4344	0.011
Mof_C 	C 	0.2673	0.4958	0.4568	-0.028
Mof_C 	C 	0.2613	0.4679	0.4569	0.005
Mof_C 	C 	0.2575	0.4545	0.4367	-0.004
Mof_C 	C 	0.2592	0.4694	0.4152	0.005
Mof_C 	C 	0.2654	0.4958	0.4141	-0.014
Mof_C 	C 	0.1617	0.4956	0.4508	0.017
Mof_C 	C 	0.1352	0.4853	0.4533	-0.022
Mof_C 	C 	0.1261	0.4604	0.4665	0.005
Mof_C 	C 	0.1481	0.4498	0.4789	-0.004
Mof_C 	C 	0.1773	0.4562	0.4754	0.003
Mof_C 	C 	0.1839	0.4772	0.4605	-0.012
Mof_C 	C 	0.9789	0.5971	0.3082	0.012
Mof_C 	C 	0.956	0.5798	0.3025	-0.008
Mof_C 	C 	0.9353	0.5887	0.2852	0.002
Mof_C 	C 	0.9364	0.615	0.2735	-0.003
Mof_C 	C 	0.96	0.6309	0.279	0.005
Mof_C 	C 	0.9813	0.6217	0.2974	-0.025
Mof_C 	C 	0.0067	0.5146	0.3874	0.018
Mof_C 	C 	0.0097	0.49	0.3815	-0.02
Mof_C 	C 	0.9867	0.472	0.3918	0.004
Mof_C 	C 	0.9648	0.4832	0.4085	-0.003
Mof_C 	C 	0.9597	0.5107	0.4089	0.003
Mof_C 	C 	0.9816	0.5264	0.394	-0.012
Mof_C 	C 	0.9903	0.5634	0.4487	0.016
Mof_C 	C 	0.0056	0.5447	0.4584	-0.029
Mof_C 	C 	0.9944	0.5259	0.4737	0.007
Mof_C 	C 	0.965	0.5279	0.4829	-0.005
Mof_C 	C 	0.9464	0.5465	0.4723	0.003
Mof_C 	C 	0.9603	0.5655	0.4541	-0.009
Mof_C 	C 	0.0446	0.5846	0.503	0.016
Mof_C 	C 	0.0584	0.5621	0.5084	-0.022
Mof_C 	C 	0.0466	0.5436	0.5236	0.007
Mof_C 	C 	0.0196	0.5487	0.5354	-0.006
Mof_C 	C 	0.0075	0.5719	0.5307	0.008
Mof_C 	C 	0.0169	0.586	0.513	-0.019
Mof_C 	C 	0.0941	0.476	0.4016	0.011
Mof_C 	C 	0.0725	0.4842	0.417	-0.028
Mof_C 	C 	0.0556	0.4664	0.4335	0.004
Mof_C 	C 	0.0637	0.438	0.4311	-0.003
Mof_C 	C 	0.0894	0.4314	0.4142	0.002
Mof_C 	C 	0.1027	0.4506	0.3975	-0.006
Mof_C 	C 	0.0847	0.4527	0.3318	0.01
Mof_C 	C 	0.072	0.4283	0.3383	-0.006
Mof_C 	C 	0.094	0.4109	0.3434	0.002
Mof_C 	C 	0.1219	0.4138	0.3361	-0.004
Mof_C 	C 	0.1328	0.4364	0.332	0.006
Mof_C 	C 	0.1126	0.4591	0.3287	-0.027
Mof_C 	C 	0.03664	0.61283	0.25344	0.011
Mof_C 	C 	0.0303	0.63916	0.2535	-0.021
Mof_C 	C 	0.0081	0.64867	0.23858	0.006
Mof_C 	C 	0.9923	0.6318	0.22359	-0.004
Mof_C 	C 	0.9987	0.6055	0.22353	0.004
Mof_C 	C 	0.02082	0.596	0.23845	-0.013
Mof_C 	C 	0.1085	0.51531	0.24	0.022
Mof_C 	C 	0.0913	0.53678	0.2351	-0.036
Mof_C 	C 	0.0872	0.54509	0.21063	0.009
Mof_C 	C 	0.1003	0.5319	0.191	-0.006
Mof_C 	C 	0.1175	0.5105	0.1958	0.004
Mof_C 	C 	0.1217	0.5022	0.2203	-0.011
Mof_C 	C 	0.175	0.56139	0.2539	0.001
Mof_C 	C 	0.1723	0.55115	0.2299	-0.005
Mof_C 	C 	0.196	0.53968	0.2184	0.002
Mof_C 	C 	0.2223	0.53844	0.2308	-0.003
Mof_C 	C 	0.225	0.54867	0.2547	0.006
Mof_C 	C 	0.2013	0.56015	0.2663	-0.024
Mof_C 	C 	0.9561	0.6482	0.3717	0.013
Mof_C 	C 	0.9586	0.6269	0.3559	-0.019
Mof_C 	C 	0.9358	0.6202	0.3403	0.005
Mof_C 	C 	0.9107	0.6349	0.3403	-0.004
Mof_C 	C 	0.9082	0.6562	0.3561	0.004
Mof_C 	C 	0.931	0.6629	0.3717	-0.014
Mof_C 	C 	0.1337	0.5517	0.5104	0.012
Mof_C 	C 	0.1244	0.5293	0.4983	-0.029
Mof_C 	C 	0.115	0.5072	0.5154	0.005
Mof_C 	C 	0.1171	0.5085	0.5408	-0.004
Mof_C 	C 	0.1261	0.531	0.5505	0.003
Mof_C 	C 	0.137	0.5526	0.5354	-0.008
Mof_C 	C 	0.2235	0.5606	0.5224	0.011
Mof_C 	C 	0.2357	0.549	0.5428	-0.017
Mof_C 	C 	0.2353	0.5623	0.5672	0.003
Mof_C 	C 	0.2243	0.5886	0.569	-0.003
Mof_C 	C 	0.2153	0.6017	0.5452	0.007
Mof_C 	C 	0.2137	0.5865	0.5239	-0.029
Mof_C 	C 	0.2502	0.529	0.3529	0.011
Mof_C 	C 	0.259	0.5038	0.3477	-0.007
Mof_C 	C 	0.2815	0.4994	0.331	0.003
Mof_C 	C 	0.2952	0.5202	0.3196	-0.004
Mof_C 	C 	0.2864	0.5454	0.3248	0.007
Mof_C 	C 	0.264	0.5498	0.3415	-0.03
Mof_C 	C 	0.3033	0.6197	0.4665	0.014
Mof_C 	C 	0.3255	0.6291	0.483	-0.007
Mof_C 	C 	0.3542	0.6355	0.474	0.002
Mof_C 	C 	0.3589	0.6352	0.4458	-0.002
Mof_C 	C 	0.3353	0.6245	0.4281	0.005
Mof_C 	C 	0.3085	0.6175	0.4404	-0.026
Mof_C 	C 	0.0888	0.4401	0.2471	0.009
Mof_C 	C 	0.0947	0.4445	0.2204	-0.02
Mof_C 	C 	0.1228	0.4371	0.2117	0.005
Mof_C 	C 	0.1432	0.4287	0.2274	-0.003
Mof_C 	C 	0.1376	0.4234	0.2537	0.003
Mof_C 	C 	0.1097	0.4304	0.2643	-0.009
Mof_Cd	Cd	0.10641	0.5898	0.354	0.253
Mof_Cd	Cd	0.04925	0.56788	0.408	0.269
Mof_Cd	Cd	0.16414	0.60793	0.40674	0.253
Mof_Cd	Cd	0.10245	0.58839	0.46	0.271
Mof_Cd	Cd	0.12675	0.53699	0.41043	0.271
Mof_Cd	Cd	0.02657	0.62468	0.35291	0.273
Mof_Cd	Cd	0.16788	0.61063	0.29957	0.271
Mof_Cd	Cd	0.18306	0.55938	0.46597	0.276
Mof_Cd	Cd	0.22996	0.62762	0.45255	0.278
Mof_Cd	Cd	0.04319	0.56778	0.30359	0.276
Mof_Cd	Cd	0.12619	0.5429	0.29471	0.276
Mof_Cd	Cd	0.18458	0.55729	0.34955	0.27
Mof_Cd	Cd	0.23966	0.56508	0.40576	0.276
Mof_Cd	Cd	0.07589	0.51496	0.35397	0.278
Mof_S 	S 	0.14599	0.57106	0.3803	-0.265
Mof_S 	S 	0.08784	0.55345	0.32662	-0.257
Mof_S 	S 	0.06571	0.60581	0.3807	-0.264
Mof_S 	S 	0.08547	0.5498	0.43716	-0.199
Mof_S 	S 	0.20446	0.58943	0.43315	-0.255
Mof_S 	S 	0.11439	0.49823	0.38251	-0.12
Mof_S 	S 	0.20761	0.59103	0.32358	-0.199
Mof_S 	S 	0.05987	0.60914	0.48279	-0.13
Mof_S 	S 	0.14297	0.57906	0.49166	-0.121
Mof_S 	S 	0.17157	0.52354	0.43524	-0.134
Mof_S 	S 	0.00228	0.58533	0.42669	-0.121
Mof_S 	S 	0.03232	0.53638	0.37386	-0.131
Mof_Cd	Cd	0.26865	0.56045	0.47596	0.284
Mof_Cd	Cd	0.06125	0.49211	0.28198	0.286
Mof_S 	S 	0.22236	0.54237	0.49463	-0.119
Mof_S 	S 	0.02641	0.52976	0.27631	-0.118
Mof_S 	S 	0.15998	0.52063	0.32542	-0.127
Mof_S 	S 	0.00359	0.58595	0.33051	-0.119
Mof_S 	S 	0.99224	0.64271	0.38632	-0.131
Mof_S 	S 	0.27042	0.61007	0.47849	-0.117
Mof_S 	S 	0.11126	0.50479	0.26825	-0.122
Mof_S 	S 	0.22211	0.53236	0.375	-0.121
Mof_S 	S 	0.05727	0.47771	0.32762	-0.113
Mof_S 	S 	0.1431	0.5805	0.26838	-0.119
Mof_S 	S 	0.2779	0.54321	0.43287	-0.12
Mof_S 	S 	0.0663	0.60011	0.27371	-0.126
Mof_S 	S 	0.05512	0.44915	0.25982	-0.109
Mof_C 	C 	0.1864	0.4984	0.3062	0.012
Mof_C 	C 	0.2049	0.4759	0.2709	0.002
Mof_C 	C 	0.1837	0.4911	0.2816	-0.01
Mof_C 	C 	0.2015	0.5167	0.2934	-0.019
Mof_C 	C 	0.9949	0.0204	0.791	0.01
Mof_C 	C 	0.9699	0.0167	0.7767	-0.009
Mof_C 	C 	0.9431	0.0113	0.7875	0.002
Mof_C 	C 	0.9415	0.0073	0.8131	-0.004
Mof_C 	C 	0.9651	0.0099	0.828	0.008
Mof_C 	C 	0.9912	0.0177	0.817	-0.028
Mof_C 	C 	0.2684	0.0096	0.9344	0.011
Mof_C 	C 	0.2673	0.9958	0.9568	-0.028
Mof_C 	C 	0.2613	0.9679	0.9569	0.005
Mof_C 	C 	0.2575	0.9545	0.9367	-0.004
Mof_C 	C 	0.2592	0.9694	0.9152	0.005
Mof_C 	C 	0.2654	0.9958	0.9141	-0.014
Mof_C 	C 	0.1617	0.9956	0.9508	0.017
Mof_C 	C 	0.1352	0.9853	0.9533	-0.022
Mof_C 	C 	0.1261	0.9604	0.9665	0.005
Mof_C 	C 	0.1481	0.9498	0.9789	-0.004
Mof_C 	C 	0.1773	0.9562	0.9754	0.003
Mof_C 	C 	0.1839	0.9772	0.9605	-0.012
Mof_C 	C 	0.9789	0.0971	0.8082	0.012
Mof_C 	C 	0.956	0.0798	0.8025	-0.008
Mof_C 	C 	0.9353	0.0887	0.7852	0.002
Mof_C 	C 	0.9364	0.115	0.7735	-0.003
Mof_C 	C 	0.96	0.1309	0.779	0.005
Mof_C 	C 	0.9813	0.1217	0.7974	-0.025
Mof_C 	C 	0.0067	0.0146	0.8874	0.018
Mof_C 	C 	0.0097	0.99	0.8815	-0.02
Mof_C 	C 	0.9867	0.972	0.8918	0.004
Mof_C 	C 	0.9648	0.9832	0.9085	-0.003
Mof_C 	C 	0.9597	0.0107	0.9089	0.003
Mof_C 	C 	0.9816	0.0264	0.894	-0.012
Mof_C 	C 	0.9903	0.0634	0.9487	0.016
Mof_C 	C 	0.0056	0.0447	0.9584	-0.029
Mof_C 	C 	0.9944	0.0259	0.9737	0.007
Mof_C 	C 	0.965	0.0279	0.9829	-0.005
Mof_C 	C 	0.9464	0.0465	0.9723	0.003
Mof_C 	C 	0.9603	0.0655	0.9541	-0.009
Mof_C 	C 	0.0446	0.0846	0.003	0.016
Mof_C 	C 	0.0584	0.0621	0.0084	-0.022
Mof_C 	C 	0.0466	0.0436	0.0236	0.007
Mof_C 	C 	0.0196	0.0487	0.0354	-0.006
Mof_C 	C 	0.0075	0.0719	0.0307	0.008
Mof_C 	C 	0.0169	0.086	0.013	-0.019
Mof_C 	C 	0.0941	0.976	0.9016	0.011
Mof_C 	C 	0.0725	0.9842	0.917	-0.028
Mof_C 	C 	0.0556	0.9664	0.9335	0.004
Mof_C 	C 	0.0637	0.938	0.9311	-0.003
Mof_C 	C 	0.0894	0.9314	0.9142	0.002
Mof_C 	C 	0.1027	0.9506	0.8975	-0.006
Mof_C 	C 	0.0847	0.9527	0.8318	0.01
Mof_C 	C 	0.072	0.9283	0.8383	-0.006
Mof_C 	C 	0.094	0.9109	0.8434	0.002
Mof_C 	C 	0.1219	0.9138	0.8361	-0.004
Mof_C 	C 	0.1328	0.9364	0.832	0.006
Mof_C 	C 	0.1126	0.9591	0.8287	-0.027
Mof_C 	C 	0.03664	0.11283	0.75344	0.011
Mof_C 	C 	0.0303	0.13916	0.7535	-0.021
Mof_C 	C 	0.0081	0.14867	0.73858	0.006
Mof_C 	C 	0.9923	0.1318	0.72359	-0.004
Mof_C 	C 	0.9987	0.1055	0.72353	0.004
Mof_C 	C 	0.02082	0.096	0.73845	-0.013
Mof_C 	C 	0.1085	0.01531	0.74	0.022
Mof_C 	C 	0.0913	0.03678	0.7351	-0.036
Mof_C 	C 	0.0872	0.04509	0.71063	0.009
Mof_C 	C 	0.1003	0.0319	0.691	-0.006
Mof_C 	C 	0.1175	0.0105	0.6958	0.004
Mof_C 	C 	0.1217	0.0022	0.7203	-0.011
Mof_C 	C 	0.175	0.06139	0.7539	0.001
Mof_C 	C 	0.1723	0.05115	0.7299	-0.005
Mof_C 	C 	0.196	0.03968	0.7184	0.002
Mof_C 	C 	0.2223	0.03844	0.7308	-0.003
Mof_C 	C 	0.225	0.04867	0.7547	0.006
Mof_C 	C 	0.2013	0.06015	0.7663	-0.024
Mof_C 	C 	0.9561	0.1482	0.8717	0.013
Mof_C 	C 	0.9586	0.1269	0.8559	-0.019
Mof_C 	C 	0.9358	0.1202	0.8403	0.005
Mof_C 	C 	0.9107	0.1349	0.8403	-0.004
Mof_C 	C 	0.9082	0.1562	0.8561	0.004
Mof_C 	C 	0.931	0.1629	0.8717	-0.014
Mof_C 	C 	0.1337	0.0517	0.0104	0.012
Mof_C 	C 	0.1244	0.0293	0.9983	-0.029
Mof_C 	C 	0.115	0.0072	0.0154	0.005
Mof_C 	C 	0.1171	0.0085	0.0408	-0.004
Mof_C 	C 	0.1261	0.031	0.0505	0.003
Mof_C 	C 	0.137	0.0526	0.0354	-0.008
Mof_C 	C 	0.2235	0.0606	0.0224	0.011
Mof_C 	C 	0.2357	0.049	0.0428	-0.017
Mof_C 	C 	0.2353	0.0623	0.0672	0.003
Mof_C 	C 	0.2243	0.0886	0.069	-0.003
Mof_C 	C 	0.2153	0.1017	0.0452	0.007
Mof_C 	C 	0.2137	0.0865	0.0239	-0.029
Mof_C 	C 	0.2502	0.029	0.8529	0.011
Mof_C 	C 	0.259	0.0038	0.8477	-0.007
Mof_C 	C 	0.2815	0.9994	0.831	0.003
Mof_C 	C 	0.2952	0.0202	0.8196	-0.004
Mof_C 	C 	0.2864	0.0454	0.8248	0.007
Mof_C 	C 	0.264	0.0498	0.8415	-0.03
Mof_C 	C 	0.3033	0.1197	0.9665	0.014
Mof_C 	C 	0.3255	0.1291	0.983	-0.007
Mof_C 	C 	0.3542	0.1355	0.974	0.002
Mof_C 	C 	0.3589	0.1352	0.9458	-0.002
Mof_C 	C 	0.3353	0.1245	0.9281	0.005
Mof_C 	C 	0.3085	0.1175	0.9404	-0.026
Mof_C 	C 	0.0888	0.9401	0.7471	0.009
Mof_C 	C 	0.0947	0.9445	0.7204	-0.02
Mof_C 	C 	0.1228	0.9371	0.7117	0.005
Mof_C 	C 	0.1432	0.9287	0.7274	-0.003
Mof_C 	C 	0.1376	0.9234	0.7537	0.003
Mof_C 	C 	0.1097	0.9304	0.7643	-0.009
Mof_Cd	Cd	0.10641	0.0898	0.854	0.253
Mof_Cd	Cd	0.04925	0.06788	0.908	0.269
Mof_Cd	Cd	0.16414	0.10793	0.90674	0.253
Mof_Cd	Cd	0.10245	0.08839	0.96	0.271
Mof_Cd	Cd	0.12675	0.03699	0.91043	0.271
Mof_Cd	Cd	0.02657	0.12468	0.85291	0.273
Mof_Cd	Cd	0.16788	0.11063	0.79957	0.271
Mof_Cd	Cd	0.18306	0.05938	0.96597	0.276
Mof_Cd	Cd	0.22996	0.12762	0.95255	0.278
Mof_Cd	Cd	0.04319	0.06778	0.80359	0.276
Mof_Cd	Cd	0.12619	0.0429	0.79471	0.276
Mof_Cd	Cd	0.18458	0.05729	0.84955	0.27
Mof_Cd	Cd	0.23966	0.06508	0.90576	0.276
Mof_Cd	Cd	0.07589	0.01496	0.85397	0.278
Mof_S 	S 	0.14599	0.07106	0.8803	-0.265
Mof_S 	S 	0.08784	0.05345	0.82662	-0.257
Mof_S 	S 	0.06571	0.10581	0.8807	-0.264
Mof_S 	S 	0.08547	0.0498	0.93716	-0.199
Mof_S 	S 	0.20446	0.08943	0.93315	-0.255
Mof_S 	S 	0.11439	0.99823	0.88251	-0.12
Mof_S 	S 	0.20761	0.09103	0.82358	-0.199
Mof_S 	S 	0.05987	0.10914	0.98279	-0.13
Mof_S 	S 	0.14297	0.07906	0.99166	-0.121
Mof_S 	S 	0.17157	0.02354	0.93524	-0.134
Mof_S 	S 	0.00228	0.08533	0.92669	-0.121
Mof_S 	S 	0.03232	0.03638	0.87386	-0.131
Mof_Cd	Cd	0.26865	0.06045	0.97596	0.284
Mof_Cd	Cd	0.06125	0.99211	0.78198	0.286
Mof_S 	S 	0.22236	0.04237	0.99463	-0.119
Mof_S 	S 	0.02641	0.02976	0.77631	-0.118
Mof_S 	S 	0.15998	0.02063	0.82542	-0.127
Mof_S 	S 	0.00359	0.08595	0.83051	-0.119
Mof_S 	S 	0.99224	0.14271	0.88632	-0.131
Mof_S 	S 	0.27042	0.11007	0.97849	-0.117
Mof_S 	S 	0.11126	0.00479	0.76825	-0.122
Mof_S 	S 	0.22211	0.03236	0.875	-0.121
Mof_S 	S 	0.05727	0.97771	0.82762	-0.113
Mof_S 	S 	0.1431	0.0805	0.76838	-0.119
Mof_S 	S 	0.2779	0.04321	0.93287	-0.12
Mof_S 	S 	0.0663	0.10011	0.77371	-0.126
Mof_S 	S 	0.05512	0.94915	0.75982	-0.109
Mof_C 	C 	0.1864	0.9984	0.8062	0.012
Mof_C 	C 	0.2049	0.9759	0.7709	0.002
Mof_C 	C 	0.1837	0.9911	0.7816	-0.01
Mof_C 	C 	0.2015	0.0167	0.7934	-0.019
Mof_C 	C 	0.2551	0.2296	0.791	0.01
Mof_C 	C 	0.2801	0.2333	0.7767	-0.009
Mof_C 	C 	0.3069	0.2387	0.7875	0.002
Mof_C 	C 	0.3085	0.2427	0.8131	-0.004
Mof_C 	C 	0.2849	0.2401	0.828	0.008
Mof_C 	C 	0.2588	0.2323	0.817	-0.028
Mof_C 	C 	0.9816	0.2404	0.9344	0.011
Mof_C 	C 	0.9827	0.2542	0.9568	-0.028
Mof_C 	C 	0.9887	0.2821	0.9569	0.005
Mof_C 	C 	0.9925	0.2955	0.9367	-0.004
Mof_C 	C 	0.9908	0.2806	0.9152	0.005
Mof_C 	C 	0.9846	0.2542	0.9141	-0.014
Mof_C 	C 	0.0883	0.2544	0.9508	0.017
Mof_C 	C 	0.1148	0.2647	0.9533	-0.022
Mof_C 	C 	0.1239	0.2896	0.9665	0.005
Mof_C 	C 	0.1019	0.3002	0.9789	-0.004
Mof_C 	C 	0.0727	0.2938	0.9754	0.003
Mof_C 	C 	0.0661	0.2728	0.9605	-0.012
Mof_C 	C 	0.2711	0.1529	0.8082	0.012
Mof_C 	C 	0.294	0.1702	0.8025	-0.008
Mof_C 	C 	0.3147	0.1613	0.7852	0.002
Mof_C 	C 	0.3136	0.135	0.7735	-0.003
Mof_C 	C 	0.29	0.1191	0.779	0.005
Mof_C 	C 	0.2687	0.1283	0.7974	-0.025
Mof_C 	C 	0.2433	0.2354	0.8874	0.018
Mof_C 	C 	0.2403	0.26	0.8815	-0.02
Mof_C 	C 	0.2633	0.278	0.8918	0.004
Mof_C 	C 	0.2852	0.2668	0.9085	-0.003
Mof_C 	C 	0.2903	0.2393	0.9089	0.003
Mof_C 	C 	0.2684	0.2236	0.894	-0.012
Mof_C 	C 	0.2597	0.1866	0.9487	0.016
Mof_C 	C 	0.2444	0.2053	0.9584	-0.029
Mof_C 	C 	0.2556	0.2241	0.9737	0.007
Mof_C 	C 	0.285	0.2221	0.9829	-0.005
Mof_C 	C 	0.3036	0.2035	0.9723	0.003
Mof_C 	C 	0.2897	0.1845	0.9541	-0.009
Mof_C 	C 	0.2054	0.1654	0.003	0.016
Mof_C 	C 	0.1916	0.1879	0.0084	-0.022
Mof_C 	C 	0.2034	0.2064	0.0236	0.007
Mof_C 	C 	0.2304	0.2013	0.0354	-0.006
Mof_C 	C 	0.2425	0.1781	0.0307	0.008
Mof_C 	C 	0.2331	0.164	0.013	-0.019
Mof_C 	C 	0.1559	0.274	0.9016	0.011
Mof_C 	C 	0.1775	0.2658	0.917	-0.028
Mof_C 	C 	0.1944	0.2836	0.9335	0.004
Mof_C 	C 	0.1863	0.312	0.9311	-0.003
Mof_C 	C 	0.1606	0.3186	0.9142	0.002
Mof_C 	C 	0.1473	0.2994	0.8975	-0.006
Mof_C 	C 	0.1653	0.2973	0.8318	0.01
Mof_C 	C 	0.178	0.3217	0.8383	-0.006
Mof_C 	C 	0.156	0.3391	0.8434	0.002
Mof_C 	C 	0.1281	0.3362	0.8361	-0.004
Mof_C 	C 	0.1172	0.3136	0.832	0.006
Mof_C 	C 	0.1374	0.2909	0.8287	-0.027
Mof_C 	C 	0.21336	0.13717	0.75344	0.011
Mof_C 	C 	0.2197	0.11084	0.7535	-0.021
Mof_C 	C 	0.2419	0.10133	0.73858	0.006
Mof_C 	C 	0.2577	0.1182	0.72359	-0.004
Mof_C 	C 	0.2513	0.1445	0.72353	0.004
Mof_C 	C 	0.22918	0.154	0.73845	-0.013
Mof_C 	C 	0.1415	0.23469	0.74	0.022
Mof_C 	C 	0.1587	0.21322	0.7351	-0.036
Mof_C 	C 	0.1628	0.20491	0.71063	0.009
Mof_C 	C 	0.1497	0.2181	0.691	-0.006
Mof_C 	C 	0.1325	0.2395	0.6958	0.004
Mof_C 	C 	0.1283	0.2478	0.7203	-0.011
Mof_C 	C 	0.075	0.18861	0.7539	0.001
Mof_C 	C 	0.0777	0.19885	0.7299	-0.005
Mof_C 	C 	0.054	0.21032	0.7184	0.002
Mof_C 	C 	0.0277	0.21156	0.7308	-0.003
Mof_C 	C 	0.025	0.20133	0.7547	0.006
Mof_C 	C 	0.0487	0.18985	0.7663	-0.024
Mof_C 	C 	0.2939	0.1018	0.8717	0.013
Mof_C 	C 	0.2914	0.1231	0.8559	-0.019
Mof_C 	C 	0.3142	0.1298	0.8403	0.005
Mof_C 	C 	0.3393	0.1151	0.8403	-0.004
Mof_C 	C 	0.3418	0.0938	0.8561	0.004
Mof_C 	C 	0.319	0.0871	0.8717	-0.014
Mof_C 	C 	0.1163	0.1983	0.0104	0.012
Mof_C 	C 	0.1256	0.2207	0.9983	-0.029
Mof_C 	C 	0.135	0.2428	0.0154	0.005
Mof_C 	C 	0.1329	0.2415	0.0408	-0.004
Mof_C 	C 	0.1239	0.219	0.0505	0.003
Mof_C 	C 	0.113	0.1974	0.0354	-0.008
Mof_C 	C 	0.0265	0.1894	0.0224	0.011
Mof_C 	C 	0.0143	0.201	0.0428	-0.017
Mof_C 	C 	0.0147	0.1877	0.0672	0.003
Mof_C 	C 	0.0257	0.1614	0.069	-0.003
Mof_C 	C 	0.0347	0.1483	0.0452	0.007
Mof_C 	C 	0.0363	0.1635	0.0239	-0.029
Mof_C 	C 	0.9998	0.221	0.8529	0.011
Mof_C 	C 	0.991	0.2462	0.8477	-0.007
Mof_C 	C 	0.9685	0.2506	0.831	0.003
Mof_C 	C 	0.9548	0.2298	0.8196	-0.004
Mof_C 	C 	0.9636	0.2046	0.8248	0.007
Mof_C 	C 	0.986	0.2002	0.8415	-0.03
Mof_C 	C 	0.9467	0.1303	0.9665	0.014
Mof_C 	C 	0.9245	0.1209	0.983	-0.007
Mof_C 	C 	0.8958	0.1145	0.974	0.002
Mof_C 	C 	0.8911	0.1148	0.9458	-0.002
Mof_C 	C 	0.9147	0.1255	0.9281	0.005
Mof_C 	C 	0.9415	0.1325	0.9404	-0.026
Mof_C 	C 	0.1612	0.3099	0.7471	0.009
Mof_C 	C 	0.1553	0.3055	0.7204	-0.02
Mof_C 	C 	0.1272	0.3129	0.7117	0.005
Mof_C 	C 	0.1068	0.3213	0.7274	-0.003
Mof_C 	C 	0.1124	0.3266	0.7537	0.003
Mof_C 	C 	0.1403	0.3196	0.7643	-0.009
Mof_Cd	Cd	0.14359	0.1602	0.854	0.253
Mof_Cd	Cd	0.20075	0.18212	0.908	0.269
Mof_Cd	Cd	0.08586	0.14207	0.90674	0.253
Mof_Cd	Cd	0.14755	0.16161	0.96	0.271
Mof_Cd	Cd	0.12325	0.21301	0.91043	0.271
Mof_Cd	Cd	0.22343	0.12532	0.85291	0.273
Mof_Cd	Cd	0.08212	0.13937	0.79957	0.271
Mof_Cd	Cd	0.06694	0.19062	0.96597	0.276
Mof_Cd	Cd	0.02004	0.12238	0.95255	0.278
Mof_Cd	Cd	0.20681	0.18222	0.80359	0.276
Mof_Cd	Cd	0.12381	0.2071	0.79471	0.276
Mof_Cd	Cd	0.06542	0.19271	0.84955	0.27
Mof_Cd	Cd	0.01034	0.18492	0.90576	0.276
Mof_Cd	Cd	0.17411	0.23504	0.85397	0.278
Mof_S 	S 	0.10401	0.17894	0.8803	-0.265
Mof_S 	S 	0.16216	0.19655	0.82662	-0.257
Mof_S 	S 	0.18429	0.14419	0.8807	-0.264
Mof_S 	S 	0.16453	0.2002	0.93716	-0.199
Mof_S 	S 	0.04554	0.16057	0.93315	-0.255
Mof_S 	S 	0.13561	0.25177	0.88251	-0.12
Mof_S 	S 	0.04239	0.15897	0.82358	-0.199
Mof_S 	S 	0.19013	0.14086	0.98279	-0.13
Mof_S 	S 	0.10703	0.17094	0.99166	-0.121
Mof_S 	S 	0.07843	0.22646	0.93524	-0.134
Mof_S 	S 	0.24772	0.16467	0.92669	-0.121
Mof_S 	S 	0.21768	0.21362	0.87386	-0.131
Mof_Cd	Cd	0.98135	0.18955	0.97596	0.284
Mof_Cd	Cd	0.18875	0.25789	0.78198	0.286
Mof_S 	S 	0.02764	0.20763	0.99463	-0.119
Mof_S 	S 	0.22359	0.22024	0.77631	-0.118
Mof_S 	S 	0.09002	0.22937	0.82542	-0.127
Mof_S 	S 	0.24641	0.16405	0.83051	-0.119
Mof_S 	S 	0.25776	0.10729	0.88632	-0.131
Mof_S 	S 	0.97958	0.13993	0.97849	-0.117
Mof_S 	S 	0.13874	0.24521	0.76825	-0.122
Mof_S 	S 	0.02789	0.21764	0.875	-0.121
Mof_S 	S 	0.19273	0.27229	0.82762	-0.113
Mof_S 	S 	0.1069	0.1695	0.76838	-0.119
Mof_S 	S 	0.9721	0.20679	0.93287	-0.12
Mof_S 	S 	0.1837	0.14989	0.77371	-0.126
Mof_S 	S 	0.19488	0.30085	0.75982	-0.109
Mof_C 	C 	0.0636	0.2516	0.8062	0.012
Mof_C 	C 	0.0451	0.2741	0.7709	0.002
Mof_C 	C 	0.0663	0.2589	0.7816	-0.01
Mof_C 	C 	0.0485	0.2333	0.7934	-0.019
Mof_C 	C 	0.2551	0.7296	0.291	0.01
Mof_C 	C 	0.2801	0.7333	0.2767	-0.009
Mof_C 	C 	0.3069	0.7387	0.2875	0.002
Mof_C 	C 	0.3085	0.7427	0.3131	-0.004
Mof_C 	C 	0.2849	0.7401	0.328	0.008
Mof_C 	C 	0.2588	0.7323	0.317	-0.028
Mof_C 	C 	0.9816	0.7404	0.4344	0.011
Mof_C 	C 	0.9827	0.7542	0.4568	-0.028
Mof_C 	C 	0.9887	0.7821	0.4569	0.005
Mof_C 	C 	0.9925	0.7955	0.4367	-0.004
Mof_C 	C 	0.9908	0.7806	0.4152	0.005
Mof_C 	C 	0.9846	0.7542	0.4141	-0.014
Mof_C 	C 	0.0883	0.7544	0.4508	0.017
Mof_C 	C 	0.1148	0.7647	0.4533	-0.022
Mof_C 	C 	0.1239	0.7896	0.4665	0.005
Mof_C 	C 	0.1019	0.8002	0.4789	-0.004
Mof_C 	C 	0.0727	0.7938	0.4754	0.003
Mof_C 	C 	0.0661	0.7728	0.4605	-0.012
Mof_C 	C 	0.2711	0.6529	0.3082	0.012
Mof_C 	C 	0.294	0.6702	0.3025	-0.008
Mof_C 	C 	0.3147	0.6613	0.2852	0.002
Mof_C 	C 	0.3136	0.635	0.2735	-0.003
Mof_C 	C 	0.29	0.6191	0.279	0.005
Mof_C 	C 	0.2687	0.6283	0.2974	-0.025
Mof_C 	C 	0.2433	0.7354	0.3874	0.018
Mof_C 	C 	0.2403	0.76	0.3815	-0.02
Mof_C 	C 	0.2633	0.778	0.3918	0.004
Mof_C 	C 	0.2852	0.7668	0.4085	-0.003
Mof_C 	C 	0.2903	0.7393	0.4089	0.003
Mof_C 	C 	0.2684	0.7236	0.394	-0.012
Mof_C 	C 	0.2597	0.6866	0.4487	0.016
Mof_C 	C 	0.2444	0.7053	0.4584	-0.029
Mof_C 	C 	0.2556	0.7241	0.4737	0.007
Mof_C 	C 	0.285	0.7221	0.4829	-0.005
Mof_C 	C 	0.3036	0.7035	0.4723	0.003
Mof_C 	C 	0.2897	0.6845	0.4541	-0.009
Mof_C 	C 	0.2054	0.6654	0.503	0.016
Mof_C 	C 	0.1916	0.6879	0.5084	-0.022
Mof_C 	C 	0.2034	0.7064	0.5236	0.007
Mof_C 	C 	0.2304	0.7013	0.5354	-0.006
Mof_C 	C 	0.2425	0.6781	0.5307	0.008
Mof_C 	C 	0.2331	0.664	0.513	-0.019
Mof_C 	C 	0.1559	0.774	0.4016	0.011
Mof_C 	C 	0.1775	0.7658	0.417	-0.028
Mof_C 	C 	0.1944	0.7836	0.4335	0.004
Mof_C 	C 	0.1863	0.812	0.4311	-0.003
Mof_C 	C 	0.1606	0.8186	0.4142	0.002
Mof_C 	C 	0.1473	0.7994	0.3975	-0.006
Mof_C 	C 	0.1653	0.7973	0.3318	0.01
Mof_C 	C 	0.178	0.8217	0.3383	-0.006
Mof_C 	C 	0.156	0.8391	0.3434	0.002
Mof_C 	C 	0.1281	0.8362	0.3361	-0.004
Mof_C 	C 	0.1172	0.8136	0.332	0.006
Mof_C 	C 	0.1374	0.7909	0.3287	-0.027
Mof_C 	C 	0.21336	0.63717	0.25344	0.011
Mof_C 	C 	0.2197	0.61084	0.2535	-0.021
Mof_C 	C 	0.2419	0.60133	0.23858	0.006
Mof_C 	C 	0.2577	0.6182	0.22359	-0.004
Mof_C 	C 	0.2513	0.6445	0.22353	0.004
Mof_C 	C 	0.22918	0.654	0.23845	-0.013
Mof_C 	C 	0.1415	0.73469	0.24	0.022
Mof_C 	C 	0.1587	0.71322	0.2351	-0.036
Mof_C 	C 	0.1628	0.70491	0.21063	0.009
Mof_C 	C 	0.1497	0.7181	0.191	-0.006
Mof_C 	C 	0.1325	0.7395	0.1958	0.004
Mof_C 	C 	0.1283	0.7478	0.2203	-0.011
Mof_C 	C 	0.075	0.68861	0.2539	0.001
Mof_C 	C 	0.0777	0.69885	0.2299	-0.005
Mof_C 	C 	0.054	0.71032	0.2184	0.002
Mof_C 	C 	0.0277	0.71156	0.2308	-0.003
Mof_C 	C 	0.025	0.70133	0.2547	0.006
Mof_C 	C 	0.0487	0.68985	0.2663	-0.024
Mof_C 	C 	0.2939	0.6018	0.3717	0.013
Mof_C 	C 	0.2914	0.6231	0.3559	-0.019
Mof_C 	C 	0.3142	0.6298	0.3403	0.005
Mof_C 	C 	0.3393	0.6151	0.3403	-0.004
Mof_C 	C 	0.3418	0.5938	0.3561	0.004
Mof_C 	C 	0.319	0.5871	0.3717	-0.014
Mof_C 	C 	0.1163	0.6983	0.5104	0.012
Mof_C 	C 	0.1256	0.7207	0.4983	-0.029
Mof_C 	C 	0.135	0.7428	0.5154	0.005
Mof_C 	C 	0.1329	0.7415	0.5408	-0.004
Mof_C 	C 	0.1239	0.719	0.5505	0.003
Mof_C 	C 	0.113	0.6974	0.5354	-0.008
Mof_C 	C 	0.0265	0.6894	0.5224	0.011
Mof_C 	C 	0.0143	0.701	0.5428	-0.017
Mof_C 	C 	0.0147	0.6877	0.5672	0.003
Mof_C 	C 	0.0257	0.6614	0.569	-0.003
Mof_C 	C 	0.0347	0.6483	0.5452	0.007
Mof_C 	C 	0.0363	0.6635	0.5239	-0.029
Mof_C 	C 	0.9998	0.721	0.3529	0.011
Mof_C 	C 	0.991	0.7462	0.3477	-0.007
Mof_C 	C 	0.9685	0.7506	0.331	0.003
Mof_C 	C 	0.9548	0.7298	0.3196	-0.004
Mof_C 	C 	0.9636	0.7046	0.3248	0.007
Mof_C 	C 	0.986	0.7002	0.3415	-0.03
Mof_C 	C 	0.9467	0.6303	0.4665	0.014
Mof_C 	C 	0.9245	0.6209	0.483	-0.007
Mof_C 	C 	0.8958	0.6145	0.474	0.002
Mof_C 	C 	0.8911	0.6148	0.4458	-0.002
Mof_C 	C 	0.9147	0.6255	0.4281	0.005
Mof_C 	C 	0.9415	0.6325	0.4404	-0.026
Mof_C 	C 	0.1612	0.8099	0.2471	0.009
Mof_C 	C 	0.1553	0.8055	0.2204	-0.02
Mof_C 	C 	0.1272	0.8129	0.2117	0.005
Mof_C 	C 	0.1068	0.8213	0.2274	-0.003
Mof_C 	C 	0.1124	0.8266	0.2537	0.003
Mof_C 	C 	0.1403	0.8196	0.2643	-0.009
Mof_Cd	Cd	0.14359	0.6602	0.354	0.253
Mof_Cd	Cd	0.20075	0.68212	0.408	0.269
Mof_Cd	Cd	0.08586	0.64207	0.40674	0.253
Mof_Cd	Cd	0.14755	0.66161	0.46	0.271
Mof_Cd	Cd	0.12325	0.71301	0.41043	0.271
Mof_Cd	Cd	0.22343	0.62532	0.35291	0.273
Mof_Cd	Cd	0.08212	0.63937	0.29957	0.271
Mof_Cd	Cd	0.06694	0.69062	0.46597	0.276
Mof_Cd	Cd	0.02004	0.62238	0.45255	0.278
Mof_Cd	Cd	0.20681	0.68222	0.30359	0.276
Mof_Cd	Cd	0.12381	0.7071	0.29471	0.276
Mof_Cd	Cd	0.06542	0.69271	0.34955	0.27
Mof_Cd	Cd	0.01034	0.68492	0.40576	0.276
Mof_Cd	Cd	0.17411	0.73504	0.35397	0.278
Mof_S 	S 	0.10401	0.67894	0.3803	-0.265
Mof_S 	S 	0.16216	0.69655	0.32662	-0.257
Mof_S 	S 	0.18429	0.64419	0.3807	-0.264
Mof_S 	S 	0.16453	0.7002	0.43716	-0.199
Mof_S 	S 	0.04554	0.66057	0.43315	-0.255
Mof_S 	S 	0.13561	0.75177	0.38251	-0.12
Mof_S 	S 	0.04239	0.65897	0.32358	-0.199
Mof_S 	S 	0.19013	0.64086	0.48279	-0.13
Mof_S 	S 	0.10703	0.67094	0.49166	-0.121
Mof_S 	S 	0.07843	0.72646	0.43524	-0.134
Mof_S 	S 	0.24772	0.66467	0.42669	-0.121
Mof_S 	S 	0.21768	0.71362	0.37386	-0.131
Mof_Cd	Cd	0.98135	0.68955	0.47596	0.284
Mof_Cd	Cd	0.18875	0.75789	0.28198	0.286
Mof_S 	S 	0.02764	0.70763	0.49463	-0.119
Mof_S 	S 	0.22359	0.72024	0.27631	-0.118
Mof_S 	S 	0.09002	0.72937	0.32542	-0.127
Mof_S 	S 	0.24641	0.66405	0.33051	-0.119
Mof_S 	S 	0.25776	0.60729	0.38632	-0.131
Mof_S 	S 	0.97958	0.63993	0.47849	-0.117
Mof_S 	S 	0.13874	0.74521	0.26825	-0.122
Mof_S 	S 	0.02789	0.71764	0.375	-0.121
Mof_S 	S 	0.19273	0.77229	0.32762	-0.113
Mof_S 	S 	0.1069	0.6695	0.26838	-0.119
Mof_S 	S 	0.9721	0.70679	0.43287	-0.12
Mof_S 	S 	0.1837	0.64989	0.27371	-0.126
Mof_S 	S 	0.19488	0.80085	0.25982	-0.109
Mof_C 	C 	0.0636	0.7516	0.3062	0.012
Mof_C 	C 	0.0451	0.7741	0.2709	0.002
Mof_C 	C 	0.0663	0.7589	0.2816	-0.01
Mof_C 	C 	0.0485	0.7333	0.2934	-0.019
Mof_C 	C 	0.7551	0.2296	0.291	0.01
Mof_C 	C 	0.7801	0.2333	0.2767	-0.009
Mof_C 	C 	0.8069	0.2387	0.2875	0.002
Mof_C 	C 	0.8085	0.2427	0.3131	-0.004
Mof_C 	C 	0.7849	0.2401	0.328	0.008
Mof_C 	C 	0.7588	0.2323	0.317	-0.028
Mof_C 	C 	0.4816	0.2404	0.4344	0.011
Mof_C 	C 	0.4827	0.2542	0.4568	-0.028
Mof_C 	C 	0.4887	0.2821	0.4569	0.005
Mof_C 	C 	0.4925	0.2955	0.4367	-0.004
Mof_C 	C 	0.4908	0.2806	0.4152	0.005
Mof_C 	C 	0.4846	0.2542	0.4141	-0.014
Mof_C 	C 	0.5883	0.2544	0.4508	0.017
Mof_C 	C 	0.6148	0.2647	0.4533	-0.022
Mof_C 	C 	0.6239	0.2896	0.4665	0.005
Mof_C 	C 	0.6019	0.3002	0.4789	-0.004
Mof_C 	C 	0.5727	0.2938	0.4754	0.003
Mof_C 	C 	0.5661	0.2728	0.4605	-0.012
Mof_C 	C 	0.7711	0.1529	0.3082	0.012
Mof_C 	C 	0.794	0.1702	0.3025	-0.008
Mof_C 	C 	0.8147	0.1613	0.2852	0.002
Mof_C 	C 	0.8136	0.135	0.2735	-0.003
Mof_C 	C 	0.79	0.1191	0.279	0.005
Mof_C 	C 	0.7687	0.1283	0.2974	-0.025
Mof_C 	C 	0.7433	0.2354	0.3874	0.018
Mof_C 	C 	0.7403	0.26	0.3815	-0.02
Mof_C 	C 	0.7633	0.278	0.3918	0.004
Mof_C 	C 	0.7852	0.2668	0.4085	-0.003
Mof_C 	C 	0.7903	0.2393	0.4089	0.003
Mof_C 	C 	0.7684	0.2236	0.394	-0.012
Mof_C 	C 	0.7597	0.1866	0.4487	0.016
Mof_C 	C 	0.7444	0.2053	0.4584	-0.029
Mof_C 	C 	0.7556	0.2241	0.4737	0.007
Mof_C 	C 	0.785	0.2221	0.4829	-0.005
Mof_C 	C 	0.8036	0.2035	0.4723	0.003
Mof_C 	C 	0.7897	0.1845	0.4541	-0.009
Mof_C 	C 	0.7054	0.1654	0.503	0.016
Mof_C 	C 	0.6916	0.1879	0.5084	-0.022
Mof_C 	C 	0.7034	0.2064	0.5236	0.007
Mof_C 	C 	0.7304	0.2013	0.5354	-0.006
Mof_C 	C 	0.7425	0.1781	0.5307	0.008
Mof_C 	C 	0.7331	0.164	0.513	-0.019
Mof_C 	C 	0.6559	0.274	0.4016	0.011
Mof_C 	C 	0.6775	0.2658	0.417	-0.028
Mof_C 	C 	0.6944	0.2836	0.4335	0.004
Mof_C 	C 	0.6863	0.312	0.4311	-0.003
Mof_C 	C 	0.6606	0.3186	0.4142	0.002
Mof_C 	C 	0.6473	0.2994	0.3975	-0.006
Mof_C 	C 	0.6653	0.2973	0.3318	0.01
Mof_C 	C 	0.678	0.3217	0.3383	-0.006
Mof_C 	C 	0.656	0.3391	0.3434	0.002
Mof_C 	C 	0.6281	0.3362	0.3361	-0.004
Mof_C 	C 	0.6172	0.3136	0.332	0.006
Mof_C 	C 	0.6374	0.2909	0.3287	-0.027
Mof_C 	C 	0.71336	0.13717	0.25344	0.011
Mof_C 	C 	0.7197	0.11084	0.2535	-0.021
Mof_C 	C 	0.7419	0.10133	0.23858	0.006
Mof_C 	C 	0.7577	0.1182	0.22359	-0.004
Mof_C 	C 	0.7513	0.1445	0.22353	0.004
Mof_C 	C 	0.72918	0.154	0.23845	-0.013
Mof_C 	C 	0.6415	0.23469	0.24	0.022
Mof_C 	C 	0.6587	0.21322	0.2351	-0.036
Mof_C 	C 	0.6628	0.20491	0.21063	0.009
Mof_C 	C 	0.6497	0.2181	0.191	-0.006
Mof_C 	C 	0.6325	0.2395	0.1958	0.004
Mof_C 	C 	0.6283	0.2478	0.2203	-0.011
Mof_C 	C 	0.575	0.18861	0.2539	0.001
Mof_C 	C 	0.5777	0.19885	0.2299	-0.005
Mof_C 	C 	0.554	0.21032	0.2184	0.002
Mof_C 	C 	0.5277	0.21156	0.2308	-0.003
Mof_C 	C 	0.525	0.20133	0.2547	0.006
Mof_C 	C 	0.5487	0.18985	0.2663	-0.024
Mof_C 	C 	0.7939	0.1018	0.3717	0.013
Mof_C 	C 	0.7914	0.1231	0.3559	-0.019
Mof_C 	C 	0.8142	0.1298	0.3403	0.005
Mof_C 	C 	0.8393	0.1151	0.3403	-0.004
Mof_C 	C 	0.8418	0.0938	0.3561	0.004
Mof_C 	C 	0.819	0.0871	0.3717	-0.014
Mof_C 	C 	0.6163	0.1983	0.5104	0.012
Mof_C 	C 	0.6256	0.2207	0.4983	-0.029
Mof_C 	C 	0.635	0.2428	0.5154	0.005
Mof_C 	C 	0.6329	0.2415	0.5408	-0.004
Mof_C 	C 	0.6239	0.219	0.5505	0.003
Mof_C 	C 	0.613	0.1974	0.5354	-0.008
Mof_C 	C 	0.5265	0.1894	0.5224	0.011
Mof_C 	C 	0.5143	0.201	0.5428	-0.017
Mof_C 	C 	0.5147	0.1877	0.5672	0.003
Mof_C 	C 	0.5257	0.1614	0.569	-0.003
Mof_C 	C 	0.5347	0.1483	0.5452	0.007
Mof_C 	C 	0.5363	0.1635	0.5239	-0.029
Mof_C 	C 	0.4998	0.221	0.3529	0.011
Mof_C 	C 	0.491	0.2462	0.3477	-0.007
Mof_C 	C 	0.4685	0.2506	0.331	0.003
Mof_C 	C 	0.4548	0.2298	0.3196	-0.004
Mof_C 	C 	0.4636	0.2046	0.3248	0.007
Mof_C 	C 	0.486	0.2002	0.3415	-0.03
Mof_C 	C 	0.4467	0.1303	0.4665	0.014
Mof_C 	C 	0.4245	0.1209	0.483	-0.007
Mof_C 	C 	0.3958	0.1145	0.474	0.002
Mof_C 	C 	0.3911	0.1148	0.4458	-0.002
Mof_C 	C 	0.4147	0.1255	0.4281	0.005
Mof_C 	C 	0.4415	0.1325	0.4404	-0.026
Mof_C 	C 	0.6612	0.3099	0.2471	0.009
Mof_C 	C 	0.6553	0.3055	0.2204	-0.02
Mof_C 	C 	0.6272	0.3129	0.2117	0.005
Mof_C 	C 	0.6068	0.3213	0.2274	-0.003
Mof_C 	C 	0.6124	0.3266	0.2537	0.003
Mof_C 	C 	0.6403	0.3196	0.2643	-0.009
Mof_Cd	Cd	0.64359	0.1602	0.354	0.253
Mof_Cd	Cd	0.70075	0.18212	0.408	0.269
Mof_Cd	Cd	0.58586	0.14207	0.40674	0.253
Mof_Cd	Cd	0.64755	0.16161	0.46	0.271
Mof_Cd	Cd	0.62325	0.21301	0.41043	0.271
Mof_Cd	Cd	0.72343	0.12532	0.35291	0.273
Mof_Cd	Cd	0.58212	0.13937	0.29957	0.271
Mof_Cd	Cd	0.56694	0.19062	0.46597	0.276
Mof_Cd	Cd	0.52004	0.12238	0.45255	0.278
Mof_Cd	Cd	0.70681	0.18222	0.30359	0.276
Mof_Cd	Cd	0.62381	0.2071	0.29471	0.276
Mof_Cd	Cd	0.56542	0.19271	0.34955	0.27
Mof_Cd	Cd	0.51034	0.18492	0.40576	0.276
Mof_Cd	Cd	0.67411	0.23504	0.35397	0.278
Mof_S 	S 	0.60401	0.17894	0.3803	-0.265
Mof_S 	S 	0.66216	0.19655	0.32662	-0.257
Mof_S 	S 	0.68429	0.14419	0.3807	-0.264
Mof_S 	S 	0.66453	0.2002	0.43716	-0.199
Mof_S 	S 	0.54554	0.16057	0.43315	-0.255
Mof_S 	S 	0.63561	0.25177	0.38251	-0.12
Mof_S 	S 	0.54239	0.15897	0.32358	-0.199
Mof_S 	S 	0.69013	0.14086	0.48279	-0.13
Mof_S 	S 	0.60703	0.17094	0.49166	-0.121
Mof_S 	S 	0.57843	0.22646	0.43524	-0.134
Mof_S 	S 	0.74772	0.16467	0.42669	-0.121
Mof_S 	S 	0.71768	0.21362	0.37386	-0.131
Mof_Cd	Cd	0.48135	0.18955	0.47596	0.284
Mof_Cd	Cd	0.68875	0.25789	0.28198	0.286
Mof_S 	S 	0.52764	0.20763	0.49463	-0.119
Mof_S 	S 	0.72359	0.22024	0.27631	-0.118
Mof_S 	S 	0.59002	0.22937	0.32542	-0.127
Mof_S 	S 	0.74641	0.16405	0.33051	-0.119
Mof_S 	S 	0.75776	0.10729	0.38632	-0.131
Mof_S 	S 	0.47958	0.13993	0.47849	-0.117
Mof_S 	S 	0.63874	0.24521	0.26825	-0.122
Mof_S 	S 	0.52789	0.21764	0.375	-0.121
Mof_S 	S 	0.69273	0.27229	0.32762	-0.113
Mof_S 	S 	0.6069	0.1695	0.26838	-0.119
Mof_S 	S 	0.4721	0.20679	0.43287	-0.12
Mof_S 	S 	0.6837	0.14989	0.27371	-0.126
Mof_S 	S 	0.69488	0.30085	0.25982	-0.109
Mof_C 	C 	0.5636	0.2516	0.3062	0.012
Mof_C 	C 	0.5451	0.2741	0.2709	0.002
Mof_C 	C 	0.5663	0.2589	0.2816	-0.01
Mof_C 	C 	0.5485	0.2333	0.2934	-0.019
Mof_C 	C 	0.7551	0.7296	0.791	0.01
Mof_C 	C 	0.7801	0.7333	0.7767	-0.009
Mof_C 	C 	0.8069	0.7387	0.7875	0.002
Mof_C 	C 	0.8085	0.7427	0.8131	-0.004
Mof_C 	C 	0.7849	0.7401	0.828	0.008
Mof_C 	C 	0.7588	0.7323	0.817	-0.028
Mof_C 	C 	0.4816	0.7404	0.9344	0.011
Mof_C 	C 	0.4827	0.7542	0.9568	-0.028
Mof_C 	C 	0.4887	0.7821	0.9569	0.005
Mof_C 	C 	0.4925	0.7955	0.9367	-0.004
Mof_C 	C 	0.4908	0.7806	0.9152	0.005
Mof_C 	C 	0.4846	0.7542	0.9141	-0.014
Mof_C 	C 	0.5883	0.7544	0.9508	0.017
Mof_C 	C 	0.6148	0.7647	0.9533	-0.022
Mof_C 	C 	0.6239	0.7896	0.9665	0.005
Mof_C 	C 	0.6019	0.8002	0.9789	-0.004
Mof_C 	C 	0.5727	0.7938	0.9754	0.003
Mof_C 	C 	0.5661	0.7728	0.9605	-0.012
Mof_C 	C 	0.7711	0.6529	0.8082	0.012
Mof_C 	C 	0.794	0.6702	0.8025	-0.008
Mof_C 	C 	0.8147	0.6613	0.7852	0.002
Mof_C 	C 	0.8136	0.635	0.7735	-0.003
Mof_C 	C 	0.79	0.6191	0.779	0.005
Mof_C 	C 	0.7687	0.6283	0.7974	-0.025
Mof_C 	C 	0.7433	0.7354	0.8874	0.018
Mof_C 	C 	0.7403	0.76	0.8815	-0.02
Mof_C 	C 	0.7633	0.778	0.8918	0.004
Mof_C 	C 	0.7852	0.7668	0.9085	-0.003
Mof_C 	C 	0.7903	0.7393	0.9089	0.003
Mof_C 	C 	0.7684	0.7236	0.894	-0.012
Mof_C 	C 	0.7597	0.6866	0.9487	0.016
Mof_C 	C 	0.7444	0.7053	0.9584	-0.029
Mof_C 	C 	0.7556	0.7241	0.9737	0.007
Mof_C 	C 	0.785	0.7221	0.9829	-0.005
Mof_C 	C 	0.8036	0.7035	0.9723	0.003
Mof_C 	C 	0.7897	0.6845	0.9541	-0.009
Mof_C 	C 	0.7054	0.6654	0.003	0.016
Mof_C 	C 	0.6916	0.6879	0.0084	-0.022
Mof_C 	C 	0.7034	0.7064	0.0236	0.007
Mof_C 	C 	0.7304	0.7013	0.0354	-0.006
Mof_C 	C 	0.7425	0.6781	0.0307	0.008
Mof_C 	C 	0.7331	0.664	0.013	-0.019
Mof_C 	C 	0.6559	0.774	0.9016	0.011
Mof_C 	C 	0.6775	0.7658	0.917	-0.028
Mof_C 	C 	0.6944	0.7836	0.9335	0.004
Mof_C 	C 	0.6863	0.812	0.9311	-0.003
Mof_C 	C 	0.6606	0.8186	0.9142	0.002
Mof_C 	C 	0.6473	0.7994	0.8975	-0.006
Mof_C 	C 	0.6653	0.7973	0.8318	0.01
Mof_C 	C 	0.678	0.8217	0.8383	-0.006
Mof_C 	C 	0.656	0.8391	0.8434	0.002
Mof_C 	C 	0.6281	0.8362	0.8361	-0.004
Mof_C 	C 	0.6172	0.8136	0.832	0.006
Mof_C 	C 	0.6374	0.7909	0.8287	-0.027
Mof_C 	C 	0.71336	0.63717	0.75344	0.011
Mof_C 	C 	0.7197	0.61084	0.7535	-0.021
Mof_C 	C 	0.7419	0.60133	0.73858	0.006
Mof_C 	C 	0.7577	0.6182	0.72359	-0.004
Mof_C 	C 	0.7513	0.6445	0.72353	0.004
Mof_C 	C 	0.72918	0.654	0.73845	-0.013
Mof_C 	C 	0.6415	0.73469	0.74	0.022
Mof_C 	C 	0.6587	0.71322	0.7351	-0.036
Mof_C 	C 	0.6628	0.70491	0.71063	0.009
Mof_C 	C 	0.6497	0.7181	0.691	-0.006
Mof_C 	C 	0.6325	0.7395	0.6958	0.004
Mof_C 	C 	0.6283	0.7478	0.7203	-0.011
Mof_C 	C 	0.575	0.68861	0.7539	0.001
Mof_C 	C 	0.5777	0.69885	0.7299	-0.005
Mof_C 	C 	0.554	0.71032	0.7184	0.002
Mof_C 	C 	0.5277	0.71156	0.7308	-0.003
Mof_C 	C 	0.525	0.70133	0.7547	0.006
Mof_C 	C 	0.5487	0.68985	0.7663	-0.024
Mof_C 	C 	0.7939	0.6018	0.8717	0.013
Mof_C 	C 	0.7914	0.6231	0.8559	-0.019
Mof_C 	C 	0.8142	0.6298	0.8403	0.005
Mof_C 	C 	0.8393	0.6151	0.8403	-0.004
Mof_C 	C 	0.8418	0.5938	0.8561	0.004
Mof_C 	C 	0.819	0.5871	0.8717	-0.014
Mof_C 	C 	0.6163	0.6983	0.0104	0.012
Mof_C 	C 	0.6256	0.7207	0.9983	-0.029
Mof_C 	C 	0.635	0.7428	0.0154	0.005
Mof_C 	C 	0.6329	0.7415	0.0408	-0.004
Mof_C 	C 	0.6239	0.719	0.0505	0.003
Mof_C 	C 	0.613	0.6974	0.0354	-0.008
Mof_C 	C 	0.5265	0.6894	0.0224	0.011
Mof_C 	C 	0.5143	0.701	0.0428	-0.017
Mof_C 	C 	0.5147	0.6877	0.0672	0.003
Mof_C 	C 	0.5257	0.6614	0.069	-0.003
Mof_C 	C 	0.5347	0.6483	0.0452	0.007
Mof_C 	C 	0.5363	0.6635	0.0239	-0.029
Mof_C 	C 	0.4998	0.721	0.8529	0.011
Mof_C 	C 	0.491	0.7462	0.8477	-0.007
Mof_C 	C 	0.4685	0.7506	0.831	0.003
Mof_C 	C 	0.4548	0.7298	0.8196	-0.004
Mof_C 	C 	0.4636	0.7046	0.8248	0.007
Mof_C 	C 	0.486	0.7002	0.8415	-0.03
Mof_C 	C 	0.4467	0.6303	0.9665	0.014
Mof_C 	C 	0.4245	0.6209	0.983	-0.007
Mof_C 	C 	0.3958	0.6145	0.974	0.002
Mof_C 	C 	0.3911	0.6148	0.9458	-0.002
Mof_C 	C 	0.4147	0.6255	0.9281	0.005
Mof_C 	C 	0.4415	0.6325	0.9404	-0.026
Mof_C 	C 	0.6612	0.8099	0.7471	0.009
Mof_C 	C 	0.6553	0.8055	0.7204	-0.02
Mof_C 	C 	0.6272	0.8129	0.7117	0.005
Mof_C 	C 	0.6068	0.8213	0.7274	-0.003
Mof_C 	C 	0.6124	0.8266	0.7537	0.003
Mof_C 	C 	0.6403	0.8196	0.7643	-0.009
Mof_Cd	Cd	0.64359	0.6602	0.854	0.253
Mof_Cd	Cd	0.70075	0.68212	0.908	0.269
Mof_Cd	Cd	0.58586	0.64207	0.90674	0.253
Mof_Cd	Cd	0.64755	0.66161	0.96	0.271
Mof_Cd	Cd	0.62325	0.71301	0.91043	0.271
Mof_Cd	Cd	0.72343	0.62532	0.85291	0.273
Mof_Cd	Cd	0.58212	0.63937	0.79957	0.271
Mof_Cd	Cd	0.56694	0.69062	0.96597	0.276
Mof_Cd	Cd	0.52004	0.62238	0.95255	0.278
Mof_Cd	Cd	0.70681	0.68222	0.80359	0.276
Mof_Cd	Cd	0.62381	0.7071	0.79471	0.276
Mof_Cd	Cd	0.56542	0.69271	0.84955	0.27
Mof_Cd	Cd	0.51034	0.68492	0.90576	0.276
Mof_Cd	Cd	0.67411	0.73504	0.85397	0.278
Mof_S 	S 	0.60401	0.67894	0.8803	-0.265
Mof_S 	S 	0.66216	0.69655	0.82662	-0.257
Mof_S 	S 	0.68429	0.64419	0.8807	-0.264
Mof_S 	S 	0.66453	0.7002	0.93716	-0.199
Mof_S 	S 	0.54554	0.66057	0.93315	-0.255
Mof_S 	S 	0.63561	0.75177	0.88251	-0.12
Mof_S 	S 	0.54239	0.65897	0.82358	-0.199
Mof_S 	S 	0.69013	0.64086	0.98279	-0.13
Mof_S 	S 	0.60703	0.67094	0.99166	-0.121
Mof_S 	S 	0.57843	0.72646	0.93524	-0.134
Mof_S 	S 	0.74772	0.66467	0.92669	-0.121
Mof_S 	S 	0.71768	0.71362	0.87386	-0.131
Mof_Cd	Cd	0.48135	0.68955	0.97596	0.284
Mof_Cd	Cd	0.68875	0.75789	0.78198	0.286
Mof_S 	S 	0.52764	0.70763	0.99463	-0.119
Mof_S 	S 	0.72359	0.72024	0.77631	-0.118
Mof_S 	S 	0.59002	0.72937	0.82542	-0.127
Mof_S 	S 	0.74641	0.66405	0.83051	-0.119
Mof_S 	S 	0.75776	0.60729	0.88632	-0.131
Mof_S 	S 	0.47958	0.63993	0.97849	-0.117
Mof_S 	S 	0.63874	0.74521	0.76825	-0.122
Mof_S 	S 	0.52789	0.71764	0.875	-0.121
Mof_S 	S 	0.69273	0.77229	0.82762	-0.113
Mof_S 	S 	0.6069	0.6695	0.76838	-0.119
Mof_S 	S 	0.4721	0.70679	0.93287	-0.12
Mof_S 	S 	0.6837	0.64989	0.77371	-0.126
Mof_S 	S 	0.69488	0.80085	0.75982	-0.109
Mof_C 	C 	0.5636	0.7516	0.8062	0.012
Mof_C 	C 	0.5451	0.7741	0.7709	0.002
Mof_C 	C 	0.5663	0.7589	0.7816	-0.01
Mof_C 	C 	0.5485	0.7333	0.7934	-0.019
Mof_C 	C 	0.7449	0.4796	0.041	0.01
Mof_C 	C 	0.7199	0.4833	0.0267	-0.009
Mof_C 	C 	0.6931	0.4887	0.0375	0.002
Mof_C 	C 	0.6915	0.4927	0.0631	-0.004
Mof_C 	C 	0.7151	0.4901	0.078	0.008
Mof_C 	C 	0.7412	0.4823	0.067	-0.028
Mof_C 	C 	0.0184	0.4904	0.1844	0.011
Mof_C 	C 	0.0173	0.5042	0.2068	-0.028
Mof_C 	C 	0.0113	0.5321	0.2069	0.005
Mof_C 	C 	0.0075	0.5455	0.1867	-0.004
Mof_C 	C 	0.0092	0.5306	0.1652	0.005
Mof_C 	C 	0.0154	0.5042	0.1641	-0.014
Mof_C 	C 	0.9117	0.5044	0.2008	0.017
Mof_C 	C 	0.8852	0.5147	0.2033	-0.022
Mof_C 	C 	0.8761	0.5396	0.2165	0.005
Mof_C 	C 	0.8981	0.5502	0.2289	-0.004
Mof_C 	C 	0.9273	0.5438	0.2254	0.003
Mof_C 	C 	0.9339	0.5228	0.2105	-0.012
Mof_C 	C 	0.7289	0.4029	0.0582	0.012
Mof_C 	C 	0.706	0.4202	0.0525	-0.008
Mof_C 	C 	0.6853	0.4113	0.0352	0.002
Mof_C 	C 	0.6864	0.385	0.0235	-0.003
Mof_C 	C 	0.71	0.3691	0.029	0.005
Mof_C 	C 	0.7313	0.3783	0.0474	-0.025
Mof_C 	C 	0.7567	0.4854	0.1374	0.018
Mof_C 	C 	0.7597	0.51	0.1315	-0.02
Mof_C 	C 	0.7367	0.528	0.1418	0.004
Mof_C 	C 	0.7148	0.5168	0.1585	-0.003
Mof_C 	C 	0.7097	0.4893	0.1589	0.003
Mof_C 	C 	0.7316	0.4736	0.144	-0.012
Mof_C 	C 	0.7403	0.4366	0.1987	0.016
Mof_C 	C 	0.7556	0.4553	0.2084	-0.029
Mof_C 	C 	0.7444	0.4741	0.2237	0.007
Mof_C 	C 	0.715	0.4721	0.2329	-0.005
Mof_C 	C 	0.6964	0.4535	0.2223	0.003
Mof_C 	C 	0.7103	0.4345	0.2041	-0.009
Mof_C 	C 	0.7946	0.4154	0.253	0.016
Mof_C 	C 	0.8084	0.4379	0.2584	-0.022
Mof_C 	C 	0.7966	0.4564	0.2736	0.007
Mof_C 	C 	0.7696	0.4513	0.2854	-0.006
Mof_C 	C 	0.7575	0.4281	0.2807	0.008
Mof_C 	C 	0.7669	0.414	0.263	-0.019
Mof_C 	C 	0.8441	0.524	0.1516	0.011
Mof_C 	C 	0.8225	0.5158	0.167	-0.028
Mof_C 	C 	0.8056	0.5336	0.1835	0.004
Mof_C 	C 	0.8137	0.562	0.1811	-0.003
Mof_C 	C 	0.8394	0.5686	0.1642	0.002
Mof_C 	C 	0.8527	0.5494	0.1475	-0.006
Mof_C 	C 	0.8347	0.5473	0.0818	0.01
Mof_C 	C 	0.822	0.5717	0.0883	-0.006
Mof_C 	C 	0.844	0.5891	0.0934	0.002
Mof_C 	C 	0.8719	0.5862	0.0861	-0.004
Mof_C 	C 	0.8828	0.5636	0.082	0.006
Mof_C 	C 	0.8626	0.5409	0.0787	-0.027
Mof_C 	C 	0.78664	0.38717	0.00344	0.011
Mof_C 	C 	0.7803	0.36084	0.0035	-0.021
Mof_C 	C 	0.7581	0.35133	0.98858	0.006
Mof_C 	C 	0.7423	0.3682	0.97359	-0.004
Mof_C 	C 	0.7487	0.3945	0.97353	0.004
Mof_C 	C 	0.77082	0.404	0.98845	-0.013
Mof_C 	C 	0.8585	0.48469	0.99	0.022
Mof_C 	C 	0.8413	0.46322	0.9851	-0.036
Mof_C 	C 	0.8372	0.45491	0.96063	0.009
Mof_C 	C 	0.8503	0.4681	0.941	-0.006
Mof_C 	C 	0.8675	0.4895	0.9458	0.004
Mof_C 	C 	0.8717	0.4978	0.9703	-0.011
Mof_C 	C 	0.925	0.43861	0.0039	0.001
Mof_C 	C 	0.9223	0.44885	0.9799	-0.005
Mof_C 	C 	0.946	0.46032	0.9684	0.002
Mof_C 	C 	0.9723	0.46156	0.9808	-0.003
Mof_C 	C 	0.975	0.45133	0.0047	0.006
Mof_C 	C 	0.9513	0.43985	0.0163	-0.024
Mof_C 	C 	0.7061	0.3518	0.1217	0.013
Mof_C 	C 	0.7086	0.3731	0.1059	-0.019
Mof_C 	C 	0.6858	0.3798	0.0903	0.005
Mof_C 	C 	0.6607	0.3651	0.0903	-0.004
Mof_C 	C 	0.6582	0.3438	0.1061	0.004
Mof_C 	C 	0.681	0.3371	0.1217	-0.014
Mof_C 	C 	0.8837	0.4483	0.2604	0.012
Mof_C 	C 	0.8744	0.4707	0.2483	-0.029
Mof_C 	C 	0.865	0.4928	0.2654	0.005
Mof_C 	C 	0.8671	0.4915	0.2908	-0.004
Mof_C 	C 	0.8761	0.469	0.3005	0.003
Mof_C 	C 	0.887	0.4474	0.2854	-0.008
Mof_C 	C 	0.9735	0.4394	0.2724	0.011
Mof_C 	C 	0.9857	0.451	0.2928	-0.017
Mof_C 	C 	0.9853	0.4377	0.3172	0.003
Mof_C 	C 	0.9743	0.4114	0.319	-0.003
Mof_C 	C 	0.9653	0.3983	0.2952	0.007
Mof_C 	C 	0.9637	0.4135	0.2739	-0.029
Mof_C 	C 	0.0002	0.471	0.1029	0.011
Mof_C 	C 	0.009	0.4962	0.0977	-0.007
Mof_C 	C 	0.0315	0.5006	0.081	0.003
Mof_C 	C 	0.0452	0.4798	0.0696	-0.004
Mof_C 	C 	0.0364	0.4546	0.0748	0.007
Mof_C 	C 	0.014	0.4502	0.0915	-0.03
Mof_C 	C 	0.0533	0.3803	0.2165	0.014
Mof_C 	C 	0.0755	0.3709	0.233	-0.007
Mof_C 	C 	0.1042	0.3645	0.224	0.002
Mof_C 	C 	0.1089	0.3648	0.1958	-0.002
Mof_C 	C 	0.0853	0.3755	0.1781	0.005
Mof_C 	C 	0.0585	0.3825	0.1904	-0.026
Mof_C 	C 	0.8388	0.5599	0.9971	0.009
Mof_C 	C 	0.8447	0.5555	0.9704	-0.02
Mof_C 	C 	0.8728	0.5629	0.9617	0.005
Mof_C 	C 	0.8932	0.5713	0.9774	-0.003
Mof_C 	C 	0.8876	0.5766	0.0037	0.003
Mof_C 	C 	0.8597	0.5696	0.0143	-0.009
Mof_Cd	Cd	0.85641	0.4102	0.104	0.253
Mof_Cd	Cd	0.79925	0.43212	0.158	0.269
Mof_Cd	Cd	0.91414	0.39207	0.15674	0.253
Mof_Cd	Cd	0.85245	0.41161	0.21	0.271
Mof_Cd	Cd	0.87675	0.46301	0.16043	0.271
Mof_Cd	Cd	0.77657	0.37532	0.10291	0.273
Mof_Cd	Cd	0.91788	0.38937	0.04957	0.271
Mof_Cd	Cd	0.93306	0.44062	0.21597	0.276
Mof_Cd	Cd	0.97996	0.37238	0.20255	0.278
Mof_Cd	Cd	0.79319	0.43222	0.05359	0.276
Mof_Cd	Cd	0.87619	0.4571	0.04471	0.276
Mof_Cd	Cd	0.93458	0.44271	0.09955	0.27
Mof_Cd	Cd	0.98966	0.43492	0.15576	0.276
Mof_Cd	Cd	0.82589	0.48504	0.10397	0.278
Mof_S 	S 	0.89599	0.42894	0.1303	-0.265
Mof_S 	S 	0.83784	0.44655	0.07662	-0.257
Mof_S 	S 	0.81571	0.39419	0.1307	-0.264
Mof_S 	S 	0.83547	0.4502	0.18716	-0.199
Mof_S 	S 	0.95446	0.41057	0.18315	-0.255
Mof_S 	S 	0.86439	0.50177	0.13251	-0.12
Mof_S 	S 	0.95761	0.40897	0.07358	-0.199
Mof_S 	S 	0.80987	0.39086	0.23279	-0.13
Mof_S 	S 	0.89297	0.42094	0.24166	-0.121
Mof_S 	S 	0.92157	0.47646	0.18524	-0.134
Mof_S 	S 	0.75228	0.41467	0.17669	-0.121
Mof_S 	S 	0.78232	0.46362	0.12386	-0.131
Mof_Cd	Cd	0.01865	0.43955	0.22596	0.284
Mof_Cd	Cd	0.81125	0.50789	0.03198	0.286
Mof_S 	S 	0.97236	0.45763	0.24463	-0.119
Mof_S 	S 	0.77641	0.47024	0.02631	-0.118
Mof_S 	S 	0.90998	0.47937	0.07542	-0.127
Mof_S 	S 	0.75359	0.41405	0.08051	-0.119
Mof_S 	S 	0.74224	0.35729	0.13632	-0.131
Mof_S 	S 	0.02042	0.38993	0.22849	-0.117
Mof_S 	S 	0.86126	0.49521	0.01825	-0.122
Mof_S 	S 	0.97211	0.46764	0.125	-0.121
Mof_S 	S 	0.80727	0.52229	0.07762	-0.113
Mof_S 	S 	0.8931	0.4195	0.01838	-0.119
Mof_S 	S 	0.0279	0.45679	0.18287	-0.12
Mof_S 	S 	0.8163	0.39989	0.02371	-0.126
Mof_S 	S 	0.80512	0.55085	0.00982	-0.109
Mof_C 	C 	0.9364	0.5016	0.0562	0.012
Mof_C 	C 	0.9549	0.5241	0.0209	0.002
Mof_C 	C 	0.9337	0.5089	0.0316	-0.01
Mof_C 	C 	0.9515	0.4833	0.0434	-0.019
Mof_C 	C 	0.7449	0.9796	0.541	0.01
Mof_C 	C 	0.7199	0.9833	0.5267	-0.009
Mof_C 	C 	0.6931	0.9887	0.5375	0.002
Mof_C 	C 	0.6915	0.9927	0.5631	-0.004
Mof_C 	C 	0.7151	0.9901	0.578	0.008
Mof_C 	C 	0.7412	0.9823	0.567	-0.028
Mof_C 	C 	0.0184	0.9904	0.6844	0.011
Mof_C 	C 	0.0173	0.0042	0.7068	-0.028
Mof_C 	C 	0.0113	0.0321	0.7069	0.005
Mof_C 	C 	0.0075	0.0455	0.6867	-0.004
Mof_C 	C 	0.0092	0.0306	0.6652	0.005
Mof_C 	C 	0.0154	0.0042	0.6641	-0.014
Mof_C 	C 	0.9117	0.0044	0.7008	0.017
Mof_C 	C 	0.8852	0.0147	0.7033	-0.022
Mof_C 	C 	0.8761	0.0396	0.7165	0.005
Mof_C 	C 	0.8981	0.0502	0.7289	-0.004
Mof_C 	C 	0.9273	0.0438	0.7254	0.003
Mof_C 	C 	0.9339	0.0228	0.7105	-0.012
Mof_C 	C 	0.7289	0.9029	0.5582	0.012
Mof_C 	C 	0.706	0.9202	0.5525	-0.008
Mof_C 	C 	0.6853	0.9113	0.5352	0.002
Mof_C 	C 	0.6864	0.885	0.5235	-0.003
Mof_C 	C 	0.71	0.8691	0.529	0.005
Mof_C 	C 	0.7313	0.8783	0.5474	-0.025
Mof_C 	C 	0.7567	0.9854	0.6374	0.018
Mof_C 	C 	0.7597	0.01	0.6315	-0.02
Mof_C 	C 	0.7367	0.028	0.6418	0.004
Mof_C 	C 	0.7148	0.0168	0.6585	-0.003
Mof_C 	C 	0.7097	0.9893	0.6589	0.003
Mof_C 	C 	0.7316	0.9736	0.644	-0.012
Mof_C 	C 	0.7403	0.9366	0.6987	0.016
Mof_C 	C 	0.7556	0.9553	0.7084	-0.029
Mof_C 	C 	0.7444	0.9741	0.7237	0.007
Mof_C 	C 	0.715	0.9721	0.7329	-0.005
Mof_C 	C 	0.6964	0.9535	0.7223	0.003
Mof_C 	C 	0.7103	0.9345	0.7041	-0.009
Mof_C 	C 	0.7946	0.9154	0.753	0.016
Mof_C 	C 	0.8084	0.9379	0.7584	-0.022
Mof_C 	C 	0.7966	0.9564	0.7736	0.007
Mof_C 	C 	0.7696	0.9513	0.7854	-0.006
Mof_C 	C 	0.7575	0.9281	0.7807	0.008
Mof_C 	C 	0.7669	0.914	0.763	-0.019
Mof_C 	C 	0.8441	0.024	0.6516	0.011
Mof_C 	C 	0.8225	0.0158	0.667	-0.028
Mof_C 	C 	0.8056	0.0336	0.6835	0.004
Mof_C 	C 	0.8137	0.062	0.6811	-0.003
Mof_C 	C 	0.8394	0.0686	0.6642	0.002
Mof_C 	C 	0.8527	0.0494	0.6475	-0.006
Mof_C 	C 	0.8347	0.0473	0.5818	0.01
Mof_C 	C 	0.822	0.0717	0.5883	-0.006
Mof_C 	C 	0.844	0.0891	0.5934	0.002
Mof_C 	C 	0.8719	0.0862	0.5861	-0.004
Mof_C 	C 	0.8828	0.0636	0.582	0.006
Mof_C 	C 	0.8626	0.0409	0.5787	-0.027
Mof_C 	C 	0.78664	0.88717	0.50344	0.011
Mof_C 	C 	0.7803	0.86084	0.5035	-0.021
Mof_C 	C 	0.7581	0.85133	0.48858	0.006
Mof_C 	C 	0.7423	0.8682	0.47359	-0.004
Mof_C 	C 	0.7487	0.8945	0.47353	0.004
Mof_C 	C 	0.77082	0.904	0.48845	-0.013
Mof_C 	C 	0.8585	0.98469	0.49	0.022
Mof_C 	C 	0.8413	0.96322	0.4851	-0.036
Mof_C 	C 	0.8372	0.95491	0.46063	0.009
Mof_C 	C 	0.8503	0.9681	0.441	-0.006
Mof_C 	C 	0.8675	0.9895	0.4458	0.004
Mof_C 	C 	0.8717	0.9978	0.4703	-0.011
Mof_C 	C 	0.925	0.93861	0.5039	0.001
Mof_C 	C 	0.9223	0.94885	0.4799	-0.005
Mof_C 	C 	0.946	0.96032	0.4684	0.002
Mof_C 	C 	0.9723	0.96156	0.4808	-0.003
Mof_C 	C 	0.975	0.95133	0.5047	0.006
Mof_C 	C 	0.9513	0.93985	0.5163	-0.024
Mof_C 	C 	0.7061	0.8518	0.6217	0.013
Mof_C 	C 	0.7086	0.8731	0.6059	-0.019
Mof_C 	C 	0.6858	0.8798	0.5903	0.005
Mof_C 	C 	0.6607	0.8651	0.5903	-0.004
Mof_C 	C 	0.6582	0.8438	0.6061	0.004
Mof_C 	C 	0.681	0.8371	0.6217	-0.014
Mof_C 	C 	0.8837	0.9483	0.7604	0.012
Mof_C 	C 	0.8744	0.9707	0.7483	-0.029
Mof_C 	C 	0.865	0.9928	0.7654	0.005
Mof_C 	C 	0.8671	0.9915	0.7908	-0.004
Mof_C 	C 	0.8761	0.969	0.8005	0.003
Mof_C 	C 	0.887	0.9474	0.7854	-0.008
Mof_C 	C 	0.9735	0.9394	0.7724	0.011
Mof_C 	C 	0.9857	0.951	0.7928	-0.017
Mof_C 	C 	0.9853	0.9377	0.8172	0.003
Mof_C 	C 	0.9743	0.9114	0.819	-0.003
Mof_C 	C 	0.9653	0.8983	0.7952	0.007
Mof_C 	C 	0.9637	0.9135	0.7739	-0.029
Mof_C 	C 	0.0002	0.971	0.6029	0.011
Mof_C 	C 	0.009	0.9962	0.5977	-0.007
Mof_C 	C 	0.0315	0.0006	0.581	0.003
Mof_C 	C 	0.0452	0.9798	0.5696	-0.004
Mof_C 	C 	0.0364	0.9546	0.5748	0.007
Mof_C 	C 	0.014	0.9502	0.5915	-0.03
Mof_C 	C 	0.0533	0.8803	0.7165	0.014
Mof_C 	C 	0.0755	0.8709	0.733	-0.007
Mof_C 	C 	0.1042	0.8645	0.724	0.002
Mof_C 	C 	0.1089	0.8648	0.6958	-0.002
Mof_C 	C 	0.0853	0.8755	0.6781	0.005
Mof_C 	C 	0.0585	0.8825	0.6904	-0.026
Mof_C 	C 	0.8388	0.0599	0.4971	0.009
Mof_C 	C 	0.8447	0.0555	0.4704	-0.02
Mof_C 	C 	0.8728	0.0629	0.4617	0.005
Mof_C 	C 	0.8932	0.0713	0.4774	-0.003
Mof_C 	C 	0.8876	0.0766	0.5037	0.003
Mof_C 	C 	0.8597	0.0696	0.5143	-0.009
Mof_Cd	Cd	0.85641	0.9102	0.604	0.253
Mof_Cd	Cd	0.79925	0.93212	0.658	0.269
Mof_Cd	Cd	0.91414	0.89207	0.65674	0.253
Mof_Cd	Cd	0.85245	0.91161	0.71	0.271
Mof_Cd	Cd	0.87675	0.96301	0.66043	0.271
Mof_Cd	Cd	0.77657	0.87532	0.60291	0.273
Mof_Cd	Cd	0.91788	0.88937	0.54957	0.271
Mof_Cd	Cd	0.93306	0.94062	0.71597	0.276
Mof_Cd	Cd	0.97996	0.87238	0.70255	0.278
Mof_Cd	Cd	0.79319	0.93222	0.55359	0.276
Mof_Cd	Cd	0.87619	0.9571	0.54471	0.276
Mof_Cd	Cd	0.93458	0.94271	0.59955	0.27
Mof_Cd	Cd	0.98966	0.93492	0.65576	0.276
Mof_Cd	Cd	0.82589	0.98504	0.60397	0.278
Mof_S 	S 	0.89599	0.92894	0.6303	-0.265
Mof_S 	S 	0.83784	0.94655	0.57662	-0.257
Mof_S 	S 	0.81571	0.89419	0.6307	-0.264
Mof_S 	S 	0.83547	0.9502	0.68716	-0.199
Mof_S 	S 	0.95446	0.91057	0.68315	-0.255
Mof_S 	S 	0.86439	0.00177	0.63251	-0.12
Mof_S 	S 	0.95761	0.90897	0.57358	-0.199
Mof_S 	S 	0.80987	0.89086	0.73279	-0.13
Mof_S 	S 	0.89297	0.92094	0.74166	-0.121
Mof_S 	S 	0.92157	0.97646	0.68524	-0.134
Mof_S 	S 	0.75228	0.91467	0.67669	-0.121
Mof_S 	S 	0.78232	0.96362	0.62386	-0.131
Mof_Cd	Cd	0.01865	0.93955	0.72596	0.284
Mof_Cd	Cd	0.81125	0.00789	0.53198	0.286
Mof_S 	S 	0.97236	0.95763	0.74463	-0.119
Mof_S 	S 	0.77641	0.97024	0.52631	-0.118
Mof_S 	S 	0.90998	0.97937	0.57542	-0.127
Mof_S 	S 	0.75359	0.91405	0.58051	-0.119
Mof_S 	S 	0.74224	0.85729	0.63632	-0.131
Mof_S 	S 	0.02042	0.88993	0.72849	-0.117
Mof_S 	S 	0.86126	0.99521	0.51825	-0.122
Mof_S 	S 	0.97211	0.96764	0.625	-0.121
Mof_S 	S 	0.80727	0.02229	0.57762	-0.113
Mof_S 	S 	0.8931	0.9195	0.51838	-0.119
Mof_S 	S 	0.0279	0.95679	0.68287	-0.12
Mof_S 	S 	0.8163	0.89989	0.52371	-0.126
Mof_S 	S 	0.80512	0.05085	0.50982	-0.109
Mof_C 	C 	0.9364	0.0016	0.5562	0.012
Mof_C 	C 	0.9549	0.0241	0.5209	0.002
Mof_C 	C 	0.9337	0.0089	0.5316	-0.01
Mof_C 	C 	0.9515	0.9833	0.5434	-0.019
Mof_C 	C 	0.2449	0.4796	0.541	0.01
Mof_C 	C 	0.2199	0.4833	0.5267	-0.009
Mof_C 	C 	0.1931	0.4887	0.5375	0.002
Mof_C 	C 	0.1915	0.4927	0.5631	-0.004
Mof_C 	C 	0.2151	0.4901	0.578	0.008
Mof_C 	C 	0.2412	0.4823	0.567	-0.028
Mof_C 	C 	0.5184	0.4904	0.6844	0.011
Mof_C 	C 	0.5173	0.5042	0.7068	-0.028
Mof_C 	C 	0.5113	0.5321	0.7069	0.005
Mof_C 	C 	0.5075	0.5455	0.6867	-0.004
Mof_C 	C 	0.5092	0.5306	0.6652	0.005
Mof_C 	C 	0.5154	0.5042	0.6641	-0.014
Mof_C 	C 	0.4117	0.5044	0.7008	0.017
Mof_C 	C 	0.3852	0.5147	0.7033	-0.022
Mof_C 	C 	0.3761	0.5396	0.7165	0.005
Mof_C 	C 	0.3981	0.5502	0.7289	-0.004
Mof_C 	C 	0.4273	0.5438	0.7254	0.003
Mof_C 	C 	0.4339	0.5228	0.7105	-0.012
Mof_C 	C 	0.2289	0.4029	0.5582	0.012
Mof_C 	C 	0.206	0.4202	0.5525	-0.008
Mof_C 	C 	0.1853	0.4113	0.5352	0.002
Mof_C 	C 	0.1864	0.385	0.5235	-0.003
Mof_C 	C 	0.21	0.3691	0.529	0.005
Mof_C 	C 	0.2313	0.3783	0.5474	-0.025
Mof_C 	C 	0.2567	0.4854	0.6374	0.018
Mof_C 	C 	0.2597	0.51	0.6315	-0.02
Mof_C 	C 	0.2367	0.528	0.6418	0.004
Mof_C 	C 	0.2148	0.5168	0.6585	-0.003
Mof_C 	C 	0.2097	0.4893	0.6589	0.003
Mof_C 	C 	0.2316	0.4736	0.644	-0.012
Mof_C 	C 	0.2403	0.4366	0.6987	0.016
Mof_C 	C 	0.2556	0.4553	0.7084	-0.029
Mof_C 	C 	0.2444	0.4741	0.7237	0.007
Mof_C 	C 	0.215	0.4721	0.7329	-0.005
Mof_C 	C 	0.1964	0.4535	0.7223	0.003
Mof_C 	C 	0.2103	0.4345	0.7041	-0.009
Mof_C 	C 	0.2946	0.4154	0.753	0.016
Mof_C 	C 	0.3084	0.4379	0.7584	-0.022
Mof_C 	C 	0.2966	0.4564	0.7736	0.007
Mof_C 	C 	0.2696	0.4513	0.7854	-0.006
Mof_C 	C 	0.2575	0.4281	0.7807	0.008
Mof_C 	C 	0.2669	0.414	0.763	-0.019
Mof_C 	C 	0.3441	0.524	0.6516	0.011
Mof_C 	C 	0.3225	0.5158	0.667	-0.028
Mof_C 	C 	0.3056	0.5336	0.6835	0.004
Mof_C 	C 	0.3137	0.562	0.6811	-0.003
Mof_C 	C 	0.3394	0.5686	0.6642	0.002
Mof_C 	C 	0.3527	0.5494	0.6475	-0.006
Mof_C 	C 	0.3347	0.5473	0.5818	0.01
Mof_C 	C 	0.322	0.5717	0.5883	-0.006
Mof_C 	C 	0.344	0.5891	0.5934	0.002
Mof_C 	C 	0.3719	0.5862	0.5861	-0.004
Mof_C 	C 	0.3828	0.5636	0.582	0.006
Mof_C 	C 	0.3626	0.5409	0.5787	-0.027
Mof_C 	C 	0.28664	0.38717	0.50344	0.011
Mof_C 	C 	0.2803	0.36084	0.5035	-0.021
Mof_C 	C 	0.2581	0.35133	0.48858	0.006
Mof_C 	C 	0.2423	0.3682	0.47359	-0.004
Mof_C 	C 	0.2487	0.3945	0.47353	0.004
Mof_C 	C 	0.27082	0.404	0.48845	-0.013
Mof_C 	C 	0.3585	0.48469	0.49	0.022
Mof_C 	C 	0.3413	0.46322	0.4851	-0.036
Mof_C 	C 	0.3372	0.45491	0.46063	0.009
Mof_C 	C 	0.3503	0.4681	0.441	-0.006
Mof_C 	C 	0.3675	0.4895	0.4458	0.004
Mof_C 	C 	0.3717	0.4978	0.4703	-0.011
Mof_C 	C 	0.425	0.43861	0.5039	0.001
Mof_C 	C 	0.4223	0.44885	0.4799	-0.005
Mof_C 	C 	0.446	0.46032	0.4684	0.002
Mof_C 	C 	0.4723	0.46156	0.4808	-0.003
Mof_C 	C 	0.475	0.45133	0.5047	0.006
Mof_C 	C 	0.4513	0.43985	0.5163	-0.024
Mof_C 	C 	0.2061	0.3518	0.6217	0.013
Mof_C 	C 	0.2086	0.3731	0.6059	-0.019
Mof_C 	C 	0.1858	0.3798	0.5903	0.005
Mof_C 	C 	0.1607	0.3651	0.5903	-0.004
Mof_C 	C 	0.1582	0.3438	0.6061	0.004
Mof_C 	C 	0.181	0.3371	0.6217	-0.014
Mof_C 	C 	0.3837	0.4483	0.7604	0.012
Mof_C 	C 	0.3744	0.4707	0.7483	-0.029
Mof_C 	C 	0.365	0.4928	0.7654	0.005
Mof_C 	C 	0.3671	0.4915	0.7908	-0.004
Mof_C 	C 	0.3761	0.469	0.8005	0.003
Mof_C 	C 	0.387	0.4474	0.7854	-0.008
Mof_C 	C 	0.4735	0.4394	0.7724	0.011
Mof_C 	C 	0.4857	0.451	0.7928	-0.017
Mof_C 	C 	0.4853	0.4377	0.8172	0.003
Mof_C 	C 	0.4743	0.4114	0.819	-0.003
Mof_C 	C 	0.4653	0.3983	0.7952	0.007
Mof_C 	C 	0.4637	0.4135	0.7739	-0.029
Mof_C 	C 	0.5002	0.471	0.6029	0.011
Mof_C 	C 	0.509	0.4962	0.5977	-0.007
Mof_C 	C 	0.5315	0.5006	0.581	0.003
Mof_C 	C 	0.5452	0.4798	0.5696	-0.004
Mof_C 	C 	0.5364	0.4546	0.5748	0.007
Mof_C 	C 	0.514	0.4502	0.5915	-0.03
Mof_C 	C 	0.5533	0.3803	0.7165	0.014
Mof_C 	C 	0.5755	0.3709	0.733	-0.007
Mof_C 	C 	0.6042	0.3645	0.724	0.002
Mof_C 	C 	0.6089	0.3648	0.6958	-0.002
Mof_C 	C 	0.5853	0.3755	0.6781	0.005
Mof_C 	C 	0.5585	0.3825	0.6904	-0.026
Mof_C 	C 	0.3388	0.5599	0.4971	0.009
Mof_C 	C 	0.3447	0.5555	0.4704	-0.02
Mof_C 	C 	0.3728	0.5629	0.4617	0.005
Mof_C 	C 	0.3932	0.5713	0.4774	-0.003
Mof_C 	C 	0.3876	0.5766	0.5037	0.003
Mof_C 	C 	0.3597	0.5696	0.5143	-0.009
Mof_Cd	Cd	0.35641	0.4102	0.604	0.253
Mof_Cd	Cd	0.29925	0.43212	0.658	0.269
Mof_Cd	Cd	0.41414	0.39207	0.65674	0.253
Mof_Cd	Cd	0.35245	0.41161	0.71	0.271
Mof_Cd	Cd	0.37675	0.46301	0.66043	0.271
Mof_Cd	Cd	0.27657	0.37532	0.60291	0.273
Mof_Cd	Cd	0.41788	0.38937	0.54957	0.271
Mof_Cd	Cd	0.43306	0.44062	0.71597	0.276
Mof_Cd	Cd	0.47996	0.37238	0.70255	0.278
Mof_Cd	Cd	0.29319	0.43222	0.55359	0.276
Mof_Cd	Cd	0.37619	0.4571	0.54471	0.276
Mof_Cd	Cd	0.43458	0.44271	0.59955	0.27
Mof_Cd	Cd	0.48966	0.43492	0.65576	0.276
Mof_Cd	Cd	0.32589	0.48504	0.60397	0.278
Mof_S 	S 	0.39599	0.42894	0.6303	-0.265
Mof_S 	S 	0.33784	0.44655	0.57662	-0.257
Mof_S 	S 	0.31571	0.39419	0.6307	-0.264
Mof_S 	S 	0.33547	0.4502	0.68716	-0.199
Mof_S 	S 	0.45446	0.41057	0.68315	-0.255
Mof_S 	S 	0.36439	0.50177	0.63251	-0.12
Mof_S 	S 	0.45761	0.40897	0.57358	-0.199
Mof_S 	S 	0.30987	0.39086	0.73279	-0.13
Mof_S 	S 	0.39297	0.42094	0.74166	-0.121
Mof_S 	S 	0.42157	0.47646	0.68524	-0.134
Mof_S 	S 	0.25228	0.41467	0.67669	-0.121
Mof_S 	S 	0.28232	0.46362	0.62386	-0.131
Mof_Cd	Cd	0.51865	0.43955	0.72596	0.284
Mof_Cd	Cd	0.31125	0.50789	0.53198	0.286
Mof_S 	S 	0.47236	0.45763	0.74463	-0.119
Mof_S 	S 	0.27641	0.47024	0.52631	-0.118
Mof_S 	S 	0.40998	0.47937	0.57542	-0.127
Mof_S 	S 	0.25359	0.41405	0.58051	-0.119
Mof_S 	S 	0.24224	0.35729	0.63632	-0.131
Mof_S 	S 	0.52042	0.38993	0.72849	-0.117
Mof_S 	S 	0.36126	0.49521	0.51825	-0.122
Mof_S 	S 	0.47211	0.46764	0.625	-0.121
Mof_S 	S 	0.30727	0.52229	0.57762	-0.113
Mof_S 	S 	0.3931	0.4195	0.51838	-0.119
Mof_S 	S 	0.5279	0.45679	0.68287	-0.12
Mof_S 	S 	0.3163	0.39989	0.52371	-0.126
Mof_S 	S 	0.30512	0.55085	0.50982	-0.109
Mof_C 	C 	0.4364	0.5016	0.5562	0.012
Mof_C 	C 	0.4549	0.5241	0.5209	0.002
Mof_C 	C 	0.4337	0.5089	0.5316	-0.01
Mof_C 	C 	0.4515	0.4833	0.5434	-0.019
Mof_C 	C 	0.2449	0.9796	0.041	0.01
Mof_C 	C 	0.2199	0.9833	0.0267	-0.009
Mof_C 	C 	0.1931	0.9887	0.0375	0.002
Mof_C 	C 	0.1915	0.9927	0.0631	-0.004
Mof_C 	C 	0.2151	0.9901	0.078	0.008
Mof_C 	C 	0.2412	0.9823	0.067	-0.028
Mof_C 	C 	0.5184	0.9904	0.1844	0.011
Mof_C 	C 	0.5173	0.0042	0.2068	-0.028
Mof_C 	C 	0.5113	0.0321	0.2069	0.005
Mof_C 	C 	0.5075	0.0455	0.1867	-0.004
Mof_C 	C 	0.5092	0.0306	0.1652	0.005
Mof_C 	C 	0.5154	0.0042	0.1641	-0.014
Mof_C 	C 	0.4117	0.0044	0.2008	0.017
Mof_C 	C 	0.3852	0.0147	0.2033	-0.022
Mof_C 	C 	0.3761	0.0396	0.2165	0.005
Mof_C 	C 	0.3981	0.0502	0.2289	-0.004
Mof_C 	C 	0.4273	0.0438	0.2254	0.003
Mof_C 	C 	0.4339	0.0228	0.2105	-0.012
Mof_C 	C 	0.2289	0.9029	0.0582	0.012
Mof_C 	C 	0.206	0.9202	0.0525	-0.008
Mof_C 	C 	0.1853	0.9113	0.0352	0.002
Mof_C 	C 	0.1864	0.885	0.0235	-0.003
Mof_C 	C 	0.21	0.8691	0.029	0.005
Mof_C 	C 	0.2313	0.8783	0.0474	-0.025
Mof_C 	C 	0.2567	0.9854	0.1374	0.018
Mof_C 	C 	0.2597	0.01	0.1315	-0.02
Mof_C 	C 	0.2367	0.028	0.1418	0.004
Mof_C 	C 	0.2148	0.0168	0.1585	-0.003
Mof_C 	C 	0.2097	0.9893	0.1589	0.003
Mof_C 	C 	0.2316	0.9736	0.144	-0.012
Mof_C 	C 	0.2403	0.9366	0.1987	0.016
Mof_C 	C 	0.2556	0.9553	0.2084	-0.029
Mof_C 	C 	0.2444	0.9741	0.2237	0.007
Mof_C 	C 	0.215	0.9721	0.2329	-0.005
Mof_C 	C 	0.1964	0.9535	0.2223	0.003
Mof_C 	C 	0.2103	0.9345	0.2041	-0.009
Mof_C 	C 	0.2946	0.9154	0.253	0.016
Mof_C 	C 	0.3084	0.9379	0.2584	-0.022
Mof_C 	C 	0.2966	0.9564	0.2736	0.007
Mof_C 	C 	0.2696	0.9513	0.2854	-0.006
Mof_C 	C 	0.2575	0.9281	0.2807	0.008
Mof_C 	C 	0.2669	0.914	0.263	-0.019
Mof_C 	C 	0.3441	0.024	0.1516	0.011
Mof_C 	C 	0.3225	0.0158	0.167	-0.028
Mof_C 	C 	0.3056	0.0336	0.1835	0.004
Mof_C 	C 	0.3137	0.062	0.1811	-0.003
Mof_C 	C 	0.3394	0.0686	0.1642	0.002
Mof_C 	C 	0.3527	0.0494	0.1475	-0.006
Mof_C 	C 	0.3347	0.0473	0.0818	0.01
Mof_C 	C 	0.322	0.0717	0.0883	-0.006
Mof_C 	C 	0.344	0.0891	0.0934	0.002
Mof_C 	C 	0.3719	0.0862	0.0861	-0.004
Mof_C 	C 	0.3828	0.0636	0.082	0.006
Mof_C 	C 	0.3626	0.0409	0.0787	-0.027
Mof_C 	C 	0.28664	0.88717	0.00344	0.011
Mof_C 	C 	0.2803	0.86084	0.0035	-0.021
Mof_C 	C 	0.2581	0.85133	0.98858	0.006
Mof_C 	C 	0.2423	0.8682	0.97359	-0.004
Mof_C 	C 	0.2487	0.8945	0.97353	0.004
Mof_C 	C 	0.27082	0.904	0.98845	-0.013
Mof_C 	C 	0.3585	0.98469	0.99	0.022
Mof_C 	C 	0.3413	0.96322	0.9851	-0.036
Mof_C 	C 	0.3372	0.95491	0.96063	0.009
Mof_C 	C 	0.3503	0.9681	0.941	-0.006
Mof_C 	C 	0.3675	0.9895	0.9458	0.004
Mof_C 	C 	0.3717	0.9978	0.9703	-0.011
Mof_C 	C 	0.425	0.93861	0.0039	0.001
Mof_C 	C 	0.4223	0.94885	0.9799	-0.005
Mof_C 	C 	0.446	0.96032	0.9684	0.002
Mof_C 	C 	0.4723	0.96156	0.9808	-0.003
Mof_C 	C 	0.475	0.95133	0.0047	0.006
Mof_C 	C 	0.4513	0.93985	0.0163	-0.024
Mof_C 	C 	0.2061	0.8518	0.1217	0.013
Mof_C 	C 	0.2086	0.8731	0.1059	-0.019
Mof_C 	C 	0.1858	0.8798	0.0903	0.005
Mof_C 	C 	0.1607	0.8651	0.0903	-0.004
Mof_C 	C 	0.1582	0.8438	0.1061	0.004
Mof_C 	C 	0.181	0.8371	0.1217	-0.014
Mof_C 	C 	0.3837	0.9483	0.2604	0.012
Mof_C 	C 	0.3744	0.9707	0.2483	-0.029
Mof_C 	C 	0.365	0.9928	0.2654	0.005
Mof_C 	C 	0.3671	0.9915	0.2908	-0.004
Mof_C 	C 	0.3761	0.969	0.3005	0.003
Mof_C 	C 	0.387	0.9474	0.2854	-0.008
Mof_C 	C 	0.4735	0.9394	0.2724	0.011
Mof_C 	C 	0.4857	0.951	0.2928	-0.017
Mof_C 	C 	0.4853	0.9377	0.3172	0.003
Mof_C 	C 	0.4743	0.9114	0.319	-0.003
Mof_C 	C 	0.4653	0.8983	0.2952	0.007
Mof_C 	C 	0.4637	0.9135	0.2739	-0.029
Mof_C 	C 	0.5002	0.971	0.1029	0.011
Mof_C 	C 	0.509	0.9962	0.0977	-0.007
Mof_C 	C 	0.5315	0.0006	0.081	0.003
Mof_C 	C 	0.5452	0.9798	0.0696	-0.004
Mof_C 	C 	0.5364	0.9546	0.0748	0.007
Mof_C 	C 	0.514	0.9502	0.0915	-0.03
Mof_C 	C 	0.5533	0.8803	0.2165	0.014
Mof_C 	C 	0.5755	0.8709	0.233	-0.007
Mof_C 	C 	0.6042	0.8645	0.224	0.002
Mof_C 	C 	0.6089	0.8648	0.1958	-0.002
Mof_C 	C 	0.5853	0.8755	0.1781	0.005
Mof_C 	C 	0.5585	0.8825	0.1904	-0.026
Mof_C 	C 	0.3388	0.0599	0.9971	0.009
Mof_C 	C 	0.3447	0.0555	0.9704	-0.02
Mof_C 	C 	0.3728	0.0629	0.9617	0.005
Mof_C 	C 	0.3932	0.0713	0.9774	-0.003
Mof_C 	C 	0.3876	0.0766	0.0037	0.003
Mof_C 	C 	0.3597	0.0696	0.0143	-0.009
Mof_Cd	Cd	0.35641	0.9102	0.104	0.253
Mof_Cd	Cd	0.29925	0.93212	0.158	0.269
Mof_Cd	Cd	0.41414	0.89207	0.15674	0.253
Mof_Cd	Cd	0.35245	0.91161	0.21	0.271
Mof_Cd	Cd	0.37675	0.96301	0.16043	0.271
Mof_Cd	Cd	0.27657	0.87532	0.10291	0.273
Mof_Cd	Cd	0.41788	0.88937	0.04957	0.271
Mof_Cd	Cd	0.43306	0.94062	0.21597	0.276
Mof_Cd	Cd	0.47996	0.87238	0.20255	0.278
Mof_Cd	Cd	0.29319	0.93222	0.05359	0.276
Mof_Cd	Cd	0.37619	0.9571	0.04471	0.276
Mof_Cd	Cd	0.43458	0.94271	0.09955	0.27
Mof_Cd	Cd	0.48966	0.93492	0.15576	0.276
Mof_Cd	Cd	0.32589	0.98504	0.10397	0.278
Mof_S 	S 	0.39599	0.92894	0.1303	-0.265
Mof_S 	S 	0.33784	0.94655	0.07662	-0.257
Mof_S 	S 	0.31571	0.89419	0.1307	-0.264
Mof_S 	S 	0.33547	0.9502	0.18716	-0.199
Mof_S 	S 	0.45446	0.91057	0.18315	-0.255
Mof_S 	S 	0.36439	0.00177	0.13251	-0.12
Mof_S 	S 	0.45761	0.90897	0.07358	-0.199
Mof_S 	S 	0.30987	0.89086	0.23279	-0.13
Mof_S 	S 	0.39297	0.92094	0.24166	-0.121
Mof_S 	S 	0.42157	0.97646	0.18524	-0.134
Mof_S 	S 	0.25228	0.91467	0.17669	-0.121
Mof_S 	S 	0.28232	0.96362	0.12386	-0.131
Mof_Cd	Cd	0.51865	0.93955	0.22596	0.284
Mof_Cd	Cd	0.31125	0.00789	0.03198	0.286
Mof_S 	S 	0.47236	0.95763	0.24463	-0.119
Mof_S 	S 	0.27641	0.97024	0.02631	-0.118
Mof_S 	S 	0.40998	0.97937	0.07542	-0.127
Mof_S 	S 	0.25359	0.91405	0.08051	-0.119
Mof_S 	S 	0.24224	0.85729	0.13632	-0.131
Mof_S 	S 	0.52042	0.88993	0.22849	-0.117
Mof_S 	S 	0.36126	0.99521	0.01825	-0.122
Mof_S 	S 	0.47211	0.96764	0.125	-0.121
Mof_S 	S 	0.30727	0.02229	0.07762	-0.113
Mof_S 	S 	0.3931	0.9195	0.01838	-0.119
Mof_S 	S 	0.5279	0.95679	0.18287	-0.12
Mof_S 	S 	0.3163	0.89989	0.02371	-0.126
Mof_S 	S 	0.30512	0.05085	0.00982	-0.109
Mof_C 	C 	0.4364	0.0016	0.0562	0.012
Mof_C 	C 	0.4549	0.0241	0.0209	0.002
Mof_C 	C 	0.4337	0.0089	0.0316	-0.01
Mof_C 	C 	0.4515	0.9833	0.0434	-0.019
Mof_C 	C 	0.5051	0.7704	0.041	0.01
Mof_C 	C 	0.5301	0.7667	0.0267	-0.009
Mof_C 	C 	0.5569	0.7613	0.0375	0.002
Mof_C 	C 	0.5585	0.7573	0.0631	-0.004
Mof_C 	C 	0.5349	0.7599	0.078	0.008
Mof_C 	C 	0.5088	0.7677	0.067	-0.028
Mof_C 	C 	0.2316	0.7596	0.1844	0.011
Mof_C 	C 	0.2327	0.7458	0.2068	-0.028
Mof_C 	C 	0.2387	0.7179	0.2069	0.005
Mof_C 	C 	0.2425	0.7045	0.1867	-0.004
Mof_C 	C 	0.2408	0.7194	0.1652	0.005
Mof_C 	C 	0.2346	0.7458	0.1641	-0.014
Mof_C 	C 	0.3383	0.7456	0.2008	0.017
Mof_C 	C 	0.3648	0.7353	0.2033	-0.022
Mof_C 	C 	0.3739	0.7104	0.2165	0.005
Mof_C 	C 	0.3519	0.6998	0.2289	-0.004
Mof_C 	C 	0.3227	0.7062	0.2254	0.003
Mof_C 	C 	0.3161	0.7272	0.2105	-0.012
Mof_C 	C 	0.5211	0.8471	0.0582	0.012
Mof_C 	C 	0.544	0.8298	0.0525	-0.008
Mof_C 	C 	0.5647	0.8387	0.0352	0.002
Mof_C 	C 	0.5636	0.865	0.0235	-0.003
Mof_C 	C 	0.54	0.8809	0.029	0.005
Mof_C 	C 	0.5187	0.8717	0.0474	-0.025
Mof_C 	C 	0.4933	0.7646	0.1374	0.018
Mof_C 	C 	0.4903	0.74	0.1315	-0.02
Mof_C 	C 	0.5133	0.722	0.1418	0.004
Mof_C 	C 	0.5352	0.7332	0.1585	-0.003
Mof_C 	C 	0.5403	0.7607	0.1589	0.003
Mof_C 	C 	0.5184	0.7764	0.144	-0.012
Mof_C 	C 	0.5097	0.8134	0.1987	0.016
Mof_C 	C 	0.4944	0.7947	0.2084	-0.029
Mof_C 	C 	0.5056	0.7759	0.2237	0.007
Mof_C 	C 	0.535	0.7779	0.2329	-0.005
Mof_C 	C 	0.5536	0.7965	0.2223	0.003
Mof_C 	C 	0.5397	0.8155	0.2041	-0.009
Mof_C 	C 	0.4554	0.8346	0.253	0.016
Mof_C 	C 	0.4416	0.8121	0.2584	-0.022
Mof_C 	C 	0.4534	0.7936	0.2736	0.007
Mof_C 	C 	0.4804	0.7987	0.2854	-0.006
Mof_C 	C 	0.4925	0.8219	0.2807	0.008
Mof_C 	C 	0.4831	0.836	0.263	-0.019
Mof_C 	C 	0.4059	0.726	0.1516	0.011
Mof_C 	C 	0.4275	0.7342	0.167	-0.028
Mof_C 	C 	0.4444	0.7164	0.1835	0.004
Mof_C 	C 	0.4363	0.688	0.1811	-0.003
Mof_C 	C 	0.4106	0.6814	0.1642	0.002
Mof_C 	C 	0.3973	0.7006	0.1475	-0.006
Mof_C 	C 	0.4153	0.7027	0.0818	0.01
Mof_C 	C 	0.428	0.6783	0.0883	-0.006
Mof_C 	C 	0.406	0.6609	0.0934	0.002
Mof_C 	C 	0.3781	0.6638	0.0861	-0.004
Mof_C 	C 	0.3672	0.6864	0.082	0.006
Mof_C 	C 	0.3874	0.7091	0.0787	-0.027
Mof_C 	C 	0.46336	0.86283	0.00344	0.011
Mof_C 	C 	0.4697	0.88916	0.0035	-0.021
Mof_C 	C 	0.4919	0.89867	0.98858	0.006
Mof_C 	C 	0.5077	0.8818	0.97359	-0.004
Mof_C 	C 	0.5013	0.8555	0.97353	0.004
Mof_C 	C 	0.47918	0.846	0.98845	-0.013
Mof_C 	C 	0.3915	0.76531	0.99	0.022
Mof_C 	C 	0.4087	0.78678	0.9851	-0.036
Mof_C 	C 	0.4128	0.79509	0.96063	0.009
Mof_C 	C 	0.3997	0.7819	0.941	-0.006
Mof_C 	C 	0.3825	0.7605	0.9458	0.004
Mof_C 	C 	0.3783	0.7522	0.9703	-0.011
Mof_C 	C 	0.325	0.81139	0.0039	0.001
Mof_C 	C 	0.3277	0.80115	0.9799	-0.005
Mof_C 	C 	0.304	0.78968	0.9684	0.002
Mof_C 	C 	0.2777	0.78844	0.9808	-0.003
Mof_C 	C 	0.275	0.79867	0.0047	0.006
Mof_C 	C 	0.2987	0.81015	0.0163	-0.024
Mof_C 	C 	0.5439	0.8982	0.1217	0.013
Mof_C 	C 	0.5414	0.8769	0.1059	-0.019
Mof_C 	C 	0.5642	0.8702	0.0903	0.005
Mof_C 	C 	0.5893	0.8849	0.0903	-0.004
Mof_C 	C 	0.5918	0.9062	0.1061	0.004
Mof_C 	C 	0.569	0.9129	0.1217	-0.014
Mof_C 	C 	0.3663	0.8017	0.2604	0.012
Mof_C 	C 	0.3756	0.7793	0.2483	-0.029
Mof_C 	C 	0.385	0.7572	0.2654	0.005
Mof_C 	C 	0.3829	0.7585	0.2908	-0.004
Mof_C 	C 	0.3739	0.781	0.3005	0.003
Mof_C 	C 	0.363	0.8026	0.2854	-0.008
Mof_C 	C 	0.2765	0.8106	0.2724	0.011
Mof_C 	C 	0.2643	0.799	0.2928	-0.017
Mof_C 	C 	0.2647	0.8123	0.3172	0.003
Mof_C 	C 	0.2757	0.8386	0.319	-0.003
Mof_C 	C 	0.2847	0.8517	0.2952	0.007
Mof_C 	C 	0.2863	0.8365	0.2739	-0.029
Mof_C 	C 	0.2498	0.779	0.1029	0.011
Mof_C 	C 	0.241	0.7538	0.0977	-0.007
Mof_C 	C 	0.2185	0.7494	0.081	0.003
Mof_C 	C 	0.2048	0.7702	0.0696	-0.004
Mof_C 	C 	0.2136	0.7954	0.0748	0.007
Mof_C 	C 	0.236	0.7998	0.0915	-0.03
Mof_C 	C 	0.1967	0.8697	0.2165	0.014
Mof_C 	C 	0.1745	0.8791	0.233	-0.007
Mof_C 	C 	0.1458	0.8855	0.224	0.002
Mof_C 	C 	0.1411	0.8852	0.1958	-0.002
Mof_C 	C 	0.1647	0.8745	0.1781	0.005
Mof_C 	C 	0.1915	0.8675	0.1904	-0.026
Mof_C 	C 	0.4112	0.6901	0.9971	0.009
Mof_C 	C 	0.4053	0.6945	0.9704	-0.02
Mof_C 	C 	0.3772	0.6871	0.9617	0.005
Mof_C 	C 	0.3568	0.6787	0.9774	-0.003
Mof_C 	C 	0.3624	0.6734	0.0037	0.003
Mof_C 	C 	0.3903	0.6804	0.0143	-0.009
Mof_Cd	Cd	0.39359	0.8398	0.104	0.253
Mof_Cd	Cd	0.45075	0.81788	0.158	0.269
Mof_Cd	Cd	0.33586	0.85793	0.15674	0.253
Mof_Cd	Cd	0.39755	0.83839	0.21	0.271
Mof_Cd	Cd	0.37325	0.78699	0.16043	0.271
Mof_Cd	Cd	0.47343	0.87468	0.10291	0.273
Mof_Cd	Cd	0.33212	0.86063	0.04957	0.271
Mof_Cd	Cd	0.31694	0.80938	0.21597	0.276
Mof_Cd	Cd	0.27004	0.87762	0.20255	0.278
Mof_Cd	Cd	0.45681	0.81778	0.05359	0.276
Mof_Cd	Cd	0.37381	0.7929	0.04471	0.276
Mof_Cd	Cd	0.31542	0.80729	0.09955	0.27
Mof_Cd	Cd	0.26034	0.81508	0.15576	0.276
Mof_Cd	Cd	0.42411	0.76496	0.10397	0.278
Mof_S 	S 	0.35401	0.82106	0.1303	-0.265
Mof_S 	S 	0.41216	0.80345	0.07662	-0.257
Mof_S 	S 	0.43429	0.85581	0.1307	-0.264
Mof_S 	S 	0.41453	0.7998	0.18716	-0.199
Mof_S 	S 	0.29554	0.83943	0.18315	-0.255
Mof_S 	S 	0.38561	0.74823	0.13251	-0.12
Mof_S 	S 	0.29239	0.84103	0.07358	-0.199
Mof_S 	S 	0.44013	0.85914	0.23279	-0.13
Mof_S 	S 	0.35703	0.82906	0.24166	-0.121
Mof_S 	S 	0.32843	0.77354	0.18524	-0.134
Mof_S 	S 	0.49772	0.83533	0.17669	-0.121
Mof_S 	S 	0.46768	0.78638	0.12386	-0.131
Mof_Cd	Cd	0.23135	0.81045	0.22596	0.284
Mof_Cd	Cd	0.43875	0.74211	0.03198	0.286
Mof_S 	S 	0.27764	0.79237	0.24463	-0.119
Mof_S 	S 	0.47359	0.77976	0.02631	-0.118
Mof_S 	S 	0.34002	0.77063	0.07542	-0.127
Mof_S 	S 	0.49641	0.83595	0.08051	-0.119
Mof_S 	S 	0.50776	0.89271	0.13632	-0.131
Mof_S 	S 	0.22958	0.86007	0.22849	-0.117
Mof_S 	S 	0.38874	0.75479	0.01825	-0.122
Mof_S 	S 	0.27789	0.78236	0.125	-0.121
Mof_S 	S 	0.44273	0.72771	0.07762	-0.113
Mof_S 	S 	0.3569	0.8305	0.01838	-0.119
Mof_S 	S 	0.2221	0.79321	0.18287	-0.12
Mof_S 	S 	0.4337	0.85011	0.02371	-0.126
Mof_S 	S 	0.44488	0.69915	0.00982	-0.109
Mof_C 	C 	0.3136	0.7484	0.0562	0.012
Mof_C 	C 	0.2951	0.7259	0.0209	0.002
Mof_C 	C 	0.3163	0.7411	0.0316	-0.01
Mof_C 	C 	0.2985	0.7667	0.0434	-0.019
Mof_C 	C 	0.5051	0.2704	0.541	0.01
Mof_C 	C 	0.5301	0.2667	0.5267	-0.009
Mof_C 	C 	0.5569	0.2613	0.5375	0.002
Mof_C 	C 	0.5585	0.2573	0.5631	-0.004
Mof_C 	C 	0.5349	0.2599	0.578	0.008
Mof_C 	C 	0.5088	0.2677	0.567	-0.028
Mof_C 	C 	0.2316	0.2596	0.6844	0.011
Mof_C 	C 	0.2327	0.2458	0.7068	-0.028
Mof_C 	C 	0.2387	0.2179	0.7069	0.005
Mof_C 	C 	0.2425	0.2045	0.6867	-0.004
Mof_C 	C 	0.2408	0.2194	0.6652	0.005
Mof_C 	C 	0.2346	0.2458	0.6641	-0.014
Mof_C 	C 	0.3383	0.2456	0.7008	0.017
Mof_C 	C 	0.3648	0.2353	0.7033	-0.022
Mof_C 	C 	0.3739	0.2104	0.7165	0.005
Mof_C 	C 	0.3519	0.1998	0.7289	-0.004
Mof_C 	C 	0.3227	0.2062	0.7254	0.003
Mof_C 	C 	0.3161	0.2272	0.7105	-0.012
Mof_C 	C 	0.5211	0.3471	0.5582	0.012
Mof_C 	C 	0.544	0.3298	0.5525	-0.008
Mof_C 	C 	0.5647	0.3387	0.5352	0.002
Mof_C 	C 	0.5636	0.365	0.5235	-0.003
Mof_C 	C 	0.54	0.3809	0.529	0.005
Mof_C 	C 	0.5187	0.3717	0.5474	-0.025
Mof_C 	C 	0.4933	0.2646	0.6374	0.018
Mof_C 	C 	0.4903	0.24	0.6315	-0.02
Mof_C 	C 	0.5133	0.222	0.6418	0.004
Mof_C 	C 	0.5352	0.2332	0.6585	-0.003
Mof_C 	C 	0.5403	0.2607	0.6589	0.003
Mof_C 	C 	0.5184	0.2764	0.644	-0.012
Mof_C 	C 	0.5097	0.3134	0.6987	0.016
Mof_C 	C 	0.4944	0.2947	0.7084	-0.029
Mof_C 	C 	0.5056	0.2759	0.7237	0.007
Mof_C 	C 	0.535	0.2779	0.7329	-0.005
Mof_C 	C 	0.5536	0.2965	0.7223	0.003
Mof_C 	C 	0.5397	0.3155	0.7041	-0.009
Mof_C 	C 	0.4554	0.3346	0.753	0.016
Mof_C 	C 	0.4416	0.3121	0.7584	-0.022
Mof_C 	C 	0.4534	0.2936	0.7736	0.007
Mof_C 	C 	0.4804	0.2987	0.7854	-0.006
Mof_C 	C 	0.4925	0.3219	0.7807	0.008
Mof_C 	C 	0.4831	0.336	0.763	-0.019
Mof_C 	C 	0.4059	0.226	0.6516	0.011
Mof_C 	C 	0.4275	0.2342	0.667	-0.028
Mof_C 	C 	0.4444	0.2164	0.6835	0.004
Mof_C 	C 	0.4363	0.188	0.6811	-0.003
Mof_C 	C 	0.4106	0.1814	0.6642	0.002
Mof_C 	C 	0.3973	0.2006	0.6475	-0.006
Mof_C 	C 	0.4153	0.2027	0.5818	0.01
Mof_C 	C 	0.428	0.1783	0.5883	-0.006
Mof_C 	C 	0.406	0.1609	0.5934	0.002
Mof_C 	C 	0.3781	0.1638	0.5861	-0.004
Mof_C 	C 	0.3672	0.1864	0.582	0.006
Mof_C 	C 	0.3874	0.2091	0.5787	-0.027
Mof_C 	C 	0.46336	0.36283	0.50344	0.011
Mof_C 	C 	0.4697	0.38916	0.5035	-0.021
Mof_C 	C 	0.4919	0.39867	0.48858	0.006
Mof_C 	C 	0.5077	0.3818	0.47359	-0.004
Mof_C 	C 	0.5013	0.3555	0.47353	0.004
Mof_C 	C 	0.47918	0.346	0.48845	-0.013
Mof_C 	C 	0.3915	0.26531	0.49	0.022
Mof_C 	C 	0.4087	0.28678	0.4851	-0.036
Mof_C 	C 	0.4128	0.29509	0.46063	0.009
Mof_C 	C 	0.3997	0.2819	0.441	-0.006
Mof_C 	C 	0.3825	0.2605	0.4458	0.004
Mof_C 	C 	0.3783	0.2522	0.4703	-0.011
Mof_C 	C 	0.325	0.31139	0.5039	0.001
Mof_C 	C 	0.3277	0.30115	0.4799	-0.005
Mof_C 	C 	0.304	0.28968	0.4684	0.002
Mof_C 	C 	0.2777	0.28844	0.4808	-0.003
Mof_C 	C 	0.275	0.29867	0.5047	0.006
Mof_C 	C 	0.2987	0.31015	0.5163	-0.024
Mof_C 	C 	0.5439	0.3982	0.6217	0.013
Mof_C 	C 	0.5414	0.3769	0.6059	-0.019
Mof_C 	C 	0.5642	0.3702	0.5903	0.005
Mof_C 	C 	0.5893	0.3849	0.5903	-0.004
Mof_C 	C 	0.5918	0.4062	0.6061	0.004
Mof_C 	C 	0.569	0.4129	0.6217	-0.014
Mof_C 	C 	0.3663	0.3017	0.7604	0.012
Mof_C 	C 	0.3756	0.2793	0.7483	-0.029
Mof_C 	C 	0.385	0.2572	0.7654	0.005
Mof_C 	C 	0.3829	0.2585	0.7908	-0.004
Mof_C 	C 	0.3739	0.281	0.8005	0.003
Mof_C 	C 	0.363	0.3026	0.7854	-0.008
Mof_C 	C 	0.2765	0.3106	0.7724	0.011
Mof_C 	C 	0.2643	0.299	0.7928	-0.017
Mof_C 	C 	0.2647	0.3123	0.8172	0.003
Mof_C 	C 	0.2757	0.3386	0.819	-0.003
Mof_C 	C 	0.2847	0.3517	0.7952	0.007
Mof_C 	C 	0.2863	0.3365	0.7739	-0.029
Mof_C 	C 	0.2498	0.279	0.6029	0.011
Mof_C 	C 	0.241	0.2538	0.5977	-0.007
Mof_C 	C 	0.2185	0.2494	0.581	0.003
Mof_C 	C 	0.2048	0.2702	0.5696	-0.004
Mof_C 	C 	0.2136	0.2954	0.5748	0.007
Mof_C 	C 	0.236	0.2998	0.5915	-0.03
Mof_C 	C 	0.1967	0.3697	0.7165	0.014
Mof_C 	C 	0.1745	0.3791	0.733	-0.007
Mof_C 	C 	0.1458	0.3855	0.724	0.002
Mof_C 	C 	0.1411	0.3852	0.6958	-0.002
Mof_C 	C 	0.1647	0.3745	0.6781	0.005
Mof_C 	C 	0.1915	0.3675	0.6904	-0.026
Mof_C 	C 	0.4112	0.1901	0.4971	0.009
Mof_C 	C 	0.4053	0.1945	0.4704	-0.02
Mof_C 	C 	0.3772	0.1871	0.4617	0.005
Mof_C 	C 	0.3568	0.1787	0.4774	-0.003
Mof_C 	C 	0.3624	0.1734	0.5037	0.003
Mof_C 	C 	0.3903	0.1804	0.5143	-0.009
Mof_Cd	Cd	0.39359	0.3398	0.604	0.253
Mof_Cd	Cd	0.45075	0.31788	0.658	0.269
Mof_Cd	Cd	0.33586	0.35793	0.65674	0.253
Mof_Cd	Cd	0.39755	0.33839	0.71	0.271
Mof_Cd	Cd	0.37325	0.28699	0.66043	0.271
Mof_Cd	Cd	0.47343	0.37468	0.60291	0.273
Mof_Cd	Cd	0.33212	0.36063	0.54957	0.271
Mof_Cd	Cd	0.31694	0.30938	0.71597	0.276
Mof_Cd	Cd	0.27004	0.37762	0.70255	0.278
Mof_Cd	Cd	0.45681	0.31778	0.55359	0.276
Mof_Cd	Cd	0.37381	0.2929	0.54471	0.276
Mof_Cd	Cd	0.31542	0.30729	0.59955	0.27
Mof_Cd	Cd	0.26034	0.31508	0.65576	0.276
Mof_Cd	Cd	0.42411	0.26496	0.60397	0.278
Mof_S 	S 	0.35401	0.32106	0.6303	-0.265
Mof_S 	S 	0.41216	0.30345	0.57662	-0.257
Mof_S 	S 	0.43429	0.35581	0.6307	-0.264
Mof_S 	S 	0.41453	0.2998	0.68716	-0.199
Mof_S 	S 	0.29554	0.33943	0.68315	-0.255
Mof_S 	S 	0.38561	0.24823	0.63251	-0.12
Mof_S 	S 	0.29239	0.34103	0.57358	-0.199
Mof_S 	S 	0.44013	0.35914	0.73279	-0.13
Mof_S 	S 	0.35703	0.32906	0.74166	-0.121
Mof_S 	S 	0.32843	0.27354	0.68524	-0.134
Mof_S 	S 	0.49772	0.33533	0.67669	-0.121
Mof_S 	S 	0.46768	0.28638	0.62386	-0.131
Mof_Cd	Cd	0.23135	0.31045	0.72596	0.284
Mof_Cd	Cd	0.43875	0.24211	0.53198	0.286
Mof_S 	S 	0.27764	0.29237	0.74463	-0.119
Mof_S 	S 	0.47359	0.27976	0.52631	-0.118
Mof_S 	S 	0.34002	0.27063	0.57542	-0.127
Mof_S 	S 	0.49641	0.33595	0.58051	-0.119
Mof_S 	S 	0.50776	0.39271	0.63632	-0.131
Mof_S 	S 	0.22958	0.36007	0.72849	-0.117
Mof_S 	S 	0.38874	0.25479	0.51825	-0.122
Mof_S 	S 	0.27789	0.28236	0.625	-0.121
Mof_S 	S 	0.44273	0.22771	0.57762	-0.113
Mof_S 	S 	0.3569	0.3305	0.51838	-0.119
Mof_S 	S 	0.2221	0.29321	0.68287	-0.12
Mof_S 	S 	0.4337	0.35011	0.52371	-0.126
Mof_S 	S 	0.44488	0.19915	0.50982	-0.109
Mof_C 	C 	0.3136	0.2484	0.5562	0.012
Mof_C 	C 	0.2951	0.2259	0.5209	0.002
Mof_C 	C 	0.3163	0.2411	0.5316	-0.01
Mof_C 	C 	0.2985	0.2667	0.5434	-0.019
Mof_C 	C 	0.0051	0.7704	0.541	0.01
Mof_C 	C 	0.0301	0.7667	0.5267	-0.009
Mof_C 	C 	0.0569	0.7613	0.5375	0.002
Mof_C 	C 	0.0585	0.7573	0.5631	-0.004
Mof_C 	C 	0.0349	0.7599	0.578	0.008
Mof_C 	C 	0.0088	0.7677	0.567	-0.028
Mof_C 	C 	0.7316	0.7596	0.6844	0.011
Mof_C 	C 	0.7327	0.7458	0.7068	-0.028
Mof_C 	C 	0.7387	0.7179	0.7069	0.005
Mof_C 	C 	0.7425	0.7045	0.6867	-0.004
Mof_C 	C 	0.7408	0.7194	0.6652	0.005
Mof_C 	C 	0.7346	0.7458	0.6641	-0.014
Mof_C 	C 	0.8383	0.7456	0.7008	0.017
Mof_C 	C 	0.8648	0.7353	0.7033	-0.022
Mof_C 	C 	0.8739	0.7104	0.7165	0.005
Mof_C 	C 	0.8519	0.6998	0.7289	-0.004
Mof_C 	C 	0.8227	0.7062	0.7254	0.003
Mof_C 	C 	0.8161	0.7272	0.7105	-0.012
Mof_C 	C 	0.0211	0.8471	0.5582	0.012
Mof_C 	C 	0.044	0.8298	0.5525	-0.008
Mof_C 	C 	0.0647	0.8387	0.5352	0.002
Mof_C 	C 	0.0636	0.865	0.5235	-0.003
Mof_C 	C 	0.04	0.8809	0.529	0.005
Mof_C 	C 	0.0187	0.8717	0.5474	-0.025
Mof_C 	C 	0.9933	0.7646	0.6374	0.018
Mof_C 	C 	0.9903	0.74	0.6315	-0.02
Mof_C 	C 	0.0133	0.722	0.6418	0.004
Mof_C 	C 	0.0352	0.7332	0.6585	-0.003
Mof_C 	C 	0.0403	0.7607	0.6589	0.003
Mof_C 	C 	0.0184	0.7764	0.644	-0.012
Mof_C 	C 	0.0097	0.8134	0.6987	0.016
Mof_C 	C 	0.9944	0.7947	0.7084	-0.029
Mof_C 	C 	0.0056	0.7759	0.7237	0.007
Mof_C 	C 	0.035	0.7779	0.7329	-0.005
Mof_C 	C 	0.0536	0.7965	0.7223	0.003
Mof_C 	C 	0.0397	0.8155	0.7041	-0.009
Mof_C 	C 	0.9554	0.8346	0.753	0.016
Mof_C 	C 	0.9416	0.8121	0.7584	-0.022
Mof_C 	C 	0.9534	0.7936	0.7736	0.007
Mof_C 	C 	0.9804	0.7987	0.7854	-0.006
Mof_C 	C 	0.9925	0.8219	0.7807	0.008
Mof_C 	C 	0.9831	0.836	0.763	-0.019
Mof_C 	C 	0.9059	0.726	0.6516	0.011
Mof_C 	C 	0.9275	0.7342	0.667	-0.028
Mof_C 	C 	0.9444	0.7164	0.6835	0.004
Mof_C 	C 	0.9363	0.688	0.6811	-0.003
Mof_C 	C 	0.9106	0.6814	0.6642	0.002
Mof_C 	C 	0.8973	0.7006	0.6475	-0.006
Mof_C 	C 	0.9153	0.7027	0.5818	0.01
Mof_C 	C 	0.928	0.6783	0.5883	-0.006
Mof_C 	C 	0.906	0.6609	0.5934	0.002
Mof_C 	C 	0.8781	0.6638	0.5861	-0.004
Mof_C 	C 	0.8672	0.6864	0.582	0.006
Mof_C 	C 	0.8874	0.7091	0.5787	-0.027
Mof_C 	C 	0.96336	0.86283	0.50344	0.011
Mof_C 	C 	0.9697	0.88916	0.5035	-0.021
Mof_C 	C 	0.9919	0.89867	0.48858	0.006
Mof_C 	C 	0.0077	0.8818	0.47359	-0.004
Mof_C 	C 	0.0013	0.8555	0.47353	0.004
Mof_C 	C 	0.97918	0.846	0.48845	-0.013
Mof_C 	C 	0.8915	0.76531	0.49	0.022
Mof_C 	C 	0.9087	0.78678	0.4851	-0.036
Mof_C 	C 	0.9128	0.79509	0.46063	0.009
Mof_C 	C 	0.8997	0.7819	0.441	-0.006
Mof_C 	C 	0.8825	0.7605	0.4458	0.004
Mof_C 	C 	0.8783	0.7522	0.4703	-0.011
Mof_C 	C 	0.825	0.81139	0.5039	0.001
Mof_C 	C 	0.8277	0.80115	0.4799	-0.005
Mof_C 	C 	0.804	0.78968	0.4684	0.002
Mof_C 	C 	0.7777	0.78844	0.4808	-0.003
Mof_C 	C 	0.775	0.79867	0.5047	0.006
Mof_C 	C 	0.7987	0.81015	0.5163	-0.024
Mof_C 	C 	0.0439	0.8982	0.6217	0.013
Mof_C 	C 	0.0414	0.8769	0.6059	-0.019
Mof_C 	C 	0.0642	0.8702	0.5903	0.005
Mof_C 	C 	0.0893	0.8849	0.5903	-0.004
Mof_C 	C 	0.0918	0.9062	0.6061	0.004
Mof_C 	C 	0.069	0.9129	0.6217	-0.014
Mof_C 	C 	0.8663	0.8017	0.7604	0.012
Mof_C 	C 	0.8756	0.7793	0.7483	-0.029
Mof_C 	C 	0.885	0.7572	0.7654	0.005
Mof_C 	C 	0.8829	0.7585	0.7908	-0.004
Mof_C 	C 	0.8739	0.781	0.8005	0.003
Mof_C 	C 	0.863	0.8026	0.7854	-0.008
Mof_C 	C 	0.7765	0.8106	0.7724	0.011
Mof_C 	C 	0.7643	0.799	0.7928	-0.017
Mof_C 	C 	0.7647	0.8123	0.8172	0.003
Mof_C 	C 	0.7757	0.8386	0.819	-0.003
Mof_C 	C 	0.7847	0.8517	0.7952	0.007
Mof_C 	C 	0.7863	0.8365	0.7739	-0.029
Mof_C 	C 	0.7498	0.779	0.6029	0.011
Mof_C 	C 	0.741	0.7538	0.5977	-0.007
Mof_C 	C 	0.7185	0.7494	0.581	0.003
Mof_C 	C 	0.7048	0.7702	0.5696	-0.004
Mof_C 	C 	0.7136	0.7954	0.5748	0.007
Mof_C 	C 	0.736	0.7998	0.5915	-0.03
Mof_C 	C 	0.6967	0.8697	0.7165	0.014
Mof_C 	C 	0.6745	0.8791	0.733	-0.007
Mof_C 	C 	0.6458	0.8855	0.724	0.002
Mof_C 	C 	0.6411	0.8852	0.6958	-0.002
Mof_C 	C 	0.6647	0.8745	0.6781	0.005
Mof_C 	C 	0.6915	0.8675	0.6904	-0.026
Mof_C 	C 	0.9112	0.6901	0.4971	0.009
Mof_C 	C 	0.9053	0.6945	0.4704	-0.02
Mof_C 	C 	0.8772	0.6871	0.4617	0.005
Mof_C 	C 	0.8568	0.6787	0.4774	-0.003
Mof_C 	C 	0.8624	0.6734	0.5037	0.003
Mof_C 	C 	0.8903	0.6804	0.5143	-0.009
Mof_Cd	Cd	0.89359	0.8398	0.604	0.253
Mof_Cd	Cd	0.95075	0.81788	0.658	0.269
Mof_Cd	Cd	0.83586	0.85793	0.65674	0.253
Mof_Cd	Cd	0.89755	0.83839	0.71	0.271
Mof_Cd	Cd	0.87325	0.78699	0.66043	0.271
Mof_Cd	Cd	0.97343	0.87468	0.60291	0.273
Mof_Cd	Cd	0.83212	0.86063	0.54957	0.271
Mof_Cd	Cd	0.81694	0.80938	0.71597	0.276
Mof_Cd	Cd	0.77004	0.87762	0.70255	0.278
Mof_Cd	Cd	0.95681	0.81778	0.55359	0.276
Mof_Cd	Cd	0.87381	0.7929	0.54471	0.276
Mof_Cd	Cd	0.81542	0.80729	0.59955	0.27
Mof_Cd	Cd	0.76034	0.81508	0.65576	0.276
Mof_Cd	Cd	0.92411	0.76496	0.60397	0.278
Mof_S 	S 	0.85401	0.82106	0.6303	-0.265
Mof_S 	S 	0.91216	0.80345	0.57662	-0.257
Mof_S 	S 	0.93429	0.85581	0.6307	-0.264
Mof_S 	S 	0.91453	0.7998	0.68716	-0.199
Mof_S 	S 	0.79554	0.83943	0.68315	-0.255
Mof_S 	S 	0.88561	0.74823	0.63251	-0.12
Mof_S 	S 	0.79239	0.84103	0.57358	-0.199
Mof_S 	S 	0.94013	0.85914	0.73279	-0.13
Mof_S 	S 	0.85703	0.82906	0.74166	-0.121
Mof_S 	S 	0.82843	0.77354	0.68524	-0.134
Mof_S 	S 	0.99772	0.83533	0.67669	-0.121
Mof_S 	S 	0.96768	0.78638	0.62386	-0.131
Mof_Cd	Cd	0.73135	0.81045	0.72596	0.284
Mof_Cd	Cd	0.93875	0.74211	0.53198	0.286
Mof_S 	S 	0.77764	0.79237	0.74463	-0.119
Mof_S 	S 	0.97359	0.77976	0.52631	-0.118
Mof_S 	S 	0.84002	0.77063	0.57542	-0.127
Mof_S 	S 	0.99641	0.83595	0.58051	-0.119
Mof_S 	S 	0.00776	0.89271	0.63632	-0.131
Mof_S 	S 	0.72958	0.86007	0.72849	-0.117
Mof_S 	S 	0.88874	0.75479	0.51825	-0.122
Mof_S 	S 	0.77789	0.78236	0.625	-0.121
Mof_S 	S 	0.94273	0.72771	0.57762	-0.113
Mof_S 	S 	0.8569	0.8305	0.51838	-0.119
Mof_S 	S 	0.7221	0.79321	0.68287	-0.12
Mof_S 	S 	0.9337	0.85011	0.52371	-0.126
Mof_S 	S 	0.94488	0.69915	0.50982	-0.109
Mof_C 	C 	0.8136	0.7484	0.5562	0.012
Mof_C 	C 	0.7951	0.7259	0.5209	0.002
Mof_C 	C 	0.8163	0.7411	0.5316	-0.01
Mof_C 	C 	0.7985	0.7667	0.5434	-0.019
Mof_C 	C 	0.0051	0.2704	0.041	0.01
Mof_C 	C 	0.0301	0.2667	0.0267	-0.009
Mof_C 	C 	0.0569	0.2613	0.0375	0.002
Mof_C 	C 	0.0585	0.2573	0.0631	-0.004
Mof_C 	C 	0.0349	0.2599	0.078	0.008
Mof_C 	C 	0.0088	0.2677	0.067	-0.028
Mof_C 	C 	0.7316	0.2596	0.1844	0.011
Mof_C 	C 	0.7327	0.2458	0.2068	-0.028
Mof_C 	C 	0.7387	0.2179	0.2069	0.005
Mof_C 	C 	0.7425	0.2045	0.1867	-0.004
Mof_C 	C 	0.7408	0.2194	0.1652	0.005
Mof_C 	C 	0.7346	0.2458	0.1641	-0.014
Mof_C 	C 	0.8383	0.2456	0.2008	0.017
Mof_C 	C 	0.8648	0.2353	0.2033	-0.022
Mof_C 	C 	0.8739	0.2104	0.2165	0.005
Mof_C 	C 	0.8519	0.1998	0.2289	-0.004
Mof_C 	C 	0.8227	0.2062	0.2254	0.003
Mof_C 	C 	0.8161	0.2272	0.2105	-0.012
Mof_C 	C 	0.0211	0.3471	0.0582	0.012
Mof_C 	C 	0.044	0.3298	0.0525	-0.008
Mof_C 	C 	0.0647	0.3387	0.0352	0.002
Mof_C 	C 	0.0636	0.365	0.0235	-0.003
Mof_C 	C 	0.04	0.3809	0.029	0.005
Mof_C 	C 	0.0187	0.3717	0.0474	-0.025
Mof_C 	C 	0.9933	0.2646	0.1374	0.018
Mof_C 	C 	0.9903	0.24	0.1315	-0.02
Mof_C 	C 	0.0133	0.222	0.1418	0.004
Mof_C 	C 	0.0352	0.2332	0.1585	-0.003
Mof_C 	C 	0.0403	0.2607	0.1589	0.003
Mof_C 	C 	0.0184	0.2764	0.144	-0.012
Mof_C 	C 	0.0097	0.3134	0.1987	0.016
Mof_C 	C 	0.9944	0.2947	0.2084	-0.029
Mof_C 	C 	0.0056	0.2759	0.2237	0.007
Mof_C 	C 	0.035	0.2779	0.2329	-0.005
Mof_C 	C 	0.0536	0.2965	0.2223	0.003
Mof_C 	C 	0.0397	0.3155	0.2041	-0.009
Mof_C 	C 	0.9554	0.3346	0.253	0.016
Mof_C 	C 	0.9416	0.3121	0.2584	-0.022
Mof_C 	C 	0.9534	0.2936	0.2736	0.007
Mof_C 	C 	0.9804	0.2987	0.2854	-0.006
Mof_C 	C 	0.9925	0.3219	0.2807	0.008
Mof_C 	C 	0.9831	0.336	0.263	-0.019
Mof_C 	C 	0.9059	0.226	0.1516	0.011
Mof_C 	C 	0.9275	0.2342	0.167	-0.028
Mof_C 	C 	0.9444	0.2164	0.1835	0.004
Mof_C 	C 	0.9363	0.188	0.1811	-0.003
Mof_C 	C 	0.9106	0.1814	0.1642	0.002
Mof_C 	C 	0.8973	0.2006	0.1475	-0.006
Mof_C 	C 	0.9153	0.2027	0.0818	0.01
Mof_C 	C 	0.928	0.1783	0.0883	-0.006
Mof_C 	C 	0.906	0.1609	0.0934	0.002
Mof_C 	C 	0.8781	0.1638	0.0861	-0.004
Mof_C 	C 	0.8672	0.1864	0.082	0.006
Mof_C 	C 	0.8874	0.2091	0.0787	-0.027
Mof_C 	C 	0.96336	0.36283	0.00344	0.011
Mof_C 	C 	0.9697	0.38916	0.0035	-0.021
Mof_C 	C 	0.9919	0.39867	0.98858	0.006
Mof_C 	C 	0.0077	0.3818	0.97359	-0.004
Mof_C 	C 	0.0013	0.3555	0.97353	0.004
Mof_C 	C 	0.97918	0.346	0.98845	-0.013
Mof_C 	C 	0.8915	0.26531	0.99	0.022
Mof_C 	C 	0.9087	0.28678	0.9851	-0.036
Mof_C 	C 	0.9128	0.29509	0.96063	0.009
Mof_C 	C 	0.8997	0.2819	0.941	-0.006
Mof_C 	C 	0.8825	0.2605	0.9458	0.004
Mof_C 	C 	0.8783	0.2522	0.9703	-0.011
Mof_C 	C 	0.825	0.31139	0.0039	0.001
Mof_C 	C 	0.8277	0.30115	0.9799	-0.005
Mof_C 	C 	0.804	0.28968	0.9684	0.002
Mof_C 	C 	0.7777	0.28844	0.9808	-0.003
Mof_C 	C 	0.775	0.29867	0.0047	0.006
Mof_C 	C 	0.7987	0.31015	0.0163	-0.024
Mof_C 	C 	0.0439	0.3982	0.1217	0.013
Mof_C 	C 	0.0414	0.3769	0.1059	-0.019
Mof_C 	C 	0.0642	0.3702	0.0903	0.005
Mof_C 	C 	0.0893	0.3849	0.0903	-0.004
Mof_C 	C 	0.0918	0.4062	0.1061	0.004
Mof_C 	C 	0.069	0.4129	0.1217	-0.014
Mof_C 	C 	0.8663	0.3017	0.2604	0.012
Mof_C 	C 	0.8756	0.2793	0.2483	-0.029
Mof_C 	C 	0.885	0.2572	0.2654	0.005
Mof_C 	C 	0.8829	0.2585	0.2908	-0.004
Mof_C 	C 	0.8739	0.281	0.3005	0.003
Mof_C 	C 	0.863	0.3026	0.2854	-0.008
Mof_C 	C 	0.7765	0.3106	0.2724	0.011
Mof_C 	C 	0.7643	0.299	0.2928	-0.017
Mof_C 	C 	0.7647	0.3123	0.3172	0.003
Mof_C 	C 	0.7757	0.3386	0.319	-0.003
Mof_C 	C 	0.7847	0.3517	0.2952	0.007
Mof_C 	C 	0.7863	0.3365	0.2739	-0.029
Mof_C 	C 	0.7498	0.279	0.1029	0.011
Mof_C 	C 	0.741	0.2538	0.0977	-0.007
Mof_C 	C 	0.7185	0.2494	0.081	0.003
Mof_C 	C 	0.7048	0.2702	0.0696	-0.004
Mof_C 	C 	0.7136	0.2954	0.0748	0.007
Mof_C 	C 	0.736	0.2998	0.0915	-0.03
Mof_C 	C 	0.6967	0.3697	0.2165	0.014
Mof_C 	C 	0.6745	0.3791	0.233	-0.007
Mof_C 	C 	0.6458	0.3855	0.224	0.002
Mof_C 	C 	0.6411	0.3852	0.1958	-0.002
Mof_C 	C 	0.6647	0.3745	0.1781	0.005
Mof_C 	C 	0.6915	0.3675	0.1904	-0.026
Mof_C 	C 	0.9112	0.1901	0.9971	0.009
Mof_C 	C 	0.9053	0.1945	0.9704	-0.02
Mof_C 	C 	0.8772	0.1871	0.9617	0.005
Mof_C 	C 	0.8568	0.1787	0.9774	-0.003
Mof_C 	C 	0.8624	0.1734	0.0037	0.003
Mof_C 	C 	0.8903	0.1804	0.0143	-0.009
Mof_Cd	Cd	0.89359	0.3398	0.104	0.253
Mof_Cd	Cd	0.95075	0.31788	0.158	0.269
Mof_Cd	Cd	0.83586	0.35793	0.15674	0.253
Mof_Cd	Cd	0.89755	0.33839	0.21	0.271
Mof_Cd	Cd	0.87325	0.28699	0.16043	0.271
Mof_Cd	Cd	0.97343	0.37468	0.10291	0.273
Mof_Cd	Cd	0.83212	0.36063	0.04957	0.271
Mof_Cd	Cd	0.81694	0.30938	0.21597	0.276
Mof_Cd	Cd	0.77004	0.37762	0.20255	0.278
Mof_Cd	Cd	0.95681	0.31778	0.05359	0.276
Mof_Cd	Cd	0.87381	0.2929	0.04471	0.276
Mof_Cd	Cd	0.81542	0.30729	0.09955	0.27
Mof_Cd	Cd	0.76034	0.31508	0.15576	0.276
Mof_Cd	Cd	0.92411	0.26496	0.10397	0.278
Mof_S 	S 	0.85401	0.32106	0.1303	-0.265
Mof_S 	S 	0.91216	0.30345	0.07662	-0.257
Mof_S 	S 	0.93429	0.35581	0.1307	-0.264
Mof_S 	S 	0.91453	0.2998	0.18716	-0.199
Mof_S 	S 	0.79554	0.33943	0.18315	-0.255
Mof_S 	S 	0.88561	0.24823	0.13251	-0.12
Mof_S 	S 	0.79239	0.34103	0.07358	-0.199
Mof_S 	S 	0.94013	0.35914	0.23279	-0.13
Mof_S 	S 	0.85703	0.32906	0.24166	-0.121
Mof_S 	S 	0.82843	0.27354	0.18524	-0.134
Mof_S 	S 	0.99772	0.33533	0.17669	-0.121
Mof_S 	S 	0.96768	0.28638	0.12386	-0.131
Mof_Cd	Cd	0.73135	0.31045	0.22596	0.284
Mof_Cd	Cd	0.93875	0.24211	0.03198	0.286
Mof_S 	S 	0.77764	0.29237	0.24463	-0.119
Mof_S 	S 	0.97359	0.27976	0.02631	-0.118
Mof_S 	S 	0.84002	0.27063	0.07542	-0.127
Mof_S 	S 	0.99641	0.33595	0.08051	-0.119
Mof_S 	S 	0.00776	0.39271	0.13632	-0.131
Mof_S 	S 	0.72958	0.36007	0.22849	-0.117
Mof_S 	S 	0.88874	0.25479	0.01825	-0.122
Mof_S 	S 	0.77789	0.28236	0.125	-0.121
Mof_S 	S 	0.94273	0.22771	0.07762	-0.113
Mof_S 	S 	0.8569	0.3305	0.01838	-0.119
Mof_S 	S 	0.7221	0.29321	0.18287	-0.12
Mof_S 	S 	0.9337	0.35011	0.02371	-0.126
Mof_S 	S 	0.94488	0.19915	0.00982	-0.109
Mof_C 	C 	0.8136	0.2484	0.0562	0.012
Mof_C 	C 	0.7951	0.2259	0.0209	0.002
Mof_C 	C 	0.8163	0.2411	0.0316	-0.01
Mof_C 	C 	0.7985	0.2667	0.0434	-0.019
Mof_S 	S 	0.625	0.625	0.93506	-0.264
Mof_S 	S 	0.625	0.625	0.82562	-0.267
Mof_S 	S 	0.625	0.125	0.43506	-0.264
Mof_S 	S 	0.625	0.125	0.32562	-0.267
Mof_S 	S 	0.125	0.125	0.93506	-0.264
Mof_S 	S 	0.125	0.125	0.82562	-0.267
Mof_S 	S 	0.125	0.625	0.43506	-0.264
Mof_S 	S 	0.125	0.625	0.32562	-0.267
Mof_S 	S 	0.875	0.375	0.18506	-0.264
Mof_S 	S 	0.875	0.375	0.07562	-0.267
Mof_S 	S 	0.875	0.875	0.68506	-0.264
Mof_S 	S 	0.875	0.875	0.57562	-0.267
Mof_S 	S 	0.375	0.875	0.18506	-0.264
Mof_S 	S 	0.375	0.875	0.07562	-0.267
Mof_S 	S 	0.375	0.375	0.68506	-0.264
Mof_S 	S 	0.375	0.375	0.57562	-0.267
Mof_C 	C 	0.2551	0.5204	0.959	0.01
Mof_C 	C 	0.2801	0.5167	0.9733	-0.009
Mof_C 	C 	0.3069	0.5113	0.9625	0.002
Mof_C 	C 	0.3085	0.5073	0.9369	-0.004
Mof_C 	C 	0.2849	0.5099	0.922	0.008
Mof_C 	C 	0.2588	0.5177	0.933	-0.028
Mof_C 	C 	0.9816	0.5096	0.8156	0.011
Mof_C 	C 	0.9827	0.4958	0.7932	-0.028
Mof_C 	C 	0.9887	0.4679	0.7931	0.005
Mof_C 	C 	0.9925	0.4545	0.8133	-0.004
Mof_C 	C 	0.9908	0.4694	0.8348	0.005
Mof_C 	C 	0.9846	0.4958	0.8359	-0.014
Mof_C 	C 	0.0883	0.4956	0.7992	0.017
Mof_C 	C 	0.1148	0.4853	0.7967	-0.022
Mof_C 	C 	0.1239	0.4604	0.7835	0.005
Mof_C 	C 	0.1019	0.4498	0.7711	-0.004
Mof_C 	C 	0.0727	0.4562	0.7746	0.003
Mof_C 	C 	0.0661	0.4772	0.7895	-0.012
Mof_C 	C 	0.2711	0.5971	0.9418	0.012
Mof_C 	C 	0.294	0.5798	0.9475	-0.008
Mof_C 	C 	0.3147	0.5887	0.9648	0.002
Mof_C 	C 	0.3136	0.615	0.9765	-0.003
Mof_C 	C 	0.29	0.6309	0.971	0.005
Mof_C 	C 	0.2687	0.6217	0.9526	-0.025
Mof_C 	C 	0.2433	0.5146	0.8626	0.018
Mof_C 	C 	0.2403	0.49	0.8685	-0.02
Mof_C 	C 	0.2633	0.472	0.8582	0.004
Mof_C 	C 	0.2852	0.4832	0.8415	-0.003
Mof_C 	C 	0.2903	0.5107	0.8411	0.003
Mof_C 	C 	0.2684	0.5264	0.856	-0.012
Mof_C 	C 	0.2597	0.5634	0.8013	0.016
Mof_C 	C 	0.2444	0.5447	0.7916	-0.029
Mof_C 	C 	0.2556	0.5259	0.7763	0.007
Mof_C 	C 	0.285	0.5279	0.7671	-0.005
Mof_C 	C 	0.3036	0.5465	0.7777	0.003
Mof_C 	C 	0.2897	0.5655	0.7959	-0.009
Mof_C 	C 	0.2054	0.5846	0.747	0.016
Mof_C 	C 	0.1916	0.5621	0.7416	-0.022
Mof_C 	C 	0.2034	0.5436	0.7264	0.007
Mof_C 	C 	0.2304	0.5487	0.7146	-0.006
Mof_C 	C 	0.2425	0.5719	0.7193	0.008
Mof_C 	C 	0.2331	0.586	0.737	-0.019
Mof_C 	C 	0.1559	0.476	0.8484	0.011
Mof_C 	C 	0.1775	0.4842	0.833	-0.028
Mof_C 	C 	0.1944	0.4664	0.8165	0.004
Mof_C 	C 	0.1863	0.438	0.8189	-0.003
Mof_C 	C 	0.1606	0.4314	0.8358	0.002
Mof_C 	C 	0.1473	0.4506	0.8525	-0.006
Mof_C 	C 	0.1653	0.4527	0.9182	0.01
Mof_C 	C 	0.178	0.4283	0.9117	-0.006
Mof_C 	C 	0.156	0.4109	0.9066	0.002
Mof_C 	C 	0.1281	0.4138	0.9139	-0.004
Mof_C 	C 	0.1172	0.4364	0.918	0.006
Mof_C 	C 	0.1374	0.4591	0.9213	-0.027
Mof_C 	C 	0.21336	0.61283	0.99656	0.011
Mof_C 	C 	0.2197	0.63916	0.9965	-0.021
Mof_C 	C 	0.2419	0.64867	0.01142	0.006
Mof_C 	C 	0.2577	0.6318	0.02641	-0.004
Mof_C 	C 	0.2513	0.6055	0.02647	0.004
Mof_C 	C 	0.22918	0.596	0.01155	-0.013
Mof_C 	C 	0.1415	0.51531	0.01	0.022
Mof_C 	C 	0.1587	0.53678	0.0149	-0.036
Mof_C 	C 	0.1628	0.54509	0.03937	0.009
Mof_C 	C 	0.1497	0.5319	0.059	-0.006
Mof_C 	C 	0.1325	0.5105	0.0542	0.004
Mof_C 	C 	0.1283	0.5022	0.0297	-0.011
Mof_C 	C 	0.075	0.56139	0.9961	0.001
Mof_C 	C 	0.0777	0.55115	0.0201	-0.005
Mof_C 	C 	0.054	0.53968	0.0316	0.002
Mof_C 	C 	0.0277	0.53844	0.0192	-0.003
Mof_C 	C 	0.025	0.54867	0.9953	0.006
Mof_C 	C 	0.0487	0.56015	0.9837	-0.024
Mof_C 	C 	0.2939	0.6482	0.8783	0.013
Mof_C 	C 	0.2914	0.6269	0.8941	-0.019
Mof_C 	C 	0.3142	0.6202	0.9097	0.005
Mof_C 	C 	0.3393	0.6349	0.9097	-0.004
Mof_C 	C 	0.3418	0.6562	0.8939	0.004
Mof_C 	C 	0.319	0.6629	0.8783	-0.014
Mof_C 	C 	0.1163	0.5517	0.7396	0.012
Mof_C 	C 	0.1256	0.5293	0.7517	-0.029
Mof_C 	C 	0.135	0.5072	0.7346	0.005
Mof_C 	C 	0.1329	0.5085	0.7092	-0.004
Mof_C 	C 	0.1239	0.531	0.6995	0.003
Mof_C 	C 	0.113	0.5526	0.7146	-0.008
Mof_C 	C 	0.0265	0.5606	0.7276	0.011
Mof_C 	C 	0.0143	0.549	0.7072	-0.017
Mof_C 	C 	0.0147	0.5623	0.6828	0.003
Mof_C 	C 	0.0257	0.5886	0.681	-0.003
Mof_C 	C 	0.0347	0.6017	0.7048	0.007
Mof_C 	C 	0.0363	0.5865	0.7261	-0.029
Mof_C 	C 	0.9998	0.529	0.8971	0.011
Mof_C 	C 	0.991	0.5038	0.9023	-0.007
Mof_C 	C 	0.9685	0.4994	0.919	0.003
Mof_C 	C 	0.9548	0.5202	0.9304	-0.004
Mof_C 	C 	0.9636	0.5454	0.9252	0.007
Mof_C 	C 	0.986	0.5498	0.9085	-0.03
Mof_C 	C 	0.9467	0.6197	0.7835	0.014
Mof_C 	C 	0.9245	0.6291	0.767	-0.007
Mof_C 	C 	0.8958	0.6355	0.776	0.002
Mof_C 	C 	0.8911	0.6352	0.8042	-0.002
Mof_C 	C 	0.9147	0.6245	0.8219	0.005
Mof_C 	C 	0.9415	0.6175	0.8096	-0.026
Mof_C 	C 	0.1612	0.4401	0.0029	0.009
Mof_C 	C 	0.1553	0.4445	0.0296	-0.02
Mof_C 	C 	0.1272	0.4371	0.0383	0.005
Mof_C 	C 	0.1068	0.4287	0.0226	-0.003
Mof_C 	C 	0.1124	0.4234	0.9963	0.003
Mof_C 	C 	0.1403	0.4304	0.9857	-0.009
Mof_Cd	Cd	0.14359	0.5898	0.896	0.253
Mof_Cd	Cd	0.20075	0.56788	0.842	0.269
Mof_Cd	Cd	0.08586	0.60793	0.84326	0.253
Mof_Cd	Cd	0.14755	0.58839	0.79	0.271
Mof_Cd	Cd	0.12325	0.53699	0.83957	0.271
Mof_Cd	Cd	0.22343	0.62468	0.89709	0.273
Mof_Cd	Cd	0.08212	0.61063	0.95043	0.271
Mof_Cd	Cd	0.06694	0.55938	0.78403	0.276
Mof_Cd	Cd	0.02004	0.62762	0.79745	0.278
Mof_Cd	Cd	0.20681	0.56778	0.94641	0.276
Mof_Cd	Cd	0.12381	0.5429	0.95529	0.276
Mof_Cd	Cd	0.06542	0.55729	0.90045	0.27
Mof_Cd	Cd	0.01034	0.56508	0.84424	0.276
Mof_Cd	Cd	0.17411	0.51496	0.89603	0.278
Mof_S 	S 	0.10401	0.57106	0.8697	-0.265
Mof_S 	S 	0.16216	0.55345	0.92338	-0.257
Mof_S 	S 	0.18429	0.60581	0.8693	-0.264
Mof_S 	S 	0.16453	0.5498	0.81284	-0.199
Mof_S 	S 	0.04554	0.58943	0.81685	-0.255
Mof_S 	S 	0.13561	0.49823	0.86749	-0.12
Mof_S 	S 	0.04239	0.59103	0.92642	-0.199
Mof_S 	S 	0.19013	0.60914	0.76721	-0.13
Mof_S 	S 	0.10703	0.57906	0.75834	-0.121
Mof_S 	S 	0.07843	0.52354	0.81476	-0.134
Mof_S 	S 	0.24772	0.58533	0.82331	-0.121
Mof_S 	S 	0.21768	0.53638	0.87614	-0.131
Mof_Cd	Cd	0.98135	0.56045	0.77404	0.284
Mof_Cd	Cd	0.18875	0.49211	0.96802	0.286
Mof_S 	S 	0.02764	0.54237	0.75537	-0.119
Mof_S 	S 	0.22359	0.52976	0.97369	-0.118
Mof_S 	S 	0.09002	0.52063	0.92458	-0.127
Mof_S 	S 	0.24641	0.58595	0.91949	-0.119
Mof_S 	S 	0.25776	0.64271	0.86368	-0.131
Mof_S 	S 	0.97958	0.61007	0.77151	-0.117
Mof_S 	S 	0.13874	0.50479	0.98175	-0.122
Mof_S 	S 	0.02789	0.53236	0.875	-0.121
Mof_S 	S 	0.19273	0.47771	0.92238	-0.113
Mof_S 	S 	0.1069	0.5805	0.98162	-0.119
Mof_S 	S 	0.9721	0.54321	0.81713	-0.12
Mof_S 	S 	0.1837	0.60011	0.97629	-0.126
Mof_S 	S 	0.19488	0.44915	0.99018	-0.109
Mof_C 	C 	0.0636	0.4984	0.9438	0.012
Mof_C 	C 	0.0451	0.4759	0.9791	0.002
Mof_C 	C 	0.0663	0.4911	0.9684	-0.01
Mof_C 	C 	0.0485	0.5167	0.9566	-0.019
Mof_C 	C 	0.2551	0.0204	0.459	0.01
Mof_C 	C 	0.2801	0.0167	0.4733	-0.009
Mof_C 	C 	0.3069	0.0113	0.4625	0.002
Mof_C 	C 	0.3085	0.0073	0.4369	-0.004
Mof_C 	C 	0.2849	0.0099	0.422	0.008
Mof_C 	C 	0.2588	0.0177	0.433	-0.028
Mof_C 	C 	0.9816	0.0096	0.3156	0.011
Mof_C 	C 	0.9827	0.9958	0.2932	-0.028
Mof_C 	C 	0.9887	0.9679	0.2931	0.005
Mof_C 	C 	0.9925	0.9545	0.3133	-0.004
Mof_C 	C 	0.9908	0.9694	0.3348	0.005
Mof_C 	C 	0.9846	0.9958	0.3359	-0.014
Mof_C 	C 	0.0883	0.9956	0.2992	0.017
Mof_C 	C 	0.1148	0.9853	0.2967	-0.022
Mof_C 	C 	0.1239	0.9604	0.2835	0.005
Mof_C 	C 	0.1019	0.9498	0.2711	-0.004
Mof_C 	C 	0.0727	0.9562	0.2746	0.003
Mof_C 	C 	0.0661	0.9772	0.2895	-0.012
Mof_C 	C 	0.2711	0.0971	0.4418	0.012
Mof_C 	C 	0.294	0.0798	0.4475	-0.008
Mof_C 	C 	0.3147	0.0887	0.4648	0.002
Mof_C 	C 	0.3136	0.115	0.4765	-0.003
Mof_C 	C 	0.29	0.1309	0.471	0.005
Mof_C 	C 	0.2687	0.1217	0.4526	-0.025
Mof_C 	C 	0.2433	0.0146	0.3626	0.018
Mof_C 	C 	0.2403	0.99	0.3685	-0.02
Mof_C 	C 	0.2633	0.972	0.3582	0.004
Mof_C 	C 	0.2852	0.9832	0.3415	-0.003
Mof_C 	C 	0.2903	0.0107	0.3411	0.003
Mof_C 	C 	0.2684	0.0264	0.356	-0.012
Mof_C 	C 	0.2597	0.0634	0.3013	0.016
Mof_C 	C 	0.2444	0.0447	0.2916	-0.029
Mof_C 	C 	0.2556	0.0259	0.2763	0.007
Mof_C 	C 	0.285	0.0279	0.2671	-0.005
Mof_C 	C 	0.3036	0.0465	0.2777	0.003
Mof_C 	C 	0.2897	0.0655	0.2959	-0.009
Mof_C 	C 	0.2054	0.0846	0.247	0.016
Mof_C 	C 	0.1916	0.0621	0.2416	-0.022
Mof_C 	C 	0.2034	0.0436	0.2264	0.007
Mof_C 	C 	0.2304	0.0487	0.2146	-0.006
Mof_C 	C 	0.2425	0.0719	0.2193	0.008
Mof_C 	C 	0.2331	0.086	0.237	-0.019
Mof_C 	C 	0.1559	0.976	0.3484	0.011
Mof_C 	C 	0.1775	0.9842	0.333	-0.028
Mof_C 	C 	0.1944	0.9664	0.3165	0.004
Mof_C 	C 	0.1863	0.938	0.3189	-0.003
Mof_C 	C 	0.1606	0.9314	0.3358	0.002
Mof_C 	C 	0.1473	0.9506	0.3525	-0.006
Mof_C 	C 	0.1653	0.9527	0.4182	0.01
Mof_C 	C 	0.178	0.9283	0.4117	-0.006
Mof_C 	C 	0.156	0.9109	0.4066	0.002
Mof_C 	C 	0.1281	0.9138	0.4139	-0.004
Mof_C 	C 	0.1172	0.9364	0.418	0.006
Mof_C 	C 	0.1374	0.9591	0.4213	-0.027
Mof_C 	C 	0.21336	0.11283	0.49656	0.011
Mof_C 	C 	0.2197	0.13916	0.4965	-0.021
Mof_C 	C 	0.2419	0.14867	0.51142	0.006
Mof_C 	C 	0.2577	0.1318	0.52641	-0.004
Mof_C 	C 	0.2513	0.1055	0.52647	0.004
Mof_C 	C 	0.22918	0.096	0.51155	-0.013
Mof_C 	C 	0.1415	0.01531	0.51	0.022
Mof_C 	C 	0.1587	0.03678	0.5149	-0.036
Mof_C 	C 	0.1628	0.04509	0.53937	0.009
Mof_C 	C 	0.1497	0.0319	0.559	-0.006
Mof_C 	C 	0.1325	0.0105	0.5542	0.004
Mof_C 	C 	0.1283	0.0022	0.5297	-0.011
Mof_C 	C 	0.075	0.06139	0.4961	0.001
Mof_C 	C 	0.0777	0.05115	0.5201	-0.005
Mof_C 	C 	0.054	0.03968	0.5316	0.002
Mof_C 	C 	0.0277	0.03844	0.5192	-0.003
Mof_C 	C 	0.025	0.04867	0.4953	0.006
Mof_C 	C 	0.0487	0.06015	0.4837	-0.024
Mof_C 	C 	0.2939	0.1482	0.3783	0.013
Mof_C 	C 	0.2914	0.1269	0.3941	-0.019
Mof_C 	C 	0.3142	0.1202	0.4097	0.005
Mof_C 	C 	0.3393	0.1349	0.4097	-0.004
Mof_C 	C 	0.3418	0.1562	0.3939	0.004
Mof_C 	C 	0.319	0.1629	0.3783	-0.014
Mof_C 	C 	0.1163	0.0517	0.2396	0.012
Mof_C 	C 	0.1256	0.0293	0.2517	-0.029
Mof_C 	C 	0.135	0.0072	0.2346	0.005
Mof_C 	C 	0.1329	0.0085	0.2092	-0.004
Mof_C 	C 	0.1239	0.031	0.1995	0.003
Mof_C 	C 	0.113	0.0526	0.2146	-0.008
Mof_C 	C 	0.0265	0.0606	0.2276	0.011
Mof_C 	C 	0.0143	0.049	0.2072	-0.017
Mof_C 	C 	0.0147	0.0623	0.1828	0.003
Mof_C 	C 	0.0257	0.0886	0.181	-0.003
Mof_C 	C 	0.0347	0.1017	0.2048	0.007
Mof_C 	C 	0.0363	0.0865	0.2261	-0.029
Mof_C 	C 	0.9998	0.029	0.3971	0.011
Mof_C 	C 	0.991	0.0038	0.4023	-0.007
Mof_C 	C 	0.9685	0.9994	0.419	0.003
Mof_C 	C 	0.9548	0.0202	0.4304	-0.004
Mof_C 	C 	0.9636	0.0454	0.4252	0.007
Mof_C 	C 	0.986	0.0498	0.4085	-0.03
Mof_C 	C 	0.9467	0.1197	0.2835	0.014
Mof_C 	C 	0.9245	0.1291	0.267	-0.007
Mof_C 	C 	0.8958	0.1355	0.276	0.002
Mof_C 	C 	0.8911	0.1352	0.3042	-0.002
Mof_C 	C 	0.9147	0.1245	0.3219	0.005
Mof_C 	C 	0.9415	0.1175	0.3096	-0.026
Mof_C 	C 	0.1612	0.9401	0.5029	0.009
Mof_C 	C 	0.1553	0.9445	0.5296	-0.02
Mof_C 	C 	0.1272	0.9371	0.5383	0.005
Mof_C 	C 	0.1068	0.9287	0.5226	-0.003
Mof_C 	C 	0.1124	0.9234	0.4963	0.003
Mof_C 	C 	0.1403	0.9304	0.4857	-0.009
Mof_Cd	Cd	0.14359	0.0898	0.396	0.253
Mof_Cd	Cd	0.20075	0.06788	0.342	0.269
Mof_Cd	Cd	0.08586	0.10793	0.34326	0.253
Mof_Cd	Cd	0.14755	0.08839	0.29	0.271
Mof_Cd	Cd	0.12325	0.03699	0.33957	0.271
Mof_Cd	Cd	0.22343	0.12468	0.39709	0.273
Mof_Cd	Cd	0.08212	0.11063	0.45043	0.271
Mof_Cd	Cd	0.06694	0.05938	0.28403	0.276
Mof_Cd	Cd	0.02004	0.12762	0.29745	0.278
Mof_Cd	Cd	0.20681	0.06778	0.44641	0.276
Mof_Cd	Cd	0.12381	0.0429	0.45529	0.276
Mof_Cd	Cd	0.06542	0.05729	0.40045	0.27
Mof_Cd	Cd	0.01034	0.06508	0.34424	0.276
Mof_Cd	Cd	0.17411	0.01496	0.39603	0.278
Mof_S 	S 	0.10401	0.07106	0.3697	-0.265
Mof_S 	S 	0.16216	0.05345	0.42338	-0.257
Mof_S 	S 	0.18429	0.10581	0.3693	-0.264
Mof_S 	S 	0.16453	0.0498	0.31284	-0.199
Mof_S 	S 	0.04554	0.08943	0.31685	-0.255
Mof_S 	S 	0.13561	0.99823	0.36749	-0.12
Mof_S 	S 	0.04239	0.09103	0.42642	-0.199
Mof_S 	S 	0.19013	0.10914	0.26721	-0.13
Mof_S 	S 	0.10703	0.07906	0.25834	-0.121
Mof_S 	S 	0.07843	0.02354	0.31476	-0.134
Mof_S 	S 	0.24772	0.08533	0.32331	-0.121
Mof_S 	S 	0.21768	0.03638	0.37614	-0.131
Mof_Cd	Cd	0.98135	0.06045	0.27404	0.284
Mof_Cd	Cd	0.18875	0.99211	0.46802	0.286
Mof_S 	S 	0.02764	0.04237	0.25537	-0.119
Mof_S 	S 	0.22359	0.02976	0.47369	-0.118
Mof_S 	S 	0.09002	0.02063	0.42458	-0.127
Mof_S 	S 	0.24641	0.08595	0.41949	-0.119
Mof_S 	S 	0.25776	0.14271	0.36368	-0.131
Mof_S 	S 	0.97958	0.11007	0.27151	-0.117
Mof_S 	S 	0.13874	0.00479	0.48175	-0.122
Mof_S 	S 	0.02789	0.03236	0.375	-0.121
Mof_S 	S 	0.19273	0.97771	0.42238	-0.113
Mof_S 	S 	0.1069	0.0805	0.48162	-0.119
Mof_S 	S 	0.9721	0.04321	0.31713	-0.12
Mof_S 	S 	0.1837	0.10011	0.47629	-0.126
Mof_S 	S 	0.19488	0.94915	0.49018	-0.109
Mof_C 	C 	0.0636	0.9984	0.4438	0.012
Mof_C 	C 	0.0451	0.9759	0.4791	0.002
Mof_C 	C 	0.0663	0.9911	0.4684	-0.01
Mof_C 	C 	0.0485	0.0167	0.4566	-0.019
Mof_C 	C 	0.7551	0.5204	0.459	0.01
Mof_C 	C 	0.7801	0.5167	0.4733	-0.009
Mof_C 	C 	0.8069	0.5113	0.4625	0.002
Mof_C 	C 	0.8085	0.5073	0.4369	-0.004
Mof_C 	C 	0.7849	0.5099	0.422	0.008
Mof_C 	C 	0.7588	0.5177	0.433	-0.028
Mof_C 	C 	0.4816	0.5096	0.3156	0.011
Mof_C 	C 	0.4827	0.4958	0.2932	-0.028
Mof_C 	C 	0.4887	0.4679	0.2931	0.005
Mof_C 	C 	0.4925	0.4545	0.3133	-0.004
Mof_C 	C 	0.4908	0.4694	0.3348	0.005
Mof_C 	C 	0.4846	0.4958	0.3359	-0.014
Mof_C 	C 	0.5883	0.4956	0.2992	0.017
Mof_C 	C 	0.6148	0.4853	0.2967	-0.022
Mof_C 	C 	0.6239	0.4604	0.2835	0.005
Mof_C 	C 	0.6019	0.4498	0.2711	-0.004
Mof_C 	C 	0.5727	0.4562	0.2746	0.003
Mof_C 	C 	0.5661	0.4772	0.2895	-0.012
Mof_C 	C 	0.7711	0.5971	0.4418	0.012
Mof_C 	C 	0.794	0.5798	0.4475	-0.008
Mof_C 	C 	0.8147	0.5887	0.4648	0.002
Mof_C 	C 	0.8136	0.615	0.4765	-0.003
Mof_C 	C 	0.79	0.6309	0.471	0.005
Mof_C 	C 	0.7687	0.6217	0.4526	-0.025
Mof_C 	C 	0.7433	0.5146	0.3626	0.018
Mof_C 	C 	0.7403	0.49	0.3685	-0.02
Mof_C 	C 	0.7633	0.472	0.3582	0.004
Mof_C 	C 	0.7852	0.4832	0.3415	-0.003
Mof_C 	C 	0.7903	0.5107	0.3411	0.003
Mof_C 	C 	0.7684	0.5264	0.356	-0.012
Mof_C 	C 	0.7597	0.5634	0.3013	0.016
Mof_C 	C 	0.7444	0.5447	0.2916	-0.029
Mof_C 	C 	0.7556	0.5259	0.2763	0.007
Mof_C 	C 	0.785	0.5279	0.2671	-0.005
Mof_C 	C 	0.8036	0.5465	0.2777	0.003
Mof_C 	C 	0.7897	0.5655	0.2959	-0.009
Mof_C 	C 	0.7054	0.5846	0.247	0.016
Mof_C 	C 	0.6916	0.5621	0.2416	-0.022
Mof_C 	C 	0.7034	0.5436	0.2264	0.007
Mof_C 	C 	0.7304	0.5487	0.2146	-0.006
Mof_C 	C 	0.7425	0.5719	0.2193	0.008
Mof_C 	C 	0.7331	0.586	0.237	-0.019
Mof_C 	C 	0.6559	0.476	0.3484	0.011
Mof_C 	C 	0.6775	0.4842	0.333	-0.028
Mof_C 	C 	0.6944	0.4664	0.3165	0.004
Mof_C 	C 	0.6863	0.438	0.3189	-0.003
Mof_C 	C 	0.6606	0.4314	0.3358	0.002
Mof_C 	C 	0.6473	0.4506	0.3525	-0.006
Mof_C 	C 	0.6653	0.4527	0.4182	0.01
Mof_C 	C 	0.678	0.4283	0.4117	-0.006
Mof_C 	C 	0.656	0.4109	0.4066	0.002
Mof_C 	C 	0.6281	0.4138	0.4139	-0.004
Mof_C 	C 	0.6172	0.4364	0.418	0.006
Mof_C 	C 	0.6374	0.4591	0.4213	-0.027
Mof_C 	C 	0.71336	0.61283	0.49656	0.011
Mof_C 	C 	0.7197	0.63916	0.4965	-0.021
Mof_C 	C 	0.7419	0.64867	0.51142	0.006
Mof_C 	C 	0.7577	0.6318	0.52641	-0.004
Mof_C 	C 	0.7513	0.6055	0.52647	0.004
Mof_C 	C 	0.72918	0.596	0.51155	-0.013
Mof_C 	C 	0.6415	0.51531	0.51	0.022
Mof_C 	C 	0.6587	0.53678	0.5149	-0.036
Mof_C 	C 	0.6628	0.54509	0.53937	0.009
Mof_C 	C 	0.6497	0.5319	0.559	-0.006
Mof_C 	C 	0.6325	0.5105	0.5542	0.004
Mof_C 	C 	0.6283	0.5022	0.5297	-0.011
Mof_C 	C 	0.575	0.56139	0.4961	0.001
Mof_C 	C 	0.5777	0.55115	0.5201	-0.005
Mof_C 	C 	0.554	0.53968	0.5316	0.002
Mof_C 	C 	0.5277	0.53844	0.5192	-0.003
Mof_C 	C 	0.525	0.54867	0.4953	0.006
Mof_C 	C 	0.5487	0.56015	0.4837	-0.024
Mof_C 	C 	0.7939	0.6482	0.3783	0.013
Mof_C 	C 	0.7914	0.6269	0.3941	-0.019
Mof_C 	C 	0.8142	0.6202	0.4097	0.005
Mof_C 	C 	0.8393	0.6349	0.4097	-0.004
Mof_C 	C 	0.8418	0.6562	0.3939	0.004
Mof_C 	C 	0.819	0.6629	0.3783	-0.014
Mof_C 	C 	0.6163	0.5517	0.2396	0.012
Mof_C 	C 	0.6256	0.5293	0.2517	-0.029
Mof_C 	C 	0.635	0.5072	0.2346	0.005
Mof_C 	C 	0.6329	0.5085	0.2092	-0.004
Mof_C 	C 	0.6239	0.531	0.1995	0.003
Mof_C 	C 	0.613	0.5526	0.2146	-0.008
Mof_C 	C 	0.5265	0.5606	0.2276	0.011
Mof_C 	C 	0.5143	0.549	0.2072	-0.017
Mof_C 	C 	0.5147	0.5623	0.1828	0.003
Mof_C 	C 	0.5257	0.5886	0.181	-0.003
Mof_C 	C 	0.5347	0.6017	0.2048	0.007
Mof_C 	C 	0.5363	0.5865	0.2261	-0.029
Mof_C 	C 	0.4998	0.529	0.3971	0.011
Mof_C 	C 	0.491	0.5038	0.4023	-0.007
Mof_C 	C 	0.4685	0.4994	0.419	0.003
Mof_C 	C 	0.4548	0.5202	0.4304	-0.004
Mof_C 	C 	0.4636	0.5454	0.4252	0.007
Mof_C 	C 	0.486	0.5498	0.4085	-0.03
Mof_C 	C 	0.4467	0.6197	0.2835	0.014
Mof_C 	C 	0.4245	0.6291	0.267	-0.007
Mof_C 	C 	0.3958	0.6355	0.276	0.002
Mof_C 	C 	0.3911	0.6352	0.3042	-0.002
Mof_C 	C 	0.4147	0.6245	0.3219	0.005
Mof_C 	C 	0.4415	0.6175	0.3096	-0.026
Mof_C 	C 	0.6612	0.4401	0.5029	0.009
Mof_C 	C 	0.6553	0.4445	0.5296	-0.02
Mof_C 	C 	0.6272	0.4371	0.5383	0.005
Mof_C 	C 	0.6068	0.4287	0.5226	-0.003
Mof_C 	C 	0.6124	0.4234	0.4963	0.003
Mof_C 	C 	0.6403	0.4304	0.4857	-0.009
Mof_Cd	Cd	0.64359	0.5898	0.396	0.253
Mof_Cd	Cd	0.70075	0.56788	0.342	0.269
Mof_Cd	Cd	0.58586	0.60793	0.34326	0.253
Mof_Cd	Cd	0.64755	0.58839	0.29	0.271
Mof_Cd	Cd	0.62325	0.53699	0.33957	0.271
Mof_Cd	Cd	0.72343	0.62468	0.39709	0.273
Mof_Cd	Cd	0.58212	0.61063	0.45043	0.271
Mof_Cd	Cd	0.56694	0.55938	0.28403	0.276
Mof_Cd	Cd	0.52004	0.62762	0.29745	0.278
Mof_Cd	Cd	0.70681	0.56778	0.44641	0.276
Mof_Cd	Cd	0.62381	0.5429	0.45529	0.276
Mof_Cd	Cd	0.56542	0.55729	0.40045	0.27
Mof_Cd	Cd	0.51034	0.56508	0.34424	0.276
Mof_Cd	Cd	0.67411	0.51496	0.39603	0.278
Mof_S 	S 	0.60401	0.57106	0.3697	-0.265
Mof_S 	S 	0.66216	0.55345	0.42338	-0.257
Mof_S 	S 	0.68429	0.60581	0.3693	-0.264
Mof_S 	S 	0.66453	0.5498	0.31284	-0.199
Mof_S 	S 	0.54554	0.58943	0.31685	-0.255
Mof_S 	S 	0.63561	0.49823	0.36749	-0.12
Mof_S 	S 	0.54239	0.59103	0.42642	-0.199
Mof_S 	S 	0.69013	0.60914	0.26721	-0.13
Mof_S 	S 	0.60703	0.57906	0.25834	-0.121
Mof_S 	S 	0.57843	0.52354	0.31476	-0.134
Mof_S 	S 	0.74772	0.58533	0.32331	-0.121
Mof_S 	S 	0.71768	0.53638	0.37614	-0.131
Mof_Cd	Cd	0.48135	0.56045	0.27404	0.284
Mof_Cd	Cd	0.68875	0.49211	0.46802	0.286
Mof_S 	S 	0.52764	0.54237	0.25537	-0.119
Mof_S 	S 	0.72359	0.52976	0.47369	-0.118
Mof_S 	S 	0.59002	0.52063	0.42458	-0.127
Mof_S 	S 	0.74641	0.58595	0.41949	-0.119
Mof_S 	S 	0.75776	0.64271	0.36368	-0.131
Mof_S 	S 	0.47958	0.61007	0.27151	-0.117
Mof_S 	S 	0.63874	0.50479	0.48175	-0.122
Mof_S 	S 	0.52789	0.53236	0.375	-0.121
Mof_S 	S 	0.69273	0.47771	0.42238	-0.113
Mof_S 	S 	0.6069	0.5805	0.48162	-0.119
Mof_S 	S 	0.4721	0.54321	0.31713	-0.12
Mof_S 	S 	0.6837	0.60011	0.47629	-0.126
Mof_S 	S 	0.69488	0.44915	0.49018	-0.109
Mof_C 	C 	0.5636	0.4984	0.4438	0.012
Mof_C 	C 	0.5451	0.4759	0.4791	0.002
Mof_C 	C 	0.5663	0.4911	0.4684	-0.01
Mof_C 	C 	0.5485	0.5167	0.4566	-0.019
Mof_C 	C 	0.7551	0.0204	0.959	0.01
Mof_C 	C 	0.7801	0.0167	0.9733	-0.009
Mof_C 	C 	0.8069	0.0113	0.9625	0.002
Mof_C 	C 	0.8085	0.0073	0.9369	-0.004
Mof_C 	C 	0.7849	0.0099	0.922	0.008
Mof_C 	C 	0.7588	0.0177	0.933	-0.028
Mof_C 	C 	0.4816	0.0096	0.8156	0.011
Mof_C 	C 	0.4827	0.9958	0.7932	-0.028
Mof_C 	C 	0.4887	0.9679	0.7931	0.005
Mof_C 	C 	0.4925	0.9545	0.8133	-0.004
Mof_C 	C 	0.4908	0.9694	0.8348	0.005
Mof_C 	C 	0.4846	0.9958	0.8359	-0.014
Mof_C 	C 	0.5883	0.9956	0.7992	0.017
Mof_C 	C 	0.6148	0.9853	0.7967	-0.022
Mof_C 	C 	0.6239	0.9604	0.7835	0.005
Mof_C 	C 	0.6019	0.9498	0.7711	-0.004
Mof_C 	C 	0.5727	0.9562	0.7746	0.003
Mof_C 	C 	0.5661	0.9772	0.7895	-0.012
Mof_C 	C 	0.7711	0.0971	0.9418	0.012
Mof_C 	C 	0.794	0.0798	0.9475	-0.008
Mof_C 	C 	0.8147	0.0887	0.9648	0.002
Mof_C 	C 	0.8136	0.115	0.9765	-0.003
Mof_C 	C 	0.79	0.1309	0.971	0.005
Mof_C 	C 	0.7687	0.1217	0.9526	-0.025
Mof_C 	C 	0.7433	0.0146	0.8626	0.018
Mof_C 	C 	0.7403	0.99	0.8685	-0.02
Mof_C 	C 	0.7633	0.972	0.8582	0.004
Mof_C 	C 	0.7852	0.9832	0.8415	-0.003
Mof_C 	C 	0.7903	0.0107	0.8411	0.003
Mof_C 	C 	0.7684	0.0264	0.856	-0.012
Mof_C 	C 	0.7597	0.0634	0.8013	0.016
Mof_C 	C 	0.7444	0.0447	0.7916	-0.029
Mof_C 	C 	0.7556	0.0259	0.7763	0.007
Mof_C 	C 	0.785	0.0279	0.7671	-0.005
Mof_C 	C 	0.8036	0.0465	0.7777	0.003
Mof_C 	C 	0.7897	0.0655	0.7959	-0.009
Mof_C 	C 	0.7054	0.0846	0.747	0.016
Mof_C 	C 	0.6916	0.0621	0.7416	-0.022
Mof_C 	C 	0.7034	0.0436	0.7264	0.007
Mof_C 	C 	0.7304	0.0487	0.7146	-0.006
Mof_C 	C 	0.7425	0.0719	0.7193	0.008
Mof_C 	C 	0.7331	0.086	0.737	-0.019
Mof_C 	C 	0.6559	0.976	0.8484	0.011
Mof_C 	C 	0.6775	0.9842	0.833	-0.028
Mof_C 	C 	0.6944	0.9664	0.8165	0.004
Mof_C 	C 	0.6863	0.938	0.8189	-0.003
Mof_C 	C 	0.6606	0.9314	0.8358	0.002
Mof_C 	C 	0.6473	0.9506	0.8525	-0.006
Mof_C 	C 	0.6653	0.9527	0.9182	0.01
Mof_C 	C 	0.678	0.9283	0.9117	-0.006
Mof_C 	C 	0.656	0.9109	0.9066	0.002
Mof_C 	C 	0.6281	0.9138	0.9139	-0.004
Mof_C 	C 	0.6172	0.9364	0.918	0.006
Mof_C 	C 	0.6374	0.9591	0.9213	-0.027
Mof_C 	C 	0.71336	0.11283	0.99656	0.011
Mof_C 	C 	0.7197	0.13916	0.9965	-0.021
Mof_C 	C 	0.7419	0.14867	0.01142	0.006
Mof_C 	C 	0.7577	0.1318	0.02641	-0.004
Mof_C 	C 	0.7513	0.1055	0.02647	0.004
Mof_C 	C 	0.72918	0.096	0.01155	-0.013
Mof_C 	C 	0.6415	0.01531	0.01	0.022
Mof_C 	C 	0.6587	0.03678	0.0149	-0.036
Mof_C 	C 	0.6628	0.04509	0.03937	0.009
Mof_C 	C 	0.6497	0.0319	0.059	-0.006
Mof_C 	C 	0.6325	0.0105	0.0542	0.004
Mof_C 	C 	0.6283	0.0022	0.0297	-0.011
Mof_C 	C 	0.575	0.06139	0.9961	0.001
Mof_C 	C 	0.5777	0.05115	0.0201	-0.005
Mof_C 	C 	0.554	0.03968	0.0316	0.002
Mof_C 	C 	0.5277	0.03844	0.0192	-0.003
Mof_C 	C 	0.525	0.04867	0.9953	0.006
Mof_C 	C 	0.5487	0.06015	0.9837	-0.024
Mof_C 	C 	0.7939	0.1482	0.8783	0.013
Mof_C 	C 	0.7914	0.1269	0.8941	-0.019
Mof_C 	C 	0.8142	0.1202	0.9097	0.005
Mof_C 	C 	0.8393	0.1349	0.9097	-0.004
Mof_C 	C 	0.8418	0.1562	0.8939	0.004
Mof_C 	C 	0.819	0.1629	0.8783	-0.014
Mof_C 	C 	0.6163	0.0517	0.7396	0.012
Mof_C 	C 	0.6256	0.0293	0.7517	-0.029
Mof_C 	C 	0.635	0.0072	0.7346	0.005
Mof_C 	C 	0.6329	0.0085	0.7092	-0.004
Mof_C 	C 	0.6239	0.031	0.6995	0.003
Mof_C 	C 	0.613	0.0526	0.7146	-0.008
Mof_C 	C 	0.5265	0.0606	0.7276	0.011
Mof_C 	C 	0.5143	0.049	0.7072	-0.017
Mof_C 	C 	0.5147	0.0623	0.6828	0.003
Mof_C 	C 	0.5257	0.0886	0.681	-0.003
Mof_C 	C 	0.5347	0.1017	0.7048	0.007
Mof_C 	C 	0.5363	0.0865	0.7261	-0.029
Mof_C 	C 	0.4998	0.029	0.8971	0.011
Mof_C 	C 	0.491	0.0038	0.9023	-0.007
Mof_C 	C 	0.4685	0.9994	0.919	0.003
Mof_C 	C 	0.4548	0.0202	0.9304	-0.004
Mof_C 	C 	0.4636	0.0454	0.9252	0.007
Mof_C 	C 	0.486	0.0498	0.9085	-0.03
Mof_C 	C 	0.4467	0.1197	0.7835	0.014
Mof_C 	C 	0.4245	0.1291	0.767	-0.007
Mof_C 	C 	0.3958	0.1355	0.776	0.002
Mof_C 	C 	0.3911	0.1352	0.8042	-0.002
Mof_C 	C 	0.4147	0.1245	0.8219	0.005
Mof_C 	C 	0.4415	0.1175	0.8096	-0.026
Mof_C 	C 	0.6612	0.9401	0.0029	0.009
Mof_C 	C 	0.6553	0.9445	0.0296	-0.02
Mof_C 	C 	0.6272	0.9371	0.0383	0.005
Mof_C 	C 	0.6068	0.9287	0.0226	-0.003
Mof_C 	C 	0.6124	0.9234	0.9963	0.003
Mof_C 	C 	0.6403	0.9304	0.9857	-0.009
Mof_Cd	Cd	0.64359	0.0898	0.896	0.253
Mof_Cd	Cd	0.70075	0.06788	0.842	0.269
Mof_Cd	Cd	0.58586	0.10793	0.84326	0.253
Mof_Cd	Cd	0.64755	0.08839	0.79	0.271
Mof_Cd	Cd	0.62325	0.03699	0.83957	0.271
Mof_Cd	Cd	0.72343	0.12468	0.89709	0.273
Mof_Cd	Cd	0.58212	0.11063	0.95043	0.271
Mof_Cd	Cd	0.56694	0.05938	0.78403	0.276
Mof_Cd	Cd	0.52004	0.12762	0.79745	0.278
Mof_Cd	Cd	0.70681	0.06778	0.94641	0.276
Mof_Cd	Cd	0.62381	0.0429	0.95529	0.276
Mof_Cd	Cd	0.56542	0.05729	0.90045	0.27
Mof_Cd	Cd	0.51034	0.06508	0.84424	0.276
Mof_Cd	Cd	0.67411	0.01496	0.89603	0.278
Mof_S 	S 	0.60401	0.07106	0.8697	-0.265
Mof_S 	S 	0.66216	0.05345	0.92338	-0.257
Mof_S 	S 	0.68429	0.10581	0.8693	-0.264
Mof_S 	S 	0.66453	0.0498	0.81284	-0.199
Mof_S 	S 	0.54554	0.08943	0.81685	-0.255
Mof_S 	S 	0.63561	0.99823	0.86749	-0.12
Mof_S 	S 	0.54239	0.09103	0.92642	-0.199
Mof_S 	S 	0.69013	0.10914	0.76721	-0.13
Mof_S 	S 	0.60703	0.07906	0.75834	-0.121
Mof_S 	S 	0.57843	0.02354	0.81476	-0.134
Mof_S 	S 	0.74772	0.08533	0.82331	-0.121
Mof_S 	S 	0.71768	0.03638	0.87614	-0.131
Mof_Cd	Cd	0.48135	0.06045	0.77404	0.284
Mof_Cd	Cd	0.68875	0.99211	0.96802	0.286
Mof_S 	S 	0.52764	0.04237	0.75537	-0.119
Mof_S 	S 	0.72359	0.02976	0.97369	-0.118
Mof_S 	S 	0.59002	0.02063	0.92458	-0.127
Mof_S 	S 	0.74641	0.08595	0.91949	-0.119
Mof_S 	S 	0.75776	0.14271	0.86368	-0.131
Mof_S 	S 	0.47958	0.11007	0.77151	-0.117
Mof_S 	S 	0.63874	0.00479	0.98175	-0.122
Mof_S 	S 	0.52789	0.03236	0.875	-0.121
Mof_S 	S 	0.69273	0.97771	0.92238	-0.113
Mof_S 	S 	0.6069	0.0805	0.98162	-0.119
Mof_S 	S 	0.4721	0.04321	0.81713	-0.12
Mof_S 	S 	0.6837	0.10011	0.97629	-0.126
Mof_S 	S 	0.69488	0.94915	0.99018	-0.109
Mof_C 	C 	0.5636	0.9984	0.9438	0.012
Mof_C 	C 	0.5451	0.9759	0.9791	0.002
Mof_C 	C 	0.5663	0.9911	0.9684	-0.01
Mof_C 	C 	0.5485	0.0167	0.9566	-0.019
Mof_C 	C 	0.4949	0.2296	0.959	0.01
Mof_C 	C 	0.4699	0.2333	0.9733	-0.009
Mof_C 	C 	0.4431	0.2387	0.9625	0.002
Mof_C 	C 	0.4415	0.2427	0.9369	-0.004
Mof_C 	C 	0.4651	0.2401	0.922	0.008
Mof_C 	C 	0.4912	0.2323	0.933	-0.028
Mof_C 	C 	0.7684	0.2404	0.8156	0.011
Mof_C 	C 	0.7673	0.2542	0.7932	-0.028
Mof_C 	C 	0.7613	0.2821	0.7931	0.005
Mof_C 	C 	0.7575	0.2955	0.8133	-0.004
Mof_C 	C 	0.7592	0.2806	0.8348	0.005
Mof_C 	C 	0.7654	0.2542	0.8359	-0.014
Mof_C 	C 	0.6617	0.2544	0.7992	0.017
Mof_C 	C 	0.6352	0.2647	0.7967	-0.022
Mof_C 	C 	0.6261	0.2896	0.7835	0.005
Mof_C 	C 	0.6481	0.3002	0.7711	-0.004
Mof_C 	C 	0.6773	0.2938	0.7746	0.003
Mof_C 	C 	0.6839	0.2728	0.7895	-0.012
Mof_C 	C 	0.4789	0.1529	0.9418	0.012
Mof_C 	C 	0.456	0.1702	0.9475	-0.008
Mof_C 	C 	0.4353	0.1613	0.9648	0.002
Mof_C 	C 	0.4364	0.135	0.9765	-0.003
Mof_C 	C 	0.46	0.1191	0.971	0.005
Mof_C 	C 	0.4813	0.1283	0.9526	-0.025
Mof_C 	C 	0.5067	0.2354	0.8626	0.018
Mof_C 	C 	0.5097	0.26	0.8685	-0.02
Mof_C 	C 	0.4867	0.278	0.8582	0.004
Mof_C 	C 	0.4648	0.2668	0.8415	-0.003
Mof_C 	C 	0.4597	0.2393	0.8411	0.003
Mof_C 	C 	0.4816	0.2236	0.856	-0.012
Mof_C 	C 	0.4903	0.1866	0.8013	0.016
Mof_C 	C 	0.5056	0.2053	0.7916	-0.029
Mof_C 	C 	0.4944	0.2241	0.7763	0.007
Mof_C 	C 	0.465	0.2221	0.7671	-0.005
Mof_C 	C 	0.4464	0.2035	0.7777	0.003
Mof_C 	C 	0.4603	0.1845	0.7959	-0.009
Mof_C 	C 	0.5446	0.1654	0.747	0.016
Mof_C 	C 	0.5584	0.1879	0.7416	-0.022
Mof_C 	C 	0.5466	0.2064	0.7264	0.007
Mof_C 	C 	0.5196	0.2013	0.7146	-0.006
Mof_C 	C 	0.5075	0.1781	0.7193	0.008
Mof_C 	C 	0.5169	0.164	0.737	-0.019
Mof_C 	C 	0.5941	0.274	0.8484	0.011
Mof_C 	C 	0.5725	0.2658	0.833	-0.028
Mof_C 	C 	0.5556	0.2836	0.8165	0.004
Mof_C 	C 	0.5637	0.312	0.8189	-0.003
Mof_C 	C 	0.5894	0.3186	0.8358	0.002
Mof_C 	C 	0.6027	0.2994	0.8525	-0.006
Mof_C 	C 	0.5847	0.2973	0.9182	0.01
Mof_C 	C 	0.572	0.3217	0.9117	-0.006
Mof_C 	C 	0.594	0.3391	0.9066	0.002
Mof_C 	C 	0.6219	0.3362	0.9139	-0.004
Mof_C 	C 	0.6328	0.3136	0.918	0.006
Mof_C 	C 	0.6126	0.2909	0.9213	-0.027
Mof_C 	C 	0.53664	0.13717	0.99656	0.011
Mof_C 	C 	0.5303	0.11084	0.9965	-0.021
Mof_C 	C 	0.5081	0.10133	0.01142	0.006
Mof_C 	C 	0.4923	0.1182	0.02641	-0.004
Mof_C 	C 	0.4987	0.1445	0.02647	0.004
Mof_C 	C 	0.52082	0.154	0.01155	-0.013
Mof_C 	C 	0.6085	0.23469	0.01	0.022
Mof_C 	C 	0.5913	0.21322	0.0149	-0.036
Mof_C 	C 	0.5872	0.20491	0.03937	0.009
Mof_C 	C 	0.6003	0.2181	0.059	-0.006
Mof_C 	C 	0.6175	0.2395	0.0542	0.004
Mof_C 	C 	0.6217	0.2478	0.0297	-0.011
Mof_C 	C 	0.675	0.18861	0.9961	0.001
Mof_C 	C 	0.6723	0.19885	0.0201	-0.005
Mof_C 	C 	0.696	0.21032	0.0316	0.002
Mof_C 	C 	0.7223	0.21156	0.0192	-0.003
Mof_C 	C 	0.725	0.20133	0.9953	0.006
Mof_C 	C 	0.7013	0.18985	0.9837	-0.024
Mof_C 	C 	0.4561	0.1018	0.8783	0.013
Mof_C 	C 	0.4586	0.1231	0.8941	-0.019
Mof_C 	C 	0.4358	0.1298	0.9097	0.005
Mof_C 	C 	0.4107	0.1151	0.9097	-0.004
Mof_C 	C 	0.4082	0.0938	0.8939	0.004
Mof_C 	C 	0.431	0.0871	0.8783	-0.014
Mof_C 	C 	0.6337	0.1983	0.7396	0.012
Mof_C 	C 	0.6244	0.2207	0.7517	-0.029
Mof_C 	C 	0.615	0.2428	0.7346	0.005
Mof_C 	C 	0.6171	0.2415	0.7092	-0.004
Mof_C 	C 	0.6261	0.219	0.6995	0.003
Mof_C 	C 	0.637	0.1974	0.7146	-0.008
Mof_C 	C 	0.7235	0.1894	0.7276	0.011
Mof_C 	C 	0.7357	0.201	0.7072	-0.017
Mof_C 	C 	0.7353	0.1877	0.6828	0.003
Mof_C 	C 	0.7243	0.1614	0.681	-0.003
Mof_C 	C 	0.7153	0.1483	0.7048	0.007
Mof_C 	C 	0.7137	0.1635	0.7261	-0.029
Mof_C 	C 	0.7502	0.221	0.8971	0.011
Mof_C 	C 	0.759	0.2462	0.9023	-0.007
Mof_C 	C 	0.7815	0.2506	0.919	0.003
Mof_C 	C 	0.7952	0.2298	0.9304	-0.004
Mof_C 	C 	0.7864	0.2046	0.9252	0.007
Mof_C 	C 	0.764	0.2002	0.9085	-0.03
Mof_C 	C 	0.8033	0.1303	0.7835	0.014
Mof_C 	C 	0.8255	0.1209	0.767	-0.007
Mof_C 	C 	0.8542	0.1145	0.776	0.002
Mof_C 	C 	0.8589	0.1148	0.8042	-0.002
Mof_C 	C 	0.8353	0.1255	0.8219	0.005
Mof_C 	C 	0.8085	0.1325	0.8096	-0.026
Mof_C 	C 	0.5888	0.3099	0.0029	0.009
Mof_C 	C 	0.5947	0.3055	0.0296	-0.02
Mof_C 	C 	0.6228	0.3129	0.0383	0.005
Mof_C 	C 	0.6432	0.3213	0.0226	-0.003
Mof_C 	C 	0.6376	0.3266	0.9963	0.003
Mof_C 	C 	0.6097	0.3196	0.9857	-0.009
Mof_Cd	Cd	0.60641	0.1602	0.896	0.253
Mof_Cd	Cd	0.54925	0.18212	0.842	0.269
Mof_Cd	Cd	0.66414	0.14207	0.84326	0.253
Mof_Cd	Cd	0.60245	0.16161	0.79	0.271
Mof_Cd	Cd	0.62675	0.21301	0.83957	0.271
Mof_Cd	Cd	0.52657	0.12532	0.89709	0.273
Mof_Cd	Cd	0.66788	0.13937	0.95043	0.271
Mof_Cd	Cd	0.68306	0.19062	0.78403	0.276
Mof_Cd	Cd	0.72996	0.12238	0.79745	0.278
Mof_Cd	Cd	0.54319	0.18222	0.94641	0.276
Mof_Cd	Cd	0.62619	0.2071	0.95529	0.276
Mof_Cd	Cd	0.68458	0.19271	0.90045	0.27
Mof_Cd	Cd	0.73966	0.18492	0.84424	0.276
Mof_Cd	Cd	0.57589	0.23504	0.89603	0.278
Mof_S 	S 	0.64599	0.17894	0.8697	-0.265
Mof_S 	S 	0.58784	0.19655	0.92338	-0.257
Mof_S 	S 	0.56571	0.14419	0.8693	-0.264
Mof_S 	S 	0.58547	0.2002	0.81284	-0.199
Mof_S 	S 	0.70446	0.16057	0.81685	-0.255
Mof_S 	S 	0.61439	0.25177	0.86749	-0.12
Mof_S 	S 	0.70761	0.15897	0.92642	-0.199
Mof_S 	S 	0.55987	0.14086	0.76721	-0.13
Mof_S 	S 	0.64297	0.17094	0.75834	-0.121
Mof_S 	S 	0.67157	0.22646	0.81476	-0.134
Mof_S 	S 	0.50228	0.16467	0.82331	-0.121
Mof_S 	S 	0.53232	0.21362	0.87614	-0.131
Mof_Cd	Cd	0.76865	0.18955	0.77404	0.284
Mof_Cd	Cd	0.56125	0.25789	0.96802	0.286
Mof_S 	S 	0.72236	0.20763	0.75537	-0.119
Mof_S 	S 	0.52641	0.22024	0.97369	-0.118
Mof_S 	S 	0.65998	0.22937	0.92458	-0.127
Mof_S 	S 	0.50359	0.16405	0.91949	-0.119
Mof_S 	S 	0.49224	0.10729	0.86368	-0.131
Mof_S 	S 	0.77042	0.13993	0.77151	-0.117
Mof_S 	S 	0.61126	0.24521	0.98175	-0.122
Mof_S 	S 	0.72211	0.21764	0.875	-0.121
Mof_S 	S 	0.55727	0.27229	0.92238	-0.113
Mof_S 	S 	0.6431	0.1695	0.98162	-0.119
Mof_S 	S 	0.7779	0.20679	0.81713	-0.12
Mof_S 	S 	0.5663	0.14989	0.97629	-0.126
Mof_S 	S 	0.55512	0.30085	0.99018	-0.109
Mof_C 	C 	0.6864	0.2516	0.9438	0.012
Mof_C 	C 	0.7049	0.2741	0.9791	0.002
Mof_C 	C 	0.6837	0.2589	0.9684	-0.01
Mof_C 	C 	0.7015	0.2333	0.9566	-0.019
Mof_C 	C 	0.4949	0.7296	0.459	0.01
Mof_C 	C 	0.4699	0.7333	0.4733	-0.009
Mof_C 	C 	0.4431	0.7387	0.4625	0.002
Mof_C 	C 	0.4415	0.7427	0.4369	-0.004
Mof_C 	C 	0.4651	0.7401	0.422	0.008
Mof_C 	C 	0.4912	0.7323	0.433	-0.028
Mof_C 	C 	0.7684	0.7404	0.3156	0.011
Mof_C 	C 	0.7673	0.7542	0.2932	-0.028
Mof_C 	C 	0.7613	0.7821	0.2931	0.005
Mof_C 	C 	0.7575	0.7955	0.3133	-0.004
Mof_C 	C 	0.7592	0.7806	0.3348	0.005
Mof_C 	C 	0.7654	0.7542	0.3359	-0.014
Mof_C 	C 	0.6617	0.7544	0.2992	0.017
Mof_C 	C 	0.6352	0.7647	0.2967	-0.022
Mof_C 	C 	0.6261	0.7896	0.2835	0.005
Mof_C 	C 	0.6481	0.8002	0.2711	-0.004
Mof_C 	C 	0.6773	0.7938	0.2746	0.003
Mof_C 	C 	0.6839	0.7728	0.2895	-0.012
Mof_C 	C 	0.4789	0.6529	0.4418	0.012
Mof_C 	C 	0.456	0.6702	0.4475	-0.008
Mof_C 	C 	0.4353	0.6613	0.4648	0.002
Mof_C 	C 	0.4364	0.635	0.4765	-0.003
Mof_C 	C 	0.46	0.6191	0.471	0.005
Mof_C 	C 	0.4813	0.6283	0.4526	-0.025
Mof_C 	C 	0.5067	0.7354	0.3626	0.018
Mof_C 	C 	0.5097	0.76	0.3685	-0.02
Mof_C 	C 	0.4867	0.778	0.3582	0.004
Mof_C 	C 	0.4648	0.7668	0.3415	-0.003
Mof_C 	C 	0.4597	0.7393	0.3411	0.003
Mof_C 	C 	0.4816	0.7236	0.356	-0.012
Mof_C 	C 	0.4903	0.6866	0.3013	0.016
Mof_C 	C 	0.5056	0.7053	0.2916	-0.029
Mof_C 	C 	0.4944	0.7241	0.2763	0.007
Mof_C 	C 	0.465	0.7221	0.2671	-0.005
Mof_C 	C 	0.4464	0.7035	0.2777	0.003
Mof_C 	C 	0.4603	0.6845	0.2959	-0.009
Mof_C 	C 	0.5446	0.6654	0.247	0.016
Mof_C 	C 	0.5584	0.6879	0.2416	-0.022
Mof_C 	C 	0.5466	0.7064	0.2264	0.007
Mof_C 	C 	0.5196	0.7013	0.2146	-0.006
Mof_C 	C 	0.5075	0.6781	0.2193	0.008
Mof_C 	C 	0.5169	0.664	0.237	-0.019
Mof_C 	C 	0.5941	0.774	0.3484	0.011
Mof_C 	C 	0.5725	0.7658	0.333	-0.028
Mof_C 	C 	0.5556	0.7836	0.3165	0.004
Mof_C 	C 	0.5637	0.812	0.3189	-0.003
Mof_C 	C 	0.5894	0.8186	0.3358	0.002
Mof_C 	C 	0.6027	0.7994	0.3525	-0.006
Mof_C 	C 	0.5847	0.7973	0.4182	0.01
Mof_C 	C 	0.572	0.8217	0.4117	-0.006
Mof_C 	C 	0.594	0.8391	0.4066	0.002
Mof_C 	C 	0.6219	0.8362	0.4139	-0.004
Mof_C 	C 	0.6328	0.8136	0.418	0.006
Mof_C 	C 	0.6126	0.7909	0.4213	-0.027
Mof_C 	C 	0.53664	0.63717	0.49656	0.011
Mof_C 	C 	0.5303	0.61084	0.4965	-0.021
Mof_C 	C 	0.5081	0.60133	0.51142	0.006
Mof_C 	C 	0.4923	0.6182	0.52641	-0.004
Mof_C 	C 	0.4987	0.6445	0.52647	0.004
Mof_C 	C 	0.52082	0.654	0.51155	-0.013
Mof_C 	C 	0.6085	0.73469	0.51	0.022
Mof_C 	C 	0.5913	0.71322	0.5149	-0.036
Mof_C 	C 	0.5872	0.70491	0.53937	0.009
Mof_C 	C 	0.6003	0.7181	0.559	-0.006
Mof_C 	C 	0.6175	0.7395	0.5542	0.004
Mof_C 	C 	0.6217	0.7478	0.5297	-0.011
Mof_C 	C 	0.675	0.68861	0.4961	0.001
Mof_C 	C 	0.6723	0.69885	0.5201	-0.005
Mof_C 	C 	0.696	0.71032	0.5316	0.002
Mof_C 	C 	0.7223	0.71156	0.5192	-0.003
Mof_C 	C 	0.725	0.70133	0.4953	0.006
Mof_C 	C 	0.7013	0.68985	0.4837	-0.024
Mof_C 	C 	0.4561	0.6018	0.3783	0.013
Mof_C 	C 	0.4586	0.6231	0.3941	-0.019
Mof_C 	C 	0.4358	0.6298	0.4097	0.005
Mof_C 	C 	0.4107	0.6151	0.4097	-0.004
Mof_C 	C 	0.4082	0.5938	0.3939	0.004
Mof_C 	C 	0.431	0.5871	0.3783	-0.014
Mof_C 	C 	0.6337	0.6983	0.2396	0.012
Mof_C 	C 	0.6244	0.7207	0.2517	-0.029
Mof_C 	C 	0.615	0.7428	0.2346	0.005
Mof_C 	C 	0.6171	0.7415	0.2092	-0.004
Mof_C 	C 	0.6261	0.719	0.1995	0.003
Mof_C 	C 	0.637	0.6974	0.2146	-0.008
Mof_C 	C 	0.7235	0.6894	0.2276	0.011
Mof_C 	C 	0.7357	0.701	0.2072	-0.017
Mof_C 	C 	0.7353	0.6877	0.1828	0.003
Mof_C 	C 	0.7243	0.6614	0.181	-0.003
Mof_C 	C 	0.7153	0.6483	0.2048	0.007
Mof_C 	C 	0.7137	0.6635	0.2261	-0.029
Mof_C 	C 	0.7502	0.721	0.3971	0.011
Mof_C 	C 	0.759	0.7462	0.4023	-0.007
Mof_C 	C 	0.7815	0.7506	0.419	0.003
Mof_C 	C 	0.7952	0.7298	0.4304	-0.004
Mof_C 	C 	0.7864	0.7046	0.4252	0.007
Mof_C 	C 	0.764	0.7002	0.4085	-0.03
Mof_C 	C 	0.8033	0.6303	0.2835	0.014
Mof_C 	C 	0.8255	0.6209	0.267	-0.007
Mof_C 	C 	0.8542	0.6145	0.276	0.002
Mof_C 	C 	0.8589	0.6148	0.3042	-0.002
Mof_C 	C 	0.8353	0.6255	0.3219	0.005
Mof_C 	C 	0.8085	0.6325	0.3096	-0.026
Mof_C 	C 	0.5888	0.8099	0.5029	0.009
Mof_C 	C 	0.5947	0.8055	0.5296	-0.02
Mof_C 	C 	0.6228	0.8129	0.5383	0.005
Mof_C 	C 	0.6432	0.8213	0.5226	-0.003
Mof_C 	C 	0.6376	0.8266	0.4963	0.003
Mof_C 	C 	0.6097	0.8196	0.4857	-0.009
Mof_Cd	Cd	0.60641	0.6602	0.396	0.253
Mof_Cd	Cd	0.54925	0.68212	0.342	0.269
Mof_Cd	Cd	0.66414	0.64207	0.34326	0.253
Mof_Cd	Cd	0.60245	0.66161	0.29	0.271
Mof_Cd	Cd	0.62675	0.71301	0.33957	0.271
Mof_Cd	Cd	0.52657	0.62532	0.39709	0.273
Mof_Cd	Cd	0.66788	0.63937	0.45043	0.271
Mof_Cd	Cd	0.68306	0.69062	0.28403	0.276
Mof_Cd	Cd	0.72996	0.62238	0.29745	0.278
Mof_Cd	Cd	0.54319	0.68222	0.44641	0.276
Mof_Cd	Cd	0.62619	0.7071	0.45529	0.276
Mof_Cd	Cd	0.68458	0.69271	0.40045	0.27
Mof_Cd	Cd	0.73966	0.68492	0.34424	0.276
Mof_Cd	Cd	0.57589	0.73504	0.39603	0.278
Mof_S 	S 	0.64599	0.67894	0.3697	-0.265
Mof_S 	S 	0.58784	0.69655	0.42338	-0.257
Mof_S 	S 	0.56571	0.64419	0.3693	-0.264
Mof_S 	S 	0.58547	0.7002	0.31284	-0.199
Mof_S 	S 	0.70446	0.66057	0.31685	-0.255
Mof_S 	S 	0.61439	0.75177	0.36749	-0.12
Mof_S 	S 	0.70761	0.65897	0.42642	-0.199
Mof_S 	S 	0.55987	0.64086	0.26721	-0.13
Mof_S 	S 	0.64297	0.67094	0.25834	-0.121
Mof_S 	S 	0.67157	0.72646	0.31476	-0.134
Mof_S 	S 	0.50228	0.66467	0.32331	-0.121
Mof_S 	S 	0.53232	0.71362	0.37614	-0.131
Mof_Cd	Cd	0.76865	0.68955	0.27404	0.284
Mof_Cd	Cd	0.56125	0.75789	0.46802	0.286
Mof_S 	S 	0.72236	0.70763	0.25537	-0.119
Mof_S 	S 	0.52641	0.72024	0.47369	-0.118
Mof_S 	S 	0.65998	0.72937	0.42458	-0.127
Mof_S 	S 	0.50359	0.66405	0.41949	-0.119
Mof_S 	S 	0.49224	0.60729	0.36368	-0.131
Mof_S 	S 	0.77042	0.63993	0.27151	-0.117
Mof_S 	S 	0.61126	0.74521	0.48175	-0.122
Mof_S 	S 	0.72211	0.71764	0.375	-0.121
Mof_S 	S 	0.55727	0.77229	0.42238	-0.113
Mof_S 	S 	0.6431	0.6695	0.48162	-0.119
Mof_S 	S 	0.7779	0.70679	0.31713	-0.12
Mof_S 	S 	0.5663	0.64989	0.47629	-0.126
Mof_S 	S 	0.55512	0.80085	0.49018	-0.109
Mof_C 	C 	0.6864	0.7516	0.4438	0.012
Mof_C 	C 	0.7049	0.7741	0.4791	0.002
Mof_C 	C 	0.6837	0.7589	0.4684	-0.01
Mof_C 	C 	0.7015	0.7333	0.4566	-0.019
Mof_C 	C 	0.9949	0.2296	0.459	0.01
Mof_C 	C 	0.9699	0.2333	0.4733	-0.009
Mof_C 	C 	0.9431	0.2387	0.4625	0.002
Mof_C 	C 	0.9415	0.2427	0.4369	-0.004
Mof_C 	C 	0.9651	0.2401	0.422	0.008
Mof_C 	C 	0.9912	0.2323	0.433	-0.028
Mof_C 	C 	0.2684	0.2404	0.3156	0.011
Mof_C 	C 	0.2673	0.2542	0.2932	-0.028
Mof_C 	C 	0.2613	0.2821	0.2931	0.005
Mof_C 	C 	0.2575	0.2955	0.3133	-0.004
Mof_C 	C 	0.2592	0.2806	0.3348	0.005
Mof_C 	C 	0.2654	0.2542	0.3359	-0.014
Mof_C 	C 	0.1617	0.2544	0.2992	0.017
Mof_C 	C 	0.1352	0.2647	0.2967	-0.022
Mof_C 	C 	0.1261	0.2896	0.2835	0.005
Mof_C 	C 	0.1481	0.3002	0.2711	-0.004
Mof_C 	C 	0.1773	0.2938	0.2746	0.003
Mof_C 	C 	0.1839	0.2728	0.2895	-0.012
Mof_C 	C 	0.9789	0.1529	0.4418	0.012
Mof_C 	C 	0.956	0.1702	0.4475	-0.008
Mof_C 	C 	0.9353	0.1613	0.4648	0.002
Mof_C 	C 	0.9364	0.135	0.4765	-0.003
Mof_C 	C 	0.96	0.1191	0.471	0.005
Mof_C 	C 	0.9813	0.1283	0.4526	-0.025
Mof_C 	C 	0.0067	0.2354	0.3626	0.018
Mof_C 	C 	0.0097	0.26	0.3685	-0.02
Mof_C 	C 	0.9867	0.278	0.3582	0.004
Mof_C 	C 	0.9648	0.2668	0.3415	-0.003
Mof_C 	C 	0.9597	0.2393	0.3411	0.003
Mof_C 	C 	0.9816	0.2236	0.356	-0.012
Mof_C 	C 	0.9903	0.1866	0.3013	0.016
Mof_C 	C 	0.0056	0.2053	0.2916	-0.029
Mof_C 	C 	0.9944	0.2241	0.2763	0.007
Mof_C 	C 	0.965	0.2221	0.2671	-0.005
Mof_C 	C 	0.9464	0.2035	0.2777	0.003
Mof_C 	C 	0.9603	0.1845	0.2959	-0.009
Mof_C 	C 	0.0446	0.1654	0.247	0.016
Mof_C 	C 	0.0584	0.1879	0.2416	-0.022
Mof_C 	C 	0.0466	0.2064	0.2264	0.007
Mof_C 	C 	0.0196	0.2013	0.2146	-0.006
Mof_C 	C 	0.0075	0.1781	0.2193	0.008
Mof_C 	C 	0.0169	0.164	0.237	-0.019
Mof_C 	C 	0.0941	0.274	0.3484	0.011
Mof_C 	C 	0.0725	0.2658	0.333	-0.028
Mof_C 	C 	0.0556	0.2836	0.3165	0.004
Mof_C 	C 	0.0637	0.312	0.3189	-0.003
Mof_C 	C 	0.0894	0.3186	0.3358	0.002
Mof_C 	C 	0.1027	0.2994	0.3525	-0.006
Mof_C 	C 	0.0847	0.2973	0.4182	0.01
Mof_C 	C 	0.072	0.3217	0.4117	-0.006
Mof_C 	C 	0.094	0.3391	0.4066	0.002
Mof_C 	C 	0.1219	0.3362	0.4139	-0.004
Mof_C 	C 	0.1328	0.3136	0.418	0.006
Mof_C 	C 	0.1126	0.2909	0.4213	-0.027
Mof_C 	C 	0.03664	0.13717	0.49656	0.011
Mof_C 	C 	0.0303	0.11084	0.4965	-0.021
Mof_C 	C 	0.0081	0.10133	0.51142	0.006
Mof_C 	C 	0.9923	0.1182	0.52641	-0.004
Mof_C 	C 	0.9987	0.1445	0.52647	0.004
Mof_C 	C 	0.02082	0.154	0.51155	-0.013
Mof_C 	C 	0.1085	0.23469	0.51	0.022
Mof_C 	C 	0.0913	0.21322	0.5149	-0.036
Mof_C 	C 	0.0872	0.20491	0.53937	0.009
Mof_C 	C 	0.1003	0.2181	0.559	-0.006
Mof_C 	C 	0.1175	0.2395	0.5542	0.004
Mof_C 	C 	0.1217	0.2478	0.5297	-0.011
Mof_C 	C 	0.175	0.18861	0.4961	0.001
Mof_C 	C 	0.1723	0.19885	0.5201	-0.005
Mof_C 	C 	0.196	0.21032	0.5316	0.002
Mof_C 	C 	0.2223	0.21156	0.5192	-0.003
Mof_C 	C 	0.225	0.20133	0.4953	0.006
Mof_C 	C 	0.2013	0.18985	0.4837	-0.024
Mof_C 	C 	0.9561	0.1018	0.3783	0.013
Mof_C 	C 	0.9586	0.1231	0.3941	-0.019
Mof_C 	C 	0.9358	0.1298	0.4097	0.005
Mof_C 	C 	0.9107	0.1151	0.4097	-0.004
Mof_C 	C 	0.9082	0.0938	0.3939	0.004
Mof_C 	C 	0.931	0.0871	0.3783	-0.014
Mof_C 	C 	0.1337	0.1983	0.2396	0.012
Mof_C 	C 	0.1244	0.2207	0.2517	-0.029
Mof_C 	C 	0.115	0.2428	0.2346	0.005
Mof_C 	C 	0.1171	0.2415	0.2092	-0.004
Mof_C 	C 	0.1261	0.219	0.1995	0.003
Mof_C 	C 	0.137	0.1974	0.2146	-0.008
Mof_C 	C 	0.2235	0.1894	0.2276	0.011
Mof_C 	C 	0.2357	0.201	0.2072	-0.017
Mof_C 	C 	0.2353	0.1877	0.1828	0.003
Mof_C 	C 	0.2243	0.1614	0.181	-0.003
Mof_C 	C 	0.2153	0.1483	0.2048	0.007
Mof_C 	C 	0.2137	0.1635	0.2261	-0.029
Mof_C 	C 	0.2502	0.221	0.3971	0.011
Mof_C 	C 	0.259	0.2462	0.4023	-0.007
Mof_C 	C 	0.2815	0.2506	0.419	0.003
Mof_C 	C 	0.2952	0.2298	0.4304	-0.004
Mof_C 	C 	0.2864	0.2046	0.4252	0.007
Mof_C 	C 	0.264	0.2002	0.4085	-0.03
Mof_C 	C 	0.3033	0.1303	0.2835	0.014
Mof_C 	C 	0.3255	0.1209	0.267	-0.007
Mof_C 	C 	0.3542	0.1145	0.276	0.002
Mof_C 	C 	0.3589	0.1148	0.3042	-0.002
Mof_C 	C 	0.3353	0.1255	0.3219	0.005
Mof_C 	C 	0.3085	0.1325	0.3096	-0.026
Mof_C 	C 	0.0888	0.3099	0.5029	0.009
Mof_C 	C 	0.0947	0.3055	0.5296	-0.02
Mof_C 	C 	0.1228	0.3129	0.5383	0.005
Mof_C 	C 	0.1432	0.3213	0.5226	-0.003
Mof_C 	C 	0.1376	0.3266	0.4963	0.003
Mof_C 	C 	0.1097	0.3196	0.4857	-0.009
Mof_Cd	Cd	0.10641	0.1602	0.396	0.253
Mof_Cd	Cd	0.04925	0.18212	0.342	0.269
Mof_Cd	Cd	0.16414	0.14207	0.34326	0.253
Mof_Cd	Cd	0.10245	0.16161	0.29	0.271
Mof_Cd	Cd	0.12675	0.21301	0.33957	0.271
Mof_Cd	Cd	0.02657	0.12532	0.39709	0.273
Mof_Cd	Cd	0.16788	0.13937	0.45043	0.271
Mof_Cd	Cd	0.18306	0.19062	0.28403	0.276
Mof_Cd	Cd	0.22996	0.12238	0.29745	0.278
Mof_Cd	Cd	0.04319	0.18222	0.44641	0.276
Mof_Cd	Cd	0.12619	0.2071	0.45529	0.276
Mof_Cd	Cd	0.18458	0.19271	0.40045	0.27
Mof_Cd	Cd	0.23966	0.18492	0.34424	0.276
Mof_Cd	Cd	0.07589	0.23504	0.39603	0.278
Mof_S 	S 	0.14599	0.17894	0.3697	-0.265
Mof_S 	S 	0.08784	0.19655	0.42338	-0.257
Mof_S 	S 	0.06571	0.14419	0.3693	-0.264
Mof_S 	S 	0.08547	0.2002	0.31284	-0.199
Mof_S 	S 	0.20446	0.16057	0.31685	-0.255
Mof_S 	S 	0.11439	0.25177	0.36749	-0.12
Mof_S 	S 	0.20761	0.15897	0.42642	-0.199
Mof_S 	S 	0.05987	0.14086	0.26721	-0.13
Mof_S 	S 	0.14297	0.17094	0.25834	-0.121
Mof_S 	S 	0.17157	0.22646	0.31476	-0.134
Mof_S 	S 	0.00228	0.16467	0.32331	-0.121
Mof_S 	S 	0.03232	0.21362	0.37614	-0.131
Mof_Cd	Cd	0.26865	0.18955	0.27404	0.284
Mof_Cd	Cd	0.06125	0.25789	0.46802	0.286
Mof_S 	S 	0.22236	0.20763	0.25537	-0.119
Mof_S 	S 	0.02641	0.22024	0.47369	-0.118
Mof_S 	S 	0.15998	0.22937	0.42458	-0.127
Mof_S 	S 	0.00359	0.16405	0.41949	-0.119
Mof_S 	S 	0.99224	0.10729	0.36368	-0.131
Mof_S 	S 	0.27042	0.13993	0.27151	-0.117
Mof_S 	S 	0.11126	0.24521	0.48175	-0.122
Mof_S 	S 	0.22211	0.21764	0.375	-0.121
Mof_S 	S 	0.05727	0.27229	0.42238	-0.113
Mof_S 	S 	0.1431	0.1695	0.48162	-0.119
Mof_S 	S 	0.2779	0.20679	0.31713	-0.12
Mof_S 	S 	0.0663	0.14989	0.47629	-0.126
Mof_S 	S 	0.05512	0.30085	0.49018	-0.109
Mof_C 	C 	0.1864	0.2516	0.4438	0.012
Mof_C 	C 	0.2049	0.2741	0.4791	0.002
Mof_C 	C 	0.1837	0.2589	0.4684	-0.01
Mof_C 	C 	0.2015	0.2333	0.4566	-0.019
Mof_C 	C 	0.9949	0.7296	0.959	0.01
Mof_C 	C 	0.9699	0.7333	0.9733	-0.009
Mof_C 	C 	0.9431	0.7387	0.9625	0.002
Mof_C 	C 	0.9415	0.7427	0.9369	-0.004
Mof_C 	C 	0.9651	0.7401	0.922	0.008
Mof_C 	C 	0.9912	0.7323	0.933	-0.028
Mof_C 	C 	0.2684	0.7404	0.8156	0.011
Mof_C 	C 	0.2673	0.7542	0.7932	-0.028
Mof_C 	C 	0.2613	0.7821	0.7931	0.005
Mof_C 	C 	0.2575	0.7955	0.8133	-0.004
Mof_C 	C 	0.2592	0.7806	0.8348	0.005
Mof_C 	C 	0.2654	0.7542	0.8359	-0.014
Mof_C 	C 	0.1617	0.7544	0.7992	0.017
Mof_C 	C 	0.1352	0.7647	0.7967	-0.022
Mof_C 	C 	0.1261	0.7896	0.7835	0.005
Mof_C 	C 	0.1481	0.8002	0.7711	-0.004
Mof_C 	C 	0.1773	0.7938	0.7746	0.003
Mof_C 	C 	0.1839	0.7728	0.7895	-0.012
Mof_C 	C 	0.9789	0.6529	0.9418	0.012
Mof_C 	C 	0.956	0.6702	0.9475	-0.008
Mof_C 	C 	0.9353	0.6613	0.9648	0.002
Mof_C 	C 	0.9364	0.635	0.9765	-0.003
Mof_C 	C 	0.96	0.6191	0.971	0.005
Mof_C 	C 	0.9813	0.6283	0.9526	-0.025
Mof_C 	C 	0.0067	0.7354	0.8626	0.018
Mof_C 	C 	0.0097	0.76	0.8685	-0.02
Mof_C 	C 	0.9867	0.778	0.8582	0.004
Mof_C 	C 	0.9648	0.7668	0.8415	-0.003
Mof_C 	C 	0.9597	0.7393	0.8411	0.003
Mof_C 	C 	0.9816	0.7236	0.856	-0.012
Mof_C 	C 	0.9903	0.6866	0.8013	0.016
Mof_C 	C 	0.0056	0.7053	0.7916	-0.029
Mof_C 	C 	0.9944	0.7241	0.7763	0.007
Mof_C 	C 	0.965	0.7221	0.7671	-0.005
Mof_C 	C 	0.9464	0.7035	0.7777	0.003
Mof_C 	C 	0.9603	0.6845	0.7959	-0.009
Mof_C 	C 	0.0446	0.6654	0.747	0.016
Mof_C 	C 	0.0584	0.6879	0.7416	-0.022
Mof_C 	C 	0.0466	0.7064	0.7264	0.007
Mof_C 	C 	0.0196	0.7013	0.7146	-0.006
Mof_C 	C 	0.0075	0.6781	0.7193	0.008
Mof_C 	C 	0.0169	0.664	0.737	-0.019
Mof_C 	C 	0.0941	0.774	0.8484	0.011
Mof_C 	C 	0.0725	0.7658	0.833	-0.028
Mof_C 	C 	0.0556	0.7836	0.8165	0.004
Mof_C 	C 	0.0637	0.812	0.8189	-0.003
Mof_C 	C 	0.0894	0.8186	0.8358	0.002
Mof_C 	C 	0.1027	0.7994	0.8525	-0.006
Mof_C 	C 	0.0847	0.7973	0.9182	0.01
Mof_C 	C 	0.072	0.8217	0.9117	-0.006
Mof_C 	C 	0.094	0.8391	0.9066	0.002
Mof_C 	C 	0.1219	0.8362	0.9139	-0.004
Mof_C 	C 	0.1328	0.8136	0.918	0.006
Mof_C 	C 	0.1126	0.7909	0.9213	-0.027
Mof_C 	C 	0.03664	0.63717	0.99656	0.011
Mof_C 	C 	0.0303	0.61084	0.9965	-0.021
Mof_C 	C 	0.0081	0.60133	0.01142	0.006
Mof_C 	C 	0.9923	0.6182	0.02641	-0.004
Mof_C 	C 	0.9987	0.6445	0.02647	0.004
Mof_C 	C 	0.02082	0.654	0.01155	-0.013
Mof_C 	C 	0.1085	0.73469	0.01	0.022
Mof_C 	C 	0.0913	0.71322	0.0149	-0.036
Mof_C 	C 	0.0872	0.70491	0.03937	0.009
Mof_C 	C 	0.1003	0.7181	0.059	-0.006
Mof_C 	C 	0.1175	0.7395	0.0542	0.004
Mof_C 	C 	0.1217	0.7478	0.0297	-0.011
Mof_C 	C 	0.175	0.68861	0.9961	0.001
Mof_C 	C 	0.1723	0.69885	0.0201	-0.005
Mof_C 	C 	0.196	0.71032	0.0316	0.002
Mof_C 	C 	0.2223	0.71156	0.0192	-0.003
Mof_C 	C 	0.225	0.70133	0.9953	0.006
Mof_C 	C 	0.2013	0.68985	0.9837	-0.024
Mof_C 	C 	0.9561	0.6018	0.8783	0.013
Mof_C 	C 	0.9586	0.6231	0.8941	-0.019
Mof_C 	C 	0.9358	0.6298	0.9097	0.005
Mof_C 	C 	0.9107	0.6151	0.9097	-0.004
Mof_C 	C 	0.9082	0.5938	0.8939	0.004
Mof_C 	C 	0.931	0.5871	0.8783	-0.014
Mof_C 	C 	0.1337	0.6983	0.7396	0.012
Mof_C 	C 	0.1244	0.7207	0.7517	-0.029
Mof_C 	C 	0.115	0.7428	0.7346	0.005
Mof_C 	C 	0.1171	0.7415	0.7092	-0.004
Mof_C 	C 	0.1261	0.719	0.6995	0.003
Mof_C 	C 	0.137	0.6974	0.7146	-0.008
Mof_C 	C 	0.2235	0.6894	0.7276	0.011
Mof_C 	C 	0.2357	0.701	0.7072	-0.017
Mof_C 	C 	0.2353	0.6877	0.6828	0.003
Mof_C 	C 	0.2243	0.6614	0.681	-0.003
Mof_C 	C 	0.2153	0.6483	0.7048	0.007
Mof_C 	C 	0.2137	0.6635	0.7261	-0.029
Mof_C 	C 	0.2502	0.721	0.8971	0.011
Mof_C 	C 	0.259	0.7462	0.9023	-0.007
Mof_C 	C 	0.2815	0.7506	0.919	0.003
Mof_C 	C 	0.2952	0.7298	0.9304	-0.004
Mof_C 	C 	0.2864	0.7046	0.9252	0.007
Mof_C 	C 	0.264	0.7002	0.9085	-0.03
Mof_C 	C 	0.3033	0.6303	0.7835	0.014
Mof_C 	C 	0.3255	0.6209	0.767	-0.007
Mof_C 	C 	0.3542	0.6145	0.776	0.002
Mof_C 	C 	0.3589	0.6148	0.8042	-0.002
Mof_C 	C 	0.3353	0.6255	0.8219	0.005
Mof_C 	C 	0.3085	0.6325	0.8096	-0.026
Mof_C 	C 	0.0888	0.8099	0.0029	0.009
Mof_C 	C 	0.0947	0.8055	0.0296	-0.02
Mof_C 	C 	0.1228	0.8129	0.0383	0.005
Mof_C 	C 	0.1432	0.8213	0.0226	-0.003
Mof_C 	C 	0.1376	0.8266	0.9963	0.003
Mof_C 	C 	0.1097	0.8196	0.9857	-0.009
Mof_Cd	Cd	0.10641	0.6602	0.896	0.253
Mof_Cd	Cd	0.04925	0.68212	0.842	0.269
Mof_Cd	Cd	0.16414	0.64207	0.84326	0.253
Mof_Cd	Cd	0.10245	0.66161	0.79	0.271
Mof_Cd	Cd	0.12675	0.71301	0.83957	0.271
Mof_Cd	Cd	0.02657	0.62532	0.89709	0.273
Mof_Cd	Cd	0.16788	0.63937	0.95043	0.271
Mof_Cd	Cd	0.18306	0.69062	0.78403	0.276
Mof_Cd	Cd	0.22996	0.62238	0.79745	0.278
Mof_Cd	Cd	0.04319	0.68222	0.94641	0.276
Mof_Cd	Cd	0.12619	0.7071	0.95529	0.276
Mof_Cd	Cd	0.18458	0.69271	0.90045	0.27
Mof_Cd	Cd	0.23966	0.68492	0.84424	0.276
Mof_Cd	Cd	0.07589	0.73504	0.89603	0.278
Mof_S 	S 	0.14599	0.67894	0.8697	-0.265
Mof_S 	S 	0.08784	0.69655	0.92338	-0.257
Mof_S 	S 	0.06571	0.64419	0.8693	-0.264
Mof_S 	S 	0.08547	0.7002	0.81284	-0.199
Mof_S 	S 	0.20446	0.66057	0.81685	-0.255
Mof_S 	S 	0.11439	0.75177	0.86749	-0.12
Mof_S 	S 	0.20761	0.65897	0.92642	-0.199
Mof_S 	S 	0.05987	0.64086	0.76721	-0.13
Mof_S 	S 	0.14297	0.67094	0.75834	-0.121
Mof_S 	S 	0.17157	0.72646	0.81476	-0.134
Mof_S 	S 	0.00228	0.66467	0.82331	-0.121
Mof_S 	S 	0.03232	0.71362	0.87614	-0.131
Mof_Cd	Cd	0.26865	0.68955	0.77404	0.284
Mof_Cd	Cd	0.06125	0.75789	0.96802	0.286
Mof_S 	S 	0.22236	0.70763	0.75537	-0.119
Mof_S 	S 	0.02641	0.72024	0.97369	-0.118
Mof_S 	S 	0.15998	0.72937	0.92458	-0.127
Mof_S 	S 	0.00359	0.66405	0.91949	-0.119
Mof_S 	S 	0.99224	0.60729	0.86368	-0.131
Mof_S 	S 	0.27042	0.63993	0.77151	-0.117
Mof_S 	S 	0.11126	0.74521	0.98175	-0.122
Mof_S 	S 	0.22211	0.71764	0.875	-0.121
Mof_S 	S 	0.05727	0.77229	0.92238	-0.113
Mof_S 	S 	0.1431	0.6695	0.98162	-0.119
Mof_S 	S 	0.2779	0.70679	0.81713	-0.12
Mof_S 	S 	0.0663	0.64989	0.97629	-0.126
Mof_S 	S 	0.05512	0.80085	0.99018	-0.109
Mof_C 	C 	0.1864	0.7516	0.9438	0.012
Mof_C 	C 	0.2049	0.7741	0.9791	0.002
Mof_C 	C 	0.1837	0.7589	0.9684	-0.01
Mof_C 	C 	0.2015	0.7333	0.9566	-0.019
Mof_C 	C 	0.5051	0.4796	0.209	0.01
Mof_C 	C 	0.5301	0.4833	0.2233	-0.009
Mof_C 	C 	0.5569	0.4887	0.2125	0.002
Mof_C 	C 	0.5585	0.4927	0.1869	-0.004
Mof_C 	C 	0.5349	0.4901	0.172	0.008
Mof_C 	C 	0.5088	0.4823	0.183	-0.028
Mof_C 	C 	0.2316	0.4904	0.0656	0.011
Mof_C 	C 	0.2327	0.5042	0.0432	-0.028
Mof_C 	C 	0.2387	0.5321	0.0431	0.005
Mof_C 	C 	0.2425	0.5455	0.0633	-0.004
Mof_C 	C 	0.2408	0.5306	0.0848	0.005
Mof_C 	C 	0.2346	0.5042	0.0859	-0.014
Mof_C 	C 	0.3383	0.5044	0.0492	0.017
Mof_C 	C 	0.3648	0.5147	0.0467	-0.022
Mof_C 	C 	0.3739	0.5396	0.0335	0.005
Mof_C 	C 	0.3519	0.5502	0.0211	-0.004
Mof_C 	C 	0.3227	0.5438	0.0246	0.003
Mof_C 	C 	0.3161	0.5228	0.0395	-0.012
Mof_C 	C 	0.5211	0.4029	0.1918	0.012
Mof_C 	C 	0.544	0.4202	0.1975	-0.008
Mof_C 	C 	0.5647	0.4113	0.2148	0.002
Mof_C 	C 	0.5636	0.385	0.2265	-0.003
Mof_C 	C 	0.54	0.3691	0.221	0.005
Mof_C 	C 	0.5187	0.3783	0.2026	-0.025
Mof_C 	C 	0.4933	0.4854	0.1126	0.018
Mof_C 	C 	0.4903	0.51	0.1185	-0.02
Mof_C 	C 	0.5133	0.528	0.1082	0.004
Mof_C 	C 	0.5352	0.5168	0.0915	-0.003
Mof_C 	C 	0.5403	0.4893	0.0911	0.003
Mof_C 	C 	0.5184	0.4736	0.106	-0.012
Mof_C 	C 	0.5097	0.4366	0.0513	0.016
Mof_C 	C 	0.4944	0.4553	0.0416	-0.029
Mof_C 	C 	0.5056	0.4741	0.0263	0.007
Mof_C 	C 	0.535	0.4721	0.0171	-0.005
Mof_C 	C 	0.5536	0.4535	0.0277	0.003
Mof_C 	C 	0.5397	0.4345	0.0459	-0.009
Mof_C 	C 	0.4554	0.4154	0.997	0.016
Mof_C 	C 	0.4416	0.4379	0.9916	-0.022
Mof_C 	C 	0.4534	0.4564	0.9764	0.007
Mof_C 	C 	0.4804	0.4513	0.9646	-0.006
Mof_C 	C 	0.4925	0.4281	0.9693	0.008
Mof_C 	C 	0.4831	0.414	0.987	-0.019
Mof_C 	C 	0.4059	0.524	0.0984	0.011
Mof_C 	C 	0.4275	0.5158	0.083	-0.028
Mof_C 	C 	0.4444	0.5336	0.0665	0.004
Mof_C 	C 	0.4363	0.562	0.0689	-0.003
Mof_C 	C 	0.4106	0.5686	0.0858	0.002
Mof_C 	C 	0.3973	0.5494	0.1025	-0.006
Mof_C 	C 	0.4153	0.5473	0.1682	0.01
Mof_C 	C 	0.428	0.5717	0.1617	-0.006
Mof_C 	C 	0.406	0.5891	0.1566	0.002
Mof_C 	C 	0.3781	0.5862	0.1639	-0.004
Mof_C 	C 	0.3672	0.5636	0.168	0.006
Mof_C 	C 	0.3874	0.5409	0.1713	-0.027
Mof_C 	C 	0.46336	0.38717	0.24656	0.011
Mof_C 	C 	0.4697	0.36084	0.2465	-0.021
Mof_C 	C 	0.4919	0.35133	0.26142	0.006
Mof_C 	C 	0.5077	0.3682	0.27641	-0.004
Mof_C 	C 	0.5013	0.3945	0.27647	0.004
Mof_C 	C 	0.47918	0.404	0.26155	-0.013
Mof_C 	C 	0.3915	0.48469	0.26	0.022
Mof_C 	C 	0.4087	0.46322	0.2649	-0.036
Mof_C 	C 	0.4128	0.45491	0.28937	0.009
Mof_C 	C 	0.3997	0.4681	0.309	-0.006
Mof_C 	C 	0.3825	0.4895	0.3042	0.004
Mof_C 	C 	0.3783	0.4978	0.2797	-0.011
Mof_C 	C 	0.325	0.43861	0.2461	0.001
Mof_C 	C 	0.3277	0.44885	0.2701	-0.005
Mof_C 	C 	0.304	0.46032	0.2816	0.002
Mof_C 	C 	0.2777	0.46156	0.2692	-0.003
Mof_C 	C 	0.275	0.45133	0.2453	0.006
Mof_C 	C 	0.2987	0.43985	0.2337	-0.024
Mof_C 	C 	0.5439	0.3518	0.1283	0.013
Mof_C 	C 	0.5414	0.3731	0.1441	-0.019
Mof_C 	C 	0.5642	0.3798	0.1597	0.005
Mof_C 	C 	0.5893	0.3651	0.1597	-0.004
Mof_C 	C 	0.5918	0.3438	0.1439	0.004
Mof_C 	C 	0.569	0.3371	0.1283	-0.014
Mof_C 	C 	0.3663	0.4483	0.9896	0.012
Mof_C 	C 	0.3756	0.4707	0.0017	-0.029
Mof_C 	C 	0.385	0.4928	0.9846	0.005
Mof_C 	C 	0.3829	0.4915	0.9592	-0.004
Mof_C 	C 	0.3739	0.469	0.9495	0.003
Mof_C 	C 	0.363	0.4474	0.9646	-0.008
Mof_C 	C 	0.2765	0.4394	0.9776	0.011
Mof_C 	C 	0.2643	0.451	0.9572	-0.017
Mof_C 	C 	0.2647	0.4377	0.9328	0.003
Mof_C 	C 	0.2757	0.4114	0.931	-0.003
Mof_C 	C 	0.2847	0.3983	0.9548	0.007
Mof_C 	C 	0.2863	0.4135	0.9761	-0.029
Mof_C 	C 	0.2498	0.471	0.1471	0.011
Mof_C 	C 	0.241	0.4962	0.1523	-0.007
Mof_C 	C 	0.2185	0.5006	0.169	0.003
Mof_C 	C 	0.2048	0.4798	0.1804	-0.004
Mof_C 	C 	0.2136	0.4546	0.1752	0.007
Mof_C 	C 	0.236	0.4502	0.1585	-0.03
Mof_C 	C 	0.1967	0.3803	0.0335	0.014
Mof_C 	C 	0.1745	0.3709	0.017	-0.007
Mof_C 	C 	0.1458	0.3645	0.026	0.002
Mof_C 	C 	0.1411	0.3648	0.0542	-0.002
Mof_C 	C 	0.1647	0.3755	0.0719	0.005
Mof_C 	C 	0.1915	0.3825	0.0596	-0.026
Mof_C 	C 	0.4112	0.5599	0.2529	0.009
Mof_C 	C 	0.4053	0.5555	0.2796	-0.02
Mof_C 	C 	0.3772	0.5629	0.2883	0.005
Mof_C 	C 	0.3568	0.5713	0.2726	-0.003
Mof_C 	C 	0.3624	0.5766	0.2463	0.003
Mof_C 	C 	0.3903	0.5696	0.2357	-0.009
Mof_Cd	Cd	0.39359	0.4102	0.146	0.253
Mof_Cd	Cd	0.45075	0.43212	0.092	0.269
Mof_Cd	Cd	0.33586	0.39207	0.09326	0.253
Mof_Cd	Cd	0.39755	0.41161	0.04	0.271
Mof_Cd	Cd	0.37325	0.46301	0.08957	0.271
Mof_Cd	Cd	0.47343	0.37532	0.14709	0.273
Mof_Cd	Cd	0.33212	0.38937	0.20043	0.271
Mof_Cd	Cd	0.31694	0.44062	0.03403	0.276
Mof_Cd	Cd	0.27004	0.37238	0.04745	0.278
Mof_Cd	Cd	0.45681	0.43222	0.19641	0.276
Mof_Cd	Cd	0.37381	0.4571	0.20529	0.276
Mof_Cd	Cd	0.31542	0.44271	0.15045	0.27
Mof_Cd	Cd	0.26034	0.43492	0.09424	0.276
Mof_Cd	Cd	0.42411	0.48504	0.14603	0.278
Mof_S 	S 	0.35401	0.42894	0.1197	-0.265
Mof_S 	S 	0.41216	0.44655	0.17338	-0.257
Mof_S 	S 	0.43429	0.39419	0.1193	-0.264
Mof_S 	S 	0.41453	0.4502	0.06284	-0.199
Mof_S 	S 	0.29554	0.41057	0.06685	-0.255
Mof_S 	S 	0.38561	0.50177	0.11749	-0.12
Mof_S 	S 	0.29239	0.40897	0.17642	-0.199
Mof_S 	S 	0.44013	0.39086	0.01721	-0.13
Mof_S 	S 	0.35703	0.42094	0.00834	-0.121
Mof_S 	S 	0.32843	0.47646	0.06476	-0.134
Mof_S 	S 	0.49772	0.41467	0.07331	-0.121
Mof_S 	S 	0.46768	0.46362	0.12614	-0.131
Mof_Cd	Cd	0.23135	0.43955	0.02404	0.284
Mof_Cd	Cd	0.43875	0.50789	0.21802	0.286
Mof_S 	S 	0.27764	0.45763	0.00537	-0.119
Mof_S 	S 	0.47359	0.47024	0.22369	-0.118
Mof_S 	S 	0.34002	0.47937	0.17458	-0.127
Mof_S 	S 	0.49641	0.41405	0.16949	-0.119
Mof_S 	S 	0.50776	0.35729	0.11368	-0.131
Mof_S 	S 	0.22958	0.38993	0.02151	-0.117
Mof_S 	S 	0.38874	0.49521	0.23175	-0.122
Mof_S 	S 	0.27789	0.46764	0.125	-0.121
Mof_S 	S 	0.44273	0.52229	0.17238	-0.113
Mof_S 	S 	0.3569	0.4195	0.23162	-0.119
Mof_S 	S 	0.2221	0.45679	0.06713	-0.12
Mof_S 	S 	0.4337	0.39989	0.22629	-0.126
Mof_S 	S 	0.44488	0.55085	0.24018	-0.109
Mof_C 	C 	0.3136	0.5016	0.1938	0.012
Mof_C 	C 	0.2951	0.5241	0.2291	0.002
Mof_C 	C 	0.3163	0.5089	0.2184	-0.01
Mof_C 	C 	0.2985	0.4833	0.2066	-0.019
Mof_C 	C 	0.5051	0.9796	0.709	0.01
Mof_C 	C 	0.5301	0.9833	0.7233	-0.009
Mof_C 	C 	0.5569	0.9887	0.7125	0.002
Mof_C 	C 	0.5585	0.9927	0.6869	-0.004
Mof_C 	C 	0.5349	0.9901	0.672	0.008
Mof_C 	C 	0.5088	0.9823	0.683	-0.028
Mof_C 	C 	0.2316	0.9904	0.5656	0.011
Mof_C 	C 	0.2327	0.0042	0.5432	-0.028
Mof_C 	C 	0.2387	0.0321	0.5431	0.005
Mof_C 	C 	0.2425	0.0455	0.5633	-0.004
Mof_C 	C 	0.2408	0.0306	0.5848	0.005
Mof_C 	C 	0.2346	0.0042	0.5859	-0.014
Mof_C 	C 	0.3383	0.0044	0.5492	0.017
Mof_C 	C 	0.3648	0.0147	0.5467	-0.022
Mof_C 	C 	0.3739	0.0396	0.5335	0.005
Mof_C 	C 	0.3519	0.0502	0.5211	-0.004
Mof_C 	C 	0.3227	0.0438	0.5246	0.003
Mof_C 	C 	0.3161	0.0228	0.5395	-0.012
Mof_C 	C 	0.5211	0.9029	0.6918	0.012
Mof_C 	C 	0.544	0.9202	0.6975	-0.008
Mof_C 	C 	0.5647	0.9113	0.7148	0.002
Mof_C 	C 	0.5636	0.885	0.7265	-0.003
Mof_C 	C 	0.54	0.8691	0.721	0.005
Mof_C 	C 	0.5187	0.8783	0.7026	-0.025
Mof_C 	C 	0.4933	0.9854	0.6126	0.018
Mof_C 	C 	0.4903	0.01	0.6185	-0.02
Mof_C 	C 	0.5133	0.028	0.6082	0.004
Mof_C 	C 	0.5352	0.0168	0.5915	-0.003
Mof_C 	C 	0.5403	0.9893	0.5911	0.003
Mof_C 	C 	0.5184	0.9736	0.606	-0.012
Mof_C 	C 	0.5097	0.9366	0.5513	0.016
Mof_C 	C 	0.4944	0.9553	0.5416	-0.029
Mof_C 	C 	0.5056	0.9741	0.5263	0.007
Mof_C 	C 	0.535	0.9721	0.5171	-0.005
Mof_C 	C 	0.5536	0.9535	0.5277	0.003
Mof_C 	C 	0.5397	0.9345	0.5459	-0.009
Mof_C 	C 	0.4554	0.9154	0.497	0.016
Mof_C 	C 	0.4416	0.9379	0.4916	-0.022
Mof_C 	C 	0.4534	0.9564	0.4764	0.007
Mof_C 	C 	0.4804	0.9513	0.4646	-0.006
Mof_C 	C 	0.4925	0.9281	0.4693	0.008
Mof_C 	C 	0.4831	0.914	0.487	-0.019
Mof_C 	C 	0.4059	0.024	0.5984	0.011
Mof_C 	C 	0.4275	0.0158	0.583	-0.028
Mof_C 	C 	0.4444	0.0336	0.5665	0.004
Mof_C 	C 	0.4363	0.062	0.5689	-0.003
Mof_C 	C 	0.4106	0.0686	0.5858	0.002
Mof_C 	C 	0.3973	0.0494	0.6025	-0.006
Mof_C 	C 	0.4153	0.0473	0.6682	0.01
Mof_C 	C 	0.428	0.0717	0.6617	-0.006
Mof_C 	C 	0.406	0.0891	0.6566	0.002
Mof_C 	C 	0.3781	0.0862	0.6639	-0.004
Mof_C 	C 	0.3672	0.0636	0.668	0.006
Mof_C 	C 	0.3874	0.0409	0.6713	-0.027
Mof_C 	C 	0.46336	0.88717	0.74656	0.011
Mof_C 	C 	0.4697	0.86084	0.7465	-0.021
Mof_C 	C 	0.4919	0.85133	0.76142	0.006
Mof_C 	C 	0.5077	0.8682	0.77641	-0.004
Mof_C 	C 	0.5013	0.8945	0.77647	0.004
Mof_C 	C 	0.47918	0.904	0.76155	-0.013
Mof_C 	C 	0.3915	0.98469	0.76	0.022
Mof_C 	C 	0.4087	0.96322	0.7649	-0.036
Mof_C 	C 	0.4128	0.95491	0.78937	0.009
Mof_C 	C 	0.3997	0.9681	0.809	-0.006
Mof_C 	C 	0.3825	0.9895	0.8042	0.004
Mof_C 	C 	0.3783	0.9978	0.7797	-0.011
Mof_C 	C 	0.325	0.93861	0.7461	0.001
Mof_C 	C 	0.3277	0.94885	0.7701	-0.005
Mof_C 	C 	0.304	0.96032	0.7816	0.002
Mof_C 	C 	0.2777	0.96156	0.7692	-0.003
Mof_C 	C 	0.275	0.95133	0.7453	0.006
Mof_C 	C 	0.2987	0.93985	0.7337	-0.024
Mof_C 	C 	0.5439	0.8518	0.6283	0.013
Mof_C 	C 	0.5414	0.8731	0.6441	-0.019
Mof_C 	C 	0.5642	0.8798	0.6597	0.005
Mof_C 	C 	0.5893	0.8651	0.6597	-0.004
Mof_C 	C 	0.5918	0.8438	0.6439	0.004
Mof_C 	C 	0.569	0.8371	0.6283	-0.014
Mof_C 	C 	0.3663	0.9483	0.4896	0.012
Mof_C 	C 	0.3756	0.9707	0.5017	-0.029
Mof_C 	C 	0.385	0.9928	0.4846	0.005
Mof_C 	C 	0.3829	0.9915	0.4592	-0.004
Mof_C 	C 	0.3739	0.969	0.4495	0.003
Mof_C 	C 	0.363	0.9474	0.4646	-0.008
Mof_C 	C 	0.2765	0.9394	0.4776	0.011
Mof_C 	C 	0.2643	0.951	0.4572	-0.017
Mof_C 	C 	0.2647	0.9377	0.4328	0.003
Mof_C 	C 	0.2757	0.9114	0.431	-0.003
Mof_C 	C 	0.2847	0.8983	0.4548	0.007
Mof_C 	C 	0.2863	0.9135	0.4761	-0.029
Mof_C 	C 	0.2498	0.971	0.6471	0.011
Mof_C 	C 	0.241	0.9962	0.6523	-0.007
Mof_C 	C 	0.2185	0.0006	0.669	0.003
Mof_C 	C 	0.2048	0.9798	0.6804	-0.004
Mof_C 	C 	0.2136	0.9546	0.6752	0.007
Mof_C 	C 	0.236	0.9502	0.6585	-0.03
Mof_C 	C 	0.1967	0.8803	0.5335	0.014
Mof_C 	C 	0.1745	0.8709	0.517	-0.007
Mof_C 	C 	0.1458	0.8645	0.526	0.002
Mof_C 	C 	0.1411	0.8648	0.5542	-0.002
Mof_C 	C 	0.1647	0.8755	0.5719	0.005
Mof_C 	C 	0.1915	0.8825	0.5596	-0.026
Mof_C 	C 	0.4112	0.0599	0.7529	0.009
Mof_C 	C 	0.4053	0.0555	0.7796	-0.02
Mof_C 	C 	0.3772	0.0629	0.7883	0.005
Mof_C 	C 	0.3568	0.0713	0.7726	-0.003
Mof_C 	C 	0.3624	0.0766	0.7463	0.003
Mof_C 	C 	0.3903	0.0696	0.7357	-0.009
Mof_Cd	Cd	0.39359	0.9102	0.646	0.253
Mof_Cd	Cd	0.45075	0.93212	0.592	0.269
Mof_Cd	Cd	0.33586	0.89207	0.59326	0.253
Mof_Cd	Cd	0.39755	0.91161	0.54	0.271
Mof_Cd	Cd	0.37325	0.96301	0.58957	0.271
Mof_Cd	Cd	0.47343	0.87532	0.64709	0.273
Mof_Cd	Cd	0.33212	0.88937	0.70043	0.271
Mof_Cd	Cd	0.31694	0.94062	0.53403	0.276
Mof_Cd	Cd	0.27004	0.87238	0.54745	0.278
Mof_Cd	Cd	0.45681	0.93222	0.69641	0.276
Mof_Cd	Cd	0.37381	0.9571	0.70529	0.276
Mof_Cd	Cd	0.31542	0.94271	0.65045	0.27
Mof_Cd	Cd	0.26034	0.93492	0.59424	0.276
Mof_Cd	Cd	0.42411	0.98504	0.64603	0.278
Mof_S 	S 	0.35401	0.92894	0.6197	-0.265
Mof_S 	S 	0.41216	0.94655	0.67338	-0.257
Mof_S 	S 	0.43429	0.89419	0.6193	-0.264
Mof_S 	S 	0.41453	0.9502	0.56284	-0.199
Mof_S 	S 	0.29554	0.91057	0.56685	-0.255
Mof_S 	S 	0.38561	0.00177	0.61749	-0.12
Mof_S 	S 	0.29239	0.90897	0.67642	-0.199
Mof_S 	S 	0.44013	0.89086	0.51721	-0.13
Mof_S 	S 	0.35703	0.92094	0.50834	-0.121
Mof_S 	S 	0.32843	0.97646	0.56476	-0.134
Mof_S 	S 	0.49772	0.91467	0.57331	-0.121
Mof_S 	S 	0.46768	0.96362	0.62614	-0.131
Mof_Cd	Cd	0.23135	0.93955	0.52404	0.284
Mof_Cd	Cd	0.43875	0.00789	0.71802	0.286
Mof_S 	S 	0.27764	0.95763	0.50537	-0.119
Mof_S 	S 	0.47359	0.97024	0.72369	-0.118
Mof_S 	S 	0.34002	0.97937	0.67458	-0.127
Mof_S 	S 	0.49641	0.91405	0.66949	-0.119
Mof_S 	S 	0.50776	0.85729	0.61368	-0.131
Mof_S 	S 	0.22958	0.88993	0.52151	-0.117
Mof_S 	S 	0.38874	0.99521	0.73175	-0.122
Mof_S 	S 	0.27789	0.96764	0.625	-0.121
Mof_S 	S 	0.44273	0.02229	0.67238	-0.113
Mof_S 	S 	0.3569	0.9195	0.73162	-0.119
Mof_S 	S 	0.2221	0.95679	0.56713	-0.12
Mof_S 	S 	0.4337	0.89989	0.72629	-0.126
Mof_S 	S 	0.44488	0.05085	0.74018	-0.109
Mof_C 	C 	0.3136	0.0016	0.6938	0.012
Mof_C 	C 	0.2951	0.0241	0.7291	0.002
Mof_C 	C 	0.3163	0.0089	0.7184	-0.01
Mof_C 	C 	0.2985	0.9833	0.7066	-0.019
Mof_C 	C 	0.0051	0.4796	0.709	0.01
Mof_C 	C 	0.0301	0.4833	0.7233	-0.009
Mof_C 	C 	0.0569	0.4887	0.7125	0.002
Mof_C 	C 	0.0585	0.4927	0.6869	-0.004
Mof_C 	C 	0.0349	0.4901	0.672	0.008
Mof_C 	C 	0.0088	0.4823	0.683	-0.028
Mof_C 	C 	0.7316	0.4904	0.5656	0.011
Mof_C 	C 	0.7327	0.5042	0.5432	-0.028
Mof_C 	C 	0.7387	0.5321	0.5431	0.005
Mof_C 	C 	0.7425	0.5455	0.5633	-0.004
Mof_C 	C 	0.7408	0.5306	0.5848	0.005
Mof_C 	C 	0.7346	0.5042	0.5859	-0.014
Mof_C 	C 	0.8383	0.5044	0.5492	0.017
Mof_C 	C 	0.8648	0.5147	0.5467	-0.022
Mof_C 	C 	0.8739	0.5396	0.5335	0.005
Mof_C 	C 	0.8519	0.5502	0.5211	-0.004
Mof_C 	C 	0.8227	0.5438	0.5246	0.003
Mof_C 	C 	0.8161	0.5228	0.5395	-0.012
Mof_C 	C 	0.0211	0.4029	0.6918	0.012
Mof_C 	C 	0.044	0.4202	0.6975	-0.008
Mof_C 	C 	0.0647	0.4113	0.7148	0.002
Mof_C 	C 	0.0636	0.385	0.7265	-0.003
Mof_C 	C 	0.04	0.3691	0.721	0.005
Mof_C 	C 	0.0187	0.3783	0.7026	-0.025
Mof_C 	C 	0.9933	0.4854	0.6126	0.018
Mof_C 	C 	0.9903	0.51	0.6185	-0.02
Mof_C 	C 	0.0133	0.528	0.6082	0.004
Mof_C 	C 	0.0352	0.5168	0.5915	-0.003
Mof_C 	C 	0.0403	0.4893	0.5911	0.003
Mof_C 	C 	0.0184	0.4736	0.606	-0.012
Mof_C 	C 	0.0097	0.4366	0.5513	0.016
Mof_C 	C 	0.9944	0.4553	0.5416	-0.029
Mof_C 	C 	0.0056	0.4741	0.5263	0.007
Mof_C 	C 	0.035	0.4721	0.5171	-0.005
Mof_C 	C 	0.0536	0.4535	0.5277	0.003
Mof_C 	C 	0.0397	0.4345	0.5459	-0.009
Mof_C 	C 	0.9554	0.4154	0.497	0.016
Mof_C 	C 	0.9416	0.4379	0.4916	-0.022
Mof_C 	C 	0.9534	0.4564	0.4764	0.007
Mof_C 	C 	0.9804	0.4513	0.4646	-0.006
Mof_C 	C 	0.9925	0.4281	0.4693	0.008
Mof_C 	C 	0.9831	0.414	0.487	-0.019
Mof_C 	C 	0.9059	0.524	0.5984	0.011
Mof_C 	C 	0.9275	0.5158	0.583	-0.028
Mof_C 	C 	0.9444	0.5336	0.5665	0.004
Mof_C 	C 	0.9363	0.562	0.5689	-0.003
Mof_C 	C 	0.9106	0.5686	0.5858	0.002
Mof_C 	C 	0.8973	0.5494	0.6025	-0.006
Mof_C 	C 	0.9153	0.5473	0.6682	0.01
Mof_C 	C 	0.928	0.5717	0.6617	-0.006
Mof_C 	C 	0.906	0.5891	0.6566	0.002
Mof_C 	C 	0.8781	0.5862	0.6639	-0.004
Mof_C 	C 	0.8672	0.5636	0.668	0.006
Mof_C 	C 	0.8874	0.5409	0.6713	-0.027
Mof_C 	C 	0.96336	0.38717	0.74656	0.011
Mof_C 	C 	0.9697	0.36084	0.7465	-0.021
Mof_C 	C 	0.9919	0.35133	0.76142	0.006
Mof_C 	C 	0.0077	0.3682	0.77641	-0.004
Mof_C 	C 	0.0013	0.3945	0.77647	0.004
Mof_C 	C 	0.97918	0.404	0.76155	-0.013
Mof_C 	C 	0.8915	0.48469	0.76	0.022
Mof_C 	C 	0.9087	0.46322	0.7649	-0.036
Mof_C 	C 	0.9128	0.45491	0.78937	0.009
Mof_C 	C 	0.8997	0.4681	0.809	-0.006
Mof_C 	C 	0.8825	0.4895	0.8042	0.004
Mof_C 	C 	0.8783	0.4978	0.7797	-0.011
Mof_C 	C 	0.825	0.43861	0.7461	0.001
Mof_C 	C 	0.8277	0.44885	0.7701	-0.005
Mof_C 	C 	0.804	0.46032	0.7816	0.002
Mof_C 	C 	0.7777	0.46156	0.7692	-0.003
Mof_C 	C 	0.775	0.45133	0.7453	0.006
Mof_C 	C 	0.7987	0.43985	0.7337	-0.024
Mof_C 	C 	0.0439	0.3518	0.6283	0.013
Mof_C 	C 	0.0414	0.3731	0.6441	-0.019
Mof_C 	C 	0.0642	0.3798	0.6597	0.005
Mof_C 	C 	0.0893	0.3651	0.6597	-0.004
Mof_C 	C 	0.0918	0.3438	0.6439	0.004
Mof_C 	C 	0.069	0.3371	0.6283	-0.014
Mof_C 	C 	0.8663	0.4483	0.4896	0.012
Mof_C 	C 	0.8756	0.4707	0.5017	-0.029
Mof_C 	C 	0.885	0.4928	0.4846	0.005
Mof_C 	C 	0.8829	0.4915	0.4592	-0.004
Mof_C 	C 	0.8739	0.469	0.4495	0.003
Mof_C 	C 	0.863	0.4474	0.4646	-0.008
Mof_C 	C 	0.7765	0.4394	0.4776	0.011
Mof_C 	C 	0.7643	0.451	0.4572	-0.017
Mof_C 	C 	0.7647	0.4377	0.4328	0.003
Mof_C 	C 	0.7757	0.4114	0.431	-0.003
Mof_C 	C 	0.7847	0.3983	0.4548	0.007
Mof_C 	C 	0.7863	0.4135	0.4761	-0.029
Mof_C 	C 	0.7498	0.471	0.6471	0.011
Mof_C 	C 	0.741	0.4962	0.6523	-0.007
Mof_C 	C 	0.7185	0.5006	0.669	0.003
Mof_C 	C 	0.7048	0.4798	0.6804	-0.004
Mof_C 	C 	0.7136	0.4546	0.6752	0.007
Mof_C 	C 	0.736	0.4502	0.6585	-0.03
Mof_C 	C 	0.6967	0.3803	0.5335	0.014
Mof_C 	C 	0.6745	0.3709	0.517	-0.007
Mof_C 	C 	0.6458	0.3645	0.526	0.002
Mof_C 	C 	0.6411	0.3648	0.5542	-0.002
Mof_C 	C 	0.6647	0.3755	0.5719	0.005
Mof_C 	C 	0.6915	0.3825	0.5596	-0.026
Mof_C 	C 	0.9112	0.5599	0.7529	0.009
Mof_C 	C 	0.9053	0.5555	0.7796	-0.02
Mof_C 	C 	0.8772	0.5629	0.7883	0.005
Mof_C 	C 	0.8568	0.5713	0.7726	-0.003
Mof_C 	C 	0.8624	0.5766	0.7463	0.003
Mof_C 	C 	0.8903	0.5696	0.7357	-0.009
Mof_Cd	Cd	0.89359	0.4102	0.646	0.253
Mof_Cd	Cd	0.95075	0.43212	0.592	0.269
Mof_Cd	Cd	0.83586	0.39207	0.59326	0.253
Mof_Cd	Cd	0.89755	0.41161	0.54	0.271
Mof_Cd	Cd	0.87325	0.46301	0.58957	0.271
Mof_Cd	Cd	0.97343	0.37532	0.64709	0.273
Mof_Cd	Cd	0.83212	0.38937	0.70043	0.271
Mof_Cd	Cd	0.81694	0.44062	0.53403	0.276
Mof_Cd	Cd	0.77004	0.37238	0.54745	0.278
Mof_Cd	Cd	0.95681	0.43222	0.69641	0.276
Mof_Cd	Cd	0.87381	0.4571	0.70529	0.276
Mof_Cd	Cd	0.81542	0.44271	0.65045	0.27
Mof_Cd	Cd	0.76034	0.43492	0.59424	0.276
Mof_Cd	Cd	0.92411	0.48504	0.64603	0.278
Mof_S 	S 	0.85401	0.42894	0.6197	-0.265
Mof_S 	S 	0.91216	0.44655	0.67338	-0.257
Mof_S 	S 	0.93429	0.39419	0.6193	-0.264
Mof_S 	S 	0.91453	0.4502	0.56284	-0.199
Mof_S 	S 	0.79554	0.41057	0.56685	-0.255
Mof_S 	S 	0.88561	0.50177	0.61749	-0.12
Mof_S 	S 	0.79239	0.40897	0.67642	-0.199
Mof_S 	S 	0.94013	0.39086	0.51721	-0.13
Mof_S 	S 	0.85703	0.42094	0.50834	-0.121
Mof_S 	S 	0.82843	0.47646	0.56476	-0.134
Mof_S 	S 	0.99772	0.41467	0.57331	-0.121
Mof_S 	S 	0.96768	0.46362	0.62614	-0.131
Mof_Cd	Cd	0.73135	0.43955	0.52404	0.284
Mof_Cd	Cd	0.93875	0.50789	0.71802	0.286
Mof_S 	S 	0.77764	0.45763	0.50537	-0.119
Mof_S 	S 	0.97359	0.47024	0.72369	-0.118
Mof_S 	S 	0.84002	0.47937	0.67458	-0.127
Mof_S 	S 	0.99641	0.41405	0.66949	-0.119
Mof_S 	S 	0.00776	0.35729	0.61368	-0.131
Mof_S 	S 	0.72958	0.38993	0.52151	-0.117
Mof_S 	S 	0.88874	0.49521	0.73175	-0.122
Mof_S 	S 	0.77789	0.46764	0.625	-0.121
Mof_S 	S 	0.94273	0.52229	0.67238	-0.113
Mof_S 	S 	0.8569	0.4195	0.73162	-0.119
Mof_S 	S 	0.7221	0.45679	0.56713	-0.12
Mof_S 	S 	0.9337	0.39989	0.72629	-0.126
Mof_S 	S 	0.94488	0.55085	0.74018	-0.109
Mof_C 	C 	0.8136	0.5016	0.6938	0.012
Mof_C 	C 	0.7951	0.5241	0.7291	0.002
Mof_C 	C 	0.8163	0.5089	0.7184	-0.01
Mof_C 	C 	0.7985	0.4833	0.7066	-0.019
Mof_C 	C 	0.0051	0.9796	0.209	0.01
Mof_C 	C 	0.0301	0.9833	0.2233	-0.009
Mof_C 	C 	0.0569	0.9887	0.2125	0.002
Mof_C 	C 	0.0585	0.9927	0.1869	-0.004
Mof_C 	C 	0.0349	0.9901	0.172	0.008
Mof_C 	C 	0.0088	0.9823	0.183	-0.028
Mof_C 	C 	0.7316	0.9904	0.0656	0.011
Mof_C 	C 	0.7327	0.0042	0.0432	-0.028
Mof_C 	C 	0.7387	0.0321	0.0431	0.005
Mof_C 	C 	0.7425	0.0455	0.0633	-0.004
Mof_C 	C 	0.7408	0.0306	0.0848	0.005
Mof_C 	C 	0.7346	0.0042	0.0859	-0.014
Mof_C 	C 	0.8383	0.0044	0.0492	0.017
Mof_C 	C 	0.8648	0.0147	0.0467	-0.022
Mof_C 	C 	0.8739	0.0396	0.0335	0.005
Mof_C 	C 	0.8519	0.0502	0.0211	-0.004
Mof_C 	C 	0.8227	0.0438	0.0246	0.003
Mof_C 	C 	0.8161	0.0228	0.0395	-0.012
Mof_C 	C 	0.0211	0.9029	0.1918	0.012
Mof_C 	C 	0.044	0.9202	0.1975	-0.008
Mof_C 	C 	0.0647	0.9113	0.2148	0.002
Mof_C 	C 	0.0636	0.885	0.2265	-0.003
Mof_C 	C 	0.04	0.8691	0.221	0.005
Mof_C 	C 	0.0187	0.8783	0.2026	-0.025
Mof_C 	C 	0.9933	0.9854	0.1126	0.018
Mof_C 	C 	0.9903	0.01	0.1185	-0.02
Mof_C 	C 	0.0133	0.028	0.1082	0.004
Mof_C 	C 	0.0352	0.0168	0.0915	-0.003
Mof_C 	C 	0.0403	0.9893	0.0911	0.003
Mof_C 	C 	0.0184	0.9736	0.106	-0.012
Mof_C 	C 	0.0097	0.9366	0.0513	0.016
Mof_C 	C 	0.9944	0.9553	0.0416	-0.029
Mof_C 	C 	0.0056	0.9741	0.0263	0.007
Mof_C 	C 	0.035	0.9721	0.0171	-0.005
Mof_C 	C 	0.0536	0.9535	0.0277	0.003
Mof_C 	C 	0.0397	0.9345	0.0459	-0.009
Mof_C 	C 	0.9554	0.9154	0.997	0.016
Mof_C 	C 	0.9416	0.9379	0.9916	-0.022
Mof_C 	C 	0.9534	0.9564	0.9764	0.007
Mof_C 	C 	0.9804	0.9513	0.9646	-0.006
Mof_C 	C 	0.9925	0.9281	0.9693	0.008
Mof_C 	C 	0.9831	0.914	0.987	-0.019
Mof_C 	C 	0.9059	0.024	0.0984	0.011
Mof_C 	C 	0.9275	0.0158	0.083	-0.028
Mof_C 	C 	0.9444	0.0336	0.0665	0.004
Mof_C 	C 	0.9363	0.062	0.0689	-0.003
Mof_C 	C 	0.9106	0.0686	0.0858	0.002
Mof_C 	C 	0.8973	0.0494	0.1025	-0.006
Mof_C 	C 	0.9153	0.0473	0.1682	0.01
Mof_C 	C 	0.928	0.0717	0.1617	-0.006
Mof_C 	C 	0.906	0.0891	0.1566	0.002
Mof_C 	C 	0.8781	0.0862	0.1639	-0.004
Mof_C 	C 	0.8672	0.0636	0.168	0.006
Mof_C 	C 	0.8874	0.0409	0.1713	-0.027
Mof_C 	C 	0.96336	0.88717	0.24656	0.011
Mof_C 	C 	0.9697	0.86084	0.2465	-0.021
Mof_C 	C 	0.9919	0.85133	0.26142	0.006
Mof_C 	C 	0.0077	0.8682	0.27641	-0.004
Mof_C 	C 	0.0013	0.8945	0.27647	0.004
Mof_C 	C 	0.97918	0.904	0.26155	-0.013
Mof_C 	C 	0.8915	0.98469	0.26	0.022
Mof_C 	C 	0.9087	0.96322	0.2649	-0.036
Mof_C 	C 	0.9128	0.95491	0.28937	0.009
Mof_C 	C 	0.8997	0.9681	0.309	-0.006
Mof_C 	C 	0.8825	0.9895	0.3042	0.004
Mof_C 	C 	0.8783	0.9978	0.2797	-0.011
Mof_C 	C 	0.825	0.93861	0.2461	0.001
Mof_C 	C 	0.8277	0.94885	0.2701	-0.005
Mof_C 	C 	0.804	0.96032	0.2816	0.002
Mof_C 	C 	0.7777	0.96156	0.2692	-0.003
Mof_C 	C 	0.775	0.95133	0.2453	0.006
Mof_C 	C 	0.7987	0.93985	0.2337	-0.024
Mof_C 	C 	0.0439	0.8518	0.1283	0.013
Mof_C 	C 	0.0414	0.8731	0.1441	-0.019
Mof_C 	C 	0.0642	0.8798	0.1597	0.005
Mof_C 	C 	0.0893	0.8651	0.1597	-0.004
Mof_C 	C 	0.0918	0.8438	0.1439	0.004
Mof_C 	C 	0.069	0.8371	0.1283	-0.014
Mof_C 	C 	0.8663	0.9483	0.9896	0.012
Mof_C 	C 	0.8756	0.9707	0.0017	-0.029
Mof_C 	C 	0.885	0.9928	0.9846	0.005
Mof_C 	C 	0.8829	0.9915	0.9592	-0.004
Mof_C 	C 	0.8739	0.969	0.9495	0.003
Mof_C 	C 	0.863	0.9474	0.9646	-0.008
Mof_C 	C 	0.7765	0.9394	0.9776	0.011
Mof_C 	C 	0.7643	0.951	0.9572	-0.017
Mof_C 	C 	0.7647	0.9377	0.9328	0.003
Mof_C 	C 	0.7757	0.9114	0.931	-0.003
Mof_C 	C 	0.7847	0.8983	0.9548	0.007
Mof_C 	C 	0.7863	0.9135	0.9761	-0.029
Mof_C 	C 	0.7498	0.971	0.1471	0.011
Mof_C 	C 	0.741	0.9962	0.1523	-0.007
Mof_C 	C 	0.7185	0.0006	0.169	0.003
Mof_C 	C 	0.7048	0.9798	0.1804	-0.004
Mof_C 	C 	0.7136	0.9546	0.1752	0.007
Mof_C 	C 	0.736	0.9502	0.1585	-0.03
Mof_C 	C 	0.6967	0.8803	0.0335	0.014
Mof_C 	C 	0.6745	0.8709	0.017	-0.007
Mof_C 	C 	0.6458	0.8645	0.026	0.002
Mof_C 	C 	0.6411	0.8648	0.0542	-0.002
Mof_C 	C 	0.6647	0.8755	0.0719	0.005
Mof_C 	C 	0.6915	0.8825	0.0596	-0.026
Mof_C 	C 	0.9112	0.0599	0.2529	0.009
Mof_C 	C 	0.9053	0.0555	0.2796	-0.02
Mof_C 	C 	0.8772	0.0629	0.2883	0.005
Mof_C 	C 	0.8568	0.0713	0.2726	-0.003
Mof_C 	C 	0.8624	0.0766	0.2463	0.003
Mof_C 	C 	0.8903	0.0696	0.2357	-0.009
Mof_Cd	Cd	0.89359	0.9102	0.146	0.253
Mof_Cd	Cd	0.95075	0.93212	0.092	0.269
Mof_Cd	Cd	0.83586	0.89207	0.09326	0.253
Mof_Cd	Cd	0.89755	0.91161	0.04	0.271
Mof_Cd	Cd	0.87325	0.96301	0.08957	0.271
Mof_Cd	Cd	0.97343	0.87532	0.14709	0.273
Mof_Cd	Cd	0.83212	0.88937	0.20043	0.271
Mof_Cd	Cd	0.81694	0.94062	0.03403	0.276
Mof_Cd	Cd	0.77004	0.87238	0.04745	0.278
Mof_Cd	Cd	0.95681	0.93222	0.19641	0.276
Mof_Cd	Cd	0.87381	0.9571	0.20529	0.276
Mof_Cd	Cd	0.81542	0.94271	0.15045	0.27
Mof_Cd	Cd	0.76034	0.93492	0.09424	0.276
Mof_Cd	Cd	0.92411	0.98504	0.14603	0.278
Mof_S 	S 	0.85401	0.92894	0.1197	-0.265
Mof_S 	S 	0.91216	0.94655	0.17338	-0.257
Mof_S 	S 	0.93429	0.89419	0.1193	-0.264
Mof_S 	S 	0.91453	0.9502	0.06284	-0.199
Mof_S 	S 	0.79554	0.91057	0.06685	-0.255
Mof_S 	S 	0.88561	0.00177	0.11749	-0.12
Mof_S 	S 	0.79239	0.90897	0.17642	-0.199
Mof_S 	S 	0.94013	0.89086	0.01721	-0.13
Mof_S 	S 	0.85703	0.92094	0.00834	-0.121
Mof_S 	S 	0.82843	0.97646	0.06476	-0.134
Mof_S 	S 	0.99772	0.91467	0.07331	-0.121
Mof_S 	S 	0.96768	0.96362	0.12614	-0.131
Mof_Cd	Cd	0.73135	0.93955	0.02404	0.284
Mof_Cd	Cd	0.93875	0.00789	0.21802	0.286
Mof_S 	S 	0.77764	0.95763	0.00537	-0.119
Mof_S 	S 	0.97359	0.97024	0.22369	-0.118
Mof_S 	S 	0.84002	0.97937	0.17458	-0.127
Mof_S 	S 	0.99641	0.91405	0.16949	-0.119
Mof_S 	S 	0.00776	0.85729	0.11368	-0.131
Mof_S 	S 	0.72958	0.88993	0.02151	-0.117
Mof_S 	S 	0.88874	0.99521	0.23175	-0.122
Mof_S 	S 	0.77789	0.96764	0.125	-0.121
Mof_S 	S 	0.94273	0.02229	0.17238	-0.113
Mof_S 	S 	0.8569	0.9195	0.23162	-0.119
Mof_S 	S 	0.7221	0.95679	0.06713	-0.12
Mof_S 	S 	0.9337	0.89989	0.22629	-0.126
Mof_S 	S 	0.94488	0.05085	0.24018	-0.109
Mof_C 	C 	0.8136	0.0016	0.1938	0.012
Mof_C 	C 	0.7951	0.0241	0.2291	0.002
Mof_C 	C 	0.8163	0.0089	0.2184	-0.01
Mof_C 	C 	0.7985	0.9833	0.2066	-0.019
Mof_C 	C 	0.7449	0.7704	0.209	0.01
Mof_C 	C 	0.7199	0.7667	0.2233	-0.009
Mof_C 	C 	0.6931	0.7613	0.2125	0.002
Mof_C 	C 	0.6915	0.7573	0.1869	-0.004
Mof_C 	C 	0.7151	0.7599	0.172	0.008
Mof_C 	C 	0.7412	0.7677	0.183	-0.028
Mof_C 	C 	0.0184	0.7596	0.0656	0.011
Mof_C 	C 	0.0173	0.7458	0.0432	-0.028
Mof_C 	C 	0.0113	0.7179	0.0431	0.005
Mof_C 	C 	0.0075	0.7045	0.0633	-0.004
Mof_C 	C 	0.0092	0.7194	0.0848	0.005
Mof_C 	C 	0.0154	0.7458	0.0859	-0.014
Mof_C 	C 	0.9117	0.7456	0.0492	0.017
Mof_C 	C 	0.8852	0.7353	0.0467	-0.022
Mof_C 	C 	0.8761	0.7104	0.0335	0.005
Mof_C 	C 	0.8981	0.6998	0.0211	-0.004
Mof_C 	C 	0.9273	0.7062	0.0246	0.003
Mof_C 	C 	0.9339	0.7272	0.0395	-0.012
Mof_C 	C 	0.7289	0.8471	0.1918	0.012
Mof_C 	C 	0.706	0.8298	0.1975	-0.008
Mof_C 	C 	0.6853	0.8387	0.2148	0.002
Mof_C 	C 	0.6864	0.865	0.2265	-0.003
Mof_C 	C 	0.71	0.8809	0.221	0.005
Mof_C 	C 	0.7313	0.8717	0.2026	-0.025
Mof_C 	C 	0.7567	0.7646	0.1126	0.018
Mof_C 	C 	0.7597	0.74	0.1185	-0.02
Mof_C 	C 	0.7367	0.722	0.1082	0.004
Mof_C 	C 	0.7148	0.7332	0.0915	-0.003
Mof_C 	C 	0.7097	0.7607	0.0911	0.003
Mof_C 	C 	0.7316	0.7764	0.106	-0.012
Mof_C 	C 	0.7403	0.8134	0.0513	0.016
Mof_C 	C 	0.7556	0.7947	0.0416	-0.029
Mof_C 	C 	0.7444	0.7759	0.0263	0.007
Mof_C 	C 	0.715	0.7779	0.0171	-0.005
Mof_C 	C 	0.6964	0.7965	0.0277	0.003
Mof_C 	C 	0.7103	0.8155	0.0459	-0.009
Mof_C 	C 	0.7946	0.8346	0.997	0.016
Mof_C 	C 	0.8084	0.8121	0.9916	-0.022
Mof_C 	C 	0.7966	0.7936	0.9764	0.007
Mof_C 	C 	0.7696	0.7987	0.9646	-0.006
Mof_C 	C 	0.7575	0.8219	0.9693	0.008
Mof_C 	C 	0.7669	0.836	0.987	-0.019
Mof_C 	C 	0.8441	0.726	0.0984	0.011
Mof_C 	C 	0.8225	0.7342	0.083	-0.028
Mof_C 	C 	0.8056	0.7164	0.0665	0.004
Mof_C 	C 	0.8137	0.688	0.0689	-0.003
Mof_C 	C 	0.8394	0.6814	0.0858	0.002
Mof_C 	C 	0.8527	0.7006	0.1025	-0.006
Mof_C 	C 	0.8347	0.7027	0.1682	0.01
Mof_C 	C 	0.822	0.6783	0.1617	-0.006
Mof_C 	C 	0.844	0.6609	0.1566	0.002
Mof_C 	C 	0.8719	0.6638	0.1639	-0.004
Mof_C 	C 	0.8828	0.6864	0.168	0.006
Mof_C 	C 	0.8626	0.7091	0.1713	-0.027
Mof_C 	C 	0.78664	0.86283	0.24656	0.011
Mof_C 	C 	0.7803	0.88916	0.2465	-0.021
Mof_C 	C 	0.7581	0.89867	0.26142	0.006
Mof_C 	C 	0.7423	0.8818	0.27641	-0.004
Mof_C 	C 	0.7487	0.8555	0.27647	0.004
Mof_C 	C 	0.77082	0.846	0.26155	-0.013
Mof_C 	C 	0.8585	0.76531	0.26	0.022
Mof_C 	C 	0.8413	0.78678	0.2649	-0.036
Mof_C 	C 	0.8372	0.79509	0.28937	0.009
Mof_C 	C 	0.8503	0.7819	0.309	-0.006
Mof_C 	C 	0.8675	0.7605	0.3042	0.004
Mof_C 	C 	0.8717	0.7522	0.2797	-0.011
Mof_C 	C 	0.925	0.81139	0.2461	0.001
Mof_C 	C 	0.9223	0.80115	0.2701	-0.005
Mof_C 	C 	0.946	0.78968	0.2816	0.002
Mof_C 	C 	0.9723	0.78844	0.2692	-0.003
Mof_C 	C 	0.975	0.79867	0.2453	0.006
Mof_C 	C 	0.9513	0.81015	0.2337	-0.024
Mof_C 	C 	0.7061	0.8982	0.1283	0.013
Mof_C 	C 	0.7086	0.8769	0.1441	-0.019
Mof_C 	C 	0.6858	0.8702	0.1597	0.005
Mof_C 	C 	0.6607	0.8849	0.1597	-0.004
Mof_C 	C 	0.6582	0.9062	0.1439	0.004
Mof_C 	C 	0.681	0.9129	0.1283	-0.014
Mof_C 	C 	0.8837	0.8017	0.9896	0.012
Mof_C 	C 	0.8744	0.7793	0.0017	-0.029
Mof_C 	C 	0.865	0.7572	0.9846	0.005
Mof_C 	C 	0.8671	0.7585	0.9592	-0.004
Mof_C 	C 	0.8761	0.781	0.9495	0.003
Mof_C 	C 	0.887	0.8026	0.9646	-0.008
Mof_C 	C 	0.9735	0.8106	0.9776	0.011
Mof_C 	C 	0.9857	0.799	0.9572	-0.017
Mof_C 	C 	0.9853	0.8123	0.9328	0.003
Mof_C 	C 	0.9743	0.8386	0.931	-0.003
Mof_C 	C 	0.9653	0.8517	0.9548	0.007
Mof_C 	C 	0.9637	0.8365	0.9761	-0.029
Mof_C 	C 	0.0002	0.779	0.1471	0.011
Mof_C 	C 	0.009	0.7538	0.1523	-0.007
Mof_C 	C 	0.0315	0.7494	0.169	0.003
Mof_C 	C 	0.0452	0.7702	0.1804	-0.004
Mof_C 	C 	0.0364	0.7954	0.1752	0.007
Mof_C 	C 	0.014	0.7998	0.1585	-0.03
Mof_C 	C 	0.0533	0.8697	0.0335	0.014
Mof_C 	C 	0.0755	0.8791	0.017	-0.007
Mof_C 	C 	0.1042	0.8855	0.026	0.002
Mof_C 	C 	0.1089	0.8852	0.0542	-0.002
Mof_C 	C 	0.0853	0.8745	0.0719	0.005
Mof_C 	C 	0.0585	0.8675	0.0596	-0.026
Mof_C 	C 	0.8388	0.6901	0.2529	0.009
Mof_C 	C 	0.8447	0.6945	0.2796	-0.02
Mof_C 	C 	0.8728	0.6871	0.2883	0.005
Mof_C 	C 	0.8932	0.6787	0.2726	-0.003
Mof_C 	C 	0.8876	0.6734	0.2463	0.003
Mof_C 	C 	0.8597	0.6804	0.2357	-0.009
Mof_Cd	Cd	0.85641	0.8398	0.146	0.253
Mof_Cd	Cd	0.79925	0.81788	0.092	0.269
Mof_Cd	Cd	0.91414	0.85793	0.09326	0.253
Mof_Cd	Cd	0.85245	0.83839	0.04	0.271
Mof_Cd	Cd	0.87675	0.78699	0.08957	0.271
Mof_Cd	Cd	0.77657	0.87468	0.14709	0.273
Mof_Cd	Cd	0.91788	0.86063	0.20043	0.271
Mof_Cd	Cd	0.93306	0.80938	0.03403	0.276
Mof_Cd	Cd	0.97996	0.87762	0.04745	0.278
Mof_Cd	Cd	0.79319	0.81778	0.19641	0.276
Mof_Cd	Cd	0.87619	0.7929	0.20529	0.276
Mof_Cd	Cd	0.93458	0.80729	0.15045	0.27
Mof_Cd	Cd	0.98966	0.81508	0.09424	0.276
Mof_Cd	Cd	0.82589	0.76496	0.14603	0.278
Mof_S 	S 	0.89599	0.82106	0.1197	-0.265
Mof_S 	S 	0.83784	0.80345	0.17338	-0.257
Mof_S 	S 	0.81571	0.85581	0.1193	-0.264
Mof_S 	S 	0.83547	0.7998	0.06284	-0.199
Mof_S 	S 	0.95446	0.83943	0.06685	-0.255
Mof_S 	S 	0.86439	0.74823	0.11749	-0.12
Mof_S 	S 	0.95761	0.84103	0.17642	-0.199
Mof_S 	S 	0.80987	0.85914	0.01721	-0.13
Mof_S 	S 	0.89297	0.82906	0.00834	-0.121
Mof_S 	S 	0.92157	0.77354	0.06476	-0.134
Mof_S 	S 	0.75228	0.83533	0.07331	-0.121
Mof_S 	S 	0.78232	0.78638	0.12614	-0.131
Mof_Cd	Cd	0.01865	0.81045	0.02404	0.284
Mof_Cd	Cd	0.81125	0.74211	0.21802	0.286
Mof_S 	S 	0.97236	0.79237	0.00537	-0.119
Mof_S 	S 	0.77641	0.77976	0.22369	-0.118
Mof_S 	S 	0.90998	0.77063	0.17458	-0.127
Mof_S 	S 	0.75359	0.83595	0.16949	-0.119
Mof_S 	S 	0.74224	0.89271	0.11368	-0.131
Mof_S 	S 	0.02042	0.86007	0.02151	-0.117
Mof_S 	S 	0.86126	0.75479	0.23175	-0.122
Mof_S 	S 	0.97211	0.78236	0.125	-0.121
Mof_S 	S 	0.80727	0.72771	0.17238	-0.113
Mof_S 	S 	0.8931	0.8305	0.23162	-0.119
Mof_S 	S 	0.0279	0.79321	0.06713	-0.12
Mof_S 	S 	0.8163	0.85011	0.22629	-0.126
Mof_S 	S 	0.80512	0.69915	0.24018	-0.109
Mof_C 	C 	0.9364	0.7484	0.1938	0.012
Mof_C 	C 	0.9549	0.7259	0.2291	0.002
Mof_C 	C 	0.9337	0.7411	0.2184	-0.01
Mof_C 	C 	0.9515	0.7667	0.2066	-0.019
Mof_C 	C 	0.7449	0.2704	0.709	0.01
Mof_C 	C 	0.7199	0.2667	0.7233	-0.009
Mof_C 	C 	0.6931	0.2613	0.7125	0.002
Mof_C 	C 	0.6915	0.2573	0.6869	-0.004
Mof_C 	C 	0.7151	0.2599	0.672	0.008
Mof_C 	C 	0.7412	0.2677	0.683	-0.028
Mof_C 	C 	0.0184	0.2596	0.5656	0.011
Mof_C 	C 	0.0173	0.2458	0.5432	-0.028
Mof_C 	C 	0.0113	0.2179	0.5431	0.005
Mof_C 	C 	0.0075	0.2045	0.5633	-0.004
Mof_C 	C 	0.0092	0.2194	0.5848	0.005
Mof_C 	C 	0.0154	0.2458	0.5859	-0.014
Mof_C 	C 	0.9117	0.2456	0.5492	0.017
Mof_C 	C 	0.8852	0.2353	0.5467	-0.022
Mof_C 	C 	0.8761	0.2104	0.5335	0.005
Mof_C 	C 	0.8981	0.1998	0.5211	-0.004
Mof_C 	C 	0.9273	0.2062	0.5246	0.003
Mof_C 	C 	0.9339	0.2272	0.5395	-0.012
Mof_C 	C 	0.7289	0.3471	0.6918	0.012
Mof_C 	C 	0.706	0.3298	0.6975	-0.008
Mof_C 	C 	0.6853	0.3387	0.7148	0.002
Mof_C 	C 	0.6864	0.365	0.7265	-0.003
Mof_C 	C 	0.71	0.3809	0.721	0.005
Mof_C 	C 	0.7313	0.3717	0.7026	-0.025
Mof_C 	C 	0.7567	0.2646	0.6126	0.018
Mof_C 	C 	0.7597	0.24	0.6185	-0.02
Mof_C 	C 	0.7367	0.222	0.6082	0.004
Mof_C 	C 	0.7148	0.2332	0.5915	-0.003
Mof_C 	C 	0.7097	0.2607	0.5911	0.003
Mof_C 	C 	0.7316	0.2764	0.606	-0.012
Mof_C 	C 	0.7403	0.3134	0.5513	0.016
Mof_C 	C 	0.7556	0.2947	0.5416	-0.029
Mof_C 	C 	0.7444	0.2759	0.5263	0.007
Mof_C 	C 	0.715	0.2779	0.5171	-0.005
Mof_C 	C 	0.6964	0.2965	0.5277	0.003
Mof_C 	C 	0.7103	0.3155	0.5459	-0.009
Mof_C 	C 	0.7946	0.3346	0.497	0.016
Mof_C 	C 	0.8084	0.3121	0.4916	-0.022
Mof_C 	C 	0.7966	0.2936	0.4764	0.007
Mof_C 	C 	0.7696	0.2987	0.4646	-0.006
Mof_C 	C 	0.7575	0.3219	0.4693	0.008
Mof_C 	C 	0.7669	0.336	0.487	-0.019
Mof_C 	C 	0.8441	0.226	0.5984	0.011
Mof_C 	C 	0.8225	0.2342	0.583	-0.028
Mof_C 	C 	0.8056	0.2164	0.5665	0.004
Mof_C 	C 	0.8137	0.188	0.5689	-0.003
Mof_C 	C 	0.8394	0.1814	0.5858	0.002
Mof_C 	C 	0.8527	0.2006	0.6025	-0.006
Mof_C 	C 	0.8347	0.2027	0.6682	0.01
Mof_C 	C 	0.822	0.1783	0.6617	-0.006
Mof_C 	C 	0.844	0.1609	0.6566	0.002
Mof_C 	C 	0.8719	0.1638	0.6639	-0.004
Mof_C 	C 	0.8828	0.1864	0.668	0.006
Mof_C 	C 	0.8626	0.2091	0.6713	-0.027
Mof_C 	C 	0.78664	0.36283	0.74656	0.011
Mof_C 	C 	0.7803	0.38916	0.7465	-0.021
Mof_C 	C 	0.7581	0.39867	0.76142	0.006
Mof_C 	C 	0.7423	0.3818	0.77641	-0.004
Mof_C 	C 	0.7487	0.3555	0.77647	0.004
Mof_C 	C 	0.77082	0.346	0.76155	-0.013
Mof_C 	C 	0.8585	0.26531	0.76	0.022
Mof_C 	C 	0.8413	0.28678	0.7649	-0.036
Mof_C 	C 	0.8372	0.29509	0.78937	0.009
Mof_C 	C 	0.8503	0.2819	0.809	-0.006
Mof_C 	C 	0.8675	0.2605	0.8042	0.004
Mof_C 	C 	0.8717	0.2522	0.7797	-0.011
Mof_C 	C 	0.925	0.31139	0.7461	0.001
Mof_C 	C 	0.9223	0.30115	0.7701	-0.005
Mof_C 	C 	0.946	0.28968	0.7816	0.002
Mof_C 	C 	0.9723	0.28844	0.7692	-0.003
Mof_C 	C 	0.975	0.29867	0.7453	0.006
Mof_C 	C 	0.9513	0.31015	0.7337	-0.024
Mof_C 	C 	0.7061	0.3982	0.6283	0.013
Mof_C 	C 	0.7086	0.3769	0.6441	-0.019
Mof_C 	C 	0.6858	0.3702	0.6597	0.005
Mof_C 	C 	0.6607	0.3849	0.6597	-0.004
Mof_C 	C 	0.6582	0.4062	0.6439	0.004
Mof_C 	C 	0.681	0.4129	0.6283	-0.014
Mof_C 	C 	0.8837	0.3017	0.4896	0.012
Mof_C 	C 	0.8744	0.2793	0.5017	-0.029
Mof_C 	C 	0.865	0.2572	0.4846	0.005
Mof_C 	C 	0.8671	0.2585	0.4592	-0.004
Mof_C 	C 	0.8761	0.281	0.4495	0.003
Mof_C 	C 	0.887	0.3026	0.4646	-0.008
Mof_C 	C 	0.9735	0.3106	0.4776	0.011
Mof_C 	C 	0.9857	0.299	0.4572	-0.017
Mof_C 	C 	0.9853	0.3123	0.4328	0.003
Mof_C 	C 	0.9743	0.3386	0.431	-0.003
Mof_C 	C 	0.9653	0.3517	0.4548	0.007
Mof_C 	C 	0.9637	0.3365	0.4761	-0.029
Mof_C 	C 	0.0002	0.279	0.6471	0.011
Mof_C 	C 	0.009	0.2538	0.6523	-0.007
Mof_C 	C 	0.0315	0.2494	0.669	0.003
Mof_C 	C 	0.0452	0.2702	0.6804	-0.004
Mof_C 	C 	0.0364	0.2954	0.6752	0.007
Mof_C 	C 	0.014	0.2998	0.6585	-0.03
Mof_C 	C 	0.0533	0.3697	0.5335	0.014
Mof_C 	C 	0.0755	0.3791	0.517	-0.007
Mof_C 	C 	0.1042	0.3855	0.526	0.002
Mof_C 	C 	0.1089	0.3852	0.5542	-0.002
Mof_C 	C 	0.0853	0.3745	0.5719	0.005
Mof_C 	C 	0.0585	0.3675	0.5596	-0.026
Mof_C 	C 	0.8388	0.1901	0.7529	0.009
Mof_C 	C 	0.8447	0.1945	0.7796	-0.02
Mof_C 	C 	0.8728	0.1871	0.7883	0.005
Mof_C 	C 	0.8932	0.1787	0.7726	-0.003
Mof_C 	C 	0.8876	0.1734	0.7463	0.003
Mof_C 	C 	0.8597	0.1804	0.7357	-0.009
Mof_Cd	Cd	0.85641	0.3398	0.646	0.253
Mof_Cd	Cd	0.79925	0.31788	0.592	0.269
Mof_Cd	Cd	0.91414	0.35793	0.59326	0.253
Mof_Cd	Cd	0.85245	0.33839	0.54	0.271
Mof_Cd	Cd	0.87675	0.28699	0.58957	0.271
Mof_Cd	Cd	0.77657	0.37468	0.64709	0.273
Mof_Cd	Cd	0.91788	0.36063	0.70043	0.271
Mof_Cd	Cd	0.93306	0.30938	0.53403	0.276
Mof_Cd	Cd	0.97996	0.37762	0.54745	0.278
Mof_Cd	Cd	0.79319	0.31778	0.69641	0.276
Mof_Cd	Cd	0.87619	0.2929	0.70529	0.276
Mof_Cd	Cd	0.93458	0.30729	0.65045	0.27
Mof_Cd	Cd	0.98966	0.31508	0.59424	0.276
Mof_Cd	Cd	0.82589	0.26496	0.64603	0.278
Mof_S 	S 	0.89599	0.32106	0.6197	-0.265
Mof_S 	S 	0.83784	0.30345	0.67338	-0.257
Mof_S 	S 	0.81571	0.35581	0.6193	-0.264
Mof_S 	S 	0.83547	0.2998	0.56284	-0.199
Mof_S 	S 	0.95446	0.33943	0.56685	-0.255
Mof_S 	S 	0.86439	0.24823	0.61749	-0.12
Mof_S 	S 	0.95761	0.34103	0.67642	-0.199
Mof_S 	S 	0.80987	0.35914	0.51721	-0.13
Mof_S 	S 	0.89297	0.32906	0.50834	-0.121
Mof_S 	S 	0.92157	0.27354	0.56476	-0.134
Mof_S 	S 	0.75228	0.33533	0.57331	-0.121
Mof_S 	S 	0.78232	0.28638	0.62614	-0.131
Mof_Cd	Cd	0.01865	0.31045	0.52404	0.284
Mof_Cd	Cd	0.81125	0.24211	0.71802	0.286
Mof_S 	S 	0.97236	0.29237	0.50537	-0.119
Mof_S 	S 	0.77641	0.27976	0.72369	-0.118
Mof_S 	S 	0.90998	0.27063	0.67458	-0.127
Mof_S 	S 	0.75359	0.33595	0.66949	-0.119
Mof_S 	S 	0.74224	0.39271	0.61368	-0.131
Mof_S 	S 	0.02042	0.36007	0.52151	-0.117
Mof_S 	S 	0.86126	0.25479	0.73175	-0.122
Mof_S 	S 	0.97211	0.28236	0.625	-0.121
Mof_S 	S 	0.80727	0.22771	0.67238	-0.113
Mof_S 	S 	0.8931	0.3305	0.73162	-0.119
Mof_S 	S 	0.0279	0.29321	0.56713	-0.12
Mof_S 	S 	0.8163	0.35011	0.72629	-0.126
Mof_S 	S 	0.80512	0.19915	0.74018	-0.109
Mof_C 	C 	0.9364	0.2484	0.6938	0.012
Mof_C 	C 	0.9549	0.2259	0.7291	0.002
Mof_C 	C 	0.9337	0.2411	0.7184	-0.01
Mof_C 	C 	0.9515	0.2667	0.7066	-0.019
Mof_C 	C 	0.2449	0.7704	0.709	0.01
Mof_C 	C 	0.2199	0.7667	0.7233	-0.009
Mof_C 	C 	0.1931	0.7613	0.7125	0.002
Mof_C 	C 	0.1915	0.7573	0.6869	-0.004
Mof_C 	C 	0.2151	0.7599	0.672	0.008
Mof_C 	C 	0.2412	0.7677	0.683	-0.028
Mof_C 	C 	0.5184	0.7596	0.5656	0.011
Mof_C 	C 	0.5173	0.7458	0.5432	-0.028
Mof_C 	C 	0.5113	0.7179	0.5431	0.005
Mof_C 	C 	0.5075	0.7045	0.5633	-0.004
Mof_C 	C 	0.5092	0.7194	0.5848	0.005
Mof_C 	C 	0.5154	0.7458	0.5859	-0.014
Mof_C 	C 	0.4117	0.7456	0.5492	0.017
Mof_C 	C 	0.3852	0.7353	0.5467	-0.022
Mof_C 	C 	0.3761	0.7104	0.5335	0.005
Mof_C 	C 	0.3981	0.6998	0.5211	-0.004
Mof_C 	C 	0.4273	0.7062	0.5246	0.003
Mof_C 	C 	0.4339	0.7272	0.5395	-0.012
Mof_C 	C 	0.2289	0.8471	0.6918	0.012
Mof_C 	C 	0.206	0.8298	0.6975	-0.008
Mof_C 	C 	0.1853	0.8387	0.7148	0.002
Mof_C 	C 	0.1864	0.865	0.7265	-0.003
Mof_C 	C 	0.21	0.8809	0.721	0.005
Mof_C 	C 	0.2313	0.8717	0.7026	-0.025
Mof_C 	C 	0.2567	0.7646	0.6126	0.018
Mof_C 	C 	0.2597	0.74	0.6185	-0.02
Mof_C 	C 	0.2367	0.722	0.6082	0.004
Mof_C 	C 	0.2148	0.7332	0.5915	-0.003
Mof_C 	C 	0.2097	0.7607	0.5911	0.003
Mof_C 	C 	0.2316	0.7764	0.606	-0.012
Mof_C 	C 	0.2403	0.8134	0.5513	0.016
Mof_C 	C 	0.2556	0.7947	0.5416	-0.029
Mof_C 	C 	0.2444	0.7759	0.5263	0.007
Mof_C 	C 	0.215	0.7779	0.5171	-0.005
Mof_C 	C 	0.1964	0.7965	0.5277	0.003
Mof_C 	C 	0.2103	0.8155	0.5459	-0.009
Mof_C 	C 	0.2946	0.8346	0.497	0.016
Mof_C 	C 	0.3084	0.8121	0.4916	-0.022
Mof_C 	C 	0.2966	0.7936	0.4764	0.007
Mof_C 	C 	0.2696	0.7987	0.4646	-0.006
Mof_C 	C 	0.2575	0.8219	0.4693	0.008
Mof_C 	C 	0.2669	0.836	0.487	-0.019
Mof_C 	C 	0.3441	0.726	0.5984	0.011
Mof_C 	C 	0.3225	0.7342	0.583	-0.028
Mof_C 	C 	0.3056	0.7164	0.5665	0.004
Mof_C 	C 	0.3137	0.688	0.5689	-0.003
Mof_C 	C 	0.3394	0.6814	0.5858	0.002
Mof_C 	C 	0.3527	0.7006	0.6025	-0.006
Mof_C 	C 	0.3347	0.7027	0.6682	0.01
Mof_C 	C 	0.322	0.6783	0.6617	-0.006
Mof_C 	C 	0.344	0.6609	0.6566	0.002
Mof_C 	C 	0.3719	0.6638	0.6639	-0.004
Mof_C 	C 	0.3828	0.6864	0.668	0.006
Mof_C 	C 	0.3626	0.7091	0.6713	-0.027
Mof_C 	C 	0.28664	0.86283	0.74656	0.011
Mof_C 	C 	0.2803	0.88916	0.7465	-0.021
Mof_C 	C 	0.2581	0.89867	0.76142	0.006
Mof_C 	C 	0.2423	0.8818	0.77641	-0.004
Mof_C 	C 	0.2487	0.8555	0.77647	0.004
Mof_C 	C 	0.27082	0.846	0.76155	-0.013
Mof_C 	C 	0.3585	0.76531	0.76	0.022
Mof_C 	C 	0.3413	0.78678	0.7649	-0.036
Mof_C 	C 	0.3372	0.79509	0.78937	0.009
Mof_C 	C 	0.3503	0.7819	0.809	-0.006
Mof_C 	C 	0.3675	0.7605	0.8042	0.004
Mof_C 	C 	0.3717	0.7522	0.7797	-0.011
Mof_C 	C 	0.425	0.81139	0.7461	0.001
Mof_C 	C 	0.4223	0.80115	0.7701	-0.005
Mof_C 	C 	0.446	0.78968	0.7816	0.002
Mof_C 	C 	0.4723	0.78844	0.7692	-0.003
Mof_C 	C 	0.475	0.79867	0.7453	0.006
Mof_C 	C 	0.4513	0.81015	0.7337	-0.024
Mof_C 	C 	0.2061	0.8982	0.6283	0.013
Mof_C 	C 	0.2086	0.8769	0.6441	-0.019
Mof_C 	C 	0.1858	0.8702	0.6597	0.005
Mof_C 	C 	0.1607	0.8849	0.6597	-0.004
Mof_C 	C 	0.1582	0.9062	0.6439	0.004
Mof_C 	C 	0.181	0.9129	0.6283	-0.014
Mof_C 	C 	0.3837	0.8017	0.4896	0.012
Mof_C 	C 	0.3744	0.7793	0.5017	-0.029
Mof_C 	C 	0.365	0.7572	0.4846	0.005
Mof_C 	C 	0.3671	0.7585	0.4592	-0.004
Mof_C 	C 	0.3761	0.781	0.4495	0.003
Mof_C 	C 	0.387	0.8026	0.4646	-0.008
Mof_C 	C 	0.4735	0.8106	0.4776	0.011
Mof_C 	C 	0.4857	0.799	0.4572	-0.017
Mof_C 	C 	0.4853	0.8123	0.4328	0.003
Mof_C 	C 	0.4743	0.8386	0.431	-0.003
Mof_C 	C 	0.4653	0.8517	0.4548	0.007
Mof_C 	C 	0.4637	0.8365	0.4761	-0.029
Mof_C 	C 	0.5002	0.779	0.6471	0.011
Mof_C 	C 	0.509	0.7538	0.6523	-0.007
Mof_C 	C 	0.5315	0.7494	0.669	0.003
Mof_C 	C 	0.5452	0.7702	0.6804	-0.004
Mof_C 	C 	0.5364	0.7954	0.6752	0.007
Mof_C 	C 	0.514	0.7998	0.6585	-0.03
Mof_C 	C 	0.5533	0.8697	0.5335	0.014
Mof_C 	C 	0.5755	0.8791	0.517	-0.007
Mof_C 	C 	0.6042	0.8855	0.526	0.002
Mof_C 	C 	0.6089	0.8852	0.5542	-0.002
Mof_C 	C 	0.5853	0.8745	0.5719	0.005
Mof_C 	C 	0.5585	0.8675	0.5596	-0.026
Mof_C 	C 	0.3388	0.6901	0.7529	0.009
Mof_C 	C 	0.3447	0.6945	0.7796	-0.02
Mof_C 	C 	0.3728	0.6871	0.7883	0.005
Mof_C 	C 	0.3932	0.6787	0.7726	-0.003
Mof_C 	C 	0.3876	0.6734	0.7463	0.003
Mof_C 	C 	0.3597	0.6804	0.7357	-0.009
Mof_Cd	Cd	0.35641	0.8398	0.646	0.253
Mof_Cd	Cd	0.29925	0.81788	0.592	0.269
Mof_Cd	Cd	0.41414	0.85793	0.59326	0.253
Mof_Cd	Cd	0.35245	0.83839	0.54	0.271
Mof_Cd	Cd	0.37675	0.78699	0.58957	0.271
Mof_Cd	Cd	0.27657	0.87468	0.64709	0.273
Mof_Cd	Cd	0.41788	0.86063	0.70043	0.271
Mof_Cd	Cd	0.43306	0.80938	0.53403	0.276
Mof_Cd	Cd	0.47996	0.87762	0.54745	0.278
Mof_Cd	Cd	0.29319	0.81778	0.69641	0.276
Mof_Cd	Cd	0.37619	0.7929	0.70529	0.276
Mof_Cd	Cd	0.43458	0.80729	0.65045	0.27
Mof_Cd	Cd	0.48966	0.81508	0.59424	0.276
Mof_Cd	Cd	0.32589	0.76496	0.64603	0.278
Mof_S 	S 	0.39599	0.82106	0.6197	-0.265
Mof_S 	S 	0.33784	0.80345	0.67338	-0.257
Mof_S 	S 	0.31571	0.85581	0.6193	-0.264
Mof_S 	S 	0.33547	0.7998	0.56284	-0.199
Mof_S 	S 	0.45446	0.83943	0.56685	-0.255
Mof_S 	S 	0.36439	0.74823	0.61749	-0.12
Mof_S 	S 	0.45761	0.84103	0.67642	-0.199
Mof_S 	S 	0.30987	0.85914	0.51721	-0.13
Mof_S 	S 	0.39297	0.82906	0.50834	-0.121
Mof_S 	S 	0.42157	0.77354	0.56476	-0.134
Mof_S 	S 	0.25228	0.83533	0.57331	-0.121
Mof_S 	S 	0.28232	0.78638	0.62614	-0.131
Mof_Cd	Cd	0.51865	0.81045	0.52404	0.284
Mof_Cd	Cd	0.31125	0.74211	0.71802	0.286
Mof_S 	S 	0.47236	0.79237	0.50537	-0.119
Mof_S 	S 	0.27641	0.77976	0.72369	-0.118
Mof_S 	S 	0.40998	0.77063	0.67458	-0.127
Mof_S 	S 	0.25359	0.83595	0.66949	-0.119
Mof_S 	S 	0.24224	0.89271	0.61368	-0.131
Mof_S 	S 	0.52042	0.86007	0.52151	-0.117
Mof_S 	S 	0.36126	0.75479	0.73175	-0.122
Mof_S 	S 	0.47211	0.78236	0.625	-0.121
Mof_S 	S 	0.30727	0.72771	0.67238	-0.113
Mof_S 	S 	0.3931	0.8305	0.73162	-0.119
Mof_S 	S 	0.5279	0.79321	0.56713	-0.12
Mof_S 	S 	0.3163	0.85011	0.72629	-0.126
Mof_S 	S 	0.30512	0.69915	0.74018	-0.109
Mof_C 	C 	0.4364	0.7484	0.6938	0.012
Mof_C 	C 	0.4549	0.7259	0.7291	0.002
Mof_C 	C 	0.4337	0.7411	0.7184	-0.01
Mof_C 	C 	0.4515	0.7667	0.7066	-0.019
Mof_C 	C 	0.2449	0.2704	0.209	0.01
Mof_C 	C 	0.2199	0.2667	0.2233	-0.009
Mof_C 	C 	0.1931	0.2613	0.2125	0.002
Mof_C 	C 	0.1915	0.2573	0.1869	-0.004
Mof_C 	C 	0.2151	0.2599	0.172	0.008
Mof_C 	C 	0.2412	0.2677	0.183	-0.028
Mof_C 	C 	0.5184	0.2596	0.0656	0.011
Mof_C 	C 	0.5173	0.2458	0.0432	-0.028
Mof_C 	C 	0.5113	0.2179	0.0431	0.005
Mof_C 	C 	0.5075	0.2045	0.0633	-0.004
Mof_C 	C 	0.5092	0.2194	0.0848	0.005
Mof_C 	C 	0.5154	0.2458	0.0859	-0.014
Mof_C 	C 	0.4117	0.2456	0.0492	0.017
Mof_C 	C 	0.3852	0.2353	0.0467	-0.022
Mof_C 	C 	0.3761	0.2104	0.0335	0.005
Mof_C 	C 	0.3981	0.1998	0.0211	-0.004
Mof_C 	C 	0.4273	0.2062	0.0246	0.003
Mof_C 	C 	0.4339	0.2272	0.0395	-0.012
Mof_C 	C 	0.2289	0.3471	0.1918	0.012
Mof_C 	C 	0.206	0.3298	0.1975	-0.008
Mof_C 	C 	0.1853	0.3387	0.2148	0.002
Mof_C 	C 	0.1864	0.365	0.2265	-0.003
Mof_C 	C 	0.21	0.3809	0.221	0.005
Mof_C 	C 	0.2313	0.3717	0.2026	-0.025
Mof_C 	C 	0.2567	0.2646	0.1126	0.018
Mof_C 	C 	0.2597	0.24	0.1185	-0.02
Mof_C 	C 	0.2367	0.222	0.1082	0.004
Mof_C 	C 	0.2148	0.2332	0.0915	-0.003
Mof_C 	C 	0.2097	0.2607	0.0911	0.003
Mof_C 	C 	0.2316	0.2764	0.106	-0.012
Mof_C 	C 	0.2403	0.3134	0.0513	0.016
Mof_C 	C 	0.2556	0.2947	0.0416	-0.029
Mof_C 	C 	0.2444	0.2759	0.0263	0.007
Mof_C 	C 	0.215	0.2779	0.0171	-0.005
Mof_C 	C 	0.1964	0.2965	0.0277	0.003
Mof_C 	C 	0.2103	0.3155	0.0459	-0.009
Mof_C 	C 	0.2946	0.3346	0.997	0.016
Mof_C 	C 	0.3084	0.3121	0.9916	-0.022
Mof_C 	C 	0.2966	0.2936	0.9764	0.007
Mof_C 	C 	0.2696	0.2987	0.9646	-0.006
Mof_C 	C 	0.2575	0.3219	0.9693	0.008
Mof_C 	C 	0.2669	0.336	0.987	-0.019
Mof_C 	C 	0.3441	0.226	0.0984	0.011
Mof_C 	C 	0.3225	0.2342	0.083	-0.028
Mof_C 	C 	0.3056	0.2164	0.0665	0.004
Mof_C 	C 	0.3137	0.188	0.0689	-0.003
Mof_C 	C 	0.3394	0.1814	0.0858	0.002
Mof_C 	C 	0.3527	0.2006	0.1025	-0.006
Mof_C 	C 	0.3347	0.2027	0.1682	0.01
Mof_C 	C 	0.322	0.1783	0.1617	-0.006
Mof_C 	C 	0.344	0.1609	0.1566	0.002
Mof_C 	C 	0.3719	0.1638	0.1639	-0.004
Mof_C 	C 	0.3828	0.1864	0.168	0.006
Mof_C 	C 	0.3626	0.2091	0.1713	-0.027
Mof_C 	C 	0.28664	0.36283	0.24656	0.011
Mof_C 	C 	0.2803	0.38916	0.2465	-0.021
Mof_C 	C 	0.2581	0.39867	0.26142	0.006
Mof_C 	C 	0.2423	0.3818	0.27641	-0.004
Mof_C 	C 	0.2487	0.3555	0.27647	0.004
Mof_C 	C 	0.27082	0.346	0.26155	-0.013
Mof_C 	C 	0.3585	0.26531	0.26	0.022
Mof_C 	C 	0.3413	0.28678	0.2649	-0.036
Mof_C 	C 	0.3372	0.29509	0.28937	0.009
Mof_C 	C 	0.3503	0.2819	0.309	-0.006
Mof_C 	C 	0.3675	0.2605	0.3042	0.004
Mof_C 	C 	0.3717	0.2522	0.2797	-0.011
Mof_C 	C 	0.425	0.31139	0.2461	0.001
Mof_C 	C 	0.4223	0.30115	0.2701	-0.005
Mof_C 	C 	0.446	0.28968	0.2816	0.002
Mof_C 	C 	0.4723	0.28844	0.2692	-0.003
Mof_C 	C 	0.475	0.29867	0.2453	0.006
Mof_C 	C 	0.4513	0.31015	0.2337	-0.024
Mof_C 	C 	0.2061	0.3982	0.1283	0.013
Mof_C 	C 	0.2086	0.3769	0.1441	-0.019
Mof_C 	C 	0.1858	0.3702	0.1597	0.005
Mof_C 	C 	0.1607	0.3849	0.1597	-0.004
Mof_C 	C 	0.1582	0.4062	0.1439	0.004
Mof_C 	C 	0.181	0.4129	0.1283	-0.014
Mof_C 	C 	0.3837	0.3017	0.9896	0.012
Mof_C 	C 	0.3744	0.2793	0.0017	-0.029
Mof_C 	C 	0.365	0.2572	0.9846	0.005
Mof_C 	C 	0.3671	0.2585	0.9592	-0.004
Mof_C 	C 	0.3761	0.281	0.9495	0.003
Mof_C 	C 	0.387	0.3026	0.9646	-0.008
Mof_C 	C 	0.4735	0.3106	0.9776	0.011
Mof_C 	C 	0.4857	0.299	0.9572	-0.017
Mof_C 	C 	0.4853	0.3123	0.9328	0.003
Mof_C 	C 	0.4743	0.3386	0.931	-0.003
Mof_C 	C 	0.4653	0.3517	0.9548	0.007
Mof_C 	C 	0.4637	0.3365	0.9761	-0.029
Mof_C 	C 	0.5002	0.279	0.1471	0.011
Mof_C 	C 	0.509	0.2538	0.1523	-0.007
Mof_C 	C 	0.5315	0.2494	0.169	0.003
Mof_C 	C 	0.5452	0.2702	0.1804	-0.004
Mof_C 	C 	0.5364	0.2954	0.1752	0.007
Mof_C 	C 	0.514	0.2998	0.1585	-0.03
Mof_C 	C 	0.5533	0.3697	0.0335	0.014
Mof_C 	C 	0.5755	0.3791	0.017	-0.007
Mof_C 	C 	0.6042	0.3855	0.026	0.002
Mof_C 	C 	0.6089	0.3852	0.0542	-0.002
Mof_C 	C 	0.5853	0.3745	0.0719	0.005
Mof_C 	C 	0.5585	0.3675	0.0596	-0.026
Mof_C 	C 	0.3388	0.1901	0.2529	0.009
Mof_C 	C 	0.3447	0.1945	0.2796	-0.02
Mof_C 	C 	0.3728	0.1871	0.2883	0.005
Mof_C 	C 	0.3932	0.1787	0.2726	-0.003
Mof_C 	C 	0.3876	0.1734	0.2463	0.003
Mof_C 	C 	0.3597	0.1804	0.2357	-0.009
Mof_Cd	Cd	0.35641	0.3398	0.146	0.253
Mof_Cd	Cd	0.29925	0.31788	0.092	0.269
Mof_Cd	Cd	0.41414	0.35793	0.09326	0.253
Mof_Cd	Cd	0.35245	0.33839	0.04	0.271
Mof_Cd	Cd	0.37675	0.28699	0.08957	0.271
Mof_Cd	Cd	0.27657	0.37468	0.14709	0.273
Mof_Cd	Cd	0.41788	0.36063	0.20043	0.271
Mof_Cd	Cd	0.43306	0.30938	0.03403	0.276
Mof_Cd	Cd	0.47996	0.37762	0.04745	0.278
Mof_Cd	Cd	0.29319	0.31778	0.19641	0.276
Mof_Cd	Cd	0.37619	0.2929	0.20529	0.276
Mof_Cd	Cd	0.43458	0.30729	0.15045	0.27
Mof_Cd	Cd	0.48966	0.31508	0.09424	0.276
Mof_Cd	Cd	0.32589	0.26496	0.14603	0.278
Mof_S 	S 	0.39599	0.32106	0.1197	-0.265
Mof_S 	S 	0.33784	0.30345	0.17338	-0.257
Mof_S 	S 	0.31571	0.35581	0.1193	-0.264
Mof_S 	S 	0.33547	0.2998	0.06284	-0.199
Mof_S 	S 	0.45446	0.33943	0.06685	-0.255
Mof_S 	S 	0.36439	0.24823	0.11749	-0.12
Mof_S 	S 	0.45761	0.34103	0.17642	-0.199
Mof_S 	S 	0.30987	0.35914	0.01721	-0.13
Mof_S 	S 	0.39297	0.32906	0.00834	-0.121
Mof_S 	S 	0.42157	0.27354	0.06476	-0.134
Mof_S 	S 	0.25228	0.33533	0.07331	-0.121
Mof_S 	S 	0.28232	0.28638	0.12614	-0.131
Mof_Cd	Cd	0.51865	0.31045	0.02404	0.284
Mof_Cd	Cd	0.31125	0.24211	0.21802	0.286
Mof_S 	S 	0.47236	0.29237	0.00537	-0.119
Mof_S 	S 	0.27641	0.27976	0.22369	-0.118
Mof_S 	S 	0.40998	0.27063	0.17458	-0.127
Mof_S 	S 	0.25359	0.33595	0.16949	-0.119
Mof_S 	S 	0.24224	0.39271	0.11368	-0.131
Mof_S 	S 	0.52042	0.36007	0.02151	-0.117
Mof_S 	S 	0.36126	0.25479	0.23175	-0.122
Mof_S 	S 	0.47211	0.28236	0.125	-0.121
Mof_S 	S 	0.30727	0.22771	0.17238	-0.113
Mof_S 	S 	0.3931	0.3305	0.23162	-0.119
Mof_S 	S 	0.5279	0.29321	0.06713	-0.12
Mof_S 	S 	0.3163	0.35011	0.22629	-0.126
Mof_S 	S 	0.30512	0.19915	0.24018	-0.109
Mof_C 	C 	0.4364	0.2484	0.1938	0.012
Mof_C 	C 	0.4549	0.2259	0.2291	0.002
Mof_C 	C 	0.4337	0.2411	0.2184	-0.01
Mof_C 	C 	0.4515	0.2667	0.2066	-0.019
Mof_S 	S 	0.125	0.625	0.81494	-0.264
Mof_S 	S 	0.125	0.625	0.92438	-0.267
Mof_S 	S 	0.125	0.125	0.31494	-0.264
Mof_S 	S 	0.125	0.125	0.42438	-0.267
Mof_S 	S 	0.625	0.625	0.31494	-0.264
Mof_S 	S 	0.625	0.625	0.42438	-0.267
Mof_S 	S 	0.625	0.125	0.81494	-0.264
Mof_S 	S 	0.625	0.125	0.92438	-0.267
Mof_S 	S 	0.375	0.375	0.06494	-0.264
Mof_S 	S 	0.375	0.375	0.17438	-0.267
Mof_S 	S 	0.375	0.875	0.56494	-0.264
Mof_S 	S 	0.375	0.875	0.67438	-0.267
Mof_S 	S 	0.875	0.875	0.06494	-0.264
Mof_S 	S 	0.875	0.875	0.17438	-0.267
Mof_S 	S 	0.875	0.375	0.56494	-0.264
Mof_S 	S 	0.875	0.375	0.67438	-0.267
_end
