data_functionalizedCrystal
_audit_creation_method	'EQeq! by Chris Wilmer'
_symmetry_space_group_name_H-M	'P1'
_symmetry_Int_Tables_number	1
_symmetry_cell_setting	triclinic
loop_
_symmetry_equiv_pos_as_xyz
  x,y,z
_cell_length_a	20.4489
_cell_length_b	20.4489
_cell_length_c	10.3928
_cell_angle_alpha	90
_cell_angle_beta	90
_cell_angle_gamma	120
loop_
_atom_site_label
_atom_site_type_symbol
_atom_site_fract_x
_atom_site_fract_y
_atom_site_fract_z
_atom_site_charge
Mof_Mn	Mn	0.61951	0.16515	0.491	0.784
Mof_O 	O 	0.42414	0.75874	0.00266	-0.758
Mof_O 	O 	0.51577	0.90422	0.96983	-0.322
Mof_C 	C 	0.6157	0.15359	0.7757	0.549
Mof_C 	C 	0.55401	0.98188	0.9881	-0.014
Mof_C 	C 	0.49281	0.78042	0.0116	0.337
Mof_C 	C 	0.56942	0.02681	0.8803	0.057
Mof_H 	H 	0.5587	0.0051	0.7988	0.017
Mof_O 	O 	0.6341	0.19155	0.27162	-0.806
Mof_O 	O 	0.51966	0.73742	0.0176	-0.399
Mof_C 	C 	0.57133	0.01291	0.1102	0.103
Mof_H 	H 	0.5616	0.9823	0.1821	0.021
Mof_C 	C 	0.61766	0.12377	0.2565	0.521
Mof_C 	C 	0.61814	0.1362	0.0157	0.34
Mof_H 	H 	0.6396	0.1881	0.0256	-0.173
Mof_C 	C 	0.6013	0.10543	0.8939	-0.36
Mof_O 	O 	0.59863	0.11666	0.67057	-0.453
Mof_C 	C 	0.60371	0.09113	0.1238	-0.31
Mof_O 	O 	0.61036	0.08228	0.35168	-0.407
Mof_O 	O 	0.64123	0.22165	0.7875	-0.768
Mof_C 	C 	0.54985	0.86399	0.0227	0.162
Mof_H 	H 	0.5488	0.8729	0.1152	-0.03
Mof_C 	C 	0.626	0.887	0.0026	-0.38
Mof_H 	H 	0.656	0.9406	0.014	0.16
Mof_H 	H 	0.6326	0.8739	0.9168	0.071
Mof_H 	H 	0.6416	0.8621	0.0633	0.144
Mof_Mn	Mn	0.83485	0.45435	0.491	0.785
Mof_O 	O 	0.24126	0.6654	0.00266	-0.757
Mof_O 	O 	0.09578	0.61155	0.96983	-0.321
Mof_C 	C 	0.84641	0.46211	0.7757	0.55
Mof_C 	C 	0.01812	0.57213	0.9881	-0.015
Mof_C 	C 	0.21958	0.71239	0.0116	0.337
Mof_C 	C 	0.97319	0.54261	0.8803	0.058
Mof_H 	H 	0.9949	0.5536	0.7988	0.017
Mof_O 	O 	0.80845	0.44255	0.27162	-0.806
Mof_O 	O 	0.26258	0.78224	0.0176	-0.397
Mof_C 	C 	0.98709	0.55842	0.1102	0.105
Mof_H 	H 	0.0177	0.5793	0.1821	0.021
Mof_C 	C 	0.87623	0.49389	0.2565	0.522
Mof_C 	C 	0.8638	0.48194	0.0157	0.341
Mof_H 	H 	0.8119	0.4515	0.0256	-0.173
Mof_C 	C 	0.89457	0.49587	0.8939	-0.362
Mof_O 	O 	0.88334	0.48197	0.67057	-0.453
Mof_C 	C 	0.90887	0.51258	0.1238	-0.311
Mof_O 	O 	0.91772	0.52808	0.35168	-0.407
Mof_O 	O 	0.77835	0.41958	0.7875	-0.768
Mof_C 	C 	0.13601	0.68586	0.0227	0.163
Mof_H 	H 	0.1271	0.6759	0.1152	-0.03
Mof_C 	C 	0.113	0.739	0.0026	-0.38
Mof_H 	H 	0.0594	0.7154	0.014	0.161
Mof_H 	H 	0.1261	0.7587	0.9168	0.071
Mof_H 	H 	0.1379	0.7795	0.0633	0.146
Mof_Mn	Mn	0.54565	0.38049	0.491	0.787
Mof_O 	O 	0.3346	0.57586	0.00266	-0.758
Mof_O 	O 	0.38845	0.48423	0.96983	-0.308
Mof_C 	C 	0.53789	0.3843	0.7757	0.558
Mof_C 	C 	0.42787	0.44599	0.9881	-0.063
Mof_C 	C 	0.28761	0.50719	0.0116	0.341
Mof_C 	C 	0.45739	0.43058	0.8803	0.096
Mof_H 	H 	0.4464	0.4413	0.7988	0.008
Mof_O 	O 	0.55745	0.3659	0.27162	-0.808
Mof_O 	O 	0.21776	0.48034	0.0176	-0.399
Mof_C 	C 	0.44158	0.42867	0.1102	0.171
Mof_H 	H 	0.4207	0.4384	0.1821	-0.009
Mof_C 	C 	0.50611	0.38234	0.2565	0.533
Mof_C 	C 	0.51806	0.38186	0.0157	0.37
Mof_H 	H 	0.5485	0.3604	0.0256	-0.183
Mof_C 	C 	0.50413	0.3987	0.8939	-0.385
Mof_O 	O 	0.51803	0.40137	0.67057	-0.454
Mof_C 	C 	0.48742	0.39629	0.1238	-0.34
Mof_O 	O 	0.47192	0.38964	0.35168	-0.406
Mof_O 	O 	0.58042	0.35877	0.7875	-0.77
Mof_C 	C 	0.31414	0.45015	0.0227	0.15
Mof_H 	H 	0.3241	0.4512	0.1152	-0.026
Mof_C 	C 	0.261	0.374	0.0026	-0.363
Mof_H 	H 	0.2846	0.344	0.014	0.153
Mof_H 	H 	0.2413	0.3674	0.9168	0.066
Mof_H 	H 	0.2205	0.3584	0.0633	0.139
Mof_Mn	Mn	0.38049	0.83485	0.991	0.656
Mof_O 	O 	0.57586	0.24126	0.50266	-0.808
Mof_O 	O 	0.48423	0.09578	0.46983	-0.327
Mof_C 	C 	0.3843	0.84641	0.2757	0.499
Mof_C 	C 	0.44599	0.01812	0.4881	0.094
Mof_C 	C 	0.50719	0.21958	0.5116	0.297
Mof_C 	C 	0.43058	0.97319	0.3803	-0.019
Mof_H 	H 	0.4413	0.9949	0.2988	0.058
Mof_O 	O 	0.3659	0.80845	0.77162	-0.777
Mof_O 	O 	0.48034	0.26258	0.5176	-0.443
Mof_C 	C 	0.42867	0.98709	0.6102	0.001
Mof_H 	H 	0.4384	0.0177	0.6821	0.032
Mof_C 	C 	0.38234	0.87623	0.7565	0.481
Mof_C 	C 	0.38186	0.8638	0.5157	0.157
Mof_H 	H 	0.3604	0.8119	0.5256	-0.127
Mof_C 	C 	0.3987	0.89457	0.3939	-0.203
Mof_O 	O 	0.40137	0.88334	0.17057	-0.395
Mof_C 	C 	0.39629	0.90887	0.6238	-0.225
Mof_O 	O 	0.38964	0.91772	0.85168	-0.397
Mof_O 	O 	0.35877	0.77835	0.2875	-0.738
Mof_C 	C 	0.45015	0.13601	0.5227	0.26
Mof_H 	H 	0.4512	0.1271	0.6152	-0.072
Mof_C 	C 	0.374	0.113	0.5026	-0.79
Mof_H 	H 	0.344	0.0594	0.514	0.251
Mof_H 	H 	0.3674	0.1261	0.4168	0.244
Mof_H 	H 	0.3584	0.1379	0.5633	0.247
Mof_Mn	Mn	0.16515	0.54565	0.991	0.656
Mof_O 	O 	0.75874	0.3346	0.50266	-0.808
Mof_O 	O 	0.90422	0.38845	0.46983	-0.325
Mof_C 	C 	0.15359	0.53789	0.2757	0.5
Mof_C 	C 	0.98188	0.42787	0.4881	0.092
Mof_C 	C 	0.78042	0.28761	0.5116	0.299
Mof_C 	C 	0.02681	0.45739	0.3803	-0.017
Mof_H 	H 	0.0051	0.4464	0.2988	0.057
Mof_O 	O 	0.19155	0.55745	0.77162	-0.777
Mof_O 	O 	0.73742	0.21776	0.5176	-0.444
Mof_C 	C 	0.01291	0.44158	0.6102	0.002
Mof_H 	H 	0.9823	0.4207	0.6821	0.031
Mof_C 	C 	0.12377	0.50611	0.7565	0.481
Mof_C 	C 	0.1362	0.51806	0.5157	0.158
Mof_H 	H 	0.1881	0.5485	0.5256	-0.127
Mof_C 	C 	0.10543	0.50413	0.3939	-0.203
Mof_O 	O 	0.11666	0.51803	0.17057	-0.396
Mof_C 	C 	0.09113	0.48742	0.6238	-0.226
Mof_O 	O 	0.08228	0.47192	0.85168	-0.398
Mof_O 	O 	0.22165	0.58042	0.2875	-0.738
Mof_C 	C 	0.86399	0.31414	0.5227	0.253
Mof_H 	H 	0.8729	0.3241	0.6152	-0.07
Mof_C 	C 	0.887	0.261	0.5026	-0.777
Mof_H 	H 	0.9406	0.2846	0.514	0.246
Mof_H 	H 	0.8739	0.2413	0.4168	0.239
Mof_H 	H 	0.8621	0.2205	0.5633	0.242
Mof_Mn	Mn	0.45435	0.61951	0.991	0.655
Mof_O 	O 	0.6654	0.42414	0.50266	-0.806
Mof_O 	O 	0.61155	0.51577	0.46983	-0.338
Mof_C 	C 	0.46211	0.6157	0.2757	0.492
Mof_C 	C 	0.57213	0.55401	0.4881	0.141
Mof_C 	C 	0.71239	0.49281	0.5116	0.294
Mof_C 	C 	0.54261	0.56942	0.3803	-0.058
Mof_H 	H 	0.5536	0.5587	0.2988	0.067
Mof_O 	O 	0.44255	0.6341	0.77162	-0.775
Mof_O 	O 	0.78224	0.51966	0.5176	-0.442
Mof_C 	C 	0.55842	0.57133	0.6102	-0.057
Mof_H 	H 	0.5793	0.5616	0.6821	0.057
Mof_C 	C 	0.49389	0.61766	0.7565	0.471
Mof_C 	C 	0.48194	0.61814	0.5157	0.134
Mof_H 	H 	0.4515	0.6396	0.5256	-0.119
Mof_C 	C 	0.49587	0.6013	0.3939	-0.182
Mof_O 	O 	0.48197	0.59863	0.17057	-0.396
Mof_C 	C 	0.51258	0.60371	0.6238	-0.199
Mof_O 	O 	0.52808	0.61036	0.85168	-0.398
Mof_O 	O 	0.41958	0.64123	0.2875	-0.736
Mof_C 	C 	0.68586	0.54985	0.5227	0.271
Mof_H 	H 	0.6759	0.5488	0.6152	-0.075
Mof_C 	C 	0.739	0.626	0.5026	-0.807
Mof_H 	H 	0.7154	0.656	0.514	0.258
Mof_H 	H 	0.7587	0.6326	0.4168	0.25
Mof_H 	H 	0.7795	0.6416	0.5633	0.252
Mof_Na	Na	0.33333	0.66667	0.17752	2.698
Mof_Na	Na	0.66667	0.33333	0.67752	2.609
Mof_K 	K 	0.66667	0.33333	0.26643	3.401
Mof_K 	K 	0.33333	0.66667	0.76643	3.149
_end
