data_functionalizedCrystal
_audit_creation_method	'EQeq! by Chris Wilmer'
_symmetry_space_group_name_H-M	'P1'
_symmetry_Int_Tables_number	1
_symmetry_cell_setting	triclinic
loop_
_symmetry_equiv_pos_as_xyz
  x,y,z
_cell_length_a	12.9147
_cell_length_b	12.9147
_cell_length_c	12.9147
_cell_angle_alpha	90
_cell_angle_beta	90
_cell_angle_gamma	90
loop_
_atom_site_label
_atom_site_type_symbol
_atom_site_fract_x
_atom_site_fract_y
_atom_site_fract_z
_atom_site_charge
Mof_N 	N 	0.64311	0.94068	0.95666	-0.011
Mof_N 	N 	0.7255	0.98155	0.96628	0.095
Mof_N 	N 	0.80685	0.01692	0.97285	-0.164
Mof_N 	N 	0.85689	0.05932	0.45666	-0.078
Mof_N 	N 	0.7745	0.01845	0.46628	-0.117
Mof_N 	N 	0.69315	0.98308	0.47285	-0.106
Mof_N 	N 	0.35689	0.44068	0.54334	-0.147
Mof_N 	N 	0.2745	0.48155	0.53372	-0.032
Mof_N 	N 	0.19315	0.51692	0.52715	-0.249
Mof_N 	N 	0.14311	0.55932	0.04334	-0.169
Mof_N 	N 	0.2255	0.51845	0.03372	-0.05
Mof_N 	N 	0.30685	0.48308	0.02715	-0.271
Mof_N 	N 	0.95666	0.64311	0.94068	-0.011
Mof_N 	N 	0.96628	0.7255	0.98155	0.095
Mof_N 	N 	0.97285	0.80685	0.01692	-0.164
Mof_N 	N 	0.45666	0.85689	0.05932	-0.078
Mof_N 	N 	0.46628	0.7745	0.01845	-0.117
Mof_N 	N 	0.47285	0.69315	0.98308	-0.106
Mof_N 	N 	0.54334	0.35689	0.44068	-0.147
Mof_N 	N 	0.53372	0.2745	0.48155	-0.032
Mof_N 	N 	0.52715	0.19315	0.51692	-0.249
Mof_N 	N 	0.04334	0.14311	0.55932	-0.169
Mof_N 	N 	0.03372	0.2255	0.51845	-0.05
Mof_N 	N 	0.02715	0.30685	0.48308	-0.271
Mof_N 	N 	0.94068	0.95666	0.64311	-0.011
Mof_N 	N 	0.98155	0.96628	0.7255	0.095
Mof_N 	N 	0.01692	0.97285	0.80685	-0.164
Mof_N 	N 	0.05932	0.45666	0.85689	-0.078
Mof_N 	N 	0.01845	0.46628	0.7745	-0.117
Mof_N 	N 	0.98308	0.47285	0.69315	-0.106
Mof_N 	N 	0.44068	0.54334	0.35689	-0.147
Mof_N 	N 	0.48155	0.53372	0.2745	-0.032
Mof_N 	N 	0.51692	0.52715	0.19315	-0.249
Mof_N 	N 	0.55932	0.04334	0.14311	-0.169
Mof_N 	N 	0.51845	0.03372	0.2255	-0.05
Mof_N 	N 	0.48308	0.02715	0.30685	-0.271
Mof_N 	N 	0.35689	0.05932	0.04334	-0.159
Mof_N 	N 	0.2745	0.01845	0.03372	-0.149
Mof_N 	N 	0.19315	0.98308	0.02715	-0.089
Mof_N 	N 	0.14311	0.94068	0.54334	-0.101
Mof_N 	N 	0.2255	0.98155	0.53372	0.072
Mof_N 	N 	0.30685	0.01692	0.52715	-0.334
Mof_N 	N 	0.64311	0.55932	0.45666	-0.135
Mof_N 	N 	0.7255	0.51845	0.46628	-0.024
Mof_N 	N 	0.80685	0.48308	0.47285	-0.198
Mof_N 	N 	0.85689	0.44068	0.95666	-0.009
Mof_N 	N 	0.7745	0.48155	0.96628	0.002
Mof_N 	N 	0.69315	0.51692	0.97285	-0.169
Mof_N 	N 	0.04334	0.35689	0.05932	-0.159
Mof_N 	N 	0.03372	0.2745	0.01845	-0.149
Mof_N 	N 	0.02715	0.19315	0.98308	-0.089
Mof_N 	N 	0.54334	0.14311	0.94068	-0.101
Mof_N 	N 	0.53372	0.2255	0.98155	0.072
Mof_N 	N 	0.52715	0.30685	0.01692	-0.334
Mof_N 	N 	0.45666	0.64311	0.55932	-0.135
Mof_N 	N 	0.46628	0.7255	0.51845	-0.024
Mof_N 	N 	0.47285	0.80685	0.48308	-0.198
Mof_N 	N 	0.95666	0.85689	0.44068	-0.009
Mof_N 	N 	0.96628	0.7745	0.48155	0.002
Mof_N 	N 	0.97285	0.69315	0.51692	-0.169
Mof_N 	N 	0.05932	0.04334	0.35689	-0.159
Mof_N 	N 	0.01845	0.03372	0.2745	-0.149
Mof_N 	N 	0.98308	0.02715	0.19315	-0.089
Mof_N 	N 	0.94068	0.54334	0.14311	-0.101
Mof_N 	N 	0.98155	0.53372	0.2255	0.072
Mof_N 	N 	0.01692	0.52715	0.30685	-0.334
Mof_N 	N 	0.55932	0.45666	0.64311	-0.135
Mof_N 	N 	0.51845	0.46628	0.7255	-0.024
Mof_N 	N 	0.48308	0.47285	0.80685	-0.198
Mof_N 	N 	0.44068	0.95666	0.85689	-0.009
Mof_N 	N 	0.48155	0.96628	0.7745	0.002
Mof_N 	N 	0.51692	0.97285	0.69315	-0.169
Mof_Fe	Fe	0.5	0	-0	0.331
Mof_Fe	Fe	1.8747e-33	0	0.5	0.331
Mof_Fe	Fe	0.5	0.5	0.5	0.713
Mof_Fe	Fe	-0	0.5	-0	0.331
Mof_Na	Na	-0	0	-0	0.88
Mof_Na	Na	0.5	0	0.5	1.73
Mof_Na	Na	1.8747e-33	0.5	0.5	1.73
Mof_Na	Na	0.5	0.5	-0	1.73
_end
