data_functionalizedCrystal
_audit_creation_method	'EQeq! by Chris Wilmer'
_symmetry_space_group_name_H-M	'P1'
_symmetry_Int_Tables_number	1
_symmetry_cell_setting	triclinic
loop_
_symmetry_equiv_pos_as_xyz
  x,y,z
_cell_length_a	5.0979
_cell_length_b	15.2338
_cell_length_c	16.4247
_cell_angle_alpha	90
_cell_angle_beta	95.668
_cell_angle_gamma	90
loop_
_atom_site_label
_atom_site_type_symbol
_atom_site_fract_x
_atom_site_fract_y
_atom_site_fract_z
_atom_site_charge
Mof_Co	Co	0.9654	0.67711	0.2165	1.17
Mof_Co	Co	0.3433	0.80262	0.08222	1.158
Mof_Co	Co	0.0104	0.92849	0.82041	1.159
Mof_P 	P 	0.4151	0.59991	0.13049	0.499
Mof_P 	P 	0.9244	0.86946	0.1622	0.523
Mof_P 	P 	0.4761	0.88591	0.91248	0.519
Mof_O 	O 	0.2905	0.9597	0.9332	-0.478
Mof_O 	O 	0.0294	0.8852	0.0771	-0.569
Mof_O 	O 	0.7572	0.9206	0.906	-0.485
Mof_O 	O 	0.1042	0.7949	0.2011	-0.51
Mof_O 	O 	0.7178	0.6095	0.1428	-0.433
Mof_O 	O 	0.8065	0.8859	0.7163	-0.555
Mof_O 	O 	0.3483	0.8539	0.8256	-0.563
Mof_O 	O 	0.6372	0.8397	0.1585	-0.462
Mof_O 	O 	0.2929	0.6727	0.0735	-0.442
Mof_O 	O 	0.479	0.8089	0.9717	-0.381
Mof_O 	O 	0.0342	0.0489	0.7824	-0.452
Mof_O 	O 	0.3341	0.51	0.0974	-0.213
Mof_Co	Co	0.5346	0.17711	0.2835	1.161
Mof_Co	Co	0.1567	0.30262	0.41778	1.163
Mof_Co	Co	0.4896	0.42849	0.67959	1.16
Mof_P 	P 	0.0849	0.09991	0.36951	0.479
Mof_P 	P 	0.5756	0.36946	0.3378	0.494
Mof_P 	P 	0.0239	0.38591	0.58752	0.494
Mof_O 	O 	0.2095	0.4597	0.5668	-0.535
Mof_O 	O 	0.4706	0.3852	0.4229	-0.55
Mof_O 	O 	0.7428	0.4206	0.594	-0.518
Mof_O 	O 	0.3958	0.2949	0.2989	-0.502
Mof_O 	O 	0.7822	0.1095	0.3572	-0.424
Mof_O 	O 	0.6935	0.3859	0.7837	-0.563
Mof_O 	O 	0.1517	0.3539	0.6744	-0.573
Mof_O 	O 	0.8628	0.3397	0.3415	-0.45
Mof_O 	O 	0.2071	0.1727	0.4265	-0.425
Mof_O 	O 	0.021	0.3089	0.5283	-0.432
Mof_O 	O 	0.4658	0.5489	0.7176	-0.403
Mof_O 	O 	0.1659	0.01	0.4026	-0.226
Mof_Co	Co	0.0346	0.32289	0.7835	1.145
Mof_Co	Co	0.6567	0.19738	0.91778	1.183
Mof_Co	Co	0.9896	0.07151	0.17959	1.157
Mof_P 	P 	0.5849	0.40009	0.86951	0.5
Mof_P 	P 	0.0756	0.13054	0.8378	0.439
Mof_P 	P 	0.5239	0.11409	0.08752	0.515
Mof_O 	O 	0.7095	0.0403	0.0668	-0.563
Mof_O 	O 	0.9706	0.1148	0.9229	-0.496
Mof_O 	O 	0.2428	0.0794	0.094	-0.576
Mof_O 	O 	0.8958	0.2051	0.7989	-0.461
Mof_O 	O 	0.2822	0.3905	0.8572	-0.432
Mof_O 	O 	0.1935	0.1141	0.2837	-0.592
Mof_O 	O 	0.6517	0.1461	0.1744	-0.569
Mof_O 	O 	0.3628	0.1603	0.8415	-0.462
Mof_O 	O 	0.7071	0.3273	0.9265	-0.39
Mof_O 	O 	0.521	0.1911	0.0283	-0.458
Mof_O 	O 	0.9658	0.9511	0.2176	-0.361
Mof_O 	O 	0.6659	0.49	0.9026	-0.163
Mof_Co	Co	0.4654	0.82289	0.7165	1.163
Mof_Co	Co	0.8433	0.69738	0.58222	1.177
Mof_Co	Co	0.5104	0.57151	0.32041	1.159
Mof_P 	P 	0.9151	0.90009	0.63049	0.524
Mof_P 	P 	0.4244	0.63054	0.6622	0.495
Mof_P 	P 	0.9761	0.61409	0.41248	0.534
Mof_O 	O 	0.7905	0.5403	0.4332	-0.527
Mof_O 	O 	0.5294	0.6148	0.5771	-0.551
Mof_O 	O 	0.2572	0.5794	0.406	-0.554
Mof_O 	O 	0.6042	0.7051	0.7011	-0.489
Mof_O 	O 	0.2178	0.8905	0.6428	-0.439
Mof_O 	O 	0.3065	0.6141	0.2163	-0.582
Mof_O 	O 	0.8483	0.6461	0.3256	-0.562
Mof_O 	O 	0.1372	0.6603	0.6585	-0.479
Mof_O 	O 	0.7929	0.8273	0.5735	-0.41
Mof_O 	O 	0.979	0.6911	0.4717	-0.41
Mof_O 	O 	0.5342	0.4511	0.2824	-0.408
Mof_O 	O 	0.8341	0.99	0.5974	-0.147
Mof_Co	Co	-0	0	-0	1.093
Mof_Co	Co	0.5	0.5	0.5	1.162
_end
