data_functionalizedCrystal
_audit_creation_method	'EQeq! by Chris Wilmer'
_symmetry_space_group_name_H-M	'P1'
_symmetry_Int_Tables_number	1
_symmetry_cell_setting	triclinic
loop_
_symmetry_equiv_pos_as_xyz
  x,y,z
_cell_length_a	8.477
_cell_length_b	8.795
_cell_length_c	8.929
_cell_angle_alpha	92.248
_cell_angle_beta	95.825
_cell_angle_gamma	98.076
loop_
_atom_site_label
_atom_site_type_symbol
_atom_site_fract_x
_atom_site_fract_y
_atom_site_fract_z
_atom_site_charge
Mof_Ga	Ga	0.01132	0.48296	0.25211	3.622
Mof_Ga	Ga	0.98868	0.51704	0.74789	3.71
Mof_P 	P 	0.23569	0.56332	0.5309	0.678
Mof_P 	P 	0.99446	0.73159	0.01901	0.733
Mof_P 	P 	0.76431	0.43668	0.4691	0.678
Mof_P 	P 	0.00554	0.26841	0.98099	0.728
Mof_H 	H 	-0	0	-0	0.164
Mof_H 	H 	0.5	0.5	0.5	0.231
Mof_O 	O 	0.41811	0.5765	0.56685	-0.282
Mof_O 	O 	0.1773	0.71519	0.52304	-0.391
Mof_O 	O 	0.0827	0.63926	0.13644	-1.017
Mof_O 	O 	0.8227	0.28481	0.47696	-0.398
Mof_O 	O 	0.18252	0.3027	0.98361	-0.357
Mof_O 	O 	0.16074	0.47087	0.65759	-1.007
Mof_O 	O 	0.93693	0.09956	0.93595	-0.269
Mof_O 	O 	0.81748	0.6973	0.01639	-0.363
Mof_O 	O 	0.94995	0.30463	0.13687	-0.977
Mof_O 	O 	0.81094	0.53706	0.61908	-0.975
Mof_O 	O 	0.9173	0.36074	0.86356	-1.017
Mof_O 	O 	0.06307	0.90044	0.06405	-0.274
Mof_O 	O 	0.05005	0.69537	0.86313	-0.977
Mof_O 	O 	0.58189	0.4235	0.43315	-0.288
Mof_O 	O 	0.18906	0.46294	0.38092	-0.968
Mof_O 	O 	0.83926	0.52913	0.34241	-0.984
_end
