data_functionalizedCrystal
_audit_creation_method	'EQeq! by Chris Wilmer'
_symmetry_space_group_name_H-M	'P1'
_symmetry_Int_Tables_number	1
_symmetry_cell_setting	triclinic
loop_
_symmetry_equiv_pos_as_xyz
  x,y,z
_cell_length_a	9.885
_cell_length_b	10.02
_cell_length_c	16.438
_cell_angle_alpha	90
_cell_angle_beta	90
_cell_angle_gamma	90
loop_
_atom_site_label
_atom_site_type_symbol
_atom_site_fract_x
_atom_site_fract_y
_atom_site_fract_z
_atom_site_charge
Mof_Zn	Zn	0.1438	0.5966	0.29665	1.233
Mof_P 	P 	0.4271	0.6373	0.2128	0.442
Mof_C 	C 	0.359	0.588	0.1178	-0.151
Mof_C 	C 	0.416	0.659	0.0452	-0.133
Mof_C 	C 	0.139	0.611	0.4616	0.344
Mof_O 	O 	0.338	0.5814	0.2798	-0.45
Mof_O 	O 	0.0711	0.4174	0.2809	-0.404
Mof_O 	O 	0.0664	0.7107	0.2124	-0.426
Mof_O 	O 	0.084	0.666	0.4013	-0.451
Mof_O 	O 	0.227	0.526	0.4586	-0.296
Mof_H 	H 	0.74498	0.39509	0.38082	0.059
Mof_H 	H 	0.87873	0.5229	0.39214	0.068
Mof_H 	H 	0.03061	0.35367	0.45449	0.085
Mof_H 	H 	0.89178	0.23	0.45038	0.083
Mof_Zn	Zn	0.3562	0.9034	0.29665	1.232
Mof_P 	P 	0.0729	0.8627	0.2128	0.44
Mof_C 	C 	0.141	0.912	0.1178	-0.152
Mof_C 	C 	0.084	0.841	0.0452	-0.135
Mof_C 	C 	0.361	0.889	0.4616	0.344
Mof_O 	O 	0.162	0.9186	0.2798	-0.451
Mof_O 	O 	0.4289	0.0826	0.2809	-0.404
Mof_O 	O 	0.4336	0.7893	0.2124	-0.426
Mof_O 	O 	0.416	0.834	0.4013	-0.451
Mof_O 	O 	0.273	0.974	0.4586	-0.296
Mof_H 	H 	0.75502	0.10491	0.38082	0.059
Mof_H 	H 	0.62127	0.9771	0.39214	0.069
Mof_H 	H 	0.46939	0.14633	0.45449	0.084
Mof_H 	H 	0.60822	0.27	0.45038	0.083
Mof_Zn	Zn	0.8562	0.0966	0.20335	1.232
Mof_P 	P 	0.5729	0.1373	0.2872	0.442
Mof_C 	C 	0.641	0.088	0.3822	-0.151
Mof_C 	C 	0.584	0.159	0.4548	-0.133
Mof_C 	C 	0.861	0.111	0.0384	0.343
Mof_O 	O 	0.662	0.0814	0.2202	-0.451
Mof_O 	O 	0.9289	0.9174	0.2191	-0.402
Mof_O 	O 	0.9336	0.2107	0.2876	-0.427
Mof_O 	O 	0.916	0.166	0.0987	-0.452
Mof_O 	O 	0.773	0.026	0.0414	-0.296
Mof_H 	H 	0.25502	0.89509	0.11918	0.06
Mof_H 	H 	0.12127	0.0229	0.10786	0.07
Mof_H 	H 	0.96939	0.85367	0.04551	0.086
Mof_H 	H 	0.10822	0.73	0.04962	0.083
Mof_Zn	Zn	0.6438	0.4034	0.20335	1.232
Mof_P 	P 	0.9271	0.3627	0.2872	0.441
Mof_C 	C 	0.859	0.412	0.3822	-0.15
Mof_C 	C 	0.916	0.341	0.4548	-0.135
Mof_C 	C 	0.639	0.389	0.0384	0.343
Mof_O 	O 	0.838	0.4186	0.2202	-0.45
Mof_O 	O 	0.5711	0.5826	0.2191	-0.404
Mof_O 	O 	0.5664	0.2893	0.2876	-0.426
Mof_O 	O 	0.584	0.334	0.0987	-0.451
Mof_O 	O 	0.727	0.474	0.0414	-0.296
Mof_H 	H 	0.24498	0.60491	0.11918	0.059
Mof_H 	H 	0.37873	0.4771	0.10786	0.068
Mof_H 	H 	0.53061	0.64633	0.04551	0.084
Mof_H 	H 	0.39178	0.77	0.04962	0.083
Mof_Zn	Zn	0.8562	0.4034	0.70335	1.232
Mof_P 	P 	0.5729	0.3627	0.7872	0.441
Mof_C 	C 	0.641	0.412	0.8822	-0.151
Mof_C 	C 	0.584	0.341	0.9548	-0.133
Mof_C 	C 	0.861	0.389	0.5384	0.344
Mof_O 	O 	0.662	0.4186	0.7202	-0.45
Mof_O 	O 	0.9289	0.5826	0.7191	-0.404
Mof_O 	O 	0.9336	0.2893	0.7876	-0.426
Mof_O 	O 	0.916	0.334	0.5987	-0.451
Mof_O 	O 	0.773	0.474	0.5414	-0.296
Mof_H 	H 	0.25502	0.60491	0.61918	0.059
Mof_H 	H 	0.12127	0.4771	0.60786	0.068
Mof_H 	H 	0.96939	0.64633	0.54551	0.085
Mof_H 	H 	0.10822	0.77	0.54962	0.083
Mof_Zn	Zn	0.6438	0.0966	0.70335	1.232
Mof_P 	P 	0.9271	0.1373	0.7872	0.44
Mof_C 	C 	0.859	0.088	0.8822	-0.152
Mof_C 	C 	0.916	0.159	0.9548	-0.135
Mof_C 	C 	0.639	0.111	0.5384	0.344
Mof_O 	O 	0.838	0.0814	0.7202	-0.451
Mof_O 	O 	0.5711	0.9174	0.7191	-0.404
Mof_O 	O 	0.5664	0.2107	0.7876	-0.426
Mof_O 	O 	0.584	0.166	0.5987	-0.451
Mof_O 	O 	0.727	0.026	0.5414	-0.296
Mof_H 	H 	0.24498	0.89509	0.61918	0.059
Mof_H 	H 	0.37873	0.0229	0.60786	0.069
Mof_H 	H 	0.53061	0.85367	0.54551	0.084
Mof_H 	H 	0.39178	0.73	0.54962	0.083
Mof_Zn	Zn	0.1438	0.9034	0.79665	1.232
Mof_P 	P 	0.4271	0.8627	0.7128	0.442
Mof_C 	C 	0.359	0.912	0.6178	-0.151
Mof_C 	C 	0.416	0.841	0.5452	-0.133
Mof_C 	C 	0.139	0.889	0.9616	0.343
Mof_O 	O 	0.338	0.9186	0.7798	-0.451
Mof_O 	O 	0.0711	0.0826	0.7809	-0.402
Mof_O 	O 	0.0664	0.7893	0.7124	-0.427
Mof_O 	O 	0.084	0.834	0.9013	-0.452
Mof_O 	O 	0.227	0.974	0.9586	-0.296
Mof_H 	H 	0.74498	0.10491	0.88082	0.06
Mof_H 	H 	0.87873	0.9771	0.89214	0.07
Mof_H 	H 	0.03061	0.14633	0.95449	0.086
Mof_H 	H 	0.89178	0.27	0.95038	0.083
Mof_Zn	Zn	0.3562	0.5966	0.79665	1.232
Mof_P 	P 	0.0729	0.6373	0.7128	0.441
Mof_C 	C 	0.141	0.588	0.6178	-0.15
Mof_C 	C 	0.084	0.659	0.5452	-0.135
Mof_C 	C 	0.361	0.611	0.9616	0.343
Mof_O 	O 	0.162	0.5814	0.7798	-0.45
Mof_O 	O 	0.4289	0.4174	0.7809	-0.404
Mof_O 	O 	0.4336	0.7107	0.7124	-0.426
Mof_O 	O 	0.416	0.666	0.9013	-0.451
Mof_O 	O 	0.273	0.526	0.9586	-0.296
Mof_H 	H 	0.75502	0.39509	0.88082	0.059
Mof_H 	H 	0.62127	0.5229	0.89214	0.068
Mof_H 	H 	0.46939	0.35367	0.95449	0.084
Mof_H 	H 	0.60822	0.23	0.95038	0.083
_end
