data_functionalizedCrystal
_audit_creation_method	'EQeq! by Chris Wilmer'
_symmetry_space_group_name_H-M	'P1'
_symmetry_Int_Tables_number	1
_symmetry_cell_setting	triclinic
loop_
_symmetry_equiv_pos_as_xyz
  x,y,z
_cell_length_a	25.928
_cell_length_b	25.928
_cell_length_c	25.928
_cell_angle_alpha	90
_cell_angle_beta	90
_cell_angle_gamma	90
loop_
_atom_site_label
_atom_site_type_symbol
_atom_site_fract_x
_atom_site_fract_y
_atom_site_fract_z
_atom_site_charge
Mof_C 	C 	0.0272	0.1515	0.3292	-0.123
Mof_C 	C 	0.0664	0.1649	0.2913	0.329
Mof_O 	O 	0.11115	0.14889	0.29957	-0.356
Mof_O 	O 	0.05564	0.1932	0.2531	-0.403
Mof_N 	N 	0.0436	0.1315	0.37504	-0.221
Mof_C 	C 	0.0272	0.6515	0.8292	-0.121
Mof_C 	C 	0.0664	0.6649	0.7913	0.33
Mof_O 	O 	0.11115	0.64889	0.79957	-0.353
Mof_O 	O 	0.05564	0.6932	0.7531	-0.399
Mof_N 	N 	0.0436	0.6315	0.87504	-0.217
Mof_C 	C 	0.5272	0.1515	0.8292	-0.068
Mof_C 	C 	0.5664	0.1649	0.7913	0.314
Mof_O 	O 	0.61115	0.14889	0.79957	-0.349
Mof_O 	O 	0.55564	0.1932	0.7531	-0.386
Mof_N 	N 	0.5436	0.1315	0.87504	-0.229
Mof_C 	C 	0.5272	0.6515	0.3292	-0.068
Mof_C 	C 	0.5664	0.6649	0.2913	0.315
Mof_O 	O 	0.61115	0.64889	0.29957	-0.348
Mof_O 	O 	0.55564	0.6932	0.2531	-0.386
Mof_N 	N 	0.5436	0.6315	0.37504	-0.231
Mof_C 	C 	0.9728	0.8485	0.3292	-0.006
Mof_C 	C 	0.9336	0.8351	0.2913	0.3
Mof_O 	O 	0.88885	0.85111	0.29957	-0.337
Mof_O 	O 	0.94436	0.8068	0.2531	-0.36
Mof_N 	N 	0.9564	0.8685	0.37504	-0.211
Mof_C 	C 	0.9728	0.3485	0.8292	-0.008
Mof_C 	C 	0.9336	0.3351	0.7913	0.299
Mof_O 	O 	0.88885	0.35111	0.79957	-0.339
Mof_O 	O 	0.94436	0.3068	0.7531	-0.36
Mof_N 	N 	0.9564	0.3685	0.87504	-0.211
Mof_C 	C 	0.4728	0.8485	0.8292	-0.064
Mof_C 	C 	0.4336	0.8351	0.7913	0.316
Mof_O 	O 	0.38885	0.85111	0.79957	-0.344
Mof_O 	O 	0.44436	0.8068	0.7531	-0.381
Mof_N 	N 	0.4564	0.8685	0.87504	-0.227
Mof_C 	C 	0.4728	0.3485	0.3292	-0.068
Mof_C 	C 	0.4336	0.3351	0.2913	0.314
Mof_O 	O 	0.38885	0.35111	0.29957	-0.348
Mof_O 	O 	0.44436	0.3068	0.2531	-0.386
Mof_N 	N 	0.4564	0.3685	0.37504	-0.232
Mof_C 	C 	0.9728	0.1515	0.6708	-0.009
Mof_C 	C 	0.9336	0.1649	0.7087	0.298
Mof_O 	O 	0.88885	0.14889	0.70043	-0.34
Mof_O 	O 	0.94436	0.1932	0.7469	-0.361
Mof_N 	N 	0.9564	0.1315	0.62496	-0.214
Mof_C 	C 	0.9728	0.6515	0.1708	-0.009
Mof_C 	C 	0.9336	0.6649	0.2087	0.298
Mof_O 	O 	0.88885	0.64889	0.20043	-0.339
Mof_O 	O 	0.94436	0.6932	0.2469	-0.361
Mof_N 	N 	0.9564	0.6315	0.12496	-0.214
Mof_C 	C 	0.4728	0.1515	0.1708	-0.07
Mof_C 	C 	0.4336	0.1649	0.2087	0.314
Mof_O 	O 	0.38885	0.14889	0.20043	-0.349
Mof_O 	O 	0.44436	0.1932	0.2469	-0.386
Mof_N 	N 	0.4564	0.1315	0.12496	-0.233
Mof_C 	C 	0.4728	0.6515	0.6708	-0.067
Mof_C 	C 	0.4336	0.6649	0.7087	0.315
Mof_O 	O 	0.38885	0.64889	0.70043	-0.345
Mof_O 	O 	0.44436	0.6932	0.7469	-0.382
Mof_N 	N 	0.4564	0.6315	0.62496	-0.231
Mof_C 	C 	0.0272	0.8485	0.6708	-0.12
Mof_C 	C 	0.0664	0.8351	0.7087	0.331
Mof_O 	O 	0.11115	0.85111	0.70043	-0.349
Mof_O 	O 	0.05564	0.8068	0.7469	-0.394
Mof_N 	N 	0.0436	0.8685	0.62496	-0.218
Mof_C 	C 	0.0272	0.3485	0.1708	-0.123
Mof_C 	C 	0.0664	0.3351	0.2087	0.329
Mof_O 	O 	0.11115	0.35111	0.20043	-0.354
Mof_O 	O 	0.05564	0.3068	0.2469	-0.399
Mof_N 	N 	0.0436	0.3685	0.12496	-0.221
Mof_C 	C 	0.5272	0.8485	0.1708	-0.066
Mof_C 	C 	0.5664	0.8351	0.2087	0.316
Mof_O 	O 	0.61115	0.85111	0.20043	-0.344
Mof_O 	O 	0.55564	0.8068	0.2469	-0.382
Mof_N 	N 	0.5436	0.8685	0.12496	-0.231
Mof_C 	C 	0.5272	0.3485	0.6708	-0.068
Mof_C 	C 	0.5664	0.3351	0.7087	0.315
Mof_O 	O 	0.61115	0.35111	0.70043	-0.346
Mof_O 	O 	0.55564	0.3068	0.7469	-0.382
Mof_N 	N 	0.5436	0.3685	0.62496	-0.232
Mof_C 	C 	0.3292	0.0272	0.1515	-0.124
Mof_C 	C 	0.2913	0.0664	0.1649	0.328
Mof_O 	O 	0.29957	0.11115	0.14889	-0.356
Mof_O 	O 	0.2531	0.05564	0.1932	-0.403
Mof_N 	N 	0.37504	0.0436	0.1315	-0.221
Mof_C 	C 	0.3292	0.5272	0.6515	-0.068
Mof_C 	C 	0.2913	0.5664	0.6649	0.315
Mof_O 	O 	0.29957	0.61115	0.64889	-0.348
Mof_O 	O 	0.2531	0.55564	0.6932	-0.386
Mof_N 	N 	0.37504	0.5436	0.6315	-0.231
Mof_C 	C 	0.8292	0.0272	0.6515	-0.121
Mof_C 	C 	0.7913	0.0664	0.6649	0.33
Mof_O 	O 	0.79957	0.11115	0.64889	-0.353
Mof_O 	O 	0.7531	0.05564	0.6932	-0.399
Mof_N 	N 	0.87504	0.0436	0.6315	-0.217
Mof_C 	C 	0.8292	0.5272	0.1515	-0.068
Mof_C 	C 	0.7913	0.5664	0.1649	0.314
Mof_O 	O 	0.79957	0.61115	0.14889	-0.349
Mof_O 	O 	0.7531	0.55564	0.1932	-0.386
Mof_N 	N 	0.87504	0.5436	0.1315	-0.229
Mof_C 	C 	0.3292	0.9728	0.8485	-0.006
Mof_C 	C 	0.2913	0.9336	0.8351	0.3
Mof_O 	O 	0.29957	0.88885	0.85111	-0.337
Mof_O 	O 	0.2531	0.94436	0.8068	-0.36
Mof_N 	N 	0.37504	0.9564	0.8685	-0.211
Mof_C 	C 	0.3292	0.4728	0.3485	-0.068
Mof_C 	C 	0.2913	0.4336	0.3351	0.314
Mof_O 	O 	0.29957	0.38885	0.35111	-0.348
Mof_O 	O 	0.2531	0.44436	0.3068	-0.386
Mof_N 	N 	0.37504	0.4564	0.3685	-0.232
Mof_C 	C 	0.8292	0.9728	0.3485	-0.008
Mof_C 	C 	0.7913	0.9336	0.3351	0.299
Mof_O 	O 	0.79957	0.88885	0.35111	-0.339
Mof_O 	O 	0.7531	0.94436	0.3068	-0.36
Mof_N 	N 	0.87504	0.9564	0.3685	-0.211
Mof_C 	C 	0.8292	0.4728	0.8485	-0.064
Mof_C 	C 	0.7913	0.4336	0.8351	0.316
Mof_O 	O 	0.79957	0.38885	0.85111	-0.344
Mof_O 	O 	0.7531	0.44436	0.8068	-0.381
Mof_N 	N 	0.87504	0.4564	0.8685	-0.227
Mof_C 	C 	0.6708	0.9728	0.1515	-0.009
Mof_C 	C 	0.7087	0.9336	0.1649	0.298
Mof_O 	O 	0.70043	0.88885	0.14889	-0.34
Mof_O 	O 	0.7469	0.94436	0.1932	-0.361
Mof_N 	N 	0.62496	0.9564	0.1315	-0.214
Mof_C 	C 	0.6708	0.4728	0.6515	-0.067
Mof_C 	C 	0.7087	0.4336	0.6649	0.315
Mof_O 	O 	0.70043	0.38885	0.64889	-0.345
Mof_O 	O 	0.7469	0.44436	0.6932	-0.382
Mof_N 	N 	0.62496	0.4564	0.6315	-0.231
Mof_C 	C 	0.1708	0.9728	0.6515	-0.009
Mof_C 	C 	0.2087	0.9336	0.6649	0.298
Mof_O 	O 	0.20043	0.88885	0.64889	-0.339
Mof_O 	O 	0.2469	0.94436	0.6932	-0.361
Mof_N 	N 	0.12496	0.9564	0.6315	-0.214
Mof_C 	C 	0.1708	0.4728	0.1515	-0.07
Mof_C 	C 	0.2087	0.4336	0.1649	0.314
Mof_O 	O 	0.20043	0.38885	0.14889	-0.349
Mof_O 	O 	0.2469	0.44436	0.1932	-0.386
Mof_N 	N 	0.12496	0.4564	0.1315	-0.233
Mof_C 	C 	0.6708	0.0272	0.8485	-0.12
Mof_C 	C 	0.7087	0.0664	0.8351	0.331
Mof_O 	O 	0.70043	0.11115	0.85111	-0.349
Mof_O 	O 	0.7469	0.05564	0.8068	-0.394
Mof_N 	N 	0.62496	0.0436	0.8685	-0.218
Mof_C 	C 	0.6708	0.5272	0.3485	-0.068
Mof_C 	C 	0.7087	0.5664	0.3351	0.315
Mof_O 	O 	0.70043	0.61115	0.35111	-0.346
Mof_O 	O 	0.7469	0.55564	0.3068	-0.382
Mof_N 	N 	0.62496	0.5436	0.3685	-0.232
Mof_C 	C 	0.1708	0.0272	0.3485	-0.123
Mof_C 	C 	0.2087	0.0664	0.3351	0.329
Mof_O 	O 	0.20043	0.11115	0.35111	-0.354
Mof_O 	O 	0.2469	0.05564	0.3068	-0.399
Mof_N 	N 	0.12496	0.0436	0.3685	-0.221
Mof_C 	C 	0.1708	0.5272	0.8485	-0.066
Mof_C 	C 	0.2087	0.5664	0.8351	0.316
Mof_O 	O 	0.20043	0.61115	0.85111	-0.344
Mof_O 	O 	0.2469	0.55564	0.8068	-0.382
Mof_N 	N 	0.12496	0.5436	0.8685	-0.231
Mof_C 	C 	0.1515	0.3292	0.0272	-0.124
Mof_C 	C 	0.1649	0.2913	0.0664	0.328
Mof_O 	O 	0.14889	0.29957	0.11115	-0.356
Mof_O 	O 	0.1932	0.2531	0.05564	-0.403
Mof_N 	N 	0.1315	0.37504	0.0436	-0.221
Mof_C 	C 	0.1515	0.8292	0.5272	-0.068
Mof_C 	C 	0.1649	0.7913	0.5664	0.314
Mof_O 	O 	0.14889	0.79957	0.61115	-0.349
Mof_O 	O 	0.1932	0.7531	0.55564	-0.386
Mof_N 	N 	0.1315	0.87504	0.5436	-0.229
Mof_C 	C 	0.6515	0.3292	0.5272	-0.068
Mof_C 	C 	0.6649	0.2913	0.5664	0.315
Mof_O 	O 	0.64889	0.29957	0.61115	-0.348
Mof_O 	O 	0.6932	0.2531	0.55564	-0.386
Mof_N 	N 	0.6315	0.37504	0.5436	-0.231
Mof_C 	C 	0.6515	0.8292	0.0272	-0.121
Mof_C 	C 	0.6649	0.7913	0.0664	0.33
Mof_O 	O 	0.64889	0.79957	0.11115	-0.353
Mof_O 	O 	0.6932	0.7531	0.05564	-0.399
Mof_N 	N 	0.6315	0.87504	0.0436	-0.217
Mof_C 	C 	0.8485	0.3292	0.9728	-0.006
Mof_C 	C 	0.8351	0.2913	0.9336	0.3
Mof_O 	O 	0.85111	0.29957	0.88885	-0.337
Mof_O 	O 	0.8068	0.2531	0.94436	-0.36
Mof_N 	N 	0.8685	0.37504	0.9564	-0.211
Mof_C 	C 	0.8485	0.8292	0.4728	-0.064
Mof_C 	C 	0.8351	0.7913	0.4336	0.316
Mof_O 	O 	0.85111	0.79957	0.38885	-0.344
Mof_O 	O 	0.8068	0.7531	0.44436	-0.381
Mof_N 	N 	0.8685	0.87504	0.4564	-0.227
Mof_C 	C 	0.3485	0.3292	0.4728	-0.068
Mof_C 	C 	0.3351	0.2913	0.4336	0.314
Mof_O 	O 	0.35111	0.29957	0.38885	-0.348
Mof_O 	O 	0.3068	0.2531	0.44436	-0.386
Mof_N 	N 	0.3685	0.37504	0.4564	-0.232
Mof_C 	C 	0.3485	0.8292	0.9728	-0.008
Mof_C 	C 	0.3351	0.7913	0.9336	0.299
Mof_O 	O 	0.35111	0.79957	0.88885	-0.339
Mof_O 	O 	0.3068	0.7531	0.94436	-0.36
Mof_N 	N 	0.3685	0.87504	0.9564	-0.211
Mof_C 	C 	0.1515	0.6708	0.9728	-0.009
Mof_C 	C 	0.1649	0.7087	0.9336	0.298
Mof_O 	O 	0.14889	0.70043	0.88885	-0.34
Mof_O 	O 	0.1932	0.7469	0.94436	-0.361
Mof_N 	N 	0.1315	0.62496	0.9564	-0.214
Mof_C 	C 	0.1515	0.1708	0.4728	-0.07
Mof_C 	C 	0.1649	0.2087	0.4336	0.314
Mof_O 	O 	0.14889	0.20043	0.38885	-0.349
Mof_O 	O 	0.1932	0.2469	0.44436	-0.386
Mof_N 	N 	0.1315	0.12496	0.4564	-0.233
Mof_C 	C 	0.6515	0.6708	0.4728	-0.067
Mof_C 	C 	0.6649	0.7087	0.4336	0.315
Mof_O 	O 	0.64889	0.70043	0.38885	-0.345
Mof_O 	O 	0.6932	0.7469	0.44436	-0.382
Mof_N 	N 	0.6315	0.62496	0.4564	-0.231
Mof_C 	C 	0.6515	0.1708	0.9728	-0.009
Mof_C 	C 	0.6649	0.2087	0.9336	0.298
Mof_O 	O 	0.64889	0.20043	0.88885	-0.339
Mof_O 	O 	0.6932	0.2469	0.94436	-0.361
Mof_N 	N 	0.6315	0.12496	0.9564	-0.214
Mof_C 	C 	0.8485	0.6708	0.0272	-0.12
Mof_C 	C 	0.8351	0.7087	0.0664	0.331
Mof_O 	O 	0.85111	0.70043	0.11115	-0.349
Mof_O 	O 	0.8068	0.7469	0.05564	-0.394
Mof_N 	N 	0.8685	0.62496	0.0436	-0.218
Mof_C 	C 	0.8485	0.1708	0.5272	-0.066
Mof_C 	C 	0.8351	0.2087	0.5664	0.316
Mof_O 	O 	0.85111	0.20043	0.61115	-0.344
Mof_O 	O 	0.8068	0.2469	0.55564	-0.382
Mof_N 	N 	0.8685	0.12496	0.5436	-0.231
Mof_C 	C 	0.3485	0.6708	0.5272	-0.068
Mof_C 	C 	0.3351	0.7087	0.5664	0.315
Mof_O 	O 	0.35111	0.70043	0.61115	-0.346
Mof_O 	O 	0.3068	0.7469	0.55564	-0.382
Mof_N 	N 	0.3685	0.62496	0.5436	-0.232
Mof_C 	C 	0.3485	0.1708	0.0272	-0.123
Mof_C 	C 	0.3351	0.2087	0.0664	0.329
Mof_O 	O 	0.35111	0.20043	0.11115	-0.354
Mof_O 	O 	0.3068	0.2469	0.05564	-0.399
Mof_N 	N 	0.3685	0.12496	0.0436	-0.221
Mof_C 	C 	0.9728	0.8485	0.6708	-0.006
Mof_C 	C 	0.9336	0.8351	0.7087	0.3
Mof_O 	O 	0.88885	0.85111	0.70043	-0.335
Mof_O 	O 	0.94436	0.8068	0.7469	-0.356
Mof_N 	N 	0.9564	0.8685	0.62496	-0.211
Mof_C 	C 	0.9728	0.3485	0.1708	-0.009
Mof_C 	C 	0.9336	0.3351	0.2087	0.298
Mof_O 	O 	0.88885	0.35111	0.20043	-0.339
Mof_O 	O 	0.94436	0.3068	0.2469	-0.361
Mof_N 	N 	0.9564	0.3685	0.12496	-0.214
Mof_C 	C 	0.4728	0.8485	0.1708	-0.066
Mof_C 	C 	0.4336	0.8351	0.2087	0.316
Mof_O 	O 	0.38885	0.85111	0.20043	-0.344
Mof_O 	O 	0.44436	0.8068	0.2469	-0.382
Mof_N 	N 	0.4564	0.8685	0.12496	-0.231
Mof_C 	C 	0.4728	0.3485	0.6708	-0.068
Mof_C 	C 	0.4336	0.3351	0.7087	0.315
Mof_O 	O 	0.38885	0.35111	0.70043	-0.346
Mof_O 	O 	0.44436	0.3068	0.7469	-0.382
Mof_N 	N 	0.4564	0.3685	0.62496	-0.232
Mof_C 	C 	0.0272	0.1515	0.6708	-0.123
Mof_C 	C 	0.0664	0.1649	0.7087	0.329
Mof_O 	O 	0.11115	0.14889	0.70043	-0.354
Mof_O 	O 	0.05564	0.1932	0.7469	-0.399
Mof_N 	N 	0.0436	0.1315	0.62496	-0.221
Mof_C 	C 	0.0272	0.6515	0.1708	-0.123
Mof_C 	C 	0.0664	0.6649	0.2087	0.329
Mof_O 	O 	0.11115	0.64889	0.20043	-0.353
Mof_O 	O 	0.05564	0.6932	0.2469	-0.399
Mof_N 	N 	0.0436	0.6315	0.12496	-0.221
Mof_C 	C 	0.5272	0.1515	0.1708	-0.07
Mof_C 	C 	0.5664	0.1649	0.2087	0.314
Mof_O 	O 	0.61115	0.14889	0.20043	-0.349
Mof_O 	O 	0.55564	0.1932	0.2469	-0.386
Mof_N 	N 	0.5436	0.1315	0.12496	-0.233
Mof_C 	C 	0.5272	0.6515	0.6708	-0.067
Mof_C 	C 	0.5664	0.6649	0.7087	0.315
Mof_O 	O 	0.61115	0.64889	0.70043	-0.345
Mof_O 	O 	0.55564	0.6932	0.7469	-0.382
Mof_N 	N 	0.5436	0.6315	0.62496	-0.231
Mof_C 	C 	0.0272	0.8485	0.3292	-0.12
Mof_C 	C 	0.0664	0.8351	0.2913	0.331
Mof_O 	O 	0.11115	0.85111	0.29957	-0.351
Mof_O 	O 	0.05564	0.8068	0.2531	-0.398
Mof_N 	N 	0.0436	0.8685	0.37504	-0.218
Mof_C 	C 	0.0272	0.3485	0.8292	-0.122
Mof_C 	C 	0.0664	0.3351	0.7913	0.33
Mof_O 	O 	0.11115	0.35111	0.79957	-0.353
Mof_O 	O 	0.05564	0.3068	0.7531	-0.399
Mof_N 	N 	0.0436	0.3685	0.87504	-0.218
Mof_C 	C 	0.5272	0.8485	0.8292	-0.064
Mof_C 	C 	0.5664	0.8351	0.7913	0.316
Mof_O 	O 	0.61115	0.85111	0.79957	-0.344
Mof_O 	O 	0.55564	0.8068	0.7531	-0.381
Mof_N 	N 	0.5436	0.8685	0.87504	-0.227
Mof_C 	C 	0.5272	0.3485	0.3292	-0.068
Mof_C 	C 	0.5664	0.3351	0.2913	0.314
Mof_O 	O 	0.61115	0.35111	0.29957	-0.348
Mof_O 	O 	0.55564	0.3068	0.2531	-0.386
Mof_N 	N 	0.5436	0.3685	0.37504	-0.232
Mof_C 	C 	0.9728	0.1515	0.3292	-0.01
Mof_C 	C 	0.9336	0.1649	0.2913	0.298
Mof_O 	O 	0.88885	0.14889	0.29957	-0.342
Mof_O 	O 	0.94436	0.1932	0.2531	-0.364
Mof_N 	N 	0.9564	0.1315	0.37504	-0.214
Mof_C 	C 	0.9728	0.6515	0.8292	-0.007
Mof_C 	C 	0.9336	0.6649	0.7913	0.299
Mof_O 	O 	0.88885	0.64889	0.79957	-0.339
Mof_O 	O 	0.94436	0.6932	0.7531	-0.36
Mof_N 	N 	0.9564	0.6315	0.87504	-0.21
Mof_C 	C 	0.4728	0.1515	0.8292	-0.068
Mof_C 	C 	0.4336	0.1649	0.7913	0.314
Mof_O 	O 	0.38885	0.14889	0.79957	-0.349
Mof_O 	O 	0.44436	0.1932	0.7531	-0.386
Mof_N 	N 	0.4564	0.1315	0.87504	-0.229
Mof_C 	C 	0.4728	0.6515	0.3292	-0.068
Mof_C 	C 	0.4336	0.6649	0.2913	0.315
Mof_O 	O 	0.38885	0.64889	0.29957	-0.348
Mof_O 	O 	0.44436	0.6932	0.2531	-0.386
Mof_N 	N 	0.4564	0.6315	0.37504	-0.231
Mof_C 	C 	0.6708	0.9728	0.8485	-0.006
Mof_C 	C 	0.7087	0.9336	0.8351	0.3
Mof_O 	O 	0.70043	0.88885	0.85111	-0.335
Mof_O 	O 	0.7469	0.94436	0.8068	-0.356
Mof_N 	N 	0.62496	0.9564	0.8685	-0.211
Mof_C 	C 	0.6708	0.4728	0.3485	-0.068
Mof_C 	C 	0.7087	0.4336	0.3351	0.315
Mof_O 	O 	0.70043	0.38885	0.35111	-0.346
Mof_O 	O 	0.7469	0.44436	0.3068	-0.382
Mof_N 	N 	0.62496	0.4564	0.3685	-0.232
Mof_C 	C 	0.1708	0.9728	0.3485	-0.009
Mof_C 	C 	0.2087	0.9336	0.3351	0.298
Mof_O 	O 	0.20043	0.88885	0.35111	-0.339
Mof_O 	O 	0.2469	0.94436	0.3068	-0.361
Mof_N 	N 	0.12496	0.9564	0.3685	-0.214
Mof_C 	C 	0.1708	0.4728	0.8485	-0.066
Mof_C 	C 	0.2087	0.4336	0.8351	0.316
Mof_O 	O 	0.20043	0.38885	0.85111	-0.344
Mof_O 	O 	0.2469	0.44436	0.8068	-0.382
Mof_N 	N 	0.12496	0.4564	0.8685	-0.231
Mof_C 	C 	0.6708	0.0272	0.1515	-0.123
Mof_C 	C 	0.7087	0.0664	0.1649	0.329
Mof_O 	O 	0.70043	0.11115	0.14889	-0.354
Mof_O 	O 	0.7469	0.05564	0.1932	-0.399
Mof_N 	N 	0.62496	0.0436	0.1315	-0.221
Mof_C 	C 	0.6708	0.5272	0.6515	-0.067
Mof_C 	C 	0.7087	0.5664	0.6649	0.315
Mof_O 	O 	0.70043	0.61115	0.64889	-0.345
Mof_O 	O 	0.7469	0.55564	0.6932	-0.382
Mof_N 	N 	0.62496	0.5436	0.6315	-0.231
Mof_C 	C 	0.1708	0.0272	0.6515	-0.123
Mof_C 	C 	0.2087	0.0664	0.6649	0.329
Mof_O 	O 	0.20043	0.11115	0.64889	-0.353
Mof_O 	O 	0.2469	0.05564	0.6932	-0.399
Mof_N 	N 	0.12496	0.0436	0.6315	-0.221
Mof_C 	C 	0.1708	0.5272	0.1515	-0.07
Mof_C 	C 	0.2087	0.5664	0.1649	0.314
Mof_O 	O 	0.20043	0.61115	0.14889	-0.349
Mof_O 	O 	0.2469	0.55564	0.1932	-0.386
Mof_N 	N 	0.12496	0.5436	0.1315	-0.233
Mof_C 	C 	0.3292	0.0272	0.8485	-0.12
Mof_C 	C 	0.2913	0.0664	0.8351	0.331
Mof_O 	O 	0.29957	0.11115	0.85111	-0.351
Mof_O 	O 	0.2531	0.05564	0.8068	-0.398
Mof_N 	N 	0.37504	0.0436	0.8685	-0.218
Mof_C 	C 	0.3292	0.5272	0.3485	-0.068
Mof_C 	C 	0.2913	0.5664	0.3351	0.314
Mof_O 	O 	0.29957	0.61115	0.35111	-0.348
Mof_O 	O 	0.2531	0.55564	0.3068	-0.386
Mof_N 	N 	0.37504	0.5436	0.3685	-0.232
Mof_C 	C 	0.8292	0.0272	0.3485	-0.122
Mof_C 	C 	0.7913	0.0664	0.3351	0.33
Mof_O 	O 	0.79957	0.11115	0.35111	-0.353
Mof_O 	O 	0.7531	0.05564	0.3068	-0.399
Mof_N 	N 	0.87504	0.0436	0.3685	-0.218
Mof_C 	C 	0.8292	0.5272	0.8485	-0.064
Mof_C 	C 	0.7913	0.5664	0.8351	0.316
Mof_O 	O 	0.79957	0.61115	0.85111	-0.344
Mof_O 	O 	0.7531	0.55564	0.8068	-0.381
Mof_N 	N 	0.87504	0.5436	0.8685	-0.227
Mof_C 	C 	0.3292	0.9728	0.1515	-0.01
Mof_C 	C 	0.2913	0.9336	0.1649	0.298
Mof_O 	O 	0.29957	0.88885	0.14889	-0.342
Mof_O 	O 	0.2531	0.94436	0.1932	-0.364
Mof_N 	N 	0.37504	0.9564	0.1315	-0.214
Mof_C 	C 	0.3292	0.4728	0.6515	-0.068
Mof_C 	C 	0.2913	0.4336	0.6649	0.315
Mof_O 	O 	0.29957	0.38885	0.64889	-0.348
Mof_O 	O 	0.2531	0.44436	0.6932	-0.386
Mof_N 	N 	0.37504	0.4564	0.6315	-0.231
Mof_C 	C 	0.8292	0.9728	0.6515	-0.007
Mof_C 	C 	0.7913	0.9336	0.6649	0.299
Mof_O 	O 	0.79957	0.88885	0.64889	-0.339
Mof_O 	O 	0.7531	0.94436	0.6932	-0.36
Mof_N 	N 	0.87504	0.9564	0.6315	-0.21
Mof_C 	C 	0.8292	0.4728	0.1515	-0.068
Mof_C 	C 	0.7913	0.4336	0.1649	0.314
Mof_O 	O 	0.79957	0.38885	0.14889	-0.349
Mof_O 	O 	0.7531	0.44436	0.1932	-0.386
Mof_N 	N 	0.87504	0.4564	0.1315	-0.229
Mof_C 	C 	0.8485	0.6708	0.9728	-0.006
Mof_C 	C 	0.8351	0.7087	0.9336	0.3
Mof_O 	O 	0.85111	0.70043	0.88885	-0.335
Mof_O 	O 	0.8068	0.7469	0.94436	-0.356
Mof_N 	N 	0.8685	0.62496	0.9564	-0.211
Mof_C 	C 	0.8485	0.1708	0.4728	-0.066
Mof_C 	C 	0.8351	0.2087	0.4336	0.316
Mof_O 	O 	0.85111	0.20043	0.38885	-0.344
Mof_O 	O 	0.8068	0.2469	0.44436	-0.382
Mof_N 	N 	0.8685	0.12496	0.4564	-0.231
Mof_C 	C 	0.3485	0.6708	0.4728	-0.068
Mof_C 	C 	0.3351	0.7087	0.4336	0.315
Mof_O 	O 	0.35111	0.70043	0.38885	-0.346
Mof_O 	O 	0.3068	0.7469	0.44436	-0.382
Mof_N 	N 	0.3685	0.62496	0.4564	-0.232
Mof_C 	C 	0.3485	0.1708	0.9728	-0.009
Mof_C 	C 	0.3351	0.2087	0.9336	0.298
Mof_O 	O 	0.35111	0.20043	0.88885	-0.339
Mof_O 	O 	0.3068	0.2469	0.94436	-0.361
Mof_N 	N 	0.3685	0.12496	0.9564	-0.214
Mof_C 	C 	0.1515	0.6708	0.0272	-0.123
Mof_C 	C 	0.1649	0.7087	0.0664	0.329
Mof_O 	O 	0.14889	0.70043	0.11115	-0.354
Mof_O 	O 	0.1932	0.7469	0.05564	-0.399
Mof_N 	N 	0.1315	0.62496	0.0436	-0.221
Mof_C 	C 	0.1515	0.1708	0.5272	-0.07
Mof_C 	C 	0.1649	0.2087	0.5664	0.314
Mof_O 	O 	0.14889	0.20043	0.61115	-0.349
Mof_O 	O 	0.1932	0.2469	0.55564	-0.386
Mof_N 	N 	0.1315	0.12496	0.5436	-0.233
Mof_C 	C 	0.6515	0.6708	0.5272	-0.067
Mof_C 	C 	0.6649	0.7087	0.5664	0.315
Mof_O 	O 	0.64889	0.70043	0.61115	-0.345
Mof_O 	O 	0.6932	0.7469	0.55564	-0.382
Mof_N 	N 	0.6315	0.62496	0.5436	-0.231
Mof_C 	C 	0.6515	0.1708	0.0272	-0.123
Mof_C 	C 	0.6649	0.2087	0.0664	0.329
Mof_O 	O 	0.64889	0.20043	0.11115	-0.353
Mof_O 	O 	0.6932	0.2469	0.05564	-0.399
Mof_N 	N 	0.6315	0.12496	0.0436	-0.221
Mof_C 	C 	0.8485	0.3292	0.0272	-0.12
Mof_C 	C 	0.8351	0.2913	0.0664	0.331
Mof_O 	O 	0.85111	0.29957	0.11115	-0.351
Mof_O 	O 	0.8068	0.2531	0.05564	-0.398
Mof_N 	N 	0.8685	0.37504	0.0436	-0.218
Mof_C 	C 	0.8485	0.8292	0.5272	-0.064
Mof_C 	C 	0.8351	0.7913	0.5664	0.316
Mof_O 	O 	0.85111	0.79957	0.61115	-0.344
Mof_O 	O 	0.8068	0.7531	0.55564	-0.381
Mof_N 	N 	0.8685	0.87504	0.5436	-0.227
Mof_C 	C 	0.3485	0.3292	0.5272	-0.068
Mof_C 	C 	0.3351	0.2913	0.5664	0.314
Mof_O 	O 	0.35111	0.29957	0.61115	-0.348
Mof_O 	O 	0.3068	0.2531	0.55564	-0.386
Mof_N 	N 	0.3685	0.37504	0.5436	-0.232
Mof_C 	C 	0.3485	0.8292	0.0272	-0.122
Mof_C 	C 	0.3351	0.7913	0.0664	0.33
Mof_O 	O 	0.35111	0.79957	0.11115	-0.353
Mof_O 	O 	0.3068	0.7531	0.05564	-0.399
Mof_N 	N 	0.3685	0.87504	0.0436	-0.218
Mof_C 	C 	0.1515	0.3292	0.9728	-0.01
Mof_C 	C 	0.1649	0.2913	0.9336	0.298
Mof_O 	O 	0.14889	0.29957	0.88885	-0.342
Mof_O 	O 	0.1932	0.2531	0.94436	-0.364
Mof_N 	N 	0.1315	0.37504	0.9564	-0.214
Mof_C 	C 	0.1515	0.8292	0.4728	-0.068
Mof_C 	C 	0.1649	0.7913	0.4336	0.314
Mof_O 	O 	0.14889	0.79957	0.38885	-0.349
Mof_O 	O 	0.1932	0.7531	0.44436	-0.386
Mof_N 	N 	0.1315	0.87504	0.4564	-0.229
Mof_C 	C 	0.6515	0.3292	0.4728	-0.068
Mof_C 	C 	0.6649	0.2913	0.4336	0.315
Mof_O 	O 	0.64889	0.29957	0.38885	-0.348
Mof_O 	O 	0.6932	0.2531	0.44436	-0.386
Mof_N 	N 	0.6315	0.37504	0.4564	-0.231
Mof_C 	C 	0.6515	0.8292	0.9728	-0.007
Mof_C 	C 	0.6649	0.7913	0.9336	0.299
Mof_O 	O 	0.64889	0.79957	0.88885	-0.339
Mof_O 	O 	0.6932	0.7531	0.94436	-0.36
Mof_N 	N 	0.6315	0.87504	0.9564	-0.21
Mof_Co	Co	0.12287	0.12287	0.37713	1.156
Mof_Co	Co	0.87713	0.87713	0.37713	1.159
Mof_Co	Co	0.37713	0.37713	0.37713	1.157
Mof_Co	Co	0.87713	0.12287	0.62287	1.157
Mof_Co	Co	0.37713	0.12287	0.12287	1.156
Mof_Co	Co	0.12287	0.87713	0.62287	1.157
Mof_Co	Co	0.12287	0.37713	0.12287	1.156
Mof_Co	Co	0.37713	0.62287	0.62287	1.157
Mof_Co	Co	0.37713	0.87713	0.87713	1.159
Mof_Co	Co	0.62287	0.87713	0.12287	1.157
Mof_Co	Co	0.62287	0.37713	0.62287	1.157
Mof_Co	Co	0.62287	0.12287	0.87713	1.157
Mof_Co	Co	0.62287	0.62287	0.37713	1.157
Mof_Co	Co	0.87713	0.37713	0.87713	1.159
Mof_Co	Co	0.12287	0.62287	0.87713	1.157
Mof_Co	Co	0.87713	0.62287	0.12287	1.157
Mof_Co	Co	0.87713	0.87713	0.62287	1.159
Mof_Co	Co	0.87713	0.37713	0.12287	1.157
Mof_Co	Co	0.37713	0.87713	0.12287	1.157
Mof_Co	Co	0.12287	0.12287	0.62287	1.156
Mof_Co	Co	0.12287	0.87713	0.37713	1.157
Mof_Co	Co	0.87713	0.12287	0.37713	1.157
Mof_Co	Co	0.37713	0.62287	0.37713	1.157
Mof_Co	Co	0.62287	0.87713	0.87713	1.159
Mof_Co	Co	0.62287	0.37713	0.37713	1.157
Mof_Co	Co	0.12287	0.37713	0.87713	1.157
Mof_Co	Co	0.62287	0.12287	0.12287	1.156
Mof_Co	Co	0.62287	0.62287	0.62287	1.157
Mof_Co	Co	0.37713	0.12287	0.87713	1.157
Mof_Co	Co	0.37713	0.37713	0.62287	1.157
Mof_Co	Co	0.87713	0.62287	0.87713	1.159
Mof_Co	Co	0.12287	0.62287	0.12287	1.156
Mof_Co	Co	9.3735e-34	0.25	0.25	1.131
Mof_Co	Co	0.5	0.25	0.75	1.151
Mof_Co	Co	-1.95915e-33	0.75	0.25	1.132
Mof_Co	Co	0.5	0.75	0.75	1.152
Mof_Co	Co	0.5	0.25	0.25	1.15
Mof_Co	Co	-2.98095e-33	0.25	0.75	1.132
Mof_Co	Co	-8.77395e-33	0.75	0.75	1.133
Mof_Co	Co	0.5	0.75	0.25	1.151
Mof_Co	Co	0.25	0	0.25	1.131
Mof_Co	Co	0.25	0.5	0.75	1.151
Mof_Co	Co	0.25	-5.793e-33	0.75	1.132
Mof_Co	Co	0.25	0.5	0.25	1.15
Mof_Co	Co	0.75	0	0.25	1.132
Mof_Co	Co	0.75	0.5	0.75	1.152
Mof_Co	Co	0.75	-5.793e-33	0.75	1.133
Mof_Co	Co	0.75	0.5	0.25	1.151
Mof_Co	Co	0.25	0.25	-0	1.131
Mof_Co	Co	0.25	0.75	0.5	1.151
Mof_Co	Co	0.75	0.25	-0	1.132
Mof_Co	Co	0.75	0.75	0.5	1.152
Mof_Co	Co	0.25	0.25	0.5	1.15
Mof_Co	Co	0.25	0.75	-0	1.132
Mof_Co	Co	0.75	0.75	-0	1.133
Mof_Co	Co	0.75	0.25	0.5	1.151
Mof_C 	C 	4.39963e-33	0.1215	0.4009	0.063
Mof_H 	H 	-4.16163e-33	0.1083	0.4351	-0.029
Mof_C 	C 	3.37783e-33	0.6215	0.9009	0.066
Mof_H 	H 	-1.96659e-32	0.6083	0.9351	-0.015
Mof_C 	C 	0.5	0.1215	0.9009	0.114
Mof_H 	H 	0.5	0.1083	0.9351	-0.02
Mof_C 	C 	0.5	0.6215	0.4009	0.114
Mof_H 	H 	0.5	0.6083	0.4351	-0.03
Mof_C 	C 	1.01926e-32	0.8785	0.4009	0.069
Mof_H 	H 	1.90104e-32	0.8917	0.4351	-0.022
Mof_C 	C 	1.49638e-32	0.3785	0.9009	0.065
Mof_H 	H 	1.50921e-32	0.3917	0.9351	-0.015
Mof_C 	C 	0.5	0.8785	0.9009	0.12
Mof_H 	H 	0.5	0.8917	0.9351	-0.013
Mof_C 	C 	0.5	0.3785	0.4009	0.113
Mof_H 	H 	0.5	0.3917	0.4351	-0.03
Mof_C 	C 	-3.54673e-33	0.1215	0.5991	0.063
Mof_H 	H 	2.11804e-33	0.1083	0.5649	-0.029
Mof_C 	C 	4.71631e-33	0.6215	0.0991	0.064
Mof_H 	H 	-6.27379e-33	0.6083	0.0649	-0.033
Mof_C 	C 	0.5	0.1215	0.0991	0.111
Mof_H 	H 	0.5	0.1083	0.0649	-0.038
Mof_C 	C 	0.5	0.6215	0.5991	0.114
Mof_H 	H 	0.5	0.6083	0.5649	-0.03
Mof_C 	C 	1.96253e-32	0.8785	0.5991	0.069
Mof_H 	H 	7.91103e-33	0.8917	0.5649	-0.022
Mof_C 	C 	1.81981e-33	0.3785	0.0991	0.063
Mof_H 	H 	-4.80789e-34	0.3917	0.0649	-0.033
Mof_C 	C 	0.5	0.8785	0.0991	0.117
Mof_H 	H 	0.5	0.8917	0.0649	-0.032
Mof_C 	C 	0.5	0.3785	0.5991	0.113
Mof_H 	H 	0.5	0.3917	0.5649	-0.03
Mof_C 	C 	0.4009	0	0.1215	0.063
Mof_H 	H 	0.4351	-1.44825e-33	0.1083	-0.029
Mof_C 	C 	0.4009	0.5	0.6215	0.114
Mof_H 	H 	0.4351	0.5	0.6083	-0.03
Mof_C 	C 	0.9009	0	0.6215	0.066
Mof_H 	H 	0.9351	0	0.6083	-0.015
Mof_C 	C 	0.9009	0.5	0.1215	0.114
Mof_H 	H 	0.9351	0.5	0.1083	-0.02
Mof_C 	C 	0.4009	0	0.8785	0.069
Mof_H 	H 	0.4351	1.1586e-32	0.8917	-0.022
Mof_C 	C 	0.4009	0.5	0.3785	0.113
Mof_H 	H 	0.4351	0.5	0.3917	-0.03
Mof_C 	C 	0.9009	0	0.3785	0.065
Mof_H 	H 	0.9351	-2.8965e-33	0.3917	-0.015
Mof_C 	C 	0.9009	0.5	0.8785	0.12
Mof_H 	H 	0.9351	0.5	0.8917	-0.013
Mof_C 	C 	0.5991	0	0.1215	0.063
Mof_H 	H 	0.5649	-1.44825e-33	0.1083	-0.029
Mof_C 	C 	0.5991	0.5	0.6215	0.114
Mof_H 	H 	0.5649	0.5	0.6083	-0.03
Mof_C 	C 	0.0991	0	0.6215	0.064
Mof_H 	H 	0.0649	0	0.6083	-0.033
Mof_C 	C 	0.0991	0.5	0.1215	0.111
Mof_H 	H 	0.0649	0.5	0.1083	-0.038
Mof_C 	C 	0.5991	0	0.8785	0.069
Mof_H 	H 	0.5649	1.1586e-32	0.8917	-0.022
Mof_C 	C 	0.5991	0.5	0.3785	0.113
Mof_H 	H 	0.5649	0.5	0.3917	-0.03
Mof_C 	C 	0.0991	0	0.3785	0.063
Mof_H 	H 	0.0649	-2.8965e-33	0.3917	-0.033
Mof_C 	C 	0.0991	0.5	0.8785	0.117
Mof_H 	H 	0.0649	0.5	0.8917	-0.032
Mof_C 	C 	0.1215	0.4009	-0	0.063
Mof_H 	H 	0.1083	0.4351	-0	-0.029
Mof_C 	C 	0.1215	0.9009	0.5	0.114
Mof_H 	H 	0.1083	0.9351	0.5	-0.02
Mof_C 	C 	0.6215	0.4009	0.5	0.114
Mof_H 	H 	0.6083	0.4351	0.5	-0.03
Mof_C 	C 	0.6215	0.9009	-0	0.066
Mof_H 	H 	0.6083	0.9351	-0	-0.015
Mof_C 	C 	0.8785	0.4009	-0	0.069
Mof_H 	H 	0.8917	0.4351	-0	-0.022
Mof_C 	C 	0.8785	0.9009	0.5	0.12
Mof_H 	H 	0.8917	0.9351	0.5	-0.013
Mof_C 	C 	0.3785	0.4009	0.5	0.113
Mof_H 	H 	0.3917	0.4351	0.5	-0.03
Mof_C 	C 	0.3785	0.9009	-0	0.065
Mof_H 	H 	0.3917	0.9351	-0	-0.015
Mof_C 	C 	0.1215	0.5991	-0	0.063
Mof_H 	H 	0.1083	0.5649	-0	-0.029
Mof_C 	C 	0.1215	0.0991	0.5	0.111
Mof_H 	H 	0.1083	0.0649	0.5	-0.038
Mof_C 	C 	0.6215	0.5991	0.5	0.114
Mof_H 	H 	0.6083	0.5649	0.5	-0.03
Mof_C 	C 	0.6215	0.0991	-0	0.064
Mof_H 	H 	0.6083	0.0649	-0	-0.033
Mof_C 	C 	0.8785	0.5991	-0	0.069
Mof_H 	H 	0.8917	0.5649	-0	-0.022
Mof_C 	C 	0.8785	0.0991	0.5	0.117
Mof_H 	H 	0.8917	0.0649	0.5	-0.032
Mof_C 	C 	0.3785	0.5991	0.5	0.113
Mof_H 	H 	0.3917	0.5649	0.5	-0.03
Mof_C 	C 	0.3785	0.0991	-0	0.063
Mof_H 	H 	0.3917	0.0649	-0	-0.033
_end
