data_functionalizedCrystal
_audit_creation_method	'EQeq! by Chris Wilmer'
_symmetry_space_group_name_H-M	'P1'
_symmetry_Int_Tables_number	1
_symmetry_cell_setting	triclinic
loop_
_symmetry_equiv_pos_as_xyz
  x,y,z
_cell_length_a	12.546
_cell_length_b	15.734
_cell_length_c	26.633
_cell_angle_alpha	90
_cell_angle_beta	90
_cell_angle_gamma	97.869
loop_
_atom_site_label
_atom_site_type_symbol
_atom_site_fract_x
_atom_site_fract_y
_atom_site_fract_z
_atom_site_charge
Mof_Zn	Zn	0.30844	0.81744	0.74802	1.219
Mof_Zn	Zn	0.85217	0.87769	0.25606	1.22
Mof_Zn	Zn	0.14783	0.62231	0.75606	1.22
Mof_Zn	Zn	0.69156	0.68256	0.24802	1.219
Mof_H 	H 	0.1175	0.2776	0.2862	0.082
Mof_H 	H 	0.9231	0.5476	0.7333	-0.011
Mof_H 	H 	0.1927	0.8728	0.5957	-0.026
Mof_H 	H 	0.1911	0.0777	0.2379	0.108
Mof_H 	H 	0.4998	0.9971	0.4225	0.174
Mof_H 	H 	0.0436	0.3238	0.8127	0.118
Mof_H 	H 	0.5781	0.2142	0.7881	0.082
Mof_H 	H 	0.6479	0.742	0.895	0.172
Mof_H 	H 	0.4795	0.7417	0.336	-0.048
Mof_H 	H 	0.145	0.4542	0.8069	-0.014
Mof_H 	H 	0.197	0.9091	0.5119	0.169
Mof_H 	H 	0.6317	0.9747	0.3654	-0.043
Mof_H 	H 	0.855	0.0458	0.3069	-0.013
Mof_H 	H 	0.9467	0.7009	0.8546	-0.069
Mof_H 	H 	0.1053	0.9369	0.8523	-0.065
Mof_H 	H 	0.0021	0.8241	0.0882	-0.029
Mof_H 	H 	0.8947	0.5631	0.3523	-0.065
Mof_H 	H 	0.7018	0.9181	0.0195	0.168
Mof_H 	H 	0.3521	0.758	0.395	0.173
Mof_H 	H 	0.8089	0.4223	0.7379	0.109
Mof_H 	H 	0.5002	0.5029	0.9225	0.175
Mof_H 	H 	0.5416	0.8902	0.7331	-0.008
Mof_H 	H 	0.7168	0.9077	0.1046	-0.026
Mof_H 	H 	0.3097	0.9839	0.8022	-0.008
Mof_H 	H 	0.479	0.8261	0.4966	0.162
Mof_H 	H 	0.017	0.6683	0.5021	0.161
Mof_H 	H 	0.6903	0.5161	0.3022	-0.008
Mof_H 	H 	0.0769	0.9524	0.2333	-0.009
Mof_H 	H 	0.4805	0.795	0.582	-0.024
Mof_H 	H 	0.803	0.5909	0.0119	0.169
Mof_H 	H 	0.4219	0.2858	0.2881	0.083
Mof_H 	H 	0.5195	0.705	0.082	-0.024
Mof_H 	H 	0.4131	0.1159	0.8089	0.119
Mof_H 	H 	0.1635	0.7588	0.4165	0.208
Mof_H 	H 	0.8365	0.7412	0.9165	0.208
Mof_H 	H 	0.9872	0.9773	0.9115	0.204
Mof_H 	H 	0.983	0.8317	0.0021	0.163
Mof_H 	H 	0.3683	0.5253	0.8654	-0.043
Mof_H 	H 	0.521	0.6739	0.9966	0.161
Mof_H 	H 	0.6484	0.0175	0.7383	0.112
Mof_H 	H 	0.2982	0.5819	0.5195	0.167
Mof_H 	H 	0.4584	0.6098	0.2331	-0.008
Mof_H 	H 	0.0533	0.7991	0.3546	-0.068
Mof_H 	H 	0.5869	0.3841	0.3089	0.12
Mof_H 	H 	0.9564	0.1762	0.3127	0.119
Mof_H 	H 	0.8073	0.6272	0.0957	-0.025
Mof_H 	H 	0.0128	0.5227	0.4115	0.204
Mof_H 	H 	0.3516	0.4825	0.2383	0.112
Mof_H 	H 	0.9979	0.6759	0.5882	-0.027
Mof_H 	H 	0.5205	0.7583	0.836	-0.047
Mof_H 	H 	0.2832	0.5923	0.6046	-0.026
Mof_H 	H 	0.8825	0.2224	0.7862	0.082
Mof_C 	C 	0.4075	0.8022	0.3884	-0.367
Mof_C 	C 	0.9505	0.603	0.3641	0.317
Mof_C 	C 	0.0365	0.8139	0.84589	-0.351
Mof_C 	C 	0.5925	0.6978	0.8884	-0.367
Mof_C 	C 	0.8435	0.8777	0.00336	0.364
Mof_C 	C 	0.5161	0.7072	0.8539	0.266
Mof_C 	C 	0.1482	0.2301	0.2757	-0.058
Mof_C 	C 	0.0855	0.1442	0.2749	0.145
Mof_C 	C 	0.3785	0.9915	0.78836	0.113
Mof_C 	C 	0.3925	0.333	0.2761	-0.063
Mof_C 	C 	0.077	0.4466	0.79232	0.123
Mof_C 	C 	0.6505	0.8409	0.3067	0.506
Mof_C 	C 	0.4222	0.8175	0.56822	0.208
Mof_C 	C 	0.414	0.8805	0.4141	0.355
Mof_C 	C 	0.2285	0.6072	0.58416	0.216
Mof_C 	C 	0.4405	0.0709	0.793	-0.199
Mof_C 	C 	0.4963	0.9452	0.4055	-0.369
Mof_C 	C 	0.0591	0.6574	0.57471	0.21
Mof_C 	C 	0.9466	0.5012	0.74956	0.117
Mof_C 	C 	0.5148	0.9365	0.74779	0.115
Mof_C 	C 	0.6621	0.6686	0.09847	-0.233
Mof_C 	C 	0.5779	0.6635	0.0171	-0.358
Mof_C 	C 	0.1107	0.7869	0.80748	0.515
Mof_C 	C 	0.8893	0.7131	0.30748	0.514
Mof_C 	C 	0.1387	0.6357	0.60646	-0.241
Mof_C 	C 	0.5426	0.0823	0.77385	0.153
Mof_C 	C 	0.7715	0.8928	0.08416	0.218
Mof_C 	C 	0.5789	0.0121	0.75124	-0.192
Mof_C 	C 	0.9303	0.8482	0.02311	-0.362
Mof_C 	C 	0.3495	0.6591	0.8067	0.506
Mof_C 	C 	0.748	0.6355	0.0763	0.214
Mof_C 	C 	0.6075	0.167	0.7761	-0.063
Mof_C 	C 	0.9795	0.921	0.9	-0.454
Mof_C 	C 	0.1253	0.6378	0.66041	0.371
Mof_C 	C 	0.9565	0.7573	0.8659	0.337
Mof_C 	C 	0.2377	0.6007	0.53362	-0.342
Mof_C 	C 	0.0435	0.7427	0.3659	0.335
Mof_C 	C 	0.9409	0.8426	0.07471	0.214
Mof_C 	C 	0.3379	0.8314	0.59847	-0.233
Mof_C 	C 	0.0495	0.897	0.8641	0.316
Mof_C 	C 	0.0205	0.579	0.4	-0.455
Mof_C 	C 	0.586	0.6195	0.9141	0.355
Mof_C 	C 	0.7464	0.6149	0.02623	-0.353
Mof_C 	C 	0.1223	0.0735	0.2515	-0.184
Mof_C 	C 	0.1565	0.6223	0.50336	0.362
Mof_C 	C 	0.9831	0.1316	0.29615	-0.202
Mof_C 	C 	0.4313	0.6431	0.84448	-0.306
Mof_C 	C 	0.9635	0.6861	0.34589	-0.35
Mof_C 	C 	0.5742	0.9318	0.3709	0.261
Mof_C 	C 	0.4221	0.8365	0.5171	-0.358
Mof_C 	C 	0.0534	0.9988	0.24956	0.114
Mof_C 	C 	0.4839	0.7928	0.3539	0.266
Mof_C 	C 	0.4574	0.4177	0.27385	0.154
Mof_C 	C 	0.8777	0.4265	0.7515	-0.186
Mof_C 	C 	0.923	0.0534	0.29232	0.122
Mof_C 	C 	0.5595	0.4291	0.293	-0.199
Mof_C 	C 	0.0989	0.6367	0.418	0.452
Mof_C 	C 	0.8613	0.8643	0.10646	-0.243
Mof_C 	C 	0.3381	0.8702	0.49802	0.364
Mof_C 	C 	0.6619	0.6298	0.99802	0.363
Mof_C 	C 	0.4852	0.5635	0.24779	0.116
Mof_C 	C 	0.9145	0.3558	0.7749	0.145
Mof_C 	C 	0.8895	0.7814	0.9025	-0.465
Mof_C 	C 	0.252	0.8645	0.5763	0.215
Mof_C 	C 	0.9011	0.8633	0.918	0.452
Mof_C 	C 	0.1105	0.7186	0.4025	-0.465
Mof_C 	C 	0.6215	0.5085	0.28836	0.113
Mof_C 	C 	0.8518	0.2699	0.7757	-0.058
Mof_C 	C 	0.2536	0.8851	0.52623	-0.353
Mof_C 	C 	0.4211	0.4879	0.25124	-0.192
Mof_C 	C 	0.7623	0.8993	0.03362	-0.344
Mof_C 	C 	0.659	0.6853	0.15326	0.373
Mof_C 	C 	0.5037	0.5548	0.9055	-0.369
Mof_C 	C 	0.0697	0.6518	0.52311	-0.359
Mof_C 	C 	0.5687	0.8569	0.34448	-0.306
Mof_C 	C 	0.5778	0.6825	0.06822	0.207
Mof_C 	C 	0.4258	0.5682	0.8709	0.261
Mof_C 	C 	0.341	0.8147	0.65326	0.373
Mof_C 	C 	0.8747	0.8622	0.16041	0.372
Mof_C 	C 	0.0169	0.3684	0.79615	-0.201
Mof_N 	N 	0.9552	0.9872	0.26906	-0.271
Mof_N 	N 	0.2945	0.325	0.2613	-0.067
Mof_N 	N 	0.4128	0.9258	0.76504	-0.265
Mof_N 	N 	0.5872	0.5742	0.26504	-0.266
Mof_N 	N 	0.7055	0.175	0.7613	-0.067
Mof_N 	N 	0.0448	0.5128	0.76906	-0.273
Mof_N 	N 	0.2456	0.2373	0.2616	-0.068
Mof_N 	N 	0.7544	0.2627	0.7616	-0.068
Mof_O 	O 	0.9581	0.8431	0.18011	-0.357
Mof_O 	O 	0.9143	0.7866	0.28996	-0.533
Mof_O 	O 	0.5805	0.7101	0.17282	-0.358
Mof_O 	O 	0.4195	0.7899	0.67282	-0.358
Mof_O 	O 	0.2591	0.8301	0.67941	-0.463
Mof_O 	O 	0.7331	0.8947	0.30245	-0.507
Mof_O 	O 	0.0857	0.7134	0.78996	-0.534
Mof_O 	O 	0.809	0.6614	0.29472	-0.513
Mof_O 	O 	0.7968	0.8813	0.18825	-0.472
Mof_O 	O 	0.2669	0.6053	0.80245	-0.507
Mof_O 	O 	0.1737	0.6116	0.45191	-0.357
Mof_O 	O 	0.8263	0.8884	0.95191	-0.357
Mof_O 	O 	0.6691	0.6053	0.9473	-0.334
Mof_O 	O 	0.3689	0.7256	0.78169	-0.544
Mof_O 	O 	0.2032	0.6187	0.68825	-0.472
Mof_O 	O 	0.6311	0.7744	0.28169	-0.544
Mof_O 	O 	0.3309	0.8947	0.4473	-0.334
Mof_O 	O 	0.7409	0.6699	0.17941	-0.463
Mof_O 	O 	0.0419	0.6569	0.68011	-0.357
Mof_O 	O 	0.191	0.8386	0.79472	-0.514
Mof_Zn	Zn	0.14783	0.12231	0.74394	1.221
Mof_Zn	Zn	0.30844	0.31744	0.75198	1.22
Mof_Zn	Zn	0.69156	0.18256	0.25198	1.22
Mof_Zn	Zn	0.85217	0.37769	0.24394	1.221
Mof_H 	H 	0.3683	0.0253	0.6346	-0.043
Mof_H 	H 	0.8825	0.7224	0.7138	0.083
Mof_H 	H 	0.9872	0.4773	0.5885	0.204
Mof_H 	H 	0.5002	0.0029	0.5775	0.175
Mof_H 	H 	0.4584	0.1098	0.2669	-0.008
Mof_H 	H 	0.8073	0.1272	0.4043	-0.025
Mof_H 	H 	0.197	0.4091	0.9881	0.169
Mof_H 	H 	0.0128	0.0227	0.0885	0.204
Mof_H 	H 	0.983	0.3317	0.4979	0.161
Mof_H 	H 	0.5781	0.7142	0.7119	0.083
Mof_H 	H 	0.2832	0.0923	0.8954	-0.026
Mof_H 	H 	0.1053	0.4369	0.6477	-0.065
Mof_H 	H 	0.479	0.3261	0.0034	0.161
Mof_H 	H 	0.5205	0.2583	0.664	-0.047
Mof_H 	H 	0.803	0.0909	0.4881	0.169
Mof_H 	H 	0.4998	0.4971	0.0775	0.175
Mof_H 	H 	0.521	0.1739	0.5034	0.162
Mof_H 	H 	0.5195	0.205	0.418	-0.024
Mof_H 	H 	0.3516	0.9825	0.2617	0.112
Mof_H 	H 	0.8365	0.2412	0.5835	0.208
Mof_H 	H 	0.1635	0.2588	0.0835	0.208
Mof_H 	H 	0.4219	0.7858	0.2119	0.083
Mof_H 	H 	0.4805	0.295	0.918	-0.024
Mof_H 	H 	0.1927	0.3728	0.9043	-0.025
Mof_H 	H 	0.9979	0.1759	0.9118	-0.029
Mof_H 	H 	0.5869	0.8841	0.1911	0.119
Mof_H 	H 	0.3097	0.4839	0.6978	-0.008
Mof_H 	H 	0.6479	0.242	0.605	0.173
Mof_H 	H 	0.9231	0.0476	0.7667	-0.009
Mof_H 	H 	0.0769	0.4524	0.2667	-0.01
Mof_H 	H 	0.7168	0.4077	0.3954	-0.026
Mof_H 	H 	0.7018	0.4181	0.4805	0.167
Mof_H 	H 	0.9467	0.2009	0.6454	-0.068
Mof_H 	H 	0.1175	0.7776	0.2138	0.082
Mof_H 	H 	0.9564	0.6762	0.1873	0.119
Mof_H 	H 	0.0021	0.3241	0.4118	-0.027
Mof_H 	H 	0.8947	0.0631	0.1477	-0.065
Mof_H 	H 	0.0533	0.2991	0.1454	-0.069
Mof_H 	H 	0.017	0.1683	0.9979	0.163
Mof_H 	H 	0.0436	0.8238	0.6873	0.119
Mof_H 	H 	0.8089	0.9223	0.7621	0.109
Mof_H 	H 	0.855	0.5458	0.1931	-0.013
Mof_H 	H 	0.6317	0.4747	0.1346	-0.043
Mof_H 	H 	0.6903	0.0161	0.1978	-0.008
Mof_H 	H 	0.6484	0.5175	0.7617	0.112
Mof_H 	H 	0.4131	0.6159	0.6911	0.12
Mof_H 	H 	0.5416	0.3902	0.7669	-0.008
Mof_H 	H 	0.2982	0.0819	0.9805	0.168
Mof_H 	H 	0.4795	0.2417	0.164	-0.047
Mof_H 	H 	0.145	0.9542	0.6931	-0.013
Mof_H 	H 	0.1911	0.5777	0.2621	0.109
Mof_H 	H 	0.3521	0.258	0.105	0.173
Mof_C 	C 	0.1105	0.2186	0.0975	-0.465
Mof_C 	C 	0.5595	0.9291	0.207	-0.199
Mof_C 	C 	0.0697	0.1518	0.97689	-0.362
Mof_C 	C 	0.5742	0.4318	0.1291	0.261
Mof_C 	C 	0.2285	0.1072	0.91584	0.218
Mof_C 	C 	0.4963	0.4452	0.0945	-0.369
Mof_C 	C 	0.7464	0.1149	0.47377	-0.353
Mof_C 	C 	0.923	0.5534	0.20768	0.123
Mof_C 	C 	0.7715	0.3928	0.41584	0.216
Mof_C 	C 	0.9011	0.3633	0.582	0.452
Mof_C 	C 	0.9795	0.421	0.6	-0.455
Mof_C 	C 	0.1387	0.1357	0.89354	-0.243
Mof_C 	C 	0.1107	0.2869	0.69252	0.514
Mof_C 	C 	0.5789	0.5121	0.74876	-0.192
Mof_C 	C 	0.1565	0.1223	0.99664	0.364
Mof_C 	C 	0.0205	0.079	0.1	-0.454
Mof_C 	C 	0.1253	0.1378	0.83959	0.372
Mof_C 	C 	0.7623	0.3993	0.46638	-0.342
Mof_C 	C 	0.6215	0.0085	0.21164	0.113
Mof_C 	C 	0.8435	0.3777	0.49664	0.362
Mof_C 	C 	0.2377	0.1007	0.96638	-0.344
Mof_C 	C 	0.077	0.9466	0.70768	0.122
Mof_C 	C 	0.6075	0.667	0.7239	-0.063
Mof_C 	C 	0.3495	0.1591	0.6933	0.506
Mof_C 	C 	0.9831	0.6316	0.20385	-0.201
Mof_C 	C 	0.4313	0.1431	0.65552	-0.306
Mof_C 	C 	0.2536	0.3851	0.97377	-0.353
Mof_C 	C 	0.8777	0.9265	0.7485	-0.184
Mof_C 	C 	0.5161	0.2072	0.6461	0.266
Mof_C 	C 	0.6621	0.1686	0.40153	-0.233
Mof_C 	C 	0.0591	0.1574	0.92529	0.214
Mof_C 	C 	0.4852	0.0635	0.25221	0.115
Mof_C 	C 	0.0435	0.2427	0.1341	0.337
Mof_C 	C 	0.9635	0.1861	0.15411	-0.351
Mof_C 	C 	0.659	0.1853	0.34674	0.373
Mof_C 	C 	0.8518	0.7699	0.7243	-0.058
Mof_C 	C 	0.8747	0.3622	0.33959	0.371
Mof_C 	C 	0.4839	0.2928	0.1461	0.266
Mof_C 	C 	0.8895	0.2814	0.5975	-0.465
Mof_C 	C 	0.0855	0.6442	0.2251	0.145
Mof_C 	C 	0.414	0.3805	0.0859	0.355
Mof_C 	C 	0.5426	0.5823	0.72615	0.154
Mof_C 	C 	0.5925	0.1978	0.6116	-0.367
Mof_C 	C 	0.6505	0.3409	0.1933	0.506
Mof_C 	C 	0.1223	0.5735	0.2485	-0.186
Mof_C 	C 	0.9409	0.3426	0.42529	0.21
Mof_C 	C 	0.748	0.1355	0.4237	0.215
Mof_C 	C 	0.9505	0.103	0.1359	0.316
Mof_C 	C 	0.5778	0.1825	0.43178	0.208
Mof_C 	C 	0.9565	0.2573	0.6341	0.335
Mof_C 	C 	0.586	0.1195	0.5859	0.355
Mof_C 	C 	0.4405	0.5709	0.707	-0.199
Mof_C 	C 	0.8613	0.3643	0.39354	-0.241
Mof_C 	C 	0.8893	0.2131	0.19252	0.515
Mof_C 	C 	0.9466	0.0012	0.75044	0.114
Mof_C 	C 	0.4222	0.3175	0.93178	0.207
Mof_C 	C 	0.9145	0.8558	0.7251	0.145
Mof_C 	C 	0.1482	0.7301	0.2243	-0.058
Mof_C 	C 	0.0169	0.8684	0.70385	-0.202
Mof_C 	C 	0.4574	0.9177	0.22615	0.153
Mof_C 	C 	0.0365	0.3139	0.65411	-0.35
Mof_C 	C 	0.3381	0.3702	0.00198	0.363
Mof_C 	C 	0.9303	0.3482	0.47689	-0.359
Mof_C 	C 	0.4221	0.3365	0.9829	-0.358
Mof_C 	C 	0.5687	0.3569	0.15552	-0.306
Mof_C 	C 	0.5037	0.0548	0.5945	-0.369
Mof_C 	C 	0.4075	0.3022	0.1116	-0.367
Mof_C 	C 	0.3785	0.4915	0.71164	0.113
Mof_C 	C 	0.4211	0.9879	0.24876	-0.192
Mof_C 	C 	0.0495	0.397	0.6359	0.317
Mof_C 	C 	0.6619	0.1298	0.50198	0.364
Mof_C 	C 	0.0989	0.1367	0.082	0.452
Mof_C 	C 	0.5148	0.4365	0.75221	0.116
Mof_C 	C 	0.3925	0.833	0.2239	-0.063
Mof_C 	C 	0.0534	0.4988	0.25044	0.117
Mof_C 	C 	0.5779	0.1635	0.4829	-0.358
Mof_C 	C 	0.252	0.3645	0.9237	0.214
Mof_C 	C 	0.3379	0.3314	0.90153	-0.233
Mof_C 	C 	0.4258	0.0682	0.6291	0.261
Mof_C 	C 	0.341	0.3147	0.84674	0.373
Mof_N 	N 	0.5872	0.0742	0.23496	-0.265
Mof_N 	N 	0.7544	0.7627	0.7384	-0.068
Mof_N 	N 	0.4128	0.4258	0.73496	-0.266
Mof_N 	N 	0.7055	0.675	0.7387	-0.067
Mof_N 	N 	0.2456	0.7373	0.2384	-0.068
Mof_N 	N 	0.9552	0.4872	0.23094	-0.273
Mof_N 	N 	0.0448	0.0128	0.73094	-0.271
Mof_N 	N 	0.2945	0.825	0.2387	-0.067
Mof_O 	O 	0.2591	0.3301	0.82059	-0.463
Mof_O 	O 	0.6691	0.1053	0.5527	-0.334
Mof_O 	O 	0.7968	0.3813	0.31175	-0.472
Mof_O 	O 	0.2669	0.1053	0.69755	-0.507
Mof_O 	O 	0.9143	0.2866	0.21004	-0.534
Mof_O 	O 	0.191	0.3386	0.70528	-0.513
Mof_O 	O 	0.6311	0.2744	0.21831	-0.544
Mof_O 	O 	0.8263	0.3884	0.54809	-0.357
Mof_O 	O 	0.3689	0.2256	0.71831	-0.544
Mof_O 	O 	0.9581	0.3431	0.31989	-0.357
Mof_O 	O 	0.3309	0.3947	0.0527	-0.334
Mof_O 	O 	0.809	0.1614	0.20528	-0.514
Mof_O 	O 	0.4195	0.2899	0.82718	-0.358
Mof_O 	O 	0.5805	0.2101	0.32718	-0.358
Mof_O 	O 	0.0419	0.1569	0.81989	-0.357
Mof_O 	O 	0.7409	0.1699	0.32059	-0.463
Mof_O 	O 	0.0857	0.2134	0.71004	-0.533
Mof_O 	O 	0.2032	0.1187	0.81175	-0.472
Mof_O 	O 	0.7331	0.3947	0.19755	-0.507
Mof_O 	O 	0.1737	0.1116	0.04809	-0.357
_end
