data_functionalizedCrystal
_audit_creation_method	'EQeq! by Chris Wilmer'
_symmetry_space_group_name_H-M	'P1'
_symmetry_Int_Tables_number	1
_symmetry_cell_setting	triclinic
loop_
_symmetry_equiv_pos_as_xyz
  x,y,z
_cell_length_a	13.961
_cell_length_b	26.998
_cell_length_c	7.589
_cell_angle_alpha	90
_cell_angle_beta	90
_cell_angle_gamma	90.84
loop_
_atom_site_label
_atom_site_type_symbol
_atom_site_fract_x
_atom_site_fract_y
_atom_site_fract_z
_atom_site_charge
Mof_Cd	Cd	0.21375	0.13454	0.12333	0.363
Mof_N 	N 	0.2366	0.0789	0.9096	-0.079
Mof_N 	N 	0.238	0.0779	0.3508	-0.081
Mof_N 	N 	0.367	0.1688	0.13	-0.072
Mof_N 	N 	0.1676	0.1986	0.913	-0.063
Mof_N 	N 	0.1756	0.1921	0.351	-0.114
Mof_N 	N 	0.0471	0.1246	0.1663	-0.141
Mof_C 	C 	0.2424	0.0487	0.805	-0.259
Mof_C 	C 	0.2575	0.0485	0.458	-0.259
Mof_C 	C 	0.4187	0.199	0.174	-0.218
Mof_C 	C 	0.1045	0.2181	0.849	-0.242
Mof_C 	C 	0.0715	0.1921	0.372	-0.031
Mof_C 	C 	0.0177	0.1529	0.315	-0.031
Mof_C 	C 	0.9096	0.1551	0.348	0.038
Mof_Cd	Cd	0.21375	0.63454	0.62333	0.368
Mof_N 	N 	0.2366	0.5789	0.4096	-0.08
Mof_N 	N 	0.238	0.5779	0.8508	-0.08
Mof_N 	N 	0.367	0.6688	0.63	-0.071
Mof_N 	N 	0.1676	0.6986	0.413	-0.063
Mof_N 	N 	0.1756	0.6921	0.851	-0.114
Mof_N 	N 	0.0471	0.6246	0.6663	-0.137
Mof_C 	C 	0.2424	0.5487	0.305	-0.24
Mof_C 	C 	0.2575	0.5485	0.958	-0.237
Mof_C 	C 	0.4187	0.699	0.674	-0.217
Mof_C 	C 	0.1045	0.7181	0.349	-0.242
Mof_C 	C 	0.0715	0.6921	0.872	-0.03
Mof_C 	C 	0.0177	0.6529	0.815	-0.027
Mof_C 	C 	0.9096	0.6551	0.848	0.038
Mof_Cd	Cd	0.28625	0.86546	0.12333	0.375
Mof_N 	N 	0.2634	0.9211	0.9096	-0.082
Mof_N 	N 	0.262	0.9221	0.3508	-0.08
Mof_N 	N 	0.133	0.8312	0.13	-0.072
Mof_N 	N 	0.3324	0.8014	0.913	-0.065
Mof_N 	N 	0.3244	0.8079	0.351	-0.113
Mof_N 	N 	0.4529	0.8754	0.1663	-0.122
Mof_C 	C 	0.2576	0.9513	0.805	-0.203
Mof_C 	C 	0.2425	0.9515	0.458	-0.208
Mof_C 	C 	0.0813	0.801	0.174	-0.247
Mof_C 	C 	0.3955	0.7819	0.849	-0.218
Mof_C 	C 	0.4285	0.8079	0.372	-0.023
Mof_C 	C 	0.4823	0.8471	0.315	0.042
Mof_C 	C 	0.5904	0.8449	0.348	-0.024
Mof_Cd	Cd	0.28625	0.36546	0.62333	0.37
Mof_N 	N 	0.2634	0.4211	0.4096	-0.08
Mof_N 	N 	0.262	0.4221	0.8508	-0.079
Mof_N 	N 	0.133	0.3312	0.63	-0.073
Mof_N 	N 	0.3324	0.3014	0.413	-0.065
Mof_N 	N 	0.3244	0.3079	0.851	-0.112
Mof_N 	N 	0.4529	0.3754	0.6663	-0.126
Mof_C 	C 	0.2576	0.4513	0.305	-0.238
Mof_C 	C 	0.2425	0.4515	0.958	-0.24
Mof_C 	C 	0.0813	0.301	0.674	-0.247
Mof_C 	C 	0.3955	0.2819	0.349	-0.219
Mof_C 	C 	0.4285	0.3079	0.872	-0.023
Mof_C 	C 	0.4823	0.3471	0.815	0.04
Mof_C 	C 	0.5904	0.3449	0.848	-0.027
Mof_Cd	Cd	0.78625	0.86546	0.87667	0.386
Mof_N 	N 	0.7634	0.9211	0.0904	-0.078
Mof_N 	N 	0.762	0.9221	0.6492	-0.077
Mof_N 	N 	0.633	0.8312	0.87	-0.07
Mof_N 	N 	0.8324	0.8014	0.087	-0.07
Mof_N 	N 	0.8244	0.8079	0.649	-0.111
Mof_N 	N 	0.9529	0.8754	0.8337	-0.111
Mof_C 	C 	0.7576	0.9513	0.195	-0.188
Mof_C 	C 	0.7425	0.9515	0.542	-0.193
Mof_C 	C 	0.5813	0.801	0.826	-0.216
Mof_C 	C 	0.8955	0.7819	0.151	-0.176
Mof_C 	C 	0.9285	0.8079	0.628	-0.012
Mof_C 	C 	0.9823	0.8471	0.685	0.109
Mof_C 	C 	0.0904	0.8449	0.652	-0.09
Mof_Cd	Cd	0.78625	0.36546	0.37667	0.381
Mof_N 	N 	0.7634	0.4211	0.5904	-0.076
Mof_N 	N 	0.762	0.4221	0.1492	-0.075
Mof_N 	N 	0.633	0.3312	0.37	-0.071
Mof_N 	N 	0.8324	0.3014	0.587	-0.07
Mof_N 	N 	0.8244	0.3079	0.149	-0.111
Mof_N 	N 	0.9529	0.3754	0.3337	-0.114
Mof_C 	C 	0.7576	0.4513	0.695	-0.223
Mof_C 	C 	0.7425	0.4515	0.042	-0.227
Mof_C 	C 	0.5813	0.301	0.326	-0.217
Mof_C 	C 	0.8955	0.2819	0.651	-0.177
Mof_C 	C 	0.9285	0.3079	0.128	-0.012
Mof_C 	C 	0.9823	0.3471	0.185	0.109
Mof_C 	C 	0.0904	0.3449	0.152	-0.095
Mof_Cd	Cd	0.71375	0.13454	0.87667	0.373
Mof_N 	N 	0.7366	0.0789	0.0904	-0.077
Mof_N 	N 	0.738	0.0779	0.6492	-0.078
Mof_N 	N 	0.867	0.1688	0.87	-0.074
Mof_N 	N 	0.6676	0.1986	0.087	-0.064
Mof_N 	N 	0.6756	0.1921	0.649	-0.113
Mof_N 	N 	0.5471	0.1246	0.8337	-0.13
Mof_C 	C 	0.7424	0.0487	0.195	-0.245
Mof_C 	C 	0.7575	0.0485	0.542	-0.244
Mof_C 	C 	0.9187	0.199	0.826	-0.17
Mof_C 	C 	0.6045	0.2181	0.151	-0.219
Mof_C 	C 	0.5715	0.1921	0.628	-0.023
Mof_C 	C 	0.5177	0.1529	0.685	0.038
Mof_C 	C 	0.4096	0.1551	0.652	-0.031
Mof_Cd	Cd	0.71375	0.63454	0.37667	0.379
Mof_N 	N 	0.7366	0.5789	0.5904	-0.076
Mof_N 	N 	0.738	0.5779	0.1492	-0.076
Mof_N 	N 	0.867	0.6688	0.37	-0.073
Mof_N 	N 	0.6676	0.6986	0.587	-0.064
Mof_N 	N 	0.6756	0.6921	0.149	-0.112
Mof_N 	N 	0.5471	0.6246	0.3337	-0.126
Mof_C 	C 	0.7424	0.5487	0.695	-0.224
Mof_C 	C 	0.7575	0.5485	0.042	-0.223
Mof_C 	C 	0.9187	0.699	0.326	-0.168
Mof_C 	C 	0.6045	0.7181	0.651	-0.218
Mof_C 	C 	0.5715	0.6921	0.128	-0.023
Mof_C 	C 	0.5177	0.6529	0.185	0.04
Mof_C 	C 	0.4096	0.6551	0.152	-0.029
Mof_Ni	Ni	0.25	2.2065e-33	0.6321	1.037
Mof_Ni	Ni	0.25	0.5	0.1321	1.06
Mof_Ni	Ni	0.75	2.2065e-33	0.3679	1.041
Mof_Ni	Ni	0.75	0.5	0.8679	1.064
Mof_Ni	Ni	0.5	0.25	0.25	1.067
Mof_Ni	Ni	-5.96076e-18	0.75	0.25	1.034
Mof_Ni	Ni	0.5	0.75	0.75	1.067
Mof_Ni	Ni	-1.73433e-18	0.25	0.75	1.035
_end
