data_functionalizedCrystal
_audit_creation_method	'EQeq! by Chris Wilmer'
_symmetry_space_group_name_H-M	'P1'
_symmetry_Int_Tables_number	1
_symmetry_cell_setting	triclinic
loop_
_symmetry_equiv_pos_as_xyz
  x,y,z
_cell_length_a	23.5862
_cell_length_b	15.7079
_cell_length_c	16.0933
_cell_angle_alpha	90
_cell_angle_beta	124.16
_cell_angle_gamma	90
loop_
_atom_site_label
_atom_site_type_symbol
_atom_site_fract_x
_atom_site_fract_y
_atom_site_fract_z
_atom_site_charge
Mof_Tb	Tb	0.68945	0.82761	0.87687	1.943
Mof_C 	C 	0.3683	0.4612	0.1737	-0.165
Mof_C 	C 	0.3568	0.5434	0.1366	0.034
Mof_H 	H 	0.3203	0.5546	0.069	0.044
Mof_C 	C 	0.3983	0.6097	0.1979	-0.011
Mof_C 	C 	0.4527	0.5938	0.2969	0.181
Mof_C 	C 	0.4654	0.5109	0.3321	-0.189
Mof_H 	H 	0.5032	0.4992	0.3986	0.108
Mof_C 	C 	0.4238	0.4451	0.2718	0.101
Mof_H 	H 	0.433	0.3886	0.2971	0.011
Mof_C 	C 	0.4805	0.6912	0.4252	0.184
Mof_C 	C 	0.4149	0.6897	0.4036	-0.102
Mof_H 	H 	0.3785	0.6648	0.343	0.093
Mof_C 	C 	0.4027	0.7247	0.4711	-0.083
Mof_C 	C 	0.4561	0.7589	0.5614	-0.003
Mof_H 	H 	0.4479	0.7807	0.6088	0.027
Mof_C 	C 	0.5218	0.7609	0.5815	-0.027
Mof_C 	C 	0.5341	0.7275	0.5128	-0.124
Mof_H 	H 	0.5787	0.7295	0.5261	0.115
Mof_C 	C 	0.3204	0.3897	0.1097	0.481
Mof_C 	C 	0.3302	0.7247	0.4434	0.429
Mof_C 	C 	0.5807	0.7961	0.6796	0.294
Mof_N 	N 	0.3826	0.6947	0.1545	0.012
Mof_O 	O 	0.32793	0.3211	0.1545	-0.493
Mof_O 	O 	0.27744	0.4053	0.0183	-0.528
Mof_O 	O 	0.3475	0.7013	0.0632	-0.112
Mof_O 	O 	0.4047	0.7562	0.211	-0.105
Mof_O 	O 	0.28568	0.6856	0.3659	-0.474
Mof_O 	O 	0.3163	0.7638	0.4982	-0.579
Mof_O 	O 	0.56967	0.8202	0.7445	-0.447
Mof_O 	O 	0.63896	0.7992	0.6956	-0.392
Mof_O 	O 	0.49657	0.6574	0.3609	-0.221
Mof_Tb	Tb	0.18945	0.32761	0.87687	1.943
Mof_C 	C 	0.8683	0.9612	0.1737	-0.164
Mof_C 	C 	0.8568	0.0434	0.1366	0.033
Mof_H 	H 	0.8203	0.0546	0.069	0.044
Mof_C 	C 	0.8983	0.1097	0.1979	-0.011
Mof_C 	C 	0.9527	0.0938	0.2969	0.182
Mof_C 	C 	0.9654	0.0109	0.3321	-0.192
Mof_H 	H 	0.0032	0.9992	0.3986	0.109
Mof_C 	C 	0.9238	0.9451	0.2718	0.103
Mof_H 	H 	0.933	0.8886	0.2971	0.01
Mof_C 	C 	0.9805	0.1912	0.4252	0.183
Mof_C 	C 	0.9149	0.1897	0.4036	-0.102
Mof_H 	H 	0.8785	0.1648	0.343	0.093
Mof_C 	C 	0.9027	0.2247	0.4711	-0.083
Mof_C 	C 	0.9561	0.2589	0.5614	-0.003
Mof_H 	H 	0.9479	0.2807	0.6088	0.027
Mof_C 	C 	0.0218	0.2609	0.5815	-0.027
Mof_C 	C 	0.0341	0.2275	0.5128	-0.124
Mof_H 	H 	0.0787	0.2295	0.5261	0.114
Mof_C 	C 	0.8204	0.8897	0.1097	0.481
Mof_C 	C 	0.8302	0.2247	0.4434	0.429
Mof_C 	C 	0.0807	0.2961	0.6796	0.294
Mof_N 	N 	0.8826	0.1947	0.1545	0.012
Mof_O 	O 	0.82793	0.8211	0.1545	-0.493
Mof_O 	O 	0.77744	0.9053	0.0183	-0.527
Mof_O 	O 	0.8475	0.2013	0.0632	-0.114
Mof_O 	O 	0.9047	0.2562	0.211	-0.106
Mof_O 	O 	0.78568	0.1856	0.3659	-0.474
Mof_O 	O 	0.8163	0.2638	0.4982	-0.579
Mof_O 	O 	0.06967	0.3202	0.7445	-0.447
Mof_O 	O 	0.13896	0.2992	0.6956	-0.392
Mof_O 	O 	0.99657	0.1574	0.3609	-0.222
Mof_Tb	Tb	0.31055	0.82761	0.62313	1.944
Mof_C 	C 	0.6317	0.4612	0.3263	-0.165
Mof_C 	C 	0.6432	0.5434	0.3634	0.034
Mof_H 	H 	0.6797	0.5546	0.431	0.044
Mof_C 	C 	0.6017	0.6097	0.3021	-0.011
Mof_C 	C 	0.5473	0.5938	0.2031	0.181
Mof_C 	C 	0.5346	0.5109	0.1679	-0.189
Mof_H 	H 	0.4968	0.4992	0.1014	0.108
Mof_C 	C 	0.5762	0.4451	0.2282	0.101
Mof_H 	H 	0.567	0.3886	0.2029	0.011
Mof_C 	C 	0.5195	0.6912	0.0748	0.185
Mof_C 	C 	0.5851	0.6897	0.0964	-0.103
Mof_H 	H 	0.6215	0.6648	0.157	0.093
Mof_C 	C 	0.5973	0.7247	0.0289	-0.081
Mof_C 	C 	0.5439	0.7589	0.9386	-0.005
Mof_H 	H 	0.5521	0.7807	0.8912	0.028
Mof_C 	C 	0.4782	0.7609	0.9185	-0.026
Mof_C 	C 	0.4659	0.7275	0.9872	-0.127
Mof_H 	H 	0.4213	0.7295	0.9739	0.115
Mof_C 	C 	0.6796	0.3897	0.3903	0.481
Mof_C 	C 	0.6698	0.7247	0.0566	0.428
Mof_C 	C 	0.4193	0.7961	0.8204	0.294
Mof_N 	N 	0.6174	0.6947	0.3455	0.012
Mof_O 	O 	0.67207	0.3211	0.3455	-0.493
Mof_O 	O 	0.72256	0.4053	0.4817	-0.528
Mof_O 	O 	0.6525	0.7013	0.4368	-0.112
Mof_O 	O 	0.5953	0.7562	0.289	-0.106
Mof_O 	O 	0.71432	0.6856	0.1341	-0.474
Mof_O 	O 	0.6837	0.7638	0.0018	-0.579
Mof_O 	O 	0.43033	0.8202	0.7555	-0.447
Mof_O 	O 	0.36104	0.7992	0.8044	-0.392
Mof_O 	O 	0.50343	0.6574	0.1391	-0.222
Mof_Tb	Tb	0.81055	0.32761	0.62313	1.944
Mof_C 	C 	0.1317	0.9612	0.3263	-0.166
Mof_C 	C 	0.1432	0.0434	0.3634	0.034
Mof_H 	H 	0.1797	0.0546	0.431	0.044
Mof_C 	C 	0.1017	0.1097	0.3021	-0.011
Mof_C 	C 	0.0473	0.0938	0.2031	0.182
Mof_C 	C 	0.0346	0.0109	0.1679	-0.192
Mof_H 	H 	0.9968	0.9992	0.1014	0.109
Mof_C 	C 	0.0762	0.9451	0.2282	0.103
Mof_H 	H 	0.067	0.8886	0.2029	0.01
Mof_C 	C 	0.0195	0.1912	0.0748	0.183
Mof_C 	C 	0.0851	0.1897	0.0964	-0.102
Mof_H 	H 	0.1215	0.1648	0.157	0.093
Mof_C 	C 	0.0973	0.2247	0.0289	-0.082
Mof_C 	C 	0.0439	0.2589	0.9386	-0.005
Mof_H 	H 	0.0521	0.2807	0.8912	0.028
Mof_C 	C 	0.9782	0.2609	0.9185	-0.026
Mof_C 	C 	0.9659	0.2275	0.9872	-0.124
Mof_H 	H 	0.9213	0.2295	0.9739	0.115
Mof_C 	C 	0.1796	0.8897	0.3903	0.482
Mof_C 	C 	0.1698	0.2247	0.0566	0.429
Mof_C 	C 	0.9193	0.2961	0.8204	0.294
Mof_N 	N 	0.1174	0.1947	0.3455	0.012
Mof_O 	O 	0.17207	0.8211	0.3455	-0.493
Mof_O 	O 	0.22256	0.9053	0.4817	-0.528
Mof_O 	O 	0.1525	0.2013	0.4368	-0.112
Mof_O 	O 	0.0953	0.2562	0.289	-0.106
Mof_O 	O 	0.21432	0.1856	0.1341	-0.474
Mof_O 	O 	0.1837	0.2638	0.0018	-0.579
Mof_O 	O 	0.93033	0.3202	0.7555	-0.447
Mof_O 	O 	0.86104	0.2992	0.8044	-0.392
Mof_O 	O 	0.00343	0.1574	0.1391	-0.221
Mof_Tb	Tb	0.31055	0.17239	0.12313	1.943
Mof_C 	C 	0.6317	0.5388	0.8263	-0.165
Mof_C 	C 	0.6432	0.4566	0.8634	0.034
Mof_H 	H 	0.6797	0.4454	0.931	0.044
Mof_C 	C 	0.6017	0.3903	0.8021	-0.011
Mof_C 	C 	0.5473	0.4062	0.7031	0.181
Mof_C 	C 	0.5346	0.4891	0.6679	-0.189
Mof_H 	H 	0.4968	0.5008	0.6014	0.108
Mof_C 	C 	0.5762	0.5549	0.7282	0.101
Mof_H 	H 	0.567	0.6114	0.7029	0.011
Mof_C 	C 	0.5195	0.3088	0.5748	0.184
Mof_C 	C 	0.5851	0.3103	0.5964	-0.102
Mof_H 	H 	0.6215	0.3352	0.657	0.093
Mof_C 	C 	0.5973	0.2753	0.5289	-0.083
Mof_C 	C 	0.5439	0.2411	0.4386	-0.003
Mof_H 	H 	0.5521	0.2193	0.3912	0.027
Mof_C 	C 	0.4782	0.2391	0.4185	-0.027
Mof_C 	C 	0.4659	0.2725	0.4872	-0.124
Mof_H 	H 	0.4213	0.2705	0.4739	0.115
Mof_C 	C 	0.6796	0.6103	0.8903	0.481
Mof_C 	C 	0.6698	0.2753	0.5566	0.429
Mof_C 	C 	0.4193	0.2039	0.3204	0.294
Mof_N 	N 	0.6174	0.3053	0.8455	0.012
Mof_O 	O 	0.67207	0.6789	0.8455	-0.493
Mof_O 	O 	0.72256	0.5947	0.9817	-0.528
Mof_O 	O 	0.6525	0.2987	0.9368	-0.112
Mof_O 	O 	0.5953	0.2438	0.789	-0.105
Mof_O 	O 	0.71432	0.3144	0.6341	-0.474
Mof_O 	O 	0.6837	0.2362	0.5018	-0.579
Mof_O 	O 	0.43033	0.1798	0.2555	-0.447
Mof_O 	O 	0.36104	0.2008	0.3044	-0.392
Mof_O 	O 	0.50343	0.3426	0.6391	-0.221
Mof_Tb	Tb	0.81055	0.67239	0.12313	1.943
Mof_C 	C 	0.1317	0.0388	0.8263	-0.164
Mof_C 	C 	0.1432	0.9566	0.8634	0.033
Mof_H 	H 	0.1797	0.9454	0.931	0.044
Mof_C 	C 	0.1017	0.8903	0.8021	-0.011
Mof_C 	C 	0.0473	0.9062	0.7031	0.182
Mof_C 	C 	0.0346	0.9891	0.6679	-0.192
Mof_H 	H 	0.9968	0.0008	0.6014	0.109
Mof_C 	C 	0.0762	0.0549	0.7282	0.103
Mof_H 	H 	0.067	0.1114	0.7029	0.01
Mof_C 	C 	0.0195	0.8088	0.5748	0.183
Mof_C 	C 	0.0851	0.8103	0.5964	-0.102
Mof_H 	H 	0.1215	0.8352	0.657	0.093
Mof_C 	C 	0.0973	0.7753	0.5289	-0.083
Mof_C 	C 	0.0439	0.7411	0.4386	-0.003
Mof_H 	H 	0.0521	0.7193	0.3912	0.027
Mof_C 	C 	0.9782	0.7391	0.4185	-0.027
Mof_C 	C 	0.9659	0.7725	0.4872	-0.124
Mof_H 	H 	0.9213	0.7705	0.4739	0.114
Mof_C 	C 	0.1796	0.1103	0.8903	0.481
Mof_C 	C 	0.1698	0.7753	0.5566	0.429
Mof_C 	C 	0.9193	0.7039	0.3204	0.294
Mof_N 	N 	0.1174	0.8053	0.8455	0.012
Mof_O 	O 	0.17207	0.1789	0.8455	-0.493
Mof_O 	O 	0.22256	0.0947	0.9817	-0.527
Mof_O 	O 	0.1525	0.7987	0.9368	-0.114
Mof_O 	O 	0.0953	0.7438	0.789	-0.106
Mof_O 	O 	0.21432	0.8144	0.6341	-0.474
Mof_O 	O 	0.1837	0.7362	0.5018	-0.579
Mof_O 	O 	0.93033	0.6798	0.2555	-0.447
Mof_O 	O 	0.86104	0.7008	0.3044	-0.392
Mof_O 	O 	0.00343	0.8426	0.6391	-0.222
Mof_Tb	Tb	0.68945	0.17239	0.37687	1.944
Mof_C 	C 	0.3683	0.5388	0.6737	-0.165
Mof_C 	C 	0.3568	0.4566	0.6366	0.034
Mof_H 	H 	0.3203	0.4454	0.569	0.044
Mof_C 	C 	0.3983	0.3903	0.6979	-0.011
Mof_C 	C 	0.4527	0.4062	0.7969	0.181
Mof_C 	C 	0.4654	0.4891	0.8321	-0.189
Mof_H 	H 	0.5032	0.5008	0.8986	0.108
Mof_C 	C 	0.4238	0.5549	0.7718	0.101
Mof_H 	H 	0.433	0.6114	0.7971	0.011
Mof_C 	C 	0.4805	0.3088	0.9252	0.185
Mof_C 	C 	0.4149	0.3103	0.9036	-0.103
Mof_H 	H 	0.3785	0.3352	0.843	0.093
Mof_C 	C 	0.4027	0.2753	0.9711	-0.081
Mof_C 	C 	0.4561	0.2411	0.0614	-0.005
Mof_H 	H 	0.4479	0.2193	0.1088	0.028
Mof_C 	C 	0.5218	0.2391	0.0815	-0.026
Mof_C 	C 	0.5341	0.2725	0.0128	-0.127
Mof_H 	H 	0.5787	0.2705	0.0261	0.115
Mof_C 	C 	0.3204	0.6103	0.6097	0.481
Mof_C 	C 	0.3302	0.2753	0.9434	0.428
Mof_C 	C 	0.5807	0.2039	0.1796	0.294
Mof_N 	N 	0.3826	0.3053	0.6545	0.012
Mof_O 	O 	0.32793	0.6789	0.6545	-0.493
Mof_O 	O 	0.27744	0.5947	0.5183	-0.528
Mof_O 	O 	0.3475	0.2987	0.5632	-0.112
Mof_O 	O 	0.4047	0.2438	0.711	-0.106
Mof_O 	O 	0.28568	0.3144	0.8659	-0.474
Mof_O 	O 	0.3163	0.2362	0.9982	-0.579
Mof_O 	O 	0.56967	0.1798	0.2445	-0.447
Mof_O 	O 	0.63896	0.2008	0.1956	-0.392
Mof_O 	O 	0.49657	0.3426	0.8609	-0.222
Mof_Tb	Tb	0.18945	0.67239	0.37687	1.944
Mof_C 	C 	0.8683	0.0388	0.6737	-0.166
Mof_C 	C 	0.8568	0.9566	0.6366	0.034
Mof_H 	H 	0.8203	0.9454	0.569	0.044
Mof_C 	C 	0.8983	0.8903	0.6979	-0.011
Mof_C 	C 	0.9527	0.9062	0.7969	0.182
Mof_C 	C 	0.9654	0.9891	0.8321	-0.192
Mof_H 	H 	0.0032	0.0008	0.8986	0.109
Mof_C 	C 	0.9238	0.0549	0.7718	0.103
Mof_H 	H 	0.933	0.1114	0.7971	0.01
Mof_C 	C 	0.9805	0.8088	0.9252	0.183
Mof_C 	C 	0.9149	0.8103	0.9036	-0.102
Mof_H 	H 	0.8785	0.8352	0.843	0.093
Mof_C 	C 	0.9027	0.7753	0.9711	-0.082
Mof_C 	C 	0.9561	0.7411	0.0614	-0.005
Mof_H 	H 	0.9479	0.7193	0.1088	0.028
Mof_C 	C 	0.0218	0.7391	0.0815	-0.026
Mof_C 	C 	0.0341	0.7725	0.0128	-0.124
Mof_H 	H 	0.0787	0.7705	0.0261	0.115
Mof_C 	C 	0.8204	0.1103	0.6097	0.482
Mof_C 	C 	0.8302	0.7753	0.9434	0.429
Mof_C 	C 	0.0807	0.7039	0.1796	0.294
Mof_N 	N 	0.8826	0.8053	0.6545	0.012
Mof_O 	O 	0.82793	0.1789	0.6545	-0.493
Mof_O 	O 	0.77744	0.0947	0.5183	-0.528
Mof_O 	O 	0.8475	0.7987	0.5632	-0.112
Mof_O 	O 	0.9047	0.7438	0.711	-0.106
Mof_O 	O 	0.78568	0.8144	0.8659	-0.474
Mof_O 	O 	0.8163	0.7362	0.9982	-0.579
Mof_O 	O 	0.06967	0.6798	0.2445	-0.447
Mof_O 	O 	0.13896	0.7008	0.1956	-0.392
Mof_O 	O 	0.99657	0.8426	0.8609	-0.221
_end
