data_functionalizedCrystal
_audit_creation_method	'EQeq! by Chris Wilmer'
_symmetry_space_group_name_H-M	'P1'
_symmetry_Int_Tables_number	1
_symmetry_cell_setting	triclinic
loop_
_symmetry_equiv_pos_as_xyz
  x,y,z
_cell_length_a	6.8636
_cell_length_b	11.979
_cell_length_c	13.651
_cell_angle_alpha	90
_cell_angle_beta	99.65
_cell_angle_gamma	90
loop_
_atom_site_label
_atom_site_type_symbol
_atom_site_fract_x
_atom_site_fract_y
_atom_site_fract_z
_atom_site_charge
Mof_La	La	0.94072	0.83039	0.24216	2.101
Mof_C 	C 	0.4646	0.876	0.1056	-0.111
Mof_C 	C 	0.315	0.9004	0.0271	0.086
Mof_H 	H 	0.1984	0.9339	0.0381	0.006
Mof_C 	C 	0.3434	0.8734	0.9315	-0.173
Mof_C 	C 	0.52	0.8235	0.9176	0.085
Mof_H 	H 	0.539	0.8008	0.8548	-0.019
Mof_C 	C 	0.6671	0.8085	0.9997	-0.116
Mof_C 	C 	0.8722	0.7631	0.9933	0.441
Mof_C 	C 	0.448	0.8971	0.2128	0.425
Mof_C 	C 	0.1858	0.8988	0.8426	0.444
Mof_N 	N 	0.6405	0.8343	0.0921	-0.18
Mof_O 	O 	0.6071	0.9019	0.2739	-0.493
Mof_O 	O 	0.2789	0.9092	0.234	-0.487
Mof_O 	O 	0.9886	0.7524	0.0744	-0.487
Mof_O 	O 	0.9118	0.7416	0.9097	-0.528
Mof_O 	O 	0.1707	0.8311	0.7716	-0.508
Mof_O 	O 	0.0833	0.9848	0.847	-0.488
Mof_La	La	0.05928	0.33039	0.25784	2.108
Mof_C 	C 	0.5354	0.376	0.3944	-0.113
Mof_C 	C 	0.685	0.4004	0.4729	0.093
Mof_H 	H 	0.8016	0.4339	0.4619	0.004
Mof_C 	C 	0.6566	0.3734	0.5685	-0.179
Mof_C 	C 	0.48	0.3235	0.5824	0.088
Mof_H 	H 	0.461	0.3008	0.6452	-0.02
Mof_C 	C 	0.3329	0.3085	0.5003	-0.117
Mof_C 	C 	0.1278	0.2631	0.5067	0.443
Mof_C 	C 	0.552	0.3971	0.2872	0.427
Mof_C 	C 	0.8142	0.3988	0.6574	0.446
Mof_N 	N 	0.3595	0.3343	0.4079	-0.179
Mof_O 	O 	0.3929	0.4019	0.2261	-0.492
Mof_O 	O 	0.7211	0.4092	0.266	-0.488
Mof_O 	O 	0.0114	0.2524	0.4256	-0.488
Mof_O 	O 	0.0882	0.2416	0.5903	-0.526
Mof_O 	O 	0.8293	0.3311	0.7284	-0.509
Mof_O 	O 	0.9167	0.4848	0.653	-0.495
Mof_La	La	0.05928	0.16961	0.75784	2.1
Mof_C 	C 	0.5354	0.124	0.8944	-0.112
Mof_C 	C 	0.685	0.0996	0.9729	0.086
Mof_H 	H 	0.8016	0.0661	0.9619	0.006
Mof_C 	C 	0.6566	0.1266	0.0685	-0.173
Mof_C 	C 	0.48	0.1765	0.0824	0.085
Mof_H 	H 	0.461	0.1992	0.1452	-0.019
Mof_C 	C 	0.3329	0.1915	0.0003	-0.116
Mof_C 	C 	0.1278	0.2369	0.0067	0.441
Mof_C 	C 	0.552	0.1029	0.7872	0.425
Mof_C 	C 	0.8142	0.1012	0.1574	0.444
Mof_N 	N 	0.3595	0.1657	0.9079	-0.18
Mof_O 	O 	0.3929	0.0981	0.7261	-0.493
Mof_O 	O 	0.7211	0.0908	0.766	-0.487
Mof_O 	O 	0.0114	0.2476	0.9256	-0.487
Mof_O 	O 	0.0882	0.2584	0.0903	-0.528
Mof_O 	O 	0.8293	0.1689	0.2284	-0.508
Mof_O 	O 	0.9167	0.0152	0.153	-0.488
Mof_La	La	0.94072	0.66961	0.74216	2.108
Mof_C 	C 	0.4646	0.624	0.6056	-0.113
Mof_C 	C 	0.315	0.5996	0.5271	0.093
Mof_H 	H 	0.1984	0.5661	0.5381	0.004
Mof_C 	C 	0.3434	0.6266	0.4315	-0.179
Mof_C 	C 	0.52	0.6765	0.4176	0.088
Mof_H 	H 	0.539	0.6992	0.3548	-0.02
Mof_C 	C 	0.6671	0.6915	0.4997	-0.117
Mof_C 	C 	0.8722	0.7369	0.4933	0.443
Mof_C 	C 	0.448	0.6029	0.7128	0.427
Mof_C 	C 	0.1858	0.6012	0.3426	0.446
Mof_N 	N 	0.6405	0.6657	0.5921	-0.179
Mof_O 	O 	0.6071	0.5981	0.7739	-0.492
Mof_O 	O 	0.2789	0.5908	0.734	-0.488
Mof_O 	O 	0.9886	0.7476	0.5744	-0.488
Mof_O 	O 	0.9118	0.7584	0.4097	-0.526
Mof_O 	O 	0.1707	0.6689	0.2716	-0.509
Mof_O 	O 	0.0833	0.5152	0.347	-0.495
_end
