data_functionalizedCrystal
_audit_creation_method	'EQeq! by Chris Wilmer'
_symmetry_space_group_name_H-M	'P1'
_symmetry_Int_Tables_number	1
_symmetry_cell_setting	triclinic
loop_
_symmetry_equiv_pos_as_xyz
  x,y,z
_cell_length_a	8.509
_cell_length_b	13.153
_cell_length_c	13.9945
_cell_angle_alpha	118.03
_cell_angle_beta	90.64
_cell_angle_gamma	90
loop_
_atom_site_label
_atom_site_type_symbol
_atom_site_fract_x
_atom_site_fract_y
_atom_site_fract_z
_atom_site_charge
Mof_Cu	Cu	0.55381	0.08962	0.58871	0.917
Mof_Cu	Cu	0.94619	0.50091	0.41129	0.917
Mof_Cu	Cu	0.44619	0.91038	0.41129	0.917
Mof_Cu	Cu	0.05381	0.49909	0.58871	0.917
Mof_H 	H 	0.6516	0.3414	0.6626	0.016
Mof_H 	H 	0.8065	0.4879	0.7902	0.096
Mof_H 	H 	0.897	0.2857	0.9306	0.078
Mof_H 	H 	0.7363	0.1458	0.8006	0.009
Mof_H 	H 	0.9748	0.5671	0.9492	0.059
Mof_H 	H 	0.0961	0.0716	0.7244	0.171
Mof_H 	H 	0.0048	0.0825	0.629	0.187
Mof_H 	H 	0.9094	0.9204	0.6446	-0.042
Mof_H 	H 	0.9867	0.8788	0.5284	-0.022
Mof_H 	H 	0.1351	0.8689	0.7082	0.171
Mof_H 	H 	0.2255	0.8394	0.5988	0.182
Mof_H 	H 	0.8484	0.6788	0.3374	0.016
Mof_H 	H 	0.6935	0.6977	0.2098	0.096
Mof_H 	H 	0.603	0.3551	0.0694	0.078
Mof_H 	H 	0.7637	0.3452	0.1994	0.009
Mof_H 	H 	0.5252	0.6179	0.0508	0.058
Mof_H 	H 	0.4039	0.3472	0.2756	0.171
Mof_H 	H 	0.4952	0.4535	0.371	0.187
Mof_H 	H 	0.5906	0.2758	0.3554	-0.041
Mof_H 	H 	0.5133	0.3504	0.4716	-0.021
Mof_H 	H 	0.3649	0.1607	0.2918	0.171
Mof_H 	H 	0.2745	0.2406	0.4012	0.182
Mof_H 	H 	0.3484	0.6586	0.3374	0.016
Mof_H 	H 	0.1935	0.5121	0.2098	0.096
Mof_H 	H 	0.103	0.7143	0.0694	0.078
Mof_H 	H 	0.2637	0.8542	0.1994	0.009
Mof_H 	H 	0.0252	0.4329	0.0508	0.059
Mof_H 	H 	0.9039	0.9284	0.2756	0.171
Mof_H 	H 	0.9952	0.9175	0.371	0.187
Mof_H 	H 	0.0906	0.0796	0.3554	-0.042
Mof_H 	H 	0.0133	0.1212	0.4716	-0.022
Mof_H 	H 	0.8649	0.1311	0.2918	0.171
Mof_H 	H 	0.7745	0.1606	0.4012	0.182
Mof_H 	H 	0.1516	0.3212	0.6626	0.016
Mof_H 	H 	0.3065	0.3023	0.7902	0.096
Mof_H 	H 	0.397	0.6449	0.9306	0.078
Mof_H 	H 	0.2363	0.6548	0.8006	0.009
Mof_H 	H 	0.4748	0.3821	0.9492	0.058
Mof_H 	H 	0.5961	0.6528	0.7244	0.171
Mof_H 	H 	0.5048	0.5465	0.629	0.187
Mof_H 	H 	0.4094	0.7242	0.6446	-0.041
Mof_H 	H 	0.4867	0.6496	0.5284	-0.021
Mof_H 	H 	0.6351	0.8393	0.7082	0.171
Mof_H 	H 	0.7255	0.7594	0.5988	0.182
Mof_C 	C 	0.7008	0.33052	0.71842	0.088
Mof_C 	C 	0.7942	0.41814	0.79408	-0.156
Mof_C 	C 	0.8683	0.40486	0.87652	0.11
Mof_C 	C 	0.8461	0.29979	0.87718	-0.152
Mof_C 	C 	0.7505	0.21647	0.79874	0.075
Mof_C 	C 	0.9637	0.49995	0.9577	-0.079
Mof_C 	C 	0.2355	0.03055	0.59188	0.461
Mof_C 	C 	0.0796	0.03463	0.64492	-0.475
Mof_C 	C 	0.0096	0.91413	0.60696	0.255
Mof_C 	C 	0.1217	0.83666	0.62884	-0.47
Mof_C 	C 	0.071	0.71216	0.5825	0.464
Mof_C 	C 	0.7992	0.6121	0.28158	0.088
Mof_C 	C 	0.7058	0.62406	0.20592	-0.156
Mof_C 	C 	0.6317	0.52834	0.12348	0.109
Mof_C 	C 	0.6539	0.42261	0.12282	-0.152
Mof_C 	C 	0.7495	0.41773	0.20126	0.075
Mof_C 	C 	0.5363	0.54225	0.0423	-0.079
Mof_C 	C 	0.2645	0.43867	0.40812	0.461
Mof_C 	C 	0.4204	0.38971	0.35508	-0.474
Mof_C 	C 	0.4904	0.30717	0.39304	0.253
Mof_C 	C 	0.3783	0.20782	0.37116	-0.47
Mof_C 	C 	0.429	0.12966	0.4175	0.464
Mof_C 	C 	0.2992	0.66948	0.28158	0.088
Mof_C 	C 	0.2058	0.58186	0.20592	-0.156
Mof_C 	C 	0.1317	0.59514	0.12348	0.11
Mof_C 	C 	0.1539	0.70021	0.12282	-0.152
Mof_C 	C 	0.2495	0.78353	0.20126	0.075
Mof_C 	C 	0.0363	0.50005	0.0423	-0.079
Mof_C 	C 	0.7645	0.96945	0.40812	0.461
Mof_C 	C 	0.9204	0.96537	0.35508	-0.475
Mof_C 	C 	0.9904	0.08587	0.39304	0.255
Mof_C 	C 	0.8783	0.16334	0.37116	-0.47
Mof_C 	C 	0.929	0.28784	0.4175	0.464
Mof_C 	C 	0.2008	0.3879	0.71842	0.088
Mof_C 	C 	0.2942	0.37594	0.79408	-0.156
Mof_C 	C 	0.3683	0.47166	0.87652	0.109
Mof_C 	C 	0.3461	0.57739	0.87718	-0.152
Mof_C 	C 	0.2505	0.58227	0.79874	0.075
Mof_C 	C 	0.4637	0.45775	0.9577	-0.079
Mof_C 	C 	0.7355	0.56133	0.59188	0.461
Mof_C 	C 	0.5796	0.61029	0.64492	-0.474
Mof_C 	C 	0.5096	0.69283	0.60696	0.253
Mof_C 	C 	0.6217	0.79218	0.62884	-0.47
Mof_C 	C 	0.571	0.87034	0.5825	0.464
Mof_N 	N 	0.6764	0.2304	0.72034	-0.193
Mof_N 	N 	0.8236	0.51006	0.27966	-0.193
Mof_N 	N 	0.3236	0.7696	0.27966	-0.193
Mof_N 	N 	0.1764	0.48994	0.72034	-0.193
Mof_O 	O 	0.34118	0.10147	0.64834	-0.435
Mof_O 	O 	0.25047	0.95612	0.49524	-0.44
Mof_O 	O 	0.0963	0.66364	0.63976	-0.439
Mof_O 	O 	0.011	0.66433	0.48904	-0.435
Mof_O 	O 	0.15882	0.45313	0.35166	-0.434
Mof_O 	O 	0.24953	0.46088	0.50476	-0.441
Mof_O 	O 	0.4037	0.02388	0.36024	-0.439
Mof_O 	O 	0.489	0.17529	0.51096	-0.436
Mof_O 	O 	0.65882	0.89853	0.35166	-0.435
Mof_O 	O 	0.74953	0.04388	0.50476	-0.44
Mof_O 	O 	0.9037	0.33636	0.36024	-0.439
Mof_O 	O 	0.989	0.33567	0.51096	-0.435
Mof_O 	O 	0.84118	0.54687	0.64834	-0.434
Mof_O 	O 	0.75047	0.53912	0.49524	-0.441
Mof_O 	O 	0.5963	0.97612	0.63976	-0.439
Mof_O 	O 	0.511	0.82471	0.48904	-0.436
_end
