data_functionalizedCrystal
_audit_creation_method	'EQeq! by Chris Wilmer'
_symmetry_space_group_name_H-M	'P1'
_symmetry_Int_Tables_number	1
_symmetry_cell_setting	triclinic
loop_
_symmetry_equiv_pos_as_xyz
  x,y,z
_cell_length_a	22.8104
_cell_length_b	22.8104
_cell_length_c	16.8099
_cell_angle_alpha	90
_cell_angle_beta	90
_cell_angle_gamma	120
loop_
_atom_site_label
_atom_site_type_symbol
_atom_site_fract_x
_atom_site_fract_y
_atom_site_fract_z
_atom_site_charge
Mof_Mg	Mg	0.73482	0.96172	0.7067	1.461
Mof_Mg	Mg	0.56031	0.93167	0.73232	1.466
Mof_Mg	Mg	0.70616	0.10765	0.712	1.469
Mof_C 	C 	0.6045	0.7617	0.0532	-0.131
Mof_C 	C 	0.5543	0.7768	0.0297	0.015
Mof_H 	H 	0.5152	0.7613	0.0602	0.034
Mof_C 	C 	0.5625	0.8154	0.9605	-0.045
Mof_H 	H 	0.5281	0.8231	0.9437	0.046
Mof_C 	C 	0.6223	0.8415	0.9182	-0.087
Mof_C 	C 	0.6722	0.8302	0.9448	-0.043
Mof_H 	H 	0.7137	0.851	0.9186	0.041
Mof_C 	C 	0.6636	0.7891	0.0092	0.004
Mof_H 	H 	0.6976	0.7797	0.023	0.019
Mof_C 	C 	0.594	0.7188	0.124	0.405
Mof_C 	C 	0.6309	0.8795	0.8405	0.425
Mof_C 	C 	0.8168	0.0983	0.5112	-0.146
Mof_C 	C 	0.8194	0.1582	0.4833	0.027
Mof_H 	H 	0.797	0.1769	0.5102	0.028
Mof_C 	C 	0.8568	0.1887	0.4141	-0.055
Mof_H 	H 	0.8566	0.2264	0.3933	0.047
Mof_C 	C 	0.8923	0.1651	0.378	-0.041
Mof_C 	C 	0.8876	0.1061	0.4029	-0.065
Mof_H 	H 	0.9083	0.0868	0.3736	0.077
Mof_C 	C 	0.8519	0.0743	0.4722	0.051
Mof_H 	H 	0.8524	0.0363	0.4915	0.037
Mof_C 	C 	0.7761	0.0692	0.5824	0.475
Mof_C 	C 	0.9415	0.1992	0.3014	0.391
Mof_C 	C 	0.5466	0.0488	0.5406	0.045
Mof_C 	C 	0.5645	0.1153	0.5099	-0.128
Mof_H 	H 	0.5979	0.1538	0.5351	0.08
Mof_C 	C 	0.5319	0.1219	0.4425	0.13
Mof_H 	H 	0.5422	0.1644	0.4236	-0.003
Mof_C 	C 	0.4832	0.0623	0.4046	-0.281
Mof_C 	C 	0.4572	0.0005	0.4338	0.379
Mof_H 	H 	0.4199	0.9637	0.4108	-0.159
Mof_C 	C 	0.4892	0.9935	0.5019	-0.348
Mof_H 	H 	0.4723	0.9504	0.5232	0.142
Mof_C 	C 	0.5797	0.0409	0.6089	0.477
Mof_C 	C 	0.4457	0.0715	0.3306	0.502
Mof_O 	O 	0.6436	0.7192	0.1553	-0.65
Mof_O 	O 	0.5342	0.6839	0.1493	-0.46
Mof_O 	O 	0.6861	0.9082	0.8085	-0.551
Mof_O 	O 	0.5775	0.8828	0.8179	-0.539
Mof_O 	O 	0.7473	0.0983	0.6147	-0.572
Mof_O 	O 	0.7813	0.021	0.6081	-0.51
Mof_O 	O 	0.9796	0.1823	0.2813	-0.47
Mof_O 	O 	0.9408	0.2515	0.2719	-0.594
Mof_O 	O 	0.6249	0.0915	0.6404	-0.522
Mof_O 	O 	0.553	0.982	0.6395	-0.596
Mof_O 	O 	0.4606	0.1285	0.3112	-0.539
Mof_O 	O 	0.4072	0.0206	0.291	-0.611
Mof_Mg	Mg	0.03828	0.7731	0.7067	1.46
Mof_Mg	Mg	0.06833	0.62864	0.73232	1.465
Mof_Mg	Mg	0.89235	0.59851	0.712	1.467
Mof_C 	C 	0.2383	0.8428	0.0532	-0.144
Mof_C 	C 	0.2232	0.7775	0.0297	0.017
Mof_H 	H 	0.2387	0.7539	0.0602	0.03
Mof_C 	C 	0.1846	0.7471	0.9605	-0.051
Mof_H 	H 	0.1769	0.705	0.9437	0.046
Mof_C 	C 	0.1585	0.7808	0.9182	-0.088
Mof_C 	C 	0.1698	0.842	0.9448	-0.053
Mof_H 	H 	0.149	0.8627	0.9186	0.033
Mof_C 	C 	0.2109	0.8745	0.0092	0.008
Mof_H 	H 	0.2203	0.9179	0.023	0
Mof_C 	C 	0.2812	0.8752	0.124	0.41
Mof_C 	C 	0.1205	0.7514	0.8405	0.423
Mof_C 	C 	0.9017	0.7185	0.5112	-0.148
Mof_C 	C 	0.8418	0.6612	0.4833	0.02
Mof_H 	H 	0.8231	0.6201	0.5102	0.027
Mof_C 	C 	0.8113	0.6681	0.4141	-0.052
Mof_H 	H 	0.7736	0.6302	0.3933	0.043
Mof_C 	C 	0.8349	0.7272	0.378	-0.055
Mof_C 	C 	0.8939	0.7815	0.4029	-0.063
Mof_H 	H 	0.9132	0.8215	0.3736	0.061
Mof_C 	C 	0.9257	0.7776	0.4722	0.043
Mof_H 	H 	0.9637	0.8161	0.4915	0.027
Mof_C 	C 	0.9308	0.7069	0.5824	0.474
Mof_C 	C 	0.8008	0.7423	0.3014	0.396
Mof_C 	C 	0.9512	0.4978	0.5406	0.044
Mof_C 	C 	0.8847	0.4492	0.5099	-0.128
Mof_H 	H 	0.8462	0.4441	0.5351	0.079
Mof_C 	C 	0.8781	0.41	0.4425	0.129
Mof_H 	H 	0.8356	0.3778	0.4236	-0.003
Mof_C 	C 	0.9377	0.4209	0.4046	-0.28
Mof_C 	C 	0.9995	0.4567	0.4338	0.378
Mof_H 	H 	0.0363	0.4562	0.4108	-0.158
Mof_C 	C 	0.0065	0.4957	0.5019	-0.347
Mof_H 	H 	0.0496	0.5219	0.5232	0.142
Mof_C 	C 	0.9591	0.5388	0.6089	0.478
Mof_C 	C 	0.9285	0.3742	0.3306	0.501
Mof_O 	O 	0.2808	0.9244	0.1553	-0.673
Mof_O 	O 	0.3161	0.8503	0.1493	-0.467
Mof_O 	O 	0.0918	0.7779	0.8085	-0.557
Mof_O 	O 	0.1172	0.6947	0.8179	-0.54
Mof_O 	O 	0.9017	0.649	0.6147	-0.575
Mof_O 	O 	0.979	0.7603	0.6081	-0.519
Mof_O 	O 	0.8177	0.7973	0.2813	-0.504
Mof_O 	O 	0.7485	0.6893	0.2719	-0.609
Mof_O 	O 	0.9085	0.5334	0.6404	-0.523
Mof_O 	O 	0.018	0.571	0.6395	-0.596
Mof_O 	O 	0.8715	0.3321	0.3112	-0.537
Mof_O 	O 	0.9794	0.3866	0.291	-0.611
Mof_Mg	Mg	0.2269	0.26518	0.7067	1.465
Mof_Mg	Mg	0.37136	0.43969	0.73232	1.467
Mof_Mg	Mg	0.40149	0.29384	0.712	1.467
Mof_C 	C 	0.1572	0.3955	0.0532	-0.145
Mof_C 	C 	0.2225	0.4457	0.0297	0.023
Mof_H 	H 	0.2461	0.4848	0.0602	0.031
Mof_C 	C 	0.2529	0.4375	0.9605	-0.053
Mof_H 	H 	0.295	0.4719	0.9437	0.049
Mof_C 	C 	0.2192	0.3777	0.9182	-0.078
Mof_C 	C 	0.158	0.3278	0.9448	-0.057
Mof_H 	H 	0.1373	0.2863	0.9186	0.044
Mof_C 	C 	0.1255	0.3364	0.0092	0.016
Mof_H 	H 	0.0821	0.3024	0.023	0.001
Mof_C 	C 	0.1248	0.406	0.124	0.412
Mof_C 	C 	0.2486	0.3691	0.8405	0.421
Mof_C 	C 	0.2815	0.1832	0.5112	-0.157
Mof_C 	C 	0.3388	0.1806	0.4833	0.027
Mof_H 	H 	0.3799	0.203	0.5102	0.026
Mof_C 	C 	0.3319	0.1432	0.4141	-0.058
Mof_H 	H 	0.3698	0.1434	0.3933	0.046
Mof_C 	C 	0.2728	0.1077	0.378	-0.046
Mof_C 	C 	0.2185	0.1124	0.4029	-0.071
Mof_H 	H 	0.1785	0.0917	0.3736	0.062
Mof_C 	C 	0.2224	0.1481	0.4722	0.05
Mof_H 	H 	0.1839	0.1476	0.4915	0.017
Mof_C 	C 	0.2931	0.2239	0.5824	0.476
Mof_C 	C 	0.2577	0.0585	0.3014	0.392
Mof_C 	C 	0.5022	0.4534	0.5406	-0.145
Mof_C 	C 	0.5508	0.4355	0.5099	0.012
Mof_H 	H 	0.5559	0.4021	0.5351	0.03
Mof_C 	C 	0.59	0.4681	0.4425	-0.039
Mof_H 	H 	0.6222	0.4578	0.4236	0.053
Mof_C 	C 	0.5791	0.5168	0.4046	-0.086
Mof_C 	C 	0.5433	0.5428	0.4338	-0.038
Mof_H 	H 	0.5438	0.5801	0.4108	0.026
Mof_C 	C 	0.5043	0.5108	0.5019	0.011
Mof_H 	H 	0.4781	0.5277	0.5232	0.032
Mof_C 	C 	0.4612	0.4203	0.6089	0.478
Mof_C 	C 	0.6258	0.5543	0.3306	0.436
Mof_O 	O 	0.0756	0.3564	0.1553	-0.671
Mof_O 	O 	0.1497	0.4658	0.1493	-0.466
Mof_O 	O 	0.2221	0.3139	0.8085	-0.534
Mof_O 	O 	0.3053	0.4225	0.8179	-0.532
Mof_O 	O 	0.351	0.2527	0.6147	-0.581
Mof_O 	O 	0.2397	0.2187	0.6081	-0.54
Mof_O 	O 	0.2027	0.0204	0.2813	-0.485
Mof_O 	O 	0.3107	0.0592	0.2719	-0.596
Mof_O 	O 	0.4666	0.3751	0.6404	-0.53
Mof_O 	O 	0.429	0.447	0.6395	-0.55
Mof_O 	O 	0.6679	0.5394	0.3112	-0.524
Mof_O 	O 	0.6134	0.5928	0.291	-0.626
Mof_Mg	Mg	0.03828	0.26518	0.2067	1.461
Mof_Mg	Mg	0.06833	0.43969	0.23232	1.465
Mof_Mg	Mg	0.89235	0.29384	0.212	1.468
Mof_C 	C 	0.2383	0.3955	0.5532	-0.112
Mof_C 	C 	0.2232	0.4457	0.5297	-0.018
Mof_H 	H 	0.2387	0.4848	0.5602	0.042
Mof_C 	C 	0.1846	0.4375	0.4605	-0.014
Mof_H 	H 	0.1769	0.4719	0.4437	0.037
Mof_C 	C 	0.1585	0.3777	0.4182	-0.11
Mof_C 	C 	0.1698	0.3278	0.4448	-0.009
Mof_H 	H 	0.149	0.2863	0.4186	0.031
Mof_C 	C 	0.2109	0.3364	0.5092	-0.031
Mof_H 	H 	0.2203	0.3024	0.523	0.029
Mof_C 	C 	0.2812	0.406	0.624	0.396
Mof_C 	C 	0.1205	0.3691	0.3405	0.433
Mof_C 	C 	0.9017	0.1832	0.0112	-0.092
Mof_C 	C 	0.8418	0.1806	0.9833	-0.038
Mof_H 	H 	0.8231	0.203	0.0102	0.055
Mof_C 	C 	0.8113	0.1432	0.9141	-0.011
Mof_H 	H 	0.7736	0.1434	0.8933	0.031
Mof_C 	C 	0.8349	0.1077	0.878	-0.073
Mof_C 	C 	0.8939	0.1124	0.9029	-0.027
Mof_H 	H 	0.9132	0.0917	0.8736	0.064
Mof_C 	C 	0.9257	0.1481	0.9722	-0
Mof_H 	H 	0.9637	0.1476	0.9915	0.051
Mof_C 	C 	0.9308	0.2239	0.0824	0.456
Mof_C 	C 	0.8008	0.0585	0.8014	0.4
Mof_C 	C 	0.9512	0.4534	0.0406	0.026
Mof_C 	C 	0.8847	0.4355	0.0099	-0.099
Mof_H 	H 	0.8462	0.4021	0.0351	0.072
Mof_C 	C 	0.8781	0.4681	0.9425	0.098
Mof_H 	H 	0.8356	0.4578	0.9236	0.005
Mof_C 	C 	0.9377	0.5168	0.9046	-0.26
Mof_C 	C 	0.9995	0.5428	0.9338	0.342
Mof_H 	H 	0.0363	0.5801	0.9108	-0.147
Mof_C 	C 	0.0065	0.5108	0.0019	-0.314
Mof_H 	H 	0.0496	0.5277	0.0232	0.133
Mof_C 	C 	0.9591	0.4203	0.1089	0.485
Mof_C 	C 	0.9285	0.5543	0.8306	0.494
Mof_O 	O 	0.2808	0.3564	0.6553	-0.649
Mof_O 	O 	0.3161	0.4658	0.6493	-0.459
Mof_O 	O 	0.0918	0.3139	0.3085	-0.552
Mof_O 	O 	0.1172	0.4225	0.3179	-0.54
Mof_O 	O 	0.9017	0.2527	0.1147	-0.566
Mof_O 	O 	0.979	0.2187	0.1081	-0.504
Mof_O 	O 	0.8177	0.0204	0.7813	-0.474
Mof_O 	O 	0.7485	0.0592	0.7719	-0.596
Mof_O 	O 	0.9085	0.3751	0.1404	-0.523
Mof_O 	O 	0.018	0.447	0.1395	-0.596
Mof_O 	O 	0.8715	0.5394	0.8112	-0.538
Mof_O 	O 	0.9794	0.5928	0.791	-0.61
Mof_Mg	Mg	0.2269	0.96172	0.2067	1.46
Mof_Mg	Mg	0.37136	0.93167	0.23232	1.465
Mof_Mg	Mg	0.40149	0.10765	0.212	1.467
Mof_C 	C 	0.1572	0.7617	0.5532	-0.124
Mof_C 	C 	0.2225	0.7768	0.5297	-0.014
Mof_H 	H 	0.2461	0.7613	0.5602	0.039
Mof_C 	C 	0.2529	0.8154	0.4605	-0.019
Mof_H 	H 	0.295	0.8231	0.4437	0.038
Mof_C 	C 	0.2192	0.8415	0.4182	-0.109
Mof_C 	C 	0.158	0.8302	0.4448	-0.018
Mof_H 	H 	0.1373	0.851	0.4186	0.023
Mof_C 	C 	0.1255	0.7891	0.5092	-0.026
Mof_H 	H 	0.0821	0.7797	0.523	0.01
Mof_C 	C 	0.1248	0.7188	0.624	0.402
Mof_C 	C 	0.2486	0.8795	0.3405	0.431
Mof_C 	C 	0.2815	0.0983	0.0112	-0.094
Mof_C 	C 	0.3388	0.1582	0.9833	-0.045
Mof_H 	H 	0.3799	0.1769	0.0102	0.055
Mof_C 	C 	0.3319	0.1887	0.9141	-0.008
Mof_H 	H 	0.3698	0.2264	0.8933	0.026
Mof_C 	C 	0.2728	0.1651	0.878	-0.087
Mof_C 	C 	0.2185	0.1061	0.9029	-0.026
Mof_H 	H 	0.1785	0.0868	0.8736	0.048
Mof_C 	C 	0.2224	0.0743	0.9722	-0.009
Mof_H 	H 	0.1839	0.0363	0.9915	0.041
Mof_C 	C 	0.2931	0.0692	0.0824	0.455
Mof_C 	C 	0.2577	0.1992	0.8014	0.405
Mof_C 	C 	0.5022	0.0488	0.0406	0.026
Mof_C 	C 	0.5508	0.1153	0.0099	-0.099
Mof_H 	H 	0.5559	0.1538	0.0351	0.071
Mof_C 	C 	0.59	0.1219	0.9425	0.097
Mof_H 	H 	0.6222	0.1644	0.9236	0.006
Mof_C 	C 	0.5791	0.0623	0.9046	-0.259
Mof_C 	C 	0.5433	0.0005	0.9338	0.341
Mof_H 	H 	0.5438	0.9637	0.9108	-0.147
Mof_C 	C 	0.5043	0.9935	0.0019	-0.314
Mof_H 	H 	0.4781	0.9504	0.0232	0.133
Mof_C 	C 	0.4612	0.0409	0.1089	0.485
Mof_C 	C 	0.6258	0.0715	0.8306	0.494
Mof_O 	O 	0.0756	0.7192	0.6553	-0.671
Mof_O 	O 	0.1497	0.6839	0.6493	-0.466
Mof_O 	O 	0.2221	0.9082	0.3085	-0.558
Mof_O 	O 	0.3053	0.8828	0.3179	-0.54
Mof_O 	O 	0.351	0.0983	0.1147	-0.569
Mof_O 	O 	0.2397	0.021	0.1081	-0.512
Mof_O 	O 	0.2027	0.1823	0.7813	-0.508
Mof_O 	O 	0.3107	0.2515	0.7719	-0.612
Mof_O 	O 	0.4666	0.0915	0.1404	-0.524
Mof_O 	O 	0.429	0.982	0.1395	-0.596
Mof_O 	O 	0.6679	0.1285	0.8112	-0.536
Mof_O 	O 	0.6134	0.0206	0.791	-0.61
Mof_Mg	Mg	0.73482	0.7731	0.2067	1.465
Mof_Mg	Mg	0.56031	0.62864	0.23232	1.467
Mof_Mg	Mg	0.70616	0.59851	0.212	1.467
Mof_C 	C 	0.6045	0.8428	0.5532	-0.125
Mof_C 	C 	0.5543	0.7775	0.5297	-0.008
Mof_H 	H 	0.5152	0.7539	0.5602	0.04
Mof_C 	C 	0.5625	0.7471	0.4605	-0.021
Mof_H 	H 	0.5281	0.705	0.4437	0.041
Mof_C 	C 	0.6223	0.7808	0.4182	-0.099
Mof_C 	C 	0.6722	0.842	0.4448	-0.022
Mof_H 	H 	0.7137	0.8627	0.4186	0.034
Mof_C 	C 	0.6636	0.8745	0.5092	-0.018
Mof_H 	H 	0.6976	0.9179	0.523	0.011
Mof_C 	C 	0.594	0.8752	0.624	0.404
Mof_C 	C 	0.6309	0.7514	0.3405	0.429
Mof_C 	C 	0.8168	0.7185	0.0112	-0.102
Mof_C 	C 	0.8194	0.6612	0.9833	-0.039
Mof_H 	H 	0.797	0.6201	0.0102	0.054
Mof_C 	C 	0.8568	0.6681	0.9141	-0.014
Mof_H 	H 	0.8566	0.6302	0.8933	0.03
Mof_C 	C 	0.8923	0.7272	0.878	-0.078
Mof_C 	C 	0.8876	0.7815	0.9029	-0.033
Mof_H 	H 	0.9083	0.8215	0.8736	0.048
Mof_C 	C 	0.8519	0.7776	0.9722	-0.002
Mof_H 	H 	0.8524	0.8161	0.9915	0.031
Mof_C 	C 	0.7761	0.7069	0.0824	0.457
Mof_C 	C 	0.9415	0.7423	0.8014	0.401
Mof_C 	C 	0.5466	0.4978	0.0406	-0.16
Mof_C 	C 	0.5645	0.4492	0.0099	0.039
Mof_H 	H 	0.5979	0.4441	0.0351	0.023
Mof_C 	C 	0.5319	0.41	0.9425	-0.068
Mof_H 	H 	0.5422	0.3778	0.9236	0.06
Mof_C 	C 	0.4832	0.4209	0.9046	-0.068
Mof_C 	C 	0.4572	0.4567	0.9338	-0.069
Mof_H 	H 	0.4199	0.4562	0.9108	0.035
Mof_C 	C 	0.4892	0.4957	0.0019	0.039
Mof_H 	H 	0.4723	0.5219	0.0232	0.025
Mof_C 	C 	0.5797	0.5388	0.1089	0.485
Mof_C 	C 	0.4457	0.3742	0.8306	0.43
Mof_O 	O 	0.6436	0.9244	0.6553	-0.67
Mof_O 	O 	0.5342	0.8503	0.6493	-0.466
Mof_O 	O 	0.6861	0.7779	0.3085	-0.535
Mof_O 	O 	0.5775	0.6947	0.3179	-0.533
Mof_O 	O 	0.7473	0.649	0.1147	-0.575
Mof_O 	O 	0.7813	0.7603	0.1081	-0.533
Mof_O 	O 	0.9796	0.7973	0.7813	-0.489
Mof_O 	O 	0.9408	0.6893	0.7719	-0.598
Mof_O 	O 	0.6249	0.5334	0.1404	-0.531
Mof_O 	O 	0.553	0.571	0.1395	-0.55
Mof_O 	O 	0.4606	0.3321	0.8112	-0.523
Mof_O 	O 	0.4072	0.3866	0.791	-0.625
_end
