data_functionalizedCrystal
_audit_creation_method	'EQeq! by Chris Wilmer'
_symmetry_space_group_name_H-M	'P1'
_symmetry_Int_Tables_number	1
_symmetry_cell_setting	triclinic
loop_
_symmetry_equiv_pos_as_xyz
  x,y,z
_cell_length_a	16.202
_cell_length_b	22.691
_cell_length_c	16.772
_cell_angle_alpha	90
_cell_angle_beta	114.511
_cell_angle_gamma	90
loop_
_atom_site_label
_atom_site_type_symbol
_atom_site_fract_x
_atom_site_fract_y
_atom_site_fract_z
_atom_site_charge
Mof_Cd	Cd	0.77929	0.76515	0.62372	0.459
Mof_S 	S 	0.67786	0.97633	0.07891	-0.025
Mof_S 	S 	0.64445	0.00623	0.95691	-0.03
Mof_O 	O 	0.7081	0.8313	0.6716	-0.299
Mof_O 	O 	0.8114	0.7904	0.7919	-0.261
Mof_O 	O 	0.4011	0.7976	0.1586	-0.282
Mof_O 	O 	0.3299	0.7918	0.0161	-0.304
Mof_N 	N 	0.8727	0.8424	0.6189	-0.166
Mof_N 	N 	0.1895	0.1876	0.6259	-0.128
Mof_N 	N 	0.7355	0.9086	0.9462	-0.143
Mof_N 	N 	0.5226	0.9102	0.9946	-0.126
Mof_C 	C 	0.598	0.9072	0.1482	-0.175
Mof_H 	H 	0.6459	0.9193	0.1995	0.094
Mof_C 	C 	0.7489	0.8272	0.7503	0.326
Mof_C 	C 	0.3927	0.8108	0.0823	0.335
Mof_C 	C 	0.7271	0.8713	0.81	-0.137
Mof_C 	C 	0.6747	0.9202	0.7729	0.106
Mof_H 	H 	0.6534	0.9266	0.7129	0.009
Mof_C 	C 	0.654	0.959	0.8232	-0.224
Mof_H 	H 	0.6184	0.9915	0.7965	0.109
Mof_C 	C 	0.6805	0.9529	0.9025	0.152
Mof_C 	C 	0.7585	0.8687	0.8982	0.083
Mof_H 	H 	0.7977	0.8382	0.9276	0.021
Mof_C 	C 	0.4633	0.8511	0.0769	-0.134
Mof_C 	C 	0.4578	0.8717	0.9994	0.073
Mof_H 	H 	0.4097	0.8599	0.948	0.042
Mof_C 	C 	0.5901	0.9269	0.071	0.126
Mof_C 	C 	0.5364	0.8697	0.1511	0.091
Mof_H 	H 	0.5427	0.8554	0.2053	0.027
Mof_C 	C 	0.8385	0.8957	0.6007	0.12
Mof_H 	H 	0.7766	0.9004	0.5848	0.005
Mof_C 	C 	0.8894	0.9451	0.6038	-0.209
Mof_H 	H 	0.8625	0.9821	0.5919	0.105
Mof_C 	C 	0.9793	0.9387	0.6246	0.149
Mof_C 	C 	0.0135	0.8828	0.6422	-0.213
Mof_H 	H 	0.0749	0.8765	0.657	0.116
Mof_C 	C 	0.9596	0.8367	0.6382	0.132
Mof_H 	H 	0.985	0.7992	0.6497	0.009
Mof_C 	C 	0.0435	0.9918	0.6469	-0.073
Mof_H 	H 	0.1003	0.9905	0.6937	0.056
Mof_C 	C 	0.0773	0.0926	0.6189	0.068
Mof_C 	C 	0.0368	0.1451	0.575	0.02
Mof_H 	H 	0.9744	0.1483	0.5426	0.019
Mof_C 	C 	0.2241	0.138	0.6662	-0.086
Mof_H 	H 	0.2868	0.1356	0.6965	0.055
Mof_C 	C 	0.0959	0.1924	0.5829	0.087
Mof_H 	H 	0.0711	0.2285	0.5582	0.004
Mof_C 	C 	0.1725	0.0885	0.6665	-0.157
Mof_H 	H 	0.1997	0.0543	0.6967	0.074
Mof_C 	C 	0.0147	0.0416	0.5958	-0.021
Mof_H 	H 	0.9581	0.0432	0.5487	0.034
Mof_C 	C 	0.5339	0.4869	0.61	-0.047
Mof_C 	C 	0.7196	0.631	0.6269	0.124
Mof_C 	C 	0.6632	0.5832	0.6234	0.041
Mof_C 	C 	0.5504	0.6494	0.6181	-0.141
Mof_C 	C 	0.6076	0.6973	0.6221	-0.045
Mof_C 	C 	0.5206	0.543	0.633	-0.053
Mof_H 	H 	0.5755	0.4793	0.5862	0.045
Mof_H 	H 	0.7774	0.6242	0.6299	-0.011
Mof_H 	H 	0.6839	0.5449	0.6242	0.013
Mof_H 	H 	0.4926	0.657	0.6148	0.075
Mof_H 	H 	0.5876	0.7357	0.622	0.049
Mof_H 	H 	0.4787	0.5506	0.6564	0.049
Mof_Cd	Cd	0.27929	0.26515	0.62372	0.458
Mof_S 	S 	0.17786	0.47633	0.07891	-0.027
Mof_S 	S 	0.14445	0.50623	0.95691	-0.031
Mof_O 	O 	0.2081	0.3313	0.6716	-0.3
Mof_O 	O 	0.3114	0.2904	0.7919	-0.262
Mof_O 	O 	0.9011	0.2976	0.1586	-0.283
Mof_O 	O 	0.8299	0.2918	0.0161	-0.305
Mof_N 	N 	0.3727	0.3424	0.6189	-0.167
Mof_N 	N 	0.6895	0.6876	0.6259	-0.129
Mof_N 	N 	0.2355	0.4086	0.9462	-0.144
Mof_N 	N 	0.0226	0.4102	0.9946	-0.127
Mof_C 	C 	0.098	0.4072	0.1482	-0.176
Mof_H 	H 	0.1459	0.4193	0.1995	0.093
Mof_C 	C 	0.2489	0.3272	0.7503	0.325
Mof_C 	C 	0.8927	0.3108	0.0823	0.334
Mof_C 	C 	0.2271	0.3713	0.81	-0.137
Mof_C 	C 	0.1747	0.4202	0.7729	0.106
Mof_H 	H 	0.1534	0.4266	0.7129	0.009
Mof_C 	C 	0.154	0.459	0.8232	-0.224
Mof_H 	H 	0.1184	0.4915	0.7965	0.109
Mof_C 	C 	0.1805	0.4529	0.9025	0.152
Mof_C 	C 	0.2585	0.3687	0.8982	0.083
Mof_H 	H 	0.2977	0.3382	0.9276	0.021
Mof_C 	C 	0.9633	0.3511	0.0769	-0.133
Mof_C 	C 	0.9578	0.3717	0.9994	0.072
Mof_H 	H 	0.9097	0.3599	0.948	0.043
Mof_C 	C 	0.0901	0.4269	0.071	0.126
Mof_C 	C 	0.0364	0.3697	0.1511	0.09
Mof_H 	H 	0.0427	0.3554	0.2053	0.027
Mof_C 	C 	0.3385	0.3957	0.6007	0.121
Mof_H 	H 	0.2766	0.4004	0.5848	0.005
Mof_C 	C 	0.3894	0.4451	0.6038	-0.209
Mof_H 	H 	0.3625	0.4821	0.5919	0.105
Mof_C 	C 	0.4793	0.4387	0.6246	0.15
Mof_C 	C 	0.5135	0.3828	0.6422	-0.214
Mof_H 	H 	0.5749	0.3765	0.657	0.116
Mof_C 	C 	0.4596	0.3367	0.6382	0.133
Mof_H 	H 	0.485	0.2992	0.6497	0.009
Mof_C 	C 	0.5435	0.4918	0.6469	-0.073
Mof_H 	H 	0.6003	0.4905	0.6937	0.056
Mof_C 	C 	0.5773	0.5926	0.6189	0.068
Mof_C 	C 	0.5368	0.6451	0.575	0.02
Mof_H 	H 	0.4744	0.6483	0.5426	0.019
Mof_C 	C 	0.7241	0.638	0.6662	-0.086
Mof_H 	H 	0.7868	0.6356	0.6965	0.055
Mof_C 	C 	0.5959	0.6924	0.5829	0.087
Mof_H 	H 	0.5711	0.7285	0.5582	0.004
Mof_C 	C 	0.6725	0.5885	0.6665	-0.157
Mof_H 	H 	0.6997	0.5543	0.6967	0.074
Mof_C 	C 	0.5147	0.5416	0.5958	-0.021
Mof_H 	H 	0.4581	0.5432	0.5487	0.034
Mof_C 	C 	0.0339	0.9869	0.61	-0.047
Mof_C 	C 	0.2196	0.131	0.6269	0.125
Mof_C 	C 	0.1632	0.0832	0.6234	0.041
Mof_C 	C 	0.0504	0.1494	0.6181	-0.141
Mof_C 	C 	0.1076	0.1973	0.6221	-0.045
Mof_C 	C 	0.0206	0.043	0.633	-0.053
Mof_H 	H 	0.0755	0.9793	0.5862	0.044
Mof_H 	H 	0.2774	0.1242	0.6299	-0.011
Mof_H 	H 	0.1839	0.0449	0.6242	0.013
Mof_H 	H 	0.9926	0.157	0.6148	0.075
Mof_H 	H 	0.0876	0.2357	0.622	0.049
Mof_H 	H 	0.9787	0.0506	0.6564	0.049
Mof_Cd	Cd	0.22071	0.76515	0.87628	0.458
Mof_S 	S 	0.32214	0.97633	0.42109	-0.026
Mof_S 	S 	0.35555	0.00623	0.54309	-0.031
Mof_O 	O 	0.2919	0.8313	0.8284	-0.3
Mof_O 	O 	0.1886	0.7904	0.7081	-0.262
Mof_O 	O 	0.5989	0.7976	0.3414	-0.283
Mof_O 	O 	0.6701	0.7918	0.4839	-0.305
Mof_N 	N 	0.1273	0.8424	0.8811	-0.167
Mof_N 	N 	0.8105	0.1876	0.8741	-0.13
Mof_N 	N 	0.2645	0.9086	0.5538	-0.144
Mof_N 	N 	0.4774	0.9102	0.5054	-0.127
Mof_C 	C 	0.402	0.9072	0.3518	-0.176
Mof_H 	H 	0.3541	0.9193	0.3005	0.093
Mof_C 	C 	0.2511	0.8272	0.7497	0.325
Mof_C 	C 	0.6073	0.8108	0.4177	0.335
Mof_C 	C 	0.2729	0.8713	0.69	-0.137
Mof_C 	C 	0.3253	0.9202	0.7271	0.106
Mof_H 	H 	0.3466	0.9266	0.7871	0.009
Mof_C 	C 	0.346	0.959	0.6768	-0.224
Mof_H 	H 	0.3816	0.9915	0.7035	0.109
Mof_C 	C 	0.3195	0.9529	0.5975	0.152
Mof_C 	C 	0.2415	0.8687	0.6018	0.083
Mof_H 	H 	0.2023	0.8382	0.5724	0.021
Mof_C 	C 	0.5367	0.8511	0.4231	-0.134
Mof_C 	C 	0.5422	0.8717	0.5006	0.073
Mof_H 	H 	0.5903	0.8599	0.552	0.042
Mof_C 	C 	0.4099	0.9269	0.429	0.126
Mof_C 	C 	0.4636	0.8697	0.3489	0.091
Mof_H 	H 	0.4573	0.8554	0.2947	0.027
Mof_C 	C 	0.1615	0.8957	0.8993	0.121
Mof_H 	H 	0.2234	0.9004	0.9152	0.005
Mof_C 	C 	0.1106	0.9451	0.8962	-0.209
Mof_H 	H 	0.1375	0.9821	0.9081	0.105
Mof_C 	C 	0.0207	0.9387	0.8754	0.15
Mof_C 	C 	0.9865	0.8828	0.8578	-0.214
Mof_H 	H 	0.9251	0.8765	0.843	0.116
Mof_C 	C 	0.0404	0.8367	0.8618	0.133
Mof_H 	H 	0.015	0.7992	0.8503	0.009
Mof_C 	C 	0.9565	0.9918	0.8531	-0.073
Mof_H 	H 	0.8997	0.9905	0.8063	0.056
Mof_C 	C 	0.9227	0.0926	0.8811	0.068
Mof_C 	C 	0.9632	0.1451	0.925	0.02
Mof_H 	H 	0.0256	0.1483	0.9574	0.019
Mof_C 	C 	0.7759	0.138	0.8338	-0.087
Mof_H 	H 	0.7132	0.1356	0.8035	0.055
Mof_C 	C 	0.9041	0.1924	0.9171	0.088
Mof_H 	H 	0.9289	0.2285	0.9418	0.004
Mof_C 	C 	0.8275	0.0885	0.8335	-0.158
Mof_H 	H 	0.8003	0.0543	0.8033	0.074
Mof_C 	C 	0.9853	0.0416	0.9042	-0.021
Mof_H 	H 	0.0419	0.0432	0.9513	0.035
Mof_C 	C 	0.4661	0.4869	0.89	-0.047
Mof_C 	C 	0.2804	0.631	0.8731	0.125
Mof_C 	C 	0.3368	0.5832	0.8766	0.041
Mof_C 	C 	0.4496	0.6494	0.8819	-0.141
Mof_C 	C 	0.3924	0.6973	0.8779	-0.045
Mof_C 	C 	0.4794	0.543	0.867	-0.053
Mof_H 	H 	0.4245	0.4793	0.9138	0.044
Mof_H 	H 	0.2226	0.6242	0.8701	-0.011
Mof_H 	H 	0.3161	0.5449	0.8758	0.013
Mof_H 	H 	0.5074	0.657	0.8852	0.075
Mof_H 	H 	0.4124	0.7357	0.878	0.049
Mof_H 	H 	0.5213	0.5506	0.8436	0.049
Mof_Cd	Cd	0.72071	0.26515	0.87628	0.457
Mof_S 	S 	0.82214	0.47633	0.42109	-0.026
Mof_S 	S 	0.85555	0.50623	0.54309	-0.031
Mof_O 	O 	0.7919	0.3313	0.8284	-0.3
Mof_O 	O 	0.6886	0.2904	0.7081	-0.262
Mof_O 	O 	0.0989	0.2976	0.3414	-0.283
Mof_O 	O 	0.1701	0.2918	0.4839	-0.305
Mof_N 	N 	0.6273	0.3424	0.8811	-0.167
Mof_N 	N 	0.3105	0.6876	0.8741	-0.129
Mof_N 	N 	0.7645	0.4086	0.5538	-0.144
Mof_N 	N 	0.9774	0.4102	0.5054	-0.127
Mof_C 	C 	0.902	0.4072	0.3518	-0.176
Mof_H 	H 	0.8541	0.4193	0.3005	0.093
Mof_C 	C 	0.7511	0.3272	0.7497	0.325
Mof_C 	C 	0.1073	0.3108	0.4177	0.335
Mof_C 	C 	0.7729	0.3713	0.69	-0.137
Mof_C 	C 	0.8253	0.4202	0.7271	0.106
Mof_H 	H 	0.8466	0.4266	0.7871	0.009
Mof_C 	C 	0.846	0.459	0.6768	-0.224
Mof_H 	H 	0.8816	0.4915	0.7035	0.109
Mof_C 	C 	0.8195	0.4529	0.5975	0.152
Mof_C 	C 	0.7415	0.3687	0.6018	0.083
Mof_H 	H 	0.7023	0.3382	0.5724	0.021
Mof_C 	C 	0.0367	0.3511	0.4231	-0.134
Mof_C 	C 	0.0422	0.3717	0.5006	0.073
Mof_H 	H 	0.0903	0.3599	0.552	0.042
Mof_C 	C 	0.9099	0.4269	0.429	0.126
Mof_C 	C 	0.9636	0.3697	0.3489	0.091
Mof_H 	H 	0.9573	0.3554	0.2947	0.027
Mof_C 	C 	0.6615	0.3957	0.8993	0.121
Mof_H 	H 	0.7234	0.4004	0.9152	0.005
Mof_C 	C 	0.6106	0.4451	0.8962	-0.209
Mof_H 	H 	0.6375	0.4821	0.9081	0.105
Mof_C 	C 	0.5207	0.4387	0.8754	0.15
Mof_C 	C 	0.4865	0.3828	0.8578	-0.214
Mof_H 	H 	0.4251	0.3765	0.843	0.116
Mof_C 	C 	0.5404	0.3367	0.8618	0.133
Mof_H 	H 	0.515	0.2992	0.8503	0.009
Mof_C 	C 	0.4565	0.4918	0.8531	-0.073
Mof_H 	H 	0.3997	0.4905	0.8063	0.056
Mof_C 	C 	0.4227	0.5926	0.8811	0.068
Mof_C 	C 	0.4632	0.6451	0.925	0.02
Mof_H 	H 	0.5256	0.6483	0.9574	0.019
Mof_C 	C 	0.2759	0.638	0.8338	-0.086
Mof_H 	H 	0.2132	0.6356	0.8035	0.055
Mof_C 	C 	0.4041	0.6924	0.9171	0.087
Mof_H 	H 	0.4289	0.7285	0.9418	0.004
Mof_C 	C 	0.3275	0.5885	0.8335	-0.157
Mof_H 	H 	0.3003	0.5543	0.8033	0.074
Mof_C 	C 	0.4853	0.5416	0.9042	-0.021
Mof_H 	H 	0.5419	0.5432	0.9513	0.034
Mof_C 	C 	0.9661	0.9869	0.89	-0.047
Mof_C 	C 	0.7804	0.131	0.8731	0.125
Mof_C 	C 	0.8368	0.0832	0.8766	0.042
Mof_C 	C 	0.9496	0.1494	0.8819	-0.142
Mof_C 	C 	0.8924	0.1973	0.8779	-0.046
Mof_C 	C 	0.9794	0.043	0.867	-0.053
Mof_H 	H 	0.9245	0.9793	0.9138	0.044
Mof_H 	H 	0.7226	0.1242	0.8701	-0.011
Mof_H 	H 	0.8161	0.0449	0.8758	0.013
Mof_H 	H 	0.0074	0.157	0.8852	0.075
Mof_H 	H 	0.9124	0.2357	0.878	0.049
Mof_H 	H 	0.0213	0.0506	0.8436	0.049
Mof_Cd	Cd	0.22071	0.23485	0.37628	0.458
Mof_S 	S 	0.32214	0.02367	0.92109	-0.026
Mof_S 	S 	0.35555	0.99377	0.04309	-0.031
Mof_O 	O 	0.2919	0.1687	0.3284	-0.3
Mof_O 	O 	0.1886	0.2096	0.2081	-0.262
Mof_O 	O 	0.5989	0.2024	0.8414	-0.283
Mof_O 	O 	0.6701	0.2082	0.9839	-0.305
Mof_N 	N 	0.1273	0.1576	0.3811	-0.167
Mof_N 	N 	0.8105	0.8124	0.3741	-0.129
Mof_N 	N 	0.2645	0.0914	0.0538	-0.144
Mof_N 	N 	0.4774	0.0898	0.0054	-0.127
Mof_C 	C 	0.402	0.0928	0.8518	-0.176
Mof_H 	H 	0.3541	0.0807	0.8005	0.093
Mof_C 	C 	0.2511	0.1728	0.2497	0.325
Mof_C 	C 	0.6073	0.1892	0.9177	0.335
Mof_C 	C 	0.2729	0.1287	0.19	-0.137
Mof_C 	C 	0.3253	0.0798	0.2271	0.106
Mof_H 	H 	0.3466	0.0734	0.2871	0.009
Mof_C 	C 	0.346	0.041	0.1768	-0.224
Mof_H 	H 	0.3816	0.0085	0.2035	0.109
Mof_C 	C 	0.3195	0.0471	0.0975	0.152
Mof_C 	C 	0.2415	0.1313	0.1018	0.083
Mof_H 	H 	0.2023	0.1618	0.0724	0.021
Mof_C 	C 	0.5367	0.1489	0.9231	-0.134
Mof_C 	C 	0.5422	0.1283	0.0006	0.073
Mof_H 	H 	0.5903	0.1401	0.052	0.042
Mof_C 	C 	0.4099	0.0731	0.929	0.126
Mof_C 	C 	0.4636	0.1303	0.8489	0.091
Mof_H 	H 	0.4573	0.1446	0.7947	0.027
Mof_C 	C 	0.1615	0.1043	0.3993	0.12
Mof_H 	H 	0.2234	0.0996	0.4152	0.005
Mof_C 	C 	0.1106	0.0549	0.3962	-0.209
Mof_H 	H 	0.1375	0.0179	0.4081	0.105
Mof_C 	C 	0.0207	0.0613	0.3754	0.149
Mof_C 	C 	0.9865	0.1172	0.3578	-0.213
Mof_H 	H 	0.9251	0.1235	0.343	0.116
Mof_C 	C 	0.0404	0.1633	0.3618	0.132
Mof_H 	H 	0.015	0.2008	0.3503	0.009
Mof_C 	C 	0.9565	0.0082	0.3531	-0.073
Mof_H 	H 	0.8997	0.0095	0.3063	0.056
Mof_C 	C 	0.9227	0.9074	0.3811	0.068
Mof_C 	C 	0.9632	0.8549	0.425	0.02
Mof_H 	H 	0.0256	0.8517	0.4574	0.019
Mof_C 	C 	0.7759	0.862	0.3338	-0.086
Mof_H 	H 	0.7132	0.8644	0.3035	0.055
Mof_C 	C 	0.9041	0.8076	0.4171	0.087
Mof_H 	H 	0.9289	0.7715	0.4418	0.004
Mof_C 	C 	0.8275	0.9115	0.3335	-0.157
Mof_H 	H 	0.8003	0.9457	0.3033	0.074
Mof_C 	C 	0.9853	0.9584	0.4042	-0.021
Mof_H 	H 	0.0419	0.9568	0.4513	0.034
Mof_C 	C 	0.4661	0.5131	0.39	-0.047
Mof_C 	C 	0.2804	0.369	0.3731	0.124
Mof_C 	C 	0.3368	0.4168	0.3766	0.041
Mof_C 	C 	0.4496	0.3506	0.3819	-0.141
Mof_C 	C 	0.3924	0.3027	0.3779	-0.045
Mof_C 	C 	0.4794	0.457	0.367	-0.053
Mof_H 	H 	0.4245	0.5207	0.4138	0.045
Mof_H 	H 	0.2226	0.3758	0.3701	-0.011
Mof_H 	H 	0.3161	0.4551	0.3758	0.013
Mof_H 	H 	0.5074	0.343	0.3852	0.075
Mof_H 	H 	0.4124	0.2643	0.378	0.049
Mof_H 	H 	0.5213	0.4494	0.3436	0.049
Mof_Cd	Cd	0.72071	0.73485	0.37628	0.458
Mof_S 	S 	0.82214	0.52367	0.92109	-0.027
Mof_S 	S 	0.85555	0.49377	0.04309	-0.031
Mof_O 	O 	0.7919	0.6687	0.3284	-0.3
Mof_O 	O 	0.6886	0.7096	0.2081	-0.262
Mof_O 	O 	0.0989	0.7024	0.8414	-0.283
Mof_O 	O 	0.1701	0.7082	0.9839	-0.305
Mof_N 	N 	0.6273	0.6576	0.3811	-0.167
Mof_N 	N 	0.3105	0.3124	0.3741	-0.129
Mof_N 	N 	0.7645	0.5914	0.0538	-0.144
Mof_N 	N 	0.9774	0.5898	0.0054	-0.127
Mof_C 	C 	0.902	0.5928	0.8518	-0.176
Mof_H 	H 	0.8541	0.5807	0.8005	0.093
Mof_C 	C 	0.7511	0.6728	0.2497	0.325
Mof_C 	C 	0.1073	0.6892	0.9177	0.334
Mof_C 	C 	0.7729	0.6287	0.19	-0.137
Mof_C 	C 	0.8253	0.5798	0.2271	0.106
Mof_H 	H 	0.8466	0.5734	0.2871	0.009
Mof_C 	C 	0.846	0.541	0.1768	-0.224
Mof_H 	H 	0.8816	0.5085	0.2035	0.109
Mof_C 	C 	0.8195	0.5471	0.0975	0.152
Mof_C 	C 	0.7415	0.6313	0.1018	0.083
Mof_H 	H 	0.7023	0.6618	0.0724	0.021
Mof_C 	C 	0.0367	0.6489	0.9231	-0.133
Mof_C 	C 	0.0422	0.6283	0.0006	0.072
Mof_H 	H 	0.0903	0.6401	0.052	0.043
Mof_C 	C 	0.9099	0.5731	0.929	0.126
Mof_C 	C 	0.9636	0.6303	0.8489	0.09
Mof_H 	H 	0.9573	0.6446	0.7947	0.027
Mof_C 	C 	0.6615	0.6043	0.3993	0.121
Mof_H 	H 	0.7234	0.5996	0.4152	0.005
Mof_C 	C 	0.6106	0.5549	0.3962	-0.209
Mof_H 	H 	0.6375	0.5179	0.4081	0.105
Mof_C 	C 	0.5207	0.5613	0.3754	0.15
Mof_C 	C 	0.4865	0.6172	0.3578	-0.214
Mof_H 	H 	0.4251	0.6235	0.343	0.116
Mof_C 	C 	0.5404	0.6633	0.3618	0.133
Mof_H 	H 	0.515	0.7008	0.3503	0.009
Mof_C 	C 	0.4565	0.5082	0.3531	-0.073
Mof_H 	H 	0.3997	0.5095	0.3063	0.056
Mof_C 	C 	0.4227	0.4074	0.3811	0.068
Mof_C 	C 	0.4632	0.3549	0.425	0.02
Mof_H 	H 	0.5256	0.3517	0.4574	0.019
Mof_C 	C 	0.2759	0.362	0.3338	-0.086
Mof_H 	H 	0.2132	0.3644	0.3035	0.055
Mof_C 	C 	0.4041	0.3076	0.4171	0.087
Mof_H 	H 	0.4289	0.2715	0.4418	0.004
Mof_C 	C 	0.3275	0.4115	0.3335	-0.157
Mof_H 	H 	0.3003	0.4457	0.3033	0.074
Mof_C 	C 	0.4853	0.4584	0.4042	-0.021
Mof_H 	H 	0.5419	0.4568	0.4513	0.034
Mof_C 	C 	0.9661	0.0131	0.39	-0.047
Mof_C 	C 	0.7804	0.869	0.3731	0.125
Mof_C 	C 	0.8368	0.9168	0.3766	0.041
Mof_C 	C 	0.9496	0.8506	0.3819	-0.141
Mof_C 	C 	0.8924	0.8027	0.3779	-0.045
Mof_C 	C 	0.9794	0.957	0.367	-0.053
Mof_H 	H 	0.9245	0.0207	0.4138	0.044
Mof_H 	H 	0.7226	0.8758	0.3701	-0.011
Mof_H 	H 	0.8161	0.9551	0.3758	0.013
Mof_H 	H 	0.0074	0.843	0.3852	0.075
Mof_H 	H 	0.9124	0.7643	0.378	0.049
Mof_H 	H 	0.0213	0.9494	0.3436	0.049
Mof_Cd	Cd	0.77929	0.23485	0.12372	0.458
Mof_S 	S 	0.67786	0.02367	0.57891	-0.026
Mof_S 	S 	0.64445	0.99377	0.45691	-0.031
Mof_O 	O 	0.7081	0.1687	0.1716	-0.3
Mof_O 	O 	0.8114	0.2096	0.2919	-0.262
Mof_O 	O 	0.4011	0.2024	0.6586	-0.283
Mof_O 	O 	0.3299	0.2082	0.5161	-0.305
Mof_N 	N 	0.8727	0.1576	0.1189	-0.167
Mof_N 	N 	0.1895	0.8124	0.1259	-0.13
Mof_N 	N 	0.7355	0.0914	0.4462	-0.144
Mof_N 	N 	0.5226	0.0898	0.4946	-0.127
Mof_C 	C 	0.598	0.0928	0.6482	-0.176
Mof_H 	H 	0.6459	0.0807	0.6995	0.093
Mof_C 	C 	0.7489	0.1728	0.2503	0.325
Mof_C 	C 	0.3927	0.1892	0.5823	0.335
Mof_C 	C 	0.7271	0.1287	0.31	-0.137
Mof_C 	C 	0.6747	0.0798	0.2729	0.106
Mof_H 	H 	0.6534	0.0734	0.2129	0.009
Mof_C 	C 	0.654	0.041	0.3232	-0.224
Mof_H 	H 	0.6184	0.0085	0.2965	0.109
Mof_C 	C 	0.6805	0.0471	0.4025	0.152
Mof_C 	C 	0.7585	0.1313	0.3982	0.083
Mof_H 	H 	0.7977	0.1618	0.4276	0.021
Mof_C 	C 	0.4633	0.1489	0.5769	-0.134
Mof_C 	C 	0.4578	0.1283	0.4994	0.073
Mof_H 	H 	0.4097	0.1401	0.448	0.042
Mof_C 	C 	0.5901	0.0731	0.571	0.126
Mof_C 	C 	0.5364	0.1303	0.6511	0.091
Mof_H 	H 	0.5427	0.1446	0.7053	0.027
Mof_C 	C 	0.8385	0.1043	0.1007	0.121
Mof_H 	H 	0.7766	0.0996	0.0848	0.005
Mof_C 	C 	0.8894	0.0549	0.1038	-0.209
Mof_H 	H 	0.8625	0.0179	0.0919	0.105
Mof_C 	C 	0.9793	0.0613	0.1246	0.15
Mof_C 	C 	0.0135	0.1172	0.1422	-0.214
Mof_H 	H 	0.0749	0.1235	0.157	0.116
Mof_C 	C 	0.9596	0.1633	0.1382	0.133
Mof_H 	H 	0.985	0.2008	0.1497	0.009
Mof_C 	C 	0.0435	0.0082	0.1469	-0.073
Mof_H 	H 	0.1003	0.0095	0.1937	0.056
Mof_C 	C 	0.0773	0.9074	0.1189	0.068
Mof_C 	C 	0.0368	0.8549	0.075	0.02
Mof_H 	H 	0.9744	0.8517	0.0426	0.019
Mof_C 	C 	0.2241	0.862	0.1662	-0.087
Mof_H 	H 	0.2868	0.8644	0.1965	0.055
Mof_C 	C 	0.0959	0.8076	0.0829	0.088
Mof_H 	H 	0.0711	0.7715	0.0582	0.004
Mof_C 	C 	0.1725	0.9115	0.1665	-0.158
Mof_H 	H 	0.1997	0.9457	0.1967	0.074
Mof_C 	C 	0.0147	0.9584	0.0958	-0.021
Mof_H 	H 	0.9581	0.9568	0.0487	0.035
Mof_C 	C 	0.5339	0.5131	0.11	-0.047
Mof_C 	C 	0.7196	0.369	0.1269	0.125
Mof_C 	C 	0.6632	0.4168	0.1234	0.041
Mof_C 	C 	0.5504	0.3506	0.1181	-0.141
Mof_C 	C 	0.6076	0.3027	0.1221	-0.045
Mof_C 	C 	0.5206	0.457	0.133	-0.053
Mof_H 	H 	0.5755	0.5207	0.0862	0.044
Mof_H 	H 	0.7774	0.3758	0.1299	-0.011
Mof_H 	H 	0.6839	0.4551	0.1242	0.013
Mof_H 	H 	0.4926	0.343	0.1148	0.075
Mof_H 	H 	0.5876	0.2643	0.122	0.049
Mof_H 	H 	0.4787	0.4494	0.1564	0.049
Mof_Cd	Cd	0.27929	0.73485	0.12372	0.457
Mof_S 	S 	0.17786	0.52367	0.57891	-0.026
Mof_S 	S 	0.14445	0.49377	0.45691	-0.031
Mof_O 	O 	0.2081	0.6687	0.1716	-0.3
Mof_O 	O 	0.3114	0.7096	0.2919	-0.262
Mof_O 	O 	0.9011	0.7024	0.6586	-0.283
Mof_O 	O 	0.8299	0.7082	0.5161	-0.305
Mof_N 	N 	0.3727	0.6576	0.1189	-0.167
Mof_N 	N 	0.6895	0.3124	0.1259	-0.129
Mof_N 	N 	0.2355	0.5914	0.4462	-0.144
Mof_N 	N 	0.0226	0.5898	0.4946	-0.127
Mof_C 	C 	0.098	0.5928	0.6482	-0.176
Mof_H 	H 	0.1459	0.5807	0.6995	0.093
Mof_C 	C 	0.2489	0.6728	0.2503	0.325
Mof_C 	C 	0.8927	0.6892	0.5823	0.335
Mof_C 	C 	0.2271	0.6287	0.31	-0.137
Mof_C 	C 	0.1747	0.5798	0.2729	0.106
Mof_H 	H 	0.1534	0.5734	0.2129	0.009
Mof_C 	C 	0.154	0.541	0.3232	-0.224
Mof_H 	H 	0.1184	0.5085	0.2965	0.109
Mof_C 	C 	0.1805	0.5471	0.4025	0.152
Mof_C 	C 	0.2585	0.6313	0.3982	0.083
Mof_H 	H 	0.2977	0.6618	0.4276	0.021
Mof_C 	C 	0.9633	0.6489	0.5769	-0.134
Mof_C 	C 	0.9578	0.6283	0.4994	0.073
Mof_H 	H 	0.9097	0.6401	0.448	0.042
Mof_C 	C 	0.0901	0.5731	0.571	0.126
Mof_C 	C 	0.0364	0.6303	0.6511	0.091
Mof_H 	H 	0.0427	0.6446	0.7053	0.027
Mof_C 	C 	0.3385	0.6043	0.1007	0.121
Mof_H 	H 	0.2766	0.5996	0.0848	0.005
Mof_C 	C 	0.3894	0.5549	0.1038	-0.209
Mof_H 	H 	0.3625	0.5179	0.0919	0.105
Mof_C 	C 	0.4793	0.5613	0.1246	0.15
Mof_C 	C 	0.5135	0.6172	0.1422	-0.214
Mof_H 	H 	0.5749	0.6235	0.157	0.116
Mof_C 	C 	0.4596	0.6633	0.1382	0.133
Mof_H 	H 	0.485	0.7008	0.1497	0.009
Mof_C 	C 	0.5435	0.5082	0.1469	-0.073
Mof_H 	H 	0.6003	0.5095	0.1937	0.056
Mof_C 	C 	0.5773	0.4074	0.1189	0.068
Mof_C 	C 	0.5368	0.3549	0.075	0.02
Mof_H 	H 	0.4744	0.3517	0.0426	0.019
Mof_C 	C 	0.7241	0.362	0.1662	-0.086
Mof_H 	H 	0.7868	0.3644	0.1965	0.055
Mof_C 	C 	0.5959	0.3076	0.0829	0.087
Mof_H 	H 	0.5711	0.2715	0.0582	0.004
Mof_C 	C 	0.6725	0.4115	0.1665	-0.157
Mof_H 	H 	0.6997	0.4457	0.1967	0.074
Mof_C 	C 	0.5147	0.4584	0.0958	-0.021
Mof_H 	H 	0.4581	0.4568	0.0487	0.034
Mof_C 	C 	0.0339	0.0131	0.11	-0.047
Mof_C 	C 	0.2196	0.869	0.1269	0.125
Mof_C 	C 	0.1632	0.9168	0.1234	0.042
Mof_C 	C 	0.0504	0.8506	0.1181	-0.142
Mof_C 	C 	0.1076	0.8027	0.1221	-0.046
Mof_C 	C 	0.0206	0.957	0.133	-0.053
Mof_H 	H 	0.0755	0.0207	0.0862	0.044
Mof_H 	H 	0.2774	0.8758	0.1299	-0.011
Mof_H 	H 	0.1839	0.9551	0.1242	0.013
Mof_H 	H 	0.9926	0.843	0.1148	0.075
Mof_H 	H 	0.0876	0.7643	0.122	0.049
Mof_H 	H 	0.9787	0.9494	0.1564	0.049
_end
