data_functionalizedCrystal
_audit_creation_method	'EQeq! by Chris Wilmer'
_symmetry_space_group_name_H-M	'P1'
_symmetry_Int_Tables_number	1
_symmetry_cell_setting	triclinic
loop_
_symmetry_equiv_pos_as_xyz
  x,y,z
_cell_length_a	8.3319
_cell_length_b	16.4862
_cell_length_c	15.2677
_cell_angle_alpha	90
_cell_angle_beta	91.651
_cell_angle_gamma	90
loop_
_atom_site_label
_atom_site_type_symbol
_atom_site_fract_x
_atom_site_fract_y
_atom_site_fract_z
_atom_site_charge
Mof_Zn	Zn	0.13905	0.14234	0.24196	1.246
Mof_Zn	Zn	0.35968	0.04024	0.61154	1.236
Mof_Zn	Zn	0.42848	0.0603	0.88743	1.233
Mof_P 	P 	0.3113	0.05549	0.40417	0.505
Mof_H 	H 	0.2387	0.986	0.3941	-0.07
Mof_P 	P 	0.1524	0.98171	0.77055	0.48
Mof_H 	H 	0.035	0.0279	0.8003	-0.062
Mof_P 	P 	0.54765	0.16333	0.73511	0.447
Mof_H 	H 	0.6825	0.1053	0.7406	-0.045
Mof_P 	P 	0.2691	0.05273	0.06782	0.492
Mof_H 	H 	0.1242	0.0388	0.0516	-0.062
Mof_O 	O 	0.6286	0.2429	0.7222	-0.418
Mof_O 	O 	0.2646	0.1061	0.1467	-0.451
Mof_O 	O 	0.2419	0.1238	0.3519	-0.449
Mof_O 	O 	0.4849	0.0431	0.3878	-0.493
Mof_O 	O 	0.2722	0.0678	0.4981	-0.445
Mof_O 	O 	0.4356	0.1445	0.6574	-0.431
Mof_O 	O 	0.461	0.1579	0.8201	-0.444
Mof_O 	O 	0.1757	0.0136	0.6817	-0.459
Mof_O 	O 	0.0779	0.8974	0.7713	-0.426
Mof_O 	O 	0.2991	0.9802	0.8301	-0.471
Mof_O 	O 	0.3559	0.975	0.08	-0.477
Mof_O 	O 	0.3314	0.1031	0.9926	-0.432
Mof_Zn	Zn	0.36095	0.64234	0.25804	1.245
Mof_Zn	Zn	0.14032	0.54024	0.88846	1.235
Mof_Zn	Zn	0.07152	0.5603	0.61257	1.232
Mof_P 	P 	0.1887	0.55549	0.09583	0.505
Mof_H 	H 	0.2613	0.486	0.1059	-0.072
Mof_P 	P 	0.3476	0.48171	0.72945	0.477
Mof_H 	H 	0.465	0.5279	0.6997	-0.061
Mof_P 	P 	0.95235	0.66333	0.76489	0.446
Mof_H 	H 	0.8175	0.6053	0.7594	-0.046
Mof_P 	P 	0.2309	0.55273	0.43218	0.494
Mof_H 	H 	0.3758	0.5388	0.4484	-0.062
Mof_O 	O 	0.8714	0.7429	0.7778	-0.419
Mof_O 	O 	0.2354	0.6061	0.3533	-0.451
Mof_O 	O 	0.2581	0.6238	0.1481	-0.449
Mof_O 	O 	0.0151	0.5431	0.1122	-0.493
Mof_O 	O 	0.2278	0.5678	0.0019	-0.444
Mof_O 	O 	0.0644	0.6445	0.8426	-0.431
Mof_O 	O 	0.039	0.6579	0.6799	-0.443
Mof_O 	O 	0.3243	0.5136	0.8183	-0.458
Mof_O 	O 	0.4221	0.3974	0.7287	-0.426
Mof_O 	O 	0.2009	0.4802	0.6699	-0.471
Mof_O 	O 	0.1441	0.475	0.42	-0.479
Mof_O 	O 	0.1686	0.6031	0.5074	-0.431
Mof_Zn	Zn	0.86095	0.85766	0.75804	1.245
Mof_Zn	Zn	0.64032	0.95976	0.38846	1.235
Mof_Zn	Zn	0.57152	0.9397	0.11257	1.232
Mof_P 	P 	0.6887	0.94451	0.59583	0.504
Mof_H 	H 	0.7613	0.014	0.6059	-0.07
Mof_P 	P 	0.8476	0.01829	0.22945	0.48
Mof_H 	H 	0.965	0.9721	0.1997	-0.062
Mof_P 	P 	0.45235	0.83667	0.26489	0.447
Mof_H 	H 	0.3175	0.8947	0.2594	-0.045
Mof_P 	P 	0.7309	0.94727	0.93218	0.492
Mof_H 	H 	0.8758	0.9612	0.9484	-0.062
Mof_O 	O 	0.3714	0.7571	0.2778	-0.418
Mof_O 	O 	0.7354	0.8939	0.8533	-0.451
Mof_O 	O 	0.7581	0.8762	0.6481	-0.449
Mof_O 	O 	0.5151	0.9569	0.6122	-0.493
Mof_O 	O 	0.7278	0.9322	0.5019	-0.445
Mof_O 	O 	0.5644	0.8555	0.3426	-0.431
Mof_O 	O 	0.539	0.8421	0.1799	-0.444
Mof_O 	O 	0.8243	0.9864	0.3183	-0.459
Mof_O 	O 	0.9221	0.1026	0.2287	-0.426
Mof_O 	O 	0.7009	0.0198	0.1699	-0.471
Mof_O 	O 	0.6441	0.025	0.92	-0.477
Mof_O 	O 	0.6686	0.8969	0.0074	-0.432
Mof_Zn	Zn	0.63905	0.35766	0.74196	1.245
Mof_Zn	Zn	0.85968	0.45976	0.11154	1.235
Mof_Zn	Zn	0.92848	0.4397	0.38743	1.232
Mof_P 	P 	0.8113	0.44451	0.90417	0.505
Mof_H 	H 	0.7387	0.514	0.8941	-0.072
Mof_P 	P 	0.6524	0.51829	0.27055	0.477
Mof_H 	H 	0.535	0.4721	0.3003	-0.061
Mof_P 	P 	0.04765	0.33667	0.23511	0.446
Mof_H 	H 	0.1825	0.3947	0.2406	-0.046
Mof_P 	P 	0.7691	0.44727	0.56782	0.494
Mof_H 	H 	0.6242	0.4612	0.5516	-0.062
Mof_O 	O 	0.1286	0.2571	0.2222	-0.419
Mof_O 	O 	0.7646	0.3939	0.6467	-0.451
Mof_O 	O 	0.7419	0.3762	0.8519	-0.449
Mof_O 	O 	0.9849	0.4569	0.8878	-0.493
Mof_O 	O 	0.7722	0.4322	0.9981	-0.444
Mof_O 	O 	0.9356	0.3555	0.1574	-0.431
Mof_O 	O 	0.961	0.3421	0.3201	-0.443
Mof_O 	O 	0.6757	0.4864	0.1817	-0.458
Mof_O 	O 	0.5779	0.6026	0.2713	-0.426
Mof_O 	O 	0.7991	0.5198	0.3301	-0.471
Mof_O 	O 	0.8559	0.525	0.58	-0.479
Mof_O 	O 	0.8314	0.3969	0.4926	-0.431
_end
