data_functionalizedCrystal
_audit_creation_method	'EQeq! by Chris Wilmer'
_symmetry_space_group_name_H-M	'P1'
_symmetry_Int_Tables_number	1
_symmetry_cell_setting	triclinic
loop_
_symmetry_equiv_pos_as_xyz
  x,y,z
_cell_length_a	19.277
_cell_length_b	19.277
_cell_length_c	36.023
_cell_angle_alpha	90
_cell_angle_beta	90
_cell_angle_gamma	120
loop_
_atom_site_label
_atom_site_type_symbol
_atom_site_fract_x
_atom_site_fract_y
_atom_site_fract_z
_atom_site_charge
Mof_H 	H 	0.1413	0.6739	0.1523	0.036
Mof_H 	H 	0.8973	0.3083	0.4081	0.063
Mof_H 	H 	0.5558	0.6443	0.0934	0.018
Mof_C 	C 	0.8463	0.569	0.04049	-0.077
Mof_C 	C 	0.1438	0.4102	0.5782	-0.059
Mof_C 	C 	0.5075	0.6083	0.10529	0.017
Mof_C 	C 	0.8686	0.3738	0.85927	-0.002
Mof_C 	C 	0.09806	0.4555	0.5234	0.383
Mof_O 	O 	0.40659	0.96127	0.95763	-0.467
Mof_O 	O 	0.20201	0.5431	0.28991	-0.676
Mof_O 	O 	0.11339	0.62986	0.49136	-0.455
Mof_H 	H 	0.3261	0.4674	0.1523	0.036
Mof_H 	H 	0.6917	0.589	0.4081	0.063
Mof_H 	H 	0.3557	0.9115	0.0934	0.017
Mof_C 	C 	0.431	0.2773	0.04049	-0.077
Mof_C 	C 	0.5898	0.7336	0.5782	-0.059
Mof_C 	C 	0.3917	0.8992	0.10529	0.017
Mof_C 	C 	0.6262	0.4948	0.85927	-0.002
Mof_C 	C 	0.5445	0.64256	0.5234	0.383
Mof_O 	O 	0.03873	0.44532	0.95763	-0.467
Mof_O 	O 	0.4569	0.65891	0.28991	-0.676
Mof_O 	O 	0.37014	0.48353	0.49136	-0.455
Mof_H 	H 	0.5326	0.8587	0.1523	0.036
Mof_H 	H 	0.411	0.1027	0.4081	0.062
Mof_H 	H 	0.0885	0.4442	0.0934	0.018
Mof_C 	C 	0.7227	0.1537	0.04049	-0.077
Mof_C 	C 	0.2664	0.8562	0.5782	-0.059
Mof_C 	C 	0.1008	0.4925	0.10529	0.017
Mof_C 	C 	0.5052	0.1314	0.85927	-0.002
Mof_C 	C 	0.35744	0.90194	0.5234	0.384
Mof_O 	O 	0.55468	0.59341	0.95763	-0.466
Mof_O 	O 	0.34109	0.79799	0.28991	-0.675
Mof_O 	O 	0.51647	0.88661	0.49136	-0.454
Mof_H 	H 	0.8587	0.3261	0.6523	0.037
Mof_H 	H 	0.1027	0.6917	0.9081	0.064
Mof_H 	H 	0.4442	0.3557	0.5934	0.019
Mof_C 	C 	0.1537	0.431	0.54049	-0.076
Mof_C 	C 	0.8562	0.5898	0.0782	-0.058
Mof_C 	C 	0.4925	0.3917	0.60529	0.018
Mof_C 	C 	0.1314	0.6262	0.35927	-0.001
Mof_C 	C 	0.90194	0.5445	0.0234	0.384
Mof_O 	O 	0.59341	0.03873	0.45763	-0.466
Mof_O 	O 	0.79799	0.4569	0.78991	-0.675
Mof_O 	O 	0.88661	0.37014	0.99136	-0.454
Mof_H 	H 	0.6739	0.5326	0.6523	0.037
Mof_H 	H 	0.3083	0.411	0.9081	0.064
Mof_H 	H 	0.6443	0.0885	0.5934	0.019
Mof_C 	C 	0.569	0.7227	0.54049	-0.076
Mof_C 	C 	0.4102	0.2664	0.0782	-0.058
Mof_C 	C 	0.6083	0.1008	0.60529	0.018
Mof_C 	C 	0.3738	0.5052	0.35927	-0.001
Mof_C 	C 	0.4555	0.35744	0.0234	0.384
Mof_O 	O 	0.96127	0.55468	0.45763	-0.466
Mof_O 	O 	0.5431	0.34109	0.78991	-0.675
Mof_O 	O 	0.62986	0.51647	0.99136	-0.454
Mof_H 	H 	0.4674	0.1413	0.6523	0.037
Mof_H 	H 	0.589	0.8973	0.9081	0.064
Mof_H 	H 	0.9115	0.5558	0.5934	0.019
Mof_C 	C 	0.2773	0.8463	0.54049	-0.076
Mof_C 	C 	0.7336	0.1438	0.0782	-0.058
Mof_C 	C 	0.8992	0.5075	0.60529	0.018
Mof_C 	C 	0.4948	0.8686	0.35927	-0.001
Mof_C 	C 	0.64256	0.09806	0.0234	0.384
Mof_O 	O 	0.44532	0.40659	0.45763	-0.466
Mof_O 	O 	0.65891	0.20201	0.78991	-0.675
Mof_O 	O 	0.48353	0.11339	0.99136	-0.454
Mof_H 	H 	0.6739	0.1413	0.8477	0.037
Mof_H 	H 	0.3083	0.8973	0.5919	0.063
Mof_H 	H 	0.6443	0.5558	0.9066	0.019
Mof_C 	C 	0.569	0.8463	0.95951	-0.076
Mof_C 	C 	0.4102	0.1438	0.4218	-0.058
Mof_C 	C 	0.6083	0.5075	0.89471	0.018
Mof_C 	C 	0.3738	0.8686	0.14073	-0.001
Mof_C 	C 	0.4555	0.09806	0.4766	0.384
Mof_O 	O 	0.96127	0.40659	0.04237	-0.466
Mof_O 	O 	0.5431	0.20201	0.71009	-0.675
Mof_O 	O 	0.62986	0.11339	0.50864	-0.454
Mof_H 	H 	0.4674	0.3261	0.8477	0.037
Mof_H 	H 	0.589	0.6917	0.5919	0.064
Mof_H 	H 	0.9115	0.3557	0.9066	0.018
Mof_C 	C 	0.2773	0.431	0.95951	-0.076
Mof_C 	C 	0.7336	0.5898	0.4218	-0.058
Mof_C 	C 	0.8992	0.3917	0.89471	0.018
Mof_C 	C 	0.4948	0.6262	0.14073	-0.001
Mof_C 	C 	0.64256	0.5445	0.4766	0.384
Mof_O 	O 	0.44532	0.03873	0.04237	-0.466
Mof_O 	O 	0.65891	0.4569	0.71009	-0.675
Mof_O 	O 	0.48353	0.37014	0.50864	-0.454
Mof_H 	H 	0.8587	0.5326	0.8477	0.037
Mof_H 	H 	0.1027	0.411	0.5919	0.063
Mof_H 	H 	0.4442	0.0885	0.9066	0.019
Mof_C 	C 	0.1537	0.7227	0.95951	-0.076
Mof_C 	C 	0.8562	0.2664	0.4218	-0.058
Mof_C 	C 	0.4925	0.1008	0.89471	0.018
Mof_C 	C 	0.1314	0.5052	0.14073	-0.001
Mof_C 	C 	0.90194	0.35744	0.4766	0.384
Mof_O 	O 	0.59341	0.55468	0.04237	-0.466
Mof_O 	O 	0.79799	0.34109	0.71009	-0.675
Mof_O 	O 	0.88661	0.51647	0.50864	-0.454
Mof_H 	H 	0.3261	0.8587	0.3477	0.037
Mof_H 	H 	0.6917	0.1027	0.0919	0.064
Mof_H 	H 	0.3557	0.4442	0.4066	0.019
Mof_C 	C 	0.431	0.1537	0.45951	-0.076
Mof_C 	C 	0.5898	0.8562	0.9218	-0.058
Mof_C 	C 	0.3917	0.4925	0.39471	0.018
Mof_C 	C 	0.6262	0.1314	0.64073	-0.001
Mof_C 	C 	0.5445	0.90194	0.9766	0.384
Mof_O 	O 	0.03873	0.59341	0.54237	-0.466
Mof_O 	O 	0.4569	0.79799	0.21009	-0.675
Mof_O 	O 	0.37014	0.88661	0.00864	-0.454
Mof_H 	H 	0.5326	0.6739	0.3477	0.037
Mof_H 	H 	0.411	0.3083	0.0919	0.064
Mof_H 	H 	0.0885	0.6443	0.4066	0.019
Mof_C 	C 	0.7227	0.569	0.45951	-0.076
Mof_C 	C 	0.2664	0.4102	0.9218	-0.058
Mof_C 	C 	0.1008	0.6083	0.39471	0.018
Mof_C 	C 	0.5052	0.3738	0.64073	-0.001
Mof_C 	C 	0.35744	0.4555	0.9766	0.384
Mof_O 	O 	0.55468	0.96127	0.54237	-0.466
Mof_O 	O 	0.34109	0.5431	0.21009	-0.675
Mof_O 	O 	0.51647	0.62986	0.00864	-0.454
Mof_H 	H 	0.1413	0.4674	0.3477	0.037
Mof_H 	H 	0.8973	0.589	0.0919	0.064
Mof_H 	H 	0.5558	0.9115	0.4066	0.019
Mof_C 	C 	0.8463	0.2773	0.45951	-0.076
Mof_C 	C 	0.1438	0.7336	0.9218	-0.058
Mof_C 	C 	0.5075	0.8992	0.39471	0.018
Mof_C 	C 	0.8686	0.4948	0.64073	-0.001
Mof_C 	C 	0.09806	0.64256	0.9766	0.384
Mof_O 	O 	0.40659	0.44532	0.54237	-0.466
Mof_O 	O 	0.20201	0.65891	0.21009	-0.675
Mof_O 	O 	0.11339	0.48353	0.00864	-0.454
Mof_H 	H 	0.8587	0.3261	0.8477	0.036
Mof_H 	H 	0.1027	0.6917	0.5919	0.064
Mof_H 	H 	0.4442	0.3557	0.9066	0.019
Mof_C 	C 	0.1537	0.431	0.95951	-0.076
Mof_C 	C 	0.8562	0.5898	0.4218	-0.058
Mof_C 	C 	0.4925	0.3917	0.89471	0.018
Mof_C 	C 	0.1314	0.6262	0.14073	-0.001
Mof_C 	C 	0.90194	0.5445	0.4766	0.384
Mof_O 	O 	0.59341	0.03873	0.04237	-0.466
Mof_O 	O 	0.79799	0.4569	0.71009	-0.675
Mof_O 	O 	0.88661	0.37014	0.50864	-0.454
Mof_H 	H 	0.6739	0.5326	0.8477	0.037
Mof_H 	H 	0.3083	0.411	0.5919	0.064
Mof_H 	H 	0.6443	0.0885	0.9066	0.019
Mof_C 	C 	0.569	0.7227	0.95951	-0.076
Mof_C 	C 	0.4102	0.2664	0.4218	-0.058
Mof_C 	C 	0.6083	0.1008	0.89471	0.018
Mof_C 	C 	0.3738	0.5052	0.14073	-0.001
Mof_C 	C 	0.4555	0.35744	0.4766	0.384
Mof_O 	O 	0.96127	0.55468	0.04237	-0.466
Mof_O 	O 	0.5431	0.34109	0.71009	-0.675
Mof_O 	O 	0.62986	0.51647	0.50864	-0.454
Mof_H 	H 	0.4674	0.1413	0.8477	0.036
Mof_H 	H 	0.589	0.8973	0.5919	0.064
Mof_H 	H 	0.9115	0.5558	0.9066	0.019
Mof_C 	C 	0.2773	0.8463	0.95951	-0.076
Mof_C 	C 	0.7336	0.1438	0.4218	-0.059
Mof_C 	C 	0.8992	0.5075	0.89471	0.018
Mof_C 	C 	0.4948	0.8686	0.14073	-0.001
Mof_C 	C 	0.64256	0.09806	0.4766	0.384
Mof_O 	O 	0.44532	0.40659	0.04237	-0.466
Mof_O 	O 	0.65891	0.20201	0.71009	-0.675
Mof_O 	O 	0.48353	0.11339	0.50864	-0.454
Mof_H 	H 	0.1413	0.6739	0.3477	0.037
Mof_H 	H 	0.8973	0.3083	0.0919	0.063
Mof_H 	H 	0.5558	0.6443	0.4066	0.019
Mof_C 	C 	0.8463	0.569	0.45951	-0.076
Mof_C 	C 	0.1438	0.4102	0.9218	-0.058
Mof_C 	C 	0.5075	0.6083	0.39471	0.018
Mof_C 	C 	0.8686	0.3738	0.64073	-0.001
Mof_C 	C 	0.09806	0.4555	0.9766	0.384
Mof_O 	O 	0.40659	0.96127	0.54237	-0.466
Mof_O 	O 	0.20201	0.5431	0.21009	-0.675
Mof_O 	O 	0.11339	0.62986	0.00864	-0.454
Mof_H 	H 	0.3261	0.4674	0.3477	0.037
Mof_H 	H 	0.6917	0.589	0.0919	0.063
Mof_H 	H 	0.3557	0.9115	0.4066	0.019
Mof_C 	C 	0.431	0.2773	0.45951	-0.076
Mof_C 	C 	0.5898	0.7336	0.9218	-0.057
Mof_C 	C 	0.3917	0.8992	0.39471	0.018
Mof_C 	C 	0.6262	0.4948	0.64073	-0.001
Mof_C 	C 	0.5445	0.64256	0.9766	0.384
Mof_O 	O 	0.03873	0.44532	0.54237	-0.466
Mof_O 	O 	0.4569	0.65891	0.21009	-0.675
Mof_O 	O 	0.37014	0.48353	0.00864	-0.454
Mof_H 	H 	0.5326	0.8587	0.3477	0.037
Mof_H 	H 	0.411	0.1027	0.0919	0.064
Mof_H 	H 	0.0885	0.4442	0.4066	0.019
Mof_C 	C 	0.7227	0.1537	0.45951	-0.076
Mof_C 	C 	0.2664	0.8562	0.9218	-0.058
Mof_C 	C 	0.1008	0.4925	0.39471	0.018
Mof_C 	C 	0.5052	0.1314	0.64073	-0.001
Mof_C 	C 	0.35744	0.90194	0.9766	0.384
Mof_O 	O 	0.55468	0.59341	0.54237	-0.466
Mof_O 	O 	0.34109	0.79799	0.21009	-0.675
Mof_O 	O 	0.51647	0.88661	0.00864	-0.454
Mof_H 	H 	0.3261	0.8587	0.1523	0.036
Mof_H 	H 	0.6917	0.1027	0.4081	0.064
Mof_H 	H 	0.3557	0.4442	0.0934	0.019
Mof_C 	C 	0.431	0.1537	0.04049	-0.076
Mof_C 	C 	0.5898	0.8562	0.5782	-0.058
Mof_C 	C 	0.3917	0.4925	0.10529	0.018
Mof_C 	C 	0.6262	0.1314	0.85927	-0.001
Mof_C 	C 	0.5445	0.90194	0.5234	0.384
Mof_O 	O 	0.03873	0.59341	0.95763	-0.466
Mof_O 	O 	0.4569	0.79799	0.28991	-0.675
Mof_O 	O 	0.37014	0.88661	0.49136	-0.454
Mof_H 	H 	0.5326	0.6739	0.1523	0.037
Mof_H 	H 	0.411	0.3083	0.4081	0.064
Mof_H 	H 	0.0885	0.6443	0.0934	0.019
Mof_C 	C 	0.7227	0.569	0.04049	-0.076
Mof_C 	C 	0.2664	0.4102	0.5782	-0.058
Mof_C 	C 	0.1008	0.6083	0.10529	0.018
Mof_C 	C 	0.5052	0.3738	0.85927	-0.001
Mof_C 	C 	0.35744	0.4555	0.5234	0.384
Mof_O 	O 	0.55468	0.96127	0.95763	-0.466
Mof_O 	O 	0.34109	0.5431	0.28991	-0.675
Mof_O 	O 	0.51647	0.62986	0.49136	-0.454
Mof_H 	H 	0.1413	0.4674	0.1523	0.037
Mof_H 	H 	0.8973	0.589	0.4081	0.064
Mof_H 	H 	0.5558	0.9115	0.0934	0.019
Mof_C 	C 	0.8463	0.2773	0.04049	-0.076
Mof_C 	C 	0.1438	0.7336	0.5782	-0.058
Mof_C 	C 	0.5075	0.8992	0.10529	0.018
Mof_C 	C 	0.8686	0.4948	0.85927	-0.001
Mof_C 	C 	0.09806	0.64256	0.5234	0.384
Mof_O 	O 	0.40659	0.44532	0.95763	-0.466
Mof_O 	O 	0.20201	0.65891	0.28991	-0.675
Mof_O 	O 	0.11339	0.48353	0.49136	-0.454
Mof_H 	H 	0.6739	0.1413	0.6523	0.037
Mof_H 	H 	0.3083	0.8973	0.9081	0.064
Mof_H 	H 	0.6443	0.5558	0.5934	0.019
Mof_C 	C 	0.569	0.8463	0.54049	-0.076
Mof_C 	C 	0.4102	0.1438	0.0782	-0.058
Mof_C 	C 	0.6083	0.5075	0.60529	0.018
Mof_C 	C 	0.3738	0.8686	0.35927	-0.001
Mof_C 	C 	0.4555	0.09806	0.0234	0.384
Mof_O 	O 	0.96127	0.40659	0.45763	-0.466
Mof_O 	O 	0.5431	0.20201	0.78991	-0.675
Mof_O 	O 	0.62986	0.11339	0.99136	-0.454
Mof_H 	H 	0.4674	0.3261	0.6523	0.037
Mof_H 	H 	0.589	0.6917	0.9081	0.063
Mof_H 	H 	0.9115	0.3557	0.5934	0.019
Mof_C 	C 	0.2773	0.431	0.54049	-0.076
Mof_C 	C 	0.7336	0.5898	0.0782	-0.057
Mof_C 	C 	0.8992	0.3917	0.60529	0.018
Mof_C 	C 	0.4948	0.6262	0.35927	-0.001
Mof_C 	C 	0.64256	0.5445	0.0234	0.384
Mof_O 	O 	0.44532	0.03873	0.45763	-0.466
Mof_O 	O 	0.65891	0.4569	0.78991	-0.675
Mof_O 	O 	0.48353	0.37014	0.99136	-0.454
Mof_H 	H 	0.8587	0.5326	0.6523	0.037
Mof_H 	H 	0.1027	0.411	0.9081	0.064
Mof_H 	H 	0.4442	0.0885	0.5934	0.019
Mof_C 	C 	0.1537	0.7227	0.54049	-0.076
Mof_C 	C 	0.8562	0.2664	0.0782	-0.057
Mof_C 	C 	0.4925	0.1008	0.60529	0.018
Mof_C 	C 	0.1314	0.5052	0.35927	-0.001
Mof_C 	C 	0.90194	0.35744	0.0234	0.384
Mof_O 	O 	0.59341	0.55468	0.45763	-0.466
Mof_O 	O 	0.79799	0.34109	0.78991	-0.675
Mof_O 	O 	0.88661	0.51647	0.99136	-0.454
Mof_Zn	Zn	0.52298	0.04595	0.53444	1.217
Mof_N 	N 	0.54395	0.0879	0.91287	-0.23
Mof_Zn	Zn	0.95405	0.47702	0.53444	1.217
Mof_N 	N 	0.9121	0.45605	0.91287	-0.23
Mof_Zn	Zn	0.52298	0.47702	0.53444	1.217
Mof_N 	N 	0.54395	0.45605	0.91287	-0.23
Mof_Zn	Zn	0.47702	0.95405	0.03444	1.217
Mof_N 	N 	0.45605	0.9121	0.41287	-0.23
Mof_Zn	Zn	0.04595	0.52298	0.03444	1.217
Mof_N 	N 	0.0879	0.54395	0.41287	-0.23
Mof_Zn	Zn	0.47702	0.52298	0.03444	1.217
Mof_N 	N 	0.45605	0.54395	0.41287	-0.23
Mof_Zn	Zn	0.04595	0.52298	0.46556	1.217
Mof_N 	N 	0.0879	0.54395	0.08713	-0.23
Mof_Zn	Zn	0.47702	0.95405	0.46556	1.217
Mof_N 	N 	0.45605	0.9121	0.08713	-0.23
Mof_Zn	Zn	0.47702	0.52298	0.46556	1.217
Mof_N 	N 	0.45605	0.54395	0.08713	-0.23
Mof_Zn	Zn	0.95405	0.47702	0.96556	1.217
Mof_N 	N 	0.9121	0.45605	0.58713	-0.23
Mof_Zn	Zn	0.52298	0.04595	0.96556	1.217
Mof_N 	N 	0.54395	0.0879	0.58713	-0.23
Mof_Zn	Zn	0.52298	0.47702	0.96556	1.217
Mof_N 	N 	0.54395	0.45605	0.58713	-0.23
Mof_Cr	Cr	0.27608	0.55216	0.25	2.093
Mof_Cr	Cr	0.44784	0.72392	0.25	2.093
Mof_Cr	Cr	0.27608	0.72392	0.25	2.093
Mof_Cr	Cr	0.72392	0.44784	0.75	2.093
Mof_Cr	Cr	0.55216	0.27608	0.75	2.093
Mof_Cr	Cr	0.72392	0.27608	0.75	2.093
Mof_H 	H 	0.76145	0.23855	0.4993	0.054
Mof_C 	C 	0.1943	0.8057	0.9047	0.063
Mof_C 	C 	0.77475	0.22525	0.02371	0.02
Mof_H 	H 	0.76145	0.5229	0.4993	0.054
Mof_C 	C 	0.1943	0.3886	0.9047	0.064
Mof_C 	C 	0.77475	0.5495	0.02371	0.02
Mof_H 	H 	0.4771	0.23855	0.4993	0.054
Mof_C 	C 	0.6114	0.8057	0.9047	0.063
Mof_C 	C 	0.4505	0.22525	0.02371	0.02
Mof_H 	H 	0.23855	0.76145	0.9993	0.054
Mof_C 	C 	0.8057	0.1943	0.4047	0.064
Mof_C 	C 	0.22525	0.77475	0.52371	0.02
Mof_H 	H 	0.23855	0.4771	0.9993	0.054
Mof_C 	C 	0.8057	0.6114	0.4047	0.063
Mof_C 	C 	0.22525	0.4505	0.52371	0.02
Mof_H 	H 	0.5229	0.76145	0.9993	0.054
Mof_C 	C 	0.3886	0.1943	0.4047	0.063
Mof_C 	C 	0.5495	0.77475	0.52371	0.02
Mof_H 	H 	0.23855	0.76145	0.5007	0.054
Mof_C 	C 	0.8057	0.1943	0.0953	0.063
Mof_C 	C 	0.22525	0.77475	0.97629	0.02
Mof_H 	H 	0.5229	0.76145	0.5007	0.054
Mof_C 	C 	0.3886	0.1943	0.0953	0.063
Mof_C 	C 	0.5495	0.77475	0.97629	0.02
Mof_H 	H 	0.23855	0.4771	0.5007	0.054
Mof_C 	C 	0.8057	0.6114	0.0953	0.063
Mof_C 	C 	0.22525	0.4505	0.97629	0.02
Mof_H 	H 	0.76145	0.23855	0.0007	0.054
Mof_C 	C 	0.1943	0.8057	0.5953	0.063
Mof_C 	C 	0.77475	0.22525	0.47629	0.019
Mof_H 	H 	0.4771	0.23855	0.0007	0.054
Mof_C 	C 	0.6114	0.8057	0.5953	0.063
Mof_C 	C 	0.4505	0.22525	0.47629	0.02
Mof_H 	H 	0.76145	0.5229	0.0007	0.054
Mof_C 	C 	0.1943	0.3886	0.5953	0.063
Mof_C 	C 	0.77475	0.5495	0.47629	0.02
Mof_C 	C 	0.8127	0.40635	0.80362	0.578
Mof_C 	C 	0.59365	0.40635	0.80362	0.578
Mof_C 	C 	0.59365	0.1873	0.80362	0.578
Mof_C 	C 	0.1873	0.59365	0.30362	0.578
Mof_C 	C 	0.40635	0.59365	0.30362	0.578
Mof_C 	C 	0.40635	0.8127	0.30362	0.578
Mof_C 	C 	0.40635	0.8127	0.19638	0.578
Mof_C 	C 	0.40635	0.59365	0.19638	0.578
Mof_C 	C 	0.1873	0.59365	0.19638	0.578
Mof_C 	C 	0.59365	0.1873	0.69638	0.578
Mof_C 	C 	0.59365	0.40635	0.69638	0.578
Mof_C 	C 	0.8127	0.40635	0.69638	0.578
Mof_C 	C 	0.6454	0.8227	0.634	-0.172
Mof_C 	C 	0.1468	0.5734	0.15864	-0.141
Mof_C 	C 	0.1773	0.8227	0.634	-0.172
Mof_C 	C 	0.4266	0.5734	0.15864	-0.141
Mof_C 	C 	0.1773	0.3546	0.634	-0.172
Mof_C 	C 	0.4266	0.8532	0.15864	-0.141
Mof_C 	C 	0.3546	0.1773	0.134	-0.172
Mof_C 	C 	0.8532	0.4266	0.65864	-0.141
Mof_C 	C 	0.8227	0.1773	0.134	-0.172
Mof_C 	C 	0.5734	0.4266	0.65864	-0.141
Mof_C 	C 	0.8227	0.6454	0.134	-0.172
Mof_C 	C 	0.5734	0.1468	0.65864	-0.141
Mof_C 	C 	0.8227	0.6454	0.366	-0.172
Mof_C 	C 	0.5734	0.1468	0.84136	-0.141
Mof_C 	C 	0.8227	0.1773	0.366	-0.172
Mof_C 	C 	0.5734	0.4266	0.84136	-0.141
Mof_C 	C 	0.3546	0.1773	0.366	-0.172
Mof_C 	C 	0.8532	0.4266	0.84136	-0.141
Mof_C 	C 	0.1773	0.3546	0.866	-0.172
Mof_C 	C 	0.4266	0.8532	0.34136	-0.141
Mof_C 	C 	0.1773	0.8227	0.866	-0.172
Mof_C 	C 	0.4266	0.5734	0.34136	-0.141
Mof_C 	C 	0.6454	0.8227	0.866	-0.172
Mof_C 	C 	0.1468	0.5734	0.34136	-0.141
Mof_O 	O 	0.66667	0.33333	0.75	-1.143
Mof_O 	O 	0.33333	0.66667	0.25	-1.143
Mof_H 	H 	0.7001	0.88539	0.63507	0.059
Mof_H 	H 	0.66366	0.77681	0.64194	0.058
Mof_H 	H 	0.59819	0.81877	0.6543	0.058
Mof_H 	H 	0.14644	0.76452	0.65054	0.057
Mof_H 	H 	0.1366	0.84977	0.6326	0.059
Mof_H 	H 	0.23598	0.86668	0.64816	0.057
Mof_H 	H 	0.16366	0.28986	0.63317	0.059
Mof_H 	H 	0.12353	0.35674	0.64579	0.057
Mof_H 	H 	0.23183	0.39145	0.65234	0.057
Mof_H 	H 	0.33634	0.11315	0.14194	0.058
Mof_H 	H 	0.2999	0.18529	0.13507	0.059
Mof_H 	H 	0.40181	0.22058	0.1543	0.058
Mof_H 	H 	0.87647	0.23322	0.14579	0.057
Mof_H 	H 	0.83634	0.12619	0.13317	0.059
Mof_H 	H 	0.76817	0.15962	0.15234	0.058
Mof_H 	H 	0.8634	0.71316	0.1326	0.059
Mof_H 	H 	0.85356	0.61808	0.15054	0.057
Mof_H 	H 	0.76402	0.63071	0.14816	0.057
Mof_H 	H 	0.77751	0.66471	0.35825	0.058
Mof_H 	H 	0.81765	0.59782	0.34563	0.058
Mof_H 	H 	0.88582	0.69942	0.3648	0.059
Mof_H 	H 	0.79059	0.19578	0.34506	0.058
Mof_H 	H 	0.80043	0.11054	0.363	0.059
Mof_H 	H 	0.88996	0.2127	0.36062	0.058
Mof_H 	H 	0.35569	0.12283	0.3544	0.057
Mof_H 	H 	0.39213	0.23141	0.34753	0.057
Mof_H 	H 	0.29022	0.16478	0.36676	0.059
Mof_H 	H 	0.19957	0.31011	0.863	0.059
Mof_H 	H 	0.20941	0.4052	0.84506	0.058
Mof_H 	H 	0.11004	0.32274	0.86062	0.058
Mof_H 	H 	0.18235	0.78018	0.84563	0.058
Mof_H 	H 	0.22249	0.8872	0.85825	0.058
Mof_H 	H 	0.11418	0.8136	0.8648	0.059
Mof_H 	H 	0.60787	0.83928	0.84753	0.057
Mof_H 	H 	0.64431	0.76714	0.8544	0.057
Mof_H 	H 	0.70978	0.87456	0.86676	0.059
_end
