data_functionalizedCrystal
_audit_creation_method	'EQeq! by Chris Wilmer'
_symmetry_space_group_name_H-M	'P1'
_symmetry_Int_Tables_number	1
_symmetry_cell_setting	triclinic
loop_
_symmetry_equiv_pos_as_xyz
  x,y,z
_cell_length_a	27.104
_cell_length_b	31.278
_cell_length_c	34.9
_cell_angle_alpha	90
_cell_angle_beta	92.1
_cell_angle_gamma	90
loop_
_atom_site_label
_atom_site_type_symbol
_atom_site_fract_x
_atom_site_fract_y
_atom_site_fract_z
_atom_site_charge
Mof_Cu	Cu	0.14314	0.25229	0.8234	0.844
Mof_Si	Si	0.89604	0.99091	0.5734	0.836
Mof_C 	C 	0.8552	0.0265	0.5418	-0.326
Mof_C 	C 	0.8059	0.0164	0.5343	0.155
Mof_H 	H 	0.7919	0.9919	0.5457	-0.037
Mof_C 	C 	0.777	0.0422	0.51	-0.203
Mof_H 	H 	0.7433	0.0353	0.5048	0.095
Mof_C 	C 	0.7975	0.078	0.4932	0.13
Mof_C 	C 	0.8468	0.0881	0.5007	-0.2
Mof_H 	H 	0.8608	0.1126	0.4893	0.097
Mof_C 	C 	0.8757	0.0623	0.525	0.154
Mof_H 	H 	0.9095	0.0692	0.5301	-0.031
Mof_C 	C 	0.7674	0.1061	0.4692	-0.055
Mof_N 	N 	0.6764	0.2081	0.3643	-0.238
Mof_C 	C 	0.7256	0.2068	0.3658	0.073
Mof_H 	H 	0.7434	0.2241	0.3488	-0.023
Mof_C 	C 	0.7517	0.1803	0.392	-0.143
Mof_H 	H 	0.7867	0.1782	0.3927	0.076
Mof_C 	C 	0.7225	0.1572	0.4171	0.084
Mof_C 	C 	0.6716	0.16	0.4161	-0.147
Mof_H 	H 	0.6524	0.1439	0.4332	0.078
Mof_C 	C 	0.6494	0.1876	0.3889	0.081
Mof_H 	H 	0.6147	0.1916	0.3882	-0.021
Mof_C 	C 	0.7461	0.1292	0.4472	-0.022
Mof_C 	C 	0.9351	0.0278	0.6049	-0.327
Mof_C 	C 	0.9851	0.0209	0.6125	0.161
Mof_H 	H 	0.0012	0.9974	0.601	-0.037
Mof_C 	C 	0.0116	0.0482	0.637	-0.206
Mof_H 	H 	0.0458	0.0434	0.6422	0.097
Mof_C 	C 	0.9881	0.0825	0.6539	0.135
Mof_C 	C 	0.938	0.0894	0.6463	-0.201
Mof_H 	H 	0.9219	0.1128	0.6579	0.099
Mof_C 	C 	0.9115	0.0621	0.6218	0.158
Mof_H 	H 	0.8773	0.0668	0.6166	-0.036
Mof_C 	C 	0.0158	0.1101	0.6798	-0.056
Mof_N 	N 	0.1112	0.2142	0.7827	-0.242
Mof_C 	C 	0.0832	0.2304	0.754	0.081
Mof_H 	H 	0.0803	0.2606	0.7525	-0.022
Mof_C 	C 	0.0583	0.2067	0.7263	-0.145
Mof_H 	H 	0.0385	0.2197	0.7065	0.075
Mof_C 	C 	0.0638	0.162	0.729	0.08
Mof_C 	C 	0.0933	0.1435	0.7586	-0.141
Mof_H 	H 	0.0979	0.1135	0.7605	0.077
Mof_C 	C 	0.1159	0.1722	0.7855	0.074
Mof_H 	H 	0.1352	0.1608	0.8063	-0.022
Mof_C 	C 	0.0363	0.1335	0.7016	-0.017
Mof_C 	C 	0.8593	0.9562	0.6054	-0.336
Mof_C 	C 	0.8476	0.9145	0.5946	0.161
Mof_H 	H 	0.8589	0.9034	0.5711	-0.037
Mof_C 	C 	0.8193	0.8892	0.618	-0.204
Mof_H 	H 	0.8113	0.8607	0.6106	0.097
Mof_C 	C 	0.8026	0.9055	0.6522	0.132
Mof_C 	C 	0.8143	0.9471	0.6631	-0.203
Mof_H 	H 	0.8029	0.9583	0.6865	0.096
Mof_C 	C 	0.8426	0.9725	0.6397	0.161
Mof_H 	H 	0.8506	0.001	0.6471	-0.038
Mof_C 	C 	0.7728	0.8801	0.678	-0.055
Mof_N 	N 	0.6776	0.786	0.7808	-0.232
Mof_C 	C 	0.6732	0.8282	0.7811	0.07
Mof_H 	H 	0.6538	0.8417	0.7998	-0.019
Mof_C 	C 	0.6971	0.8533	0.7536	-0.137
Mof_H 	H 	0.6942	0.8835	0.7532	0.075
Mof_C 	C 	0.7253	0.8317	0.7271	0.076
Mof_C 	C 	0.729	0.7869	0.7267	-0.134
Mof_H 	H 	0.7479	0.7723	0.7083	0.073
Mof_C 	C 	0.7031	0.7646	0.7551	0.067
Mof_H 	H 	0.704	0.7342	0.7559	-0.015
Mof_C 	C 	0.7514	0.8576	0.6987	-0.021
Mof_C 	C 	0.9342	0.9567	0.5417	-0.337
Mof_C 	C 	0.9274	0.9607	0.5022	0.16
Mof_H 	H 	0.905	0.9813	0.4917	-0.035
Mof_C 	C 	0.9535	0.9344	0.4779	-0.207
Mof_H 	H 	0.9488	0.9371	0.4509	0.099
Mof_C 	C 	0.9864	0.9043	0.4931	0.14
Mof_C 	C 	0.9932	0.9003	0.5327	-0.211
Mof_H 	H 	0.0156	0.8797	0.5431	0.099
Mof_C 	C 	0.9671	0.9266	0.5569	0.168
Mof_H 	H 	0.9718	0.9239	0.5839	-0.041
Mof_C 	C 	0.0111	0.8738	0.469	-0.068
Mof_N 	N 	0.1065	0.7809	0.3648	-0.225
Mof_C 	C 	0.0587	0.7845	0.3612	0.065
Mof_H 	H 	0.0415	0.7715	0.34	-0.018
Mof_C 	C 	0.0321	0.8075	0.3884	-0.115
Mof_H 	H 	0.9972	0.8104	0.3862	0.07
Mof_C 	C 	0.0601	0.8259	0.4191	0.034
Mof_C 	C 	0.1111	0.8219	0.4233	-0.035
Mof_C 	C 	0.1339	0.7977	0.3943	0.017
Mof_H 	H 	0.1686	0.7932	0.3957	0.002
Mof_C 	C 	0.0335	0.8526	0.4476	0.003
Mof_Cu	Cu	0.64314	0.75229	0.8234	0.845
Mof_Si	Si	0.39604	0.49091	0.5734	0.837
Mof_C 	C 	0.3552	0.5265	0.5418	-0.325
Mof_C 	C 	0.3059	0.5164	0.5343	0.156
Mof_H 	H 	0.2919	0.4919	0.5457	-0.036
Mof_C 	C 	0.277	0.5422	0.51	-0.202
Mof_H 	H 	0.2433	0.5353	0.5048	0.096
Mof_C 	C 	0.2975	0.578	0.4932	0.131
Mof_C 	C 	0.3468	0.5881	0.5007	-0.199
Mof_H 	H 	0.3608	0.6126	0.4893	0.098
Mof_C 	C 	0.3757	0.5623	0.525	0.155
Mof_H 	H 	0.4095	0.5692	0.5301	-0.03
Mof_C 	C 	0.2674	0.6061	0.4692	-0.054
Mof_N 	N 	0.1764	0.7081	0.3643	-0.237
Mof_C 	C 	0.2256	0.7068	0.3658	0.074
Mof_H 	H 	0.2434	0.7241	0.3488	-0.021
Mof_C 	C 	0.2517	0.6803	0.392	-0.142
Mof_H 	H 	0.2867	0.6782	0.3927	0.077
Mof_C 	C 	0.2225	0.6572	0.4171	0.084
Mof_C 	C 	0.1716	0.66	0.4161	-0.147
Mof_H 	H 	0.1524	0.6439	0.4332	0.078
Mof_C 	C 	0.1494	0.6876	0.3889	0.081
Mof_H 	H 	0.1147	0.6916	0.3882	-0.021
Mof_C 	C 	0.2461	0.6292	0.4472	-0.022
Mof_C 	C 	0.4351	0.5278	0.6049	-0.327
Mof_C 	C 	0.4851	0.5209	0.6125	0.161
Mof_H 	H 	0.5012	0.4974	0.601	-0.037
Mof_C 	C 	0.5116	0.5482	0.637	-0.206
Mof_H 	H 	0.5458	0.5434	0.6422	0.097
Mof_C 	C 	0.4881	0.5825	0.6539	0.135
Mof_C 	C 	0.438	0.5894	0.6463	-0.201
Mof_H 	H 	0.4219	0.6128	0.6579	0.099
Mof_C 	C 	0.4115	0.5621	0.6218	0.158
Mof_H 	H 	0.3773	0.5668	0.6166	-0.036
Mof_C 	C 	0.5158	0.6101	0.6798	-0.056
Mof_N 	N 	0.6112	0.7142	0.7827	-0.242
Mof_C 	C 	0.5832	0.7304	0.754	0.081
Mof_H 	H 	0.5803	0.7606	0.7525	-0.022
Mof_C 	C 	0.5583	0.7067	0.7263	-0.145
Mof_H 	H 	0.5385	0.7197	0.7065	0.075
Mof_C 	C 	0.5638	0.662	0.729	0.08
Mof_C 	C 	0.5933	0.6435	0.7586	-0.141
Mof_H 	H 	0.5979	0.6135	0.7605	0.077
Mof_C 	C 	0.6159	0.6722	0.7855	0.074
Mof_H 	H 	0.6352	0.6608	0.8063	-0.022
Mof_C 	C 	0.5363	0.6335	0.7016	-0.017
Mof_C 	C 	0.3593	0.4562	0.6054	-0.336
Mof_C 	C 	0.3476	0.4145	0.5946	0.161
Mof_H 	H 	0.3589	0.4034	0.5711	-0.037
Mof_C 	C 	0.3193	0.3892	0.618	-0.204
Mof_H 	H 	0.3113	0.3607	0.6106	0.097
Mof_C 	C 	0.3026	0.4055	0.6522	0.132
Mof_C 	C 	0.3143	0.4471	0.6631	-0.204
Mof_H 	H 	0.3029	0.4583	0.6865	0.096
Mof_C 	C 	0.3426	0.4725	0.6397	0.161
Mof_H 	H 	0.3506	0.501	0.6471	-0.038
Mof_C 	C 	0.2728	0.3801	0.678	-0.055
Mof_N 	N 	0.1776	0.286	0.7808	-0.232
Mof_C 	C 	0.1732	0.3282	0.7811	0.07
Mof_H 	H 	0.1538	0.3417	0.7998	-0.019
Mof_C 	C 	0.1971	0.3533	0.7536	-0.137
Mof_H 	H 	0.1942	0.3835	0.7532	0.075
Mof_C 	C 	0.2253	0.3317	0.7271	0.076
Mof_C 	C 	0.229	0.2869	0.7267	-0.134
Mof_H 	H 	0.2479	0.2723	0.7083	0.073
Mof_C 	C 	0.2031	0.2646	0.7551	0.067
Mof_H 	H 	0.204	0.2342	0.7559	-0.015
Mof_C 	C 	0.2514	0.3576	0.6987	-0.021
Mof_C 	C 	0.4342	0.4567	0.5417	-0.337
Mof_C 	C 	0.4274	0.4607	0.5022	0.16
Mof_H 	H 	0.405	0.4813	0.4917	-0.035
Mof_C 	C 	0.4535	0.4344	0.4779	-0.207
Mof_H 	H 	0.4488	0.4371	0.4509	0.099
Mof_C 	C 	0.4864	0.4043	0.4931	0.14
Mof_C 	C 	0.4932	0.4003	0.5327	-0.211
Mof_H 	H 	0.5156	0.3797	0.5431	0.099
Mof_C 	C 	0.4671	0.4266	0.5569	0.168
Mof_H 	H 	0.4718	0.4239	0.5839	-0.041
Mof_C 	C 	0.5111	0.3738	0.469	-0.068
Mof_N 	N 	0.6065	0.2809	0.3648	-0.225
Mof_C 	C 	0.5587	0.2845	0.3612	0.065
Mof_H 	H 	0.5415	0.2715	0.34	-0.018
Mof_C 	C 	0.5321	0.3075	0.3884	-0.115
Mof_H 	H 	0.4972	0.3104	0.3862	0.07
Mof_C 	C 	0.5601	0.3259	0.4191	0.034
Mof_C 	C 	0.6111	0.3219	0.4233	-0.035
Mof_C 	C 	0.6339	0.2977	0.3943	0.017
Mof_H 	H 	0.6686	0.2932	0.3957	0.002
Mof_C 	C 	0.5335	0.3526	0.4476	0.003
Mof_Cu	Cu	0.14314	0.74771	0.3234	0.845
Mof_Si	Si	0.89604	0.00909	0.0734	0.836
Mof_C 	C 	0.8552	0.9735	0.0418	-0.324
Mof_C 	C 	0.8059	0.9836	0.0343	0.156
Mof_H 	H 	0.7919	0.0081	0.0457	-0.036
Mof_C 	C 	0.777	0.9578	0.01	-0.201
Mof_H 	H 	0.7433	0.9647	0.0048	0.096
Mof_C 	C 	0.7975	0.922	0.9932	0.13
Mof_C 	C 	0.8468	0.9119	0.0007	-0.198
Mof_H 	H 	0.8608	0.8874	0.9893	0.098
Mof_C 	C 	0.8757	0.9377	0.025	0.155
Mof_H 	H 	0.9095	0.9308	0.0301	-0.03
Mof_C 	C 	0.7674	0.8939	0.9692	-0.054
Mof_N 	N 	0.6764	0.7919	0.8643	-0.237
Mof_C 	C 	0.7256	0.7932	0.8658	0.074
Mof_H 	H 	0.7434	0.7759	0.8488	-0.022
Mof_C 	C 	0.7517	0.8197	0.892	-0.142
Mof_H 	H 	0.7867	0.8218	0.8927	0.077
Mof_C 	C 	0.7225	0.8428	0.9171	0.084
Mof_C 	C 	0.6716	0.84	0.9161	-0.147
Mof_H 	H 	0.6524	0.8561	0.9332	0.078
Mof_C 	C 	0.6494	0.8124	0.8889	0.081
Mof_H 	H 	0.6147	0.8084	0.8882	-0.021
Mof_C 	C 	0.7461	0.8708	0.9472	-0.022
Mof_C 	C 	0.9351	0.9722	0.1049	-0.327
Mof_C 	C 	0.9851	0.9791	0.1125	0.162
Mof_H 	H 	0.0012	0.0026	0.101	-0.038
Mof_C 	C 	0.0116	0.9518	0.137	-0.206
Mof_H 	H 	0.0458	0.9566	0.1422	0.097
Mof_C 	C 	0.9881	0.9175	0.1539	0.135
Mof_C 	C 	0.938	0.9106	0.1463	-0.201
Mof_H 	H 	0.9219	0.8872	0.1579	0.099
Mof_C 	C 	0.9115	0.9379	0.1218	0.158
Mof_H 	H 	0.8773	0.9332	0.1166	-0.036
Mof_C 	C 	0.0158	0.8899	0.1798	-0.056
Mof_N 	N 	0.1112	0.7858	0.2827	-0.242
Mof_C 	C 	0.0832	0.7696	0.254	0.081
Mof_H 	H 	0.0803	0.7394	0.2525	-0.022
Mof_C 	C 	0.0583	0.7933	0.2263	-0.145
Mof_H 	H 	0.0385	0.7803	0.2065	0.075
Mof_C 	C 	0.0638	0.838	0.229	0.08
Mof_C 	C 	0.0933	0.8565	0.2586	-0.141
Mof_H 	H 	0.0979	0.8865	0.2605	0.077
Mof_C 	C 	0.1159	0.8278	0.2855	0.074
Mof_H 	H 	0.1352	0.8392	0.3063	-0.022
Mof_C 	C 	0.0363	0.8665	0.2016	-0.017
Mof_C 	C 	0.8593	0.0438	0.1054	-0.336
Mof_C 	C 	0.8476	0.0855	0.0946	0.161
Mof_H 	H 	0.8589	0.0966	0.0711	-0.037
Mof_C 	C 	0.8193	0.1108	0.118	-0.204
Mof_H 	H 	0.8113	0.1393	0.1106	0.097
Mof_C 	C 	0.8026	0.0945	0.1522	0.132
Mof_C 	C 	0.8143	0.0529	0.1631	-0.203
Mof_H 	H 	0.8029	0.0417	0.1865	0.096
Mof_C 	C 	0.8426	0.0275	0.1397	0.161
Mof_H 	H 	0.8506	0.999	0.1471	-0.038
Mof_C 	C 	0.7728	0.1199	0.178	-0.055
Mof_N 	N 	0.6776	0.214	0.2808	-0.232
Mof_C 	C 	0.6732	0.1718	0.2811	0.07
Mof_H 	H 	0.6538	0.1583	0.2998	-0.019
Mof_C 	C 	0.6971	0.1467	0.2536	-0.137
Mof_H 	H 	0.6942	0.1165	0.2532	0.075
Mof_C 	C 	0.7253	0.1683	0.2271	0.076
Mof_C 	C 	0.729	0.2131	0.2267	-0.134
Mof_H 	H 	0.7479	0.2277	0.2083	0.073
Mof_C 	C 	0.7031	0.2354	0.2551	0.067
Mof_H 	H 	0.704	0.2658	0.2559	-0.015
Mof_C 	C 	0.7514	0.1424	0.1987	-0.021
Mof_C 	C 	0.9342	0.0433	0.0417	-0.336
Mof_C 	C 	0.9274	0.0393	0.0022	0.159
Mof_H 	H 	0.905	0.0187	0.9917	-0.034
Mof_C 	C 	0.9535	0.0656	0.9779	-0.207
Mof_H 	H 	0.9488	0.0629	0.9509	0.099
Mof_C 	C 	0.9864	0.0957	0.9931	0.14
Mof_C 	C 	0.9932	0.0997	0.0327	-0.211
Mof_H 	H 	0.0156	0.1203	0.0431	0.099
Mof_C 	C 	0.9671	0.0734	0.0569	0.167
Mof_H 	H 	0.9718	0.0761	0.0839	-0.041
Mof_C 	C 	0.0111	0.1262	0.969	-0.068
Mof_N 	N 	0.1065	0.2191	0.8648	-0.225
Mof_C 	C 	0.0587	0.2155	0.8612	0.065
Mof_H 	H 	0.0415	0.2285	0.84	-0.018
Mof_C 	C 	0.0321	0.1925	0.8884	-0.115
Mof_H 	H 	0.9972	0.1896	0.8862	0.069
Mof_C 	C 	0.0601	0.1741	0.9191	0.034
Mof_C 	C 	0.1111	0.1781	0.9233	-0.035
Mof_C 	C 	0.1339	0.2023	0.8943	0.017
Mof_H 	H 	0.1686	0.2068	0.8957	0.003
Mof_C 	C 	0.0335	0.1474	0.9476	0.003
Mof_Cu	Cu	0.64314	0.24771	0.3234	0.845
Mof_Si	Si	0.39604	0.50909	0.0734	0.837
Mof_C 	C 	0.3552	0.4735	0.0418	-0.325
Mof_C 	C 	0.3059	0.4836	0.0343	0.156
Mof_H 	H 	0.2919	0.5081	0.0457	-0.036
Mof_C 	C 	0.277	0.4578	0.01	-0.202
Mof_H 	H 	0.2433	0.4647	0.0048	0.096
Mof_C 	C 	0.2975	0.422	0.9932	0.131
Mof_C 	C 	0.3468	0.4119	0.0007	-0.199
Mof_H 	H 	0.3608	0.3874	0.9893	0.098
Mof_C 	C 	0.3757	0.4377	0.025	0.155
Mof_H 	H 	0.4095	0.4308	0.0301	-0.03
Mof_C 	C 	0.2674	0.3939	0.9692	-0.054
Mof_N 	N 	0.1764	0.2919	0.8643	-0.237
Mof_C 	C 	0.2256	0.2932	0.8658	0.074
Mof_H 	H 	0.2434	0.2759	0.8488	-0.021
Mof_C 	C 	0.2517	0.3197	0.892	-0.142
Mof_H 	H 	0.2867	0.3218	0.8927	0.077
Mof_C 	C 	0.2225	0.3428	0.9171	0.084
Mof_C 	C 	0.1716	0.34	0.9161	-0.147
Mof_H 	H 	0.1524	0.3561	0.9332	0.078
Mof_C 	C 	0.1494	0.3124	0.8889	0.081
Mof_H 	H 	0.1147	0.3084	0.8882	-0.021
Mof_C 	C 	0.2461	0.3708	0.9472	-0.022
Mof_C 	C 	0.4351	0.4722	0.1049	-0.327
Mof_C 	C 	0.4851	0.4791	0.1125	0.161
Mof_H 	H 	0.5012	0.5026	0.101	-0.037
Mof_C 	C 	0.5116	0.4518	0.137	-0.206
Mof_H 	H 	0.5458	0.4566	0.1422	0.097
Mof_C 	C 	0.4881	0.4175	0.1539	0.135
Mof_C 	C 	0.438	0.4106	0.1463	-0.201
Mof_H 	H 	0.4219	0.3872	0.1579	0.099
Mof_C 	C 	0.4115	0.4379	0.1218	0.158
Mof_H 	H 	0.3773	0.4332	0.1166	-0.036
Mof_C 	C 	0.5158	0.3899	0.1798	-0.056
Mof_N 	N 	0.6112	0.2858	0.2827	-0.242
Mof_C 	C 	0.5832	0.2696	0.254	0.081
Mof_H 	H 	0.5803	0.2394	0.2525	-0.022
Mof_C 	C 	0.5583	0.2933	0.2263	-0.145
Mof_H 	H 	0.5385	0.2803	0.2065	0.075
Mof_C 	C 	0.5638	0.338	0.229	0.08
Mof_C 	C 	0.5933	0.3565	0.2586	-0.141
Mof_H 	H 	0.5979	0.3865	0.2605	0.077
Mof_C 	C 	0.6159	0.3278	0.2855	0.074
Mof_H 	H 	0.6352	0.3392	0.3063	-0.022
Mof_C 	C 	0.5363	0.3665	0.2016	-0.017
Mof_C 	C 	0.3593	0.5438	0.1054	-0.336
Mof_C 	C 	0.3476	0.5855	0.0946	0.161
Mof_H 	H 	0.3589	0.5966	0.0711	-0.037
Mof_C 	C 	0.3193	0.6108	0.118	-0.204
Mof_H 	H 	0.3113	0.6393	0.1106	0.097
Mof_C 	C 	0.3026	0.5945	0.1522	0.132
Mof_C 	C 	0.3143	0.5529	0.1631	-0.204
Mof_H 	H 	0.3029	0.5417	0.1865	0.096
Mof_C 	C 	0.3426	0.5275	0.1397	0.161
Mof_H 	H 	0.3506	0.499	0.1471	-0.038
Mof_C 	C 	0.2728	0.6199	0.178	-0.055
Mof_N 	N 	0.1776	0.714	0.2808	-0.232
Mof_C 	C 	0.1732	0.6718	0.2811	0.07
Mof_H 	H 	0.1538	0.6583	0.2998	-0.019
Mof_C 	C 	0.1971	0.6467	0.2536	-0.137
Mof_H 	H 	0.1942	0.6165	0.2532	0.075
Mof_C 	C 	0.2253	0.6683	0.2271	0.076
Mof_C 	C 	0.229	0.7131	0.2267	-0.134
Mof_H 	H 	0.2479	0.7277	0.2083	0.073
Mof_C 	C 	0.2031	0.7354	0.2551	0.067
Mof_H 	H 	0.204	0.7658	0.2559	-0.015
Mof_C 	C 	0.2514	0.6424	0.1987	-0.021
Mof_C 	C 	0.4342	0.5433	0.0417	-0.337
Mof_C 	C 	0.4274	0.5393	0.0022	0.16
Mof_H 	H 	0.405	0.5187	0.9917	-0.035
Mof_C 	C 	0.4535	0.5656	0.9779	-0.207
Mof_H 	H 	0.4488	0.5629	0.9509	0.099
Mof_C 	C 	0.4864	0.5957	0.9931	0.14
Mof_C 	C 	0.4932	0.5997	0.0327	-0.211
Mof_H 	H 	0.5156	0.6203	0.0431	0.099
Mof_C 	C 	0.4671	0.5734	0.0569	0.168
Mof_H 	H 	0.4718	0.5761	0.0839	-0.041
Mof_C 	C 	0.5111	0.6262	0.969	-0.068
Mof_N 	N 	0.6065	0.7191	0.8648	-0.225
Mof_C 	C 	0.5587	0.7155	0.8612	0.065
Mof_H 	H 	0.5415	0.7285	0.84	-0.018
Mof_C 	C 	0.5321	0.6925	0.8884	-0.115
Mof_H 	H 	0.4972	0.6896	0.8862	0.07
Mof_C 	C 	0.5601	0.6741	0.9191	0.034
Mof_C 	C 	0.6111	0.6781	0.9233	-0.035
Mof_C 	C 	0.6339	0.7023	0.8943	0.017
Mof_H 	H 	0.6686	0.7068	0.8957	0.002
Mof_C 	C 	0.5335	0.6474	0.9476	0.003
Mof_Cu	Cu	0.85686	0.25229	0.6766	0.845
Mof_Si	Si	0.10396	0.99091	0.9266	0.836
Mof_C 	C 	0.1448	0.0265	0.9582	-0.324
Mof_C 	C 	0.1941	0.0164	0.9657	0.156
Mof_H 	H 	0.2081	0.9919	0.9543	-0.036
Mof_C 	C 	0.223	0.0422	0.99	-0.201
Mof_H 	H 	0.2567	0.0353	0.9952	0.096
Mof_C 	C 	0.2025	0.078	0.0068	0.13
Mof_C 	C 	0.1532	0.0881	0.9993	-0.198
Mof_H 	H 	0.1392	0.1126	0.0107	0.098
Mof_C 	C 	0.1243	0.0623	0.975	0.155
Mof_H 	H 	0.0905	0.0692	0.9699	-0.03
Mof_C 	C 	0.2326	0.1061	0.0308	-0.054
Mof_N 	N 	0.3236	0.2081	0.1357	-0.237
Mof_C 	C 	0.2744	0.2068	0.1342	0.074
Mof_H 	H 	0.2566	0.2241	0.1512	-0.022
Mof_C 	C 	0.2483	0.1803	0.108	-0.142
Mof_H 	H 	0.2133	0.1782	0.1073	0.077
Mof_C 	C 	0.2775	0.1572	0.0829	0.084
Mof_C 	C 	0.3284	0.16	0.0839	-0.147
Mof_H 	H 	0.3476	0.1439	0.0668	0.078
Mof_C 	C 	0.3506	0.1876	0.1111	0.081
Mof_H 	H 	0.3853	0.1916	0.1118	-0.021
Mof_C 	C 	0.2539	0.1292	0.0528	-0.022
Mof_C 	C 	0.0649	0.0278	0.8951	-0.327
Mof_C 	C 	0.0149	0.0209	0.8875	0.162
Mof_H 	H 	0.9988	0.9974	0.899	-0.038
Mof_C 	C 	0.9884	0.0482	0.863	-0.206
Mof_H 	H 	0.9542	0.0434	0.8578	0.097
Mof_C 	C 	0.0119	0.0825	0.8461	0.135
Mof_C 	C 	0.062	0.0894	0.8537	-0.201
Mof_H 	H 	0.0781	0.1128	0.8421	0.099
Mof_C 	C 	0.0885	0.0621	0.8782	0.158
Mof_H 	H 	0.1227	0.0668	0.8834	-0.036
Mof_C 	C 	0.9842	0.1101	0.8202	-0.056
Mof_N 	N 	0.8888	0.2142	0.7173	-0.242
Mof_C 	C 	0.9168	0.2304	0.746	0.081
Mof_H 	H 	0.9197	0.2606	0.7475	-0.022
Mof_C 	C 	0.9417	0.2067	0.7737	-0.145
Mof_H 	H 	0.9615	0.2197	0.7935	0.075
Mof_C 	C 	0.9362	0.162	0.771	0.08
Mof_C 	C 	0.9067	0.1435	0.7414	-0.141
Mof_H 	H 	0.9021	0.1135	0.7395	0.077
Mof_C 	C 	0.8841	0.1722	0.7145	0.074
Mof_H 	H 	0.8648	0.1608	0.6937	-0.022
Mof_C 	C 	0.9637	0.1335	0.7984	-0.017
Mof_C 	C 	0.1407	0.9562	0.8946	-0.336
Mof_C 	C 	0.1524	0.9145	0.9054	0.161
Mof_H 	H 	0.1411	0.9034	0.9289	-0.037
Mof_C 	C 	0.1807	0.8892	0.882	-0.204
Mof_H 	H 	0.1887	0.8607	0.8894	0.097
Mof_C 	C 	0.1974	0.9055	0.8478	0.132
Mof_C 	C 	0.1857	0.9471	0.8369	-0.203
Mof_H 	H 	0.1971	0.9583	0.8135	0.096
Mof_C 	C 	0.1574	0.9725	0.8603	0.161
Mof_H 	H 	0.1494	0.001	0.8529	-0.038
Mof_C 	C 	0.2272	0.8801	0.822	-0.055
Mof_N 	N 	0.3224	0.786	0.7192	-0.232
Mof_C 	C 	0.3268	0.8282	0.7189	0.07
Mof_H 	H 	0.3462	0.8417	0.7002	-0.019
Mof_C 	C 	0.3029	0.8533	0.7464	-0.137
Mof_H 	H 	0.3058	0.8835	0.7468	0.075
Mof_C 	C 	0.2747	0.8317	0.7729	0.076
Mof_C 	C 	0.271	0.7869	0.7733	-0.134
Mof_H 	H 	0.2521	0.7723	0.7917	0.073
Mof_C 	C 	0.2969	0.7646	0.7449	0.067
Mof_H 	H 	0.296	0.7342	0.7441	-0.015
Mof_C 	C 	0.2486	0.8576	0.8013	-0.021
Mof_C 	C 	0.0658	0.9567	0.9583	-0.336
Mof_C 	C 	0.0726	0.9607	0.9978	0.159
Mof_H 	H 	0.095	0.9813	0.0083	-0.034
Mof_C 	C 	0.0465	0.9344	0.0221	-0.207
Mof_H 	H 	0.0512	0.9371	0.0491	0.099
Mof_C 	C 	0.0136	0.9043	0.0069	0.14
Mof_C 	C 	0.0068	0.9003	0.9673	-0.211
Mof_H 	H 	0.9844	0.8797	0.9569	0.099
Mof_C 	C 	0.0329	0.9266	0.9431	0.167
Mof_H 	H 	0.0282	0.9239	0.9161	-0.041
Mof_C 	C 	0.9889	0.8738	0.031	-0.068
Mof_N 	N 	0.8935	0.7809	0.1352	-0.225
Mof_C 	C 	0.9413	0.7845	0.1388	0.065
Mof_H 	H 	0.9585	0.7715	0.16	-0.018
Mof_C 	C 	0.9679	0.8075	0.1116	-0.115
Mof_H 	H 	0.0028	0.8104	0.1138	0.069
Mof_C 	C 	0.9399	0.8259	0.0809	0.034
Mof_C 	C 	0.8889	0.8219	0.0767	-0.035
Mof_C 	C 	0.8661	0.7977	0.1057	0.017
Mof_H 	H 	0.8314	0.7932	0.1043	0.003
Mof_C 	C 	0.9665	0.8526	0.0524	0.003
Mof_Cu	Cu	0.35686	0.75229	0.6766	0.845
Mof_Si	Si	0.60396	0.49091	0.9266	0.837
Mof_C 	C 	0.6448	0.5265	0.9582	-0.325
Mof_C 	C 	0.6941	0.5164	0.9657	0.156
Mof_H 	H 	0.7081	0.4919	0.9543	-0.036
Mof_C 	C 	0.723	0.5422	0.99	-0.202
Mof_H 	H 	0.7567	0.5353	0.9952	0.096
Mof_C 	C 	0.7025	0.578	0.0068	0.131
Mof_C 	C 	0.6532	0.5881	0.9993	-0.199
Mof_H 	H 	0.6392	0.6126	0.0107	0.098
Mof_C 	C 	0.6243	0.5623	0.975	0.155
Mof_H 	H 	0.5905	0.5692	0.9699	-0.03
Mof_C 	C 	0.7326	0.6061	0.0308	-0.054
Mof_N 	N 	0.8236	0.7081	0.1357	-0.237
Mof_C 	C 	0.7744	0.7068	0.1342	0.074
Mof_H 	H 	0.7566	0.7241	0.1512	-0.021
Mof_C 	C 	0.7483	0.6803	0.108	-0.142
Mof_H 	H 	0.7133	0.6782	0.1073	0.077
Mof_C 	C 	0.7775	0.6572	0.0829	0.084
Mof_C 	C 	0.8284	0.66	0.0839	-0.147
Mof_H 	H 	0.8476	0.6439	0.0668	0.078
Mof_C 	C 	0.8506	0.6876	0.1111	0.081
Mof_H 	H 	0.8853	0.6916	0.1118	-0.021
Mof_C 	C 	0.7539	0.6292	0.0528	-0.022
Mof_C 	C 	0.5649	0.5278	0.8951	-0.327
Mof_C 	C 	0.5149	0.5209	0.8875	0.161
Mof_H 	H 	0.4988	0.4974	0.899	-0.037
Mof_C 	C 	0.4884	0.5482	0.863	-0.206
Mof_H 	H 	0.4542	0.5434	0.8578	0.097
Mof_C 	C 	0.5119	0.5825	0.8461	0.135
Mof_C 	C 	0.562	0.5894	0.8537	-0.201
Mof_H 	H 	0.5781	0.6128	0.8421	0.099
Mof_C 	C 	0.5885	0.5621	0.8782	0.158
Mof_H 	H 	0.6227	0.5668	0.8834	-0.036
Mof_C 	C 	0.4842	0.6101	0.8202	-0.056
Mof_N 	N 	0.3888	0.7142	0.7173	-0.242
Mof_C 	C 	0.4168	0.7304	0.746	0.081
Mof_H 	H 	0.4197	0.7606	0.7475	-0.022
Mof_C 	C 	0.4417	0.7067	0.7737	-0.145
Mof_H 	H 	0.4615	0.7197	0.7935	0.075
Mof_C 	C 	0.4362	0.662	0.771	0.08
Mof_C 	C 	0.4067	0.6435	0.7414	-0.141
Mof_H 	H 	0.4021	0.6135	0.7395	0.077
Mof_C 	C 	0.3841	0.6722	0.7145	0.074
Mof_H 	H 	0.3648	0.6608	0.6937	-0.022
Mof_C 	C 	0.4637	0.6335	0.7984	-0.017
Mof_C 	C 	0.6407	0.4562	0.8946	-0.336
Mof_C 	C 	0.6524	0.4145	0.9054	0.161
Mof_H 	H 	0.6411	0.4034	0.9289	-0.037
Mof_C 	C 	0.6807	0.3892	0.882	-0.204
Mof_H 	H 	0.6887	0.3607	0.8894	0.097
Mof_C 	C 	0.6974	0.4055	0.8478	0.132
Mof_C 	C 	0.6857	0.4471	0.8369	-0.204
Mof_H 	H 	0.6971	0.4583	0.8135	0.096
Mof_C 	C 	0.6574	0.4725	0.8603	0.161
Mof_H 	H 	0.6494	0.501	0.8529	-0.038
Mof_C 	C 	0.7272	0.3801	0.822	-0.055
Mof_N 	N 	0.8224	0.286	0.7192	-0.232
Mof_C 	C 	0.8268	0.3282	0.7189	0.07
Mof_H 	H 	0.8462	0.3417	0.7002	-0.019
Mof_C 	C 	0.8029	0.3533	0.7464	-0.137
Mof_H 	H 	0.8058	0.3835	0.7468	0.075
Mof_C 	C 	0.7747	0.3317	0.7729	0.076
Mof_C 	C 	0.771	0.2869	0.7733	-0.134
Mof_H 	H 	0.7521	0.2723	0.7917	0.073
Mof_C 	C 	0.7969	0.2646	0.7449	0.067
Mof_H 	H 	0.796	0.2342	0.7441	-0.015
Mof_C 	C 	0.7486	0.3576	0.8013	-0.021
Mof_C 	C 	0.5658	0.4567	0.9583	-0.337
Mof_C 	C 	0.5726	0.4607	0.9978	0.16
Mof_H 	H 	0.595	0.4813	0.0083	-0.035
Mof_C 	C 	0.5465	0.4344	0.0221	-0.207
Mof_H 	H 	0.5512	0.4371	0.0491	0.099
Mof_C 	C 	0.5136	0.4043	0.0069	0.14
Mof_C 	C 	0.5068	0.4003	0.9673	-0.211
Mof_H 	H 	0.4844	0.3797	0.9569	0.099
Mof_C 	C 	0.5329	0.4266	0.9431	0.168
Mof_H 	H 	0.5282	0.4239	0.9161	-0.041
Mof_C 	C 	0.4889	0.3738	0.031	-0.068
Mof_N 	N 	0.3935	0.2809	0.1352	-0.225
Mof_C 	C 	0.4413	0.2845	0.1388	0.065
Mof_H 	H 	0.4585	0.2715	0.16	-0.018
Mof_C 	C 	0.4679	0.3075	0.1116	-0.115
Mof_H 	H 	0.5028	0.3104	0.1138	0.07
Mof_C 	C 	0.4399	0.3259	0.0809	0.034
Mof_C 	C 	0.3889	0.3219	0.0767	-0.035
Mof_C 	C 	0.3661	0.2977	0.1057	0.017
Mof_H 	H 	0.3314	0.2932	0.1043	0.002
Mof_C 	C 	0.4665	0.3526	0.0524	0.003
Mof_Cu	Cu	0.85686	0.74771	0.1766	0.845
Mof_Si	Si	0.10396	0.00909	0.4266	0.837
Mof_C 	C 	0.1448	0.9735	0.4582	-0.325
Mof_C 	C 	0.1941	0.9836	0.4657	0.156
Mof_H 	H 	0.2081	0.0081	0.4543	-0.036
Mof_C 	C 	0.223	0.9578	0.49	-0.202
Mof_H 	H 	0.2567	0.9647	0.4952	0.096
Mof_C 	C 	0.2025	0.922	0.5068	0.131
Mof_C 	C 	0.1532	0.9119	0.4993	-0.199
Mof_H 	H 	0.1392	0.8874	0.5107	0.098
Mof_C 	C 	0.1243	0.9377	0.475	0.155
Mof_H 	H 	0.0905	0.9308	0.4699	-0.03
Mof_C 	C 	0.2326	0.8939	0.5308	-0.054
Mof_N 	N 	0.3236	0.7919	0.6357	-0.237
Mof_C 	C 	0.2744	0.7932	0.6342	0.074
Mof_H 	H 	0.2566	0.7759	0.6512	-0.022
Mof_C 	C 	0.2483	0.8197	0.608	-0.142
Mof_H 	H 	0.2133	0.8218	0.6073	0.077
Mof_C 	C 	0.2775	0.8428	0.5829	0.084
Mof_C 	C 	0.3284	0.84	0.5839	-0.147
Mof_H 	H 	0.3476	0.8561	0.5668	0.078
Mof_C 	C 	0.3506	0.8124	0.6111	0.081
Mof_H 	H 	0.3853	0.8084	0.6118	-0.021
Mof_C 	C 	0.2539	0.8708	0.5528	-0.022
Mof_C 	C 	0.0649	0.9722	0.3951	-0.327
Mof_C 	C 	0.0149	0.9791	0.3875	0.161
Mof_H 	H 	0.9988	0.0026	0.399	-0.037
Mof_C 	C 	0.9884	0.9518	0.363	-0.206
Mof_H 	H 	0.9542	0.9566	0.3578	0.097
Mof_C 	C 	0.0119	0.9175	0.3461	0.135
Mof_C 	C 	0.062	0.9106	0.3537	-0.201
Mof_H 	H 	0.0781	0.8872	0.3421	0.099
Mof_C 	C 	0.0885	0.9379	0.3782	0.158
Mof_H 	H 	0.1227	0.9332	0.3834	-0.036
Mof_C 	C 	0.9842	0.8899	0.3202	-0.056
Mof_N 	N 	0.8888	0.7858	0.2173	-0.242
Mof_C 	C 	0.9168	0.7696	0.246	0.081
Mof_H 	H 	0.9197	0.7394	0.2475	-0.022
Mof_C 	C 	0.9417	0.7933	0.2737	-0.145
Mof_H 	H 	0.9615	0.7803	0.2935	0.075
Mof_C 	C 	0.9362	0.838	0.271	0.08
Mof_C 	C 	0.9067	0.8565	0.2414	-0.141
Mof_H 	H 	0.9021	0.8865	0.2395	0.077
Mof_C 	C 	0.8841	0.8278	0.2145	0.074
Mof_H 	H 	0.8648	0.8392	0.1937	-0.022
Mof_C 	C 	0.9637	0.8665	0.2984	-0.017
Mof_C 	C 	0.1407	0.0438	0.3946	-0.336
Mof_C 	C 	0.1524	0.0855	0.4054	0.161
Mof_H 	H 	0.1411	0.0966	0.4289	-0.037
Mof_C 	C 	0.1807	0.1108	0.382	-0.204
Mof_H 	H 	0.1887	0.1393	0.3894	0.097
Mof_C 	C 	0.1974	0.0945	0.3478	0.132
Mof_C 	C 	0.1857	0.0529	0.3369	-0.203
Mof_H 	H 	0.1971	0.0417	0.3135	0.096
Mof_C 	C 	0.1574	0.0275	0.3603	0.161
Mof_H 	H 	0.1494	0.999	0.3529	-0.038
Mof_C 	C 	0.2272	0.1199	0.322	-0.055
Mof_N 	N 	0.3224	0.214	0.2192	-0.232
Mof_C 	C 	0.3268	0.1718	0.2189	0.07
Mof_H 	H 	0.3462	0.1583	0.2002	-0.019
Mof_C 	C 	0.3029	0.1467	0.2464	-0.137
Mof_H 	H 	0.3058	0.1165	0.2468	0.075
Mof_C 	C 	0.2747	0.1683	0.2729	0.076
Mof_C 	C 	0.271	0.2131	0.2733	-0.134
Mof_H 	H 	0.2521	0.2277	0.2917	0.073
Mof_C 	C 	0.2969	0.2354	0.2449	0.067
Mof_H 	H 	0.296	0.2658	0.2441	-0.015
Mof_C 	C 	0.2486	0.1424	0.3013	-0.021
Mof_C 	C 	0.0658	0.0433	0.4583	-0.337
Mof_C 	C 	0.0726	0.0393	0.4978	0.16
Mof_H 	H 	0.095	0.0187	0.5083	-0.035
Mof_C 	C 	0.0465	0.0656	0.5221	-0.207
Mof_H 	H 	0.0512	0.0629	0.5491	0.099
Mof_C 	C 	0.0136	0.0957	0.5069	0.14
Mof_C 	C 	0.0068	0.0997	0.4673	-0.211
Mof_H 	H 	0.9844	0.1203	0.4569	0.099
Mof_C 	C 	0.0329	0.0734	0.4431	0.168
Mof_H 	H 	0.0282	0.0761	0.4161	-0.041
Mof_C 	C 	0.9889	0.1262	0.531	-0.068
Mof_N 	N 	0.8935	0.2191	0.6352	-0.225
Mof_C 	C 	0.9413	0.2155	0.6388	0.065
Mof_H 	H 	0.9585	0.2285	0.66	-0.018
Mof_C 	C 	0.9679	0.1925	0.6116	-0.115
Mof_H 	H 	0.0028	0.1896	0.6138	0.07
Mof_C 	C 	0.9399	0.1741	0.5809	0.034
Mof_C 	C 	0.8889	0.1781	0.5767	-0.035
Mof_C 	C 	0.8661	0.2023	0.6057	0.017
Mof_H 	H 	0.8314	0.2068	0.6043	0.002
Mof_C 	C 	0.9665	0.1474	0.5524	0.003
Mof_Cu	Cu	0.35686	0.24771	0.1766	0.845
Mof_Si	Si	0.60396	0.50909	0.4266	0.837
Mof_C 	C 	0.6448	0.4735	0.4582	-0.325
Mof_C 	C 	0.6941	0.4836	0.4657	0.156
Mof_H 	H 	0.7081	0.5081	0.4543	-0.036
Mof_C 	C 	0.723	0.4578	0.49	-0.202
Mof_H 	H 	0.7567	0.4647	0.4952	0.096
Mof_C 	C 	0.7025	0.422	0.5068	0.131
Mof_C 	C 	0.6532	0.4119	0.4993	-0.199
Mof_H 	H 	0.6392	0.3874	0.5107	0.098
Mof_C 	C 	0.6243	0.4377	0.475	0.155
Mof_H 	H 	0.5905	0.4308	0.4699	-0.03
Mof_C 	C 	0.7326	0.3939	0.5308	-0.054
Mof_N 	N 	0.8236	0.2919	0.6357	-0.237
Mof_C 	C 	0.7744	0.2932	0.6342	0.074
Mof_H 	H 	0.7566	0.2759	0.6512	-0.021
Mof_C 	C 	0.7483	0.3197	0.608	-0.142
Mof_H 	H 	0.7133	0.3218	0.6073	0.077
Mof_C 	C 	0.7775	0.3428	0.5829	0.084
Mof_C 	C 	0.8284	0.34	0.5839	-0.147
Mof_H 	H 	0.8476	0.3561	0.5668	0.078
Mof_C 	C 	0.8506	0.3124	0.6111	0.081
Mof_H 	H 	0.8853	0.3084	0.6118	-0.021
Mof_C 	C 	0.7539	0.3708	0.5528	-0.022
Mof_C 	C 	0.5649	0.4722	0.3951	-0.327
Mof_C 	C 	0.5149	0.4791	0.3875	0.161
Mof_H 	H 	0.4988	0.5026	0.399	-0.037
Mof_C 	C 	0.4884	0.4518	0.363	-0.206
Mof_H 	H 	0.4542	0.4566	0.3578	0.097
Mof_C 	C 	0.5119	0.4175	0.3461	0.135
Mof_C 	C 	0.562	0.4106	0.3537	-0.201
Mof_H 	H 	0.5781	0.3872	0.3421	0.099
Mof_C 	C 	0.5885	0.4379	0.3782	0.158
Mof_H 	H 	0.6227	0.4332	0.3834	-0.036
Mof_C 	C 	0.4842	0.3899	0.3202	-0.056
Mof_N 	N 	0.3888	0.2858	0.2173	-0.242
Mof_C 	C 	0.4168	0.2696	0.246	0.081
Mof_H 	H 	0.4197	0.2394	0.2475	-0.022
Mof_C 	C 	0.4417	0.2933	0.2737	-0.145
Mof_H 	H 	0.4615	0.2803	0.2935	0.075
Mof_C 	C 	0.4362	0.338	0.271	0.08
Mof_C 	C 	0.4067	0.3565	0.2414	-0.141
Mof_H 	H 	0.4021	0.3865	0.2395	0.077
Mof_C 	C 	0.3841	0.3278	0.2145	0.074
Mof_H 	H 	0.3648	0.3392	0.1937	-0.022
Mof_C 	C 	0.4637	0.3665	0.2984	-0.017
Mof_C 	C 	0.6407	0.5438	0.3946	-0.336
Mof_C 	C 	0.6524	0.5855	0.4054	0.161
Mof_H 	H 	0.6411	0.5966	0.4289	-0.037
Mof_C 	C 	0.6807	0.6108	0.382	-0.204
Mof_H 	H 	0.6887	0.6393	0.3894	0.097
Mof_C 	C 	0.6974	0.5945	0.3478	0.132
Mof_C 	C 	0.6857	0.5529	0.3369	-0.204
Mof_H 	H 	0.6971	0.5417	0.3135	0.096
Mof_C 	C 	0.6574	0.5275	0.3603	0.161
Mof_H 	H 	0.6494	0.499	0.3529	-0.038
Mof_C 	C 	0.7272	0.6199	0.322	-0.055
Mof_N 	N 	0.8224	0.714	0.2192	-0.232
Mof_C 	C 	0.8268	0.6718	0.2189	0.07
Mof_H 	H 	0.8462	0.6583	0.2002	-0.019
Mof_C 	C 	0.8029	0.6467	0.2464	-0.137
Mof_H 	H 	0.8058	0.6165	0.2468	0.075
Mof_C 	C 	0.7747	0.6683	0.2729	0.076
Mof_C 	C 	0.771	0.7131	0.2733	-0.134
Mof_H 	H 	0.7521	0.7277	0.2917	0.073
Mof_C 	C 	0.7969	0.7354	0.2449	0.067
Mof_H 	H 	0.796	0.7658	0.2441	-0.015
Mof_C 	C 	0.7486	0.6424	0.3013	-0.021
Mof_C 	C 	0.5658	0.5433	0.4583	-0.337
Mof_C 	C 	0.5726	0.5393	0.4978	0.16
Mof_H 	H 	0.595	0.5187	0.5083	-0.035
Mof_C 	C 	0.5465	0.5656	0.5221	-0.207
Mof_H 	H 	0.5512	0.5629	0.5491	0.099
Mof_C 	C 	0.5136	0.5957	0.5069	0.14
Mof_C 	C 	0.5068	0.5997	0.4673	-0.211
Mof_H 	H 	0.4844	0.6203	0.4569	0.099
Mof_C 	C 	0.5329	0.5734	0.4431	0.168
Mof_H 	H 	0.5282	0.5761	0.4161	-0.041
Mof_C 	C 	0.4889	0.6262	0.531	-0.068
Mof_N 	N 	0.3935	0.7191	0.6352	-0.225
Mof_C 	C 	0.4413	0.7155	0.6388	0.065
Mof_H 	H 	0.4585	0.7285	0.66	-0.018
Mof_C 	C 	0.4679	0.6925	0.6116	-0.115
Mof_H 	H 	0.5028	0.6896	0.6138	0.07
Mof_C 	C 	0.4399	0.6741	0.5809	0.034
Mof_C 	C 	0.3889	0.6781	0.5767	-0.035
Mof_C 	C 	0.3661	0.7023	0.6057	0.017
Mof_H 	H 	0.3314	0.7068	0.6043	0.002
Mof_C 	C 	0.4665	0.6474	0.5524	0.003
_end
