data_functionalizedCrystal
_audit_creation_method	'EQeq! by Chris Wilmer'
_symmetry_space_group_name_H-M	'P1'
_symmetry_Int_Tables_number	1
_symmetry_cell_setting	triclinic
loop_
_symmetry_equiv_pos_as_xyz
  x,y,z
_cell_length_a	14.4115
_cell_length_b	16.0984
_cell_length_c	9.6856
_cell_angle_alpha	90
_cell_angle_beta	90
_cell_angle_gamma	90
loop_
_atom_site_label
_atom_site_type_symbol
_atom_site_fract_x
_atom_site_fract_y
_atom_site_fract_z
_atom_site_charge
Mof_Zn	Zn	0.39762	0.1726	0.39645	1.232
Mof_Zn	Zn	0.11778	0.16572	0.46527	1.236
Mof_Zn	Zn	0.24451	0.00813	0.93349	1.189
Mof_P 	P 	0.23436	0.13726	0.18621	0.512
Mof_P 	P 	0.61558	0.14137	0.41445	0.446
Mof_P 	P 	0.4058	0.36925	0.45211	0.456
Mof_P 	P 	0.28244	0.13147	0.67363	0.469
Mof_O 	O 	0.1603	0.169	0.2751	-0.3
Mof_O 	O 	0.326	0.1195	0.254	-0.429
Mof_O 	O 	0.2079	0.0738	0.0846	-0.343
Mof_O 	O 	0.6169	0.218	0.5028	-0.489
Mof_O 	O 	0.65794	0.06809	0.4883	-0.429
Mof_O 	O 	0.51834	0.11961	0.3651	-0.399
Mof_O 	O 	0.36082	0.4412	0.3731	-0.393
Mof_O 	O 	0.4027	0.29078	0.3667	-0.46
Mof_O 	O 	0.5026	0.3922	0.4979	-0.432
Mof_O 	O 	0.3636	0.139	0.5822	-0.464
Mof_O 	O 	0.1935	0.1088	0.6022	-0.469
Mof_O 	O 	0.3053	0.0711	0.7888	-0.471
Mof_H 	H 	0.236	0.203	0.099	0.012
Mof_H 	H 	0.668	0.159	0.286	-0.016
Mof_H 	H 	0.354	0.358	0.56	-0.086
Mof_H 	H 	0.271	0.21	0.732	-0.084
Mof_O 	O 	0.1545	0.1232	0.2961	-0.197
Mof_Zn	Zn	0.60238	0.8274	0.89645	1.186
Mof_Zn	Zn	0.88222	0.83428	0.96527	1.17
Mof_Zn	Zn	0.75549	0.99187	0.43349	1.245
Mof_P 	P 	0.76564	0.86274	0.68621	0.514
Mof_P 	P 	0.38442	0.85863	0.91445	0.273
Mof_P 	P 	0.5942	0.63075	0.95211	0.281
Mof_P 	P 	0.71756	0.86853	0.17363	0.468
Mof_O 	O 	0.8397	0.831	0.7751	-0.321
Mof_O 	O 	0.674	0.8805	0.754	-0.5
Mof_O 	O 	0.7921	0.9262	0.5846	-0.456
Mof_O 	O 	0.3831	0.782	0.0028	-0.24
Mof_O 	O 	0.34206	0.93191	0.9883	-0.493
Mof_O 	O 	0.48166	0.88039	0.8651	-0.442
Mof_O 	O 	0.63918	0.5588	0.8731	-0.438
Mof_O 	O 	0.5973	0.70922	0.8667	-0.499
Mof_O 	O 	0.4974	0.6078	0.9979	-0.515
Mof_O 	O 	0.6364	0.861	0.0822	-0.338
Mof_O 	O 	0.8065	0.8912	0.1022	-0.349
Mof_O 	O 	0.6947	0.9289	0.2888	-0.396
Mof_H 	H 	0.764	0.797	0.599	-0.04
Mof_H 	H 	0.332	0.841	0.786	-0.033
Mof_H 	H 	0.646	0.642	0.06	0.093
Mof_H 	H 	0.729	0.79	0.232	-0.021
Mof_O 	O 	0.8455	0.8768	0.7961	-0.242
Mof_Zn	Zn	0.89762	0.3274	0.39645	1.234
Mof_Zn	Zn	0.61778	0.33428	0.46527	1.237
Mof_Zn	Zn	0.74451	0.49187	0.93349	1.194
Mof_P 	P 	0.73436	0.36274	0.18621	0.512
Mof_P 	P 	0.11558	0.35863	0.41445	0.446
Mof_P 	P 	0.9058	0.13075	0.45211	0.461
Mof_P 	P 	0.78244	0.36853	0.67363	0.469
Mof_O 	O 	0.6603	0.331	0.2751	-0.301
Mof_O 	O 	0.826	0.3805	0.254	-0.426
Mof_O 	O 	0.7079	0.4262	0.0846	-0.337
Mof_O 	O 	0.1169	0.282	0.5028	-0.491
Mof_O 	O 	0.15794	0.43191	0.4883	-0.424
Mof_O 	O 	0.01834	0.38039	0.3651	-0.4
Mof_O 	O 	0.86082	0.0588	0.3731	-0.399
Mof_O 	O 	0.9027	0.20922	0.3667	-0.46
Mof_O 	O 	0.0026	0.1078	0.4979	-0.441
Mof_O 	O 	0.8636	0.361	0.5822	-0.461
Mof_O 	O 	0.6935	0.3912	0.6022	-0.465
Mof_O 	O 	0.8053	0.4289	0.7888	-0.465
Mof_H 	H 	0.736	0.297	0.099	0.012
Mof_H 	H 	0.168	0.341	0.286	-0.015
Mof_H 	H 	0.854	0.142	0.56	-0.087
Mof_H 	H 	0.771	0.29	0.732	-0.083
Mof_O 	O 	0.6545	0.3768	0.2961	-0.192
Mof_Zn	Zn	0.10238	0.6726	0.89645	1.184
Mof_Zn	Zn	0.38222	0.66572	0.96527	1.168
Mof_Zn	Zn	0.25549	0.50813	0.43349	1.242
Mof_P 	P 	0.26564	0.63726	0.68621	0.514
Mof_P 	P 	0.88442	0.64137	0.91445	0.275
Mof_P 	P 	0.0942	0.86925	0.95211	0.277
Mof_P 	P 	0.21756	0.63147	0.17363	0.468
Mof_O 	O 	0.3397	0.669	0.7751	-0.319
Mof_O 	O 	0.174	0.6195	0.754	-0.505
Mof_O 	O 	0.2921	0.5738	0.5846	-0.461
Mof_O 	O 	0.8831	0.718	0.0028	-0.242
Mof_O 	O 	0.84206	0.56809	0.9883	-0.5
Mof_O 	O 	0.98166	0.61961	0.8651	-0.442
Mof_O 	O 	0.13918	0.9412	0.8731	-0.431
Mof_O 	O 	0.0973	0.79078	0.8667	-0.5
Mof_O 	O 	0.9974	0.8922	0.9979	-0.504
Mof_O 	O 	0.1364	0.639	0.0822	-0.341
Mof_O 	O 	0.3065	0.6088	0.1022	-0.349
Mof_O 	O 	0.1947	0.5711	0.2888	-0.401
Mof_H 	H 	0.264	0.703	0.599	-0.04
Mof_H 	H 	0.832	0.659	0.786	-0.034
Mof_H 	H 	0.146	0.858	0.06	0.093
Mof_H 	H 	0.229	0.71	0.232	-0.021
Mof_O 	O 	0.3455	0.6232	0.7961	-0.247
_end
