data_functionalizedCrystal
_audit_creation_method	'EQeq! by Chris Wilmer'
_symmetry_space_group_name_H-M	'P1'
_symmetry_Int_Tables_number	1
_symmetry_cell_setting	triclinic
loop_
_symmetry_equiv_pos_as_xyz
  x,y,z
_cell_length_a	10.1716
_cell_length_b	17.5911
_cell_length_c	17.5911
_cell_angle_alpha	120
_cell_angle_beta	90
_cell_angle_gamma	90
loop_
_atom_site_label
_atom_site_type_symbol
_atom_site_fract_x
_atom_site_fract_y
_atom_site_fract_z
_atom_site_charge
Mof_Zn	Zn	0.86909	0.54333	0.46797	1.171
Mof_Zn	Zn	0.53576	0.92464	0.45667	1.174
Mof_Zn	Zn	0.20242	0.53203	0.07536	1.174
Mof_Zn	Zn	0.36909	0.45667	0.53203	1.173
Mof_Zn	Zn	0.03576	0.07536	0.54333	1.176
Mof_Zn	Zn	0.70242	0.46797	0.92464	1.173
Mof_H 	H 	0.5852	0.4772	0.7789	-0.023
Mof_H 	H 	0.6317	0.5229	0.6782	0.063
Mof_H 	H 	0.9799	0.6101	0.7948	0.07
Mof_H 	H 	0.9277	0.5625	0.8901	-0.041
Mof_H 	H 	0.7914	0.6338	0.653	0.048
Mof_H 	H 	0.9395	0.6148	0.6629	0.045
Mof_H 	H 	0.9654	0.4519	0.6134	0.043
Mof_H 	H 	0.8028	0.3492	0.508	0.126
Mof_H 	H 	0.9421	0.3118	0.5093	0.119
Mof_H 	H 	0.9073	0.3353	0.4367	0.103
Mof_H 	H 	0.7655	0.4855	0.5584	0.102
Mof_H 	H 	0.25187	0.3017	0.5228	-0.021
Mof_H 	H 	0.29837	0.1553	0.4771	0.065
Mof_H 	H 	0.64657	0.1847	0.3899	0.074
Mof_H 	H 	0.59437	0.3276	0.4375	-0.037
Mof_H 	H 	0.45807	0.0192	0.3662	0.05
Mof_H 	H 	0.60617	0.0481	0.3852	0.049
Mof_H 	H 	0.63207	0.1615	0.5481	0.039
Mof_H 	H 	0.46947	0.1588	0.6508	0.135
Mof_H 	H 	0.60877	0.1975	0.6882	0.131
Mof_H 	H 	0.57397	0.1014	0.6647	0.116
Mof_H 	H 	0.43217	0.0729	0.5145	0.102
Mof_H 	H 	0.91853	0.2211	0.6983	-0.002
Mof_H 	H 	0.96503	0.3218	0.8447	0.023
Mof_H 	H 	0.31323	0.2052	0.8153	0.066
Mof_H 	H 	0.26103	0.1099	0.6724	-0.031
Mof_H 	H 	0.12473	0.347	0.9808	0.045
Mof_H 	H 	0.27283	0.3371	0.9519	0.043
Mof_H 	H 	0.29873	0.3866	0.8385	0.038
Mof_H 	H 	0.13613	0.492	0.8412	0.145
Mof_H 	H 	0.27543	0.4907	0.8025	0.139
Mof_H 	H 	0.24063	0.5633	0.8986	0.124
Mof_H 	H 	0.09883	0.4416	0.9271	0.108
Mof_H 	H 	0.0852	0.5228	0.2211	-0.021
Mof_H 	H 	0.1317	0.4771	0.3218	0.066
Mof_H 	H 	0.4799	0.3899	0.2052	0.074
Mof_H 	H 	0.4277	0.4375	0.1099	-0.037
Mof_H 	H 	0.2914	0.3662	0.347	0.051
Mof_H 	H 	0.4395	0.3852	0.3371	0.05
Mof_H 	H 	0.4654	0.5481	0.3866	0.039
Mof_H 	H 	0.3028	0.6508	0.492	0.137
Mof_H 	H 	0.4421	0.6882	0.4907	0.133
Mof_H 	H 	0.4073	0.6647	0.5633	0.117
Mof_H 	H 	0.2655	0.5145	0.4416	0.103
Mof_H 	H 	0.75187	0.6983	0.4772	-0.017
Mof_H 	H 	0.79837	0.8447	0.5229	0.05
Mof_H 	H 	0.14657	0.8153	0.6101	0.059
Mof_H 	H 	0.09437	0.6724	0.5625	-0.031
Mof_H 	H 	0.95807	0.9808	0.6338	0.013
Mof_H 	H 	0.10617	0.9519	0.6148	0.028
Mof_H 	H 	0.13207	0.8385	0.4519	0.051
Mof_H 	H 	0.96947	0.8412	0.3492	0.095
Mof_H 	H 	0.10877	0.8025	0.3118	0.107
Mof_H 	H 	0.07397	0.8986	0.3353	0.093
Mof_H 	H 	0.93217	0.9271	0.4855	0.09
Mof_H 	H 	0.41853	0.7789	0.3017	-0.023
Mof_H 	H 	0.46503	0.6782	0.1553	0.064
Mof_H 	H 	0.81323	0.7948	0.1847	0.072
Mof_H 	H 	0.76103	0.8901	0.3276	-0.037
Mof_H 	H 	0.62473	0.653	0.0192	0.049
Mof_H 	H 	0.77283	0.6629	0.0481	0.048
Mof_H 	H 	0.79873	0.6134	0.1615	0.035
Mof_H 	H 	0.63613	0.508	0.1588	0.136
Mof_H 	H 	0.77543	0.5093	0.1975	0.13
Mof_H 	H 	0.74063	0.4367	0.1014	0.116
Mof_H 	H 	0.59883	0.5584	0.0729	0.102
Mof_C 	C 	0.6656	0.5037	0.7818	0.065
Mof_C 	C 	0.6939	0.5309	0.7203	-0.174
Mof_C 	C 	0.8138	0.5696	0.7225	0.126
Mof_C 	C 	0.8998	0.5823	0.7892	-0.196
Mof_C 	C 	0.8673	0.5543	0.8469	0.09
Mof_C 	C 	0.8515	0.5904	0.6519	-0.159
Mof_C 	C 	0.9448	0.4437	0.5554	-0.054
Mof_C 	C 	0.0694	0.46	0.5159	0.324
Mof_C 	C 	0.8947	0.3517	0.4971	-0.388
Mof_C 	C 	0.33227	0.2781	0.4963	0.066
Mof_C 	C 	0.36057	0.1894	0.4691	-0.174
Mof_C 	C 	0.48047	0.1529	0.4304	0.129
Mof_C 	C 	0.56647	0.2069	0.4177	-0.196
Mof_C 	C 	0.53397	0.2926	0.4457	0.092
Mof_C 	C 	0.51817	0.0615	0.4096	-0.161
Mof_C 	C 	0.61147	0.1117	0.5563	-0.029
Mof_C 	C 	0.73607	0.0559	0.54	0.306
Mof_C 	C 	0.56137	0.1454	0.6483	-0.417
Mof_C 	C 	0.99893	0.2182	0.7219	-0.003
Mof_C 	C 	0.02723	0.2797	0.8106	-0.089
Mof_C 	C 	0.14713	0.2775	0.8471	0.091
Mof_C 	C 	0.23313	0.2108	0.7931	-0.167
Mof_C 	C 	0.20063	0.1531	0.7074	0.075
Mof_C 	C 	0.18483	0.3481	0.9385	-0.138
Mof_C 	C 	0.27813	0.4446	0.8883	-0.02
Mof_C 	C 	0.40273	0.4841	0.9441	0.301
Mof_C 	C 	0.22803	0.5029	0.8546	-0.435
Mof_C 	C 	0.1656	0.4963	0.2182	0.067
Mof_C 	C 	0.1939	0.4691	0.2797	-0.175
Mof_C 	C 	0.3138	0.4304	0.2775	0.13
Mof_C 	C 	0.3998	0.4177	0.2108	-0.197
Mof_C 	C 	0.3673	0.4457	0.1531	0.092
Mof_C 	C 	0.3515	0.4096	0.3481	-0.162
Mof_C 	C 	0.4448	0.5563	0.4446	-0.028
Mof_C 	C 	0.5694	0.54	0.4841	0.304
Mof_C 	C 	0.3947	0.6483	0.5029	-0.42
Mof_C 	C 	0.83227	0.7219	0.5037	0.044
Mof_C 	C 	0.86057	0.8106	0.5309	-0.138
Mof_C 	C 	0.98047	0.8471	0.5696	0.057
Mof_C 	C 	0.06647	0.7931	0.5823	-0.142
Mof_C 	C 	0.03397	0.7074	0.5543	0.085
Mof_C 	C 	0.01817	0.9385	0.5904	-0.076
Mof_C 	C 	0.11147	0.8883	0.4437	-0.059
Mof_C 	C 	0.23607	0.9441	0.46	0.316
Mof_C 	C 	0.06137	0.8546	0.3517	-0.321
Mof_C 	C 	0.49893	0.7818	0.2781	0.066
Mof_C 	C 	0.52723	0.7203	0.1894	-0.174
Mof_C 	C 	0.64713	0.7225	0.1529	0.127
Mof_C 	C 	0.73313	0.7892	0.2069	-0.195
Mof_C 	C 	0.70063	0.8469	0.2926	0.091
Mof_C 	C 	0.68483	0.6519	0.0615	-0.16
Mof_C 	C 	0.77813	0.5554	0.1117	-0.022
Mof_C 	C 	0.90273	0.5159	0.0559	0.283
Mof_C 	C 	0.72803	0.4971	0.1454	-0.422
Mof_N 	N 	0.8467	0.5098	0.5648	-0.266
Mof_N 	N 	0.7517	0.5152	0.8437	-0.281
Mof_N 	N 	0.51337	0.055	0.4902	-0.266
Mof_N 	N 	0.41837	0.3285	0.4848	-0.281
Mof_N 	N 	0.18003	0.4352	0.945	-0.271
Mof_N 	N 	0.08503	0.1563	0.6715	-0.259
Mof_N 	N 	0.3467	0.4902	0.4352	-0.267
Mof_N 	N 	0.2517	0.4848	0.1563	-0.281
Mof_N 	N 	0.01337	0.945	0.5098	-0.259
Mof_N 	N 	0.91837	0.6715	0.5152	-0.283
Mof_N 	N 	0.68003	0.5648	0.055	-0.267
Mof_N 	N 	0.58503	0.8437	0.3285	-0.281
Mof_O 	O 	0.1727	0.4234	0.5254	-0.462
Mof_O 	O 	0.0633	0.5032	0.4778	-0.474
Mof_O 	O 	0.83937	0.102	0.5766	-0.466
Mof_O 	O 	0.72997	0.9746	0.4968	-0.477
Mof_O 	O 	0.50603	0.4746	0.898	-0.461
Mof_O 	O 	0.39663	0.5222	0.0254	-0.474
Mof_O 	O 	0.6727	0.5766	0.4746	-0.462
Mof_O 	O 	0.5633	0.4968	0.5222	-0.476
Mof_O 	O 	0.33937	0.898	0.4234	-0.464
Mof_O 	O 	0.22997	0.0254	0.5032	-0.479
Mof_O 	O 	0.00603	0.5254	0.102	-0.443
Mof_O 	O 	0.89663	0.4778	0.9746	-0.475
_end
