data_functionalizedCrystal
_audit_creation_method	'EQeq! by Chris Wilmer'
_symmetry_space_group_name_H-M	'P1'
_symmetry_Int_Tables_number	1
_symmetry_cell_setting	triclinic
loop_
_symmetry_equiv_pos_as_xyz
  x,y,z
_cell_length_a	9.6673
_cell_length_b	9.6673
_cell_length_c	14.86
_cell_angle_alpha	90
_cell_angle_beta	90
_cell_angle_gamma	120
loop_
_atom_site_label
_atom_site_type_symbol
_atom_site_fract_x
_atom_site_fract_y
_atom_site_fract_z
_atom_site_charge
Mof_P 	P 	0.60843	0.76331	0.2398	0.727
Mof_O 	O 	0.7761	0.7809	0.22678	-0.736
Mof_O 	O 	0.4794	0.6152	0.19288	-0.431
Mof_O 	O 	0.7056	0.6219	0.03767	-0.429
Mof_O 	O 	0.5658	0.7451	0.34208	-0.764
Mof_P 	P 	0.23669	0.84512	0.90647	0.73
Mof_O 	O 	0.2191	0.9952	0.89345	-0.732
Mof_O 	O 	0.3848	0.8642	0.85955	-0.43
Mof_O 	O 	0.3781	0.0837	0.70434	-0.43
Mof_O 	O 	0.2549	0.8207	0.00875	-0.766
Mof_P 	P 	0.15488	0.39157	0.57313	0.728
Mof_O 	O 	0.0048	0.2239	0.56011	-0.734
Mof_O 	O 	0.1358	0.5206	0.52621	-0.43
Mof_O 	O 	0.9163	0.2944	0.371	-0.428
Mof_O 	O 	0.1793	0.4342	0.67541	-0.764
Mof_P 	P 	0.39157	0.23669	0.7398	0.728
Mof_O 	O 	0.2239	0.2191	0.72678	-0.735
Mof_O 	O 	0.5206	0.3848	0.69288	-0.43
Mof_O 	O 	0.2944	0.3781	0.53767	-0.429
Mof_O 	O 	0.4342	0.2549	0.84208	-0.764
Mof_P 	P 	0.76331	0.15488	0.40647	0.728
Mof_O 	O 	0.7809	0.0048	0.39345	-0.734
Mof_O 	O 	0.6152	0.1358	0.35955	-0.43
Mof_O 	O 	0.6219	0.9163	0.20434	-0.43
Mof_O 	O 	0.7451	0.1793	0.50875	-0.764
Mof_P 	P 	0.84512	0.60843	0.07313	0.728
Mof_O 	O 	0.9952	0.7761	0.06011	-0.73
Mof_O 	O 	0.8642	0.4794	0.02621	-0.428
Mof_O 	O 	0.0837	0.7056	0.871	-0.427
Mof_O 	O 	0.8207	0.5658	0.17541	-0.764
Mof_P 	P 	0.76331	0.60843	0.42687	0.728
Mof_O 	O 	0.7809	0.7761	0.43989	-0.734
Mof_O 	O 	0.6152	0.4794	0.47379	-0.43
Mof_O 	O 	0.6219	0.7056	0.629	-0.429
Mof_O 	O 	0.7451	0.5658	0.32459	-0.764
Mof_P 	P 	0.84512	0.23669	0.7602	0.728
Mof_O 	O 	0.9952	0.2191	0.77322	-0.738
Mof_O 	O 	0.8642	0.3848	0.80712	-0.432
Mof_O 	O 	0.0837	0.3781	0.96233	-0.427
Mof_O 	O 	0.8207	0.2549	0.65792	-0.764
Mof_P 	P 	0.39157	0.15488	0.09353	0.728
Mof_O 	O 	0.2239	0.0048	0.10655	-0.733
Mof_O 	O 	0.5206	0.1358	0.14045	-0.429
Mof_O 	O 	0.2944	0.9163	0.29566	-0.43
Mof_O 	O 	0.4342	0.1793	0.99125	-0.765
Mof_P 	P 	0.23669	0.39157	0.92687	0.728
Mof_O 	O 	0.2191	0.2239	0.93989	-0.734
Mof_O 	O 	0.3848	0.5206	0.97379	-0.43
Mof_O 	O 	0.3781	0.2944	0.129	-0.43
Mof_O 	O 	0.2549	0.4342	0.82459	-0.765
Mof_P 	P 	0.15488	0.76331	0.2602	0.728
Mof_O 	O 	0.0048	0.7809	0.27322	-0.737
Mof_O 	O 	0.1358	0.6152	0.30712	-0.431
Mof_O 	O 	0.9163	0.6219	0.46233	-0.429
Mof_O 	O 	0.1793	0.7451	0.15792	-0.763
Mof_P 	P 	0.60843	0.84512	0.59353	0.728
Mof_O 	O 	0.7761	0.9952	0.60655	-0.734
Mof_O 	O 	0.4794	0.8642	0.64045	-0.43
Mof_O 	O 	0.7056	0.0837	0.79566	-0.43
Mof_O 	O 	0.5658	0.8207	0.49125	-0.764
Mof_Zn	Zn	0.48981	0.51019	0.08333	1.246
Mof_Zn	Zn	0.48981	0.97962	0.75	1.246
Mof_Zn	Zn	0.02038	0.51019	0.41667	1.246
Mof_Zn	Zn	0.51019	0.48981	0.58333	1.246
Mof_Zn	Zn	0.51019	0.02038	0.25	1.246
Mof_Zn	Zn	0.97962	0.48981	0.91667	1.244
Mof_B 	B 	0.8361	0.6722	0.25	2.017
Mof_B 	B 	0.3278	0.1639	0.91667	2.012
Mof_B 	B 	0.8361	0.1639	0.58333	2.013
Mof_B 	B 	0.1639	0.3278	0.75	2.018
Mof_B 	B 	0.6722	0.8361	0.41667	2.014
Mof_B 	B 	0.1639	0.8361	0.08333	2.006
_end
