data_functionalizedCrystal
_audit_creation_method	'EQeq! by Chris Wilmer'
_symmetry_space_group_name_H-M	'P1'
_symmetry_Int_Tables_number	1
_symmetry_cell_setting	triclinic
loop_
_symmetry_equiv_pos_as_xyz
  x,y,z
_cell_length_a	8.7097
_cell_length_b	14.0738
_cell_length_c	16.2065
_cell_angle_alpha	114.085
_cell_angle_beta	91.028
_cell_angle_gamma	94.463
loop_
_atom_site_label
_atom_site_type_symbol
_atom_site_fract_x
_atom_site_fract_y
_atom_site_fract_z
_atom_site_charge
Mof_Eu	Eu	0.18541	0.04422	0.43851	1.992
Mof_Eu	Eu	0.81459	0.95578	0.56149	1.992
Mof_H 	H 	0.7194	0.1302	0.3138	0.026
Mof_H 	H 	0.5292	0.1093	0.2037	0.07
Mof_H 	H 	0.7734	0.9057	0.0136	0.064
Mof_H 	H 	0.9731	0.933	0.1224	0.028
Mof_H 	H 	0.9419	0.1691	0.7463	-0.025
Mof_H 	H 	0.9415	0.2871	0.8961	0.075
Mof_H 	H 	0.1666	0.5099	0.8344	0.069
Mof_H 	H 	0.1653	0.3918	0.6844	0.003
Mof_H 	H 	0.2808	0.5579	0.9854	0.07
Mof_H 	H 	0.2159	0.5835	0.0829	0.076
Mof_H 	H 	0.2653	0.33	0.105	0.144
Mof_H 	H 	0.2115	0.4449	0.1567	0.147
Mof_H 	H 	0.1175	0.3632	0.0667	0.148
Mof_H 	H 	0.7049	0.2224	0.5387	-0.015
Mof_H 	H 	0.8978	0.3565	0.5713	0.073
Mof_H 	H 	0.6642	0.4701	0.4188	0.068
Mof_H 	H 	0.4678	0.3373	0.3878	0.019
Mof_H 	H 	0.9777	0.6703	0.579	0.092
Mof_H 	H 	0.8002	0.635	0.5455	0.095
Mof_H 	H 	0.0318	0.6489	0.7866	0.154
Mof_H 	H 	0.0851	0.5894	0.6857	0.163
Mof_H 	H 	0.0789	0.7135	0.7279	0.162
Mof_H 	H 	0.2806	0.8698	0.6862	0.026
Mof_H 	H 	0.4708	0.8907	0.7963	0.07
Mof_H 	H 	0.2266	0.0943	0.9864	0.064
Mof_H 	H 	0.0269	0.067	0.8776	0.028
Mof_H 	H 	0.0581	0.8309	0.2537	-0.025
Mof_H 	H 	0.0585	0.7129	0.1039	0.075
Mof_H 	H 	0.8334	0.4901	0.1656	0.069
Mof_H 	H 	0.8347	0.6082	0.3156	0.003
Mof_H 	H 	0.7192	0.4421	0.0146	0.07
Mof_H 	H 	0.7841	0.4165	0.9171	0.076
Mof_H 	H 	0.7347	0.67	0.895	0.144
Mof_H 	H 	0.7885	0.5551	0.8433	0.147
Mof_H 	H 	0.8825	0.6368	0.9333	0.148
Mof_H 	H 	0.2951	0.7776	0.4613	-0.015
Mof_H 	H 	0.1022	0.6435	0.4287	0.073
Mof_H 	H 	0.3358	0.5299	0.5812	0.068
Mof_H 	H 	0.5322	0.6627	0.6122	0.019
Mof_H 	H 	0.0223	0.3297	0.421	0.092
Mof_H 	H 	0.1998	0.365	0.4545	0.095
Mof_H 	H 	0.9682	0.3511	0.2134	0.154
Mof_H 	H 	0.9149	0.4106	0.3143	0.163
Mof_H 	H 	0.9211	0.2865	0.2721	0.162
Mof_C 	C 	0.9829	0.0434	0.3002	0.323
Mof_C 	C 	0.8624	0.0314	0.229	-0.107
Mof_C 	C 	0.7311	0.0844	0.2526	0.025
Mof_C 	C 	0.6168	0.0707	0.1868	-0.119
Mof_C 	C 	0.6269	0.0028	0.0977	0.064
Mof_C 	C 	0.7622	0.9518	0.0748	-0.112
Mof_C 	C 	0.8812	0.9667	0.1396	0.029
Mof_C 	C 	0.4954	0.9833	0.0306	-0.024
Mof_C 	C 	0.0782	0.1893	0.608	0.429
Mof_C 	C 	0.0584	0.2677	0.701	-0.202
Mof_C 	C 	0.9893	0.2382	0.7644	0.096
Mof_C 	C 	0.9888	0.3082	0.8532	-0.161
Mof_C 	C 	0.058	0.4113	0.8813	0.078
Mof_C 	C 	0.1218	0.4403	0.8171	-0.157
Mof_C 	C 	0.1217	0.37	0.7279	0.087
Mof_C 	C 	0.0626	0.4888	0.9793	-0.012
Mof_C 	C 	0.2236	0.5269	0.0221	-0.174
Mof_C 	C 	0.2202	0.3877	0.0973	-0.431
Mof_C 	C 	0.4402	0.1806	0.4402	0.339
Mof_C 	C 	0.5652	0.2659	0.4605	-0.133
Mof_C 	C 	0.6956	0.273	0.5146	0.07
Mof_C 	C 	0.8109	0.3524	0.5333	-0.137
Mof_C 	C 	0.803	0.4272	0.4976	0.062
Mof_C 	C 	0.6726	0.4199	0.4434	-0.129
Mof_C 	C 	0.5556	0.3409	0.4249	0.049
Mof_C 	C 	0.9307	0.5115	0.5157	-0.003
Mof_C 	C 	0.89	0.6188	0.5741	-0.188
Mof_C 	C 	0.03	0.647	0.726	-0.464
Mof_C 	C 	0.3382	0.9326	0.0491	-0.026
Mof_C 	C 	0.0171	0.9566	0.6998	0.323
Mof_C 	C 	0.1376	0.9686	0.771	-0.107
Mof_C 	C 	0.2689	0.9156	0.7474	0.025
Mof_C 	C 	0.3832	0.9293	0.8132	-0.119
Mof_C 	C 	0.3731	0.9972	0.9023	0.064
Mof_C 	C 	0.2378	0.0482	0.9252	-0.112
Mof_C 	C 	0.1188	0.0333	0.8604	0.029
Mof_C 	C 	0.5046	0.0167	0.9694	-0.024
Mof_C 	C 	0.9218	0.8107	0.392	0.429
Mof_C 	C 	0.9416	0.7323	0.299	-0.202
Mof_C 	C 	0.0107	0.7618	0.2356	0.096
Mof_C 	C 	0.0112	0.6918	0.1468	-0.161
Mof_C 	C 	0.942	0.5887	0.1187	0.078
Mof_C 	C 	0.8782	0.5597	0.1829	-0.157
Mof_C 	C 	0.8783	0.63	0.2721	0.087
Mof_C 	C 	0.9374	0.5112	0.0207	-0.012
Mof_C 	C 	0.7764	0.4731	0.9779	-0.174
Mof_C 	C 	0.7798	0.6123	0.9027	-0.431
Mof_C 	C 	0.5598	0.8194	0.5598	0.339
Mof_C 	C 	0.4348	0.7341	0.5395	-0.133
Mof_C 	C 	0.3044	0.727	0.4854	0.07
Mof_C 	C 	0.1891	0.6476	0.4667	-0.137
Mof_C 	C 	0.197	0.5728	0.5024	0.062
Mof_C 	C 	0.3274	0.5801	0.5566	-0.129
Mof_C 	C 	0.4444	0.6591	0.5751	0.049
Mof_C 	C 	0.0693	0.4885	0.4843	-0.003
Mof_C 	C 	0.11	0.3812	0.4259	-0.188
Mof_C 	C 	0.97	0.353	0.274	-0.464
Mof_C 	C 	0.6618	0.0674	0.9509	-0.026
Mof_S 	S 	0.3346	0.4311	0.034	0.077
Mof_S 	S 	0.845	0.6308	0.6852	0.097
Mof_S 	S 	0.6654	0.5689	0.966	0.077
Mof_S 	S 	0.155	0.3692	0.3148	0.097
Mof_O 	O 	0.9542	0.0935	0.3835	-0.447
Mof_O 	O 	0.1065	0.0017	0.2787	-0.441
Mof_O 	O 	0.0062	0.0976	0.5777	-0.64
Mof_O 	O 	0.1716	0.2136	0.5615	-0.489
Mof_O 	O 	0.3217	0.1764	0.3945	-0.429
Mof_O 	O 	0.4566	0.1118	0.4719	-0.498
Mof_O 	O 	0.0458	0.9065	0.6165	-0.447
Mof_O 	O 	0.8935	0.9983	0.7213	-0.441
Mof_O 	O 	0.9938	0.9024	0.4223	-0.64
Mof_O 	O 	0.8284	0.7864	0.4385	-0.489
Mof_O 	O 	0.6783	0.8236	0.6055	-0.429
Mof_O 	O 	0.5434	0.8882	0.5281	-0.498
_end
