data_functionalizedCrystal
_audit_creation_method	'EQeq! by Chris Wilmer'
_symmetry_space_group_name_H-M	'P1'
_symmetry_Int_Tables_number	1
_symmetry_cell_setting	triclinic
loop_
_symmetry_equiv_pos_as_xyz
  x,y,z
_cell_length_a	27.4719
_cell_length_b	27.4719
_cell_length_c	27.4719
_cell_angle_alpha	90
_cell_angle_beta	90
_cell_angle_gamma	90
loop_
_atom_site_label
_atom_site_type_symbol
_atom_site_fract_x
_atom_site_fract_y
_atom_site_fract_z
_atom_site_charge
Mof_Cu	Cu	0.5	0.20203	-0	0.891
Mof_Cu	Cu	0.5	0.79797	-0	0.893
Mof_Cu	Cu	7.57491e-34	0.5	0.20203	0.891
Mof_Cu	Cu	-1.64888e-32	0.5	0.79797	0.893
Mof_Cu	Cu	0.20203	4.87017e-33	0.5	0.891
Mof_Cu	Cu	0.79797	4.87017e-33	0.5	0.893
Mof_Cu	Cu	0.70203	4.87017e-33	0.5	0.891
Mof_Cu	Cu	0.29797	4.87017e-33	0.5	0.891
Mof_Cu	Cu	3.55229e-33	0.5	0.29797	0.891
Mof_Cu	Cu	-1.19783e-32	0.5	0.70203	0.891
Mof_Cu	Cu	0.5	0.70203	-0	0.891
Mof_Cu	Cu	0.5	0.29797	-0	0.891
Mof_H 	H 	0.3911	0.1779	0.8897	0.034
Mof_H 	H 	0.3312	0.1773	0.8302	0.067
Mof_H 	H 	0.6089	0.8221	0.8897	0.041
Mof_H 	H 	0.6688	0.8227	0.8302	0.073
Mof_H 	H 	0.6089	0.1779	0.1103	0.027
Mof_H 	H 	0.6688	0.1773	0.1698	0.066
Mof_H 	H 	0.3911	0.8221	0.1103	0.032
Mof_H 	H 	0.3312	0.8227	0.1698	0.07
Mof_H 	H 	0.8897	0.3911	0.1779	0.034
Mof_H 	H 	0.8302	0.3312	0.1773	0.067
Mof_H 	H 	0.8897	0.6089	0.8221	0.041
Mof_H 	H 	0.8302	0.6688	0.8227	0.073
Mof_H 	H 	0.1103	0.6089	0.1779	0.027
Mof_H 	H 	0.1698	0.6688	0.1773	0.066
Mof_H 	H 	0.1103	0.3911	0.8221	0.032
Mof_H 	H 	0.1698	0.3312	0.8227	0.07
Mof_H 	H 	0.1779	0.8897	0.3911	0.034
Mof_H 	H 	0.1773	0.8302	0.3312	0.067
Mof_H 	H 	0.8221	0.8897	0.6089	0.041
Mof_H 	H 	0.8227	0.8302	0.6688	0.073
Mof_H 	H 	0.1779	0.1103	0.6089	0.027
Mof_H 	H 	0.1773	0.1698	0.6688	0.066
Mof_H 	H 	0.8221	0.1103	0.3911	0.032
Mof_H 	H 	0.8227	0.1698	0.3312	0.07
Mof_H 	H 	0.6779	0.8911	0.6103	0.039
Mof_H 	H 	0.6773	0.8312	0.6698	0.069
Mof_H 	H 	0.3221	0.1089	0.6103	0.029
Mof_H 	H 	0.3227	0.1688	0.6698	0.069
Mof_H 	H 	0.6779	0.1089	0.3897	0.029
Mof_H 	H 	0.6773	0.1688	0.3302	0.068
Mof_H 	H 	0.3221	0.8911	0.3897	0.037
Mof_H 	H 	0.3227	0.8312	0.3302	0.069
Mof_H 	H 	0.8911	0.3897	0.3221	0.037
Mof_H 	H 	0.8312	0.3302	0.3227	0.069
Mof_H 	H 	0.1089	0.3897	0.6779	0.029
Mof_H 	H 	0.1688	0.3302	0.6773	0.068
Mof_H 	H 	0.1089	0.6103	0.3221	0.029
Mof_H 	H 	0.1688	0.6698	0.3227	0.069
Mof_H 	H 	0.8911	0.6103	0.6779	0.039
Mof_H 	H 	0.8312	0.6698	0.6773	0.069
Mof_H 	H 	0.3897	0.6779	0.1089	0.029
Mof_H 	H 	0.3302	0.6773	0.1688	0.068
Mof_H 	H 	0.3897	0.3221	0.8911	0.037
Mof_H 	H 	0.3302	0.3227	0.8312	0.069
Mof_H 	H 	0.6103	0.6779	0.8911	0.039
Mof_H 	H 	0.6698	0.6773	0.8312	0.069
Mof_H 	H 	0.6103	0.3221	0.1089	0.029
Mof_H 	H 	0.6698	0.3227	0.1688	0.069
Mof_H 	H 	0.6089	0.8221	0.1103	0.033
Mof_H 	H 	0.6688	0.8227	0.1698	0.071
Mof_H 	H 	0.3911	0.1779	0.1103	0.026
Mof_H 	H 	0.3312	0.1773	0.1698	0.065
Mof_H 	H 	0.3911	0.8221	0.8897	0.04
Mof_H 	H 	0.3312	0.8227	0.8302	0.071
Mof_H 	H 	0.6089	0.1779	0.8897	0.035
Mof_H 	H 	0.6688	0.1773	0.8302	0.068
Mof_H 	H 	0.1103	0.6089	0.8221	0.033
Mof_H 	H 	0.1698	0.6688	0.8227	0.071
Mof_H 	H 	0.1103	0.3911	0.1779	0.026
Mof_H 	H 	0.1698	0.3312	0.1773	0.065
Mof_H 	H 	0.8897	0.3911	0.8221	0.04
Mof_H 	H 	0.8302	0.3312	0.8227	0.071
Mof_H 	H 	0.8897	0.6089	0.1779	0.035
Mof_H 	H 	0.8302	0.6688	0.1773	0.068
Mof_H 	H 	0.8221	0.1103	0.6089	0.033
Mof_H 	H 	0.8227	0.1698	0.6688	0.071
Mof_H 	H 	0.1779	0.1103	0.3911	0.026
Mof_H 	H 	0.1773	0.1698	0.3312	0.065
Mof_H 	H 	0.8221	0.8897	0.3911	0.04
Mof_H 	H 	0.8227	0.8302	0.3312	0.071
Mof_H 	H 	0.1779	0.8897	0.6089	0.035
Mof_H 	H 	0.1773	0.8302	0.6688	0.068
Mof_H 	H 	0.3221	0.1089	0.3897	0.029
Mof_H 	H 	0.3227	0.1688	0.3302	0.068
Mof_H 	H 	0.6779	0.8911	0.3897	0.038
Mof_H 	H 	0.6773	0.8312	0.3302	0.069
Mof_H 	H 	0.3221	0.8911	0.6103	0.038
Mof_H 	H 	0.3227	0.8312	0.6698	0.07
Mof_H 	H 	0.6779	0.1089	0.6103	0.03
Mof_H 	H 	0.6773	0.1688	0.6698	0.068
Mof_H 	H 	0.1089	0.6103	0.6779	0.03
Mof_H 	H 	0.1688	0.6698	0.6773	0.068
Mof_H 	H 	0.8911	0.6103	0.3221	0.038
Mof_H 	H 	0.8312	0.6698	0.3227	0.07
Mof_H 	H 	0.8911	0.3897	0.6779	0.038
Mof_H 	H 	0.8312	0.3302	0.6773	0.069
Mof_H 	H 	0.1089	0.3897	0.3221	0.029
Mof_H 	H 	0.1688	0.3302	0.3227	0.068
Mof_H 	H 	0.6103	0.3221	0.8911	0.038
Mof_H 	H 	0.6698	0.3227	0.8312	0.07
Mof_H 	H 	0.6103	0.6779	0.1089	0.03
Mof_H 	H 	0.6698	0.6773	0.1688	0.068
Mof_H 	H 	0.3897	0.3221	0.1089	0.029
Mof_H 	H 	0.3302	0.3227	0.1688	0.068
Mof_H 	H 	0.3897	0.6779	0.8911	0.038
Mof_H 	H 	0.3302	0.6773	0.8312	0.069
Mof_H 	H 	0.3097	0.1903	0.75	0.069
Mof_H 	H 	0.6903	0.8097	0.75	0.074
Mof_H 	H 	0.6903	0.1903	0.25	0.068
Mof_H 	H 	0.3097	0.8097	0.25	0.071
Mof_H 	H 	0.75	0.3097	0.1903	0.069
Mof_H 	H 	0.75	0.6903	0.8097	0.074
Mof_H 	H 	0.25	0.6903	0.1903	0.068
Mof_H 	H 	0.25	0.3097	0.8097	0.071
Mof_H 	H 	0.1903	0.75	0.3097	0.069
Mof_H 	H 	0.8097	0.75	0.6903	0.074
Mof_H 	H 	0.1903	0.25	0.6903	0.068
Mof_H 	H 	0.8097	0.25	0.3097	0.071
Mof_H 	H 	0.6903	0.8097	0.25	0.072
Mof_H 	H 	0.3097	0.1903	0.25	0.067
Mof_H 	H 	0.3097	0.8097	0.75	0.073
Mof_H 	H 	0.6903	0.1903	0.75	0.07
Mof_H 	H 	0.25	0.6903	0.8097	0.072
Mof_H 	H 	0.25	0.3097	0.1903	0.067
Mof_H 	H 	0.75	0.3097	0.8097	0.073
Mof_H 	H 	0.75	0.6903	0.1903	0.07
Mof_H 	H 	0.8097	0.25	0.6903	0.072
Mof_H 	H 	0.1903	0.25	0.3097	0.067
Mof_H 	H 	0.8097	0.75	0.3097	0.073
Mof_H 	H 	0.1903	0.75	0.6903	0.07
Mof_C 	C 	0.3789	0.2072	0.87812	0.035
Mof_C 	C 	0.34282	0.20679	0.84214	-0.105
Mof_C 	C 	0.6211	0.7928	0.87812	0.035
Mof_C 	C 	0.65718	0.79321	0.84214	-0.101
Mof_C 	C 	0.6211	0.2072	0.12188	0.04
Mof_C 	C 	0.65718	0.20679	0.15786	-0.112
Mof_C 	C 	0.3789	0.7928	0.12188	0.039
Mof_C 	C 	0.34282	0.79321	0.15786	-0.11
Mof_C 	C 	0.87812	0.3789	0.2072	0.035
Mof_C 	C 	0.84214	0.34282	0.20679	-0.105
Mof_C 	C 	0.87812	0.6211	0.7928	0.035
Mof_C 	C 	0.84214	0.65718	0.79321	-0.101
Mof_C 	C 	0.12188	0.6211	0.2072	0.04
Mof_C 	C 	0.15786	0.65718	0.20679	-0.112
Mof_C 	C 	0.12188	0.3789	0.7928	0.039
Mof_C 	C 	0.15786	0.34282	0.79321	-0.11
Mof_C 	C 	0.2072	0.87812	0.3789	0.035
Mof_C 	C 	0.20679	0.84214	0.34282	-0.105
Mof_C 	C 	0.7928	0.87812	0.6211	0.035
Mof_C 	C 	0.79321	0.84214	0.65718	-0.101
Mof_C 	C 	0.2072	0.12188	0.6211	0.04
Mof_C 	C 	0.20679	0.15786	0.65718	-0.112
Mof_C 	C 	0.7928	0.12188	0.3789	0.039
Mof_C 	C 	0.79321	0.15786	0.34282	-0.11
Mof_C 	C 	0.7072	0.8789	0.62188	0.035
Mof_C 	C 	0.70679	0.84282	0.65786	-0.102
Mof_C 	C 	0.2928	0.1211	0.62188	0.04
Mof_C 	C 	0.29321	0.15718	0.65786	-0.112
Mof_C 	C 	0.7072	0.1211	0.37812	0.039
Mof_C 	C 	0.70679	0.15718	0.34214	-0.111
Mof_C 	C 	0.2928	0.8789	0.37812	0.036
Mof_C 	C 	0.29321	0.84282	0.34214	-0.105
Mof_C 	C 	0.8789	0.37812	0.2928	0.036
Mof_C 	C 	0.84282	0.34214	0.29321	-0.105
Mof_C 	C 	0.1211	0.37812	0.7072	0.039
Mof_C 	C 	0.15718	0.34214	0.70679	-0.111
Mof_C 	C 	0.1211	0.62188	0.2928	0.04
Mof_C 	C 	0.15718	0.65786	0.29321	-0.112
Mof_C 	C 	0.8789	0.62188	0.7072	0.035
Mof_C 	C 	0.84282	0.65786	0.70679	-0.102
Mof_C 	C 	0.37812	0.7072	0.1211	0.039
Mof_C 	C 	0.34214	0.70679	0.15718	-0.111
Mof_C 	C 	0.37812	0.2928	0.8789	0.036
Mof_C 	C 	0.34214	0.29321	0.84282	-0.105
Mof_C 	C 	0.62188	0.7072	0.8789	0.035
Mof_C 	C 	0.65786	0.70679	0.84282	-0.102
Mof_C 	C 	0.62188	0.2928	0.1211	0.04
Mof_C 	C 	0.65786	0.29321	0.15718	-0.112
Mof_C 	C 	0.6211	0.7928	0.12188	0.04
Mof_C 	C 	0.65718	0.79321	0.15786	-0.109
Mof_C 	C 	0.3789	0.2072	0.12188	0.04
Mof_C 	C 	0.34282	0.20679	0.15786	-0.113
Mof_C 	C 	0.3789	0.7928	0.87812	0.035
Mof_C 	C 	0.34282	0.79321	0.84214	-0.102
Mof_C 	C 	0.6211	0.2072	0.87812	0.036
Mof_C 	C 	0.65718	0.20679	0.84214	-0.104
Mof_C 	C 	0.12188	0.6211	0.7928	0.04
Mof_C 	C 	0.15786	0.65718	0.79321	-0.109
Mof_C 	C 	0.12188	0.3789	0.2072	0.04
Mof_C 	C 	0.15786	0.34282	0.20679	-0.113
Mof_C 	C 	0.87812	0.3789	0.7928	0.035
Mof_C 	C 	0.84214	0.34282	0.79321	-0.102
Mof_C 	C 	0.87812	0.6211	0.2072	0.036
Mof_C 	C 	0.84214	0.65718	0.20679	-0.104
Mof_C 	C 	0.7928	0.12188	0.6211	0.04
Mof_C 	C 	0.79321	0.15786	0.65718	-0.109
Mof_C 	C 	0.2072	0.12188	0.3789	0.04
Mof_C 	C 	0.20679	0.15786	0.34282	-0.113
Mof_C 	C 	0.7928	0.87812	0.3789	0.035
Mof_C 	C 	0.79321	0.84214	0.34282	-0.102
Mof_C 	C 	0.2072	0.87812	0.6211	0.036
Mof_C 	C 	0.20679	0.84214	0.65718	-0.104
Mof_C 	C 	0.2928	0.1211	0.37812	0.04
Mof_C 	C 	0.29321	0.15718	0.34214	-0.113
Mof_C 	C 	0.7072	0.8789	0.37812	0.035
Mof_C 	C 	0.70679	0.84282	0.34214	-0.103
Mof_C 	C 	0.2928	0.8789	0.62188	0.036
Mof_C 	C 	0.29321	0.84282	0.65786	-0.104
Mof_C 	C 	0.7072	0.1211	0.62188	0.039
Mof_C 	C 	0.70679	0.15718	0.65786	-0.11
Mof_C 	C 	0.1211	0.62188	0.7072	0.039
Mof_C 	C 	0.15718	0.65786	0.70679	-0.11
Mof_C 	C 	0.8789	0.62188	0.2928	0.036
Mof_C 	C 	0.84282	0.65786	0.29321	-0.104
Mof_C 	C 	0.8789	0.37812	0.7072	0.035
Mof_C 	C 	0.84282	0.34214	0.70679	-0.103
Mof_C 	C 	0.1211	0.37812	0.2928	0.04
Mof_C 	C 	0.15718	0.34214	0.29321	-0.113
Mof_C 	C 	0.62188	0.2928	0.8789	0.036
Mof_C 	C 	0.65786	0.29321	0.84282	-0.104
Mof_C 	C 	0.62188	0.7072	0.1211	0.039
Mof_C 	C 	0.65786	0.70679	0.15718	-0.11
Mof_C 	C 	0.37812	0.2928	0.1211	0.04
Mof_C 	C 	0.34214	0.29321	0.15718	-0.113
Mof_C 	C 	0.37812	0.7072	0.8789	0.035
Mof_C 	C 	0.34214	0.70679	0.84282	-0.103
Mof_C 	C 	0.43559	0.25	0.93559	0.364
Mof_C 	C 	0.39645	0.25	0.89645	-0.102
Mof_C 	C 	0.32436	0.25	0.82436	0.042
Mof_C 	C 	0.28593	0.25	0.78593	0.046
Mof_C 	C 	0.56441	0.75	0.93559	0.363
Mof_C 	C 	0.60355	0.75	0.89645	-0.098
Mof_C 	C 	0.67564	0.75	0.82436	0.042
Mof_C 	C 	0.71407	0.75	0.78593	0.052
Mof_C 	C 	0.56441	0.25	0.06441	0.367
Mof_C 	C 	0.60355	0.25	0.10355	-0.113
Mof_C 	C 	0.67564	0.25	0.17564	0.045
Mof_C 	C 	0.71407	0.25	0.21407	0.043
Mof_C 	C 	0.43559	0.75	0.06441	0.366
Mof_C 	C 	0.39645	0.75	0.10355	-0.111
Mof_C 	C 	0.32436	0.75	0.17564	0.045
Mof_C 	C 	0.28593	0.75	0.21407	0.044
Mof_C 	C 	0.93559	0.43559	0.25	0.364
Mof_C 	C 	0.89645	0.39645	0.25	-0.102
Mof_C 	C 	0.82436	0.32436	0.25	0.042
Mof_C 	C 	0.78593	0.28593	0.25	0.046
Mof_C 	C 	0.93559	0.56441	0.75	0.363
Mof_C 	C 	0.89645	0.60355	0.75	-0.098
Mof_C 	C 	0.82436	0.67564	0.75	0.042
Mof_C 	C 	0.78593	0.71407	0.75	0.052
Mof_C 	C 	0.06441	0.56441	0.25	0.367
Mof_C 	C 	0.10355	0.60355	0.25	-0.113
Mof_C 	C 	0.17564	0.67564	0.25	0.045
Mof_C 	C 	0.21407	0.71407	0.25	0.043
Mof_C 	C 	0.06441	0.43559	0.75	0.366
Mof_C 	C 	0.10355	0.39645	0.75	-0.111
Mof_C 	C 	0.17564	0.32436	0.75	0.045
Mof_C 	C 	0.21407	0.28593	0.75	0.044
Mof_C 	C 	0.25	0.93559	0.43559	0.364
Mof_C 	C 	0.25	0.89645	0.39645	-0.102
Mof_C 	C 	0.25	0.82436	0.32436	0.042
Mof_C 	C 	0.25	0.78593	0.28593	0.046
Mof_C 	C 	0.75	0.93559	0.56441	0.363
Mof_C 	C 	0.75	0.89645	0.60355	-0.098
Mof_C 	C 	0.75	0.82436	0.67564	0.042
Mof_C 	C 	0.75	0.78593	0.71407	0.052
Mof_C 	C 	0.25	0.06441	0.56441	0.367
Mof_C 	C 	0.25	0.10355	0.60355	-0.113
Mof_C 	C 	0.25	0.17564	0.67564	0.045
Mof_C 	C 	0.25	0.21407	0.71407	0.043
Mof_C 	C 	0.75	0.06441	0.43559	0.366
Mof_C 	C 	0.75	0.10355	0.39645	-0.111
Mof_C 	C 	0.75	0.17564	0.32436	0.045
Mof_C 	C 	0.75	0.21407	0.28593	0.044
Mof_C 	C 	0.56441	0.75	0.06441	0.367
Mof_C 	C 	0.60355	0.75	0.10355	-0.11
Mof_C 	C 	0.67564	0.75	0.17564	0.045
Mof_C 	C 	0.71407	0.75	0.21407	0.047
Mof_C 	C 	0.43559	0.25	0.06441	0.367
Mof_C 	C 	0.39645	0.25	0.10355	-0.114
Mof_C 	C 	0.32436	0.25	0.17564	0.045
Mof_C 	C 	0.28593	0.25	0.21407	0.041
Mof_C 	C 	0.43559	0.75	0.93559	0.363
Mof_C 	C 	0.39645	0.75	0.89645	-0.099
Mof_C 	C 	0.32436	0.75	0.82436	0.042
Mof_C 	C 	0.28593	0.75	0.78593	0.049
Mof_C 	C 	0.56441	0.25	0.93559	0.364
Mof_C 	C 	0.60355	0.25	0.89645	-0.101
Mof_C 	C 	0.67564	0.25	0.82436	0.042
Mof_C 	C 	0.71407	0.25	0.78593	0.048
Mof_C 	C 	0.06441	0.56441	0.75	0.367
Mof_C 	C 	0.10355	0.60355	0.75	-0.11
Mof_C 	C 	0.17564	0.67564	0.75	0.045
Mof_C 	C 	0.21407	0.71407	0.75	0.047
Mof_C 	C 	0.06441	0.43559	0.25	0.367
Mof_C 	C 	0.10355	0.39645	0.25	-0.114
Mof_C 	C 	0.17564	0.32436	0.25	0.045
Mof_C 	C 	0.21407	0.28593	0.25	0.041
Mof_C 	C 	0.93559	0.43559	0.75	0.363
Mof_C 	C 	0.89645	0.39645	0.75	-0.099
Mof_C 	C 	0.82436	0.32436	0.75	0.042
Mof_C 	C 	0.78593	0.28593	0.75	0.049
Mof_C 	C 	0.93559	0.56441	0.25	0.364
Mof_C 	C 	0.89645	0.60355	0.25	-0.101
Mof_C 	C 	0.82436	0.67564	0.25	0.042
Mof_C 	C 	0.78593	0.71407	0.25	0.048
Mof_C 	C 	0.75	0.06441	0.56441	0.367
Mof_C 	C 	0.75	0.10355	0.60355	-0.11
Mof_C 	C 	0.75	0.17564	0.67564	0.045
Mof_C 	C 	0.75	0.21407	0.71407	0.047
Mof_C 	C 	0.25	0.06441	0.43559	0.367
Mof_C 	C 	0.25	0.10355	0.39645	-0.114
Mof_C 	C 	0.25	0.17564	0.32436	0.045
Mof_C 	C 	0.25	0.21407	0.28593	0.041
Mof_C 	C 	0.75	0.93559	0.43559	0.363
Mof_C 	C 	0.75	0.89645	0.39645	-0.099
Mof_C 	C 	0.75	0.82436	0.32436	0.042
Mof_C 	C 	0.75	0.78593	0.28593	0.049
Mof_C 	C 	0.25	0.93559	0.56441	0.364
Mof_C 	C 	0.25	0.89645	0.60355	-0.101
Mof_C 	C 	0.25	0.82436	0.67564	0.042
Mof_C 	C 	0.25	0.78593	0.71407	0.048
Mof_C 	C 	0.2858	0.2142	0.75	-0.113
Mof_C 	C 	0.7142	0.7858	0.75	-0.116
Mof_C 	C 	0.7142	0.2142	0.25	-0.113
Mof_C 	C 	0.2858	0.7858	0.25	-0.113
Mof_C 	C 	0.75	0.2858	0.2142	-0.113
Mof_C 	C 	0.75	0.7142	0.7858	-0.116
Mof_C 	C 	0.25	0.7142	0.2142	-0.113
Mof_C 	C 	0.25	0.2858	0.7858	-0.113
Mof_C 	C 	0.2142	0.75	0.2858	-0.113
Mof_C 	C 	0.7858	0.75	0.7142	-0.116
Mof_C 	C 	0.2142	0.25	0.7142	-0.113
Mof_C 	C 	0.7858	0.25	0.2858	-0.113
Mof_C 	C 	0.7142	0.7858	0.25	-0.115
Mof_C 	C 	0.2858	0.2142	0.25	-0.112
Mof_C 	C 	0.2858	0.7858	0.75	-0.115
Mof_C 	C 	0.7142	0.2142	0.75	-0.114
Mof_C 	C 	0.25	0.7142	0.7858	-0.115
Mof_C 	C 	0.25	0.2858	0.2142	-0.112
Mof_C 	C 	0.75	0.2858	0.7858	-0.115
Mof_C 	C 	0.75	0.7142	0.2142	-0.114
Mof_C 	C 	0.7858	0.25	0.7142	-0.115
Mof_C 	C 	0.2142	0.25	0.2858	-0.112
Mof_C 	C 	0.7858	0.75	0.2858	-0.115
Mof_C 	C 	0.2142	0.75	0.7142	-0.114
Mof_O 	O 	0.44994	0.20914	0.94983	-0.4
Mof_O 	O 	0.55006	0.79086	0.94983	-0.395
Mof_O 	O 	0.55006	0.20914	0.05017	-0.421
Mof_O 	O 	0.44994	0.79086	0.05017	-0.417
Mof_O 	O 	0.94983	0.44994	0.20914	-0.4
Mof_O 	O 	0.94983	0.55006	0.79086	-0.395
Mof_O 	O 	0.05017	0.55006	0.20914	-0.421
Mof_O 	O 	0.05017	0.44994	0.79086	-0.417
Mof_O 	O 	0.20914	0.94983	0.44994	-0.4
Mof_O 	O 	0.79086	0.94983	0.55006	-0.395
Mof_O 	O 	0.20914	0.05017	0.55006	-0.421
Mof_O 	O 	0.79086	0.05017	0.44994	-0.417
Mof_O 	O 	0.70914	0.94994	0.55017	-0.397
Mof_O 	O 	0.29086	0.05006	0.55017	-0.419
Mof_O 	O 	0.70914	0.05006	0.44983	-0.419
Mof_O 	O 	0.29086	0.94994	0.44983	-0.398
Mof_O 	O 	0.94994	0.44983	0.29086	-0.398
Mof_O 	O 	0.05006	0.44983	0.70914	-0.419
Mof_O 	O 	0.05006	0.55017	0.29086	-0.419
Mof_O 	O 	0.94994	0.55017	0.70914	-0.397
Mof_O 	O 	0.44983	0.70914	0.05006	-0.419
Mof_O 	O 	0.44983	0.29086	0.94994	-0.398
Mof_O 	O 	0.55017	0.70914	0.94994	-0.397
Mof_O 	O 	0.55017	0.29086	0.05006	-0.419
Mof_O 	O 	0.55006	0.79086	0.05017	-0.417
Mof_O 	O 	0.44994	0.20914	0.05017	-0.422
Mof_O 	O 	0.44994	0.79086	0.94983	-0.395
Mof_O 	O 	0.55006	0.20914	0.94983	-0.399
Mof_O 	O 	0.05017	0.55006	0.79086	-0.417
Mof_O 	O 	0.05017	0.44994	0.20914	-0.422
Mof_O 	O 	0.94983	0.44994	0.79086	-0.395
Mof_O 	O 	0.94983	0.55006	0.20914	-0.399
Mof_O 	O 	0.79086	0.05017	0.55006	-0.417
Mof_O 	O 	0.20914	0.05017	0.44994	-0.422
Mof_O 	O 	0.79086	0.94983	0.44994	-0.395
Mof_O 	O 	0.20914	0.94983	0.55006	-0.399
Mof_O 	O 	0.29086	0.05006	0.44983	-0.42
Mof_O 	O 	0.70914	0.94994	0.44983	-0.397
Mof_O 	O 	0.29086	0.94994	0.55017	-0.397
Mof_O 	O 	0.70914	0.05006	0.55017	-0.419
Mof_O 	O 	0.05006	0.55017	0.70914	-0.419
Mof_O 	O 	0.94994	0.55017	0.29086	-0.397
Mof_O 	O 	0.94994	0.44983	0.70914	-0.397
Mof_O 	O 	0.05006	0.44983	0.29086	-0.42
Mof_O 	O 	0.55017	0.29086	0.94994	-0.397
Mof_O 	O 	0.55017	0.70914	0.05006	-0.419
Mof_O 	O 	0.44983	0.29086	0.05006	-0.42
Mof_O 	O 	0.44983	0.70914	0.94994	-0.397
_end
