data_functionalizedCrystal
_audit_creation_method	'EQeq! by Chris Wilmer'
_symmetry_space_group_name_H-M	'P1'
_symmetry_Int_Tables_number	1
_symmetry_cell_setting	triclinic
loop_
_symmetry_equiv_pos_as_xyz
  x,y,z
_cell_length_a	13.6817
_cell_length_b	27.123
_cell_length_c	45.995
_cell_angle_alpha	90
_cell_angle_beta	90
_cell_angle_gamma	90
loop_
_atom_site_label
_atom_site_type_symbol
_atom_site_fract_x
_atom_site_fract_y
_atom_site_fract_z
_atom_site_charge
Mof_Zn	Zn	0.85934	0.9518	0.92964	1.163
Mof_Zn	Zn	0.64566	0.96672	0.0937	1.164
Mof_Zn	Zn	0.84403	0.7509	0.18902	1.164
Mof_Zn	Zn	0.14066	0.5482	0.42964	1.163
Mof_Zn	Zn	0.35434	0.53328	0.5937	1.164
Mof_Zn	Zn	0.15597	0.7491	0.68902	1.164
Mof_Zn	Zn	0.35934	0.0482	0.57036	1.163
Mof_Zn	Zn	0.14566	0.03328	0.4063	1.164
Mof_Zn	Zn	0.34403	0.2491	0.31098	1.164
Mof_Zn	Zn	0.64066	0.4518	0.07036	1.163
Mof_Zn	Zn	0.85434	0.46672	0.9063	1.164
Mof_Zn	Zn	0.65597	0.2509	0.81098	1.164
Mof_H 	H 	0.8067	0.8065	0.1341	-0.007
Mof_H 	H 	0.8905	0.8419	0.0959	0.079
Mof_H 	H 	0.0539	0.7717	0.1733	-0.012
Mof_H 	H 	0.1442	0.8067	0.136	0.072
Mof_H 	H 	0.4707	0.9355	0.1271	-0.01
Mof_H 	H 	0.3134	0.9061	0.1201	0.094
Mof_H 	H 	0.523	0.9308	0.0429	-0.007
Mof_H 	H 	0.3654	0.9034	0.0336	0.081
Mof_H 	H 	0.0536	0.9697	0.9592	-0.002
Mof_H 	H 	0.1416	0.9434	0.9992	0.082
Mof_H 	H 	0.8205	0.8963	0.9849	-0.007
Mof_H 	H 	0.9029	0.8664	0.0256	0.077
Mof_H 	H 	0.9271	0.9226	0.8698	-0.008
Mof_H 	H 	0.9499	0.8533	0.8416	0.079
Mof_H 	H 	0.8581	0.841	0.9378	-0.015
Mof_H 	H 	0.8842	0.7694	0.9118	0.078
Mof_H 	H 	0.8822	0.5711	0.9259	-0.009
Mof_H 	H 	0.9081	0.6491	0.9071	0.079
Mof_H 	H 	0.9162	0.5107	0.8488	-0.007
Mof_H 	H 	0.9448	0.5865	0.8277	0.08
Mof_H 	H 	0.0865	0.6676	0.7271	-0.008
Mof_H 	H 	0.028	0.6559	0.774	0.079
Mof_H 	H 	0.0432	0.8108	0.7324	0.001
Mof_H 	H 	0.9853	0.8032	0.7795	0.081
Mof_H 	H 	0.1933	0.6935	0.6341	-0.007
Mof_H 	H 	0.1095	0.6581	0.5959	0.078
Mof_H 	H 	0.9461	0.7283	0.6733	-0.012
Mof_H 	H 	0.8558	0.6933	0.636	0.071
Mof_H 	H 	0.5293	0.5645	0.6271	-0.01
Mof_H 	H 	0.6866	0.5939	0.6201	0.094
Mof_H 	H 	0.477	0.5692	0.5429	-0.007
Mof_H 	H 	0.6346	0.5966	0.5336	0.081
Mof_H 	H 	0.9464	0.5303	0.4592	-0.002
Mof_H 	H 	0.8584	0.5566	0.4992	0.081
Mof_H 	H 	0.1795	0.6037	0.4849	-0.007
Mof_H 	H 	0.0971	0.6336	0.5256	0.077
Mof_H 	H 	0.0729	0.5774	0.3698	-0.008
Mof_H 	H 	0.0501	0.6467	0.3416	0.079
Mof_H 	H 	0.1419	0.659	0.4378	-0.015
Mof_H 	H 	0.1158	0.7306	0.4118	0.078
Mof_H 	H 	0.1178	0.9289	0.4259	-0.008
Mof_H 	H 	0.0919	0.8509	0.4071	0.079
Mof_H 	H 	0.0838	0.9893	0.3488	-0.007
Mof_H 	H 	0.0552	0.9135	0.3277	0.081
Mof_H 	H 	0.9135	0.8324	0.2271	-0.008
Mof_H 	H 	0.972	0.8441	0.274	0.079
Mof_H 	H 	0.9568	0.6892	0.2324	0.001
Mof_H 	H 	0.0147	0.6968	0.2795	0.081
Mof_H 	H 	0.3067	0.1935	0.3659	-0.007
Mof_H 	H 	0.3905	0.1581	0.4041	0.078
Mof_H 	H 	0.5539	0.2283	0.3267	-0.012
Mof_H 	H 	0.6442	0.1933	0.364	0.072
Mof_H 	H 	0.9707	0.0645	0.3729	-0.01
Mof_H 	H 	0.8134	0.0939	0.3799	0.094
Mof_H 	H 	0.023	0.0692	0.4571	-0.008
Mof_H 	H 	0.8654	0.0966	0.4664	0.082
Mof_H 	H 	0.5536	0.0303	0.5408	-0.002
Mof_H 	H 	0.6416	0.0566	0.5008	0.081
Mof_H 	H 	0.3205	0.1037	0.5151	-0.007
Mof_H 	H 	0.4029	0.1336	0.4744	0.077
Mof_H 	H 	0.4271	0.0774	0.6302	-0.008
Mof_H 	H 	0.4499	0.1467	0.6584	0.079
Mof_H 	H 	0.3581	0.159	0.5622	-0.015
Mof_H 	H 	0.3842	0.2306	0.5882	0.078
Mof_H 	H 	0.3822	0.4289	0.5741	-0.009
Mof_H 	H 	0.4081	0.3509	0.5929	0.079
Mof_H 	H 	0.4162	0.4893	0.6512	-0.007
Mof_H 	H 	0.4448	0.4135	0.6723	0.08
Mof_H 	H 	0.5865	0.3324	0.7729	-0.008
Mof_H 	H 	0.528	0.3441	0.726	0.079
Mof_H 	H 	0.5432	0.1892	0.7676	0.001
Mof_H 	H 	0.4853	0.1968	0.7205	0.081
Mof_H 	H 	0.6933	0.3065	0.8659	-0.007
Mof_H 	H 	0.6095	0.3419	0.9041	0.078
Mof_H 	H 	0.4461	0.2717	0.8267	-0.012
Mof_H 	H 	0.3558	0.3067	0.864	0.072
Mof_H 	H 	0.0293	0.4355	0.8729	-0.01
Mof_H 	H 	0.1866	0.4061	0.8799	0.094
Mof_H 	H 	0.977	0.4308	0.9571	-0.007
Mof_H 	H 	0.1346	0.4034	0.9664	0.081
Mof_H 	H 	0.4464	0.4697	0.0408	-0.002
Mof_H 	H 	0.3584	0.4434	0.0008	0.081
Mof_H 	H 	0.6795	0.3963	0.0151	-0.007
Mof_H 	H 	0.5971	0.3664	0.9744	0.077
Mof_H 	H 	0.5729	0.4226	0.1302	-0.008
Mof_H 	H 	0.5501	0.3533	0.1584	0.079
Mof_H 	H 	0.6419	0.341	0.0622	-0.015
Mof_H 	H 	0.6158	0.2694	0.0882	0.078
Mof_H 	H 	0.6178	0.0711	0.0741	-0.008
Mof_H 	H 	0.5919	0.1491	0.0929	0.079
Mof_H 	H 	0.5838	0.0107	0.1512	-0.007
Mof_H 	H 	0.5552	0.0865	0.1723	0.08
Mof_H 	H 	0.4135	0.1676	0.2729	-0.008
Mof_H 	H 	0.472	0.1559	0.226	0.079
Mof_H 	H 	0.4568	0.3108	0.2676	0.001
Mof_H 	H 	0.5147	0.3032	0.2205	0.081
Mof_C 	C 	0.8761	0.80638	0.13438	0.066
Mof_C 	C 	0.9255	0.82756	0.11158	-0.109
Mof_C 	C 	0.0206	0.78609	0.15728	0.065
Mof_C 	C 	0.0748	0.80682	0.13518	-0.113
Mof_C 	C 	0.0269	0.82783	0.11166	0.055
Mof_C 	C 	0.0823	0.85088	0.08767	0.107
Mof_C 	C 	0.4488	0.92875	0.10787	0.073
Mof_C 	C 	0.355	0.91141	0.10385	-0.124
Mof_C 	C 	0.4791	0.92631	0.05869	0.071
Mof_C 	C 	0.3857	0.90957	0.05301	-0.118
Mof_C 	C 	0.322	0.90183	0.07589	0.052
Mof_C 	C 	0.2203	0.8856	0.07088	0.095
Mof_C 	C 	0.023	0.94839	0.97282	0.064
Mof_C 	C 	0.076	0.9328	0.99651	-0.117
Mof_C 	C 	0.8869	0.90539	0.98778	0.063
Mof_C 	C 	0.9353	0.88753	0.01217	-0.108
Mof_C 	C 	0.0317	0.90112	0.01652	0.047
Mof_C 	C 	0.0857	0.88441	0.04289	0.101
Mof_C 	C 	0.917	0.89103	0.87822	0.06
Mof_C 	C 	0.9317	0.84991	0.86139	-0.113
Mof_C 	C 	0.8774	0.84327	0.91798	0.067
Mof_C 	C 	0.8925	0.80049	0.90261	-0.116
Mof_C 	C 	0.9199	0.80322	0.87354	0.049
Mof_C 	C 	0.9356	0.7585	0.85594	0.103
Mof_C 	C 	0.8937	0.57465	0.90562	0.066
Mof_C 	C 	0.9093	0.62119	0.89465	-0.113
Mof_C 	C 	0.9138	0.53937	0.86058	0.068
Mof_C 	C 	0.9307	0.58425	0.8479	-0.115
Mof_C 	C 	0.927	0.62664	0.865	0.05
Mof_C 	C 	0.9391	0.676	0.8519	0.101
Mof_C 	C 	0.0667	0.69543	0.73814	0.06
Mof_C 	C 	0.032	0.68812	0.76606	-0.113
Mof_C 	C 	0.0417	0.77911	0.74124	0.063
Mof_C 	C 	0.0068	0.77488	0.76921	-0.112
Mof_C 	C 	0.0033	0.72884	0.78217	0.049
Mof_C 	C 	0.9732	0.72337	0.81294	0.103
Mof_C 	C 	0.1239	0.69362	0.63438	0.065
Mof_C 	C 	0.0745	0.67244	0.61158	-0.107
Mof_C 	C 	0.9794	0.71391	0.65728	0.064
Mof_C 	C 	0.9252	0.69318	0.63518	-0.112
Mof_C 	C 	0.9731	0.67217	0.61166	0.053
Mof_C 	C 	0.9177	0.64912	0.58767	0.107
Mof_C 	C 	0.5512	0.57125	0.60787	0.073
Mof_C 	C 	0.645	0.58859	0.60385	-0.124
Mof_C 	C 	0.5209	0.57369	0.55869	0.071
Mof_C 	C 	0.6143	0.59043	0.55301	-0.118
Mof_C 	C 	0.678	0.59817	0.57589	0.052
Mof_C 	C 	0.7797	0.6144	0.57088	0.095
Mof_C 	C 	0.977	0.55161	0.47282	0.062
Mof_C 	C 	0.924	0.5672	0.49651	-0.116
Mof_C 	C 	0.1131	0.59461	0.48778	0.063
Mof_C 	C 	0.0647	0.61247	0.51217	-0.107
Mof_C 	C 	0.9683	0.59888	0.51652	0.046
Mof_C 	C 	0.9143	0.61559	0.54289	0.101
Mof_C 	C 	0.083	0.60897	0.37822	0.06
Mof_C 	C 	0.0683	0.65009	0.36139	-0.113
Mof_C 	C 	0.1226	0.65673	0.41798	0.067
Mof_C 	C 	0.1075	0.69951	0.40261	-0.116
Mof_C 	C 	0.0801	0.69678	0.37354	0.049
Mof_C 	C 	0.0644	0.7415	0.35594	0.103
Mof_C 	C 	0.1063	0.92535	0.40562	0.066
Mof_C 	C 	0.0907	0.87881	0.39465	-0.113
Mof_C 	C 	0.0862	0.96063	0.36058	0.068
Mof_C 	C 	0.0693	0.91575	0.3479	-0.115
Mof_C 	C 	0.073	0.87336	0.365	0.05
Mof_C 	C 	0.0609	0.824	0.3519	0.102
Mof_C 	C 	0.9333	0.80457	0.23814	0.06
Mof_C 	C 	0.968	0.81188	0.26606	-0.113
Mof_C 	C 	0.9583	0.72089	0.24124	0.064
Mof_C 	C 	0.9932	0.72512	0.26921	-0.113
Mof_C 	C 	0.9967	0.77116	0.28217	0.049
Mof_C 	C 	0.0268	0.77663	0.31294	0.103
Mof_C 	C 	0.3761	0.19362	0.36562	0.065
Mof_C 	C 	0.4255	0.17244	0.38842	-0.108
Mof_C 	C 	0.5206	0.21391	0.34272	0.064
Mof_C 	C 	0.5748	0.19318	0.36482	-0.112
Mof_C 	C 	0.5269	0.17217	0.38834	0.054
Mof_C 	C 	0.5823	0.14912	0.41233	0.107
Mof_C 	C 	0.9488	0.07125	0.39213	0.074
Mof_C 	C 	0.855	0.08859	0.39615	-0.125
Mof_C 	C 	0.9791	0.07369	0.44131	0.073
Mof_C 	C 	0.8857	0.09043	0.44699	-0.119
Mof_C 	C 	0.822	0.09817	0.42411	0.053
Mof_C 	C 	0.7203	0.1144	0.42912	0.095
Mof_C 	C 	0.523	0.05161	0.52718	0.063
Mof_C 	C 	0.576	0.0672	0.50349	-0.117
Mof_C 	C 	0.3869	0.09461	0.51222	0.063
Mof_C 	C 	0.4353	0.11247	0.48783	-0.107
Mof_C 	C 	0.5317	0.09888	0.48348	0.046
Mof_C 	C 	0.5857	0.11559	0.45711	0.101
Mof_C 	C 	0.417	0.10897	0.62178	0.06
Mof_C 	C 	0.4317	0.15009	0.63861	-0.113
Mof_C 	C 	0.3774	0.15673	0.58202	0.067
Mof_C 	C 	0.3925	0.19951	0.59739	-0.116
Mof_C 	C 	0.4199	0.19678	0.62646	0.049
Mof_C 	C 	0.4356	0.2415	0.64406	0.103
Mof_C 	C 	0.3937	0.42535	0.59438	0.066
Mof_C 	C 	0.4093	0.37881	0.60535	-0.113
Mof_C 	C 	0.4138	0.46063	0.63942	0.068
Mof_C 	C 	0.4307	0.41575	0.6521	-0.115
Mof_C 	C 	0.427	0.37336	0.635	0.05
Mof_C 	C 	0.4391	0.324	0.6481	0.101
Mof_C 	C 	0.5667	0.30457	0.76186	0.06
Mof_C 	C 	0.532	0.31188	0.73394	-0.113
Mof_C 	C 	0.5417	0.22089	0.75876	0.064
Mof_C 	C 	0.5068	0.22512	0.73079	-0.113
Mof_C 	C 	0.5033	0.27116	0.71783	0.049
Mof_C 	C 	0.4732	0.27663	0.68706	0.103
Mof_C 	C 	0.6239	0.30638	0.86562	0.065
Mof_C 	C 	0.5745	0.32756	0.88842	-0.108
Mof_C 	C 	0.4794	0.28609	0.84272	0.064
Mof_C 	C 	0.4252	0.30682	0.86482	-0.112
Mof_C 	C 	0.4731	0.32783	0.88834	0.054
Mof_C 	C 	0.4177	0.35088	0.91233	0.107
Mof_C 	C 	0.0512	0.42875	0.89213	0.073
Mof_C 	C 	0.145	0.41141	0.89615	-0.124
Mof_C 	C 	0.0209	0.42631	0.94131	0.071
Mof_C 	C 	0.1143	0.40957	0.94699	-0.117
Mof_C 	C 	0.178	0.40183	0.92411	0.052
Mof_C 	C 	0.2797	0.3856	0.92912	0.095
Mof_C 	C 	0.477	0.44839	0.02718	0.063
Mof_C 	C 	0.424	0.4328	0.00349	-0.117
Mof_C 	C 	0.6131	0.40539	0.01222	0.063
Mof_C 	C 	0.5647	0.38753	0.98783	-0.107
Mof_C 	C 	0.4683	0.40112	0.98348	0.046
Mof_C 	C 	0.4143	0.38441	0.95711	0.101
Mof_C 	C 	0.583	0.39103	0.12178	0.06
Mof_C 	C 	0.5683	0.34991	0.13861	-0.113
Mof_C 	C 	0.6226	0.34327	0.08202	0.067
Mof_C 	C 	0.6075	0.30049	0.09739	-0.116
Mof_C 	C 	0.5801	0.30322	0.12646	0.049
Mof_C 	C 	0.5644	0.2585	0.14406	0.103
Mof_C 	C 	0.6063	0.07465	0.09438	0.066
Mof_C 	C 	0.5907	0.12119	0.10535	-0.113
Mof_C 	C 	0.5862	0.03937	0.13942	0.068
Mof_C 	C 	0.5693	0.08425	0.1521	-0.115
Mof_C 	C 	0.573	0.12664	0.135	0.05
Mof_C 	C 	0.5609	0.176	0.1481	0.102
Mof_C 	C 	0.4333	0.19543	0.26186	0.06
Mof_C 	C 	0.468	0.18812	0.23394	-0.113
Mof_C 	C 	0.4583	0.27911	0.25876	0.064
Mof_C 	C 	0.4932	0.27488	0.23079	-0.113
Mof_C 	C 	0.4967	0.22884	0.21783	0.049
Mof_C 	C 	0.5268	0.22337	0.18706	0.103
Mof_I 	I 	0.95422	0.01874	0.90312	-0.366
Mof_I 	I 	0.67575	0.95233	0.93888	-0.377
Mof_I 	I 	0.73233	0.97852	0.04506	-0.383
Mof_I 	I 	0.7246	0.9212	0.13579	-0.362
Mof_I 	I 	0.69153	0.80405	0.19622	-0.367
Mof_I 	I 	0.83151	0.6589	0.17833	-0.373
Mof_I 	I 	0.04578	0.48126	0.40312	-0.367
Mof_I 	I 	0.32425	0.54767	0.43888	-0.376
Mof_I 	I 	0.26767	0.52148	0.54506	-0.383
Mof_I 	I 	0.2754	0.5788	0.63579	-0.362
Mof_I 	I 	0.30847	0.69595	0.69622	-0.367
Mof_I 	I 	0.16849	0.8411	0.67833	-0.373
Mof_I 	I 	0.45422	0.98126	0.59688	-0.366
Mof_I 	I 	0.17575	0.04767	0.56112	-0.377
Mof_I 	I 	0.23233	0.02148	0.45494	-0.383
Mof_I 	I 	0.2246	0.0788	0.36421	-0.362
Mof_I 	I 	0.19153	0.19595	0.30378	-0.368
Mof_I 	I 	0.33151	0.3411	0.32167	-0.373
Mof_I 	I 	0.54578	0.51874	0.09688	-0.367
Mof_I 	I 	0.82425	0.45233	0.06112	-0.376
Mof_I 	I 	0.76767	0.47852	0.95494	-0.383
Mof_I 	I 	0.7754	0.4212	0.86421	-0.362
Mof_I 	I 	0.80847	0.30405	0.80378	-0.367
Mof_I 	I 	0.66849	0.1589	0.82167	-0.373
Mof_N 	N 	0.9223	0.78543	0.15706	-0.273
Mof_N 	N 	0.51	0.93641	0.08559	-0.273
Mof_N 	N 	0.9298	0.93486	0.96813	-0.27
Mof_N 	N 	0.1752	0.86302	0.09287	-0.134
Mof_N 	N 	0.18	0.89664	0.0451	-0.144
Mof_N 	N 	0.0336	0.86055	0.06296	-0.136
Mof_N 	N 	0.889	0.88828	0.90613	-0.27
Mof_N 	N 	0.8939	0.53417	0.8889	-0.27
Mof_N 	N 	0.0735	0.74041	0.72599	-0.271
Mof_N 	N 	0.9242	0.71487	0.86896	-0.14
Mof_N 	N 	0.9639	0.67797	0.82344	-0.139
Mof_N 	N 	0.9593	0.76514	0.82801	-0.139
Mof_N 	N 	0.0777	0.71457	0.65706	-0.272
Mof_N 	N 	0.49	0.56359	0.58559	-0.273
Mof_N 	N 	0.0702	0.56514	0.46813	-0.27
Mof_N 	N 	0.8248	0.63698	0.59287	-0.135
Mof_N 	N 	0.82	0.60336	0.5451	-0.144
Mof_N 	N 	0.9664	0.63945	0.56296	-0.136
Mof_N 	N 	0.111	0.61172	0.40613	-0.27
Mof_N 	N 	0.1061	0.96583	0.3889	-0.27
Mof_N 	N 	0.9265	0.75959	0.22599	-0.271
Mof_N 	N 	0.0758	0.78513	0.36896	-0.14
Mof_N 	N 	0.0361	0.82203	0.32344	-0.139
Mof_N 	N 	0.0407	0.73486	0.32801	-0.139
Mof_N 	N 	0.4223	0.21457	0.34294	-0.272
Mof_N 	N 	0.01	0.06359	0.41441	-0.273
Mof_N 	N 	0.4298	0.06514	0.53187	-0.27
Mof_N 	N 	0.6752	0.13698	0.40713	-0.134
Mof_N 	N 	0.68	0.10336	0.4549	-0.144
Mof_N 	N 	0.5336	0.13945	0.43704	-0.136
Mof_N 	N 	0.389	0.11172	0.59387	-0.27
Mof_N 	N 	0.3939	0.46583	0.6111	-0.27
Mof_N 	N 	0.5735	0.25959	0.77401	-0.271
Mof_N 	N 	0.4242	0.28513	0.63104	-0.14
Mof_N 	N 	0.4639	0.32203	0.67656	-0.139
Mof_N 	N 	0.4593	0.23486	0.67199	-0.139
Mof_N 	N 	0.5777	0.28543	0.84294	-0.272
Mof_N 	N 	0.99	0.43641	0.91441	-0.272
Mof_N 	N 	0.5702	0.43486	0.03187	-0.27
Mof_N 	N 	0.3248	0.36302	0.90713	-0.135
Mof_N 	N 	0.32	0.39664	0.9549	-0.144
Mof_N 	N 	0.4664	0.36055	0.93704	-0.136
Mof_N 	N 	0.611	0.38828	0.09387	-0.27
Mof_N 	N 	0.6061	0.03417	0.1111	-0.27
Mof_N 	N 	0.4265	0.24041	0.27401	-0.271
Mof_N 	N 	0.5758	0.21487	0.13104	-0.14
Mof_N 	N 	0.5361	0.17797	0.17656	-0.139
Mof_N 	N 	0.5407	0.26514	0.17199	-0.139
Mof_Zn	Zn	0.14066	0.0482	0.07036	1.163
Mof_Zn	Zn	0.35434	0.03328	0.9063	1.164
Mof_Zn	Zn	0.15597	0.2491	0.81098	1.164
Mof_Zn	Zn	0.85934	0.4518	0.57036	1.163
Mof_Zn	Zn	0.64566	0.46672	0.4063	1.164
Mof_Zn	Zn	0.84403	0.2509	0.31098	1.164
Mof_Zn	Zn	0.64066	0.9518	0.42964	1.163
Mof_Zn	Zn	0.85434	0.96672	0.5937	1.164
Mof_Zn	Zn	0.65597	0.7509	0.68902	1.164
Mof_Zn	Zn	0.35934	0.5482	0.92964	1.163
Mof_Zn	Zn	0.14566	0.53328	0.0937	1.164
Mof_Zn	Zn	0.34403	0.7491	0.18902	1.164
Mof_H 	H 	0.1933	0.1935	0.8659	-0.007
Mof_H 	H 	0.1095	0.1581	0.9041	0.079
Mof_H 	H 	0.9461	0.2283	0.8267	-0.012
Mof_H 	H 	0.8558	0.1933	0.864	0.072
Mof_H 	H 	0.5293	0.0645	0.8729	-0.01
Mof_H 	H 	0.6866	0.0939	0.8799	0.094
Mof_H 	H 	0.477	0.0692	0.9571	-0.007
Mof_H 	H 	0.6346	0.0966	0.9664	0.081
Mof_H 	H 	0.9464	0.0303	0.0408	-0.002
Mof_H 	H 	0.8584	0.0566	0.0008	0.082
Mof_H 	H 	0.1795	0.1037	0.0151	-0.007
Mof_H 	H 	0.0971	0.1336	0.9744	0.077
Mof_H 	H 	0.0729	0.0774	0.1302	-0.008
Mof_H 	H 	0.0501	0.1467	0.1584	0.079
Mof_H 	H 	0.1419	0.159	0.0622	-0.015
Mof_H 	H 	0.1158	0.2306	0.0882	0.078
Mof_H 	H 	0.1178	0.4289	0.0741	-0.009
Mof_H 	H 	0.0919	0.3509	0.0929	0.079
Mof_H 	H 	0.0838	0.4893	0.1512	-0.007
Mof_H 	H 	0.0552	0.4135	0.1723	0.08
Mof_H 	H 	0.9135	0.3324	0.2729	-0.008
Mof_H 	H 	0.972	0.3441	0.226	0.079
Mof_H 	H 	0.9568	0.1892	0.2676	0.001
Mof_H 	H 	0.0147	0.1968	0.2205	0.081
Mof_H 	H 	0.8067	0.3065	0.3659	-0.007
Mof_H 	H 	0.8905	0.3419	0.4041	0.078
Mof_H 	H 	0.0539	0.2717	0.3267	-0.012
Mof_H 	H 	0.1442	0.3067	0.364	0.071
Mof_H 	H 	0.4707	0.4355	0.3729	-0.01
Mof_H 	H 	0.3134	0.4061	0.3799	0.094
Mof_H 	H 	0.523	0.4308	0.4571	-0.007
Mof_H 	H 	0.3654	0.4034	0.4664	0.081
Mof_H 	H 	0.0536	0.4697	0.5408	-0.002
Mof_H 	H 	0.1416	0.4434	0.5008	0.081
Mof_H 	H 	0.8205	0.3963	0.5151	-0.007
Mof_H 	H 	0.9029	0.3664	0.4744	0.077
Mof_H 	H 	0.9271	0.4226	0.6302	-0.008
Mof_H 	H 	0.9499	0.3533	0.6584	0.079
Mof_H 	H 	0.8581	0.341	0.5622	-0.015
Mof_H 	H 	0.8842	0.2694	0.5882	0.078
Mof_H 	H 	0.8822	0.0711	0.5741	-0.008
Mof_H 	H 	0.9081	0.1491	0.5929	0.079
Mof_H 	H 	0.9162	0.0107	0.6512	-0.007
Mof_H 	H 	0.9448	0.0865	0.6723	0.081
Mof_H 	H 	0.0865	0.1676	0.7729	-0.008
Mof_H 	H 	0.028	0.1559	0.726	0.079
Mof_H 	H 	0.0432	0.3108	0.7676	0.001
Mof_H 	H 	0.9853	0.3032	0.7205	0.081
Mof_H 	H 	0.6933	0.8065	0.6341	-0.007
Mof_H 	H 	0.6095	0.8419	0.5959	0.078
Mof_H 	H 	0.4461	0.7717	0.6733	-0.012
Mof_H 	H 	0.3558	0.8067	0.636	0.072
Mof_H 	H 	0.0293	0.9355	0.6271	-0.01
Mof_H 	H 	0.1866	0.9061	0.6201	0.094
Mof_H 	H 	0.977	0.9308	0.5429	-0.008
Mof_H 	H 	0.1346	0.9034	0.5336	0.082
Mof_H 	H 	0.4464	0.9697	0.4592	-0.002
Mof_H 	H 	0.3584	0.9434	0.4992	0.081
Mof_H 	H 	0.6795	0.8963	0.4849	-0.007
Mof_H 	H 	0.5971	0.8664	0.5256	0.077
Mof_H 	H 	0.5729	0.9226	0.3698	-0.008
Mof_H 	H 	0.5501	0.8533	0.3416	0.079
Mof_H 	H 	0.6419	0.841	0.4378	-0.015
Mof_H 	H 	0.6158	0.7694	0.4118	0.078
Mof_H 	H 	0.6178	0.5711	0.4259	-0.009
Mof_H 	H 	0.5919	0.6491	0.4071	0.079
Mof_H 	H 	0.5838	0.5107	0.3488	-0.007
Mof_H 	H 	0.5552	0.5865	0.3277	0.08
Mof_H 	H 	0.4135	0.6676	0.2271	-0.008
Mof_H 	H 	0.472	0.6559	0.274	0.079
Mof_H 	H 	0.4568	0.8108	0.2324	0.001
Mof_H 	H 	0.5147	0.8032	0.2795	0.081
Mof_H 	H 	0.3067	0.6935	0.1341	-0.007
Mof_H 	H 	0.3905	0.6581	0.0959	0.078
Mof_H 	H 	0.5539	0.7283	0.1733	-0.012
Mof_H 	H 	0.6442	0.6933	0.136	0.072
Mof_H 	H 	0.9707	0.5645	0.1271	-0.01
Mof_H 	H 	0.8134	0.5939	0.1201	0.094
Mof_H 	H 	0.023	0.5692	0.0429	-0.007
Mof_H 	H 	0.8654	0.5966	0.0336	0.081
Mof_H 	H 	0.5536	0.5303	0.9592	-0.002
Mof_H 	H 	0.6416	0.5566	0.9992	0.081
Mof_H 	H 	0.3205	0.6037	0.9849	-0.007
Mof_H 	H 	0.4029	0.6336	0.0256	0.077
Mof_H 	H 	0.4271	0.5774	0.8698	-0.008
Mof_H 	H 	0.4499	0.6467	0.8416	0.079
Mof_H 	H 	0.3581	0.659	0.9378	-0.015
Mof_H 	H 	0.3842	0.7306	0.9118	0.078
Mof_H 	H 	0.3822	0.9289	0.9259	-0.008
Mof_H 	H 	0.4081	0.8509	0.9071	0.079
Mof_H 	H 	0.4162	0.9893	0.8488	-0.007
Mof_H 	H 	0.4448	0.9135	0.8277	0.08
Mof_H 	H 	0.5865	0.8324	0.7271	-0.008
Mof_H 	H 	0.528	0.8441	0.774	0.079
Mof_H 	H 	0.5432	0.6892	0.7324	0.001
Mof_H 	H 	0.4853	0.6968	0.7795	0.081
Mof_C 	C 	0.1239	0.19362	0.86562	0.066
Mof_C 	C 	0.0745	0.17244	0.88842	-0.109
Mof_C 	C 	0.9794	0.21391	0.84272	0.065
Mof_C 	C 	0.9252	0.19318	0.86482	-0.113
Mof_C 	C 	0.9731	0.17217	0.88834	0.055
Mof_C 	C 	0.9177	0.14912	0.91233	0.107
Mof_C 	C 	0.5512	0.07125	0.89213	0.073
Mof_C 	C 	0.645	0.08859	0.89615	-0.124
Mof_C 	C 	0.5209	0.07369	0.94131	0.071
Mof_C 	C 	0.6143	0.09043	0.94699	-0.118
Mof_C 	C 	0.678	0.09817	0.92411	0.052
Mof_C 	C 	0.7797	0.1144	0.92912	0.095
Mof_C 	C 	0.977	0.05161	0.02718	0.064
Mof_C 	C 	0.924	0.0672	0.00349	-0.117
Mof_C 	C 	0.1131	0.09461	0.01222	0.063
Mof_C 	C 	0.0647	0.11247	0.98783	-0.108
Mof_C 	C 	0.9683	0.09888	0.98348	0.047
Mof_C 	C 	0.9143	0.11559	0.95711	0.101
Mof_C 	C 	0.083	0.10897	0.12178	0.06
Mof_C 	C 	0.0683	0.15009	0.13861	-0.113
Mof_C 	C 	0.1226	0.15673	0.08202	0.067
Mof_C 	C 	0.1075	0.19951	0.09739	-0.116
Mof_C 	C 	0.0801	0.19678	0.12646	0.049
Mof_C 	C 	0.0644	0.2415	0.14406	0.103
Mof_C 	C 	0.1063	0.42535	0.09438	0.066
Mof_C 	C 	0.0907	0.37881	0.10535	-0.113
Mof_C 	C 	0.0862	0.46063	0.13942	0.068
Mof_C 	C 	0.0693	0.41575	0.1521	-0.115
Mof_C 	C 	0.073	0.37336	0.135	0.05
Mof_C 	C 	0.0609	0.324	0.1481	0.101
Mof_C 	C 	0.9333	0.30457	0.26186	0.06
Mof_C 	C 	0.968	0.31188	0.23394	-0.113
Mof_C 	C 	0.9583	0.22089	0.25876	0.063
Mof_C 	C 	0.9932	0.22512	0.23079	-0.112
Mof_C 	C 	0.9967	0.27116	0.21783	0.049
Mof_C 	C 	0.0268	0.27663	0.18706	0.103
Mof_C 	C 	0.8761	0.30638	0.36562	0.065
Mof_C 	C 	0.9255	0.32756	0.38842	-0.107
Mof_C 	C 	0.0206	0.28609	0.34272	0.064
Mof_C 	C 	0.0748	0.30682	0.36482	-0.112
Mof_C 	C 	0.0269	0.32783	0.38834	0.053
Mof_C 	C 	0.0823	0.35088	0.41233	0.107
Mof_C 	C 	0.4488	0.42875	0.39213	0.073
Mof_C 	C 	0.355	0.41141	0.39615	-0.124
Mof_C 	C 	0.4791	0.42631	0.44131	0.071
Mof_C 	C 	0.3857	0.40957	0.44699	-0.118
Mof_C 	C 	0.322	0.40183	0.42411	0.052
Mof_C 	C 	0.2203	0.3856	0.42912	0.095
Mof_C 	C 	0.023	0.44839	0.52718	0.062
Mof_C 	C 	0.076	0.4328	0.50349	-0.116
Mof_C 	C 	0.8869	0.40539	0.51222	0.063
Mof_C 	C 	0.9353	0.38753	0.48783	-0.107
Mof_C 	C 	0.0317	0.40112	0.48348	0.046
Mof_C 	C 	0.0857	0.38441	0.45711	0.101
Mof_C 	C 	0.917	0.39103	0.62178	0.06
Mof_C 	C 	0.9317	0.34991	0.63861	-0.113
Mof_C 	C 	0.8774	0.34327	0.58202	0.067
Mof_C 	C 	0.8925	0.30049	0.59739	-0.116
Mof_C 	C 	0.9199	0.30322	0.62646	0.049
Mof_C 	C 	0.9356	0.2585	0.64406	0.103
Mof_C 	C 	0.8937	0.07465	0.59438	0.066
Mof_C 	C 	0.9093	0.12119	0.60535	-0.113
Mof_C 	C 	0.9138	0.03937	0.63942	0.068
Mof_C 	C 	0.9307	0.08425	0.6521	-0.115
Mof_C 	C 	0.927	0.12664	0.635	0.05
Mof_C 	C 	0.9391	0.176	0.6481	0.102
Mof_C 	C 	0.0667	0.19543	0.76186	0.06
Mof_C 	C 	0.032	0.18812	0.73394	-0.113
Mof_C 	C 	0.0417	0.27911	0.75876	0.064
Mof_C 	C 	0.0068	0.27488	0.73079	-0.113
Mof_C 	C 	0.0033	0.22884	0.71783	0.049
Mof_C 	C 	0.9732	0.22337	0.68706	0.103
Mof_C 	C 	0.6239	0.80638	0.63438	0.065
Mof_C 	C 	0.5745	0.82756	0.61158	-0.108
Mof_C 	C 	0.4794	0.78609	0.65728	0.064
Mof_C 	C 	0.4252	0.80682	0.63518	-0.112
Mof_C 	C 	0.4731	0.82783	0.61166	0.054
Mof_C 	C 	0.4177	0.85088	0.58767	0.107
Mof_C 	C 	0.0512	0.92875	0.60787	0.074
Mof_C 	C 	0.145	0.91141	0.60385	-0.125
Mof_C 	C 	0.0209	0.92631	0.55869	0.073
Mof_C 	C 	0.1143	0.90957	0.55301	-0.119
Mof_C 	C 	0.178	0.90183	0.57589	0.053
Mof_C 	C 	0.2797	0.8856	0.57088	0.095
Mof_C 	C 	0.477	0.94839	0.47282	0.063
Mof_C 	C 	0.424	0.9328	0.49651	-0.117
Mof_C 	C 	0.6131	0.90539	0.48778	0.063
Mof_C 	C 	0.5647	0.88753	0.51217	-0.107
Mof_C 	C 	0.4683	0.90112	0.51652	0.046
Mof_C 	C 	0.4143	0.88441	0.54289	0.101
Mof_C 	C 	0.583	0.89103	0.37822	0.06
Mof_C 	C 	0.5683	0.84991	0.36139	-0.113
Mof_C 	C 	0.6226	0.84327	0.41798	0.067
Mof_C 	C 	0.6075	0.80049	0.40261	-0.116
Mof_C 	C 	0.5801	0.80322	0.37354	0.049
Mof_C 	C 	0.5644	0.7585	0.35594	0.103
Mof_C 	C 	0.6063	0.57465	0.40562	0.066
Mof_C 	C 	0.5907	0.62119	0.39465	-0.113
Mof_C 	C 	0.5862	0.53937	0.36058	0.068
Mof_C 	C 	0.5693	0.58425	0.3479	-0.115
Mof_C 	C 	0.573	0.62664	0.365	0.05
Mof_C 	C 	0.5609	0.676	0.3519	0.101
Mof_C 	C 	0.4333	0.69543	0.23814	0.06
Mof_C 	C 	0.468	0.68812	0.26606	-0.113
Mof_C 	C 	0.4583	0.77911	0.24124	0.064
Mof_C 	C 	0.4932	0.77488	0.26921	-0.113
Mof_C 	C 	0.4967	0.72884	0.28217	0.049
Mof_C 	C 	0.5268	0.72337	0.31294	0.103
Mof_C 	C 	0.3761	0.69362	0.13438	0.065
Mof_C 	C 	0.4255	0.67244	0.11158	-0.108
Mof_C 	C 	0.5206	0.71391	0.15728	0.064
Mof_C 	C 	0.5748	0.69318	0.13518	-0.112
Mof_C 	C 	0.5269	0.67217	0.11166	0.054
Mof_C 	C 	0.5823	0.64912	0.08767	0.107
Mof_C 	C 	0.9488	0.57125	0.10787	0.073
Mof_C 	C 	0.855	0.58859	0.10385	-0.124
Mof_C 	C 	0.9791	0.57369	0.05869	0.071
Mof_C 	C 	0.8857	0.59043	0.05301	-0.117
Mof_C 	C 	0.822	0.59817	0.07589	0.052
Mof_C 	C 	0.7203	0.6144	0.07088	0.095
Mof_C 	C 	0.523	0.55161	0.97282	0.063
Mof_C 	C 	0.576	0.5672	0.99651	-0.117
Mof_C 	C 	0.3869	0.59461	0.98778	0.063
Mof_C 	C 	0.4353	0.61247	0.01217	-0.107
Mof_C 	C 	0.5317	0.59888	0.01652	0.046
Mof_C 	C 	0.5857	0.61559	0.04289	0.101
Mof_C 	C 	0.417	0.60897	0.87822	0.06
Mof_C 	C 	0.4317	0.65009	0.86139	-0.113
Mof_C 	C 	0.3774	0.65673	0.91798	0.067
Mof_C 	C 	0.3925	0.69951	0.90261	-0.116
Mof_C 	C 	0.4199	0.69678	0.87354	0.049
Mof_C 	C 	0.4356	0.7415	0.85594	0.103
Mof_C 	C 	0.3937	0.92535	0.90562	0.066
Mof_C 	C 	0.4093	0.87881	0.89465	-0.113
Mof_C 	C 	0.4138	0.96063	0.86058	0.068
Mof_C 	C 	0.4307	0.91575	0.8479	-0.115
Mof_C 	C 	0.427	0.87336	0.865	0.05
Mof_C 	C 	0.4391	0.824	0.8519	0.102
Mof_C 	C 	0.5667	0.80457	0.73814	0.06
Mof_C 	C 	0.532	0.81188	0.76606	-0.113
Mof_C 	C 	0.5417	0.72089	0.74124	0.064
Mof_C 	C 	0.5068	0.72512	0.76921	-0.113
Mof_C 	C 	0.5033	0.77116	0.78217	0.049
Mof_C 	C 	0.4732	0.77663	0.81294	0.103
Mof_I 	I 	0.04578	0.98126	0.09688	-0.366
Mof_I 	I 	0.32425	0.04767	0.06112	-0.377
Mof_I 	I 	0.26767	0.02148	0.95494	-0.383
Mof_I 	I 	0.2754	0.0788	0.86421	-0.362
Mof_I 	I 	0.30847	0.19595	0.80378	-0.367
Mof_I 	I 	0.16849	0.3411	0.82167	-0.373
Mof_I 	I 	0.95422	0.51874	0.59688	-0.367
Mof_I 	I 	0.67575	0.45233	0.56112	-0.376
Mof_I 	I 	0.73233	0.47852	0.45494	-0.383
Mof_I 	I 	0.7246	0.4212	0.36421	-0.362
Mof_I 	I 	0.69153	0.30405	0.30378	-0.367
Mof_I 	I 	0.83151	0.1589	0.32167	-0.373
Mof_I 	I 	0.54578	0.01874	0.40312	-0.366
Mof_I 	I 	0.82425	0.95233	0.43888	-0.377
Mof_I 	I 	0.76767	0.97852	0.54506	-0.383
Mof_I 	I 	0.7754	0.9212	0.63579	-0.362
Mof_I 	I 	0.80847	0.80405	0.69622	-0.368
Mof_I 	I 	0.66849	0.6589	0.67833	-0.373
Mof_I 	I 	0.45422	0.48126	0.90312	-0.367
Mof_I 	I 	0.17575	0.54767	0.93888	-0.376
Mof_I 	I 	0.23233	0.52148	0.04506	-0.383
Mof_I 	I 	0.2246	0.5788	0.13579	-0.362
Mof_I 	I 	0.19153	0.69595	0.19622	-0.367
Mof_I 	I 	0.33151	0.8411	0.17833	-0.373
Mof_N 	N 	0.0777	0.21457	0.84294	-0.273
Mof_N 	N 	0.49	0.06359	0.91441	-0.273
Mof_N 	N 	0.0702	0.06514	0.03187	-0.27
Mof_N 	N 	0.8248	0.13698	0.90713	-0.134
Mof_N 	N 	0.82	0.10336	0.9549	-0.144
Mof_N 	N 	0.9664	0.13945	0.93704	-0.136
Mof_N 	N 	0.111	0.11172	0.09387	-0.27
Mof_N 	N 	0.1061	0.46583	0.1111	-0.27
Mof_N 	N 	0.9265	0.25959	0.27401	-0.271
Mof_N 	N 	0.0758	0.28513	0.13104	-0.14
Mof_N 	N 	0.0361	0.32203	0.17656	-0.139
Mof_N 	N 	0.0407	0.23486	0.17199	-0.139
Mof_N 	N 	0.9223	0.28543	0.34294	-0.272
Mof_N 	N 	0.51	0.43641	0.41441	-0.273
Mof_N 	N 	0.9298	0.43486	0.53187	-0.27
Mof_N 	N 	0.1752	0.36302	0.40713	-0.135
Mof_N 	N 	0.18	0.39664	0.4549	-0.144
Mof_N 	N 	0.0336	0.36055	0.43704	-0.136
Mof_N 	N 	0.889	0.38828	0.59387	-0.27
Mof_N 	N 	0.8939	0.03417	0.6111	-0.27
Mof_N 	N 	0.0735	0.24041	0.77401	-0.271
Mof_N 	N 	0.9242	0.21487	0.63104	-0.14
Mof_N 	N 	0.9639	0.17797	0.67656	-0.139
Mof_N 	N 	0.9593	0.26514	0.67199	-0.139
Mof_N 	N 	0.5777	0.78543	0.65706	-0.272
Mof_N 	N 	0.99	0.93641	0.58559	-0.273
Mof_N 	N 	0.5702	0.93486	0.46813	-0.27
Mof_N 	N 	0.3248	0.86302	0.59287	-0.134
Mof_N 	N 	0.32	0.89664	0.5451	-0.144
Mof_N 	N 	0.4664	0.86055	0.56296	-0.136
Mof_N 	N 	0.611	0.88828	0.40613	-0.27
Mof_N 	N 	0.6061	0.53417	0.3889	-0.27
Mof_N 	N 	0.4265	0.74041	0.22599	-0.271
Mof_N 	N 	0.5758	0.71487	0.36896	-0.14
Mof_N 	N 	0.5361	0.67797	0.32344	-0.139
Mof_N 	N 	0.5407	0.76514	0.32801	-0.139
Mof_N 	N 	0.4223	0.71457	0.15706	-0.272
Mof_N 	N 	0.01	0.56359	0.08559	-0.272
Mof_N 	N 	0.4298	0.56514	0.96813	-0.27
Mof_N 	N 	0.6752	0.63698	0.09287	-0.135
Mof_N 	N 	0.68	0.60336	0.0451	-0.144
Mof_N 	N 	0.5336	0.63945	0.06296	-0.136
Mof_N 	N 	0.389	0.61172	0.90613	-0.27
Mof_N 	N 	0.3939	0.96583	0.8889	-0.27
Mof_N 	N 	0.5735	0.75959	0.72599	-0.271
Mof_N 	N 	0.4242	0.78513	0.86896	-0.14
Mof_N 	N 	0.4639	0.82203	0.82344	-0.139
Mof_N 	N 	0.4593	0.73486	0.82801	-0.139
_end
