data_functionalizedCrystal
_audit_creation_method	'EQeq! by Chris Wilmer'
_symmetry_space_group_name_H-M	'P1'
_symmetry_Int_Tables_number	1
_symmetry_cell_setting	triclinic
loop_
_symmetry_equiv_pos_as_xyz
  x,y,z
_cell_length_a	14.3747
_cell_length_b	18.633
_cell_length_c	23.957
_cell_angle_alpha	90
_cell_angle_beta	90
_cell_angle_gamma	90
loop_
_atom_site_label
_atom_site_type_symbol
_atom_site_fract_x
_atom_site_fract_y
_atom_site_fract_z
_atom_site_charge
Mof_Co	Co	0.92317	0.20095	0.93164	1.153
Mof_Co	Co	0.68467	0.82464	0.92887	1.155
Mof_Co	Co	0.07683	0.70095	0.06836	1.153
Mof_Co	Co	0.61975	0.26413	0.49911	1.188
Mof_Co	Co	0.81533	0.32464	0.42887	1.155
Mof_Co	Co	0.18467	0.82464	0.57113	1.155
Mof_Co	Co	0.42317	0.20095	0.56836	1.155
Mof_Co	Co	0.80086	0.31764	0.09316	1.153
Mof_Co	Co	0.11975	0.26413	0.00089	1.188
Mof_Co	Co	0.57683	0.70095	0.43164	1.155
Mof_Co	Co	0.31533	0.32464	0.07113	1.156
Mof_Co	Co	0.38025	0.76413	0.50089	1.189
Mof_Co	Co	0.69914	0.81764	0.59316	1.153
Mof_Co	Co	0.55697	0.71078	0.09399	1.152
Mof_Co	Co	0.05697	0.71078	0.40601	1.151
Mof_Co	Co	0.88025	0.76413	0.99911	1.188
Mof_Co	Co	0.44303	0.21078	0.90601	1.152
Mof_Co	Co	0.94303	0.21078	0.59399	1.151
Mof_Co	Co	0.19914	0.81764	0.90684	1.152
Mof_Co	Co	0.30086	0.31764	0.40684	1.153
Mof_H 	H 	0.6611	0.3983	0.5885	0.109
Mof_H 	H 	0.8633	0.1762	0.2868	0.253
Mof_H 	H 	0.1038	0.0314	0.2038	0.216
Mof_H 	H 	0.6884	0.0592	0.1667	0.237
Mof_H 	H 	0.9094	0.3183	0.7213	0.235
Mof_H 	H 	0.4803	0.1967	0.7995	0.208
Mof_H 	H 	0.7016	0.3068	0.2687	0.044
Mof_H 	H 	0.369	0.099	0.1244	0.104
Mof_H 	H 	0.631	0.599	0.8756	0.104
Mof_H 	H 	0.3389	0.8983	0.4115	0.108
Mof_H 	H 	0.0397	0.2201	0.7688	0.043
Mof_H 	H 	0.0861	0.0512	0.3115	0.222
Mof_H 	H 	0.4787	0.2169	0.3417	0.111
Mof_H 	H 	0.7524	0.8066	0.3206	0.096
Mof_H 	H 	0.1385	0.8939	0.28	0.222
Mof_H 	H 	0.3783	0.4334	0.8752	0.092
Mof_H 	H 	0.1529	0.4902	0.7925	0.205
Mof_H 	H 	0.9497	0.9784	0.334	0.252
Mof_H 	H 	0.6523	0.4775	0.8109	0.235
Mof_H 	H 	0.2592	0.3064	0.847	0.096
Mof_H 	H 	0.2016	0.3068	0.2313	0.043
Mof_H 	H 	0.646	0.1009	0.3231	0.24
Mof_H 	H 	0.2346	0.8338	0.7992	0.208
Mof_H 	H 	0.4892	0.4687	0.4816	0.072
Mof_H 	H 	0.7592	0.3064	0.653	0.095
Mof_H 	H 	0.5397	0.2201	0.7312	0.041
Mof_H 	H 	0.3875	0.9195	0.3183	0.232
Mof_H 	H 	0.869	0.099	0.3756	0.106
Mof_H 	H 	0.8276	0.8994	0.4332	0.142
Mof_H 	H 	0.1724	0.3994	0.5668	0.141
Mof_H 	H 	0.1523	0.4775	0.6891	0.235
Mof_H 	H 	0.3471	0.9902	0.2925	0.203
Mof_H 	H 	0.7476	0.3066	0.8206	0.096
Mof_H 	H 	0.969	0.4539	0.4678	0.064
Mof_H 	H 	0.8615	0.3939	0.72	0.223
Mof_H 	H 	0.4508	0.9876	0.3126	0.217
Mof_H 	H 	0.6291	0.6015	0.6367	0.088
Mof_H 	H 	0.2459	0.5697	0.4734	0.078
Mof_H 	H 	0.1681	0.7122	0.7693	0.257
Mof_H 	H 	0.1219	0.9193	0.1312	0.1
Mof_H 	H 	0.7459	0.5697	0.0266	0.079
Mof_H 	H 	0.8833	0.6213	0.6573	0.253
Mof_H 	H 	0.0907	0.1254	0.087	0.113
Mof_H 	H 	0.8319	0.2122	0.2307	0.256
Mof_H 	H 	0.3781	0.4193	0.6312	0.098
Mof_H 	H 	0.2524	0.8066	0.1794	0.095
Mof_H 	H 	0.7984	0.8068	0.7687	0.043
Mof_H 	H 	0.5503	0.4784	0.834	0.25
Mof_H 	H 	0.2476	0.3066	0.6794	0.096
Mof_H 	H 	0.2935	0.5311	0.6816	0.225
Mof_H 	H 	0.1217	0.9334	0.3752	0.095
Mof_H 	H 	0.0197	0.6967	0.2995	0.205
Mof_H 	H 	0.4094	0.3183	0.7787	0.236
Mof_H 	H 	0.3615	0.3939	0.78	0.224
Mof_H 	H 	0.6217	0.9334	0.1248	0.09
Mof_H 	H 	0.0492	0.4876	0.8126	0.219
Mof_H 	H 	0.8477	0.9775	0.3109	0.237
Mof_H 	H 	0.5197	0.6967	0.2005	0.208
Mof_H 	H 	0.3633	0.1762	0.2132	0.255
Mof_H 	H 	0.1367	0.6762	0.7132	0.254
Mof_H 	H 	0.0906	0.8183	0.2787	0.234
Mof_H 	H 	0.0503	0.4784	0.666	0.25
Mof_H 	H 	0.5907	0.1254	0.413	0.113
Mof_H 	H 	0.1167	0.1213	0.3427	0.256
Mof_H 	H 	0.6135	0.4109	0.8434	0.267
Mof_H 	H 	0.2408	0.8064	0.347	0.095
Mof_H 	H 	0.0213	0.7169	0.8417	0.11
Mof_H 	H 	0.5906	0.8183	0.2213	0.236
Mof_H 	H 	0.2192	0.5592	0.0185	0.063
Mof_H 	H 	0.3709	0.1015	0.3633	0.087
Mof_H 	H 	0.0585	0.1279	0.4352	0.134
Mof_H 	H 	0.9892	0.4687	0.0184	0.074
Mof_H 	H 	0.5051	0.7242	0.8242	0.106
Mof_H 	H 	0.2808	0.0592	0.5185	0.063
Mof_H 	H 	0.5585	0.1279	0.0648	0.13
Mof_H 	H 	0.2065	0.0311	0.1816	0.228
Mof_H 	H 	0.1217	0.636	0.77	0.244
Mof_H 	H 	0.4603	0.7201	0.2688	0.041
Mof_H 	H 	0.6219	0.9193	0.3688	0.098
Mof_H 	H 	0.2984	0.8068	0.7313	0.044
Mof_H 	H 	0.7808	0.0592	0.9815	0.067
Mof_H 	H 	0.2654	0.3338	0.2992	0.208
Mof_H 	H 	0.131	0.599	0.6244	0.104
Mof_H 	H 	0.4497	0.9784	0.166	0.249
Mof_H 	H 	0.7065	0.0311	0.3184	0.225
Mof_H 	H 	0.9093	0.6254	0.913	0.112
Mof_H 	H 	0.3477	0.9775	0.1891	0.234
Mof_H 	H 	0.3833	0.6213	0.8427	0.253
Mof_H 	H 	0.5861	0.0512	0.1885	0.217
Mof_H 	H 	0.854	0.6009	0.8231	0.24
Mof_H 	H 	0.6038	0.0314	0.2962	0.214
Mof_H 	H 	0.0108	0.9687	0.9816	0.073
Mof_H 	H 	0.4139	0.5512	0.8115	0.219
Mof_H 	H 	0.8471	0.9902	0.2075	0.209
Mof_H 	H 	0.5492	0.4876	0.6874	0.219
Mof_H 	H 	0.9603	0.7201	0.2312	0.042
Mof_H 	H 	0.1611	0.3983	0.9115	0.11
Mof_H 	H 	0.6217	0.636	0.73	0.245
Mof_H 	H 	0.8116	0.5592	0.6667	0.239
Mof_H 	H 	0.4093	0.6254	0.587	0.113
Mof_H 	H 	0.7192	0.5592	0.4815	0.065
Mof_H 	H 	0.9508	0.9876	0.1874	0.223
Mof_H 	H 	0.3962	0.5314	0.7038	0.214
Mof_H 	H 	0.4949	0.2242	0.1758	0.106
Mof_H 	H 	0.8962	0.5314	0.7962	0.214
Mof_H 	H 	0.6529	0.4902	0.7075	0.205
Mof_H 	H 	0.9803	0.1967	0.7005	0.205
Mof_H 	H 	0.3276	0.8994	0.0668	0.141
Mof_H 	H 	0.469	0.4539	0.0322	0.064
Mof_H 	H 	0.8783	0.136	0.23	0.242
Mof_H 	H 	0.1291	0.6015	0.8633	0.088
Mof_H 	H 	0.531	0.9539	0.9678	0.06
Mof_H 	H 	0.1884	0.0592	0.3333	0.242
Mof_H 	H 	0.6125	0.4195	0.6817	0.234
Mof_H 	H 	0.146	0.1009	0.1769	0.242
Mof_H 	H 	0.7654	0.3338	0.2008	0.208
Mof_H 	H 	0.354	0.6009	0.6769	0.24
Mof_H 	H 	0.3116	0.5592	0.8333	0.239
Mof_H 	H 	0.5108	0.9687	0.5184	0.072
Mof_H 	H 	0.5213	0.7169	0.6583	0.111
Mof_H 	H 	0.9787	0.2169	0.1583	0.109
Mof_H 	H 	0.1125	0.4195	0.8183	0.235
Mof_H 	H 	0.7408	0.8064	0.153	0.096
Mof_H 	H 	0.6385	0.8939	0.22	0.225
Mof_H 	H 	0.7935	0.5311	0.8184	0.226
Mof_H 	H 	0.8783	0.4334	0.6248	0.092
Mof_H 	H 	0.0051	0.7242	0.6758	0.104
Mof_H 	H 	0.8781	0.4193	0.8688	0.098
Mof_H 	H 	0.6177	0.8566	0.2773	0.232
Mof_H 	H 	0.3319	0.2122	0.2693	0.258
Mof_H 	H 	0.1135	0.4109	0.6566	0.267
Mof_H 	H 	0.6367	0.6762	0.7868	0.255
Mof_H 	H 	0.6724	0.3994	0.9332	0.141
Mof_H 	H 	0.1177	0.8566	0.2227	0.23
Mof_H 	H 	0.7541	0.0697	0.5266	0.079
Mof_H 	H 	0.8865	0.9109	0.3434	0.269
Mof_H 	H 	0.3823	0.3566	0.7227	0.232
Mof_H 	H 	0.2541	0.0697	0.9734	0.081
Mof_H 	H 	0.031	0.9539	0.5322	0.066
Mof_H 	H 	0.6681	0.7122	0.7307	0.258
Mof_H 	H 	0.9949	0.2242	0.3242	0.104
Mof_H 	H 	0.3783	0.136	0.27	0.245
Mof_H 	H 	0.6167	0.1213	0.1573	0.252
Mof_H 	H 	0.8709	0.1015	0.1367	0.091
Mof_H 	H 	0.8389	0.8983	0.0885	0.113
Mof_H 	H 	0.9139	0.5512	0.6885	0.219
Mof_H 	H 	0.3865	0.9109	0.1566	0.267
Mof_H 	H 	0.7346	0.8338	0.7008	0.208
Mof_H 	H 	0.8823	0.3566	0.7773	0.231
Mof_H 	H 	0.4415	0.6279	0.9352	0.131
Mof_H 	H 	0.8875	0.9195	0.1817	0.238
Mof_H 	H 	0.9415	0.6279	0.5648	0.131
Mof_C 	C 	0.3779	0.1821	0.252	-0.813
Mof_C 	C 	0.1398	0.2832	0.13031	0.333
Mof_C 	C 	0.9865	0.61016	0.01274	0.303
Mof_C 	C 	0.3266	0.09308	0.44317	-0.022
Mof_C 	C 	0.4607	0.5475	0.99177	0.028
Mof_C 	C 	0.6649	0.4472	0.58084	-0.195
Mof_C 	C 	0.2281	0.2954	0.81401	-0.21
Mof_C 	C 	0.0135	0.11016	0.98726	0.305
Mof_C 	C 	0.4254	0.4311	0.95465	-0.014
Mof_C 	C 	0.5842	0.0768	0.42093	-0.207
Mof_C 	C 	0.1538	0.5682	0.5971	-0.23
Mof_C 	C 	0.4035	0.7439	0.26733	-0.05
Mof_C 	C 	0.3642	0.7616	0.21613	-0.04
Mof_C 	C 	0.5643	0.9313	0.44551	0.001
Mof_C 	C 	0.7787	0.0508	0.49388	-0.095
Mof_C 	C 	0.1112	0.471	0.81997	-0.714
Mof_C 	C 	0.643	0.2624	0.68345	-0.02
Mof_C 	C 	0.6112	0.471	0.68003	-0.713
Mof_C 	C 	0.972	0.2164	0.24222	0.301
Mof_C 	C 	0.6021	0.9536	0.39443	-0.205
Mof_C 	C 	0.4798	0.7346	0.78939	-0.237
Mof_C 	C 	0.1449	0.0494	0.17543	-0.748
Mof_C 	C 	0.6066	0.2685	0.21379	-0.025
Mof_C 	C 	0.046	0.9746	0.49806	-0.07
Mof_C 	C 	0.1649	0.4472	0.91916	-0.196
Mof_C 	C 	0.6734	0.59308	0.55683	-0.019
Mof_C 	C 	0.6944	0.46997	0.52754	-0.004
Mof_C 	C 	0.1783	0.6724	0.9559	0.359
Mof_C 	C 	0.842	0.7888	0.6621	0.341
Mof_C 	C 	0.047	0.8532	0.0431	0.327
Mof_C 	C 	0.8779	0.1821	0.248	-0.806
Mof_C 	C 	0.0771	0.852	0.46148	0.339
Mof_C 	C 	0.0842	0.0768	0.07907	-0.211
Mof_C 	C 	0.228	0.4172	0.0135	0.305
Mof_C 	C 	0.7117	0.4771	0.98737	0.052
Mof_C 	C 	0.9027	0.7657	0.81409	-0.011
Mof_C 	C 	0.7883	0.9771	0.48737	0.056
Mof_C 	C 	0.9126	0.7422	0.33656	0.337
Mof_C 	C 	0.3236	0.9488	0.06229	-0.244
Mof_C 	C 	0.699	0.54342	0.51628	-0.043
Mof_C 	C 	0.1066	0.2685	0.28621	-0.028
Mof_C 	C 	0.8993	0.4623	0.59577	-0.197
Mof_C 	C 	0.9634	0.48282	0.98452	-0.067
Mof_C 	C 	0.4158	0.5768	0.57907	-0.207
Mof_C 	C 	0.954	0.4746	0.50194	-0.06
Mof_C 	C 	0.0366	0.98282	0.01548	-0.07
Mof_C 	C 	0.0746	0.9311	0.45465	-0.008
Mof_C 	C 	0.1935	0.5964	0.54951	0.018
Mof_C 	C 	0.6538	0.5682	0.9029	-0.23
Mof_C 	C 	0.5973	0.2657	0.31409	-0.01
Mof_C 	C 	0.8065	0.0964	0.45049	0.021
Mof_C 	C 	0.1127	0.4623	0.65908	-0.802
Mof_C 	C 	0.1358	0.2616	0.71613	-0.038
Mof_C 	C 	0.7306	0.8129	0.2375	0.251
Mof_C 	C 	0.3546	0.0684	0.39059	-0.183
Mof_C 	C 	0.5104	0.2306	0.30954	-0.245
Mof_C 	C 	0.301	0.04342	0.48372	-0.038
Mof_C 	C 	0.0965	0.2439	0.76733	-0.052
Mof_C 	C 	0.0643	0.9313	0.05449	0.006
Mof_C 	C 	0.7281	0.2954	0.68599	-0.209
Mof_C 	C 	0.6398	0.2832	0.36969	0.332
Mof_C 	C 	0.6356	0.8487	0.23917	-0.74
Mof_C 	C 	0.7436	0.43	0.03434	0.263
Mof_C 	C 	0.8602	0.7832	0.86969	0.333
Mof_C 	C 	0.272	0.9172	0.5135	0.308
Mof_C 	C 	0.5874	0.2422	0.83656	0.338
Mof_C 	C 	0.8546	0.0684	0.10941	-0.198
Mof_C 	C 	0.3873	0.9623	0.15908	-0.801
Mof_C 	C 	0.2213	0.5508	0.50612	-0.091
Mof_C 	C 	0.2784	0.7954	0.2139	-0.199
Mof_C 	C 	0.0639	0.0786	0.44002	-0.222
Mof_C 	C 	0.4865	0.61016	0.48726	0.299
Mof_C 	C 	0.8462	0.0682	0.4029	-0.235
Mof_C 	C 	0.5202	0.2346	0.21061	-0.237
Mof_C 	C 	0.9042	0.5365	0.60344	0.274
Mof_C 	C 	0.6935	0.5964	0.95049	0.019
Mof_C 	C 	0.143	0.2624	0.81655	-0.019
Mof_C 	C 	0.857	0.7624	0.18345	-0.019
Mof_C 	C 	0.5958	0.0365	0.10344	0.27
Mof_C 	C 	0.4357	0.4313	0.55449	0.001
Mof_C 	C 	0.4521	0.55507	0.5276	0.012
Mof_C 	C 	0.6449	0.0494	0.32457	-0.74
Mof_C 	C 	0.2306	0.8129	0.2625	0.248
Mof_C 	C 	0.1442	0.2839	0.23381	-0.059
Mof_C 	C 	0.772	0.9172	0.9865	0.301
Mof_C 	C 	0.0874	0.2422	0.66344	0.337
Mof_C 	C 	0.4361	0.5786	0.94002	-0.215
Mof_C 	C 	0.6221	0.6821	0.748	-0.812
Mof_C 	C 	0.9896	0.7306	0.80954	-0.244
Mof_C 	C 	0.3585	0.9959	0.37825	0.249
Mof_C 	C 	0.7883	0.1754	0.45657	0.33
Mof_C 	C 	0.8551	0.5494	0.82457	-0.741
Mof_C 	C 	0.1734	0.59308	0.94317	-0.02
Mof_C 	C 	0.9361	0.5786	0.55998	-0.215
Mof_C 	C 	0.8351	0.9472	0.08084	-0.203
Mof_C 	C 	0.6007	0.9623	0.09577	-0.192
Mof_C 	C 	0.5746	0.9311	0.04535	-0.018
Mof_C 	C 	0.953	0.3532	0.9569	0.329
Mof_C 	C 	0.2694	0.3129	0.7625	0.251
Mof_C 	C 	0.8217	0.1724	0.0441	0.356
Mof_C 	C 	0.6783	0.6724	0.5441	0.357
Mof_C 	C 	0.5366	0.98282	0.48452	-0.063
Mof_C 	C 	0.1221	0.6821	0.752	-0.809
Mof_C 	C 	0.3644	0.3487	0.76083	-0.74
Mof_C 	C 	0.3558	0.7839	0.73381	-0.061
Mof_C 	C 	0.7213	0.5508	0.99388	-0.094
Mof_C 	C 	0.2216	0.2954	0.7139	-0.202
Mof_C 	C 	0.7719	0.7954	0.18599	-0.21
Mof_C 	C 	0.9158	0.5768	0.92093	-0.207
Mof_C 	C 	0.4896	0.7306	0.69046	-0.245
Mof_C 	C 	0.2436	0.43	0.46566	0.263
Mof_C 	C 	0.1764	0.4488	0.56229	-0.244
Mof_C 	C 	0.6127	0.4623	0.84092	-0.802
Mof_C 	C 	0.4007	0.74268	0.37166	0.333
Mof_C 	C 	0.1244	0.0702	0.34082	-0.763
Mof_C 	C 	0.7216	0.2954	0.7861	-0.2
Mof_C 	C 	0.6454	0.5684	0.60941	-0.188
Mof_C 	C 	0.5135	0.11016	0.51274	0.299
Mof_C 	C 	0.2883	0.1754	0.04343	0.331
Mof_C 	C 	0.3527	0.994	0.10491	0.313
Mof_C 	C 	0.6358	0.2616	0.78387	-0.04
Mof_C 	C 	0.9229	0.352	0.53852	0.341
Mof_C 	C 	0.8056	0.96997	0.02754	0.006
Mof_C 	C 	0.8873	0.9623	0.34092	-0.808
Mof_C 	C 	0.1007	0.9623	0.40423	-0.207
Mof_C 	C 	0.0104	0.2306	0.19046	-0.241
Mof_C 	C 	0.8527	0.994	0.39509	0.319
Mof_C 	C 	0.2719	0.7954	0.31401	-0.208
Mof_C 	C 	0.8979	0.4536	0.89443	-0.206
Mof_C 	C 	0.0958	0.0365	0.39656	0.284
Mof_C 	C 	0.9521	0.55507	0.9724	0.01
Mof_C 	C 	0.4229	0.352	0.96148	0.342
Mof_C 	C 	0.5041	0.0943	0.96214	0.286
Mof_C 	C 	0.728	0.4172	0.4865	0.307
Mof_C 	C 	0.6244	0.0702	0.15918	-0.747
Mof_C 	C 	0.7694	0.3129	0.7375	0.249
Mof_C 	C 	0.158	0.2888	0.3379	0.341
Mof_C 	C 	0.3888	0.971	0.31997	-0.707
Mof_C 	C 	0.7564	0.93	0.53434	0.262
Mof_C 	C 	0.5993	0.24268	0.62834	0.333
Mof_C 	C 	0.9798	0.7346	0.71061	-0.234
Mof_C 	C 	0.2117	0.4771	0.51263	0.052
Mof_C 	C 	0.9357	0.4313	0.94551	0.003
Mof_C 	C 	0.028	0.7164	0.75778	0.303
Mof_C 	C 	0.3993	0.4623	0.90423	-0.197
Mof_C 	C 	0.8585	0.9959	0.12175	0.265
Mof_C 	C 	0.0479	0.05507	0.0276	0.013
Mof_C 	C 	0.3462	0.0682	0.0971	-0.229
Mof_C 	C 	0.528	0.7164	0.74222	0.306
Mof_C 	C 	0.7784	0.7954	0.2861	-0.202
Mof_C 	C 	0.9607	0.5475	0.50823	0.028
Mof_C 	C 	0.5639	0.0786	0.05998	-0.211
Mof_C 	C 	0.9007	0.74268	0.12834	0.332
Mof_C 	C 	0.4126	0.7422	0.16344	0.339
Mof_C 	C 	0.3892	0.5256	0.61872	0.277
Mof_C 	C 	0.3756	0.5702	0.84082	-0.752
Mof_C 	C 	0.547	0.8532	0.4569	0.333
Mof_C 	C 	0.3056	0.96997	0.47246	-0.009
Mof_C 	C 	0.3934	0.7685	0.78621	-0.025
Mof_C 	C 	0.453	0.3532	0.5431	0.333
Mof_C 	C 	0.8934	0.7685	0.71379	-0.026
Mof_C 	C 	0.8236	0.9488	0.43771	-0.247
Mof_C 	C 	0.3217	0.1724	0.4559	0.358
Mof_C 	C 	0.342	0.7888	0.8379	0.34
Mof_C 	C 	0.7117	0.6754	0.95657	0.331
Mof_C 	C 	0.199	0.54342	0.98372	-0.041
Mof_C 	C 	0.8266	0.09308	0.05683	-0.014
Mof_C 	C 	0.6473	0.494	0.89509	0.314
Mof_C 	C 	0.3351	0.9472	0.41916	-0.191
Mof_C 	C 	0.6764	0.4488	0.93771	-0.244
Mof_C 	C 	0.6442	0.2839	0.26619	-0.061
Mof_C 	C 	0.2564	0.93	0.96566	0.262
Mof_C 	C 	0.1415	0.4959	0.87825	0.255
Mof_C 	C 	0.0973	0.2657	0.18591	-0.012
Mof_C 	C 	0.4027	0.7657	0.68591	-0.01
Mof_C 	C 	0.5393	0.0475	0.00823	0.023
Mof_C 	C 	0.658	0.2888	0.1621	0.341
Mof_C 	C 	0.3551	0.5494	0.67543	-0.741
Mof_C 	C 	0.0393	0.0475	0.49177	0.035
Mof_C 	C 	0.801	0.04342	0.01628	-0.052
Mof_C 	C 	0.454	0.4746	0.99806	-0.06
Mof_C 	C 	0.9254	0.4311	0.54535	-0.014
Mof_C 	C 	0.1356	0.8487	0.26083	-0.734
Mof_C 	C 	0.0041	0.0943	0.53786	0.286
Mof_C 	C 	0.1454	0.5684	0.89059	-0.188
Mof_C 	C 	0.1021	0.9536	0.10557	-0.213
Mof_C 	C 	0.5771	0.852	0.03852	0.344
Mof_C 	C 	0.4042	0.5365	0.89656	0.274
Mof_C 	C 	0.472	0.2164	0.25778	0.306
Mof_C 	C 	0.8558	0.7839	0.76619	-0.06
Mof_C 	C 	0.0202	0.2346	0.28939	-0.232
Mof_C 	C 	0.8644	0.3487	0.73917	-0.737
Mof_C 	C 	0.5479	0.05507	0.4724	0.012
Mof_C 	C 	0.8642	0.7616	0.28387	-0.038
Mof_C 	C 	0.5965	0.2439	0.73267	-0.051
Mof_C 	C 	0.1944	0.46997	0.97246	-0.003
Mof_C 	C 	0.8888	0.971	0.18003	-0.725
Mof_C 	C 	0.2883	0.9771	0.01263	0.053
Mof_C 	C 	0.3065	0.0964	0.04951	0.019
Mof_C 	C 	0.3602	0.7832	0.63031	0.332
Mof_C 	C 	0.9959	0.5943	0.46214	0.285
Mof_C 	C 	0.2117	0.6754	0.54343	0.331
Mof_C 	C 	0.6108	0.0256	0.38128	0.277
Mof_C 	C 	0.546	0.9746	0.00194	-0.053
Mof_C 	C 	0.8892	0.5256	0.88128	0.278
Mof_C 	C 	0.1473	0.494	0.60491	0.314
Mof_C 	C 	0.3979	0.4536	0.60557	-0.205
Mof_C 	C 	0.0993	0.24268	0.87166	0.332
Mof_C 	C 	0.8756	0.5702	0.65918	-0.752
Mof_C 	C 	0.2787	0.0508	0.00612	-0.095
Mof_C 	C 	0.4634	0.48282	0.51548	-0.063
Mof_C 	C 	0.357	0.7624	0.31655	-0.02
Mof_C 	C 	0.4959	0.5943	0.03786	0.283
Mof_C 	C 	0.1108	0.0256	0.11872	0.284
Mof_C 	C 	0.9035	0.7439	0.23267	-0.052
Mof_C 	C 	0.6415	0.4959	0.62175	0.254
Mof_O 	O 	0.0749	0.81495	0.41743	-0.446
Mof_O 	O 	0.2312	0.93719	0.55689	-0.369
Mof_O 	O 	0.40049	0.7617	0.5873	-0.426
Mof_O 	O 	0.07523	0.82456	0.50961	-0.408
Mof_O 	O 	0.31453	0.19263	0.50512	-0.414
Mof_O 	O 	0.7312	0.93719	0.94311	-0.367
Mof_O 	O 	0.4939	0.71367	0.16744	-0.594
Mof_O 	O 	0.72061	0.34993	0.49602	-0.489
Mof_O 	O 	0.0083	0.66065	0.47258	-0.406
Mof_O 	O 	0.2522	0.36285	0.47579	-0.396
Mof_O 	O 	0.8609	0.76485	0.08489	-0.425
Mof_O 	O 	0.7478	0.86285	0.52421	-0.396
Mof_O 	O 	0.7127	0.32133	0.36844	-0.426
Mof_O 	O 	0.52418	0.20742	0.63055	-0.422
Mof_O 	O 	0.3742	0.7763	0.88418	-0.321
Mof_O 	O 	0.02156	0.17662	0.99842	-0.487
Mof_O 	O 	0.7615	0.45555	0.08116	-0.313
Mof_O 	O 	0.2478	0.86285	0.97579	-0.396
Mof_O 	O 	0.22061	0.34993	0.00398	-0.489
Mof_O 	O 	0.2615	0.45555	0.41884	-0.313
Mof_O 	O 	0.2688	0.43719	0.05689	-0.368
Mof_O 	O 	0.0885	0.80873	0.07376	-0.436
Mof_O 	O 	0.50974	0.33743	0.50531	-0.435
Mof_O 	O 	0.2385	0.95555	0.91884	-0.314
Mof_O 	O 	0.53038	0.59085	0.44439	-0.375
Mof_O 	O 	0.57523	0.82456	0.99039	-0.41
Mof_O 	O 	0.4115	0.30873	0.57376	-0.437
Mof_O 	O 	0.9917	0.16065	0.52742	-0.408
Mof_O 	O 	0.8742	0.7763	0.61582	-0.321
Mof_O 	O 	0.1736	0.71686	0.57701	-0.441
Mof_O 	O 	0.2673	0.69467	0.50561	-0.437
Mof_O 	O 	0.59951	0.2617	0.4127	-0.426
Mof_O 	O 	0.3747	0.7531	0.11748	-0.31
Mof_O 	O 	0.7604	0.81691	0.66772	-0.589
Mof_O 	O 	0.3609	0.76485	0.41511	-0.426
Mof_O 	O 	0.1253	0.2531	0.61748	-0.309
Mof_O 	O 	0.18547	0.69263	0.00512	-0.415
Mof_O 	O 	0.9251	0.31495	0.58257	-0.447
Mof_O 	O 	0.2327	0.19467	0.00561	-0.437
Mof_O 	O 	0.92477	0.32456	0.49039	-0.409
Mof_O 	O 	0.5112	0.5685	0.08462	-0.308
Mof_O 	O 	0.97582	0.70742	0.13055	-0.421
Mof_O 	O 	0.27939	0.84993	0.50398	-0.489
Mof_O 	O 	0.4888	0.0685	0.91538	-0.308
Mof_O 	O 	0.4917	0.16065	0.97258	-0.405
Mof_O 	O 	0.8747	0.7531	0.38252	-0.31
Mof_O 	O 	0.47582	0.70742	0.36945	-0.422
Mof_O 	O 	0.0061	0.21367	0.66744	-0.59
Mof_O 	O 	0.7396	0.31691	0.16772	-0.589
Mof_O 	O 	0.6253	0.2531	0.88252	-0.31
Mof_O 	O 	0.9888	0.0685	0.58462	-0.311
Mof_O 	O 	0.49026	0.83743	0.49469	-0.435
Mof_O 	O 	0.7327	0.19467	0.49439	-0.436
Mof_O 	O 	0.68547	0.69263	0.49488	-0.413
Mof_O 	O 	0.9939	0.71367	0.33256	-0.591
Mof_O 	O 	0.6258	0.2763	0.11582	-0.321
Mof_O 	O 	0.1391	0.26485	0.91511	-0.424
Mof_O 	O 	0.5885	0.80873	0.42624	-0.437
Mof_O 	O 	0.9115	0.30873	0.92624	-0.437
Mof_O 	O 	0.96962	0.09085	0.94439	-0.379
Mof_O 	O 	0.7688	0.43719	0.44311	-0.368
Mof_O 	O 	0.6736	0.71686	0.92299	-0.441
Mof_O 	O 	0.02418	0.20742	0.86945	-0.42
Mof_O 	O 	0.3237	0.21316	0.41408	-0.452
Mof_O 	O 	0.99026	0.83743	0.00531	-0.43
Mof_O 	O 	0.00974	0.33743	0.99469	-0.432
Mof_O 	O 	0.5083	0.66065	0.02742	-0.405
Mof_O 	O 	0.90049	0.7617	0.9127	-0.426
Mof_O 	O 	0.8264	0.21686	0.42299	-0.441
Mof_O 	O 	0.97844	0.67662	0.00158	-0.487
Mof_O 	O 	0.5749	0.81495	0.08257	-0.447
Mof_O 	O 	0.6391	0.26485	0.58489	-0.426
Mof_O 	O 	0.1763	0.71316	0.91408	-0.452
Mof_O 	O 	0.42477	0.32456	0.00961	-0.41
Mof_O 	O 	0.52156	0.17662	0.50158	-0.487
Mof_O 	O 	0.0112	0.5685	0.41538	-0.31
Mof_O 	O 	0.2127	0.32133	0.13156	-0.426
Mof_O 	O 	0.77939	0.84993	0.99602	-0.489
Mof_O 	O 	0.8237	0.21316	0.08592	-0.452
Mof_O 	O 	0.2873	0.82133	0.63156	-0.426
Mof_O 	O 	0.7873	0.82133	0.86844	-0.426
Mof_O 	O 	0.3264	0.21686	0.07701	-0.441
Mof_O 	O 	0.5061	0.21367	0.83256	-0.593
Mof_O 	O 	0.47844	0.67662	0.49842	-0.487
Mof_O 	O 	0.2604	0.81691	0.83228	-0.589
Mof_O 	O 	0.81453	0.19263	0.99488	-0.414
Mof_O 	O 	0.7522	0.36285	0.02421	-0.396
Mof_O 	O 	0.7385	0.95555	0.58116	-0.313
Mof_O 	O 	0.7673	0.69467	0.99439	-0.437
Mof_O 	O 	0.46962	0.09085	0.55561	-0.374
Mof_O 	O 	0.03038	0.59085	0.05561	-0.378
Mof_O 	O 	0.1258	0.2763	0.38418	-0.321
Mof_O 	O 	0.2396	0.31691	0.33228	-0.589
Mof_O 	O 	0.09951	0.2617	0.0873	-0.426
Mof_O 	O 	0.6763	0.71316	0.58592	-0.452
Mof_O 	O 	0.4251	0.31495	0.91743	-0.447
_end
