data_functionalizedCrystal
_audit_creation_method	'EQeq! by Chris Wilmer'
_symmetry_space_group_name_H-M	'P1'
_symmetry_Int_Tables_number	1
_symmetry_cell_setting	triclinic
loop_
_symmetry_equiv_pos_as_xyz
  x,y,z
_cell_length_a	27.72
_cell_length_b	13.3016
_cell_length_c	20.327
_cell_angle_alpha	90
_cell_angle_beta	96.448
_cell_angle_gamma	90
loop_
_atom_site_label
_atom_site_type_symbol
_atom_site_fract_x
_atom_site_fract_y
_atom_site_fract_z
_atom_site_charge
Mof_W 	W 	0.85623	0.47097	0.85893	0.266
Mof_Cu	Cu	0.91189	0.54475	0.76889	0.832
Mof_Cu	Cu	0.80922	0.64932	0.86964	0.827
Mof_Cu	Cu	0.78742	0.41981	0.75882	0.827
Mof_S 	S 	0.87006	0.39461	0.76407	-0.486
Mof_S 	S 	0.77551	0.48961	0.85952	-0.486
Mof_S 	S 	0.89175	0.62348	0.86262	-0.472
Mof_N 	N 	0.7519	0.8116	0.7853	-0.196
Mof_N 	N 	0.8181	0.7073	0.968	-0.235
Mof_N 	N 	0.9004	0.0159	0.3837	-0.127
Mof_N 	N 	0.8849	0.635	0.6901	-0.249
Mof_N 	N 	0.7326	0.9724	0.3174	-0.241
Mof_C 	C 	0.8035	0.7991	0.9807	0.09
Mof_H 	H 	0.7838	0.8347	0.9472	-0.016
Mof_C 	C 	0.8464	0.6602	0.0172	0.096
Mof_H 	H 	0.8587	0.5953	0.0091	-0.028
Mof_C 	C 	0.8578	0.7034	0.0786	-0.191
Mof_H 	H 	0.8759	0.6644	0.1119	0.085
Mof_C 	C 	0.8452	0.795	0.0942	0.138
Mof_C 	C 	0.7733	0.7529	0.8182	-0.176
Mof_C 	C 	0.8993	0.6189	0.6297	0.074
Mof_H 	H 	0.9238	0.5702	0.6253	-0.02
Mof_C 	C 	0.8504	0.7031	0.6942	0.094
Mof_H 	H 	0.8398	0.7153	0.7363	-0.05
Mof_C 	C 	0.8296	0.7562	0.6419	-0.161
Mof_H 	H 	0.8049	0.8039	0.6479	0.077
Mof_C 	C 	0.8439	0.7414	0.5802	0.098
Mof_C 	C 	0.7655	0.8991	0.3135	0.065
Mof_H 	H 	0.7734	0.88	0.271	-0.022
Mof_C 	C 	0.7216	0.9927	0.3774	0.079
Mof_H 	H 	0.6973	0.0419	0.3817	-0.02
Mof_N 	N 	0.9806	0.5411	0.757	0.073
Mof_C 	C 	0.9799	0.522	0.7545	-0.28
Mof_C 	C 	0.7432	0.9471	0.4349	-0.144
Mof_H 	H 	0.7342	0.9669	0.4768	0.074
Mof_C 	C 	0.9125	0.9238	0.3667	0.071
Mof_H 	H 	0.9301	0.883	0.3994	0.01
Mof_C 	C 	0.8626	0.0335	0.2741	-0.115
Mof_H 	H 	0.8399	0.0739	0.2427	0.049
Mof_C 	C 	0.8741	0.938	0.2553	0.067
Mof_C 	C 	0.8624	0.8325	0.1602	-0.139
Mof_H 	H 	0.8836	0.7871	0.1853	0.077
Mof_C 	C 	0.8163	0.8459	0.0426	-0.178
Mof_H 	H 	0.8054	0.9123	0.0498	0.086
Mof_C 	C 	0.9008	0.8829	0.3033	-0.137
Mof_H 	H 	0.9114	0.8172	0.2937	0.074
Mof_C 	C 	0.856	0.9038	0.1874	-0.026
Mof_H 	H 	0.8352	0.9505	0.1627	0.036
Mof_C 	C 	0.7779	0.8727	0.4313	0.087
Mof_C 	C 	0.88	0.6704	0.5746	-0.151
Mof_H 	H 	0.8911	0.6576	0.5329	0.07
Mof_C 	C 	0.685	0.6981	0.5277	-0.036
Mof_C 	C 	0.7918	0.8393	0.5044	0.004
Mof_C 	C 	0.7884	0.8498	0.369	-0.137
Mof_H 	H 	0.8118	0.7993	0.3633	0.062
Mof_C 	C 	0.8699	0.065	0.3446	0.018
Mof_C 	C 	0.881	0.076	0.3292	0.041
Mof_C 	C 	0.8316	0.7789	0.5118	-0.012
Mof_C 	C 	0.8079	0.8139	0.535	-0.03
Mof_W 	W 	0.35623	0.97097	0.85893	0.268
Mof_Cu	Cu	0.41189	0.04475	0.76889	0.833
Mof_Cu	Cu	0.30922	0.14932	0.86964	0.828
Mof_Cu	Cu	0.28742	0.91981	0.75882	0.828
Mof_S 	S 	0.37006	0.89461	0.76407	-0.485
Mof_S 	S 	0.27551	0.98961	0.85952	-0.484
Mof_S 	S 	0.39175	0.12348	0.86262	-0.472
Mof_N 	N 	0.2519	0.3116	0.7853	-0.195
Mof_N 	N 	0.3181	0.2073	0.968	-0.234
Mof_N 	N 	0.4004	0.5159	0.3837	-0.126
Mof_N 	N 	0.3849	0.135	0.6901	-0.248
Mof_N 	N 	0.2326	0.4724	0.3174	-0.24
Mof_C 	C 	0.3035	0.2991	0.9807	0.09
Mof_H 	H 	0.2838	0.3347	0.9472	-0.015
Mof_C 	C 	0.3464	0.1602	0.0172	0.097
Mof_H 	H 	0.3587	0.0953	0.0091	-0.027
Mof_C 	C 	0.3578	0.2034	0.0786	-0.19
Mof_H 	H 	0.3759	0.1644	0.1119	0.084
Mof_C 	C 	0.3452	0.295	0.0942	0.137
Mof_C 	C 	0.2733	0.2529	0.8182	-0.176
Mof_C 	C 	0.3993	0.1189	0.6297	0.074
Mof_H 	H 	0.4238	0.0702	0.6253	-0.02
Mof_C 	C 	0.3504	0.2031	0.6942	0.094
Mof_H 	H 	0.3398	0.2153	0.7363	-0.05
Mof_C 	C 	0.3296	0.2562	0.6419	-0.161
Mof_H 	H 	0.3049	0.3039	0.6479	0.077
Mof_C 	C 	0.3439	0.2414	0.5802	0.098
Mof_C 	C 	0.2655	0.3991	0.3135	0.065
Mof_H 	H 	0.2734	0.38	0.271	-0.022
Mof_C 	C 	0.2216	0.4927	0.3774	0.079
Mof_H 	H 	0.1973	0.5419	0.3817	-0.021
Mof_N 	N 	0.4806	0.0411	0.757	0.073
Mof_C 	C 	0.4799	0.022	0.7545	-0.28
Mof_C 	C 	0.2432	0.4471	0.4349	-0.144
Mof_H 	H 	0.2342	0.4669	0.4768	0.074
Mof_C 	C 	0.4125	0.4238	0.3667	0.072
Mof_H 	H 	0.4301	0.383	0.3994	0.01
Mof_C 	C 	0.3626	0.5335	0.2741	-0.117
Mof_H 	H 	0.3399	0.5739	0.2427	0.05
Mof_C 	C 	0.3741	0.438	0.2553	0.068
Mof_C 	C 	0.3624	0.3325	0.1602	-0.137
Mof_H 	H 	0.3836	0.2871	0.1853	0.076
Mof_C 	C 	0.3163	0.3459	0.0426	-0.175
Mof_H 	H 	0.3054	0.4123	0.0498	0.086
Mof_C 	C 	0.4008	0.3829	0.3033	-0.138
Mof_H 	H 	0.4114	0.3172	0.2937	0.074
Mof_C 	C 	0.356	0.4038	0.1874	-0.028
Mof_H 	H 	0.3352	0.4505	0.1627	0.037
Mof_C 	C 	0.2779	0.3727	0.4313	0.087
Mof_C 	C 	0.38	0.1704	0.5746	-0.151
Mof_H 	H 	0.3911	0.1576	0.5329	0.07
Mof_C 	C 	0.185	0.1981	0.5277	-0.036
Mof_C 	C 	0.2918	0.3393	0.5044	0.004
Mof_C 	C 	0.2884	0.3498	0.369	-0.137
Mof_H 	H 	0.3118	0.2993	0.3633	0.062
Mof_C 	C 	0.3699	0.565	0.3446	0.018
Mof_C 	C 	0.381	0.576	0.3292	0.041
Mof_C 	C 	0.3316	0.2789	0.5118	-0.012
Mof_C 	C 	0.3079	0.3139	0.535	-0.03
Mof_W 	W 	0.14377	0.47097	0.64107	0.267
Mof_Cu	Cu	0.08811	0.54475	0.73111	0.833
Mof_Cu	Cu	0.19078	0.64932	0.63036	0.828
Mof_Cu	Cu	0.21258	0.41981	0.74118	0.828
Mof_S 	S 	0.12994	0.39461	0.73593	-0.485
Mof_S 	S 	0.22449	0.48961	0.64048	-0.485
Mof_S 	S 	0.10825	0.62348	0.63738	-0.471
Mof_N 	N 	0.2481	0.8116	0.7147	-0.195
Mof_N 	N 	0.1819	0.7073	0.532	-0.234
Mof_N 	N 	0.0996	0.0159	0.1163	-0.125
Mof_N 	N 	0.1151	0.635	0.8099	-0.248
Mof_N 	N 	0.2674	0.9724	0.1826	-0.24
Mof_C 	C 	0.1965	0.7991	0.5193	0.09
Mof_H 	H 	0.2162	0.8347	0.5528	-0.015
Mof_C 	C 	0.1536	0.6602	0.4828	0.097
Mof_H 	H 	0.1413	0.5953	0.4909	-0.028
Mof_C 	C 	0.1422	0.7034	0.4214	-0.191
Mof_H 	H 	0.1241	0.6644	0.3881	0.084
Mof_C 	C 	0.1548	0.795	0.4058	0.138
Mof_C 	C 	0.2267	0.7529	0.6818	-0.176
Mof_C 	C 	0.1007	0.6189	0.8703	0.074
Mof_H 	H 	0.0762	0.5702	0.8747	-0.02
Mof_C 	C 	0.1496	0.7031	0.8058	0.094
Mof_H 	H 	0.1602	0.7153	0.7637	-0.05
Mof_C 	C 	0.1704	0.7562	0.8581	-0.161
Mof_H 	H 	0.1951	0.8039	0.8521	0.077
Mof_C 	C 	0.1561	0.7414	0.9198	0.098
Mof_C 	C 	0.2345	0.8991	0.1865	0.065
Mof_H 	H 	0.2266	0.88	0.229	-0.022
Mof_C 	C 	0.2784	0.9927	0.1226	0.078
Mof_H 	H 	0.3027	0.0419	0.1183	-0.02
Mof_N 	N 	0.0194	0.5411	0.743	0.073
Mof_C 	C 	0.0201	0.522	0.7455	-0.28
Mof_C 	C 	0.2568	0.9471	0.0651	-0.143
Mof_H 	H 	0.2658	0.9669	0.0232	0.074
Mof_C 	C 	0.0875	0.9238	0.1333	0.071
Mof_H 	H 	0.0699	0.883	0.1006	0.01
Mof_C 	C 	0.1374	0.0335	0.2259	-0.115
Mof_H 	H 	0.1601	0.0739	0.2573	0.049
Mof_C 	C 	0.1259	0.938	0.2447	0.067
Mof_C 	C 	0.1376	0.8325	0.3398	-0.139
Mof_H 	H 	0.1164	0.7871	0.3147	0.077
Mof_C 	C 	0.1837	0.8459	0.4574	-0.176
Mof_H 	H 	0.1946	0.9123	0.4502	0.086
Mof_C 	C 	0.0992	0.8829	0.1967	-0.136
Mof_H 	H 	0.0886	0.8172	0.2063	0.073
Mof_C 	C 	0.144	0.9038	0.3126	-0.026
Mof_H 	H 	0.1648	0.9505	0.3373	0.036
Mof_C 	C 	0.2221	0.8727	0.0687	0.087
Mof_C 	C 	0.12	0.6704	0.9254	-0.151
Mof_H 	H 	0.1089	0.6576	0.9671	0.07
Mof_C 	C 	0.315	0.6981	0.9723	-0.037
Mof_C 	C 	0.2082	0.8393	0.9956	0.002
Mof_C 	C 	0.2116	0.8498	0.131	-0.137
Mof_H 	H 	0.1882	0.7993	0.1367	0.062
Mof_C 	C 	0.1301	0.065	0.1554	0.018
Mof_C 	C 	0.119	0.076	0.1708	0.041
Mof_C 	C 	0.1684	0.7789	0.9882	-0.014
Mof_C 	C 	0.1921	0.8139	0.965	-0.026
Mof_W 	W 	0.64377	0.97097	0.64107	0.267
Mof_Cu	Cu	0.58811	0.04475	0.73111	0.833
Mof_Cu	Cu	0.69078	0.14932	0.63036	0.828
Mof_Cu	Cu	0.71258	0.91981	0.74118	0.828
Mof_S 	S 	0.62994	0.89461	0.73593	-0.485
Mof_S 	S 	0.72449	0.98961	0.64048	-0.485
Mof_S 	S 	0.60825	0.12348	0.63738	-0.471
Mof_N 	N 	0.7481	0.3116	0.7147	-0.195
Mof_N 	N 	0.6819	0.2073	0.532	-0.234
Mof_N 	N 	0.5996	0.5159	0.1163	-0.126
Mof_N 	N 	0.6151	0.135	0.8099	-0.248
Mof_N 	N 	0.7674	0.4724	0.1826	-0.24
Mof_C 	C 	0.6965	0.2991	0.5193	0.09
Mof_H 	H 	0.7162	0.3347	0.5528	-0.015
Mof_C 	C 	0.6536	0.1602	0.4828	0.097
Mof_H 	H 	0.6413	0.0953	0.4909	-0.028
Mof_C 	C 	0.6422	0.2034	0.4214	-0.19
Mof_H 	H 	0.6241	0.1644	0.3881	0.084
Mof_C 	C 	0.6548	0.295	0.4058	0.137
Mof_C 	C 	0.7267	0.2529	0.6818	-0.176
Mof_C 	C 	0.6007	0.1189	0.8703	0.074
Mof_H 	H 	0.5762	0.0702	0.8747	-0.02
Mof_C 	C 	0.6496	0.2031	0.8058	0.094
Mof_H 	H 	0.6602	0.2153	0.7637	-0.05
Mof_C 	C 	0.6704	0.2562	0.8581	-0.161
Mof_H 	H 	0.6951	0.3039	0.8521	0.077
Mof_C 	C 	0.6561	0.2414	0.9198	0.098
Mof_C 	C 	0.7345	0.3991	0.1865	0.065
Mof_H 	H 	0.7266	0.38	0.229	-0.022
Mof_C 	C 	0.7784	0.4927	0.1226	0.079
Mof_H 	H 	0.8027	0.5419	0.1183	-0.021
Mof_N 	N 	0.5194	0.0411	0.743	0.073
Mof_C 	C 	0.5201	0.022	0.7455	-0.28
Mof_C 	C 	0.7568	0.4471	0.0651	-0.144
Mof_H 	H 	0.7658	0.4669	0.0232	0.074
Mof_C 	C 	0.5875	0.4238	0.1333	0.072
Mof_H 	H 	0.5699	0.383	0.1006	0.01
Mof_C 	C 	0.6374	0.5335	0.2259	-0.117
Mof_H 	H 	0.6601	0.5739	0.2573	0.05
Mof_C 	C 	0.6259	0.438	0.2447	0.068
Mof_C 	C 	0.6376	0.3325	0.3398	-0.137
Mof_H 	H 	0.6164	0.2871	0.3147	0.076
Mof_C 	C 	0.6837	0.3459	0.4574	-0.176
Mof_H 	H 	0.6946	0.4123	0.4502	0.086
Mof_C 	C 	0.5992	0.3829	0.1967	-0.137
Mof_H 	H 	0.5886	0.3172	0.2063	0.074
Mof_C 	C 	0.644	0.4038	0.3126	-0.028
Mof_H 	H 	0.6648	0.4505	0.3373	0.037
Mof_C 	C 	0.7221	0.3727	0.0687	0.087
Mof_C 	C 	0.62	0.1704	0.9254	-0.151
Mof_H 	H 	0.6089	0.1576	0.9671	0.069
Mof_C 	C 	0.815	0.1981	0.9723	-0.035
Mof_C 	C 	0.7082	0.3393	0.9956	0.006
Mof_C 	C 	0.7116	0.3498	0.131	-0.136
Mof_H 	H 	0.6882	0.2993	0.1367	0.062
Mof_C 	C 	0.6301	0.565	0.1554	0.018
Mof_C 	C 	0.619	0.576	0.1708	0.041
Mof_C 	C 	0.6684	0.2789	0.9882	-0.011
Mof_C 	C 	0.6921	0.3139	0.965	-0.032
Mof_W 	W 	0.14377	0.52903	0.14107	0.267
Mof_Cu	Cu	0.08811	0.45525	0.23111	0.833
Mof_Cu	Cu	0.19078	0.35068	0.13036	0.828
Mof_Cu	Cu	0.21258	0.58019	0.24118	0.828
Mof_S 	S 	0.12994	0.60539	0.23593	-0.485
Mof_S 	S 	0.22449	0.51039	0.14048	-0.485
Mof_S 	S 	0.10825	0.37652	0.13738	-0.471
Mof_N 	N 	0.2481	0.1884	0.2147	-0.195
Mof_N 	N 	0.1819	0.2927	0.032	-0.234
Mof_N 	N 	0.0996	0.9841	0.6163	-0.126
Mof_N 	N 	0.1151	0.365	0.3099	-0.248
Mof_N 	N 	0.2674	0.0276	0.6826	-0.24
Mof_C 	C 	0.1965	0.2009	0.0193	0.091
Mof_H 	H 	0.2162	0.1653	0.0528	-0.015
Mof_C 	C 	0.1536	0.3398	0.9828	0.096
Mof_H 	H 	0.1413	0.4047	0.9909	-0.028
Mof_C 	C 	0.1422	0.2966	0.9214	-0.191
Mof_H 	H 	0.1241	0.3356	0.8881	0.085
Mof_C 	C 	0.1548	0.205	0.9058	0.138
Mof_C 	C 	0.2267	0.2471	0.1818	-0.176
Mof_C 	C 	0.1007	0.3811	0.3703	0.074
Mof_H 	H 	0.0762	0.4298	0.3747	-0.02
Mof_C 	C 	0.1496	0.2969	0.3058	0.094
Mof_H 	H 	0.1602	0.2847	0.2637	-0.05
Mof_C 	C 	0.1704	0.2438	0.3581	-0.161
Mof_H 	H 	0.1951	0.1961	0.3521	0.077
Mof_C 	C 	0.1561	0.2586	0.4198	0.098
Mof_C 	C 	0.2345	0.1009	0.6865	0.065
Mof_H 	H 	0.2266	0.12	0.729	-0.022
Mof_C 	C 	0.2784	0.0073	0.6226	0.079
Mof_H 	H 	0.3027	0.9581	0.6183	-0.02
Mof_N 	N 	0.0194	0.4589	0.243	0.073
Mof_C 	C 	0.0201	0.478	0.2455	-0.28
Mof_C 	C 	0.2568	0.0529	0.5651	-0.144
Mof_H 	H 	0.2658	0.0331	0.5232	0.074
Mof_C 	C 	0.0875	0.0762	0.6333	0.071
Mof_H 	H 	0.0699	0.117	0.6006	0.01
Mof_C 	C 	0.1374	0.9665	0.7259	-0.115
Mof_H 	H 	0.1601	0.9261	0.7573	0.049
Mof_C 	C 	0.1259	0.062	0.7447	0.067
Mof_C 	C 	0.1376	0.1675	0.8398	-0.139
Mof_H 	H 	0.1164	0.2129	0.8147	0.077
Mof_C 	C 	0.1837	0.1541	0.9574	-0.178
Mof_H 	H 	0.1946	0.0877	0.9502	0.086
Mof_C 	C 	0.0992	0.1171	0.6967	-0.137
Mof_H 	H 	0.0886	0.1828	0.7063	0.074
Mof_C 	C 	0.144	0.0962	0.8126	-0.026
Mof_H 	H 	0.1648	0.0495	0.8373	0.036
Mof_C 	C 	0.2221	0.1273	0.5687	0.087
Mof_C 	C 	0.12	0.3296	0.4254	-0.151
Mof_H 	H 	0.1089	0.3424	0.4671	0.07
Mof_C 	C 	0.315	0.3019	0.4723	-0.036
Mof_C 	C 	0.2082	0.1607	0.4956	0.004
Mof_C 	C 	0.2116	0.1502	0.631	-0.137
Mof_H 	H 	0.1882	0.2007	0.6367	0.062
Mof_C 	C 	0.1301	0.935	0.6554	0.018
Mof_C 	C 	0.119	0.924	0.6708	0.041
Mof_C 	C 	0.1684	0.2211	0.4882	-0.012
Mof_C 	C 	0.1921	0.1861	0.465	-0.03
Mof_W 	W 	0.64377	0.02903	0.14107	0.268
Mof_Cu	Cu	0.58811	0.95525	0.23111	0.833
Mof_Cu	Cu	0.69078	0.85068	0.13036	0.828
Mof_Cu	Cu	0.71258	0.08019	0.24118	0.828
Mof_S 	S 	0.62994	0.10539	0.23593	-0.485
Mof_S 	S 	0.72449	0.01039	0.14048	-0.484
Mof_S 	S 	0.60825	0.87652	0.13738	-0.472
Mof_N 	N 	0.7481	0.6884	0.2147	-0.195
Mof_N 	N 	0.6819	0.7927	0.032	-0.234
Mof_N 	N 	0.5996	0.4841	0.6163	-0.126
Mof_N 	N 	0.6151	0.865	0.3099	-0.248
Mof_N 	N 	0.7674	0.5276	0.6826	-0.24
Mof_C 	C 	0.6965	0.7009	0.0193	0.09
Mof_H 	H 	0.7162	0.6653	0.0528	-0.015
Mof_C 	C 	0.6536	0.8398	0.9828	0.097
Mof_H 	H 	0.6413	0.9047	0.9909	-0.027
Mof_C 	C 	0.6422	0.7966	0.9214	-0.19
Mof_H 	H 	0.6241	0.8356	0.8881	0.084
Mof_C 	C 	0.6548	0.705	0.9058	0.137
Mof_C 	C 	0.7267	0.7471	0.1818	-0.176
Mof_C 	C 	0.6007	0.8811	0.3703	0.074
Mof_H 	H 	0.5762	0.9298	0.3747	-0.02
Mof_C 	C 	0.6496	0.7969	0.3058	0.094
Mof_H 	H 	0.6602	0.7847	0.2637	-0.05
Mof_C 	C 	0.6704	0.7438	0.3581	-0.161
Mof_H 	H 	0.6951	0.6961	0.3521	0.077
Mof_C 	C 	0.6561	0.7586	0.4198	0.098
Mof_C 	C 	0.7345	0.6009	0.6865	0.065
Mof_H 	H 	0.7266	0.62	0.729	-0.022
Mof_C 	C 	0.7784	0.5073	0.6226	0.079
Mof_H 	H 	0.8027	0.4581	0.6183	-0.021
Mof_N 	N 	0.5194	0.9589	0.243	0.073
Mof_C 	C 	0.5201	0.978	0.2455	-0.28
Mof_C 	C 	0.7568	0.5529	0.5651	-0.144
Mof_H 	H 	0.7658	0.5331	0.5232	0.074
Mof_C 	C 	0.5875	0.5762	0.6333	0.072
Mof_H 	H 	0.5699	0.617	0.6006	0.01
Mof_C 	C 	0.6374	0.4665	0.7259	-0.117
Mof_H 	H 	0.6601	0.4261	0.7573	0.05
Mof_C 	C 	0.6259	0.562	0.7447	0.068
Mof_C 	C 	0.6376	0.6675	0.8398	-0.137
Mof_H 	H 	0.6164	0.7129	0.8147	0.076
Mof_C 	C 	0.6837	0.6541	0.9574	-0.175
Mof_H 	H 	0.6946	0.5877	0.9502	0.086
Mof_C 	C 	0.5992	0.6171	0.6967	-0.138
Mof_H 	H 	0.5886	0.6828	0.7063	0.074
Mof_C 	C 	0.644	0.5962	0.8126	-0.028
Mof_H 	H 	0.6648	0.5495	0.8373	0.037
Mof_C 	C 	0.7221	0.6273	0.5687	0.087
Mof_C 	C 	0.62	0.8296	0.4254	-0.151
Mof_H 	H 	0.6089	0.8424	0.4671	0.07
Mof_C 	C 	0.815	0.8019	0.4723	-0.036
Mof_C 	C 	0.7082	0.6607	0.4956	0.004
Mof_C 	C 	0.7116	0.6502	0.631	-0.137
Mof_H 	H 	0.6882	0.7007	0.6367	0.062
Mof_C 	C 	0.6301	0.435	0.6554	0.018
Mof_C 	C 	0.619	0.424	0.6708	0.041
Mof_C 	C 	0.6684	0.7211	0.4882	-0.012
Mof_C 	C 	0.6921	0.6861	0.465	-0.03
Mof_W 	W 	0.85623	0.52903	0.35893	0.267
Mof_Cu	Cu	0.91189	0.45525	0.26889	0.833
Mof_Cu	Cu	0.80922	0.35068	0.36964	0.828
Mof_Cu	Cu	0.78742	0.58019	0.25882	0.828
Mof_S 	S 	0.87006	0.60539	0.26407	-0.485
Mof_S 	S 	0.77551	0.51039	0.35952	-0.485
Mof_S 	S 	0.89175	0.37652	0.36262	-0.471
Mof_N 	N 	0.7519	0.1884	0.2853	-0.195
Mof_N 	N 	0.8181	0.2927	0.468	-0.234
Mof_N 	N 	0.9004	0.9841	0.8837	-0.125
Mof_N 	N 	0.8849	0.365	0.1901	-0.248
Mof_N 	N 	0.7326	0.0276	0.8174	-0.24
Mof_C 	C 	0.8035	0.2009	0.4807	0.09
Mof_H 	H 	0.7838	0.1653	0.4472	-0.015
Mof_C 	C 	0.8464	0.3398	0.5172	0.097
Mof_H 	H 	0.8587	0.4047	0.5091	-0.028
Mof_C 	C 	0.8578	0.2966	0.5786	-0.191
Mof_H 	H 	0.8759	0.3356	0.6119	0.084
Mof_C 	C 	0.8452	0.205	0.5942	0.138
Mof_C 	C 	0.7733	0.2471	0.3182	-0.176
Mof_C 	C 	0.8993	0.3811	0.1297	0.074
Mof_H 	H 	0.9238	0.4298	0.1253	-0.02
Mof_C 	C 	0.8504	0.2969	0.1942	0.094
Mof_H 	H 	0.8398	0.2847	0.2363	-0.05
Mof_C 	C 	0.8296	0.2438	0.1419	-0.161
Mof_H 	H 	0.8049	0.1961	0.1479	0.077
Mof_C 	C 	0.8439	0.2586	0.0802	0.098
Mof_C 	C 	0.7655	0.1009	0.8135	0.065
Mof_H 	H 	0.7734	0.12	0.771	-0.022
Mof_C 	C 	0.7216	0.0073	0.8774	0.078
Mof_H 	H 	0.6973	0.9581	0.8817	-0.02
Mof_N 	N 	0.9806	0.4589	0.257	0.073
Mof_C 	C 	0.9799	0.478	0.2545	-0.28
Mof_C 	C 	0.7432	0.0529	0.9349	-0.143
Mof_H 	H 	0.7342	0.0331	0.9768	0.074
Mof_C 	C 	0.9125	0.0762	0.8667	0.071
Mof_H 	H 	0.9301	0.117	0.8994	0.01
Mof_C 	C 	0.8626	0.9665	0.7741	-0.115
Mof_H 	H 	0.8399	0.9261	0.7427	0.049
Mof_C 	C 	0.8741	0.062	0.7553	0.067
Mof_C 	C 	0.8624	0.1675	0.6602	-0.139
Mof_H 	H 	0.8836	0.2129	0.6853	0.077
Mof_C 	C 	0.8163	0.1541	0.5426	-0.176
Mof_H 	H 	0.8054	0.0877	0.5498	0.086
Mof_C 	C 	0.9008	0.1171	0.8033	-0.136
Mof_H 	H 	0.9114	0.1828	0.7937	0.073
Mof_C 	C 	0.856	0.0962	0.6874	-0.026
Mof_H 	H 	0.8352	0.0495	0.6627	0.036
Mof_C 	C 	0.7779	0.1273	0.9313	0.087
Mof_C 	C 	0.88	0.3296	0.0746	-0.151
Mof_H 	H 	0.8911	0.3424	0.0329	0.07
Mof_C 	C 	0.685	0.3019	0.0277	-0.037
Mof_C 	C 	0.7918	0.1607	0.0044	0.002
Mof_C 	C 	0.7884	0.1502	0.869	-0.137
Mof_H 	H 	0.8118	0.2007	0.8633	0.062
Mof_C 	C 	0.8699	0.935	0.8446	0.018
Mof_C 	C 	0.881	0.924	0.8292	0.041
Mof_C 	C 	0.8316	0.2211	0.0118	-0.014
Mof_C 	C 	0.8079	0.1861	0.035	-0.026
Mof_W 	W 	0.35623	0.02903	0.35893	0.267
Mof_Cu	Cu	0.41189	0.95525	0.26889	0.833
Mof_Cu	Cu	0.30922	0.85068	0.36964	0.828
Mof_Cu	Cu	0.28742	0.08019	0.25882	0.828
Mof_S 	S 	0.37006	0.10539	0.26407	-0.485
Mof_S 	S 	0.27551	0.01039	0.35952	-0.485
Mof_S 	S 	0.39175	0.87652	0.36262	-0.471
Mof_N 	N 	0.2519	0.6884	0.2853	-0.195
Mof_N 	N 	0.3181	0.7927	0.468	-0.234
Mof_N 	N 	0.4004	0.4841	0.8837	-0.126
Mof_N 	N 	0.3849	0.865	0.1901	-0.248
Mof_N 	N 	0.2326	0.5276	0.8174	-0.24
Mof_C 	C 	0.3035	0.7009	0.4807	0.09
Mof_H 	H 	0.2838	0.6653	0.4472	-0.015
Mof_C 	C 	0.3464	0.8398	0.5172	0.097
Mof_H 	H 	0.3587	0.9047	0.5091	-0.028
Mof_C 	C 	0.3578	0.7966	0.5786	-0.19
Mof_H 	H 	0.3759	0.8356	0.6119	0.084
Mof_C 	C 	0.3452	0.705	0.5942	0.137
Mof_C 	C 	0.2733	0.7471	0.3182	-0.176
Mof_C 	C 	0.3993	0.8811	0.1297	0.074
Mof_H 	H 	0.4238	0.9298	0.1253	-0.02
Mof_C 	C 	0.3504	0.7969	0.1942	0.094
Mof_H 	H 	0.3398	0.7847	0.2363	-0.05
Mof_C 	C 	0.3296	0.7438	0.1419	-0.161
Mof_H 	H 	0.3049	0.6961	0.1479	0.077
Mof_C 	C 	0.3439	0.7586	0.0802	0.098
Mof_C 	C 	0.2655	0.6009	0.8135	0.065
Mof_H 	H 	0.2734	0.62	0.771	-0.022
Mof_C 	C 	0.2216	0.5073	0.8774	0.079
Mof_H 	H 	0.1973	0.4581	0.8817	-0.021
Mof_N 	N 	0.4806	0.9589	0.257	0.073
Mof_C 	C 	0.4799	0.978	0.2545	-0.28
Mof_C 	C 	0.2432	0.5529	0.9349	-0.144
Mof_H 	H 	0.2342	0.5331	0.9768	0.074
Mof_C 	C 	0.4125	0.5762	0.8667	0.072
Mof_H 	H 	0.4301	0.617	0.8994	0.01
Mof_C 	C 	0.3626	0.4665	0.7741	-0.117
Mof_H 	H 	0.3399	0.4261	0.7427	0.05
Mof_C 	C 	0.3741	0.562	0.7553	0.068
Mof_C 	C 	0.3624	0.6675	0.6602	-0.137
Mof_H 	H 	0.3836	0.7129	0.6853	0.076
Mof_C 	C 	0.3163	0.6541	0.5426	-0.176
Mof_H 	H 	0.3054	0.5877	0.5498	0.086
Mof_C 	C 	0.4008	0.6171	0.8033	-0.137
Mof_H 	H 	0.4114	0.6828	0.7937	0.074
Mof_C 	C 	0.356	0.5962	0.6874	-0.028
Mof_H 	H 	0.3352	0.5495	0.6627	0.037
Mof_C 	C 	0.2779	0.6273	0.9313	0.087
Mof_C 	C 	0.38	0.8296	0.0746	-0.151
Mof_H 	H 	0.3911	0.8424	0.0329	0.069
Mof_C 	C 	0.185	0.8019	0.0277	-0.035
Mof_C 	C 	0.2918	0.6607	0.0044	0.006
Mof_C 	C 	0.2884	0.6502	0.869	-0.136
Mof_H 	H 	0.3118	0.7007	0.8633	0.062
Mof_C 	C 	0.3699	0.435	0.8446	0.018
Mof_C 	C 	0.381	0.424	0.8292	0.041
Mof_C 	C 	0.3316	0.7211	0.0118	-0.011
Mof_C 	C 	0.3079	0.6861	0.035	-0.032
_end
