data_functionalizedCrystal
_audit_creation_method	'EQeq! by Chris Wilmer'
_symmetry_space_group_name_H-M	'P1'
_symmetry_Int_Tables_number	1
_symmetry_cell_setting	triclinic
loop_
_symmetry_equiv_pos_as_xyz
  x,y,z
_cell_length_a	9.5515
_cell_length_b	9.5515
_cell_length_c	15.39
_cell_angle_alpha	92.7105
_cell_angle_beta	92.7105
_cell_angle_gamma	98.2997
loop_
_atom_site_label
_atom_site_type_symbol
_atom_site_fract_x
_atom_site_fract_y
_atom_site_fract_z
_atom_site_charge
Mof_Ho	Ho	0.00995	0.99005	0.75	1.539
Mof_Ho	Ho	0.99005	0.00995	0.25	1.539
Mof_P 	P 	0.35318	0.04408	0.64512	0.426
Mof_P 	P 	0.65288	0.97686	0.65454	0.421
Mof_P 	P 	0.95592	0.64682	0.85488	0.426
Mof_P 	P 	0.02314	0.34712	0.84546	0.422
Mof_P 	P 	0.64682	0.95592	0.35488	0.425
Mof_P 	P 	0.34712	0.02314	0.34546	0.42
Mof_P 	P 	0.04408	0.35318	0.14512	0.425
Mof_P 	P 	0.97686	0.65288	0.15454	0.421
Mof_H 	H 	0.4247	0.8311	0.7356	0.196
Mof_H 	H 	0.4714	0.166	0.8134	0.148
Mof_H 	H 	0.6283	0.1257	0.8181	0.145
Mof_H 	H 	0.5838	0.2294	0.7464	0.132
Mof_H 	H 	0.1689	0.5753	0.7644	0.196
Mof_H 	H 	0.834	0.5286	0.6866	0.147
Mof_H 	H 	0.8743	0.3717	0.6819	0.144
Mof_H 	H 	0.7706	0.4162	0.7536	0.132
Mof_H 	H 	0.5753	0.1689	0.2644	0.196
Mof_H 	H 	0.5286	0.834	0.1866	0.148
Mof_H 	H 	0.3717	0.8743	0.1819	0.145
Mof_H 	H 	0.4162	0.7706	0.2536	0.132
Mof_H 	H 	0.8311	0.4247	0.2356	0.196
Mof_H 	H 	0.166	0.4714	0.3134	0.147
Mof_H 	H 	0.1257	0.6283	0.3181	0.144
Mof_H 	H 	0.2294	0.5838	0.2464	0.132
Mof_Ru	Ru	0.5453	0.12146	0.50194	0.876
Mof_Ru	Ru	0.87854	0.4547	0.99806	0.876
Mof_Ru	Ru	0.4547	0.87854	0.49806	0.876
Mof_Ru	Ru	0.12146	0.5453	0.00194	0.876
Mof_C 	C 	0.5031	0.0207	0.7163	0.033
Mof_C 	C 	0.5509	0.1465	0.779	-0.377
Mof_C 	C 	0.9793	0.4969	0.7837	0.031
Mof_C 	C 	0.8535	0.4491	0.721	-0.375
Mof_C 	C 	0.4969	0.9793	0.2837	0.033
Mof_C 	C 	0.4491	0.8535	0.221	-0.377
Mof_C 	C 	0.0207	0.5031	0.2163	0.031
Mof_C 	C 	0.1465	0.5509	0.279	-0.375
Mof_O 	O 	0.4048	0.1648	0.5868	-0.39
Mof_O 	O 	0.3081	0.9097	0.5862	-0.408
Mof_O 	O 	0.2333	0.0715	0.6979	-0.414
Mof_O 	O 	0.6927	0.1055	0.5981	-0.408
Mof_O 	O 	0.5955	0.8441	0.5936	-0.383
Mof_O 	O 	0.7715	0.9523	0.7141	-0.427
Mof_O 	O 	0.455	0.9016	0.7705	-0.338
Mof_O 	O 	0.8352	0.5952	0.9132	-0.39
Mof_O 	O 	0.0903	0.6919	0.9138	-0.408
Mof_O 	O 	0.9285	0.7667	0.8021	-0.415
Mof_O 	O 	0.8945	0.3073	0.9019	-0.408
Mof_O 	O 	0.1559	0.4045	0.9064	-0.383
Mof_O 	O 	0.0477	0.2285	0.7859	-0.427
Mof_O 	O 	0.0984	0.545	0.7295	-0.337
Mof_O 	O 	0.5952	0.8352	0.4132	-0.39
Mof_O 	O 	0.6919	0.0903	0.4138	-0.408
Mof_O 	O 	0.7667	0.9285	0.3021	-0.414
Mof_O 	O 	0.3073	0.8945	0.4019	-0.408
Mof_O 	O 	0.4045	0.1559	0.4064	-0.383
Mof_O 	O 	0.2285	0.0477	0.2859	-0.427
Mof_O 	O 	0.545	0.0984	0.2295	-0.338
Mof_O 	O 	0.1648	0.4048	0.0868	-0.39
Mof_O 	O 	0.9097	0.3081	0.0862	-0.408
Mof_O 	O 	0.0715	0.2333	0.1979	-0.415
Mof_O 	O 	0.1055	0.6927	0.0981	-0.408
Mof_O 	O 	0.8441	0.5955	0.0936	-0.383
Mof_O 	O 	0.9523	0.7715	0.2141	-0.427
Mof_O 	O 	0.9016	0.455	0.2705	-0.337
_end
