data_functionalizedCrystal
_audit_creation_method	'EQeq! by Chris Wilmer'
_symmetry_space_group_name_H-M	'P1'
_symmetry_Int_Tables_number	1
_symmetry_cell_setting	triclinic
loop_
_symmetry_equiv_pos_as_xyz
  x,y,z
_cell_length_a	8.0267
_cell_length_b	19.4307
_cell_length_c	8.9609
_cell_angle_alpha	90
_cell_angle_beta	93.286
_cell_angle_gamma	90
loop_
_atom_site_label
_atom_site_type_symbol
_atom_site_fract_x
_atom_site_fract_y
_atom_site_fract_z
_atom_site_charge
Mof_N 	N 	0.8672	0.0764	0.0806	-0.164
Mof_N 	N 	0.6934	0.0808	0.0709	-0.099
Mof_N 	N 	0.7982	0.1748	0.1708	-0.11
Mof_N 	N 	0.8224	0.2402	0.2325	-0.034
Mof_N 	N 	0.6885	0.2723	0.2258	-0.041
Mof_N 	N 	0.7129	0.337	0.2896	-0.104
Mof_N 	N 	0.6365	0.4289	0.4045	-0.165
Mof_N 	N 	0.8107	0.424	0.4226	-0.086
Mof_N 	N 	0.1472	0.0033	0.1876	-0.157
Mof_N 	N 	0.0711	0.0068	0.325	-0.106
Mof_N 	N 	0.3422	0.0037	0.3658	-0.095
Mof_N 	N 	0.5029	0.0008	0.4309	-0.054
Mof_C 	C 	0.9267	0.1325	0.1431	0.161
Mof_H 	H 	0.0415	0.1421	0.1656	-0.021
Mof_C 	C 	0.6553	0.1401	0.1256	0.097
Mof_H 	H 	0.545	0.157	0.1331	0.021
Mof_C 	C 	0.5818	0.3764	0.3254	0.118
Mof_H 	H 	0.468	0.3673	0.2974	0.009
Mof_C 	C 	0.8515	0.3681	0.3552	0.104
Mof_H 	H 	0.9621	0.3511	0.3517	0.034
Mof_C 	C 	0.3093	0.0016	0.2136	0.059
Mof_H 	H 	0.3899	0.9992	0.1402	0.055
Mof_C 	C 	0.1902	0.0068	0.4293	0.091
Mof_H 	H 	0.1748	0.0087	0.5336	0.023
Mof_N 	N 	0.6328	0.5764	0.4194	-0.165
Mof_N 	N 	0.8066	0.5808	0.4291	-0.085
Mof_N 	N 	0.7018	0.6748	0.3292	-0.103
Mof_N 	N 	0.6776	0.7402	0.2675	-0.039
Mof_N 	N 	0.8115	0.7723	0.2742	-0.033
Mof_N 	N 	0.7871	0.837	0.2104	-0.109
Mof_N 	N 	0.8635	0.9289	0.0955	-0.153
Mof_N 	N 	0.6893	0.924	0.0774	-0.091
Mof_N 	N 	0.3528	0.5033	0.3124	-0.164
Mof_N 	N 	0.4289	0.5068	0.175	-0.085
Mof_N 	N 	0.1578	0.5037	0.1342	-0.104
Mof_N 	N 	0.9971	0.5008	0.0691	-0.034
Mof_C 	C 	0.5733	0.6325	0.3569	0.118
Mof_H 	H 	0.4585	0.6421	0.3344	0.01
Mof_C 	C 	0.8447	0.6401	0.3744	0.103
Mof_H 	H 	0.955	0.657	0.3669	0.035
Mof_C 	C 	0.9182	0.8764	0.1746	0.16
Mof_H 	H 	0.032	0.8673	0.2026	-0.015
Mof_C 	C 	0.6485	0.8681	0.1448	0.101
Mof_H 	H 	0.5379	0.8511	0.1483	0.023
Mof_C 	C 	0.1907	0.5016	0.2864	0.109
Mof_H 	H 	0.1101	0.4992	0.3598	0.016
Mof_C 	C 	0.3098	0.5068	0.0707	0.036
Mof_H 	H 	0.3252	0.5087	0.9664	0.075
Mof_N 	N 	0.1328	0.9236	0.9194	-0.134
Mof_N 	N 	0.3066	0.9192	0.9291	-0.075
Mof_N 	N 	0.2018	0.8252	0.8292	-0.095
Mof_N 	N 	0.1776	0.7598	0.7675	-0.039
Mof_N 	N 	0.3115	0.7277	0.7742	-0.034
Mof_N 	N 	0.2871	0.663	0.7104	-0.102
Mof_N 	N 	0.3635	0.5711	0.5955	-0.165
Mof_N 	N 	0.1893	0.576	0.5774	-0.094
Mof_N 	N 	0.8528	0.9967	0.8124	-0.14
Mof_N 	N 	0.9289	0.9932	0.675	-0.076
Mof_N 	N 	0.6578	0.9963	0.6342	-0.102
Mof_N 	N 	0.4971	0.9992	0.5691	-0.018
Mof_C 	C 	0.0733	0.8675	0.8569	0.08
Mof_H 	H 	0.9585	0.8579	0.8344	0.049
Mof_C 	C 	0.3447	0.8599	0.8744	0.107
Mof_H 	H 	0.455	0.843	0.8669	0.035
Mof_C 	C 	0.4182	0.6236	0.6746	0.118
Mof_H 	H 	0.532	0.6327	0.7026	0.017
Mof_C 	C 	0.1485	0.6319	0.6448	0.102
Mof_H 	H 	0.0379	0.6489	0.6483	0.021
Mof_C 	C 	0.6907	0.9984	0.7864	0.158
Mof_H 	H 	0.6101	0.0008	0.8598	0.001
Mof_C 	C 	0.8098	0.9932	0.5707	0.106
Mof_H 	H 	0.8252	0.9913	0.4664	0.047
Mof_N 	N 	0.3672	0.4236	0.5806	-0.165
Mof_N 	N 	0.1934	0.4192	0.5709	-0.093
Mof_N 	N 	0.2982	0.3252	0.6708	-0.102
Mof_N 	N 	0.3224	0.2598	0.7325	-0.034
Mof_N 	N 	0.1885	0.2277	0.7258	-0.04
Mof_N 	N 	0.2129	0.163	0.7896	-0.096
Mof_N 	N 	0.1365	0.0711	0.9045	-0.144
Mof_N 	N 	0.3107	0.076	0.9226	-0.085
Mof_N 	N 	0.6472	0.4967	0.6876	-0.163
Mof_N 	N 	0.5711	0.4932	0.825	-0.1
Mof_N 	N 	0.8422	0.4963	0.8658	-0.097
Mof_N 	N 	0.0029	0.4992	0.9309	-0.037
Mof_C 	C 	0.4267	0.3675	0.6431	0.119
Mof_H 	H 	0.5415	0.3579	0.6656	0.017
Mof_C 	C 	0.1553	0.3599	0.6256	0.101
Mof_H 	H 	0.045	0.343	0.6331	0.021
Mof_C 	C 	0.0818	0.1236	0.8254	0.074
Mof_H 	H 	0.968	0.1327	0.7974	0.047
Mof_C 	C 	0.3515	0.1319	0.8552	0.105
Mof_H 	H 	0.4621	0.1489	0.8517	0.033
Mof_C 	C 	0.8093	0.4984	0.7136	0.117
Mof_H 	H 	0.8899	0.5008	0.6402	0.031
Mof_C 	C 	0.6902	0.4932	0.9293	0.16
Mof_H 	H 	0.6748	0.4913	0.0336	-0.005
Mof_Fe	Fe	-0	0	-0	0.652
Mof_Fe	Fe	0.5	0.5	0.5	0.775
_end
