data_functionalizedCrystal
_audit_creation_method	'EQeq! by Chris Wilmer'
_symmetry_space_group_name_H-M	'P1'
_symmetry_Int_Tables_number	1
_symmetry_cell_setting	triclinic
loop_
_symmetry_equiv_pos_as_xyz
  x,y,z
_cell_length_a	10.239
_cell_length_b	12.191
_cell_length_c	13.91
_cell_angle_alpha	94.6
_cell_angle_beta	93.75
_cell_angle_gamma	99.87
loop_
_atom_site_label
_atom_site_type_symbol
_atom_site_fract_x
_atom_site_fract_y
_atom_site_fract_z
_atom_site_charge
Mof_Zn	Zn	0.27797	0.98093	0.77177	1.222
Mof_Zn	Zn	0.2389	0.80378	0.53952	1.221
Mof_H 	H 	0.2296	0.6634	0.7745	0.06
Mof_H 	H 	0.339	0.2577	0.5979	0.053
Mof_H 	H 	0.1366	0.4711	0.9886	0.032
Mof_H 	H 	0.0478	0.8223	0.3712	-0.005
Mof_H 	H 	0.1424	0.0378	0.9499	0.011
Mof_H 	H 	0.6336	0.9316	0.5287	0.052
Mof_H 	H 	0.5207	0.7657	0.8083	0.071
Mof_H 	H 	0.4167	0.8588	0.9137	0
Mof_H 	H 	0.3617	0.4298	0.536	0.065
Mof_H 	H 	0.0551	0.8632	0.2143	0.101
Mof_H 	H 	0.1188	0.9845	0.1028	0.077
Mof_H 	H 	0.4064	0.8068	0.0674	0.069
Mof_H 	H 	0.973	0.7697	0.8026	0.077
Mof_H 	H 	0.4387	0.8345	0.2296	0.082
Mof_H 	H 	0.8597	0.695	0.9248	0.035
Mof_H 	H 	0.4233	0.7976	0.3871	0.001
Mof_H 	H 	0.1622	0.6443	0.9279	0.045
Mof_H 	H 	0.1807	0.3183	0.9008	0.081
Mof_H 	H 	0.6321	0.6909	0.9255	0.04
Mof_H 	H 	0.857	0.9213	0.5205	0.045
Mof_C 	C 	0.8849	0.864	0.6493	-0.114
Mof_C 	C 	0.3149	0.3176	0.634	-0.003
Mof_C 	C 	0.1812	0.9579	0.0658	-0.117
Mof_C 	C 	0.8149	0.7251	0.8759	-0.016
Mof_C 	C 	0.1317	0.8511	0.2484	-0.15
Mof_C 	C 	0.6788	0.821	0.7316	0.046
Mof_C 	C 	0.6132	0.8711	0.657	-0.096
Mof_C 	C 	0.2343	0.3942	0.7792	0.053
Mof_C 	C 	0.3497	0.8527	0.0447	-0.125
Mof_C 	C 	0.3285	0.4216	0.5961	-0.029
Mof_C 	C 	0.3035	0.6181	0.5974	0.321
Mof_C 	C 	0.2931	0.5111	0.647	-0.072
Mof_C 	C 	0.248	0.5002	0.7407	0.031
Mof_C 	C 	0.612	0.7688	0.8069	-0.073
Mof_C 	C 	0.2556	0.1869	0.7554	0.32
Mof_C 	C 	0.3586	0.8346	0.2576	-0.137
Mof_C 	C 	0.165	0.4782	0.9269	-0.008
Mof_C 	C 	0.8825	0.7709	0.8035	-0.09
Mof_C 	C 	0.1797	0.5826	0.8904	-0.046
Mof_C 	C 	0.2672	0.301	0.7226	-0.099
Mof_C 	C 	0.128	0.8266	0.3428	0.093
Mof_C 	C 	0.4733	0.894	0.6621	0.388
Mof_C 	C 	0.0329	0.8751	0.6451	0.406
Mof_C 	C 	0.3484	0.8117	0.352	0.084
Mof_C 	C 	0.2202	0.5938	0.7988	-0.061
Mof_C 	C 	0.2592	0.8891	0.1039	0.048
Mof_C 	C 	0.818	0.82	0.7296	0.055
Mof_C 	C 	0.1944	0.9885	0.9728	0.057
Mof_C 	C 	0.3554	0.8846	0.9522	0.064
Mof_C 	C 	0.1911	0.3867	0.8744	-0.097
Mof_C 	C 	0.8146	0.8999	0.5749	-0.004
Mof_C 	C 	0.6781	0.7235	0.8766	-0.03
Mof_C 	C 	0.679	0.9049	0.5793	-0.02
Mof_C 	C 	0.2496	0.8579	0.2039	0.071
Mof_N 	N 	0.2778	0.9507	0.9146	-0.254
Mof_N 	N 	0.2349	0.8087	0.396	-0.27
Mof_O 	O 	0.1766	0.1518	0.8159	-0.346
Mof_O 	O 	0.0766	0.8666	0.5628	-0.486
Mof_O 	O 	0.3945	0.6463	0.5476	-0.322
Mof_O 	O 	0.1046	0.8958	0.7231	-0.512
Mof_O 	O 	0.2073	0.6723	0.6071	-0.459
Mof_O 	O 	0.4305	0.9066	0.7441	-0.487
Mof_O 	O 	0.3246	0.1214	0.7161	-0.455
Mof_O 	O 	0.4087	0.902	0.5839	-0.492
Mof_Zn	Zn	0.72203	0.01907	0.22823	1.221
Mof_Zn	Zn	0.7611	0.19622	0.46048	1.22
Mof_H 	H 	0.8812	0.0155	0.8972	0.077
Mof_H 	H 	0.9522	0.1777	0.6288	-0.005
Mof_H 	H 	0.7704	0.3366	0.2255	0.059
Mof_H 	H 	0.661	0.7423	0.4021	0.052
Mof_H 	H 	0.1403	0.305	0.0752	0.035
Mof_H 	H 	0.5767	0.2024	0.6129	0.001
Mof_H 	H 	0.9449	0.1368	0.7857	0.101
Mof_H 	H 	0.143	0.0787	0.4795	0.045
Mof_H 	H 	0.3664	0.0684	0.4713	0.052
Mof_H 	H 	0.6383	0.5702	0.464	0.065
Mof_H 	H 	0.5613	0.1655	0.7704	0.082
Mof_H 	H 	0.4793	0.2343	0.1917	0.071
Mof_H 	H 	0.5833	0.1412	0.0863	0
Mof_H 	H 	0.8634	0.5289	0.0114	0.032
Mof_H 	H 	0.8378	0.3557	0.0721	0.045
Mof_H 	H 	0.8193	0.6817	0.0992	0.081
Mof_H 	H 	0.5936	0.1932	0.9326	0.069
Mof_H 	H 	0.027	0.2303	0.1974	0.077
Mof_H 	H 	0.3679	0.3091	0.0745	0.04
Mof_H 	H 	0.8576	0.9622	0.0501	0.011
Mof_C 	C 	0.388	0.2312	0.1931	-0.073
Mof_C 	C 	0.1854	0.1001	0.4251	-0.004
Mof_C 	C 	0.1151	0.136	0.3507	-0.114
Mof_C 	C 	0.3219	0.2765	0.1234	-0.03
Mof_C 	C 	0.3868	0.1289	0.343	-0.096
Mof_C 	C 	0.9671	0.1249	0.3549	0.406
Mof_C 	C 	0.7657	0.6058	0.2208	0.053
Mof_C 	C 	0.8188	0.0421	0.9342	-0.117
Mof_C 	C 	0.6965	0.3819	0.4026	0.321
Mof_C 	C 	0.6715	0.5784	0.4039	-0.029
Mof_C 	C 	0.1175	0.2291	0.1965	-0.09
Mof_C 	C 	0.752	0.4998	0.2593	0.031
Mof_C 	C 	0.7069	0.4889	0.353	-0.072
Mof_C 	C 	0.872	0.1734	0.6572	0.093
Mof_C 	C 	0.6446	0.1154	0.0478	0.064
Mof_C 	C 	0.835	0.5218	0.0731	-0.008
Mof_C 	C 	0.6516	0.1883	0.648	0.084
Mof_C 	C 	0.6503	0.1473	0.9553	-0.125
Mof_C 	C 	0.8683	0.1489	0.7516	-0.15
Mof_C 	C 	0.7504	0.1421	0.7961	0.071
Mof_C 	C 	0.7798	0.4062	0.2012	-0.061
Mof_C 	C 	0.7408	0.1109	0.8961	0.048
Mof_C 	C 	0.5267	0.106	0.3379	0.388
Mof_C 	C 	0.7444	0.8131	0.2446	0.32
Mof_C 	C 	0.182	0.18	0.2704	0.055
Mof_C 	C 	0.8089	0.6133	0.1256	-0.097
Mof_C 	C 	0.3212	0.179	0.2684	0.046
Mof_C 	C 	0.6851	0.6824	0.366	-0.003
Mof_C 	C 	0.321	0.0951	0.4207	-0.02
Mof_C 	C 	0.1851	0.2749	0.1241	-0.016
Mof_C 	C 	0.8203	0.4174	0.1096	-0.046
Mof_C 	C 	0.7328	0.699	0.2774	-0.099
Mof_C 	C 	0.6414	0.1654	0.7424	-0.137
Mof_C 	C 	0.8056	0.0115	0.0272	0.057
Mof_N 	N 	0.7222	0.0493	0.0854	-0.254
Mof_N 	N 	0.7651	0.1913	0.604	-0.27
Mof_O 	O 	0.6055	0.3537	0.4524	-0.322
Mof_O 	O 	0.6754	0.8786	0.2839	-0.455
Mof_O 	O 	0.8954	0.1042	0.2769	-0.512
Mof_O 	O 	0.9234	0.1334	0.4372	-0.486
Mof_O 	O 	0.5913	0.098	0.4161	-0.492
Mof_O 	O 	0.5695	0.0934	0.2559	-0.487
Mof_O 	O 	0.8234	0.8482	0.1841	-0.346
Mof_O 	O 	0.7927	0.3277	0.3929	-0.459
_end
