data_functionalizedCrystal
_audit_creation_method	'EQeq! by Chris Wilmer'
_symmetry_space_group_name_H-M	'P1'
_symmetry_Int_Tables_number	1
_symmetry_cell_setting	triclinic
loop_
_symmetry_equiv_pos_as_xyz
  x,y,z
_cell_length_a	15.4268
_cell_length_b	17.6013
_cell_length_c	31.4076
_cell_angle_alpha	95.2079
_cell_angle_beta	104.217
_cell_angle_gamma	90
loop_
_atom_site_label
_atom_site_type_symbol
_atom_site_fract_x
_atom_site_fract_y
_atom_site_fract_z
_atom_site_charge
Mof_Cu	Cu	0.90001	0.48056	0.69112	0.939
Mof_Cu	Cu	0.90124	0.36364	0.41528	0.894
Mof_Cu	Cu	0.20889	0.01944	0.30888	0.93
Mof_Cu	Cu	0.48596	0.13636	0.58472	0.89
Mof_Cu	Cu	0.09999	0.51944	0.30888	0.934
Mof_Cu	Cu	0.09876	0.63636	0.58472	0.888
Mof_Cu	Cu	0.79111	0.98056	0.69112	0.94
Mof_Cu	Cu	0.51404	0.86364	0.41528	0.89
Mof_Cu	Cu	6.13404e-33	0.5	-0	0.914
Mof_Cu	Cu	-0	0	-0	0.907
Mof_Cu	Cu	0.73988	0.75	-0	0.924
Mof_Cu	Cu	0.26012	0.25	-0	0.923
Mof_H 	H 	0.9347	0.5369	0.9042	0.071
Mof_H 	H 	0.8742	0.6187	0.0138	0.007
Mof_H 	H 	0.7757	0.7164	0.9058	0.078
Mof_H 	H 	0.9659	0.5859	0.8462	0.129
Mof_H 	H 	0.8319	0.6609	0.7298	0.182
Mof_H 	H 	0.7179	0.7022	0.7622	0.076
Mof_H 	H 	0.7244	0.6843	0.8352	0.173
Mof_H 	H 	0.0703	0.6609	0.8416	0.534
Mof_H 	H 	0.0937	0.7045	0.803	0.526
Mof_H 	H 	0.1687	0.6566	0.8334	0.534
Mof_H 	H 	0.0582	0.5133	0.8316	0.526
Mof_H 	H 	0.1554	0.508	0.822	0.55
Mof_H 	H 	0.0704	0.4699	0.7864	0.502
Mof_H 	H 	0.1193	0.6348	0.7372	0.438
Mof_H 	H 	0.1076	0.5439	0.729	0.423
Mof_H 	H 	0.1925	0.5818	0.7648	0.438
Mof_H 	H 	0.9219	0.5948	0.5308	0.021
Mof_H 	H 	0.0291	0.5654	0.6552	-0.047
Mof_H 	H 	0.7865	0.4824	0.6006	0.067
Mof_H 	H 	0.8536	0.5075	0.4764	0.108
Mof_H 	H 	0.5927	0.4639	0.4138	0.121
Mof_H 	H 	0.5542	0.4892	0.4804	0.073
Mof_H 	H 	0.6631	0.523	0.5456	0.177
Mof_H 	H 	0.6014	0.5388	0.3682	0.488
Mof_H 	H 	0.6823	0.5817	0.356	0.479
Mof_H 	H 	0.6057	0.538	0.3178	0.521
Mof_H 	H 	0.7925	0.5099	0.3266	0.457
Mof_H 	H 	0.7949	0.4188	0.3248	0.42
Mof_H 	H 	0.7191	0.459	0.2904	0.445
Mof_H 	H 	0.6017	0.3897	0.3642	0.475
Mof_H 	H 	0.6011	0.3874	0.313	0.503
Mof_H 	H 	0.6788	0.3466	0.3462	0.456
Mof_H 	H 	0.9891	0.2476	0.6802	0.154
Mof_H 	H 	0.6869	0.4606	0.7568	0.155
Mof_H 	H 	0.9095	0.1308	0.3602	0.187
Mof_H 	H 	0.194	0.6842	0.0226	0.176
Mof_H 	H 	0.5383	0.9035	0.9466	0.185
Mof_H 	H 	0.0305	0.9631	0.0958	0.056
Mof_H 	H 	0.8604	0.8813	0.9862	0.075
Mof_H 	H 	0.8699	0.7836	0.0942	0.075
Mof_H 	H 	0.1197	0.9141	0.1538	0.136
Mof_H 	H 	0.1021	0.8391	0.2702	0.194
Mof_H 	H 	0.9557	0.7978	0.2378	0.063
Mof_H 	H 	0.8892	0.8157	0.1648	0.184
Mof_H 	H 	0.2287	0.8391	0.1584	0.539
Mof_H 	H 	0.2907	0.7955	0.197	0.53
Mof_H 	H 	0.3353	0.8434	0.1666	0.536
Mof_H 	H 	0.2266	0.9867	0.1684	0.527
Mof_H 	H 	0.3334	0.992	0.178	0.547
Mof_H 	H 	0.284	0.0301	0.2136	0.49
Mof_H 	H 	0.3821	0.8652	0.2628	0.443
Mof_H 	H 	0.3786	0.9561	0.271	0.432
Mof_H 	H 	0.4277	0.9182	0.2352	0.442
Mof_H 	H 	0.3911	0.9052	0.4692	0.02
Mof_H 	H 	0.3739	0.9346	0.3448	-0.026
Mof_H 	H 	0.1859	0.0176	0.3994	0.047
Mof_H 	H 	0.3772	0.9925	0.5236	0.097
Mof_H 	H 	0.1789	0.0361	0.5862	0.107
Mof_H 	H 	0.0738	0.0108	0.5196	0.08
Mof_H 	H 	0.1175	0.977	0.4544	0.163
Mof_H 	H 	0.2332	0.9612	0.6318	0.489
Mof_H 	H 	0.3263	0.9183	0.644	0.477
Mof_H 	H 	0.2879	0.962	0.6822	0.521
Mof_H 	H 	0.4659	0.9901	0.6734	0.474
Mof_H 	H 	0.4701	0.0812	0.6752	0.429
Mof_H 	H 	0.4287	0.041	0.7096	0.451
Mof_H 	H 	0.2375	0.1103	0.6358	0.472
Mof_H 	H 	0.2881	0.1126	0.687	0.5
Mof_H 	H 	0.3326	0.1534	0.6538	0.455
Mof_H 	H 	0.3089	0.2524	0.3198	0.157
Mof_H 	H 	0.9301	0.0394	0.2432	0.14
Mof_H 	H 	0.5493	0.3692	0.6398	0.182
Mof_H 	H 	0.1714	0.8158	0.9774	0.155
Mof_H 	H 	0.5917	0.5965	0.0534	0.206
Mof_H 	H 	0.0653	0.4631	0.0958	0.067
Mof_H 	H 	0.1258	0.3813	0.9862	0.073
Mof_H 	H 	0.2243	0.2836	0.0942	0.079
Mof_H 	H 	0.0341	0.4141	0.1538	0.115
Mof_H 	H 	0.1681	0.3391	0.2702	0.18
Mof_H 	H 	0.2821	0.2978	0.2378	0.078
Mof_H 	H 	0.2756	0.3157	0.1648	0.171
Mof_H 	H 	0.9297	0.3391	0.1584	0.554
Mof_H 	H 	0.9063	0.2955	0.197	0.544
Mof_H 	H 	0.8313	0.3434	0.1666	0.545
Mof_H 	H 	0.9418	0.4867	0.1684	0.55
Mof_H 	H 	0.8446	0.492	0.178	0.564
Mof_H 	H 	0.9296	0.5301	0.2136	0.523
Mof_H 	H 	0.8807	0.3652	0.2628	0.453
Mof_H 	H 	0.8924	0.4561	0.271	0.438
Mof_H 	H 	0.8075	0.4182	0.2352	0.448
Mof_H 	H 	0.0781	0.4052	0.4692	0.015
Mof_H 	H 	0.9709	0.4346	0.3448	-0.007
Mof_H 	H 	0.2135	0.5176	0.3994	0.068
Mof_H 	H 	0.1464	0.4925	0.5236	0.102
Mof_H 	H 	0.4073	0.5361	0.5862	0.121
Mof_H 	H 	0.4458	0.5108	0.5196	0.074
Mof_H 	H 	0.3369	0.477	0.4544	0.176
Mof_H 	H 	0.3986	0.4612	0.6318	0.487
Mof_H 	H 	0.3177	0.4183	0.644	0.477
Mof_H 	H 	0.3943	0.462	0.6822	0.52
Mof_H 	H 	0.2075	0.4901	0.6734	0.455
Mof_H 	H 	0.2051	0.5812	0.6752	0.42
Mof_H 	H 	0.2809	0.541	0.7096	0.445
Mof_H 	H 	0.3983	0.6103	0.6358	0.475
Mof_H 	H 	0.3989	0.6126	0.687	0.503
Mof_H 	H 	0.3212	0.6534	0.6538	0.457
Mof_H 	H 	0.0109	0.7524	0.3198	0.16
Mof_H 	H 	0.3131	0.5394	0.2432	0.155
Mof_H 	H 	0.0905	0.8692	0.6398	0.181
Mof_H 	H 	0.806	0.3158	0.9774	0.157
Mof_H 	H 	0.4617	0.0965	0.0534	0.204
Mof_H 	H 	0.9695	0.0369	0.9042	0.097
Mof_H 	H 	0.1396	0.1187	0.0138	0.003
Mof_H 	H 	0.1301	0.2164	0.9058	0.083
Mof_H 	H 	0.8803	0.0859	0.8462	0.103
Mof_H 	H 	0.8979	0.1609	0.7298	0.162
Mof_H 	H 	0.0443	0.2022	0.7622	0.098
Mof_H 	H 	0.1108	0.1843	0.8352	0.152
Mof_H 	H 	0.7713	0.1609	0.8416	0.546
Mof_H 	H 	0.7093	0.2045	0.803	0.536
Mof_H 	H 	0.6647	0.1566	0.8334	0.541
Mof_H 	H 	0.7734	0.0133	0.8316	0.545
Mof_H 	H 	0.6666	0.008	0.822	0.562
Mof_H 	H 	0.716	0.9699	0.7864	0.527
Mof_H 	H 	0.6179	0.1348	0.7372	0.445
Mof_H 	H 	0.6214	0.0439	0.729	0.428
Mof_H 	H 	0.5723	0.0818	0.7648	0.442
Mof_H 	H 	0.6089	0.0948	0.5308	0.017
Mof_H 	H 	0.6261	0.0654	0.6552	-0.029
Mof_H 	H 	0.8141	0.9824	0.6006	0.081
Mof_H 	H 	0.6228	0.0075	0.4764	0.109
Mof_H 	H 	0.8211	0.9639	0.4138	0.13
Mof_H 	H 	0.9262	0.9892	0.4804	0.071
Mof_H 	H 	0.8825	0.023	0.5456	0.186
Mof_H 	H 	0.7668	0.0388	0.3682	0.486
Mof_H 	H 	0.6737	0.0817	0.356	0.479
Mof_H 	H 	0.7121	0.038	0.3178	0.52
Mof_H 	H 	0.5341	0.0099	0.3266	0.438
Mof_H 	H 	0.5299	0.9188	0.3248	0.411
Mof_H 	H 	0.5713	0.959	0.2904	0.438
Mof_H 	H 	0.7625	0.8897	0.3642	0.476
Mof_H 	H 	0.7119	0.8874	0.313	0.504
Mof_H 	H 	0.6674	0.8466	0.3462	0.457
Mof_H 	H 	0.6911	0.7476	0.6802	0.157
Mof_H 	H 	0.0699	0.9606	0.7568	0.169
Mof_H 	H 	0.4507	0.6308	0.3602	0.182
Mof_H 	H 	0.8286	0.1842	0.0226	0.179
Mof_H 	H 	0.4083	0.4035	0.9466	0.182
Mof_C 	C 	0.90499	0.5735	0.91938	0.098
Mof_C 	C 	0.86906	0.6214	0.98312	0.189
Mof_C 	C 	0.81111	0.6779	0.92042	0.093
Mof_C 	C 	0.85406	0.6272	0.89612	-0.033
Mof_C 	C 	0.84676	0.6344	0.84852	0.206
Mof_C 	C 	0.91531	0.6094	0.82922	-0.196
Mof_C 	C 	0.90991	0.6187	0.78502	0.227
Mof_C 	C 	0.83566	0.6539	0.75992	-0.179
Mof_C 	C 	0.76817	0.6781	0.77914	0.159
Mof_C 	C 	0.77226	0.6682	0.82272	-0.153
Mof_C 	C 	0.0764	0.5877	0.7868	0.965
Mof_C 	C 	0.10486	0.6588	0.81912	-1.41
Mof_C 	C 	0.09146	0.513	0.80872	-1.41
Mof_C 	C 	0.12864	0.587	0.75128	-1.284
Mof_C 	C 	0.91837	0.57416	0.55734	0.09
Mof_C 	C 	0.97986	0.5581	0.63012	0.195
Mof_C 	C 	0.83829	0.50935	0.59838	0.097
Mof_C 	C 	0.84117	0.53443	0.55814	-0.056
Mof_C 	C 	0.7693	0.51693	0.5174	0.17
Mof_C 	C 	0.79274	0.50319	0.47728	-0.19
Mof_C 	C 	0.72732	0.4832	0.43844	0.179
Mof_C 	C 	0.63765	0.4778	0.4399	-0.19
Mof_C 	C 	0.61522	0.4926	0.47964	0.164
Mof_C 	C 	0.67985	0.5125	0.5185	-0.148
Mof_C 	C 	0.69536	0.4641	0.35252	0.944
Mof_C 	C 	0.64134	0.5372	0.34828	-1.36
Mof_C 	C 	0.75586	0.4628	0.32072	-1.295
Mof_C 	C 	0.63929	0.3903	0.34318	-1.342
Mof_C 	C 	0.81794	0.2504	0.64348	0.88
Mof_C 	C 	0.8842	0.3165	0.662	0.002
Mof_C 	C 	0.97339	0.2997	0.67878	-0.001
Mof_C 	C 	0.04122	0.3561	0.69364	0.01
Mof_C 	C 	0.13743	0.3295	0.70606	0.795
Mof_C 	C 	0.61906	0.5456	0.69252	0.816
Mof_C 	C 	0.71205	0.5102	0.7045	0.025
Mof_C 	C 	0.73272	0.4689	0.74224	-0.017
Mof_C 	C 	0.81618	0.4403	0.75876	-0.009
Mof_C 	C 	0.82943	0.396	0.79926	0.909
Mof_C 	C 	0.01304	0.1469	0.44048	0.702
Mof_C 	C 	0.96303	0.2064	0.41186	0.12
Mof_C 	C 	0.9148	0.1838	0.3696	-0.124
Mof_C 	C 	0.87334	0.2352	0.33988	0.131
Mof_C 	C 	0.82849	0.2033	0.29278	0.504
Mof_C 	C 	0.20816	0.5954	0.95392	0.855
Mof_C 	C 	0.14591	0.5885	0.98402	0.079
Mof_C 	C 	0.152	0.6433	0.0192	-0.074
Mof_C 	C 	0.10023	0.6424	0.05006	0.048
Mof_C 	C 	0.11774	0.7094	0.08608	0.812
Mof_C 	C 	0.64187	0.8753	0.89194	0.892
Mof_C 	C 	0.64898	0.8515	0.93836	0.046
Mof_C 	C 	0.587	0.8744	0.9608	0.01
Mof_C 	C 	0.59222	0.8564	0.00404	0.057
Mof_C 	C 	0.51044	0.8835	0.02288	0.776
Mof_C 	C 	0.98561	0.9265	0.08062	0.122
Mof_C 	C 	0.88594	0.8786	0.01688	0.084
Mof_C 	C 	0.89069	0.8221	0.07958	0.097
Mof_C 	C 	0.95794	0.8728	0.10388	-0.048
Mof_C 	C 	0.99824	0.8656	0.15148	0.244
Mof_C 	C 	0.08609	0.8906	0.17078	-0.234
Mof_C 	C 	0.12489	0.8813	0.21498	0.25
Mof_C 	C 	0.07574	0.8461	0.24008	-0.222
Mof_C 	C 	0.98903	0.8219	0.22086	0.208
Mof_C 	C 	0.94954	0.8318	0.17728	-0.185
Mof_C 	C 	0.2896	0.9123	0.2132	0.974
Mof_C 	C 	0.28574	0.8412	0.18088	-1.418
Mof_C 	C 	0.28274	0.987	0.19128	-1.384
Mof_C 	C 	0.37736	0.913	0.24872	-1.293
Mof_C 	C 	0.36103	0.92584	0.44266	0.088
Mof_C 	C 	0.34974	0.9419	0.36988	0.168
Mof_C 	C 	0.23991	0.99065	0.40162	0.12
Mof_C 	C 	0.28303	0.96557	0.44186	-0.054
Mof_C 	C 	0.2519	0.98307	0.4826	0.148
Mof_C 	C 	0.31546	0.99681	0.52272	-0.152
Mof_C 	C 	0.28888	0.0168	0.56156	0.144
Mof_C 	C 	0.19775	0.0222	0.5601	-0.16
Mof_C 	C 	0.13558	0.0074	0.52036	0.115
Mof_C 	C 	0.16135	0.9875	0.4815	-0.104
Mof_C 	C 	0.34284	0.0359	0.64748	0.938
Mof_C 	C 	0.29306	0.9628	0.65172	-1.346
Mof_C 	C 	0.43514	0.0372	0.67928	-1.327
Mof_C 	C 	0.29611	0.1097	0.65682	-1.337
Mof_C 	C 	0.17446	0.2496	0.35652	0.877
Mof_C 	C 	0.2222	0.1835	0.338	0.01
Mof_C 	C 	0.29461	0.2003	0.32122	-0.032
Mof_C 	C 	0.34758	0.1439	0.30636	0.036
Mof_C 	C 	0.43137	0.1705	0.29394	0.789
Mof_C 	C 	0.92654	0.9544	0.30748	0.83
Mof_C 	C 	0.00755	0.9898	0.2955	-0.003
Mof_C 	C 	0.99048	0.0311	0.25776	0.03
Mof_C 	C 	0.05742	0.0597	0.24124	-0.043
Mof_C 	C 	0.03017	0.104	0.20074	0.902
Mof_C 	C 	0.57256	0.3531	0.55952	0.747
Mof_C 	C 	0.55117	0.2936	0.58814	0.093
Mof_C 	C 	0.5452	0.3162	0.6304	-0.114
Mof_C 	C 	0.53346	0.2648	0.66012	0.126
Mof_C 	C 	0.53571	0.2967	0.70722	0.504
Mof_C 	C 	0.25424	0.9046	0.04608	0.879
Mof_C 	C 	0.16189	0.9115	0.01598	-0.018
Mof_C 	C 	0.1328	0.8567	0.9808	0.048
Mof_C 	C 	0.05017	0.8576	0.94994	0.002
Mof_C 	C 	0.03166	0.7906	0.91392	0.82
Mof_C 	C 	0.74993	0.6247	0.10806	0.881
Mof_C 	C 	0.71062	0.6485	0.06164	0.078
Mof_C 	C 	0.6262	0.6256	0.0392	-0.089
Mof_C 	C 	0.58818	0.6436	0.99596	0.136
Mof_C 	C 	0.48756	0.6165	0.97712	0.809
Mof_C 	C 	0.09501	0.4265	0.08062	0.088
Mof_C 	C 	0.13094	0.3786	0.01688	0.077
Mof_C 	C 	0.18889	0.3221	0.07958	0.083
Mof_C 	C 	0.14594	0.3728	0.10388	-0.029
Mof_C 	C 	0.15324	0.3656	0.15148	0.199
Mof_C 	C 	0.08469	0.3906	0.17078	-0.194
Mof_C 	C 	0.09009	0.3813	0.21498	0.219
Mof_C 	C 	0.16434	0.3461	0.24008	-0.175
Mof_C 	C 	0.23183	0.3219	0.22086	0.155
Mof_C 	C 	0.22774	0.3318	0.17728	-0.149
Mof_C 	C 	0.9236	0.4123	0.2132	1.013
Mof_C 	C 	0.89514	0.3412	0.18088	-1.452
Mof_C 	C 	0.90854	0.487	0.19128	-1.457
Mof_C 	C 	0.87136	0.413	0.24872	-1.322
Mof_C 	C 	0.08163	0.42584	0.44266	0.085
Mof_C 	C 	0.02014	0.4419	0.36988	0.136
Mof_C 	C 	0.16171	0.49065	0.40162	0.092
Mof_C 	C 	0.15883	0.46557	0.44186	-0.053
Mof_C 	C 	0.2307	0.48307	0.4826	0.166
Mof_C 	C 	0.20726	0.49681	0.52272	-0.187
Mof_C 	C 	0.27268	0.5168	0.56156	0.175
Mof_C 	C 	0.36235	0.5222	0.5601	-0.188
Mof_C 	C 	0.38478	0.5074	0.52036	0.162
Mof_C 	C 	0.32015	0.4875	0.4815	-0.146
Mof_C 	C 	0.30464	0.5359	0.64748	0.942
Mof_C 	C 	0.35866	0.4628	0.65172	-1.358
Mof_C 	C 	0.24414	0.5372	0.67928	-1.293
Mof_C 	C 	0.36071	0.6097	0.65682	-1.341
Mof_C 	C 	0.18206	0.7496	0.35652	0.875
Mof_C 	C 	0.1158	0.6835	0.338	0.017
Mof_C 	C 	0.02661	0.7003	0.32122	-0.054
Mof_C 	C 	0.95878	0.6439	0.30636	0.056
Mof_C 	C 	0.86257	0.6705	0.29394	0.785
Mof_C 	C 	0.38094	0.4544	0.30748	0.815
Mof_C 	C 	0.28795	0.4898	0.2955	0.025
Mof_C 	C 	0.26728	0.5311	0.25776	-0.018
Mof_C 	C 	0.18382	0.5597	0.24124	-0.008
Mof_C 	C 	0.17057	0.604	0.20074	0.909
Mof_C 	C 	0.98696	0.8531	0.55952	0.777
Mof_C 	C 	0.03697	0.7936	0.58814	0.076
Mof_C 	C 	0.0852	0.8162	0.6304	-0.108
Mof_C 	C 	0.12666	0.7648	0.66012	0.122
Mof_C 	C 	0.17151	0.7967	0.70722	0.503
Mof_C 	C 	0.79184	0.4046	0.04608	0.879
Mof_C 	C 	0.85409	0.4115	0.01598	-0.016
Mof_C 	C 	0.848	0.3567	0.9808	0.043
Mof_C 	C 	0.89977	0.3576	0.94994	0.017
Mof_C 	C 	0.88226	0.2906	0.91392	0.825
Mof_C 	C 	0.35813	0.1247	0.10806	0.881
Mof_C 	C 	0.35102	0.1485	0.06164	0.076
Mof_C 	C 	0.413	0.1256	0.0392	-0.09
Mof_C 	C 	0.40778	0.1436	0.99596	0.136
Mof_C 	C 	0.48956	0.1165	0.97712	0.809
Mof_C 	C 	0.01439	0.0735	0.91938	0.044
Mof_C 	C 	0.11406	0.1214	0.98312	0.184
Mof_C 	C 	0.10931	0.1779	0.92042	0.072
Mof_C 	C 	0.04206	0.1272	0.89612	-0
Mof_C 	C 	0.00176	0.1344	0.84852	0.139
Mof_C 	C 	0.91391	0.1094	0.82922	-0.134
Mof_C 	C 	0.87511	0.1187	0.78502	0.184
Mof_C 	C 	0.92426	0.1539	0.75992	-0.109
Mof_C 	C 	0.01097	0.1781	0.77914	0.081
Mof_C 	C 	0.05046	0.1682	0.82272	-0.098
Mof_C 	C 	0.7104	0.0877	0.7868	0.995
Mof_C 	C 	0.71426	0.1588	0.81912	-1.437
Mof_C 	C 	0.71726	0.013	0.80872	-1.463
Mof_C 	C 	0.62264	0.087	0.75128	-1.306
Mof_C 	C 	0.63897	0.07416	0.55734	0.087
Mof_C 	C 	0.65026	0.0581	0.63012	0.165
Mof_C 	C 	0.76009	0.00935	0.59838	0.08
Mof_C 	C 	0.71697	0.03443	0.55814	-0.055
Mof_C 	C 	0.7481	0.01693	0.5174	0.181
Mof_C 	C 	0.68454	0.00319	0.47728	-0.213
Mof_C 	C 	0.71112	0.9832	0.43844	0.2
Mof_C 	C 	0.80225	0.9778	0.4399	-0.207
Mof_C 	C 	0.86442	0.9926	0.47964	0.192
Mof_C 	C 	0.83865	0.0125	0.5185	-0.173
Mof_C 	C 	0.65716	0.9641	0.35252	0.944
Mof_C 	C 	0.70694	0.0372	0.34828	-1.368
Mof_C 	C 	0.56486	0.9628	0.32072	-1.259
Mof_C 	C 	0.70389	0.8903	0.34318	-1.342
Mof_C 	C 	0.82554	0.7504	0.64348	0.877
Mof_C 	C 	0.7778	0.8165	0.662	0.01
Mof_C 	C 	0.70539	0.7997	0.67878	-0.029
Mof_C 	C 	0.65242	0.8561	0.69364	0.035
Mof_C 	C 	0.56863	0.8295	0.70606	0.79
Mof_C 	C 	0.07346	0.0456	0.69252	0.794
Mof_C 	C 	0.99245	0.0102	0.7045	0.06
Mof_C 	C 	0.00952	0.9689	0.74224	-0.055
Mof_C 	C 	0.94258	0.9403	0.75876	0.016
Mof_C 	C 	0.96983	0.896	0.79926	0.912
Mof_C 	C 	0.42744	0.6469	0.44048	0.747
Mof_C 	C 	0.44883	0.7064	0.41186	0.093
Mof_C 	C 	0.4548	0.6838	0.3696	-0.114
Mof_C 	C 	0.46654	0.7352	0.33988	0.125
Mof_C 	C 	0.46429	0.7033	0.29278	0.504
Mof_C 	C 	0.74576	0.0954	0.95392	0.854
Mof_C 	C 	0.83811	0.0885	0.98402	0.084
Mof_C 	C 	0.8672	0.1433	0.0192	-0.083
Mof_C 	C 	0.94983	0.1424	0.05006	0.074
Mof_C 	C 	0.96834	0.2094	0.08608	0.818
Mof_C 	C 	0.25007	0.3753	0.89194	0.893
Mof_C 	C 	0.28938	0.3515	0.93836	0.044
Mof_C 	C 	0.3738	0.3744	0.9608	0.012
Mof_C 	C 	0.41182	0.3564	0.00404	0.055
Mof_C 	C 	0.51244	0.3835	0.02288	0.776
Mof_N 	N 	0.91413	0.57118	0.96306	-0.188
Mof_N 	N 	0.81778	0.67457	0.96356	-0.177
Mof_N 	N 	0.97815	0.5938	0.7641	-0.189
Mof_N 	N 	0.98801	0.58436	0.59258	-0.21
Mof_N 	N 	0.90672	0.52222	0.63424	-0.202
Mof_N 	N 	0.75589	0.46796	0.39904	-0.196
Mof_N 	N 	0.95107	0.92882	0.03694	-0.184
Mof_N 	N 	0.85422	0.82543	0.03644	-0.173
Mof_N 	N 	0.21405	0.9062	0.2359	-0.199
Mof_N 	N 	0.39543	0.91564	0.40742	-0.21
Mof_N 	N 	0.27248	0.97778	0.36576	-0.199
Mof_N 	N 	0.35685	0.03204	0.60096	-0.192
Mof_N 	N 	0.08587	0.42882	0.03694	-0.187
Mof_N 	N 	0.18222	0.32543	0.03644	-0.171
Mof_N 	N 	0.02185	0.4062	0.2359	-0.206
Mof_N 	N 	0.01199	0.41564	0.40742	-0.211
Mof_N 	N 	0.09328	0.47778	0.36576	-0.194
Mof_N 	N 	0.24411	0.53204	0.60096	-0.195
Mof_N 	N 	0.04893	0.07118	0.96306	-0.187
Mof_N 	N 	0.14578	0.17457	0.96356	-0.174
Mof_N 	N 	0.78595	0.0938	0.7641	-0.193
Mof_N 	N 	0.60457	0.08436	0.59258	-0.211
Mof_N 	N 	0.72752	0.02222	0.63424	-0.198
Mof_N 	N 	0.64315	0.96796	0.39904	-0.198
Mof_O 	O 	0.95411	0.58033	0.72154	-0.202
Mof_O 	O 	0.84097	0.46014	0.40312	-0.262
Mof_O 	O 	0.84762	0.38082	0.65906	-0.202
Mof_O 	O 	0.03346	0.4264	0.69688	-0.252
Mof_O 	O 	0.75924	0.52231	0.67926	-0.161
Mof_O 	O 	0.88751	0.44512	0.74594	-0.238
Mof_O 	O 	0.97339	0.27277	0.4321	-0.246
Mof_O 	O 	0.86959	0.30593	0.34648	-0.289
Mof_O 	O 	0.09454	0.53019	0.97254	-0.223
Mof_O 	O 	0.04249	0.5954	0.05228	-0.185
Mof_O 	O 	0.71709	0.81086	0.95058	-0.227
Mof_O 	O 	0.65063	0.8196	0.02746	-0.182
Mof_O 	O 	0.23257	0.91967	0.27846	-0.204
Mof_O 	O 	0.43785	0.03986	0.59688	-0.27
Mof_O 	O 	0.18856	0.11918	0.34094	-0.211
Mof_O 	O 	0.33658	0.0736	0.30312	-0.257
Mof_O 	O 	0.07998	0.97769	0.32074	-0.15
Mof_O 	O 	0.14157	0.05488	0.25406	-0.238
Mof_O 	O 	0.54129	0.22723	0.5679	-0.248
Mof_O 	O 	0.52311	0.19407	0.65352	-0.29
Mof_O 	O 	0.122	0.96981	0.02746	-0.206
Mof_O 	O 	0.99021	0.9046	0.94772	-0.138
Mof_O 	O 	0.76651	0.68914	0.04942	-0.252
Mof_O 	O 	0.62317	0.6804	0.97254	-0.185
Mof_O 	O 	0.04589	0.41967	0.27846	-0.213
Mof_O 	O 	0.15903	0.53986	0.59688	-0.269
Mof_O 	O 	0.15238	0.61918	0.34094	-0.21
Mof_O 	O 	0.96654	0.5736	0.30312	-0.251
Mof_O 	O 	0.24076	0.47769	0.32074	-0.161
Mof_O 	O 	0.11249	0.55488	0.25406	-0.246
Mof_O 	O 	0.02661	0.72723	0.5679	-0.249
Mof_O 	O 	0.13041	0.69407	0.65352	-0.29
Mof_O 	O 	0.90546	0.46981	0.02746	-0.207
Mof_O 	O 	0.95751	0.4046	0.94772	-0.148
Mof_O 	O 	0.28291	0.18914	0.04942	-0.253
Mof_O 	O 	0.34937	0.1804	0.97254	-0.185
Mof_O 	O 	0.76743	0.08033	0.72154	-0.21
Mof_O 	O 	0.56215	0.96014	0.40312	-0.262
Mof_O 	O 	0.81144	0.88082	0.65906	-0.203
Mof_O 	O 	0.66342	0.9264	0.69688	-0.249
Mof_O 	O 	0.92002	0.02231	0.67926	-0.169
Mof_O 	O 	0.85843	0.94512	0.74594	-0.246
Mof_O 	O 	0.45871	0.77277	0.4321	-0.247
Mof_O 	O 	0.47689	0.80593	0.34648	-0.289
Mof_O 	O 	0.878	0.03019	0.97254	-0.218
Mof_O 	O 	0.00979	0.0954	0.05228	-0.204
Mof_O 	O 	0.23349	0.31086	0.95058	-0.228
Mof_O 	O 	0.37683	0.3196	0.02746	-0.182
Mof_F 	F 	0.78852	0.2522	0.59804	-0.413
Mof_F 	F 	0.84928	0.1824	0.64976	-0.481
Mof_F 	F 	0.74827	0.2507	0.65834	-0.489
Mof_F 	F 	0.14667	0.2597	0.71834	-0.44
Mof_F 	F 	0.19221	0.3793	0.73442	-0.464
Mof_F 	F 	0.16891	0.3283	0.66682	-0.444
Mof_F 	F 	0.62484	0.6176	0.67908	-0.428
Mof_F 	F 	0.56436	0.5069	0.66132	-0.479
Mof_F 	F 	0.57275	0.536	0.7251	-0.427
Mof_F 	F 	0.82883	0.3278	0.79186	-0.508
Mof_F 	F 	0.77366	0.4101	0.82432	-0.441
Mof_F 	F 	0.91426	0.417	0.82932	-0.409
Mof_F 	F 	0.98662	0.1504	0.48044	-0.411
Mof_F 	F 	0.99168	0.0735	0.42296	-0.431
Mof_F 	F 	0.10246	0.1582	0.45072	-0.418
Mof_F 	F 	0.82352	0.1237	0.29044	-0.409
Mof_F 	F 	0.7528	0.2375	0.2764	-0.442
Mof_F 	F 	0.27189	0.5508	0.96038	-0.416
Mof_F 	F 	0.24327	0.669	0.95754	-0.369
Mof_F 	F 	0.16526	0.577	0.91072	-0.435
Mof_F 	F 	0.12066	0.7768	0.07312	-0.496
Mof_F 	F 	0.04794	0.7069	0.11068	-0.381
Mof_F 	F 	0.18925	0.7005	0.1167	-0.423
Mof_F 	F 	0.58504	0.9336	0.88228	-0.405
Mof_F 	F 	0.70943	0.8984	0.88446	-0.491
Mof_F 	F 	0.61482	0.8071	0.86424	-0.409
Mof_F 	F 	0.43197	0.8863	0.99074	-0.346
Mof_F 	F 	0.5066	0.8475	0.056	-0.385
Mof_F 	F 	0.5427	0.9506	0.0514	-0.339
Mof_F 	F 	0.19048	0.2478	0.40196	-0.416
Mof_F 	F 	0.19952	0.3176	0.35024	-0.484
Mof_F 	F 	0.08993	0.2493	0.34166	-0.494
Mof_F 	F 	0.42833	0.2403	0.28166	-0.436
Mof_F 	F 	0.45779	0.1207	0.26558	-0.465
Mof_F 	F 	0.50209	0.1717	0.33318	-0.442
Mof_F 	F 	0.94576	0.8824	0.32092	-0.425
Mof_F 	F 	0.90304	0.9931	0.33868	-0.477
Mof_F 	F 	0.84765	0.964	0.2749	-0.425
Mof_F 	F 	0.03697	0.1722	0.20814	-0.515
Mof_F 	F 	0.94934	0.0899	0.17568	-0.432
Mof_F 	F 	0.08494	0.083	0.17068	-0.419
Mof_F 	F 	0.50618	0.3496	0.51956	-0.428
Mof_F 	F 	0.56872	0.4265	0.57704	-0.446
Mof_F 	F 	0.65174	0.3418	0.54928	-0.418
Mof_F 	F 	0.53308	0.3763	0.70956	-0.408
Mof_F 	F 	0.4764	0.2625	0.7236	-0.441
Mof_F 	F 	0.31151	0.9492	0.03962	-0.431
Mof_F 	F 	0.28573	0.831	0.04246	-0.389
Mof_F 	F 	0.25454	0.923	0.08928	-0.436
Mof_F 	F 	0.04754	0.7232	0.92688	-0.493
Mof_F 	F 	0.93726	0.7931	0.88932	-0.37
Mof_F 	F 	0.07255	0.7995	0.8833	-0.425
Mof_F 	F 	0.70276	0.5664	0.11772	-0.408
Mof_F 	F 	0.82497	0.6016	0.11554	-0.489
Mof_F 	F 	0.75058	0.6929	0.13576	-0.408
Mof_F 	F 	0.44123	0.6137	0.00926	-0.391
Mof_F 	F 	0.4506	0.6525	0.944	-0.384
Mof_F 	F 	0.4913	0.5494	0.9486	-0.338
Mof_F 	F 	0.21148	0.7478	0.40196	-0.414
Mof_F 	F 	0.15072	0.8176	0.35024	-0.484
Mof_F 	F 	0.25173	0.7493	0.34166	-0.489
Mof_F 	F 	0.85333	0.7403	0.28166	-0.433
Mof_F 	F 	0.80779	0.6207	0.26558	-0.462
Mof_F 	F 	0.83109	0.6717	0.33318	-0.438
Mof_F 	F 	0.37516	0.3824	0.32092	-0.428
Mof_F 	F 	0.43564	0.4931	0.33868	-0.479
Mof_F 	F 	0.42725	0.464	0.2749	-0.427
Mof_F 	F 	0.17117	0.6722	0.20814	-0.511
Mof_F 	F 	0.22634	0.5899	0.17568	-0.442
Mof_F 	F 	0.08574	0.583	0.17068	-0.417
Mof_F 	F 	0.01338	0.8496	0.51956	-0.437
Mof_F 	F 	0.00832	0.9265	0.57704	-0.454
Mof_F 	F 	0.89754	0.8418	0.54928	-0.419
Mof_F 	F 	0.17648	0.8763	0.70956	-0.407
Mof_F 	F 	0.2472	0.7625	0.7236	-0.44
Mof_F 	F 	0.72811	0.4492	0.03962	-0.435
Mof_F 	F 	0.75673	0.331	0.04246	-0.39
Mof_F 	F 	0.83474	0.423	0.08928	-0.437
Mof_F 	F 	0.87934	0.2232	0.92688	-0.486
Mof_F 	F 	0.95206	0.2931	0.88932	-0.37
Mof_F 	F 	0.81075	0.2995	0.8833	-0.424
Mof_F 	F 	0.41496	0.0664	0.11772	-0.412
Mof_F 	F 	0.29057	0.1016	0.11554	-0.495
Mof_F 	F 	0.38518	0.1929	0.13576	-0.409
Mof_F 	F 	0.56803	0.1137	0.00926	-0.393
Mof_F 	F 	0.4934	0.1525	0.944	-0.385
Mof_F 	F 	0.4573	0.0494	0.9486	-0.342
Mof_F 	F 	0.80952	0.7522	0.59804	-0.412
Mof_F 	F 	0.80048	0.6824	0.64976	-0.483
Mof_F 	F 	0.91007	0.7507	0.65834	-0.485
Mof_F 	F 	0.57167	0.7597	0.71834	-0.436
Mof_F 	F 	0.54221	0.8793	0.73442	-0.461
Mof_F 	F 	0.49791	0.8283	0.66682	-0.44
Mof_F 	F 	0.05424	0.1176	0.67908	-0.432
Mof_F 	F 	0.09696	0.0069	0.66132	-0.484
Mof_F 	F 	0.15235	0.036	0.7251	-0.43
Mof_F 	F 	0.96303	0.8278	0.79186	-0.506
Mof_F 	F 	0.05066	0.9101	0.82432	-0.446
Mof_F 	F 	0.91506	0.917	0.82932	-0.41
Mof_F 	F 	0.49382	0.6504	0.48044	-0.427
Mof_F 	F 	0.43128	0.5735	0.42296	-0.446
Mof_F 	F 	0.34826	0.6582	0.45072	-0.419
Mof_F 	F 	0.46692	0.6237	0.29044	-0.409
Mof_F 	F 	0.5236	0.7375	0.2764	-0.441
Mof_F 	F 	0.68849	0.0508	0.96038	-0.419
Mof_F 	F 	0.71427	0.169	0.95754	-0.37
Mof_F 	F 	0.74546	0.077	0.91072	-0.435
Mof_F 	F 	0.95246	0.2768	0.07312	-0.49
Mof_F 	F 	0.06274	0.2069	0.11068	-0.386
Mof_F 	F 	0.92745	0.2005	0.1167	-0.42
Mof_F 	F 	0.29724	0.4336	0.88228	-0.409
Mof_F 	F 	0.17503	0.3984	0.88446	-0.495
Mof_F 	F 	0.24942	0.3071	0.86424	-0.41
Mof_F 	F 	0.55877	0.3863	0.99074	-0.347
Mof_F 	F 	0.5494	0.3475	0.056	-0.386
Mof_F 	F 	0.5087	0.4506	0.0514	-0.344
_end
