data_functionalizedCrystal
_audit_creation_method	'EQeq! by Chris Wilmer'
_symmetry_space_group_name_H-M	'P1'
_symmetry_Int_Tables_number	1
_symmetry_cell_setting	triclinic
loop_
_symmetry_equiv_pos_as_xyz
  x,y,z
_cell_length_a	6.56
_cell_length_b	18.929
_cell_length_c	11.411
_cell_angle_alpha	90
_cell_angle_beta	90
_cell_angle_gamma	90
loop_
_atom_site_label
_atom_site_type_symbol
_atom_site_fract_x
_atom_site_fract_y
_atom_site_fract_z
_atom_site_charge
Mof_La	La	0.13752	0.75286	-0	1.646
Mof_La	La	0.86248	0.24714	-0	1.593
Mof_La	La	0.63752	0.74714	0.5	2.249
Mof_La	La	0.36248	0.25286	0.5	2.267
Mof_La	La	0.24753	0.91935	0.5	2.345
Mof_La	La	0.75247	0.08065	0.5	2.414
Mof_La	La	0.74753	0.58065	-0	1.837
Mof_La	La	0.25247	0.41935	-0	1.902
Mof_C 	C 	0.2568	0.79409	0.7223	0.296
Mof_C 	C 	0.1454	0.8603	0.7702	0.266
Mof_C 	C 	0.7432	0.20591	0.7223	0.295
Mof_C 	C 	0.8546	0.1397	0.7702	0.261
Mof_C 	C 	0.7568	0.70591	0.7777	0.278
Mof_C 	C 	0.6454	0.6397	0.7298	0.278
Mof_C 	C 	0.2432	0.29409	0.7777	0.277
Mof_C 	C 	0.3546	0.3603	0.7298	0.285
Mof_C 	C 	0.7432	0.20591	0.2777	0.28
Mof_C 	C 	0.8546	0.1397	0.2298	0.272
Mof_C 	C 	0.2568	0.79409	0.2777	0.28
Mof_C 	C 	0.1454	0.8603	0.2298	0.277
Mof_C 	C 	0.2432	0.29409	0.2223	0.295
Mof_C 	C 	0.3546	0.3603	0.2702	0.268
Mof_C 	C 	0.7568	0.70591	0.2223	0.296
Mof_C 	C 	0.6454	0.6397	0.2702	0.261
Mof_N 	N 	0.2952	0.6077	-0	0.111
Mof_N 	N 	0.7048	0.3923	-0	0.111
Mof_N 	N 	0.7952	0.8923	0.5	0.134
Mof_N 	N 	0.2048	0.1077	0.5	0.131
Mof_O 	O 	0.2678	0.74215	0.7887	-0.322
Mof_O 	O 	0.3259	0.79918	0.6199	-0.551
Mof_O 	O 	0.073	0.85572	0.8725	-0.264
Mof_O 	O 	0.132	0.91312	0.7064	-0.425
Mof_O 	O 	0.7322	0.25785	0.7887	-0.326
Mof_O 	O 	0.6741	0.20082	0.6199	-0.563
Mof_O 	O 	0.927	0.14428	0.8725	-0.26
Mof_O 	O 	0.868	0.08688	0.7064	-0.42
Mof_O 	O 	0.7678	0.75785	0.7113	-0.438
Mof_O 	O 	0.8259	0.70082	0.8801	-0.323
Mof_O 	O 	0.573	0.64428	0.6275	-0.441
Mof_O 	O 	0.632	0.58688	0.7936	-0.291
Mof_O 	O 	0.2322	0.24215	0.7113	-0.422
Mof_O 	O 	0.1741	0.29918	0.8801	-0.3
Mof_O 	O 	0.427	0.35572	0.6275	-0.445
Mof_O 	O 	0.368	0.41312	0.7936	-0.294
Mof_O 	O 	0.7322	0.25785	0.2113	-0.42
Mof_O 	O 	0.6741	0.20082	0.3801	-0.569
Mof_O 	O 	0.927	0.14428	0.1275	-0.471
Mof_O 	O 	0.868	0.08688	0.2936	-0.473
Mof_O 	O 	0.2678	0.74215	0.2113	-0.416
Mof_O 	O 	0.3259	0.79918	0.3801	-0.558
Mof_O 	O 	0.073	0.85572	0.1275	-0.475
Mof_O 	O 	0.132	0.91312	0.2936	-0.478
Mof_O 	O 	0.2322	0.24215	0.2887	-0.461
Mof_O 	O 	0.1741	0.29918	0.1199	-0.517
Mof_O 	O 	0.427	0.35572	0.3725	-0.45
Mof_O 	O 	0.368	0.41312	0.2064	-0.396
Mof_O 	O 	0.7678	0.75785	0.2887	-0.478
Mof_O 	O 	0.8259	0.70082	0.1199	-0.54
Mof_O 	O 	0.573	0.64428	0.3725	-0.446
Mof_O 	O 	0.632	0.58688	0.2064	-0.393
Mof_O 	O 	0.1039	0.6219	-0	-0.544
Mof_O 	O 	0.4207	0.66014	-0	-0.504
Mof_O 	O 	0.3628	0.54541	-0	-0.503
Mof_O 	O 	0.8961	0.3781	-0	-0.572
Mof_O 	O 	0.5793	0.33986	-0	-0.505
Mof_O 	O 	0.6372	0.45459	-0	-0.508
Mof_O 	O 	0.6039	0.8781	0.5	-0.576
Mof_O 	O 	0.9207	0.83986	0.5	-0.507
Mof_O 	O 	0.8628	0.95459	0.5	-0.549
Mof_O 	O 	0.3961	0.1219	0.5	-0.566
Mof_O 	O 	0.0793	0.16014	0.5	-0.485
Mof_O 	O 	0.1372	0.04541	0.5	-0.479
Mof_O 	O 	0.5	-2.22692e-33	0.3631	-0.41
Mof_O 	O 	-1.24687e-32	0.5	0.1369	-0.35
Mof_O 	O 	0.5	0	0.6369	-0.364
Mof_O 	O 	-1.21862e-32	0.5	0.8631	-0.157
_end
