data_functionalizedCrystal
_audit_creation_method	'EQeq! by Chris Wilmer'
_symmetry_space_group_name_H-M	'P1'
_symmetry_Int_Tables_number	1
_symmetry_cell_setting	triclinic
loop_
_symmetry_equiv_pos_as_xyz
  x,y,z
_cell_length_a	50.6904
_cell_length_b	50.6904
_cell_length_c	50.6904
_cell_angle_alpha	60
_cell_angle_beta	60
_cell_angle_gamma	60
loop_
_atom_site_label
_atom_site_type_symbol
_atom_site_fract_x
_atom_site_fract_y
_atom_site_fract_z
_atom_site_charge
Mof_Si	Si	0.67024	0.23296	0.37884	1.345
Mof_Si	Si	0.28606	0.58152	0.78606	1.464
Mof_Si	Si	0.48619	0.19279	0.78229	1.404
Mof_Si	Si	0.13437	0.14671	0.63437	1.298
Mof_Si	Si	0.41545	0.85329	0.36563	1.298
Mof_Si	Si	0.69279	0.53873	0.78229	1.404
Mof_Si	Si	0.69279	0.98619	0.78229	1.407
Mof_Si	Si	0.30721	0.21771	0.46127	1.404
Mof_Si	Si	0.51381	0.21771	0.46127	1.404
Mof_Si	Si	0.32976	0.62116	0.76704	1.345
Mof_Si	Si	0.08152	0.78606	0.78606	1.464
Mof_Si	Si	-0	0.84882	-0	1.206
Mof_Si	Si	0.03873	0.78229	0.98619	1.407
Mof_Si	Si	0.26704	0.82976	0.62116	1.345
Mof_Si	Si	0.87884	0.17024	0.71796	1.344
Mof_Si	Si	0.78204	0.82976	0.62116	1.345
Mof_Si	Si	0.96127	0.80721	0.21771	1.405
Mof_Si	Si	0.80788	0.30788	0.37066	1.371
Mof_Si	Si	0.32976	0.62116	0.28204	1.345
Mof_Si	Si	0.73296	0.17024	0.71796	1.344
Mof_Si	Si	0.87884	0.71796	0.17024	1.344
Mof_Si	Si	0.28606	0.78606	0.58152	1.464
Mof_Si	Si	0.12116	0.28204	0.76704	1.345
Mof_Si	Si	0.71771	0.80721	0.01381	1.401
Mof_Si	Si	0.01358	0.30788	0.37066	1.368
Mof_Si	Si	0.51381	0.80721	0.21771	1.404
Mof_Si	Si	0.87884	0.23296	0.17024	1.344
Mof_Si	Si	0.34882	0.5	0.15118	1.21
Mof_Si	Si	0.73296	0.17024	0.37884	1.344
Mof_Si	Si	0.69279	0.78229	0.98619	1.407
Mof_Si	Si	0.08152	0.34636	0.78606	1.464
Mof_Si	Si	-2.96251e-17	0.84882	0.15118	1.208
Mof_Si	Si	0.21796	0.23296	0.17024	1.344
Mof_Si	Si	3.95001e-17	0.15118	0.84882	1.208
Mof_Si	Si	0.98642	0.69212	0.62934	1.373
Mof_Si	Si	0.86563	0.91545	0.36563	1.299
Mof_Si	Si	0.87884	0.17024	0.23296	1.344
Mof_Si	Si	0.87066	0.51358	0.30788	1.371
Mof_Si	Si	0.80788	0.37066	0.51358	1.371
Mof_Si	Si	0.48619	0.78229	0.53873	1.404
Mof_Si	Si	0.28229	0.19279	0.98619	1.407
Mof_Si	Si	0.32976	0.28204	0.62116	1.345
Mof_Si	Si	0.01358	0.30788	0.30788	1.368
Mof_Si	Si	0.09565	0.15435	0.15435	1.44
Mof_Si	Si	0.35329	0.91545	0.36563	1.299
Mof_Si	Si	0.03873	0.19279	0.98619	1.407
Mof_Si	Si	0.21796	0.17024	0.23296	1.344
Mof_Si	Si	0.80788	0.51358	0.37066	1.371
Mof_Si	Si	0.86563	0.36563	0.91545	1.299
Mof_Si	Si	0.87066	0.30788	0.51358	1.371
Mof_Si	Si	0.01358	0.37066	0.30788	1.368
Mof_Si	Si	0.12116	0.76704	0.28204	1.345
Mof_Si	Si	0.73296	0.71796	0.17024	1.344
Mof_Si	Si	0.65435	0.15435	0.59565	1.44
Mof_Si	Si	0.34882	0.5	-0	1.208
Mof_Si	Si	0.84636	0.78606	0.78606	1.464
Mof_Si	Si	0.34565	0.40435	0.84565	1.44
Mof_Si	Si	0.65435	0.59565	0.15435	1.44
Mof_Si	Si	0.5	0.5	0.84882	1.21
Mof_Si	Si	0.15364	0.21394	0.41848	1.464
Mof_Si	Si	0.26704	0.28204	0.82976	1.345
Mof_Si	Si	0.12116	0.82976	0.76704	1.345
Mof_Si	Si	0.86563	0.85329	0.36563	1.298
Mof_Si	Si	0.71771	0.01381	0.80721	1.401
Mof_Si	Si	0.67024	0.71796	0.37884	1.345
Mof_Si	Si	0.73296	0.37884	0.71796	1.345
Mof_Si	Si	0.64671	0.08455	0.63437	1.298
Mof_Si	Si	0.90435	0.84565	0.84565	1.439
Mof_Si	Si	0.67024	0.37884	0.23296	1.344
Mof_Si	Si	0.84636	0.58152	0.78606	1.463
Mof_Si	Si	9.87502e-18	0	0.15118	1.205
Mof_Si	Si	0.48619	0.53873	0.78229	1.403
Mof_Si	Si	0.86563	0.36563	0.85329	1.297
Mof_Si	Si	0.48619	0.78229	0.19279	1.403
Mof_Si	Si	0.30721	0.46127	0.21771	1.403
Mof_Si	Si	0.51381	0.80721	0.46127	1.403
Mof_Si	Si	0.58455	0.63437	0.14671	1.297
Mof_Si	Si	0.80788	0.30788	0.51358	1.37
Mof_Si	Si	0.21796	0.37884	0.17024	1.343
Mof_Si	Si	0.67024	0.37884	0.71796	1.344
Mof_Si	Si	0.78204	0.62116	0.76704	1.344
Mof_Si	Si	0.65118	0.84882	0.5	1.209
Mof_Si	Si	0.51381	0.46127	0.80721	1.403
Mof_Si	Si	0.13437	0.14671	0.08455	1.297
Mof_Si	Si	0.91848	0.21394	0.21394	1.463
Mof_Si	Si	0.13437	0.08455	0.14671	1.297
Mof_Si	Si	0.51381	0.21771	0.80721	1.403
Mof_Si	Si	0.65118	-1.975e-17	0.5	1.207
Mof_Si	Si	0.19212	0.69212	0.48642	1.37
Mof_Si	Si	0.78204	0.82976	0.76704	1.344
Mof_Si	Si	0.96127	0.80721	0.01381	1.401
Mof_Si	Si	0.19212	0.48642	0.69212	1.37
Mof_Si	Si	0.5	0.5	0.15118	1.209
Mof_Si	Si	0.71394	0.21394	0.65364	1.463
Mof_Si	Si	0.67024	0.23296	0.71796	1.344
Mof_Si	Si	0.12934	0.48642	0.69212	1.369
Mof_Si	Si	0.98642	0.62934	0.69212	1.372
Mof_Si	Si	0.34882	0	0.15118	1.207
Mof_Si	Si	0.71394	0.65364	0.21394	1.463
Mof_Si	Si	0.65118	-3.95001e-17	0.84882	1.207
Mof_Si	Si	0.28606	0.78606	0.34636	1.463
Mof_Si	Si	0.12116	0.82976	0.28204	1.344
Mof_Si	Si	0.71394	0.41848	0.21394	1.463
Mof_Si	Si	0.73296	0.37884	0.17024	1.343
Mof_Si	Si	0.26704	0.62116	0.28204	1.344
Mof_Si	Si	0.12116	0.28204	0.82976	1.344
Mof_Si	Si	0.13437	0.63437	0.08455	1.297
Mof_Si	Si	0.19212	0.69212	0.62934	1.37
Mof_Si	Si	0.58455	0.14671	0.63437	1.297
Mof_Si	Si	0.21796	0.17024	0.37884	1.343
Mof_Si	Si	0.15364	0.41848	0.21394	1.463
Mof_Si	Si	0.08152	0.78606	0.34636	1.463
Mof_Si	Si	0.69279	0.53873	0.98619	1.406
Mof_Si	Si	0.19212	0.48642	0.62934	1.37
Mof_Si	Si	0.34882	0.15118	-0	1.207
Mof_Si	Si	0.78204	0.76704	0.82976	1.344
Mof_Si	Si	0.71771	0.46127	0.80721	1.403
Mof_Si	Si	0.48619	0.53873	0.19279	1.403
Mof_Si	Si	0.13437	0.08455	0.63437	1.297
Mof_Si	Si	0.21796	0.23296	0.37884	1.344
Mof_Si	Si	0.90435	0.40435	0.84565	1.439
Mof_Si	Si	0.69279	0.78229	0.53873	1.403
Mof_Si	Si	-0	0.15118	-0	1.205
Mof_Si	Si	0.34882	-1.975e-17	0.5	1.207
Mof_Si	Si	0.32976	0.76704	0.62116	1.344
Mof_Si	Si	0.03873	0.78229	0.19279	1.403
Mof_Si	Si	0.28229	0.53873	0.19279	1.403
Mof_Si	Si	0.84636	0.78606	0.58152	1.463
Mof_Si	Si	0.96127	0.21771	0.01381	1.401
Mof_Si	Si	0.65118	0.84882	-0	1.207
Mof_Si	Si	0.80788	0.37066	0.30788	1.37
Mof_Si	Si	0.98642	0.69212	0.69212	1.372
Mof_Si	Si	0.28229	0.53873	0.98619	1.406
Mof_Si	Si	0.19212	0.62934	0.69212	1.37
Mof_Si	Si	0.5	0.15118	0.84882	1.209
Mof_Si	Si	0.12116	0.76704	0.82976	1.344
Mof_Si	Si	0.34565	0.40435	0.40435	1.439
Mof_Si	Si	0.65435	0.59565	0.59565	1.439
Mof_Si	Si	3.95001e-17	-3.95001e-17	0.84882	1.205
Mof_Si	Si	0.67024	0.71796	0.23296	1.344
Mof_Si	Si	0.30721	0.01381	0.46127	1.4
Mof_Si	Si	0.26704	0.82976	0.28204	1.344
Mof_Si	Si	0.28229	0.19279	0.53873	1.403
Mof_Si	Si	0.64671	0.63437	0.63437	1.297
Mof_Si	Si	0.65118	0.5	0.84882	1.209
Mof_Si	Si	0.90435	0.84565	0.40435	1.439
Mof_Si	Si	0.30721	0.21771	0.01381	1.4
Mof_Si	Si	0.09565	0.59565	0.15435	1.439
Mof_Si	Si	0.48619	0.19279	0.53873	1.403
Mof_Si	Si	0.58455	0.63437	0.63437	1.297
Mof_Si	Si	0.41545	0.36563	0.85329	1.297
Mof_Si	Si	0.28606	0.34636	0.78606	1.463
Mof_Si	Si	0.87066	0.30788	0.30788	1.37
Mof_Si	Si	0.15364	0.21394	0.21394	1.463
Mof_Si	Si	0.51381	0.46127	0.21771	1.403
Mof_Si	Si	0.26704	0.28204	0.62116	1.344
Mof_Si	Si	0.86563	0.85329	0.91545	1.298
Mof_Si	Si	0.86563	0.91545	0.85329	1.298
Mof_Si	Si	0.65118	0.5	-0	1.207
Mof_Si	Si	0.09565	0.15435	0.59565	1.439
Mof_Si	Si	0.30721	0.46127	0.01381	1.4
Mof_Si	Si	0.30721	0.01381	0.21771	1.4
Mof_Si	Si	0.19212	0.62934	0.48642	1.37
Mof_Si	Si	0.5	0.84882	0.5	1.209
Mof_Si	Si	0.71771	0.01381	0.46127	1.4
Mof_Si	Si	0.32976	0.76704	0.28204	1.344
Mof_Si	Si	0.71394	0.21394	0.41848	1.463
Mof_Si	Si	0.32976	0.28204	0.76704	1.344
Mof_Si	Si	0.03873	0.98619	0.19279	1.406
Mof_Si	Si	0.64671	0.63437	0.08455	1.297
Mof_Si	Si	0.12934	0.69212	0.69212	1.369
Mof_Si	Si	0.5	0.15118	0.5	1.209
Mof_Si	Si	0.73296	0.71796	0.37884	1.344
Mof_Si	Si	0.96127	0.01381	0.80721	1.401
Mof_Si	Si	0.91848	0.65364	0.21394	1.463
Mof_Si	Si	0.80788	0.51358	0.30788	1.37
Mof_Si	Si	0.71771	0.46127	0.01381	1.4
Mof_Si	Si	0.96127	0.21771	0.80721	1.404
Mof_Si	Si	0.71394	0.41848	0.65364	1.463
Mof_Si	Si	0.28229	0.98619	0.19279	1.406
Mof_Si	Si	0.87884	0.23296	0.71796	1.344
Mof_Si	Si	0.28229	0.98619	0.53873	1.406
Mof_Si	Si	0.35329	0.36563	0.91545	1.298
Mof_Si	Si	0.5	0.84882	0.15118	1.209
Mof_Si	Si	0.71394	0.65364	0.41848	1.463
Mof_Si	Si	0.03873	0.19279	0.78229	1.403
Mof_Si	Si	0.12934	0.69212	0.48642	1.369
Mof_Si	Si	0.35329	0.36563	0.36563	1.297
Mof_Si	Si	0.28606	0.34636	0.58152	1.463
Mof_Si	Si	0.87884	0.71796	0.23296	1.344
Mof_Si	Si	0.34882	0.15118	0.5	1.209
Mof_Si	Si	0.41545	0.36563	0.36563	1.297
Mof_Si	Si	0.91848	0.21394	0.65364	1.463
Mof_Si	Si	0.78204	0.62116	0.82976	1.344
Mof_Si	Si	0.71771	0.80721	0.46127	1.403
Mof_Si	Si	0.28606	0.58152	0.34636	1.463
Mof_Si	Si	0.21796	0.37884	0.23296	1.344
Mof_Si	Si	0.13437	0.63437	0.14671	1.297
Mof_Si	Si	0.26704	0.62116	0.82976	1.344
Mof_Si	Si	0.78204	0.76704	0.62116	1.344
Mof_Si	Si	0.96127	0.01381	0.21771	1.401
Mof_Si	Si	0.69279	0.98619	0.53873	1.406
Mof_Si	Si	0.34565	0.84565	0.40435	1.439
Mof_Si	Si	0.03873	0.98619	0.78229	1.406
Mof_H 	H 	0.9143	0.1051	0.1859	0.019
Mof_H 	H 	0.0681	0.5681	0.6487	0.012
Mof_H 	H 	0.9607	0.9279	0.9279	0.031
Mof_H 	H 	0.5537	0.6923	0.2005	0.01
Mof_H 	H 	0.2995	0.9463	0.4465	0.01
Mof_H 	H 	0.4029	0.5387	0.9029	0.014
Mof_H 	H 	0.3569	0.3603	0.4929	0.02
Mof_H 	H 	0.2691	0.5441	0.2759	0.008
Mof_H 	H 	0.9085	0.9537	0.2659	0.036
Mof_H 	H 	0.7053	0.5857	0.8141	0.019
Mof_H 	H 	0.6859	0.4143	0.1051	0.019
Mof_H 	H 	0.4279	0.1835	0.4607	0.03
Mof_H 	H 	0.3445	0.0971	0.4613	0.014
Mof_H 	H 	0.2947	0.1051	0.1859	0.019
Mof_H 	H 	0.0535	0.6923	0.0537	0.01
Mof_H 	H 	0.6835	0.9279	0.9279	0.03
Mof_H 	H 	0.095	0.2978	0.2312	-0.004
Mof_H 	H 	0.7312	0.2978	0.595	-0.004
Mof_H 	H 	0.9929	0.7899	0.3603	0.02
Mof_H 	H 	0.7797	0.7405	0.2001	0.027
Mof_H 	H 	0.6431	0.6397	0.2101	0.02
Mof_H 	H 	0.0915	0.7341	0.1281	0.035
Mof_H 	H 	0.9559	0.0891	0.2309	0.008
Mof_H 	H 	0.0441	0.2759	0.9109	0.009
Mof_H 	H 	0.7312	0.595	0.376	-0.004
Mof_H 	H 	0.7101	0.5071	0.6397	0.02
Mof_H 	H 	0.6431	0.2101	0.6397	0.02
Mof_H 	H 	0.0441	0.9109	0.7691	0.009
Mof_H 	H 	0.0071	0.6397	0.2101	0.02
Mof_H 	H 	0.3445	0.4613	0.0971	0.014
Mof_H 	H 	0.6281	0.5915	0.0463	0.035
Mof_H 	H 	0.7978	0.2312	0.595	-0.004
Mof_H 	H 	0.1397	0.5071	0.1431	0.02
Mof_H 	H 	0.9319	0.4319	0.2849	0.012
Mof_H 	H 	0.6859	0.7947	0.4143	0.019
Mof_H 	H 	0.6051	0.1859	0.4143	0.019
Mof_H 	H 	0.7759	0.9109	0.5441	0.009
Mof_H 	H 	0.7053	0.8949	0.5857	0.019
Mof_H 	H 	0.0915	0.0463	0.1281	0.035
Mof_H 	H 	0.7978	0.595	0.376	-0.004
Mof_H 	H 	0.2022	0.405	0.624	-0.004
Mof_H 	H 	0.7659	0.4085	0.9537	0.036
Mof_H 	H 	0.9143	0.1859	0.1051	0.019
Mof_H 	H 	0.0071	0.1431	0.2101	0.02
Mof_H 	H 	0.5891	0.2309	0.7241	0.008
Mof_H 	H 	0.6281	0.0463	0.7341	0.035
Mof_H 	H 	0.8245	0.3245	0.1759	0.005
Mof_H 	H 	0.9085	0.8719	0.2659	0.036
Mof_H 	H 	0.4537	0.2659	0.4085	0.036
Mof_H 	H 	0.8249	0.6755	0.8241	0.005
Mof_H 	H 	0.9143	0.1859	0.7947	0.019
Mof_H 	H 	0.095	0.2312	0.2978	-0.004
Mof_H 	H 	0.9929	0.8569	0.3603	0.02
Mof_H 	H 	0.1397	0.5071	0.2101	0.02
Mof_H 	H 	0.0535	0.2005	0.0537	0.01
Mof_H 	H 	0.8513	0.2849	0.4319	0.012
Mof_H 	H 	0.124	0.7022	0.405	-0.004
Mof_H 	H 	0.7312	0.376	0.2978	-0.004
Mof_H 	H 	0.4279	0.9279	0.4607	0.03
Mof_H 	H 	0.7797	0.2001	0.2797	0.027
Mof_H 	H 	0.4109	0.5441	0.2759	0.008
Mof_H 	H 	0.0387	0.1555	0.9029	0.014
Mof_H 	H 	0.9929	0.7899	0.8569	0.02
Mof_H 	H 	0.2688	0.624	0.405	-0.004
Mof_H 	H 	0.6431	0.5071	0.6397	0.02
Mof_H 	H 	0.9559	0.2309	0.0891	0.008
Mof_H 	H 	0.1397	0.2101	0.5071	0.02
Mof_H 	H 	0.4279	0.1835	0.9279	0.03
Mof_H 	H 	0.4029	0.9029	0.5387	0.014
Mof_H 	H 	0.9319	0.3513	0.2849	0.012
Mof_H 	H 	0.7595	0.7203	0.7999	0.027
Mof_H 	H 	0.6859	0.4143	0.7947	0.019
Mof_H 	H 	0.8249	0.8241	0.6755	0.005
Mof_H 	H 	0.2203	0.7999	0.7203	0.027
Mof_H 	H 	0.2203	0.7203	0.2595	0.027
Mof_H 	H 	0.4463	0.3077	0.4465	0.01
Mof_H 	H 	0.7978	0.595	0.2312	-0.004
Mof_H 	H 	0.1397	0.2101	0.1431	0.02
Mof_H 	H 	0.5891	0.2309	0.4559	0.008
Mof_H 	H 	0.1755	0.6755	0.3249	0.005
Mof_H 	H 	0.6281	0.7341	0.0463	0.035
Mof_H 	H 	0.7005	0.6923	0.0537	0.01
Mof_H 	H 	0.7101	0.6397	0.5071	0.02
Mof_H 	H 	0.2341	0.0463	0.5915	0.035
Mof_H 	H 	0.8513	0.4319	0.2849	0.012
Mof_H 	H 	0.2241	0.0891	0.2309	0.008
Mof_H 	H 	0.3445	0.0971	0.0971	0.014
Mof_H 	H 	0.6281	0.0463	0.5915	0.035
Mof_H 	H 	0.876	0.595	0.2312	-0.004
Mof_H 	H 	0.7849	0.3513	0.4319	0.012
Mof_H 	H 	0.1755	0.3249	0.8241	0.005
Mof_H 	H 	0.7797	0.2797	0.7405	0.027
Mof_H 	H 	0.2995	0.4465	0.3077	0.01
Mof_H 	H 	0.1923	0.0537	0.2005	0.01
Mof_H 	H 	0.7053	0.8141	0.5857	0.019
Mof_H 	H 	0.4537	0.8719	0.2659	0.036
Mof_H 	H 	0.4109	0.7691	0.2759	0.008
Mof_H 	H 	0.7309	0.0891	0.7241	0.008
Mof_H 	H 	0.3165	0.5393	0.0721	0.03
Mof_H 	H 	0.7312	0.595	0.2978	-0.004
Mof_H 	H 	0.4463	0.7995	0.3077	0.01
Mof_H 	H 	0.9319	0.2849	0.3513	0.012
Mof_H 	H 	0.6431	0.2101	0.5071	0.02
Mof_H 	H 	0.4029	0.9029	0.1555	0.014
Mof_H 	H 	0.2341	0.5915	0.1281	0.035
Mof_H 	H 	0.1923	0.2005	0.0537	0.01
Mof_H 	H 	0.8077	0.7995	0.9463	0.01
Mof_H 	H 	0.4029	0.1555	0.9029	0.014
Mof_H 	H 	0.5463	0.5915	0.7341	0.036
Mof_H 	H 	0.9465	0.3077	0.7995	0.01
Mof_H 	H 	0.4463	0.4465	0.3077	0.01
Mof_H 	H 	0.9465	0.7995	0.9463	0.01
Mof_H 	H 	0.6859	0.7947	0.1051	0.019
Mof_H 	H 	0.0857	0.8949	0.2053	0.019
Mof_H 	H 	0.876	0.2978	0.2312	-0.004
Mof_H 	H 	0.7101	0.1431	0.6397	0.02
Mof_H 	H 	0.7659	0.8719	0.9537	0.036
Mof_H 	H 	0.095	0.376	0.2978	-0.004
Mof_H 	H 	0.7659	0.8719	0.4085	0.036
Mof_H 	H 	0.4279	0.4607	0.1835	0.03
Mof_H 	H 	0.2947	0.4143	0.1051	0.019
Mof_H 	H 	0.1397	0.1431	0.2101	0.02
Mof_H 	H 	0.095	0.2312	0.376	-0.004
Mof_H 	H 	0.6431	0.5071	0.2101	0.02
Mof_H 	H 	0.6759	0.6751	0.3245	0.005
Mof_H 	H 	0.2899	0.8569	0.3603	0.02
Mof_H 	H 	0.3719	0.4085	0.2659	0.036
Mof_H 	H 	0.9929	0.8569	0.7899	0.02
Mof_H 	H 	0.905	0.7022	0.7688	-0.004
Mof_H 	H 	0.9929	0.3603	0.7899	0.02
Mof_H 	H 	0.2241	0.0891	0.4559	0.008
Mof_H 	H 	0.905	0.7688	0.7022	-0.004
Mof_H 	H 	0.9143	0.7947	0.1051	0.019
Mof_H 	H 	0.0915	0.1281	0.0463	0.035
Mof_H 	H 	0.7005	0.6923	0.5535	0.01
Mof_H 	H 	0.5463	0.5915	0.1281	0.035
Mof_H 	H 	0.124	0.7022	0.7688	-0.004
Mof_H 	H 	0.3949	0.8141	0.2053	0.019
Mof_H 	H 	0.5537	0.2005	0.5535	0.01
Mof_H 	H 	0.5891	0.4559	0.2309	0.008
Mof_H 	H 	0.9465	0.7995	0.3077	0.01
Mof_H 	H 	0.5537	0.2005	0.6923	0.01
Mof_H 	H 	0.7309	0.4559	0.7241	0.008
Mof_H 	H 	0.124	0.405	0.7022	-0.004
Mof_H 	H 	0.6555	0.9029	0.5387	0.014
Mof_H 	H 	0.905	0.7022	0.624	-0.004
Mof_H 	H 	0.5891	0.7241	0.4559	0.008
Mof_H 	H 	0.4463	0.4465	0.7995	0.01
Mof_H 	H 	0.9143	0.7947	0.1859	0.019
Mof_H 	H 	0.2688	0.7022	0.624	-0.004
Mof_H 	H 	0.2405	0.2001	0.2797	0.027
Mof_H 	H 	0.6051	0.7947	0.4143	0.019
Mof_H 	H 	0.7759	0.5441	0.7691	0.008
Mof_H 	H 	0.7309	0.4559	0.0891	0.008
Mof_H 	H 	0.9613	0.8445	0.0971	0.014
Mof_H 	H 	0.7797	0.7405	0.2797	0.027
Mof_H 	H 	0.9607	0.1835	0.9279	0.03
Mof_H 	H 	0.8513	0.4319	0.4319	0.012
Mof_H 	H 	0.5971	0.0971	0.4613	0.014
Mof_H 	H 	0.2999	0.7203	0.2595	0.027
Mof_H 	H 	0.5891	0.4559	0.7241	0.008
Mof_H 	H 	0.9929	0.3603	0.8569	0.02
Mof_H 	H 	0.9613	0.0971	0.0971	0.014
Mof_H 	H 	0.4463	0.7995	0.4465	0.01
Mof_H 	H 	0.8077	0.9463	0.4465	0.01
Mof_H 	H 	0.2995	0.3077	0.9463	0.01
Mof_H 	H 	0.0915	0.0463	0.7341	0.035
Mof_H 	H 	0.905	0.624	0.7688	-0.004
Mof_H 	H 	0.0393	0.0721	0.8165	0.03
Mof_H 	H 	0.3949	0.2053	0.8141	0.019
Mof_H 	H 	0.7001	0.2797	0.7405	0.027
Mof_H 	H 	0.4109	0.2759	0.7691	0.008
Mof_H 	H 	0.3241	0.6755	0.6755	0.005
Mof_H 	H 	0.3141	0.8949	0.2053	0.019
Mof_H 	H 	0.7849	0.4319	0.3513	0.012
Mof_H 	H 	0.8245	0.6751	0.3245	0.005
Mof_H 	H 	0.7005	0.0537	0.6923	0.01
Mof_H 	H 	0.2241	0.4559	0.0891	0.008
Mof_H 	H 	0.0535	0.0537	0.2005	0.01
Mof_H 	H 	0.7005	0.5535	0.6923	0.01
Mof_H 	H 	0.2999	0.2595	0.7203	0.027
Mof_H 	H 	0.9319	0.2849	0.4319	0.012
Mof_H 	H 	0.3949	0.5857	0.2053	0.019
Mof_H 	H 	0.5721	0.0721	0.8165	0.03
Mof_H 	H 	0.7659	0.4085	0.8719	0.036
Mof_H 	H 	0.6835	0.9279	0.4607	0.03
Mof_H 	H 	0.0387	0.9029	0.1555	0.014
Mof_H 	H 	0.7053	0.8141	0.8949	0.019
Mof_H 	H 	0.2688	0.7022	0.405	-0.004
Mof_H 	H 	0.2022	0.7688	0.624	-0.004
Mof_H 	H 	0.0535	0.0537	0.6923	0.01
Mof_H 	H 	0.7659	0.9537	0.8719	0.036
Mof_H 	H 	0.1923	0.2005	0.5535	0.01
Mof_H 	H 	0.5721	0.8165	0.5393	0.03
Mof_H 	H 	0.6051	0.1859	0.7947	0.019
Mof_H 	H 	0.9465	0.9463	0.3077	0.01
Mof_H 	H 	0.3719	0.2659	0.9537	0.036
Mof_H 	H 	0.0441	0.7691	0.9109	0.009
Mof_H 	H 	0.3165	0.0721	0.5393	0.03
Mof_H 	H 	0.2022	0.7688	0.405	-0.004
Mof_H 	H 	0.4279	0.9279	0.1835	0.03
Mof_H 	H 	0.5891	0.7241	0.2309	0.008
Mof_H 	H 	0.7005	0.5535	0.0537	0.01
Mof_H 	H 	0.8603	0.8569	0.4929	0.02
Mof_H 	H 	0.0681	0.7151	0.6487	0.012
Mof_H 	H 	0.9143	0.1051	0.7947	0.019
Mof_H 	H 	0.8245	0.1759	0.3245	0.005
Mof_H 	H 	0.0681	0.6487	0.5681	0.012
Mof_H 	H 	0.7595	0.7203	0.7203	0.027
Mof_H 	H 	0.4463	0.3077	0.7995	0.01
Mof_H 	H 	0.2341	0.0463	0.1281	0.035
Mof_H 	H 	0.3719	0.2659	0.4085	0.036
Mof_H 	H 	0.0071	0.2101	0.6397	0.02
Mof_H 	H 	0.9559	0.7241	0.0891	0.008
Mof_H 	H 	0.9085	0.8719	0.9537	0.036
Mof_H 	H 	0.0857	0.2053	0.8949	0.019
Mof_H 	H 	0.2241	0.2309	0.4559	0.008
Mof_H 	H 	0.1751	0.1759	0.3245	0.005
Mof_H 	H 	0.7101	0.1431	0.5071	0.02
Mof_H 	H 	0.3241	0.6755	0.3249	0.005
Mof_H 	H 	0.0441	0.2759	0.7691	0.009
Mof_H 	H 	0.1755	0.3249	0.6755	0.005
Mof_H 	H 	0.5463	0.1281	0.7341	0.035
Mof_H 	H 	0.0915	0.7341	0.0463	0.035
Mof_H 	H 	0.124	0.7688	0.7022	-0.004
Mof_H 	H 	0.0071	0.1431	0.6397	0.02
Mof_H 	H 	0.876	0.595	0.2978	-0.004
Mof_H 	H 	0.0681	0.7151	0.5681	0.012
Mof_H 	H 	0.2688	0.405	0.624	-0.004
Mof_H 	H 	0.2203	0.7203	0.7999	0.027
Mof_H 	H 	0.3165	0.0721	0.0721	0.03
Mof_H 	H 	0.1923	0.0537	0.5535	0.01
Mof_H 	H 	0.5537	0.5535	0.6923	0.01
Mof_H 	H 	0.6555	0.9029	0.9029	0.014
Mof_H 	H 	0.3141	0.2053	0.5857	0.019
Mof_H 	H 	0.2151	0.5681	0.6487	0.012
Mof_H 	H 	0.7309	0.7241	0.4559	0.008
Mof_H 	H 	0.3719	0.4085	0.9537	0.036
Mof_H 	H 	0.1923	0.5535	0.0537	0.01
Mof_H 	H 	0.6759	0.3245	0.6751	0.005
Mof_H 	H 	0.4537	0.4085	0.2659	0.036
Mof_H 	H 	0.5463	0.7341	0.5915	0.036
Mof_H 	H 	0.2022	0.405	0.7688	-0.004
Mof_H 	H 	0.2947	0.1859	0.4143	0.019
Mof_H 	H 	0.2899	0.4929	0.3603	0.02
Mof_H 	H 	0.4109	0.7691	0.5441	0.008
Mof_H 	H 	0.876	0.2312	0.2978	-0.004
Mof_H 	H 	0.9465	0.9463	0.7995	0.01
Mof_H 	H 	0.3569	0.3603	0.7899	0.02
Mof_H 	H 	0.6281	0.5915	0.7341	0.036
Mof_H 	H 	0.3569	0.4929	0.7899	0.02
Mof_H 	H 	0.124	0.405	0.7688	-0.004
Mof_H 	H 	0.8245	0.1759	0.6751	0.005
Mof_H 	H 	0.4279	0.4607	0.9279	0.03
Mof_H 	H 	0.9607	0.9279	0.1835	0.03
Mof_H 	H 	0.2691	0.2759	0.9109	0.009
Mof_H 	H 	0.7978	0.376	0.595	-0.004
Mof_H 	H 	0.1487	0.7151	0.5681	0.012
Mof_H 	H 	0.7309	0.0891	0.4559	0.008
Mof_H 	H 	0.1755	0.8241	0.6755	0.005
Mof_H 	H 	0.6431	0.6397	0.5071	0.02
Mof_H 	H 	0.3719	0.9537	0.4085	0.036
Mof_H 	H 	0.8603	0.7899	0.4929	0.02
Mof_H 	H 	0.7659	0.9537	0.4085	0.036
Mof_H 	H 	0.3141	0.5857	0.8949	0.019
Mof_H 	H 	0.2688	0.405	0.7022	-0.004
Mof_H 	H 	0.2203	0.2595	0.7999	0.027
Mof_H 	H 	0.7053	0.5857	0.8949	0.019
Mof_H 	H 	0.0393	0.0721	0.0721	0.03
Mof_H 	H 	0.7309	0.7241	0.0891	0.008
Mof_H 	H 	0.2022	0.624	0.405	-0.004
Mof_H 	H 	0.4029	0.5387	0.1555	0.014
Mof_H 	H 	0.6051	0.4143	0.1859	0.019
Mof_H 	H 	0.0681	0.5681	0.7151	0.012
Mof_H 	H 	0.2899	0.8569	0.4929	0.02
Mof_H 	H 	0.1487	0.5681	0.5681	0.012
Mof_H 	H 	0.2241	0.4559	0.2309	0.008
Mof_H 	H 	0.1755	0.6755	0.8241	0.005
Mof_H 	H 	0.0857	0.8141	0.8949	0.019
Mof_H 	H 	0.7759	0.9109	0.7691	0.009
Mof_H 	H 	0.7312	0.2978	0.376	-0.004
Mof_H 	H 	0.0071	0.2101	0.1431	0.02
Mof_H 	H 	0.124	0.7688	0.405	-0.004
Mof_H 	H 	0.2691	0.9109	0.5441	0.009
Mof_H 	H 	0.0857	0.2053	0.8141	0.019
Mof_H 	H 	0.9559	0.0891	0.7241	0.008
Mof_H 	H 	0.905	0.624	0.7022	-0.004
Mof_H 	H 	0.3949	0.8141	0.5857	0.019
Mof_H 	H 	0.1397	0.1431	0.5071	0.02
Mof_H 	H 	0.7101	0.6397	0.1431	0.02
Mof_H 	H 	0.6759	0.3245	0.3245	0.005
Mof_H 	H 	0.9559	0.7241	0.2309	0.008
Mof_H 	H 	0.6051	0.7947	0.1859	0.019
Mof_H 	H 	0.9465	0.3077	0.9463	0.01
Mof_H 	H 	0.2691	0.2759	0.5441	0.008
Mof_H 	H 	0.0915	0.1281	0.7341	0.035
Mof_H 	H 	0.2995	0.4465	0.9463	0.01
Mof_H 	H 	0.5971	0.0971	0.8445	0.014
Mof_H 	H 	0.9085	0.2659	0.9537	0.036
Mof_H 	H 	0.9085	0.9537	0.8719	0.036
Mof_H 	H 	0.0387	0.9029	0.9029	0.014
Mof_H 	H 	0.2341	0.1281	0.0463	0.035
Mof_H 	H 	0.1751	0.3245	0.1759	0.005
Mof_H 	H 	0.7759	0.5441	0.9109	0.009
Mof_H 	H 	0.9559	0.2309	0.7241	0.008
Mof_H 	H 	0.6859	0.1051	0.7947	0.019
Mof_H 	H 	0.7312	0.376	0.595	-0.004
Mof_H 	H 	0.8077	0.7995	0.4465	0.01
Mof_H 	H 	0.0535	0.6923	0.2005	0.01
Mof_H 	H 	0.4029	0.1555	0.5387	0.014
Mof_H 	H 	0.7759	0.7691	0.9109	0.009
Mof_H 	H 	0.9319	0.3513	0.4319	0.012
Mof_H 	H 	0.5971	0.8445	0.0971	0.014
Mof_H 	H 	0.3719	0.9537	0.2659	0.036
Mof_H 	H 	0.2995	0.9463	0.3077	0.01
Mof_H 	H 	0.0441	0.9109	0.2759	0.009
Mof_H 	H 	0.5971	0.4613	0.8445	0.014
Mof_H 	H 	0.2203	0.2595	0.7203	0.027
Mof_H 	H 	0.7759	0.7691	0.5441	0.008
Mof_H 	H 	0.9085	0.2659	0.8719	0.036
Mof_H 	H 	0.7001	0.7405	0.2797	0.027
Mof_H 	H 	0.2241	0.2309	0.0891	0.008
Mof_H 	H 	0.4109	0.5441	0.7691	0.008
Mof_H 	H 	0.2405	0.2797	0.2001	0.027
Mof_H 	H 	0.2341	0.5915	0.0463	0.035
Mof_H 	H 	0.8603	0.4929	0.8569	0.02
Mof_H 	H 	0.0857	0.8949	0.8141	0.019
Mof_H 	H 	0.0441	0.7691	0.2759	0.009
Mof_H 	H 	0.3569	0.7899	0.3603	0.02
Mof_H 	H 	0.876	0.2312	0.595	-0.004
Mof_H 	H 	0.4537	0.2659	0.8719	0.036
Mof_H 	H 	0.2203	0.7999	0.2595	0.027
Mof_H 	H 	0.8077	0.4465	0.7995	0.01
Mof_H 	H 	0.2688	0.624	0.7022	-0.004
Mof_H 	H 	0.2151	0.6487	0.5681	0.012
Mof_H 	H 	0.1755	0.8241	0.3249	0.005
Mof_H 	H 	0.7005	0.0537	0.5535	0.01
Mof_H 	H 	0.3141	0.8949	0.5857	0.019
Mof_H 	H 	0.0857	0.8141	0.2053	0.019
Mof_H 	H 	0.4537	0.4085	0.8719	0.036
Mof_H 	H 	0.2022	0.624	0.7688	-0.004
Mof_H 	H 	0.4537	0.8719	0.4085	0.036
Mof_H 	H 	0.8077	0.4465	0.9463	0.01
Mof_H 	H 	0.8245	0.6751	0.1759	0.005
Mof_H 	H 	0.7595	0.7999	0.7203	0.027
Mof_H 	H 	0.7978	0.2312	0.376	-0.004
Mof_H 	H 	0.2691	0.5441	0.9109	0.009
Mof_H 	H 	0.3141	0.2053	0.8949	0.019
Mof_H 	H 	0.5721	0.0721	0.5393	0.03
Mof_H 	H 	0.0393	0.8165	0.0721	0.03
Mof_H 	H 	0.1487	0.5681	0.7151	0.012
Mof_H 	H 	0.7797	0.2001	0.7405	0.027
Mof_H 	H 	0.7978	0.376	0.2312	-0.004
Mof_H 	H 	0.1923	0.5535	0.2005	0.01
Mof_H 	H 	0.5721	0.5393	0.0721	0.03
Mof_H 	H 	0.2691	0.9109	0.2759	0.009
Mof_H 	H 	0.8603	0.7899	0.8569	0.02
Mof_H 	H 	0.8603	0.4929	0.7899	0.02
Mof_H 	H 	0.6835	0.4607	0.9279	0.03
Mof_H 	H 	0.3141	0.5857	0.2053	0.019
Mof_H 	H 	0.0535	0.2005	0.6923	0.01
Mof_H 	H 	0.0681	0.6487	0.7151	0.012
Mof_H 	H 	0.3569	0.4929	0.3603	0.02
Mof_H 	H 	0.1751	0.3245	0.3245	0.005
Mof_H 	H 	0.3949	0.2053	0.5857	0.019
Mof_H 	H 	0.5463	0.7341	0.1281	0.035
Mof_H 	H 	0.9613	0.0971	0.8445	0.014
Mof_H 	H 	0.5721	0.5393	0.8165	0.03
Mof_H 	H 	0.8245	0.3245	0.6751	0.005
Mof_H 	H 	0.6281	0.7341	0.5915	0.036
Mof_H 	H 	0.2151	0.5681	0.5681	0.012
Mof_H 	H 	0.7849	0.4319	0.4319	0.012
Mof_H 	H 	0.876	0.2978	0.595	-0.004
Mof_H 	H 	0.3949	0.5857	0.8141	0.019
Mof_H 	H 	0.2947	0.1859	0.1051	0.019
Mof_H 	H 	0.095	0.2978	0.376	-0.004
Mof_H 	H 	0.8077	0.9463	0.7995	0.01
Mof_H 	H 	0.2947	0.1051	0.4143	0.019
Mof_H 	H 	0.2341	0.1281	0.5915	0.035
Mof_H 	H 	0.7101	0.5071	0.1431	0.02
Mof_H 	H 	0.5537	0.6923	0.5535	0.01
Mof_H 	H 	0.905	0.7688	0.624	-0.004
Mof_H 	H 	0.5463	0.1281	0.5915	0.035
Mof_H 	H 	0.095	0.376	0.2312	-0.004
Mof_H 	H 	0.6555	0.5387	0.9029	0.014
Mof_H 	H 	0.7001	0.2797	0.2797	0.027
Mof_H 	H 	0.3241	0.3249	0.6755	0.005
Mof_H 	H 	0.7053	0.8949	0.8141	0.019
Mof_H 	H 	0.7797	0.2797	0.2001	0.027
Mof_H 	H 	0.5537	0.5535	0.2005	0.01
Mof_H 	H 	0.2899	0.3603	0.8569	0.02
Mof_H 	H 	0.2947	0.4143	0.1859	0.019
Mof_H 	H 	0.3569	0.7899	0.4929	0.02
Mof_H 	H 	0.2995	0.3077	0.4465	0.01
Mof_H 	H 	0.0071	0.6397	0.1431	0.02
Mof_H 	H 	0.6051	0.4143	0.7947	0.019
Mof_H 	H 	0.8249	0.6755	0.6755	0.005
Mof_H 	H 	0.6859	0.1051	0.4143	0.019
Mof_H 	H 	0.9319	0.4319	0.3513	0.012
Mof_H 	H 	0.8603	0.8569	0.7899	0.02
Mof_H 	H 	0.2899	0.3603	0.4929	0.02
Mof_H 	H 	0.5971	0.4613	0.0971	0.014
Mof_H 	H 	0.2405	0.2797	0.2797	0.027
Mof_H 	H 	0.2999	0.7203	0.7203	0.027
Mof_H 	H 	0.5971	0.8445	0.4613	0.014
Mof_H 	H 	0.2899	0.4929	0.8569	0.02
Mof_H 	H 	0.5721	0.8165	0.0721	0.03
Mof_H 	H 	0.4109	0.2759	0.5441	0.008
Mof_C 	C 	0.10602	0.31222	0.35842	0.211
Mof_C 	C 	0.15364	0.19096	0.3277	0.178
Mof_C 	C 	0.61517	0.80127	0.16307	0.139
Mof_C 	C 	0.65952	0.45052	0.83008	0.512
Mof_C 	C 	0.38483	0.83693	0.57951	0.139
Mof_C 	C 	0.14121	0.56759	0.10501	0.491
Mof_C 	C 	0.78492	0.2378	0.73948	-0.168
Mof_C 	C 	0.706	0.8722	0.973	0.481
Mof_C 	C 	0.02252	0.7785	0.31804	-0.211
Mof_C 	C 	0.93848	0.82156	0.14362	-0.205
Mof_C 	C 	0.61906	0.2215	0.68196	-0.21
Mof_C 	C 	0.0639	0.6107	0.7147	-0.222
Mof_C 	C 	0.1723	0.34636	0.6723	0.178
Mof_C 	C 	0.71101	0.65819	0.50661	0.13
Mof_C 	C 	0.9762	0.7087	0.2238	0.166
Mof_C 	C 	0.294	0.027	0.1278	0.482
Mof_C 	C 	0.0852	0.1094	0.0604	0.082
Mof_C 	C 	0.294	0.5512	0.027	0.482
Mof_C 	C 	0.4123	0.2711	0.4043	-0.151
Mof_C 	C 	0.7913	0.7762	0.5238	0.164
Mof_C 	C 	0.706	0.4488	0.973	0.481
Mof_C 	C 	0.94632	0.22752	0.67908	0.537
Mof_C 	C 	0.4123	0.4043	0.9123	-0.151
Mof_C 	C 	0.4588	0.4994	0.7856	0.559
Mof_C 	C 	0.08914	0.8504	0.21006	-0.208
Mof_C 	C 	0.96593	0.92913	0.79467	0.158
Mof_C 	C 	0.7157	0.06746	0.71268	-0.244
Mof_C 	C 	0.29822	0.33602	0.90118	-0.194
Mof_C 	C 	0.1723	0.34636	0.80904	0.178
Mof_C 	C 	0.1619	0.6619	0.40954	-0.288
Mof_C 	C 	0.18196	0.11906	0.47748	-0.21
Mof_C 	C 	0.2762	0.5238	0.2913	0.164
Mof_C 	C 	0.6022	0.5648	0.7782	-0.149
Mof_C 	C 	0.2843	0.28732	0.93254	-0.244
Mof_C 	C 	0.3298	0.8298	0.23526	0.542
Mof_C 	C 	0.80587	0.20189	0.35441	-0.262
Mof_C 	C 	0.3896	0.55192	0.16888	0.141
Mof_C 	C 	0.18778	0.64158	0.77666	0.211
Mof_C 	C 	0.5757	0.5537	0.7949	0.084
Mof_C 	C 	0.10602	0.31222	0.22334	0.211
Mof_C 	C 	0.34048	0.54948	0.16992	0.512
Mof_C 	C 	0.21484	0.579	0.62716	0.157
Mof_C 	C 	0.9685	0.3711	0.2893	0.522
Mof_C 	C 	0.294	0.027	0.5512	0.482
Mof_C 	C 	0.1619	0.40954	0.76666	-0.288
Mof_C 	C 	0.706	0.4488	0.8722	0.482
Mof_C 	C 	0.4452	0.2218	0.4352	-0.149
Mof_C 	C 	0.0957	0.0877	0.0877	-0.152
Mof_C 	C 	0.60501	0.18619	0.64121	0.491
Mof_C 	C 	0.70533	0.07087	0.53407	0.159
Mof_C 	C 	0.1289	0.7107	0.5315	0.522
Mof_C 	C 	0.70189	0.35441	0.63783	-0.262
Mof_C 	C 	0.38094	0.52252	0.31804	-0.21
Mof_C 	C 	0.06759	0.10501	0.18619	0.491
Mof_C 	C 	0.89486	0.76474	0.1702	0.542
Mof_C 	C 	0.2781	0.7309	0.7309	0.108
Mof_C 	C 	0.7215	0.68196	0.47748	-0.21
Mof_C 	C 	0.35638	0.56152	0.90366	-0.205
Mof_C 	C 	0.44012	0.54948	0.84048	0.512
Mof_C 	C 	0.6496	0.78994	0.41086	-0.208
Mof_C 	C 	0.26666	0.40954	0.6619	-0.288
Mof_C 	C 	0.21508	0.7622	0.26052	-0.168
Mof_C 	C 	0.03407	0.07087	0.68973	0.159
Mof_C 	C 	0.96593	0.79467	0.31027	0.159
Mof_C 	C 	0.7051	0.9243	0.9243	0.084
Mof_C 	C 	0.7913	0.5238	0.7762	0.164
Mof_C 	C 	0.89398	0.77666	0.68778	0.211
Mof_C 	C 	0.99339	0.87581	0.78899	0.132
Mof_C 	C 	0.6278	0.5512	0.794	0.482
Mof_C 	C 	0.5412	0.2144	0.5006	0.559
Mof_C 	C 	0.86217	0.69413	0.64559	-0.262
Mof_C 	C 	0.81027	0.79467	0.46593	0.158
Mof_C 	C 	0.72752	0.67908	0.44632	0.537
Mof_C 	C 	0.1723	0.80904	0.6723	0.178
Mof_C 	C 	0.40118	0.79822	0.33602	-0.194
Mof_C 	C 	0.4588	0.2562	0.7856	0.559
Mof_C 	C 	0.93241	0.35879	0.89499	0.491
Mof_C 	C 	0.27248	0.55368	0.32092	0.537
Mof_C 	C 	0.55988	0.45052	0.83008	0.512
Mof_C 	C 	0.72334	0.31222	0.60602	0.211
Mof_C 	C 	0.29822	0.46458	0.90118	-0.194
Mof_C 	C 	0.4087	0.7762	0.2913	0.164
Mof_C 	C 	0.5877	0.0877	0.5957	-0.152
Mof_C 	C 	0.57087	0.68973	0.20533	0.158
Mof_C 	C 	0.8277	0.65364	0.19096	0.178
Mof_C 	C 	0.7157	0.06746	0.50416	-0.244
Mof_C 	C 	0.5412	0.2144	0.7438	0.559
Mof_C 	C 	0.5412	0.5006	0.7438	0.559
Mof_C 	C 	0.2107	0.5315	0.6289	0.522
Mof_C 	C 	0.6094	0.5852	0.0604	0.082
Mof_C 	C 	0.3298	0.60514	0.8298	0.542
Mof_C 	C 	0.91086	0.78994	0.1496	-0.207
Mof_C 	C 	0.96593	0.31027	0.79467	0.159
Mof_C 	C 	0.62419	0.50661	0.21101	0.13
Mof_C 	C 	0.39499	0.81381	0.43241	0.491
Mof_C 	C 	0.5913	0.2238	0.4762	0.164
Mof_C 	C 	0.81222	0.22334	0.60602	0.211
Mof_C 	C 	0.245	0.0604	0.5852	0.082
Mof_C 	C 	0.97748	0.68196	0.11906	-0.209
Mof_C 	C 	0.6104	0.1104	0.44808	0.141
Mof_C 	C 	0.82138	0.2208	0.73702	0.49
Mof_C 	C 	0.66307	0.80127	0.42049	0.139
Mof_C 	C 	0.5913	0.7087	0.2238	0.164
Mof_C 	C 	0.84636	0.6723	0.80904	0.178
Mof_C 	C 	0.37581	0.49339	0.78899	0.13
Mof_C 	C 	0.4588	0.7856	0.4994	0.559
Mof_C 	C 	0.5913	0.4762	0.2238	0.164
Mof_C 	C 	0.7218	0.9452	0.4352	-0.149
Mof_C 	C 	0.14121	0.10501	0.18619	0.491
Mof_C 	C 	0.18973	0.07087	0.20533	0.159
Mof_C 	C 	0.68619	0.64121	0.10501	0.491
Mof_C 	C 	0.2792	0.26298	0.7792	0.49
Mof_C 	C 	0.4087	0.5238	0.2913	0.164
Mof_C 	C 	0.23702	0.32138	0.2208	0.49
Mof_C 	C 	0.00416	0.2157	0.71268	-0.245
Mof_C 	C 	0.85879	0.81381	0.43241	0.491
Mof_C 	C 	0.2949	0.0757	0.0757	0.084
Mof_C 	C 	0.294	0.1278	0.027	0.482
Mof_C 	C 	0.17862	0.7792	0.26298	0.49
Mof_C 	C 	0.81804	0.88094	0.52252	-0.21
Mof_C 	C 	0.16398	0.53542	0.20178	-0.194
Mof_C 	C 	0.66888	0.55192	0.8896	0.141
Mof_C 	C 	0.9361	0.3893	0.3893	-0.221
Mof_C 	C 	0.2785	0.31804	0.52252	-0.21
Mof_C 	C 	0.8441	0.7235	0.80662	0.562
Mof_C 	C 	0.2785	0.31804	0.88094	-0.21
Mof_C 	C 	0.03542	0.09882	0.20178	-0.194
Mof_C 	C 	0.69873	0.83693	0.57951	0.139
Mof_C 	C 	0.00661	0.12419	0.65819	0.129
Mof_C 	C 	0.28899	0.87581	0.34181	0.13
Mof_C 	C 	0.7378	0.2378	0.73948	-0.168
Mof_C 	C 	0.2949	0.5537	0.0757	0.084
Mof_C 	C 	0.5757	0.7949	0.5537	0.084
Mof_C 	C 	0.0512	0.027	0.794	0.482
Mof_C 	C 	0.1619	0.76666	0.6619	-0.288
Mof_C 	C 	0.00661	0.12419	0.21101	0.129
Mof_C 	C 	0.56746	0.50416	0.2157	-0.244
Mof_C 	C 	0.85441	0.20189	0.63783	-0.262
Mof_C 	C 	0.84636	0.6723	0.6723	0.178
Mof_C 	C 	0.473	0.4488	0.8722	0.482
Mof_C 	C 	0.84181	0.78899	0.87581	0.13
Mof_C 	C 	0.7913	0.7762	0.9087	0.164
Mof_C 	C 	0.3298	0.60514	0.23526	0.542
Mof_C 	C 	0.02252	0.31804	0.7785	-0.211
Mof_C 	C 	0.5913	0.7087	0.4762	0.164
Mof_C 	C 	0.62419	0.21101	0.65819	0.13
Mof_C 	C 	0.4123	0.9123	0.2711	-0.151
Mof_C 	C 	0.29467	0.92913	0.31027	0.158
Mof_C 	C 	0.7765	0.37422	0.6559	0.562
Mof_C 	C 	0.61906	0.68196	0.47748	-0.21
Mof_C 	C 	0.23948	0.2378	0.2378	-0.168
Mof_C 	C 	0.00416	0.2157	0.06746	-0.245
Mof_C 	C 	0.29467	0.46593	0.31027	0.158
Mof_C 	C 	0.78492	0.2378	0.2378	-0.168
Mof_C 	C 	0.75844	0.3414	0.55876	0.548
Mof_C 	C 	0.64362	0.82156	0.43848	-0.205
Mof_C 	C 	0.5913	0.4762	0.7087	0.164
Mof_C 	C 	0.17908	0.22752	0.14708	0.537
Mof_C 	C 	0.5877	0.5957	0.7289	-0.151
Mof_C 	C 	0.78732	0.49584	0.93254	-0.244
Mof_C 	C 	0.5548	0.7782	0.1022	-0.149
Mof_C 	C 	0.13783	0.20189	0.35441	-0.262
Mof_C 	C 	0.69873	0.57951	0.83693	0.139
Mof_C 	C 	0.21268	0.2157	0.06746	-0.244
Mof_C 	C 	0.39499	0.35879	0.43241	0.491
Mof_C 	C 	0.10602	0.35842	0.31222	0.211
Mof_C 	C 	0.14559	0.36217	0.79811	-0.262
Mof_C 	C 	0.94632	0.67908	0.22752	0.537
Mof_C 	C 	0.66888	0.8896	0.8896	0.141
Mof_C 	C 	0.99339	0.34181	0.78899	0.132
Mof_C 	C 	0.02252	0.7785	0.88094	-0.211
Mof_C 	C 	0.13783	0.20189	0.30587	-0.262
Mof_C 	C 	0.1559	0.37422	0.2765	0.562
Mof_C 	C 	0.27666	0.68778	0.64158	0.211
Mof_C 	C 	0.5958	0.6154	0.693	0.473
Mof_C 	C 	0.33112	0.1104	0.1104	0.141
Mof_C 	C 	0.29811	0.36217	0.64559	-0.262
Mof_C 	C 	0.5877	0.0877	0.7289	-0.152
Mof_C 	C 	0.4123	0.4043	0.2711	-0.151
Mof_C 	C 	0.7691	0.2219	0.2691	0.108
Mof_C 	C 	0.8441	0.80662	0.7235	0.562
Mof_C 	C 	0.66307	0.42049	0.80127	0.139
Mof_C 	C 	0.14158	0.68778	0.77666	0.211
Mof_C 	C 	0.00416	0.06746	0.71268	-0.245
Mof_C 	C 	0.6278	0.027	0.5512	0.482
Mof_C 	C 	0.70178	0.66398	0.53542	-0.194
Mof_C 	C 	0.68619	0.10501	0.56759	0.491
Mof_C 	C 	0.921	0.28516	0.421	0.157
Mof_C 	C 	0.6278	0.5512	0.027	0.482
Mof_C 	C 	0.6702	0.1702	0.76474	0.542
Mof_C 	C 	0.3906	0.255	0.4148	0.082
Mof_C 	C 	0.23948	0.28492	0.2378	-0.168
Mof_C 	C 	0.9762	0.2238	0.0913	0.166
Mof_C 	C 	0.33008	0.15952	0.45052	0.512
Mof_C 	C 	0.7562	0.9588	0.7856	0.559
Mof_C 	C 	0.7218	0.4352	0.9452	-0.149
Mof_C 	C 	0.8381	0.59046	0.3381	-0.288
Mof_C 	C 	0.1586	0.6586	0.74156	0.548
Mof_C 	C 	0.95052	0.15952	0.05988	0.511
Mof_C 	C 	0.6094	0.5852	0.745	0.082
Mof_C 	C 	0.1586	0.74156	0.6586	0.548
Mof_C 	C 	0.30662	0.62578	0.3441	0.562
Mof_C 	C 	0.96593	0.79467	0.92913	0.158
Mof_C 	C 	0.2399	0.2691	0.2691	0.108
Mof_C 	C 	0.40366	0.85638	0.56152	-0.205
Mof_C 	C 	0.85842	0.22334	0.60602	0.211
Mof_C 	C 	0.33693	0.57951	0.88483	0.139
Mof_C 	C 	0.8277	0.3277	0.19096	0.178
Mof_C 	C 	0.8711	0.3711	0.4685	0.522
Mof_C 	C 	0.5412	0.7438	0.5006	0.559
Mof_C 	C 	0.42913	0.79467	0.46593	0.158
Mof_C 	C 	0.29811	0.64559	0.36217	-0.262
Mof_C 	C 	0.71101	0.12419	0.65819	0.13
Mof_C 	C 	0.05368	0.85292	0.77248	0.538
Mof_C 	C 	0.06152	0.85638	0.17844	-0.205
Mof_C 	C 	0.26666	0.6619	0.6619	-0.288
Mof_C 	C 	0.6702	0.76474	0.1702	0.542
Mof_C 	C 	0.35292	0.32092	0.55368	0.537
Mof_C 	C 	0.34048	0.16992	0.94012	0.512
Mof_C 	C 	0.96458	0.90118	0.79822	-0.194
Mof_C 	C 	0.05876	0.3414	0.25844	0.548
Mof_C 	C 	0.69338	0.37422	0.6559	0.562
Mof_C 	C 	0.7765	0.19338	0.6559	0.562
Mof_C 	C 	0.2438	0.2144	0.5006	0.559
Mof_C 	C 	0.5958	0.0958	0.6154	0.473
Mof_C 	C 	0.6496	0.78994	0.1496	-0.208
Mof_C 	C 	0.87422	0.6559	0.2765	0.562
Mof_C 	C 	0.99584	0.7843	0.93254	-0.243
Mof_C 	C 	0.4452	0.4352	0.8978	-0.149
Mof_C 	C 	0.3504	0.58914	0.21006	-0.208
Mof_C 	C 	0.13783	0.35441	0.20189	-0.262
Mof_C 	C 	0.00661	0.65819	0.12419	0.129
Mof_C 	C 	0.5877	0.7289	0.5957	-0.151
Mof_C 	C 	0.57087	0.53407	0.20533	0.158
Mof_C 	C 	0.10602	0.22334	0.31222	0.211
Mof_C 	C 	0.04948	0.94012	0.16992	0.512
Mof_C 	C 	0.0238	0.2913	0.7762	0.163
Mof_C 	C 	0.70178	0.53542	0.66398	-0.194
Mof_C 	C 	0.9148	0.9396	0.8906	0.081
Mof_C 	C 	0.38483	0.19873	0.57951	0.139
Mof_C 	C 	0.93241	0.81381	0.35879	0.491
Mof_C 	C 	0.527	0.1278	0.794	0.482
Mof_C 	C 	0.245	0.0604	0.1094	0.082
Mof_C 	C 	0.55988	0.15952	0.45052	0.512
Mof_C 	C 	0.9352	0.2218	0.9452	-0.149
Mof_C 	C 	0.18778	0.39398	0.77666	0.211
Mof_C 	C 	0.079	0.579	0.71484	0.157
Mof_C 	C 	0.69096	0.3277	0.3277	0.178
Mof_C 	C 	0.23702	0.2208	0.2208	0.49
Mof_C 	C 	0.69873	0.88483	0.57951	0.139
Mof_C 	C 	0.8893	0.4361	0.3893	-0.221
Mof_C 	C 	0.1289	0.5315	0.6289	0.522
Mof_C 	C 	0.7601	0.7309	0.7309	0.108
Mof_C 	C 	0.24156	0.6586	0.44124	0.548
Mof_C 	C 	0.61517	0.42049	0.80127	0.139
Mof_C 	C 	0.43254	0.7843	0.28732	-0.244
Mof_C 	C 	0.29811	0.69413	0.36217	-0.262
Mof_C 	C 	0.0238	0.7762	0.9087	0.163
Mof_C 	C 	0.6702	0.76474	0.39486	0.542
Mof_C 	C 	0.07951	0.83693	0.88483	0.139
Mof_C 	C 	0.21268	0.50416	0.06746	-0.244
Mof_C 	C 	0.19413	0.64559	0.36217	-0.262
Mof_C 	C 	0.2856	0.9588	0.4994	0.559
Mof_C 	C 	0.2087	0.2238	0.0913	0.164
Mof_C 	C 	0.72752	0.14708	0.67908	0.537
Mof_C 	C 	0.2622	0.7622	0.26052	-0.168
Mof_C 	C 	0.38483	0.57951	0.19873	0.139
Mof_C 	C 	0.2782	0.5648	0.0548	-0.15
Mof_C 	C 	0.99584	0.93254	0.7843	-0.243
Mof_C 	C 	0.38483	0.19873	0.83693	0.139
Mof_C 	C 	0.9685	0.3711	0.3711	0.522
Mof_C 	C 	0.755	0.9396	0.4148	0.082
Mof_C 	C 	0.59882	0.53542	0.20178	-0.194
Mof_C 	C 	0.76052	0.7622	0.7622	-0.168
Mof_C 	C 	0.0957	0.0877	0.7289	-0.152
Mof_C 	C 	0.34048	0.94012	0.16992	0.512
Mof_C 	C 	0.13783	0.30587	0.35441	-0.262
Mof_C 	C 	0.65952	0.83008	0.05988	0.511
Mof_C 	C 	0.527	0.5512	0.794	0.482
Mof_C 	C 	0.7219	0.7399	0.2691	0.108
Mof_C 	C 	0.10514	0.23526	0.8298	0.542
Mof_C 	C 	0.527	0.1278	0.5512	0.482
Mof_C 	C 	0.06152	0.90366	0.17844	-0.205
Mof_C 	C 	0.05192	0.8896	0.16888	0.141
Mof_C 	C 	0.7691	0.7399	0.2691	0.108
Mof_C 	C 	0.07951	0.19873	0.83693	0.139
Mof_C 	C 	0.15819	0.21101	0.12419	0.13
Mof_C 	C 	0.29467	0.92913	0.46593	0.158
Mof_C 	C 	0.59634	0.82156	0.43848	-0.205
Mof_C 	C 	0.78732	0.7843	0.49584	-0.244
Mof_C 	C 	0.04948	0.16992	0.84048	0.511
Mof_C 	C 	0.7238	0.7087	0.0913	0.164
Mof_C 	C 	0.5604	0.745	0.5852	0.082
Mof_C 	C 	0.2622	0.71508	0.7622	-0.168
Mof_C 	C 	0.71101	0.65819	0.12419	0.13
Mof_C 	C 	0.29811	0.69413	0.64559	-0.262
Mof_C 	C 	0.14559	0.69413	0.36217	-0.262
Mof_C 	C 	0.9463	0.9243	0.2051	0.084
Mof_C 	C 	0.0512	0.794	0.027	0.482
Mof_C 	C 	0.86217	0.69413	0.79811	-0.261
Mof_C 	C 	0.92049	0.80127	0.16307	0.139
Mof_C 	C 	0.2399	0.2691	0.2219	0.108
Mof_C 	C 	0.1559	0.37422	0.19338	0.562
Mof_C 	C 	0.89398	0.77666	0.64158	0.211
Mof_C 	C 	0.9148	0.8906	0.9396	0.081
Mof_C 	C 	0.4396	0.255	0.4148	0.082
Mof_C 	C 	0.12578	0.3441	0.7235	0.562
Mof_C 	C 	0.39499	0.35879	0.81381	0.491
Mof_C 	C 	0.93848	0.82156	0.09634	-0.204
Mof_C 	C 	0.8277	0.3277	0.65364	0.178
Mof_C 	C 	0.2235	0.80662	0.62578	0.562
Mof_C 	C 	0.2309	0.2601	0.7309	0.108
Mof_C 	C 	0.30662	0.3441	0.62578	0.562
Mof_C 	C 	0.05368	0.32092	0.77248	0.538
Mof_C 	C 	0.2438	0.0412	0.2144	0.559
Mof_C 	C 	0.35292	0.77248	0.55368	0.537
Mof_C 	C 	0.64362	0.43848	0.82156	-0.205
Mof_C 	C 	0.7378	0.73948	0.2378	-0.168
Mof_C 	C 	0.6496	0.41086	0.1496	-0.208
Mof_C 	C 	0.89398	0.68778	0.64158	0.211
Mof_C 	C 	0.473	0.206	0.4488	0.482
Mof_C 	C 	0.7051	0.9243	0.4463	0.084
Mof_C 	C 	0.294	0.1278	0.5512	0.482
Mof_C 	C 	0.12578	0.80662	0.7235	0.562
Mof_C 	C 	0.83602	0.79822	0.90118	-0.194
Mof_C 	C 	0.33008	0.45052	0.15952	0.512
Mof_C 	C 	0.4087	0.2913	0.7762	0.164
Mof_C 	C 	0.27666	0.39398	0.68778	0.211
Mof_C 	C 	0.90954	0.6619	0.76666	-0.288
Mof_C 	C 	0.7218	0.8978	0.4352	-0.149
Mof_C 	C 	0.28994	0.41086	0.1496	-0.208
Mof_C 	C 	0.3298	0.23526	0.8298	0.542
Mof_C 	C 	0.1619	0.76666	0.40954	-0.288
Mof_C 	C 	0.30127	0.42049	0.16307	0.139
Mof_C 	C 	0.2762	0.9087	0.5238	0.164
Mof_C 	C 	0.3978	0.4352	0.2218	-0.149
Mof_C 	C 	0.1154	0.693	0.0958	0.473
Mof_C 	C 	0.4452	0.8978	0.4352	-0.149
Mof_C 	C 	0.0648	0.7782	0.1022	-0.149
Mof_C 	C 	0.81222	0.60602	0.22334	0.211
Mof_C 	C 	0.6278	0.794	0.5512	0.482
Mof_C 	C 	0.19413	0.64559	0.79811	-0.262
Mof_C 	C 	0.6104	0.44808	0.1104	0.141
Mof_C 	C 	0.921	0.37284	0.28516	0.157
Mof_C 	C 	0.17908	0.44632	0.22752	0.537
Mof_C 	C 	0.1586	0.44124	0.6586	0.548
Mof_C 	C 	0.76052	0.71508	0.7622	-0.168
Mof_C 	C 	0.2785	0.88094	0.52252	-0.21
Mof_C 	C 	0.3722	0.4488	0.206	0.482
Mof_C 	C 	0.28899	0.49339	0.34181	0.13
Mof_C 	C 	0.72334	0.35842	0.60602	0.211
Mof_C 	C 	0.15819	0.50661	0.12419	0.13
Mof_C 	C 	0.0852	0.745	0.1094	0.082
Mof_C 	C 	0.0006	0.0412	0.7438	0.558
Mof_C 	C 	0.9762	0.0913	0.2238	0.166
Mof_C 	C 	0.89398	0.68778	0.77666	0.211
Mof_C 	C 	0.7765	0.19338	0.37422	0.562
Mof_C 	C 	0.7157	0.50416	0.71268	-0.244
Mof_C 	C 	0.81222	0.35842	0.60602	0.211
Mof_C 	C 	0.18973	0.20533	0.07087	0.159
Mof_C 	C 	0.193	0.0958	0.0958	0.473
Mof_C 	C 	0.75844	0.3414	0.3414	0.548
Mof_C 	C 	0.69873	0.88483	0.83693	0.139
Mof_C 	C 	0.05368	0.32092	0.85292	0.538
Mof_C 	C 	0.18973	0.07087	0.53407	0.159
Mof_C 	C 	0.4588	0.4994	0.2562	0.559
Mof_C 	C 	0.2235	0.3441	0.80662	0.562
Mof_C 	C 	0.3722	0.206	0.4488	0.482
Mof_C 	C 	0.61906	0.47748	0.68196	-0.21
Mof_C 	C 	0.76298	0.7792	0.7792	0.49
Mof_C 	C 	0.1289	0.6289	0.5315	0.522
Mof_C 	C 	0.7601	0.7781	0.7309	0.108
Mof_C 	C 	0.2087	0.2238	0.4762	0.164
Mof_C 	C 	0.76052	0.7622	0.71508	-0.168
Mof_C 	C 	0.40366	0.56152	0.17844	-0.205
Mof_C 	C 	0.8711	0.2893	0.3711	0.522
Mof_C 	C 	0.43254	0.49584	0.28732	-0.244
Mof_C 	C 	0.69873	0.57951	0.88483	0.139
Mof_C 	C 	0.67844	0.56152	0.85638	-0.205
Mof_C 	C 	0.7562	0.7856	0.4994	0.559
Mof_C 	C 	0.87422	0.2765	0.19338	0.562
Mof_C 	C 	0.87422	0.6559	0.19338	0.562
Mof_C 	C 	0.7691	0.2219	0.7399	0.108
Mof_C 	C 	0.40118	0.79822	0.46458	-0.194
Mof_C 	C 	0.3906	0.4148	0.255	0.082
Mof_C 	C 	0.2782	0.0548	0.1022	-0.15
Mof_C 	C 	0.12716	0.579	0.579	0.157
Mof_C 	C 	0.1723	0.6723	0.80904	0.178
Mof_C 	C 	0.2107	0.6289	0.6289	0.522
Mof_C 	C 	0.38094	0.31804	0.52252	-0.21
Mof_C 	C 	0.57087	0.20533	0.68973	0.158
Mof_C 	C 	0.1559	0.19338	0.2765	0.562
Mof_C 	C 	0.0315	0.6289	0.6289	0.523
Mof_C 	C 	0.2147	0.5639	0.6107	-0.221
Mof_C 	C 	0.7893	0.4685	0.3711	0.522
Mof_C 	C 	0.30904	0.34636	0.6723	0.178
Mof_C 	C 	0.34048	0.16992	0.54948	0.512
Mof_C 	C 	0.7051	0.4463	0.9243	0.084
Mof_C 	C 	0.40366	0.85638	0.17844	-0.205
Mof_C 	C 	0.80587	0.63783	0.35441	-0.261
Mof_C 	C 	0.85441	0.63783	0.20189	-0.262
Mof_C 	C 	0.9043	0.9123	0.9123	-0.151
Mof_C 	C 	0.05876	0.3414	0.3414	0.548
Mof_C 	C 	0.0006	0.2144	0.7438	0.557
Mof_C 	C 	0.94808	0.1104	0.83112	0.141
Mof_C 	C 	0.5877	0.7289	0.0877	-0.152
Mof_C 	C 	0.05368	0.77248	0.32092	0.538
Mof_C 	C 	0.8711	0.4685	0.3711	0.522
Mof_C 	C 	0.7893	0.3711	0.4685	0.522
Mof_C 	C 	0.0315	0.6289	0.7107	0.523
Mof_C 	C 	0.14158	0.39398	0.68778	0.211
Mof_C 	C 	0.8893	0.4361	0.2853	-0.221
Mof_C 	C 	0.1107	0.6107	0.7147	-0.221
Mof_C 	C 	0.35638	0.17844	0.56152	-0.205
Mof_C 	C 	0.10514	0.8298	0.8298	0.542
Mof_C 	C 	0.31381	0.89499	0.43241	0.491
Mof_C 	C 	0.71006	0.8504	0.58914	-0.207
Mof_C 	C 	0.9148	0.255	0.8906	0.082
Mof_C 	C 	0.4452	0.2218	0.8978	-0.149
Mof_C 	C 	0.2856	0.4994	0.9588	0.559
Mof_C 	C 	0.9994	0.7856	0.2562	0.56
Mof_C 	C 	0.193	0.0958	0.6154	0.473
Mof_C 	C 	0.473	0.8722	0.206	0.482
Mof_C 	C 	0.2762	0.2913	0.9087	0.164
Mof_C 	C 	0.29822	0.46458	0.33602	-0.194
Mof_C 	C 	0.2782	0.1022	0.5648	-0.149
Mof_C 	C 	0.2856	0.9588	0.2562	0.559
Mof_C 	C 	0.57087	0.68973	0.53407	0.158
Mof_C 	C 	0.5958	0.6154	0.0958	0.473
Mof_C 	C 	0.2843	0.93254	0.49584	-0.244
Mof_C 	C 	0.05192	0.8896	0.8896	0.141
Mof_C 	C 	0.06152	0.17844	0.85638	-0.205
Mof_C 	C 	0.73334	0.59046	0.3381	-0.288
Mof_C 	C 	0.5412	0.5006	0.2144	0.559
Mof_C 	C 	0.079	0.62716	0.71484	0.157
Mof_C 	C 	0.61517	0.80127	0.42049	0.139
Mof_C 	C 	0.5757	0.5537	0.0757	0.084
Mof_C 	C 	0.17908	0.44632	0.14708	0.537
Mof_C 	C 	0.5757	0.0757	0.7949	0.084
Mof_C 	C 	0.60501	0.18619	0.56759	0.491
Mof_C 	C 	0.59882	0.53542	0.66398	-0.194
Mof_C 	C 	0.69096	0.65364	0.3277	0.178
Mof_C 	C 	0.18778	0.39398	0.64158	0.211
Mof_C 	C 	0.6104	0.1104	0.83112	0.141
Mof_C 	C 	0.12716	0.579	0.71484	0.157
Mof_C 	C 	0.8414	0.25844	0.3414	0.548
Mof_C 	C 	0.2147	0.6107	0.5639	-0.221
Mof_C 	C 	0.66307	0.11517	0.80127	0.139
Mof_C 	C 	0.86217	0.79811	0.69413	-0.261
Mof_C 	C 	0.85842	0.31222	0.22334	0.211
Mof_C 	C 	0.70189	0.35441	0.30587	-0.262
Mof_C 	C 	0.80587	0.35441	0.20189	-0.262
Mof_C 	C 	0.5757	0.7949	0.0757	0.084
Mof_C 	C 	0.70533	0.68973	0.53407	0.158
Mof_C 	C 	0.1619	0.40954	0.6619	-0.288
Mof_C 	C 	0.3298	0.23526	0.60514	0.542
Mof_C 	C 	0.71006	0.58914	0.8504	-0.207
Mof_C 	C 	0.94124	0.74156	0.6586	0.549
Mof_C 	C 	0.37581	0.78899	0.34181	0.13
Mof_C 	C 	0.61906	0.2215	0.47748	-0.21
Mof_C 	C 	0.27248	0.32092	0.55368	0.537
Mof_C 	C 	0.807	0.9042	0.9042	0.473
Mof_C 	C 	0.83602	0.46458	0.90118	-0.194
Mof_C 	C 	0.5604	0.1094	0.745	0.082
Mof_C 	C 	0.7711	0.9123	0.4043	-0.151
Mof_C 	C 	0.2438	0.2144	0.0412	0.559
Mof_C 	C 	0.16398	0.09882	0.20178	-0.195
Mof_C 	C 	0.67844	0.90366	0.85638	-0.205
Mof_C 	C 	0.06759	0.10501	0.64121	0.491
Mof_C 	C 	0.3978	0.9452	0.4352	-0.149
Mof_C 	C 	0.0315	0.7107	0.6289	0.523
Mof_C 	C 	0.18778	0.77666	0.39398	0.211
Mof_C 	C 	0.706	0.973	0.4488	0.481
Mof_C 	C 	0.2622	0.26052	0.7622	-0.168
Mof_C 	C 	0.93241	0.89499	0.81381	0.491
Mof_C 	C 	0.96458	0.33602	0.90118	-0.194
Mof_C 	C 	0.42913	0.31027	0.46593	0.158
Mof_C 	C 	0.7208	0.73702	0.2208	0.49
Mof_C 	C 	0.706	0.8722	0.4488	0.482
Mof_C 	C 	0.70189	0.30587	0.63783	-0.262
Mof_C 	C 	0.15819	0.12419	0.50661	0.13
Mof_C 	C 	0.73526	0.8298	0.8298	0.542
Mof_C 	C 	0.78516	0.421	0.37284	0.157
Mof_C 	C 	0.4087	0.2913	0.5238	0.164
Mof_C 	C 	0.8711	0.2893	0.4685	0.522
Mof_C 	C 	0.70178	0.09882	0.66398	-0.194
Mof_C 	C 	0.5548	0.1022	0.5648	-0.149
Mof_C 	C 	0.2235	0.3441	0.62578	0.562
Mof_C 	C 	0.527	0.794	0.5512	0.482
Mof_C 	C 	0.80587	0.35441	0.63783	-0.261
Mof_C 	C 	0.2289	0.0877	0.0877	-0.152
Mof_C 	C 	0.7765	0.6559	0.19338	0.562
Mof_C 	C 	0.16398	0.20178	0.09882	-0.195
Mof_C 	C 	0.18196	0.11906	0.2215	-0.21
Mof_C 	C 	0.94808	0.83112	0.1104	0.141
Mof_C 	C 	0.16398	0.20178	0.53542	-0.194
Mof_C 	C 	0.69096	0.3277	0.65364	0.178
Mof_C 	C 	0.29822	0.90118	0.46458	-0.194
Mof_C 	C 	0.0006	0.7438	0.2144	0.557
Mof_C 	C 	0.35638	0.17844	0.90366	-0.205
Mof_C 	C 	0.95052	0.05988	0.83008	0.511
Mof_C 	C 	0.4042	0.3846	0.9042	0.473
Mof_C 	C 	0.245	0.1094	0.0604	0.082
Mof_C 	C 	0.0512	0.794	0.1278	0.481
Mof_C 	C 	0.0852	0.0604	0.745	0.082
Mof_C 	C 	0.40366	0.17844	0.85638	-0.205
Mof_C 	C 	0.87422	0.19338	0.2765	0.562
Mof_C 	C 	0.5412	0.7438	0.2144	0.559
Mof_C 	C 	0.1559	0.19338	0.37422	0.562
Mof_C 	C 	0.6022	0.7782	0.0548	-0.15
Mof_C 	C 	0.61517	0.16307	0.80127	0.139
Mof_C 	C 	0.33112	0.1104	0.44808	0.141
Mof_C 	C 	0.40118	0.33602	0.79822	-0.194
Mof_C 	C 	0.4452	0.4352	0.2218	-0.149
Mof_C 	C 	0.76298	0.7792	0.67862	0.49
Mof_C 	C 	0.7208	0.2208	0.32138	0.49
Mof_C 	C 	0.92049	0.11517	0.80127	0.139
Mof_C 	C 	0.8381	0.3381	0.59046	-0.288
Mof_C 	C 	0.8846	0.9042	0.307	0.473
Mof_C 	C 	0.82138	0.73702	0.2208	0.49
Mof_C 	C 	0.61517	0.42049	0.16307	0.139
Mof_C 	C 	0.079	0.71484	0.62716	0.157
Mof_C 	C 	0.7238	0.0913	0.7087	0.164
Mof_C 	C 	0.29822	0.90118	0.33602	-0.194
Mof_C 	C 	0.0537	0.7949	0.0757	0.084
Mof_C 	C 	0.67844	0.90366	0.56152	-0.205
Mof_C 	C 	0.70189	0.63783	0.30587	-0.262
Mof_C 	C 	0.9352	0.2218	0.8978	-0.149
Mof_C 	C 	0.473	0.206	0.8722	0.482
Mof_C 	C 	0.2843	0.93254	0.28732	-0.244
Mof_C 	C 	0.78732	0.7843	0.93254	-0.244
Mof_C 	C 	0.9762	0.7087	0.0913	0.166
Mof_C 	C 	0.2107	0.6289	0.5315	0.522
Mof_C 	C 	0.87284	0.421	0.28516	0.157
Mof_C 	C 	0.1289	0.6289	0.7107	0.522
Mof_C 	C 	0.0512	0.1278	0.027	0.482
Mof_C 	C 	0.43254	0.28732	0.7843	-0.244
Mof_C 	C 	0.70189	0.30587	0.35441	-0.262
Mof_C 	C 	0.30127	0.42049	0.11517	0.139
Mof_C 	C 	0.33008	0.15952	0.05988	0.511
Mof_C 	C 	0.2438	0.5006	0.0412	0.559
Mof_C 	C 	0.18196	0.47748	0.11906	-0.21
Mof_C 	C 	0.31381	0.43241	0.89499	0.491
Mof_C 	C 	0.99339	0.78899	0.87581	0.132
Mof_C 	C 	0.4042	0.9042	0.307	0.473
Mof_C 	C 	0.17908	0.22752	0.44632	0.537
Mof_C 	C 	0.807	0.3846	0.9042	0.473
Mof_C 	C 	0.921	0.28516	0.37284	0.157
Mof_C 	C 	0.17908	0.14708	0.44632	0.537
Mof_C 	C 	0.35292	0.32092	0.77248	0.537
Mof_C 	C 	0.27248	0.32092	0.85292	0.537
Mof_C 	C 	0.9352	0.8978	0.9452	-0.149
Mof_C 	C 	0.95052	0.83008	0.15952	0.512
Mof_C 	C 	0.59634	0.14362	0.82156	-0.205
Mof_C 	C 	0.03407	0.68973	0.20533	0.158
Mof_C 	C 	0.29811	0.64559	0.69413	-0.262
Mof_C 	C 	0.64708	0.22752	0.44632	0.537
Mof_C 	C 	0.68619	0.64121	0.56759	0.491
Mof_C 	C 	0.2289	0.5957	0.0877	-0.152
Mof_C 	C 	0.59634	0.82156	0.14362	-0.205
Mof_C 	C 	0.1559	0.2765	0.19338	0.562
Mof_C 	C 	0.9994	0.2562	0.7856	0.56
Mof_C 	C 	0.755	0.4148	0.8906	0.082
Mof_C 	C 	0.7157	0.71268	0.06746	-0.244
Mof_C 	C 	0.7219	0.2691	0.2691	0.108
Mof_C 	C 	0.05368	0.77248	0.85292	0.538
Mof_C 	C 	0.2309	0.7781	0.7309	0.108
Mof_C 	C 	0.7208	0.2208	0.73702	0.49
Mof_C 	C 	0.7378	0.2378	0.28492	-0.168
Mof_C 	C 	0.38094	0.7785	0.52252	-0.21
Mof_C 	C 	0.9043	0.2711	0.9123	-0.151
Mof_C 	C 	0.32156	0.09634	0.43848	-0.205
Mof_C 	C 	0.9994	0.9588	0.2562	0.56
Mof_C 	C 	0.5604	0.1094	0.5852	0.082
Mof_C 	C 	0.70533	0.53407	0.68973	0.158
Mof_C 	C 	0.97748	0.2215	0.68196	-0.209
Mof_C 	C 	0.85842	0.60602	0.31222	0.211
Mof_C 	C 	0.7215	0.47748	0.68196	-0.21
Mof_C 	C 	0.35638	0.56152	0.17844	-0.205
Mof_C 	C 	0.3906	0.9396	0.4148	0.082
Mof_C 	C 	0.56746	0.2157	0.71268	-0.244
Mof_C 	C 	0.33693	0.57951	0.19873	0.139
Mof_C 	C 	0.34048	0.54948	0.94012	0.512
Mof_C 	C 	0.5604	0.5852	0.745	0.082
Mof_C 	C 	0.39499	0.43241	0.81381	0.491
Mof_C 	C 	0.70533	0.07087	0.68973	0.159
Mof_C 	C 	0.92049	0.16307	0.80127	0.139
Mof_C 	C 	0.1107	0.7147	0.5639	-0.221
Mof_C 	C 	0.2782	0.5648	0.1022	-0.149
Mof_C 	C 	0.9994	0.7856	0.9588	0.56
Mof_C 	C 	0.37581	0.78899	0.49339	0.13
Mof_C 	C 	0.30662	0.7235	0.62578	0.562
Mof_C 	C 	0.9352	0.9452	0.2218	-0.149
Mof_C 	C 	0.5604	0.745	0.1094	0.082
Mof_C 	C 	0.31381	0.35879	0.43241	0.491
Mof_C 	C 	0.82092	0.77248	0.55368	0.537
Mof_C 	C 	0.64708	0.67908	0.44632	0.537
Mof_C 	C 	0.07951	0.83693	0.19873	0.139
Mof_C 	C 	0.1586	0.74156	0.44124	0.548
Mof_C 	C 	0.32156	0.43848	0.14362	-0.205
Mof_C 	C 	0.706	0.973	0.8722	0.481
Mof_C 	C 	0.7144	0.5006	0.7438	0.559
Mof_C 	C 	0.2622	0.7622	0.71508	-0.168
Mof_C 	C 	0.7144	0.0412	0.5006	0.559
Mof_C 	C 	0.2762	0.9087	0.2913	0.164
Mof_C 	C 	0.38094	0.31804	0.7785	-0.21
Mof_C 	C 	0.55988	0.15952	0.83008	0.512
Mof_C 	C 	0.61906	0.68196	0.2215	-0.21
Mof_C 	C 	0.1289	0.5315	0.7107	0.522
Mof_C 	C 	0.4243	0.4463	0.2051	0.084
Mof_C 	C 	0.7215	0.47748	0.11906	-0.21
Mof_C 	C 	0.81222	0.60602	0.35842	0.211
Mof_C 	C 	0.8277	0.19096	0.65364	0.178
Mof_C 	C 	0.68619	0.56759	0.10501	0.491
Mof_C 	C 	0.2087	0.0913	0.4762	0.164
Mof_C 	C 	0.6496	0.41086	0.78994	-0.208
Mof_C 	C 	0.7378	0.73948	0.28492	-0.168
Mof_C 	C 	0.4243	0.2051	0.9243	0.084
Mof_C 	C 	0.33693	0.19873	0.88483	0.139
Mof_C 	C 	0.30662	0.7235	0.3441	0.562
Mof_C 	C 	0.81027	0.46593	0.92913	0.158
Mof_C 	C 	0.84181	0.87581	0.49339	0.13
Mof_C 	C 	0.70189	0.63783	0.35441	-0.262
Mof_C 	C 	0.28899	0.49339	0.87581	0.13
Mof_C 	C 	0.37581	0.34181	0.78899	0.13
Mof_C 	C 	0.9352	0.9452	0.8978	-0.149
Mof_C 	C 	0.31381	0.43241	0.35879	0.491
Mof_C 	C 	0.72334	0.60602	0.31222	0.211
Mof_C 	C 	0.73526	0.8298	0.60514	0.542
Mof_C 	C 	0.24156	0.44124	0.6586	0.548
Mof_C 	C 	0.60501	0.56759	0.64121	0.491
Mof_C 	C 	0.21268	0.06746	0.50416	-0.244
Mof_C 	C 	0.84181	0.87581	0.78899	0.13
Mof_C 	C 	0.85441	0.30587	0.20189	-0.261
Mof_C 	C 	0.921	0.37284	0.421	0.157
Mof_C 	C 	0.0238	0.9087	0.7762	0.163
Mof_C 	C 	0.09046	0.3381	0.23334	-0.288
Mof_C 	C 	0.8381	0.23334	0.3381	-0.288
Mof_C 	C 	0.3722	0.973	0.206	0.481
Mof_C 	C 	0.85879	0.81381	0.89499	0.491
Mof_C 	C 	0.08914	0.21006	0.8504	-0.208
Mof_C 	C 	0.62419	0.50661	0.65819	0.13
Mof_C 	C 	0.65952	0.05988	0.45052	0.511
Mof_C 	C 	0.44012	0.16992	0.54948	0.512
Mof_C 	C 	0.1154	0.0958	0.0958	0.473
Mof_C 	C 	0.02252	0.88094	0.7785	-0.211
Mof_C 	C 	0.27666	0.68778	0.39398	0.211
Mof_C 	C 	0.94632	0.14708	0.22752	0.537
Mof_C 	C 	0.66307	0.80127	0.11517	0.139
Mof_C 	C 	0.90954	0.76666	0.6619	-0.288
Mof_C 	C 	0.7853	0.3893	0.4361	-0.221
Mof_C 	C 	0.97748	0.11906	0.2215	-0.209
Mof_C 	C 	0.85842	0.22334	0.31222	0.211
Mof_C 	C 	0.40118	0.46458	0.79822	-0.194
Mof_C 	C 	0.0852	0.1094	0.745	0.082
Mof_C 	C 	0.99339	0.34181	0.87581	0.132
Mof_C 	C 	0.2147	0.6107	0.6107	-0.221
Mof_C 	C 	0.59882	0.20178	0.53542	-0.194
Mof_C 	C 	0.5913	0.2238	0.7087	0.164
Mof_C 	C 	0.8893	0.3893	0.2853	-0.221
Mof_C 	C 	0.245	0.5852	0.0604	0.082
Mof_C 	C 	0.7144	0.7438	0.0412	0.559
Mof_C 	C 	0.56746	0.50416	0.71268	-0.244
Mof_C 	C 	0.64708	0.44632	0.67908	0.537
Mof_C 	C 	0.81222	0.35842	0.22334	0.211
Mof_C 	C 	0.7208	0.32138	0.2208	0.49
Mof_C 	C 	0.18973	0.53407	0.07087	0.159
Mof_C 	C 	0.2792	0.26298	0.67862	0.49
Mof_C 	C 	0.1107	0.7147	0.6107	-0.221
Mof_C 	C 	0.65952	0.45052	0.05988	0.511
Mof_C 	C 	0.78732	0.93254	0.49584	-0.244
Mof_C 	C 	0.26474	0.1702	0.1702	0.542
Mof_C 	C 	0.44012	0.16992	0.84048	0.512
Mof_C 	C 	0.2843	0.49584	0.93254	-0.244
Mof_C 	C 	0.807	0.9042	0.3846	0.473
Mof_C 	C 	0.15364	0.3277	0.19096	0.178
Mof_C 	C 	0.4042	0.307	0.9042	0.473
Mof_C 	C 	0.245	0.1094	0.5852	0.082
Mof_C 	C 	0.10602	0.22334	0.35842	0.211
Mof_C 	C 	0.94124	0.6586	0.6586	0.549
Mof_C 	C 	0.7157	0.71268	0.50416	-0.244
Mof_C 	C 	0.6496	0.1496	0.41086	-0.208
Mof_C 	C 	0.64362	0.82156	0.09634	-0.205
Mof_C 	C 	0.30127	0.11517	0.16307	0.139
Mof_C 	C 	0.40366	0.17844	0.56152	-0.205
Mof_C 	C 	0.40366	0.56152	0.85638	-0.205
Mof_C 	C 	0.14121	0.56759	0.18619	0.491
Mof_C 	C 	0.96458	0.79822	0.33602	-0.195
Mof_C 	C 	0.30127	0.16307	0.11517	0.139
Mof_C 	C 	0.26474	0.1702	0.39486	0.542
Mof_C 	C 	0.18196	0.2215	0.11906	-0.21
Mof_C 	C 	0.755	0.9396	0.8906	0.081
Mof_C 	C 	0.2289	0.0877	0.5957	-0.152
Mof_C 	C 	0.8711	0.4685	0.2893	0.522
Mof_C 	C 	0.66992	0.94012	0.84048	0.512
Mof_C 	C 	0.93241	0.81381	0.89499	0.491
Mof_C 	C 	0.0639	0.6107	0.6107	-0.222
Mof_C 	C 	0.3722	0.4488	0.973	0.481
Mof_C 	C 	0.95052	0.05988	0.15952	0.511
Mof_C 	C 	0.6278	0.794	0.027	0.482
Mof_C 	C 	0.81804	0.88094	0.7785	-0.21
Mof_C 	C 	0.93241	0.89499	0.35879	0.491
Mof_C 	C 	0.84636	0.80904	0.6723	0.178
Mof_C 	C 	0.66888	0.8896	0.55192	0.141
Mof_C 	C 	0.7562	0.7856	0.9588	0.559
Mof_C 	C 	0.89486	0.1702	0.1702	0.542
Mof_C 	C 	0.8711	0.3711	0.2893	0.522
Mof_C 	C 	0.1559	0.2765	0.37422	0.562
Mof_C 	C 	0.12716	0.71484	0.579	0.157
Mof_C 	C 	0.07951	0.19873	0.88483	0.139
Mof_C 	C 	0.0238	0.7762	0.2913	0.163
Mof_C 	C 	0.72752	0.14708	0.44632	0.537
Mof_C 	C 	0.0238	0.9087	0.2913	0.163
Mof_C 	C 	0.90954	0.6619	0.6619	-0.288
Mof_C 	C 	0.19413	0.36217	0.79811	-0.262
Mof_C 	C 	0.7238	0.7087	0.4762	0.164
Mof_C 	C 	0.83602	0.90118	0.79822	-0.194
Mof_C 	C 	0.5548	0.5648	0.1022	-0.149
Mof_C 	C 	0.76298	0.67862	0.7792	0.49
Mof_C 	C 	0.73334	0.3381	0.59046	-0.288
Mof_C 	C 	0.00661	0.65819	0.21101	0.129
Mof_C 	C 	0.9361	0.2853	0.3893	-0.221
Mof_C 	C 	0.9488	0.973	0.206	0.481
Mof_C 	C 	0.17862	0.7792	0.7792	0.49
Mof_C 	C 	0.38483	0.83693	0.19873	0.139
Mof_C 	C 	0.7562	0.4994	0.9588	0.559
Mof_C 	C 	0.26666	0.6619	0.40954	-0.288
Mof_C 	C 	0.7711	0.4043	0.9123	-0.151
Mof_C 	C 	0.72334	0.60602	0.35842	0.211
Mof_C 	C 	0.2785	0.88094	0.31804	-0.21
Mof_C 	C 	0.37581	0.34181	0.49339	0.13
Mof_C 	C 	0.82092	0.85292	0.55368	0.537
Mof_C 	C 	0.3978	0.4352	0.9452	-0.149
Mof_C 	C 	0.6496	0.1496	0.78994	-0.208
Mof_C 	C 	0.7219	0.2691	0.7399	0.108
Mof_C 	C 	0.8893	0.3893	0.4361	-0.221
Mof_C 	C 	0.30127	0.11517	0.42049	0.139
Mof_C 	C 	0.66307	0.11517	0.42049	0.139
Mof_C 	C 	0.2785	0.52252	0.31804	-0.21
Mof_C 	C 	0.80587	0.63783	0.20189	-0.262
Mof_C 	C 	0.18196	0.47748	0.2215	-0.21
Mof_C 	C 	0.33008	0.05988	0.15952	0.511
Mof_C 	C 	0.8414	0.55876	0.3414	0.548
Mof_C 	C 	0.527	0.794	0.1278	0.482
Mof_C 	C 	0.03542	0.09882	0.66398	-0.194
Mof_C 	C 	0.03542	0.66398	0.20178	-0.194
Mof_C 	C 	0.66992	0.84048	0.94012	0.512
Mof_C 	C 	0.4396	0.4148	0.255	0.082
Mof_C 	C 	0.4123	0.2711	0.9123	-0.151
Mof_C 	C 	0.72334	0.31222	0.35842	0.211
Mof_C 	C 	0.28994	0.1496	0.41086	-0.208
Mof_C 	C 	0.99339	0.78899	0.34181	0.132
Mof_C 	C 	0.2949	0.0757	0.5537	0.084
Mof_C 	C 	0.82138	0.2208	0.2208	0.49
Mof_C 	C 	0.9762	0.0913	0.7087	0.166
Mof_C 	C 	0.7378	0.28492	0.2378	-0.168
Mof_C 	C 	0.39499	0.43241	0.35879	0.491
Mof_C 	C 	0.04948	0.16992	0.94012	0.512
Mof_C 	C 	0.30904	0.6723	0.34636	0.178
Mof_C 	C 	0.26474	0.39486	0.1702	0.542
Mof_C 	C 	0.3896	0.16888	0.8896	0.141
Mof_C 	C 	0.14158	0.39398	0.77666	0.211
Mof_C 	C 	0.96458	0.33602	0.79822	-0.195
Mof_C 	C 	0.6022	0.7782	0.5648	-0.149
Mof_C 	C 	0.7765	0.37422	0.19338	0.562
Mof_C 	C 	0.14121	0.18619	0.10501	0.491
Mof_C 	C 	0.87284	0.421	0.421	0.157
Mof_C 	C 	0.6022	0.5648	0.0548	-0.15
Mof_C 	C 	0.473	0.4488	0.206	0.482
Mof_C 	C 	0.06759	0.18619	0.10501	0.491
Mof_C 	C 	0.6094	0.0604	0.5852	0.082
Mof_C 	C 	0.93241	0.35879	0.81381	0.491
Mof_C 	C 	0.0512	0.027	0.1278	0.482
Mof_C 	C 	0.2622	0.71508	0.26052	-0.168
Mof_C 	C 	0.1586	0.44124	0.74156	0.548
Mof_C 	C 	0.0648	0.1022	0.7782	-0.149
Mof_C 	C 	0.02252	0.88094	0.31804	-0.211
Mof_C 	C 	0.43254	0.49584	0.7843	-0.244
Mof_C 	C 	0.0006	0.7438	0.0412	0.558
Mof_C 	C 	0.57087	0.20533	0.53407	0.158
Mof_C 	C 	0.3504	0.21006	0.58914	-0.208
Mof_C 	C 	0.96458	0.90118	0.33602	-0.194
Mof_C 	C 	0.72334	0.35842	0.31222	0.211
Mof_C 	C 	0.78732	0.93254	0.7843	-0.244
Mof_C 	C 	0.294	0.5512	0.1278	0.482
Mof_C 	C 	0.02252	0.31804	0.88094	-0.211
Mof_C 	C 	0.94632	0.67908	0.14708	0.537
Mof_C 	C 	0.2235	0.80662	0.3441	0.562
Mof_C 	C 	0.35292	0.55368	0.32092	0.537
Mof_C 	C 	0.27666	0.39398	0.64158	0.211
Mof_C 	C 	0.09046	0.23334	0.3381	-0.288
Mof_C 	C 	0.8441	0.7235	0.62578	0.562
Mof_C 	C 	0.83602	0.90118	0.46458	-0.194
Mof_C 	C 	0.30127	0.16307	0.42049	0.139
Mof_C 	C 	0.7562	0.4994	0.7856	0.559
Mof_C 	C 	0.7691	0.7399	0.2219	0.108
Mof_C 	C 	0.07951	0.88483	0.19873	0.139
Mof_C 	C 	0.14158	0.77666	0.68778	0.211
Mof_C 	C 	0.21484	0.579	0.579	0.157
Mof_C 	C 	0.5877	0.5957	0.0877	-0.152
Mof_C 	C 	0.0648	0.0548	0.7782	-0.15
Mof_C 	C 	0.70178	0.09882	0.53542	-0.194
Mof_C 	C 	0.2843	0.28732	0.49584	-0.244
Mof_C 	C 	0.8414	0.25844	0.55876	0.548
Mof_C 	C 	0.21508	0.26052	0.7622	-0.168
Mof_C 	C 	0.33693	0.88483	0.57951	0.139
Mof_C 	C 	0.3978	0.2218	0.4352	-0.149
Mof_C 	C 	0.71006	0.8504	0.8504	-0.207
Mof_C 	C 	0.18973	0.53407	0.20533	0.158
Mof_C 	C 	0.06152	0.85638	0.90366	-0.205
Mof_C 	C 	0.59882	0.20178	0.66398	-0.194
Mof_C 	C 	0.42913	0.46593	0.31027	0.158
Mof_C 	C 	0.78732	0.49584	0.7843	-0.244
Mof_C 	C 	0.5958	0.0958	0.693	0.473
Mof_C 	C 	0.2856	0.2562	0.9588	0.559
Mof_C 	C 	0.31381	0.35879	0.89499	0.491
Mof_C 	C 	0.4588	0.2562	0.4994	0.559
Mof_C 	C 	0.18778	0.64158	0.39398	0.211
Mof_C 	C 	0.2235	0.62578	0.3441	0.562
Mof_C 	C 	0.85441	0.30587	0.63783	-0.261
Mof_C 	C 	0.28899	0.87581	0.49339	0.13
Mof_C 	C 	0.42913	0.46593	0.79467	0.158
Mof_C 	C 	0.29811	0.36217	0.69413	-0.262
Mof_C 	C 	0.9488	0.8722	0.973	0.481
Mof_C 	C 	0.3504	0.8504	0.21006	-0.208
Mof_C 	C 	0.3298	0.8298	0.60514	0.542
Mof_C 	C 	0.2235	0.62578	0.80662	0.562
Mof_C 	C 	0.7238	0.0913	0.4762	0.164
Mof_C 	C 	0.33008	0.05988	0.45052	0.511
Mof_C 	C 	0.2785	0.52252	0.88094	-0.21
Mof_C 	C 	0.14559	0.36217	0.69413	-0.262
Mof_C 	C 	0.10514	0.8298	0.23526	0.542
Mof_C 	C 	0.81222	0.22334	0.35842	0.211
Mof_C 	C 	0.06759	0.64121	0.10501	0.491
Mof_C 	C 	0.2438	0.0412	0.5006	0.559
Mof_C 	C 	0.1107	0.5639	0.6107	-0.221
Mof_C 	C 	0.2792	0.67862	0.7792	0.49
Mof_C 	C 	0.0852	0.0604	0.1094	0.082
Mof_C 	C 	0.17862	0.26298	0.7792	0.49
Mof_C 	C 	0.15364	0.3277	0.3277	0.178
Mof_C 	C 	0.89486	0.1702	0.76474	0.542
Mof_C 	C 	0.59634	0.43848	0.82156	-0.205
Mof_C 	C 	0.18196	0.2215	0.47748	-0.21
Mof_C 	C 	0.6702	0.39486	0.76474	0.542
Mof_C 	C 	0.82092	0.85292	0.77248	0.537
Mof_C 	C 	0.1723	0.6723	0.34636	0.178
Mof_C 	C 	0.87422	0.2765	0.6559	0.562
Mof_C 	C 	0.4243	0.9243	0.4463	0.084
Mof_C 	C 	0.89398	0.64158	0.68778	0.211
Mof_C 	C 	0.7853	0.4361	0.3893	-0.221
Mof_C 	C 	0.2622	0.26052	0.71508	-0.168
Mof_C 	C 	0.7601	0.7309	0.7781	0.108
Mof_C 	C 	0.2856	0.2562	0.4994	0.559
Mof_C 	C 	0.69338	0.6559	0.2765	0.562
Mof_C 	C 	0.32156	0.14362	0.43848	-0.205
Mof_C 	C 	0.0852	0.745	0.0604	0.082
Mof_C 	C 	0.5604	0.5852	0.1094	0.082
Mof_C 	C 	0.34048	0.94012	0.54948	0.512
Mof_C 	C 	0.93848	0.14362	0.09634	-0.205
Mof_C 	C 	0.1619	0.6619	0.76666	-0.288
Mof_C 	C 	0.60501	0.64121	0.56759	0.491
Mof_C 	C 	0.62419	0.21101	0.50661	0.13
Mof_C 	C 	0.9488	0.973	0.8722	0.481
Mof_C 	C 	0.85441	0.63783	0.30587	-0.261
Mof_C 	C 	0.94632	0.14708	0.67908	0.537
Mof_C 	C 	0.8893	0.2853	0.3893	-0.221
Mof_C 	C 	0.07951	0.88483	0.83693	0.139
Mof_C 	C 	0.3504	0.8504	0.58914	-0.207
Mof_C 	C 	0.5757	0.0757	0.5537	0.084
Mof_C 	C 	0.7144	0.7438	0.5006	0.559
Mof_C 	C 	0.4042	0.307	0.3846	0.473
Mof_C 	C 	0.67844	0.85638	0.90366	-0.205
Mof_C 	C 	0.755	0.8906	0.9396	0.081
Mof_C 	C 	0.8441	0.80662	0.62578	0.562
Mof_C 	C 	0.06759	0.18619	0.64121	0.491
Mof_C 	C 	0.7238	0.4762	0.7087	0.164
Mof_C 	C 	0.5548	0.7782	0.5648	-0.149
Mof_C 	C 	0.1586	0.6586	0.44124	0.548
Mof_C 	C 	0.55988	0.45052	0.15952	0.512
Mof_C 	C 	0.4087	0.7762	0.5238	0.164
Mof_C 	C 	0.2087	0.0913	0.2238	0.164
Mof_C 	C 	0.6094	0.745	0.0604	0.082
Mof_C 	C 	0.85879	0.43241	0.81381	0.491
Mof_C 	C 	0.2762	0.5238	0.9087	0.164
Mof_C 	C 	0.8846	0.307	0.9042	0.473
Mof_C 	C 	0.6104	0.83112	0.44808	0.141
Mof_C 	C 	0.19413	0.79811	0.64559	-0.262
Mof_C 	C 	0.9148	0.8906	0.255	0.082
Mof_C 	C 	0.8277	0.65364	0.3277	0.178
Mof_C 	C 	0.08914	0.8504	0.8504	-0.207
Mof_C 	C 	0.85842	0.60602	0.22334	0.211
Mof_C 	C 	0.97748	0.68196	0.2215	-0.209
Mof_C 	C 	0.97748	0.2215	0.11906	-0.209
Mof_C 	C 	0.75844	0.55876	0.3414	0.548
Mof_C 	C 	0.67844	0.56152	0.90366	-0.205
Mof_C 	C 	0.6094	0.0604	0.745	0.082
Mof_C 	C 	0.66992	0.94012	0.54948	0.512
Mof_C 	C 	0.96593	0.31027	0.92913	0.158
Mof_C 	C 	0.19413	0.36217	0.64559	-0.262
Mof_C 	C 	0.23702	0.2208	0.32138	0.49
Mof_C 	C 	0.14121	0.10501	0.56759	0.491
Mof_C 	C 	0.18973	0.20533	0.53407	0.158
Mof_C 	C 	0.15819	0.50661	0.21101	0.13
Mof_C 	C 	0.0537	0.0757	0.7949	0.084
Mof_C 	C 	0.9488	0.206	0.8722	0.481
Mof_C 	C 	0.3906	0.255	0.9396	0.082
Mof_C 	C 	0.80587	0.20189	0.63783	-0.262
Mof_C 	C 	0.4087	0.5238	0.7762	0.164
Mof_C 	C 	0.32156	0.14362	0.09634	-0.205
Mof_C 	C 	0.42913	0.31027	0.79467	0.158
Mof_C 	C 	0.69873	0.83693	0.88483	0.139
Mof_C 	C 	0.82092	0.55368	0.77248	0.537
Mof_C 	C 	0.5958	0.693	0.6154	0.473
Mof_C 	C 	0.04948	0.84048	0.16992	0.511
Mof_C 	C 	0.96458	0.79822	0.90118	-0.194
Mof_C 	C 	0.2856	0.4994	0.2562	0.559
Mof_C 	C 	0.30662	0.3441	0.7235	0.562
Mof_C 	C 	0.85879	0.43241	0.89499	0.491
Mof_C 	C 	0.99584	0.7843	0.28732	-0.243
Mof_C 	C 	0.94808	0.1104	0.1104	0.141
Mof_C 	C 	0.32156	0.43848	0.09634	-0.205
Mof_C 	C 	0.8414	0.3414	0.55876	0.548
Mof_C 	C 	0.82092	0.77248	0.85292	0.537
Mof_C 	C 	0.921	0.421	0.28516	0.157
Mof_C 	C 	0.85842	0.31222	0.60602	0.211
Mof_C 	C 	0.87422	0.19338	0.6559	0.562
Mof_C 	C 	0.56746	0.71268	0.50416	-0.244
Mof_C 	C 	0.44012	0.84048	0.16992	0.512
Mof_C 	C 	0.06759	0.64121	0.18619	0.491
Mof_C 	C 	0.87284	0.28516	0.421	0.157
Mof_C 	C 	0.14121	0.18619	0.56759	0.491
Mof_C 	C 	0.14559	0.69413	0.79811	-0.262
Mof_C 	C 	0.4042	0.3846	0.307	0.473
Mof_C 	C 	0.92049	0.16307	0.11517	0.139
Mof_C 	C 	0.68619	0.10501	0.64121	0.491
Mof_C 	C 	0.3722	0.973	0.4488	0.481
Mof_C 	C 	0.66992	0.54948	0.84048	0.512
Mof_C 	C 	0.59882	0.66398	0.20178	-0.194
Mof_C 	C 	0.2438	0.5006	0.2144	0.559
Mof_C 	C 	0.7913	0.9087	0.7762	0.164
Mof_C 	C 	0.3978	0.9452	0.2218	-0.149
Mof_C 	C 	0.7711	0.9123	0.9123	-0.151
Mof_C 	C 	0.40118	0.46458	0.33602	-0.194
Mof_C 	C 	0.21484	0.62716	0.579	0.157
Mof_C 	C 	0.96593	0.92913	0.31027	0.158
Mof_C 	C 	0.9148	0.9396	0.255	0.081
Mof_C 	C 	0.27666	0.64158	0.68778	0.211
Mof_C 	C 	0.15819	0.12419	0.21101	0.13
Mof_C 	C 	0.2843	0.49584	0.28732	-0.244
Mof_C 	C 	0.00661	0.21101	0.12419	0.129
Mof_C 	C 	0.32156	0.09634	0.14362	-0.205
Mof_C 	C 	0.2782	0.1022	0.0548	-0.15
Mof_C 	C 	0.04948	0.94012	0.84048	0.511
Mof_C 	C 	0.2792	0.67862	0.26298	0.49
Mof_C 	C 	0.7144	0.5006	0.0412	0.559
Mof_C 	C 	0.61517	0.16307	0.42049	0.139
Mof_C 	C 	0.5548	0.5648	0.7782	-0.149
Mof_C 	C 	0.59634	0.43848	0.14362	-0.205
Mof_C 	C 	0.81804	0.52252	0.7785	-0.21
Mof_C 	C 	0.72752	0.67908	0.14708	0.537
Mof_C 	C 	0.71101	0.12419	0.50661	0.13
Mof_C 	C 	0.35638	0.90366	0.17844	-0.205
Mof_C 	C 	0.69338	0.2765	0.37422	0.562
Mof_C 	C 	0.12578	0.3441	0.80662	0.562
Mof_C 	C 	0.4243	0.9243	0.2051	0.084
Mof_C 	C 	0.7913	0.9087	0.5238	0.164
Mof_C 	C 	0.64362	0.09634	0.43848	-0.205
Mof_C 	C 	0.2309	0.7781	0.2601	0.108
Mof_C 	C 	0.42913	0.79467	0.31027	0.158
Mof_C 	C 	0.35292	0.77248	0.32092	0.537
Mof_C 	C 	0.1107	0.6107	0.5639	-0.221
Mof_C 	C 	0.99339	0.87581	0.34181	0.132
Mof_C 	C 	0.5958	0.693	0.0958	0.473
Mof_C 	C 	0.35638	0.90366	0.56152	-0.205
Mof_C 	C 	0.56746	0.2157	0.50416	-0.244
Mof_C 	C 	0.7218	0.8978	0.9452	-0.149
Mof_C 	C 	0.6278	0.027	0.794	0.482
Mof_C 	C 	0.2087	0.4762	0.0913	0.164
Mof_C 	C 	0.69338	0.37422	0.2765	0.562
Mof_C 	C 	0.81027	0.92913	0.46593	0.158
Mof_C 	C 	0.3906	0.4148	0.9396	0.082
Mof_C 	C 	0.81804	0.7785	0.52252	-0.21
Mof_C 	C 	0.29467	0.31027	0.46593	0.158
Mof_C 	C 	0.40118	0.33602	0.46458	-0.194
Mof_C 	C 	0.9043	0.9123	0.2711	-0.151
Mof_C 	C 	0.38094	0.52252	0.7785	-0.21
Mof_C 	C 	0.44012	0.54948	0.16992	0.512
Mof_C 	C 	0.8381	0.3381	0.23334	-0.288
Mof_C 	C 	0.2782	0.0548	0.5648	-0.15
Mof_C 	C 	0.3504	0.58914	0.8504	-0.207
Mof_C 	C 	0.14158	0.77666	0.39398	0.211
Mof_C 	C 	0.755	0.8906	0.4148	0.082
Mof_C 	C 	0.4452	0.8978	0.2218	-0.149
Mof_C 	C 	0.64708	0.67908	0.22752	0.537
Mof_C 	C 	0.39499	0.81381	0.35879	0.491
Mof_C 	C 	0.0648	0.7782	0.0548	-0.15
Mof_C 	C 	0.66307	0.42049	0.11517	0.139
Mof_C 	C 	0.84181	0.78899	0.49339	0.13
Mof_C 	C 	0.29822	0.33602	0.46458	-0.194
Mof_C 	C 	0.33693	0.19873	0.57951	0.139
Mof_C 	C 	0.2309	0.2601	0.7781	0.108
Mof_C 	C 	0.3896	0.55192	0.8896	0.141
Mof_C 	C 	0.6022	0.0548	0.5648	-0.15
Mof_C 	C 	0.60501	0.56759	0.18619	0.491
Mof_C 	C 	0.2087	0.4762	0.2238	0.164
Mof_C 	C 	0.7208	0.73702	0.32138	0.49
Mof_C 	C 	0.84181	0.49339	0.78899	0.13
Mof_C 	C 	0.2309	0.7309	0.7781	0.108
Mof_C 	C 	0.61906	0.47748	0.2215	-0.21
Mof_C 	C 	0.81027	0.79467	0.92913	0.158
Mof_C 	C 	0.37581	0.49339	0.34181	0.13
Mof_C 	C 	0.7215	0.11906	0.68196	-0.21
Mof_C 	C 	0.3504	0.21006	0.8504	-0.208
Mof_C 	C 	0.27248	0.85292	0.55368	0.537
Mof_C 	C 	0.03542	0.20178	0.66398	-0.194
Mof_C 	C 	0.72752	0.44632	0.67908	0.537
Mof_C 	C 	0.64362	0.09634	0.82156	-0.205
Mof_C 	C 	0.65952	0.83008	0.45052	0.512
Mof_C 	C 	0.6702	0.1702	0.39486	0.542
Mof_C 	C 	0.62419	0.65819	0.21101	0.13
Mof_C 	C 	0.7893	0.3711	0.3711	0.522
Mof_C 	C 	0.00661	0.21101	0.65819	0.129
Mof_C 	C 	0.29467	0.46593	0.92913	0.158
Mof_C 	C 	0.7144	0.0412	0.7438	0.559
Mof_C 	C 	0.2781	0.7309	0.2601	0.108
Mof_C 	C 	0.86217	0.79811	0.64559	-0.261
Mof_C 	C 	0.64708	0.22752	0.67908	0.537
Mof_C 	C 	0.9361	0.3893	0.2853	-0.221
Mof_C 	C 	0.14559	0.79811	0.36217	-0.262
Mof_C 	C 	0.0648	0.1022	0.0548	-0.15
Mof_C 	C 	0.8846	0.9042	0.9042	0.473
Mof_C 	C 	0.21268	0.2157	0.50416	-0.244
Mof_C 	C 	0.527	0.5512	0.1278	0.482
Mof_C 	C 	0.8441	0.62578	0.80662	0.562
Mof_C 	C 	0.71101	0.50661	0.12419	0.13
Mof_C 	C 	0.8277	0.19096	0.3277	0.178
Mof_C 	C 	0.81027	0.92913	0.79467	0.158
Mof_C 	C 	0.3906	0.9396	0.255	0.082
Mof_C 	C 	0.55988	0.83008	0.15952	0.512
Mof_C 	C 	0.4396	0.255	0.8906	0.082
Mof_C 	C 	0.78516	0.421	0.421	0.157
Mof_C 	C 	0.6104	0.44808	0.83112	0.141
Mof_C 	C 	0.3896	0.16888	0.55192	0.141
Mof_C 	C 	0.755	0.4148	0.9396	0.082
Mof_C 	C 	0.7765	0.6559	0.37422	0.562
Mof_C 	C 	0.9148	0.255	0.9396	0.081
Mof_C 	C 	0.60501	0.64121	0.18619	0.491
Mof_C 	C 	0.89398	0.64158	0.77666	0.211
Mof_C 	C 	0.99584	0.28732	0.7843	-0.243
Mof_C 	C 	0.56746	0.71268	0.2157	-0.244
Mof_C 	C 	0.97748	0.11906	0.68196	-0.209
Mof_C 	C 	0.14559	0.79811	0.69413	-0.262
Mof_C 	C 	0.91086	0.1496	0.78994	-0.207
Mof_C 	C 	0.59882	0.66398	0.53542	-0.194
Mof_C 	C 	0.921	0.421	0.37284	0.157
Mof_C 	C 	0.27666	0.64158	0.39398	0.211
Mof_C 	C 	0.3896	0.8896	0.16888	0.141
Mof_C 	C 	0.12578	0.7235	0.80662	0.562
Mof_C 	C 	0.86217	0.64559	0.79811	-0.261
Mof_C 	C 	0.43254	0.28732	0.49584	-0.244
Mof_C 	C 	0.64708	0.44632	0.22752	0.537
Mof_C 	C 	0.12578	0.7235	0.3441	0.562
Mof_C 	C 	0.17908	0.14708	0.22752	0.537
Mof_C 	C 	0.8381	0.59046	0.23334	-0.288
Mof_C 	C 	0.70178	0.53542	0.09882	-0.194
Mof_C 	C 	0.81804	0.52252	0.88094	-0.21
Mof_C 	C 	0.0639	0.7147	0.6107	-0.222
Mof_C 	C 	0.7853	0.3893	0.3893	-0.221
Mof_C 	C 	0.079	0.579	0.62716	0.157
Mof_C 	C 	0.28994	0.1496	0.1496	-0.208
Mof_C 	C 	0.3722	0.206	0.973	0.481
Mof_C 	C 	0.1289	0.7107	0.6289	0.522
Mof_C 	C 	0.7691	0.2691	0.7399	0.108
Mof_C 	C 	0.92049	0.11517	0.16307	0.139
Mof_C 	C 	0.13783	0.30587	0.20189	-0.262
Mof_C 	C 	0.73334	0.3381	0.3381	-0.288
Mof_C 	C 	0.30904	0.6723	0.6723	0.178
Mof_C 	C 	0.2762	0.2913	0.5238	0.164
Mof_C 	C 	0.21268	0.50416	0.2157	-0.244
Mof_C 	C 	0.65952	0.05988	0.83008	0.511
Mof_C 	C 	0.83602	0.46458	0.79822	-0.194
Mof_C 	C 	0.99584	0.28732	0.93254	-0.243
Mof_C 	C 	0.0006	0.2144	0.0412	0.558
Mof_C 	C 	0.9762	0.2238	0.7087	0.166
Mof_C 	C 	0.7691	0.2691	0.2219	0.108
Mof_C 	C 	0.193	0.6154	0.0958	0.473
Mof_C 	C 	0.21508	0.7622	0.7622	-0.168
Mof_C 	C 	0.71101	0.50661	0.65819	0.13
Mof_C 	C 	0.16398	0.09882	0.53542	-0.195
Mof_C 	C 	0.9994	0.2562	0.9588	0.56
Mof_C 	C 	0.9994	0.9588	0.7856	0.56
Mof_C 	C 	0.0512	0.1278	0.794	0.481
Mof_C 	C 	0.7208	0.32138	0.73702	0.49
Mof_C 	C 	0.0648	0.0548	0.1022	-0.15
Mof_C 	C 	0.10602	0.35842	0.22334	0.211
Mof_C 	C 	0.70178	0.66398	0.09882	-0.194
Mof_C 	C 	0.27248	0.85292	0.32092	0.537
Mof_C 	C 	0.86217	0.64559	0.69413	-0.262
Mof_C 	C 	0.1723	0.80904	0.34636	0.178
Mof_C 	C 	0.079	0.62716	0.579	0.157
Mof_C 	C 	0.78492	0.73948	0.2378	-0.168
Mof_C 	C 	0.72752	0.44632	0.14708	0.537
Mof_C 	C 	0.4396	0.8906	0.4148	0.082
Mof_C 	C 	0.05368	0.85292	0.32092	0.538
Mof_C 	C 	0.28899	0.34181	0.49339	0.13
Mof_C 	C 	0.7562	0.9588	0.4994	0.559
Mof_C 	C 	0.8381	0.23334	0.59046	-0.288
Mof_C 	C 	0.69338	0.2765	0.6559	0.562
Mof_C 	C 	0.4396	0.4148	0.8906	0.082
Mof_C 	C 	0.7218	0.4352	0.8978	-0.149
Mof_C 	C 	0.2781	0.2601	0.7309	0.108
Mof_C 	C 	0.04948	0.84048	0.94012	0.511
Mof_C 	C 	0.9488	0.206	0.973	0.481
Mof_C 	C 	0.7157	0.50416	0.06746	-0.244
Mof_C 	C 	0.82092	0.55368	0.85292	0.537
Mof_C 	C 	0.03407	0.20533	0.07087	0.159
Mof_C 	C 	0.079	0.71484	0.579	0.157
Mof_C 	C 	0.7238	0.4762	0.0913	0.164
Mof_C 	C 	0.43254	0.7843	0.49584	-0.244
Mof_C 	C 	0.70533	0.53407	0.07087	0.159
Mof_C 	C 	0.4243	0.4463	0.9243	0.084
Mof_C 	C 	0.2792	0.7792	0.67862	0.49
Mof_C 	C 	0.7215	0.68196	0.11906	-0.21
Mof_C 	C 	0.66992	0.54948	0.94012	0.512
Mof_C 	C 	0.6702	0.39486	0.1702	0.542
Mof_C 	C 	0.27248	0.55368	0.85292	0.537
Mof_C 	C 	0.15819	0.21101	0.50661	0.13
Mof_C 	C 	0.81804	0.7785	0.88094	-0.21
Mof_C 	C 	0.67844	0.85638	0.56152	-0.205
Mof_C 	C 	0.2792	0.7792	0.26298	0.49
Mof_C 	C 	0.85441	0.20189	0.30587	-0.261
Mof_C 	C 	0.3896	0.8896	0.55192	0.141
Mof_C 	C 	0.8893	0.2853	0.4361	-0.221
Mof_C 	C 	0.00416	0.71268	0.06746	-0.245
Mof_C 	C 	0.03542	0.20178	0.09882	-0.194
Mof_C 	C 	0.05192	0.16888	0.8896	0.141
Mof_C 	C 	0.8414	0.55876	0.25844	0.548
Mof_C 	C 	0.33693	0.88483	0.19873	0.139
Mof_C 	C 	0.6094	0.745	0.5852	0.082
Mof_C 	C 	0.44012	0.84048	0.54948	0.512
Mof_C 	C 	0.68619	0.56759	0.64121	0.491
Mof_C 	C 	0.94124	0.6586	0.74156	0.549
Mof_C 	C 	0.83602	0.79822	0.46458	-0.194
Mof_C 	C 	0.03542	0.66398	0.09882	-0.194
Mof_C 	C 	0.16398	0.53542	0.09882	-0.195
Mof_C 	C 	0.2309	0.7309	0.2601	0.108
Mof_C 	C 	0.55988	0.83008	0.45052	0.512
Mof_C 	C 	0.1154	0.0958	0.693	0.473
Mof_C 	C 	0.81027	0.46593	0.79467	0.158
Mof_C 	C 	0.4243	0.2051	0.4463	0.084
Mof_C 	C 	0.93848	0.09634	0.82156	-0.204
Mof_C 	C 	0.33112	0.44808	0.1104	0.141
Mof_C 	C 	0.9463	0.2051	0.9243	0.084
Mof_C 	C 	0.64362	0.43848	0.09634	-0.205
Mof_C 	C 	0.38483	0.57951	0.83693	0.139
Mof_C 	C 	0.70533	0.68973	0.07087	0.159
Mof_C 	C 	0.09046	0.3381	0.3381	-0.288
Mof_C 	C 	0.473	0.8722	0.4488	0.482
Mof_C 	C 	0.23948	0.2378	0.28492	-0.168
Mof_C 	C 	0.95052	0.15952	0.83008	0.512
Mof_C 	C 	0.28899	0.34181	0.87581	0.13
Mof_C 	C 	0.62419	0.65819	0.50661	0.13
Mof_C 	C 	0.7215	0.11906	0.47748	-0.21
Mof_C 	C 	0.19413	0.79811	0.36217	-0.262
Mof_C 	C 	0.93848	0.14362	0.82156	-0.205
Mof_C 	C 	0.2399	0.2219	0.2691	0.108
Mof_C 	C 	0.14158	0.68778	0.39398	0.211
Mof_C 	C 	0.8441	0.62578	0.7235	0.562
Mof_C 	C 	0.12578	0.80662	0.3441	0.562
Mof_C 	C 	0.7913	0.5238	0.9087	0.164
Mof_C 	C 	0.1107	0.5639	0.7147	-0.221
Mof_C 	C 	0.7378	0.28492	0.73948	-0.168
Mof_C 	C 	0.31381	0.89499	0.35879	0.491
Mof_C 	C 	0.30662	0.62578	0.7235	0.562
Mof_C 	C 	0.24156	0.6586	0.6586	0.548
Mof_C 	C 	0.00416	0.71268	0.2157	-0.245
Mof_C 	C 	0.91086	0.1496	0.1496	-0.207
Mof_C 	C 	0.5548	0.1022	0.7782	-0.149
Mof_C 	C 	0.4123	0.9123	0.4043	-0.151
Mof_C 	C 	0.33008	0.45052	0.05988	0.511
Mof_C 	C 	0.9463	0.9243	0.9243	0.084
Mof_C 	C 	0.06152	0.17844	0.90366	-0.205
Mof_C 	C 	0.4396	0.8906	0.255	0.082
Mof_C 	C 	0.99584	0.93254	0.28732	-0.243
Mof_C 	C 	0.18778	0.77666	0.64158	0.211
Mof_C 	C 	0.05876	0.25844	0.3414	0.548
Mof_C 	C 	0.66992	0.84048	0.54948	0.512
Mof_C 	C 	0.0006	0.0412	0.2144	0.558
Mof_C 	C 	0.73526	0.60514	0.8298	0.542
Mof_C 	C 	0.03407	0.68973	0.07087	0.159
Mof_C 	C 	0.03407	0.20533	0.68973	0.158
Mof_C 	C 	0.38094	0.7785	0.31804	-0.21
Mof_C 	C 	0.59634	0.14362	0.43848	-0.205
Mof_C 	C 	0.4588	0.7856	0.2562	0.559
Mof_C 	C 	0.78516	0.37284	0.421	0.157
Mof_C 	C 	0.9488	0.8722	0.206	0.481
Mof_C 	C 	0.06152	0.90366	0.85638	-0.205
Mof_C 	C 	0.8414	0.3414	0.25844	0.548
Mof_C 	C 	0.9352	0.8978	0.2218	-0.149
Mof_C 	C 	0.57087	0.53407	0.68973	0.158
Mof_C 	C 	0.0957	0.7289	0.0877	-0.152
Mof_C 	C 	0.0537	0.0757	0.0757	0.084
Mof_C 	C 	0.245	0.5852	0.1094	0.082
Mof_C 	C 	0.3978	0.2218	0.9452	-0.149
Mof_C 	C 	0.9685	0.2893	0.3711	0.522
Mof_C 	C 	0.03407	0.07087	0.20533	0.159
Mof_C 	C 	0.00416	0.06746	0.2157	-0.245
Mof_C 	C 	0.21268	0.06746	0.2157	-0.244
Mof_C 	C 	0.95052	0.83008	0.05988	0.511
Mof_C 	C 	0.92049	0.80127	0.11517	0.139
Mof_C 	C 	0.4042	0.9042	0.3846	0.473
Mof_C 	C 	0.0238	0.2913	0.9087	0.163
Mof_C 	C 	0.85879	0.89499	0.81381	0.491
Mof_C 	C 	0.84181	0.49339	0.87581	0.13
Mof_C 	C 	0.13783	0.35441	0.30587	-0.262
Mof_C 	C 	0.94632	0.22752	0.14708	0.537
Mof_C 	C 	0.93848	0.09634	0.14362	-0.205
Mof_C 	C 	0.69338	0.6559	0.37422	0.562
Mof_C 	C 	0.85879	0.89499	0.43241	0.491
Mof_C 	C 	0.7218	0.9452	0.8978	-0.149
Mof_C 	C 	0.6022	0.0548	0.7782	-0.15
Mof_C 	C 	0.6104	0.83112	0.1104	0.141
Mof_C 	C 	0.29467	0.31027	0.92913	0.158
Mof_C 	C 	0.35292	0.55368	0.77248	0.537
Mof_O 	O 	0.90708	0.91746	0.82266	-0.481
Mof_O 	O 	0.879	0.871	0.379	-0.769
Mof_O 	O 	0.73506	0.70238	0.14186	-0.502
Mof_O 	O 	0.3193	0.1893	0.44122	-0.53
Mof_O 	O 	0.63234	0.5662	0.18162	-0.521
Mof_O 	O 	0.98073	0.29123	0.38603	-0.511
Mof_O 	O 	0.6893	0.8193	0.05018	-0.53
Mof_O 	O 	0.09292	0.6472	0.17734	-0.481
Mof_O 	O 	0.65614	0.19958	0.38846	-0.516
Mof_O 	O 	0.24614	0.2077	0.52722	-0.521
Mof_O 	O 	0.94122	0.8193	0.05018	-0.53
Mof_O 	O 	0.41746	0.82266	0.3528	-0.481
Mof_O 	O 	0.62095	0.67889	0.62289	-0.482
Mof_O 	O 	0.32266	0.91746	0.3528	-0.481
Mof_O 	O 	0.94161	0.22277	0.98777	-0.519
Mof_O 	O 	0.7354	0.77986	0.52576	-0.542
Mof_O 	O 	0.54304	0.14132	0.46894	-0.477
Mof_O 	O 	0.3467	0.46894	0.14132	-0.477
Mof_O 	O 	0.94161	0.98777	0.84785	-0.519
Mof_O 	O 	0.51894	0.2077	0.52722	-0.521
Mof_O 	O 	0.25582	0.19958	0.38846	-0.516
Mof_O 	O 	0.05878	0.8107	0.1807	-0.53
Mof_O 	O 	0.3193	0.44122	0.1893	-0.53
Mof_O 	O 	0.35814	0.29762	0.5793	-0.502
Mof_O 	O 	0.73687	0.19283	0.33423	-0.493
Mof_O 	O 	0.9207	0.14186	0.23506	-0.502
Mof_O 	O 	0.09292	0.6472	0.08254	-0.482
Mof_O 	O 	0.65215	0.01223	0.77723	-0.521
Mof_O 	O 	0.23607	0.33423	0.19283	-0.493
Mof_O 	O 	0.37905	0.37711	0.92273	-0.482
Mof_O 	O 	0.42273	0.37711	0.32111	-0.482
Mof_O 	O 	0.17889	0.12095	0.07727	-0.482
Mof_O 	O 	0.51894	0.52722	0.74614	-0.521
Mof_O 	O 	0.6893	0.05018	0.44122	-0.53
Mof_O 	O 	0.54304	0.8467	0.14132	-0.477
Mof_O 	O 	0.24289	0.35951	0.60439	-0.548
Mof_O 	O 	0.15769	0.17231	0.44797	-0.553
Mof_O 	O 	0.27723	0.55839	0.15215	-0.52
Mof_O 	O 	0.82053	0.26891	0.36435	-0.515
Mof_O 	O 	0.62134	0.02152	0.5334	-0.445
Mof_O 	O 	0.86714	0.68478	0.17664	-0.527
Mof_O 	O 	0.32336	0.31522	0.63286	-0.527
Mof_O 	O 	0.64132	0.8467	0.04304	-0.476
Mof_O 	O 	0.79762	0.5793	0.85814	-0.502
Mof_O 	O 	0.94122	0.05018	0.8193	-0.53
Mof_O 	O 	0.2923	0.98106	0.25386	-0.52
Mof_O 	O 	0.70574	0.20574	0.69696	-0.775
Mof_O 	O 	0.5	0.187	0.5	-0.764
Mof_O 	O 	0.13565	0.45379	0.67947	-0.516
Mof_O 	O 	0.82111	0.87905	0.37711	-0.482
Mof_O 	O 	0.87711	0.32111	0.92273	-0.482
Mof_O 	O 	0.04621	0.32053	0.36435	-0.515
Mof_O 	O 	0.63234	0.61984	0.18162	-0.521
Mof_O 	O 	0.3107	0.1807	0.94982	-0.53
Mof_O 	O 	0.14049	0.39561	0.20679	-0.548
Mof_O 	O 	0.94797	0.17231	0.65769	-0.553
Mof_O 	O 	0.05839	0.01223	0.15215	-0.521
Mof_O 	O 	0.97424	0.7646	0.04102	-0.541
Mof_O 	O 	0.88016	0.86766	0.4338	-0.521
Mof_O 	O 	0.05878	0.1807	0.8107	-0.53
Mof_O 	O 	0.9207	0.70238	0.14186	-0.502
Mof_O 	O 	0.70574	0.20574	0.39156	-0.775
Mof_O 	O 	7.90002e-17	0	0.813	-0.765
Mof_O 	O 	0.84231	0.77797	0.55203	-0.553
Mof_O 	O 	0.65215	0.01223	0.55839	-0.521
Mof_O 	O 	0.65215	0.77723	0.01223	-0.521
Mof_O 	O 	0.04621	0.36435	0.26891	-0.515
Mof_O 	O 	0.01927	0.70877	0.61397	-0.513
Mof_O 	O 	0.09292	0.17734	0.08254	-0.482
Mof_O 	O 	0.48106	0.47278	0.25386	-0.521
Mof_O 	O 	0.42273	0.87905	0.32111	-0.482
Mof_O 	O 	0.02576	0.77986	0.2354	-0.543
Mof_O 	O 	0.11397	0.65799	0.70877	-0.512
Mof_O 	O 	0.48106	0.7923	0.25386	-0.521
Mof_O 	O 	0.35814	0.29762	0.76494	-0.502
Mof_O 	O 	0.687	0.5	-0	-0.764
Mof_O 	O 	0.64132	0.46894	0.8467	-0.476
Mof_O 	O 	0.48106	0.7923	0.47278	-0.521
Mof_O 	O 	0.11397	0.70877	0.51927	-0.512
Mof_O 	O 	0.72277	0.98777	0.44161	-0.519
Mof_O 	O 	0.17121	0.67121	0.48637	-0.78
Mof_O 	O 	0.14049	0.25711	0.20679	-0.548
Mof_O 	O 	0.83423	0.23687	0.19283	-0.493
Mof_O 	O 	0.65215	0.77723	0.55839	-0.52
Mof_O 	O 	0.26494	0.85814	0.5793	-0.502
Mof_O 	O 	0.11984	0.18162	0.13234	-0.521
Mof_O 	O 	0.15769	0.44797	0.22203	-0.553
Mof_O 	O 	0.74418	0.61154	0.84386	-0.516
Mof_O 	O 	0.32769	0.34231	0.55203	-0.553
Mof_O 	O 	0.37866	0.17626	0.4666	-0.445
Mof_O 	O 	0.15769	0.22203	0.44797	-0.553
Mof_O 	O 	0.68162	0.13234	0.61984	-0.521
Mof_O 	O 	0.69283	0.33423	0.23687	-0.493
Mof_O 	O 	0.83423	0.23687	0.73607	-0.493
Mof_O 	O 	0.63234	0.18162	0.5662	-0.521
Mof_O 	O 	0.65215	0.55839	0.01223	-0.521
Mof_O 	O 	0.11984	0.5662	0.13234	-0.521
Mof_O 	O 	0.7077	0.52722	0.01894	-0.522
Mof_O 	O 	0.84231	0.82769	0.55203	-0.553
Mof_O 	O 	0.82053	0.36435	0.54621	-0.515
Mof_O 	O 	0.36766	0.4338	0.81838	-0.521
Mof_O 	O 	0.11984	0.13234	0.18162	-0.521
Mof_O 	O 	0.29426	0.79426	0.30304	-0.775
Mof_O 	O 	0.22856	0.31522	0.63286	-0.527
Mof_O 	O 	0.20238	0.23506	0.14186	-0.502
Mof_O 	O 	0.45696	0.53106	0.1533	-0.477
Mof_O 	O 	0.88016	0.81838	0.86766	-0.521
Mof_O 	O 	0.15799	0.70877	0.51927	-0.512
Mof_O 	O 	0.7354	0.95898	0.77986	-0.542
Mof_O 	O 	0.73687	0.19283	0.73607	-0.493
Mof_O 	O 	0.35868	0.1533	0.53106	-0.477
Mof_O 	O 	0.98073	0.34201	0.38603	-0.511
Mof_O 	O 	0.42273	0.87905	0.37711	-0.482
Mof_O 	O 	0.6533	0.53106	0.95696	-0.476
Mof_O 	O 	0.31838	0.4338	0.86766	-0.521
Mof_O 	O 	0.96894	0.8467	0.04304	-0.475
Mof_O 	O 	0.18478	0.36714	0.27144	-0.527
Mof_O 	O 	0.17947	0.45379	0.73109	-0.515
Mof_O 	O 	0.7354	0.52576	0.95898	-0.542
Mof_O 	O 	0.67734	0.59292	0.6472	-0.481
Mof_O 	O 	0.86714	0.17664	0.68478	-0.527
Mof_O 	O 	0.34785	0.22277	0.98777	-0.519
Mof_O 	O 	0.2646	0.47424	0.04102	-0.542
Mof_O 	O 	0.88016	0.4338	0.86766	-0.521
Mof_O 	O 	0.17889	0.07727	0.62289	-0.482
Mof_O 	O 	0.0793	0.76494	0.85814	-0.502
Mof_O 	O 	0.72203	0.44797	0.65769	-0.553
Mof_O 	O 	0.69958	0.15614	0.75582	-0.516
Mof_O 	O 	0.86435	0.54621	0.26891	-0.515
Mof_O 	O 	0.67626	0.97848	0.87866	-0.443
Mof_O 	O 	0.9666	0.97848	0.17626	-0.443
Mof_O 	O 	0.51894	0.52722	0.2077	-0.521
Mof_O 	O 	0.67626	0.97848	0.4666	-0.444
Mof_O 	O 	0.73687	0.73607	0.19283	-0.493
Mof_O 	O 	0.0793	0.85814	0.29762	-0.502
Mof_O 	O 	0.48777	0.44161	0.84785	-0.52
Mof_O 	O 	0.79123	0.34201	0.38603	-0.512
Mof_O 	O 	0.65614	0.75582	0.38846	-0.516
Mof_O 	O 	0.9338	0.38016	0.86766	-0.521
Mof_O 	O 	0.67231	0.44797	0.65769	-0.553
Mof_O 	O 	0.94797	0.65769	0.22203	-0.553
Mof_O 	O 	0.63234	0.18162	0.61984	-0.521
Mof_O 	O 	0.79762	0.5793	0.76494	-0.502
Mof_O 	O 	0.05203	0.77797	0.82769	-0.554
Mof_O 	O 	0.1472	0.17734	0.59292	-0.481
Mof_O 	O 	0.55018	0.1893	0.44122	-0.53
Mof_O 	O 	0.03106	0.95696	0.1533	-0.476
Mof_O 	O 	0.26313	0.66577	0.80717	-0.493
Mof_O 	O 	0.0334	0.82374	0.02152	-0.445
Mof_O 	O 	0.62134	0.5334	0.02152	-0.445
Mof_O 	O 	0.88846	0.19958	0.15614	-0.516
Mof_O 	O 	0.74418	0.80042	0.84386	-0.516
Mof_O 	O 	0.27986	0.95898	0.52576	-0.542
Mof_O 	O 	0.9666	0.17626	0.97848	-0.443
Mof_O 	O 	0.74418	0.84386	0.61154	-0.516
Mof_O 	O 	0.12289	0.07727	0.67889	-0.482
Mof_O 	O 	0.3193	0.44122	0.05018	-0.53
Mof_O 	O 	0.48106	0.25386	0.47278	-0.521
Mof_O 	O 	0.86435	0.32053	0.54621	-0.515
Mof_O 	O 	0.35868	0.1533	0.95696	-0.476
Mof_O 	O 	0.45696	0.53106	0.85868	-0.476
Mof_O 	O 	0.72014	0.04102	0.7646	-0.542
Mof_O 	O 	0.51223	0.15215	0.77723	-0.52
Mof_O 	O 	0.72203	0.65769	0.17231	-0.553
Mof_O 	O 	0.57727	0.62289	0.12095	-0.482
Mof_O 	O 	0.42273	0.32111	0.87905	-0.482
Mof_O 	O 	0.17947	0.73109	0.63565	-0.515
Mof_O 	O 	0.72203	0.44797	0.17231	-0.553
Mof_O 	O 	0.96894	0.04304	0.14132	-0.476
Mof_O 	O 	0.67734	0.6472	0.59292	-0.481
Mof_O 	O 	0.24614	0.01894	0.52722	-0.522
Mof_O 	O 	0.29426	0.30304	0.79426	-0.775
Mof_O 	O 	0.03106	0.1533	0.95696	-0.476
Mof_O 	O 	0.75711	0.20679	0.64049	-0.548
Mof_O 	O 	0.69283	0.33423	0.73607	-0.493
Mof_O 	O 	0.86435	0.26891	0.54621	-0.515
Mof_O 	O 	0.77144	0.17664	0.36714	-0.527
Mof_O 	O 	0.9338	0.86766	0.38016	-0.521
Mof_O 	O 	0.89156	0.20574	0.20574	-0.775
Mof_O 	O 	0.41746	0.82266	0.40708	-0.481
Mof_O 	O 	0.51223	0.55839	0.77723	-0.52
Mof_O 	O 	0.42273	0.32111	0.37711	-0.482
Mof_O 	O 	0.879	0.871	0.871	-0.769
Mof_O 	O 	0.0662	0.61984	0.13234	-0.521
Mof_O 	O 	0.32336	0.72856	0.63286	-0.527
Mof_O 	O 	0.05878	0.94982	0.1807	-0.53
Mof_O 	O 	0.88016	0.86766	0.81838	-0.521
Mof_O 	O 	0.87711	0.87905	0.92273	-0.482
Mof_O 	O 	0.6893	0.8193	0.44122	-0.53
Mof_O 	O 	0.76891	0.36435	0.32053	-0.515
Mof_O 	O 	0.0793	0.29762	0.76494	-0.502
Mof_O 	O 	0.54304	0.8467	0.46894	-0.476
Mof_O 	O 	0.64132	0.8467	0.46894	-0.476
Mof_O 	O 	0.10439	0.74289	0.79321	-0.548
Mof_O 	O 	0.32374	0.5334	0.02152	-0.445
Mof_O 	O 	0.24614	0.2077	0.01894	-0.522
Mof_O 	O 	0.45898	0.52576	0.2354	-0.542
Mof_O 	O 	0.58254	0.6472	0.59292	-0.481
Mof_O 	O 	0.5	0.5	0.187	-0.764
Mof_O 	O 	0.26313	0.66577	0.26393	-0.493
Mof_O 	O 	0.86435	0.26891	0.32053	-0.515
Mof_O 	O 	0.83423	0.19283	0.23687	-0.493
Mof_O 	O 	0.79123	0.38603	0.48073	-0.512
Mof_O 	O 	0.97278	0.25386	0.98106	-0.52
Mof_O 	O 	0.11984	0.13234	0.5662	-0.521
Mof_O 	O 	0.67734	0.08254	0.59292	-0.482
Mof_O 	O 	0.37866	0.4666	0.17626	-0.445
Mof_O 	O 	0.05203	0.34231	0.77797	-0.554
Mof_O 	O 	0.95379	0.63565	0.73109	-0.516
Mof_O 	O 	0.29321	0.60439	0.74289	-0.548
Mof_O 	O 	0.48777	0.84785	0.22277	-0.52
Mof_O 	O 	0.45696	0.1533	0.85868	-0.477
Mof_O 	O 	0.11154	0.24418	0.84386	-0.516
Mof_O 	O 	0.97278	0.7923	0.98106	-0.52
Mof_O 	O 	0.65614	0.38846	0.19958	-0.516
Mof_O 	O 	0.32266	0.3528	0.91746	-0.481
Mof_O 	O 	0.81522	0.82336	0.72856	-0.527
Mof_O 	O 	0.02576	0.77986	0.95898	-0.543
Mof_O 	O 	0.15799	0.61397	0.70877	-0.512
Mof_O 	O 	0.72277	0.84785	0.98777	-0.519
Mof_O 	O 	0.05878	0.8107	0.94982	-0.53
Mof_O 	O 	0.3467	0.14132	0.04304	-0.476
Mof_O 	O 	0.79123	0.48073	0.34201	-0.512
Mof_O 	O 	0.70679	0.39561	0.64049	-0.548
Mof_O 	O 	0.313	-1.975e-17	0.5	-0.764
Mof_O 	O 	0.98637	0.67121	0.67121	-0.781
Mof_O 	O 	0.47848	0.87866	0.4666	-0.444
Mof_O 	O 	0.13286	0.82336	0.72856	-0.527
Mof_O 	O 	0.34785	0.22277	0.44161	-0.52
Mof_O 	O 	0.86714	0.27144	0.68478	-0.527
Mof_O 	O 	0.10844	0.79426	0.30304	-0.775
Mof_O 	O 	0.25582	0.38846	0.19958	-0.516
Mof_O 	O 	0.23109	0.67947	0.63565	-0.515
Mof_O 	O 	0.02722	0.01894	0.2077	-0.521
Mof_O 	O 	0.72014	0.7646	0.47424	-0.542
Mof_O 	O 	0.2646	0.47424	0.22014	-0.542
Mof_O 	O 	0.79762	0.85814	0.76494	-0.502
Mof_O 	O 	0.26494	0.29762	0.85814	-0.502
Mof_O 	O 	0.12289	0.12095	0.07727	-0.482
Mof_O 	O 	0.25582	0.19958	0.15614	-0.516
Mof_O 	O 	0.0793	0.29762	0.85814	-0.502
Mof_O 	O 	0.879	0.379	0.871	-0.769
Mof_O 	O 	0.54304	0.14132	0.8467	-0.477
Mof_O 	O 	0.69283	0.73607	0.23687	-0.493
Mof_O 	O 	0.24614	0.01894	0.2077	-0.522
Mof_O 	O 	0.11154	0.84386	0.80042	-0.516
Mof_O 	O 	0.67734	0.6472	0.08254	-0.482
Mof_O 	O 	0.95379	0.73109	0.67947	-0.516
Mof_O 	O 	0.88846	0.75582	0.19958	-0.516
Mof_O 	O 	0.90708	0.91746	0.3528	-0.481
Mof_O 	O 	7.90002e-17	0.187	0.813	-0.764
Mof_O 	O 	0.05839	0.01223	0.77723	-0.521
Mof_O 	O 	0.37866	0.17626	0.97848	-0.444
Mof_O 	O 	0.23109	0.45379	0.63565	-0.515
Mof_O 	O 	0.2923	0.47278	0.25386	-0.521
Mof_O 	O 	0.17947	0.73109	0.45379	-0.515
Mof_O 	O 	0.54102	0.47424	0.22014	-0.542
Mof_O 	O 	0.52152	0.12134	0.82374	-0.445
Mof_O 	O 	0.67231	0.65769	0.44797	-0.553
Mof_O 	O 	0.30717	0.66577	0.76313	-0.493
Mof_O 	O 	0.9666	0.87866	0.97848	-0.443
Mof_O 	O 	0.94161	0.84785	0.98777	-0.519
Mof_O 	O 	0.94161	0.84785	0.22277	-0.52
Mof_O 	O 	0.76393	0.80717	0.66577	-0.493
Mof_O 	O 	0.95379	0.73109	0.63565	-0.516
Mof_O 	O 	0.57727	0.67889	0.62289	-0.482
Mof_O 	O 	0.62095	0.67889	0.07727	-0.482
Mof_O 	O 	0.81522	0.63286	0.82336	-0.527
Mof_O 	O 	0.64132	0.04304	0.8467	-0.476
Mof_O 	O 	0.8528	0.40708	0.91746	-0.481
Mof_O 	O 	0.87711	0.32111	0.87905	-0.482
Mof_O 	O 	0.05203	0.82769	0.77797	-0.554
Mof_O 	O 	0.67664	0.36714	0.68478	-0.527
Mof_O 	O 	0.371	0.871	0.379	-0.769
Mof_O 	O 	0.88603	0.29123	0.34201	-0.512
Mof_O 	O 	-4.93751e-18	-9.87502e-18	0.187	-0.765
Mof_O 	O 	0.75386	0.98106	0.47278	-0.52
Mof_O 	O 	0.85951	0.79321	0.60439	-0.548
Mof_O 	O 	0.74418	0.80042	0.61154	-0.516
Mof_O 	O 	0.84201	0.48073	0.29123	-0.512
Mof_O 	O 	0.29321	0.74289	0.60439	-0.548
Mof_O 	O 	0.6807	0.8107	0.55878	-0.53
Mof_O 	O 	0.35814	0.5793	0.76494	-0.502
Mof_O 	O 	0.121	0.129	0.621	-0.769
Mof_O 	O 	0.3467	0.04304	0.14132	-0.476
Mof_O 	O 	0.20877	0.61397	0.65799	-0.512
Mof_O 	O 	0.16577	0.26393	0.80717	-0.493
Mof_O 	O 	0.313	-9.87502e-18	0.187	-0.764
Mof_O 	O 	0.30042	0.24418	0.61154	-0.516
Mof_O 	O 	0.6893	0.05018	0.8193	-0.53
Mof_O 	O 	0.0334	0.02152	0.12134	-0.445
Mof_O 	O 	0.23607	0.23687	0.19283	-0.493
Mof_O 	O 	0.13286	0.31522	0.82336	-0.527
Mof_O 	O 	0.15799	0.70877	0.61397	-0.512
Mof_O 	O 	0.25582	0.38846	0.15614	-0.516
Mof_O 	O 	0.69958	0.38846	0.15614	-0.516
Mof_O 	O 	0.32266	0.40708	0.91746	-0.481
Mof_O 	O 	0.69958	0.38846	0.75582	-0.516
Mof_O 	O 	0.35814	0.76494	0.29762	-0.502
Mof_O 	O 	0.73687	0.73607	0.33423	-0.493
Mof_O 	O 	0.29426	0.60844	0.30304	-0.775
Mof_O 	O 	0.9338	0.81838	0.38016	-0.521
Mof_O 	O 	0.3107	0.94982	0.55878	-0.53
Mof_O 	O 	0.45696	0.1533	0.53106	-0.477
Mof_O 	O 	0.22856	0.63286	0.31522	-0.527
Mof_O 	O 	0.05203	0.77797	0.34231	-0.554
Mof_O 	O 	0.26313	0.80717	0.66577	-0.493
Mof_O 	O 	0.84201	0.38603	0.48073	-0.512
Mof_O 	O 	0.6893	0.44122	0.05018	-0.53
Mof_O 	O 	0.01927	0.65799	0.70877	-0.513
Mof_O 	O 	0.11397	0.51927	0.70877	-0.512
Mof_O 	O 	0.629	0.621	0.621	-0.769
Mof_O 	O 	0.81522	0.72856	0.63286	-0.527
Mof_O 	O 	0.70679	0.39561	0.25711	-0.548
Mof_O 	O 	0.89561	0.25711	0.64049	-0.548
Mof_O 	O 	0.67231	0.22203	0.65769	-0.553
Mof_O 	O 	0.17889	0.12095	0.62289	-0.482
Mof_O 	O 	0.10844	0.30304	0.79426	-0.775
Mof_O 	O 	0.64186	0.4207	0.70238	-0.502
Mof_O 	O 	0.15799	0.51927	0.61397	-0.512
Mof_O 	O 	0.67664	0.27144	0.36714	-0.527
Mof_O 	O 	0.3467	0.14132	0.46894	-0.477
Mof_O 	O 	0.47848	0.17626	0.4666	-0.445
Mof_O 	O 	0.15769	0.44797	0.17231	-0.553
Mof_O 	O 	0.62134	0.02152	0.82374	-0.445
Mof_O 	O 	0.121	0.621	0.129	-0.769
Mof_O 	O 	0.5	0.187	0.813	-0.764
Mof_O 	O 	0.41746	0.40708	0.3528	-0.481
Mof_O 	O 	0.11984	0.18162	0.5662	-0.521
Mof_O 	O 	0.68162	0.5662	0.13234	-0.521
Mof_O 	O 	0.20877	0.51927	0.65799	-0.512
Mof_O 	O 	0.3467	0.04304	0.46894	-0.476
Mof_O 	O 	0.04621	0.32053	0.26891	-0.515
Mof_O 	O 	0.64186	0.4207	0.23506	-0.502
Mof_O 	O 	0.74418	0.61154	0.80042	-0.516
Mof_O 	O 	0.97424	0.22014	0.7646	-0.541
Mof_O 	O 	0.84201	0.48073	0.38603	-0.512
Mof_O 	O 	0.79123	0.34201	0.48073	-0.512
Mof_O 	O 	0.57727	0.12095	0.67889	-0.482
Mof_O 	O 	0.629	0.129	0.621	-0.769
Mof_O 	O 	0.18478	0.36714	0.17664	-0.527
Mof_O 	O 	0.16577	0.76313	0.26393	-0.493
Mof_O 	O 	0.77144	0.36714	0.17664	-0.527
Mof_O 	O 	0.83423	0.19283	0.73607	-0.493
Mof_O 	O 	0.7354	0.77986	0.95898	-0.542
Mof_O 	O 	0.75386	0.47278	0.7923	-0.521
Mof_O 	O 	0.94161	0.98777	0.22277	-0.519
Mof_O 	O 	0.0662	0.13234	0.61984	-0.521
Mof_O 	O 	0.41746	0.3528	0.40708	-0.481
Mof_O 	O 	0.5	0.813	0.187	-0.764
Mof_O 	O 	0.86435	0.32053	0.26891	-0.515
Mof_O 	O 	0.29426	0.79426	0.60844	-0.775
Mof_O 	O 	0.20238	0.4207	0.23506	-0.502
Mof_O 	O 	0.76891	0.32053	0.36435	-0.515
Mof_O 	O 	0.17889	0.07727	0.12095	-0.482
Mof_O 	O 	1.48125e-17	0.813	0.187	-0.764
Mof_O 	O 	0.87711	0.87905	0.32111	-0.482
Mof_O 	O 	0.8528	0.91746	0.40708	-0.481
Mof_O 	O 	0.26313	0.26393	0.66577	-0.493
Mof_O 	O 	0.9666	0.97848	0.87866	-0.443
Mof_O 	O 	0.20238	0.14186	0.23506	-0.502
Mof_O 	O 	0.96894	0.8467	0.14132	-0.476
Mof_O 	O 	0.04621	0.36435	0.32053	-0.515
Mof_O 	O 	0.83423	0.73607	0.23687	-0.493
Mof_O 	O 	0.79123	0.38603	0.34201	-0.512
Mof_O 	O 	0.32374	0.02152	0.5334	-0.445
Mof_O 	O 	0.69958	0.15614	0.38846	-0.516
Mof_O 	O 	0.76393	0.66577	0.76313	-0.493
Mof_O 	O 	0.63234	0.61984	0.5662	-0.521
Mof_O 	O 	0.27723	0.01223	0.15215	-0.521
Mof_O 	O 	0.72014	0.47424	0.04102	-0.542
Mof_O 	O 	0.89561	0.64049	0.20679	-0.548
Mof_O 	O 	0.54304	0.46894	0.8467	-0.476
Mof_O 	O 	0.62095	0.62289	0.67889	-0.482
Mof_O 	O 	0.62095	0.07727	0.67889	-0.482
Mof_O 	O 	0.13286	0.31522	0.72856	-0.527
Mof_O 	O 	0.8528	0.82266	0.91746	-0.481
Mof_O 	O 	0.11154	0.24418	0.80042	-0.516
Mof_O 	O 	0.96894	0.14132	0.04304	-0.476
Mof_O 	O 	0.58254	0.59292	0.17734	-0.481
Mof_O 	O 	0.17121	0.48637	0.67121	-0.78
Mof_O 	O 	0.77144	0.36714	0.68478	-0.527
Mof_O 	O 	0.0662	0.18162	0.61984	-0.521
Mof_O 	O 	0.64132	0.46894	0.04304	-0.476
Mof_O 	O 	0.31838	0.38016	0.86766	-0.521
Mof_O 	O 	0.86435	0.54621	0.32053	-0.515
Mof_O 	O 	0.51223	0.55839	0.15215	-0.52
Mof_O 	O 	0.34386	0.61154	0.24418	-0.516
Mof_O 	O 	0.1472	0.08254	0.59292	-0.482
Mof_O 	O 	0.44982	0.55878	0.8107	-0.53
Mof_O 	O 	0.88603	0.48073	0.29123	-0.512
Mof_O 	O 	0.75711	0.20679	0.39561	-0.548
Mof_O 	O 	0.17947	0.63565	0.45379	-0.515
Mof_O 	O 	0.32266	0.3528	0.40708	-0.481
Mof_O 	O 	0.55018	0.44122	0.1893	-0.53
Mof_O 	O 	0.34386	0.61154	0.80042	-0.516
Mof_O 	O 	0.75386	0.98106	0.7923	-0.52
Mof_O 	O 	0.6807	0.55878	0.8107	-0.53
Mof_O 	O 	0.44982	0.1807	0.55878	-0.53
Mof_O 	O 	0.67626	0.4666	0.97848	-0.444
Mof_O 	O 	0.12289	0.67889	0.07727	-0.482
Mof_O 	O 	0.01927	0.70877	0.65799	-0.513
Mof_O 	O 	0.37905	0.92273	0.32111	-0.482
Mof_O 	O 	0.10439	0.74289	0.35951	-0.548
Mof_O 	O 	0.13286	0.72856	0.31522	-0.527
Mof_O 	O 	0.13286	0.82336	0.31522	-0.527
Mof_O 	O 	0.62134	0.82374	0.5334	-0.444
Mof_O 	O 	0.57727	0.67889	0.12095	-0.482
Mof_O 	O 	0.88603	0.34201	0.48073	-0.512
Mof_O 	O 	0.85951	0.74289	0.60439	-0.548
Mof_O 	O 	0.55018	0.44122	0.8193	-0.53
Mof_O 	O 	0.52152	0.12134	0.5334	-0.445
Mof_O 	O 	0.94122	0.05018	0.1893	-0.53
Mof_O 	O 	0.02576	0.95898	0.77986	-0.543
Mof_O 	O 	0.11154	0.80042	0.24418	-0.516
Mof_O 	O 	0.30042	0.61154	0.24418	-0.516
Mof_O 	O 	0.27797	0.82769	0.34231	-0.553
Mof_O 	O 	0.16577	0.80717	0.26393	-0.493
Mof_O 	O 	0.26494	0.29762	0.5793	-0.502
Mof_O 	O 	0.30717	0.76313	0.26393	-0.493
Mof_O 	O 	0.9338	0.86766	0.81838	-0.521
Mof_O 	O 	0.69958	0.75582	0.38846	-0.516
Mof_O 	O 	0.51223	0.77723	0.55839	-0.52
Mof_O 	O 	0.87711	0.92273	0.87905	-0.482
Mof_O 	O 	0.20238	0.23506	0.4207	-0.502
Mof_O 	O 	0.72203	0.17231	0.44797	-0.553
Mof_O 	O 	0.62095	0.62289	0.07727	-0.482
Mof_O 	O 	0.0334	0.12134	0.82374	-0.444
Mof_O 	O 	0.02722	0.01894	0.74614	-0.522
Mof_O 	O 	0.13565	0.67947	0.45379	-0.516
Mof_O 	O 	0.76891	0.32053	0.54621	-0.515
Mof_O 	O 	0.80304	0.79426	0.60844	-0.775
Mof_O 	O 	0.24614	0.52722	0.2077	-0.521
Mof_O 	O 	0.72203	0.65769	0.44797	-0.553
Mof_O 	O 	0.97278	0.98106	0.25386	-0.52
Mof_O 	O 	0.04621	0.26891	0.36435	-0.515
Mof_O 	O 	0.35814	0.76494	0.5793	-0.502
Mof_O 	O 	0.47848	0.4666	0.87866	-0.444
Mof_O 	O 	0.94122	0.8193	0.1893	-0.53
Mof_O 	O 	0.55018	0.8193	0.44122	-0.53
Mof_O 	O 	0.0662	0.18162	0.13234	-0.521
Mof_O 	O 	0.34386	0.80042	0.61154	-0.516
Mof_O 	O 	0.73506	0.4207	0.70238	-0.502
Mof_O 	O 	0.687	0.813	-0	-0.764
Mof_O 	O 	0.48106	0.25386	0.7923	-0.521
Mof_O 	O 	0.7077	0.74614	0.01894	-0.522
Mof_O 	O 	0.313	0.187	0.5	-0.764
Mof_O 	O 	0.97424	0.04102	0.22014	-0.541
Mof_O 	O 	0.1472	0.08254	0.17734	-0.482
Mof_O 	O 	0.05878	0.1807	0.94982	-0.53
Mof_O 	O 	0.82879	0.32879	0.32879	-0.78
Mof_O 	O 	0.47848	0.87866	0.17626	-0.444
Mof_O 	O 	0.3467	0.46894	0.04304	-0.476
Mof_O 	O 	0.90708	0.3528	0.82266	-0.481
Mof_O 	O 	0.20238	0.14186	0.4207	-0.502
Mof_O 	O 	0.76393	0.76313	0.66577	-0.493
Mof_O 	O 	0.27986	0.52576	0.2354	-0.542
Mof_O 	O 	0.94161	0.22277	0.84785	-0.52
Mof_O 	O 	0.84231	0.77797	0.82769	-0.553
Mof_O 	O 	0.90708	0.3528	0.91746	-0.481
Mof_O 	O 	0.05839	0.77723	0.01223	-0.521
Mof_O 	O 	0.0662	0.61984	0.18162	-0.521
Mof_O 	O 	0.90708	0.82266	0.3528	-0.481
Mof_O 	O 	0.9666	0.17626	0.87866	-0.444
Mof_O 	O 	0.27797	0.34231	0.82769	-0.553
Mof_O 	O 	0.629	0.621	0.129	-0.769
Mof_O 	O 	0.67231	0.22203	0.44797	-0.553
Mof_O 	O 	0.27723	0.15215	0.55839	-0.52
Mof_O 	O 	0.313	0.5	-0	-0.764
Mof_O 	O 	0.34785	0.98777	0.22277	-0.519
Mof_O 	O 	0.67664	0.68478	0.27144	-0.527
Mof_O 	O 	0.48777	0.44161	0.22277	-0.52
Mof_O 	O 	0.32769	0.55203	0.34231	-0.553
Mof_O 	O 	0.0793	0.85814	0.76494	-0.502
Mof_O 	O 	0.67664	0.68478	0.36714	-0.527
Mof_O 	O 	0.24289	0.79321	0.35951	-0.548
Mof_O 	O 	0.72277	0.44161	0.84785	-0.52
Mof_O 	O 	0.76393	0.66577	0.80717	-0.493
Mof_O 	O 	0.32374	0.5334	0.12134	-0.445
Mof_O 	O 	0.6533	0.85868	0.53106	-0.476
Mof_O 	O 	0.6533	0.85868	0.95696	-0.476
Mof_O 	O 	0.64186	0.23506	0.4207	-0.502
Mof_O 	O 	0.72014	0.04102	0.47424	-0.542
Mof_O 	O 	0.51894	0.2077	0.74614	-0.521
Mof_O 	O 	0.81522	0.72856	0.82336	-0.527
Mof_O 	O 	0.42273	0.37711	0.87905	-0.482
Mof_O 	O 	0.67626	0.87866	0.4666	-0.444
Mof_O 	O 	0.67734	0.08254	0.6472	-0.482
Mof_O 	O 	0.19696	0.20574	0.20574	-0.775
Mof_O 	O 	0.2923	0.25386	0.98106	-0.52
Mof_O 	O 	0.57727	0.12095	0.62289	-0.482
Mof_O 	O 	0.51894	0.74614	0.2077	-0.521
Mof_O 	O 	0.58254	0.17734	0.6472	-0.481
Mof_O 	O 	0.18478	0.17664	0.36714	-0.527
Mof_O 	O 	0.67231	0.44797	0.22203	-0.553
Mof_O 	O 	0.73506	0.14186	0.4207	-0.502
Mof_O 	O 	0.62134	0.5334	0.82374	-0.444
Mof_O 	O 	0.8528	0.40708	0.82266	-0.481
Mof_O 	O 	0.13565	0.67947	0.73109	-0.516
Mof_O 	O 	0.52152	0.82374	0.12134	-0.445
Mof_O 	O 	0.14049	0.20679	0.25711	-0.548
Mof_O 	O 	0.88603	0.29123	0.48073	-0.512
Mof_O 	O 	0.30042	0.84386	0.24418	-0.516
Mof_O 	O 	0.32336	0.63286	0.72856	-0.527
Mof_O 	O 	0.37905	0.37711	0.32111	-0.482
Mof_O 	O 	0.70574	0.69696	0.39156	-0.775
Mof_O 	O 	0.30717	0.26393	0.76313	-0.493
Mof_O 	O 	0.34785	0.98777	0.44161	-0.519
Mof_O 	O 	0.25582	0.15614	0.19958	-0.516
Mof_O 	O 	0.3193	0.05018	0.44122	-0.53
Mof_O 	O 	0.13565	0.45379	0.73109	-0.516
Mof_O 	O 	0.30717	0.66577	0.26393	-0.493
Mof_O 	O 	0.54102	0.7646	0.47424	-0.542
Mof_O 	O 	0.97278	0.25386	0.7923	-0.521
Mof_O 	O 	0.84231	0.82769	0.77797	-0.553
Mof_O 	O 	0.72277	0.84785	0.44161	-0.52
Mof_O 	O 	0.72277	0.98777	0.84785	-0.519
Mof_O 	O 	0.95379	0.67947	0.63565	-0.516
Mof_O 	O 	0.73506	0.70238	0.4207	-0.502
Mof_O 	O 	0.82879	0.32879	0.51363	-0.78
Mof_O 	O 	0.11154	0.84386	0.24418	-0.516
Mof_O 	O 	0.29321	0.35951	0.74289	-0.548
Mof_O 	O 	0.54102	0.7646	0.22014	-0.542
Mof_O 	O 	0.73687	0.33423	0.19283	-0.493
Mof_O 	O 	0.62095	0.07727	0.62289	-0.482
Mof_O 	O 	0.9338	0.81838	0.86766	-0.521
Mof_O 	O 	0.68162	0.61984	0.5662	-0.521
Mof_O 	O 	0.7354	0.95898	0.52576	-0.542
Mof_O 	O 	0.15799	0.61397	0.51927	-0.512
Mof_O 	O 	0.65614	0.75582	0.19958	-0.516
Mof_O 	O 	0.58254	0.59292	0.6472	-0.481
Mof_O 	O 	0.32336	0.31522	0.72856	-0.527
Mof_O 	O 	0.3107	0.1807	0.55878	-0.53
Mof_O 	O 	0.64186	0.23506	0.70238	-0.502
Mof_O 	O 	0.10439	0.35951	0.74289	-0.548
Mof_O 	O 	0.27986	0.95898	0.2354	-0.542
Mof_O 	O 	0.79762	0.76494	0.5793	-0.502
Mof_O 	O 	0.9207	0.23506	0.70238	-0.502
Mof_O 	O 	0.01927	0.61397	0.70877	-0.513
Mof_O 	O 	0.70679	0.64049	0.25711	-0.548
Mof_O 	O 	0.03106	0.95696	0.85868	-0.476
Mof_O 	O 	0.82111	0.37711	0.87905	-0.482
Mof_O 	O 	0.76891	0.54621	0.36435	-0.515
Mof_O 	O 	0.29321	0.35951	0.60439	-0.548
Mof_O 	O 	0.94122	0.1893	0.05018	-0.53
Mof_O 	O 	0.44982	0.8107	0.55878	-0.53
Mof_O 	O 	0.45898	0.52576	0.77986	-0.542
Mof_O 	O 	0.68162	0.5662	0.61984	-0.521
Mof_O 	O 	0.77144	0.17664	0.68478	-0.527
Mof_O 	O 	0.371	0.379	0.871	-0.769
Mof_O 	O 	0.7077	0.01894	0.74614	-0.522
Mof_O 	O 	0.20877	0.61397	0.51927	-0.512
Mof_O 	O 	0.3107	0.94982	0.1807	-0.53
Mof_O 	O 	0.20238	0.4207	0.14186	-0.502
Mof_O 	O 	0.98073	0.38603	0.34201	-0.511
Mof_O 	O 	0.13565	0.73109	0.45379	-0.516
Mof_O 	O 	0.73506	0.14186	0.70238	-0.502
Mof_O 	O 	0.371	0.379	0.379	-0.769
Mof_O 	O 	0.88016	0.4338	0.81838	-0.521
Mof_O 	O 	0.6533	0.53106	0.85868	-0.476
Mof_O 	O 	0.5	0.5	0.813	-0.764
Mof_O 	O 	0.02576	0.2354	0.77986	-0.543
Mof_O 	O 	0.85951	0.60439	0.79321	-0.548
Mof_O 	O 	0.34386	0.24418	0.61154	-0.516
Mof_O 	O 	0.84201	0.29123	0.38603	-0.512
Mof_O 	O 	0.02722	0.2077	0.74614	-0.52
Mof_O 	O 	0.02576	0.95898	0.2354	-0.543
Mof_O 	O 	0.121	0.129	0.129	-0.769
Mof_O 	O 	0.6807	0.55878	0.94982	-0.53
Mof_O 	O 	0.0662	0.13234	0.18162	-0.521
Mof_O 	O 	0.18478	0.27144	0.36714	-0.527
Mof_O 	O 	0.75386	0.7923	0.47278	-0.521
Mof_O 	O 	0.01927	0.65799	0.61397	-0.513
Mof_O 	O 	0.23607	0.33423	0.23687	-0.493
Mof_O 	O 	0.687	0	0.813	-0.764
Mof_O 	O 	0.23607	0.19283	0.33423	-0.493
Mof_O 	O 	0.44982	0.55878	0.1807	-0.53
Mof_O 	O 	0.74418	0.84386	0.80042	-0.516
Mof_O 	O 	0.1472	0.59292	0.17734	-0.481
Mof_O 	O 	0.17947	0.63565	0.73109	-0.515
Mof_O 	O 	0.77144	0.68478	0.36714	-0.527
Mof_O 	O 	0.70574	0.39156	0.69696	-0.775
Mof_O 	O 	0.82053	0.54621	0.26891	-0.515
Mof_O 	O 	0.79762	0.85814	0.5793	-0.502
Mof_O 	O 	0.75386	0.47278	0.98106	-0.52
Mof_O 	O 	0.27797	0.34231	0.55203	-0.553
Mof_O 	O 	0.67626	0.4666	0.87866	-0.444
Mof_O 	O 	0.57727	0.62289	0.67889	-0.482
Mof_O 	O 	0.9207	0.14186	0.70238	-0.502
Mof_O 	O 	0.11154	0.80042	0.84386	-0.516
Mof_O 	O 	0.37905	0.32111	0.37711	-0.482
Mof_O 	O 	0.22856	0.82336	0.63286	-0.527
Mof_O 	O 	0.67734	0.59292	0.08254	-0.482
Mof_O 	O 	0.23607	0.19283	0.23687	-0.493
Mof_O 	O 	0.15799	0.51927	0.70877	-0.512
Mof_O 	O 	0.90708	0.82266	0.91746	-0.481
Mof_O 	O 	0.32769	0.55203	0.77797	-0.553
Mof_O 	O 	0.32374	0.02152	0.12134	-0.445
Mof_O 	O 	0.83423	0.73607	0.19283	-0.493
Mof_O 	O 	0.41746	0.3528	0.82266	-0.481
Mof_O 	O 	0.62134	0.82374	0.02152	-0.445
Mof_O 	O 	0.8528	0.82266	0.40708	-0.481
Mof_O 	O 	0.2646	0.04102	0.47424	-0.542
Mof_O 	O 	0.03106	0.1533	0.85868	-0.476
Mof_O 	O 	0.02722	0.74614	0.2077	-0.52
Mof_O 	O 	0.29426	0.30304	0.60844	-0.775
Mof_O 	O 	0.6893	0.44122	0.8193	-0.53
Mof_O 	O 	0.0793	0.76494	0.29762	-0.502
Mof_O 	O 	0.96894	0.04304	0.8467	-0.475
Mof_O 	O 	0.34785	0.44161	0.98777	-0.519
Mof_O 	O 	0.73506	0.4207	0.14186	-0.502
Mof_O 	O 	0.79123	0.48073	0.38603	-0.512
Mof_O 	O 	0.45696	0.85868	0.53106	-0.476
Mof_O 	O 	0.82053	0.54621	0.36435	-0.515
Mof_O 	O 	0.26494	0.5793	0.29762	-0.502
Mof_O 	O 	0.32266	0.91746	0.40708	-0.481
Mof_O 	O 	0.26494	0.85814	0.29762	-0.502
Mof_O 	O 	0.27723	0.55839	0.01223	-0.521
Mof_O 	O 	0.94797	0.17231	0.22203	-0.553
Mof_O 	O 	0.3193	0.1893	0.05018	-0.53
Mof_O 	O 	0.89561	0.25711	0.20679	-0.548
Mof_O 	O 	0.48106	0.47278	0.7923	-0.521
Mof_O 	O 	0.70574	0.69696	0.20574	-0.775
Mof_O 	O 	0.0334	0.82374	0.12134	-0.444
Mof_O 	O 	0.2923	0.47278	0.98106	-0.52
Mof_O 	O 	0.09292	0.17734	0.6472	-0.481
Mof_O 	O 	0.09292	0.08254	0.6472	-0.482
Mof_O 	O 	0.68162	0.13234	0.5662	-0.521
Mof_O 	O 	0.69283	0.23687	0.73607	-0.493
Mof_O 	O 	0.687	0.813	0.5	-0.764
Mof_O 	O 	0.58254	0.6472	0.17734	-0.481
Mof_O 	O 	0.0334	0.02152	0.82374	-0.445
Mof_O 	O 	0.5	0.813	0.5	-0.764
Mof_O 	O 	0.86714	0.27144	0.17664	-0.527
Mof_O 	O 	0.82879	0.51363	0.32879	-0.78
Mof_O 	O 	0.05878	0.94982	0.8107	-0.53
Mof_O 	O 	0.10439	0.35951	0.79321	-0.548
Mof_O 	O 	0.87711	0.92273	0.32111	-0.482
Mof_O 	O 	0.05839	0.15215	0.01223	-0.521
Mof_O 	O 	0.95379	0.67947	0.73109	-0.516
Mof_O 	O 	0.64132	0.04304	0.46894	-0.476
Mof_O 	O 	0.6533	0.95696	0.85868	-0.476
Mof_O 	O 	0.24289	0.35951	0.79321	-0.548
Mof_O 	O 	0.7077	0.01894	0.52722	-0.522
Mof_O 	O 	0.2646	0.04102	0.22014	-0.542
Mof_O 	O 	0.37905	0.32111	0.92273	-0.482
Mof_O 	O 	0.10439	0.79321	0.74289	-0.548
Mof_O 	O 	0.687	-1.975e-17	0.5	-0.764
Mof_O 	O 	0.70679	0.64049	0.39561	-0.548
Mof_O 	O 	0.76891	0.36435	0.54621	-0.515
Mof_O 	O 	0.18478	0.17664	0.27144	-0.527
Mof_O 	O 	0.67664	0.27144	0.68478	-0.527
Mof_O 	O 	0.35868	0.95696	0.53106	-0.476
Mof_O 	O 	0.24289	0.60439	0.35951	-0.548
Mof_O 	O 	0.97278	0.7923	0.25386	-0.521
Mof_O 	O 	0.32374	0.12134	0.02152	-0.445
Mof_O 	O 	0.05839	0.77723	0.15215	-0.52
Mof_O 	O 	0.36766	0.81838	0.4338	-0.521
Mof_O 	O 	0.3193	0.05018	0.1893	-0.53
Mof_O 	O 	0.14049	0.25711	0.39561	-0.548
Mof_O 	O 	0.9666	0.87866	0.17626	-0.444
Mof_O 	O 	0.97424	0.04102	0.7646	-0.541
Mof_O 	O 	0.16577	0.76313	0.80717	-0.493
Mof_O 	O 	0.27986	0.52576	0.95898	-0.542
Mof_O 	O 	0.2646	0.22014	0.04102	-0.542
Mof_O 	O 	0.85951	0.60439	0.74289	-0.548
Mof_O 	O 	0.98073	0.34201	0.29123	-0.511
Mof_O 	O 	0.88846	0.75582	0.15614	-0.516
Mof_O 	O 	0.37866	0.97848	0.17626	-0.444
Mof_O 	O 	0.89561	0.20679	0.25711	-0.548
Mof_O 	O 	0.54102	0.22014	0.47424	-0.542
Mof_O 	O 	0.30717	0.26393	0.66577	-0.493
Mof_O 	O 	0.17889	0.62289	0.12095	-0.482
Mof_O 	O 	0.04621	0.26891	0.32053	-0.515
Mof_O 	O 	0.89156	0.20574	0.69696	-0.775
Mof_O 	O 	0.80304	0.60844	0.79426	-0.775
Mof_O 	O 	0.16577	0.26393	0.76313	-0.493
Mof_O 	O 	-0	0.813	-0	-0.765
Mof_O 	O 	0.41746	0.40708	0.82266	-0.481
Mof_O 	O 	0.03106	0.85868	0.1533	-0.476
Mof_O 	O 	0.51894	0.74614	0.52722	-0.521
Mof_O 	O 	0.12289	0.12095	0.67889	-0.482
Mof_O 	O 	0.96894	0.14132	0.8467	-0.476
Mof_O 	O 	0.69283	0.23687	0.33423	-0.493
Mof_O 	O 	0.36766	0.81838	0.38016	-0.521
Mof_O 	O 	0.45898	0.2354	0.52576	-0.542
Mof_O 	O 	0.7077	0.52722	0.74614	-0.521
Mof_O 	O 	0.26494	0.5793	0.85814	-0.502
Mof_O 	O 	0.24614	0.52722	0.01894	-0.522
Mof_O 	O 	0.69958	0.75582	0.15614	-0.516
Mof_O 	O 	0.10439	0.79321	0.35951	-0.548
Mof_O 	O 	0.02722	0.2077	0.01894	-0.521
Mof_O 	O 	0.98073	0.38603	0.29123	-0.511
Mof_O 	O 	0.9338	0.38016	0.81838	-0.521
Mof_O 	O 	0.72014	0.7646	0.04102	-0.542
Mof_O 	O 	0.35814	0.5793	0.29762	-0.502
Mof_O 	O 	0.27986	0.2354	0.95898	-0.542
Mof_O 	O 	0.63234	0.5662	0.61984	-0.521
Mof_O 	O 	0.8528	0.91746	0.82266	-0.481
Mof_O 	O 	0.75386	0.7923	0.98106	-0.52
Mof_O 	O 	0.9207	0.70238	0.23506	-0.502
Mof_O 	O 	0.23109	0.63565	0.45379	-0.515
Mof_O 	O 	0.65614	0.38846	0.75582	-0.516
Mof_O 	O 	0.52152	0.5334	0.82374	-0.444
Mof_O 	O 	0.70679	0.25711	0.39561	-0.548
Mof_O 	O 	0.75711	0.39561	0.20679	-0.548
Mof_O 	O 	0.27797	0.82769	0.55203	-0.553
Mof_O 	O 	0.01927	0.61397	0.65799	-0.513
Mof_O 	O 	0.86714	0.68478	0.27144	-0.527
Mof_O 	O 	0.67626	0.87866	0.97848	-0.443
Mof_O 	O 	0.27723	0.15215	0.01223	-0.521
Mof_O 	O 	0.47848	0.17626	0.87866	-0.444
Mof_O 	O 	0.14049	0.20679	0.39561	-0.548
Mof_O 	O 	0.35868	0.53106	0.1533	-0.477
Mof_O 	O 	0.30717	0.76313	0.66577	-0.493
Mof_O 	O 	0.45898	0.77986	0.52576	-0.542
Mof_O 	O 	0.3107	0.55878	0.94982	-0.53
Mof_O 	O 	0.32266	0.40708	0.3528	-0.481
Mof_O 	O 	-0	0.187	-0	-0.765
Mof_O 	O 	0.48777	0.22277	0.44161	-0.52
Mof_O 	O 	0.84201	0.38603	0.29123	-0.512
Mof_O 	O 	0.27723	0.01223	0.55839	-0.521
Mof_O 	O 	0.1472	0.59292	0.08254	-0.482
Mof_O 	O 	0.05839	0.15215	0.77723	-0.52
Mof_O 	O 	0.2923	0.25386	0.47278	-0.521
Mof_O 	O 	0.65215	0.55839	0.77723	-0.52
Mof_O 	O 	0.94797	0.22203	0.17231	-0.553
Mof_O 	O 	0.23109	0.45379	0.67947	-0.515
Mof_O 	O 	0.73687	0.33423	0.73607	-0.493
Mof_O 	O 	0.27797	0.55203	0.34231	-0.553
Mof_O 	O 	0.70574	0.39156	0.20574	-0.775
Mof_O 	O 	0.9207	0.23506	0.14186	-0.502
Mof_O 	O 	0.22856	0.82336	0.31522	-0.527
Mof_O 	O 	0.72014	0.47424	0.7646	-0.542
Mof_O 	O 	0.82053	0.26891	0.54621	-0.515
Mof_O 	O 	0.44982	0.1807	0.8107	-0.53
Mof_O 	O 	0.95379	0.63565	0.67947	-0.516
Mof_O 	O 	0.6533	0.95696	0.53106	-0.476
Mof_O 	O 	0.45898	0.77986	0.2354	-0.542
Mof_O 	O 	0.27986	0.2354	0.52576	-0.542
Mof_O 	O 	0.19696	0.39156	0.20574	-0.775
Mof_O 	O 	0.13286	0.72856	0.82336	-0.527
Mof_O 	O 	0.27797	0.55203	0.82769	-0.553
Mof_O 	O 	0.05203	0.34231	0.82769	-0.554
Mof_O 	O 	0.44982	0.8107	0.1807	-0.53
Mof_O 	O 	0.86714	0.17664	0.27144	-0.527
Mof_O 	O 	0.34386	0.24418	0.80042	-0.516
Mof_O 	O 	0.26313	0.80717	0.26393	-0.493
Mof_O 	O 	0.88846	0.15614	0.75582	-0.516
Mof_O 	O 	0.20877	0.51927	0.61397	-0.512
Mof_O 	O 	0.82111	0.87905	0.92273	-0.482
Mof_O 	O 	0.81522	0.63286	0.72856	-0.527
Mof_O 	O 	0.30042	0.61154	0.84386	-0.516
Mof_O 	O 	0.85951	0.79321	0.74289	-0.548
Mof_O 	O 	0.55018	0.8193	0.1893	-0.53
Mof_O 	O 	0.54304	0.46894	0.14132	-0.477
Mof_O 	O 	0.15769	0.22203	0.17231	-0.553
Mof_O 	O 	0.17889	0.62289	0.07727	-0.482
Mof_O 	O 	0.30042	0.24418	0.84386	-0.516
Mof_O 	O 	0.45696	0.85868	0.1533	-0.477
Mof_O 	O 	0.67664	0.36714	0.27144	-0.527
Mof_O 	O 	0.51223	0.77723	0.15215	-0.52
Mof_O 	O 	0.37905	0.92273	0.37711	-0.482
Mof_O 	O 	0.54102	0.22014	0.7646	-0.542
Mof_O 	O 	0.69283	0.73607	0.33423	-0.493
Mof_O 	O 	0.18478	0.27144	0.17664	-0.527
Mof_O 	O 	0.94797	0.22203	0.65769	-0.553
Mof_O 	O 	0.36766	0.4338	0.38016	-0.521
Mof_O 	O 	0.72203	0.17231	0.65769	-0.553
Mof_O 	O 	0.6807	0.8107	0.94982	-0.53
Mof_O 	O 	0.75711	0.39561	0.64049	-0.548
Mof_O 	O 	0.32769	0.77797	0.34231	-0.553
Mof_O 	O 	0.82111	0.92273	0.87905	-0.482
Mof_O 	O 	0.84231	0.55203	0.77797	-0.553
Mof_O 	O 	0.6807	0.94982	0.8107	-0.53
Mof_O 	O 	0.85951	0.74289	0.79321	-0.548
Mof_O 	O 	0.76393	0.76313	0.80717	-0.493
Mof_O 	O 	0.7354	0.52576	0.77986	-0.542
Mof_O 	O 	0.70679	0.25711	0.64049	-0.548
Mof_O 	O 	0.12289	0.67889	0.12095	-0.482
Mof_O 	O 	0.35868	0.53106	0.95696	-0.476
Mof_O 	O 	0.19696	0.20574	0.39156	-0.775
Mof_O 	O 	0.72277	0.44161	0.98777	-0.519
Mof_O 	O 	0.09292	0.08254	0.17734	-0.482
Mof_O 	O 	0.65614	0.19958	0.75582	-0.516
Mof_O 	O 	0.94797	0.65769	0.17231	-0.553
Mof_O 	O 	0.31838	0.86766	0.38016	-0.521
Mof_O 	O 	0.23607	0.23687	0.33423	-0.493
Mof_O 	O 	0.36766	0.38016	0.81838	-0.521
Mof_O 	O 	0.14049	0.39561	0.25711	-0.548
Mof_O 	O 	0.17121	0.67121	0.67121	-0.78
Mof_O 	O 	0.76393	0.80717	0.76313	-0.493
Mof_O 	O 	0.29321	0.74289	0.35951	-0.548
Mof_O 	O 	0.79762	0.76494	0.85814	-0.502
Mof_O 	O 	0.48777	0.84785	0.44161	-0.52
Mof_O 	O 	0.68162	0.61984	0.13234	-0.521
Mof_O 	O 	0.84201	0.29123	0.48073	-0.512
Mof_O 	O 	0.52152	0.82374	0.5334	-0.444
Mof_O 	O 	0.52152	0.5334	0.12134	-0.445
Mof_O 	O 	0.88016	0.81838	0.4338	-0.521
Mof_O 	O 	0.80304	0.79426	0.79426	-0.775
Mof_O 	O 	0.16577	0.80717	0.76313	-0.493
Mof_O 	O 	0.31838	0.4338	0.38016	-0.521
Mof_O 	O 	0.82111	0.92273	0.37711	-0.482
Mof_O 	O 	0.88846	0.19958	0.75582	-0.516
Mof_O 	O 	0.7077	0.74614	0.52722	-0.521
Mof_O 	O 	0.03106	0.85868	0.95696	-0.476
Mof_O 	O 	0.24289	0.60439	0.79321	-0.548
Mof_O 	O 	0.45898	0.2354	0.77986	-0.542
Mof_O 	O 	0.37866	0.4666	0.97848	-0.444
Mof_O 	O 	0.88603	0.34201	0.29123	-0.512
Mof_O 	O 	0.64186	0.70238	0.4207	-0.502
Mof_O 	O 	0.30042	0.84386	0.61154	-0.516
Mof_O 	O 	0.84231	0.55203	0.82769	-0.553
Mof_O 	O 	0.88846	0.15614	0.19958	-0.516
Mof_O 	O 	0.51223	0.15215	0.55839	-0.52
Mof_O 	O 	0.32336	0.63286	0.31522	-0.527
Mof_O 	O 	0.13565	0.73109	0.67947	-0.516
Mof_O 	O 	0.11397	0.65799	0.51927	-0.512
Mof_O 	O 	0.98073	0.29123	0.34201	-0.511
Mof_O 	O 	0.89561	0.20679	0.64049	-0.548
Mof_O 	O 	0.67231	0.65769	0.22203	-0.553
Mof_O 	O 	0.97278	0.98106	0.7923	-0.52
Mof_O 	O 	0.29426	0.60844	0.79426	-0.775
Mof_O 	O 	0.15769	0.17231	0.22203	-0.553
Mof_O 	O 	0.82111	0.37711	0.92273	-0.482
Mof_O 	O 	0.34785	0.44161	0.22277	-0.52
Mof_O 	O 	0.31838	0.38016	0.4338	-0.521
Mof_O 	O 	0.35868	0.95696	0.1533	-0.476
Mof_O 	O 	0.687	0.5	0.813	-0.764
Mof_O 	O 	0.89561	0.64049	0.25711	-0.548
Mof_O 	O 	0.34386	0.80042	0.24418	-0.516
Mof_O 	O 	0.313	0.5	0.187	-0.764
Mof_O 	O 	0.17947	0.45379	0.63565	-0.515
Mof_O 	O 	0.58254	0.17734	0.59292	-0.481
Mof_O 	O 	0.76891	0.54621	0.32053	-0.515
Mof_O 	O 	0.75711	0.64049	0.20679	-0.548
Mof_O 	O 	0.36766	0.38016	0.4338	-0.521
Mof_O 	O 	0.32769	0.77797	0.55203	-0.553
Mof_O 	O 	0.0334	0.12134	0.02152	-0.445
Mof_O 	O 	0.54102	0.47424	0.7646	-0.542
Mof_O 	O 	0.32769	0.34231	0.77797	-0.553
Mof_O 	O 	0.64186	0.70238	0.23506	-0.502
Mof_O 	O 	0.6807	0.94982	0.55878	-0.53
Mof_O 	O 	0.97424	0.22014	0.04102	-0.541
Mof_O 	O 	0.01363	0.32879	0.32879	-0.779
Mof_O 	O 	0.97424	0.7646	0.22014	-0.541
Mof_O 	O 	0.12289	0.07727	0.12095	-0.482
Mof_O 	O 	0.11984	0.5662	0.18162	-0.521
Mof_O 	O 	0.313	0.187	-0	-0.764
Mof_O 	O 	0.3107	0.55878	0.1807	-0.53
Mof_O 	O 	0.11397	0.70877	0.65799	-0.512
Mof_O 	O 	0.88603	0.48073	0.34201	-0.512
Mof_O 	O 	0.94122	0.1893	0.8193	-0.53
Mof_O 	O 	0.11397	0.51927	0.65799	-0.512
Mof_O 	O 	0.20877	0.65799	0.61397	-0.512
Mof_O 	O 	0.77144	0.68478	0.17664	-0.527
Mof_O 	O 	0.81522	0.82336	0.63286	-0.527
Mof_O 	O 	0.32374	0.12134	0.5334	-0.445
Mof_O 	O 	0.31838	0.86766	0.4338	-0.521
Mof_O 	O 	0.89156	0.69696	0.20574	-0.775
Mof_O 	O 	0.24289	0.79321	0.60439	-0.548
Mof_O 	O 	0.75711	0.64049	0.39561	-0.548
Mof_O 	O 	0.48777	0.22277	0.84785	-0.52
Mof_O 	O 	0.2646	0.22014	0.47424	-0.542
Mof_O 	O 	0.20877	0.65799	0.51927	-0.512
Mof_O 	O 	0.37866	0.97848	0.4666	-0.444
Mof_O 	O 	0.26313	0.26393	0.80717	-0.493
Mof_O 	O 	0.02722	0.74614	0.01894	-0.522
Mof_O 	O 	0.47848	0.4666	0.17626	-0.445
Mof_O 	O 	0.22856	0.31522	0.82336	-0.527
Mof_O 	O 	0.23109	0.63565	0.67947	-0.515
Mof_O 	O 	0.10844	0.79426	0.79426	-0.775
Mof_O 	O 	0.02576	0.2354	0.95898	-0.543
Mof_O 	O 	0.25582	0.15614	0.38846	-0.516
Mof_O 	O 	0.1472	0.17734	0.08254	-0.482
Mof_O 	O 	0.05203	0.82769	0.34231	-0.554
Mof_O 	O 	0.55018	0.1893	0.8193	-0.53
Mof_O 	O 	0.23109	0.67947	0.45379	-0.515
Mof_O 	O 	0.29321	0.60439	0.35951	-0.548
Mof_O 	O 	0.2923	0.98106	0.47278	-0.52
Mof_O 	O 	0.82053	0.36435	0.26891	-0.515
Mof_O 	O 	0.22856	0.63286	0.82336	-0.527
Mof_O 	O 	0.32336	0.72856	0.31522	-0.527
_end
