data_functionalizedCrystal
_audit_creation_method	'EQeq! by Chris Wilmer'
_symmetry_space_group_name_H-M	'P1'
_symmetry_Int_Tables_number	1
_symmetry_cell_setting	triclinic
loop_
_symmetry_equiv_pos_as_xyz
  x,y,z
_cell_length_a	14.4211
_cell_length_b	12.1181
_cell_length_c	14.0692
_cell_angle_alpha	90
_cell_angle_beta	90
_cell_angle_gamma	90
loop_
_atom_site_label
_atom_site_type_symbol
_atom_site_fract_x
_atom_site_fract_y
_atom_site_fract_z
_atom_site_charge
Mof_S 	S 	0.16309	0.86626	0.18859	0.335
Mof_O 	O 	0.2214	0.879	0.0965	-0.375
Mof_O 	O 	0.2239	0.9044	0.2665	-0.185
Mof_O 	O 	0.0917	0.9573	0.1738	-0.349
Mof_S 	S 	0.16309	0.36626	0.68859	0.331
Mof_O 	O 	0.2214	0.379	0.5965	-0.388
Mof_O 	O 	0.2239	0.4044	0.7665	-0.223
Mof_O 	O 	0.0917	0.4573	0.6738	-0.41
Mof_S 	S 	0.66309	0.86626	0.68859	0.364
Mof_O 	O 	0.7214	0.879	0.5965	-0.349
Mof_O 	O 	0.7239	0.9044	0.7665	-0.154
Mof_O 	O 	0.5917	0.9573	0.6738	-0.306
Mof_S 	S 	0.66309	0.36626	0.18859	0.352
Mof_O 	O 	0.7214	0.379	0.0965	-0.385
Mof_O 	O 	0.7239	0.4044	0.2665	-0.204
Mof_O 	O 	0.5917	0.4573	0.1738	-0.376
Mof_S 	S 	0.83691	0.13374	0.18859	0.393
Mof_O 	O 	0.7786	0.121	0.0965	-0.417
Mof_O 	O 	0.7761	0.0956	0.2665	-0.248
Mof_O 	O 	0.9083	0.0427	0.1738	-0.38
Mof_S 	S 	0.83691	0.63374	0.68859	0.403
Mof_O 	O 	0.7786	0.621	0.5965	-0.382
Mof_O 	O 	0.7761	0.5956	0.7665	-0.2
Mof_O 	O 	0.9083	0.5427	0.6738	-0.326
Mof_S 	S 	0.33691	0.13374	0.68859	0.371
Mof_O 	O 	0.2786	0.121	0.5965	-0.421
Mof_O 	O 	0.2761	0.0956	0.7665	-0.27
Mof_O 	O 	0.4083	0.0427	0.6738	-0.431
Mof_S 	S 	0.33691	0.63374	0.18859	0.376
Mof_O 	O 	0.2786	0.621	0.0965	-0.407
Mof_O 	O 	0.2761	0.5956	0.2665	-0.234
Mof_O 	O 	0.4083	0.5427	0.1738	-0.387
Mof_S 	S 	0.41309	0.38374	0.43859	0.365
Mof_O 	O 	0.4714	0.371	0.3465	-0.397
Mof_O 	O 	0.4739	0.3456	0.5165	-0.226
Mof_O 	O 	0.3417	0.2927	0.4238	-0.396
Mof_S 	S 	0.41309	0.88374	0.93859	0.467
Mof_O 	O 	0.4714	0.871	0.8465	-0.35
Mof_O 	O 	0.4739	0.8456	0.0165	-0.232
Mof_O 	O 	0.3417	0.7927	0.9238	-0.369
Mof_S 	S 	0.91309	0.38374	0.93859	0.443
Mof_O 	O 	0.9714	0.371	0.8465	-0.334
Mof_O 	O 	0.9739	0.3456	0.0165	-0.216
Mof_O 	O 	0.8417	0.2927	0.9238	-0.373
Mof_S 	S 	0.91309	0.88374	0.43859	0.448
Mof_O 	O 	0.9714	0.871	0.3465	-0.288
Mof_O 	O 	0.9739	0.8456	0.5165	-0.149
Mof_O 	O 	0.8417	0.7927	0.4238	-0.363
Mof_S 	S 	0.08691	0.11626	0.43859	0.286
Mof_O 	O 	0.0286	0.129	0.3465	-0.457
Mof_O 	O 	0.0261	0.1544	0.5165	-0.285
Mof_O 	O 	0.1583	0.2073	0.4238	-0.392
Mof_S 	S 	0.08691	0.61626	0.93859	0.385
Mof_O 	O 	0.0286	0.629	0.8465	-0.425
Mof_O 	O 	0.0261	0.6544	0.0165	-0.289
Mof_O 	O 	0.1583	0.7073	0.9238	-0.364
Mof_S 	S 	0.58691	0.11626	0.93859	0.362
Mof_O 	O 	0.5286	0.129	0.8465	-0.41
Mof_O 	O 	0.5261	0.1544	0.0165	-0.276
Mof_O 	O 	0.6583	0.2073	0.9238	-0.369
Mof_S 	S 	0.58691	0.61626	0.43859	0.365
Mof_O 	O 	0.5286	0.629	0.3465	-0.376
Mof_O 	O 	0.5261	0.6544	0.5165	-0.208
Mof_O 	O 	0.6583	0.7073	0.4238	-0.358
Mof_Zn	Zn	0.25	0.75	0.019	1.221
Mof_Zn	Zn	0.25	0.25	0.519	1.225
Mof_Zn	Zn	0.75	0.25	0.019	1.22
Mof_Zn	Zn	0.75	0.75	0.519	1.235
Mof_Zn	Zn	0.5	0.5	0.269	1.23
Mof_Zn	Zn	0.5	0	0.769	1.191
Mof_Zn	Zn	9.83977e-34	0	0.269	1.15
Mof_Zn	Zn	2.81293e-33	0.5	0.769	1.191
_end
