data_functionalizedCrystal
_audit_creation_method	'EQeq! by Chris Wilmer'
_symmetry_space_group_name_H-M	'P1'
_symmetry_Int_Tables_number	1
_symmetry_cell_setting	triclinic
loop_
_symmetry_equiv_pos_as_xyz
  x,y,z
_cell_length_a	26.055
_cell_length_b	26.055
_cell_length_c	35.842
_cell_angle_alpha	90
_cell_angle_beta	90
_cell_angle_gamma	120
loop_
_atom_site_label
_atom_site_type_symbol
_atom_site_fract_x
_atom_site_fract_y
_atom_site_fract_z
_atom_site_charge
Mof_Zn	Zn	0.86085	0.31515	0.94488	1.23
Mof_Zn	Zn	0.74485	0.3331	0.96486	1.209
Mof_Zn	Zn	0.4543	0.13915	0.94488	1.228
Mof_Zn	Zn	0.58825	0.25515	0.96486	1.209
Mof_Zn	Zn	0.68485	0.5457	0.94488	1.229
Mof_Zn	Zn	0.6669	0.41175	0.96486	1.209
Mof_Zn	Zn	0.13915	0.68485	0.44488	1.228
Mof_Zn	Zn	0.25515	0.6669	0.46486	1.209
Mof_Zn	Zn	0.5457	0.86085	0.44488	1.229
Mof_Zn	Zn	0.41175	0.74485	0.46486	1.208
Mof_Zn	Zn	0.31515	0.4543	0.44488	1.228
Mof_Zn	Zn	0.3331	0.58825	0.46486	1.208
Mof_Zn	Zn	0.5457	0.68485	0.55512	1.228
Mof_Zn	Zn	0.41175	0.6669	0.53514	1.208
Mof_Zn	Zn	0.31515	0.86085	0.55512	1.229
Mof_Zn	Zn	0.3331	0.74485	0.53514	1.208
Mof_Zn	Zn	0.13915	0.4543	0.55512	1.227
Mof_Zn	Zn	0.25515	0.58825	0.53514	1.208
Mof_Zn	Zn	0.4543	0.31515	0.05512	1.228
Mof_Zn	Zn	0.58825	0.3331	0.03514	1.208
Mof_Zn	Zn	0.68485	0.13915	0.05512	1.227
Mof_Zn	Zn	0.6669	0.25515	0.03514	1.208
Mof_Zn	Zn	0.86085	0.5457	0.05512	1.229
Mof_Zn	Zn	0.74485	0.41175	0.03514	1.208
Mof_Zn	Zn	0.13915	0.68485	0.05512	1.227
Mof_Zn	Zn	0.25515	0.6669	0.03514	1.208
Mof_Zn	Zn	0.5457	0.86085	0.05512	1.229
Mof_Zn	Zn	0.41175	0.74485	0.03514	1.208
Mof_Zn	Zn	0.31515	0.4543	0.05512	1.228
Mof_Zn	Zn	0.3331	0.58825	0.03514	1.208
Mof_Zn	Zn	0.86085	0.31515	0.55512	1.229
Mof_Zn	Zn	0.74485	0.3331	0.53514	1.208
Mof_Zn	Zn	0.4543	0.13915	0.55512	1.227
Mof_Zn	Zn	0.58825	0.25515	0.53514	1.208
Mof_Zn	Zn	0.68485	0.5457	0.55512	1.228
Mof_Zn	Zn	0.6669	0.41175	0.53514	1.208
Mof_Zn	Zn	0.4543	0.31515	0.44488	1.228
Mof_Zn	Zn	0.58825	0.3331	0.46486	1.208
Mof_Zn	Zn	0.68485	0.13915	0.44488	1.227
Mof_Zn	Zn	0.6669	0.25515	0.46486	1.208
Mof_Zn	Zn	0.86085	0.5457	0.44488	1.229
Mof_Zn	Zn	0.74485	0.41175	0.46486	1.208
Mof_Zn	Zn	0.5457	0.68485	0.94488	1.228
Mof_Zn	Zn	0.41175	0.6669	0.96486	1.208
Mof_Zn	Zn	0.31515	0.86085	0.94488	1.229
Mof_Zn	Zn	0.3331	0.74485	0.96486	1.208
Mof_Zn	Zn	0.13915	0.4543	0.94488	1.227
Mof_Zn	Zn	0.25515	0.58825	0.96486	1.208
Mof_Zn	Zn	1.47424e-17	0.3399	0.9373	1.194
Mof_Zn	Zn	0.3399	0	0.9373	1.194
Mof_Zn	Zn	0.6601	0.6601	0.9373	1.206
Mof_Zn	Zn	5.5814e-17	0.6601	0.4373	1.195
Mof_Zn	Zn	0.6601	-9.58375e-33	0.4373	1.195
Mof_Zn	Zn	0.3399	0.3399	0.4373	1.205
Mof_Zn	Zn	0.6601	0.6601	0.5627	1.206
Mof_Zn	Zn	0.3399	-1.91675e-32	0.5627	1.194
Mof_Zn	Zn	-8.47304e-18	0.3399	0.5627	1.194
Mof_Zn	Zn	0.3399	0.3399	0.0627	1.205
Mof_Zn	Zn	0.6601	0	0.0627	1.195
Mof_Zn	Zn	-1.05628e-17	0.6601	0.0627	1.195
Mof_H 	H 	0.7746	0.1254	0.957	0.041
Mof_H 	H 	0.9435	0.1614	0.9456	0.047
Mof_H 	H 	0.9118	0.0594	0.9484	0.051
Mof_H 	H 	0.8387	0.3102	0.8308	0.046
Mof_H 	H 	0.7415	0.4142	0.7896	0.073
Mof_H 	H 	0.7462	0.3944	0.8533	0.032
Mof_H 	H 	0.8292	0.2964	0.0223	-0.028
Mof_H 	H 	0.8659	0.3652	0.0221	-0.018
Mof_H 	H 	0.8146	0.3689	0.0598	0.035
Mof_H 	H 	0.7792	0.2995	0.0611	0.016
Mof_H 	H 	0.9557	0.4287	0.9843	-0.02
Mof_H 	H 	0.9557	0.4459	0.9425	-0.029
Mof_H 	H 	0.3508	0.2254	0.957	0.034
Mof_H 	H 	0.2179	0.0565	0.9456	0.021
Mof_H 	H 	0.1476	0.0882	0.9484	0.055
Mof_H 	H 	0.4715	0.1613	0.8308	0.04
Mof_H 	H 	0.6727	0.2585	0.7896	0.071
Mof_H 	H 	0.6482	0.2538	0.8533	0.03
Mof_H 	H 	0.4672	0.1708	0.0223	-0.034
Mof_H 	H 	0.4993	0.1341	0.0221	-0.027
Mof_H 	H 	0.5543	0.1854	0.0598	0.032
Mof_H 	H 	0.5203	0.2208	0.0611	0.015
Mof_H 	H 	0.473	0.0443	0.9843	0.021
Mof_H 	H 	0.4902	0.0443	0.9425	0.012
Mof_H 	H 	0.8746	0.6492	0.957	0.042
Mof_H 	H 	0.8386	0.7821	0.9456	0.03
Mof_H 	H 	0.9406	0.8524	0.9484	0.083
Mof_H 	H 	0.6898	0.5285	0.8308	0.045
Mof_H 	H 	0.5858	0.3273	0.7896	0.072
Mof_H 	H 	0.6056	0.3518	0.8533	0.031
Mof_H 	H 	0.7036	0.5328	0.0223	-0.032
Mof_H 	H 	0.6348	0.5007	0.0221	-0.023
Mof_H 	H 	0.6311	0.4457	0.0598	0.034
Mof_H 	H 	0.7005	0.4797	0.0611	0.016
Mof_H 	H 	0.5713	0.527	0.9843	0
Mof_H 	H 	0.5541	0.5098	0.9425	-0.009
Mof_H 	H 	0.2254	0.8746	0.457	0.041
Mof_H 	H 	0.0565	0.8386	0.4456	0.02
Mof_H 	H 	0.0882	0.9406	0.4484	0.074
Mof_H 	H 	0.1613	0.6898	0.3308	0.042
Mof_H 	H 	0.2585	0.5858	0.2896	0.071
Mof_H 	H 	0.2538	0.6056	0.3533	0.03
Mof_H 	H 	0.1708	0.7036	0.5223	-0.034
Mof_H 	H 	0.1341	0.6348	0.5221	-0.027
Mof_H 	H 	0.1854	0.6311	0.5598	0.032
Mof_H 	H 	0.2208	0.7005	0.5611	0.015
Mof_H 	H 	0.0443	0.5713	0.4843	0.021
Mof_H 	H 	0.0443	0.5541	0.4425	0.012
Mof_H 	H 	0.6492	0.7746	0.457	0.035
Mof_H 	H 	0.7821	0.9435	0.4456	0.042
Mof_H 	H 	0.8524	0.9118	0.4484	0.073
Mof_H 	H 	0.5285	0.8387	0.3308	0.047
Mof_H 	H 	0.3273	0.7415	0.2896	0.072
Mof_H 	H 	0.3518	0.7462	0.3533	0.032
Mof_H 	H 	0.5328	0.8292	0.5223	-0.028
Mof_H 	H 	0.5007	0.8659	0.5221	-0.017
Mof_H 	H 	0.4457	0.8146	0.5598	0.035
Mof_H 	H 	0.4797	0.7792	0.5611	0.016
Mof_H 	H 	0.527	0.9557	0.4843	-0.02
Mof_H 	H 	0.5098	0.9557	0.4425	-0.029
Mof_H 	H 	0.1254	0.3508	0.457	0.04
Mof_H 	H 	0.1614	0.2179	0.4456	0.036
Mof_H 	H 	0.0594	0.1476	0.4484	0.042
Mof_H 	H 	0.3102	0.4715	0.3308	0.042
Mof_H 	H 	0.4142	0.6727	0.2896	0.072
Mof_H 	H 	0.3944	0.6482	0.3533	0.031
Mof_H 	H 	0.2964	0.4672	0.5223	-0.032
Mof_H 	H 	0.3652	0.4993	0.5221	-0.023
Mof_H 	H 	0.3689	0.5543	0.5598	0.033
Mof_H 	H 	0.2995	0.5203	0.5611	0.015
Mof_H 	H 	0.4287	0.473	0.4843	0
Mof_H 	H 	0.4459	0.4902	0.4425	-0.009
Mof_H 	H 	0.6492	0.8746	0.543	0.042
Mof_H 	H 	0.7821	0.8386	0.5544	0.03
Mof_H 	H 	0.8524	0.9406	0.5516	0.083
Mof_H 	H 	0.5285	0.6898	0.6692	0.045
Mof_H 	H 	0.3273	0.5858	0.7104	0.072
Mof_H 	H 	0.3518	0.6056	0.6467	0.031
Mof_H 	H 	0.5328	0.7036	0.4777	-0.031
Mof_H 	H 	0.5007	0.6348	0.4779	-0.023
Mof_H 	H 	0.4457	0.6311	0.4402	0.034
Mof_H 	H 	0.4797	0.7005	0.4389	0.016
Mof_H 	H 	0.527	0.5713	0.5157	0
Mof_H 	H 	0.5098	0.5541	0.5575	-0.009
Mof_H 	H 	0.1254	0.7746	0.543	0.041
Mof_H 	H 	0.1614	0.9435	0.5544	0.047
Mof_H 	H 	0.0594	0.9118	0.5516	0.051
Mof_H 	H 	0.3102	0.8387	0.6692	0.046
Mof_H 	H 	0.4142	0.7415	0.7104	0.073
Mof_H 	H 	0.3944	0.7462	0.6467	0.032
Mof_H 	H 	0.2964	0.8292	0.4777	-0.028
Mof_H 	H 	0.3652	0.8659	0.4779	-0.017
Mof_H 	H 	0.3689	0.8146	0.4402	0.035
Mof_H 	H 	0.2995	0.7792	0.4389	0.016
Mof_H 	H 	0.4287	0.9557	0.5157	-0.02
Mof_H 	H 	0.4459	0.9557	0.5575	-0.029
Mof_H 	H 	0.2254	0.3508	0.543	0.034
Mof_H 	H 	0.0565	0.2179	0.5544	0.021
Mof_H 	H 	0.0882	0.1476	0.5516	0.055
Mof_H 	H 	0.1613	0.4715	0.6692	0.04
Mof_H 	H 	0.2585	0.6727	0.7104	0.071
Mof_H 	H 	0.2538	0.6482	0.6467	0.03
Mof_H 	H 	0.1708	0.4672	0.4777	-0.034
Mof_H 	H 	0.1341	0.4993	0.4779	-0.027
Mof_H 	H 	0.1854	0.5543	0.4402	0.032
Mof_H 	H 	0.2208	0.5203	0.4389	0.015
Mof_H 	H 	0.0443	0.473	0.5157	0.021
Mof_H 	H 	0.0443	0.4902	0.5575	0.012
Mof_H 	H 	0.3508	0.1254	0.043	0.04
Mof_H 	H 	0.2179	0.1614	0.0544	0.036
Mof_H 	H 	0.1476	0.0594	0.0516	0.042
Mof_H 	H 	0.4715	0.3102	0.1692	0.042
Mof_H 	H 	0.6727	0.4142	0.2104	0.072
Mof_H 	H 	0.6482	0.3944	0.1467	0.031
Mof_H 	H 	0.4672	0.2964	0.9777	-0.032
Mof_H 	H 	0.4993	0.3652	0.9779	-0.023
Mof_H 	H 	0.5543	0.3689	0.9402	0.033
Mof_H 	H 	0.5203	0.2995	0.9389	0.015
Mof_H 	H 	0.473	0.4287	0.0157	0
Mof_H 	H 	0.4902	0.4459	0.0575	-0.009
Mof_H 	H 	0.8746	0.2254	0.043	0.041
Mof_H 	H 	0.8386	0.0565	0.0544	0.02
Mof_H 	H 	0.9406	0.0882	0.0516	0.074
Mof_H 	H 	0.6898	0.1613	0.1692	0.042
Mof_H 	H 	0.5858	0.2585	0.2104	0.071
Mof_H 	H 	0.6056	0.2538	0.1467	0.03
Mof_H 	H 	0.7036	0.1708	0.9777	-0.034
Mof_H 	H 	0.6348	0.1341	0.9779	-0.027
Mof_H 	H 	0.6311	0.1854	0.9402	0.032
Mof_H 	H 	0.7005	0.2208	0.9389	0.015
Mof_H 	H 	0.5713	0.0443	0.0157	0.021
Mof_H 	H 	0.5541	0.0443	0.0575	0.012
Mof_H 	H 	0.7746	0.6492	0.043	0.035
Mof_H 	H 	0.9435	0.7821	0.0544	0.042
Mof_H 	H 	0.9118	0.8524	0.0516	0.073
Mof_H 	H 	0.8387	0.5285	0.1692	0.047
Mof_H 	H 	0.7415	0.3273	0.2104	0.072
Mof_H 	H 	0.7462	0.3518	0.1467	0.032
Mof_H 	H 	0.8292	0.5328	0.9777	-0.028
Mof_H 	H 	0.8659	0.5007	0.9779	-0.017
Mof_H 	H 	0.8146	0.4457	0.9402	0.035
Mof_H 	H 	0.7792	0.4797	0.9389	0.016
Mof_H 	H 	0.9557	0.527	0.0157	-0.02
Mof_H 	H 	0.9557	0.5098	0.0575	-0.029
Mof_H 	H 	0.2254	0.8746	0.043	0.041
Mof_H 	H 	0.0565	0.8386	0.0544	0.02
Mof_H 	H 	0.0882	0.9406	0.0516	0.074
Mof_H 	H 	0.1613	0.6898	0.1692	0.042
Mof_H 	H 	0.2585	0.5858	0.2104	0.071
Mof_H 	H 	0.2538	0.6056	0.1467	0.03
Mof_H 	H 	0.1708	0.7036	0.9777	-0.034
Mof_H 	H 	0.1341	0.6348	0.9779	-0.027
Mof_H 	H 	0.1854	0.6311	0.9402	0.032
Mof_H 	H 	0.2208	0.7005	0.9389	0.015
Mof_H 	H 	0.0443	0.5713	0.0157	0.021
Mof_H 	H 	0.0443	0.5541	0.0575	0.012
Mof_H 	H 	0.6492	0.7746	0.043	0.035
Mof_H 	H 	0.7821	0.9435	0.0544	0.042
Mof_H 	H 	0.8524	0.9118	0.0516	0.073
Mof_H 	H 	0.5285	0.8387	0.1692	0.047
Mof_H 	H 	0.3273	0.7415	0.2104	0.072
Mof_H 	H 	0.3518	0.7462	0.1467	0.032
Mof_H 	H 	0.5328	0.8292	0.9777	-0.028
Mof_H 	H 	0.5007	0.8659	0.9779	-0.017
Mof_H 	H 	0.4457	0.8146	0.9402	0.035
Mof_H 	H 	0.4797	0.7792	0.9389	0.016
Mof_H 	H 	0.527	0.9557	0.0157	-0.02
Mof_H 	H 	0.5098	0.9557	0.0575	-0.029
Mof_H 	H 	0.1254	0.3508	0.043	0.04
Mof_H 	H 	0.1614	0.2179	0.0544	0.036
Mof_H 	H 	0.0594	0.1476	0.0516	0.042
Mof_H 	H 	0.3102	0.4715	0.1692	0.042
Mof_H 	H 	0.4142	0.6727	0.2104	0.072
Mof_H 	H 	0.3944	0.6482	0.1467	0.031
Mof_H 	H 	0.2964	0.4672	0.9777	-0.032
Mof_H 	H 	0.3652	0.4993	0.9779	-0.023
Mof_H 	H 	0.3689	0.5543	0.9402	0.033
Mof_H 	H 	0.2995	0.5203	0.9389	0.015
Mof_H 	H 	0.4287	0.473	0.0157	0
Mof_H 	H 	0.4459	0.4902	0.0575	-0.009
Mof_H 	H 	0.7746	0.1254	0.543	0.041
Mof_H 	H 	0.9435	0.1614	0.5544	0.047
Mof_H 	H 	0.9118	0.0594	0.5516	0.051
Mof_H 	H 	0.8387	0.3102	0.6692	0.046
Mof_H 	H 	0.7415	0.4142	0.7104	0.073
Mof_H 	H 	0.7462	0.3944	0.6467	0.032
Mof_H 	H 	0.8292	0.2964	0.4777	-0.028
Mof_H 	H 	0.8659	0.3652	0.4779	-0.017
Mof_H 	H 	0.8146	0.3689	0.4402	0.035
Mof_H 	H 	0.7792	0.2995	0.4389	0.016
Mof_H 	H 	0.9557	0.4287	0.5157	-0.02
Mof_H 	H 	0.9557	0.4459	0.5575	-0.029
Mof_H 	H 	0.3508	0.2254	0.543	0.034
Mof_H 	H 	0.2179	0.0565	0.5544	0.021
Mof_H 	H 	0.1476	0.0882	0.5516	0.055
Mof_H 	H 	0.4715	0.1613	0.6692	0.04
Mof_H 	H 	0.6727	0.2585	0.7104	0.071
Mof_H 	H 	0.6482	0.2538	0.6467	0.03
Mof_H 	H 	0.4672	0.1708	0.4777	-0.034
Mof_H 	H 	0.4993	0.1341	0.4779	-0.027
Mof_H 	H 	0.5543	0.1854	0.4402	0.032
Mof_H 	H 	0.5203	0.2208	0.4389	0.015
Mof_H 	H 	0.473	0.0443	0.5157	0.021
Mof_H 	H 	0.4902	0.0443	0.5575	0.012
Mof_H 	H 	0.8746	0.6492	0.543	0.042
Mof_H 	H 	0.8386	0.7821	0.5544	0.03
Mof_H 	H 	0.9406	0.8524	0.5516	0.083
Mof_H 	H 	0.6898	0.5285	0.6692	0.045
Mof_H 	H 	0.5858	0.3273	0.7104	0.072
Mof_H 	H 	0.6056	0.3518	0.6467	0.031
Mof_H 	H 	0.7036	0.5328	0.4777	-0.031
Mof_H 	H 	0.6348	0.5007	0.4779	-0.023
Mof_H 	H 	0.6311	0.4457	0.4402	0.034
Mof_H 	H 	0.7005	0.4797	0.4389	0.016
Mof_H 	H 	0.5713	0.527	0.5157	0
Mof_H 	H 	0.5541	0.5098	0.5575	-0.009
Mof_H 	H 	0.3508	0.1254	0.457	0.04
Mof_H 	H 	0.2179	0.1614	0.4456	0.036
Mof_H 	H 	0.1476	0.0594	0.4484	0.042
Mof_H 	H 	0.4715	0.3102	0.3308	0.042
Mof_H 	H 	0.6727	0.4142	0.2896	0.072
Mof_H 	H 	0.6482	0.3944	0.3533	0.031
Mof_H 	H 	0.4672	0.2964	0.5223	-0.032
Mof_H 	H 	0.4993	0.3652	0.5221	-0.023
Mof_H 	H 	0.5543	0.3689	0.5598	0.033
Mof_H 	H 	0.5203	0.2995	0.5611	0.015
Mof_H 	H 	0.473	0.4287	0.4843	0
Mof_H 	H 	0.4902	0.4459	0.4425	-0.009
Mof_H 	H 	0.8746	0.2254	0.457	0.041
Mof_H 	H 	0.8386	0.0565	0.4456	0.02
Mof_H 	H 	0.9406	0.0882	0.4484	0.074
Mof_H 	H 	0.6898	0.1613	0.3308	0.042
Mof_H 	H 	0.5858	0.2585	0.2896	0.071
Mof_H 	H 	0.6056	0.2538	0.3533	0.03
Mof_H 	H 	0.7036	0.1708	0.5223	-0.034
Mof_H 	H 	0.6348	0.1341	0.5221	-0.027
Mof_H 	H 	0.6311	0.1854	0.5598	0.032
Mof_H 	H 	0.7005	0.2208	0.5611	0.015
Mof_H 	H 	0.5713	0.0443	0.4843	0.021
Mof_H 	H 	0.5541	0.0443	0.4425	0.012
Mof_H 	H 	0.7746	0.6492	0.457	0.035
Mof_H 	H 	0.9435	0.7821	0.4456	0.042
Mof_H 	H 	0.9118	0.8524	0.4484	0.073
Mof_H 	H 	0.8387	0.5285	0.3308	0.047
Mof_H 	H 	0.7415	0.3273	0.2896	0.072
Mof_H 	H 	0.7462	0.3518	0.3533	0.032
Mof_H 	H 	0.8292	0.5328	0.5223	-0.028
Mof_H 	H 	0.8659	0.5007	0.5221	-0.017
Mof_H 	H 	0.8146	0.4457	0.5598	0.035
Mof_H 	H 	0.7792	0.4797	0.5611	0.016
Mof_H 	H 	0.9557	0.527	0.4843	-0.02
Mof_H 	H 	0.9557	0.5098	0.4425	-0.029
Mof_H 	H 	0.6492	0.8746	0.957	0.042
Mof_H 	H 	0.7821	0.8386	0.9456	0.03
Mof_H 	H 	0.8524	0.9406	0.9484	0.083
Mof_H 	H 	0.5285	0.6898	0.8308	0.045
Mof_H 	H 	0.3273	0.5858	0.7896	0.072
Mof_H 	H 	0.3518	0.6056	0.8533	0.031
Mof_H 	H 	0.5328	0.7036	0.0223	-0.032
Mof_H 	H 	0.5007	0.6348	0.0221	-0.023
Mof_H 	H 	0.4457	0.6311	0.0598	0.034
Mof_H 	H 	0.4797	0.7005	0.0611	0.016
Mof_H 	H 	0.527	0.5713	0.9843	0
Mof_H 	H 	0.5098	0.5541	0.9425	-0.009
Mof_H 	H 	0.1254	0.7746	0.957	0.041
Mof_H 	H 	0.1614	0.9435	0.9456	0.047
Mof_H 	H 	0.0594	0.9118	0.9484	0.051
Mof_H 	H 	0.3102	0.8387	0.8308	0.046
Mof_H 	H 	0.4142	0.7415	0.7896	0.073
Mof_H 	H 	0.3944	0.7462	0.8533	0.032
Mof_H 	H 	0.2964	0.8292	0.0223	-0.028
Mof_H 	H 	0.3652	0.8659	0.0221	-0.018
Mof_H 	H 	0.3689	0.8146	0.0598	0.035
Mof_H 	H 	0.2995	0.7792	0.0611	0.016
Mof_H 	H 	0.4287	0.9557	0.9843	-0.02
Mof_H 	H 	0.4459	0.9557	0.9425	-0.029
Mof_H 	H 	0.2254	0.3508	0.957	0.034
Mof_H 	H 	0.0565	0.2179	0.9456	0.021
Mof_H 	H 	0.0882	0.1476	0.9484	0.055
Mof_H 	H 	0.1613	0.4715	0.8308	0.04
Mof_H 	H 	0.2585	0.6727	0.7896	0.071
Mof_H 	H 	0.2538	0.6482	0.8533	0.03
Mof_H 	H 	0.1708	0.4672	0.0223	-0.034
Mof_H 	H 	0.1341	0.4993	0.0221	-0.027
Mof_H 	H 	0.1854	0.5543	0.0598	0.032
Mof_H 	H 	0.2208	0.5203	0.0611	0.015
Mof_H 	H 	0.0443	0.473	0.9843	0.021
Mof_H 	H 	0.0443	0.4902	0.9425	0.012
Mof_C 	C 	0.8842	0.2185	0.94865	0.395
Mof_C 	C 	0.8624	0.1534	0.95145	-0.103
Mof_C 	C 	0.802	0.1126	0.95523	0.014
Mof_C 	C 	0.9034	0.1338	0.9484	0.014
Mof_C 	C 	0.7837	0.0525	0.9562	-0.045
Mof_C 	C 	0.8847	0.0727	0.9497	-0.071
Mof_C 	C 	0.8247	0.0336	0.953	-0.013
Mof_C 	C 	0.7966	0.3407	0.8857	0.369
Mof_C 	C 	0.792	0.352	0.8459	-0.115
Mof_C 	C 	0.819	0.3296	0.8226	0.009
Mof_C 	C 	0.8123	0.3403	0.7848	-0.038
Mof_C 	C 	0.7852	0.3703	0.7709	0.023
Mof_C 	C 	0.7596	0.3931	0.7974	-0.095
Mof_C 	C 	0.7632	0.3817	0.8354	0.033
Mof_C 	C 	0.8266	0.3318	0.01766	0.128
Mof_C 	C 	0.7915	0.3335	0.04495	-0.066
Mof_C 	C 	0.9693	0.4263	0.9595	0.161
Mof_C 	C 	0.3343	0.1158	0.94865	0.405
Mof_C 	C 	0.291	0.1376	0.95145	-0.125
Mof_C 	C 	0.3106	0.198	0.95523	0.036
Mof_C 	C 	0.2304	0.0966	0.9484	0.037
Mof_C 	C 	0.2688	0.2163	0.9562	-0.07
Mof_C 	C 	0.188	0.1153	0.9497	-0.106
Mof_C 	C 	0.2089	0.1753	0.953	0.035
Mof_C 	C 	0.5441	0.2034	0.8857	0.369
Mof_C 	C 	0.56	0.208	0.8459	-0.119
Mof_C 	C 	0.5106	0.181	0.8226	0.008
Mof_C 	C 	0.528	0.1877	0.7848	-0.043
Mof_C 	C 	0.5851	0.2148	0.7709	0.022
Mof_C 	C 	0.6335	0.2404	0.7974	-0.098
Mof_C 	C 	0.6185	0.2368	0.8354	0.033
Mof_C 	C 	0.5052	0.1734	0.01766	0.137
Mof_C 	C 	0.542	0.2085	0.04495	-0.07
Mof_C 	C 	0.457	0.0307	0.9595	-0.033
Mof_C 	C 	0.7815	0.6657	0.94865	0.404
Mof_C 	C 	0.8466	0.709	0.95145	-0.12
Mof_C 	C 	0.8874	0.6894	0.95523	0.028
Mof_C 	C 	0.8662	0.7696	0.9484	0.048
Mof_C 	C 	0.9475	0.7312	0.9562	-0.042
Mof_C 	C 	0.9273	0.812	0.9497	-0.12
Mof_C 	C 	0.9664	0.7911	0.953	0.077
Mof_C 	C 	0.6593	0.4559	0.8857	0.369
Mof_C 	C 	0.648	0.44	0.8459	-0.116
Mof_C 	C 	0.6704	0.4894	0.8226	0.008
Mof_C 	C 	0.6597	0.472	0.7848	-0.039
Mof_C 	C 	0.6297	0.4149	0.7709	0.022
Mof_C 	C 	0.6069	0.3665	0.7974	-0.097
Mof_C 	C 	0.6183	0.3815	0.8354	0.032
Mof_C 	C 	0.6682	0.4948	0.01766	0.134
Mof_C 	C 	0.6665	0.458	0.04495	-0.069
Mof_C 	C 	0.5737	0.543	0.9595	0.064
Mof_C 	C 	0.1158	0.7815	0.44865	0.405
Mof_C 	C 	0.1376	0.8466	0.45145	-0.123
Mof_C 	C 	0.198	0.8874	0.45523	0.028
Mof_C 	C 	0.0966	0.8662	0.4484	0.048
Mof_C 	C 	0.2163	0.9475	0.4562	-0.043
Mof_C 	C 	0.1153	0.9273	0.4497	-0.123
Mof_C 	C 	0.1753	0.9664	0.453	0.075
Mof_C 	C 	0.2034	0.6593	0.3857	0.369
Mof_C 	C 	0.208	0.648	0.3459	-0.118
Mof_C 	C 	0.181	0.6704	0.3226	0.008
Mof_C 	C 	0.1877	0.6597	0.2848	-0.042
Mof_C 	C 	0.2148	0.6297	0.2709	0.021
Mof_C 	C 	0.2404	0.6069	0.2974	-0.098
Mof_C 	C 	0.2368	0.6183	0.3354	0.032
Mof_C 	C 	0.1734	0.6682	0.51766	0.137
Mof_C 	C 	0.2085	0.6665	0.54495	-0.07
Mof_C 	C 	0.0307	0.5737	0.4595	-0.033
Mof_C 	C 	0.6657	0.8842	0.44865	0.4
Mof_C 	C 	0.709	0.8624	0.45145	-0.116
Mof_C 	C 	0.6894	0.802	0.45523	0.035
Mof_C 	C 	0.7696	0.9034	0.4484	0.037
Mof_C 	C 	0.7312	0.7837	0.4562	-0.068
Mof_C 	C 	0.812	0.8847	0.4497	-0.1
Mof_C 	C 	0.7911	0.8247	0.453	0.039
Mof_C 	C 	0.4559	0.7966	0.3857	0.369
Mof_C 	C 	0.44	0.792	0.3459	-0.114
Mof_C 	C 	0.4894	0.819	0.3226	0.008
Mof_C 	C 	0.472	0.8123	0.2848	-0.037
Mof_C 	C 	0.4149	0.7852	0.2709	0.023
Mof_C 	C 	0.3665	0.7596	0.2974	-0.095
Mof_C 	C 	0.3815	0.7632	0.3354	0.032
Mof_C 	C 	0.4948	0.8266	0.51766	0.128
Mof_C 	C 	0.458	0.7915	0.54495	-0.066
Mof_C 	C 	0.543	0.9693	0.4595	0.161
Mof_C 	C 	0.2185	0.3343	0.44865	0.398
Mof_C 	C 	0.1534	0.291	0.45145	-0.108
Mof_C 	C 	0.1126	0.3106	0.45523	0.016
Mof_C 	C 	0.1338	0.2304	0.4484	0.015
Mof_C 	C 	0.0525	0.2688	0.4562	-0.046
Mof_C 	C 	0.0727	0.188	0.4497	-0.075
Mof_C 	C 	0.0336	0.2089	0.453	-0.015
Mof_C 	C 	0.3407	0.5441	0.3857	0.369
Mof_C 	C 	0.352	0.56	0.3459	-0.117
Mof_C 	C 	0.3296	0.5106	0.3226	0.009
Mof_C 	C 	0.3403	0.528	0.2848	-0.042
Mof_C 	C 	0.3703	0.5851	0.2709	0.023
Mof_C 	C 	0.3931	0.6335	0.2974	-0.097
Mof_C 	C 	0.3817	0.6185	0.3354	0.033
Mof_C 	C 	0.3318	0.5052	0.51766	0.133
Mof_C 	C 	0.3335	0.542	0.54495	-0.068
Mof_C 	C 	0.4263	0.457	0.4595	0.064
Mof_C 	C 	0.6657	0.7815	0.55135	0.404
Mof_C 	C 	0.709	0.8466	0.54855	-0.12
Mof_C 	C 	0.6894	0.8874	0.54477	0.028
Mof_C 	C 	0.7696	0.8662	0.5516	0.048
Mof_C 	C 	0.7312	0.9475	0.5438	-0.042
Mof_C 	C 	0.812	0.9273	0.5503	-0.12
Mof_C 	C 	0.7911	0.9664	0.547	0.077
Mof_C 	C 	0.4559	0.6593	0.6143	0.369
Mof_C 	C 	0.44	0.648	0.6541	-0.116
Mof_C 	C 	0.4894	0.6704	0.6774	0.008
Mof_C 	C 	0.472	0.6597	0.7152	-0.039
Mof_C 	C 	0.4149	0.6297	0.7291	0.022
Mof_C 	C 	0.3665	0.6069	0.7026	-0.097
Mof_C 	C 	0.3815	0.6183	0.6646	0.032
Mof_C 	C 	0.4948	0.6682	0.48234	0.133
Mof_C 	C 	0.458	0.6665	0.45505	-0.069
Mof_C 	C 	0.543	0.5737	0.5405	0.064
Mof_C 	C 	0.2185	0.8842	0.55135	0.395
Mof_C 	C 	0.1534	0.8624	0.54855	-0.103
Mof_C 	C 	0.1126	0.802	0.54477	0.014
Mof_C 	C 	0.1338	0.9034	0.5516	0.014
Mof_C 	C 	0.0525	0.7837	0.5438	-0.045
Mof_C 	C 	0.0727	0.8847	0.5503	-0.071
Mof_C 	C 	0.0336	0.8247	0.547	-0.014
Mof_C 	C 	0.3407	0.7966	0.6143	0.369
Mof_C 	C 	0.352	0.792	0.6541	-0.115
Mof_C 	C 	0.3296	0.819	0.6774	0.009
Mof_C 	C 	0.3403	0.8123	0.7152	-0.038
Mof_C 	C 	0.3703	0.7852	0.7291	0.023
Mof_C 	C 	0.3931	0.7596	0.7026	-0.095
Mof_C 	C 	0.3817	0.7632	0.6646	0.033
Mof_C 	C 	0.3318	0.8266	0.48234	0.128
Mof_C 	C 	0.3335	0.7915	0.45505	-0.066
Mof_C 	C 	0.4263	0.9693	0.5405	0.161
Mof_C 	C 	0.1158	0.3343	0.55135	0.405
Mof_C 	C 	0.1376	0.291	0.54855	-0.125
Mof_C 	C 	0.198	0.3106	0.54477	0.036
Mof_C 	C 	0.0966	0.2304	0.5516	0.037
Mof_C 	C 	0.2163	0.2688	0.5438	-0.07
Mof_C 	C 	0.1153	0.188	0.5503	-0.106
Mof_C 	C 	0.1753	0.2089	0.547	0.035
Mof_C 	C 	0.2034	0.5441	0.6143	0.369
Mof_C 	C 	0.208	0.56	0.6541	-0.119
Mof_C 	C 	0.181	0.5106	0.6774	0.008
Mof_C 	C 	0.1877	0.528	0.7152	-0.043
Mof_C 	C 	0.2148	0.5851	0.7291	0.022
Mof_C 	C 	0.2404	0.6335	0.7026	-0.098
Mof_C 	C 	0.2368	0.6185	0.6646	0.033
Mof_C 	C 	0.1734	0.5052	0.48234	0.137
Mof_C 	C 	0.2085	0.542	0.45505	-0.07
Mof_C 	C 	0.0307	0.457	0.5405	-0.033
Mof_C 	C 	0.3343	0.2185	0.05135	0.398
Mof_C 	C 	0.291	0.1534	0.04855	-0.108
Mof_C 	C 	0.3106	0.1126	0.04477	0.016
Mof_C 	C 	0.2304	0.1338	0.0516	0.015
Mof_C 	C 	0.2688	0.0525	0.0438	-0.047
Mof_C 	C 	0.188	0.0727	0.0503	-0.075
Mof_C 	C 	0.2089	0.0336	0.047	-0.015
Mof_C 	C 	0.5441	0.3407	0.1143	0.369
Mof_C 	C 	0.56	0.352	0.1541	-0.117
Mof_C 	C 	0.5106	0.3296	0.1774	0.009
Mof_C 	C 	0.528	0.3403	0.2152	-0.042
Mof_C 	C 	0.5851	0.3703	0.2291	0.023
Mof_C 	C 	0.6335	0.3931	0.2026	-0.097
Mof_C 	C 	0.6185	0.3817	0.1646	0.033
Mof_C 	C 	0.5052	0.3318	0.98234	0.133
Mof_C 	C 	0.542	0.3335	0.95505	-0.068
Mof_C 	C 	0.457	0.4263	0.0405	0.064
Mof_C 	C 	0.7815	0.1158	0.05135	0.405
Mof_C 	C 	0.8466	0.1376	0.04855	-0.123
Mof_C 	C 	0.8874	0.198	0.04477	0.028
Mof_C 	C 	0.8662	0.0966	0.0516	0.048
Mof_C 	C 	0.9475	0.2163	0.0438	-0.043
Mof_C 	C 	0.9273	0.1153	0.0503	-0.123
Mof_C 	C 	0.9664	0.1753	0.047	0.075
Mof_C 	C 	0.6593	0.2034	0.1143	0.369
Mof_C 	C 	0.648	0.208	0.1541	-0.118
Mof_C 	C 	0.6704	0.181	0.1774	0.008
Mof_C 	C 	0.6597	0.1877	0.2152	-0.042
Mof_C 	C 	0.6297	0.2148	0.2291	0.021
Mof_C 	C 	0.6069	0.2404	0.2026	-0.098
Mof_C 	C 	0.6183	0.2368	0.1646	0.032
Mof_C 	C 	0.6682	0.1734	0.98234	0.137
Mof_C 	C 	0.6665	0.2085	0.95505	-0.07
Mof_C 	C 	0.5737	0.0307	0.0405	-0.033
Mof_C 	C 	0.8842	0.6657	0.05135	0.4
Mof_C 	C 	0.8624	0.709	0.04855	-0.116
Mof_C 	C 	0.802	0.6894	0.04477	0.035
Mof_C 	C 	0.9034	0.7696	0.0516	0.037
Mof_C 	C 	0.7837	0.7312	0.0438	-0.068
Mof_C 	C 	0.8847	0.812	0.0503	-0.1
Mof_C 	C 	0.8247	0.7911	0.047	0.039
Mof_C 	C 	0.7966	0.4559	0.1143	0.369
Mof_C 	C 	0.792	0.44	0.1541	-0.114
Mof_C 	C 	0.819	0.4894	0.1774	0.008
Mof_C 	C 	0.8123	0.472	0.2152	-0.037
Mof_C 	C 	0.7852	0.4149	0.2291	0.023
Mof_C 	C 	0.7596	0.3665	0.2026	-0.095
Mof_C 	C 	0.7632	0.3815	0.1646	0.032
Mof_C 	C 	0.8266	0.4948	0.98234	0.128
Mof_C 	C 	0.7915	0.458	0.95505	-0.066
Mof_C 	C 	0.9693	0.543	0.0405	0.16
Mof_C 	C 	0.1158	0.7815	0.05135	0.405
Mof_C 	C 	0.1376	0.8466	0.04855	-0.123
Mof_C 	C 	0.198	0.8874	0.04477	0.028
Mof_C 	C 	0.0966	0.8662	0.0516	0.048
Mof_C 	C 	0.2163	0.9475	0.0438	-0.043
Mof_C 	C 	0.1153	0.9273	0.0503	-0.123
Mof_C 	C 	0.1753	0.9664	0.047	0.075
Mof_C 	C 	0.2034	0.6593	0.1143	0.369
Mof_C 	C 	0.208	0.648	0.1541	-0.118
Mof_C 	C 	0.181	0.6704	0.1774	0.008
Mof_C 	C 	0.1877	0.6597	0.2152	-0.042
Mof_C 	C 	0.2148	0.6297	0.2291	0.021
Mof_C 	C 	0.2404	0.6069	0.2026	-0.098
Mof_C 	C 	0.2368	0.6183	0.1646	0.032
Mof_C 	C 	0.1734	0.6682	0.98234	0.137
Mof_C 	C 	0.2085	0.6665	0.95505	-0.07
Mof_C 	C 	0.0307	0.5737	0.0405	-0.033
Mof_C 	C 	0.6657	0.8842	0.05135	0.4
Mof_C 	C 	0.709	0.8624	0.04855	-0.116
Mof_C 	C 	0.6894	0.802	0.04477	0.035
Mof_C 	C 	0.7696	0.9034	0.0516	0.037
Mof_C 	C 	0.7312	0.7837	0.0438	-0.068
Mof_C 	C 	0.812	0.8847	0.0503	-0.1
Mof_C 	C 	0.7911	0.8247	0.047	0.039
Mof_C 	C 	0.4559	0.7966	0.1143	0.369
Mof_C 	C 	0.44	0.792	0.1541	-0.114
Mof_C 	C 	0.4894	0.819	0.1774	0.008
Mof_C 	C 	0.472	0.8123	0.2152	-0.037
Mof_C 	C 	0.4149	0.7852	0.2291	0.023
Mof_C 	C 	0.3665	0.7596	0.2026	-0.095
Mof_C 	C 	0.3815	0.7632	0.1646	0.032
Mof_C 	C 	0.4948	0.8266	0.98234	0.128
Mof_C 	C 	0.458	0.7915	0.95505	-0.066
Mof_C 	C 	0.543	0.9693	0.0405	0.16
Mof_C 	C 	0.2185	0.3343	0.05135	0.398
Mof_C 	C 	0.1534	0.291	0.04855	-0.108
Mof_C 	C 	0.1126	0.3106	0.04477	0.016
Mof_C 	C 	0.1338	0.2304	0.0516	0.015
Mof_C 	C 	0.0525	0.2688	0.0438	-0.047
Mof_C 	C 	0.0727	0.188	0.0503	-0.075
Mof_C 	C 	0.0336	0.2089	0.047	-0.015
Mof_C 	C 	0.3407	0.5441	0.1143	0.369
Mof_C 	C 	0.352	0.56	0.1541	-0.117
Mof_C 	C 	0.3296	0.5106	0.1774	0.009
Mof_C 	C 	0.3403	0.528	0.2152	-0.042
Mof_C 	C 	0.3703	0.5851	0.2291	0.023
Mof_C 	C 	0.3931	0.6335	0.2026	-0.097
Mof_C 	C 	0.3817	0.6185	0.1646	0.033
Mof_C 	C 	0.3318	0.5052	0.98234	0.133
Mof_C 	C 	0.3335	0.542	0.95505	-0.068
Mof_C 	C 	0.4263	0.457	0.0405	0.064
Mof_C 	C 	0.8842	0.2185	0.55135	0.395
Mof_C 	C 	0.8624	0.1534	0.54855	-0.103
Mof_C 	C 	0.802	0.1126	0.54477	0.014
Mof_C 	C 	0.9034	0.1338	0.5516	0.014
Mof_C 	C 	0.7837	0.0525	0.5438	-0.045
Mof_C 	C 	0.8847	0.0727	0.5503	-0.071
Mof_C 	C 	0.8247	0.0336	0.547	-0.014
Mof_C 	C 	0.7966	0.3407	0.6143	0.369
Mof_C 	C 	0.792	0.352	0.6541	-0.115
Mof_C 	C 	0.819	0.3296	0.6774	0.009
Mof_C 	C 	0.8123	0.3403	0.7152	-0.038
Mof_C 	C 	0.7852	0.3703	0.7291	0.023
Mof_C 	C 	0.7596	0.3931	0.7026	-0.095
Mof_C 	C 	0.7632	0.3817	0.6646	0.033
Mof_C 	C 	0.8266	0.3318	0.48234	0.128
Mof_C 	C 	0.7915	0.3335	0.45505	-0.066
Mof_C 	C 	0.9693	0.4263	0.5405	0.161
Mof_C 	C 	0.3343	0.1158	0.55135	0.405
Mof_C 	C 	0.291	0.1376	0.54855	-0.125
Mof_C 	C 	0.3106	0.198	0.54477	0.036
Mof_C 	C 	0.2304	0.0966	0.5516	0.037
Mof_C 	C 	0.2688	0.2163	0.5438	-0.07
Mof_C 	C 	0.188	0.1153	0.5503	-0.106
Mof_C 	C 	0.2089	0.1753	0.547	0.035
Mof_C 	C 	0.5441	0.2034	0.6143	0.369
Mof_C 	C 	0.56	0.208	0.6541	-0.119
Mof_C 	C 	0.5106	0.181	0.6774	0.008
Mof_C 	C 	0.528	0.1877	0.7152	-0.043
Mof_C 	C 	0.5851	0.2148	0.7291	0.022
Mof_C 	C 	0.6335	0.2404	0.7026	-0.098
Mof_C 	C 	0.6185	0.2368	0.6646	0.033
Mof_C 	C 	0.5052	0.1734	0.48234	0.137
Mof_C 	C 	0.542	0.2085	0.45505	-0.07
Mof_C 	C 	0.457	0.0307	0.5405	-0.033
Mof_C 	C 	0.7815	0.6657	0.55135	0.404
Mof_C 	C 	0.8466	0.709	0.54855	-0.12
Mof_C 	C 	0.8874	0.6894	0.54477	0.028
Mof_C 	C 	0.8662	0.7696	0.5516	0.048
Mof_C 	C 	0.9475	0.7312	0.5438	-0.042
Mof_C 	C 	0.9273	0.812	0.5503	-0.12
Mof_C 	C 	0.9664	0.7911	0.547	0.077
Mof_C 	C 	0.6593	0.4559	0.6143	0.369
Mof_C 	C 	0.648	0.44	0.6541	-0.116
Mof_C 	C 	0.6704	0.4894	0.6774	0.008
Mof_C 	C 	0.6597	0.472	0.7152	-0.039
Mof_C 	C 	0.6297	0.4149	0.7291	0.022
Mof_C 	C 	0.6069	0.3665	0.7026	-0.097
Mof_C 	C 	0.6183	0.3815	0.6646	0.032
Mof_C 	C 	0.6682	0.4948	0.48234	0.133
Mof_C 	C 	0.6665	0.458	0.45505	-0.069
Mof_C 	C 	0.5737	0.543	0.5405	0.064
Mof_C 	C 	0.3343	0.2185	0.44865	0.398
Mof_C 	C 	0.291	0.1534	0.45145	-0.108
Mof_C 	C 	0.3106	0.1126	0.45523	0.016
Mof_C 	C 	0.2304	0.1338	0.4484	0.015
Mof_C 	C 	0.2688	0.0525	0.4562	-0.046
Mof_C 	C 	0.188	0.0727	0.4497	-0.075
Mof_C 	C 	0.2089	0.0336	0.453	-0.015
Mof_C 	C 	0.5441	0.3407	0.3857	0.369
Mof_C 	C 	0.56	0.352	0.3459	-0.117
Mof_C 	C 	0.5106	0.3296	0.3226	0.009
Mof_C 	C 	0.528	0.3403	0.2848	-0.042
Mof_C 	C 	0.5851	0.3703	0.2709	0.023
Mof_C 	C 	0.6335	0.3931	0.2974	-0.097
Mof_C 	C 	0.6185	0.3817	0.3354	0.033
Mof_C 	C 	0.5052	0.3318	0.51766	0.133
Mof_C 	C 	0.542	0.3335	0.54495	-0.068
Mof_C 	C 	0.457	0.4263	0.4595	0.064
Mof_C 	C 	0.7815	0.1158	0.44865	0.405
Mof_C 	C 	0.8466	0.1376	0.45145	-0.123
Mof_C 	C 	0.8874	0.198	0.45523	0.028
Mof_C 	C 	0.8662	0.0966	0.4484	0.048
Mof_C 	C 	0.9475	0.2163	0.4562	-0.043
Mof_C 	C 	0.9273	0.1153	0.4497	-0.123
Mof_C 	C 	0.9664	0.1753	0.453	0.075
Mof_C 	C 	0.6593	0.2034	0.3857	0.369
Mof_C 	C 	0.648	0.208	0.3459	-0.118
Mof_C 	C 	0.6704	0.181	0.3226	0.008
Mof_C 	C 	0.6597	0.1877	0.2848	-0.042
Mof_C 	C 	0.6297	0.2148	0.2709	0.021
Mof_C 	C 	0.6069	0.2404	0.2974	-0.098
Mof_C 	C 	0.6183	0.2368	0.3354	0.032
Mof_C 	C 	0.6682	0.1734	0.51766	0.137
Mof_C 	C 	0.6665	0.2085	0.54495	-0.07
Mof_C 	C 	0.5737	0.0307	0.4595	-0.033
Mof_C 	C 	0.8842	0.6657	0.44865	0.4
Mof_C 	C 	0.8624	0.709	0.45145	-0.116
Mof_C 	C 	0.802	0.6894	0.45523	0.035
Mof_C 	C 	0.9034	0.7696	0.4484	0.037
Mof_C 	C 	0.7837	0.7312	0.4562	-0.068
Mof_C 	C 	0.8847	0.812	0.4497	-0.1
Mof_C 	C 	0.8247	0.7911	0.453	0.039
Mof_C 	C 	0.7966	0.4559	0.3857	0.369
Mof_C 	C 	0.792	0.44	0.3459	-0.114
Mof_C 	C 	0.819	0.4894	0.3226	0.008
Mof_C 	C 	0.8123	0.472	0.2848	-0.037
Mof_C 	C 	0.7852	0.4149	0.2709	0.023
Mof_C 	C 	0.7596	0.3665	0.2974	-0.095
Mof_C 	C 	0.7632	0.3815	0.3354	0.032
Mof_C 	C 	0.8266	0.4948	0.51766	0.128
Mof_C 	C 	0.7915	0.458	0.54495	-0.066
Mof_C 	C 	0.9693	0.543	0.4595	0.161
Mof_C 	C 	0.6657	0.7815	0.94865	0.404
Mof_C 	C 	0.709	0.8466	0.95145	-0.12
Mof_C 	C 	0.6894	0.8874	0.95523	0.028
Mof_C 	C 	0.7696	0.8662	0.9484	0.048
Mof_C 	C 	0.7312	0.9475	0.9562	-0.042
Mof_C 	C 	0.812	0.9273	0.9497	-0.12
Mof_C 	C 	0.7911	0.9664	0.953	0.077
Mof_C 	C 	0.4559	0.6593	0.8857	0.369
Mof_C 	C 	0.44	0.648	0.8459	-0.116
Mof_C 	C 	0.4894	0.6704	0.8226	0.008
Mof_C 	C 	0.472	0.6597	0.7848	-0.039
Mof_C 	C 	0.4149	0.6297	0.7709	0.022
Mof_C 	C 	0.3665	0.6069	0.7974	-0.097
Mof_C 	C 	0.3815	0.6183	0.8354	0.032
Mof_C 	C 	0.4948	0.6682	0.01766	0.134
Mof_C 	C 	0.458	0.6665	0.04495	-0.069
Mof_C 	C 	0.543	0.5737	0.9595	0.064
Mof_C 	C 	0.2185	0.8842	0.94865	0.395
Mof_C 	C 	0.1534	0.8624	0.95145	-0.103
Mof_C 	C 	0.1126	0.802	0.95523	0.014
Mof_C 	C 	0.1338	0.9034	0.9484	0.014
Mof_C 	C 	0.0525	0.7837	0.9562	-0.045
Mof_C 	C 	0.0727	0.8847	0.9497	-0.071
Mof_C 	C 	0.0336	0.8247	0.953	-0.013
Mof_C 	C 	0.3407	0.7966	0.8857	0.369
Mof_C 	C 	0.352	0.792	0.8459	-0.115
Mof_C 	C 	0.3296	0.819	0.8226	0.009
Mof_C 	C 	0.3403	0.8123	0.7848	-0.038
Mof_C 	C 	0.3703	0.7852	0.7709	0.023
Mof_C 	C 	0.3931	0.7596	0.7974	-0.095
Mof_C 	C 	0.3817	0.7632	0.8354	0.033
Mof_C 	C 	0.3318	0.8266	0.01766	0.128
Mof_C 	C 	0.3335	0.7915	0.04495	-0.066
Mof_C 	C 	0.4263	0.9693	0.9595	0.161
Mof_C 	C 	0.1158	0.3343	0.94865	0.405
Mof_C 	C 	0.1376	0.291	0.95145	-0.125
Mof_C 	C 	0.198	0.3106	0.95523	0.036
Mof_C 	C 	0.0966	0.2304	0.9484	0.037
Mof_C 	C 	0.2163	0.2688	0.9562	-0.07
Mof_C 	C 	0.1153	0.188	0.9497	-0.106
Mof_C 	C 	0.1753	0.2089	0.953	0.035
Mof_C 	C 	0.2034	0.5441	0.8857	0.369
Mof_C 	C 	0.208	0.56	0.8459	-0.119
Mof_C 	C 	0.181	0.5106	0.8226	0.008
Mof_C 	C 	0.1877	0.528	0.7848	-0.043
Mof_C 	C 	0.2148	0.5851	0.7709	0.022
Mof_C 	C 	0.2404	0.6335	0.7974	-0.098
Mof_C 	C 	0.2368	0.6185	0.8354	0.033
Mof_C 	C 	0.1734	0.5052	0.01766	0.137
Mof_C 	C 	0.2085	0.542	0.04495	-0.07
Mof_C 	C 	0.0307	0.457	0.9595	-0.033
Mof_C 	C 	0.7223	-1.91675e-32	0.9583	0.135
Mof_C 	C 	0.2777	0.2777	0.9583	0.175
Mof_C 	C 	-3.19568e-17	0.7223	0.9583	0.135
Mof_C 	C 	0.2777	0	0.4583	0.135
Mof_C 	C 	0.7223	0.7223	0.4583	0.176
Mof_C 	C 	9.1148e-18	0.2777	0.4583	0.135
Mof_C 	C 	0.7223	-1.91675e-32	0.5417	0.135
Mof_C 	C 	3.82261e-17	0.7223	0.5417	0.135
Mof_C 	C 	0.2777	0.2777	0.5417	0.175
Mof_C 	C 	0.2777	-1.19797e-33	0.0417	0.135
Mof_C 	C 	-7.02503e-18	0.2777	0.0417	0.135
Mof_C 	C 	0.7223	0.7223	0.0417	0.176
Mof_C 	C 	0.8364	0.3238	0.75	0.127
Mof_C 	C 	0.4874	0.1636	0.75	0.124
Mof_C 	C 	0.6762	0.5126	0.75	0.125
Mof_C 	C 	0.1636	0.6762	0.25	0.124
Mof_C 	C 	0.5126	0.8364	0.25	0.126
Mof_C 	C 	0.3238	0.4874	0.25	0.125
Mof_C 	C 	0.5126	0.6762	0.75	0.125
Mof_C 	C 	0.3238	0.8364	0.75	0.127
Mof_C 	C 	0.1636	0.4874	0.75	0.124
Mof_C 	C 	0.4874	0.3238	0.25	0.125
Mof_C 	C 	0.6762	0.1636	0.25	0.124
Mof_C 	C 	0.8364	0.5126	0.25	0.126
Mof_O 	O 	0.9389	0.253	0.94688	-0.468
Mof_O 	O 	0.84506	0.23367	0.94859	-0.49
Mof_O 	O 	0.7685	0.3534	0.9094	-0.465
Mof_O 	O 	0.8313	0.3205	0.89591	-0.484
Mof_O 	O 	0.81614	0.33196	0.98032	-0.6
Mof_O 	O 	0.73873	0.33363	0.03112	-0.647
Mof_O 	O 	0.94322	0.36746	0.94952	-0.582
Mof_O 	O 	0.3141	0.0611	0.94688	-0.496
Mof_O 	O 	0.38861	0.15494	0.94859	-0.496
Mof_O 	O 	0.5849	0.2315	0.9094	-0.466
Mof_O 	O 	0.4892	0.1687	0.89591	-0.49
Mof_O 	O 	0.51582	0.18386	0.98032	-0.603
Mof_O 	O 	0.5949	0.26127	0.03112	-0.647
Mof_O 	O 	0.42424	0.05678	0.94952	-0.566
Mof_O 	O 	0.747	0.6859	0.94688	-0.484
Mof_O 	O 	0.76633	0.61139	0.94859	-0.493
Mof_O 	O 	0.6466	0.4151	0.9094	-0.465
Mof_O 	O 	0.6795	0.5108	0.89591	-0.486
Mof_O 	O 	0.66804	0.48418	0.98032	-0.602
Mof_O 	O 	0.66637	0.4051	0.03112	-0.647
Mof_O 	O 	0.63254	0.57576	0.94952	-0.576
Mof_O 	O 	0.0611	0.747	0.44688	-0.495
Mof_O 	O 	0.15494	0.76633	0.44859	-0.495
Mof_O 	O 	0.2315	0.6466	0.4094	-0.466
Mof_O 	O 	0.1687	0.6795	0.39591	-0.489
Mof_O 	O 	0.18386	0.66804	0.48032	-0.603
Mof_O 	O 	0.26127	0.66637	0.53112	-0.647
Mof_O 	O 	0.05678	0.63254	0.44952	-0.566
Mof_O 	O 	0.6859	0.9389	0.44688	-0.468
Mof_O 	O 	0.61139	0.84506	0.44859	-0.49
Mof_O 	O 	0.4151	0.7685	0.4094	-0.465
Mof_O 	O 	0.5108	0.8313	0.39591	-0.483
Mof_O 	O 	0.48418	0.81614	0.48032	-0.6
Mof_O 	O 	0.4051	0.73873	0.53112	-0.647
Mof_O 	O 	0.57576	0.94322	0.44952	-0.582
Mof_O 	O 	0.253	0.3141	0.44688	-0.485
Mof_O 	O 	0.23367	0.38861	0.44859	-0.493
Mof_O 	O 	0.3534	0.5849	0.4094	-0.466
Mof_O 	O 	0.3205	0.4892	0.39591	-0.488
Mof_O 	O 	0.33196	0.51582	0.48032	-0.602
Mof_O 	O 	0.33363	0.5949	0.53112	-0.647
Mof_O 	O 	0.36746	0.42424	0.44952	-0.577
Mof_O 	O 	0.6859	0.747	0.55312	-0.484
Mof_O 	O 	0.61139	0.76633	0.55141	-0.493
Mof_O 	O 	0.4151	0.6466	0.5906	-0.465
Mof_O 	O 	0.5108	0.6795	0.60409	-0.486
Mof_O 	O 	0.48418	0.66804	0.51968	-0.602
Mof_O 	O 	0.4051	0.66637	0.46888	-0.647
Mof_O 	O 	0.57576	0.63254	0.55048	-0.576
Mof_O 	O 	0.253	0.9389	0.55312	-0.468
Mof_O 	O 	0.23367	0.84506	0.55141	-0.49
Mof_O 	O 	0.3534	0.7685	0.5906	-0.465
Mof_O 	O 	0.3205	0.8313	0.60409	-0.484
Mof_O 	O 	0.33196	0.81614	0.51968	-0.6
Mof_O 	O 	0.33363	0.73873	0.46888	-0.647
Mof_O 	O 	0.36746	0.94322	0.55048	-0.582
Mof_O 	O 	0.0611	0.3141	0.55312	-0.496
Mof_O 	O 	0.15494	0.38861	0.55141	-0.496
Mof_O 	O 	0.2315	0.5849	0.5906	-0.466
Mof_O 	O 	0.1687	0.4892	0.60409	-0.49
Mof_O 	O 	0.18386	0.51582	0.51968	-0.603
Mof_O 	O 	0.26127	0.5949	0.46888	-0.647
Mof_O 	O 	0.05678	0.42424	0.55048	-0.566
Mof_O 	O 	0.3141	0.253	0.05312	-0.485
Mof_O 	O 	0.38861	0.23367	0.05141	-0.493
Mof_O 	O 	0.5849	0.3534	0.0906	-0.466
Mof_O 	O 	0.4892	0.3205	0.10409	-0.488
Mof_O 	O 	0.51582	0.33196	0.01968	-0.602
Mof_O 	O 	0.5949	0.33363	0.96888	-0.647
Mof_O 	O 	0.42424	0.36746	0.05048	-0.577
Mof_O 	O 	0.747	0.0611	0.05312	-0.495
Mof_O 	O 	0.76633	0.15494	0.05141	-0.495
Mof_O 	O 	0.6466	0.2315	0.0906	-0.466
Mof_O 	O 	0.6795	0.1687	0.10409	-0.489
Mof_O 	O 	0.66804	0.18386	0.01968	-0.603
Mof_O 	O 	0.66637	0.26127	0.96888	-0.647
Mof_O 	O 	0.63254	0.05678	0.05048	-0.566
Mof_O 	O 	0.9389	0.6859	0.05312	-0.468
Mof_O 	O 	0.84506	0.61139	0.05141	-0.49
Mof_O 	O 	0.7685	0.4151	0.0906	-0.465
Mof_O 	O 	0.8313	0.5108	0.10409	-0.483
Mof_O 	O 	0.81614	0.48418	0.01968	-0.6
Mof_O 	O 	0.73873	0.4051	0.96888	-0.647
Mof_O 	O 	0.94322	0.57576	0.05048	-0.582
Mof_O 	O 	0.0611	0.747	0.05312	-0.495
Mof_O 	O 	0.15494	0.76633	0.05141	-0.495
Mof_O 	O 	0.2315	0.6466	0.0906	-0.466
Mof_O 	O 	0.1687	0.6795	0.10409	-0.489
Mof_O 	O 	0.18386	0.66804	0.01968	-0.603
Mof_O 	O 	0.26127	0.66637	0.96888	-0.647
Mof_O 	O 	0.05678	0.63254	0.05048	-0.566
Mof_O 	O 	0.6859	0.9389	0.05312	-0.468
Mof_O 	O 	0.61139	0.84506	0.05141	-0.49
Mof_O 	O 	0.4151	0.7685	0.0906	-0.465
Mof_O 	O 	0.5108	0.8313	0.10409	-0.483
Mof_O 	O 	0.48418	0.81614	0.01968	-0.6
Mof_O 	O 	0.4051	0.73873	0.96888	-0.647
Mof_O 	O 	0.57576	0.94322	0.05048	-0.582
Mof_O 	O 	0.253	0.3141	0.05312	-0.485
Mof_O 	O 	0.23367	0.38861	0.05141	-0.493
Mof_O 	O 	0.3534	0.5849	0.0906	-0.466
Mof_O 	O 	0.3205	0.4892	0.10409	-0.488
Mof_O 	O 	0.33196	0.51582	0.01968	-0.602
Mof_O 	O 	0.33363	0.5949	0.96888	-0.647
Mof_O 	O 	0.36746	0.42424	0.05048	-0.577
Mof_O 	O 	0.9389	0.253	0.55312	-0.468
Mof_O 	O 	0.84506	0.23367	0.55141	-0.49
Mof_O 	O 	0.7685	0.3534	0.5906	-0.465
Mof_O 	O 	0.8313	0.3205	0.60409	-0.484
Mof_O 	O 	0.81614	0.33196	0.51968	-0.6
Mof_O 	O 	0.73873	0.33363	0.46888	-0.647
Mof_O 	O 	0.94322	0.36746	0.55048	-0.582
Mof_O 	O 	0.3141	0.0611	0.55312	-0.496
Mof_O 	O 	0.38861	0.15494	0.55141	-0.496
Mof_O 	O 	0.5849	0.2315	0.5906	-0.466
Mof_O 	O 	0.4892	0.1687	0.60409	-0.49
Mof_O 	O 	0.51582	0.18386	0.51968	-0.603
Mof_O 	O 	0.5949	0.26127	0.46888	-0.647
Mof_O 	O 	0.42424	0.05678	0.55048	-0.566
Mof_O 	O 	0.747	0.6859	0.55312	-0.484
Mof_O 	O 	0.76633	0.61139	0.55141	-0.493
Mof_O 	O 	0.6466	0.4151	0.5906	-0.465
Mof_O 	O 	0.6795	0.5108	0.60409	-0.486
Mof_O 	O 	0.66804	0.48418	0.51968	-0.602
Mof_O 	O 	0.66637	0.4051	0.46888	-0.647
Mof_O 	O 	0.63254	0.57576	0.55048	-0.576
Mof_O 	O 	0.3141	0.253	0.44688	-0.485
Mof_O 	O 	0.38861	0.23367	0.44859	-0.493
Mof_O 	O 	0.5849	0.3534	0.4094	-0.466
Mof_O 	O 	0.4892	0.3205	0.39591	-0.488
Mof_O 	O 	0.51582	0.33196	0.48032	-0.602
Mof_O 	O 	0.5949	0.33363	0.53112	-0.647
Mof_O 	O 	0.42424	0.36746	0.44952	-0.577
Mof_O 	O 	0.747	0.0611	0.44688	-0.495
Mof_O 	O 	0.76633	0.15494	0.44859	-0.495
Mof_O 	O 	0.6466	0.2315	0.4094	-0.466
Mof_O 	O 	0.6795	0.1687	0.39591	-0.489
Mof_O 	O 	0.66804	0.18386	0.48032	-0.603
Mof_O 	O 	0.66637	0.26127	0.53112	-0.647
Mof_O 	O 	0.63254	0.05678	0.44952	-0.566
Mof_O 	O 	0.9389	0.6859	0.44688	-0.468
Mof_O 	O 	0.84506	0.61139	0.44859	-0.49
Mof_O 	O 	0.7685	0.4151	0.4094	-0.465
Mof_O 	O 	0.8313	0.5108	0.39591	-0.483
Mof_O 	O 	0.81614	0.48418	0.48032	-0.6
Mof_O 	O 	0.73873	0.4051	0.53112	-0.647
Mof_O 	O 	0.94322	0.57576	0.44952	-0.582
Mof_O 	O 	0.6859	0.747	0.94688	-0.484
Mof_O 	O 	0.61139	0.76633	0.94859	-0.493
Mof_O 	O 	0.4151	0.6466	0.9094	-0.465
Mof_O 	O 	0.5108	0.6795	0.89591	-0.486
Mof_O 	O 	0.48418	0.66804	0.98032	-0.602
Mof_O 	O 	0.4051	0.66637	0.03112	-0.647
Mof_O 	O 	0.57576	0.63254	0.94952	-0.576
Mof_O 	O 	0.253	0.9389	0.94688	-0.468
Mof_O 	O 	0.23367	0.84506	0.94859	-0.49
Mof_O 	O 	0.3534	0.7685	0.9094	-0.465
Mof_O 	O 	0.3205	0.8313	0.89591	-0.484
Mof_O 	O 	0.33196	0.81614	0.98032	-0.6
Mof_O 	O 	0.33363	0.73873	0.03112	-0.647
Mof_O 	O 	0.36746	0.94322	0.94952	-0.582
Mof_O 	O 	0.0611	0.3141	0.94688	-0.496
Mof_O 	O 	0.15494	0.38861	0.94859	-0.496
Mof_O 	O 	0.2315	0.5849	0.9094	-0.466
Mof_O 	O 	0.1687	0.4892	0.89591	-0.49
Mof_O 	O 	0.18386	0.51582	0.98032	-0.603
Mof_O 	O 	0.26127	0.5949	0.03112	-0.647
Mof_O 	O 	0.05678	0.42424	0.94952	-0.566
Mof_O 	O 	0.6766	1.91675e-32	0.9618	-0.249
Mof_O 	O 	0.3234	0.3234	0.9618	-0.246
Mof_O 	O 	1.06149e-17	0.6766	0.9618	-0.249
Mof_O 	O 	0.3234	-9.58375e-33	0.4618	-0.249
Mof_O 	O 	0.6766	0.6766	0.4618	-0.245
Mof_O 	O 	8.52517e-18	0.3234	0.4618	-0.249
Mof_O 	O 	0.6766	0	0.5382	-0.249
Mof_O 	O 	3.88157e-17	0.6766	0.5382	-0.249
Mof_O 	O 	0.3234	0.3234	0.5382	-0.246
Mof_O 	O 	0.3234	0	0.0382	-0.249
Mof_O 	O 	1.51453e-17	0.3234	0.0382	-0.249
Mof_O 	O 	0.6766	0.6766	0.0382	-0.245
Mof_O 	O 	0.8607	0.2917	0.75	-0.193
Mof_O 	O 	0.431	0.1393	0.75	-0.205
Mof_O 	O 	0.7083	0.569	0.75	-0.193
Mof_O 	O 	0.1393	0.7083	0.25	-0.201
Mof_O 	O 	0.569	0.8607	0.25	-0.189
Mof_O 	O 	0.2917	0.431	0.25	-0.201
Mof_O 	O 	0.569	0.7083	0.75	-0.193
Mof_O 	O 	0.2917	0.8607	0.75	-0.193
Mof_O 	O 	0.1393	0.431	0.75	-0.205
Mof_O 	O 	0.431	0.2917	0.25	-0.201
Mof_O 	O 	0.7083	0.1393	0.25	-0.201
Mof_O 	O 	0.8607	0.569	0.25	-0.189
_end
