data_functionalizedCrystal
_audit_creation_method	'EQeq! by Chris Wilmer'
_symmetry_space_group_name_H-M	'P1'
_symmetry_Int_Tables_number	1
_symmetry_cell_setting	triclinic
loop_
_symmetry_equiv_pos_as_xyz
  x,y,z
_cell_length_a	19.108
_cell_length_b	28.704
_cell_length_c	13.646
_cell_angle_alpha	90
_cell_angle_beta	99.582
_cell_angle_gamma	90
loop_
_atom_site_label
_atom_site_type_symbol
_atom_site_fract_x
_atom_site_fract_y
_atom_site_fract_z
_atom_site_charge
Mof_Zn	Zn	0.19707	0.31411	0.60688	1.157
Mof_O 	O 	0.8851	0.201	0.7932	-0.295
Mof_O 	O 	0.9059	0.36862	0.1653	-0.283
Mof_O 	O 	0.1294	0.2959	0.4506	-0.408
Mof_O 	O 	0.1917	0.3574	0.4837	-0.487
Mof_O 	O 	0.2415	0.4512	0.2009	-0.531
Mof_O 	O 	0.1729	0.4465	0.0562	-0.529
Mof_O 	O 	0.1619	0.2641	0.6822	-0.509
Mof_O 	O 	0.1796	0.1962	0.6077	-0.318
Mof_O 	O 	0.1109	0.05283	0.7991	-0.734
Mof_O 	O 	0.1017	0.0705	0.9527	-1.231
Mof_N 	N 	0.9795	0.2311	0.8959	-0.273
Mof_N 	N 	0.9015	0.2816	0.9824	-0.245
Mof_N 	N 	0.9908	0.32572	0.101	-0.273
Mof_C 	C 	0.9116	0.2261	0.8595	0.198
Mof_C 	C 	0.8646	0.2566	0.9089	-0.01
Mof_C 	C 	0.7926	0.264	0.8813	-0.039
Mof_H 	H 	0.7666	0.2478	0.8283	0.037
Mof_C 	C 	0.7598	0.2968	0.936	-0.033
Mof_H 	H 	0.7113	0.3023	0.9193	0.046
Mof_C 	C 	0.7991	0.3209	0.0142	-0.041
Mof_H 	H 	0.7777	0.3417	0.0522	0.017
Mof_C 	C 	0.8711	0.31288	0.0337	-0.001
Mof_C 	C 	0.9238	0.338	0.1072	0.161
Mof_C 	C 	0.0492	0.3467	0.1641	0.083
Mof_C 	C 	0.0883	0.3808	0.1286	-0.056
Mof_H 	H 	0.074	0.3924	0.0648	0.053
Mof_C 	C 	0.1481	0.3982	0.1858	-0.114
Mof_C 	C 	0.1679	0.3829	0.2814	0.03
Mof_H 	H 	0.2077	0.3955	0.3211	0.034
Mof_C 	C 	0.1288	0.3486	0.3192	-0.082
Mof_C 	C 	0.0695	0.33	0.2604	-0.07
Mof_H 	H 	0.0435	0.3067	0.2849	0.067
Mof_C 	C 	0.1956	0.4345	0.1451	0.484
Mof_C 	C 	0.1511	0.3324	0.4244	0.35
Mof_C 	C 	0.0299	0.20421	0.8547	0.032
Mof_C 	C 	0.0674	0.2233	0.7873	-0.031
Mof_H 	H 	0.0611	0.2548	0.772	0.048
Mof_C 	C 	0.1135	0.1982	0.7415	-0.12
Mof_C 	C 	0.1225	0.1508	0.7647	0.078
Mof_H 	H 	0.1518	0.1326	0.7323	0.006
Mof_C 	C 	0.0877	0.131	0.8357	-0.21
Mof_C 	C 	0.0414	0.158	0.8819	0.016
Mof_H 	H 	0.0186	0.145	0.9304	-0.008
Mof_C 	C 	0.1549	0.2207	0.6709	0.369
Mof_C 	C 	0.1014	0.0815	0.8661	0.596
Mof_Zn	Zn	0.69707	0.81411	0.60688	1.163
Mof_O 	O 	0.3851	0.701	0.7932	-0.294
Mof_O 	O 	0.4059	0.86862	0.1653	-0.256
Mof_O 	O 	0.6294	0.7959	0.4506	-0.401
Mof_O 	O 	0.6917	0.8574	0.4837	-0.464
Mof_O 	O 	0.7415	0.9512	0.2009	-0.464
Mof_O 	O 	0.6729	0.9465	0.0562	-0.464
Mof_O 	O 	0.6619	0.7641	0.6822	-0.505
Mof_O 	O 	0.6796	0.6962	0.6077	-0.315
Mof_O 	O 	0.6109	0.55283	0.7991	-0.736
Mof_O 	O 	0.6017	0.5705	0.9527	-1.324
Mof_N 	N 	0.4795	0.7311	0.8959	-0.274
Mof_N 	N 	0.4015	0.7816	0.9824	-0.248
Mof_N 	N 	0.4908	0.82572	0.101	-0.27
Mof_C 	C 	0.4116	0.7261	0.8595	0.197
Mof_C 	C 	0.3646	0.7566	0.9089	-0.011
Mof_C 	C 	0.2926	0.764	0.8813	-0.04
Mof_H 	H 	0.2666	0.7478	0.8283	0.037
Mof_C 	C 	0.2598	0.7968	0.936	-0.035
Mof_H 	H 	0.2113	0.8023	0.9193	0.047
Mof_C 	C 	0.2991	0.8209	0.0142	-0.041
Mof_H 	H 	0.2777	0.8417	0.0522	0.028
Mof_C 	C 	0.3711	0.81288	0.0337	0.006
Mof_C 	C 	0.4238	0.838	0.1072	0.159
Mof_C 	C 	0.5492	0.8467	0.1641	0.093
Mof_C 	C 	0.5883	0.8808	0.1286	-0.067
Mof_H 	H 	0.574	0.8924	0.0648	0.066
Mof_C 	C 	0.6481	0.8982	0.1858	-0.083
Mof_C 	C 	0.6679	0.8829	0.2814	0.016
Mof_H 	H 	0.7077	0.8955	0.3211	0.053
Mof_C 	C 	0.6288	0.8486	0.3192	-0.064
Mof_C 	C 	0.5695	0.83	0.2604	-0.077
Mof_H 	H 	0.5435	0.8067	0.2849	0.071
Mof_C 	C 	0.6956	0.9345	0.1451	0.464
Mof_C 	C 	0.6511	0.8324	0.4244	0.344
Mof_C 	C 	0.5299	0.70421	0.8547	0.033
Mof_C 	C 	0.5674	0.7233	0.7873	-0.031
Mof_H 	H 	0.5611	0.7548	0.772	0.049
Mof_C 	C 	0.6135	0.6982	0.7415	-0.119
Mof_C 	C 	0.6225	0.6508	0.7647	0.081
Mof_H 	H 	0.6518	0.6326	0.7323	0.007
Mof_C 	C 	0.5877	0.631	0.8357	-0.215
Mof_C 	C 	0.5414	0.658	0.8819	0.022
Mof_H 	H 	0.5186	0.645	0.9304	-0.012
Mof_C 	C 	0.6549	0.7207	0.6709	0.368
Mof_C 	C 	0.6014	0.5815	0.8661	0.616
Mof_Zn	Zn	0.80293	0.31411	0.39312	1.158
Mof_O 	O 	0.1149	0.201	0.2068	-0.292
Mof_O 	O 	0.0941	0.36862	0.8347	-0.282
Mof_O 	O 	0.8706	0.2959	0.5494	-0.407
Mof_O 	O 	0.8083	0.3574	0.5163	-0.487
Mof_O 	O 	0.7585	0.4512	0.7991	-0.532
Mof_O 	O 	0.8271	0.4465	0.9438	-0.531
Mof_O 	O 	0.8381	0.2641	0.3178	-0.51
Mof_O 	O 	0.8204	0.1962	0.3923	-0.318
Mof_O 	O 	0.8891	0.05283	0.2009	-0.734
Mof_O 	O 	0.8983	0.0705	0.0473	-1.231
Mof_N 	N 	0.0205	0.2311	0.1041	-0.271
Mof_N 	N 	0.0985	0.2816	0.0176	-0.242
Mof_N 	N 	0.0092	0.32572	0.899	-0.273
Mof_C 	C 	0.0884	0.2261	0.1405	0.198
Mof_C 	C 	0.1354	0.2566	0.0911	-0.006
Mof_C 	C 	0.2074	0.264	0.1187	-0.045
Mof_H 	H 	0.2334	0.2478	0.1717	0.04
Mof_C 	C 	0.2402	0.2968	0.064	-0.019
Mof_H 	H 	0.2887	0.3023	0.0807	0.042
Mof_C 	C 	0.2009	0.3209	0.9858	-0.053
Mof_H 	H 	0.2223	0.3417	0.9478	0.02
Mof_C 	C 	0.1289	0.31288	0.9663	-0.003
Mof_C 	C 	0.0762	0.338	0.8928	0.16
Mof_C 	C 	0.9508	0.3467	0.8359	0.081
Mof_C 	C 	0.9117	0.3808	0.8714	-0.055
Mof_H 	H 	0.926	0.3924	0.9352	0.051
Mof_C 	C 	0.8519	0.3982	0.8142	-0.116
Mof_C 	C 	0.8321	0.3829	0.7186	0.031
Mof_H 	H 	0.7923	0.3955	0.6789	0.034
Mof_C 	C 	0.8712	0.3486	0.6808	-0.083
Mof_C 	C 	0.9305	0.33	0.7396	-0.068
Mof_H 	H 	0.9565	0.3067	0.7151	0.066
Mof_C 	C 	0.8044	0.4345	0.8549	0.485
Mof_C 	C 	0.8489	0.3324	0.5756	0.35
Mof_C 	C 	0.9701	0.20421	0.1453	0.032
Mof_C 	C 	0.9326	0.2233	0.2127	-0.03
Mof_H 	H 	0.9389	0.2548	0.228	0.047
Mof_C 	C 	0.8865	0.1982	0.2585	-0.12
Mof_C 	C 	0.8775	0.1508	0.2353	0.078
Mof_H 	H 	0.8482	0.1326	0.2677	0.005
Mof_C 	C 	0.9123	0.131	0.1643	-0.21
Mof_C 	C 	0.9586	0.158	0.1181	0.017
Mof_H 	H 	0.9814	0.145	0.0696	-0.007
Mof_C 	C 	0.8451	0.2207	0.3291	0.369
Mof_C 	C 	0.8986	0.0815	0.1339	0.597
Mof_Zn	Zn	0.30293	0.81411	0.39312	1.163
Mof_O 	O 	0.6149	0.701	0.2068	-0.293
Mof_O 	O 	0.5941	0.86862	0.8347	-0.257
Mof_O 	O 	0.3706	0.7959	0.5494	-0.401
Mof_O 	O 	0.3083	0.8574	0.5163	-0.464
Mof_O 	O 	0.2585	0.9512	0.7991	-0.465
Mof_O 	O 	0.3271	0.9465	0.9438	-0.466
Mof_O 	O 	0.3381	0.7641	0.3178	-0.505
Mof_O 	O 	0.3204	0.6962	0.3923	-0.315
Mof_O 	O 	0.3891	0.55283	0.2009	-0.736
Mof_O 	O 	0.3983	0.5705	0.0473	-1.325
Mof_N 	N 	0.5205	0.7311	0.1041	-0.274
Mof_N 	N 	0.5985	0.7816	0.0176	-0.246
Mof_N 	N 	0.5092	0.82572	0.899	-0.27
Mof_C 	C 	0.5884	0.7261	0.1405	0.196
Mof_C 	C 	0.6354	0.7566	0.0911	-0.008
Mof_C 	C 	0.7074	0.764	0.1187	-0.044
Mof_H 	H 	0.7334	0.7478	0.1717	0.039
Mof_C 	C 	0.7402	0.7968	0.064	-0.026
Mof_H 	H 	0.7887	0.8023	0.0807	0.044
Mof_C 	C 	0.7009	0.8209	0.9858	-0.049
Mof_H 	H 	0.7223	0.8417	0.9478	0.03
Mof_C 	C 	0.6289	0.81288	0.9663	0.005
Mof_C 	C 	0.5762	0.838	0.8928	0.158
Mof_C 	C 	0.4508	0.8467	0.8359	0.092
Mof_C 	C 	0.4117	0.8808	0.8714	-0.067
Mof_H 	H 	0.426	0.8924	0.9352	0.065
Mof_C 	C 	0.3519	0.8982	0.8142	-0.084
Mof_C 	C 	0.3321	0.8829	0.7186	0.016
Mof_H 	H 	0.2923	0.8955	0.6789	0.053
Mof_C 	C 	0.3712	0.8486	0.6808	-0.064
Mof_C 	C 	0.4305	0.83	0.7396	-0.076
Mof_H 	H 	0.4565	0.8067	0.7151	0.071
Mof_C 	C 	0.3044	0.9345	0.8549	0.464
Mof_C 	C 	0.3489	0.8324	0.5756	0.344
Mof_C 	C 	0.4701	0.70421	0.1453	0.034
Mof_C 	C 	0.4326	0.7233	0.2127	-0.031
Mof_H 	H 	0.4389	0.7548	0.228	0.05
Mof_C 	C 	0.3865	0.6982	0.2585	-0.118
Mof_C 	C 	0.3775	0.6508	0.2353	0.081
Mof_H 	H 	0.3482	0.6326	0.2677	0.007
Mof_C 	C 	0.4123	0.631	0.1643	-0.214
Mof_C 	C 	0.4586	0.658	0.1181	0.021
Mof_H 	H 	0.4814	0.645	0.0696	-0.01
Mof_C 	C 	0.3451	0.7207	0.3291	0.368
Mof_C 	C 	0.3986	0.5815	0.1339	0.617
Mof_Zn	Zn	0.80293	0.68589	0.39312	1.158
Mof_O 	O 	0.1149	0.799	0.2068	-0.279
Mof_O 	O 	0.0941	0.63138	0.8347	-0.283
Mof_O 	O 	0.8706	0.7041	0.5494	-0.404
Mof_O 	O 	0.8083	0.6426	0.5163	-0.487
Mof_O 	O 	0.7585	0.5488	0.7991	-0.532
Mof_O 	O 	0.8271	0.5535	0.9438	-0.531
Mof_O 	O 	0.8381	0.7359	0.3178	-0.508
Mof_O 	O 	0.8204	0.8038	0.3923	-0.307
Mof_O 	O 	0.8891	0.94717	0.2009	-0.636
Mof_O 	O 	0.8983	0.9295	0.0473	-1.156
Mof_N 	N 	0.0205	0.7689	0.1041	-0.272
Mof_N 	N 	0.0985	0.7184	0.0176	-0.243
Mof_N 	N 	0.0092	0.67428	0.899	-0.274
Mof_C 	C 	0.0884	0.7739	0.1405	0.195
Mof_C 	C 	0.1354	0.7434	0.0911	-0.004
Mof_C 	C 	0.2074	0.736	0.1187	-0.046
Mof_H 	H 	0.2334	0.7522	0.1717	0.042
Mof_C 	C 	0.2402	0.7032	0.064	-0.019
Mof_H 	H 	0.2887	0.6977	0.0807	0.042
Mof_C 	C 	0.2009	0.6791	0.9858	-0.054
Mof_H 	H 	0.2223	0.6583	0.9478	0.02
Mof_C 	C 	0.1289	0.68712	0.9663	-0.003
Mof_C 	C 	0.0762	0.662	0.8928	0.16
Mof_C 	C 	0.9508	0.6533	0.8359	0.082
Mof_C 	C 	0.9117	0.6192	0.8714	-0.056
Mof_H 	H 	0.926	0.6076	0.9352	0.051
Mof_C 	C 	0.8519	0.6018	0.8142	-0.115
Mof_C 	C 	0.8321	0.6171	0.7186	0.03
Mof_H 	H 	0.7923	0.6045	0.6789	0.034
Mof_C 	C 	0.8712	0.6514	0.6808	-0.082
Mof_C 	C 	0.9305	0.67	0.7396	-0.07
Mof_H 	H 	0.9565	0.6933	0.7151	0.067
Mof_C 	C 	0.8044	0.5655	0.8549	0.485
Mof_C 	C 	0.8489	0.6676	0.5756	0.349
Mof_C 	C 	0.9701	0.79579	0.1453	0.044
Mof_C 	C 	0.9326	0.7767	0.2127	-0.04
Mof_H 	H 	0.9389	0.7452	0.228	0.051
Mof_C 	C 	0.8865	0.8018	0.2585	-0.105
Mof_C 	C 	0.8775	0.8492	0.2353	0.063
Mof_H 	H 	0.8482	0.8674	0.2677	0.021
Mof_C 	C 	0.9123	0.869	0.1643	-0.177
Mof_C 	C 	0.9586	0.842	0.1181	0.005
Mof_H 	H 	0.9814	0.855	0.0696	0.007
Mof_C 	C 	0.8451	0.7793	0.3291	0.364
Mof_C 	C 	0.8986	0.9185	0.1339	0.572
Mof_Zn	Zn	0.30293	0.18589	0.39312	1.156
Mof_O 	O 	0.6149	0.299	0.2068	-0.293
Mof_O 	O 	0.5941	0.13138	0.8347	-0.293
Mof_O 	O 	0.3706	0.2041	0.5494	-0.409
Mof_O 	O 	0.3083	0.1426	0.5163	-0.499
Mof_O 	O 	0.2585	0.0488	0.7991	-0.564
Mof_O 	O 	0.3271	0.0535	0.9438	-0.561
Mof_O 	O 	0.3381	0.2359	0.3178	-0.511
Mof_O 	O 	0.3204	0.3038	0.3923	-0.316
Mof_O 	O 	0.3891	0.44717	0.2009	-0.736
Mof_O 	O 	0.3983	0.4295	0.0473	-1.324
Mof_N 	N 	0.5205	0.2689	0.1041	-0.273
Mof_N 	N 	0.5985	0.2184	0.0176	-0.243
Mof_N 	N 	0.5092	0.17428	0.899	-0.27
Mof_C 	C 	0.5884	0.2739	0.1405	0.197
Mof_C 	C 	0.6354	0.2434	0.0911	-0.009
Mof_C 	C 	0.7074	0.236	0.1187	-0.04
Mof_H 	H 	0.7334	0.2522	0.1717	0.038
Mof_C 	C 	0.7402	0.2032	0.064	-0.029
Mof_H 	H 	0.7887	0.1977	0.0807	0.045
Mof_C 	C 	0.7009	0.1791	0.9858	-0.043
Mof_H 	H 	0.7223	0.1583	0.9478	0.017
Mof_C 	C 	0.6289	0.18712	0.9663	-0.003
Mof_C 	C 	0.5762	0.162	0.8928	0.162
Mof_C 	C 	0.4508	0.1533	0.8359	0.067
Mof_C 	C 	0.4117	0.1192	0.8714	-0.046
Mof_H 	H 	0.426	0.1076	0.9352	0.038
Mof_C 	C 	0.3519	0.1018	0.8142	-0.137
Mof_C 	C 	0.3321	0.1171	0.7186	0.039
Mof_H 	H 	0.2923	0.1045	0.6789	0.022
Mof_C 	C 	0.3712	0.1514	0.6808	-0.096
Mof_C 	C 	0.4305	0.17	0.7396	-0.061
Mof_H 	H 	0.4565	0.1933	0.7151	0.062
Mof_C 	C 	0.3044	0.0655	0.8549	0.491
Mof_C 	C 	0.3489	0.1676	0.5756	0.354
Mof_C 	C 	0.4701	0.29579	0.1453	0.034
Mof_C 	C 	0.4326	0.2767	0.2127	-0.03
Mof_H 	H 	0.4389	0.2452	0.228	0.048
Mof_C 	C 	0.3865	0.3018	0.2585	-0.12
Mof_C 	C 	0.3775	0.3492	0.2353	0.082
Mof_H 	H 	0.3482	0.3674	0.2677	0.007
Mof_C 	C 	0.4123	0.369	0.1643	-0.214
Mof_C 	C 	0.4586	0.342	0.1181	0.022
Mof_H 	H 	0.4814	0.355	0.0696	-0.01
Mof_C 	C 	0.3451	0.2793	0.3291	0.37
Mof_C 	C 	0.3986	0.4185	0.1339	0.617
Mof_Zn	Zn	0.19707	0.68589	0.60688	1.157
Mof_O 	O 	0.8851	0.799	0.7932	-0.279
Mof_O 	O 	0.9059	0.63138	0.1653	-0.282
Mof_O 	O 	0.1294	0.7041	0.4506	-0.404
Mof_O 	O 	0.1917	0.6426	0.4837	-0.487
Mof_O 	O 	0.2415	0.5488	0.2009	-0.531
Mof_O 	O 	0.1729	0.5535	0.0562	-0.529
Mof_O 	O 	0.1619	0.7359	0.6822	-0.508
Mof_O 	O 	0.1796	0.8038	0.6077	-0.308
Mof_O 	O 	0.1109	0.94717	0.7991	-0.636
Mof_O 	O 	0.1017	0.9295	0.9527	-1.156
Mof_N 	N 	0.9795	0.7689	0.8959	-0.272
Mof_N 	N 	0.9015	0.7184	0.9824	-0.245
Mof_N 	N 	0.9908	0.67428	0.101	-0.273
Mof_C 	C 	0.9116	0.7739	0.8595	0.196
Mof_C 	C 	0.8646	0.7434	0.9089	-0.007
Mof_C 	C 	0.7926	0.736	0.8813	-0.042
Mof_H 	H 	0.7666	0.7522	0.8283	0.041
Mof_C 	C 	0.7598	0.7032	0.936	-0.029
Mof_H 	H 	0.7113	0.6977	0.9193	0.044
Mof_C 	C 	0.7991	0.6791	0.0142	-0.044
Mof_H 	H 	0.7777	0.6583	0.0522	0.018
Mof_C 	C 	0.8711	0.68712	0.0337	-0.001
Mof_C 	C 	0.9238	0.662	0.1072	0.161
Mof_C 	C 	0.0492	0.6533	0.1641	0.082
Mof_C 	C 	0.0883	0.6192	0.1286	-0.056
Mof_H 	H 	0.074	0.6076	0.0648	0.053
Mof_C 	C 	0.1481	0.6018	0.1858	-0.114
Mof_C 	C 	0.1679	0.6171	0.2814	0.029
Mof_H 	H 	0.2077	0.6045	0.3211	0.034
Mof_C 	C 	0.1288	0.6514	0.3192	-0.082
Mof_C 	C 	0.0695	0.67	0.2604	-0.07
Mof_H 	H 	0.0435	0.6933	0.2849	0.067
Mof_C 	C 	0.1956	0.5655	0.1451	0.484
Mof_C 	C 	0.1511	0.6676	0.4244	0.349
Mof_C 	C 	0.0299	0.79579	0.8547	0.041
Mof_C 	C 	0.0674	0.7767	0.7873	-0.039
Mof_H 	H 	0.0611	0.7452	0.772	0.051
Mof_C 	C 	0.1135	0.8018	0.7415	-0.106
Mof_C 	C 	0.1225	0.8492	0.7647	0.064
Mof_H 	H 	0.1518	0.8674	0.7323	0.021
Mof_C 	C 	0.0877	0.869	0.8357	-0.179
Mof_C 	C 	0.0414	0.842	0.8819	0.006
Mof_H 	H 	0.0186	0.855	0.9304	0.005
Mof_C 	C 	0.1549	0.7793	0.6709	0.365
Mof_C 	C 	0.1014	0.9185	0.8661	0.572
Mof_Zn	Zn	0.69707	0.18589	0.60688	1.156
Mof_O 	O 	0.3851	0.299	0.7932	-0.293
Mof_O 	O 	0.4059	0.13138	0.1653	-0.292
Mof_O 	O 	0.6294	0.2041	0.4506	-0.409
Mof_O 	O 	0.6917	0.1426	0.4837	-0.499
Mof_O 	O 	0.7415	0.0488	0.2009	-0.564
Mof_O 	O 	0.6729	0.0535	0.0562	-0.558
Mof_O 	O 	0.6619	0.2359	0.6822	-0.511
Mof_O 	O 	0.6796	0.3038	0.6077	-0.316
Mof_O 	O 	0.6109	0.44717	0.7991	-0.736
Mof_O 	O 	0.6017	0.4295	0.9527	-1.323
Mof_N 	N 	0.4795	0.2689	0.8959	-0.274
Mof_N 	N 	0.4015	0.2184	0.9824	-0.247
Mof_N 	N 	0.4908	0.17428	0.101	-0.269
Mof_C 	C 	0.4116	0.2739	0.8595	0.198
Mof_C 	C 	0.3646	0.2434	0.9089	-0.012
Mof_C 	C 	0.2926	0.236	0.8813	-0.034
Mof_H 	H 	0.2666	0.2522	0.8283	0.036
Mof_C 	C 	0.2598	0.2032	0.936	-0.044
Mof_H 	H 	0.2113	0.1977	0.9193	0.049
Mof_C 	C 	0.2991	0.1791	0.0142	-0.029
Mof_H 	H 	0.2777	0.1583	0.0522	0.014
Mof_C 	C 	0.3711	0.18712	0.0337	-0.001
Mof_C 	C 	0.4238	0.162	0.1072	0.163
Mof_C 	C 	0.5492	0.1533	0.1641	0.068
Mof_C 	C 	0.5883	0.1192	0.1286	-0.046
Mof_H 	H 	0.574	0.1076	0.0648	0.041
Mof_C 	C 	0.6481	0.1018	0.1858	-0.136
Mof_C 	C 	0.6679	0.1171	0.2814	0.039
Mof_H 	H 	0.7077	0.1045	0.3211	0.022
Mof_C 	C 	0.6288	0.1514	0.3192	-0.096
Mof_C 	C 	0.5695	0.17	0.2604	-0.062
Mof_H 	H 	0.5435	0.1933	0.2849	0.062
Mof_C 	C 	0.6956	0.0655	0.1451	0.49
Mof_C 	C 	0.6511	0.1676	0.4244	0.354
Mof_C 	C 	0.5299	0.29579	0.8547	0.032
Mof_C 	C 	0.5674	0.2767	0.7873	-0.03
Mof_H 	H 	0.5611	0.2452	0.772	0.047
Mof_C 	C 	0.6135	0.3018	0.7415	-0.12
Mof_C 	C 	0.6225	0.3492	0.7647	0.082
Mof_H 	H 	0.6518	0.3674	0.7323	0.007
Mof_C 	C 	0.5877	0.369	0.8357	-0.215
Mof_C 	C 	0.5414	0.342	0.8819	0.022
Mof_H 	H 	0.5186	0.355	0.9304	-0.012
Mof_C 	C 	0.6549	0.2793	0.6709	0.37
Mof_C 	C 	0.6014	0.4185	0.8661	0.616
Mof_Zn	Zn	0.31612	0.5	0.19872	1.189
Mof_Zn	Zn	0.19214	0.5	0.96917	1.154
Mof_O 	O 	0.3015	0.5	0.0287	-1.467
Mof_Zn	Zn	0.81612	0	0.19872	1.157
Mof_Zn	Zn	0.69214	0	0.96917	1.125
Mof_O 	O 	0.8015	0	0.0287	-1.422
Mof_Zn	Zn	0.68388	0.5	0.80128	1.189
Mof_Zn	Zn	0.80786	0.5	0.03083	1.157
Mof_O 	O 	0.6985	0.5	0.9713	-1.465
Mof_Zn	Zn	0.18388	0	0.80128	1.157
Mof_Zn	Zn	0.30786	0	0.03083	1.128
Mof_O 	O 	0.1985	-6.84099e-33	0.9713	-1.422
Mof_Co	Co	3.4205e-33	0.27867	-0	1.175
Mof_Co	Co	0.5	0.77867	-0	1.172
Mof_Co	Co	-0	0.72133	-0	1.173
Mof_Co	Co	0.5	0.22133	-0	1.173
Mof_Na	Na	0.0966	0	0.9852	4.925
Mof_Na	Na	0.5966	0.5	0.9852	5.493
Mof_Na	Na	0.9034	-1.06891e-34	0.0148	4.94
Mof_Na	Na	0.4034	0.5	0.0148	5.51
Mof_O 	O 	-0	0	-0	-2.365
Mof_O 	O 	0.5	0.5	-0	-2.561
_end
