data_functionalizedCrystal
_audit_creation_method	'EQeq! by Chris Wilmer'
_symmetry_space_group_name_H-M	'P1'
_symmetry_Int_Tables_number	1
_symmetry_cell_setting	triclinic
loop_
_symmetry_equiv_pos_as_xyz
  x,y,z
_cell_length_a	16.368
_cell_length_b	16.368
_cell_length_c	22.2061
_cell_angle_alpha	68.374
_cell_angle_beta	68.374
_cell_angle_gamma	60
loop_
_atom_site_label
_atom_site_type_symbol
_atom_site_fract_x
_atom_site_fract_y
_atom_site_fract_z
_atom_site_charge
Mof_Cd	Cd	0.04514	0.30938	0.78134	0.456
Mof_Cd	Cd	0.30938	0.86414	0.78134	0.456
Mof_Cd	Cd	0.86414	0.04514	0.78134	0.457
Mof_Cd	Cd	0.45486	0.63586	0.71866	0.457
Mof_Cd	Cd	0.19062	0.45486	0.71866	0.457
Mof_Cd	Cd	0.63586	0.19062	0.71866	0.457
Mof_Cd	Cd	0.95486	0.69062	0.21866	0.457
Mof_Cd	Cd	0.69062	0.13586	0.21866	0.457
Mof_Cd	Cd	0.13586	0.95486	0.21866	0.457
Mof_Cd	Cd	0.54514	0.36414	0.28134	0.457
Mof_Cd	Cd	0.80938	0.54514	0.28134	0.457
Mof_Cd	Cd	0.36414	0.80938	0.28134	0.457
Mof_H 	H 	0.333	0.29	0.904	0.039
Mof_H 	H 	0.3295	0.2135	0.0315	0.052
Mof_H 	H 	0.9672	0.1632	0.9094	0.083
Mof_H 	H 	0.0708	0.1268	0.9076	0.074
Mof_H 	H 	0.916	0.187	0.811	0.069
Mof_H 	H 	0.9929	0.1559	0.7483	0.065
Mof_H 	H 	0.29	0.473	0.904	0.039
Mof_H 	H 	0.2135	0.4255	0.0315	0.053
Mof_H 	H 	0.1632	0.9602	0.9094	0.082
Mof_H 	H 	0.1268	0.8948	0.9076	0.074
Mof_H 	H 	0.187	0.086	0.811	0.069
Mof_H 	H 	0.1559	0.1029	0.7483	0.065
Mof_H 	H 	0.473	0.333	0.904	0.039
Mof_H 	H 	0.4255	0.3295	0.0315	0.053
Mof_H 	H 	0.9602	0.9672	0.9094	0.083
Mof_H 	H 	0.8948	0.0708	0.9076	0.074
Mof_H 	H 	0.086	0.916	0.811	0.069
Mof_H 	H 	0.1029	0.9929	0.7483	0.065
Mof_H 	H 	0.167	0.027	0.596	0.038
Mof_H 	H 	0.1705	0.0745	0.4685	0.053
Mof_H 	H 	0.5328	0.5398	0.5906	0.082
Mof_H 	H 	0.4292	0.6052	0.5924	0.074
Mof_H 	H 	0.584	0.414	0.689	0.069
Mof_H 	H 	0.5071	0.3971	0.7517	0.065
Mof_H 	H 	0.21	0.167	0.596	0.038
Mof_H 	H 	0.2865	0.1705	0.4685	0.053
Mof_H 	H 	0.3368	0.5328	0.5906	0.082
Mof_H 	H 	0.3732	0.4292	0.5924	0.074
Mof_H 	H 	0.313	0.584	0.689	0.069
Mof_H 	H 	0.3441	0.5071	0.7517	0.065
Mof_H 	H 	0.027	0.21	0.596	0.038
Mof_H 	H 	0.0745	0.2865	0.4685	0.053
Mof_H 	H 	0.5398	0.3368	0.5906	0.082
Mof_H 	H 	0.6052	0.3732	0.5924	0.074
Mof_H 	H 	0.414	0.313	0.689	0.069
Mof_H 	H 	0.3971	0.3441	0.7517	0.065
Mof_H 	H 	0.667	0.71	0.096	0.039
Mof_H 	H 	0.6705	0.7865	0.9685	0.052
Mof_H 	H 	0.0328	0.8368	0.0906	0.083
Mof_H 	H 	0.9292	0.8732	0.0924	0.074
Mof_H 	H 	0.084	0.813	0.189	0.069
Mof_H 	H 	0.0071	0.8441	0.2517	0.065
Mof_H 	H 	0.71	0.527	0.096	0.039
Mof_H 	H 	0.7865	0.5745	0.9685	0.053
Mof_H 	H 	0.8368	0.0398	0.0906	0.082
Mof_H 	H 	0.8732	0.1052	0.0924	0.074
Mof_H 	H 	0.813	0.914	0.189	0.069
Mof_H 	H 	0.8441	0.8971	0.2517	0.065
Mof_H 	H 	0.527	0.667	0.096	0.039
Mof_H 	H 	0.5745	0.6705	0.9685	0.053
Mof_H 	H 	0.0398	0.0328	0.0906	0.083
Mof_H 	H 	0.1052	0.9292	0.0924	0.074
Mof_H 	H 	0.914	0.084	0.189	0.069
Mof_H 	H 	0.8971	0.0071	0.2517	0.065
Mof_H 	H 	0.833	0.973	0.404	0.038
Mof_H 	H 	0.8295	0.9255	0.5315	0.053
Mof_H 	H 	0.4672	0.4602	0.4094	0.082
Mof_H 	H 	0.5708	0.3948	0.4076	0.074
Mof_H 	H 	0.416	0.586	0.311	0.069
Mof_H 	H 	0.4929	0.6029	0.2483	0.065
Mof_H 	H 	0.79	0.833	0.404	0.038
Mof_H 	H 	0.7135	0.8295	0.5315	0.053
Mof_H 	H 	0.6632	0.4672	0.4094	0.082
Mof_H 	H 	0.6268	0.5708	0.4076	0.074
Mof_H 	H 	0.687	0.416	0.311	0.069
Mof_H 	H 	0.6559	0.4929	0.2483	0.065
Mof_H 	H 	0.973	0.79	0.404	0.038
Mof_H 	H 	0.9255	0.7135	0.5315	0.053
Mof_H 	H 	0.4602	0.6632	0.4094	0.082
Mof_H 	H 	0.3948	0.6268	0.4076	0.074
Mof_H 	H 	0.586	0.687	0.311	0.069
Mof_H 	H 	0.6029	0.6559	0.2483	0.065
Mof_C 	C 	0.22498	0.09408	0.10446	0.32
Mof_C 	C 	0.23512	0.15612	0.03564	-0.072
Mof_C 	C 	0.28797	0.20967	0.00819	-0.01
Mof_C 	C 	0.28058	0.26088	0.94156	0.007
Mof_C 	C 	0.22279	0.24549	0.92053	-0.087
Mof_C 	C 	0.1991	0.2859	0.8533	0.338
Mof_C 	C 	0.02311	0.12451	0.89317	-0.073
Mof_C 	C 	0.9781	0.14612	0.79462	-0.053
Mof_C 	C 	0.09408	0.57648	0.10446	0.32
Mof_C 	C 	0.15612	0.57312	0.03564	-0.073
Mof_C 	C 	0.20967	0.49417	0.00819	-0.01
Mof_C 	C 	0.26088	0.51698	0.94156	0.007
Mof_C 	C 	0.24549	0.61119	0.92053	-0.087
Mof_C 	C 	0.2859	0.6617	0.8533	0.338
Mof_C 	C 	0.12451	0.95921	0.89317	-0.071
Mof_C 	C 	0.14612	0.08116	0.79462	-0.053
Mof_C 	C 	0.57648	0.22498	0.10446	0.32
Mof_C 	C 	0.57312	0.23512	0.03564	-0.073
Mof_C 	C 	0.49417	0.28797	0.00819	-0.01
Mof_C 	C 	0.51698	0.28058	0.94156	0.007
Mof_C 	C 	0.61119	0.22279	0.92053	-0.087
Mof_C 	C 	0.6617	0.1991	0.8533	0.338
Mof_C 	C 	0.95921	0.02311	0.89317	-0.073
Mof_C 	C 	0.08116	0.9781	0.79462	-0.053
Mof_C 	C 	0.27502	0.92352	0.39554	0.32
Mof_C 	C 	0.26488	0.92688	0.46436	-0.073
Mof_C 	C 	0.21203	0.00583	0.49181	-0.01
Mof_C 	C 	0.21942	0.98302	0.55844	0.008
Mof_C 	C 	0.27721	0.88881	0.57947	-0.087
Mof_C 	C 	0.3009	0.8383	0.6467	0.338
Mof_C 	C 	0.47689	0.54079	0.60683	-0.071
Mof_C 	C 	0.5219	0.41884	0.70538	-0.053
Mof_C 	C 	0.40592	0.27502	0.39554	0.32
Mof_C 	C 	0.34388	0.26488	0.46436	-0.073
Mof_C 	C 	0.29033	0.21203	0.49181	-0.01
Mof_C 	C 	0.23912	0.21942	0.55844	0.008
Mof_C 	C 	0.25451	0.27721	0.57947	-0.087
Mof_C 	C 	0.2141	0.3009	0.6467	0.338
Mof_C 	C 	0.37549	0.47689	0.60683	-0.071
Mof_C 	C 	0.35388	0.5219	0.70538	-0.053
Mof_C 	C 	0.92352	0.40592	0.39554	0.32
Mof_C 	C 	0.92688	0.34388	0.46436	-0.073
Mof_C 	C 	0.00583	0.29033	0.49181	-0.01
Mof_C 	C 	0.98302	0.23912	0.55844	0.008
Mof_C 	C 	0.88881	0.25451	0.57947	-0.087
Mof_C 	C 	0.8383	0.2141	0.6467	0.338
Mof_C 	C 	0.54079	0.37549	0.60683	-0.071
Mof_C 	C 	0.41884	0.35388	0.70538	-0.053
Mof_C 	C 	0.77502	0.90592	0.89554	0.32
Mof_C 	C 	0.76488	0.84388	0.96436	-0.072
Mof_C 	C 	0.71203	0.79033	0.99181	-0.01
Mof_C 	C 	0.71942	0.73912	0.05844	0.007
Mof_C 	C 	0.77721	0.75451	0.07947	-0.087
Mof_C 	C 	0.8009	0.7141	0.1467	0.338
Mof_C 	C 	0.97689	0.87549	0.10683	-0.073
Mof_C 	C 	0.0219	0.85388	0.20538	-0.053
Mof_C 	C 	0.90592	0.42352	0.89554	0.32
Mof_C 	C 	0.84388	0.42688	0.96436	-0.073
Mof_C 	C 	0.79033	0.50583	0.99181	-0.01
Mof_C 	C 	0.73912	0.48302	0.05844	0.007
Mof_C 	C 	0.75451	0.38881	0.07947	-0.087
Mof_C 	C 	0.7141	0.3383	0.1467	0.338
Mof_C 	C 	0.87549	0.04079	0.10683	-0.071
Mof_C 	C 	0.85388	0.91884	0.20538	-0.053
Mof_C 	C 	0.42352	0.77502	0.89554	0.32
Mof_C 	C 	0.42688	0.76488	0.96436	-0.073
Mof_C 	C 	0.50583	0.71203	0.99181	-0.01
Mof_C 	C 	0.48302	0.71942	0.05844	0.007
Mof_C 	C 	0.38881	0.77721	0.07947	-0.087
Mof_C 	C 	0.3383	0.8009	0.1467	0.338
Mof_C 	C 	0.04079	0.97689	0.10683	-0.073
Mof_C 	C 	0.91884	0.0219	0.20538	-0.053
Mof_C 	C 	0.72498	0.07648	0.60446	0.32
Mof_C 	C 	0.73512	0.07312	0.53564	-0.073
Mof_C 	C 	0.78797	0.99417	0.50819	-0.01
Mof_C 	C 	0.78058	0.01698	0.44156	0.008
Mof_C 	C 	0.72279	0.11119	0.42053	-0.087
Mof_C 	C 	0.6991	0.1617	0.3533	0.338
Mof_C 	C 	0.52311	0.45921	0.39317	-0.071
Mof_C 	C 	0.4781	0.58116	0.29462	-0.053
Mof_C 	C 	0.59408	0.72498	0.60446	0.32
Mof_C 	C 	0.65612	0.73512	0.53564	-0.073
Mof_C 	C 	0.70967	0.78797	0.50819	-0.01
Mof_C 	C 	0.76088	0.78058	0.44156	0.008
Mof_C 	C 	0.74549	0.72279	0.42053	-0.087
Mof_C 	C 	0.7859	0.6991	0.3533	0.338
Mof_C 	C 	0.62451	0.52311	0.39317	-0.071
Mof_C 	C 	0.64612	0.4781	0.29462	-0.053
Mof_C 	C 	0.07648	0.59408	0.60446	0.32
Mof_C 	C 	0.07312	0.65612	0.53564	-0.073
Mof_C 	C 	0.99417	0.70967	0.50819	-0.01
Mof_C 	C 	0.01698	0.76088	0.44156	0.008
Mof_C 	C 	0.11119	0.74549	0.42053	-0.087
Mof_C 	C 	0.1617	0.7859	0.3533	0.338
Mof_C 	C 	0.45921	0.62451	0.39317	-0.071
Mof_C 	C 	0.58116	0.64612	0.29462	-0.053
Mof_S 	S 	0.17589	0.16819	0.9811	0.068
Mof_S 	S 	0.16819	0.67482	0.9811	0.069
Mof_S 	S 	0.67482	0.17589	0.9811	0.069
Mof_S 	S 	0.32411	0.82518	0.5189	0.069
Mof_S 	S 	0.33181	0.32411	0.5189	0.069
Mof_S 	S 	0.82518	0.33181	0.5189	0.069
Mof_S 	S 	0.82411	0.83181	0.0189	0.068
Mof_S 	S 	0.83181	0.32518	0.0189	0.069
Mof_S 	S 	0.32518	0.82411	0.0189	0.069
Mof_S 	S 	0.67589	0.17482	0.4811	0.069
Mof_S 	S 	0.66819	0.67589	0.4811	0.069
Mof_S 	S 	0.17482	0.66819	0.4811	0.069
Mof_N 	N 	0.0475	0.15278	0.81865	-0.095
Mof_N 	N 	0.15278	0.98107	0.81865	-0.095
Mof_N 	N 	0.98107	0.0475	0.81865	-0.095
Mof_N 	N 	0.4525	0.51893	0.68135	-0.095
Mof_N 	N 	0.34722	0.4525	0.68135	-0.095
Mof_N 	N 	0.51893	0.34722	0.68135	-0.095
Mof_N 	N 	0.9525	0.84722	0.18135	-0.095
Mof_N 	N 	0.84722	0.01893	0.18135	-0.095
Mof_N 	N 	0.01893	0.9525	0.18135	-0.095
Mof_N 	N 	0.5475	0.48107	0.31865	-0.095
Mof_N 	N 	0.65278	0.5475	0.31865	-0.095
Mof_N 	N 	0.48107	0.65278	0.31865	-0.095
Mof_N 	N 	0.02754	0.02754	0.91738	-0.073
Mof_N 	N 	0.47246	0.47246	0.58262	-0.073
Mof_N 	N 	0.97246	0.97246	0.08262	-0.073
Mof_N 	N 	0.52754	0.52754	0.41738	-0.073
Mof_O 	O 	0.15825	0.06697	0.12375	-0.276
Mof_O 	O 	0.28236	0.07596	0.13632	-0.221
Mof_O 	O 	0.15565	0.25073	0.84175	-0.288
Mof_O 	O 	0.22626	0.35089	0.81565	-0.294
Mof_O 	O 	0.06697	0.65103	0.12375	-0.276
Mof_O 	O 	0.07596	0.50536	0.13632	-0.221
Mof_O 	O 	0.25073	0.75187	0.84175	-0.288
Mof_O 	O 	0.35089	0.6072	0.81565	-0.294
Mof_O 	O 	0.65103	0.15825	0.12375	-0.276
Mof_O 	O 	0.50536	0.28236	0.13632	-0.221
Mof_O 	O 	0.75187	0.15565	0.84175	-0.288
Mof_O 	O 	0.6072	0.22626	0.81565	-0.294
Mof_O 	O 	0.34175	0.84897	0.37625	-0.276
Mof_O 	O 	0.21764	0.99464	0.36368	-0.221
Mof_O 	O 	0.34435	0.74813	0.65825	-0.288
Mof_O 	O 	0.27374	0.8928	0.68435	-0.294
Mof_O 	O 	0.43303	0.34175	0.37625	-0.276
Mof_O 	O 	0.42404	0.21764	0.36368	-0.221
Mof_O 	O 	0.24927	0.34435	0.65825	-0.288
Mof_O 	O 	0.14911	0.27374	0.68435	-0.294
Mof_O 	O 	0.84897	0.43303	0.37625	-0.276
Mof_O 	O 	0.99464	0.42404	0.36368	-0.221
Mof_O 	O 	0.74813	0.24927	0.65825	-0.288
Mof_O 	O 	0.8928	0.14911	0.68435	-0.294
Mof_O 	O 	0.84175	0.93303	0.87625	-0.276
Mof_O 	O 	0.71764	0.92404	0.86368	-0.221
Mof_O 	O 	0.84435	0.74927	0.15825	-0.288
Mof_O 	O 	0.77374	0.64911	0.18435	-0.294
Mof_O 	O 	0.93303	0.34897	0.87625	-0.276
Mof_O 	O 	0.92404	0.49464	0.86368	-0.221
Mof_O 	O 	0.74927	0.24813	0.15825	-0.288
Mof_O 	O 	0.64911	0.3928	0.18435	-0.294
Mof_O 	O 	0.34897	0.84175	0.87625	-0.276
Mof_O 	O 	0.49464	0.71764	0.86368	-0.221
Mof_O 	O 	0.24813	0.84435	0.15825	-0.288
Mof_O 	O 	0.3928	0.77374	0.18435	-0.294
Mof_O 	O 	0.65825	0.15103	0.62375	-0.276
Mof_O 	O 	0.78236	0.00536	0.63632	-0.221
Mof_O 	O 	0.65565	0.25187	0.34175	-0.288
Mof_O 	O 	0.72626	0.1072	0.31565	-0.294
Mof_O 	O 	0.56697	0.65825	0.62375	-0.276
Mof_O 	O 	0.57596	0.78236	0.63632	-0.221
Mof_O 	O 	0.75073	0.65565	0.34175	-0.288
Mof_O 	O 	0.85089	0.72626	0.31565	-0.294
Mof_O 	O 	0.15103	0.56697	0.62375	-0.276
Mof_O 	O 	0.00536	0.57596	0.63632	-0.221
Mof_O 	O 	0.25187	0.75073	0.34175	-0.288
Mof_O 	O 	0.1072	0.85089	0.31565	-0.294
Mof_O 	O 	0.03418	0.46582	0.75	-0.16
Mof_O 	O 	0.46582	0.75	0.75	-0.16
Mof_O 	O 	0.75	0.03418	0.75	-0.16
Mof_O 	O 	0.96582	0.53418	0.25	-0.16
Mof_O 	O 	0.53418	0.25	0.25	-0.16
Mof_O 	O 	0.25	0.96582	0.25	-0.16
_end
