data_functionalizedCrystal
_audit_creation_method	'EQeq! by Chris Wilmer'
_symmetry_space_group_name_H-M	'P1'
_symmetry_Int_Tables_number	1
_symmetry_cell_setting	triclinic
loop_
_symmetry_equiv_pos_as_xyz
  x,y,z
_cell_length_a	17.236
_cell_length_b	9.1835
_cell_length_c	15.478
_cell_angle_alpha	90
_cell_angle_beta	90
_cell_angle_gamma	90
loop_
_atom_site_label
_atom_site_type_symbol
_atom_site_fract_x
_atom_site_fract_y
_atom_site_fract_z
_atom_site_charge
Mof_N 	N 	0.8692	0.2837	0.8149	-0.184
Mof_N 	N 	0.97416	0.181	0.8927	-0.145
Mof_C 	C 	0.9057	0.1732	0.8545	0.101
Mof_H 	H 	0.8807	0.0834	0.8551	-0.027
Mof_C 	C 	0.9067	0.4106	0.814	-0.007
Mof_H 	H 	0.8822	0.4906	0.7892	0.025
Mof_C 	C 	0.9791	0.4289	0.8478	0.048
Mof_C 	C 	0.0112	0.3074	0.8891	-0.049
Mof_H 	H 	0.0599	0.3155	0.9146	0.039
Mof_N 	N 	0.8692	0.7837	0.3149	-0.181
Mof_N 	N 	0.97416	0.681	0.3927	-0.154
Mof_C 	C 	0.9057	0.6732	0.3545	0.096
Mof_H 	H 	0.8807	0.5834	0.3551	-0.031
Mof_C 	C 	0.9067	0.9106	0.314	-0.031
Mof_H 	H 	0.8822	0.9906	0.2892	0.04
Mof_C 	C 	0.9791	0.9289	0.3478	0.095
Mof_C 	C 	0.0112	0.8074	0.3891	-0.07
Mof_H 	H 	0.0599	0.8155	0.4146	0.042
Mof_N 	N 	0.3692	0.2837	0.3149	-0.196
Mof_N 	N 	0.47416	0.181	0.3927	-0.188
Mof_C 	C 	0.4057	0.1732	0.3545	0.099
Mof_H 	H 	0.3807	0.0834	0.3551	-0.04
Mof_C 	C 	0.4067	0.4106	0.314	0.025
Mof_H 	H 	0.3822	0.4906	0.2892	0.009
Mof_C 	C 	0.4791	0.4289	0.3478	-0.038
Mof_C 	C 	0.5112	0.3074	0.3891	0.024
Mof_H 	H 	0.5599	0.3155	0.4146	0.004
Mof_N 	N 	0.3692	0.7837	0.8149	-0.189
Mof_N 	N 	0.47416	0.681	0.8927	-0.17
Mof_C 	C 	0.4057	0.6732	0.8545	0.105
Mof_H 	H 	0.3807	0.5834	0.8551	-0.028
Mof_C 	C 	0.4067	0.9106	0.814	0.011
Mof_H 	H 	0.3822	0.9906	0.7892	0.025
Mof_C 	C 	0.4791	0.9289	0.8478	0.011
Mof_C 	C 	0.5112	0.8074	0.8891	0.012
Mof_H 	H 	0.5599	0.8155	0.9146	0.028
Mof_N 	N 	0.1308	0.7163	0.8149	-0.202
Mof_N 	N 	0.02584	0.819	0.8927	-0.185
Mof_C 	C 	0.0943	0.8268	0.8545	0.109
Mof_H 	H 	0.1193	0.9166	0.8551	-0.02
Mof_C 	C 	0.0933	0.5894	0.814	0.066
Mof_H 	H 	0.1178	0.5094	0.7892	-0.007
Mof_C 	C 	0.0209	0.5711	0.8478	-0.114
Mof_C 	C 	0.9888	0.6926	0.8891	0.102
Mof_H 	H 	0.9401	0.6845	0.9146	-0.001
Mof_N 	N 	0.1308	0.2163	0.3149	-0.21
Mof_N 	N 	0.02584	0.319	0.3927	-0.215
Mof_C 	C 	0.0943	0.3268	0.3545	0.105
Mof_H 	H 	0.1193	0.4166	0.3551	-0.036
Mof_C 	C 	0.0933	0.0894	0.314	0.084
Mof_H 	H 	0.1178	0.0094	0.2892	-0.024
Mof_C 	C 	0.0209	0.0711	0.3478	-0.171
Mof_C 	C 	0.9888	0.1926	0.3891	0.124
Mof_H 	H 	0.9401	0.1845	0.4146	-0.031
Mof_N 	N 	0.6308	0.7163	0.3149	-0.195
Mof_N 	N 	0.52584	0.819	0.3927	-0.178
Mof_C 	C 	0.5943	0.8268	0.3545	0.101
Mof_H 	H 	0.6193	0.9166	0.3551	-0.026
Mof_C 	C 	0.5933	0.5894	0.314	0.027
Mof_H 	H 	0.6178	0.5094	0.2892	0.006
Mof_C 	C 	0.5209	0.5711	0.3478	-0.038
Mof_C 	C 	0.4888	0.6926	0.3891	0.026
Mof_H 	H 	0.4401	0.6845	0.4146	0.009
Mof_N 	N 	0.6308	0.2163	0.8149	-0.198
Mof_N 	N 	0.52584	0.319	0.8927	-0.179
Mof_C 	C 	0.5943	0.3268	0.8545	0.106
Mof_H 	H 	0.6193	0.4166	0.8551	-0.027
Mof_C 	C 	0.5933	0.0894	0.814	0.048
Mof_H 	H 	0.6178	0.0094	0.7892	-0.007
Mof_C 	C 	0.5209	0.0711	0.8478	-0.08
Mof_C 	C 	0.4888	0.1926	0.8891	0.045
Mof_H 	H 	0.4401	0.1845	0.9146	0.003
Mof_N 	N 	0.1192	0.9663	0.0649	-0.17
Mof_N 	N 	0.22416	0.069	0.1427	-0.201
Mof_C 	C 	0.1557	0.0768	0.1045	0.063
Mof_H 	H 	0.1307	0.1666	0.1051	-0.029
Mof_C 	C 	0.1567	0.8394	0.064	0.03
Mof_H 	H 	0.1322	0.7594	0.0392	-0.002
Mof_C 	C 	0.2291	0.8211	0.0978	-0.049
Mof_C 	C 	0.2612	0.9426	0.1391	0.058
Mof_H 	H 	0.3099	0.9345	0.1646	0
Mof_N 	N 	0.1192	0.4663	0.5649	-0.195
Mof_N 	N 	0.22416	0.569	0.6427	-0.189
Mof_C 	C 	0.1557	0.5768	0.6045	0.1
Mof_H 	H 	0.1307	0.6666	0.6051	-0.034
Mof_C 	C 	0.1567	0.3394	0.564	0.029
Mof_H 	H 	0.1322	0.2594	0.5392	0.002
Mof_C 	C 	0.2291	0.3211	0.5978	-0.044
Mof_C 	C 	0.2612	0.4426	0.6391	0.029
Mof_H 	H 	0.3099	0.4345	0.6646	0.003
Mof_N 	N 	0.6192	0.9663	0.5649	-0.172
Mof_N 	N 	0.72416	0.069	0.6427	-0.199
Mof_C 	C 	0.6557	0.0768	0.6045	0.07
Mof_H 	H 	0.6307	0.1666	0.6051	-0.026
Mof_C 	C 	0.6567	0.8394	0.564	0.034
Mof_H 	H 	0.6322	0.7594	0.5392	0.008
Mof_C 	C 	0.7291	0.8211	0.5978	-0.045
Mof_C 	C 	0.7612	0.9426	0.6391	0.059
Mof_H 	H 	0.8099	0.9345	0.6646	0.004
Mof_N 	N 	0.6192	0.4663	0.0649	-0.196
Mof_N 	N 	0.72416	0.569	0.1427	-0.189
Mof_C 	C 	0.6557	0.5768	0.1045	0.097
Mof_H 	H 	0.6307	0.6666	0.1051	-0.034
Mof_C 	C 	0.6567	0.3394	0.064	0.026
Mof_H 	H 	0.6322	0.2594	0.0392	-0.004
Mof_C 	C 	0.7291	0.3211	0.0978	-0.047
Mof_C 	C 	0.7612	0.4426	0.1391	0.026
Mof_H 	H 	0.8099	0.4345	0.1646	0.004
Mof_N 	N 	0.3808	0.5337	0.0649	-0.195
Mof_N 	N 	0.27584	0.431	0.1427	-0.188
Mof_C 	C 	0.3443	0.4232	0.1045	0.096
Mof_H 	H 	0.3693	0.3334	0.1051	-0.04
Mof_C 	C 	0.3433	0.6606	0.064	0.02
Mof_H 	H 	0.3678	0.7406	0.0392	0.003
Mof_C 	C 	0.2709	0.6789	0.0978	-0.036
Mof_C 	C 	0.2388	0.5574	0.1391	0.021
Mof_H 	H 	0.1901	0.5655	0.1646	0.004
Mof_N 	N 	0.3808	0.0337	0.5649	-0.208
Mof_N 	N 	0.27584	0.931	0.6427	-0.176
Mof_C 	C 	0.3443	0.9232	0.6045	0.131
Mof_H 	H 	0.3693	0.8334	0.6051	-0.04
Mof_C 	C 	0.3433	0.1606	0.564	0.017
Mof_H 	H 	0.3678	0.2406	0.5392	0.011
Mof_C 	C 	0.2709	0.1789	0.5978	-0.03
Mof_C 	C 	0.2388	0.0574	0.6391	-0.008
Mof_H 	H 	0.1901	0.0655	0.6646	0.007
Mof_N 	N 	0.8808	0.5337	0.5649	-0.188
Mof_N 	N 	0.77584	0.431	0.6427	-0.187
Mof_C 	C 	0.8443	0.4232	0.6045	0.101
Mof_H 	H 	0.8693	0.3334	0.6051	-0.033
Mof_C 	C 	0.8433	0.6606	0.564	0.023
Mof_H 	H 	0.8678	0.7406	0.5392	0.015
Mof_C 	C 	0.7709	0.6789	0.5978	-0.031
Mof_C 	C 	0.7388	0.5574	0.6391	0.024
Mof_H 	H 	0.6901	0.5655	0.6646	0.007
Mof_N 	N 	0.8808	0.0337	0.0649	-0.2
Mof_N 	N 	0.77584	0.931	0.1427	-0.175
Mof_C 	C 	0.8443	0.9232	0.1045	0.126
Mof_H 	H 	0.8693	0.8334	0.1051	-0.037
Mof_C 	C 	0.8433	0.1606	0.064	0.013
Mof_H 	H 	0.8678	0.2406	0.0392	0.008
Mof_C 	C 	0.7709	0.1789	0.0978	-0.032
Mof_C 	C 	0.7388	0.0574	0.1391	-0.01
Mof_H 	H 	0.6901	0.0655	0.1646	0.006
Mof_Ag	Ag	0.75	0.25	0.75008	0.591
Mof_Ag	Ag	0.75	0.75	0.25008	0.594
Mof_Ag	Ag	0.25	0.75	0.75008	0.605
Mof_Ag	Ag	0.25	0.25	0.25008	0.575
Mof_Ag	Ag	-3.59526e-37	0	8e-05	0.448
Mof_Ag	Ag	-3.46806e-33	0.5	0.50008	0.554
Mof_Ag	Ag	0.5	0.5	8e-05	0.527
Mof_Ag	Ag	0.5	0	0.50008	0.542
_end
