data_functionalizedCrystal
_audit_creation_method	'EQeq! by Chris Wilmer'
_symmetry_space_group_name_H-M	'P1'
_symmetry_Int_Tables_number	1
_symmetry_cell_setting	triclinic
loop_
_symmetry_equiv_pos_as_xyz
  x,y,z
_cell_length_a	16.16
_cell_length_b	16.16
_cell_length_c	13.46
_cell_angle_alpha	90
_cell_angle_beta	90
_cell_angle_gamma	90
loop_
_atom_site_label
_atom_site_type_symbol
_atom_site_fract_x
_atom_site_fract_y
_atom_site_fract_z
_atom_site_charge
Mof_C 	C 	0.3314	0.0328	0.2363	-0.207
Mof_N 	N 	0.4672	0.1686	0.2363	-0.208
Mof_C 	C 	0.8314	0.5328	0.7363	-0.207
Mof_N 	N 	0.9672	0.6686	0.7363	-0.208
Mof_C 	C 	0.6686	0.9672	0.2363	-0.207
Mof_N 	N 	0.5328	0.8314	0.2363	-0.208
Mof_C 	C 	0.1686	0.4672	0.7363	-0.207
Mof_N 	N 	0.0328	0.3314	0.7363	-0.208
Mof_C 	C 	0.9672	0.3314	0.2363	-0.207
Mof_N 	N 	0.8314	0.4672	0.2363	-0.208
Mof_C 	C 	0.4672	0.8314	0.7363	-0.207
Mof_N 	N 	0.3314	0.9672	0.7363	-0.208
Mof_C 	C 	0.0328	0.6686	0.2363	-0.207
Mof_N 	N 	0.1686	0.5328	0.2363	-0.208
Mof_C 	C 	0.5328	0.1686	0.7363	-0.207
Mof_N 	N 	0.6686	0.0328	0.7363	-0.208
Mof_C 	C 	0.6686	0.0328	0.2637	-0.207
Mof_N 	N 	0.5328	0.1686	0.2637	-0.208
Mof_C 	C 	0.1686	0.5328	0.7637	-0.207
Mof_N 	N 	0.0328	0.6686	0.7637	-0.208
Mof_C 	C 	0.3314	0.9672	0.2637	-0.207
Mof_N 	N 	0.4672	0.8314	0.2637	-0.208
Mof_C 	C 	0.8314	0.4672	0.7637	-0.207
Mof_N 	N 	0.9672	0.3314	0.7637	-0.208
Mof_C 	C 	0.0328	0.3314	0.2637	-0.207
Mof_N 	N 	0.1686	0.4672	0.2637	-0.208
Mof_C 	C 	0.5328	0.8314	0.7637	-0.207
Mof_N 	N 	0.6686	0.9672	0.7637	-0.208
Mof_C 	C 	0.9672	0.6686	0.2637	-0.207
Mof_N 	N 	0.8314	0.5328	0.2637	-0.208
Mof_C 	C 	0.4672	0.1686	0.7637	-0.207
Mof_N 	N 	0.3314	0.0328	0.7637	-0.208
Mof_Cu	Cu	0.35424	0.14576	0.18818	0.835
Mof_C 	C 	0.3529	0.1471	0.0423	-0.21
Mof_C 	C 	0.2735	0.2265	0.238	-0.21
Mof_Cu	Cu	0.64576	0.85424	0.18818	0.835
Mof_C 	C 	0.6471	0.8529	0.0423	-0.21
Mof_C 	C 	0.7265	0.7735	0.238	-0.21
Mof_Cu	Cu	0.14576	0.35424	0.68818	0.835
Mof_C 	C 	0.1471	0.3529	0.5423	-0.21
Mof_C 	C 	0.2265	0.2735	0.738	-0.21
Mof_Cu	Cu	0.85424	0.35424	0.18818	0.835
Mof_C 	C 	0.8529	0.3529	0.0423	-0.21
Mof_C 	C 	0.7735	0.2735	0.238	-0.21
Mof_Cu	Cu	0.14576	0.64576	0.18818	0.835
Mof_C 	C 	0.1471	0.6471	0.0423	-0.21
Mof_C 	C 	0.2265	0.7265	0.238	-0.21
Mof_Cu	Cu	0.64576	0.14576	0.31182	0.835
Mof_C 	C 	0.6471	0.1471	0.4577	-0.21
Mof_C 	C 	0.7265	0.2265	0.262	-0.21
Mof_Cu	Cu	0.35424	0.85424	0.31182	0.835
Mof_C 	C 	0.3529	0.8529	0.4577	-0.21
Mof_C 	C 	0.2735	0.7735	0.262	-0.21
Mof_Cu	Cu	0.14576	0.35424	0.31182	0.835
Mof_C 	C 	0.1471	0.3529	0.4577	-0.21
Mof_C 	C 	0.2265	0.2735	0.262	-0.21
Mof_Cu	Cu	0.85424	0.64576	0.31182	0.835
Mof_C 	C 	0.8529	0.6471	0.4577	-0.21
Mof_C 	C 	0.7735	0.7265	0.262	-0.21
Mof_Cu	Cu	0.64576	0.85424	0.81182	0.835
Mof_C 	C 	0.6471	0.8529	0.9577	-0.21
Mof_C 	C 	0.7265	0.7735	0.762	-0.21
Mof_Cu	Cu	0.35424	0.14576	0.81182	0.835
Mof_C 	C 	0.3529	0.1471	0.9577	-0.21
Mof_C 	C 	0.2735	0.2265	0.762	-0.21
Mof_Cu	Cu	0.14576	0.64576	0.81182	0.835
Mof_C 	C 	0.1471	0.6471	0.9577	-0.21
Mof_C 	C 	0.2265	0.7265	0.762	-0.21
Mof_Cu	Cu	0.85424	0.35424	0.81182	0.835
Mof_C 	C 	0.8529	0.3529	0.9577	-0.21
Mof_C 	C 	0.7735	0.2735	0.762	-0.21
Mof_Cu	Cu	0.35424	0.85424	0.68818	0.835
Mof_C 	C 	0.3529	0.8529	0.5423	-0.21
Mof_C 	C 	0.2735	0.7735	0.738	-0.21
Mof_Cu	Cu	0.64576	0.14576	0.68818	0.835
Mof_C 	C 	0.6471	0.1471	0.5423	-0.21
Mof_C 	C 	0.7265	0.2265	0.738	-0.21
Mof_Cu	Cu	0.85424	0.64576	0.68818	0.835
Mof_C 	C 	0.8529	0.6471	0.5423	-0.21
Mof_C 	C 	0.7735	0.7265	0.738	-0.21
_end
