data_functionalizedCrystal
_audit_creation_method	'EQeq! by Chris Wilmer'
_symmetry_space_group_name_H-M	'P1'
_symmetry_Int_Tables_number	1
_symmetry_cell_setting	triclinic
loop_
_symmetry_equiv_pos_as_xyz
  x,y,z
_cell_length_a	18.519
_cell_length_b	18.519
_cell_length_c	38.8764
_cell_angle_alpha	90
_cell_angle_beta	90
_cell_angle_gamma	120
loop_
_atom_site_label
_atom_site_type_symbol
_atom_site_fract_x
_atom_site_fract_y
_atom_site_fract_z
_atom_site_charge
Mof_O 	O 	0.3712	0.89022	0.00238	-0.41
Mof_C 	C 	0.36015	0.90849	0.97241	0.356
Mof_C 	C 	0.1682	0.765	0.84445	-0.032
Mof_C 	C 	0.27925	0.85002	0.95543	-0.077
Mof_C 	C 	0.26333	0.86528	0.92196	-0.045
Mof_H 	H 	0.3017	0.9142	0.9109	0.056
Mof_C 	C 	0.0335	0.8131	0.8808	-0.549
Mof_H 	H 	0.052	0.8618	0.8949	0.175
Mof_H 	H 	0.0166	0.7652	0.8952	0.191
Mof_H 	H 	0.9872	0.8053	0.8669	0.184
Mof_O 	O 	0.41161	0.97104	0.95553	-0.412
Mof_C 	C 	0.1051	0.8244	0.85731	0.104
Mof_O 	O 	0.03787	0.22355	0.33571	-0.411
Mof_C 	C 	0.02682	0.24182	0.30574	0.354
Mof_C 	C 	0.83487	0.09833	0.17778	-0.032
Mof_C 	C 	0.94592	0.18335	0.28876	-0.077
Mof_C 	C 	0.93	0.19861	0.25529	-0.047
Mof_H 	H 	0.96837	0.24753	0.24423	0.056
Mof_C 	C 	0.70017	0.14643	0.21413	-0.552
Mof_H 	H 	0.71867	0.19513	0.22823	0.175
Mof_H 	H 	0.68327	0.09853	0.22853	0.191
Mof_H 	H 	0.65387	0.13863	0.20023	0.184
Mof_O 	O 	0.07828	0.30437	0.28886	-0.413
Mof_C 	C 	0.77177	0.15773	0.19064	0.104
Mof_O 	O 	0.70453	0.55689	0.66905	-0.411
Mof_C 	C 	0.69348	0.57516	0.63908	0.355
Mof_C 	C 	0.50153	0.43167	0.51112	-0.033
Mof_C 	C 	0.61258	0.51669	0.6221	-0.078
Mof_C 	C 	0.59666	0.53195	0.58863	-0.046
Mof_H 	H 	0.63503	0.58087	0.57757	0.055
Mof_C 	C 	0.36683	0.47977	0.54747	-0.552
Mof_H 	H 	0.38533	0.52847	0.56157	0.175
Mof_H 	H 	0.34993	0.43187	0.56187	0.191
Mof_H 	H 	0.32053	0.47197	0.53357	0.184
Mof_O 	O 	0.74494	0.63771	0.6222	-0.413
Mof_C 	C 	0.43843	0.49107	0.52398	0.104
Mof_O 	O 	0.10978	0.48098	0.00238	-0.411
Mof_C 	C 	0.09151	0.45166	0.97241	0.355
Mof_C 	C 	0.235	0.4032	0.84445	-0.033
Mof_C 	C 	0.14998	0.42923	0.95543	-0.078
Mof_C 	C 	0.13472	0.39805	0.92196	-0.046
Mof_H 	H 	0.0858	0.3875	0.9109	0.055
Mof_C 	C 	0.1869	0.2204	0.8808	-0.553
Mof_H 	H 	0.1382	0.1902	0.8949	0.175
Mof_H 	H 	0.2348	0.2514	0.8952	0.191
Mof_H 	H 	0.1947	0.1819	0.8669	0.184
Mof_O 	O 	0.02896	0.44057	0.95553	-0.413
Mof_C 	C 	0.1756	0.2807	0.85731	0.104
Mof_O 	O 	0.77645	0.81431	0.33571	-0.411
Mof_C 	C 	0.75818	0.78499	0.30574	0.355
Mof_C 	C 	0.90167	0.73653	0.17778	-0.032
Mof_C 	C 	0.81665	0.76256	0.28876	-0.078
Mof_C 	C 	0.80139	0.73138	0.25529	-0.046
Mof_H 	H 	0.75247	0.72083	0.24423	0.055
Mof_C 	C 	0.85357	0.55373	0.21413	-0.552
Mof_H 	H 	0.80487	0.52353	0.22823	0.175
Mof_H 	H 	0.90147	0.58473	0.22853	0.191
Mof_H 	H 	0.86137	0.51523	0.20023	0.184
Mof_O 	O 	0.69563	0.7739	0.28886	-0.413
Mof_C 	C 	0.84227	0.61403	0.19064	0.104
Mof_O 	O 	0.44311	0.14765	0.66905	-0.411
Mof_C 	C 	0.42484	0.11833	0.63908	0.355
Mof_C 	C 	0.56833	0.06987	0.51112	-0.033
Mof_C 	C 	0.48331	0.0959	0.6221	-0.078
Mof_C 	C 	0.46805	0.06472	0.58863	-0.046
Mof_H 	H 	0.41913	0.05417	0.57757	0.055
Mof_C 	C 	0.52023	0.88707	0.54747	-0.552
Mof_H 	H 	0.47153	0.85687	0.56157	0.175
Mof_H 	H 	0.56813	0.91807	0.56187	0.191
Mof_H 	H 	0.52803	0.84857	0.53357	0.184
Mof_O 	O 	0.36229	0.10724	0.6222	-0.413
Mof_C 	C 	0.50893	0.94737	0.52398	0.104
Mof_O 	O 	0.51902	0.6288	0.00238	-0.411
Mof_C 	C 	0.54834	0.63985	0.97241	0.355
Mof_C 	C 	0.5968	0.8318	0.84445	-0.033
Mof_C 	C 	0.57077	0.72075	0.95543	-0.078
Mof_C 	C 	0.60195	0.73667	0.92196	-0.046
Mof_H 	H 	0.6125	0.6983	0.9109	0.055
Mof_C 	C 	0.7796	0.9665	0.8808	-0.549
Mof_H 	H 	0.8098	0.948	0.8949	0.174
Mof_H 	H 	0.7486	0.9834	0.8952	0.19
Mof_H 	H 	0.8181	0.0128	0.8669	0.183
Mof_O 	O 	0.55943	0.58839	0.95553	-0.413
Mof_C 	C 	0.7193	0.8949	0.85731	0.103
Mof_O 	O 	0.18569	0.96213	0.33571	-0.411
Mof_C 	C 	0.21501	0.97318	0.30574	0.354
Mof_C 	C 	0.26347	0.16513	0.17778	-0.033
Mof_C 	C 	0.23744	0.05408	0.28876	-0.077
Mof_C 	C 	0.26862	0.07	0.25529	-0.047
Mof_H 	H 	0.27917	0.03163	0.24423	0.056
Mof_C 	C 	0.44627	0.29983	0.21413	-0.552
Mof_H 	H 	0.47647	0.28133	0.22823	0.175
Mof_H 	H 	0.41527	0.31673	0.22853	0.191
Mof_H 	H 	0.48477	0.34613	0.20023	0.184
Mof_O 	O 	0.2261	0.92172	0.28886	-0.413
Mof_C 	C 	0.38597	0.22823	0.19064	0.104
Mof_O 	O 	0.85235	0.29547	0.66905	-0.411
Mof_C 	C 	0.88167	0.30652	0.63908	0.355
Mof_C 	C 	0.93013	0.49847	0.51112	-0.033
Mof_C 	C 	0.9041	0.38742	0.6221	-0.078
Mof_C 	C 	0.93528	0.40334	0.58863	-0.046
Mof_H 	H 	0.94583	0.36497	0.57757	0.055
Mof_C 	C 	0.11293	0.63317	0.54747	-0.552
Mof_H 	H 	0.14313	0.61467	0.56157	0.175
Mof_H 	H 	0.08193	0.65007	0.56187	0.191
Mof_H 	H 	0.15143	0.67947	0.53357	0.184
Mof_O 	O 	0.89276	0.25506	0.6222	-0.413
Mof_C 	C 	0.05263	0.56157	0.52398	0.104
Mof_O 	O 	0.89022	0.3712	0.99762	-0.411
Mof_C 	C 	0.90849	0.36015	0.02759	0.355
Mof_C 	C 	0.765	0.1682	0.15555	-0.033
Mof_C 	C 	0.85002	0.27925	0.04457	-0.078
Mof_C 	C 	0.86528	0.26333	0.07804	-0.046
Mof_H 	H 	0.9142	0.3017	0.0891	0.055
Mof_C 	C 	0.8131	0.0335	0.1192	-0.55
Mof_H 	H 	0.8618	0.052	0.1051	0.174
Mof_H 	H 	0.7652	0.0166	0.1048	0.19
Mof_H 	H 	0.8053	0.9872	0.1331	0.183
Mof_O 	O 	0.97104	0.41161	0.04447	-0.413
Mof_C 	C 	0.8244	0.1051	0.14269	0.103
Mof_O 	O 	0.55689	0.70453	0.33095	-0.411
Mof_C 	C 	0.57516	0.69348	0.36092	0.355
Mof_C 	C 	0.43167	0.50153	0.48888	-0.033
Mof_C 	C 	0.51669	0.61258	0.3779	-0.078
Mof_C 	C 	0.53195	0.59666	0.41137	-0.046
Mof_H 	H 	0.58087	0.63503	0.42243	0.055
Mof_C 	C 	0.47977	0.36683	0.45253	-0.552
Mof_H 	H 	0.52847	0.38533	0.43843	0.175
Mof_H 	H 	0.43187	0.34993	0.43813	0.191
Mof_H 	H 	0.47197	0.32053	0.46643	0.184
Mof_O 	O 	0.63771	0.74494	0.3778	-0.413
Mof_C 	C 	0.49107	0.43843	0.47602	0.104
Mof_O 	O 	0.22355	0.03787	0.66429	-0.411
Mof_C 	C 	0.24182	0.02682	0.69426	0.354
Mof_C 	C 	0.09833	0.83487	0.82222	-0.032
Mof_C 	C 	0.18335	0.94592	0.71124	-0.077
Mof_C 	C 	0.19861	0.93	0.74471	-0.047
Mof_H 	H 	0.24753	0.96837	0.75577	0.056
Mof_C 	C 	0.14643	0.70017	0.78587	-0.552
Mof_H 	H 	0.19513	0.71867	0.77177	0.175
Mof_H 	H 	0.09853	0.68327	0.77147	0.191
Mof_H 	H 	0.13863	0.65387	0.79977	0.184
Mof_O 	O 	0.30437	0.07828	0.71114	-0.413
Mof_C 	C 	0.15773	0.77177	0.80936	0.104
Mof_O 	O 	0.48098	0.10978	0.99762	-0.411
Mof_C 	C 	0.45166	0.09151	0.02759	0.355
Mof_C 	C 	0.4032	0.235	0.15555	-0.033
Mof_C 	C 	0.42923	0.14998	0.04457	-0.078
Mof_C 	C 	0.39805	0.13472	0.07804	-0.046
Mof_H 	H 	0.3875	0.0858	0.0891	0.055
Mof_C 	C 	0.2204	0.1869	0.1192	-0.553
Mof_H 	H 	0.1902	0.1382	0.1051	0.175
Mof_H 	H 	0.2514	0.2348	0.1048	0.191
Mof_H 	H 	0.1819	0.1947	0.1331	0.184
Mof_O 	O 	0.44057	0.02896	0.04447	-0.413
Mof_C 	C 	0.2807	0.1756	0.14269	0.104
Mof_O 	O 	0.14765	0.44311	0.33095	-0.411
Mof_C 	C 	0.11833	0.42484	0.36092	0.355
Mof_C 	C 	0.06987	0.56833	0.48888	-0.033
Mof_C 	C 	0.0959	0.48331	0.3779	-0.078
Mof_C 	C 	0.06472	0.46805	0.41137	-0.046
Mof_H 	H 	0.05417	0.41913	0.42243	0.055
Mof_C 	C 	0.88707	0.52023	0.45253	-0.552
Mof_H 	H 	0.85687	0.47153	0.43843	0.175
Mof_H 	H 	0.91807	0.56813	0.43813	0.191
Mof_H 	H 	0.84857	0.52803	0.46643	0.184
Mof_O 	O 	0.10724	0.36229	0.3778	-0.413
Mof_C 	C 	0.94737	0.50893	0.47602	0.104
Mof_O 	O 	0.81431	0.77645	0.66429	-0.411
Mof_C 	C 	0.78499	0.75818	0.69426	0.355
Mof_C 	C 	0.73653	0.90167	0.82222	-0.032
Mof_C 	C 	0.76256	0.81665	0.71124	-0.078
Mof_C 	C 	0.73138	0.80139	0.74471	-0.046
Mof_H 	H 	0.72083	0.75247	0.75577	0.055
Mof_C 	C 	0.55373	0.85357	0.78587	-0.552
Mof_H 	H 	0.52353	0.80487	0.77177	0.175
Mof_H 	H 	0.58473	0.90147	0.77147	0.191
Mof_H 	H 	0.51523	0.86137	0.79977	0.184
Mof_O 	O 	0.7739	0.69563	0.71114	-0.413
Mof_C 	C 	0.61403	0.84227	0.80936	0.104
Mof_O 	O 	0.6288	0.51902	0.99762	-0.411
Mof_C 	C 	0.63985	0.54834	0.02759	0.355
Mof_C 	C 	0.8318	0.5968	0.15555	-0.033
Mof_C 	C 	0.72075	0.57077	0.04457	-0.078
Mof_C 	C 	0.73667	0.60195	0.07804	-0.046
Mof_H 	H 	0.6983	0.6125	0.0891	0.055
Mof_C 	C 	0.9665	0.7796	0.1192	-0.549
Mof_H 	H 	0.948	0.8098	0.1051	0.174
Mof_H 	H 	0.9834	0.7486	0.1048	0.19
Mof_H 	H 	0.0128	0.8181	0.1331	0.183
Mof_O 	O 	0.58839	0.55943	0.04447	-0.413
Mof_C 	C 	0.8949	0.7193	0.14269	0.103
Mof_O 	O 	0.29547	0.85235	0.33095	-0.411
Mof_C 	C 	0.30652	0.88167	0.36092	0.355
Mof_C 	C 	0.49847	0.93013	0.48888	-0.033
Mof_C 	C 	0.38742	0.9041	0.3779	-0.078
Mof_C 	C 	0.40334	0.93528	0.41137	-0.046
Mof_H 	H 	0.36497	0.94583	0.42243	0.055
Mof_C 	C 	0.63317	0.11293	0.45253	-0.552
Mof_H 	H 	0.61467	0.14313	0.43843	0.175
Mof_H 	H 	0.65007	0.08193	0.43813	0.191
Mof_H 	H 	0.67947	0.15143	0.46643	0.184
Mof_O 	O 	0.25506	0.89276	0.3778	-0.413
Mof_C 	C 	0.56157	0.05263	0.47602	0.104
Mof_O 	O 	0.96213	0.18569	0.66429	-0.411
Mof_C 	C 	0.97318	0.21501	0.69426	0.354
Mof_C 	C 	0.16513	0.26347	0.82222	-0.033
Mof_C 	C 	0.05408	0.23744	0.71124	-0.077
Mof_C 	C 	0.07	0.26862	0.74471	-0.047
Mof_H 	H 	0.03163	0.27917	0.75577	0.056
Mof_C 	C 	0.29983	0.44627	0.78587	-0.552
Mof_H 	H 	0.28133	0.47647	0.77177	0.175
Mof_H 	H 	0.31673	0.41527	0.77147	0.191
Mof_H 	H 	0.34613	0.48477	0.79977	0.184
Mof_O 	O 	0.92172	0.2261	0.71114	-0.413
Mof_C 	C 	0.22823	0.38597	0.80936	0.104
Mof_O 	O 	0.6288	0.10978	0.99762	-0.411
Mof_C 	C 	0.63985	0.09151	0.02759	0.355
Mof_C 	C 	0.8318	0.235	0.15555	-0.033
Mof_C 	C 	0.72075	0.14998	0.04457	-0.078
Mof_C 	C 	0.73667	0.13472	0.07804	-0.046
Mof_H 	H 	0.6983	0.0858	0.0891	0.055
Mof_C 	C 	0.9665	0.1869	0.1192	-0.55
Mof_H 	H 	0.948	0.1382	0.1051	0.174
Mof_H 	H 	0.9834	0.2348	0.1048	0.19
Mof_H 	H 	0.0128	0.1947	0.1331	0.183
Mof_O 	O 	0.58839	0.02896	0.04447	-0.413
Mof_C 	C 	0.8949	0.1756	0.14269	0.103
Mof_O 	O 	0.29547	0.44311	0.33095	-0.411
Mof_C 	C 	0.30652	0.42484	0.36092	0.355
Mof_C 	C 	0.49847	0.56833	0.48888	-0.033
Mof_C 	C 	0.38742	0.48331	0.3779	-0.078
Mof_C 	C 	0.40334	0.46805	0.41137	-0.046
Mof_H 	H 	0.36497	0.41913	0.42243	0.055
Mof_C 	C 	0.63317	0.52023	0.45253	-0.552
Mof_H 	H 	0.61467	0.47153	0.43843	0.175
Mof_H 	H 	0.65007	0.56813	0.43813	0.191
Mof_H 	H 	0.67947	0.52803	0.46643	0.184
Mof_O 	O 	0.25506	0.36229	0.3778	-0.413
Mof_C 	C 	0.56157	0.50893	0.47602	0.104
Mof_O 	O 	0.96213	0.77645	0.66429	-0.411
Mof_C 	C 	0.97318	0.75818	0.69426	0.354
Mof_C 	C 	0.16513	0.90167	0.82222	-0.032
Mof_C 	C 	0.05408	0.81665	0.71124	-0.077
Mof_C 	C 	0.07	0.80139	0.74471	-0.047
Mof_H 	H 	0.03163	0.75247	0.75577	0.056
Mof_C 	C 	0.29983	0.85357	0.78587	-0.552
Mof_H 	H 	0.28133	0.80487	0.77177	0.175
Mof_H 	H 	0.31673	0.90147	0.77147	0.191
Mof_H 	H 	0.34613	0.86137	0.79977	0.184
Mof_O 	O 	0.92172	0.69563	0.71114	-0.413
Mof_C 	C 	0.22823	0.84227	0.80936	0.104
Mof_O 	O 	0.89022	0.51902	0.99762	-0.411
Mof_C 	C 	0.90849	0.54834	0.02759	0.355
Mof_C 	C 	0.765	0.5968	0.15555	-0.033
Mof_C 	C 	0.85002	0.57077	0.04457	-0.078
Mof_C 	C 	0.86528	0.60195	0.07804	-0.046
Mof_H 	H 	0.9142	0.6125	0.0891	0.055
Mof_C 	C 	0.8131	0.7796	0.1192	-0.553
Mof_H 	H 	0.8618	0.8098	0.1051	0.175
Mof_H 	H 	0.7652	0.7486	0.1048	0.191
Mof_H 	H 	0.8053	0.8181	0.1331	0.184
Mof_O 	O 	0.97104	0.55943	0.04447	-0.413
Mof_C 	C 	0.8244	0.7193	0.14269	0.104
Mof_O 	O 	0.55689	0.85235	0.33095	-0.411
Mof_C 	C 	0.57516	0.88167	0.36092	0.355
Mof_C 	C 	0.43167	0.93013	0.48888	-0.033
Mof_C 	C 	0.51669	0.9041	0.3779	-0.078
Mof_C 	C 	0.53195	0.93528	0.41137	-0.046
Mof_H 	H 	0.58087	0.94583	0.42243	0.055
Mof_C 	C 	0.47977	0.11293	0.45253	-0.552
Mof_H 	H 	0.52847	0.14313	0.43843	0.175
Mof_H 	H 	0.43187	0.08193	0.43813	0.191
Mof_H 	H 	0.47197	0.15143	0.46643	0.184
Mof_O 	O 	0.63771	0.89276	0.3778	-0.413
Mof_C 	C 	0.49107	0.05263	0.47602	0.104
Mof_O 	O 	0.22355	0.18569	0.66429	-0.411
Mof_C 	C 	0.24182	0.21501	0.69426	0.355
Mof_C 	C 	0.09833	0.26347	0.82222	-0.032
Mof_C 	C 	0.18335	0.23744	0.71124	-0.078
Mof_C 	C 	0.19861	0.26862	0.74471	-0.046
Mof_H 	H 	0.24753	0.27917	0.75577	0.055
Mof_C 	C 	0.14643	0.44627	0.78587	-0.552
Mof_H 	H 	0.19513	0.47647	0.77177	0.175
Mof_H 	H 	0.09853	0.41527	0.77147	0.191
Mof_H 	H 	0.13863	0.48477	0.79977	0.184
Mof_O 	O 	0.30437	0.2261	0.71114	-0.413
Mof_C 	C 	0.15773	0.38597	0.80936	0.104
Mof_O 	O 	0.48098	0.3712	0.99762	-0.411
Mof_C 	C 	0.45166	0.36015	0.02759	0.355
Mof_C 	C 	0.4032	0.1682	0.15555	-0.033
Mof_C 	C 	0.42923	0.27925	0.04457	-0.078
Mof_C 	C 	0.39805	0.26333	0.07804	-0.046
Mof_H 	H 	0.3875	0.3017	0.0891	0.055
Mof_C 	C 	0.2204	0.0335	0.1192	-0.549
Mof_H 	H 	0.1902	0.052	0.1051	0.174
Mof_H 	H 	0.2514	0.0166	0.1048	0.19
Mof_H 	H 	0.1819	0.9872	0.1331	0.183
Mof_O 	O 	0.44057	0.41161	0.04447	-0.413
Mof_C 	C 	0.2807	0.1051	0.14269	0.103
Mof_O 	O 	0.14765	0.70453	0.33095	-0.411
Mof_C 	C 	0.11833	0.69348	0.36092	0.355
Mof_C 	C 	0.06987	0.50153	0.48888	-0.033
Mof_C 	C 	0.0959	0.61258	0.3779	-0.078
Mof_C 	C 	0.06472	0.59666	0.41137	-0.046
Mof_H 	H 	0.05417	0.63503	0.42243	0.055
Mof_C 	C 	0.88707	0.36683	0.45253	-0.552
Mof_H 	H 	0.85687	0.38533	0.43843	0.175
Mof_H 	H 	0.91807	0.34993	0.43813	0.191
Mof_H 	H 	0.84857	0.32053	0.46643	0.184
Mof_O 	O 	0.10724	0.74494	0.3778	-0.413
Mof_C 	C 	0.94737	0.43843	0.47602	0.104
Mof_O 	O 	0.81431	0.03787	0.66429	-0.411
Mof_C 	C 	0.78499	0.02682	0.69426	0.354
Mof_C 	C 	0.73653	0.83487	0.82222	-0.033
Mof_C 	C 	0.76256	0.94592	0.71124	-0.077
Mof_C 	C 	0.73138	0.93	0.74471	-0.047
Mof_H 	H 	0.72083	0.96837	0.75577	0.056
Mof_C 	C 	0.55373	0.70017	0.78587	-0.552
Mof_H 	H 	0.52353	0.71867	0.77177	0.175
Mof_H 	H 	0.58473	0.68327	0.77147	0.191
Mof_H 	H 	0.51523	0.65387	0.79977	0.184
Mof_O 	O 	0.7739	0.07828	0.71114	-0.413
Mof_C 	C 	0.61403	0.77177	0.80936	0.104
Mof_O 	O 	0.10978	0.6288	0.00238	-0.411
Mof_C 	C 	0.09151	0.63985	0.97241	0.355
Mof_C 	C 	0.235	0.8318	0.84445	-0.033
Mof_C 	C 	0.14998	0.72075	0.95543	-0.078
Mof_C 	C 	0.13472	0.73667	0.92196	-0.046
Mof_H 	H 	0.0858	0.6983	0.9109	0.055
Mof_C 	C 	0.1869	0.9665	0.8808	-0.55
Mof_H 	H 	0.1382	0.948	0.8949	0.174
Mof_H 	H 	0.2348	0.9834	0.8952	0.19
Mof_H 	H 	0.1947	0.0128	0.8669	0.183
Mof_O 	O 	0.02896	0.58839	0.95553	-0.413
Mof_C 	C 	0.1756	0.8949	0.85731	0.103
Mof_O 	O 	0.77645	0.96213	0.33571	-0.411
Mof_C 	C 	0.75818	0.97318	0.30574	0.354
Mof_C 	C 	0.90167	0.16513	0.17778	-0.032
Mof_C 	C 	0.81665	0.05408	0.28876	-0.077
Mof_C 	C 	0.80139	0.07	0.25529	-0.047
Mof_H 	H 	0.75247	0.03163	0.24423	0.056
Mof_C 	C 	0.85357	0.29983	0.21413	-0.552
Mof_H 	H 	0.80487	0.28133	0.22823	0.175
Mof_H 	H 	0.90147	0.31673	0.22853	0.191
Mof_H 	H 	0.86137	0.34613	0.20023	0.184
Mof_O 	O 	0.69563	0.92172	0.28886	-0.413
Mof_C 	C 	0.84227	0.22823	0.19064	0.104
Mof_O 	O 	0.44311	0.29547	0.66905	-0.411
Mof_C 	C 	0.42484	0.30652	0.63908	0.355
Mof_C 	C 	0.56833	0.49847	0.51112	-0.033
Mof_C 	C 	0.48331	0.38742	0.6221	-0.078
Mof_C 	C 	0.46805	0.40334	0.58863	-0.046
Mof_H 	H 	0.41913	0.36497	0.57757	0.055
Mof_C 	C 	0.52023	0.63317	0.54747	-0.552
Mof_H 	H 	0.47153	0.61467	0.56157	0.175
Mof_H 	H 	0.56813	0.65007	0.56187	0.191
Mof_H 	H 	0.52803	0.67947	0.53357	0.184
Mof_O 	O 	0.36229	0.25506	0.6222	-0.413
Mof_C 	C 	0.50893	0.56157	0.52398	0.104
Mof_O 	O 	0.51902	0.89022	0.00238	-0.411
Mof_C 	C 	0.54834	0.90849	0.97241	0.355
Mof_C 	C 	0.5968	0.765	0.84445	-0.033
Mof_C 	C 	0.57077	0.85002	0.95543	-0.078
Mof_C 	C 	0.60195	0.86528	0.92196	-0.046
Mof_H 	H 	0.6125	0.9142	0.9109	0.055
Mof_C 	C 	0.7796	0.8131	0.8808	-0.553
Mof_H 	H 	0.8098	0.8618	0.8949	0.175
Mof_H 	H 	0.7486	0.7652	0.8952	0.191
Mof_H 	H 	0.8181	0.8053	0.8669	0.184
Mof_O 	O 	0.55943	0.97104	0.95553	-0.413
Mof_C 	C 	0.7193	0.8244	0.85731	0.104
Mof_O 	O 	0.18569	0.22355	0.33571	-0.411
Mof_C 	C 	0.21501	0.24182	0.30574	0.355
Mof_C 	C 	0.26347	0.09833	0.17778	-0.032
Mof_C 	C 	0.23744	0.18335	0.28876	-0.078
Mof_C 	C 	0.26862	0.19861	0.25529	-0.046
Mof_H 	H 	0.27917	0.24753	0.24423	0.055
Mof_C 	C 	0.44627	0.14643	0.21413	-0.552
Mof_H 	H 	0.47647	0.19513	0.22823	0.175
Mof_H 	H 	0.41527	0.09853	0.22853	0.191
Mof_H 	H 	0.48477	0.13863	0.20023	0.184
Mof_O 	O 	0.2261	0.30437	0.28886	-0.413
Mof_C 	C 	0.38597	0.15773	0.19064	0.104
Mof_O 	O 	0.85235	0.55689	0.66905	-0.411
Mof_C 	C 	0.88167	0.57516	0.63908	0.355
Mof_C 	C 	0.93013	0.43167	0.51112	-0.033
Mof_C 	C 	0.9041	0.51669	0.6221	-0.078
Mof_C 	C 	0.93528	0.53195	0.58863	-0.046
Mof_H 	H 	0.94583	0.58087	0.57757	0.055
Mof_C 	C 	0.11293	0.47977	0.54747	-0.552
Mof_H 	H 	0.14313	0.52847	0.56157	0.175
Mof_H 	H 	0.08193	0.43187	0.56187	0.191
Mof_H 	H 	0.15143	0.47197	0.53357	0.184
Mof_O 	O 	0.89276	0.63771	0.6222	-0.413
Mof_C 	C 	0.05263	0.49107	0.52398	0.104
Mof_O 	O 	0.3712	0.48098	0.00238	-0.411
Mof_C 	C 	0.36015	0.45166	0.97241	0.355
Mof_C 	C 	0.1682	0.4032	0.84445	-0.033
Mof_C 	C 	0.27925	0.42923	0.95543	-0.078
Mof_C 	C 	0.26333	0.39805	0.92196	-0.046
Mof_H 	H 	0.3017	0.3875	0.9109	0.055
Mof_C 	C 	0.0335	0.2204	0.8808	-0.549
Mof_H 	H 	0.052	0.1902	0.8949	0.174
Mof_H 	H 	0.0166	0.2514	0.8952	0.19
Mof_H 	H 	0.9872	0.1819	0.8669	0.183
Mof_O 	O 	0.41161	0.44057	0.95553	-0.413
Mof_C 	C 	0.1051	0.2807	0.85731	0.103
Mof_O 	O 	0.03787	0.81431	0.33571	-0.411
Mof_C 	C 	0.02682	0.78499	0.30574	0.354
Mof_C 	C 	0.83487	0.73653	0.17778	-0.033
Mof_C 	C 	0.94592	0.76256	0.28876	-0.077
Mof_C 	C 	0.93	0.73138	0.25529	-0.047
Mof_H 	H 	0.96837	0.72083	0.24423	0.056
Mof_C 	C 	0.70017	0.55373	0.21413	-0.552
Mof_H 	H 	0.71867	0.52353	0.22823	0.175
Mof_H 	H 	0.68327	0.58473	0.22853	0.191
Mof_H 	H 	0.65387	0.51523	0.20023	0.184
Mof_O 	O 	0.07828	0.7739	0.28886	-0.413
Mof_C 	C 	0.77177	0.61403	0.19064	0.104
Mof_O 	O 	0.70453	0.14765	0.66905	-0.411
Mof_C 	C 	0.69348	0.11833	0.63908	0.355
Mof_C 	C 	0.50153	0.06987	0.51112	-0.033
Mof_C 	C 	0.61258	0.0959	0.6221	-0.078
Mof_C 	C 	0.59666	0.06472	0.58863	-0.046
Mof_H 	H 	0.63503	0.05417	0.57757	0.055
Mof_C 	C 	0.36683	0.88707	0.54747	-0.552
Mof_H 	H 	0.38533	0.85687	0.56157	0.175
Mof_H 	H 	0.34993	0.91807	0.56187	0.191
Mof_H 	H 	0.32053	0.84857	0.53357	0.184
Mof_O 	O 	0.74494	0.10724	0.6222	-0.413
Mof_C 	C 	0.43843	0.94737	0.52398	0.104
Mof_Cu	Cu	0.47601	0.95202	0.02764	0.903
Mof_Cu	Cu	0.14268	0.28535	0.36097	0.903
Mof_Cu	Cu	0.80934	0.61869	0.69431	0.903
Mof_Cu	Cu	0.04798	0.52399	0.02764	0.903
Mof_Cu	Cu	0.71465	0.85732	0.36097	0.903
Mof_Cu	Cu	0.38131	0.19066	0.69431	0.903
Mof_Cu	Cu	0.47601	0.52399	0.02764	0.903
Mof_Cu	Cu	0.14268	0.85732	0.36097	0.903
Mof_Cu	Cu	0.80934	0.19066	0.69431	0.903
Mof_Cu	Cu	0.95202	0.47601	0.97236	0.903
Mof_Cu	Cu	0.61869	0.80934	0.30569	0.903
Mof_Cu	Cu	0.28535	0.14268	0.63903	0.903
Mof_Cu	Cu	0.52399	0.04798	0.97236	0.903
Mof_Cu	Cu	0.19066	0.38131	0.30569	0.903
Mof_Cu	Cu	0.85732	0.71465	0.63903	0.903
Mof_Cu	Cu	0.52399	0.47601	0.97236	0.903
Mof_Cu	Cu	0.19066	0.80934	0.30569	0.903
Mof_Cu	Cu	0.85732	0.14268	0.63903	0.903
Mof_C 	C 	0.22187	0.77813	0.97196	0.016
Mof_H 	H 	0.2318	0.7682	0.9944	0.051
Mof_C 	C 	0.19128	0.80872	0.90489	0.037
Mof_C 	C 	0.17716	0.82284	0.86798	-0.069
Mof_C 	C 	0.88854	0.11146	0.30529	0.015
Mof_H 	H 	0.89847	0.10153	0.32773	0.052
Mof_C 	C 	0.85795	0.14205	0.23822	0.038
Mof_C 	C 	0.84383	0.15617	0.20131	-0.07
Mof_C 	C 	0.5552	0.4448	0.63863	0.016
Mof_H 	H 	0.56513	0.43487	0.66107	0.051
Mof_C 	C 	0.52461	0.47539	0.57156	0.037
Mof_C 	C 	0.51049	0.48951	0.53465	-0.069
Mof_C 	C 	0.22187	0.44374	0.97196	0.016
Mof_H 	H 	0.2318	0.4636	0.9944	0.051
Mof_C 	C 	0.19128	0.38256	0.90489	0.037
Mof_C 	C 	0.17716	0.35432	0.86798	-0.069
Mof_C 	C 	0.88854	0.77707	0.30529	0.016
Mof_H 	H 	0.89847	0.79693	0.32773	0.052
Mof_C 	C 	0.85795	0.71589	0.23822	0.037
Mof_C 	C 	0.84383	0.68765	0.20131	-0.07
Mof_C 	C 	0.5552	0.11041	0.63863	0.016
Mof_H 	H 	0.56513	0.13027	0.66107	0.051
Mof_C 	C 	0.52461	0.04923	0.57156	0.037
Mof_C 	C 	0.51049	0.02099	0.53465	-0.07
Mof_C 	C 	0.55626	0.77813	0.97196	0.016
Mof_H 	H 	0.5364	0.7682	0.9944	0.051
Mof_C 	C 	0.61744	0.80872	0.90489	0.037
Mof_C 	C 	0.64568	0.82284	0.86798	-0.069
Mof_C 	C 	0.22293	0.11146	0.30529	0.016
Mof_H 	H 	0.20307	0.10153	0.32773	0.052
Mof_C 	C 	0.28411	0.14205	0.23822	0.037
Mof_C 	C 	0.31235	0.15617	0.20131	-0.07
Mof_C 	C 	0.88959	0.4448	0.63863	0.016
Mof_H 	H 	0.86973	0.43487	0.66107	0.051
Mof_C 	C 	0.95077	0.47539	0.57156	0.037
Mof_C 	C 	0.97901	0.48951	0.53465	-0.07
Mof_C 	C 	0.77813	0.22187	0.02804	0.016
Mof_H 	H 	0.7682	0.2318	0.0056	0.051
Mof_C 	C 	0.80872	0.19128	0.09511	0.037
Mof_C 	C 	0.82284	0.17716	0.13202	-0.069
Mof_C 	C 	0.4448	0.5552	0.36137	0.016
Mof_H 	H 	0.43487	0.56513	0.33893	0.051
Mof_C 	C 	0.47539	0.52461	0.42844	0.037
Mof_C 	C 	0.48951	0.51049	0.46535	-0.069
Mof_C 	C 	0.11146	0.88854	0.69471	0.015
Mof_H 	H 	0.10153	0.89847	0.67227	0.052
Mof_C 	C 	0.14205	0.85795	0.76178	0.038
Mof_C 	C 	0.15617	0.84383	0.79869	-0.07
Mof_C 	C 	0.44374	0.22187	0.02804	0.016
Mof_H 	H 	0.4636	0.2318	0.0056	0.051
Mof_C 	C 	0.38256	0.19128	0.09511	0.037
Mof_C 	C 	0.35432	0.17716	0.13202	-0.069
Mof_C 	C 	0.11041	0.5552	0.36137	0.016
Mof_H 	H 	0.13027	0.56513	0.33893	0.051
Mof_C 	C 	0.04923	0.52461	0.42844	0.037
Mof_C 	C 	0.02099	0.51049	0.46535	-0.07
Mof_C 	C 	0.77707	0.88854	0.69471	0.016
Mof_H 	H 	0.79693	0.89847	0.67227	0.052
Mof_C 	C 	0.71589	0.85795	0.76178	0.037
Mof_C 	C 	0.68765	0.84383	0.79869	-0.07
Mof_C 	C 	0.77813	0.55626	0.02804	0.016
Mof_H 	H 	0.7682	0.5364	0.0056	0.051
Mof_C 	C 	0.80872	0.61744	0.09511	0.037
Mof_C 	C 	0.82284	0.64568	0.13202	-0.069
Mof_C 	C 	0.4448	0.88959	0.36137	0.016
Mof_H 	H 	0.43487	0.86973	0.33893	0.051
Mof_C 	C 	0.47539	0.95077	0.42844	0.037
Mof_C 	C 	0.48951	0.97901	0.46535	-0.07
Mof_C 	C 	0.11146	0.22293	0.69471	0.016
Mof_H 	H 	0.10153	0.20307	0.67227	0.052
Mof_C 	C 	0.14205	0.28411	0.76178	0.037
Mof_C 	C 	0.15617	0.31235	0.79869	-0.07
_end
