data_functionalizedCrystal
_audit_creation_method	'EQeq! by Chris Wilmer'
_symmetry_space_group_name_H-M	'P1'
_symmetry_Int_Tables_number	1
_symmetry_cell_setting	triclinic
loop_
_symmetry_equiv_pos_as_xyz
  x,y,z
_cell_length_a	7.9204
_cell_length_b	8.321
_cell_length_c	17.4809
_cell_angle_alpha	90
_cell_angle_beta	90
_cell_angle_gamma	109.069
loop_
_atom_site_label
_atom_site_type_symbol
_atom_site_fract_x
_atom_site_fract_y
_atom_site_fract_z
_atom_site_charge
Mof_Eu	Eu	0.74424	0.71999	0.5222	2.225
Mof_Eu	Eu	0.75576	0.28001	0.0222	2.179
Mof_Eu	Eu	0.25576	0.28001	0.4778	2.298
Mof_Eu	Eu	0.24424	0.71999	0.9778	2.26
Mof_H 	H 	0.8387	0.6321	0.2893	0.025
Mof_H 	H 	0.1746	0.0736	0.2387	0.112
Mof_H 	H 	0.6613	0.3679	0.7893	-0.004
Mof_H 	H 	0.3254	0.9264	0.7387	0.107
Mof_H 	H 	0.1613	0.3679	0.7107	-0.011
Mof_H 	H 	0.8254	0.9264	0.7613	0.098
Mof_H 	H 	0.3387	0.6321	0.2107	0.011
Mof_H 	H 	0.6746	0.0736	0.2613	0.093
Mof_C 	C 	0.021	0.939	0.3712	0.645
Mof_C 	C 	0.013	0.876	0.2909	-0.066
Mof_C 	C 	0.915	0.722	0.2618	0.007
Mof_C 	C 	0.948	0.724	0.185	-0.113
Mof_C 	C 	0.905	0.592	0.1227	0.384
Mof_C 	C 	0.928	0.435	0.4751	0.229
Mof_C 	C 	0.479	0.061	0.8712	0.605
Mof_C 	C 	0.487	0.124	0.7909	-0.128
Mof_C 	C 	0.585	0.278	0.7618	0.09
Mof_C 	C 	0.552	0.276	0.685	-0.117
Mof_C 	C 	0.595	0.408	0.6227	0.467
Mof_C 	C 	0.572	0.565	0.9751	0.273
Mof_C 	C 	0.979	0.061	0.6288	0.544
Mof_C 	C 	0.987	0.124	0.7091	-0.182
Mof_C 	C 	0.085	0.278	0.7382	0.154
Mof_C 	C 	0.052	0.276	0.815	-0.087
Mof_C 	C 	0.095	0.408	0.8773	0.458
Mof_C 	C 	0.072	0.565	0.5249	0.319
Mof_C 	C 	0.521	0.939	0.1288	0.604
Mof_C 	C 	0.513	0.876	0.2091	-0.129
Mof_C 	C 	0.415	0.722	0.2382	0.086
Mof_C 	C 	0.448	0.724	0.315	-0.106
Mof_C 	C 	0.405	0.592	0.3773	0.457
Mof_C 	C 	0.428	0.435	0.0249	0.275
Mof_N 	N 	0.107	0.969	0.2345	-0.13
Mof_N 	N 	0.083	0.878	0.1703	-0.063
Mof_N 	N 	0.393	0.031	0.7345	-0.119
Mof_N 	N 	0.417	0.122	0.6703	-0.083
Mof_N 	N 	0.893	0.031	0.7655	-0.118
Mof_N 	N 	0.917	0.122	0.8297	-0.115
Mof_N 	N 	0.607	0.969	0.2655	-0.12
Mof_N 	N 	0.583	0.878	0.3297	-0.091
Mof_O 	O 	0.925	0.8475	0.4186	-0.686
Mof_O 	O 	0.1256	0.0825	0.3826	-0.637
Mof_O 	O 	0.7665	0.4696	0.1292	-0.499
Mof_O 	O 	-1.28261e-17	0.618	0.0639	-0.581
Mof_O 	O 	0.7958	0.48	0.4575	-0.462
Mof_O 	O 	0.9513	0.2984	0.4567	-0.456
Mof_O 	O 	0.575	0.1525	0.9186	-0.634
Mof_O 	O 	0.3744	0.9175	0.8826	-0.633
Mof_O 	O 	0.7335	0.5304	0.6292	-0.531
Mof_O 	O 	0.5	0.382	0.5639	-0.655
Mof_O 	O 	0.7042	0.52	0.9575	-0.473
Mof_O 	O 	0.5487	0.7016	0.9567	-0.439
Mof_O 	O 	0.075	0.1525	0.5814	-0.586
Mof_O 	O 	0.8744	0.9175	0.6174	-0.625
Mof_O 	O 	0.2335	0.5304	0.8708	-0.516
Mof_O 	O 	2.09211e-17	0.382	0.9361	-0.617
Mof_O 	O 	0.2042	0.52	0.5425	-0.471
Mof_O 	O 	0.0487	0.7016	0.5433	-0.418
Mof_O 	O 	0.425	0.8475	0.0814	-0.634
Mof_O 	O 	0.6256	0.0825	0.1174	-0.634
Mof_O 	O 	0.2665	0.4696	0.3708	-0.51
Mof_O 	O 	0.5	0.618	0.4361	-0.647
Mof_O 	O 	0.2958	0.48	0.0425	-0.455
Mof_O 	O 	0.4513	0.2984	0.0433	-0.424
_end
