data_functionalizedCrystal
_audit_creation_method	'EQeq! by Chris Wilmer'
_symmetry_space_group_name_H-M	'P1'
_symmetry_Int_Tables_number	1
_symmetry_cell_setting	triclinic
loop_
_symmetry_equiv_pos_as_xyz
  x,y,z
_cell_length_a	11.7527
_cell_length_b	12.4829
_cell_length_c	16.6089
_cell_angle_alpha	90
_cell_angle_beta	90.477
_cell_angle_gamma	90
loop_
_atom_site_label
_atom_site_type_symbol
_atom_site_fract_x
_atom_site_fract_y
_atom_site_fract_z
_atom_site_charge
Mof_Zn	Zn	0.64865	0.75197	0.74947	1.213
Mof_Zn	Zn	0.35135	0.24803	0.25053	1.213
Mof_H 	H 	0.7357	0.7394	0.5773	0.002
Mof_H 	H 	0.8195	0.9239	0.757	0.004
Mof_H 	H 	0.8786	0.8073	0.5007	0.155
Mof_H 	H 	0.9592	0.0028	0.6837	0.134
Mof_H 	H 	0.0771	0.0051	0.5664	0.113
Mof_H 	H 	0.0707	0.9078	0.5066	0.139
Mof_H 	H 	0.075	0.4848	0.9339	0.11
Mof_H 	H 	0.0784	0.5861	0.99	0.106
Mof_H 	H 	0.9635	0.5001	0.8121	0.14
Mof_H 	H 	0.8868	0.692	0.9968	0.166
Mof_H 	H 	0.8233	0.5831	0.7382	0.02
Mof_H 	H 	0.7461	0.7669	0.9188	0.043
Mof_H 	H 	0.2643	0.2606	0.4227	0.002
Mof_H 	H 	0.1805	0.0761	0.243	0.004
Mof_H 	H 	0.1214	0.1927	0.4993	0.155
Mof_H 	H 	0.0408	0.9972	0.3163	0.134
Mof_H 	H 	0.9229	0.9949	0.4336	0.113
Mof_H 	H 	0.9293	0.0922	0.4934	0.139
Mof_H 	H 	0.925	0.5152	0.0661	0.11
Mof_H 	H 	0.9216	0.4139	0.01	0.106
Mof_H 	H 	0.0365	0.4999	0.1879	0.14
Mof_H 	H 	0.1132	0.308	0.0032	0.166
Mof_H 	H 	0.1767	0.4169	0.2618	0.02
Mof_H 	H 	0.2539	0.2331	0.0812	0.043
Mof_C 	C 	0.5333	0.6609	0.6275	0.417
Mof_C 	C 	0.5147	0.5751	0.5639	-0.206
Mof_C 	C 	0.4129	0.5649	0.5223	0.27
Mof_C 	C 	0.3983	0.4922	0.4605	0.269
Mof_C 	C 	0.5244	0.9758	0.0781	0.291
Mof_C 	C 	0.5418	0.9012	0.0188	0.294
Mof_C 	C 	0.5176	0.9231	0.938	-0.19
Mof_C 	C 	0.5371	0.8397	0.8728	0.432
Mof_C 	C 	0.7826	0.792	0.5994	0.152
Mof_C 	C 	0.831	0.901	0.7045	0.137
Mof_C 	C 	0.8675	0.8332	0.5526	-0.22
Mof_C 	C 	0.9158	0.9481	0.6611	-0.224
Mof_C 	C 	0.9365	0.9134	0.5827	0.22
Mof_C 	C 	0.0263	0.9635	0.5323	-0.207
Mof_C 	C 	0.0288	0.5323	0.9664	-0.193
Mof_C 	C 	0.941	0.5857	0.914	0.186
Mof_C 	C 	0.9204	0.5543	0.8352	-0.202
Mof_C 	C 	0.8746	0.6674	0.9446	-0.21
Mof_C 	C 	0.835	0.6041	0.7913	0.129
Mof_C 	C 	0.7901	0.7123	0.8971	0.131
Mof_C 	C 	0.4667	0.3391	0.3725	0.417
Mof_C 	C 	0.4853	0.4249	0.4361	-0.206
Mof_C 	C 	0.5871	0.4351	0.4777	0.27
Mof_C 	C 	0.6017	0.5078	0.5395	0.269
Mof_C 	C 	0.4756	0.0242	0.9219	0.291
Mof_C 	C 	0.4582	0.0988	0.9812	0.294
Mof_C 	C 	0.4824	0.0769	0.062	-0.19
Mof_C 	C 	0.4629	0.1603	0.1272	0.432
Mof_C 	C 	0.2174	0.208	0.4006	0.152
Mof_C 	C 	0.169	0.099	0.2955	0.137
Mof_C 	C 	0.1325	0.1668	0.4474	-0.22
Mof_C 	C 	0.0842	0.0519	0.3389	-0.224
Mof_C 	C 	0.0635	0.0866	0.4173	0.22
Mof_C 	C 	0.9737	0.0365	0.4677	-0.207
Mof_C 	C 	0.9712	0.4677	0.0336	-0.193
Mof_C 	C 	0.059	0.4143	0.086	0.186
Mof_C 	C 	0.0796	0.4457	0.1648	-0.202
Mof_C 	C 	0.1254	0.3326	0.0554	-0.21
Mof_C 	C 	0.165	0.3959	0.2087	0.129
Mof_C 	C 	0.2099	0.2877	0.1029	0.131
Mof_N 	N 	0.7636	0.8235	0.6751	-0.276
Mof_N 	N 	0.7685	0.6809	0.8212	-0.271
Mof_N 	N 	0.2364	0.1765	0.3249	-0.276
Mof_N 	N 	0.2315	0.3191	0.1788	-0.271
Mof_O 	O 	0.5874	0.6293	0.6907	-0.435
Mof_O 	O 	0.5012	0.753	0.6146	-0.31
Mof_O 	O 	0.5932	0.8728	0.81247	-0.431
Mof_O 	O 	0.5043	0.7475	0.88302	-0.315
Mof_O 	O 	0.4126	0.3707	0.3093	-0.435
Mof_O 	O 	0.4988	0.247	0.3854	-0.31
Mof_O 	O 	0.4068	0.1272	0.18753	-0.431
Mof_O 	O 	0.4957	0.2525	0.11698	-0.315
Mof_F 	F 	0.3222	0.6227	0.54464	-0.386
Mof_F 	F 	0.2945	0.4864	0.42558	-0.413
Mof_F 	F 	0.5514	0.9476	0.15429	-0.393
Mof_F 	F 	0.5866	0.8061	0.039	-0.394
Mof_F 	F 	0.6778	0.3773	0.45536	-0.386
Mof_F 	F 	0.7055	0.5136	0.57442	-0.413
Mof_F 	F 	0.4486	0.0524	0.84571	-0.393
Mof_F 	F 	0.4134	0.1939	0.961	-0.394
Mof_Zn	Zn	0.85135	0.25197	0.75053	1.214
Mof_Zn	Zn	0.14865	0.74803	0.24947	1.214
Mof_H 	H 	0.7643	0.2394	0.9227	0.001
Mof_H 	H 	0.6805	0.4239	0.743	0.005
Mof_H 	H 	0.6214	0.3073	0.9993	0.156
Mof_H 	H 	0.5408	0.5028	0.8163	0.132
Mof_H 	H 	0.4229	0.5051	0.9336	0.116
Mof_H 	H 	0.4293	0.4078	0.9934	0.14
Mof_H 	H 	0.425	0.9848	0.5661	0.11
Mof_H 	H 	0.4216	0.0861	0.51	0.106
Mof_H 	H 	0.5365	0.0001	0.6879	0.141
Mof_H 	H 	0.6132	0.192	0.5032	0.167
Mof_H 	H 	0.6767	0.0831	0.7618	0.02
Mof_H 	H 	0.7539	0.2669	0.5812	0.043
Mof_H 	H 	0.2357	0.7606	0.0773	0.001
Mof_H 	H 	0.3195	0.5761	0.257	0.005
Mof_H 	H 	0.3786	0.6927	0.0007	0.156
Mof_H 	H 	0.4592	0.4972	0.1837	0.132
Mof_H 	H 	0.5771	0.4949	0.0664	0.116
Mof_H 	H 	0.5707	0.5922	0.0066	0.14
Mof_H 	H 	0.575	0.0152	0.4339	0.11
Mof_H 	H 	0.5784	0.9139	0.49	0.106
Mof_H 	H 	0.4635	0.9999	0.3121	0.141
Mof_H 	H 	0.3868	0.808	0.4968	0.167
Mof_H 	H 	0.3233	0.9169	0.2382	0.02
Mof_H 	H 	0.2461	0.7331	0.4188	0.043
Mof_C 	C 	0.9667	0.1609	0.8725	0.417
Mof_C 	C 	0.9853	0.0751	0.9361	-0.205
Mof_C 	C 	0.0871	0.0649	0.9777	0.269
Mof_C 	C 	0.1017	0.9922	0.0395	0.269
Mof_C 	C 	0.9756	0.4758	0.4219	0.291
Mof_C 	C 	0.9582	0.4012	0.4812	0.294
Mof_C 	C 	0.9824	0.4231	0.562	-0.189
Mof_C 	C 	0.9629	0.3397	0.6272	0.432
Mof_C 	C 	0.7174	0.292	0.9006	0.152
Mof_C 	C 	0.669	0.401	0.7955	0.135
Mof_C 	C 	0.6325	0.3332	0.9474	-0.221
Mof_C 	C 	0.5842	0.4481	0.8389	-0.22
Mof_C 	C 	0.5635	0.4134	0.9173	0.221
Mof_C 	C 	0.4737	0.4635	0.9677	-0.212
Mof_C 	C 	0.4712	0.0323	0.5336	-0.195
Mof_C 	C 	0.559	0.0857	0.586	0.188
Mof_C 	C 	0.5796	0.0543	0.6648	-0.203
Mof_C 	C 	0.6254	0.1674	0.5554	-0.211
Mof_C 	C 	0.665	0.1041	0.7087	0.13
Mof_C 	C 	0.7099	0.2123	0.6029	0.132
Mof_C 	C 	0.0333	0.8391	0.1275	0.417
Mof_C 	C 	0.0147	0.9249	0.0639	-0.205
Mof_C 	C 	0.9129	0.9351	0.0223	0.269
Mof_C 	C 	0.8983	0.0078	0.9605	0.269
Mof_C 	C 	0.0244	0.5242	0.5781	0.291
Mof_C 	C 	0.0418	0.5988	0.5188	0.294
Mof_C 	C 	0.0176	0.5769	0.438	-0.189
Mof_C 	C 	0.0371	0.6603	0.3728	0.432
Mof_C 	C 	0.2826	0.708	0.0994	0.152
Mof_C 	C 	0.331	0.599	0.2045	0.135
Mof_C 	C 	0.3675	0.6668	0.0526	-0.221
Mof_C 	C 	0.4158	0.5519	0.1611	-0.22
Mof_C 	C 	0.4365	0.5866	0.0827	0.221
Mof_C 	C 	0.5263	0.5365	0.0323	-0.212
Mof_C 	C 	0.5288	0.9677	0.4664	-0.195
Mof_C 	C 	0.441	0.9143	0.414	0.188
Mof_C 	C 	0.4204	0.9457	0.3352	-0.203
Mof_C 	C 	0.3746	0.8326	0.4446	-0.211
Mof_C 	C 	0.335	0.8959	0.2913	0.13
Mof_C 	C 	0.2901	0.7877	0.3971	0.132
Mof_N 	N 	0.7364	0.3235	0.8249	-0.276
Mof_N 	N 	0.7315	0.1809	0.6788	-0.271
Mof_N 	N 	0.2636	0.6765	0.1751	-0.276
Mof_N 	N 	0.2685	0.8191	0.3212	-0.271
Mof_O 	O 	0.9126	0.1293	0.8093	-0.435
Mof_O 	O 	0.9988	0.253	0.8854	-0.31
Mof_O 	O 	0.9068	0.3728	0.68753	-0.431
Mof_O 	O 	0.9957	0.2475	0.61698	-0.314
Mof_O 	O 	0.0874	0.8707	0.1907	-0.435
Mof_O 	O 	0.0012	0.747	0.1146	-0.31
Mof_O 	O 	0.0932	0.6272	0.31247	-0.431
Mof_O 	O 	0.0043	0.7525	0.38302	-0.314
Mof_F 	F 	0.1778	0.1227	0.95536	-0.386
Mof_F 	F 	0.2055	0.9864	0.07442	-0.413
Mof_F 	F 	0.9486	0.4476	0.34571	-0.392
Mof_F 	F 	0.9134	0.3061	0.461	-0.394
Mof_F 	F 	0.8222	0.8773	0.04464	-0.386
Mof_F 	F 	0.7945	0.0136	0.92558	-0.413
Mof_F 	F 	0.0514	0.5524	0.65429	-0.392
Mof_F 	F 	0.0866	0.6939	0.539	-0.394
_end
