data_functionalizedCrystal
_audit_creation_method	'EQeq! by Chris Wilmer'
_symmetry_space_group_name_H-M	'P1'
_symmetry_Int_Tables_number	1
_symmetry_cell_setting	triclinic
loop_
_symmetry_equiv_pos_as_xyz
  x,y,z
_cell_length_a	8.7731
_cell_length_b	11.033
_cell_length_c	25.689
_cell_angle_alpha	90
_cell_angle_beta	90
_cell_angle_gamma	101.834
loop_
_atom_site_label
_atom_site_type_symbol
_atom_site_fract_x
_atom_site_fract_y
_atom_site_fract_z
_atom_site_charge
Mof_Nd	Nd	0.69631	0.68673	0.58976	1.281
Mof_Nd	Nd	0.30369	0.31327	0.08976	1.281
Mof_Nd	Nd	0.30369	0.31327	0.41024	1.281
Mof_Nd	Nd	0.69631	0.68673	0.91024	1.281
Mof_H 	H 	0.3228	0.1591	0.5825	-0.018
Mof_H 	H 	0.4531	0.0305	0.6269	-0.005
Mof_H 	H 	0.9728	0.5173	0.7045	-0.009
Mof_H 	H 	0.6772	0.8409	0.0825	-0.017
Mof_H 	H 	0.5469	0.9695	0.1269	-0.004
Mof_H 	H 	0.0272	0.4827	0.2045	-0.009
Mof_H 	H 	0.6772	0.8409	0.4175	-0.018
Mof_H 	H 	0.5469	0.9695	0.3731	-0.005
Mof_H 	H 	0.0272	0.4827	0.2955	-0.009
Mof_H 	H 	0.3228	0.1591	0.9175	-0.017
Mof_H 	H 	0.4531	0.0305	0.8731	-0.004
Mof_H 	H 	0.9728	0.5173	0.7955	-0.009
Mof_Ru	Ru	0.11571	0.3646	0.61407	1.001
Mof_Ru	Ru	0.88429	0.6354	0.11407	0.999
Mof_Ru	Ru	0.88429	0.6354	0.38593	1.001
Mof_Ru	Ru	0.11571	0.3646	0.88593	0.999
Mof_Ru	Ru	0.50474	0.97072	0.75	1.012
Mof_Ru	Ru	0.49526	0.02928	0.25	1.012
Mof_C 	C 	0.2508	0.2351	0.6952	0.011
Mof_C 	C 	0.3224	0.1609	0.6187	0.008
Mof_C 	C 	0.4013	0.0817	0.6458	0.008
Mof_C 	C 	0.3283	0.1573	0.7225	0.014
Mof_C 	C 	0.1704	0.3151	0.7228	0.017
Mof_C 	C 	0.0241	0.4638	0.7222	0.018
Mof_C 	C 	0.5862	0.8805	0.6937	-0.2
Mof_C 	C 	0.9208	0.2278	0.609	-0.189
Mof_C 	C 	0.986	0.4865	0.5975	-0.201
Mof_C 	C 	0.8467	0.6727	0.4594	-0.216
Mof_C 	C 	0.3033	0.5021	0.6115	-0.209
Mof_C 	C 	0.7492	0.7649	0.1952	0.011
Mof_C 	C 	0.6776	0.8391	0.1187	0.008
Mof_C 	C 	0.5987	0.9183	0.1458	0.008
Mof_C 	C 	0.6717	0.8427	0.2225	0.014
Mof_C 	C 	0.8296	0.6849	0.2228	0.017
Mof_C 	C 	0.9759	0.5362	0.2222	0.017
Mof_C 	C 	0.4138	0.1195	0.1937	-0.201
Mof_C 	C 	0.0792	0.7722	0.109	-0.188
Mof_C 	C 	0.014	0.5135	0.0975	-0.201
Mof_C 	C 	0.1533	0.3273	0.9594	-0.216
Mof_C 	C 	0.6967	0.4979	0.1115	-0.209
Mof_C 	C 	0.7492	0.7649	0.3048	0.011
Mof_C 	C 	0.6776	0.8391	0.3813	0.008
Mof_C 	C 	0.5987	0.9183	0.3542	0.008
Mof_C 	C 	0.6717	0.8427	0.2775	0.014
Mof_C 	C 	0.8296	0.6849	0.2772	0.017
Mof_C 	C 	0.9759	0.5362	0.2778	0.018
Mof_C 	C 	0.4138	0.1195	0.3063	-0.2
Mof_C 	C 	0.0792	0.7722	0.391	-0.189
Mof_C 	C 	0.014	0.5135	0.4025	-0.201
Mof_C 	C 	0.1533	0.3273	0.5406	-0.216
Mof_C 	C 	0.6967	0.4979	0.3885	-0.209
Mof_C 	C 	0.2508	0.2351	0.8048	0.011
Mof_C 	C 	0.3224	0.1609	0.8813	0.008
Mof_C 	C 	0.4013	0.0817	0.8542	0.008
Mof_C 	C 	0.3283	0.1573	0.7775	0.014
Mof_C 	C 	0.1704	0.3151	0.7772	0.017
Mof_C 	C 	0.0241	0.4638	0.7778	0.017
Mof_C 	C 	0.5862	0.8805	0.8063	-0.201
Mof_C 	C 	0.9208	0.2278	0.891	-0.188
Mof_C 	C 	0.986	0.4865	0.9025	-0.201
Mof_C 	C 	0.8467	0.6727	0.0406	-0.216
Mof_C 	C 	0.3033	0.5021	0.8885	-0.209
Mof_C 	C 	0.308	0.8363	0.75	-0.198
Mof_C 	C 	0.7002	0.1048	0.75	-0.186
Mof_C 	C 	0.692	0.1637	0.25	-0.198
Mof_C 	C 	0.2998	0.8952	0.25	-0.186
Mof_N 	N 	0.2476	0.2382	0.6423	-0.214
Mof_N 	N 	0.4039	0.0778	0.6975	-0.208
Mof_N 	N 	0.0952	0.3896	0.695	-0.209
Mof_N 	N 	0.6262	0.8286	0.6583	-0.209
Mof_N 	N 	0.8088	0.1528	0.6019	-0.094
Mof_N 	N 	0.908	0.5584	0.5908	-0.202
Mof_N 	N 	0.8241	0.7012	0.5013	-0.209
Mof_N 	N 	0.4114	0.5841	0.6088	-0.205
Mof_N 	N 	0.7524	0.7618	0.1423	-0.214
Mof_N 	N 	0.5961	0.9222	0.1975	-0.208
Mof_N 	N 	0.9048	0.6104	0.195	-0.209
Mof_N 	N 	0.3738	0.1714	0.1583	-0.209
Mof_N 	N 	0.1912	0.8472	0.1019	-0.094
Mof_N 	N 	0.092	0.4416	0.0908	-0.202
Mof_N 	N 	0.1759	0.2988	0.0013	-0.209
Mof_N 	N 	0.5886	0.4159	0.1088	-0.205
Mof_N 	N 	0.7524	0.7618	0.3577	-0.214
Mof_N 	N 	0.5961	0.9222	0.3025	-0.208
Mof_N 	N 	0.9048	0.6104	0.305	-0.209
Mof_N 	N 	0.3738	0.1714	0.3417	-0.209
Mof_N 	N 	0.1912	0.8472	0.3981	-0.094
Mof_N 	N 	0.092	0.4416	0.4092	-0.202
Mof_N 	N 	0.1759	0.2988	0.4987	-0.209
Mof_N 	N 	0.5886	0.4159	0.3912	-0.205
Mof_N 	N 	0.2476	0.2382	0.8577	-0.214
Mof_N 	N 	0.4039	0.0778	0.8025	-0.208
Mof_N 	N 	0.0952	0.3896	0.805	-0.209
Mof_N 	N 	0.6262	0.8286	0.8417	-0.209
Mof_N 	N 	0.8088	0.1528	0.8981	-0.094
Mof_N 	N 	0.908	0.5584	0.9092	-0.202
Mof_N 	N 	0.8241	0.7012	0.9987	-0.209
Mof_N 	N 	0.4114	0.5841	0.8912	-0.205
Mof_N 	N 	0.1988	0.7574	0.75	-0.085
Mof_N 	N 	0.8073	0.1875	0.75	-0.064
Mof_N 	N 	0.8012	0.2426	0.25	-0.085
Mof_N 	N 	0.1927	0.8125	0.25	-0.064
_end
