data_functionalizedCrystal
_audit_creation_method	'EQeq! by Chris Wilmer'
_symmetry_space_group_name_H-M	'P1'
_symmetry_Int_Tables_number	1
_symmetry_cell_setting	triclinic
loop_
_symmetry_equiv_pos_as_xyz
  x,y,z
_cell_length_a	13.7247
_cell_length_b	27.787
_cell_length_c	45.881
_cell_angle_alpha	90
_cell_angle_beta	90
_cell_angle_gamma	90
loop_
_atom_site_label
_atom_site_type_symbol
_atom_site_fract_x
_atom_site_fract_y
_atom_site_fract_z
_atom_site_charge
Mof_Zn	Zn	0.84829	0.74554	0.81349	1.164
Mof_Zn	Zn	0.14432	0.9475	0.57474	1.162
Mof_Zn	Zn	0.14154	0.47252	0.59039	1.163
Mof_Zn	Zn	0.15171	0.75446	0.31349	1.163
Mof_Zn	Zn	0.85568	0.5525	0.07474	1.161
Mof_Zn	Zn	0.85846	0.02748	0.09039	1.163
Mof_Zn	Zn	0.34829	0.25446	0.68651	1.163
Mof_Zn	Zn	0.64432	0.0525	0.92526	1.161
Mof_Zn	Zn	0.64154	0.52748	0.90961	1.163
Mof_Zn	Zn	0.65171	0.24554	0.18651	1.163
Mof_Zn	Zn	0.35568	0.4475	0.42526	1.161
Mof_Zn	Zn	0.35846	0.97252	0.40961	1.163
Mof_H 	H 	0.9503	0.806	0.7685	0.001
Mof_H 	H 	0.0077	0.799	0.7208	0.079
Mof_H 	H 	0.9845	0.654	0.7291	0.079
Mof_H 	H 	0.9249	0.6652	0.7759	-0.009
Mof_H 	H 	0.046	0.8479	0.6609	0.079
Mof_H 	H 	0.0719	0.9159	0.6332	-0.011
Mof_H 	H 	0.1362	0.8387	0.5641	-0.015
Mof_H 	H 	0.1079	0.768	0.5891	0.079
Mof_H 	H 	0.0879	0.6512	0.5934	0.079
Mof_H 	H 	0.1107	0.5758	0.5728	-0.006
Mof_H 	H 	0.0836	0.513	0.6492	-0.006
Mof_H 	H 	0.0556	0.5862	0.6718	0.079
Mof_H 	H 	0.8094	0.6886	0.8666	-0.007
Mof_H 	H 	0.8911	0.6522	0.9054	0.079
Mof_H 	H 	0.1464	0.6836	0.8656	0.078
Mof_H 	H 	0.0582	0.7219	0.8293	-0.015
Mof_H 	H 	0.8915	0.6176	0.9726	0.078
Mof_H 	H 	0.1354	0.5557	0.005	0.09
Mof_H 	H 	0.3459	0.5709	0.9691	0.084
Mof_H 	H 	0.3263	0.6068	0.884	0.094
Mof_H 	H 	0.0499	0.5348	0.0459	-0.008
Mof_H 	H 	0.8119	0.5947	0.0152	-0.006
Mof_H 	H 	0.5035	0.5426	0.9606	-0.003
Mof_H 	H 	0.484	0.5782	0.8774	-0.008
Mof_H 	H 	0.0497	0.694	0.2685	0.001
Mof_H 	H 	0.9923	0.701	0.2208	0.079
Mof_H 	H 	0.0155	0.846	0.2291	0.079
Mof_H 	H 	0.0751	0.8348	0.2759	-0.009
Mof_H 	H 	0.954	0.6521	0.1609	0.079
Mof_H 	H 	0.9281	0.5841	0.1332	-0.011
Mof_H 	H 	0.8638	0.6613	0.0641	-0.015
Mof_H 	H 	0.8921	0.732	0.0891	0.079
Mof_H 	H 	0.9121	0.8488	0.0934	0.079
Mof_H 	H 	0.8893	0.9242	0.0728	-0.006
Mof_H 	H 	0.9164	0.987	0.1492	-0.006
Mof_H 	H 	0.9444	0.9138	0.1718	0.079
Mof_H 	H 	0.1906	0.8114	0.3666	-0.007
Mof_H 	H 	0.1089	0.8478	0.4054	0.079
Mof_H 	H 	0.8536	0.8164	0.3656	0.079
Mof_H 	H 	0.9418	0.7781	0.3293	-0.015
Mof_H 	H 	0.1085	0.8824	0.4726	0.078
Mof_H 	H 	0.8646	0.9443	0.505	0.09
Mof_H 	H 	0.6541	0.9291	0.4691	0.084
Mof_H 	H 	0.6737	0.8932	0.384	0.094
Mof_H 	H 	0.9501	0.9652	0.5459	-0.009
Mof_H 	H 	0.1881	0.9053	0.5152	-0.006
Mof_H 	H 	0.4965	0.9574	0.4606	-0.003
Mof_H 	H 	0.516	0.9218	0.3774	-0.008
Mof_H 	H 	0.4503	0.194	0.7315	0.001
Mof_H 	H 	0.5077	0.201	0.7792	0.079
Mof_H 	H 	0.4845	0.346	0.7709	0.079
Mof_H 	H 	0.4249	0.3348	0.7241	-0.009
Mof_H 	H 	0.546	0.1521	0.8391	0.079
Mof_H 	H 	0.5719	0.0841	0.8668	-0.011
Mof_H 	H 	0.6362	0.1613	0.9359	-0.015
Mof_H 	H 	0.6079	0.232	0.9109	0.079
Mof_H 	H 	0.5879	0.3488	0.9066	0.079
Mof_H 	H 	0.6107	0.4242	0.9272	-0.006
Mof_H 	H 	0.5836	0.487	0.8508	-0.006
Mof_H 	H 	0.5556	0.4138	0.8282	0.079
Mof_H 	H 	0.3094	0.3114	0.6334	-0.007
Mof_H 	H 	0.3911	0.3478	0.5946	0.079
Mof_H 	H 	0.6464	0.3164	0.6344	0.079
Mof_H 	H 	0.5582	0.2781	0.6707	-0.015
Mof_H 	H 	0.3915	0.3824	0.5274	0.078
Mof_H 	H 	0.6354	0.4443	0.495	0.09
Mof_H 	H 	0.8459	0.4291	0.5309	0.084
Mof_H 	H 	0.8263	0.3932	0.616	0.094
Mof_H 	H 	0.5499	0.4652	0.4541	-0.008
Mof_H 	H 	0.3119	0.4053	0.4848	-0.006
Mof_H 	H 	0.0035	0.4574	0.5394	-0.003
Mof_H 	H 	0.984	0.4218	0.6226	-0.008
Mof_H 	H 	0.5497	0.306	0.2315	0.001
Mof_H 	H 	0.4923	0.299	0.2792	0.079
Mof_H 	H 	0.5155	0.154	0.2709	0.079
Mof_H 	H 	0.5751	0.1652	0.2241	-0.009
Mof_H 	H 	0.454	0.3479	0.3391	0.079
Mof_H 	H 	0.4281	0.4159	0.3668	-0.011
Mof_H 	H 	0.3638	0.3387	0.4359	-0.015
Mof_H 	H 	0.3921	0.268	0.4109	0.079
Mof_H 	H 	0.4121	0.1512	0.4066	0.079
Mof_H 	H 	0.3893	0.0758	0.4272	-0.006
Mof_H 	H 	0.4164	0.013	0.3508	-0.006
Mof_H 	H 	0.4444	0.0862	0.3282	0.079
Mof_H 	H 	0.6906	0.1886	0.1334	-0.007
Mof_H 	H 	0.6089	0.1522	0.0946	0.079
Mof_H 	H 	0.3536	0.1836	0.1344	0.079
Mof_H 	H 	0.4418	0.2219	0.1707	-0.015
Mof_H 	H 	0.6085	0.1176	0.0274	0.078
Mof_H 	H 	0.3646	0.0557	0.995	0.09
Mof_H 	H 	0.1541	0.0709	0.0309	0.084
Mof_H 	H 	0.1737	0.1068	0.116	0.094
Mof_H 	H 	0.4501	0.0348	0.9541	-0.008
Mof_H 	H 	0.6881	0.0947	0.9848	-0.006
Mof_H 	H 	0.9965	0.0426	0.0394	-0.004
Mof_H 	H 	0.016	0.0782	0.1226	-0.008
Mof_C 	C 	0.9554	0.7749	0.76005	0.058
Mof_C 	C 	0.9902	0.7711	0.73168	-0.108
Mof_C 	C 	0.9986	0.7259	0.71975	0.048
Mof_C 	C 	0.976	0.6856	0.73661	-0.114
Mof_C 	C 	0.941	0.6926	0.76447	0.063
Mof_C 	C 	0.027	0.7199	0.68855	0.103
Mof_C 	C 	0.0612	0.7561	0.64552	0.102
Mof_C 	C 	0.0599	0.6742	0.6488	0.098
Mof_C 	C 	0.0758	0.8	0.62807	0.05
Mof_C 	C 	0.0644	0.8451	0.64097	-0.115
Mof_C 	C 	0.0803	0.8853	0.62432	0.062
Mof_C 	C 	0.1172	0.8404	0.58397	0.069
Mof_C 	C 	0.1014	0.798	0.59878	-0.118
Mof_C 	C 	0.0707	0.6273	0.63506	0.049
Mof_C 	C 	0.0867	0.6233	0.60532	-0.11
Mof_C 	C 	0.101	0.5781	0.5933	0.065
Mof_C 	C 	0.0846	0.5414	0.6378	0.065
Mof_C 	C 	0.0683	0.585	0.6514	-0.111
Mof_C 	C 	0.8786	0.6882	0.86666	0.062
Mof_C 	C 	0.9268	0.666	0.88976	-0.108
Mof_C 	C 	0.0275	0.6642	0.8895	0.059
Mof_C 	C 	0.0773	0.6847	0.8665	-0.121
Mof_C 	C 	0.0238	0.7071	0.8449	0.074
Mof_C 	C 	0.0795	0.6406	0.91386	0.104
Mof_C 	C 	0.0781	0.6059	0.95819	0.099
Mof_C 	C 	0.2166	0.6068	0.93178	0.092
Mof_C 	C 	0.0244	0.5908	0.98492	0.052
Mof_C 	C 	0.9257	0.6013	0.98766	-0.113
Mof_C 	C 	0.069	0.5648	0.0068	-0.126
Mof_C 	C 	0.3199	0.5911	0.9271	0.054
Mof_C 	C 	0.3731	0.5723	0.9501	-0.12
Mof_C 	C 	0.3614	0.5936	0.9	-0.124
Mof_C 	C 	0.0175	0.5523	0.03098	0.072
Mof_C 	C 	0.879	0.5872	0.01304	0.067
Mof_C 	C 	0.4668	0.5556	0.9449	0.068
Mof_C 	C 	0.4553	0.5764	0.8962	0.068
Mof_C 	C 	0.0446	0.7251	0.26005	0.058
Mof_C 	C 	0.0098	0.7289	0.23168	-0.109
Mof_C 	C 	0.0014	0.7741	0.21975	0.048
Mof_C 	C 	0.024	0.8144	0.23661	-0.114
Mof_C 	C 	0.059	0.8074	0.26447	0.063
Mof_C 	C 	0.973	0.7801	0.18855	0.103
Mof_C 	C 	0.9388	0.7439	0.14552	0.102
Mof_C 	C 	0.9401	0.8258	0.1488	0.098
Mof_C 	C 	0.9242	0.7	0.12807	0.05
Mof_C 	C 	0.9356	0.6549	0.14097	-0.115
Mof_C 	C 	0.9197	0.6147	0.12432	0.062
Mof_C 	C 	0.8828	0.6596	0.08397	0.07
Mof_C 	C 	0.8986	0.702	0.09878	-0.118
Mof_C 	C 	0.9293	0.8727	0.13506	0.049
Mof_C 	C 	0.9133	0.8767	0.10532	-0.11
Mof_C 	C 	0.899	0.9219	0.0933	0.065
Mof_C 	C 	0.9154	0.9586	0.1378	0.065
Mof_C 	C 	0.9317	0.915	0.1514	-0.111
Mof_C 	C 	0.1214	0.8118	0.36666	0.063
Mof_C 	C 	0.0732	0.834	0.38976	-0.109
Mof_C 	C 	0.9725	0.8358	0.3895	0.06
Mof_C 	C 	0.9227	0.8153	0.3665	-0.122
Mof_C 	C 	0.9762	0.7929	0.3449	0.075
Mof_C 	C 	0.9205	0.8594	0.41386	0.104
Mof_C 	C 	0.9219	0.8941	0.45819	0.099
Mof_C 	C 	0.7834	0.8932	0.43178	0.092
Mof_C 	C 	0.9756	0.9092	0.48492	0.053
Mof_C 	C 	0.0743	0.8987	0.48766	-0.115
Mof_C 	C 	0.931	0.9352	0.5068	-0.127
Mof_C 	C 	0.6801	0.9089	0.4271	0.054
Mof_C 	C 	0.6269	0.9277	0.4501	-0.12
Mof_C 	C 	0.6386	0.9064	0.4	-0.124
Mof_C 	C 	0.9825	0.9477	0.53098	0.073
Mof_C 	C 	0.121	0.9128	0.51304	0.067
Mof_C 	C 	0.5332	0.9444	0.4449	0.068
Mof_C 	C 	0.5447	0.9236	0.3962	0.068
Mof_C 	C 	0.4554	0.2251	0.73995	0.058
Mof_C 	C 	0.4902	0.2289	0.76832	-0.109
Mof_C 	C 	0.4986	0.2741	0.78025	0.049
Mof_C 	C 	0.476	0.3144	0.76339	-0.114
Mof_C 	C 	0.441	0.3074	0.73553	0.063
Mof_C 	C 	0.527	0.2801	0.81145	0.103
Mof_C 	C 	0.5612	0.2439	0.85448	0.102
Mof_C 	C 	0.5599	0.3258	0.8512	0.098
Mof_C 	C 	0.5758	0.2	0.87193	0.05
Mof_C 	C 	0.5644	0.1549	0.85903	-0.115
Mof_C 	C 	0.5803	0.1147	0.87568	0.062
Mof_C 	C 	0.6172	0.1596	0.91603	0.069
Mof_C 	C 	0.6014	0.202	0.90122	-0.118
Mof_C 	C 	0.5707	0.3727	0.86494	0.049
Mof_C 	C 	0.5867	0.3767	0.89468	-0.11
Mof_C 	C 	0.601	0.4219	0.9067	0.065
Mof_C 	C 	0.5846	0.4586	0.8622	0.065
Mof_C 	C 	0.5683	0.415	0.8486	-0.111
Mof_C 	C 	0.3786	0.3118	0.63334	0.063
Mof_C 	C 	0.4268	0.334	0.61024	-0.108
Mof_C 	C 	0.5275	0.3358	0.6105	0.059
Mof_C 	C 	0.5773	0.3153	0.6335	-0.122
Mof_C 	C 	0.5238	0.2929	0.6551	0.074
Mof_C 	C 	0.5795	0.3594	0.58614	0.104
Mof_C 	C 	0.5781	0.3941	0.54181	0.099
Mof_C 	C 	0.7166	0.3932	0.56822	0.092
Mof_C 	C 	0.5244	0.4092	0.51508	0.053
Mof_C 	C 	0.4257	0.3987	0.51234	-0.114
Mof_C 	C 	0.569	0.4352	0.4932	-0.126
Mof_C 	C 	0.8199	0.4089	0.5729	0.054
Mof_C 	C 	0.8731	0.4277	0.5499	-0.12
Mof_C 	C 	0.8614	0.4064	0.6	-0.124
Mof_C 	C 	0.5175	0.4477	0.46902	0.073
Mof_C 	C 	0.379	0.4128	0.48696	0.067
Mof_C 	C 	0.9668	0.4444	0.5551	0.068
Mof_C 	C 	0.9553	0.4236	0.6038	0.068
Mof_C 	C 	0.5446	0.2749	0.23995	0.058
Mof_C 	C 	0.5098	0.2711	0.26832	-0.109
Mof_C 	C 	0.5014	0.2259	0.28025	0.049
Mof_C 	C 	0.524	0.1856	0.26339	-0.114
Mof_C 	C 	0.559	0.1926	0.23553	0.063
Mof_C 	C 	0.473	0.2199	0.31145	0.103
Mof_C 	C 	0.4388	0.2561	0.35448	0.102
Mof_C 	C 	0.4401	0.1742	0.3512	0.098
Mof_C 	C 	0.4242	0.3	0.37193	0.05
Mof_C 	C 	0.4356	0.3451	0.35903	-0.115
Mof_C 	C 	0.4197	0.3853	0.37568	0.062
Mof_C 	C 	0.3828	0.3404	0.41603	0.07
Mof_C 	C 	0.3986	0.298	0.40122	-0.118
Mof_C 	C 	0.4293	0.1273	0.36494	0.049
Mof_C 	C 	0.4133	0.1233	0.39468	-0.11
Mof_C 	C 	0.399	0.0781	0.4067	0.065
Mof_C 	C 	0.4154	0.0414	0.3622	0.065
Mof_C 	C 	0.4317	0.085	0.3486	-0.111
Mof_C 	C 	0.6214	0.1882	0.13334	0.063
Mof_C 	C 	0.5732	0.166	0.11024	-0.108
Mof_C 	C 	0.4725	0.1642	0.1105	0.059
Mof_C 	C 	0.4227	0.1847	0.1335	-0.122
Mof_C 	C 	0.4762	0.2071	0.1551	0.074
Mof_C 	C 	0.4205	0.1406	0.08614	0.104
Mof_C 	C 	0.4219	0.1059	0.04181	0.099
Mof_C 	C 	0.2834	0.1068	0.06822	0.092
Mof_C 	C 	0.4756	0.0908	0.01508	0.053
Mof_C 	C 	0.5743	0.1013	0.01234	-0.114
Mof_C 	C 	0.431	0.0648	0.9932	-0.126
Mof_C 	C 	0.1801	0.0911	0.0729	0.054
Mof_C 	C 	0.1269	0.0723	0.0499	-0.121
Mof_C 	C 	0.1386	0.0936	0.1	-0.125
Mof_C 	C 	0.4825	0.0523	0.96902	0.073
Mof_C 	C 	0.621	0.0872	0.98696	0.067
Mof_C 	C 	0.0332	0.0556	0.0551	0.07
Mof_C 	C 	0.0447	0.0764	0.1038	0.069
Mof_I 	I 	0.8395	0.83544	0.8248	-0.374
Mof_I 	I 	0.69096	0.69735	0.80666	-0.369
Mof_I 	I 	0.0508	0.01406	0.60107	-0.363
Mof_I 	I 	0.32775	0.94213	0.56675	-0.381
Mof_I 	I 	0.22459	0.42602	0.63142	-0.361
Mof_I 	I 	0.22266	0.48921	0.54132	-0.388
Mof_I 	I 	0.1605	0.66456	0.3248	-0.374
Mof_I 	I 	0.30904	0.80265	0.30666	-0.369
Mof_I 	I 	0.9492	0.48594	0.10107	-0.364
Mof_I 	I 	0.67225	0.55787	0.06675	-0.381
Mof_I 	I 	0.77541	0.07398	0.13142	-0.361
Mof_I 	I 	0.77734	0.01079	0.04132	-0.388
Mof_I 	I 	0.3395	0.16456	0.6752	-0.374
Mof_I 	I 	0.19096	0.30265	0.69334	-0.369
Mof_I 	I 	0.5508	0.98594	0.89893	-0.364
Mof_I 	I 	0.82775	0.05787	0.93325	-0.381
Mof_I 	I 	0.72459	0.57398	0.86858	-0.361
Mof_I 	I 	0.72266	0.51079	0.95868	-0.388
Mof_I 	I 	0.6605	0.33544	0.1752	-0.374
Mof_I 	I 	0.80904	0.19735	0.19334	-0.37
Mof_I 	I 	0.4492	0.51406	0.39893	-0.364
Mof_I 	I 	0.17225	0.44213	0.43325	-0.381
Mof_I 	I 	0.27541	0.92602	0.36858	-0.361
Mof_I 	I 	0.27734	0.98921	0.45868	-0.388
Mof_N 	N 	0.9288	0.7366	0.77598	-0.269
Mof_N 	N 	0.0394	0.7613	0.67353	-0.139
Mof_N 	N 	0.0725	0.7134	0.6319	-0.137
Mof_N 	N 	0.0357	0.676	0.67753	-0.138
Mof_N 	N 	0.107	0.884	0.59627	-0.27
Mof_N 	N 	0.1017	0.5375	0.60913	-0.268
Mof_N 	N 	0.9266	0.709	0.84455	-0.274
Mof_N 	N 	0.0281	0.6292	0.93779	-0.137
Mof_N 	N 	0.1723	0.5938	0.95684	-0.143
Mof_N 	N 	0.175	0.6309	0.90974	-0.133
Mof_N 	N 	0.9234	0.5636	0.03478	-0.271
Mof_N 	N 	0.5069	0.5575	0.91817	-0.271
Mof_N 	N 	0.0712	0.7634	0.27598	-0.27
Mof_N 	N 	0.9606	0.7387	0.17353	-0.139
Mof_N 	N 	0.9275	0.7866	0.1319	-0.137
Mof_N 	N 	0.9643	0.824	0.17753	-0.138
Mof_N 	N 	0.893	0.616	0.09627	-0.27
Mof_N 	N 	0.8983	0.9625	0.10913	-0.268
Mof_N 	N 	0.0734	0.791	0.34455	-0.274
Mof_N 	N 	0.9719	0.8708	0.43779	-0.136
Mof_N 	N 	0.8277	0.9062	0.45684	-0.143
Mof_N 	N 	0.825	0.8691	0.40974	-0.133
Mof_N 	N 	0.0766	0.9364	0.53478	-0.272
Mof_N 	N 	0.4931	0.9425	0.41817	-0.271
Mof_N 	N 	0.4288	0.2634	0.72402	-0.27
Mof_N 	N 	0.5394	0.2387	0.82647	-0.139
Mof_N 	N 	0.5725	0.2866	0.8681	-0.137
Mof_N 	N 	0.5357	0.324	0.82247	-0.138
Mof_N 	N 	0.607	0.116	0.90373	-0.27
Mof_N 	N 	0.6017	0.4625	0.89087	-0.268
Mof_N 	N 	0.4266	0.291	0.65545	-0.274
Mof_N 	N 	0.5281	0.3708	0.56221	-0.136
Mof_N 	N 	0.6723	0.4062	0.54316	-0.143
Mof_N 	N 	0.675	0.3691	0.59026	-0.133
Mof_N 	N 	0.4234	0.4364	0.46522	-0.271
Mof_N 	N 	0.0069	0.4425	0.58183	-0.271
Mof_N 	N 	0.5712	0.2366	0.22402	-0.27
Mof_N 	N 	0.4606	0.2613	0.32647	-0.139
Mof_N 	N 	0.4275	0.2134	0.3681	-0.137
Mof_N 	N 	0.4643	0.176	0.32247	-0.138
Mof_N 	N 	0.393	0.384	0.40373	-0.27
Mof_N 	N 	0.3983	0.0375	0.39087	-0.268
Mof_N 	N 	0.5734	0.209	0.15545	-0.274
Mof_N 	N 	0.4719	0.1292	0.06221	-0.136
Mof_N 	N 	0.3277	0.0938	0.04316	-0.143
Mof_N 	N 	0.325	0.1309	0.09026	-0.133
Mof_N 	N 	0.5766	0.0636	0.96522	-0.271
Mof_N 	N 	0.9931	0.0575	0.08183	-0.272
Mof_Zn	Zn	0.15171	0.25446	0.18651	1.163
Mof_Zn	Zn	0.85568	0.0525	0.42526	1.161
Mof_Zn	Zn	0.85846	0.52748	0.40961	1.163
Mof_Zn	Zn	0.84829	0.24554	0.68651	1.163
Mof_Zn	Zn	0.14432	0.4475	0.92526	1.161
Mof_Zn	Zn	0.14154	0.97252	0.90961	1.163
Mof_Zn	Zn	0.65171	0.74554	0.31349	1.163
Mof_Zn	Zn	0.35568	0.9475	0.07474	1.161
Mof_Zn	Zn	0.35846	0.47252	0.09039	1.163
Mof_Zn	Zn	0.34829	0.75446	0.81349	1.163
Mof_Zn	Zn	0.64432	0.5525	0.57474	1.161
Mof_Zn	Zn	0.64154	0.02748	0.59039	1.163
Mof_H 	H 	0.0497	0.194	0.2315	0.001
Mof_H 	H 	0.9923	0.201	0.2792	0.079
Mof_H 	H 	0.0155	0.346	0.2709	0.079
Mof_H 	H 	0.0751	0.3348	0.2241	-0.009
Mof_H 	H 	0.954	0.1521	0.3391	0.079
Mof_H 	H 	0.9281	0.0841	0.3668	-0.011
Mof_H 	H 	0.8638	0.1613	0.4359	-0.015
Mof_H 	H 	0.8921	0.232	0.4109	0.079
Mof_H 	H 	0.9121	0.3488	0.4066	0.079
Mof_H 	H 	0.8893	0.4242	0.4272	-0.006
Mof_H 	H 	0.9164	0.487	0.3508	-0.006
Mof_H 	H 	0.9444	0.4138	0.3282	0.079
Mof_H 	H 	0.1906	0.3114	0.1334	-0.007
Mof_H 	H 	0.1089	0.3478	0.0946	0.079
Mof_H 	H 	0.8536	0.3164	0.1344	0.078
Mof_H 	H 	0.9418	0.2781	0.1707	-0.015
Mof_H 	H 	0.1085	0.3824	0.0274	0.078
Mof_H 	H 	0.8646	0.4443	0.995	0.09
Mof_H 	H 	0.6541	0.4291	0.0309	0.084
Mof_H 	H 	0.6737	0.3932	0.116	0.094
Mof_H 	H 	0.9501	0.4652	0.9541	-0.008
Mof_H 	H 	0.1881	0.4053	0.9848	-0.006
Mof_H 	H 	0.4965	0.4574	0.0394	-0.003
Mof_H 	H 	0.516	0.4218	0.1226	-0.008
Mof_H 	H 	0.9503	0.306	0.7315	0.001
Mof_H 	H 	0.0077	0.299	0.7792	0.079
Mof_H 	H 	0.9845	0.154	0.7709	0.079
Mof_H 	H 	0.9249	0.1652	0.7241	-0.009
Mof_H 	H 	0.046	0.3479	0.8391	0.079
Mof_H 	H 	0.0719	0.4159	0.8668	-0.011
Mof_H 	H 	0.1362	0.3387	0.9359	-0.015
Mof_H 	H 	0.1079	0.268	0.9109	0.079
Mof_H 	H 	0.0879	0.1512	0.9066	0.079
Mof_H 	H 	0.1107	0.0758	0.9272	-0.006
Mof_H 	H 	0.0836	0.013	0.8508	-0.006
Mof_H 	H 	0.0556	0.0862	0.8282	0.079
Mof_H 	H 	0.8094	0.1886	0.6334	-0.007
Mof_H 	H 	0.8911	0.1522	0.5946	0.079
Mof_H 	H 	0.1464	0.1836	0.6344	0.079
Mof_H 	H 	0.0582	0.2219	0.6707	-0.015
Mof_H 	H 	0.8915	0.1176	0.5274	0.078
Mof_H 	H 	0.1354	0.0557	0.495	0.09
Mof_H 	H 	0.3459	0.0709	0.5309	0.084
Mof_H 	H 	0.3263	0.1068	0.616	0.094
Mof_H 	H 	0.0499	0.0348	0.4541	-0.009
Mof_H 	H 	0.8119	0.0947	0.4848	-0.006
Mof_H 	H 	0.5035	0.0426	0.5394	-0.003
Mof_H 	H 	0.484	0.0782	0.6226	-0.008
Mof_H 	H 	0.5497	0.806	0.2685	0.001
Mof_H 	H 	0.4923	0.799	0.2208	0.079
Mof_H 	H 	0.5155	0.654	0.2291	0.079
Mof_H 	H 	0.5751	0.6652	0.2759	-0.009
Mof_H 	H 	0.454	0.8479	0.1609	0.079
Mof_H 	H 	0.4281	0.9159	0.1332	-0.011
Mof_H 	H 	0.3638	0.8387	0.0641	-0.015
Mof_H 	H 	0.3921	0.768	0.0891	0.079
Mof_H 	H 	0.4121	0.6512	0.0934	0.079
Mof_H 	H 	0.3893	0.5758	0.0728	-0.006
Mof_H 	H 	0.4164	0.513	0.1492	-0.006
Mof_H 	H 	0.4444	0.5862	0.1718	0.079
Mof_H 	H 	0.6906	0.6886	0.3666	-0.007
Mof_H 	H 	0.6089	0.6522	0.4054	0.079
Mof_H 	H 	0.3536	0.6836	0.3656	0.079
Mof_H 	H 	0.4418	0.7219	0.3293	-0.015
Mof_H 	H 	0.6085	0.6176	0.4726	0.078
Mof_H 	H 	0.3646	0.5557	0.505	0.09
Mof_H 	H 	0.1541	0.5709	0.4691	0.084
Mof_H 	H 	0.1737	0.6068	0.384	0.094
Mof_H 	H 	0.4501	0.5348	0.5459	-0.008
Mof_H 	H 	0.6881	0.5947	0.5152	-0.006
Mof_H 	H 	0.9965	0.5426	0.4606	-0.003
Mof_H 	H 	0.016	0.5782	0.3774	-0.008
Mof_H 	H 	0.4503	0.694	0.7685	0.001
Mof_H 	H 	0.5077	0.701	0.7208	0.079
Mof_H 	H 	0.4845	0.846	0.7291	0.079
Mof_H 	H 	0.4249	0.8348	0.7759	-0.009
Mof_H 	H 	0.546	0.6521	0.6609	0.079
Mof_H 	H 	0.5719	0.5841	0.6332	-0.011
Mof_H 	H 	0.6362	0.6613	0.5641	-0.015
Mof_H 	H 	0.6079	0.732	0.5891	0.079
Mof_H 	H 	0.5879	0.8488	0.5934	0.079
Mof_H 	H 	0.6107	0.9242	0.5728	-0.006
Mof_H 	H 	0.5836	0.987	0.6492	-0.006
Mof_H 	H 	0.5556	0.9138	0.6718	0.079
Mof_H 	H 	0.3094	0.8114	0.8666	-0.007
Mof_H 	H 	0.3911	0.8478	0.9054	0.079
Mof_H 	H 	0.6464	0.8164	0.8656	0.079
Mof_H 	H 	0.5582	0.7781	0.8293	-0.015
Mof_H 	H 	0.3915	0.8824	0.9726	0.078
Mof_H 	H 	0.6354	0.9443	0.005	0.09
Mof_H 	H 	0.8459	0.9291	0.9691	0.084
Mof_H 	H 	0.8263	0.8932	0.884	0.094
Mof_H 	H 	0.5499	0.9652	0.0459	-0.008
Mof_H 	H 	0.3119	0.9053	0.0152	-0.006
Mof_H 	H 	0.0035	0.9574	0.9606	-0.004
Mof_H 	H 	0.984	0.9218	0.8774	-0.008
Mof_C 	C 	0.0446	0.2251	0.23995	0.058
Mof_C 	C 	0.0098	0.2289	0.26832	-0.108
Mof_C 	C 	0.0014	0.2741	0.28025	0.048
Mof_C 	C 	0.024	0.3144	0.26339	-0.114
Mof_C 	C 	0.059	0.3074	0.23553	0.063
Mof_C 	C 	0.973	0.2801	0.31145	0.103
Mof_C 	C 	0.9388	0.2439	0.35448	0.102
Mof_C 	C 	0.9401	0.3258	0.3512	0.098
Mof_C 	C 	0.9242	0.2	0.37193	0.05
Mof_C 	C 	0.9356	0.1549	0.35903	-0.115
Mof_C 	C 	0.9197	0.1147	0.37568	0.062
Mof_C 	C 	0.8828	0.1596	0.41603	0.069
Mof_C 	C 	0.8986	0.202	0.40122	-0.118
Mof_C 	C 	0.9293	0.3727	0.36494	0.049
Mof_C 	C 	0.9133	0.3767	0.39468	-0.11
Mof_C 	C 	0.899	0.4219	0.4067	0.065
Mof_C 	C 	0.9154	0.4586	0.3622	0.065
Mof_C 	C 	0.9317	0.415	0.3486	-0.111
Mof_C 	C 	0.1214	0.3118	0.13334	0.062
Mof_C 	C 	0.0732	0.334	0.11024	-0.108
Mof_C 	C 	0.9725	0.3358	0.1105	0.059
Mof_C 	C 	0.9227	0.3153	0.1335	-0.121
Mof_C 	C 	0.9762	0.2929	0.1551	0.074
Mof_C 	C 	0.9205	0.3594	0.08614	0.104
Mof_C 	C 	0.9219	0.3941	0.04181	0.099
Mof_C 	C 	0.7834	0.3932	0.06822	0.092
Mof_C 	C 	0.9756	0.4092	0.01508	0.052
Mof_C 	C 	0.0743	0.3987	0.01234	-0.113
Mof_C 	C 	0.931	0.4352	0.9932	-0.126
Mof_C 	C 	0.6801	0.4089	0.0729	0.054
Mof_C 	C 	0.6269	0.4277	0.0499	-0.12
Mof_C 	C 	0.6386	0.4064	0.1	-0.124
Mof_C 	C 	0.9825	0.4477	0.96902	0.072
Mof_C 	C 	0.121	0.4128	0.98696	0.067
Mof_C 	C 	0.5332	0.4444	0.0551	0.068
Mof_C 	C 	0.5447	0.4236	0.1038	0.068
Mof_C 	C 	0.9554	0.2749	0.73995	0.058
Mof_C 	C 	0.9902	0.2711	0.76832	-0.109
Mof_C 	C 	0.9986	0.2259	0.78025	0.048
Mof_C 	C 	0.976	0.1856	0.76339	-0.114
Mof_C 	C 	0.941	0.1926	0.73553	0.063
Mof_C 	C 	0.027	0.2199	0.81145	0.103
Mof_C 	C 	0.0612	0.2561	0.85448	0.102
Mof_C 	C 	0.0599	0.1742	0.8512	0.098
Mof_C 	C 	0.0758	0.3	0.87193	0.05
Mof_C 	C 	0.0644	0.3451	0.85903	-0.115
Mof_C 	C 	0.0803	0.3853	0.87568	0.062
Mof_C 	C 	0.1172	0.3404	0.91603	0.07
Mof_C 	C 	0.1014	0.298	0.90122	-0.118
Mof_C 	C 	0.0707	0.1273	0.86494	0.049
Mof_C 	C 	0.0867	0.1233	0.89468	-0.11
Mof_C 	C 	0.101	0.0781	0.9067	0.065
Mof_C 	C 	0.0846	0.0414	0.8622	0.065
Mof_C 	C 	0.0683	0.085	0.8486	-0.111
Mof_C 	C 	0.8786	0.1882	0.63334	0.063
Mof_C 	C 	0.9268	0.166	0.61024	-0.109
Mof_C 	C 	0.0275	0.1642	0.6105	0.06
Mof_C 	C 	0.0773	0.1847	0.6335	-0.122
Mof_C 	C 	0.0238	0.2071	0.6551	0.075
Mof_C 	C 	0.0795	0.1406	0.58614	0.104
Mof_C 	C 	0.0781	0.1059	0.54181	0.099
Mof_C 	C 	0.2166	0.1068	0.56822	0.092
Mof_C 	C 	0.0244	0.0908	0.51508	0.053
Mof_C 	C 	0.9257	0.1013	0.51234	-0.115
Mof_C 	C 	0.069	0.0648	0.4932	-0.127
Mof_C 	C 	0.3199	0.0911	0.5729	0.054
Mof_C 	C 	0.3731	0.0723	0.5499	-0.12
Mof_C 	C 	0.3614	0.0936	0.6	-0.124
Mof_C 	C 	0.0175	0.0523	0.46902	0.073
Mof_C 	C 	0.879	0.0872	0.48696	0.067
Mof_C 	C 	0.4668	0.0556	0.5551	0.068
Mof_C 	C 	0.4553	0.0764	0.6038	0.068
Mof_C 	C 	0.5446	0.7749	0.26005	0.058
Mof_C 	C 	0.5098	0.7711	0.23168	-0.109
Mof_C 	C 	0.5014	0.7259	0.21975	0.049
Mof_C 	C 	0.524	0.6856	0.23661	-0.114
Mof_C 	C 	0.559	0.6926	0.26447	0.063
Mof_C 	C 	0.473	0.7199	0.18855	0.103
Mof_C 	C 	0.4388	0.7561	0.14552	0.102
Mof_C 	C 	0.4401	0.6742	0.1488	0.098
Mof_C 	C 	0.4242	0.8	0.12807	0.05
Mof_C 	C 	0.4356	0.8451	0.14097	-0.115
Mof_C 	C 	0.4197	0.8853	0.12432	0.062
Mof_C 	C 	0.3828	0.8404	0.08397	0.069
Mof_C 	C 	0.3986	0.798	0.09878	-0.118
Mof_C 	C 	0.4293	0.6273	0.13506	0.049
Mof_C 	C 	0.4133	0.6233	0.10532	-0.11
Mof_C 	C 	0.399	0.5781	0.0933	0.065
Mof_C 	C 	0.4154	0.5414	0.1378	0.065
Mof_C 	C 	0.4317	0.585	0.1514	-0.111
Mof_C 	C 	0.6214	0.6882	0.36666	0.063
Mof_C 	C 	0.5732	0.666	0.38976	-0.108
Mof_C 	C 	0.4725	0.6642	0.3895	0.059
Mof_C 	C 	0.4227	0.6847	0.3665	-0.122
Mof_C 	C 	0.4762	0.7071	0.3449	0.074
Mof_C 	C 	0.4205	0.6406	0.41386	0.104
Mof_C 	C 	0.4219	0.6059	0.45819	0.099
Mof_C 	C 	0.2834	0.6068	0.43178	0.092
Mof_C 	C 	0.4756	0.5908	0.48492	0.053
Mof_C 	C 	0.5743	0.6013	0.48766	-0.114
Mof_C 	C 	0.431	0.5648	0.5068	-0.126
Mof_C 	C 	0.1801	0.5911	0.4271	0.054
Mof_C 	C 	0.1269	0.5723	0.4501	-0.12
Mof_C 	C 	0.1386	0.5936	0.4	-0.124
Mof_C 	C 	0.4825	0.5523	0.53098	0.073
Mof_C 	C 	0.621	0.5872	0.51304	0.067
Mof_C 	C 	0.0332	0.5556	0.4449	0.068
Mof_C 	C 	0.0447	0.5764	0.3962	0.068
Mof_C 	C 	0.4554	0.7251	0.76005	0.058
Mof_C 	C 	0.4902	0.7289	0.73168	-0.109
Mof_C 	C 	0.4986	0.7741	0.71975	0.049
Mof_C 	C 	0.476	0.8144	0.73661	-0.114
Mof_C 	C 	0.441	0.8074	0.76447	0.063
Mof_C 	C 	0.527	0.7801	0.68855	0.103
Mof_C 	C 	0.5612	0.7439	0.64552	0.102
Mof_C 	C 	0.5599	0.8258	0.6488	0.098
Mof_C 	C 	0.5758	0.7	0.62807	0.05
Mof_C 	C 	0.5644	0.6549	0.64097	-0.115
Mof_C 	C 	0.5803	0.6147	0.62432	0.062
Mof_C 	C 	0.6172	0.6596	0.58397	0.07
Mof_C 	C 	0.6014	0.702	0.59878	-0.118
Mof_C 	C 	0.5707	0.8727	0.63506	0.049
Mof_C 	C 	0.5867	0.8767	0.60532	-0.11
Mof_C 	C 	0.601	0.9219	0.5933	0.065
Mof_C 	C 	0.5846	0.9586	0.6378	0.065
Mof_C 	C 	0.5683	0.915	0.6514	-0.111
Mof_C 	C 	0.3786	0.8118	0.86666	0.063
Mof_C 	C 	0.4268	0.834	0.88976	-0.108
Mof_C 	C 	0.5275	0.8358	0.8895	0.059
Mof_C 	C 	0.5773	0.8153	0.8665	-0.122
Mof_C 	C 	0.5238	0.7929	0.8449	0.074
Mof_C 	C 	0.5795	0.8594	0.91386	0.104
Mof_C 	C 	0.5781	0.8941	0.95819	0.099
Mof_C 	C 	0.7166	0.8932	0.93178	0.092
Mof_C 	C 	0.5244	0.9092	0.98492	0.053
Mof_C 	C 	0.4257	0.8987	0.98766	-0.114
Mof_C 	C 	0.569	0.9352	0.0068	-0.126
Mof_C 	C 	0.8199	0.9089	0.9271	0.054
Mof_C 	C 	0.8731	0.9277	0.9501	-0.121
Mof_C 	C 	0.8614	0.9064	0.9	-0.125
Mof_C 	C 	0.5175	0.9477	0.03098	0.073
Mof_C 	C 	0.379	0.9128	0.01304	0.067
Mof_C 	C 	0.9668	0.9444	0.9449	0.07
Mof_C 	C 	0.9553	0.9236	0.8962	0.069
Mof_I 	I 	0.1605	0.16456	0.1752	-0.374
Mof_I 	I 	0.30904	0.30265	0.19334	-0.369
Mof_I 	I 	0.9492	0.98594	0.39893	-0.363
Mof_I 	I 	0.67225	0.05787	0.43325	-0.381
Mof_I 	I 	0.77541	0.57398	0.36858	-0.361
Mof_I 	I 	0.77734	0.51079	0.45868	-0.388
Mof_I 	I 	0.8395	0.33544	0.6752	-0.374
Mof_I 	I 	0.69096	0.19735	0.69334	-0.369
Mof_I 	I 	0.0508	0.51406	0.89893	-0.364
Mof_I 	I 	0.32775	0.44213	0.93325	-0.381
Mof_I 	I 	0.22459	0.92602	0.86858	-0.361
Mof_I 	I 	0.22266	0.98921	0.95868	-0.388
Mof_I 	I 	0.6605	0.83544	0.3248	-0.374
Mof_I 	I 	0.80904	0.69735	0.30666	-0.369
Mof_I 	I 	0.4492	0.01406	0.10107	-0.364
Mof_I 	I 	0.17225	0.94213	0.06675	-0.381
Mof_I 	I 	0.27541	0.42602	0.13142	-0.361
Mof_I 	I 	0.27734	0.48921	0.04132	-0.388
Mof_I 	I 	0.3395	0.66456	0.8248	-0.374
Mof_I 	I 	0.19096	0.80265	0.80666	-0.37
Mof_I 	I 	0.5508	0.48594	0.60107	-0.364
Mof_I 	I 	0.82775	0.55787	0.56675	-0.381
Mof_I 	I 	0.72459	0.07398	0.63142	-0.361
Mof_I 	I 	0.72266	0.01079	0.54132	-0.388
Mof_N 	N 	0.0712	0.2634	0.22402	-0.269
Mof_N 	N 	0.9606	0.2387	0.32647	-0.139
Mof_N 	N 	0.9275	0.2866	0.3681	-0.137
Mof_N 	N 	0.9643	0.324	0.32247	-0.138
Mof_N 	N 	0.893	0.116	0.40373	-0.27
Mof_N 	N 	0.8983	0.4625	0.39087	-0.268
Mof_N 	N 	0.0734	0.291	0.15545	-0.274
Mof_N 	N 	0.9719	0.3708	0.06221	-0.137
Mof_N 	N 	0.8277	0.4062	0.04316	-0.143
Mof_N 	N 	0.825	0.3691	0.09026	-0.133
Mof_N 	N 	0.0766	0.4364	0.96522	-0.271
Mof_N 	N 	0.4931	0.4425	0.08183	-0.271
Mof_N 	N 	0.9288	0.2366	0.72402	-0.27
Mof_N 	N 	0.0394	0.2613	0.82647	-0.139
Mof_N 	N 	0.0725	0.2134	0.8681	-0.137
Mof_N 	N 	0.0357	0.176	0.82247	-0.138
Mof_N 	N 	0.107	0.384	0.90373	-0.27
Mof_N 	N 	0.1017	0.0375	0.89087	-0.268
Mof_N 	N 	0.9266	0.209	0.65545	-0.274
Mof_N 	N 	0.0281	0.1292	0.56221	-0.136
Mof_N 	N 	0.1723	0.0938	0.54316	-0.143
Mof_N 	N 	0.175	0.1309	0.59026	-0.133
Mof_N 	N 	0.9234	0.0636	0.46522	-0.272
Mof_N 	N 	0.5069	0.0575	0.58183	-0.271
Mof_N 	N 	0.5712	0.7366	0.27598	-0.27
Mof_N 	N 	0.4606	0.7613	0.17353	-0.139
Mof_N 	N 	0.4275	0.7134	0.1319	-0.137
Mof_N 	N 	0.4643	0.676	0.17753	-0.138
Mof_N 	N 	0.393	0.884	0.09627	-0.27
Mof_N 	N 	0.3983	0.5375	0.10913	-0.268
Mof_N 	N 	0.5734	0.709	0.34455	-0.274
Mof_N 	N 	0.4719	0.6292	0.43779	-0.136
Mof_N 	N 	0.3277	0.5938	0.45684	-0.143
Mof_N 	N 	0.325	0.6309	0.40974	-0.133
Mof_N 	N 	0.5766	0.5636	0.53478	-0.271
Mof_N 	N 	0.9931	0.5575	0.41817	-0.271
Mof_N 	N 	0.4288	0.7634	0.77598	-0.27
Mof_N 	N 	0.5394	0.7387	0.67353	-0.139
Mof_N 	N 	0.5725	0.7866	0.6319	-0.137
Mof_N 	N 	0.5357	0.824	0.67753	-0.138
Mof_N 	N 	0.607	0.616	0.59627	-0.27
Mof_N 	N 	0.6017	0.9625	0.60913	-0.268
Mof_N 	N 	0.4266	0.791	0.84455	-0.274
Mof_N 	N 	0.5281	0.8708	0.93779	-0.136
Mof_N 	N 	0.6723	0.9062	0.95684	-0.143
Mof_N 	N 	0.675	0.8691	0.90974	-0.133
Mof_N 	N 	0.4234	0.9364	0.03478	-0.271
Mof_N 	N 	0.0069	0.9425	0.91817	-0.272
_end
