data_functionalizedCrystal
_audit_creation_method	'EQeq! by Chris Wilmer'
_symmetry_space_group_name_H-M	'P1'
_symmetry_Int_Tables_number	1
_symmetry_cell_setting	triclinic
loop_
_symmetry_equiv_pos_as_xyz
  x,y,z
_cell_length_a	17.0801
_cell_length_b	17.0782
_cell_length_c	7.592
_cell_angle_alpha	90
_cell_angle_beta	90
_cell_angle_gamma	90
loop_
_atom_site_label
_atom_site_type_symbol
_atom_site_fract_x
_atom_site_fract_y
_atom_site_fract_z
_atom_site_charge
Mof_Ag	Ag	0.81416	0.18978	0.24346	0.571
Mof_N 	N 	0.9031	0.1005	0.0904	-0.139
Mof_N 	N 	0.6932	0.1931	0.0913	-0.143
Mof_N 	N 	0.4214	0.2627	0.0929	-0.147
Mof_N 	N 	0.8408	0.3208	0.0909	-0.128
Mof_N 	N 	0.7499	0.5858	0.0874	-0.134
Mof_C 	C 	0.9487	0.053	0.1757	0.017
Mof_H 	H 	0.9478	0.0537	0.2995	0.013
Mof_C 	C 	0.6269	0.2049	0.1747	0.022
Mof_H 	H 	0.6276	0.2014	0.2983	0.009
Mof_C 	C 	0.5554	0.222	0.0943	-0.017
Mof_C 	C 	0.4852	0.2431	0.1731	0.028
Mof_H 	H 	0.4839	0.2432	0.2969	0.014
Mof_C 	C 	0.8241	0.3864	0.1778	0.008
Mof_H 	H 	0.8263	0.3864	0.3015	0.016
Mof_C 	C 	0.8027	0.4568	0.0875	-0.005
Mof_C 	C 	0.7755	0.5238	0.182	0.004
Mof_H 	H 	0.7754	0.5247	0.3058	0.018
Mof_Ag	Ag	0.18584	0.81022	0.24346	0.571
Mof_N 	N 	0.0969	0.8995	0.0904	-0.139
Mof_N 	N 	0.3068	0.8069	0.0913	-0.143
Mof_N 	N 	0.5786	0.7373	0.0929	-0.148
Mof_N 	N 	0.1592	0.6792	0.0909	-0.127
Mof_N 	N 	0.2501	0.4142	0.0874	-0.134
Mof_C 	C 	0.0513	0.947	0.1757	0.017
Mof_H 	H 	0.0522	0.9463	0.2995	0.013
Mof_C 	C 	0.3731	0.7951	0.1747	0.022
Mof_H 	H 	0.3724	0.7986	0.2983	0.009
Mof_C 	C 	0.4446	0.778	0.0943	-0.017
Mof_C 	C 	0.5148	0.7569	0.1731	0.028
Mof_H 	H 	0.5161	0.7568	0.2969	0.014
Mof_C 	C 	0.1759	0.6136	0.1778	0.008
Mof_H 	H 	0.1737	0.6136	0.3015	0.016
Mof_C 	C 	0.1973	0.5432	0.0875	-0.005
Mof_C 	C 	0.2245	0.4762	0.182	0.004
Mof_H 	H 	0.2246	0.4753	0.3058	0.018
Mof_Ag	Ag	0.68584	0.68978	0.25654	0.571
Mof_N 	N 	0.5969	0.6005	0.4096	-0.139
Mof_N 	N 	0.8068	0.6931	0.4087	-0.143
Mof_N 	N 	0.0786	0.7627	0.4071	-0.148
Mof_N 	N 	0.6592	0.8208	0.4091	-0.128
Mof_N 	N 	0.7501	0.0858	0.4126	-0.134
Mof_C 	C 	0.5513	0.553	0.3243	0.019
Mof_H 	H 	0.5522	0.5537	0.2005	0.012
Mof_C 	C 	0.8731	0.7049	0.3253	0.022
Mof_H 	H 	0.8724	0.7014	0.2017	0.009
Mof_C 	C 	0.9446	0.722	0.4057	-0.018
Mof_C 	C 	0.0148	0.7431	0.3269	0.029
Mof_H 	H 	0.0161	0.7432	0.2031	0.014
Mof_C 	C 	0.6759	0.8864	0.3222	0.008
Mof_H 	H 	0.6737	0.8864	0.1985	0.016
Mof_C 	C 	0.6973	0.9568	0.4125	-0.006
Mof_C 	C 	0.7245	0.0238	0.318	0.005
Mof_H 	H 	0.7246	0.0247	0.1942	0.018
Mof_Ag	Ag	0.31416	0.31022	0.25654	0.571
Mof_N 	N 	0.4031	0.3995	0.4096	-0.139
Mof_N 	N 	0.1932	0.3069	0.4087	-0.143
Mof_N 	N 	0.9214	0.2373	0.4071	-0.147
Mof_N 	N 	0.3408	0.1792	0.4091	-0.127
Mof_N 	N 	0.2499	0.9142	0.4126	-0.134
Mof_C 	C 	0.4487	0.447	0.3243	0.019
Mof_H 	H 	0.4478	0.4463	0.2005	0.012
Mof_C 	C 	0.1269	0.2951	0.3253	0.021
Mof_H 	H 	0.1276	0.2986	0.2017	0.01
Mof_C 	C 	0.0554	0.278	0.4057	-0.016
Mof_C 	C 	0.9852	0.2569	0.3269	0.026
Mof_H 	H 	0.9839	0.2568	0.2031	0.014
Mof_C 	C 	0.3241	0.1136	0.3222	0.008
Mof_H 	H 	0.3263	0.1136	0.1985	0.016
Mof_C 	C 	0.3027	0.0432	0.4125	-0.004
Mof_C 	C 	0.2755	0.9762	0.318	0.002
Mof_H 	H 	0.2754	0.9753	0.1942	0.018
Mof_Ag	Ag	0.18584	0.81022	0.75654	0.571
Mof_N 	N 	0.0969	0.8995	0.9096	-0.139
Mof_N 	N 	0.3068	0.8069	0.9087	-0.143
Mof_N 	N 	0.5786	0.7373	0.9071	-0.148
Mof_N 	N 	0.1592	0.6792	0.9091	-0.127
Mof_N 	N 	0.2501	0.4142	0.9126	-0.134
Mof_C 	C 	0.0513	0.947	0.8243	0.017
Mof_H 	H 	0.0522	0.9463	0.7005	0.013
Mof_C 	C 	0.3731	0.7951	0.8253	0.022
Mof_H 	H 	0.3724	0.7986	0.7017	0.009
Mof_C 	C 	0.4446	0.778	0.9057	-0.017
Mof_C 	C 	0.5148	0.7569	0.8269	0.028
Mof_H 	H 	0.5161	0.7568	0.7031	0.014
Mof_C 	C 	0.1759	0.6136	0.8222	0.008
Mof_H 	H 	0.1737	0.6136	0.6985	0.016
Mof_C 	C 	0.1973	0.5432	0.9125	-0.005
Mof_C 	C 	0.2245	0.4762	0.818	0.004
Mof_H 	H 	0.2246	0.4753	0.6942	0.018
Mof_Ag	Ag	0.81416	0.18978	0.75654	0.571
Mof_N 	N 	0.9031	0.1005	0.9096	-0.139
Mof_N 	N 	0.6932	0.1931	0.9087	-0.143
Mof_N 	N 	0.4214	0.2627	0.9071	-0.147
Mof_N 	N 	0.8408	0.3208	0.9091	-0.128
Mof_N 	N 	0.7499	0.5858	0.9126	-0.134
Mof_C 	C 	0.9487	0.053	0.8243	0.017
Mof_H 	H 	0.9478	0.0537	0.7005	0.013
Mof_C 	C 	0.6269	0.2049	0.8253	0.022
Mof_H 	H 	0.6276	0.2014	0.7017	0.009
Mof_C 	C 	0.5554	0.222	0.9057	-0.017
Mof_C 	C 	0.4852	0.2431	0.8269	0.028
Mof_H 	H 	0.4839	0.2432	0.7031	0.014
Mof_C 	C 	0.8241	0.3864	0.8222	0.008
Mof_H 	H 	0.8263	0.3864	0.6985	0.016
Mof_C 	C 	0.8027	0.4568	0.9125	-0.005
Mof_C 	C 	0.7755	0.5238	0.818	0.004
Mof_H 	H 	0.7754	0.5247	0.6942	0.018
Mof_Ag	Ag	0.31416	0.31022	0.74346	0.571
Mof_N 	N 	0.4031	0.3995	0.5904	-0.139
Mof_N 	N 	0.1932	0.3069	0.5913	-0.143
Mof_N 	N 	0.9214	0.2373	0.5929	-0.147
Mof_N 	N 	0.3408	0.1792	0.5909	-0.127
Mof_N 	N 	0.2499	0.9142	0.5874	-0.134
Mof_C 	C 	0.4487	0.447	0.6757	0.019
Mof_H 	H 	0.4478	0.4463	0.7995	0.012
Mof_C 	C 	0.1269	0.2951	0.6747	0.021
Mof_H 	H 	0.1276	0.2986	0.7983	0.01
Mof_C 	C 	0.0554	0.278	0.5943	-0.016
Mof_C 	C 	0.9852	0.2569	0.6731	0.026
Mof_H 	H 	0.9839	0.2568	0.7969	0.014
Mof_C 	C 	0.3241	0.1136	0.6778	0.008
Mof_H 	H 	0.3263	0.1136	0.8015	0.016
Mof_C 	C 	0.3027	0.0432	0.5875	-0.004
Mof_C 	C 	0.2755	0.9762	0.682	0.002
Mof_H 	H 	0.2754	0.9753	0.8058	0.018
Mof_Ag	Ag	0.68584	0.68978	0.74346	0.571
Mof_N 	N 	0.5969	0.6005	0.5904	-0.139
Mof_N 	N 	0.8068	0.6931	0.5913	-0.143
Mof_N 	N 	0.0786	0.7627	0.5929	-0.148
Mof_N 	N 	0.6592	0.8208	0.5909	-0.128
Mof_N 	N 	0.7501	0.0858	0.5874	-0.134
Mof_C 	C 	0.5513	0.553	0.6757	0.019
Mof_H 	H 	0.5522	0.5537	0.7995	0.012
Mof_C 	C 	0.8731	0.7049	0.6747	0.022
Mof_H 	H 	0.8724	0.7014	0.7983	0.009
Mof_C 	C 	0.9446	0.722	0.5943	-0.018
Mof_C 	C 	0.0148	0.7431	0.6731	0.029
Mof_H 	H 	0.0161	0.7432	0.7969	0.014
Mof_C 	C 	0.6759	0.8864	0.6778	0.008
Mof_H 	H 	0.6737	0.8864	0.8015	0.016
Mof_C 	C 	0.6973	0.9568	0.5875	-0.006
Mof_C 	C 	0.7245	0.0238	0.682	0.005
Mof_H 	H 	0.7246	0.0247	0.8058	0.018
Mof_C 	C 	1.47159e-34	-3.56215e-34	0.0883	-0.013
Mof_C 	C 	0.5	0.5	0.4117	-0.015
Mof_C 	C 	1.51943e-33	-5.69943e-33	0.9117	-0.013
Mof_C 	C 	0.5	0.5	0.5883	-0.015
_end
