data_functionalizedCrystal
_audit_creation_method	'EQeq! by Chris Wilmer'
_symmetry_space_group_name_H-M	'P1'
_symmetry_Int_Tables_number	1
_symmetry_cell_setting	triclinic
loop_
_symmetry_equiv_pos_as_xyz
  x,y,z
_cell_length_a	6.6537
_cell_length_b	8.0998
_cell_length_c	20.179
_cell_angle_alpha	90
_cell_angle_beta	90
_cell_angle_gamma	90
loop_
_atom_site_label
_atom_site_type_symbol
_atom_site_fract_x
_atom_site_fract_y
_atom_site_fract_z
_atom_site_charge
Mof_Y 	Y 	0.50681	0.94595	0.11947	1.715
Mof_O 	O 	0.1701	0.9359	0.1559	-0.412
Mof_O 	O 	0.5106	0.589	0.28169	-0.446
Mof_O 	O 	0.8325	0.5994	0.98053	-0.434
Mof_O 	O 	0.4007	0.2229	0.09013	-0.342
Mof_O 	O 	0.6744	0.1283	0.04277	-0.357
Mof_O 	O 	0.8387	0.9575	0.16045	-0.403
Mof_O 	O 	0.4976	0.7212	0.1865	-0.453
Mof_O 	O 	0.6868	0.7345	0.06301	-0.422
Mof_C 	C 	0.5499	0.241	0.05256	0.349
Mof_H 	H 	0.5684	0.3439	0.0309	-0.029
Mof_C 	C 	0.0038	0.969	0.13083	0.498
Mof_H 	H 	0.002	0.0056	0.0861	-0.113
Mof_C 	C 	0.745	0.7212	0.00448	0.529
Mof_H 	H 	0.7204	0.8119	0.9758	-0.134
Mof_C 	C 	0.4192	0.6671	0.23804	0.587
Mof_H 	H 	0.2799	0.6869	0.2445	-0.126
Mof_Y 	Y 	0.99319	0.05405	0.61947	1.697
Mof_O 	O 	0.3299	0.0641	0.6559	-0.413
Mof_O 	O 	0.9894	0.411	0.78169	-0.439
Mof_O 	O 	0.6675	0.4006	0.48053	-0.445
Mof_O 	O 	0.0993	0.7771	0.59013	-0.333
Mof_O 	O 	0.8256	0.8717	0.54277	-0.355
Mof_O 	O 	0.6613	0.0425	0.66045	-0.414
Mof_O 	O 	0.0024	0.2788	0.6865	-0.444
Mof_O 	O 	0.8132	0.2655	0.56301	-0.427
Mof_C 	C 	0.9501	0.759	0.55256	0.338
Mof_H 	H 	0.9316	0.6561	0.5309	-0.028
Mof_C 	C 	0.4962	0.031	0.63083	0.522
Mof_H 	H 	0.498	0.9944	0.5861	-0.122
Mof_C 	C 	0.755	0.2788	0.50448	0.536
Mof_H 	H 	0.7796	0.1881	0.4758	-0.142
Mof_C 	C 	0.0808	0.3329	0.73804	0.579
Mof_H 	H 	0.2201	0.3131	0.7445	-0.123
Mof_Y 	Y 	0.49319	0.44595	0.38053	1.727
Mof_O 	O 	0.8299	0.4359	0.3441	-0.417
Mof_O 	O 	0.4894	0.089	0.21831	-0.442
Mof_O 	O 	0.1675	0.0994	0.51947	-0.436
Mof_O 	O 	0.5993	0.7229	0.40987	-0.345
Mof_O 	O 	0.3256	0.6283	0.45723	-0.359
Mof_O 	O 	0.1613	0.4575	0.33955	-0.409
Mof_O 	O 	0.5024	0.2212	0.3135	-0.453
Mof_O 	O 	0.3132	0.2345	0.43699	-0.424
Mof_C 	C 	0.4501	0.741	0.44744	0.349
Mof_H 	H 	0.4316	0.8439	0.4691	-0.029
Mof_C 	C 	0.9962	0.469	0.36917	0.522
Mof_H 	H 	0.998	0.5056	0.4139	-0.129
Mof_C 	C 	0.255	0.2212	0.49552	0.535
Mof_H 	H 	0.2796	0.3119	0.5242	-0.137
Mof_C 	C 	0.5808	0.1671	0.26196	0.587
Mof_H 	H 	0.7201	0.1869	0.2555	-0.126
Mof_Y 	Y 	0.00681	0.55405	0.88053	1.705
Mof_O 	O 	0.6701	0.5641	0.8441	-0.415
Mof_O 	O 	0.0106	0.911	0.71831	-0.442
Mof_O 	O 	0.3325	0.9006	0.01947	-0.446
Mof_O 	O 	0.9007	0.2771	0.90987	-0.333
Mof_O 	O 	0.1744	0.3717	0.95723	-0.358
Mof_O 	O 	0.3387	0.5425	0.83955	-0.415
Mof_O 	O 	0.9976	0.7788	0.8135	-0.445
Mof_O 	O 	0.1868	0.7655	0.93699	-0.428
Mof_C 	C 	0.0499	0.259	0.94744	0.335
Mof_H 	H 	0.0684	0.1561	0.9691	-0.027
Mof_C 	C 	0.5038	0.531	0.86917	0.531
Mof_H 	H 	0.502	0.4944	0.9139	-0.128
Mof_C 	C 	0.245	0.7788	0.99552	0.534
Mof_H 	H 	0.2204	0.6881	0.0242	-0.139
Mof_C 	C 	0.9192	0.8329	0.76196	0.587
Mof_H 	H 	0.7799	0.8131	0.7555	-0.124
_end
