data_functionalizedCrystal
_audit_creation_method	'EQeq! by Chris Wilmer'
_symmetry_space_group_name_H-M	'P1'
_symmetry_Int_Tables_number	1
_symmetry_cell_setting	triclinic
loop_
_symmetry_equiv_pos_as_xyz
  x,y,z
_cell_length_a	8.9836
_cell_length_b	10.5918
_cell_length_c	32.7196
_cell_angle_alpha	90
_cell_angle_beta	90
_cell_angle_gamma	90
loop_
_atom_site_label
_atom_site_type_symbol
_atom_site_fract_x
_atom_site_fract_y
_atom_site_fract_z
_atom_site_charge
Mof_Ca	Ca	0.45425	0.90115	0.24889	1.306
Mof_O 	O 	0.5132	0.7513	0.2001	-0.485
Mof_O 	O 	0.5841	0.5507	0.20104	-0.477
Mof_O 	O 	0.9895	0.4448	0.7994	-0.508
Mof_O 	O 	0.0797	0.251	0.7976	-0.496
Mof_C 	C 	0.5112	0.6423	0.1864	0.447
Mof_C 	C 	0.4215	0.6211	0.1485	-0.218
Mof_C 	C 	0.4075	0.4989	0.1321	0.098
Mof_H 	H 	0.4562	0.43	0.1449	-0.013
Mof_C 	C 	0.3229	0.4782	0.0971	-0.184
Mof_H 	H 	0.3163	0.3956	0.0859	0.091
Mof_C 	C 	0.2489	0.5761	0.0785	0.118
Mof_C 	C 	0.2592	0.6959	0.0957	-0.188
Mof_H 	H 	0.2058	0.7638	0.0836	0.091
Mof_C 	C 	0.3446	0.7181	0.1297	0.112
Mof_H 	H 	0.3511	0.8013	0.1404	-0.019
Mof_C 	C 	0.1512	0.5557	0.042	-0.071
Mof_C 	C 	0.9891	0.5876	0.0473	0.082
Mof_C 	C 	0.9048	0.6372	0.0164	-0.128
Mof_H 	H 	0.9501	0.6565	0.991	0.074
Mof_C 	C 	0.754	0.6597	0.0219	0.036
Mof_H 	H 	0.6963	0.6927	-0	0.017
Mof_C 	C 	0.6882	0.6347	0.0586	-0.111
Mof_H 	H 	0.5852	0.6518	0.0622	0.068
Mof_C 	C 	0.7683	0.5859	0.0896	0.029
Mof_H 	H 	0.7218	0.5691	0.1152	0.021
Mof_C 	C 	0.921	0.5597	0.0843	-0.126
Mof_H 	H 	0.977	0.5232	0.1059	0.066
Mof_C 	C 	0.2031	0.5134	0.0063	-0.034
Mof_H 	H 	0.1324	0.4993	0.9853	0.044
Mof_C 	C 	0.3578	0.487	0.9969	-0.035
Mof_H 	H 	0.4284	0.5006	0.018	0.044
Mof_C 	C 	0.4108	0.4448	0.9606	-0.069
Mof_C 	C 	0.5719	0.4197	0.9547	0.08
Mof_C 	C 	0.6581	0.3666	0.9851	-0.118
Mof_H 	H 	0.6143	0.3463	0.0107	0.069
Mof_C 	C 	0.8114	0.3421	0.9785	0.027
Mof_H 	H 	0.8708	0.3071	0.9997	0.021
Mof_C 	C 	0.8724	0.3691	0.9417	-0.103
Mof_H 	H 	0.9751	0.3531	0.9371	0.066
Mof_C 	C 	0.7866	0.42	0.9104	0.024
Mof_H 	H 	0.8295	0.4389	0.8846	0.016
Mof_C 	C 	0.638	0.4424	0.9177	-0.124
Mof_H 	H 	0.5786	0.4751	0.8961	0.064
Mof_C 	C 	0.3131	0.4226	0.9246	0.11
Mof_C 	C 	0.2989	0.3009	0.9082	-0.179
Mof_H 	H 	0.3455	0.2315	0.9214	0.088
Mof_C 	C 	0.2174	0.2816	0.873	0.104
Mof_H 	H 	0.2091	0.1986	0.8622	-0.008
Mof_C 	C 	0.1476	0.3804	0.8531	-0.215
Mof_C 	C 	0.1587	0.4994	0.8695	0.103
Mof_H 	H 	0.1116	0.5683	0.8561	-0.006
Mof_C 	C 	0.238	0.5206	0.9053	-0.179
Mof_H 	H 	0.2408	0.603	0.9168	0.091
Mof_C 	C 	0.0636	0.3587	0.8135	0.475
Mof_Ca	Ca	0.04575	0.09885	0.74889	1.299
Mof_O 	O 	0.9868	0.2487	0.7001	-0.483
Mof_O 	O 	0.9159	0.4493	0.70104	-0.476
Mof_O 	O 	0.5105	0.5552	0.2994	-0.509
Mof_O 	O 	0.4203	0.749	0.2976	-0.496
Mof_C 	C 	0.9888	0.3577	0.6864	0.446
Mof_C 	C 	0.0785	0.3789	0.6485	-0.219
Mof_C 	C 	0.0925	0.5011	0.6321	0.098
Mof_H 	H 	0.0438	0.57	0.6449	-0.013
Mof_C 	C 	0.1771	0.5218	0.5971	-0.184
Mof_H 	H 	0.1837	0.6044	0.5859	0.091
Mof_C 	C 	0.2511	0.4239	0.5785	0.118
Mof_C 	C 	0.2408	0.3041	0.5957	-0.189
Mof_H 	H 	0.2942	0.2362	0.5836	0.091
Mof_C 	C 	0.1554	0.2819	0.6297	0.112
Mof_H 	H 	0.1489	0.1987	0.6404	-0.02
Mof_C 	C 	0.3488	0.4443	0.542	-0.071
Mof_C 	C 	0.5109	0.4124	0.5473	0.081
Mof_C 	C 	0.5952	0.3628	0.5164	-0.126
Mof_H 	H 	0.5499	0.3435	0.491	0.073
Mof_C 	C 	0.746	0.3403	0.5219	0.035
Mof_H 	H 	0.8037	0.3073	0.5	0.018
Mof_C 	C 	0.8118	0.3653	0.5586	-0.11
Mof_H 	H 	0.9148	0.3482	0.5622	0.067
Mof_C 	C 	0.7317	0.4141	0.5896	0.028
Mof_H 	H 	0.7782	0.4309	0.6152	0.021
Mof_C 	C 	0.579	0.4403	0.5843	-0.125
Mof_H 	H 	0.523	0.4768	0.6059	0.066
Mof_C 	C 	0.2969	0.4866	0.5063	-0.032
Mof_H 	H 	0.3676	0.5007	0.4853	0.043
Mof_C 	C 	0.1422	0.513	0.4969	-0.038
Mof_H 	H 	0.0716	0.4994	0.518	0.046
Mof_C 	C 	0.0892	0.5552	0.4606	-0.066
Mof_C 	C 	0.9281	0.5803	0.4547	0.076
Mof_C 	C 	0.8419	0.6334	0.4851	-0.116
Mof_H 	H 	0.8857	0.6537	0.5107	0.069
Mof_C 	C 	0.6886	0.6579	0.4785	0.025
Mof_H 	H 	0.6292	0.6929	0.4997	0.021
Mof_C 	C 	0.6276	0.6309	0.4417	-0.101
Mof_H 	H 	0.5249	0.6469	0.4371	0.064
Mof_C 	C 	0.7134	0.58	0.4104	0.022
Mof_H 	H 	0.6705	0.5611	0.3846	0.017
Mof_C 	C 	0.862	0.5576	0.4177	-0.122
Mof_H 	H 	0.9214	0.5249	0.3961	0.063
Mof_C 	C 	0.1869	0.5774	0.4246	0.11
Mof_C 	C 	0.2011	0.6991	0.4082	-0.178
Mof_H 	H 	0.1545	0.7685	0.4214	0.089
Mof_C 	C 	0.2826	0.7184	0.373	0.104
Mof_H 	H 	0.2909	0.8014	0.3622	-0.006
Mof_C 	C 	0.3524	0.6196	0.3531	-0.215
Mof_C 	C 	0.3413	0.5006	0.3695	0.103
Mof_H 	H 	0.3884	0.4317	0.3561	-0.006
Mof_C 	C 	0.262	0.4794	0.4053	-0.178
Mof_H 	H 	0.2592	0.397	0.4168	0.091
Mof_C 	C 	0.4364	0.6413	0.3135	0.477
Mof_Ca	Ca	0.54575	0.40115	0.25111	1.314
Mof_O 	O 	0.4868	0.2513	0.2999	-0.484
Mof_O 	O 	0.4159	0.0507	0.29896	-0.474
Mof_O 	O 	0.0105	0.9448	0.7006	-0.501
Mof_O 	O 	0.9203	0.751	0.7024	-0.495
Mof_C 	C 	0.4888	0.1423	0.3136	0.445
Mof_C 	C 	0.5785	0.1211	0.3515	-0.214
Mof_C 	C 	0.5925	0.9989	0.3679	0.093
Mof_H 	H 	0.5438	0.93	0.3551	-0.013
Mof_C 	C 	0.6771	0.9782	0.4029	-0.188
Mof_H 	H 	0.6837	0.8956	0.4141	0.092
Mof_C 	C 	0.7511	0.0761	0.4215	0.122
Mof_C 	C 	0.7408	0.1959	0.4043	-0.189
Mof_H 	H 	0.7942	0.2638	0.4164	0.092
Mof_C 	C 	0.6554	0.2181	0.3703	0.111
Mof_H 	H 	0.6489	0.3013	0.3596	-0.019
Mof_C 	C 	0.8488	0.0557	0.458	-0.073
Mof_C 	C 	0.0109	0.0876	0.4527	0.081
Mof_C 	C 	0.0952	0.1372	0.4836	-0.126
Mof_H 	H 	0.0499	0.1565	0.509	0.072
Mof_C 	C 	0.246	0.1597	0.4781	0.035
Mof_H 	H 	0.3037	0.1927	0.5	0.018
Mof_C 	C 	0.3118	0.1347	0.4414	-0.109
Mof_H 	H 	0.4148	0.1518	0.4378	0.067
Mof_C 	C 	0.2317	0.0859	0.4104	0.028
Mof_H 	H 	0.2782	0.0691	0.3848	0.022
Mof_C 	C 	0.079	0.0597	0.4157	-0.124
Mof_H 	H 	0.023	0.0232	0.3941	0.066
Mof_C 	C 	0.7969	0.0134	0.4937	-0.026
Mof_H 	H 	0.8676	0.9993	0.5147	0.04
Mof_C 	C 	0.6422	0.987	0.5031	-0.042
Mof_H 	H 	0.5716	0.0006	0.482	0.047
Mof_C 	C 	0.5892	0.9448	0.5394	-0.068
Mof_C 	C 	0.4281	0.9197	0.5453	0.079
Mof_C 	C 	0.3419	0.8666	0.5149	-0.118
Mof_H 	H 	0.3857	0.8463	0.4893	0.07
Mof_C 	C 	0.1886	0.8421	0.5215	0.027
Mof_H 	H 	0.1292	0.8071	0.5003	0.021
Mof_C 	C 	0.1276	0.8691	0.5583	-0.102
Mof_H 	H 	0.0249	0.8531	0.5629	0.066
Mof_C 	C 	0.2134	0.92	0.5896	0.024
Mof_H 	H 	0.1705	0.9389	0.6154	0.018
Mof_C 	C 	0.362	0.9424	0.5823	-0.123
Mof_H 	H 	0.4214	0.9751	0.6039	0.065
Mof_C 	C 	0.6869	0.9226	0.5754	0.114
Mof_C 	C 	0.7011	0.8009	0.5918	-0.181
Mof_H 	H 	0.6545	0.7315	0.5786	0.09
Mof_C 	C 	0.7826	0.7816	0.627	0.107
Mof_H 	H 	0.7909	0.6986	0.6378	-0.007
Mof_C 	C 	0.8524	0.8804	0.6469	-0.218
Mof_C 	C 	0.8413	0.9994	0.6305	0.112
Mof_H 	H 	0.8884	0.0683	0.6439	-0.01
Mof_C 	C 	0.762	0.0206	0.5947	-0.188
Mof_H 	H 	0.7592	0.103	0.5832	0.094
Mof_C 	C 	0.9364	0.8587	0.6865	0.473
Mof_Ca	Ca	0.95425	0.59885	0.75111	1.313
Mof_O 	O 	0.0132	0.7487	0.7999	-0.484
Mof_O 	O 	0.0841	0.9493	0.79896	-0.471
Mof_O 	O 	0.4895	0.0552	0.2006	-0.507
Mof_O 	O 	0.5797	0.249	0.2024	-0.497
Mof_C 	C 	0.0112	0.8577	0.8136	0.447
Mof_C 	C 	0.9215	0.8789	0.8515	-0.217
Mof_C 	C 	0.9075	0.0011	0.8679	0.095
Mof_H 	H 	0.9562	0.07	0.8551	-0.013
Mof_C 	C 	0.8229	0.0218	0.9029	-0.187
Mof_H 	H 	0.8163	0.1044	0.9141	0.092
Mof_C 	C 	0.7489	0.9239	0.9215	0.12
Mof_C 	C 	0.7592	0.8041	0.9043	-0.189
Mof_H 	H 	0.7058	0.7362	0.9164	0.092
Mof_C 	C 	0.8446	0.7819	0.8703	0.112
Mof_H 	H 	0.8511	0.6987	0.8596	-0.019
Mof_C 	C 	0.6512	0.9443	0.958	-0.071
Mof_C 	C 	0.4891	0.9124	0.9527	0.082
Mof_C 	C 	0.4048	0.8628	0.9836	-0.126
Mof_H 	H 	0.4501	0.8435	0.009	0.072
Mof_C 	C 	0.254	0.8403	0.9781	0.037
Mof_H 	H 	0.1963	0.8073	-0	0.017
Mof_C 	C 	0.1882	0.8653	0.9414	-0.11
Mof_H 	H 	0.0852	0.8482	0.9378	0.068
Mof_C 	C 	0.2683	0.9141	0.9104	0.029
Mof_H 	H 	0.2218	0.9309	0.8848	0.023
Mof_C 	C 	0.421	0.9403	0.9157	-0.124
Mof_H 	H 	0.477	0.9768	0.8941	0.067
Mof_C 	C 	0.7031	0.9866	0.9937	-0.032
Mof_H 	H 	0.6324	0.0007	0.0147	0.043
Mof_C 	C 	0.8578	0.013	0.0031	-0.036
Mof_H 	H 	0.9284	0.9994	0.982	0.045
Mof_C 	C 	0.9108	0.0552	0.0394	-0.069
Mof_C 	C 	0.0719	0.0803	0.0453	0.075
Mof_C 	C 	0.1581	0.1334	0.0149	-0.117
Mof_H 	H 	0.1143	0.1537	0.9893	0.068
Mof_C 	C 	0.3114	0.1579	0.0215	0.025
Mof_H 	H 	0.3708	0.1929	0.0003	0.021
Mof_C 	C 	0.3724	0.1309	0.0583	-0.101
Mof_H 	H 	0.4751	0.1469	0.0629	0.065
Mof_C 	C 	0.2866	0.08	0.0896	0.022
Mof_H 	H 	0.3295	0.0611	0.1154	0.017
Mof_C 	C 	0.138	0.0576	0.0823	-0.122
Mof_H 	H 	0.0786	0.0249	0.1039	0.063
Mof_C 	C 	0.8131	0.0774	0.0754	0.122
Mof_C 	C 	0.7989	0.1991	0.0918	-0.187
Mof_H 	H 	0.8455	0.2685	0.0786	0.093
Mof_C 	C 	0.7174	0.2184	0.127	0.114
Mof_H 	H 	0.7091	0.3014	0.1378	-0.009
Mof_C 	C 	0.6476	0.1196	0.1469	-0.225
Mof_C 	C 	0.6587	0.0006	0.1305	0.126
Mof_H 	H 	0.6116	0.9317	0.1439	-0.016
Mof_C 	C 	0.738	0.9794	0.0947	-0.2
Mof_H 	H 	0.7408	0.897	0.0832	0.097
Mof_C 	C 	0.5636	0.1413	0.1865	0.481
_end
