data_functionalizedCrystal
_audit_creation_method	'EQeq! by Chris Wilmer'
_symmetry_space_group_name_H-M	'P1'
_symmetry_Int_Tables_number	1
_symmetry_cell_setting	triclinic
loop_
_symmetry_equiv_pos_as_xyz
  x,y,z
_cell_length_a	12.4853
_cell_length_b	12.4853
_cell_length_c	23.9367
_cell_angle_alpha	104.354
_cell_angle_beta	104.354
_cell_angle_gamma	92.833
loop_
_atom_site_label
_atom_site_type_symbol
_atom_site_fract_x
_atom_site_fract_y
_atom_site_fract_z
_atom_site_charge
Mof_Co	Co	0.5	0	-0	1.119
Mof_Co	Co	0.5	0.5	-0	1.126
Mof_Co	Co	-2.45194e-17	0.5	0.5	1.145
Mof_Co	Co	0.5	0.5	0.5	1.155
Mof_P 	P 	0.75882	0.00882	0.75	0.257
Mof_P 	P 	0.99118	0.24118	0.75	0.313
Mof_P 	P 	0.24118	0.99118	0.25	0.308
Mof_P 	P 	0.00882	0.75882	0.25	0.251
Mof_P 	P 	0.76358	0.23642	0.75	0.289
Mof_P 	P 	0.98642	0.01358	0.75	0.289
Mof_P 	P 	0.23642	0.76358	0.25	0.288
Mof_P 	P 	0.01358	0.98642	0.25	0.281
Mof_H 	H 	0.8147	0.8973	0.8056	0.155
Mof_H 	H 	0.5818	0.04	0.809	0.147
Mof_H 	H 	0.4894	0.0516	0.8808	-0.008
Mof_H 	H 	0.582	0.2868	0.927	0.01
Mof_H 	H 	0.6877	0.8723	0.96	-0.011
Mof_H 	H 	0.6751	0.2293	0.857	0.135
Mof_H 	H 	0.7881	0.8547	0.8916	0.143
Mof_H 	H 	0.7339	0.5487	0.8586	0.146
Mof_H 	H 	0.6403	0.5951	0.929	-0.015
Mof_H 	H 	0.8011	0.4057	0.7968	0.19
Mof_H 	H 	0.9909	0.4083	0.8056	0.172
Mof_H 	H 	0.2272	0.269	0.809	0.139
Mof_H 	H 	0.3914	0.3292	0.8808	-0.008
Mof_H 	H 	0.345	0.1402	0.927	0.012
Mof_H 	H 	0.2723	0.5877	0.96	-0.011
Mof_H 	H 	0.1819	0.1277	0.857	0.141
Mof_H 	H 	0.1035	0.5369	0.8916	0.13
Mof_H 	H 	0.1247	0.8099	0.8586	0.143
Mof_H 	H 	0.2887	0.8339	0.929	-0.018
Mof_H 	H 	0.9957	0.8911	0.7968	0.216
Mof_H 	H 	0.1027	0.1853	0.6944	0.149
Mof_H 	H 	0.96	0.4182	0.691	0.133
Mof_H 	H 	0.9484	0.5106	0.6192	-0.013
Mof_H 	H 	0.7132	0.418	0.573	-0.007
Mof_H 	H 	0.1277	0.3123	0.54	-0.027
Mof_H 	H 	0.7707	0.3249	0.643	0.133
Mof_H 	H 	0.1453	0.2119	0.6084	0.123
Mof_H 	H 	0.4513	0.2661	0.6414	0.142
Mof_H 	H 	0.4049	0.3597	0.571	-0.024
Mof_H 	H 	0.5943	0.1989	0.7032	0.188
Mof_H 	H 	0.5917	0.0091	0.6944	0.131
Mof_H 	H 	0.731	0.7728	0.691	0.14
Mof_H 	H 	0.6708	0.6086	0.6192	-0.013
Mof_H 	H 	0.8598	0.655	0.573	-0.008
Mof_H 	H 	0.4123	0.7277	0.54	-0.027
Mof_H 	H 	0.8723	0.8181	0.643	0.125
Mof_H 	H 	0.4631	0.8965	0.6084	0.136
Mof_H 	H 	0.1901	0.8753	0.6414	0.142
Mof_H 	H 	0.1661	0.7113	0.571	-0.019
Mof_H 	H 	0.1089	0.0043	0.7032	0.167
Mof_H 	H 	0.1853	0.1027	0.1944	0.148
Mof_H 	H 	0.4182	0.96	0.191	0.134
Mof_H 	H 	0.5106	0.9484	0.1192	-0.017
Mof_H 	H 	0.418	0.7132	0.073	-0.024
Mof_H 	H 	0.3123	0.1277	0.04	-0.042
Mof_H 	H 	0.3249	0.7707	0.143	0.131
Mof_H 	H 	0.2119	0.1453	0.1084	0.118
Mof_H 	H 	0.2661	0.4513	0.1414	0.14
Mof_H 	H 	0.3597	0.4049	0.071	-0.029
Mof_H 	H 	0.1989	0.5943	0.2032	0.187
Mof_H 	H 	0.0091	0.5917	0.1944	0.127
Mof_H 	H 	0.7728	0.731	0.191	0.14
Mof_H 	H 	0.6086	0.6708	0.1192	-0.017
Mof_H 	H 	0.655	0.8598	0.073	-0.025
Mof_H 	H 	0.7277	0.4123	0.04	-0.041
Mof_H 	H 	0.8181	0.8723	0.143	0.125
Mof_H 	H 	0.8965	0.4631	0.1084	0.132
Mof_H 	H 	0.8753	0.1901	0.1414	0.142
Mof_H 	H 	0.7113	0.1661	0.071	-0.025
Mof_H 	H 	0.0043	0.1089	0.2032	0.162
Mof_H 	H 	0.8973	0.8147	0.3056	0.153
Mof_H 	H 	0.04	0.5818	0.309	0.148
Mof_H 	H 	0.0516	0.4894	0.3808	-0.013
Mof_H 	H 	0.2868	0.582	0.427	-0.008
Mof_H 	H 	0.8723	0.6877	0.46	-0.027
Mof_H 	H 	0.2293	0.6751	0.357	0.133
Mof_H 	H 	0.8547	0.7881	0.3916	0.139
Mof_H 	H 	0.5487	0.7339	0.3586	0.144
Mof_H 	H 	0.5951	0.6403	0.429	-0.022
Mof_H 	H 	0.4057	0.8011	0.2968	0.189
Mof_H 	H 	0.4083	0.9909	0.3056	0.169
Mof_H 	H 	0.269	0.2272	0.309	0.139
Mof_H 	H 	0.3292	0.3914	0.3808	-0.013
Mof_H 	H 	0.1402	0.345	0.427	-0.006
Mof_H 	H 	0.5877	0.2723	0.46	-0.028
Mof_H 	H 	0.1277	0.1819	0.357	0.14
Mof_H 	H 	0.5369	0.1035	0.3916	0.125
Mof_H 	H 	0.8099	0.1247	0.3586	0.142
Mof_H 	H 	0.8339	0.2887	0.429	-0.026
Mof_H 	H 	0.8911	0.9957	0.2968	0.213
Mof_H 	H 	0.5352	0.2852	0.0704	-0.145
Mof_H 	H 	0.7148	0.4648	0.4296	-0.139
Mof_H 	H 	0.4648	0.7148	0.9296	-0.131
Mof_H 	H 	0.2852	0.5352	0.5704	-0.142
Mof_C 	C 	0.71338	0.38192	0.84654	0.246
Mof_C 	C 	0.69966	0.9487	0.84248	0.262
Mof_C 	C 	0.60628	0.00648	0.83976	-0.271
Mof_C 	C 	0.55122	0.01282	0.88324	0.14
Mof_C 	C 	0.61241	0.34041	0.91262	0.144
Mof_C 	C 	0.66749	0.90789	0.92978	0.16
Mof_C 	C 	0.66775	0.30455	0.8701	-0.237
Mof_C 	C 	0.72848	0.89648	0.88876	-0.252
Mof_C 	C 	0.7026	0.493	0.8712	-0.257
Mof_C 	C 	0.6461	0.5201	0.9138	0.158
Mof_C 	C 	0.13316	0.96462	0.84654	0.272
Mof_C 	C 	0.14282	0.39378	0.84248	0.232
Mof_C 	C 	0.23348	0.33328	0.83976	-0.244
Mof_C 	C 	0.33202	0.37042	0.88324	0.15
Mof_C 	C 	0.30021	0.07221	0.91262	0.135
Mof_C 	C 	0.26229	0.52189	0.92978	0.147
Mof_C 	C 	0.20235	0.06555	0.8701	-0.265
Mof_C 	C 	0.16028	0.49228	0.88876	-0.244
Mof_C 	C 	0.1686	0.8782	0.8712	-0.271
Mof_C 	C 	0.2677	0.8937	0.9138	0.167
Mof_C 	C 	0.61808	0.28662	0.65346	0.243
Mof_C 	C 	0.0513	0.30034	0.65752	0.2
Mof_C 	C 	0.99352	0.39372	0.66024	-0.214
Mof_C 	C 	0.98718	0.44878	0.61676	0.158
Mof_C 	C 	0.65959	0.38759	0.58738	0.14
Mof_C 	C 	0.09211	0.33251	0.57022	0.132
Mof_C 	C 	0.69545	0.33225	0.6299	-0.244
Mof_C 	C 	0.10352	0.27152	0.61124	-0.236
Mof_C 	C 	0.507	0.2974	0.6288	-0.262
Mof_C 	C 	0.4799	0.3539	0.5862	0.152
Mof_C 	C 	0.03538	0.86684	0.65346	0.21
Mof_C 	C 	0.60622	0.85718	0.65752	0.231
Mof_C 	C 	0.66672	0.76652	0.66024	-0.241
Mof_C 	C 	0.62958	0.66798	0.61676	0.146
Mof_C 	C 	0.92779	0.69979	0.58738	0.151
Mof_C 	C 	0.47811	0.73771	0.57022	0.145
Mof_C 	C 	0.93445	0.79765	0.6299	-0.209
Mof_C 	C 	0.50772	0.83972	0.61124	-0.244
Mof_C 	C 	0.1218	0.8314	0.6288	-0.247
Mof_C 	C 	0.1063	0.7323	0.5862	0.14
Mof_C 	C 	0.28662	0.61808	0.15346	0.24
Mof_C 	C 	0.30034	0.0513	0.15752	0.202
Mof_C 	C 	0.39372	0.99352	0.16024	-0.219
Mof_C 	C 	0.44878	0.98718	0.11676	0.15
Mof_C 	C 	0.38759	0.65959	0.08738	0.137
Mof_C 	C 	0.33251	0.09211	0.07022	0.13
Mof_C 	C 	0.33225	0.69545	0.1299	-0.249
Mof_C 	C 	0.27152	0.10352	0.11124	-0.242
Mof_C 	C 	0.2974	0.507	0.1288	-0.266
Mof_C 	C 	0.3539	0.4799	0.0862	0.147
Mof_C 	C 	0.86684	0.03538	0.15346	0.213
Mof_C 	C 	0.85718	0.60622	0.15752	0.229
Mof_C 	C 	0.76652	0.66672	0.16024	-0.242
Mof_C 	C 	0.66798	0.62958	0.11676	0.141
Mof_C 	C 	0.69979	0.92779	0.08738	0.145
Mof_C 	C 	0.73771	0.47811	0.07022	0.142
Mof_C 	C 	0.79765	0.93445	0.1299	-0.219
Mof_C 	C 	0.83972	0.50772	0.11124	-0.248
Mof_C 	C 	0.8314	0.1218	0.1288	-0.251
Mof_C 	C 	0.7323	0.1063	0.0862	0.138
Mof_C 	C 	0.38192	0.71338	0.34654	0.245
Mof_C 	C 	0.9487	0.69966	0.34248	0.264
Mof_C 	C 	0.00648	0.60628	0.33976	-0.277
Mof_C 	C 	0.01282	0.55122	0.38324	0.134
Mof_C 	C 	0.34041	0.61241	0.41262	0.141
Mof_C 	C 	0.90789	0.66749	0.42978	0.158
Mof_C 	C 	0.30455	0.66775	0.3701	-0.243
Mof_C 	C 	0.89648	0.72848	0.38876	-0.258
Mof_C 	C 	0.493	0.7026	0.3712	-0.261
Mof_C 	C 	0.5201	0.6461	0.4138	0.154
Mof_C 	C 	0.96462	0.13316	0.34654	0.275
Mof_C 	C 	0.39378	0.14282	0.34248	0.23
Mof_C 	C 	0.33328	0.23348	0.33976	-0.245
Mof_C 	C 	0.37042	0.33202	0.38324	0.146
Mof_C 	C 	0.07221	0.30021	0.41262	0.13
Mof_C 	C 	0.52189	0.26229	0.42978	0.144
Mof_C 	C 	0.06555	0.20235	0.3701	-0.275
Mof_C 	C 	0.49228	0.16028	0.38876	-0.249
Mof_C 	C 	0.8782	0.1686	0.3712	-0.276
Mof_C 	C 	0.8937	0.2677	0.4138	0.165
Mof_C 	C 	0.51438	0.26438	0.02876	0.514
Mof_C 	C 	0.73562	0.48562	0.47124	0.503
Mof_C 	C 	0.48562	0.73562	0.97124	0.485
Mof_C 	C 	0.26438	0.51438	0.52876	0.507
Mof_N 	N 	0.74981	0.13587	0.77794	-0.177
Mof_N 	N 	0.76456	0.94204	0.80266	-0.249
Mof_N 	N 	0.77228	0.3547	0.8037	-0.291
Mof_N 	N 	0.5804	0.96706	0.9291	-0.229
Mof_N 	N 	0.59848	0.44684	0.93514	-0.233
Mof_N 	N 	0.02813	0.14207	0.77794	-0.195
Mof_N 	N 	0.0381	0.36062	0.80266	-0.279
Mof_N 	N 	0.03142	0.949	0.8037	-0.317
Mof_N 	N 	0.3487	0.46204	0.9291	-0.241
Mof_N 	N 	0.33666	0.9883	0.93514	-0.222
Mof_N 	N 	0.86413	0.25019	0.72206	-0.181
Mof_N 	N 	0.05796	0.23544	0.69734	-0.26
Mof_N 	N 	0.6453	0.22772	0.6963	-0.293
Mof_N 	N 	0.03294	0.4196	0.5709	-0.266
Mof_N 	N 	0.55316	0.40152	0.56486	-0.25
Mof_N 	N 	0.85793	0.97187	0.72206	-0.162
Mof_N 	N 	0.63938	0.9619	0.69734	-0.23
Mof_N 	N 	0.051	0.96858	0.6963	-0.271
Mof_N 	N 	0.53796	0.6513	0.5709	-0.255
Mof_N 	N 	0.0117	0.66334	0.56486	-0.261
Mof_N 	N 	0.25019	0.86413	0.22206	-0.183
Mof_N 	N 	0.23544	0.05796	0.19734	-0.26
Mof_N 	N 	0.22772	0.6453	0.1963	-0.293
Mof_N 	N 	0.4196	0.03294	0.0709	-0.272
Mof_N 	N 	0.40152	0.55316	0.06486	-0.26
Mof_N 	N 	0.97187	0.85793	0.22206	-0.161
Mof_N 	N 	0.9619	0.63938	0.19734	-0.226
Mof_N 	N 	0.96858	0.051	0.1963	-0.266
Mof_N 	N 	0.6513	0.53796	0.0709	-0.263
Mof_N 	N 	0.66334	0.0117	0.06486	-0.268
Mof_N 	N 	0.13587	0.74981	0.27794	-0.178
Mof_N 	N 	0.94204	0.76456	0.30266	-0.248
Mof_N 	N 	0.3547	0.77228	0.3037	-0.291
Mof_N 	N 	0.96706	0.5804	0.4291	-0.242
Mof_N 	N 	0.44684	0.59848	0.43514	-0.249
Mof_N 	N 	0.14207	0.02813	0.27794	-0.195
Mof_N 	N 	0.36062	0.0381	0.30266	-0.277
Mof_N 	N 	0.949	0.03142	0.3037	-0.314
Mof_N 	N 	0.46204	0.3487	0.4291	-0.256
Mof_N 	N 	0.9883	0.33666	0.43514	-0.236
Mof_O 	O 	0.52398	0.16648	0.00248	-0.499
Mof_O 	O 	0.4785	0.336	0.00248	-0.497
Mof_O 	O 	0.83352	0.47602	0.49752	-0.458
Mof_O 	O 	0.664	0.5215	0.49752	-0.464
Mof_O 	O 	0.47602	0.83352	0.99752	-0.415
Mof_O 	O 	0.5215	0.664	0.99752	-0.42
Mof_O 	O 	0.16648	0.52398	0.50248	-0.468
Mof_O 	O 	0.336	0.4785	0.50248	-0.466
Mof_Cl	Cl	0.36306	0.11306	0.72612	-0.212
Mof_O 	O 	0.3912	0.2346	0.7374	-0.058
Mof_O 	O 	0.4369	0.0705	0.6942	-0.069
Mof_O 	O 	0.3462	0.0028	0.7374	-0.065
Mof_O 	O 	0.2573	0.1237	0.6942	-0.068
Mof_Cl	Cl	0.88694	0.63694	0.77388	-0.218
Mof_O 	O 	0.7654	0.6088	0.7626	-0.056
Mof_O 	O 	0.9295	0.5631	0.8058	-0.056
Mof_O 	O 	0.9972	0.6538	0.7626	-0.048
Mof_O 	O 	0.8763	0.7427	0.8058	-0.057
Mof_Cl	Cl	0.63694	0.88694	0.27388	-0.217
Mof_O 	O 	0.6088	0.7654	0.2626	-0.056
Mof_O 	O 	0.5631	0.9295	0.3058	-0.059
Mof_O 	O 	0.6538	0.9972	0.2626	-0.048
Mof_O 	O 	0.7427	0.8763	0.3058	-0.06
Mof_Cl	Cl	0.11306	0.36306	0.22612	-0.211
Mof_O 	O 	0.2346	0.3912	0.2374	-0.058
Mof_O 	O 	0.0705	0.4369	0.1942	-0.072
Mof_O 	O 	0.0028	0.3462	0.2374	-0.066
Mof_O 	O 	0.1237	0.2573	0.1942	-0.071
_end
