data_functionalizedCrystal
_audit_creation_method	'EQeq! by Chris Wilmer'
_symmetry_space_group_name_H-M	'P1'
_symmetry_Int_Tables_number	1
_symmetry_cell_setting	triclinic
loop_
_symmetry_equiv_pos_as_xyz
  x,y,z
_cell_length_a	10.186
_cell_length_b	10.186
_cell_length_c	24.367
_cell_angle_alpha	90
_cell_angle_beta	90
_cell_angle_gamma	90
loop_
_atom_site_label
_atom_site_type_symbol
_atom_site_fract_x
_atom_site_fract_y
_atom_site_fract_z
_atom_site_charge
Mof_Cd	Cd	0.09765	0.7613	0.0009	0.427
Mof_C 	C 	0.0907	0.5088	0.9561	0.279
Mof_C 	C 	0.0856	0.3805	0.9237	-0.113
Mof_C 	C 	0.0758	0.3809	0.8671	-0.022
Mof_H 	H 	0.0733	0.4622	0.8472	0.036
Mof_C 	C 	0.0735	0.2635	0.8408	0.026
Mof_C 	C 	0.0811	0.142	0.8682	-0.011
Mof_H 	H 	0.0776	0.0617	0.8476	-0.018
Mof_C 	C 	0.0896	0.142	0.9235	-0.196
Mof_C 	C 	0.0916	0.2631	0.9525	0.055
Mof_H 	H 	0.0935	0.2645	0.9919	-0.017
Mof_C 	C 	0.0996	0.0132	0.9539	0.31
Mof_C 	C 	0.8512	0.7543	0.0496	0.827
Mof_C 	C 	0.7209	0.7485	0.0789	-0.507
Mof_C 	C 	0.7166	0.7457	0.1363	0.283
Mof_H 	H 	0.7967	0.7496	0.157	-0.183
Mof_C 	C 	0.5964	0.7421	0.163	-0.185
Mof_C 	C 	0.4781	0.7445	0.1331	0.287
Mof_H 	H 	0.3952	0.7446	0.1519	-0.27
Mof_C 	C 	0.481	0.7458	0.0755	-0.498
Mof_C 	C 	0.6021	0.749	0.049	0.468
Mof_C 	C 	0.355	0.7531	0.0431	0.726
Mof_H 	H 	0.6043	0.7543	0.0117	-0.26
Mof_O 	O 	0.0985	0.5099	0.0057	-0.293
Mof_O 	O 	0.0874	0.6158	0.9284	-0.355
Mof_O 	O 	0.1377	0.0124	0.0018	-0.307
Mof_O 	O 	0.066	0.9121	0.9297	-0.643
Mof_O 	O 	0.0458	0.364	0.7556	-0.382
Mof_O 	O 	0.0588	0.157	0.7578	-0.415
Mof_O 	O 	0.8528	0.7583	0.0005	-0.834
Mof_O 	O 	0.9542	0.7552	0.0783	-0.902
Mof_O 	O 	0.3577	0.7431	0.9933	-0.572
Mof_O 	O 	0.2506	0.7618	0.0698	-0.864
Mof_O 	O 	0.4935	0.6893	0.2443	-0.187
Mof_O 	O 	0.6831	0.753	0.2465	-0.144
Mof_N 	N 	0.0598	0.2589	0.7809	0.027
Mof_N 	N 	0.5902	0.7362	0.2207	0.025
Mof_K 	K 	0.5346	0.8207	0.9111	0.638
Mof_K 	K 	0.7964	0.88834	0.91041	3.69
Mof_Cd	Cd	0.90235	0.2387	0.5009	0.38
Mof_C 	C 	0.9093	0.4912	0.4561	0.362
Mof_C 	C 	0.9144	0.6195	0.4237	-0.144
Mof_C 	C 	0.9242	0.6191	0.3671	0.002
Mof_H 	H 	0.9267	0.5378	0.3472	0.028
Mof_C 	C 	0.9265	0.7365	0.3408	0.011
Mof_C 	C 	0.9189	0.858	0.3682	0.014
Mof_H 	H 	0.9224	0.9383	0.3476	-0.026
Mof_C 	C 	0.9104	0.858	0.4235	-0.229
Mof_C 	C 	0.9084	0.7369	0.4525	0.092
Mof_H 	H 	0.9065	0.7355	0.4919	-0.004
Mof_C 	C 	0.9004	0.9868	0.4539	0.411
Mof_C 	C 	0.1488	0.2457	0.5496	0.841
Mof_C 	C 	0.2791	0.2515	0.5789	-0.522
Mof_C 	C 	0.2834	0.2543	0.6363	0.285
Mof_H 	H 	0.2033	0.2504	0.657	-0.186
Mof_C 	C 	0.4036	0.2579	0.663	-0.186
Mof_C 	C 	0.5219	0.2555	0.6331	0.276
Mof_H 	H 	0.6048	0.2554	0.6519	-0.266
Mof_C 	C 	0.519	0.2542	0.5755	-0.485
Mof_C 	C 	0.3979	0.251	0.549	0.461
Mof_C 	C 	0.645	0.2469	0.5431	0.637
Mof_H 	H 	0.3957	0.2457	0.5117	-0.287
Mof_O 	O 	0.9015	0.4901	0.5057	-0.362
Mof_O 	O 	0.9126	0.3842	0.4284	-0.358
Mof_O 	O 	0.8623	0.9876	0.5018	-0.371
Mof_O 	O 	0.934	0.0879	0.4297	-0.669
Mof_O 	O 	0.9542	0.636	0.2556	-0.381
Mof_O 	O 	0.9412	0.843	0.2578	-0.412
Mof_O 	O 	0.1472	0.2417	0.5005	-0.891
Mof_O 	O 	0.0458	0.2448	0.5783	-0.913
Mof_O 	O 	0.6423	0.2569	0.4933	-0.491
Mof_O 	O 	0.7494	0.2382	0.5698	-0.843
Mof_O 	O 	0.5065	0.3107	0.7443	-0.189
Mof_O 	O 	0.3169	0.247	0.7465	-0.147
Mof_N 	N 	0.9402	0.7411	0.2809	0.029
Mof_N 	N 	0.4098	0.2638	0.7207	0.024
Mof_K 	K 	0.4654	0.1793	0.4111	0.636
Mof_K 	K 	0.2036	0.11166	0.41041	3.869
Mof_Cd	Cd	0.2387	0.09765	0.2509	0.377
Mof_C 	C 	0.4912	0.0907	0.2061	0.361
Mof_C 	C 	0.6195	0.0856	0.1737	-0.142
Mof_C 	C 	0.6191	0.0758	0.1171	-0.002
Mof_H 	H 	0.5378	0.0733	0.0972	0.033
Mof_C 	C 	0.7365	0.0735	0.0908	0.02
Mof_C 	C 	0.858	0.0811	0.1182	0.011
Mof_H 	H 	0.9383	0.0776	0.0976	-0.022
Mof_C 	C 	0.858	0.0896	0.1735	-0.227
Mof_C 	C 	0.7369	0.0916	0.2025	0.09
Mof_H 	H 	0.7355	0.0935	0.2419	-0.004
Mof_C 	C 	0.9868	0.0996	0.2039	0.41
Mof_C 	C 	0.2457	0.8512	0.2996	0.84
Mof_C 	C 	0.2515	0.7209	0.3289	-0.522
Mof_C 	C 	0.2543	0.7166	0.3863	0.285
Mof_H 	H 	0.2504	0.7967	0.407	-0.185
Mof_C 	C 	0.2579	0.5964	0.413	-0.186
Mof_C 	C 	0.2555	0.4781	0.3831	0.277
Mof_H 	H 	0.2554	0.3952	0.4019	-0.266
Mof_C 	C 	0.2542	0.481	0.3255	-0.485
Mof_C 	C 	0.251	0.6021	0.299	0.462
Mof_C 	C 	0.2469	0.355	0.2931	0.638
Mof_H 	H 	0.2457	0.6043	0.2617	-0.289
Mof_O 	O 	0.4901	0.0985	0.2557	-0.363
Mof_O 	O 	0.3842	0.0874	0.1784	-0.358
Mof_O 	O 	0.9876	0.1377	0.2518	-0.373
Mof_O 	O 	0.0879	0.066	0.1797	-0.671
Mof_O 	O 	0.636	0.0458	0.0056	-0.346
Mof_O 	O 	0.843	0.0588	0.0078	-0.37
Mof_O 	O 	0.2417	0.8528	0.2505	-0.89
Mof_O 	O 	0.2448	0.9542	0.3283	-0.91
Mof_O 	O 	0.2569	0.3577	0.2433	-0.492
Mof_O 	O 	0.2382	0.2506	0.3198	-0.843
Mof_O 	O 	0.3107	0.4935	0.4943	-0.188
Mof_O 	O 	0.247	0.6831	0.4965	-0.145
Mof_N 	N 	0.7411	0.0598	0.0309	0.025
Mof_N 	N 	0.2638	0.5902	0.4707	0.024
Mof_K 	K 	0.1793	0.5346	0.1611	0.66
Mof_K 	K 	0.11166	0.7964	0.16041	3.875
Mof_Cd	Cd	0.7613	0.90235	0.7509	0.385
Mof_C 	C 	0.5088	0.9093	0.7061	0.362
Mof_C 	C 	0.3805	0.9144	0.6737	-0.143
Mof_C 	C 	0.3809	0.9242	0.6171	0.001
Mof_H 	H 	0.4622	0.9267	0.5972	0.028
Mof_C 	C 	0.2635	0.9265	0.5908	0.012
Mof_C 	C 	0.142	0.9189	0.6182	0.013
Mof_H 	H 	0.0617	0.9224	0.5976	-0.027
Mof_C 	C 	0.142	0.9104	0.6735	-0.227
Mof_C 	C 	0.2631	0.9084	0.7025	0.09
Mof_H 	H 	0.2645	0.9065	0.7419	-0.003
Mof_C 	C 	0.0132	0.9004	0.7039	0.403
Mof_C 	C 	0.7543	0.1488	0.7996	0.832
Mof_C 	C 	0.7485	0.2791	0.8289	-0.518
Mof_C 	C 	0.7457	0.2834	0.8863	0.283
Mof_H 	H 	0.7496	0.2033	0.907	-0.188
Mof_C 	C 	0.7421	0.4036	0.913	-0.192
Mof_C 	C 	0.7445	0.5219	0.8831	0.274
Mof_H 	H 	0.7446	0.6048	0.9019	-0.264
Mof_C 	C 	0.7458	0.519	0.8255	-0.479
Mof_C 	C 	0.749	0.3979	0.799	0.457
Mof_C 	C 	0.7531	0.645	0.7931	0.629
Mof_H 	H 	0.7543	0.3957	0.7617	-0.285
Mof_O 	O 	0.5099	0.9015	0.7557	-0.36
Mof_O 	O 	0.6158	0.9126	0.6784	-0.358
Mof_O 	O 	0.0124	0.8623	0.7518	-0.369
Mof_O 	O 	0.9121	0.934	0.6797	-0.663
Mof_O 	O 	0.364	0.9542	0.5056	-0.381
Mof_O 	O 	0.157	0.9412	0.5078	-0.413
Mof_O 	O 	0.7583	0.1472	0.7505	-0.889
Mof_O 	O 	0.7552	0.0458	0.8283	-0.896
Mof_O 	O 	0.7431	0.6423	0.7433	-0.488
Mof_O 	O 	0.7618	0.7494	0.8198	-0.823
Mof_O 	O 	0.6893	0.5065	0.9943	-0.223
Mof_O 	O 	0.753	0.3169	0.9965	-0.182
Mof_N 	N 	0.2589	0.9402	0.5309	0.029
Mof_N 	N 	0.7362	0.4098	0.9707	0.03
Mof_K 	K 	0.8207	0.4654	0.6611	0.637
Mof_K 	K 	0.88834	0.2036	0.66041	3.875
_end
