data_functionalizedCrystal
_audit_creation_method	'EQeq! by Chris Wilmer'
_symmetry_space_group_name_H-M	'P1'
_symmetry_Int_Tables_number	1
_symmetry_cell_setting	triclinic
loop_
_symmetry_equiv_pos_as_xyz
  x,y,z
_cell_length_a	14.8174
_cell_length_b	14.8174
_cell_length_c	14.8174
_cell_angle_alpha	60
_cell_angle_beta	60
_cell_angle_gamma	60
loop_
_atom_site_label
_atom_site_type_symbol
_atom_site_fract_x
_atom_site_fract_y
_atom_site_fract_z
_atom_site_charge
Mof_C 	C 	0.5523	0.0775	0.4477	0.047
Mof_O 	O 	0.7269	0.9245	0.2731	-0.625
Mof_H 	H 	0.59077	0.14413	0.40923	0.023
Mof_C 	C 	0.0775	0.5523	0.9225	0.098
Mof_O 	O 	0.9245	0.7269	0.0755	-0.63
Mof_H 	H 	0.14413	0.59077	0.85587	0.018
Mof_C 	C 	0.4477	0.9225	0.5523	0.104
Mof_O 	O 	0.2731	0.0755	0.7269	-0.676
Mof_H 	H 	0.40923	0.85587	0.59077	0.021
Mof_C 	C 	0.9225	0.4477	0.0775	0.095
Mof_O 	O 	0.0755	0.2731	0.9245	-0.642
Mof_H 	H 	0.85587	0.40923	0.14413	0.018
Mof_C 	C 	0.4477	0.5523	0.0775	0.048
Mof_O 	O 	0.2731	0.7269	0.9245	-0.624
Mof_H 	H 	0.40923	0.59077	0.14413	0.024
Mof_C 	C 	0.9225	0.0775	0.5523	0.099
Mof_O 	O 	0.0755	0.9245	0.7269	-0.629
Mof_H 	H 	0.85587	0.14413	0.59077	0.019
Mof_C 	C 	0.5523	0.4477	0.9225	0.104
Mof_O 	O 	0.7269	0.2731	0.0755	-0.676
Mof_H 	H 	0.59077	0.40923	0.85587	0.021
Mof_C 	C 	0.0775	0.9225	0.4477	0.095
Mof_O 	O 	0.9245	0.0755	0.2731	-0.642
Mof_H 	H 	0.14413	0.85587	0.40923	0.018
Mof_C 	C 	0.0775	0.4477	0.5523	0.048
Mof_O 	O 	0.9245	0.2731	0.7269	-0.624
Mof_H 	H 	0.14413	0.40923	0.59077	0.024
Mof_C 	C 	0.5523	0.9225	0.0775	0.099
Mof_O 	O 	0.7269	0.0755	0.9245	-0.629
Mof_H 	H 	0.59077	0.85587	0.14413	0.019
Mof_C 	C 	0.9225	0.5523	0.4477	0.104
Mof_O 	O 	0.0755	0.7269	0.2731	-0.676
Mof_H 	H 	0.85587	0.59077	0.40923	0.021
Mof_C 	C 	0.4477	0.0775	0.9225	0.095
Mof_O 	O 	0.2731	0.9245	0.0755	-0.642
Mof_H 	H 	0.40923	0.14413	0.85587	0.018
Mof_C 	C 	0.0775	0.5523	0.4477	0.048
Mof_O 	O 	0.9245	0.7269	0.2731	-0.624
Mof_H 	H 	0.14413	0.59077	0.40923	0.024
Mof_C 	C 	0.5523	0.0775	0.9225	0.099
Mof_O 	O 	0.7269	0.9245	0.0755	-0.629
Mof_H 	H 	0.59077	0.14413	0.85587	0.019
Mof_C 	C 	0.9225	0.4477	0.5523	0.104
Mof_O 	O 	0.0755	0.2731	0.7269	-0.676
Mof_H 	H 	0.85587	0.40923	0.59077	0.021
Mof_C 	C 	0.4477	0.9225	0.0775	0.095
Mof_O 	O 	0.2731	0.0755	0.9245	-0.642
Mof_H 	H 	0.40923	0.85587	0.14413	0.018
Mof_C 	C 	0.5523	0.4477	0.0775	0.048
Mof_O 	O 	0.7269	0.2731	0.9245	-0.624
Mof_H 	H 	0.59077	0.40923	0.14413	0.024
Mof_C 	C 	0.0775	0.9225	0.5523	0.099
Mof_O 	O 	0.9245	0.0755	0.7269	-0.629
Mof_H 	H 	0.14413	0.85587	0.59077	0.019
Mof_C 	C 	0.4477	0.5523	0.9225	0.104
Mof_O 	O 	0.2731	0.7269	0.0755	-0.676
Mof_H 	H 	0.40923	0.59077	0.85587	0.021
Mof_C 	C 	0.9225	0.0775	0.4477	0.095
Mof_O 	O 	0.0755	0.9245	0.2731	-0.642
Mof_H 	H 	0.85587	0.14413	0.40923	0.018
Mof_C 	C 	0.4477	0.0775	0.5523	0.048
Mof_O 	O 	0.2731	0.9245	0.7269	-0.624
Mof_H 	H 	0.40923	0.14413	0.59077	0.024
Mof_C 	C 	0.9225	0.5523	0.0775	0.099
Mof_O 	O 	0.0755	0.7269	0.9245	-0.629
Mof_H 	H 	0.85587	0.59077	0.14413	0.019
Mof_C 	C 	0.5523	0.9225	0.4477	0.104
Mof_O 	O 	0.7269	0.0755	0.2731	-0.676
Mof_H 	H 	0.59077	0.85587	0.40923	0.021
Mof_C 	C 	0.0775	0.4477	0.9225	0.095
Mof_O 	O 	0.9245	0.2731	0.0755	-0.642
Mof_H 	H 	0.14413	0.40923	0.85587	0.018
Mof_Zr	Zr	0.8763	0.8763	0.1237	3.157
Mof_Zr	Zr	0.1237	0.1237	0.8763	3.153
Mof_Zr	Zr	0.1237	0.8763	0.8763	3.157
Mof_Zr	Zr	0.8763	0.1237	0.1237	3.153
Mof_Zr	Zr	0.8763	0.1237	0.8763	3.157
Mof_Zr	Zr	0.1237	0.8763	0.1237	3.153
Mof_C 	C 	0.6874	-1.23552e-17	0.3126	0.502
Mof_C 	C 	0.5934	2.47104e-17	0.4066	-0.262
Mof_C 	C 	-0	0.6874	-0	0.454
Mof_C 	C 	-0	0.5934	-0	-0.303
Mof_C 	C 	0.3126	0	0.6874	0.502
Mof_C 	C 	0.4066	0	0.5934	-0.262
Mof_C 	C 	-2.47104e-17	0.3126	-0	0.478
Mof_C 	C 	-2.47104e-17	0.4066	-0	-0.303
Mof_C 	C 	0.3126	0.6874	-0	0.502
Mof_C 	C 	0.4066	0.5934	-0	-0.262
Mof_C 	C 	-0	0	0.6874	0.454
Mof_C 	C 	-0	0	0.5934	-0.303
Mof_C 	C 	0.6874	0.3126	-0	0.502
Mof_C 	C 	0.5934	0.4066	-0	-0.262
Mof_C 	C 	-2.47104e-17	-1.23552e-17	0.3126	0.478
Mof_C 	C 	-1.23552e-17	2.47104e-17	0.4066	-0.303
Mof_C 	C 	-4.94207e-17	0.3126	0.6874	0.502
Mof_C 	C 	-4.94207e-17	0.4066	0.5934	-0.262
Mof_C 	C 	0.6874	0	-0	0.454
Mof_C 	C 	0.5934	0	-0	-0.303
Mof_C 	C 	-6.17759e-17	0.6874	0.3126	0.502
Mof_C 	C 	-1.11197e-16	0.5934	0.4066	-0.262
Mof_C 	C 	0.3126	0	-0	0.478
Mof_C 	C 	0.4066	0	-0	-0.303
Mof_O 	O 	0.7864	0.0712	0.0712	-1.164
Mof_O 	O 	0.0712	0.7864	0.0712	-1.164
Mof_O 	O 	0.0712	0.0712	0.7864	-1.164
Mof_O 	O 	0.0712	0.0712	0.0712	-1.176
Mof_O 	O 	0.9288	0.9288	0.2136	-1.578
Mof_H 	H 	0.9064	0.9064	0.28079	0.611
Mof_O 	O 	0.9288	0.9288	0.9288	-1.531
Mof_H 	H 	0.9064	0.9064	0.9064	0.616
Mof_O 	O 	0.2136	0.9288	0.9288	-1.578
Mof_H 	H 	0.28079	0.9064	0.9064	0.611
Mof_O 	O 	0.9288	0.2136	0.9288	-1.578
Mof_H 	H 	0.9064	0.28079	0.9064	0.611
_end
