data_functionalizedCrystal
_audit_creation_method	'EQeq! by Chris Wilmer'
_symmetry_space_group_name_H-M	'P1'
_symmetry_Int_Tables_number	1
_symmetry_cell_setting	triclinic
loop_
_symmetry_equiv_pos_as_xyz
  x,y,z
_cell_length_a	13.5015
_cell_length_b	17.0533
_cell_length_c	9.6093
_cell_angle_alpha	90
_cell_angle_beta	90
_cell_angle_gamma	90
loop_
_atom_site_label
_atom_site_type_symbol
_atom_site_fract_x
_atom_site_fract_y
_atom_site_fract_z
_atom_site_charge
Mof_O 	O 	0.60262	0.5838	0.3847	-0.475
Mof_C 	C 	0.7213	0.71705	0.6277	0.002
Mof_H 	H 	0.7016	0.694	0.7134	0.042
Mof_H 	H 	0.4406	0.3913	0.1145	0.07
Mof_C 	C 	0.4117	0.459	0.0802	-0.009
Mof_H 	H 	0.3512	0.4853	0.1147	0.018
Mof_H 	H 	0.4113	0.4043	0.1147	-0.031
Mof_O 	O 	0.10262	0.0838	0.3847	-0.49
Mof_C 	C 	0.2213	0.21705	0.6277	0.008
Mof_H 	H 	0.2016	0.194	0.7134	0.029
Mof_H 	H 	0.9406	0.8913	0.1145	1.518
Mof_C 	C 	0.9117	0.959	0.0802	0.357
Mof_H 	H 	0.8512	0.9853	0.1147	0.181
Mof_H 	H 	0.9113	0.9043	0.1147	-1.539
Mof_O 	O 	0.39738	0.4162	0.3847	-0.468
Mof_C 	C 	0.2787	0.28295	0.6277	-0.027
Mof_H 	H 	0.2984	0.306	0.7134	0.053
Mof_H 	H 	0.5594	0.6087	0.1145	-0.02
Mof_C 	C 	0.5883	0.541	0.0802	-0.036
Mof_H 	H 	0.6488	0.5147	0.1147	0.02
Mof_H 	H 	0.5887	0.5957	0.1147	0.062
Mof_O 	O 	0.89738	0.9162	0.3847	-0.459
Mof_C 	C 	0.7787	0.78295	0.6277	-0.035
Mof_H 	H 	0.7984	0.806	0.7134	0.067
Mof_H 	H 	0.0594	0.1087	0.1145	-1.287
Mof_C 	C 	0.0883	0.041	0.0802	-0.309
Mof_H 	H 	0.1488	0.0147	0.1147	-0.233
Mof_H 	H 	0.0887	0.0957	0.1147	1.368
Mof_O 	O 	0.39738	0.5838	0.6153	-0.468
Mof_C 	C 	0.2787	0.71705	0.3723	-0.027
Mof_H 	H 	0.2984	0.694	0.2866	0.054
Mof_H 	H 	0.5594	0.3913	0.8855	-0.021
Mof_C 	C 	0.5883	0.459	0.9198	-0.035
Mof_H 	H 	0.6488	0.4853	0.8853	0.019
Mof_H 	H 	0.5887	0.4043	0.8853	0.063
Mof_O 	O 	0.89738	0.0838	0.6153	-0.466
Mof_C 	C 	0.7787	0.21705	0.3723	-0.038
Mof_H 	H 	0.7984	0.194	0.2866	0.07
Mof_H 	H 	0.0594	0.8913	0.8855	-1.008
Mof_C 	C 	0.0883	0.959	0.9198	-0.376
Mof_H 	H 	0.1488	0.9853	0.8853	0.345
Mof_H 	H 	0.0887	0.9043	0.8853	1.11
Mof_O 	O 	0.60262	0.4162	0.6153	-0.475
Mof_C 	C 	0.7213	0.28295	0.3723	0.003
Mof_H 	H 	0.7016	0.306	0.2866	0.041
Mof_H 	H 	0.4406	0.6087	0.8855	0.071
Mof_C 	C 	0.4117	0.541	0.9198	-0.01
Mof_H 	H 	0.3512	0.5147	0.8853	0.02
Mof_H 	H 	0.4113	0.5957	0.8853	-0.032
Mof_O 	O 	0.10262	0.9162	0.6153	-0.475
Mof_C 	C 	0.2213	0.78295	0.3723	0.01
Mof_H 	H 	0.2016	0.806	0.2866	0.027
Mof_H 	H 	0.9406	0.1087	0.8855	1.326
Mof_C 	C 	0.9117	0.041	0.9198	0.397
Mof_H 	H 	0.8512	0.0147	0.8853	-0.241
Mof_H 	H 	0.9113	0.0957	0.8853	-1.358
Mof_O 	O 	0.39738	0.4162	0.6153	-0.468
Mof_C 	C 	0.2787	0.28295	0.3723	-0.027
Mof_H 	H 	0.2984	0.306	0.2866	0.053
Mof_H 	H 	0.5594	0.6087	0.8855	-0.02
Mof_C 	C 	0.5883	0.541	0.9198	-0.036
Mof_H 	H 	0.6488	0.5147	0.8853	0.02
Mof_H 	H 	0.5887	0.5957	0.8853	0.062
Mof_O 	O 	0.89738	0.9162	0.6153	-0.459
Mof_C 	C 	0.7787	0.78295	0.3723	-0.035
Mof_H 	H 	0.7984	0.806	0.2866	0.067
Mof_H 	H 	0.0594	0.1087	0.8855	-1.287
Mof_C 	C 	0.0883	0.041	0.9198	-0.309
Mof_H 	H 	0.1488	0.0147	0.8853	-0.233
Mof_H 	H 	0.0887	0.0957	0.8853	1.368
Mof_O 	O 	0.60262	0.5838	0.6153	-0.475
Mof_C 	C 	0.7213	0.71705	0.3723	0.002
Mof_H 	H 	0.7016	0.694	0.2866	0.042
Mof_H 	H 	0.4406	0.3913	0.8855	0.07
Mof_C 	C 	0.4117	0.459	0.9198	-0.009
Mof_H 	H 	0.3512	0.4853	0.8853	0.018
Mof_H 	H 	0.4113	0.4043	0.8853	-0.031
Mof_O 	O 	0.10262	0.0838	0.6153	-0.49
Mof_C 	C 	0.2213	0.21705	0.3723	0.008
Mof_H 	H 	0.2016	0.194	0.2866	0.029
Mof_H 	H 	0.9406	0.8913	0.8855	1.518
Mof_C 	C 	0.9117	0.959	0.9198	0.357
Mof_H 	H 	0.8512	0.9853	0.8853	0.181
Mof_H 	H 	0.9113	0.9043	0.8853	-1.539
Mof_O 	O 	0.60262	0.4162	0.3847	-0.475
Mof_C 	C 	0.7213	0.28295	0.6277	0.003
Mof_H 	H 	0.7016	0.306	0.7134	0.041
Mof_H 	H 	0.4406	0.6087	0.1145	0.071
Mof_C 	C 	0.4117	0.541	0.0802	-0.01
Mof_H 	H 	0.3512	0.5147	0.1147	0.02
Mof_H 	H 	0.4113	0.5957	0.1147	-0.032
Mof_O 	O 	0.10262	0.9162	0.3847	-0.475
Mof_C 	C 	0.2213	0.78295	0.6277	0.01
Mof_H 	H 	0.2016	0.806	0.7134	0.027
Mof_H 	H 	0.9406	0.1087	0.1145	1.326
Mof_C 	C 	0.9117	0.041	0.0802	0.397
Mof_H 	H 	0.8512	0.0147	0.1147	-0.241
Mof_H 	H 	0.9113	0.0957	0.1147	-1.358
Mof_O 	O 	0.39738	0.5838	0.3847	-0.468
Mof_C 	C 	0.2787	0.71705	0.6277	-0.027
Mof_H 	H 	0.2984	0.694	0.7134	0.054
Mof_H 	H 	0.5594	0.3913	0.1145	-0.021
Mof_C 	C 	0.5883	0.459	0.0802	-0.035
Mof_H 	H 	0.6488	0.4853	0.1147	0.019
Mof_H 	H 	0.5887	0.4043	0.1147	0.063
Mof_O 	O 	0.89738	0.0838	0.3847	-0.466
Mof_C 	C 	0.7787	0.21705	0.6277	-0.038
Mof_H 	H 	0.7984	0.194	0.7134	0.07
Mof_H 	H 	0.0594	0.8913	0.1145	-1.008
Mof_C 	C 	0.0883	0.959	0.0802	-0.376
Mof_H 	H 	0.1488	0.9853	0.1147	0.345
Mof_H 	H 	0.0887	0.9043	0.1147	1.11
Mof_Zn	Zn	0.5	0.5	0.34791	1.217
Mof_N 	N 	0.5	0.5	0.1338	-0.194
Mof_Zn	Zn	3.78079e-33	1.42619e-33	0.34791	1.222
Mof_N 	N 	-3.56048e-34	0	0.1338	-0.199
Mof_Zn	Zn	0.5	0.5	0.65209	1.217
Mof_N 	N 	0.5	0.5	0.8662	-0.194
Mof_Zn	Zn	1.74012e-33	5.70477e-33	0.65209	1.222
Mof_N 	N 	8.01625e-33	0	0.8662	-0.199
Mof_C 	C 	0.6273	0.61072	0.5	0.402
Mof_C 	C 	0.6912	0.68294	0.5	-0.095
Mof_C 	C 	0.1273	0.11072	0.5	0.415
Mof_C 	C 	0.1912	0.18294	0.5	-0.102
Mof_C 	C 	0.3727	0.38928	0.5	0.396
Mof_C 	C 	0.3088	0.31706	0.5	-0.07
Mof_C 	C 	0.8727	0.88928	0.5	0.384
Mof_C 	C 	0.8088	0.81706	0.5	-0.063
Mof_C 	C 	0.3727	0.61072	0.5	0.396
Mof_C 	C 	0.3088	0.68294	0.5	-0.069
Mof_C 	C 	0.8727	0.11072	0.5	0.382
Mof_C 	C 	0.8088	0.18294	0.5	-0.062
Mof_C 	C 	0.6273	0.38928	0.5	0.402
Mof_C 	C 	0.6912	0.31706	0.5	-0.097
Mof_C 	C 	0.1273	0.88928	0.5	0.416
Mof_C 	C 	0.1912	0.81706	0.5	-0.101
Mof_C 	C 	0.5	0.4193	0.0801	-0.031
Mof_C 	C 	-5.49102e-33	0.9193	0.0801	-0.132
Mof_C 	C 	0.5	0.5807	0.0801	-0.03
Mof_C 	C 	9.26845e-34	0.0807	0.0801	-0.023
Mof_C 	C 	0.5	0.4193	0.9199	-0.031
Mof_C 	C 	1.95691e-32	0.9193	0.9199	-0.132
Mof_C 	C 	0.5	0.5807	0.9199	-0.03
Mof_C 	C 	8.15955e-33	0.0807	0.9199	-0.023
_end
