data_functionalizedCrystal
_audit_creation_method	'EQeq! by Chris Wilmer'
_symmetry_space_group_name_H-M	'P1'
_symmetry_Int_Tables_number	1
_symmetry_cell_setting	triclinic
loop_
_symmetry_equiv_pos_as_xyz
  x,y,z
_cell_length_a	13.0691
_cell_length_b	13.0691
_cell_length_c	30.157
_cell_angle_alpha	90
_cell_angle_beta	90
_cell_angle_gamma	90
loop_
_atom_site_label
_atom_site_type_symbol
_atom_site_fract_x
_atom_site_fract_y
_atom_site_fract_z
_atom_site_charge
Mof_Co	Co	0.89563	0.95191	0.45963	1.155
Mof_C 	C 	0.107	0.9172	0.37798	0.673
Mof_C 	C 	0.1479	0.8342	0.40768	-0.633
Mof_C 	C 	0.078	0.81	0.44758	0.244
Mof_C 	C 	0.1396	0.7334	0.47656	-0.571
Mof_C 	C 	0.0774	0.684	0.51328	0.496
Mof_C 	C 	0.9777	0.758	0.43128	0.359
Mof_H 	H 	0.2149	0.8576	0.4187	0.19
Mof_H 	H 	0.1558	0.7716	0.3911	0.196
Mof_H 	H 	0.1942	0.7725	0.4897	0.158
Mof_H 	H 	0.1693	0.6809	0.4585	0.197
Mof_O 	O 	0.1091	0.0083	0.39036	-0.997
Mof_O 	O 	0.0691	0.8898	0.34074	-0.596
Mof_O 	O 	0.053	0.9008	0.47106	-0.614
Mof_O 	O 	0.8943	0.8034	0.43758	-0.813
Mof_O 	O 	0.9865	0.6728	0.41289	-0.275
Mof_O 	O 	0.0358	0.7382	0.54179	-0.791
Mof_O 	O 	0.0742	0.587	0.51393	-0.545
Mof_O 	O 	0.6121	0.7168	0.4231	-0.267
Mof_O 	O 	0.6472	0.6781	0.4162	-0.32
Mof_Co	Co	0.39563	0.45191	0.95963	1.127
Mof_C 	C 	0.607	0.4172	0.87798	0.573
Mof_C 	C 	0.6479	0.3342	0.90768	-0.6
Mof_C 	C 	0.578	0.31	0.94758	0.299
Mof_C 	C 	0.6396	0.2334	0.97656	-0.583
Mof_C 	C 	0.5774	0.184	0.01328	0.509
Mof_C 	C 	0.4777	0.258	0.93128	0.282
Mof_H 	H 	0.7149	0.3576	0.9187	0.164
Mof_H 	H 	0.6558	0.2716	0.8911	0.196
Mof_H 	H 	0.6942	0.2725	0.9897	0.156
Mof_H 	H 	0.6693	0.1809	0.9585	0.203
Mof_O 	O 	0.6091	0.5083	0.89036	-0.901
Mof_O 	O 	0.5691	0.3898	0.84074	-0.572
Mof_O 	O 	0.553	0.4008	0.97106	-0.622
Mof_O 	O 	0.3943	0.3034	0.93758	-0.803
Mof_O 	O 	0.4865	0.1728	0.91289	-0.315
Mof_O 	O 	0.5358	0.2382	0.04179	-0.765
Mof_O 	O 	0.5742	0.087	0.01393	-0.548
Mof_O 	O 	0.1121	0.2168	0.9231	-0.285
Mof_O 	O 	0.1472	0.1781	0.9162	-0.339
Mof_Co	Co	0.10437	0.04809	0.45963	1.096
Mof_C 	C 	0.893	0.0828	0.37798	0.475
Mof_C 	C 	0.8521	0.1658	0.40768	-0.572
Mof_C 	C 	0.922	0.19	0.44758	0.36
Mof_C 	C 	0.8604	0.2666	0.47656	-0.588
Mof_C 	C 	0.9226	0.316	0.51328	0.513
Mof_C 	C 	0.0223	0.242	0.43128	0.198
Mof_H 	H 	0.7851	0.1424	0.4187	0.139
Mof_H 	H 	0.8442	0.2284	0.3911	0.206
Mof_H 	H 	0.8058	0.2275	0.4897	0.148
Mof_H 	H 	0.8307	0.3191	0.4585	0.219
Mof_O 	O 	0.8909	0.9917	0.39036	-0.792
Mof_O 	O 	0.9309	0.1102	0.34074	-0.512
Mof_O 	O 	0.947	0.0992	0.47106	-0.628
Mof_O 	O 	0.1057	0.1966	0.43758	-0.792
Mof_O 	O 	0.0135	0.3272	0.41289	-0.318
Mof_O 	O 	0.9642	0.2618	0.54179	-0.73
Mof_O 	O 	0.9258	0.413	0.51393	-0.485
Mof_O 	O 	0.3879	0.2832	0.4231	-0.261
Mof_O 	O 	0.3528	0.3219	0.4162	-0.321
Mof_Co	Co	0.60437	0.54809	0.95963	1.127
Mof_C 	C 	0.393	0.5828	0.87798	0.572
Mof_C 	C 	0.3521	0.6658	0.90768	-0.604
Mof_C 	C 	0.422	0.69	0.94758	0.302
Mof_C 	C 	0.3604	0.7666	0.97656	-0.576
Mof_C 	C 	0.4226	0.816	0.01328	0.499
Mof_C 	C 	0.5223	0.742	0.93128	0.279
Mof_H 	H 	0.2851	0.6424	0.9187	0.165
Mof_H 	H 	0.3442	0.7284	0.8911	0.205
Mof_H 	H 	0.3058	0.7275	0.9897	0.15
Mof_H 	H 	0.3307	0.8191	0.9585	0.212
Mof_O 	O 	0.3909	0.4917	0.89036	-0.891
Mof_O 	O 	0.4309	0.6102	0.84074	-0.566
Mof_O 	O 	0.447	0.5992	0.97106	-0.623
Mof_O 	O 	0.6057	0.6966	0.93758	-0.802
Mof_O 	O 	0.5135	0.8272	0.91289	-0.277
Mof_O 	O 	0.4642	0.7618	0.04179	-0.756
Mof_O 	O 	0.4258	0.913	0.01393	-0.482
Mof_O 	O 	0.8879	0.7832	0.9231	-0.243
Mof_O 	O 	0.8528	0.8219	0.9162	-0.303
Mof_Co	Co	0.95191	0.10437	0.54037	1.13
Mof_C 	C 	0.9172	0.893	0.62202	0.694
Mof_C 	C 	0.8342	0.8521	0.59232	-0.677
Mof_C 	C 	0.81	0.922	0.55242	0.388
Mof_C 	C 	0.7334	0.8604	0.52344	-0.609
Mof_C 	C 	0.684	0.9226	0.48672	0.52
Mof_C 	C 	0.758	0.0223	0.56872	0.193
Mof_H 	H 	0.8576	0.7851	0.5813	0.199
Mof_H 	H 	0.7716	0.8442	0.6089	0.235
Mof_H 	H 	0.7725	0.8058	0.5103	0.164
Mof_H 	H 	0.6809	0.8307	0.5415	0.226
Mof_O 	O 	0.0083	0.8909	0.60964	-0.964
Mof_O 	O 	0.8898	0.9309	0.65926	-0.526
Mof_O 	O 	0.9008	0.947	0.52894	-0.578
Mof_O 	O 	0.8034	0.1057	0.56242	-0.798
Mof_O 	O 	0.6728	0.0135	0.58711	-0.317
Mof_O 	O 	0.7382	0.9642	0.45821	-0.739
Mof_O 	O 	0.587	0.9258	0.48607	-0.488
Mof_O 	O 	0.7168	0.3879	0.5769	-0.258
Mof_O 	O 	0.6781	0.3528	0.5838	-0.327
Mof_Co	Co	0.45191	0.60437	0.04037	1.127
Mof_C 	C 	0.4172	0.393	0.12202	0.57
Mof_C 	C 	0.3342	0.3521	0.09232	-0.593
Mof_C 	C 	0.31	0.422	0.05242	0.292
Mof_C 	C 	0.2334	0.3604	0.02344	-0.569
Mof_C 	C 	0.184	0.4226	0.98672	0.502
Mof_C 	C 	0.258	0.5223	0.06872	0.286
Mof_H 	H 	0.3576	0.2851	0.0813	0.159
Mof_H 	H 	0.2716	0.3442	0.1089	0.191
Mof_H 	H 	0.2725	0.3058	0.0103	0.143
Mof_H 	H 	0.1809	0.3307	0.0415	0.19
Mof_O 	O 	0.5083	0.3909	0.10964	-0.893
Mof_O 	O 	0.3898	0.4309	0.15926	-0.571
Mof_O 	O 	0.4008	0.447	0.02894	-0.621
Mof_O 	O 	0.3034	0.6057	0.06242	-0.808
Mof_O 	O 	0.1728	0.5135	0.08711	-0.316
Mof_O 	O 	0.2382	0.4642	0.95821	-0.761
Mof_O 	O 	0.087	0.4258	0.98607	-0.55
Mof_O 	O 	0.2168	0.8879	0.0769	-0.229
Mof_O 	O 	0.1781	0.8528	0.0838	-0.35
Mof_Co	Co	0.04809	0.89563	0.54037	1.126
Mof_C 	C 	0.0828	0.107	0.62202	0.438
Mof_C 	C 	0.1658	0.1479	0.59232	-0.519
Mof_C 	C 	0.19	0.078	0.55242	0.208
Mof_C 	C 	0.2666	0.1396	0.52344	-0.546
Mof_C 	C 	0.316	0.0774	0.48672	0.487
Mof_C 	C 	0.242	0.9777	0.56872	0.373
Mof_H 	H 	0.1424	0.2149	0.5813	0.127
Mof_H 	H 	0.2284	0.1558	0.6089	0.163
Mof_H 	H 	0.2275	0.1942	0.5103	0.14
Mof_H 	H 	0.3191	0.1693	0.5415	0.189
Mof_O 	O 	0.9917	0.1091	0.60964	-0.813
Mof_O 	O 	0.1102	0.0691	0.65926	-0.584
Mof_O 	O 	0.0992	0.053	0.52894	-0.669
Mof_O 	O 	0.1966	0.8943	0.56242	-0.808
Mof_O 	O 	0.3272	0.9865	0.58711	-0.275
Mof_O 	O 	0.2618	0.0358	0.45821	-0.783
Mof_O 	O 	0.413	0.0742	0.48607	-0.541
Mof_O 	O 	0.2832	0.6121	0.5769	-0.27
Mof_O 	O 	0.3219	0.6472	0.5838	-0.314
Mof_Co	Co	0.54809	0.39563	0.04037	1.127
Mof_C 	C 	0.5828	0.607	0.12202	0.575
Mof_C 	C 	0.6658	0.6479	0.09232	-0.612
Mof_C 	C 	0.69	0.578	0.05242	0.309
Mof_C 	C 	0.7666	0.6396	0.02344	-0.589
Mof_C 	C 	0.816	0.5774	0.98672	0.505
Mof_C 	C 	0.742	0.4777	0.06872	0.275
Mof_H 	H 	0.6424	0.7149	0.0813	0.17
Mof_H 	H 	0.7284	0.6558	0.1089	0.21
Mof_H 	H 	0.7275	0.6942	0.0103	0.162
Mof_H 	H 	0.8191	0.6693	0.0415	0.225
Mof_O 	O 	0.4917	0.6091	0.10964	-0.898
Mof_O 	O 	0.6102	0.5691	0.15926	-0.567
Mof_O 	O 	0.5992	0.553	0.02894	-0.624
Mof_O 	O 	0.6966	0.3943	0.06242	-0.797
Mof_O 	O 	0.8272	0.4865	0.08711	-0.276
Mof_O 	O 	0.7618	0.5358	0.95821	-0.76
Mof_O 	O 	0.913	0.5742	0.98607	-0.48
Mof_O 	O 	0.7832	0.1121	0.0769	-0.298
Mof_O 	O 	0.8219	0.1472	0.0838	-0.289
Mof_Co	Co	0.60437	0.95191	0.29037	1.143
Mof_C 	C 	0.393	0.9172	0.37202	0.685
Mof_C 	C 	0.3521	0.8342	0.34232	-0.654
Mof_C 	C 	0.422	0.81	0.30242	0.313
Mof_C 	C 	0.3604	0.7334	0.27344	-0.585
Mof_C 	C 	0.4226	0.684	0.23672	0.507
Mof_C 	C 	0.5223	0.758	0.31872	0.278
Mof_H 	H 	0.2851	0.8576	0.3313	0.193
Mof_H 	H 	0.3442	0.7716	0.3589	0.213
Mof_H 	H 	0.3058	0.7725	0.2603	0.155
Mof_H 	H 	0.3307	0.6809	0.2915	0.205
Mof_O 	O 	0.3909	0.0083	0.35964	-0.981
Mof_O 	O 	0.4309	0.8898	0.40926	-0.568
Mof_O 	O 	0.447	0.9008	0.27894	-0.595
Mof_O 	O 	0.6057	0.8034	0.31242	-0.808
Mof_O 	O 	0.5135	0.6728	0.33711	-0.297
Mof_O 	O 	0.4642	0.7382	0.20821	-0.764
Mof_O 	O 	0.4258	0.587	0.23607	-0.525
Mof_O 	O 	0.8879	0.7168	0.3269	-0.235
Mof_O 	O 	0.8528	0.6781	0.3338	-0.33
Mof_Co	Co	0.10437	0.45191	0.79037	1.113
Mof_C 	C 	0.893	0.4172	0.87202	0.584
Mof_C 	C 	0.8521	0.3342	0.84232	-0.62
Mof_C 	C 	0.922	0.31	0.80242	0.37
Mof_C 	C 	0.8604	0.2334	0.77344	-0.595
Mof_C 	C 	0.9226	0.184	0.73672	0.516
Mof_C 	C 	0.0223	0.258	0.81872	0.197
Mof_H 	H 	0.7851	0.3576	0.8313	0.166
Mof_H 	H 	0.8442	0.2716	0.8589	0.214
Mof_H 	H 	0.8058	0.2725	0.7603	0.152
Mof_H 	H 	0.8307	0.1809	0.7915	0.211
Mof_O 	O 	0.8909	0.5083	0.85964	-0.881
Mof_O 	O 	0.9309	0.3898	0.90926	-0.527
Mof_O 	O 	0.947	0.4008	0.77894	-0.602
Mof_O 	O 	0.1057	0.3034	0.81242	-0.797
Mof_O 	O 	0.0135	0.1728	0.83711	-0.337
Mof_O 	O 	0.9642	0.2382	0.70821	-0.734
Mof_O 	O 	0.9258	0.087	0.73607	-0.511
Mof_O 	O 	0.3879	0.2168	0.8269	-0.254
Mof_O 	O 	0.3528	0.1781	0.8338	-0.348
Mof_Co	Co	0.39563	0.04809	0.29037	1.111
Mof_C 	C 	0.607	0.0828	0.37202	0.46
Mof_C 	C 	0.6479	0.1658	0.34232	-0.551
Mof_C 	C 	0.578	0.19	0.30242	0.289
Mof_C 	C 	0.6396	0.2666	0.27344	-0.576
Mof_C 	C 	0.5774	0.316	0.23672	0.505
Mof_C 	C 	0.4777	0.242	0.31872	0.283
Mof_H 	H 	0.7149	0.1424	0.3313	0.137
Mof_H 	H 	0.6558	0.2284	0.3589	0.188
Mof_H 	H 	0.6942	0.2275	0.2603	0.151
Mof_H 	H 	0.6693	0.3191	0.2915	0.211
Mof_O 	O 	0.6091	0.9917	0.35964	-0.808
Mof_O 	O 	0.5691	0.1102	0.40926	-0.556
Mof_O 	O 	0.553	0.0992	0.27894	-0.65
Mof_O 	O 	0.3943	0.1966	0.31242	-0.798
Mof_O 	O 	0.4865	0.3272	0.33711	-0.296
Mof_O 	O 	0.5358	0.2618	0.20821	-0.761
Mof_O 	O 	0.5742	0.413	0.23607	-0.519
Mof_O 	O 	0.1121	0.2832	0.3269	-0.293
Mof_O 	O 	0.1472	0.3219	0.3338	-0.312
Mof_Co	Co	0.89563	0.54809	0.79037	1.141
Mof_C 	C 	0.107	0.5828	0.87202	0.558
Mof_C 	C 	0.1479	0.6658	0.84232	-0.583
Mof_C 	C 	0.078	0.69	0.80242	0.232
Mof_C 	C 	0.1396	0.7666	0.77344	-0.561
Mof_C 	C 	0.0774	0.816	0.73672	0.488
Mof_C 	C 	0.9777	0.742	0.81872	0.362
Mof_H 	H 	0.2149	0.6424	0.8313	0.162
Mof_H 	H 	0.1558	0.7284	0.8589	0.187
Mof_H 	H 	0.1942	0.7275	0.7603	0.152
Mof_H 	H 	0.1693	0.8191	0.7915	0.204
Mof_O 	O 	0.1091	0.4917	0.85964	-0.906
Mof_O 	O 	0.0691	0.6102	0.90926	-0.595
Mof_O 	O 	0.053	0.5992	0.77894	-0.642
Mof_O 	O 	0.8943	0.6966	0.81242	-0.807
Mof_O 	O 	0.9865	0.8272	0.83711	-0.257
Mof_O 	O 	0.0358	0.7618	0.70821	-0.782
Mof_O 	O 	0.0742	0.913	0.73607	-0.501
Mof_O 	O 	0.6121	0.7832	0.8269	-0.276
Mof_O 	O 	0.6472	0.8219	0.8338	-0.292
Mof_Co	Co	0.54809	0.10437	0.20963	1.113
Mof_C 	C 	0.5828	0.893	0.12798	0.586
Mof_C 	C 	0.6658	0.8521	0.15768	-0.63
Mof_C 	C 	0.69	0.922	0.19758	0.377
Mof_C 	C 	0.7666	0.8604	0.22656	-0.601
Mof_C 	C 	0.816	0.9226	0.26328	0.512
Mof_C 	C 	0.742	0.0223	0.18128	0.193
Mof_H 	H 	0.6424	0.7851	0.1687	0.172
Mof_H 	H 	0.7284	0.8442	0.1411	0.227
Mof_H 	H 	0.7275	0.8058	0.2397	0.159
Mof_H 	H 	0.8191	0.8307	0.2085	0.232
Mof_O 	O 	0.4917	0.8909	0.14036	-0.878
Mof_O 	O 	0.6102	0.9309	0.09074	-0.523
Mof_O 	O 	0.5992	0.947	0.22106	-0.604
Mof_O 	O 	0.6966	0.1057	0.18758	-0.792
Mof_O 	O 	0.8272	0.0135	0.16289	-0.297
Mof_O 	O 	0.7618	0.9642	0.29179	-0.731
Mof_O 	O 	0.913	0.9258	0.26393	-0.447
Mof_O 	O 	0.7832	0.3879	0.1731	-0.268
Mof_O 	O 	0.8219	0.3528	0.1662	-0.298
Mof_Co	Co	0.04809	0.60437	0.70963	1.11
Mof_C 	C 	0.0828	0.393	0.62798	0.454
Mof_C 	C 	0.1658	0.3521	0.65768	-0.542
Mof_C 	C 	0.19	0.422	0.69758	0.281
Mof_C 	C 	0.2666	0.3604	0.72656	-0.562
Mof_C 	C 	0.316	0.4226	0.76328	0.499
Mof_C 	C 	0.242	0.5223	0.68128	0.287
Mof_H 	H 	0.1424	0.2851	0.6687	0.131
Mof_H 	H 	0.2284	0.3442	0.6411	0.182
Mof_H 	H 	0.2275	0.3058	0.7397	0.138
Mof_H 	H 	0.3191	0.3307	0.7085	0.198
Mof_O 	O 	0.9917	0.3909	0.64036	-0.8
Mof_O 	O 	0.1102	0.4309	0.59074	-0.555
Mof_O 	O 	0.0992	0.447	0.72106	-0.649
Mof_O 	O 	0.1966	0.6057	0.68758	-0.803
Mof_O 	O 	0.3272	0.5135	0.66289	-0.297
Mof_O 	O 	0.2618	0.4642	0.79179	-0.756
Mof_O 	O 	0.413	0.4258	0.76393	-0.522
Mof_O 	O 	0.2832	0.8879	0.6731	-0.236
Mof_O 	O 	0.3219	0.8528	0.6662	-0.325
Mof_Co	Co	0.45191	0.89563	0.20963	1.142
Mof_C 	C 	0.4172	0.107	0.12798	0.555
Mof_C 	C 	0.3342	0.1479	0.15768	-0.57
Mof_C 	C 	0.31	0.078	0.19758	0.219
Mof_C 	C 	0.2334	0.1396	0.22656	-0.554
Mof_C 	C 	0.184	0.0774	0.26328	0.491
Mof_C 	C 	0.258	0.9777	0.18128	0.372
Mof_H 	H 	0.3576	0.2149	0.1687	0.156
Mof_H 	H 	0.2716	0.1558	0.1411	0.172
Mof_H 	H 	0.2725	0.1942	0.2397	0.145
Mof_H 	H 	0.1809	0.1693	0.2085	0.181
Mof_O 	O 	0.5083	0.1091	0.14036	-0.909
Mof_O 	O 	0.3898	0.0691	0.09074	-0.6
Mof_O 	O 	0.4008	0.053	0.22106	-0.641
Mof_O 	O 	0.3034	0.8943	0.18758	-0.813
Mof_O 	O 	0.1728	0.9865	0.16289	-0.294
Mof_O 	O 	0.2382	0.0358	0.29179	-0.788
Mof_O 	O 	0.087	0.0742	0.26393	-0.57
Mof_O 	O 	0.2168	0.6121	0.1731	-0.263
Mof_O 	O 	0.1781	0.6472	0.1662	-0.34
Mof_Co	Co	0.95191	0.39563	0.70963	1.144
Mof_C 	C 	0.9172	0.607	0.62798	0.687
Mof_C 	C 	0.8342	0.6479	0.65768	-0.66
Mof_C 	C 	0.81	0.578	0.69758	0.32
Mof_C 	C 	0.7334	0.6396	0.72656	-0.599
Mof_C 	C 	0.684	0.5774	0.76328	0.513
Mof_C 	C 	0.758	0.4777	0.68128	0.274
Mof_H 	H 	0.8576	0.7149	0.6687	0.198
Mof_H 	H 	0.7716	0.6558	0.6411	0.218
Mof_H 	H 	0.7725	0.6942	0.7397	0.168
Mof_H 	H 	0.6809	0.6693	0.7085	0.218
Mof_O 	O 	0.0083	0.6091	0.64036	-0.987
Mof_O 	O 	0.8898	0.5691	0.59074	-0.569
Mof_O 	O 	0.9008	0.553	0.72106	-0.596
Mof_O 	O 	0.8034	0.3943	0.68758	-0.803
Mof_O 	O 	0.6728	0.4865	0.66289	-0.295
Mof_O 	O 	0.7382	0.5358	0.79179	-0.769
Mof_O 	O 	0.587	0.5742	0.76393	-0.522
Mof_O 	O 	0.7168	0.1121	0.6731	-0.288
Mof_O 	O 	0.6781	0.1472	0.6662	-0.319
Mof_Co	Co	2.65842e-33	4.90084e-33	0.30727	1.063
Mof_Co	Co	0.5	0.5	0.80727	1.14
Mof_Co	Co	-1.361e-32	-1.96034e-32	0.69273	1.063
Mof_Co	Co	0.5	0.5	0.19273	1.14
Mof_Co	Co	0.5	0	0.44273	1.102
Mof_Co	Co	-1.14471e-32	0.5	0.94273	1.102
Mof_Co	Co	0.5	0	0.05727	1.102
Mof_Co	Co	4.82136e-33	0.5	0.55727	1.102
Mof_K 	K 	0.75	0.83937	0.375	4.374
Mof_K 	K 	0.25	0.33937	0.875	4.255
Mof_K 	K 	0.25	0.16063	0.375	4.264
Mof_K 	K 	0.75	0.66063	0.875	4.37
Mof_K 	K 	0.83937	0.25	0.625	4.305
Mof_K 	K 	0.16063	0.75	0.625	4.336
Mof_K 	K 	0.66063	0.25	0.125	4.3
Mof_K 	K 	0.33937	0.75	0.125	4.328
_end
