data_functionalizedCrystal
_audit_creation_method	'EQeq! by Chris Wilmer'
_symmetry_space_group_name_H-M	'P1'
_symmetry_Int_Tables_number	1
_symmetry_cell_setting	triclinic
loop_
_symmetry_equiv_pos_as_xyz
  x,y,z
_cell_length_a	10.546
_cell_length_b	10.653
_cell_length_c	11.422
_cell_angle_alpha	82.68
_cell_angle_beta	74.1
_cell_angle_gamma	69.42
loop_
_atom_site_label
_atom_site_type_symbol
_atom_site_fract_x
_atom_site_fract_y
_atom_site_fract_z
_atom_site_charge
Mof_Nd	Nd	0.589	0.59851	0.62829	2.367
Mof_O 	O 	0.3979	0.6224	0.4069	-0.63
Mof_O 	O 	0.4716	0.7511	0.4905	-0.593
Mof_O 	O 	0.2677	0.254	0.4483	-0.561
Mof_O 	O 	0.0415	0.3206	0.4553	-0.462
Mof_O 	O 	0.8797	0.0594	0.258	-0.121
Mof_O 	O 	0.9558	0.8478	0.2742	-0.104
Mof_O 	O 	0.0072	0.4394	0.6678	-0.474
Mof_O 	O 	0.7791	0.4884	0.7172	-0.617
Mof_O 	O 	0.5345	0.4759	0.1612	-0.43
Mof_O 	O 	0.6607	0.3866	0.2942	-0.474
Mof_O 	O 	0.1718	0.252	0.1556	-0.147
Mof_O 	O 	0.2702	0.2372	0.9651	-0.12
Mof_N 	N 	0.9644	0.9557	0.2833	0.014
Mof_N 	N 	0.167	0.2641	0.05	-0.001
Mof_C 	C 	0.2806	0.8574	0.4046	-0.174
Mof_C 	C 	0.2766	0.9834	0.4309	0.095
Mof_H 	H 	0.3465	0.9902	0.4621	0.017
Mof_C 	C 	0.1703	0.0977	0.4112	-0.121
Mof_C 	C 	0.0659	0.0879	0.3639	-0.055
Mof_H 	H 	0.9919	0.1638	0.3526	0.106
Mof_C 	C 	0.0744	0.9636	0.3342	0.034
Mof_C 	C 	0.1789	0.8466	0.3541	0.021
Mof_H 	H 	0.1811	0.7636	0.3345	0.032
Mof_C 	C 	0.3918	0.7334	0.4349	0.549
Mof_C 	C 	0.1615	0.2346	0.4405	0.465
Mof_C 	C 	0.899	0.4137	0.8738	-0.094
Mof_C 	C 	0.776	0.4379	0.9658	0.049
Mof_H 	H 	0.69	0.4761	0.9465	0.037
Mof_C 	C 	0.7818	0.4049	0.0869	-0.072
Mof_C 	C 	0.9111	0.3466	0.1155	0.004
Mof_H 	H 	0.9166	0.3237	0.1957	0.072
Mof_C 	C 	0.0301	0.3237	0.022	0.037
Mof_C 	C 	0.027	0.355	0.9011	-0.038
Mof_H 	H 	0.1093	0.3369	0.8398	0.08
Mof_C 	C 	0.8939	0.4506	0.7435	0.528
Mof_C 	C 	0.6506	0.4253	0.1861	0.316
Mof_Nd	Nd	0.411	0.40149	0.37171	2.35
Mof_O 	O 	0.6021	0.3776	0.5931	-0.631
Mof_O 	O 	0.5284	0.2489	0.5095	-0.594
Mof_O 	O 	0.7323	0.746	0.5517	-0.564
Mof_O 	O 	0.9585	0.6794	0.5447	-0.431
Mof_O 	O 	0.1203	0.9406	0.742	-0.133
Mof_O 	O 	0.0442	0.1522	0.7258	-0.127
Mof_O 	O 	0.9928	0.5606	0.3322	-0.404
Mof_O 	O 	0.2209	0.5116	0.2828	-0.603
Mof_O 	O 	0.4655	0.5241	0.8388	-0.428
Mof_O 	O 	0.3393	0.6134	0.7058	-0.475
Mof_O 	O 	0.8282	0.748	0.8444	-0.131
Mof_O 	O 	0.7298	0.7628	0.0349	-0.119
Mof_N 	N 	0.0356	0.0443	0.7167	-0.005
Mof_N 	N 	0.833	0.7359	0.95	-0.008
Mof_C 	C 	0.7194	0.1426	0.5954	-0.192
Mof_C 	C 	0.7234	0.0166	0.5691	0.13
Mof_H 	H 	0.6535	0.0098	0.5379	0.006
Mof_C 	C 	0.8297	0.9023	0.5888	-0.173
Mof_C 	C 	0.9341	0.9121	0.6361	0.093
Mof_H 	H 	0.0081	0.8362	0.6474	0.009
Mof_C 	C 	0.9256	0.0364	0.6658	0.033
Mof_C 	C 	0.8211	0.1534	0.6459	0.044
Mof_H 	H 	0.8189	0.2364	0.6655	0.038
Mof_C 	C 	0.6082	0.2666	0.5651	0.557
Mof_C 	C 	0.8385	0.7654	0.5595	0.484
Mof_C 	C 	0.101	0.5863	0.1262	-0.143
Mof_C 	C 	0.224	0.5621	0.0342	0.042
Mof_H 	H 	0.31	0.5239	0.0535	0.039
Mof_C 	C 	0.2182	0.5951	0.9131	-0.046
Mof_C 	C 	0.0889	0.6534	0.8845	-0.097
Mof_H 	H 	0.0834	0.6763	0.8043	0.091
Mof_C 	C 	0.9699	0.6763	0.978	0.111
Mof_C 	C 	0.973	0.645	0.0989	0.019
Mof_H 	H 	0.8907	0.6631	0.1602	0.067
Mof_C 	C 	0.1061	0.5494	0.2565	0.456
Mof_C 	C 	0.3494	0.5747	0.8139	0.305
Mof_Cu	Cu	1.30764e-17	0.5	0.5	0.895
_end
