data_functionalizedCrystal
_audit_creation_method	'EQeq! by Chris Wilmer'
_symmetry_space_group_name_H-M	'P1'
_symmetry_Int_Tables_number	1
_symmetry_cell_setting	triclinic
loop_
_symmetry_equiv_pos_as_xyz
  x,y,z
_cell_length_a	10.1842
_cell_length_b	9.9803
_cell_length_c	10.4375
_cell_angle_alpha	90
_cell_angle_beta	92.312
_cell_angle_gamma	90
loop_
_atom_site_label
_atom_site_type_symbol
_atom_site_fract_x
_atom_site_fract_y
_atom_site_fract_z
_atom_site_charge
Mof_Zn	Zn	0.87228	0.28857	0.12108	1.235
Mof_Zn	Zn	0.58306	0.23746	0.39869	1.237
Mof_Zn	Zn	0.36264	0.46405	0.10714	1.237
Mof_Zn	Zn	0.07918	0.57307	0.37521	1.233
Mof_P 	P 	0.06746	0.53283	0.07053	0.551
Mof_P 	P 	0.88373	0.32379	0.43132	0.56
Mof_P 	P 	0.38551	0.49048	0.41235	0.55
Mof_P 	P 	0.57183	0.21628	0.09412	0.556
Mof_O 	O 	0.9362	0.4574	0.0619	-0.434
Mof_O 	O 	0.908	0.2573	0.302	-0.477
Mof_O 	O 	0.6845	0.3136	0.063	-0.442
Mof_O 	O 	0.0691	0.6243	0.9545	-0.435
Mof_O 	O 	0.5967	0.1584	0.2285	-0.462
Mof_O 	O 	0.4302	0.3452	0.4242	-0.443
Mof_O 	O 	0.4674	0.5794	0.5037	-0.419
Mof_O 	O 	0.7371	0.3315	0.4572	-0.464
Mof_O 	O 	0.4407	0.2908	0.0832	-0.442
Mof_O 	O 	0.5616	0.1009	0.9985	-0.427
Mof_O 	O 	0.3982	0.543	0.2755	-0.469
Mof_O 	O 	0.1791	0.4299	0.07	-0.472
Mof_O 	O 	0.9347	0.4685	0.4351	-0.431
Mof_O 	O 	0.9565	0.2424	0.5367	-0.417
Mof_O 	O 	0.2392	0.4925	0.4481	-0.454
Mof_O 	O 	0.0766	0.6181	0.1938	-0.47
Mof_Zn	Zn	0.12772	0.78857	0.87892	1.235
Mof_Zn	Zn	0.41694	0.73746	0.60131	1.237
Mof_Zn	Zn	0.63736	0.96405	0.89286	1.237
Mof_Zn	Zn	0.92082	0.07307	0.62479	1.234
Mof_P 	P 	0.93254	0.03283	0.92947	0.555
Mof_P 	P 	0.11627	0.82379	0.56868	0.56
Mof_P 	P 	0.61449	0.99048	0.58765	0.55
Mof_P 	P 	0.42817	0.71628	0.90588	0.557
Mof_O 	O 	0.0638	0.9574	0.9381	-0.437
Mof_O 	O 	0.092	0.7573	0.698	-0.478
Mof_O 	O 	0.3155	0.8136	0.937	-0.443
Mof_O 	O 	0.9309	0.1243	0.0455	-0.436
Mof_O 	O 	0.4033	0.6584	0.7715	-0.462
Mof_O 	O 	0.5698	0.8452	0.5758	-0.443
Mof_O 	O 	0.5326	0.0794	0.4963	-0.419
Mof_O 	O 	0.2629	0.8315	0.5428	-0.464
Mof_O 	O 	0.5593	0.7908	0.9168	-0.442
Mof_O 	O 	0.4384	0.6009	0.0015	-0.429
Mof_O 	O 	0.6018	0.043	0.7245	-0.468
Mof_O 	O 	0.8209	0.9299	0.93	-0.472
Mof_O 	O 	0.0653	0.9685	0.5649	-0.433
Mof_O 	O 	0.0435	0.7424	0.4633	-0.418
Mof_O 	O 	0.7608	0.9925	0.5519	-0.453
Mof_O 	O 	0.9234	0.1181	0.8062	-0.469
_end
