data_functionalizedCrystal
_audit_creation_method	'EQeq! by Chris Wilmer'
_symmetry_space_group_name_H-M	'P1'
_symmetry_Int_Tables_number	1
_symmetry_cell_setting	triclinic
loop_
_symmetry_equiv_pos_as_xyz
  x,y,z
_cell_length_a	9.5935
_cell_length_b	9.5935
_cell_length_c	13.836
_cell_angle_alpha	90
_cell_angle_beta	90
_cell_angle_gamma	120
loop_
_atom_site_label
_atom_site_type_symbol
_atom_site_fract_x
_atom_site_fract_y
_atom_site_fract_z
_atom_site_charge
Mof_C 	C 	0.1138	0.1162	0.0491	0.021
Mof_C 	C 	0.8838	0.9976	0.0491	0.166
Mof_C 	C 	0.0024	0.8862	0.0491	-0.1
Mof_C 	C 	0.8862	0.8838	0.5491	0.033
Mof_C 	C 	0.1162	0.0024	0.5491	-0.112
Mof_C 	C 	0.9976	0.1138	0.5491	0.172
Mof_C 	C 	0.1162	0.1138	0.9509	0.021
Mof_C 	C 	0.9976	0.8838	0.9509	0.166
Mof_C 	C 	0.8862	0.0024	0.9509	-0.099
Mof_C 	C 	0.8838	0.8862	0.4509	0.034
Mof_C 	C 	0.0024	0.1162	0.4509	-0.111
Mof_C 	C 	0.1138	0.9976	0.4509	0.173
Mof_C 	C 	0.8862	0.8838	0.9509	0.034
Mof_C 	C 	0.1162	0.0024	0.9509	-0.109
Mof_C 	C 	0.9976	0.1138	0.9509	0.171
Mof_C 	C 	0.1138	0.1162	0.4509	0.021
Mof_C 	C 	0.8838	0.9976	0.4509	0.168
Mof_C 	C 	0.0024	0.8862	0.4509	-0.099
Mof_C 	C 	0.8838	0.8862	0.0491	0.034
Mof_C 	C 	0.0024	0.1162	0.0491	-0.109
Mof_C 	C 	0.1138	0.9976	0.0491	0.171
Mof_C 	C 	0.1162	0.1138	0.5491	0.021
Mof_C 	C 	0.9976	0.8838	0.5491	0.168
Mof_C 	C 	0.8862	0.0024	0.5491	-0.099
Mof_Ni	Ni	-2.86131e-33	0	0.25	1.195
Mof_Ni	Ni	-1.14452e-32	0	0.75	1.195
Mof_O 	O 	0.2485	0.2356	0.25	-0.321
Mof_O 	O 	0.3033	0.3637	0.25	-0.089
Mof_C 	C 	0.3397	0.2531	0.25	0.413
Mof_C 	C 	0.5243	0.3357	0.25	-0.022
Mof_O 	O 	0.7644	0.0129	0.25	-0.332
Mof_O 	O 	0.6363	0.9396	0.25	-0.076
Mof_C 	C 	0.7469	0.0866	0.25	0.414
Mof_C 	C 	0.6643	0.1886	0.25	-0.011
Mof_O 	O 	0.9871	0.7515	0.25	-0.285
Mof_O 	O 	0.0604	0.6967	0.25	-0.11
Mof_C 	C 	0.9134	0.6603	0.25	0.409
Mof_C 	C 	0.8114	0.4757	0.25	-0.017
Mof_O 	O 	0.7515	0.7644	0.75	-0.305
Mof_O 	O 	0.6967	0.6363	0.75	-0.093
Mof_C 	C 	0.6603	0.7469	0.75	0.408
Mof_C 	C 	0.4757	0.6643	0.75	-0.01
Mof_O 	O 	0.2356	0.9871	0.75	-0.283
Mof_O 	O 	0.3637	0.0604	0.75	-0.113
Mof_C 	C 	0.2531	0.9134	0.75	0.406
Mof_C 	C 	0.3357	0.8114	0.75	-0.019
Mof_O 	O 	0.0129	0.2485	0.75	-0.346
Mof_O 	O 	0.9396	0.3033	0.75	-0.069
Mof_C 	C 	0.0866	0.3397	0.75	0.414
Mof_C 	C 	0.1886	0.5243	0.75	-0.015
Mof_O 	O 	0.2356	0.2485	0.75	-0.321
Mof_O 	O 	0.3637	0.3033	0.75	-0.089
Mof_C 	C 	0.2531	0.3397	0.75	0.413
Mof_C 	C 	0.3357	0.5243	0.75	-0.022
Mof_O 	O 	0.0129	0.7644	0.75	-0.332
Mof_O 	O 	0.9396	0.6363	0.75	-0.076
Mof_C 	C 	0.0866	0.7469	0.75	0.414
Mof_C 	C 	0.1886	0.6643	0.75	-0.011
Mof_O 	O 	0.7515	0.9871	0.75	-0.285
Mof_O 	O 	0.6967	0.0604	0.75	-0.11
Mof_C 	C 	0.6603	0.9134	0.75	0.409
Mof_C 	C 	0.4757	0.8114	0.75	-0.017
Mof_O 	O 	0.7644	0.7515	0.25	-0.305
Mof_O 	O 	0.6363	0.6967	0.25	-0.093
Mof_C 	C 	0.7469	0.6603	0.25	0.408
Mof_C 	C 	0.6643	0.4757	0.25	-0.01
Mof_O 	O 	0.9871	0.2356	0.25	-0.283
Mof_O 	O 	0.0604	0.3637	0.25	-0.113
Mof_C 	C 	0.9134	0.2531	0.25	0.406
Mof_C 	C 	0.8114	0.3357	0.25	-0.019
Mof_O 	O 	0.2485	0.0129	0.25	-0.346
Mof_O 	O 	0.3033	0.9396	0.25	-0.069
Mof_C 	C 	0.3397	0.0866	0.25	0.414
Mof_C 	C 	0.5243	0.1886	0.25	-0.015
Mof_C 	C 	0.31	0.155	0.25	0.245
Mof_C 	C 	0.4997	0.24985	0.25	-0.467
Mof_O 	O 	0.2262	0.1131	0.25	-0.44
Mof_C 	C 	0.845	0.155	0.25	0.244
Mof_C 	C 	0.75015	0.24985	0.25	-0.467
Mof_O 	O 	0.8869	0.1131	0.25	-0.443
Mof_C 	C 	0.845	0.69	0.25	0.244
Mof_C 	C 	0.75015	0.5003	0.25	-0.47
Mof_O 	O 	0.8869	0.7738	0.25	-0.445
Mof_C 	C 	0.69	0.845	0.75	0.244
Mof_C 	C 	0.5003	0.75015	0.75	-0.47
Mof_O 	O 	0.7738	0.8869	0.75	-0.445
Mof_C 	C 	0.155	0.845	0.75	0.244
Mof_C 	C 	0.24985	0.75015	0.75	-0.467
Mof_O 	O 	0.1131	0.8869	0.75	-0.443
Mof_C 	C 	0.155	0.31	0.75	0.245
Mof_C 	C 	0.24985	0.4997	0.75	-0.467
Mof_O 	O 	0.1131	0.2262	0.75	-0.44
Mof_C 	C 	0.5839	0.4161	0.25	0.379
Mof_H 	H 	0.5267	0.4733	0.25	-0.07
Mof_C 	C 	0.5839	0.1678	0.25	0.372
Mof_H 	H 	0.5267	0.0534	0.25	-0.078
Mof_C 	C 	0.8322	0.4161	0.25	0.386
Mof_H 	H 	0.9466	0.4733	0.25	-0.062
Mof_C 	C 	0.4161	0.5839	0.75	0.379
Mof_H 	H 	0.4733	0.5267	0.75	-0.07
Mof_C 	C 	0.4161	0.8322	0.75	0.386
Mof_H 	H 	0.4733	0.9466	0.75	-0.062
Mof_C 	C 	0.1678	0.5839	0.75	0.372
Mof_H 	H 	0.0534	0.5267	0.75	-0.078
Mof_N 	N 	1.43066e-33	2.86131e-33	0.1002	-0.219
Mof_N 	N 	-0	0	0.6002	-0.22
Mof_N 	N 	-1.14452e-32	0	0.8998	-0.219
Mof_N 	N 	-5.72262e-33	0	0.3998	-0.22
_end
