data_functionalizedCrystal
_audit_creation_method	'EQeq! by Chris Wilmer'
_symmetry_space_group_name_H-M	'P1'
_symmetry_Int_Tables_number	1
_symmetry_cell_setting	triclinic
loop_
_symmetry_equiv_pos_as_xyz
  x,y,z
_cell_length_a	10.3008
_cell_length_b	13.3246
_cell_length_c	20.462
_cell_angle_alpha	90
_cell_angle_beta	90
_cell_angle_gamma	90
loop_
_atom_site_label
_atom_site_type_symbol
_atom_site_fract_x
_atom_site_fract_y
_atom_site_fract_z
_atom_site_charge
Mof_Zn	Zn	0.43529	0.88973	0.29383	1.194
Mof_O 	O 	0.4501	0.8096	0.2026	-0.419
Mof_O 	O 	0.8041	0.897	0.0726	-0.436
Mof_N 	N 	0.6035	0.9454	0.2563	-0.252
Mof_O 	O 	0.9239	0.0181	0.1213	-0.399
Mof_O 	O 	0.5841	0.7786	0.1218	-0.434
Mof_N 	N 	0.7798	0.0278	0.2228	-0.264
Mof_C 	C 	0.6401	0.9051	0.2004	-0.071
Mof_N 	N 	0.4502	0.7632	0.3493	-0.277
Mof_C 	C 	0.4935	0.5965	0.4276	0.118
Mof_C 	C 	0.5327	0.596	0.3641	-0.17
Mof_H 	H 	0.573	0.5394	0.347	0.078
Mof_C 	C 	0.516	0.5081	0.4709	-0.089
Mof_H 	H 	0.5629	0.4562	0.4515	0.065
Mof_C 	C 	0.8267	0.9538	0.1183	0.328
Mof_C 	C 	0.687	0.0187	0.2685	0.114
Mof_H 	H 	0.6823	0.0599	0.3051	-0.019
Mof_C 	C 	0.5547	0.8247	0.1748	0.325
Mof_C 	C 	0.4305	0.6817	0.4504	-0.197
Mof_H 	H 	0.4049	0.6847	0.4939	0.103
Mof_C 	C 	0.5128	0.6795	0.3245	0.063
Mof_H 	H 	0.5416	0.679	0.2815	-0.013
Mof_C 	C 	0.4057	0.7597	0.4108	0.099
Mof_H 	H 	0.3562	0.8129	0.4265	-0.012
Mof_C 	C 	0.749	0.9579	0.1792	-0.05
Mof_Zn	Zn	0.06471	0.61027	0.29383	1.195
Mof_O 	O 	0.0499	0.6904	0.2026	-0.418
Mof_O 	O 	0.6959	0.603	0.0726	-0.434
Mof_N 	N 	0.8965	0.5546	0.2563	-0.251
Mof_O 	O 	0.5761	0.4819	0.1213	-0.397
Mof_O 	O 	0.9159	0.7214	0.1218	-0.433
Mof_N 	N 	0.7202	0.4722	0.2228	-0.264
Mof_C 	C 	0.8599	0.5949	0.2004	-0.07
Mof_N 	N 	0.0498	0.7368	0.3493	-0.277
Mof_C 	C 	0.0065	0.9035	0.4276	0.116
Mof_C 	C 	0.9673	0.904	0.3641	-0.167
Mof_H 	H 	0.927	0.9606	0.347	0.077
Mof_C 	C 	0.984	0.9919	0.4709	-0.087
Mof_H 	H 	0.9371	0.0438	0.4515	0.064
Mof_C 	C 	0.6733	0.5462	0.1183	0.328
Mof_C 	C 	0.813	0.4813	0.2685	0.114
Mof_H 	H 	0.8177	0.4401	0.3051	-0.019
Mof_C 	C 	0.9453	0.6753	0.1748	0.325
Mof_C 	C 	0.0695	0.8183	0.4504	-0.195
Mof_H 	H 	0.0951	0.8153	0.4939	0.102
Mof_C 	C 	0.9872	0.8205	0.3245	0.062
Mof_H 	H 	0.9584	0.821	0.2815	-0.013
Mof_C 	C 	0.0943	0.7403	0.4108	0.098
Mof_H 	H 	0.1438	0.6871	0.4265	-0.011
Mof_C 	C 	0.751	0.5421	0.1792	-0.05
Mof_Zn	Zn	0.56471	0.38973	0.20617	1.195
Mof_O 	O 	0.5499	0.3096	0.2974	-0.418
Mof_O 	O 	0.1959	0.397	0.4274	-0.434
Mof_N 	N 	0.3965	0.4454	0.2437	-0.251
Mof_O 	O 	0.0761	0.5181	0.3787	-0.397
Mof_O 	O 	0.4159	0.2786	0.3782	-0.433
Mof_N 	N 	0.2202	0.5278	0.2772	-0.264
Mof_C 	C 	0.3599	0.4051	0.2996	-0.07
Mof_N 	N 	0.5498	0.2632	0.1507	-0.277
Mof_C 	C 	0.5065	0.0965	0.0724	0.118
Mof_C 	C 	0.4673	0.096	0.1359	-0.169
Mof_H 	H 	0.427	0.0394	0.153	0.078
Mof_C 	C 	0.484	0.0081	0.0291	-0.088
Mof_H 	H 	0.4371	0.9562	0.0485	0.064
Mof_C 	C 	0.1733	0.4538	0.3817	0.328
Mof_C 	C 	0.313	0.5187	0.2315	0.114
Mof_H 	H 	0.3177	0.5599	0.1949	-0.019
Mof_C 	C 	0.4453	0.3247	0.3252	0.325
Mof_C 	C 	0.5695	0.1817	0.0496	-0.196
Mof_H 	H 	0.5951	0.1847	0.0061	0.103
Mof_C 	C 	0.4872	0.1795	0.1755	0.063
Mof_H 	H 	0.4584	0.179	0.2185	-0.013
Mof_C 	C 	0.5943	0.2597	0.0892	0.099
Mof_H 	H 	0.6438	0.3129	0.0735	-0.012
Mof_C 	C 	0.251	0.4579	0.3208	-0.05
Mof_Zn	Zn	0.93529	0.11027	0.20617	1.195
Mof_O 	O 	0.9501	0.1904	0.2974	-0.419
Mof_O 	O 	0.3041	0.103	0.4274	-0.434
Mof_N 	N 	0.1035	0.0546	0.2437	-0.25
Mof_O 	O 	0.4239	0.9819	0.3787	-0.398
Mof_O 	O 	0.0841	0.2214	0.3782	-0.433
Mof_N 	N 	0.2798	0.9722	0.2772	-0.264
Mof_C 	C 	0.1401	0.0949	0.2996	-0.071
Mof_N 	N 	0.9502	0.2368	0.1507	-0.277
Mof_C 	C 	0.9935	0.4035	0.0724	0.116
Mof_C 	C 	0.0327	0.404	0.1359	-0.168
Mof_H 	H 	0.073	0.4606	0.153	0.077
Mof_C 	C 	0.016	0.4919	0.0291	-0.088
Mof_H 	H 	0.0629	0.5438	0.0485	0.065
Mof_C 	C 	0.3267	0.0462	0.3817	0.328
Mof_C 	C 	0.187	0.9813	0.2315	0.113
Mof_H 	H 	0.1823	0.9401	0.1949	-0.019
Mof_C 	C 	0.0547	0.1753	0.3252	0.326
Mof_C 	C 	0.9305	0.3183	0.0496	-0.196
Mof_H 	H 	0.9049	0.3153	0.0061	0.102
Mof_C 	C 	0.0128	0.3205	0.1755	0.063
Mof_H 	H 	0.0416	0.321	0.2185	-0.013
Mof_C 	C 	0.9057	0.2403	0.0892	0.098
Mof_H 	H 	0.8562	0.1871	0.0735	-0.011
Mof_C 	C 	0.249	0.0421	0.3208	-0.049
Mof_Zn	Zn	0.56471	0.11027	0.70617	1.195
Mof_O 	O 	0.5499	0.1904	0.7974	-0.418
Mof_O 	O 	0.1959	0.103	0.9274	-0.435
Mof_N 	N 	0.3965	0.0546	0.7437	-0.251
Mof_O 	O 	0.0761	0.9819	0.8787	-0.398
Mof_O 	O 	0.4159	0.2214	0.8782	-0.433
Mof_N 	N 	0.2202	0.9722	0.7772	-0.264
Mof_C 	C 	0.3599	0.0949	0.7996	-0.071
Mof_N 	N 	0.5498	0.2368	0.6507	-0.277
Mof_C 	C 	0.5065	0.4035	0.5724	0.118
Mof_C 	C 	0.4673	0.404	0.6359	-0.17
Mof_H 	H 	0.427	0.4606	0.653	0.078
Mof_C 	C 	0.484	0.4919	0.5291	-0.089
Mof_H 	H 	0.4371	0.5438	0.5485	0.065
Mof_C 	C 	0.1733	0.0462	0.8817	0.328
Mof_C 	C 	0.313	0.9813	0.7315	0.114
Mof_H 	H 	0.3177	0.9401	0.6949	-0.019
Mof_C 	C 	0.4453	0.1753	0.8252	0.325
Mof_C 	C 	0.5695	0.3183	0.5496	-0.197
Mof_H 	H 	0.5951	0.3153	0.5061	0.103
Mof_C 	C 	0.4872	0.3205	0.6755	0.063
Mof_H 	H 	0.4584	0.321	0.7185	-0.013
Mof_C 	C 	0.5943	0.2403	0.5892	0.099
Mof_H 	H 	0.6438	0.1871	0.5735	-0.012
Mof_C 	C 	0.251	0.0421	0.8208	-0.05
Mof_Zn	Zn	0.93529	0.38973	0.70617	1.195
Mof_O 	O 	0.9501	0.3096	0.7974	-0.418
Mof_O 	O 	0.3041	0.397	0.9274	-0.434
Mof_N 	N 	0.1035	0.4454	0.7437	-0.251
Mof_O 	O 	0.4239	0.5181	0.8787	-0.397
Mof_O 	O 	0.0841	0.2786	0.8782	-0.433
Mof_N 	N 	0.2798	0.5278	0.7772	-0.264
Mof_C 	C 	0.1401	0.4051	0.7996	-0.07
Mof_N 	N 	0.9502	0.2632	0.6507	-0.277
Mof_C 	C 	0.9935	0.0965	0.5724	0.116
Mof_C 	C 	0.0327	0.096	0.6359	-0.167
Mof_H 	H 	0.073	0.0394	0.653	0.077
Mof_C 	C 	0.016	0.0081	0.5291	-0.087
Mof_H 	H 	0.0629	0.9562	0.5485	0.064
Mof_C 	C 	0.3267	0.4538	0.8817	0.328
Mof_C 	C 	0.187	0.5187	0.7315	0.114
Mof_H 	H 	0.1823	0.5599	0.6949	-0.019
Mof_C 	C 	0.0547	0.3247	0.8252	0.325
Mof_C 	C 	0.9305	0.1817	0.5496	-0.195
Mof_H 	H 	0.9049	0.1847	0.5061	0.102
Mof_C 	C 	0.0128	0.1795	0.6755	0.062
Mof_H 	H 	0.0416	0.179	0.7185	-0.013
Mof_C 	C 	0.9057	0.2597	0.5892	0.098
Mof_H 	H 	0.8562	0.3129	0.5735	-0.011
Mof_C 	C 	0.249	0.4579	0.8208	-0.05
Mof_Zn	Zn	0.43529	0.61027	0.79383	1.195
Mof_O 	O 	0.4501	0.6904	0.7026	-0.418
Mof_O 	O 	0.8041	0.603	0.5726	-0.434
Mof_N 	N 	0.6035	0.5546	0.7563	-0.251
Mof_O 	O 	0.9239	0.4819	0.6213	-0.397
Mof_O 	O 	0.5841	0.7214	0.6218	-0.433
Mof_N 	N 	0.7798	0.4722	0.7228	-0.264
Mof_C 	C 	0.6401	0.5949	0.7004	-0.07
Mof_N 	N 	0.4502	0.7368	0.8493	-0.277
Mof_C 	C 	0.4935	0.9035	0.9276	0.118
Mof_C 	C 	0.5327	0.904	0.8641	-0.169
Mof_H 	H 	0.573	0.9606	0.847	0.078
Mof_C 	C 	0.516	0.9919	0.9709	-0.088
Mof_H 	H 	0.5629	0.0438	0.9515	0.064
Mof_C 	C 	0.8267	0.5462	0.6183	0.328
Mof_C 	C 	0.687	0.4813	0.7685	0.114
Mof_H 	H 	0.6823	0.4401	0.8051	-0.019
Mof_C 	C 	0.5547	0.6753	0.6748	0.325
Mof_C 	C 	0.4305	0.8183	0.9504	-0.196
Mof_H 	H 	0.4049	0.8153	0.9939	0.103
Mof_C 	C 	0.5128	0.8205	0.8245	0.063
Mof_H 	H 	0.5416	0.821	0.7815	-0.013
Mof_C 	C 	0.4057	0.7403	0.9108	0.099
Mof_H 	H 	0.3562	0.6871	0.9265	-0.012
Mof_C 	C 	0.749	0.5421	0.6792	-0.05
Mof_Zn	Zn	0.06471	0.88973	0.79383	1.195
Mof_O 	O 	0.0499	0.8096	0.7026	-0.419
Mof_O 	O 	0.6959	0.897	0.5726	-0.434
Mof_N 	N 	0.8965	0.9454	0.7563	-0.25
Mof_O 	O 	0.5761	0.0181	0.6213	-0.398
Mof_O 	O 	0.9159	0.7786	0.6218	-0.433
Mof_N 	N 	0.7202	0.0278	0.7228	-0.264
Mof_C 	C 	0.8599	0.9051	0.7004	-0.071
Mof_N 	N 	0.0498	0.7632	0.8493	-0.277
Mof_C 	C 	0.0065	0.5965	0.9276	0.116
Mof_C 	C 	0.9673	0.596	0.8641	-0.168
Mof_H 	H 	0.927	0.5394	0.847	0.077
Mof_C 	C 	0.984	0.5081	0.9709	-0.088
Mof_H 	H 	0.9371	0.4562	0.9515	0.065
Mof_C 	C 	0.6733	0.9538	0.6183	0.328
Mof_C 	C 	0.813	0.0187	0.7685	0.113
Mof_H 	H 	0.8177	0.0599	0.8051	-0.019
Mof_C 	C 	0.9453	0.8247	0.6748	0.326
Mof_C 	C 	0.0695	0.6817	0.9504	-0.196
Mof_H 	H 	0.0951	0.6847	0.9939	0.102
Mof_C 	C 	0.9872	0.6795	0.8245	0.063
Mof_H 	H 	0.9584	0.679	0.7815	-0.013
Mof_C 	C 	0.0943	0.7597	0.9108	0.098
Mof_H 	H 	0.1438	0.8129	0.9265	-0.011
Mof_C 	C 	0.751	0.9579	0.6792	-0.049
Mof_Zn	Zn	0.75	0.75	0.075	1.214
Mof_Zn	Zn	0.25	0.25	0.425	1.214
Mof_Zn	Zn	0.25	0.25	0.925	1.214
Mof_Zn	Zn	0.75	0.75	0.575	1.214
_end
