data_functionalizedCrystal
_audit_creation_method	'EQeq! by Chris Wilmer'
_symmetry_space_group_name_H-M	'P1'
_symmetry_Int_Tables_number	1
_symmetry_cell_setting	triclinic
loop_
_symmetry_equiv_pos_as_xyz
  x,y,z
_cell_length_a	10.137
_cell_length_b	15.745
_cell_length_c	15.988
_cell_angle_alpha	90
_cell_angle_beta	90
_cell_angle_gamma	107.76
loop_
_atom_site_label
_atom_site_type_symbol
_atom_site_fract_x
_atom_site_fract_y
_atom_site_fract_z
_atom_site_charge
Mof_Ti	Ti	0.6178	0.5924	0.03808	1.316
Mof_Ti	Ti	0.8822	0.9076	0.53808	1.313
Mof_Ti	Ti	0.3822	0.4076	0.96192	1.316
Mof_Ti	Ti	0.1178	0.0924	0.46192	1.313
Mof_H 	H 	0.703	0.3588	0.9865	0.102
Mof_H 	H 	0.8102	0.2744	0.0655	0.007
Mof_H 	H 	0.8074	0.1536	0.1416	0.004
Mof_H 	H 	0.9143	0.0694	0.2209	0.122
Mof_H 	H 	0.9676	0.2454	0.4092	0.129
Mof_H 	H 	0.8608	0.3293	0.3306	0.001
Mof_H 	H 	0.6628	0.3498	0.2782	0.008
Mof_H 	H 	0.5494	0.4318	0.1984	0.103
Mof_H 	H 	0.817	0.7829	0.1208	0.088
Mof_H 	H 	0.9798	0.9211	0.1202	-0
Mof_H 	H 	0.8514	0.9668	0.8936	-0.002
Mof_H 	H 	0.6992	0.8291	0.889	0.118
Mof_H 	H 	0.797	0.1412	0.4865	0.102
Mof_H 	H 	0.6898	0.2256	0.5655	0.007
Mof_H 	H 	0.6926	0.3464	0.6416	0.004
Mof_H 	H 	0.5857	0.4306	0.7209	0.121
Mof_H 	H 	0.5324	0.2546	0.9092	0.128
Mof_H 	H 	0.6392	0.1707	0.8306	0.001
Mof_H 	H 	0.8372	0.1502	0.7782	0.009
Mof_H 	H 	0.9506	0.0682	0.6984	0.103
Mof_H 	H 	0.683	0.7171	0.6208	0.088
Mof_H 	H 	0.5202	0.5789	0.6202	0.001
Mof_H 	H 	0.6486	0.5332	0.3936	-0.002
Mof_H 	H 	0.8008	0.6709	0.389	0.118
Mof_H 	H 	0.297	0.6412	0.0135	0.102
Mof_H 	H 	0.1898	0.7256	0.9345	0.007
Mof_H 	H 	0.1926	0.8464	0.8584	0.004
Mof_H 	H 	0.0857	0.9306	0.7791	0.122
Mof_H 	H 	0.0324	0.7546	0.5908	0.129
Mof_H 	H 	0.1392	0.6707	0.6694	0.001
Mof_H 	H 	0.3372	0.6502	0.7218	0.008
Mof_H 	H 	0.4506	0.5682	0.8016	0.103
Mof_H 	H 	0.183	0.2171	0.8792	0.088
Mof_H 	H 	0.0202	0.0789	0.8798	-0
Mof_H 	H 	0.1486	0.0332	0.1064	-0.002
Mof_H 	H 	0.3008	0.1709	0.111	0.118
Mof_H 	H 	0.203	0.8588	0.5135	0.102
Mof_H 	H 	0.3102	0.7744	0.4345	0.007
Mof_H 	H 	0.3074	0.6536	0.3584	0.004
Mof_H 	H 	0.4143	0.5694	0.2791	0.121
Mof_H 	H 	0.4676	0.7454	0.0908	0.128
Mof_H 	H 	0.3608	0.8293	0.1694	0.001
Mof_H 	H 	0.1628	0.8498	0.2218	0.009
Mof_H 	H 	0.0494	0.9318	0.3016	0.103
Mof_H 	H 	0.317	0.2829	0.3792	0.088
Mof_H 	H 	0.4798	0.4211	0.3798	0.001
Mof_H 	H 	0.3514	0.4668	0.6064	-0.002
Mof_H 	H 	0.1992	0.3291	0.611	0.118
Mof_C 	C 	0.6178	0.4054	0.0862	0.301
Mof_C 	C 	0.6945	0.3572	0.0456	-0.241
Mof_C 	C 	0.758	0.3066	0.093	0.039
Mof_C 	C 	0.7464	0.3018	0.1802	-0.039
Mof_C 	C 	0.8161	0.248	0.2286	-0.066
Mof_C 	C 	0.8374	0.1722	0.1968	0.071
Mof_C 	C 	0.903	0.1222	0.244	-0.272
Mof_C 	C 	0.9514	0.1476	0.3226	0.338
Mof_C 	C 	0.9343	0.226	0.3548	-0.275
Mof_C 	C 	0.8695	0.2755	0.3082	0.073
Mof_C 	C 	0.6704	0.3504	0.2189	0.04
Mof_C 	C 	0.6042	0.4007	0.171	-0.255
Mof_C 	C 	0.7363	0.7853	0.004	0.331
Mof_C 	C 	0.8258	0.8188	0.0722	-0.259
Mof_C 	C 	0.9252	0.9015	0.0717	0.062
Mof_C 	C 	0.9472	0.957	0.0012	-0.057
Mof_C 	C 	0.8511	0.9274	0.9386	0.077
Mof_C 	C 	0.7558	0.846	0.937	-0.261
Mof_C 	C 	0.8822	0.0946	0.5862	0.301
Mof_C 	C 	0.8055	0.1428	0.5456	-0.24
Mof_C 	C 	0.742	0.1934	0.593	0.039
Mof_C 	C 	0.7536	0.1982	0.6802	-0.039
Mof_C 	C 	0.6839	0.252	0.7286	-0.065
Mof_C 	C 	0.6626	0.3278	0.6968	0.07
Mof_C 	C 	0.597	0.3778	0.744	-0.27
Mof_C 	C 	0.5486	0.3524	0.8226	0.335
Mof_C 	C 	0.5657	0.274	0.8548	-0.273
Mof_C 	C 	0.6305	0.2245	0.8082	0.072
Mof_C 	C 	0.8296	0.1496	0.7189	0.041
Mof_C 	C 	0.8958	0.0993	0.671	-0.254
Mof_C 	C 	0.7637	0.7147	0.504	0.332
Mof_C 	C 	0.6742	0.6812	0.5722	-0.258
Mof_C 	C 	0.5748	0.5985	0.5717	0.061
Mof_C 	C 	0.5528	0.543	0.5012	-0.055
Mof_C 	C 	0.6489	0.5726	0.4386	0.075
Mof_C 	C 	0.7442	0.654	0.437	-0.261
Mof_C 	C 	0.3822	0.5946	0.9138	0.301
Mof_C 	C 	0.3055	0.6428	0.9544	-0.241
Mof_C 	C 	0.242	0.6934	0.907	0.039
Mof_C 	C 	0.2536	0.6982	0.8198	-0.039
Mof_C 	C 	0.1839	0.752	0.7714	-0.066
Mof_C 	C 	0.1626	0.8278	0.8032	0.071
Mof_C 	C 	0.097	0.8778	0.756	-0.272
Mof_C 	C 	0.0486	0.8524	0.6774	0.338
Mof_C 	C 	0.0657	0.774	0.6452	-0.275
Mof_C 	C 	0.1305	0.7245	0.6918	0.073
Mof_C 	C 	0.3296	0.6496	0.7811	0.04
Mof_C 	C 	0.3958	0.5993	0.829	-0.255
Mof_C 	C 	0.2637	0.2147	0.996	0.331
Mof_C 	C 	0.1742	0.1812	0.9278	-0.259
Mof_C 	C 	0.0748	0.0985	0.9283	0.062
Mof_C 	C 	0.0528	0.043	0.9988	-0.057
Mof_C 	C 	0.1489	0.0726	0.0614	0.077
Mof_C 	C 	0.2442	0.154	0.063	-0.261
Mof_C 	C 	0.1178	0.9054	0.4138	0.301
Mof_C 	C 	0.1945	0.8572	0.4544	-0.24
Mof_C 	C 	0.258	0.8066	0.407	0.039
Mof_C 	C 	0.2464	0.8018	0.3198	-0.039
Mof_C 	C 	0.3161	0.748	0.2714	-0.065
Mof_C 	C 	0.3374	0.6722	0.3032	0.07
Mof_C 	C 	0.403	0.6222	0.256	-0.27
Mof_C 	C 	0.4514	0.6476	0.1774	0.335
Mof_C 	C 	0.4343	0.726	0.1452	-0.273
Mof_C 	C 	0.3695	0.7755	0.1918	0.072
Mof_C 	C 	0.1704	0.8504	0.2811	0.041
Mof_C 	C 	0.1042	0.9007	0.329	-0.254
Mof_C 	C 	0.2363	0.2853	0.496	0.332
Mof_C 	C 	0.3258	0.3188	0.4278	-0.258
Mof_C 	C 	0.4252	0.4015	0.4283	0.061
Mof_C 	C 	0.4472	0.457	0.4988	-0.055
Mof_C 	C 	0.3511	0.4274	0.5614	0.075
Mof_C 	C 	0.2558	0.346	0.563	-0.261
Mof_O 	O 	0.5554	0.4554	0.0394	-0.569
Mof_O 	O 	0.0052	0.0939	0.3691	-0.502
Mof_O 	O 	0.6426	0.7071	0.003	-0.534
Mof_O 	O 	0.9446	0.0446	0.5394	-0.567
Mof_O 	O 	0.4948	0.4061	0.8691	-0.501
Mof_O 	O 	0.8574	0.7929	0.503	-0.534
Mof_O 	O 	0.4446	0.5446	0.9606	-0.569
Mof_O 	O 	0.9948	0.9061	0.6309	-0.502
Mof_O 	O 	0.3574	0.2929	0.997	-0.534
Mof_O 	O 	0.0554	0.9554	0.4606	-0.567
Mof_O 	O 	0.5052	0.5939	0.1309	-0.501
Mof_O 	O 	0.1426	0.2071	0.497	-0.534
_end
