data_functionalizedCrystal
_audit_creation_method	'EQeq! by Chris Wilmer'
_symmetry_space_group_name_H-M	'P1'
_symmetry_Int_Tables_number	1
_symmetry_cell_setting	triclinic
loop_
_symmetry_equiv_pos_as_xyz
  x,y,z
_cell_length_a	10.9696
_cell_length_b	23.0792
_cell_length_c	23.3276
_cell_angle_alpha	90
_cell_angle_beta	90
_cell_angle_gamma	90
loop_
_atom_site_label
_atom_site_type_symbol
_atom_site_fract_x
_atom_site_fract_y
_atom_site_fract_z
_atom_site_charge
Mof_S 	S 	0.25941	0.93063	0.43014	-0.586
Mof_C 	C 	0.2741	0.82323	0.54215	-0.191
Mof_C 	C 	0.2771	0.04318	0.3225	-0.198
Mof_N 	N 	0.2771	0.70682	0.4275	-0.207
Mof_S 	S 	0.25941	0.43063	0.93014	-0.585
Mof_C 	C 	0.2741	0.32323	0.04215	-0.191
Mof_C 	C 	0.2771	0.54318	0.8225	-0.198
Mof_N 	N 	0.2771	0.20682	0.9275	-0.207
Mof_S 	S 	0.75941	0.93063	0.93014	-0.586
Mof_C 	C 	0.7741	0.82323	0.04215	-0.189
Mof_C 	C 	0.7771	0.04318	0.8225	-0.196
Mof_N 	N 	0.7771	0.70682	0.9275	-0.207
Mof_S 	S 	0.75941	0.43063	0.43014	-0.585
Mof_C 	C 	0.7741	0.32323	0.54215	-0.191
Mof_C 	C 	0.7771	0.54318	0.3225	-0.198
Mof_N 	N 	0.7771	0.20682	0.4275	-0.207
Mof_S 	S 	0.49059	0.81937	0.43014	-0.585
Mof_C 	C 	0.4759	0.92677	0.54215	-0.19
Mof_C 	C 	0.4729	0.70682	0.3225	-0.198
Mof_N 	N 	0.4729	0.04318	0.4275	-0.207
Mof_S 	S 	0.49059	0.31937	0.93014	-0.585
Mof_C 	C 	0.4759	0.42677	0.04215	-0.191
Mof_C 	C 	0.4729	0.20682	0.8225	-0.197
Mof_N 	N 	0.4729	0.54318	0.9275	-0.207
Mof_S 	S 	0.99059	0.81937	0.93014	-0.586
Mof_C 	C 	0.9759	0.92677	0.04215	-0.189
Mof_C 	C 	0.9729	0.70682	0.8225	-0.199
Mof_N 	N 	0.9729	0.04318	0.9275	-0.207
Mof_S 	S 	0.99059	0.31937	0.43014	-0.586
Mof_C 	C 	0.9759	0.42677	0.54215	-0.191
Mof_C 	C 	0.9729	0.20682	0.3225	-0.197
Mof_N 	N 	0.9729	0.54318	0.4275	-0.207
Mof_S 	S 	0.49059	0.93063	0.31986	-0.584
Mof_C 	C 	0.4759	0.82323	0.20785	-0.201
Mof_S 	S 	0.49059	0.43063	0.81986	-0.585
Mof_C 	C 	0.4759	0.32323	0.70785	-0.201
Mof_S 	S 	0.99059	0.93063	0.81986	-0.586
Mof_C 	C 	0.9759	0.82323	0.70785	-0.203
Mof_S 	S 	0.99059	0.43063	0.31986	-0.585
Mof_C 	C 	0.9759	0.32323	0.20785	-0.2
Mof_S 	S 	0.25941	0.81937	0.31986	-0.585
Mof_C 	C 	0.2741	0.92677	0.20785	-0.201
Mof_S 	S 	0.25941	0.31937	0.81986	-0.585
Mof_C 	C 	0.2741	0.42677	0.70785	-0.201
Mof_S 	S 	0.75941	0.81937	0.81986	-0.585
Mof_C 	C 	0.7741	0.92677	0.70785	-0.201
Mof_S 	S 	0.75941	0.31937	0.31986	-0.585
Mof_C 	C 	0.7741	0.42677	0.20785	-0.201
Mof_S 	S 	0.74059	0.06937	0.56986	-0.585
Mof_C 	C 	0.7259	0.17677	0.45785	-0.19
Mof_C 	C 	0.7229	0.95682	0.6775	-0.198
Mof_N 	N 	0.7229	0.29318	0.5725	-0.207
Mof_S 	S 	0.74059	0.56937	0.06986	-0.585
Mof_C 	C 	0.7259	0.67677	0.95785	-0.191
Mof_C 	C 	0.7229	0.45682	0.1775	-0.198
Mof_N 	N 	0.7229	0.79318	0.0725	-0.207
Mof_S 	S 	0.24059	0.06937	0.06986	-0.586
Mof_C 	C 	0.2259	0.17677	0.95785	-0.189
Mof_C 	C 	0.2229	0.95682	0.1775	-0.196
Mof_N 	N 	0.2229	0.29318	0.0725	-0.207
Mof_S 	S 	0.24059	0.56937	0.56986	-0.585
Mof_C 	C 	0.2259	0.67677	0.45785	-0.191
Mof_C 	C 	0.2229	0.45682	0.6775	-0.198
Mof_N 	N 	0.2229	0.79318	0.5725	-0.207
Mof_S 	S 	0.50941	0.18063	0.56986	-0.585
Mof_C 	C 	0.5241	0.07323	0.45785	-0.19
Mof_C 	C 	0.5271	0.29318	0.6775	-0.198
Mof_N 	N 	0.5271	0.95682	0.5725	-0.207
Mof_S 	S 	0.50941	0.68063	0.06986	-0.585
Mof_C 	C 	0.5241	0.57323	0.95785	-0.191
Mof_C 	C 	0.5271	0.79318	0.1775	-0.197
Mof_N 	N 	0.5271	0.45682	0.0725	-0.207
Mof_S 	S 	0.00941	0.18063	0.06986	-0.586
Mof_C 	C 	0.0241	0.07323	0.95785	-0.189
Mof_C 	C 	0.0271	0.29318	0.1775	-0.199
Mof_N 	N 	0.0271	0.95682	0.0725	-0.207
Mof_S 	S 	0.00941	0.68063	0.56986	-0.586
Mof_C 	C 	0.0241	0.57323	0.45785	-0.191
Mof_C 	C 	0.0271	0.79318	0.6775	-0.197
Mof_N 	N 	0.0271	0.45682	0.5725	-0.207
Mof_S 	S 	0.50941	0.06937	0.68014	-0.584
Mof_C 	C 	0.5241	0.17677	0.79215	-0.201
Mof_S 	S 	0.50941	0.56937	0.18014	-0.585
Mof_C 	C 	0.5241	0.67677	0.29215	-0.201
Mof_S 	S 	0.00941	0.06937	0.18014	-0.586
Mof_C 	C 	0.0241	0.17677	0.29215	-0.203
Mof_S 	S 	0.00941	0.56937	0.68014	-0.585
Mof_C 	C 	0.0241	0.67677	0.79215	-0.2
Mof_S 	S 	0.74059	0.18063	0.68014	-0.585
Mof_C 	C 	0.7259	0.07323	0.79215	-0.201
Mof_S 	S 	0.74059	0.68063	0.18014	-0.585
Mof_C 	C 	0.7259	0.57323	0.29215	-0.201
Mof_S 	S 	0.24059	0.18063	0.18014	-0.585
Mof_C 	C 	0.2259	0.07323	0.29215	-0.201
Mof_S 	S 	0.24059	0.68063	0.68014	-0.585
Mof_C 	C 	0.2259	0.57323	0.79215	-0.201
Mof_Mo	Mo	0.375	0.875	0.375	0.653
Mof_Mo	Mo	0.375	0.375	0.875	0.653
Mof_Mo	Mo	0.875	0.875	0.875	0.653
Mof_Mo	Mo	0.875	0.375	0.375	0.653
Mof_Mo	Mo	0.625	0.125	0.625	0.653
Mof_Mo	Mo	0.625	0.625	0.125	0.653
Mof_Mo	Mo	0.125	0.125	0.125	0.653
Mof_Mo	Mo	0.125	0.625	0.625	0.653
Mof_Cu	Cu	0.375	0.875	0.49411	0.818
Mof_Cu	Cu	0.375	0.375	0.99411	0.818
Mof_Cu	Cu	0.875	0.875	0.99411	0.818
Mof_Cu	Cu	0.875	0.375	0.49411	0.818
Mof_Cu	Cu	0.375	0.875	0.25589	0.82
Mof_Cu	Cu	0.375	0.375	0.75589	0.82
Mof_Cu	Cu	0.875	0.875	0.75589	0.82
Mof_Cu	Cu	0.875	0.375	0.25589	0.82
Mof_Cu	Cu	0.625	0.125	0.50589	0.818
Mof_Cu	Cu	0.625	0.625	0.00589	0.818
Mof_Cu	Cu	0.125	0.125	0.00589	0.818
Mof_Cu	Cu	0.125	0.625	0.50589	0.818
Mof_Cu	Cu	0.625	0.125	0.74411	0.82
Mof_Cu	Cu	0.625	0.625	0.24411	0.82
Mof_Cu	Cu	0.125	0.125	0.24411	0.82
Mof_Cu	Cu	0.125	0.625	0.74411	0.82
Mof_Cu	Cu	0.375	0.99421	0.375	0.821
Mof_Cu	Cu	0.375	0.49421	0.875	0.821
Mof_Cu	Cu	0.875	0.99421	0.875	0.821
Mof_Cu	Cu	0.875	0.49421	0.375	0.821
Mof_Cu	Cu	0.375	0.75579	0.375	0.821
Mof_Cu	Cu	0.375	0.25579	0.875	0.821
Mof_Cu	Cu	0.875	0.75579	0.875	0.821
Mof_Cu	Cu	0.875	0.25579	0.375	0.821
Mof_Cu	Cu	0.625	0.00579	0.625	0.821
Mof_Cu	Cu	0.625	0.50579	0.125	0.821
Mof_Cu	Cu	0.125	0.00579	0.125	0.821
Mof_Cu	Cu	0.125	0.50579	0.625	0.821
Mof_Cu	Cu	0.625	0.24421	0.625	0.821
Mof_Cu	Cu	0.625	0.74421	0.125	0.821
Mof_Cu	Cu	0.125	0.24421	0.125	0.821
Mof_Cu	Cu	0.125	0.74421	0.625	0.821
_end
