data_functionalizedCrystal
_audit_creation_method	'EQeq! by Chris Wilmer'
_symmetry_space_group_name_H-M	'P1'
_symmetry_Int_Tables_number	1
_symmetry_cell_setting	triclinic
loop_
_symmetry_equiv_pos_as_xyz
  x,y,z
_cell_length_a	19.086
_cell_length_b	19.06
_cell_length_c	25.9042
_cell_angle_alpha	90
_cell_angle_beta	90
_cell_angle_gamma	90
loop_
_atom_site_label
_atom_site_type_symbol
_atom_site_fract_x
_atom_site_fract_y
_atom_site_fract_z
_atom_site_charge
Mof_Ag	Ag	0.60262	0.38474	0.38379	0.529
Mof_Ag	Ag	0.63477	0.14741	0.36625	0.53
Mof_S 	S 	0.70342	0.4153	0.44736	-0.122
Mof_S 	S 	0.67671	0.27078	0.38979	-0.267
Mof_S 	S 	0.69986	0.12554	0.45319	-0.127
Mof_S 	S 	0.33469	0.45356	0.3026	-0.122
Mof_S 	S 	0.47923	0.42679	0.3603	-0.267
Mof_S 	S 	0.6245	0.44987	0.2968	-0.128
Mof_C 	C 	0.731	0.3353	0.4765	-0.008
Mof_C 	C 	0.7157	0.271	0.4524	0.008
Mof_C 	C 	0.7325	0.2071	0.4758	-0.006
Mof_C 	C 	0.6566	0.4604	0.4969	0.073
Mof_C 	C 	0.661	0.5336	0.4965	-0.124
Mof_C 	C 	0.6213	0.5698	0.5311	0.036
Mof_C 	C 	0.5822	0.5382	0.5667	-0.102
Mof_C 	C 	0.5756	0.4649	0.568	0.019
Mof_C 	C 	0.6148	0.4263	0.5317	-0.119
Mof_C 	C 	0.7481	0.2956	0.3484	0.091
Mof_C 	C 	0.8136	0.3114	0.3657	-0.129
Mof_C 	C 	0.8631	0.3333	0.3282	0.029
Mof_C 	C 	0.8433	0.3353	0.277	-0.114
Mof_C 	C 	0.7797	0.3174	0.2613	0.043
Mof_C 	C 	0.7292	0.2966	0.2959	-0.139
Mof_C 	C 	0.7729	0.0815	0.4262	0.067
Mof_C 	C 	0.8274	0.115	0.4016	-0.115
Mof_C 	C 	0.8802	0.0752	0.3781	0.012
Mof_C 	C 	0.8744	0.0021	0.3784	-0.09
Mof_C 	C 	0.8205	0.9703	0.403	0.02
Mof_C 	C 	0.7685	0.0086	0.4267	-0.109
Mof_C 	C 	0.415	0.4813	0.2737	-0.008
Mof_C 	C 	0.4786	0.4655	0.2972	0.007
Mof_C 	C 	0.2893	0.5939	0.2467	0.077
Mof_C 	C 	0.2167	0.5893	0.2467	-0.132
Mof_C 	C 	0.1804	0.628	0.2816	0.049
Mof_C 	C 	0.2111	0.6677	0.3159	-0.114
Mof_C 	C 	0.2852	0.6745	0.3171	0.028
Mof_C 	C 	0.3238	0.6358	0.2815	-0.125
Mof_C 	C 	0.4545	0.4977	0.4018	0.096
Mof_C 	C 	0.453	0.4793	0.454	-0.144
Mof_C 	C 	0.4318	0.5311	0.4881	0.05
Mof_C 	C 	0.4154	0.5945	0.473	-0.123
Mof_C 	C 	0.4179	0.6118	0.4198	0.041
Mof_C 	C 	0.4393	0.5639	0.3845	-0.14
Mof_C 	C 	0.5432	0.4827	0.2745	-0.006
Mof_C 	C 	0.6685	0.5223	0.3232	0.067
Mof_C 	C 	0.7411	0.5192	0.3239	-0.106
Mof_C 	C 	0.7807	0.5706	0.3474	0.016
Mof_C 	C 	0.7482	0.6249	0.3715	-0.085
Mof_C 	C 	0.6761	0.6296	0.3728	0.009
Mof_C 	C 	0.6352	0.5771	0.3481	-0.113
Mof_H 	H 	0.6913	0.5574	0.4727	0.073
Mof_H 	H 	0.6216	0.6198	0.5295	0.011
Mof_H 	H 	0.5577	0.5659	0.5913	0.056
Mof_H 	H 	0.5461	0.4414	0.5925	0.016
Mof_H 	H 	0.6109	0.3764	0.531	0.056
Mof_H 	H 	0.8262	0.3069	0.4021	0.07
Mof_H 	H 	0.909	0.3466	0.338	0.013
Mof_H 	H 	0.8765	0.3498	0.2519	0.061
Mof_H 	H 	0.768	0.3199	0.2253	0.016
Mof_H 	H 	0.6835	0.2835	0.2849	0.052
Mof_H 	H 	0.8289	0.1656	0.4014	0.063
Mof_H 	H 	0.9199	0.0993	0.3612	0.017
Mof_H 	H 	0.9105	0.9754	0.3609	0.051
Mof_H 	H 	0.8191	0.9201	0.404	0.019
Mof_H 	H 	0.729	0.9853	0.4434	0.067
Mof_H 	H 	0.1928	0.5588	0.2229	0.075
Mof_H 	H 	0.1308	0.6271	0.281	0.006
Mof_H 	H 	0.1831	0.6925	0.3399	0.061
Mof_H 	H 	0.3084	0.7042	0.3417	0.013
Mof_H 	H 	0.3738	0.6386	0.2812	0.058
Mof_H 	H 	0.4664	0.4334	0.4654	0.053
Mof_H 	H 	0.4277	0.5192	0.5241	0.014
Mof_H 	H 	0.4022	0.6289	0.4978	0.064
Mof_H 	H 	0.4057	0.6579	0.4085	0.009
Mof_H 	H 	0.4445	0.5763	0.3482	0.074
Mof_H 	H 	0.7648	0.4797	0.3074	0.066
Mof_H 	H 	0.8306	0.5676	0.3464	0.02
Mof_H 	H 	0.7753	0.6619	0.3878	0.049
Mof_H 	H 	0.653	0.6685	0.3912	0.018
Mof_H 	H 	0.5849	0.5799	0.3479	0.063
Mof_Ag	Ag	0.10262	0.88474	0.88379	0.53
Mof_Ag	Ag	0.13477	0.64741	0.86625	0.53
Mof_S 	S 	0.20342	0.9153	0.94736	-0.122
Mof_S 	S 	0.17671	0.77078	0.88979	-0.267
Mof_S 	S 	0.19986	0.62554	0.95319	-0.127
Mof_S 	S 	0.83469	0.95356	0.8026	-0.122
Mof_S 	S 	0.97923	0.92679	0.8603	-0.267
Mof_S 	S 	0.1245	0.94987	0.7968	-0.128
Mof_C 	C 	0.231	0.8353	0.9765	-0.008
Mof_C 	C 	0.2157	0.771	0.9524	0.008
Mof_C 	C 	0.2325	0.7071	0.9758	-0.006
Mof_C 	C 	0.1566	0.9604	0.9969	0.073
Mof_C 	C 	0.161	0.0336	0.9965	-0.124
Mof_C 	C 	0.1213	0.0698	0.0311	0.036
Mof_C 	C 	0.0822	0.0382	0.0667	-0.102
Mof_C 	C 	0.0756	0.9649	0.068	0.019
Mof_C 	C 	0.1148	0.9263	0.0317	-0.119
Mof_C 	C 	0.2481	0.7956	0.8484	0.091
Mof_C 	C 	0.3136	0.8114	0.8657	-0.129
Mof_C 	C 	0.3631	0.8333	0.8282	0.029
Mof_C 	C 	0.3433	0.8353	0.777	-0.114
Mof_C 	C 	0.2797	0.8174	0.7613	0.043
Mof_C 	C 	0.2292	0.7966	0.7959	-0.139
Mof_C 	C 	0.2729	0.5815	0.9262	0.067
Mof_C 	C 	0.3274	0.615	0.9016	-0.114
Mof_C 	C 	0.3802	0.5752	0.8781	0.012
Mof_C 	C 	0.3744	0.5021	0.8784	-0.089
Mof_C 	C 	0.3205	0.4703	0.903	0.02
Mof_C 	C 	0.2685	0.5086	0.9267	-0.109
Mof_C 	C 	0.915	0.9813	0.7737	-0.008
Mof_C 	C 	0.9786	0.9655	0.7972	0.007
Mof_C 	C 	0.7893	0.0939	0.7467	0.077
Mof_C 	C 	0.7167	0.0893	0.7467	-0.132
Mof_C 	C 	0.6804	0.128	0.7816	0.049
Mof_C 	C 	0.7111	0.1677	0.8159	-0.114
Mof_C 	C 	0.7852	0.1745	0.8171	0.028
Mof_C 	C 	0.8238	0.1358	0.7815	-0.125
Mof_C 	C 	0.9545	0.9977	0.9018	0.096
Mof_C 	C 	0.953	0.9793	0.954	-0.144
Mof_C 	C 	0.9318	0.0311	0.9881	0.05
Mof_C 	C 	0.9154	0.0945	0.973	-0.123
Mof_C 	C 	0.9179	0.1118	0.9198	0.041
Mof_C 	C 	0.9393	0.0639	0.8845	-0.139
Mof_C 	C 	0.0432	0.9827	0.7745	-0.006
Mof_C 	C 	0.1685	0.0223	0.8232	0.067
Mof_C 	C 	0.2411	0.0192	0.8239	-0.106
Mof_C 	C 	0.2807	0.0706	0.8474	0.016
Mof_C 	C 	0.2482	0.1249	0.8715	-0.085
Mof_C 	C 	0.1761	0.1296	0.8728	0.009
Mof_C 	C 	0.1352	0.0771	0.8481	-0.113
Mof_H 	H 	0.1913	0.0574	0.9727	0.073
Mof_H 	H 	0.1216	0.1198	0.0295	0.011
Mof_H 	H 	0.0577	0.0659	0.0913	0.056
Mof_H 	H 	0.0461	0.9414	0.0925	0.016
Mof_H 	H 	0.1109	0.8764	0.031	0.056
Mof_H 	H 	0.3262	0.8069	0.9021	0.07
Mof_H 	H 	0.409	0.8466	0.838	0.013
Mof_H 	H 	0.3765	0.8498	0.7519	0.061
Mof_H 	H 	0.268	0.8199	0.7253	0.016
Mof_H 	H 	0.1835	0.7835	0.7849	0.052
Mof_H 	H 	0.3289	0.6656	0.9014	0.063
Mof_H 	H 	0.4199	0.5993	0.8612	0.017
Mof_H 	H 	0.4105	0.4754	0.8609	0.051
Mof_H 	H 	0.3191	0.4201	0.904	0.019
Mof_H 	H 	0.229	0.4853	0.9434	0.067
Mof_H 	H 	0.6928	0.0588	0.7229	0.075
Mof_H 	H 	0.6308	0.1271	0.781	0.006
Mof_H 	H 	0.6831	0.1925	0.8399	0.061
Mof_H 	H 	0.8084	0.2042	0.8417	0.013
Mof_H 	H 	0.8738	0.1386	0.7812	0.058
Mof_H 	H 	0.9664	0.9334	0.9654	0.053
Mof_H 	H 	0.9277	0.0192	0.0241	0.014
Mof_H 	H 	0.9022	0.1289	0.9978	0.064
Mof_H 	H 	0.9057	0.1579	0.9085	0.009
Mof_H 	H 	0.9445	0.0763	0.8482	0.074
Mof_H 	H 	0.2648	0.9797	0.8074	0.066
Mof_H 	H 	0.3306	0.0676	0.8464	0.02
Mof_H 	H 	0.2753	0.1619	0.8878	0.049
Mof_H 	H 	0.153	0.1685	0.8912	0.019
Mof_H 	H 	0.0849	0.0799	0.8479	0.063
Mof_Ag	Ag	0.89738	0.61526	0.88379	0.53
Mof_Ag	Ag	0.86523	0.85259	0.86625	0.53
Mof_S 	S 	0.79658	0.5847	0.94736	-0.122
Mof_S 	S 	0.82329	0.72922	0.88979	-0.267
Mof_S 	S 	0.80014	0.87446	0.95319	-0.127
Mof_S 	S 	0.16531	0.54644	0.8026	-0.122
Mof_S 	S 	0.02077	0.57321	0.8603	-0.267
Mof_S 	S 	0.8755	0.55013	0.7968	-0.128
Mof_C 	C 	0.769	0.6647	0.9765	-0.008
Mof_C 	C 	0.7843	0.729	0.9524	0.008
Mof_C 	C 	0.7675	0.7929	0.9758	-0.006
Mof_C 	C 	0.8434	0.5396	0.9969	0.073
Mof_C 	C 	0.839	0.4664	0.9965	-0.124
Mof_C 	C 	0.8787	0.4302	0.0311	0.036
Mof_C 	C 	0.9178	0.4618	0.0667	-0.102
Mof_C 	C 	0.9244	0.5351	0.068	0.019
Mof_C 	C 	0.8852	0.5737	0.0317	-0.119
Mof_C 	C 	0.7519	0.7044	0.8484	0.091
Mof_C 	C 	0.6864	0.6886	0.8657	-0.129
Mof_C 	C 	0.6369	0.6667	0.8282	0.029
Mof_C 	C 	0.6567	0.6647	0.777	-0.114
Mof_C 	C 	0.7203	0.6826	0.7613	0.043
Mof_C 	C 	0.7708	0.7034	0.7959	-0.139
Mof_C 	C 	0.7271	0.9185	0.9262	0.067
Mof_C 	C 	0.6726	0.885	0.9016	-0.115
Mof_C 	C 	0.6198	0.9248	0.8781	0.012
Mof_C 	C 	0.6256	0.9979	0.8784	-0.09
Mof_C 	C 	0.6795	0.0297	0.903	0.02
Mof_C 	C 	0.7315	0.9914	0.9267	-0.109
Mof_C 	C 	0.085	0.5187	0.7737	-0.008
Mof_C 	C 	0.0214	0.5345	0.7972	0.007
Mof_C 	C 	0.2107	0.4061	0.7467	0.077
Mof_C 	C 	0.2833	0.4107	0.7467	-0.132
Mof_C 	C 	0.3196	0.372	0.7816	0.049
Mof_C 	C 	0.2889	0.3323	0.8159	-0.114
Mof_C 	C 	0.2148	0.3255	0.8171	0.028
Mof_C 	C 	0.1762	0.3642	0.7815	-0.125
Mof_C 	C 	0.0455	0.5023	0.9018	0.096
Mof_C 	C 	0.047	0.5207	0.954	-0.144
Mof_C 	C 	0.0682	0.4689	0.9881	0.05
Mof_C 	C 	0.0846	0.4055	0.973	-0.123
Mof_C 	C 	0.0821	0.3882	0.9198	0.041
Mof_C 	C 	0.0607	0.4361	0.8845	-0.14
Mof_C 	C 	0.9568	0.5173	0.7745	-0.006
Mof_C 	C 	0.8315	0.4777	0.8232	0.067
Mof_C 	C 	0.7589	0.4808	0.8239	-0.106
Mof_C 	C 	0.7193	0.4294	0.8474	0.016
Mof_C 	C 	0.7518	0.3751	0.8715	-0.085
Mof_C 	C 	0.8239	0.3704	0.8728	0.009
Mof_C 	C 	0.8648	0.4229	0.8481	-0.113
Mof_H 	H 	0.8087	0.4426	0.9727	0.073
Mof_H 	H 	0.8784	0.3802	0.0295	0.011
Mof_H 	H 	0.9423	0.4341	0.0913	0.056
Mof_H 	H 	0.9539	0.5586	0.0925	0.016
Mof_H 	H 	0.8891	0.6236	0.031	0.056
Mof_H 	H 	0.6738	0.6931	0.9021	0.07
Mof_H 	H 	0.591	0.6534	0.838	0.013
Mof_H 	H 	0.6235	0.6502	0.7519	0.061
Mof_H 	H 	0.732	0.6801	0.7253	0.016
Mof_H 	H 	0.8165	0.7165	0.7849	0.052
Mof_H 	H 	0.6711	0.8344	0.9014	0.063
Mof_H 	H 	0.5801	0.9007	0.8612	0.017
Mof_H 	H 	0.5895	0.0246	0.8609	0.051
Mof_H 	H 	0.6809	0.0799	0.904	0.019
Mof_H 	H 	0.771	0.0147	0.9434	0.067
Mof_H 	H 	0.3072	0.4412	0.7229	0.075
Mof_H 	H 	0.3692	0.3729	0.781	0.006
Mof_H 	H 	0.3169	0.3075	0.8399	0.061
Mof_H 	H 	0.1916	0.2958	0.8417	0.013
Mof_H 	H 	0.1262	0.3614	0.7812	0.058
Mof_H 	H 	0.0336	0.5666	0.9654	0.053
Mof_H 	H 	0.0723	0.4808	0.0241	0.014
Mof_H 	H 	0.0978	0.3711	0.9978	0.064
Mof_H 	H 	0.0943	0.3421	0.9085	0.009
Mof_H 	H 	0.0555	0.4237	0.8482	0.074
Mof_H 	H 	0.7352	0.5203	0.8074	0.066
Mof_H 	H 	0.6694	0.4324	0.8464	0.02
Mof_H 	H 	0.7247	0.3381	0.8878	0.049
Mof_H 	H 	0.847	0.3315	0.8912	0.018
Mof_H 	H 	0.9151	0.4201	0.8479	0.063
Mof_Ag	Ag	0.39738	0.11526	0.38379	0.53
Mof_Ag	Ag	0.36523	0.35259	0.36625	0.53
Mof_S 	S 	0.29658	0.0847	0.44736	-0.122
Mof_S 	S 	0.32329	0.22922	0.38979	-0.267
Mof_S 	S 	0.30014	0.37446	0.45319	-0.127
Mof_S 	S 	0.66531	0.04644	0.3026	-0.122
Mof_S 	S 	0.52077	0.07321	0.3603	-0.267
Mof_S 	S 	0.3755	0.05013	0.2968	-0.128
Mof_C 	C 	0.269	0.1647	0.4765	-0.008
Mof_C 	C 	0.2843	0.229	0.4524	0.008
Mof_C 	C 	0.2675	0.2929	0.4758	-0.006
Mof_C 	C 	0.3434	0.0396	0.4969	0.073
Mof_C 	C 	0.339	0.9664	0.4965	-0.124
Mof_C 	C 	0.3787	0.9302	0.5311	0.036
Mof_C 	C 	0.4178	0.9618	0.5667	-0.102
Mof_C 	C 	0.4244	0.0351	0.568	0.019
Mof_C 	C 	0.3852	0.0737	0.5317	-0.119
Mof_C 	C 	0.2519	0.2044	0.3484	0.091
Mof_C 	C 	0.1864	0.1886	0.3657	-0.129
Mof_C 	C 	0.1369	0.1667	0.3282	0.029
Mof_C 	C 	0.1567	0.1647	0.277	-0.114
Mof_C 	C 	0.2203	0.1826	0.2613	0.043
Mof_C 	C 	0.2708	0.2034	0.2959	-0.139
Mof_C 	C 	0.2271	0.4185	0.4262	0.067
Mof_C 	C 	0.1726	0.385	0.4016	-0.114
Mof_C 	C 	0.1198	0.4248	0.3781	0.012
Mof_C 	C 	0.1256	0.4979	0.3784	-0.089
Mof_C 	C 	0.1795	0.5297	0.403	0.02
Mof_C 	C 	0.2315	0.4914	0.4267	-0.109
Mof_C 	C 	0.585	0.0187	0.2737	-0.008
Mof_C 	C 	0.5214	0.0345	0.2972	0.007
Mof_C 	C 	0.7107	0.9061	0.2467	0.077
Mof_C 	C 	0.7833	0.9107	0.2467	-0.132
Mof_C 	C 	0.8196	0.872	0.2816	0.049
Mof_C 	C 	0.7889	0.8323	0.3159	-0.114
Mof_C 	C 	0.7148	0.8255	0.3171	0.028
Mof_C 	C 	0.6762	0.8642	0.2815	-0.125
Mof_C 	C 	0.5455	0.0023	0.4018	0.096
Mof_C 	C 	0.547	0.0207	0.454	-0.144
Mof_C 	C 	0.5682	0.9689	0.4881	0.05
Mof_C 	C 	0.5846	0.9055	0.473	-0.123
Mof_C 	C 	0.5821	0.8882	0.4198	0.041
Mof_C 	C 	0.5607	0.9361	0.3845	-0.139
Mof_C 	C 	0.4568	0.0173	0.2745	-0.006
Mof_C 	C 	0.3315	0.9777	0.3232	0.067
Mof_C 	C 	0.2589	0.9808	0.3239	-0.106
Mof_C 	C 	0.2193	0.9294	0.3474	0.016
Mof_C 	C 	0.2518	0.8751	0.3715	-0.085
Mof_C 	C 	0.3239	0.8704	0.3728	0.009
Mof_C 	C 	0.3648	0.9229	0.3481	-0.113
Mof_H 	H 	0.3087	0.9426	0.4727	0.073
Mof_H 	H 	0.3784	0.8802	0.5295	0.011
Mof_H 	H 	0.4423	0.9341	0.5913	0.056
Mof_H 	H 	0.4539	0.0586	0.5925	0.016
Mof_H 	H 	0.3891	0.1236	0.531	0.056
Mof_H 	H 	0.1738	0.1931	0.4021	0.07
Mof_H 	H 	0.091	0.1534	0.338	0.013
Mof_H 	H 	0.1235	0.1502	0.2519	0.061
Mof_H 	H 	0.232	0.1801	0.2253	0.016
Mof_H 	H 	0.3165	0.2165	0.2849	0.052
Mof_H 	H 	0.1711	0.3344	0.4014	0.063
Mof_H 	H 	0.0801	0.4007	0.3612	0.018
Mof_H 	H 	0.0895	0.5246	0.3609	0.051
Mof_H 	H 	0.1809	0.5799	0.404	0.019
Mof_H 	H 	0.271	0.5147	0.4434	0.067
Mof_H 	H 	0.8072	0.9412	0.2229	0.075
Mof_H 	H 	0.8692	0.8729	0.281	0.006
Mof_H 	H 	0.8169	0.8075	0.3399	0.061
Mof_H 	H 	0.6916	0.7958	0.3417	0.013
Mof_H 	H 	0.6262	0.8614	0.2812	0.058
Mof_H 	H 	0.5336	0.0666	0.4654	0.053
Mof_H 	H 	0.5723	0.9808	0.5241	0.014
Mof_H 	H 	0.5978	0.8711	0.4978	0.064
Mof_H 	H 	0.5943	0.8421	0.4085	0.009
Mof_H 	H 	0.5555	0.9237	0.3482	0.074
Mof_H 	H 	0.2352	0.0203	0.3074	0.066
Mof_H 	H 	0.1694	0.9324	0.3464	0.02
Mof_H 	H 	0.2247	0.8381	0.3878	0.049
Mof_H 	H 	0.347	0.8315	0.3912	0.018
Mof_H 	H 	0.4151	0.9201	0.3479	0.063
Mof_Ag	Ag	0.39738	0.88474	0.11621	0.53
Mof_Ag	Ag	0.36523	0.64741	0.13375	0.53
Mof_S 	S 	0.29658	0.9153	0.05264	-0.122
Mof_S 	S 	0.32329	0.77078	0.11021	-0.267
Mof_S 	S 	0.30014	0.62554	0.04681	-0.127
Mof_S 	S 	0.66531	0.95356	0.1974	-0.122
Mof_S 	S 	0.52077	0.92679	0.1397	-0.267
Mof_S 	S 	0.3755	0.94987	0.2032	-0.128
Mof_C 	C 	0.269	0.8353	0.0235	-0.008
Mof_C 	C 	0.2843	0.771	0.0476	0.008
Mof_C 	C 	0.2675	0.7071	0.0242	-0.006
Mof_C 	C 	0.3434	0.9604	0.0031	0.073
Mof_C 	C 	0.339	0.0336	0.0035	-0.124
Mof_C 	C 	0.3787	0.0698	0.9689	0.036
Mof_C 	C 	0.4178	0.0382	0.9333	-0.102
Mof_C 	C 	0.4244	0.9649	0.932	0.019
Mof_C 	C 	0.3852	0.9263	0.9683	-0.119
Mof_C 	C 	0.2519	0.7956	0.1516	0.091
Mof_C 	C 	0.1864	0.8114	0.1343	-0.129
Mof_C 	C 	0.1369	0.8333	0.1718	0.029
Mof_C 	C 	0.1567	0.8353	0.223	-0.114
Mof_C 	C 	0.2203	0.8174	0.2387	0.043
Mof_C 	C 	0.2708	0.7966	0.2041	-0.139
Mof_C 	C 	0.2271	0.5815	0.0738	0.067
Mof_C 	C 	0.1726	0.615	0.0984	-0.114
Mof_C 	C 	0.1198	0.5752	0.1219	0.012
Mof_C 	C 	0.1256	0.5021	0.1216	-0.089
Mof_C 	C 	0.1795	0.4703	0.097	0.02
Mof_C 	C 	0.2315	0.5086	0.0733	-0.109
Mof_C 	C 	0.585	0.9813	0.2263	-0.008
Mof_C 	C 	0.5214	0.9655	0.2028	0.007
Mof_C 	C 	0.7107	0.0939	0.2533	0.077
Mof_C 	C 	0.7833	0.0893	0.2533	-0.132
Mof_C 	C 	0.8196	0.128	0.2184	0.049
Mof_C 	C 	0.7889	0.1677	0.1841	-0.114
Mof_C 	C 	0.7148	0.1745	0.1829	0.028
Mof_C 	C 	0.6762	0.1358	0.2185	-0.125
Mof_C 	C 	0.5455	0.9977	0.0982	0.096
Mof_C 	C 	0.547	0.9793	0.046	-0.144
Mof_C 	C 	0.5682	0.0311	0.0119	0.05
Mof_C 	C 	0.5846	0.0945	0.027	-0.123
Mof_C 	C 	0.5821	0.1118	0.0802	0.041
Mof_C 	C 	0.5607	0.0639	0.1155	-0.139
Mof_C 	C 	0.4568	0.9827	0.2255	-0.006
Mof_C 	C 	0.3315	0.0223	0.1768	0.067
Mof_C 	C 	0.2589	0.0192	0.1761	-0.106
Mof_C 	C 	0.2193	0.0706	0.1526	0.016
Mof_C 	C 	0.2518	0.1249	0.1285	-0.085
Mof_C 	C 	0.3239	0.1296	0.1272	0.009
Mof_C 	C 	0.3648	0.0771	0.1519	-0.113
Mof_H 	H 	0.3087	0.0574	0.0273	0.073
Mof_H 	H 	0.3784	0.1198	0.9705	0.011
Mof_H 	H 	0.4423	0.0659	0.9087	0.056
Mof_H 	H 	0.4539	0.9414	0.9075	0.016
Mof_H 	H 	0.3891	0.8764	0.969	0.056
Mof_H 	H 	0.1738	0.8069	0.0979	0.07
Mof_H 	H 	0.091	0.8466	0.162	0.013
Mof_H 	H 	0.1235	0.8498	0.2481	0.061
Mof_H 	H 	0.232	0.8199	0.2747	0.016
Mof_H 	H 	0.3165	0.7835	0.2151	0.052
Mof_H 	H 	0.1711	0.6656	0.0986	0.063
Mof_H 	H 	0.0801	0.5993	0.1388	0.018
Mof_H 	H 	0.0895	0.4754	0.1391	0.051
Mof_H 	H 	0.1809	0.4201	0.096	0.019
Mof_H 	H 	0.271	0.4853	0.0566	0.067
Mof_H 	H 	0.8072	0.0588	0.2771	0.075
Mof_H 	H 	0.8692	0.1271	0.219	0.006
Mof_H 	H 	0.8169	0.1925	0.1601	0.061
Mof_H 	H 	0.6916	0.2042	0.1583	0.013
Mof_H 	H 	0.6262	0.1386	0.2188	0.058
Mof_H 	H 	0.5336	0.9334	0.0346	0.053
Mof_H 	H 	0.5723	0.0192	0.9759	0.014
Mof_H 	H 	0.5978	0.1289	0.0022	0.064
Mof_H 	H 	0.5943	0.1579	0.0915	0.009
Mof_H 	H 	0.5555	0.0763	0.1518	0.074
Mof_H 	H 	0.2352	0.9797	0.1926	0.066
Mof_H 	H 	0.1694	0.0676	0.1536	0.02
Mof_H 	H 	0.2247	0.1619	0.1122	0.049
Mof_H 	H 	0.347	0.1685	0.1088	0.018
Mof_H 	H 	0.4151	0.0799	0.1521	0.063
Mof_Ag	Ag	0.89738	0.38474	0.61621	0.53
Mof_Ag	Ag	0.86523	0.14741	0.63375	0.53
Mof_S 	S 	0.79658	0.4153	0.55264	-0.122
Mof_S 	S 	0.82329	0.27078	0.61021	-0.267
Mof_S 	S 	0.80014	0.12554	0.54681	-0.127
Mof_S 	S 	0.16531	0.45356	0.6974	-0.122
Mof_S 	S 	0.02077	0.42679	0.6397	-0.267
Mof_S 	S 	0.8755	0.44987	0.7032	-0.128
Mof_C 	C 	0.769	0.3353	0.5235	-0.008
Mof_C 	C 	0.7843	0.271	0.5476	0.008
Mof_C 	C 	0.7675	0.2071	0.5242	-0.006
Mof_C 	C 	0.8434	0.4604	0.5031	0.073
Mof_C 	C 	0.839	0.5336	0.5035	-0.124
Mof_C 	C 	0.8787	0.5698	0.4689	0.036
Mof_C 	C 	0.9178	0.5382	0.4333	-0.102
Mof_C 	C 	0.9244	0.4649	0.432	0.019
Mof_C 	C 	0.8852	0.4263	0.4683	-0.119
Mof_C 	C 	0.7519	0.2956	0.6516	0.091
Mof_C 	C 	0.6864	0.3114	0.6343	-0.129
Mof_C 	C 	0.6369	0.3333	0.6718	0.029
Mof_C 	C 	0.6567	0.3353	0.723	-0.114
Mof_C 	C 	0.7203	0.3174	0.7387	0.043
Mof_C 	C 	0.7708	0.2966	0.7041	-0.139
Mof_C 	C 	0.7271	0.0815	0.5738	0.067
Mof_C 	C 	0.6726	0.115	0.5984	-0.115
Mof_C 	C 	0.6198	0.0752	0.6219	0.012
Mof_C 	C 	0.6256	0.0021	0.6216	-0.09
Mof_C 	C 	0.6795	0.9703	0.597	0.02
Mof_C 	C 	0.7315	0.0086	0.5733	-0.109
Mof_C 	C 	0.085	0.4813	0.7263	-0.008
Mof_C 	C 	0.0214	0.4655	0.7028	0.007
Mof_C 	C 	0.2107	0.5939	0.7533	0.077
Mof_C 	C 	0.2833	0.5893	0.7533	-0.132
Mof_C 	C 	0.3196	0.628	0.7184	0.049
Mof_C 	C 	0.2889	0.6677	0.6841	-0.114
Mof_C 	C 	0.2148	0.6745	0.6829	0.028
Mof_C 	C 	0.1762	0.6358	0.7185	-0.125
Mof_C 	C 	0.0455	0.4977	0.5982	0.096
Mof_C 	C 	0.047	0.4793	0.546	-0.144
Mof_C 	C 	0.0682	0.5311	0.5119	0.05
Mof_C 	C 	0.0846	0.5945	0.527	-0.123
Mof_C 	C 	0.0821	0.6118	0.5802	0.041
Mof_C 	C 	0.0607	0.5639	0.6155	-0.14
Mof_C 	C 	0.9568	0.4827	0.7255	-0.006
Mof_C 	C 	0.8315	0.5223	0.6768	0.067
Mof_C 	C 	0.7589	0.5192	0.6761	-0.106
Mof_C 	C 	0.7193	0.5706	0.6526	0.016
Mof_C 	C 	0.7518	0.6249	0.6285	-0.085
Mof_C 	C 	0.8239	0.6296	0.6272	0.009
Mof_C 	C 	0.8648	0.5771	0.6519	-0.113
Mof_H 	H 	0.8087	0.5574	0.5273	0.073
Mof_H 	H 	0.8784	0.6198	0.4705	0.011
Mof_H 	H 	0.9423	0.5659	0.4087	0.056
Mof_H 	H 	0.9539	0.4414	0.4075	0.016
Mof_H 	H 	0.8891	0.3764	0.469	0.056
Mof_H 	H 	0.6738	0.3069	0.5979	0.07
Mof_H 	H 	0.591	0.3466	0.662	0.013
Mof_H 	H 	0.6235	0.3498	0.7481	0.061
Mof_H 	H 	0.732	0.3199	0.7747	0.016
Mof_H 	H 	0.8165	0.2835	0.7151	0.052
Mof_H 	H 	0.6711	0.1656	0.5986	0.063
Mof_H 	H 	0.5801	0.0993	0.6388	0.017
Mof_H 	H 	0.5895	0.9754	0.6391	0.051
Mof_H 	H 	0.6809	0.9201	0.596	0.019
Mof_H 	H 	0.771	0.9853	0.5566	0.067
Mof_H 	H 	0.3072	0.5588	0.7771	0.075
Mof_H 	H 	0.3692	0.6271	0.719	0.006
Mof_H 	H 	0.3169	0.6925	0.6601	0.061
Mof_H 	H 	0.1916	0.7042	0.6583	0.013
Mof_H 	H 	0.1262	0.6386	0.7188	0.058
Mof_H 	H 	0.0336	0.4334	0.5346	0.053
Mof_H 	H 	0.0723	0.5192	0.4759	0.014
Mof_H 	H 	0.0978	0.6289	0.5022	0.064
Mof_H 	H 	0.0943	0.6579	0.5915	0.009
Mof_H 	H 	0.0555	0.5763	0.6518	0.074
Mof_H 	H 	0.7352	0.4797	0.6926	0.066
Mof_H 	H 	0.6694	0.5676	0.6536	0.02
Mof_H 	H 	0.7247	0.6619	0.6122	0.049
Mof_H 	H 	0.847	0.6685	0.6088	0.018
Mof_H 	H 	0.9151	0.5799	0.6521	0.063
Mof_Ag	Ag	0.10262	0.11526	0.61621	0.53
Mof_Ag	Ag	0.13477	0.35259	0.63375	0.53
Mof_S 	S 	0.20342	0.0847	0.55264	-0.122
Mof_S 	S 	0.17671	0.22922	0.61021	-0.267
Mof_S 	S 	0.19986	0.37446	0.54681	-0.127
Mof_S 	S 	0.83469	0.04644	0.6974	-0.122
Mof_S 	S 	0.97923	0.07321	0.6397	-0.267
Mof_S 	S 	0.1245	0.05013	0.7032	-0.128
Mof_C 	C 	0.231	0.1647	0.5235	-0.008
Mof_C 	C 	0.2157	0.229	0.5476	0.008
Mof_C 	C 	0.2325	0.2929	0.5242	-0.006
Mof_C 	C 	0.1566	0.0396	0.5031	0.073
Mof_C 	C 	0.161	0.9664	0.5035	-0.124
Mof_C 	C 	0.1213	0.9302	0.4689	0.036
Mof_C 	C 	0.0822	0.9618	0.4333	-0.102
Mof_C 	C 	0.0756	0.0351	0.432	0.019
Mof_C 	C 	0.1148	0.0737	0.4683	-0.119
Mof_C 	C 	0.2481	0.2044	0.6516	0.091
Mof_C 	C 	0.3136	0.1886	0.6343	-0.129
Mof_C 	C 	0.3631	0.1667	0.6718	0.029
Mof_C 	C 	0.3433	0.1647	0.723	-0.114
Mof_C 	C 	0.2797	0.1826	0.7387	0.043
Mof_C 	C 	0.2292	0.2034	0.7041	-0.139
Mof_C 	C 	0.2729	0.4185	0.5738	0.067
Mof_C 	C 	0.3274	0.385	0.5984	-0.114
Mof_C 	C 	0.3802	0.4248	0.6219	0.012
Mof_C 	C 	0.3744	0.4979	0.6216	-0.089
Mof_C 	C 	0.3205	0.5297	0.597	0.02
Mof_C 	C 	0.2685	0.4914	0.5733	-0.109
Mof_C 	C 	0.915	0.0187	0.7263	-0.008
Mof_C 	C 	0.9786	0.0345	0.7028	0.007
Mof_C 	C 	0.7893	0.9061	0.7533	0.077
Mof_C 	C 	0.7167	0.9107	0.7533	-0.132
Mof_C 	C 	0.6804	0.872	0.7184	0.049
Mof_C 	C 	0.7111	0.8323	0.6841	-0.114
Mof_C 	C 	0.7852	0.8255	0.6829	0.028
Mof_C 	C 	0.8238	0.8642	0.7185	-0.125
Mof_C 	C 	0.9545	0.0023	0.5982	0.096
Mof_C 	C 	0.953	0.0207	0.546	-0.144
Mof_C 	C 	0.9318	0.9689	0.5119	0.05
Mof_C 	C 	0.9154	0.9055	0.527	-0.123
Mof_C 	C 	0.9179	0.8882	0.5802	0.041
Mof_C 	C 	0.9393	0.9361	0.6155	-0.139
Mof_C 	C 	0.0432	0.0173	0.7255	-0.006
Mof_C 	C 	0.1685	0.9777	0.6768	0.067
Mof_C 	C 	0.2411	0.9808	0.6761	-0.106
Mof_C 	C 	0.2807	0.9294	0.6526	0.016
Mof_C 	C 	0.2482	0.8751	0.6285	-0.085
Mof_C 	C 	0.1761	0.8704	0.6272	0.009
Mof_C 	C 	0.1352	0.9229	0.6519	-0.113
Mof_H 	H 	0.1913	0.9426	0.5273	0.073
Mof_H 	H 	0.1216	0.8802	0.4705	0.011
Mof_H 	H 	0.0577	0.9341	0.4087	0.056
Mof_H 	H 	0.0461	0.0586	0.4075	0.016
Mof_H 	H 	0.1109	0.1236	0.469	0.056
Mof_H 	H 	0.3262	0.1931	0.5979	0.07
Mof_H 	H 	0.409	0.1534	0.662	0.013
Mof_H 	H 	0.3765	0.1502	0.7481	0.061
Mof_H 	H 	0.268	0.1801	0.7747	0.016
Mof_H 	H 	0.1835	0.2165	0.7151	0.052
Mof_H 	H 	0.3289	0.3344	0.5986	0.063
Mof_H 	H 	0.4199	0.4007	0.6388	0.017
Mof_H 	H 	0.4105	0.5246	0.6391	0.051
Mof_H 	H 	0.3191	0.5799	0.596	0.019
Mof_H 	H 	0.229	0.5147	0.5566	0.067
Mof_H 	H 	0.6928	0.9412	0.7771	0.075
Mof_H 	H 	0.6308	0.8729	0.719	0.006
Mof_H 	H 	0.6831	0.8075	0.6601	0.061
Mof_H 	H 	0.8084	0.7958	0.6583	0.013
Mof_H 	H 	0.8738	0.8614	0.7188	0.058
Mof_H 	H 	0.9664	0.0666	0.5346	0.053
Mof_H 	H 	0.9277	0.9808	0.4759	0.014
Mof_H 	H 	0.9022	0.8711	0.5022	0.064
Mof_H 	H 	0.9057	0.8421	0.5915	0.009
Mof_H 	H 	0.9445	0.9237	0.6518	0.074
Mof_H 	H 	0.2648	0.0203	0.6926	0.066
Mof_H 	H 	0.3306	0.9324	0.6536	0.02
Mof_H 	H 	0.2753	0.8381	0.6122	0.049
Mof_H 	H 	0.153	0.8315	0.6088	0.019
Mof_H 	H 	0.0849	0.9201	0.6521	0.063
Mof_Ag	Ag	0.60262	0.61526	0.11621	0.53
Mof_Ag	Ag	0.63477	0.85259	0.13375	0.53
Mof_S 	S 	0.70342	0.5847	0.05264	-0.122
Mof_S 	S 	0.67671	0.72922	0.11021	-0.267
Mof_S 	S 	0.69986	0.87446	0.04681	-0.127
Mof_S 	S 	0.33469	0.54644	0.1974	-0.122
Mof_S 	S 	0.47923	0.57321	0.1397	-0.267
Mof_S 	S 	0.6245	0.55013	0.2032	-0.128
Mof_C 	C 	0.731	0.6647	0.0235	-0.008
Mof_C 	C 	0.7157	0.729	0.0476	0.008
Mof_C 	C 	0.7325	0.7929	0.0242	-0.006
Mof_C 	C 	0.6566	0.5396	0.0031	0.073
Mof_C 	C 	0.661	0.4664	0.0035	-0.124
Mof_C 	C 	0.6213	0.4302	0.9689	0.036
Mof_C 	C 	0.5822	0.4618	0.9333	-0.102
Mof_C 	C 	0.5756	0.5351	0.932	0.019
Mof_C 	C 	0.6148	0.5737	0.9683	-0.119
Mof_C 	C 	0.7481	0.7044	0.1516	0.091
Mof_C 	C 	0.8136	0.6886	0.1343	-0.129
Mof_C 	C 	0.8631	0.6667	0.1718	0.029
Mof_C 	C 	0.8433	0.6647	0.223	-0.114
Mof_C 	C 	0.7797	0.6826	0.2387	0.043
Mof_C 	C 	0.7292	0.7034	0.2041	-0.139
Mof_C 	C 	0.7729	0.9185	0.0738	0.067
Mof_C 	C 	0.8274	0.885	0.0984	-0.115
Mof_C 	C 	0.8802	0.9248	0.1219	0.012
Mof_C 	C 	0.8744	0.9979	0.1216	-0.09
Mof_C 	C 	0.8205	0.0297	0.097	0.02
Mof_C 	C 	0.7685	0.9914	0.0733	-0.109
Mof_C 	C 	0.415	0.5187	0.2263	-0.008
Mof_C 	C 	0.4786	0.5345	0.2028	0.007
Mof_C 	C 	0.2893	0.4061	0.2533	0.077
Mof_C 	C 	0.2167	0.4107	0.2533	-0.132
Mof_C 	C 	0.1804	0.372	0.2184	0.049
Mof_C 	C 	0.2111	0.3323	0.1841	-0.114
Mof_C 	C 	0.2852	0.3255	0.1829	0.028
Mof_C 	C 	0.3238	0.3642	0.2185	-0.125
Mof_C 	C 	0.4545	0.5023	0.0982	0.096
Mof_C 	C 	0.453	0.5207	0.046	-0.144
Mof_C 	C 	0.4318	0.4689	0.0119	0.05
Mof_C 	C 	0.4154	0.4055	0.027	-0.123
Mof_C 	C 	0.4179	0.3882	0.0802	0.041
Mof_C 	C 	0.4393	0.4361	0.1155	-0.139
Mof_C 	C 	0.5432	0.5173	0.2255	-0.006
Mof_C 	C 	0.6685	0.4777	0.1768	0.067
Mof_C 	C 	0.7411	0.4808	0.1761	-0.106
Mof_C 	C 	0.7807	0.4294	0.1526	0.016
Mof_C 	C 	0.7482	0.3751	0.1285	-0.085
Mof_C 	C 	0.6761	0.3704	0.1272	0.009
Mof_C 	C 	0.6352	0.4229	0.1519	-0.113
Mof_H 	H 	0.6913	0.4426	0.0273	0.073
Mof_H 	H 	0.6216	0.3802	0.9705	0.011
Mof_H 	H 	0.5577	0.4341	0.9087	0.056
Mof_H 	H 	0.5461	0.5586	0.9075	0.016
Mof_H 	H 	0.6109	0.6236	0.969	0.056
Mof_H 	H 	0.8262	0.6931	0.0979	0.07
Mof_H 	H 	0.909	0.6534	0.162	0.013
Mof_H 	H 	0.8765	0.6502	0.2481	0.061
Mof_H 	H 	0.768	0.6801	0.2747	0.016
Mof_H 	H 	0.6835	0.7165	0.2151	0.052
Mof_H 	H 	0.8289	0.8344	0.0986	0.063
Mof_H 	H 	0.9199	0.9007	0.1388	0.017
Mof_H 	H 	0.9105	0.0246	0.1391	0.051
Mof_H 	H 	0.8191	0.0799	0.096	0.019
Mof_H 	H 	0.729	0.0147	0.0566	0.067
Mof_H 	H 	0.1928	0.4412	0.2771	0.075
Mof_H 	H 	0.1308	0.3729	0.219	0.006
Mof_H 	H 	0.1831	0.3075	0.1601	0.061
Mof_H 	H 	0.3084	0.2958	0.1583	0.013
Mof_H 	H 	0.3738	0.3614	0.2188	0.058
Mof_H 	H 	0.4664	0.5666	0.0346	0.053
Mof_H 	H 	0.4277	0.4808	0.9759	0.014
Mof_H 	H 	0.4022	0.3711	0.0022	0.064
Mof_H 	H 	0.4057	0.3421	0.0915	0.009
Mof_H 	H 	0.4445	0.4237	0.1518	0.074
Mof_H 	H 	0.7648	0.5203	0.1926	0.066
Mof_H 	H 	0.8306	0.4324	0.1536	0.02
Mof_H 	H 	0.7753	0.3381	0.1122	0.049
Mof_H 	H 	0.653	0.3315	0.1088	0.018
Mof_H 	H 	0.5849	0.4201	0.1521	0.063
_end
