data_functionalizedCrystal
_audit_creation_method	'EQeq! by Chris Wilmer'
_symmetry_space_group_name_H-M	'P1'
_symmetry_Int_Tables_number	1
_symmetry_cell_setting	triclinic
loop_
_symmetry_equiv_pos_as_xyz
  x,y,z
_cell_length_a	10.8928
_cell_length_b	8.7917
_cell_length_c	27.7665
_cell_angle_alpha	90
_cell_angle_beta	101.051
_cell_angle_gamma	90
loop_
_atom_site_label
_atom_site_type_symbol
_atom_site_fract_x
_atom_site_fract_y
_atom_site_fract_z
_atom_site_charge
Mof_Zn	Zn	0.62956	0.03308	0.80094	1.244
Mof_Zn	Zn	0.87284	0.23781	0.704	1.24
Mof_P 	P 	0.88172	0.9529	0.76783	0.561
Mof_P 	P 	0.61328	0.305	0.72899	0.568
Mof_O 	O 	0.8878	0.0204	0.71823	-0.422
Mof_O 	O 	0.95466	0.8045	0.777	-0.407
Mof_O 	O 	0.74679	0.9204	0.7719	-0.434
Mof_O 	O 	0.9396	0.0753	0.80678	-0.424
Mof_O 	O 	0.75207	0.3477	0.73361	-0.432
Mof_O 	O 	0.588	0.2393	0.77661	-0.413
Mof_O 	O 	0.5844	0.1753	0.68933	-0.462
Mof_O 	O 	0.668	0.0646	0.87146	-0.437
Mof_O 	O 	0.8365	0.2378	0.1321	-0.435
Mof_O 	O 	0.8769	0.058	0.89168	-0.307
Mof_O 	O 	0.6284	0.2152	0.11091	-0.305
Mof_C 	C 	0.772	0.073	0.90169	0.351
Mof_C 	C 	0.7632	0.1027	0.9543	-0.056
Mof_C 	C 	0.6477	0.1037	0.96809	-0.021
Mof_C 	C 	0.6392	0.1395	0.01566	-0.015
Mof_C 	C 	0.7468	0.1692	0.05056	-0.059
Mof_C 	C 	0.8623	0.1622	0.0373	-0.014
Mof_C 	C 	0.8709	0.1305	0.98908	-0.021
Mof_C 	C 	0.7355	0.2096	0.10215	0.354
Mof_H 	H 	0.9243	0.0563	0.8385	0.233
Mof_H 	H 	0.6011	0.2105	0.6621	0.274
Mof_H 	H 	0.5764	0.0821	0.9452	0.065
Mof_H 	H 	0.5614	0.1419	0.0243	0.059
Mof_H 	H 	0.9345	0.1764	0.0608	0.066
Mof_H 	H 	0.9484	0.129	0.9804	0.061
Mof_O 	O 	0.5337	0.442	0.71371	-0.418
Mof_Zn	Zn	0.37044	0.53308	0.69906	1.246
Mof_Zn	Zn	0.12716	0.73781	0.79599	1.241
Mof_P 	P 	0.11828	0.4529	0.73217	0.557
Mof_P 	P 	0.38672	0.805	0.77101	0.569
Mof_O 	O 	0.1122	0.5204	0.78177	-0.418
Mof_O 	O 	0.04534	0.3045	0.723	-0.406
Mof_O 	O 	0.25321	0.4204	0.7281	-0.435
Mof_O 	O 	0.0604	0.5753	0.69322	-0.421
Mof_O 	O 	0.24793	0.8477	0.76639	-0.431
Mof_O 	O 	0.412	0.7393	0.72339	-0.412
Mof_O 	O 	0.4156	0.6753	0.81067	-0.461
Mof_O 	O 	0.332	0.5646	0.62854	-0.437
Mof_O 	O 	0.1635	0.7378	0.3679	-0.436
Mof_O 	O 	0.1231	0.558	0.60832	-0.306
Mof_O 	O 	0.3716	0.7152	0.38909	-0.305
Mof_C 	C 	0.228	0.573	0.59831	0.351
Mof_C 	C 	0.2368	0.6027	0.5457	-0.056
Mof_C 	C 	0.3523	0.6037	0.53191	-0.021
Mof_C 	C 	0.3608	0.6395	0.48434	-0.016
Mof_C 	C 	0.2532	0.6692	0.44944	-0.06
Mof_C 	C 	0.1377	0.6622	0.4627	-0.014
Mof_C 	C 	0.1291	0.6305	0.51092	-0.021
Mof_C 	C 	0.2645	0.7096	0.39785	0.354
Mof_H 	H 	0.0757	0.5563	0.6615	0.233
Mof_H 	H 	0.3989	0.7105	0.8379	0.274
Mof_H 	H 	0.4236	0.5821	0.5548	0.066
Mof_H 	H 	0.4386	0.6419	0.4757	0.059
Mof_H 	H 	0.0655	0.6764	0.4392	0.065
Mof_H 	H 	0.0516	0.629	0.5196	0.061
Mof_O 	O 	0.4663	0.942	0.78629	-0.417
Mof_Zn	Zn	0.37044	0.96692	0.19906	1.245
Mof_Zn	Zn	0.12716	0.76219	0.296	1.241
Mof_P 	P 	0.11828	0.0471	0.23217	0.562
Mof_P 	P 	0.38672	0.695	0.27101	0.569
Mof_O 	O 	0.1122	0.9796	0.28177	-0.421
Mof_O 	O 	0.04534	0.1955	0.223	-0.406
Mof_O 	O 	0.25321	0.0796	0.2281	-0.434
Mof_O 	O 	0.0604	0.9247	0.19322	-0.424
Mof_O 	O 	0.24793	0.6523	0.26639	-0.432
Mof_O 	O 	0.412	0.7607	0.22339	-0.413
Mof_O 	O 	0.4156	0.8247	0.31067	-0.462
Mof_O 	O 	0.332	0.9354	0.12854	-0.437
Mof_O 	O 	0.1635	0.7622	0.8679	-0.435
Mof_O 	O 	0.1231	0.942	0.10832	-0.307
Mof_O 	O 	0.3716	0.7848	0.88909	-0.305
Mof_C 	C 	0.228	0.927	0.09831	0.351
Mof_C 	C 	0.2368	0.8973	0.0457	-0.056
Mof_C 	C 	0.3523	0.8963	0.03191	-0.021
Mof_C 	C 	0.3608	0.8605	0.98434	-0.015
Mof_C 	C 	0.2532	0.8308	0.94944	-0.059
Mof_C 	C 	0.1377	0.8378	0.9627	-0.014
Mof_C 	C 	0.1291	0.8695	0.01092	-0.021
Mof_C 	C 	0.2645	0.7904	0.89785	0.354
Mof_H 	H 	0.0757	0.9437	0.1615	0.233
Mof_H 	H 	0.3989	0.7895	0.3379	0.274
Mof_H 	H 	0.4236	0.9179	0.0548	0.065
Mof_H 	H 	0.4386	0.8581	0.9757	0.059
Mof_H 	H 	0.0655	0.8236	0.9392	0.066
Mof_H 	H 	0.0516	0.871	0.0196	0.061
Mof_O 	O 	0.4663	0.558	0.28629	-0.418
Mof_Zn	Zn	0.62956	0.46692	0.30094	1.246
Mof_Zn	Zn	0.87284	0.26219	0.204	1.241
Mof_P 	P 	0.88172	0.5471	0.26783	0.557
Mof_P 	P 	0.61328	0.195	0.22899	0.569
Mof_O 	O 	0.8878	0.4796	0.21823	-0.418
Mof_O 	O 	0.95466	0.6955	0.277	-0.406
Mof_O 	O 	0.74679	0.5796	0.2719	-0.435
Mof_O 	O 	0.9396	0.4247	0.30678	-0.421
Mof_O 	O 	0.75207	0.1523	0.23361	-0.431
Mof_O 	O 	0.588	0.2607	0.27661	-0.412
Mof_O 	O 	0.5844	0.3247	0.18933	-0.461
Mof_O 	O 	0.668	0.4354	0.37146	-0.437
Mof_O 	O 	0.8365	0.2622	0.6321	-0.436
Mof_O 	O 	0.8769	0.442	0.39168	-0.306
Mof_O 	O 	0.6284	0.2848	0.61091	-0.305
Mof_C 	C 	0.772	0.427	0.40169	0.351
Mof_C 	C 	0.7632	0.3973	0.4543	-0.056
Mof_C 	C 	0.6477	0.3963	0.46809	-0.021
Mof_C 	C 	0.6392	0.3605	0.51566	-0.016
Mof_C 	C 	0.7468	0.3308	0.55056	-0.06
Mof_C 	C 	0.8623	0.3378	0.5373	-0.014
Mof_C 	C 	0.8709	0.3695	0.48908	-0.021
Mof_C 	C 	0.7355	0.2904	0.60215	0.354
Mof_H 	H 	0.9243	0.4437	0.3385	0.233
Mof_H 	H 	0.6011	0.2895	0.1621	0.274
Mof_H 	H 	0.5764	0.4179	0.4452	0.066
Mof_H 	H 	0.5614	0.3581	0.5243	0.059
Mof_H 	H 	0.9345	0.3236	0.5608	0.065
Mof_H 	H 	0.9484	0.371	0.4804	0.061
Mof_O 	O 	0.5337	0.058	0.21371	-0.417
_end
