data_functionalizedCrystal
_audit_creation_method	'EQeq! by Chris Wilmer'
_symmetry_space_group_name_H-M	'P1'
_symmetry_Int_Tables_number	1
_symmetry_cell_setting	triclinic
loop_
_symmetry_equiv_pos_as_xyz
  x,y,z
_cell_length_a	28.857
_cell_length_b	13.7063
_cell_length_c	45.188
_cell_angle_alpha	90
_cell_angle_beta	90
_cell_angle_gamma	90
loop_
_atom_site_label
_atom_site_type_symbol
_atom_site_fract_x
_atom_site_fract_y
_atom_site_fract_z
_atom_site_charge
Mof_Zn	Zn	0.0228	0.14722	0.91413	1.164
Mof_Zn	Zn	0.56358	0.15855	0.92874	1.165
Mof_Zn	Zn	0.76223	0.85594	0.68945	1.166
Mof_I 	I 	0.00838	0.218	0.9657	-0.389
Mof_I 	I 	0.06891	0.23483	0.87459	-0.37
Mof_I 	I 	0.57434	0.34173	0.9397	-0.37
Mof_I 	I 	0.49685	0.08954	0.89963	-0.37
Mof_I 	I 	0.80126	0.69023	0.69442	-0.375
Mof_I 	I 	0.67836	0.8624	0.67284	-0.372
Mof_C 	C 	0.9206	0.1137	0.91222	0.066
Mof_H 	H 	0.9232	0.1238	0.933	-0.004
Mof_C 	C 	0.877	0.1002	0.89996	-0.111
Mof_H 	H 	0.8502	0.1006	0.9122	0.082
Mof_C 	C 	0.9552	0.0967	0.86697	0.074
Mof_H 	H 	0.9825	0.0947	0.8553	-0.012
Mof_C 	C 	0.913	0.0824	0.85323	-0.12
Mof_H 	H 	0.9116	0.0702	0.8326	0.083
Mof_C 	C 	0.8729	0.0861	0.86995	0.055
Mof_C 	C 	0.8267	0.0735	0.85606	0.103
Mof_C 	C 	0.8102	0.9246	0.74285	0.071
Mof_H 	H 	0.8357	0.894	0.7333	-0.014
Mof_C 	C 	0.8164	0.9628	0.77091	-0.121
Mof_H 	H 	0.8459	0.9601	0.7802	0.081
Mof_C 	C 	0.7342	0.9712	0.74214	0.065
Mof_H 	H 	0.7054	0.9755	0.732	0
Mof_C 	C 	0.7376	0.009	0.77043	-0.116
Mof_H 	H 	0.7114	0.0378	0.7797	0.081
Mof_C 	C 	0.7796	0.0044	0.78498	0.055
Mof_C 	C 	0.7835	0.0383	0.81613	0.103
Mof_C 	C 	0.6233	0.0962	0.87855	0.06
Mof_H 	H 	0.5942	0.0888	0.869	-0.01
Mof_C 	C 	0.663	0.0811	0.86238	-0.115
Mof_H 	H 	0.6612	0.0648	0.842	0.079
Mof_C 	C 	0.6651	0.1286	0.92047	0.076
Mof_H 	H 	0.6658	0.1457	0.9408	-0.018
Mof_C 	C 	0.7065	0.1132	0.90626	-0.122
Mof_H 	H 	0.735	0.1182	0.9166	0.08
Mof_C 	C 	0.7057	0.0901	0.87615	0.052
Mof_C 	C 	0.7492	0.0761	0.85926	0.105
Mof_C 	C 	0.0933	0.3755	0.00952	0.078
Mof_H 	H 	0.1035	0.3098	0.011	-0.012
Mof_C 	C 	0.1034	0.4261	0.98429	-0.124
Mof_H 	H 	0.1197	0.3954	0.9686	0.079
Mof_C 	C 	0.0545	0.5051	0.02897	0.074
Mof_H 	H 	0.0363	0.5321	0.0445	-0.014
Mof_C 	C 	0.0636	0.5615	0.00457	-0.128
Mof_H 	H 	0.0522	0.6264	0.0034	0.09
Mof_C 	C 	0.0896	0.5224	0.98173	0.056
Mof_C 	C 	0.1016	0.5805	0.95515	0.103
Mof_C 	C 	0.0424	0.9603	0.9439	0.086
Mof_H 	H 	0.0226	0.9881	0.9584	-0.01
Mof_C 	C 	0.0584	0.8667	0.94837	-0.138
Mof_H 	H 	0.05	0.8313	0.9656	0.091
Mof_C 	C 	0.081	0.9736	0.90054	0.078
Mof_H 	H 	0.0887	0.0107	0.8835	-0.007
Mof_C 	C 	0.0989	0.8805	0.90341	-0.132
Mof_H 	H 	0.1194	0.8553	0.8889	0.098
Mof_C 	C 	0.087	0.8254	0.92729	0.065
Mof_C 	C 	0.1016	0.7222	0.93017	0.098
Mof_C 	C 	0.1989	0.5334	0.8404	0.077
Mof_H 	H 	0.2141	0.5677	0.8249	-0.014
Mof_C 	C 	0.1775	0.5872	0.86264	-0.126
Mof_H 	H 	0.1776	0.6565	0.8622	0.085
Mof_C 	C 	0.1771	0.3901	0.86105	0.074
Mof_H 	H 	0.1757	0.3208	0.8603	-0.008
Mof_C 	C 	0.1557	0.437	0.88458	-0.117
Mof_H 	H 	0.141	0.4008	0.8999	0.086
Mof_C 	C 	0.1563	0.5374	0.88515	0.064
Mof_C 	C 	0.134	0.5891	0.90989	0.106
Mof_N 	N 	0.9593	0.1131	0.89572	-0.272
Mof_N 	N 	0.7699	0.9291	0.72873	-0.276
Mof_N 	N 	0.624	0.1209	0.90733	-0.275
Mof_N 	N 	0.8259	0.0485	0.82737	-0.14
Mof_N 	N 	0.74427	0.0526	0.83064	-0.141
Mof_N 	N 	0.7893	0.0865	0.87295	-0.14
Mof_N 	N 	0.1991	0.4359	0.8397	-0.278
Mof_N 	N 	0.0701	0.4137	0.03193	-0.28
Mof_N 	N 	0.05333	0.0129	0.92067	-0.28
Mof_N 	N 	0.123	0.5339	0.93342	-0.138
Mof_N 	N 	0.0904	0.6747	0.95489	-0.141
Mof_N 	N 	0.12467	0.6839	0.90722	-0.132
Mof_Zn	Zn	0.4772	0.85278	0.41413	1.164
Mof_Zn	Zn	0.93642	0.84145	0.42874	1.164
Mof_Zn	Zn	0.73777	0.14406	0.18945	1.165
Mof_I 	I 	0.49162	0.782	0.4657	-0.39
Mof_I 	I 	0.43109	0.76517	0.37459	-0.37
Mof_I 	I 	0.92566	0.65827	0.4397	-0.371
Mof_I 	I 	0.00315	0.91046	0.39963	-0.37
Mof_I 	I 	0.69874	0.30977	0.19442	-0.376
Mof_I 	I 	0.82164	0.1376	0.17284	-0.373
Mof_C 	C 	0.5794	0.8863	0.41222	0.065
Mof_H 	H 	0.5768	0.8762	0.433	-0.005
Mof_C 	C 	0.623	0.8998	0.39996	-0.112
Mof_H 	H 	0.6498	0.8994	0.4122	0.08
Mof_C 	C 	0.5448	0.9033	0.36697	0.073
Mof_H 	H 	0.5175	0.9053	0.3553	-0.013
Mof_C 	C 	0.587	0.9176	0.35323	-0.121
Mof_H 	H 	0.5884	0.9298	0.3326	0.082
Mof_C 	C 	0.6271	0.9139	0.36995	0.054
Mof_C 	C 	0.6733	0.9265	0.35606	0.102
Mof_C 	C 	0.6898	0.0754	0.24285	0.07
Mof_H 	H 	0.6643	0.106	0.2333	-0.015
Mof_C 	C 	0.6836	0.0372	0.27091	-0.122
Mof_H 	H 	0.6541	0.0399	0.2802	0.081
Mof_C 	C 	0.7658	0.0288	0.24214	0.065
Mof_H 	H 	0.7946	0.0245	0.232	-0
Mof_C 	C 	0.7624	0.991	0.27043	-0.117
Mof_H 	H 	0.7886	0.9622	0.2797	0.081
Mof_C 	C 	0.7204	0.9956	0.28498	0.054
Mof_C 	C 	0.7165	0.9617	0.31613	0.103
Mof_C 	C 	0.8767	0.9038	0.37855	0.06
Mof_H 	H 	0.9058	0.9112	0.369	-0.01
Mof_C 	C 	0.837	0.9189	0.36238	-0.115
Mof_H 	H 	0.8388	0.9352	0.342	0.079
Mof_C 	C 	0.8349	0.8714	0.42047	0.076
Mof_H 	H 	0.8342	0.8543	0.4408	-0.018
Mof_C 	C 	0.7935	0.8868	0.40626	-0.122
Mof_H 	H 	0.765	0.8818	0.4166	0.08
Mof_C 	C 	0.7943	0.9099	0.37615	0.051
Mof_C 	C 	0.7508	0.9239	0.35926	0.105
Mof_C 	C 	0.4067	0.6245	0.50952	0.078
Mof_H 	H 	0.3965	0.6902	0.511	-0.012
Mof_C 	C 	0.3966	0.5739	0.48429	-0.124
Mof_H 	H 	0.3803	0.6046	0.4686	0.079
Mof_C 	C 	0.4455	0.4949	0.52897	0.074
Mof_H 	H 	0.4637	0.4679	0.5445	-0.014
Mof_C 	C 	0.4364	0.4385	0.50457	-0.128
Mof_H 	H 	0.4478	0.3736	0.5034	0.09
Mof_C 	C 	0.4104	0.4776	0.48173	0.056
Mof_C 	C 	0.3984	0.4195	0.45515	0.103
Mof_C 	C 	0.4576	0.0397	0.4439	0.085
Mof_H 	H 	0.4774	0.0119	0.4584	-0.01
Mof_C 	C 	0.4416	0.1333	0.44837	-0.138
Mof_H 	H 	0.45	0.1687	0.4656	0.091
Mof_C 	C 	0.419	0.0264	0.40054	0.076
Mof_H 	H 	0.4113	0.9893	0.3835	-0.007
Mof_C 	C 	0.4011	0.1195	0.40341	-0.131
Mof_H 	H 	0.3806	0.1447	0.3889	0.098
Mof_C 	C 	0.413	0.1746	0.42729	0.065
Mof_C 	C 	0.3984	0.2778	0.43017	0.099
Mof_C 	C 	0.3011	0.4666	0.3404	0.077
Mof_H 	H 	0.2859	0.4323	0.3249	-0.014
Mof_C 	C 	0.3225	0.4128	0.36264	-0.126
Mof_H 	H 	0.3224	0.3435	0.3622	0.085
Mof_C 	C 	0.3229	0.6099	0.36105	0.074
Mof_H 	H 	0.3243	0.6792	0.3603	-0.008
Mof_C 	C 	0.3443	0.563	0.38458	-0.117
Mof_H 	H 	0.359	0.5992	0.3999	0.086
Mof_C 	C 	0.3437	0.4626	0.38515	0.064
Mof_C 	C 	0.366	0.4109	0.40989	0.106
Mof_N 	N 	0.5407	0.8869	0.39572	-0.272
Mof_N 	N 	0.7301	0.0709	0.22873	-0.276
Mof_N 	N 	0.876	0.8791	0.40733	-0.275
Mof_N 	N 	0.6741	0.9515	0.32737	-0.14
Mof_N 	N 	0.75573	0.9474	0.33064	-0.141
Mof_N 	N 	0.7107	0.9135	0.37295	-0.141
Mof_N 	N 	0.3009	0.5641	0.3397	-0.278
Mof_N 	N 	0.4299	0.5863	0.53193	-0.28
Mof_N 	N 	0.44667	0.9871	0.42067	-0.279
Mof_N 	N 	0.377	0.4661	0.43342	-0.138
Mof_N 	N 	0.4096	0.3253	0.45489	-0.141
Mof_N 	N 	0.37533	0.3161	0.40722	-0.132
Mof_Zn	Zn	0.9772	0.64722	0.58587	1.163
Mof_Zn	Zn	0.43642	0.65855	0.57126	1.164
Mof_Zn	Zn	0.23777	0.35594	0.81055	1.165
Mof_I 	I 	0.99162	0.718	0.5343	-0.39
Mof_I 	I 	0.93109	0.73483	0.62541	-0.371
Mof_I 	I 	0.42566	0.84173	0.5603	-0.371
Mof_I 	I 	0.50315	0.58954	0.60037	-0.371
Mof_I 	I 	0.19874	0.19023	0.80558	-0.376
Mof_I 	I 	0.32164	0.3624	0.82716	-0.373
Mof_C 	C 	0.0794	0.6137	0.58778	0.065
Mof_H 	H 	0.0768	0.6238	0.567	-0.005
Mof_C 	C 	0.123	0.6002	0.60004	-0.112
Mof_H 	H 	0.1498	0.6006	0.5878	0.08
Mof_C 	C 	0.0448	0.5967	0.63303	0.073
Mof_H 	H 	0.0175	0.5947	0.6447	-0.013
Mof_C 	C 	0.087	0.5824	0.64677	-0.121
Mof_H 	H 	0.0884	0.5702	0.6674	0.082
Mof_C 	C 	0.1271	0.5861	0.63005	0.054
Mof_C 	C 	0.1733	0.5735	0.64394	0.102
Mof_C 	C 	0.1898	0.4246	0.75715	0.069
Mof_H 	H 	0.1643	0.394	0.7667	-0.015
Mof_C 	C 	0.1836	0.4628	0.72909	-0.121
Mof_H 	H 	0.1541	0.4601	0.7198	0.081
Mof_C 	C 	0.2658	0.4712	0.75786	0.066
Mof_H 	H 	0.2946	0.4755	0.768	-0
Mof_C 	C 	0.2624	0.509	0.72957	-0.117
Mof_H 	H 	0.2886	0.5378	0.7203	0.081
Mof_C 	C 	0.2204	0.5044	0.71502	0.054
Mof_C 	C 	0.2165	0.5383	0.68387	0.103
Mof_C 	C 	0.3767	0.5962	0.62145	0.06
Mof_H 	H 	0.4058	0.5888	0.631	-0.01
Mof_C 	C 	0.337	0.5811	0.63762	-0.115
Mof_H 	H 	0.3388	0.5648	0.658	0.079
Mof_C 	C 	0.3349	0.6286	0.57953	0.076
Mof_H 	H 	0.3342	0.6457	0.5592	-0.018
Mof_C 	C 	0.2935	0.6132	0.59374	-0.122
Mof_H 	H 	0.265	0.6182	0.5834	0.08
Mof_C 	C 	0.2943	0.5901	0.62385	0.051
Mof_C 	C 	0.2508	0.5761	0.64074	0.105
Mof_C 	C 	0.9067	0.8755	0.49048	0.079
Mof_H 	H 	0.8965	0.8098	0.489	-0.012
Mof_C 	C 	0.8966	0.9261	0.51571	-0.125
Mof_H 	H 	0.8803	0.8954	0.5314	0.08
Mof_C 	C 	0.9455	0.0051	0.47103	0.075
Mof_H 	H 	0.9637	0.0321	0.4555	-0.014
Mof_C 	C 	0.9364	0.0615	0.49543	-0.128
Mof_H 	H 	0.9478	0.1264	0.4966	0.091
Mof_C 	C 	0.9104	0.0224	0.51827	0.057
Mof_C 	C 	0.8984	0.0805	0.54485	0.103
Mof_C 	C 	0.9576	0.4603	0.5561	0.085
Mof_H 	H 	0.9774	0.4881	0.5416	-0.01
Mof_C 	C 	0.9416	0.3667	0.55163	-0.138
Mof_H 	H 	0.95	0.3313	0.5344	0.091
Mof_C 	C 	0.919	0.4736	0.59946	0.077
Mof_H 	H 	0.9113	0.5107	0.6165	-0.007
Mof_C 	C 	0.9011	0.3805	0.59659	-0.132
Mof_H 	H 	0.8806	0.3553	0.6111	0.098
Mof_C 	C 	0.913	0.3254	0.57271	0.065
Mof_C 	C 	0.8984	0.2222	0.56983	0.098
Mof_C 	C 	0.8011	0.0334	0.6596	0.078
Mof_H 	H 	0.7859	0.0677	0.6751	-0.014
Mof_C 	C 	0.8225	0.0872	0.63736	-0.127
Mof_H 	H 	0.8224	0.1565	0.6378	0.085
Mof_C 	C 	0.8229	0.8901	0.63895	0.074
Mof_H 	H 	0.8243	0.8208	0.6397	-0.008
Mof_C 	C 	0.8443	0.937	0.61542	-0.119
Mof_H 	H 	0.859	0.9008	0.6001	0.087
Mof_C 	C 	0.8437	0.0374	0.61485	0.065
Mof_C 	C 	0.866	0.0891	0.59011	0.106
Mof_N 	N 	0.0407	0.6131	0.60428	-0.272
Mof_N 	N 	0.2301	0.4291	0.77127	-0.276
Mof_N 	N 	0.376	0.6209	0.59267	-0.275
Mof_N 	N 	0.1741	0.5485	0.67263	-0.14
Mof_N 	N 	0.25573	0.5526	0.66936	-0.141
Mof_N 	N 	0.2107	0.5865	0.62705	-0.141
Mof_N 	N 	0.8009	0.9359	0.6603	-0.279
Mof_N 	N 	0.9299	0.9137	0.46807	-0.28
Mof_N 	N 	0.94667	0.5129	0.57933	-0.28
Mof_N 	N 	0.877	0.0339	0.56658	-0.138
Mof_N 	N 	0.9096	0.1747	0.54511	-0.141
Mof_N 	N 	0.87533	0.1839	0.59278	-0.132
Mof_Zn	Zn	0.5228	0.35278	0.08587	1.164
Mof_Zn	Zn	0.06358	0.34145	0.07126	1.164
Mof_Zn	Zn	0.26223	0.64406	0.31055	1.165
Mof_I 	I 	0.50838	0.282	0.0343	-0.39
Mof_I 	I 	0.56891	0.26517	0.12541	-0.371
Mof_I 	I 	0.07434	0.15827	0.0603	-0.371
Mof_I 	I 	0.99685	0.41046	0.10037	-0.371
Mof_I 	I 	0.30126	0.80977	0.30558	-0.376
Mof_I 	I 	0.17836	0.6376	0.32716	-0.373
Mof_C 	C 	0.4206	0.3863	0.08778	0.065
Mof_H 	H 	0.4232	0.3762	0.067	-0.005
Mof_C 	C 	0.377	0.3998	0.10004	-0.112
Mof_H 	H 	0.3502	0.3994	0.0878	0.08
Mof_C 	C 	0.4552	0.4033	0.13303	0.073
Mof_H 	H 	0.4825	0.4053	0.1447	-0.013
Mof_C 	C 	0.413	0.4176	0.14677	-0.121
Mof_H 	H 	0.4116	0.4298	0.1674	0.082
Mof_C 	C 	0.3729	0.4139	0.13005	0.054
Mof_C 	C 	0.3267	0.4265	0.14394	0.102
Mof_C 	C 	0.3102	0.5754	0.25715	0.069
Mof_H 	H 	0.3357	0.606	0.2667	-0.015
Mof_C 	C 	0.3164	0.5372	0.22909	-0.121
Mof_H 	H 	0.3459	0.5399	0.2198	0.081
Mof_C 	C 	0.2342	0.5288	0.25786	0.066
Mof_H 	H 	0.2054	0.5245	0.268	-0
Mof_C 	C 	0.2376	0.491	0.22957	-0.117
Mof_H 	H 	0.2114	0.4622	0.2203	0.081
Mof_C 	C 	0.2796	0.4956	0.21502	0.054
Mof_C 	C 	0.2835	0.4617	0.18387	0.103
Mof_C 	C 	0.1233	0.4038	0.12145	0.06
Mof_H 	H 	0.0942	0.4112	0.131	-0.01
Mof_C 	C 	0.163	0.4189	0.13762	-0.115
Mof_H 	H 	0.1612	0.4352	0.158	0.079
Mof_C 	C 	0.1651	0.3714	0.07953	0.076
Mof_H 	H 	0.1658	0.3543	0.0592	-0.018
Mof_C 	C 	0.2065	0.3868	0.09374	-0.122
Mof_H 	H 	0.235	0.3818	0.0834	0.08
Mof_C 	C 	0.2057	0.4099	0.12385	0.051
Mof_C 	C 	0.2492	0.4239	0.14074	0.105
Mof_C 	C 	0.5933	0.1245	0.99048	0.078
Mof_H 	H 	0.6035	0.1902	0.989	-0.012
Mof_C 	C 	0.6034	0.0739	0.01571	-0.123
Mof_H 	H 	0.6197	0.1046	0.0314	0.079
Mof_C 	C 	0.5545	0.9949	0.97103	0.074
Mof_H 	H 	0.5363	0.9679	0.9555	-0.014
Mof_C 	C 	0.5636	0.9385	0.99543	-0.128
Mof_H 	H 	0.5522	0.8736	0.9966	0.09
Mof_C 	C 	0.5896	0.9776	0.01827	0.056
Mof_C 	C 	0.6016	0.9195	0.04485	0.103
Mof_C 	C 	0.5424	0.5397	0.0561	0.085
Mof_H 	H 	0.5226	0.5119	0.0416	-0.01
Mof_C 	C 	0.5584	0.6333	0.05163	-0.138
Mof_H 	H 	0.55	0.6687	0.0344	0.091
Mof_C 	C 	0.581	0.5264	0.09946	0.077
Mof_H 	H 	0.5887	0.4893	0.1165	-0.007
Mof_C 	C 	0.5989	0.6195	0.09659	-0.132
Mof_H 	H 	0.6194	0.6447	0.1111	0.098
Mof_C 	C 	0.587	0.6746	0.07271	0.065
Mof_C 	C 	0.6016	0.7778	0.06983	0.098
Mof_C 	C 	0.6989	0.9666	0.1596	0.077
Mof_H 	H 	0.7141	0.9323	0.1751	-0.014
Mof_C 	C 	0.6775	0.9128	0.13736	-0.127
Mof_H 	H 	0.6776	0.8435	0.1378	0.085
Mof_C 	C 	0.6771	0.1099	0.13895	0.074
Mof_H 	H 	0.6757	0.1792	0.1397	-0.008
Mof_C 	C 	0.6557	0.063	0.11542	-0.118
Mof_H 	H 	0.641	0.0992	0.1001	0.087
Mof_C 	C 	0.6563	0.9626	0.11485	0.064
Mof_C 	C 	0.634	0.9109	0.09011	0.106
Mof_N 	N 	0.4593	0.3869	0.10428	-0.273
Mof_N 	N 	0.2699	0.5709	0.27127	-0.276
Mof_N 	N 	0.124	0.3791	0.09267	-0.275
Mof_N 	N 	0.3259	0.4515	0.17263	-0.14
Mof_N 	N 	0.24427	0.4474	0.16936	-0.141
Mof_N 	N 	0.2893	0.4135	0.12705	-0.141
Mof_N 	N 	0.6991	0.0641	0.1603	-0.278
Mof_N 	N 	0.5701	0.0863	0.96807	-0.28
Mof_N 	N 	0.55333	0.4871	0.07933	-0.28
Mof_N 	N 	0.623	0.9661	0.06658	-0.138
Mof_N 	N 	0.5904	0.8253	0.04511	-0.141
Mof_N 	N 	0.62467	0.8161	0.09278	-0.132
Mof_Zn	Zn	0.9772	0.85278	0.08587	1.163
Mof_Zn	Zn	0.43642	0.84145	0.07126	1.164
Mof_Zn	Zn	0.23777	0.14406	0.31055	1.165
Mof_I 	I 	0.99162	0.782	0.0343	-0.39
Mof_I 	I 	0.93109	0.76517	0.12541	-0.371
Mof_I 	I 	0.42566	0.65827	0.0603	-0.371
Mof_I 	I 	0.50315	0.91046	0.10037	-0.371
Mof_I 	I 	0.19874	0.30977	0.30558	-0.376
Mof_I 	I 	0.32164	0.1376	0.32716	-0.373
Mof_C 	C 	0.0794	0.8863	0.08778	0.065
Mof_H 	H 	0.0768	0.8762	0.067	-0.005
Mof_C 	C 	0.123	0.8998	0.10004	-0.112
Mof_H 	H 	0.1498	0.8994	0.0878	0.081
Mof_C 	C 	0.0448	0.9033	0.13303	0.073
Mof_H 	H 	0.0175	0.9053	0.1447	-0.013
Mof_C 	C 	0.087	0.9176	0.14677	-0.121
Mof_H 	H 	0.0884	0.9298	0.1674	0.082
Mof_C 	C 	0.1271	0.9139	0.13005	0.054
Mof_C 	C 	0.1733	0.9265	0.14394	0.102
Mof_C 	C 	0.1898	0.0754	0.25715	0.07
Mof_H 	H 	0.1643	0.106	0.2667	-0.015
Mof_C 	C 	0.1836	0.0372	0.22909	-0.122
Mof_H 	H 	0.1541	0.0399	0.2198	0.081
Mof_C 	C 	0.2658	0.0288	0.25786	0.065
Mof_H 	H 	0.2946	0.0245	0.268	0
Mof_C 	C 	0.2624	0.991	0.22957	-0.116
Mof_H 	H 	0.2886	0.9622	0.2203	0.081
Mof_C 	C 	0.2204	0.9956	0.21502	0.055
Mof_C 	C 	0.2165	0.9617	0.18387	0.103
Mof_C 	C 	0.3767	0.9038	0.12145	0.06
Mof_H 	H 	0.4058	0.9112	0.131	-0.01
Mof_C 	C 	0.337	0.9189	0.13762	-0.115
Mof_H 	H 	0.3388	0.9352	0.158	0.079
Mof_C 	C 	0.3349	0.8714	0.07953	0.076
Mof_H 	H 	0.3342	0.8543	0.0592	-0.018
Mof_C 	C 	0.2935	0.8868	0.09374	-0.122
Mof_H 	H 	0.265	0.8818	0.0834	0.08
Mof_C 	C 	0.2943	0.9099	0.12385	0.052
Mof_C 	C 	0.2508	0.9239	0.14074	0.105
Mof_C 	C 	0.9067	0.6245	0.99048	0.078
Mof_H 	H 	0.8965	0.6902	0.989	-0.012
Mof_C 	C 	0.8966	0.5739	0.01571	-0.124
Mof_H 	H 	0.8803	0.6046	0.0314	0.079
Mof_C 	C 	0.9455	0.4949	0.97103	0.074
Mof_H 	H 	0.9637	0.4679	0.9555	-0.014
Mof_C 	C 	0.9364	0.4385	0.99543	-0.128
Mof_H 	H 	0.9478	0.3736	0.9966	0.09
Mof_C 	C 	0.9104	0.4776	0.01827	0.056
Mof_C 	C 	0.8984	0.4195	0.04485	0.103
Mof_C 	C 	0.9576	0.0397	0.0561	0.086
Mof_H 	H 	0.9774	0.0119	0.0416	-0.01
Mof_C 	C 	0.9416	0.1333	0.05163	-0.138
Mof_H 	H 	0.95	0.1687	0.0344	0.091
Mof_C 	C 	0.919	0.0264	0.09946	0.078
Mof_H 	H 	0.9113	0.9893	0.1165	-0.007
Mof_C 	C 	0.9011	0.1195	0.09659	-0.132
Mof_H 	H 	0.8806	0.1447	0.1111	0.098
Mof_C 	C 	0.913	0.1746	0.07271	0.065
Mof_C 	C 	0.8984	0.2778	0.06983	0.098
Mof_C 	C 	0.8011	0.4666	0.1596	0.077
Mof_H 	H 	0.7859	0.4323	0.1751	-0.014
Mof_C 	C 	0.8225	0.4128	0.13736	-0.126
Mof_H 	H 	0.8224	0.3435	0.1378	0.085
Mof_C 	C 	0.8229	0.6099	0.13895	0.074
Mof_H 	H 	0.8243	0.6792	0.1397	-0.008
Mof_C 	C 	0.8443	0.563	0.11542	-0.117
Mof_H 	H 	0.859	0.5992	0.1001	0.086
Mof_C 	C 	0.8437	0.4626	0.11485	0.064
Mof_C 	C 	0.866	0.4109	0.09011	0.106
Mof_N 	N 	0.0407	0.8869	0.10428	-0.272
Mof_N 	N 	0.2301	0.0709	0.27127	-0.276
Mof_N 	N 	0.376	0.8791	0.09267	-0.275
Mof_N 	N 	0.1741	0.9515	0.17263	-0.14
Mof_N 	N 	0.25573	0.9474	0.16936	-0.141
Mof_N 	N 	0.2107	0.9135	0.12705	-0.14
Mof_N 	N 	0.8009	0.5641	0.1603	-0.278
Mof_N 	N 	0.9299	0.5863	0.96807	-0.28
Mof_N 	N 	0.94667	0.9871	0.07933	-0.28
Mof_N 	N 	0.877	0.4661	0.06658	-0.138
Mof_N 	N 	0.9096	0.3253	0.04511	-0.141
Mof_N 	N 	0.87533	0.3161	0.09278	-0.132
Mof_Zn	Zn	0.5228	0.14722	0.58587	1.164
Mof_Zn	Zn	0.06358	0.15855	0.57126	1.164
Mof_Zn	Zn	0.26223	0.85594	0.81055	1.165
Mof_I 	I 	0.50838	0.218	0.5343	-0.39
Mof_I 	I 	0.56891	0.23483	0.62541	-0.37
Mof_I 	I 	0.07434	0.34173	0.5603	-0.371
Mof_I 	I 	0.99685	0.08954	0.60037	-0.37
Mof_I 	I 	0.30126	0.69023	0.80558	-0.376
Mof_I 	I 	0.17836	0.8624	0.82716	-0.373
Mof_C 	C 	0.4206	0.1137	0.58778	0.065
Mof_H 	H 	0.4232	0.1238	0.567	-0.005
Mof_C 	C 	0.377	0.1002	0.60004	-0.112
Mof_H 	H 	0.3502	0.1006	0.5878	0.08
Mof_C 	C 	0.4552	0.0967	0.63303	0.073
Mof_H 	H 	0.4825	0.0947	0.6447	-0.013
Mof_C 	C 	0.413	0.0824	0.64677	-0.121
Mof_H 	H 	0.4116	0.0702	0.6674	0.082
Mof_C 	C 	0.3729	0.0861	0.63005	0.054
Mof_C 	C 	0.3267	0.0735	0.64394	0.102
Mof_C 	C 	0.3102	0.9246	0.75715	0.07
Mof_H 	H 	0.3357	0.894	0.7667	-0.015
Mof_C 	C 	0.3164	0.9628	0.72909	-0.122
Mof_H 	H 	0.3459	0.9601	0.7198	0.081
Mof_C 	C 	0.2342	0.9712	0.75786	0.065
Mof_H 	H 	0.2054	0.9755	0.768	-0
Mof_C 	C 	0.2376	0.009	0.72957	-0.117
Mof_H 	H 	0.2114	0.0378	0.7203	0.081
Mof_C 	C 	0.2796	0.0044	0.71502	0.054
Mof_C 	C 	0.2835	0.0383	0.68387	0.103
Mof_C 	C 	0.1233	0.0962	0.62145	0.06
Mof_H 	H 	0.0942	0.0888	0.631	-0.01
Mof_C 	C 	0.163	0.0811	0.63762	-0.115
Mof_H 	H 	0.1612	0.0648	0.658	0.079
Mof_C 	C 	0.1651	0.1286	0.57953	0.076
Mof_H 	H 	0.1658	0.1457	0.5592	-0.018
Mof_C 	C 	0.2065	0.1132	0.59374	-0.122
Mof_H 	H 	0.235	0.1182	0.5834	0.08
Mof_C 	C 	0.2057	0.0901	0.62385	0.051
Mof_C 	C 	0.2492	0.0761	0.64074	0.105
Mof_C 	C 	0.5933	0.3755	0.49048	0.078
Mof_H 	H 	0.6035	0.3098	0.489	-0.012
Mof_C 	C 	0.6034	0.4261	0.51571	-0.124
Mof_H 	H 	0.6197	0.3954	0.5314	0.079
Mof_C 	C 	0.5545	0.5051	0.47103	0.074
Mof_H 	H 	0.5363	0.5321	0.4555	-0.014
Mof_C 	C 	0.5636	0.5615	0.49543	-0.128
Mof_H 	H 	0.5522	0.6264	0.4966	0.09
Mof_C 	C 	0.5896	0.5224	0.51827	0.056
Mof_C 	C 	0.6016	0.5805	0.54485	0.103
Mof_C 	C 	0.5424	0.9603	0.5561	0.085
Mof_H 	H 	0.5226	0.9881	0.5416	-0.01
Mof_C 	C 	0.5584	0.8667	0.55163	-0.138
Mof_H 	H 	0.55	0.8313	0.5344	0.091
Mof_C 	C 	0.581	0.9736	0.59946	0.076
Mof_H 	H 	0.5887	0.0107	0.6165	-0.007
Mof_C 	C 	0.5989	0.8805	0.59659	-0.131
Mof_H 	H 	0.6194	0.8553	0.6111	0.098
Mof_C 	C 	0.587	0.8254	0.57271	0.065
Mof_C 	C 	0.6016	0.7222	0.56983	0.099
Mof_C 	C 	0.6989	0.5334	0.6596	0.077
Mof_H 	H 	0.7141	0.5677	0.6751	-0.014
Mof_C 	C 	0.6775	0.5872	0.63736	-0.126
Mof_H 	H 	0.6776	0.6565	0.6378	0.085
Mof_C 	C 	0.6771	0.3901	0.63895	0.074
Mof_H 	H 	0.6757	0.3208	0.6397	-0.008
Mof_C 	C 	0.6557	0.437	0.61542	-0.117
Mof_H 	H 	0.641	0.4008	0.6001	0.086
Mof_C 	C 	0.6563	0.5374	0.61485	0.064
Mof_C 	C 	0.634	0.5891	0.59011	0.106
Mof_N 	N 	0.4593	0.1131	0.60428	-0.272
Mof_N 	N 	0.2699	0.9291	0.77127	-0.276
Mof_N 	N 	0.124	0.1209	0.59267	-0.275
Mof_N 	N 	0.3259	0.0485	0.67263	-0.14
Mof_N 	N 	0.24427	0.0526	0.66936	-0.141
Mof_N 	N 	0.2893	0.0865	0.62705	-0.141
Mof_N 	N 	0.6991	0.4359	0.6603	-0.278
Mof_N 	N 	0.5701	0.4137	0.46807	-0.28
Mof_N 	N 	0.55333	0.0129	0.57933	-0.279
Mof_N 	N 	0.623	0.5339	0.56658	-0.138
Mof_N 	N 	0.5904	0.6747	0.54511	-0.141
Mof_N 	N 	0.62467	0.6839	0.59278	-0.132
Mof_Zn	Zn	0.0228	0.35278	0.41413	1.163
Mof_Zn	Zn	0.56358	0.34145	0.42874	1.164
Mof_Zn	Zn	0.76223	0.64406	0.18945	1.165
Mof_I 	I 	0.00838	0.282	0.4657	-0.39
Mof_I 	I 	0.06891	0.26517	0.37459	-0.371
Mof_I 	I 	0.57434	0.15827	0.4397	-0.371
Mof_I 	I 	0.49685	0.41046	0.39963	-0.371
Mof_I 	I 	0.80126	0.80977	0.19442	-0.376
Mof_I 	I 	0.67836	0.6376	0.17284	-0.373
Mof_C 	C 	0.9206	0.3863	0.41222	0.065
Mof_H 	H 	0.9232	0.3762	0.433	-0.005
Mof_C 	C 	0.877	0.3998	0.39996	-0.112
Mof_H 	H 	0.8502	0.3994	0.4122	0.08
Mof_C 	C 	0.9552	0.4033	0.36697	0.073
Mof_H 	H 	0.9825	0.4053	0.3553	-0.013
Mof_C 	C 	0.913	0.4176	0.35323	-0.121
Mof_H 	H 	0.9116	0.4298	0.3326	0.082
Mof_C 	C 	0.8729	0.4139	0.36995	0.054
Mof_C 	C 	0.8267	0.4265	0.35606	0.102
Mof_C 	C 	0.8102	0.5754	0.24285	0.069
Mof_H 	H 	0.8357	0.606	0.2333	-0.015
Mof_C 	C 	0.8164	0.5372	0.27091	-0.121
Mof_H 	H 	0.8459	0.5399	0.2802	0.081
Mof_C 	C 	0.7342	0.5288	0.24214	0.066
Mof_H 	H 	0.7054	0.5245	0.232	-0
Mof_C 	C 	0.7376	0.491	0.27043	-0.117
Mof_H 	H 	0.7114	0.4622	0.2797	0.081
Mof_C 	C 	0.7796	0.4956	0.28498	0.054
Mof_C 	C 	0.7835	0.4617	0.31613	0.103
Mof_C 	C 	0.6233	0.4038	0.37855	0.06
Mof_H 	H 	0.5942	0.4112	0.369	-0.01
Mof_C 	C 	0.663	0.4189	0.36238	-0.115
Mof_H 	H 	0.6612	0.4352	0.342	0.079
Mof_C 	C 	0.6651	0.3714	0.42047	0.076
Mof_H 	H 	0.6658	0.3543	0.4408	-0.018
Mof_C 	C 	0.7065	0.3868	0.40626	-0.122
Mof_H 	H 	0.735	0.3818	0.4166	0.08
Mof_C 	C 	0.7057	0.4099	0.37615	0.051
Mof_C 	C 	0.7492	0.4239	0.35926	0.105
Mof_C 	C 	0.0933	0.1245	0.50952	0.079
Mof_H 	H 	0.1035	0.1902	0.511	-0.012
Mof_C 	C 	0.1034	0.0739	0.48429	-0.125
Mof_H 	H 	0.1197	0.1046	0.4686	0.08
Mof_C 	C 	0.0545	0.9949	0.52897	0.075
Mof_H 	H 	0.0363	0.9679	0.5445	-0.014
Mof_C 	C 	0.0636	0.9385	0.50457	-0.128
Mof_H 	H 	0.0522	0.8736	0.5034	0.091
Mof_C 	C 	0.0896	0.9776	0.48173	0.057
Mof_C 	C 	0.1016	0.9195	0.45515	0.103
Mof_C 	C 	0.0424	0.5397	0.4439	0.085
Mof_H 	H 	0.0226	0.5119	0.4584	-0.01
Mof_C 	C 	0.0584	0.6333	0.44837	-0.138
Mof_H 	H 	0.05	0.6687	0.4656	0.091
Mof_C 	C 	0.081	0.5264	0.40054	0.077
Mof_H 	H 	0.0887	0.4893	0.3835	-0.007
Mof_C 	C 	0.0989	0.6195	0.40341	-0.132
Mof_H 	H 	0.1194	0.6447	0.3889	0.098
Mof_C 	C 	0.087	0.6746	0.42729	0.065
Mof_C 	C 	0.1016	0.7778	0.43017	0.098
Mof_C 	C 	0.1989	0.9666	0.3404	0.078
Mof_H 	H 	0.2141	0.9323	0.3249	-0.014
Mof_C 	C 	0.1775	0.9128	0.36264	-0.127
Mof_H 	H 	0.1776	0.8435	0.3622	0.085
Mof_C 	C 	0.1771	0.1099	0.36105	0.074
Mof_H 	H 	0.1757	0.1792	0.3603	-0.008
Mof_C 	C 	0.1557	0.063	0.38458	-0.119
Mof_H 	H 	0.141	0.0992	0.3999	0.087
Mof_C 	C 	0.1563	0.9626	0.38515	0.065
Mof_C 	C 	0.134	0.9109	0.40989	0.106
Mof_N 	N 	0.9593	0.3869	0.39572	-0.272
Mof_N 	N 	0.7699	0.5709	0.22873	-0.276
Mof_N 	N 	0.624	0.3791	0.40733	-0.275
Mof_N 	N 	0.8259	0.4515	0.32737	-0.14
Mof_N 	N 	0.74427	0.4474	0.33064	-0.141
Mof_N 	N 	0.7893	0.4135	0.37295	-0.141
Mof_N 	N 	0.1991	0.0641	0.3397	-0.279
Mof_N 	N 	0.0701	0.0863	0.53193	-0.28
Mof_N 	N 	0.05333	0.4871	0.42067	-0.28
Mof_N 	N 	0.123	0.9661	0.43342	-0.138
Mof_N 	N 	0.0904	0.8253	0.45489	-0.141
Mof_N 	N 	0.12467	0.8161	0.40722	-0.132
Mof_Zn	Zn	0.4772	0.64722	0.91413	1.164
Mof_Zn	Zn	0.93642	0.65855	0.92874	1.164
Mof_Zn	Zn	0.73777	0.35594	0.68945	1.165
Mof_I 	I 	0.49162	0.718	0.9657	-0.39
Mof_I 	I 	0.43109	0.73483	0.87459	-0.371
Mof_I 	I 	0.92566	0.84173	0.9397	-0.371
Mof_I 	I 	0.00315	0.58954	0.89963	-0.371
Mof_I 	I 	0.69874	0.19023	0.69442	-0.376
Mof_I 	I 	0.82164	0.3624	0.67284	-0.373
Mof_C 	C 	0.5794	0.6137	0.91222	0.065
Mof_H 	H 	0.5768	0.6238	0.933	-0.005
Mof_C 	C 	0.623	0.6002	0.89996	-0.112
Mof_H 	H 	0.6498	0.6006	0.9122	0.08
Mof_C 	C 	0.5448	0.5967	0.86697	0.073
Mof_H 	H 	0.5175	0.5947	0.8553	-0.013
Mof_C 	C 	0.587	0.5824	0.85323	-0.121
Mof_H 	H 	0.5884	0.5702	0.8326	0.082
Mof_C 	C 	0.6271	0.5861	0.86995	0.054
Mof_C 	C 	0.6733	0.5735	0.85606	0.102
Mof_C 	C 	0.6898	0.4246	0.74285	0.069
Mof_H 	H 	0.6643	0.394	0.7333	-0.015
Mof_C 	C 	0.6836	0.4628	0.77091	-0.121
Mof_H 	H 	0.6541	0.4601	0.7802	0.081
Mof_C 	C 	0.7658	0.4712	0.74214	0.066
Mof_H 	H 	0.7946	0.4755	0.732	-0
Mof_C 	C 	0.7624	0.509	0.77043	-0.117
Mof_H 	H 	0.7886	0.5378	0.7797	0.081
Mof_C 	C 	0.7204	0.5044	0.78498	0.054
Mof_C 	C 	0.7165	0.5383	0.81613	0.103
Mof_C 	C 	0.8767	0.5962	0.87855	0.06
Mof_H 	H 	0.9058	0.5888	0.869	-0.01
Mof_C 	C 	0.837	0.5811	0.86238	-0.115
Mof_H 	H 	0.8388	0.5648	0.842	0.079
Mof_C 	C 	0.8349	0.6286	0.92047	0.076
Mof_H 	H 	0.8342	0.6457	0.9408	-0.018
Mof_C 	C 	0.7935	0.6132	0.90626	-0.122
Mof_H 	H 	0.765	0.6182	0.9166	0.08
Mof_C 	C 	0.7943	0.5901	0.87615	0.051
Mof_C 	C 	0.7508	0.5761	0.85926	0.105
Mof_C 	C 	0.4067	0.8755	0.00952	0.078
Mof_H 	H 	0.3965	0.8098	0.011	-0.012
Mof_C 	C 	0.3966	0.9261	0.98429	-0.123
Mof_H 	H 	0.3803	0.8954	0.9686	0.079
Mof_C 	C 	0.4455	0.0051	0.02897	0.074
Mof_H 	H 	0.4637	0.0321	0.0445	-0.014
Mof_C 	C 	0.4364	0.0615	0.00457	-0.128
Mof_H 	H 	0.4478	0.1264	0.0034	0.09
Mof_C 	C 	0.4104	0.0224	0.98173	0.056
Mof_C 	C 	0.3984	0.0805	0.95515	0.103
Mof_C 	C 	0.4576	0.4603	0.9439	0.085
Mof_H 	H 	0.4774	0.4881	0.9584	-0.01
Mof_C 	C 	0.4416	0.3667	0.94837	-0.138
Mof_H 	H 	0.45	0.3313	0.9656	0.091
Mof_C 	C 	0.419	0.4736	0.90054	0.077
Mof_H 	H 	0.4113	0.5107	0.8835	-0.007
Mof_C 	C 	0.4011	0.3805	0.90341	-0.132
Mof_H 	H 	0.3806	0.3553	0.8889	0.098
Mof_C 	C 	0.413	0.3254	0.92729	0.065
Mof_C 	C 	0.3984	0.2222	0.93017	0.098
Mof_C 	C 	0.3011	0.0334	0.8404	0.077
Mof_H 	H 	0.2859	0.0677	0.8249	-0.014
Mof_C 	C 	0.3225	0.0872	0.86264	-0.127
Mof_H 	H 	0.3224	0.1565	0.8622	0.085
Mof_C 	C 	0.3229	0.8901	0.86105	0.074
Mof_H 	H 	0.3243	0.8208	0.8603	-0.008
Mof_C 	C 	0.3443	0.937	0.88458	-0.118
Mof_H 	H 	0.359	0.9008	0.8999	0.087
Mof_C 	C 	0.3437	0.0374	0.88515	0.064
Mof_C 	C 	0.366	0.0891	0.90989	0.106
Mof_N 	N 	0.5407	0.6131	0.89572	-0.273
Mof_N 	N 	0.7301	0.4291	0.72873	-0.276
Mof_N 	N 	0.876	0.6209	0.90733	-0.275
Mof_N 	N 	0.6741	0.5485	0.82737	-0.14
Mof_N 	N 	0.75573	0.5526	0.83064	-0.141
Mof_N 	N 	0.7107	0.5865	0.87295	-0.141
Mof_N 	N 	0.3009	0.9359	0.8397	-0.278
Mof_N 	N 	0.4299	0.9137	0.03193	-0.28
Mof_N 	N 	0.44667	0.5129	0.92067	-0.28
Mof_N 	N 	0.377	0.0339	0.93342	-0.138
Mof_N 	N 	0.4096	0.1747	0.95489	-0.141
Mof_N 	N 	0.37533	0.1839	0.90722	-0.132
_end
