data_functionalizedCrystal
_audit_creation_method	'EQeq! by Chris Wilmer'
_symmetry_space_group_name_H-M	'P1'
_symmetry_Int_Tables_number	1
_symmetry_cell_setting	triclinic
loop_
_symmetry_equiv_pos_as_xyz
  x,y,z
_cell_length_a	12.79
_cell_length_b	12.79
_cell_length_c	11.191
_cell_angle_alpha	90
_cell_angle_beta	90
_cell_angle_gamma	90
loop_
_atom_site_label
_atom_site_type_symbol
_atom_site_fract_x
_atom_site_fract_y
_atom_site_fract_z
_atom_site_charge
Mof_C 	C 	0.8796	0.9113	0.7739	0.246
Mof_H 	H 	0.9501	0.9155	0.8077	-0.018
Mof_C 	C 	0.8105	0.9915	0.8368	0.004
Mof_H 	H 	0.8172	0.0663	0.8355	0.048
Mof_C 	C 	0.707	0.01	0.7767	0.098
Mof_H 	H 	0.6636	0.9508	0.7948	0.006
Mof_C 	C 	0.7174	0.0218	0.6426	0.061
Mof_H 	H 	0.6505	0.0144	0.6045	0.007
Mof_C 	C 	0.785	0.9365	0.5933	-0.03
Mof_H 	H 	0.75	0.8699	0.6037	0.038
Mof_H 	H 	0.7949	0.9477	0.5083	0.061
Mof_O 	O 	0.8384	0.8109	0.7983	-0.451
Mof_H 	H 	0.836	0.76	0.739	0.193
Mof_O 	O 	0.794	0.9574	0.9571	-0.348
Mof_H 	H 	0.7914	0.0045	0.0167	0.138
Mof_O 	O 	0.6609	0.1023	0.8238	-0.431
Mof_H 	H 	0.6079	0.0987	0.8805	0.188
Mof_O 	O 	0.7591	0.1238	0.6227	-0.301
Mof_O 	O 	0.8855	0.9327	0.651	-0.215
Mof_C 	C 	0.1204	0.0887	0.2739	0.241
Mof_H 	H 	0.0499	0.0845	0.3077	-0.024
Mof_C 	C 	0.1895	0.0085	0.3368	0.036
Mof_H 	H 	0.1828	0.9337	0.3355	0.03
Mof_C 	C 	0.293	0.99	0.2767	0.078
Mof_H 	H 	0.3364	0.0492	0.2948	0.007
Mof_C 	C 	0.2826	0.9782	0.1426	0.061
Mof_H 	H 	0.3495	0.9856	0.1045	-0.002
Mof_C 	C 	0.215	0.0635	0.0933	-0.016
Mof_H 	H 	0.25	0.1301	0.1037	0.025
Mof_H 	H 	0.2051	0.0523	0.0083	0.04
Mof_O 	O 	0.1616	0.1891	0.2983	-0.469
Mof_H 	H 	0.164	0.24	0.239	0.188
Mof_O 	O 	0.206	0.0426	0.4571	-0.437
Mof_H 	H 	0.2086	0.9955	0.5167	0.198
Mof_O 	O 	0.3391	0.8977	0.3238	-0.428
Mof_H 	H 	0.3921	0.9013	0.3805	0.172
Mof_O 	O 	0.2409	0.8762	0.1227	-0.311
Mof_O 	O 	0.1145	0.0673	0.151	-0.227
Mof_C 	C 	0.5887	0.3796	0.5239	0.242
Mof_H 	H 	0.5845	0.4501	0.5577	-0.024
Mof_C 	C 	0.5085	0.3105	0.5868	0.027
Mof_H 	H 	0.4337	0.3172	0.5855	0.036
Mof_C 	C 	0.49	0.207	0.5267	0.089
Mof_H 	H 	0.5492	0.1636	0.5448	0.003
Mof_C 	C 	0.4782	0.2174	0.3926	0.065
Mof_H 	H 	0.4856	0.1505	0.3545	0.005
Mof_C 	C 	0.5635	0.285	0.3433	-0.031
Mof_H 	H 	0.6301	0.25	0.3537	0.037
Mof_H 	H 	0.5523	0.2949	0.2583	0.058
Mof_O 	O 	0.6891	0.3384	0.5483	-0.469
Mof_H 	H 	0.74	0.336	0.489	0.194
Mof_O 	O 	0.5426	0.294	0.7071	-0.44
Mof_H 	H 	0.4955	0.2914	0.7667	0.206
Mof_O 	O 	0.3977	0.1609	0.5738	-0.43
Mof_H 	H 	0.4013	0.1079	0.6305	0.176
Mof_O 	O 	0.3762	0.2591	0.3727	-0.303
Mof_O 	O 	0.5673	0.3855	0.401	-0.215
Mof_C 	C 	0.4113	0.6204	0.0239	0.189
Mof_H 	H 	0.4155	0.5499	0.0577	-0.02
Mof_C 	C 	0.4915	0.6895	0.0868	0.058
Mof_H 	H 	0.5663	0.6828	0.0855	0.02
Mof_C 	C 	0.51	0.793	0.0267	0.013
Mof_H 	H 	0.4508	0.8364	0.0448	0.017
Mof_C 	C 	0.5218	0.7826	0.8926	0.141
Mof_H 	H 	0.5144	0.8495	0.8545	-0.008
Mof_C 	C 	0.4365	0.715	0.8433	-0.076
Mof_H 	H 	0.3699	0.75	0.8537	0.062
Mof_H 	H 	0.4477	0.7051	0.7583	0.074
Mof_O 	O 	0.3109	0.6616	0.0483	-0.511
Mof_H 	H 	0.26	0.664	0.989	0.241
Mof_O 	O 	0.4574	0.706	0.2071	-0.445
Mof_H 	H 	0.5045	0.7086	0.2667	0.204
Mof_O 	O 	0.6023	0.8391	0.0738	-0.419
Mof_H 	H 	0.5987	0.8921	0.1305	0.166
Mof_O 	O 	0.6238	0.7409	0.8727	-0.289
Mof_O 	O 	0.4327	0.6145	0.901	-0.17
Mof_C 	C 	0.6204	0.4113	0.9761	0.299
Mof_H 	H 	0.5499	0.4155	0.9423	-0.028
Mof_C 	C 	0.6895	0.4915	0.9132	-0.01
Mof_H 	H 	0.6828	0.5663	0.9145	0.057
Mof_C 	C 	0.793	0.51	0.9733	0.165
Mof_H 	H 	0.8364	0.4508	0.9552	-0.01
Mof_C 	C 	0.7826	0.5218	0.1074	-0.017
Mof_H 	H 	0.8495	0.5144	0.1455	0.023
Mof_C 	C 	0.715	0.4365	0.1567	0.016
Mof_H 	H 	0.75	0.3699	0.1463	0.013
Mof_H 	H 	0.7051	0.4477	0.2417	0.048
Mof_O 	O 	0.6616	0.3109	0.9517	-0.426
Mof_H 	H 	0.664	0.26	0.011	0.146
Mof_O 	O 	0.706	0.4574	0.7929	-0.432
Mof_H 	H 	0.7086	0.5045	0.7333	0.199
Mof_O 	O 	0.8391	0.6023	0.9262	-0.418
Mof_H 	H 	0.8921	0.5987	0.8695	0.18
Mof_O 	O 	0.7409	0.6238	0.1273	-0.289
Mof_O 	O 	0.6145	0.4327	0.099	-0.261
Mof_C 	C 	0.3796	0.5887	0.4761	0.242
Mof_H 	H 	0.4501	0.5845	0.4423	-0.024
Mof_C 	C 	0.3105	0.5085	0.4132	0.026
Mof_H 	H 	0.3172	0.4337	0.4145	0.035
Mof_C 	C 	0.207	0.49	0.4733	0.087
Mof_H 	H 	0.1636	0.5492	0.4552	0.003
Mof_C 	C 	0.2174	0.4782	0.6074	0.067
Mof_H 	H 	0.1505	0.4856	0.6455	0.006
Mof_C 	C 	0.285	0.5635	0.6567	-0.035
Mof_H 	H 	0.25	0.6301	0.6463	0.04
Mof_H 	H 	0.2949	0.5523	0.7417	0.065
Mof_O 	O 	0.3384	0.6891	0.4517	-0.469
Mof_H 	H 	0.336	0.74	0.511	0.194
Mof_O 	O 	0.294	0.5426	0.2929	-0.438
Mof_H 	H 	0.2914	0.4955	0.2333	0.197
Mof_O 	O 	0.1609	0.3977	0.4262	-0.43
Mof_H 	H 	0.1079	0.4013	0.3695	0.171
Mof_O 	O 	0.2591	0.3762	0.6273	-0.299
Mof_O 	O 	0.3855	0.5673	0.599	-0.214
Mof_C 	C 	0.9113	0.8796	0.2261	0.231
Mof_H 	H 	0.9155	0.9501	0.1923	-0.024
Mof_C 	C 	0.9915	0.8105	0.1632	0.053
Mof_H 	H 	0.0663	0.8172	0.1645	0.02
Mof_C 	C 	0.01	0.707	0.2233	0.073
Mof_H 	H 	0.9508	0.6636	0.2052	0.007
Mof_C 	C 	0.0218	0.7174	0.3574	0.069
Mof_H 	H 	0.0144	0.6505	0.3955	0.003
Mof_C 	C 	0.9365	0.785	0.4067	-0.034
Mof_H 	H 	0.8699	0.75	0.3963	0.039
Mof_H 	H 	0.9477	0.7949	0.4917	0.063
Mof_O 	O 	0.8109	0.8384	0.2017	-0.46
Mof_H 	H 	0.76	0.836	0.261	0.192
Mof_O 	O 	0.9574	0.794	0.0429	-0.497
Mof_H 	H 	0.0045	0.7914	0.9833	0.253
Mof_O 	O 	0.1023	0.6609	0.1762	-0.428
Mof_H 	H 	0.0987	0.6079	0.1195	0.16
Mof_O 	O 	0.1238	0.7591	0.3773	-0.302
Mof_O 	O 	0.9327	0.8855	0.349	-0.212
Mof_C 	C 	0.0887	0.1204	0.7261	0.24
Mof_H 	H 	0.0845	0.0499	0.6923	-0.021
Mof_C 	C 	0.0085	0.1895	0.6632	0.025
Mof_H 	H 	0.9337	0.1828	0.6645	0.035
Mof_C 	C 	0.99	0.293	0.7233	0.09
Mof_H 	H 	0.0492	0.3364	0.7052	0.002
Mof_C 	C 	0.9782	0.2826	0.8574	0.071
Mof_H 	H 	0.9856	0.3495	0.8955	0.013
Mof_C 	C 	0.0635	0.215	0.9067	-0.049
Mof_H 	H 	0.1301	0.25	0.8963	0.052
Mof_H 	H 	0.0523	0.2051	0.9917	0.084
Mof_O 	O 	0.1891	0.1616	0.7017	-0.468
Mof_H 	H 	0.24	0.164	0.761	0.201
Mof_O 	O 	0.0426	0.206	0.5429	-0.438
Mof_H 	H 	0.9955	0.2086	0.4833	0.199
Mof_O 	O 	0.8977	0.3391	0.6762	-0.431
Mof_H 	H 	0.9013	0.3921	0.6195	0.174
Mof_O 	O 	0.8762	0.2409	0.8773	-0.291
Mof_O 	O 	0.0673	0.1145	0.849	-0.2
Mof_Ca	Ca	0.7738	0.7738	-0	1.444
Mof_Ca	Ca	0.2262	0.2262	0.5	1.551
Mof_Ca	Ca	0.7262	0.2738	0.75	1.554
Mof_Ca	Ca	0.2738	0.7262	0.25	1.549
_end
