data_functionalizedCrystal
_audit_creation_method	'EQeq! by Chris Wilmer'
_symmetry_space_group_name_H-M	'P1'
_symmetry_Int_Tables_number	1
_symmetry_cell_setting	triclinic
loop_
_symmetry_equiv_pos_as_xyz
  x,y,z
_cell_length_a	38.531
_cell_length_b	20.84
_cell_length_c	38.688
_cell_angle_alpha	90
_cell_angle_beta	91.6
_cell_angle_gamma	90
loop_
_atom_site_label
_atom_site_type_symbol
_atom_site_fract_x
_atom_site_fract_y
_atom_site_fract_z
_atom_site_charge
Mof_C 	C 	0.3087	0.4705	0.0222	0.027
Mof_H 	H 	0.3099	0.4293	0.0118	0.017
Mof_C 	C 	0.3387	0.5066	0.0273	-0.119
Mof_H 	H 	0.3604	0.49	0.0205	0.068
Mof_C 	C 	0.3369	0.5669	0.0425	0.068
Mof_C 	C 	0.3051	0.5911	0.0525	0.045
Mof_C 	C 	0.2751	0.555	0.0473	0.07
Mof_C 	C 	0.2769	0.4947	0.0322	-0.119
Mof_H 	H 	0.2563	0.47	0.0286	0.067
Mof_O 	O 	0.3024	0.6558	0.0585	-0.181
Mof_C 	C 	0.2918	0.6924	0.0295	-0.002
Mof_H 	H 	0.2662	0.691	0.0263	0.028
Mof_H 	H 	0.3023	0.6751	0.0083	0.026
Mof_C 	C 	0.3044	0.7639	0.0361	0.004
Mof_C 	C 	0.282	0.814	0.044	-0.031
Mof_H 	H 	0.2578	0.8064	0.0455	0.039
Mof_C 	C 	0.295	0.8732	0.0495	-0.077
Mof_H 	H 	0.2804	0.9075	0.0562	0.049
Mof_C 	C 	0.3305	0.8831	0.0452	0.03
Mof_H 	H 	0.3398	0.9241	0.051	-0.021
Mof_N 	N 	0.3527	0.8379	0.0334	-0.259
Mof_C 	C 	0.3386	0.7759	0.0291	-0.008
Mof_H 	H 	0.3528	0.742	0.0214	0.006
Mof_C 	C 	0.2401	0.576	0.0593	-0.199
Mof_H 	H 	0.2223	0.5682	0.0408	0.083
Mof_H 	H 	0.2405	0.6225	0.0645	0.1
Mof_C 	C 	0.2046	0.4456	0.1169	0.017
Mof_H 	H 	0.191	0.4078	0.1145	0.024
Mof_C 	C 	0.2111	0.4832	0.0881	-0.112
Mof_H 	H 	0.202	0.471	0.066	0.064
Mof_C 	C 	0.231	0.5385	0.0917	0.055
Mof_C 	C 	0.2444	0.5564	0.124	0.052
Mof_C 	C 	0.2378	0.5188	0.1528	0.052
Mof_C 	C 	0.2179	0.4634	0.1492	-0.11
Mof_H 	H 	0.2134	0.4378	0.1689	0.058
Mof_O 	O 	0.2629	0.6103	0.128	-0.166
Mof_C 	C 	0.3096	0.7889	0.1296	-0.049
Mof_H 	H 	0.3338	0.7923	0.126	0.043
Mof_C 	C 	0.2943	0.7301	0.1306	-0.059
Mof_H 	H 	0.3077	0.692	0.1289	0.096
Mof_C 	C 	0.2603	0.7275	0.134	0.036
Mof_C 	C 	0.2409	0.7812	0.14	-0.021
Mof_H 	H 	0.2169	0.7768	0.1445	0.015
Mof_N 	N 	0.2556	0.8419	0.1395	-0.235
Mof_C 	C 	0.2898	0.8441	0.1339	0.026
Mof_H 	H 	0.3009	0.8847	0.1328	-0.021
Mof_C 	C 	0.2378	0.6625	0.1349	-0.034
Mof_H 	H 	0.2274	0.6567	0.1578	0.038
Mof_H 	H 	0.219	0.6634	0.1169	0.036
Mof_C 	C 	0.2536	0.5356	0.1885	-0.185
Mof_H 	H 	0.239	0.5162	0.2065	0.075
Mof_H 	H 	0.2528	0.5827	0.1916	0.101
Mof_C 	C 	0.3285	0.421	0.205	0.024
Mof_H 	H 	0.3311	0.3765	0.2097	0.014
Mof_C 	C 	0.2954	0.4474	0.2014	-0.113
Mof_H 	H 	0.2755	0.4209	0.2036	0.062
Mof_C 	C 	0.2915	0.5125	0.1945	0.063
Mof_C 	C 	0.3206	0.5512	0.1913	0.045
Mof_C 	C 	0.3536	0.5249	0.195	0.06
Mof_C 	C 	0.3575	0.4598	0.2018	-0.112
Mof_H 	H 	0.3801	0.4418	0.2044	0.062
Mof_O 	O 	0.3151	0.6162	0.1855	-0.168
Mof_C 	C 	0.3232	0.6544	0.2164	-0.026
Mof_H 	H 	0.3436	0.636	0.229	0.034
Mof_H 	H 	0.3289	0.699	0.2097	0.041
Mof_C 	C 	0.292	0.6545	0.2398	0.01
Mof_C 	C 	0.2612	0.6799	0.231	-0.051
Mof_H 	H 	0.2599	0.7064	0.211	0.052
Mof_C 	C 	0.2306	0.6708	0.2489	-0.058
Mof_H 	H 	0.2084	0.6847	0.2406	0.04
Mof_C 	C 	0.2365	0.6367	0.2826	0.004
Mof_H 	H 	0.2178	0.6325	0.2978	-0.007
Mof_N 	N 	0.2686	0.6112	0.2923	-0.236
Mof_C 	C 	0.2961	0.6179	0.2721	-0.001
Mof_H 	H 	0.3178	0.5993	0.2785	0.011
Mof_C 	C 	0.3853	0.5615	0.1854	-0.189
Mof_H 	H 	0.4046	0.5511	0.2018	0.075
Mof_H 	H 	0.3806	0.6081	0.187	0.095
Mof_C 	C 	0.4194	0.4706	0.1067	0.017
Mof_H 	H 	0.432	0.4326	0.1019	0.014
Mof_C 	C 	0.4145	0.4891	0.1407	-0.107
Mof_H 	H 	0.4237	0.4637	0.1592	0.058
Mof_C 	C 	0.396	0.5447	0.1478	0.048
Mof_C 	C 	0.3825	0.5818	0.1207	0.056
Mof_C 	C 	0.3874	0.5634	0.0867	0.055
Mof_C 	C 	0.4058	0.5078	0.0797	-0.108
Mof_H 	H 	0.4092	0.4952	0.0564	0.06
Mof_O 	O 	0.3693	0.6423	0.126	-0.174
Mof_C 	C 	0.3961	0.6918	0.1354	-0.026
Mof_H 	H 	0.3847	0.731	0.144	0.036
Mof_H 	H 	0.412	0.6752	0.1538	0.034
Mof_C 	C 	0.4148	0.7063	0.1058	-0
Mof_C 	C 	0.4436	0.6722	0.0957	-0.038
Mof_H 	H 	0.4533	0.6395	0.1101	0.04
Mof_C 	C 	0.4587	0.6873	0.0624	-0.085
Mof_H 	H 	0.4766	0.6616	0.0532	0.054
Mof_C 	C 	0.446	0.7399	0.045	0.041
Mof_H 	H 	0.4568	0.7509	0.0241	-0.018
Mof_N 	N 	0.4196	0.7774	0.0546	-0.259
Mof_C 	C 	0.4065	0.7607	0.0849	0.011
Mof_H 	H 	0.3895	0.7888	0.0937	-0.004
Mof_C 	C 	0.3693	0.5984	0.0539	-0.196
Mof_H 	H 	0.3644	0.6436	0.0599	0.109
Mof_H 	H 	0.3856	0.5985	0.0346	0.08
Mof_C 	C 	0.3702	0.3426	0.0476	0.021
Mof_H 	H 	0.3695	0.3812	0.0607	0.021
Mof_C 	C 	0.4016	0.3201	0.0357	-0.115
Mof_H 	H 	0.4224	0.3433	0.0407	0.06
Mof_C 	C 	0.4027	0.2637	0.0167	0.06
Mof_C 	C 	0.3723	0.2297	0.0095	0.037
Mof_C 	C 	0.3408	0.2522	0.0214	0.055
Mof_C 	C 	0.3398	0.3086	0.0405	-0.114
Mof_H 	H 	0.3183	0.324	0.0486	0.066
Mof_O 	O 	0.3738	0.1741	0.989	-0.157
Mof_C 	C 	0.3792	0.1176	0.0124	-0.039
Mof_H 	H 	0.4012	0.1226	0.026	0.037
Mof_H 	H 	0.36	0.1147	0.0288	0.038
Mof_C 	C 	0.3805	0.0616	0.9924	0.024
Mof_C 	C 	0.3767	0.0557	0.9579	-0.049
Mof_H 	H 	0.3726	0.0937	0.9449	0.093
Mof_C 	C 	0.3784	0.9991	0.9403	-0.057
Mof_H 	H 	0.376	0.9968	0.9158	0.047
Mof_C 	C 	0.3842	0.9436	0.9615	0.034
Mof_H 	H 	0.3851	0.9027	0.9507	-0.026
Mof_N 	N 	0.3884	0.9467	0.9957	-0.242
Mof_C 	C 	0.386	0.0042	0.01	-0.001
Mof_H 	H 	0.3883	0.0065	0.0345	-0.012
Mof_C 	C 	0.3064	0.2158	0.0101	-0.19
Mof_H 	H 	0.3108	0.1692	0.0085	0.097
Mof_H 	H 	0.2884	0.2228	0.0275	0.081
Mof_C 	C 	0.2694	0.3271	0.9386	0.018
Mof_H 	H 	0.2596	0.3688	0.9365	0.02
Mof_C 	C 	0.2792	0.3034	0.971	-0.113
Mof_H 	H 	0.2761	0.3289	0.991	0.064
Mof_C 	C 	0.2935	0.2424	0.9741	0.059
Mof_C 	C 	0.2981	0.2051	0.9448	0.039
Mof_C 	C 	0.2883	0.2288	0.9124	0.054
Mof_C 	C 	0.274	0.2898	0.9093	-0.107
Mof_H 	H 	0.2673	0.3061	0.8871	0.063
Mof_O 	O 	0.3062	0.1373	0.9452	-0.168
Mof_C 	C 	0.2753	0.1007	0.9545	-0.031
Mof_H 	H 	0.2719	0.1024	0.9797	0.037
Mof_H 	H 	0.2543	0.1182	0.9425	0.035
Mof_C 	C 	0.2816	0.035	0.9434	0.021
Mof_C 	C 	0.293	0.9841	0.9669	-0.043
Mof_H 	H 	0.2973	0.994	0.9906	0.044
Mof_C 	C 	0.2975	0.9224	0.9557	-0.063
Mof_H 	H 	0.3048	0.8904	0.9718	0.045
Mof_C 	C 	0.2916	0.9059	0.9218	0.019
Mof_H 	H 	0.2944	0.8627	0.9146	0.001
Mof_N 	N 	0.2815	0.9524	0.898	-0.232
Mof_C 	C 	0.2768	0.0176	0.9078	-0.023
Mof_H 	H 	0.2705	0.0491	0.891	0.009
Mof_C 	C 	0.299	0.1933	0.8775	-0.182
Mof_H 	H 	0.3067	0.149	0.8827	0.106
Mof_H 	H 	0.2788	0.1912	0.8612	0.076
Mof_C 	C 	0.3532	0.3266	0.8336	0.016
Mof_H 	H 	0.3498	0.3661	0.8217	0.015
Mof_C 	C 	0.3247	0.2906	0.8434	-0.107
Mof_H 	H 	0.3019	0.3055	0.8383	0.059
Mof_C 	C 	0.3297	0.2327	0.8607	0.048
Mof_C 	C 	0.3632	0.2109	0.8682	0.055
Mof_C 	C 	0.3917	0.2469	0.8584	0.048
Mof_C 	C 	0.3866	0.3047	0.841	-0.105
Mof_H 	H 	0.4061	0.3293	0.8343	0.058
Mof_O 	O 	0.3709	0.1517	0.8831	-0.171
Mof_C 	C 	0.38	0.101	0.8575	-0.021
Mof_H 	H 	0.3985	0.1174	0.8426	0.034
Mof_H 	H 	0.3892	0.063	0.8701	0.038
Mof_C 	C 	0.3522	0.083	0.8373	-0.008
Mof_C 	C 	0.3371	0.1177	0.8048	-0.041
Mof_H 	H 	0.3482	0.1542	0.7954	0.04
Mof_C 	C 	0.3067	0.093	0.7902	-0.064
Mof_H 	H 	0.2971	0.1149	0.7706	0.043
Mof_C 	C 	0.2903	0.0433	0.8006	0.01
Mof_H 	H 	0.2689	0.032	0.7894	-0.011
Mof_N 	N 	0.3034	0.0042	0.8286	-0.251
Mof_C 	C 	0.3317	0.0238	0.8441	0.026
Mof_H 	H 	0.3405	0.9971	0.8622	0.003
Mof_C 	C 	0.4303	0.2307	0.869	-0.174
Mof_H 	H 	0.4329	0.1836	0.8709	0.09
Mof_H 	H 	0.4456	0.2456	0.8505	0.071
Mof_C 	C 	0.456	0.3624	0.9317	0.018
Mof_H 	H 	0.4619	0.4065	0.9303	0.015
Mof_C 	C 	0.4506	0.3268	0.9016	-0.104
Mof_H 	H 	0.4529	0.3466	0.8797	0.059
Mof_C 	C 	0.4419	0.2622	0.9037	0.049
Mof_C 	C 	0.4386	0.2332	0.9358	0.056
Mof_C 	C 	0.444	0.2688	0.9658	0.06
Mof_C 	C 	0.4527	0.3334	0.9638	-0.112
Mof_H 	H 	0.4564	0.3577	0.9843	0.061
Mof_O 	O 	0.4316	0.1682	0.9396	-0.185
Mof_C 	C 	0.4576	0.1264	0.9286	0.058
Mof_C 	C 	0.4969	0.0759	0.0163	-0.009
Mof_C 	C 	0.4736	0.0834	0.9888	-0.061
Mof_H 	H 	0.4502	0.0704	0.9913	0.055
Mof_C 	C 	0.4834	0.1096	0.9574	-0.01
Mof_C 	C 	0.5178	0.1227	0.9562	0
Mof_H 	H 	0.525	0.1402	0.9349	-0
Mof_N 	N 	0.5445	0.1148	0.9812	-0.264
Mof_C 	C 	0.5316	0.0915	0.0132	-0.017
Mof_H 	H 	0.547	0.0868	0.0326	0.006
Mof_C 	C 	0.4369	0.2403	0.0018	-0.191
Mof_H 	H 	0.4364	0.1929	-0	0.104
Mof_H 	H 	0.4563	0.252	0.018	0.076
Mof_Zn	Zn	0.27351	0.92524	0.84435	1.163
Mof_Zn	Zn	0.40501	0.86133	0.02588	1.149
Mof_N 	N 	0.3236	0.8731	0.8512	-0.324
Mof_C 	C 	0.3483	0.852	0.8545	0.259
Mof_C 	C 	0.3837	0.8225	0.8624	-0.612
Mof_H 	H 	0.4019	0.8516	0.8547	0.187
Mof_H 	H 	0.3856	0.7814	0.8502	0.185
Mof_H 	H 	0.3866	0.8152	0.8873	0.184
Mof_C 	C 	0.8087	0.9705	0.5222	0.027
Mof_H 	H 	0.8099	0.9293	0.5118	0.016
Mof_C 	C 	0.8387	0.0066	0.5273	-0.121
Mof_H 	H 	0.8604	0.99	0.5205	0.067
Mof_C 	C 	0.8369	0.0669	0.5425	0.068
Mof_C 	C 	0.8051	0.0911	0.5525	0.044
Mof_C 	C 	0.7751	0.055	0.5473	0.069
Mof_C 	C 	0.7769	0.9947	0.5322	-0.12
Mof_H 	H 	0.7563	0.97	0.5286	0.066
Mof_O 	O 	0.8024	0.1558	0.5585	-0.181
Mof_C 	C 	0.7918	0.1924	0.5295	-0.002
Mof_H 	H 	0.7662	0.191	0.5263	0.029
Mof_H 	H 	0.8023	0.1751	0.5083	0.026
Mof_C 	C 	0.8044	0.2639	0.5361	0.004
Mof_C 	C 	0.782	0.314	0.544	-0.031
Mof_H 	H 	0.7578	0.3064	0.5455	0.039
Mof_C 	C 	0.795	0.3732	0.5495	-0.077
Mof_H 	H 	0.7804	0.4075	0.5562	0.05
Mof_C 	C 	0.8305	0.3831	0.5452	0.03
Mof_H 	H 	0.8398	0.4241	0.551	-0.021
Mof_N 	N 	0.8527	0.3379	0.5334	-0.259
Mof_C 	C 	0.8386	0.2759	0.5291	-0.008
Mof_H 	H 	0.8528	0.242	0.5214	0.006
Mof_C 	C 	0.7401	0.076	0.5593	-0.199
Mof_H 	H 	0.7223	0.0682	0.5408	0.083
Mof_H 	H 	0.7405	0.1225	0.5645	0.1
Mof_C 	C 	0.7046	0.9456	0.6169	0.016
Mof_H 	H 	0.691	0.9078	0.6145	0.024
Mof_C 	C 	0.7111	0.9832	0.5881	-0.112
Mof_H 	H 	0.702	0.971	0.566	0.064
Mof_C 	C 	0.731	0.0385	0.5917	0.055
Mof_C 	C 	0.7444	0.0564	0.624	0.052
Mof_C 	C 	0.7378	0.0188	0.6528	0.051
Mof_C 	C 	0.7179	0.9634	0.6492	-0.11
Mof_H 	H 	0.7134	0.9378	0.6689	0.058
Mof_O 	O 	0.7629	0.1103	0.628	-0.166
Mof_C 	C 	0.8096	0.2889	0.6296	-0.049
Mof_H 	H 	0.8338	0.2923	0.626	0.043
Mof_C 	C 	0.7943	0.2301	0.6306	-0.059
Mof_H 	H 	0.8077	0.192	0.6289	0.096
Mof_C 	C 	0.7603	0.2275	0.634	0.036
Mof_C 	C 	0.7409	0.2812	0.64	-0.021
Mof_H 	H 	0.7169	0.2768	0.6445	0.015
Mof_N 	N 	0.7556	0.3419	0.6395	-0.235
Mof_C 	C 	0.7898	0.3441	0.6339	0.026
Mof_H 	H 	0.8009	0.3847	0.6328	-0.021
Mof_C 	C 	0.7378	0.1625	0.6349	-0.034
Mof_H 	H 	0.7274	0.1567	0.6578	0.038
Mof_H 	H 	0.719	0.1634	0.6169	0.036
Mof_C 	C 	0.7536	0.0356	0.6885	-0.185
Mof_H 	H 	0.739	0.0162	0.7065	0.075
Mof_H 	H 	0.7528	0.0827	0.6916	0.101
Mof_C 	C 	0.8285	0.921	0.705	0.024
Mof_H 	H 	0.8311	0.8765	0.7097	0.014
Mof_C 	C 	0.7954	0.9474	0.7014	-0.113
Mof_H 	H 	0.7755	0.9209	0.7036	0.062
Mof_C 	C 	0.7915	0.0125	0.6945	0.063
Mof_C 	C 	0.8206	0.0512	0.6913	0.045
Mof_C 	C 	0.8536	0.0249	0.695	0.059
Mof_C 	C 	0.8575	0.9598	0.7018	-0.112
Mof_H 	H 	0.8801	0.9418	0.7044	0.062
Mof_O 	O 	0.8151	0.1162	0.6855	-0.168
Mof_C 	C 	0.8232	0.1544	0.7164	-0.026
Mof_H 	H 	0.8436	0.136	0.729	0.034
Mof_H 	H 	0.8289	0.199	0.7097	0.041
Mof_C 	C 	0.792	0.1545	0.7398	0.01
Mof_C 	C 	0.7612	0.1799	0.731	-0.051
Mof_H 	H 	0.7599	0.2064	0.711	0.052
Mof_C 	C 	0.7306	0.1708	0.7489	-0.058
Mof_H 	H 	0.7084	0.1847	0.7406	0.04
Mof_C 	C 	0.7365	0.1367	0.7826	0.004
Mof_H 	H 	0.7178	0.1325	0.7978	-0.007
Mof_N 	N 	0.7686	0.1112	0.7923	-0.236
Mof_C 	C 	0.7961	0.1179	0.7721	-0.001
Mof_H 	H 	0.8178	0.0993	0.7785	0.011
Mof_C 	C 	0.8853	0.0615	0.6854	-0.189
Mof_H 	H 	0.9046	0.0511	0.7018	0.075
Mof_H 	H 	0.8806	0.1081	0.687	0.095
Mof_C 	C 	0.9194	0.9706	0.6067	0.018
Mof_H 	H 	0.932	0.9326	0.6019	0.014
Mof_C 	C 	0.9145	0.9891	0.6407	-0.107
Mof_H 	H 	0.9237	0.9637	0.6592	0.058
Mof_C 	C 	0.896	0.0447	0.6478	0.048
Mof_C 	C 	0.8825	0.0818	0.6207	0.055
Mof_C 	C 	0.8874	0.0634	0.5867	0.055
Mof_C 	C 	0.9058	0.0078	0.5797	-0.108
Mof_H 	H 	0.9092	0.9952	0.5564	0.06
Mof_O 	O 	0.8693	0.1423	0.626	-0.174
Mof_C 	C 	0.8961	0.1918	0.6354	-0.026
Mof_H 	H 	0.8847	0.231	0.644	0.036
Mof_H 	H 	0.912	0.1752	0.6538	0.034
Mof_C 	C 	0.9148	0.2063	0.6058	-0
Mof_C 	C 	0.9436	0.1722	0.5957	-0.038
Mof_H 	H 	0.9533	0.1395	0.6101	0.04
Mof_C 	C 	0.9587	0.1873	0.5624	-0.084
Mof_H 	H 	0.9766	0.1616	0.5532	0.054
Mof_C 	C 	0.946	0.2399	0.545	0.041
Mof_H 	H 	0.9568	0.2509	0.5241	-0.018
Mof_N 	N 	0.9196	0.2774	0.5546	-0.259
Mof_C 	C 	0.9065	0.2607	0.5849	0.011
Mof_H 	H 	0.8895	0.2888	0.5937	-0.004
Mof_C 	C 	0.8693	0.0984	0.5539	-0.197
Mof_H 	H 	0.8644	0.1436	0.5599	0.109
Mof_H 	H 	0.8856	0.0985	0.5346	0.08
Mof_C 	C 	0.8702	0.8426	0.5476	0.021
Mof_H 	H 	0.8695	0.8812	0.5607	0.021
Mof_C 	C 	0.9016	0.8201	0.5357	-0.115
Mof_H 	H 	0.9224	0.8433	0.5407	0.06
Mof_C 	C 	0.9027	0.7637	0.5167	0.06
Mof_C 	C 	0.8723	0.7297	0.5095	0.038
Mof_C 	C 	0.8408	0.7522	0.5214	0.055
Mof_C 	C 	0.8398	0.8086	0.5405	-0.113
Mof_H 	H 	0.8183	0.824	0.5486	0.066
Mof_O 	O 	0.8738	0.6741	0.489	-0.159
Mof_C 	C 	0.8792	0.6176	0.5124	-0.036
Mof_H 	H 	0.9012	0.6226	0.526	0.036
Mof_H 	H 	0.86	0.6147	0.5288	0.037
Mof_C 	C 	0.8805	0.5616	0.4924	0.021
Mof_C 	C 	0.8767	0.5557	0.4579	-0.047
Mof_H 	H 	0.8726	0.5937	0.4449	0.093
Mof_C 	C 	0.8784	0.4991	0.4403	-0.058
Mof_H 	H 	0.876	0.4968	0.4158	0.047
Mof_C 	C 	0.8842	0.4436	0.4615	0.035
Mof_H 	H 	0.8851	0.4027	0.4507	-0.027
Mof_N 	N 	0.8884	0.4467	0.4957	-0.243
Mof_C 	C 	0.886	0.5042	0.51	0.002
Mof_H 	H 	0.8883	0.5065	0.5345	-0.013
Mof_C 	C 	0.8064	0.7158	0.5101	-0.189
Mof_H 	H 	0.8108	0.6692	0.5085	0.097
Mof_H 	H 	0.7884	0.7228	0.5275	0.081
Mof_C 	C 	0.7694	0.8271	0.4386	0.018
Mof_H 	H 	0.7596	0.8688	0.4365	0.02
Mof_C 	C 	0.7792	0.8034	0.471	-0.112
Mof_H 	H 	0.7761	0.8289	0.491	0.064
Mof_C 	C 	0.7935	0.7424	0.4741	0.058
Mof_C 	C 	0.7981	0.7051	0.4448	0.04
Mof_C 	C 	0.7883	0.7288	0.4124	0.053
Mof_C 	C 	0.774	0.7898	0.4093	-0.107
Mof_H 	H 	0.7673	0.8061	0.3871	0.063
Mof_O 	O 	0.8062	0.6373	0.4452	-0.168
Mof_C 	C 	0.7753	0.6007	0.4545	-0.031
Mof_H 	H 	0.7719	0.6024	0.4797	0.036
Mof_H 	H 	0.7543	0.6182	0.4425	0.035
Mof_C 	C 	0.7816	0.535	0.4434	0.02
Mof_C 	C 	0.793	0.4841	0.4669	-0.043
Mof_H 	H 	0.7973	0.494	0.4906	0.043
Mof_C 	C 	0.7975	0.4224	0.4557	-0.063
Mof_H 	H 	0.8048	0.3904	0.4718	0.045
Mof_C 	C 	0.7916	0.4059	0.4218	0.019
Mof_H 	H 	0.7944	0.3627	0.4146	0.001
Mof_N 	N 	0.7815	0.4524	0.398	-0.232
Mof_C 	C 	0.7768	0.5176	0.4078	-0.023
Mof_H 	H 	0.7705	0.5491	0.391	0.009
Mof_C 	C 	0.799	0.6933	0.3775	-0.182
Mof_H 	H 	0.8067	0.649	0.3827	0.106
Mof_H 	H 	0.7788	0.6912	0.3612	0.076
Mof_C 	C 	0.8532	0.8266	0.3336	0.016
Mof_H 	H 	0.8498	0.8661	0.3217	0.015
Mof_C 	C 	0.8247	0.7906	0.3434	-0.107
Mof_H 	H 	0.8019	0.8055	0.3383	0.059
Mof_C 	C 	0.8297	0.7327	0.3607	0.048
Mof_C 	C 	0.8632	0.7109	0.3682	0.055
Mof_C 	C 	0.8917	0.7469	0.3584	0.048
Mof_C 	C 	0.8866	0.8047	0.341	-0.105
Mof_H 	H 	0.9061	0.8293	0.3343	0.058
Mof_O 	O 	0.8709	0.6517	0.3831	-0.171
Mof_C 	C 	0.88	0.601	0.3575	-0.021
Mof_H 	H 	0.8985	0.6174	0.3426	0.034
Mof_H 	H 	0.8892	0.563	0.3701	0.038
Mof_C 	C 	0.8522	0.583	0.3373	-0.008
Mof_C 	C 	0.8371	0.6177	0.3048	-0.041
Mof_H 	H 	0.8482	0.6542	0.2954	0.04
Mof_C 	C 	0.8067	0.593	0.2902	-0.064
Mof_H 	H 	0.7971	0.6149	0.2706	0.043
Mof_C 	C 	0.7903	0.5433	0.3006	0.01
Mof_H 	H 	0.7689	0.532	0.2894	-0.011
Mof_N 	N 	0.8034	0.5042	0.3286	-0.251
Mof_C 	C 	0.8317	0.5238	0.3441	0.026
Mof_H 	H 	0.8405	0.4971	0.3622	0.003
Mof_C 	C 	0.9303	0.7307	0.369	-0.174
Mof_H 	H 	0.9329	0.6836	0.3709	0.09
Mof_H 	H 	0.9456	0.7456	0.3505	0.071
Mof_C 	C 	0.956	0.8624	0.4317	0.017
Mof_H 	H 	0.9619	0.9065	0.4303	0.015
Mof_C 	C 	0.9506	0.8268	0.4016	-0.104
Mof_H 	H 	0.9529	0.8466	0.3797	0.059
Mof_C 	C 	0.9419	0.7622	0.4037	0.048
Mof_C 	C 	0.9386	0.7332	0.4358	0.056
Mof_C 	C 	0.944	0.7688	0.4658	0.059
Mof_C 	C 	0.9527	0.8334	0.4638	-0.111
Mof_H 	H 	0.9564	0.8577	0.4843	0.061
Mof_O 	O 	0.9316	0.6682	0.4396	-0.186
Mof_C 	C 	0.9576	0.6264	0.4286	0.058
Mof_C 	C 	0.9969	0.5759	0.5163	-0.008
Mof_C 	C 	0.9736	0.5834	0.4888	-0.062
Mof_H 	H 	0.9502	0.5704	0.4913	0.056
Mof_C 	C 	0.9834	0.6096	0.4574	-0.01
Mof_C 	C 	0.0178	0.6227	0.4562	0
Mof_H 	H 	0.025	0.6402	0.4349	-0
Mof_N 	N 	0.0445	0.6148	0.4812	-0.264
Mof_C 	C 	0.0316	0.5915	0.5132	-0.016
Mof_H 	H 	0.047	0.5868	0.5326	0.006
Mof_C 	C 	0.9369	0.7403	0.5018	-0.189
Mof_H 	H 	0.9364	0.6929	0.5	0.104
Mof_H 	H 	0.9563	0.752	0.518	0.076
Mof_Zn	Zn	0.77351	0.42524	0.34435	1.163
Mof_Zn	Zn	0.90501	0.36133	0.52588	1.149
Mof_N 	N 	0.8236	0.3731	0.3512	-0.324
Mof_C 	C 	0.8483	0.352	0.3545	0.259
Mof_C 	C 	0.8837	0.3225	0.3624	-0.612
Mof_H 	H 	0.9019	0.3516	0.3547	0.187
Mof_H 	H 	0.8856	0.2814	0.3502	0.185
Mof_H 	H 	0.8866	0.3152	0.3873	0.183
Mof_C 	C 	0.1913	0.4705	0.9778	0.026
Mof_H 	H 	0.1901	0.4293	0.9882	0.016
Mof_C 	C 	0.1613	0.5066	0.9727	-0.12
Mof_H 	H 	0.1396	0.49	0.9795	0.067
Mof_C 	C 	0.1631	0.5669	0.9575	0.067
Mof_C 	C 	0.1949	0.5911	0.9475	0.044
Mof_C 	C 	0.2249	0.555	0.9527	0.069
Mof_C 	C 	0.2231	0.4947	0.9678	-0.12
Mof_H 	H 	0.2437	0.47	0.9714	0.066
Mof_O 	O 	0.1976	0.6558	0.9415	-0.181
Mof_C 	C 	0.2082	0.6924	0.9705	-0.002
Mof_H 	H 	0.2338	0.691	0.9737	0.029
Mof_H 	H 	0.1977	0.6751	0.9917	0.026
Mof_C 	C 	0.1956	0.7639	0.9639	0.005
Mof_C 	C 	0.218	0.814	0.956	-0.031
Mof_H 	H 	0.2422	0.8064	0.9545	0.039
Mof_C 	C 	0.205	0.8732	0.9505	-0.077
Mof_H 	H 	0.2196	0.9075	0.9438	0.05
Mof_C 	C 	0.1695	0.8831	0.9548	0.03
Mof_H 	H 	0.1602	0.9241	0.949	-0.021
Mof_N 	N 	0.1473	0.8379	0.9666	-0.259
Mof_C 	C 	0.1614	0.7759	0.9709	-0.008
Mof_H 	H 	0.1472	0.742	0.9786	0.006
Mof_C 	C 	0.2599	0.576	0.9407	-0.199
Mof_H 	H 	0.2777	0.5682	0.9592	0.083
Mof_H 	H 	0.2595	0.6225	0.9355	0.1
Mof_C 	C 	0.2954	0.4456	0.8831	0.017
Mof_H 	H 	0.309	0.4078	0.8855	0.024
Mof_C 	C 	0.2889	0.4832	0.9119	-0.113
Mof_H 	H 	0.298	0.471	0.934	0.064
Mof_C 	C 	0.269	0.5385	0.9083	0.056
Mof_C 	C 	0.2556	0.5564	0.876	0.052
Mof_C 	C 	0.2622	0.5188	0.8472	0.052
Mof_C 	C 	0.2821	0.4634	0.8508	-0.11
Mof_H 	H 	0.2866	0.4378	0.8311	0.058
Mof_O 	O 	0.2371	0.6103	0.872	-0.166
Mof_C 	C 	0.1904	0.7889	0.8704	-0.049
Mof_H 	H 	0.1662	0.7923	0.874	0.043
Mof_C 	C 	0.2057	0.7301	0.8694	-0.059
Mof_H 	H 	0.1923	0.692	0.8711	0.096
Mof_C 	C 	0.2397	0.7275	0.866	0.036
Mof_C 	C 	0.2591	0.7812	0.86	-0.021
Mof_H 	H 	0.2831	0.7768	0.8555	0.015
Mof_N 	N 	0.2444	0.8419	0.8605	-0.235
Mof_C 	C 	0.2102	0.8441	0.8661	0.026
Mof_H 	H 	0.1991	0.8847	0.8672	-0.021
Mof_C 	C 	0.2622	0.6625	0.8651	-0.034
Mof_H 	H 	0.2726	0.6567	0.8422	0.038
Mof_H 	H 	0.281	0.6634	0.8831	0.036
Mof_C 	C 	0.2464	0.5356	0.8115	-0.185
Mof_H 	H 	0.261	0.5162	0.7935	0.075
Mof_H 	H 	0.2472	0.5827	0.8084	0.101
Mof_C 	C 	0.1715	0.421	0.795	0.025
Mof_H 	H 	0.1689	0.3765	0.7903	0.014
Mof_C 	C 	0.2046	0.4474	0.7986	-0.113
Mof_H 	H 	0.2245	0.4209	0.7964	0.062
Mof_C 	C 	0.2085	0.5125	0.8055	0.063
Mof_C 	C 	0.1794	0.5512	0.8087	0.045
Mof_C 	C 	0.1464	0.5249	0.805	0.06
Mof_C 	C 	0.1425	0.4598	0.7982	-0.112
Mof_H 	H 	0.1199	0.4418	0.7956	0.062
Mof_O 	O 	0.1849	0.6162	0.8145	-0.168
Mof_C 	C 	0.1768	0.6544	0.7836	-0.026
Mof_H 	H 	0.1564	0.636	0.771	0.034
Mof_H 	H 	0.1711	0.699	0.7903	0.041
Mof_C 	C 	0.208	0.6545	0.7602	0.01
Mof_C 	C 	0.2388	0.6799	0.769	-0.051
Mof_H 	H 	0.2401	0.7064	0.789	0.052
Mof_C 	C 	0.2694	0.6708	0.7511	-0.058
Mof_H 	H 	0.2916	0.6847	0.7594	0.04
Mof_C 	C 	0.2635	0.6367	0.7174	0.004
Mof_H 	H 	0.2822	0.6325	0.7022	-0.007
Mof_N 	N 	0.2314	0.6112	0.7077	-0.236
Mof_C 	C 	0.2039	0.6179	0.7279	-0.001
Mof_H 	H 	0.1822	0.5993	0.7215	0.011
Mof_C 	C 	0.1147	0.5615	0.8146	-0.189
Mof_H 	H 	0.0954	0.5511	0.7982	0.075
Mof_H 	H 	0.1194	0.6081	0.813	0.095
Mof_C 	C 	0.0806	0.4706	0.8933	0.017
Mof_H 	H 	0.068	0.4326	0.8981	0.014
Mof_C 	C 	0.0855	0.4891	0.8593	-0.107
Mof_H 	H 	0.0763	0.4637	0.8408	0.058
Mof_C 	C 	0.104	0.5447	0.8522	0.048
Mof_C 	C 	0.1175	0.5818	0.8793	0.056
Mof_C 	C 	0.1126	0.5634	0.9133	0.055
Mof_C 	C 	0.0942	0.5078	0.9203	-0.108
Mof_H 	H 	0.0908	0.4952	0.9436	0.06
Mof_O 	O 	0.1307	0.6423	0.874	-0.174
Mof_C 	C 	0.1039	0.6918	0.8646	-0.026
Mof_H 	H 	0.1153	0.731	0.856	0.036
Mof_H 	H 	0.088	0.6752	0.8462	0.034
Mof_C 	C 	0.0852	0.7063	0.8942	-0
Mof_C 	C 	0.0564	0.6722	0.9043	-0.038
Mof_H 	H 	0.0467	0.6395	0.8899	0.04
Mof_C 	C 	0.0413	0.6873	0.9376	-0.084
Mof_H 	H 	0.0234	0.6616	0.9468	0.054
Mof_C 	C 	0.054	0.7399	0.955	0.041
Mof_H 	H 	0.0432	0.7509	0.9759	-0.018
Mof_N 	N 	0.0804	0.7774	0.9454	-0.259
Mof_C 	C 	0.0935	0.7607	0.9151	0.011
Mof_H 	H 	0.1105	0.7888	0.9063	-0.004
Mof_C 	C 	0.1307	0.5984	0.9461	-0.196
Mof_H 	H 	0.1356	0.6436	0.9401	0.109
Mof_H 	H 	0.1144	0.5985	0.9654	0.08
Mof_C 	C 	0.1298	0.3426	0.9524	0.02
Mof_H 	H 	0.1305	0.3812	0.9393	0.022
Mof_C 	C 	0.0984	0.3201	0.9643	-0.114
Mof_H 	H 	0.0776	0.3433	0.9593	0.06
Mof_C 	C 	0.0973	0.2637	0.9833	0.058
Mof_C 	C 	0.1277	0.2297	0.9905	0.039
Mof_C 	C 	0.1592	0.2522	0.9786	0.054
Mof_C 	C 	0.1602	0.3086	0.9595	-0.112
Mof_H 	H 	0.1817	0.324	0.9514	0.066
Mof_O 	O 	0.1262	0.1741	0.011	-0.16
Mof_C 	C 	0.1208	0.1176	0.9876	-0.032
Mof_H 	H 	0.0988	0.1226	0.974	0.036
Mof_H 	H 	0.14	0.1147	0.9712	0.037
Mof_C 	C 	0.1195	0.0616	0.0076	0.017
Mof_C 	C 	0.1233	0.0557	0.0421	-0.045
Mof_H 	H 	0.1274	0.0937	0.0551	0.092
Mof_C 	C 	0.1216	0.9991	0.0597	-0.06
Mof_H 	H 	0.124	0.9968	0.0842	0.048
Mof_C 	C 	0.1158	0.9436	0.0385	0.036
Mof_H 	H 	0.1149	0.9027	0.0493	-0.027
Mof_N 	N 	0.1116	0.9467	0.0043	-0.244
Mof_C 	C 	0.114	0.0042	0.99	0.005
Mof_H 	H 	0.1117	0.0065	0.9655	-0.013
Mof_C 	C 	0.1936	0.2158	0.9899	-0.188
Mof_H 	H 	0.1892	0.1692	0.9915	0.097
Mof_H 	H 	0.2116	0.2228	0.9725	0.081
Mof_C 	C 	0.2306	0.3271	0.0614	0.017
Mof_H 	H 	0.2404	0.3688	0.0635	0.02
Mof_C 	C 	0.2208	0.3034	0.029	-0.112
Mof_H 	H 	0.2239	0.3289	0.009	0.063
Mof_C 	C 	0.2065	0.2424	0.0259	0.057
Mof_C 	C 	0.2019	0.2051	0.0552	0.04
Mof_C 	C 	0.2117	0.2288	0.0876	0.053
Mof_C 	C 	0.226	0.2898	0.0907	-0.107
Mof_H 	H 	0.2327	0.3061	0.1129	0.063
Mof_O 	O 	0.1938	0.1373	0.0548	-0.168
Mof_C 	C 	0.2247	0.1007	0.0455	-0.031
Mof_H 	H 	0.2281	0.1024	0.0203	0.036
Mof_H 	H 	0.2457	0.1182	0.0575	0.035
Mof_C 	C 	0.2184	0.035	0.0566	0.02
Mof_C 	C 	0.207	0.9841	0.0331	-0.043
Mof_H 	H 	0.2027	0.994	0.0094	0.043
Mof_C 	C 	0.2025	0.9224	0.0443	-0.063
Mof_H 	H 	0.1952	0.8904	0.0282	0.044
Mof_C 	C 	0.2084	0.9059	0.0782	0.019
Mof_H 	H 	0.2056	0.8627	0.0854	0.001
Mof_N 	N 	0.2185	0.9524	0.102	-0.232
Mof_C 	C 	0.2232	0.0176	0.0922	-0.023
Mof_H 	H 	0.2295	0.0491	0.109	0.009
Mof_C 	C 	0.201	0.1933	0.1225	-0.182
Mof_H 	H 	0.1933	0.149	0.1173	0.106
Mof_H 	H 	0.2212	0.1912	0.1388	0.076
Mof_C 	C 	0.1468	0.3266	0.1664	0.016
Mof_H 	H 	0.1502	0.3661	0.1783	0.015
Mof_C 	C 	0.1753	0.2906	0.1566	-0.107
Mof_H 	H 	0.1981	0.3055	0.1617	0.059
Mof_C 	C 	0.1703	0.2327	0.1393	0.048
Mof_C 	C 	0.1368	0.2109	0.1318	0.055
Mof_C 	C 	0.1083	0.2469	0.1416	0.048
Mof_C 	C 	0.1134	0.3047	0.159	-0.105
Mof_H 	H 	0.0939	0.3293	0.1657	0.058
Mof_O 	O 	0.1291	0.1517	0.1169	-0.171
Mof_C 	C 	0.12	0.101	0.1425	-0.021
Mof_H 	H 	0.1015	0.1174	0.1574	0.034
Mof_H 	H 	0.1108	0.063	0.1299	0.038
Mof_C 	C 	0.1478	0.083	0.1627	-0.008
Mof_C 	C 	0.1629	0.1177	0.1952	-0.041
Mof_H 	H 	0.1518	0.1542	0.2046	0.04
Mof_C 	C 	0.1933	0.093	0.2098	-0.064
Mof_H 	H 	0.2029	0.1149	0.2294	0.043
Mof_C 	C 	0.2097	0.0433	0.1994	0.01
Mof_H 	H 	0.2311	0.032	0.2106	-0.011
Mof_N 	N 	0.1966	0.0042	0.1714	-0.251
Mof_C 	C 	0.1683	0.0238	0.1559	0.026
Mof_H 	H 	0.1595	0.9971	0.1378	0.003
Mof_C 	C 	0.0697	0.2307	0.131	-0.174
Mof_H 	H 	0.0671	0.1836	0.1291	0.09
Mof_H 	H 	0.0544	0.2456	0.1495	0.071
Mof_C 	C 	0.044	0.3624	0.0683	0.017
Mof_H 	H 	0.0381	0.4065	0.0697	0.015
Mof_C 	C 	0.0494	0.3268	0.0984	-0.104
Mof_H 	H 	0.0471	0.3466	0.1203	0.059
Mof_C 	C 	0.0581	0.2622	0.0963	0.048
Mof_C 	C 	0.0614	0.2332	0.0642	0.057
Mof_C 	C 	0.056	0.2688	0.0342	0.057
Mof_C 	C 	0.0473	0.3334	0.0362	-0.11
Mof_H 	H 	0.0436	0.3577	0.0157	0.061
Mof_O 	O 	0.0684	0.1682	0.0604	-0.186
Mof_C 	C 	0.0424	0.1264	0.0714	0.058
Mof_C 	C 	0.0031	0.0759	0.9837	-0.007
Mof_C 	C 	0.0264	0.0834	0.0112	-0.063
Mof_H 	H 	0.0498	0.0704	0.0087	0.056
Mof_C 	C 	0.0166	0.1096	0.0426	-0.009
Mof_C 	C 	0.9822	0.1227	0.0438	-0
Mof_H 	H 	0.975	0.1402	0.0651	0
Mof_N 	N 	0.9555	0.1148	0.0188	-0.265
Mof_C 	C 	0.9684	0.0915	0.9868	-0.016
Mof_H 	H 	0.953	0.0868	0.9674	0.006
Mof_C 	C 	0.0631	0.2403	0.9982	-0.187
Mof_H 	H 	0.0636	0.1929	-0	0.103
Mof_H 	H 	0.0437	0.252	0.982	0.075
Mof_Zn	Zn	0.22649	0.92524	0.15565	1.163
Mof_Zn	Zn	0.09499	0.86133	0.97412	1.149
Mof_N 	N 	0.1764	0.8731	0.1488	-0.324
Mof_C 	C 	0.1517	0.852	0.1455	0.259
Mof_C 	C 	0.1163	0.8225	0.1376	-0.612
Mof_H 	H 	0.0981	0.8516	0.1453	0.186
Mof_H 	H 	0.1144	0.7814	0.1498	0.185
Mof_H 	H 	0.1134	0.8152	0.1127	0.183
Mof_C 	C 	0.6913	0.9705	0.4778	0.026
Mof_H 	H 	0.6901	0.9293	0.4882	0.016
Mof_C 	C 	0.6613	0.0066	0.4727	-0.121
Mof_H 	H 	0.6396	0.99	0.4795	0.067
Mof_C 	C 	0.6631	0.0669	0.4575	0.068
Mof_C 	C 	0.6949	0.0911	0.4475	0.044
Mof_C 	C 	0.7249	0.055	0.4527	0.069
Mof_C 	C 	0.7231	0.9947	0.4678	-0.12
Mof_H 	H 	0.7437	0.97	0.4714	0.066
Mof_O 	O 	0.6976	0.1558	0.4415	-0.181
Mof_C 	C 	0.7082	0.1924	0.4705	-0.002
Mof_H 	H 	0.7338	0.191	0.4737	0.029
Mof_H 	H 	0.6977	0.1751	0.4917	0.026
Mof_C 	C 	0.6956	0.2639	0.4639	0.004
Mof_C 	C 	0.718	0.314	0.456	-0.031
Mof_H 	H 	0.7422	0.3064	0.4545	0.039
Mof_C 	C 	0.705	0.3732	0.4505	-0.077
Mof_H 	H 	0.7196	0.4075	0.4438	0.05
Mof_C 	C 	0.6695	0.3831	0.4548	0.03
Mof_H 	H 	0.6602	0.4241	0.449	-0.021
Mof_N 	N 	0.6473	0.3379	0.4666	-0.259
Mof_C 	C 	0.6614	0.2759	0.4709	-0.008
Mof_H 	H 	0.6472	0.242	0.4786	0.006
Mof_C 	C 	0.7599	0.076	0.4407	-0.199
Mof_H 	H 	0.7777	0.0682	0.4592	0.083
Mof_H 	H 	0.7595	0.1225	0.4355	0.1
Mof_C 	C 	0.7954	0.9456	0.3831	0.016
Mof_H 	H 	0.809	0.9078	0.3855	0.024
Mof_C 	C 	0.7889	0.9832	0.4119	-0.112
Mof_H 	H 	0.798	0.971	0.434	0.064
Mof_C 	C 	0.769	0.0385	0.4083	0.055
Mof_C 	C 	0.7556	0.0564	0.376	0.052
Mof_C 	C 	0.7622	0.0188	0.3472	0.051
Mof_C 	C 	0.7821	0.9634	0.3508	-0.11
Mof_H 	H 	0.7866	0.9378	0.3311	0.058
Mof_O 	O 	0.7371	0.1103	0.372	-0.166
Mof_C 	C 	0.6904	0.2889	0.3704	-0.049
Mof_H 	H 	0.6662	0.2923	0.374	0.043
Mof_C 	C 	0.7057	0.2301	0.3694	-0.059
Mof_H 	H 	0.6923	0.192	0.3711	0.096
Mof_C 	C 	0.7397	0.2275	0.366	0.036
Mof_C 	C 	0.7591	0.2812	0.36	-0.021
Mof_H 	H 	0.7831	0.2768	0.3555	0.015
Mof_N 	N 	0.7444	0.3419	0.3605	-0.235
Mof_C 	C 	0.7102	0.3441	0.3661	0.026
Mof_H 	H 	0.6991	0.3847	0.3672	-0.021
Mof_C 	C 	0.7622	0.1625	0.3651	-0.034
Mof_H 	H 	0.7726	0.1567	0.3422	0.038
Mof_H 	H 	0.781	0.1634	0.3831	0.036
Mof_C 	C 	0.7464	0.0356	0.3115	-0.185
Mof_H 	H 	0.761	0.0162	0.2935	0.075
Mof_H 	H 	0.7472	0.0827	0.3084	0.101
Mof_C 	C 	0.6715	0.921	0.295	0.024
Mof_H 	H 	0.6689	0.8765	0.2903	0.014
Mof_C 	C 	0.7046	0.9474	0.2986	-0.113
Mof_H 	H 	0.7245	0.9209	0.2964	0.062
Mof_C 	C 	0.7085	0.0125	0.3055	0.063
Mof_C 	C 	0.6794	0.0512	0.3087	0.045
Mof_C 	C 	0.6464	0.0249	0.305	0.06
Mof_C 	C 	0.6425	0.9598	0.2982	-0.112
Mof_H 	H 	0.6199	0.9418	0.2956	0.062
Mof_O 	O 	0.6849	0.1162	0.3145	-0.168
Mof_C 	C 	0.6768	0.1544	0.2836	-0.026
Mof_H 	H 	0.6564	0.136	0.271	0.034
Mof_H 	H 	0.6711	0.199	0.2903	0.041
Mof_C 	C 	0.708	0.1545	0.2602	0.01
Mof_C 	C 	0.7388	0.1799	0.269	-0.051
Mof_H 	H 	0.7401	0.2064	0.289	0.052
Mof_C 	C 	0.7694	0.1708	0.2511	-0.058
Mof_H 	H 	0.7916	0.1847	0.2594	0.04
Mof_C 	C 	0.7635	0.1367	0.2174	0.004
Mof_H 	H 	0.7822	0.1325	0.2022	-0.007
Mof_N 	N 	0.7314	0.1112	0.2077	-0.236
Mof_C 	C 	0.7039	0.1179	0.2279	-0.001
Mof_H 	H 	0.6822	0.0993	0.2215	0.011
Mof_C 	C 	0.6147	0.0615	0.3146	-0.189
Mof_H 	H 	0.5954	0.0511	0.2982	0.075
Mof_H 	H 	0.6194	0.1081	0.313	0.095
Mof_C 	C 	0.5806	0.9706	0.3933	0.017
Mof_H 	H 	0.568	0.9326	0.3981	0.014
Mof_C 	C 	0.5855	0.9891	0.3593	-0.107
Mof_H 	H 	0.5763	0.9637	0.3408	0.058
Mof_C 	C 	0.604	0.0447	0.3522	0.048
Mof_C 	C 	0.6175	0.0818	0.3793	0.056
Mof_C 	C 	0.6126	0.0634	0.4133	0.055
Mof_C 	C 	0.5942	0.0078	0.4203	-0.108
Mof_H 	H 	0.5908	0.9952	0.4436	0.06
Mof_O 	O 	0.6307	0.1423	0.374	-0.174
Mof_C 	C 	0.6039	0.1918	0.3646	-0.026
Mof_H 	H 	0.6153	0.231	0.356	0.036
Mof_H 	H 	0.588	0.1752	0.3462	0.034
Mof_C 	C 	0.5852	0.2063	0.3942	-0
Mof_C 	C 	0.5564	0.1722	0.4043	-0.038
Mof_H 	H 	0.5467	0.1395	0.3899	0.04
Mof_C 	C 	0.5413	0.1873	0.4376	-0.084
Mof_H 	H 	0.5234	0.1616	0.4468	0.054
Mof_C 	C 	0.554	0.2399	0.455	0.041
Mof_H 	H 	0.5432	0.2509	0.4759	-0.018
Mof_N 	N 	0.5804	0.2774	0.4454	-0.259
Mof_C 	C 	0.5935	0.2607	0.4151	0.011
Mof_H 	H 	0.6105	0.2888	0.4063	-0.004
Mof_C 	C 	0.6307	0.0984	0.4461	-0.196
Mof_H 	H 	0.6356	0.1436	0.4401	0.109
Mof_H 	H 	0.6144	0.0985	0.4654	0.08
Mof_C 	C 	0.6298	0.8426	0.4524	0.021
Mof_H 	H 	0.6305	0.8812	0.4393	0.021
Mof_C 	C 	0.5984	0.8201	0.4643	-0.115
Mof_H 	H 	0.5776	0.8433	0.4593	0.06
Mof_C 	C 	0.5973	0.7637	0.4833	0.06
Mof_C 	C 	0.6277	0.7297	0.4905	0.038
Mof_C 	C 	0.6592	0.7522	0.4786	0.055
Mof_C 	C 	0.6602	0.8086	0.4595	-0.113
Mof_H 	H 	0.6817	0.824	0.4514	0.066
Mof_O 	O 	0.6262	0.6741	0.511	-0.159
Mof_C 	C 	0.6208	0.6176	0.4876	-0.036
Mof_H 	H 	0.5988	0.6226	0.474	0.036
Mof_H 	H 	0.64	0.6147	0.4712	0.037
Mof_C 	C 	0.6195	0.5616	0.5076	0.021
Mof_C 	C 	0.6233	0.5557	0.5421	-0.047
Mof_H 	H 	0.6274	0.5937	0.5551	0.093
Mof_C 	C 	0.6216	0.4991	0.5597	-0.058
Mof_H 	H 	0.624	0.4968	0.5842	0.047
Mof_C 	C 	0.6158	0.4436	0.5385	0.035
Mof_H 	H 	0.6149	0.4027	0.5493	-0.027
Mof_N 	N 	0.6116	0.4467	0.5043	-0.243
Mof_C 	C 	0.614	0.5042	0.49	0.002
Mof_H 	H 	0.6117	0.5065	0.4655	-0.013
Mof_C 	C 	0.6936	0.7158	0.4899	-0.189
Mof_H 	H 	0.6892	0.6692	0.4915	0.097
Mof_H 	H 	0.7116	0.7228	0.4725	0.081
Mof_C 	C 	0.7306	0.8271	0.5614	0.018
Mof_H 	H 	0.7404	0.8688	0.5635	0.02
Mof_C 	C 	0.7208	0.8034	0.529	-0.112
Mof_H 	H 	0.7239	0.8289	0.509	0.064
Mof_C 	C 	0.7065	0.7424	0.5259	0.058
Mof_C 	C 	0.7019	0.7051	0.5552	0.04
Mof_C 	C 	0.7117	0.7288	0.5876	0.053
Mof_C 	C 	0.726	0.7898	0.5907	-0.107
Mof_H 	H 	0.7327	0.8061	0.6129	0.063
Mof_O 	O 	0.6938	0.6373	0.5548	-0.168
Mof_C 	C 	0.7247	0.6007	0.5455	-0.031
Mof_H 	H 	0.7281	0.6024	0.5203	0.036
Mof_H 	H 	0.7457	0.6182	0.5575	0.035
Mof_C 	C 	0.7184	0.535	0.5566	0.02
Mof_C 	C 	0.707	0.4841	0.5331	-0.043
Mof_H 	H 	0.7027	0.494	0.5094	0.043
Mof_C 	C 	0.7025	0.4224	0.5443	-0.063
Mof_H 	H 	0.6952	0.3904	0.5282	0.045
Mof_C 	C 	0.7084	0.4059	0.5782	0.019
Mof_H 	H 	0.7056	0.3627	0.5854	0.001
Mof_N 	N 	0.7185	0.4524	0.602	-0.232
Mof_C 	C 	0.7232	0.5176	0.5922	-0.023
Mof_H 	H 	0.7295	0.5491	0.609	0.009
Mof_C 	C 	0.701	0.6933	0.6225	-0.182
Mof_H 	H 	0.6933	0.649	0.6173	0.106
Mof_H 	H 	0.7212	0.6912	0.6388	0.076
Mof_C 	C 	0.6468	0.8266	0.6664	0.016
Mof_H 	H 	0.6502	0.8661	0.6783	0.015
Mof_C 	C 	0.6753	0.7906	0.6566	-0.107
Mof_H 	H 	0.6981	0.8055	0.6617	0.059
Mof_C 	C 	0.6703	0.7327	0.6393	0.048
Mof_C 	C 	0.6368	0.7109	0.6318	0.055
Mof_C 	C 	0.6083	0.7469	0.6416	0.048
Mof_C 	C 	0.6134	0.8047	0.659	-0.105
Mof_H 	H 	0.5939	0.8293	0.6657	0.058
Mof_O 	O 	0.6291	0.6517	0.6169	-0.171
Mof_C 	C 	0.62	0.601	0.6425	-0.021
Mof_H 	H 	0.6015	0.6174	0.6574	0.034
Mof_H 	H 	0.6108	0.563	0.6299	0.038
Mof_C 	C 	0.6478	0.583	0.6627	-0.008
Mof_C 	C 	0.6629	0.6177	0.6952	-0.041
Mof_H 	H 	0.6518	0.6542	0.7046	0.04
Mof_C 	C 	0.6933	0.593	0.7098	-0.064
Mof_H 	H 	0.7029	0.6149	0.7294	0.043
Mof_C 	C 	0.7097	0.5433	0.6994	0.01
Mof_H 	H 	0.7311	0.532	0.7106	-0.011
Mof_N 	N 	0.6966	0.5042	0.6714	-0.251
Mof_C 	C 	0.6683	0.5238	0.6559	0.026
Mof_H 	H 	0.6595	0.4971	0.6378	0.003
Mof_C 	C 	0.5697	0.7307	0.631	-0.174
Mof_H 	H 	0.5671	0.6836	0.6291	0.09
Mof_H 	H 	0.5544	0.7456	0.6495	0.071
Mof_C 	C 	0.544	0.8624	0.5683	0.017
Mof_H 	H 	0.5381	0.9065	0.5697	0.015
Mof_C 	C 	0.5494	0.8268	0.5984	-0.104
Mof_H 	H 	0.5471	0.8466	0.6203	0.059
Mof_C 	C 	0.5581	0.7622	0.5963	0.048
Mof_C 	C 	0.5614	0.7332	0.5642	0.056
Mof_C 	C 	0.556	0.7688	0.5342	0.059
Mof_C 	C 	0.5473	0.8334	0.5362	-0.111
Mof_H 	H 	0.5436	0.8577	0.5157	0.061
Mof_O 	O 	0.5684	0.6682	0.5604	-0.186
Mof_C 	C 	0.5424	0.6264	0.5714	0.058
Mof_C 	C 	0.5031	0.5759	0.4837	-0.008
Mof_C 	C 	0.5264	0.5834	0.5112	-0.062
Mof_H 	H 	0.5498	0.5704	0.5087	0.056
Mof_C 	C 	0.5166	0.6096	0.5426	-0.01
Mof_C 	C 	0.4822	0.6227	0.5438	0
Mof_H 	H 	0.475	0.6402	0.5651	-0
Mof_N 	N 	0.4555	0.6148	0.5188	-0.264
Mof_C 	C 	0.4684	0.5915	0.4868	-0.016
Mof_H 	H 	0.453	0.5868	0.4674	0.006
Mof_C 	C 	0.5631	0.7403	0.4982	-0.189
Mof_H 	H 	0.5636	0.6929	0.5	0.104
Mof_H 	H 	0.5437	0.752	0.482	0.076
Mof_Zn	Zn	0.72649	0.42524	0.65565	1.163
Mof_Zn	Zn	0.59499	0.36133	0.47412	1.149
Mof_N 	N 	0.6764	0.3731	0.6488	-0.324
Mof_C 	C 	0.6517	0.352	0.6455	0.259
Mof_C 	C 	0.6163	0.3225	0.6376	-0.612
Mof_H 	H 	0.5981	0.3516	0.6453	0.187
Mof_H 	H 	0.6144	0.2814	0.6498	0.185
Mof_H 	H 	0.6134	0.3152	0.6127	0.183
Mof_C 	C 	0.6913	0.5295	0.9778	0.026
Mof_H 	H 	0.6901	0.5707	0.9882	0.016
Mof_C 	C 	0.6613	0.4934	0.9727	-0.12
Mof_H 	H 	0.6396	0.51	0.9795	0.067
Mof_C 	C 	0.6631	0.4331	0.9575	0.067
Mof_C 	C 	0.6949	0.4089	0.9475	0.044
Mof_C 	C 	0.7249	0.445	0.9527	0.069
Mof_C 	C 	0.7231	0.5053	0.9678	-0.12
Mof_H 	H 	0.7437	0.53	0.9714	0.066
Mof_O 	O 	0.6976	0.3442	0.9415	-0.181
Mof_C 	C 	0.7082	0.3076	0.9705	-0.002
Mof_H 	H 	0.7338	0.309	0.9737	0.029
Mof_H 	H 	0.6977	0.3249	0.9917	0.026
Mof_C 	C 	0.6956	0.2361	0.9639	0.005
Mof_C 	C 	0.718	0.186	0.956	-0.031
Mof_H 	H 	0.7422	0.1936	0.9545	0.039
Mof_C 	C 	0.705	0.1268	0.9505	-0.077
Mof_H 	H 	0.7196	0.0925	0.9438	0.05
Mof_C 	C 	0.6695	0.1169	0.9548	0.03
Mof_H 	H 	0.6602	0.0759	0.949	-0.021
Mof_N 	N 	0.6473	0.1621	0.9666	-0.259
Mof_C 	C 	0.6614	0.2241	0.9709	-0.008
Mof_H 	H 	0.6472	0.258	0.9786	0.006
Mof_C 	C 	0.7599	0.424	0.9407	-0.199
Mof_H 	H 	0.7777	0.4318	0.9592	0.083
Mof_H 	H 	0.7595	0.3775	0.9355	0.1
Mof_C 	C 	0.7954	0.5544	0.8831	0.017
Mof_H 	H 	0.809	0.5922	0.8855	0.024
Mof_C 	C 	0.7889	0.5168	0.9119	-0.113
Mof_H 	H 	0.798	0.529	0.934	0.064
Mof_C 	C 	0.769	0.4615	0.9083	0.056
Mof_C 	C 	0.7556	0.4436	0.876	0.052
Mof_C 	C 	0.7622	0.4812	0.8472	0.052
Mof_C 	C 	0.7821	0.5366	0.8508	-0.11
Mof_H 	H 	0.7866	0.5622	0.8311	0.058
Mof_O 	O 	0.7371	0.3897	0.872	-0.166
Mof_C 	C 	0.6904	0.2111	0.8704	-0.049
Mof_H 	H 	0.6662	0.2077	0.874	0.043
Mof_C 	C 	0.7057	0.2699	0.8694	-0.059
Mof_H 	H 	0.6923	0.308	0.8711	0.096
Mof_C 	C 	0.7397	0.2725	0.866	0.036
Mof_C 	C 	0.7591	0.2188	0.86	-0.021
Mof_H 	H 	0.7831	0.2232	0.8555	0.015
Mof_N 	N 	0.7444	0.1581	0.8605	-0.235
Mof_C 	C 	0.7102	0.1559	0.8661	0.026
Mof_H 	H 	0.6991	0.1153	0.8672	-0.021
Mof_C 	C 	0.7622	0.3375	0.8651	-0.034
Mof_H 	H 	0.7726	0.3433	0.8422	0.038
Mof_H 	H 	0.781	0.3366	0.8831	0.036
Mof_C 	C 	0.7464	0.4644	0.8115	-0.185
Mof_H 	H 	0.761	0.4838	0.7935	0.075
Mof_H 	H 	0.7472	0.4173	0.8084	0.101
Mof_C 	C 	0.6715	0.579	0.795	0.025
Mof_H 	H 	0.6689	0.6235	0.7903	0.014
Mof_C 	C 	0.7046	0.5526	0.7986	-0.113
Mof_H 	H 	0.7245	0.5791	0.7964	0.062
Mof_C 	C 	0.7085	0.4875	0.8055	0.063
Mof_C 	C 	0.6794	0.4488	0.8087	0.045
Mof_C 	C 	0.6464	0.4751	0.805	0.06
Mof_C 	C 	0.6425	0.5402	0.7982	-0.112
Mof_H 	H 	0.6199	0.5582	0.7956	0.062
Mof_O 	O 	0.6849	0.3838	0.8145	-0.168
Mof_C 	C 	0.6768	0.3456	0.7836	-0.026
Mof_H 	H 	0.6564	0.364	0.771	0.034
Mof_H 	H 	0.6711	0.301	0.7903	0.041
Mof_C 	C 	0.708	0.3455	0.7602	0.01
Mof_C 	C 	0.7388	0.3201	0.769	-0.051
Mof_H 	H 	0.7401	0.2936	0.789	0.052
Mof_C 	C 	0.7694	0.3292	0.7511	-0.058
Mof_H 	H 	0.7916	0.3153	0.7594	0.04
Mof_C 	C 	0.7635	0.3633	0.7174	0.004
Mof_H 	H 	0.7822	0.3675	0.7022	-0.007
Mof_N 	N 	0.7314	0.3888	0.7077	-0.236
Mof_C 	C 	0.7039	0.3821	0.7279	-0.001
Mof_H 	H 	0.6822	0.4007	0.7215	0.011
Mof_C 	C 	0.6147	0.4385	0.8146	-0.189
Mof_H 	H 	0.5954	0.4489	0.7982	0.075
Mof_H 	H 	0.6194	0.3919	0.813	0.095
Mof_C 	C 	0.5806	0.5294	0.8933	0.017
Mof_H 	H 	0.568	0.5674	0.8981	0.014
Mof_C 	C 	0.5855	0.5109	0.8593	-0.107
Mof_H 	H 	0.5763	0.5363	0.8408	0.058
Mof_C 	C 	0.604	0.4553	0.8522	0.048
Mof_C 	C 	0.6175	0.4182	0.8793	0.056
Mof_C 	C 	0.6126	0.4366	0.9133	0.055
Mof_C 	C 	0.5942	0.4922	0.9203	-0.108
Mof_H 	H 	0.5908	0.5048	0.9436	0.06
Mof_O 	O 	0.6307	0.3577	0.874	-0.174
Mof_C 	C 	0.6039	0.3082	0.8646	-0.026
Mof_H 	H 	0.6153	0.269	0.856	0.036
Mof_H 	H 	0.588	0.3248	0.8462	0.034
Mof_C 	C 	0.5852	0.2937	0.8942	-0
Mof_C 	C 	0.5564	0.3278	0.9043	-0.038
Mof_H 	H 	0.5467	0.3605	0.8899	0.04
Mof_C 	C 	0.5413	0.3127	0.9376	-0.084
Mof_H 	H 	0.5234	0.3384	0.9468	0.054
Mof_C 	C 	0.554	0.2601	0.955	0.041
Mof_H 	H 	0.5432	0.2491	0.9759	-0.018
Mof_N 	N 	0.5804	0.2226	0.9454	-0.259
Mof_C 	C 	0.5935	0.2393	0.9151	0.011
Mof_H 	H 	0.6105	0.2112	0.9063	-0.004
Mof_C 	C 	0.6307	0.4016	0.9461	-0.196
Mof_H 	H 	0.6356	0.3564	0.9401	0.109
Mof_H 	H 	0.6144	0.4015	0.9654	0.08
Mof_C 	C 	0.6298	0.6574	0.9524	0.02
Mof_H 	H 	0.6305	0.6188	0.9393	0.022
Mof_C 	C 	0.5984	0.6799	0.9643	-0.114
Mof_H 	H 	0.5776	0.6567	0.9593	0.06
Mof_C 	C 	0.5973	0.7363	0.9833	0.058
Mof_C 	C 	0.6277	0.7703	0.9905	0.039
Mof_C 	C 	0.6592	0.7478	0.9786	0.054
Mof_C 	C 	0.6602	0.6914	0.9595	-0.112
Mof_H 	H 	0.6817	0.676	0.9514	0.066
Mof_O 	O 	0.6262	0.8259	0.011	-0.16
Mof_C 	C 	0.6208	0.8824	0.9876	-0.032
Mof_H 	H 	0.5988	0.8774	0.974	0.036
Mof_H 	H 	0.64	0.8853	0.9712	0.037
Mof_C 	C 	0.6195	0.9384	0.0076	0.017
Mof_C 	C 	0.6233	0.9443	0.0421	-0.045
Mof_H 	H 	0.6274	0.9063	0.0551	0.092
Mof_C 	C 	0.6216	0.0009	0.0597	-0.06
Mof_H 	H 	0.624	0.0032	0.0842	0.048
Mof_C 	C 	0.6158	0.0564	0.0385	0.035
Mof_H 	H 	0.6149	0.0973	0.0493	-0.027
Mof_N 	N 	0.6116	0.0533	0.0043	-0.244
Mof_C 	C 	0.614	0.9958	0.99	0.005
Mof_H 	H 	0.6117	0.9935	0.9655	-0.013
Mof_C 	C 	0.6936	0.7842	0.9899	-0.188
Mof_H 	H 	0.6892	0.8308	0.9915	0.097
Mof_H 	H 	0.7116	0.7772	0.9725	0.081
Mof_C 	C 	0.7306	0.6729	0.0614	0.017
Mof_H 	H 	0.7404	0.6312	0.0635	0.02
Mof_C 	C 	0.7208	0.6966	0.029	-0.112
Mof_H 	H 	0.7239	0.6711	0.009	0.063
Mof_C 	C 	0.7065	0.7576	0.0259	0.057
Mof_C 	C 	0.7019	0.7949	0.0552	0.04
Mof_C 	C 	0.7117	0.7712	0.0876	0.053
Mof_C 	C 	0.726	0.7102	0.0907	-0.107
Mof_H 	H 	0.7327	0.6939	0.1129	0.063
Mof_O 	O 	0.6938	0.8627	0.0548	-0.168
Mof_C 	C 	0.7247	0.8993	0.0455	-0.031
Mof_H 	H 	0.7281	0.8976	0.0203	0.036
Mof_H 	H 	0.7457	0.8818	0.0575	0.035
Mof_C 	C 	0.7184	0.965	0.0566	0.02
Mof_C 	C 	0.707	0.0159	0.0331	-0.043
Mof_H 	H 	0.7027	0.006	0.0094	0.043
Mof_C 	C 	0.7025	0.0776	0.0443	-0.063
Mof_H 	H 	0.6952	0.1096	0.0282	0.044
Mof_C 	C 	0.7084	0.0941	0.0782	0.019
Mof_H 	H 	0.7056	0.1373	0.0854	0.001
Mof_N 	N 	0.7185	0.0476	0.102	-0.232
Mof_C 	C 	0.7232	0.9824	0.0922	-0.023
Mof_H 	H 	0.7295	0.9509	0.109	0.009
Mof_C 	C 	0.701	0.8067	0.1225	-0.182
Mof_H 	H 	0.6933	0.851	0.1173	0.106
Mof_H 	H 	0.7212	0.8088	0.1388	0.076
Mof_C 	C 	0.6468	0.6734	0.1664	0.016
Mof_H 	H 	0.6502	0.6339	0.1783	0.015
Mof_C 	C 	0.6753	0.7094	0.1566	-0.107
Mof_H 	H 	0.6981	0.6945	0.1617	0.059
Mof_C 	C 	0.6703	0.7673	0.1393	0.048
Mof_C 	C 	0.6368	0.7891	0.1318	0.055
Mof_C 	C 	0.6083	0.7531	0.1416	0.048
Mof_C 	C 	0.6134	0.6953	0.159	-0.105
Mof_H 	H 	0.5939	0.6707	0.1657	0.058
Mof_O 	O 	0.6291	0.8483	0.1169	-0.171
Mof_C 	C 	0.62	0.899	0.1425	-0.021
Mof_H 	H 	0.6015	0.8826	0.1574	0.034
Mof_H 	H 	0.6108	0.937	0.1299	0.038
Mof_C 	C 	0.6478	0.917	0.1627	-0.008
Mof_C 	C 	0.6629	0.8823	0.1952	-0.041
Mof_H 	H 	0.6518	0.8458	0.2046	0.04
Mof_C 	C 	0.6933	0.907	0.2098	-0.064
Mof_H 	H 	0.7029	0.8851	0.2294	0.043
Mof_C 	C 	0.7097	0.9567	0.1994	0.01
Mof_H 	H 	0.7311	0.968	0.2106	-0.011
Mof_N 	N 	0.6966	0.9958	0.1714	-0.251
Mof_C 	C 	0.6683	0.9762	0.1559	0.026
Mof_H 	H 	0.6595	0.0029	0.1378	0.003
Mof_C 	C 	0.5697	0.7693	0.131	-0.174
Mof_H 	H 	0.5671	0.8164	0.1291	0.09
Mof_H 	H 	0.5544	0.7544	0.1495	0.071
Mof_C 	C 	0.544	0.6376	0.0683	0.017
Mof_H 	H 	0.5381	0.5935	0.0697	0.015
Mof_C 	C 	0.5494	0.6732	0.0984	-0.104
Mof_H 	H 	0.5471	0.6534	0.1203	0.059
Mof_C 	C 	0.5581	0.7378	0.0963	0.048
Mof_C 	C 	0.5614	0.7668	0.0642	0.057
Mof_C 	C 	0.556	0.7312	0.0342	0.057
Mof_C 	C 	0.5473	0.6666	0.0362	-0.11
Mof_H 	H 	0.5436	0.6423	0.0157	0.061
Mof_O 	O 	0.5684	0.8318	0.0604	-0.186
Mof_C 	C 	0.5424	0.8736	0.0714	0.058
Mof_C 	C 	0.5031	0.9241	0.9837	-0.007
Mof_C 	C 	0.5264	0.9166	0.0112	-0.063
Mof_H 	H 	0.5498	0.9296	0.0087	0.056
Mof_C 	C 	0.5166	0.8904	0.0426	-0.01
Mof_C 	C 	0.4822	0.8773	0.0438	-0
Mof_H 	H 	0.475	0.8598	0.0651	0
Mof_N 	N 	0.4555	0.8852	0.0188	-0.265
Mof_C 	C 	0.4684	0.9085	0.9868	-0.016
Mof_H 	H 	0.453	0.9132	0.9674	0.006
Mof_C 	C 	0.5631	0.7597	0.9982	-0.187
Mof_H 	H 	0.5636	0.8071	-0	0.103
Mof_H 	H 	0.5437	0.748	0.982	0.075
Mof_Zn	Zn	0.72649	0.07476	0.15565	1.163
Mof_Zn	Zn	0.59499	0.13867	0.97412	1.149
Mof_N 	N 	0.6764	0.1269	0.1488	-0.324
Mof_C 	C 	0.6517	0.148	0.1455	0.259
Mof_C 	C 	0.6163	0.1775	0.1376	-0.612
Mof_H 	H 	0.5981	0.1484	0.1453	0.186
Mof_H 	H 	0.6144	0.2186	0.1498	0.185
Mof_H 	H 	0.6134	0.1848	0.1127	0.183
Mof_C 	C 	0.1913	0.0295	0.4778	0.027
Mof_H 	H 	0.1901	0.0707	0.4882	0.016
Mof_C 	C 	0.1613	0.9934	0.4727	-0.121
Mof_H 	H 	0.1396	0.01	0.4795	0.067
Mof_C 	C 	0.1631	0.9331	0.4575	0.068
Mof_C 	C 	0.1949	0.9089	0.4475	0.044
Mof_C 	C 	0.2249	0.945	0.4527	0.069
Mof_C 	C 	0.2231	0.0053	0.4678	-0.12
Mof_H 	H 	0.2437	0.03	0.4714	0.066
Mof_O 	O 	0.1976	0.8442	0.4415	-0.181
Mof_C 	C 	0.2082	0.8076	0.4705	-0.002
Mof_H 	H 	0.2338	0.809	0.4737	0.029
Mof_H 	H 	0.1977	0.8249	0.4917	0.026
Mof_C 	C 	0.1956	0.7361	0.4639	0.004
Mof_C 	C 	0.218	0.686	0.456	-0.031
Mof_H 	H 	0.2422	0.6936	0.4545	0.039
Mof_C 	C 	0.205	0.6268	0.4505	-0.077
Mof_H 	H 	0.2196	0.5925	0.4438	0.05
Mof_C 	C 	0.1695	0.6169	0.4548	0.03
Mof_H 	H 	0.1602	0.5759	0.449	-0.021
Mof_N 	N 	0.1473	0.6621	0.4666	-0.259
Mof_C 	C 	0.1614	0.7241	0.4709	-0.008
Mof_H 	H 	0.1472	0.758	0.4786	0.006
Mof_C 	C 	0.2599	0.924	0.4407	-0.199
Mof_H 	H 	0.2777	0.9318	0.4592	0.083
Mof_H 	H 	0.2595	0.8775	0.4355	0.1
Mof_C 	C 	0.2954	0.0544	0.3831	0.016
Mof_H 	H 	0.309	0.0922	0.3855	0.024
Mof_C 	C 	0.2889	0.0168	0.4119	-0.112
Mof_H 	H 	0.298	0.029	0.434	0.064
Mof_C 	C 	0.269	0.9615	0.4083	0.055
Mof_C 	C 	0.2556	0.9436	0.376	0.052
Mof_C 	C 	0.2622	0.9812	0.3472	0.051
Mof_C 	C 	0.2821	0.0366	0.3508	-0.11
Mof_H 	H 	0.2866	0.0622	0.3311	0.058
Mof_O 	O 	0.2371	0.8897	0.372	-0.166
Mof_C 	C 	0.1904	0.7111	0.3704	-0.049
Mof_H 	H 	0.1662	0.7077	0.374	0.043
Mof_C 	C 	0.2057	0.7699	0.3694	-0.059
Mof_H 	H 	0.1923	0.808	0.3711	0.096
Mof_C 	C 	0.2397	0.7725	0.366	0.036
Mof_C 	C 	0.2591	0.7188	0.36	-0.021
Mof_H 	H 	0.2831	0.7232	0.3555	0.015
Mof_N 	N 	0.2444	0.6581	0.3605	-0.235
Mof_C 	C 	0.2102	0.6559	0.3661	0.026
Mof_H 	H 	0.1991	0.6153	0.3672	-0.021
Mof_C 	C 	0.2622	0.8375	0.3651	-0.034
Mof_H 	H 	0.2726	0.8433	0.3422	0.038
Mof_H 	H 	0.281	0.8366	0.3831	0.036
Mof_C 	C 	0.2464	0.9644	0.3115	-0.185
Mof_H 	H 	0.261	0.9838	0.2935	0.075
Mof_H 	H 	0.2472	0.9173	0.3084	0.101
Mof_C 	C 	0.1715	0.079	0.295	0.024
Mof_H 	H 	0.1689	0.1235	0.2903	0.014
Mof_C 	C 	0.2046	0.0526	0.2986	-0.113
Mof_H 	H 	0.2245	0.0791	0.2964	0.062
Mof_C 	C 	0.2085	0.9875	0.3055	0.063
Mof_C 	C 	0.1794	0.9488	0.3087	0.045
Mof_C 	C 	0.1464	0.9751	0.305	0.059
Mof_C 	C 	0.1425	0.0402	0.2982	-0.112
Mof_H 	H 	0.1199	0.0582	0.2956	0.062
Mof_O 	O 	0.1849	0.8838	0.3145	-0.168
Mof_C 	C 	0.1768	0.8456	0.2836	-0.026
Mof_H 	H 	0.1564	0.864	0.271	0.034
Mof_H 	H 	0.1711	0.801	0.2903	0.041
Mof_C 	C 	0.208	0.8455	0.2602	0.01
Mof_C 	C 	0.2388	0.8201	0.269	-0.051
Mof_H 	H 	0.2401	0.7936	0.289	0.052
Mof_C 	C 	0.2694	0.8292	0.2511	-0.058
Mof_H 	H 	0.2916	0.8153	0.2594	0.04
Mof_C 	C 	0.2635	0.8633	0.2174	0.004
Mof_H 	H 	0.2822	0.8675	0.2022	-0.007
Mof_N 	N 	0.2314	0.8888	0.2077	-0.236
Mof_C 	C 	0.2039	0.8821	0.2279	-0.001
Mof_H 	H 	0.1822	0.9007	0.2215	0.011
Mof_C 	C 	0.1147	0.9385	0.3146	-0.189
Mof_H 	H 	0.0954	0.9489	0.2982	0.075
Mof_H 	H 	0.1194	0.8919	0.313	0.095
Mof_C 	C 	0.0806	0.0294	0.3933	0.018
Mof_H 	H 	0.068	0.0674	0.3981	0.014
Mof_C 	C 	0.0855	0.0109	0.3593	-0.107
Mof_H 	H 	0.0763	0.0363	0.3408	0.058
Mof_C 	C 	0.104	0.9553	0.3522	0.048
Mof_C 	C 	0.1175	0.9182	0.3793	0.055
Mof_C 	C 	0.1126	0.9366	0.4133	0.055
Mof_C 	C 	0.0942	0.9922	0.4203	-0.108
Mof_H 	H 	0.0908	0.0048	0.4436	0.06
Mof_O 	O 	0.1307	0.8577	0.374	-0.174
Mof_C 	C 	0.1039	0.8082	0.3646	-0.026
Mof_H 	H 	0.1153	0.769	0.356	0.036
Mof_H 	H 	0.088	0.8248	0.3462	0.034
Mof_C 	C 	0.0852	0.7937	0.3942	-0
Mof_C 	C 	0.0564	0.8278	0.4043	-0.038
Mof_H 	H 	0.0467	0.8605	0.3899	0.04
Mof_C 	C 	0.0413	0.8127	0.4376	-0.084
Mof_H 	H 	0.0234	0.8384	0.4468	0.054
Mof_C 	C 	0.054	0.7601	0.455	0.041
Mof_H 	H 	0.0432	0.7491	0.4759	-0.018
Mof_N 	N 	0.0804	0.7226	0.4454	-0.259
Mof_C 	C 	0.0935	0.7393	0.4151	0.011
Mof_H 	H 	0.1105	0.7112	0.4063	-0.004
Mof_C 	C 	0.1307	0.9016	0.4461	-0.197
Mof_H 	H 	0.1356	0.8564	0.4401	0.109
Mof_H 	H 	0.1144	0.9015	0.4654	0.08
Mof_C 	C 	0.1298	0.1574	0.4524	0.021
Mof_H 	H 	0.1305	0.1188	0.4393	0.021
Mof_C 	C 	0.0984	0.1799	0.4643	-0.115
Mof_H 	H 	0.0776	0.1567	0.4593	0.06
Mof_C 	C 	0.0973	0.2363	0.4833	0.06
Mof_C 	C 	0.1277	0.2703	0.4905	0.038
Mof_C 	C 	0.1592	0.2478	0.4786	0.055
Mof_C 	C 	0.1602	0.1914	0.4595	-0.113
Mof_H 	H 	0.1817	0.176	0.4514	0.066
Mof_O 	O 	0.1262	0.3259	0.511	-0.159
Mof_C 	C 	0.1208	0.3824	0.4876	-0.036
Mof_H 	H 	0.0988	0.3774	0.474	0.036
Mof_H 	H 	0.14	0.3853	0.4712	0.037
Mof_C 	C 	0.1195	0.4384	0.5076	0.021
Mof_C 	C 	0.1233	0.4443	0.5421	-0.047
Mof_H 	H 	0.1274	0.4063	0.5551	0.093
Mof_C 	C 	0.1216	0.5009	0.5597	-0.058
Mof_H 	H 	0.124	0.5032	0.5842	0.047
Mof_C 	C 	0.1158	0.5564	0.5385	0.035
Mof_H 	H 	0.1149	0.5973	0.5493	-0.027
Mof_N 	N 	0.1116	0.5533	0.5043	-0.243
Mof_C 	C 	0.114	0.4958	0.49	0.002
Mof_H 	H 	0.1117	0.4935	0.4655	-0.013
Mof_C 	C 	0.1936	0.2842	0.4899	-0.189
Mof_H 	H 	0.1892	0.3308	0.4915	0.097
Mof_H 	H 	0.2116	0.2772	0.4725	0.081
Mof_C 	C 	0.2306	0.1729	0.5614	0.018
Mof_H 	H 	0.2404	0.1312	0.5635	0.02
Mof_C 	C 	0.2208	0.1966	0.529	-0.112
Mof_H 	H 	0.2239	0.1711	0.509	0.064
Mof_C 	C 	0.2065	0.2576	0.5259	0.058
Mof_C 	C 	0.2019	0.2949	0.5552	0.04
Mof_C 	C 	0.2117	0.2712	0.5876	0.053
Mof_C 	C 	0.226	0.2102	0.5907	-0.107
Mof_H 	H 	0.2327	0.1939	0.6129	0.063
Mof_O 	O 	0.1938	0.3627	0.5548	-0.168
Mof_C 	C 	0.2247	0.3993	0.5455	-0.031
Mof_H 	H 	0.2281	0.3976	0.5203	0.036
Mof_H 	H 	0.2457	0.3818	0.5575	0.035
Mof_C 	C 	0.2184	0.465	0.5566	0.02
Mof_C 	C 	0.207	0.5159	0.5331	-0.043
Mof_H 	H 	0.2027	0.506	0.5094	0.043
Mof_C 	C 	0.2025	0.5776	0.5443	-0.063
Mof_H 	H 	0.1952	0.6096	0.5282	0.045
Mof_C 	C 	0.2084	0.5941	0.5782	0.019
Mof_H 	H 	0.2056	0.6373	0.5854	0.001
Mof_N 	N 	0.2185	0.5476	0.602	-0.232
Mof_C 	C 	0.2232	0.4824	0.5922	-0.023
Mof_H 	H 	0.2295	0.4509	0.609	0.009
Mof_C 	C 	0.201	0.3067	0.6225	-0.182
Mof_H 	H 	0.1933	0.351	0.6173	0.106
Mof_H 	H 	0.2212	0.3088	0.6388	0.076
Mof_C 	C 	0.1468	0.1734	0.6664	0.016
Mof_H 	H 	0.1502	0.1339	0.6783	0.015
Mof_C 	C 	0.1753	0.2094	0.6566	-0.107
Mof_H 	H 	0.1981	0.1945	0.6617	0.059
Mof_C 	C 	0.1703	0.2673	0.6393	0.048
Mof_C 	C 	0.1368	0.2891	0.6318	0.055
Mof_C 	C 	0.1083	0.2531	0.6416	0.048
Mof_C 	C 	0.1134	0.1953	0.659	-0.105
Mof_H 	H 	0.0939	0.1707	0.6657	0.058
Mof_O 	O 	0.1291	0.3483	0.6169	-0.171
Mof_C 	C 	0.12	0.399	0.6425	-0.021
Mof_H 	H 	0.1015	0.3826	0.6574	0.034
Mof_H 	H 	0.1108	0.437	0.6299	0.038
Mof_C 	C 	0.1478	0.417	0.6627	-0.008
Mof_C 	C 	0.1629	0.3823	0.6952	-0.041
Mof_H 	H 	0.1518	0.3458	0.7046	0.04
Mof_C 	C 	0.1933	0.407	0.7098	-0.064
Mof_H 	H 	0.2029	0.3851	0.7294	0.043
Mof_C 	C 	0.2097	0.4567	0.6994	0.01
Mof_H 	H 	0.2311	0.468	0.7106	-0.011
Mof_N 	N 	0.1966	0.4958	0.6714	-0.251
Mof_C 	C 	0.1683	0.4762	0.6559	0.026
Mof_H 	H 	0.1595	0.5029	0.6378	0.003
Mof_C 	C 	0.0697	0.2693	0.631	-0.174
Mof_H 	H 	0.0671	0.3164	0.6291	0.09
Mof_H 	H 	0.0544	0.2544	0.6495	0.071
Mof_C 	C 	0.044	0.1376	0.5683	0.017
Mof_H 	H 	0.0381	0.0935	0.5697	0.015
Mof_C 	C 	0.0494	0.1732	0.5984	-0.104
Mof_H 	H 	0.0471	0.1534	0.6203	0.059
Mof_C 	C 	0.0581	0.2378	0.5963	0.048
Mof_C 	C 	0.0614	0.2668	0.5642	0.056
Mof_C 	C 	0.056	0.2312	0.5342	0.059
Mof_C 	C 	0.0473	0.1666	0.5362	-0.111
Mof_H 	H 	0.0436	0.1423	0.5157	0.061
Mof_O 	O 	0.0684	0.3318	0.5604	-0.186
Mof_C 	C 	0.0424	0.3736	0.5714	0.058
Mof_C 	C 	0.0031	0.4241	0.4837	-0.008
Mof_C 	C 	0.0264	0.4166	0.5112	-0.062
Mof_H 	H 	0.0498	0.4296	0.5087	0.056
Mof_C 	C 	0.0166	0.3904	0.5426	-0.01
Mof_C 	C 	0.9822	0.3773	0.5438	0
Mof_H 	H 	0.975	0.3598	0.5651	-0
Mof_N 	N 	0.9555	0.3852	0.5188	-0.264
Mof_C 	C 	0.9684	0.4085	0.4868	-0.016
Mof_H 	H 	0.953	0.4132	0.4674	0.006
Mof_C 	C 	0.0631	0.2597	0.4982	-0.189
Mof_H 	H 	0.0636	0.3071	0.5	0.104
Mof_H 	H 	0.0437	0.248	0.482	0.076
Mof_Zn	Zn	0.22649	0.57476	0.65565	1.163
Mof_Zn	Zn	0.09499	0.63867	0.47412	1.149
Mof_N 	N 	0.1764	0.6269	0.6488	-0.324
Mof_C 	C 	0.1517	0.648	0.6455	0.259
Mof_C 	C 	0.1163	0.6775	0.6376	-0.612
Mof_H 	H 	0.0981	0.6484	0.6453	0.186
Mof_H 	H 	0.1144	0.7186	0.6498	0.185
Mof_H 	H 	0.1134	0.6848	0.6127	0.183
Mof_C 	C 	0.8087	0.5295	0.0222	0.026
Mof_H 	H 	0.8099	0.5707	0.0118	0.016
Mof_C 	C 	0.8387	0.4934	0.0273	-0.12
Mof_H 	H 	0.8604	0.51	0.0205	0.066
Mof_C 	C 	0.8369	0.4331	0.0425	0.067
Mof_C 	C 	0.8051	0.4089	0.0525	0.044
Mof_C 	C 	0.7751	0.445	0.0473	0.069
Mof_C 	C 	0.7769	0.5053	0.0322	-0.12
Mof_H 	H 	0.7563	0.53	0.0286	0.066
Mof_O 	O 	0.8024	0.3442	0.0585	-0.181
Mof_C 	C 	0.7918	0.3076	0.0295	-0.002
Mof_H 	H 	0.7662	0.309	0.0263	0.028
Mof_H 	H 	0.8023	0.3249	0.0083	0.026
Mof_C 	C 	0.8044	0.2361	0.0361	0.004
Mof_C 	C 	0.782	0.186	0.044	-0.031
Mof_H 	H 	0.7578	0.1936	0.0455	0.039
Mof_C 	C 	0.795	0.1268	0.0495	-0.077
Mof_H 	H 	0.7804	0.0925	0.0562	0.049
Mof_C 	C 	0.8305	0.1169	0.0452	0.03
Mof_H 	H 	0.8398	0.0759	0.051	-0.021
Mof_N 	N 	0.8527	0.1621	0.0334	-0.259
Mof_C 	C 	0.8386	0.2241	0.0291	-0.008
Mof_H 	H 	0.8528	0.258	0.0214	0.006
Mof_C 	C 	0.7401	0.424	0.0593	-0.199
Mof_H 	H 	0.7223	0.4318	0.0408	0.083
Mof_H 	H 	0.7405	0.3775	0.0645	0.1
Mof_C 	C 	0.7046	0.5544	0.1169	0.017
Mof_H 	H 	0.691	0.5922	0.1145	0.024
Mof_C 	C 	0.7111	0.5168	0.0881	-0.112
Mof_H 	H 	0.702	0.529	0.066	0.064
Mof_C 	C 	0.731	0.4615	0.0917	0.055
Mof_C 	C 	0.7444	0.4436	0.124	0.052
Mof_C 	C 	0.7378	0.4812	0.1528	0.052
Mof_C 	C 	0.7179	0.5366	0.1492	-0.11
Mof_H 	H 	0.7134	0.5622	0.1689	0.058
Mof_O 	O 	0.7629	0.3897	0.128	-0.166
Mof_C 	C 	0.8096	0.2111	0.1296	-0.049
Mof_H 	H 	0.8338	0.2077	0.126	0.043
Mof_C 	C 	0.7943	0.2699	0.1306	-0.059
Mof_H 	H 	0.8077	0.308	0.1289	0.096
Mof_C 	C 	0.7603	0.2725	0.134	0.036
Mof_C 	C 	0.7409	0.2188	0.14	-0.021
Mof_H 	H 	0.7169	0.2232	0.1445	0.015
Mof_N 	N 	0.7556	0.1581	0.1395	-0.235
Mof_C 	C 	0.7898	0.1559	0.1339	0.026
Mof_H 	H 	0.8009	0.1153	0.1328	-0.021
Mof_C 	C 	0.7378	0.3375	0.1349	-0.034
Mof_H 	H 	0.7274	0.3433	0.1578	0.038
Mof_H 	H 	0.719	0.3366	0.1169	0.036
Mof_C 	C 	0.7536	0.4644	0.1885	-0.185
Mof_H 	H 	0.739	0.4838	0.2065	0.075
Mof_H 	H 	0.7528	0.4173	0.1916	0.101
Mof_C 	C 	0.8285	0.579	0.205	0.024
Mof_H 	H 	0.8311	0.6235	0.2097	0.014
Mof_C 	C 	0.7954	0.5526	0.2014	-0.113
Mof_H 	H 	0.7755	0.5791	0.2036	0.062
Mof_C 	C 	0.7915	0.4875	0.1945	0.063
Mof_C 	C 	0.8206	0.4488	0.1913	0.045
Mof_C 	C 	0.8536	0.4751	0.195	0.06
Mof_C 	C 	0.8575	0.5402	0.2018	-0.112
Mof_H 	H 	0.8801	0.5582	0.2044	0.062
Mof_O 	O 	0.8151	0.3838	0.1855	-0.168
Mof_C 	C 	0.8232	0.3456	0.2164	-0.026
Mof_H 	H 	0.8436	0.364	0.229	0.034
Mof_H 	H 	0.8289	0.301	0.2097	0.041
Mof_C 	C 	0.792	0.3455	0.2398	0.01
Mof_C 	C 	0.7612	0.3201	0.231	-0.051
Mof_H 	H 	0.7599	0.2936	0.211	0.052
Mof_C 	C 	0.7306	0.3292	0.2489	-0.058
Mof_H 	H 	0.7084	0.3153	0.2406	0.04
Mof_C 	C 	0.7365	0.3633	0.2826	0.004
Mof_H 	H 	0.7178	0.3675	0.2978	-0.007
Mof_N 	N 	0.7686	0.3888	0.2923	-0.236
Mof_C 	C 	0.7961	0.3821	0.2721	-0.001
Mof_H 	H 	0.8178	0.4007	0.2785	0.011
Mof_C 	C 	0.8853	0.4385	0.1854	-0.189
Mof_H 	H 	0.9046	0.4489	0.2018	0.075
Mof_H 	H 	0.8806	0.3919	0.187	0.095
Mof_C 	C 	0.9194	0.5294	0.1067	0.017
Mof_H 	H 	0.932	0.5674	0.1019	0.014
Mof_C 	C 	0.9145	0.5109	0.1407	-0.107
Mof_H 	H 	0.9237	0.5363	0.1592	0.058
Mof_C 	C 	0.896	0.4553	0.1478	0.048
Mof_C 	C 	0.8825	0.4182	0.1207	0.056
Mof_C 	C 	0.8874	0.4366	0.0867	0.055
Mof_C 	C 	0.9058	0.4922	0.0797	-0.108
Mof_H 	H 	0.9092	0.5048	0.0564	0.06
Mof_O 	O 	0.8693	0.3577	0.126	-0.174
Mof_C 	C 	0.8961	0.3082	0.1354	-0.026
Mof_H 	H 	0.8847	0.269	0.144	0.036
Mof_H 	H 	0.912	0.3248	0.1538	0.034
Mof_C 	C 	0.9148	0.2937	0.1058	-0
Mof_C 	C 	0.9436	0.3278	0.0957	-0.038
Mof_H 	H 	0.9533	0.3605	0.1101	0.04
Mof_C 	C 	0.9587	0.3127	0.0624	-0.085
Mof_H 	H 	0.9766	0.3384	0.0532	0.054
Mof_C 	C 	0.946	0.2601	0.045	0.041
Mof_H 	H 	0.9568	0.2491	0.0241	-0.018
Mof_N 	N 	0.9196	0.2226	0.0546	-0.259
Mof_C 	C 	0.9065	0.2393	0.0849	0.011
Mof_H 	H 	0.8895	0.2112	0.0937	-0.004
Mof_C 	C 	0.8693	0.4016	0.0539	-0.196
Mof_H 	H 	0.8644	0.3564	0.0599	0.109
Mof_H 	H 	0.8856	0.4015	0.0346	0.08
Mof_C 	C 	0.8702	0.6574	0.0476	0.021
Mof_H 	H 	0.8695	0.6188	0.0607	0.021
Mof_C 	C 	0.9016	0.6799	0.0357	-0.115
Mof_H 	H 	0.9224	0.6567	0.0407	0.06
Mof_C 	C 	0.9027	0.7363	0.0167	0.06
Mof_C 	C 	0.8723	0.7703	0.0095	0.037
Mof_C 	C 	0.8408	0.7478	0.0214	0.055
Mof_C 	C 	0.8398	0.6914	0.0405	-0.114
Mof_H 	H 	0.8183	0.676	0.0486	0.066
Mof_O 	O 	0.8738	0.8259	0.989	-0.157
Mof_C 	C 	0.8792	0.8824	0.0124	-0.039
Mof_H 	H 	0.9012	0.8774	0.026	0.037
Mof_H 	H 	0.86	0.8853	0.0288	0.038
Mof_C 	C 	0.8805	0.9384	0.9924	0.024
Mof_C 	C 	0.8767	0.9443	0.9579	-0.049
Mof_H 	H 	0.8726	0.9063	0.9449	0.093
Mof_C 	C 	0.8784	0.0009	0.9403	-0.057
Mof_H 	H 	0.876	0.0032	0.9158	0.047
Mof_C 	C 	0.8842	0.0564	0.9615	0.034
Mof_H 	H 	0.8851	0.0973	0.9507	-0.026
Mof_N 	N 	0.8884	0.0533	0.9957	-0.242
Mof_C 	C 	0.886	0.9958	0.01	-0.001
Mof_H 	H 	0.8883	0.9935	0.0345	-0.012
Mof_C 	C 	0.8064	0.7842	0.0101	-0.19
Mof_H 	H 	0.8108	0.8308	0.0085	0.097
Mof_H 	H 	0.7884	0.7772	0.0275	0.081
Mof_C 	C 	0.7694	0.6729	0.9386	0.018
Mof_H 	H 	0.7596	0.6312	0.9365	0.02
Mof_C 	C 	0.7792	0.6966	0.971	-0.113
Mof_H 	H 	0.7761	0.6711	0.991	0.064
Mof_C 	C 	0.7935	0.7576	0.9741	0.059
Mof_C 	C 	0.7981	0.7949	0.9448	0.039
Mof_C 	C 	0.7883	0.7712	0.9124	0.054
Mof_C 	C 	0.774	0.7102	0.9093	-0.107
Mof_H 	H 	0.7673	0.6939	0.8871	0.063
Mof_O 	O 	0.8062	0.8627	0.9452	-0.168
Mof_C 	C 	0.7753	0.8993	0.9545	-0.031
Mof_H 	H 	0.7719	0.8976	0.9797	0.037
Mof_H 	H 	0.7543	0.8818	0.9425	0.035
Mof_C 	C 	0.7816	0.965	0.9434	0.021
Mof_C 	C 	0.793	0.0159	0.9669	-0.043
Mof_H 	H 	0.7973	0.006	0.9906	0.044
Mof_C 	C 	0.7975	0.0776	0.9557	-0.063
Mof_H 	H 	0.8048	0.1096	0.9718	0.045
Mof_C 	C 	0.7916	0.0941	0.9218	0.019
Mof_H 	H 	0.7944	0.1373	0.9146	0.001
Mof_N 	N 	0.7815	0.0476	0.898	-0.232
Mof_C 	C 	0.7768	0.9824	0.9078	-0.023
Mof_H 	H 	0.7705	0.9509	0.891	0.009
Mof_C 	C 	0.799	0.8067	0.8775	-0.182
Mof_H 	H 	0.8067	0.851	0.8827	0.106
Mof_H 	H 	0.7788	0.8088	0.8612	0.076
Mof_C 	C 	0.8532	0.6734	0.8336	0.016
Mof_H 	H 	0.8498	0.6339	0.8217	0.015
Mof_C 	C 	0.8247	0.7094	0.8434	-0.107
Mof_H 	H 	0.8019	0.6945	0.8383	0.059
Mof_C 	C 	0.8297	0.7673	0.8607	0.048
Mof_C 	C 	0.8632	0.7891	0.8682	0.055
Mof_C 	C 	0.8917	0.7531	0.8584	0.048
Mof_C 	C 	0.8866	0.6953	0.841	-0.105
Mof_H 	H 	0.9061	0.6707	0.8343	0.058
Mof_O 	O 	0.8709	0.8483	0.8831	-0.171
Mof_C 	C 	0.88	0.899	0.8575	-0.021
Mof_H 	H 	0.8985	0.8826	0.8426	0.034
Mof_H 	H 	0.8892	0.937	0.8701	0.038
Mof_C 	C 	0.8522	0.917	0.8373	-0.008
Mof_C 	C 	0.8371	0.8823	0.8048	-0.041
Mof_H 	H 	0.8482	0.8458	0.7954	0.04
Mof_C 	C 	0.8067	0.907	0.7902	-0.064
Mof_H 	H 	0.7971	0.8851	0.7706	0.043
Mof_C 	C 	0.7903	0.9567	0.8006	0.01
Mof_H 	H 	0.7689	0.968	0.7894	-0.011
Mof_N 	N 	0.8034	0.9958	0.8286	-0.251
Mof_C 	C 	0.8317	0.9762	0.8441	0.026
Mof_H 	H 	0.8405	0.0029	0.8622	0.003
Mof_C 	C 	0.9303	0.7693	0.869	-0.174
Mof_H 	H 	0.9329	0.8164	0.8709	0.09
Mof_H 	H 	0.9456	0.7544	0.8505	0.071
Mof_C 	C 	0.956	0.6376	0.9317	0.018
Mof_H 	H 	0.9619	0.5935	0.9303	0.015
Mof_C 	C 	0.9506	0.6732	0.9016	-0.104
Mof_H 	H 	0.9529	0.6534	0.8797	0.059
Mof_C 	C 	0.9419	0.7378	0.9037	0.049
Mof_C 	C 	0.9386	0.7668	0.9358	0.056
Mof_C 	C 	0.944	0.7312	0.9658	0.06
Mof_C 	C 	0.9527	0.6666	0.9638	-0.112
Mof_H 	H 	0.9564	0.6423	0.9843	0.061
Mof_O 	O 	0.9316	0.8318	0.9396	-0.185
Mof_C 	C 	0.9576	0.8736	0.9286	0.058
Mof_C 	C 	0.9969	0.9241	0.0163	-0.009
Mof_C 	C 	0.9736	0.9166	0.9888	-0.061
Mof_H 	H 	0.9502	0.9296	0.9913	0.055
Mof_C 	C 	0.9834	0.8904	0.9574	-0.01
Mof_C 	C 	0.0178	0.8773	0.9562	0
Mof_H 	H 	0.025	0.8598	0.9349	-0
Mof_N 	N 	0.0445	0.8852	0.9812	-0.264
Mof_C 	C 	0.0316	0.9085	0.0132	-0.017
Mof_H 	H 	0.047	0.9132	0.0326	0.006
Mof_C 	C 	0.9369	0.7597	0.0018	-0.191
Mof_H 	H 	0.9364	0.8071	-0	0.104
Mof_H 	H 	0.9563	0.748	0.018	0.076
Mof_Zn	Zn	0.77351	0.07476	0.84435	1.163
Mof_Zn	Zn	0.90501	0.13867	0.02588	1.149
Mof_N 	N 	0.8236	0.1269	0.8512	-0.324
Mof_C 	C 	0.8483	0.148	0.8545	0.259
Mof_C 	C 	0.8837	0.1775	0.8624	-0.612
Mof_H 	H 	0.9019	0.1484	0.8547	0.187
Mof_H 	H 	0.8856	0.2186	0.8502	0.185
Mof_H 	H 	0.8866	0.1848	0.8873	0.184
Mof_C 	C 	0.3087	0.0295	0.5222	0.026
Mof_H 	H 	0.3099	0.0707	0.5118	0.016
Mof_C 	C 	0.3387	0.9934	0.5273	-0.121
Mof_H 	H 	0.3604	0.01	0.5205	0.067
Mof_C 	C 	0.3369	0.9331	0.5425	0.068
Mof_C 	C 	0.3051	0.9089	0.5525	0.044
Mof_C 	C 	0.2751	0.945	0.5473	0.069
Mof_C 	C 	0.2769	0.0053	0.5322	-0.12
Mof_H 	H 	0.2563	0.03	0.5286	0.066
Mof_O 	O 	0.3024	0.8442	0.5585	-0.181
Mof_C 	C 	0.2918	0.8076	0.5295	-0.002
Mof_H 	H 	0.2662	0.809	0.5263	0.029
Mof_H 	H 	0.3023	0.8249	0.5083	0.026
Mof_C 	C 	0.3044	0.7361	0.5361	0.004
Mof_C 	C 	0.282	0.686	0.544	-0.031
Mof_H 	H 	0.2578	0.6936	0.5455	0.039
Mof_C 	C 	0.295	0.6268	0.5495	-0.077
Mof_H 	H 	0.2804	0.5925	0.5562	0.05
Mof_C 	C 	0.3305	0.6169	0.5452	0.03
Mof_H 	H 	0.3398	0.5759	0.551	-0.021
Mof_N 	N 	0.3527	0.6621	0.5334	-0.259
Mof_C 	C 	0.3386	0.7241	0.5291	-0.008
Mof_H 	H 	0.3528	0.758	0.5214	0.006
Mof_C 	C 	0.2401	0.924	0.5593	-0.199
Mof_H 	H 	0.2223	0.9318	0.5408	0.083
Mof_H 	H 	0.2405	0.8775	0.5645	0.1
Mof_C 	C 	0.2046	0.0544	0.6169	0.016
Mof_H 	H 	0.191	0.0922	0.6145	0.024
Mof_C 	C 	0.2111	0.0168	0.5881	-0.112
Mof_H 	H 	0.202	0.029	0.566	0.064
Mof_C 	C 	0.231	0.9615	0.5917	0.055
Mof_C 	C 	0.2444	0.9436	0.624	0.052
Mof_C 	C 	0.2378	0.9812	0.6528	0.051
Mof_C 	C 	0.2179	0.0366	0.6492	-0.11
Mof_H 	H 	0.2134	0.0622	0.6689	0.058
Mof_O 	O 	0.2629	0.8897	0.628	-0.166
Mof_C 	C 	0.3096	0.7111	0.6296	-0.049
Mof_H 	H 	0.3338	0.7077	0.626	0.043
Mof_C 	C 	0.2943	0.7699	0.6306	-0.059
Mof_H 	H 	0.3077	0.808	0.6289	0.096
Mof_C 	C 	0.2603	0.7725	0.634	0.036
Mof_C 	C 	0.2409	0.7188	0.64	-0.021
Mof_H 	H 	0.2169	0.7232	0.6445	0.015
Mof_N 	N 	0.2556	0.6581	0.6395	-0.235
Mof_C 	C 	0.2898	0.6559	0.6339	0.026
Mof_H 	H 	0.3009	0.6153	0.6328	-0.021
Mof_C 	C 	0.2378	0.8375	0.6349	-0.034
Mof_H 	H 	0.2274	0.8433	0.6578	0.038
Mof_H 	H 	0.219	0.8366	0.6169	0.036
Mof_C 	C 	0.2536	0.9644	0.6885	-0.185
Mof_H 	H 	0.239	0.9838	0.7065	0.075
Mof_H 	H 	0.2528	0.9173	0.6916	0.101
Mof_C 	C 	0.3285	0.079	0.705	0.024
Mof_H 	H 	0.3311	0.1235	0.7097	0.014
Mof_C 	C 	0.2954	0.0526	0.7014	-0.113
Mof_H 	H 	0.2755	0.0791	0.7036	0.062
Mof_C 	C 	0.2915	0.9875	0.6945	0.063
Mof_C 	C 	0.3206	0.9488	0.6913	0.045
Mof_C 	C 	0.3536	0.9751	0.695	0.059
Mof_C 	C 	0.3575	0.0402	0.7018	-0.112
Mof_H 	H 	0.3801	0.0582	0.7044	0.062
Mof_O 	O 	0.3151	0.8838	0.6855	-0.168
Mof_C 	C 	0.3232	0.8456	0.7164	-0.026
Mof_H 	H 	0.3436	0.864	0.729	0.034
Mof_H 	H 	0.3289	0.801	0.7097	0.041
Mof_C 	C 	0.292	0.8455	0.7398	0.01
Mof_C 	C 	0.2612	0.8201	0.731	-0.051
Mof_H 	H 	0.2599	0.7936	0.711	0.052
Mof_C 	C 	0.2306	0.8292	0.7489	-0.058
Mof_H 	H 	0.2084	0.8153	0.7406	0.04
Mof_C 	C 	0.2365	0.8633	0.7826	0.004
Mof_H 	H 	0.2178	0.8675	0.7978	-0.007
Mof_N 	N 	0.2686	0.8888	0.7923	-0.236
Mof_C 	C 	0.2961	0.8821	0.7721	-0.001
Mof_H 	H 	0.3178	0.9007	0.7785	0.011
Mof_C 	C 	0.3853	0.9385	0.6854	-0.189
Mof_H 	H 	0.4046	0.9489	0.7018	0.075
Mof_H 	H 	0.3806	0.8919	0.687	0.095
Mof_C 	C 	0.4194	0.0294	0.6067	0.017
Mof_H 	H 	0.432	0.0674	0.6019	0.014
Mof_C 	C 	0.4145	0.0109	0.6407	-0.107
Mof_H 	H 	0.4237	0.0363	0.6592	0.058
Mof_C 	C 	0.396	0.9553	0.6478	0.048
Mof_C 	C 	0.3825	0.9182	0.6207	0.056
Mof_C 	C 	0.3874	0.9366	0.5867	0.055
Mof_C 	C 	0.4058	0.9922	0.5797	-0.108
Mof_H 	H 	0.4092	0.0048	0.5564	0.06
Mof_O 	O 	0.3693	0.8577	0.626	-0.174
Mof_C 	C 	0.3961	0.8082	0.6354	-0.026
Mof_H 	H 	0.3847	0.769	0.644	0.036
Mof_H 	H 	0.412	0.8248	0.6538	0.034
Mof_C 	C 	0.4148	0.7937	0.6058	-0
Mof_C 	C 	0.4436	0.8278	0.5957	-0.038
Mof_H 	H 	0.4533	0.8605	0.6101	0.04
Mof_C 	C 	0.4587	0.8127	0.5624	-0.084
Mof_H 	H 	0.4766	0.8384	0.5532	0.054
Mof_C 	C 	0.446	0.7601	0.545	0.041
Mof_H 	H 	0.4568	0.7491	0.5241	-0.018
Mof_N 	N 	0.4196	0.7226	0.5546	-0.259
Mof_C 	C 	0.4065	0.7393	0.5849	0.011
Mof_H 	H 	0.3895	0.7112	0.5937	-0.004
Mof_C 	C 	0.3693	0.9016	0.5539	-0.196
Mof_H 	H 	0.3644	0.8564	0.5599	0.109
Mof_H 	H 	0.3856	0.9015	0.5346	0.08
Mof_C 	C 	0.3702	0.1574	0.5476	0.021
Mof_H 	H 	0.3695	0.1188	0.5607	0.021
Mof_C 	C 	0.4016	0.1799	0.5357	-0.115
Mof_H 	H 	0.4224	0.1567	0.5407	0.06
Mof_C 	C 	0.4027	0.2363	0.5167	0.06
Mof_C 	C 	0.3723	0.2703	0.5095	0.038
Mof_C 	C 	0.3408	0.2478	0.5214	0.055
Mof_C 	C 	0.3398	0.1914	0.5405	-0.113
Mof_H 	H 	0.3183	0.176	0.5486	0.066
Mof_O 	O 	0.3738	0.3259	0.489	-0.159
Mof_C 	C 	0.3792	0.3824	0.5124	-0.036
Mof_H 	H 	0.4012	0.3774	0.526	0.036
Mof_H 	H 	0.36	0.3853	0.5288	0.037
Mof_C 	C 	0.3805	0.4384	0.4924	0.021
Mof_C 	C 	0.3767	0.4443	0.4579	-0.047
Mof_H 	H 	0.3726	0.4063	0.4449	0.093
Mof_C 	C 	0.3784	0.5009	0.4403	-0.058
Mof_H 	H 	0.376	0.5032	0.4158	0.047
Mof_C 	C 	0.3842	0.5564	0.4615	0.035
Mof_H 	H 	0.3851	0.5973	0.4507	-0.027
Mof_N 	N 	0.3884	0.5533	0.4957	-0.243
Mof_C 	C 	0.386	0.4958	0.51	0.002
Mof_H 	H 	0.3883	0.4935	0.5345	-0.013
Mof_C 	C 	0.3064	0.2842	0.5101	-0.189
Mof_H 	H 	0.3108	0.3308	0.5085	0.097
Mof_H 	H 	0.2884	0.2772	0.5275	0.081
Mof_C 	C 	0.2694	0.1729	0.4386	0.018
Mof_H 	H 	0.2596	0.1312	0.4365	0.02
Mof_C 	C 	0.2792	0.1966	0.471	-0.112
Mof_H 	H 	0.2761	0.1711	0.491	0.064
Mof_C 	C 	0.2935	0.2576	0.4741	0.058
Mof_C 	C 	0.2981	0.2949	0.4448	0.04
Mof_C 	C 	0.2883	0.2712	0.4124	0.053
Mof_C 	C 	0.274	0.2102	0.4093	-0.107
Mof_H 	H 	0.2673	0.1939	0.3871	0.063
Mof_O 	O 	0.3062	0.3627	0.4452	-0.168
Mof_C 	C 	0.2753	0.3993	0.4545	-0.031
Mof_H 	H 	0.2719	0.3976	0.4797	0.036
Mof_H 	H 	0.2543	0.3818	0.4425	0.035
Mof_C 	C 	0.2816	0.465	0.4434	0.02
Mof_C 	C 	0.293	0.5159	0.4669	-0.043
Mof_H 	H 	0.2973	0.506	0.4906	0.043
Mof_C 	C 	0.2975	0.5776	0.4557	-0.063
Mof_H 	H 	0.3048	0.6096	0.4718	0.045
Mof_C 	C 	0.2916	0.5941	0.4218	0.019
Mof_H 	H 	0.2944	0.6373	0.4146	0.001
Mof_N 	N 	0.2815	0.5476	0.398	-0.232
Mof_C 	C 	0.2768	0.4824	0.4078	-0.023
Mof_H 	H 	0.2705	0.4509	0.391	0.009
Mof_C 	C 	0.299	0.3067	0.3775	-0.182
Mof_H 	H 	0.3067	0.351	0.3827	0.106
Mof_H 	H 	0.2788	0.3088	0.3612	0.076
Mof_C 	C 	0.3532	0.1734	0.3336	0.016
Mof_H 	H 	0.3498	0.1339	0.3217	0.015
Mof_C 	C 	0.3247	0.2094	0.3434	-0.107
Mof_H 	H 	0.3019	0.1945	0.3383	0.059
Mof_C 	C 	0.3297	0.2673	0.3607	0.048
Mof_C 	C 	0.3632	0.2891	0.3682	0.055
Mof_C 	C 	0.3917	0.2531	0.3584	0.048
Mof_C 	C 	0.3866	0.1953	0.341	-0.105
Mof_H 	H 	0.4061	0.1707	0.3343	0.058
Mof_O 	O 	0.3709	0.3483	0.3831	-0.171
Mof_C 	C 	0.38	0.399	0.3575	-0.021
Mof_H 	H 	0.3985	0.3826	0.3426	0.034
Mof_H 	H 	0.3892	0.437	0.3701	0.038
Mof_C 	C 	0.3522	0.417	0.3373	-0.008
Mof_C 	C 	0.3371	0.3823	0.3048	-0.041
Mof_H 	H 	0.3482	0.3458	0.2954	0.04
Mof_C 	C 	0.3067	0.407	0.2902	-0.064
Mof_H 	H 	0.2971	0.3851	0.2706	0.043
Mof_C 	C 	0.2903	0.4567	0.3006	0.01
Mof_H 	H 	0.2689	0.468	0.2894	-0.011
Mof_N 	N 	0.3034	0.4958	0.3286	-0.251
Mof_C 	C 	0.3317	0.4762	0.3441	0.026
Mof_H 	H 	0.3405	0.5029	0.3622	0.003
Mof_C 	C 	0.4303	0.2693	0.369	-0.174
Mof_H 	H 	0.4329	0.3164	0.3709	0.09
Mof_H 	H 	0.4456	0.2544	0.3505	0.071
Mof_C 	C 	0.456	0.1376	0.4317	0.017
Mof_H 	H 	0.4619	0.0935	0.4303	0.015
Mof_C 	C 	0.4506	0.1732	0.4016	-0.104
Mof_H 	H 	0.4529	0.1534	0.3797	0.059
Mof_C 	C 	0.4419	0.2378	0.4037	0.048
Mof_C 	C 	0.4386	0.2668	0.4358	0.056
Mof_C 	C 	0.444	0.2312	0.4658	0.059
Mof_C 	C 	0.4527	0.1666	0.4638	-0.111
Mof_H 	H 	0.4564	0.1423	0.4843	0.061
Mof_O 	O 	0.4316	0.3318	0.4396	-0.186
Mof_C 	C 	0.4576	0.3736	0.4286	0.058
Mof_C 	C 	0.4969	0.4241	0.5163	-0.008
Mof_C 	C 	0.4736	0.4166	0.4888	-0.062
Mof_H 	H 	0.4502	0.4296	0.4913	0.056
Mof_C 	C 	0.4834	0.3904	0.4574	-0.01
Mof_C 	C 	0.5178	0.3773	0.4562	0
Mof_H 	H 	0.525	0.3598	0.4349	-0
Mof_N 	N 	0.5445	0.3852	0.4812	-0.264
Mof_C 	C 	0.5316	0.4085	0.5132	-0.016
Mof_H 	H 	0.547	0.4132	0.5326	0.006
Mof_C 	C 	0.4369	0.2597	0.5018	-0.189
Mof_H 	H 	0.4364	0.3071	0.5	0.104
Mof_H 	H 	0.4563	0.248	0.518	0.076
Mof_Zn	Zn	0.27351	0.57476	0.34435	1.163
Mof_Zn	Zn	0.40501	0.63867	0.52588	1.149
Mof_N 	N 	0.3236	0.6269	0.3512	-0.324
Mof_C 	C 	0.3483	0.648	0.3545	0.259
Mof_C 	C 	0.3837	0.6775	0.3624	-0.612
Mof_H 	H 	0.4019	0.6484	0.3547	0.187
Mof_H 	H 	0.3856	0.7186	0.3502	0.185
Mof_H 	H 	0.3866	0.6848	0.3873	0.183
_end
