data_functionalizedCrystal
_audit_creation_method	'EQeq! by Chris Wilmer'
_symmetry_space_group_name_H-M	'P1'
_symmetry_Int_Tables_number	1
_symmetry_cell_setting	triclinic
loop_
_symmetry_equiv_pos_as_xyz
  x,y,z
_cell_length_a	15.5097
_cell_length_b	15.5097
_cell_length_c	12.3197
_cell_angle_alpha	90
_cell_angle_beta	90
_cell_angle_gamma	90
loop_
_atom_site_label
_atom_site_type_symbol
_atom_site_fract_x
_atom_site_fract_y
_atom_site_fract_z
_atom_site_charge
Mof_O 	O 	0.61266	0.38321	0.61447	-0.75
Mof_O 	O 	0.59174	0.29299	0.75728	-0.737
Mof_C 	C 	0.58679	0.36123	0.70627	0.583
Mof_C 	C 	0.53618	0.43098	0.76877	-0.15
Mof_C 	C 	0.52791	0.42723	0.88193	-0.028
Mof_H 	H 	0.54118	0.37258	0.91603	0.054
Mof_O 	O 	0.11266	0.88321	0.11447	-0.724
Mof_O 	O 	0.09174	0.79299	0.25728	-0.735
Mof_C 	C 	0.08679	0.86123	0.20627	0.573
Mof_C 	C 	0.03618	0.93098	0.26877	-0.177
Mof_C 	C 	0.02791	0.92723	0.38193	0.055
Mof_H 	H 	0.04118	0.87258	0.41603	0.001
Mof_O 	O 	0.88734	0.11679	0.11447	-0.73
Mof_O 	O 	0.90826	0.20701	0.25728	-0.737
Mof_C 	C 	0.91321	0.13877	0.20627	0.574
Mof_C 	C 	0.96382	0.06902	0.26877	-0.188
Mof_C 	C 	0.97209	0.07277	0.38193	0.042
Mof_H 	H 	0.95882	0.12742	0.41603	0.002
Mof_O 	O 	0.38734	0.61679	0.61447	-0.752
Mof_O 	O 	0.40826	0.70701	0.75728	-0.737
Mof_C 	C 	0.41321	0.63877	0.70627	0.582
Mof_C 	C 	0.46382	0.56902	0.76877	-0.15
Mof_C 	C 	0.47209	0.57277	0.88193	-0.029
Mof_H 	H 	0.45882	0.62742	0.91603	0.055
Mof_O 	O 	0.61679	0.11266	0.86447	-0.813
Mof_O 	O 	0.70701	0.09174	0.00728	-0.844
Mof_C 	C 	0.63877	0.08679	0.95627	0.87
Mof_C 	C 	0.56902	0.03618	0.01877	-0.562
Mof_C 	C 	0.57277	0.02791	0.13193	0.247
Mof_H 	H 	0.62742	0.04118	0.16603	-0.066
Mof_O 	O 	0.11679	0.61266	0.36447	-0.757
Mof_O 	O 	0.20701	0.59174	0.50728	-0.746
Mof_C 	C 	0.13877	0.58679	0.45627	0.597
Mof_C 	C 	0.06902	0.53618	0.51877	-0.212
Mof_C 	C 	0.07277	0.52791	0.63193	0.078
Mof_H 	H 	0.12742	0.54118	0.66603	-0.006
Mof_O 	O 	0.88321	0.38734	0.36447	-0.756
Mof_O 	O 	0.79299	0.40826	0.50728	-0.745
Mof_C 	C 	0.86123	0.41321	0.45627	0.596
Mof_C 	C 	0.93098	0.46382	0.51877	-0.209
Mof_C 	C 	0.92723	0.47209	0.63193	0.082
Mof_H 	H 	0.87258	0.45882	0.66603	-0.006
Mof_O 	O 	0.38321	0.88734	0.86447	-0.808
Mof_O 	O 	0.29299	0.90826	0.00728	-0.844
Mof_C 	C 	0.36123	0.91321	0.95627	0.874
Mof_C 	C 	0.43098	0.96382	0.01877	-0.551
Mof_C 	C 	0.42723	0.97209	0.13193	0.264
Mof_H 	H 	0.37258	0.95882	0.16603	-0.067
Mof_O 	O 	0.88734	0.38321	0.13553	-0.677
Mof_O 	O 	0.90826	0.29299	0.99272	-0.541
Mof_C 	C 	0.91321	0.36123	0.04373	0.274
Mof_C 	C 	0.96382	0.43098	0.98123	0.206
Mof_C 	C 	0.97209	0.42723	0.86807	-0.184
Mof_H 	H 	0.95882	0.37258	0.83397	0.081
Mof_O 	O 	0.38734	0.88321	0.63553	-0.749
Mof_O 	O 	0.40826	0.79299	0.49272	-0.743
Mof_C 	C 	0.41321	0.86123	0.54373	0.584
Mof_C 	C 	0.46382	0.93098	0.48123	-0.155
Mof_C 	C 	0.47209	0.92723	0.36807	0.015
Mof_H 	H 	0.45882	0.87258	0.33397	0.012
Mof_O 	O 	0.61266	0.11679	0.63553	-0.755
Mof_O 	O 	0.59174	0.20701	0.49272	-0.745
Mof_C 	C 	0.58679	0.13877	0.54373	0.585
Mof_C 	C 	0.53618	0.06902	0.48123	-0.17
Mof_C 	C 	0.52791	0.07277	0.36807	-0.002
Mof_H 	H 	0.54118	0.12742	0.33397	0.014
Mof_O 	O 	0.11266	0.61679	0.13553	-0.679
Mof_O 	O 	0.09174	0.70701	0.99272	-0.54
Mof_C 	C 	0.08679	0.63877	0.04373	0.275
Mof_C 	C 	0.03618	0.56902	0.98123	0.203
Mof_C 	C 	0.02791	0.57277	0.86807	-0.187
Mof_H 	H 	0.04118	0.62742	0.83397	0.082
Mof_O 	O 	0.88321	0.11266	0.88553	-0.669
Mof_O 	O 	0.79299	0.09174	0.74272	-0.732
Mof_C 	C 	0.86123	0.08679	0.79373	0.568
Mof_C 	C 	0.93098	0.03618	0.73123	-0.165
Mof_C 	C 	0.92723	0.02791	0.61807	0.03
Mof_H 	H 	0.87258	0.04118	0.58397	0.006
Mof_O 	O 	0.38321	0.61266	0.38553	-0.759
Mof_O 	O 	0.29299	0.59174	0.24272	-0.752
Mof_C 	C 	0.36123	0.58679	0.29373	0.602
Mof_C 	C 	0.43098	0.53618	0.23123	-0.233
Mof_C 	C 	0.42723	0.52791	0.11807	0.102
Mof_H 	H 	0.37258	0.54118	0.08397	-0.042
Mof_O 	O 	0.61679	0.38734	0.38553	-0.759
Mof_O 	O 	0.70701	0.40826	0.24272	-0.751
Mof_C 	C 	0.63877	0.41321	0.29373	0.602
Mof_C 	C 	0.56902	0.46382	0.23123	-0.233
Mof_C 	C 	0.57277	0.47209	0.11807	0.102
Mof_H 	H 	0.62742	0.45882	0.08397	-0.041
Mof_O 	O 	0.11679	0.88734	0.88553	-0.663
Mof_O 	O 	0.20701	0.90826	0.74272	-0.729
Mof_C 	C 	0.13877	0.91321	0.79373	0.568
Mof_C 	C 	0.06902	0.96382	0.73123	-0.152
Mof_C 	C 	0.07277	0.97209	0.61807	0.044
Mof_H 	H 	0.12742	0.95882	0.58397	0.006
Mof_In	In	0.68809	0.31191	0.5	2.922
Mof_In	In	0.18809	0.81191	-0	2.592
Mof_In	In	0.81191	0.18809	-0	2.591
Mof_In	In	0.31191	0.68809	0.5	2.923
Mof_In	In	0.68809	0.18809	0.75	2.969
Mof_In	In	0.18809	0.68809	0.25	2.88
Mof_In	In	0.81191	0.31191	0.25	2.879
Mof_In	In	0.31191	0.81191	0.75	2.974
Mof_O 	O 	0.75815	0.25	0.625	-1.353
Mof_H 	H 	0.81264	0.25	0.625	0.465
Mof_O 	O 	0.25815	0.75	0.125	-1.292
Mof_H 	H 	0.31264	0.75	0.125	0.435
Mof_O 	O 	0.74185	0.25	0.125	-1.292
Mof_H 	H 	0.68736	0.25	0.125	0.434
Mof_O 	O 	0.24185	0.75	0.625	-1.354
Mof_H 	H 	0.18736	0.75	0.625	0.465
Mof_O 	O 	0.75	0.25815	0.875	-1.27
Mof_H 	H 	0.75	0.31264	0.875	0.457
Mof_O 	O 	0.25	0.75815	0.375	-1.338
Mof_H 	H 	0.25	0.81264	0.375	0.462
Mof_O 	O 	0.75	0.24185	0.375	-1.338
Mof_H 	H 	0.75	0.18736	0.375	0.46
Mof_O 	O 	0.25	0.74185	0.875	-1.271
Mof_H 	H 	0.25	0.68736	0.875	0.457
Mof_C 	C 	0.5	0.5	0.71164	0.083
Mof_C 	C 	0.5	0.5	0.93959	0.117
Mof_H 	H 	0.5	0.5	0.63078	0.025
Mof_C 	C 	6.30313e-34	0	0.21164	0.083
Mof_C 	C 	1.3092e-33	0	0.43959	-0.068
Mof_H 	H 	3.89493e-34	0	0.13078	0.001
Mof_C 	C 	0.5	-8.51811e-33	0.96164	0.535
Mof_C 	C 	0.5	-1.06476e-33	0.18959	-0.226
Mof_H 	H 	0.5	0	0.88078	-0.103
Mof_C 	C 	-2.88419e-33	0.5	0.46164	0.125
Mof_C 	C 	-1.07234e-32	0.5	0.68959	-0.119
Mof_H 	H 	-9.95478e-34	0.5	0.38078	0.004
Mof_C 	C 	-2.54767e-33	0.5	0.03836	-0.353
Mof_C 	C 	-6.10453e-33	0.5	0.81041	0.13
Mof_H 	H 	-3.90399e-33	0.5	0.11922	0.14
Mof_C 	C 	0.5	-4.25906e-33	0.53836	0.071
Mof_C 	C 	0.5	0	0.31041	0.007
Mof_H 	H 	0.5	0	0.61922	0.027
Mof_C 	C 	-1.91114e-33	0	0.78836	0.067
Mof_C 	C 	5.92809e-33	4.25906e-33	0.56041	-0.056
Mof_H 	H 	2.58874e-33	0	0.86922	0.041
Mof_C 	C 	0.5	0.5	0.28836	0.142
Mof_C 	C 	0.5	0.5	0.06041	-0.203
Mof_H 	H 	0.5	0.5	0.36922	0.006
_end
