data_functionalizedCrystal
_audit_creation_method	'EQeq! by Chris Wilmer'
_symmetry_space_group_name_H-M	'P1'
_symmetry_Int_Tables_number	1
_symmetry_cell_setting	triclinic
loop_
_symmetry_equiv_pos_as_xyz
  x,y,z
_cell_length_a	8.9473
_cell_length_b	12.3223
_cell_length_c	20.0651
_cell_angle_alpha	85.3571
_cell_angle_beta	77.1174
_cell_angle_gamma	68.7121
loop_
_atom_site_label
_atom_site_type_symbol
_atom_site_fract_x
_atom_site_fract_y
_atom_site_fract_z
_atom_site_charge
Mof_Mn	Mn	0.14442	0.46984	0.9114	0.898
Mof_Mn	Mn	0.36426	0.03016	0.4114	0.905
Mof_Mn	Mn	0.61539	0.1607	0.4733	0.974
Mof_Mn	Mn	0.24939	0.8393	0.5267	0.966
Mof_Mn	Mn	0.83869	0.6607	0.0267	0.988
Mof_Mn	Mn	0.80582	0.96984	0.5886	0.934
Mof_Mn	Mn	0.52609	0.3393	0.9733	0.983
Mof_Mn	Mn	0.52566	0.53016	0.0886	0.919
Mof_H 	H 	0.7245	0.425	0.2174	0.027
Mof_H 	H 	0.7105	0.8878	0.1698	0.093
Mof_H 	H 	0.1548	0.8308	0.0258	-0.008
Mof_H 	H 	0.6651	0.246	0.7352	0.021
Mof_H 	H 	0.1503	0.746	0.7648	0.04
Mof_H 	H 	0.8199	0.9638	0.911	0.042
Mof_H 	H 	0.704	0.5	0.5	0.079
Mof_H 	H 	0.999	0.094	0.4122	-0.095
Mof_H 	H 	0.5052	0.906	0.5878	-0.168
Mof_H 	H 	0.6303	0.3878	0.3302	0.093
Mof_H 	H 	0.3669	0.575	0.7826	0.023
Mof_H 	H 	0.6463	0.754	0.2648	0.02
Mof_H 	H 	0.5337	0.5362	0.411	0.024
Mof_H 	H 	0.843	0.406	0.9122	-0.155
Mof_H 	H 	0.4809	0.4638	0.589	0.024
Mof_H 	H 	0.954	0	-0	0.149
Mof_H 	H 	0.7356	0.6692	0.5258	0.045
Mof_H 	H 	0.1612	0.594	0.0878	-0.175
Mof_H 	H 	0.6919	0.925	0.2826	0.026
Mof_H 	H 	0.0114	0.1692	0.9742	-0.012
Mof_H 	H 	0.6947	0.0362	0.089	0.025
Mof_H 	H 	0.464	0	-0	0.01
Mof_H 	H 	0.214	0.5	0.5	0.059
Mof_H 	H 	0.8995	0.075	0.7174	0.026
Mof_H 	H 	0.3483	0.6122	0.6698	0.091
Mof_H 	H 	0.7681	0.1122	0.8302	0.088
Mof_H 	H 	0.9306	0.3308	0.4742	0.03
Mof_H 	H 	0.6611	0.254	0.2352	0.02
Mof_C 	C 	0.52748	0.3845	0.84414	0.347
Mof_C 	C 	0.1783	0.89858	0.01562	0.143
Mof_C 	C 	0.66915	0.18092	0.22218	0.077
Mof_C 	C 	0.60007	0.31908	0.72218	0.076
Mof_C 	C 	0.00091	0.713	0.53298	0.318
Mof_C 	C 	0.00518	0.03904	0.447	0.422
Mof_C 	C 	0.69552	0.59362	0.22974	-0.141
Mof_C 	C 	0.20218	0.53904	0.053	0.573
Mof_C 	C 	0.1181	0.5	0.5	-0.011
Mof_C 	C 	0.84307	0.03832	0.81714	-0.113
Mof_C 	C 	0.689	0.98378	0.25022	0.058
Mof_C 	C 	0.87486	0.94972	0.86556	0.026
Mof_C 	C 	0.01231	0.74162	0.89696	0.321
Mof_C 	C 	0.65927	0.24162	0.60304	0.407
Mof_C 	C 	0.49042	0.44972	0.63444	0.063
Mof_C 	C 	0.57458	0.55028	0.36556	0.063
Mof_C 	C 	0.09994	0.39828	0.48404	-0.142
Mof_C 	C 	0.64133	0.68092	0.27782	0.075
Mof_C 	C 	0.03914	0.90638	0.72974	-0.151
Mof_C 	C 	0.3681	0	-0	0.118
Mof_C 	C 	0.75612	0.6155	0.15586	0.348
Mof_C 	C 	0.24689	0.287	0.46702	0.398
Mof_C 	C 	0.07225	0.81908	0.77782	0.008
Mof_C 	C 	0.42278	0.51622	0.75022	0.055
Mof_C 	C 	0.94392	0.39858	0.48438	0.079
Mof_C 	C 	0.51888	0.40638	0.77026	-0.143
Mof_C 	C 	0.923	0.01622	0.74978	0.075
Mof_C 	C 	0.66198	0.1155	0.34414	0.349
Mof_C 	C 	0.57917	0.66032	0.34554	-0.144
Mof_C 	C 	0.68922	0.48378	0.24978	0.054
Mof_C 	C 	0.65089	0.25838	0.10304	0.408
Mof_C 	C 	0.50393	0.75838	0.39696	0.404
Mof_C 	C 	0.0925	0.10142	0.98438	0.138
Mof_C 	C 	0.69853	0.96168	0.18286	-0.13
Mof_C 	C 	0.58503	0.33968	0.65446	-0.145
Mof_C 	C 	0.67471	0.16032	0.15446	-0.144
Mof_C 	C 	0.0585	0	-0	-0.253
Mof_C 	C 	0.79422	0.46096	0.947	0.563
Mof_C 	C 	0.12162	0.8845	0.65586	0.347
Mof_C 	C 	0.49122	0.96096	0.553	0.572
Mof_C 	C 	0.67526	0.09362	0.27026	-0.144
Mof_C 	C 	0.69014	0.05028	0.13444	0.064
Mof_C 	C 	0.33398	0.89828	0.01596	-0.184
Mof_C 	C 	0.98949	0.83968	0.84554	-0.053
Mof_C 	C 	0.8085	0.5	0.5	-0.097
Mof_C 	C 	0.82688	0.60142	0.51562	0.017
Mof_C 	C 	0.98226	0.60172	0.51596	-0.042
Mof_C 	C 	0.46391	0.787	0.03298	0.419
Mof_C 	C 	0.24822	0.10172	0.98404	-0.187
Mof_C 	C 	0.63139	0.46168	0.31714	-0.131
Mof_C 	C 	0.41021	0.53832	0.68286	-0.133
Mof_C 	C 	0.28389	0.213	0.96702	0.418
Mof_O 	O 	0.65766	0.2338	0.04248	-0.395
Mof_O 	O 	0.93394	0.7662	0.95752	-0.353
Mof_O 	O 	0.8727	0.03608	0.48172	-0.426
Mof_O 	O 	0.34943	0.47586	0.04568	-0.51
Mof_O 	O 	0.10442	0.53608	0.01828	-0.497
Mof_O 	O 	0.1433	0.71316	0.52404	-0.383
Mof_O 	O 	0.49415	0.85748	0.37502	-0.4
Mof_O 	O 	0.26452	0.81342	0.63874	-0.349
Mof_O 	O 	0.40286	0.44044	0.88904	-0.438
Mof_O 	O 	0.71668	0.18658	0.36126	-0.347
Mof_O 	O 	0.41734	0.21316	0.97596	-0.405
Mof_O 	O 	0.8712	0.79634	0.55546	-0.364
Mof_O 	O 	0.17666	0.29634	0.94454	-0.412
Mof_O 	O 	0.14511	0.97586	0.45432	-0.467
Mof_O 	O 	0.45014	0.7338	0.45752	-0.397
Mof_O 	O 	0.65878	0.46392	0.98172	-0.478
Mof_O 	O 	0.72665	0.14252	0.62498	-0.399
Mof_O 	O 	0.82794	0.68658	0.13874	-0.343
Mof_O 	O 	0.3805	0.28684	0.47596	-0.4
Mof_O 	O 	0.87097	0.52414	0.95432	-0.487
Mof_O 	O 	0.10163	0.64252	0.87502	-0.385
Mof_O 	O 	0.5933	0.05956	0.38904	-0.438
Mof_O 	O 	0.41754	0.70366	0.05546	-0.409
Mof_O 	O 	0.73234	0.55956	0.11096	-0.438
Mof_O 	O 	0.0419	0.94044	0.61096	-0.453
Mof_O 	O 	0.64146	0.2662	0.54248	-0.396
Mof_O 	O 	0.65326	0.31342	0.86126	-0.345
Mof_O 	O 	0.61917	0.35748	0.12498	-0.401
Mof_O 	O 	0.60646	0.78684	0.02404	-0.406
Mof_O 	O 	0.3905	0.96392	0.51828	-0.482
Mof_O 	O 	0.223	0.20366	0.44454	-0.41
Mof_O 	O 	0.57529	0.02414	0.54568	-0.511
_end
