data_functionalizedCrystal
_audit_creation_method	'EQeq! by Chris Wilmer'
_symmetry_space_group_name_H-M	'P1'
_symmetry_Int_Tables_number	1
_symmetry_cell_setting	triclinic
loop_
_symmetry_equiv_pos_as_xyz
  x,y,z
_cell_length_a	23.7422
_cell_length_b	23.7422
_cell_length_c	13.4888
_cell_angle_alpha	90
_cell_angle_beta	90
_cell_angle_gamma	120
loop_
_atom_site_label
_atom_site_type_symbol
_atom_site_fract_x
_atom_site_fract_y
_atom_site_fract_z
_atom_site_charge
Mof_Co	Co	0.36039	0.09303	0.11998	1.203
Mof_Cr	Cr	0.34981	0.24277	0.91542	1.883
Mof_P 	P 	0.41876	0.23619	0.11949	0.642
Mof_P 	P 	0.32681	0.98696	0.27712	0.767
Mof_O 	O 	0.36719	0.21018	0.0374	-0.681
Mof_O 	O 	0.42234	0.17578	0.1564	-0.469
Mof_O 	O 	0.3915	0.25946	0.2065	-1.001
Mof_O 	O 	0.48414	0.28969	0.0893	-0.289
Mof_O 	O 	0.37531	0.0445	0.2116	-0.546
Mof_O 	O 	0.36705	0.95863	0.325	-0.484
Mof_O 	O 	0.27152	0.93516	0.2173	-0.761
Mof_O 	O 	0.30027	0.0106	0.36	-0.867
Mof_N 	N 	0.4444	0.27551	0.8693	-0.416
Mof_N 	N 	0.3326	0.15656	0.8511	-0.326
Mof_N 	N 	0.25082	0.18856	0.9413	-0.481
Mof_C 	C 	0.4473	0.2182	0.8304	-0.054
Mof_C 	C 	0.385	0.173	0.7798	-0.064
Mof_C 	C 	0.2648	0.1223	0.8169	-0.099
Mof_C 	C 	0.2237	0.121	0.9037	-0.015
Mof_H 	H 	0.4556	0.305	0.8202	0.131
Mof_H 	H 	0.4725	0.2927	0.9206	0.13
Mof_H 	H 	0.328	0.126	0.8939	0.127
Mof_H 	H 	0.2354	0.2102	0.9162	0.15
Mof_H 	H 	0.237	0.182	0.0051	0.15
Mof_H 	H 	0.4529	0.1935	0.8891	0.02
Mof_H 	H 	0.484	0.238	0.7878	0.031
Mof_H 	H 	0.3784	0.1939	0.7236	0.037
Mof_H 	H 	0.3899	0.1376	0.7461	0.045
Mof_H 	H 	0.2546	0.1478	0.7643	0.044
Mof_H 	H 	0.2581	0.0802	0.7956	0.051
Mof_H 	H 	0.1804	0.1073	0.8741	0.037
Mof_H 	H 	0.228	0.0972	0.9618	0.015
Mof_Ga	Ga	0.30628	0.2403	0.21335	3.602
Mof_Ga	Ga	0.24277	0.89296	0.08458	2.938
Mof_Co	Co	0.02706	0.42636	0.45331	1.208
Mof_Cr	Cr	0.01648	0.5761	0.24875	1.961
Mof_P 	P 	0.08543	0.56952	0.45282	0.641
Mof_P 	P 	0.99348	0.32029	0.61045	0.684
Mof_O 	O 	0.03386	0.54351	0.37073	-0.693
Mof_O 	O 	0.08901	0.50911	0.48973	-0.468
Mof_O 	O 	0.05817	0.59279	0.53983	-0.973
Mof_O 	O 	0.15081	0.62302	0.42263	-0.3
Mof_O 	O 	0.04198	0.37783	0.54493	-0.502
Mof_O 	O 	0.03372	0.29196	0.65833	-0.463
Mof_O 	O 	0.93819	0.26849	0.55063	-0.753
Mof_O 	O 	0.96694	0.34393	0.69333	-0.83
Mof_N 	N 	0.11107	0.60884	0.20263	-0.422
Mof_N 	N 	0.99927	0.48989	0.18443	-0.349
Mof_N 	N 	0.91749	0.52189	0.27463	-0.473
Mof_C 	C 	0.11397	0.55153	0.16373	-0.063
Mof_C 	C 	0.05167	0.50633	0.11313	-0.041
Mof_C 	C 	0.93147	0.45563	0.15023	-0.101
Mof_C 	C 	0.89037	0.45433	0.23703	-0.021
Mof_H 	H 	0.12227	0.63833	0.15353	0.133
Mof_H 	H 	0.13917	0.62603	0.25393	0.138
Mof_H 	H 	0.99467	0.45933	0.22723	0.127
Mof_H 	H 	0.90207	0.54353	0.24953	0.147
Mof_H 	H 	0.90367	0.51533	0.33843	0.128
Mof_H 	H 	0.11957	0.52683	0.22243	0.028
Mof_H 	H 	0.15067	0.57133	0.12113	0.037
Mof_H 	H 	0.04507	0.52723	0.05693	0.042
Mof_H 	H 	0.05657	0.47093	0.07943	0.049
Mof_H 	H 	0.92127	0.48113	0.09763	0.047
Mof_H 	H 	0.92477	0.41353	0.12893	0.062
Mof_H 	H 	0.84707	0.44063	0.20743	0.047
Mof_H 	H 	0.89467	0.43053	0.29513	0.028
Mof_Ga	Ga	0.97294	0.57364	0.54669	3.514
Mof_Ga	Ga	0.90944	0.22629	0.41791	2.901
Mof_Co	Co	0.69372	0.7597	0.78665	1.198
Mof_Cr	Cr	0.68314	0.90944	0.58209	1.913
Mof_P 	P 	0.75209	0.90286	0.78616	0.641
Mof_P 	P 	0.66014	0.65363	0.94379	0.712
Mof_O 	O 	0.70052	0.87685	0.70407	-0.698
Mof_O 	O 	0.75567	0.84245	0.82307	-0.475
Mof_O 	O 	0.72483	0.92613	0.87317	-0.992
Mof_O 	O 	0.81747	0.95636	0.75597	-0.292
Mof_O 	O 	0.70864	0.71117	0.87827	-0.528
Mof_O 	O 	0.70038	0.6253	0.99167	-0.5
Mof_O 	O 	0.60485	0.60183	0.88397	-0.757
Mof_O 	O 	0.6336	0.67727	0.02667	-0.829
Mof_N 	N 	0.77773	0.94218	0.53597	-0.422
Mof_N 	N 	0.66593	0.82323	0.51777	-0.33
Mof_N 	N 	0.58415	0.85523	0.60797	-0.464
Mof_C 	C 	0.78063	0.88487	0.49707	-0.054
Mof_C 	C 	0.71833	0.83967	0.44647	-0.062
Mof_C 	C 	0.59813	0.78897	0.48357	-0.097
Mof_C 	C 	0.55703	0.78767	0.57037	-0.02
Mof_H 	H 	0.78893	0.97167	0.48687	0.141
Mof_H 	H 	0.80583	0.95937	0.58727	0.143
Mof_H 	H 	0.66133	0.79267	0.56057	0.134
Mof_H 	H 	0.56873	0.87687	0.58287	0.151
Mof_H 	H 	0.57033	0.84867	0.67177	0.13
Mof_H 	H 	0.78623	0.86017	0.55577	0.024
Mof_H 	H 	0.81733	0.90467	0.45447	0.034
Mof_H 	H 	0.71173	0.86057	0.39027	0.037
Mof_H 	H 	0.72323	0.80427	0.41277	0.045
Mof_H 	H 	0.58793	0.81447	0.43097	0.044
Mof_H 	H 	0.59143	0.74687	0.46227	0.058
Mof_H 	H 	0.51373	0.77397	0.54077	0.045
Mof_H 	H 	0.56133	0.76387	0.62847	0.029
Mof_Ga	Ga	0.63961	0.90697	0.88002	3.568
Mof_Ga	Ga	0.5761	0.55963	0.75125	2.905
Mof_Co	Co	0.90697	0.26736	0.11998	1.203
Mof_Cr	Cr	0.75723	0.10704	0.91542	1.874
Mof_P 	P 	0.76381	0.18257	0.11949	0.641
Mof_P 	P 	0.01304	0.33985	0.27712	0.767
Mof_O 	O 	0.78982	0.15701	0.0374	-0.677
Mof_O 	O 	0.82422	0.24656	0.1564	-0.468
Mof_O 	O 	0.74054	0.13204	0.2065	-1.002
Mof_O 	O 	0.71031	0.19445	0.0893	-0.289
Mof_O 	O 	0.9555	0.33081	0.2116	-0.546
Mof_O 	O 	0.04137	0.40842	0.325	-0.484
Mof_O 	O 	0.06484	0.33636	0.2173	-0.761
Mof_O 	O 	0.9894	0.28967	0.36	-0.867
Mof_N 	N 	0.72449	0.16889	0.8693	-0.415
Mof_N 	N 	0.84344	0.17604	0.8511	-0.326
Mof_N 	N 	0.81144	0.06226	0.9413	-0.48
Mof_C 	C 	0.7818	0.2291	0.8304	-0.054
Mof_C 	C 	0.827	0.212	0.7798	-0.064
Mof_C 	C 	0.8777	0.1425	0.8169	-0.098
Mof_C 	C 	0.879	0.1027	0.9037	-0.015
Mof_H 	H 	0.695	0.1506	0.8202	0.131
Mof_H 	H 	0.7073	0.1798	0.9206	0.13
Mof_H 	H 	0.874	0.202	0.8939	0.127
Mof_H 	H 	0.7898	0.0252	0.9162	0.137
Mof_H 	H 	0.818	0.055	0.0051	0.149
Mof_H 	H 	0.8065	0.2594	0.8891	0.02
Mof_H 	H 	0.762	0.246	0.7878	0.031
Mof_H 	H 	0.8061	0.1845	0.7236	0.037
Mof_H 	H 	0.8624	0.2523	0.7461	0.045
Mof_H 	H 	0.8522	0.1068	0.7643	0.04
Mof_H 	H 	0.9198	0.1779	0.7956	0.05
Mof_H 	H 	0.8927	0.0731	0.8741	0.028
Mof_H 	H 	0.9028	0.1308	0.9618	0.011
Mof_Ga	Ga	0.7597	0.06597	0.21335	3.595
Mof_Ga	Ga	0.10704	0.34981	0.08458	2.941
Mof_Co	Co	0.57364	0.60069	0.45331	1.199
Mof_Cr	Cr	0.4239	0.44037	0.24875	1.911
Mof_P 	P 	0.43048	0.5159	0.45282	0.642
Mof_P 	P 	0.67971	0.67318	0.61045	0.727
Mof_O 	O 	0.45649	0.49034	0.37073	-0.7
Mof_O 	O 	0.49089	0.57989	0.48973	-0.473
Mof_O 	O 	0.40721	0.46537	0.53983	-1.001
Mof_O 	O 	0.37698	0.52778	0.42263	-0.299
Mof_O 	O 	0.62217	0.66414	0.54493	-0.527
Mof_O 	O 	0.70804	0.74175	0.65833	-0.488
Mof_O 	O 	0.73151	0.66969	0.55063	-0.756
Mof_O 	O 	0.65607	0.623	0.69333	-0.841
Mof_N 	N 	0.39116	0.50222	0.20263	-0.419
Mof_N 	N 	0.51011	0.50937	0.18443	-0.328
Mof_N 	N 	0.47811	0.39559	0.27463	-0.464
Mof_C 	C 	0.44847	0.56243	0.16373	-0.052
Mof_C 	C 	0.49367	0.54533	0.11313	-0.067
Mof_C 	C 	0.54437	0.47583	0.15023	-0.1
Mof_C 	C 	0.54567	0.43603	0.23703	-0.019
Mof_H 	H 	0.36167	0.48393	0.15353	0.133
Mof_H 	H 	0.37397	0.51313	0.25393	0.138
Mof_H 	H 	0.54067	0.53533	0.22723	0.134
Mof_H 	H 	0.45647	0.35853	0.24953	0.15
Mof_H 	H 	0.48467	0.38833	0.33843	0.129
Mof_H 	H 	0.47317	0.59273	0.22243	0.024
Mof_H 	H 	0.42867	0.57933	0.12113	0.034
Mof_H 	H 	0.47277	0.51783	0.05693	0.044
Mof_H 	H 	0.52907	0.58563	0.07943	0.051
Mof_H 	H 	0.51887	0.44013	0.09763	0.051
Mof_H 	H 	0.58647	0.51123	0.12893	0.064
Mof_H 	H 	0.55937	0.40643	0.20743	0.046
Mof_H 	H 	0.56947	0.46413	0.29513	0.029
Mof_Ga	Ga	0.42636	0.39931	0.54669	3.598
Mof_Ga	Ga	0.77371	0.68314	0.41791	2.907
Mof_Co	Co	0.2403	0.93403	0.78665	1.2
Mof_Cr	Cr	0.09056	0.77371	0.58209	1.914
Mof_P 	P 	0.09714	0.84924	0.78616	0.641
Mof_P 	P 	0.34637	0.00652	0.94379	0.667
Mof_O 	O 	0.12315	0.82368	0.70407	-0.698
Mof_O 	O 	0.15755	0.91323	0.82307	-0.469
Mof_O 	O 	0.07387	0.79871	0.87317	-0.991
Mof_O 	O 	0.04364	0.86112	0.75597	-0.284
Mof_O 	O 	0.28883	0.99748	0.87827	-0.496
Mof_O 	O 	0.3747	0.07509	0.99167	-0.499
Mof_O 	O 	0.39817	0.00303	0.88397	-0.754
Mof_O 	O 	0.32273	0.95634	0.02667	-0.807
Mof_N 	N 	0.05782	0.83556	0.53597	-0.422
Mof_N 	N 	0.17677	0.84271	0.51777	-0.33
Mof_N 	N 	0.14477	0.72893	0.60797	-0.464
Mof_C 	C 	0.11513	0.89577	0.49707	-0.057
Mof_C 	C 	0.16033	0.87867	0.44647	-0.061
Mof_C 	C 	0.21103	0.80917	0.48357	-0.097
Mof_C 	C 	0.21233	0.76937	0.57037	-0.021
Mof_H 	H 	0.02833	0.81727	0.48687	0.142
Mof_H 	H 	0.04063	0.84647	0.58727	0.146
Mof_H 	H 	0.20733	0.86867	0.56057	0.135
Mof_H 	H 	0.12313	0.69187	0.58287	0.151
Mof_H 	H 	0.15133	0.72167	0.67177	0.129
Mof_H 	H 	0.13983	0.92607	0.55577	0.033
Mof_H 	H 	0.09533	0.91267	0.45447	0.043
Mof_H 	H 	0.13943	0.85117	0.39027	0.037
Mof_H 	H 	0.19573	0.91897	0.41277	0.052
Mof_H 	H 	0.18553	0.77347	0.43097	0.044
Mof_H 	H 	0.25313	0.84457	0.46227	0.058
Mof_H 	H 	0.22603	0.73977	0.54077	0.045
Mof_H 	H 	0.23613	0.79747	0.62847	0.03
Mof_Ga	Ga	0.09303	0.73264	0.88002	3.571
Mof_Ga	Ga	0.44037	0.01648	0.75125	2.828
Mof_Co	Co	0.73264	0.63961	0.11998	1.204
Mof_Cr	Cr	0.89296	0.65019	0.91542	1.877
Mof_P 	P 	0.81743	0.58124	0.11949	0.641
Mof_P 	P 	0.66015	0.67319	0.27712	0.728
Mof_O 	O 	0.84299	0.63281	0.0374	-0.68
Mof_O 	O 	0.75344	0.57766	0.1564	-0.469
Mof_O 	O 	0.86796	0.6085	0.2065	-1.002
Mof_O 	O 	0.80555	0.51586	0.0893	-0.289
Mof_O 	O 	0.66919	0.62469	0.2116	-0.526
Mof_O 	O 	0.59158	0.63295	0.325	-0.488
Mof_O 	O 	0.66364	0.72848	0.2173	-0.761
Mof_O 	O 	0.71033	0.69973	0.36	-0.841
Mof_N 	N 	0.83111	0.5556	0.8693	-0.416
Mof_N 	N 	0.82396	0.6674	0.8511	-0.327
Mof_N 	N 	0.93774	0.74918	0.9413	-0.477
Mof_C 	C 	0.7709	0.5527	0.8304	-0.054
Mof_C 	C 	0.788	0.615	0.7798	-0.063
Mof_C 	C 	0.8575	0.7352	0.8169	-0.098
Mof_C 	C 	0.8973	0.7763	0.9037	-0.017
Mof_H 	H 	0.8494	0.5444	0.8202	0.131
Mof_H 	H 	0.8202	0.5275	0.9206	0.13
Mof_H 	H 	0.798	0.672	0.8939	0.13
Mof_H 	H 	0.9748	0.7646	0.9162	0.138
Mof_H 	H 	0.945	0.763	0.0051	0.146
Mof_H 	H 	0.7406	0.5471	0.8891	0.02
Mof_H 	H 	0.754	0.516	0.7878	0.031
Mof_H 	H 	0.8155	0.6216	0.7236	0.036
Mof_H 	H 	0.7477	0.6101	0.7461	0.045
Mof_H 	H 	0.8932	0.7454	0.7643	0.042
Mof_H 	H 	0.8221	0.7419	0.7956	0.058
Mof_H 	H 	0.9269	0.8196	0.8741	0.036
Mof_H 	H 	0.8692	0.772	0.9618	0.019
Mof_Ga	Ga	0.93403	0.69372	0.21335	3.596
Mof_Ga	Ga	0.65019	0.75723	0.08458	2.941
Mof_Co	Co	0.39931	0.97294	0.45331	1.208
Mof_Cr	Cr	0.55963	0.98352	0.24875	1.962
Mof_P 	P 	0.4841	0.91457	0.45282	0.641
Mof_P 	P 	0.32682	0.00652	0.61045	0.683
Mof_O 	O 	0.50966	0.96614	0.37073	-0.693
Mof_O 	O 	0.42011	0.91099	0.48973	-0.468
Mof_O 	O 	0.53463	0.94183	0.53983	-0.973
Mof_O 	O 	0.47222	0.84919	0.42263	-0.3
Mof_O 	O 	0.33586	0.95802	0.54493	-0.502
Mof_O 	O 	0.25825	0.96628	0.65833	-0.463
Mof_O 	O 	0.33031	0.06181	0.55063	-0.753
Mof_O 	O 	0.377	0.03306	0.69333	-0.83
Mof_N 	N 	0.49778	0.88893	0.20263	-0.422
Mof_N 	N 	0.49063	0.00073	0.18443	-0.349
Mof_N 	N 	0.60441	0.08251	0.27463	-0.473
Mof_C 	C 	0.43757	0.88603	0.16373	-0.063
Mof_C 	C 	0.45467	0.94833	0.11313	-0.041
Mof_C 	C 	0.52417	0.06853	0.15023	-0.101
Mof_C 	C 	0.56397	0.10963	0.23703	-0.021
Mof_H 	H 	0.51607	0.87773	0.15353	0.133
Mof_H 	H 	0.48687	0.86083	0.25393	0.138
Mof_H 	H 	0.46467	0.00533	0.22723	0.127
Mof_H 	H 	0.64147	0.09793	0.24953	0.147
Mof_H 	H 	0.61167	0.09633	0.33843	0.128
Mof_H 	H 	0.40727	0.88043	0.22243	0.028
Mof_H 	H 	0.42067	0.84933	0.12113	0.037
Mof_H 	H 	0.48217	0.95493	0.05693	0.042
Mof_H 	H 	0.41437	0.94343	0.07943	0.049
Mof_H 	H 	0.55987	0.07873	0.09763	0.047
Mof_H 	H 	0.48877	0.07523	0.12893	0.062
Mof_H 	H 	0.59357	0.15293	0.20743	0.047
Mof_H 	H 	0.53587	0.10533	0.29513	0.028
Mof_Ga	Ga	0.60069	0.02706	0.54669	3.514
Mof_Ga	Ga	0.31686	0.09056	0.41791	2.902
Mof_Co	Co	0.06597	0.30628	0.78665	1.2
Mof_Cr	Cr	0.22629	0.31686	0.58209	1.91
Mof_P 	P 	0.15076	0.24791	0.78616	0.641
Mof_P 	P 	0.99348	0.33986	0.94379	0.666
Mof_O 	O 	0.17632	0.29948	0.70407	-0.698
Mof_O 	O 	0.08677	0.24433	0.82307	-0.471
Mof_O 	O 	0.20129	0.27517	0.87317	-0.998
Mof_O 	O 	0.13888	0.18253	0.75597	-0.3
Mof_O 	O 	0.00252	0.29136	0.87827	-0.497
Mof_O 	O 	0.92491	0.29962	0.99167	-0.5
Mof_O 	O 	0.99697	0.39515	0.88397	-0.754
Mof_O 	O 	0.04366	0.3664	0.02667	-0.806
Mof_N 	N 	0.16444	0.22227	0.53597	-0.418
Mof_N 	N 	0.15729	0.33407	0.51777	-0.33
Mof_N 	N 	0.27107	0.41585	0.60797	-0.463
Mof_C 	C 	0.10423	0.21937	0.49707	-0.056
Mof_C 	C 	0.12133	0.28167	0.44647	-0.061
Mof_C 	C 	0.19083	0.40187	0.48357	-0.097
Mof_C 	C 	0.23063	0.44297	0.57037	-0.021
Mof_H 	H 	0.18273	0.21107	0.48687	0.131
Mof_H 	H 	0.15353	0.19417	0.58727	0.138
Mof_H 	H 	0.13133	0.33867	0.56057	0.135
Mof_H 	H 	0.30813	0.43127	0.58287	0.149
Mof_H 	H 	0.27833	0.42967	0.67177	0.129
Mof_H 	H 	0.07393	0.21377	0.55577	0.03
Mof_H 	H 	0.08733	0.18267	0.45447	0.037
Mof_H 	H 	0.14883	0.28827	0.39027	0.036
Mof_H 	H 	0.08103	0.27677	0.41277	0.052
Mof_H 	H 	0.22653	0.41207	0.43097	0.044
Mof_H 	H 	0.15543	0.40857	0.46227	0.058
Mof_H 	H 	0.26023	0.48627	0.54077	0.045
Mof_H 	H 	0.20253	0.43867	0.62847	0.03
Mof_Ga	Ga	0.26736	0.36039	0.88002	3.551
Mof_Ga	Ga	0.98352	0.4239	0.75125	2.827
Mof_P 	P 	0.58124	0.76381	0.88051	0.675
Mof_P 	P 	0.67319	0.01304	0.72288	0.788
Mof_O 	O 	0.63281	0.78982	0.9626	-0.919
Mof_O 	O 	0.57766	0.82422	0.8436	-0.976
Mof_O 	O 	0.6085	0.74054	0.7935	-0.507
Mof_O 	O 	0.51586	0.71031	0.9107	-0.33
Mof_O 	O 	0.62469	0.9555	0.7884	-1.016
Mof_O 	O 	0.63295	0.04137	0.675	-0.989
Mof_O 	O 	0.72848	0.06484	0.7827	-0.625
Mof_O 	O 	0.69973	0.9894	0.64	-0.697
Mof_N 	N 	0.5556	0.72449	0.1307	-0.538
Mof_N 	N 	0.6674	0.84344	0.1489	-0.45
Mof_N 	N 	0.74918	0.81144	0.0587	-0.564
Mof_C 	C 	0.5527	0.7818	0.1696	-0.068
Mof_C 	C 	0.615	0.827	0.2202	-0.078
Mof_C 	C 	0.7352	0.8777	0.1831	-0.075
Mof_C 	C 	0.7763	0.879	0.0963	-0.048
Mof_H 	H 	0.5444	0.695	0.1798	0.143
Mof_H 	H 	0.5275	0.7073	0.0794	0.148
Mof_H 	H 	0.672	0.874	0.1061	0.138
Mof_H 	H 	0.7646	0.7898	0.0838	0.167
Mof_H 	H 	0.763	0.818	0.9949	0.14
Mof_H 	H 	0.5471	0.8065	0.1109	0.013
Mof_H 	H 	0.516	0.762	0.2122	0.042
Mof_H 	H 	0.6216	0.8061	0.2764	0.035
Mof_H 	H 	0.6101	0.8624	0.2539	0.047
Mof_H 	H 	0.7454	0.8522	0.2357	0.024
Mof_H 	H 	0.7419	0.9198	0.2044	0.024
Mof_H 	H 	0.8196	0.8927	0.1259	0.052
Mof_H 	H 	0.772	0.9028	0.0382	0.033
Mof_P 	P 	0.24791	0.09714	0.21384	0.675
Mof_P 	P 	0.33986	0.34637	0.05621	0.851
Mof_O 	O 	0.29948	0.12315	0.29593	-0.901
Mof_O 	O 	0.24433	0.15755	0.17693	-0.977
Mof_O 	O 	0.27517	0.07387	0.12683	-0.508
Mof_O 	O 	0.18253	0.04364	0.24403	-0.326
Mof_O 	O 	0.29136	0.28883	0.12173	-1.044
Mof_O 	O 	0.29962	0.3747	0.00833	-0.982
Mof_O 	O 	0.39515	0.39817	0.11603	-0.63
Mof_O 	O 	0.3664	0.32273	0.97333	-0.741
Mof_N 	N 	0.22227	0.05782	0.46403	-0.532
Mof_N 	N 	0.33407	0.17677	0.48223	-0.446
Mof_N 	N 	0.41585	0.14477	0.39203	-0.58
Mof_C 	C 	0.21937	0.11513	0.50293	-0.068
Mof_C 	C 	0.28167	0.16033	0.55353	-0.079
Mof_C 	C 	0.40187	0.21103	0.51643	-0.077
Mof_C 	C 	0.44297	0.21233	0.42963	-0.043
Mof_H 	H 	0.21107	0.02833	0.51313	0.133
Mof_H 	H 	0.19417	0.04063	0.41273	0.136
Mof_H 	H 	0.33867	0.20733	0.43943	0.132
Mof_H 	H 	0.43127	0.12313	0.41713	0.166
Mof_H 	H 	0.42967	0.15133	0.32823	0.161
Mof_H 	H 	0.21377	0.13983	0.44423	0.01
Mof_H 	H 	0.18267	0.09533	0.54553	0.039
Mof_H 	H 	0.28827	0.13943	0.60973	0.034
Mof_H 	H 	0.27677	0.19573	0.58723	0.047
Mof_H 	H 	0.41207	0.18553	0.56903	0.024
Mof_H 	H 	0.40857	0.25313	0.53773	0.018
Mof_H 	H 	0.48627	0.22603	0.45923	0.045
Mof_H 	H 	0.43867	0.23613	0.37153	0.02
Mof_P 	P 	0.91457	0.43048	0.54718	0.671
Mof_P 	P 	0.00652	0.67971	0.38955	0.874
Mof_O 	O 	0.96614	0.45649	0.62927	-0.897
Mof_O 	O 	0.91099	0.49089	0.51027	-0.966
Mof_O 	O 	0.94183	0.40721	0.46017	-0.516
Mof_O 	O 	0.84919	0.37698	0.57737	-0.318
Mof_O 	O 	0.95802	0.62217	0.45507	-1.052
Mof_O 	O 	0.96628	0.70804	0.34167	-1.024
Mof_O 	O 	0.06181	0.73151	0.44937	-0.631
Mof_O 	O 	0.03306	0.65607	0.30667	-0.733
Mof_N 	N 	0.88893	0.39116	0.79737	-0.529
Mof_N 	N 	0.00073	0.51011	0.81557	-0.421
Mof_N 	N 	0.08251	0.47811	0.72537	-0.567
Mof_C 	C 	0.88603	0.44847	0.83627	-0.057
Mof_C 	C 	0.94833	0.49367	0.88687	-0.104
Mof_C 	C 	0.06853	0.54437	0.84977	-0.073
Mof_C 	C 	0.10963	0.54567	0.76297	-0.042
Mof_H 	H 	0.87773	0.36167	0.84647	0.14
Mof_H 	H 	0.86083	0.37397	0.74607	0.141
Mof_H 	H 	0.00533	0.54067	0.77277	0.14
Mof_H 	H 	0.09793	0.45647	0.75047	0.169
Mof_H 	H 	0.09633	0.48467	0.66157	0.162
Mof_H 	H 	0.88043	0.47317	0.77757	0.006
Mof_H 	H 	0.84933	0.42867	0.87887	0.033
Mof_H 	H 	0.95493	0.47277	0.94307	0.029
Mof_H 	H 	0.94343	0.52907	0.92057	0.042
Mof_H 	H 	0.07873	0.51887	0.90237	0.023
Mof_H 	H 	0.07523	0.58647	0.87107	0.016
Mof_H 	H 	0.15293	0.55937	0.79257	0.043
Mof_H 	H 	0.10533	0.56947	0.70487	0.022
Mof_P 	P 	0.23619	0.81743	0.88051	0.675
Mof_P 	P 	0.98696	0.66015	0.72288	0.788
Mof_O 	O 	0.21018	0.84299	0.9626	-0.916
Mof_O 	O 	0.17578	0.75344	0.8436	-0.977
Mof_O 	O 	0.25946	0.86796	0.7935	-0.504
Mof_O 	O 	0.28969	0.80555	0.9107	-0.328
Mof_O 	O 	0.0445	0.66919	0.7884	-1.016
Mof_O 	O 	0.95863	0.59158	0.675	-0.99
Mof_O 	O 	0.93516	0.66364	0.7827	-0.625
Mof_O 	O 	0.0106	0.71033	0.64	-0.697
Mof_N 	N 	0.27551	0.83111	0.1307	-0.538
Mof_N 	N 	0.15656	0.82396	0.1489	-0.449
Mof_N 	N 	0.18856	0.93774	0.0587	-0.572
Mof_C 	C 	0.2182	0.7709	0.1696	-0.068
Mof_C 	C 	0.173	0.788	0.2202	-0.078
Mof_C 	C 	0.1223	0.8575	0.1831	-0.077
Mof_C 	C 	0.121	0.8973	0.0963	-0.046
Mof_H 	H 	0.305	0.8494	0.1798	0.143
Mof_H 	H 	0.2927	0.8202	0.0794	0.147
Mof_H 	H 	0.126	0.798	0.1061	0.137
Mof_H 	H 	0.2102	0.9748	0.0838	0.178
Mof_H 	H 	0.182	0.945	0.9949	0.151
Mof_H 	H 	0.1935	0.7406	0.1109	0.013
Mof_H 	H 	0.238	0.754	0.2122	0.042
Mof_H 	H 	0.1939	0.8155	0.2764	0.035
Mof_H 	H 	0.1376	0.7477	0.2539	0.047
Mof_H 	H 	0.1478	0.8932	0.2357	0.028
Mof_H 	H 	0.0802	0.8221	0.2044	0.026
Mof_H 	H 	0.1073	0.9269	0.1259	0.059
Mof_H 	H 	0.0972	0.8692	0.0382	0.033
Mof_P 	P 	0.90286	0.15076	0.21384	0.675
Mof_P 	P 	0.65363	0.99348	0.05621	0.891
Mof_O 	O 	0.87685	0.17632	0.29593	-0.901
Mof_O 	O 	0.84245	0.08677	0.17693	-0.98
Mof_O 	O 	0.92613	0.20129	0.12683	-0.508
Mof_O 	O 	0.95636	0.13888	0.24403	-0.332
Mof_O 	O 	0.71117	0.00252	0.12173	-1.069
Mof_O 	O 	0.6253	0.92491	0.00833	-0.987
Mof_O 	O 	0.60183	0.99697	0.11603	-0.629
Mof_O 	O 	0.67727	0.04366	0.97333	-0.765
Mof_N 	N 	0.94218	0.16444	0.46403	-0.532
Mof_N 	N 	0.82323	0.15729	0.48223	-0.446
Mof_N 	N 	0.85523	0.27107	0.39203	-0.58
Mof_C 	C 	0.88487	0.10423	0.50293	-0.065
Mof_C 	C 	0.83967	0.12133	0.55353	-0.08
Mof_C 	C 	0.78897	0.19083	0.51643	-0.078
Mof_C 	C 	0.78767	0.23063	0.42963	-0.042
Mof_H 	H 	0.97167	0.18273	0.51313	0.132
Mof_H 	H 	0.95937	0.15353	0.41273	0.133
Mof_H 	H 	0.79267	0.13133	0.43943	0.131
Mof_H 	H 	0.87687	0.30813	0.41713	0.166
Mof_H 	H 	0.84867	0.27833	0.32823	0.161
Mof_H 	H 	0.86017	0.07393	0.44423	0.002
Mof_H 	H 	0.90467	0.08733	0.54553	0.03
Mof_H 	H 	0.86057	0.14883	0.60973	0.034
Mof_H 	H 	0.80427	0.08103	0.58723	0.04
Mof_H 	H 	0.81447	0.22653	0.56903	0.024
Mof_H 	H 	0.74687	0.15543	0.53773	0.019
Mof_H 	H 	0.77397	0.26023	0.45923	0.045
Mof_H 	H 	0.76387	0.20253	0.37153	0.019
Mof_P 	P 	0.56952	0.4841	0.54718	0.675
Mof_P 	P 	0.32029	0.32682	0.38955	0.836
Mof_O 	O 	0.54351	0.50966	0.62927	-0.901
Mof_O 	O 	0.50911	0.42011	0.51027	-0.978
Mof_O 	O 	0.59279	0.53463	0.46017	-0.506
Mof_O 	O 	0.62302	0.47222	0.57737	-0.32
Mof_O 	O 	0.37783	0.33586	0.45507	-1.045
Mof_O 	O 	0.29196	0.25825	0.34167	-1.002
Mof_O 	O 	0.26849	0.33031	0.44937	-0.631
Mof_O 	O 	0.34393	0.377	0.30667	-0.728
Mof_N 	N 	0.60884	0.49778	0.79737	-0.534
Mof_N 	N 	0.48989	0.49063	0.81557	-0.448
Mof_N 	N 	0.52189	0.60441	0.72537	-0.58
Mof_C 	C 	0.55153	0.43757	0.83627	-0.07
Mof_C 	C 	0.50633	0.45467	0.88687	-0.074
Mof_C 	C 	0.45563	0.52417	0.84977	-0.074
Mof_C 	C 	0.45433	0.56397	0.76297	-0.044
Mof_H 	H 	0.63833	0.51607	0.84647	0.14
Mof_H 	H 	0.62603	0.48687	0.74607	0.141
Mof_H 	H 	0.45933	0.46467	0.77277	0.132
Mof_H 	H 	0.54353	0.64147	0.75047	0.166
Mof_H 	H 	0.51533	0.61167	0.66157	0.161
Mof_H 	H 	0.52683	0.40727	0.77757	0.01
Mof_H 	H 	0.57133	0.42067	0.87887	0.037
Mof_H 	H 	0.52723	0.48217	0.94307	0.026
Mof_H 	H 	0.47093	0.41437	0.92057	0.041
Mof_H 	H 	0.48113	0.55987	0.90237	0.017
Mof_H 	H 	0.41353	0.48877	0.87107	0.013
Mof_H 	H 	0.44063	0.59357	0.79257	0.043
Mof_H 	H 	0.43053	0.53587	0.70487	0.02
Mof_P 	P 	0.18257	0.41876	0.88051	0.675
Mof_P 	P 	0.33985	0.32681	0.72288	0.834
Mof_O 	O 	0.15701	0.36719	0.9626	-0.918
Mof_O 	O 	0.24656	0.42234	0.8436	-0.973
Mof_O 	O 	0.13204	0.3915	0.7935	-0.504
Mof_O 	O 	0.19445	0.48414	0.9107	-0.328
Mof_O 	O 	0.33081	0.37531	0.7884	-1.037
Mof_O 	O 	0.40842	0.36705	0.675	-1.002
Mof_O 	O 	0.33636	0.27152	0.7827	-0.626
Mof_O 	O 	0.28967	0.30027	0.64	-0.727
Mof_N 	N 	0.16889	0.4444	0.1307	-0.539
Mof_N 	N 	0.17604	0.3326	0.1489	-0.449
Mof_N 	N 	0.06226	0.25082	0.0587	-0.569
Mof_C 	C 	0.2291	0.4473	0.1696	-0.068
Mof_C 	C 	0.212	0.385	0.2202	-0.079
Mof_C 	C 	0.1425	0.2648	0.1831	-0.075
Mof_C 	C 	0.1027	0.2237	0.0963	-0.046
Mof_H 	H 	0.1506	0.4556	0.1798	0.143
Mof_H 	H 	0.1798	0.4725	0.0794	0.148
Mof_H 	H 	0.202	0.328	0.1061	0.136
Mof_H 	H 	0.0252	0.2354	0.0838	0.177
Mof_H 	H 	0.055	0.237	0.9949	0.146
Mof_H 	H 	0.2594	0.4529	0.1109	0.013
Mof_H 	H 	0.246	0.484	0.2122	0.042
Mof_H 	H 	0.1845	0.3784	0.2764	0.035
Mof_H 	H 	0.2523	0.3899	0.2539	0.047
Mof_H 	H 	0.1068	0.2546	0.2357	0.026
Mof_H 	H 	0.1779	0.2581	0.2044	0.018
Mof_H 	H 	0.0731	0.1804	0.1259	0.053
Mof_H 	H 	0.1308	0.228	0.0382	0.029
Mof_P 	P 	0.84924	0.75209	0.21384	0.675
Mof_P 	P 	0.00652	0.66014	0.05621	0.89
Mof_O 	O 	0.82368	0.70052	0.29593	-0.901
Mof_O 	O 	0.91323	0.75567	0.17693	-0.978
Mof_O 	O 	0.79871	0.72483	0.12683	-0.5
Mof_O 	O 	0.86112	0.81747	0.24403	-0.319
Mof_O 	O 	0.99748	0.70864	0.12173	-1.069
Mof_O 	O 	0.07509	0.70038	0.00833	-0.989
Mof_O 	O 	0.00303	0.60485	0.11603	-0.629
Mof_O 	O 	0.95634	0.6336	0.97333	-0.764
Mof_N 	N 	0.83556	0.77773	0.46403	-0.535
Mof_N 	N 	0.84271	0.66593	0.48223	-0.446
Mof_N 	N 	0.72893	0.58415	0.39203	-0.58
Mof_C 	C 	0.89577	0.78063	0.50293	-0.066
Mof_C 	C 	0.87867	0.71833	0.55353	-0.08
Mof_C 	C 	0.80917	0.59813	0.51643	-0.078
Mof_C 	C 	0.76937	0.55703	0.42963	-0.042
Mof_H 	H 	0.81727	0.78893	0.51313	0.142
Mof_H 	H 	0.84647	0.80583	0.41273	0.141
Mof_H 	H 	0.86867	0.66133	0.43943	0.131
Mof_H 	H 	0.69187	0.56873	0.41713	0.167
Mof_H 	H 	0.72167	0.57033	0.32823	0.161
Mof_H 	H 	0.92607	0.78623	0.44423	0.004
Mof_H 	H 	0.91267	0.81733	0.54553	0.036
Mof_H 	H 	0.85117	0.71173	0.60973	0.035
Mof_H 	H 	0.91897	0.72323	0.58723	0.04
Mof_H 	H 	0.77347	0.58793	0.56903	0.024
Mof_H 	H 	0.84457	0.59143	0.53773	0.019
Mof_H 	H 	0.73977	0.51373	0.45923	0.045
Mof_H 	H 	0.79747	0.56133	0.37153	0.019
Mof_P 	P 	0.5159	0.08543	0.54718	0.671
Mof_P 	P 	0.67318	0.99348	0.38955	0.874
Mof_O 	O 	0.49034	0.03386	0.62927	-0.898
Mof_O 	O 	0.57989	0.08901	0.51027	-0.966
Mof_O 	O 	0.46537	0.05817	0.46017	-0.517
Mof_O 	O 	0.52778	0.15081	0.57737	-0.318
Mof_O 	O 	0.66414	0.04198	0.45507	-1.052
Mof_O 	O 	0.74175	0.03372	0.34167	-1.024
Mof_O 	O 	0.66969	0.93819	0.44937	-0.632
Mof_O 	O 	0.623	0.96694	0.30667	-0.733
Mof_N 	N 	0.50222	0.11107	0.79737	-0.529
Mof_N 	N 	0.50937	0.99927	0.81557	-0.421
Mof_N 	N 	0.39559	0.91749	0.72537	-0.567
Mof_C 	C 	0.56243	0.11397	0.83627	-0.057
Mof_C 	C 	0.54533	0.05167	0.88687	-0.104
Mof_C 	C 	0.47583	0.93147	0.84977	-0.073
Mof_C 	C 	0.43603	0.89037	0.76297	-0.042
Mof_H 	H 	0.48393	0.12227	0.84647	0.14
Mof_H 	H 	0.51313	0.13917	0.74607	0.141
Mof_H 	H 	0.53533	0.99467	0.77277	0.14
Mof_H 	H 	0.35853	0.90207	0.75047	0.169
Mof_H 	H 	0.38833	0.90367	0.66157	0.162
Mof_H 	H 	0.59273	0.11957	0.77757	0.006
Mof_H 	H 	0.57933	0.15067	0.87887	0.033
Mof_H 	H 	0.51783	0.04507	0.94307	0.029
Mof_H 	H 	0.58563	0.05657	0.92057	0.042
Mof_H 	H 	0.44013	0.92127	0.90237	0.024
Mof_H 	H 	0.51123	0.92477	0.87107	0.016
Mof_H 	H 	0.40643	0.84707	0.79257	0.043
Mof_H 	H 	0.46413	0.89467	0.70487	0.022
_end
