data_functionalizedCrystal
_audit_creation_method	'EQeq! by Chris Wilmer'
_symmetry_space_group_name_H-M	'P1'
_symmetry_Int_Tables_number	1
_symmetry_cell_setting	triclinic
loop_
_symmetry_equiv_pos_as_xyz
  x,y,z
_cell_length_a	10.504
_cell_length_b	12.106
_cell_length_c	12.411
_cell_angle_alpha	66.78
_cell_angle_beta	70.34
_cell_angle_gamma	65.04
loop_
_atom_site_label
_atom_site_type_symbol
_atom_site_fract_x
_atom_site_fract_y
_atom_site_fract_z
_atom_site_charge
Mof_O 	O 	0.8108	0.591	0.823	-0.463
Mof_Co	Co	0.84096	0.40953	0.90888	1.182
Mof_O 	O 	0.822	0.2045	0.0538	-0.393
Mof_O 	O 	0.6971	0.399	0.0648	-0.574
Mof_O 	O 	0.8019	0.358	0.7965	-0.471
Mof_O 	O 	0.5683	0.3948	0.8789	-0.445
Mof_O 	O 	0.5714	0.6479	0.8702	-0.451
Mof_O 	O 	0.8201	0.9243	0.4296	-0.246
Mof_O 	O 	0.8102	0.9795	0.7737	-0.22
Mof_O 	O 	0.8051	0.3055	0.4279	-0.247
Mof_N 	N 	0.2666	0.2253	0.9443	-0.148
Mof_N 	N 	0.047	0.3492	0.922	-0.239
Mof_N 	N 	0.818	0.9471	0.6028	-0.202
Mof_N 	N 	0.8145	0.1425	0.6019	-0.202
Mof_N 	N 	0.8189	0.1148	0.4244	-0.213
Mof_C 	C 	0.8125	0.0199	0.6677	0.258
Mof_C 	C 	0.8109	0.1955	0.4814	0.282
Mof_C 	C 	0.8168	0.9913	0.4822	0.292
Mof_C 	C 	0.4963	0.1134	0.0066	-0.261
Mof_H 	H 	0.4939	0.1891	0.0111	0.118
Mof_C 	C 	0.3855	0.1109	0.9729	0.23
Mof_C 	C 	0.6808	0.352	0.8084	0.484
Mof_C 	C 	0.1339	0.4234	0.8786	0.004
Mof_H 	H 	0.1039	0.5115	0.8448	0.036
Mof_C 	C 	0.8355	0.1616	0.2933	0.15
Mof_H 	H 	0.8943	0.0903	0.2612	0.018
Mof_H 	H 	0.8866	0.222	0.2617	0.005
Mof_C 	C 	0.2688	0.3484	0.8927	0.012
Mof_H 	H 	0.3476	0.3746	0.8717	0.049
Mof_C 	C 	0.6727	0.2849	0.7318	-0.457
Mof_H 	H 	0.6141	0.3465	0.6738	0.182
Mof_H 	H 	0.6269	0.2216	0.7822	0.195
Mof_C 	C 	0.7386	0.2758	0.1143	0.431
Mof_C 	C 	0.3876	0.9982	0.966	-0.176
Mof_H 	H 	0.3124	0.997	0.9433	0.121
Mof_C 	C 	0.1303	0.2314	0.9608	0.117
Mof_H 	H 	0.0994	0.1612	0.9954	0.021
Mof_C 	C 	0.8207	0.22	0.666	0.143
Mof_H 	H 	0.862	0.2844	0.609	0.025
Mof_H 	H 	0.8826	0.1656	0.7232	0.029
Mof_C 	C 	0.6965	0.2253	0.2488	-0.455
Mof_H 	H 	0.6483	0.1643	0.2704	0.182
Mof_H 	H 	0.6328	0.2943	0.2829	0.186
Mof_C 	C 	0.6779	0.7997	0.7227	-0.458
Mof_H 	H 	0.6176	0.8649	0.7623	0.187
Mof_H 	H 	0.634	0.8125	0.6594	0.178
Mof_C 	C 	0.6858	0.6701	0.812	0.475
Mof_C 	C 	0.8243	0.8139	0.6685	0.149
Mof_H 	H 	0.8768	0.7815	0.7318	0.026
Mof_H 	H 	0.8767	0.7623	0.6141	0.021
Mof_O 	O 	0.1892	0.409	0.177	-0.488
Mof_Co	Co	0.15904	0.59047	0.09112	1.147
Mof_O 	O 	0.178	0.7955	0.9462	-0.338
Mof_O 	O 	0.3029	0.601	0.9352	-0.521
Mof_O 	O 	0.1981	0.642	0.2035	-0.488
Mof_O 	O 	0.4317	0.6052	0.1211	-0.482
Mof_O 	O 	0.4286	0.3521	0.1298	-0.484
Mof_O 	O 	0.1799	0.0757	0.5704	-0.251
Mof_O 	O 	0.1898	0.0205	0.2263	-0.276
Mof_O 	O 	0.1949	0.6945	0.5721	-0.25
Mof_N 	N 	0.7334	0.7747	0.0557	-0.114
Mof_N 	N 	0.953	0.6508	0.078	-0.247
Mof_N 	N 	0.182	0.0529	0.3972	-0.216
Mof_N 	N 	0.1855	0.8575	0.3981	-0.209
Mof_N 	N 	0.1811	0.8852	0.5756	-0.206
Mof_C 	C 	0.1875	0.9801	0.3323	0.294
Mof_C 	C 	0.1891	0.8045	0.5186	0.281
Mof_C 	C 	0.1832	0.0087	0.5178	0.277
Mof_C 	C 	0.5037	0.8866	0.9934	0.089
Mof_H 	H 	0.5061	0.8109	0.9889	0.037
Mof_C 	C 	0.6145	0.8891	0.0271	-0.041
Mof_C 	C 	0.3192	0.648	0.1916	0.479
Mof_C 	C 	0.8661	0.5766	0.1214	0.004
Mof_H 	H 	0.8961	0.4885	0.1552	0.028
Mof_C 	C 	0.1645	0.8384	0.7067	0.138
Mof_H 	H 	0.1057	0.9097	0.7388	0.028
Mof_H 	H 	0.1134	0.778	0.7383	0.012
Mof_C 	C 	0.7312	0.6516	0.1073	-0.022
Mof_H 	H 	0.6524	0.6254	0.1283	0.048
Mof_C 	C 	0.3273	0.7151	0.2682	-0.459
Mof_H 	H 	0.3859	0.6535	0.3262	0.183
Mof_H 	H 	0.3731	0.7784	0.2178	0.181
Mof_C 	C 	0.2614	0.7242	0.8857	0.418
Mof_C 	C 	0.6124	0.0018	0.034	0.044
Mof_H 	H 	0.6876	0.003	0.0567	0.027
Mof_C 	C 	0.8697	0.7686	0.0392	0.091
Mof_H 	H 	0.9006	0.8388	0.0046	0.004
Mof_C 	C 	0.1793	0.78	0.334	0.149
Mof_H 	H 	0.138	0.7156	0.391	0.019
Mof_H 	H 	0.1174	0.8344	0.2768	0.017
Mof_C 	C 	0.3035	0.7747	0.7512	-0.437
Mof_H 	H 	0.3517	0.8357	0.7296	0.179
Mof_H 	H 	0.3672	0.7057	0.7171	0.181
Mof_C 	C 	0.3221	0.2003	0.2773	-0.471
Mof_H 	H 	0.3824	0.1351	0.2377	0.184
Mof_H 	H 	0.366	0.1875	0.3406	0.18
Mof_C 	C 	0.3142	0.3299	0.188	0.475
Mof_C 	C 	0.1757	0.1861	0.3315	0.162
Mof_H 	H 	0.1232	0.2185	0.2682	0.008
Mof_H 	H 	0.1233	0.2377	0.3859	0.012
Mof_Co	Co	0.5	0.5	-0	1.157
_end
