data_functionalizedCrystal
_audit_creation_method	'EQeq! by Chris Wilmer'
_symmetry_space_group_name_H-M	'P1'
_symmetry_Int_Tables_number	1
_symmetry_cell_setting	triclinic
loop_
_symmetry_equiv_pos_as_xyz
  x,y,z
_cell_length_a	20.775
_cell_length_b	19.479
_cell_length_c	5.952
_cell_angle_alpha	90
_cell_angle_beta	114.1
_cell_angle_gamma	90
loop_
_atom_site_label
_atom_site_type_symbol
_atom_site_fract_x
_atom_site_fract_y
_atom_site_fract_z
_atom_site_charge
Mof_N 	N 	0.608	0.0461	0.153	-0.294
Mof_H 	H 	0.6207	0.0606	0.3091	0.075
Mof_H 	H 	0.6404	0.0165	0.1469	0.068
Mof_N 	N 	0.654	0.2036	0.879	-0.261
Mof_H 	H 	0.6209	0.2328	0.8861	0.085
Mof_H 	H 	0.6398	0.1892	0.7221	0.074
Mof_N 	N 	0.8536	0.1993	0.641	-0.29
Mof_H 	H 	0.8876	0.228	0.6422	0.095
Mof_H 	H 	0.8652	0.1826	0.794	0.091
Mof_N 	N 	0.903	0.0525	0.383	-0.263
Mof_H 	H 	0.8905	0.0696	0.2307	0.07
Mof_H 	H 	0.8685	0.0237	0.3804	0.067
Mof_C 	C 	0.5967	0.1032	0.984	0.064
Mof_H 	H 	0.5599	0.1327	0.9903	-0.017
Mof_H 	H 	0.5811	0.0857	0.8173	-0.039
Mof_C 	C 	0.6632	0.1444	0.047	-0.144
Mof_H 	H 	0.679	0.1613	0.2142	0.009
Mof_H 	H 	0.6998	0.1147	0.0395	0.02
Mof_C 	C 	0.8412	0.1442	0.463	-0.01
Mof_H 	H 	0.8291	0.1622	0.2985	-0.027
Mof_H 	H 	0.8043	0.1135	0.4608	-0.012
Mof_C 	C 	0.9121	0.109	0.561	-0.075
Mof_H 	H 	0.9489	0.1403	0.5662	0.031
Mof_H 	H 	0.9238	0.0911	0.7255	0.017
Mof_N 	N 	0.108	0.5461	0.153	-0.299
Mof_H 	H 	0.1207	0.5606	0.3091	0.08
Mof_H 	H 	0.1404	0.5165	0.1469	0.082
Mof_N 	N 	0.154	0.7036	0.879	-0.259
Mof_H 	H 	0.1209	0.7328	0.8861	0.081
Mof_H 	H 	0.1398	0.6892	0.7221	0.072
Mof_N 	N 	0.3536	0.6993	0.641	-0.286
Mof_H 	H 	0.3876	0.728	0.6422	0.089
Mof_H 	H 	0.3652	0.6826	0.794	0.087
Mof_N 	N 	0.403	0.5525	0.383	-0.284
Mof_H 	H 	0.3905	0.5696	0.2307	0.069
Mof_H 	H 	0.3685	0.5237	0.3804	0.077
Mof_C 	C 	0.0967	0.6032	0.984	0.075
Mof_H 	H 	0.0599	0.6327	0.9903	-0.029
Mof_H 	H 	0.0811	0.5857	0.8173	-0.043
Mof_C 	C 	0.1632	0.6444	0.047	-0.152
Mof_H 	H 	0.179	0.6613	0.2142	0.012
Mof_H 	H 	0.1998	0.6147	0.0395	0.025
Mof_C 	C 	0.3412	0.6442	0.463	-0.023
Mof_H 	H 	0.3291	0.6622	0.2985	-0.024
Mof_H 	H 	0.3043	0.6135	0.4608	-0.005
Mof_C 	C 	0.4121	0.609	0.561	-0.056
Mof_H 	H 	0.4489	0.6403	0.5662	0.01
Mof_H 	H 	0.4238	0.5911	0.7255	-0.002
Mof_N 	N 	0.392	0.0461	0.347	-0.27
Mof_H 	H 	0.3793	0.0606	0.1909	0.063
Mof_H 	H 	0.3596	0.0165	0.3531	0.067
Mof_N 	N 	0.346	0.2036	0.621	-0.299
Mof_H 	H 	0.3791	0.2328	0.6139	0.086
Mof_H 	H 	0.3602	0.1892	0.7779	0.087
Mof_N 	N 	0.1464	0.1993	0.859	-0.247
Mof_H 	H 	0.1124	0.228	0.8578	0.082
Mof_H 	H 	0.1348	0.1826	0.706	0.07
Mof_N 	N 	0.097	0.0525	0.117	-0.295
Mof_H 	H 	0.1095	0.0696	0.2693	0.074
Mof_H 	H 	0.1315	0.0237	0.1196	0.066
Mof_C 	C 	0.4033	0.1032	0.516	-0.048
Mof_H 	H 	0.4401	0.1327	0.5097	0.004
Mof_H 	H 	0.4189	0.0857	0.6827	-0.004
Mof_C 	C 	0.3368	0.1444	0.453	-0.037
Mof_H 	H 	0.321	0.1613	0.2858	-0.02
Mof_H 	H 	0.3002	0.1147	0.4605	-0.003
Mof_C 	C 	0.1588	0.1442	0.037	-0.13
Mof_H 	H 	0.1709	0.1622	0.2015	0.005
Mof_H 	H 	0.1957	0.1135	0.0392	0.017
Mof_C 	C 	0.0879	0.109	0.939	0.052
Mof_H 	H 	0.0511	0.1403	0.9338	-0.021
Mof_H 	H 	0.0762	0.0911	0.7745	-0.04
Mof_N 	N 	0.892	0.5461	0.347	-0.264
Mof_H 	H 	0.8793	0.5606	0.1909	0.074
Mof_H 	H 	0.8596	0.5165	0.3531	0.083
Mof_N 	N 	0.846	0.7036	0.621	-0.302
Mof_H 	H 	0.8791	0.7328	0.6139	0.091
Mof_H 	H 	0.8602	0.6892	0.7779	0.092
Mof_N 	N 	0.6464	0.6993	0.859	-0.249
Mof_H 	H 	0.6124	0.728	0.8578	0.087
Mof_H 	H 	0.6348	0.6826	0.706	0.073
Mof_N 	N 	0.597	0.5525	0.117	-0.305
Mof_H 	H 	0.6095	0.5696	0.2693	0.079
Mof_H 	H 	0.6315	0.5237	0.1196	0.077
Mof_C 	C 	0.9033	0.6032	0.516	-0.056
Mof_H 	H 	0.9401	0.6327	0.5097	0.019
Mof_H 	H 	0.9189	0.5857	0.6827	0.012
Mof_C 	C 	0.8368	0.6444	0.453	-0.03
Mof_H 	H 	0.821	0.6613	0.2858	-0.02
Mof_H 	H 	0.8002	0.6147	0.4605	-0.001
Mof_C 	C 	0.6588	0.6442	0.037	-0.132
Mof_H 	H 	0.6709	0.6622	0.2015	0.007
Mof_H 	H 	0.6957	0.6135	0.0392	0.021
Mof_C 	C 	0.5879	0.609	0.939	0.056
Mof_H 	H 	0.5511	0.6403	0.9338	-0.015
Mof_H 	H 	0.5762	0.5911	0.7745	-0.04
Mof_N 	N 	0.392	0.9539	0.847	-0.239
Mof_H 	H 	0.3793	0.9394	0.6909	0.086
Mof_H 	H 	0.3596	0.9835	0.8531	0.105
Mof_N 	N 	0.346	0.7964	0.121	-0.312
Mof_H 	H 	0.3791	0.7672	0.1139	0.077
Mof_H 	H 	0.3602	0.8108	0.2779	0.081
Mof_N 	N 	0.1464	0.8007	0.359	-0.277
Mof_H 	H 	0.1124	0.772	0.3578	0.076
Mof_H 	H 	0.1348	0.8174	0.206	0.068
Mof_N 	N 	0.097	0.9475	0.617	-0.279
Mof_H 	H 	0.1095	0.9304	0.7693	0.096
Mof_H 	H 	0.1315	0.9763	0.6196	0.102
Mof_C 	C 	0.4033	0.8968	0.016	-0.134
Mof_H 	H 	0.4401	0.8673	0.0097	0.024
Mof_H 	H 	0.4189	0.9143	0.1827	0.023
Mof_C 	C 	0.3368	0.8556	0.953	0.052
Mof_H 	H 	0.321	0.8387	0.7858	-0.038
Mof_H 	H 	0.3002	0.8853	0.9605	-0.009
Mof_C 	C 	0.1588	0.8558	0.537	-0.046
Mof_H 	H 	0.1709	0.8378	0.7015	-0.006
Mof_H 	H 	0.1957	0.8865	0.5392	0.009
Mof_C 	C 	0.0879	0.891	0.439	-0.033
Mof_H 	H 	0.0511	0.8597	0.4338	-0.003
Mof_H 	H 	0.0762	0.9089	0.2745	-0.007
Mof_N 	N 	0.892	0.4539	0.847	-0.236
Mof_H 	H 	0.8793	0.4394	0.6909	0.079
Mof_H 	H 	0.8596	0.4835	0.8531	0.089
Mof_N 	N 	0.846	0.2964	0.121	-0.314
Mof_H 	H 	0.8791	0.2672	0.1139	0.082
Mof_H 	H 	0.8602	0.3108	0.2779	0.083
Mof_N 	N 	0.6464	0.3007	0.359	-0.278
Mof_H 	H 	0.6124	0.272	0.3578	0.08
Mof_H 	H 	0.6348	0.3174	0.206	0.068
Mof_N 	N 	0.597	0.4475	0.617	-0.291
Mof_H 	H 	0.6095	0.4304	0.7693	0.087
Mof_H 	H 	0.6315	0.4763	0.6196	0.086
Mof_C 	C 	0.9033	0.3968	0.016	-0.144
Mof_H 	H 	0.9401	0.3673	0.0097	0.035
Mof_H 	H 	0.9189	0.4143	0.1827	0.026
Mof_C 	C 	0.8368	0.3556	0.953	0.059
Mof_H 	H 	0.821	0.3387	0.7858	-0.04
Mof_H 	H 	0.8002	0.3853	0.9605	-0.016
Mof_C 	C 	0.6588	0.3558	0.537	-0.042
Mof_H 	H 	0.6709	0.3378	0.7015	-0.008
Mof_H 	H 	0.6957	0.3865	0.5392	0.003
Mof_C 	C 	0.5879	0.391	0.439	-0.037
Mof_H 	H 	0.5511	0.3597	0.4338	0.002
Mof_H 	H 	0.5762	0.4089	0.2745	-0.019
Mof_N 	N 	0.608	0.9539	0.653	-0.276
Mof_H 	H 	0.6207	0.9394	0.8091	0.1
Mof_H 	H 	0.6404	0.9835	0.6469	0.106
Mof_N 	N 	0.654	0.7964	0.379	-0.292
Mof_H 	H 	0.6209	0.7672	0.3861	0.078
Mof_H 	H 	0.6398	0.8108	0.2221	0.072
Mof_N 	N 	0.8536	0.8007	0.141	-0.306
Mof_H 	H 	0.8876	0.772	0.1422	0.088
Mof_H 	H 	0.8652	0.8174	0.294	0.086
Mof_N 	N 	0.903	0.9475	0.883	-0.232
Mof_H 	H 	0.8905	0.9304	0.7307	0.089
Mof_H 	H 	0.8685	0.9763	0.8804	0.101
Mof_C 	C 	0.5967	0.8968	0.484	-0.025
Mof_H 	H 	0.5599	0.8673	0.4903	0.001
Mof_H 	H 	0.5811	0.9143	0.3173	-0.006
Mof_C 	C 	0.6632	0.8556	0.547	-0.059
Mof_H 	H 	0.679	0.8387	0.7142	-0.001
Mof_H 	H 	0.6998	0.8853	0.5395	0.012
Mof_C 	C 	0.8412	0.8558	0.963	0.077
Mof_H 	H 	0.8291	0.8378	0.7985	-0.045
Mof_H 	H 	0.8043	0.8865	0.9608	-0.019
Mof_C 	C 	0.9121	0.891	0.061	-0.157
Mof_H 	H 	0.9489	0.8597	0.0662	0.05
Mof_H 	H 	0.9238	0.9089	0.2255	0.042
Mof_N 	N 	0.108	0.4539	0.653	-0.282
Mof_H 	H 	0.1207	0.4394	0.8091	0.089
Mof_H 	H 	0.1404	0.4835	0.6469	0.09
Mof_N 	N 	0.154	0.2964	0.379	-0.289
Mof_H 	H 	0.1209	0.2672	0.3861	0.074
Mof_H 	H 	0.1398	0.3108	0.2221	0.067
Mof_N 	N 	0.3536	0.3007	0.141	-0.303
Mof_H 	H 	0.3876	0.272	0.1422	0.081
Mof_H 	H 	0.3652	0.3174	0.294	0.079
Mof_N 	N 	0.403	0.4475	0.883	-0.253
Mof_H 	H 	0.3905	0.4304	0.7307	0.074
Mof_H 	H 	0.3685	0.4763	0.8804	0.084
Mof_C 	C 	0.0967	0.3968	0.484	-0.017
Mof_H 	H 	0.0599	0.3673	0.4903	-0.013
Mof_H 	H 	0.0811	0.4143	0.3173	-0.023
Mof_C 	C 	0.1632	0.3556	0.547	-0.064
Mof_H 	H 	0.179	0.3387	0.7142	-0.001
Mof_H 	H 	0.1998	0.3853	0.5395	0.009
Mof_C 	C 	0.3412	0.3558	0.963	0.074
Mof_H 	H 	0.3291	0.3378	0.7985	-0.046
Mof_H 	H 	0.3043	0.3865	0.9608	-0.022
Mof_C 	C 	0.4121	0.391	0.061	-0.147
Mof_H 	H 	0.4489	0.3597	0.0662	0.028
Mof_H 	H 	0.4238	0.4089	0.2255	0.012
Mof_Ag	Ag	0.5	0	-0	0.239
Mof_Ag	Ag	-0	0.5	-0	0.242
Mof_Ag	Ag	0.5	0	0.5	0.32
Mof_Ag	Ag	1.29267e-17	0.5	0.5	0.32
Mof_Ag	Ag	0.75	0.25	-0	0.343
Mof_Ag	Ag	0.25	0.25	0.5	0.425
Mof_Ag	Ag	0.25	0.75	-0	0.343
Mof_Ag	Ag	0.75	0.75	0.5	0.429
Mof_Ag	Ag	0.75	0.25	0.5	0.368
Mof_Ag	Ag	0.25	0.25	-0	0.285
Mof_Ag	Ag	0.25	0.75	0.5	0.369
Mof_Ag	Ag	0.75	0.75	-0	0.29
Mof_Ag	Ag	7.56412e-34	0	0.5	0.299
Mof_Ag	Ag	0.5	0.5	0.5	0.395
Mof_Ag	Ag	-0	0	-0	0.22
Mof_Ag	Ag	0.5	0.5	-0	0.311
_end
