data_functionalizedCrystal
_audit_creation_method	'EQeq! by Chris Wilmer'
_symmetry_space_group_name_H-M	'P1'
_symmetry_Int_Tables_number	1
_symmetry_cell_setting	triclinic
loop_
_symmetry_equiv_pos_as_xyz
  x,y,z
_cell_length_a	21.23
_cell_length_b	32.113
_cell_length_c	14.917
_cell_angle_alpha	90
_cell_angle_beta	132.847
_cell_angle_gamma	90
loop_
_atom_site_label
_atom_site_type_symbol
_atom_site_fract_x
_atom_site_fract_y
_atom_site_fract_z
_atom_site_charge
Mof_Cd	Cd	0.73141	0.46809	0.50656	0.477
Mof_Cd	Cd	0.72967	0.90828	0.85213	0.442
Mof_Cd	Cd	0.23267	0.96273	0.22703	0.436
Mof_N 	N 	0.5859	0.4711	0.3697	-0.148
Mof_N 	N 	0.4543	0.4503	0.2226	-0.222
Mof_H 	H 	0.4109	0.4339	0.1766	0.155
Mof_N 	N 	0.1328	0.4526	0.8241	-0.152
Mof_N 	N 	0.0029	0.4757	0.7183	-0.214
Mof_H 	H 	0.9478	0.4759	0.6694	0.161
Mof_N 	N 	0.3721	0.9612	0.3585	-0.135
Mof_N 	N 	0.5068	0.9394	0.4899	-0.216
Mof_H 	H 	0.5504	0.923	0.5342	0.155
Mof_N 	N 	0.8278	0.9471	0.8743	-0.152
Mof_N 	N 	0.9595	0.9658	0.9725	-0.214
Mof_H 	H 	0.0147	0.9653	0.0237	0.146
Mof_O 	O 	0.8267	0.5152	0.5171	-0.272
Mof_O 	O 	0.752	0.5359	0.5594	-0.283
Mof_O 	O 	0.7086	0.8558	0.9404	-0.252
Mof_O 	O 	0.8268	0.89277	0.0611	-0.296
Mof_O 	O 	0.2124	0.8818	0.1849	-0.256
Mof_O 	O 	0.1158	0.93098	0.0689	-0.293
Mof_O 	O 	0.1593	0.01859	0.2199	-0.287
Mof_O 	O 	0.2293	0.03228	0.1644	-0.299
Mof_O 	O 	0.2618	0.3527	0.7763	-0.262
Mof_O 	O 	0.1395	0.38554	0.6525	-0.289
Mof_O 	O 	0.796	0.3683	0.4985	-0.231
Mof_O 	O 	0.8382	0.42221	0.6214	-0.274
Mof_O 	O 	0.7062	0.42934	0.3484	-0.605
Mof_H 	H 	0.6768	0.4078	0.3323	0.303
Mof_H 	H 	0.6788	0.4444	0.2846	0.268
Mof_C 	C 	0.8018	0.5436	0.5426	0.31
Mof_C 	C 	0.8274	0.5878	0.5514	-0.098
Mof_C 	C 	0.8212	0.6157	0.616	0.027
Mof_H 	H 	0.8048	0.6064	0.6566	0.046
Mof_C 	C 	0.8395	0.6574	0.6203	-0.106
Mof_H 	H 	0.8384	0.6755	0.6677	0.074
Mof_C 	C 	0.8592	0.6724	0.5563	0.041
Mof_C 	C 	0.8655	0.6447	0.4923	-0.108
Mof_H 	H 	0.8798	0.6544	0.4493	0.071
Mof_C 	C 	0.8506	0.602	0.4913	0.031
Mof_H 	H 	0.8565	0.5835	0.4496	0.033
Mof_C 	C 	0.8772	0.7176	0.5614	0.041
Mof_C 	C 	0.9167	0.741	0.6681	-0.116
Mof_H 	H 	0.9322	0.7281	0.7365	0.074
Mof_C 	C 	0.9325	0.783	0.6715	0.047
Mof_C 	C 	0.908	0.8023	0.5684	-0.114
Mof_H 	H 	0.9176	0.8307	0.5707	0.069
Mof_C 	C 	0.869	0.78	0.4609	0.047
Mof_C 	C 	0.8542	0.7376	0.4587	-0.113
Mof_H 	H 	0.8287	0.7222	0.3883	0.072
Mof_C 	C 	0.8477	0.8011	0.3548	0.036
Mof_C 	C 	0.8979	0.8338	0.3704	-0.106
Mof_H 	H 	0.9466	0.8422	0.4488	0.068
Mof_C 	C 	0.8762	0.8536	0.2717	0.024
Mof_H 	H 	0.9109	0.875	0.2841	0.028
Mof_C 	C 	0.8024	0.8424	0.1516	-0.093
Mof_C 	C 	0.7535	0.8094	0.136	0.024
Mof_H 	H 	0.7051	0.8009	0.0574	0.036
Mof_C 	C 	0.7757	0.7891	0.2357	-0.103
Mof_H 	H 	0.7422	0.767	0.2232	0.071
Mof_C 	C 	0.7772	0.8652	0.0441	0.292
Mof_C 	C 	0.9794	0.8088	0.7838	0.041
Mof_C 	C 	0.953	0.8493	0.7755	-0.108
Mof_H 	H 	0.9	0.8584	0.7031	0.072
Mof_C 	C 	0.0052	0.8765	0.8752	0.035
Mof_H 	H 	0.9885	0.904	0.8671	0.035
Mof_C 	C 	0.0809	0.8626	0.9846	-0.085
Mof_C 	C 	0.104	0.8218	0.9961	0.055
Mof_H 	H 	0.1547	0.8122	0.0709	0.019
Mof_C 	C 	0.0526	0.7941	0.8969	-0.111
Mof_H 	H 	0.0676	0.7661	0.9071	0.079
Mof_C 	C 	0.1405	0.8931	0.0874	0.285
Mof_C 	C 	0.1842	0.0439	0.185	0.314
Mof_C 	C 	0.1615	0.0895	0.1736	-0.098
Mof_C 	C 	0.1773	0.1173	0.1205	0.024
Mof_H 	H 	0.2008	0.1077	0.0897	0.028
Mof_C 	C 	0.1586	0.1593	0.1123	-0.099
Mof_H 	H 	0.1667	0.1774	0.0722	0.064
Mof_C 	C 	0.128	0.1745	0.1636	0.021
Mof_C 	C 	0.1145	0.1462	0.2208	-0.097
Mof_H 	H 	0.0945	0.1558	0.2566	0.068
Mof_C 	C 	0.1305	0.1042	0.2244	0.024
Mof_H 	H 	0.1204	0.0857	0.2613	0.036
Mof_C 	C 	0.1083	0.2194	0.157	0.068
Mof_C 	C 	0.0682	0.2418	0.0507	-0.161
Mof_H 	H 	0.0538	0.2284	0.9835	0.1
Mof_C 	C 	0.0488	0.2841	0.0422	0.065
Mof_C 	C 	0.0726	0.303	0.145	-0.126
Mof_H 	H 	0.0607	0.3311	0.1408	0.072
Mof_C 	C 	0.1137	0.2819	0.2549	0.057
Mof_C 	C 	0.1311	0.2393	0.258	-0.13
Mof_H 	H 	0.1585	0.2243	0.3295	0.078
Mof_C 	C 	0.1354	0.3021	0.3615	0.03
Mof_C 	C 	0.0837	0.3338	0.3448	-0.1
Mof_H 	H 	0.0367	0.343	0.2662	0.067
Mof_C 	C 	0.102	0.352	0.445	0.024
Mof_H 	H 	0.0665	0.373	0.4324	0.032
Mof_C 	C 	0.172	0.3394	0.5631	-0.093
Mof_C 	C 	0.224	0.3088	0.5806	0.021
Mof_H 	H 	0.272	0.3005	0.6596	0.041
Mof_C 	C 	0.2058	0.2896	0.4805	-0.098
Mof_H 	H 	0.2411	0.2683	0.4939	0.07
Mof_C 	C 	0.1931	0.3591	0.6716	0.306
Mof_C 	C 	0.9998	0.3082	0.9272	0.01
Mof_C 	C 	0.0081	0.3505	0.9297	-0.037
Mof_H 	H 	0.0501	0.3635	0.0048	0.032
Mof_C 	C 	0.9568	0.3746	0.8256	-0.012
Mof_H 	H 	0.9631	0.4034	0.8324	0.045
Mof_C 	C 	0.8973	0.3571	0.7134	-0.069
Mof_C 	C 	0.8867	0.3142	0.7063	0.004
Mof_H 	H 	0.8454	0.3015	0.6304	0.045
Mof_C 	C 	0.9369	0.29	0.811	-0.075
Mof_H 	H 	0.929	0.2613	0.8045	0.063
Mof_C 	C 	0.8401	0.3844	0.6029	0.301
Mof_C 	C 	0.5355	0.439	0.3186	0.129
Mof_H 	H 	0.5533	0.4117	0.3451	-0.016
Mof_C 	C 	0.5369	0.5045	0.3043	-0.005
Mof_H 	H 	0.5568	0.5318	0.32	0.047
Mof_C 	C 	0.4529	0.4925	0.2107	0.053
Mof_C 	C 	0.3743	0.5158	0.1125	0.033
Mof_C 	C 	0.3788	0.5575	0.0954	-0.068
Mof_H 	H 	0.4317	0.571	0.1454	0.051
Mof_C 	C 	0.3029	0.5796	0.0018	-0.054
Mof_H 	H 	0.3051	0.6081	0.9938	0.059
Mof_C 	C 	0.2257	0.5591	0.9226	-0.055
Mof_H 	H 	0.1766	0.5734	0.8577	0.054
Mof_C 	C 	0.2205	0.5173	0.9384	0.054
Mof_C 	C 	0.2949	0.4965	0.0348	-0.118
Mof_H 	H 	0.2913	0.4686	0.0478	0.077
Mof_C 	C 	0.1379	0.4947	0.8512	0.025
Mof_C 	C 	0.0566	0.5092	0.7837	0.026
Mof_H 	H 	0.0404	0.5363	0.7821	0.03
Mof_C 	C 	0.0509	0.4437	0.7441	0.146
Mof_H 	H 	0.0291	0.4174	0.7094	0.001
Mof_C 	C 	0.4237	0.9275	0.4153	0.122
Mof_H 	H 	0.4049	0.9002	0.4048	0.011
Mof_C 	C 	0.4279	0.9948	0.4011	-0.008
Mof_H 	H 	0.4108	0.0223	0.3765	0.049
Mof_C 	C 	0.5106	0.9815	0.4838	0.05
Mof_C 	C 	0.5928	0.0046	0.5611	0.065
Mof_C 	C 	0.5924	0.0465	0.5481	-0.124
Mof_H 	H 	0.5408	0.0606	0.4901	0.074
Mof_C 	C 	0.6711	0.0684	0.6235	0.052
Mof_H 	H 	0.6717	0.0966	0.6105	0.015
Mof_C 	C 	0.7449	0.0486	0.7139	-0.138
Mof_H 	H 	0.7958	0.0636	0.7666	0.082
Mof_C 	C 	0.7457	0.0066	0.729	0.081
Mof_C 	C 	0.6701	0.9848	0.6482	-0.135
Mof_H 	H 	0.6713	0.9559	0.6527	0.087
Mof_C 	C 	0.8262	0.9846	0.829	0.01
Mof_C 	C 	0.9097	0.9956	0.8922	0.043
Mof_H 	H 	0.9279	0.0197	0.8808	0.025
Mof_C 	C 	0.91	0.9367	0.9607	0.16
Mof_H 	H 	0.93	0.9124	0.0068	-0.019
Mof_Cd	Cd	0.23141	0.96809	0.50656	0.476
Mof_Cd	Cd	0.22967	0.40828	0.85213	0.441
Mof_Cd	Cd	0.73267	0.46273	0.22703	0.435
Mof_N 	N 	0.0859	0.9711	0.3697	-0.15
Mof_N 	N 	0.9543	0.9503	0.2226	-0.224
Mof_H 	H 	0.9109	0.9339	0.1766	0.154
Mof_N 	N 	0.6328	0.9526	0.8241	-0.153
Mof_N 	N 	0.5029	0.9757	0.7183	-0.218
Mof_H 	H 	0.4478	0.9759	0.6694	0.162
Mof_N 	N 	0.8721	0.4612	0.3585	-0.134
Mof_N 	N 	0.0068	0.4394	0.4899	-0.215
Mof_H 	H 	0.0504	0.423	0.5342	0.155
Mof_N 	N 	0.3278	0.4471	0.8743	-0.153
Mof_N 	N 	0.4595	0.4658	0.9725	-0.211
Mof_H 	H 	0.5147	0.4653	0.0237	0.143
Mof_O 	O 	0.3267	0.0152	0.5171	-0.271
Mof_O 	O 	0.252	0.0359	0.5594	-0.283
Mof_O 	O 	0.2086	0.3558	0.9404	-0.252
Mof_O 	O 	0.3268	0.39277	0.0611	-0.296
Mof_O 	O 	0.7124	0.3818	0.1849	-0.256
Mof_O 	O 	0.6158	0.43098	0.0689	-0.293
Mof_O 	O 	0.6593	0.51859	0.2199	-0.287
Mof_O 	O 	0.7293	0.53228	0.1644	-0.299
Mof_O 	O 	0.7618	0.8527	0.7763	-0.262
Mof_O 	O 	0.6395	0.88554	0.6525	-0.29
Mof_O 	O 	0.296	0.8683	0.4985	-0.232
Mof_O 	O 	0.3382	0.92221	0.6214	-0.275
Mof_O 	O 	0.2062	0.92934	0.3484	-0.606
Mof_H 	H 	0.1768	0.9078	0.3323	0.303
Mof_H 	H 	0.1788	0.9444	0.2846	0.268
Mof_C 	C 	0.3018	0.0436	0.5426	0.311
Mof_C 	C 	0.3274	0.0878	0.5514	-0.098
Mof_C 	C 	0.3212	0.1157	0.616	0.027
Mof_H 	H 	0.3048	0.1064	0.6566	0.046
Mof_C 	C 	0.3395	0.1574	0.6203	-0.105
Mof_H 	H 	0.3384	0.1755	0.6677	0.075
Mof_C 	C 	0.3592	0.1724	0.5563	0.041
Mof_C 	C 	0.3655	0.1447	0.4923	-0.107
Mof_H 	H 	0.3798	0.1544	0.4493	0.072
Mof_C 	C 	0.3506	0.102	0.4913	0.031
Mof_H 	H 	0.3565	0.0835	0.4496	0.033
Mof_C 	C 	0.3772	0.2176	0.5614	0.042
Mof_C 	C 	0.4167	0.241	0.6681	-0.116
Mof_H 	H 	0.4322	0.2281	0.7365	0.075
Mof_C 	C 	0.4325	0.283	0.6715	0.049
Mof_C 	C 	0.408	0.3023	0.5684	-0.115
Mof_H 	H 	0.4176	0.3307	0.5707	0.07
Mof_C 	C 	0.369	0.28	0.4609	0.048
Mof_C 	C 	0.3542	0.2376	0.4587	-0.113
Mof_H 	H 	0.3287	0.2222	0.3883	0.072
Mof_C 	C 	0.3477	0.3011	0.3548	0.036
Mof_C 	C 	0.3979	0.3338	0.3704	-0.105
Mof_H 	H 	0.4466	0.3422	0.4488	0.069
Mof_C 	C 	0.3762	0.3536	0.2717	0.023
Mof_H 	H 	0.4109	0.375	0.2841	0.029
Mof_C 	C 	0.3024	0.3424	0.1516	-0.093
Mof_C 	C 	0.2535	0.3094	0.136	0.023
Mof_H 	H 	0.2051	0.3009	0.0574	0.036
Mof_C 	C 	0.2757	0.2891	0.2357	-0.103
Mof_H 	H 	0.2422	0.267	0.2232	0.071
Mof_C 	C 	0.2772	0.3652	0.0441	0.292
Mof_C 	C 	0.4794	0.3088	0.7838	0.04
Mof_C 	C 	0.453	0.3493	0.7755	-0.098
Mof_H 	H 	0.4	0.3584	0.7031	0.069
Mof_C 	C 	0.5052	0.3765	0.8752	0.021
Mof_H 	H 	0.4885	0.404	0.8671	0.042
Mof_C 	C 	0.5809	0.3626	0.9846	-0.079
Mof_C 	C 	0.604	0.3218	0.9961	0.052
Mof_H 	H 	0.6547	0.3122	0.0709	0.02
Mof_C 	C 	0.5526	0.2941	0.8969	-0.112
Mof_H 	H 	0.5676	0.2661	0.9071	0.079
Mof_C 	C 	0.6405	0.3931	0.0874	0.282
Mof_C 	C 	0.6842	0.5439	0.185	0.314
Mof_C 	C 	0.6615	0.5895	0.1736	-0.099
Mof_C 	C 	0.6773	0.6173	0.1205	0.025
Mof_H 	H 	0.7008	0.6077	0.0897	0.028
Mof_C 	C 	0.6586	0.6593	0.1123	-0.101
Mof_H 	H 	0.6667	0.6774	0.0722	0.064
Mof_C 	C 	0.628	0.6745	0.1636	0.023
Mof_C 	C 	0.6145	0.6462	0.2208	-0.099
Mof_H 	H 	0.5945	0.6558	0.2566	0.068
Mof_C 	C 	0.6305	0.6042	0.2244	0.024
Mof_H 	H 	0.6204	0.5857	0.2613	0.036
Mof_C 	C 	0.6083	0.7194	0.157	0.063
Mof_C 	C 	0.5682	0.7418	0.0507	-0.154
Mof_H 	H 	0.5538	0.7284	0.9835	0.097
Mof_C 	C 	0.5488	0.7841	0.0422	0.053
Mof_C 	C 	0.5726	0.803	0.145	-0.119
Mof_H 	H 	0.5607	0.8311	0.1408	0.069
Mof_C 	C 	0.6137	0.7819	0.2549	0.053
Mof_C 	C 	0.6311	0.7393	0.258	-0.126
Mof_H 	H 	0.6585	0.7243	0.3295	0.077
Mof_C 	C 	0.6354	0.8021	0.3615	0.033
Mof_C 	C 	0.5837	0.8338	0.3448	-0.102
Mof_H 	H 	0.5367	0.843	0.2662	0.067
Mof_C 	C 	0.602	0.852	0.445	0.025
Mof_H 	H 	0.5665	0.873	0.4324	0.031
Mof_C 	C 	0.672	0.8394	0.5631	-0.094
Mof_C 	C 	0.724	0.8088	0.5806	0.022
Mof_H 	H 	0.772	0.8005	0.6596	0.04
Mof_C 	C 	0.7058	0.7896	0.4805	-0.1
Mof_H 	H 	0.7411	0.7683	0.4939	0.07
Mof_C 	C 	0.6931	0.8591	0.6716	0.306
Mof_C 	C 	0.4998	0.8082	0.9272	0.029
Mof_C 	C 	0.5081	0.8505	0.9297	-0.06
Mof_H 	H 	0.5501	0.8635	0.0048	0.04
Mof_C 	C 	0.4568	0.8746	0.8256	0.007
Mof_H 	H 	0.4631	0.9034	0.8324	0.04
Mof_C 	C 	0.3973	0.8571	0.7134	-0.08
Mof_C 	C 	0.3867	0.8142	0.7063	0.016
Mof_H 	H 	0.3454	0.8015	0.6304	0.041
Mof_C 	C 	0.4369	0.79	0.811	-0.089
Mof_H 	H 	0.429	0.7613	0.8045	0.069
Mof_C 	C 	0.3401	0.8844	0.6029	0.305
Mof_C 	C 	0.0355	0.939	0.3186	0.132
Mof_H 	H 	0.0533	0.9117	0.3451	-0.016
Mof_C 	C 	0.0369	0.0045	0.3043	-0
Mof_H 	H 	0.0568	0.0318	0.32	0.046
Mof_C 	C 	0.9529	0.9925	0.2107	0.049
Mof_C 	C 	0.8743	0.0158	0.1125	0.035
Mof_C 	C 	0.8788	0.0575	0.0954	-0.071
Mof_H 	H 	0.9317	0.071	0.1454	0.052
Mof_C 	C 	0.8029	0.0796	0.0018	-0.051
Mof_H 	H 	0.8051	0.1081	0.9938	0.058
Mof_C 	C 	0.7257	0.0591	0.9226	-0.057
Mof_H 	H 	0.6766	0.0734	0.8577	0.054
Mof_C 	C 	0.7205	0.0173	0.9384	0.056
Mof_C 	C 	0.7949	0.9965	0.0348	-0.12
Mof_H 	H 	0.7913	0.9686	0.0478	0.078
Mof_C 	C 	0.6379	0.9947	0.8512	0.023
Mof_C 	C 	0.5566	0.0092	0.7837	0.027
Mof_H 	H 	0.5404	0.0363	0.7821	0.029
Mof_C 	C 	0.5509	0.9437	0.7441	0.146
Mof_H 	H 	0.5291	0.9174	0.7094	-0.001
Mof_C 	C 	0.9237	0.4275	0.4153	0.119
Mof_H 	H 	0.9049	0.4002	0.4048	0.011
Mof_C 	C 	0.9279	0.4948	0.4011	-0.013
Mof_H 	H 	0.9108	0.5223	0.3765	0.05
Mof_C 	C 	0.0106	0.4815	0.4838	0.055
Mof_C 	C 	0.0928	0.5046	0.5611	0.062
Mof_C 	C 	0.0924	0.5465	0.5481	-0.122
Mof_H 	H 	0.0408	0.5606	0.4901	0.073
Mof_C 	C 	0.1711	0.5684	0.6235	0.05
Mof_H 	H 	0.1717	0.5966	0.6105	0.016
Mof_C 	C 	0.2449	0.5486	0.7139	-0.136
Mof_H 	H 	0.2958	0.5636	0.7666	0.082
Mof_C 	C 	0.2457	0.5066	0.729	0.079
Mof_C 	C 	0.1701	0.4848	0.6482	-0.132
Mof_H 	H 	0.1713	0.4559	0.6527	0.086
Mof_C 	C 	0.3262	0.4846	0.829	0.011
Mof_C 	C 	0.4097	0.4956	0.8922	0.043
Mof_H 	H 	0.4279	0.5197	0.8808	0.026
Mof_C 	C 	0.41	0.4367	0.9607	0.161
Mof_H 	H 	0.43	0.4124	0.0068	-0.019
Mof_Cd	Cd	0.73141	0.53191	0.00656	0.465
Mof_Cd	Cd	0.72967	0.09172	0.35213	0.434
Mof_Cd	Cd	0.23267	0.03727	0.72703	0.437
Mof_N 	N 	0.5859	0.5289	0.8697	-0.145
Mof_N 	N 	0.4543	0.5497	0.7226	-0.221
Mof_H 	H 	0.4109	0.5661	0.6766	0.155
Mof_N 	N 	0.1328	0.5474	0.3241	-0.153
Mof_N 	N 	0.0029	0.5243	0.2183	-0.216
Mof_H 	H 	0.9478	0.5241	0.1694	0.159
Mof_N 	N 	0.3721	0.0388	0.8585	-0.134
Mof_N 	N 	0.5068	0.0606	0.9899	-0.204
Mof_H 	H 	0.5504	0.077	0.0342	0.142
Mof_N 	N 	0.8278	0.0529	0.3743	-0.149
Mof_N 	N 	0.9595	0.0342	0.4725	-0.222
Mof_H 	H 	0.0147	0.0347	0.5237	0.158
Mof_O 	O 	0.8267	0.4848	0.0171	-0.279
Mof_O 	O 	0.752	0.4641	0.0594	-0.287
Mof_O 	O 	0.7086	0.1442	0.4404	-0.269
Mof_O 	O 	0.8268	0.10723	0.5611	-0.296
Mof_O 	O 	0.2124	0.1182	0.6849	-0.256
Mof_O 	O 	0.1158	0.06902	0.5689	-0.291
Mof_O 	O 	0.1593	0.98141	0.7199	-0.284
Mof_O 	O 	0.2293	0.96772	0.6644	-0.298
Mof_O 	O 	0.2618	0.6473	0.2763	-0.265
Mof_O 	O 	0.1395	0.61446	0.1525	-0.293
Mof_O 	O 	0.796	0.6317	0.9985	-0.215
Mof_O 	O 	0.8382	0.57779	0.1214	-0.272
Mof_O 	O 	0.7062	0.57066	0.8484	-0.6
Mof_H 	H 	0.6768	0.5922	0.8323	0.303
Mof_H 	H 	0.6788	0.5556	0.7846	0.268
Mof_C 	C 	0.8018	0.4564	0.0426	0.316
Mof_C 	C 	0.8274	0.4122	0.0514	-0.119
Mof_C 	C 	0.8212	0.3843	0.116	0.033
Mof_H 	H 	0.8048	0.3936	0.1566	0.043
Mof_C 	C 	0.8395	0.3426	0.1203	-0.108
Mof_H 	H 	0.8384	0.3245	0.1677	0.073
Mof_C 	C 	0.8592	0.3276	0.0563	0.029
Mof_C 	C 	0.8655	0.3553	0.9923	-0.096
Mof_H 	H 	0.8798	0.3456	0.9493	0.07
Mof_C 	C 	0.8506	0.398	0.9913	0.052
Mof_H 	H 	0.8565	0.4165	0.9496	0.029
Mof_C 	C 	0.8772	0.2824	0.0614	0.031
Mof_C 	C 	0.9167	0.259	0.1681	-0.119
Mof_H 	H 	0.9322	0.2719	0.2365	0.075
Mof_C 	C 	0.9325	0.217	0.1715	0.056
Mof_C 	C 	0.908	0.1977	0.0684	-0.138
Mof_H 	H 	0.9176	0.1693	0.0707	0.072
Mof_C 	C 	0.869	0.22	0.9609	0.062
Mof_C 	C 	0.8542	0.2624	0.9587	-0.1
Mof_H 	H 	0.8287	0.2778	0.8883	0.069
Mof_C 	C 	0.8477	0.1989	0.8548	0.034
Mof_C 	C 	0.8979	0.1662	0.8704	-0.105
Mof_H 	H 	0.9466	0.1578	0.9488	0.074
Mof_C 	C 	0.8762	0.1464	0.7717	0.027
Mof_H 	H 	0.9109	0.125	0.7841	0.029
Mof_C 	C 	0.8024	0.1576	0.6516	-0.097
Mof_C 	C 	0.7535	0.1906	0.636	0.027
Mof_H 	H 	0.7051	0.1991	0.5574	0.039
Mof_C 	C 	0.7757	0.2109	0.7357	-0.102
Mof_H 	H 	0.7422	0.233	0.7232	0.071
Mof_C 	C 	0.7772	0.1348	0.5441	0.311
Mof_C 	C 	0.9794	0.1912	0.2838	0.028
Mof_C 	C 	0.953	0.1507	0.2755	-0.098
Mof_H 	H 	0.9	0.1416	0.2031	0.066
Mof_C 	C 	0.0052	0.1235	0.3752	0.026
Mof_H 	H 	0.9885	0.096	0.3671	0.035
Mof_C 	C 	0.0809	0.1374	0.4846	-0.084
Mof_C 	C 	0.104	0.1782	0.4961	0.018
Mof_H 	H 	0.1547	0.1878	0.5709	0.042
Mof_C 	C 	0.0526	0.2059	0.3969	-0.091
Mof_H 	H 	0.0676	0.2339	0.4071	0.069
Mof_C 	C 	0.1405	0.1069	0.5874	0.293
Mof_C 	C 	0.1842	0.9561	0.685	0.317
Mof_C 	C 	0.1615	0.9105	0.6736	-0.099
Mof_C 	C 	0.1773	0.8827	0.6205	0.03
Mof_H 	H 	0.2008	0.8923	0.5897	0.029
Mof_C 	C 	0.1586	0.8407	0.6123	-0.104
Mof_H 	H 	0.1667	0.8226	0.5722	0.069
Mof_C 	C 	0.128	0.8255	0.6636	0.032
Mof_C 	C 	0.1145	0.8538	0.7208	-0.101
Mof_H 	H 	0.0945	0.8442	0.7566	0.071
Mof_C 	C 	0.1305	0.8958	0.7244	0.029
Mof_H 	H 	0.1204	0.9143	0.7613	0.037
Mof_C 	C 	0.1083	0.7806	0.657	0.054
Mof_C 	C 	0.0682	0.7582	0.5507	-0.126
Mof_H 	H 	0.0538	0.7716	0.4835	0.077
Mof_C 	C 	0.0488	0.7159	0.5422	0.061
Mof_C 	C 	0.0726	0.697	0.645	-0.121
Mof_H 	H 	0.0607	0.6689	0.6408	0.073
Mof_C 	C 	0.1137	0.7181	0.7549	0.054
Mof_C 	C 	0.1311	0.7607	0.758	-0.122
Mof_H 	H 	0.1585	0.7757	0.8295	0.077
Mof_C 	C 	0.1354	0.6979	0.8615	0.031
Mof_C 	C 	0.0837	0.6662	0.8448	-0.108
Mof_H 	H 	0.0367	0.657	0.7662	0.071
Mof_C 	C 	0.102	0.648	0.945	0.047
Mof_H 	H 	0.0665	0.627	0.9324	0.028
Mof_C 	C 	0.172	0.6606	0.0631	-0.108
Mof_C 	C 	0.224	0.6912	0.0806	0.005
Mof_H 	H 	0.272	0.6995	0.1596	0.044
Mof_C 	C 	0.2058	0.7104	0.9805	-0.08
Mof_H 	H 	0.2411	0.7317	0.9939	0.068
Mof_C 	C 	0.1931	0.6409	0.1716	0.31
Mof_C 	C 	0.9998	0.6918	0.4272	0.016
Mof_C 	C 	0.0081	0.6495	0.4297	-0.076
Mof_H 	H 	0.0501	0.6365	0.5048	0.056
Mof_C 	C 	0.9568	0.6254	0.3256	0.008
Mof_H 	H 	0.9631	0.5966	0.3324	0.037
Mof_C 	C 	0.8973	0.6429	0.2134	-0.076
Mof_C 	C 	0.8867	0.6858	0.2063	0.01
Mof_H 	H 	0.8454	0.6985	0.1304	0.04
Mof_C 	C 	0.9369	0.71	0.311	-0.083
Mof_H 	H 	0.929	0.7387	0.3045	0.064
Mof_C 	C 	0.8401	0.6156	0.1029	0.286
Mof_C 	C 	0.5355	0.561	0.8186	0.13
Mof_H 	H 	0.5533	0.5883	0.8451	-0.013
Mof_C 	C 	0.5369	0.4955	0.8043	0
Mof_H 	H 	0.5568	0.4682	0.82	0.048
Mof_C 	C 	0.4529	0.5075	0.7107	0.047
Mof_C 	C 	0.3743	0.4842	0.6125	0.054
Mof_C 	C 	0.3788	0.4425	0.5954	-0.112
Mof_H 	H 	0.4317	0.429	0.6454	0.069
Mof_C 	C 	0.3029	0.4204	0.5018	0.033
Mof_H 	H 	0.3051	0.3919	0.4938	0.018
Mof_C 	C 	0.2257	0.4409	0.4226	-0.117
Mof_H 	H 	0.1766	0.4266	0.3577	0.074
Mof_C 	C 	0.2205	0.4827	0.4384	0.065
Mof_C 	C 	0.2949	0.5035	0.5348	-0.12
Mof_H 	H 	0.2913	0.5314	0.5478	0.082
Mof_C 	C 	0.1379	0.5053	0.3512	0.016
Mof_C 	C 	0.0566	0.4908	0.2837	0.028
Mof_H 	H 	0.0404	0.4637	0.2821	0.027
Mof_C 	C 	0.0509	0.5563	0.2441	0.144
Mof_H 	H 	0.0291	0.5826	0.2094	-0.001
Mof_C 	C 	0.4237	0.0725	0.9153	0.122
Mof_H 	H 	0.4049	0.0998	0.9048	0.014
Mof_C 	C 	0.4279	0.0052	0.9011	-0.009
Mof_H 	H 	0.4108	0.9777	0.8765	0.051
Mof_C 	C 	0.5106	0.0185	0.9838	0.06
Mof_C 	C 	0.5928	0.9954	0.0611	0.066
Mof_C 	C 	0.5924	0.9535	0.0481	-0.162
Mof_H 	H 	0.5408	0.9394	0.9901	0.096
Mof_C 	C 	0.6711	0.9316	0.1235	0.074
Mof_H 	H 	0.6717	0.9034	0.1105	0.005
Mof_C 	C 	0.7449	0.9514	0.2139	-0.153
Mof_H 	H 	0.7958	0.9364	0.2666	0.087
Mof_C 	C 	0.7457	0.9934	0.229	0.088
Mof_C 	C 	0.6701	0.0152	0.1482	-0.141
Mof_H 	H 	0.6713	0.0441	0.1527	0.087
Mof_C 	C 	0.8262	0.0154	0.329	0.005
Mof_C 	C 	0.9097	0.0044	0.3922	0.047
Mof_H 	H 	0.9279	0.9803	0.3808	0.02
Mof_C 	C 	0.91	0.0633	0.4607	0.134
Mof_H 	H 	0.93	0.0876	0.5068	-0.001
Mof_Cd	Cd	0.23141	0.03191	0.00656	0.465
Mof_Cd	Cd	0.22967	0.59172	0.35213	0.434
Mof_Cd	Cd	0.73267	0.53727	0.72703	0.437
Mof_N 	N 	0.0859	0.0289	0.8697	-0.145
Mof_N 	N 	0.9543	0.0497	0.7226	-0.222
Mof_H 	H 	0.9109	0.0661	0.6766	0.155
Mof_N 	N 	0.6328	0.0474	0.3241	-0.154
Mof_N 	N 	0.5029	0.0243	0.2183	-0.218
Mof_H 	H 	0.4478	0.0241	0.1694	0.161
Mof_N 	N 	0.8721	0.5388	0.8585	-0.133
Mof_N 	N 	0.0068	0.5606	0.9899	-0.203
Mof_H 	H 	0.0504	0.577	0.0342	0.142
Mof_N 	N 	0.3278	0.5529	0.3743	-0.149
Mof_N 	N 	0.4595	0.5342	0.4725	-0.22
Mof_H 	H 	0.5147	0.5347	0.5237	0.156
Mof_O 	O 	0.3267	0.9848	0.0171	-0.279
Mof_O 	O 	0.252	0.9641	0.0594	-0.287
Mof_O 	O 	0.2086	0.6442	0.4404	-0.268
Mof_O 	O 	0.3268	0.60723	0.5611	-0.296
Mof_O 	O 	0.7124	0.6182	0.6849	-0.256
Mof_O 	O 	0.6158	0.56902	0.5689	-0.291
Mof_O 	O 	0.6593	0.48141	0.7199	-0.285
Mof_O 	O 	0.7293	0.46772	0.6644	-0.298
Mof_O 	O 	0.7618	0.1473	0.2763	-0.266
Mof_O 	O 	0.6395	0.11446	0.1525	-0.293
Mof_O 	O 	0.296	0.1317	0.9985	-0.215
Mof_O 	O 	0.3382	0.07779	0.1214	-0.273
Mof_O 	O 	0.2062	0.07066	0.8484	-0.6
Mof_H 	H 	0.1768	0.0922	0.8323	0.304
Mof_H 	H 	0.1788	0.0556	0.7846	0.268
Mof_C 	C 	0.3018	0.9564	0.0426	0.316
Mof_C 	C 	0.3274	0.9122	0.0514	-0.119
Mof_C 	C 	0.3212	0.8843	0.116	0.033
Mof_H 	H 	0.3048	0.8936	0.1566	0.043
Mof_C 	C 	0.3395	0.8426	0.1203	-0.108
Mof_H 	H 	0.3384	0.8245	0.1677	0.074
Mof_C 	C 	0.3592	0.8276	0.0563	0.028
Mof_C 	C 	0.3655	0.8553	0.9923	-0.095
Mof_H 	H 	0.3798	0.8456	0.9493	0.07
Mof_C 	C 	0.3506	0.898	0.9913	0.052
Mof_H 	H 	0.3565	0.9165	0.9496	0.029
Mof_C 	C 	0.3772	0.7824	0.0614	0.031
Mof_C 	C 	0.4167	0.759	0.1681	-0.12
Mof_H 	H 	0.4322	0.7719	0.2365	0.076
Mof_C 	C 	0.4325	0.717	0.1715	0.058
Mof_C 	C 	0.408	0.6977	0.0684	-0.139
Mof_H 	H 	0.4176	0.6693	0.0707	0.073
Mof_C 	C 	0.369	0.72	0.9609	0.063
Mof_C 	C 	0.3542	0.7624	0.9587	-0.1
Mof_H 	H 	0.3287	0.7778	0.8883	0.07
Mof_C 	C 	0.3477	0.6989	0.8548	0.034
Mof_C 	C 	0.3979	0.6662	0.8704	-0.105
Mof_H 	H 	0.4466	0.6578	0.9488	0.074
Mof_C 	C 	0.3762	0.6464	0.7717	0.027
Mof_H 	H 	0.4109	0.625	0.7841	0.029
Mof_C 	C 	0.3024	0.6576	0.6516	-0.097
Mof_C 	C 	0.2535	0.6906	0.636	0.026
Mof_H 	H 	0.2051	0.6991	0.5574	0.039
Mof_C 	C 	0.2757	0.7109	0.7357	-0.102
Mof_H 	H 	0.2422	0.733	0.7232	0.071
Mof_C 	C 	0.2772	0.6348	0.5441	0.311
Mof_C 	C 	0.4794	0.6912	0.2838	0.027
Mof_C 	C 	0.453	0.6507	0.2755	-0.089
Mof_H 	H 	0.4	0.6416	0.2031	0.063
Mof_C 	C 	0.5052	0.6235	0.3752	0.013
Mof_H 	H 	0.4885	0.596	0.3671	0.042
Mof_C 	C 	0.5809	0.6374	0.4846	-0.079
Mof_C 	C 	0.604	0.6782	0.4961	0.015
Mof_H 	H 	0.6547	0.6878	0.5709	0.042
Mof_C 	C 	0.5526	0.7059	0.3969	-0.091
Mof_H 	H 	0.5676	0.7339	0.4071	0.069
Mof_C 	C 	0.6405	0.6069	0.5874	0.291
Mof_C 	C 	0.6842	0.4561	0.685	0.317
Mof_C 	C 	0.6615	0.4105	0.6736	-0.1
Mof_C 	C 	0.6773	0.3827	0.6205	0.03
Mof_H 	H 	0.7008	0.3923	0.5897	0.028
Mof_C 	C 	0.6586	0.3407	0.6123	-0.105
Mof_H 	H 	0.6667	0.3226	0.5722	0.069
Mof_C 	C 	0.628	0.3255	0.6636	0.034
Mof_C 	C 	0.6145	0.3538	0.7208	-0.103
Mof_H 	H 	0.5945	0.3442	0.7566	0.071
Mof_C 	C 	0.6305	0.3958	0.7244	0.029
Mof_H 	H 	0.6204	0.4143	0.7613	0.036
Mof_C 	C 	0.6083	0.2806	0.657	0.05
Mof_C 	C 	0.5682	0.2582	0.5507	-0.119
Mof_H 	H 	0.5538	0.2716	0.4835	0.074
Mof_C 	C 	0.5488	0.2159	0.5422	0.05
Mof_C 	C 	0.5726	0.197	0.645	-0.115
Mof_H 	H 	0.5607	0.1689	0.6408	0.07
Mof_C 	C 	0.6137	0.2181	0.7549	0.05
Mof_C 	C 	0.6311	0.2607	0.758	-0.118
Mof_H 	H 	0.6585	0.2757	0.8295	0.076
Mof_C 	C 	0.6354	0.1979	0.8615	0.033
Mof_C 	C 	0.5837	0.1662	0.8448	-0.109
Mof_H 	H 	0.5367	0.157	0.7662	0.071
Mof_C 	C 	0.602	0.148	0.945	0.048
Mof_H 	H 	0.5665	0.127	0.9324	0.028
Mof_C 	C 	0.672	0.1606	0.0631	-0.109
Mof_C 	C 	0.724	0.1912	0.0806	0.006
Mof_H 	H 	0.772	0.1995	0.1596	0.043
Mof_C 	C 	0.7058	0.2104	0.9805	-0.082
Mof_H 	H 	0.7411	0.2317	0.9939	0.069
Mof_C 	C 	0.6931	0.1409	0.1716	0.31
Mof_C 	C 	0.4998	0.1918	0.4272	0.034
Mof_C 	C 	0.5081	0.1495	0.4297	-0.098
Mof_H 	H 	0.5501	0.1365	0.5048	0.063
Mof_C 	C 	0.4568	0.1254	0.3256	0.026
Mof_H 	H 	0.4631	0.0966	0.3324	0.032
Mof_C 	C 	0.3973	0.1429	0.2134	-0.086
Mof_C 	C 	0.3867	0.1858	0.2063	0.021
Mof_H 	H 	0.3454	0.1985	0.1304	0.036
Mof_C 	C 	0.4369	0.21	0.311	-0.095
Mof_H 	H 	0.429	0.2387	0.3045	0.069
Mof_C 	C 	0.3401	0.1156	0.1029	0.289
Mof_C 	C 	0.0355	0.061	0.8186	0.133
Mof_H 	H 	0.0533	0.0883	0.8451	-0.013
Mof_C 	C 	0.0369	0.9955	0.8043	0.004
Mof_H 	H 	0.0568	0.9682	0.82	0.048
Mof_C 	C 	0.9529	0.0075	0.7107	0.044
Mof_C 	C 	0.8743	0.9842	0.6125	0.055
Mof_C 	C 	0.8788	0.9425	0.5954	-0.112
Mof_H 	H 	0.9317	0.929	0.6454	0.068
Mof_C 	C 	0.8029	0.9204	0.5018	0.033
Mof_H 	H 	0.8051	0.8919	0.4938	0.018
Mof_C 	C 	0.7257	0.9409	0.4226	-0.117
Mof_H 	H 	0.6766	0.9266	0.3577	0.074
Mof_C 	C 	0.7205	0.9827	0.4384	0.065
Mof_C 	C 	0.7949	0.0035	0.5348	-0.12
Mof_H 	H 	0.7913	0.0314	0.5478	0.082
Mof_C 	C 	0.6379	0.0053	0.3512	0.017
Mof_C 	C 	0.5566	0.9908	0.2837	0.028
Mof_H 	H 	0.5404	0.9637	0.2821	0.027
Mof_C 	C 	0.5509	0.0563	0.2441	0.144
Mof_H 	H 	0.5291	0.0826	0.2094	-0.002
Mof_C 	C 	0.9237	0.5725	0.9153	0.119
Mof_H 	H 	0.9049	0.5998	0.9048	0.015
Mof_C 	C 	0.9279	0.5052	0.9011	-0.014
Mof_H 	H 	0.9108	0.4777	0.8765	0.052
Mof_C 	C 	0.0106	0.5185	0.9838	0.064
Mof_C 	C 	0.0928	0.4954	0.0611	0.065
Mof_C 	C 	0.0924	0.4535	0.0481	-0.161
Mof_H 	H 	0.0408	0.4394	0.9901	0.097
Mof_C 	C 	0.1711	0.4316	0.1235	0.074
Mof_H 	H 	0.1717	0.4034	0.1105	0.005
Mof_C 	C 	0.2449	0.4514	0.2139	-0.153
Mof_H 	H 	0.2958	0.4364	0.2666	0.087
Mof_C 	C 	0.2457	0.4934	0.229	0.088
Mof_C 	C 	0.1701	0.5152	0.1482	-0.14
Mof_H 	H 	0.1713	0.5441	0.1527	0.087
Mof_C 	C 	0.3262	0.5154	0.329	0.006
Mof_C 	C 	0.4097	0.5044	0.3922	0.046
Mof_H 	H 	0.4279	0.4803	0.3808	0.021
Mof_C 	C 	0.41	0.5633	0.4607	0.133
Mof_H 	H 	0.43	0.5876	0.5068	0
_end
