data_functionalizedCrystal
_audit_creation_method	'EQeq! by Chris Wilmer'
_symmetry_space_group_name_H-M	'P1'
_symmetry_Int_Tables_number	1
_symmetry_cell_setting	triclinic
loop_
_symmetry_equiv_pos_as_xyz
  x,y,z
_cell_length_a	13.7326
_cell_length_b	13.7326
_cell_length_c	14.0822
_cell_angle_alpha	87.481
_cell_angle_beta	87.481
_cell_angle_gamma	60.1379
loop_
_atom_site_label
_atom_site_type_symbol
_atom_site_fract_x
_atom_site_fract_y
_atom_site_fract_z
_atom_site_charge
Mof_Zn	Zn	0.53797	0.84635	0.01279	1.128
Mof_Zn	Zn	0.56112	0.02332	0.38988	1.18
Mof_Zn	Zn	0.15365	0.46203	0.48721	1.128
Mof_Zn	Zn	0.97668	0.43888	0.11012	1.18
Mof_Zn	Zn	0.46203	0.15365	0.98721	1.128
Mof_Zn	Zn	0.43888	0.97668	0.61012	1.18
Mof_Zn	Zn	0.84635	0.53797	0.51279	1.128
Mof_Zn	Zn	0.02332	0.56112	0.88988	1.18
Mof_H 	H 	0.5588	0.8518	0.2362	-0.064
Mof_H 	H 	0.4542	0.1706	0.2076	-0.05
Mof_H 	H 	0.3815	0.2855	0.3845	-0.053
Mof_H 	H 	0.2405	0.2309	0.6087	-0.056
Mof_H 	H 	0.8921	0.9497	0.3113	0.062
Mof_H 	H 	0.1482	0.4412	0.2638	-0.065
Mof_H 	H 	0.8294	0.5458	0.2924	-0.051
Mof_H 	H 	0.7145	0.6185	0.1155	-0.053
Mof_H 	H 	0.7691	0.7595	0.8913	-0.056
Mof_H 	H 	0.0503	0.1079	0.1887	0.068
Mof_H 	H 	0.4412	0.1482	0.7638	-0.064
Mof_H 	H 	0.5458	0.8294	0.7924	-0.05
Mof_H 	H 	0.6185	0.7145	0.6155	-0.053
Mof_H 	H 	0.7595	0.7691	0.3913	-0.056
Mof_H 	H 	0.1079	0.0503	0.6887	0.062
Mof_H 	H 	0.8518	0.5588	0.7362	-0.065
Mof_H 	H 	0.1706	0.4542	0.7076	-0.051
Mof_H 	H 	0.2855	0.3815	0.8845	-0.053
Mof_H 	H 	0.2309	0.2405	0.1087	-0.056
Mof_H 	H 	0.9497	0.8921	0.8113	0.068
Mof_H 	H 	0.7197	0.2803	0.25	0.032
Mof_H 	H 	0.2803	0.7197	0.75	0.032
Mof_C 	C 	0.5331	0.9235	0.21	0.086
Mof_C 	C 	0.4769	0.0965	0.194	0.078
Mof_C 	C 	0.3678	0.2502	0.437	0.085
Mof_C 	C 	0.291	0.221	0.5587	0.098
Mof_C 	C 	0.7887	0.1163	0.2844	-0.086
Mof_C 	C 	0.8892	0.015	0.2864	-0.049
Mof_C 	C 	0.6829	0.1185	0.3203	0.335
Mof_C 	C 	0.0765	0.4669	0.29	0.09
Mof_C 	C 	0.9035	0.5231	0.306	0.078
Mof_C 	C 	0.7498	0.6322	0.063	0.085
Mof_C 	C 	0.779	0.709	0.9413	0.102
Mof_C 	C 	0.8837	0.2113	0.2156	-0.084
Mof_C 	C 	0.985	0.1108	0.2136	-0.055
Mof_C 	C 	0.8815	0.3171	0.1797	0.335
Mof_C 	C 	0.4669	0.0765	0.79	0.086
Mof_C 	C 	0.5231	0.9035	0.806	0.078
Mof_C 	C 	0.6322	0.7498	0.563	0.085
Mof_C 	C 	0.709	0.779	0.4413	0.098
Mof_C 	C 	0.2113	0.8837	0.7156	-0.086
Mof_C 	C 	0.1108	0.985	0.7136	-0.049
Mof_C 	C 	0.3171	0.8815	0.6797	0.335
Mof_C 	C 	0.9235	0.5331	0.71	0.09
Mof_C 	C 	0.0965	0.4769	0.694	0.078
Mof_C 	C 	0.2502	0.3678	0.937	0.085
Mof_C 	C 	0.221	0.291	0.0587	0.102
Mof_C 	C 	0.1163	0.7887	0.7844	-0.084
Mof_C 	C 	0.015	0.8892	0.7864	-0.055
Mof_C 	C 	0.1185	0.6829	0.8203	0.335
Mof_C 	C 	0.7872	0.2128	0.25	0.004
Mof_C 	C 	0.9856	0.0144	0.25	0.062
Mof_C 	C 	0.2128	0.7872	0.75	0.004
Mof_C 	C 	0.0144	0.9856	0.75	0.062
Mof_N 	N 	0.513	0.9492	0.1181	-0.291
Mof_N 	N 	0.4779	0.0619	0.1075	-0.281
Mof_N 	N 	0.5123	0.0127	0.2605	-0.293
Mof_N 	N 	0.43367	0.14387	0.4617	-0.274
Mof_N 	N 	0.3844	0.1238	0.5414	-0.276
Mof_N 	N 	0.2782	0.3014	0.4967	-0.32
Mof_N 	N 	0.0508	0.487	0.3819	-0.29
Mof_N 	N 	0.9381	0.5221	0.3925	-0.283
Mof_N 	N 	0.9873	0.4877	0.2395	-0.295
Mof_N 	N 	0.85613	0.56633	0.0383	-0.275
Mof_N 	N 	0.8762	0.6156	0.9586	-0.275
Mof_N 	N 	0.6986	0.7218	0.0033	-0.322
Mof_N 	N 	0.487	0.0508	0.8819	-0.291
Mof_N 	N 	0.5221	0.9381	0.8925	-0.281
Mof_N 	N 	0.4877	0.9873	0.7395	-0.293
Mof_N 	N 	0.56633	0.85613	0.5383	-0.274
Mof_N 	N 	0.6156	0.8762	0.4586	-0.276
Mof_N 	N 	0.7218	0.6986	0.5033	-0.32
Mof_N 	N 	0.9492	0.513	0.6181	-0.29
Mof_N 	N 	0.0619	0.4779	0.6075	-0.283
Mof_N 	N 	0.0127	0.5123	0.7605	-0.295
Mof_N 	N 	0.14387	0.43367	0.9617	-0.275
Mof_N 	N 	0.1238	0.3844	0.0414	-0.275
Mof_N 	N 	0.3014	0.2782	0.9967	-0.322
Mof_N 	N 	0.0923	0.9077	0.25	-0.002
Mof_N 	N 	0.9077	0.0923	0.75	-0.002
Mof_O 	O 	0.69788	0.02968	0.3648	-0.488
Mof_O 	O 	0.59033	0.19913	0.3059	-0.354
Mof_O 	O 	0.1778	0.9098	0.2275	-0.167
Mof_O 	O 	0.97032	0.30212	0.1352	-0.488
Mof_O 	O 	0.80087	0.40967	0.1941	-0.354
Mof_O 	O 	0.0902	0.8222	0.2725	-0.166
Mof_O 	O 	0.30212	0.97032	0.6352	-0.488
Mof_O 	O 	0.40967	0.80087	0.6941	-0.354
Mof_O 	O 	0.8222	0.0902	0.7725	-0.167
Mof_O 	O 	0.02968	0.69788	0.8648	-0.488
Mof_O 	O 	0.19913	0.59033	0.8059	-0.354
Mof_O 	O 	0.9098	0.1778	0.7275	-0.166
_end
