data_functionalizedCrystal
_audit_creation_method	'EQeq! by Chris Wilmer'
_symmetry_space_group_name_H-M	'P1'
_symmetry_Int_Tables_number	1
_symmetry_cell_setting	triclinic
loop_
_symmetry_equiv_pos_as_xyz
  x,y,z
_cell_length_a	38.012
_cell_length_b	38.012
_cell_length_c	29.603
_cell_angle_alpha	90
_cell_angle_beta	90
_cell_angle_gamma	120
loop_
_atom_site_label
_atom_site_type_symbol
_atom_site_fract_x
_atom_site_fract_y
_atom_site_fract_z
_atom_site_charge
Mof_Co	Co	0.23329	0.10742	0.95255	1.15
Mof_O 	O 	0.24285	0.08148	0.01165	-0.404
Mof_O 	O 	0.2957	0.1304	0.97715	-0.493
Mof_O 	O 	0.49771	0.10114	0.24473	-0.426
Mof_O 	O 	0.4289	0.24002	0.9322	-0.46
Mof_O 	O 	0.36367	0.20459	0.95099	-0.436
Mof_O 	O 	0.46199	0.03555	0.22508	-0.435
Mof_N 	N 	0.02244	0.04167	0.94285	-0.138
Mof_N 	N 	0.16931	0.07812	0.95111	-0.243
Mof_C 	C 	0.37467	0.12688	0.0763	-0.1
Mof_H 	H 	0.4021	0.1463	0.0769	0.069
Mof_C 	C 	0.03951	0.01835	0.94293	0.092
Mof_C 	C 	0.08476	0.03903	0.94478	0.075
Mof_C 	C 	0.38709	0.08973	0.13882	0.045
Mof_C 	C 	0.34939	0.13033	0.04462	0.036
Mof_H 	H 	0.3602	0.1516	0.024	0.032
Mof_C 	C 	0.40663	0.2641	0.99245	-0.145
Mof_C 	C 	0.44008	0.07859	0.19582	-0.118
Mof_C 	C 	0.30805	0.10208	0.04379	-0.11
Mof_C 	C 	0.46927	0.07126	0.2239	0.386
Mof_C 	C 	0.10491	0.01742	0.94783	-0.158
Mof_H 	H 	0.0904	0.9892	0.948	0.096
Mof_C 	C 	0.28071	0.10461	0.00899	0.339
Mof_C 	C 	0.10843	0.08137	0.94488	-0.142
Mof_H 	H 	0.0962	0.0973	0.9428	0.088
Mof_C 	C 	0.35937	0.09475	0.10722	0.039
Mof_C 	C 	0.44984	0.11722	0.18163	0.042
Mof_H 	H 	0.474	0.1397	0.191	0.026
Mof_C 	C 	0.39884	0.23367	0.95568	0.406
Mof_C 	C 	0.14993	0.09921	0.94809	0.084
Mof_H 	H 	0.1653	0.1274	0.9482	-0.014
Mof_C 	C 	0.40398	0.04567	0.18165	0.043
Mof_H 	H 	0.3972	0.0196	0.1908	0.032
Mof_C 	C 	0.2923	0.07086	0.07533	0.034
Mof_H 	H 	0.2646	0.0521	0.0756	0.03
Mof_C 	C 	0.39504	0.27957	0.06739	-0.129
Mof_H 	H 	0.3803	0.2711	0.0941	0.075
Mof_C 	C 	0.3777	0.05111	0.15393	-0.109
Mof_H 	H 	0.3533	0.0286	0.1452	0.069
Mof_C 	C 	0.31785	0.06757	0.10643	-0.106
Mof_H 	H 	0.3068	0.0465	0.1274	0.065
Mof_C 	C 	0.42369	0.12243	0.15358	-0.111
Mof_H 	H 	0.4307	0.1485	0.1443	0.068
Mof_C 	C 	0.14663	0.03788	0.95063	0.095
Mof_H 	H 	0.1597	0.0227	0.9523	-0.008
Mof_C 	C 	0.38543	0.25205	0.03147	0.065
Mof_H 	H 	0.3644	0.2254	0.0346	0.018
Mof_C 	C 	0.4459	0.33135	0.02232	-0.131
Mof_H 	H 	0.4656	0.3584	0.0182	0.077
Mof_C 	C 	0.4262	0.319	0.0631	0.055
Mof_C 	C 	0.43675	0.304	0.98745	0.068
Mof_H 	H 	0.451	0.3126	0.9604	0.016
Mof_Co	Co	0.89995	0.44075	0.28589	1.15
Mof_O 	O 	0.90952	0.41481	0.34498	-0.403
Mof_O 	O 	0.96237	0.46373	0.31048	-0.49
Mof_O 	O 	0.16438	0.43447	0.57806	-0.428
Mof_O 	O 	0.09557	0.57335	0.26553	-0.462
Mof_O 	O 	0.03034	0.53792	0.28432	-0.439
Mof_O 	O 	0.12866	0.36888	0.55841	-0.435
Mof_N 	N 	0.68911	0.375	0.27618	-0.137
Mof_N 	N 	0.83598	0.41145	0.28444	-0.242
Mof_C 	C 	0.04134	0.46021	0.40963	-0.086
Mof_H 	H 	0.06877	0.47963	0.41023	0.063
Mof_C 	C 	0.70618	0.35168	0.27626	0.099
Mof_C 	C 	0.75143	0.37236	0.27811	0.067
Mof_C 	C 	0.05376	0.42306	0.47215	0.052
Mof_C 	C 	0.01606	0.46366	0.37795	0.015
Mof_H 	H 	0.02687	0.48493	0.35733	0.037
Mof_C 	C 	0.0733	0.59743	0.32578	-0.147
Mof_C 	C 	0.10675	0.41192	0.52915	-0.121
Mof_C 	C 	0.97472	0.43541	0.37712	-0.094
Mof_C 	C 	0.13594	0.40459	0.55723	0.386
Mof_C 	C 	0.77158	0.35075	0.28116	-0.141
Mof_H 	H 	0.75707	0.32253	0.28133	0.087
Mof_C 	C 	0.94738	0.43794	0.34232	0.334
Mof_C 	C 	0.7751	0.4147	0.27821	-0.137
Mof_H 	H 	0.76287	0.43063	0.27613	0.086
Mof_C 	C 	0.02604	0.42808	0.44055	0.022
Mof_C 	C 	0.11651	0.45055	0.51496	0.045
Mof_H 	H 	0.14067	0.47303	0.52433	0.025
Mof_C 	C 	0.06551	0.567	0.28901	0.407
Mof_C 	C 	0.8166	0.43254	0.28142	0.081
Mof_H 	H 	0.83197	0.46073	0.28153	-0.013
Mof_C 	C 	0.07065	0.379	0.51498	0.047
Mof_H 	H 	0.06387	0.35293	0.52413	0.031
Mof_C 	C 	0.95897	0.40419	0.40866	0.019
Mof_H 	H 	0.93127	0.38543	0.40893	0.036
Mof_C 	C 	0.06171	0.6129	0.40072	-0.13
Mof_H 	H 	0.04697	0.60443	0.42743	0.075
Mof_C 	C 	0.04437	0.38444	0.48726	-0.114
Mof_H 	H 	0.01997	0.36193	0.47853	0.07
Mof_C 	C 	0.98452	0.4009	0.43976	-0.085
Mof_H 	H 	0.97347	0.37983	0.46073	0.061
Mof_C 	C 	0.09036	0.45576	0.48691	-0.116
Mof_H 	H 	0.09737	0.48183	0.47763	0.07
Mof_C 	C 	0.8133	0.37121	0.28396	0.087
Mof_H 	H 	0.82637	0.35603	0.28563	-0.004
Mof_C 	C 	0.0521	0.58538	0.3648	0.066
Mof_H 	H 	0.03107	0.55873	0.36793	0.016
Mof_C 	C 	0.11257	0.66468	0.35565	-0.132
Mof_H 	H 	0.13227	0.69173	0.35153	0.077
Mof_C 	C 	0.09287	0.65233	0.39643	0.055
Mof_C 	C 	0.10342	0.63733	0.32078	0.068
Mof_H 	H 	0.11767	0.64593	0.29373	0.015
Mof_Co	Co	0.56662	0.77408	0.61922	1.149
Mof_O 	O 	0.57618	0.74815	0.67832	-0.404
Mof_O 	O 	0.62903	0.79707	0.64382	-0.494
Mof_O 	O 	0.83104	0.76781	0.9114	-0.427
Mof_O 	O 	0.76223	0.90669	0.59887	-0.46
Mof_O 	O 	0.697	0.87126	0.61766	-0.436
Mof_O 	O 	0.79532	0.70222	0.89175	-0.435
Mof_N 	N 	0.35577	0.70834	0.60952	-0.137
Mof_N 	N 	0.50264	0.74479	0.61778	-0.242
Mof_C 	C 	0.708	0.79355	0.74297	-0.101
Mof_H 	H 	0.73543	0.81297	0.74357	0.068
Mof_C 	C 	0.37284	0.68502	0.6096	0.099
Mof_C 	C 	0.41809	0.7057	0.61145	0.067
Mof_C 	C 	0.72042	0.7564	0.80549	0.044
Mof_C 	C 	0.68272	0.797	0.71129	0.035
Mof_H 	H 	0.69353	0.81827	0.69067	0.031
Mof_C 	C 	0.73996	0.93077	0.65912	-0.139
Mof_C 	C 	0.77341	0.74526	0.86249	-0.118
Mof_C 	C 	0.64138	0.76875	0.71046	-0.111
Mof_C 	C 	0.8026	0.73793	0.89057	0.385
Mof_C 	C 	0.43824	0.68409	0.6145	-0.141
Mof_H 	H 	0.42373	0.65587	0.61467	0.087
Mof_C 	C 	0.61404	0.77128	0.67566	0.339
Mof_C 	C 	0.44176	0.74804	0.61155	-0.137
Mof_H 	H 	0.42953	0.76397	0.60947	0.086
Mof_C 	C 	0.6927	0.76142	0.77389	0.039
Mof_C 	C 	0.78317	0.78389	0.8483	0.042
Mof_H 	H 	0.80733	0.80637	0.85767	0.027
Mof_C 	C 	0.73217	0.90034	0.62235	0.404
Mof_C 	C 	0.48326	0.76588	0.61476	0.081
Mof_H 	H 	0.49863	0.79407	0.61487	-0.013
Mof_C 	C 	0.73731	0.71234	0.84832	0.043
Mof_H 	H 	0.73053	0.68627	0.85747	0.033
Mof_C 	C 	0.62563	0.73753	0.742	0.034
Mof_H 	H 	0.59793	0.71877	0.74227	0.031
Mof_C 	C 	0.72837	0.94624	0.73406	-0.123
Mof_H 	H 	0.71363	0.93777	0.76077	0.074
Mof_C 	C 	0.71103	0.71778	0.8206	-0.108
Mof_H 	H 	0.68663	0.69527	0.81187	0.07
Mof_C 	C 	0.65118	0.73424	0.7731	-0.106
Mof_H 	H 	0.64013	0.71317	0.79407	0.066
Mof_C 	C 	0.75702	0.7891	0.82025	-0.11
Mof_H 	H 	0.76403	0.81517	0.81097	0.069
Mof_C 	C 	0.47996	0.70455	0.6173	0.087
Mof_H 	H 	0.49303	0.68937	0.61897	-0.004
Mof_C 	C 	0.71876	0.91872	0.69814	0.06
Mof_H 	H 	0.69773	0.89207	0.70127	0.02
Mof_C 	C 	0.77923	0.99802	0.68899	-0.114
Mof_H 	H 	0.79893	0.02507	0.68487	0.068
Mof_C 	C 	0.75953	0.98567	0.72977	0.05
Mof_C 	C 	0.77008	0.97067	0.65412	0.058
Mof_H 	H 	0.78433	0.97927	0.62707	0.021
Mof_Co	Co	0.89258	0.12587	0.95255	1.149
Mof_O 	O 	0.91852	0.16137	0.01165	-0.404
Mof_O 	O 	0.8696	0.1653	0.97715	-0.494
Mof_O 	O 	0.89886	0.39657	0.24473	-0.427
Mof_O 	O 	0.75998	0.18888	0.9322	-0.461
Mof_O 	O 	0.79541	0.15908	0.95099	-0.438
Mof_O 	O 	0.96445	0.42644	0.22508	-0.432
Mof_N 	N 	0.95833	0.98077	0.94285	-0.136
Mof_N 	N 	0.92188	0.09119	0.95111	-0.242
Mof_C 	C 	0.87312	0.24779	0.0763	-0.101
Mof_H 	H 	0.8537	0.2558	0.0769	0.068
Mof_C 	C 	0.98165	0.02116	0.94293	0.099
Mof_C 	C 	0.96097	0.04573	0.94478	0.067
Mof_C 	C 	0.91027	0.29736	0.13882	0.044
Mof_C 	C 	0.86967	0.21906	0.04462	0.035
Mof_H 	H 	0.8484	0.2086	0.024	0.031
Mof_C 	C 	0.7359	0.14253	0.99245	-0.146
Mof_C 	C 	0.92141	0.36149	0.19582	-0.117
Mof_C 	C 	0.89792	0.20597	0.04379	-0.111
Mof_C 	C 	0.92874	0.39801	0.2239	0.385
Mof_C 	C 	0.98258	0.08749	0.94783	-0.129
Mof_H 	H 	0.0108	0.1012	0.948	0.079
Mof_C 	C 	0.89539	0.1761	0.00899	0.339
Mof_C 	C 	0.91863	0.02706	0.94488	-0.148
Mof_H 	H 	0.9027	0.9989	0.9428	0.094
Mof_C 	C 	0.90525	0.26462	0.10722	0.04
Mof_C 	C 	0.88278	0.33262	0.18163	0.041
Mof_H 	H 	0.8603	0.3343	0.191	0.027
Mof_C 	C 	0.76633	0.16517	0.95568	0.406
Mof_C 	C 	0.90079	0.05072	0.94809	0.086
Mof_H 	H 	0.8726	0.0379	0.9482	-0.016
Mof_C 	C 	0.95433	0.35831	0.18165	0.043
Mof_H 	H 	0.9804	0.3776	0.1908	0.035
Mof_C 	C 	0.92914	0.22144	0.07533	0.034
Mof_H 	H 	0.9479	0.2125	0.0756	0.032
Mof_C 	C 	0.72043	0.11547	0.06739	-0.129
Mof_H 	H 	0.7289	0.1092	0.0941	0.075
Mof_C 	C 	0.94889	0.32659	0.15393	-0.108
Mof_H 	H 	0.9714	0.3247	0.1452	0.071
Mof_C 	C 	0.93243	0.25028	0.10643	-0.105
Mof_H 	H 	0.9535	0.2603	0.1274	0.067
Mof_C 	C 	0.87757	0.30126	0.15358	-0.11
Mof_H 	H 	0.8515	0.2822	0.1443	0.068
Mof_C 	C 	0.96212	0.10875	0.95063	0.082
Mof_H 	H 	0.9773	0.137	0.9523	-0.001
Mof_C 	C 	0.74795	0.13338	0.03147	0.065
Mof_H 	H 	0.7746	0.139	0.0346	0.018
Mof_C 	C 	0.66865	0.11455	0.02232	-0.131
Mof_H 	H 	0.6416	0.1072	0.0182	0.077
Mof_C 	C 	0.681	0.1072	0.0631	0.054
Mof_C 	C 	0.696	0.13275	0.98745	0.068
Mof_H 	H 	0.6874	0.1384	0.9604	0.016
Mof_Co	Co	0.55925	0.4592	0.28589	1.149
Mof_O 	O 	0.58519	0.4947	0.34498	-0.404
Mof_O 	O 	0.53627	0.49863	0.31048	-0.494
Mof_O 	O 	0.56553	0.7299	0.57806	-0.427
Mof_O 	O 	0.42665	0.52221	0.26553	-0.461
Mof_O 	O 	0.46208	0.49241	0.28432	-0.437
Mof_O 	O 	0.63112	0.75977	0.55841	-0.435
Mof_N 	N 	0.625	0.3141	0.27618	-0.137
Mof_N 	N 	0.58855	0.42452	0.28444	-0.242
Mof_C 	C 	0.53979	0.58112	0.40963	-0.101
Mof_H 	H 	0.52037	0.58913	0.41023	0.068
Mof_C 	C 	0.64832	0.35449	0.27626	0.099
Mof_C 	C 	0.62764	0.37906	0.27811	0.067
Mof_C 	C 	0.57694	0.63069	0.47215	0.044
Mof_C 	C 	0.53634	0.55239	0.37795	0.035
Mof_H 	H 	0.51507	0.54193	0.35733	0.031
Mof_C 	C 	0.40257	0.47586	0.32578	-0.146
Mof_C 	C 	0.58808	0.69482	0.52915	-0.118
Mof_C 	C 	0.56459	0.5393	0.37712	-0.111
Mof_C 	C 	0.59541	0.73134	0.55723	0.385
Mof_C 	C 	0.64925	0.42082	0.28116	-0.141
Mof_H 	H 	0.67747	0.43453	0.28133	0.087
Mof_C 	C 	0.56206	0.50943	0.34232	0.339
Mof_C 	C 	0.5853	0.36039	0.27821	-0.137
Mof_H 	H 	0.56937	0.33223	0.27613	0.086
Mof_C 	C 	0.57192	0.59795	0.44055	0.039
Mof_C 	C 	0.54945	0.66595	0.51496	0.042
Mof_H 	H 	0.52697	0.66763	0.52433	0.027
Mof_C 	C 	0.433	0.4985	0.28901	0.406
Mof_C 	C 	0.56746	0.38405	0.28142	0.081
Mof_H 	H 	0.53927	0.37123	0.28153	-0.013
Mof_C 	C 	0.621	0.69164	0.51498	0.043
Mof_H 	H 	0.64707	0.71093	0.52413	0.033
Mof_C 	C 	0.59581	0.55477	0.40866	0.034
Mof_H 	H 	0.61457	0.54583	0.40893	0.031
Mof_C 	C 	0.3871	0.4488	0.40072	-0.129
Mof_H 	H 	0.39557	0.44253	0.42743	0.075
Mof_C 	C 	0.61556	0.65992	0.48726	-0.108
Mof_H 	H 	0.63807	0.65803	0.47853	0.07
Mof_C 	C 	0.5991	0.58361	0.43976	-0.105
Mof_H 	H 	0.62017	0.59363	0.46073	0.066
Mof_C 	C 	0.54424	0.63459	0.48691	-0.111
Mof_H 	H 	0.51817	0.61553	0.47763	0.068
Mof_C 	C 	0.62879	0.44208	0.28396	0.087
Mof_H 	H 	0.64397	0.47033	0.28563	-0.004
Mof_C 	C 	0.41462	0.46671	0.3648	0.065
Mof_H 	H 	0.44127	0.47233	0.36793	0.018
Mof_C 	C 	0.33532	0.44788	0.35565	-0.131
Mof_H 	H 	0.30827	0.44053	0.35153	0.077
Mof_C 	C 	0.34767	0.44053	0.39643	0.055
Mof_C 	C 	0.36267	0.46608	0.32078	0.068
Mof_H 	H 	0.35407	0.47173	0.29373	0.016
Mof_Co	Co	0.22592	0.79254	0.61922	1.149
Mof_O 	O 	0.25185	0.82804	0.67832	-0.404
Mof_O 	O 	0.20293	0.83197	0.64382	-0.494
Mof_O 	O 	0.23219	0.06324	0.9114	-0.429
Mof_O 	O 	0.09331	0.85555	0.59887	-0.462
Mof_O 	O 	0.12874	0.82575	0.61766	-0.438
Mof_O 	O 	0.29778	0.09311	0.89175	-0.436
Mof_N 	N 	0.29166	0.64744	0.60952	-0.137
Mof_N 	N 	0.25521	0.75786	0.61778	-0.242
Mof_C 	C 	0.20645	0.91446	0.74297	-0.099
Mof_H 	H 	0.18703	0.92247	0.74357	0.068
Mof_C 	C 	0.31498	0.68783	0.6096	0.099
Mof_C 	C 	0.2943	0.7124	0.61145	0.067
Mof_C 	C 	0.2436	0.96403	0.80549	0.05
Mof_C 	C 	0.203	0.88573	0.71129	0.034
Mof_H 	H 	0.18173	0.87527	0.69067	0.032
Mof_C 	C 	0.06923	0.8092	0.65912	-0.152
Mof_C 	C 	0.25474	0.02816	0.86249	-0.131
Mof_C 	C 	0.23125	0.87264	0.71046	-0.11
Mof_C 	C 	0.26207	0.06468	0.89057	0.389
Mof_C 	C 	0.31591	0.75416	0.6145	-0.141
Mof_H 	H 	0.34413	0.76787	0.61467	0.087
Mof_C 	C 	0.22872	0.84277	0.67566	0.339
Mof_C 	C 	0.25196	0.69373	0.61155	-0.137
Mof_H 	H 	0.23603	0.66557	0.60947	0.086
Mof_C 	C 	0.23858	0.93129	0.77389	0.038
Mof_C 	C 	0.21611	0.99929	0.8483	0.067
Mof_H 	H 	0.19363	0.00097	0.85767	0.014
Mof_C 	C 	0.09966	0.83184	0.62235	0.408
Mof_C 	C 	0.23412	0.71739	0.61476	0.081
Mof_H 	H 	0.20593	0.70457	0.61487	-0.013
Mof_C 	C 	0.28766	0.02498	0.84832	0.043
Mof_H 	H 	0.31373	0.04427	0.85747	0.032
Mof_C 	C 	0.26247	0.88811	0.742	0.033
Mof_H 	H 	0.28123	0.87917	0.74227	0.031
Mof_C 	C 	0.05376	0.78214	0.73406	-0.135
Mof_H 	H 	0.06223	0.77587	0.76077	0.077
Mof_C 	C 	0.28222	0.99326	0.8206	-0.106
Mof_H 	H 	0.30473	0.99137	0.81187	0.07
Mof_C 	C 	0.26576	0.91695	0.7731	-0.104
Mof_H 	H 	0.28683	0.92697	0.79407	0.066
Mof_C 	C 	0.2109	0.96793	0.82025	-0.123
Mof_H 	H 	0.18483	0.94887	0.81097	0.073
Mof_C 	C 	0.29545	0.77542	0.6173	0.087
Mof_H 	H 	0.31063	0.80367	0.61897	-0.004
Mof_C 	C 	0.08128	0.80005	0.69814	0.071
Mof_H 	H 	0.10793	0.80567	0.70127	0.016
Mof_C 	C 	0.00198	0.78122	0.68899	-0.149
Mof_H 	H 	0.97493	0.77387	0.68487	0.086
Mof_C 	C 	0.01433	0.77387	0.72977	0.06
Mof_C 	C 	0.02933	0.79942	0.65412	0.078
Mof_H 	H 	0.02073	0.80507	0.62707	0.011
Mof_Co	Co	0.87413	0.76671	0.95255	1.15
Mof_O 	O 	0.83863	0.75715	0.01165	-0.404
Mof_O 	O 	0.8347	0.7043	0.97715	-0.494
Mof_O 	O 	0.60343	0.50229	0.24473	-0.427
Mof_O 	O 	0.81112	0.5711	0.9322	-0.461
Mof_O 	O 	0.84092	0.63633	0.95099	-0.437
Mof_O 	O 	0.57356	0.53801	0.22508	-0.435
Mof_N 	N 	0.01923	0.97756	0.94285	-0.138
Mof_N 	N 	0.90881	0.83069	0.95111	-0.24
Mof_C 	C 	0.75221	0.62533	0.0763	-0.101
Mof_H 	H 	0.7442	0.5979	0.0769	0.068
Mof_C 	C 	0.97884	0.96049	0.94293	0.107
Mof_C 	C 	0.95427	0.91524	0.94478	0.06
Mof_C 	C 	0.70264	0.61291	0.13882	0.044
Mof_C 	C 	0.78094	0.65061	0.04462	0.035
Mof_H 	H 	0.7914	0.6398	0.024	0.031
Mof_C 	C 	0.85747	0.59337	0.99245	-0.146
Mof_C 	C 	0.63851	0.55992	0.19582	-0.118
Mof_C 	C 	0.79403	0.69195	0.04379	-0.111
Mof_C 	C 	0.60199	0.53073	0.2239	0.385
Mof_C 	C 	0.91251	0.89509	0.94783	-0.136
Mof_H 	H 	0.8988	0.9096	0.948	0.085
Mof_C 	C 	0.8239	0.71929	0.00899	0.339
Mof_C 	C 	0.97294	0.89157	0.94488	-0.12
Mof_H 	H 	0.0011	0.9038	0.9428	0.077
Mof_C 	C 	0.73538	0.64063	0.10722	0.039
Mof_C 	C 	0.66738	0.55016	0.18163	0.042
Mof_H 	H 	0.6657	0.526	0.191	0.027
Mof_C 	C 	0.83483	0.60116	0.95568	0.406
Mof_C 	C 	0.94928	0.85007	0.94809	0.074
Mof_H 	H 	0.9621	0.8347	0.9482	-0.009
Mof_C 	C 	0.64169	0.59602	0.18165	0.043
Mof_H 	H 	0.6224	0.6028	0.1908	0.033
Mof_C 	C 	0.77856	0.7077	0.07533	0.034
Mof_H 	H 	0.7875	0.7354	0.0756	0.031
Mof_C 	C 	0.88453	0.60496	0.06739	-0.129
Mof_H 	H 	0.8908	0.6197	0.0941	0.076
Mof_C 	C 	0.67341	0.6223	0.15393	-0.108
Mof_H 	H 	0.6753	0.6467	0.1452	0.07
Mof_C 	C 	0.74972	0.68215	0.10643	-0.105
Mof_H 	H 	0.7397	0.6932	0.1274	0.066
Mof_C 	C 	0.69874	0.57631	0.15358	-0.111
Mof_H 	H 	0.7178	0.5693	0.1443	0.068
Mof_C 	C 	0.89125	0.85337	0.95063	0.084
Mof_H 	H 	0.863	0.8403	0.9523	-0.003
Mof_C 	C 	0.86662	0.61457	0.03147	0.066
Mof_H 	H 	0.861	0.6356	0.0346	0.018
Mof_C 	C 	0.88545	0.5541	0.02232	-0.131
Mof_H 	H 	0.8928	0.5344	0.0182	0.077
Mof_C 	C 	0.8928	0.5738	0.0631	0.055
Mof_C 	C 	0.86725	0.56325	0.98745	0.068
Mof_H 	H 	0.8616	0.549	0.9604	0.016
Mof_Co	Co	0.5408	0.10005	0.28589	1.149
Mof_O 	O 	0.5053	0.09048	0.34498	-0.406
Mof_O 	O 	0.50137	0.03763	0.31048	-0.497
Mof_O 	O 	0.2701	0.83562	0.57806	-0.427
Mof_O 	O 	0.47779	0.90443	0.26553	-0.461
Mof_O 	O 	0.50759	0.96966	0.28432	-0.434
Mof_O 	O 	0.24023	0.87134	0.55841	-0.434
Mof_N 	N 	0.6859	0.31089	0.27618	-0.137
Mof_N 	N 	0.57548	0.16402	0.28444	-0.242
Mof_C 	C 	0.41888	0.95866	0.40963	-0.116
Mof_H 	H 	0.41087	0.93123	0.41023	0.074
Mof_C 	C 	0.64551	0.29382	0.27626	0.099
Mof_C 	C 	0.62094	0.24857	0.27811	0.067
Mof_C 	C 	0.36931	0.94624	0.47215	0.037
Mof_C 	C 	0.44761	0.98394	0.37795	0.055
Mof_H 	H 	0.45807	0.97313	0.35733	0.026
Mof_C 	C 	0.52414	0.9267	0.32578	-0.144
Mof_C 	C 	0.30518	0.89325	0.52915	-0.115
Mof_C 	C 	0.4607	0.02528	0.37712	-0.127
Mof_C 	C 	0.26866	0.86406	0.55723	0.385
Mof_C 	C 	0.57918	0.22842	0.28116	-0.141
Mof_H 	H 	0.56547	0.24293	0.28133	0.087
Mof_C 	C 	0.49057	0.05262	0.34232	0.344
Mof_C 	C 	0.63961	0.2249	0.27821	-0.137
Mof_H 	H 	0.66777	0.23713	0.27613	0.086
Mof_C 	C 	0.40205	0.97396	0.44055	0.057
Mof_C 	C 	0.33405	0.88349	0.51496	0.038
Mof_H 	H 	0.33237	0.85933	0.52433	0.028
Mof_C 	C 	0.5015	0.93449	0.28901	0.406
Mof_C 	C 	0.61595	0.1834	0.28142	0.081
Mof_H 	H 	0.62877	0.16803	0.28153	-0.013
Mof_C 	C 	0.30836	0.92935	0.51498	0.04
Mof_H 	H 	0.28907	0.93613	0.52413	0.035
Mof_C 	C 	0.44523	0.04103	0.40866	0.049
Mof_H 	H 	0.45417	0.06873	0.40893	0.025
Mof_C 	C 	0.5512	0.93829	0.40072	-0.128
Mof_H 	H 	0.55747	0.95303	0.42743	0.076
Mof_C 	C 	0.34008	0.95563	0.48726	-0.103
Mof_H 	H 	0.34197	0.98003	0.47853	0.069
Mof_C 	C 	0.41639	0.01548	0.43976	-0.126
Mof_H 	H 	0.40637	0.02653	0.46073	0.071
Mof_C 	C 	0.36541	0.90964	0.48691	-0.105
Mof_H 	H 	0.38447	0.90263	0.47763	0.066
Mof_C 	C 	0.55792	0.1867	0.28396	0.087
Mof_H 	H 	0.52967	0.17363	0.28563	-0.004
Mof_C 	C 	0.53329	0.9479	0.3648	0.065
Mof_H 	H 	0.52767	0.96893	0.36793	0.019
Mof_C 	C 	0.55212	0.88743	0.35565	-0.131
Mof_H 	H 	0.55947	0.86773	0.35153	0.077
Mof_C 	C 	0.55947	0.90713	0.39643	0.055
Mof_C 	C 	0.53392	0.89658	0.32078	0.067
Mof_H 	H 	0.52827	0.88233	0.29373	0.016
Mof_Co	Co	0.20746	0.43338	0.61922	1.149
Mof_O 	O 	0.17196	0.42382	0.67832	-0.404
Mof_O 	O 	0.16803	0.37097	0.64382	-0.494
Mof_O 	O 	0.93676	0.16896	0.9114	-0.426
Mof_O 	O 	0.14445	0.23777	0.59887	-0.461
Mof_O 	O 	0.17425	0.303	0.61766	-0.437
Mof_O 	O 	0.90689	0.20468	0.89175	-0.434
Mof_N 	N 	0.35256	0.64423	0.60952	-0.137
Mof_N 	N 	0.24214	0.49736	0.61778	-0.242
Mof_C 	C 	0.08554	0.292	0.74297	-0.103
Mof_H 	H 	0.07753	0.26457	0.74357	0.068
Mof_C 	C 	0.31217	0.62716	0.6096	0.099
Mof_C 	C 	0.2876	0.58191	0.61145	0.067
Mof_C 	C 	0.03597	0.27958	0.80549	0.039
Mof_C 	C 	0.11427	0.31728	0.71129	0.036
Mof_H 	H 	0.12473	0.30647	0.69067	0.031
Mof_C 	C 	0.1908	0.26004	0.65912	-0.146
Mof_C 	C 	0.97184	0.22659	0.86249	-0.105
Mof_C 	C 	0.12736	0.35862	0.71046	-0.111
Mof_C 	C 	0.93532	0.1974	0.89057	0.381
Mof_C 	C 	0.24584	0.56176	0.6145	-0.141
Mof_H 	H 	0.23213	0.57627	0.61467	0.087
Mof_C 	C 	0.15723	0.38596	0.67566	0.339
Mof_C 	C 	0.30627	0.55824	0.61155	-0.137
Mof_H 	H 	0.33443	0.57047	0.60947	0.086
Mof_C 	C 	0.06871	0.3073	0.77389	0.041
Mof_C 	C 	0.00071	0.21683	0.8483	0.016
Mof_H 	H 	0.99903	0.19267	0.85767	0.039
Mof_C 	C 	0.16816	0.26783	0.62235	0.406
Mof_C 	C 	0.28261	0.51674	0.61476	0.081
Mof_H 	H 	0.29543	0.50137	0.61487	-0.013
Mof_C 	C 	0.97502	0.26269	0.84832	0.044
Mof_H 	H 	0.95573	0.26947	0.85747	0.034
Mof_C 	C 	0.11189	0.37437	0.742	0.034
Mof_H 	H 	0.12083	0.40207	0.74227	0.03
Mof_C 	C 	0.21786	0.27163	0.73406	-0.129
Mof_H 	H 	0.22413	0.28637	0.76077	0.075
Mof_C 	C 	0.00674	0.28897	0.8206	-0.111
Mof_H 	H 	0.00863	0.31337	0.81187	0.069
Mof_C 	C 	0.08305	0.34882	0.7731	-0.107
Mof_H 	H 	0.07303	0.35987	0.79407	0.066
Mof_C 	C 	0.03207	0.24298	0.82025	-0.098
Mof_H 	H 	0.05113	0.23597	0.81097	0.063
Mof_C 	C 	0.22458	0.52004	0.6173	0.087
Mof_H 	H 	0.19633	0.50697	0.61897	-0.004
Mof_C 	C 	0.19995	0.28124	0.69814	0.065
Mof_H 	H 	0.19433	0.30227	0.70127	0.018
Mof_C 	C 	0.21878	0.22077	0.68899	-0.131
Mof_H 	H 	0.22613	0.20107	0.68487	0.077
Mof_C 	C 	0.22613	0.24047	0.72977	0.055
Mof_C 	C 	0.20058	0.22992	0.65412	0.068
Mof_H 	H 	0.19493	0.21567	0.62707	0.016
Mof_Co	Co	0.10742	0.23329	0.54745	1.149
Mof_O 	O 	0.08148	0.24285	0.48835	-0.405
Mof_O 	O 	0.1304	0.2957	0.52285	-0.494
Mof_O 	O 	0.10114	0.49771	0.25527	-0.427
Mof_O 	O 	0.24002	0.4289	0.5678	-0.461
Mof_O 	O 	0.20459	0.36367	0.54901	-0.437
Mof_O 	O 	0.03555	0.46199	0.27492	-0.436
Mof_N 	N 	0.04167	0.02244	0.55715	-0.139
Mof_N 	N 	0.07812	0.16931	0.54889	-0.244
Mof_C 	C 	0.12688	0.37467	0.4237	-0.101
Mof_H 	H 	0.1463	0.4021	0.4231	0.068
Mof_C 	C 	0.01835	0.03951	0.55707	0.091
Mof_C 	C 	0.03903	0.08476	0.55522	0.074
Mof_C 	C 	0.08973	0.38709	0.36118	0.044
Mof_C 	C 	0.13033	0.34939	0.45538	0.035
Mof_H 	H 	0.1516	0.3602	0.476	0.031
Mof_C 	C 	0.2641	0.40663	0.50755	-0.146
Mof_C 	C 	0.07859	0.44008	0.30418	-0.119
Mof_C 	C 	0.10208	0.30805	0.45621	-0.111
Mof_C 	C 	0.07126	0.46927	0.2761	0.386
Mof_C 	C 	0.01742	0.10491	0.55217	-0.158
Mof_H 	H 	0.9892	0.0904	0.552	0.096
Mof_C 	C 	0.10461	0.28071	0.49101	0.339
Mof_C 	C 	0.08137	0.10843	0.55512	-0.142
Mof_H 	H 	0.0973	0.0962	0.5572	0.088
Mof_C 	C 	0.09475	0.35937	0.39278	0.039
Mof_C 	C 	0.11722	0.44984	0.31837	0.042
Mof_H 	H 	0.1397	0.474	0.309	0.026
Mof_C 	C 	0.23367	0.39884	0.54432	0.406
Mof_C 	C 	0.09921	0.14993	0.55191	0.084
Mof_H 	H 	0.1274	0.1653	0.5518	-0.014
Mof_C 	C 	0.04567	0.40398	0.31835	0.043
Mof_H 	H 	0.0196	0.3972	0.3092	0.032
Mof_C 	C 	0.07086	0.2923	0.42467	0.034
Mof_H 	H 	0.0521	0.2646	0.4244	0.03
Mof_C 	C 	0.27957	0.39504	0.43261	-0.129
Mof_H 	H 	0.2711	0.3803	0.4059	0.075
Mof_C 	C 	0.05111	0.3777	0.34607	-0.109
Mof_H 	H 	0.0286	0.3533	0.3548	0.069
Mof_C 	C 	0.06757	0.31785	0.39357	-0.106
Mof_H 	H 	0.0465	0.3068	0.3726	0.065
Mof_C 	C 	0.12243	0.42369	0.34642	-0.111
Mof_H 	H 	0.1485	0.4307	0.3557	0.068
Mof_C 	C 	0.03788	0.14663	0.54937	0.095
Mof_H 	H 	0.0227	0.1597	0.5477	-0.008
Mof_C 	C 	0.25205	0.38543	0.46853	0.065
Mof_H 	H 	0.2254	0.3644	0.4654	0.018
Mof_C 	C 	0.33135	0.4459	0.47768	-0.131
Mof_H 	H 	0.3584	0.4656	0.4818	0.077
Mof_C 	C 	0.319	0.4262	0.4369	0.055
Mof_C 	C 	0.304	0.43675	0.51255	0.068
Mof_H 	H 	0.3126	0.451	0.5396	0.016
Mof_Co	Co	0.77408	0.56662	0.88078	1.149
Mof_O 	O 	0.74815	0.57618	0.82168	-0.404
Mof_O 	O 	0.79707	0.62903	0.85618	-0.494
Mof_O 	O 	0.76781	0.83104	0.5886	-0.427
Mof_O 	O 	0.90669	0.76223	0.90113	-0.46
Mof_O 	O 	0.87126	0.697	0.88234	-0.436
Mof_O 	O 	0.70222	0.79532	0.60825	-0.435
Mof_N 	N 	0.70834	0.35577	0.89048	-0.137
Mof_N 	N 	0.74479	0.50264	0.88222	-0.242
Mof_C 	C 	0.79355	0.708	0.75703	-0.101
Mof_H 	H 	0.81297	0.73543	0.75643	0.068
Mof_C 	C 	0.68502	0.37284	0.8904	0.099
Mof_C 	C 	0.7057	0.41809	0.88855	0.067
Mof_C 	C 	0.7564	0.72042	0.69451	0.044
Mof_C 	C 	0.797	0.68272	0.78871	0.035
Mof_H 	H 	0.81827	0.69353	0.80933	0.031
Mof_C 	C 	0.93077	0.73996	0.84088	-0.139
Mof_C 	C 	0.74526	0.77341	0.63751	-0.118
Mof_C 	C 	0.76875	0.64138	0.78954	-0.111
Mof_C 	C 	0.73793	0.8026	0.60943	0.385
Mof_C 	C 	0.68409	0.43824	0.8855	-0.141
Mof_H 	H 	0.65587	0.42373	0.88533	0.087
Mof_C 	C 	0.77128	0.61404	0.82434	0.339
Mof_C 	C 	0.74804	0.44176	0.88845	-0.137
Mof_H 	H 	0.76397	0.42953	0.89053	0.086
Mof_C 	C 	0.76142	0.6927	0.72611	0.039
Mof_C 	C 	0.78389	0.78317	0.6517	0.042
Mof_H 	H 	0.80637	0.80733	0.64233	0.027
Mof_C 	C 	0.90034	0.73217	0.87765	0.404
Mof_C 	C 	0.76588	0.48326	0.88524	0.081
Mof_H 	H 	0.79407	0.49863	0.88513	-0.013
Mof_C 	C 	0.71234	0.73731	0.65168	0.043
Mof_H 	H 	0.68627	0.73053	0.64253	0.033
Mof_C 	C 	0.73753	0.62563	0.758	0.034
Mof_H 	H 	0.71877	0.59793	0.75773	0.031
Mof_C 	C 	0.94624	0.72837	0.76594	-0.123
Mof_H 	H 	0.93777	0.71363	0.73923	0.074
Mof_C 	C 	0.71778	0.71103	0.6794	-0.108
Mof_H 	H 	0.69527	0.68663	0.68813	0.07
Mof_C 	C 	0.73424	0.65118	0.7269	-0.106
Mof_H 	H 	0.71317	0.64013	0.70593	0.066
Mof_C 	C 	0.7891	0.75702	0.67975	-0.11
Mof_H 	H 	0.81517	0.76403	0.68903	0.069
Mof_C 	C 	0.70455	0.47996	0.8827	0.087
Mof_H 	H 	0.68937	0.49303	0.88103	-0.004
Mof_C 	C 	0.91872	0.71876	0.80186	0.06
Mof_H 	H 	0.89207	0.69773	0.79873	0.02
Mof_C 	C 	0.99802	0.77923	0.81101	-0.114
Mof_H 	H 	0.02507	0.79893	0.81513	0.068
Mof_C 	C 	0.98567	0.75953	0.77023	0.05
Mof_C 	C 	0.97067	0.77008	0.84588	0.058
Mof_H 	H 	0.97927	0.78433	0.87293	0.021
Mof_Co	Co	0.44075	0.89995	0.21411	1.15
Mof_O 	O 	0.41481	0.90952	0.15502	-0.403
Mof_O 	O 	0.46373	0.96237	0.18952	-0.49
Mof_O 	O 	0.43447	0.16438	0.92194	-0.428
Mof_O 	O 	0.57335	0.09557	0.23447	-0.462
Mof_O 	O 	0.53792	0.03034	0.21568	-0.439
Mof_O 	O 	0.36888	0.12866	0.94159	-0.435
Mof_N 	N 	0.375	0.68911	0.22382	-0.137
Mof_N 	N 	0.41145	0.83598	0.21556	-0.242
Mof_C 	C 	0.46021	0.04134	0.09037	-0.086
Mof_H 	H 	0.47963	0.06877	0.08977	0.063
Mof_C 	C 	0.35168	0.70618	0.22374	0.099
Mof_C 	C 	0.37236	0.75143	0.22189	0.067
Mof_C 	C 	0.42306	0.05376	0.02785	0.052
Mof_C 	C 	0.46366	0.01606	0.12205	0.015
Mof_H 	H 	0.48493	0.02687	0.14267	0.037
Mof_C 	C 	0.59743	0.0733	0.17422	-0.147
Mof_C 	C 	0.41192	0.10675	0.97085	-0.121
Mof_C 	C 	0.43541	0.97472	0.12288	-0.094
Mof_C 	C 	0.40459	0.13594	0.94277	0.386
Mof_C 	C 	0.35075	0.77158	0.21884	-0.141
Mof_H 	H 	0.32253	0.75707	0.21867	0.087
Mof_C 	C 	0.43794	0.94738	0.15768	0.334
Mof_C 	C 	0.4147	0.7751	0.22179	-0.137
Mof_H 	H 	0.43063	0.76287	0.22387	0.086
Mof_C 	C 	0.42808	0.02604	0.05945	0.022
Mof_C 	C 	0.45055	0.11651	0.98504	0.045
Mof_H 	H 	0.47303	0.14067	0.97567	0.025
Mof_C 	C 	0.567	0.06551	0.21099	0.407
Mof_C 	C 	0.43254	0.8166	0.21858	0.081
Mof_H 	H 	0.46073	0.83197	0.21847	-0.013
Mof_C 	C 	0.379	0.07065	0.98502	0.047
Mof_H 	H 	0.35293	0.06387	0.97587	0.032
Mof_C 	C 	0.40419	0.95897	0.09134	0.019
Mof_H 	H 	0.38543	0.93127	0.09107	0.036
Mof_C 	C 	0.6129	0.06171	0.09928	-0.13
Mof_H 	H 	0.60443	0.04697	0.07257	0.075
Mof_C 	C 	0.38444	0.04437	0.01274	-0.114
Mof_H 	H 	0.36193	0.01997	0.02147	0.07
Mof_C 	C 	0.4009	0.98452	0.06024	-0.085
Mof_H 	H 	0.37983	0.97347	0.03927	0.061
Mof_C 	C 	0.45576	0.09036	0.01309	-0.116
Mof_H 	H 	0.48183	0.09737	0.02237	0.07
Mof_C 	C 	0.37121	0.8133	0.21604	0.087
Mof_H 	H 	0.35603	0.82637	0.21437	-0.004
Mof_C 	C 	0.58538	0.0521	0.1352	0.066
Mof_H 	H 	0.55873	0.03107	0.13207	0.016
Mof_C 	C 	0.66468	0.11257	0.14435	-0.132
Mof_H 	H 	0.69173	0.13227	0.14847	0.077
Mof_C 	C 	0.65233	0.09287	0.10357	0.055
Mof_C 	C 	0.63733	0.10342	0.17922	0.068
Mof_H 	H 	0.64593	0.11767	0.20627	0.015
Mof_Co	Co	0.12587	0.89258	0.54745	1.149
Mof_O 	O 	0.16137	0.91852	0.48835	-0.404
Mof_O 	O 	0.1653	0.8696	0.52285	-0.494
Mof_O 	O 	0.39657	0.89886	0.25527	-0.427
Mof_O 	O 	0.18888	0.75998	0.5678	-0.461
Mof_O 	O 	0.15908	0.79541	0.54901	-0.438
Mof_O 	O 	0.42644	0.96445	0.27492	-0.432
Mof_N 	N 	0.98077	0.95833	0.55715	-0.136
Mof_N 	N 	0.09119	0.92188	0.54889	-0.242
Mof_C 	C 	0.24779	0.87312	0.4237	-0.101
Mof_H 	H 	0.2558	0.8537	0.4231	0.068
Mof_C 	C 	0.02116	0.98165	0.55707	0.099
Mof_C 	C 	0.04573	0.96097	0.55522	0.067
Mof_C 	C 	0.29736	0.91027	0.36118	0.044
Mof_C 	C 	0.21906	0.86967	0.45538	0.035
Mof_H 	H 	0.2086	0.8484	0.476	0.031
Mof_C 	C 	0.14253	0.7359	0.50755	-0.146
Mof_C 	C 	0.36149	0.92141	0.30418	-0.117
Mof_C 	C 	0.20597	0.89792	0.45621	-0.111
Mof_C 	C 	0.39801	0.92874	0.2761	0.385
Mof_C 	C 	0.08749	0.98258	0.55217	-0.129
Mof_H 	H 	0.1012	0.0108	0.552	0.079
Mof_C 	C 	0.1761	0.89539	0.49101	0.339
Mof_C 	C 	0.02706	0.91863	0.55512	-0.148
Mof_H 	H 	0.9989	0.9027	0.5572	0.094
Mof_C 	C 	0.26462	0.90525	0.39278	0.04
Mof_C 	C 	0.33262	0.88278	0.31837	0.041
Mof_H 	H 	0.3343	0.8603	0.309	0.027
Mof_C 	C 	0.16517	0.76633	0.54432	0.406
Mof_C 	C 	0.05072	0.90079	0.55191	0.086
Mof_H 	H 	0.0379	0.8726	0.5518	-0.016
Mof_C 	C 	0.35831	0.95433	0.31835	0.043
Mof_H 	H 	0.3776	0.9804	0.3092	0.035
Mof_C 	C 	0.22144	0.92914	0.42467	0.034
Mof_H 	H 	0.2125	0.9479	0.4244	0.032
Mof_C 	C 	0.11547	0.72043	0.43261	-0.129
Mof_H 	H 	0.1092	0.7289	0.4059	0.075
Mof_C 	C 	0.32659	0.94889	0.34607	-0.108
Mof_H 	H 	0.3247	0.9714	0.3548	0.071
Mof_C 	C 	0.25028	0.93243	0.39357	-0.105
Mof_H 	H 	0.2603	0.9535	0.3726	0.067
Mof_C 	C 	0.30126	0.87757	0.34642	-0.11
Mof_H 	H 	0.2822	0.8515	0.3557	0.068
Mof_C 	C 	0.10875	0.96212	0.54937	0.082
Mof_H 	H 	0.137	0.9773	0.5477	-0.001
Mof_C 	C 	0.13338	0.74795	0.46853	0.065
Mof_H 	H 	0.139	0.7746	0.4654	0.018
Mof_C 	C 	0.11455	0.66865	0.47768	-0.131
Mof_H 	H 	0.1072	0.6416	0.4818	0.077
Mof_C 	C 	0.1072	0.681	0.4369	0.054
Mof_C 	C 	0.13275	0.696	0.51255	0.068
Mof_H 	H 	0.1384	0.6874	0.5396	0.016
Mof_Co	Co	0.79254	0.22592	0.88078	1.149
Mof_O 	O 	0.82804	0.25185	0.82168	-0.404
Mof_O 	O 	0.83197	0.20293	0.85618	-0.494
Mof_O 	O 	0.06324	0.23219	0.5886	-0.429
Mof_O 	O 	0.85555	0.09331	0.90113	-0.462
Mof_O 	O 	0.82575	0.12874	0.88234	-0.438
Mof_O 	O 	0.09311	0.29778	0.60825	-0.436
Mof_N 	N 	0.64744	0.29166	0.89048	-0.137
Mof_N 	N 	0.75786	0.25521	0.88222	-0.242
Mof_C 	C 	0.91446	0.20645	0.75703	-0.099
Mof_H 	H 	0.92247	0.18703	0.75643	0.068
Mof_C 	C 	0.68783	0.31498	0.8904	0.099
Mof_C 	C 	0.7124	0.2943	0.88855	0.067
Mof_C 	C 	0.96403	0.2436	0.69451	0.05
Mof_C 	C 	0.88573	0.203	0.78871	0.034
Mof_H 	H 	0.87527	0.18173	0.80933	0.032
Mof_C 	C 	0.8092	0.06923	0.84088	-0.152
Mof_C 	C 	0.02816	0.25474	0.63751	-0.131
Mof_C 	C 	0.87264	0.23125	0.78954	-0.11
Mof_C 	C 	0.06468	0.26207	0.60943	0.389
Mof_C 	C 	0.75416	0.31591	0.8855	-0.141
Mof_H 	H 	0.76787	0.34413	0.88533	0.087
Mof_C 	C 	0.84277	0.22872	0.82434	0.339
Mof_C 	C 	0.69373	0.25196	0.88845	-0.137
Mof_H 	H 	0.66557	0.23603	0.89053	0.086
Mof_C 	C 	0.93129	0.23858	0.72611	0.038
Mof_C 	C 	0.99929	0.21611	0.6517	0.067
Mof_H 	H 	0.00097	0.19363	0.64233	0.014
Mof_C 	C 	0.83184	0.09966	0.87765	0.408
Mof_C 	C 	0.71739	0.23412	0.88524	0.081
Mof_H 	H 	0.70457	0.20593	0.88513	-0.013
Mof_C 	C 	0.02498	0.28766	0.65168	0.043
Mof_H 	H 	0.04427	0.31373	0.64253	0.032
Mof_C 	C 	0.88811	0.26247	0.758	0.033
Mof_H 	H 	0.87917	0.28123	0.75773	0.031
Mof_C 	C 	0.78214	0.05376	0.76594	-0.135
Mof_H 	H 	0.77587	0.06223	0.73923	0.077
Mof_C 	C 	0.99326	0.28222	0.6794	-0.106
Mof_H 	H 	0.99137	0.30473	0.68813	0.07
Mof_C 	C 	0.91695	0.26576	0.7269	-0.104
Mof_H 	H 	0.92697	0.28683	0.70593	0.066
Mof_C 	C 	0.96793	0.2109	0.67975	-0.123
Mof_H 	H 	0.94887	0.18483	0.68903	0.073
Mof_C 	C 	0.77542	0.29545	0.8827	0.087
Mof_H 	H 	0.80367	0.31063	0.88103	-0.004
Mof_C 	C 	0.80005	0.08128	0.80186	0.071
Mof_H 	H 	0.80567	0.10793	0.79873	0.016
Mof_C 	C 	0.78122	0.00198	0.81101	-0.149
Mof_H 	H 	0.77387	0.97493	0.81513	0.086
Mof_C 	C 	0.77387	0.01433	0.77023	0.06
Mof_C 	C 	0.79942	0.02933	0.84588	0.078
Mof_H 	H 	0.80507	0.02073	0.87293	0.011
Mof_Co	Co	0.4592	0.55925	0.21411	1.149
Mof_O 	O 	0.4947	0.58519	0.15502	-0.404
Mof_O 	O 	0.49863	0.53627	0.18952	-0.494
Mof_O 	O 	0.7299	0.56553	0.92194	-0.427
Mof_O 	O 	0.52221	0.42665	0.23447	-0.461
Mof_O 	O 	0.49241	0.46208	0.21568	-0.437
Mof_O 	O 	0.75977	0.63112	0.94159	-0.435
Mof_N 	N 	0.3141	0.625	0.22382	-0.137
Mof_N 	N 	0.42452	0.58855	0.21556	-0.242
Mof_C 	C 	0.58112	0.53979	0.09037	-0.101
Mof_H 	H 	0.58913	0.52037	0.08977	0.068
Mof_C 	C 	0.35449	0.64832	0.22374	0.099
Mof_C 	C 	0.37906	0.62764	0.22189	0.067
Mof_C 	C 	0.63069	0.57694	0.02785	0.044
Mof_C 	C 	0.55239	0.53634	0.12205	0.035
Mof_H 	H 	0.54193	0.51507	0.14267	0.031
Mof_C 	C 	0.47586	0.40257	0.17422	-0.146
Mof_C 	C 	0.69482	0.58808	0.97085	-0.118
Mof_C 	C 	0.5393	0.56459	0.12288	-0.111
Mof_C 	C 	0.73134	0.59541	0.94277	0.385
Mof_C 	C 	0.42082	0.64925	0.21884	-0.141
Mof_H 	H 	0.43453	0.67747	0.21867	0.087
Mof_C 	C 	0.50943	0.56206	0.15768	0.339
Mof_C 	C 	0.36039	0.5853	0.22179	-0.137
Mof_H 	H 	0.33223	0.56937	0.22387	0.086
Mof_C 	C 	0.59795	0.57192	0.05945	0.039
Mof_C 	C 	0.66595	0.54945	0.98504	0.042
Mof_H 	H 	0.66763	0.52697	0.97567	0.027
Mof_C 	C 	0.4985	0.433	0.21099	0.406
Mof_C 	C 	0.38405	0.56746	0.21858	0.081
Mof_H 	H 	0.37123	0.53927	0.21847	-0.013
Mof_C 	C 	0.69164	0.621	0.98502	0.043
Mof_H 	H 	0.71093	0.64707	0.97587	0.033
Mof_C 	C 	0.55477	0.59581	0.09134	0.034
Mof_H 	H 	0.54583	0.61457	0.09107	0.031
Mof_C 	C 	0.4488	0.3871	0.09928	-0.129
Mof_H 	H 	0.44253	0.39557	0.07257	0.075
Mof_C 	C 	0.65992	0.61556	0.01274	-0.108
Mof_H 	H 	0.65803	0.63807	0.02147	0.07
Mof_C 	C 	0.58361	0.5991	0.06024	-0.105
Mof_H 	H 	0.59363	0.62017	0.03927	0.066
Mof_C 	C 	0.63459	0.54424	0.01309	-0.111
Mof_H 	H 	0.61553	0.51817	0.02237	0.068
Mof_C 	C 	0.44208	0.62879	0.21604	0.087
Mof_H 	H 	0.47033	0.64397	0.21437	-0.004
Mof_C 	C 	0.46671	0.41462	0.1352	0.065
Mof_H 	H 	0.47233	0.44127	0.13207	0.018
Mof_C 	C 	0.44788	0.33532	0.14435	-0.131
Mof_H 	H 	0.44053	0.30827	0.14847	0.077
Mof_C 	C 	0.44053	0.34767	0.10357	0.055
Mof_C 	C 	0.46608	0.36267	0.17922	0.068
Mof_H 	H 	0.47173	0.35407	0.20627	0.016
Mof_Co	Co	0.76671	0.87413	0.54745	1.15
Mof_O 	O 	0.75715	0.83863	0.48835	-0.404
Mof_O 	O 	0.7043	0.8347	0.52285	-0.494
Mof_O 	O 	0.50229	0.60343	0.25527	-0.427
Mof_O 	O 	0.5711	0.81112	0.5678	-0.461
Mof_O 	O 	0.63633	0.84092	0.54901	-0.437
Mof_O 	O 	0.53801	0.57356	0.27492	-0.435
Mof_N 	N 	0.97756	0.01923	0.55715	-0.138
Mof_N 	N 	0.83069	0.90881	0.54889	-0.24
Mof_C 	C 	0.62533	0.75221	0.4237	-0.101
Mof_H 	H 	0.5979	0.7442	0.4231	0.068
Mof_C 	C 	0.96049	0.97884	0.55707	0.107
Mof_C 	C 	0.91524	0.95427	0.55522	0.06
Mof_C 	C 	0.61291	0.70264	0.36118	0.044
Mof_C 	C 	0.65061	0.78094	0.45538	0.035
Mof_H 	H 	0.6398	0.7914	0.476	0.031
Mof_C 	C 	0.59337	0.85747	0.50755	-0.145
Mof_C 	C 	0.55992	0.63851	0.30418	-0.118
Mof_C 	C 	0.69195	0.79403	0.45621	-0.111
Mof_C 	C 	0.53073	0.60199	0.2761	0.385
Mof_C 	C 	0.89509	0.91251	0.55217	-0.135
Mof_H 	H 	0.9096	0.8988	0.552	0.085
Mof_C 	C 	0.71929	0.8239	0.49101	0.339
Mof_C 	C 	0.89157	0.97294	0.55512	-0.12
Mof_H 	H 	0.9038	0.0011	0.5572	0.077
Mof_C 	C 	0.64063	0.73538	0.39278	0.039
Mof_C 	C 	0.55016	0.66738	0.31837	0.042
Mof_H 	H 	0.526	0.6657	0.309	0.027
Mof_C 	C 	0.60116	0.83483	0.54432	0.406
Mof_C 	C 	0.85007	0.94928	0.55191	0.074
Mof_H 	H 	0.8347	0.9621	0.5518	-0.009
Mof_C 	C 	0.59602	0.64169	0.31835	0.043
Mof_H 	H 	0.6028	0.6224	0.3092	0.033
Mof_C 	C 	0.7077	0.77856	0.42467	0.034
Mof_H 	H 	0.7354	0.7875	0.4244	0.031
Mof_C 	C 	0.60496	0.88453	0.43261	-0.129
Mof_H 	H 	0.6197	0.8908	0.4059	0.076
Mof_C 	C 	0.6223	0.67341	0.34607	-0.108
Mof_H 	H 	0.6467	0.6753	0.3548	0.07
Mof_C 	C 	0.68215	0.74972	0.39357	-0.105
Mof_H 	H 	0.6932	0.7397	0.3726	0.066
Mof_C 	C 	0.57631	0.69874	0.34642	-0.111
Mof_H 	H 	0.5693	0.7178	0.3557	0.068
Mof_C 	C 	0.85337	0.89125	0.54937	0.084
Mof_H 	H 	0.8403	0.863	0.5477	-0.003
Mof_C 	C 	0.61457	0.86662	0.46853	0.066
Mof_H 	H 	0.6356	0.861	0.4654	0.018
Mof_C 	C 	0.5541	0.88545	0.47768	-0.131
Mof_H 	H 	0.5344	0.8928	0.4818	0.077
Mof_C 	C 	0.5738	0.8928	0.4369	0.055
Mof_C 	C 	0.56325	0.86725	0.51255	0.068
Mof_H 	H 	0.549	0.8616	0.5396	0.016
Mof_Co	Co	0.43338	0.20746	0.88078	1.149
Mof_O 	O 	0.42382	0.17196	0.82168	-0.404
Mof_O 	O 	0.37097	0.16803	0.85618	-0.494
Mof_O 	O 	0.16896	0.93676	0.5886	-0.426
Mof_O 	O 	0.23777	0.14445	0.90113	-0.461
Mof_O 	O 	0.303	0.17425	0.88234	-0.437
Mof_O 	O 	0.20468	0.90689	0.60825	-0.434
Mof_N 	N 	0.64423	0.35256	0.89048	-0.137
Mof_N 	N 	0.49736	0.24214	0.88222	-0.242
Mof_C 	C 	0.292	0.08554	0.75703	-0.103
Mof_H 	H 	0.26457	0.07753	0.75643	0.068
Mof_C 	C 	0.62716	0.31217	0.8904	0.099
Mof_C 	C 	0.58191	0.2876	0.88855	0.067
Mof_C 	C 	0.27958	0.03597	0.69451	0.039
Mof_C 	C 	0.31728	0.11427	0.78871	0.036
Mof_H 	H 	0.30647	0.12473	0.80933	0.031
Mof_C 	C 	0.26004	0.1908	0.84088	-0.146
Mof_C 	C 	0.22659	0.97184	0.63751	-0.105
Mof_C 	C 	0.35862	0.12736	0.78954	-0.111
Mof_C 	C 	0.1974	0.93532	0.60943	0.381
Mof_C 	C 	0.56176	0.24584	0.8855	-0.141
Mof_H 	H 	0.57627	0.23213	0.88533	0.087
Mof_C 	C 	0.38596	0.15723	0.82434	0.339
Mof_C 	C 	0.55824	0.30627	0.88845	-0.137
Mof_H 	H 	0.57047	0.33443	0.89053	0.086
Mof_C 	C 	0.3073	0.06871	0.72611	0.041
Mof_C 	C 	0.21683	0.00071	0.6517	0.016
Mof_H 	H 	0.19267	0.99903	0.64233	0.039
Mof_C 	C 	0.26783	0.16816	0.87765	0.406
Mof_C 	C 	0.51674	0.28261	0.88524	0.081
Mof_H 	H 	0.50137	0.29543	0.88513	-0.013
Mof_C 	C 	0.26269	0.97502	0.65168	0.044
Mof_H 	H 	0.26947	0.95573	0.64253	0.034
Mof_C 	C 	0.37437	0.11189	0.758	0.034
Mof_H 	H 	0.40207	0.12083	0.75773	0.03
Mof_C 	C 	0.27163	0.21786	0.76594	-0.129
Mof_H 	H 	0.28637	0.22413	0.73923	0.075
Mof_C 	C 	0.28897	0.00674	0.6794	-0.111
Mof_H 	H 	0.31337	0.00863	0.68813	0.069
Mof_C 	C 	0.34882	0.08305	0.7269	-0.107
Mof_H 	H 	0.35987	0.07303	0.70593	0.066
Mof_C 	C 	0.24298	0.03207	0.67975	-0.098
Mof_H 	H 	0.23597	0.05113	0.68903	0.063
Mof_C 	C 	0.52004	0.22458	0.8827	0.087
Mof_H 	H 	0.50697	0.19633	0.88103	-0.004
Mof_C 	C 	0.28124	0.19995	0.80186	0.065
Mof_H 	H 	0.30227	0.19433	0.79873	0.018
Mof_C 	C 	0.22077	0.21878	0.81101	-0.131
Mof_H 	H 	0.20107	0.22613	0.81513	0.077
Mof_C 	C 	0.24047	0.22613	0.77023	0.055
Mof_C 	C 	0.22992	0.20058	0.84588	0.068
Mof_H 	H 	0.21567	0.19493	0.87293	0.016
Mof_Co	Co	0.10005	0.5408	0.21411	1.149
Mof_O 	O 	0.09048	0.5053	0.15502	-0.406
Mof_O 	O 	0.03763	0.50137	0.18952	-0.497
Mof_O 	O 	0.83562	0.2701	0.92194	-0.427
Mof_O 	O 	0.90443	0.47779	0.23447	-0.461
Mof_O 	O 	0.96966	0.50759	0.21568	-0.434
Mof_O 	O 	0.87134	0.24023	0.94159	-0.434
Mof_N 	N 	0.31089	0.6859	0.22382	-0.137
Mof_N 	N 	0.16402	0.57548	0.21556	-0.242
Mof_C 	C 	0.95866	0.41888	0.09037	-0.116
Mof_H 	H 	0.93123	0.41087	0.08977	0.074
Mof_C 	C 	0.29382	0.64551	0.22374	0.099
Mof_C 	C 	0.24857	0.62094	0.22189	0.067
Mof_C 	C 	0.94624	0.36931	0.02785	0.037
Mof_C 	C 	0.98394	0.44761	0.12205	0.055
Mof_H 	H 	0.97313	0.45807	0.14267	0.026
Mof_C 	C 	0.9267	0.52414	0.17422	-0.144
Mof_C 	C 	0.89325	0.30518	0.97085	-0.115
Mof_C 	C 	0.02528	0.4607	0.12288	-0.127
Mof_C 	C 	0.86406	0.26866	0.94277	0.385
Mof_C 	C 	0.22842	0.57918	0.21884	-0.141
Mof_H 	H 	0.24293	0.56547	0.21867	0.087
Mof_C 	C 	0.05262	0.49057	0.15768	0.344
Mof_C 	C 	0.2249	0.63961	0.22179	-0.137
Mof_H 	H 	0.23713	0.66777	0.22387	0.086
Mof_C 	C 	0.97396	0.40205	0.05945	0.056
Mof_C 	C 	0.88349	0.33405	0.98504	0.038
Mof_H 	H 	0.85933	0.33237	0.97567	0.028
Mof_C 	C 	0.93449	0.5015	0.21099	0.406
Mof_C 	C 	0.1834	0.61595	0.21858	0.081
Mof_H 	H 	0.16803	0.62877	0.21847	-0.013
Mof_C 	C 	0.92935	0.30836	0.98502	0.04
Mof_H 	H 	0.93613	0.28907	0.97587	0.035
Mof_C 	C 	0.04103	0.44523	0.09134	0.049
Mof_H 	H 	0.06873	0.45417	0.09107	0.025
Mof_C 	C 	0.93829	0.5512	0.09928	-0.128
Mof_H 	H 	0.95303	0.55747	0.07257	0.076
Mof_C 	C 	0.95563	0.34008	0.01274	-0.103
Mof_H 	H 	0.98003	0.34197	0.02147	0.069
Mof_C 	C 	0.01548	0.41639	0.06024	-0.126
Mof_H 	H 	0.02653	0.40637	0.03927	0.071
Mof_C 	C 	0.90964	0.36541	0.01309	-0.105
Mof_H 	H 	0.90263	0.38447	0.02237	0.066
Mof_C 	C 	0.1867	0.55792	0.21604	0.087
Mof_H 	H 	0.17363	0.52967	0.21437	-0.004
Mof_C 	C 	0.9479	0.53329	0.1352	0.065
Mof_H 	H 	0.96893	0.52767	0.13207	0.019
Mof_C 	C 	0.88743	0.55212	0.14435	-0.131
Mof_H 	H 	0.86773	0.55947	0.14847	0.077
Mof_C 	C 	0.90713	0.55947	0.10357	0.055
Mof_C 	C 	0.89658	0.53392	0.17922	0.067
Mof_H 	H 	0.88233	0.52827	0.20627	0.016
Mof_Co	Co	0.33333	0.14991	0.91667	1.2
Mof_Co	Co	2.52613e-17	0.48324	0.25	1.197
Mof_Co	Co	0.85009	0.18343	0.91667	1.2
Mof_Co	Co	0.51676	0.51676	0.25	1.2
Mof_Co	Co	0.81657	0.66667	0.91667	1.2
Mof_Co	Co	0.48324	0	0.25	1.197
Mof_Co	Co	0.14991	0.33333	0.58333	1.2
Mof_Co	Co	0.18343	0.85009	0.58333	1.2
Mof_Co	Co	0.66667	0.81657	0.58333	1.2
Mof_Co	Co	0.76671	0.89258	0.04745	1.149
Mof_O 	O 	0.75715	0.91852	0.98835	-0.404
Mof_O 	O 	0.7043	0.8696	0.02285	-0.494
Mof_O 	O 	0.50229	0.89886	0.75527	-0.427
Mof_O 	O 	0.5711	0.75998	0.0678	-0.461
Mof_O 	O 	0.63633	0.79541	0.04901	-0.437
Mof_O 	O 	0.53801	0.96445	0.77492	-0.432
Mof_N 	N 	0.97756	0.95833	0.05715	-0.136
Mof_N 	N 	0.83069	0.92188	0.04889	-0.24
Mof_C 	C 	0.62533	0.87312	0.9237	-0.101
Mof_H 	H 	0.5979	0.8537	0.9231	0.068
Mof_C 	C 	0.96049	0.98165	0.05707	0.107
Mof_C 	C 	0.91524	0.96097	0.05522	0.06
Mof_C 	C 	0.61291	0.91027	0.86118	0.044
Mof_C 	C 	0.65061	0.86967	0.95538	0.035
Mof_H 	H 	0.6398	0.8484	0.976	0.031
Mof_C 	C 	0.59337	0.7359	0.00755	-0.146
Mof_C 	C 	0.55992	0.92141	0.80418	-0.117
Mof_C 	C 	0.69195	0.89792	0.95621	-0.11
Mof_C 	C 	0.53073	0.92874	0.7761	0.385
Mof_C 	C 	0.89509	0.98258	0.05217	-0.124
Mof_H 	H 	0.9096	0.0108	0.052	0.078
Mof_C 	C 	0.71929	0.89539	0.99101	0.339
Mof_C 	C 	0.89157	0.91863	0.05512	-0.131
Mof_H 	H 	0.9038	0.9027	0.0572	0.085
Mof_C 	C 	0.64063	0.90525	0.89278	0.04
Mof_C 	C 	0.55016	0.88278	0.81837	0.041
Mof_H 	H 	0.526	0.8603	0.809	0.027
Mof_C 	C 	0.60116	0.76633	0.04432	0.406
Mof_C 	C 	0.85007	0.90079	0.05191	0.079
Mof_H 	H 	0.8347	0.8726	0.0518	-0.012
Mof_C 	C 	0.59602	0.95433	0.81835	0.043
Mof_H 	H 	0.6028	0.9804	0.8092	0.035
Mof_C 	C 	0.7077	0.92914	0.92467	0.034
Mof_H 	H 	0.7354	0.9479	0.9244	0.032
Mof_C 	C 	0.60496	0.72043	0.93261	-0.129
Mof_H 	H 	0.6197	0.7289	0.9059	0.075
Mof_C 	C 	0.6223	0.94889	0.84607	-0.108
Mof_H 	H 	0.6467	0.9714	0.8548	0.071
Mof_C 	C 	0.68215	0.93243	0.89357	-0.105
Mof_H 	H 	0.6932	0.9535	0.8726	0.067
Mof_C 	C 	0.57631	0.87757	0.84642	-0.11
Mof_H 	H 	0.5693	0.8515	0.8557	0.068
Mof_C 	C 	0.85337	0.96212	0.04937	0.079
Mof_H 	H 	0.8403	0.9773	0.0477	-0
Mof_C 	C 	0.61457	0.74795	0.96853	0.065
Mof_H 	H 	0.6356	0.7746	0.9654	0.018
Mof_C 	C 	0.5541	0.66865	0.97768	-0.131
Mof_H 	H 	0.5344	0.6416	0.9818	0.077
Mof_C 	C 	0.5738	0.681	0.9369	0.055
Mof_C 	C 	0.56325	0.696	0.01255	0.068
Mof_H 	H 	0.549	0.6874	0.0396	0.016
Mof_Co	Co	0.43338	0.22592	0.38078	1.149
Mof_O 	O 	0.42382	0.25185	0.32168	-0.404
Mof_O 	O 	0.37097	0.20293	0.35618	-0.494
Mof_O 	O 	0.16896	0.23219	0.0886	-0.427
Mof_O 	O 	0.23777	0.09331	0.40113	-0.462
Mof_O 	O 	0.303	0.12874	0.38234	-0.438
Mof_O 	O 	0.20468	0.29778	0.10825	-0.435
Mof_N 	N 	0.64423	0.29166	0.39048	-0.137
Mof_N 	N 	0.49736	0.25521	0.38222	-0.242
Mof_C 	C 	0.292	0.20645	0.25703	-0.101
Mof_H 	H 	0.26457	0.18703	0.25643	0.068
Mof_C 	C 	0.62716	0.31498	0.3904	0.099
Mof_C 	C 	0.58191	0.2943	0.38855	0.067
Mof_C 	C 	0.27958	0.2436	0.19451	0.044
Mof_C 	C 	0.31728	0.203	0.28871	0.035
Mof_H 	H 	0.30647	0.18173	0.30933	0.031
Mof_C 	C 	0.26004	0.06923	0.34088	-0.152
Mof_C 	C 	0.22659	0.25474	0.13751	-0.118
Mof_C 	C 	0.35862	0.23125	0.28954	-0.111
Mof_C 	C 	0.1974	0.26207	0.10943	0.385
Mof_C 	C 	0.56176	0.31591	0.3855	-0.141
Mof_H 	H 	0.57627	0.34413	0.38533	0.087
Mof_C 	C 	0.38596	0.22872	0.32434	0.339
Mof_C 	C 	0.55824	0.25196	0.38845	-0.137
Mof_H 	H 	0.57047	0.23603	0.39053	0.086
Mof_C 	C 	0.3073	0.23858	0.22611	0.039
Mof_C 	C 	0.21683	0.21611	0.1517	0.042
Mof_H 	H 	0.19267	0.19363	0.14233	0.026
Mof_C 	C 	0.26783	0.09966	0.37765	0.408
Mof_C 	C 	0.51674	0.23412	0.38524	0.081
Mof_H 	H 	0.50137	0.20593	0.38513	-0.013
Mof_C 	C 	0.26269	0.28766	0.15168	0.043
Mof_H 	H 	0.26947	0.31373	0.14253	0.033
Mof_C 	C 	0.37437	0.26247	0.258	0.034
Mof_H 	H 	0.40207	0.28123	0.25773	0.031
Mof_C 	C 	0.27163	0.05376	0.26594	-0.135
Mof_H 	H 	0.28637	0.06223	0.23923	0.077
Mof_C 	C 	0.28897	0.28222	0.1794	-0.108
Mof_H 	H 	0.31337	0.30473	0.18813	0.07
Mof_C 	C 	0.34882	0.26576	0.2269	-0.105
Mof_H 	H 	0.35987	0.28683	0.20593	0.066
Mof_C 	C 	0.24298	0.2109	0.17975	-0.111
Mof_H 	H 	0.23597	0.18483	0.18903	0.068
Mof_C 	C 	0.52004	0.29545	0.3827	0.087
Mof_H 	H 	0.50697	0.31063	0.38103	-0.004
Mof_C 	C 	0.28124	0.08128	0.30186	0.071
Mof_H 	H 	0.30227	0.10793	0.29873	0.016
Mof_C 	C 	0.22077	0.00198	0.31101	-0.149
Mof_H 	H 	0.20107	0.97493	0.31513	0.086
Mof_C 	C 	0.24047	0.01433	0.27023	0.06
Mof_C 	C 	0.22992	0.02933	0.34588	0.078
Mof_H 	H 	0.21567	0.02073	0.37293	0.011
Mof_Co	Co	0.10005	0.55925	0.71411	1.149
Mof_O 	O 	0.09048	0.58519	0.65502	-0.406
Mof_O 	O 	0.03763	0.53627	0.68952	-0.497
Mof_O 	O 	0.83562	0.56553	0.42194	-0.427
Mof_O 	O 	0.90443	0.42665	0.73447	-0.461
Mof_O 	O 	0.96966	0.46208	0.71568	-0.435
Mof_O 	O 	0.87134	0.63112	0.44159	-0.434
Mof_N 	N 	0.31089	0.625	0.72382	-0.137
Mof_N 	N 	0.16402	0.58855	0.71556	-0.242
Mof_C 	C 	0.95866	0.53979	0.59037	-0.116
Mof_H 	H 	0.93123	0.52037	0.58977	0.074
Mof_C 	C 	0.29382	0.64832	0.72374	0.099
Mof_C 	C 	0.24857	0.62764	0.72189	0.067
Mof_C 	C 	0.94624	0.57694	0.52785	0.037
Mof_C 	C 	0.98394	0.53634	0.62205	0.055
Mof_H 	H 	0.97313	0.51507	0.64267	0.026
Mof_C 	C 	0.9267	0.40257	0.67422	-0.144
Mof_C 	C 	0.89325	0.58808	0.47085	-0.115
Mof_C 	C 	0.02528	0.56459	0.62288	-0.127
Mof_C 	C 	0.86406	0.59541	0.44277	0.385
Mof_C 	C 	0.22842	0.64925	0.71884	-0.141
Mof_H 	H 	0.24293	0.67747	0.71867	0.087
Mof_C 	C 	0.05262	0.56206	0.65768	0.344
Mof_C 	C 	0.2249	0.5853	0.72179	-0.137
Mof_H 	H 	0.23713	0.56937	0.72387	0.086
Mof_C 	C 	0.97396	0.57192	0.55945	0.057
Mof_C 	C 	0.88349	0.54945	0.48504	0.038
Mof_H 	H 	0.85933	0.52697	0.47567	0.028
Mof_C 	C 	0.93449	0.433	0.71099	0.406
Mof_C 	C 	0.1834	0.56746	0.71858	0.081
Mof_H 	H 	0.16803	0.53927	0.71847	-0.013
Mof_C 	C 	0.92935	0.621	0.48502	0.04
Mof_H 	H 	0.93613	0.64707	0.47587	0.035
Mof_C 	C 	0.04103	0.59581	0.59134	0.049
Mof_H 	H 	0.06873	0.61457	0.59107	0.025
Mof_C 	C 	0.93829	0.3871	0.59928	-0.128
Mof_H 	H 	0.95303	0.39557	0.57257	0.076
Mof_C 	C 	0.95563	0.61556	0.51274	-0.103
Mof_H 	H 	0.98003	0.63807	0.52147	0.069
Mof_C 	C 	0.01548	0.5991	0.56024	-0.126
Mof_H 	H 	0.02653	0.62017	0.53927	0.071
Mof_C 	C 	0.90964	0.54424	0.51309	-0.105
Mof_H 	H 	0.90263	0.51817	0.52237	0.066
Mof_C 	C 	0.1867	0.62879	0.71604	0.087
Mof_H 	H 	0.17363	0.64397	0.71437	-0.004
Mof_C 	C 	0.9479	0.41462	0.6352	0.065
Mof_H 	H 	0.96893	0.44127	0.63207	0.019
Mof_C 	C 	0.88743	0.33532	0.64435	-0.131
Mof_H 	H 	0.86773	0.30827	0.64847	0.077
Mof_C 	C 	0.90713	0.34767	0.60357	0.055
Mof_C 	C 	0.89658	0.36267	0.67922	0.067
Mof_H 	H 	0.88233	0.35407	0.70627	0.016
Mof_Co	Co	0.10742	0.87413	0.04745	1.15
Mof_O 	O 	0.08148	0.83863	0.98835	-0.405
Mof_O 	O 	0.1304	0.8347	0.02285	-0.494
Mof_O 	O 	0.10114	0.60343	0.75527	-0.427
Mof_O 	O 	0.24002	0.81112	0.0678	-0.461
Mof_O 	O 	0.20459	0.84092	0.04901	-0.437
Mof_O 	O 	0.03555	0.57356	0.77492	-0.436
Mof_N 	N 	0.04167	0.01923	0.05715	-0.139
Mof_N 	N 	0.07812	0.90881	0.04889	-0.242
Mof_C 	C 	0.12688	0.75221	0.9237	-0.101
Mof_H 	H 	0.1463	0.7442	0.9231	0.068
Mof_C 	C 	0.01835	0.97884	0.05707	0.099
Mof_C 	C 	0.03903	0.95427	0.05522	0.067
Mof_C 	C 	0.08973	0.70264	0.86118	0.044
Mof_C 	C 	0.13033	0.78094	0.95538	0.035
Mof_H 	H 	0.1516	0.7914	0.976	0.031
Mof_C 	C 	0.2641	0.85747	0.00755	-0.146
Mof_C 	C 	0.07859	0.63851	0.80418	-0.119
Mof_C 	C 	0.10208	0.79403	0.95621	-0.111
Mof_C 	C 	0.07126	0.60199	0.7761	0.386
Mof_C 	C 	0.01742	0.91251	0.05217	-0.152
Mof_H 	H 	0.9892	0.8988	0.052	0.095
Mof_C 	C 	0.10461	0.8239	0.99101	0.339
Mof_C 	C 	0.08137	0.97294	0.05512	-0.126
Mof_H 	H 	0.0973	0.0011	0.0572	0.079
Mof_C 	C 	0.09475	0.73538	0.89278	0.039
Mof_C 	C 	0.11722	0.66738	0.81837	0.042
Mof_H 	H 	0.1397	0.6657	0.809	0.026
Mof_C 	C 	0.23367	0.83483	0.04432	0.406
Mof_C 	C 	0.09921	0.94928	0.05191	0.077
Mof_H 	H 	0.1274	0.9621	0.0518	-0.01
Mof_C 	C 	0.04567	0.64169	0.81835	0.043
Mof_H 	H 	0.0196	0.6224	0.8092	0.032
Mof_C 	C 	0.07086	0.77856	0.92467	0.034
Mof_H 	H 	0.0521	0.7875	0.9244	0.03
Mof_C 	C 	0.27957	0.88453	0.93261	-0.129
Mof_H 	H 	0.2711	0.8908	0.9059	0.076
Mof_C 	C 	0.05111	0.67341	0.84607	-0.109
Mof_H 	H 	0.0286	0.6753	0.8548	0.069
Mof_C 	C 	0.06757	0.74972	0.89357	-0.106
Mof_H 	H 	0.0465	0.7397	0.8726	0.065
Mof_C 	C 	0.12243	0.69874	0.84642	-0.111
Mof_H 	H 	0.1485	0.7178	0.8557	0.068
Mof_C 	C 	0.03788	0.89125	0.04937	0.092
Mof_H 	H 	0.0227	0.863	0.0477	-0.007
Mof_C 	C 	0.25205	0.86662	0.96853	0.066
Mof_H 	H 	0.2254	0.861	0.9654	0.018
Mof_C 	C 	0.33135	0.88545	0.97768	-0.131
Mof_H 	H 	0.3584	0.8928	0.9818	0.077
Mof_C 	C 	0.319	0.8928	0.9369	0.055
Mof_C 	C 	0.304	0.86725	0.01255	0.068
Mof_H 	H 	0.3126	0.8616	0.0396	0.016
Mof_Co	Co	0.77408	0.20746	0.38078	1.149
Mof_O 	O 	0.74815	0.17196	0.32168	-0.405
Mof_O 	O 	0.79707	0.16803	0.35618	-0.494
Mof_O 	O 	0.76781	0.93676	0.0886	-0.426
Mof_O 	O 	0.90669	0.14445	0.40113	-0.46
Mof_O 	O 	0.87126	0.17425	0.38234	-0.436
Mof_O 	O 	0.70222	0.90689	0.10825	-0.434
Mof_N 	N 	0.70834	0.35256	0.39048	-0.137
Mof_N 	N 	0.74479	0.24214	0.38222	-0.242
Mof_C 	C 	0.79355	0.08554	0.25703	-0.103
Mof_H 	H 	0.81297	0.07753	0.25643	0.068
Mof_C 	C 	0.68502	0.31217	0.3904	0.099
Mof_C 	C 	0.7057	0.2876	0.38855	0.067
Mof_C 	C 	0.7564	0.03597	0.19451	0.039
Mof_C 	C 	0.797	0.11427	0.28871	0.036
Mof_H 	H 	0.81827	0.12473	0.30933	0.031
Mof_C 	C 	0.93077	0.1908	0.34088	-0.139
Mof_C 	C 	0.74526	0.97184	0.13751	-0.105
Mof_C 	C 	0.76875	0.12736	0.28954	-0.112
Mof_C 	C 	0.73793	0.93532	0.10943	0.381
Mof_C 	C 	0.68409	0.24584	0.3855	-0.141
Mof_H 	H 	0.65587	0.23213	0.38533	0.087
Mof_C 	C 	0.77128	0.15723	0.32434	0.339
Mof_C 	C 	0.74804	0.30627	0.38845	-0.137
Mof_H 	H 	0.76397	0.33443	0.39053	0.086
Mof_C 	C 	0.76142	0.06871	0.22611	0.041
Mof_C 	C 	0.78389	0.00071	0.1517	0.016
Mof_H 	H 	0.80637	0.99903	0.14233	0.039
Mof_C 	C 	0.90034	0.16816	0.37765	0.404
Mof_C 	C 	0.76588	0.28261	0.38524	0.081
Mof_H 	H 	0.79407	0.29543	0.38513	-0.013
Mof_C 	C 	0.71234	0.97502	0.15168	0.044
Mof_H 	H 	0.68627	0.95573	0.14253	0.034
Mof_C 	C 	0.73753	0.11189	0.258	0.034
Mof_H 	H 	0.71877	0.12083	0.25773	0.03
Mof_C 	C 	0.94624	0.21786	0.26594	-0.123
Mof_H 	H 	0.93777	0.22413	0.23923	0.074
Mof_C 	C 	0.71778	0.00674	0.1794	-0.111
Mof_H 	H 	0.69527	0.00863	0.18813	0.069
Mof_C 	C 	0.73424	0.08305	0.2269	-0.107
Mof_H 	H 	0.71317	0.07303	0.20593	0.066
Mof_C 	C 	0.7891	0.03207	0.17975	-0.098
Mof_H 	H 	0.81517	0.05113	0.18903	0.063
Mof_C 	C 	0.70455	0.22458	0.3827	0.087
Mof_H 	H 	0.68937	0.19633	0.38103	-0.004
Mof_C 	C 	0.91872	0.19995	0.30186	0.06
Mof_H 	H 	0.89207	0.19433	0.29873	0.02
Mof_C 	C 	0.99802	0.21878	0.31101	-0.114
Mof_H 	H 	0.02507	0.22613	0.31513	0.067
Mof_C 	C 	0.98567	0.22613	0.27023	0.05
Mof_C 	C 	0.97067	0.20058	0.34588	0.058
Mof_H 	H 	0.97927	0.19493	0.37293	0.021
Mof_Co	Co	0.44075	0.5408	0.71411	1.149
Mof_O 	O 	0.41481	0.5053	0.65502	-0.404
Mof_O 	O 	0.46373	0.50137	0.68952	-0.494
Mof_O 	O 	0.43447	0.2701	0.42194	-0.427
Mof_O 	O 	0.57335	0.47779	0.73447	-0.461
Mof_O 	O 	0.53792	0.50759	0.71568	-0.437
Mof_O 	O 	0.36888	0.24023	0.44159	-0.435
Mof_N 	N 	0.375	0.6859	0.72382	-0.137
Mof_N 	N 	0.41145	0.57548	0.71556	-0.242
Mof_C 	C 	0.46021	0.41888	0.59037	-0.101
Mof_H 	H 	0.47963	0.41087	0.58977	0.068
Mof_C 	C 	0.35168	0.64551	0.72374	0.099
Mof_C 	C 	0.37236	0.62094	0.72189	0.067
Mof_C 	C 	0.42306	0.36931	0.52785	0.044
Mof_C 	C 	0.46366	0.44761	0.62205	0.035
Mof_H 	H 	0.48493	0.45807	0.64267	0.031
Mof_C 	C 	0.59743	0.52414	0.67422	-0.146
Mof_C 	C 	0.41192	0.30518	0.47085	-0.118
Mof_C 	C 	0.43541	0.4607	0.62288	-0.111
Mof_C 	C 	0.40459	0.26866	0.44277	0.385
Mof_C 	C 	0.35075	0.57918	0.71884	-0.141
Mof_H 	H 	0.32253	0.56547	0.71867	0.087
Mof_C 	C 	0.43794	0.49057	0.65768	0.339
Mof_C 	C 	0.4147	0.63961	0.72179	-0.137
Mof_H 	H 	0.43063	0.66777	0.72387	0.086
Mof_C 	C 	0.42808	0.40205	0.55945	0.039
Mof_C 	C 	0.45055	0.33405	0.48504	0.042
Mof_H 	H 	0.47303	0.33237	0.47567	0.027
Mof_C 	C 	0.567	0.5015	0.71099	0.406
Mof_C 	C 	0.43254	0.61595	0.71858	0.081
Mof_H 	H 	0.46073	0.62877	0.71847	-0.013
Mof_C 	C 	0.379	0.30836	0.48502	0.043
Mof_H 	H 	0.35293	0.28907	0.47587	0.033
Mof_C 	C 	0.40419	0.44523	0.59134	0.034
Mof_H 	H 	0.38543	0.45417	0.59107	0.031
Mof_C 	C 	0.6129	0.5512	0.59928	-0.129
Mof_H 	H 	0.60443	0.55747	0.57257	0.075
Mof_C 	C 	0.38444	0.34008	0.51274	-0.108
Mof_H 	H 	0.36193	0.34197	0.52147	0.07
Mof_C 	C 	0.4009	0.41639	0.56024	-0.105
Mof_H 	H 	0.37983	0.40637	0.53927	0.066
Mof_C 	C 	0.45576	0.36541	0.51309	-0.111
Mof_H 	H 	0.48183	0.38447	0.52237	0.068
Mof_C 	C 	0.37121	0.55792	0.71604	0.087
Mof_H 	H 	0.35603	0.52967	0.71437	-0.004
Mof_C 	C 	0.58538	0.53329	0.6352	0.065
Mof_H 	H 	0.55873	0.52767	0.63207	0.018
Mof_C 	C 	0.66468	0.55212	0.64435	-0.131
Mof_H 	H 	0.69173	0.55947	0.64847	0.077
Mof_C 	C 	0.65233	0.55947	0.60357	0.055
Mof_C 	C 	0.63733	0.53392	0.67922	0.068
Mof_H 	H 	0.64593	0.52827	0.70627	0.016
Mof_Co	Co	0.12587	0.23329	0.04745	1.149
Mof_O 	O 	0.16137	0.24285	0.98835	-0.405
Mof_O 	O 	0.1653	0.2957	0.02285	-0.494
Mof_O 	O 	0.39657	0.49771	0.75527	-0.427
Mof_O 	O 	0.18888	0.4289	0.0678	-0.461
Mof_O 	O 	0.15908	0.36367	0.04901	-0.437
Mof_O 	O 	0.42644	0.46199	0.77492	-0.435
Mof_N 	N 	0.98077	0.02244	0.05715	-0.137
Mof_N 	N 	0.09119	0.16931	0.04889	-0.244
Mof_C 	C 	0.24779	0.37467	0.9237	-0.101
Mof_H 	H 	0.2558	0.4021	0.9231	0.068
Mof_C 	C 	0.02116	0.03951	0.05707	0.091
Mof_C 	C 	0.04573	0.08476	0.05522	0.074
Mof_C 	C 	0.29736	0.38709	0.86118	0.044
Mof_C 	C 	0.21906	0.34939	0.95538	0.035
Mof_H 	H 	0.2086	0.3602	0.976	0.031
Mof_C 	C 	0.14253	0.40663	0.00755	-0.146
Mof_C 	C 	0.36149	0.44008	0.80418	-0.118
Mof_C 	C 	0.20597	0.30805	0.95621	-0.111
Mof_C 	C 	0.39801	0.46927	0.7761	0.385
Mof_C 	C 	0.08749	0.10491	0.05217	-0.146
Mof_H 	H 	0.1012	0.0904	0.052	0.089
Mof_C 	C 	0.1761	0.28071	0.99101	0.339
Mof_C 	C 	0.02706	0.10843	0.05512	-0.153
Mof_H 	H 	0.9989	0.0962	0.0572	0.095
Mof_C 	C 	0.26462	0.35937	0.89278	0.039
Mof_C 	C 	0.33262	0.44984	0.81837	0.042
Mof_H 	H 	0.3343	0.474	0.809	0.027
Mof_C 	C 	0.16517	0.39884	0.04432	0.406
Mof_C 	C 	0.05072	0.14993	0.05191	0.089
Mof_H 	H 	0.0379	0.1653	0.0518	-0.017
Mof_C 	C 	0.35831	0.40398	0.81835	0.043
Mof_H 	H 	0.3776	0.3972	0.8092	0.033
Mof_C 	C 	0.22144	0.2923	0.92467	0.034
Mof_H 	H 	0.2125	0.2646	0.9244	0.031
Mof_C 	C 	0.11547	0.39504	0.93261	-0.129
Mof_H 	H 	0.1092	0.3803	0.9059	0.075
Mof_C 	C 	0.32659	0.3777	0.84607	-0.108
Mof_H 	H 	0.3247	0.3533	0.8548	0.07
Mof_C 	C 	0.25028	0.31785	0.89357	-0.106
Mof_H 	H 	0.2603	0.3068	0.8726	0.066
Mof_C 	C 	0.30126	0.42369	0.84642	-0.111
Mof_H 	H 	0.2822	0.4307	0.8557	0.068
Mof_C 	C 	0.10875	0.14663	0.04937	0.09
Mof_H 	H 	0.137	0.1597	0.0477	-0.005
Mof_C 	C 	0.13338	0.38543	0.96853	0.065
Mof_H 	H 	0.139	0.3644	0.9654	0.018
Mof_C 	C 	0.11455	0.4459	0.97768	-0.131
Mof_H 	H 	0.1072	0.4656	0.9818	0.077
Mof_C 	C 	0.1072	0.4262	0.9369	0.054
Mof_C 	C 	0.13275	0.43675	0.01255	0.068
Mof_H 	H 	0.1384	0.451	0.0396	0.016
Mof_Co	Co	0.79254	0.56662	0.38078	1.149
Mof_O 	O 	0.82804	0.57618	0.32168	-0.404
Mof_O 	O 	0.83197	0.62903	0.35618	-0.494
Mof_O 	O 	0.06324	0.83104	0.0886	-0.429
Mof_O 	O 	0.85555	0.76223	0.40113	-0.461
Mof_O 	O 	0.82575	0.697	0.38234	-0.437
Mof_O 	O 	0.09311	0.79532	0.10825	-0.436
Mof_N 	N 	0.64744	0.35577	0.39048	-0.137
Mof_N 	N 	0.75786	0.50264	0.38222	-0.242
Mof_C 	C 	0.91446	0.708	0.25703	-0.1
Mof_H 	H 	0.92247	0.73543	0.25643	0.068
Mof_C 	C 	0.68783	0.37284	0.3904	0.099
Mof_C 	C 	0.7124	0.41809	0.38855	0.067
Mof_C 	C 	0.96403	0.72042	0.19451	0.05
Mof_C 	C 	0.88573	0.68272	0.28871	0.034
Mof_H 	H 	0.87527	0.69353	0.30933	0.032
Mof_C 	C 	0.8092	0.73996	0.34088	-0.146
Mof_C 	C 	0.02816	0.77341	0.13751	-0.131
Mof_C 	C 	0.87264	0.64138	0.28954	-0.11
Mof_C 	C 	0.06468	0.8026	0.10943	0.389
Mof_C 	C 	0.75416	0.43824	0.3855	-0.141
Mof_H 	H 	0.76787	0.42373	0.38533	0.087
Mof_C 	C 	0.84277	0.61404	0.32434	0.339
Mof_C 	C 	0.69373	0.44176	0.38845	-0.137
Mof_H 	H 	0.66557	0.42953	0.39053	0.086
Mof_C 	C 	0.93129	0.6927	0.22611	0.038
Mof_C 	C 	0.99929	0.78317	0.1517	0.067
Mof_H 	H 	0.00097	0.80733	0.14233	0.014
Mof_C 	C 	0.83184	0.73217	0.37765	0.406
Mof_C 	C 	0.71739	0.48326	0.38524	0.081
Mof_H 	H 	0.70457	0.49863	0.38513	-0.013
Mof_C 	C 	0.02498	0.73731	0.15168	0.043
Mof_H 	H 	0.04427	0.73053	0.14253	0.032
Mof_C 	C 	0.88811	0.62563	0.258	0.033
Mof_H 	H 	0.87917	0.59793	0.25773	0.031
Mof_C 	C 	0.78214	0.72837	0.26594	-0.129
Mof_H 	H 	0.77587	0.71363	0.23923	0.075
Mof_C 	C 	0.99326	0.71103	0.1794	-0.106
Mof_H 	H 	0.99137	0.68663	0.18813	0.07
Mof_C 	C 	0.91695	0.65118	0.2269	-0.104
Mof_H 	H 	0.92697	0.64013	0.20593	0.066
Mof_C 	C 	0.96793	0.75702	0.17975	-0.123
Mof_H 	H 	0.94887	0.76403	0.18903	0.074
Mof_C 	C 	0.77542	0.47996	0.3827	0.087
Mof_H 	H 	0.80367	0.49303	0.38103	-0.004
Mof_C 	C 	0.80005	0.71876	0.30186	0.066
Mof_H 	H 	0.80567	0.69773	0.29873	0.018
Mof_C 	C 	0.78122	0.77923	0.31101	-0.131
Mof_H 	H 	0.77387	0.79893	0.31513	0.077
Mof_C 	C 	0.77387	0.75953	0.27023	0.055
Mof_C 	C 	0.79942	0.77008	0.34588	0.068
Mof_H 	H 	0.80507	0.78433	0.37293	0.016
Mof_Co	Co	0.4592	0.89995	0.71411	1.15
Mof_O 	O 	0.4947	0.90952	0.65502	-0.403
Mof_O 	O 	0.49863	0.96237	0.68952	-0.49
Mof_O 	O 	0.7299	0.16438	0.42194	-0.428
Mof_O 	O 	0.52221	0.09557	0.73447	-0.461
Mof_O 	O 	0.49241	0.03034	0.71568	-0.439
Mof_O 	O 	0.75977	0.12866	0.44159	-0.435
Mof_N 	N 	0.3141	0.68911	0.72382	-0.137
Mof_N 	N 	0.42452	0.83598	0.71556	-0.242
Mof_C 	C 	0.58112	0.04134	0.59037	-0.086
Mof_H 	H 	0.58913	0.06877	0.58977	0.063
Mof_C 	C 	0.35449	0.70618	0.72374	0.099
Mof_C 	C 	0.37906	0.75143	0.72189	0.067
Mof_C 	C 	0.63069	0.05376	0.52785	0.052
Mof_C 	C 	0.55239	0.01606	0.62205	0.015
Mof_H 	H 	0.54193	0.02687	0.64267	0.037
Mof_C 	C 	0.47586	0.0733	0.67422	-0.147
Mof_C 	C 	0.69482	0.10675	0.47085	-0.121
Mof_C 	C 	0.5393	0.97472	0.62288	-0.094
Mof_C 	C 	0.73134	0.13594	0.44277	0.386
Mof_C 	C 	0.42082	0.77158	0.71884	-0.141
Mof_H 	H 	0.43453	0.75707	0.71867	0.087
Mof_C 	C 	0.50943	0.94738	0.65768	0.334
Mof_C 	C 	0.36039	0.7751	0.72179	-0.137
Mof_H 	H 	0.33223	0.76287	0.72387	0.086
Mof_C 	C 	0.59795	0.02604	0.55945	0.022
Mof_C 	C 	0.66595	0.11651	0.48504	0.045
Mof_H 	H 	0.66763	0.14067	0.47567	0.025
Mof_C 	C 	0.4985	0.06551	0.71099	0.407
Mof_C 	C 	0.38405	0.8166	0.71858	0.081
Mof_H 	H 	0.37123	0.83197	0.71847	-0.013
Mof_C 	C 	0.69164	0.07065	0.48502	0.047
Mof_H 	H 	0.71093	0.06387	0.47587	0.031
Mof_C 	C 	0.55477	0.95897	0.59134	0.019
Mof_H 	H 	0.54583	0.93127	0.59107	0.036
Mof_C 	C 	0.4488	0.06171	0.59928	-0.129
Mof_H 	H 	0.44253	0.04697	0.57257	0.075
Mof_C 	C 	0.65992	0.04437	0.51274	-0.114
Mof_H 	H 	0.65803	0.01997	0.52147	0.07
Mof_C 	C 	0.58361	0.98452	0.56024	-0.085
Mof_H 	H 	0.59363	0.97347	0.53927	0.061
Mof_C 	C 	0.63459	0.09036	0.51309	-0.116
Mof_H 	H 	0.61553	0.09737	0.52237	0.07
Mof_C 	C 	0.44208	0.8133	0.71604	0.087
Mof_H 	H 	0.47033	0.82637	0.71437	-0.004
Mof_C 	C 	0.46671	0.0521	0.6352	0.066
Mof_H 	H 	0.47233	0.03107	0.63207	0.016
Mof_C 	C 	0.44788	0.11257	0.64435	-0.132
Mof_H 	H 	0.44053	0.13227	0.64847	0.077
Mof_C 	C 	0.44053	0.09287	0.60357	0.055
Mof_C 	C 	0.46608	0.10342	0.67922	0.068
Mof_H 	H 	0.47173	0.11767	0.70627	0.015
Mof_Co	Co	0.89258	0.76671	0.45255	1.149
Mof_O 	O 	0.91852	0.75715	0.51165	-0.404
Mof_O 	O 	0.8696	0.7043	0.47715	-0.494
Mof_O 	O 	0.89886	0.50229	0.74473	-0.427
Mof_O 	O 	0.75998	0.5711	0.4322	-0.461
Mof_O 	O 	0.79541	0.63633	0.45099	-0.437
Mof_O 	O 	0.96445	0.53801	0.72508	-0.432
Mof_N 	N 	0.95833	0.97756	0.44285	-0.136
Mof_N 	N 	0.92188	0.83069	0.45111	-0.24
Mof_C 	C 	0.87312	0.62533	0.5763	-0.101
Mof_H 	H 	0.8537	0.5979	0.5769	0.068
Mof_C 	C 	0.98165	0.96049	0.44293	0.107
Mof_C 	C 	0.96097	0.91524	0.44478	0.059
Mof_C 	C 	0.91027	0.61291	0.63882	0.044
Mof_C 	C 	0.86967	0.65061	0.54462	0.035
Mof_H 	H 	0.8484	0.6398	0.524	0.031
Mof_C 	C 	0.7359	0.59337	0.49245	-0.146
Mof_C 	C 	0.92141	0.55992	0.69582	-0.117
Mof_C 	C 	0.89792	0.69195	0.54379	-0.11
Mof_C 	C 	0.92874	0.53073	0.7239	0.385
Mof_C 	C 	0.98258	0.89509	0.44783	-0.124
Mof_H 	H 	0.0108	0.9096	0.448	0.078
Mof_C 	C 	0.89539	0.71929	0.50899	0.339
Mof_C 	C 	0.91863	0.89157	0.44488	-0.131
Mof_H 	H 	0.9027	0.9038	0.4428	0.085
Mof_C 	C 	0.90525	0.64063	0.60722	0.04
Mof_C 	C 	0.88278	0.55016	0.68163	0.041
Mof_H 	H 	0.8603	0.526	0.691	0.027
Mof_C 	C 	0.76633	0.60116	0.45568	0.406
Mof_C 	C 	0.90079	0.85007	0.44809	0.078
Mof_H 	H 	0.8726	0.8347	0.4482	-0.012
Mof_C 	C 	0.95433	0.59602	0.68165	0.043
Mof_H 	H 	0.9804	0.6028	0.6908	0.035
Mof_C 	C 	0.92914	0.7077	0.57533	0.034
Mof_H 	H 	0.9479	0.7354	0.5756	0.032
Mof_C 	C 	0.72043	0.60496	0.56739	-0.129
Mof_H 	H 	0.7289	0.6197	0.5941	0.075
Mof_C 	C 	0.94889	0.6223	0.65393	-0.108
Mof_H 	H 	0.9714	0.6467	0.6452	0.071
Mof_C 	C 	0.93243	0.68215	0.60643	-0.105
Mof_H 	H 	0.9535	0.6932	0.6274	0.067
Mof_C 	C 	0.87757	0.57631	0.65358	-0.11
Mof_H 	H 	0.8515	0.5693	0.6443	0.068
Mof_C 	C 	0.96212	0.85337	0.45063	0.079
Mof_H 	H 	0.9773	0.8403	0.4523	-0
Mof_C 	C 	0.74795	0.61457	0.53147	0.065
Mof_H 	H 	0.7746	0.6356	0.5346	0.018
Mof_C 	C 	0.66865	0.5541	0.52232	-0.131
Mof_H 	H 	0.6416	0.5344	0.5182	0.077
Mof_C 	C 	0.681	0.5738	0.5631	0.055
Mof_C 	C 	0.696	0.56325	0.48745	0.068
Mof_H 	H 	0.6874	0.549	0.4604	0.016
Mof_Co	Co	0.55925	0.10005	0.78589	1.149
Mof_O 	O 	0.58519	0.09048	0.84498	-0.406
Mof_O 	O 	0.53627	0.03763	0.81048	-0.497
Mof_O 	O 	0.56553	0.83562	0.07806	-0.427
Mof_O 	O 	0.42665	0.90443	0.76553	-0.461
Mof_O 	O 	0.46208	0.96966	0.78432	-0.435
Mof_O 	O 	0.63112	0.87134	0.05841	-0.434
Mof_N 	N 	0.625	0.31089	0.77618	-0.137
Mof_N 	N 	0.58855	0.16402	0.78444	-0.242
Mof_C 	C 	0.53979	0.95866	0.90963	-0.116
Mof_H 	H 	0.52037	0.93123	0.91023	0.074
Mof_C 	C 	0.64832	0.29382	0.77626	0.099
Mof_C 	C 	0.62764	0.24857	0.77811	0.067
Mof_C 	C 	0.57694	0.94624	0.97215	0.037
Mof_C 	C 	0.53634	0.98394	0.87795	0.055
Mof_H 	H 	0.51507	0.97313	0.85733	0.026
Mof_C 	C 	0.40257	0.9267	0.82578	-0.144
Mof_C 	C 	0.58808	0.89325	0.02915	-0.115
Mof_C 	C 	0.56459	0.02528	0.87712	-0.127
Mof_C 	C 	0.59541	0.86406	0.05723	0.385
Mof_C 	C 	0.64925	0.22842	0.78116	-0.141
Mof_H 	H 	0.67747	0.24293	0.78133	0.087
Mof_C 	C 	0.56206	0.05262	0.84232	0.344
Mof_C 	C 	0.5853	0.2249	0.77821	-0.137
Mof_H 	H 	0.56937	0.23713	0.77613	0.086
Mof_C 	C 	0.57192	0.97396	0.94055	0.056
Mof_C 	C 	0.54945	0.88349	0.01496	0.038
Mof_H 	H 	0.52697	0.85933	0.02433	0.028
Mof_C 	C 	0.433	0.93449	0.78901	0.406
Mof_C 	C 	0.56746	0.1834	0.78142	0.081
Mof_H 	H 	0.53927	0.16803	0.78153	-0.013
Mof_C 	C 	0.621	0.92935	0.01498	0.04
Mof_H 	H 	0.64707	0.93613	0.02413	0.035
Mof_C 	C 	0.59581	0.04103	0.90866	0.049
Mof_H 	H 	0.61457	0.06873	0.90893	0.025
Mof_C 	C 	0.3871	0.93829	0.90072	-0.128
Mof_H 	H 	0.39557	0.95303	0.92743	0.076
Mof_C 	C 	0.61556	0.95563	0.98726	-0.103
Mof_H 	H 	0.63807	0.98003	0.97853	0.069
Mof_C 	C 	0.5991	0.01548	0.93976	-0.126
Mof_H 	H 	0.62017	0.02653	0.96073	0.071
Mof_C 	C 	0.54424	0.90964	0.98691	-0.105
Mof_H 	H 	0.51817	0.90263	0.97763	0.066
Mof_C 	C 	0.62879	0.1867	0.78396	0.087
Mof_H 	H 	0.64397	0.17363	0.78563	-0.004
Mof_C 	C 	0.41462	0.9479	0.8648	0.065
Mof_H 	H 	0.44127	0.96893	0.86793	0.019
Mof_C 	C 	0.33532	0.88743	0.85565	-0.131
Mof_H 	H 	0.30827	0.86773	0.85153	0.077
Mof_C 	C 	0.34767	0.90713	0.89643	0.055
Mof_C 	C 	0.36267	0.89658	0.82078	0.067
Mof_H 	H 	0.35407	0.88233	0.79373	0.016
Mof_Co	Co	0.22592	0.43338	0.11922	1.149
Mof_O 	O 	0.25185	0.42382	0.17832	-0.404
Mof_O 	O 	0.20293	0.37097	0.14382	-0.494
Mof_O 	O 	0.23219	0.16896	0.4114	-0.427
Mof_O 	O 	0.09331	0.23777	0.09887	-0.462
Mof_O 	O 	0.12874	0.303	0.11766	-0.438
Mof_O 	O 	0.29778	0.20468	0.39175	-0.435
Mof_N 	N 	0.29166	0.64423	0.10952	-0.137
Mof_N 	N 	0.25521	0.49736	0.11778	-0.242
Mof_C 	C 	0.20645	0.292	0.24297	-0.101
Mof_H 	H 	0.18703	0.26457	0.24357	0.068
Mof_C 	C 	0.31498	0.62716	0.1096	0.099
Mof_C 	C 	0.2943	0.58191	0.11145	0.067
Mof_C 	C 	0.2436	0.27958	0.30549	0.044
Mof_C 	C 	0.203	0.31728	0.21129	0.035
Mof_H 	H 	0.18173	0.30647	0.19067	0.031
Mof_C 	C 	0.06923	0.26004	0.15912	-0.152
Mof_C 	C 	0.25474	0.22659	0.36249	-0.118
Mof_C 	C 	0.23125	0.35862	0.21046	-0.111
Mof_C 	C 	0.26207	0.1974	0.39057	0.385
Mof_C 	C 	0.31591	0.56176	0.1145	-0.141
Mof_H 	H 	0.34413	0.57627	0.11467	0.087
Mof_C 	C 	0.22872	0.38596	0.17566	0.339
Mof_C 	C 	0.25196	0.55824	0.11155	-0.137
Mof_H 	H 	0.23603	0.57047	0.10947	0.086
Mof_C 	C 	0.23858	0.3073	0.27389	0.039
Mof_C 	C 	0.21611	0.21683	0.3483	0.042
Mof_H 	H 	0.19363	0.19267	0.35767	0.026
Mof_C 	C 	0.09966	0.26783	0.12235	0.408
Mof_C 	C 	0.23412	0.51674	0.11476	0.081
Mof_H 	H 	0.20593	0.50137	0.11487	-0.013
Mof_C 	C 	0.28766	0.26269	0.34832	0.043
Mof_H 	H 	0.31373	0.26947	0.35747	0.033
Mof_C 	C 	0.26247	0.37437	0.242	0.034
Mof_H 	H 	0.28123	0.40207	0.24227	0.031
Mof_C 	C 	0.05376	0.27163	0.23406	-0.135
Mof_H 	H 	0.06223	0.28637	0.26077	0.077
Mof_C 	C 	0.28222	0.28897	0.3206	-0.108
Mof_H 	H 	0.30473	0.31337	0.31187	0.07
Mof_C 	C 	0.26576	0.34882	0.2731	-0.105
Mof_H 	H 	0.28683	0.35987	0.29407	0.066
Mof_C 	C 	0.2109	0.24298	0.32025	-0.111
Mof_H 	H 	0.18483	0.23597	0.31097	0.068
Mof_C 	C 	0.29545	0.52004	0.1173	0.087
Mof_H 	H 	0.31063	0.50697	0.11897	-0.004
Mof_C 	C 	0.08128	0.28124	0.19814	0.071
Mof_H 	H 	0.10793	0.30227	0.20127	0.016
Mof_C 	C 	0.00198	0.22077	0.18899	-0.149
Mof_H 	H 	0.97493	0.20107	0.18487	0.086
Mof_C 	C 	0.01433	0.24047	0.22977	0.06
Mof_C 	C 	0.02933	0.22992	0.15412	0.078
Mof_H 	H 	0.02073	0.21567	0.12707	0.011
Mof_Co	Co	0.87413	0.10742	0.45255	1.15
Mof_O 	O 	0.83863	0.08148	0.51165	-0.405
Mof_O 	O 	0.8347	0.1304	0.47715	-0.494
Mof_O 	O 	0.60343	0.10114	0.74473	-0.427
Mof_O 	O 	0.81112	0.24002	0.4322	-0.461
Mof_O 	O 	0.84092	0.20459	0.45099	-0.437
Mof_O 	O 	0.57356	0.03555	0.72508	-0.436
Mof_N 	N 	0.01923	0.04167	0.44285	-0.139
Mof_N 	N 	0.90881	0.07812	0.45111	-0.242
Mof_C 	C 	0.75221	0.12688	0.5763	-0.101
Mof_H 	H 	0.7442	0.1463	0.5769	0.068
Mof_C 	C 	0.97884	0.01835	0.44293	0.099
Mof_C 	C 	0.95427	0.03903	0.44478	0.067
Mof_C 	C 	0.70264	0.08973	0.63882	0.044
Mof_C 	C 	0.78094	0.13033	0.54462	0.035
Mof_H 	H 	0.7914	0.1516	0.524	0.031
Mof_C 	C 	0.85747	0.2641	0.49245	-0.145
Mof_C 	C 	0.63851	0.07859	0.69582	-0.119
Mof_C 	C 	0.79403	0.10208	0.54379	-0.111
Mof_C 	C 	0.60199	0.07126	0.7239	0.386
Mof_C 	C 	0.91251	0.01742	0.44783	-0.153
Mof_H 	H 	0.8988	0.9892	0.448	0.095
Mof_C 	C 	0.8239	0.10461	0.50899	0.339
Mof_C 	C 	0.97294	0.08137	0.44488	-0.125
Mof_H 	H 	0.0011	0.0973	0.4428	0.079
Mof_C 	C 	0.73538	0.09475	0.60722	0.039
Mof_C 	C 	0.66738	0.11722	0.68163	0.042
Mof_H 	H 	0.6657	0.1397	0.691	0.026
Mof_C 	C 	0.83483	0.23367	0.45568	0.406
Mof_C 	C 	0.94928	0.09921	0.44809	0.077
Mof_H 	H 	0.9621	0.1274	0.4482	-0.01
Mof_C 	C 	0.64169	0.04567	0.68165	0.043
Mof_H 	H 	0.6224	0.0196	0.6908	0.032
Mof_C 	C 	0.77856	0.07086	0.57533	0.034
Mof_H 	H 	0.7875	0.0521	0.5756	0.03
Mof_C 	C 	0.88453	0.27957	0.56739	-0.129
Mof_H 	H 	0.8908	0.2711	0.5941	0.076
Mof_C 	C 	0.67341	0.05111	0.65393	-0.109
Mof_H 	H 	0.6753	0.0286	0.6452	0.069
Mof_C 	C 	0.74972	0.06757	0.60643	-0.106
Mof_H 	H 	0.7397	0.0465	0.6274	0.065
Mof_C 	C 	0.69874	0.12243	0.65358	-0.111
Mof_H 	H 	0.7178	0.1485	0.6443	0.068
Mof_C 	C 	0.89125	0.03788	0.45063	0.092
Mof_H 	H 	0.863	0.0227	0.4523	-0.007
Mof_C 	C 	0.86662	0.25205	0.53147	0.066
Mof_H 	H 	0.861	0.2254	0.5346	0.018
Mof_C 	C 	0.88545	0.33135	0.52232	-0.131
Mof_H 	H 	0.8928	0.3584	0.5182	0.077
Mof_C 	C 	0.8928	0.319	0.5631	0.055
Mof_C 	C 	0.86725	0.304	0.48745	0.068
Mof_H 	H 	0.8616	0.3126	0.4604	0.016
Mof_Co	Co	0.5408	0.44075	0.78589	1.149
Mof_O 	O 	0.5053	0.41481	0.84498	-0.404
Mof_O 	O 	0.50137	0.46373	0.81048	-0.494
Mof_O 	O 	0.2701	0.43447	0.07806	-0.427
Mof_O 	O 	0.47779	0.57335	0.76553	-0.461
Mof_O 	O 	0.50759	0.53792	0.78432	-0.437
Mof_O 	O 	0.24023	0.36888	0.05841	-0.435
Mof_N 	N 	0.6859	0.375	0.77618	-0.137
Mof_N 	N 	0.57548	0.41145	0.78444	-0.242
Mof_C 	C 	0.41888	0.46021	0.90963	-0.101
Mof_H 	H 	0.41087	0.47963	0.91023	0.068
Mof_C 	C 	0.64551	0.35168	0.77626	0.099
Mof_C 	C 	0.62094	0.37236	0.77811	0.067
Mof_C 	C 	0.36931	0.42306	0.97215	0.044
Mof_C 	C 	0.44761	0.46366	0.87795	0.035
Mof_H 	H 	0.45807	0.48493	0.85733	0.031
Mof_C 	C 	0.52414	0.59743	0.82578	-0.146
Mof_C 	C 	0.30518	0.41192	0.02915	-0.118
Mof_C 	C 	0.4607	0.43541	0.87712	-0.111
Mof_C 	C 	0.26866	0.40459	0.05723	0.385
Mof_C 	C 	0.57918	0.35075	0.78116	-0.141
Mof_H 	H 	0.56547	0.32253	0.78133	0.087
Mof_C 	C 	0.49057	0.43794	0.84232	0.339
Mof_C 	C 	0.63961	0.4147	0.77821	-0.137
Mof_H 	H 	0.66777	0.43063	0.77613	0.086
Mof_C 	C 	0.40205	0.42808	0.94055	0.039
Mof_C 	C 	0.33405	0.45055	0.01496	0.042
Mof_H 	H 	0.33237	0.47303	0.02433	0.027
Mof_C 	C 	0.5015	0.567	0.78901	0.406
Mof_C 	C 	0.61595	0.43254	0.78142	0.081
Mof_H 	H 	0.62877	0.46073	0.78153	-0.013
Mof_C 	C 	0.30836	0.379	0.01498	0.043
Mof_H 	H 	0.28907	0.35293	0.02413	0.033
Mof_C 	C 	0.44523	0.40419	0.90866	0.034
Mof_H 	H 	0.45417	0.38543	0.90893	0.031
Mof_C 	C 	0.5512	0.6129	0.90072	-0.129
Mof_H 	H 	0.55747	0.60443	0.92743	0.075
Mof_C 	C 	0.34008	0.38444	0.98726	-0.108
Mof_H 	H 	0.34197	0.36193	0.97853	0.07
Mof_C 	C 	0.41639	0.4009	0.93976	-0.105
Mof_H 	H 	0.40637	0.37983	0.96073	0.066
Mof_C 	C 	0.36541	0.45576	0.98691	-0.111
Mof_H 	H 	0.38447	0.48183	0.97763	0.068
Mof_C 	C 	0.55792	0.37121	0.78396	0.087
Mof_H 	H 	0.52967	0.35603	0.78563	-0.004
Mof_C 	C 	0.53329	0.58538	0.8648	0.065
Mof_H 	H 	0.52767	0.55873	0.86793	0.018
Mof_C 	C 	0.55212	0.66468	0.85565	-0.131
Mof_H 	H 	0.55947	0.69173	0.85153	0.077
Mof_C 	C 	0.55947	0.65233	0.89643	0.055
Mof_C 	C 	0.53392	0.63733	0.82078	0.068
Mof_H 	H 	0.52827	0.64593	0.79373	0.016
Mof_Co	Co	0.20746	0.77408	0.11922	1.149
Mof_O 	O 	0.17196	0.74815	0.17832	-0.405
Mof_O 	O 	0.16803	0.79707	0.14382	-0.494
Mof_O 	O 	0.93676	0.76781	0.4114	-0.426
Mof_O 	O 	0.14445	0.90669	0.09887	-0.46
Mof_O 	O 	0.17425	0.87126	0.11766	-0.436
Mof_O 	O 	0.90689	0.70222	0.39175	-0.434
Mof_N 	N 	0.35256	0.70834	0.10952	-0.137
Mof_N 	N 	0.24214	0.74479	0.11778	-0.242
Mof_C 	C 	0.08554	0.79355	0.24297	-0.103
Mof_H 	H 	0.07753	0.81297	0.24357	0.068
Mof_C 	C 	0.31217	0.68502	0.1096	0.099
Mof_C 	C 	0.2876	0.7057	0.11145	0.067
Mof_C 	C 	0.03597	0.7564	0.30549	0.039
Mof_C 	C 	0.11427	0.797	0.21129	0.036
Mof_H 	H 	0.12473	0.81827	0.19067	0.031
Mof_C 	C 	0.1908	0.93077	0.15912	-0.139
Mof_C 	C 	0.97184	0.74526	0.36249	-0.105
Mof_C 	C 	0.12736	0.76875	0.21046	-0.112
Mof_C 	C 	0.93532	0.73793	0.39057	0.381
Mof_C 	C 	0.24584	0.68409	0.1145	-0.141
Mof_H 	H 	0.23213	0.65587	0.11467	0.087
Mof_C 	C 	0.15723	0.77128	0.17566	0.339
Mof_C 	C 	0.30627	0.74804	0.11155	-0.137
Mof_H 	H 	0.33443	0.76397	0.10947	0.086
Mof_C 	C 	0.06871	0.76142	0.27389	0.041
Mof_C 	C 	0.00071	0.78389	0.3483	0.016
Mof_H 	H 	0.99903	0.80637	0.35767	0.039
Mof_C 	C 	0.16816	0.90034	0.12235	0.404
Mof_C 	C 	0.28261	0.76588	0.11476	0.081
Mof_H 	H 	0.29543	0.79407	0.11487	-0.013
Mof_C 	C 	0.97502	0.71234	0.34832	0.044
Mof_H 	H 	0.95573	0.68627	0.35747	0.034
Mof_C 	C 	0.11189	0.73753	0.242	0.035
Mof_H 	H 	0.12083	0.71877	0.24227	0.03
Mof_C 	C 	0.21786	0.94624	0.23406	-0.123
Mof_H 	H 	0.22413	0.93777	0.26077	0.074
Mof_C 	C 	0.00674	0.71778	0.3206	-0.111
Mof_H 	H 	0.00863	0.69527	0.31187	0.069
Mof_C 	C 	0.08305	0.73424	0.2731	-0.107
Mof_H 	H 	0.07303	0.71317	0.29407	0.066
Mof_C 	C 	0.03207	0.7891	0.32025	-0.098
Mof_H 	H 	0.05113	0.81517	0.31097	0.063
Mof_C 	C 	0.22458	0.70455	0.1173	0.087
Mof_H 	H 	0.19633	0.68937	0.11897	-0.004
Mof_C 	C 	0.19995	0.91872	0.19814	0.06
Mof_H 	H 	0.19433	0.89207	0.20127	0.02
Mof_C 	C 	0.21878	0.99802	0.18899	-0.114
Mof_H 	H 	0.22613	0.02507	0.18487	0.067
Mof_C 	C 	0.22613	0.98567	0.22977	0.05
Mof_C 	C 	0.20058	0.97067	0.15412	0.058
Mof_H 	H 	0.19493	0.97927	0.12707	0.021
Mof_Co	Co	0.23329	0.12587	0.45255	1.149
Mof_O 	O 	0.24285	0.16137	0.51165	-0.405
Mof_O 	O 	0.2957	0.1653	0.47715	-0.494
Mof_O 	O 	0.49771	0.39657	0.74473	-0.427
Mof_O 	O 	0.4289	0.18888	0.4322	-0.461
Mof_O 	O 	0.36367	0.15908	0.45099	-0.437
Mof_O 	O 	0.46199	0.42644	0.72508	-0.435
Mof_N 	N 	0.02244	0.98077	0.44285	-0.137
Mof_N 	N 	0.16931	0.09119	0.45111	-0.244
Mof_C 	C 	0.37467	0.24779	0.5763	-0.101
Mof_H 	H 	0.4021	0.2558	0.5769	0.068
Mof_C 	C 	0.03951	0.02116	0.44293	0.091
Mof_C 	C 	0.08476	0.04573	0.44478	0.074
Mof_C 	C 	0.38709	0.29736	0.63882	0.044
Mof_C 	C 	0.34939	0.21906	0.54462	0.035
Mof_H 	H 	0.3602	0.2086	0.524	0.031
Mof_C 	C 	0.40663	0.14253	0.49245	-0.146
Mof_C 	C 	0.44008	0.36149	0.69582	-0.118
Mof_C 	C 	0.30805	0.20597	0.54379	-0.111
Mof_C 	C 	0.46927	0.39801	0.7239	0.385
Mof_C 	C 	0.10491	0.08749	0.44783	-0.146
Mof_H 	H 	0.0904	0.1012	0.448	0.089
Mof_C 	C 	0.28071	0.1761	0.50899	0.339
Mof_C 	C 	0.10843	0.02706	0.44488	-0.153
Mof_H 	H 	0.0962	0.9989	0.4428	0.095
Mof_C 	C 	0.35937	0.26462	0.60722	0.039
Mof_C 	C 	0.44984	0.33262	0.68163	0.042
Mof_H 	H 	0.474	0.3343	0.691	0.027
Mof_C 	C 	0.39884	0.16517	0.45568	0.406
Mof_C 	C 	0.14993	0.05072	0.44809	0.089
Mof_H 	H 	0.1653	0.0379	0.4482	-0.017
Mof_C 	C 	0.40398	0.35831	0.68165	0.043
Mof_H 	H 	0.3972	0.3776	0.6908	0.033
Mof_C 	C 	0.2923	0.22144	0.57533	0.034
Mof_H 	H 	0.2646	0.2125	0.5756	0.031
Mof_C 	C 	0.39504	0.11547	0.56739	-0.129
Mof_H 	H 	0.3803	0.1092	0.5941	0.075
Mof_C 	C 	0.3777	0.32659	0.65393	-0.108
Mof_H 	H 	0.3533	0.3247	0.6452	0.07
Mof_C 	C 	0.31785	0.25028	0.60643	-0.106
Mof_H 	H 	0.3068	0.2603	0.6274	0.066
Mof_C 	C 	0.42369	0.30126	0.65358	-0.111
Mof_H 	H 	0.4307	0.2822	0.6443	0.068
Mof_C 	C 	0.14663	0.10875	0.45063	0.09
Mof_H 	H 	0.1597	0.137	0.4523	-0.005
Mof_C 	C 	0.38543	0.13338	0.53147	0.065
Mof_H 	H 	0.3644	0.139	0.5346	0.018
Mof_C 	C 	0.4459	0.11455	0.52232	-0.131
Mof_H 	H 	0.4656	0.1072	0.5182	0.077
Mof_C 	C 	0.4262	0.1072	0.5631	0.054
Mof_C 	C 	0.43675	0.13275	0.48745	0.068
Mof_H 	H 	0.451	0.1384	0.4604	0.016
Mof_Co	Co	0.89995	0.4592	0.78589	1.15
Mof_O 	O 	0.90952	0.4947	0.84498	-0.403
Mof_O 	O 	0.96237	0.49863	0.81048	-0.49
Mof_O 	O 	0.16438	0.7299	0.07806	-0.428
Mof_O 	O 	0.09557	0.52221	0.76553	-0.461
Mof_O 	O 	0.03034	0.49241	0.78432	-0.439
Mof_O 	O 	0.12866	0.75977	0.05841	-0.435
Mof_N 	N 	0.68911	0.3141	0.77618	-0.137
Mof_N 	N 	0.83598	0.42452	0.78444	-0.242
Mof_C 	C 	0.04134	0.58112	0.90963	-0.086
Mof_H 	H 	0.06877	0.58913	0.91023	0.063
Mof_C 	C 	0.70618	0.35449	0.77626	0.099
Mof_C 	C 	0.75143	0.37906	0.77811	0.067
Mof_C 	C 	0.05376	0.63069	0.97215	0.052
Mof_C 	C 	0.01606	0.55239	0.87795	0.015
Mof_H 	H 	0.02687	0.54193	0.85733	0.037
Mof_C 	C 	0.0733	0.47586	0.82578	-0.147
Mof_C 	C 	0.10675	0.69482	0.02915	-0.121
Mof_C 	C 	0.97472	0.5393	0.87712	-0.094
Mof_C 	C 	0.13594	0.73134	0.05723	0.386
Mof_C 	C 	0.77158	0.42082	0.78116	-0.141
Mof_H 	H 	0.75707	0.43453	0.78133	0.087
Mof_C 	C 	0.94738	0.50943	0.84232	0.334
Mof_C 	C 	0.7751	0.36039	0.77821	-0.137
Mof_H 	H 	0.76287	0.33223	0.77613	0.086
Mof_C 	C 	0.02604	0.59795	0.94055	0.022
Mof_C 	C 	0.11651	0.66595	0.01496	0.045
Mof_H 	H 	0.14067	0.66763	0.02433	0.025
Mof_C 	C 	0.06551	0.4985	0.78901	0.407
Mof_C 	C 	0.8166	0.38405	0.78142	0.081
Mof_H 	H 	0.83197	0.37123	0.78153	-0.013
Mof_C 	C 	0.07065	0.69164	0.01498	0.047
Mof_H 	H 	0.06387	0.71093	0.02413	0.031
Mof_C 	C 	0.95897	0.55477	0.90866	0.019
Mof_H 	H 	0.93127	0.54583	0.90893	0.036
Mof_C 	C 	0.06171	0.4488	0.90072	-0.129
Mof_H 	H 	0.04697	0.44253	0.92743	0.075
Mof_C 	C 	0.04437	0.65992	0.98726	-0.114
Mof_H 	H 	0.01997	0.65803	0.97853	0.07
Mof_C 	C 	0.98452	0.58361	0.93976	-0.085
Mof_H 	H 	0.97347	0.59363	0.96073	0.061
Mof_C 	C 	0.09036	0.63459	0.98691	-0.116
Mof_H 	H 	0.09737	0.61553	0.97763	0.07
Mof_C 	C 	0.8133	0.44208	0.78396	0.087
Mof_H 	H 	0.82637	0.47033	0.78563	-0.004
Mof_C 	C 	0.0521	0.46671	0.8648	0.066
Mof_H 	H 	0.03107	0.47233	0.86793	0.016
Mof_C 	C 	0.11257	0.44788	0.85565	-0.132
Mof_H 	H 	0.13227	0.44053	0.85153	0.077
Mof_C 	C 	0.09287	0.44053	0.89643	0.055
Mof_C 	C 	0.10342	0.46608	0.82078	0.068
Mof_H 	H 	0.11767	0.47173	0.79373	0.015
Mof_Co	Co	0.56662	0.79254	0.11922	1.149
Mof_O 	O 	0.57618	0.82804	0.17832	-0.404
Mof_O 	O 	0.62903	0.83197	0.14382	-0.494
Mof_O 	O 	0.83104	0.06324	0.4114	-0.429
Mof_O 	O 	0.76223	0.85555	0.09887	-0.461
Mof_O 	O 	0.697	0.82575	0.11766	-0.437
Mof_O 	O 	0.79532	0.09311	0.39175	-0.436
Mof_N 	N 	0.35577	0.64744	0.10952	-0.137
Mof_N 	N 	0.50264	0.75786	0.11778	-0.242
Mof_C 	C 	0.708	0.91446	0.24297	-0.1
Mof_H 	H 	0.73543	0.92247	0.24357	0.068
Mof_C 	C 	0.37284	0.68783	0.1096	0.099
Mof_C 	C 	0.41809	0.7124	0.11145	0.067
Mof_C 	C 	0.72042	0.96403	0.30549	0.05
Mof_C 	C 	0.68272	0.88573	0.21129	0.034
Mof_H 	H 	0.69353	0.87527	0.19067	0.032
Mof_C 	C 	0.73996	0.8092	0.15912	-0.146
Mof_C 	C 	0.77341	0.02816	0.36249	-0.131
Mof_C 	C 	0.64138	0.87264	0.21046	-0.11
Mof_C 	C 	0.8026	0.06468	0.39057	0.389
Mof_C 	C 	0.43824	0.75416	0.1145	-0.141
Mof_H 	H 	0.42373	0.76787	0.11467	0.087
Mof_C 	C 	0.61404	0.84277	0.17566	0.339
Mof_C 	C 	0.44176	0.69373	0.11155	-0.137
Mof_H 	H 	0.42953	0.66557	0.10947	0.086
Mof_C 	C 	0.6927	0.93129	0.27389	0.038
Mof_C 	C 	0.78317	0.99929	0.3483	0.067
Mof_H 	H 	0.80733	0.00097	0.35767	0.014
Mof_C 	C 	0.73217	0.83184	0.12235	0.406
Mof_C 	C 	0.48326	0.71739	0.11476	0.081
Mof_H 	H 	0.49863	0.70457	0.11487	-0.013
Mof_C 	C 	0.73731	0.02498	0.34832	0.043
Mof_H 	H 	0.73053	0.04427	0.35747	0.032
Mof_C 	C 	0.62563	0.88811	0.242	0.033
Mof_H 	H 	0.59793	0.87917	0.24227	0.031
Mof_C 	C 	0.72837	0.78214	0.23406	-0.129
Mof_H 	H 	0.71363	0.77587	0.26077	0.075
Mof_C 	C 	0.71103	0.99326	0.3206	-0.106
Mof_H 	H 	0.68663	0.99137	0.31187	0.07
Mof_C 	C 	0.65118	0.91695	0.2731	-0.104
Mof_H 	H 	0.64013	0.92697	0.29407	0.066
Mof_C 	C 	0.75702	0.96793	0.32025	-0.123
Mof_H 	H 	0.76403	0.94887	0.31097	0.074
Mof_C 	C 	0.47996	0.77542	0.1173	0.087
Mof_H 	H 	0.49303	0.80367	0.11897	-0.004
Mof_C 	C 	0.71876	0.80005	0.19814	0.066
Mof_H 	H 	0.69773	0.80567	0.20127	0.018
Mof_C 	C 	0.77923	0.78122	0.18899	-0.131
Mof_H 	H 	0.79893	0.77387	0.18487	0.077
Mof_C 	C 	0.75953	0.77387	0.22977	0.055
Mof_C 	C 	0.77008	0.79942	0.15412	0.068
Mof_H 	H 	0.78433	0.80507	0.12707	0.016
Mof_Co	Co	0.66667	0.85009	0.08333	1.2
Mof_Co	Co	0.33333	0.18343	0.41667	1.2
Mof_Co	Co	0.14991	0.81657	0.08333	1.2
Mof_Co	Co	0.48324	0.48324	0.75	1.2
Mof_Co	Co	0.18343	0.33333	0.08333	1.2
Mof_Co	Co	0.85009	0.66667	0.41667	1.2
Mof_Co	Co	0.51676	1.09034e-32	0.75	1.197
Mof_Co	Co	0.81657	0.14991	0.41667	1.2
Mof_Co	Co	2.66794e-17	0.51676	0.75	1.197
_end
