data_functionalizedCrystal
_audit_creation_method	'EQeq! by Chris Wilmer'
_symmetry_space_group_name_H-M	'P1'
_symmetry_Int_Tables_number	1
_symmetry_cell_setting	triclinic
loop_
_symmetry_equiv_pos_as_xyz
  x,y,z
_cell_length_a	12.093
_cell_length_b	14.897
_cell_length_c	11.849
_cell_angle_alpha	90
_cell_angle_beta	97.821
_cell_angle_gamma	90
loop_
_atom_site_label
_atom_site_type_symbol
_atom_site_fract_x
_atom_site_fract_y
_atom_site_fract_z
_atom_site_charge
Mof_Zn	Zn	0.90416	0.23676	0.08895	1.231
Mof_Zn	Zn	0.79552	0.11355	0.54378	1.202
Mof_P 	P 	0.8302	0.2383	0.34462	0.53
Mof_P 	P 	0.7477	0.41102	0.03719	0.575
Mof_O 	O 	0.8395	0.3454	0.0196	-0.465
Mof_O 	O 	0.8479	0.20223	0.2268	-0.469
Mof_O 	O 	0.9407	0.2511	0.4221	-0.515
Mof_O 	O 	0.8661	0.1336	0.9873	-0.489
Mof_O 	O 	0.757	0.16948	0.3977	-0.462
Mof_O 	O 	0.7647	0.32822	0.3298	-0.481
Mof_O 	O 	0.7616	0.4921	0.963	-0.445
Mof_O 	O 	0.7607	0.4454	0.1641	-0.476
Mof_H 	H 	0.762	0.405	0.213	0.275
Mof_Zn	Zn	0.40416	0.73676	0.08895	1.232
Mof_Zn	Zn	0.29552	0.61355	0.54378	1.201
Mof_P 	P 	0.3302	0.7383	0.34462	0.529
Mof_P 	P 	0.2477	0.91102	0.03719	0.575
Mof_O 	O 	0.3395	0.8454	0.0196	-0.465
Mof_O 	O 	0.3479	0.70223	0.2268	-0.469
Mof_O 	O 	0.4407	0.7511	0.4221	-0.516
Mof_O 	O 	0.3661	0.6336	0.9873	-0.49
Mof_O 	O 	0.257	0.66948	0.3977	-0.463
Mof_O 	O 	0.2647	0.82822	0.3298	-0.482
Mof_O 	O 	0.2616	0.9921	0.963	-0.447
Mof_O 	O 	0.2607	0.9454	0.1641	-0.478
Mof_H 	H 	0.262	0.905	0.213	0.274
Mof_Zn	Zn	0.09584	0.23676	0.41105	1.231
Mof_Zn	Zn	0.20448	0.11355	0.95622	1.198
Mof_P 	P 	0.1698	0.2383	0.15538	0.529
Mof_P 	P 	0.2523	0.41102	0.46281	0.576
Mof_O 	O 	0.1605	0.3454	0.4804	-0.465
Mof_O 	O 	0.1521	0.20223	0.2732	-0.469
Mof_O 	O 	0.0593	0.2511	0.0779	-0.513
Mof_O 	O 	0.1339	0.1336	0.5127	-0.492
Mof_O 	O 	0.243	0.16948	0.1023	-0.46
Mof_O 	O 	0.2353	0.32822	0.1702	-0.482
Mof_O 	O 	0.2384	0.4921	0.537	-0.448
Mof_O 	O 	0.2393	0.4454	0.3359	-0.476
Mof_H 	H 	0.238	0.405	0.287	0.274
Mof_Zn	Zn	0.59584	0.73676	0.41105	1.231
Mof_Zn	Zn	0.70448	0.61355	0.95622	1.201
Mof_P 	P 	0.6698	0.7383	0.15538	0.529
Mof_P 	P 	0.7523	0.91102	0.46281	0.576
Mof_O 	O 	0.6605	0.8454	0.4804	-0.465
Mof_O 	O 	0.6521	0.70223	0.2732	-0.47
Mof_O 	O 	0.5593	0.7511	0.0779	-0.517
Mof_O 	O 	0.6339	0.6336	0.5127	-0.491
Mof_O 	O 	0.743	0.66948	0.1023	-0.465
Mof_O 	O 	0.7353	0.82822	0.1702	-0.484
Mof_O 	O 	0.7384	0.9921	0.537	-0.449
Mof_O 	O 	0.7393	0.9454	0.3359	-0.478
Mof_H 	H 	0.738	0.905	0.287	0.274
Mof_Zn	Zn	0.09584	0.76324	0.91105	1.23
Mof_Zn	Zn	0.20448	0.88645	0.45622	1.201
Mof_P 	P 	0.1698	0.7617	0.65538	0.529
Mof_P 	P 	0.2523	0.58898	0.96281	0.574
Mof_O 	O 	0.1605	0.6546	0.9804	-0.466
Mof_O 	O 	0.1521	0.79777	0.7732	-0.47
Mof_O 	O 	0.0593	0.7489	0.5779	-0.516
Mof_O 	O 	0.1339	0.8664	0.0127	-0.49
Mof_O 	O 	0.243	0.83052	0.6023	-0.463
Mof_O 	O 	0.2353	0.67178	0.6702	-0.482
Mof_O 	O 	0.2384	0.5079	0.037	-0.446
Mof_O 	O 	0.2393	0.5546	0.8359	-0.477
Mof_H 	H 	0.238	0.595	0.787	0.274
Mof_Zn	Zn	0.59584	0.26324	0.91105	1.231
Mof_Zn	Zn	0.70448	0.38645	0.45622	1.201
Mof_P 	P 	0.6698	0.2617	0.65538	0.529
Mof_P 	P 	0.7523	0.08898	0.96281	0.575
Mof_O 	O 	0.6605	0.1546	0.9804	-0.465
Mof_O 	O 	0.6521	0.29777	0.7732	-0.469
Mof_O 	O 	0.5593	0.2489	0.5779	-0.516
Mof_O 	O 	0.6339	0.3664	0.0127	-0.49
Mof_O 	O 	0.743	0.33052	0.6023	-0.463
Mof_O 	O 	0.7353	0.17178	0.6702	-0.482
Mof_O 	O 	0.7384	0.0079	0.037	-0.447
Mof_O 	O 	0.7393	0.0546	0.8359	-0.478
Mof_H 	H 	0.738	0.095	0.787	0.274
Mof_Zn	Zn	0.90416	0.76324	0.58895	1.231
Mof_Zn	Zn	0.79552	0.88645	0.04378	1.198
Mof_P 	P 	0.8302	0.7617	0.84462	0.529
Mof_P 	P 	0.7477	0.58898	0.53719	0.576
Mof_O 	O 	0.8395	0.6546	0.5196	-0.465
Mof_O 	O 	0.8479	0.79777	0.7268	-0.469
Mof_O 	O 	0.9407	0.7489	0.9221	-0.513
Mof_O 	O 	0.8661	0.8664	0.4873	-0.492
Mof_O 	O 	0.757	0.83052	0.8977	-0.46
Mof_O 	O 	0.7647	0.67178	0.8298	-0.482
Mof_O 	O 	0.7616	0.5079	0.463	-0.448
Mof_O 	O 	0.7607	0.5546	0.6641	-0.476
Mof_H 	H 	0.762	0.595	0.713	0.274
Mof_Zn	Zn	0.40416	0.26324	0.58895	1.231
Mof_Zn	Zn	0.29552	0.38645	0.04378	1.201
Mof_P 	P 	0.3302	0.2617	0.84462	0.529
Mof_P 	P 	0.2477	0.08898	0.53719	0.576
Mof_O 	O 	0.3395	0.1546	0.5196	-0.465
Mof_O 	O 	0.3479	0.29777	0.7268	-0.47
Mof_O 	O 	0.4407	0.2489	0.9221	-0.517
Mof_O 	O 	0.3661	0.3664	0.4873	-0.491
Mof_O 	O 	0.257	0.33052	0.8977	-0.465
Mof_O 	O 	0.2647	0.17178	0.8298	-0.484
Mof_O 	O 	0.2616	0.0079	0.463	-0.449
Mof_O 	O 	0.2607	0.0546	0.6641	-0.478
Mof_H 	H 	0.262	0.095	0.713	0.274
_end
