data_functionalizedCrystal
_audit_creation_method	'EQeq! by Chris Wilmer'
_symmetry_space_group_name_H-M	'P1'
_symmetry_Int_Tables_number	1
_symmetry_cell_setting	triclinic
loop_
_symmetry_equiv_pos_as_xyz
  x,y,z
_cell_length_a	6.4075
_cell_length_b	6.805
_cell_length_c	7.6647
_cell_angle_alpha	111.753
_cell_angle_beta	95.858
_cell_angle_gamma	91.204
loop_
_atom_site_label
_atom_site_type_symbol
_atom_site_fract_x
_atom_site_fract_y
_atom_site_fract_z
_atom_site_charge
Mof_Yb	Yb	0.87751	0.78147	0.06862	1.68
Mof_Yb	Yb	0.12249	0.21853	0.93138	1.68
Mof_P 	P 	0.3311	0.7474	0.9793	0.497
Mof_P 	P 	0.6689	0.2526	0.0207	0.497
Mof_H 	H 	0.3622	0.7204	0.7978	-0.063
Mof_H 	H 	0.6378	0.2796	0.2022	-0.063
Mof_C 	C 	0.0571	0.9018	0.5005	0.273
Mof_C 	C 	0.9429	0.0982	0.4995	0.273
Mof_O 	O 	0.1969	0.9421	0.0353	-0.554
Mof_O 	O 	0.536	0.78	0.1068	-0.46
Mof_O 	O 	0.1816	0.5678	0.9757	-0.557
Mof_O 	O 	0.0494	0.7543	0.3451	-0.409
Mof_O 	O 	0.8545	0.0884	0.3447	-0.407
Mof_O 	O 	0.8031	0.0579	0.9647	-0.554
Mof_O 	O 	0.464	0.22	0.8932	-0.46
Mof_O 	O 	0.8184	0.4322	0.0243	-0.557
Mof_O 	O 	0.9506	0.2457	0.6549	-0.409
Mof_O 	O 	0.1455	0.9116	0.6553	-0.407
_end
