data_functionalizedCrystal
_audit_creation_method	'EQeq! by Chris Wilmer'
_symmetry_space_group_name_H-M	'P1'
_symmetry_Int_Tables_number	1
_symmetry_cell_setting	triclinic
loop_
_symmetry_equiv_pos_as_xyz
  x,y,z
_cell_length_a	10.252
_cell_length_b	18.409
_cell_length_c	24.639
_cell_angle_alpha	90
_cell_angle_beta	90
_cell_angle_gamma	90
loop_
_atom_site_label
_atom_site_type_symbol
_atom_site_fract_x
_atom_site_fract_y
_atom_site_fract_z
_atom_site_charge
Mof_Ga	Ga	0.1142	0.086	0.4328	3.476
Mof_Ga	Ga	0.9228	0.8507	0.3398	4.222
Mof_Ga	Ga	0.3807	0.0669	0.5583	3.184
Mof_Ga	Ga	0.6022	0.9205	0.2347	4.417
Mof_Ga	Ga	0.5929	0.1745	0.3459	4.274
Mof_Ga	Ga	0.8965	0.1095	0.2399	4.437
Mof_Ga	Ga	0.9177	0.3	0.2759	4.485
Mof_Ga	Ga	0.4224	0.2307	0.2311	4.42
Mof_P 	P 	0.8977	0.9376	0.2322	1.135
Mof_P 	P 	0.4158	0.098	0.4383	0.985
Mof_P 	P 	0.0836	0.9159	0.4377	1.015
Mof_P 	P 	0.6056	0.0928	0.2326	1.07
Mof_P 	P 	0.9008	0.1703	0.3601	1.043
Mof_P 	P 	0.5818	0.141	0.6451	0.974
Mof_P 	P 	0.6224	0.3229	0.2987	1.004
Mof_P 	P 	0.8752	0.7078	0.2915	1.03
Mof_F 	F 	0.8323	0.214	0.246	-1.475
Mof_F 	F 	0.6679	0.8153	0.237	-1.419
Mof_F 	F 	0.4227	0.1912	0.3067	-1.383
Mof_O 	O 	0.869	0.9171	0.2924	-1.409
Mof_O 	O 	0.7621	0.9372	0.2044	-1.191
Mof_O 	O 	0.9575	0.0133	0.2318	-1.134
Mof_O 	O 	0.9823	0.8834	0.2032	-1.091
Mof_O 	O 	0.4686	0.0963	0.4969	-1.03
Mof_O 	O 	0.4179	0.0228	0.4115	-1.145
Mof_O 	O 	0.2785	0.1277	0.4385	-1.142
Mof_O 	O 	0.5021	0.1503	0.4077	-1.102
Mof_O 	O 	0.9874	0.8681	0.4067	-1.142
Mof_O 	O 	0.2244	0.8895	0.4277	-1.074
Mof_O 	O 	0.0686	0.9924	0.4156	-1.21
Mof_O 	O 	0.0433	0.9065	0.4979	-1.033
Mof_O 	O 	0.5183	0.1496	0.2051	-1.059
Mof_O 	O 	0.6312	0.1078	0.2933	-1.356
Mof_O 	O 	0.5416	0.0186	0.2269	-1.069
Mof_O 	O 	0.7405	0.0944	0.2036	-1.154
Mof_O 	O 	0.9271	0.2487	0.3445	-1.076
Mof_O 	O 	0.9927	0.1522	0.4072	-0.972
Mof_O 	O 	0.7637	0.1574	0.3806	-1.025
Mof_O 	O 	0.9362	0.1151	0.3129	-1.272
Mof_O 	O 	0.5612	0.087	0.6921	-1.236
Mof_O 	O 	0.5777	0.2201	0.6609	-1.032
Mof_O 	O 	0.7174	0.1252	0.6171	-0.662
Mof_O 	O 	0.4735	0.1296	0.6034	-0.888
Mof_O 	O 	0.61	0.2742	0.3493	-1.144
Mof_O 	O 	0.5828	0.2813	0.2474	-1.17
Mof_O 	O 	0.5329	0.3904	0.3092	-1.11
Mof_O 	O 	0.7578	0.3504	0.292	-1.045
Mof_O 	O 	0.7379	0.6786	0.2824	-1.009
Mof_O 	O 	0.8811	0.7556	0.3425	-1.2
Mof_O 	O 	0.9632	0.6419	0.3016	-1.115
Mof_O 	O 	0.9199	0.7528	0.2431	-1.197
Mof_O 	O 	0.0907	0.837	0.3011	-1.403
Mof_Ga	Ga	0.1142	0.914	0.5672	3.477
Mof_Ga	Ga	0.9228	0.1493	0.6602	4.223
Mof_Ga	Ga	0.3807	0.9331	0.4417	3.185
Mof_Ga	Ga	0.6022	0.0795	0.7653	4.418
Mof_Ga	Ga	0.5929	0.8255	0.6541	4.275
Mof_Ga	Ga	0.8965	0.8905	0.7601	4.438
Mof_Ga	Ga	0.9177	0.7	0.7241	4.486
Mof_Ga	Ga	0.4224	0.7693	0.7689	4.421
Mof_P 	P 	0.8977	0.0624	0.7678	1.135
Mof_P 	P 	0.4158	0.902	0.5617	0.985
Mof_P 	P 	0.0836	0.0841	0.5623	1.015
Mof_P 	P 	0.6056	0.9072	0.7674	1.07
Mof_P 	P 	0.9008	0.8297	0.6399	1.043
Mof_P 	P 	0.5818	0.859	0.3549	0.974
Mof_P 	P 	0.6224	0.6771	0.7013	1.004
Mof_P 	P 	0.8752	0.2922	0.7085	1.03
Mof_F 	F 	0.8323	0.786	0.754	-1.475
Mof_F 	F 	0.6679	0.1847	0.763	-1.419
Mof_F 	F 	0.4227	0.8088	0.6933	-1.383
Mof_O 	O 	0.869	0.0829	0.7076	-1.409
Mof_O 	O 	0.7621	0.0628	0.7956	-1.191
Mof_O 	O 	0.9575	0.9867	0.7682	-1.134
Mof_O 	O 	0.9823	0.1166	0.7968	-1.091
Mof_O 	O 	0.4686	0.9037	0.5031	-1.03
Mof_O 	O 	0.4179	0.9772	0.5885	-1.145
Mof_O 	O 	0.2785	0.8723	0.5615	-1.142
Mof_O 	O 	0.5021	0.8497	0.5923	-1.102
Mof_O 	O 	0.9874	0.1319	0.5933	-1.142
Mof_O 	O 	0.2244	0.1105	0.5723	-1.074
Mof_O 	O 	0.0686	0.0076	0.5844	-1.21
Mof_O 	O 	0.0433	0.0935	0.5021	-1.033
Mof_O 	O 	0.5183	0.8504	0.7949	-1.059
Mof_O 	O 	0.6312	0.8922	0.7067	-1.356
Mof_O 	O 	0.5416	0.9814	0.7731	-1.069
Mof_O 	O 	0.7405	0.9056	0.7964	-1.154
Mof_O 	O 	0.9271	0.7513	0.6555	-1.076
Mof_O 	O 	0.9927	0.8478	0.5928	-0.972
Mof_O 	O 	0.7637	0.8426	0.6194	-1.025
Mof_O 	O 	0.9362	0.8849	0.6871	-1.272
Mof_O 	O 	0.5612	0.913	0.3079	-1.236
Mof_O 	O 	0.5777	0.7799	0.3391	-1.032
Mof_O 	O 	0.7174	0.8748	0.3829	-0.662
Mof_O 	O 	0.4735	0.8704	0.3966	-0.888
Mof_O 	O 	0.61	0.7258	0.6507	-1.144
Mof_O 	O 	0.5828	0.7187	0.7526	-1.17
Mof_O 	O 	0.5329	0.6096	0.6908	-1.11
Mof_O 	O 	0.7578	0.6496	0.708	-1.045
Mof_O 	O 	0.7379	0.3214	0.7176	-1.009
Mof_O 	O 	0.8811	0.2444	0.6575	-1.2
Mof_O 	O 	0.9632	0.3581	0.6984	-1.115
Mof_O 	O 	0.9199	0.2472	0.7569	-1.197
Mof_O 	O 	0.0907	0.163	0.6989	-1.403
Mof_Ga	Ga	0.8858	0.414	0.9328	3.475
Mof_Ga	Ga	0.0772	0.6493	0.8398	4.223
Mof_Ga	Ga	0.6193	0.4331	0.0583	3.186
Mof_Ga	Ga	0.3978	0.5795	0.7347	4.421
Mof_Ga	Ga	0.4071	0.3255	0.8459	4.274
Mof_Ga	Ga	0.1035	0.3905	0.7399	4.438
Mof_Ga	Ga	0.0823	0.2	0.7759	4.485
Mof_Ga	Ga	0.5776	0.2693	0.7311	4.42
Mof_P 	P 	0.1023	0.5624	0.7322	1.136
Mof_P 	P 	0.5842	0.402	0.9383	0.985
Mof_P 	P 	0.9164	0.5841	0.9377	1.015
Mof_P 	P 	0.3944	0.4072	0.7326	1.07
Mof_P 	P 	0.0992	0.3297	0.8601	1.042
Mof_P 	P 	0.4182	0.359	0.1451	0.974
Mof_P 	P 	0.3776	0.1771	0.7987	1.004
Mof_P 	P 	0.1248	0.7922	0.7915	1.03
Mof_F 	F 	0.1677	0.286	0.746	-1.475
Mof_F 	F 	0.3321	0.6847	0.737	-1.419
Mof_F 	F 	0.5773	0.3088	0.8067	-1.383
Mof_O 	O 	0.131	0.5829	0.7924	-1.408
Mof_O 	O 	0.2379	0.5628	0.7044	-1.191
Mof_O 	O 	0.0425	0.4867	0.7318	-1.134
Mof_O 	O 	0.0177	0.6166	0.7032	-1.091
Mof_O 	O 	0.5314	0.4037	0.9969	-1.031
Mof_O 	O 	0.5821	0.4772	0.9115	-1.145
Mof_O 	O 	0.7215	0.3723	0.9385	-1.142
Mof_O 	O 	0.4979	0.3497	0.9077	-1.102
Mof_O 	O 	0.0126	0.6319	0.9067	-1.142
Mof_O 	O 	0.7756	0.6105	0.9277	-1.074
Mof_O 	O 	0.9314	0.5076	0.9156	-1.209
Mof_O 	O 	0.9567	0.5935	0.9979	-1.033
Mof_O 	O 	0.4817	0.3504	0.7051	-1.059
Mof_O 	O 	0.3688	0.3922	0.7933	-1.356
Mof_O 	O 	0.4584	0.4814	0.7269	-1.069
Mof_O 	O 	0.2595	0.4056	0.7036	-1.154
Mof_O 	O 	0.0729	0.2513	0.8445	-1.077
Mof_O 	O 	0.0073	0.3478	0.9072	-0.973
Mof_O 	O 	0.2363	0.3426	0.8806	-1.025
Mof_O 	O 	0.0638	0.3849	0.8129	-1.272
Mof_O 	O 	0.4388	0.413	0.1921	-1.237
Mof_O 	O 	0.4223	0.2799	0.1609	-1.032
Mof_O 	O 	0.2826	0.3748	0.1171	-0.662
Mof_O 	O 	0.5265	0.3704	0.1034	-0.888
Mof_O 	O 	0.39	0.2258	0.8493	-1.145
Mof_O 	O 	0.4172	0.2187	0.7474	-1.17
Mof_O 	O 	0.4671	0.1096	0.8092	-1.111
Mof_O 	O 	0.2422	0.1496	0.792	-1.046
Mof_O 	O 	0.2621	0.8214	0.7824	-1.009
Mof_O 	O 	0.1189	0.7444	0.8425	-1.2
Mof_O 	O 	0.0368	0.8581	0.8016	-1.115
Mof_O 	O 	0.0801	0.7472	0.7431	-1.197
Mof_O 	O 	0.9093	0.663	0.8011	-1.403
Mof_Ga	Ga	0.8858	0.586	0.0672	3.475
Mof_Ga	Ga	0.0772	0.3507	0.1602	4.223
Mof_Ga	Ga	0.6193	0.5669	0.9417	3.186
Mof_Ga	Ga	0.3978	0.4205	0.2653	4.421
Mof_Ga	Ga	0.4071	0.6745	0.1541	4.274
Mof_Ga	Ga	0.1035	0.6095	0.2601	4.438
Mof_Ga	Ga	0.0823	0.8	0.2241	4.485
Mof_Ga	Ga	0.5776	0.7307	0.2689	4.42
Mof_P 	P 	0.1023	0.4376	0.2678	1.136
Mof_P 	P 	0.5842	0.598	0.0617	0.985
Mof_P 	P 	0.9164	0.4159	0.0623	1.015
Mof_P 	P 	0.3944	0.5928	0.2674	1.07
Mof_P 	P 	0.0992	0.6703	0.1399	1.042
Mof_P 	P 	0.4182	0.641	0.8549	0.974
Mof_P 	P 	0.3776	0.8229	0.2013	1.004
Mof_P 	P 	0.1248	0.2078	0.2085	1.03
Mof_F 	F 	0.1677	0.714	0.254	-1.475
Mof_F 	F 	0.3321	0.3153	0.263	-1.419
Mof_F 	F 	0.5773	0.6912	0.1933	-1.383
Mof_O 	O 	0.131	0.4171	0.2076	-1.408
Mof_O 	O 	0.2379	0.4372	0.2956	-1.191
Mof_O 	O 	0.0425	0.5133	0.2682	-1.134
Mof_O 	O 	0.0177	0.3834	0.2968	-1.091
Mof_O 	O 	0.5314	0.5963	0.0031	-1.031
Mof_O 	O 	0.5821	0.5228	0.0885	-1.145
Mof_O 	O 	0.7215	0.6277	0.0615	-1.142
Mof_O 	O 	0.4979	0.6503	0.0923	-1.102
Mof_O 	O 	0.0126	0.3681	0.0933	-1.142
Mof_O 	O 	0.7756	0.3895	0.0723	-1.074
Mof_O 	O 	0.9314	0.4924	0.0844	-1.209
Mof_O 	O 	0.9567	0.4065	0.0021	-1.033
Mof_O 	O 	0.4817	0.6496	0.2949	-1.059
Mof_O 	O 	0.3688	0.6078	0.2067	-1.356
Mof_O 	O 	0.4584	0.5186	0.2731	-1.069
Mof_O 	O 	0.2595	0.5944	0.2964	-1.154
Mof_O 	O 	0.0729	0.7487	0.1555	-1.077
Mof_O 	O 	0.0073	0.6522	0.0928	-0.973
Mof_O 	O 	0.2363	0.6574	0.1194	-1.025
Mof_O 	O 	0.0638	0.6151	0.1871	-1.272
Mof_O 	O 	0.4388	0.587	0.8079	-1.237
Mof_O 	O 	0.4223	0.7201	0.8391	-1.032
Mof_O 	O 	0.2826	0.6252	0.8829	-0.662
Mof_O 	O 	0.5265	0.6296	0.8966	-0.888
Mof_O 	O 	0.39	0.7742	0.1507	-1.145
Mof_O 	O 	0.4172	0.7813	0.2526	-1.17
Mof_O 	O 	0.4671	0.8904	0.1908	-1.111
Mof_O 	O 	0.2422	0.8504	0.208	-1.046
Mof_O 	O 	0.2621	0.1786	0.2176	-1.009
Mof_O 	O 	0.1189	0.2556	0.1575	-1.2
Mof_O 	O 	0.0368	0.1419	0.1984	-1.115
Mof_O 	O 	0.0801	0.2528	0.2569	-1.197
Mof_O 	O 	0.9093	0.337	0.1989	-1.403
_end
