data_functionalizedCrystal
_audit_creation_method	'EQeq! by Chris Wilmer'
_symmetry_space_group_name_H-M	'P1'
_symmetry_Int_Tables_number	1
_symmetry_cell_setting	triclinic
loop_
_symmetry_equiv_pos_as_xyz
  x,y,z
_cell_length_a	19.806
_cell_length_b	9.138
_cell_length_c	32.3393
_cell_angle_alpha	90
_cell_angle_beta	107.566
_cell_angle_gamma	90
loop_
_atom_site_label
_atom_site_type_symbol
_atom_site_fract_x
_atom_site_fract_y
_atom_site_fract_z
_atom_site_charge
Mof_Eu	Eu	0.96177	0.9796	0.79932	2.098
Mof_O 	O 	0.06605	0.8727	0.77659	-0.659
Mof_O 	O 	0.90817	0.8735	0.85291	-0.442
Mof_O 	O 	0.60671	0.64549	0.7532	-0.544
Mof_O 	O 	0.84294	0.8766	0.7844	-0.446
Mof_O 	O 	0.00789	0.726	0.80752	-0.568
Mof_O 	O 	0.54472	0.66903	0.80031	-0.562
Mof_N 	N 	0.93625	0.0241	0.12669	-0.261
Mof_N 	N 	0.70513	0.0541	0.00905	-0.135
Mof_N 	N 	0.45889	0.25	0.98635	-0.134
Mof_C 	C 	0.84883	0.8654	0.82411	0.302
Mof_C 	C 	0.78124	0.8864	0.8784	0.006
Mof_H 	H 	0.8217	0.9241	0.8983	0.031
Mof_C 	C 	0.78289	0.8458	0.83731	-0.108
Mof_C 	C 	0.05535	0.7452	0.79006	0.707
Mof_C 	C 	0.59942	0.6869	0.78853	0.485
Mof_C 	C 	0.71909	0.8711	0.89003	-0.071
Mof_C 	C 	0.66194	0.763	0.81979	-0.177
Mof_C 	C 	0.71521	0.9304	0.93203	0.106
Mof_C 	C 	0.66063	0.8055	0.86068	0.037
Mof_H 	H 	0.6199	0.7899	0.8687	0.014
Mof_C 	C 	0.52987	0.1748	0.94191	-0.119
Mof_H 	H 	0.5344	0.169	0.9142	0.075
Mof_C 	C 	0.64935	0.0546	0.97312	0.089
Mof_C 	C 	0.94732	0.9746	0.0903	0.119
Mof_H 	H 	0.9932	0.9484	0.0914	-0.037
Mof_C 	C 	0.72281	0.7872	0.80799	0.06
Mof_H 	H 	0.7233	0.7638	0.7801	0.022
Mof_C 	C 	0.5833	0.1233	0.97707	0.049
Mof_C 	C 	0.65248	0.9938	0.93415	-0.16
Mof_H 	H 	0.6129	0.9957	0.9097	0.08
Mof_C 	C 	0.10074	0.6199	0.7849	-1.219
Mof_H 	H 	0.1367	0.6022	0.8119	0.392
Mof_H 	H 	0.1226	0.6432	0.763	0.396
Mof_H 	H 	0.072	0.5339	0.7765	0.388
Mof_C 	C 	0.77241	0.9289	0.96933	-0.157
Mof_H 	H 	0.8148	0.8856	0.9692	0.091
Mof_C 	C 	0.89473	0.9604	0.05135	-0.162
Mof_H 	H 	0.9055	0.9237	0.0273	0.094
Mof_C 	C 	0.86954	0.0596	0.12336	0.119
Mof_H 	H 	0.8598	0.0913	0.1483	-0.025
Mof_C 	C 	0.81448	0.0527	0.08586	-0.164
Mof_H 	H 	0.7695	0.0828	0.0856	0.092
Mof_C 	C 	0.76594	0.9929	0.00715	0.082
Mof_C 	C 	0.573	0.1381	0.01767	-0.121
Mof_H 	H 	0.6075	0.1069	0.0426	0.077
Mof_C 	C 	0.82566	0.0007	0.04797	0.073
Mof_C 	C 	0.46951	0.2353	0.94813	0.064
Mof_H 	H 	0.4341	0.2676	0.9238	0.029
Mof_C 	C 	0.5112	0.1995	0.02028	0.071
Mof_H 	H 	0.505	0.2067	0.0476	0.004
Mof_Eu	Eu	0.46177	0.4796	0.79932	2.113
Mof_O 	O 	0.56605	0.3727	0.77659	-0.661
Mof_O 	O 	0.40817	0.3735	0.85291	-0.443
Mof_O 	O 	0.10671	0.14549	0.7532	-0.538
Mof_O 	O 	0.34294	0.3766	0.7844	-0.446
Mof_O 	O 	0.50789	0.226	0.80752	-0.57
Mof_O 	O 	0.04472	0.16903	0.80031	-0.555
Mof_N 	N 	0.43625	0.5241	0.12669	-0.259
Mof_N 	N 	0.20513	0.5541	0.00905	-0.133
Mof_N 	N 	0.95889	0.75	0.98635	-0.134
Mof_C 	C 	0.34883	0.3654	0.82411	0.302
Mof_C 	C 	0.28124	0.3864	0.8784	0.004
Mof_H 	H 	0.3217	0.4241	0.8983	0.033
Mof_C 	C 	0.28289	0.3458	0.83731	-0.105
Mof_C 	C 	0.55535	0.2452	0.79006	0.71
Mof_C 	C 	0.09942	0.1869	0.78853	0.483
Mof_C 	C 	0.21909	0.3711	0.89003	-0.068
Mof_C 	C 	0.16194	0.263	0.81979	-0.172
Mof_C 	C 	0.21521	0.4304	0.93203	0.102
Mof_C 	C 	0.16063	0.3055	0.86068	0.036
Mof_H 	H 	0.1199	0.2899	0.8687	0.016
Mof_C 	C 	0.02987	0.6748	0.94191	-0.12
Mof_H 	H 	0.0344	0.669	0.9142	0.075
Mof_C 	C 	0.14935	0.5546	0.97312	0.085
Mof_C 	C 	0.44732	0.4746	0.0903	0.115
Mof_H 	H 	0.4932	0.4484	0.0914	-0.038
Mof_C 	C 	0.22281	0.2872	0.80799	0.058
Mof_H 	H 	0.2233	0.2638	0.7801	0.025
Mof_C 	C 	0.0833	0.6233	0.97707	0.05
Mof_C 	C 	0.15248	0.4938	0.93415	-0.156
Mof_H 	H 	0.1129	0.4957	0.9097	0.08
Mof_C 	C 	0.60074	0.1199	0.7849	-1.226
Mof_H 	H 	0.6367	0.1022	0.8119	0.397
Mof_H 	H 	0.6226	0.1432	0.763	0.399
Mof_H 	H 	0.572	0.0339	0.7765	0.392
Mof_C 	C 	0.27241	0.4289	0.96933	-0.151
Mof_H 	H 	0.3148	0.3856	0.9692	0.089
Mof_C 	C 	0.39473	0.4604	0.05135	-0.168
Mof_H 	H 	0.4055	0.4237	0.0273	0.095
Mof_C 	C 	0.36954	0.5596	0.12336	0.123
Mof_H 	H 	0.3598	0.5913	0.1483	-0.025
Mof_C 	C 	0.31448	0.5527	0.08586	-0.167
Mof_H 	H 	0.2695	0.5828	0.0856	0.094
Mof_C 	C 	0.26594	0.4929	0.00715	0.075
Mof_C 	C 	0.073	0.6381	0.01767	-0.122
Mof_H 	H 	0.1075	0.6069	0.0426	0.078
Mof_C 	C 	0.32566	0.5007	0.04797	0.082
Mof_C 	C 	0.96951	0.7353	0.94813	0.064
Mof_H 	H 	0.9341	0.7676	0.9238	0.028
Mof_C 	C 	0.0112	0.6995	0.02028	0.072
Mof_H 	H 	0.005	0.7067	0.0476	0.004
Mof_Eu	Eu	0.03823	0.9796	0.70068	2.097
Mof_O 	O 	0.93395	0.8727	0.72341	-0.66
Mof_O 	O 	0.09183	0.8735	0.64709	-0.443
Mof_O 	O 	0.39329	0.64549	0.7468	-0.545
Mof_O 	O 	0.15706	0.8766	0.7156	-0.447
Mof_O 	O 	0.99211	0.726	0.69248	-0.569
Mof_O 	O 	0.45528	0.66903	0.69969	-0.562
Mof_N 	N 	0.06375	0.0241	0.37331	-0.261
Mof_N 	N 	0.29487	0.0541	0.49095	-0.134
Mof_N 	N 	0.54111	0.25	0.51365	-0.134
Mof_C 	C 	0.15117	0.8654	0.67589	0.302
Mof_C 	C 	0.21876	0.8864	0.6216	0.005
Mof_H 	H 	0.1783	0.9241	0.6017	0.032
Mof_C 	C 	0.21711	0.8458	0.66269	-0.108
Mof_C 	C 	0.94465	0.7452	0.70994	0.707
Mof_C 	C 	0.40058	0.6869	0.71147	0.485
Mof_C 	C 	0.28091	0.8711	0.60997	-0.071
Mof_C 	C 	0.33806	0.763	0.68021	-0.176
Mof_C 	C 	0.28479	0.9304	0.56797	0.105
Mof_C 	C 	0.33937	0.8055	0.63932	0.037
Mof_H 	H 	0.3801	0.7899	0.6313	0.015
Mof_C 	C 	0.47013	0.1748	0.55809	-0.119
Mof_H 	H 	0.4656	0.169	0.5858	0.075
Mof_C 	C 	0.35065	0.0546	0.52688	0.089
Mof_C 	C 	0.05268	0.9746	0.4097	0.119
Mof_H 	H 	0.0068	0.9484	0.4086	-0.037
Mof_C 	C 	0.27719	0.7872	0.69201	0.059
Mof_H 	H 	0.2767	0.7638	0.7199	0.023
Mof_C 	C 	0.4167	0.1233	0.52293	0.049
Mof_C 	C 	0.34752	0.9938	0.56585	-0.159
Mof_H 	H 	0.3871	0.9957	0.5903	0.08
Mof_C 	C 	0.89926	0.6199	0.7151	-1.219
Mof_H 	H 	0.8633	0.6022	0.6881	0.392
Mof_H 	H 	0.8774	0.6432	0.737	0.396
Mof_H 	H 	0.928	0.5339	0.7235	0.388
Mof_C 	C 	0.22759	0.9289	0.53067	-0.155
Mof_H 	H 	0.1852	0.8856	0.5308	0.09
Mof_C 	C 	0.10527	0.9604	0.44865	-0.163
Mof_H 	H 	0.0945	0.9237	0.4727	0.094
Mof_C 	C 	0.13046	0.0596	0.37664	0.119
Mof_H 	H 	0.1402	0.0913	0.3517	-0.025
Mof_C 	C 	0.18552	0.0527	0.41414	-0.165
Mof_H 	H 	0.2305	0.0828	0.4144	0.092
Mof_C 	C 	0.23406	0.9929	0.49285	0.081
Mof_C 	C 	0.427	0.1381	0.48233	-0.121
Mof_H 	H 	0.3925	0.1069	0.4574	0.077
Mof_C 	C 	0.17434	0.0007	0.45203	0.075
Mof_C 	C 	0.53049	0.2353	0.55187	0.064
Mof_H 	H 	0.5659	0.2676	0.5762	0.029
Mof_C 	C 	0.4888	0.1995	0.47972	0.071
Mof_H 	H 	0.495	0.2067	0.4524	0.004
Mof_Eu	Eu	0.53823	0.4796	0.70068	2.113
Mof_O 	O 	0.43395	0.3727	0.72341	-0.661
Mof_O 	O 	0.59183	0.3735	0.64709	-0.443
Mof_O 	O 	0.89329	0.14549	0.7468	-0.538
Mof_O 	O 	0.65706	0.3766	0.7156	-0.446
Mof_O 	O 	0.49211	0.226	0.69248	-0.57
Mof_O 	O 	0.95528	0.16903	0.69969	-0.555
Mof_N 	N 	0.56375	0.5241	0.37331	-0.259
Mof_N 	N 	0.79487	0.5541	0.49095	-0.133
Mof_N 	N 	0.04111	0.75	0.51365	-0.134
Mof_C 	C 	0.65117	0.3654	0.67589	0.302
Mof_C 	C 	0.71876	0.3864	0.6216	0.004
Mof_H 	H 	0.6783	0.4241	0.6017	0.033
Mof_C 	C 	0.71711	0.3458	0.66269	-0.105
Mof_C 	C 	0.44465	0.2452	0.70994	0.71
Mof_C 	C 	0.90058	0.1869	0.71147	0.483
Mof_C 	C 	0.78091	0.3711	0.60997	-0.068
Mof_C 	C 	0.83806	0.263	0.68021	-0.172
Mof_C 	C 	0.78479	0.4304	0.56797	0.102
Mof_C 	C 	0.83937	0.3055	0.63932	0.036
Mof_H 	H 	0.8801	0.2899	0.6313	0.016
Mof_C 	C 	0.97013	0.6748	0.55809	-0.12
Mof_H 	H 	0.9656	0.669	0.5858	0.075
Mof_C 	C 	0.85065	0.5546	0.52688	0.085
Mof_C 	C 	0.55268	0.4746	0.4097	0.115
Mof_H 	H 	0.5068	0.4484	0.4086	-0.038
Mof_C 	C 	0.77719	0.2872	0.69201	0.058
Mof_H 	H 	0.7767	0.2638	0.7199	0.025
Mof_C 	C 	0.9167	0.6233	0.52293	0.05
Mof_C 	C 	0.84752	0.4938	0.56585	-0.156
Mof_H 	H 	0.8871	0.4957	0.5903	0.08
Mof_C 	C 	0.39926	0.1199	0.7151	-1.226
Mof_H 	H 	0.3633	0.1022	0.6881	0.397
Mof_H 	H 	0.3774	0.1432	0.737	0.399
Mof_H 	H 	0.428	0.0339	0.7235	0.392
Mof_C 	C 	0.72759	0.4289	0.53067	-0.151
Mof_H 	H 	0.6852	0.3856	0.5308	0.089
Mof_C 	C 	0.60527	0.4604	0.44865	-0.168
Mof_H 	H 	0.5945	0.4237	0.4727	0.096
Mof_C 	C 	0.63046	0.5596	0.37664	0.123
Mof_H 	H 	0.6402	0.5913	0.3517	-0.025
Mof_C 	C 	0.68552	0.5527	0.41414	-0.167
Mof_H 	H 	0.7305	0.5828	0.4144	0.094
Mof_C 	C 	0.73406	0.4929	0.49285	0.075
Mof_C 	C 	0.927	0.6381	0.48233	-0.122
Mof_H 	H 	0.8925	0.6069	0.4574	0.078
Mof_C 	C 	0.67434	0.5007	0.45203	0.081
Mof_C 	C 	0.03049	0.7353	0.55187	0.064
Mof_H 	H 	0.0659	0.7676	0.5762	0.028
Mof_C 	C 	0.9888	0.6995	0.47972	0.072
Mof_H 	H 	0.995	0.7067	0.4524	0.004
Mof_Eu	Eu	0.03823	0.0204	0.20068	2.097
Mof_O 	O 	0.93395	0.1273	0.22341	-0.66
Mof_O 	O 	0.09183	0.1265	0.14709	-0.443
Mof_O 	O 	0.39329	0.35451	0.2468	-0.545
Mof_O 	O 	0.15706	0.1234	0.2156	-0.447
Mof_O 	O 	0.99211	0.274	0.19248	-0.569
Mof_O 	O 	0.45528	0.33097	0.19969	-0.562
Mof_N 	N 	0.06375	0.9759	0.87331	-0.261
Mof_N 	N 	0.29487	0.9459	0.99095	-0.135
Mof_N 	N 	0.54111	0.75	0.01365	-0.134
Mof_C 	C 	0.15117	0.1346	0.17589	0.302
Mof_C 	C 	0.21876	0.1136	0.1216	0.006
Mof_H 	H 	0.1783	0.0759	0.1017	0.031
Mof_C 	C 	0.21711	0.1542	0.16269	-0.108
Mof_C 	C 	0.94465	0.2548	0.20994	0.707
Mof_C 	C 	0.40058	0.3131	0.21147	0.485
Mof_C 	C 	0.28091	0.1289	0.10997	-0.071
Mof_C 	C 	0.33806	0.237	0.18021	-0.177
Mof_C 	C 	0.28479	0.0696	0.06797	0.106
Mof_C 	C 	0.33937	0.1945	0.13932	0.037
Mof_H 	H 	0.3801	0.2101	0.1313	0.014
Mof_C 	C 	0.47013	0.8252	0.05809	-0.119
Mof_H 	H 	0.4656	0.831	0.0858	0.075
Mof_C 	C 	0.35065	0.9454	0.02688	0.089
Mof_C 	C 	0.05268	0.0254	0.9097	0.119
Mof_H 	H 	0.0068	0.0516	0.9086	-0.037
Mof_C 	C 	0.27719	0.2128	0.19201	0.06
Mof_H 	H 	0.2767	0.2362	0.2199	0.022
Mof_C 	C 	0.4167	0.8767	0.02293	0.049
Mof_C 	C 	0.34752	0.0062	0.06585	-0.16
Mof_H 	H 	0.3871	0.0043	0.0903	0.08
Mof_C 	C 	0.89926	0.3801	0.2151	-1.219
Mof_H 	H 	0.8633	0.3978	0.1881	0.392
Mof_H 	H 	0.8774	0.3568	0.237	0.396
Mof_H 	H 	0.928	0.4661	0.2235	0.388
Mof_C 	C 	0.22759	0.0711	0.03067	-0.157
Mof_H 	H 	0.1852	0.1144	0.0308	0.091
Mof_C 	C 	0.10527	0.0396	0.94865	-0.162
Mof_H 	H 	0.0945	0.0763	0.9727	0.094
Mof_C 	C 	0.13046	0.9404	0.87664	0.119
Mof_H 	H 	0.1402	0.9087	0.8517	-0.025
Mof_C 	C 	0.18552	0.9473	0.91414	-0.164
Mof_H 	H 	0.2305	0.9172	0.9144	0.092
Mof_C 	C 	0.23406	0.0071	0.99285	0.082
Mof_C 	C 	0.427	0.8619	0.98233	-0.121
Mof_H 	H 	0.3925	0.8931	0.9574	0.077
Mof_C 	C 	0.17434	0.9993	0.95203	0.073
Mof_C 	C 	0.53049	0.7647	0.05187	0.064
Mof_H 	H 	0.5659	0.7324	0.0762	0.029
Mof_C 	C 	0.4888	0.8005	0.97972	0.071
Mof_H 	H 	0.495	0.7933	0.9524	0.004
Mof_Eu	Eu	0.53823	0.5204	0.20068	2.113
Mof_O 	O 	0.43395	0.6273	0.22341	-0.661
Mof_O 	O 	0.59183	0.6265	0.14709	-0.443
Mof_O 	O 	0.89329	0.85451	0.2468	-0.538
Mof_O 	O 	0.65706	0.6234	0.2156	-0.446
Mof_O 	O 	0.49211	0.774	0.19248	-0.57
Mof_O 	O 	0.95528	0.83097	0.19969	-0.555
Mof_N 	N 	0.56375	0.4759	0.87331	-0.259
Mof_N 	N 	0.79487	0.4459	0.99095	-0.133
Mof_N 	N 	0.04111	0.25	0.01365	-0.134
Mof_C 	C 	0.65117	0.6346	0.17589	0.302
Mof_C 	C 	0.71876	0.6136	0.1216	0.004
Mof_H 	H 	0.6783	0.5759	0.1017	0.033
Mof_C 	C 	0.71711	0.6542	0.16269	-0.105
Mof_C 	C 	0.44465	0.7548	0.20994	0.71
Mof_C 	C 	0.90058	0.8131	0.21147	0.483
Mof_C 	C 	0.78091	0.6289	0.10997	-0.068
Mof_C 	C 	0.83806	0.737	0.18021	-0.172
Mof_C 	C 	0.78479	0.5696	0.06797	0.102
Mof_C 	C 	0.83937	0.6945	0.13932	0.036
Mof_H 	H 	0.8801	0.7101	0.1313	0.016
Mof_C 	C 	0.97013	0.3252	0.05809	-0.12
Mof_H 	H 	0.9656	0.331	0.0858	0.075
Mof_C 	C 	0.85065	0.4454	0.02688	0.085
Mof_C 	C 	0.55268	0.5254	0.9097	0.115
Mof_H 	H 	0.5068	0.5516	0.9086	-0.038
Mof_C 	C 	0.77719	0.7128	0.19201	0.058
Mof_H 	H 	0.7767	0.7362	0.2199	0.025
Mof_C 	C 	0.9167	0.3767	0.02293	0.05
Mof_C 	C 	0.84752	0.5062	0.06585	-0.156
Mof_H 	H 	0.8871	0.5043	0.0903	0.08
Mof_C 	C 	0.39926	0.8801	0.2151	-1.226
Mof_H 	H 	0.3633	0.8978	0.1881	0.397
Mof_H 	H 	0.3774	0.8568	0.237	0.399
Mof_H 	H 	0.428	0.9661	0.2235	0.392
Mof_C 	C 	0.72759	0.5711	0.03067	-0.151
Mof_H 	H 	0.6852	0.6144	0.0308	0.089
Mof_C 	C 	0.60527	0.5396	0.94865	-0.168
Mof_H 	H 	0.5945	0.5763	0.9727	0.095
Mof_C 	C 	0.63046	0.4404	0.87664	0.123
Mof_H 	H 	0.6402	0.4087	0.8517	-0.025
Mof_C 	C 	0.68552	0.4473	0.91414	-0.167
Mof_H 	H 	0.7305	0.4172	0.9144	0.094
Mof_C 	C 	0.73406	0.5071	0.99285	0.075
Mof_C 	C 	0.927	0.3619	0.98233	-0.122
Mof_H 	H 	0.8925	0.3931	0.9574	0.078
Mof_C 	C 	0.67434	0.4993	0.95203	0.082
Mof_C 	C 	0.03049	0.2647	0.05187	0.064
Mof_H 	H 	0.0659	0.2324	0.0762	0.028
Mof_C 	C 	0.9888	0.3005	0.97972	0.072
Mof_H 	H 	0.995	0.2933	0.9524	0.004
Mof_Eu	Eu	0.96177	0.0204	0.29932	2.097
Mof_O 	O 	0.06605	0.1273	0.27659	-0.66
Mof_O 	O 	0.90817	0.1265	0.35291	-0.443
Mof_O 	O 	0.60671	0.35451	0.2532	-0.545
Mof_O 	O 	0.84294	0.1234	0.2844	-0.447
Mof_O 	O 	0.00789	0.274	0.30752	-0.569
Mof_O 	O 	0.54472	0.33097	0.30031	-0.562
Mof_N 	N 	0.93625	0.9759	0.62669	-0.261
Mof_N 	N 	0.70513	0.9459	0.50905	-0.134
Mof_N 	N 	0.45889	0.75	0.48635	-0.134
Mof_C 	C 	0.84883	0.1346	0.32411	0.302
Mof_C 	C 	0.78124	0.1136	0.3784	0.005
Mof_H 	H 	0.8217	0.0759	0.3983	0.032
Mof_C 	C 	0.78289	0.1542	0.33731	-0.108
Mof_C 	C 	0.05535	0.2548	0.29006	0.707
Mof_C 	C 	0.59942	0.3131	0.28853	0.485
Mof_C 	C 	0.71909	0.1289	0.39003	-0.071
Mof_C 	C 	0.66194	0.237	0.31979	-0.176
Mof_C 	C 	0.71521	0.0696	0.43203	0.105
Mof_C 	C 	0.66063	0.1945	0.36068	0.037
Mof_H 	H 	0.6199	0.2101	0.3687	0.015
Mof_C 	C 	0.52987	0.8252	0.44191	-0.119
Mof_H 	H 	0.5344	0.831	0.4142	0.075
Mof_C 	C 	0.64935	0.9454	0.47312	0.089
Mof_C 	C 	0.94732	0.0254	0.5903	0.119
Mof_H 	H 	0.9932	0.0516	0.5914	-0.037
Mof_C 	C 	0.72281	0.2128	0.30799	0.059
Mof_H 	H 	0.7233	0.2362	0.2801	0.023
Mof_C 	C 	0.5833	0.8767	0.47707	0.049
Mof_C 	C 	0.65248	0.0062	0.43415	-0.159
Mof_H 	H 	0.6129	0.0043	0.4097	0.08
Mof_C 	C 	0.10074	0.3801	0.2849	-1.219
Mof_H 	H 	0.1367	0.3978	0.3119	0.392
Mof_H 	H 	0.1226	0.3568	0.263	0.396
Mof_H 	H 	0.072	0.4661	0.2765	0.388
Mof_C 	C 	0.77241	0.0711	0.46933	-0.155
Mof_H 	H 	0.8148	0.1144	0.4692	0.09
Mof_C 	C 	0.89473	0.0396	0.55135	-0.163
Mof_H 	H 	0.9055	0.0763	0.5273	0.094
Mof_C 	C 	0.86954	0.9404	0.62336	0.119
Mof_H 	H 	0.8598	0.9087	0.6483	-0.025
Mof_C 	C 	0.81448	0.9473	0.58586	-0.165
Mof_H 	H 	0.7695	0.9172	0.5856	0.092
Mof_C 	C 	0.76594	0.0071	0.50715	0.081
Mof_C 	C 	0.573	0.8619	0.51767	-0.121
Mof_H 	H 	0.6075	0.8931	0.5426	0.077
Mof_C 	C 	0.82566	0.9993	0.54797	0.075
Mof_C 	C 	0.46951	0.7647	0.44813	0.064
Mof_H 	H 	0.4341	0.7324	0.4238	0.029
Mof_C 	C 	0.5112	0.8005	0.52028	0.071
Mof_H 	H 	0.505	0.7933	0.5476	0.004
Mof_Eu	Eu	0.46177	0.5204	0.29932	2.113
Mof_O 	O 	0.56605	0.6273	0.27659	-0.661
Mof_O 	O 	0.40817	0.6265	0.35291	-0.443
Mof_O 	O 	0.10671	0.85451	0.2532	-0.538
Mof_O 	O 	0.34294	0.6234	0.2844	-0.446
Mof_O 	O 	0.50789	0.774	0.30752	-0.57
Mof_O 	O 	0.04472	0.83097	0.30031	-0.555
Mof_N 	N 	0.43625	0.4759	0.62669	-0.259
Mof_N 	N 	0.20513	0.4459	0.50905	-0.133
Mof_N 	N 	0.95889	0.25	0.48635	-0.134
Mof_C 	C 	0.34883	0.6346	0.32411	0.302
Mof_C 	C 	0.28124	0.6136	0.3784	0.004
Mof_H 	H 	0.3217	0.5759	0.3983	0.033
Mof_C 	C 	0.28289	0.6542	0.33731	-0.105
Mof_C 	C 	0.55535	0.7548	0.29006	0.71
Mof_C 	C 	0.09942	0.8131	0.28853	0.483
Mof_C 	C 	0.21909	0.6289	0.39003	-0.068
Mof_C 	C 	0.16194	0.737	0.31979	-0.172
Mof_C 	C 	0.21521	0.5696	0.43203	0.102
Mof_C 	C 	0.16063	0.6945	0.36068	0.036
Mof_H 	H 	0.1199	0.7101	0.3687	0.016
Mof_C 	C 	0.02987	0.3252	0.44191	-0.12
Mof_H 	H 	0.0344	0.331	0.4142	0.075
Mof_C 	C 	0.14935	0.4454	0.47312	0.085
Mof_C 	C 	0.44732	0.5254	0.5903	0.115
Mof_H 	H 	0.4932	0.5516	0.5914	-0.038
Mof_C 	C 	0.22281	0.7128	0.30799	0.058
Mof_H 	H 	0.2233	0.7362	0.2801	0.025
Mof_C 	C 	0.0833	0.3767	0.47707	0.05
Mof_C 	C 	0.15248	0.5062	0.43415	-0.156
Mof_H 	H 	0.1129	0.5043	0.4097	0.08
Mof_C 	C 	0.60074	0.8801	0.2849	-1.226
Mof_H 	H 	0.6367	0.8978	0.3119	0.397
Mof_H 	H 	0.6226	0.8568	0.263	0.399
Mof_H 	H 	0.572	0.9661	0.2765	0.392
Mof_C 	C 	0.27241	0.5711	0.46933	-0.151
Mof_H 	H 	0.3148	0.6144	0.4692	0.089
Mof_C 	C 	0.39473	0.5396	0.55135	-0.168
Mof_H 	H 	0.4055	0.5763	0.5273	0.096
Mof_C 	C 	0.36954	0.4404	0.62336	0.123
Mof_H 	H 	0.3598	0.4087	0.6483	-0.025
Mof_C 	C 	0.31448	0.4473	0.58586	-0.167
Mof_H 	H 	0.2695	0.4172	0.5856	0.094
Mof_C 	C 	0.26594	0.5071	0.50715	0.075
Mof_C 	C 	0.073	0.3619	0.51767	-0.122
Mof_H 	H 	0.1075	0.3931	0.5426	0.078
Mof_C 	C 	0.32566	0.4993	0.54797	0.081
Mof_C 	C 	0.96951	0.2647	0.44813	0.064
Mof_H 	H 	0.9341	0.2324	0.4238	0.028
Mof_C 	C 	0.0112	0.3005	0.52028	0.072
Mof_H 	H 	0.005	0.2933	0.5476	0.004
_end
