data_functionalizedCrystal
_audit_creation_method	'EQeq! by Chris Wilmer'
_symmetry_space_group_name_H-M	'P1'
_symmetry_Int_Tables_number	1
_symmetry_cell_setting	triclinic
loop_
_symmetry_equiv_pos_as_xyz
  x,y,z
_cell_length_a	51.1116
_cell_length_b	51.1116
_cell_length_c	15.3938
_cell_angle_alpha	90
_cell_angle_beta	90
_cell_angle_gamma	120
loop_
_atom_site_label
_atom_site_type_symbol
_atom_site_fract_x
_atom_site_fract_y
_atom_site_fract_z
_atom_site_charge
Mof_Au	Au	0.16691	0.85037	0.20916	-0.037
Mof_Au	Au	0.17558	0.87476	0.39041	-0.045
Mof_Au	Au	0.11972	0.81666	0.34168	-0.036
Mof_Ag	Ag	0.13172	0.87447	0.2797	0.547
Mof_P 	P 	0.16379	0.86765	0.0766	0.08
Mof_P 	P 	0.18405	0.91971	0.4442	0.079
Mof_P 	P 	0.07008	0.80216	0.3509	0.081
Mof_N 	N 	0.1566	0.9091	0.1636	-0.149
Mof_N 	N 	0.1267	0.9022	0.3965	-0.151
Mof_N 	N 	0.082	0.8434	0.2282	-0.151
Mof_C 	C 	0.1275	0.8433	0.0285	-0.024
Mof_C 	C 	0.1944	0.8721	0.0083	-0.014
Mof_C 	C 	0.1662	0.9051	0.0868	-0.061
Mof_C 	C 	0.2079	0.9509	0.3722	-0.018
Mof_C 	C 	0.2013	0.9257	0.5497	-0.015
Mof_C 	C 	0.1483	0.9205	0.4549	-0.062
Mof_C 	C 	0.0628	0.8182	0.4456	-0.026
Mof_C 	C 	0.0475	0.7611	0.352	-0.013
Mof_C 	C 	0.0589	0.817	0.2585	-0.058
Mof_C 	C 	0.1585	0.9355	0.1772	-0.022
Mof_C 	C 	0.0998	0.8992	0.3988	-0.012
Mof_C 	C 	0.0774	0.8554	0.1595	-0.02
Mof_C 	C 	0.1138	0.8534	0.9708	-0.057
Mof_C 	C 	0.1121	0.8129	0.0505	-0.057
Mof_C 	C 	0.1896	0.8534	0.941	-0.068
Mof_C 	C 	0.2233	0.895	0.028	-0.071
Mof_C 	C 	0.177	0.9273	0.0217	0.177
Mof_C 	C 	0.2278	0.9479	0.3187	-0.062
Mof_C 	C 	0.2051	0.9764	0.3636	-0.063
Mof_C 	C 	0.2311	0.9469	0.5644	-0.068
Mof_C 	C 	0.185	0.9068	0.6167	-0.077
Mof_C 	C 	0.1418	0.9367	0.5148	0.166
Mof_C 	C 	0.0818	0.824	0.5191	-0.054
Mof_C 	C 	0.0411	0.8266	0.4496	-0.055
Mof_C 	C 	0.0368	0.7472	0.435	-0.075
Mof_C 	C 	0.0448	0.7455	0.276	-0.071
Mof_C 	C 	0.0305	0.8036	0.217	0.16
Mof_H 	H 	0.151	0.939	0.23	0.013
Mof_C 	C 	0.171	0.9579	0.1165	0.023
Mof_H 	H 	0.0852	0.8873	0.3563	0.008
Mof_C 	C 	0.0928	0.9132	0.4625	0.009
Mof_H 	H 	0.0931	0.8742	0.1383	0.011
Mof_C 	C 	0.0497	0.841	0.1169	0.026
Mof_H 	H 	0.1244	0.8739	0.9525	0.027
Mof_C 	C 	0.0852	0.8345	0.9392	-0.035
Mof_C 	C 	0.0829	0.7935	0.0191	-0.031
Mof_H 	H 	0.1214	0.8051	0.0875	0.044
Mof_H 	H 	0.1696	0.8381	0.9272	0.047
Mof_C 	C 	0.2141	0.8564	0.8909	-0.029
Mof_C 	C 	0.2478	0.8995	0.978	-0.03
Mof_H 	H 	0.2264	0.9077	0.0765	0.045
Mof_C 	C 	0.1855	0.9241	0.9333	-0.524
Mof_N 	N 	0.179	0.9539	0.04	-0.214
Mof_H 	H 	0.229	0.9301	0.3225	0.045
Mof_C 	C 	0.2455	0.9693	0.261	-0.023
Mof_C 	C 	0.2222	0.9975	0.3042	-0.021
Mof_H 	H 	0.1914	0.979	0.3991	0.039
Mof_H 	H 	0.2424	0.9607	0.5195	0.05
Mof_C 	C 	0.2448	0.9486	0.6433	-0.027
Mof_C 	C 	0.1971	0.9089	0.6946	-0.021
Mof_H 	H 	0.1645	0.8919	0.6072	0.044
Mof_C 	C 	0.1643	0.9592	0.5765	-0.504
Mof_N 	N 	0.1134	0.9319	0.5188	-0.195
Mof_H 	H 	0.0973	0.8188	0.5176	0.041
Mof_C 	C 	0.078	0.837	0.5918	-0.037
Mof_C 	C 	0.0379	0.8405	0.5234	-0.039
Mof_H 	H 	0.0281	0.8228	0.4013	0.025
Mof_H 	H 	0.0387	0.7583	0.4862	0.053
Mof_C 	C 	0.0234	0.7156	0.434	-0.014
Mof_C 	C 	0.0294	0.7133	0.277	-0.031
Mof_H 	H 	0.0532	0.7562	0.223	0.044
Mof_C 	C 	0.0026	0.7765	0.251	-0.492
Mof_N 	N 	0.0278	0.8162	0.1443	-0.214
Mof_H 	H 	0.1739	0.9772	0.1308	-0.01
Mof_H 	H 	0.0727	0.9095	0.4667	-0.011
Mof_H 	H 	0.0471	0.8499	0.0659	-0.017
Mof_H 	H 	0.0763	0.8423	0.9002	0.019
Mof_C 	C 	0.0694	0.805	0.963	-0.05
Mof_H 	H 	0.0723	0.7728	0.0355	0.034
Mof_H 	H 	0.2108	0.8426	0.845	0.035
Mof_C 	C 	0.2429	0.8797	0.9097	-0.054
Mof_H 	H 	0.2675	0.9158	0.9899	0.031
Mof_H 	H 	0.1923	0.943	0.9015	0.128
Mof_H 	H 	0.168	0.9077	0.9036	0.16
Mof_H 	H 	0.2018	0.9194	0.9353	0.174
Mof_Ag	Ag	0.19144	0.98787	0.93908	0.449
Mof_H 	H 	0.2597	0.9671	0.2264	0.033
Mof_C 	C 	0.2424	0.9952	0.2542	-0.058
Mof_H 	H 	0.2198	0.0146	0.2976	0.027
Mof_H 	H 	0.2655	0.9627	0.6526	0.033
Mof_C 	C 	0.2271	0.9289	0.7081	-0.065
Mof_H 	H 	0.1849	0.8965	0.7409	0.022
Mof_H 	H 	0.1546	0.9677	0.6123	0.13
Mof_H 	H 	0.181	0.9754	0.5438	0.161
Mof_H 	H 	0.1722	0.9492	0.614	0.158
Mof_Ag	Ag	0.09765	0.95078	0.62631	0.301
Mof_H 	H 	0.0902	0.8403	0.6417	0.034
Mof_C 	C 	0.0556	0.8454	0.5917	-0.044
Mof_H 	H 	0.023	0.8464	0.5248	0.015
Mof_H 	H 	0.0169	0.7051	0.4877	0.026
Mof_C 	C 	0.0194	0.7002	0.365	-0.062
Mof_H 	H 	0.026	0.7013	0.2264	0.031
Mof_H 	H 	0.9857	0.7714	0.2113	0.126
Mof_H 	H 	0.9977	0.7811	0.3086	0.153
Mof_H 	H 	0.0062	0.7594	0.2555	0.164
Mof_H 	H 	0.0494	0.7923	0.9419	0.025
Mof_H 	H 	0.2595	0.8821	0.8757	0.041
Mof_H 	H 	0.2544	0.0109	0.2144	0.038
Mof_H 	H 	0.236	0.9292	0.7627	0.04
Mof_H 	H 	0.0532	0.8549	0.6417	0.019
Mof_H 	H 	0.0093	0.6789	0.3699	0.041
Mof_Au	Au	0.83358	0.1837	0.54249	-0.036
Mof_Au	Au	0.84225	0.2081	0.72374	-0.044
Mof_Au	Au	0.78639	0.14999	0.67501	-0.035
Mof_Ag	Ag	0.79839	0.2078	0.61303	0.548
Mof_P 	P 	0.83046	0.20098	0.40993	0.082
Mof_P 	P 	0.85072	0.25304	0.77753	0.08
Mof_P 	P 	0.73675	0.13549	0.68423	0.082
Mof_N 	N 	0.82327	0.24243	0.49693	-0.148
Mof_N 	N 	0.79337	0.23553	0.72983	-0.15
Mof_N 	N 	0.74867	0.17673	0.56153	-0.15
Mof_C 	C 	0.79417	0.17663	0.36183	-0.025
Mof_C 	C 	0.86107	0.20543	0.34163	-0.014
Mof_C 	C 	0.83287	0.23843	0.42013	-0.06
Mof_C 	C 	0.87457	0.28423	0.70553	-0.017
Mof_C 	C 	0.86797	0.25903	0.88303	-0.014
Mof_C 	C 	0.81497	0.25383	0.78823	-0.061
Mof_C 	C 	0.72947	0.15153	0.77893	-0.025
Mof_C 	C 	0.71417	0.09443	0.68533	-0.012
Mof_C 	C 	0.72557	0.15033	0.59183	-0.057
Mof_C 	C 	0.82517	0.26883	0.51053	-0.021
Mof_C 	C 	0.76647	0.23253	0.73213	-0.011
Mof_C 	C 	0.74407	0.18873	0.49283	-0.019
Mof_C 	C 	0.78047	0.18673	0.30413	-0.053
Mof_C 	C 	0.77877	0.14623	0.38383	-0.054
Mof_C 	C 	0.85627	0.18673	0.27433	-0.066
Mof_C 	C 	0.88997	0.22833	0.36133	-0.071
Mof_C 	C 	0.84367	0.26063	0.35503	0.177
Mof_C 	C 	0.89447	0.28123	0.65203	-0.061
Mof_C 	C 	0.87177	0.30973	0.69693	-0.062
Mof_C 	C 	0.89777	0.28023	0.89773	-0.067
Mof_C 	C 	0.85167	0.24013	0.95003	-0.076
Mof_C 	C 	0.80847	0.27003	0.84813	0.167
Mof_C 	C 	0.74847	0.15733	0.85243	-0.053
Mof_C 	C 	0.70777	0.15993	0.78293	-0.054
Mof_C 	C 	0.70347	0.08053	0.76833	-0.074
Mof_C 	C 	0.71147	0.07883	0.60933	-0.07
Mof_C 	C 	0.69717	0.13693	0.55033	0.161
Mof_H 	H 	0.81767	0.27233	0.56333	0.014
Mof_C 	C 	0.83767	0.29123	0.44983	0.024
Mof_H 	H 	0.75187	0.22063	0.68963	0.009
Mof_C 	C 	0.75947	0.24653	0.79583	0.01
Mof_H 	H 	0.75977	0.20753	0.47163	0.012
Mof_C 	C 	0.71637	0.17433	0.45023	0.027
Mof_H 	H 	0.79107	0.20723	0.28583	0.027
Mof_C 	C 	0.75187	0.16783	0.27253	-0.036
Mof_C 	C 	0.74957	0.12683	0.35243	-0.033
Mof_H 	H 	0.78807	0.13843	0.42083	0.043
Mof_H 	H 	0.83627	0.17143	0.26053	0.047
Mof_C 	C 	0.88077	0.18973	0.22423	-0.029
Mof_C 	C 	0.91447	0.23283	0.31133	-0.028
Mof_H 	H 	0.89307	0.24103	0.40983	0.045
Mof_C 	C 	0.85217	0.25743	0.26663	-0.522
Mof_N 	N 	0.84567	0.28723	0.37333	-0.214
Mof_H 	H 	0.89567	0.26343	0.65583	0.045
Mof_C 	C 	0.91217	0.30263	0.59433	-0.023
Mof_C 	C 	0.88887	0.33083	0.63753	-0.021
Mof_H 	H 	0.85807	0.31233	0.73243	0.039
Mof_H 	H 	0.90907	0.29403	0.85283	0.05
Mof_C 	C 	0.91147	0.28193	0.97663	-0.028
Mof_C 	C 	0.86377	0.24223	0.02793	-0.02
Mof_H 	H 	0.83117	0.22523	0.94053	0.045
Mof_C 	C 	0.83097	0.29253	0.90983	-0.504
Mof_N 	N 	0.78007	0.26523	0.85213	-0.195
Mof_H 	H 	0.76397	0.15213	0.85093	0.041
Mof_C 	C 	0.74467	0.17033	0.92513	-0.037
Mof_C 	C 	0.70457	0.17383	0.85673	-0.039
Mof_H 	H 	0.69477	0.15613	0.73463	0.025
Mof_H 	H 	0.70537	0.09163	0.81953	0.053
Mof_C 	C 	0.69007	0.04893	0.76733	-0.014
Mof_C 	C 	0.69607	0.04663	0.61033	-0.031
Mof_H 	H 	0.71987	0.08953	0.55633	0.043
Mof_C 	C 	0.66927	0.10983	0.58433	-0.493
Mof_N 	N 	0.69447	0.14953	0.47763	-0.214
Mof_H 	H 	0.84057	0.31053	0.46413	-0.01
Mof_H 	H 	0.73937	0.24283	0.80003	-0.011
Mof_H 	H 	0.71377	0.18323	0.39923	-0.018
Mof_H 	H 	0.74297	0.17563	0.23353	0.02
Mof_C 	C 	0.73607	0.13833	0.29633	-0.048
Mof_H 	H 	0.73897	0.10613	0.36883	0.034
Mof_H 	H 	0.87747	0.17593	0.17833	0.035
Mof_C 	C 	0.90957	0.21303	0.24303	-0.054
Mof_H 	H 	0.93417	0.24913	0.32323	0.031
Mof_H 	H 	0.85897	0.27633	0.23483	0.127
Mof_H 	H 	0.83467	0.24103	0.23693	0.16
Mof_H 	H 	0.86847	0.25273	0.26863	0.174
Mof_Ag	Ag	0.85811	0.3212	0.27241	0.45
Mof_H 	H 	0.92637	0.30043	0.55973	0.033
Mof_C 	C 	0.90907	0.32853	0.58753	-0.058
Mof_H 	H 	0.88647	0.34793	0.63093	0.027
Mof_H 	H 	0.93217	0.29603	0.98593	0.033
Mof_C 	C 	0.89377	0.26223	0.04143	-0.064
Mof_H 	H 	0.85157	0.22983	0.07423	0.022
Mof_H 	H 	0.82127	0.30103	0.94563	0.13
Mof_H 	H 	0.84767	0.30873	0.87713	0.161
Mof_H 	H 	0.83887	0.28253	0.94733	0.157
Mof_Ag	Ag	0.76432	0.28411	0.95964	0.301
Mof_H 	H 	0.75687	0.17363	0.97503	0.034
Mof_C 	C 	0.72227	0.17873	0.92503	-0.044
Mof_H 	H 	0.68967	0.17973	0.85813	0.015
Mof_H 	H 	0.68357	0.03843	0.82103	0.026
Mof_C 	C 	0.68607	0.03353	0.69833	-0.062
Mof_H 	H 	0.69267	0.03463	0.55973	0.031
Mof_H 	H 	0.65237	0.10473	0.54463	0.127
Mof_H 	H 	0.66437	0.11443	0.64193	0.154
Mof_H 	H 	0.67287	0.09273	0.58883	0.165
Mof_H 	H 	0.71607	0.12563	0.27523	0.025
Mof_H 	H 	0.92617	0.21543	0.20903	0.041
Mof_H 	H 	0.92107	0.34423	0.54773	0.037
Mof_H 	H 	0.90267	0.26253	0.09603	0.04
Mof_H 	H 	0.71987	0.18823	0.97503	0.019
Mof_H 	H 	0.67597	0.01223	0.70323	0.041
Mof_Au	Au	0.50025	0.51703	0.87583	-0.036
Mof_Au	Au	0.50892	0.54143	0.05708	-0.043
Mof_Au	Au	0.45306	0.48332	0.00835	-0.034
Mof_Ag	Ag	0.46505	0.54114	0.94637	0.546
Mof_P 	P 	0.49712	0.53432	0.74327	0.082
Mof_P 	P 	0.51738	0.58638	0.11087	0.08
Mof_P 	P 	0.40341	0.46883	0.01757	0.083
Mof_N 	N 	0.48993	0.57577	0.83027	-0.148
Mof_N 	N 	0.46003	0.56887	0.06317	-0.15
Mof_N 	N 	0.41533	0.51007	0.89487	-0.15
Mof_C 	C 	0.46083	0.50997	0.69517	-0.024
Mof_C 	C 	0.52773	0.53877	0.67497	-0.014
Mof_C 	C 	0.49953	0.57177	0.75347	-0.06
Mof_C 	C 	0.54123	0.61757	0.03887	-0.017
Mof_C 	C 	0.53463	0.59237	0.21637	-0.014
Mof_C 	C 	0.48163	0.58717	0.12157	-0.061
Mof_C 	C 	0.39613	0.48487	0.11227	-0.025
Mof_C 	C 	0.38083	0.42777	0.01867	-0.011
Mof_C 	C 	0.39223	0.48367	0.92517	-0.057
Mof_C 	C 	0.49183	0.60217	0.84387	-0.021
Mof_C 	C 	0.43313	0.56587	0.06547	-0.011
Mof_C 	C 	0.41073	0.52207	0.82617	-0.019
Mof_C 	C 	0.44713	0.52007	0.63747	-0.053
Mof_C 	C 	0.44543	0.47957	0.71717	-0.054
Mof_C 	C 	0.52293	0.52007	0.60767	-0.066
Mof_C 	C 	0.55663	0.56167	0.69467	-0.071
Mof_C 	C 	0.51033	0.59397	0.68837	0.177
Mof_C 	C 	0.56113	0.61457	0.98537	-0.062
Mof_C 	C 	0.53843	0.64307	0.03027	-0.06
Mof_C 	C 	0.56443	0.61357	0.23107	-0.067
Mof_C 	C 	0.51833	0.57347	0.28337	-0.076
Mof_C 	C 	0.47513	0.60337	0.18147	0.167
Mof_C 	C 	0.41513	0.49067	0.18577	-0.053
Mof_C 	C 	0.37443	0.49327	0.11627	-0.054
Mof_C 	C 	0.37013	0.41387	0.10167	-0.074
Mof_C 	C 	0.37813	0.41217	0.94267	-0.071
Mof_C 	C 	0.36383	0.47027	0.88367	0.161
Mof_H 	H 	0.48433	0.60567	0.89667	0.014
Mof_C 	C 	0.50433	0.62457	0.78317	0.024
Mof_H 	H 	0.41853	0.55397	0.02297	0.009
Mof_C 	C 	0.42613	0.57987	0.12917	0.01
Mof_H 	H 	0.42643	0.54087	0.80497	0.012
Mof_C 	C 	0.38303	0.50767	0.78357	0.027
Mof_H 	H 	0.45773	0.54057	0.61917	0.027
Mof_C 	C 	0.41853	0.50117	0.60587	-0.036
Mof_C 	C 	0.41623	0.46017	0.68577	-0.033
Mof_H 	H 	0.45473	0.47177	0.75417	0.043
Mof_H 	H 	0.50293	0.50477	0.59387	0.047
Mof_C 	C 	0.54743	0.52307	0.55757	-0.029
Mof_C 	C 	0.58113	0.56617	0.64467	-0.028
Mof_H 	H 	0.55973	0.57437	0.74317	0.045
Mof_C 	C 	0.51883	0.59077	0.59997	-0.522
Mof_N 	N 	0.51233	0.62057	0.70667	-0.214
Mof_H 	H 	0.56233	0.59677	0.98917	0.045
Mof_C 	C 	0.57883	0.63597	0.92767	-0.023
Mof_C 	C 	0.55553	0.66417	0.97087	-0.022
Mof_H 	H 	0.52473	0.64567	0.06577	0.038
Mof_H 	H 	0.57573	0.62737	0.18617	0.05
Mof_C 	C 	0.57813	0.61527	0.30997	-0.027
Mof_C 	C 	0.53043	0.57557	0.36127	-0.021
Mof_H 	H 	0.49783	0.55857	0.27387	0.044
Mof_C 	C 	0.49763	0.62587	0.24317	-0.504
Mof_N 	N 	0.44673	0.59857	0.18547	-0.195
Mof_H 	H 	0.43063	0.48547	0.18427	0.041
Mof_C 	C 	0.41133	0.50367	0.25847	-0.037
Mof_C 	C 	0.37123	0.50717	0.19007	-0.039
Mof_H 	H 	0.36143	0.48947	0.06797	0.026
Mof_H 	H 	0.37203	0.42497	0.15287	0.053
Mof_C 	C 	0.35673	0.38227	0.10067	-0.014
Mof_C 	C 	0.36273	0.37997	0.94367	-0.032
Mof_H 	H 	0.38653	0.42287	0.88967	0.044
Mof_C 	C 	0.33593	0.44317	0.91767	-0.493
Mof_N 	N 	0.36113	0.48287	0.81097	-0.214
Mof_H 	H 	0.50723	0.64387	0.79747	-0.01
Mof_H 	H 	0.40603	0.57617	0.13337	-0.011
Mof_H 	H 	0.38043	0.51657	0.73257	-0.018
Mof_H 	H 	0.40963	0.50897	0.56687	0.02
Mof_C 	C 	0.40273	0.47167	0.62967	-0.048
Mof_H 	H 	0.40563	0.43947	0.70217	0.034
Mof_H 	H 	0.54413	0.50927	0.51167	0.035
Mof_C 	C 	0.57623	0.54637	0.57637	-0.054
Mof_H 	H 	0.60083	0.58247	0.65657	0.031
Mof_H 	H 	0.52563	0.60967	0.56817	0.127
Mof_H 	H 	0.50133	0.57437	0.57027	0.16
Mof_H 	H 	0.53513	0.58607	0.60197	0.174
Mof_Ag	Ag	0.52477	0.65454	0.60575	0.45
Mof_H 	H 	0.59303	0.63377	0.89307	0.033
Mof_C 	C 	0.57573	0.66187	0.92087	-0.057
Mof_H 	H 	0.55313	0.68127	0.96427	0.028
Mof_H 	H 	0.59883	0.62937	0.31927	0.033
Mof_C 	C 	0.56043	0.59557	0.37477	-0.065
Mof_H 	H 	0.51823	0.56317	0.40757	0.022
Mof_H 	H 	0.48793	0.63437	0.27897	0.13
Mof_H 	H 	0.51433	0.64207	0.21047	0.161
Mof_H 	H 	0.50553	0.61587	0.28067	0.158
Mof_Ag	Ag	0.43098	0.61745	0.29298	0.302
Mof_H 	H 	0.42353	0.50697	0.30837	0.034
Mof_C 	C 	0.38893	0.51207	0.25837	-0.044
Mof_H 	H 	0.35633	0.51307	0.19147	0.015
Mof_H 	H 	0.35023	0.37177	0.15437	0.026
Mof_C 	C 	0.35273	0.36687	0.03167	-0.061
Mof_H 	H 	0.35933	0.36797	0.89307	0.031
Mof_H 	H 	0.31903	0.43807	0.87797	0.126
Mof_H 	H 	0.33103	0.44777	0.97527	0.153
Mof_H 	H 	0.33953	0.42607	0.92217	0.164
Mof_H 	H 	0.38273	0.45897	0.60857	0.025
Mof_H 	H 	0.59283	0.54877	0.54237	0.041
Mof_H 	H 	0.58773	0.67757	0.88107	0.037
Mof_H 	H 	0.56933	0.59587	0.42937	0.04
Mof_H 	H 	0.38653	0.52157	0.30837	0.019
Mof_H 	H 	0.34263	0.34557	0.03657	0.041
Mof_Au	Au	0.14963	0.31654	0.20916	-0.036
Mof_Au	Au	0.12524	0.30082	0.39041	-0.044
Mof_Au	Au	0.18334	0.30307	0.34168	-0.035
Mof_Ag	Ag	0.12553	0.25725	0.2797	0.548
Mof_P 	P 	0.13235	0.29614	0.0766	0.081
Mof_P 	P 	0.08029	0.26434	0.4442	0.08
Mof_P 	P 	0.19784	0.26792	0.3509	0.082
Mof_N 	N 	0.0909	0.2475	0.1636	-0.148
Mof_N 	N 	0.0978	0.2245	0.3965	-0.15
Mof_N 	N 	0.1566	0.2386	0.2282	-0.15
Mof_C 	C 	0.1567	0.2842	0.0285	-0.023
Mof_C 	C 	0.1279	0.3223	0.0083	-0.014
Mof_C 	C 	0.0949	0.2611	0.0868	-0.06
Mof_C 	C 	0.0491	0.257	0.3722	-0.017
Mof_C 	C 	0.0743	0.2756	0.5497	-0.014
Mof_C 	C 	0.0795	0.2278	0.4549	-0.061
Mof_C 	C 	0.1818	0.2446	0.4456	-0.025
Mof_C 	C 	0.2389	0.2864	0.352	-0.012
Mof_C 	C 	0.183	0.2419	0.2585	-0.057
Mof_C 	C 	0.0645	0.223	0.1772	-0.021
Mof_C 	C 	0.1008	0.2006	0.3988	-0.011
Mof_C 	C 	0.1446	0.222	0.1595	-0.019
Mof_C 	C 	0.1466	0.2604	0.9708	-0.055
Mof_C 	C 	0.1871	0.2992	0.0505	-0.056
Mof_C 	C 	0.1466	0.3362	0.941	-0.067
Mof_C 	C 	0.105	0.3283	0.028	-0.07
Mof_C 	C 	0.0727	0.2497	0.0217	0.178
Mof_C 	C 	0.0521	0.2799	0.3187	-0.061
Mof_C 	C 	0.0236	0.2287	0.3636	-0.062
Mof_C 	C 	0.0531	0.2842	0.5644	-0.067
Mof_C 	C 	0.0932	0.2782	0.6167	-0.076
Mof_C 	C 	0.0633	0.2051	0.5148	0.167
Mof_C 	C 	0.176	0.2578	0.5191	-0.053
Mof_C 	C 	0.1734	0.2145	0.4496	-0.054
Mof_C 	C 	0.2528	0.2896	0.435	-0.074
Mof_C 	C 	0.2545	0.2993	0.276	-0.07
Mof_C 	C 	0.1964	0.2269	0.217	0.161
Mof_H 	H 	0.061	0.212	0.23	0.014
Mof_C 	C 	0.0421	0.2131	0.1165	0.024
Mof_H 	H 	0.1127	0.1979	0.3563	0.009
Mof_C 	C 	0.0868	0.1796	0.4625	0.01
Mof_H 	H 	0.1258	0.2189	0.1383	0.012
Mof_C 	C 	0.159	0.2087	0.1169	0.027
Mof_H 	H 	0.1261	0.2505	0.9525	0.028
Mof_C 	C 	0.1655	0.2507	0.9392	-0.034
Mof_C 	C 	0.2065	0.2894	0.0191	-0.031
Mof_H 	H 	0.1949	0.3163	0.0875	0.044
Mof_H 	H 	0.1619	0.3315	0.9272	0.047
Mof_C 	C 	0.1436	0.3577	0.8909	-0.029
Mof_C 	C 	0.1005	0.3483	0.978	-0.03
Mof_H 	H 	0.0923	0.3187	0.0765	0.045
Mof_C 	C 	0.0759	0.2614	0.9333	-0.524
Mof_N 	N 	0.0461	0.2251	0.04	-0.214
Mof_H 	H 	0.0699	0.2989	0.3225	0.045
Mof_C 	C 	0.0307	0.2762	0.261	-0.023
Mof_C 	C 	0.0025	0.2247	0.3042	-0.021
Mof_H 	H 	0.021	0.2124	0.3991	0.039
Mof_H 	H 	0.0393	0.2817	0.5195	0.05
Mof_C 	C 	0.0514	0.2962	0.6433	-0.027
Mof_C 	C 	0.0911	0.2882	0.6946	-0.021
Mof_H 	H 	0.1081	0.2726	0.6072	0.044
Mof_C 	C 	0.0408	0.2051	0.5765	-0.504
Mof_N 	N 	0.0681	0.1815	0.5188	-0.195
Mof_H 	H 	0.1812	0.2785	0.5176	0.041
Mof_C 	C 	0.163	0.241	0.5918	-0.037
Mof_C 	C 	0.1595	0.1974	0.5234	-0.039
Mof_H 	H 	0.1772	0.2053	0.4013	0.025
Mof_H 	H 	0.2417	0.2804	0.4862	0.053
Mof_C 	C 	0.2844	0.3078	0.434	-0.014
Mof_C 	C 	0.2867	0.3161	0.277	-0.031
Mof_H 	H 	0.2438	0.297	0.223	0.044
Mof_C 	C 	0.2235	0.2261	0.251	-0.493
Mof_N 	N 	0.1838	0.2116	0.1443	-0.214
Mof_H 	H 	0.0228	0.1967	0.1308	-0.01
Mof_H 	H 	0.0905	0.1632	0.4667	-0.011
Mof_H 	H 	0.1501	0.1972	0.0659	-0.017
Mof_H 	H 	0.1577	0.234	0.9002	0.019
Mof_C 	C 	0.195	0.2644	0.963	-0.05
Mof_H 	H 	0.2272	0.2995	0.0355	0.034
Mof_H 	H 	0.1574	0.3682	0.845	0.035
Mof_C 	C 	0.1203	0.3632	0.9097	-0.054
Mof_H 	H 	0.0842	0.3517	0.9899	0.031
Mof_H 	H 	0.057	0.2493	0.9015	0.128
Mof_H 	H 	0.0923	0.2603	0.9036	0.16
Mof_H 	H 	0.0806	0.2824	0.9353	0.174
Mof_Ag	Ag	0.01213	0.20357	0.93908	0.449
Mof_H 	H 	0.0329	0.2926	0.2264	0.033
Mof_C 	C 	0.0048	0.2472	0.2542	-0.058
Mof_H 	H 	0.9854	0.2052	0.2976	0.027
Mof_H 	H 	0.0373	0.3028	0.6526	0.033
Mof_C 	C 	0.0711	0.2982	0.7081	-0.065
Mof_H 	H 	0.1035	0.2884	0.7409	0.022
Mof_H 	H 	0.0323	0.1869	0.6123	0.13
Mof_H 	H 	0.0246	0.2056	0.5438	0.161
Mof_H 	H 	0.0508	0.223	0.614	0.158
Mof_Ag	Ag	0.04922	0.14687	0.62631	0.301
Mof_H 	H 	0.1597	0.2499	0.6417	0.034
Mof_C 	C 	0.1546	0.2102	0.5917	-0.044
Mof_H 	H 	0.1536	0.1766	0.5248	0.015
Mof_H 	H 	0.2949	0.3118	0.4877	0.026
Mof_C 	C 	0.2998	0.3192	0.365	-0.062
Mof_H 	H 	0.2987	0.3247	0.2264	0.031
Mof_H 	H 	0.2286	0.2143	0.2113	0.127
Mof_H 	H 	0.2189	0.2166	0.3086	0.154
Mof_H 	H 	0.2406	0.2468	0.2555	0.165
Mof_H 	H 	0.2077	0.2571	0.9419	0.025
Mof_H 	H 	0.1179	0.3774	0.8757	0.041
Mof_H 	H 	0.9891	0.2435	0.2144	0.037
Mof_H 	H 	0.0708	0.3068	0.7627	0.04
Mof_H 	H 	0.1451	0.1983	0.6417	0.019
Mof_H 	H 	0.3211	0.3304	0.3699	0.041
Mof_Au	Au	0.8163	0.64988	0.54249	-0.036
Mof_Au	Au	0.7919	0.63415	0.72374	-0.044
Mof_Au	Au	0.85001	0.6364	0.67501	-0.035
Mof_Ag	Ag	0.7922	0.59058	0.61303	0.548
Mof_P 	P 	0.79902	0.62947	0.40993	0.082
Mof_P 	P 	0.74696	0.59767	0.77753	0.08
Mof_P 	P 	0.86451	0.60125	0.68423	0.082
Mof_N 	N 	0.75757	0.58083	0.49693	-0.148
Mof_N 	N 	0.76447	0.55783	0.72983	-0.15
Mof_N 	N 	0.82327	0.57193	0.56153	-0.15
Mof_C 	C 	0.82337	0.61753	0.36183	-0.025
Mof_C 	C 	0.79457	0.65563	0.34163	-0.014
Mof_C 	C 	0.76157	0.59443	0.42013	-0.06
Mof_C 	C 	0.71577	0.59033	0.70553	-0.017
Mof_C 	C 	0.74097	0.60893	0.88303	-0.014
Mof_C 	C 	0.74617	0.56113	0.78823	-0.061
Mof_C 	C 	0.84847	0.57793	0.77893	-0.025
Mof_C 	C 	0.90557	0.61973	0.68533	-0.012
Mof_C 	C 	0.84967	0.57523	0.59183	-0.057
Mof_C 	C 	0.73117	0.55633	0.51053	-0.021
Mof_C 	C 	0.76747	0.53393	0.73213	-0.011
Mof_C 	C 	0.81127	0.55533	0.49283	-0.019
Mof_C 	C 	0.81327	0.59373	0.30413	-0.053
Mof_C 	C 	0.85377	0.63253	0.38383	-0.054
Mof_C 	C 	0.81327	0.66953	0.27433	-0.066
Mof_C 	C 	0.77167	0.66163	0.36133	-0.071
Mof_C 	C 	0.73937	0.58303	0.35503	0.177
Mof_C 	C 	0.71877	0.61323	0.65203	-0.061
Mof_C 	C 	0.69027	0.56203	0.69693	-0.062
Mof_C 	C 	0.71977	0.61753	0.89773	-0.067
Mof_C 	C 	0.75987	0.61153	0.95003	-0.076
Mof_C 	C 	0.72997	0.53843	0.84813	0.167
Mof_C 	C 	0.84267	0.59113	0.85243	-0.053
Mof_C 	C 	0.84007	0.54783	0.78293	-0.054
Mof_C 	C 	0.91947	0.62293	0.76833	-0.074
Mof_C 	C 	0.92117	0.63263	0.60933	-0.07
Mof_C 	C 	0.86307	0.56023	0.55033	0.161
Mof_H 	H 	0.72767	0.54533	0.56333	0.014
Mof_C 	C 	0.70877	0.54643	0.44983	0.024
Mof_H 	H 	0.77937	0.53123	0.68963	0.009
Mof_C 	C 	0.75347	0.51293	0.79583	0.01
Mof_H 	H 	0.79247	0.55223	0.47163	0.012
Mof_C 	C 	0.82567	0.54203	0.45023	0.027
Mof_H 	H 	0.79277	0.58383	0.28583	0.027
Mof_C 	C 	0.83217	0.58403	0.27253	-0.036
Mof_C 	C 	0.87317	0.62273	0.35243	-0.033
Mof_H 	H 	0.86157	0.64963	0.42083	0.043
Mof_H 	H 	0.82857	0.66483	0.26053	0.047
Mof_C 	C 	0.81027	0.69103	0.22423	-0.029
Mof_C 	C 	0.76717	0.68163	0.31133	-0.028
Mof_H 	H 	0.75897	0.65203	0.40983	0.045
Mof_C 	C 	0.74257	0.59473	0.26663	-0.522
Mof_N 	N 	0.71277	0.55843	0.37333	-0.214
Mof_H 	H 	0.73657	0.63223	0.65583	0.045
Mof_C 	C 	0.69737	0.60953	0.59433	-0.023
Mof_C 	C 	0.66917	0.55803	0.63753	-0.021
Mof_H 	H 	0.68767	0.54573	0.73243	0.039
Mof_H 	H 	0.70597	0.61503	0.85283	0.05
Mof_C 	C 	0.71807	0.62953	0.97663	-0.028
Mof_C 	C 	0.75777	0.62153	0.02793	-0.02
Mof_H 	H 	0.77477	0.60593	0.94053	0.045
Mof_C 	C 	0.70747	0.53843	0.90983	-0.504
Mof_N 	N 	0.73477	0.51483	0.85213	-0.195
Mof_H 	H 	0.84787	0.61183	0.85093	0.041
Mof_C 	C 	0.82967	0.57433	0.92513	-0.037
Mof_C 	C 	0.82617	0.53073	0.85673	-0.039
Mof_H 	H 	0.84387	0.53863	0.73463	0.025
Mof_H 	H 	0.90837	0.61373	0.81953	0.053
Mof_C 	C 	0.95107	0.64113	0.76733	-0.014
Mof_C 	C 	0.95337	0.64943	0.61033	-0.031
Mof_H 	H 	0.91047	0.63033	0.55633	0.043
Mof_C 	C 	0.89017	0.55943	0.58433	-0.493
Mof_N 	N 	0.85047	0.54493	0.47763	-0.214
Mof_H 	H 	0.68947	0.53003	0.46413	-0.01
Mof_H 	H 	0.75717	0.49653	0.80003	-0.011
Mof_H 	H 	0.81677	0.53053	0.39923	-0.018
Mof_H 	H 	0.82437	0.56733	0.23353	0.02
Mof_C 	C 	0.86167	0.59773	0.29633	-0.048
Mof_H 	H 	0.89387	0.63283	0.36883	0.034
Mof_H 	H 	0.82407	0.70153	0.17833	0.035
Mof_C 	C 	0.78697	0.69653	0.24303	-0.054
Mof_H 	H 	0.75087	0.68503	0.32323	0.031
Mof_H 	H 	0.72367	0.58263	0.23483	0.127
Mof_H 	H 	0.75897	0.59363	0.23693	0.16
Mof_H 	H 	0.74727	0.61573	0.26863	0.174
Mof_Ag	Ag	0.6788	0.5369	0.27241	0.45
Mof_H 	H 	0.69957	0.62593	0.55973	0.033
Mof_C 	C 	0.67147	0.58053	0.58753	-0.058
Mof_H 	H 	0.65207	0.53853	0.63093	0.027
Mof_H 	H 	0.70397	0.63613	0.98593	0.033
Mof_C 	C 	0.73777	0.63153	0.04143	-0.064
Mof_H 	H 	0.77017	0.62173	0.07423	0.022
Mof_H 	H 	0.69897	0.52023	0.94563	0.13
Mof_H 	H 	0.69127	0.53893	0.87713	0.161
Mof_H 	H 	0.71747	0.55633	0.94733	0.157
Mof_Ag	Ag	0.71589	0.4802	0.95964	0.301
Mof_H 	H 	0.82637	0.58323	0.97503	0.034
Mof_C 	C 	0.82127	0.54353	0.92503	-0.044
Mof_H 	H 	0.82027	0.50993	0.85813	0.015
Mof_H 	H 	0.96157	0.64513	0.82103	0.026
Mof_C 	C 	0.96647	0.65253	0.69833	-0.062
Mof_H 	H 	0.96537	0.65803	0.55973	0.031
Mof_H 	H 	0.89527	0.54763	0.54463	0.127
Mof_H 	H 	0.88557	0.54993	0.64193	0.154
Mof_H 	H 	0.90727	0.58013	0.58883	0.165
Mof_H 	H 	0.87437	0.59043	0.27523	0.025
Mof_H 	H 	0.78457	0.71073	0.20903	0.041
Mof_H 	H 	0.65577	0.57683	0.54773	0.037
Mof_H 	H 	0.73747	0.64013	0.09603	0.04
Mof_H 	H 	0.81177	0.53163	0.97503	0.019
Mof_H 	H 	0.98777	0.66373	0.70323	0.041
Mof_Au	Au	0.48297	0.98321	0.87583	-0.037
Mof_Au	Au	0.45857	0.96749	0.05708	-0.043
Mof_Au	Au	0.51668	0.96973	0.00835	-0.034
Mof_Ag	Ag	0.45886	0.92392	0.94637	0.546
Mof_P 	P 	0.46568	0.96281	0.74327	0.082
Mof_P 	P 	0.41362	0.93101	0.11087	0.08
Mof_P 	P 	0.53117	0.93459	0.01757	0.083
Mof_N 	N 	0.42423	0.91417	0.83027	-0.148
Mof_N 	N 	0.43113	0.89117	0.06317	-0.15
Mof_N 	N 	0.48993	0.90527	0.89487	-0.15
Mof_C 	C 	0.49003	0.95087	0.69517	-0.025
Mof_C 	C 	0.46123	0.98897	0.67497	-0.014
Mof_C 	C 	0.42823	0.92777	0.75347	-0.06
Mof_C 	C 	0.38243	0.92367	0.03887	-0.017
Mof_C 	C 	0.40763	0.94227	0.21637	-0.014
Mof_C 	C 	0.41283	0.89447	0.12157	-0.061
Mof_C 	C 	0.51513	0.91127	0.11227	-0.025
Mof_C 	C 	0.57223	0.95307	0.01867	-0.011
Mof_C 	C 	0.51633	0.90857	0.92517	-0.057
Mof_C 	C 	0.39783	0.88967	0.84387	-0.021
Mof_C 	C 	0.43413	0.86727	0.06547	-0.011
Mof_C 	C 	0.47793	0.88867	0.82617	-0.019
Mof_C 	C 	0.47993	0.92707	0.63747	-0.053
Mof_C 	C 	0.52043	0.96587	0.71717	-0.054
Mof_C 	C 	0.47993	0.00287	0.60767	-0.066
Mof_C 	C 	0.43833	0.99497	0.69467	-0.071
Mof_C 	C 	0.40603	0.91637	0.68837	0.177
Mof_C 	C 	0.38543	0.94657	0.98537	-0.062
Mof_C 	C 	0.35693	0.89537	0.03027	-0.06
Mof_C 	C 	0.38643	0.95087	0.23107	-0.067
Mof_C 	C 	0.42653	0.94487	0.28337	-0.076
Mof_C 	C 	0.39663	0.87177	0.18147	0.167
Mof_C 	C 	0.50933	0.92447	0.18577	-0.053
Mof_C 	C 	0.50673	0.88117	0.11627	-0.054
Mof_C 	C 	0.58613	0.95627	0.10167	-0.074
Mof_C 	C 	0.58783	0.96597	0.94267	-0.071
Mof_C 	C 	0.52973	0.89357	0.88367	0.161
Mof_H 	H 	0.39433	0.87867	0.89667	0.014
Mof_C 	C 	0.37543	0.87977	0.78317	0.024
Mof_H 	H 	0.44603	0.86457	0.02297	0.009
Mof_C 	C 	0.42013	0.84627	0.12917	0.01
Mof_H 	H 	0.45913	0.88557	0.80497	0.012
Mof_C 	C 	0.49233	0.87537	0.78357	0.027
Mof_H 	H 	0.45943	0.91717	0.61917	0.027
Mof_C 	C 	0.49883	0.91737	0.60587	-0.036
Mof_C 	C 	0.53983	0.95607	0.68577	-0.033
Mof_H 	H 	0.52823	0.98297	0.75417	0.043
Mof_H 	H 	0.49523	0.99817	0.59387	0.047
Mof_C 	C 	0.47693	0.02437	0.55757	-0.029
Mof_C 	C 	0.43383	0.01497	0.64467	-0.028
Mof_H 	H 	0.42563	0.98537	0.74317	0.045
Mof_C 	C 	0.40923	0.92807	0.59997	-0.522
Mof_N 	N 	0.37943	0.89177	0.70667	-0.214
Mof_H 	H 	0.40323	0.96557	0.98917	0.045
Mof_C 	C 	0.36403	0.94287	0.92767	-0.023
Mof_C 	C 	0.33583	0.89137	0.97087	-0.022
Mof_H 	H 	0.35433	0.87907	0.06577	0.038
Mof_H 	H 	0.37263	0.94837	0.18617	0.05
Mof_C 	C 	0.38473	0.96287	0.30997	-0.027
Mof_C 	C 	0.42443	0.95487	0.36127	-0.021
Mof_H 	H 	0.44143	0.93927	0.27387	0.044
Mof_C 	C 	0.37413	0.87177	0.24317	-0.504
Mof_N 	N 	0.40143	0.84817	0.18547	-0.195
Mof_H 	H 	0.51453	0.94517	0.18427	0.041
Mof_C 	C 	0.49633	0.90767	0.25847	-0.037
Mof_C 	C 	0.49283	0.86407	0.19007	-0.039
Mof_H 	H 	0.51053	0.87197	0.06797	0.026
Mof_H 	H 	0.57503	0.94707	0.15287	0.053
Mof_C 	C 	0.61773	0.97447	0.10067	-0.014
Mof_C 	C 	0.62003	0.98277	0.94367	-0.032
Mof_H 	H 	0.57713	0.96367	0.88967	0.044
Mof_C 	C 	0.55683	0.89277	0.91767	-0.492
Mof_N 	N 	0.51713	0.87827	0.81097	-0.214
Mof_H 	H 	0.35613	0.86337	0.79747	-0.01
Mof_H 	H 	0.42383	0.82987	0.13337	-0.011
Mof_H 	H 	0.48343	0.86387	0.73257	-0.018
Mof_H 	H 	0.49103	0.90067	0.56687	0.02
Mof_C 	C 	0.52833	0.93107	0.62967	-0.048
Mof_H 	H 	0.56053	0.96617	0.70217	0.034
Mof_H 	H 	0.49073	0.03487	0.51167	0.035
Mof_C 	C 	0.45363	0.02987	0.57637	-0.054
Mof_H 	H 	0.41753	0.01837	0.65657	0.031
Mof_H 	H 	0.39033	0.91597	0.56817	0.127
Mof_H 	H 	0.42563	0.92697	0.57027	0.16
Mof_H 	H 	0.41393	0.94907	0.60197	0.174
Mof_Ag	Ag	0.34546	0.87024	0.60575	0.45
Mof_H 	H 	0.36623	0.95927	0.89307	0.033
Mof_C 	C 	0.33813	0.91387	0.92087	-0.057
Mof_H 	H 	0.31873	0.87187	0.96427	0.028
Mof_H 	H 	0.37063	0.96947	0.31927	0.033
Mof_C 	C 	0.40443	0.96487	0.37477	-0.065
Mof_H 	H 	0.43683	0.95507	0.40757	0.022
Mof_H 	H 	0.36563	0.85357	0.27897	0.13
Mof_H 	H 	0.35793	0.87227	0.21047	0.161
Mof_H 	H 	0.38413	0.88967	0.28067	0.158
Mof_Ag	Ag	0.38255	0.81354	0.29298	0.302
Mof_H 	H 	0.49303	0.91657	0.30837	0.034
Mof_C 	C 	0.48793	0.87687	0.25837	-0.044
Mof_H 	H 	0.48693	0.84327	0.19147	0.015
Mof_H 	H 	0.62823	0.97847	0.15437	0.026
Mof_C 	C 	0.63313	0.98587	0.03167	-0.061
Mof_H 	H 	0.63203	0.99137	0.89307	0.031
Mof_H 	H 	0.56193	0.88097	0.87797	0.126
Mof_H 	H 	0.55223	0.88327	0.97527	0.153
Mof_H 	H 	0.57393	0.91347	0.92217	0.164
Mof_H 	H 	0.54103	0.92377	0.60857	0.025
Mof_H 	H 	0.45123	0.04407	0.54237	0.041
Mof_H 	H 	0.32243	0.91017	0.88107	0.037
Mof_H 	H 	0.40413	0.97347	0.42937	0.04
Mof_H 	H 	0.47843	0.86497	0.30837	0.019
Mof_H 	H 	0.65443	0.99707	0.03657	0.041
Mof_Au	Au	0.68346	0.83309	0.20916	-0.036
Mof_Au	Au	0.69918	0.82442	0.39041	-0.044
Mof_Au	Au	0.69693	0.88028	0.34168	-0.035
Mof_Ag	Ag	0.74275	0.86828	0.2797	0.548
Mof_P 	P 	0.70386	0.83621	0.0766	0.081
Mof_P 	P 	0.73566	0.81595	0.4442	0.08
Mof_P 	P 	0.73208	0.92992	0.3509	0.082
Mof_N 	N 	0.7525	0.8434	0.1636	-0.148
Mof_N 	N 	0.7755	0.8733	0.3965	-0.15
Mof_N 	N 	0.7614	0.918	0.2282	-0.15
Mof_C 	C 	0.7158	0.8725	0.0285	-0.023
Mof_C 	C 	0.6777	0.8056	0.0083	-0.014
Mof_C 	C 	0.7389	0.8338	0.0868	-0.06
Mof_C 	C 	0.743	0.7921	0.3722	-0.017
Mof_C 	C 	0.7244	0.7987	0.5497	-0.014
Mof_C 	C 	0.7722	0.8517	0.4549	-0.061
Mof_C 	C 	0.7554	0.9372	0.4456	-0.025
Mof_C 	C 	0.7136	0.9525	0.352	-0.012
Mof_C 	C 	0.7581	0.9411	0.2585	-0.057
Mof_C 	C 	0.777	0.8415	0.1772	-0.021
Mof_C 	C 	0.7994	0.9002	0.3988	-0.011
Mof_C 	C 	0.778	0.9226	0.1595	-0.019
Mof_C 	C 	0.7396	0.8862	0.9708	-0.055
Mof_C 	C 	0.7008	0.8879	0.0505	-0.056
Mof_C 	C 	0.6638	0.8104	0.941	-0.067
Mof_C 	C 	0.6717	0.7767	0.028	-0.07
Mof_C 	C 	0.7503	0.823	0.0217	0.178
Mof_C 	C 	0.7201	0.7722	0.3187	-0.061
Mof_C 	C 	0.7713	0.7949	0.3636	-0.062
Mof_C 	C 	0.7158	0.7689	0.5644	-0.067
Mof_C 	C 	0.7218	0.815	0.6167	-0.076
Mof_C 	C 	0.7949	0.8582	0.5148	0.167
Mof_C 	C 	0.7422	0.9182	0.5191	-0.053
Mof_C 	C 	0.7855	0.9589	0.4496	-0.054
Mof_C 	C 	0.7104	0.9632	0.435	-0.074
Mof_C 	C 	0.7007	0.9552	0.276	-0.07
Mof_C 	C 	0.7731	0.9695	0.217	0.161
Mof_H 	H 	0.788	0.849	0.23	0.014
Mof_C 	C 	0.7869	0.829	0.1165	0.024
Mof_H 	H 	0.8021	0.9148	0.3563	0.009
Mof_C 	C 	0.8204	0.9072	0.4625	0.01
Mof_H 	H 	0.7811	0.9069	0.1383	0.012
Mof_C 	C 	0.7913	0.9503	0.1169	0.027
Mof_H 	H 	0.7495	0.8756	0.9525	0.028
Mof_C 	C 	0.7493	0.9148	0.9392	-0.034
Mof_C 	C 	0.7106	0.9171	0.0191	-0.031
Mof_H 	H 	0.6837	0.8786	0.0875	0.044
Mof_H 	H 	0.6685	0.8304	0.9272	0.047
Mof_C 	C 	0.6423	0.7859	0.8909	-0.029
Mof_C 	C 	0.6517	0.7522	0.978	-0.03
Mof_H 	H 	0.6813	0.7736	0.0765	0.045
Mof_C 	C 	0.7386	0.8145	0.9333	-0.524
Mof_N 	N 	0.7749	0.821	0.04	-0.214
Mof_H 	H 	0.7011	0.771	0.3225	0.045
Mof_C 	C 	0.7238	0.7545	0.261	-0.023
Mof_C 	C 	0.7753	0.7778	0.3042	-0.021
Mof_H 	H 	0.7876	0.8086	0.3991	0.039
Mof_H 	H 	0.7183	0.7576	0.5195	0.05
Mof_C 	C 	0.7038	0.7552	0.6433	-0.027
Mof_C 	C 	0.7118	0.8029	0.6946	-0.021
Mof_H 	H 	0.7274	0.8355	0.6072	0.044
Mof_C 	C 	0.7949	0.8357	0.5765	-0.504
Mof_N 	N 	0.8185	0.8866	0.5188	-0.195
Mof_H 	H 	0.7215	0.9027	0.5176	0.041
Mof_C 	C 	0.759	0.922	0.5918	-0.037
Mof_C 	C 	0.8026	0.9621	0.5234	-0.04
Mof_H 	H 	0.7947	0.9719	0.4013	0.025
Mof_H 	H 	0.7196	0.9613	0.4862	0.053
Mof_C 	C 	0.6922	0.9766	0.434	-0.014
Mof_C 	C 	0.6839	0.9706	0.277	-0.031
Mof_H 	H 	0.703	0.9468	0.223	0.044
Mof_C 	C 	0.7739	0.9974	0.251	-0.493
Mof_N 	N 	0.7884	0.9722	0.1443	-0.214
Mof_H 	H 	0.8033	0.8261	0.1308	-0.01
Mof_H 	H 	0.8368	0.9273	0.4667	-0.011
Mof_H 	H 	0.8028	0.9529	0.0659	-0.017
Mof_H 	H 	0.766	0.9237	0.9002	0.019
Mof_C 	C 	0.7356	0.9306	0.963	-0.05
Mof_H 	H 	0.7005	0.9277	0.0355	0.034
Mof_H 	H 	0.6318	0.7892	0.845	0.035
Mof_C 	C 	0.6368	0.7571	0.9097	-0.054
Mof_H 	H 	0.6483	0.7325	0.9899	0.031
Mof_H 	H 	0.7507	0.8077	0.9015	0.128
Mof_H 	H 	0.7397	0.832	0.9036	0.16
Mof_H 	H 	0.7176	0.7982	0.9353	0.174
Mof_Ag	Ag	0.79643	0.80856	0.93908	0.449
Mof_H 	H 	0.7074	0.7403	0.2264	0.033
Mof_C 	C 	0.7528	0.7576	0.2542	-0.058
Mof_H 	H 	0.7948	0.7802	0.2976	0.027
Mof_H 	H 	0.6972	0.7345	0.6526	0.033
Mof_C 	C 	0.7018	0.7729	0.7081	-0.065
Mof_H 	H 	0.7116	0.8151	0.7409	0.022
Mof_H 	H 	0.8131	0.8454	0.6123	0.13
Mof_H 	H 	0.7944	0.819	0.5438	0.161
Mof_H 	H 	0.777	0.8278	0.614	0.158
Mof_Ag	Ag	0.85313	0.90235	0.62631	0.301
Mof_H 	H 	0.7501	0.9098	0.6417	0.034
Mof_C 	C 	0.7898	0.9444	0.5917	-0.044
Mof_H 	H 	0.8234	0.977	0.5248	0.015
Mof_H 	H 	0.6882	0.9831	0.4877	0.026
Mof_C 	C 	0.6808	0.9806	0.365	-0.062
Mof_H 	H 	0.6753	0.974	0.2264	0.031
Mof_H 	H 	0.7857	0.0143	0.2113	0.127
Mof_H 	H 	0.7834	0.0023	0.3086	0.154
Mof_H 	H 	0.7532	0.9938	0.2555	0.165
Mof_H 	H 	0.7429	0.9506	0.9419	0.025
Mof_H 	H 	0.6226	0.7405	0.8757	0.041
Mof_H 	H 	0.7565	0.7456	0.2144	0.038
Mof_H 	H 	0.6932	0.764	0.7627	0.04
Mof_H 	H 	0.8017	0.9468	0.6417	0.019
Mof_H 	H 	0.6696	0.9907	0.3699	0.041
Mof_Au	Au	0.35012	0.16642	0.54249	-0.036
Mof_Au	Au	0.36585	0.15775	0.72374	-0.044
Mof_Au	Au	0.3636	0.21361	0.67501	-0.035
Mof_Ag	Ag	0.40942	0.20161	0.61303	0.548
Mof_P 	P 	0.37053	0.16954	0.40993	0.082
Mof_P 	P 	0.40233	0.14928	0.77753	0.08
Mof_P 	P 	0.39875	0.26325	0.68423	0.082
Mof_N 	N 	0.41917	0.17673	0.49693	-0.148
Mof_N 	N 	0.44217	0.20663	0.72983	-0.15
Mof_N 	N 	0.42807	0.25133	0.56153	-0.15
Mof_C 	C 	0.38247	0.20583	0.36183	-0.025
Mof_C 	C 	0.34437	0.13893	0.34163	-0.014
Mof_C 	C 	0.40557	0.16713	0.42013	-0.06
Mof_C 	C 	0.40967	0.12543	0.70553	-0.017
Mof_C 	C 	0.39107	0.13203	0.88303	-0.014
Mof_C 	C 	0.43887	0.18503	0.78823	-0.061
Mof_C 	C 	0.42207	0.27053	0.77893	-0.025
Mof_C 	C 	0.38027	0.28583	0.68533	-0.012
Mof_C 	C 	0.42477	0.27443	0.59183	-0.057
Mof_C 	C 	0.44367	0.17483	0.51053	-0.021
Mof_C 	C 	0.46607	0.23353	0.73213	-0.011
Mof_C 	C 	0.44467	0.25593	0.49283	-0.019
Mof_C 	C 	0.40627	0.21953	0.30413	-0.053
Mof_C 	C 	0.36747	0.22123	0.38383	-0.054
Mof_C 	C 	0.33047	0.14373	0.27433	-0.066
Mof_C 	C 	0.33837	0.11003	0.36133	-0.071
Mof_C 	C 	0.41697	0.15633	0.35503	0.177
Mof_C 	C 	0.38677	0.10553	0.65203	-0.061
Mof_C 	C 	0.43797	0.12823	0.69693	-0.062
Mof_C 	C 	0.38247	0.10223	0.89773	-0.067
Mof_C 	C 	0.38847	0.14833	0.95003	-0.076
Mof_C 	C 	0.46157	0.19153	0.84813	0.167
Mof_C 	C 	0.40887	0.25153	0.85243	-0.053
Mof_C 	C 	0.45217	0.29223	0.78293	-0.054
Mof_C 	C 	0.37707	0.29653	0.76833	-0.074
Mof_C 	C 	0.36737	0.28853	0.60933	-0.07
Mof_C 	C 	0.43977	0.30283	0.55033	0.161
Mof_H 	H 	0.45467	0.18233	0.56333	0.014
Mof_C 	C 	0.45357	0.16233	0.44983	0.024
Mof_H 	H 	0.46877	0.24813	0.68963	0.009
Mof_C 	C 	0.48707	0.24053	0.79583	0.01
Mof_H 	H 	0.44777	0.24023	0.47163	0.012
Mof_C 	C 	0.45797	0.28363	0.45023	0.027
Mof_H 	H 	0.41617	0.20893	0.28583	0.027
Mof_C 	C 	0.41597	0.24813	0.27253	-0.036
Mof_C 	C 	0.37727	0.25043	0.35243	-0.033
Mof_H 	H 	0.35037	0.21193	0.42083	0.043
Mof_H 	H 	0.33517	0.16373	0.26053	0.047
Mof_C 	C 	0.30897	0.11923	0.22423	-0.029
Mof_C 	C 	0.31837	0.08553	0.31133	-0.028
Mof_H 	H 	0.34797	0.10693	0.40983	0.045
Mof_C 	C 	0.40527	0.14783	0.26663	-0.522
Mof_N 	N 	0.44157	0.15433	0.37333	-0.214
Mof_H 	H 	0.36777	0.10433	0.65583	0.045
Mof_C 	C 	0.39047	0.08783	0.59433	-0.023
Mof_C 	C 	0.44197	0.11113	0.63753	-0.021
Mof_H 	H 	0.45427	0.14193	0.73243	0.039
Mof_H 	H 	0.38497	0.09093	0.85283	0.05
Mof_C 	C 	0.37047	0.08853	0.97663	-0.028
Mof_C 	C 	0.37847	0.13623	0.02793	-0.02
Mof_H 	H 	0.39407	0.16883	0.94053	0.045
Mof_C 	C 	0.46157	0.16903	0.90983	-0.504
Mof_N 	N 	0.48517	0.21993	0.85213	-0.195
Mof_H 	H 	0.38817	0.23603	0.85093	0.041
Mof_C 	C 	0.42567	0.25533	0.92513	-0.037
Mof_C 	C 	0.46927	0.29543	0.85673	-0.039
Mof_H 	H 	0.46137	0.30523	0.73463	0.025
Mof_H 	H 	0.38627	0.29463	0.81953	0.053
Mof_C 	C 	0.35887	0.30993	0.76733	-0.014
Mof_C 	C 	0.35057	0.30393	0.61033	-0.031
Mof_H 	H 	0.36967	0.28013	0.55633	0.043
Mof_C 	C 	0.44057	0.33073	0.58433	-0.493
Mof_N 	N 	0.45507	0.30553	0.47763	-0.214
Mof_H 	H 	0.46997	0.15943	0.46413	-0.01
Mof_H 	H 	0.50347	0.26063	0.80003	-0.011
Mof_H 	H 	0.46947	0.28623	0.39923	-0.018
Mof_H 	H 	0.43267	0.25703	0.23353	0.02
Mof_C 	C 	0.40227	0.26393	0.29633	-0.048
Mof_H 	H 	0.36717	0.26103	0.36883	0.034
Mof_H 	H 	0.29847	0.12253	0.17833	0.035
Mof_C 	C 	0.30347	0.09043	0.24303	-0.054
Mof_H 	H 	0.31497	0.06583	0.32323	0.031
Mof_H 	H 	0.41737	0.14103	0.23483	0.127
Mof_H 	H 	0.40637	0.16533	0.23693	0.16
Mof_H 	H 	0.38427	0.13153	0.26863	0.174
Mof_Ag	Ag	0.4631	0.14189	0.27241	0.45
Mof_H 	H 	0.37407	0.07363	0.55973	0.033
Mof_C 	C 	0.41947	0.09093	0.58753	-0.058
Mof_H 	H 	0.46147	0.11353	0.63093	0.027
Mof_H 	H 	0.36387	0.06783	0.98593	0.033
Mof_C 	C 	0.36847	0.10623	0.04143	-0.064
Mof_H 	H 	0.37827	0.14843	0.07423	0.022
Mof_H 	H 	0.47977	0.17873	0.94563	0.13
Mof_H 	H 	0.46107	0.15233	0.87713	0.161
Mof_H 	H 	0.44367	0.16113	0.94733	0.157
Mof_Ag	Ag	0.5198	0.23568	0.95964	0.301
Mof_H 	H 	0.41677	0.24313	0.97503	0.034
Mof_C 	C 	0.45647	0.27773	0.92503	-0.044
Mof_H 	H 	0.49007	0.31033	0.85813	0.015
Mof_H 	H 	0.35487	0.31643	0.82103	0.026
Mof_C 	C 	0.34747	0.31393	0.69833	-0.062
Mof_H 	H 	0.34197	0.30733	0.55973	0.031
Mof_H 	H 	0.45237	0.34763	0.54463	0.127
Mof_H 	H 	0.45007	0.33563	0.64193	0.154
Mof_H 	H 	0.41987	0.32713	0.58883	0.165
Mof_H 	H 	0.40957	0.28393	0.27523	0.025
Mof_H 	H 	0.28927	0.07383	0.20903	0.041
Mof_H 	H 	0.42317	0.07893	0.54773	0.037
Mof_H 	H 	0.35987	0.09733	0.09603	0.04
Mof_H 	H 	0.46837	0.28013	0.97503	0.019
Mof_H 	H 	0.33627	0.32403	0.70323	0.041
Mof_Au	Au	0.01679	0.49975	0.87583	-0.036
Mof_Au	Au	0.03251	0.49108	0.05708	-0.043
Mof_Au	Au	0.03027	0.54694	0.00835	-0.034
Mof_Ag	Ag	0.07608	0.53495	0.94637	0.546
Mof_P 	P 	0.03719	0.50288	0.74327	0.082
Mof_P 	P 	0.06899	0.48262	0.11087	0.08
Mof_P 	P 	0.06541	0.59659	0.01757	0.083
Mof_N 	N 	0.08583	0.51007	0.83027	-0.148
Mof_N 	N 	0.10883	0.53997	0.06317	-0.15
Mof_N 	N 	0.09473	0.58467	0.89487	-0.15
Mof_C 	C 	0.04913	0.53917	0.69517	-0.024
Mof_C 	C 	0.01103	0.47227	0.67497	-0.014
Mof_C 	C 	0.07223	0.50047	0.75347	-0.06
Mof_C 	C 	0.07633	0.45877	0.03887	-0.017
Mof_C 	C 	0.05773	0.46537	0.21637	-0.014
Mof_C 	C 	0.10553	0.51837	0.12157	-0.061
Mof_C 	C 	0.08873	0.60387	0.11227	-0.025
Mof_C 	C 	0.04693	0.61917	0.01867	-0.011
Mof_C 	C 	0.09143	0.60777	0.92517	-0.057
Mof_C 	C 	0.11033	0.50817	0.84387	-0.021
Mof_C 	C 	0.13273	0.56687	0.06547	-0.011
Mof_C 	C 	0.11133	0.58927	0.82617	-0.019
Mof_C 	C 	0.07293	0.55287	0.63747	-0.053
Mof_C 	C 	0.03413	0.55457	0.71717	-0.054
Mof_C 	C 	0.99713	0.47707	0.60767	-0.066
Mof_C 	C 	0.00503	0.44337	0.69467	-0.071
Mof_C 	C 	0.08363	0.48967	0.68837	0.177
Mof_C 	C 	0.05343	0.43887	0.98537	-0.062
Mof_C 	C 	0.10463	0.46157	0.03027	-0.06
Mof_C 	C 	0.04913	0.43557	0.23107	-0.067
Mof_C 	C 	0.05513	0.48167	0.28337	-0.076
Mof_C 	C 	0.12823	0.52487	0.18147	0.167
Mof_C 	C 	0.07553	0.58487	0.18577	-0.053
Mof_C 	C 	0.11883	0.62557	0.11627	-0.054
Mof_C 	C 	0.04373	0.62987	0.10167	-0.074
Mof_C 	C 	0.03403	0.62187	0.94267	-0.071
Mof_C 	C 	0.10643	0.63617	0.88367	0.161
Mof_H 	H 	0.12133	0.51567	0.89667	0.014
Mof_C 	C 	0.12023	0.49567	0.78317	0.024
Mof_H 	H 	0.13543	0.58147	0.02297	0.009
Mof_C 	C 	0.15373	0.57387	0.12917	0.01
Mof_H 	H 	0.11443	0.57357	0.80497	0.012
Mof_C 	C 	0.12463	0.61697	0.78357	0.027
Mof_H 	H 	0.08283	0.54227	0.61917	0.027
Mof_C 	C 	0.08263	0.58147	0.60587	-0.036
Mof_C 	C 	0.04393	0.58377	0.68577	-0.033
Mof_H 	H 	0.01703	0.54527	0.75417	0.043
Mof_H 	H 	0.00183	0.49707	0.59387	0.047
Mof_C 	C 	0.97563	0.45257	0.55757	-0.029
Mof_C 	C 	0.98503	0.41887	0.64467	-0.028
Mof_H 	H 	0.01463	0.44027	0.74317	0.045
Mof_C 	C 	0.07193	0.48117	0.59997	-0.522
Mof_N 	N 	0.10823	0.48767	0.70667	-0.214
Mof_H 	H 	0.03443	0.43767	0.98917	0.045
Mof_C 	C 	0.05713	0.42117	0.92767	-0.023
Mof_C 	C 	0.10863	0.44447	0.97087	-0.022
Mof_H 	H 	0.12093	0.47527	0.06577	0.038
Mof_H 	H 	0.05163	0.42427	0.18617	0.05
Mof_C 	C 	0.03713	0.42187	0.30997	-0.027
Mof_C 	C 	0.04513	0.46957	0.36127	-0.021
Mof_H 	H 	0.06073	0.50217	0.27387	0.044
Mof_C 	C 	0.12823	0.50237	0.24317	-0.504
Mof_N 	N 	0.15183	0.55327	0.18547	-0.195
Mof_H 	H 	0.05483	0.56937	0.18427	0.041
Mof_C 	C 	0.09233	0.58867	0.25847	-0.037
Mof_C 	C 	0.13593	0.62877	0.19007	-0.039
Mof_H 	H 	0.12803	0.63857	0.06797	0.026
Mof_H 	H 	0.05293	0.62797	0.15287	0.053
Mof_C 	C 	0.02553	0.64327	0.10067	-0.014
Mof_C 	C 	0.01723	0.63727	0.94367	-0.032
Mof_H 	H 	0.03633	0.61347	0.88967	0.044
Mof_C 	C 	0.10723	0.66407	0.91767	-0.492
Mof_N 	N 	0.12173	0.63887	0.81097	-0.214
Mof_H 	H 	0.13663	0.49277	0.79747	-0.01
Mof_H 	H 	0.17013	0.59397	0.13337	-0.011
Mof_H 	H 	0.13613	0.61957	0.73257	-0.018
Mof_H 	H 	0.09933	0.59037	0.56687	0.02
Mof_C 	C 	0.06893	0.59727	0.62967	-0.048
Mof_H 	H 	0.03383	0.59437	0.70217	0.034
Mof_H 	H 	0.96513	0.45587	0.51167	0.035
Mof_C 	C 	0.97013	0.42377	0.57637	-0.054
Mof_H 	H 	0.98163	0.39917	0.65657	0.031
Mof_H 	H 	0.08403	0.47437	0.56817	0.127
Mof_H 	H 	0.07303	0.49867	0.57027	0.16
Mof_H 	H 	0.05093	0.46487	0.60197	0.174
Mof_Ag	Ag	0.12976	0.47523	0.60575	0.45
Mof_H 	H 	0.04073	0.40697	0.89307	0.033
Mof_C 	C 	0.08613	0.42427	0.92087	-0.057
Mof_H 	H 	0.12813	0.44687	0.96427	0.028
Mof_H 	H 	0.03053	0.40117	0.31927	0.033
Mof_C 	C 	0.03513	0.43957	0.37477	-0.065
Mof_H 	H 	0.04493	0.48177	0.40757	0.022
Mof_H 	H 	0.14643	0.51207	0.27897	0.13
Mof_H 	H 	0.12773	0.48567	0.21047	0.161
Mof_H 	H 	0.11033	0.49447	0.28067	0.158
Mof_Ag	Ag	0.18646	0.56902	0.29298	0.302
Mof_H 	H 	0.08343	0.57647	0.30837	0.034
Mof_C 	C 	0.12313	0.61107	0.25837	-0.044
Mof_H 	H 	0.15673	0.64367	0.19147	0.015
Mof_H 	H 	0.02153	0.64977	0.15437	0.026
Mof_C 	C 	0.01413	0.64727	0.03167	-0.061
Mof_H 	H 	0.00863	0.64067	0.89307	0.031
Mof_H 	H 	0.11903	0.68097	0.87797	0.126
Mof_H 	H 	0.11673	0.66897	0.97527	0.153
Mof_H 	H 	0.08653	0.66047	0.92217	0.164
Mof_H 	H 	0.07623	0.61727	0.60857	0.025
Mof_H 	H 	0.95593	0.40717	0.54237	0.041
Mof_H 	H 	0.08983	0.41227	0.88107	0.037
Mof_H 	H 	0.02653	0.43067	0.42937	0.04
Mof_H 	H 	0.13503	0.61347	0.30837	0.019
Mof_H 	H 	0.00293	0.65737	0.03657	0.041
Mof_Au	Au	0.83309	0.14963	0.79084	-0.036
Mof_Au	Au	0.82442	0.12524	0.60959	-0.044
Mof_Au	Au	0.88028	0.18334	0.65832	-0.035
Mof_Ag	Ag	0.86828	0.12553	0.7203	0.548
Mof_P 	P 	0.83621	0.13235	0.9234	0.082
Mof_P 	P 	0.81595	0.08029	0.5558	0.08
Mof_P 	P 	0.92992	0.19784	0.6491	0.082
Mof_N 	N 	0.8434	0.0909	0.8364	-0.148
Mof_N 	N 	0.8733	0.0978	0.6035	-0.15
Mof_N 	N 	0.918	0.1566	0.7718	-0.15
Mof_C 	C 	0.8725	0.1567	0.9715	-0.026
Mof_C 	C 	0.8056	0.1279	0.9917	-0.015
Mof_C 	C 	0.8338	0.0949	0.9132	-0.06
Mof_C 	C 	0.7921	0.0491	0.6278	-0.017
Mof_C 	C 	0.7987	0.0743	0.4503	-0.014
Mof_C 	C 	0.8517	0.0795	0.5451	-0.061
Mof_C 	C 	0.9372	0.1818	0.5544	-0.025
Mof_C 	C 	0.9525	0.2389	0.648	-0.012
Mof_C 	C 	0.9411	0.183	0.7415	-0.057
Mof_C 	C 	0.8415	0.0645	0.8228	-0.021
Mof_C 	C 	0.9002	0.1008	0.6012	-0.011
Mof_C 	C 	0.9226	0.1446	0.8405	-0.019
Mof_C 	C 	0.8862	0.1466	0.0292	-0.051
Mof_C 	C 	0.8879	0.1871	0.9495	-0.053
Mof_C 	C 	0.8104	0.1466	0.059	-0.065
Mof_C 	C 	0.7767	0.105	0.972	-0.072
Mof_C 	C 	0.823	0.0727	0.9783	0.177
Mof_C 	C 	0.7722	0.0521	0.6813	-0.061
Mof_C 	C 	0.7949	0.0236	0.6364	-0.062
Mof_C 	C 	0.7689	0.0531	0.4356	-0.067
Mof_C 	C 	0.815	0.0932	0.3833	-0.076
Mof_C 	C 	0.8582	0.0633	0.4852	0.167
Mof_C 	C 	0.9182	0.176	0.4809	-0.053
Mof_C 	C 	0.9589	0.1734	0.5504	-0.054
Mof_C 	C 	0.9632	0.2528	0.565	-0.074
Mof_C 	C 	0.9552	0.2545	0.724	-0.07
Mof_C 	C 	0.9695	0.1964	0.783	0.161
Mof_H 	H 	0.849	0.061	0.77	0.014
Mof_C 	C 	0.829	0.0421	0.8835	0.024
Mof_H 	H 	0.9148	0.1127	0.6437	0.008
Mof_C 	C 	0.9072	0.0868	0.5375	0.01
Mof_H 	H 	0.9069	0.1258	0.8617	0.012
Mof_C 	C 	0.9503	0.159	0.8831	0.027
Mof_H 	H 	0.8756	0.1261	0.0475	0.026
Mof_C 	C 	0.9148	0.1655	0.0608	-0.038
Mof_C 	C 	0.9171	0.2065	0.9809	-0.035
Mof_H 	H 	0.8786	0.1949	0.9125	0.043
Mof_H 	H 	0.8304	0.1619	0.0728	0.047
Mof_C 	C 	0.7859	0.1436	0.1091	-0.029
Mof_C 	C 	0.7522	0.1005	0.022	-0.028
Mof_H 	H 	0.7736	0.0923	0.9235	0.045
Mof_C 	C 	0.8145	0.0759	0.0667	-0.521
Mof_N 	N 	0.821	0.0461	0.96	-0.214
Mof_H 	H 	0.771	0.0699	0.6775	0.045
Mof_C 	C 	0.7545	0.0307	0.739	-0.023
Mof_C 	C 	0.7778	0.0025	0.6958	-0.021
Mof_H 	H 	0.8086	0.021	0.6009	0.039
Mof_H 	H 	0.7576	0.0393	0.4805	0.05
Mof_C 	C 	0.7552	0.0514	0.3567	-0.027
Mof_C 	C 	0.8029	0.0911	0.3054	-0.021
Mof_H 	H 	0.8355	0.1081	0.3928	0.044
Mof_C 	C 	0.8357	0.0408	0.4235	-0.504
Mof_N 	N 	0.8866	0.0681	0.4812	-0.195
Mof_H 	H 	0.9027	0.1812	0.4824	0.041
Mof_C 	C 	0.922	0.163	0.4082	-0.037
Mof_C 	C 	0.9621	0.1595	0.4766	-0.039
Mof_H 	H 	0.9719	0.1772	0.5987	0.025
Mof_H 	H 	0.9613	0.2417	0.5138	0.053
Mof_C 	C 	0.9766	0.2844	0.566	-0.014
Mof_C 	C 	0.9706	0.2867	0.723	-0.031
Mof_H 	H 	0.9468	0.2438	0.777	0.043
Mof_C 	C 	0.9974	0.2235	0.749	-0.493
Mof_N 	N 	0.9722	0.1838	0.8557	-0.214
Mof_H 	H 	0.8261	0.0228	0.8692	-0.01
Mof_H 	H 	0.9273	0.0905	0.5333	-0.011
Mof_H 	H 	0.9529	0.1501	0.9341	-0.018
Mof_H 	H 	0.9237	0.1577	0.0998	0.021
Mof_C 	C 	0.9306	0.195	0.037	-0.046
Mof_H 	H 	0.9277	0.2272	0.9645	0.035
Mof_H 	H 	0.7892	0.1574	0.155	0.035
Mof_C 	C 	0.7571	0.1203	0.0903	-0.054
Mof_H 	H 	0.7325	0.0842	0.0101	0.031
Mof_H 	H 	0.8077	0.057	0.0985	0.127
Mof_H 	H 	0.832	0.0923	0.0964	0.159
Mof_H 	H 	0.7982	0.0806	0.0647	0.174
Mof_Ag	Ag	0.80856	0.01213	0.06092	0.45
Mof_H 	H 	0.7403	0.0329	0.7736	0.033
Mof_C 	C 	0.7576	0.0048	0.7458	-0.058
Mof_H 	H 	0.7802	0.9854	0.7024	0.027
Mof_H 	H 	0.7345	0.0373	0.3474	0.033
Mof_C 	C 	0.7729	0.0711	0.2919	-0.065
Mof_H 	H 	0.8151	0.1035	0.2591	0.022
Mof_H 	H 	0.8454	0.0323	0.3877	0.13
Mof_H 	H 	0.819	0.0246	0.4562	0.161
Mof_H 	H 	0.8278	0.0508	0.386	0.158
Mof_Ag	Ag	0.90235	0.04922	0.37369	0.302
Mof_H 	H 	0.9098	0.1597	0.3583	0.034
Mof_C 	C 	0.9444	0.1546	0.4083	-0.044
Mof_H 	H 	0.977	0.1536	0.4752	0.015
Mof_H 	H 	0.9831	0.2949	0.5123	0.026
Mof_C 	C 	0.9806	0.2998	0.635	-0.062
Mof_H 	H 	0.974	0.2987	0.7736	0.031
Mof_H 	H 	0.0143	0.2286	0.7887	0.127
Mof_H 	H 	0.0023	0.2189	0.6914	0.154
Mof_H 	H 	0.9938	0.2406	0.7445	0.165
Mof_H 	H 	0.9506	0.2077	0.0581	0.024
Mof_H 	H 	0.7405	0.1179	0.1243	0.041
Mof_H 	H 	0.7456	0.9891	0.7856	0.037
Mof_H 	H 	0.764	0.0708	0.2373	0.04
Mof_H 	H 	0.9468	0.1451	0.3583	0.019
Mof_H 	H 	0.9907	0.3211	0.6301	0.041
Mof_Au	Au	0.49975	0.48297	0.12417	-0.036
Mof_Au	Au	0.49108	0.45857	0.94292	-0.045
Mof_Au	Au	0.54694	0.51668	0.99165	-0.035
Mof_Ag	Ag	0.53495	0.45886	0.05363	0.549
Mof_P 	P 	0.50288	0.46568	0.25673	0.082
Mof_P 	P 	0.48262	0.41362	0.88913	0.08
Mof_P 	P 	0.59659	0.53117	0.98243	0.082
Mof_N 	N 	0.51007	0.42423	0.16973	-0.148
Mof_N 	N 	0.53997	0.43113	0.93683	-0.15
Mof_N 	N 	0.58467	0.48993	0.10513	-0.15
Mof_C 	C 	0.53917	0.49003	0.30483	-0.025
Mof_C 	C 	0.47227	0.46123	0.32503	-0.014
Mof_C 	C 	0.50047	0.42823	0.24653	-0.06
Mof_C 	C 	0.45877	0.38243	0.96113	-0.018
Mof_C 	C 	0.46537	0.40763	0.78363	-0.014
Mof_C 	C 	0.51837	0.41283	0.87843	-0.061
Mof_C 	C 	0.60387	0.51513	0.88773	-0.025
Mof_C 	C 	0.61917	0.57223	0.98133	-0.012
Mof_C 	C 	0.60777	0.51633	0.07483	-0.056
Mof_C 	C 	0.50817	0.39783	0.15613	-0.021
Mof_C 	C 	0.56687	0.43413	0.93453	-0.011
Mof_C 	C 	0.58927	0.47793	0.17383	-0.019
Mof_C 	C 	0.55287	0.47993	0.36253	-0.053
Mof_C 	C 	0.55457	0.52043	0.28283	-0.054
Mof_C 	C 	0.47707	0.47993	0.39233	-0.066
Mof_C 	C 	0.44337	0.43833	0.30533	-0.071
Mof_C 	C 	0.48967	0.40603	0.31163	0.177
Mof_C 	C 	0.43887	0.38543	0.01463	-0.061
Mof_C 	C 	0.46157	0.35693	0.96973	-0.063
Mof_C 	C 	0.43557	0.38643	0.76893	-0.067
Mof_C 	C 	0.48167	0.42653	0.71663	-0.075
Mof_C 	C 	0.52487	0.39663	0.81853	0.167
Mof_C 	C 	0.58487	0.50933	0.81423	-0.053
Mof_C 	C 	0.62557	0.50673	0.88373	-0.054
Mof_C 	C 	0.62987	0.58613	0.89833	-0.074
Mof_C 	C 	0.62187	0.58783	0.05733	-0.069
Mof_C 	C 	0.63617	0.52973	0.11633	0.161
Mof_H 	H 	0.51567	0.39433	0.10333	0.014
Mof_C 	C 	0.49567	0.37543	0.21683	0.024
Mof_H 	H 	0.58147	0.44603	0.97703	0.008
Mof_C 	C 	0.57387	0.42013	0.87083	0.01
Mof_H 	H 	0.57357	0.45913	0.19503	0.012
Mof_C 	C 	0.61697	0.49233	0.21643	0.027
Mof_H 	H 	0.54227	0.45943	0.38083	0.027
Mof_C 	C 	0.58147	0.49883	0.39413	-0.036
Mof_C 	C 	0.58377	0.53983	0.31423	-0.033
Mof_H 	H 	0.54527	0.52823	0.24583	0.043
Mof_H 	H 	0.49707	0.49523	0.40613	0.047
Mof_C 	C 	0.45257	0.47693	0.44243	-0.029
Mof_C 	C 	0.41887	0.43383	0.35533	-0.028
Mof_H 	H 	0.44027	0.42563	0.25683	0.045
Mof_C 	C 	0.48117	0.40923	0.40003	-0.522
Mof_N 	N 	0.48767	0.37943	0.29333	-0.214
Mof_H 	H 	0.43767	0.40323	0.01083	0.045
Mof_C 	C 	0.42117	0.36403	0.07233	-0.023
Mof_C 	C 	0.44447	0.33583	0.02913	-0.02
Mof_H 	H 	0.47527	0.35433	0.93423	0.039
Mof_H 	H 	0.42427	0.37263	0.81383	0.05
Mof_C 	C 	0.42187	0.38473	0.69003	-0.027
Mof_C 	C 	0.46957	0.42443	0.63873	-0.021
Mof_H 	H 	0.50217	0.44143	0.72613	0.044
Mof_C 	C 	0.50237	0.37413	0.75683	-0.504
Mof_N 	N 	0.55327	0.40143	0.81453	-0.195
Mof_H 	H 	0.56937	0.51453	0.81573	0.041
Mof_C 	C 	0.58867	0.49633	0.74153	-0.037
Mof_C 	C 	0.62877	0.49283	0.80993	-0.04
Mof_H 	H 	0.63857	0.51053	0.93203	0.025
Mof_H 	H 	0.62797	0.57503	0.84713	0.053
Mof_C 	C 	0.64327	0.61773	0.89933	-0.013
Mof_C 	C 	0.63727	0.62003	0.05633	-0.03
Mof_H 	H 	0.61347	0.57713	0.11033	0.043
Mof_C 	C 	0.66407	0.55683	0.08233	-0.493
Mof_N 	N 	0.63887	0.51713	0.18903	-0.214
Mof_H 	H 	0.49277	0.35613	0.20253	-0.01
Mof_H 	H 	0.59397	0.42383	0.86663	-0.011
Mof_H 	H 	0.61957	0.48343	0.26743	-0.018
Mof_H 	H 	0.59037	0.49103	0.43313	0.02
Mof_C 	C 	0.59727	0.52833	0.37033	-0.048
Mof_H 	H 	0.59437	0.56053	0.29783	0.034
Mof_H 	H 	0.45587	0.49073	0.48833	0.035
Mof_C 	C 	0.42377	0.45363	0.42363	-0.054
Mof_H 	H 	0.39917	0.41753	0.34343	0.031
Mof_H 	H 	0.47437	0.39033	0.43183	0.127
Mof_H 	H 	0.49867	0.42563	0.42973	0.16
Mof_H 	H 	0.46487	0.41393	0.39803	0.174
Mof_Ag	Ag	0.47523	0.34546	0.39425	0.45
Mof_H 	H 	0.40697	0.36623	0.10693	0.033
Mof_C 	C 	0.42427	0.33813	0.07913	-0.058
Mof_H 	H 	0.44687	0.31873	0.03573	0.027
Mof_H 	H 	0.40117	0.37063	0.68073	0.033
Mof_C 	C 	0.43957	0.40443	0.62523	-0.065
Mof_H 	H 	0.48177	0.43683	0.59243	0.022
Mof_H 	H 	0.51207	0.36563	0.72103	0.13
Mof_H 	H 	0.48567	0.35793	0.78953	0.161
Mof_H 	H 	0.49447	0.38413	0.71933	0.158
Mof_Ag	Ag	0.56902	0.38255	0.70702	0.301
Mof_H 	H 	0.57647	0.49303	0.69163	0.034
Mof_C 	C 	0.61107	0.48793	0.74163	-0.044
Mof_H 	H 	0.64367	0.48693	0.80853	0.015
Mof_H 	H 	0.64977	0.62823	0.84563	0.026
Mof_C 	C 	0.64727	0.63313	0.96833	-0.063
Mof_H 	H 	0.64067	0.63203	0.10693	0.031
Mof_H 	H 	0.68097	0.56193	0.12203	0.127
Mof_H 	H 	0.66897	0.55223	0.02473	0.154
Mof_H 	H 	0.66047	0.57393	0.07783	0.165
Mof_H 	H 	0.61727	0.54103	0.39143	0.025
Mof_H 	H 	0.40717	0.45123	0.45763	0.041
Mof_H 	H 	0.41227	0.32243	0.11893	0.038
Mof_H 	H 	0.43067	0.40413	0.57063	0.04
Mof_H 	H 	0.61347	0.47843	0.69163	0.019
Mof_H 	H 	0.65737	0.65443	0.96343	0.041
Mof_Au	Au	0.16642	0.8163	0.45751	-0.036
Mof_Au	Au	0.15775	0.7919	0.27626	-0.044
Mof_Au	Au	0.21361	0.85001	0.32499	-0.035
Mof_Ag	Ag	0.20161	0.7922	0.38697	0.548
Mof_P 	P 	0.16954	0.79902	0.59007	0.082
Mof_P 	P 	0.14928	0.74696	0.22247	0.08
Mof_P 	P 	0.26325	0.86451	0.31577	0.082
Mof_N 	N 	0.17673	0.75757	0.50307	-0.148
Mof_N 	N 	0.20663	0.76447	0.27017	-0.15
Mof_N 	N 	0.25133	0.82327	0.43847	-0.15
Mof_C 	C 	0.20583	0.82337	0.63817	-0.024
Mof_C 	C 	0.13893	0.79457	0.65837	-0.014
Mof_C 	C 	0.16713	0.76157	0.57987	-0.06
Mof_C 	C 	0.12543	0.71577	0.29447	-0.017
Mof_C 	C 	0.13203	0.74097	0.11697	-0.014
Mof_C 	C 	0.18503	0.74617	0.21177	-0.061
Mof_C 	C 	0.27053	0.84847	0.22107	-0.025
Mof_C 	C 	0.28583	0.90557	0.31467	-0.012
Mof_C 	C 	0.27443	0.84967	0.40817	-0.057
Mof_C 	C 	0.17483	0.73117	0.48947	-0.021
Mof_C 	C 	0.23353	0.76747	0.26787	-0.011
Mof_C 	C 	0.25593	0.81127	0.50717	-0.019
Mof_C 	C 	0.21953	0.81327	0.69587	-0.053
Mof_C 	C 	0.22123	0.85377	0.61617	-0.054
Mof_C 	C 	0.14373	0.81327	0.72567	-0.066
Mof_C 	C 	0.11003	0.77167	0.63867	-0.071
Mof_C 	C 	0.15633	0.73937	0.64497	0.177
Mof_C 	C 	0.10553	0.71877	0.34797	-0.061
Mof_C 	C 	0.12823	0.69027	0.30307	-0.062
Mof_C 	C 	0.10223	0.71977	0.10227	-0.067
Mof_C 	C 	0.14833	0.75987	0.04997	-0.074
Mof_C 	C 	0.19153	0.72997	0.15187	0.167
Mof_C 	C 	0.25153	0.84267	0.14757	-0.053
Mof_C 	C 	0.29223	0.84007	0.21707	-0.054
Mof_C 	C 	0.29653	0.91947	0.23167	-0.074
Mof_C 	C 	0.28853	0.92117	0.39067	-0.07
Mof_C 	C 	0.30283	0.86307	0.44967	0.161
Mof_H 	H 	0.18233	0.72767	0.43667	0.014
Mof_C 	C 	0.16233	0.70877	0.55017	0.024
Mof_H 	H 	0.24813	0.77937	0.31037	0.008
Mof_C 	C 	0.24053	0.75347	0.20417	0.01
Mof_H 	H 	0.24023	0.79247	0.52837	0.012
Mof_C 	C 	0.28363	0.82567	0.54977	0.027
Mof_H 	H 	0.20893	0.79277	0.71417	0.027
Mof_C 	C 	0.24813	0.83217	0.72747	-0.036
Mof_C 	C 	0.25043	0.87317	0.64757	-0.033
Mof_H 	H 	0.21193	0.86157	0.57917	0.043
Mof_H 	H 	0.16373	0.82857	0.73947	0.047
Mof_C 	C 	0.11923	0.81027	0.77577	-0.029
Mof_C 	C 	0.08553	0.76717	0.68867	-0.028
Mof_H 	H 	0.10693	0.75897	0.59017	0.045
Mof_C 	C 	0.14783	0.74257	0.73337	-0.522
Mof_N 	N 	0.15433	0.71277	0.62667	-0.214
Mof_H 	H 	0.10433	0.73657	0.34417	0.045
Mof_C 	C 	0.08783	0.69737	0.40567	-0.023
Mof_C 	C 	0.11113	0.66917	0.36247	-0.021
Mof_H 	H 	0.14193	0.68767	0.26757	0.039
Mof_H 	H 	0.09093	0.70597	0.14717	0.05
Mof_C 	C 	0.08853	0.71807	0.02337	-0.026
Mof_C 	C 	0.13623	0.75777	0.97207	-0.022
Mof_H 	H 	0.16883	0.77477	0.05947	0.044
Mof_C 	C 	0.16903	0.70747	0.09017	-0.505
Mof_N 	N 	0.21993	0.73477	0.14787	-0.195
Mof_H 	H 	0.23603	0.84787	0.14907	0.041
Mof_C 	C 	0.25533	0.82967	0.07487	-0.037
Mof_C 	C 	0.29543	0.82617	0.14327	-0.039
Mof_H 	H 	0.30523	0.84387	0.26537	0.025
Mof_H 	H 	0.29463	0.90837	0.18047	0.053
Mof_C 	C 	0.30993	0.95107	0.23267	-0.014
Mof_C 	C 	0.30393	0.95337	0.38967	-0.031
Mof_H 	H 	0.28013	0.91047	0.44367	0.043
Mof_C 	C 	0.33073	0.89017	0.41567	-0.493
Mof_N 	N 	0.30553	0.85047	0.52237	-0.214
Mof_H 	H 	0.15943	0.68947	0.53587	-0.01
Mof_H 	H 	0.26063	0.75717	0.19997	-0.011
Mof_H 	H 	0.28623	0.81677	0.60077	-0.018
Mof_H 	H 	0.25703	0.82437	0.76647	0.02
Mof_C 	C 	0.26393	0.86167	0.70367	-0.048
Mof_H 	H 	0.26103	0.89387	0.63117	0.034
Mof_H 	H 	0.12253	0.82407	0.82167	0.035
Mof_C 	C 	0.09043	0.78697	0.75697	-0.054
Mof_H 	H 	0.06583	0.75087	0.67677	0.031
Mof_H 	H 	0.14103	0.72367	0.76517	0.127
Mof_H 	H 	0.16533	0.75897	0.76307	0.16
Mof_H 	H 	0.13153	0.74727	0.73137	0.174
Mof_Ag	Ag	0.14189	0.6788	0.72759	0.45
Mof_H 	H 	0.07363	0.69957	0.44027	0.033
Mof_C 	C 	0.09093	0.67147	0.41247	-0.058
Mof_H 	H 	0.11353	0.65207	0.36907	0.027
Mof_H 	H 	0.06783	0.70397	0.01407	0.033
Mof_C 	C 	0.10623	0.73777	0.95857	-0.065
Mof_H 	H 	0.14843	0.77017	0.92577	0.022
Mof_H 	H 	0.17873	0.69897	0.05437	0.13
Mof_H 	H 	0.15233	0.69127	0.12287	0.161
Mof_H 	H 	0.16113	0.71747	0.05267	0.158
Mof_Ag	Ag	0.23568	0.71589	0.04036	0.302
Mof_H 	H 	0.24313	0.82637	0.02497	0.034
Mof_C 	C 	0.27773	0.82127	0.07497	-0.044
Mof_H 	H 	0.31033	0.82027	0.14187	0.015
Mof_H 	H 	0.31643	0.96157	0.17897	0.026
Mof_C 	C 	0.31393	0.96647	0.30167	-0.062
Mof_H 	H 	0.30733	0.96537	0.44027	0.031
Mof_H 	H 	0.34763	0.89527	0.45537	0.127
Mof_H 	H 	0.33563	0.88557	0.35807	0.154
Mof_H 	H 	0.32713	0.90727	0.41117	0.165
Mof_H 	H 	0.28393	0.87437	0.72477	0.025
Mof_H 	H 	0.07383	0.78457	0.79097	0.041
Mof_H 	H 	0.07893	0.65577	0.45227	0.037
Mof_H 	H 	0.09733	0.73747	0.90397	0.04
Mof_H 	H 	0.28013	0.81177	0.02497	0.02
Mof_H 	H 	0.32403	0.98777	0.29677	0.041
Mof_Au	Au	0.85037	0.68346	0.79084	-0.036
Mof_Au	Au	0.87476	0.69918	0.60959	-0.044
Mof_Au	Au	0.81666	0.69693	0.65832	-0.035
Mof_Ag	Ag	0.87447	0.74275	0.7203	0.548
Mof_P 	P 	0.86765	0.70386	0.9234	0.082
Mof_P 	P 	0.91971	0.73566	0.5558	0.08
Mof_P 	P 	0.80216	0.73208	0.6491	0.082
Mof_N 	N 	0.9091	0.7525	0.8364	-0.148
Mof_N 	N 	0.9022	0.7755	0.6035	-0.15
Mof_N 	N 	0.8434	0.7614	0.7718	-0.15
Mof_C 	C 	0.8433	0.7158	0.9715	-0.026
Mof_C 	C 	0.8721	0.6777	0.9917	-0.015
Mof_C 	C 	0.9051	0.7389	0.9132	-0.06
Mof_C 	C 	0.9509	0.743	0.6278	-0.017
Mof_C 	C 	0.9257	0.7244	0.4503	-0.014
Mof_C 	C 	0.9205	0.7722	0.5451	-0.061
Mof_C 	C 	0.8182	0.7554	0.5544	-0.025
Mof_C 	C 	0.7611	0.7136	0.648	-0.012
Mof_C 	C 	0.817	0.7581	0.7415	-0.057
Mof_C 	C 	0.9355	0.777	0.8228	-0.021
Mof_C 	C 	0.8992	0.7994	0.6012	-0.011
Mof_C 	C 	0.8554	0.778	0.8405	-0.019
Mof_C 	C 	0.8534	0.7396	0.0292	-0.051
Mof_C 	C 	0.8129	0.7008	0.9495	-0.053
Mof_C 	C 	0.8534	0.6638	0.059	-0.065
Mof_C 	C 	0.895	0.6717	0.972	-0.072
Mof_C 	C 	0.9273	0.7503	0.9783	0.177
Mof_C 	C 	0.9479	0.7201	0.6813	-0.061
Mof_C 	C 	0.9764	0.7713	0.6364	-0.062
Mof_C 	C 	0.9469	0.7158	0.4356	-0.067
Mof_C 	C 	0.9068	0.7218	0.3833	-0.076
Mof_C 	C 	0.9367	0.7949	0.4852	0.167
Mof_C 	C 	0.824	0.7422	0.4809	-0.053
Mof_C 	C 	0.8266	0.7855	0.5504	-0.054
Mof_C 	C 	0.7472	0.7104	0.565	-0.074
Mof_C 	C 	0.7455	0.7007	0.724	-0.07
Mof_C 	C 	0.8036	0.7731	0.783	0.161
Mof_H 	H 	0.939	0.788	0.77	0.014
Mof_C 	C 	0.9579	0.7869	0.8835	0.024
Mof_H 	H 	0.8873	0.8021	0.6437	0.008
Mof_C 	C 	0.9132	0.8204	0.5375	0.01
Mof_H 	H 	0.8742	0.7811	0.8617	0.012
Mof_C 	C 	0.841	0.7913	0.8831	0.027
Mof_H 	H 	0.8739	0.7495	0.0475	0.026
Mof_C 	C 	0.8345	0.7493	0.0608	-0.038
Mof_C 	C 	0.7935	0.7106	0.9809	-0.035
Mof_H 	H 	0.8051	0.6837	0.9125	0.042
Mof_H 	H 	0.8381	0.6685	0.0728	0.047
Mof_C 	C 	0.8564	0.6423	0.1091	-0.029
Mof_C 	C 	0.8995	0.6517	0.022	-0.028
Mof_H 	H 	0.9077	0.6813	0.9235	0.045
Mof_C 	C 	0.9241	0.7386	0.0667	-0.521
Mof_N 	N 	0.9539	0.7749	0.96	-0.214
Mof_H 	H 	0.9301	0.7011	0.6775	0.045
Mof_C 	C 	0.9693	0.7238	0.739	-0.023
Mof_C 	C 	0.9975	0.7753	0.6958	-0.021
Mof_H 	H 	0.979	0.7876	0.6009	0.039
Mof_H 	H 	0.9607	0.7183	0.4805	0.05
Mof_C 	C 	0.9486	0.7038	0.3567	-0.027
Mof_C 	C 	0.9089	0.7118	0.3054	-0.021
Mof_H 	H 	0.8919	0.7274	0.3928	0.044
Mof_C 	C 	0.9592	0.7949	0.4235	-0.504
Mof_N 	N 	0.9319	0.8185	0.4812	-0.195
Mof_H 	H 	0.8188	0.7215	0.4824	0.041
Mof_C 	C 	0.837	0.759	0.4082	-0.037
Mof_C 	C 	0.8405	0.8026	0.4766	-0.039
Mof_H 	H 	0.8228	0.7947	0.5987	0.025
Mof_H 	H 	0.7583	0.7196	0.5138	0.053
Mof_C 	C 	0.7156	0.6922	0.566	-0.014
Mof_C 	C 	0.7133	0.6839	0.723	-0.031
Mof_H 	H 	0.7562	0.703	0.777	0.043
Mof_C 	C 	0.7765	0.7739	0.749	-0.493
Mof_N 	N 	0.8162	0.7884	0.8557	-0.214
Mof_H 	H 	0.9772	0.8033	0.8692	-0.01
Mof_H 	H 	0.9095	0.8368	0.5333	-0.011
Mof_H 	H 	0.8499	0.8028	0.9341	-0.018
Mof_H 	H 	0.8423	0.766	0.0998	0.021
Mof_C 	C 	0.805	0.7356	0.037	-0.045
Mof_H 	H 	0.7728	0.7005	0.9645	0.035
Mof_H 	H 	0.8426	0.6318	0.155	0.035
Mof_C 	C 	0.8797	0.6368	0.0903	-0.054
Mof_H 	H 	0.9158	0.6483	0.0101	0.031
Mof_H 	H 	0.943	0.7507	0.0985	0.127
Mof_H 	H 	0.9077	0.7397	0.0964	0.159
Mof_H 	H 	0.9194	0.7176	0.0647	0.174
Mof_Ag	Ag	0.98787	0.79643	0.06092	0.45
Mof_H 	H 	0.9671	0.7074	0.7736	0.033
Mof_C 	C 	0.9952	0.7528	0.7458	-0.058
Mof_H 	H 	0.0146	0.7948	0.7024	0.027
Mof_H 	H 	0.9627	0.6972	0.3474	0.033
Mof_C 	C 	0.9289	0.7018	0.2919	-0.065
Mof_H 	H 	0.8965	0.7116	0.2591	0.022
Mof_H 	H 	0.9677	0.8131	0.3877	0.13
Mof_H 	H 	0.9754	0.7944	0.4562	0.161
Mof_H 	H 	0.9492	0.777	0.386	0.158
Mof_Ag	Ag	0.95078	0.85313	0.37369	0.302
Mof_H 	H 	0.8403	0.7501	0.3583	0.034
Mof_C 	C 	0.8454	0.7898	0.4083	-0.044
Mof_H 	H 	0.8464	0.8234	0.4752	0.015
Mof_H 	H 	0.7051	0.6882	0.5123	0.026
Mof_C 	C 	0.7002	0.6808	0.635	-0.062
Mof_H 	H 	0.7013	0.6753	0.7736	0.031
Mof_H 	H 	0.7714	0.7857	0.7887	0.126
Mof_H 	H 	0.7811	0.7834	0.6914	0.154
Mof_H 	H 	0.7594	0.7532	0.7445	0.165
Mof_H 	H 	0.7923	0.7429	0.0581	0.024
Mof_H 	H 	0.8821	0.6226	0.1243	0.041
Mof_H 	H 	0.0109	0.7565	0.7856	0.037
Mof_H 	H 	0.9292	0.6932	0.2373	0.04
Mof_H 	H 	0.8549	0.8017	0.3583	0.019
Mof_H 	H 	0.6789	0.6696	0.6301	0.041
Mof_Au	Au	0.51703	0.01679	0.12417	-0.036
Mof_Au	Au	0.54143	0.03251	0.94292	-0.045
Mof_Au	Au	0.48332	0.03027	0.99165	-0.035
Mof_Ag	Ag	0.54114	0.07608	0.05363	0.549
Mof_P 	P 	0.53432	0.03719	0.25673	0.082
Mof_P 	P 	0.58638	0.06899	0.88913	0.08
Mof_P 	P 	0.46883	0.06541	0.98243	0.082
Mof_N 	N 	0.57577	0.08583	0.16973	-0.148
Mof_N 	N 	0.56887	0.10883	0.93683	-0.15
Mof_N 	N 	0.51007	0.09473	0.10513	-0.15
Mof_C 	C 	0.50997	0.04913	0.30483	-0.025
Mof_C 	C 	0.53877	0.01103	0.32503	-0.014
Mof_C 	C 	0.57177	0.07223	0.24653	-0.06
Mof_C 	C 	0.61757	0.07633	0.96113	-0.018
Mof_C 	C 	0.59237	0.05773	0.78363	-0.014
Mof_C 	C 	0.58717	0.10553	0.87843	-0.061
Mof_C 	C 	0.48487	0.08873	0.88773	-0.025
Mof_C 	C 	0.42777	0.04693	0.98133	-0.012
Mof_C 	C 	0.48367	0.09143	0.07483	-0.056
Mof_C 	C 	0.60217	0.11033	0.15613	-0.021
Mof_C 	C 	0.56587	0.13273	0.93453	-0.011
Mof_C 	C 	0.52207	0.11133	0.17383	-0.019
Mof_C 	C 	0.52007	0.07293	0.36253	-0.053
Mof_C 	C 	0.47957	0.03413	0.28283	-0.054
Mof_C 	C 	0.52007	0.99713	0.39233	-0.066
Mof_C 	C 	0.56167	0.00503	0.30533	-0.071
Mof_C 	C 	0.59397	0.08363	0.31163	0.177
Mof_C 	C 	0.61457	0.05343	0.01463	-0.061
Mof_C 	C 	0.64307	0.10463	0.96973	-0.063
Mof_C 	C 	0.61357	0.04913	0.76893	-0.067
Mof_C 	C 	0.57347	0.05513	0.71663	-0.075
Mof_C 	C 	0.60337	0.12823	0.81853	0.167
Mof_C 	C 	0.49067	0.07553	0.81423	-0.053
Mof_C 	C 	0.49327	0.11883	0.88373	-0.054
Mof_C 	C 	0.41387	0.04373	0.89833	-0.074
Mof_C 	C 	0.41217	0.03403	0.05733	-0.069
Mof_C 	C 	0.47027	0.10643	0.11633	0.161
Mof_H 	H 	0.60567	0.12133	0.10333	0.014
Mof_C 	C 	0.62457	0.12023	0.21683	0.024
Mof_H 	H 	0.55397	0.13543	0.97703	0.008
Mof_C 	C 	0.57987	0.15373	0.87083	0.01
Mof_H 	H 	0.54087	0.11443	0.19503	0.012
Mof_C 	C 	0.50767	0.12463	0.21643	0.027
Mof_H 	H 	0.54057	0.08283	0.38083	0.027
Mof_C 	C 	0.50117	0.08263	0.39413	-0.036
Mof_C 	C 	0.46017	0.04393	0.31423	-0.033
Mof_H 	H 	0.47177	0.01703	0.24583	0.043
Mof_H 	H 	0.50477	0.00183	0.40613	0.047
Mof_C 	C 	0.52307	0.97563	0.44243	-0.029
Mof_C 	C 	0.56617	0.98503	0.35533	-0.028
Mof_H 	H 	0.57437	0.01463	0.25683	0.045
Mof_C 	C 	0.59077	0.07193	0.40003	-0.522
Mof_N 	N 	0.62057	0.10823	0.29333	-0.214
Mof_H 	H 	0.59677	0.03443	0.01083	0.045
Mof_C 	C 	0.63597	0.05713	0.07233	-0.023
Mof_C 	C 	0.66417	0.10863	0.02913	-0.02
Mof_H 	H 	0.64567	0.12093	0.93423	0.039
Mof_H 	H 	0.62737	0.05163	0.81383	0.05
Mof_C 	C 	0.61527	0.03713	0.69003	-0.027
Mof_C 	C 	0.57557	0.04513	0.63873	-0.021
Mof_H 	H 	0.55857	0.06073	0.72613	0.044
Mof_C 	C 	0.62587	0.12823	0.75683	-0.504
Mof_N 	N 	0.59857	0.15183	0.81453	-0.195
Mof_H 	H 	0.48547	0.05483	0.81573	0.041
Mof_C 	C 	0.50367	0.09233	0.74153	-0.037
Mof_C 	C 	0.50717	0.13593	0.80993	-0.04
Mof_H 	H 	0.48947	0.12803	0.93203	0.025
Mof_H 	H 	0.42497	0.05293	0.84713	0.053
Mof_C 	C 	0.38227	0.02553	0.89933	-0.013
Mof_C 	C 	0.37997	0.01723	0.05633	-0.03
Mof_H 	H 	0.42287	0.03633	0.11033	0.043
Mof_C 	C 	0.44317	0.10723	0.08233	-0.493
Mof_N 	N 	0.48287	0.12173	0.18903	-0.214
Mof_H 	H 	0.64387	0.13663	0.20253	-0.01
Mof_H 	H 	0.57617	0.17013	0.86663	-0.011
Mof_H 	H 	0.51657	0.13613	0.26743	-0.018
Mof_H 	H 	0.50897	0.09933	0.43313	0.02
Mof_C 	C 	0.47167	0.06893	0.37033	-0.048
Mof_H 	H 	0.43947	0.03383	0.29783	0.034
Mof_H 	H 	0.50927	0.96513	0.48833	0.035
Mof_C 	C 	0.54637	0.97013	0.42363	-0.054
Mof_H 	H 	0.58247	0.98163	0.34343	0.031
Mof_H 	H 	0.60967	0.08403	0.43183	0.127
Mof_H 	H 	0.57437	0.07303	0.42973	0.16
Mof_H 	H 	0.58607	0.05093	0.39803	0.174
Mof_Ag	Ag	0.65454	0.12976	0.39425	0.45
Mof_H 	H 	0.63377	0.04073	0.10693	0.033
Mof_C 	C 	0.66187	0.08613	0.07913	-0.058
Mof_H 	H 	0.68127	0.12813	0.03573	0.027
Mof_H 	H 	0.62937	0.03053	0.68073	0.033
Mof_C 	C 	0.59557	0.03513	0.62523	-0.065
Mof_H 	H 	0.56317	0.04493	0.59243	0.022
Mof_H 	H 	0.63437	0.14643	0.72103	0.13
Mof_H 	H 	0.64207	0.12773	0.78953	0.161
Mof_H 	H 	0.61587	0.11033	0.71933	0.158
Mof_Ag	Ag	0.61745	0.18646	0.70702	0.301
Mof_H 	H 	0.50697	0.08343	0.69163	0.034
Mof_C 	C 	0.51207	0.12313	0.74163	-0.044
Mof_H 	H 	0.51307	0.15673	0.80853	0.015
Mof_H 	H 	0.37177	0.02153	0.84563	0.026
Mof_C 	C 	0.36687	0.01413	0.96833	-0.063
Mof_H 	H 	0.36797	0.00863	0.10693	0.031
Mof_H 	H 	0.43807	0.11903	0.12203	0.127
Mof_H 	H 	0.44777	0.11673	0.02473	0.154
Mof_H 	H 	0.42607	0.08653	0.07783	0.165
Mof_H 	H 	0.45897	0.07623	0.39143	0.025
Mof_H 	H 	0.54877	0.95593	0.45763	0.041
Mof_H 	H 	0.67757	0.08983	0.11893	0.038
Mof_H 	H 	0.59587	0.02653	0.57063	0.04
Mof_H 	H 	0.52157	0.13503	0.69163	0.019
Mof_H 	H 	0.34557	0.00293	0.96343	0.041
Mof_Au	Au	0.1837	0.35012	0.45751	-0.036
Mof_Au	Au	0.2081	0.36585	0.27626	-0.044
Mof_Au	Au	0.14999	0.3636	0.32499	-0.035
Mof_Ag	Ag	0.2078	0.40942	0.38697	0.548
Mof_P 	P 	0.20098	0.37053	0.59007	0.082
Mof_P 	P 	0.25304	0.40233	0.22247	0.08
Mof_P 	P 	0.13549	0.39875	0.31577	0.082
Mof_N 	N 	0.24243	0.41917	0.50307	-0.148
Mof_N 	N 	0.23553	0.44217	0.27017	-0.15
Mof_N 	N 	0.17673	0.42807	0.43847	-0.15
Mof_C 	C 	0.17663	0.38247	0.63817	-0.024
Mof_C 	C 	0.20543	0.34437	0.65837	-0.014
Mof_C 	C 	0.23843	0.40557	0.57987	-0.06
Mof_C 	C 	0.28423	0.40967	0.29447	-0.017
Mof_C 	C 	0.25903	0.39107	0.11697	-0.014
Mof_C 	C 	0.25383	0.43887	0.21177	-0.061
Mof_C 	C 	0.15153	0.42207	0.22107	-0.025
Mof_C 	C 	0.09443	0.38027	0.31467	-0.012
Mof_C 	C 	0.15033	0.42477	0.40817	-0.057
Mof_C 	C 	0.26883	0.44367	0.48947	-0.021
Mof_C 	C 	0.23253	0.46607	0.26787	-0.011
Mof_C 	C 	0.18873	0.44467	0.50717	-0.019
Mof_C 	C 	0.18673	0.40627	0.69587	-0.053
Mof_C 	C 	0.14623	0.36747	0.61617	-0.054
Mof_C 	C 	0.18673	0.33047	0.72567	-0.066
Mof_C 	C 	0.22833	0.33837	0.63867	-0.071
Mof_C 	C 	0.26063	0.41697	0.64497	0.177
Mof_C 	C 	0.28123	0.38677	0.34797	-0.061
Mof_C 	C 	0.30973	0.43797	0.30307	-0.062
Mof_C 	C 	0.28023	0.38247	0.10227	-0.067
Mof_C 	C 	0.24013	0.38847	0.04997	-0.074
Mof_C 	C 	0.27003	0.46157	0.15187	0.167
Mof_C 	C 	0.15733	0.40887	0.14757	-0.053
Mof_C 	C 	0.15993	0.45217	0.21707	-0.054
Mof_C 	C 	0.08053	0.37707	0.23167	-0.074
Mof_C 	C 	0.07883	0.36737	0.39067	-0.07
Mof_C 	C 	0.13693	0.43977	0.44967	0.161
Mof_H 	H 	0.27233	0.45467	0.43667	0.014
Mof_C 	C 	0.29123	0.45357	0.55017	0.024
Mof_H 	H 	0.22063	0.46877	0.31037	0.008
Mof_C 	C 	0.24653	0.48707	0.20417	0.01
Mof_H 	H 	0.20753	0.44777	0.52837	0.012
Mof_C 	C 	0.17433	0.45797	0.54977	0.027
Mof_H 	H 	0.20723	0.41617	0.71417	0.027
Mof_C 	C 	0.16783	0.41597	0.72747	-0.036
Mof_C 	C 	0.12683	0.37727	0.64757	-0.033
Mof_H 	H 	0.13843	0.35037	0.57917	0.043
Mof_H 	H 	0.17143	0.33517	0.73947	0.047
Mof_C 	C 	0.18973	0.30897	0.77577	-0.029
Mof_C 	C 	0.23283	0.31837	0.68867	-0.028
Mof_H 	H 	0.24103	0.34797	0.59017	0.045
Mof_C 	C 	0.25743	0.40527	0.73337	-0.522
Mof_N 	N 	0.28723	0.44157	0.62667	-0.214
Mof_H 	H 	0.26343	0.36777	0.34417	0.045
Mof_C 	C 	0.30263	0.39047	0.40567	-0.023
Mof_C 	C 	0.33083	0.44197	0.36247	-0.021
Mof_H 	H 	0.31233	0.45427	0.26757	0.039
Mof_H 	H 	0.29403	0.38497	0.14717	0.05
Mof_C 	C 	0.28193	0.37047	0.02337	-0.027
Mof_C 	C 	0.24223	0.37847	0.97207	-0.022
Mof_H 	H 	0.22523	0.39407	0.05947	0.044
Mof_C 	C 	0.29253	0.46157	0.09017	-0.505
Mof_N 	N 	0.26523	0.48517	0.14787	-0.195
Mof_H 	H 	0.15213	0.38817	0.14907	0.041
Mof_C 	C 	0.17033	0.42567	0.07487	-0.037
Mof_C 	C 	0.17383	0.46927	0.14327	-0.039
Mof_H 	H 	0.15613	0.46137	0.26537	0.025
Mof_H 	H 	0.09163	0.38627	0.18047	0.053
Mof_C 	C 	0.04893	0.35887	0.23267	-0.014
Mof_C 	C 	0.04663	0.35057	0.38967	-0.031
Mof_H 	H 	0.08953	0.36967	0.44367	0.043
Mof_C 	C 	0.10983	0.44057	0.41567	-0.493
Mof_N 	N 	0.14953	0.45507	0.52237	-0.214
Mof_H 	H 	0.31053	0.46997	0.53587	-0.01
Mof_H 	H 	0.24283	0.50347	0.19997	-0.011
Mof_H 	H 	0.18323	0.46947	0.60077	-0.018
Mof_H 	H 	0.17563	0.43267	0.76647	0.02
Mof_C 	C 	0.13833	0.40227	0.70367	-0.048
Mof_H 	H 	0.10613	0.36717	0.63117	0.034
Mof_H 	H 	0.17593	0.29847	0.82167	0.035
Mof_C 	C 	0.21303	0.30347	0.75697	-0.054
Mof_H 	H 	0.24913	0.31497	0.67677	0.031
Mof_H 	H 	0.27633	0.41737	0.76517	0.127
Mof_H 	H 	0.24103	0.40637	0.76307	0.16
Mof_H 	H 	0.25273	0.38427	0.73137	0.174
Mof_Ag	Ag	0.3212	0.4631	0.72759	0.45
Mof_H 	H 	0.30043	0.37407	0.44027	0.033
Mof_C 	C 	0.32853	0.41947	0.41247	-0.058
Mof_H 	H 	0.34793	0.46147	0.36907	0.027
Mof_H 	H 	0.29603	0.36387	0.01407	0.033
Mof_C 	C 	0.26223	0.36847	0.95857	-0.065
Mof_H 	H 	0.22983	0.37827	0.92577	0.022
Mof_H 	H 	0.30103	0.47977	0.05437	0.13
Mof_H 	H 	0.30873	0.46107	0.12287	0.161
Mof_H 	H 	0.28253	0.44367	0.05267	0.158
Mof_Ag	Ag	0.28411	0.5198	0.04036	0.302
Mof_H 	H 	0.17363	0.41677	0.02497	0.034
Mof_C 	C 	0.17873	0.45647	0.07497	-0.044
Mof_H 	H 	0.17973	0.49007	0.14187	0.015
Mof_H 	H 	0.03843	0.35487	0.17897	0.026
Mof_C 	C 	0.03353	0.34747	0.30167	-0.062
Mof_H 	H 	0.03463	0.34197	0.44027	0.031
Mof_H 	H 	0.10473	0.45237	0.45537	0.127
Mof_H 	H 	0.11443	0.45007	0.35807	0.154
Mof_H 	H 	0.09273	0.41987	0.41117	0.165
Mof_H 	H 	0.12563	0.40957	0.72477	0.025
Mof_H 	H 	0.21543	0.28927	0.79097	0.041
Mof_H 	H 	0.34423	0.42317	0.45227	0.037
Mof_H 	H 	0.26253	0.35987	0.90397	0.04
Mof_H 	H 	0.18823	0.46837	0.02497	0.02
Mof_H 	H 	0.01223	0.33627	0.29677	0.041
Mof_Au	Au	0.31654	0.16691	0.79084	-0.036
Mof_Au	Au	0.30082	0.17558	0.60959	-0.044
Mof_Au	Au	0.30307	0.11972	0.65832	-0.035
Mof_Ag	Ag	0.25725	0.13172	0.7203	0.548
Mof_P 	P 	0.29614	0.16379	0.9234	0.082
Mof_P 	P 	0.26434	0.18405	0.5558	0.08
Mof_P 	P 	0.26792	0.07008	0.6491	0.082
Mof_N 	N 	0.2475	0.1566	0.8364	-0.148
Mof_N 	N 	0.2245	0.1267	0.6035	-0.15
Mof_N 	N 	0.2386	0.082	0.7718	-0.15
Mof_C 	C 	0.2842	0.1275	0.9715	-0.026
Mof_C 	C 	0.3223	0.1944	0.9917	-0.015
Mof_C 	C 	0.2611	0.1662	0.9132	-0.06
Mof_C 	C 	0.257	0.2079	0.6278	-0.017
Mof_C 	C 	0.2756	0.2013	0.4503	-0.014
Mof_C 	C 	0.2278	0.1483	0.5451	-0.061
Mof_C 	C 	0.2446	0.0628	0.5544	-0.025
Mof_C 	C 	0.2864	0.0475	0.648	-0.012
Mof_C 	C 	0.2419	0.0589	0.7415	-0.057
Mof_C 	C 	0.223	0.1585	0.8228	-0.021
Mof_C 	C 	0.2006	0.0998	0.6012	-0.011
Mof_C 	C 	0.222	0.0774	0.8405	-0.019
Mof_C 	C 	0.2604	0.1138	0.0292	-0.051
Mof_C 	C 	0.2992	0.1121	0.9495	-0.053
Mof_C 	C 	0.3362	0.1896	0.059	-0.065
Mof_C 	C 	0.3283	0.2233	0.972	-0.072
Mof_C 	C 	0.2497	0.177	0.9783	0.176
Mof_C 	C 	0.2799	0.2278	0.6813	-0.061
Mof_C 	C 	0.2287	0.2051	0.6364	-0.062
Mof_C 	C 	0.2842	0.2311	0.4356	-0.067
Mof_C 	C 	0.2782	0.185	0.3833	-0.076
Mof_C 	C 	0.2051	0.1418	0.4852	0.167
Mof_C 	C 	0.2578	0.0818	0.4809	-0.053
Mof_C 	C 	0.2145	0.0411	0.5504	-0.054
Mof_C 	C 	0.2896	0.0368	0.565	-0.074
Mof_C 	C 	0.2993	0.0448	0.724	-0.07
Mof_C 	C 	0.2269	0.0305	0.783	0.161
Mof_H 	H 	0.212	0.151	0.77	0.014
Mof_C 	C 	0.2131	0.171	0.8835	0.024
Mof_H 	H 	0.1979	0.0852	0.6437	0.008
Mof_C 	C 	0.1796	0.0928	0.5375	0.01
Mof_H 	H 	0.2189	0.0931	0.8617	0.012
Mof_C 	C 	0.2087	0.0497	0.8831	0.027
Mof_H 	H 	0.2505	0.1244	0.0475	0.026
Mof_C 	C 	0.2507	0.0852	0.0608	-0.038
Mof_C 	C 	0.2894	0.0829	0.9809	-0.035
Mof_H 	H 	0.3163	0.1214	0.9125	0.042
Mof_H 	H 	0.3315	0.1696	0.0728	0.047
Mof_C 	C 	0.3577	0.2141	0.1091	-0.029
Mof_C 	C 	0.3483	0.2478	0.022	-0.028
Mof_H 	H 	0.3187	0.2264	0.9235	0.045
Mof_C 	C 	0.2614	0.1855	0.0667	-0.521
Mof_N 	N 	0.2251	0.179	0.96	-0.214
Mof_H 	H 	0.2989	0.229	0.6775	0.045
Mof_C 	C 	0.2762	0.2455	0.739	-0.023
Mof_C 	C 	0.2247	0.2222	0.6958	-0.021
Mof_H 	H 	0.2124	0.1914	0.6009	0.039
Mof_H 	H 	0.2817	0.2424	0.4805	0.05
Mof_C 	C 	0.2962	0.2448	0.3567	-0.027
Mof_C 	C 	0.2882	0.1971	0.3054	-0.021
Mof_H 	H 	0.2726	0.1645	0.3928	0.044
Mof_C 	C 	0.2051	0.1643	0.4235	-0.504
Mof_N 	N 	0.1815	0.1134	0.4812	-0.195
Mof_H 	H 	0.2785	0.0973	0.4824	0.041
Mof_C 	C 	0.241	0.078	0.4082	-0.037
Mof_C 	C 	0.1974	0.0379	0.4766	-0.039
Mof_H 	H 	0.2053	0.0281	0.5987	0.025
Mof_H 	H 	0.2804	0.0387	0.5138	0.053
Mof_C 	C 	0.3078	0.0234	0.566	-0.014
Mof_C 	C 	0.3161	0.0294	0.723	-0.031
Mof_H 	H 	0.297	0.0532	0.777	0.043
Mof_C 	C 	0.2261	0.0026	0.749	-0.492
Mof_N 	N 	0.2116	0.0278	0.8557	-0.214
Mof_H 	H 	0.1967	0.1739	0.8692	-0.01
Mof_H 	H 	0.1632	0.0727	0.5333	-0.011
Mof_H 	H 	0.1972	0.0471	0.9341	-0.018
Mof_H 	H 	0.234	0.0763	0.0998	0.021
Mof_C 	C 	0.2644	0.0694	0.037	-0.045
Mof_H 	H 	0.2995	0.0723	0.9645	0.035
Mof_H 	H 	0.3682	0.2108	0.155	0.035
Mof_C 	C 	0.3632	0.2429	0.0903	-0.054
Mof_H 	H 	0.3517	0.2675	0.0101	0.031
Mof_H 	H 	0.2493	0.1923	0.0985	0.127
Mof_H 	H 	0.2603	0.168	0.0964	0.159
Mof_H 	H 	0.2824	0.2018	0.0647	0.174
Mof_Ag	Ag	0.20357	0.19144	0.06092	0.451
Mof_H 	H 	0.2926	0.2597	0.7736	0.033
Mof_C 	C 	0.2472	0.2424	0.7458	-0.058
Mof_H 	H 	0.2052	0.2198	0.7024	0.027
Mof_H 	H 	0.3028	0.2655	0.3474	0.033
Mof_C 	C 	0.2982	0.2271	0.2919	-0.065
Mof_H 	H 	0.2884	0.1849	0.2591	0.022
Mof_H 	H 	0.1869	0.1546	0.3877	0.13
Mof_H 	H 	0.2056	0.181	0.4562	0.161
Mof_H 	H 	0.223	0.1722	0.386	0.158
Mof_Ag	Ag	0.14687	0.09765	0.37369	0.302
Mof_H 	H 	0.2499	0.0902	0.3583	0.034
Mof_C 	C 	0.2102	0.0556	0.4083	-0.044
Mof_H 	H 	0.1766	0.023	0.4752	0.015
Mof_H 	H 	0.3118	0.0169	0.5123	0.026
Mof_C 	C 	0.3192	0.0194	0.635	-0.062
Mof_H 	H 	0.3247	0.026	0.7736	0.031
Mof_H 	H 	0.2143	0.9857	0.7887	0.126
Mof_H 	H 	0.2166	0.9977	0.6914	0.153
Mof_H 	H 	0.2468	0.0062	0.7445	0.164
Mof_H 	H 	0.2571	0.0494	0.0581	0.024
Mof_H 	H 	0.3774	0.2595	0.1243	0.041
Mof_H 	H 	0.2435	0.2544	0.7856	0.037
Mof_H 	H 	0.3068	0.236	0.2373	0.04
Mof_H 	H 	0.1983	0.0532	0.3583	0.02
Mof_H 	H 	0.3304	0.0093	0.6301	0.041
Mof_Au	Au	0.98321	0.50025	0.12417	-0.036
Mof_Au	Au	0.96749	0.50892	0.94292	-0.045
Mof_Au	Au	0.96973	0.45306	0.99165	-0.036
Mof_Ag	Ag	0.92392	0.46505	0.05363	0.549
Mof_P 	P 	0.96281	0.49712	0.25673	0.082
Mof_P 	P 	0.93101	0.51738	0.88913	0.08
Mof_P 	P 	0.93459	0.40341	0.98243	0.082
Mof_N 	N 	0.91417	0.48993	0.16973	-0.148
Mof_N 	N 	0.89117	0.46003	0.93683	-0.15
Mof_N 	N 	0.90527	0.41533	0.10513	-0.15
Mof_C 	C 	0.95087	0.46083	0.30483	-0.025
Mof_C 	C 	0.98897	0.52773	0.32503	-0.014
Mof_C 	C 	0.92777	0.49953	0.24653	-0.06
Mof_C 	C 	0.92367	0.54123	0.96113	-0.018
Mof_C 	C 	0.94227	0.53463	0.78363	-0.014
Mof_C 	C 	0.89447	0.48163	0.87843	-0.061
Mof_C 	C 	0.91127	0.39613	0.88773	-0.025
Mof_C 	C 	0.95307	0.38083	0.98133	-0.012
Mof_C 	C 	0.90857	0.39223	0.07483	-0.057
Mof_C 	C 	0.88967	0.49183	0.15613	-0.021
Mof_C 	C 	0.86727	0.43313	0.93453	-0.011
Mof_C 	C 	0.88867	0.41073	0.17383	-0.019
Mof_C 	C 	0.92707	0.44713	0.36253	-0.053
Mof_C 	C 	0.96587	0.44543	0.28283	-0.054
Mof_C 	C 	0.00287	0.52293	0.39233	-0.066
Mof_C 	C 	0.99497	0.55663	0.30533	-0.071
Mof_C 	C 	0.91637	0.51033	0.31163	0.177
Mof_C 	C 	0.94657	0.56113	0.01463	-0.061
Mof_C 	C 	0.89537	0.53843	0.96973	-0.063
Mof_C 	C 	0.95087	0.56443	0.76893	-0.067
Mof_C 	C 	0.94487	0.51833	0.71663	-0.075
Mof_C 	C 	0.87177	0.47513	0.81853	0.167
Mof_C 	C 	0.92447	0.41513	0.81423	-0.053
Mof_C 	C 	0.88117	0.37443	0.88373	-0.054
Mof_C 	C 	0.95627	0.37013	0.89833	-0.074
Mof_C 	C 	0.96597	0.37813	0.05733	-0.069
Mof_C 	C 	0.89357	0.36383	0.11633	0.161
Mof_H 	H 	0.87867	0.48433	0.10333	0.014
Mof_C 	C 	0.87977	0.50433	0.21683	0.024
Mof_H 	H 	0.86457	0.41853	0.97703	0.008
Mof_C 	C 	0.84627	0.42613	0.87083	0.01
Mof_H 	H 	0.88557	0.42643	0.19503	0.012
Mof_C 	C 	0.87537	0.38303	0.21643	0.027
Mof_H 	H 	0.91717	0.45773	0.38083	0.027
Mof_C 	C 	0.91737	0.41853	0.39413	-0.036
Mof_C 	C 	0.95607	0.41623	0.31423	-0.033
Mof_H 	H 	0.98297	0.45473	0.24583	0.043
Mof_H 	H 	0.99817	0.50293	0.40613	0.047
Mof_C 	C 	0.02437	0.54743	0.44243	-0.029
Mof_C 	C 	0.01497	0.58113	0.35533	-0.028
Mof_H 	H 	0.98537	0.55973	0.25683	0.045
Mof_C 	C 	0.92807	0.51883	0.40003	-0.522
Mof_N 	N 	0.89177	0.51233	0.29333	-0.214
Mof_H 	H 	0.96557	0.56233	0.01083	0.045
Mof_C 	C 	0.94287	0.57883	0.07233	-0.023
Mof_C 	C 	0.89137	0.55553	0.02913	-0.02
Mof_H 	H 	0.87907	0.52473	0.93423	0.039
Mof_H 	H 	0.94837	0.57573	0.81383	0.05
Mof_C 	C 	0.96287	0.57813	0.69003	-0.027
Mof_C 	C 	0.95487	0.53043	0.63873	-0.021
Mof_H 	H 	0.93927	0.49783	0.72613	0.044
Mof_C 	C 	0.87177	0.49763	0.75683	-0.504
Mof_N 	N 	0.84817	0.44673	0.81453	-0.195
Mof_H 	H 	0.94517	0.43063	0.81573	0.041
Mof_C 	C 	0.90767	0.41133	0.74153	-0.037
Mof_C 	C 	0.86407	0.37123	0.80993	-0.04
Mof_H 	H 	0.87197	0.36143	0.93203	0.025
Mof_H 	H 	0.94707	0.37203	0.84713	0.053
Mof_C 	C 	0.97447	0.35673	0.89933	-0.013
Mof_C 	C 	0.98277	0.36273	0.05633	-0.03
Mof_H 	H 	0.96367	0.38653	0.11033	0.043
Mof_C 	C 	0.89277	0.33593	0.08233	-0.493
Mof_N 	N 	0.87827	0.36113	0.18903	-0.214
Mof_H 	H 	0.86337	0.50723	0.20253	-0.01
Mof_H 	H 	0.82987	0.40603	0.86663	-0.011
Mof_H 	H 	0.86387	0.38043	0.26743	-0.018
Mof_H 	H 	0.90067	0.40963	0.43313	0.02
Mof_C 	C 	0.93107	0.40273	0.37033	-0.048
Mof_H 	H 	0.96617	0.40563	0.29783	0.034
Mof_H 	H 	0.03487	0.54413	0.48833	0.035
Mof_C 	C 	0.02987	0.57623	0.42363	-0.054
Mof_H 	H 	0.01837	0.60083	0.34343	0.031
Mof_H 	H 	0.91597	0.52563	0.43183	0.127
Mof_H 	H 	0.92697	0.50133	0.42973	0.16
Mof_H 	H 	0.94907	0.53513	0.39803	0.174
Mof_Ag	Ag	0.87024	0.52477	0.39425	0.45
Mof_H 	H 	0.95927	0.59303	0.10693	0.033
Mof_C 	C 	0.91387	0.57573	0.07913	-0.058
Mof_H 	H 	0.87187	0.55313	0.03573	0.027
Mof_H 	H 	0.96947	0.59883	0.68073	0.033
Mof_C 	C 	0.96487	0.56043	0.62523	-0.065
Mof_H 	H 	0.95507	0.51823	0.59243	0.022
Mof_H 	H 	0.85357	0.48793	0.72103	0.13
Mof_H 	H 	0.87227	0.51433	0.78953	0.161
Mof_H 	H 	0.88967	0.50553	0.71933	0.158
Mof_Ag	Ag	0.81354	0.43098	0.70702	0.301
Mof_H 	H 	0.91657	0.42353	0.69163	0.034
Mof_C 	C 	0.87687	0.38893	0.74163	-0.044
Mof_H 	H 	0.84327	0.35633	0.80853	0.015
Mof_H 	H 	0.97847	0.35023	0.84563	0.026
Mof_C 	C 	0.98587	0.35273	0.96833	-0.063
Mof_H 	H 	0.99137	0.35933	0.10693	0.031
Mof_H 	H 	0.88097	0.31903	0.12203	0.127
Mof_H 	H 	0.88327	0.33103	0.02473	0.154
Mof_H 	H 	0.91347	0.33953	0.07783	0.165
Mof_H 	H 	0.92377	0.38273	0.39143	0.025
Mof_H 	H 	0.04407	0.59283	0.45763	0.041
Mof_H 	H 	0.91017	0.58773	0.11893	0.038
Mof_H 	H 	0.97347	0.56933	0.57063	0.04
Mof_H 	H 	0.86497	0.38653	0.69163	0.019
Mof_H 	H 	0.99707	0.34263	0.96343	0.041
Mof_Au	Au	0.64988	0.83358	0.45751	-0.036
Mof_Au	Au	0.63415	0.84225	0.27626	-0.044
Mof_Au	Au	0.6364	0.78639	0.32499	-0.035
Mof_Ag	Ag	0.59058	0.79839	0.38697	0.548
Mof_P 	P 	0.62947	0.83046	0.59007	0.082
Mof_P 	P 	0.59767	0.85072	0.22247	0.08
Mof_P 	P 	0.60125	0.73675	0.31577	0.082
Mof_N 	N 	0.58083	0.82327	0.50307	-0.148
Mof_N 	N 	0.55783	0.79337	0.27017	-0.15
Mof_N 	N 	0.57193	0.74867	0.43847	-0.15
Mof_C 	C 	0.61753	0.79417	0.63817	-0.024
Mof_C 	C 	0.65563	0.86107	0.65837	-0.014
Mof_C 	C 	0.59443	0.83287	0.57987	-0.06
Mof_C 	C 	0.59033	0.87457	0.29447	-0.017
Mof_C 	C 	0.60893	0.86797	0.11697	-0.014
Mof_C 	C 	0.56113	0.81497	0.21177	-0.061
Mof_C 	C 	0.57793	0.72947	0.22107	-0.025
Mof_C 	C 	0.61973	0.71417	0.31467	-0.012
Mof_C 	C 	0.57523	0.72557	0.40817	-0.057
Mof_C 	C 	0.55633	0.82517	0.48947	-0.021
Mof_C 	C 	0.53393	0.76647	0.26787	-0.011
Mof_C 	C 	0.55533	0.74407	0.50717	-0.019
Mof_C 	C 	0.59373	0.78047	0.69587	-0.053
Mof_C 	C 	0.63253	0.77877	0.61617	-0.054
Mof_C 	C 	0.66953	0.85627	0.72567	-0.066
Mof_C 	C 	0.66163	0.88997	0.63867	-0.071
Mof_C 	C 	0.58303	0.84367	0.64497	0.177
Mof_C 	C 	0.61323	0.89447	0.34797	-0.061
Mof_C 	C 	0.56203	0.87177	0.30307	-0.062
Mof_C 	C 	0.61753	0.89777	0.10227	-0.067
Mof_C 	C 	0.61153	0.85167	0.04997	-0.074
Mof_C 	C 	0.53843	0.80847	0.15187	0.167
Mof_C 	C 	0.59113	0.74847	0.14757	-0.053
Mof_C 	C 	0.54783	0.70777	0.21707	-0.054
Mof_C 	C 	0.62293	0.70347	0.23167	-0.074
Mof_C 	C 	0.63263	0.71147	0.39067	-0.07
Mof_C 	C 	0.56023	0.69717	0.44967	0.161
Mof_H 	H 	0.54533	0.81767	0.43667	0.014
Mof_C 	C 	0.54643	0.83767	0.55017	0.024
Mof_H 	H 	0.53123	0.75187	0.31037	0.008
Mof_C 	C 	0.51293	0.75947	0.20417	0.01
Mof_H 	H 	0.55223	0.75977	0.52837	0.012
Mof_C 	C 	0.54203	0.71637	0.54977	0.027
Mof_H 	H 	0.58383	0.79107	0.71417	0.027
Mof_C 	C 	0.58403	0.75187	0.72747	-0.036
Mof_C 	C 	0.62273	0.74957	0.64757	-0.033
Mof_H 	H 	0.64963	0.78807	0.57917	0.043
Mof_H 	H 	0.66483	0.83627	0.73947	0.047
Mof_C 	C 	0.69103	0.88077	0.77577	-0.029
Mof_C 	C 	0.68163	0.91447	0.68867	-0.028
Mof_H 	H 	0.65203	0.89307	0.59017	0.045
Mof_C 	C 	0.59473	0.85217	0.73337	-0.522
Mof_N 	N 	0.55843	0.84567	0.62667	-0.214
Mof_H 	H 	0.63223	0.89567	0.34417	0.045
Mof_C 	C 	0.60953	0.91217	0.40567	-0.023
Mof_C 	C 	0.55803	0.88887	0.36247	-0.021
Mof_H 	H 	0.54573	0.85807	0.26757	0.039
Mof_H 	H 	0.61503	0.90907	0.14717	0.05
Mof_C 	C 	0.62953	0.91147	0.02337	-0.026
Mof_C 	C 	0.62153	0.86377	0.97207	-0.022
Mof_H 	H 	0.60593	0.83117	0.05947	0.044
Mof_C 	C 	0.53843	0.83097	0.09017	-0.505
Mof_N 	N 	0.51483	0.78007	0.14787	-0.195
Mof_H 	H 	0.61183	0.76397	0.14907	0.041
Mof_C 	C 	0.57433	0.74467	0.07487	-0.037
Mof_C 	C 	0.53073	0.70457	0.14327	-0.039
Mof_H 	H 	0.53863	0.69477	0.26537	0.025
Mof_H 	H 	0.61373	0.70537	0.18047	0.053
Mof_C 	C 	0.64113	0.69007	0.23267	-0.014
Mof_C 	C 	0.64943	0.69607	0.38967	-0.031
Mof_H 	H 	0.63033	0.71987	0.44367	0.043
Mof_C 	C 	0.55943	0.66927	0.41567	-0.493
Mof_N 	N 	0.54493	0.69447	0.52237	-0.214
Mof_H 	H 	0.53003	0.84057	0.53587	-0.01
Mof_H 	H 	0.49653	0.73937	0.19997	-0.011
Mof_H 	H 	0.53053	0.71377	0.60077	-0.018
Mof_H 	H 	0.56733	0.74297	0.76647	0.02
Mof_C 	C 	0.59773	0.73607	0.70367	-0.048
Mof_H 	H 	0.63283	0.73897	0.63117	0.034
Mof_H 	H 	0.70153	0.87747	0.82167	0.035
Mof_C 	C 	0.69653	0.90957	0.75697	-0.054
Mof_H 	H 	0.68503	0.93417	0.67677	0.031
Mof_H 	H 	0.58263	0.85897	0.76517	0.127
Mof_H 	H 	0.59363	0.83467	0.76307	0.16
Mof_H 	H 	0.61573	0.86847	0.73137	0.174
Mof_Ag	Ag	0.5369	0.85811	0.72759	0.45
Mof_H 	H 	0.62593	0.92637	0.44027	0.033
Mof_C 	C 	0.58053	0.90907	0.41247	-0.058
Mof_H 	H 	0.53853	0.88647	0.36907	0.027
Mof_H 	H 	0.63613	0.93217	0.01407	0.033
Mof_C 	C 	0.63153	0.89377	0.95857	-0.065
Mof_H 	H 	0.62173	0.85157	0.92577	0.022
Mof_H 	H 	0.52023	0.82127	0.05437	0.13
Mof_H 	H 	0.53893	0.84767	0.12287	0.161
Mof_H 	H 	0.55633	0.83887	0.05267	0.158
Mof_Ag	Ag	0.4802	0.76432	0.04036	0.302
Mof_H 	H 	0.58323	0.75687	0.02497	0.034
Mof_C 	C 	0.54353	0.72227	0.07497	-0.044
Mof_H 	H 	0.50993	0.68967	0.14187	0.015
Mof_H 	H 	0.64513	0.68357	0.17897	0.026
Mof_C 	C 	0.65253	0.68607	0.30167	-0.062
Mof_H 	H 	0.65803	0.69267	0.44027	0.031
Mof_H 	H 	0.54763	0.65237	0.45537	0.127
Mof_H 	H 	0.54993	0.66437	0.35807	0.154
Mof_H 	H 	0.58013	0.67287	0.41117	0.165
Mof_H 	H 	0.59043	0.71607	0.72477	0.025
Mof_H 	H 	0.71073	0.92617	0.79097	0.041
Mof_H 	H 	0.57683	0.92107	0.45227	0.037
Mof_H 	H 	0.64013	0.90267	0.90397	0.04
Mof_H 	H 	0.53163	0.71987	0.02497	0.02
Mof_H 	H 	0.66373	0.67597	0.29677	0.041
Mof_C 	C 	0.16667	0.83333	0.33333	-0.067
Mof_C 	C 	0.16667	0.33333	0.33333	-0.067
Mof_C 	C 	0.66667	0.83333	0.33333	-0.067
Mof_C 	C 	0.83333	0.16667	0.66667	-0.067
Mof_C 	C 	0.5	0.5	-0	-0.066
Mof_C 	C 	0.83333	0.66667	0.66667	-0.067
Mof_C 	C 	0.5	0	-0	-0.066
Mof_C 	C 	0.33333	0.16667	0.66667	-0.067
Mof_C 	C 	5.22294e-17	0.5	-0	-0.066
_end
