data_functionalizedCrystal
_audit_creation_method	'EQeq! by Chris Wilmer'
_symmetry_space_group_name_H-M	'P1'
_symmetry_Int_Tables_number	1
_symmetry_cell_setting	triclinic
loop_
_symmetry_equiv_pos_as_xyz
  x,y,z
_cell_length_a	8.8294
_cell_length_b	33.7719
_cell_length_c	8.8052
_cell_angle_alpha	90
_cell_angle_beta	107.901
_cell_angle_gamma	90
loop_
_atom_site_label
_atom_site_type_symbol
_atom_site_fract_x
_atom_site_fract_y
_atom_site_fract_z
_atom_site_charge
Mof_Cu	Cu	0.74697	0.20406	0.49762	0.947
Mof_Cu	Cu	0.74245	0.04569	0.50213	0.947
Mof_O 	O 	0.88646	0.15533	0.62327	-0.267
Mof_O 	O 	0.85721	0.09045	0.63135	-0.292
Mof_O 	O 	0.61824	0.15976	0.37513	-0.289
Mof_O 	O 	0.61562	0.0943	0.35651	-0.261
Mof_O 	O 	0.61971	0.20802	0.66085	-0.268
Mof_O 	O 	0.5985	0.2497	0.847	-0.255
Mof_O 	O 	0.8746	0.24618	0.63822	-0.294
Mof_O 	O 	0.86365	0.28759	0.82974	-0.282
Mof_O 	O 	0.91075	0.04012	0.38118	-0.27
Mof_O 	O 	0.092	0.99823	0.35078	-0.256
Mof_O 	O 	0.57543	0.04032	0.62236	-0.276
Mof_O 	O 	0.38241	0.99852	0.62598	-0.291
Mof_C 	C 	0.8187	0.12393	0.5722	0.235
Mof_C 	C 	0.6699	0.12604	0.4203	0.233
Mof_C 	C 	0.8145	0.25919	0.7388	0.246
Mof_C 	C 	0.6647	0.23729	0.7521	0.219
Mof_C 	C 	0.0022	0.01086	0.4225	0.233
Mof_C 	C 	0.488	0.01139	0.5718	0.23
Mof_Cu	Cu	0.25303	0.70406	0.00238	0.946
Mof_Cu	Cu	0.25755	0.54569	0.99787	0.949
Mof_O 	O 	0.11354	0.65533	0.87673	-0.264
Mof_O 	O 	0.14279	0.59045	0.86865	-0.291
Mof_O 	O 	0.38176	0.65976	0.12487	-0.29
Mof_O 	O 	0.38438	0.5943	0.14349	-0.262
Mof_O 	O 	0.38029	0.70802	0.83915	-0.264
Mof_O 	O 	0.4015	0.7497	0.653	-0.253
Mof_O 	O 	0.1254	0.74618	0.86178	-0.29
Mof_O 	O 	0.13635	0.78759	0.67026	-0.28
Mof_O 	O 	0.08925	0.54012	0.11882	-0.27
Mof_O 	O 	0.908	0.49823	0.14922	-0.256
Mof_O 	O 	0.42457	0.54032	0.87764	-0.275
Mof_O 	O 	0.61759	0.49852	0.87402	-0.291
Mof_C 	C 	0.1813	0.62393	0.9278	0.24
Mof_C 	C 	0.3301	0.62604	0.0797	0.23
Mof_C 	C 	0.1855	0.75919	0.7612	0.247
Mof_C 	C 	0.3353	0.73729	0.7479	0.219
Mof_C 	C 	0.9978	0.51086	0.0775	0.233
Mof_C 	C 	0.512	0.51139	0.9282	0.231
Mof_Cu	Cu	0.25303	0.79594	0.50238	0.948
Mof_Cu	Cu	0.25755	0.95431	0.49787	0.948
Mof_O 	O 	0.11354	0.84467	0.37673	-0.266
Mof_O 	O 	0.14279	0.90955	0.36865	-0.291
Mof_O 	O 	0.38176	0.84024	0.62487	-0.289
Mof_O 	O 	0.38438	0.9057	0.64349	-0.261
Mof_O 	O 	0.38029	0.79198	0.33915	-0.268
Mof_O 	O 	0.4015	0.7503	0.153	-0.255
Mof_O 	O 	0.1254	0.75382	0.36178	-0.294
Mof_O 	O 	0.13635	0.71241	0.17026	-0.282
Mof_O 	O 	0.08925	0.95988	0.61882	-0.27
Mof_O 	O 	0.908	0.00177	0.64922	-0.256
Mof_O 	O 	0.42457	0.95968	0.37764	-0.276
Mof_O 	O 	0.61759	0.00148	0.37402	-0.291
Mof_C 	C 	0.1813	0.87607	0.4278	0.235
Mof_C 	C 	0.3301	0.87396	0.5797	0.233
Mof_C 	C 	0.1855	0.74081	0.2612	0.246
Mof_C 	C 	0.3353	0.76271	0.2479	0.219
Mof_C 	C 	0.9978	0.98914	0.5775	0.233
Mof_C 	C 	0.512	0.98861	0.4282	0.23
Mof_Cu	Cu	0.74697	0.29594	0.99762	0.946
Mof_Cu	Cu	0.74245	0.45431	0.00213	0.949
Mof_O 	O 	0.88646	0.34467	0.12327	-0.264
Mof_O 	O 	0.85721	0.40955	0.13135	-0.291
Mof_O 	O 	0.61824	0.34024	0.87513	-0.29
Mof_O 	O 	0.61562	0.4057	0.85651	-0.262
Mof_O 	O 	0.61971	0.29198	0.16085	-0.264
Mof_O 	O 	0.5985	0.2503	0.347	-0.253
Mof_O 	O 	0.8746	0.25382	0.13822	-0.29
Mof_O 	O 	0.86365	0.21241	0.32974	-0.28
Mof_O 	O 	0.91075	0.45988	0.88118	-0.27
Mof_O 	O 	0.092	0.50177	0.85078	-0.256
Mof_O 	O 	0.57543	0.45968	0.12236	-0.275
Mof_O 	O 	0.38241	0.50148	0.12598	-0.291
Mof_C 	C 	0.8187	0.37607	0.0722	0.24
Mof_C 	C 	0.6699	0.37396	0.9203	0.23
Mof_C 	C 	0.8145	0.24081	0.2388	0.247
Mof_C 	C 	0.6647	0.26271	0.2521	0.219
Mof_C 	C 	0.0022	0.48914	0.9225	0.233
Mof_C 	C 	0.488	0.48861	0.0718	0.231
_end
