data_functionalizedCrystal
_audit_creation_method	'EQeq! by Chris Wilmer'
_symmetry_space_group_name_H-M	'P1'
_symmetry_Int_Tables_number	1
_symmetry_cell_setting	triclinic
loop_
_symmetry_equiv_pos_as_xyz
  x,y,z
_cell_length_a	15.5239
_cell_length_b	16.0613
_cell_length_c	17.2322
_cell_angle_alpha	90
_cell_angle_beta	90
_cell_angle_gamma	90
loop_
_atom_site_label
_atom_site_type_symbol
_atom_site_fract_x
_atom_site_fract_y
_atom_site_fract_z
_atom_site_charge
Mof_Ag	Ag	0.74151	0.54672	0.59753	0.441
Mof_Ag	Ag	0.281	0.79719	0.48171	0.352
Mof_Ag	Ag	0.31157	0.68434	0.81665	0.385
Mof_Ag	Ag	0.6901	0.82417	0.64168	0.439
Mof_N 	N 	0.3857	0.7472	0.5712	-0.175
Mof_N 	N 	0.3894	0.7033	0.7033	-0.184
Mof_C 	C 	0.6868	0.6704	0.6205	-0.402
Mof_C 	C 	0.6105	0.6886	0.6226	0.084
Mof_C 	C 	0.5187	0.7026	0.6283	-0.11
Mof_C 	C 	0.4701	0.7325	0.5656	0.1
Mof_H 	H 	0.4976	0.7424	0.5185	-0.005
Mof_C 	C 	0.3492	0.732	0.6401	0.124
Mof_H 	H 	0.2904	0.7423	0.6445	-0.044
Mof_C 	C 	0.4739	0.6882	0.697	0.08
Mof_H 	H 	0.5035	0.6675	0.7398	0.01
Mof_O 	O 	0.9342	0.5829	0.6435	-0.235
Mof_O 	O 	0.86165	0.4648	0.6289	-0.31
Mof_C 	C 	0.9272	0.5077	0.635	0.133
Mof_C 	C 	0.0115	0.4597	0.6331	0.868
Mof_F 	F 	0.0206	0.4265	0.5604	-0.459
Mof_F 	F 	0.0781	0.5024	0.6258	-0.541
Mof_F 	F 	0.0131	0.3932	0.676	-0.557
Mof_Ag	Ag	0.75849	0.45328	0.09753	0.441
Mof_Ag	Ag	0.219	0.20281	0.98171	0.351
Mof_Ag	Ag	0.18843	0.31566	0.31665	0.386
Mof_Ag	Ag	0.8099	0.17583	0.14168	0.44
Mof_N 	N 	0.1143	0.2528	0.0712	-0.175
Mof_N 	N 	0.1106	0.2967	0.2033	-0.185
Mof_C 	C 	0.8132	0.3296	0.1205	-0.403
Mof_C 	C 	0.8895	0.3114	0.1226	0.085
Mof_C 	C 	0.9813	0.2974	0.1283	-0.116
Mof_C 	C 	0.0299	0.2675	0.0656	0.104
Mof_H 	H 	0.0024	0.2576	0.0185	-0.005
Mof_C 	C 	0.1508	0.268	0.1401	0.125
Mof_H 	H 	0.2096	0.2577	0.1445	-0.044
Mof_C 	C 	0.0261	0.3118	0.197	0.086
Mof_H 	H 	0.9965	0.3325	0.2398	0.007
Mof_O 	O 	0.5658	0.4171	0.1435	-0.235
Mof_O 	O 	0.63835	0.5352	0.1289	-0.31
Mof_C 	C 	0.5728	0.4923	0.135	0.132
Mof_C 	C 	0.4885	0.5403	0.1331	0.869
Mof_F 	F 	0.4794	0.5735	0.0604	-0.458
Mof_F 	F 	0.4219	0.4976	0.1258	-0.54
Mof_F 	F 	0.4869	0.6068	0.176	-0.556
Mof_Ag	Ag	0.25849	0.04672	0.90247	0.441
Mof_Ag	Ag	0.719	0.29719	0.01829	0.352
Mof_Ag	Ag	0.68843	0.18434	0.68335	0.386
Mof_Ag	Ag	0.3099	0.32417	0.85832	0.441
Mof_N 	N 	0.6143	0.2472	0.9288	-0.174
Mof_N 	N 	0.6106	0.2033	0.7967	-0.184
Mof_C 	C 	0.3132	0.1704	0.8795	-0.402
Mof_C 	C 	0.3895	0.1886	0.8774	0.083
Mof_C 	C 	0.4813	0.2026	0.8717	-0.109
Mof_C 	C 	0.5299	0.2325	0.9344	0.1
Mof_H 	H 	0.5024	0.2424	0.9815	-0.004
Mof_C 	C 	0.6508	0.232	0.8599	0.125
Mof_H 	H 	0.7096	0.2423	0.8555	-0.043
Mof_C 	C 	0.5261	0.1882	0.803	0.08
Mof_H 	H 	0.4965	0.1675	0.7602	0.01
Mof_O 	O 	0.0658	0.0829	0.8565	-0.236
Mof_O 	O 	0.13835	0.9648	0.8711	-0.308
Mof_C 	C 	0.0728	0.0077	0.865	0.129
Mof_C 	C 	0.9885	0.9597	0.8669	0.869
Mof_F 	F 	0.9794	0.9265	0.9396	-0.458
Mof_F 	F 	0.9219	0.0024	0.8742	-0.538
Mof_F 	F 	0.9869	0.8932	0.824	-0.557
Mof_Ag	Ag	0.24151	0.95328	0.40247	0.443
Mof_Ag	Ag	0.781	0.70281	0.51829	0.353
Mof_Ag	Ag	0.81157	0.81566	0.18335	0.385
Mof_Ag	Ag	0.1901	0.67583	0.35832	0.442
Mof_N 	N 	0.8857	0.7528	0.4288	-0.174
Mof_N 	N 	0.8894	0.7967	0.2967	-0.182
Mof_C 	C 	0.1868	0.8296	0.3795	-0.401
Mof_C 	C 	0.1105	0.8114	0.3774	0.081
Mof_C 	C 	0.0187	0.7974	0.3717	-0.101
Mof_C 	C 	0.9701	0.7675	0.4344	0.094
Mof_H 	H 	0.9976	0.7576	0.4815	-0.004
Mof_C 	C 	0.8492	0.768	0.3599	0.124
Mof_H 	H 	0.7904	0.7577	0.3555	-0.044
Mof_C 	C 	0.9739	0.8118	0.303	0.069
Mof_H 	H 	0.0035	0.8325	0.2602	0.015
Mof_O 	O 	0.4342	0.9171	0.3565	-0.235
Mof_O 	O 	0.36165	0.0352	0.3711	-0.31
Mof_C 	C 	0.4272	0.9923	0.365	0.133
Mof_C 	C 	0.5115	0.0403	0.3669	0.869
Mof_F 	F 	0.5206	0.0735	0.4396	-0.458
Mof_F 	F 	0.5781	0.9976	0.3742	-0.541
Mof_F 	F 	0.5131	0.1068	0.324	-0.556
Mof_Ag	Ag	0.25849	0.45328	0.40247	0.442
Mof_Ag	Ag	0.719	0.20281	0.51829	0.353
Mof_Ag	Ag	0.68843	0.31566	0.18335	0.386
Mof_Ag	Ag	0.3099	0.17583	0.35832	0.44
Mof_N 	N 	0.6143	0.2528	0.4288	-0.175
Mof_N 	N 	0.6106	0.2967	0.2967	-0.184
Mof_C 	C 	0.3132	0.3296	0.3795	-0.402
Mof_C 	C 	0.3895	0.3114	0.3774	0.084
Mof_C 	C 	0.4813	0.2974	0.3717	-0.11
Mof_C 	C 	0.5299	0.2675	0.4344	0.1
Mof_H 	H 	0.5024	0.2576	0.4815	-0.005
Mof_C 	C 	0.6508	0.268	0.3599	0.124
Mof_H 	H 	0.7096	0.2577	0.3555	-0.044
Mof_C 	C 	0.5261	0.3118	0.303	0.08
Mof_H 	H 	0.4965	0.3325	0.2602	0.01
Mof_O 	O 	0.0658	0.4171	0.3565	-0.235
Mof_O 	O 	0.13835	0.5352	0.3711	-0.31
Mof_C 	C 	0.0728	0.4923	0.365	0.133
Mof_C 	C 	0.9885	0.5403	0.3669	0.868
Mof_F 	F 	0.9794	0.5735	0.4396	-0.459
Mof_F 	F 	0.9219	0.4976	0.3742	-0.541
Mof_F 	F 	0.9869	0.6068	0.324	-0.557
Mof_Ag	Ag	0.24151	0.54672	0.90247	0.441
Mof_Ag	Ag	0.781	0.79719	0.01829	0.351
Mof_Ag	Ag	0.81157	0.68434	0.68335	0.386
Mof_Ag	Ag	0.1901	0.82417	0.85832	0.44
Mof_N 	N 	0.8857	0.7472	0.9288	-0.175
Mof_N 	N 	0.8894	0.7033	0.7967	-0.185
Mof_C 	C 	0.1868	0.6704	0.8795	-0.403
Mof_C 	C 	0.1105	0.6886	0.8774	0.085
Mof_C 	C 	0.0187	0.7026	0.8717	-0.116
Mof_C 	C 	0.9701	0.7325	0.9344	0.104
Mof_H 	H 	0.9976	0.7424	0.9815	-0.005
Mof_C 	C 	0.8492	0.732	0.8599	0.125
Mof_H 	H 	0.7904	0.7423	0.8555	-0.044
Mof_C 	C 	0.9739	0.6882	0.803	0.086
Mof_H 	H 	0.0035	0.6675	0.7602	0.007
Mof_O 	O 	0.4342	0.5829	0.8565	-0.235
Mof_O 	O 	0.36165	0.4648	0.8711	-0.31
Mof_C 	C 	0.4272	0.5077	0.865	0.132
Mof_C 	C 	0.5115	0.4597	0.8669	0.869
Mof_F 	F 	0.5206	0.4265	0.9396	-0.458
Mof_F 	F 	0.5781	0.5024	0.8742	-0.54
Mof_F 	F 	0.5131	0.3932	0.824	-0.556
Mof_Ag	Ag	0.74151	0.95328	0.09753	0.441
Mof_Ag	Ag	0.281	0.70281	0.98171	0.352
Mof_Ag	Ag	0.31157	0.81566	0.31665	0.386
Mof_Ag	Ag	0.6901	0.67583	0.14168	0.441
Mof_N 	N 	0.3857	0.7528	0.0712	-0.174
Mof_N 	N 	0.3894	0.7967	0.2033	-0.184
Mof_C 	C 	0.6868	0.8296	0.1205	-0.402
Mof_C 	C 	0.6105	0.8114	0.1226	0.083
Mof_C 	C 	0.5187	0.7974	0.1283	-0.109
Mof_C 	C 	0.4701	0.7675	0.0656	0.1
Mof_H 	H 	0.4976	0.7576	0.0185	-0.004
Mof_C 	C 	0.3492	0.768	0.1401	0.125
Mof_H 	H 	0.2904	0.7577	0.1445	-0.043
Mof_C 	C 	0.4739	0.8118	0.197	0.08
Mof_H 	H 	0.5035	0.8325	0.2398	0.01
Mof_O 	O 	0.9342	0.9171	0.1435	-0.236
Mof_O 	O 	0.86165	0.0352	0.1289	-0.308
Mof_C 	C 	0.9272	0.9923	0.135	0.129
Mof_C 	C 	0.0115	0.0403	0.1331	0.869
Mof_F 	F 	0.0206	0.0735	0.0604	-0.458
Mof_F 	F 	0.0781	0.9976	0.1258	-0.538
Mof_F 	F 	0.0131	0.1068	0.176	-0.557
Mof_Ag	Ag	0.75849	0.04672	0.59753	0.443
Mof_Ag	Ag	0.219	0.29719	0.48171	0.353
Mof_Ag	Ag	0.18843	0.18434	0.81665	0.385
Mof_Ag	Ag	0.8099	0.32417	0.64168	0.442
Mof_N 	N 	0.1143	0.2472	0.5712	-0.174
Mof_N 	N 	0.1106	0.2033	0.7033	-0.182
Mof_C 	C 	0.8132	0.1704	0.6205	-0.401
Mof_C 	C 	0.8895	0.1886	0.6226	0.081
Mof_C 	C 	0.9813	0.2026	0.6283	-0.101
Mof_C 	C 	0.0299	0.2325	0.5656	0.094
Mof_H 	H 	0.0024	0.2424	0.5185	-0.004
Mof_C 	C 	0.1508	0.232	0.6401	0.124
Mof_H 	H 	0.2096	0.2423	0.6445	-0.044
Mof_C 	C 	0.0261	0.1882	0.697	0.069
Mof_H 	H 	0.9965	0.1675	0.7398	0.015
Mof_O 	O 	0.5658	0.0829	0.6435	-0.235
Mof_O 	O 	0.63835	0.9648	0.6289	-0.31
Mof_C 	C 	0.5728	0.0077	0.635	0.133
Mof_C 	C 	0.4885	0.9597	0.6331	0.869
Mof_F 	F 	0.4794	0.9265	0.5604	-0.458
Mof_F 	F 	0.4219	0.0024	0.6258	-0.541
Mof_F 	F 	0.4869	0.8932	0.676	-0.556
_end
