data_functionalizedCrystal
_audit_creation_method	'EQeq! by Chris Wilmer'
_symmetry_space_group_name_H-M	'P1'
_symmetry_Int_Tables_number	1
_symmetry_cell_setting	triclinic
loop_
_symmetry_equiv_pos_as_xyz
  x,y,z
_cell_length_a	13.4377
_cell_length_b	13.4377
_cell_length_c	14.853
_cell_angle_alpha	90
_cell_angle_beta	90
_cell_angle_gamma	120
loop_
_atom_site_label
_atom_site_type_symbol
_atom_site_fract_x
_atom_site_fract_y
_atom_site_fract_z
_atom_site_charge
Mof_Ce	Ce	0.66667	0.33334	0.16922	2.925
Mof_Ce	Ce	0.33333	0.66666	0.33078	2.926
Mof_Ce	Ce	0.33333	0.66666	0.83078	2.938
Mof_Ce	Ce	0.66667	0.33334	0.66922	2.935
Mof_Cu	Cu	0.5	0	-0	0.868
Mof_Cu	Cu	0.5	0.5	-0	0.899
Mof_Cu	Cu	-0	0.5	-0	0.871
Mof_Cu	Cu	0.5	0	0.5	0.896
Mof_Cu	Cu	3.02101e-17	0.5	0.5	0.898
Mof_Cu	Cu	0.5	0.5	0.5	0.926
Mof_H 	H 	0.6478	0.9739	0.9229	0.155
Mof_H 	H 	0.8173	0.1363	0.979	0.221
Mof_H 	H 	0.7445	0.0376	0.0477	0.144
Mof_H 	H 	0.7296	0.1898	0.8728	0.168
Mof_H 	H 	0.683	0.082	0.81	0.129
Mof_H 	H 	0.3261	0.3522	0.9229	0.09
Mof_H 	H 	0.319	0.1827	0.979	0.208
Mof_H 	H 	0.2931	0.2555	0.0477	0.156
Mof_H 	H 	0.4602	0.2704	0.8728	0.163
Mof_H 	H 	0.399	0.317	0.81	0.14
Mof_H 	H 	0.0261	0.6739	0.9229	0.041
Mof_H 	H 	0.8637	0.681	0.979	0.238
Mof_H 	H 	0.9624	0.7069	0.0477	0.202
Mof_H 	H 	0.8102	0.5398	0.8728	0.172
Mof_H 	H 	0.918	0.601	0.81	0.17
Mof_H 	H 	0.6739	0.0261	0.5771	0.034
Mof_H 	H 	0.681	0.8637	0.521	0.141
Mof_H 	H 	0.7069	0.9624	0.4523	0.157
Mof_H 	H 	0.5398	0.8102	0.6272	0.161
Mof_H 	H 	0.601	0.918	0.69	0.169
Mof_H 	H 	0.9739	0.6478	0.5771	0.151
Mof_H 	H 	0.1363	0.8173	0.521	0.123
Mof_H 	H 	0.0376	0.7445	0.4523	0.099
Mof_H 	H 	0.1898	0.7296	0.6272	0.157
Mof_H 	H 	0.082	0.683	0.69	0.128
Mof_H 	H 	0.3522	0.3261	0.5771	0.088
Mof_H 	H 	0.1827	0.319	0.521	0.105
Mof_H 	H 	0.2555	0.2931	0.4523	0.107
Mof_H 	H 	0.2704	0.4602	0.6272	0.152
Mof_H 	H 	0.317	0.399	0.69	0.138
Mof_H 	H 	0.3522	0.0261	0.0771	0.028
Mof_H 	H 	0.1827	0.8637	0.021	0.024
Mof_H 	H 	0.2555	0.9624	0.9523	0.097
Mof_H 	H 	0.2704	0.8102	0.1272	0.143
Mof_H 	H 	0.317	0.918	0.19	0.158
Mof_H 	H 	0.6739	0.6478	0.0771	0.094
Mof_H 	H 	0.681	0.8173	0.021	0.042
Mof_H 	H 	0.7069	0.7445	0.9523	0.088
Mof_H 	H 	0.5398	0.7296	0.1272	0.149
Mof_H 	H 	0.601	0.683	0.19	0.148
Mof_H 	H 	0.9739	0.3261	0.0771	0.148
Mof_H 	H 	0.1363	0.319	0.021	-0.001
Mof_H 	H 	0.0376	0.2931	0.9523	0.037
Mof_H 	H 	0.1898	0.4602	0.1272	0.137
Mof_H 	H 	0.082	0.399	0.19	0.115
Mof_H 	H 	0.3261	0.9739	0.4229	0.151
Mof_H 	H 	0.319	0.1363	0.479	0.103
Mof_H 	H 	0.2931	0.0376	0.5477	0.084
Mof_H 	H 	0.4602	0.1898	0.3728	0.15
Mof_H 	H 	0.399	0.082	0.31	0.118
Mof_H 	H 	0.0261	0.3522	0.4229	0.033
Mof_H 	H 	0.8637	0.1827	0.479	0.122
Mof_H 	H 	0.9624	0.2555	0.5477	0.143
Mof_H 	H 	0.8102	0.2704	0.3728	0.155
Mof_H 	H 	0.918	0.317	0.31	0.161
Mof_H 	H 	0.6478	0.6739	0.4229	0.095
Mof_H 	H 	0.8173	0.681	0.479	0.141
Mof_H 	H 	0.7445	0.7069	0.5477	0.135
Mof_H 	H 	0.7296	0.5398	0.3728	0.162
Mof_H 	H 	0.683	0.601	0.31	0.151
Mof_C 	C 	0.7283	0.1798	0.0676	0.441
Mof_C 	C 	0.7438	0.0958	0.0096	-0.485
Mof_C 	C 	0.6651	0.1133	0.8623	-0.414
Mof_C 	C 	0.5623	0.1219	0.843	0.54
Mof_C 	C 	0.4515	0.2717	0.0676	0.447
Mof_C 	C 	0.352	0.2562	0.0096	-0.492
Mof_C 	C 	0.4482	0.3349	0.8623	-0.419
Mof_C 	C 	0.5596	0.4377	0.843	0.546
Mof_C 	C 	0.8202	0.5485	0.0676	0.462
Mof_C 	C 	0.9042	0.648	0.0096	-0.512
Mof_C 	C 	0.8867	0.5518	0.8623	-0.43
Mof_C 	C 	0.8781	0.4404	0.843	0.555
Mof_C 	C 	0.5485	0.8202	0.4324	0.415
Mof_C 	C 	0.648	0.9042	0.4904	-0.32
Mof_C 	C 	0.5518	0.8867	0.6377	-0.425
Mof_C 	C 	0.4404	0.8781	0.657	0.549
Mof_C 	C 	0.1798	0.7283	0.4324	0.393
Mof_C 	C 	0.0958	0.7438	0.4904	-0.288
Mof_C 	C 	0.1133	0.6651	0.6377	-0.409
Mof_C 	C 	0.1219	0.5623	0.657	0.535
Mof_C 	C 	0.2717	0.4515	0.4324	0.397
Mof_C 	C 	0.2562	0.352	0.4904	-0.288
Mof_C 	C 	0.3349	0.4482	0.6377	-0.413
Mof_C 	C 	0.4377	0.5596	0.657	0.54
Mof_C 	C 	0.2717	0.8202	0.9324	0.363
Mof_C 	C 	0.2562	0.9042	0.9904	-0.11
Mof_C 	C 	0.3349	0.8867	0.1377	-0.41
Mof_C 	C 	0.4377	0.8781	0.157	0.539
Mof_C 	C 	0.5485	0.7283	0.9324	0.359
Mof_C 	C 	0.648	0.7438	0.9904	-0.113
Mof_C 	C 	0.5518	0.6651	0.1377	-0.411
Mof_C 	C 	0.4404	0.5623	0.157	0.536
Mof_C 	C 	0.1798	0.4515	0.9324	0.338
Mof_C 	C 	0.0958	0.352	0.9904	-0.066
Mof_C 	C 	0.1133	0.4482	0.1377	-0.393
Mof_C 	C 	0.1219	0.5596	0.157	0.524
Mof_C 	C 	0.4515	0.1798	0.5676	0.388
Mof_C 	C 	0.352	0.0958	0.5096	-0.275
Mof_C 	C 	0.4482	0.1133	0.3623	-0.403
Mof_C 	C 	0.5596	0.1219	0.343	0.531
Mof_C 	C 	0.8202	0.2717	0.5676	0.41
Mof_C 	C 	0.9042	0.2562	0.5096	-0.308
Mof_C 	C 	0.8867	0.3349	0.3623	-0.419
Mof_C 	C 	0.8781	0.4377	0.343	0.546
Mof_C 	C 	0.7283	0.5485	0.5676	0.407
Mof_C 	C 	0.7438	0.648	0.5096	-0.311
Mof_C 	C 	0.6651	0.5518	0.3623	-0.421
Mof_C 	C 	0.5623	0.4404	0.343	0.543
Mof_N 	N 	0.651	0.0398	0.9421	-0.152
Mof_N 	N 	0.3888	0.349	0.9421	-0.101
Mof_N 	N 	0.9602	0.6112	0.9421	-0.045
Mof_N 	N 	0.6112	0.9602	0.5579	-0.092
Mof_N 	N 	0.0398	0.651	0.5579	-0.204
Mof_N 	N 	0.349	0.3888	0.5579	-0.156
Mof_N 	N 	0.349	0.9602	0.0579	-0.141
Mof_N 	N 	0.6112	0.651	0.0579	-0.199
Mof_N 	N 	0.0398	0.3888	0.0579	-0.258
Mof_N 	N 	0.3888	0.0398	0.4421	-0.21
Mof_N 	N 	0.9602	0.349	0.4421	-0.097
Mof_N 	N 	0.651	0.6112	0.4421	-0.151
Mof_O 	O 	0.6373	0.1846	0.0572	-0.631
Mof_O 	O 	0.8027	0.2408	0.1243	-0.477
Mof_O 	O 	0.5639	0.1779	0.7754	-0.641
Mof_O 	O 	0.4764	0.0738	0.8946	-0.456
Mof_O 	O 	0.5473	0.3627	0.0572	-0.628
Mof_O 	O 	0.4381	0.1973	0.1243	-0.491
Mof_O 	O 	0.614	0.4361	0.7754	-0.632
Mof_O 	O 	0.5974	0.5236	0.8946	-0.432
Mof_O 	O 	0.8154	0.4527	0.0572	-0.619
Mof_O 	O 	0.7592	0.5619	0.1243	-0.478
Mof_O 	O 	0.8221	0.386	0.7754	-0.627
Mof_O 	O 	0.9262	0.4026	0.8946	-0.406
Mof_O 	O 	0.4527	0.8154	0.4428	-0.592
Mof_O 	O 	0.5619	0.7592	0.3757	-0.458
Mof_O 	O 	0.386	0.8221	0.7246	-0.628
Mof_O 	O 	0.4026	0.9262	0.6054	-0.422
Mof_O 	O 	0.1846	0.6373	0.4428	-0.603
Mof_O 	O 	0.2408	0.8027	0.3757	-0.456
Mof_O 	O 	0.1779	0.5639	0.7246	-0.643
Mof_O 	O 	0.0738	0.4764	0.6054	-0.474
Mof_O 	O 	0.3627	0.5473	0.4428	-0.6
Mof_O 	O 	0.1973	0.4381	0.3757	-0.47
Mof_O 	O 	0.4361	0.614	0.7246	-0.633
Mof_O 	O 	0.5236	0.5974	0.6054	-0.451
Mof_O 	O 	0.3627	0.8154	0.9428	-0.56
Mof_O 	O 	0.1973	0.7592	0.8757	-0.444
Mof_O 	O 	0.4361	0.8221	0.2246	-0.624
Mof_O 	O 	0.5236	0.9262	0.1054	-0.427
Mof_O 	O 	0.4527	0.6373	0.9428	-0.569
Mof_O 	O 	0.5619	0.8027	0.8757	-0.431
Mof_O 	O 	0.386	0.5639	0.2246	-0.635
Mof_O 	O 	0.4026	0.4764	0.1054	-0.464
Mof_O 	O 	0.1846	0.5473	0.9428	-0.569
Mof_O 	O 	0.2408	0.4381	0.8757	-0.442
Mof_O 	O 	0.1779	0.614	0.2246	-0.639
Mof_O 	O 	0.0738	0.5974	0.1054	-0.481
Mof_O 	O 	0.5473	0.1846	0.5572	-0.604
Mof_O 	O 	0.4381	0.2408	0.6243	-0.465
Mof_O 	O 	0.614	0.1779	0.2754	-0.639
Mof_O 	O 	0.5974	0.0738	0.3946	-0.473
Mof_O 	O 	0.8154	0.3627	0.5572	-0.593
Mof_O 	O 	0.7592	0.1973	0.6243	-0.466
Mof_O 	O 	0.8221	0.4361	0.2754	-0.624
Mof_O 	O 	0.9262	0.5236	0.3946	-0.421
Mof_O 	O 	0.6373	0.4527	0.5572	-0.602
Mof_O 	O 	0.8027	0.5619	0.6243	-0.453
Mof_O 	O 	0.5639	0.386	0.2754	-0.634
Mof_O 	O 	0.4764	0.4026	0.3946	-0.456
_end
