data_functionalizedCrystal
_audit_creation_method	'EQeq! by Chris Wilmer'
_symmetry_space_group_name_H-M	'P1'
_symmetry_Int_Tables_number	1
_symmetry_cell_setting	triclinic
loop_
_symmetry_equiv_pos_as_xyz
  x,y,z
_cell_length_a	16.272
_cell_length_b	16.272
_cell_length_c	29.936
_cell_angle_alpha	90
_cell_angle_beta	90
_cell_angle_gamma	90
loop_
_atom_site_label
_atom_site_type_symbol
_atom_site_fract_x
_atom_site_fract_y
_atom_site_fract_z
_atom_site_charge
Mof_O 	O 	0.66026	0.19584	0.10176	-0.224
Mof_O 	O 	0.75592	0.34514	0.11925	-0.25
Mof_O 	O 	0.7239	0.45134	0.07592	-0.407
Mof_C 	C 	0.74363	0.32436	0.04069	-0.026
Mof_O 	O 	0.77859	0.13025	0.08884	-0.399
Mof_C 	C 	0.74044	0.37576	0.08271	0.33
Mof_C 	C 	0.74192	0.23826	0.04072	-0.031
Mof_C 	C 	0.7246	0.18559	0.08144	0.337
Mof_O 	O 	0.16026	0.69584	0.60176	-0.224
Mof_O 	O 	0.25592	0.84514	0.61925	-0.248
Mof_O 	O 	0.2239	0.95134	0.57592	-0.403
Mof_C 	C 	0.24363	0.82436	0.54069	-0.026
Mof_O 	O 	0.27859	0.63025	0.58884	-0.397
Mof_C 	C 	0.24044	0.87576	0.58271	0.331
Mof_C 	C 	0.24192	0.73826	0.54072	-0.032
Mof_C 	C 	0.2246	0.68559	0.58144	0.338
Mof_O 	O 	0.83974	0.80416	0.60176	-0.223
Mof_O 	O 	0.74408	0.65486	0.61925	-0.249
Mof_O 	O 	0.7761	0.54866	0.57592	-0.406
Mof_C 	C 	0.75637	0.67564	0.54069	-0.028
Mof_O 	O 	0.72141	0.86975	0.58884	-0.396
Mof_C 	C 	0.75956	0.62424	0.58271	0.331
Mof_C 	C 	0.75808	0.76174	0.54072	-0.031
Mof_C 	C 	0.7754	0.81441	0.58144	0.338
Mof_O 	O 	0.33974	0.30416	0.10176	-0.225
Mof_O 	O 	0.24408	0.15486	0.11925	-0.251
Mof_O 	O 	0.2761	0.04866	0.07592	-0.409
Mof_C 	C 	0.25637	0.17564	0.04069	-0.027
Mof_O 	O 	0.22141	0.36975	0.08884	-0.398
Mof_C 	C 	0.25956	0.12424	0.08271	0.331
Mof_C 	C 	0.25808	0.26174	0.04072	-0.03
Mof_C 	C 	0.2754	0.31441	0.08144	0.337
Mof_O 	O 	0.05416	0.41026	0.35176	-0.225
Mof_O 	O 	0.90486	0.50592	0.36925	-0.25
Mof_O 	O 	0.79866	0.4739	0.32592	-0.406
Mof_C 	C 	0.92564	0.49363	0.29069	-0.027
Mof_O 	O 	0.11975	0.52859	0.33884	-0.397
Mof_C 	C 	0.87424	0.49044	0.33271	0.331
Mof_C 	C 	0.01174	0.49192	0.29072	-0.032
Mof_C 	C 	0.06441	0.4746	0.33144	0.338
Mof_O 	O 	0.55416	0.91026	0.85176	-0.224
Mof_O 	O 	0.40486	0.00592	0.86925	-0.256
Mof_O 	O 	0.29866	0.9739	0.82592	-0.405
Mof_C 	C 	0.42564	0.99363	0.79069	-0.023
Mof_O 	O 	0.61975	0.02859	0.83884	-0.402
Mof_C 	C 	0.37424	0.99044	0.83271	0.338
Mof_C 	C 	0.51174	0.99192	0.79072	-0.026
Mof_C 	C 	0.56441	0.9746	0.83144	0.344
Mof_O 	O 	0.44584	0.58974	0.85176	-0.224
Mof_O 	O 	0.59514	0.49408	0.86925	-0.249
Mof_O 	O 	0.70134	0.5261	0.82592	-0.406
Mof_C 	C 	0.57436	0.50637	0.79069	-0.027
Mof_O 	O 	0.38025	0.47141	0.83884	-0.397
Mof_C 	C 	0.62576	0.50956	0.83271	0.331
Mof_C 	C 	0.48826	0.50808	0.79072	-0.031
Mof_C 	C 	0.43559	0.5254	0.83144	0.338
Mof_O 	O 	0.94584	0.08974	0.35176	-0.224
Mof_O 	O 	0.09514	0.99408	0.36925	-0.242
Mof_O 	O 	0.20134	0.0261	0.32592	-0.405
Mof_C 	C 	0.07436	0.00637	0.29069	-0.025
Mof_O 	O 	0.88025	0.97141	0.33884	-0.391
Mof_C 	C 	0.12576	0.00956	0.33271	0.323
Mof_C 	C 	0.98826	0.00808	0.29072	-0.03
Mof_C 	C 	0.93559	0.0254	0.33144	0.331
Mof_O 	O 	0.83974	0.19584	0.89824	-0.224
Mof_O 	O 	0.74408	0.34514	0.88075	-0.249
Mof_O 	O 	0.7761	0.45134	0.92408	-0.404
Mof_C 	C 	0.75637	0.32436	0.95931	-0.021
Mof_O 	O 	0.72141	0.13025	0.91116	-0.397
Mof_C 	C 	0.75956	0.37576	0.91729	0.33
Mof_C 	C 	0.75808	0.23826	0.95928	-0.026
Mof_C 	C 	0.7754	0.18559	0.91856	0.337
Mof_O 	O 	0.33974	0.69584	0.39824	-0.224
Mof_O 	O 	0.24408	0.84514	0.38075	-0.248
Mof_O 	O 	0.2761	0.95134	0.42408	-0.403
Mof_C 	C 	0.25637	0.82436	0.45931	-0.026
Mof_O 	O 	0.22141	0.63025	0.41116	-0.397
Mof_C 	C 	0.25956	0.87576	0.41729	0.331
Mof_C 	C 	0.25808	0.73826	0.45928	-0.032
Mof_C 	C 	0.2754	0.68559	0.41856	0.338
Mof_O 	O 	0.66026	0.80416	0.39824	-0.223
Mof_O 	O 	0.75592	0.65486	0.38075	-0.249
Mof_O 	O 	0.7239	0.54866	0.42408	-0.406
Mof_C 	C 	0.74363	0.67564	0.45931	-0.028
Mof_O 	O 	0.77859	0.86975	0.41116	-0.396
Mof_C 	C 	0.74044	0.62424	0.41729	0.331
Mof_C 	C 	0.74192	0.76174	0.45928	-0.031
Mof_C 	C 	0.7246	0.81441	0.41856	0.338
Mof_O 	O 	0.16026	0.30416	0.89824	-0.224
Mof_O 	O 	0.25592	0.15486	0.88075	-0.25
Mof_O 	O 	0.2239	0.04866	0.92408	-0.407
Mof_C 	C 	0.24363	0.17564	0.95931	-0.022
Mof_O 	O 	0.27859	0.36975	0.91116	-0.396
Mof_C 	C 	0.24044	0.12424	0.91729	0.331
Mof_C 	C 	0.24192	0.26174	0.95928	-0.025
Mof_C 	C 	0.2246	0.31441	0.91856	0.337
Mof_O 	O 	0.44584	0.41026	0.64824	-0.224
Mof_O 	O 	0.59514	0.50592	0.63075	-0.249
Mof_O 	O 	0.70134	0.4739	0.67408	-0.406
Mof_C 	C 	0.57436	0.49363	0.70931	-0.027
Mof_O 	O 	0.38025	0.52859	0.66116	-0.397
Mof_C 	C 	0.62576	0.49044	0.66729	0.331
Mof_C 	C 	0.48826	0.49192	0.70928	-0.031
Mof_C 	C 	0.43559	0.4746	0.66856	0.338
Mof_O 	O 	0.94584	0.91026	0.14824	-0.225
Mof_O 	O 	0.09514	0.00592	0.13075	-0.257
Mof_O 	O 	0.20134	0.9739	0.17408	-0.405
Mof_C 	C 	0.07436	0.99363	0.20931	-0.023
Mof_O 	O 	0.88025	0.02859	0.16116	-0.403
Mof_C 	C 	0.12576	0.99044	0.16729	0.338
Mof_C 	C 	0.98826	0.99192	0.20928	-0.026
Mof_C 	C 	0.93559	0.9746	0.16856	0.344
Mof_O 	O 	0.05416	0.58974	0.14824	-0.224
Mof_O 	O 	0.90486	0.49408	0.13075	-0.25
Mof_O 	O 	0.79866	0.5261	0.17408	-0.406
Mof_C 	C 	0.92564	0.50637	0.20931	-0.027
Mof_O 	O 	0.11975	0.47141	0.16116	-0.398
Mof_C 	C 	0.87424	0.50956	0.16729	0.331
Mof_C 	C 	0.01174	0.50808	0.20928	-0.032
Mof_C 	C 	0.06441	0.5254	0.16856	0.338
Mof_O 	O 	0.55416	0.08974	0.64824	-0.224
Mof_O 	O 	0.40486	0.99408	0.63075	-0.241
Mof_O 	O 	0.29866	0.0261	0.67408	-0.405
Mof_C 	C 	0.42564	0.00637	0.70931	-0.025
Mof_O 	O 	0.61975	0.97141	0.66116	-0.391
Mof_C 	C 	0.37424	0.00956	0.66729	0.323
Mof_C 	C 	0.51174	0.00808	0.70928	-0.03
Mof_C 	C 	0.56441	0.0254	0.66856	0.33
Mof_O 	O 	0.33974	0.80416	0.89824	-0.222
Mof_O 	O 	0.24408	0.65486	0.88075	-0.249
Mof_O 	O 	0.2761	0.54866	0.92408	-0.404
Mof_C 	C 	0.25637	0.67564	0.95931	-0.022
Mof_O 	O 	0.22141	0.86975	0.91116	-0.395
Mof_C 	C 	0.25956	0.62424	0.91729	0.33
Mof_C 	C 	0.25808	0.76174	0.95928	-0.025
Mof_C 	C 	0.2754	0.81441	0.91856	0.337
Mof_O 	O 	0.83974	0.30416	0.39824	-0.224
Mof_O 	O 	0.74408	0.15486	0.38075	-0.251
Mof_O 	O 	0.7761	0.04866	0.42408	-0.409
Mof_C 	C 	0.75637	0.17564	0.45931	-0.028
Mof_O 	O 	0.72141	0.36975	0.41116	-0.398
Mof_C 	C 	0.75956	0.12424	0.41729	0.332
Mof_C 	C 	0.75808	0.26174	0.45928	-0.031
Mof_C 	C 	0.7754	0.31441	0.41856	0.338
Mof_O 	O 	0.16026	0.19584	0.39824	-0.225
Mof_O 	O 	0.25592	0.34514	0.38075	-0.25
Mof_O 	O 	0.2239	0.45134	0.42408	-0.406
Mof_C 	C 	0.24363	0.32436	0.45931	-0.027
Mof_O 	O 	0.27859	0.13025	0.41116	-0.399
Mof_C 	C 	0.24044	0.37576	0.41729	0.331
Mof_C 	C 	0.24192	0.23826	0.45928	-0.032
Mof_C 	C 	0.2246	0.18559	0.41856	0.338
Mof_O 	O 	0.66026	0.69584	0.89824	-0.223
Mof_O 	O 	0.75592	0.84514	0.88075	-0.247
Mof_O 	O 	0.7239	0.95134	0.92408	-0.401
Mof_C 	C 	0.74363	0.82436	0.95931	-0.02
Mof_O 	O 	0.77859	0.63025	0.91116	-0.396
Mof_C 	C 	0.74044	0.87576	0.91729	0.329
Mof_C 	C 	0.74192	0.73826	0.95928	-0.026
Mof_C 	C 	0.7246	0.68559	0.91856	0.337
Mof_O 	O 	0.94584	0.58974	0.64824	-0.224
Mof_O 	O 	0.09514	0.49408	0.63075	-0.25
Mof_O 	O 	0.20134	0.5261	0.67408	-0.406
Mof_C 	C 	0.07436	0.50637	0.70931	-0.027
Mof_O 	O 	0.88025	0.47141	0.66116	-0.398
Mof_C 	C 	0.12576	0.50956	0.66729	0.331
Mof_C 	C 	0.98826	0.50808	0.70928	-0.032
Mof_C 	C 	0.93559	0.5254	0.66856	0.338
Mof_O 	O 	0.44584	0.08974	0.14824	-0.224
Mof_O 	O 	0.59514	0.99408	0.13075	-0.242
Mof_O 	O 	0.70134	0.0261	0.17408	-0.405
Mof_C 	C 	0.57436	0.00637	0.20931	-0.025
Mof_O 	O 	0.38025	0.97141	0.16116	-0.391
Mof_C 	C 	0.62576	0.00956	0.16729	0.323
Mof_C 	C 	0.48826	0.00808	0.20928	-0.03
Mof_C 	C 	0.43559	0.0254	0.16856	0.33
Mof_O 	O 	0.55416	0.41026	0.14824	-0.225
Mof_O 	O 	0.40486	0.50592	0.13075	-0.25
Mof_O 	O 	0.29866	0.4739	0.17408	-0.406
Mof_C 	C 	0.42564	0.49363	0.20931	-0.028
Mof_O 	O 	0.61975	0.52859	0.16116	-0.398
Mof_C 	C 	0.37424	0.49044	0.16729	0.331
Mof_C 	C 	0.51174	0.49192	0.20928	-0.031
Mof_C 	C 	0.56441	0.4746	0.16856	0.338
Mof_O 	O 	0.05416	0.91026	0.64824	-0.224
Mof_O 	O 	0.90486	0.00592	0.63075	-0.257
Mof_O 	O 	0.79866	0.9739	0.67408	-0.405
Mof_C 	C 	0.92564	0.99363	0.70931	-0.023
Mof_O 	O 	0.11975	0.02859	0.66116	-0.403
Mof_C 	C 	0.87424	0.99044	0.66729	0.338
Mof_C 	C 	0.01174	0.99192	0.70928	-0.026
Mof_C 	C 	0.06441	0.9746	0.66856	0.344
Mof_O 	O 	0.16026	0.80416	0.10176	-0.224
Mof_O 	O 	0.25592	0.65486	0.11925	-0.249
Mof_O 	O 	0.2239	0.54866	0.07592	-0.407
Mof_C 	C 	0.24363	0.67564	0.04069	-0.027
Mof_O 	O 	0.27859	0.86975	0.08884	-0.396
Mof_C 	C 	0.24044	0.62424	0.08271	0.331
Mof_C 	C 	0.24192	0.76174	0.04072	-0.03
Mof_C 	C 	0.2246	0.81441	0.08144	0.337
Mof_O 	O 	0.66026	0.30416	0.60176	-0.224
Mof_O 	O 	0.75592	0.15486	0.61925	-0.251
Mof_O 	O 	0.7239	0.04866	0.57592	-0.409
Mof_C 	C 	0.74363	0.17564	0.54069	-0.028
Mof_O 	O 	0.77859	0.36975	0.58884	-0.398
Mof_C 	C 	0.74044	0.12424	0.58271	0.332
Mof_C 	C 	0.74192	0.26174	0.54072	-0.031
Mof_C 	C 	0.7246	0.31441	0.58144	0.338
Mof_O 	O 	0.33974	0.19584	0.60176	-0.225
Mof_O 	O 	0.24408	0.34514	0.61925	-0.25
Mof_O 	O 	0.2761	0.45134	0.57592	-0.406
Mof_C 	C 	0.25637	0.32436	0.54069	-0.027
Mof_O 	O 	0.22141	0.13025	0.58884	-0.399
Mof_C 	C 	0.25956	0.37576	0.58271	0.331
Mof_C 	C 	0.25808	0.23826	0.54072	-0.032
Mof_C 	C 	0.2754	0.18559	0.58144	0.338
Mof_O 	O 	0.83974	0.69584	0.10176	-0.224
Mof_O 	O 	0.74408	0.84514	0.11925	-0.248
Mof_O 	O 	0.7761	0.95134	0.07592	-0.403
Mof_C 	C 	0.75637	0.82436	0.04069	-0.025
Mof_O 	O 	0.72141	0.63025	0.08884	-0.398
Mof_C 	C 	0.75956	0.87576	0.08271	0.33
Mof_C 	C 	0.75808	0.73826	0.04072	-0.031
Mof_C 	C 	0.7754	0.68559	0.08144	0.337
Mof_O 	O 	0.55416	0.58974	0.35176	-0.224
Mof_O 	O 	0.40486	0.49408	0.36925	-0.25
Mof_O 	O 	0.29866	0.5261	0.32592	-0.406
Mof_C 	C 	0.42564	0.50637	0.29069	-0.027
Mof_O 	O 	0.61975	0.47141	0.33884	-0.398
Mof_C 	C 	0.37424	0.50956	0.33271	0.331
Mof_C 	C 	0.51174	0.50808	0.29072	-0.031
Mof_C 	C 	0.56441	0.5254	0.33144	0.338
Mof_O 	O 	0.05416	0.08974	0.85176	-0.223
Mof_O 	O 	0.90486	0.99408	0.86925	-0.241
Mof_O 	O 	0.79866	0.0261	0.82592	-0.405
Mof_C 	C 	0.92564	0.00637	0.79069	-0.025
Mof_O 	O 	0.11975	0.97141	0.83884	-0.391
Mof_C 	C 	0.87424	0.00956	0.83271	0.323
Mof_C 	C 	0.01174	0.00808	0.79072	-0.03
Mof_C 	C 	0.06441	0.0254	0.83144	0.331
Mof_O 	O 	0.94584	0.41026	0.85176	-0.224
Mof_O 	O 	0.09514	0.50592	0.86925	-0.249
Mof_O 	O 	0.20134	0.4739	0.82592	-0.406
Mof_C 	C 	0.07436	0.49363	0.79069	-0.027
Mof_O 	O 	0.88025	0.52859	0.83884	-0.397
Mof_C 	C 	0.12576	0.49044	0.83271	0.331
Mof_C 	C 	0.98826	0.49192	0.79072	-0.032
Mof_C 	C 	0.93559	0.4746	0.83144	0.338
Mof_O 	O 	0.44584	0.91026	0.35176	-0.224
Mof_O 	O 	0.59514	0.00592	0.36925	-0.257
Mof_O 	O 	0.70134	0.9739	0.32592	-0.405
Mof_C 	C 	0.57436	0.99363	0.29069	-0.023
Mof_O 	O 	0.38025	0.02859	0.33884	-0.403
Mof_C 	C 	0.62576	0.99044	0.33271	0.338
Mof_C 	C 	0.48826	0.99192	0.29072	-0.026
Mof_C 	C 	0.43559	0.9746	0.33144	0.344
Mof_Co	Co	0.72069	0.52931	0.125	1.203
Mof_Co	Co	0.22069	0.02931	0.625	1.201
Mof_Co	Co	0.77931	0.47069	0.625	1.203
Mof_Co	Co	0.27931	0.97069	0.125	1.205
Mof_Co	Co	0.72069	0.47069	0.375	1.203
Mof_Co	Co	0.22069	0.97069	0.875	1.205
Mof_Co	Co	0.77931	0.52931	0.875	1.203
Mof_Co	Co	0.27931	0.02931	0.375	1.201
Mof_Co	Co	0.27931	0.47069	0.875	1.203
Mof_Co	Co	0.77931	0.97069	0.375	1.205
Mof_Co	Co	0.22069	0.52931	0.375	1.203
Mof_Co	Co	0.72069	0.02931	0.875	1.201
Mof_Co	Co	0.27931	0.52931	0.625	1.203
Mof_Co	Co	0.77931	0.02931	0.125	1.201
Mof_Co	Co	0.22069	0.47069	0.125	1.203
Mof_Co	Co	0.72069	0.97069	0.625	1.205
Mof_C 	C 	0.75	0.198	-0	-0.01
Mof_H 	H 	0.75	0.1408	-0	0.061
Mof_C 	C 	0.75	0.3649	-0	-0.017
Mof_H 	H 	0.75	0.422	-0	0.08
Mof_C 	C 	0.25	0.698	0.5	-0.002
Mof_H 	H 	0.25	0.6408	0.5	0.061
Mof_C 	C 	0.25	0.8649	0.5	-0.009
Mof_H 	H 	0.25	0.922	0.5	0.081
Mof_C 	C 	0.75	0.802	0.5	-0.003
Mof_H 	H 	0.75	0.8592	0.5	0.063
Mof_C 	C 	0.75	0.6351	0.5	-0.008
Mof_H 	H 	0.75	0.578	0.5	0.079
Mof_C 	C 	0.25	0.302	-0	-0.011
Mof_H 	H 	0.25	0.3592	-0	0.063
Mof_C 	C 	0.25	0.1351	-0	-0.016
Mof_H 	H 	0.25	0.078	-0	0.079
Mof_C 	C 	0.052	0.5	0.25	-0.002
Mof_H 	H 	0.1092	0.5	0.25	0.061
Mof_C 	C 	0.8851	0.5	0.25	-0.008
Mof_H 	H 	0.828	0.5	0.25	0.079
Mof_C 	C 	0.552	0	0.75	-0.01
Mof_H 	H 	0.6092	0	0.75	0.063
Mof_C 	C 	0.3851	0	0.75	-0.017
Mof_H 	H 	0.328	0	0.75	0.081
Mof_C 	C 	0.448	0.5	0.75	-0.002
Mof_H 	H 	0.3908	0.5	0.75	0.062
Mof_C 	C 	0.6149	0.5	0.75	-0.008
Mof_H 	H 	0.672	0.5	0.75	0.079
Mof_C 	C 	0.948	-3.18475e-33	0.25	-0.01
Mof_H 	H 	0.8908	-3.18475e-33	0.25	0.062
Mof_C 	C 	0.1149	-3.18475e-33	0.25	-0.016
Mof_H 	H 	0.172	-3.18475e-33	0.25	0.08
Mof_C 	C 	0.25	0.802	-0	-0.011
Mof_H 	H 	0.25	0.8592	-0	0.064
Mof_C 	C 	0.25	0.6351	-0	-0.016
Mof_H 	H 	0.25	0.578	-0	0.08
Mof_C 	C 	0.75	0.302	0.5	-0.003
Mof_H 	H 	0.75	0.3592	0.5	0.062
Mof_C 	C 	0.75	0.1351	0.5	-0.008
Mof_H 	H 	0.75	0.078	0.5	0.078
Mof_C 	C 	0.25	0.198	0.5	-0.002
Mof_H 	H 	0.25	0.1408	0.5	0.06
Mof_C 	C 	0.25	0.3649	0.5	-0.009
Mof_H 	H 	0.25	0.422	0.5	0.079
Mof_C 	C 	0.75	0.698	-0	-0.01
Mof_H 	H 	0.75	0.6408	-0	0.062
Mof_C 	C 	0.75	0.8649	-0	-0.017
Mof_H 	H 	0.75	0.922	-0	0.082
Mof_C 	C 	0.948	0.5	0.75	-0.002
Mof_H 	H 	0.8908	0.5	0.75	0.061
Mof_C 	C 	0.1149	0.5	0.75	-0.008
Mof_H 	H 	0.172	0.5	0.75	0.079
Mof_C 	C 	0.448	-3.18475e-33	0.25	-0.01
Mof_H 	H 	0.3908	-3.18475e-33	0.25	0.063
Mof_C 	C 	0.6149	-3.18475e-33	0.25	-0.016
Mof_H 	H 	0.672	-3.18475e-33	0.25	0.08
Mof_C 	C 	0.552	0.5	0.25	-0.002
Mof_H 	H 	0.6092	0.5	0.25	0.062
Mof_C 	C 	0.3851	0.5	0.25	-0.008
Mof_H 	H 	0.328	0.5	0.25	0.079
Mof_C 	C 	0.052	0	0.75	-0.01
Mof_H 	H 	0.1092	0	0.75	0.062
Mof_C 	C 	0.8851	0	0.75	-0.017
Mof_H 	H 	0.828	0	0.75	0.081
_end
