data_functionalizedCrystal
_audit_creation_method	'EQeq! by Chris Wilmer'
_symmetry_space_group_name_H-M	'P1'
_symmetry_Int_Tables_number	1
_symmetry_cell_setting	triclinic
loop_
_symmetry_equiv_pos_as_xyz
  x,y,z
_cell_length_a	12.403
_cell_length_b	15.729
_cell_length_c	15.729
_cell_angle_alpha	120
_cell_angle_beta	90
_cell_angle_gamma	90
loop_
_atom_site_label
_atom_site_type_symbol
_atom_site_fract_x
_atom_site_fract_y
_atom_site_fract_z
_atom_site_charge
Mof_Zn	Zn	0.83333	-8.55619e-17	0.57877	1.133
Mof_Zn	Zn	0.5	0.57877	-0	1.134
Mof_Zn	Zn	0.16667	0.42123	0.42123	1.142
Mof_H 	H 	0.8437	0.8177	0.3675	0.013
Mof_H 	H 	0.0233	0.0535	0.4725	-0.013
Mof_H 	H 	0.2205	0.0586	0.2511	0.155
Mof_H 	H 	0.1638	0.958	0.1824	0.181
Mof_H 	H 	0.2326	0.9715	0.272	0.174
Mof_H 	H 	0.1843	0.1953	0.3273	0.004
Mof_H 	H 	0.9344	0.3715	0.4294	0.011
Mof_H 	H 	0.702	0.2848	0.3518	0.112
Mof_H 	H 	0.7672	0.3728	0.4344	0.106
Mof_H 	H 	0.666	0.3316	0.4618	0.109
Mof_H 	H 	0.51037	0.5498	0.1823	0.013
Mof_H 	H 	0.68997	0.419	0.9465	0.048
Mof_H 	H 	0.88717	0.1925	0.9414	0.052
Mof_H 	H 	0.83047	0.2244	0.042	0.047
Mof_H 	H 	0.89927	0.3005	0.0285	0.034
Mof_H 	H 	0.85097	0.132	0.8047	0.008
Mof_H 	H 	0.60107	0.0579	0.6285	0.007
Mof_H 	H 	0.36867	0.067	0.7152	0.102
Mof_H 	H 	0.43387	0.0616	0.6272	0.096
Mof_H 	H 	0.33267	0.1302	0.6684	0.101
Mof_H 	H 	0.17703	0.6325	0.4502	0.012
Mof_H 	H 	0.35663	0.5275	0.581	0.017
Mof_H 	H 	0.55383	0.7489	0.8075	0.118
Mof_H 	H 	0.49713	0.8176	0.7756	0.133
Mof_H 	H 	0.56593	0.728	0.6995	0.115
Mof_H 	H 	0.51763	0.6727	0.868	0.013
Mof_H 	H 	0.26773	0.5706	0.9421	0.016
Mof_H 	H 	0.03533	0.6482	0.933	0.126
Mof_H 	H 	0.10053	0.5656	0.9384	0.116
Mof_H 	H 	0.99933	0.5382	0.8698	0.115
Mof_H 	H 	0.1563	0.4502	0.6325	0.013
Mof_H 	H 	0.9767	0.581	0.5275	0.015
Mof_H 	H 	0.7795	0.8075	0.7489	0.119
Mof_H 	H 	0.8362	0.7756	0.8176	0.133
Mof_H 	H 	0.7674	0.6995	0.728	0.115
Mof_H 	H 	0.8157	0.868	0.6727	0.013
Mof_H 	H 	0.0656	0.9421	0.5706	0.015
Mof_H 	H 	0.298	0.933	0.6482	0.128
Mof_H 	H 	0.2328	0.9384	0.5656	0.118
Mof_H 	H 	0.334	0.8698	0.5382	0.119
Mof_H 	H 	0.48963	0.3675	0.8177	0.013
Mof_H 	H 	0.31003	0.4725	0.0535	-0.015
Mof_H 	H 	0.11283	0.2511	0.0586	0.162
Mof_H 	H 	0.16953	0.1824	0.958	0.19
Mof_H 	H 	0.10073	0.272	0.9715	0.183
Mof_H 	H 	0.14903	0.3273	0.1953	0.003
Mof_H 	H 	0.39893	0.4294	0.3715	0.011
Mof_H 	H 	0.63133	0.3518	0.2848	0.112
Mof_H 	H 	0.56613	0.4344	0.3728	0.106
Mof_H 	H 	0.66733	0.4618	0.3316	0.109
Mof_H 	H 	0.82297	0.1823	0.5498	0.012
Mof_H 	H 	0.64337	0.9465	0.419	0.051
Mof_H 	H 	0.44617	0.9414	0.1925	0.051
Mof_H 	H 	0.50287	0.042	0.2244	0.045
Mof_H 	H 	0.43407	0.0285	0.3005	0.032
Mof_H 	H 	0.48237	0.8047	0.132	0.009
Mof_H 	H 	0.73227	0.6285	0.0579	0.007
Mof_H 	H 	0.96467	0.7152	0.067	0.101
Mof_H 	H 	0.89947	0.6272	0.0616	0.095
Mof_H 	H 	0.00067	0.6684	0.1302	0.099
Mof_C 	C 	0.9208	0.8354	0.2643	0.115
Mof_C 	C 	0.8899	0.8593	0.3588	-0.038
Mof_C 	C 	0.9948	0.997	0.4197	0.004
Mof_C 	C 	0.0238	0.972	0.3251	0.109
Mof_C 	C 	0.1846	0.0034	0.2488	-0.472
Mof_C 	C 	0.0501	0.131	0.3453	0.1
Mof_C 	C 	0.113	0.2069	0.3484	-0.055
Mof_C 	C 	0.9659	0.3104	0.4081	-0.058
Mof_C 	C 	0.9041	0.2336	0.4041	0.109
Mof_C 	C 	0.727	0.3146	0.4186	-0.296
Mof_C 	C 	0.58747	0.4289	0.1646	0.116
Mof_C 	C 	0.55657	0.4995	0.1407	-0.046
Mof_C 	C 	0.66147	0.4227	0.003	-0.093
Mof_C 	C 	0.69047	0.3531	0.028	0.119
Mof_C 	C 	0.85127	0.2454	0.9966	-0.112
Mof_C 	C 	0.71677	0.2143	0.869	0.113
Mof_C 	C 	0.77967	0.1415	0.7931	-0.062
Mof_C 	C 	0.63257	0.0977	0.6896	-0.055
Mof_C 	C 	0.57077	0.1705	0.7664	0.109
Mof_C 	C 	0.39367	0.104	0.6854	-0.281
Mof_C 	C 	0.25413	0.7357	0.5711	0.116
Mof_C 	C 	0.22323	0.6412	0.5005	-0.042
Mof_C 	C 	0.32813	0.5803	0.5773	-0.046
Mof_C 	C 	0.35713	0.6749	0.6469	0.117
Mof_C 	C 	0.51793	0.7512	0.7546	-0.318
Mof_C 	C 	0.38343	0.6547	0.7857	0.108
Mof_C 	C 	0.44633	0.6516	0.8585	-0.054
Mof_C 	C 	0.29923	0.5919	0.9023	-0.052
Mof_C 	C 	0.23743	0.5959	0.8295	0.112
Mof_C 	C 	0.06033	0.5814	0.896	-0.308
Mof_C 	C 	0.0792	0.5711	0.7357	0.116
Mof_C 	C 	0.1101	0.5005	0.6412	-0.041
Mof_C 	C 	0.0052	0.5773	0.5803	-0.043
Mof_C 	C 	0.9762	0.6469	0.6749	0.114
Mof_C 	C 	0.8154	0.7546	0.7512	-0.318
Mof_C 	C 	0.9499	0.7857	0.6547	0.108
Mof_C 	C 	0.887	0.8585	0.6516	-0.054
Mof_C 	C 	0.0341	0.9023	0.5919	-0.054
Mof_C 	C 	0.0959	0.8295	0.5959	0.112
Mof_C 	C 	0.273	0.896	0.5814	-0.315
Mof_C 	C 	0.41253	0.2643	0.8354	0.115
Mof_C 	C 	0.44343	0.3588	0.8593	-0.038
Mof_C 	C 	0.33853	0.4197	0.997	0.002
Mof_C 	C 	0.30953	0.3251	0.972	0.114
Mof_C 	C 	0.14873	0.2488	0.0034	-0.495
Mof_C 	C 	0.28323	0.3453	0.131	0.096
Mof_C 	C 	0.22033	0.3484	0.2069	-0.053
Mof_C 	C 	0.36743	0.4081	0.3104	-0.054
Mof_C 	C 	0.42923	0.4041	0.2336	0.108
Mof_C 	C 	0.60633	0.4186	0.3146	-0.296
Mof_C 	C 	0.74587	0.1646	0.4289	0.116
Mof_C 	C 	0.77677	0.1407	0.4995	-0.046
Mof_C 	C 	0.67187	0.003	0.4227	-0.097
Mof_C 	C 	0.64287	0.028	0.3531	0.119
Mof_C 	C 	0.48207	0.9966	0.2454	-0.105
Mof_C 	C 	0.61657	0.869	0.2143	0.114
Mof_C 	C 	0.55367	0.7931	0.1415	-0.062
Mof_C 	C 	0.70077	0.6896	0.0977	-0.055
Mof_C 	C 	0.76257	0.7664	0.1705	0.109
Mof_C 	C 	0.93967	0.6854	0.104	-0.278
Mof_N 	N 	0.9893	0.8905	0.2469	-0.134
Mof_N 	N 	0.9255	0.9406	0.4369	-0.214
Mof_N 	N 	0.0898	0.0368	0.3103	-0.09
Mof_N 	N 	0.9464	0.1453	0.373	-0.142
Mof_N 	N 	0.0692	0.2962	0.3817	-0.238
Mof_N 	N 	0.796	0.2452	0.4298	-0.108
Mof_N 	N 	0.65597	0.3564	0.1095	-0.142
Mof_N 	N 	0.59217	0.4963	0.0594	-0.208
Mof_N 	N 	0.75647	0.2735	0.9632	-0.121
Mof_N 	N 	0.61307	0.2277	0.8547	-0.135
Mof_N 	N 	0.73587	0.0855	0.7038	-0.242
Mof_N 	N 	0.46267	0.1846	0.7548	-0.11
Mof_N 	N 	0.32263	0.7531	0.6436	-0.136
Mof_N 	N 	0.25883	0.5631	0.5037	-0.212
Mof_N 	N 	0.42313	0.6897	0.7265	-0.102
Mof_N 	N 	0.27973	0.627	0.7723	-0.136
Mof_N 	N 	0.40253	0.6183	0.9145	-0.232
Mof_N 	N 	0.12933	0.5702	0.8154	-0.106
Mof_N 	N 	0.0107	0.6436	0.7531	-0.135
Mof_N 	N 	0.0745	0.5037	0.5631	-0.212
Mof_N 	N 	0.9102	0.7265	0.6897	-0.101
Mof_N 	N 	0.0536	0.7723	0.627	-0.136
Mof_N 	N 	0.9308	0.9145	0.6183	-0.231
Mof_N 	N 	0.204	0.8154	0.5702	-0.105
Mof_N 	N 	0.34403	0.2469	0.8905	-0.136
Mof_N 	N 	0.40783	0.4369	0.9406	-0.214
Mof_N 	N 	0.24353	0.3103	0.0368	-0.089
Mof_N 	N 	0.38693	0.373	0.1453	-0.139
Mof_N 	N 	0.26413	0.3817	0.2962	-0.24
Mof_N 	N 	0.53733	0.4298	0.2452	-0.108
Mof_N 	N 	0.67737	0.1095	0.3564	-0.142
Mof_N 	N 	0.74117	0.0594	0.4963	-0.208
Mof_N 	N 	0.57687	0.9632	0.2735	-0.121
Mof_N 	N 	0.72027	0.8547	0.2277	-0.135
Mof_N 	N 	0.59747	0.7038	0.0855	-0.242
Mof_N 	N 	0.87067	0.7548	0.1846	-0.11
_end
