data_functionalizedCrystal
_audit_creation_method	'EQeq! by Chris Wilmer'
_symmetry_space_group_name_H-M	'P1'
_symmetry_Int_Tables_number	1
_symmetry_cell_setting	triclinic
loop_
_symmetry_equiv_pos_as_xyz
  x,y,z
_cell_length_a	28.9589
_cell_length_b	28.9589
_cell_length_c	14.5653
_cell_angle_alpha	90
_cell_angle_beta	90
_cell_angle_gamma	120
loop_
_atom_site_label
_atom_site_type_symbol
_atom_site_fract_x
_atom_site_fract_y
_atom_site_fract_z
_atom_site_charge
Mof_Ag	Ag	0.60166	0.06353	0.74324	0.573
Mof_C 	C 	0.7025	0.1146	0.6083	0.107
Mof_N 	N 	0.79136	0.20348	0.8767	-0.169
Mof_N 	N 	0.65483	0.06975	0.6221	-0.191
Mof_C 	C 	0.72775	0.16557	0.7559	0.109
Mof_N 	N 	0.69089	0.1284	0.812	-0.17
Mof_C 	C 	0.7777	0.20186	0.7873	-0.059
Mof_H 	H 	0.8032	0.2265	0.7454	0.029
Mof_C 	C 	0.7125	0.1643	0.6573	-0.259
Mof_H 	H 	0.7414	0.1956	0.6254	0.088
Mof_H 	H 	0.6799	0.1672	0.6541	0.077
Mof_N 	N 	0.73122	0.0696	0.5057	-0.152
Mof_C 	C 	0.7548	0.1665	0.9315	-0
Mof_H 	H 	0.7631	0.1665	0.9946	0.001
Mof_C 	C 	0.7403	0.1137	0.5507	-0.055
Mof_H 	H 	0.7736	0.1454	0.5429	0.03
Mof_C 	C 	0.7058	0.1287	0.9006	-0.003
Mof_H 	H 	0.6817	0.102	0.9417	0.017
Mof_C 	C 	0.6834	0.0263	0.5184	-0.011
Mof_H 	H 	0.6749	0.9947	0.4858	0.019
Mof_C 	C 	0.6462	0.0262	0.5775	0.011
Mof_H 	H 	0.6134	0.994	0.5866	0.001
Mof_Ag	Ag	0.26833	0.39686	0.07657	0.574
Mof_C 	C 	0.36917	0.44793	0.94163	0.108
Mof_N 	N 	0.45803	0.53681	0.21003	-0.168
Mof_N 	N 	0.3215	0.40308	0.95543	-0.19
Mof_C 	C 	0.39442	0.4989	0.08923	0.11
Mof_N 	N 	0.35756	0.46173	0.14533	-0.169
Mof_C 	C 	0.44437	0.53519	0.12063	-0.058
Mof_H 	H 	0.46987	0.55983	0.07873	0.029
Mof_C 	C 	0.37917	0.49763	0.99063	-0.259
Mof_H 	H 	0.40807	0.52893	0.95873	0.088
Mof_H 	H 	0.34657	0.50053	0.98743	0.077
Mof_N 	N 	0.39789	0.40293	0.83903	-0.152
Mof_C 	C 	0.42147	0.49983	0.26483	0
Mof_H 	H 	0.42977	0.49983	0.32793	0.001
Mof_C 	C 	0.40697	0.44703	0.88403	-0.055
Mof_H 	H 	0.44027	0.47873	0.87623	0.03
Mof_C 	C 	0.37247	0.46203	0.23393	-0.003
Mof_H 	H 	0.34837	0.43533	0.27503	0.017
Mof_C 	C 	0.35007	0.35963	0.85173	-0.011
Mof_H 	H 	0.34157	0.32803	0.81913	0.02
Mof_C 	C 	0.31287	0.35953	0.91083	0.011
Mof_H 	H 	0.28007	0.32733	0.91993	0
Mof_Ag	Ag	0.93499	0.7302	0.40991	0.575
Mof_C 	C 	0.03583	0.78127	0.27497	0.108
Mof_N 	N 	0.12469	0.87015	0.54337	-0.168
Mof_N 	N 	0.98816	0.73642	0.28877	-0.19
Mof_C 	C 	0.06108	0.83224	0.42257	0.11
Mof_N 	N 	0.02422	0.79507	0.47867	-0.169
Mof_C 	C 	0.11103	0.86853	0.45397	-0.058
Mof_H 	H 	0.13653	0.89317	0.41207	0.029
Mof_C 	C 	0.04583	0.83097	0.32397	-0.259
Mof_H 	H 	0.07473	0.86227	0.29207	0.088
Mof_H 	H 	0.01323	0.83387	0.32077	0.077
Mof_N 	N 	0.06455	0.73627	0.17237	-0.152
Mof_C 	C 	0.08813	0.83317	0.59817	0
Mof_H 	H 	0.09643	0.83317	0.66127	0.001
Mof_C 	C 	0.07363	0.78037	0.21737	-0.055
Mof_H 	H 	0.10693	0.81207	0.20957	0.03
Mof_C 	C 	0.03913	0.79537	0.56727	-0.003
Mof_H 	H 	0.01503	0.76867	0.60837	0.017
Mof_C 	C 	0.01673	0.69297	0.18507	-0.011
Mof_H 	H 	0.00823	0.66137	0.15247	0.02
Mof_C 	C 	0.97953	0.69287	0.24417	0.012
Mof_H 	H 	0.94673	0.66067	0.25327	0
Mof_Ag	Ag	0.93647	0.53813	0.74324	0.574
Mof_C 	C 	0.8854	0.5879	0.6083	0.108
Mof_N 	N 	0.79652	0.58788	0.8767	-0.168
Mof_N 	N 	0.93025	0.58508	0.6221	-0.19
Mof_C 	C 	0.83443	0.56218	0.7559	0.11
Mof_N 	N 	0.8716	0.56249	0.812	-0.169
Mof_C 	C 	0.79814	0.57584	0.7873	-0.059
Mof_H 	H 	0.7735	0.5767	0.7454	0.029
Mof_C 	C 	0.8357	0.5482	0.6573	-0.259
Mof_H 	H 	0.8044	0.5458	0.6254	0.088
Mof_H 	H 	0.8328	0.5127	0.6541	0.077
Mof_N 	N 	0.9304	0.66162	0.5057	-0.152
Mof_C 	C 	0.8335	0.5883	0.9315	0
Mof_H 	H 	0.8335	0.5966	0.9946	0.001
Mof_C 	C 	0.8863	0.6266	0.5507	-0.055
Mof_H 	H 	0.8546	0.6282	0.5429	0.03
Mof_C 	C 	0.8713	0.5771	0.9006	-0.003
Mof_H 	H 	0.898	0.5797	0.9417	0.017
Mof_C 	C 	0.9737	0.6571	0.5184	-0.01
Mof_H 	H 	0.0053	0.6802	0.4858	0.019
Mof_C 	C 	0.9738	0.62	0.5775	0.011
Mof_H 	H 	0.006	0.6194	0.5866	0.001
Mof_Ag	Ag	0.60314	0.87146	0.07657	0.574
Mof_C 	C 	0.55207	0.92123	0.94163	0.108
Mof_N 	N 	0.46319	0.92121	0.21003	-0.168
Mof_N 	N 	0.59692	0.91841	0.95543	-0.19
Mof_C 	C 	0.5011	0.89551	0.08923	0.109
Mof_N 	N 	0.53827	0.89582	0.14533	-0.169
Mof_C 	C 	0.46481	0.90917	0.12063	-0.058
Mof_H 	H 	0.44017	0.91003	0.07873	0.029
Mof_C 	C 	0.50237	0.88153	0.99063	-0.258
Mof_H 	H 	0.47107	0.87913	0.95873	0.088
Mof_H 	H 	0.49947	0.84603	0.98743	0.077
Mof_N 	N 	0.59707	0.99495	0.83903	-0.152
Mof_C 	C 	0.50017	0.92163	0.26483	0
Mof_H 	H 	0.50017	0.92993	0.32793	0.001
Mof_C 	C 	0.55297	0.95993	0.88403	-0.055
Mof_H 	H 	0.52127	0.96153	0.87623	0.03
Mof_C 	C 	0.53797	0.91043	0.23393	-0.003
Mof_H 	H 	0.56467	0.91303	0.27503	0.017
Mof_C 	C 	0.64037	0.99043	0.85173	-0.009
Mof_H 	H 	0.67197	0.01353	0.81913	0.019
Mof_C 	C 	0.64047	0.95333	0.91083	0.01
Mof_H 	H 	0.67267	0.95273	0.91993	0.001
Mof_Ag	Ag	0.2698	0.2048	0.40991	0.574
Mof_C 	C 	0.21873	0.25457	0.27497	0.108
Mof_N 	N 	0.12985	0.25455	0.54337	-0.168
Mof_N 	N 	0.26358	0.25175	0.28877	-0.19
Mof_C 	C 	0.16776	0.22885	0.42257	0.11
Mof_N 	N 	0.20493	0.22916	0.47867	-0.169
Mof_C 	C 	0.13147	0.24251	0.45397	-0.059
Mof_H 	H 	0.10683	0.24337	0.41207	0.029
Mof_C 	C 	0.16903	0.21487	0.32397	-0.259
Mof_H 	H 	0.13773	0.21247	0.29207	0.088
Mof_H 	H 	0.16613	0.17937	0.32077	0.077
Mof_N 	N 	0.26373	0.32829	0.17237	-0.152
Mof_C 	C 	0.16683	0.25497	0.59817	0
Mof_H 	H 	0.16683	0.26327	0.66127	0.001
Mof_C 	C 	0.21963	0.29327	0.21737	-0.055
Mof_H 	H 	0.18793	0.29487	0.20957	0.03
Mof_C 	C 	0.20463	0.24377	0.56727	-0.003
Mof_H 	H 	0.23133	0.24637	0.60837	0.017
Mof_C 	C 	0.30703	0.32377	0.18507	-0.011
Mof_H 	H 	0.33863	0.34687	0.15247	0.02
Mof_C 	C 	0.30713	0.28667	0.24417	0.011
Mof_H 	H 	0.33933	0.28607	0.25327	0
Mof_Ag	Ag	0.46187	0.39834	0.74324	0.575
Mof_C 	C 	0.4121	0.2975	0.6083	0.108
Mof_N 	N 	0.41212	0.20864	0.8767	-0.168
Mof_N 	N 	0.41492	0.34517	0.6221	-0.19
Mof_C 	C 	0.43782	0.27225	0.7559	0.11
Mof_N 	N 	0.43751	0.30911	0.812	-0.169
Mof_C 	C 	0.42416	0.2223	0.7873	-0.059
Mof_H 	H 	0.4233	0.1968	0.7454	0.029
Mof_C 	C 	0.4518	0.2875	0.6573	-0.259
Mof_H 	H 	0.4542	0.2586	0.6254	0.088
Mof_H 	H 	0.4873	0.3201	0.6541	0.077
Mof_N 	N 	0.33838	0.26878	0.5057	-0.152
Mof_C 	C 	0.4117	0.2452	0.9315	0
Mof_H 	H 	0.4034	0.2369	0.9946	0.001
Mof_C 	C 	0.3734	0.2597	0.5507	-0.055
Mof_H 	H 	0.3718	0.2264	0.5429	0.03
Mof_C 	C 	0.4229	0.2942	0.9006	-0.003
Mof_H 	H 	0.4203	0.3183	0.9417	0.017
Mof_C 	C 	0.3429	0.3166	0.5184	-0.011
Mof_H 	H 	0.3198	0.3251	0.4858	0.02
Mof_C 	C 	0.38	0.3538	0.5775	0.011
Mof_H 	H 	0.3806	0.3866	0.5866	0
Mof_Ag	Ag	0.12854	0.73167	0.07657	0.573
Mof_C 	C 	0.07877	0.63083	0.94163	0.108
Mof_N 	N 	0.07879	0.54197	0.21003	-0.168
Mof_N 	N 	0.08159	0.6785	0.95543	-0.189
Mof_C 	C 	0.10449	0.60558	0.08923	0.109
Mof_N 	N 	0.10418	0.64244	0.14533	-0.169
Mof_C 	C 	0.09083	0.55563	0.12063	-0.058
Mof_H 	H 	0.08997	0.53013	0.07873	0.029
Mof_C 	C 	0.11847	0.62083	0.99063	-0.258
Mof_H 	H 	0.12087	0.59193	0.95873	0.088
Mof_H 	H 	0.15397	0.65343	0.98743	0.077
Mof_N 	N 	0.00505	0.60211	0.83903	-0.152
Mof_C 	C 	0.07837	0.57853	0.26483	0
Mof_H 	H 	0.07007	0.57023	0.32793	0.001
Mof_C 	C 	0.04007	0.59303	0.88403	-0.055
Mof_H 	H 	0.03847	0.55973	0.87623	0.03
Mof_C 	C 	0.08957	0.62753	0.23393	-0.003
Mof_H 	H 	0.08697	0.65163	0.27503	0.017
Mof_C 	C 	0.00957	0.64993	0.85173	-0.009
Mof_H 	H 	0.98647	0.65843	0.81913	0.019
Mof_C 	C 	0.04667	0.68713	0.91083	0.01
Mof_H 	H 	0.04727	0.71993	0.91993	0.001
Mof_Ag	Ag	0.7952	0.06501	0.40991	0.575
Mof_C 	C 	0.74543	0.96417	0.27497	0.108
Mof_N 	N 	0.74545	0.87531	0.54337	-0.168
Mof_N 	N 	0.74825	0.01184	0.28877	-0.19
Mof_C 	C 	0.77115	0.93892	0.42257	0.11
Mof_N 	N 	0.77084	0.97578	0.47867	-0.169
Mof_C 	C 	0.75749	0.88897	0.45397	-0.059
Mof_H 	H 	0.75663	0.86347	0.41207	0.029
Mof_C 	C 	0.78513	0.95417	0.32397	-0.259
Mof_H 	H 	0.78753	0.92527	0.29207	0.088
Mof_H 	H 	0.82063	0.98677	0.32077	0.077
Mof_N 	N 	0.67171	0.93545	0.17237	-0.152
Mof_C 	C 	0.74503	0.91187	0.59817	0
Mof_H 	H 	0.73673	0.90357	0.66127	0.001
Mof_C 	C 	0.70673	0.92637	0.21737	-0.055
Mof_H 	H 	0.70513	0.89307	0.20957	0.03
Mof_C 	C 	0.75623	0.96087	0.56727	-0.003
Mof_H 	H 	0.75363	0.98497	0.60837	0.017
Mof_C 	C 	0.67623	0.98327	0.18507	-0.011
Mof_H 	H 	0.65313	0.99177	0.15247	0.02
Mof_C 	C 	0.71333	0.02047	0.24417	0.012
Mof_H 	H 	0.71393	0.05327	0.25327	0
Mof_Ag	Ag	0.39834	0.93647	0.25676	0.574
Mof_C 	C 	0.2975	0.8854	0.3917	0.108
Mof_N 	N 	0.20864	0.79652	0.1233	-0.168
Mof_N 	N 	0.34517	0.93025	0.3779	-0.19
Mof_C 	C 	0.27225	0.83443	0.2441	0.11
Mof_N 	N 	0.30911	0.8716	0.188	-0.169
Mof_C 	C 	0.2223	0.79814	0.2127	-0.059
Mof_H 	H 	0.1968	0.7735	0.2546	0.029
Mof_C 	C 	0.2875	0.8357	0.3427	-0.259
Mof_H 	H 	0.2586	0.8044	0.3746	0.088
Mof_H 	H 	0.3201	0.8328	0.3459	0.077
Mof_N 	N 	0.26878	0.9304	0.4943	-0.152
Mof_C 	C 	0.2452	0.8335	0.0685	-0
Mof_H 	H 	0.2369	0.8335	0.0054	0.001
Mof_C 	C 	0.2597	0.8863	0.4493	-0.055
Mof_H 	H 	0.2264	0.8546	0.4571	0.03
Mof_C 	C 	0.2942	0.8713	0.0994	-0.003
Mof_H 	H 	0.3183	0.898	0.0583	0.017
Mof_C 	C 	0.3166	0.9737	0.4816	-0.011
Mof_H 	H 	0.3251	0.0053	0.5142	0.019
Mof_C 	C 	0.3538	0.9738	0.4225	0.011
Mof_H 	H 	0.3866	0.006	0.4134	0.001
Mof_Ag	Ag	0.06501	0.2698	0.59009	0.575
Mof_C 	C 	0.96417	0.21873	0.72503	0.108
Mof_N 	N 	0.87531	0.12985	0.45663	-0.168
Mof_N 	N 	0.01184	0.26358	0.71123	-0.19
Mof_C 	C 	0.93892	0.16776	0.57743	0.11
Mof_N 	N 	0.97578	0.20493	0.52133	-0.169
Mof_C 	C 	0.88897	0.13147	0.54603	-0.058
Mof_H 	H 	0.86347	0.10683	0.58793	0.029
Mof_C 	C 	0.95417	0.16903	0.67603	-0.259
Mof_H 	H 	0.92527	0.13773	0.70793	0.088
Mof_H 	H 	0.98677	0.16613	0.67923	0.077
Mof_N 	N 	0.93545	0.26373	0.82763	-0.152
Mof_C 	C 	0.91187	0.16683	0.40183	0
Mof_H 	H 	0.90357	0.16683	0.33873	0.001
Mof_C 	C 	0.92637	0.21963	0.78263	-0.055
Mof_H 	H 	0.89307	0.18793	0.79043	0.03
Mof_C 	C 	0.96087	0.20463	0.43273	-0.003
Mof_H 	H 	0.98497	0.23133	0.39163	0.017
Mof_C 	C 	0.98327	0.30703	0.81493	-0.011
Mof_H 	H 	0.99177	0.33863	0.84753	0.02
Mof_C 	C 	0.02047	0.30713	0.75583	0.012
Mof_H 	H 	0.05327	0.33933	0.74673	0
Mof_Ag	Ag	0.73167	0.60314	0.92343	0.574
Mof_C 	C 	0.63083	0.55207	0.05837	0.108
Mof_N 	N 	0.54197	0.46319	0.78997	-0.168
Mof_N 	N 	0.6785	0.59692	0.04457	-0.19
Mof_C 	C 	0.60558	0.5011	0.91077	0.11
Mof_N 	N 	0.64244	0.53827	0.85467	-0.169
Mof_C 	C 	0.55563	0.46481	0.87937	-0.058
Mof_H 	H 	0.53013	0.44017	0.92127	0.029
Mof_C 	C 	0.62083	0.50237	0.00937	-0.259
Mof_H 	H 	0.59193	0.47107	0.04127	0.088
Mof_H 	H 	0.65343	0.49947	0.01257	0.077
Mof_N 	N 	0.60211	0.59707	0.16097	-0.152
Mof_C 	C 	0.57853	0.50017	0.73517	0
Mof_H 	H 	0.57023	0.50017	0.67207	0.001
Mof_C 	C 	0.59303	0.55297	0.11597	-0.055
Mof_H 	H 	0.55973	0.52127	0.12377	0.03
Mof_C 	C 	0.62753	0.53797	0.76607	-0.003
Mof_H 	H 	0.65163	0.56467	0.72497	0.017
Mof_C 	C 	0.64993	0.64037	0.14827	-0.011
Mof_H 	H 	0.65843	0.67197	0.18087	0.02
Mof_C 	C 	0.68713	0.64047	0.08917	0.011
Mof_H 	H 	0.71993	0.67267	0.08007	0
Mof_Ag	Ag	0.06353	0.46187	0.25676	0.574
Mof_C 	C 	0.1146	0.4121	0.3917	0.108
Mof_N 	N 	0.20348	0.41212	0.1233	-0.168
Mof_N 	N 	0.06975	0.41492	0.3779	-0.19
Mof_C 	C 	0.16557	0.43782	0.2441	0.11
Mof_N 	N 	0.1284	0.43751	0.188	-0.169
Mof_C 	C 	0.20186	0.42416	0.2127	-0.059
Mof_H 	H 	0.2265	0.4233	0.2546	0.029
Mof_C 	C 	0.1643	0.4518	0.3427	-0.259
Mof_H 	H 	0.1956	0.4542	0.3746	0.088
Mof_H 	H 	0.1672	0.4873	0.3459	0.077
Mof_N 	N 	0.0696	0.33838	0.4943	-0.152
Mof_C 	C 	0.1665	0.4117	0.0685	0
Mof_H 	H 	0.1665	0.4034	0.0054	0.001
Mof_C 	C 	0.1137	0.3734	0.4493	-0.055
Mof_H 	H 	0.1454	0.3718	0.4571	0.03
Mof_C 	C 	0.1287	0.4229	0.0994	-0.003
Mof_H 	H 	0.102	0.4203	0.0583	0.017
Mof_C 	C 	0.0263	0.3429	0.4816	-0.01
Mof_H 	H 	0.9947	0.3198	0.5142	0.019
Mof_C 	C 	0.0262	0.38	0.4225	0.011
Mof_H 	H 	0.994	0.3806	0.4134	0.001
Mof_Ag	Ag	0.7302	0.7952	0.59009	0.574
Mof_C 	C 	0.78127	0.74543	0.72503	0.108
Mof_N 	N 	0.87015	0.74545	0.45663	-0.168
Mof_N 	N 	0.73642	0.74825	0.71123	-0.19
Mof_C 	C 	0.83224	0.77115	0.57743	0.11
Mof_N 	N 	0.79507	0.77084	0.52133	-0.169
Mof_C 	C 	0.86853	0.75749	0.54603	-0.059
Mof_H 	H 	0.89317	0.75663	0.58793	0.029
Mof_C 	C 	0.83097	0.78513	0.67603	-0.259
Mof_H 	H 	0.86227	0.78753	0.70793	0.088
Mof_H 	H 	0.83387	0.82063	0.67923	0.077
Mof_N 	N 	0.73627	0.67171	0.82763	-0.152
Mof_C 	C 	0.83317	0.74503	0.40183	0
Mof_H 	H 	0.83317	0.73673	0.33873	0.001
Mof_C 	C 	0.78037	0.70673	0.78263	-0.055
Mof_H 	H 	0.81207	0.70513	0.79043	0.03
Mof_C 	C 	0.79537	0.75623	0.43273	-0.003
Mof_H 	H 	0.76867	0.75363	0.39163	0.017
Mof_C 	C 	0.69297	0.67623	0.81493	-0.011
Mof_H 	H 	0.66137	0.65313	0.84753	0.02
Mof_C 	C 	0.69287	0.71333	0.75583	0.011
Mof_H 	H 	0.66067	0.71393	0.74673	0
Mof_Ag	Ag	0.39686	0.12854	0.92343	0.574
Mof_C 	C 	0.44793	0.07877	0.05837	0.108
Mof_N 	N 	0.53681	0.07879	0.78997	-0.168
Mof_N 	N 	0.40308	0.08159	0.04457	-0.19
Mof_C 	C 	0.4989	0.10449	0.91077	0.109
Mof_N 	N 	0.46173	0.10418	0.85467	-0.169
Mof_C 	C 	0.53519	0.09083	0.87937	-0.058
Mof_H 	H 	0.55983	0.08997	0.92127	0.029
Mof_C 	C 	0.49763	0.11847	0.00937	-0.258
Mof_H 	H 	0.52893	0.12087	0.04127	0.088
Mof_H 	H 	0.50053	0.15397	0.01257	0.077
Mof_N 	N 	0.40293	0.00505	0.16097	-0.152
Mof_C 	C 	0.49983	0.07837	0.73517	0
Mof_H 	H 	0.49983	0.07007	0.67207	0.001
Mof_C 	C 	0.44703	0.04007	0.11597	-0.055
Mof_H 	H 	0.47873	0.03847	0.12377	0.03
Mof_C 	C 	0.46203	0.08957	0.76607	-0.003
Mof_H 	H 	0.43533	0.08697	0.72497	0.017
Mof_C 	C 	0.35963	0.00957	0.14827	-0.009
Mof_H 	H 	0.32803	0.98647	0.18087	0.019
Mof_C 	C 	0.35953	0.04667	0.08917	0.01
Mof_H 	H 	0.32733	0.04727	0.08007	0.001
Mof_Ag	Ag	0.53813	0.60166	0.25676	0.575
Mof_C 	C 	0.5879	0.7025	0.3917	0.108
Mof_N 	N 	0.58788	0.79136	0.1233	-0.168
Mof_N 	N 	0.58508	0.65483	0.3779	-0.19
Mof_C 	C 	0.56218	0.72775	0.2441	0.11
Mof_N 	N 	0.56249	0.69089	0.188	-0.169
Mof_C 	C 	0.57584	0.7777	0.2127	-0.059
Mof_H 	H 	0.5767	0.8032	0.2546	0.029
Mof_C 	C 	0.5482	0.7125	0.3427	-0.259
Mof_H 	H 	0.5458	0.7414	0.3746	0.088
Mof_H 	H 	0.5127	0.6799	0.3459	0.077
Mof_N 	N 	0.66162	0.73122	0.4943	-0.152
Mof_C 	C 	0.5883	0.7548	0.0685	0
Mof_H 	H 	0.5966	0.7631	0.0054	0.001
Mof_C 	C 	0.6266	0.7403	0.4493	-0.055
Mof_H 	H 	0.6282	0.7736	0.4571	0.03
Mof_C 	C 	0.5771	0.7058	0.0994	-0.003
Mof_H 	H 	0.5797	0.6817	0.0583	0.017
Mof_C 	C 	0.6571	0.6834	0.4816	-0.011
Mof_H 	H 	0.6802	0.6749	0.5142	0.02
Mof_C 	C 	0.62	0.6462	0.4225	0.011
Mof_H 	H 	0.6194	0.6134	0.4134	0
Mof_Ag	Ag	0.2048	0.93499	0.59009	0.575
Mof_C 	C 	0.25457	0.03583	0.72503	0.108
Mof_N 	N 	0.25455	0.12469	0.45663	-0.168
Mof_N 	N 	0.25175	0.98816	0.71123	-0.19
Mof_C 	C 	0.22885	0.06108	0.57743	0.11
Mof_N 	N 	0.22916	0.02422	0.52133	-0.169
Mof_C 	C 	0.24251	0.11103	0.54603	-0.059
Mof_H 	H 	0.24337	0.13653	0.58793	0.029
Mof_C 	C 	0.21487	0.04583	0.67603	-0.259
Mof_H 	H 	0.21247	0.07473	0.70793	0.088
Mof_H 	H 	0.17937	0.01323	0.67923	0.077
Mof_N 	N 	0.32829	0.06455	0.82763	-0.152
Mof_C 	C 	0.25497	0.08813	0.40183	0
Mof_H 	H 	0.26327	0.09643	0.33873	0.001
Mof_C 	C 	0.29327	0.07363	0.78263	-0.055
Mof_H 	H 	0.29487	0.10693	0.79043	0.03
Mof_C 	C 	0.24377	0.03913	0.43273	-0.003
Mof_H 	H 	0.24637	0.01503	0.39163	0.017
Mof_C 	C 	0.32377	0.01673	0.81493	-0.011
Mof_H 	H 	0.34687	0.00823	0.84753	0.02
Mof_C 	C 	0.28667	0.97953	0.75583	0.012
Mof_H 	H 	0.28607	0.94673	0.74673	0
Mof_Ag	Ag	0.87146	0.26833	0.92343	0.573
Mof_C 	C 	0.92123	0.36917	0.05837	0.108
Mof_N 	N 	0.92121	0.45803	0.78997	-0.168
Mof_N 	N 	0.91841	0.3215	0.04457	-0.189
Mof_C 	C 	0.89551	0.39442	0.91077	0.109
Mof_N 	N 	0.89582	0.35756	0.85467	-0.169
Mof_C 	C 	0.90917	0.44437	0.87937	-0.058
Mof_H 	H 	0.91003	0.46987	0.92127	0.029
Mof_C 	C 	0.88153	0.37917	0.00937	-0.258
Mof_H 	H 	0.87913	0.40807	0.04127	0.088
Mof_H 	H 	0.84603	0.34657	0.01257	0.077
Mof_N 	N 	0.99495	0.39789	0.16097	-0.152
Mof_C 	C 	0.92163	0.42147	0.73517	0
Mof_H 	H 	0.92993	0.42977	0.67207	0.001
Mof_C 	C 	0.95993	0.40697	0.11597	-0.055
Mof_H 	H 	0.96153	0.44027	0.12377	0.03
Mof_C 	C 	0.91043	0.37247	0.76607	-0.003
Mof_H 	H 	0.91303	0.34837	0.72497	0.017
Mof_C 	C 	0.99043	0.35007	0.14827	-0.009
Mof_H 	H 	0.01353	0.34157	0.18087	0.019
Mof_C 	C 	0.95333	0.31287	0.08917	0.01
Mof_H 	H 	0.95273	0.28007	0.08007	0.001
_end
