data_functionalizedCrystal
_audit_creation_method	'EQeq! by Chris Wilmer'
_symmetry_space_group_name_H-M	'P1'
_symmetry_Int_Tables_number	1
_symmetry_cell_setting	triclinic
loop_
_symmetry_equiv_pos_as_xyz
  x,y,z
_cell_length_a	10.039
_cell_length_b	17.3885
_cell_length_c	16.7356
_cell_angle_alpha	90
_cell_angle_beta	90
_cell_angle_gamma	90
loop_
_atom_site_label
_atom_site_type_symbol
_atom_site_fract_x
_atom_site_fract_y
_atom_site_fract_z
_atom_site_charge
Mof_Ga	Ga	0.2647	0.5785	0.9167	3.568
Mof_Mn	Mn	0.8113	0.7297	0.9167	0.999
Mof_P 	P 	0.4799	0.6994	0.9242	0.708
Mof_P 	P 	0.1908	0.4104	0.9093	0.714
Mof_P 	P 	0.789	0.6098	0.7577	0.71
Mof_O 	O 	0.4345	0.6131	0.9252	-1.066
Mof_O 	O 	0.4837	0.7234	0.8343	-1.017
Mof_O 	O 	0.6188	0.7023	0.9598	-0.41
Mof_O 	O 	0.3791	0.7497	0.9656	-0.46
Mof_O 	O 	0.297	0.4759	0.9082	-1.064
Mof_O 	O 	0.1569	0.3967	0.9989	-1.058
Mof_O 	O 	0.2561	0.34	0.8732	-0.421
Mof_O 	O 	0.0659	0.436	0.868	-0.496
Mof_O 	O 	0.6375	0.5893	0.7593	-1.059
Mof_O 	O 	0.8271	0.6197	0.6676	-0.966
Mof_O 	O 	0.862	0.5415	0.7927	-0.282
Mof_O 	O 	0.8136	0.6855	0.7982	-0.415
Mof_Ga	Ga	0.7647	0.0785	0.9167	3.599
Mof_Mn	Mn	0.3113	0.2297	0.9167	0.88
Mof_P 	P 	0.9799	0.1994	0.9242	0.839
Mof_P 	P 	0.6908	0.9104	0.9093	0.723
Mof_P 	P 	0.289	0.1098	0.7577	0.686
Mof_O 	O 	0.9345	0.1131	0.9252	-1.011
Mof_O 	O 	0.9837	0.2234	0.8343	-0.701
Mof_O 	O 	0.1188	0.2023	0.9598	-0.559
Mof_O 	O 	0.8791	0.2497	0.9656	-0.435
Mof_O 	O 	0.797	0.9759	0.9082	-1.038
Mof_O 	O 	0.6569	0.8967	0.9989	-1.019
Mof_O 	O 	0.7561	0.84	0.8732	-0.395
Mof_O 	O 	0.5659	0.936	0.868	-0.461
Mof_O 	O 	0.1375	0.0893	0.7593	-0.934
Mof_O 	O 	0.3271	0.1197	0.6676	-0.998
Mof_O 	O 	0.362	0.0415	0.7927	-0.431
Mof_O 	O 	0.3136	0.1855	0.7982	-0.444
Mof_Ga	Ga	0.7353	0.4215	0.4167	3.636
Mof_Mn	Mn	0.1887	0.2703	0.4167	0.816
Mof_P 	P 	0.5201	0.3006	0.4242	0.709
Mof_P 	P 	0.8092	0.5896	0.4093	0.718
Mof_P 	P 	0.211	0.3902	0.2577	0.7
Mof_O 	O 	0.5655	0.3869	0.4252	-1.089
Mof_O 	O 	0.5163	0.2766	0.3343	-1.008
Mof_O 	O 	0.3812	0.2977	0.4598	-0.41
Mof_O 	O 	0.6209	0.2503	0.4656	-0.446
Mof_O 	O 	0.703	0.5241	0.4082	-1.077
Mof_O 	O 	0.8431	0.6033	0.4989	-0.98
Mof_O 	O 	0.7439	0.66	0.3732	-0.378
Mof_O 	O 	0.9341	0.564	0.368	-0.309
Mof_O 	O 	0.3625	0.4107	0.2593	-1.062
Mof_O 	O 	0.1729	0.3803	0.1676	-1.05
Mof_O 	O 	0.138	0.4585	0.2927	-0.442
Mof_O 	O 	0.1864	0.3145	0.2982	-0.49
Mof_Ga	Ga	0.2353	0.9215	0.4167	3.567
Mof_Mn	Mn	0.6887	0.7703	0.4167	0.933
Mof_P 	P 	0.0201	0.8006	0.4242	0.522
Mof_P 	P 	0.3092	0.0896	0.4093	0.719
Mof_P 	P 	0.711	0.8902	0.2577	0.684
Mof_O 	O 	0.0655	0.8869	0.4252	-1.08
Mof_O 	O 	0.0163	0.7766	0.3343	-0.884
Mof_O 	O 	0.8812	0.7977	0.4598	-0.242
Mof_O 	O 	0.1209	0.7503	0.4656	-0.464
Mof_O 	O 	0.203	0.0241	0.4082	-1.094
Mof_O 	O 	0.3431	0.1033	0.4989	-1.008
Mof_O 	O 	0.2439	0.16	0.3732	-0.43
Mof_O 	O 	0.4341	0.064	0.368	-0.451
Mof_O 	O 	0.8625	0.9107	0.2593	-0.771
Mof_O 	O 	0.6729	0.8803	0.1676	-1.002
Mof_O 	O 	0.638	0.9585	0.2927	-0.396
Mof_O 	O 	0.6864	0.8145	0.2982	-0.408
Mof_Ga	Ga	0.7353	0.5785	0.5833	3.636
Mof_Mn	Mn	0.1887	0.7297	0.5833	0.816
Mof_P 	P 	0.5201	0.6994	0.5758	0.709
Mof_P 	P 	0.8092	0.4104	0.5907	0.718
Mof_P 	P 	0.211	0.6098	0.7423	0.7
Mof_O 	O 	0.5655	0.6131	0.5748	-1.089
Mof_O 	O 	0.5163	0.7234	0.6657	-1.008
Mof_O 	O 	0.3812	0.7023	0.5402	-0.41
Mof_O 	O 	0.6209	0.7497	0.5344	-0.446
Mof_O 	O 	0.703	0.4759	0.5918	-1.077
Mof_O 	O 	0.8431	0.3967	0.5011	-0.98
Mof_O 	O 	0.7439	0.34	0.6268	-0.378
Mof_O 	O 	0.9341	0.436	0.632	-0.309
Mof_O 	O 	0.3625	0.5893	0.7407	-1.062
Mof_O 	O 	0.1729	0.6197	0.8324	-1.05
Mof_O 	O 	0.138	0.5415	0.7073	-0.442
Mof_O 	O 	0.1864	0.6855	0.7018	-0.49
Mof_Ga	Ga	0.2353	0.0785	0.5833	3.567
Mof_Mn	Mn	0.6887	0.2297	0.5833	0.933
Mof_P 	P 	0.0201	0.1994	0.5758	0.522
Mof_P 	P 	0.3092	0.9104	0.5907	0.719
Mof_P 	P 	0.711	0.1098	0.7423	0.684
Mof_O 	O 	0.0655	0.1131	0.5748	-1.08
Mof_O 	O 	0.0163	0.2234	0.6657	-0.884
Mof_O 	O 	0.8812	0.2023	0.5402	-0.242
Mof_O 	O 	0.1209	0.2497	0.5344	-0.464
Mof_O 	O 	0.203	0.9759	0.5918	-1.094
Mof_O 	O 	0.3431	0.8967	0.5011	-1.008
Mof_O 	O 	0.2439	0.84	0.6268	-0.43
Mof_O 	O 	0.4341	0.936	0.632	-0.451
Mof_O 	O 	0.8625	0.0893	0.7407	-0.771
Mof_O 	O 	0.6729	0.1197	0.8324	-1.002
Mof_O 	O 	0.638	0.0415	0.7073	-0.396
Mof_O 	O 	0.6864	0.1855	0.7018	-0.408
Mof_Ga	Ga	0.2647	0.4215	0.0833	3.568
Mof_Mn	Mn	0.8113	0.2703	0.0833	0.999
Mof_P 	P 	0.4799	0.3006	0.0758	0.708
Mof_P 	P 	0.1908	0.5896	0.0907	0.714
Mof_P 	P 	0.789	0.3902	0.2423	0.71
Mof_O 	O 	0.4345	0.3869	0.0748	-1.066
Mof_O 	O 	0.4837	0.2766	0.1657	-1.017
Mof_O 	O 	0.6188	0.2977	0.0402	-0.41
Mof_O 	O 	0.3791	0.2503	0.0344	-0.46
Mof_O 	O 	0.297	0.5241	0.0918	-1.064
Mof_O 	O 	0.1569	0.6033	0.0011	-1.058
Mof_O 	O 	0.2561	0.66	0.1268	-0.421
Mof_O 	O 	0.0659	0.564	0.132	-0.496
Mof_O 	O 	0.6375	0.4107	0.2407	-1.059
Mof_O 	O 	0.8271	0.3803	0.3324	-0.966
Mof_O 	O 	0.862	0.4585	0.2073	-0.282
Mof_O 	O 	0.8136	0.3145	0.2018	-0.415
Mof_Ga	Ga	0.7647	0.9215	0.0833	3.599
Mof_Mn	Mn	0.3113	0.7703	0.0833	0.88
Mof_P 	P 	0.9799	0.8006	0.0758	0.839
Mof_P 	P 	0.6908	0.0896	0.0907	0.723
Mof_P 	P 	0.289	0.8902	0.2423	0.686
Mof_O 	O 	0.9345	0.8869	0.0748	-1.011
Mof_O 	O 	0.9837	0.7766	0.1657	-0.701
Mof_O 	O 	0.1188	0.7977	0.0402	-0.559
Mof_O 	O 	0.8791	0.7503	0.0344	-0.435
Mof_O 	O 	0.797	0.0241	0.0918	-1.038
Mof_O 	O 	0.6569	0.1033	0.0011	-1.019
Mof_O 	O 	0.7561	0.16	0.1268	-0.395
Mof_O 	O 	0.5659	0.064	0.132	-0.461
Mof_O 	O 	0.1375	0.9107	0.2407	-0.934
Mof_O 	O 	0.3271	0.8803	0.3324	-0.998
Mof_O 	O 	0.362	0.9585	0.2073	-0.431
Mof_O 	O 	0.3136	0.8145	0.2018	-0.444
Mof_Ga	Ga	0.5	0.6571	0.75	3.567
Mof_Ga	Ga	-3.953e-33	0.1571	0.75	2.587
Mof_Ga	Ga	0.5	0.3429	0.25	3.567
Mof_Ga	Ga	-2.75781e-33	0.8429	0.25	2.587
Mof_Mn	Mn	-3.953e-33	0.4592	0.75	0.614
Mof_Mn	Mn	0.5	0.9592	0.75	0.913
Mof_Mn	Mn	-1.13987e-32	0.5408	0.25	0.614
Mof_Mn	Mn	0.5	0.0408	0.25	0.913
_end
