data_functionalizedCrystal
_audit_creation_method	'EQeq! by Chris Wilmer'
_symmetry_space_group_name_H-M	'P1'
_symmetry_Int_Tables_number	1
_symmetry_cell_setting	triclinic
loop_
_symmetry_equiv_pos_as_xyz
  x,y,z
_cell_length_a	22.5121
_cell_length_b	22.661
_cell_length_c	33.3409
_cell_angle_alpha	90
_cell_angle_beta	90
_cell_angle_gamma	90
loop_
_atom_site_label
_atom_site_type_symbol
_atom_site_fract_x
_atom_site_fract_y
_atom_site_fract_z
_atom_site_charge
Mof_In	In	0.91361	0.30102	0.2555	1.436
Mof_In	In	0.82206	0.23196	0.33533	1.461
Mof_In	In	0.98401	0.31012	0.35687	1.468
Mof_In	In	0.97621	0.15883	0.29199	1.461
Mof_In	In	0.7527	0.15495	0.42251	1.444
Mof_In	In	0.89206	0.23307	0.44854	1.468
Mof_In	In	0.04184	0.3015	0.46103	1.442
Mof_In	In	0.88527	0.07841	0.38281	1.457
Mof_In	In	0.04437	0.15772	0.4071	1.465
Mof_In	In	0.03172	0.02362	0.34507	1.431
Mof_S 	S 	0.81102	0.2887	0.27467	-0.754
Mof_S 	S 	0.9768	0.3646	0.29535	-0.748
Mof_S 	S 	0.9642	0.2137	0.23043	-0.742
Mof_S 	S 	0.72553	0.2097	0.36252	-0.747
Mof_S 	S 	0.88248	0.29033	0.38451	-1.121
Mof_S 	S 	0.0418	0.3674	0.40371	-0.745
Mof_S 	S 	0.8745	0.13698	0.3197	-1.115
Mof_S 	S 	0.03558	0.2147	0.34316	-1.121
Mof_S 	S 	0.0305	0.0695	0.27939	-0.744
Mof_S 	S 	0.795	0.2144	0.47541	-0.748
Mof_S 	S 	0.9488	0.2898	0.49613	-0.753
Mof_S 	S 	0.7898	0.0565	0.41134	-0.759
Mof_S 	S 	0.94284	0.13689	0.43366	-1.131
Mof_S 	S 	0.1027	0.2141	0.45404	-0.745
Mof_S 	S 	0.9355	0.987	0.36723	-0.745
Mof_S 	S 	0.0955	0.066	0.39586	-0.752
Mof_N 	N 	0.5939	0.1525	0.4937	-0.3
Mof_N 	N 	0.6683	0.1379	0.4512	-0.308
Mof_N 	N 	0.9021	0.3617	0.2052	-0.302
Mof_N 	N 	0.9213	0.4423	0.1703	-0.3
Mof_C 	C 	0.629	0.0921	0.449	0.016
Mof_H 	H 	0.6329	0.0593	0.4314	-0.008
Mof_C 	C 	0.8533	0.3758	0.1848	0.014
Mof_H 	H 	0.817	0.3543	0.1849	-0.007
Mof_C 	C 	0.5829	0.0997	0.4759	0.003
Mof_H 	H 	0.5506	0.0738	0.4809	-0.006
Mof_C 	C 	0.6437	0.1727	0.4771	0.125
Mof_H 	H 	0.66	0.21	0.4838	-0.054
Mof_C 	C 	0.8642	0.4257	0.1639	0.001
Mof_H 	H 	0.8364	0.4459	0.1475	-0.002
Mof_C 	C 	0.9407	0.4035	0.1964	0.125
Mof_H 	H 	0.9792	0.4054	0.208	-0.063
Mof_In	In	0.58639	0.69898	0.7555	1.437
Mof_In	In	0.67794	0.76804	0.83533	1.462
Mof_In	In	0.51599	0.68988	0.85687	1.47
Mof_In	In	0.52379	0.84117	0.79199	1.464
Mof_In	In	0.7473	0.84505	0.92251	1.445
Mof_In	In	0.60794	0.76693	0.94854	1.469
Mof_In	In	0.45816	0.6985	0.96103	1.441
Mof_In	In	0.61473	0.92159	0.88281	1.46
Mof_In	In	0.45563	0.84228	0.9071	1.464
Mof_In	In	0.46828	0.97638	0.84507	1.428
Mof_S 	S 	0.68898	0.7113	0.77467	-0.754
Mof_S 	S 	0.5232	0.6354	0.79535	-0.749
Mof_S 	S 	0.5358	0.7863	0.73043	-0.743
Mof_S 	S 	0.77447	0.7903	0.86252	-0.747
Mof_S 	S 	0.61752	0.70967	0.88451	-1.121
Mof_S 	S 	0.4582	0.6326	0.90371	-0.746
Mof_S 	S 	0.6255	0.86302	0.8197	-1.115
Mof_S 	S 	0.46442	0.7853	0.84316	-1.123
Mof_S 	S 	0.4695	0.9305	0.77939	-0.746
Mof_S 	S 	0.705	0.7856	0.97541	-0.748
Mof_S 	S 	0.5512	0.7102	0.99613	-0.754
Mof_S 	S 	0.7102	0.9435	0.91134	-0.759
Mof_S 	S 	0.55716	0.86311	0.93366	-1.131
Mof_S 	S 	0.3973	0.7859	0.95404	-0.745
Mof_S 	S 	0.5645	0.013	0.86723	-0.746
Mof_S 	S 	0.4045	0.934	0.89586	-0.753
Mof_N 	N 	0.9061	0.8475	0.9937	-0.301
Mof_N 	N 	0.8317	0.8621	0.9512	-0.308
Mof_N 	N 	0.5979	0.6383	0.7052	-0.302
Mof_N 	N 	0.5787	0.5577	0.6703	-0.3
Mof_C 	C 	0.871	0.9079	0.949	0.016
Mof_H 	H 	0.8671	0.9407	0.9314	-0.008
Mof_C 	C 	0.6467	0.6242	0.6848	0.014
Mof_H 	H 	0.683	0.6457	0.6849	-0.007
Mof_C 	C 	0.9171	0.9003	0.9759	0.003
Mof_H 	H 	0.9494	0.9262	0.9809	-0.006
Mof_C 	C 	0.8563	0.8273	0.9771	0.125
Mof_H 	H 	0.84	0.79	0.9838	-0.054
Mof_C 	C 	0.6358	0.5743	0.6639	0.001
Mof_H 	H 	0.6636	0.5541	0.6475	-0.002
Mof_C 	C 	0.5593	0.5965	0.6964	0.125
Mof_H 	H 	0.5208	0.5946	0.708	-0.064
Mof_In	In	0.08639	0.80102	0.2445	1.436
Mof_In	In	0.17794	0.73196	0.16467	1.462
Mof_In	In	0.01599	0.81012	0.14313	1.47
Mof_In	In	0.02379	0.65883	0.20801	1.465
Mof_In	In	0.2473	0.65495	0.07749	1.445
Mof_In	In	0.10794	0.73307	0.05146	1.469
Mof_In	In	0.95816	0.8015	0.03897	1.443
Mof_In	In	0.11473	0.57841	0.11719	1.461
Mof_In	In	0.95563	0.65772	0.0929	1.465
Mof_In	In	0.96828	0.52362	0.15493	1.431
Mof_S 	S 	0.18898	0.7887	0.22533	-0.754
Mof_S 	S 	0.0232	0.8646	0.20465	-0.748
Mof_S 	S 	0.0358	0.7137	0.26957	-0.742
Mof_S 	S 	0.27447	0.7097	0.13748	-0.747
Mof_S 	S 	0.11752	0.79033	0.11549	-1.122
Mof_S 	S 	0.9582	0.8674	0.09629	-0.745
Mof_S 	S 	0.1255	0.63698	0.1803	-1.115
Mof_S 	S 	0.96442	0.7147	0.15684	-1.122
Mof_S 	S 	0.9695	0.5695	0.22061	-0.745
Mof_S 	S 	0.205	0.7144	0.02459	-0.748
Mof_S 	S 	0.0512	0.7898	0.00387	-0.753
Mof_S 	S 	0.2102	0.5565	0.08866	-0.759
Mof_S 	S 	0.05716	0.63689	0.06634	-1.13
Mof_S 	S 	0.8973	0.7141	0.04596	-0.745
Mof_S 	S 	0.0645	0.487	0.13277	-0.745
Mof_S 	S 	0.9045	0.566	0.10414	-0.752
Mof_N 	N 	0.4061	0.6525	0.0063	-0.3
Mof_N 	N 	0.3317	0.6379	0.0488	-0.308
Mof_N 	N 	0.0979	0.8617	0.2948	-0.302
Mof_N 	N 	0.0787	0.9423	0.3297	-0.301
Mof_C 	C 	0.371	0.5921	0.051	0.016
Mof_H 	H 	0.3671	0.5593	0.0686	-0.008
Mof_C 	C 	0.1467	0.8758	0.3152	0.014
Mof_H 	H 	0.183	0.8543	0.3151	-0.007
Mof_C 	C 	0.4171	0.5997	0.0241	0.003
Mof_H 	H 	0.4494	0.5738	0.0191	-0.006
Mof_C 	C 	0.3563	0.6727	0.0229	0.125
Mof_H 	H 	0.34	0.71	0.0162	-0.054
Mof_C 	C 	0.1358	0.9257	0.3361	0.001
Mof_H 	H 	0.1636	0.9459	0.3525	-0.003
Mof_C 	C 	0.0593	0.9035	0.3036	0.125
Mof_H 	H 	0.0208	0.9054	0.292	-0.064
Mof_In	In	0.41361	0.19898	0.7445	1.437
Mof_In	In	0.32206	0.26804	0.66467	1.462
Mof_In	In	0.48401	0.18988	0.64313	1.47
Mof_In	In	0.47621	0.34117	0.70801	1.464
Mof_In	In	0.2527	0.34505	0.57749	1.445
Mof_In	In	0.39206	0.26693	0.55146	1.469
Mof_In	In	0.54184	0.1985	0.53897	1.441
Mof_In	In	0.38527	0.42159	0.61719	1.461
Mof_In	In	0.54437	0.34228	0.5929	1.464
Mof_In	In	0.53172	0.47638	0.65493	1.43
Mof_S 	S 	0.31102	0.2113	0.72533	-0.754
Mof_S 	S 	0.4768	0.1354	0.70465	-0.749
Mof_S 	S 	0.4642	0.2863	0.76957	-0.743
Mof_S 	S 	0.22553	0.2903	0.63748	-0.747
Mof_S 	S 	0.38248	0.20967	0.61549	-1.121
Mof_S 	S 	0.5418	0.1326	0.59629	-0.746
Mof_S 	S 	0.3745	0.36302	0.6803	-1.115
Mof_S 	S 	0.53558	0.2853	0.65684	-1.123
Mof_S 	S 	0.5305	0.4305	0.72061	-0.745
Mof_S 	S 	0.295	0.2856	0.52459	-0.748
Mof_S 	S 	0.4488	0.2102	0.50387	-0.753
Mof_S 	S 	0.2898	0.4435	0.58866	-0.759
Mof_S 	S 	0.44284	0.36311	0.56634	-1.13
Mof_S 	S 	0.6027	0.2859	0.54596	-0.745
Mof_S 	S 	0.4355	0.513	0.63277	-0.746
Mof_S 	S 	0.5955	0.434	0.60414	-0.752
Mof_N 	N 	0.0939	0.3475	0.5063	-0.301
Mof_N 	N 	0.1683	0.3621	0.5488	-0.308
Mof_N 	N 	0.4021	0.1383	0.7948	-0.302
Mof_N 	N 	0.4213	0.0577	0.8297	-0.3
Mof_C 	C 	0.129	0.4079	0.551	0.016
Mof_H 	H 	0.1329	0.4407	0.5686	-0.008
Mof_C 	C 	0.3533	0.1242	0.8152	0.014
Mof_H 	H 	0.317	0.1457	0.8151	-0.007
Mof_C 	C 	0.0829	0.4003	0.5241	0.003
Mof_H 	H 	0.0506	0.4262	0.5191	-0.006
Mof_C 	C 	0.1437	0.3273	0.5229	0.125
Mof_H 	H 	0.16	0.29	0.5162	-0.054
Mof_C 	C 	0.3642	0.0743	0.8361	0.001
Mof_H 	H 	0.3364	0.0541	0.8525	-0.002
Mof_C 	C 	0.4407	0.0965	0.8036	0.125
Mof_H 	H 	0.4792	0.0946	0.792	-0.063
Mof_In	In	0.08639	0.69898	0.7445	1.437
Mof_In	In	0.17794	0.76804	0.66467	1.462
Mof_In	In	0.01599	0.68988	0.64313	1.469
Mof_In	In	0.02379	0.84117	0.70801	1.462
Mof_In	In	0.2473	0.84505	0.57749	1.445
Mof_In	In	0.10794	0.76693	0.55146	1.469
Mof_In	In	0.95816	0.6985	0.53897	1.443
Mof_In	In	0.11473	0.92159	0.61719	1.458
Mof_In	In	0.95563	0.84228	0.5929	1.466
Mof_In	In	0.96828	0.97638	0.65493	1.432
Mof_S 	S 	0.18898	0.7113	0.72533	-0.754
Mof_S 	S 	0.0232	0.6354	0.70465	-0.748
Mof_S 	S 	0.0358	0.7863	0.76957	-0.742
Mof_S 	S 	0.27447	0.7903	0.63748	-0.747
Mof_S 	S 	0.11752	0.70967	0.61549	-1.121
Mof_S 	S 	0.9582	0.6326	0.59629	-0.745
Mof_S 	S 	0.1255	0.86302	0.6803	-1.115
Mof_S 	S 	0.96442	0.7853	0.65684	-1.121
Mof_S 	S 	0.9695	0.9305	0.72061	-0.744
Mof_S 	S 	0.205	0.7856	0.52459	-0.748
Mof_S 	S 	0.0512	0.7102	0.50387	-0.753
Mof_S 	S 	0.2102	0.9435	0.58866	-0.759
Mof_S 	S 	0.05716	0.86311	0.56634	-1.131
Mof_S 	S 	0.8973	0.7859	0.54596	-0.745
Mof_S 	S 	0.0645	0.013	0.63277	-0.745
Mof_S 	S 	0.9045	0.934	0.60414	-0.752
Mof_N 	N 	0.4061	0.8475	0.5063	-0.3
Mof_N 	N 	0.3317	0.8621	0.5488	-0.308
Mof_N 	N 	0.0979	0.6383	0.7948	-0.302
Mof_N 	N 	0.0787	0.5577	0.8297	-0.3
Mof_C 	C 	0.371	0.9079	0.551	0.016
Mof_H 	H 	0.3671	0.9407	0.5686	-0.008
Mof_C 	C 	0.1467	0.6242	0.8152	0.014
Mof_H 	H 	0.183	0.6457	0.8151	-0.007
Mof_C 	C 	0.4171	0.9003	0.5241	0.003
Mof_H 	H 	0.4494	0.9262	0.5191	-0.006
Mof_C 	C 	0.3563	0.8273	0.5229	0.125
Mof_H 	H 	0.34	0.79	0.5162	-0.054
Mof_C 	C 	0.1358	0.5743	0.8361	0.001
Mof_H 	H 	0.1636	0.5541	0.8525	-0.002
Mof_C 	C 	0.0593	0.5965	0.8036	0.125
Mof_H 	H 	0.0208	0.5946	0.792	-0.063
Mof_In	In	0.41361	0.30102	0.2445	1.437
Mof_In	In	0.32206	0.23196	0.16467	1.462
Mof_In	In	0.48401	0.31012	0.14313	1.47
Mof_In	In	0.47621	0.15883	0.20801	1.464
Mof_In	In	0.2527	0.15495	0.07749	1.445
Mof_In	In	0.39206	0.23307	0.05146	1.469
Mof_In	In	0.54184	0.3015	0.03897	1.441
Mof_In	In	0.38527	0.07841	0.11719	1.46
Mof_In	In	0.54437	0.15772	0.0929	1.464
Mof_In	In	0.53172	0.02362	0.15493	1.428
Mof_S 	S 	0.31102	0.2887	0.22533	-0.754
Mof_S 	S 	0.4768	0.3646	0.20465	-0.749
Mof_S 	S 	0.4642	0.2137	0.26957	-0.743
Mof_S 	S 	0.22553	0.2097	0.13748	-0.747
Mof_S 	S 	0.38248	0.29033	0.11549	-1.121
Mof_S 	S 	0.5418	0.3674	0.09629	-0.746
Mof_S 	S 	0.3745	0.13698	0.1803	-1.115
Mof_S 	S 	0.53558	0.2147	0.15684	-1.123
Mof_S 	S 	0.5305	0.0695	0.22061	-0.746
Mof_S 	S 	0.295	0.2144	0.02459	-0.748
Mof_S 	S 	0.4488	0.2898	0.00387	-0.754
Mof_S 	S 	0.2898	0.0565	0.08866	-0.759
Mof_S 	S 	0.44284	0.13689	0.06634	-1.131
Mof_S 	S 	0.6027	0.2141	0.04596	-0.745
Mof_S 	S 	0.4355	0.987	0.13277	-0.746
Mof_S 	S 	0.5955	0.066	0.10414	-0.753
Mof_N 	N 	0.0939	0.1525	0.0063	-0.301
Mof_N 	N 	0.1683	0.1379	0.0488	-0.308
Mof_N 	N 	0.4021	0.3617	0.2948	-0.302
Mof_N 	N 	0.4213	0.4423	0.3297	-0.3
Mof_C 	C 	0.129	0.0921	0.051	0.016
Mof_H 	H 	0.1329	0.0593	0.0686	-0.008
Mof_C 	C 	0.3533	0.3758	0.3152	0.014
Mof_H 	H 	0.317	0.3543	0.3151	-0.007
Mof_C 	C 	0.0829	0.0997	0.0241	0.003
Mof_H 	H 	0.0506	0.0738	0.0191	-0.006
Mof_C 	C 	0.1437	0.1727	0.0229	0.125
Mof_H 	H 	0.16	0.21	0.0162	-0.054
Mof_C 	C 	0.3642	0.4257	0.3361	0.001
Mof_H 	H 	0.3364	0.4459	0.3525	-0.002
Mof_C 	C 	0.4407	0.4035	0.3036	0.125
Mof_H 	H 	0.4792	0.4054	0.292	-0.064
Mof_In	In	0.91361	0.19898	0.7555	1.436
Mof_In	In	0.82206	0.26804	0.83533	1.462
Mof_In	In	0.98401	0.18988	0.85687	1.47
Mof_In	In	0.97621	0.34117	0.79199	1.465
Mof_In	In	0.7527	0.34505	0.92251	1.445
Mof_In	In	0.89206	0.26693	0.94854	1.469
Mof_In	In	0.04184	0.1985	0.96103	1.443
Mof_In	In	0.88527	0.42159	0.88281	1.461
Mof_In	In	0.04437	0.34228	0.9071	1.465
Mof_In	In	0.03172	0.47638	0.84507	1.431
Mof_S 	S 	0.81102	0.2113	0.77467	-0.754
Mof_S 	S 	0.9768	0.1354	0.79535	-0.748
Mof_S 	S 	0.9642	0.2863	0.73043	-0.742
Mof_S 	S 	0.72553	0.2903	0.86252	-0.747
Mof_S 	S 	0.88248	0.20967	0.88451	-1.122
Mof_S 	S 	0.0418	0.1326	0.90371	-0.745
Mof_S 	S 	0.8745	0.36302	0.8197	-1.115
Mof_S 	S 	0.03558	0.2853	0.84316	-1.122
Mof_S 	S 	0.0305	0.4305	0.77939	-0.745
Mof_S 	S 	0.795	0.2856	0.97541	-0.748
Mof_S 	S 	0.9488	0.2102	0.99613	-0.753
Mof_S 	S 	0.7898	0.4435	0.91134	-0.759
Mof_S 	S 	0.94284	0.36311	0.93366	-1.13
Mof_S 	S 	0.1027	0.2859	0.95404	-0.745
Mof_S 	S 	0.9355	0.513	0.86723	-0.745
Mof_S 	S 	0.0955	0.434	0.89586	-0.752
Mof_N 	N 	0.5939	0.3475	0.9937	-0.3
Mof_N 	N 	0.6683	0.3621	0.9512	-0.308
Mof_N 	N 	0.9021	0.1383	0.7052	-0.302
Mof_N 	N 	0.9213	0.0577	0.6703	-0.301
Mof_C 	C 	0.629	0.4079	0.949	0.016
Mof_H 	H 	0.6329	0.4407	0.9314	-0.008
Mof_C 	C 	0.8533	0.1242	0.6848	0.014
Mof_H 	H 	0.817	0.1457	0.6849	-0.007
Mof_C 	C 	0.5829	0.4003	0.9759	0.003
Mof_H 	H 	0.5506	0.4262	0.9809	-0.006
Mof_C 	C 	0.6437	0.3273	0.9771	0.125
Mof_H 	H 	0.66	0.29	0.9838	-0.054
Mof_C 	C 	0.8642	0.0743	0.6639	0.001
Mof_H 	H 	0.8364	0.0541	0.6475	-0.003
Mof_C 	C 	0.9407	0.0965	0.6964	0.125
Mof_H 	H 	0.9792	0.0946	0.708	-0.064
Mof_In	In	0.58639	0.80102	0.2555	1.437
Mof_In	In	0.67794	0.73196	0.33533	1.462
Mof_In	In	0.51599	0.81012	0.35687	1.47
Mof_In	In	0.52379	0.65883	0.29199	1.464
Mof_In	In	0.7473	0.65495	0.42251	1.445
Mof_In	In	0.60794	0.73307	0.44854	1.469
Mof_In	In	0.45816	0.8015	0.46103	1.441
Mof_In	In	0.61473	0.57841	0.38281	1.461
Mof_In	In	0.45563	0.65772	0.4071	1.464
Mof_In	In	0.46828	0.52362	0.34507	1.43
Mof_S 	S 	0.68898	0.7887	0.27467	-0.754
Mof_S 	S 	0.5232	0.8646	0.29535	-0.749
Mof_S 	S 	0.5358	0.7137	0.23043	-0.743
Mof_S 	S 	0.77447	0.7097	0.36252	-0.747
Mof_S 	S 	0.61752	0.79033	0.38451	-1.121
Mof_S 	S 	0.4582	0.8674	0.40371	-0.746
Mof_S 	S 	0.6255	0.63698	0.3197	-1.115
Mof_S 	S 	0.46442	0.7147	0.34316	-1.123
Mof_S 	S 	0.4695	0.5695	0.27939	-0.745
Mof_S 	S 	0.705	0.7144	0.47541	-0.748
Mof_S 	S 	0.5512	0.7898	0.49613	-0.753
Mof_S 	S 	0.7102	0.5565	0.41134	-0.759
Mof_S 	S 	0.55716	0.63689	0.43366	-1.13
Mof_S 	S 	0.3973	0.7141	0.45404	-0.745
Mof_S 	S 	0.5645	0.487	0.36723	-0.746
Mof_S 	S 	0.4045	0.566	0.39586	-0.752
Mof_N 	N 	0.9061	0.6525	0.4937	-0.301
Mof_N 	N 	0.8317	0.6379	0.4512	-0.308
Mof_N 	N 	0.5979	0.8617	0.2052	-0.302
Mof_N 	N 	0.5787	0.9423	0.1703	-0.3
Mof_C 	C 	0.871	0.5921	0.449	0.016
Mof_H 	H 	0.8671	0.5593	0.4314	-0.008
Mof_C 	C 	0.6467	0.8758	0.1848	0.014
Mof_H 	H 	0.683	0.8543	0.1849	-0.007
Mof_C 	C 	0.9171	0.5997	0.4759	0.003
Mof_H 	H 	0.9494	0.5738	0.4809	-0.006
Mof_C 	C 	0.8563	0.6727	0.4771	0.125
Mof_H 	H 	0.84	0.71	0.4838	-0.054
Mof_C 	C 	0.6358	0.9257	0.1639	0.001
Mof_H 	H 	0.6636	0.9459	0.1475	-0.002
Mof_C 	C 	0.5593	0.9035	0.1964	0.125
Mof_H 	H 	0.5208	0.9054	0.208	-0.063
_end
