data_functionalizedCrystal
_audit_creation_method	'EQeq! by Chris Wilmer'
_symmetry_space_group_name_H-M	'P1'
_symmetry_Int_Tables_number	1
_symmetry_cell_setting	triclinic
loop_
_symmetry_equiv_pos_as_xyz
  x,y,z
_cell_length_a	19.8027
_cell_length_b	19.8027
_cell_length_c	19.8027
_cell_angle_alpha	90
_cell_angle_beta	90
_cell_angle_gamma	90
loop_
_atom_site_label
_atom_site_type_symbol
_atom_site_fract_x
_atom_site_fract_y
_atom_site_fract_z
_atom_site_charge
Mof_O 	O 	0.70636	0.4545	0.34776	-0.534
Mof_C 	C 	0.7693	0.4456	0.356	0.387
Mof_C 	C 	0.814	0.4738	0.302	-0.091
Mof_C 	C 	0.884	0.4724	0.3036	0.005
Mof_H 	H 	0.907	0.4533	0.3399	0.022
Mof_O 	O 	0.7951	0.4151	0.4047	-0.495
Mof_O 	O 	0.20636	0.9545	0.84776	-0.446
Mof_C 	C 	0.2693	0.9456	0.856	0.382
Mof_C 	C 	0.314	0.9738	0.802	-0.053
Mof_C 	C 	0.384	0.9724	0.8036	0.184
Mof_H 	H 	0.407	0.9533	0.8399	-0.029
Mof_O 	O 	0.2951	0.9151	0.9047	-0.43
Mof_O 	O 	0.79364	0.5455	0.84776	-0.51
Mof_C 	C 	0.7307	0.5544	0.856	0.379
Mof_C 	C 	0.686	0.5262	0.802	-0.084
Mof_C 	C 	0.616	0.5276	0.8036	-0.005
Mof_H 	H 	0.593	0.5467	0.8399	0.013
Mof_O 	O 	0.7049	0.5849	0.9047	-0.444
Mof_O 	O 	0.29364	0.0455	0.34776	-0.532
Mof_C 	C 	0.2307	0.0544	0.356	0.391
Mof_C 	C 	0.186	0.0262	0.302	-0.153
Mof_C 	C 	0.116	0.0276	0.3036	0.086
Mof_H 	H 	0.093	0.0467	0.3399	-0.054
Mof_O 	O 	0.2049	0.0849	0.4047	-0.516
Mof_O 	O 	0.29364	0.9545	0.15224	-0.469
Mof_C 	C 	0.2307	0.9456	0.144	0.385
Mof_C 	C 	0.186	0.9738	0.198	-0.068
Mof_C 	C 	0.116	0.9724	0.1964	0.176
Mof_H 	H 	0.093	0.9533	0.1601	-0.056
Mof_O 	O 	0.2049	0.9151	0.0953	-0.481
Mof_O 	O 	0.79364	0.4545	0.65224	-0.534
Mof_C 	C 	0.7307	0.4456	0.644	0.389
Mof_C 	C 	0.686	0.4738	0.698	-0.094
Mof_C 	C 	0.616	0.4724	0.6964	-0.003
Mof_H 	H 	0.593	0.4533	0.6601	0.002
Mof_O 	O 	0.7049	0.4151	0.5953	-0.501
Mof_O 	O 	0.20636	0.0455	0.65224	-0.533
Mof_C 	C 	0.2693	0.0544	0.644	0.392
Mof_C 	C 	0.314	0.0262	0.698	-0.149
Mof_C 	C 	0.384	0.0276	0.6964	0.094
Mof_H 	H 	0.407	0.0467	0.6601	-0.043
Mof_O 	O 	0.2951	0.0849	0.5953	-0.513
Mof_O 	O 	0.70636	0.5455	0.15224	-0.533
Mof_C 	C 	0.7693	0.5544	0.144	0.383
Mof_C 	C 	0.814	0.5262	0.198	-0.09
Mof_C 	C 	0.884	0.5276	0.1964	0.005
Mof_H 	H 	0.907	0.5467	0.1601	0.017
Mof_O 	O 	0.7951	0.5849	0.0953	-0.485
Mof_O 	O 	0.34776	0.70636	0.4545	-0.533
Mof_C 	C 	0.356	0.7693	0.4456	0.388
Mof_C 	C 	0.302	0.814	0.4738	-0.09
Mof_C 	C 	0.3036	0.884	0.4724	0.006
Mof_H 	H 	0.3399	0.907	0.4533	0.023
Mof_O 	O 	0.4047	0.7951	0.4151	-0.494
Mof_O 	O 	0.84776	0.20636	0.9545	-0.446
Mof_C 	C 	0.856	0.2693	0.9456	0.382
Mof_C 	C 	0.802	0.314	0.9738	-0.053
Mof_C 	C 	0.8036	0.384	0.9724	0.184
Mof_H 	H 	0.8399	0.407	0.9533	-0.029
Mof_O 	O 	0.9047	0.2951	0.9151	-0.43
Mof_O 	O 	0.84776	0.79364	0.5455	-0.51
Mof_C 	C 	0.856	0.7307	0.5544	0.379
Mof_C 	C 	0.802	0.686	0.5262	-0.084
Mof_C 	C 	0.8036	0.616	0.5276	-0.005
Mof_H 	H 	0.8399	0.593	0.5467	0.013
Mof_O 	O 	0.9047	0.7049	0.5849	-0.444
Mof_O 	O 	0.34776	0.29364	0.0455	-0.532
Mof_C 	C 	0.356	0.2307	0.0544	0.391
Mof_C 	C 	0.302	0.186	0.0262	-0.153
Mof_C 	C 	0.3036	0.116	0.0276	0.086
Mof_H 	H 	0.3399	0.093	0.0467	-0.054
Mof_O 	O 	0.4047	0.2049	0.0849	-0.516
Mof_O 	O 	0.15224	0.29364	0.9545	-0.469
Mof_C 	C 	0.144	0.2307	0.9456	0.385
Mof_C 	C 	0.198	0.186	0.9738	-0.068
Mof_C 	C 	0.1964	0.116	0.9724	0.176
Mof_H 	H 	0.1601	0.093	0.9533	-0.056
Mof_O 	O 	0.0953	0.2049	0.9151	-0.481
Mof_O 	O 	0.65224	0.79364	0.4545	-0.534
Mof_C 	C 	0.644	0.7307	0.4456	0.389
Mof_C 	C 	0.698	0.686	0.4738	-0.094
Mof_C 	C 	0.6964	0.616	0.4724	-0.003
Mof_H 	H 	0.6601	0.593	0.4533	0.002
Mof_O 	O 	0.5953	0.7049	0.4151	-0.501
Mof_O 	O 	0.65224	0.20636	0.0455	-0.533
Mof_C 	C 	0.644	0.2693	0.0544	0.392
Mof_C 	C 	0.698	0.314	0.0262	-0.149
Mof_C 	C 	0.6964	0.384	0.0276	0.094
Mof_H 	H 	0.6601	0.407	0.0467	-0.043
Mof_O 	O 	0.5953	0.2951	0.0849	-0.513
Mof_O 	O 	0.15224	0.70636	0.5455	-0.533
Mof_C 	C 	0.144	0.7693	0.5544	0.383
Mof_C 	C 	0.198	0.814	0.5262	-0.09
Mof_C 	C 	0.1964	0.884	0.5276	0.005
Mof_H 	H 	0.1601	0.907	0.5467	0.017
Mof_O 	O 	0.0953	0.7951	0.5849	-0.485
Mof_O 	O 	0.4545	0.34776	0.70636	-0.533
Mof_C 	C 	0.4456	0.356	0.7693	0.388
Mof_C 	C 	0.4738	0.302	0.814	-0.09
Mof_C 	C 	0.4724	0.3036	0.884	0.006
Mof_H 	H 	0.4533	0.3399	0.907	0.023
Mof_O 	O 	0.4151	0.4047	0.7951	-0.494
Mof_O 	O 	0.9545	0.84776	0.20636	-0.446
Mof_C 	C 	0.9456	0.856	0.2693	0.382
Mof_C 	C 	0.9738	0.802	0.314	-0.053
Mof_C 	C 	0.9724	0.8036	0.384	0.184
Mof_H 	H 	0.9533	0.8399	0.407	-0.029
Mof_O 	O 	0.9151	0.9047	0.2951	-0.43
Mof_O 	O 	0.5455	0.84776	0.79364	-0.51
Mof_C 	C 	0.5544	0.856	0.7307	0.379
Mof_C 	C 	0.5262	0.802	0.686	-0.084
Mof_C 	C 	0.5276	0.8036	0.616	-0.005
Mof_H 	H 	0.5467	0.8399	0.593	0.013
Mof_O 	O 	0.5849	0.9047	0.7049	-0.444
Mof_O 	O 	0.0455	0.34776	0.29364	-0.532
Mof_C 	C 	0.0544	0.356	0.2307	0.391
Mof_C 	C 	0.0262	0.302	0.186	-0.153
Mof_C 	C 	0.0276	0.3036	0.116	0.086
Mof_H 	H 	0.0467	0.3399	0.093	-0.054
Mof_O 	O 	0.0849	0.4047	0.2049	-0.516
Mof_O 	O 	0.9545	0.15224	0.29364	-0.469
Mof_C 	C 	0.9456	0.144	0.2307	0.385
Mof_C 	C 	0.9738	0.198	0.186	-0.068
Mof_C 	C 	0.9724	0.1964	0.116	0.176
Mof_H 	H 	0.9533	0.1601	0.093	-0.056
Mof_O 	O 	0.9151	0.0953	0.2049	-0.481
Mof_O 	O 	0.4545	0.65224	0.79364	-0.534
Mof_C 	C 	0.4456	0.644	0.7307	0.389
Mof_C 	C 	0.4738	0.698	0.686	-0.094
Mof_C 	C 	0.4724	0.6964	0.616	-0.003
Mof_H 	H 	0.4533	0.6601	0.593	0.002
Mof_O 	O 	0.4151	0.5953	0.7049	-0.501
Mof_O 	O 	0.0455	0.65224	0.20636	-0.533
Mof_C 	C 	0.0544	0.644	0.2693	0.392
Mof_C 	C 	0.0262	0.698	0.314	-0.149
Mof_C 	C 	0.0276	0.6964	0.384	0.094
Mof_H 	H 	0.0467	0.6601	0.407	-0.043
Mof_O 	O 	0.0849	0.5953	0.2951	-0.513
Mof_O 	O 	0.5455	0.15224	0.70636	-0.533
Mof_C 	C 	0.5544	0.144	0.7693	0.383
Mof_C 	C 	0.5262	0.198	0.814	-0.09
Mof_C 	C 	0.5276	0.1964	0.884	0.005
Mof_H 	H 	0.5467	0.1601	0.907	0.017
Mof_O 	O 	0.5849	0.0953	0.7951	-0.485
Mof_O 	O 	0.29364	0.5455	0.65224	-0.535
Mof_C 	C 	0.2307	0.5544	0.644	0.387
Mof_C 	C 	0.186	0.5262	0.698	-0.095
Mof_C 	C 	0.116	0.5276	0.6964	-0.014
Mof_H 	H 	0.093	0.5467	0.6601	-0.008
Mof_O 	O 	0.2049	0.5849	0.5953	-0.504
Mof_O 	O 	0.79364	0.0455	0.15224	-0.531
Mof_C 	C 	0.7307	0.0544	0.144	0.387
Mof_C 	C 	0.686	0.0262	0.198	-0.154
Mof_C 	C 	0.616	0.0276	0.1964	0.098
Mof_H 	H 	0.593	0.0467	0.1601	-0.05
Mof_O 	O 	0.7049	0.0849	0.0953	-0.505
Mof_O 	O 	0.20636	0.4545	0.15224	-0.532
Mof_C 	C 	0.2693	0.4456	0.144	0.381
Mof_C 	C 	0.314	0.4738	0.198	-0.098
Mof_C 	C 	0.384	0.4724	0.1964	-0
Mof_H 	H 	0.407	0.4533	0.1601	-0.005
Mof_O 	O 	0.2951	0.4151	0.0953	-0.492
Mof_O 	O 	0.70636	0.9545	0.65224	-0.47
Mof_C 	C 	0.7693	0.9456	0.644	0.392
Mof_C 	C 	0.814	0.9738	0.698	-0.055
Mof_C 	C 	0.884	0.9724	0.6964	0.19
Mof_H 	H 	0.907	0.9533	0.6601	-0.017
Mof_O 	O 	0.7951	0.9151	0.5953	-0.48
Mof_O 	O 	0.70636	0.0455	0.84776	-0.509
Mof_C 	C 	0.7693	0.0544	0.856	0.383
Mof_C 	C 	0.814	0.0262	0.802	-0.13
Mof_C 	C 	0.884	0.0276	0.8036	0.096
Mof_H 	H 	0.907	0.0467	0.8399	-0.01
Mof_O 	O 	0.7951	0.0849	0.9047	-0.448
Mof_O 	O 	0.20636	0.5455	0.34776	-0.532
Mof_C 	C 	0.2693	0.5544	0.356	0.388
Mof_C 	C 	0.314	0.5262	0.302	-0.098
Mof_C 	C 	0.384	0.5276	0.3036	0.001
Mof_H 	H 	0.407	0.5467	0.3399	-0
Mof_O 	O 	0.2951	0.5849	0.4047	-0.502
Mof_O 	O 	0.79364	0.9545	0.34776	-0.469
Mof_C 	C 	0.7307	0.9456	0.356	0.393
Mof_C 	C 	0.686	0.9738	0.302	-0.068
Mof_C 	C 	0.616	0.9724	0.3036	0.191
Mof_H 	H 	0.593	0.9533	0.3399	-0.042
Mof_O 	O 	0.7049	0.9151	0.4047	-0.488
Mof_O 	O 	0.29364	0.4545	0.84776	-0.511
Mof_C 	C 	0.2307	0.4456	0.856	0.377
Mof_C 	C 	0.186	0.4738	0.802	-0.084
Mof_C 	C 	0.116	0.4724	0.8036	-0.016
Mof_H 	H 	0.093	0.4533	0.8399	0.003
Mof_O 	O 	0.2049	0.4151	0.9047	-0.446
Mof_O 	O 	0.65224	0.29364	0.5455	-0.535
Mof_C 	C 	0.644	0.2307	0.5544	0.387
Mof_C 	C 	0.698	0.186	0.5262	-0.095
Mof_C 	C 	0.6964	0.116	0.5276	-0.014
Mof_H 	H 	0.6601	0.093	0.5467	-0.008
Mof_O 	O 	0.5953	0.2049	0.5849	-0.504
Mof_O 	O 	0.15224	0.79364	0.0455	-0.531
Mof_C 	C 	0.144	0.7307	0.0544	0.387
Mof_C 	C 	0.198	0.686	0.0262	-0.154
Mof_C 	C 	0.1964	0.616	0.0276	0.098
Mof_H 	H 	0.1601	0.593	0.0467	-0.05
Mof_O 	O 	0.0953	0.7049	0.0849	-0.505
Mof_O 	O 	0.15224	0.20636	0.4545	-0.532
Mof_C 	C 	0.144	0.2693	0.4456	0.381
Mof_C 	C 	0.198	0.314	0.4738	-0.098
Mof_C 	C 	0.1964	0.384	0.4724	-0
Mof_H 	H 	0.1601	0.407	0.4533	-0.005
Mof_O 	O 	0.0953	0.2951	0.4151	-0.492
Mof_O 	O 	0.65224	0.70636	0.9545	-0.47
Mof_C 	C 	0.644	0.7693	0.9456	0.392
Mof_C 	C 	0.698	0.814	0.9738	-0.055
Mof_C 	C 	0.6964	0.884	0.9724	0.19
Mof_H 	H 	0.6601	0.907	0.9533	-0.017
Mof_O 	O 	0.5953	0.7951	0.9151	-0.48
Mof_O 	O 	0.84776	0.70636	0.0455	-0.509
Mof_C 	C 	0.856	0.7693	0.0544	0.383
Mof_C 	C 	0.802	0.814	0.0262	-0.13
Mof_C 	C 	0.8036	0.884	0.0276	0.096
Mof_H 	H 	0.8399	0.907	0.0467	-0.01
Mof_O 	O 	0.9047	0.7951	0.0849	-0.448
Mof_O 	O 	0.34776	0.20636	0.5455	-0.532
Mof_C 	C 	0.356	0.2693	0.5544	0.388
Mof_C 	C 	0.302	0.314	0.5262	-0.098
Mof_C 	C 	0.3036	0.384	0.5276	0.001
Mof_H 	H 	0.3399	0.407	0.5467	-0
Mof_O 	O 	0.4047	0.2951	0.5849	-0.502
Mof_O 	O 	0.34776	0.79364	0.9545	-0.469
Mof_C 	C 	0.356	0.7307	0.9456	0.393
Mof_C 	C 	0.302	0.686	0.9738	-0.068
Mof_C 	C 	0.3036	0.616	0.9724	0.191
Mof_H 	H 	0.3399	0.593	0.9533	-0.042
Mof_O 	O 	0.4047	0.7049	0.9151	-0.488
Mof_O 	O 	0.84776	0.29364	0.4545	-0.511
Mof_C 	C 	0.856	0.2307	0.4456	0.377
Mof_C 	C 	0.802	0.186	0.4738	-0.084
Mof_C 	C 	0.8036	0.116	0.4724	-0.016
Mof_H 	H 	0.8399	0.093	0.4533	0.003
Mof_O 	O 	0.9047	0.2049	0.4151	-0.446
Mof_O 	O 	0.5455	0.65224	0.29364	-0.535
Mof_C 	C 	0.5544	0.644	0.2307	0.387
Mof_C 	C 	0.5262	0.698	0.186	-0.095
Mof_C 	C 	0.5276	0.6964	0.116	-0.014
Mof_H 	H 	0.5467	0.6601	0.093	-0.008
Mof_O 	O 	0.5849	0.5953	0.2049	-0.504
Mof_O 	O 	0.0455	0.15224	0.79364	-0.531
Mof_C 	C 	0.0544	0.144	0.7307	0.387
Mof_C 	C 	0.0262	0.198	0.686	-0.154
Mof_C 	C 	0.0276	0.1964	0.616	0.098
Mof_H 	H 	0.0467	0.1601	0.593	-0.05
Mof_O 	O 	0.0849	0.0953	0.7049	-0.505
Mof_O 	O 	0.4545	0.15224	0.20636	-0.532
Mof_C 	C 	0.4456	0.144	0.2693	0.381
Mof_C 	C 	0.4738	0.198	0.314	-0.098
Mof_C 	C 	0.4724	0.1964	0.384	-0
Mof_H 	H 	0.4533	0.1601	0.407	-0.005
Mof_O 	O 	0.4151	0.0953	0.2951	-0.492
Mof_O 	O 	0.9545	0.65224	0.70636	-0.47
Mof_C 	C 	0.9456	0.644	0.7693	0.392
Mof_C 	C 	0.9738	0.698	0.814	-0.055
Mof_C 	C 	0.9724	0.6964	0.884	0.19
Mof_H 	H 	0.9533	0.6601	0.907	-0.017
Mof_O 	O 	0.9151	0.5953	0.7951	-0.48
Mof_O 	O 	0.0455	0.84776	0.70636	-0.509
Mof_C 	C 	0.0544	0.856	0.7693	0.383
Mof_C 	C 	0.0262	0.802	0.814	-0.13
Mof_C 	C 	0.0276	0.8036	0.884	0.096
Mof_H 	H 	0.0467	0.8399	0.907	-0.01
Mof_O 	O 	0.0849	0.9047	0.7951	-0.448
Mof_O 	O 	0.5455	0.34776	0.20636	-0.532
Mof_C 	C 	0.5544	0.356	0.2693	0.388
Mof_C 	C 	0.5262	0.302	0.314	-0.098
Mof_C 	C 	0.5276	0.3036	0.384	0.001
Mof_H 	H 	0.5467	0.3399	0.407	-0
Mof_O 	O 	0.5849	0.4047	0.2951	-0.502
Mof_O 	O 	0.9545	0.34776	0.79364	-0.469
Mof_C 	C 	0.9456	0.356	0.7307	0.393
Mof_C 	C 	0.9738	0.302	0.686	-0.068
Mof_C 	C 	0.9724	0.3036	0.616	0.191
Mof_H 	H 	0.9533	0.3399	0.593	-0.042
Mof_O 	O 	0.9151	0.4047	0.7049	-0.488
Mof_O 	O 	0.4545	0.84776	0.29364	-0.511
Mof_C 	C 	0.4456	0.856	0.2307	0.377
Mof_C 	C 	0.4738	0.802	0.186	-0.084
Mof_C 	C 	0.4724	0.8036	0.116	-0.016
Mof_H 	H 	0.4533	0.8399	0.093	0.003
Mof_O 	O 	0.4151	0.9047	0.2049	-0.446
Mof_Eu	Eu	0.65219	0.5	0.25	1.761
Mof_N 	N 	0.7795	0.5	0.25	-0.203
Mof_C 	C 	0.9185	0.5	0.25	-0.074
Mof_H 	H 	0.9655	0.5	0.25	0.052
Mof_Eu	Eu	0.84781	0.5	0.75	1.815
Mof_N 	N 	0.7205	0.5	0.75	-0.207
Mof_C 	C 	0.5815	0.5	0.75	-0.077
Mof_H 	H 	0.5345	0.5	0.75	0.018
Mof_Eu	Eu	0.34781	0	0.25	1.556
Mof_N 	N 	0.2205	0	0.25	-0.23
Mof_C 	C 	0.0815	0	0.25	-0.305
Mof_H 	H 	0.0345	0	0.25	0.038
Mof_Eu	Eu	0.15219	0	0.75	1.547
Mof_N 	N 	0.2795	0	0.75	-0.229
Mof_C 	C 	0.4185	0	0.75	-0.297
Mof_H 	H 	0.4655	0	0.75	0.071
Mof_Eu	Eu	0.25	0.65219	0.5	1.761
Mof_N 	N 	0.25	0.7795	0.5	-0.203
Mof_C 	C 	0.25	0.9185	0.5	-0.074
Mof_H 	H 	0.25	0.9655	0.5	0.052
Mof_Eu	Eu	0.75	0.84781	0.5	1.815
Mof_N 	N 	0.75	0.7205	0.5	-0.207
Mof_C 	C 	0.75	0.5815	0.5	-0.077
Mof_H 	H 	0.75	0.5345	0.5	0.018
Mof_Eu	Eu	0.25	0.34781	-0	1.556
Mof_N 	N 	0.25	0.2205	-0	-0.23
Mof_C 	C 	0.25	0.0815	-0	-0.305
Mof_H 	H 	0.25	0.0345	-0	0.038
Mof_Eu	Eu	0.75	0.15219	-0	1.547
Mof_N 	N 	0.75	0.2795	-0	-0.229
Mof_C 	C 	0.75	0.4185	-0	-0.297
Mof_H 	H 	0.75	0.4655	-0	0.071
Mof_Eu	Eu	0.5	0.25	0.65219	1.761
Mof_N 	N 	0.5	0.25	0.7795	-0.203
Mof_C 	C 	0.5	0.25	0.9185	-0.074
Mof_H 	H 	0.5	0.25	0.9655	0.052
Mof_Eu	Eu	0.5	0.75	0.84781	1.815
Mof_N 	N 	0.5	0.75	0.7205	-0.207
Mof_C 	C 	0.5	0.75	0.5815	-0.077
Mof_H 	H 	0.5	0.75	0.5345	0.018
Mof_Eu	Eu	1.30408e-33	0.25	0.34781	1.556
Mof_N 	N 	2.45209e-33	0.25	0.2205	-0.23
Mof_C 	C 	3.55628e-33	0.25	0.0815	-0.305
Mof_H 	H 	5.35692e-34	0.25	0.0345	0.038
Mof_Eu	Eu	-1.05473e-33	0.75	0.15219	1.547
Mof_N 	N 	-2.20275e-33	0.75	0.2795	-0.229
Mof_C 	C 	1.13212e-32	0.75	0.4185	-0.297
Mof_H 	H 	-4.75606e-33	0.75	0.4655	0.071
Mof_Eu	Eu	0.34781	0.5	0.75	1.774
Mof_N 	N 	0.2205	0.5	0.75	-0.206
Mof_C 	C 	0.0815	0.5	0.75	-0.077
Mof_H 	H 	0.0345	0.5	0.75	-0.015
Mof_Eu	Eu	0.15219	0.5	0.25	1.726
Mof_N 	N 	0.2795	0.5	0.25	-0.201
Mof_C 	C 	0.4185	0.5	0.25	-0.087
Mof_H 	H 	0.4655	0.5	0.25	0.018
Mof_Eu	Eu	0.65219	0	0.75	1.579
Mof_N 	N 	0.7795	0	0.75	-0.232
Mof_C 	C 	0.9185	0	0.75	-0.282
Mof_H 	H 	0.9655	0	0.75	0.104
Mof_Eu	Eu	0.84781	0	0.25	1.595
Mof_N 	N 	0.7205	0	0.25	-0.231
Mof_C 	C 	0.5815	0	0.25	-0.309
Mof_H 	H 	0.5345	0	0.25	0.071
Mof_Eu	Eu	0.75	0.34781	0.5	1.774
Mof_N 	N 	0.75	0.2205	0.5	-0.206
Mof_C 	C 	0.75	0.0815	0.5	-0.077
Mof_H 	H 	0.75	0.0345	0.5	-0.015
Mof_Eu	Eu	0.25	0.15219	0.5	1.726
Mof_N 	N 	0.25	0.2795	0.5	-0.201
Mof_C 	C 	0.25	0.4185	0.5	-0.087
Mof_H 	H 	0.25	0.4655	0.5	0.018
Mof_Eu	Eu	0.75	0.65219	-0	1.579
Mof_N 	N 	0.75	0.7795	-0	-0.232
Mof_C 	C 	0.75	0.9185	-0	-0.282
Mof_H 	H 	0.75	0.9655	-0	0.104
Mof_Eu	Eu	0.25	0.84781	-0	1.595
Mof_N 	N 	0.25	0.7205	-0	-0.231
Mof_C 	C 	0.25	0.5815	-0	-0.309
Mof_H 	H 	0.25	0.5345	-0	0.071
Mof_Eu	Eu	0.5	0.75	0.34781	1.774
Mof_N 	N 	0.5	0.75	0.2205	-0.206
Mof_C 	C 	0.5	0.75	0.0815	-0.077
Mof_H 	H 	0.5	0.75	0.0345	-0.015
Mof_Eu	Eu	0.5	0.25	0.15219	1.726
Mof_N 	N 	0.5	0.25	0.2795	-0.201
Mof_C 	C 	0.5	0.25	0.4185	-0.087
Mof_H 	H 	0.5	0.25	0.4655	0.018
Mof_Eu	Eu	-4.05608e-33	0.75	0.65219	1.579
Mof_N 	N 	2.92266e-33	0.75	0.7795	-0.232
Mof_C 	C 	3.44382e-33	0.75	0.9185	-0.282
Mof_H 	H 	-9.38276e-33	0.75	0.9655	0.104
Mof_Eu	Eu	3.17878e-33	0.25	0.84781	1.595
Mof_N 	N 	-3.79996e-33	0.25	0.7205	-0.231
Mof_C 	C 	-4.32113e-33	0.25	0.5815	-0.309
Mof_H 	H 	2.00405e-33	0.25	0.5345	0.071
_end
