data_functionalizedCrystal
_audit_creation_method	'EQeq! by Chris Wilmer'
_symmetry_space_group_name_H-M	'P1'
_symmetry_Int_Tables_number	1
_symmetry_cell_setting	triclinic
loop_
_symmetry_equiv_pos_as_xyz
  x,y,z
_cell_length_a	8.775
_cell_length_b	8.775
_cell_length_c	20.546
_cell_angle_alpha	90
_cell_angle_beta	90
_cell_angle_gamma	120
loop_
_atom_site_label
_atom_site_type_symbol
_atom_site_fract_x
_atom_site_fract_y
_atom_site_fract_z
_atom_site_charge
Mof_Cd	Cd	-0	0	-0	0.307
Mof_Cd	Cd	-9.2123e-33	0	0.5	0.325
Mof_Cd	Cd	0.33333	0.66667	0.11476	0.272
Mof_C 	C 	0.33333	0.66667	0.222	-0.065
Mof_Cd	Cd	0.66667	0.33333	0.61476	0.274
Mof_C 	C 	0.66667	0.33333	0.722	-0.064
Mof_Cd	Cd	0.66667	0.33333	0.88524	0.278
Mof_C 	C 	0.66667	0.33333	0.778	-0.064
Mof_Cd	Cd	0.33333	0.66667	0.38524	0.274
Mof_C 	C 	0.33333	0.66667	0.278	-0.065
Mof_N 	N 	0.1277	0.2554	0.0606	-0.144
Mof_C 	C 	0.1944	0.3888	0.0811	-0.012
Mof_N 	N 	0.7446	0.8723	0.0606	-0.115
Mof_C 	C 	0.6112	0.8056	0.0811	0.011
Mof_N 	N 	0.1277	0.8723	0.0606	-0.128
Mof_C 	C 	0.1944	0.8056	0.0811	0
Mof_N 	N 	0.8723	0.7446	0.5606	-0.113
Mof_C 	C 	0.8056	0.6112	0.5811	0.015
Mof_N 	N 	0.2554	0.1277	0.5606	-0.142
Mof_C 	C 	0.3888	0.1944	0.5811	-0.008
Mof_N 	N 	0.8723	0.1277	0.5606	-0.128
Mof_C 	C 	0.8056	0.1944	0.5811	0.003
Mof_N 	N 	0.2554	0.1277	0.9394	-0.136
Mof_C 	C 	0.3888	0.1944	0.9189	-0.003
Mof_N 	N 	0.8723	0.7446	0.9394	-0.107
Mof_C 	C 	0.8056	0.6112	0.9189	0.019
Mof_N 	N 	0.8723	0.1277	0.9394	-0.122
Mof_C 	C 	0.8056	0.1944	0.9189	0.008
Mof_N 	N 	0.7446	0.8723	0.4394	-0.113
Mof_C 	C 	0.6112	0.8056	0.4189	0.015
Mof_N 	N 	0.1277	0.2554	0.4394	-0.142
Mof_C 	C 	0.1944	0.3888	0.4189	-0.008
Mof_N 	N 	0.1277	0.8723	0.4394	-0.126
Mof_C 	C 	0.1944	0.8056	0.4189	0.004
_end
