data_functionalizedCrystal
_audit_creation_method	'EQeq! by Chris Wilmer'
_symmetry_space_group_name_H-M	'P1'
_symmetry_Int_Tables_number	1
_symmetry_cell_setting	triclinic
loop_
_symmetry_equiv_pos_as_xyz
  x,y,z
_cell_length_a	13.119
_cell_length_b	22.809
_cell_length_c	11.84
_cell_angle_alpha	90
_cell_angle_beta	91.946
_cell_angle_gamma	90
loop_
_atom_site_label
_atom_site_type_symbol
_atom_site_fract_x
_atom_site_fract_y
_atom_site_fract_z
_atom_site_charge
Mof_Ag	Ag	0.24028	0.2133	0.27507	0.489
Mof_Ag	Ag	0.88329	0.20169	0.60974	0.514
Mof_N 	N 	0.1495	0.1804	0.4088	-0.181
Mof_N 	N 	0.7904	0.268	0.9298	-0.145
Mof_N 	N 	0.8039	0.2379	0.7524	-0.217
Mof_N 	N 	0.7375	0.3041	0.8606	-0.106
Mof_N 	N 	0.1416	0.1241	0.4479	-0.11
Mof_N 	N 	0.0094	0.1698	0.5068	-0.214
Mof_C 	C 	0.5535	0.0496	0.7612	0.098
Mof_H 	H 	0.6212	0.0567	0.7828	-0.03
Mof_N 	N 	0.5129	0.0563	0.6598	-0.108
Mof_N 	N 	0.4166	0.042	0.663	-0.099
Mof_C 	C 	0.3977	0.0266	0.7664	0.09
Mof_H 	H 	0.335	0.0144	0.7923	-0.029
Mof_N 	N 	0.4823	0.0313	0.8272	-0.21
Mof_C 	C 	0.3551	0.0314	0.558	-0.056
Mof_H 	H 	0.3986	0.0216	0.4962	0.047
Mof_H 	H 	0.3073	0.9996	0.5683	0.048
Mof_C 	C 	0.3009	0.0866	0.5354	-0.131
Mof_H 	H 	0.2675	0.0991	0.6031	0.065
Mof_H 	H 	0.3497	0.1167	0.5162	0.067
Mof_C 	C 	0.0665	0.2048	0.4449	0.096
Mof_H 	H 	0.0488	0.2435	0.4286	-0.052
Mof_C 	C 	0.6797	0.3523	0.9039	-0.011
Mof_H 	H 	0.7155	0.3681	0.9701	0.019
Mof_H 	H 	0.6751	0.383	0.8473	0.021
Mof_C 	C 	0.5717	0.3342	0.9358	-0.145
Mof_H 	H 	0.5376	0.3156	0.8713	0.073
Mof_H 	H 	0.5332	0.3689	0.9545	0.073
Mof_C 	C 	0.2208	0.0804	0.438	-0.026
Mof_H 	H 	0.1908	0.0416	0.4398	0.021
Mof_H 	H 	0.2534	0.0851	0.3663	0.009
Mof_C 	C 	0.7457	0.2857	0.7551	0.086
Mof_H 	H 	0.7152	0.3037	0.692	-0.018
Mof_C 	C 	0.8305	0.2304	0.8603	0.101
Mof_H 	H 	0.8743	0.2007	0.885	-0.043
Mof_C 	C 	0.0575	0.119	0.5071	0.081
Mof_H 	H 	0.0362	0.085	0.5429	-0.024
Mof_C 	C 	0.5726	0.2932	0.0331	-0.015
Mof_H 	H 	0.6005	0.3137	0.099	0.027
Mof_H 	H 	0.6186	0.2611	0.0173	0.035
Mof_N 	N 	0.4759	0.2689	0.0611	-0.11
Mof_N 	N 	0.4193	0.2405	0.9807	-0.111
Mof_C 	C 	0.4301	0.2658	0.1595	0.089
Mof_H 	H 	0.4558	0.2818	0.2269	-0.012
Mof_C 	C 	0.3412	0.2229	0.0392	0.079
Mof_H 	H 	0.2873	0.2018	0.0062	-0.043
Mof_N 	N 	0.3441	0.2372	0.1486	-0.218
Mof_Ag	Ag	0.75972	0.7867	0.72493	0.499
Mof_Ag	Ag	0.11671	0.79831	0.39026	0.517
Mof_N 	N 	0.8505	0.8196	0.5912	-0.18
Mof_N 	N 	0.2096	0.732	0.0702	-0.151
Mof_N 	N 	0.1961	0.7621	0.2476	-0.216
Mof_N 	N 	0.2625	0.6959	0.1394	-0.111
Mof_N 	N 	0.8584	0.8759	0.5521	-0.111
Mof_N 	N 	0.9906	0.8302	0.4932	-0.214
Mof_C 	C 	0.4465	0.9504	0.2388	0.101
Mof_H 	H 	0.3788	0.9433	0.2172	-0.028
Mof_N 	N 	0.4871	0.9437	0.3402	-0.106
Mof_N 	N 	0.5834	0.958	0.337	-0.107
Mof_C 	C 	0.6023	0.9734	0.2336	0.097
Mof_H 	H 	0.665	0.9856	0.2077	-0.028
Mof_N 	N 	0.5177	0.9687	0.1728	-0.21
Mof_C 	C 	0.6449	0.9686	0.442	0.014
Mof_H 	H 	0.6014	0.9784	0.5038	0.035
Mof_H 	H 	0.6927	0.0004	0.4317	0.007
Mof_C 	C 	0.6991	0.9134	0.4646	-0.168
Mof_H 	H 	0.7325	0.9009	0.3969	0.076
Mof_H 	H 	0.6503	0.8833	0.4838	0.078
Mof_C 	C 	0.9335	0.7952	0.5551	0.097
Mof_H 	H 	0.9512	0.7565	0.5714	-0.052
Mof_C 	C 	0.3203	0.6477	0.0961	0.009
Mof_H 	H 	0.2845	0.6319	0.0299	0.005
Mof_H 	H 	0.3249	0.617	0.1527	0.014
Mof_C 	C 	0.4283	0.6658	0.0642	-0.188
Mof_H 	H 	0.4624	0.6844	0.1287	0.083
Mof_H 	H 	0.4668	0.6311	0.0455	0.079
Mof_C 	C 	0.7792	0.9196	0.562	-0.011
Mof_H 	H 	0.8092	0.9584	0.5602	0.025
Mof_H 	H 	0.7466	0.9149	0.6337	0.009
Mof_C 	C 	0.2543	0.7143	0.2449	0.086
Mof_H 	H 	0.2848	0.6963	0.308	-0.019
Mof_C 	C 	0.1695	0.7696	0.1397	0.1
Mof_H 	H 	0.1257	0.7993	0.115	-0.046
Mof_C 	C 	0.9425	0.881	0.4929	0.082
Mof_H 	H 	0.9638	0.915	0.4571	-0.021
Mof_C 	C 	0.4274	0.7068	0.9669	0.023
Mof_H 	H 	0.3995	0.6863	0.901	0.019
Mof_H 	H 	0.3814	0.7389	0.9827	0.032
Mof_N 	N 	0.5241	0.7311	0.9389	-0.107
Mof_N 	N 	0.5807	0.7595	0.0193	-0.13
Mof_C 	C 	0.5699	0.7342	0.8405	0.093
Mof_H 	H 	0.5442	0.7182	0.7731	-0.013
Mof_C 	C 	0.6588	0.7771	0.9608	0.102
Mof_H 	H 	0.7127	0.7982	0.9938	-0.042
Mof_N 	N 	0.6559	0.7628	0.8514	-0.221
Mof_Ag	Ag	0.5	0	-0	0.434
Mof_Ag	Ag	0.75972	0.7133	0.22493	0.489
Mof_Ag	Ag	0.11671	0.70169	0.89026	0.524
Mof_N 	N 	0.8505	0.6804	0.0912	-0.179
Mof_N 	N 	0.2096	0.768	0.5702	-0.148
Mof_N 	N 	0.1961	0.7379	0.7476	-0.216
Mof_N 	N 	0.2625	0.8041	0.6394	-0.108
Mof_N 	N 	0.8584	0.6241	0.0521	-0.117
Mof_N 	N 	0.9906	0.6698	0.9932	-0.209
Mof_C 	C 	0.4465	0.5496	0.7388	0.1
Mof_H 	H 	0.3788	0.5567	0.7172	-0.031
Mof_N 	N 	0.4871	0.5563	0.8402	-0.106
Mof_N 	N 	0.5834	0.542	0.837	-0.105
Mof_C 	C 	0.6023	0.5266	0.7336	0.095
Mof_H 	H 	0.665	0.5144	0.7077	-0.031
Mof_N 	N 	0.5177	0.5313	0.6728	-0.217
Mof_C 	C 	0.6449	0.5314	0.942	-0.002
Mof_H 	H 	0.6014	0.5216	0.0038	0.027
Mof_H 	H 	0.6927	0.4996	0.9317	0.025
Mof_C 	C 	0.6991	0.5866	0.9646	-0.147
Mof_H 	H 	0.7325	0.5991	0.8969	0.071
Mof_H 	H 	0.6503	0.6167	0.9838	0.075
Mof_C 	C 	0.9335	0.7048	0.0551	0.083
Mof_H 	H 	0.9512	0.7435	0.0714	-0.05
Mof_C 	C 	0.3203	0.8523	0.5961	-0.002
Mof_H 	H 	0.2845	0.8681	0.5299	0.013
Mof_H 	H 	0.3249	0.883	0.6527	0.02
Mof_C 	C 	0.4283	0.8342	0.5642	-0.168
Mof_H 	H 	0.4624	0.8156	0.6287	0.079
Mof_H 	H 	0.4668	0.8689	0.5455	0.078
Mof_C 	C 	0.7792	0.5804	0.062	-0.026
Mof_H 	H 	0.8092	0.5416	0.0602	0.021
Mof_H 	H 	0.7466	0.5851	0.1337	0.01
Mof_C 	C 	0.2543	0.7857	0.7449	0.086
Mof_H 	H 	0.2848	0.8037	0.808	-0.016
Mof_C 	C 	0.1695	0.7304	0.6397	0.1
Mof_H 	H 	0.1257	0.7007	0.615	-0.046
Mof_C 	C 	0.9425	0.619	0.9929	0.094
Mof_H 	H 	0.9638	0.585	0.9571	-0.024
Mof_C 	C 	0.4274	0.7932	0.4669	0.005
Mof_H 	H 	0.3995	0.8137	0.401	0.023
Mof_H 	H 	0.3814	0.7611	0.4827	0.033
Mof_N 	N 	0.5241	0.7689	0.4389	-0.108
Mof_N 	N 	0.5807	0.7405	0.5193	-0.122
Mof_C 	C 	0.5699	0.7658	0.3405	0.09
Mof_H 	H 	0.5442	0.7818	0.2731	-0.012
Mof_C 	C 	0.6588	0.7229	0.4608	0.09
Mof_H 	H 	0.7127	0.7018	0.4938	-0.043
Mof_N 	N 	0.6559	0.7372	0.3514	-0.22
Mof_Ag	Ag	0.24028	0.2867	0.77507	0.498
Mof_Ag	Ag	0.88329	0.29831	0.10974	0.502
Mof_N 	N 	0.1495	0.3196	0.9088	-0.181
Mof_N 	N 	0.7904	0.232	0.4298	-0.148
Mof_N 	N 	0.8039	0.2621	0.2524	-0.216
Mof_N 	N 	0.7375	0.1959	0.3606	-0.109
Mof_N 	N 	0.1416	0.3759	0.9479	-0.106
Mof_N 	N 	0.0094	0.3302	0.0068	-0.217
Mof_C 	C 	0.5535	0.4504	0.2612	0.1
Mof_H 	H 	0.6212	0.4433	0.2828	-0.032
Mof_N 	N 	0.5129	0.4437	0.1598	-0.109
Mof_N 	N 	0.4166	0.458	0.163	-0.101
Mof_C 	C 	0.3977	0.4734	0.2664	0.092
Mof_H 	H 	0.335	0.4856	0.2923	-0.03
Mof_N 	N 	0.4823	0.4687	0.3272	-0.216
Mof_C 	C 	0.3551	0.4686	0.058	-0.043
Mof_H 	H 	0.3986	0.4784	0.9962	0.054
Mof_H 	H 	0.3073	0.5004	0.0683	0.032
Mof_C 	C 	0.3009	0.4134	0.0354	-0.149
Mof_H 	H 	0.2675	0.4009	0.1031	0.069
Mof_H 	H 	0.3497	0.3833	0.0162	0.069
Mof_C 	C 	0.0665	0.2952	0.9449	0.107
Mof_H 	H 	0.0488	0.2565	0.9286	-0.053
Mof_C 	C 	0.6797	0.1477	0.4039	0.001
Mof_H 	H 	0.7155	0.1319	0.4701	0.01
Mof_H 	H 	0.6751	0.117	0.3473	0.015
Mof_C 	C 	0.5717	0.1658	0.4358	-0.169
Mof_H 	H 	0.5376	0.1844	0.3713	0.078
Mof_H 	H 	0.5332	0.1311	0.4545	0.076
Mof_C 	C 	0.2208	0.4196	0.938	-0.012
Mof_H 	H 	0.1908	0.4584	0.9398	0.023
Mof_H 	H 	0.2534	0.4149	0.8663	0.008
Mof_C 	C 	0.7457	0.2143	0.2551	0.085
Mof_H 	H 	0.7152	0.1963	0.192	-0.02
Mof_C 	C 	0.8305	0.2696	0.3603	0.1
Mof_H 	H 	0.8743	0.2993	0.385	-0.045
Mof_C 	C 	0.0575	0.381	0.0071	0.071
Mof_H 	H 	0.0362	0.415	0.0429	-0.021
Mof_C 	C 	0.5726	0.2068	0.5331	0.006
Mof_H 	H 	0.6005	0.1863	0.599	0.022
Mof_H 	H 	0.6186	0.2389	0.5173	0.033
Mof_N 	N 	0.4759	0.2311	0.5611	-0.108
Mof_N 	N 	0.4193	0.2595	0.4807	-0.122
Mof_C 	C 	0.4301	0.2342	0.6595	0.091
Mof_H 	H 	0.4558	0.2182	0.7269	-0.011
Mof_C 	C 	0.3412	0.2771	0.5392	0.091
Mof_H 	H 	0.2873	0.2982	0.5062	-0.043
Mof_N 	N 	0.3441	0.2628	0.6486	-0.22
Mof_Ag	Ag	0.5	0.5	0.5	0.47
_end
