data_functionalizedCrystal
_audit_creation_method	'EQeq! by Chris Wilmer'
_symmetry_space_group_name_H-M	'P1'
_symmetry_Int_Tables_number	1
_symmetry_cell_setting	triclinic
loop_
_symmetry_equiv_pos_as_xyz
  x,y,z
_cell_length_a	15.425
_cell_length_b	12.1842
_cell_length_c	16.059
_cell_angle_alpha	90
_cell_angle_beta	90
_cell_angle_gamma	90
loop_
_atom_site_label
_atom_site_type_symbol
_atom_site_fract_x
_atom_site_fract_y
_atom_site_fract_z
_atom_site_charge
Mof_Li	Li	0.09035	0.48739	0.41352	5.258
Mof_O 	O 	0.1062	0.3899	0.3181	-1.357
Mof_C 	C 	0.1455	0.3793	0.1776	-0.278
Mof_C 	C 	0.1444	0.4302	0.2653	0.626
Mof_C 	C 	0.2025	0.3682	0.0383	-0.322
Mof_C 	C 	0.1466	0.2817	0.0219	0.249
Mof_H 	H 	0.147	0.2495	0.9694	-0.042
Mof_C 	C 	0.0908	0.2909	0.1609	0.239
Mof_H 	H 	0.0545	0.264	0.2024	-0.022
Mof_O 	O 	0.1863	0.5227	0.2684	-0.547
Mof_C 	C 	0.1998	0.4189	0.1164	0.238
Mof_H 	H 	0.2349	0.4794	0.1271	-0.025
Mof_C 	C 	0.0303	0.1507	0.0618	0.586
Mof_O 	O 	0.022	0.1228	0.9867	-0.688
Mof_O 	O 	0.9885	0.1059	0.1205	-1.263
Mof_C 	C 	0.2667	0.4113	0.9749	0.778
Mof_O 	O 	0.3137	0.4816	0.9901	-1.422
Mof_O 	O 	0.2909	0.3294	0.9219	-0.395
Mof_O 	O 	0.2429	0.3895	0.8934	-0.294
Mof_C 	C 	0.0903	0.2423	0.0818	-0.294
Mof_Co	Co	0.09035	0.01261	0.91352	1.165
Mof_Li	Li	0.40965	0.51261	0.91352	5.254
Mof_O 	O 	0.3938	0.6101	0.8181	-1.353
Mof_C 	C 	0.3545	0.6207	0.6776	-0.273
Mof_C 	C 	0.3556	0.5698	0.7653	0.626
Mof_C 	C 	0.2975	0.6318	0.5383	-0.315
Mof_C 	C 	0.3534	0.7183	0.5219	0.233
Mof_H 	H 	0.353	0.7505	0.4694	-0.03
Mof_C 	C 	0.4092	0.7091	0.6609	0.236
Mof_H 	H 	0.4455	0.736	0.7024	-0.017
Mof_O 	O 	0.3137	0.4773	0.7684	-0.547
Mof_C 	C 	0.3002	0.5811	0.6164	0.234
Mof_H 	H 	0.2651	0.5206	0.6271	-0.024
Mof_C 	C 	0.4697	0.8493	0.5618	0.591
Mof_O 	O 	0.478	0.8772	0.4867	-0.676
Mof_O 	O 	0.5115	0.8941	0.6205	-1.29
Mof_C 	C 	0.2333	0.5887	0.4749	0.779
Mof_O 	O 	0.1863	0.5184	0.4901	-1.422
Mof_O 	O 	0.2091	0.6706	0.4219	-0.39
Mof_O 	O 	0.2571	0.6105	0.3934	-0.294
Mof_C 	C 	0.4097	0.7577	0.5818	-0.286
Mof_Co	Co	0.40965	0.98739	0.41352	1.182
Mof_Li	Li	0.90965	0.98739	0.08648	5.152
Mof_O 	O 	0.8938	0.8899	0.1819	-1.331
Mof_C 	C 	0.8545	0.8793	0.3224	-0.269
Mof_C 	C 	0.8556	0.9302	0.2347	0.607
Mof_C 	C 	0.7975	0.8682	0.4617	-0.312
Mof_C 	C 	0.8534	0.7817	0.4781	0.23
Mof_H 	H 	0.853	0.7495	0.5306	-0.03
Mof_C 	C 	0.9092	0.7909	0.3391	0.232
Mof_H 	H 	0.9455	0.764	0.2976	-0.017
Mof_O 	O 	0.8137	0.0227	0.2316	-0.527
Mof_C 	C 	0.8002	0.9189	0.3836	0.23
Mof_H 	H 	0.7651	0.9794	0.3729	-0.023
Mof_C 	C 	0.9697	0.6507	0.4382	0.591
Mof_O 	O 	0.978	0.6228	0.5133	-0.679
Mof_O 	O 	0.0115	0.6059	0.3795	-1.299
Mof_C 	C 	0.7333	0.9113	0.5251	0.775
Mof_O 	O 	0.6863	0.9816	0.5099	-1.413
Mof_O 	O 	0.7091	0.8294	0.5781	-0.39
Mof_O 	O 	0.7571	0.8895	0.6066	-0.292
Mof_C 	C 	0.9097	0.7423	0.4182	-0.286
Mof_Co	Co	0.90965	0.51261	0.58648	1.178
Mof_Li	Li	0.59035	0.01261	0.58648	5.227
Mof_O 	O 	0.6062	0.1101	0.6819	-1.346
Mof_C 	C 	0.6455	0.1207	0.8224	-0.269
Mof_C 	C 	0.6444	0.0698	0.7347	0.612
Mof_C 	C 	0.7025	0.1318	0.9617	-0.32
Mof_C 	C 	0.6466	0.2183	0.9781	0.208
Mof_H 	H 	0.647	0.2505	0.0306	-0.016
Mof_C 	C 	0.5908	0.2091	0.8391	0.228
Mof_H 	H 	0.5545	0.236	0.7976	-0.016
Mof_O 	O 	0.6863	0.9773	0.7316	-0.533
Mof_C 	C 	0.6998	0.0811	0.8836	0.23
Mof_H 	H 	0.7349	0.0206	0.8729	-0.027
Mof_C 	C 	0.5303	0.3493	0.9382	0.58
Mof_O 	O 	0.522	0.3772	0.0133	-0.672
Mof_O 	O 	0.4885	0.3941	0.8795	-1.297
Mof_C 	C 	0.7667	0.0887	0.0251	0.781
Mof_O 	O 	0.8137	0.0184	0.0099	-1.388
Mof_O 	O 	0.7909	0.1706	0.0781	-0.385
Mof_O 	O 	0.7429	0.1105	0.1066	-0.289
Mof_C 	C 	0.5903	0.2577	0.9182	-0.278
Mof_Co	Co	0.59035	0.48739	0.08648	1.178
Mof_O 	O 	0.8938	0.6101	0.6819	-0.47
Mof_C 	C 	0.8545	0.6207	0.8224	-0.203
Mof_C 	C 	0.8556	0.5698	0.7347	0.411
Mof_C 	C 	0.7975	0.6318	0.9617	-0.263
Mof_C 	C 	0.8534	0.7183	0.9781	0.279
Mof_H 	H 	0.853	0.7505	0.0306	-0.127
Mof_C 	C 	0.9092	0.7091	0.8391	0.193
Mof_H 	H 	0.9455	0.736	0.7976	-0.006
Mof_O 	O 	0.8137	0.4773	0.7316	-0.288
Mof_C 	C 	0.8002	0.5811	0.8836	0.156
Mof_H 	H 	0.7651	0.5206	0.8729	-0.001
Mof_C 	C 	0.9697	0.8493	0.9382	0.653
Mof_O 	O 	0.978	0.8772	0.0133	-1.213
Mof_O 	O 	0.0115	0.8941	0.8795	-0.512
Mof_C 	C 	0.7333	0.5887	0.0251	0.485
Mof_O 	O 	0.6863	0.5184	0.0099	-0.52
Mof_O 	O 	0.7091	0.6706	0.0781	-0.227
Mof_O 	O 	0.7571	0.6105	0.1066	-0.177
Mof_C 	C 	0.9097	0.7577	0.9182	-0.344
Mof_O 	O 	0.6062	0.3899	0.1819	-0.469
Mof_C 	C 	0.6455	0.3793	0.3224	-0.202
Mof_C 	C 	0.6444	0.4302	0.2347	0.411
Mof_C 	C 	0.7025	0.3682	0.4617	-0.259
Mof_C 	C 	0.6466	0.2817	0.4781	0.269
Mof_H 	H 	0.647	0.2495	0.5306	-0.121
Mof_C 	C 	0.5908	0.2909	0.3391	0.192
Mof_H 	H 	0.5545	0.264	0.2976	-0.004
Mof_O 	O 	0.6863	0.5227	0.2316	-0.287
Mof_C 	C 	0.6998	0.4189	0.3836	0.154
Mof_H 	H 	0.7349	0.4794	0.3729	0
Mof_C 	C 	0.5303	0.1507	0.4382	0.658
Mof_O 	O 	0.522	0.1228	0.5133	-1.219
Mof_O 	O 	0.4885	0.1059	0.3795	-0.53
Mof_C 	C 	0.7667	0.4113	0.5251	0.485
Mof_O 	O 	0.8137	0.4816	0.5099	-0.52
Mof_O 	O 	0.7909	0.3294	0.5781	-0.225
Mof_O 	O 	0.7429	0.3895	0.6066	-0.178
Mof_C 	C 	0.5903	0.2423	0.4182	-0.342
Mof_O 	O 	0.1062	0.1101	0.8181	-0.466
Mof_C 	C 	0.1455	0.1207	0.6776	-0.197
Mof_C 	C 	0.1444	0.0698	0.7653	0.383
Mof_C 	C 	0.2025	0.1318	0.5383	-0.26
Mof_C 	C 	0.1466	0.2183	0.5219	0.267
Mof_H 	H 	0.147	0.2505	0.4694	-0.122
Mof_C 	C 	0.0908	0.2091	0.6609	0.186
Mof_H 	H 	0.0545	0.236	0.7024	-0.005
Mof_O 	O 	0.1863	0.9773	0.7684	-0.263
Mof_C 	C 	0.1998	0.0811	0.6164	0.149
Mof_H 	H 	0.2349	0.0206	0.6271	-0.003
Mof_C 	C 	0.0303	0.3493	0.5618	0.654
Mof_O 	O 	0.022	0.3772	0.4867	-1.223
Mof_O 	O 	0.9885	0.3941	0.6205	-0.526
Mof_C 	C 	0.2667	0.0887	0.4749	0.485
Mof_O 	O 	0.3137	0.0184	0.4901	-0.524
Mof_O 	O 	0.2909	0.1706	0.4219	-0.226
Mof_O 	O 	0.2429	0.1105	0.3934	-0.179
Mof_C 	C 	0.0903	0.2577	0.5818	-0.342
Mof_O 	O 	0.3938	0.8899	0.3181	-0.469
Mof_C 	C 	0.3545	0.8793	0.1776	-0.202
Mof_C 	C 	0.3556	0.9302	0.2653	0.413
Mof_C 	C 	0.2975	0.8682	0.0383	-0.266
Mof_C 	C 	0.3534	0.7817	0.0219	0.253
Mof_H 	H 	0.353	0.7495	0.9694	-0.11
Mof_C 	C 	0.4092	0.7909	0.1609	0.188
Mof_H 	H 	0.4455	0.764	0.2024	-0.004
Mof_O 	O 	0.3137	0.0227	0.2684	-0.288
Mof_C 	C 	0.3002	0.9189	0.1164	0.155
Mof_H 	H 	0.2651	0.9794	0.1271	-0.001
Mof_C 	C 	0.4697	0.6507	0.0618	0.652
Mof_O 	O 	0.478	0.6228	0.9867	-1.217
Mof_O 	O 	0.5115	0.6059	0.1205	-0.529
Mof_C 	C 	0.2333	0.9113	0.9749	0.492
Mof_O 	O 	0.1863	0.9816	0.9901	-0.503
Mof_O 	O 	0.2091	0.8294	0.9219	-0.224
Mof_O 	O 	0.2571	0.8895	0.8934	-0.173
Mof_C 	C 	0.4097	0.7423	0.0818	-0.337
_end
