data_functionalizedCrystal
_audit_creation_method	'EQeq! by Chris Wilmer'
_symmetry_space_group_name_H-M	'P1'
_symmetry_Int_Tables_number	1
_symmetry_cell_setting	triclinic
loop_
_symmetry_equiv_pos_as_xyz
  x,y,z
_cell_length_a	17.088
_cell_length_b	17.088
_cell_length_c	10.745
_cell_angle_alpha	90
_cell_angle_beta	90
_cell_angle_gamma	90
loop_
_atom_site_label
_atom_site_type_symbol
_atom_site_fract_x
_atom_site_fract_y
_atom_site_fract_z
_atom_site_charge
Mof_Mo	Mo	0.30937	0.91064	0.05836	2.143
Mof_P 	P 	0.41751	0.88548	0.80346	0.592
Mof_O 	O 	0.4297	0.8177	0.7145	-0.388
Mof_O 	O 	0.35543	0.85762	0.8985	-0.419
Mof_O 	O 	0.39992	0.95659	0.083	-0.65
Mof_O 	O 	0.28471	0.00056	0.9161	-0.718
Mof_O 	O 	0.38263	0.95464	0.7276	-0.389
Mof_O 	O 	0.32022	0.82332	0.1409	-0.679
Mof_O 	O 	0.49317	0.91084	0.8684	-0.318
Mof_Mo	Mo	0.80937	0.41064	0.55836	2.237
Mof_P 	P 	0.91751	0.38548	0.30346	0.591
Mof_O 	O 	0.9297	0.3177	0.2145	-0.328
Mof_O 	O 	0.85543	0.35762	0.3985	-0.452
Mof_O 	O 	0.89992	0.45659	0.583	-0.607
Mof_O 	O 	0.78471	0.50056	0.4161	-0.699
Mof_O 	O 	0.88263	0.45464	0.2276	-0.431
Mof_O 	O 	0.82022	0.32332	0.6409	-0.659
Mof_O 	O 	0.99317	0.41084	0.3684	-0.267
Mof_Mo	Mo	0.19063	0.08936	0.55836	2.181
Mof_P 	P 	0.08249	0.11452	0.30346	0.59
Mof_O 	O 	0.0703	0.1823	0.2145	-0.453
Mof_O 	O 	0.14457	0.14238	0.3985	-0.483
Mof_O 	O 	0.10008	0.04341	0.583	-0.744
Mof_O 	O 	0.21529	0.99944	0.4161	-0.657
Mof_O 	O 	0.11737	0.04536	0.2276	-0.521
Mof_O 	O 	0.17978	0.17668	0.6409	-0.691
Mof_O 	O 	0.00683	0.08916	0.3684	-0.474
Mof_Mo	Mo	0.69063	0.58936	0.05836	2.096
Mof_P 	P 	0.58249	0.61452	0.80346	0.591
Mof_O 	O 	0.5703	0.6823	0.7145	-0.39
Mof_O 	O 	0.64457	0.64238	0.8985	-0.421
Mof_O 	O 	0.60008	0.54341	0.083	-0.679
Mof_O 	O 	0.71529	0.49944	0.9161	-0.659
Mof_O 	O 	0.61737	0.54536	0.7276	-0.44
Mof_O 	O 	0.67978	0.67668	0.1409	-0.672
Mof_O 	O 	0.50683	0.58916	0.8684	-0.349
Mof_Mo	Mo	0.83936	0.55937	0.30836	2.226
Mof_P 	P 	0.86452	0.66751	0.05346	0.504
Mof_O 	O 	0.9323	0.6797	0.9645	-0.253
Mof_O 	O 	0.89238	0.60543	0.1485	-0.432
Mof_O 	O 	0.79341	0.64992	0.333	-0.669
Mof_O 	O 	0.74944	0.53471	0.1661	-0.69
Mof_O 	O 	0.79536	0.63263	0.9776	-0.359
Mof_O 	O 	0.92668	0.57022	0.3909	-0.604
Mof_O 	O 	0.83916	0.74317	0.1184	-0.354
Mof_Mo	Mo	0.33936	0.05937	0.80836	2.166
Mof_P 	P 	0.36452	0.16751	0.55346	0.593
Mof_O 	O 	0.4323	0.1797	0.4645	-0.407
Mof_O 	O 	0.39238	0.10543	0.6485	-0.474
Mof_O 	O 	0.29341	0.14992	0.833	-0.664
Mof_O 	O 	0.24944	0.03471	0.6661	-0.726
Mof_O 	O 	0.29536	0.13263	0.4776	-0.457
Mof_O 	O 	0.42668	0.07022	0.8909	-0.668
Mof_O 	O 	0.33916	0.24317	0.6184	-0.374
Mof_Mo	Mo	0.66064	0.44063	0.80836	2.237
Mof_P 	P 	0.63548	0.33249	0.55346	0.594
Mof_O 	O 	0.5677	0.3203	0.4645	-0.399
Mof_O 	O 	0.60762	0.39457	0.6485	-0.466
Mof_O 	O 	0.70659	0.35008	0.833	-0.667
Mof_O 	O 	0.75056	0.46529	0.6661	-0.693
Mof_O 	O 	0.70464	0.36737	0.4776	-0.446
Mof_O 	O 	0.57332	0.42978	0.8909	-0.657
Mof_O 	O 	0.66084	0.25683	0.6184	-0.376
Mof_Mo	Mo	0.16064	0.94063	0.30836	2.284
Mof_P 	P 	0.13548	0.83249	0.05346	0.504
Mof_O 	O 	0.0677	0.8203	0.9645	-0.393
Mof_O 	O 	0.10762	0.89457	0.1485	-0.491
Mof_O 	O 	0.20659	0.85008	0.333	-0.696
Mof_O 	O 	0.25056	0.96529	0.1661	-0.676
Mof_O 	O 	0.20464	0.86737	0.9776	-0.366
Mof_O 	O 	0.07332	0.92978	0.3909	-0.713
Mof_O 	O 	0.16084	0.75683	0.1184	-0.401
Mof_Mo	Mo	0.69063	0.08936	0.94164	2.317
Mof_P 	P 	0.58249	0.11452	0.19654	0.596
Mof_O 	O 	0.5703	0.1823	0.2855	-0.405
Mof_O 	O 	0.64457	0.14238	0.1015	-0.505
Mof_O 	O 	0.60008	0.04341	0.917	-0.697
Mof_O 	O 	0.71529	0.99944	0.0839	-0.69
Mof_O 	O 	0.61737	0.04536	0.2724	-0.494
Mof_O 	O 	0.67978	0.17668	0.8591	-0.684
Mof_O 	O 	0.50683	0.08916	0.1316	-0.409
Mof_Mo	Mo	0.19063	0.58936	0.44164	2.234
Mof_P 	P 	0.08249	0.61452	0.69654	0.592
Mof_O 	O 	0.0703	0.6823	0.7855	-0.433
Mof_O 	O 	0.14457	0.64238	0.6015	-0.475
Mof_O 	O 	0.10008	0.54341	0.417	-0.731
Mof_O 	O 	0.21529	0.49944	0.5839	-0.706
Mof_O 	O 	0.11737	0.54536	0.7724	-0.454
Mof_O 	O 	0.17978	0.67668	0.3591	-0.704
Mof_O 	O 	0.00683	0.58916	0.6316	-0.454
Mof_Mo	Mo	0.80937	0.91064	0.44164	2.288
Mof_P 	P 	0.91751	0.88548	0.69654	0.593
Mof_O 	O 	0.9297	0.8177	0.7855	-0.308
Mof_O 	O 	0.85543	0.85762	0.6015	-0.443
Mof_O 	O 	0.89992	0.95659	0.417	-0.585
Mof_O 	O 	0.78471	0.00056	0.5839	-0.746
Mof_O 	O 	0.88263	0.95464	0.7724	-0.36
Mof_O 	O 	0.82022	0.82332	0.3591	-0.672
Mof_O 	O 	0.99317	0.91084	0.6316	-0.237
Mof_Mo	Mo	0.30937	0.41064	0.94164	2.373
Mof_P 	P 	0.41751	0.38548	0.19654	0.597
Mof_O 	O 	0.4297	0.3177	0.2855	-0.404
Mof_O 	O 	0.35543	0.35762	0.1015	-0.507
Mof_O 	O 	0.39992	0.45659	0.917	-0.677
Mof_O 	O 	0.28471	0.50056	0.0839	-0.746
Mof_O 	O 	0.38263	0.45464	0.2724	-0.448
Mof_O 	O 	0.32022	0.32332	0.8591	-0.693
Mof_O 	O 	0.49317	0.41084	0.1316	-0.392
Mof_Mo	Mo	0.16064	0.44063	0.69164	2.246
Mof_P 	P 	0.13548	0.33249	0.94654	0.676
Mof_O 	O 	0.0677	0.3203	0.0355	-0.505
Mof_O 	O 	0.10762	0.39457	0.8515	-0.498
Mof_O 	O 	0.20659	0.35008	0.667	-0.694
Mof_O 	O 	0.25056	0.46529	0.8339	-0.716
Mof_O 	O 	0.20464	0.36737	0.0224	-0.524
Mof_O 	O 	0.07332	0.42978	0.6091	-0.735
Mof_O 	O 	0.16084	0.25683	0.8816	-0.393
Mof_Mo	Mo	0.66064	0.94063	0.19164	2.302
Mof_P 	P 	0.63548	0.83249	0.44654	0.595
Mof_O 	O 	0.5677	0.8203	0.5355	-0.388
Mof_O 	O 	0.60762	0.89457	0.3515	-0.458
Mof_O 	O 	0.70659	0.85008	0.167	-0.7
Mof_O 	O 	0.75056	0.96529	0.3339	-0.681
Mof_O 	O 	0.70464	0.86737	0.5224	-0.431
Mof_O 	O 	0.57332	0.92978	0.1091	-0.682
Mof_O 	O 	0.66084	0.75683	0.3816	-0.376
Mof_Mo	Mo	0.33936	0.55937	0.19164	2.238
Mof_P 	P 	0.36452	0.66751	0.44654	0.594
Mof_O 	O 	0.4323	0.6797	0.5355	-0.396
Mof_O 	O 	0.39238	0.60543	0.3515	-0.467
Mof_O 	O 	0.29341	0.64992	0.167	-0.698
Mof_O 	O 	0.24944	0.53471	0.3339	-0.713
Mof_O 	O 	0.29536	0.63263	0.5224	-0.443
Mof_O 	O 	0.42668	0.57022	0.1091	-0.7
Mof_O 	O 	0.33916	0.74317	0.3816	-0.374
Mof_Mo	Mo	0.83936	0.05937	0.69164	2.182
Mof_P 	P 	0.86452	0.16751	0.94654	0.669
Mof_O 	O 	0.9323	0.1797	0.0355	-0.362
Mof_O 	O 	0.89238	0.10543	0.8515	-0.439
Mof_O 	O 	0.79341	0.14992	0.667	-0.666
Mof_O 	O 	0.74944	0.03471	0.8339	-0.729
Mof_O 	O 	0.79536	0.13263	0.0224	-0.51
Mof_O 	O 	0.92668	0.07022	0.6091	-0.615
Mof_O 	O 	0.83916	0.24317	0.8816	-0.345
Mof_Co	Co	0.5	0.75	0.625	1.214
Mof_Co	Co	1.30041e-33	0.25	0.125	1.126
Mof_Co	Co	-5.98272e-33	0.75	0.875	1.135
Mof_Co	Co	0.5	0.25	0.375	1.21
Mof_Co	Co	0.5	0	-0	1.177
Mof_Co	Co	1.17882e-33	0.5	0.5	1.153
Mof_Co	Co	1.17882e-33	0	0.5	1.119
Mof_Co	Co	0.5	0.5	-0	1.208
Mof_Co	Co	0.75	0.75	0.25	1.236
Mof_Co	Co	0.75	0.25	0.75	1.238
Mof_Co	Co	0.25	0.25	0.75	1.235
Mof_Co	Co	0.25	0.75	0.25	1.233
_end
