data_functionalizedCrystal
_audit_creation_method	'EQeq! by Chris Wilmer'
_symmetry_space_group_name_H-M	'P1'
_symmetry_Int_Tables_number	1
_symmetry_cell_setting	triclinic
loop_
_symmetry_equiv_pos_as_xyz
  x,y,z
_cell_length_a	12.7932
_cell_length_b	12.7932
_cell_length_c	18.0331
_cell_angle_alpha	91.8646
_cell_angle_beta	91.8646
_cell_angle_gamma	106.133
loop_
_atom_site_label
_atom_site_type_symbol
_atom_site_fract_x
_atom_site_fract_y
_atom_site_fract_z
_atom_site_charge
Mof_Ni	Ni	0.23711	0.27551	0.71057	1.085
Mof_Ni	Ni	0.72449	0.76289	0.78943	1.092
Mof_Ni	Ni	0.76289	0.72449	0.28943	1.092
Mof_Ni	Ni	0.27551	0.23711	0.21057	1.085
Mof_Ni	Ni	1.25493e-18	0	0.5	1.013
Mof_Ni	Ni	-0	0	-0	1.003
Mof_H 	H 	0.5231	0.4679	0.6795	0.059
Mof_H 	H 	0.4609	0.6801	0.5338	0.058
Mof_H 	H 	0.2833	0.3625	0.5203	0.059
Mof_H 	H 	0.347	0.2278	0.526	0.151
Mof_H 	H 	0.358	0.1398	0.5844	0.136
Mof_H 	H 	0.507	0.2404	0.6498	0.145
Mof_H 	H 	0.4901	0.3229	0.7142	0.132
Mof_H 	H 	0.3083	0.5249	0.721	-0.007
Mof_H 	H 	0.0424	0.323	0.6297	-0.048
Mof_H 	H 	0.2665	0.6715	0.6712	0.102
Mof_H 	H 	0.9874	0.466	0.5836	0.18
Mof_H 	H 	0.2378	0.7522	0.5429	0.068
Mof_H 	H 	0.9356	0.6414	0.6215	0.091
Mof_H 	H 	0.1881	0.8999	0.4998	0.025
Mof_H 	H 	0.8949	0.7899	0.5755	0.009
Mof_H 	H 	0.2666	0.653	0.408	0.241
Mof_H 	H 	0.5321	0.4769	0.8205	0.062
Mof_H 	H 	0.3199	0.5391	0.9662	0.066
Mof_H 	H 	0.6375	0.7167	0.9797	0.074
Mof_H 	H 	0.7722	0.653	0.974	0.165
Mof_H 	H 	0.8602	0.642	0.9156	0.159
Mof_H 	H 	0.7596	0.493	0.8502	0.152
Mof_H 	H 	0.6771	0.5099	0.7858	0.13
Mof_H 	H 	0.4751	0.6917	0.779	0.018
Mof_H 	H 	0.677	0.9576	0.8703	0.049
Mof_H 	H 	0.3285	0.7335	0.8288	0.053
Mof_H 	H 	0.534	0.0126	0.9164	-0.016
Mof_H 	H 	0.2478	0.7622	0.9571	0.122
Mof_H 	H 	0.3586	0.0644	0.8785	0.15
Mof_H 	H 	0.1001	0.8119	0.0002	-0.065
Mof_H 	H 	0.2101	0.1051	0.9245	-0.001
Mof_H 	H 	0.347	0.7334	0.092	0.241
Mof_H 	H 	0.4769	0.5321	0.3205	0.059
Mof_H 	H 	0.5391	0.3199	0.4662	0.052
Mof_H 	H 	0.7167	0.6375	0.4797	0.061
Mof_H 	H 	0.653	0.7722	0.474	0.157
Mof_H 	H 	0.642	0.8602	0.4156	0.155
Mof_H 	H 	0.493	0.7596	0.3502	0.15
Mof_H 	H 	0.5099	0.6771	0.2858	0.13
Mof_H 	H 	0.6917	0.4751	0.279	0.018
Mof_H 	H 	0.9576	0.677	0.3703	0.046
Mof_H 	H 	0.7335	0.3285	0.3288	0.053
Mof_H 	H 	0.0126	0.534	0.4164	-0.021
Mof_H 	H 	0.7622	0.2478	0.4571	0.104
Mof_H 	H 	0.0644	0.3586	0.3785	0.145
Mof_H 	H 	0.8119	0.1001	0.5002	-0.024
Mof_H 	H 	0.1051	0.2101	0.4245	-0.004
Mof_H 	H 	0.7334	0.347	0.592	0.245
Mof_H 	H 	0.4679	0.5231	0.1795	0.056
Mof_H 	H 	0.6801	0.4609	0.0338	0.045
Mof_H 	H 	0.3625	0.2833	0.0203	0.046
Mof_H 	H 	0.2278	0.347	0.026	0.143
Mof_H 	H 	0.1398	0.358	0.0844	0.131
Mof_H 	H 	0.2404	0.507	0.1498	0.143
Mof_H 	H 	0.3229	0.4901	0.2142	0.132
Mof_H 	H 	0.5249	0.3083	0.221	-0.007
Mof_H 	H 	0.323	0.0424	0.1297	-0.051
Mof_H 	H 	0.6715	0.2665	0.1712	0.102
Mof_H 	H 	0.466	0.9874	0.0836	0.176
Mof_H 	H 	0.7522	0.2378	0.0429	0.052
Mof_H 	H 	0.6414	0.9356	0.1215	0.087
Mof_H 	H 	0.8999	0.1881	0.9998	0.063
Mof_H 	H 	0.7899	0.8949	0.0755	0.007
Mof_H 	H 	0.653	0.2666	0.908	0.245
Mof_C 	C 	0.39904	0.39656	0.6039	0.037
Mof_C 	C 	0.4819	0.4819	0.6381	-0.041
Mof_C 	C 	0.5044	0.5866	0.6122	-0.063
Mof_C 	C 	0.4454	0.6086	0.5517	0.008
Mof_C 	C 	0.3633	0.5239	0.5178	-0.065
Mof_C 	C 	0.3401	0.4191	0.5439	-0.051
Mof_C 	C 	0.5931	0.6769	0.6509	0.337
Mof_C 	C 	0.3003	0.5429	0.451	0.352
Mof_C 	C 	0.325	0.1998	0.5754	-0.34
Mof_C 	C 	0.20139	0.15421	0.5736	0.436
Mof_C 	C 	0.4522	0.2598	0.6809	-0.314
Mof_C 	C 	0.3977	0.1635	0.7273	0.387
Mof_C 	C 	0.2435	0.5125	0.6908	0.11
Mof_C 	C 	0.0882	0.395	0.6387	0.156
Mof_C 	C 	0.2185	0.6005	0.6623	-0.186
Mof_C 	C 	0.0556	0.4798	0.6101	-0.297
Mof_C 	C 	0.1223	0.5855	0.62	0.154
Mof_C 	C 	0.0925	0.6795	0.5882	-0.052
Mof_C 	C 	0.1669	0.7587	0.5506	-0.077
Mof_C 	C 	0.9893	0.6937	0.5966	-0.032
Mof_C 	C 	0.1363	0.8463	0.5249	0.042
Mof_C 	C 	0.96585	0.78215	0.56918	0.099
Mof_C 	C 	0.60344	0.60096	0.8961	0.048
Mof_C 	C 	0.5181	0.5181	0.8619	-0.048
Mof_C 	C 	0.4134	0.4956	0.8878	-0.054
Mof_C 	C 	0.3914	0.5546	0.9483	-0.007
Mof_C 	C 	0.4761	0.6367	0.9822	-0.028
Mof_C 	C 	0.5809	0.6599	0.9561	-0.067
Mof_C 	C 	0.3231	0.4069	0.8491	0.337
Mof_C 	C 	0.4571	0.6997	0.049	0.32
Mof_C 	C 	0.8002	0.675	0.9246	-0.341
Mof_C 	C 	0.84579	0.79861	0.9264	0.431
Mof_C 	C 	0.7402	0.5478	0.8191	-0.309
Mof_C 	C 	0.8365	0.6023	0.7727	0.38
Mof_C 	C 	0.4875	0.7565	0.8092	0.04
Mof_C 	C 	0.605	0.9118	0.8613	-0.006
Mof_C 	C 	0.3995	0.7815	0.8377	-0.051
Mof_C 	C 	0.5202	0.9444	0.8899	0.069
Mof_C 	C 	0.4145	0.8777	0.88	-0.046
Mof_C 	C 	0.3205	0.9075	0.9118	0.209
Mof_C 	C 	0.2413	0.8331	0.9494	-0.23
Mof_C 	C 	0.3063	0.0107	0.9034	-0.259
Mof_C 	C 	0.1537	0.8637	0.9751	0.179
Mof_C 	C 	0.21785	0.03415	0.93082	0.08
Mof_C 	C 	0.60096	0.60344	0.3961	0.036
Mof_C 	C 	0.5181	0.5181	0.3619	-0.039
Mof_C 	C 	0.4956	0.4134	0.3878	-0.068
Mof_C 	C 	0.5546	0.3914	0.4483	0.011
Mof_C 	C 	0.6367	0.4761	0.4822	-0.068
Mof_C 	C 	0.6599	0.5809	0.4561	-0.049
Mof_C 	C 	0.4069	0.3231	0.3491	0.341
Mof_C 	C 	0.6997	0.4571	0.549	0.353
Mof_C 	C 	0.675	0.8002	0.4246	-0.339
Mof_C 	C 	0.79861	0.84579	0.4264	0.431
Mof_C 	C 	0.5478	0.7402	0.3191	-0.308
Mof_C 	C 	0.6023	0.8365	0.2727	0.38
Mof_C 	C 	0.7565	0.4875	0.3092	0.04
Mof_C 	C 	0.9118	0.605	0.3613	-0.007
Mof_C 	C 	0.7815	0.3995	0.3377	-0.053
Mof_C 	C 	0.9444	0.5202	0.3899	0.068
Mof_C 	C 	0.8777	0.4145	0.38	-0.044
Mof_C 	C 	0.9075	0.3205	0.4118	0.193
Mof_C 	C 	0.8331	0.2413	0.4494	-0.199
Mof_C 	C 	0.0107	0.3063	0.4034	-0.252
Mof_C 	C 	0.8637	0.1537	0.4751	0.118
Mof_C 	C 	0.03415	0.21785	0.43082	0.069
Mof_C 	C 	0.39656	0.39904	0.1039	0.025
Mof_C 	C 	0.4819	0.4819	0.1381	-0.032
Mof_C 	C 	0.5866	0.5044	0.1122	-0.077
Mof_C 	C 	0.6086	0.4454	0.0517	0.026
Mof_C 	C 	0.5239	0.3633	0.0178	-0.105
Mof_C 	C 	0.4191	0.3401	0.0439	-0.033
Mof_C 	C 	0.6769	0.5931	0.1509	0.342
Mof_C 	C 	0.5429	0.3003	0.951	0.385
Mof_C 	C 	0.1998	0.325	0.0754	-0.337
Mof_C 	C 	0.15421	0.20139	0.0736	0.434
Mof_C 	C 	0.2598	0.4522	0.1809	-0.314
Mof_C 	C 	0.1635	0.3977	0.2273	0.387
Mof_C 	C 	0.5125	0.2435	0.1908	0.111
Mof_C 	C 	0.395	0.0882	0.1387	0.156
Mof_C 	C 	0.6005	0.2185	0.1623	-0.19
Mof_C 	C 	0.4798	0.0556	0.1101	-0.301
Mof_C 	C 	0.5855	0.1223	0.12	0.158
Mof_C 	C 	0.6795	0.0925	0.0882	-0.069
Mof_C 	C 	0.7587	0.1669	0.0506	-0.048
Mof_C 	C 	0.6937	0.9893	0.0966	-0.023
Mof_C 	C 	0.8463	0.1363	0.0249	-0.015
Mof_C 	C 	0.78215	0.96585	0.06918	0.088
Mof_N 	N 	0.1817	0.4091	0.67862	-0.255
Mof_N 	N 	0.3694	0.28876	0.63294	-0.11
Mof_N 	N 	0.03738	0.85982	0.5333	-0.25
Mof_N 	N 	0.5909	0.8183	0.82138	-0.206
Mof_N 	N 	0.71124	0.6306	0.86706	-0.111
Mof_N 	N 	0.14018	0.96262	0.9667	-0.224
Mof_N 	N 	0.8183	0.5909	0.32138	-0.206
Mof_N 	N 	0.6306	0.71124	0.36706	-0.11
Mof_N 	N 	0.96262	0.14018	0.4667	-0.219
Mof_N 	N 	0.4091	0.1817	0.17862	-0.256
Mof_N 	N 	0.28876	0.3694	0.13294	-0.109
Mof_N 	N 	0.85982	0.03738	0.0333	-0.243
Mof_O 	O 	0.29807	0.14767	0.73835	-0.412
Mof_O 	O 	0.4534	0.1038	0.749	-0.282
Mof_O 	O 	0.14857	0.18351	0.62424	-0.485
Mof_O 	O 	0.16085	0.08785	0.52182	-0.481
Mof_O 	O 	0.62718	0.65718	0.71325	-0.412
Mof_O 	O 	0.6249	0.7645	0.6191	-0.278
Mof_O 	O 	0.32238	0.64302	0.43135	-0.441
Mof_O 	O 	0.2394	0.4666	0.4144	-0.275
Mof_O 	O 	0.85233	0.70193	0.76165	-0.381
Mof_O 	O 	0.8962	0.5466	0.751	-0.241
Mof_O 	O 	0.81649	0.85143	0.87576	-0.442
Mof_O 	O 	0.91215	0.83915	0.97818	-0.397
Mof_O 	O 	0.34282	0.37282	0.78675	-0.414
Mof_O 	O 	0.2355	0.3751	0.8809	-0.292
Mof_O 	O 	0.35698	0.67762	0.06865	-0.446
Mof_O 	O 	0.5334	0.7606	0.0856	-0.268
Mof_O 	O 	0.70193	0.85233	0.26165	-0.382
Mof_O 	O 	0.5466	0.8962	0.251	-0.242
Mof_O 	O 	0.85143	0.81649	0.37576	-0.445
Mof_O 	O 	0.83915	0.91215	0.47818	-0.411
Mof_O 	O 	0.37282	0.34282	0.28675	-0.416
Mof_O 	O 	0.3751	0.2355	0.3809	-0.3
Mof_O 	O 	0.67762	0.35698	0.56865	-0.447
Mof_O 	O 	0.7606	0.5334	0.5856	-0.271
Mof_O 	O 	0.14767	0.29807	0.23835	-0.413
Mof_O 	O 	0.1038	0.4534	0.249	-0.284
Mof_O 	O 	0.18351	0.14857	0.12424	-0.488
Mof_O 	O 	0.08785	0.16085	0.02182	-0.492
Mof_O 	O 	0.65718	0.62718	0.21325	-0.413
Mof_O 	O 	0.7645	0.6249	0.1191	-0.285
Mof_O 	O 	0.64302	0.32238	0.93135	-0.442
Mof_O 	O 	0.4666	0.2394	0.9144	-0.278
_end
