data_functionalizedCrystal
_audit_creation_method	'EQeq! by Chris Wilmer'
_symmetry_space_group_name_H-M	'P1'
_symmetry_Int_Tables_number	1
_symmetry_cell_setting	triclinic
loop_
_symmetry_equiv_pos_as_xyz
  x,y,z
_cell_length_a	12.1025
_cell_length_b	12.6805
_cell_length_c	21.695
_cell_angle_alpha	82.759
_cell_angle_beta	74.685
_cell_angle_gamma	61.4967
loop_
_atom_site_label
_atom_site_type_symbol
_atom_site_fract_x
_atom_site_fract_y
_atom_site_fract_z
_atom_site_charge
Mof_Dy	Dy	0.50848	0.26032	0.47428	1.92
Mof_Dy	Dy	0.2312	0.26032	0.02572	1.915
Mof_Dy	Dy	0.49152	0.73968	0.52572	1.92
Mof_Dy	Dy	0.7688	0.73968	0.97428	1.915
Mof_Dy	Dy	0.75308	0.49384	0.25	2.062
Mof_Dy	Dy	0.24692	0.50616	0.75	2.062
Mof_Dy	Dy	0.21334	0.57332	0.25	1.567
Mof_Dy	Dy	0.78666	0.42668	0.75	1.567
Mof_H 	H 	0.899	0.1294	0.4148	0.044
Mof_H 	H 	0.1219	0.3008	0.3804	0.053
Mof_H 	H 	0.1041	0.959	0.4071	0.053
Mof_H 	H 	0.1695	0.1956	0.482	0.049
Mof_H 	H 	0.4741	0.12	0.3362	0.06
Mof_H 	H 	0.473	0.9428	0.3454	0.058
Mof_H 	H 	0.9716	0.1294	0.0852	0.045
Mof_H 	H 	0.5773	0.3008	0.1196	0.053
Mof_H 	H 	0.9369	0.959	0.0929	0.053
Mof_H 	H 	0.6349	0.1956	0.018	0.048
Mof_H 	H 	0.4059	0.12	0.1638	0.06
Mof_H 	H 	0.5842	0.9428	0.1546	0.058
Mof_H 	H 	0.101	0.8706	0.5852	0.044
Mof_H 	H 	0.8781	0.6992	0.6196	0.053
Mof_H 	H 	0.8959	0.041	0.5929	0.053
Mof_H 	H 	0.8305	0.8044	0.518	0.049
Mof_H 	H 	0.5259	0.88	0.6638	0.06
Mof_H 	H 	0.527	0.0572	0.6546	0.058
Mof_H 	H 	0.0284	0.8706	0.9148	0.045
Mof_H 	H 	0.4227	0.6992	0.8804	0.053
Mof_H 	H 	0.0631	0.041	0.9071	0.053
Mof_H 	H 	0.3651	0.8044	0.982	0.048
Mof_H 	H 	0.5941	0.88	0.8362	0.06
Mof_H 	H 	0.4158	0.0572	0.8454	0.058
Mof_C 	C 	0.3528	0.3646	0.3519	0.427
Mof_C 	C 	0.5828	0.6984	0.3623	0.439
Mof_C 	C 	0.722	0.2842	0.347	0.388
Mof_C 	C 	0.8426	0.2786	0.3595	-0.046
Mof_C 	C 	0.9197	0.1912	0.3952	-0.035
Mof_C 	C 	0.0303	0.1946	0.4021	0.003
Mof_C 	C 	0.0512	0.2922	0.375	-0.042
Mof_C 	C 	0.9667	0.3754	0.3403	-0.036
Mof_C 	C 	0.9835	0.481	0.3064	0.399
Mof_C 	C 	0.2766	0.7568	0.456	0.326
Mof_C 	C 	0.2395	0.889	0.4586	-0.011
Mof_C 	C 	0.148	0.978	0.4305	-0.067
Mof_C 	C 	0.1207	0.0974	0.4364	0.03
Mof_C 	C 	0.1879	0.1162	0.4737	-0.072
Mof_C 	C 	0.2821	0.0198	0.4982	0.009
Mof_C 	C 	0.3834	0.0274	0.5241	0.298
Mof_C 	C 	0.3741	0.2858	0.2998	-0.044
Mof_C 	C 	0.4387	0.1614	0.3009	-0.036
Mof_C 	C 	0.5815	0.779	0.3041	-0.049
Mof_C 	C 	0.5168	0.9024	0.3056	-0.041
Mof_C 	C 	0.2826	0.3646	0.1481	0.427
Mof_C 	C 	0.7188	0.6984	0.1377	0.438
Mof_C 	C 	0.9938	0.2842	0.153	0.39
Mof_C 	C 	0.8788	0.2786	0.1405	-0.046
Mof_C 	C 	0.8891	0.1912	0.1048	-0.036
Mof_C 	C 	0.7751	0.1946	0.0979	0.005
Mof_C 	C 	0.6566	0.2922	0.125	-0.042
Mof_C 	C 	0.6579	0.3754	0.1597	-0.036
Mof_C 	C 	0.5355	0.481	0.1936	0.398
Mof_C 	C 	0.9666	0.7568	0.044	0.329
Mof_C 	C 	0.8715	0.889	0.0414	-0.013
Mof_C 	C 	0.874	0.978	0.0695	-0.061
Mof_C 	C 	0.7819	0.0974	0.0636	0.025
Mof_C 	C 	0.6959	0.1162	0.0263	-0.068
Mof_C 	C 	0.6981	0.0198	0.0018	0.004
Mof_C 	C 	0.5892	0.0274	0.9759	0.302
Mof_C 	C 	0.3401	0.2858	0.2002	-0.044
Mof_C 	C 	0.3999	0.1614	0.1991	-0.036
Mof_C 	C 	0.6395	0.779	0.1959	-0.049
Mof_C 	C 	0.5808	0.9024	0.1944	-0.041
Mof_C 	C 	0.6472	0.6354	0.6481	0.427
Mof_C 	C 	0.4172	0.3016	0.6377	0.439
Mof_C 	C 	0.278	0.7158	0.653	0.388
Mof_C 	C 	0.1574	0.7214	0.6405	-0.046
Mof_C 	C 	0.0803	0.8088	0.6048	-0.035
Mof_C 	C 	0.9697	0.8054	0.5979	0.003
Mof_C 	C 	0.9488	0.7078	0.625	-0.042
Mof_C 	C 	0.0333	0.6246	0.6597	-0.036
Mof_C 	C 	0.0165	0.519	0.6936	0.399
Mof_C 	C 	0.7234	0.2432	0.544	0.326
Mof_C 	C 	0.7605	0.111	0.5414	-0.011
Mof_C 	C 	0.852	0.022	0.5695	-0.067
Mof_C 	C 	0.8793	0.9026	0.5636	0.03
Mof_C 	C 	0.8121	0.8838	0.5263	-0.072
Mof_C 	C 	0.7179	0.9802	0.5018	0.009
Mof_C 	C 	0.6166	0.9726	0.4759	0.298
Mof_C 	C 	0.6259	0.7142	0.7002	-0.044
Mof_C 	C 	0.5613	0.8386	0.6991	-0.036
Mof_C 	C 	0.4185	0.221	0.6959	-0.049
Mof_C 	C 	0.4832	0.0976	0.6944	-0.041
Mof_C 	C 	0.7174	0.6354	0.8519	0.427
Mof_C 	C 	0.2812	0.3016	0.8623	0.438
Mof_C 	C 	0.0062	0.7158	0.847	0.39
Mof_C 	C 	0.1212	0.7214	0.8595	-0.046
Mof_C 	C 	0.1109	0.8088	0.8952	-0.036
Mof_C 	C 	0.2249	0.8054	0.9021	0.005
Mof_C 	C 	0.3434	0.7078	0.875	-0.042
Mof_C 	C 	0.3421	0.6246	0.8403	-0.036
Mof_C 	C 	0.4645	0.519	0.8064	0.398
Mof_C 	C 	0.0334	0.2432	0.956	0.329
Mof_C 	C 	0.1285	0.111	0.9586	-0.013
Mof_C 	C 	0.126	0.022	0.9305	-0.061
Mof_C 	C 	0.2181	0.9026	0.9364	0.025
Mof_C 	C 	0.3041	0.8838	0.9737	-0.068
Mof_C 	C 	0.3019	0.9802	0.9982	0.004
Mof_C 	C 	0.4108	0.9726	0.0241	0.302
Mof_C 	C 	0.6599	0.7142	0.7998	-0.044
Mof_C 	C 	0.6001	0.8386	0.8009	-0.036
Mof_C 	C 	0.3605	0.221	0.8041	-0.049
Mof_C 	C 	0.4192	0.0976	0.8056	-0.041
Mof_C 	C 	0.4509	0.0982	0.25	0.011
Mof_C 	C 	0.5159	0.9682	0.25	0.012
Mof_C 	C 	0.5491	0.9018	0.75	0.011
Mof_C 	C 	0.4841	0.0318	0.75	0.012
Mof_N 	N 	0.867	0.3674	0.3316	-0.203
Mof_N 	N 	0.3004	0.912	0.4937	-0.195
Mof_N 	N 	0.7656	0.3674	0.1684	-0.203
Mof_N 	N 	0.7876	0.912	0.0063	-0.191
Mof_N 	N 	0.133	0.6326	0.6684	-0.203
Mof_N 	N 	0.6996	0.088	0.5063	-0.195
Mof_N 	N 	0.2344	0.6326	0.8316	-0.203
Mof_N 	N 	0.2124	0.088	0.9937	-0.191
Mof_N 	N 	0.3275	0.345	0.25	-0.156
Mof_N 	N 	0.6417	0.7166	0.25	-0.201
Mof_N 	N 	0.6725	0.655	0.75	-0.156
Mof_N 	N 	0.3583	0.2834	0.75	-0.201
Mof_O 	O 	0.6804	0.3512	0.3017	-0.469
Mof_O 	O 	0.6745	0.2218	0.3815	-0.471
Mof_O 	O 	0.8999	0.5482	0.2753	-0.491
Mof_O 	O 	0.0767	0.4938	0.311	-0.468
Mof_O 	O 	0.3533	0.6854	0.4898	-0.455
Mof_O 	O 	0.2265	0.725	0.4234	-0.285
Mof_O 	O 	0.4111	0.9458	0.5695	-0.338
Mof_O 	O 	0.4315	0.105	0.5027	-0.366
Mof_O 	O 	0.3054	0.4746	0.3422	-0.45
Mof_O 	O 	0.3818	0.3098	0.4029	-0.518
Mof_O 	O 	0.6293	0.5884	0.3524	-0.505
Mof_O 	O 	0.5356	0.7518	0.4134	-0.513
Mof_O 	O 	0.9684	0.3512	0.1983	-0.469
Mof_O 	O 	0.1037	0.2218	0.1185	-0.473
Mof_O 	O 	0.5519	0.5482	0.2247	-0.491
Mof_O 	O 	0.4295	0.4938	0.189	-0.467
Mof_O 	O 	0.9613	0.6854	0.0102	-0.453
Mof_O 	O 	0.0485	0.725	0.0766	-0.287
Mof_O 	O 	0.6431	0.9458	0.9305	-0.341
Mof_O 	O 	0.4635	0.105	0.9973	-0.365
Mof_O 	O 	0.22	0.4746	0.1578	-0.45
Mof_O 	O 	0.3084	0.3098	0.0971	-0.518
Mof_O 	O 	0.7823	0.5884	0.1476	-0.504
Mof_O 	O 	0.7126	0.7518	0.0866	-0.511
Mof_O 	O 	0.3196	0.6488	0.6983	-0.469
Mof_O 	O 	0.3255	0.7782	0.6185	-0.471
Mof_O 	O 	0.1001	0.4518	0.7247	-0.491
Mof_O 	O 	0.9233	0.5062	0.689	-0.468
Mof_O 	O 	0.6467	0.3146	0.5102	-0.455
Mof_O 	O 	0.7735	0.275	0.5766	-0.285
Mof_O 	O 	0.5889	0.0542	0.4305	-0.338
Mof_O 	O 	0.5685	0.895	0.4973	-0.366
Mof_O 	O 	0.6946	0.5254	0.6578	-0.45
Mof_O 	O 	0.6182	0.6902	0.5971	-0.518
Mof_O 	O 	0.3707	0.4116	0.6476	-0.505
Mof_O 	O 	0.4644	0.2482	0.5866	-0.513
Mof_O 	O 	0.0316	0.6488	0.8017	-0.469
Mof_O 	O 	0.8963	0.7782	0.8815	-0.473
Mof_O 	O 	0.4481	0.4518	0.7753	-0.491
Mof_O 	O 	0.5705	0.5062	0.811	-0.467
Mof_O 	O 	0.0387	0.3146	0.9898	-0.453
Mof_O 	O 	0.9515	0.275	0.9234	-0.287
Mof_O 	O 	0.3569	0.0542	0.0695	-0.341
Mof_O 	O 	0.5365	0.895	0.0027	-0.365
Mof_O 	O 	0.78	0.5254	0.8422	-0.45
Mof_O 	O 	0.6916	0.6902	0.9029	-0.518
Mof_O 	O 	0.2177	0.4116	0.8524	-0.504
Mof_O 	O 	0.2874	0.2482	0.9134	-0.511
_end
