data_functionalizedCrystal
_audit_creation_method	'EQeq! by Chris Wilmer'
_symmetry_space_group_name_H-M	'P1'
_symmetry_Int_Tables_number	1
_symmetry_cell_setting	triclinic
loop_
_symmetry_equiv_pos_as_xyz
  x,y,z
_cell_length_a	17.4393
_cell_length_b	30.1741
_cell_length_c	30.1741
_cell_angle_alpha	85.2098
_cell_angle_beta	73.2032
_cell_angle_gamma	73.2033
loop_
_atom_site_label
_atom_site_type_symbol
_atom_site_fract_x
_atom_site_fract_y
_atom_site_fract_z
_atom_site_charge
Mof_Mn	Mn	0.5888	0.91647	0.35666	1.054
Mof_Mn	Mn	0.76073	0.88226	0.46406	1.006
Mof_Mn	Mn	0.29646	0.99811	0.42201	1.041
Mof_Mn	Mn	0.36194	0.58353	0.14334	1.054
Mof_Mn	Mn	0.60705	0.61774	0.03594	1.005
Mof_Mn	Mn	0.21658	0.50189	0.07799	1.042
Mof_Mn	Mn	0.94547	0.64334	0.41646	1.054
Mof_Mn	Mn	0.22479	0.53594	0.38226	1.006
Mof_Mn	Mn	0.71847	0.57799	0.49811	1.042
Mof_Mn	Mn	0.50527	0.85666	0.08354	1.054
Mof_Mn	Mn	0.64299	0.96406	0.11774	1.005
Mof_Mn	Mn	0.29457	0.92201	0.00189	1.04
Mof_Mn	Mn	0.4112	0.08353	0.64334	1.054
Mof_Mn	Mn	0.23927	0.11774	0.53594	1.006
Mof_Mn	Mn	0.70354	0.00189	0.57799	1.041
Mof_Mn	Mn	0.63806	0.41647	0.85666	1.054
Mof_Mn	Mn	0.39295	0.38226	0.96406	1.006
Mof_Mn	Mn	0.78342	0.49811	0.92201	1.043
Mof_Mn	Mn	0.05453	0.35666	0.58354	1.055
Mof_Mn	Mn	0.77521	0.46406	0.61774	1.007
Mof_Mn	Mn	0.28153	0.42201	0.50189	1.043
Mof_Mn	Mn	0.49473	0.14334	0.91646	1.055
Mof_Mn	Mn	0.35701	0.03594	0.88226	1.006
Mof_Mn	Mn	0.70543	0.07799	0.99811	1.041
Mof_H 	H 	0.5892	0.7849	0.3099	0.148
Mof_H 	H 	0.668	0.7111	0.3175	-0.06
Mof_H 	H 	0.7595	0.6966	0.3632	0.125
Mof_H 	H 	0.768	0.7569	0.4011	-0.009
Mof_H 	H 	0.6135	0.0279	0.4335	0.073
Mof_H 	H 	0.6827	0.9931	0.4527	0.077
Mof_H 	H 	0.718	0.0246	0.359	0.105
Mof_H 	H 	0.7854	0.9961	0.3833	0.096
Mof_H 	H 	0.7102	0.0682	0.4364	-0.041
Mof_H 	H 	0.7111	0.0895	0.3873	-0.057
Mof_H 	H 	0.8297	0.0442	0.4182	0.15
Mof_H 	H 	0.8347	0.0599	0.3673	0.138
Mof_H 	H 	0.768	0.1419	0.4073	0.075
Mof_H 	H 	0.819	0.1167	0.4417	0.074
Mof_H 	H 	0.8651	0.1218	0.3894	0.066
Mof_H 	H 	0.7784	0.9146	0.3342	-0.012
Mof_H 	H 	0.895	0.9152	0.2756	0.09
Mof_H 	H 	0.7732	0.9037	0.1851	0.108
Mof_H 	H 	0.6569	0.9069	0.2461	-0.001
Mof_H 	H 	0.908	0.9376	0.1634	0.075
Mof_H 	H 	0.9328	0.8836	0.1616	0.074
Mof_H 	H 	0.9734	0.9019	0.3539	0.136
Mof_H 	H 	0.0666	0.9421	0.3527	-0.048
Mof_H 	H 	0.0546	0.9859	0.4163	0.117
Mof_H 	H 	0.9417	0.9891	0.4805	-0.008
Mof_H 	H 	0.5226	0.9258	0.575	0.172
Mof_H 	H 	0.5655	0.9431	0.6065	0.165
Mof_H 	H 	0.5198	0.8779	0.6383	-0.079
Mof_H 	H 	0.581	0.8487	0.5951	-0.069
Mof_H 	H 	0.6956	0.8553	0.6163	0.207
Mof_H 	H 	0.6368	0.8878	0.6576	0.209
Mof_H 	H 	0.6456	0.7928	0.653	-0.156
Mof_H 	H 	0.5858	0.8253	0.6941	-0.159
Mof_H 	H 	0.7616	0.8019	0.6729	0.327
Mof_H 	H 	0.7008	0.8331	0.7149	0.332
Mof_H 	H 	0.7055	0.7805	0.7143	0.323
Mof_H 	H 	0.209	0.072	0.3086	0.142
Mof_H 	H 	0.2695	0.0692	0.2298	-0.038
Mof_H 	H 	0.4053	0.0238	0.1992	0.127
Mof_H 	H 	0.4785	0.9825	0.2487	-0.007
Mof_H 	H 	0.456	0.9166	0.5084	0.191
Mof_H 	H 	0.5221	0.8898	0.465	0.183
Mof_H 	H 	0.446	0.842	0.5156	-0.102
Mof_H 	H 	0.3651	0.8723	0.5035	-0.089
Mof_H 	H 	0.5048	0.8185	0.4379	0.249
Mof_H 	H 	0.4236	0.8485	0.4261	0.249
Mof_H 	H 	0.4289	0.7697	0.4841	-0.21
Mof_H 	H 	0.3486	0.7993	0.4711	-0.213
Mof_H 	H 	0.4264	0.7768	0.3916	0.414
Mof_H 	H 	0.3938	0.7387	0.4237	0.415
Mof_H 	H 	0.4873	0.7386	0.4132	0.418
Mof_H 	H 	0.1373	0.9806	0.0712	-0.006
Mof_H 	H 	0.0338	0.9789	0.1375	0.098
Mof_H 	H 	0.1124	0.842	0.1336	0.089
Mof_H 	H 	0.214	0.8464	0.0672	-0.026
Mof_H 	H 	0.0156	0.8795	0.2065	0.064
Mof_H 	H 	0.9898	0.9338	0.2094	0.067
Mof_H 	H 	0.184	0.7151	0.1901	0.148
Mof_H 	H 	0.1966	0.7889	0.1825	-0.06
Mof_H 	H 	0.3193	0.8034	0.1368	0.125
Mof_H 	H 	0.426	0.7431	0.0989	-0.01
Mof_H 	H 	0.5749	0.4721	0.0665	0.073
Mof_H 	H 	0.6285	0.5069	0.0473	0.077
Mof_H 	H 	0.6016	0.4754	0.141	0.104
Mof_H 	H 	0.6648	0.5039	0.1167	0.097
Mof_H 	H 	0.7148	0.4318	0.0636	-0.041
Mof_H 	H 	0.6879	0.4105	0.1127	-0.057
Mof_H 	H 	0.7921	0.4558	0.0818	0.15
Mof_H 	H 	0.7619	0.4401	0.1327	0.138
Mof_H 	H 	0.8172	0.3581	0.0927	0.075
Mof_H 	H 	0.8774	0.3833	0.0583	0.074
Mof_H 	H 	0.8763	0.3782	0.1106	0.066
Mof_H 	H 	0.5272	0.5854	0.1658	-0.012
Mof_H 	H 	0.5858	0.5848	0.2244	0.09
Mof_H 	H 	0.362	0.5963	0.3149	0.107
Mof_H 	H 	0.3099	0.5931	0.2539	-0.001
Mof_H 	H 	0.509	0.5624	0.3366	0.075
Mof_H 	H 	0.478	0.6164	0.3384	0.073
Mof_H 	H 	0.7292	0.5981	0.1461	0.136
Mof_H 	H 	0.8614	0.5579	0.1473	-0.048
Mof_H 	H 	0.9568	0.5141	0.0837	0.117
Mof_H 	H 	0.9113	0.5109	0.0195	-0.008
Mof_H 	H 	0.5234	0.5742	0.925	0.172
Mof_H 	H 	0.6151	0.5569	0.8935	0.165
Mof_H 	H 	0.536	0.6221	0.8617	-0.079
Mof_H 	H 	0.5248	0.6513	0.9049	-0.068
Mof_H 	H 	0.6672	0.6447	0.8837	0.207
Mof_H 	H 	0.6822	0.6122	0.8424	0.208
Mof_H 	H 	0.5914	0.7072	0.847	-0.156
Mof_H 	H 	0.6052	0.6747	0.8059	-0.159
Mof_H 	H 	0.7364	0.6981	0.8271	0.327
Mof_H 	H 	0.7488	0.6669	0.7851	0.332
Mof_H 	H 	0.7003	0.7195	0.7857	0.323
Mof_H 	H 	0.0896	0.428	0.1914	0.142
Mof_H 	H 	0.0685	0.4308	0.2702	-0.037
Mof_H 	H 	0.1283	0.4762	0.3008	0.127
Mof_H 	H 	0.2097	0.5175	0.2513	-0.006
Mof_H 	H 	0.381	0.5834	0.9916	0.191
Mof_H 	H 	0.3769	0.6102	0.035	0.183
Mof_H 	H 	0.3036	0.658	0.9844	-0.101
Mof_H 	H 	0.2409	0.6277	0.9965	-0.088
Mof_H 	H 	0.2612	0.6815	0.0621	0.248
Mof_H 	H 	0.1982	0.6515	0.0739	0.248
Mof_H 	H 	0.1827	0.7303	0.0159	-0.21
Mof_H 	H 	0.119	0.7007	0.0289	-0.213
Mof_H 	H 	0.0948	0.7232	0.1084	0.413
Mof_H 	H 	0.0562	0.7613	0.0763	0.414
Mof_H 	H 	0.1391	0.7614	0.0868	0.417
Mof_H 	H 	0.6891	0.5194	0.4288	-0.006
Mof_H 	H 	0.6502	0.5211	0.3625	0.099
Mof_H 	H 	0.588	0.658	0.3664	0.089
Mof_H 	H 	0.6276	0.6536	0.4328	-0.026
Mof_H 	H 	0.6016	0.6205	0.2935	0.065
Mof_H 	H 	0.633	0.5662	0.2906	0.068
Mof_H 	H 	0.8991	0.6901	0.2849	0.148
Mof_H 	H 	0.9855	0.6825	0.2111	-0.06
Mof_H 	H 	0.1227	0.6368	0.1966	0.125
Mof_H 	H 	0.1691	0.5989	0.2569	-0.009
Mof_H 	H 	0.047	0.5665	0.5279	0.073
Mof_H 	H 	0.1354	0.5473	0.4931	0.077
Mof_H 	H 	0.077	0.641	0.5246	0.104
Mof_H 	H 	0.1687	0.6167	0.4961	0.097
Mof_H 	H 	0.1466	0.5636	0.5682	-0.041
Mof_H 	H 	0.0984	0.6127	0.5895	-0.057
Mof_H 	H 	0.2479	0.5818	0.5442	0.15
Mof_H 	H 	0.202	0.6327	0.5599	0.138
Mof_H 	H 	0.1753	0.5927	0.6419	0.075
Mof_H 	H 	0.2607	0.5583	0.6167	0.074
Mof_H 	H 	0.2545	0.6106	0.6218	0.066
Mof_H 	H 	0.1126	0.6658	0.4146	-0.012
Mof_H 	H 	0.1706	0.7244	0.4152	0.09
Mof_H 	H 	0.9583	0.8149	0.4037	0.107
Mof_H 	H 	0.903	0.7539	0.4069	-0.001
Mof_H 	H 	0.0714	0.8366	0.4376	0.075
Mof_H 	H 	0.0944	0.8384	0.3836	0.073
Mof_H 	H 	0.3273	0.6461	0.4019	0.136
Mof_H 	H 	0.4193	0.6473	0.4421	-0.048
Mof_H 	H 	0.4709	0.5837	0.4859	0.117
Mof_H 	H 	0.4222	0.5195	0.4891	-0.008
Mof_H 	H 	0.0976	0.425	0.4258	0.172
Mof_H 	H 	0.172	0.3935	0.4431	0.165
Mof_H 	H 	0.1581	0.3617	0.3779	-0.079
Mof_H 	H 	0.1761	0.4049	0.3487	-0.068
Mof_H 	H 	0.3119	0.3837	0.3553	0.207
Mof_H 	H 	0.2944	0.3424	0.3878	0.208
Mof_H 	H 	0.2986	0.347	0.2928	-0.156
Mof_H 	H 	0.2799	0.3059	0.3253	-0.159
Mof_H 	H 	0.4345	0.3271	0.3019	0.327
Mof_H 	H 	0.4157	0.2851	0.3331	0.332
Mof_H 	H 	0.4198	0.2857	0.2805	0.323
Mof_H 	H 	0.5176	0.6914	0.572	0.142
Mof_H 	H 	0.4993	0.7702	0.5692	-0.037
Mof_H 	H 	0.6045	0.8008	0.5238	0.127
Mof_H 	H 	0.7272	0.7513	0.4825	-0.006
Mof_H 	H 	0.9644	0.4916	0.4166	0.191
Mof_H 	H 	0.9871	0.535	0.3898	0.183
Mof_H 	H 	0.9616	0.4844	0.342	-0.102
Mof_H 	H 	0.8686	0.4965	0.3723	-0.089
Mof_H 	H 	0.9427	0.5621	0.3185	0.249
Mof_H 	H 	0.8497	0.5739	0.3485	0.249
Mof_H 	H 	0.913	0.5159	0.2697	-0.21
Mof_H 	H 	0.8197	0.5289	0.2993	-0.213
Mof_H 	H 	0.818	0.6084	0.2768	0.414
Mof_H 	H 	0.8175	0.5763	0.2387	0.415
Mof_H 	H 	0.9005	0.5868	0.2386	0.418
Mof_H 	H 	0.2085	0.9288	0.4806	-0.006
Mof_H 	H 	0.1713	0.8625	0.4789	0.099
Mof_H 	H 	0.246	0.8664	0.342	0.089
Mof_H 	H 	0.2812	0.9328	0.3464	-0.027
Mof_H 	H 	0.2221	0.7935	0.3795	0.065
Mof_H 	H 	0.1992	0.7906	0.4338	0.068
Mof_H 	H 	0.3741	0.8099	0.2151	0.148
Mof_H 	H 	0.3791	0.8175	0.2889	-0.06
Mof_H 	H 	0.4561	0.8632	0.3034	0.125
Mof_H 	H 	0.5249	0.9011	0.2431	-0.009
Mof_H 	H 	0.6414	0.9335	0.9721	0.072
Mof_H 	H 	0.6758	0.9527	0.0069	0.075
Mof_H 	H 	0.7426	0.859	0.9754	0.105
Mof_H 	H 	0.7815	0.8833	0.0039	0.096
Mof_H 	H 	0.7784	0.9364	0.9318	-0.041
Mof_H 	H 	0.8006	0.8873	0.9105	-0.057
Mof_H 	H 	0.8739	0.9182	0.9558	0.151
Mof_H 	H 	0.8946	0.8673	0.9401	0.138
Mof_H 	H 	0.9099	0.9073	0.8581	0.075
Mof_H 	H 	0.9357	0.9417	0.8833	0.075
Mof_H 	H 	0.9869	0.8894	0.8782	0.066
Mof_H 	H 	0.693	0.8342	0.0854	-0.012
Mof_H 	H 	0.8102	0.7756	0.0848	0.09
Mof_H 	H 	0.6769	0.6851	0.0963	0.107
Mof_H 	H 	0.5638	0.7461	0.0931	-0.001
Mof_H 	H 	0.8456	0.6634	0.0624	0.075
Mof_H 	H 	0.8164	0.6616	0.1164	0.073
Mof_H 	H 	0.8753	0.8539	0.0981	0.136
Mof_H 	H 	0.0087	0.8527	0.0579	-0.048
Mof_H 	H 	0.0405	0.9163	0.0141	0.117
Mof_H 	H 	0.9308	0.9805	0.0109	-0.008
Mof_H 	H 	0.4484	0.075	0.0742	0.172
Mof_H 	H 	0.5086	0.1065	0.0569	0.166
Mof_H 	H 	0.3977	0.1383	0.1221	-0.079
Mof_H 	H 	0.4297	0.0951	0.1513	-0.069
Mof_H 	H 	0.5509	0.1163	0.1447	0.207
Mof_H 	H 	0.5246	0.1576	0.1122	0.209
Mof_H 	H 	0.4384	0.153	0.2072	-0.156
Mof_H 	H 	0.4111	0.1941	0.1747	-0.159
Mof_H 	H 	0.5635	0.1729	0.1981	0.327
Mof_H 	H 	0.5339	0.2149	0.1669	0.332
Mof_H 	H 	0.486	0.2143	0.2195	0.323
Mof_H 	H 	0.281	0.8086	0.928	0.142
Mof_H 	H 	0.3387	0.7298	0.9308	-0.037
Mof_H 	H 	0.4291	0.6992	0.9762	0.127
Mof_H 	H 	0.461	0.7487	0.0175	-0.007
Mof_H 	H 	0.3726	0.0084	0.0834	0.191
Mof_H 	H 	0.4119	0.965	0.1102	0.183
Mof_H 	H 	0.288	0.0156	0.158	-0.099
Mof_H 	H 	0.2374	0.0035	0.1277	-0.087
Mof_H 	H 	0.3233	0.9379	0.1815	0.247
Mof_H 	H 	0.2721	0.9261	0.1515	0.247
Mof_H 	H 	0.1986	0.9841	0.2303	-0.209
Mof_H 	H 	0.1479	0.9711	0.2007	-0.212
Mof_H 	H 	0.2032	0.8916	0.2232	0.413
Mof_H 	H 	0.1325	0.9237	0.2613	0.413
Mof_H 	H 	0.2259	0.9132	0.2614	0.416
Mof_H 	H 	0.1179	0.5712	0.0194	-0.006
Mof_H 	H 	0.0127	0.6375	0.0211	0.099
Mof_H 	H 	0.9544	0.6336	0.158	0.089
Mof_H 	H 	0.0604	0.5672	0.1536	-0.026
Mof_H 	H 	0.8951	0.7065	0.1205	0.065
Mof_H 	H 	0.9236	0.7094	0.0662	0.068
Mof_H 	H 	0.4108	0.2151	0.6901	0.148
Mof_H 	H 	0.332	0.2889	0.6825	-0.06
Mof_H 	H 	0.2405	0.3034	0.6368	0.125
Mof_H 	H 	0.232	0.2431	0.5989	-0.009
Mof_H 	H 	0.3865	0.9721	0.5665	0.073
Mof_H 	H 	0.3173	0.0069	0.5473	0.077
Mof_H 	H 	0.282	0.9754	0.641	0.105
Mof_H 	H 	0.2146	0.0039	0.6167	0.096
Mof_H 	H 	0.2898	0.9318	0.5636	-0.041
Mof_H 	H 	0.2889	0.9105	0.6127	-0.057
Mof_H 	H 	0.1703	0.9558	0.5818	0.15
Mof_H 	H 	0.1653	0.9401	0.6327	0.138
Mof_H 	H 	0.232	0.8581	0.5927	0.075
Mof_H 	H 	0.181	0.8833	0.5583	0.074
Mof_H 	H 	0.1349	0.8782	0.6106	0.066
Mof_H 	H 	0.2216	0.0854	0.6658	-0.012
Mof_H 	H 	0.105	0.0848	0.7244	0.09
Mof_H 	H 	0.2268	0.0963	0.8149	0.108
Mof_H 	H 	0.3431	0.0931	0.7539	-0.001
Mof_H 	H 	0.092	0.0624	0.8366	0.075
Mof_H 	H 	0.0672	0.1164	0.8384	0.074
Mof_H 	H 	0.0266	0.0981	0.6461	0.136
Mof_H 	H 	0.9334	0.0579	0.6473	-0.048
Mof_H 	H 	0.9454	0.0141	0.5837	0.117
Mof_H 	H 	0.0583	0.0109	0.5195	-0.008
Mof_H 	H 	0.4774	0.0742	0.425	0.172
Mof_H 	H 	0.4345	0.0569	0.3935	0.165
Mof_H 	H 	0.4802	0.1221	0.3617	-0.079
Mof_H 	H 	0.419	0.1513	0.4049	-0.069
Mof_H 	H 	0.3044	0.1447	0.3837	0.207
Mof_H 	H 	0.3632	0.1122	0.3424	0.209
Mof_H 	H 	0.3544	0.2072	0.347	-0.156
Mof_H 	H 	0.4142	0.1747	0.3059	-0.159
Mof_H 	H 	0.2384	0.1981	0.3271	0.327
Mof_H 	H 	0.2992	0.1669	0.2851	0.332
Mof_H 	H 	0.2945	0.2195	0.2857	0.323
Mof_H 	H 	0.791	0.928	0.6914	0.142
Mof_H 	H 	0.7305	0.9308	0.7702	-0.038
Mof_H 	H 	0.5947	0.9762	0.8008	0.127
Mof_H 	H 	0.5215	0.0175	0.7513	-0.007
Mof_H 	H 	0.544	0.0834	0.4916	0.191
Mof_H 	H 	0.4779	0.1102	0.535	0.183
Mof_H 	H 	0.554	0.158	0.4844	-0.102
Mof_H 	H 	0.6349	0.1277	0.4965	-0.089
Mof_H 	H 	0.4952	0.1815	0.5621	0.249
Mof_H 	H 	0.5764	0.1515	0.5739	0.249
Mof_H 	H 	0.5711	0.2303	0.5159	-0.21
Mof_H 	H 	0.6514	0.2007	0.5289	-0.213
Mof_H 	H 	0.5736	0.2232	0.6084	0.414
Mof_H 	H 	0.6062	0.2613	0.5763	0.415
Mof_H 	H 	0.5127	0.2614	0.5868	0.418
Mof_H 	H 	0.8627	0.0194	0.9288	-0.006
Mof_H 	H 	0.9662	0.0211	0.8625	0.098
Mof_H 	H 	0.8876	0.158	0.8664	0.089
Mof_H 	H 	0.786	0.1536	0.9328	-0.026
Mof_H 	H 	0.9844	0.1205	0.7935	0.064
Mof_H 	H 	0.0102	0.0662	0.7906	0.067
Mof_H 	H 	0.816	0.2849	0.8099	0.148
Mof_H 	H 	0.8034	0.2111	0.8175	-0.06
Mof_H 	H 	0.6807	0.1966	0.8632	0.125
Mof_H 	H 	0.574	0.2569	0.9011	-0.01
Mof_H 	H 	0.4251	0.5279	0.9335	0.073
Mof_H 	H 	0.3715	0.4931	0.9527	0.077
Mof_H 	H 	0.3984	0.5246	0.859	0.104
Mof_H 	H 	0.3352	0.4961	0.8833	0.097
Mof_H 	H 	0.2852	0.5682	0.9364	-0.041
Mof_H 	H 	0.3121	0.5895	0.8873	-0.057
Mof_H 	H 	0.2079	0.5442	0.9182	0.15
Mof_H 	H 	0.2381	0.5599	0.8673	0.138
Mof_H 	H 	0.1828	0.6419	0.9073	0.075
Mof_H 	H 	0.1226	0.6167	0.9417	0.074
Mof_H 	H 	0.1237	0.6218	0.8894	0.066
Mof_H 	H 	0.4728	0.4146	0.8342	-0.012
Mof_H 	H 	0.4142	0.4152	0.7756	0.09
Mof_H 	H 	0.638	0.4037	0.6851	0.107
Mof_H 	H 	0.6901	0.4069	0.7461	-0.001
Mof_H 	H 	0.491	0.4376	0.6634	0.075
Mof_H 	H 	0.522	0.3836	0.6616	0.073
Mof_H 	H 	0.2708	0.4019	0.8539	0.136
Mof_H 	H 	0.1386	0.4421	0.8527	-0.048
Mof_H 	H 	0.0432	0.4859	0.9163	0.117
Mof_H 	H 	0.0887	0.4891	0.9805	-0.008
Mof_H 	H 	0.4766	0.4258	0.075	0.172
Mof_H 	H 	0.3849	0.4431	0.1065	0.165
Mof_H 	H 	0.464	0.3779	0.1383	-0.079
Mof_H 	H 	0.4752	0.3487	0.0951	-0.068
Mof_H 	H 	0.3328	0.3553	0.1163	0.207
Mof_H 	H 	0.3178	0.3878	0.1576	0.208
Mof_H 	H 	0.4086	0.2928	0.153	-0.156
Mof_H 	H 	0.3948	0.3253	0.1941	-0.159
Mof_H 	H 	0.2636	0.3019	0.1729	0.327
Mof_H 	H 	0.2512	0.3331	0.2149	0.332
Mof_H 	H 	0.2997	0.2805	0.2143	0.323
Mof_H 	H 	0.9104	0.572	0.8086	0.142
Mof_H 	H 	0.9315	0.5692	0.7298	-0.037
Mof_H 	H 	0.8717	0.5238	0.6992	0.127
Mof_H 	H 	0.7903	0.4825	0.7487	-0.006
Mof_H 	H 	0.619	0.4166	0.0084	0.191
Mof_H 	H 	0.6231	0.3898	0.965	0.183
Mof_H 	H 	0.6964	0.342	0.0156	-0.101
Mof_H 	H 	0.7591	0.3723	0.0035	-0.088
Mof_H 	H 	0.7388	0.3185	0.9379	0.248
Mof_H 	H 	0.8018	0.3485	0.9261	0.248
Mof_H 	H 	0.8173	0.2697	0.9841	-0.21
Mof_H 	H 	0.881	0.2993	0.9711	-0.213
Mof_H 	H 	0.9052	0.2768	0.8916	0.413
Mof_H 	H 	0.9438	0.2387	0.9237	0.414
Mof_H 	H 	0.8609	0.2386	0.9132	0.417
Mof_H 	H 	0.3109	0.4806	0.5712	-0.006
Mof_H 	H 	0.3498	0.4789	0.6375	0.099
Mof_H 	H 	0.412	0.342	0.6336	0.089
Mof_H 	H 	0.3724	0.3464	0.5672	-0.026
Mof_H 	H 	0.3984	0.3795	0.7065	0.065
Mof_H 	H 	0.367	0.4338	0.7094	0.068
Mof_H 	H 	0.1009	0.3099	0.7151	0.148
Mof_H 	H 	0.0145	0.3175	0.7889	-0.06
Mof_H 	H 	0.8773	0.3632	0.8034	0.125
Mof_H 	H 	0.8309	0.4011	0.7431	-0.009
Mof_H 	H 	0.953	0.4335	0.4721	0.073
Mof_H 	H 	0.8646	0.4527	0.5069	0.077
Mof_H 	H 	0.923	0.359	0.4754	0.104
Mof_H 	H 	0.8313	0.3833	0.5039	0.097
Mof_H 	H 	0.8534	0.4364	0.4318	-0.041
Mof_H 	H 	0.9016	0.3873	0.4105	-0.057
Mof_H 	H 	0.7521	0.4182	0.4558	0.15
Mof_H 	H 	0.798	0.3673	0.4401	0.138
Mof_H 	H 	0.8247	0.4073	0.3581	0.075
Mof_H 	H 	0.7393	0.4417	0.3833	0.074
Mof_H 	H 	0.7455	0.3894	0.3782	0.066
Mof_H 	H 	0.8874	0.3342	0.5854	-0.012
Mof_H 	H 	0.8294	0.2756	0.5848	0.09
Mof_H 	H 	0.0417	0.1851	0.5963	0.107
Mof_H 	H 	0.097	0.2461	0.5931	-0.001
Mof_H 	H 	0.9286	0.1634	0.5624	0.075
Mof_H 	H 	0.9056	0.1616	0.6164	0.073
Mof_H 	H 	0.6727	0.3539	0.5981	0.136
Mof_H 	H 	0.5807	0.3527	0.5579	-0.048
Mof_H 	H 	0.5291	0.4163	0.5141	0.117
Mof_H 	H 	0.5778	0.4805	0.5109	-0.008
Mof_H 	H 	0.9024	0.575	0.5742	0.172
Mof_H 	H 	0.828	0.6065	0.5569	0.165
Mof_H 	H 	0.8419	0.6383	0.6221	-0.079
Mof_H 	H 	0.8239	0.5951	0.6513	-0.068
Mof_H 	H 	0.6881	0.6163	0.6447	0.207
Mof_H 	H 	0.7056	0.6576	0.6122	0.208
Mof_H 	H 	0.7014	0.653	0.7072	-0.156
Mof_H 	H 	0.7201	0.6941	0.6747	-0.159
Mof_H 	H 	0.5655	0.6729	0.6981	0.327
Mof_H 	H 	0.5843	0.7149	0.6669	0.332
Mof_H 	H 	0.5802	0.7143	0.7195	0.323
Mof_H 	H 	0.4824	0.3086	0.428	0.142
Mof_H 	H 	0.5007	0.2298	0.4308	-0.037
Mof_H 	H 	0.3955	0.1992	0.4762	0.127
Mof_H 	H 	0.2728	0.2487	0.5175	-0.006
Mof_H 	H 	0.0356	0.5084	0.5834	0.191
Mof_H 	H 	0.0129	0.465	0.6102	0.183
Mof_H 	H 	0.0384	0.5156	0.658	-0.102
Mof_H 	H 	0.1314	0.5035	0.6277	-0.089
Mof_H 	H 	0.0573	0.4379	0.6815	0.249
Mof_H 	H 	0.1503	0.4261	0.6515	0.249
Mof_H 	H 	0.087	0.4841	0.7303	-0.21
Mof_H 	H 	0.1803	0.4711	0.7007	-0.213
Mof_H 	H 	0.182	0.3916	0.7232	0.414
Mof_H 	H 	0.1825	0.4237	0.7613	0.415
Mof_H 	H 	0.0995	0.4132	0.7614	0.418
Mof_H 	H 	0.7915	0.0712	0.5194	-0.006
Mof_H 	H 	0.8287	0.1375	0.5211	0.099
Mof_H 	H 	0.754	0.1336	0.658	0.089
Mof_H 	H 	0.7188	0.0672	0.6536	-0.027
Mof_H 	H 	0.7779	0.2065	0.6205	0.065
Mof_H 	H 	0.8008	0.2094	0.5662	0.068
Mof_H 	H 	0.6259	0.1901	0.7849	0.148
Mof_H 	H 	0.6209	0.1825	0.7111	-0.06
Mof_H 	H 	0.5439	0.1368	0.6966	0.125
Mof_H 	H 	0.4751	0.0989	0.7569	-0.009
Mof_H 	H 	0.3586	0.0665	0.0279	0.072
Mof_H 	H 	0.3242	0.0473	0.9931	0.075
Mof_H 	H 	0.2574	0.141	0.0246	0.105
Mof_H 	H 	0.2185	0.1167	0.9961	0.096
Mof_H 	H 	0.2216	0.0636	0.0682	-0.041
Mof_H 	H 	0.1994	0.1127	0.0895	-0.057
Mof_H 	H 	0.1261	0.0818	0.0442	0.151
Mof_H 	H 	0.1054	0.1327	0.0599	0.138
Mof_H 	H 	0.0901	0.0927	0.1419	0.075
Mof_H 	H 	0.0643	0.0583	0.1167	0.075
Mof_H 	H 	0.0131	0.1106	0.1218	0.066
Mof_H 	H 	0.307	0.1658	0.9146	-0.012
Mof_H 	H 	0.1898	0.2244	0.9152	0.09
Mof_H 	H 	0.3231	0.3149	0.9037	0.107
Mof_H 	H 	0.4362	0.2539	0.9069	-0.001
Mof_H 	H 	0.1544	0.3366	0.9376	0.075
Mof_H 	H 	0.1836	0.3384	0.8836	0.073
Mof_H 	H 	0.1247	0.1461	0.9019	0.136
Mof_H 	H 	0.9913	0.1473	0.9421	-0.048
Mof_H 	H 	0.9595	0.0837	0.9859	0.117
Mof_H 	H 	0.0692	0.0195	0.9891	-0.008
Mof_H 	H 	0.5516	0.925	0.9258	0.172
Mof_H 	H 	0.4914	0.8935	0.9431	0.166
Mof_H 	H 	0.6023	0.8617	0.8779	-0.079
Mof_H 	H 	0.5703	0.9049	0.8487	-0.069
Mof_H 	H 	0.4491	0.8837	0.8553	0.207
Mof_H 	H 	0.4754	0.8424	0.8878	0.209
Mof_H 	H 	0.5616	0.847	0.7928	-0.156
Mof_H 	H 	0.5889	0.8059	0.8253	-0.159
Mof_H 	H 	0.4365	0.8271	0.8019	0.327
Mof_H 	H 	0.4661	0.7851	0.8331	0.332
Mof_H 	H 	0.514	0.7857	0.7805	0.323
Mof_H 	H 	0.719	0.1914	0.072	0.142
Mof_H 	H 	0.6613	0.2702	0.0692	-0.037
Mof_H 	H 	0.5709	0.3008	0.0238	0.127
Mof_H 	H 	0.539	0.2513	0.9825	-0.007
Mof_H 	H 	0.6274	0.9916	0.9166	0.191
Mof_H 	H 	0.5881	0.035	0.8898	0.183
Mof_H 	H 	0.712	0.9844	0.842	-0.099
Mof_H 	H 	0.7626	0.9965	0.8723	-0.087
Mof_H 	H 	0.6767	0.0621	0.8185	0.247
Mof_H 	H 	0.7279	0.0739	0.8485	0.247
Mof_H 	H 	0.8014	0.0159	0.7697	-0.209
Mof_H 	H 	0.8521	0.0289	0.7993	-0.212
Mof_H 	H 	0.7968	0.1084	0.7768	0.413
Mof_H 	H 	0.8675	0.0763	0.7387	0.413
Mof_H 	H 	0.7741	0.0868	0.7386	0.416
Mof_H 	H 	0.8821	0.4288	0.9806	-0.006
Mof_H 	H 	0.9873	0.3625	0.9789	0.099
Mof_H 	H 	0.0456	0.3664	0.842	0.089
Mof_H 	H 	0.9396	0.4328	0.8464	-0.026
Mof_H 	H 	0.1049	0.2935	0.8795	0.065
Mof_H 	H 	0.0764	0.2906	0.9338	0.068
Mof_C 	C 	0.63111	0.81677	0.35041	0.331
Mof_C 	C 	0.6257	0.77955	0.32825	-0.341
Mof_C 	C 	0.67265	0.73532	0.33278	0.198
Mof_C 	C 	0.72708	0.72653	0.36011	-0.273
Mof_C 	C 	0.73224	0.76278	0.38234	0.18
Mof_C 	C 	0.68653	0.80793	0.37801	-0.272
Mof_C 	C 	0.69767	0.84461	0.40345	0.299
Mof_C 	C 	0.6461	0.96285	0.40755	0.234
Mof_C 	C 	0.66414	0.00263	0.42509	-0.17
Mof_C 	C 	0.73236	0.01955	0.38813	-0.248
Mof_C 	C 	0.7399	0.0641	0.4037	0.296
Mof_C 	C 	0.8034	0.0676	0.3992	-0.409
Mof_C 	C 	0.815	0.1172	0.4106	-0.158
Mof_C 	C 	0.77686	0.91331	0.30377	0.12
Mof_C 	C 	0.8473	0.9131	0.2689	-0.202
Mof_C 	C 	0.84714	0.9096	0.22272	0.141
Mof_C 	C 	0.77525	0.90672	0.21518	-0.213
Mof_C 	C 	0.70565	0.9083	0.252	0.118
Mof_C 	C 	0.9228	0.9098	0.1812	-0.162
Mof_C 	C 	0.90167	0.91826	0.4196	0.323
Mof_C 	C 	0.96727	0.91848	0.37998	-0.319
Mof_C 	C 	0.02284	0.94311	0.37921	0.174
Mof_C 	C 	0.01596	0.96986	0.41702	-0.239
Mof_C 	C 	0.94884	0.97102	0.4553	0.148
Mof_C 	C 	0.89082	0.94625	0.45791	-0.259
Mof_C 	C 	0.81992	0.95213	0.49903	0.298
Mof_C 	C 	0.64885	0.91287	0.54663	0.315
Mof_C 	C 	0.57104	0.91794	0.58678	-0.487
Mof_C 	C 	0.57316	0.87405	0.61523	0.341
Mof_C 	C 	0.64201	0.86155	0.63943	-0.609
Mof_C 	C 	0.63948	0.81926	0.67118	0.574
Mof_C 	C 	0.7082	0.80762	0.69558	-1.044
Mof_C 	C 	0.30714	0.02788	0.32724	0.327
Mof_C 	C 	0.26317	0.05367	0.29679	-0.316
Mof_C 	C 	0.29964	0.05212	0.2494	0.182
Mof_C 	C 	0.38081	0.02519	0.23099	-0.25
Mof_C 	C 	0.42409	0.00054	0.26088	0.161
Mof_C 	C 	0.38924	0.00154	0.30918	-0.267
Mof_C 	C 	0.44101	0.9731	0.33768	0.303
Mof_C 	C 	0.42188	0.93521	0.44863	0.345
Mof_C 	C 	0.46291	0.90119	0.47999	-0.545
Mof_C 	C 	0.42508	0.86053	0.49151	0.428
Mof_C 	C 	0.44471	0.82976	0.45002	-0.747
Mof_C 	C 	0.4088	0.78818	0.45982	0.785
Mof_C 	C 	0.4311	0.7579	0.4183	-1.32
Mof_C 	C 	0.13219	0.95214	0.08388	0.128
Mof_C 	C 	0.07065	0.95134	0.12416	-0.211
Mof_C 	C 	0.06337	0.90949	0.14497	0.151
Mof_C 	C 	0.11683	0.87086	0.12188	-0.224
Mof_C 	C 	0.17722	0.87364	0.08152	0.123
Mof_C 	C 	0.9975	0.9079	0.1901	-0.163
Mof_C 	C 	0.29829	0.68323	0.14959	0.331
Mof_C 	C 	0.2335	0.72045	0.17175	-0.341
Mof_C 	C 	0.24075	0.76468	0.16722	0.198
Mof_C 	C 	0.31372	0.77347	0.13989	-0.273
Mof_C 	C 	0.37736	0.73722	0.11766	0.18
Mof_C 	C 	0.37247	0.69207	0.12199	-0.272
Mof_C 	C 	0.44573	0.65539	0.09655	0.299
Mof_C 	C 	0.5165	0.53715	0.09245	0.234
Mof_C 	C 	0.59186	0.49737	0.07491	-0.17
Mof_C 	C 	0.64004	0.48045	0.11187	-0.248
Mof_C 	C 	0.7077	0.4359	0.0963	0.296
Mof_C 	C 	0.7702	0.4324	0.1008	-0.409
Mof_C 	C 	0.8428	0.3828	0.0894	-0.159
Mof_C 	C 	0.49394	0.58669	0.19623	0.12
Mof_C 	C 	0.5293	0.5869	0.2311	-0.202
Mof_C 	C 	0.47946	0.5904	0.27728	0.141
Mof_C 	C 	0.39715	0.59328	0.28482	-0.212
Mof_C 	C 	0.36595	0.5917	0.248	0.117
Mof_C 	C 	0.5138	0.5902	0.3188	-0.16
Mof_C 	C 	0.73953	0.58174	0.0804	0.323
Mof_C 	C 	0.76573	0.58152	0.12002	-0.319
Mof_C 	C 	0.84516	0.55689	0.12079	0.174
Mof_C 	C 	0.90284	0.53014	0.08298	-0.238
Mof_C 	C 	0.87516	0.52898	0.0447	0.147
Mof_C 	C 	0.79498	0.55375	0.04209	-0.259
Mof_C 	C 	0.77108	0.54787	0.00097	0.298
Mof_C 	C 	0.60835	0.58713	0.95337	0.315
Mof_C 	C 	0.57576	0.58206	0.91322	-0.487
Mof_C 	C 	0.56244	0.62595	0.88477	0.341
Mof_C 	C 	0.64299	0.63845	0.86057	-0.609
Mof_C 	C 	0.62992	0.68074	0.82882	0.574
Mof_C 	C 	0.7114	0.69238	0.80442	-1.044
Mof_C 	C 	0.16226	0.47212	0.17276	0.327
Mof_C 	C 	0.11363	0.44633	0.20321	-0.315
Mof_C 	C 	0.10116	0.44788	0.2506	0.181
Mof_C 	C 	0.13699	0.47481	0.26901	-0.249
Mof_C 	C 	0.18551	0.49946	0.23912	0.159
Mof_C 	C 	0.19996	0.49846	0.19082	-0.267
Mof_C 	C 	0.25179	0.5269	0.16232	0.304
Mof_C 	C 	0.30572	0.56479	0.05137	0.345
Mof_C 	C 	0.34409	0.59881	0.02001	-0.544
Mof_C 	C 	0.27712	0.63947	0.00849	0.425
Mof_C 	C 	0.22449	0.67024	0.04998	-0.745
Mof_C 	C 	0.1568	0.71182	0.04018	0.783
Mof_C 	C 	0.1073	0.7421	0.0817	-1.318
Mof_C 	C 	0.66821	0.54786	0.41612	0.129
Mof_C 	C 	0.64615	0.54866	0.37584	-0.211
Mof_C 	C 	0.61783	0.59051	0.35503	0.153
Mof_C 	C 	0.60957	0.62914	0.37812	-0.225
Mof_C 	C 	0.63238	0.62636	0.41848	0.124
Mof_C 	C 	0.5955	0.5921	0.3099	-0.166
Mof_C 	C 	0.98152	0.64959	0.31677	0.331
Mof_C 	C 	0.95395	0.67175	0.27955	-0.34
Mof_C 	C 	0.00543	0.66722	0.23532	0.198
Mof_C 	C 	0.08719	0.63989	0.22653	-0.273
Mof_C 	C 	0.11458	0.61766	0.26278	0.18
Mof_C 	C 	0.06454	0.62199	0.30793	-0.272
Mof_C 	C 	0.10112	0.59655	0.34461	0.298
Mof_C 	C 	0.05365	0.59245	0.46285	0.234
Mof_C 	C 	0.08923	0.57491	0.50263	-0.17
Mof_C 	C 	0.12049	0.61187	0.51955	-0.248
Mof_C 	C 	0.1436	0.5963	0.5641	0.296
Mof_C 	C 	0.2026	0.6008	0.5676	-0.409
Mof_C 	C 	0.2256	0.5894	0.6172	-0.159
Mof_C 	C 	0.08063	0.69623	0.41331	0.12
Mof_C 	C 	0.1162	0.7311	0.4131	-0.201
Mof_C 	C 	0.06986	0.77728	0.4096	0.14
Mof_C 	C 	0.99043	0.78482	0.40672	-0.212
Mof_C 	C 	0.95765	0.748	0.4083	0.117
Mof_C 	C 	0.104	0.8188	0.4098	-0.16
Mof_C 	C 	0.32127	0.5804	0.41826	0.323
Mof_C 	C 	0.34725	0.62002	0.41848	-0.319
Mof_C 	C 	0.40205	0.62079	0.44311	0.174
Mof_C 	C 	0.43298	0.58298	0.46986	-0.238
Mof_C 	C 	0.40414	0.5447	0.47102	0.147
Mof_C 	C 	0.34873	0.54209	0.44625	-0.259
Mof_C 	C 	0.31895	0.50097	0.45213	0.298
Mof_C 	C 	0.19548	0.45337	0.41287	0.315
Mof_C 	C 	0.15782	0.41322	0.41794	-0.487
Mof_C 	C 	0.18839	0.38477	0.37405	0.341
Mof_C 	C 	0.28144	0.36057	0.36155	-0.609
Mof_C 	C 	0.31066	0.32882	0.31926	0.574
Mof_C 	C 	0.40378	0.30442	0.30762	-1.044
Mof_C 	C 	0.63438	0.67276	0.52788	0.327
Mof_C 	C 	0.55996	0.70321	0.55367	-0.315
Mof_C 	C 	0.54904	0.7506	0.55212	0.181
Mof_C 	C 	0.6118	0.76901	0.52519	-0.249
Mof_C 	C 	0.68497	0.73912	0.50054	0.159
Mof_C 	C 	0.69842	0.69082	0.50154	-0.267
Mof_C 	C 	0.77869	0.66232	0.4731	0.304
Mof_C 	C 	0.87051	0.55137	0.43521	0.345
Mof_C 	C 	0.9429	0.52001	0.40119	-0.545
Mof_C 	C 	0.91659	0.50849	0.36053	0.428
Mof_C 	C 	0.89473	0.54998	0.32976	-0.747
Mof_C 	C 	0.86862	0.54018	0.28818	0.785
Mof_C 	C 	0.8494	0.5817	0.2579	-1.32
Mof_C 	C 	0.21607	0.91612	0.45214	0.129
Mof_C 	C 	0.19481	0.87584	0.45134	-0.211
Mof_C 	C 	0.20834	0.85503	0.40949	0.153
Mof_C 	C 	0.23871	0.87812	0.37086	-0.225
Mof_C 	C 	0.25874	0.91848	0.37364	0.124
Mof_C 	C 	0.1876	0.8099	0.4079	-0.166
Mof_C 	C 	0.44788	0.85041	0.18323	0.331
Mof_C 	C 	0.40525	0.82825	0.22045	-0.341
Mof_C 	C 	0.40797	0.83278	0.26468	0.198
Mof_C 	C 	0.45361	0.86011	0.27347	-0.273
Mof_C 	C 	0.49502	0.88234	0.23722	0.18
Mof_C 	C 	0.49446	0.87801	0.19207	-0.272
Mof_C 	C 	0.54228	0.90345	0.15539	0.298
Mof_C 	C 	0.60895	0.90755	0.03715	0.232
Mof_C 	C 	0.66677	0.92509	0.99737	-0.167
Mof_C 	C 	0.75191	0.88813	0.98045	-0.247
Mof_C 	C 	0.804	0.9037	0.9359	0.296
Mof_C 	C 	0.871	0.8992	0.9324	-0.409
Mof_C 	C 	0.9322	0.9106	0.8828	-0.159
Mof_C 	C 	0.69017	0.80377	0.08669	0.12
Mof_C 	C 	0.7604	0.7689	0.0869	-0.202
Mof_C 	C 	0.75674	0.72272	0.0904	0.14
Mof_C 	C 	0.68197	0.71518	0.09328	-0.212
Mof_C 	C 	0.61395	0.752	0.0917	0.117
Mof_C 	C 	0.8326	0.6812	0.0902	-0.16
Mof_C 	C 	0.81993	0.9196	0.08174	0.322
Mof_C 	C 	0.88575	0.87998	0.08152	-0.319
Mof_C 	C 	0.96595	0.87921	0.05689	0.174
Mof_C 	C 	0.98582	0.91702	0.03014	-0.237
Mof_C 	C 	0.91986	0.9553	0.02898	0.146
Mof_C 	C 	0.83707	0.95791	0.05375	-0.258
Mof_C 	C 	0.77205	0.99903	0.04787	0.296
Mof_C 	C 	0.56172	0.04663	0.08713	0.315
Mof_C 	C 	0.48898	0.08678	0.08206	-0.488
Mof_C 	C 	0.44721	0.11523	0.12595	0.342
Mof_C 	C 	0.50356	0.13943	0.13845	-0.609
Mof_C 	C 	0.45874	0.17118	0.18074	0.574
Mof_C 	C 	0.51582	0.19558	0.19238	-1.044
Mof_C 	C 	0.33502	0.82724	0.97212	0.327
Mof_C 	C 	0.31684	0.79679	0.94633	-0.315
Mof_C 	C 	0.35176	0.7494	0.94788	0.182
Mof_C 	C 	0.406	0.73099	0.97481	-0.25
Mof_C 	C 	0.42463	0.76088	0.99946	0.16
Mof_C 	C 	0.39078	0.80918	0.99846	-0.266
Mof_C 	C 	0.41411	0.83768	0.0269	0.303
Mof_C 	C 	0.35709	0.94863	0.06479	0.344
Mof_C 	C 	0.3641	0.97999	0.09881	-0.544
Mof_C 	C 	0.28561	0.99151	0.13947	0.421
Mof_C 	C 	0.27447	0.95002	0.17024	-0.742
Mof_C 	C 	0.19698	0.95982	0.21182	0.781
Mof_C 	C 	0.189	0.9183	0.2421	-1.316
Mof_C 	C 	0.08433	0.58388	0.04786	0.129
Mof_C 	C 	0.02199	0.62416	0.04866	-0.212
Mof_C 	C 	0.97286	0.64497	0.09051	0.153
Mof_C 	C 	0.98769	0.62188	0.12914	-0.225
Mof_C 	C 	0.05086	0.58152	0.12636	0.123
Mof_C 	C 	0.9054	0.6901	0.0921	-0.166
Mof_C 	C 	0.36889	0.18323	0.64959	0.331
Mof_C 	C 	0.3743	0.22045	0.67175	-0.341
Mof_C 	C 	0.32735	0.26468	0.66722	0.198
Mof_C 	C 	0.27292	0.27347	0.63989	-0.273
Mof_C 	C 	0.26776	0.23722	0.61766	0.18
Mof_C 	C 	0.31347	0.19207	0.62199	-0.272
Mof_C 	C 	0.30233	0.15539	0.59655	0.299
Mof_C 	C 	0.3539	0.03715	0.59245	0.234
Mof_C 	C 	0.33586	0.99737	0.57491	-0.17
Mof_C 	C 	0.26764	0.98045	0.61187	-0.248
Mof_C 	C 	0.2601	0.9359	0.5963	0.296
Mof_C 	C 	0.1966	0.9324	0.6008	-0.409
Mof_C 	C 	0.185	0.8828	0.5894	-0.158
Mof_C 	C 	0.22314	0.08669	0.69623	0.12
Mof_C 	C 	0.1527	0.0869	0.7311	-0.202
Mof_C 	C 	0.15286	0.0904	0.77728	0.141
Mof_C 	C 	0.22475	0.09328	0.78482	-0.213
Mof_C 	C 	0.29435	0.0917	0.748	0.118
Mof_C 	C 	0.0772	0.0902	0.8188	-0.162
Mof_C 	C 	0.09833	0.08174	0.5804	0.323
Mof_C 	C 	0.03273	0.08152	0.62002	-0.319
Mof_C 	C 	0.97716	0.05689	0.62079	0.174
Mof_C 	C 	0.98404	0.03014	0.58298	-0.239
Mof_C 	C 	0.05116	0.02898	0.5447	0.148
Mof_C 	C 	0.10918	0.05375	0.54209	-0.259
Mof_C 	C 	0.18008	0.04787	0.50097	0.298
Mof_C 	C 	0.35115	0.08713	0.45337	0.315
Mof_C 	C 	0.42896	0.08206	0.41322	-0.487
Mof_C 	C 	0.42684	0.12595	0.38477	0.341
Mof_C 	C 	0.35799	0.13845	0.36057	-0.609
Mof_C 	C 	0.36052	0.18074	0.32882	0.574
Mof_C 	C 	0.2918	0.19238	0.30442	-1.044
Mof_C 	C 	0.69286	0.97212	0.67276	0.327
Mof_C 	C 	0.73683	0.94633	0.70321	-0.316
Mof_C 	C 	0.70036	0.94788	0.7506	0.182
Mof_C 	C 	0.61919	0.97481	0.76901	-0.25
Mof_C 	C 	0.57591	0.99946	0.73912	0.161
Mof_C 	C 	0.61076	0.99846	0.69082	-0.267
Mof_C 	C 	0.55899	0.0269	0.66232	0.303
Mof_C 	C 	0.57812	0.06479	0.55137	0.345
Mof_C 	C 	0.53709	0.09881	0.52001	-0.545
Mof_C 	C 	0.57492	0.13947	0.50849	0.428
Mof_C 	C 	0.55529	0.17024	0.54998	-0.747
Mof_C 	C 	0.5912	0.21182	0.54018	0.785
Mof_C 	C 	0.5689	0.2421	0.5817	-1.32
Mof_C 	C 	0.86781	0.04786	0.91612	0.128
Mof_C 	C 	0.92935	0.04866	0.87584	-0.211
Mof_C 	C 	0.93663	0.09051	0.85503	0.151
Mof_C 	C 	0.88317	0.12914	0.87812	-0.224
Mof_C 	C 	0.82278	0.12636	0.91848	0.123
Mof_C 	C 	0.0025	0.0921	0.8099	-0.163
Mof_C 	C 	0.70171	0.31677	0.85041	0.331
Mof_C 	C 	0.7665	0.27955	0.82825	-0.341
Mof_C 	C 	0.75925	0.23532	0.83278	0.198
Mof_C 	C 	0.68628	0.22653	0.86011	-0.273
Mof_C 	C 	0.62264	0.26278	0.88234	0.18
Mof_C 	C 	0.62753	0.30793	0.87801	-0.272
Mof_C 	C 	0.55427	0.34461	0.90345	0.299
Mof_C 	C 	0.4835	0.46285	0.90755	0.234
Mof_C 	C 	0.40814	0.50263	0.92509	-0.17
Mof_C 	C 	0.35996	0.51955	0.88813	-0.248
Mof_C 	C 	0.2923	0.5641	0.9037	0.296
Mof_C 	C 	0.2298	0.5676	0.8992	-0.409
Mof_C 	C 	0.1572	0.6172	0.9106	-0.159
Mof_C 	C 	0.50606	0.41331	0.80377	0.12
Mof_C 	C 	0.4707	0.4131	0.7689	-0.202
Mof_C 	C 	0.52054	0.4096	0.72272	0.141
Mof_C 	C 	0.60285	0.40672	0.71518	-0.212
Mof_C 	C 	0.63405	0.4083	0.752	0.117
Mof_C 	C 	0.4862	0.4098	0.6812	-0.16
Mof_C 	C 	0.26047	0.41826	0.9196	0.323
Mof_C 	C 	0.23427	0.41848	0.87998	-0.319
Mof_C 	C 	0.15484	0.44311	0.87921	0.174
Mof_C 	C 	0.09716	0.46986	0.91702	-0.238
Mof_C 	C 	0.12484	0.47102	0.9553	0.147
Mof_C 	C 	0.20502	0.44625	0.95791	-0.259
Mof_C 	C 	0.22892	0.45213	0.99903	0.298
Mof_C 	C 	0.39165	0.41287	0.04663	0.315
Mof_C 	C 	0.42424	0.41794	0.08678	-0.487
Mof_C 	C 	0.43756	0.37405	0.11523	0.341
Mof_C 	C 	0.35701	0.36155	0.13943	-0.609
Mof_C 	C 	0.37008	0.31926	0.17118	0.574
Mof_C 	C 	0.2886	0.30762	0.19558	-1.044
Mof_C 	C 	0.83774	0.52788	0.82724	0.327
Mof_C 	C 	0.88637	0.55367	0.79679	-0.315
Mof_C 	C 	0.89884	0.55212	0.7494	0.181
Mof_C 	C 	0.86301	0.52519	0.73099	-0.249
Mof_C 	C 	0.81449	0.50054	0.76088	0.159
Mof_C 	C 	0.80004	0.50154	0.80918	-0.267
Mof_C 	C 	0.74821	0.4731	0.83768	0.304
Mof_C 	C 	0.69428	0.43521	0.94863	0.345
Mof_C 	C 	0.65591	0.40119	0.97999	-0.544
Mof_C 	C 	0.72288	0.36053	0.99151	0.425
Mof_C 	C 	0.77551	0.32976	0.95002	-0.745
Mof_C 	C 	0.8432	0.28818	0.95982	0.783
Mof_C 	C 	0.8927	0.2579	0.9183	-1.318
Mof_C 	C 	0.33179	0.45214	0.58388	0.129
Mof_C 	C 	0.35385	0.45134	0.62416	-0.211
Mof_C 	C 	0.38217	0.40949	0.64497	0.153
Mof_C 	C 	0.39043	0.37086	0.62188	-0.225
Mof_C 	C 	0.36762	0.37364	0.58152	0.124
Mof_C 	C 	0.4045	0.4079	0.6901	-0.166
Mof_C 	C 	0.01848	0.35041	0.68323	0.331
Mof_C 	C 	0.04605	0.32825	0.72045	-0.34
Mof_C 	C 	0.99457	0.33278	0.76468	0.198
Mof_C 	C 	0.91281	0.36011	0.77347	-0.273
Mof_C 	C 	0.88542	0.38234	0.73722	0.18
Mof_C 	C 	0.93546	0.37801	0.69207	-0.272
Mof_C 	C 	0.89888	0.40345	0.65539	0.298
Mof_C 	C 	0.94635	0.40755	0.53715	0.234
Mof_C 	C 	0.91077	0.42509	0.49737	-0.17
Mof_C 	C 	0.87951	0.38813	0.48045	-0.248
Mof_C 	C 	0.8564	0.4037	0.4359	0.296
Mof_C 	C 	0.7974	0.3992	0.4324	-0.409
Mof_C 	C 	0.7744	0.4106	0.3828	-0.159
Mof_C 	C 	0.91937	0.30377	0.58669	0.12
Mof_C 	C 	0.8838	0.2689	0.5869	-0.201
Mof_C 	C 	0.93014	0.22272	0.5904	0.14
Mof_C 	C 	0.00957	0.21518	0.59328	-0.212
Mof_C 	C 	0.04235	0.252	0.5917	0.117
Mof_C 	C 	0.896	0.1812	0.5902	-0.16
Mof_C 	C 	0.67873	0.4196	0.58174	0.323
Mof_C 	C 	0.65275	0.37998	0.58152	-0.319
Mof_C 	C 	0.59795	0.37921	0.55689	0.174
Mof_C 	C 	0.56702	0.41702	0.53014	-0.238
Mof_C 	C 	0.59586	0.4553	0.52898	0.147
Mof_C 	C 	0.65127	0.45791	0.55375	-0.259
Mof_C 	C 	0.68105	0.49903	0.54787	0.298
Mof_C 	C 	0.80452	0.54663	0.58713	0.315
Mof_C 	C 	0.84218	0.58678	0.58206	-0.487
Mof_C 	C 	0.81161	0.61523	0.62595	0.341
Mof_C 	C 	0.71856	0.63943	0.63845	-0.609
Mof_C 	C 	0.68934	0.67118	0.68074	0.574
Mof_C 	C 	0.59622	0.69558	0.69238	-1.044
Mof_C 	C 	0.36562	0.32724	0.47212	0.327
Mof_C 	C 	0.44004	0.29679	0.44633	-0.315
Mof_C 	C 	0.45096	0.2494	0.44788	0.181
Mof_C 	C 	0.3882	0.23099	0.47481	-0.249
Mof_C 	C 	0.31503	0.26088	0.49946	0.159
Mof_C 	C 	0.30158	0.30918	0.49846	-0.267
Mof_C 	C 	0.22131	0.33768	0.5269	0.304
Mof_C 	C 	0.12949	0.44863	0.56479	0.345
Mof_C 	C 	0.0571	0.47999	0.59881	-0.545
Mof_C 	C 	0.08341	0.49151	0.63947	0.428
Mof_C 	C 	0.10527	0.45002	0.67024	-0.747
Mof_C 	C 	0.13138	0.45982	0.71182	0.785
Mof_C 	C 	0.1506	0.4183	0.7421	-1.32
Mof_C 	C 	0.78393	0.08388	0.54786	0.129
Mof_C 	C 	0.80519	0.12416	0.54866	-0.211
Mof_C 	C 	0.79166	0.14497	0.59051	0.153
Mof_C 	C 	0.76129	0.12188	0.62914	-0.225
Mof_C 	C 	0.74126	0.08152	0.62636	0.124
Mof_C 	C 	0.8124	0.1901	0.5921	-0.166
Mof_C 	C 	0.55212	0.14959	0.81677	0.331
Mof_C 	C 	0.59475	0.17175	0.77955	-0.341
Mof_C 	C 	0.59203	0.16722	0.73532	0.198
Mof_C 	C 	0.54639	0.13989	0.72653	-0.273
Mof_C 	C 	0.50498	0.11766	0.76278	0.18
Mof_C 	C 	0.50554	0.12199	0.80793	-0.272
Mof_C 	C 	0.45772	0.09655	0.84461	0.298
Mof_C 	C 	0.39105	0.09245	0.96285	0.232
Mof_C 	C 	0.33323	0.07491	0.00263	-0.167
Mof_C 	C 	0.24809	0.11187	0.01955	-0.247
Mof_C 	C 	0.196	0.0963	0.0641	0.296
Mof_C 	C 	0.129	0.1008	0.0676	-0.409
Mof_C 	C 	0.0678	0.0894	0.1172	-0.159
Mof_C 	C 	0.30983	0.19623	0.91331	0.12
Mof_C 	C 	0.2396	0.2311	0.9131	-0.202
Mof_C 	C 	0.24326	0.27728	0.9096	0.14
Mof_C 	C 	0.31803	0.28482	0.90672	-0.212
Mof_C 	C 	0.38605	0.248	0.9083	0.117
Mof_C 	C 	0.1674	0.3188	0.9098	-0.16
Mof_C 	C 	0.18007	0.0804	0.91826	0.322
Mof_C 	C 	0.11425	0.12002	0.91848	-0.319
Mof_C 	C 	0.03405	0.12079	0.94311	0.174
Mof_C 	C 	0.01418	0.08298	0.96986	-0.237
Mof_C 	C 	0.08014	0.0447	0.97102	0.146
Mof_C 	C 	0.16293	0.04209	0.94625	-0.258
Mof_C 	C 	0.22795	0.00097	0.95213	0.296
Mof_C 	C 	0.43828	0.95337	0.91287	0.315
Mof_C 	C 	0.51102	0.91322	0.91794	-0.488
Mof_C 	C 	0.55279	0.88477	0.87405	0.342
Mof_C 	C 	0.49644	0.86057	0.86155	-0.609
Mof_C 	C 	0.54126	0.82882	0.81926	0.574
Mof_C 	C 	0.48418	0.80442	0.80762	-1.044
Mof_C 	C 	0.66498	0.17276	0.02788	0.327
Mof_C 	C 	0.68316	0.20321	0.05367	-0.315
Mof_C 	C 	0.64824	0.2506	0.05212	0.182
Mof_C 	C 	0.594	0.26901	0.02519	-0.25
Mof_C 	C 	0.57537	0.23912	0.00054	0.16
Mof_C 	C 	0.60922	0.19082	0.00154	-0.266
Mof_C 	C 	0.58589	0.16232	0.9731	0.303
Mof_C 	C 	0.64291	0.05137	0.93521	0.344
Mof_C 	C 	0.6359	0.02001	0.90119	-0.544
Mof_C 	C 	0.71439	0.00849	0.86053	0.421
Mof_C 	C 	0.72553	0.04998	0.82976	-0.742
Mof_C 	C 	0.80302	0.04018	0.78818	0.781
Mof_C 	C 	0.811	0.0817	0.7579	-1.316
Mof_C 	C 	0.91567	0.41612	0.95214	0.129
Mof_C 	C 	0.97801	0.37584	0.95134	-0.212
Mof_C 	C 	0.02714	0.35503	0.90949	0.153
Mof_C 	C 	0.01231	0.37812	0.87086	-0.225
Mof_C 	C 	0.94914	0.41848	0.87364	0.123
Mof_C 	C 	0.0946	0.3099	0.9079	-0.166
Mof_N 	N 	0.65668	0.88848	0.39794	-0.252
Mof_N 	N 	0.67574	0.92094	0.42198	-0.191
Mof_N 	N 	0.70592	0.91177	0.29639	-0.202
Mof_N 	N 	0.76377	0.9296	0.50266	-0.252
Mof_N 	N 	0.69678	0.9394	0.54384	-0.211
Mof_N 	N 	0.40725	0.96982	0.3823	-0.254
Mof_N 	N 	0.4604	0.9383	0.4055	-0.221
Mof_N 	N 	0.18466	0.91407	0.06241	-0.207
Mof_N 	N 	0.4431	0.61152	0.10206	-0.252
Mof_N 	N 	0.51866	0.57906	0.07802	-0.191
Mof_N 	N 	0.41408	0.58823	0.20361	-0.202
Mof_N 	N 	0.69603	0.5704	0.99734	-0.252
Mof_N 	N 	0.68002	0.5606	0.95616	-0.211
Mof_N 	N 	0.25937	0.53018	0.1177	-0.254
Mof_N 	N 	0.3042	0.5617	0.0945	-0.221
Mof_N 	N 	0.66114	0.58593	0.43759	-0.207
Mof_N 	N 	0.05462	0.60206	0.38848	-0.252
Mof_N 	N 	0.09772	0.57802	0.42094	-0.191
Mof_N 	N 	0.00231	0.70361	0.41177	-0.202
Mof_N 	N 	0.26643	0.49734	0.4296	-0.252
Mof_N 	N 	0.24062	0.45616	0.4394	-0.211
Mof_N 	N 	0.78955	0.6177	0.46982	-0.254
Mof_N 	N 	0.8659	0.5945	0.4383	-0.221
Mof_N 	N 	0.24707	0.93759	0.41407	-0.207
Mof_N 	N 	0.54516	0.89794	0.11152	-0.252
Mof_N 	N 	0.59668	0.92198	0.07906	-0.191
Mof_N 	N 	0.61769	0.79639	0.08823	-0.202
Mof_N 	N 	0.69337	0.00266	0.0704	-0.251
Mof_N 	N 	0.63618	0.04384	0.0606	-0.21
Mof_N 	N 	0.37707	0.8823	0.03018	-0.254
Mof_N 	N 	0.3987	0.9055	0.0617	-0.221
Mof_N 	N 	0.09873	0.56241	0.08593	-0.207
Mof_N 	N 	0.34332	0.11152	0.60206	-0.252
Mof_N 	N 	0.32426	0.07906	0.57802	-0.191
Mof_N 	N 	0.29408	0.08823	0.70361	-0.202
Mof_N 	N 	0.23623	0.0704	0.49734	-0.252
Mof_N 	N 	0.30322	0.0606	0.45616	-0.211
Mof_N 	N 	0.59275	0.03018	0.6177	-0.254
Mof_N 	N 	0.5396	0.0617	0.5945	-0.221
Mof_N 	N 	0.81534	0.08593	0.93759	-0.207
Mof_N 	N 	0.5569	0.38848	0.89794	-0.252
Mof_N 	N 	0.48134	0.42094	0.92198	-0.191
Mof_N 	N 	0.58592	0.41177	0.79639	-0.202
Mof_N 	N 	0.30397	0.4296	0.00266	-0.252
Mof_N 	N 	0.31998	0.4394	0.04384	-0.211
Mof_N 	N 	0.74063	0.46982	0.8823	-0.254
Mof_N 	N 	0.6958	0.4383	0.9055	-0.221
Mof_N 	N 	0.33886	0.41407	0.56241	-0.207
Mof_N 	N 	0.94538	0.39794	0.61152	-0.252
Mof_N 	N 	0.90228	0.42198	0.57906	-0.191
Mof_N 	N 	0.99769	0.29639	0.58823	-0.202
Mof_N 	N 	0.73357	0.50266	0.5704	-0.252
Mof_N 	N 	0.75938	0.54384	0.5606	-0.211
Mof_N 	N 	0.21045	0.3823	0.53018	-0.254
Mof_N 	N 	0.1341	0.4055	0.5617	-0.221
Mof_N 	N 	0.75293	0.06241	0.58593	-0.207
Mof_N 	N 	0.45484	0.10206	0.88848	-0.252
Mof_N 	N 	0.40332	0.07802	0.92094	-0.191
Mof_N 	N 	0.38231	0.20361	0.91177	-0.202
Mof_N 	N 	0.30663	0.99734	0.9296	-0.251
Mof_N 	N 	0.36382	0.95616	0.9394	-0.21
Mof_N 	N 	0.62293	0.1177	0.96982	-0.254
Mof_N 	N 	0.6013	0.0945	0.9383	-0.221
Mof_N 	N 	0.90127	0.43759	0.91407	-0.207
Mof_O 	O 	0.58358	0.85907	0.34311	-0.444
Mof_O 	O 	0.74666	0.83359	0.42989	-0.384
Mof_O 	O 	0.60568	0.97133	0.37605	-0.387
Mof_O 	O 	0.85333	0.89173	0.41897	-0.436
Mof_O 	O 	0.8129	0.9801	0.53098	-0.376
Mof_O 	O 	0.665	0.88091	0.51567	-0.41
Mof_O 	O 	0.26581	0.03123	0.37197	-0.436
Mof_O 	O 	0.51714	0.95172	0.31794	-0.382
Mof_O 	O 	0.34578	0.95964	0.46684	-0.411
Mof_O 	O 	0.28576	0.64093	0.15689	-0.443
Mof_O 	O 	0.51014	0.66641	0.07011	-0.384
Mof_O 	O 	0.45306	0.52867	0.12395	-0.387
Mof_O 	O 	0.66403	0.60827	0.08103	-0.436
Mof_O 	O 	0.82398	0.5199	0.96902	-0.376
Mof_O 	O 	0.56158	0.61909	0.98433	-0.41
Mof_O 	O 	0.16901	0.46877	0.12803	-0.436
Mof_O 	O 	0.2868	0.54828	0.18206	-0.382
Mof_O 	O 	0.27226	0.54036	0.03316	-0.411
Mof_O 	O 	0.92669	0.65689	0.35907	-0.444
Mof_O 	O 	0.17655	0.57011	0.33359	-0.384
Mof_O 	O 	0.98173	0.62395	0.47133	-0.387
Mof_O 	O 	0.2723	0.58103	0.39173	-0.436
Mof_O 	O 	0.34388	0.46902	0.4801	-0.376
Mof_O 	O 	0.18067	0.48433	0.38091	-0.41
Mof_O 	O 	0.63778	0.62803	0.53123	-0.436
Mof_O 	O 	0.83508	0.68206	0.45172	-0.382
Mof_O 	O 	0.81262	0.53316	0.45964	-0.411
Mof_O 	O 	0.44265	0.84311	0.14093	-0.444
Mof_O 	O 	0.58025	0.92989	0.16641	-0.384
Mof_O 	O 	0.57701	0.87605	0.02867	-0.387
Mof_O 	O 	0.74506	0.91897	0.10827	-0.436
Mof_O 	O 	0.793	0.03098	0.0199	-0.374
Mof_O 	O 	0.54591	0.01567	0.11909	-0.409
Mof_O 	O 	0.29704	0.87197	0.96877	-0.436
Mof_O 	O 	0.46886	0.81794	0.04828	-0.382
Mof_O 	O 	0.30542	0.96684	0.04036	-0.411
Mof_O 	O 	0.41642	0.14093	0.65689	-0.444
Mof_O 	O 	0.25334	0.16641	0.57011	-0.384
Mof_O 	O 	0.39432	0.02867	0.62395	-0.387
Mof_O 	O 	0.14667	0.10827	0.58103	-0.436
Mof_O 	O 	0.1871	0.0199	0.46902	-0.376
Mof_O 	O 	0.335	0.11909	0.48433	-0.41
Mof_O 	O 	0.73419	0.96877	0.62803	-0.436
Mof_O 	O 	0.48286	0.04828	0.68206	-0.382
Mof_O 	O 	0.65422	0.04036	0.53316	-0.411
Mof_O 	O 	0.71424	0.35907	0.84311	-0.443
Mof_O 	O 	0.48986	0.33359	0.92989	-0.384
Mof_O 	O 	0.54694	0.47133	0.87605	-0.387
Mof_O 	O 	0.33597	0.39173	0.91897	-0.436
Mof_O 	O 	0.17602	0.4801	0.03098	-0.376
Mof_O 	O 	0.43842	0.38091	0.01567	-0.41
Mof_O 	O 	0.83099	0.53123	0.87197	-0.436
Mof_O 	O 	0.7132	0.45172	0.81794	-0.382
Mof_O 	O 	0.72774	0.45964	0.96684	-0.411
Mof_O 	O 	0.07331	0.34311	0.64093	-0.444
Mof_O 	O 	0.82345	0.42989	0.66641	-0.384
Mof_O 	O 	0.01827	0.37605	0.52867	-0.387
Mof_O 	O 	0.7277	0.41897	0.60827	-0.436
Mof_O 	O 	0.65612	0.53098	0.5199	-0.376
Mof_O 	O 	0.81933	0.51567	0.61909	-0.41
Mof_O 	O 	0.36222	0.37197	0.46877	-0.436
Mof_O 	O 	0.16492	0.31794	0.54828	-0.382
Mof_O 	O 	0.18738	0.46684	0.54036	-0.411
Mof_O 	O 	0.55735	0.15689	0.85907	-0.444
Mof_O 	O 	0.41975	0.07011	0.83359	-0.384
Mof_O 	O 	0.42299	0.12395	0.97133	-0.387
Mof_O 	O 	0.25494	0.08103	0.89173	-0.436
Mof_O 	O 	0.207	0.96902	0.9801	-0.374
Mof_O 	O 	0.45409	0.98433	0.88091	-0.409
Mof_O 	O 	0.70296	0.12803	0.03123	-0.436
Mof_O 	O 	0.53114	0.18206	0.95172	-0.382
Mof_O 	O 	0.69458	0.03316	0.95964	-0.411
_end
