data_functionalizedCrystal
_audit_creation_method	'EQeq! by Chris Wilmer'
_symmetry_space_group_name_H-M	'P1'
_symmetry_Int_Tables_number	1
_symmetry_cell_setting	triclinic
loop_
_symmetry_equiv_pos_as_xyz
  x,y,z
_cell_length_a	8.264
_cell_length_b	18.4399
_cell_length_c	19.18
_cell_angle_alpha	110.063
_cell_angle_beta	90
_cell_angle_gamma	102.949
loop_
_atom_site_label
_atom_site_type_symbol
_atom_site_fract_x
_atom_site_fract_y
_atom_site_fract_z
_atom_site_charge
Mof_Zn	Zn	0.52685	0.58292	0.22752	1.187
Mof_Zn	Zn	0.27502	-4.26407e-17	0.75	1.182
Mof_Zn	Zn	0.47315	0.41708	0.77248	1.186
Mof_Zn	Zn	0.72498	0	0.25	1.182
Mof_Zn	Zn	0.05607	0.58292	0.72752	1.186
Mof_Zn	Zn	0.94393	0.41708	0.27248	1.185
Mof_H 	H 	0.433	0.7898	0.984	0.003
Mof_H 	H 	0.5406	0.1554	0.1918	0.079
Mof_H 	H 	0.187	0.211	0.4541	0.174
Mof_H 	H 	0.0281	0.999	0.3356	0.024
Mof_H 	H 	0.366	0.168	0.3669	-0.047
Mof_H 	H 	0.6148	0.1554	0.6918	0.078
Mof_H 	H 	0.4575	0.244	0.7039	-0.007
Mof_H 	H 	0.5883	0.4236	0.2954	-0.015
Mof_H 	H 	0.0089	0.3402	0.7827	0.072
Mof_H 	H 	0.567	0.2102	0.016	0.009
Mof_H 	H 	0.9709	0.999	0.8356	0.015
Mof_H 	H 	0.7299	0.9376	0.4485	0.192
Mof_H 	H 	0.3858	0.6558	0.9243	0.094
Mof_H 	H 	0.0291	0.001	0.1644	-0.051
Mof_H 	H 	0.73	0.3442	0.5757	0.092
Mof_H 	H 	0.976	0.789	0.0459	0.154
Mof_H 	H 	0.2801	0.083	0.1605	0.071
Mof_H 	H 	0.3568	0.7898	0.484	0.004
Mof_H 	H 	0.4594	0.8446	0.8082	0.105
Mof_H 	H 	0.1971	0.917	0.3395	0.104
Mof_H 	H 	0.802	0.168	0.8669	-0.044
Mof_H 	H 	0.634	0.832	0.6331	-0.032
Mof_H 	H 	0.7865	0.244	0.2039	-0.008
Mof_H 	H 	0.8353	0.4236	0.7954	-0.014
Mof_H 	H 	0.8635	0.7386	0.6893	0.065
Mof_H 	H 	0.2817	0.1752	0.8122	-0.012
Mof_H 	H 	0.27	0.6558	0.4243	0.097
Mof_H 	H 	0.2701	0.0624	0.5515	0.163
Mof_H 	H 	0.4117	0.5764	0.7046	-0.016
Mof_H 	H 	0.198	0.832	0.1331	-0.025
Mof_H 	H 	0.2077	0.9376	0.9485	0.19
Mof_H 	H 	0.3852	0.8446	0.3082	0.104
Mof_H 	H 	0.6432	0.2102	0.516	0.008
Mof_H 	H 	0.8261	0.1282	0.512	0.11
Mof_H 	H 	0.8029	0.083	0.6605	0.071
Mof_H 	H 	0.3021	0.1282	0.012	0.112
Mof_H 	H 	0.1249	0.2614	0.8107	0.066
Mof_H 	H 	0.9719	0.001	0.6644	-0.051
Mof_H 	H 	0.024	0.211	0.9541	0.167
Mof_H 	H 	0.9911	0.6598	0.2173	0.071
Mof_H 	H 	0.7183	0.8248	0.1878	-0.006
Mof_H 	H 	0.2135	0.756	0.7961	-0.007
Mof_H 	H 	0.1647	0.5764	0.2046	-0.013
Mof_H 	H 	0.8751	0.7386	0.1893	0.067
Mof_H 	H 	0.4396	0.0148	0.4597	-0.08
Mof_H 	H 	0.6979	0.8718	0.988	0.138
Mof_H 	H 	0.7923	0.0624	0.0515	0.158
Mof_H 	H 	0.5425	0.756	0.2961	-0.006
Mof_H 	H 	0.813	0.789	0.5459	0.166
Mof_H 	H 	0.1739	0.8718	0.488	0.141
Mof_H 	H 	0.7199	0.917	0.8395	0.106
Mof_H 	H 	0.3313	0.3402	0.2827	0.076
Mof_H 	H 	0.5752	0.0148	0.9597	-0.076
Mof_H 	H 	0.5604	0.9852	0.5403	-0.005
Mof_H 	H 	0.6687	0.6598	0.7173	0.077
Mof_H 	H 	0.4248	0.9852	0.0403	-0.005
Mof_H 	H 	0.1065	0.8248	0.6878	-0.006
Mof_H 	H 	0.1365	0.2614	0.3107	0.065
Mof_H 	H 	0.8935	0.1752	0.3122	-0.01
Mof_H 	H 	0.6142	0.3442	0.0757	0.092
Mof_C 	C 	0.66269	0.20958	0.7135	-0.12
Mof_C 	C 	0.80484	0.31248	0.572	-0.134
Mof_C 	C 	0.072	0.8572	0.9873	0.348
Mof_C 	C 	0.2482	0.7676	0.4624	0.114
Mof_C 	C 	0.92105	0.7007	0.3995	-0.191
Mof_C 	C 	0.56953	0.26306	0.7212	0.075
Mof_C 	C 	0.75874	0.82708	0.5433	-0.355
Mof_C 	C 	0.71055	0.9161	0.4859	-0.339
Mof_C 	C 	0.19516	0.68752	0.428	-0.146
Mof_C 	C 	0.19849	0.21938	0.0668	0.26
Mof_C 	C 	0.7992	0.1468	0.9046	0.25
Mof_C 	C 	0.4806	0.2324	0.0376	0.097
Mof_C 	C 	0.57143	0.91066	0.5933	-0.255
Mof_C 	C 	0.2008	0.8532	0.0954	0.223
Mof_C 	C 	0.24126	0.17292	0.4567	-0.39
Mof_C 	C 	0.74668	0.66596	0.3633	0.409
Mof_C 	C 	0.5194	0.7676	0.9624	0.112
Mof_C 	C 	0.89985	0.1035	0.6924	-0.144
Mof_C 	C 	0.20365	0.1035	0.1924	-0.143
Mof_C 	C 	0.4454	0.9338	0.6478	0.441
Mof_C 	C 	0.33731	0.79042	0.2865	-0.132
Mof_C 	C 	0.41316	0.43632	0.1374	0.28
Mof_C 	C 	0.20865	0.6309	0.2254	0.079
Mof_C 	C 	0.62099	0.65218	0.8983	0.039
Mof_C 	C 	0.3225	0.1832	0.0347	-0.235
Mof_C 	C 	0.33923	0.91066	0.0933	-0.248
Mof_C 	C 	0.97684	0.56368	0.3626	0.271
Mof_C 	C 	0.05934	0.81808	0.264	0.08
Mof_C 	C 	0.49236	0.68752	0.928	-0.142
Mof_C 	C 	0.5116	0.0662	0.8522	0.462
Mof_C 	C 	0.577	0.681	0.7322	-0.131
Mof_C 	C 	0.10015	0.8965	0.3076	-0.124
Mof_C 	C 	0.3933	0.0564	0.4598	0.257
Mof_C 	C 	0.6631	0.0564	0.9598	0.243
Mof_C 	C 	0.08072	0.33404	0.1367	0.411
Mof_C 	C 	0.423	0.319	0.2678	-0.126
Mof_C 	C 	0.43047	0.73694	0.2788	0.084
Mof_C 	C 	0.7852	0.8572	0.4873	0.368
Mof_C 	C 	0.94066	0.18192	0.736	0.079
Mof_C 	C 	0.83437	0.23694	0.7387	0.052
Mof_C 	C 	0.69353	0.26306	0.2212	0.076
Mof_C 	C 	0.20555	0.9161	0.9859	-0.339
Mof_C 	C 	0.97307	0.15614	0.2815	0.074
Mof_C 	C 	0.40257	0.23694	0.2387	0.056
Mof_C 	C 	0.24126	0.18192	0.236	0.073
Mof_C 	C 	0.2148	0.1428	0.5127	0.376
Mof_C 	C 	0.05244	0.05408	0.1953	0.089
Mof_C 	C 	0.3476	0.1468	0.4046	0.26
Mof_C 	C 	0.77965	0.7007	0.8995	-0.187
Mof_C 	C 	0.4884	0.9338	0.1478	0.439
Mof_C 	C 	0.18307	0.15614	0.7815	0.08
Mof_C 	C 	0.16563	0.76306	0.2613	0.06
Mof_C 	C 	0.07895	0.2993	0.6005	-0.183
Mof_C 	C 	0.88119	0.79198	0.7191	-0.135
Mof_C 	C 	0.79445	0.0839	0.0141	-0.37
Mof_C 	C 	0.75874	0.81808	0.764	0.077
Mof_C 	C 	0.08921	0.20802	0.7809	-0.142
Mof_C 	C 	0.79635	0.8965	0.8076	-0.133
Mof_C 	C 	0.42225	0.6309	0.7254	0.084
Mof_C 	C 	0.58684	0.56368	0.8626	0.278
Mof_C 	C 	0.97911	0.78062	0.4332	0.268
Mof_C 	C 	0.1393	0.8168	0.4653	-0.246
Mof_C 	C 	0.02693	0.84386	0.7185	0.087
Mof_C 	C 	0.02089	0.21938	0.5668	0.261
Mof_C 	C 	0.45311	0.79042	0.7865	-0.135
Mof_C 	C 	0.81693	0.84386	0.2185	0.089
Mof_C 	C 	0.66077	0.08934	0.9067	-0.308
Mof_C 	C 	0.96881	0.34782	0.6017	0.036
Mof_C 	C 	0.57775	0.3691	0.2746	0.08
Mof_C 	C 	0.79135	0.3691	0.7746	0.077
Mof_C 	C 	0.7518	0.2324	0.5376	0.098
Mof_C 	C 	0.02316	0.43632	0.6374	0.278
Mof_C 	C 	0.00164	0.05408	0.6953	0.086
Mof_C 	C 	0.37901	0.34782	0.1017	0.035
Mof_C 	C 	0.59743	0.76306	0.7613	0.065
Mof_C 	C 	0.93166	0.17292	0.9567	-0.38
Mof_C 	C 	0.25332	0.33404	0.6367	0.407
Mof_C 	C 	0.6775	0.8168	0.9653	-0.247
Mof_C 	C 	0.91928	0.66596	0.8633	0.41
Mof_C 	C 	0.896	0.319	0.7678	-0.12
Mof_C 	C 	0.3369	0.9436	0.0402	0.24
Mof_C 	C 	0.8607	0.1832	0.5347	-0.237
Mof_C 	C 	0.54689	0.20958	0.2135	-0.122
Mof_C 	C 	0.104	0.681	0.2322	-0.119
Mof_C 	C 	0.6524	0.8532	0.5954	0.239
Mof_C 	C 	0.99836	0.94592	0.3047	0.089
Mof_C 	C 	0.22035	0.2993	0.1005	-0.181
Mof_C 	C 	0.30647	0.73694	0.7788	0.086
Mof_C 	C 	0.03119	0.65218	0.3983	0.047
Mof_C 	C 	0.11881	0.20802	0.2809	-0.133
Mof_C 	C 	0.5546	0.0662	0.3522	0.466
Mof_C 	C 	0.91079	0.79198	0.2191	-0.141
Mof_C 	C 	0.50764	0.31248	0.072	-0.132
Mof_C 	C 	0.94756	0.94592	0.8047	0.103
Mof_C 	C 	0.06834	0.82708	0.0433	-0.322
Mof_C 	C 	0.80151	0.78062	0.9332	0.267
Mof_C 	C 	0.42857	0.08934	0.4067	-0.316
Mof_C 	C 	0.28945	0.0839	0.5141	-0.386
Mof_C 	C 	0.928	0.1428	0.0127	0.366
Mof_C 	C 	0.6067	0.9436	0.5402	0.236
Mof_N 	N 	0.71265	0.3423	0.2525	-0.277
Mof_N 	N 	0.28735	0.6577	0.7475	-0.279
Mof_N 	N 	0.37035	0.6577	0.2475	-0.277
Mof_N 	N 	0.94009	0.07958	0.2402	-0.276
Mof_N 	N 	0.62965	0.3423	0.7525	-0.276
Mof_N 	N 	0.13949	0.07958	0.7402	-0.276
Mof_N 	N 	0.05991	0.92042	0.7598	-0.24
Mof_N 	N 	0.86051	0.92042	0.2598	-0.238
Mof_O 	O 	0.37038	0.33456	0.5965	-0.307
Mof_O 	O 	0.90803	0.64166	0.7928	-0.485
Mof_O 	O 	0.69808	0.52956	0.8632	-0.348
Mof_O 	O 	0.4004	0.0114	0.8489	-0.522
Mof_O 	O 	0.16852	0.47044	0.6368	-0.348
Mof_O 	O 	0.83148	0.52956	0.3632	-0.346
Mof_O 	O 	0.30192	0.47044	0.1368	-0.347
Mof_O 	O 	0.03582	0.66544	0.9035	-0.311
Mof_O 	O 	0.62962	0.66544	0.4035	-0.308
Mof_O 	O 	0.91666	0.47372	0.6702	-0.453
Mof_O 	O 	0.5052	0.103	0.8105	-0.426
Mof_O 	O 	0.04752	0.16944	0.0717	-0.314
Mof_O 	O 	0.12192	0.16944	0.5717	-0.32
Mof_O 	O 	0.5996	0.9886	0.1511	-0.417
Mof_O 	O 	0.08334	0.52628	0.3298	-0.449
Mof_O 	O 	0.389	0.9886	0.6511	-0.418
Mof_O 	O 	0.44294	0.52628	0.8298	-0.454
Mof_O 	O 	0.95248	0.83056	0.9283	-0.303
Mof_O 	O 	0.96418	0.33456	0.0965	-0.31
Mof_O 	O 	0.5978	0.103	0.3105	-0.427
Mof_O 	O 	0.87808	0.83056	0.4283	-0.308
Mof_O 	O 	0.73363	0.64166	0.2928	-0.485
Mof_O 	O 	0.611	0.0114	0.3489	-0.523
Mof_O 	O 	0.4948	0.897	0.1895	-0.382
Mof_O 	O 	0.26637	0.35834	0.7072	-0.485
Mof_O 	O 	0.09197	0.35834	0.2072	-0.484
Mof_O 	O 	0.4022	0.897	0.6895	-0.383
Mof_O 	O 	0.55706	0.47372	0.1702	-0.453
_end
