data_functionalizedCrystal
_audit_creation_method	'EQeq! by Chris Wilmer'
_symmetry_space_group_name_H-M	'P1'
_symmetry_Int_Tables_number	1
_symmetry_cell_setting	triclinic
loop_
_symmetry_equiv_pos_as_xyz
  x,y,z
_cell_length_a	20.674
_cell_length_b	9.956
_cell_length_c	23.694
_cell_angle_alpha	90
_cell_angle_beta	101.154
_cell_angle_gamma	90
loop_
_atom_site_label
_atom_site_type_symbol
_atom_site_fract_x
_atom_site_fract_y
_atom_site_fract_z
_atom_site_charge
Mof_V 	V 	0.77857	0.09001	0.72247	1.7
Mof_V 	V 	0.67397	0.09421	0.82721	1.704
Mof_V 	V 	0.5601	0.42283	0.93582	1.713
Mof_P 	P 	0.60686	0.1282	0.93943	0.553
Mof_P 	P 	0.68951	0.3841	0.87628	0.566
Mof_P 	P 	0.78557	0.8747	0.82501	0.539
Mof_P 	P 	0.44246	0.3142	0.99566	0.617
Mof_O 	O 	0.7346	0.9459	0.8545	-0.51
Mof_O 	O 	0.7426	0.1634	0.7874	-0.903
Mof_O 	O 	0.6398	0.0483	0.898	-0.51
Mof_O 	O 	0.6514	0.2895	0.8298	-0.581
Mof_O 	O 	0.642	0.4627	0.906	-0.538
Mof_O 	O 	0.5148	0.3413	0.9956	-0.509
Mof_O 	O 	0.434	0.2131	0.0415	-0.286
Mof_O 	O 	0.4081	0.2524	0.9361	-0.367
Mof_O 	O 	0.5946	0.556	0.9966	-0.457
Mof_O 	O 	0.5651	0.2399	0.9086	-0.561
Mof_O 	O 	0.7385	0.2987	0.9182	-0.492
Mof_O 	O 	0.6568	0.1854	0.9903	-0.451
Mof_O 	O 	0.5612	0.0331	0.9669	-0.151
Mof_O 	O 	0.7253	0.2228	0.6713	-0.523
Mof_O 	O 	0.7687	0.9858	0.65	-0.507
Mof_O 	O 	0.776	0.9158	0.7612	-0.62
Mof_O 	O 	0.8548	0.9107	0.8562	-0.326
Mof_O 	O 	0.7219	0.4271	0.024	-0.503
Mof_H 	H 	0.6873	0.5019	0.0137	0.181
Mof_H 	H 	0.7331	0.2485	0.7816	0.281
Mof_H 	H 	0.3868	0.3123	0.909	0.238
Mof_V 	V 	0.27857	0.59001	0.72247	1.702
Mof_V 	V 	0.17397	0.59421	0.82721	1.704
Mof_V 	V 	0.0601	0.92283	0.93582	1.714
Mof_P 	P 	0.10686	0.6282	0.93943	0.552
Mof_P 	P 	0.18951	0.8841	0.87628	0.566
Mof_P 	P 	0.28557	0.3747	0.82501	0.539
Mof_P 	P 	0.94246	0.8142	0.99566	0.613
Mof_O 	O 	0.2346	0.4459	0.8545	-0.511
Mof_O 	O 	0.2426	0.6634	0.7874	-0.902
Mof_O 	O 	0.1398	0.5483	0.898	-0.509
Mof_O 	O 	0.1514	0.7895	0.8298	-0.581
Mof_O 	O 	0.142	0.9627	0.906	-0.537
Mof_O 	O 	0.0148	0.8413	0.9956	-0.507
Mof_O 	O 	0.934	0.7131	0.0415	-0.285
Mof_O 	O 	0.9081	0.7524	0.9361	-0.366
Mof_O 	O 	0.0946	0.056	0.9966	-0.458
Mof_O 	O 	0.0651	0.7399	0.9086	-0.56
Mof_O 	O 	0.2385	0.7987	0.9182	-0.491
Mof_O 	O 	0.1568	0.6854	0.9903	-0.45
Mof_O 	O 	0.0612	0.5331	0.9669	-0.15
Mof_O 	O 	0.2253	0.7228	0.6713	-0.522
Mof_O 	O 	0.2687	0.4858	0.65	-0.508
Mof_O 	O 	0.276	0.4158	0.7612	-0.621
Mof_O 	O 	0.3548	0.4107	0.8562	-0.326
Mof_O 	O 	0.2219	0.9271	0.024	-0.504
Mof_H 	H 	0.1873	0.0019	0.0137	0.182
Mof_H 	H 	0.2331	0.7485	0.7816	0.281
Mof_H 	H 	0.8868	0.8123	0.909	0.238
Mof_V 	V 	0.22143	0.09001	0.77753	1.701
Mof_V 	V 	0.32603	0.09421	0.67279	1.704
Mof_V 	V 	0.4399	0.42283	0.56418	1.709
Mof_P 	P 	0.39314	0.1282	0.56057	0.556
Mof_P 	P 	0.31049	0.3841	0.62372	0.566
Mof_P 	P 	0.21443	0.8747	0.67499	0.538
Mof_P 	P 	0.55754	0.3142	0.50434	0.521
Mof_O 	O 	0.2654	0.9459	0.6455	-0.514
Mof_O 	O 	0.2574	0.1634	0.7126	-0.904
Mof_O 	O 	0.3602	0.0483	0.602	-0.514
Mof_O 	O 	0.3486	0.2895	0.6702	-0.581
Mof_O 	O 	0.358	0.4627	0.594	-0.549
Mof_O 	O 	0.4852	0.3413	0.5044	-0.522
Mof_O 	O 	0.566	0.2131	0.4585	-0.232
Mof_O 	O 	0.5919	0.2524	0.5639	-0.368
Mof_O 	O 	0.4054	0.556	0.5034	-0.525
Mof_O 	O 	0.4349	0.2399	0.5914	-0.564
Mof_O 	O 	0.2615	0.2987	0.5818	-0.515
Mof_O 	O 	0.3432	0.1854	0.5097	-0.484
Mof_O 	O 	0.4388	0.0331	0.5331	-0.172
Mof_O 	O 	0.2747	0.2228	0.8287	-0.519
Mof_O 	O 	0.2313	0.9858	0.85	-0.499
Mof_O 	O 	0.224	0.9158	0.7388	-0.62
Mof_O 	O 	0.1452	0.9107	0.6438	-0.332
Mof_O 	O 	0.2781	0.4271	0.476	-0.484
Mof_H 	H 	0.3127	0.5019	0.4863	0.208
Mof_H 	H 	0.2669	0.2485	0.7184	0.281
Mof_H 	H 	0.6132	0.3123	0.591	0.231
Mof_V 	V 	0.72143	0.59001	0.77753	1.702
Mof_V 	V 	0.82603	0.59421	0.67279	1.704
Mof_V 	V 	0.9399	0.92283	0.56418	1.71
Mof_P 	P 	0.89314	0.6282	0.56057	0.555
Mof_P 	P 	0.81049	0.8841	0.62372	0.566
Mof_P 	P 	0.71443	0.3747	0.67499	0.538
Mof_P 	P 	0.05754	0.8142	0.50434	0.521
Mof_O 	O 	0.7654	0.4459	0.6455	-0.515
Mof_O 	O 	0.7574	0.6634	0.7126	-0.903
Mof_O 	O 	0.8602	0.5483	0.602	-0.513
Mof_O 	O 	0.8486	0.7895	0.6702	-0.581
Mof_O 	O 	0.858	0.9627	0.594	-0.549
Mof_O 	O 	0.9852	0.8413	0.5044	-0.522
Mof_O 	O 	0.066	0.7131	0.4585	-0.232
Mof_O 	O 	0.0919	0.7524	0.5639	-0.368
Mof_O 	O 	0.9054	0.056	0.5034	-0.525
Mof_O 	O 	0.9349	0.7399	0.5914	-0.564
Mof_O 	O 	0.7615	0.7987	0.5818	-0.515
Mof_O 	O 	0.8432	0.6854	0.5097	-0.484
Mof_O 	O 	0.9388	0.5331	0.5331	-0.172
Mof_O 	O 	0.7747	0.7228	0.8287	-0.518
Mof_O 	O 	0.7313	0.4858	0.85	-0.501
Mof_O 	O 	0.724	0.4158	0.7388	-0.621
Mof_O 	O 	0.6452	0.4107	0.6438	-0.332
Mof_O 	O 	0.7781	0.9271	0.476	-0.484
Mof_H 	H 	0.8127	0.0019	0.4863	0.208
Mof_H 	H 	0.7669	0.7485	0.7184	0.281
Mof_H 	H 	0.1132	0.8123	0.591	0.231
Mof_V 	V 	0.22143	0.90999	0.27753	1.7
Mof_V 	V 	0.32603	0.90579	0.17279	1.703
Mof_V 	V 	0.4399	0.57717	0.06418	1.705
Mof_P 	P 	0.39314	0.8718	0.06057	0.558
Mof_P 	P 	0.31049	0.6159	0.12372	0.565
Mof_P 	P 	0.21443	0.1253	0.17499	0.538
Mof_P 	P 	0.55754	0.6858	0.00434	0.424
Mof_O 	O 	0.2654	0.0541	0.1455	-0.518
Mof_O 	O 	0.2574	0.8366	0.2126	-0.906
Mof_O 	O 	0.3602	0.9517	0.102	-0.517
Mof_O 	O 	0.3486	0.7105	0.1702	-0.581
Mof_O 	O 	0.358	0.5373	0.094	-0.56
Mof_O 	O 	0.4852	0.6587	0.0044	-0.536
Mof_O 	O 	0.566	0.7869	0.9585	-0.177
Mof_O 	O 	0.5919	0.7476	0.0639	-0.37
Mof_O 	O 	0.4054	0.444	0.0034	-0.593
Mof_O 	O 	0.4349	0.7601	0.0914	-0.567
Mof_O 	O 	0.2615	0.7013	0.0818	-0.531
Mof_O 	O 	0.3432	0.8146	0.0097	-0.51
Mof_O 	O 	0.4388	0.9669	0.0331	-0.195
Mof_O 	O 	0.2747	0.7772	0.3287	-0.523
Mof_O 	O 	0.2313	0.0142	0.35	-0.507
Mof_O 	O 	0.224	0.0842	0.2388	-0.621
Mof_O 	O 	0.1452	0.0893	0.1438	-0.338
Mof_O 	O 	0.2781	0.5729	0.976	-0.456
Mof_H 	H 	0.3127	0.4981	0.9863	0.232
Mof_H 	H 	0.2669	0.7515	0.2184	0.281
Mof_H 	H 	0.6132	0.6877	0.091	0.225
Mof_V 	V 	0.72143	0.40999	0.27753	1.701
Mof_V 	V 	0.82603	0.40579	0.17279	1.704
Mof_V 	V 	0.9399	0.07717	0.06418	1.706
Mof_P 	P 	0.89314	0.3718	0.06057	0.558
Mof_P 	P 	0.81049	0.1159	0.12372	0.565
Mof_P 	P 	0.71443	0.6253	0.17499	0.538
Mof_P 	P 	0.05754	0.1858	0.00434	0.424
Mof_O 	O 	0.7654	0.5541	0.1455	-0.52
Mof_O 	O 	0.7574	0.3366	0.2126	-0.905
Mof_O 	O 	0.8602	0.4517	0.102	-0.517
Mof_O 	O 	0.8486	0.2105	0.1702	-0.581
Mof_O 	O 	0.858	0.0373	0.094	-0.559
Mof_O 	O 	0.9852	0.1587	0.0044	-0.534
Mof_O 	O 	0.066	0.2869	0.9585	-0.178
Mof_O 	O 	0.0919	0.2476	0.0639	-0.37
Mof_O 	O 	0.9054	0.944	0.0034	-0.592
Mof_O 	O 	0.9349	0.2601	0.0914	-0.567
Mof_O 	O 	0.7615	0.2013	0.0818	-0.53
Mof_O 	O 	0.8432	0.3146	0.0097	-0.509
Mof_O 	O 	0.9388	0.4669	0.0331	-0.194
Mof_O 	O 	0.7747	0.2772	0.3287	-0.523
Mof_O 	O 	0.7313	0.5142	0.35	-0.508
Mof_O 	O 	0.724	0.5842	0.2388	-0.622
Mof_O 	O 	0.6452	0.5893	0.1438	-0.339
Mof_O 	O 	0.7781	0.0729	0.976	-0.458
Mof_H 	H 	0.8127	0.9981	0.9863	0.233
Mof_H 	H 	0.7669	0.2515	0.2184	0.28
Mof_H 	H 	0.1132	0.1877	0.091	0.225
Mof_V 	V 	0.77857	0.90999	0.22247	1.7
Mof_V 	V 	0.67397	0.90579	0.32721	1.703
Mof_V 	V 	0.5601	0.57717	0.43582	1.709
Mof_P 	P 	0.60686	0.8718	0.43943	0.556
Mof_P 	P 	0.68951	0.6159	0.37628	0.566
Mof_P 	P 	0.78557	0.1253	0.32501	0.538
Mof_P 	P 	0.44246	0.6858	0.49566	0.521
Mof_O 	O 	0.7346	0.0541	0.3545	-0.515
Mof_O 	O 	0.7426	0.8366	0.2874	-0.905
Mof_O 	O 	0.6398	0.9517	0.398	-0.514
Mof_O 	O 	0.6514	0.7105	0.3298	-0.582
Mof_O 	O 	0.642	0.5373	0.406	-0.55
Mof_O 	O 	0.5148	0.6587	0.4956	-0.522
Mof_O 	O 	0.434	0.7869	0.5415	-0.231
Mof_O 	O 	0.4081	0.7476	0.4361	-0.368
Mof_O 	O 	0.5946	0.444	0.4966	-0.525
Mof_O 	O 	0.5651	0.7601	0.4086	-0.564
Mof_O 	O 	0.7385	0.7013	0.4182	-0.515
Mof_O 	O 	0.6568	0.8146	0.4903	-0.484
Mof_O 	O 	0.5612	0.9669	0.4669	-0.172
Mof_O 	O 	0.7253	0.7772	0.1713	-0.528
Mof_O 	O 	0.7687	0.0142	0.15	-0.513
Mof_O 	O 	0.776	0.0842	0.2612	-0.621
Mof_O 	O 	0.8548	0.0893	0.3562	-0.332
Mof_O 	O 	0.7219	0.5729	0.524	-0.484
Mof_H 	H 	0.6873	0.4981	0.5137	0.208
Mof_H 	H 	0.7331	0.7515	0.2816	0.281
Mof_H 	H 	0.3868	0.6877	0.409	0.231
Mof_V 	V 	0.27857	0.40999	0.22247	1.701
Mof_V 	V 	0.17397	0.40579	0.32721	1.704
Mof_V 	V 	0.0601	0.07717	0.43582	1.709
Mof_P 	P 	0.10686	0.3718	0.43943	0.556
Mof_P 	P 	0.18951	0.1159	0.37628	0.566
Mof_P 	P 	0.28557	0.6253	0.32501	0.538
Mof_P 	P 	0.94246	0.1858	0.49566	0.521
Mof_O 	O 	0.2346	0.5541	0.3545	-0.516
Mof_O 	O 	0.2426	0.3366	0.2874	-0.904
Mof_O 	O 	0.1398	0.4517	0.398	-0.513
Mof_O 	O 	0.1514	0.2105	0.3298	-0.582
Mof_O 	O 	0.142	0.0373	0.406	-0.549
Mof_O 	O 	0.0148	0.1587	0.4956	-0.522
Mof_O 	O 	0.934	0.2869	0.5415	-0.232
Mof_O 	O 	0.9081	0.2476	0.4361	-0.368
Mof_O 	O 	0.0946	0.944	0.4966	-0.525
Mof_O 	O 	0.0651	0.2601	0.4086	-0.564
Mof_O 	O 	0.2385	0.2013	0.4182	-0.515
Mof_O 	O 	0.1568	0.3146	0.4903	-0.484
Mof_O 	O 	0.0612	0.4669	0.4669	-0.172
Mof_O 	O 	0.2253	0.2772	0.1713	-0.527
Mof_O 	O 	0.2687	0.5142	0.15	-0.515
Mof_O 	O 	0.276	0.5842	0.2612	-0.623
Mof_O 	O 	0.3548	0.5893	0.3562	-0.333
Mof_O 	O 	0.2219	0.0729	0.524	-0.485
Mof_H 	H 	0.1873	0.9981	0.5137	0.208
Mof_H 	H 	0.2331	0.2515	0.2816	0.281
Mof_H 	H 	0.8868	0.1877	0.409	0.231
Mof_V 	V 	0.75	0.25	-0	1.772
Mof_V 	V 	0.25	0.25	0.5	1.798
Mof_V 	V 	0.25	0.75	-0	1.771
Mof_V 	V 	0.75	0.75	0.5	1.798
_end
