data_functionalizedCrystal
_audit_creation_method	'EQeq! by Chris Wilmer'
_symmetry_space_group_name_H-M	'P1'
_symmetry_Int_Tables_number	1
_symmetry_cell_setting	triclinic
loop_
_symmetry_equiv_pos_as_xyz
  x,y,z
_cell_length_a	23.1092
_cell_length_b	18.8031
_cell_length_c	29.8062
_cell_angle_alpha	90
_cell_angle_beta	105.325
_cell_angle_gamma	90
loop_
_atom_site_label
_atom_site_type_symbol
_atom_site_fract_x
_atom_site_fract_y
_atom_site_fract_z
_atom_site_charge
Mof_C 	C 	0.3113	0.6323	0.0147	0.3
Mof_C 	C 	0.3448	0.567	0.0165	-0.049
Mof_C 	C 	0.4014	0.5643	0.0115	-0.052
Mof_H 	H 	0.4185	0.608	0.0079	0.078
Mof_C 	C 	0.2945	0.7728	0.0946	0.304
Mof_O 	O 	0.5844	0.9245	0.24753	-0.335
Mof_O 	O 	0.4448	0.9309	0.2695	-0.406
Mof_C 	C 	0.1036	0.9436	0.0026	-0.046
Mof_H 	H 	0.0883	0.8983	0.0045	0.078
Mof_C 	C 	0.7213	0.7755	0.4216	0.333
Mof_C 	C 	0.6992	0.7837	0.3724	-0.054
Mof_C 	C 	0.7325	0.7504	0.3437	-0.065
Mof_H 	H 	0.7637	0.7192	0.3562	0.085
Mof_C 	C 	0.716	0.7669	0.2957	0.095
Mof_C 	C 	0.6728	0.8226	0.2791	-0.059
Mof_H 	H 	0.6657	0.8378	0.2485	0.085
Mof_C 	C 	0.6412	0.8545	0.308	-0.052
Mof_C 	C 	0.6543	0.8339	0.3563	0.001
Mof_H 	H 	0.6333	0.8535	0.376	0.067
Mof_C 	C 	0.5927	0.902	0.2909	0.322
Mof_C 	C 	0.1979	0.8764	0.9997	0.284
Mof_C 	C 	0.1628	0.9446	0.0001	0.074
Mof_C 	C 	0.4339	0.9131	0.2297	0.34
Mof_C 	C 	0.3849	0.8577	0.2099	-0.013
Mof_C 	C 	0.3676	0.8371	0.164	-0.035
Mof_H 	H 	0.3925	0.848	0.145	0.081
Mof_C 	C 	0.3158	0.8015	0.1452	0.003
Mof_C 	C 	0.2827	0.7756	0.1758	-0.116
Mof_H 	H 	0.2486	0.7481	0.1642	0.102
Mof_C 	C 	0.3003	0.7908	0.2209	0.131
Mof_C 	C 	0.35	0.8335	0.2392	-0.099
Mof_H 	H 	0.3603	0.846	0.2705	0.096
Mof_H 	H 	0.41124	0.86973	0.99704	0.266
Mof_H 	H 	0.87062	0.6596	0.51797	0.171
Mof_Cu	Cu	0.30287	0.78934	0.00228	0.916
Mof_Cu	Cu	0.70835	0.77908	0.51577	0.898
Mof_N 	N 	0.7555	0.7403	0.27	-0.082
Mof_N 	N 	0.2712	0.7682	0.256	-0.084
Mof_O 	O 	0.7663	0.7306	0.43534	-0.36
Mof_O 	O 	0.6879	0.7898	0.4463	-0.394
Mof_O 	O 	0.3371	0.6913	0.0085	-0.37
Mof_O 	O 	0.2579	0.635	0.02288	-0.379
Mof_O 	O 	0.3262	0.8097	0.06887	-0.365
Mof_O 	O 	0.2456	0.7488	0.0806	-0.405
Mof_O 	O 	0.2515	0.8758	0.99879	-0.35
Mof_O 	O 	0.1697	0.8178	0.0072	-0.356
Mof_O 	O 	0.3791	0.8444	0.9905	-0.551
Mof_O 	O 	0.5629	0.9235	0.31705	-0.366
Mof_O 	O 	0.4634	0.929	0.1994	-0.335
Mof_C 	C 	0.8113	0.1323	0.5147	0.294
Mof_C 	C 	0.8448	0.067	0.5165	-0.047
Mof_C 	C 	0.9014	0.0643	0.5115	-0.055
Mof_H 	H 	0.9185	0.108	0.5079	0.073
Mof_C 	C 	0.7945	0.2728	0.5946	0.305
Mof_O 	O 	0.0844	0.4245	0.74753	-0.363
Mof_O 	O 	0.9448	0.4309	0.7695	-0.434
Mof_C 	C 	0.6036	0.4436	0.5026	-0.091
Mof_H 	H 	0.5883	0.3983	0.5045	0.086
Mof_C 	C 	0.2213	0.2755	0.9216	0.333
Mof_C 	C 	0.1992	0.2837	0.8724	-0.062
Mof_C 	C 	0.2325	0.2504	0.8437	-0.063
Mof_H 	H 	0.2637	0.2192	0.8562	0.08
Mof_C 	C 	0.216	0.2669	0.7957	0.086
Mof_C 	C 	0.1728	0.3226	0.7791	-0.055
Mof_H 	H 	0.1657	0.3378	0.7485	0.077
Mof_C 	C 	0.1412	0.3545	0.808	-0.065
Mof_C 	C 	0.1543	0.3339	0.8563	0.005
Mof_H 	H 	0.1333	0.3535	0.876	0.06
Mof_C 	C 	0.0927	0.402	0.7909	0.328
Mof_C 	C 	0.6979	0.3764	0.4997	0.299
Mof_C 	C 	0.6628	0.4446	0.5001	-0.004
Mof_C 	C 	0.9339	0.4131	0.7297	0.345
Mof_C 	C 	0.8849	0.3577	0.7099	-0.027
Mof_C 	C 	0.8676	0.3371	0.664	-0.03
Mof_H 	H 	0.8925	0.348	0.645	0.072
Mof_C 	C 	0.8158	0.3015	0.6452	-0.008
Mof_C 	C 	0.7827	0.2756	0.6758	-0.112
Mof_H 	H 	0.7486	0.2481	0.6642	0.095
Mof_C 	C 	0.8003	0.2908	0.7209	0.12
Mof_C 	C 	0.85	0.3335	0.7392	-0.095
Mof_H 	H 	0.8603	0.346	0.7705	0.088
Mof_H 	H 	0.91124	0.36973	0.49704	0.256
Mof_H 	H 	0.37062	0.1596	0.01797	0.17
Mof_Cu	Cu	0.80287	0.28934	0.50228	0.915
Mof_Cu	Cu	0.20835	0.27908	0.01577	0.896
Mof_N 	N 	0.2555	0.2403	0.77	-0.085
Mof_N 	N 	0.7712	0.2682	0.756	-0.087
Mof_O 	O 	0.2663	0.2306	0.93534	-0.365
Mof_O 	O 	0.1879	0.2898	0.9463	-0.4
Mof_O 	O 	0.8371	0.1913	0.5085	-0.373
Mof_O 	O 	0.7579	0.135	0.52288	-0.385
Mof_O 	O 	0.8262	0.3097	0.56887	-0.371
Mof_O 	O 	0.7456	0.2488	0.5806	-0.41
Mof_O 	O 	0.7515	0.3758	0.49879	-0.369
Mof_O 	O 	0.6697	0.3178	0.5072	-0.365
Mof_O 	O 	0.8791	0.3444	0.4905	-0.552
Mof_O 	O 	0.0629	0.4235	0.81705	-0.39
Mof_O 	O 	0.9634	0.429	0.6994	-0.364
Mof_C 	C 	0.6887	0.6323	0.9853	0.299
Mof_C 	C 	0.6552	0.567	0.9835	-0.051
Mof_C 	C 	0.5986	0.5643	0.9885	-0.052
Mof_H 	H 	0.5815	0.608	0.9921	0.076
Mof_C 	C 	0.7055	0.7728	0.9054	0.303
Mof_O 	O 	0.4156	0.9245	0.75247	-0.336
Mof_O 	O 	0.5552	0.9309	0.7305	-0.406
Mof_C 	C 	0.8964	0.9436	0.9974	-0.034
Mof_H 	H 	0.9117	0.8983	0.9955	0.072
Mof_C 	C 	0.2787	0.7755	0.5784	0.333
Mof_C 	C 	0.3008	0.7837	0.6276	-0.053
Mof_C 	C 	0.2675	0.7504	0.6563	-0.065
Mof_H 	H 	0.2363	0.7192	0.6438	0.085
Mof_C 	C 	0.284	0.7669	0.7043	0.095
Mof_C 	C 	0.3272	0.8226	0.7209	-0.059
Mof_H 	H 	0.3343	0.8378	0.7515	0.085
Mof_C 	C 	0.3588	0.8545	0.692	-0.052
Mof_C 	C 	0.3457	0.8339	0.6437	0.001
Mof_H 	H 	0.3667	0.8535	0.624	0.067
Mof_C 	C 	0.4073	0.902	0.7091	0.322
Mof_C 	C 	0.8021	0.8764	0.0003	0.293
Mof_C 	C 	0.8372	0.9446	0.9999	0.057
Mof_C 	C 	0.5661	0.9131	0.7703	0.34
Mof_C 	C 	0.6151	0.8577	0.7901	-0.013
Mof_C 	C 	0.6324	0.8371	0.836	-0.035
Mof_H 	H 	0.6075	0.848	0.855	0.08
Mof_C 	C 	0.6842	0.8015	0.8548	0.003
Mof_C 	C 	0.7173	0.7756	0.8242	-0.116
Mof_H 	H 	0.7514	0.7481	0.8358	0.101
Mof_C 	C 	0.6997	0.7908	0.7791	0.13
Mof_C 	C 	0.65	0.8335	0.7608	-0.099
Mof_H 	H 	0.6397	0.846	0.7295	0.096
Mof_H 	H 	0.58876	0.86973	0.00296	0.266
Mof_H 	H 	0.12938	0.6596	0.48203	0.172
Mof_Cu	Cu	0.69713	0.78934	0.99772	0.915
Mof_Cu	Cu	0.29165	0.77908	0.48423	0.898
Mof_N 	N 	0.2445	0.7403	0.73	-0.082
Mof_N 	N 	0.7288	0.7682	0.744	-0.084
Mof_O 	O 	0.2337	0.7306	0.56466	-0.36
Mof_O 	O 	0.3121	0.7898	0.5537	-0.394
Mof_O 	O 	0.6629	0.6913	0.9915	-0.371
Mof_O 	O 	0.7421	0.635	0.97712	-0.38
Mof_O 	O 	0.6738	0.8097	0.93113	-0.365
Mof_O 	O 	0.7544	0.7488	0.9194	-0.405
Mof_O 	O 	0.7485	0.8758	0.00121	-0.352
Mof_O 	O 	0.8303	0.8178	0.9928	-0.36
Mof_O 	O 	0.6209	0.8444	0.0095	-0.547
Mof_O 	O 	0.4371	0.9235	0.68295	-0.366
Mof_O 	O 	0.5366	0.929	0.8006	-0.335
Mof_C 	C 	0.1887	0.1323	0.4853	0.294
Mof_C 	C 	0.1552	0.067	0.4835	-0.046
Mof_C 	C 	0.0986	0.0643	0.4885	-0.056
Mof_H 	H 	0.0815	0.108	0.4921	0.075
Mof_C 	C 	0.2055	0.2728	0.4054	0.305
Mof_O 	O 	0.9156	0.4245	0.25247	-0.364
Mof_O 	O 	0.0552	0.4309	0.2305	-0.431
Mof_C 	C 	0.3964	0.4436	0.4974	-0.091
Mof_H 	H 	0.4117	0.3983	0.4955	0.086
Mof_C 	C 	0.7787	0.2755	0.0784	0.333
Mof_C 	C 	0.8008	0.2837	0.1276	-0.062
Mof_C 	C 	0.7675	0.2504	0.1563	-0.063
Mof_H 	H 	0.7363	0.2192	0.1438	0.08
Mof_C 	C 	0.784	0.2669	0.2043	0.086
Mof_C 	C 	0.8272	0.3226	0.2209	-0.055
Mof_H 	H 	0.8343	0.3378	0.2515	0.077
Mof_C 	C 	0.8588	0.3545	0.192	-0.066
Mof_C 	C 	0.8457	0.3339	0.1437	0.005
Mof_H 	H 	0.8667	0.3535	0.124	0.059
Mof_C 	C 	0.9073	0.402	0.2091	0.328
Mof_C 	C 	0.3021	0.3764	0.5003	0.299
Mof_C 	C 	0.3372	0.4446	0.4999	-0.004
Mof_C 	C 	0.0661	0.4131	0.2703	0.344
Mof_C 	C 	0.1151	0.3577	0.2901	-0.025
Mof_C 	C 	0.1324	0.3371	0.336	-0.031
Mof_H 	H 	0.1075	0.348	0.355	0.073
Mof_C 	C 	0.1842	0.3015	0.3548	-0.007
Mof_C 	C 	0.2173	0.2756	0.3242	-0.112
Mof_H 	H 	0.2514	0.2481	0.3358	0.096
Mof_C 	C 	0.1997	0.2908	0.2791	0.121
Mof_C 	C 	0.15	0.3335	0.2608	-0.096
Mof_H 	H 	0.1397	0.346	0.2295	0.089
Mof_H 	H 	0.08876	0.36973	0.50296	0.257
Mof_H 	H 	0.62938	0.1596	0.98203	0.167
Mof_Cu	Cu	0.19713	0.28934	0.49772	0.915
Mof_Cu	Cu	0.79165	0.27908	0.98423	0.895
Mof_N 	N 	0.7445	0.2403	0.23	-0.085
Mof_N 	N 	0.2288	0.2682	0.244	-0.087
Mof_O 	O 	0.7337	0.2306	0.06466	-0.364
Mof_O 	O 	0.8121	0.2898	0.0537	-0.399
Mof_O 	O 	0.1629	0.1913	0.4915	-0.372
Mof_O 	O 	0.2421	0.135	0.47712	-0.385
Mof_O 	O 	0.1738	0.3097	0.43113	-0.37
Mof_O 	O 	0.2544	0.2488	0.4194	-0.41
Mof_O 	O 	0.2485	0.3758	0.50121	-0.368
Mof_O 	O 	0.3303	0.3178	0.4928	-0.365
Mof_O 	O 	0.1209	0.3444	0.5095	-0.552
Mof_O 	O 	0.9371	0.4235	0.18295	-0.391
Mof_O 	O 	0.0366	0.429	0.3006	-0.361
Mof_C 	C 	0.6887	0.3677	0.9853	0.299
Mof_C 	C 	0.6552	0.433	0.9835	-0.052
Mof_C 	C 	0.5986	0.4357	0.9885	-0.052
Mof_H 	H 	0.5815	0.392	0.9921	0.075
Mof_C 	C 	0.7055	0.2272	0.9054	0.306
Mof_O 	O 	0.4156	0.0755	0.75247	-0.372
Mof_O 	O 	0.5552	0.0691	0.7305	-0.444
Mof_C 	C 	0.8964	0.0564	0.9974	-0.089
Mof_H 	H 	0.9117	0.1017	0.9955	0.086
Mof_C 	C 	0.2787	0.2245	0.5784	0.332
Mof_C 	C 	0.3008	0.2163	0.6276	-0.062
Mof_C 	C 	0.2675	0.2496	0.6563	-0.063
Mof_H 	H 	0.2363	0.2808	0.6438	0.082
Mof_C 	C 	0.284	0.2331	0.7043	0.087
Mof_C 	C 	0.3272	0.1774	0.7209	-0.054
Mof_H 	H 	0.3343	0.1622	0.7515	0.074
Mof_C 	C 	0.3588	0.1455	0.692	-0.071
Mof_C 	C 	0.3457	0.1661	0.6437	0.005
Mof_H 	H 	0.3667	0.1465	0.624	0.055
Mof_C 	C 	0.4073	0.098	0.7091	0.328
Mof_C 	C 	0.8021	0.1236	0.0003	0.296
Mof_C 	C 	0.8372	0.0554	0.9999	0.006
Mof_C 	C 	0.5661	0.0869	0.7703	0.342
Mof_C 	C 	0.6151	0.1423	0.7901	-0.03
Mof_C 	C 	0.6324	0.1629	0.836	-0.03
Mof_H 	H 	0.6075	0.152	0.855	0.07
Mof_C 	C 	0.6842	0.1985	0.8548	-0.011
Mof_C 	C 	0.7173	0.2244	0.8242	-0.111
Mof_H 	H 	0.7514	0.2519	0.8358	0.096
Mof_C 	C 	0.6997	0.2092	0.7791	0.118
Mof_C 	C 	0.65	0.1665	0.7608	-0.095
Mof_H 	H 	0.6397	0.154	0.7295	0.084
Mof_H 	H 	0.58876	0.13027	0.00296	0.249
Mof_H 	H 	0.12938	0.3404	0.48203	0.171
Mof_Cu	Cu	0.69713	0.21066	0.99772	0.914
Mof_Cu	Cu	0.29165	0.22092	0.48423	0.894
Mof_N 	N 	0.2445	0.2597	0.73	-0.084
Mof_N 	N 	0.7288	0.2318	0.744	-0.088
Mof_O 	O 	0.2337	0.2694	0.56466	-0.363
Mof_O 	O 	0.3121	0.2102	0.5537	-0.402
Mof_O 	O 	0.6629	0.3087	0.9915	-0.372
Mof_O 	O 	0.7421	0.365	0.97712	-0.38
Mof_O 	O 	0.6738	0.1903	0.93113	-0.373
Mof_O 	O 	0.7544	0.2512	0.9194	-0.409
Mof_O 	O 	0.7485	0.1242	0.00121	-0.373
Mof_O 	O 	0.8303	0.1822	0.9928	-0.366
Mof_O 	O 	0.6209	0.1556	0.0095	-0.551
Mof_O 	O 	0.4371	0.0765	0.68295	-0.402
Mof_O 	O 	0.5366	0.071	0.8006	-0.372
Mof_C 	C 	0.1887	0.8677	0.4853	0.293
Mof_C 	C 	0.1552	0.933	0.4835	-0.007
Mof_C 	C 	0.0986	0.9357	0.4885	-0.001
Mof_H 	H 	0.0815	0.892	0.4921	0.07
Mof_C 	C 	0.2055	0.7272	0.4054	0.306
Mof_O 	O 	0.9156	0.5755	0.25247	-0.362
Mof_O 	O 	0.0552	0.5691	0.2305	-0.429
Mof_C 	C 	0.3964	0.5564	0.4974	-0.092
Mof_H 	H 	0.4117	0.6017	0.4955	0.089
Mof_C 	C 	0.7787	0.7245	0.0784	0.331
Mof_C 	C 	0.8008	0.7163	0.1276	-0.054
Mof_C 	C 	0.7675	0.7496	0.1563	-0.065
Mof_H 	H 	0.7363	0.7808	0.1438	0.089
Mof_C 	C 	0.784	0.7331	0.2043	0.095
Mof_C 	C 	0.8272	0.6774	0.2209	-0.056
Mof_H 	H 	0.8343	0.6622	0.2515	0.08
Mof_C 	C 	0.8588	0.6455	0.192	-0.061
Mof_C 	C 	0.8457	0.6661	0.1437	0.003
Mof_H 	H 	0.8667	0.6465	0.124	0.062
Mof_C 	C 	0.9073	0.598	0.2091	0.328
Mof_C 	C 	0.3021	0.6236	0.5003	0.298
Mof_C 	C 	0.3372	0.5554	0.4999	-0.003
Mof_C 	C 	0.0661	0.5869	0.2703	0.344
Mof_C 	C 	0.1151	0.6423	0.2901	-0.02
Mof_C 	C 	0.1324	0.6629	0.336	-0.032
Mof_H 	H 	0.1075	0.652	0.355	0.076
Mof_C 	C 	0.1842	0.6985	0.3548	-0.002
Mof_C 	C 	0.2173	0.7244	0.3242	-0.114
Mof_H 	H 	0.2514	0.7519	0.3358	0.103
Mof_C 	C 	0.1997	0.7092	0.2791	0.128
Mof_C 	C 	0.15	0.6665	0.2608	-0.097
Mof_H 	H 	0.1397	0.654	0.2295	0.091
Mof_H 	H 	0.08876	0.63027	0.50296	0.258
Mof_H 	H 	0.62938	0.8404	0.98203	0.174
Mof_Cu	Cu	0.19713	0.71066	0.49772	0.915
Mof_Cu	Cu	0.79165	0.72092	0.98423	0.896
Mof_N 	N 	0.7445	0.7597	0.23	-0.081
Mof_N 	N 	0.2288	0.7318	0.244	-0.084
Mof_O 	O 	0.7337	0.7694	0.06466	-0.357
Mof_O 	O 	0.8121	0.7102	0.0537	-0.396
Mof_O 	O 	0.1629	0.8087	0.4915	-0.366
Mof_O 	O 	0.2421	0.865	0.47712	-0.364
Mof_O 	O 	0.1738	0.6903	0.43113	-0.369
Mof_O 	O 	0.2544	0.7512	0.4194	-0.404
Mof_O 	O 	0.2485	0.6242	0.50121	-0.368
Mof_O 	O 	0.3303	0.6822	0.4928	-0.361
Mof_O 	O 	0.1209	0.6556	0.5095	-0.55
Mof_O 	O 	0.9371	0.5765	0.18295	-0.39
Mof_O 	O 	0.0366	0.571	0.3006	-0.359
Mof_C 	C 	0.3113	0.3677	0.0147	0.299
Mof_C 	C 	0.3448	0.433	0.0165	-0.051
Mof_C 	C 	0.4014	0.4357	0.0115	-0.052
Mof_H 	H 	0.4185	0.392	0.0079	0.076
Mof_C 	C 	0.2945	0.2272	0.0946	0.306
Mof_O 	O 	0.5844	0.0755	0.24753	-0.372
Mof_O 	O 	0.4448	0.0691	0.2695	-0.444
Mof_C 	C 	0.1036	0.0564	0.0026	-0.101
Mof_H 	H 	0.0883	0.1017	0.0045	0.092
Mof_C 	C 	0.7213	0.2245	0.4216	0.332
Mof_C 	C 	0.6992	0.2163	0.3724	-0.062
Mof_C 	C 	0.7325	0.2496	0.3437	-0.063
Mof_H 	H 	0.7637	0.2808	0.3562	0.082
Mof_C 	C 	0.716	0.2331	0.2957	0.087
Mof_C 	C 	0.6728	0.1774	0.2791	-0.054
Mof_H 	H 	0.6657	0.1622	0.2485	0.074
Mof_C 	C 	0.6412	0.1455	0.308	-0.071
Mof_C 	C 	0.6543	0.1661	0.3563	0.005
Mof_H 	H 	0.6333	0.1465	0.376	0.055
Mof_C 	C 	0.5927	0.098	0.2909	0.328
Mof_C 	C 	0.1979	0.1236	0.9997	0.287
Mof_C 	C 	0.1628	0.0554	0.0001	0.024
Mof_C 	C 	0.4339	0.0869	0.2297	0.342
Mof_C 	C 	0.3849	0.1423	0.2099	-0.03
Mof_C 	C 	0.3676	0.1629	0.164	-0.03
Mof_H 	H 	0.3925	0.152	0.145	0.07
Mof_C 	C 	0.3158	0.1985	0.1452	-0.01
Mof_C 	C 	0.2827	0.2244	0.1758	-0.111
Mof_H 	H 	0.2486	0.2519	0.1642	0.097
Mof_C 	C 	0.3003	0.2092	0.2209	0.119
Mof_C 	C 	0.35	0.1665	0.2392	-0.095
Mof_H 	H 	0.3603	0.154	0.2705	0.084
Mof_H 	H 	0.41124	0.13027	0.99704	0.25
Mof_H 	H 	0.87062	0.3404	0.51797	0.171
Mof_Cu	Cu	0.30287	0.21066	0.00228	0.915
Mof_Cu	Cu	0.70835	0.22092	0.51577	0.894
Mof_N 	N 	0.7555	0.2597	0.27	-0.084
Mof_N 	N 	0.2712	0.2318	0.256	-0.088
Mof_O 	O 	0.7663	0.2694	0.43534	-0.363
Mof_O 	O 	0.6879	0.2102	0.4463	-0.402
Mof_O 	O 	0.3371	0.3087	0.0085	-0.371
Mof_O 	O 	0.2579	0.365	0.02288	-0.379
Mof_O 	O 	0.3262	0.1903	0.06887	-0.373
Mof_O 	O 	0.2456	0.2512	0.0806	-0.409
Mof_O 	O 	0.2515	0.1242	0.99879	-0.371
Mof_O 	O 	0.1697	0.1822	0.0072	-0.362
Mof_O 	O 	0.3791	0.1556	0.9905	-0.555
Mof_O 	O 	0.5629	0.0765	0.31705	-0.402
Mof_O 	O 	0.4634	0.071	0.1994	-0.372
Mof_C 	C 	0.8113	0.8677	0.5147	0.293
Mof_C 	C 	0.8448	0.933	0.5165	-0.008
Mof_C 	C 	0.9014	0.9357	0.5115	0
Mof_H 	H 	0.9185	0.892	0.5079	0.068
Mof_C 	C 	0.7945	0.7272	0.5946	0.306
Mof_O 	O 	0.0844	0.5755	0.74753	-0.361
Mof_O 	O 	0.9448	0.5691	0.7695	-0.432
Mof_C 	C 	0.6036	0.5564	0.5026	-0.092
Mof_H 	H 	0.5883	0.6017	0.5045	0.089
Mof_C 	C 	0.2213	0.7245	0.9216	0.331
Mof_C 	C 	0.1992	0.7163	0.8724	-0.054
Mof_C 	C 	0.2325	0.7496	0.8437	-0.065
Mof_H 	H 	0.2637	0.7808	0.8562	0.089
Mof_C 	C 	0.216	0.7331	0.7957	0.095
Mof_C 	C 	0.1728	0.6774	0.7791	-0.056
Mof_H 	H 	0.1657	0.6622	0.7485	0.08
Mof_C 	C 	0.1412	0.6455	0.808	-0.061
Mof_C 	C 	0.1543	0.6661	0.8563	0.003
Mof_H 	H 	0.1333	0.6465	0.876	0.062
Mof_C 	C 	0.0927	0.598	0.7909	0.328
Mof_C 	C 	0.6979	0.6236	0.4997	0.298
Mof_C 	C 	0.6628	0.5554	0.5001	-0.003
Mof_C 	C 	0.9339	0.5869	0.7297	0.344
Mof_C 	C 	0.8849	0.6423	0.7099	-0.022
Mof_C 	C 	0.8676	0.6629	0.664	-0.032
Mof_H 	H 	0.8925	0.652	0.645	0.075
Mof_C 	C 	0.8158	0.6985	0.6452	-0.002
Mof_C 	C 	0.7827	0.7244	0.6758	-0.113
Mof_H 	H 	0.7486	0.7519	0.6642	0.102
Mof_C 	C 	0.8003	0.7092	0.7209	0.127
Mof_C 	C 	0.85	0.6665	0.7392	-0.096
Mof_H 	H 	0.8603	0.654	0.7705	0.091
Mof_H 	H 	0.91124	0.63027	0.49704	0.257
Mof_H 	H 	0.37062	0.8404	0.01797	0.176
Mof_Cu	Cu	0.80287	0.71066	0.50228	0.915
Mof_Cu	Cu	0.20835	0.72092	0.01577	0.896
Mof_N 	N 	0.2555	0.7597	0.77	-0.081
Mof_N 	N 	0.7712	0.7318	0.756	-0.085
Mof_O 	O 	0.2663	0.7694	0.93534	-0.358
Mof_O 	O 	0.1879	0.7102	0.9463	-0.396
Mof_O 	O 	0.8371	0.8087	0.5085	-0.366
Mof_O 	O 	0.7579	0.865	0.52288	-0.364
Mof_O 	O 	0.8262	0.6903	0.56887	-0.369
Mof_O 	O 	0.7456	0.7512	0.5806	-0.404
Mof_O 	O 	0.7515	0.6242	0.49879	-0.368
Mof_O 	O 	0.6697	0.6822	0.5072	-0.361
Mof_O 	O 	0.8791	0.6556	0.4905	-0.55
Mof_O 	O 	0.0629	0.5765	0.81705	-0.388
Mof_O 	O 	0.9634	0.571	0.6994	-0.362
Mof_C 	C 	0.4409	0.5	0.0108	0.073
Mof_C 	C 	0.3119	0.5	0.0194	-0.012
Mof_H 	H 	0.273	0.5	0.0228	0.062
Mof_C 	C 	0.9409	8.08376e-33	0.5108	0.019
Mof_C 	C 	0.8119	8.08376e-33	0.5194	-0.075
Mof_H 	H 	0.773	0	0.5228	0.066
Mof_C 	C 	0.5591	0.5	0.9892	0.071
Mof_C 	C 	0.6881	0.5	0.9806	-0.012
Mof_H 	H 	0.727	0.5	0.9772	0.062
Mof_C 	C 	0.0591	0	0.4892	0.024
Mof_C 	C 	0.1881	8.08376e-33	0.4806	-0.075
Mof_H 	H 	0.227	0	0.4772	0.066
Mof_N 	N 	0.5	0.5	-0	-0.115
Mof_N 	N 	3.05704e-33	0	0.5	-0.114
Mof_C 	C 	0.0622	0	0.0027	0.043
Mof_C 	C 	0.1961	1.61675e-32	0.9991	-0.171
Mof_H 	H 	0.2359	0	0.9979	0.11
Mof_H 	H 	0.57543	4.04188e-33	0.18019	-0.361
Mof_H 	H 	0.53752	0	0.15943	-1.385
Mof_Cu	Cu	0.52714	0	0.21719	0.959
Mof_Cu	Cu	0.50048	8.08376e-33	0.29883	0.888
Mof_O 	O 	0.5533	-4.04188e-33	0.1533	1.671
Mof_C 	C 	0.5622	0.5	0.5027	0.109
Mof_C 	C 	0.6961	0.5	0.4991	-0.06
Mof_H 	H 	0.7359	0.5	0.4979	0.089
Mof_H 	H 	0.07543	0.5	0.68019	-0.345
Mof_H 	H 	0.03752	0.5	0.65943	-1.358
Mof_Cu	Cu	0.02714	0.5	0.71719	0.978
Mof_Cu	Cu	0.00048	0.5	0.79883	0.913
Mof_O 	O 	0.0533	0.5	0.6533	1.654
Mof_C 	C 	0.9378	0	0.9973	0.031
Mof_C 	C 	0.8039	0	0.0009	-0.147
Mof_H 	H 	0.7641	0	0.0021	0.102
Mof_H 	H 	0.42457	1.61675e-32	0.81981	-0.361
Mof_H 	H 	0.46248	0	0.84057	-1.386
Mof_Cu	Cu	0.47286	1.61675e-32	0.78281	0.959
Mof_Cu	Cu	0.49952	0	0.70117	0.888
Mof_O 	O 	0.4467	0	0.8467	1.672
Mof_C 	C 	0.4378	0.5	0.4973	0.109
Mof_C 	C 	0.3039	0.5	0.5009	-0.06
Mof_H 	H 	0.2641	0.5	0.5021	0.089
Mof_H 	H 	0.92457	0.5	0.31981	-0.345
Mof_H 	H 	0.96248	0.5	0.34057	-1.36
Mof_Cu	Cu	0.97286	0.5	0.28281	0.976
Mof_Cu	Cu	0.99952	0.5	0.20117	0.91
Mof_O 	O 	0.9467	0.5	0.3467	1.653
Mof_N 	N 	-1.61675e-32	0.984	-0	0.102
Mof_N 	N 	0.5	0.484	0.5	-0.073
Mof_N 	N 	-0	0.016	-0	-0.204
Mof_N 	N 	0.5	0.516	0.5	-0.071
_end
