data_functionalizedCrystal
_audit_creation_method	'EQeq! by Chris Wilmer'
_symmetry_space_group_name_H-M	'P1'
_symmetry_Int_Tables_number	1
_symmetry_cell_setting	triclinic
loop_
_symmetry_equiv_pos_as_xyz
  x,y,z
_cell_length_a	12.0317
_cell_length_b	13.8465
_cell_length_c	15.5341
_cell_angle_alpha	110.362
_cell_angle_beta	109.511
_cell_angle_gamma	92.299
loop_
_atom_site_label
_atom_site_type_symbol
_atom_site_fract_x
_atom_site_fract_y
_atom_site_fract_z
_atom_site_charge
Mof_Zn	Zn	0.52586	0.30812	0.35129	1.204
Mof_O 	O 	0.3064	0.6426	0.6179	-0.494
Mof_C 	C 	0.3715	0.7163	0.0052	-0.655
Mof_Zn	Zn	0.43872	0.56061	0.42985	1.187
Mof_C 	C 	0.3012	0.6535	0.0432	-0.723
Mof_B 	B 	0.2356	0.638	0.9226	1.641
Mof_H 	H 	0.2237	0.5655	0.8566	-0.475
Mof_B 	B 	0.2743	0.7587	0.9258	-0.442
Mof_H 	H 	0.2918	0.7677	0.8624	0.077
Mof_B 	B 	0.361	0.8441	0.0402	0.534
Mof_H 	H 	0.4315	0.9092	0.0547	-0.193
Mof_B 	B 	0.3815	0.7766	0.1214	0.963
Mof_H 	H 	0.4645	0.7973	0.1893	-0.296
Mof_B 	B 	0.1535	0.6421	0.9914	-0.224
Mof_H 	H 	0.0885	0.572	0.9753	0.023
Mof_O 	O 	0.4484	0.407	0.4228	-0.696
Mof_B 	B 	0.1277	0.716	0.916	-0.807
Mof_H 	H 	0.0433	0.6988	0.8501	0.176
Mof_B 	B 	0.2047	0.8385	0.9826	0.809
Mof_H 	H 	0.1714	0.903	0.9587	-0.282
Mof_B 	B 	0.2679	0.8576	0.1119	-0.968
Mof_H 	H 	0.2733	0.9326	0.1733	0.215
Mof_B 	B 	0.2393	0.7287	0.1161	0.526
Mof_H 	H 	0.2296	0.7184	0.1817	-0.191
Mof_B 	B 	0.1267	0.7687	0.0288	0.646
Mof_H 	H 	0.0405	0.7858	0.0386	-0.233
Mof_C 	C 	0.4889	0.6822	0.9962	0.352
Mof_H 	H 	0.4709	0.6055	0.955	-0.069
Mof_O 	O 	0.5762	0.6986	0.0904	-0.446
Mof_H 	H 	0.6441	0.7199	0.0932	0.237
Mof_C 	C 	0.5391	0.7383	0.9455	-0.189
Mof_C 	C 	0.629	0.8241	0.9962	0.095
Mof_H 	H 	0.6657	0.8461	0.066	-0.015
Mof_C 	C 	0.6675	0.8785	0.9521	-0.171
Mof_H 	H 	0.7221	0.9429	0.9897	0.071
Mof_C 	C 	0.6247	0.8372	0.8493	0.089
Mof_H 	H 	0.6507	0.8734	0.8156	-0.035
Mof_N 	N 	0.5481	0.7481	0.7984	-0.287
Mof_C 	C 	0.5045	0.7013	0.8449	0.098
Mof_H 	H 	0.4464	0.6391	0.8063	-0.04
Mof_C 	C 	0.3467	0.5553	0.0558	0.388
Mof_H 	H 	0.4359	0.5743	0.0883	-0.067
Mof_O 	O 	0.321	0.4778	0.9597	-0.463
Mof_H 	H 	0.3725	0.4386	0.9629	0.267
Mof_C 	C 	0.3044	0.5135	0.1181	-0.197
Mof_C 	C 	0.2155	0.4312	0.0788	0.104
Mof_H 	H 	0.1753	0.4007	0.009	-0.005
Mof_C 	C 	0.1812	0.39	0.1352	-0.171
Mof_H 	H 	0.117	0.3325	0.1063	0.069
Mof_C 	C 	0.243	0.4349	0.2362	0.081
Mof_H 	H 	0.2206	0.4065	0.2768	-0.017
Mof_N 	N 	0.3319	0.5157	0.279	-0.269
Mof_C 	C 	0.3614	0.5543	0.221	0.1
Mof_H 	H 	0.4246	0.6127	0.251	-0.03
Mof_O 	O 	0.2764	0.5467	0.4601	-0.473
Mof_C 	C 	0.2423	0.576	0.5292	0.363
Mof_C 	C 	0.1164	0.5376	0.515	-0.085
Mof_C 	C 	0.0779	0.5729	0.594	-0.017
Mof_H 	H 	0.1298	0.6219	0.6569	0.038
Mof_C 	C 	0.0408	0.4664	0.4222	-0.02
Mof_H 	H 	0.0691	0.4441	0.3694	0.039
Mof_O 	O 	0.5155	0.1845	0.3846	-0.495
Mof_C 	C 	0.5254	0.1932	0.4699	0.386
Mof_O 	O 	0.5507	0.2783	0.5434	-0.482
Mof_C 	C 	0.5133	0.0939	0.4867	-0.095
Mof_C 	C 	0.5323	0.0948	0.5789	-0.013
Mof_H 	H 	0.5541	0.1598	0.6338	0.035
Mof_C 	C 	0.52	0.0022	0.5934	-0.017
Mof_H 	H 	0.5343	0.0041	0.658	0.032
Mof_Zn	Zn	0.47414	0.69188	0.64871	1.205
Mof_O 	O 	0.6936	0.3574	0.3821	-0.493
Mof_C 	C 	0.6285	0.2837	0.9948	-0.654
Mof_Zn	Zn	0.56128	0.43939	0.57015	1.188
Mof_C 	C 	0.6988	0.3465	0.9568	-0.723
Mof_B 	B 	0.7644	0.362	0.0774	1.641
Mof_H 	H 	0.7763	0.4345	0.1434	-0.475
Mof_B 	B 	0.7257	0.2413	0.0742	-0.442
Mof_H 	H 	0.7082	0.2323	0.1376	0.077
Mof_B 	B 	0.639	0.1559	0.9598	0.534
Mof_H 	H 	0.5685	0.0908	0.9453	-0.193
Mof_B 	B 	0.6185	0.2234	0.8786	0.963
Mof_H 	H 	0.5355	0.2027	0.8107	-0.296
Mof_B 	B 	0.8465	0.3579	0.0086	-0.224
Mof_H 	H 	0.9115	0.428	0.0247	0.023
Mof_O 	O 	0.5516	0.593	0.5772	-0.696
Mof_B 	B 	0.8723	0.284	0.084	-0.807
Mof_H 	H 	0.9567	0.3012	0.1499	0.176
Mof_B 	B 	0.7953	0.1615	0.0174	0.809
Mof_H 	H 	0.8286	0.097	0.0413	-0.282
Mof_B 	B 	0.7321	0.1424	0.8881	-0.968
Mof_H 	H 	0.7267	0.0674	0.8267	0.215
Mof_B 	B 	0.7607	0.2713	0.8839	0.526
Mof_H 	H 	0.7704	0.2816	0.8183	-0.191
Mof_B 	B 	0.8733	0.2313	0.9712	0.646
Mof_H 	H 	0.9595	0.2142	0.9614	-0.233
Mof_C 	C 	0.5111	0.3178	0.0038	0.352
Mof_H 	H 	0.5291	0.3945	0.045	-0.069
Mof_O 	O 	0.4238	0.3014	0.9096	-0.446
Mof_H 	H 	0.3559	0.2801	0.9068	0.237
Mof_C 	C 	0.4609	0.2617	0.0545	-0.189
Mof_C 	C 	0.371	0.1759	0.0038	0.095
Mof_H 	H 	0.3343	0.1539	0.934	-0.015
Mof_C 	C 	0.3325	0.1215	0.0479	-0.171
Mof_H 	H 	0.2779	0.0571	0.0103	0.071
Mof_C 	C 	0.3753	0.1628	0.1507	0.089
Mof_H 	H 	0.3493	0.1266	0.1844	-0.035
Mof_N 	N 	0.4519	0.2519	0.2016	-0.287
Mof_C 	C 	0.4955	0.2987	0.1551	0.098
Mof_H 	H 	0.5536	0.3609	0.1937	-0.04
Mof_C 	C 	0.6533	0.4447	0.9442	0.388
Mof_H 	H 	0.5641	0.4257	0.9117	-0.067
Mof_O 	O 	0.679	0.5222	0.0403	-0.463
Mof_H 	H 	0.6275	0.5614	0.0371	0.267
Mof_C 	C 	0.6956	0.4865	0.8819	-0.197
Mof_C 	C 	0.7845	0.5688	0.9212	0.104
Mof_H 	H 	0.8247	0.5993	0.991	-0.005
Mof_C 	C 	0.8188	0.61	0.8648	-0.171
Mof_H 	H 	0.883	0.6675	0.8937	0.069
Mof_C 	C 	0.757	0.5651	0.7638	0.081
Mof_H 	H 	0.7794	0.5935	0.7232	-0.017
Mof_N 	N 	0.6681	0.4843	0.721	-0.269
Mof_C 	C 	0.6386	0.4457	0.779	0.1
Mof_H 	H 	0.5754	0.3873	0.749	-0.03
Mof_O 	O 	0.7236	0.4533	0.5399	-0.473
Mof_C 	C 	0.7577	0.424	0.4708	0.363
Mof_C 	C 	0.8836	0.4624	0.485	-0.085
Mof_C 	C 	0.9221	0.4271	0.406	-0.017
Mof_H 	H 	0.8702	0.3781	0.3431	0.038
Mof_C 	C 	0.9592	0.5336	0.5778	-0.02
Mof_H 	H 	0.9309	0.5559	0.6306	0.039
Mof_O 	O 	0.4845	0.8155	0.6154	-0.495
Mof_C 	C 	0.4746	0.8068	0.5301	0.386
Mof_O 	O 	0.4493	0.7217	0.4566	-0.482
Mof_C 	C 	0.4867	0.9061	0.5133	-0.095
Mof_C 	C 	0.4677	0.9052	0.4211	-0.013
Mof_H 	H 	0.4459	0.8402	0.3662	0.035
Mof_C 	C 	0.48	0.9978	0.4066	-0.017
Mof_H 	H 	0.4657	0.9959	0.342	0.032
_end
