data_functionalizedCrystal
_audit_creation_method	'EQeq! by Chris Wilmer'
_symmetry_space_group_name_H-M	'P1'
_symmetry_Int_Tables_number	1
_symmetry_cell_setting	triclinic
loop_
_symmetry_equiv_pos_as_xyz
  x,y,z
_cell_length_a	22.8097
_cell_length_b	36.695
_cell_length_c	14.4183
_cell_angle_alpha	90
_cell_angle_beta	106.313
_cell_angle_gamma	90
loop_
_atom_site_label
_atom_site_type_symbol
_atom_site_fract_x
_atom_site_fract_y
_atom_site_fract_z
_atom_site_charge
Mof_Co	Co	0.8569	0.25883	0.03723	1.16
Mof_N 	N 	0.87644	0.20741	0.97266	-0.209
Mof_O 	O 	0.80542	0.27162	0.90603	-0.485
Mof_O 	O 	0.70689	0.26933	0.90876	-0.442
Mof_C 	C 	0.9229	0.1864	0.0333	0.055
Mof_C 	C 	0.8445	0.1929	0.8848	0.09
Mof_C 	C 	0.75071	0.27599	0.87189	0.478
Mof_H 	H 	0.9447	0.1962	0.0952	0.024
Mof_C 	C 	0.9373	0.1521	0.0064	-0.124
Mof_C 	C 	0.8595	0.1603	0.8534	-0.149
Mof_H 	H 	0.8124	0.2069	0.8422	0.032
Mof_C 	C 	0.72429	0.28462	0.7669	-0.262
Mof_H 	H 	0.9694	0.1382	0.0491	0.084
Mof_C 	C 	0.9083	0.1394	0.913	0.094
Mof_H 	H 	0.8377	0.1506	0.7915	0.139
Mof_C 	C 	0.76533	0.30051	0.7239	0.258
Mof_C 	C 	0.66253	0.28298	0.71729	0.264
Mof_H 	H 	0.8066	0.302	0.7573	-0.029
Mof_C 	C 	0.74433	0.31428	0.6302	-0.356
Mof_C 	C 	0.64183	0.2968	0.6237	-0.349
Mof_H 	H 	0.635	0.2726	0.7466	-0.034
Mof_H 	H 	0.7717	0.3249	0.6011	0.258
Mof_C 	C 	0.68267	0.31223	0.5802	0.432
Mof_H 	H 	0.6005	0.2956	0.5905	0.237
Mof_N 	N 	0.33454	0.80626	0.10307	-0.228
Mof_C 	C 	0.37969	0.82628	0.1661	0.074
Mof_C 	C 	0.27412	0.81772	0.0807	0.08
Mof_H 	H 	0.42	0.8183	0.1817	0.008
Mof_C 	C 	0.3652	0.8585	0.2068	-0.139
Mof_C 	C 	0.25958	0.84994	0.1201	-0.14
Mof_H 	H 	0.2435	0.8039	0.0395	0.002
Mof_C 	C 	0.30527	0.87024	0.18399	0.111
Mof_H 	H 	0.3958	0.872	0.249	0.091
Mof_H 	H 	0.2193	0.858	0.1038	0.093
Mof_O 	O 	0.43405	0.25307	0.16219	-0.401
Mof_C 	C 	0.48844	0.24119	0.1932	0.375
Mof_O 	O 	0.51235	0.21844	0.1503	-0.283
Mof_C 	C 	0.9302	0.1022	0.89	-0.046
Mof_C 	C 	0.9693	0.0831	0.9505	0.036
Mof_C 	C 	0.896	0.0884	0.799	0.005
Mof_C 	C 	0.9915	0.0486	0.9144	-0.146
Mof_C 	C 	0.9132	0.0538	0.771	-0.107
Mof_H 	H 	0.8615	0.1008	0.7575	0.095
Mof_H 	H 	0.0261	0.0362	0.9558	0.083
Mof_C 	C 	0.96114	0.036	0.8327	0.131
Mof_H 	H 	0.8913	0.0431	0.71	0.096
Mof_C 	C 	0.0743	0.979	0.7646	-0.065
Mof_C 	C 	0.0052	0.01912	0.6532	-0.073
Mof_H 	H 	0.0841	0.9648	0.8229	0.065
Mof_C 	C 	0.1133	0.97912	0.7059	-0.019
Mof_C 	C 	0.0432	0.01795	0.5932	-0.012
Mof_H 	H 	0.9675	0.0324	0.6338	0.086
Mof_H 	H 	0.1498	0.9646	0.7225	0.06
Mof_H 	H 	0.0316	0.0308	0.5328	0.059
Mof_C 	C 	0.29251	0.90463	0.2313	-0.037
Mof_C 	C 	0.3324	0.916	0.3173	0.031
Mof_C 	C 	0.23966	0.92431	0.1901	0.023
Mof_C 	C 	0.3195	0.9478	0.3619	-0.121
Mof_H 	H 	0.3676	0.9027	0.3454	0.037
Mof_H 	H 	0.2126	0.9163	0.1327	0.028
Mof_C 	C 	0.22707	0.95571	0.2337	-0.123
Mof_C 	C 	0.26728	0.96748	0.32046	0.13
Mof_H 	H 	0.3463	0.9556	0.4197	0.091
Mof_H 	H 	0.1919	0.969	0.2054	0.079
Mof_C 	C 	0.2175	0.03028	0.5001	-0.076
Mof_C 	C 	0.177	0.03101	0.5566	-0.015
Mof_H 	H 	0.2429	0.051	0.499	0.113
Mof_H 	H 	0.1749	0.052	0.5954	0.102
Mof_C 	C 	0.65325	0.33029	0.4836	-0.545
Mof_C 	C 	0.61435	0.30255	0.4123	0.419
Mof_C 	C 	0.6306	0.26811	0.392	-0.34
Mof_C 	C 	0.55718	0.31663	0.36328	-0.323
Mof_H 	H 	0.6688	0.2589	0.4246	0.188
Mof_C 	C 	0.59	0.24675	0.32247	0.221
Mof_C 	C 	0.51705	0.2953	0.2938	0.212
Mof_H 	H 	0.546	0.34	0.3769	0.24
Mof_H 	H 	0.6011	0.2234	0.3089	-0.02
Mof_C 	C 	0.53365	0.26036	0.2744	-0.222
Mof_H 	H 	0.479	0.3045	0.2603	-0.007
Mof_C 	C 	0.69956	0.34683	0.4362	1.009
Mof_F 	F 	0.70619	0.32274	0.37058	-0.547
Mof_F 	F 	0.67423	0.37785	0.39396	-0.493
Mof_F 	F 	0.75331	0.35419	0.49981	-0.538
Mof_C 	C 	0.61995	0.35912	0.52845	0.992
Mof_F 	F 	0.60359	0.38666	0.46707	-0.489
Mof_F 	F 	0.6603	0.37281	0.60787	-0.497
Mof_F 	F 	0.57687	0.34188	0.55787	-0.537
Mof_Co	Co	0.3569	0.75883	0.03723	1.16
Mof_N 	N 	0.37644	0.70741	0.97266	-0.211
Mof_O 	O 	0.30542	0.77162	0.90603	-0.487
Mof_O 	O 	0.20689	0.76933	0.90876	-0.443
Mof_C 	C 	0.4229	0.6864	0.0333	0.055
Mof_C 	C 	0.3445	0.6929	0.8848	0.089
Mof_C 	C 	0.25071	0.77599	0.87189	0.478
Mof_H 	H 	0.4447	0.6962	0.0952	0.023
Mof_C 	C 	0.4373	0.6521	0.0064	-0.122
Mof_C 	C 	0.3595	0.6603	0.8534	-0.149
Mof_H 	H 	0.3124	0.7069	0.8422	0.032
Mof_C 	C 	0.22429	0.78462	0.7669	-0.263
Mof_H 	H 	0.4694	0.6382	0.0491	0.083
Mof_C 	C 	0.4083	0.6394	0.913	0.09
Mof_H 	H 	0.3377	0.6506	0.7915	0.138
Mof_C 	C 	0.26533	0.80051	0.7239	0.257
Mof_C 	C 	0.16253	0.78298	0.71729	0.263
Mof_H 	H 	0.3066	0.802	0.7573	-0.03
Mof_C 	C 	0.24433	0.81428	0.6302	-0.357
Mof_C 	C 	0.14183	0.7968	0.6237	-0.35
Mof_H 	H 	0.135	0.7726	0.7466	-0.034
Mof_H 	H 	0.2717	0.8249	0.6011	0.258
Mof_C 	C 	0.18267	0.81223	0.5802	0.433
Mof_H 	H 	0.1005	0.7956	0.5905	0.237
Mof_N 	N 	0.83454	0.30626	0.10307	-0.228
Mof_C 	C 	0.87969	0.32628	0.1661	0.074
Mof_C 	C 	0.77412	0.31772	0.0807	0.08
Mof_H 	H 	0.92	0.3183	0.1817	0.008
Mof_C 	C 	0.8652	0.3585	0.2068	-0.139
Mof_C 	C 	0.75958	0.34994	0.1201	-0.14
Mof_H 	H 	0.7435	0.3039	0.0395	0.002
Mof_C 	C 	0.80527	0.37024	0.18399	0.111
Mof_H 	H 	0.8958	0.372	0.249	0.091
Mof_H 	H 	0.7193	0.358	0.1038	0.093
Mof_O 	O 	0.93405	0.75307	0.16219	-0.401
Mof_C 	C 	0.98844	0.74119	0.1932	0.371
Mof_O 	O 	0.01235	0.71844	0.1503	-0.28
Mof_C 	C 	0.4302	0.6022	0.89	-0.046
Mof_C 	C 	0.4693	0.5831	0.9505	0.036
Mof_C 	C 	0.396	0.5884	0.799	0.005
Mof_C 	C 	0.4915	0.5486	0.9144	-0.151
Mof_C 	C 	0.4132	0.5538	0.771	-0.108
Mof_H 	H 	0.3615	0.6008	0.7575	0.095
Mof_H 	H 	0.5261	0.5362	0.9558	0.086
Mof_C 	C 	0.46114	0.536	0.8327	0.133
Mof_H 	H 	0.3913	0.5431	0.71	0.097
Mof_C 	C 	0.5743	0.479	0.7646	-0.065
Mof_C 	C 	0.5052	0.51912	0.6532	-0.072
Mof_H 	H 	0.5841	0.4648	0.8229	0.066
Mof_C 	C 	0.6133	0.47912	0.7059	-0.019
Mof_C 	C 	0.5432	0.51795	0.5932	-0.013
Mof_H 	H 	0.4675	0.5324	0.6338	0.086
Mof_H 	H 	0.6498	0.4646	0.7225	0.06
Mof_H 	H 	0.5316	0.5308	0.5328	0.06
Mof_C 	C 	0.79251	0.40463	0.2313	-0.038
Mof_C 	C 	0.8324	0.416	0.3173	0.032
Mof_C 	C 	0.73966	0.42431	0.1901	0.023
Mof_C 	C 	0.8195	0.4478	0.3619	-0.121
Mof_H 	H 	0.8676	0.4027	0.3454	0.037
Mof_H 	H 	0.7126	0.4163	0.1327	0.027
Mof_C 	C 	0.72707	0.45571	0.2337	-0.124
Mof_C 	C 	0.76728	0.46748	0.32046	0.13
Mof_H 	H 	0.8463	0.4556	0.4197	0.092
Mof_H 	H 	0.6919	0.469	0.2054	0.079
Mof_C 	C 	0.7175	0.53028	0.5001	-0.076
Mof_C 	C 	0.677	0.53101	0.5566	-0.015
Mof_H 	H 	0.7429	0.551	0.499	0.113
Mof_H 	H 	0.6749	0.552	0.5954	0.102
Mof_C 	C 	0.15325	0.83029	0.4836	-0.545
Mof_C 	C 	0.11435	0.80255	0.4123	0.419
Mof_C 	C 	0.1306	0.76811	0.392	-0.34
Mof_C 	C 	0.05718	0.81663	0.36328	-0.323
Mof_H 	H 	0.1688	0.7589	0.4246	0.188
Mof_C 	C 	0.09	0.74675	0.32247	0.22
Mof_C 	C 	0.01705	0.7953	0.2938	0.214
Mof_H 	H 	0.046	0.84	0.3769	0.24
Mof_H 	H 	0.1011	0.7234	0.3089	-0.019
Mof_C 	C 	0.03365	0.76036	0.2744	-0.22
Mof_H 	H 	0.979	0.8045	0.2603	-0.008
Mof_C 	C 	0.19956	0.84683	0.4362	1.009
Mof_F 	F 	0.20619	0.82274	0.37058	-0.547
Mof_F 	F 	0.17423	0.87785	0.39396	-0.493
Mof_F 	F 	0.25331	0.85419	0.49981	-0.538
Mof_C 	C 	0.11995	0.85912	0.52845	0.992
Mof_F 	F 	0.10359	0.88666	0.46707	-0.489
Mof_F 	F 	0.1603	0.87281	0.60787	-0.498
Mof_F 	F 	0.07687	0.84188	0.55787	-0.537
Mof_Co	Co	0.1431	0.25883	0.96277	1.159
Mof_N 	N 	0.12356	0.20741	0.02734	-0.21
Mof_O 	O 	0.19458	0.27162	0.09397	-0.486
Mof_O 	O 	0.29311	0.26933	0.09124	-0.443
Mof_C 	C 	0.0771	0.1864	0.9667	0.054
Mof_C 	C 	0.1555	0.1929	0.1152	0.089
Mof_C 	C 	0.24929	0.27599	0.12811	0.477
Mof_H 	H 	0.0553	0.1962	0.9048	0.023
Mof_C 	C 	0.0627	0.1521	0.9936	-0.125
Mof_C 	C 	0.1405	0.1603	0.1466	-0.15
Mof_H 	H 	0.1876	0.2069	0.1578	0.031
Mof_C 	C 	0.27571	0.28462	0.2331	-0.263
Mof_H 	H 	0.0306	0.1382	0.9509	0.083
Mof_C 	C 	0.0917	0.1394	0.087	0.093
Mof_H 	H 	0.1623	0.1506	0.2085	0.138
Mof_C 	C 	0.23467	0.30051	0.2761	0.257
Mof_C 	C 	0.33747	0.28298	0.28271	0.263
Mof_H 	H 	0.1934	0.302	0.2427	-0.03
Mof_C 	C 	0.25567	0.31428	0.3698	-0.357
Mof_C 	C 	0.35817	0.2968	0.3763	-0.35
Mof_H 	H 	0.365	0.2726	0.2534	-0.034
Mof_H 	H 	0.2283	0.3249	0.3989	0.258
Mof_C 	C 	0.31733	0.31223	0.4198	0.432
Mof_H 	H 	0.3995	0.2956	0.4095	0.237
Mof_N 	N 	0.66546	0.80626	0.89693	-0.228
Mof_C 	C 	0.62031	0.82628	0.8339	0.074
Mof_C 	C 	0.72588	0.81772	0.9193	0.08
Mof_H 	H 	0.58	0.8183	0.8183	0.008
Mof_C 	C 	0.6348	0.8585	0.7932	-0.139
Mof_C 	C 	0.74042	0.84994	0.8799	-0.14
Mof_H 	H 	0.7565	0.8039	0.9605	0.002
Mof_C 	C 	0.69473	0.87024	0.81601	0.111
Mof_H 	H 	0.6042	0.872	0.751	0.091
Mof_H 	H 	0.7807	0.858	0.8962	0.093
Mof_O 	O 	0.56595	0.25307	0.83781	-0.401
Mof_C 	C 	0.51156	0.24119	0.8068	0.375
Mof_O 	O 	0.48765	0.21844	0.8497	-0.283
Mof_C 	C 	0.0698	0.1022	0.11	-0.046
Mof_C 	C 	0.0307	0.0831	0.0495	0.036
Mof_C 	C 	0.104	0.0884	0.201	0.005
Mof_C 	C 	0.0085	0.0486	0.0856	-0.146
Mof_C 	C 	0.0868	0.0538	0.229	-0.107
Mof_H 	H 	0.1385	0.1008	0.2425	0.095
Mof_H 	H 	0.9739	0.0362	0.0442	0.083
Mof_C 	C 	0.03886	0.036	0.1673	0.131
Mof_H 	H 	0.1087	0.0431	0.29	0.096
Mof_C 	C 	0.9257	0.979	0.2354	-0.065
Mof_C 	C 	0.9948	0.01912	0.3468	-0.073
Mof_H 	H 	0.9159	0.9648	0.1771	0.065
Mof_C 	C 	0.8867	0.97912	0.2941	-0.019
Mof_C 	C 	0.9568	0.01795	0.4068	-0.012
Mof_H 	H 	0.0325	0.0324	0.3662	0.086
Mof_H 	H 	0.8502	0.9646	0.2775	0.06
Mof_H 	H 	0.9684	0.0308	0.4672	0.059
Mof_C 	C 	0.70749	0.90463	0.7687	-0.037
Mof_C 	C 	0.6676	0.916	0.6827	0.031
Mof_C 	C 	0.76034	0.92431	0.8099	0.023
Mof_C 	C 	0.6805	0.9478	0.6381	-0.121
Mof_H 	H 	0.6324	0.9027	0.6546	0.037
Mof_H 	H 	0.7874	0.9163	0.8673	0.028
Mof_C 	C 	0.77293	0.95571	0.7663	-0.123
Mof_C 	C 	0.73272	0.96748	0.67954	0.13
Mof_H 	H 	0.6537	0.9556	0.5803	0.091
Mof_H 	H 	0.8081	0.969	0.7946	0.079
Mof_C 	C 	0.7825	0.03028	0.4999	-0.076
Mof_C 	C 	0.823	0.03101	0.4434	-0.015
Mof_H 	H 	0.7571	0.051	0.501	0.113
Mof_H 	H 	0.8251	0.052	0.4046	0.102
Mof_C 	C 	0.34675	0.33029	0.5164	-0.545
Mof_C 	C 	0.38565	0.30255	0.5877	0.419
Mof_C 	C 	0.3694	0.26811	0.608	-0.34
Mof_C 	C 	0.44282	0.31663	0.63672	-0.323
Mof_H 	H 	0.3312	0.2589	0.5754	0.188
Mof_C 	C 	0.41	0.24675	0.67753	0.221
Mof_C 	C 	0.48295	0.2953	0.7062	0.212
Mof_H 	H 	0.454	0.34	0.6231	0.24
Mof_H 	H 	0.3989	0.2234	0.6911	-0.02
Mof_C 	C 	0.46635	0.26036	0.7256	-0.222
Mof_H 	H 	0.521	0.3045	0.7397	-0.007
Mof_C 	C 	0.30044	0.34683	0.5638	1.009
Mof_F 	F 	0.29381	0.32274	0.62942	-0.547
Mof_F 	F 	0.32577	0.37785	0.60604	-0.493
Mof_F 	F 	0.24669	0.35419	0.50019	-0.538
Mof_C 	C 	0.38005	0.35912	0.47155	0.992
Mof_F 	F 	0.39641	0.38666	0.53293	-0.489
Mof_F 	F 	0.3397	0.37281	0.39213	-0.497
Mof_F 	F 	0.42313	0.34188	0.44213	-0.537
Mof_Co	Co	0.6431	0.75883	0.96277	1.16
Mof_N 	N 	0.62356	0.70741	0.02734	-0.211
Mof_O 	O 	0.69458	0.77162	0.09397	-0.487
Mof_O 	O 	0.79311	0.76933	0.09124	-0.443
Mof_C 	C 	0.5771	0.6864	0.9667	0.055
Mof_C 	C 	0.6555	0.6929	0.1152	0.089
Mof_C 	C 	0.74929	0.77599	0.12811	0.478
Mof_H 	H 	0.5553	0.6962	0.9048	0.023
Mof_C 	C 	0.5627	0.6521	0.9936	-0.122
Mof_C 	C 	0.6405	0.6603	0.1466	-0.149
Mof_H 	H 	0.6876	0.7069	0.1578	0.032
Mof_C 	C 	0.77571	0.78462	0.2331	-0.263
Mof_H 	H 	0.5306	0.6382	0.9509	0.083
Mof_C 	C 	0.5917	0.6394	0.087	0.09
Mof_H 	H 	0.6623	0.6506	0.2085	0.138
Mof_C 	C 	0.73467	0.80051	0.2761	0.257
Mof_C 	C 	0.83747	0.78298	0.28271	0.263
Mof_H 	H 	0.6934	0.802	0.2427	-0.03
Mof_C 	C 	0.75567	0.81428	0.3698	-0.357
Mof_C 	C 	0.85817	0.7968	0.3763	-0.35
Mof_H 	H 	0.865	0.7726	0.2534	-0.034
Mof_H 	H 	0.7283	0.8249	0.3989	0.258
Mof_C 	C 	0.81733	0.81223	0.4198	0.433
Mof_H 	H 	0.8995	0.7956	0.4095	0.237
Mof_N 	N 	0.16546	0.30626	0.89693	-0.228
Mof_C 	C 	0.12031	0.32628	0.8339	0.074
Mof_C 	C 	0.22588	0.31772	0.9193	0.08
Mof_H 	H 	0.08	0.3183	0.8183	0.008
Mof_C 	C 	0.1348	0.3585	0.7932	-0.139
Mof_C 	C 	0.24042	0.34994	0.8799	-0.14
Mof_H 	H 	0.2565	0.3039	0.9605	0.002
Mof_C 	C 	0.19473	0.37024	0.81601	0.111
Mof_H 	H 	0.1042	0.372	0.751	0.091
Mof_H 	H 	0.2807	0.358	0.8962	0.093
Mof_O 	O 	0.06595	0.75307	0.83781	-0.401
Mof_C 	C 	0.01156	0.74119	0.8068	0.371
Mof_O 	O 	0.98765	0.71844	0.8497	-0.28
Mof_C 	C 	0.5698	0.6022	0.11	-0.046
Mof_C 	C 	0.5307	0.5831	0.0495	0.036
Mof_C 	C 	0.604	0.5884	0.201	0.005
Mof_C 	C 	0.5085	0.5486	0.0856	-0.151
Mof_C 	C 	0.5868	0.5538	0.229	-0.108
Mof_H 	H 	0.6385	0.6008	0.2425	0.095
Mof_H 	H 	0.4739	0.5362	0.0442	0.086
Mof_C 	C 	0.53886	0.536	0.1673	0.133
Mof_H 	H 	0.6087	0.5431	0.29	0.097
Mof_C 	C 	0.4257	0.479	0.2354	-0.065
Mof_C 	C 	0.4948	0.51912	0.3468	-0.072
Mof_H 	H 	0.4159	0.4648	0.1771	0.066
Mof_C 	C 	0.3867	0.47912	0.2941	-0.019
Mof_C 	C 	0.4568	0.51795	0.4068	-0.013
Mof_H 	H 	0.5325	0.5324	0.3662	0.086
Mof_H 	H 	0.3502	0.4646	0.2775	0.06
Mof_H 	H 	0.4684	0.5308	0.4672	0.06
Mof_C 	C 	0.20749	0.40463	0.7687	-0.038
Mof_C 	C 	0.1676	0.416	0.6827	0.032
Mof_C 	C 	0.26034	0.42431	0.8099	0.023
Mof_C 	C 	0.1805	0.4478	0.6381	-0.121
Mof_H 	H 	0.1324	0.4027	0.6546	0.037
Mof_H 	H 	0.2874	0.4163	0.8673	0.027
Mof_C 	C 	0.27293	0.45571	0.7663	-0.124
Mof_C 	C 	0.23272	0.46748	0.67954	0.13
Mof_H 	H 	0.1537	0.4556	0.5803	0.092
Mof_H 	H 	0.3081	0.469	0.7946	0.079
Mof_C 	C 	0.2825	0.53028	0.4999	-0.076
Mof_C 	C 	0.323	0.53101	0.4434	-0.015
Mof_H 	H 	0.2571	0.551	0.501	0.113
Mof_H 	H 	0.3251	0.552	0.4046	0.102
Mof_C 	C 	0.84675	0.83029	0.5164	-0.545
Mof_C 	C 	0.88565	0.80255	0.5877	0.419
Mof_C 	C 	0.8694	0.76811	0.608	-0.34
Mof_C 	C 	0.94282	0.81663	0.63672	-0.323
Mof_H 	H 	0.8312	0.7589	0.5754	0.188
Mof_C 	C 	0.91	0.74675	0.67753	0.22
Mof_C 	C 	0.98295	0.7953	0.7062	0.214
Mof_H 	H 	0.954	0.84	0.6231	0.24
Mof_H 	H 	0.8989	0.7234	0.6911	-0.019
Mof_C 	C 	0.96635	0.76036	0.7256	-0.22
Mof_H 	H 	0.021	0.8045	0.7397	-0.008
Mof_C 	C 	0.80044	0.84683	0.5638	1.009
Mof_F 	F 	0.79381	0.82274	0.62942	-0.547
Mof_F 	F 	0.82577	0.87785	0.60604	-0.493
Mof_F 	F 	0.74669	0.85419	0.50019	-0.538
Mof_C 	C 	0.88005	0.85912	0.47155	0.992
Mof_F 	F 	0.89641	0.88666	0.53293	-0.489
Mof_F 	F 	0.8397	0.87281	0.39213	-0.498
Mof_F 	F 	0.92313	0.84188	0.44213	-0.537
Mof_Co	Co	0.1431	0.74117	0.96277	1.159
Mof_N 	N 	0.12356	0.79259	0.02734	-0.21
Mof_O 	O 	0.19458	0.72838	0.09397	-0.486
Mof_O 	O 	0.29311	0.73067	0.09124	-0.443
Mof_C 	C 	0.0771	0.8136	0.9667	0.054
Mof_C 	C 	0.1555	0.8071	0.1152	0.089
Mof_C 	C 	0.24929	0.72401	0.12811	0.477
Mof_H 	H 	0.0553	0.8038	0.9048	0.023
Mof_C 	C 	0.0627	0.8479	0.9936	-0.125
Mof_C 	C 	0.1405	0.8397	0.1466	-0.15
Mof_H 	H 	0.1876	0.7931	0.1578	0.031
Mof_C 	C 	0.27571	0.71538	0.2331	-0.263
Mof_H 	H 	0.0306	0.8618	0.9509	0.083
Mof_C 	C 	0.0917	0.8606	0.087	0.093
Mof_H 	H 	0.1623	0.8494	0.2085	0.138
Mof_C 	C 	0.23467	0.69949	0.2761	0.257
Mof_C 	C 	0.33747	0.71702	0.28271	0.263
Mof_H 	H 	0.1934	0.698	0.2427	-0.03
Mof_C 	C 	0.25567	0.68572	0.3698	-0.357
Mof_C 	C 	0.35817	0.7032	0.3763	-0.35
Mof_H 	H 	0.365	0.7274	0.2534	-0.034
Mof_H 	H 	0.2283	0.6751	0.3989	0.258
Mof_C 	C 	0.31733	0.68777	0.4198	0.432
Mof_H 	H 	0.3995	0.7044	0.4095	0.237
Mof_N 	N 	0.66546	0.19374	0.89693	-0.228
Mof_C 	C 	0.62031	0.17372	0.8339	0.075
Mof_C 	C 	0.72588	0.18228	0.9193	0.08
Mof_H 	H 	0.58	0.1817	0.8183	0.008
Mof_C 	C 	0.6348	0.1415	0.7932	-0.139
Mof_C 	C 	0.74042	0.15006	0.8799	-0.14
Mof_H 	H 	0.7565	0.1961	0.9605	0.002
Mof_C 	C 	0.69473	0.12976	0.81601	0.111
Mof_H 	H 	0.6042	0.128	0.751	0.091
Mof_H 	H 	0.7807	0.142	0.8962	0.093
Mof_O 	O 	0.56595	0.74693	0.83781	-0.401
Mof_C 	C 	0.51156	0.75881	0.8068	0.375
Mof_O 	O 	0.48765	0.78156	0.8497	-0.283
Mof_C 	C 	0.0698	0.8978	0.11	-0.046
Mof_C 	C 	0.0307	0.9169	0.0495	0.036
Mof_C 	C 	0.104	0.9116	0.201	0.005
Mof_C 	C 	0.0085	0.9514	0.0856	-0.145
Mof_C 	C 	0.0868	0.9462	0.229	-0.107
Mof_H 	H 	0.1385	0.8992	0.2425	0.095
Mof_H 	H 	0.9739	0.9638	0.0442	0.082
Mof_C 	C 	0.03886	0.964	0.1673	0.131
Mof_H 	H 	0.1087	0.9569	0.29	0.096
Mof_C 	C 	0.9257	0.021	0.2354	-0.065
Mof_C 	C 	0.9948	0.98088	0.3468	-0.073
Mof_H 	H 	0.9159	0.0352	0.1771	0.065
Mof_C 	C 	0.8867	0.02088	0.2941	-0.019
Mof_C 	C 	0.9568	0.98205	0.4068	-0.014
Mof_H 	H 	0.0325	0.9676	0.3662	0.086
Mof_H 	H 	0.8502	0.0354	0.2775	0.06
Mof_H 	H 	0.9684	0.9692	0.4672	0.06
Mof_C 	C 	0.70749	0.09537	0.7687	-0.038
Mof_C 	C 	0.6676	0.084	0.6827	0.032
Mof_C 	C 	0.76034	0.07569	0.8099	0.023
Mof_C 	C 	0.6805	0.0522	0.6381	-0.121
Mof_H 	H 	0.6324	0.0973	0.6546	0.037
Mof_H 	H 	0.7874	0.0837	0.8673	0.028
Mof_C 	C 	0.77293	0.04429	0.7663	-0.123
Mof_C 	C 	0.73272	0.03252	0.67954	0.13
Mof_H 	H 	0.6537	0.0444	0.5803	0.092
Mof_H 	H 	0.8081	0.031	0.7946	0.079
Mof_C 	C 	0.7825	0.96972	0.4999	-0.076
Mof_C 	C 	0.823	0.96899	0.4434	-0.016
Mof_H 	H 	0.7571	0.949	0.501	0.113
Mof_H 	H 	0.8251	0.948	0.4046	0.102
Mof_C 	C 	0.34675	0.66971	0.5164	-0.545
Mof_C 	C 	0.38565	0.69745	0.5877	0.419
Mof_C 	C 	0.3694	0.73189	0.608	-0.34
Mof_C 	C 	0.44282	0.68337	0.63672	-0.323
Mof_H 	H 	0.3312	0.7411	0.5754	0.188
Mof_C 	C 	0.41	0.75325	0.67753	0.221
Mof_C 	C 	0.48295	0.7047	0.7062	0.212
Mof_H 	H 	0.454	0.66	0.6231	0.24
Mof_H 	H 	0.3989	0.7766	0.6911	-0.02
Mof_C 	C 	0.46635	0.73964	0.7256	-0.222
Mof_H 	H 	0.521	0.6955	0.7397	-0.007
Mof_C 	C 	0.30044	0.65317	0.5638	1.009
Mof_F 	F 	0.29381	0.67726	0.62942	-0.547
Mof_F 	F 	0.32577	0.62215	0.60604	-0.493
Mof_F 	F 	0.24669	0.64581	0.50019	-0.538
Mof_C 	C 	0.38005	0.64088	0.47155	0.992
Mof_F 	F 	0.39641	0.61334	0.53293	-0.489
Mof_F 	F 	0.3397	0.62719	0.39213	-0.497
Mof_F 	F 	0.42313	0.65812	0.44213	-0.537
Mof_Co	Co	0.6431	0.24117	0.96277	1.16
Mof_N 	N 	0.62356	0.29259	0.02734	-0.211
Mof_O 	O 	0.69458	0.22838	0.09397	-0.487
Mof_O 	O 	0.79311	0.23067	0.09124	-0.443
Mof_C 	C 	0.5771	0.3136	0.9667	0.055
Mof_C 	C 	0.6555	0.3071	0.1152	0.089
Mof_C 	C 	0.74929	0.22401	0.12811	0.478
Mof_H 	H 	0.5553	0.3038	0.9048	0.023
Mof_C 	C 	0.5627	0.3479	0.9936	-0.122
Mof_C 	C 	0.6405	0.3397	0.1466	-0.149
Mof_H 	H 	0.6876	0.2931	0.1578	0.032
Mof_C 	C 	0.77571	0.21538	0.2331	-0.263
Mof_H 	H 	0.5306	0.3618	0.9509	0.083
Mof_C 	C 	0.5917	0.3606	0.087	0.09
Mof_H 	H 	0.6623	0.3494	0.2085	0.138
Mof_C 	C 	0.73467	0.19949	0.2761	0.257
Mof_C 	C 	0.83747	0.21702	0.28271	0.263
Mof_H 	H 	0.6934	0.198	0.2427	-0.03
Mof_C 	C 	0.75567	0.18572	0.3698	-0.357
Mof_C 	C 	0.85817	0.2032	0.3763	-0.35
Mof_H 	H 	0.865	0.2274	0.2534	-0.034
Mof_H 	H 	0.7283	0.1751	0.3989	0.258
Mof_C 	C 	0.81733	0.18777	0.4198	0.433
Mof_H 	H 	0.8995	0.2044	0.4095	0.237
Mof_N 	N 	0.16546	0.69374	0.89693	-0.228
Mof_C 	C 	0.12031	0.67372	0.8339	0.074
Mof_C 	C 	0.22588	0.68228	0.9193	0.08
Mof_H 	H 	0.08	0.6817	0.8183	0.008
Mof_C 	C 	0.1348	0.6415	0.7932	-0.139
Mof_C 	C 	0.24042	0.65006	0.8799	-0.14
Mof_H 	H 	0.2565	0.6961	0.9605	0.002
Mof_C 	C 	0.19473	0.62976	0.81601	0.111
Mof_H 	H 	0.1042	0.628	0.751	0.091
Mof_H 	H 	0.2807	0.642	0.8962	0.093
Mof_O 	O 	0.06595	0.24693	0.83781	-0.401
Mof_C 	C 	0.01156	0.25881	0.8068	0.371
Mof_O 	O 	0.98765	0.28156	0.8497	-0.28
Mof_C 	C 	0.5698	0.3978	0.11	-0.046
Mof_C 	C 	0.5307	0.4169	0.0495	0.036
Mof_C 	C 	0.604	0.4116	0.201	0.005
Mof_C 	C 	0.5085	0.4514	0.0856	-0.151
Mof_C 	C 	0.5868	0.4462	0.229	-0.108
Mof_H 	H 	0.6385	0.3992	0.2425	0.095
Mof_H 	H 	0.4739	0.4638	0.0442	0.086
Mof_C 	C 	0.53886	0.464	0.1673	0.133
Mof_H 	H 	0.6087	0.4569	0.29	0.097
Mof_C 	C 	0.4257	0.521	0.2354	-0.065
Mof_C 	C 	0.4948	0.48088	0.3468	-0.072
Mof_H 	H 	0.4159	0.5352	0.1771	0.066
Mof_C 	C 	0.3867	0.52088	0.2941	-0.019
Mof_C 	C 	0.4568	0.48205	0.4068	-0.013
Mof_H 	H 	0.5325	0.4676	0.3662	0.086
Mof_H 	H 	0.3502	0.5354	0.2775	0.06
Mof_H 	H 	0.4684	0.4692	0.4672	0.06
Mof_C 	C 	0.20749	0.59537	0.7687	-0.038
Mof_C 	C 	0.1676	0.584	0.6827	0.032
Mof_C 	C 	0.26034	0.57569	0.8099	0.023
Mof_C 	C 	0.1805	0.5522	0.6381	-0.121
Mof_H 	H 	0.1324	0.5973	0.6546	0.037
Mof_H 	H 	0.2874	0.5837	0.8673	0.027
Mof_C 	C 	0.27293	0.54429	0.7663	-0.124
Mof_C 	C 	0.23272	0.53252	0.67954	0.13
Mof_H 	H 	0.1537	0.5444	0.5803	0.092
Mof_H 	H 	0.3081	0.531	0.7946	0.079
Mof_C 	C 	0.2825	0.46972	0.4999	-0.076
Mof_C 	C 	0.323	0.46899	0.4434	-0.015
Mof_H 	H 	0.2571	0.449	0.501	0.113
Mof_H 	H 	0.3251	0.448	0.4046	0.102
Mof_C 	C 	0.84675	0.16971	0.5164	-0.545
Mof_C 	C 	0.88565	0.19745	0.5877	0.419
Mof_C 	C 	0.8694	0.23189	0.608	-0.34
Mof_C 	C 	0.94282	0.18337	0.63672	-0.323
Mof_H 	H 	0.8312	0.2411	0.5754	0.188
Mof_C 	C 	0.91	0.25325	0.67753	0.22
Mof_C 	C 	0.98295	0.2047	0.7062	0.214
Mof_H 	H 	0.954	0.16	0.6231	0.24
Mof_H 	H 	0.8989	0.2766	0.6911	-0.019
Mof_C 	C 	0.96635	0.23964	0.7256	-0.22
Mof_H 	H 	0.021	0.1955	0.7397	-0.008
Mof_C 	C 	0.80044	0.15317	0.5638	1.009
Mof_F 	F 	0.79381	0.17726	0.62942	-0.547
Mof_F 	F 	0.82577	0.12215	0.60604	-0.493
Mof_F 	F 	0.74669	0.14581	0.50019	-0.538
Mof_C 	C 	0.88005	0.14088	0.47155	0.992
Mof_F 	F 	0.89641	0.11334	0.53293	-0.489
Mof_F 	F 	0.8397	0.12719	0.39213	-0.498
Mof_F 	F 	0.92313	0.15812	0.44213	-0.537
Mof_Co	Co	0.8569	0.74117	0.03723	1.159
Mof_N 	N 	0.87644	0.79259	0.97266	-0.21
Mof_O 	O 	0.80542	0.72838	0.90603	-0.486
Mof_O 	O 	0.70689	0.73067	0.90876	-0.443
Mof_C 	C 	0.9229	0.8136	0.0333	0.054
Mof_C 	C 	0.8445	0.8071	0.8848	0.089
Mof_C 	C 	0.75071	0.72401	0.87189	0.477
Mof_H 	H 	0.9447	0.8038	0.0952	0.023
Mof_C 	C 	0.9373	0.8479	0.0064	-0.125
Mof_C 	C 	0.8595	0.8397	0.8534	-0.15
Mof_H 	H 	0.8124	0.7931	0.8422	0.031
Mof_C 	C 	0.72429	0.71538	0.7669	-0.263
Mof_H 	H 	0.9694	0.8618	0.0491	0.083
Mof_C 	C 	0.9083	0.8606	0.913	0.093
Mof_H 	H 	0.8377	0.8494	0.7915	0.138
Mof_C 	C 	0.76533	0.69949	0.7239	0.257
Mof_C 	C 	0.66253	0.71702	0.71729	0.263
Mof_H 	H 	0.8066	0.698	0.7573	-0.03
Mof_C 	C 	0.74433	0.68572	0.6302	-0.357
Mof_C 	C 	0.64183	0.7032	0.6237	-0.35
Mof_H 	H 	0.635	0.7274	0.7466	-0.034
Mof_H 	H 	0.7717	0.6751	0.6011	0.258
Mof_C 	C 	0.68267	0.68777	0.5802	0.432
Mof_H 	H 	0.6005	0.7044	0.5905	0.237
Mof_N 	N 	0.33454	0.19374	0.10307	-0.228
Mof_C 	C 	0.37969	0.17372	0.1661	0.075
Mof_C 	C 	0.27412	0.18228	0.0807	0.08
Mof_H 	H 	0.42	0.1817	0.1817	0.008
Mof_C 	C 	0.3652	0.1415	0.2068	-0.139
Mof_C 	C 	0.25958	0.15006	0.1201	-0.14
Mof_H 	H 	0.2435	0.1961	0.0395	0.002
Mof_C 	C 	0.30527	0.12976	0.18399	0.111
Mof_H 	H 	0.3958	0.128	0.249	0.091
Mof_H 	H 	0.2193	0.142	0.1038	0.093
Mof_O 	O 	0.43405	0.74693	0.16219	-0.401
Mof_C 	C 	0.48844	0.75881	0.1932	0.375
Mof_O 	O 	0.51235	0.78156	0.1503	-0.283
Mof_C 	C 	0.9302	0.8978	0.89	-0.046
Mof_C 	C 	0.9693	0.9169	0.9505	0.036
Mof_C 	C 	0.896	0.9116	0.799	0.005
Mof_C 	C 	0.9915	0.9514	0.9144	-0.145
Mof_C 	C 	0.9132	0.9462	0.771	-0.107
Mof_H 	H 	0.8615	0.8992	0.7575	0.095
Mof_H 	H 	0.0261	0.9638	0.9558	0.082
Mof_C 	C 	0.96114	0.964	0.8327	0.131
Mof_H 	H 	0.8913	0.9569	0.71	0.096
Mof_C 	C 	0.0743	0.021	0.7646	-0.065
Mof_C 	C 	0.0052	0.98088	0.6532	-0.073
Mof_H 	H 	0.0841	0.0352	0.8229	0.065
Mof_C 	C 	0.1133	0.02088	0.7059	-0.019
Mof_C 	C 	0.0432	0.98205	0.5932	-0.014
Mof_H 	H 	0.9675	0.9676	0.6338	0.086
Mof_H 	H 	0.1498	0.0354	0.7225	0.06
Mof_H 	H 	0.0316	0.9692	0.5328	0.06
Mof_C 	C 	0.29251	0.09537	0.2313	-0.038
Mof_C 	C 	0.3324	0.084	0.3173	0.032
Mof_C 	C 	0.23966	0.07569	0.1901	0.023
Mof_C 	C 	0.3195	0.0522	0.3619	-0.121
Mof_H 	H 	0.3676	0.0973	0.3454	0.037
Mof_H 	H 	0.2126	0.0837	0.1327	0.028
Mof_C 	C 	0.22707	0.04429	0.2337	-0.123
Mof_C 	C 	0.26728	0.03252	0.32046	0.13
Mof_H 	H 	0.3463	0.0444	0.4197	0.092
Mof_H 	H 	0.1919	0.031	0.2054	0.079
Mof_C 	C 	0.2175	0.96972	0.5001	-0.076
Mof_C 	C 	0.177	0.96899	0.5566	-0.016
Mof_H 	H 	0.2429	0.949	0.499	0.113
Mof_H 	H 	0.1749	0.948	0.5954	0.102
Mof_C 	C 	0.65325	0.66971	0.4836	-0.545
Mof_C 	C 	0.61435	0.69745	0.4123	0.419
Mof_C 	C 	0.6306	0.73189	0.392	-0.34
Mof_C 	C 	0.55718	0.68337	0.36328	-0.323
Mof_H 	H 	0.6688	0.7411	0.4246	0.188
Mof_C 	C 	0.59	0.75325	0.32247	0.221
Mof_C 	C 	0.51705	0.7047	0.2938	0.212
Mof_H 	H 	0.546	0.66	0.3769	0.24
Mof_H 	H 	0.6011	0.7766	0.3089	-0.02
Mof_C 	C 	0.53365	0.73964	0.2744	-0.222
Mof_H 	H 	0.479	0.6955	0.2603	-0.007
Mof_C 	C 	0.69956	0.65317	0.4362	1.009
Mof_F 	F 	0.70619	0.67726	0.37058	-0.547
Mof_F 	F 	0.67423	0.62215	0.39396	-0.493
Mof_F 	F 	0.75331	0.64581	0.49981	-0.538
Mof_C 	C 	0.61995	0.64088	0.52845	0.992
Mof_F 	F 	0.60359	0.61334	0.46707	-0.489
Mof_F 	F 	0.6603	0.62719	0.60787	-0.497
Mof_F 	F 	0.57687	0.65812	0.55787	-0.537
Mof_Co	Co	0.3569	0.24117	0.03723	1.16
Mof_N 	N 	0.37644	0.29259	0.97266	-0.211
Mof_O 	O 	0.30542	0.22838	0.90603	-0.487
Mof_O 	O 	0.20689	0.23067	0.90876	-0.443
Mof_C 	C 	0.4229	0.3136	0.0333	0.055
Mof_C 	C 	0.3445	0.3071	0.8848	0.089
Mof_C 	C 	0.25071	0.22401	0.87189	0.478
Mof_H 	H 	0.4447	0.3038	0.0952	0.023
Mof_C 	C 	0.4373	0.3479	0.0064	-0.122
Mof_C 	C 	0.3595	0.3397	0.8534	-0.149
Mof_H 	H 	0.3124	0.2931	0.8422	0.032
Mof_C 	C 	0.22429	0.21538	0.7669	-0.263
Mof_H 	H 	0.4694	0.3618	0.0491	0.083
Mof_C 	C 	0.4083	0.3606	0.913	0.09
Mof_H 	H 	0.3377	0.3494	0.7915	0.138
Mof_C 	C 	0.26533	0.19949	0.7239	0.257
Mof_C 	C 	0.16253	0.21702	0.71729	0.263
Mof_H 	H 	0.3066	0.198	0.7573	-0.03
Mof_C 	C 	0.24433	0.18572	0.6302	-0.357
Mof_C 	C 	0.14183	0.2032	0.6237	-0.35
Mof_H 	H 	0.135	0.2274	0.7466	-0.034
Mof_H 	H 	0.2717	0.1751	0.6011	0.258
Mof_C 	C 	0.18267	0.18777	0.5802	0.433
Mof_H 	H 	0.1005	0.2044	0.5905	0.237
Mof_N 	N 	0.83454	0.69374	0.10307	-0.228
Mof_C 	C 	0.87969	0.67372	0.1661	0.074
Mof_C 	C 	0.77412	0.68228	0.0807	0.08
Mof_H 	H 	0.92	0.6817	0.1817	0.008
Mof_C 	C 	0.8652	0.6415	0.2068	-0.139
Mof_C 	C 	0.75958	0.65006	0.1201	-0.14
Mof_H 	H 	0.7435	0.6961	0.0395	0.002
Mof_C 	C 	0.80527	0.62976	0.18399	0.111
Mof_H 	H 	0.8958	0.628	0.249	0.091
Mof_H 	H 	0.7193	0.642	0.1038	0.093
Mof_O 	O 	0.93405	0.24693	0.16219	-0.401
Mof_C 	C 	0.98844	0.25881	0.1932	0.371
Mof_O 	O 	0.01235	0.28156	0.1503	-0.28
Mof_C 	C 	0.4302	0.3978	0.89	-0.046
Mof_C 	C 	0.4693	0.4169	0.9505	0.036
Mof_C 	C 	0.396	0.4116	0.799	0.005
Mof_C 	C 	0.4915	0.4514	0.9144	-0.151
Mof_C 	C 	0.4132	0.4462	0.771	-0.108
Mof_H 	H 	0.3615	0.3992	0.7575	0.095
Mof_H 	H 	0.5261	0.4638	0.9558	0.086
Mof_C 	C 	0.46114	0.464	0.8327	0.133
Mof_H 	H 	0.3913	0.4569	0.71	0.097
Mof_C 	C 	0.5743	0.521	0.7646	-0.065
Mof_C 	C 	0.5052	0.48088	0.6532	-0.072
Mof_H 	H 	0.5841	0.5352	0.8229	0.066
Mof_C 	C 	0.6133	0.52088	0.7059	-0.019
Mof_C 	C 	0.5432	0.48205	0.5932	-0.013
Mof_H 	H 	0.4675	0.4676	0.6338	0.086
Mof_H 	H 	0.6498	0.5354	0.7225	0.06
Mof_H 	H 	0.5316	0.4692	0.5328	0.06
Mof_C 	C 	0.79251	0.59537	0.2313	-0.038
Mof_C 	C 	0.8324	0.584	0.3173	0.032
Mof_C 	C 	0.73966	0.57569	0.1901	0.023
Mof_C 	C 	0.8195	0.5522	0.3619	-0.121
Mof_H 	H 	0.8676	0.5973	0.3454	0.037
Mof_H 	H 	0.7126	0.5837	0.1327	0.027
Mof_C 	C 	0.72707	0.54429	0.2337	-0.124
Mof_C 	C 	0.76728	0.53252	0.32046	0.13
Mof_H 	H 	0.8463	0.5444	0.4197	0.092
Mof_H 	H 	0.6919	0.531	0.2054	0.079
Mof_C 	C 	0.7175	0.46972	0.5001	-0.076
Mof_C 	C 	0.677	0.46899	0.5566	-0.015
Mof_H 	H 	0.7429	0.449	0.499	0.113
Mof_H 	H 	0.6749	0.448	0.5954	0.102
Mof_C 	C 	0.15325	0.16971	0.4836	-0.545
Mof_C 	C 	0.11435	0.19745	0.4123	0.419
Mof_C 	C 	0.1306	0.23189	0.392	-0.34
Mof_C 	C 	0.05718	0.18337	0.36328	-0.323
Mof_H 	H 	0.1688	0.2411	0.4246	0.188
Mof_C 	C 	0.09	0.25325	0.32247	0.22
Mof_C 	C 	0.01705	0.2047	0.2938	0.214
Mof_H 	H 	0.046	0.16	0.3769	0.24
Mof_H 	H 	0.1011	0.2766	0.3089	-0.019
Mof_C 	C 	0.03365	0.23964	0.2744	-0.22
Mof_H 	H 	0.979	0.1955	0.2603	-0.008
Mof_C 	C 	0.19956	0.15317	0.4362	1.009
Mof_F 	F 	0.20619	0.17726	0.37058	-0.547
Mof_F 	F 	0.17423	0.12215	0.39396	-0.493
Mof_F 	F 	0.25331	0.14581	0.49981	-0.538
Mof_C 	C 	0.11995	0.14088	0.52845	0.992
Mof_F 	F 	0.10359	0.11334	0.46707	-0.489
Mof_F 	F 	0.1603	0.12719	0.60787	-0.498
Mof_F 	F 	0.07687	0.15812	0.55787	-0.537
Mof_N 	N 	0.98145	-4.35899e-33	0.8038	-0.163
Mof_C 	C 	0.01988	4.35899e-33	0.7387	0.131
Mof_C 	C 	0.09738	2.17949e-33	0.6203	0.019
Mof_N 	N 	0.2571	2.17949e-33	0.3736	-0.153
Mof_C 	C 	0.21919	0	0.4419	0.103
Mof_C 	C 	0.14121	0	0.559	0.01
Mof_N 	N 	0.48145	0.5	0.8038	-0.165
Mof_C 	C 	0.51988	0.5	0.7387	0.132
Mof_C 	C 	0.59738	0.5	0.6203	0.018
Mof_N 	N 	0.7571	0.5	0.3736	-0.154
Mof_C 	C 	0.71919	0.5	0.4419	0.102
Mof_C 	C 	0.64121	0.5	0.559	0.01
Mof_N 	N 	0.01855	1.08975e-33	0.1962	-0.163
Mof_C 	C 	0.98012	1.08975e-33	0.2613	0.131
Mof_C 	C 	0.90262	0	0.3797	0.019
Mof_N 	N 	0.7429	2.17949e-33	0.6264	-0.153
Mof_C 	C 	0.78081	0	0.5581	0.103
Mof_C 	C 	0.85879	0	0.441	0.01
Mof_N 	N 	0.51855	0.5	0.1962	-0.165
Mof_C 	C 	0.48012	0.5	0.2613	0.132
Mof_C 	C 	0.40262	0.5	0.3797	0.018
Mof_N 	N 	0.2429	0.5	0.6264	-0.154
Mof_C 	C 	0.28081	0.5	0.5581	0.102
Mof_C 	C 	0.35879	0.5	0.441	0.01
_end
