data_functionalizedCrystal
_audit_creation_method	'EQeq! by Chris Wilmer'
_symmetry_space_group_name_H-M	'P1'
_symmetry_Int_Tables_number	1
_symmetry_cell_setting	triclinic
loop_
_symmetry_equiv_pos_as_xyz
  x,y,z
_cell_length_a	18.777
_cell_length_b	8.7423
_cell_length_c	29.733
_cell_angle_alpha	90
_cell_angle_beta	90.225
_cell_angle_gamma	90
loop_
_atom_site_label
_atom_site_type_symbol
_atom_site_fract_x
_atom_site_fract_y
_atom_site_fract_z
_atom_site_charge
Mof_Zn	Zn	0.18267	0.72069	0.24934	1.245
Mof_O 	O 	0.1089	0.4188	0.23759	-0.3
Mof_C 	C 	0.1277	0.4744	0.2021	0.342
Mof_O 	O 	0.1472	0.6131	0.19594	-0.444
Mof_C 	C 	0.1306	0.3785	0.1592	-0.148
Mof_H 	H 	0.1061	0.4329	0.1353	0.079
Mof_H 	H 	0.1799	0.3662	0.1503	0.108
Mof_O 	O 	0.0991	0.2312	0.16432	-0.249
Mof_C 	C 	0.0259	0.2259	0.1648	0.455
Mof_O 	O 	0.2887	0.6704	0.23904	-0.399
Mof_C 	C 	0.9812	0.3511	0.1615	-0.572
Mof_H 	H 	0.0002	0.4493	0.161	0.216
Mof_O 	O 	0.285	0.4308	0.26437	-0.439
Mof_C 	C 	0.9076	0.331	0.159	0.558
Mof_O 	O 	0.4192	0.3822	0.24594	-0.345
Mof_C 	C 	0.8789	0.184	0.1609	-0.504
Mof_O 	O 	0.6737	0.7809	0.92648	-0.256
Mof_C 	C 	0.9234	0.0569	0.1675	0.528
Mof_O 	O 	0.6826	0.6359	0.84646	-0.288
Mof_C 	C 	0.997	0.079	0.1688	-0.549
Mof_H 	H 	0.0271	0.9954	0.1723	0.232
Mof_O 	O 	0.6659	0.8567	0.80962	-0.438
Mof_C 	C 	0.8613	0.4688	0.1532	-1.071
Mof_H 	H 	0.8906	0.5571	0.1481	0.316
Mof_H 	H 	0.8335	0.4838	0.1798	0.317
Mof_H 	H 	0.8302	0.4538	0.1279	0.323
Mof_C 	C 	0.895	0.8952	0.172	-1.008
Mof_H 	H 	0.8801	0.8585	0.143	0.298
Mof_H 	H 	0.8551	0.8947	0.1921	0.309
Mof_H 	H 	0.9317	0.8298	0.1837	0.313
Mof_C 	C 	0.8013	0.1587	0.1502	0.375
Mof_C 	C 	0.745	0.2047	0.1775	-0.47
Mof_H 	H 	0.7549	0.2498	0.2052	0.162
Mof_C 	C 	0.6751	0.1849	0.1644	0.375
Mof_C 	C 	0.6607	0.1125	0.1228	-0.45
Mof_H 	H 	0.6138	0.0959	0.114	0.174
Mof_C 	C 	0.7164	0.0656	0.0949	0.368
Mof_C 	C 	0.7863	0.0881	0.1089	-0.453
Mof_H 	H 	0.8236	0.056	0.0907	0.174
Mof_C 	C 	0.6125	0.2389	0.1909	-0.496
Mof_C 	C 	0.5982	0.3953	0.1934	0.512
Mof_C 	C 	0.5331	0.447	0.2124	-0.547
Mof_H 	H 	0.5229	0.551	0.2139	0.21
Mof_C 	C 	0.4856	0.3414	0.2286	0.456
Mof_C 	C 	0.5005	0.1859	0.2283	-0.572
Mof_H 	H 	0.4683	0.1166	0.2404	0.227
Mof_C 	C 	0.5644	0.1341	0.2096	0.528
Mof_C 	C 	0.5781	0.9622	0.2092	-1.029
Mof_H 	H 	0.5588	0.9186	0.1822	0.321
Mof_H 	H 	0.5557	0.9162	0.2348	0.327
Mof_H 	H 	0.6285	0.9436	0.2105	0.309
Mof_C 	C 	0.6487	0.5134	0.175	-0.984
Mof_H 	H 	0.6598	0.4893	0.1443	0.296
Mof_H 	H 	0.6917	0.5137	0.1926	0.289
Mof_H 	H 	0.6268	0.6126	0.1764	0.289
Mof_C 	C 	0.3951	0.5319	0.2357	-0.178
Mof_H 	H 	0.402	0.553	0.204	0.1
Mof_H 	H 	0.422	0.6064	0.2529	0.108
Mof_C 	C 	0.3163	0.5435	0.2473	0.394
Mof_C 	C 	0.7028	0.9921	0.0499	-0.478
Mof_C 	C 	0.7093	0.8319	0.0448	0.509
Mof_C 	C 	0.699	0.7662	0.003	-0.533
Mof_H 	H 	0.7036	0.661	0.9995	0.206
Mof_C 	C 	0.6816	0.8573	0.9659	0.441
Mof_C 	C 	0.6739	0.0145	0.9709	-0.541
Mof_H 	H 	0.6618	0.0748	0.9463	0.212
Mof_C 	C 	0.6844	0.082	0.0133	0.53
Mof_C 	C 	0.6785	0.2545	0.0167	-1.033
Mof_H 	H 	0.6663	0.2961	0.9878	0.324
Mof_H 	H 	0.7233	0.2961	0.0265	0.318
Mof_H 	H 	0.6422	0.2806	0.038	0.321
Mof_C 	C 	0.7305	0.7344	0.0847	-0.972
Mof_H 	H 	0.7286	0.6283	0.0764	0.282
Mof_H 	H 	0.6982	0.7528	0.1091	0.29
Mof_H 	H 	0.778	0.7603	0.094	0.29
Mof_C 	C 	0.6634	0.8729	0.8869	-0.141
Mof_H 	H 	0.6984	0.9545	0.8863	0.086
Mof_H 	H 	0.6164	0.9188	0.8874	0.078
Mof_C 	C 	0.6711	0.7742	0.8452	0.36
Mof_Zn	Zn	0.31733	0.22069	0.25066	1.246
Mof_O 	O 	0.3911	0.9188	0.26241	-0.298
Mof_C 	C 	0.3723	0.9744	0.2979	0.346
Mof_O 	O 	0.3528	0.1131	0.30406	-0.447
Mof_C 	C 	0.3694	0.8785	0.3408	-0.15
Mof_H 	H 	0.3939	0.9329	0.3647	0.08
Mof_H 	H 	0.3201	0.8662	0.3497	0.109
Mof_O 	O 	0.4009	0.7312	0.33568	-0.249
Mof_C 	C 	0.4741	0.7259	0.3352	0.46
Mof_O 	O 	0.2113	0.1704	0.26096	-0.399
Mof_C 	C 	0.5188	0.8511	0.3385	-0.578
Mof_H 	H 	0.4998	0.9493	0.339	0.22
Mof_O 	O 	0.215	0.9308	0.23563	-0.435
Mof_C 	C 	0.5924	0.831	0.341	0.558
Mof_O 	O 	0.0808	0.8822	0.25406	-0.342
Mof_C 	C 	0.6211	0.684	0.3391	-0.507
Mof_O 	O 	0.8263	0.2809	0.57352	-0.258
Mof_C 	C 	0.5766	0.5569	0.3325	0.534
Mof_O 	O 	0.8174	0.1359	0.65354	-0.287
Mof_C 	C 	0.503	0.579	0.3312	-0.551
Mof_H 	H 	0.4729	0.4954	0.3277	0.231
Mof_O 	O 	0.8341	0.3567	0.69038	-0.437
Mof_C 	C 	0.6387	0.9688	0.3468	-1.062
Mof_H 	H 	0.6094	0.0571	0.3519	0.312
Mof_H 	H 	0.6665	0.9838	0.3202	0.315
Mof_H 	H 	0.6698	0.9538	0.3721	0.321
Mof_C 	C 	0.605	0.3952	0.328	-1.016
Mof_H 	H 	0.6199	0.3585	0.357	0.3
Mof_H 	H 	0.6449	0.3947	0.3079	0.31
Mof_H 	H 	0.5683	0.3298	0.3163	0.315
Mof_C 	C 	0.6987	0.6587	0.3498	0.379
Mof_C 	C 	0.755	0.7047	0.3225	-0.473
Mof_H 	H 	0.7451	0.7498	0.2948	0.163
Mof_C 	C 	0.8249	0.6849	0.3356	0.38
Mof_C 	C 	0.8393	0.6125	0.3772	-0.454
Mof_H 	H 	0.8862	0.5959	0.386	0.176
Mof_C 	C 	0.7836	0.5656	0.4051	0.375
Mof_C 	C 	0.7137	0.5881	0.3911	-0.457
Mof_H 	H 	0.6764	0.556	0.4093	0.176
Mof_C 	C 	0.8875	0.7389	0.3091	-0.5
Mof_C 	C 	0.9018	0.8953	0.3066	0.517
Mof_C 	C 	0.9669	0.947	0.2876	-0.541
Mof_H 	H 	0.9771	0.051	0.2861	0.206
Mof_C 	C 	0.0144	0.8414	0.2714	0.452
Mof_C 	C 	0.9995	0.6859	0.2717	-0.57
Mof_H 	H 	0.0317	0.6166	0.2596	0.227
Mof_C 	C 	0.9356	0.6341	0.2904	0.533
Mof_C 	C 	0.9219	0.4622	0.2908	-1.037
Mof_H 	H 	0.9412	0.4186	0.3178	0.322
Mof_H 	H 	0.9443	0.4162	0.2652	0.329
Mof_H 	H 	0.8715	0.4436	0.2895	0.31
Mof_C 	C 	0.8513	0.0134	0.325	-1.003
Mof_H 	H 	0.8402	0.9893	0.3557	0.303
Mof_H 	H 	0.8083	0.0137	0.3074	0.293
Mof_H 	H 	0.8732	0.1126	0.3236	0.294
Mof_C 	C 	0.1049	0.0319	0.2643	-0.181
Mof_H 	H 	0.098	0.053	0.296	0.1
Mof_H 	H 	0.078	0.1064	0.2471	0.108
Mof_C 	C 	0.1837	0.0435	0.2527	0.391
Mof_C 	C 	0.7972	0.4921	0.4501	-0.488
Mof_C 	C 	0.7907	0.3319	0.4552	0.516
Mof_C 	C 	0.801	0.2662	0.497	-0.543
Mof_H 	H 	0.7964	0.161	0.5005	0.21
Mof_C 	C 	0.8184	0.3573	0.5341	0.449
Mof_C 	C 	0.8261	0.5145	0.5291	-0.55
Mof_H 	H 	0.8382	0.5748	0.5537	0.214
Mof_C 	C 	0.8156	0.582	0.4867	0.539
Mof_C 	C 	0.8215	0.7545	0.4833	-1.043
Mof_H 	H 	0.8337	0.7961	0.5122	0.327
Mof_H 	H 	0.7767	0.7961	0.4735	0.321
Mof_H 	H 	0.8578	0.7806	0.462	0.324
Mof_C 	C 	0.7695	0.2344	0.4153	-0.978
Mof_H 	H 	0.7714	0.1283	0.4236	0.283
Mof_H 	H 	0.8018	0.2528	0.3909	0.291
Mof_H 	H 	0.722	0.2603	0.406	0.291
Mof_C 	C 	0.8366	0.3729	0.6131	-0.14
Mof_H 	H 	0.8016	0.4545	0.6137	0.087
Mof_H 	H 	0.8836	0.4188	0.6126	0.078
Mof_C 	C 	0.8289	0.2742	0.6548	0.359
Mof_Zn	Zn	0.81733	0.27931	0.75066	1.246
Mof_O 	O 	0.8911	0.5812	0.76241	-0.299
Mof_C 	C 	0.8723	0.5256	0.7979	0.342
Mof_O 	O 	0.8528	0.3869	0.80406	-0.444
Mof_C 	C 	0.8694	0.6215	0.8408	-0.148
Mof_H 	H 	0.8939	0.5671	0.8647	0.079
Mof_H 	H 	0.8201	0.6338	0.8497	0.108
Mof_O 	O 	0.9009	0.7688	0.83568	-0.249
Mof_C 	C 	0.9741	0.7741	0.8352	0.455
Mof_O 	O 	0.7113	0.3296	0.76096	-0.399
Mof_C 	C 	0.0188	0.6489	0.8385	-0.572
Mof_H 	H 	0.9998	0.5507	0.839	0.216
Mof_O 	O 	0.715	0.5692	0.73563	-0.439
Mof_C 	C 	0.0924	0.669	0.841	0.558
Mof_O 	O 	0.5808	0.6178	0.75406	-0.345
Mof_C 	C 	0.1211	0.816	0.8391	-0.504
Mof_O 	O 	0.3263	0.2191	0.07352	-0.256
Mof_C 	C 	0.0766	0.9431	0.8325	0.528
Mof_O 	O 	0.3174	0.3641	0.15354	-0.288
Mof_C 	C 	0.003	0.921	0.8312	-0.549
Mof_H 	H 	0.9729	0.0046	0.8277	0.232
Mof_O 	O 	0.3341	0.1433	0.19038	-0.438
Mof_C 	C 	0.1387	0.5312	0.8468	-1.071
Mof_H 	H 	0.1094	0.4429	0.8519	0.316
Mof_H 	H 	0.1665	0.5162	0.8202	0.317
Mof_H 	H 	0.1698	0.5462	0.8721	0.323
Mof_C 	C 	0.105	0.1048	0.828	-1.008
Mof_H 	H 	0.1199	0.1415	0.857	0.298
Mof_H 	H 	0.1449	0.1053	0.8079	0.309
Mof_H 	H 	0.0683	0.1702	0.8163	0.313
Mof_C 	C 	0.1987	0.8413	0.8498	0.375
Mof_C 	C 	0.255	0.7953	0.8225	-0.47
Mof_H 	H 	0.2451	0.7502	0.7948	0.162
Mof_C 	C 	0.3249	0.8151	0.8356	0.375
Mof_C 	C 	0.3393	0.8875	0.8772	-0.45
Mof_H 	H 	0.3862	0.9041	0.886	0.174
Mof_C 	C 	0.2836	0.9344	0.9051	0.368
Mof_C 	C 	0.2137	0.9119	0.8911	-0.453
Mof_H 	H 	0.1764	0.944	0.9093	0.174
Mof_C 	C 	0.3875	0.7611	0.8091	-0.496
Mof_C 	C 	0.4018	0.6047	0.8066	0.512
Mof_C 	C 	0.4669	0.553	0.7876	-0.547
Mof_H 	H 	0.4771	0.449	0.7861	0.21
Mof_C 	C 	0.5144	0.6586	0.7714	0.456
Mof_C 	C 	0.4995	0.8141	0.7717	-0.572
Mof_H 	H 	0.5317	0.8834	0.7596	0.227
Mof_C 	C 	0.4356	0.8659	0.7904	0.528
Mof_C 	C 	0.4219	0.0378	0.7908	-1.029
Mof_H 	H 	0.4412	0.0814	0.8178	0.321
Mof_H 	H 	0.4443	0.0838	0.7652	0.327
Mof_H 	H 	0.3715	0.0564	0.7895	0.309
Mof_C 	C 	0.3513	0.4866	0.825	-0.984
Mof_H 	H 	0.3402	0.5107	0.8557	0.296
Mof_H 	H 	0.3083	0.4863	0.8074	0.289
Mof_H 	H 	0.3732	0.3874	0.8236	0.289
Mof_C 	C 	0.6049	0.4681	0.7643	-0.178
Mof_H 	H 	0.598	0.447	0.796	0.1
Mof_H 	H 	0.578	0.3936	0.7471	0.108
Mof_C 	C 	0.6837	0.4565	0.7527	0.394
Mof_C 	C 	0.2972	0.0079	0.9501	-0.478
Mof_C 	C 	0.2907	0.1681	0.9552	0.509
Mof_C 	C 	0.301	0.2338	0.997	-0.533
Mof_H 	H 	0.2964	0.339	0.0005	0.206
Mof_C 	C 	0.3184	0.1427	0.0341	0.441
Mof_C 	C 	0.3261	0.9855	0.0291	-0.541
Mof_H 	H 	0.3382	0.9252	0.0537	0.212
Mof_C 	C 	0.3156	0.918	0.9867	0.53
Mof_C 	C 	0.3215	0.7455	0.9833	-1.033
Mof_H 	H 	0.3337	0.7039	0.0122	0.324
Mof_H 	H 	0.2767	0.7039	0.9735	0.318
Mof_H 	H 	0.3578	0.7194	0.962	0.321
Mof_C 	C 	0.2695	0.2656	0.9153	-0.972
Mof_H 	H 	0.2714	0.3717	0.9236	0.282
Mof_H 	H 	0.3018	0.2472	0.8909	0.29
Mof_H 	H 	0.222	0.2397	0.906	0.29
Mof_C 	C 	0.3366	0.1271	0.1131	-0.141
Mof_H 	H 	0.3016	0.0455	0.1137	0.086
Mof_H 	H 	0.3836	0.0812	0.1126	0.078
Mof_C 	C 	0.3289	0.2258	0.1548	0.36
Mof_Zn	Zn	0.68267	0.77931	0.74934	1.246
Mof_O 	O 	0.6089	0.0812	0.73759	-0.298
Mof_C 	C 	0.6277	0.0256	0.7021	0.346
Mof_O 	O 	0.6472	0.8869	0.69594	-0.447
Mof_C 	C 	0.6306	0.1215	0.6592	-0.15
Mof_H 	H 	0.6061	0.0671	0.6353	0.08
Mof_H 	H 	0.6799	0.1338	0.6503	0.109
Mof_O 	O 	0.5991	0.2688	0.66432	-0.249
Mof_C 	C 	0.5259	0.2741	0.6648	0.46
Mof_O 	O 	0.7887	0.8296	0.73904	-0.399
Mof_C 	C 	0.4812	0.1489	0.6615	-0.578
Mof_H 	H 	0.5002	0.0507	0.661	0.22
Mof_O 	O 	0.785	0.0692	0.76437	-0.435
Mof_C 	C 	0.4076	0.169	0.659	0.558
Mof_O 	O 	0.9192	0.1178	0.74594	-0.342
Mof_C 	C 	0.3789	0.316	0.6609	-0.507
Mof_O 	O 	0.1737	0.7191	0.42648	-0.258
Mof_C 	C 	0.4234	0.4431	0.6675	0.534
Mof_O 	O 	0.1826	0.8641	0.34646	-0.287
Mof_C 	C 	0.497	0.421	0.6688	-0.551
Mof_H 	H 	0.5271	0.5046	0.6723	0.231
Mof_O 	O 	0.1659	0.6433	0.30962	-0.437
Mof_C 	C 	0.3613	0.0312	0.6532	-1.062
Mof_H 	H 	0.3906	0.9429	0.6481	0.312
Mof_H 	H 	0.3335	0.0162	0.6798	0.315
Mof_H 	H 	0.3302	0.0462	0.6279	0.321
Mof_C 	C 	0.395	0.6048	0.672	-1.016
Mof_H 	H 	0.3801	0.6415	0.643	0.3
Mof_H 	H 	0.3551	0.6053	0.6921	0.31
Mof_H 	H 	0.4317	0.6702	0.6837	0.315
Mof_C 	C 	0.3013	0.3413	0.6502	0.379
Mof_C 	C 	0.245	0.2953	0.6775	-0.473
Mof_H 	H 	0.2549	0.2502	0.7052	0.163
Mof_C 	C 	0.1751	0.3151	0.6644	0.38
Mof_C 	C 	0.1607	0.3875	0.6228	-0.454
Mof_H 	H 	0.1138	0.4041	0.614	0.176
Mof_C 	C 	0.2164	0.4344	0.5949	0.375
Mof_C 	C 	0.2863	0.4119	0.6089	-0.457
Mof_H 	H 	0.3236	0.444	0.5907	0.176
Mof_C 	C 	0.1125	0.2611	0.6909	-0.5
Mof_C 	C 	0.0982	0.1047	0.6934	0.517
Mof_C 	C 	0.0331	0.053	0.7124	-0.541
Mof_H 	H 	0.0229	0.949	0.7139	0.206
Mof_C 	C 	0.9856	0.1586	0.7286	0.452
Mof_C 	C 	0.0005	0.3141	0.7283	-0.57
Mof_H 	H 	0.9683	0.3834	0.7404	0.227
Mof_C 	C 	0.0644	0.3659	0.7096	0.533
Mof_C 	C 	0.0781	0.5378	0.7092	-1.037
Mof_H 	H 	0.0588	0.5814	0.6822	0.322
Mof_H 	H 	0.0557	0.5838	0.7348	0.329
Mof_H 	H 	0.1285	0.5564	0.7105	0.31
Mof_C 	C 	0.1487	0.9866	0.675	-1.003
Mof_H 	H 	0.1598	0.0107	0.6443	0.303
Mof_H 	H 	0.1917	0.9863	0.6926	0.293
Mof_H 	H 	0.1268	0.8874	0.6764	0.294
Mof_C 	C 	0.8951	0.9681	0.7357	-0.181
Mof_H 	H 	0.902	0.947	0.704	0.1
Mof_H 	H 	0.922	0.8936	0.7529	0.108
Mof_C 	C 	0.8163	0.9565	0.7473	0.391
Mof_C 	C 	0.2028	0.5079	0.5499	-0.488
Mof_C 	C 	0.2093	0.6681	0.5448	0.516
Mof_C 	C 	0.199	0.7338	0.503	-0.543
Mof_H 	H 	0.2036	0.839	0.4995	0.21
Mof_C 	C 	0.1816	0.6427	0.4659	0.449
Mof_C 	C 	0.1739	0.4855	0.4709	-0.55
Mof_H 	H 	0.1618	0.4252	0.4463	0.214
Mof_C 	C 	0.1844	0.418	0.5133	0.539
Mof_C 	C 	0.1785	0.2455	0.5167	-1.043
Mof_H 	H 	0.1663	0.2039	0.4878	0.327
Mof_H 	H 	0.2233	0.2039	0.5265	0.321
Mof_H 	H 	0.1422	0.2194	0.538	0.324
Mof_C 	C 	0.2305	0.7656	0.5847	-0.978
Mof_H 	H 	0.2286	0.8717	0.5764	0.283
Mof_H 	H 	0.1982	0.7472	0.6091	0.291
Mof_H 	H 	0.278	0.7397	0.594	0.291
Mof_C 	C 	0.1634	0.6271	0.3869	-0.14
Mof_H 	H 	0.1984	0.5455	0.3863	0.087
Mof_H 	H 	0.1164	0.5812	0.3874	0.078
Mof_C 	C 	0.1711	0.7258	0.3452	0.359
_end
