data_functionalizedCrystal
_audit_creation_method	'EQeq! by Chris Wilmer'
_symmetry_space_group_name_H-M	'P1'
_symmetry_Int_Tables_number	1
_symmetry_cell_setting	triclinic
loop_
_symmetry_equiv_pos_as_xyz
  x,y,z
_cell_length_a	7.1782
_cell_length_b	15.4441
_cell_length_c	15.4441
_cell_angle_alpha	119.448
_cell_angle_beta	90
_cell_angle_gamma	90
loop_
_atom_site_label
_atom_site_type_symbol
_atom_site_fract_x
_atom_site_fract_y
_atom_site_fract_z
_atom_site_charge
Mof_Yb	Yb	0.7686	0.3664	0.3664	1.755
Mof_Yb	Yb	0.2686	0.6336	0.6336	1.889
Mof_Na	Na	0.7748	0.6795	0.6795	2.857
Mof_Na	Na	0.2748	0.3205	0.3205	3.253
Mof_H 	H 	0.8138	0.3107	0.0243	-0.174
Mof_H 	H 	0.2917	0.3053	0.1107	-0.248
Mof_H 	H 	0.7041	0.3013	0.8803	0.22
Mof_H 	H 	0.1688	0.2992	0.9664	0.231
Mof_H 	H 	0.4573	0.1943	0.6351	0.155
Mof_H 	H 	0.4245	0.4727	0.8909	0.146
Mof_H 	H 	0.5382	0.2763	0.5493	-0.083
Mof_H 	H 	0.5176	0.5423	0.7917	-0.092
Mof_H 	H 	0.3138	0.6893	0.9757	-0.084
Mof_H 	H 	0.7917	0.6947	0.8893	-0.175
Mof_H 	H 	0.2041	0.6987	0.1197	0.159
Mof_H 	H 	0.6688	0.7008	0.0336	0.144
Mof_H 	H 	0.9573	0.8057	0.3649	0.232
Mof_H 	H 	0.9245	0.5273	0.1091	0.213
Mof_H 	H 	0.0382	0.7237	0.4507	-0.163
Mof_H 	H 	0.0176	0.4577	0.2083	-0.17
Mof_H 	H 	0.3138	0.9757	0.6893	-0.084
Mof_H 	H 	0.7917	0.8893	0.6947	-0.175
Mof_H 	H 	0.2041	0.1197	0.6987	0.159
Mof_H 	H 	0.6688	0.0336	0.7008	0.144
Mof_H 	H 	0.9573	0.3649	0.8057	0.232
Mof_H 	H 	0.9245	0.1091	0.5273	0.213
Mof_H 	H 	0.0382	0.4507	0.7237	-0.163
Mof_H 	H 	0.0176	0.2083	0.4577	-0.17
Mof_H 	H 	0.8138	0.0243	0.3107	-0.174
Mof_H 	H 	0.2917	0.1107	0.3053	-0.248
Mof_H 	H 	0.7041	0.8803	0.3013	0.22
Mof_H 	H 	0.1688	0.9664	0.2992	0.231
Mof_H 	H 	0.4573	0.6351	0.1943	0.155
Mof_H 	H 	0.4245	0.8909	0.4727	0.146
Mof_H 	H 	0.5382	0.5493	0.2763	-0.083
Mof_H 	H 	0.5176	0.7917	0.5423	-0.092
Mof_C 	C 	0.6339	0.3187	0.1767	1.111
Mof_C 	C 	0.5663	0.3132	0.0874	-0.711
Mof_C 	C 	0.6859	0.3091	0.0141	0.481
Mof_C 	C 	0.374	0.3064	0.0648	0.471
Mof_C 	C 	0.621	0.303	0.9274	-0.529
Mof_C 	C 	0.296	0.3013	0.9781	-0.489
Mof_C 	C 	0.432	0.2995	0.9117	0.426
Mof_C 	C 	0.446	0.3252	0.7688	0.292
Mof_C 	C 	0.4709	0.2629	0.6665	-0.326
Mof_C 	C 	0.452	0.4343	0.8235	-0.317
Mof_C 	C 	0.517	0.3127	0.6175	0.244
Mof_C 	C 	0.504	0.4737	0.7633	0.249
Mof_C 	C 	0.535	0.4158	0.6648	-0.337
Mof_C 	C 	0.5907	0.4639	0.6009	0.504
Mof_C 	C 	0.1339	0.6813	0.8233	0.966
Mof_C 	C 	0.0663	0.6868	0.9126	-0.451
Mof_C 	C 	0.1859	0.6909	0.9859	0.31
Mof_C 	C 	0.874	0.6936	0.9352	0.224
Mof_C 	C 	0.121	0.697	0.0726	-0.286
Mof_C 	C 	0.796	0.6987	0.0219	-0.335
Mof_C 	C 	0.932	0.7005	0.0883	0.228
Mof_C 	C 	0.946	0.6748	0.2312	0.413
Mof_C 	C 	0.9709	0.7371	0.3335	-0.63
Mof_C 	C 	0.952	0.5657	0.1765	-0.588
Mof_C 	C 	0.017	0.6873	0.3825	0.562
Mof_C 	C 	0.004	0.5263	0.2367	0.547
Mof_C 	C 	0.035	0.5842	0.3352	-0.515
Mof_C 	C 	0.0907	0.5361	0.3991	0.59
Mof_C 	C 	0.1339	0.8233	0.6813	0.966
Mof_C 	C 	0.0663	0.9126	0.6868	-0.451
Mof_C 	C 	0.1859	0.9859	0.6909	0.31
Mof_C 	C 	0.874	0.9352	0.6936	0.224
Mof_C 	C 	0.121	0.0726	0.697	-0.286
Mof_C 	C 	0.796	0.0219	0.6987	-0.335
Mof_C 	C 	0.932	0.0883	0.7005	0.228
Mof_C 	C 	0.946	0.2312	0.6748	0.413
Mof_C 	C 	0.9709	0.3335	0.7371	-0.63
Mof_C 	C 	0.952	0.1765	0.5657	-0.588
Mof_C 	C 	0.017	0.3825	0.6873	0.562
Mof_C 	C 	0.004	0.2367	0.5263	0.547
Mof_C 	C 	0.035	0.3352	0.5842	-0.515
Mof_C 	C 	0.0907	0.3991	0.5361	0.59
Mof_C 	C 	0.6339	0.1767	0.3187	1.111
Mof_C 	C 	0.5663	0.0874	0.3132	-0.711
Mof_C 	C 	0.6859	0.0141	0.3091	0.481
Mof_C 	C 	0.374	0.0648	0.3064	0.471
Mof_C 	C 	0.621	0.9274	0.303	-0.529
Mof_C 	C 	0.296	0.9781	0.3013	-0.489
Mof_C 	C 	0.432	0.9117	0.2995	0.426
Mof_C 	C 	0.446	0.7688	0.3252	0.292
Mof_C 	C 	0.4709	0.6665	0.2629	-0.326
Mof_C 	C 	0.452	0.8235	0.4343	-0.317
Mof_C 	C 	0.517	0.6175	0.3127	0.244
Mof_C 	C 	0.504	0.7633	0.4737	0.249
Mof_C 	C 	0.535	0.6648	0.4158	-0.337
Mof_C 	C 	0.5907	0.6009	0.4639	0.504
Mof_O 	O 	0.775	0.312	0.1914	-0.838
Mof_O 	O 	0.5292	0.3341	0.2477	-1.1
Mof_O 	O 	0.3518	0.2793	0.8185	-0.31
Mof_O 	O 	0.6686	0.4135	0.5209	-0.633
Mof_O 	O 	0.5462	0.5606	0.6406	-0.848
Mof_O 	O 	0.275	0.688	0.8086	-0.758
Mof_O 	O 	0.0292	0.6659	0.7523	-0.978
Mof_O 	O 	0.8518	0.7207	0.1815	-0.323
Mof_O 	O 	0.1686	0.5865	0.4791	-0.642
Mof_O 	O 	0.0462	0.4394	0.3594	-0.862
Mof_O 	O 	0.275	0.8086	0.688	-0.758
Mof_O 	O 	0.0292	0.7523	0.6659	-0.978
Mof_O 	O 	0.8518	0.1815	0.7207	-0.323
Mof_O 	O 	0.1686	0.4791	0.5865	-0.642
Mof_O 	O 	0.0462	0.3594	0.4394	-0.862
Mof_O 	O 	0.775	0.1914	0.312	-0.838
Mof_O 	O 	0.5292	0.2477	0.3341	-1.1
Mof_O 	O 	0.3518	0.8185	0.2793	-0.31
Mof_O 	O 	0.6686	0.5209	0.4135	-0.633
Mof_O 	O 	0.5462	0.6406	0.5606	-0.848
_end
