data_functionalizedCrystal
_audit_creation_method	'EQeq! by Chris Wilmer'
_symmetry_space_group_name_H-M	'P1'
_symmetry_Int_Tables_number	1
_symmetry_cell_setting	triclinic
loop_
_symmetry_equiv_pos_as_xyz
  x,y,z
_cell_length_a	6.901
_cell_length_b	14.7
_cell_length_c	15.012
_cell_angle_alpha	90
_cell_angle_beta	90
_cell_angle_gamma	90
loop_
_atom_site_label
_atom_site_type_symbol
_atom_site_fract_x
_atom_site_fract_y
_atom_site_fract_z
_atom_site_charge
Mof_Sr	Sr	0.8556	0.19228	0.54638	1.497
Mof_O 	O 	0.995	0.34777	0.47821	-0.525
Mof_O 	O 	0.7191	0.2996	0.41966	-0.537
Mof_O 	O 	0.0149	0.6021	0.079	-0.465
Mof_O 	O 	0.8139	0.7003	0.1455	-0.476
Mof_C 	C 	0.8587	0.3543	0.4234	0.399
Mof_C 	C 	0.9092	0.6272	0.1418	0.405
Mof_C 	C 	0.8637	0.4297	0.3548	-0.172
Mof_C 	C 	0.8607	0.4058	0.2671	-0.006
Mof_H 	H 	0.8429	0.3451	0.2516	0.013
Mof_C 	C 	0.8841	0.4711	0.1997	-0.034
Mof_H 	H 	0.8939	0.4524	0.1407	0.036
Mof_C 	C 	0.8928	0.5609	0.2194	-0.118
Mof_C 	C 	0.884	0.5896	0.3115	0.021
Mof_C 	C 	0.878	0.5223	0.3778	0.043
Mof_C 	C 	0.8794	0.551	0.4691	-0.107
Mof_H 	H 	0.876	0.5076	0.5141	0.058
Mof_C 	C 	0.8857	0.6407	0.491	-0.019
Mof_H 	H 	0.8886	0.6578	0.5506	0.025
Mof_C 	C 	0.8878	0.707	0.4251	-0.046
Mof_H 	H 	0.8905	0.7681	0.4412	0.036
Mof_C 	C 	0.886	0.684	0.3376	-0.075
Mof_H 	H 	0.8862	0.7292	0.2943	0.051
Mof_Sr	Sr	0.6444	0.80772	0.04638	1.487
Mof_O 	O 	0.505	0.65223	0.97821	-0.524
Mof_O 	O 	0.7809	0.7004	0.91966	-0.535
Mof_O 	O 	0.4851	0.3979	0.579	-0.469
Mof_O 	O 	0.6861	0.2997	0.6455	-0.477
Mof_C 	C 	0.6413	0.6457	0.9234	0.399
Mof_C 	C 	0.5908	0.3728	0.6418	0.409
Mof_C 	C 	0.6363	0.5703	0.8548	-0.17
Mof_C 	C 	0.6393	0.5942	0.7671	-0.007
Mof_H 	H 	0.6571	0.6549	0.7516	0.014
Mof_C 	C 	0.6159	0.5289	0.6997	-0.032
Mof_H 	H 	0.6061	0.5476	0.6407	0.036
Mof_C 	C 	0.6072	0.4391	0.7194	-0.119
Mof_C 	C 	0.616	0.4104	0.8115	0.023
Mof_C 	C 	0.622	0.4777	0.8778	0.041
Mof_C 	C 	0.6206	0.449	0.9691	-0.103
Mof_H 	H 	0.624	0.4924	0.0141	0.055
Mof_C 	C 	0.6143	0.3593	0.991	-0.017
Mof_H 	H 	0.6114	0.3422	0.0506	0.023
Mof_C 	C 	0.6122	0.293	0.9251	-0.047
Mof_H 	H 	0.6095	0.2319	0.9412	0.036
Mof_C 	C 	0.614	0.316	0.8376	-0.075
Mof_H 	H 	0.6138	0.2708	0.7943	0.052
Mof_Sr	Sr	0.1444	0.69228	0.95362	1.489
Mof_O 	O 	0.005	0.84777	0.02179	-0.524
Mof_O 	O 	0.2809	0.7996	0.08034	-0.537
Mof_O 	O 	0.9851	0.1021	0.421	-0.469
Mof_O 	O 	0.1861	0.2003	0.3545	-0.477
Mof_C 	C 	0.1413	0.8543	0.0766	0.399
Mof_C 	C 	0.0908	0.1272	0.3582	0.408
Mof_C 	C 	0.1363	0.9297	0.1452	-0.172
Mof_C 	C 	0.1393	0.9058	0.2329	-0.006
Mof_H 	H 	0.1571	0.8451	0.2484	0.013
Mof_C 	C 	0.1159	0.9711	0.3003	-0.034
Mof_H 	H 	0.1061	0.9524	0.3593	0.037
Mof_C 	C 	0.1072	0.0609	0.2806	-0.118
Mof_C 	C 	0.116	0.0896	0.1885	0.021
Mof_C 	C 	0.122	0.0223	0.1222	0.043
Mof_C 	C 	0.1206	0.051	0.0309	-0.103
Mof_H 	H 	0.124	0.0076	0.9859	0.054
Mof_C 	C 	0.1143	0.1407	0.009	-0.013
Mof_H 	H 	0.1114	0.1578	0.9494	0.02
Mof_C 	C 	0.1122	0.207	0.0749	-0.049
Mof_H 	H 	0.1095	0.2681	0.0588	0.038
Mof_C 	C 	0.114	0.184	0.1624	-0.073
Mof_H 	H 	0.1138	0.2292	0.2057	0.051
Mof_Sr	Sr	0.3556	0.30772	0.45362	1.493
Mof_O 	O 	0.495	0.15223	0.52179	-0.527
Mof_O 	O 	0.2191	0.2004	0.58034	-0.539
Mof_O 	O 	0.5149	0.8979	0.921	-0.466
Mof_O 	O 	0.3139	0.7997	0.8545	-0.476
Mof_C 	C 	0.3587	0.1457	0.5766	0.4
Mof_C 	C 	0.4092	0.8728	0.8582	0.408
Mof_C 	C 	0.3637	0.0703	0.6452	-0.174
Mof_C 	C 	0.3607	0.0942	0.7329	-0.004
Mof_H 	H 	0.3429	0.1549	0.7484	0.012
Mof_C 	C 	0.3841	0.0289	0.8003	-0.036
Mof_H 	H 	0.3939	0.0476	0.8593	0.037
Mof_C 	C 	0.3928	0.9391	0.7806	-0.117
Mof_C 	C 	0.384	0.9104	0.6885	0.021
Mof_C 	C 	0.378	0.9777	0.6222	0.044
Mof_C 	C 	0.3794	0.949	0.5309	-0.108
Mof_H 	H 	0.376	0.9924	0.4859	0.058
Mof_C 	C 	0.3857	0.8593	0.509	-0.018
Mof_H 	H 	0.3886	0.8422	0.4494	0.024
Mof_C 	C 	0.3878	0.793	0.5749	-0.047
Mof_H 	H 	0.3905	0.7319	0.5588	0.036
Mof_C 	C 	0.386	0.816	0.6624	-0.074
Mof_H 	H 	0.3862	0.7708	0.7057	0.051
_end
