data_functionalizedCrystal
_audit_creation_method	'EQeq! by Chris Wilmer'
_symmetry_space_group_name_H-M	'P1'
_symmetry_Int_Tables_number	1
_symmetry_cell_setting	triclinic
loop_
_symmetry_equiv_pos_as_xyz
  x,y,z
_cell_length_a	12.8068
_cell_length_b	14.5574
_cell_length_c	19.1276
_cell_angle_alpha	106.66
_cell_angle_beta	105.621
_cell_angle_gamma	93.691
loop_
_atom_site_label
_atom_site_type_symbol
_atom_site_fract_x
_atom_site_fract_y
_atom_site_fract_z
_atom_site_charge
Mof_Tb	Tb	0.66053	0.38318	0.28063	2.09
Mof_Tb	Tb	0.90424	0.11818	0.78064	2.08
Mof_Tb	Tb	0.3907	0.1135	0.26324	2.295
Mof_Tb	Tb	0.15429	0.37477	0.76213	2.298
Mof_Tb	Tb	0.33947	0.61682	0.71937	2.09
Mof_Tb	Tb	0.09576	0.88182	0.21936	2.08
Mof_Tb	Tb	0.6093	0.8865	0.73676	2.295
Mof_Tb	Tb	0.84571	0.62523	0.23787	2.298
Mof_H 	H 	0.3578	0.3549	0.9429	0.014
Mof_H 	H 	0.4797	0.3614	0.0687	0.021
Mof_H 	H 	0.6472	0.9691	0.9459	0.029
Mof_H 	H 	0.6182	0.0414	0.0716	0.049
Mof_H 	H 	0.1276	0.9655	0.4259	0.003
Mof_H 	H 	0.1004	0.0379	0.5517	0.043
Mof_H 	H 	0.6965	0.1447	0.6016	0.023
Mof_H 	H 	0.5693	0.1437	0.4797	0.017
Mof_H 	H 	0.7716	0.4641	0.8145	0.053
Mof_H 	H 	0.5996	0.5354	0.8031	0.01
Mof_H 	H 	0.7268	0.5366	0.6765	0.035
Mof_H 	H 	0.8932	0.459	0.6753	0.027
Mof_H 	H 	0.5624	0.1067	0.1952	0.286
Mof_H 	H 	0.9646	0.3822	0.8096	0.285
Mof_H 	H 	0.6422	0.6451	0.0571	0.014
Mof_H 	H 	0.5203	0.6386	0.9313	0.021
Mof_H 	H 	0.3528	0.0309	0.0541	0.029
Mof_H 	H 	0.3818	0.9586	0.9284	0.049
Mof_H 	H 	0.8724	0.0345	0.5741	0.003
Mof_H 	H 	0.8996	0.9621	0.4483	0.043
Mof_H 	H 	0.3035	0.8553	0.3984	0.023
Mof_H 	H 	0.4307	0.8563	0.5203	0.017
Mof_H 	H 	0.2284	0.5359	0.1855	0.053
Mof_H 	H 	0.4004	0.4646	0.1969	0.01
Mof_H 	H 	0.2732	0.4634	0.3235	0.035
Mof_H 	H 	0.1068	0.541	0.3247	0.027
Mof_H 	H 	0.4376	0.8933	0.8048	0.286
Mof_H 	H 	0.0354	0.6178	0.1904	0.285
Mof_C 	C 	0.7635	0.262	0.7936	0.342
Mof_C 	C 	0.1467	0.2417	0.886	0.562
Mof_C 	C 	0.2421	0.261	0.9545	-0.187
Mof_C 	C 	0.3393	0.3199	0.9739	0.025
Mof_C 	C 	0.4092	0.3228	0.0455	0.02
Mof_C 	C 	0.3656	0.2651	0.0778	-0.181
Mof_C 	C 	0.7741	0.0827	0.8907	0.513
Mof_C 	C 	0.7339	0.1003	0.9579	-0.166
Mof_C 	C 	0.6735	0.0346	0.977	0.029
Mof_C 	C 	0.6556	0.0765	0.0484	-0.031
Mof_C 	C 	0.6974	0.1719	0.08	-0.099
Mof_C 	C 	0.6889	0.2409	0.1504	0.344
Mof_C 	C 	0.2648	0.0737	0.3742	0.5
Mof_C 	C 	0.2244	0.092	0.4412	-0.177
Mof_C 	C 	0.1585	0.0297	0.4583	0.037
Mof_C 	C 	0.1418	0.0716	0.5297	-0.037
Mof_C 	C 	0.1909	0.1653	0.5639	-0.093
Mof_C 	C 	0.7437	0.741	0.7139	0.345
Mof_C 	C 	0.9117	0.2485	0.6536	0.546
Mof_C 	C 	0.8133	0.2331	0.5864	-0.174
Mof_C 	C 	0.7144	0.1787	0.5698	0.011
Mof_C 	C 	0.6419	0.1784	0.5004	0.026
Mof_C 	C 	0.6864	0.2332	0.466	-0.194
Mof_C 	C 	0.6852	0.331	0.797	-0.094
Mof_C 	C 	0.702	0.4284	0.8057	-0.038
Mof_C 	C 	0.6039	0.4695	0.8	0.03
Mof_C 	C 	0.5162	0.4032	0.7897	-0.175
Mof_C 	C 	0.4012	0.4174	0.7837	0.503
Mof_C 	C 	0.1857	0.2333	0.6351	0.341
Mof_C 	C 	0.6378	0.2468	0.3914	0.573
Mof_C 	C 	0.4137	0.2509	0.1524	0.56
Mof_C 	C 	0.8184	0.67	0.7029	-0.098
Mof_C 	C 	0.9826	0.5938	0.7002	-0.16
Mof_C 	C 	0.0961	0.5778	0.7035	0.507
Mof_C 	C 	0.7973	0.5713	0.6862	-0.027
Mof_C 	C 	0.8921	0.5267	0.6851	0.026
Mof_C 	C 	0.2365	0.738	0.2064	0.342
Mof_C 	C 	0.8533	0.7583	0.114	0.562
Mof_C 	C 	0.7579	0.739	0.0455	-0.187
Mof_C 	C 	0.6607	0.6801	0.0261	0.025
Mof_C 	C 	0.5908	0.6772	0.9545	0.02
Mof_C 	C 	0.6344	0.7349	0.9222	-0.181
Mof_C 	C 	0.2259	0.9173	0.1093	0.513
Mof_C 	C 	0.2661	0.8997	0.0421	-0.166
Mof_C 	C 	0.3265	0.9654	0.023	0.029
Mof_C 	C 	0.3444	0.9235	0.9516	-0.031
Mof_C 	C 	0.3026	0.8281	0.92	-0.099
Mof_C 	C 	0.3111	0.7591	0.8496	0.344
Mof_C 	C 	0.7352	0.9263	0.6258	0.5
Mof_C 	C 	0.7756	0.908	0.5588	-0.177
Mof_C 	C 	0.8415	0.9703	0.5417	0.037
Mof_C 	C 	0.8582	0.9284	0.4703	-0.037
Mof_C 	C 	0.8091	0.8347	0.4361	-0.093
Mof_C 	C 	0.2563	0.259	0.2861	0.345
Mof_C 	C 	0.0883	0.7515	0.3464	0.546
Mof_C 	C 	0.1867	0.7669	0.4136	-0.174
Mof_C 	C 	0.2856	0.8213	0.4302	0.011
Mof_C 	C 	0.3581	0.8216	0.4996	0.026
Mof_C 	C 	0.3136	0.7668	0.534	-0.194
Mof_C 	C 	0.3148	0.669	0.203	-0.094
Mof_C 	C 	0.298	0.5716	0.1943	-0.038
Mof_C 	C 	0.3961	0.5305	0.2	0.03
Mof_C 	C 	0.4838	0.5968	0.2103	-0.175
Mof_C 	C 	0.5988	0.5826	0.2163	0.503
Mof_C 	C 	0.8143	0.7667	0.3649	0.341
Mof_C 	C 	0.3622	0.7532	0.6086	0.573
Mof_C 	C 	0.5863	0.7491	0.8476	0.56
Mof_C 	C 	0.1816	0.33	0.2971	-0.098
Mof_C 	C 	0.0174	0.4062	0.2998	-0.16
Mof_C 	C 	0.9039	0.4222	0.2965	0.507
Mof_C 	C 	0.2027	0.4287	0.3138	-0.027
Mof_C 	C 	0.1079	0.4733	0.3149	0.026
Mof_S 	S 	0.55117	0.29084	0.78409	0.077
Mof_S 	S 	0.23747	0.20633	0.02154	0.103
Mof_S 	S 	0.81781	0.28609	0.5184	0.096
Mof_S 	S 	0.76468	0.21211	0.02578	0.084
Mof_S 	S 	0.26247	0.20272	0.51062	0.066
Mof_S 	S 	0.95241	0.70862	0.71462	0.072
Mof_S 	S 	0.44883	0.70916	0.21591	0.077
Mof_S 	S 	0.76253	0.79367	0.97846	0.103
Mof_S 	S 	0.18219	0.71391	0.4816	0.096
Mof_S 	S 	0.23532	0.78789	0.97422	0.084
Mof_S 	S 	0.73753	0.79728	0.48938	0.066
Mof_S 	S 	0.04759	0.29138	0.28538	0.072
Mof_O 	O 	0.0648	0.1848	0.8796	-0.577
Mof_O 	O 	0.1517	0.2861	0.8397	-0.64
Mof_O 	O 	0.9861	0.3154	0.6663	-0.561
Mof_O 	O 	0.9128	0.1924	0.6925	-0.604
Mof_O 	O 	0.3479	0.1285	0.3788	-0.536
Mof_O 	O 	0.727	0.173	0.7596	-0.446
Mof_O 	O 	0.8647	0.2904	0.8246	-0.415
Mof_O 	O 	0.8532	0.1399	0.8945	-0.513
Mof_O 	O 	0.7253	0.0114	0.833	-0.626
Mof_O 	O 	0.6678	0.21	0.2015	-0.416
Mof_O 	O 	0.7006	0.3301	0.1592	-0.447
Mof_O 	O 	0.2139	0.0041	0.3154	-0.626
Mof_O 	O 	0.7846	0.8297	0.7471	-0.465
Mof_O 	O 	0.6422	0.7144	0.6903	-0.438
Mof_O 	O 	0.5272	0.0587	0.1992	-0.567
Mof_O 	O 	0.3709	0.178	0.1628	-0.563
Mof_O 	O 	0.4914	0.312	0.199	-0.607
Mof_O 	O 	0.3685	0.489	0.7659	-0.635
Mof_O 	O 	0.3425	0.3559	0.7955	-0.538
Mof_O 	O 	0.1576	0.203	0.6837	-0.42
Mof_O 	O 	0.2069	0.3235	0.6462	-0.466
Mof_O 	O 	0.0141	0.4292	0.8203	-0.567
Mof_O 	O 	0.1291	0.5047	0.7191	-0.635
Mof_O 	O 	0.1544	0.6389	0.6911	-0.523
Mof_O 	O 	0.5501	0.1924	0.3493	-0.637
Mof_O 	O 	0.6862	0.311	0.3746	-0.597
Mof_O 	O 	0.9352	0.8152	0.1204	-0.577
Mof_O 	O 	0.8483	0.7139	0.1603	-0.64
Mof_O 	O 	0.0139	0.6846	0.3337	-0.561
Mof_O 	O 	0.0872	0.8076	0.3075	-0.604
Mof_O 	O 	0.6521	0.8715	0.6212	-0.536
Mof_O 	O 	0.273	0.827	0.2404	-0.446
Mof_O 	O 	0.1353	0.7096	0.1754	-0.415
Mof_O 	O 	0.1468	0.8601	0.1055	-0.513
Mof_O 	O 	0.2747	0.9886	0.167	-0.626
Mof_O 	O 	0.3322	0.79	0.7985	-0.416
Mof_O 	O 	0.2994	0.6699	0.8408	-0.447
Mof_O 	O 	0.7861	0.9959	0.6846	-0.626
Mof_O 	O 	0.2154	0.1703	0.2529	-0.465
Mof_O 	O 	0.3578	0.2856	0.3097	-0.438
Mof_O 	O 	0.4728	0.9413	0.8008	-0.567
Mof_O 	O 	0.6291	0.822	0.8372	-0.563
Mof_O 	O 	0.5086	0.688	0.801	-0.607
Mof_O 	O 	0.6315	0.511	0.2341	-0.635
Mof_O 	O 	0.6575	0.6441	0.2045	-0.538
Mof_O 	O 	0.8424	0.797	0.3163	-0.42
Mof_O 	O 	0.7931	0.6765	0.3538	-0.466
Mof_O 	O 	0.9859	0.5708	0.1797	-0.567
Mof_O 	O 	0.8709	0.4953	0.2809	-0.635
Mof_O 	O 	0.8456	0.3611	0.3089	-0.523
Mof_O 	O 	0.4499	0.8076	0.6507	-0.637
Mof_O 	O 	0.3138	0.689	0.6254	-0.597
_end
