data_functionalizedCrystal
_audit_creation_method	'EQeq! by Chris Wilmer'
_symmetry_space_group_name_H-M	'P1'
_symmetry_Int_Tables_number	1
_symmetry_cell_setting	triclinic
loop_
_symmetry_equiv_pos_as_xyz
  x,y,z
_cell_length_a	16.363
_cell_length_b	16.363
_cell_length_c	19.196
_cell_angle_alpha	90
_cell_angle_beta	90
_cell_angle_gamma	120
loop_
_atom_site_label
_atom_site_type_symbol
_atom_site_fract_x
_atom_site_fract_y
_atom_site_fract_z
_atom_site_charge
Mof_Cu	Cu	0.77114	0.31792	0.50904	0.917
Mof_O 	O 	0.8611	0.3984	0.4376	-0.461
Mof_O 	O 	0.9123	0.4068	0.3291	-0.702
Mof_O 	O 	0.6665	0.2203	0.565	-0.53
Mof_O 	O 	0.592	0.1336	0.6572	-0.775
Mof_N 	N 	0.869	0.3145	0.5677	-0.234
Mof_H 	H 	0.8781	0.3561	0.6072	0.052
Mof_C 	C 	0.9344	0.3069	0.4069	-0.287
Mof_C 	C 	0.9382	0.2518	0.3527	0.136
Mof_H 	H 	0.9214	0.2587	0.3077	-0.072
Mof_C 	C 	0.9677	0.1855	0.3668	-0.235
Mof_H 	H 	0.968	0.1474	0.3309	0.084
Mof_C 	C 	0.9954	0.1765	0.4309	0.137
Mof_H 	H 	0.0152	0.133	0.4389	-0.031
Mof_C 	C 	0.9944	0.2311	0.4844	-0.227
Mof_H 	H 	0.0153	0.2257	0.5283	0.098
Mof_C 	C 	0.9621	0.2956	0.4739	0.156
Mof_C 	C 	0.8997	0.3745	0.3897	0.485
Mof_C 	C 	0.9629	0.3529	0.5353	-0.167
Mof_H 	H 	0.0071	0.3547	0.5698	0.044
Mof_H 	H 	0.9847	0.4172	0.5203	0.066
Mof_C 	C 	0.8349	0.2193	0.5987	0.1
Mof_H 	H 	0.8872	0.2175	0.621	-0.036
Mof_H 	H 	0.8108	0.1721	0.5621	-0.018
Mof_C 	C 	0.7572	0.1965	0.6522	-0.454
Mof_H 	H 	0.7453	0.1401	0.6774	0.083
Mof_H 	H 	0.7804	0.2478	0.6856	0.08
Mof_C 	C 	0.6649	0.1809	0.6234	0.565
Mof_Cu	Cu	0.68208	0.45322	0.50904	0.916
Mof_O 	O 	0.6016	0.4627	0.4376	-0.462
Mof_O 	O 	0.5932	0.5055	0.3291	-0.705
Mof_O 	O 	0.7797	0.4462	0.565	-0.53
Mof_O 	O 	0.8664	0.4584	0.6572	-0.775
Mof_N 	N 	0.6855	0.5545	0.5677	-0.235
Mof_H 	H 	0.6439	0.522	0.6072	0.052
Mof_C 	C 	0.6931	0.6275	0.4069	-0.285
Mof_C 	C 	0.7482	0.6864	0.3527	0.133
Mof_H 	H 	0.7413	0.6627	0.3077	-0.072
Mof_C 	C 	0.8145	0.7822	0.3668	-0.231
Mof_H 	H 	0.8526	0.8206	0.3309	0.082
Mof_C 	C 	0.8235	0.8189	0.4309	0.13
Mof_H 	H 	0.867	0.8822	0.4389	-0.027
Mof_C 	C 	0.7689	0.7633	0.4844	-0.222
Mof_H 	H 	0.7743	0.7896	0.5283	0.096
Mof_C 	C 	0.7044	0.6665	0.4739	0.153
Mof_C 	C 	0.6255	0.5252	0.3897	0.485
Mof_C 	C 	0.6471	0.61	0.5353	-0.164
Mof_H 	H 	0.6453	0.6524	0.5698	0.042
Mof_H 	H 	0.5828	0.5675	0.5203	0.065
Mof_C 	C 	0.7807	0.6156	0.5987	0.1
Mof_H 	H 	0.7825	0.6697	0.621	-0.035
Mof_H 	H 	0.8279	0.6387	0.5621	-0.018
Mof_C 	C 	0.8035	0.5607	0.6522	-0.454
Mof_H 	H 	0.8599	0.6052	0.6774	0.083
Mof_H 	H 	0.7522	0.5326	0.6856	0.08
Mof_C 	C 	0.8191	0.484	0.6234	0.565
Mof_Cu	Cu	0.54678	0.22886	0.50904	0.916
Mof_O 	O 	0.5373	0.1389	0.4376	-0.462
Mof_O 	O 	0.4945	0.0877	0.3291	-0.702
Mof_O 	O 	0.5538	0.3335	0.565	-0.53
Mof_O 	O 	0.5416	0.408	0.6572	-0.776
Mof_N 	N 	0.4455	0.131	0.5677	-0.234
Mof_H 	H 	0.478	0.1219	0.6072	0.052
Mof_C 	C 	0.3725	0.0656	0.4069	-0.286
Mof_C 	C 	0.3136	0.0618	0.3527	0.135
Mof_H 	H 	0.3373	0.0786	0.3077	-0.072
Mof_C 	C 	0.2178	0.0323	0.3668	-0.234
Mof_H 	H 	0.1794	0.032	0.3309	0.083
Mof_C 	C 	0.1811	0.0046	0.4309	0.136
Mof_H 	H 	0.1178	0.9848	0.4389	-0.03
Mof_C 	C 	0.2367	0.0056	0.4844	-0.227
Mof_H 	H 	0.2104	0.9847	0.5283	0.099
Mof_C 	C 	0.3335	0.0379	0.4739	0.156
Mof_C 	C 	0.4748	0.1003	0.3897	0.485
Mof_C 	C 	0.39	0.0371	0.5353	-0.168
Mof_H 	H 	0.3476	0.9929	0.5698	0.044
Mof_H 	H 	0.4325	0.0153	0.5203	0.066
Mof_C 	C 	0.3844	0.1651	0.5987	0.1
Mof_H 	H 	0.3303	0.1128	0.621	-0.035
Mof_H 	H 	0.3613	0.1892	0.5621	-0.018
Mof_C 	C 	0.4393	0.2428	0.6522	-0.455
Mof_H 	H 	0.3948	0.2547	0.6774	0.083
Mof_H 	H 	0.4674	0.2196	0.6856	0.08
Mof_C 	C 	0.516	0.3351	0.6234	0.566
Mof_Cu	Cu	0.22886	0.68208	0.00904	0.913
Mof_O 	O 	0.1389	0.6016	0.9376	-0.46
Mof_O 	O 	0.0877	0.5932	0.8291	-0.702
Mof_O 	O 	0.3335	0.7797	0.065	-0.532
Mof_O 	O 	0.408	0.8664	0.1572	-0.776
Mof_N 	N 	0.131	0.6855	0.0677	-0.232
Mof_H 	H 	0.1219	0.6439	0.1072	0.051
Mof_C 	C 	0.0656	0.6931	0.9069	-0.297
Mof_C 	C 	0.0618	0.7482	0.8527	0.15
Mof_H 	H 	0.0786	0.7413	0.8077	-0.077
Mof_C 	C 	0.0323	0.8145	0.8668	-0.254
Mof_H 	H 	0.032	0.8526	0.8309	0.092
Mof_C 	C 	0.0046	0.8235	0.9309	0.164
Mof_H 	H 	0.9848	0.867	0.9389	-0.043
Mof_C 	C 	0.0056	0.7689	0.9844	-0.238
Mof_H 	H 	0.9847	0.7743	0.0283	0.102
Mof_C 	C 	0.0379	0.7044	0.9739	0.178
Mof_C 	C 	0.1003	0.6255	0.8897	0.489
Mof_C 	C 	0.0371	0.6471	0.0353	-0.2
Mof_H 	H 	0.9929	0.6453	0.0698	0.057
Mof_H 	H 	0.0153	0.5828	0.0203	0.071
Mof_C 	C 	0.1651	0.7807	0.0987	0.101
Mof_H 	H 	0.1128	0.7825	0.121	-0.038
Mof_H 	H 	0.1892	0.8279	0.0621	-0.021
Mof_C 	C 	0.2428	0.8035	0.1522	-0.455
Mof_H 	H 	0.2547	0.8599	0.1774	0.083
Mof_H 	H 	0.2196	0.7522	0.1856	0.08
Mof_C 	C 	0.3351	0.8191	0.1234	0.565
Mof_Cu	Cu	0.31792	0.54678	0.00904	0.914
Mof_O 	O 	0.3984	0.5373	0.9376	-0.461
Mof_O 	O 	0.4068	0.4945	0.8291	-0.705
Mof_O 	O 	0.2203	0.5538	0.065	-0.531
Mof_O 	O 	0.1336	0.5416	0.1572	-0.776
Mof_N 	N 	0.3145	0.4455	0.0677	-0.235
Mof_H 	H 	0.3561	0.478	0.1072	0.052
Mof_C 	C 	0.3069	0.3725	0.9069	-0.286
Mof_C 	C 	0.2518	0.3136	0.8527	0.133
Mof_H 	H 	0.2587	0.3373	0.8077	-0.072
Mof_C 	C 	0.1855	0.2178	0.8668	-0.231
Mof_H 	H 	0.1474	0.1794	0.8309	0.082
Mof_C 	C 	0.1765	0.1811	0.9309	0.131
Mof_H 	H 	0.133	0.1178	0.9389	-0.028
Mof_C 	C 	0.2311	0.2367	0.9844	-0.223
Mof_H 	H 	0.2257	0.2104	0.0283	0.097
Mof_C 	C 	0.2956	0.3335	0.9739	0.154
Mof_C 	C 	0.3745	0.4748	0.8897	0.485
Mof_C 	C 	0.3529	0.39	0.0353	-0.165
Mof_H 	H 	0.3547	0.3476	0.0698	0.042
Mof_H 	H 	0.4172	0.4325	0.0203	0.065
Mof_C 	C 	0.2193	0.3844	0.0987	0.101
Mof_H 	H 	0.2175	0.3303	0.121	-0.036
Mof_H 	H 	0.1721	0.3613	0.0621	-0.02
Mof_C 	C 	0.1965	0.4393	0.1522	-0.455
Mof_H 	H 	0.1401	0.3948	0.1774	0.083
Mof_H 	H 	0.2478	0.4674	0.1856	0.08
Mof_C 	C 	0.1809	0.516	0.1234	0.565
Mof_Cu	Cu	0.45322	0.77114	0.00904	0.913
Mof_O 	O 	0.4627	0.8611	0.9376	-0.461
Mof_O 	O 	0.5055	0.9123	0.8291	-0.703
Mof_O 	O 	0.4462	0.6665	0.065	-0.531
Mof_O 	O 	0.4584	0.592	0.1572	-0.777
Mof_N 	N 	0.5545	0.869	0.0677	-0.231
Mof_H 	H 	0.522	0.8781	0.1072	0.05
Mof_C 	C 	0.6275	0.9344	0.9069	-0.304
Mof_C 	C 	0.6864	0.9382	0.8527	0.16
Mof_H 	H 	0.6627	0.9214	0.8077	-0.081
Mof_C 	C 	0.7822	0.9677	0.8668	-0.269
Mof_H 	H 	0.8206	0.968	0.8309	0.096
Mof_C 	C 	0.8189	0.9954	0.9309	0.186
Mof_H 	H 	0.8822	0.0152	0.9389	-0.054
Mof_C 	C 	0.7633	0.9944	0.9844	-0.269
Mof_H 	H 	0.7896	0.0153	0.0283	0.118
Mof_C 	C 	0.6665	0.9621	0.9739	0.186
Mof_C 	C 	0.5252	0.8997	0.8897	0.491
Mof_C 	C 	0.61	0.9629	0.0353	-0.2
Mof_H 	H 	0.6524	0.0071	0.0698	0.058
Mof_H 	H 	0.5675	0.9847	0.0203	0.072
Mof_C 	C 	0.6156	0.8349	0.0987	0.099
Mof_H 	H 	0.6697	0.8872	0.121	-0.036
Mof_H 	H 	0.6387	0.8108	0.0621	-0.018
Mof_C 	C 	0.5607	0.7572	0.1522	-0.454
Mof_H 	H 	0.6052	0.7453	0.1774	0.083
Mof_H 	H 	0.5326	0.7804	0.1856	0.08
Mof_C 	C 	0.484	0.6649	0.1234	0.566
Mof_Cu	Cu	0.22886	0.68208	0.49096	0.916
Mof_O 	O 	0.1389	0.6016	0.5624	-0.462
Mof_O 	O 	0.0877	0.5932	0.6709	-0.702
Mof_O 	O 	0.3335	0.7797	0.435	-0.53
Mof_O 	O 	0.408	0.8664	0.3428	-0.775
Mof_N 	N 	0.131	0.6855	0.4323	-0.234
Mof_H 	H 	0.1219	0.6439	0.3928	0.052
Mof_C 	C 	0.0656	0.6931	0.5931	-0.287
Mof_C 	C 	0.0618	0.7482	0.6473	0.136
Mof_H 	H 	0.0786	0.7413	0.6923	-0.072
Mof_C 	C 	0.0323	0.8145	0.6332	-0.235
Mof_H 	H 	0.032	0.8526	0.6691	0.084
Mof_C 	C 	0.0046	0.8235	0.5691	0.137
Mof_H 	H 	0.9848	0.867	0.5611	-0.031
Mof_C 	C 	0.0056	0.7689	0.5156	-0.227
Mof_H 	H 	0.9847	0.7743	0.4717	0.098
Mof_C 	C 	0.0379	0.7044	0.5261	0.156
Mof_C 	C 	0.1003	0.6255	0.6103	0.485
Mof_C 	C 	0.0371	0.6471	0.4647	-0.167
Mof_H 	H 	0.9929	0.6453	0.4302	0.044
Mof_H 	H 	0.0153	0.5828	0.4797	0.066
Mof_C 	C 	0.1651	0.7807	0.4013	0.1
Mof_H 	H 	0.1128	0.7825	0.379	-0.036
Mof_H 	H 	0.1892	0.8279	0.4379	-0.018
Mof_C 	C 	0.2428	0.8035	0.3478	-0.454
Mof_H 	H 	0.2547	0.8599	0.3226	0.083
Mof_H 	H 	0.2196	0.7522	0.3144	0.08
Mof_C 	C 	0.3351	0.8191	0.3766	0.565
Mof_Cu	Cu	0.31792	0.54678	0.49096	0.916
Mof_O 	O 	0.3984	0.5373	0.5624	-0.462
Mof_O 	O 	0.4068	0.4945	0.6709	-0.705
Mof_O 	O 	0.2203	0.5538	0.435	-0.53
Mof_O 	O 	0.1336	0.5416	0.3428	-0.775
Mof_N 	N 	0.3145	0.4455	0.4323	-0.235
Mof_H 	H 	0.3561	0.478	0.3928	0.052
Mof_C 	C 	0.3069	0.3725	0.5931	-0.285
Mof_C 	C 	0.2518	0.3136	0.6473	0.133
Mof_H 	H 	0.2587	0.3373	0.6923	-0.072
Mof_C 	C 	0.1855	0.2178	0.6332	-0.231
Mof_H 	H 	0.1474	0.1794	0.6691	0.082
Mof_C 	C 	0.1765	0.1811	0.5691	0.13
Mof_H 	H 	0.133	0.1178	0.5611	-0.027
Mof_C 	C 	0.2311	0.2367	0.5156	-0.222
Mof_H 	H 	0.2257	0.2104	0.4717	0.096
Mof_C 	C 	0.2956	0.3335	0.5261	0.153
Mof_C 	C 	0.3745	0.4748	0.6103	0.485
Mof_C 	C 	0.3529	0.39	0.4647	-0.164
Mof_H 	H 	0.3547	0.3476	0.4302	0.042
Mof_H 	H 	0.4172	0.4325	0.4797	0.065
Mof_C 	C 	0.2193	0.3844	0.4013	0.1
Mof_H 	H 	0.2175	0.3303	0.379	-0.035
Mof_H 	H 	0.1721	0.3613	0.4379	-0.018
Mof_C 	C 	0.1965	0.4393	0.3478	-0.454
Mof_H 	H 	0.1401	0.3948	0.3226	0.083
Mof_H 	H 	0.2478	0.4674	0.3144	0.08
Mof_C 	C 	0.1809	0.516	0.3766	0.565
Mof_Cu	Cu	0.45322	0.77114	0.49096	0.916
Mof_O 	O 	0.4627	0.8611	0.5624	-0.462
Mof_O 	O 	0.5055	0.9123	0.6709	-0.702
Mof_O 	O 	0.4462	0.6665	0.435	-0.53
Mof_O 	O 	0.4584	0.592	0.3428	-0.776
Mof_N 	N 	0.5545	0.869	0.4323	-0.234
Mof_H 	H 	0.522	0.8781	0.3928	0.052
Mof_C 	C 	0.6275	0.9344	0.5931	-0.286
Mof_C 	C 	0.6864	0.9382	0.6473	0.135
Mof_H 	H 	0.6627	0.9214	0.6923	-0.072
Mof_C 	C 	0.7822	0.9677	0.6332	-0.234
Mof_H 	H 	0.8206	0.968	0.6691	0.083
Mof_C 	C 	0.8189	0.9954	0.5691	0.136
Mof_H 	H 	0.8822	0.0152	0.5611	-0.03
Mof_C 	C 	0.7633	0.9944	0.5156	-0.227
Mof_H 	H 	0.7896	0.0153	0.4717	0.099
Mof_C 	C 	0.6665	0.9621	0.5261	0.156
Mof_C 	C 	0.5252	0.8997	0.6103	0.485
Mof_C 	C 	0.61	0.9629	0.4647	-0.168
Mof_H 	H 	0.6524	0.0071	0.4302	0.044
Mof_H 	H 	0.5675	0.9847	0.4797	0.066
Mof_C 	C 	0.6156	0.8349	0.4013	0.1
Mof_H 	H 	0.6697	0.8872	0.379	-0.035
Mof_H 	H 	0.6387	0.8108	0.4379	-0.018
Mof_C 	C 	0.5607	0.7572	0.3478	-0.455
Mof_H 	H 	0.6052	0.7453	0.3226	0.083
Mof_H 	H 	0.5326	0.7804	0.3144	0.08
Mof_C 	C 	0.484	0.6649	0.3766	0.566
Mof_Cu	Cu	0.77114	0.31792	0.99096	0.913
Mof_O 	O 	0.8611	0.3984	0.0624	-0.46
Mof_O 	O 	0.9123	0.4068	0.1709	-0.702
Mof_O 	O 	0.6665	0.2203	0.935	-0.532
Mof_O 	O 	0.592	0.1336	0.8428	-0.776
Mof_N 	N 	0.869	0.3145	0.9323	-0.232
Mof_H 	H 	0.8781	0.3561	0.8928	0.051
Mof_C 	C 	0.9344	0.3069	0.0931	-0.297
Mof_C 	C 	0.9382	0.2518	0.1473	0.15
Mof_H 	H 	0.9214	0.2587	0.1923	-0.077
Mof_C 	C 	0.9677	0.1855	0.1332	-0.254
Mof_H 	H 	0.968	0.1474	0.1691	0.092
Mof_C 	C 	0.9954	0.1765	0.0691	0.164
Mof_H 	H 	0.0152	0.133	0.0611	-0.043
Mof_C 	C 	0.9944	0.2311	0.0156	-0.238
Mof_H 	H 	0.0153	0.2257	0.9717	0.102
Mof_C 	C 	0.9621	0.2956	0.0261	0.178
Mof_C 	C 	0.8997	0.3745	0.1103	0.489
Mof_C 	C 	0.9629	0.3529	0.9647	-0.2
Mof_H 	H 	0.0071	0.3547	0.9302	0.057
Mof_H 	H 	0.9847	0.4172	0.9797	0.071
Mof_C 	C 	0.8349	0.2193	0.9013	0.101
Mof_H 	H 	0.8872	0.2175	0.879	-0.038
Mof_H 	H 	0.8108	0.1721	0.9379	-0.021
Mof_C 	C 	0.7572	0.1965	0.8478	-0.455
Mof_H 	H 	0.7453	0.1401	0.8226	0.083
Mof_H 	H 	0.7804	0.2478	0.8144	0.08
Mof_C 	C 	0.6649	0.1809	0.8766	0.565
Mof_Cu	Cu	0.68208	0.45322	0.99096	0.914
Mof_O 	O 	0.6016	0.4627	0.0624	-0.461
Mof_O 	O 	0.5932	0.5055	0.1709	-0.705
Mof_O 	O 	0.7797	0.4462	0.935	-0.531
Mof_O 	O 	0.8664	0.4584	0.8428	-0.776
Mof_N 	N 	0.6855	0.5545	0.9323	-0.235
Mof_H 	H 	0.6439	0.522	0.8928	0.052
Mof_C 	C 	0.6931	0.6275	0.0931	-0.286
Mof_C 	C 	0.7482	0.6864	0.1473	0.133
Mof_H 	H 	0.7413	0.6627	0.1923	-0.072
Mof_C 	C 	0.8145	0.7822	0.1332	-0.231
Mof_H 	H 	0.8526	0.8206	0.1691	0.082
Mof_C 	C 	0.8235	0.8189	0.0691	0.131
Mof_H 	H 	0.867	0.8822	0.0611	-0.028
Mof_C 	C 	0.7689	0.7633	0.0156	-0.223
Mof_H 	H 	0.7743	0.7896	0.9717	0.097
Mof_C 	C 	0.7044	0.6665	0.0261	0.154
Mof_C 	C 	0.6255	0.5252	0.1103	0.485
Mof_C 	C 	0.6471	0.61	0.9647	-0.165
Mof_H 	H 	0.6453	0.6524	0.9302	0.042
Mof_H 	H 	0.5828	0.5675	0.9797	0.065
Mof_C 	C 	0.7807	0.6156	0.9013	0.101
Mof_H 	H 	0.7825	0.6697	0.879	-0.036
Mof_H 	H 	0.8279	0.6387	0.9379	-0.02
Mof_C 	C 	0.8035	0.5607	0.8478	-0.455
Mof_H 	H 	0.8599	0.6052	0.8226	0.083
Mof_H 	H 	0.7522	0.5326	0.8144	0.08
Mof_C 	C 	0.8191	0.484	0.8766	0.565
Mof_Cu	Cu	0.54678	0.22886	0.99096	0.913
Mof_O 	O 	0.5373	0.1389	0.0624	-0.461
Mof_O 	O 	0.4945	0.0877	0.1709	-0.703
Mof_O 	O 	0.5538	0.3335	0.935	-0.531
Mof_O 	O 	0.5416	0.408	0.8428	-0.777
Mof_N 	N 	0.4455	0.131	0.9323	-0.231
Mof_H 	H 	0.478	0.1219	0.8928	0.05
Mof_C 	C 	0.3725	0.0656	0.0931	-0.304
Mof_C 	C 	0.3136	0.0618	0.1473	0.16
Mof_H 	H 	0.3373	0.0786	0.1923	-0.081
Mof_C 	C 	0.2178	0.0323	0.1332	-0.269
Mof_H 	H 	0.1794	0.032	0.1691	0.096
Mof_C 	C 	0.1811	0.0046	0.0691	0.186
Mof_H 	H 	0.1178	0.9848	0.0611	-0.054
Mof_C 	C 	0.2367	0.0056	0.0156	-0.269
Mof_H 	H 	0.2104	0.9847	0.9717	0.118
Mof_C 	C 	0.3335	0.0379	0.0261	0.186
Mof_C 	C 	0.4748	0.1003	0.1103	0.491
Mof_C 	C 	0.39	0.0371	0.9647	-0.2
Mof_H 	H 	0.3476	0.9929	0.9302	0.058
Mof_H 	H 	0.4325	0.0153	0.9797	0.072
Mof_C 	C 	0.3844	0.1651	0.9013	0.099
Mof_H 	H 	0.3303	0.1128	0.879	-0.036
Mof_H 	H 	0.3613	0.1892	0.9379	-0.018
Mof_C 	C 	0.4393	0.2428	0.8478	-0.454
Mof_H 	H 	0.3948	0.2547	0.8226	0.083
Mof_H 	H 	0.4674	0.2196	0.8144	0.08
Mof_C 	C 	0.516	0.3351	0.8766	0.566
Mof_Na	Na	0.531	0.0301	0.75	2.745
Mof_Na	Na	0.9699	0.5009	0.75	2.744
Mof_Na	Na	0.4991	0.469	0.75	2.757
Mof_Na	Na	0.469	0.9699	0.25	2.745
Mof_Na	Na	0.0301	0.4991	0.25	2.744
Mof_Na	Na	0.5009	0.531	0.25	2.757
Mof_O 	O 	0.66667	0.33333	0.467	-0.587
Mof_H 	H 	0.66667	0.33333	0.4159	0.156
Mof_O 	O 	0.33333	0.66667	0.967	-0.583
Mof_H 	H 	0.33333	0.66667	0.9159	0.155
Mof_O 	O 	0.33333	0.66667	0.533	-0.587
Mof_H 	H 	0.33333	0.66667	0.5841	0.156
Mof_O 	O 	0.66667	0.33333	0.033	-0.583
Mof_H 	H 	0.66667	0.33333	0.0841	0.155
_end
