data_functionalizedCrystal
_audit_creation_method	'EQeq! by Chris Wilmer'
_symmetry_space_group_name_H-M	'P1'
_symmetry_Int_Tables_number	1
_symmetry_cell_setting	triclinic
loop_
_symmetry_equiv_pos_as_xyz
  x,y,z
_cell_length_a	23.3762
_cell_length_b	13.4461
_cell_length_c	21.3499
_cell_angle_alpha	90
_cell_angle_beta	90
_cell_angle_gamma	90
loop_
_atom_site_label
_atom_site_type_symbol
_atom_site_fract_x
_atom_site_fract_y
_atom_site_fract_z
_atom_site_charge
Mof_C 	C 	0.0163	0.9777	0.2773	0.071
Mof_H 	H 	0.994	0.0183	0.2519	-0.008
Mof_N 	N 	0.06719	0.0114	0.29547	-0.217
Mof_C 	C 	0.9949	0.8862	0.2939	-0.129
Mof_H 	H 	0.9595	0.8649	0.2794	0.058
Mof_N 	N 	0.16895	0.0825	0.32418	-0.23
Mof_C 	C 	0.0275	0.8269	0.3326	0.041
Mof_H 	H 	0.0138	0.7654	0.3458	0.011
Mof_C 	C 	0.0804	0.8595	0.3515	-0.117
Mof_H 	H 	0.103	0.8202	0.3775	0.069
Mof_C 	C 	0.09977	0.9524	0.33129	0.051
Mof_C 	C 	0.1572	0.9923	0.34796	0.061
Mof_C 	C 	0.1969	0.9411	0.3836	-0.137
Mof_H 	H 	0.1883	0.8785	0.3995	0.057
Mof_C 	C 	0.2496	0.9841	0.3954	0.061
Mof_H 	H 	0.2767	0.9507	0.4195	-0.006
Mof_C 	C 	0.2615	0.0752	0.3717	-0.155
Mof_H 	H 	0.2965	0.1057	0.379	0.081
Mof_C 	C 	0.2198	0.1211	0.3363	0.087
Mof_H 	H 	0.228	0.1836	0.3199	-0.028
Mof_Cu	Cu	0.10154	0.15606	0.278	0.852
Mof_N 	N 	0.09565	0.1643	0.18723	-0.236
Mof_C 	C 	0.07809	0.1379	0.13988	-0.018
Mof_S 	S 	0.06772	0.90838	0.10099	-0.245
Mof_Re	Re	0.02764	0.08898	0.94171	0.335
Mof_S 	S 	0.04999	0.94669	0.87799	-0.253
Mof_Re	Re	0.0634	0.92128	0.98851	0.336
Mof_S 	S 	0.00114	0.21805	0.01462	-0.244
Mof_S 	S 	0.11908	0.0729	0.99358	-0.25
Mof_Re	Re	0.03745	0.06812	0.06278	0.334
Mof_N 	N 	0.07469	0.2573	0.33536	-0.238
Mof_C 	C 	0.05858	0.311	0.37312	-0.012
Mof_C 	C 	0.2318	0.9455	0.0813	0.082
Mof_H 	H 	0.2358	0.9772	0.0428	-0.011
Mof_N 	N 	0.24655	0.8492	0.0858	-0.223
Mof_C 	C 	0.211	0.999	0.131	-0.154
Mof_H 	H 	0.2003	0.0652	0.1264	0.079
Mof_C 	C 	0.2065	0.9523	0.1869	0.069
Mof_H 	H 	0.1928	0.9869	0.2215	-0.005
Mof_C 	C 	0.222	0.8536	0.1931	-0.133
Mof_H 	H 	0.219	0.8214	0.2315	0.075
Mof_C 	C 	0.2422	0.8038	0.1408	0.059
Mof_N 	N 	0.17653	0.7832	0.97249	-0.234
Mof_C 	C 	0.13591	0.8305	0.97574	-0.02
Mof_C 	C 	0.4837	0.5223	0.2773	0.072
Mof_H 	H 	0.506	0.4817	0.2519	-0.007
Mof_N 	N 	0.43281	0.4886	0.29547	-0.216
Mof_C 	C 	0.5051	0.6138	0.2939	-0.127
Mof_H 	H 	0.5405	0.6351	0.2794	0.059
Mof_N 	N 	0.33105	0.4175	0.32418	-0.229
Mof_C 	C 	0.4725	0.6731	0.3326	0.041
Mof_H 	H 	0.4862	0.7346	0.3458	0.012
Mof_C 	C 	0.4196	0.6405	0.3515	-0.116
Mof_H 	H 	0.397	0.6798	0.3775	0.07
Mof_C 	C 	0.40023	0.5476	0.33129	0.051
Mof_C 	C 	0.3428	0.5077	0.34796	0.061
Mof_C 	C 	0.3031	0.5589	0.3836	-0.137
Mof_H 	H 	0.3117	0.6215	0.3995	0.057
Mof_C 	C 	0.2504	0.5159	0.3954	0.061
Mof_H 	H 	0.2233	0.5493	0.4195	-0.006
Mof_C 	C 	0.2385	0.4248	0.3717	-0.155
Mof_H 	H 	0.2035	0.3943	0.379	0.081
Mof_C 	C 	0.2802	0.3789	0.3363	0.087
Mof_H 	H 	0.272	0.3164	0.3199	-0.028
Mof_Cu	Cu	0.39846	0.34394	0.278	0.852
Mof_N 	N 	0.40435	0.3357	0.18723	-0.236
Mof_C 	C 	0.42191	0.3621	0.13988	-0.018
Mof_S 	S 	0.43228	0.59162	0.10099	-0.245
Mof_Re	Re	0.47236	0.41102	0.94171	0.335
Mof_S 	S 	0.45001	0.55331	0.87799	-0.254
Mof_Re	Re	0.4366	0.57872	0.98851	0.335
Mof_S 	S 	0.49886	0.28195	0.01462	-0.244
Mof_S 	S 	0.38092	0.4271	0.99358	-0.25
Mof_Re	Re	0.46255	0.43188	0.06278	0.335
Mof_N 	N 	0.42531	0.2427	0.33536	-0.238
Mof_C 	C 	0.44142	0.189	0.37312	-0.012
Mof_C 	C 	0.2682	0.5545	0.0813	0.082
Mof_H 	H 	0.2642	0.5228	0.0428	-0.011
Mof_N 	N 	0.25345	0.6508	0.0858	-0.223
Mof_C 	C 	0.289	0.501	0.131	-0.154
Mof_H 	H 	0.2997	0.4348	0.1264	0.079
Mof_C 	C 	0.2935	0.5477	0.1869	0.069
Mof_H 	H 	0.3072	0.5131	0.2215	-0.005
Mof_C 	C 	0.278	0.6464	0.1931	-0.133
Mof_H 	H 	0.281	0.6786	0.2315	0.075
Mof_C 	C 	0.2578	0.6962	0.1408	0.059
Mof_N 	N 	0.32347	0.7168	0.97249	-0.234
Mof_C 	C 	0.36409	0.6695	0.97574	-0.02
Mof_C 	C 	0.9837	0.4777	0.2227	0.073
Mof_H 	H 	0.006	0.5183	0.2481	-0.007
Mof_N 	N 	0.93281	0.5114	0.20453	-0.216
Mof_C 	C 	0.0051	0.3862	0.2061	-0.129
Mof_H 	H 	0.0405	0.3649	0.2206	0.06
Mof_N 	N 	0.83105	0.5825	0.17582	-0.229
Mof_C 	C 	0.9725	0.3269	0.1674	0.043
Mof_H 	H 	0.9862	0.2654	0.1542	0.012
Mof_C 	C 	0.9196	0.3595	0.1485	-0.116
Mof_H 	H 	0.897	0.3202	0.1225	0.07
Mof_C 	C 	0.90023	0.4524	0.16871	0.051
Mof_C 	C 	0.8428	0.4923	0.15204	0.06
Mof_C 	C 	0.8031	0.4411	0.1164	-0.137
Mof_H 	H 	0.8117	0.3785	0.1005	0.057
Mof_C 	C 	0.7504	0.4841	0.1046	0.06
Mof_H 	H 	0.7233	0.4507	0.0805	-0.006
Mof_C 	C 	0.7385	0.5752	0.1283	-0.155
Mof_H 	H 	0.7035	0.6057	0.121	0.081
Mof_C 	C 	0.7802	0.6211	0.1637	0.087
Mof_H 	H 	0.772	0.6836	0.1801	-0.028
Mof_Cu	Cu	0.89846	0.65606	0.222	0.852
Mof_N 	N 	0.90435	0.6643	0.31277	-0.236
Mof_C 	C 	0.92191	0.6379	0.36012	-0.018
Mof_S 	S 	0.93228	0.40838	0.39901	-0.245
Mof_Re	Re	0.97236	0.58898	0.55829	0.335
Mof_S 	S 	0.95001	0.44669	0.62201	-0.254
Mof_Re	Re	0.9366	0.42128	0.51149	0.335
Mof_S 	S 	0.99886	0.71805	0.48538	-0.244
Mof_S 	S 	0.88092	0.5729	0.50642	-0.25
Mof_Re	Re	0.96255	0.56812	0.43722	0.335
Mof_N 	N 	0.92531	0.7573	0.16464	-0.238
Mof_C 	C 	0.94142	0.811	0.12688	-0.012
Mof_C 	C 	0.7682	0.4455	0.4187	0.082
Mof_H 	H 	0.7642	0.4772	0.4572	-0.011
Mof_N 	N 	0.75345	0.3492	0.4142	-0.223
Mof_C 	C 	0.789	0.499	0.369	-0.154
Mof_H 	H 	0.7997	0.5652	0.3736	0.079
Mof_C 	C 	0.7935	0.4523	0.3131	0.069
Mof_H 	H 	0.8072	0.4869	0.2785	-0.005
Mof_C 	C 	0.778	0.3536	0.3069	-0.133
Mof_H 	H 	0.781	0.3214	0.2685	0.075
Mof_C 	C 	0.7578	0.3038	0.3592	0.059
Mof_N 	N 	0.82347	0.2832	0.52751	-0.235
Mof_C 	C 	0.86409	0.3305	0.52426	-0.02
Mof_C 	C 	0.5163	0.0223	0.2227	0.072
Mof_H 	H 	0.494	0.9817	0.2481	-0.007
Mof_N 	N 	0.56719	0.9886	0.20453	-0.216
Mof_C 	C 	0.4949	0.1138	0.2061	-0.127
Mof_H 	H 	0.4595	0.1351	0.2206	0.059
Mof_N 	N 	0.66895	0.9175	0.17582	-0.229
Mof_C 	C 	0.5275	0.1731	0.1674	0.041
Mof_H 	H 	0.5138	0.2346	0.1542	0.012
Mof_C 	C 	0.5804	0.1405	0.1485	-0.116
Mof_H 	H 	0.603	0.1798	0.1225	0.07
Mof_C 	C 	0.59977	0.0476	0.16871	0.051
Mof_C 	C 	0.6572	0.0077	0.15204	0.061
Mof_C 	C 	0.6969	0.0589	0.1164	-0.138
Mof_H 	H 	0.6883	0.1215	0.1005	0.057
Mof_C 	C 	0.7496	0.0159	0.1046	0.061
Mof_H 	H 	0.7767	0.0493	0.0805	-0.006
Mof_C 	C 	0.7615	0.9248	0.1283	-0.155
Mof_H 	H 	0.7965	0.8943	0.121	0.081
Mof_C 	C 	0.7198	0.8789	0.1637	0.088
Mof_H 	H 	0.728	0.8164	0.1801	-0.028
Mof_Cu	Cu	0.60154	0.84394	0.222	0.852
Mof_N 	N 	0.59565	0.8357	0.31277	-0.236
Mof_C 	C 	0.57809	0.8621	0.36012	-0.018
Mof_S 	S 	0.56772	0.09162	0.39901	-0.245
Mof_Re	Re	0.52764	0.91102	0.55829	0.335
Mof_S 	S 	0.54999	0.05331	0.62201	-0.254
Mof_Re	Re	0.5634	0.07872	0.51149	0.335
Mof_S 	S 	0.50114	0.78195	0.48538	-0.244
Mof_S 	S 	0.61908	0.9271	0.50642	-0.25
Mof_Re	Re	0.53745	0.93188	0.43722	0.335
Mof_N 	N 	0.57469	0.7427	0.16464	-0.238
Mof_C 	C 	0.55858	0.689	0.12688	-0.012
Mof_C 	C 	0.7318	0.0545	0.4187	0.082
Mof_H 	H 	0.7358	0.0228	0.4572	-0.011
Mof_N 	N 	0.74655	0.1508	0.4142	-0.223
Mof_C 	C 	0.711	0.001	0.369	-0.154
Mof_H 	H 	0.7003	0.9348	0.3736	0.079
Mof_C 	C 	0.7065	0.0477	0.3131	0.069
Mof_H 	H 	0.6928	0.0131	0.2785	-0.005
Mof_C 	C 	0.722	0.1464	0.3069	-0.133
Mof_H 	H 	0.719	0.1786	0.2685	0.075
Mof_C 	C 	0.7422	0.1962	0.3592	0.059
Mof_N 	N 	0.67653	0.2168	0.52751	-0.235
Mof_C 	C 	0.63591	0.1695	0.52426	-0.02
Mof_C 	C 	0.9837	0.0223	0.7227	0.072
Mof_H 	H 	0.006	0.9817	0.7481	-0.007
Mof_N 	N 	0.93281	0.9886	0.70453	-0.216
Mof_C 	C 	0.0051	0.1138	0.7061	-0.128
Mof_H 	H 	0.0405	0.1351	0.7206	0.059
Mof_N 	N 	0.83105	0.9175	0.67582	-0.229
Mof_C 	C 	0.9725	0.1731	0.6674	0.042
Mof_H 	H 	0.9862	0.2346	0.6542	0.012
Mof_C 	C 	0.9196	0.1405	0.6485	-0.116
Mof_H 	H 	0.897	0.1798	0.6225	0.07
Mof_C 	C 	0.90023	0.0476	0.66871	0.051
Mof_C 	C 	0.8428	0.0077	0.65204	0.061
Mof_C 	C 	0.8031	0.0589	0.6164	-0.137
Mof_H 	H 	0.8117	0.1215	0.6005	0.057
Mof_C 	C 	0.7504	0.0159	0.6046	0.061
Mof_H 	H 	0.7233	0.0493	0.5805	-0.006
Mof_C 	C 	0.7385	0.9248	0.6283	-0.155
Mof_H 	H 	0.7035	0.8943	0.621	0.081
Mof_C 	C 	0.7802	0.8789	0.6637	0.087
Mof_H 	H 	0.772	0.8164	0.6801	-0.028
Mof_Cu	Cu	0.89846	0.84394	0.722	0.852
Mof_N 	N 	0.90435	0.8357	0.81277	-0.236
Mof_C 	C 	0.92191	0.8621	0.86012	-0.018
Mof_S 	S 	0.93228	0.09162	0.89901	-0.245
Mof_Re	Re	0.97236	0.91102	0.05829	0.335
Mof_S 	S 	0.95001	0.05331	0.12201	-0.253
Mof_Re	Re	0.9366	0.07872	0.01149	0.336
Mof_S 	S 	0.99886	0.78195	0.98538	-0.244
Mof_S 	S 	0.88092	0.9271	0.00642	-0.25
Mof_Re	Re	0.96255	0.93188	0.93722	0.334
Mof_N 	N 	0.92531	0.7427	0.66464	-0.238
Mof_C 	C 	0.94142	0.689	0.62688	-0.012
Mof_C 	C 	0.7682	0.0545	0.9187	0.082
Mof_H 	H 	0.7642	0.0228	0.9572	-0.011
Mof_N 	N 	0.75345	0.1508	0.9142	-0.223
Mof_C 	C 	0.789	0.001	0.869	-0.154
Mof_H 	H 	0.7997	0.9348	0.8736	0.079
Mof_C 	C 	0.7935	0.0477	0.8131	0.069
Mof_H 	H 	0.8072	0.0131	0.7785	-0.005
Mof_C 	C 	0.778	0.1464	0.8069	-0.133
Mof_H 	H 	0.781	0.1786	0.7685	0.075
Mof_C 	C 	0.7578	0.1962	0.8592	0.059
Mof_N 	N 	0.82347	0.2168	0.02751	-0.234
Mof_C 	C 	0.86409	0.1695	0.02426	-0.02
Mof_C 	C 	0.5163	0.4777	0.7227	0.072
Mof_H 	H 	0.494	0.5183	0.7481	-0.007
Mof_N 	N 	0.56719	0.5114	0.70453	-0.216
Mof_C 	C 	0.4949	0.3862	0.7061	-0.127
Mof_H 	H 	0.4595	0.3649	0.7206	0.059
Mof_N 	N 	0.66895	0.5825	0.67582	-0.229
Mof_C 	C 	0.5275	0.3269	0.6674	0.041
Mof_H 	H 	0.5138	0.2654	0.6542	0.012
Mof_C 	C 	0.5804	0.3595	0.6485	-0.116
Mof_H 	H 	0.603	0.3202	0.6225	0.07
Mof_C 	C 	0.59977	0.4524	0.66871	0.051
Mof_C 	C 	0.6572	0.4923	0.65204	0.061
Mof_C 	C 	0.6969	0.4411	0.6164	-0.137
Mof_H 	H 	0.6883	0.3785	0.6005	0.057
Mof_C 	C 	0.7496	0.4841	0.6046	0.061
Mof_H 	H 	0.7767	0.4507	0.5805	-0.006
Mof_C 	C 	0.7615	0.5752	0.6283	-0.155
Mof_H 	H 	0.7965	0.6057	0.621	0.081
Mof_C 	C 	0.7198	0.6211	0.6637	0.087
Mof_H 	H 	0.728	0.6836	0.6801	-0.028
Mof_Cu	Cu	0.60154	0.65606	0.722	0.852
Mof_N 	N 	0.59565	0.6643	0.81277	-0.236
Mof_C 	C 	0.57809	0.6379	0.86012	-0.018
Mof_S 	S 	0.56772	0.40838	0.89901	-0.245
Mof_Re	Re	0.52764	0.58898	0.05829	0.335
Mof_S 	S 	0.54999	0.44669	0.12201	-0.254
Mof_Re	Re	0.5634	0.42128	0.01149	0.335
Mof_S 	S 	0.50114	0.71805	0.98538	-0.244
Mof_S 	S 	0.61908	0.5729	0.00642	-0.25
Mof_Re	Re	0.53745	0.56812	0.93722	0.335
Mof_N 	N 	0.57469	0.7573	0.66464	-0.238
Mof_C 	C 	0.55858	0.811	0.62688	-0.012
Mof_C 	C 	0.7318	0.4455	0.9187	0.082
Mof_H 	H 	0.7358	0.4772	0.9572	-0.011
Mof_N 	N 	0.74655	0.3492	0.9142	-0.223
Mof_C 	C 	0.711	0.499	0.869	-0.154
Mof_H 	H 	0.7003	0.5652	0.8736	0.079
Mof_C 	C 	0.7065	0.4523	0.8131	0.069
Mof_H 	H 	0.6928	0.4869	0.7785	-0.005
Mof_C 	C 	0.722	0.3536	0.8069	-0.133
Mof_H 	H 	0.719	0.3214	0.7685	0.075
Mof_C 	C 	0.7422	0.3038	0.8592	0.059
Mof_N 	N 	0.67653	0.2832	0.02751	-0.234
Mof_C 	C 	0.63591	0.3305	0.02426	-0.02
Mof_C 	C 	0.0163	0.5223	0.7773	0.073
Mof_H 	H 	0.994	0.4817	0.7519	-0.007
Mof_N 	N 	0.06719	0.4886	0.79547	-0.216
Mof_C 	C 	0.9949	0.6138	0.7939	-0.129
Mof_H 	H 	0.9595	0.6351	0.7794	0.06
Mof_N 	N 	0.16895	0.4175	0.82418	-0.229
Mof_C 	C 	0.0275	0.6731	0.8326	0.043
Mof_H 	H 	0.0138	0.7346	0.8458	0.012
Mof_C 	C 	0.0804	0.6405	0.8515	-0.116
Mof_H 	H 	0.103	0.6798	0.8775	0.07
Mof_C 	C 	0.09977	0.5476	0.83129	0.051
Mof_C 	C 	0.1572	0.5077	0.84796	0.06
Mof_C 	C 	0.1969	0.5589	0.8836	-0.137
Mof_H 	H 	0.1883	0.6215	0.8995	0.057
Mof_C 	C 	0.2496	0.5159	0.8954	0.06
Mof_H 	H 	0.2767	0.5493	0.9195	-0.006
Mof_C 	C 	0.2615	0.4248	0.8717	-0.155
Mof_H 	H 	0.2965	0.3943	0.879	0.081
Mof_C 	C 	0.2198	0.3789	0.8363	0.087
Mof_H 	H 	0.228	0.3164	0.8199	-0.028
Mof_Cu	Cu	0.10154	0.34394	0.778	0.852
Mof_N 	N 	0.09565	0.3357	0.68723	-0.236
Mof_C 	C 	0.07809	0.3621	0.63988	-0.018
Mof_S 	S 	0.06772	0.59162	0.60099	-0.245
Mof_Re	Re	0.02764	0.41102	0.44171	0.335
Mof_S 	S 	0.04999	0.55331	0.37799	-0.254
Mof_Re	Re	0.0634	0.57872	0.48851	0.335
Mof_S 	S 	0.00114	0.28195	0.51462	-0.244
Mof_S 	S 	0.11908	0.4271	0.49358	-0.25
Mof_Re	Re	0.03745	0.43188	0.56278	0.335
Mof_N 	N 	0.07469	0.2427	0.83536	-0.238
Mof_C 	C 	0.05858	0.189	0.87312	-0.012
Mof_C 	C 	0.2318	0.5545	0.5813	0.082
Mof_H 	H 	0.2358	0.5228	0.5428	-0.011
Mof_N 	N 	0.24655	0.6508	0.5858	-0.223
Mof_C 	C 	0.211	0.501	0.631	-0.154
Mof_H 	H 	0.2003	0.4348	0.6264	0.079
Mof_C 	C 	0.2065	0.5477	0.6869	0.069
Mof_H 	H 	0.1928	0.5131	0.7215	-0.005
Mof_C 	C 	0.222	0.6464	0.6931	-0.133
Mof_H 	H 	0.219	0.6786	0.7315	0.075
Mof_C 	C 	0.2422	0.6962	0.6408	0.059
Mof_N 	N 	0.17653	0.7168	0.47249	-0.235
Mof_C 	C 	0.13591	0.6695	0.47574	-0.02
Mof_C 	C 	0.4837	0.9777	0.7773	0.072
Mof_H 	H 	0.506	0.0183	0.7519	-0.007
Mof_N 	N 	0.43281	0.0114	0.79547	-0.216
Mof_C 	C 	0.5051	0.8862	0.7939	-0.127
Mof_H 	H 	0.5405	0.8649	0.7794	0.059
Mof_N 	N 	0.33105	0.0825	0.82418	-0.229
Mof_C 	C 	0.4725	0.8269	0.8326	0.041
Mof_H 	H 	0.4862	0.7654	0.8458	0.012
Mof_C 	C 	0.4196	0.8595	0.8515	-0.116
Mof_H 	H 	0.397	0.8202	0.8775	0.07
Mof_C 	C 	0.40023	0.9524	0.83129	0.051
Mof_C 	C 	0.3428	0.9923	0.84796	0.061
Mof_C 	C 	0.3031	0.9411	0.8836	-0.138
Mof_H 	H 	0.3117	0.8785	0.8995	0.057
Mof_C 	C 	0.2504	0.9841	0.8954	0.061
Mof_H 	H 	0.2233	0.9507	0.9195	-0.006
Mof_C 	C 	0.2385	0.0752	0.8717	-0.155
Mof_H 	H 	0.2035	0.1057	0.879	0.081
Mof_C 	C 	0.2802	0.1211	0.8363	0.088
Mof_H 	H 	0.272	0.1836	0.8199	-0.028
Mof_Cu	Cu	0.39846	0.15606	0.778	0.852
Mof_N 	N 	0.40435	0.1643	0.68723	-0.236
Mof_C 	C 	0.42191	0.1379	0.63988	-0.018
Mof_S 	S 	0.43228	0.90838	0.60099	-0.245
Mof_Re	Re	0.47236	0.08898	0.44171	0.335
Mof_S 	S 	0.45001	0.94669	0.37799	-0.254
Mof_Re	Re	0.4366	0.92128	0.48851	0.335
Mof_S 	S 	0.49886	0.21805	0.51462	-0.244
Mof_S 	S 	0.38092	0.0729	0.49358	-0.25
Mof_Re	Re	0.46255	0.06812	0.56278	0.335
Mof_N 	N 	0.42531	0.2573	0.83536	-0.238
Mof_C 	C 	0.44142	0.311	0.87312	-0.012
Mof_C 	C 	0.2682	0.9455	0.5813	0.082
Mof_H 	H 	0.2642	0.9772	0.5428	-0.011
Mof_N 	N 	0.25345	0.8492	0.5858	-0.223
Mof_C 	C 	0.289	0.999	0.631	-0.154
Mof_H 	H 	0.2997	0.0652	0.6264	0.079
Mof_C 	C 	0.2935	0.9523	0.6869	0.069
Mof_H 	H 	0.3072	0.9869	0.7215	-0.005
Mof_C 	C 	0.278	0.8536	0.6931	-0.133
Mof_H 	H 	0.281	0.8214	0.7315	0.075
Mof_C 	C 	0.2578	0.8038	0.6408	0.059
Mof_N 	N 	0.32347	0.7832	0.47249	-0.235
Mof_C 	C 	0.36409	0.8305	0.47574	-0.02
Mof_Cu	Cu	0.25	0.75	0.00922	0.853
Mof_Cu	Cu	0.75	0.25	0.49078	0.853
Mof_Cu	Cu	0.75	0.25	0.99078	0.853
Mof_Cu	Cu	0.25	0.75	0.50922	0.853
_end
