data_functionalizedCrystal
_audit_creation_method	'EQeq! by Chris Wilmer'
_symmetry_space_group_name_H-M	'P1'
_symmetry_Int_Tables_number	1
_symmetry_cell_setting	triclinic
loop_
_symmetry_equiv_pos_as_xyz
  x,y,z
_cell_length_a	8.7713
_cell_length_b	15.8994
_cell_length_c	18.1647
_cell_angle_alpha	90
_cell_angle_beta	90
_cell_angle_gamma	90.0041
loop_
_atom_site_label
_atom_site_type_symbol
_atom_site_fract_x
_atom_site_fract_y
_atom_site_fract_z
_atom_site_charge
Mof_Zn	Zn	0.61324	0.56708	0.48077	1.216
Mof_Zn	Zn	0.38676	0.93292	0.98077	1.215
Mof_Zn	Zn	0.38676	0.43292	0.51923	1.216
Mof_Zn	Zn	0.61324	0.06708	0.01923	1.215
Mof_H 	H 	0.0983	0.5805	0.6662	0.009
Mof_H 	H 	0.4549	0.7403	0.6445	0.014
Mof_H 	H 	0.334	0.8366	0.7217	0.068
Mof_H 	H 	0.1516	0.9274	0.8084	0.076
Mof_H 	H 	0.9542	0.9825	0.8793	0.016
Mof_H 	H 	0.6938	0.7761	0.8406	0.008
Mof_H 	H 	0.9869	0.6223	0.8462	0.242
Mof_H 	H 	0.9182	0.5619	0.7841	0.234
Mof_H 	H 	0.8063	0.6163	0.8348	0.233
Mof_H 	H 	0.7934	0.7263	0.6616	0.238
Mof_H 	H 	0.6865	0.6806	0.7208	0.233
Mof_H 	H 	0.7981	0.6261	0.6699	0.236
Mof_H 	H 	0.9461	0.6147	0.5139	-0.005
Mof_H 	H 	0.092	0.7361	0.5263	0.087
Mof_H 	H 	0.7263	0.8704	0.4603	0.085
Mof_H 	H 	0.5927	0.7464	0.4486	-0.004
Mof_H 	H 	0.1149	0.8924	0.5208	0.054
Mof_H 	H 	0.9017	0.9195	0.1662	0.012
Mof_H 	H 	0.5451	0.7597	0.1445	0.015
Mof_H 	H 	0.666	0.6634	0.2217	0.069
Mof_H 	H 	0.8484	0.5726	0.3084	0.077
Mof_H 	H 	0.0458	0.5175	0.3793	0.019
Mof_H 	H 	0.3062	0.7239	0.3406	0.009
Mof_H 	H 	0.0131	0.8777	0.3462	0.242
Mof_H 	H 	0.0818	0.9381	0.2841	0.234
Mof_H 	H 	0.1937	0.8837	0.3348	0.233
Mof_H 	H 	0.2066	0.7737	0.1616	0.238
Mof_H 	H 	0.3135	0.8194	0.2208	0.233
Mof_H 	H 	0.2019	0.8739	0.1699	0.236
Mof_H 	H 	0.0539	0.8853	0.0139	-0.005
Mof_H 	H 	0.908	0.7639	0.0263	0.089
Mof_H 	H 	0.2737	0.6296	0.9603	0.084
Mof_H 	H 	0.4073	0.7536	0.9486	-0.004
Mof_H 	H 	0.8851	0.6076	0.0208	0.052
Mof_H 	H 	0.9017	0.4195	0.3338	0.01
Mof_H 	H 	0.5451	0.2597	0.3555	0.015
Mof_H 	H 	0.666	0.1634	0.2783	0.069
Mof_H 	H 	0.8484	0.0726	0.1916	0.077
Mof_H 	H 	0.0458	0.0175	0.1207	0.017
Mof_H 	H 	0.3062	0.2239	0.1594	0.009
Mof_H 	H 	0.0131	0.3777	0.1538	0.243
Mof_H 	H 	0.0818	0.4381	0.2159	0.235
Mof_H 	H 	0.1937	0.3837	0.1652	0.233
Mof_H 	H 	0.2066	0.2737	0.3384	0.238
Mof_H 	H 	0.3135	0.3194	0.2792	0.233
Mof_H 	H 	0.2019	0.3739	0.3301	0.236
Mof_H 	H 	0.0539	0.3853	0.4861	-0.005
Mof_H 	H 	0.908	0.2639	0.4737	0.087
Mof_H 	H 	0.2737	0.1296	0.5397	0.085
Mof_H 	H 	0.4073	0.2536	0.5514	-0.004
Mof_H 	H 	0.8851	0.1076	0.4792	0.054
Mof_H 	H 	0.0983	0.0805	0.8338	0.012
Mof_H 	H 	0.4549	0.2403	0.8555	0.015
Mof_H 	H 	0.334	0.3366	0.7783	0.069
Mof_H 	H 	0.1516	0.4274	0.6916	0.077
Mof_H 	H 	0.9542	0.4825	0.6207	0.019
Mof_H 	H 	0.6938	0.2761	0.6594	0.009
Mof_H 	H 	0.9869	0.1223	0.6538	0.242
Mof_H 	H 	0.9182	0.0619	0.7159	0.234
Mof_H 	H 	0.8063	0.1163	0.6652	0.233
Mof_H 	H 	0.7934	0.2263	0.8384	0.238
Mof_H 	H 	0.6865	0.1806	0.7792	0.233
Mof_H 	H 	0.7981	0.1261	0.8301	0.236
Mof_H 	H 	0.9461	0.1147	0.9861	-0.005
Mof_H 	H 	0.092	0.2361	0.9737	0.089
Mof_H 	H 	0.7263	0.3704	0.0397	0.084
Mof_H 	H 	0.5927	0.2464	0.0514	-0.004
Mof_H 	H 	0.1149	0.3924	0.9792	0.052
Mof_C 	C 	0.145	0.6332	0.6764	0.076
Mof_C 	C 	0.2883	0.6511	0.6482	-0.148
Mof_C 	C 	0.3574	0.7276	0.6644	0.056
Mof_C 	C 	0.2849	0.7852	0.7093	-0.125
Mof_C 	C 	0.0593	0.897	0.8148	-0.134
Mof_C 	C 	0.9415	0.9293	0.8561	0.062
Mof_C 	C 	0.8046	0.8866	0.865	-0.15
Mof_C 	C 	0.7859	0.8065	0.8338	0.077
Mof_C 	C 	0.9123	0.6875	0.7544	0.375
Mof_C 	C 	0.0695	0.692	0.7197	-0.156
Mof_C 	C 	0.1414	0.7681	0.736	0.057
Mof_C 	C 	0.0385	0.8176	0.7826	0.056
Mof_C 	C 	0.9034	0.7728	0.7931	-0.153
Mof_C 	C 	0.9053	0.6156	0.8098	-0.714
Mof_C 	C 	0.7862	0.6794	0.6965	-0.71
Mof_C 	C 	0.3669	0.5894	0.5995	0.394
Mof_C 	C 	0.6816	0.9262	0.9097	0.401
Mof_C 	C 	0.9009	0.6675	0.5028	0.088
Mof_C 	C 	0.9888	0.7398	0.5107	-0.16
Mof_C 	C 	0.9236	0.817	0.4957	0.102
Mof_C 	C 	0.7742	0.8184	0.4719	-0.158
Mof_C 	C 	0.6954	0.7443	0.465	0.082
Mof_C 	C 	0.0114	0.8952	0.5056	-0.055
Mof_C 	C 	0.855	0.8668	0.1764	0.074
Mof_C 	C 	0.7117	0.8489	0.1482	-0.147
Mof_C 	C 	0.6426	0.7724	0.1644	0.055
Mof_C 	C 	0.7151	0.7148	0.2093	-0.124
Mof_C 	C 	0.9407	0.603	0.3148	-0.131
Mof_C 	C 	0.0585	0.5707	0.3561	0.059
Mof_C 	C 	0.1954	0.6134	0.365	-0.149
Mof_C 	C 	0.2141	0.6935	0.3338	0.076
Mof_C 	C 	0.0877	0.8125	0.2544	0.372
Mof_C 	C 	0.9305	0.808	0.2197	-0.153
Mof_C 	C 	0.8586	0.7319	0.236	0.056
Mof_C 	C 	0.9615	0.6824	0.2826	0.058
Mof_C 	C 	0.0966	0.7272	0.2931	-0.154
Mof_C 	C 	0.0947	0.8844	0.3098	-0.712
Mof_C 	C 	0.2138	0.8206	0.1965	-0.708
Mof_C 	C 	0.6331	0.9106	0.0995	0.393
Mof_C 	C 	0.3184	0.5738	0.4097	0.401
Mof_C 	C 	0.0991	0.8325	0.0028	0.091
Mof_C 	C 	0.0112	0.7602	0.0107	-0.159
Mof_C 	C 	0.0764	0.683	0.9957	0.096
Mof_C 	C 	0.2258	0.6816	0.9719	-0.155
Mof_C 	C 	0.3046	0.7557	0.965	0.08
Mof_C 	C 	0.9886	0.6048	0.0056	-0.047
Mof_C 	C 	0.855	0.3668	0.3236	0.076
Mof_C 	C 	0.7117	0.3489	0.3518	-0.148
Mof_C 	C 	0.6426	0.2724	0.3356	0.056
Mof_C 	C 	0.7151	0.2148	0.2907	-0.125
Mof_C 	C 	0.9407	0.103	0.1852	-0.134
Mof_C 	C 	0.0585	0.0707	0.1439	0.062
Mof_C 	C 	0.1954	0.1134	0.135	-0.15
Mof_C 	C 	0.2141	0.1935	0.1662	0.077
Mof_C 	C 	0.0877	0.3125	0.2456	0.375
Mof_C 	C 	0.9305	0.308	0.2803	-0.156
Mof_C 	C 	0.8586	0.2319	0.264	0.057
Mof_C 	C 	0.9615	0.1824	0.2174	0.056
Mof_C 	C 	0.0966	0.2272	0.2069	-0.153
Mof_C 	C 	0.0947	0.3844	0.1902	-0.714
Mof_C 	C 	0.2138	0.3206	0.3035	-0.71
Mof_C 	C 	0.6331	0.4106	0.4005	0.394
Mof_C 	C 	0.3184	0.0738	0.0903	0.401
Mof_C 	C 	0.0991	0.3325	0.4972	0.088
Mof_C 	C 	0.0112	0.2602	0.4893	-0.16
Mof_C 	C 	0.0764	0.183	0.5043	0.102
Mof_C 	C 	0.2258	0.1816	0.5281	-0.158
Mof_C 	C 	0.3046	0.2557	0.535	0.082
Mof_C 	C 	0.9886	0.1048	0.4944	-0.055
Mof_C 	C 	0.145	0.1332	0.8236	0.074
Mof_C 	C 	0.2883	0.1511	0.8518	-0.147
Mof_C 	C 	0.3574	0.2276	0.8356	0.055
Mof_C 	C 	0.2849	0.2852	0.7907	-0.124
Mof_C 	C 	0.0593	0.397	0.6852	-0.131
Mof_C 	C 	0.9415	0.4293	0.6439	0.059
Mof_C 	C 	0.8046	0.3866	0.635	-0.149
Mof_C 	C 	0.7859	0.3065	0.6662	0.076
Mof_C 	C 	0.9123	0.1875	0.7456	0.372
Mof_C 	C 	0.0695	0.192	0.7803	-0.153
Mof_C 	C 	0.1414	0.2681	0.764	0.056
Mof_C 	C 	0.0385	0.3176	0.7174	0.058
Mof_C 	C 	0.9034	0.2728	0.7069	-0.154
Mof_C 	C 	0.9053	0.1156	0.6902	-0.712
Mof_C 	C 	0.7862	0.1794	0.8035	-0.708
Mof_C 	C 	0.3669	0.0894	0.9005	0.393
Mof_C 	C 	0.6816	0.4262	0.5903	0.401
Mof_C 	C 	0.9009	0.1675	0.9972	0.091
Mof_C 	C 	0.9888	0.2398	0.9893	-0.159
Mof_C 	C 	0.9236	0.317	0.0043	0.096
Mof_C 	C 	0.7742	0.3184	0.0281	-0.155
Mof_C 	C 	0.6954	0.2443	0.035	0.08
Mof_C 	C 	0.0114	0.3952	0.9944	-0.047
Mof_N 	N 	0.7565	0.66893	0.48046	-0.255
Mof_N 	N 	0.9498	0.9662	0.494	-0.081
Mof_N 	N 	0.2435	0.83107	0.98046	-0.257
Mof_N 	N 	0.0502	0.5338	0.994	-0.083
Mof_N 	N 	0.2435	0.33107	0.51954	-0.255
Mof_N 	N 	0.0502	0.0338	0.506	-0.081
Mof_N 	N 	0.7565	0.16893	0.01954	-0.257
Mof_N 	N 	0.9498	0.4662	0.006	-0.083
Mof_O 	O 	0.3119	0.51599	0.59555	-0.463
Mof_O 	O 	0.4811	0.61525	0.56422	-0.47
Mof_O 	O 	0.717	0.99287	0.94334	-0.483
Mof_O 	O 	0.5533	0.89144	0.91183	-0.463
Mof_O 	O 	0.6881	0.98401	0.09555	-0.46
Mof_O 	O 	0.5189	0.88475	0.06422	-0.469
Mof_O 	O 	0.283	0.50713	0.44334	-0.481
Mof_O 	O 	0.4467	0.60856	0.41183	-0.462
Mof_O 	O 	0.6881	0.48401	0.40445	-0.463
Mof_O 	O 	0.5189	0.38475	0.43578	-0.47
Mof_O 	O 	0.283	0.00713	0.05666	-0.483
Mof_O 	O 	0.4467	0.10856	0.08817	-0.463
Mof_O 	O 	0.3119	0.01599	0.90445	-0.46
Mof_O 	O 	0.4811	0.11525	0.93578	-0.469
Mof_O 	O 	0.717	0.49287	0.55666	-0.481
Mof_O 	O 	0.5533	0.39144	0.58817	-0.462
_end
