data_functionalizedCrystal
_audit_creation_method	'EQeq! by Chris Wilmer'
_symmetry_space_group_name_H-M	'P1'
_symmetry_Int_Tables_number	1
_symmetry_cell_setting	triclinic
loop_
_symmetry_equiv_pos_as_xyz
  x,y,z
_cell_length_a	25.8717
_cell_length_b	25.8717
_cell_length_c	6.2631
_cell_angle_alpha	90
_cell_angle_beta	90
_cell_angle_gamma	120
loop_
_atom_site_label
_atom_site_type_symbol
_atom_site_fract_x
_atom_site_fract_y
_atom_site_fract_z
_atom_site_charge
Mof_Cu	Cu	0.9468	0.6317	0.9859	0.928
Mof_C 	C 	0.0062	0.5866	0.696	0.355
Mof_C 	C 	0.022	0.5056	0.799	-0.057
Mof_C 	C 	0.0047	0.5454	0.866	-0.139
Mof_C 	C 	0.9884	0.5432	0.083	0.166
Mof_H 	H 	0.038	0.5093	0.63	0.062
Mof_O 	O 	0.0424	0.6019	0.539	-0.406
Mof_O 	O 	0.978	0.6152	0.743	-0.474
Mof_O 	O 	0.9708	0.5836	0.145	-0.436
Mof_Cu	Cu	0.61347	0.96503	0.31923	0.929
Mof_C 	C 	0.67287	0.91993	0.02933	0.352
Mof_C 	C 	0.68867	0.83893	0.13233	-0.06
Mof_C 	C 	0.67137	0.87873	0.19933	-0.138
Mof_C 	C 	0.65507	0.87653	0.41633	0.165
Mof_H 	H 	0.70467	0.84263	0.96333	0.064
Mof_O 	O 	0.70907	0.93523	0.87233	-0.404
Mof_O 	O 	0.64467	0.94853	0.07633	-0.473
Mof_O 	O 	0.63747	0.91693	0.47833	-0.436
Mof_Cu	Cu	0.28013	0.29837	0.65257	0.93
Mof_C 	C 	0.33953	0.25327	0.36267	0.354
Mof_C 	C 	0.35533	0.17227	0.46567	-0.057
Mof_C 	C 	0.33803	0.21207	0.53267	-0.139
Mof_C 	C 	0.32173	0.20987	0.74967	0.166
Mof_H 	H 	0.37133	0.17597	0.29667	0.062
Mof_O 	O 	0.37573	0.26857	0.20567	-0.405
Mof_O 	O 	0.31133	0.28187	0.40967	-0.473
Mof_O 	O 	0.30413	0.25027	0.81167	-0.437
Mof_Cu	Cu	0.3683	0.3151	0.9859	0.929
Mof_C 	C 	0.4134	0.4196	0.696	0.354
Mof_C 	C 	0.4944	0.5164	0.799	-0.057
Mof_C 	C 	0.4546	0.4593	0.866	-0.139
Mof_C 	C 	0.4568	0.4452	0.083	0.166
Mof_H 	H 	0.4907	0.5287	0.63	0.062
Mof_O 	O 	0.3981	0.4405	0.539	-0.406
Mof_O 	O 	0.3848	0.3628	0.743	-0.474
Mof_O 	O 	0.4164	0.3872	0.145	-0.436
Mof_Cu	Cu	0.03497	0.64843	0.31923	0.929
Mof_C 	C 	0.08007	0.75293	0.02933	0.351
Mof_C 	C 	0.16107	0.84973	0.13233	-0.061
Mof_C 	C 	0.12127	0.79263	0.19933	-0.137
Mof_C 	C 	0.12347	0.77853	0.41633	0.165
Mof_H 	H 	0.15737	0.86203	0.96333	0.065
Mof_O 	O 	0.06477	0.77383	0.87233	-0.404
Mof_O 	O 	0.05147	0.69613	0.07633	-0.473
Mof_O 	O 	0.08307	0.72053	0.47833	-0.436
Mof_Cu	Cu	0.70163	0.98177	0.65257	0.93
Mof_C 	C 	0.74673	0.08627	0.36267	0.354
Mof_C 	C 	0.82773	0.18307	0.46567	-0.057
Mof_C 	C 	0.78793	0.12597	0.53267	-0.139
Mof_C 	C 	0.79013	0.11187	0.74967	0.166
Mof_H 	H 	0.82403	0.19537	0.29667	0.063
Mof_O 	O 	0.73143	0.10717	0.20567	-0.404
Mof_O 	O 	0.71813	0.02947	0.40967	-0.473
Mof_O 	O 	0.74973	0.05387	0.81167	-0.437
Mof_Cu	Cu	0.6849	0.0532	0.9859	0.928
Mof_C 	C 	0.5804	0.9938	0.696	0.355
Mof_C 	C 	0.4836	0.978	0.799	-0.057
Mof_C 	C 	0.5407	0.9953	0.866	-0.139
Mof_C 	C 	0.5548	0.0116	0.083	0.166
Mof_H 	H 	0.4713	0.962	0.63	0.062
Mof_O 	O 	0.5595	0.9576	0.539	-0.406
Mof_O 	O 	0.6372	0.022	0.743	-0.474
Mof_O 	O 	0.6128	0.0292	0.145	-0.436
Mof_Cu	Cu	0.35157	0.38653	0.31923	0.929
Mof_C 	C 	0.24707	0.32713	0.02933	0.353
Mof_C 	C 	0.15027	0.31133	0.13233	-0.06
Mof_C 	C 	0.20737	0.32863	0.19933	-0.138
Mof_C 	C 	0.22147	0.34493	0.41633	0.165
Mof_H 	H 	0.13797	0.29533	0.96333	0.064
Mof_O 	O 	0.22617	0.29093	0.87233	-0.405
Mof_O 	O 	0.30387	0.35533	0.07633	-0.473
Mof_O 	O 	0.27947	0.36253	0.47833	-0.436
Mof_Cu	Cu	0.01823	0.71987	0.65257	0.93
Mof_C 	C 	0.91373	0.66047	0.36267	0.354
Mof_C 	C 	0.81693	0.64467	0.46567	-0.057
Mof_C 	C 	0.87403	0.66197	0.53267	-0.139
Mof_C 	C 	0.88813	0.67827	0.74967	0.166
Mof_H 	H 	0.80463	0.62867	0.29667	0.062
Mof_O 	O 	0.89283	0.62427	0.20567	-0.404
Mof_O 	O 	0.97053	0.68867	0.40967	-0.473
Mof_O 	O 	0.94613	0.69587	0.81167	-0.437
Mof_Cu	Cu	0.0532	0.3683	0.0141	0.928
Mof_C 	C 	0.9938	0.4134	0.304	0.355
Mof_C 	C 	0.978	0.4944	0.201	-0.057
Mof_C 	C 	0.9953	0.4546	0.134	-0.139
Mof_C 	C 	0.0116	0.4568	0.917	0.166
Mof_H 	H 	0.962	0.4907	0.37	0.062
Mof_O 	O 	0.9576	0.3981	0.461	-0.406
Mof_O 	O 	0.022	0.3848	0.257	-0.474
Mof_O 	O 	0.0292	0.4164	0.855	-0.436
Mof_Cu	Cu	0.71987	0.70163	0.34743	0.93
Mof_C 	C 	0.66047	0.74673	0.63733	0.354
Mof_C 	C 	0.64467	0.82773	0.53433	-0.057
Mof_C 	C 	0.66197	0.78793	0.46733	-0.139
Mof_C 	C 	0.67827	0.79013	0.25033	0.166
Mof_H 	H 	0.62867	0.82403	0.70333	0.062
Mof_O 	O 	0.62427	0.73143	0.79433	-0.405
Mof_O 	O 	0.68867	0.71813	0.59033	-0.473
Mof_O 	O 	0.69587	0.74973	0.18833	-0.437
Mof_Cu	Cu	0.38653	0.03497	0.68077	0.929
Mof_C 	C 	0.32713	0.08007	0.97067	0.352
Mof_C 	C 	0.31133	0.16107	0.86767	-0.06
Mof_C 	C 	0.32863	0.12127	0.80067	-0.138
Mof_C 	C 	0.34493	0.12347	0.58367	0.165
Mof_H 	H 	0.29533	0.15737	0.03667	0.064
Mof_O 	O 	0.29093	0.06477	0.12767	-0.404
Mof_O 	O 	0.35533	0.05147	0.92367	-0.473
Mof_O 	O 	0.36253	0.08307	0.52167	-0.436
Mof_Cu	Cu	0.6317	0.6849	0.0141	0.929
Mof_C 	C 	0.5866	0.5804	0.304	0.354
Mof_C 	C 	0.5056	0.4836	0.201	-0.057
Mof_C 	C 	0.5454	0.5407	0.134	-0.139
Mof_C 	C 	0.5432	0.5548	0.917	0.166
Mof_H 	H 	0.5093	0.4713	0.37	0.062
Mof_O 	O 	0.6019	0.5595	0.461	-0.406
Mof_O 	O 	0.6152	0.6372	0.257	-0.474
Mof_O 	O 	0.5836	0.6128	0.855	-0.436
Mof_Cu	Cu	0.29837	0.01823	0.34743	0.93
Mof_C 	C 	0.25327	0.91373	0.63733	0.354
Mof_C 	C 	0.17227	0.81693	0.53433	-0.057
Mof_C 	C 	0.21207	0.87403	0.46733	-0.139
Mof_C 	C 	0.20987	0.88813	0.25033	0.166
Mof_H 	H 	0.17597	0.80463	0.70333	0.063
Mof_O 	O 	0.26857	0.89283	0.79433	-0.404
Mof_O 	O 	0.28187	0.97053	0.59033	-0.473
Mof_O 	O 	0.25027	0.94613	0.18833	-0.437
Mof_Cu	Cu	0.96503	0.35157	0.68077	0.929
Mof_C 	C 	0.91993	0.24707	0.97067	0.351
Mof_C 	C 	0.83893	0.15027	0.86767	-0.061
Mof_C 	C 	0.87873	0.20737	0.80067	-0.137
Mof_C 	C 	0.87653	0.22147	0.58367	0.165
Mof_H 	H 	0.84263	0.13797	0.03667	0.065
Mof_O 	O 	0.93523	0.22617	0.12767	-0.404
Mof_O 	O 	0.94853	0.30387	0.92367	-0.473
Mof_O 	O 	0.91693	0.27947	0.52167	-0.436
Mof_Cu	Cu	0.3151	0.9468	0.0141	0.928
Mof_C 	C 	0.4196	0.0062	0.304	0.355
Mof_C 	C 	0.5164	0.022	0.201	-0.057
Mof_C 	C 	0.4593	0.0047	0.134	-0.139
Mof_C 	C 	0.4452	0.9884	0.917	0.166
Mof_H 	H 	0.5287	0.038	0.37	0.062
Mof_O 	O 	0.4405	0.0424	0.461	-0.406
Mof_O 	O 	0.3628	0.978	0.257	-0.474
Mof_O 	O 	0.3872	0.9708	0.855	-0.436
Mof_Cu	Cu	0.98177	0.28013	0.34743	0.93
Mof_C 	C 	0.08627	0.33953	0.63733	0.354
Mof_C 	C 	0.18307	0.35533	0.53433	-0.057
Mof_C 	C 	0.12597	0.33803	0.46733	-0.139
Mof_C 	C 	0.11187	0.32173	0.25033	0.166
Mof_H 	H 	0.19537	0.37133	0.70333	0.062
Mof_O 	O 	0.10717	0.37573	0.79433	-0.404
Mof_O 	O 	0.02947	0.31133	0.59033	-0.473
Mof_O 	O 	0.05387	0.30413	0.18833	-0.437
Mof_Cu	Cu	0.64843	0.61347	0.68077	0.929
Mof_C 	C 	0.75293	0.67287	0.97067	0.353
Mof_C 	C 	0.84973	0.68867	0.86767	-0.06
Mof_C 	C 	0.79263	0.67137	0.80067	-0.138
Mof_C 	C 	0.77853	0.65507	0.58367	0.165
Mof_H 	H 	0.86203	0.70467	0.03667	0.064
Mof_O 	O 	0.77383	0.70907	0.12767	-0.405
Mof_O 	O 	0.69613	0.64467	0.92367	-0.473
Mof_O 	O 	0.72053	0.63747	0.52167	-0.436
_end
