data_functionalizedCrystal
_audit_creation_method	'EQeq! by Chris Wilmer'
_symmetry_space_group_name_H-M	'P1'
_symmetry_Int_Tables_number	1
_symmetry_cell_setting	triclinic
loop_
_symmetry_equiv_pos_as_xyz
  x,y,z
_cell_length_a	7.1301
_cell_length_b	9.6227
_cell_length_c	16.7625
_cell_angle_alpha	90
_cell_angle_beta	90
_cell_angle_gamma	90
loop_
_atom_site_label
_atom_site_type_symbol
_atom_site_fract_x
_atom_site_fract_y
_atom_site_fract_z
_atom_site_charge
Mof_Cd	Cd	0.7071	0.28259	0.65697	0.417
Mof_Cd	Cd	0.9576	0.49952	0.50024	0.414
Mof_Cd	Cd	0.2071	0.71741	0.34303	0.455
Mof_Cd	Cd	0.4576	0.50048	0.49976	0.465
Mof_Cd	Cd	0.7071	0.78259	0.84303	0.416
Mof_Cd	Cd	0.9576	0.99952	0.99976	0.418
Mof_Cd	Cd	0.2071	0.21741	0.15697	0.451
Mof_Cd	Cd	0.4576	0.00048	0.00024	0.455
Mof_H 	H 	0.733	0.298	0.502	0.214
Mof_H 	H 	0.062	0.0992	0.7582	0.363
Mof_H 	H 	0.2513	0.0353	0.728	0.336
Mof_H 	H 	0.2532	0.1524	0.793	0.345
Mof_H 	H 	0.233	0.702	0.498	0.225
Mof_H 	H 	0.562	0.9008	0.2418	0.329
Mof_H 	H 	0.7513	0.9647	0.272	0.306
Mof_H 	H 	0.7532	0.8476	0.207	0.311
Mof_H 	H 	0.733	0.798	0.998	0.215
Mof_H 	H 	0.062	0.5992	0.7418	0.365
Mof_H 	H 	0.2513	0.5353	0.772	0.338
Mof_H 	H 	0.2532	0.6524	0.707	0.347
Mof_H 	H 	0.233	0.202	0.002	0.223
Mof_H 	H 	0.562	0.4008	0.2582	0.327
Mof_H 	H 	0.7513	0.4647	0.228	0.305
Mof_H 	H 	0.7532	0.3476	0.293	0.311
Mof_C 	C 	0.201	0.2259	0.6824	0.363
Mof_C 	C 	0.1909	0.1187	0.746	-0.974
Mof_C 	C 	0.701	0.7741	0.3176	0.337
Mof_C 	C 	0.6909	0.8813	0.254	-0.914
Mof_C 	C 	0.201	0.7259	0.8176	0.366
Mof_C 	C 	0.1909	0.6187	0.754	-0.978
Mof_C 	C 	0.701	0.2741	0.1824	0.335
Mof_C 	C 	0.6909	0.3813	0.246	-0.911
Mof_S 	S 	0.7052	0.14321	0.84828	0.667
Mof_S 	S 	0.2052	0.85679	0.15172	0.666
Mof_S 	S 	0.7052	0.64321	0.65172	0.668
Mof_S 	S 	0.2052	0.35679	0.34828	0.666
Mof_N 	N 	0.0465	0.2821	0.6491	-0.147
Mof_N 	N 	0.1243	0.3681	0.5921	-0.063
Mof_N 	N 	0.3063	0.3689	0.5958	-0.069
Mof_N 	N 	0.358	0.2785	0.6495	-0.159
Mof_N 	N 	0.5465	0.7179	0.3509	-0.159
Mof_N 	N 	0.6243	0.6319	0.4079	-0.078
Mof_N 	N 	0.8063	0.6311	0.4042	-0.077
Mof_N 	N 	0.858	0.7215	0.3505	-0.17
Mof_N 	N 	0.0465	0.7821	0.8509	-0.146
Mof_N 	N 	0.1243	0.8681	0.9079	-0.062
Mof_N 	N 	0.3063	0.8689	0.9042	-0.066
Mof_N 	N 	0.358	0.7785	0.8505	-0.159
Mof_N 	N 	0.5465	0.2179	0.1491	-0.16
Mof_N 	N 	0.6243	0.1319	0.0921	-0.079
Mof_N 	N 	0.8063	0.1311	0.0958	-0.078
Mof_N 	N 	0.858	0.2215	0.1495	-0.17
Mof_O 	O 	0.717	0.2593	0.7916	-0.327
Mof_O 	O 	0.724	0.0111	0.8048	-0.334
Mof_O 	O 	0.5356	0.1518	0.9008	-0.325
Mof_O 	O 	0.8708	0.1525	0.8971	-0.34
Mof_O 	O 	0.697	0.3655	0.5303	-0.42
Mof_O 	O 	0.217	0.7407	0.2084	-0.309
Mof_O 	O 	0.224	0.9889	0.1952	-0.313
Mof_O 	O 	0.0356	0.8482	0.0992	-0.299
Mof_O 	O 	0.3708	0.8475	0.1029	-0.323
Mof_O 	O 	0.197	0.6345	0.4697	-0.402
Mof_O 	O 	0.717	0.7593	0.7084	-0.327
Mof_O 	O 	0.724	0.5111	0.6952	-0.335
Mof_O 	O 	0.5356	0.6518	0.5992	-0.329
Mof_O 	O 	0.8708	0.6525	0.6029	-0.343
Mof_O 	O 	0.697	0.8655	0.9697	-0.418
Mof_O 	O 	0.217	0.2407	0.2916	-0.31
Mof_O 	O 	0.224	0.4889	0.3048	-0.316
Mof_O 	O 	0.0356	0.3482	0.4008	-0.299
Mof_O 	O 	0.3708	0.3475	0.3971	-0.325
Mof_O 	O 	0.197	0.1345	0.0303	-0.406
_end
