data_functionalizedCrystal
_audit_creation_method	'EQeq! by Chris Wilmer'
_symmetry_space_group_name_H-M	'P1'
_symmetry_Int_Tables_number	1
_symmetry_cell_setting	triclinic
loop_
_symmetry_equiv_pos_as_xyz
  x,y,z
_cell_length_a	22.249
_cell_length_b	22.249
_cell_length_c	22.249
_cell_angle_alpha	90
_cell_angle_beta	90
_cell_angle_gamma	90
loop_
_atom_site_label
_atom_site_type_symbol
_atom_site_fract_x
_atom_site_fract_y
_atom_site_fract_z
_atom_site_charge
Mof_H 	H 	0.35156	0.85922	0.20001	0.022
Mof_C 	C 	0.28146	0.051	0.87376	-0.043
Mof_H 	H 	0.26275	0.0293	0.83128	0.027
Mof_C 	C 	0.32975	0.02541	0.90292	-0.028
Mof_H 	H 	0.35273	0.98414	0.88307	0.08
Mof_H 	H 	0.64844	0.14078	0.20001	0.016
Mof_C 	C 	0.71854	0.949	0.87376	-0.088
Mof_H 	H 	0.73725	0.9707	0.83128	0.07
Mof_C 	C 	0.67025	0.97459	0.90292	0.134
Mof_H 	H 	0.64727	0.01586	0.88307	-0.031
Mof_H 	H 	0.64844	0.85922	0.79999	0.025
Mof_C 	C 	0.71854	0.051	0.12624	-0.028
Mof_H 	H 	0.73725	0.0293	0.16872	0.024
Mof_C 	C 	0.67025	0.02541	0.09708	-0.048
Mof_H 	H 	0.64727	0.98414	0.11693	0.08
Mof_H 	H 	0.35156	0.14078	0.79999	0.019
Mof_C 	C 	0.28146	0.949	0.12624	-0.081
Mof_H 	H 	0.26275	0.9707	0.16872	0.062
Mof_C 	C 	0.32975	0.97459	0.09708	0.118
Mof_H 	H 	0.35273	0.01586	0.11693	-0.038
Mof_H 	H 	0.20001	0.35156	0.85922	0.023
Mof_C 	C 	0.87376	0.28146	0.051	-0.042
Mof_H 	H 	0.83128	0.26275	0.0293	0.029
Mof_C 	C 	0.90292	0.32975	0.02541	-0.027
Mof_H 	H 	0.88307	0.35273	0.98414	0.081
Mof_H 	H 	0.20001	0.64844	0.14078	0.019
Mof_C 	C 	0.87376	0.71854	0.949	-0.087
Mof_H 	H 	0.83128	0.73725	0.9707	0.071
Mof_C 	C 	0.90292	0.67025	0.97459	0.135
Mof_H 	H 	0.88307	0.64727	0.01586	-0.03
Mof_H 	H 	0.79999	0.64844	0.85922	0.025
Mof_C 	C 	0.12624	0.71854	0.051	-0.028
Mof_H 	H 	0.16872	0.73725	0.0293	0.023
Mof_C 	C 	0.09708	0.67025	0.02541	-0.048
Mof_H 	H 	0.11693	0.64727	0.98414	0.08
Mof_H 	H 	0.79999	0.35156	0.14078	0.017
Mof_C 	C 	0.12624	0.28146	0.949	-0.081
Mof_H 	H 	0.16872	0.26275	0.9707	0.062
Mof_C 	C 	0.09708	0.32975	0.97459	0.118
Mof_H 	H 	0.11693	0.35273	0.01586	-0.038
Mof_H 	H 	0.85922	0.20001	0.35156	0.023
Mof_C 	C 	0.051	0.87376	0.28146	-0.042
Mof_H 	H 	0.0293	0.83128	0.26275	0.029
Mof_C 	C 	0.02541	0.90292	0.32975	-0.027
Mof_H 	H 	0.98414	0.88307	0.35273	0.081
Mof_H 	H 	0.14078	0.20001	0.64844	0.02
Mof_C 	C 	0.949	0.87376	0.71854	-0.087
Mof_H 	H 	0.9707	0.83128	0.73725	0.071
Mof_C 	C 	0.97459	0.90292	0.67025	0.135
Mof_H 	H 	0.01586	0.88307	0.64727	-0.03
Mof_H 	H 	0.85922	0.79999	0.64844	0.025
Mof_C 	C 	0.051	0.12624	0.71854	-0.028
Mof_H 	H 	0.0293	0.16872	0.73725	0.023
Mof_C 	C 	0.02541	0.09708	0.67025	-0.048
Mof_H 	H 	0.98414	0.11693	0.64727	0.08
Mof_H 	H 	0.14078	0.79999	0.35156	0.016
Mof_C 	C 	0.949	0.12624	0.28146	-0.081
Mof_H 	H 	0.9707	0.16872	0.26275	0.062
Mof_C 	C 	0.97459	0.09708	0.32975	0.118
Mof_H 	H 	0.01586	0.11693	0.35273	-0.038
Mof_H 	H 	0.85922	0.35143	0.19994	0.023
Mof_C 	C 	0.051	0.28146	0.87376	-0.042
Mof_H 	H 	0.0293	0.26275	0.83128	0.029
Mof_C 	C 	0.02541	0.32975	0.90292	-0.027
Mof_H 	H 	0.98414	0.35273	0.88307	0.081
Mof_H 	H 	0.14078	0.64857	0.19994	0.02
Mof_C 	C 	0.949	0.71854	0.87376	-0.087
Mof_H 	H 	0.9707	0.73725	0.83128	0.071
Mof_C 	C 	0.97459	0.67025	0.90292	0.135
Mof_H 	H 	0.01586	0.64727	0.88307	-0.03
Mof_H 	H 	0.85922	0.64857	0.80006	0.025
Mof_C 	C 	0.051	0.71854	0.12624	-0.028
Mof_H 	H 	0.0293	0.73725	0.16872	0.023
Mof_C 	C 	0.02541	0.67025	0.09708	-0.048
Mof_H 	H 	0.98414	0.64727	0.11693	0.08
Mof_H 	H 	0.14078	0.35143	0.80006	0.016
Mof_C 	C 	0.949	0.28146	0.12624	-0.081
Mof_H 	H 	0.9707	0.26275	0.16872	0.062
Mof_C 	C 	0.97459	0.32975	0.09708	0.118
Mof_H 	H 	0.01586	0.35273	0.11693	-0.038
Mof_H 	H 	0.35143	0.19994	0.85922	0.023
Mof_C 	C 	0.28146	0.87376	0.051	-0.042
Mof_H 	H 	0.26275	0.83128	0.0293	0.028
Mof_C 	C 	0.32975	0.90292	0.02541	-0.027
Mof_H 	H 	0.35273	0.88307	0.98414	0.081
Mof_H 	H 	0.64857	0.19994	0.14078	0.017
Mof_C 	C 	0.71854	0.87376	0.949	-0.087
Mof_H 	H 	0.73725	0.83128	0.9707	0.071
Mof_C 	C 	0.67025	0.90292	0.97459	0.135
Mof_H 	H 	0.64727	0.88307	0.01586	-0.03
Mof_H 	H 	0.64857	0.80006	0.85922	0.025
Mof_C 	C 	0.71854	0.12624	0.051	-0.028
Mof_H 	H 	0.73725	0.16872	0.0293	0.024
Mof_C 	C 	0.67025	0.09708	0.02541	-0.048
Mof_H 	H 	0.64727	0.11693	0.98414	0.08
Mof_H 	H 	0.35143	0.80006	0.14078	0.019
Mof_C 	C 	0.28146	0.12624	0.949	-0.081
Mof_H 	H 	0.26275	0.16872	0.9707	0.062
Mof_C 	C 	0.32975	0.09708	0.97459	0.118
Mof_H 	H 	0.35273	0.11693	0.01586	-0.038
Mof_H 	H 	0.19994	0.85922	0.35143	0.023
Mof_C 	C 	0.87376	0.051	0.28146	-0.042
Mof_H 	H 	0.83128	0.0293	0.26275	0.029
Mof_C 	C 	0.90292	0.02541	0.32975	-0.027
Mof_H 	H 	0.88307	0.98414	0.35273	0.081
Mof_H 	H 	0.19994	0.14078	0.64857	0.019
Mof_C 	C 	0.87376	0.949	0.71854	-0.087
Mof_H 	H 	0.83128	0.9707	0.73725	0.071
Mof_C 	C 	0.90292	0.97459	0.67025	0.135
Mof_H 	H 	0.88307	0.01586	0.64727	-0.03
Mof_H 	H 	0.80006	0.85922	0.64857	0.025
Mof_C 	C 	0.12624	0.051	0.71854	-0.028
Mof_H 	H 	0.16872	0.0293	0.73725	0.023
Mof_C 	C 	0.09708	0.02541	0.67025	-0.048
Mof_H 	H 	0.11693	0.98414	0.64727	0.08
Mof_H 	H 	0.80006	0.14078	0.35143	0.017
Mof_C 	C 	0.12624	0.949	0.28146	-0.081
Mof_H 	H 	0.16872	0.9707	0.26275	0.062
Mof_C 	C 	0.09708	0.97459	0.32975	0.118
Mof_H 	H 	0.11693	0.01586	0.35273	-0.038
Mof_Co	Co	0.42427	0	-0	1.108
Mof_Co	Co	0.57573	0	-0	1.109
Mof_Co	Co	-0	0.42427	-0	1.108
Mof_Co	Co	-0	0.57573	-0	1.109
Mof_Co	Co	1.59076e-33	4.58405e-33	0.42427	1.108
Mof_Co	Co	2.15864e-33	4.58405e-33	0.57573	1.109
Mof_O 	O 	0.47221	0.93802	0.06198	-0.4
Mof_N 	N 	0.35129	0.04645	0.95355	-0.2
Mof_C 	C 	0.29745	0.77881	0.22119	-0.06
Mof_O 	O 	0.40615	0.78367	0.21633	-0.22
Mof_C 	C 	0.20282	0.13112	0.86888	0.111
Mof_O 	O 	0.57315	0.93571	0.06429	-0.413
Mof_C 	C 	0.52122	0.91872	0.08128	0.346
Mof_C 	C 	0.35259	0.80874	0.19126	0.053
Mof_C 	C 	0.25606	0.10329	0.89671	0.006
Mof_C 	C 	0.51948	0.87026	0.12974	-0.056
Mof_C 	C 	0.46313	0.8505	0.1495	-0.065
Mof_H 	H 	0.42046	0.87056	0.12944	0.059
Mof_C 	C 	0.45912	0.80529	0.19471	0.146
Mof_C 	C 	0.511	0.7823	0.2177	-0.09
Mof_H 	H 	0.50914	0.74609	0.25391	0.062
Mof_C 	C 	0.5676	0.80229	0.19771	-0.009
Mof_H 	H 	0.61035	0.78231	0.21769	0.03
Mof_C 	C 	0.5707	0.8462	0.1538	-0.014
Mof_H 	H 	0.61659	0.86231	0.13769	0.042
Mof_O 	O 	0.52779	0.06198	0.06198	-0.439
Mof_N 	N 	0.64871	0.95355	0.95355	-0.203
Mof_C 	C 	0.70255	0.22119	0.22119	-0.059
Mof_O 	O 	0.59385	0.21633	0.21633	-0.222
Mof_C 	C 	0.79718	0.86888	0.86888	0.116
Mof_O 	O 	0.42685	0.06429	0.06429	-0.448
Mof_C 	C 	0.47878	0.08128	0.08128	0.347
Mof_C 	C 	0.64741	0.19126	0.19126	0.055
Mof_C 	C 	0.74394	0.89671	0.89671	0.037
Mof_C 	C 	0.48052	0.12974	0.12974	-0.067
Mof_C 	C 	0.53687	0.1495	0.1495	-0.068
Mof_H 	H 	0.57954	0.12944	0.12944	0.055
Mof_C 	C 	0.54088	0.19471	0.19471	0.142
Mof_C 	C 	0.489	0.2177	0.2177	-0.093
Mof_H 	H 	0.49086	0.25391	0.25391	0.057
Mof_C 	C 	0.4324	0.19771	0.19771	-0.016
Mof_H 	H 	0.38965	0.21769	0.21769	0.021
Mof_C 	C 	0.4293	0.1538	0.1538	-0.018
Mof_H 	H 	0.38341	0.13769	0.13769	0.03
Mof_O 	O 	0.52779	0.93802	0.93802	-0.365
Mof_N 	N 	0.64871	0.04645	0.04645	-0.195
Mof_C 	C 	0.70255	0.77881	0.77881	-0.061
Mof_O 	O 	0.59385	0.78367	0.78367	-0.218
Mof_C 	C 	0.79718	0.13112	0.13112	0.117
Mof_O 	O 	0.42685	0.93571	0.93571	-0.381
Mof_C 	C 	0.47878	0.91872	0.91872	0.346
Mof_C 	C 	0.64741	0.80874	0.80874	0.05
Mof_C 	C 	0.74394	0.10329	0.10329	-0.024
Mof_C 	C 	0.48052	0.87026	0.87026	-0.046
Mof_C 	C 	0.53687	0.8505	0.8505	-0.061
Mof_H 	H 	0.57954	0.87056	0.87056	0.062
Mof_C 	C 	0.54088	0.80529	0.80529	0.149
Mof_C 	C 	0.489	0.7823	0.7823	-0.087
Mof_H 	H 	0.49086	0.74609	0.74609	0.065
Mof_C 	C 	0.4324	0.80229	0.80229	-0.003
Mof_H 	H 	0.38965	0.78231	0.78231	0.034
Mof_C 	C 	0.4293	0.8462	0.8462	-0.011
Mof_H 	H 	0.38341	0.86231	0.86231	0.05
Mof_O 	O 	0.47221	0.06198	0.93802	-0.4
Mof_N 	N 	0.35129	0.95355	0.04645	-0.2
Mof_C 	C 	0.29745	0.22119	0.77881	-0.06
Mof_O 	O 	0.40615	0.21633	0.78367	-0.22
Mof_C 	C 	0.20282	0.86888	0.13112	0.111
Mof_O 	O 	0.57315	0.06429	0.93571	-0.413
Mof_C 	C 	0.52122	0.08128	0.91872	0.346
Mof_C 	C 	0.35259	0.19126	0.80874	0.053
Mof_C 	C 	0.25606	0.89671	0.10329	0.006
Mof_C 	C 	0.51948	0.12974	0.87026	-0.056
Mof_C 	C 	0.46313	0.1495	0.8505	-0.065
Mof_H 	H 	0.42046	0.12944	0.87056	0.059
Mof_C 	C 	0.45912	0.19471	0.80529	0.146
Mof_C 	C 	0.511	0.2177	0.7823	-0.09
Mof_H 	H 	0.50914	0.25391	0.74609	0.062
Mof_C 	C 	0.5676	0.19771	0.80229	-0.009
Mof_H 	H 	0.61035	0.21769	0.78231	0.03
Mof_C 	C 	0.5707	0.1538	0.8462	-0.014
Mof_H 	H 	0.61659	0.13769	0.86231	0.042
Mof_O 	O 	0.06198	0.47221	0.93802	-0.4
Mof_N 	N 	0.95355	0.35129	0.04645	-0.2
Mof_C 	C 	0.22119	0.29745	0.77881	-0.06
Mof_O 	O 	0.21633	0.40615	0.78367	-0.219
Mof_C 	C 	0.86888	0.20282	0.13112	0.111
Mof_O 	O 	0.06429	0.57315	0.93571	-0.413
Mof_C 	C 	0.08128	0.52122	0.91872	0.346
Mof_C 	C 	0.19126	0.35259	0.80874	0.053
Mof_C 	C 	0.89671	0.25606	0.10329	0.006
Mof_C 	C 	0.12974	0.51948	0.87026	-0.056
Mof_C 	C 	0.1495	0.46313	0.8505	-0.065
Mof_H 	H 	0.12944	0.42046	0.87056	0.059
Mof_C 	C 	0.19471	0.45912	0.80529	0.146
Mof_C 	C 	0.2177	0.511	0.7823	-0.089
Mof_H 	H 	0.25391	0.50914	0.74609	0.062
Mof_C 	C 	0.19771	0.5676	0.80229	-0.009
Mof_H 	H 	0.21769	0.61035	0.78231	0.03
Mof_C 	C 	0.1538	0.5707	0.8462	-0.014
Mof_H 	H 	0.13769	0.61659	0.86231	0.042
Mof_O 	O 	0.06198	0.52779	0.06198	-0.439
Mof_N 	N 	0.95355	0.64871	0.95355	-0.203
Mof_C 	C 	0.22119	0.70255	0.22119	-0.06
Mof_O 	O 	0.21633	0.59385	0.21633	-0.223
Mof_C 	C 	0.86888	0.79718	0.86888	0.116
Mof_O 	O 	0.06429	0.42685	0.06429	-0.448
Mof_C 	C 	0.08128	0.47878	0.08128	0.347
Mof_C 	C 	0.19126	0.64741	0.19126	0.053
Mof_C 	C 	0.89671	0.74394	0.89671	0.037
Mof_C 	C 	0.12974	0.48052	0.12974	-0.067
Mof_C 	C 	0.1495	0.53687	0.1495	-0.069
Mof_H 	H 	0.12944	0.57954	0.12944	0.055
Mof_C 	C 	0.19471	0.54088	0.19471	0.142
Mof_C 	C 	0.2177	0.489	0.2177	-0.093
Mof_H 	H 	0.25391	0.49086	0.25391	0.057
Mof_C 	C 	0.19771	0.4324	0.19771	-0.016
Mof_H 	H 	0.21769	0.38965	0.21769	0.021
Mof_C 	C 	0.1538	0.4293	0.1538	-0.018
Mof_H 	H 	0.13769	0.38341	0.13769	0.03
Mof_O 	O 	0.93802	0.52779	0.93802	-0.365
Mof_N 	N 	0.04645	0.64871	0.04645	-0.195
Mof_C 	C 	0.77881	0.70255	0.77881	-0.061
Mof_O 	O 	0.78367	0.59385	0.78367	-0.218
Mof_C 	C 	0.13112	0.79718	0.13112	0.117
Mof_O 	O 	0.93571	0.42685	0.93571	-0.381
Mof_C 	C 	0.91872	0.47878	0.91872	0.346
Mof_C 	C 	0.80874	0.64741	0.80874	0.05
Mof_C 	C 	0.10329	0.74394	0.10329	-0.025
Mof_C 	C 	0.87026	0.48052	0.87026	-0.046
Mof_C 	C 	0.8505	0.53687	0.8505	-0.061
Mof_H 	H 	0.87056	0.57954	0.87056	0.062
Mof_C 	C 	0.80529	0.54088	0.80529	0.149
Mof_C 	C 	0.7823	0.489	0.7823	-0.087
Mof_H 	H 	0.74609	0.49086	0.74609	0.065
Mof_C 	C 	0.80229	0.4324	0.80229	-0.003
Mof_H 	H 	0.78231	0.38965	0.78231	0.034
Mof_C 	C 	0.8462	0.4293	0.8462	-0.011
Mof_H 	H 	0.86231	0.38341	0.86231	0.05
Mof_O 	O 	0.93802	0.47221	0.06198	-0.4
Mof_N 	N 	0.04645	0.35129	0.95355	-0.2
Mof_C 	C 	0.77881	0.29745	0.22119	-0.059
Mof_O 	O 	0.78367	0.40615	0.21633	-0.219
Mof_C 	C 	0.13112	0.20282	0.86888	0.111
Mof_O 	O 	0.93571	0.57315	0.06429	-0.413
Mof_C 	C 	0.91872	0.52122	0.08128	0.346
Mof_C 	C 	0.80874	0.35259	0.19126	0.054
Mof_C 	C 	0.10329	0.25606	0.89671	0.006
Mof_C 	C 	0.87026	0.51948	0.12974	-0.056
Mof_C 	C 	0.8505	0.46313	0.1495	-0.065
Mof_H 	H 	0.87056	0.42046	0.12944	0.059
Mof_C 	C 	0.80529	0.45912	0.19471	0.146
Mof_C 	C 	0.7823	0.511	0.2177	-0.089
Mof_H 	H 	0.74609	0.50914	0.25391	0.062
Mof_C 	C 	0.80229	0.5676	0.19771	-0.009
Mof_H 	H 	0.78231	0.61035	0.21769	0.03
Mof_C 	C 	0.8462	0.5707	0.1538	-0.014
Mof_H 	H 	0.86231	0.61659	0.13769	0.042
Mof_O 	O 	0.93802	0.06198	0.47221	-0.4
Mof_N 	N 	0.04645	0.95355	0.35129	-0.2
Mof_C 	C 	0.77881	0.22119	0.29745	-0.059
Mof_O 	O 	0.78367	0.21633	0.40615	-0.219
Mof_C 	C 	0.13112	0.86888	0.20282	0.111
Mof_O 	O 	0.93571	0.06429	0.57315	-0.413
Mof_C 	C 	0.91872	0.08128	0.52122	0.346
Mof_C 	C 	0.80874	0.19126	0.35259	0.054
Mof_C 	C 	0.10329	0.89671	0.25606	0.006
Mof_C 	C 	0.87026	0.12974	0.51948	-0.056
Mof_C 	C 	0.8505	0.1495	0.46313	-0.065
Mof_H 	H 	0.87056	0.12944	0.42046	0.059
Mof_C 	C 	0.80529	0.19471	0.45912	0.146
Mof_C 	C 	0.7823	0.2177	0.511	-0.089
Mof_H 	H 	0.74609	0.25391	0.50914	0.062
Mof_C 	C 	0.80229	0.19771	0.5676	-0.009
Mof_H 	H 	0.78231	0.21769	0.61035	0.03
Mof_C 	C 	0.8462	0.1538	0.5707	-0.014
Mof_H 	H 	0.86231	0.13769	0.61659	0.042
Mof_O 	O 	0.06198	0.06198	0.52779	-0.439
Mof_N 	N 	0.95355	0.95355	0.64871	-0.203
Mof_C 	C 	0.22119	0.22119	0.70255	-0.06
Mof_O 	O 	0.21633	0.21633	0.59385	-0.223
Mof_C 	C 	0.86888	0.86888	0.79718	0.116
Mof_O 	O 	0.06429	0.06429	0.42685	-0.448
Mof_C 	C 	0.08128	0.08128	0.47878	0.347
Mof_C 	C 	0.19126	0.19126	0.64741	0.053
Mof_C 	C 	0.89671	0.89671	0.74394	0.037
Mof_C 	C 	0.12974	0.12974	0.48052	-0.067
Mof_C 	C 	0.1495	0.1495	0.53687	-0.069
Mof_H 	H 	0.12944	0.12944	0.57954	0.055
Mof_C 	C 	0.19471	0.19471	0.54088	0.142
Mof_C 	C 	0.2177	0.2177	0.489	-0.093
Mof_H 	H 	0.25391	0.25391	0.49086	0.057
Mof_C 	C 	0.19771	0.19771	0.4324	-0.016
Mof_H 	H 	0.21769	0.21769	0.38965	0.021
Mof_C 	C 	0.1538	0.1538	0.4293	-0.018
Mof_H 	H 	0.13769	0.13769	0.38341	0.03
Mof_O 	O 	0.93802	0.93802	0.52779	-0.365
Mof_N 	N 	0.04645	0.04645	0.64871	-0.195
Mof_C 	C 	0.77881	0.77881	0.70255	-0.061
Mof_O 	O 	0.78367	0.78367	0.59385	-0.218
Mof_C 	C 	0.13112	0.13112	0.79718	0.117
Mof_O 	O 	0.93571	0.93571	0.42685	-0.381
Mof_C 	C 	0.91872	0.91872	0.47878	0.346
Mof_C 	C 	0.80874	0.80874	0.64741	0.05
Mof_C 	C 	0.10329	0.10329	0.74394	-0.025
Mof_C 	C 	0.87026	0.87026	0.48052	-0.046
Mof_C 	C 	0.8505	0.8505	0.53687	-0.061
Mof_H 	H 	0.87056	0.87056	0.57954	0.062
Mof_C 	C 	0.80529	0.80529	0.54088	0.149
Mof_C 	C 	0.7823	0.7823	0.489	-0.087
Mof_H 	H 	0.74609	0.74609	0.49086	0.065
Mof_C 	C 	0.80229	0.80229	0.4324	-0.003
Mof_H 	H 	0.78231	0.78231	0.38965	0.034
Mof_C 	C 	0.8462	0.8462	0.4293	-0.011
Mof_H 	H 	0.86231	0.86231	0.38341	0.05
Mof_O 	O 	0.06198	0.93802	0.47221	-0.4
Mof_N 	N 	0.95355	0.04645	0.35129	-0.2
Mof_C 	C 	0.22119	0.77881	0.29745	-0.06
Mof_O 	O 	0.21633	0.78367	0.40615	-0.219
Mof_C 	C 	0.86888	0.13112	0.20282	0.111
Mof_O 	O 	0.06429	0.93571	0.57315	-0.413
Mof_C 	C 	0.08128	0.91872	0.52122	0.346
Mof_C 	C 	0.19126	0.80874	0.35259	0.053
Mof_C 	C 	0.89671	0.10329	0.25606	0.006
Mof_C 	C 	0.12974	0.87026	0.51948	-0.056
Mof_C 	C 	0.1495	0.8505	0.46313	-0.065
Mof_H 	H 	0.12944	0.87056	0.42046	0.059
Mof_C 	C 	0.19471	0.80529	0.45912	0.146
Mof_C 	C 	0.2177	0.7823	0.511	-0.089
Mof_H 	H 	0.25391	0.74609	0.50914	0.062
Mof_C 	C 	0.19771	0.80229	0.5676	-0.009
Mof_H 	H 	0.21769	0.78231	0.61035	0.03
Mof_C 	C 	0.1538	0.8462	0.5707	-0.014
Mof_H 	H 	0.13769	0.86231	0.61659	0.042
Mof_C 	C 	0.27366	0.72634	0.19658	0.075
Mof_C 	C 	0.30153	0.69847	0.13996	-0.169
Mof_C 	C 	0.72634	0.27366	0.19658	0.074
Mof_C 	C 	0.69847	0.30153	0.13996	-0.161
Mof_C 	C 	0.72634	0.72634	0.80342	0.078
Mof_C 	C 	0.69847	0.69847	0.86004	-0.174
Mof_C 	C 	0.27366	0.27366	0.80342	0.077
Mof_C 	C 	0.30153	0.30153	0.86004	-0.166
Mof_C 	C 	0.19658	0.27366	0.72634	0.075
Mof_C 	C 	0.13996	0.30153	0.69847	-0.165
Mof_C 	C 	0.19658	0.72634	0.27366	0.075
Mof_C 	C 	0.13996	0.69847	0.30153	-0.165
Mof_C 	C 	0.80342	0.72634	0.72634	0.078
Mof_C 	C 	0.86004	0.69847	0.69847	-0.174
Mof_C 	C 	0.80342	0.27366	0.27366	0.076
Mof_C 	C 	0.86004	0.30153	0.30153	-0.166
Mof_C 	C 	0.72634	0.19658	0.27366	0.074
Mof_C 	C 	0.69847	0.13996	0.30153	-0.161
Mof_C 	C 	0.27366	0.19658	0.72634	0.075
Mof_C 	C 	0.30153	0.13996	0.69847	-0.169
Mof_C 	C 	0.72634	0.80342	0.72634	0.078
Mof_C 	C 	0.69847	0.86004	0.69847	-0.174
Mof_C 	C 	0.27366	0.80342	0.27366	0.077
Mof_C 	C 	0.30153	0.86004	0.30153	-0.166
Mof_N 	N 	0.1805	0.1805	0.89516	-0.143
Mof_N 	N 	0.8195	0.8195	0.89516	-0.138
Mof_N 	N 	0.8195	0.1805	0.10484	-0.149
Mof_N 	N 	0.1805	0.8195	0.10484	-0.149
Mof_N 	N 	0.89516	0.1805	0.1805	-0.143
Mof_N 	N 	0.89516	0.8195	0.8195	-0.138
Mof_N 	N 	0.10484	0.8195	0.1805	-0.149
Mof_N 	N 	0.10484	0.1805	0.8195	-0.149
Mof_N 	N 	0.1805	0.89516	0.1805	-0.143
Mof_N 	N 	0.8195	0.89516	0.8195	-0.138
Mof_N 	N 	0.1805	0.10484	0.8195	-0.149
Mof_N 	N 	0.8195	0.10484	0.1805	-0.149
Mof_H 	H 	0.28133	0.72052	0.09835	0.057
Mof_H 	H 	0.29175	0.64818	0.13909	0.067
Mof_H 	H 	0.35221	0.70601	0.14038	0.068
Mof_H 	H 	0.67653	0.26474	0.11184	0.057
Mof_H 	H 	0.73507	0.32452	0.11245	0.057
Mof_H 	H 	0.6631	0.33603	0.15354	0.067
Mof_H 	H 	0.70661	0.64788	0.85995	0.08
Mof_H 	H 	0.64807	0.70766	0.86056	0.08
Mof_H 	H 	0.72004	0.71917	0.90165	0.07
Mof_H 	H 	0.33553	0.33738	0.84647	0.08
Mof_H 	H 	0.32511	0.26504	0.88721	0.071
Mof_H 	H 	0.26465	0.32287	0.8885	0.07
Mof_H 	H 	0.10204	0.26707	0.69877	0.056
Mof_H 	H 	0.14984	0.31563	0.65021	0.068
Mof_H 	H 	0.12594	0.34259	0.72573	0.062
Mof_H 	H 	0.14984	0.65021	0.31563	0.068
Mof_H 	H 	0.10204	0.69877	0.26707	0.056
Mof_H 	H 	0.12594	0.72573	0.34259	0.062
Mof_H 	H 	0.86026	0.70714	0.64797	0.08
Mof_H 	H 	0.86026	0.64797	0.70714	0.08
Mof_H 	H 	0.90166	0.71961	0.71961	0.07
Mof_H 	H 	0.88786	0.32399	0.26483	0.07
Mof_H 	H 	0.88786	0.26483	0.32399	0.07
Mof_H 	H 	0.84646	0.33646	0.33646	0.08
Mof_H 	H 	0.73507	0.11245	0.32452	0.057
Mof_H 	H 	0.67653	0.11184	0.26474	0.057
Mof_H 	H 	0.6631	0.15354	0.33603	0.067
Mof_H 	H 	0.29175	0.13909	0.64818	0.067
Mof_H 	H 	0.28133	0.09835	0.72052	0.057
Mof_H 	H 	0.35221	0.14038	0.70601	0.068
Mof_H 	H 	0.64807	0.86056	0.70766	0.08
Mof_H 	H 	0.70661	0.85995	0.64788	0.08
Mof_H 	H 	0.72004	0.90165	0.71917	0.07
Mof_H 	H 	0.32511	0.88721	0.26504	0.071
Mof_H 	H 	0.33553	0.84647	0.33738	0.08
Mof_H 	H 	0.26465	0.8885	0.32287	0.07
_end
