data_functionalizedCrystal
_audit_creation_method	'EQeq! by Chris Wilmer'
_symmetry_space_group_name_H-M	'P1'
_symmetry_Int_Tables_number	1
_symmetry_cell_setting	triclinic
loop_
_symmetry_equiv_pos_as_xyz
  x,y,z
_cell_length_a	20.404
_cell_length_b	20.404
_cell_length_c	20.404
_cell_angle_alpha	90
_cell_angle_beta	90
_cell_angle_gamma	90
loop_
_atom_site_label
_atom_site_type_symbol
_atom_site_fract_x
_atom_site_fract_y
_atom_site_fract_z
_atom_site_charge
Mof_Mo	Mo	0.10894	0.14913	0.94617	1.355
Mof_Mo	Mo	0.00699	0.19221	0.00853	0.777
Mof_P 	P 	0.2654	0.1523	0.9879	0.669
Mof_Na	Na	0.1496	0.2576	0.11	2.017
Mof_O 	O 	0.0254	0.1074	0.9688	-0.849
Mof_O 	O 	0.0973	0.2238	0.0033	-0.811
Mof_O 	O 	0.1427	0.1008	0.042	-0.59
Mof_O 	O 	0.2089	0.1751	0.9463	-0.459
Mof_O 	O 	0.1428	0.0546	0.926	-0.52
Mof_O 	O 	0.2667	0.1867	0.0553	-0.927
Mof_O 	O 	0.3309	0.1708	0.9515	-0.333
Mof_O 	O 	0.2676	0.078	0.9944	-0.467
Mof_Mo	Mo	0.39106	0.35087	0.94617	1.371
Mof_Mo	Mo	0.49301	0.30779	0.00853	0.971
Mof_P 	P 	0.2346	0.3477	0.9879	0.671
Mof_Na	Na	0.3504	0.2424	0.11	2.062
Mof_O 	O 	0.4746	0.3926	0.9688	-0.948
Mof_O 	O 	0.4027	0.2762	0.0033	-0.83
Mof_O 	O 	0.3573	0.3992	0.042	-0.611
Mof_O 	O 	0.2911	0.3249	0.9463	-0.461
Mof_O 	O 	0.3572	0.4454	0.926	-0.522
Mof_O 	O 	0.2333	0.3133	0.0553	-0.928
Mof_O 	O 	0.1691	0.3292	0.9515	-0.335
Mof_O 	O 	0.2324	0.422	0.9944	-0.487
Mof_Mo	Mo	0.39106	0.14913	0.55383	1.201
Mof_Mo	Mo	0.49301	0.19221	0.49147	1.135
Mof_P 	P 	0.2346	0.1523	0.5121	0.598
Mof_Na	Na	0.3504	0.2576	0.39	2.095
Mof_O 	O 	0.4746	0.1074	0.5312	-1.022
Mof_O 	O 	0.4027	0.2238	0.4967	-0.776
Mof_O 	O 	0.3573	0.1008	0.458	-0.569
Mof_O 	O 	0.2911	0.1751	0.5537	-0.461
Mof_O 	O 	0.3572	0.0546	0.574	-0.573
Mof_O 	O 	0.2333	0.1867	0.4447	-0.876
Mof_O 	O 	0.1691	0.1708	0.5485	-0.374
Mof_O 	O 	0.2324	0.078	0.5056	-0.551
Mof_Mo	Mo	0.10894	0.35087	0.55383	1.21
Mof_Mo	Mo	0.00699	0.30779	0.49147	0.956
Mof_P 	P 	0.2654	0.3477	0.5121	0.603
Mof_Na	Na	0.1496	0.2424	0.39	2.053
Mof_O 	O 	0.0254	0.3926	0.5312	-1.024
Mof_O 	O 	0.0973	0.2762	0.4967	-0.767
Mof_O 	O 	0.1427	0.3992	0.458	-0.575
Mof_O 	O 	0.2089	0.3249	0.5537	-0.463
Mof_O 	O 	0.1428	0.4454	0.574	-0.563
Mof_O 	O 	0.2667	0.3133	0.4447	-0.88
Mof_O 	O 	0.3309	0.3292	0.5485	-0.353
Mof_O 	O 	0.2676	0.422	0.5056	-0.551
Mof_Mo	Mo	0.94617	0.10894	0.14913	1.354
Mof_Mo	Mo	0.00853	0.00699	0.19221	0.776
Mof_P 	P 	0.9879	0.2654	0.1523	0.668
Mof_Na	Na	0.11	0.1496	0.2576	2.016
Mof_O 	O 	0.9688	0.0254	0.1074	-0.85
Mof_O 	O 	0.0033	0.0973	0.2238	-0.812
Mof_O 	O 	0.042	0.1427	0.1008	-0.591
Mof_O 	O 	0.9463	0.2089	0.1751	-0.46
Mof_O 	O 	0.926	0.1428	0.0546	-0.521
Mof_O 	O 	0.0553	0.2667	0.1867	-0.928
Mof_O 	O 	0.9515	0.3309	0.1708	-0.334
Mof_O 	O 	0.9944	0.2676	0.078	-0.468
Mof_Mo	Mo	0.94617	0.39106	0.35087	1.37
Mof_Mo	Mo	0.00853	0.49301	0.30779	0.97
Mof_P 	P 	0.9879	0.2346	0.3477	0.67
Mof_Na	Na	0.11	0.3504	0.2424	2.061
Mof_O 	O 	0.9688	0.4746	0.3926	-0.949
Mof_O 	O 	0.0033	0.4027	0.2762	-0.831
Mof_O 	O 	0.042	0.3573	0.3992	-0.612
Mof_O 	O 	0.9463	0.2911	0.3249	-0.462
Mof_O 	O 	0.926	0.3572	0.4454	-0.523
Mof_O 	O 	0.0553	0.2333	0.3133	-0.929
Mof_O 	O 	0.9515	0.1691	0.3292	-0.336
Mof_O 	O 	0.9944	0.2324	0.422	-0.487
Mof_Mo	Mo	0.55383	0.39106	0.14913	1.201
Mof_Mo	Mo	0.49147	0.49301	0.19221	1.135
Mof_P 	P 	0.5121	0.2346	0.1523	0.598
Mof_Na	Na	0.39	0.3504	0.2576	2.095
Mof_O 	O 	0.5312	0.4746	0.1074	-1.022
Mof_O 	O 	0.4967	0.4027	0.2238	-0.776
Mof_O 	O 	0.458	0.3573	0.1008	-0.569
Mof_O 	O 	0.5537	0.2911	0.1751	-0.461
Mof_O 	O 	0.574	0.3572	0.0546	-0.573
Mof_O 	O 	0.4447	0.2333	0.1867	-0.876
Mof_O 	O 	0.5485	0.1691	0.1708	-0.374
Mof_O 	O 	0.5056	0.2324	0.078	-0.551
Mof_Mo	Mo	0.55383	0.10894	0.35087	1.21
Mof_Mo	Mo	0.49147	0.00699	0.30779	0.956
Mof_P 	P 	0.5121	0.2654	0.3477	0.603
Mof_Na	Na	0.39	0.1496	0.2424	2.053
Mof_O 	O 	0.5312	0.0254	0.3926	-1.024
Mof_O 	O 	0.4967	0.0973	0.2762	-0.767
Mof_O 	O 	0.458	0.1427	0.3992	-0.575
Mof_O 	O 	0.5537	0.2089	0.3249	-0.463
Mof_O 	O 	0.574	0.1428	0.4454	-0.563
Mof_O 	O 	0.4447	0.2667	0.3133	-0.88
Mof_O 	O 	0.5485	0.3309	0.3292	-0.353
Mof_O 	O 	0.5056	0.2676	0.422	-0.551
Mof_Mo	Mo	0.14913	0.94617	0.10894	1.354
Mof_Mo	Mo	0.19221	0.00853	0.00699	0.776
Mof_P 	P 	0.1523	0.9879	0.2654	0.668
Mof_Na	Na	0.2576	0.11	0.1496	2.016
Mof_O 	O 	0.1074	0.9688	0.0254	-0.85
Mof_O 	O 	0.2238	0.0033	0.0973	-0.812
Mof_O 	O 	0.1008	0.042	0.1427	-0.591
Mof_O 	O 	0.1751	0.9463	0.2089	-0.46
Mof_O 	O 	0.0546	0.926	0.1428	-0.521
Mof_O 	O 	0.1867	0.0553	0.2667	-0.928
Mof_O 	O 	0.1708	0.9515	0.3309	-0.334
Mof_O 	O 	0.078	0.9944	0.2676	-0.468
Mof_Mo	Mo	0.35087	0.94617	0.39106	1.37
Mof_Mo	Mo	0.30779	0.00853	0.49301	0.97
Mof_P 	P 	0.3477	0.9879	0.2346	0.67
Mof_Na	Na	0.2424	0.11	0.3504	2.061
Mof_O 	O 	0.3926	0.9688	0.4746	-0.949
Mof_O 	O 	0.2762	0.0033	0.4027	-0.831
Mof_O 	O 	0.3992	0.042	0.3573	-0.612
Mof_O 	O 	0.3249	0.9463	0.2911	-0.462
Mof_O 	O 	0.4454	0.926	0.3572	-0.523
Mof_O 	O 	0.3133	0.0553	0.2333	-0.929
Mof_O 	O 	0.3292	0.9515	0.1691	-0.336
Mof_O 	O 	0.422	0.9944	0.2324	-0.487
Mof_Mo	Mo	0.14913	0.55383	0.39106	1.201
Mof_Mo	Mo	0.19221	0.49147	0.49301	1.135
Mof_P 	P 	0.1523	0.5121	0.2346	0.598
Mof_Na	Na	0.2576	0.39	0.3504	2.095
Mof_O 	O 	0.1074	0.5312	0.4746	-1.022
Mof_O 	O 	0.2238	0.4967	0.4027	-0.776
Mof_O 	O 	0.1008	0.458	0.3573	-0.569
Mof_O 	O 	0.1751	0.5537	0.2911	-0.461
Mof_O 	O 	0.0546	0.574	0.3572	-0.573
Mof_O 	O 	0.1867	0.4447	0.2333	-0.876
Mof_O 	O 	0.1708	0.5485	0.1691	-0.374
Mof_O 	O 	0.078	0.5056	0.2324	-0.551
Mof_Mo	Mo	0.35087	0.55383	0.10894	1.21
Mof_Mo	Mo	0.30779	0.49147	0.00699	0.956
Mof_P 	P 	0.3477	0.5121	0.2654	0.603
Mof_Na	Na	0.2424	0.39	0.1496	2.053
Mof_O 	O 	0.3926	0.5312	0.0254	-1.024
Mof_O 	O 	0.2762	0.4967	0.0973	-0.767
Mof_O 	O 	0.3992	0.458	0.1427	-0.575
Mof_O 	O 	0.3249	0.5537	0.2089	-0.463
Mof_O 	O 	0.4454	0.574	0.1428	-0.563
Mof_O 	O 	0.3133	0.4447	0.2667	-0.88
Mof_O 	O 	0.3292	0.5485	0.3309	-0.353
Mof_O 	O 	0.422	0.5056	0.2676	-0.551
Mof_Mo	Mo	0.89106	0.85087	0.05383	1.103
Mof_Mo	Mo	0.99301	0.80779	0.99147	1.396
Mof_P 	P 	0.7346	0.8477	0.0121	0.547
Mof_Na	Na	0.8504	0.7424	0.89	2.144
Mof_O 	O 	0.9746	0.8926	0.0312	-0.905
Mof_O 	O 	0.9027	0.7762	0.9967	-0.743
Mof_O 	O 	0.8573	0.8992	0.958	-0.538
Mof_O 	O 	0.7911	0.8249	0.0537	-0.454
Mof_O 	O 	0.8572	0.9454	0.074	-0.536
Mof_O 	O 	0.7333	0.8133	0.9447	-0.843
Mof_O 	O 	0.6691	0.8292	0.0485	-0.364
Mof_O 	O 	0.7324	0.922	0.0056	-0.607
Mof_Mo	Mo	0.60894	0.64913	0.05383	1.078
Mof_Mo	Mo	0.50699	0.69221	0.99147	1.289
Mof_P 	P 	0.7654	0.6523	0.0121	0.544
Mof_Na	Na	0.6496	0.7576	0.89	2.129
Mof_O 	O 	0.5254	0.6074	0.0312	-1.067
Mof_O 	O 	0.5973	0.7238	0.9967	-0.732
Mof_O 	O 	0.6427	0.6008	0.958	-0.544
Mof_O 	O 	0.7089	0.6751	0.0537	-0.457
Mof_O 	O 	0.6428	0.5546	0.074	-0.587
Mof_O 	O 	0.7667	0.6867	0.9447	-0.841
Mof_O 	O 	0.8309	0.6708	0.0485	-0.36
Mof_O 	O 	0.7676	0.578	0.0056	-0.608
Mof_Mo	Mo	0.60894	0.85087	0.44617	1.234
Mof_Mo	Mo	0.50699	0.80779	0.50853	1.13
Mof_P 	P 	0.7654	0.8477	0.4879	0.606
Mof_Na	Na	0.6496	0.7424	0.61	2.095
Mof_O 	O 	0.5254	0.8926	0.4688	-0.996
Mof_O 	O 	0.5973	0.7762	0.5033	-0.781
Mof_O 	O 	0.6427	0.8992	0.542	-0.584
Mof_O 	O 	0.7089	0.8249	0.4463	-0.458
Mof_O 	O 	0.6428	0.9454	0.426	-0.538
Mof_O 	O 	0.7667	0.8133	0.5553	-0.89
Mof_O 	O 	0.8309	0.8292	0.4515	-0.329
Mof_O 	O 	0.7676	0.922	0.4944	-0.551
Mof_Mo	Mo	0.89106	0.64913	0.44617	1.227
Mof_Mo	Mo	0.99301	0.69221	0.50853	1.298
Mof_P 	P 	0.7346	0.6523	0.4879	0.602
Mof_Na	Na	0.8504	0.7576	0.61	2.137
Mof_O 	O 	0.9746	0.6074	0.4688	-0.993
Mof_O 	O 	0.9027	0.7238	0.5033	-0.79
Mof_O 	O 	0.8573	0.6008	0.542	-0.578
Mof_O 	O 	0.7911	0.6751	0.4463	-0.456
Mof_O 	O 	0.8572	0.5546	0.426	-0.549
Mof_O 	O 	0.7333	0.6867	0.5553	-0.886
Mof_O 	O 	0.6691	0.6708	0.4515	-0.35
Mof_O 	O 	0.7324	0.578	0.4944	-0.551
Mof_Mo	Mo	0.05383	0.89106	0.85087	1.103
Mof_Mo	Mo	0.99147	0.99301	0.80779	1.396
Mof_P 	P 	0.0121	0.7346	0.8477	0.547
Mof_Na	Na	0.89	0.8504	0.7424	2.144
Mof_O 	O 	0.0312	0.9746	0.8926	-0.905
Mof_O 	O 	0.9967	0.9027	0.7762	-0.743
Mof_O 	O 	0.958	0.8573	0.8992	-0.538
Mof_O 	O 	0.0537	0.7911	0.8249	-0.454
Mof_O 	O 	0.074	0.8572	0.9454	-0.536
Mof_O 	O 	0.9447	0.7333	0.8133	-0.843
Mof_O 	O 	0.0485	0.6691	0.8292	-0.364
Mof_O 	O 	0.0056	0.7324	0.922	-0.607
Mof_Mo	Mo	0.05383	0.60894	0.64913	1.078
Mof_Mo	Mo	0.99147	0.50699	0.69221	1.289
Mof_P 	P 	0.0121	0.7654	0.6523	0.544
Mof_Na	Na	0.89	0.6496	0.7576	2.129
Mof_O 	O 	0.0312	0.5254	0.6074	-1.067
Mof_O 	O 	0.9967	0.5973	0.7238	-0.732
Mof_O 	O 	0.958	0.6427	0.6008	-0.544
Mof_O 	O 	0.0537	0.7089	0.6751	-0.457
Mof_O 	O 	0.074	0.6428	0.5546	-0.587
Mof_O 	O 	0.9447	0.7667	0.6867	-0.841
Mof_O 	O 	0.0485	0.8309	0.6708	-0.36
Mof_O 	O 	0.0056	0.7676	0.578	-0.608
Mof_Mo	Mo	0.44617	0.60894	0.85087	1.234
Mof_Mo	Mo	0.50853	0.50699	0.80779	1.13
Mof_P 	P 	0.4879	0.7654	0.8477	0.606
Mof_Na	Na	0.61	0.6496	0.7424	2.095
Mof_O 	O 	0.4688	0.5254	0.8926	-0.996
Mof_O 	O 	0.5033	0.5973	0.7762	-0.781
Mof_O 	O 	0.542	0.6427	0.8992	-0.584
Mof_O 	O 	0.4463	0.7089	0.8249	-0.458
Mof_O 	O 	0.426	0.6428	0.9454	-0.538
Mof_O 	O 	0.5553	0.7667	0.8133	-0.89
Mof_O 	O 	0.4515	0.8309	0.8292	-0.329
Mof_O 	O 	0.4944	0.7676	0.922	-0.551
Mof_Mo	Mo	0.44617	0.89106	0.64913	1.227
Mof_Mo	Mo	0.50853	0.99301	0.69221	1.298
Mof_P 	P 	0.4879	0.7346	0.6523	0.602
Mof_Na	Na	0.61	0.8504	0.7576	2.137
Mof_O 	O 	0.4688	0.9746	0.6074	-0.993
Mof_O 	O 	0.5033	0.9027	0.7238	-0.79
Mof_O 	O 	0.542	0.8573	0.6008	-0.578
Mof_O 	O 	0.4463	0.7911	0.6751	-0.456
Mof_O 	O 	0.426	0.8572	0.5546	-0.549
Mof_O 	O 	0.5553	0.7333	0.6867	-0.886
Mof_O 	O 	0.4515	0.6691	0.6708	-0.35
Mof_O 	O 	0.4944	0.7324	0.578	-0.551
Mof_Mo	Mo	0.85087	0.05383	0.89106	1.103
Mof_Mo	Mo	0.80779	0.99147	0.99301	1.396
Mof_P 	P 	0.8477	0.0121	0.7346	0.547
Mof_Na	Na	0.7424	0.89	0.8504	2.144
Mof_O 	O 	0.8926	0.0312	0.9746	-0.905
Mof_O 	O 	0.7762	0.9967	0.9027	-0.743
Mof_O 	O 	0.8992	0.958	0.8573	-0.538
Mof_O 	O 	0.8249	0.0537	0.7911	-0.454
Mof_O 	O 	0.9454	0.074	0.8572	-0.536
Mof_O 	O 	0.8133	0.9447	0.7333	-0.843
Mof_O 	O 	0.8292	0.0485	0.6691	-0.364
Mof_O 	O 	0.922	0.0056	0.7324	-0.607
Mof_Mo	Mo	0.64913	0.05383	0.60894	1.078
Mof_Mo	Mo	0.69221	0.99147	0.50699	1.289
Mof_P 	P 	0.6523	0.0121	0.7654	0.544
Mof_Na	Na	0.7576	0.89	0.6496	2.129
Mof_O 	O 	0.6074	0.0312	0.5254	-1.067
Mof_O 	O 	0.7238	0.9967	0.5973	-0.732
Mof_O 	O 	0.6008	0.958	0.6427	-0.544
Mof_O 	O 	0.6751	0.0537	0.7089	-0.457
Mof_O 	O 	0.5546	0.074	0.6428	-0.587
Mof_O 	O 	0.6867	0.9447	0.7667	-0.841
Mof_O 	O 	0.6708	0.0485	0.8309	-0.36
Mof_O 	O 	0.578	0.0056	0.7676	-0.608
Mof_Mo	Mo	0.85087	0.44617	0.60894	1.234
Mof_Mo	Mo	0.80779	0.50853	0.50699	1.13
Mof_P 	P 	0.8477	0.4879	0.7654	0.606
Mof_Na	Na	0.7424	0.61	0.6496	2.095
Mof_O 	O 	0.8926	0.4688	0.5254	-0.996
Mof_O 	O 	0.7762	0.5033	0.5973	-0.781
Mof_O 	O 	0.8992	0.542	0.6427	-0.584
Mof_O 	O 	0.8249	0.4463	0.7089	-0.458
Mof_O 	O 	0.9454	0.426	0.6428	-0.538
Mof_O 	O 	0.8133	0.5553	0.7667	-0.89
Mof_O 	O 	0.8292	0.4515	0.8309	-0.329
Mof_O 	O 	0.922	0.4944	0.7676	-0.551
Mof_Mo	Mo	0.64913	0.44617	0.89106	1.227
Mof_Mo	Mo	0.69221	0.50853	0.99301	1.298
Mof_P 	P 	0.6523	0.4879	0.7346	0.602
Mof_Na	Na	0.7576	0.61	0.8504	2.137
Mof_O 	O 	0.6074	0.4688	0.9746	-0.993
Mof_O 	O 	0.7238	0.5033	0.9027	-0.79
Mof_O 	O 	0.6008	0.542	0.8573	-0.578
Mof_O 	O 	0.6751	0.4463	0.7911	-0.456
Mof_O 	O 	0.5546	0.426	0.8572	-0.549
Mof_O 	O 	0.6867	0.5553	0.7333	-0.886
Mof_O 	O 	0.6708	0.4515	0.6691	-0.35
Mof_O 	O 	0.578	0.4944	0.7324	-0.551
Mof_P 	P 	0.1111	0.1111	0.1111	0.517
Mof_O 	O 	0.1533	0.1533	0.1533	-1.09
Mof_P 	P 	0.3889	0.3889	0.1111	0.515
Mof_O 	O 	0.3467	0.3467	0.1533	-1.11
Mof_P 	P 	0.3889	0.1111	0.3889	0.515
Mof_O 	O 	0.3467	0.1533	0.3467	-1.11
Mof_P 	P 	0.1111	0.3889	0.3889	0.515
Mof_O 	O 	0.1533	0.3467	0.3467	-1.11
Mof_P 	P 	0.8889	0.8889	0.8889	0.521
Mof_O 	O 	0.8467	0.8467	0.8467	-1.137
Mof_P 	P 	0.6111	0.6111	0.8889	0.517
Mof_O 	O 	0.6533	0.6533	0.8467	-1.13
Mof_P 	P 	0.6111	0.8889	0.6111	0.517
Mof_O 	O 	0.6533	0.8467	0.6533	-1.13
Mof_P 	P 	0.8889	0.6111	0.6111	0.517
Mof_O 	O 	0.8467	0.6533	0.6533	-1.13
Mof_P 	P 	0.25	0.25	0.25	0.815
Mof_P 	P 	0.75	0.75	0.75	0.823
Mof_Na	Na	-0	0	-0	2.955
Mof_Na	Na	0.5	0.5	-0	3.881
Mof_Na	Na	0.5	0	0.5	3.881
Mof_Na	Na	1.8747e-33	0.5	0.5	3.881
Mof_O 	O 	0.2062	0.2938	0.2062	-1.171
Mof_O 	O 	0.2938	0.2062	0.2062	-1.171
Mof_O 	O 	0.2938	0.2938	0.2938	-1.188
Mof_O 	O 	0.2062	0.2062	0.2938	-1.171
Mof_O 	O 	0.7938	0.7062	0.7938	-1.208
Mof_O 	O 	0.7062	0.7938	0.7938	-1.208
Mof_O 	O 	0.7062	0.7062	0.7062	-1.195
Mof_O 	O 	0.7938	0.7938	0.7062	-1.208
_end
