data_functionalizedCrystal
_audit_creation_method	'EQeq! by Chris Wilmer'
_symmetry_space_group_name_H-M	'P1'
_symmetry_Int_Tables_number	1
_symmetry_cell_setting	triclinic
loop_
_symmetry_equiv_pos_as_xyz
  x,y,z
_cell_length_a	14.1428
_cell_length_b	20.3826
_cell_length_c	21.129
_cell_angle_alpha	115.256
_cell_angle_beta	109.553
_cell_angle_gamma	90
loop_
_atom_site_label
_atom_site_type_symbol
_atom_site_fract_x
_atom_site_fract_y
_atom_site_fract_z
_atom_site_charge
Mof_Mn	Mn	0.97212	0.67819	0.59646	0.922
Mof_Mn	Mn	0.19365	0.85004	0.31846	0.95
Mof_Mn	Mn	0.37566	0.32181	0.40354	0.943
Mof_Mn	Mn	0.87519	0.14996	0.68154	0.931
Mof_Mn	Mn	0.72208	0	-0	0.874
Mof_Cr	Cr	0.66506	0.45491	0.3582	2.066
Mof_Cr	Cr	0.00835	0.90242	0.5205	2.149
Mof_Cr	Cr	0.94606	0.78991	0.02822	1.978
Mof_Cr	Cr	0.30686	0.54509	0.6418	2.067
Mof_Cr	Cr	0.48785	0.09758	0.4795	2.066
Mof_Cr	Cr	0.91784	0.21009	0.97178	2.099
Mof_H 	H 	0.8937	0.7442	0.7802	0.095
Mof_H 	H 	0.9314	0.6679	0.7426	0.1
Mof_H 	H 	0.8252	0.6831	0.6972	0.092
Mof_H 	H 	0.3484	0.6838	0.3222	0.085
Mof_H 	H 	0.3363	0.7499	0.3938	0.083
Mof_H 	H 	0.3999	0.7663	0.3506	0.078
Mof_H 	H 	0.4411	0.9059	0.8404	0.093
Mof_H 	H 	0.5151	0.9658	0.8412	0.086
Mof_H 	H 	0.4696	0.9886	0.9062	0.094
Mof_H 	H 	0.1135	0.2558	0.2198	0.105
Mof_H 	H 	0.1888	0.3321	0.2574	0.109
Mof_H 	H 	0.128	0.3169	0.3028	0.101
Mof_H 	H 	0.0262	0.3162	0.6778	0.136
Mof_H 	H 	0.9425	0.2501	0.6062	0.117
Mof_H 	H 	0.0493	0.2337	0.6494	0.127
Mof_H 	H 	0.6007	0.0941	0.1596	0.078
Mof_H 	H 	0.6739	0.0342	0.1588	0.067
Mof_H 	H 	0.5634	0.0114	0.0938	0.066
Mof_C 	C 	0.638	0.4611	0.2296	0.253
Mof_C 	C 	0.6484	0.3816	0.2066	0.224
Mof_C 	C 	0.7777	0.5733	0.4902	0.25
Mof_C 	C 	0.8548	0.5358	0.4598	0.234
Mof_C 	C 	0.9534	0.7709	0.5162	0.278
Mof_C 	C 	0.0193	0.8251	0.5992	0.241
Mof_C 	C 	0.0472	0.8819	0.3952	0.305
Mof_C 	C 	0.1441	0.8707	0.4492	0.274
Mof_C 	C 	0.0426	0.7756	0.1576	0.385
Mof_C 	C 	0.0921	0.8547	0.1696	0.239
Mof_C 	C 	0.8141	0.8902	0.0424	0.232
Mof_C 	C 	0.8542	0.8872	0.9816	0.295
Mof_C 	C 	0.1678	0.6265	0.5992	0.272
Mof_C 	C 	0.1288	0.5972	0.6446	0.28
Mof_C 	C 	0.3869	0.9569	0.3936	0.3
Mof_C 	C 	0.309	0.0015	0.4222	0.213
Mof_C 	C 	0.0052	0.6804	0.9272	0.294
Mof_C 	C 	0.8882	0.659	0.893	0.236
Mof_C 	C 	0.8951	0.7056	0.7328	-0.138
Mof_C 	C 	0.3408	0.7357	0.3444	-0.123
Mof_C 	C 	0.495	0.9491	0.8728	-0.145
Mof_C 	C 	0.4084	0.5389	0.7704	0.254
Mof_C 	C 	0.4418	0.6184	0.7934	0.224
Mof_C 	C 	0.2875	0.4267	0.5098	0.252
Mof_C 	C 	0.395	0.4642	0.5402	0.233
Mof_C 	C 	0.4372	0.2291	0.4838	0.291
Mof_C 	C 	0.4201	0.1749	0.4008	0.227
Mof_C 	C 	0.652	0.1181	0.6048	0.279
Mof_C 	C 	0.6949	0.1293	0.5508	0.275
Mof_C 	C 	0.885	0.2244	0.8424	0.36
Mof_C 	C 	0.9225	0.1453	0.8304	0.245
Mof_C 	C 	0.7717	0.1098	0.9576	0.269
Mof_C 	C 	0.8726	0.1128	0.0184	0.26
Mof_C 	C 	0.5686	0.3735	0.4008	0.271
Mof_C 	C 	0.4842	0.4028	0.3554	0.28
Mof_C 	C 	0.9933	0.0431	0.6064	0.201
Mof_C 	C 	0.8868	0.9985	0.5778	0.312
Mof_C 	C 	0.078	0.3196	0.0728	0.304
Mof_C 	C 	0.9952	0.341	0.107	0.209
Mof_C 	C 	0.1623	0.2944	0.2672	-0.153
Mof_C 	C 	0.9964	0.2643	0.6556	-0.26
Mof_C 	C 	0.6222	0.0509	0.1272	-0.114
Mof_O 	O 	0.6495	0.3365	0.1486	-0.211
Mof_O 	O 	0.6116	0.4779	0.1746	-0.231
Mof_O 	O 	0.6601	0.3689	0.2682	-0.503
Mof_O 	O 	0.6506	0.5053	0.2952	-0.521
Mof_O 	O 	0.8173	0.4752	0.3982	-0.496
Mof_O 	O 	0.6852	0.547	0.4532	-0.5
Mof_O 	O 	0.9464	0.5631	0.493	-0.276
Mof_O 	O 	0.8118	0.6302	0.5538	-0.31
Mof_O 	O 	0.9183	0.7094	0.5024	-0.325
Mof_O 	O 	0.0364	0.8013	0.6482	-0.267
Mof_O 	O 	0.9463	0.7955	0.4706	-0.531
Mof_O 	O 	0.0444	0.8905	0.6136	-0.51
Mof_O 	O 	0.9782	0.9019	0.4222	-0.557
Mof_O 	O 	0.14	0.8793	0.5108	-0.533
Mof_O 	O 	0.0441	0.8714	0.3346	-0.318
Mof_O 	O 	0.2152	0.852	0.4302	-0.316
Mof_O 	O 	0.0774	0.7621	0.208	-0.345
Mof_O 	O 	0.1647	0.8931	0.2336	-0.291
Mof_O 	O 	0.9717	0.7438	0.097	-0.565
Mof_O 	O 	0.0587	0.8686	0.1164	-0.477
Mof_O 	O 	0.8466	0.8451	0.069	-0.503
Mof_O 	O 	0.9174	0.8448	0.9688	-0.51
Mof_O 	O 	0.75863	0.9344	0.06226	-0.311
Mof_O 	O 	0.8157	0.9222	0.9476	-0.308
Mof_O 	O 	0.0492	0.6109	0.653	-0.296
Mof_O 	O 	0.1197	0.6702	0.5822	-0.301
Mof_O 	O 	0.184	0.558	0.6684	-0.509
Mof_O 	O 	0.2498	0.6074	0.5912	-0.508
Mof_O 	O 	0.2234	0.9744	0.401	-0.281
Mof_O 	O 	0.3548	0.8902	0.3514	-0.335
Mof_O 	O 	0.3476	0.07	0.4714	-0.502
Mof_O 	O 	0.4757	0.9923	0.4202	-0.549
Mof_O 	O 	0.8497	0.7025	0.939	-0.483
Mof_O 	O 	0.0435	0.7377	0.9846	-0.491
Mof_O 	O 	0.0484	0.6386	0.8848	-0.19
Mof_O 	O 	0.8541	0.6037	0.8308	-0.211
Mof_O 	O 	0.9447	0.7361	0.7024	-0.21
Mof_O 	O 	0.2513	0.7461	0.2966	-0.211
Mof_O 	O 	0.5833	0.9296	0.918	-0.216
Mof_O 	O 	0.5009	0.6635	0.8514	-0.205
Mof_O 	O 	0.437	0.5221	0.8254	-0.227
Mof_O 	O 	0.3919	0.6311	0.7318	-0.502
Mof_O 	O 	0.3554	0.4947	0.7048	-0.521
Mof_O 	O 	0.4191	0.5248	0.6018	-0.495
Mof_O 	O 	0.232	0.453	0.5468	-0.499
Mof_O 	O 	0.4534	0.4369	0.507	-0.27
Mof_O 	O 	0.258	0.3698	0.4462	-0.31
Mof_O 	O 	0.4159	0.2906	0.4976	-0.326
Mof_O 	O 	0.3882	0.1987	0.3518	-0.277
Mof_O 	O 	0.4757	0.2045	0.5294	-0.516
Mof_O 	O 	0.4308	0.1095	0.3864	-0.509
Mof_O 	O 	0.556	0.0981	0.5778	-0.534
Mof_O 	O 	0.6292	0.1207	0.4892	-0.531
Mof_O 	O 	0.7095	0.1286	0.6654	-0.319
Mof_O 	O 	0.785	0.148	0.5698	-0.321
Mof_O 	O 	0.8694	0.2379	0.792	-0.343
Mof_O 	O 	0.9311	0.1069	0.7664	-0.303
Mof_O 	O 	0.8747	0.2562	0.903	-0.554
Mof_O 	O 	0.9423	0.1314	0.8836	-0.506
Mof_O 	O 	0.7776	0.1549	0.931	-0.52
Mof_O 	O 	0.9486	0.1552	0.0312	-0.539
Mof_O 	O 	0.69637	0.0656	0.93774	-0.325
Mof_O 	O 	0.8681	0.0778	0.0524	-0.324
Mof_O 	O 	0.3962	0.3891	0.347	-0.309
Mof_O 	O 	0.5375	0.3298	0.4178	-0.31
Mof_O 	O 	0.5156	0.442	0.3316	-0.511
Mof_O 	O 	0.6586	0.3926	0.4088	-0.509
Mof_O 	O 	0.8224	0.0256	0.599	-0.34
Mof_O 	O 	0.0034	0.1098	0.6486	-0.291
Mof_O 	O 	0.8762	0.93	0.5286	-0.535
Mof_O 	O 	0.0555	0.0077	0.5798	-0.54
Mof_O 	O 	0.9107	0.2975	0.061	-0.509
Mof_O 	O 	0.0589	0.2623	0.0154	-0.529
Mof_O 	O 	0.1636	0.3614	0.1152	-0.205
Mof_O 	O 	0.0233	0.3963	0.1692	-0.186
Mof_O 	O 	0.2423	0.2639	0.2976	-0.204
Mof_O 	O 	0.9547	0.2539	0.7034	-0.196
Mof_O 	O 	0.6653	0.0704	0.082	-0.243
Mof_Fe	Fe	0.53906	0.78679	0.6262	0.756
Mof_H 	H 	0.6315	0.9469	0.5516	0.077
Mof_H 	H 	0.5816	0.9802	0.6138	0.08
Mof_H 	H 	0.458	0.8911	0.5054	0.047
Mof_H 	H 	0.5331	0.8316	0.498	0.037
Mof_H 	H 	0.3556	0.9011	0.5704	0.066
Mof_H 	H 	0.2316	0.8832	0.6522	0.055
Mof_H 	H 	0.408	0.7535	0.7198	0.011
Mof_H 	H 	0.7174	0.0169	0.725	0.049
Mof_H 	H 	0.783	0.9573	0.7398	0.07
Mof_H 	H 	0.6625	0.9737	0.798	0.059
Mof_H 	H 	0.5714	0.956	0.7204	0.044
Mof_H 	H 	0.7127	0.888	0.827	0.061
Mof_H 	H 	0.7244	0.7522	0.8484	0.055
Mof_H 	H 	0.5412	0.6204	0.63	0.01
Mof_H 	H 	0.8231	0.8995	0.634	0.074
Mof_H 	H 	0.734	0.8589	0.553	0.069
Mof_H 	H 	0.7927	0.7708	0.592	0.046
Mof_H 	H 	0.7759	0.8149	0.6698	0.051
Mof_H 	H 	0.6617	0.6885	0.4918	0.054
Mof_H 	H 	0.4839	0.5768	0.3872	0.043
Mof_H 	H 	0.3164	0.6627	0.5194	0.017
Mof_H 	H 	0.2567	0.8118	0.7262	0.141
Mof_H 	H 	0.636	0.625	0.7492	0.145
Mof_H 	H 	0.3255	0.5654	0.401	0.14
Mof_C 	C 	0.6052	0.9356	0.5844	-0.082
Mof_C 	C 	0.5138	0.8738	0.5344	-0.023
Mof_C 	C 	0.3928	0.8711	0.5906	-0.028
Mof_C 	C 	0.3611	0.8451	0.6346	0.062
Mof_C 	C 	0.2836	0.855	0.6608	0.005
Mof_C 	C 	0.3821	0.7847	0.6976	0.133
Mof_C 	C 	0.7143	0.9643	0.7134	-0.047
Mof_C 	C 	0.6383	0.9438	0.7428	-0.032
Mof_C 	C 	0.6703	0.8524	0.778	-0.015
Mof_C 	C 	0.6517	0.7704	0.7582	0.072
Mof_C 	C 	0.6816	0.7352	0.797	-0.001
Mof_C 	C 	0.5795	0.6625	0.6756	0.149
Mof_C 	C 	0.7525	0.8724	0.6072	-0.076
Mof_C 	C 	0.7491	0.8026	0.6158	-0.03
Mof_C 	C 	0.6174	0.7055	0.5186	-0.003
Mof_C 	C 	0.5194	0.6678	0.491	0.047
Mof_C 	C 	0.4642	0.6075	0.4278	0.031
Mof_C 	C 	0.3708	0.6563	0.5016	0.126
Mof_N 	N 	0.6861	0.9209	0.6348	-0.079
Mof_N 	N 	0.4789	0.8503	0.5794	-0.167
Mof_N 	N 	0.2952	0.8159	0.7024	-0.194
Mof_N 	N 	0.4242	0.8026	0.6592	-0.209
Mof_N 	N 	0.6261	0.8706	0.7256	-0.165
Mof_N 	N 	0.6323	0.6641	0.7414	-0.197
Mof_N 	N 	0.591	0.731	0.6864	-0.206
Mof_N 	N 	0.6452	0.7632	0.5804	-0.168
Mof_N 	N 	0.3766	0.6012	0.435	-0.197
Mof_N 	N 	0.4609	0.6964	0.5324	-0.2
Mof_Fe	Fe	0.60866	0.7367	0.20488	0.745
Mof_H 	H 	0.5625	0.9784	0.2658	0.061
Mof_H 	H 	0.5164	0.9299	0.295	0.078
Mof_H 	H 	0.552	0.8684	0.1546	0.048
Mof_H 	H 	0.441	0.8747	0.159	0.055
Mof_H 	H 	0.3583	0.7906	0.1528	0.043
Mof_H 	H 	0.2529	0.6717	0.1576	0.067
Mof_H 	H 	0.5191	0.5775	0.209	0.018
Mof_H 	H 	0.7481	0.9751	0.2906	0.05
Mof_H 	H 	0.6655	0.9127	0.2136	0.05
Mof_H 	H 	0.8603	0.8669	0.2526	0.059
Mof_H 	H 	0.7911	0.7923	0.131	0.054
Mof_H 	H 	0.6785	0.6735	0.9682	0.052
Mof_H 	H 	0.4767	0.5925	0.025	-0.008
Mof_H 	H 	0.6468	0.9616	0.3986	0.069
Mof_H 	H 	0.748	0.9272	0.3984	0.071
Mof_H 	H 	0.5533	0.8518	0.3484	0.058
Mof_H 	H 	0.6497	0.8601	0.4192	0.051
Mof_H 	H 	0.7417	0.7716	0.407	0.047
Mof_H 	H 	0.8414	0.6396	0.3634	0.05
Mof_H 	H 	0.715	0.5788	0.1428	-0.003
Mof_H 	H 	0.3364	0.5512	0.1634	0.137
Mof_H 	H 	0.5223	0.5796	0.9256	0.164
Mof_H 	H 	0.8433	0.5586	0.2448	0.135
Mof_C 	C 	0.5588	0.9301	0.2662	-0.078
Mof_C 	C 	0.5104	0.8673	0.1838	-0.047
Mof_C 	C 	0.4131	0.7663	0.1666	0.001
Mof_C 	C 	0.4013	0.6993	0.169	0.058
Mof_C 	C 	0.32	0.6615	0.164	-0.032
Mof_C 	C 	0.4711	0.6055	0.1936	0.12
Mof_C 	C 	0.7108	0.9243	0.2656	-0.039
Mof_C 	C 	0.7375	0.77	0.1366	0.004
Mof_C 	C 	0.6658	0.7071	0.0786	0.029
Mof_C 	C 	0.6437	0.6666	0.9968	0.04
Mof_C 	C 	0.5309	0.6232	0.0288	0.133
Mof_C 	C 	0.674	0.9189	0.3698	-0.063
Mof_C 	C 	0.6281	0.8542	0.3672	-0.041
Mof_C 	C 	0.7159	0.7523	0.3538	-0.002
Mof_C 	C 	0.7461	0.689	0.3082	0.053
Mof_C 	C 	0.8052	0.64	0.3168	0.041
Mof_C 	C 	0.737	0.6077	0.1958	0.135
Mof_C 	C 	0.7847	0.88	0.2494	-0.002
Mof_N 	N 	0.6602	0.9181	0.301	-0.089
Mof_N 	N 	0.505	0.7906	0.185	-0.183
Mof_N 	N 	0.371	0.592	0.1722	-0.188
Mof_N 	N 	0.4904	0.6688	0.1888	-0.192
Mof_N 	N 	0.7199	0.7933	0.199	-0.165
Mof_N 	N 	0.5548	0.6134	0.9722	-0.2
Mof_N 	N 	0.589	0.6809	0.094	-0.192
Mof_N 	N 	0.6515	0.7831	0.32	-0.161
Mof_N 	N 	0.8059	0.5936	0.2524	-0.196
Mof_N 	N 	0.7098	0.67	0.233	-0.188
Mof_Fe	Fe	0.91286	0.21321	0.3738	0.739
Mof_H 	H 	0.0799	0.0531	0.4484	0.041
Mof_H 	H 	0.9678	0.0198	0.3862	0.025
Mof_H 	H 	0.9526	0.1089	0.4946	0.066
Mof_H 	H 	0.0351	0.1684	0.502	0.075
Mof_H 	H 	0.7852	0.0989	0.4296	0.061
Mof_H 	H 	0.5794	0.1168	0.3478	0.05
Mof_H 	H 	0.6882	0.2465	0.2802	0.011
Mof_H 	H 	0.9924	0.9831	0.275	0.059
Mof_H 	H 	0.0432	0.0427	0.2602	0.067
Mof_H 	H 	0.8645	0.0263	0.202	0.05
Mof_H 	H 	0.851	0.044	0.2796	0.038
Mof_H 	H 	0.8857	0.112	0.173	0.055
Mof_H 	H 	0.876	0.2478	0.1516	0.052
Mof_H 	H 	0.9112	0.3796	0.37	0.008
Mof_H 	H 	0.1891	0.1005	0.366	0.069
Mof_H 	H 	0.181	0.1411	0.447	0.064
Mof_H 	H 	0.2007	0.2292	0.408	0.048
Mof_H 	H 	0.1061	0.1851	0.3302	0.056
Mof_H 	H 	0.1699	0.3115	0.5082	0.055
Mof_H 	H 	0.0967	0.4232	0.6128	0.04
Mof_H 	H 	0.797	0.3373	0.4806	0.016
Mof_H 	H 	0.5305	0.1882	0.2738	0.136
Mof_H 	H 	0.8868	0.375	0.2508	0.142
Mof_H 	H 	0.9245	0.4346	0.599	0.136
Mof_C 	C 	0.0208	0.0644	0.4156	0.023
Mof_C 	C 	0.9794	0.1262	0.4656	-0.122
Mof_C 	C 	0.8022	0.1289	0.4094	-0.034
Mof_C 	C 	0.7265	0.1549	0.3654	0.06
Mof_C 	C 	0.6228	0.145	0.3392	0.001
Mof_C 	C 	0.6845	0.2153	0.3024	0.131
Mof_C 	C 	0.0009	0.0357	0.2866	-0.043
Mof_C 	C 	0.8955	0.0562	0.2572	-0.045
Mof_C 	C 	0.8923	0.1476	0.222	-0.019
Mof_C 	C 	0.8935	0.2296	0.2418	0.068
Mof_C 	C 	0.8846	0.2648	0.203	-0.004
Mof_C 	C 	0.9039	0.3375	0.3244	0.145
Mof_C 	C 	0.1453	0.1276	0.3928	-0.067
Mof_C 	C 	0.1333	0.1974	0.3842	-0.034
Mof_C 	C 	0.0988	0.2945	0.4814	-0.006
Mof_C 	C 	0.0284	0.3322	0.509	0.061
Mof_C 	C 	0.0364	0.3925	0.5722	0.046
Mof_C 	C 	0.8692	0.3437	0.4984	0.123
Mof_N 	N 	0.0513	0.0791	0.3652	-0.094
Mof_N 	N 	0.8995	0.1497	0.4206	-0.157
Mof_N 	N 	0.5928	0.1841	0.2976	-0.193
Mof_N 	N 	0.765	0.1974	0.3408	-0.208
Mof_N 	N 	0.9005	0.1294	0.2744	-0.165
Mof_N 	N 	0.8909	0.3359	0.2586	-0.198
Mof_N 	N 	0.9046	0.269	0.3136	-0.207
Mof_N 	N 	0.0648	0.2368	0.4196	-0.16
Mof_N 	N 	0.9416	0.3988	0.565	-0.208
Mof_N 	N 	0.9285	0.3036	0.4676	-0.209
Mof_Fe	Fe	0.40378	0.2633	0.79512	0.747
Mof_H 	H 	0.2967	0.0216	0.7342	0.05
Mof_H 	H 	0.2214	0.0701	0.705	0.075
Mof_H 	H 	0.3974	0.1316	0.8454	0.049
Mof_H 	H 	0.282	0.1253	0.841	0.057
Mof_H 	H 	0.2055	0.2094	0.8472	0.048
Mof_H 	H 	0.0953	0.3283	0.8424	0.074
Mof_H 	H 	0.3101	0.4225	0.791	0.019
Mof_H 	H 	0.4575	0.0249	0.7094	0.033
Mof_H 	H 	0.4519	0.0873	0.7864	0.043
Mof_H 	H 	0.6077	0.1331	0.7474	0.061
Mof_H 	H 	0.6601	0.2077	0.869	0.062
Mof_H 	H 	0.7103	0.3265	0.0318	0.059
Mof_H 	H 	0.4517	0.4075	0.975	-0.011
Mof_H 	H 	0.2482	0.0384	0.6014	0.058
Mof_H 	H 	0.3496	0.0728	0.6016	0.064
Mof_H 	H 	0.2049	0.1482	0.6516	0.059
Mof_H 	H 	0.2305	0.1399	0.5808	0.052
Mof_H 	H 	0.3347	0.2284	0.593	0.047
Mof_H 	H 	0.478	0.3604	0.6366	0.051
Mof_H 	H 	0.5722	0.4212	0.8572	0.001
Mof_H 	H 	0.173	0.4488	0.8366	0.142
Mof_H 	H 	0.5967	0.4204	0.0744	0.163
Mof_H 	H 	0.5985	0.4414	0.7552	0.139
Mof_C 	C 	0.2926	0.0699	0.7338	-0.072
Mof_C 	C 	0.3266	0.1327	0.8162	-0.05
Mof_C 	C 	0.2465	0.2337	0.8334	0.002
Mof_C 	C 	0.2323	0.3007	0.831	0.061
Mof_C 	C 	0.156	0.3385	0.836	-0.03
Mof_C 	C 	0.2775	0.3945	0.8064	0.123
Mof_C 	C 	0.4452	0.0757	0.7344	-0.025
Mof_C 	C 	0.6009	0.23	0.8634	-0.011
Mof_C 	C 	0.5872	0.2929	0.9214	0.072
Mof_C 	C 	0.6469	0.3334	0.0032	-0.012
Mof_C 	C 	0.5021	0.3768	0.9712	0.177
Mof_C 	C 	0.3042	0.0811	0.6302	-0.053
Mof_C 	C 	0.2609	0.1458	0.6328	-0.046
Mof_C 	C 	0.3621	0.2477	0.6462	-0.002
Mof_C 	C 	0.4379	0.311	0.6918	0.053
Mof_C 	C 	0.4884	0.36	0.6832	0.043
Mof_C 	C 	0.5412	0.3923	0.8042	0.137
Mof_C 	C 	0.5353	0.12	0.7506	-0.012
Mof_N 	N 	0.3592	0.0819	0.699	-0.096
Mof_N 	N 	0.32	0.2094	0.815	-0.182
Mof_N 	N 	0.1988	0.408	0.8278	-0.188
Mof_N 	N 	0.3016	0.3312	0.8112	-0.192
Mof_N 	N 	0.5209	0.2067	0.801	-0.161
Mof_N 	N 	0.5826	0.3866	0.0278	-0.22
Mof_N 	N 	0.495	0.3191	0.906	-0.201
Mof_N 	N 	0.3315	0.2169	0.68	-0.161
Mof_N 	N 	0.5535	0.4064	0.7476	-0.196
Mof_N 	N 	0.4768	0.33	0.767	-0.188
_end
