data_functionalizedCrystal
_audit_creation_method	'EQeq! by Chris Wilmer'
_symmetry_space_group_name_H-M	'P1'
_symmetry_Int_Tables_number	1
_symmetry_cell_setting	triclinic
loop_
_symmetry_equiv_pos_as_xyz
  x,y,z
_cell_length_a	23.8713
_cell_length_b	23.8713
_cell_length_c	32.565
_cell_angle_alpha	90
_cell_angle_beta	90
_cell_angle_gamma	120
loop_
_atom_site_label
_atom_site_type_symbol
_atom_site_fract_x
_atom_site_fract_y
_atom_site_fract_z
_atom_site_charge
Mof_Cu	Cu	0.77889	0.11838	0.68281	0.897
Mof_Cu	Cu	0.33949	0.22111	0.34948	0.897
Mof_Cu	Cu	0.88162	0.66051	0.01614	0.896
Mof_Cu	Cu	0.66051	0.88162	0.31719	0.897
Mof_Cu	Cu	0.11838	0.77889	0.65052	0.897
Mof_Cu	Cu	0.22111	0.33949	0.98386	0.898
Mof_Cu	Cu	0.60002	0.60002	0.66667	0.871
Mof_Cu	Cu	5.74991e-17	0.39998	0.33333	0.871
Mof_Cu	Cu	0.39998	0	-0	0.87
Mof_H 	H 	0.5883	0.4032	0.6113	0.076
Mof_H 	H 	0.5911	0.4731	0.6634	-0.013
Mof_H 	H 	0.6725	0.6248	0.5832	-0.001
Mof_H 	H 	0.6697	0.5549	0.5311	0.083
Mof_H 	H 	0.4839	0.3975	0.4937	0.238
Mof_H 	H 	0.5379	0.4663	0.508	0.235
Mof_H 	H 	0.5023	0.4108	0.5403	0.237
Mof_H 	H 	0.5618	0.2644	0.4296	0.238
Mof_H 	H 	0.6011	0.2431	0.4578	0.233
Mof_H 	H 	0.6372	0.2988	0.4256	0.227
Mof_H 	H 	0.7315	0.4678	0.5741	0.259
Mof_H 	H 	0.7682	0.4523	0.54	0.255
Mof_H 	H 	0.7282	0.4005	0.5736	0.251
Mof_H 	H 	0.6479	0.2329	0.585	0.243
Mof_H 	H 	0.6037	0.235	0.5502	0.238
Mof_H 	H 	0.6408	0.2943	0.5797	0.234
Mof_H 	H 	0.8288	0.2246	0.5304	0.262
Mof_H 	H 	0.8817	0.2888	0.5097	0.258
Mof_H 	H 	0.8344	0.2298	0.4824	0.257
Mof_H 	H 	0.7296	0.4073	0.4443	0.274
Mof_H 	H 	0.7567	0.3757	0.4139	0.269
Mof_H 	H 	0.8041	0.4325	0.4426	0.269
Mof_H 	H 	0.6985	0.1347	0.546	0.105
Mof_H 	H 	0.708	0.0813	0.6024	-0.014
Mof_H 	H 	0.7836	0.2455	0.6673	-0.015
Mof_H 	H 	0.774	0.2989	0.6109	0.1
Mof_H 	H 	0.8074	0.2504	0.4212	0.113
Mof_H 	H 	0.88	0.2777	0.3678	-0.02
Mof_H 	H 	0.9722	0.4615	0.4058	-0.043
Mof_H 	H 	0.8995	0.4342	0.4592	0.104
Mof_H 	H 	0.4469	0.3518	0.3716	-0.022
Mof_H 	H 	0.38	0.1851	0.431	-0.02
Mof_H 	H 	0.4655	0.2328	0.4757	0.113
Mof_H 	H 	0.5323	0.3994	0.4163	0.112
Mof_H 	H 	0.7639	0.0532	0.765	-0.028
Mof_H 	H 	0.8267	0.0348	0.8095	0.104
Mof_H 	H 	0.9786	0.1363	0.7385	0.105
Mof_H 	H 	0.9159	0.1549	0.694	-0.011
Mof_H 	H 	0.8171	0.681	0.9397	0.005
Mof_H 	H 	0.8517	0.7516	0.8829	0.08
Mof_H 	H 	0.033	0.8506	0.9317	0.084
Mof_H 	H 	0.9985	0.7801	0.9885	0.004
Mof_H 	H 	0.0236	0.7657	0.8099	0.138
Mof_H 	H 	0.9439	0.9633	0.8944	0.268
Mof_H 	H 	0.9619	0.924	0.9249	0.26
Mof_H 	H 	0.8946	0.8901	0.9028	0.264
Mof_H 	H 	0.0421	0.2265	0.8258	0.142
Mof_H 	H 	0.878	0.9777	0.7678	0.227
Mof_H 	H 	0.8791	0.9256	0.7966	0.222
Mof_H 	H 	0.9286	0.9552	0.7603	0.22
Mof_H 	H 	0.8149	0.4117	0.27797	0.076
Mof_H 	H 	0.882	0.4089	0.33007	-0.013
Mof_H 	H 	0.9523	0.3275	0.24987	-0.001
Mof_H 	H 	0.8852	0.3303	0.19777	0.083
Mof_H 	H 	0.9136	0.5161	0.16037	0.238
Mof_H 	H 	0.9284	0.4621	0.17467	0.236
Mof_H 	H 	0.9085	0.4977	0.20697	0.237
Mof_H 	H 	0.7026	0.4382	0.09627	0.237
Mof_H 	H 	0.642	0.3989	0.12447	0.232
Mof_H 	H 	0.6616	0.3628	0.09227	0.227
Mof_H 	H 	0.7363	0.2685	0.24077	0.258
Mof_H 	H 	0.6841	0.2318	0.20667	0.255
Mof_H 	H 	0.6723	0.2718	0.24027	0.251
Mof_H 	H 	0.585	0.3521	0.25167	0.243
Mof_H 	H 	0.6313	0.3963	0.21687	0.238
Mof_H 	H 	0.6535	0.3592	0.24637	0.234
Mof_H 	H 	0.3958	0.1712	0.19707	0.262
Mof_H 	H 	0.4071	0.1183	0.17637	0.257
Mof_H 	H 	0.3954	0.1656	0.14907	0.257
Mof_H 	H 	0.6777	0.2704	0.11097	0.273
Mof_H 	H 	0.619	0.2433	0.08057	0.267
Mof_H 	H 	0.6284	0.1959	0.10927	0.267
Mof_H 	H 	0.4362	0.3015	0.21267	0.105
Mof_H 	H 	0.3733	0.292	0.26907	-0.014
Mof_H 	H 	0.4619	0.2164	0.33397	-0.015
Mof_H 	H 	0.5249	0.226	0.27757	0.1
Mof_H 	H 	0.443	0.1926	0.08787	0.112
Mof_H 	H 	0.3977	0.12	0.03447	-0.021
Mof_H 	H 	0.4893	0.0278	0.07247	-0.044
Mof_H 	H 	0.5347	0.1005	0.12587	0.103
Mof_H 	H 	0.9049	0.5531	0.03827	-0.023
Mof_H 	H 	0.8051	0.62	0.09767	-0.02
Mof_H 	H 	0.7673	0.5345	0.14237	0.113
Mof_H 	H 	0.8671	0.4677	0.08297	0.111
Mof_H 	H 	0.2893	0.2361	0.43167	-0.028
Mof_H 	H 	0.2081	0.1733	0.47617	0.104
Mof_H 	H 	0.1577	0.0214	0.40517	0.105
Mof_H 	H 	0.239	0.0841	0.36067	-0.011
Mof_H 	H 	0.8639	0.1829	0.60637	0.004
Mof_H 	H 	0.8999	0.1483	0.54957	0.08
Mof_H 	H 	0.8176	0.967	0.59837	0.086
Mof_H 	H 	0.7816	0.0015	0.65517	0.002
Mof_H 	H 	0.7421	0.9764	0.47657	0.139
Mof_H 	H 	0.0194	0.0561	0.56107	0.264
Mof_H 	H 	0.9621	0.0381	0.59157	0.256
Mof_H 	H 	0.9955	0.1054	0.56947	0.261
Mof_H 	H 	0.1844	0.9579	0.49247	0.143
Mof_H 	H 	0.0997	0.122	0.43447	0.226
Mof_H 	H 	0.0465	0.1209	0.46327	0.222
Mof_H 	H 	0.0266	0.0714	0.42697	0.219
Mof_H 	H 	0.5968	0.1851	0.94463	0.077
Mof_H 	H 	0.5269	0.118	0.99673	-0.012
Mof_H 	H 	0.3752	0.0477	0.91653	-0.001
Mof_H 	H 	0.4451	0.1148	0.86443	0.083
Mof_H 	H 	0.6025	0.0864	0.82703	0.238
Mof_H 	H 	0.5337	0.0716	0.84133	0.235
Mof_H 	H 	0.5892	0.0915	0.87363	0.237
Mof_H 	H 	0.7356	0.2974	0.76293	0.238
Mof_H 	H 	0.7569	0.358	0.79113	0.233
Mof_H 	H 	0.7012	0.3384	0.75893	0.228
Mof_H 	H 	0.5322	0.2637	0.90743	0.259
Mof_H 	H 	0.5477	0.3159	0.87333	0.255
Mof_H 	H 	0.5995	0.3277	0.90693	0.252
Mof_H 	H 	0.7671	0.415	0.91833	0.244
Mof_H 	H 	0.765	0.3687	0.88353	0.239
Mof_H 	H 	0.7057	0.3465	0.91303	0.235
Mof_H 	H 	0.7754	0.6042	0.86373	0.262
Mof_H 	H 	0.7112	0.5929	0.84303	0.258
Mof_H 	H 	0.7702	0.6046	0.81573	0.258
Mof_H 	H 	0.5927	0.3223	0.77763	0.274
Mof_H 	H 	0.6243	0.381	0.74723	0.269
Mof_H 	H 	0.5675	0.3716	0.77593	0.269
Mof_H 	H 	0.8653	0.5638	0.87933	0.106
Mof_H 	H 	0.9187	0.6267	0.93573	-0.014
Mof_H 	H 	0.7545	0.5381	0.00063	-0.02
Mof_H 	H 	0.7011	0.4751	0.94423	0.103
Mof_H 	H 	0.7496	0.557	0.75453	0.113
Mof_H 	H 	0.7223	0.6023	0.70113	-0.02
Mof_H 	H 	0.5385	0.5107	0.73913	-0.043
Mof_H 	H 	0.5658	0.4653	0.79253	0.104
Mof_H 	H 	0.6482	0.0951	0.70493	-0.022
Mof_H 	H 	0.8149	0.1949	0.76433	-0.02
Mof_H 	H 	0.7672	0.2327	0.80903	0.113
Mof_H 	H 	0.6006	0.1329	0.74963	0.111
Mof_H 	H 	0.9468	0.7107	0.09833	-0.028
Mof_H 	H 	0.9652	0.7919	0.14283	0.104
Mof_H 	H 	0.8637	0.8423	0.07183	0.105
Mof_H 	H 	0.8451	0.761	0.02733	-0.012
Mof_H 	H 	0.319	0.1361	0.27303	0.004
Mof_H 	H 	0.2484	0.1001	0.21623	0.08
Mof_H 	H 	0.1494	0.1824	0.26503	0.085
Mof_H 	H 	0.2199	0.2184	0.32183	0.002
Mof_H 	H 	0.2343	0.2579	0.14323	0.138
Mof_H 	H 	0.0367	0.9806	0.22773	0.269
Mof_H 	H 	0.076	0.0379	0.25823	0.26
Mof_H 	H 	0.1099	0.0045	0.23613	0.264
Mof_H 	H 	0.7735	0.8156	0.15913	0.141
Mof_H 	H 	0.0223	0.9003	0.10113	0.226
Mof_H 	H 	0.0744	0.9535	0.12993	0.222
Mof_H 	H 	0.0448	0.9734	0.09363	0.219
Mof_H 	H 	0.1851	0.5968	0.3887	0.076
Mof_H 	H 	0.118	0.5269	0.3366	-0.013
Mof_H 	H 	0.0477	0.3752	0.4168	-0.002
Mof_H 	H 	0.1148	0.4451	0.4689	0.083
Mof_H 	H 	0.0864	0.6025	0.5063	0.238
Mof_H 	H 	0.0716	0.5337	0.492	0.235
Mof_H 	H 	0.0915	0.5892	0.4597	0.237
Mof_H 	H 	0.2974	0.7356	0.5704	0.238
Mof_H 	H 	0.358	0.7569	0.5422	0.233
Mof_H 	H 	0.3384	0.7012	0.5744	0.227
Mof_H 	H 	0.2637	0.5322	0.4259	0.258
Mof_H 	H 	0.3159	0.5477	0.46	0.255
Mof_H 	H 	0.3277	0.5995	0.4264	0.251
Mof_H 	H 	0.415	0.7671	0.415	0.243
Mof_H 	H 	0.3687	0.765	0.4498	0.238
Mof_H 	H 	0.3465	0.7057	0.4203	0.234
Mof_H 	H 	0.6042	0.7754	0.4696	0.262
Mof_H 	H 	0.5929	0.7112	0.4903	0.258
Mof_H 	H 	0.6046	0.7702	0.5176	0.257
Mof_H 	H 	0.3223	0.5927	0.5557	0.274
Mof_H 	H 	0.381	0.6243	0.5861	0.268
Mof_H 	H 	0.3716	0.5675	0.5574	0.268
Mof_H 	H 	0.5638	0.8653	0.454	0.105
Mof_H 	H 	0.6267	0.9187	0.3976	-0.014
Mof_H 	H 	0.5381	0.7545	0.3327	-0.015
Mof_H 	H 	0.4751	0.7011	0.3891	0.1
Mof_H 	H 	0.557	0.7496	0.5788	0.113
Mof_H 	H 	0.6023	0.7223	0.6322	-0.02
Mof_H 	H 	0.5107	0.5385	0.5942	-0.043
Mof_H 	H 	0.4653	0.5658	0.5408	0.104
Mof_H 	H 	0.0951	0.6482	0.6284	-0.022
Mof_H 	H 	0.1949	0.8149	0.569	-0.02
Mof_H 	H 	0.2327	0.7672	0.5243	0.113
Mof_H 	H 	0.1329	0.6006	0.5837	0.111
Mof_H 	H 	0.7107	0.9468	0.235	-0.028
Mof_H 	H 	0.7919	0.9652	0.1905	0.104
Mof_H 	H 	0.8423	0.8637	0.2615	0.105
Mof_H 	H 	0.761	0.8451	0.306	-0.011
Mof_H 	H 	0.1361	0.319	0.0603	0.004
Mof_H 	H 	0.1001	0.2484	0.1171	0.08
Mof_H 	H 	0.1824	0.1494	0.0683	0.084
Mof_H 	H 	0.2184	0.2199	0.0115	0.001
Mof_H 	H 	0.2579	0.2343	0.1901	0.138
Mof_H 	H 	0.9806	0.0367	0.1056	0.268
Mof_H 	H 	0.0379	0.076	0.0751	0.259
Mof_H 	H 	0.0045	0.1099	0.0972	0.263
Mof_H 	H 	0.8156	0.7735	0.1742	0.141
Mof_H 	H 	0.9003	0.0223	0.2322	0.227
Mof_H 	H 	0.9535	0.0744	0.2034	0.222
Mof_H 	H 	0.9734	0.0448	0.2397	0.22
Mof_H 	H 	0.4032	0.5883	0.72203	0.076
Mof_H 	H 	0.4731	0.5911	0.66993	-0.013
Mof_H 	H 	0.6248	0.6725	0.75013	-0.001
Mof_H 	H 	0.5549	0.6697	0.80223	0.083
Mof_H 	H 	0.3975	0.4839	0.83963	0.238
Mof_H 	H 	0.4663	0.5379	0.82533	0.236
Mof_H 	H 	0.4108	0.5023	0.79303	0.237
Mof_H 	H 	0.2644	0.5618	0.90373	0.238
Mof_H 	H 	0.2431	0.6011	0.87553	0.233
Mof_H 	H 	0.2988	0.6372	0.90773	0.228
Mof_H 	H 	0.4678	0.7315	0.75923	0.259
Mof_H 	H 	0.4523	0.7682	0.79333	0.255
Mof_H 	H 	0.4005	0.7282	0.75973	0.252
Mof_H 	H 	0.2329	0.6479	0.74833	0.243
Mof_H 	H 	0.235	0.6037	0.78313	0.238
Mof_H 	H 	0.2943	0.6408	0.75363	0.234
Mof_H 	H 	0.2246	0.8288	0.80293	0.262
Mof_H 	H 	0.2888	0.8817	0.82363	0.258
Mof_H 	H 	0.2298	0.8344	0.85093	0.258
Mof_H 	H 	0.4073	0.7296	0.88903	0.275
Mof_H 	H 	0.3757	0.7567	0.91943	0.27
Mof_H 	H 	0.4325	0.8041	0.89073	0.269
Mof_H 	H 	0.1347	0.6985	0.78733	0.105
Mof_H 	H 	0.0813	0.708	0.73093	-0.014
Mof_H 	H 	0.2455	0.7836	0.66603	-0.015
Mof_H 	H 	0.2989	0.774	0.72243	0.1
Mof_H 	H 	0.2504	0.8074	0.91213	0.113
Mof_H 	H 	0.2777	0.88	0.96553	-0.019
Mof_H 	H 	0.4615	0.9722	0.92753	-0.043
Mof_H 	H 	0.4342	0.8995	0.87413	0.104
Mof_H 	H 	0.3518	0.4469	0.96173	-0.022
Mof_H 	H 	0.1851	0.38	0.90233	-0.02
Mof_H 	H 	0.2328	0.4655	0.85763	0.113
Mof_H 	H 	0.3994	0.5323	0.91703	0.112
Mof_H 	H 	0.0532	0.7639	0.56833	-0.028
Mof_H 	H 	0.0348	0.8267	0.52383	0.104
Mof_H 	H 	0.1363	0.9786	0.59483	0.105
Mof_H 	H 	0.1549	0.9159	0.63933	-0.011
Mof_H 	H 	0.681	0.8171	0.39363	0.004
Mof_H 	H 	0.7516	0.8517	0.45043	0.08
Mof_H 	H 	0.8506	0.033	0.40163	0.083
Mof_H 	H 	0.7801	0.9985	0.34483	0.003
Mof_H 	H 	0.7657	0.0236	0.52343	0.138
Mof_H 	H 	0.9633	0.9439	0.43893	0.267
Mof_H 	H 	0.924	0.9619	0.40843	0.259
Mof_H 	H 	0.8901	0.8946	0.43053	0.263
Mof_H 	H 	0.2265	0.0421	0.50753	0.142
Mof_H 	H 	0.9777	0.878	0.56553	0.227
Mof_H 	H 	0.9256	0.8791	0.53673	0.222
Mof_H 	H 	0.9552	0.9286	0.57303	0.22
Mof_H 	H 	0.4117	0.8149	0.05537	0.076
Mof_H 	H 	0.4089	0.882	0.00327	-0.014
Mof_H 	H 	0.3275	0.9523	0.08347	-0.001
Mof_H 	H 	0.3303	0.8852	0.13557	0.083
Mof_H 	H 	0.5161	0.9136	0.17297	0.238
Mof_H 	H 	0.4621	0.9284	0.15867	0.236
Mof_H 	H 	0.4977	0.9085	0.12637	0.237
Mof_H 	H 	0.4382	0.7026	0.23707	0.238
Mof_H 	H 	0.3989	0.642	0.20887	0.233
Mof_H 	H 	0.3628	0.6616	0.24107	0.227
Mof_H 	H 	0.2685	0.7363	0.09257	0.258
Mof_H 	H 	0.2318	0.6841	0.12667	0.254
Mof_H 	H 	0.2718	0.6723	0.09307	0.251
Mof_H 	H 	0.3521	0.585	0.08167	0.242
Mof_H 	H 	0.3963	0.6313	0.11647	0.238
Mof_H 	H 	0.3592	0.6535	0.08697	0.233
Mof_H 	H 	0.1712	0.3958	0.13627	0.261
Mof_H 	H 	0.1183	0.4071	0.15697	0.257
Mof_H 	H 	0.1656	0.3954	0.18427	0.257
Mof_H 	H 	0.2704	0.6777	0.22237	0.274
Mof_H 	H 	0.2433	0.619	0.25277	0.268
Mof_H 	H 	0.1959	0.6284	0.22407	0.268
Mof_H 	H 	0.3015	0.4362	0.12067	0.105
Mof_H 	H 	0.292	0.3733	0.06427	-0.014
Mof_H 	H 	0.2164	0.4619	0.99937	-0.009
Mof_H 	H 	0.226	0.5249	0.05577	0.098
Mof_H 	H 	0.1926	0.443	0.24547	0.112
Mof_H 	H 	0.12	0.3977	0.29887	-0.02
Mof_H 	H 	0.0278	0.4893	0.26087	-0.043
Mof_H 	H 	0.1005	0.5347	0.20747	0.103
Mof_H 	H 	0.5531	0.9049	0.29507	-0.022
Mof_H 	H 	0.62	0.8051	0.23567	-0.02
Mof_H 	H 	0.5345	0.7673	0.19097	0.113
Mof_H 	H 	0.4677	0.8671	0.25037	0.112
Mof_H 	H 	0.2361	0.2893	0.90167	-0.028
Mof_H 	H 	0.1733	0.2081	0.85717	0.104
Mof_H 	H 	0.0214	0.1577	0.92817	0.105
Mof_H 	H 	0.0841	0.239	0.97267	-0.01
Mof_H 	H 	0.1829	0.8639	0.72697	0.004
Mof_H 	H 	0.1483	0.8999	0.78377	0.08
Mof_H 	H 	0.967	0.8176	0.73497	0.086
Mof_H 	H 	0.0015	0.7816	0.67817	0.002
Mof_H 	H 	0.9764	0.7421	0.85677	0.139
Mof_H 	H 	0.0561	0.0194	0.77227	0.264
Mof_H 	H 	0.0381	0.9621	0.74177	0.257
Mof_H 	H 	0.1054	0.9955	0.76387	0.261
Mof_H 	H 	0.9579	0.1844	0.84087	0.143
Mof_H 	H 	0.122	0.0997	0.89887	0.227
Mof_H 	H 	0.1209	0.0465	0.87007	0.222
Mof_H 	H 	0.0714	0.0266	0.90637	0.22
Mof_C 	C 	0.6049	0.4469	0.6057	-0.178
Mof_C 	C 	0.6066	0.4893	0.63724	0.044
Mof_C 	C 	0.6559	0.5811	0.58869	0.059
Mof_C 	C 	0.6542	0.5388	0.55715	-0.18
Mof_C 	C 	0.6287	0.4717	0.56565	0.148
Mof_C 	C 	0.626	0.4273	0.53129	-0.289
Mof_C 	C 	0.5727	0.3992	0.50638	0.297
Mof_C 	C 	0.5641	0.3511	0.4798	-0.293
Mof_C 	C 	0.6087	0.3312	0.47809	0.263
Mof_C 	C 	0.662	0.3593	0.503	-0.191
Mof_C 	C 	0.6706	0.4074	0.52961	0.307
Mof_C 	C 	0.5187	0.4206	0.5128	-0.723
Mof_C 	C 	0.6015	0.2791	0.4444	-0.71
Mof_C 	C 	0.7301	0.4345	0.5568	-0.79
Mof_C 	C 	0.7068	0.3319	0.5035	-0.176
Mof_C 	C 	0.7009	0.2895	0.5358	0.261
Mof_C 	C 	0.7424	0.263	0.5373	-0.28
Mof_C 	C 	0.7899	0.2789	0.5064	0.317
Mof_C 	C 	0.7959	0.3213	0.474	-0.326
Mof_C 	C 	0.7543	0.3477	0.4725	0.324
Mof_C 	C 	0.6429	0.2602	0.5655	-0.737
Mof_C 	C 	0.8384	0.2531	0.5073	-0.789
Mof_C 	C 	0.7618	0.3949	0.4405	-0.851
Mof_C 	C 	0.7354	0.22204	0.57294	0.198
Mof_C 	C 	0.7156	0.15697	0.57041	-0.24
Mof_C 	C 	0.7213	0.1251	0.6041	0.106
Mof_C 	C 	0.7664	0.2232	0.64285	0.107
Mof_C 	C 	0.7608	0.2551	0.60916	-0.233
Mof_C 	C 	0.8464	0.33958	0.44533	0.252
Mof_C 	C 	0.8406	0.29291	0.41805	-0.268
Mof_C 	C 	0.884	0.3092	0.38619	0.126
Mof_C 	C 	0.939	0.4189	0.40888	0.119
Mof_C 	C 	0.8956	0.40259	0.44075	-0.27
Mof_C 	C 	0.45066	0.32763	0.39268	0.125
Mof_C 	C 	0.41092	0.22856	0.42798	0.129
Mof_C 	C 	0.46171	0.25689	0.45457	-0.265
Mof_C 	C 	0.50698	0.32058	0.45021	0.218
Mof_C 	C 	0.50145	0.35596	0.41926	-0.262
Mof_C 	C 	0.8077	0.07015	0.7596	0.13
Mof_C 	C 	0.8449	0.05927	0.78592	-0.247
Mof_C 	C 	0.9084	0.08383	0.77807	0.178
Mof_C 	C 	0.9348	0.11937	0.74392	-0.232
Mof_C 	C 	0.8977	0.13035	0.7176	0.125
Mof_C 	C 	0.8597	0.7145	0.93812	0.064
Mof_C 	C 	0.8807	0.7572	0.90381	-0.179
Mof_C 	C 	0.946	0.8085	0.90142	0.149
Mof_C 	C 	0.9904	0.8171	0.93334	-0.173
Mof_C 	C 	0.9694	0.7744	0.96764	0.058
Mof_C 	C 	0.9713	0.8497	0.8633	-0.279
Mof_C 	C 	0.9684	0.9031	0.8648	0.317
Mof_C 	C 	0.9395	0.9218	0.8999	-0.82
Mof_C 	C 	0.9624	0.0815	0.8104	-0.233
Mof_C 	C 	0.9548	0.0196	0.8102	0.211
Mof_C 	C 	0.9052	0.964	0.7808	-0.677
Mof_C 	C 	0.842	0.3951	0.27237	-0.178
Mof_C 	C 	0.8827	0.3934	0.30391	0.044
Mof_C 	C 	0.9252	0.3441	0.25536	0.059
Mof_C 	C 	0.8846	0.3458	0.22382	-0.18
Mof_C 	C 	0.843	0.3713	0.23232	0.148
Mof_C 	C 	0.8013	0.374	0.19796	-0.289
Mof_C 	C 	0.8265	0.4273	0.17305	0.297
Mof_C 	C 	0.787	0.4359	0.14647	-0.293
Mof_C 	C 	0.7225	0.3913	0.14476	0.262
Mof_C 	C 	0.6973	0.338	0.16967	-0.191
Mof_C 	C 	0.7368	0.3294	0.19628	0.307
Mof_C 	C 	0.9019	0.4813	0.17947	-0.723
Mof_C 	C 	0.6776	0.3985	0.11107	-0.709
Mof_C 	C 	0.7044	0.2699	0.22347	-0.789
Mof_C 	C 	0.6251	0.2932	0.17017	-0.176
Mof_C 	C 	0.5886	0.2991	0.20247	0.26
Mof_C 	C 	0.5206	0.2576	0.20397	-0.28
Mof_C 	C 	0.489	0.2101	0.17307	0.316
Mof_C 	C 	0.5254	0.2041	0.14067	-0.325
Mof_C 	C 	0.5934	0.2457	0.13917	0.323
Mof_C 	C 	0.6173	0.3571	0.23217	-0.736
Mof_C 	C 	0.4147	0.1616	0.17397	-0.788
Mof_C 	C 	0.6331	0.2382	0.10717	-0.849
Mof_C 	C 	0.48664	0.2646	0.23961	0.198
Mof_C 	C 	0.44137	0.2844	0.23708	-0.24
Mof_C 	C 	0.4038	0.2787	0.27077	0.106
Mof_C 	C 	0.4568	0.2336	0.30952	0.106
Mof_C 	C 	0.4943	0.2392	0.27583	-0.233
Mof_C 	C 	0.49318	0.1536	0.112	0.251
Mof_C 	C 	0.45231	0.1594	0.08472	-0.268
Mof_C 	C 	0.4252	0.116	0.05286	0.125
Mof_C 	C 	0.4799	0.061	0.07555	0.118
Mof_C 	C 	0.50699	0.1044	0.10742	-0.27
Mof_C 	C 	0.87697	0.54934	0.05935	0.125
Mof_C 	C 	0.81764	0.58908	0.09465	0.129
Mof_C 	C 	0.79518	0.53829	0.12124	-0.265
Mof_C 	C 	0.8136	0.49302	0.11688	0.218
Mof_C 	C 	0.85451	0.49855	0.08593	-0.262
Mof_C 	C 	0.26245	0.1923	0.42627	0.13
Mof_C 	C 	0.21437	0.1551	0.45259	-0.247
Mof_C 	C 	0.17543	0.0916	0.44474	0.178
Mof_C 	C 	0.18457	0.0652	0.41059	-0.232
Mof_C 	C 	0.23265	0.1023	0.38427	0.125
Mof_C 	C 	0.8548	0.1403	0.60479	0.064
Mof_C 	C 	0.8765	0.1193	0.57048	-0.18
Mof_C 	C 	0.8625	0.054	0.56809	0.15
Mof_C 	C 	0.8267	0.0096	0.60001	-0.178
Mof_C 	C 	0.805	0.0306	0.63431	0.059
Mof_C 	C 	0.8784	0.0287	0.52997	-0.279
Mof_C 	C 	0.9347	0.0316	0.53147	0.314
Mof_C 	C 	0.9823	0.0605	0.56657	-0.81
Mof_C 	C 	0.1191	0.0376	0.47707	-0.235
Mof_C 	C 	0.0648	0.0452	0.47687	0.21
Mof_C 	C 	0.0588	0.0948	0.44747	-0.676
Mof_C 	C 	0.5531	0.158	0.93903	-0.178
Mof_C 	C 	0.5107	0.1173	0.97057	0.045
Mof_C 	C 	0.4189	0.0748	0.92202	0.059
Mof_C 	C 	0.4612	0.1154	0.89048	-0.18
Mof_C 	C 	0.5283	0.157	0.89898	0.148
Mof_C 	C 	0.5727	0.1987	0.86462	-0.289
Mof_C 	C 	0.6008	0.1735	0.83971	0.297
Mof_C 	C 	0.6489	0.213	0.81313	-0.293
Mof_C 	C 	0.6688	0.2775	0.81142	0.263
Mof_C 	C 	0.6407	0.3027	0.83633	-0.191
Mof_C 	C 	0.5926	0.2632	0.86294	0.307
Mof_C 	C 	0.5794	0.0981	0.84613	-0.723
Mof_C 	C 	0.7209	0.3224	0.77773	-0.71
Mof_C 	C 	0.5655	0.2956	0.89013	-0.791
Mof_C 	C 	0.6681	0.3749	0.83683	-0.176
Mof_C 	C 	0.7105	0.4114	0.86913	0.262
Mof_C 	C 	0.737	0.4794	0.87063	-0.282
Mof_C 	C 	0.7211	0.511	0.83973	0.318
Mof_C 	C 	0.6787	0.4746	0.80733	-0.326
Mof_C 	C 	0.6523	0.4066	0.80583	0.325
Mof_C 	C 	0.7398	0.3827	0.89883	-0.739
Mof_C 	C 	0.7469	0.5853	0.84063	-0.79
Mof_C 	C 	0.6051	0.3669	0.77383	-0.851
Mof_C 	C 	0.77796	0.51336	0.90627	0.201
Mof_C 	C 	0.84303	0.55863	0.90374	-0.242
Mof_C 	C 	0.8749	0.5962	0.93743	0.108
Mof_C 	C 	0.7768	0.5432	0.97618	0.116
Mof_C 	C 	0.7449	0.5057	0.94249	-0.238
Mof_C 	C 	0.66042	0.50682	0.77866	0.252
Mof_C 	C 	0.70709	0.54769	0.75138	-0.269
Mof_C 	C 	0.6908	0.5748	0.71952	0.126
Mof_C 	C 	0.5811	0.5201	0.74221	0.119
Mof_C 	C 	0.59741	0.49301	0.77408	-0.27
Mof_C 	C 	0.67237	0.12303	0.72601	0.125
Mof_C 	C 	0.77144	0.18236	0.76131	0.129
Mof_C 	C 	0.74311	0.20482	0.7879	-0.265
Mof_C 	C 	0.67942	0.1864	0.78354	0.218
Mof_C 	C 	0.64404	0.14549	0.75259	-0.262
Mof_C 	C 	0.92985	0.73755	0.09293	0.13
Mof_C 	C 	0.94073	0.78563	0.11925	-0.247
Mof_C 	C 	0.91617	0.82457	0.1114	0.178
Mof_C 	C 	0.88063	0.81543	0.07725	-0.232
Mof_C 	C 	0.86965	0.76735	0.05093	0.125
Mof_C 	C 	0.2855	0.1452	0.27145	0.064
Mof_C 	C 	0.2428	0.1235	0.23714	-0.18
Mof_C 	C 	0.1915	0.1375	0.23475	0.15
Mof_C 	C 	0.1829	0.1733	0.26667	-0.176
Mof_C 	C 	0.2256	0.195	0.30097	0.059
Mof_C 	C 	0.1503	0.1216	0.19663	-0.282
Mof_C 	C 	0.0969	0.0653	0.19813	0.319
Mof_C 	C 	0.0782	0.0177	0.23323	-0.823
Mof_C 	C 	0.9185	0.8809	0.14373	-0.234
Mof_C 	C 	0.9804	0.9352	0.14353	0.209
Mof_C 	C 	0.036	0.9412	0.11413	-0.676
Mof_C 	C 	0.158	0.5531	0.3943	-0.178
Mof_C 	C 	0.1173	0.5107	0.36276	0.044
Mof_C 	C 	0.0748	0.4189	0.41131	0.059
Mof_C 	C 	0.1154	0.4612	0.44285	-0.18
Mof_C 	C 	0.157	0.5283	0.43435	0.148
Mof_C 	C 	0.1987	0.5727	0.46871	-0.289
Mof_C 	C 	0.1735	0.6008	0.49362	0.297
Mof_C 	C 	0.213	0.6489	0.5202	-0.293
Mof_C 	C 	0.2775	0.6688	0.52191	0.263
Mof_C 	C 	0.3027	0.6407	0.497	-0.191
Mof_C 	C 	0.2632	0.5926	0.47039	0.307
Mof_C 	C 	0.0981	0.5794	0.4872	-0.722
Mof_C 	C 	0.3224	0.7209	0.5556	-0.71
Mof_C 	C 	0.2956	0.5655	0.4432	-0.79
Mof_C 	C 	0.3749	0.6681	0.4965	-0.176
Mof_C 	C 	0.4114	0.7105	0.4642	0.261
Mof_C 	C 	0.4794	0.737	0.4627	-0.28
Mof_C 	C 	0.511	0.7211	0.4936	0.317
Mof_C 	C 	0.4746	0.6787	0.526	-0.326
Mof_C 	C 	0.4066	0.6523	0.5275	0.324
Mof_C 	C 	0.3827	0.7398	0.4345	-0.737
Mof_C 	C 	0.5853	0.7469	0.4927	-0.789
Mof_C 	C 	0.3669	0.6051	0.5595	-0.851
Mof_C 	C 	0.51336	0.77796	0.42706	0.198
Mof_C 	C 	0.55863	0.84303	0.42959	-0.24
Mof_C 	C 	0.5962	0.8749	0.3959	0.106
Mof_C 	C 	0.5432	0.7768	0.35715	0.107
Mof_C 	C 	0.5057	0.7449	0.39084	-0.233
Mof_C 	C 	0.50682	0.66042	0.55467	0.252
Mof_C 	C 	0.54769	0.70709	0.58195	-0.268
Mof_C 	C 	0.5748	0.6908	0.61381	0.126
Mof_C 	C 	0.5201	0.5811	0.59112	0.119
Mof_C 	C 	0.49301	0.59741	0.55925	-0.27
Mof_C 	C 	0.12303	0.67237	0.60732	0.125
Mof_C 	C 	0.18236	0.77144	0.57202	0.129
Mof_C 	C 	0.20482	0.74311	0.54543	-0.265
Mof_C 	C 	0.1864	0.67942	0.54979	0.218
Mof_C 	C 	0.14549	0.64404	0.58074	-0.262
Mof_C 	C 	0.73755	0.92985	0.2404	0.13
Mof_C 	C 	0.78563	0.94073	0.21408	-0.247
Mof_C 	C 	0.82457	0.91617	0.22193	0.178
Mof_C 	C 	0.81543	0.88063	0.25608	-0.232
Mof_C 	C 	0.76735	0.86965	0.2824	0.125
Mof_C 	C 	0.1452	0.2855	0.06188	0.063
Mof_C 	C 	0.1235	0.2428	0.09619	-0.18
Mof_C 	C 	0.1375	0.1915	0.09858	0.15
Mof_C 	C 	0.1733	0.1829	0.06666	-0.177
Mof_C 	C 	0.195	0.2256	0.03236	0.058
Mof_C 	C 	0.1216	0.1503	0.1367	-0.281
Mof_C 	C 	0.0653	0.0969	0.1352	0.318
Mof_C 	C 	0.0177	0.0782	0.1001	-0.821
Mof_C 	C 	0.8809	0.9185	0.1896	-0.234
Mof_C 	C 	0.9352	0.9804	0.1898	0.21
Mof_C 	C 	0.9412	0.036	0.2192	-0.677
Mof_C 	C 	0.4469	0.6049	0.72763	-0.178
Mof_C 	C 	0.4893	0.6066	0.69609	0.044
Mof_C 	C 	0.5811	0.6559	0.74464	0.059
Mof_C 	C 	0.5388	0.6542	0.77618	-0.18
Mof_C 	C 	0.4717	0.6287	0.76768	0.148
Mof_C 	C 	0.4273	0.626	0.80204	-0.289
Mof_C 	C 	0.3992	0.5727	0.82695	0.297
Mof_C 	C 	0.3511	0.5641	0.85353	-0.293
Mof_C 	C 	0.3312	0.6087	0.85524	0.263
Mof_C 	C 	0.3593	0.662	0.83033	-0.191
Mof_C 	C 	0.4074	0.6706	0.80372	0.307
Mof_C 	C 	0.4206	0.5187	0.82053	-0.723
Mof_C 	C 	0.2791	0.6015	0.88893	-0.711
Mof_C 	C 	0.4345	0.7301	0.77653	-0.79
Mof_C 	C 	0.3319	0.7068	0.82983	-0.176
Mof_C 	C 	0.2895	0.7009	0.79753	0.261
Mof_C 	C 	0.263	0.7424	0.79603	-0.28
Mof_C 	C 	0.2789	0.7899	0.82693	0.317
Mof_C 	C 	0.3213	0.7959	0.85933	-0.326
Mof_C 	C 	0.3477	0.7543	0.86083	0.325
Mof_C 	C 	0.2602	0.6429	0.76783	-0.737
Mof_C 	C 	0.2531	0.8384	0.82603	-0.789
Mof_C 	C 	0.3949	0.7618	0.89283	-0.853
Mof_C 	C 	0.22204	0.7354	0.76039	0.198
Mof_C 	C 	0.15697	0.7156	0.76292	-0.24
Mof_C 	C 	0.1251	0.7213	0.72923	0.106
Mof_C 	C 	0.2232	0.7664	0.69048	0.107
Mof_C 	C 	0.2551	0.7608	0.72417	-0.233
Mof_C 	C 	0.33958	0.8464	0.888	0.252
Mof_C 	C 	0.29291	0.8406	0.91528	-0.268
Mof_C 	C 	0.3092	0.884	0.94714	0.126
Mof_C 	C 	0.4189	0.939	0.92445	0.119
Mof_C 	C 	0.40259	0.8956	0.89258	-0.27
Mof_C 	C 	0.32763	0.45066	0.94065	0.125
Mof_C 	C 	0.22856	0.41092	0.90535	0.129
Mof_C 	C 	0.25689	0.46171	0.87876	-0.266
Mof_C 	C 	0.32058	0.50698	0.88312	0.219
Mof_C 	C 	0.35596	0.50145	0.91407	-0.262
Mof_C 	C 	0.07015	0.8077	0.57373	0.13
Mof_C 	C 	0.05927	0.8449	0.54741	-0.247
Mof_C 	C 	0.08383	0.9084	0.55526	0.177
Mof_C 	C 	0.11937	0.9348	0.58941	-0.232
Mof_C 	C 	0.13035	0.8977	0.61573	0.125
Mof_C 	C 	0.7145	0.8597	0.39521	0.063
Mof_C 	C 	0.7572	0.8807	0.42952	-0.179
Mof_C 	C 	0.8085	0.946	0.43191	0.149
Mof_C 	C 	0.8171	0.9904	0.39999	-0.174
Mof_C 	C 	0.7744	0.9694	0.36569	0.058
Mof_C 	C 	0.8497	0.9713	0.47003	-0.278
Mof_C 	C 	0.9031	0.9684	0.46853	0.316
Mof_C 	C 	0.9218	0.9395	0.43343	-0.817
Mof_C 	C 	0.0815	0.9624	0.52293	-0.234
Mof_C 	C 	0.0196	0.9548	0.52313	0.21
Mof_C 	C 	0.964	0.9052	0.55253	-0.676
Mof_C 	C 	0.3951	0.842	0.06097	-0.179
Mof_C 	C 	0.3934	0.8827	0.02943	0.044
Mof_C 	C 	0.3441	0.9252	0.07798	0.059
Mof_C 	C 	0.3458	0.8846	0.10952	-0.18
Mof_C 	C 	0.3713	0.843	0.10102	0.148
Mof_C 	C 	0.374	0.8013	0.13538	-0.289
Mof_C 	C 	0.4273	0.8265	0.16029	0.297
Mof_C 	C 	0.4359	0.787	0.18687	-0.293
Mof_C 	C 	0.3913	0.7225	0.18858	0.263
Mof_C 	C 	0.338	0.6973	0.16367	-0.191
Mof_C 	C 	0.3294	0.7368	0.13706	0.307
Mof_C 	C 	0.4813	0.9019	0.15387	-0.723
Mof_C 	C 	0.3985	0.6776	0.22227	-0.71
Mof_C 	C 	0.2699	0.7044	0.10987	-0.788
Mof_C 	C 	0.2932	0.6251	0.16317	-0.175
Mof_C 	C 	0.2991	0.5886	0.13087	0.26
Mof_C 	C 	0.2576	0.5206	0.12937	-0.279
Mof_C 	C 	0.2101	0.489	0.16027	0.316
Mof_C 	C 	0.2041	0.5254	0.19267	-0.325
Mof_C 	C 	0.2457	0.5934	0.19417	0.324
Mof_C 	C 	0.3571	0.6173	0.10117	-0.735
Mof_C 	C 	0.1616	0.4147	0.15937	-0.787
Mof_C 	C 	0.2382	0.6331	0.22617	-0.85
Mof_C 	C 	0.2646	0.48664	0.09373	0.195
Mof_C 	C 	0.2844	0.44137	0.09626	-0.238
Mof_C 	C 	0.2787	0.4038	0.06257	0.105
Mof_C 	C 	0.2336	0.4568	0.02382	0.098
Mof_C 	C 	0.2392	0.4943	0.05751	-0.228
Mof_C 	C 	0.1536	0.49318	0.22134	0.252
Mof_C 	C 	0.1594	0.45231	0.24862	-0.268
Mof_C 	C 	0.116	0.4252	0.28048	0.125
Mof_C 	C 	0.061	0.4799	0.25779	0.119
Mof_C 	C 	0.1044	0.50699	0.22592	-0.27
Mof_C 	C 	0.54934	0.87697	0.27399	0.125
Mof_C 	C 	0.58908	0.81764	0.23869	0.129
Mof_C 	C 	0.53829	0.79518	0.2121	-0.265
Mof_C 	C 	0.49302	0.8136	0.21646	0.218
Mof_C 	C 	0.49855	0.85451	0.24741	-0.262
Mof_C 	C 	0.1923	0.26245	0.90707	0.13
Mof_C 	C 	0.1551	0.21437	0.88075	-0.247
Mof_C 	C 	0.0916	0.17543	0.8886	0.178
Mof_C 	C 	0.0652	0.18457	0.92275	-0.232
Mof_C 	C 	0.1023	0.23265	0.94907	0.125
Mof_C 	C 	0.1403	0.8548	0.72855	0.064
Mof_C 	C 	0.1193	0.8765	0.76286	-0.18
Mof_C 	C 	0.054	0.8625	0.76525	0.15
Mof_C 	C 	0.0096	0.8267	0.73333	-0.178
Mof_C 	C 	0.0306	0.805	0.69903	0.059
Mof_C 	C 	0.0287	0.8784	0.80337	-0.279
Mof_C 	C 	0.0316	0.9347	0.80187	0.314
Mof_C 	C 	0.0605	0.9823	0.76677	-0.811
Mof_C 	C 	0.0376	0.1191	0.85627	-0.235
Mof_C 	C 	0.0452	0.0648	0.85647	0.21
Mof_C 	C 	0.0948	0.0588	0.88587	-0.677
Mof_C 	C 	3.056e-17	0.833	0.83333	0.236
Mof_C 	C 	3.056e-17	0.7673	0.83333	-0.327
Mof_C 	C 	-1.18851e-17	0.1303	0.83333	0.248
Mof_C 	C 	-1.18851e-17	0.192	0.83333	-0.348
Mof_C 	C 	4.94726e-19	0.0115	0.83333	-0.129
Mof_C 	C 	8.71535e-17	0.951	0.83333	-0.188
Mof_C 	C 	0.833	0	0.5	0.236
Mof_C 	C 	0.7673	0	0.5	-0.327
Mof_C 	C 	0.1303	0	0.5	0.248
Mof_C 	C 	0.192	0	0.5	-0.347
Mof_C 	C 	0.0115	0	0.5	-0.129
Mof_C 	C 	0.951	0	0.5	-0.187
Mof_C 	C 	0.167	0.167	0.16667	0.238
Mof_C 	C 	0.2327	0.2327	0.16667	-0.326
Mof_C 	C 	0.8697	0.8697	0.16667	0.248
Mof_C 	C 	0.808	0.808	0.16667	-0.345
Mof_C 	C 	0.9885	0.9885	0.16667	-0.124
Mof_C 	C 	0.049	0.049	0.16667	-0.193
Mof_N 	N 	0.6321	0.5563	0.62874	-0.222
Mof_N 	N 	0.7467	0.1582	0.64032	-0.228
Mof_N 	N 	0.9331	0.3722	0.3816	-0.238
Mof_N 	N 	0.40539	0.26393	0.39704	-0.234
Mof_N 	N 	0.8341	0.10569	0.72544	-0.236
Mof_N 	N 	0.9041	0.7231	0.97003	-0.212
Mof_N 	N 	0.9242	0.3679	0.29541	-0.222
Mof_N 	N 	0.4115	0.2533	0.30699	-0.228
Mof_N 	N 	0.4391	0.0669	0.04827	-0.238
Mof_N 	N 	0.85854	0.59461	0.06371	-0.234
Mof_N 	N 	0.27159	0.1659	0.39211	-0.236
Mof_N 	N 	0.819	0.0959	0.6367	-0.213
Mof_N 	N 	0.4437	0.0758	0.96207	-0.221
Mof_N 	N 	0.8418	0.5885	0.97365	-0.228
Mof_N 	N 	0.6278	0.5609	0.71493	-0.238
Mof_N 	N 	0.73607	0.14146	0.73037	-0.234
Mof_N 	N 	0.89431	0.72841	0.05877	-0.236
Mof_N 	N 	0.2769	0.181	0.30336	-0.213
Mof_N 	N 	0.0758	0.4437	0.37126	-0.222
Mof_N 	N 	0.5885	0.8418	0.35968	-0.228
Mof_N 	N 	0.5609	0.6278	0.6184	-0.238
Mof_N 	N 	0.14146	0.73607	0.60296	-0.234
Mof_N 	N 	0.72841	0.89431	0.27456	-0.236
Mof_N 	N 	0.181	0.2769	0.02997	-0.214
Mof_N 	N 	0.5563	0.6321	0.70459	-0.222
Mof_N 	N 	0.1582	0.7467	0.69301	-0.228
Mof_N 	N 	0.3722	0.9331	0.95173	-0.237
Mof_N 	N 	0.26393	0.40539	0.93629	-0.234
Mof_N 	N 	0.10569	0.8341	0.60789	-0.236
Mof_N 	N 	0.7231	0.9041	0.3633	-0.213
Mof_N 	N 	0.3679	0.9242	0.03793	-0.222
Mof_N 	N 	0.2533	0.4115	0.02635	-0.227
Mof_N 	N 	0.0669	0.4391	0.28507	-0.238
Mof_N 	N 	0.59461	0.85854	0.26963	-0.234
Mof_N 	N 	0.1659	0.27159	0.94123	-0.235
Mof_N 	N 	0.0959	0.819	0.69664	-0.213
Mof_O 	O 	0.693	0.021	0.6801	-0.266
Mof_O 	O 	0.8678	0.2126	0.6821	-0.258
Mof_O 	O 	0.328	0.307	0.34677	-0.266
Mof_O 	O 	0.3448	0.1322	0.34877	-0.258
Mof_O 	O 	0.979	0.672	0.01343	-0.267
Mof_O 	O 	0.7874	0.6552	0.01543	-0.26
Mof_O 	O 	0.672	0.979	0.3199	-0.266
Mof_O 	O 	0.6552	0.7874	0.3179	-0.258
Mof_O 	O 	0.021	0.693	0.65323	-0.266
Mof_O 	O 	0.2126	0.8678	0.65123	-0.258
Mof_O 	O 	0.307	0.328	0.98657	-0.264
Mof_O 	O 	0.1322	0.3448	0.98457	-0.257
Mof_O 	O 	0.6916	0.6916	0.66667	-0.268
Mof_O 	O 	9.05643e-19	0.3084	0.33333	-0.268
Mof_O 	O 	0.3084	0	-0	-0.27
_end
