data_functionalizedCrystal
_audit_creation_method	'EQeq! by Chris Wilmer'
_symmetry_space_group_name_H-M	'P1'
_symmetry_Int_Tables_number	1
_symmetry_cell_setting	triclinic
loop_
_symmetry_equiv_pos_as_xyz
  x,y,z
_cell_length_a	29.3026
_cell_length_b	29.3026
_cell_length_c	29.3847
_cell_angle_alpha	60.0923
_cell_angle_beta	60.0923
_cell_angle_gamma	89.9999
loop_
_atom_site_label
_atom_site_type_symbol
_atom_site_fract_x
_atom_site_fract_y
_atom_site_fract_z
_atom_site_charge
Mof_Zn	Zn	0.00947	0.74402	0.26718	1.194
Mof_Zn	Zn	0.64498	0.61847	0.3684	1.2
Mof_Zn	Zn	0.72335	0.9888	0.26718	1.199
Mof_Zn	Zn	0.98662	0.01313	0.3684	1.198
Mof_Zn	Zn	0.74402	0.72335	0.26718	1.198
Mof_Zn	Zn	0.61847	0.98662	0.3684	1.201
Mof_Zn	Zn	0.9888	0.00947	0.26718	1.195
Mof_Zn	Zn	0.01313	0.64498	0.3684	1.198
Mof_Zn	Zn	0.99053	0.25598	0.73282	1.206
Mof_Zn	Zn	0.35502	0.38153	0.6316	1.201
Mof_Zn	Zn	0.27665	0.0112	0.73282	1.202
Mof_Zn	Zn	0.01338	0.98687	0.6316	1.201
Mof_Zn	Zn	0.25598	0.27665	0.73282	1.203
Mof_Zn	Zn	0.38153	0.01338	0.6316	1.199
Mof_Zn	Zn	0.0112	0.99053	0.73282	1.204
Mof_Zn	Zn	0.98687	0.35502	0.6316	1.203
Mof_Zn	Zn	0.26529	0.02006	-0	1.166
Mof_Zn	Zn	0.63265	0.97455	-0	1.169
Mof_Zn	Zn	0.73471	0.97994	-0	1.171
Mof_Zn	Zn	0.36735	0.02545	-0	1.165
Mof_Zn	Zn	0.02006	0.73471	-0	1.166
Mof_Zn	Zn	0.97455	0.36735	-0	1.169
Mof_Zn	Zn	0.97994	0.26529	-0	1.17
Mof_Zn	Zn	0.02545	0.63265	-0	1.165
Mof_H 	H 	0.18	0.85	0.1504	0.031
Mof_H 	H 	0.3223	0.8481	0.1412	0.061
Mof_H 	H 	0.1877	0.704	0.2682	0.062
Mof_H 	H 	0.2599	0.6688	0.262	0.054
Mof_H 	H 	0.2352	0.681	0.3158	0.058
Mof_H 	H 	0.6823	0.8068	0.1574	0.03
Mof_H 	H 	0.5503	0.6654	0.2836	0.075
Mof_H 	H 	0.5544	0.8009	0.1402	0.058
Mof_H 	H 	0.4807	0.7394	0.1732	0.044
Mof_H 	H 	0.46	0.7567	0.2226	0.055
Mof_H 	H 	0.1572	0.3261	0.6552	0.041
Mof_H 	H 	0.1658	0.4494	0.505	0.074
Mof_H 	H 	0.2973	0.4588	0.5148	0.068
Mof_H 	H 	0.2574	0.593	0.3704	0.123
Mof_H 	H 	0.3423	0.5235	0.3966	0.058
Mof_H 	H 	0.3189	0.5458	0.4412	0.057
Mof_H 	H 	0.3776	0.7396	0.2126	0.112
Mof_H 	H 	0.4119	0.623	0.3266	0.126
Mof_H 	H 	0.6696	0.9996	0.1504	0.047
Mof_H 	H 	0.5365	0.0107	0.1412	0.059
Mof_H 	H 	0.5441	0.0278	0.2682	0.065
Mof_H 	H 	0.4781	0.0692	0.262	0.053
Mof_H 	H 	0.449	0.0032	0.3158	0.056
Mof_H 	H 	0.1603	0.0358	0.1574	0.026
Mof_H 	H 	0.1661	0.051	0.2836	0.073
Mof_H 	H 	0.3054	0.0589	0.1402	0.056
Mof_H 	H 	0.3461	0.0874	0.1732	0.043
Mof_H 	H 	0.3174	0.0207	0.2226	0.053
Mof_H 	H 	0.1876	0.0187	0.6552	0.041
Mof_H 	H 	0.3292	0.0456	0.505	0.074
Mof_H 	H 	0.1879	0.0264	0.5148	0.067
Mof_H 	H 	0.3722	0.0366	0.3704	0.122
Mof_H 	H 	0.2611	0.0799	0.3966	0.057
Mof_H 	H 	0.2399	0.013	0.4412	0.055
Mof_H 	H 	0.4098	0.0478	0.2126	0.11
Mof_H 	H 	0.2615	0.0504	0.3266	0.124
Mof_H 	H 	0.85	0.6696	0.1504	0.033
Mof_H 	H 	0.8481	0.5365	0.1412	0.062
Mof_H 	H 	0.704	0.5441	0.2682	0.063
Mof_H 	H 	0.6688	0.4781	0.262	0.054
Mof_H 	H 	0.681	0.449	0.3158	0.058
Mof_H 	H 	0.8068	0.1603	0.1574	0.028
Mof_H 	H 	0.6654	0.1661	0.2836	0.074
Mof_H 	H 	0.8009	0.3054	0.1402	0.057
Mof_H 	H 	0.7394	0.3461	0.1732	0.044
Mof_H 	H 	0.7567	0.3174	0.2226	0.055
Mof_H 	H 	0.3261	0.1876	0.6552	0.042
Mof_H 	H 	0.4494	0.3292	0.505	0.075
Mof_H 	H 	0.4588	0.1879	0.5148	0.067
Mof_H 	H 	0.593	0.3722	0.3704	0.124
Mof_H 	H 	0.5235	0.2611	0.3966	0.057
Mof_H 	H 	0.5458	0.2399	0.4412	0.057
Mof_H 	H 	0.7396	0.4098	0.2126	0.112
Mof_H 	H 	0.623	0.2615	0.3266	0.125
Mof_H 	H 	0.9996	0.18	0.1504	0.043
Mof_H 	H 	0.0107	0.3223	0.1412	0.058
Mof_H 	H 	0.0278	0.1877	0.2682	0.064
Mof_H 	H 	0.0692	0.2599	0.262	0.053
Mof_H 	H 	0.0032	0.2352	0.3158	0.056
Mof_H 	H 	0.0358	0.6823	0.1574	0.028
Mof_H 	H 	0.051	0.5503	0.2836	0.074
Mof_H 	H 	0.0589	0.5544	0.1402	0.056
Mof_H 	H 	0.0874	0.4807	0.1732	0.043
Mof_H 	H 	0.0207	0.46	0.2226	0.053
Mof_H 	H 	0.0187	0.1572	0.6552	0.04
Mof_H 	H 	0.0456	0.1658	0.505	0.074
Mof_H 	H 	0.0264	0.2973	0.5148	0.067
Mof_H 	H 	0.0366	0.2574	0.3704	0.122
Mof_H 	H 	0.0799	0.3423	0.3966	0.057
Mof_H 	H 	0.013	0.3189	0.4412	0.056
Mof_H 	H 	0.0478	0.3776	0.2126	0.11
Mof_H 	H 	0.0504	0.4119	0.3266	0.124
Mof_H 	H 	0.82	0.15	0.8496	0.054
Mof_H 	H 	0.6777	0.1519	0.8588	0.086
Mof_H 	H 	0.8123	0.296	0.7318	0.07
Mof_H 	H 	0.7401	0.3312	0.738	0.072
Mof_H 	H 	0.7648	0.319	0.6842	0.064
Mof_H 	H 	0.3177	0.1932	0.8426	0.053
Mof_H 	H 	0.4497	0.3346	0.7164	0.083
Mof_H 	H 	0.4456	0.1991	0.8598	0.082
Mof_H 	H 	0.5193	0.2606	0.8268	0.077
Mof_H 	H 	0.54	0.2433	0.7774	0.068
Mof_H 	H 	0.8428	0.6739	0.3448	0.037
Mof_H 	H 	0.8342	0.5506	0.495	0.077
Mof_H 	H 	0.7027	0.5412	0.4852	0.068
Mof_H 	H 	0.7426	0.407	0.6296	0.134
Mof_H 	H 	0.6577	0.4765	0.6034	0.069
Mof_H 	H 	0.6811	0.4542	0.5588	0.062
Mof_H 	H 	0.6224	0.2604	0.7874	0.135
Mof_H 	H 	0.5881	0.377	0.6734	0.138
Mof_H 	H 	0.3304	0.0004	0.8496	0.043
Mof_H 	H 	0.4635	0.9893	0.8588	0.088
Mof_H 	H 	0.4559	0.9722	0.7318	0.069
Mof_H 	H 	0.5219	0.9308	0.738	0.073
Mof_H 	H 	0.551	0.9968	0.6842	0.066
Mof_H 	H 	0.8397	0.9642	0.8426	0.056
Mof_H 	H 	0.8339	0.949	0.7164	0.085
Mof_H 	H 	0.6946	0.9411	0.8598	0.084
Mof_H 	H 	0.6539	0.9126	0.8268	0.078
Mof_H 	H 	0.6826	0.9793	0.7774	0.071
Mof_H 	H 	0.8124	0.9813	0.3448	0.039
Mof_H 	H 	0.6708	0.9544	0.495	0.078
Mof_H 	H 	0.8121	0.9736	0.4852	0.07
Mof_H 	H 	0.6278	0.9634	0.6296	0.136
Mof_H 	H 	0.7389	0.9201	0.6034	0.07
Mof_H 	H 	0.7601	0.987	0.5588	0.065
Mof_H 	H 	0.5902	0.9522	0.7874	0.137
Mof_H 	H 	0.7385	0.9496	0.6734	0.14
Mof_H 	H 	0.15	0.3304	0.8496	0.053
Mof_H 	H 	0.1519	0.4635	0.8588	0.086
Mof_H 	H 	0.296	0.4559	0.7318	0.07
Mof_H 	H 	0.3312	0.5219	0.738	0.072
Mof_H 	H 	0.319	0.551	0.6842	0.063
Mof_H 	H 	0.1932	0.8397	0.8426	0.054
Mof_H 	H 	0.3346	0.8339	0.7164	0.084
Mof_H 	H 	0.1991	0.6946	0.8598	0.083
Mof_H 	H 	0.2606	0.6539	0.8268	0.077
Mof_H 	H 	0.2433	0.6826	0.7774	0.068
Mof_H 	H 	0.6739	0.8124	0.3448	0.037
Mof_H 	H 	0.5506	0.6708	0.495	0.076
Mof_H 	H 	0.5412	0.8121	0.4852	0.068
Mof_H 	H 	0.407	0.6278	0.6296	0.134
Mof_H 	H 	0.4765	0.7389	0.6034	0.069
Mof_H 	H 	0.4542	0.7601	0.5588	0.062
Mof_H 	H 	0.2604	0.5902	0.7874	0.135
Mof_H 	H 	0.377	0.7385	0.6734	0.138
Mof_H 	H 	0.0004	0.82	0.8496	0.041
Mof_H 	H 	0.9893	0.6777	0.8588	0.088
Mof_H 	H 	0.9722	0.8123	0.7318	0.069
Mof_H 	H 	0.9308	0.7401	0.738	0.074
Mof_H 	H 	0.9968	0.7648	0.6842	0.067
Mof_H 	H 	0.9642	0.3177	0.8426	0.054
Mof_H 	H 	0.949	0.4497	0.7164	0.084
Mof_H 	H 	0.9411	0.4456	0.8598	0.083
Mof_H 	H 	0.9126	0.5193	0.8268	0.078
Mof_H 	H 	0.9793	0.54	0.7774	0.071
Mof_H 	H 	0.9813	0.8428	0.3448	0.039
Mof_H 	H 	0.9544	0.8342	0.495	0.079
Mof_H 	H 	0.9736	0.7027	0.4852	0.07
Mof_H 	H 	0.9634	0.7426	0.6296	0.136
Mof_H 	H 	0.9201	0.6577	0.6034	0.07
Mof_H 	H 	0.987	0.6811	0.5588	0.064
Mof_H 	H 	0.9522	0.6224	0.7874	0.137
Mof_H 	H 	0.9496	0.5881	0.6734	0.14
Mof_C 	C 	0.1136	0.7467	0.2528	0.393
Mof_C 	C 	0.1742	0.7745	0.2186	-0.087
Mof_C 	C 	0.2001	0.8306	0.1666	0.027
Mof_C 	C 	0.2556	0.8588	0.138	-0.103
Mof_C 	C 	0.2801	0.919	0.0876	0.397
Mof_C 	C 	0.2844	0.8303	0.1606	-0.058
Mof_C 	C 	0.2565	0.7733	0.214	0.119
Mof_C 	C 	0.2028	0.7435	0.239	-0.07
Mof_C 	C 	0.2697	0.689	0.2764	-0.087
Mof_C 	C 	0.6467	0.8723	0.0908	0.393
Mof_C 	C 	0.6223	0.8137	0.1418	-0.107
Mof_C 	C 	0.6465	0.7873	0.1728	0.034
Mof_C 	C 	0.6197	0.7329	0.2258	-0.085
Mof_C 	C 	0.6455	0.706	0.26	0.372
Mof_C 	C 	0.5684	0.7032	0.2476	-0.078
Mof_C 	C 	0.544	0.7296	0.2158	0.14
Mof_C 	C 	0.5707	0.7837	0.1628	-0.078
Mof_C 	C 	0.4625	0.7249	0.2188	-0.08
Mof_C 	C 	0.257	0.3643	0.625	0.378
Mof_C 	C 	0.2294	0.3888	0.5926	-0.082
Mof_C 	C 	0.1764	0.3627	0.6168	0.032
Mof_C 	C 	0.1501	0.3859	0.5892	-0.084
Mof_C 	C 	0.0913	0.3576	0.6168	0.406
Mof_C 	C 	0.1814	0.4345	0.5288	-0.073
Mof_C 	C 	0.2354	0.4621	0.5018	0.134
Mof_C 	C 	0.26	0.4398	0.5332	-0.081
Mof_C 	C 	0.3351	0.6012	0.352	0.185
Mof_C 	C 	0.2949	0.6174	0.342	-0.242
Mof_C 	C 	0.3166	0.5431	0.41	-0.088
Mof_C 	C 	0.3666	0.7031	0.2486	-0.226
Mof_C 	C 	0.4049	0.6839	0.2596	0.172
Mof_C 	C 	0.3869	0.6341	0.3148	-0.251
Mof_C 	C 	0.3105	0.6684	0.2914	0.17
Mof_C 	C 	0.6336	0.0005	0.2528	0.361
Mof_C 	C 	0.6072	0.0069	0.2186	-0.071
Mof_C 	C 	0.6333	0.0028	0.1666	0.001
Mof_C 	C 	0.6064	0.0032	0.138	-0.105
Mof_C 	C 	0.6323	0.9934	0.0876	0.405
Mof_C 	C 	0.555	0.0091	0.1606	-0.06
Mof_C 	C 	0.5295	0.0127	0.214	0.123
Mof_C 	C 	0.5582	0.0175	0.239	-0.081
Mof_C 	C 	0.4539	0.0346	0.2764	-0.084
Mof_C 	C 	0.2625	0.0369	0.0908	0.394
Mof_C 	C 	0.2359	0.0445	0.1418	-0.111
Mof_C 	C 	0.1807	0.0399	0.1728	0.036
Mof_C 	C 	0.1545	0.0413	0.2258	-0.089
Mof_C 	C 	0.0945	0.034	0.26	0.373
Mof_C 	C 	0.184	0.0492	0.2476	-0.077
Mof_C 	C 	0.2402	0.0546	0.2158	0.138
Mof_C 	C 	0.2665	0.0535	0.1628	-0.077
Mof_C 	C 	0.3187	0.0563	0.2188	-0.078
Mof_C 	C 	0.118	0.0107	0.625	0.378
Mof_C 	C 	0.178	0.0186	0.5926	-0.083
Mof_C 	C 	0.2068	0.0205	0.6168	0.032
Mof_C 	C 	0.2607	0.0249	0.5892	-0.085
Mof_C 	C 	0.2919	0.0256	0.6168	0.406
Mof_C 	C 	0.2898	0.0367	0.5288	-0.073
Mof_C 	C 	0.2628	0.0361	0.5018	0.133
Mof_C 	C 	0.2068	0.027	0.5332	-0.081
Mof_C 	C 	0.3129	0.0468	0.352	0.182
Mof_C 	C 	0.3631	0.0406	0.342	-0.239
Mof_C 	C 	0.2734	0.0469	0.41	-0.086
Mof_C 	C 	0.3848	0.0483	0.2486	-0.224
Mof_C 	C 	0.3355	0.0565	0.2596	0.169
Mof_C 	C 	0.2983	0.0511	0.3148	-0.249
Mof_C 	C 	0.3981	0.0402	0.2914	0.167
Mof_C 	C 	0.7467	0.6336	0.2528	0.392
Mof_C 	C 	0.7745	0.6072	0.2186	-0.086
Mof_C 	C 	0.8306	0.6333	0.1666	0.026
Mof_C 	C 	0.8588	0.6064	0.138	-0.102
Mof_C 	C 	0.919	0.6323	0.0876	0.396
Mof_C 	C 	0.8303	0.555	0.1606	-0.058
Mof_C 	C 	0.7733	0.5295	0.214	0.12
Mof_C 	C 	0.7435	0.5582	0.239	-0.071
Mof_C 	C 	0.689	0.4539	0.2764	-0.087
Mof_C 	C 	0.8723	0.2625	0.0908	0.394
Mof_C 	C 	0.8137	0.2359	0.1418	-0.109
Mof_C 	C 	0.7873	0.1807	0.1728	0.035
Mof_C 	C 	0.7329	0.1545	0.2258	-0.088
Mof_C 	C 	0.706	0.0945	0.26	0.373
Mof_C 	C 	0.7032	0.184	0.2476	-0.078
Mof_C 	C 	0.7296	0.2402	0.2158	0.139
Mof_C 	C 	0.7837	0.2665	0.1628	-0.077
Mof_C 	C 	0.7249	0.3187	0.2188	-0.08
Mof_C 	C 	0.3643	0.118	0.625	0.378
Mof_C 	C 	0.3888	0.178	0.5926	-0.082
Mof_C 	C 	0.3627	0.2068	0.6168	0.031
Mof_C 	C 	0.3859	0.2607	0.5892	-0.083
Mof_C 	C 	0.3576	0.2919	0.6168	0.405
Mof_C 	C 	0.4345	0.2898	0.5288	-0.074
Mof_C 	C 	0.4621	0.2628	0.5018	0.134
Mof_C 	C 	0.4398	0.2068	0.5332	-0.081
Mof_C 	C 	0.6012	0.3129	0.352	0.185
Mof_C 	C 	0.6174	0.3631	0.342	-0.242
Mof_C 	C 	0.5431	0.2734	0.41	-0.088
Mof_C 	C 	0.7031	0.3848	0.2486	-0.226
Mof_C 	C 	0.6839	0.3355	0.2596	0.172
Mof_C 	C 	0.6341	0.2983	0.3148	-0.251
Mof_C 	C 	0.6684	0.3981	0.2914	0.17
Mof_C 	C 	0.0005	0.1136	0.2528	0.368
Mof_C 	C 	0.0069	0.1742	0.2186	-0.076
Mof_C 	C 	0.0028	0.2001	0.1666	0.007
Mof_C 	C 	0.0032	0.2556	0.138	-0.107
Mof_C 	C 	0.9934	0.2801	0.0876	0.404
Mof_C 	C 	0.0091	0.2844	0.1606	-0.059
Mof_C 	C 	0.0127	0.2565	0.214	0.121
Mof_C 	C 	0.0175	0.2028	0.239	-0.078
Mof_C 	C 	0.0346	0.2697	0.2764	-0.084
Mof_C 	C 	0.0369	0.6467	0.0908	0.394
Mof_C 	C 	0.0445	0.6223	0.1418	-0.11
Mof_C 	C 	0.0399	0.6465	0.1728	0.035
Mof_C 	C 	0.0413	0.6197	0.2258	-0.087
Mof_C 	C 	0.034	0.6455	0.26	0.373
Mof_C 	C 	0.0492	0.5684	0.2476	-0.078
Mof_C 	C 	0.0546	0.544	0.2158	0.139
Mof_C 	C 	0.0535	0.5707	0.1628	-0.078
Mof_C 	C 	0.0563	0.4625	0.2188	-0.078
Mof_C 	C 	0.0107	0.257	0.625	0.379
Mof_C 	C 	0.0186	0.2294	0.5926	-0.084
Mof_C 	C 	0.0205	0.1764	0.6168	0.032
Mof_C 	C 	0.0249	0.1501	0.5892	-0.086
Mof_C 	C 	0.0256	0.0913	0.6168	0.406
Mof_C 	C 	0.0367	0.1814	0.5288	-0.073
Mof_C 	C 	0.0361	0.2354	0.5018	0.133
Mof_C 	C 	0.027	0.26	0.5332	-0.08
Mof_C 	C 	0.0468	0.3351	0.352	0.183
Mof_C 	C 	0.0406	0.2949	0.342	-0.239
Mof_C 	C 	0.0469	0.3166	0.41	-0.086
Mof_C 	C 	0.0483	0.3666	0.2486	-0.224
Mof_C 	C 	0.0565	0.4049	0.2596	0.17
Mof_C 	C 	0.0511	0.3869	0.3148	-0.249
Mof_C 	C 	0.0402	0.3105	0.2914	0.167
Mof_C 	C 	0.8864	0.2533	0.7472	0.389
Mof_C 	C 	0.8258	0.2255	0.7814	-0.067
Mof_C 	C 	0.7999	0.1694	0.8334	0.016
Mof_C 	C 	0.7444	0.1412	0.862	-0.066
Mof_C 	C 	0.7199	0.081	0.9124	0.382
Mof_C 	C 	0.7156	0.1697	0.8394	-0.066
Mof_C 	C 	0.7435	0.2267	0.786	0.134
Mof_C 	C 	0.7972	0.2565	0.761	-0.075
Mof_C 	C 	0.7303	0.311	0.7236	-0.105
Mof_C 	C 	0.3533	0.1277	0.9092	0.375
Mof_C 	C 	0.3777	0.1863	0.8582	-0.066
Mof_C 	C 	0.3535	0.2127	0.8272	0.018
Mof_C 	C 	0.3803	0.2671	0.7742	-0.064
Mof_C 	C 	0.3545	0.294	0.74	0.369
Mof_C 	C 	0.4316	0.2968	0.7524	-0.086
Mof_C 	C 	0.456	0.2704	0.7842	0.157
Mof_C 	C 	0.4293	0.2163	0.8372	-0.09
Mof_C 	C 	0.5375	0.2751	0.7812	-0.108
Mof_C 	C 	0.743	0.6357	0.375	0.381
Mof_C 	C 	0.7706	0.6112	0.4074	-0.084
Mof_C 	C 	0.8236	0.6373	0.3832	0.035
Mof_C 	C 	0.8499	0.6141	0.4108	-0.084
Mof_C 	C 	0.9087	0.6424	0.3832	0.407
Mof_C 	C 	0.8186	0.5655	0.4712	-0.071
Mof_C 	C 	0.7646	0.5379	0.4982	0.133
Mof_C 	C 	0.74	0.5602	0.4668	-0.078
Mof_C 	C 	0.6649	0.3988	0.648	0.212
Mof_C 	C 	0.7051	0.3826	0.658	-0.262
Mof_C 	C 	0.6834	0.4569	0.59	-0.103
Mof_C 	C 	0.6334	0.2969	0.7514	-0.248
Mof_C 	C 	0.5951	0.3161	0.7404	0.209
Mof_C 	C 	0.6131	0.3659	0.6852	-0.276
Mof_C 	C 	0.6895	0.3316	0.7086	0.199
Mof_C 	C 	0.3664	0.9995	0.7472	0.414
Mof_C 	C 	0.3928	0.9931	0.7814	-0.079
Mof_C 	C 	0.3667	0.9972	0.8334	0.035
Mof_C 	C 	0.3936	0.9968	0.862	-0.063
Mof_C 	C 	0.3677	0.0066	0.9124	0.376
Mof_C 	C 	0.445	0.9909	0.8394	-0.064
Mof_C 	C 	0.4705	0.9873	0.786	0.132
Mof_C 	C 	0.4418	0.9825	0.761	-0.066
Mof_C 	C 	0.5461	0.9654	0.7236	-0.108
Mof_C 	C 	0.7375	0.9631	0.9092	0.374
Mof_C 	C 	0.7641	0.9555	0.8582	-0.063
Mof_C 	C 	0.8193	0.9601	0.8272	0.017
Mof_C 	C 	0.8455	0.9587	0.7742	-0.059
Mof_C 	C 	0.9055	0.966	0.74	0.367
Mof_C 	C 	0.816	0.9508	0.7524	-0.087
Mof_C 	C 	0.7598	0.9454	0.7842	0.16
Mof_C 	C 	0.7335	0.9465	0.8372	-0.091
Mof_C 	C 	0.6813	0.9437	0.7812	-0.11
Mof_C 	C 	0.882	0.9893	0.375	0.38
Mof_C 	C 	0.822	0.9814	0.4074	-0.081
Mof_C 	C 	0.7932	0.9795	0.3832	0.034
Mof_C 	C 	0.7393	0.9751	0.4108	-0.083
Mof_C 	C 	0.7081	0.9744	0.3832	0.407
Mof_C 	C 	0.7102	0.9633	0.4712	-0.071
Mof_C 	C 	0.7372	0.9639	0.4982	0.135
Mof_C 	C 	0.7932	0.973	0.4668	-0.078
Mof_C 	C 	0.6871	0.9532	0.648	0.216
Mof_C 	C 	0.6369	0.9594	0.658	-0.265
Mof_C 	C 	0.7266	0.9531	0.59	-0.106
Mof_C 	C 	0.6152	0.9517	0.7514	-0.25
Mof_C 	C 	0.6645	0.9435	0.7404	0.213
Mof_C 	C 	0.7017	0.9489	0.6852	-0.279
Mof_C 	C 	0.6019	0.9598	0.7086	0.202
Mof_C 	C 	0.2533	0.3664	0.7472	0.389
Mof_C 	C 	0.2255	0.3928	0.7814	-0.067
Mof_C 	C 	0.1694	0.3667	0.8334	0.016
Mof_C 	C 	0.1412	0.3936	0.862	-0.066
Mof_C 	C 	0.081	0.3677	0.9124	0.382
Mof_C 	C 	0.1697	0.445	0.8394	-0.066
Mof_C 	C 	0.2267	0.4705	0.786	0.133
Mof_C 	C 	0.2565	0.4418	0.761	-0.074
Mof_C 	C 	0.311	0.5461	0.7236	-0.105
Mof_C 	C 	0.1277	0.7375	0.9092	0.374
Mof_C 	C 	0.1863	0.7641	0.8582	-0.065
Mof_C 	C 	0.2127	0.8193	0.8272	0.017
Mof_C 	C 	0.2671	0.8455	0.7742	-0.062
Mof_C 	C 	0.294	0.9055	0.74	0.368
Mof_C 	C 	0.2968	0.816	0.7524	-0.086
Mof_C 	C 	0.2704	0.7598	0.7842	0.158
Mof_C 	C 	0.2163	0.7335	0.8372	-0.091
Mof_C 	C 	0.2751	0.6813	0.7812	-0.108
Mof_C 	C 	0.6357	0.882	0.375	0.381
Mof_C 	C 	0.6112	0.822	0.4074	-0.084
Mof_C 	C 	0.6373	0.7932	0.3832	0.035
Mof_C 	C 	0.6141	0.7393	0.4108	-0.086
Mof_C 	C 	0.6424	0.7081	0.3832	0.408
Mof_C 	C 	0.5655	0.7102	0.4712	-0.07
Mof_C 	C 	0.5379	0.7372	0.4982	0.133
Mof_C 	C 	0.5602	0.7932	0.4668	-0.077
Mof_C 	C 	0.3988	0.6871	0.648	0.212
Mof_C 	C 	0.3826	0.6369	0.658	-0.262
Mof_C 	C 	0.4569	0.7266	0.59	-0.103
Mof_C 	C 	0.2969	0.6152	0.7514	-0.247
Mof_C 	C 	0.3161	0.6645	0.7404	0.21
Mof_C 	C 	0.3659	0.7017	0.6852	-0.276
Mof_C 	C 	0.3316	0.6019	0.7086	0.198
Mof_C 	C 	0.9995	0.8864	0.7472	0.42
Mof_C 	C 	0.9931	0.8258	0.7814	-0.081
Mof_C 	C 	0.9972	0.7999	0.8334	0.04
Mof_C 	C 	0.9968	0.7444	0.862	-0.063
Mof_C 	C 	0.0066	0.7199	0.9124	0.375
Mof_C 	C 	0.9909	0.7156	0.8394	-0.064
Mof_C 	C 	0.9873	0.7435	0.786	0.132
Mof_C 	C 	0.9825	0.7972	0.761	-0.064
Mof_C 	C 	0.9654	0.7303	0.7236	-0.108
Mof_C 	C 	0.9631	0.3533	0.9092	0.375
Mof_C 	C 	0.9555	0.3777	0.8582	-0.064
Mof_C 	C 	0.9601	0.3535	0.8272	0.018
Mof_C 	C 	0.9587	0.3803	0.7742	-0.062
Mof_C 	C 	0.966	0.3545	0.74	0.368
Mof_C 	C 	0.9508	0.4316	0.7524	-0.086
Mof_C 	C 	0.9454	0.456	0.7842	0.158
Mof_C 	C 	0.9465	0.4293	0.8372	-0.09
Mof_C 	C 	0.9437	0.5375	0.7812	-0.11
Mof_C 	C 	0.9893	0.743	0.375	0.38
Mof_C 	C 	0.9814	0.7706	0.4074	-0.081
Mof_C 	C 	0.9795	0.8236	0.3832	0.033
Mof_C 	C 	0.9751	0.8499	0.4108	-0.081
Mof_C 	C 	0.9744	0.9087	0.3832	0.406
Mof_C 	C 	0.9633	0.8186	0.4712	-0.072
Mof_C 	C 	0.9639	0.7646	0.4982	0.135
Mof_C 	C 	0.973	0.74	0.4668	-0.079
Mof_C 	C 	0.9532	0.6649	0.648	0.216
Mof_C 	C 	0.9594	0.7051	0.658	-0.265
Mof_C 	C 	0.9531	0.6834	0.59	-0.105
Mof_C 	C 	0.9517	0.6334	0.7514	-0.25
Mof_C 	C 	0.9435	0.5951	0.7404	0.213
Mof_C 	C 	0.9489	0.6131	0.6852	-0.279
Mof_C 	C 	0.9598	0.6895	0.7086	0.203
Mof_O 	O 	0.25392	0.94257	0.0655	-0.523
Mof_O 	O 	0.32954	0.94235	0.06718	-0.489
Mof_O 	O 	0.09001	0.77498	0.22862	-0.492
Mof_O 	O 	0.09153	0.69766	0.30294	-0.495
Mof_O 	O 	0.2921	0.7472	0.2278	-0.199
Mof_O 	O 	0.69288	0.73366	0.23718	-0.483
Mof_O 	O 	0.61578	0.6574	0.31478	-0.456
Mof_O 	O 	0.69537	0.89744	0.06868	-0.5
Mof_O 	O 	0.62103	0.89637	0.0657	-0.51
Mof_O 	O 	0.4936	0.6966	0.241	-0.207
Mof_O 	O 	0.30327	0.3922	0.60244	-0.486
Mof_O 	O 	0.22769	0.31406	0.67868	-0.46
Mof_O 	O 	0.06763	0.31124	0.66932	-0.502
Mof_O 	O 	0.06883	0.38579	0.5911	-0.481
Mof_O 	O 	0.2617	0.512	0.44	-0.197
Mof_O 	O 	0.68058	0.99193	0.0655	-0.525
Mof_O 	O 	0.60328	0.99047	0.06718	-0.49
Mof_O 	O 	0.68137	0.9964	0.22862	-0.473
Mof_O 	O 	0.60553	0.9994	0.30294	-0.474
Mof_O 	O 	0.4801	0.025	0.2278	-0.201
Mof_O 	O 	0.06994	0.02916	0.23718	-0.491
Mof_O 	O 	0.06944	0.02782	0.31478	-0.462
Mof_O 	O 	0.23595	0.03388	0.06868	-0.505
Mof_O 	O 	0.31327	0.03793	0.0657	-0.514
Mof_O 	O 	0.2654	0.0624	0.241	-0.208
Mof_O 	O 	0.09429	0.00536	0.60244	-0.49
Mof_O 	O 	0.09363	0.00726	0.67868	-0.463
Mof_O 	O 	0.26305	0.01944	0.66932	-0.5
Mof_O 	O 	0.34007	0.02311	0.5911	-0.48
Mof_O 	O 	0.2983	0.048	0.44	-0.198
Mof_O 	O 	0.94257	0.68058	0.0655	-0.521
Mof_O 	O 	0.94235	0.60328	0.06718	-0.488
Mof_O 	O 	0.77498	0.68137	0.22862	-0.489
Mof_O 	O 	0.69766	0.60553	0.30294	-0.492
Mof_O 	O 	0.7472	0.4801	0.2278	-0.199
Mof_O 	O 	0.73366	0.06994	0.23718	-0.489
Mof_O 	O 	0.6574	0.06944	0.31478	-0.461
Mof_O 	O 	0.89744	0.23595	0.06868	-0.502
Mof_O 	O 	0.89637	0.31327	0.0657	-0.51
Mof_O 	O 	0.6966	0.2654	0.241	-0.207
Mof_O 	O 	0.3922	0.09429	0.60244	-0.487
Mof_O 	O 	0.31406	0.09363	0.67868	-0.46
Mof_O 	O 	0.31124	0.26305	0.66932	-0.499
Mof_O 	O 	0.38579	0.34007	0.5911	-0.477
Mof_O 	O 	0.512	0.2983	0.44	-0.197
Mof_O 	O 	0.99193	0.25392	0.0655	-0.527
Mof_O 	O 	0.99047	0.32954	0.06718	-0.491
Mof_O 	O 	0.9964	0.09001	0.22862	-0.48
Mof_O 	O 	0.9994	0.09153	0.30294	-0.481
Mof_O 	O 	0.025	0.2921	0.2278	-0.201
Mof_O 	O 	0.02916	0.69288	0.23718	-0.486
Mof_O 	O 	0.02782	0.61578	0.31478	-0.458
Mof_O 	O 	0.03388	0.69537	0.06868	-0.504
Mof_O 	O 	0.03793	0.62103	0.0657	-0.513
Mof_O 	O 	0.0624	0.4936	0.241	-0.208
Mof_O 	O 	0.00536	0.30327	0.60244	-0.49
Mof_O 	O 	0.00726	0.22769	0.67868	-0.463
Mof_O 	O 	0.01944	0.06763	0.66932	-0.503
Mof_O 	O 	0.02311	0.06883	0.5911	-0.483
Mof_O 	O 	0.048	0.2617	0.44	-0.198
Mof_O 	O 	0.74608	0.05743	0.9345	-0.452
Mof_O 	O 	0.67046	0.05765	0.93282	-0.419
Mof_O 	O 	0.90999	0.22502	0.77138	-0.471
Mof_O 	O 	0.90847	0.30234	0.69706	-0.486
Mof_O 	O 	0.7079	0.2528	0.7722	-0.185
Mof_O 	O 	0.30712	0.26634	0.76282	-0.468
Mof_O 	O 	0.38422	0.3426	0.68522	-0.451
Mof_O 	O 	0.30463	0.10256	0.93132	-0.422
Mof_O 	O 	0.37897	0.10363	0.9343	-0.429
Mof_O 	O 	0.5064	0.3034	0.759	-0.195
Mof_O 	O 	0.69673	0.6078	0.39756	-0.486
Mof_O 	O 	0.77231	0.68594	0.32132	-0.466
Mof_O 	O 	0.93237	0.68876	0.33068	-0.499
Mof_O 	O 	0.93117	0.61421	0.4089	-0.472
Mof_O 	O 	0.7383	0.488	0.56	-0.19
Mof_O 	O 	0.31942	0.00807	0.9345	-0.448
Mof_O 	O 	0.39672	0.00953	0.93282	-0.417
Mof_O 	O 	0.31863	0.0036	0.77138	-0.485
Mof_O 	O 	0.39447	0.0006	0.69706	-0.502
Mof_O 	O 	0.5199	0.975	0.7722	-0.183
Mof_O 	O 	0.93006	0.97084	0.76282	-0.459
Mof_O 	O 	0.93056	0.97218	0.68522	-0.442
Mof_O 	O 	0.76405	0.96612	0.93132	-0.418
Mof_O 	O 	0.68673	0.96207	0.9343	-0.427
Mof_O 	O 	0.7346	0.9376	0.759	-0.194
Mof_O 	O 	0.90571	0.99464	0.39756	-0.48
Mof_O 	O 	0.90637	0.99274	0.32132	-0.461
Mof_O 	O 	0.73695	0.98056	0.33068	-0.5
Mof_O 	O 	0.65993	0.97689	0.4089	-0.474
Mof_O 	O 	0.7017	0.952	0.56	-0.189
Mof_O 	O 	0.05743	0.31942	0.9345	-0.452
Mof_O 	O 	0.05765	0.39672	0.93282	-0.419
Mof_O 	O 	0.22502	0.31863	0.77138	-0.473
Mof_O 	O 	0.30234	0.39447	0.69706	-0.488
Mof_O 	O 	0.2528	0.5199	0.7722	-0.185
Mof_O 	O 	0.26634	0.93006	0.76282	-0.463
Mof_O 	O 	0.3426	0.93056	0.68522	-0.446
Mof_O 	O 	0.10256	0.76405	0.93132	-0.421
Mof_O 	O 	0.10363	0.68673	0.9343	-0.429
Mof_O 	O 	0.3034	0.7346	0.759	-0.195
Mof_O 	O 	0.6078	0.90571	0.39756	-0.485
Mof_O 	O 	0.68594	0.90637	0.32132	-0.466
Mof_O 	O 	0.68876	0.73695	0.33068	-0.504
Mof_O 	O 	0.61421	0.65993	0.4089	-0.477
Mof_O 	O 	0.488	0.7017	0.56	-0.19
Mof_O 	O 	0.00807	0.74608	0.9345	-0.448
Mof_O 	O 	0.00953	0.67046	0.93282	-0.417
Mof_O 	O 	0.0036	0.90999	0.77138	-0.486
Mof_O 	O 	0.0006	0.90847	0.69706	-0.503
Mof_O 	O 	0.975	0.7079	0.7722	-0.182
Mof_O 	O 	0.97084	0.30712	0.76282	-0.466
Mof_O 	O 	0.97218	0.38422	0.68522	-0.448
Mof_O 	O 	0.96612	0.30463	0.93132	-0.42
Mof_O 	O 	0.96207	0.37897	0.9343	-0.427
Mof_O 	O 	0.9376	0.5064	0.759	-0.194
Mof_O 	O 	0.99464	0.69673	0.39756	-0.481
Mof_O 	O 	0.99274	0.77231	0.32132	-0.461
Mof_O 	O 	0.98056	0.93237	0.33068	-0.496
Mof_O 	O 	0.97689	0.93117	0.4089	-0.469
Mof_O 	O 	0.952	0.7383	0.56	-0.189
_end
