data_functionalizedCrystal
_audit_creation_method	'EQeq! by Chris Wilmer'
_symmetry_space_group_name_H-M	'P1'
_symmetry_Int_Tables_number	1
_symmetry_cell_setting	triclinic
loop_
_symmetry_equiv_pos_as_xyz
  x,y,z
_cell_length_a	11.7292
_cell_length_b	5.5685
_cell_length_c	22.792
_cell_angle_alpha	90
_cell_angle_beta	100.493
_cell_angle_gamma	90
loop_
_atom_site_label
_atom_site_type_symbol
_atom_site_fract_x
_atom_site_fract_y
_atom_site_fract_z
_atom_site_charge
Mof_Ca	Ca	0.63749	0.7562	0.22222	1.561
Mof_S 	S 	0.39917	0.96451	0.10714	0.317
Mof_O 	O 	0.26084	0.91557	0.80924	-0.583
Mof_O 	O 	0.26461	0.5242	0.82797	-0.515
Mof_O 	O 	0.95767	0.91915	0.25482	-0.488
Mof_O 	O 	0.98643	0.52363	0.24585	-0.477
Mof_O 	O 	0.41621	0.22042	0.11108	-0.249
Mof_O 	O 	0.49514	0.80548	0.1302	-0.358
Mof_C 	C 	0.35455	0.8915	0.03111	-0
Mof_C 	C 	0.38241	0.6674	0.01067	-0.093
Mof_H 	H 	0.42	0.5498	0.0376	0.083
Mof_C 	C 	0.35388	0.6198	0.94993	0.058
Mof_H 	H 	0.372	0.4676	0.9352	0.018
Mof_C 	C 	0.29938	0.7918	0.91059	-0.159
Mof_C 	C 	0.26898	0.0122	0.93202	0.053
Mof_H 	H 	0.2301	0.1286	0.9051	0.01
Mof_C 	C 	0.29539	0.0621	0.99258	-0.086
Mof_H 	H 	0.2733	0.2109	0.0076	0.066
Mof_C 	C 	0.27457	0.7386	0.8447	0.446
Mof_C 	C 	0.28174	0.8912	0.14223	-0.016
Mof_C 	C 	0.19304	0.0595	0.1408	-0.08
Mof_H 	H 	0.1942	0.2058	0.1195	0.064
Mof_C 	C 	0.10297	0.0098	0.17102	0.051
Mof_H 	H 	0.043	0.1242	0.1713	0.009
Mof_C 	C 	0.10079	0.792	0.20092	-0.156
Mof_C 	C 	0.18833	0.6236	0.2004	0.04
Mof_H 	H 	0.1851	0.474	0.2201	0.029
Mof_C 	C 	0.28073	0.6718	0.17139	-0.078
Mof_H 	H 	0.3412	0.5582	0.1715	0.07
Mof_C 	C 	0.00606	0.7406	0.23671	0.464
Mof_Ca	Ca	0.86251	0.2562	0.27778	1.561
Mof_S 	S 	0.10083	0.46451	0.39286	0.317
Mof_O 	O 	0.23916	0.41557	0.69076	-0.583
Mof_O 	O 	0.23539	0.0242	0.67203	-0.516
Mof_O 	O 	0.54233	0.41915	0.24518	-0.49
Mof_O 	O 	0.51357	0.02363	0.25415	-0.478
Mof_O 	O 	0.08379	0.72042	0.38892	-0.252
Mof_O 	O 	0.00486	0.30548	0.3698	-0.358
Mof_C 	C 	0.14545	0.3915	0.46889	0.003
Mof_C 	C 	0.11759	0.1674	0.48933	-0.096
Mof_H 	H 	0.08	0.0498	0.4624	0.085
Mof_C 	C 	0.14612	0.1198	0.55007	0.063
Mof_H 	H 	0.128	0.9676	0.5648	0.015
Mof_C 	C 	0.20062	0.2918	0.58941	-0.162
Mof_C 	C 	0.23102	0.5122	0.56798	0.056
Mof_H 	H 	0.2699	0.6286	0.5949	0.009
Mof_C 	C 	0.20461	0.5621	0.50742	-0.091
Mof_H 	H 	0.2267	0.7109	0.4924	0.067
Mof_C 	C 	0.22543	0.2386	0.6553	0.447
Mof_C 	C 	0.21826	0.3912	0.35777	-0.011
Mof_C 	C 	0.30696	0.5595	0.3592	-0.086
Mof_H 	H 	0.3058	0.7058	0.3805	0.065
Mof_C 	C 	0.39703	0.5098	0.32898	0.05
Mof_H 	H 	0.457	0.6242	0.3287	0.009
Mof_C 	C 	0.39921	0.292	0.29908	-0.156
Mof_C 	C 	0.31167	0.1236	0.2996	0.047
Mof_H 	H 	0.3149	0.974	0.2799	0.025
Mof_C 	C 	0.21927	0.1718	0.32861	-0.082
Mof_H 	H 	0.1588	0.0582	0.3285	0.072
Mof_C 	C 	0.49394	0.2406	0.26329	0.469
Mof_Ca	Ca	0.36251	0.2438	0.77778	1.561
Mof_S 	S 	0.60083	0.03549	0.89286	0.317
Mof_O 	O 	0.73916	0.08443	0.19076	-0.583
Mof_O 	O 	0.73539	0.4758	0.17203	-0.515
Mof_O 	O 	0.04233	0.08085	0.74518	-0.488
Mof_O 	O 	0.01357	0.47637	0.75415	-0.477
Mof_O 	O 	0.58379	0.77958	0.88892	-0.249
Mof_O 	O 	0.50486	0.19452	0.8698	-0.358
Mof_C 	C 	0.64545	0.1085	0.96889	-0
Mof_C 	C 	0.61759	0.3326	0.98933	-0.093
Mof_H 	H 	0.58	0.4502	0.9624	0.083
Mof_C 	C 	0.64612	0.3802	0.05007	0.058
Mof_H 	H 	0.628	0.5324	0.0648	0.018
Mof_C 	C 	0.70062	0.2082	0.08941	-0.159
Mof_C 	C 	0.73102	0.9878	0.06798	0.053
Mof_H 	H 	0.7699	0.8714	0.0949	0.01
Mof_C 	C 	0.70461	0.9379	0.00742	-0.086
Mof_H 	H 	0.7267	0.7891	0.9924	0.066
Mof_C 	C 	0.72543	0.2614	0.1553	0.446
Mof_C 	C 	0.71826	0.1088	0.85777	-0.016
Mof_C 	C 	0.80696	0.9405	0.8592	-0.08
Mof_H 	H 	0.8058	0.7942	0.8805	0.064
Mof_C 	C 	0.89703	0.9902	0.82898	0.051
Mof_H 	H 	0.957	0.8758	0.8287	0.009
Mof_C 	C 	0.89921	0.208	0.79908	-0.156
Mof_C 	C 	0.81167	0.3764	0.7996	0.04
Mof_H 	H 	0.8149	0.526	0.7799	0.029
Mof_C 	C 	0.71927	0.3282	0.82861	-0.078
Mof_H 	H 	0.6588	0.4418	0.8285	0.07
Mof_C 	C 	0.99394	0.2594	0.76329	0.464
Mof_Ca	Ca	0.13749	0.7438	0.72222	1.561
Mof_S 	S 	0.89917	0.53549	0.60714	0.317
Mof_O 	O 	0.76084	0.58443	0.30924	-0.583
Mof_O 	O 	0.76461	0.9758	0.32797	-0.516
Mof_O 	O 	0.45767	0.58085	0.75482	-0.49
Mof_O 	O 	0.48643	0.97637	0.74585	-0.478
Mof_O 	O 	0.91621	0.27958	0.61108	-0.252
Mof_O 	O 	0.99514	0.69452	0.6302	-0.358
Mof_C 	C 	0.85455	0.6085	0.53111	0.003
Mof_C 	C 	0.88241	0.8326	0.51067	-0.096
Mof_H 	H 	0.92	0.9502	0.5376	0.085
Mof_C 	C 	0.85388	0.8802	0.44993	0.063
Mof_H 	H 	0.872	0.0324	0.4352	0.015
Mof_C 	C 	0.79938	0.7082	0.41059	-0.162
Mof_C 	C 	0.76898	0.4878	0.43202	0.056
Mof_H 	H 	0.7301	0.3714	0.4051	0.009
Mof_C 	C 	0.79539	0.4379	0.49258	-0.091
Mof_H 	H 	0.7733	0.2891	0.5076	0.067
Mof_C 	C 	0.77457	0.7614	0.3447	0.447
Mof_C 	C 	0.78174	0.6088	0.64223	-0.011
Mof_C 	C 	0.69304	0.4405	0.6408	-0.086
Mof_H 	H 	0.6942	0.2942	0.6195	0.065
Mof_C 	C 	0.60297	0.4902	0.67102	0.05
Mof_H 	H 	0.543	0.3758	0.6713	0.009
Mof_C 	C 	0.60079	0.708	0.70092	-0.156
Mof_C 	C 	0.68833	0.8764	0.7004	0.047
Mof_H 	H 	0.6851	0.026	0.7201	0.025
Mof_C 	C 	0.78073	0.8282	0.67139	-0.082
Mof_H 	H 	0.8412	0.9418	0.6715	0.072
Mof_C 	C 	0.50606	0.7594	0.73671	0.469
_end
