data_functionalizedCrystal
_audit_creation_method	'EQeq! by Chris Wilmer'
_symmetry_space_group_name_H-M	'P1'
_symmetry_Int_Tables_number	1
_symmetry_cell_setting	triclinic
loop_
_symmetry_equiv_pos_as_xyz
  x,y,z
_cell_length_a	27.314
_cell_length_b	13.126
_cell_length_c	14
_cell_angle_alpha	90
_cell_angle_beta	96.143
_cell_angle_gamma	90
loop_
_atom_site_label
_atom_site_type_symbol
_atom_site_fract_x
_atom_site_fract_y
_atom_site_fract_z
_atom_site_charge
Mof_Cu	Cu	0.21095	0.6904	0.49679	0.907
Mof_O 	O 	0.18906	0.7956	0.5839	-0.383
Mof_O 	O 	0.25507	0.8986	0.5902	-0.382
Mof_O 	O 	0.25147	0.1232	0.893	-0.398
Mof_O 	O 	0.18609	0.2254	0.8868	-0.386
Mof_O 	O 	0.0948	0.2441	0.5636	-0.227
Mof_O 	O 	0.0572	0.312	0.6782	-0.353
Mof_O 	O 	0.9605	0.323	0.6325	-0.329
Mof_O 	O 	0.9287	0.2551	0.4899	-0.207
Mof_C 	C 	0.2119	0.8781	0.6054	0.346
Mof_C 	C 	0.186	0.9554	0.6593	-0.072
Mof_C 	C 	0.2108	0.017	0.7286	0.03
Mof_H 	H 	0.2445	0.0095	0.7444	0.06
Mof_C 	C 	0.1843	0.0922	0.7757	-0.081
Mof_C 	C 	0.1341	0.1041	0.747	0.009
Mof_H 	H 	0.117	0.1553	0.7753	0.054
Mof_C 	C 	0.1084	0.0419	0.6772	-0.036
Mof_C 	C 	0.1345	0.9665	0.6371	-0.002
Mof_H 	H 	0.1177	0.9213	0.5941	0.057
Mof_C 	C 	0.2102	0.1497	0.8569	0.357
Mof_C 	C 	0.0547	0.0535	0.6481	0.129
Mof_C 	C 	0.0256	0.9661	0.6412	-0.209
Mof_H 	H 	0.0401	0.9026	0.6532	0.118
Mof_C 	C 	0.9749	0.9726	0.6165	0.131
Mof_H 	H 	0.9556	0.9146	0.6188	0.009
Mof_C 	C 	0.9542	0.0603	0.5899	-0.141
Mof_H 	H 	0.9212	0.0619	0.565	0.094
Mof_C 	C 	0.9813	0.151	0.599	0.038
Mof_C 	C 	0.0322	0.1455	0.6259	-0.183
Mof_C 	C 	0.0626	0.2379	0.6184	0.332
Mof_C 	C 	0.954	0.246	0.569	0.249
Mof_Cu	Cu	0.71095	0.1904	0.49679	0.908
Mof_O 	O 	0.68906	0.2956	0.5839	-0.381
Mof_O 	O 	0.75507	0.3986	0.5902	-0.379
Mof_O 	O 	0.75147	0.6232	0.893	-0.396
Mof_O 	O 	0.68609	0.7254	0.8868	-0.384
Mof_O 	O 	0.5948	0.7441	0.5636	-0.217
Mof_O 	O 	0.5572	0.812	0.6782	-0.342
Mof_O 	O 	0.4605	0.823	0.6325	-0.346
Mof_O 	O 	0.4287	0.7551	0.4899	-0.218
Mof_C 	C 	0.7119	0.3781	0.6054	0.342
Mof_C 	C 	0.686	0.4554	0.6593	-0.063
Mof_C 	C 	0.7108	0.517	0.7286	0.022
Mof_H 	H 	0.7445	0.5095	0.7444	0.064
Mof_C 	C 	0.6843	0.5922	0.7757	-0.071
Mof_C 	C 	0.6341	0.6041	0.747	-0.008
Mof_H 	H 	0.617	0.6553	0.7753	0.06
Mof_C 	C 	0.6084	0.5419	0.6772	-0.007
Mof_C 	C 	0.6345	0.4665	0.6371	-0.019
Mof_H 	H 	0.6177	0.4213	0.5941	0.063
Mof_C 	C 	0.7102	0.6497	0.8569	0.354
Mof_C 	C 	0.5547	0.5535	0.6481	0.069
Mof_C 	C 	0.5256	0.4661	0.6412	-0.103
Mof_H 	H 	0.5401	0.4026	0.6532	0.086
Mof_C 	C 	0.4749	0.4726	0.6165	0.009
Mof_H 	H 	0.4556	0.4146	0.6188	0.046
Mof_C 	C 	0.4542	0.5603	0.5899	-0.052
Mof_H 	H 	0.4212	0.5619	0.565	0.063
Mof_C 	C 	0.4813	0.651	0.599	-0.04
Mof_C 	C 	0.5322	0.6455	0.6259	-0.115
Mof_C 	C 	0.5626	0.7379	0.6184	0.313
Mof_C 	C 	0.454	0.746	0.569	0.272
Mof_Cu	Cu	0.78905	0.6904	0.00321	0.909
Mof_O 	O 	0.81094	0.7956	0.9161	-0.38
Mof_O 	O 	0.74493	0.8986	0.9098	-0.379
Mof_O 	O 	0.74853	0.1232	0.607	-0.395
Mof_O 	O 	0.81391	0.2254	0.6132	-0.383
Mof_O 	O 	0.9052	0.2441	0.9364	-0.207
Mof_O 	O 	0.9428	0.312	0.8218	-0.326
Mof_O 	O 	0.0395	0.323	0.8675	-0.357
Mof_O 	O 	0.0713	0.2551	0.0101	-0.227
Mof_C 	C 	0.7881	0.8781	0.8946	0.339
Mof_C 	C 	0.814	0.9554	0.8407	-0.054
Mof_C 	C 	0.7892	0.017	0.7714	0.014
Mof_H 	H 	0.7555	0.0095	0.7556	0.066
Mof_C 	C 	0.8157	0.0922	0.7243	-0.063
Mof_C 	C 	0.8659	0.1041	0.753	-0.025
Mof_H 	H 	0.883	0.1553	0.7247	0.066
Mof_C 	C 	0.8916	0.0419	0.8228	0.021
Mof_C 	C 	0.8655	0.9665	0.8629	-0.036
Mof_H 	H 	0.8823	0.9213	0.9059	0.069
Mof_C 	C 	0.7898	0.1497	0.6431	0.35
Mof_C 	C 	0.9453	0.0535	0.8519	0.01
Mof_C 	C 	0.9744	0.9661	0.8588	0.004
Mof_H 	H 	0.9599	0.9026	0.8468	0.054
Mof_C 	C 	0.0251	0.9726	0.8835	-0.113
Mof_H 	H 	0.0444	0.9146	0.8812	0.084
Mof_C 	C 	0.0458	0.0603	0.9101	0.037
Mof_H 	H 	0.0788	0.0619	0.935	0.031
Mof_C 	C 	0.0187	0.151	0.901	-0.116
Mof_C 	C 	0.9678	0.1455	0.8741	-0.045
Mof_C 	C 	0.9374	0.2379	0.8816	0.293
Mof_C 	C 	0.046	0.246	0.931	0.292
Mof_Cu	Cu	0.28905	0.1904	0.00321	0.909
Mof_O 	O 	0.31094	0.2956	0.9161	-0.381
Mof_O 	O 	0.24493	0.3986	0.9098	-0.38
Mof_O 	O 	0.24853	0.6232	0.607	-0.397
Mof_O 	O 	0.31391	0.7254	0.6132	-0.384
Mof_O 	O 	0.4052	0.7441	0.9364	-0.217
Mof_O 	O 	0.4428	0.812	0.8218	-0.342
Mof_O 	O 	0.5395	0.823	0.8675	-0.346
Mof_O 	O 	0.5713	0.7551	0.0101	-0.217
Mof_C 	C 	0.2881	0.3781	0.8946	0.343
Mof_C 	C 	0.314	0.4554	0.8407	-0.063
Mof_C 	C 	0.2892	0.517	0.7714	0.022
Mof_H 	H 	0.2555	0.5095	0.7556	0.063
Mof_C 	C 	0.3157	0.5922	0.7243	-0.072
Mof_C 	C 	0.3659	0.6041	0.753	-0.008
Mof_H 	H 	0.383	0.6553	0.7247	0.06
Mof_C 	C 	0.3916	0.5419	0.8228	-0.008
Mof_C 	C 	0.3655	0.4665	0.8629	-0.018
Mof_H 	H 	0.3823	0.4213	0.9059	0.063
Mof_C 	C 	0.2898	0.6497	0.6431	0.354
Mof_C 	C 	0.4453	0.5535	0.8519	0.07
Mof_C 	C 	0.4744	0.4661	0.8588	-0.103
Mof_H 	H 	0.4599	0.4026	0.8468	0.086
Mof_C 	C 	0.5251	0.4726	0.8835	0.01
Mof_H 	H 	0.5444	0.4146	0.8812	0.046
Mof_C 	C 	0.5458	0.5603	0.9101	-0.052
Mof_H 	H 	0.5788	0.5619	0.935	0.063
Mof_C 	C 	0.5187	0.651	0.901	-0.039
Mof_C 	C 	0.4678	0.6455	0.8741	-0.115
Mof_C 	C 	0.4374	0.7379	0.8816	0.313
Mof_C 	C 	0.546	0.746	0.931	0.271
Mof_Cu	Cu	0.78905	0.3096	0.50321	0.909
Mof_O 	O 	0.81094	0.2044	0.4161	-0.38
Mof_O 	O 	0.74493	0.1014	0.4098	-0.379
Mof_O 	O 	0.74853	0.8768	0.107	-0.395
Mof_O 	O 	0.81391	0.7746	0.1132	-0.383
Mof_O 	O 	0.9052	0.7559	0.4364	-0.207
Mof_O 	O 	0.9428	0.688	0.3218	-0.327
Mof_O 	O 	0.0395	0.677	0.3675	-0.357
Mof_O 	O 	0.0713	0.7449	0.5101	-0.229
Mof_C 	C 	0.7881	0.1219	0.3946	0.339
Mof_C 	C 	0.814	0.0446	0.3407	-0.054
Mof_C 	C 	0.7892	0.983	0.2714	0.014
Mof_H 	H 	0.7555	0.9905	0.2556	0.066
Mof_C 	C 	0.8157	0.9078	0.2243	-0.063
Mof_C 	C 	0.8659	0.8959	0.253	-0.025
Mof_H 	H 	0.883	0.8447	0.2247	0.066
Mof_C 	C 	0.8916	0.9581	0.3228	0.021
Mof_C 	C 	0.8655	0.0335	0.3629	-0.035
Mof_H 	H 	0.8823	0.0787	0.4059	0.069
Mof_C 	C 	0.7898	0.8503	0.1431	0.35
Mof_C 	C 	0.9453	0.9465	0.3519	0.01
Mof_C 	C 	0.9744	0.0339	0.3588	0.003
Mof_H 	H 	0.9599	0.0974	0.3468	0.054
Mof_C 	C 	0.0251	0.0274	0.3835	-0.111
Mof_H 	H 	0.0444	0.0854	0.3812	0.083
Mof_C 	C 	0.0458	0.9397	0.4101	0.036
Mof_H 	H 	0.0788	0.9381	0.435	0.032
Mof_C 	C 	0.0187	0.849	0.401	-0.115
Mof_C 	C 	0.9678	0.8545	0.3741	-0.046
Mof_C 	C 	0.9374	0.7621	0.3816	0.293
Mof_C 	C 	0.046	0.754	0.431	0.293
Mof_Cu	Cu	0.28905	0.8096	0.50321	0.909
Mof_O 	O 	0.31094	0.7044	0.4161	-0.381
Mof_O 	O 	0.24493	0.6014	0.4098	-0.38
Mof_O 	O 	0.24853	0.3768	0.107	-0.396
Mof_O 	O 	0.31391	0.2746	0.1132	-0.384
Mof_O 	O 	0.4052	0.2559	0.4364	-0.217
Mof_O 	O 	0.4428	0.188	0.3218	-0.341
Mof_O 	O 	0.5395	0.177	0.3675	-0.346
Mof_O 	O 	0.5713	0.2449	0.5101	-0.218
Mof_C 	C 	0.2881	0.6219	0.3946	0.343
Mof_C 	C 	0.314	0.5446	0.3407	-0.063
Mof_C 	C 	0.2892	0.483	0.2714	0.022
Mof_H 	H 	0.2555	0.4905	0.2556	0.063
Mof_C 	C 	0.3157	0.4078	0.2243	-0.072
Mof_C 	C 	0.3659	0.3959	0.253	-0.008
Mof_H 	H 	0.383	0.3447	0.2247	0.06
Mof_C 	C 	0.3916	0.4581	0.3228	-0.008
Mof_C 	C 	0.3655	0.5335	0.3629	-0.018
Mof_H 	H 	0.3823	0.5787	0.4059	0.063
Mof_C 	C 	0.2898	0.3503	0.1431	0.354
Mof_C 	C 	0.4453	0.4465	0.3519	0.07
Mof_C 	C 	0.4744	0.5339	0.3588	-0.103
Mof_H 	H 	0.4599	0.5974	0.3468	0.086
Mof_C 	C 	0.5251	0.5274	0.3835	0.009
Mof_H 	H 	0.5444	0.5854	0.3812	0.046
Mof_C 	C 	0.5458	0.4397	0.4101	-0.052
Mof_H 	H 	0.5788	0.4381	0.435	0.063
Mof_C 	C 	0.5187	0.349	0.401	-0.04
Mof_C 	C 	0.4678	0.3545	0.3741	-0.115
Mof_C 	C 	0.4374	0.2621	0.3816	0.313
Mof_C 	C 	0.546	0.254	0.431	0.272
Mof_Cu	Cu	0.21095	0.3096	0.99679	0.908
Mof_O 	O 	0.18906	0.2044	0.0839	-0.382
Mof_O 	O 	0.25507	0.1014	0.0902	-0.38
Mof_O 	O 	0.25147	0.8768	0.393	-0.397
Mof_O 	O 	0.18609	0.7746	0.3868	-0.385
Mof_O 	O 	0.0948	0.7559	0.0636	-0.225
Mof_O 	O 	0.0572	0.688	0.1782	-0.351
Mof_O 	O 	0.9605	0.677	0.1325	-0.329
Mof_O 	O 	0.9287	0.7449	0.9899	-0.208
Mof_C 	C 	0.2119	0.1219	0.1054	0.346
Mof_C 	C 	0.186	0.0446	0.1593	-0.071
Mof_C 	C 	0.2108	0.983	0.2286	0.03
Mof_H 	H 	0.2445	0.9905	0.2444	0.061
Mof_C 	C 	0.1843	0.9078	0.2757	-0.08
Mof_C 	C 	0.1341	0.8959	0.247	0.008
Mof_H 	H 	0.117	0.8447	0.2753	0.054
Mof_C 	C 	0.1084	0.9581	0.1772	-0.034
Mof_C 	C 	0.1345	0.0335	0.1371	-0.002
Mof_H 	H 	0.1177	0.0787	0.0941	0.058
Mof_C 	C 	0.2102	0.8503	0.3569	0.357
Mof_C 	C 	0.0547	0.9465	0.1481	0.127
Mof_C 	C 	0.0256	0.0339	0.1412	-0.205
Mof_H 	H 	0.0401	0.0974	0.1532	0.117
Mof_C 	C 	0.9749	0.0274	0.1165	0.127
Mof_H 	H 	0.9556	0.0854	0.1188	0.01
Mof_C 	C 	0.9542	0.9397	0.0899	-0.138
Mof_H 	H 	0.9212	0.9381	0.065	0.093
Mof_C 	C 	0.9813	0.849	0.099	0.035
Mof_C 	C 	0.0322	0.8545	0.1259	-0.181
Mof_C 	C 	0.0626	0.7621	0.1184	0.331
Mof_C 	C 	0.954	0.754	0.069	0.251
Mof_Cu	Cu	0.71095	0.8096	0.99679	0.908
Mof_O 	O 	0.68906	0.7044	0.0839	-0.381
Mof_O 	O 	0.75507	0.6014	0.0902	-0.379
Mof_O 	O 	0.75147	0.3768	0.393	-0.396
Mof_O 	O 	0.68609	0.2746	0.3868	-0.384
Mof_O 	O 	0.5948	0.2559	0.0636	-0.217
Mof_O 	O 	0.5572	0.188	0.1782	-0.341
Mof_O 	O 	0.4605	0.177	0.1325	-0.346
Mof_O 	O 	0.4287	0.2449	0.9899	-0.219
Mof_C 	C 	0.7119	0.6219	0.1054	0.342
Mof_C 	C 	0.686	0.5446	0.1593	-0.062
Mof_C 	C 	0.7108	0.483	0.2286	0.021
Mof_H 	H 	0.7445	0.4905	0.2444	0.064
Mof_C 	C 	0.6843	0.4078	0.2757	-0.071
Mof_C 	C 	0.6341	0.3959	0.247	-0.008
Mof_H 	H 	0.617	0.3447	0.2753	0.06
Mof_C 	C 	0.6084	0.4581	0.1772	-0.007
Mof_C 	C 	0.6345	0.5335	0.1371	-0.019
Mof_H 	H 	0.6177	0.5787	0.0941	0.064
Mof_C 	C 	0.7102	0.3503	0.3569	0.354
Mof_C 	C 	0.5547	0.4465	0.1481	0.069
Mof_C 	C 	0.5256	0.5339	0.1412	-0.102
Mof_H 	H 	0.5401	0.5974	0.1532	0.086
Mof_C 	C 	0.4749	0.5274	0.1165	0.009
Mof_H 	H 	0.4556	0.5854	0.1188	0.046
Mof_C 	C 	0.4542	0.4397	0.0899	-0.052
Mof_H 	H 	0.4212	0.4381	0.065	0.063
Mof_C 	C 	0.4813	0.349	0.099	-0.04
Mof_C 	C 	0.5322	0.3545	0.1259	-0.114
Mof_C 	C 	0.5626	0.2621	0.1184	0.313
Mof_C 	C 	0.454	0.254	0.069	0.273
Mof_Cu	Cu	1.59558e-33	0.32316	0.75	0.927
Mof_Cu	Cu	0.5	0.82316	0.75	0.939
Mof_Cu	Cu	5.31859e-34	0.67684	0.25	0.928
Mof_Cu	Cu	0.5	0.17684	0.25	0.939
_end
