data_functionalizedCrystal
_audit_creation_method	'EQeq! by Chris Wilmer'
_symmetry_space_group_name_H-M	'P1'
_symmetry_Int_Tables_number	1
_symmetry_cell_setting	triclinic
loop_
_symmetry_equiv_pos_as_xyz
  x,y,z
_cell_length_a	20.3756
_cell_length_b	28.3927
_cell_length_c	28.3927
_cell_angle_alpha	90
_cell_angle_beta	90
_cell_angle_gamma	90
loop_
_atom_site_label
_atom_site_type_symbol
_atom_site_fract_x
_atom_site_fract_y
_atom_site_fract_z
_atom_site_charge
Mof_Zn	Zn	0.6417	0.08351	0.78122	1.204
Mof_Zn	Zn	0.1417	0.91649	0.21878	1.204
Mof_Zn	Zn	0.8917	0.71878	0.58351	1.205
Mof_Zn	Zn	0.3917	0.28122	0.41649	1.204
Mof_Zn	Zn	0.6083	0.41649	0.28122	1.203
Mof_Zn	Zn	0.1083	0.58351	0.71878	1.203
Mof_Zn	Zn	0.3583	0.78122	0.08351	1.203
Mof_Zn	Zn	0.8583	0.21878	0.91649	1.204
Mof_Zn	Zn	0.75	0.14797	0.85203	1.247
Mof_Zn	Zn	0.25	0.85203	0.14797	1.247
Mof_Zn	Zn	2.79747e-32	0.64797	0.64797	1.245
Mof_Zn	Zn	0.5	0.35203	0.35203	1.247
Mof_H 	H 	0.5389	0.1105	0.6612	0.054
Mof_H 	H 	0.5396	0.1267	0.6084	0.08
Mof_H 	H 	0.6455	0.1113	0.6627	-0.039
Mof_H 	H 	0.7107	0.1339	0.5947	0.212
Mof_H 	H 	0.6472	0.1524	0.5693	0.228
Mof_H 	H 	0.7053	0.0453	0.6197	0.284
Mof_H 	H 	0.6972	0.9734	0.5904	-0.209
Mof_H 	H 	0.638	0.9597	0.5253	0.257
Mof_H 	H 	0.5656	0.0221	0.4983	-0.149
Mof_H 	H 	0.5936	0.0981	0.5226	0.265
Mof_H 	H 	0.0744	0.4826	0.8002	0.006
Mof_H 	H 	0.0697	0.4291	0.814	0.03
Mof_H 	H 	0.0829	0.4604	0.7222	0.01
Mof_H 	H 	0.0316	0.3692	0.7376	0.133
Mof_H 	H 	0.0699	0.3859	0.6928	0.11
Mof_H 	H 	0.1565	0.3293	0.8061	0.094
Mof_H 	H 	0.268	0.3226	0.791	0.007
Mof_H 	H 	0.3128	0.3577	0.7246	0.076
Mof_H 	H 	0.246	0.3994	0.6732	0.026
Mof_H 	H 	0.1345	0.4061	0.6883	0.085
Mof_H 	H 	0.812	0.5221	0.3657	0.083
Mof_H 	H 	0.7576	0.5069	0.329	0.068
Mof_H 	H 	0.8085	0.4702	0.3997	0
Mof_H 	H 	0.7929	0.3949	0.3566	0.111
Mof_H 	H 	0.8006	0.4297	0.3149	0.09
Mof_H 	H 	0.8282	0.4119	0.5419	0.043
Mof_H 	H 	0.8541	0.3376	0.6611	0.058
Mof_H 	H 	0.7415	0.2846	0.5589	0.05
Mof_H 	H 	0.856	0.2675	0.6905	0.111
Mof_H 	H 	0.8208	0.2058	0.7397	0.011
Mof_H 	H 	0.6949	0.2493	0.6135	0.122
Mof_H 	H 	0.886	0.4638	0.5651	0.099
Mof_H 	H 	0.942	0.523	0.5922	0.023
Mof_H 	H 	0.9149	0.3922	0.6856	0.119
Mof_H 	H 	0.6929	0.2959	0.4944	0.128
Mof_H 	H 	0.6486	0.3054	0.4226	-0.007
Mof_H 	H 	0.7856	0.4164	0.4817	0.122
Mof_H 	H 	0.0389	0.8895	0.3388	0.052
Mof_H 	H 	0.0396	0.8733	0.3916	0.078
Mof_H 	H 	0.1455	0.8887	0.3373	-0.039
Mof_H 	H 	0.2107	0.8661	0.4053	0.211
Mof_H 	H 	0.1472	0.8476	0.4307	0.227
Mof_H 	H 	0.2053	0.9547	0.3803	0.283
Mof_H 	H 	0.1972	0.0266	0.4096	-0.208
Mof_H 	H 	0.138	0.0403	0.4747	0.255
Mof_H 	H 	0.0656	0.9779	0.5017	-0.151
Mof_H 	H 	0.0936	0.9019	0.4774	0.264
Mof_H 	H 	0.5744	0.5174	0.1998	0.004
Mof_H 	H 	0.5697	0.5709	0.186	0.029
Mof_H 	H 	0.5829	0.5396	0.2778	0.009
Mof_H 	H 	0.5316	0.6308	0.2624	0.137
Mof_H 	H 	0.5699	0.6141	0.3072	0.112
Mof_H 	H 	0.6565	0.6707	0.1939	0.096
Mof_H 	H 	0.768	0.6774	0.209	0.007
Mof_H 	H 	0.8128	0.6423	0.2754	0.077
Mof_H 	H 	0.746	0.6006	0.3268	0.025
Mof_H 	H 	0.6345	0.5939	0.3117	0.086
Mof_H 	H 	0.312	0.4779	0.6343	0.082
Mof_H 	H 	0.2576	0.4931	0.671	0.067
Mof_H 	H 	0.3085	0.5298	0.6003	-0
Mof_H 	H 	0.2929	0.6051	0.6434	0.111
Mof_H 	H 	0.3006	0.5703	0.6851	0.09
Mof_H 	H 	0.3282	0.5881	0.4581	0.042
Mof_H 	H 	0.3541	0.6624	0.3389	0.057
Mof_H 	H 	0.2415	0.7154	0.4411	0.05
Mof_H 	H 	0.356	0.7325	0.3095	0.111
Mof_H 	H 	0.3208	0.7942	0.2603	0.01
Mof_H 	H 	0.1949	0.7507	0.3865	0.122
Mof_H 	H 	0.386	0.5362	0.4349	0.101
Mof_H 	H 	0.442	0.477	0.4078	0.019
Mof_H 	H 	0.4149	0.6078	0.3144	0.119
Mof_H 	H 	0.1929	0.7041	0.5056	0.127
Mof_H 	H 	0.1486	0.6946	0.5774	-0.008
Mof_H 	H 	0.2856	0.5836	0.5183	0.122
Mof_H 	H 	0.7889	0.8388	0.6105	0.055
Mof_H 	H 	0.7896	0.8916	0.6267	0.08
Mof_H 	H 	0.8955	0.8373	0.6113	-0.039
Mof_H 	H 	0.9607	0.9053	0.6339	0.214
Mof_H 	H 	0.8972	0.9307	0.6524	0.229
Mof_H 	H 	0.9553	0.8803	0.5453	0.286
Mof_H 	H 	0.9472	0.9096	0.4734	-0.207
Mof_H 	H 	0.888	0.9747	0.4597	0.259
Mof_H 	H 	0.8156	0.0017	0.5221	-0.15
Mof_H 	H 	0.8436	0.9774	0.5981	0.266
Mof_H 	H 	0.3244	0.6998	0.9826	0.004
Mof_H 	H 	0.3197	0.686	0.9291	0.029
Mof_H 	H 	0.3329	0.7778	0.9604	0.009
Mof_H 	H 	0.2816	0.7624	0.8692	0.137
Mof_H 	H 	0.3199	0.8072	0.8859	0.112
Mof_H 	H 	0.4065	0.6939	0.8293	0.096
Mof_H 	H 	0.518	0.709	0.8226	0.007
Mof_H 	H 	0.5628	0.7754	0.8577	0.077
Mof_H 	H 	0.496	0.8268	0.8994	0.025
Mof_H 	H 	0.3845	0.8117	0.9061	0.086
Mof_H 	H 	0.062	0.1343	0.0221	0.082
Mof_H 	H 	0.0076	0.171	0.0069	0.066
Mof_H 	H 	0.0585	0.1003	0.9702	0
Mof_H 	H 	0.0429	0.1434	0.8949	0.107
Mof_H 	H 	0.0506	0.1851	0.9297	0.087
Mof_H 	H 	0.0782	0.9581	0.9119	0.039
Mof_H 	H 	0.1041	0.8389	0.8376	0.059
Mof_H 	H 	0.9915	0.9411	0.7846	0.059
Mof_H 	H 	0.106	0.8095	0.7675	0.104
Mof_H 	H 	0.0708	0.7603	0.7058	0.017
Mof_H 	H 	0.9449	0.8865	0.7493	0.115
Mof_H 	H 	0.136	0.9349	0.9638	0.1
Mof_H 	H 	0.192	0.9078	0.023	0.019
Mof_H 	H 	0.1649	0.8144	0.8922	0.119
Mof_H 	H 	0.9429	0.0056	0.7959	0.136
Mof_H 	H 	0.8986	0.0774	0.8054	-0.013
Mof_H 	H 	0.0356	0.0183	0.9164	0.134
Mof_H 	H 	0.2889	0.1612	0.3895	0.054
Mof_H 	H 	0.2896	0.1084	0.3733	0.08
Mof_H 	H 	0.3955	0.1627	0.3887	-0.039
Mof_H 	H 	0.4607	0.0947	0.3661	0.211
Mof_H 	H 	0.3972	0.0693	0.3476	0.228
Mof_H 	H 	0.4553	0.1197	0.4547	0.283
Mof_H 	H 	0.4472	0.0904	0.5266	-0.208
Mof_H 	H 	0.388	0.0253	0.5403	0.255
Mof_H 	H 	0.3156	0.9983	0.4779	-0.148
Mof_H 	H 	0.3436	0.0226	0.4019	0.264
Mof_H 	H 	0.8244	0.3002	0.0174	0.005
Mof_H 	H 	0.8197	0.314	0.0709	0.03
Mof_H 	H 	0.8329	0.2222	0.0396	0.008
Mof_H 	H 	0.7816	0.2376	0.1308	0.14
Mof_H 	H 	0.8199	0.1928	0.1141	0.115
Mof_H 	H 	0.9065	0.3061	0.1707	0.112
Mof_H 	H 	0.018	0.291	0.1774	-0.023
Mof_H 	H 	0.0628	0.2246	0.1423	0.1
Mof_H 	H 	0.996	0.1732	0.1006	0.008
Mof_H 	H 	0.8845	0.1883	0.0939	0.099
Mof_H 	H 	0.562	0.8657	0.9779	0.082
Mof_H 	H 	0.5076	0.829	0.9931	0.068
Mof_H 	H 	0.5585	0.8997	0.0298	-0
Mof_H 	H 	0.5429	0.8566	0.1051	0.111
Mof_H 	H 	0.5506	0.8149	0.0703	0.09
Mof_H 	H 	0.5782	0.0419	0.0881	0.042
Mof_H 	H 	0.6041	0.1611	0.1624	0.057
Mof_H 	H 	0.4915	0.0589	0.2154	0.05
Mof_H 	H 	0.606	0.1905	0.2325	0.111
Mof_H 	H 	0.5708	0.2397	0.2942	0.01
Mof_H 	H 	0.4449	0.1135	0.2507	0.122
Mof_H 	H 	0.636	0.0651	0.0362	0.101
Mof_H 	H 	0.692	0.0922	0.977	0.018
Mof_H 	H 	0.6649	0.1856	0.1078	0.119
Mof_H 	H 	0.4429	0.9944	0.2041	0.128
Mof_H 	H 	0.3986	0.9226	0.1946	-0.007
Mof_H 	H 	0.5356	0.9817	0.0836	0.122
Mof_H 	H 	0.7111	0.3895	0.1612	0.055
Mof_H 	H 	0.7104	0.3733	0.1084	0.08
Mof_H 	H 	0.6045	0.3887	0.1627	-0.039
Mof_H 	H 	0.5393	0.3661	0.0947	0.211
Mof_H 	H 	0.6028	0.3476	0.0693	0.228
Mof_H 	H 	0.5447	0.4547	0.1197	0.283
Mof_H 	H 	0.5528	0.5266	0.0904	-0.208
Mof_H 	H 	0.612	0.5403	0.0253	0.256
Mof_H 	H 	0.6844	0.4779	0.9983	-0.148
Mof_H 	H 	0.6564	0.4019	0.0226	0.265
Mof_H 	H 	0.1756	0.0174	0.3002	0.002
Mof_H 	H 	0.1803	0.0709	0.314	0.028
Mof_H 	H 	0.1671	0.0396	0.2222	0.01
Mof_H 	H 	0.2184	0.1308	0.2376	0.134
Mof_H 	H 	0.1801	0.1141	0.1928	0.109
Mof_H 	H 	0.0935	0.1707	0.3061	0.079
Mof_H 	H 	0.982	0.1774	0.291	0.036
Mof_H 	H 	0.9372	0.1423	0.2246	0.053
Mof_H 	H 	0.004	0.1006	0.1732	0.042
Mof_H 	H 	0.1155	0.0939	0.1883	0.072
Mof_H 	H 	0.438	0.9779	0.8657	0.082
Mof_H 	H 	0.4924	0.9931	0.829	0.067
Mof_H 	H 	0.4415	0.0298	0.8997	-0
Mof_H 	H 	0.4571	0.1051	0.8566	0.111
Mof_H 	H 	0.4494	0.0703	0.8149	0.09
Mof_H 	H 	0.4218	0.0881	0.0419	0.042
Mof_H 	H 	0.3959	0.1624	0.1611	0.057
Mof_H 	H 	0.5085	0.2154	0.0589	0.05
Mof_H 	H 	0.394	0.2325	0.1905	0.11
Mof_H 	H 	0.4292	0.2942	0.2397	0.01
Mof_H 	H 	0.5551	0.2507	0.1135	0.122
Mof_H 	H 	0.364	0.0362	0.0651	0.101
Mof_H 	H 	0.308	0.977	0.0922	0.019
Mof_H 	H 	0.3351	0.1078	0.1856	0.119
Mof_H 	H 	0.5571	0.2041	0.9944	0.127
Mof_H 	H 	0.6014	0.1946	0.9226	-0.007
Mof_H 	H 	0.4644	0.0836	0.9817	0.122
Mof_H 	H 	0.2111	0.6105	0.8388	0.054
Mof_H 	H 	0.2104	0.6267	0.8916	0.08
Mof_H 	H 	0.1045	0.6113	0.8373	-0.039
Mof_H 	H 	0.0393	0.6339	0.9053	0.209
Mof_H 	H 	0.1028	0.6524	0.9307	0.226
Mof_H 	H 	0.0447	0.5453	0.8803	0.28
Mof_H 	H 	0.0528	0.4734	0.9096	-0.208
Mof_H 	H 	0.112	0.4597	0.9747	0.253
Mof_H 	H 	0.1844	0.5221	0.0017	-0.147
Mof_H 	H 	0.1564	0.5981	0.9774	0.263
Mof_H 	H 	0.6756	0.9826	0.6998	0.004
Mof_H 	H 	0.6803	0.9291	0.686	0.029
Mof_H 	H 	0.6671	0.9604	0.7778	0.009
Mof_H 	H 	0.7184	0.8692	0.7624	0.137
Mof_H 	H 	0.6801	0.8859	0.8072	0.112
Mof_H 	H 	0.5935	0.8293	0.6939	0.096
Mof_H 	H 	0.482	0.8226	0.709	0.006
Mof_H 	H 	0.4372	0.8577	0.7754	0.077
Mof_H 	H 	0.504	0.8994	0.8268	0.025
Mof_H 	H 	0.6155	0.9061	0.8117	0.086
Mof_H 	H 	0.938	0.0221	0.1343	0.081
Mof_H 	H 	0.9924	0.0069	0.171	0.068
Mof_H 	H 	0.9415	0.9702	0.1003	0
Mof_H 	H 	0.9571	0.8949	0.1434	0.114
Mof_H 	H 	0.9494	0.9297	0.1851	0.092
Mof_H 	H 	0.9218	0.9119	0.9581	0.045
Mof_H 	H 	0.8959	0.8376	0.8389	0.055
Mof_H 	H 	0.0085	0.7846	0.9411	0.041
Mof_H 	H 	0.894	0.7675	0.8095	0.117
Mof_H 	H 	0.9292	0.7058	0.7603	0.003
Mof_H 	H 	0.0551	0.7493	0.8865	0.129
Mof_H 	H 	0.864	0.9638	0.9349	0.102
Mof_H 	H 	0.808	0.023	0.9078	0.018
Mof_H 	H 	0.8351	0.8922	0.8144	0.12
Mof_H 	H 	0.0571	0.7959	0.0056	0.119
Mof_H 	H 	0.1014	0.8054	0.0774	-0.001
Mof_H 	H 	0.9644	0.9164	0.0183	0.111
Mof_H 	H 	0.4611	0.6612	0.1105	0.054
Mof_H 	H 	0.4604	0.6084	0.1267	0.08
Mof_H 	H 	0.3545	0.6627	0.1113	-0.039
Mof_H 	H 	0.2893	0.5947	0.1339	0.211
Mof_H 	H 	0.3528	0.5693	0.1524	0.227
Mof_H 	H 	0.2947	0.6197	0.0453	0.283
Mof_H 	H 	0.3028	0.5904	0.9734	-0.207
Mof_H 	H 	0.362	0.5253	0.9597	0.256
Mof_H 	H 	0.4344	0.4983	0.0221	-0.149
Mof_H 	H 	0.4064	0.5226	0.0981	0.264
Mof_H 	H 	0.9256	0.8002	0.4826	0.002
Mof_H 	H 	0.9303	0.814	0.4291	0.027
Mof_H 	H 	0.9171	0.7222	0.4604	0.009
Mof_H 	H 	0.9684	0.7376	0.3692	0.141
Mof_H 	H 	0.9301	0.6928	0.3859	0.115
Mof_H 	H 	0.8435	0.8061	0.3293	0.097
Mof_H 	H 	0.732	0.791	0.3226	0.006
Mof_H 	H 	0.6872	0.7246	0.3577	0.077
Mof_H 	H 	0.754	0.6732	0.3994	0.025
Mof_H 	H 	0.8655	0.6883	0.4061	0.087
Mof_H 	H 	0.188	0.3657	0.5221	0.081
Mof_H 	H 	0.2424	0.329	0.5069	0.067
Mof_H 	H 	0.1915	0.3997	0.4702	-0.001
Mof_H 	H 	0.2071	0.3566	0.3949	0.111
Mof_H 	H 	0.1994	0.3149	0.4297	0.09
Mof_H 	H 	0.1718	0.5419	0.4119	0.041
Mof_H 	H 	0.1459	0.6611	0.3376	0.056
Mof_H 	H 	0.2585	0.5589	0.2846	0.05
Mof_H 	H 	0.144	0.6905	0.2675	0.11
Mof_H 	H 	0.1792	0.7397	0.2058	0.01
Mof_H 	H 	0.3051	0.6135	0.2493	0.122
Mof_H 	H 	0.114	0.5651	0.4638	0.102
Mof_H 	H 	0.058	0.5922	0.523	0.015
Mof_H 	H 	0.0851	0.6856	0.3922	0.12
Mof_H 	H 	0.3071	0.4944	0.2959	0.127
Mof_H 	H 	0.3514	0.4226	0.3054	-0.007
Mof_H 	H 	0.2144	0.4817	0.4164	0.122
Mof_H 	H 	0.9611	0.3388	0.8895	0.057
Mof_H 	H 	0.9604	0.3916	0.8733	0.082
Mof_H 	H 	0.8545	0.3373	0.8887	-0.039
Mof_H 	H 	0.7893	0.4053	0.8661	0.212
Mof_H 	H 	0.8528	0.4307	0.8476	0.228
Mof_H 	H 	0.7947	0.3803	0.9547	0.284
Mof_H 	H 	0.8028	0.4096	0.0266	-0.208
Mof_H 	H 	0.862	0.4747	0.0403	0.257
Mof_H 	H 	0.9344	0.5017	0.9779	-0.147
Mof_H 	H 	0.9064	0.4774	0.9019	0.266
Mof_H 	H 	0.4256	0.1998	0.5174	0.003
Mof_H 	H 	0.4303	0.186	0.5709	0.029
Mof_H 	H 	0.4171	0.2778	0.5396	0.009
Mof_H 	H 	0.4684	0.2624	0.6308	0.137
Mof_H 	H 	0.4301	0.3072	0.6141	0.112
Mof_H 	H 	0.3435	0.1939	0.6707	0.095
Mof_H 	H 	0.232	0.209	0.6774	0.006
Mof_H 	H 	0.1872	0.2754	0.6423	0.076
Mof_H 	H 	0.254	0.3268	0.6006	0.025
Mof_H 	H 	0.3655	0.3117	0.5939	0.086
Mof_H 	H 	0.688	0.6343	0.4779	0.082
Mof_H 	H 	0.7424	0.671	0.4931	0.068
Mof_H 	H 	0.6915	0.6003	0.5298	-0
Mof_H 	H 	0.7071	0.6434	0.6051	0.111
Mof_H 	H 	0.6994	0.6851	0.5703	0.09
Mof_H 	H 	0.6718	0.4581	0.5881	0.042
Mof_H 	H 	0.6459	0.3389	0.6624	0.057
Mof_H 	H 	0.7585	0.4411	0.7154	0.05
Mof_H 	H 	0.644	0.3095	0.7325	0.111
Mof_H 	H 	0.6792	0.2603	0.7942	0.01
Mof_H 	H 	0.8051	0.3865	0.7507	0.122
Mof_H 	H 	0.614	0.4349	0.5362	0.101
Mof_H 	H 	0.558	0.4078	0.477	0.019
Mof_H 	H 	0.5851	0.3144	0.6078	0.119
Mof_H 	H 	0.8071	0.5056	0.7041	0.127
Mof_H 	H 	0.8514	0.5774	0.6946	-0.006
Mof_H 	H 	0.7144	0.5183	0.5836	0.122
Mof_C 	C 	0.5815	0.2054	0.6662	0.338
Mof_C 	C 	0.5549	0.1344	0.6398	-0.1
Mof_C 	C 	0.6289	0.1348	0.6404	0.206
Mof_C 	C 	0.6638	0.1291	0.5912	-0.603
Mof_C 	C 	0.6505	0.0799	0.5725	0.628
Mof_C 	C 	0.6802	0.0409	0.5928	-0.739
Mof_C 	C 	0.6748	0.998	0.5759	0.683
Mof_C 	C 	0.6384	0.9894	0.5391	-0.652
Mof_C 	C 	0.5985	0.0274	0.5204	0.508
Mof_C 	C 	0.6127	0.0723	0.5375	-0.673
Mof_C 	C 	0.9479	0.461	0.7672	0.356
Mof_C 	C 	0.0503	0.4537	0.7949	0.044
Mof_C 	C 	0.0532	0.4392	0.7393	0.078
Mof_C 	C 	0.06777	0.38862	0.72683	-0.265
Mof_C 	C 	0.13443	0.36832	0.74867	0.136
Mof_C 	C 	0.17443	0.34332	0.77945	-0.176
Mof_C 	C 	0.24124	0.33933	0.77043	0.064
Mof_C 	C 	0.26806	0.36034	0.73062	-0.127
Mof_C 	C 	0.22806	0.38534	0.69983	0.042
Mof_C 	C 	0.16125	0.38934	0.70886	-0.143
Mof_C 	C 	0.69654	0.48662	0.4156	0.295
Mof_C 	C 	0.7702	0.50608	0.36197	-0.131
Mof_C 	C 	0.7734	0.46424	0.37687	0.185
Mof_C 	C 	0.81287	0.42462	0.34756	-0.229
Mof_C 	C 	0.8217	0.38475	0.55961	-0.047
Mof_C 	C 	0.8512	0.3802	0.604	-0.01
Mof_C 	C 	0.8361	0.3402	0.6311	-0.055
Mof_C 	C 	0.7956	0.3049	0.6152	-0.013
Mof_C 	C 	0.7686	0.3084	0.5702	-0.05
Mof_C 	C 	0.7818	0.3477	0.5418	-0.025
Mof_C 	C 	0.7768	0.2656	0.6469	0.128
Mof_C 	C 	0.8163	0.2524	0.6848	-0.184
Mof_C 	C 	0.7942	0.2149	0.7148	0.127
Mof_C 	C 	0.7363	0.1923	0.7083	-0.228
Mof_C 	C 	0.6988	0.2037	0.6698	0.219
Mof_C 	C 	0.7206	0.2414	0.6394	-0.223
Mof_C 	C 	0.8923	0.4184	0.6218	0.111
Mof_C 	C 	0.9038	0.4614	0.5951	-0.176
Mof_C 	C 	0.9376	0.4964	0.611	0.122
Mof_C 	C 	0.9684	0.4963	0.6562	-0.19
Mof_C 	C 	0.9585	0.4565	0.6824	0.199
Mof_C 	C 	0.9208	0.4182	0.6662	-0.206
Mof_C 	C 	0.7487	0.3535	0.4945	0.16
Mof_C 	C 	0.7041	0.3223	0.4768	-0.235
Mof_C 	C 	0.6758	0.329	0.4344	0.169
Mof_C 	C 	0.6852	0.3687	0.4076	-0.234
Mof_C 	C 	0.727	0.4031	0.428	0.221
Mof_C 	C 	0.7573	0.3938	0.4695	-0.254
Mof_C 	C 	0.7179	0.157	0.7458	0.469
Mof_C 	C 	0.0054	0.5391	0.6716	0.422
Mof_C 	C 	0.6464	0.3764	0.3639	0.455
Mof_C 	C 	0.0815	0.7946	0.3338	0.338
Mof_C 	C 	0.0549	0.8656	0.3602	-0.097
Mof_C 	C 	0.1289	0.8652	0.3596	0.204
Mof_C 	C 	0.1638	0.8709	0.4088	-0.601
Mof_C 	C 	0.1505	0.9201	0.4275	0.625
Mof_C 	C 	0.1802	0.9591	0.4072	-0.736
Mof_C 	C 	0.1748	0.002	0.4241	0.68
Mof_C 	C 	0.1384	0.0106	0.4609	-0.651
Mof_C 	C 	0.0985	0.9726	0.4796	0.506
Mof_C 	C 	0.1127	0.9277	0.4625	-0.672
Mof_C 	C 	0.4479	0.539	0.2328	0.357
Mof_C 	C 	0.5503	0.5463	0.2051	0.055
Mof_C 	C 	0.5532	0.5608	0.2607	0.083
Mof_C 	C 	0.56777	0.61138	0.27317	-0.269
Mof_C 	C 	0.63443	0.63168	0.25133	0.139
Mof_C 	C 	0.67443	0.65668	0.22055	-0.178
Mof_C 	C 	0.74124	0.66067	0.22957	0.067
Mof_C 	C 	0.76806	0.63966	0.26938	-0.129
Mof_C 	C 	0.72806	0.61466	0.30017	0.044
Mof_C 	C 	0.66125	0.61066	0.29114	-0.145
Mof_C 	C 	0.19654	0.51338	0.5844	0.295
Mof_C 	C 	0.2702	0.49392	0.63803	-0.13
Mof_C 	C 	0.2734	0.53576	0.62313	0.185
Mof_C 	C 	0.31287	0.57538	0.65244	-0.23
Mof_C 	C 	0.3217	0.61525	0.44039	-0.046
Mof_C 	C 	0.3512	0.6198	0.396	-0.012
Mof_C 	C 	0.3361	0.6598	0.3689	-0.055
Mof_C 	C 	0.2956	0.6951	0.3848	-0.014
Mof_C 	C 	0.2686	0.6916	0.4298	-0.049
Mof_C 	C 	0.2818	0.6523	0.4582	-0.026
Mof_C 	C 	0.2768	0.7344	0.3531	0.128
Mof_C 	C 	0.3163	0.7476	0.3152	-0.184
Mof_C 	C 	0.2942	0.7851	0.2852	0.127
Mof_C 	C 	0.2363	0.8077	0.2917	-0.228
Mof_C 	C 	0.1988	0.7963	0.3302	0.219
Mof_C 	C 	0.2206	0.7586	0.3606	-0.223
Mof_C 	C 	0.3923	0.5816	0.3782	0.113
Mof_C 	C 	0.4038	0.5386	0.4049	-0.181
Mof_C 	C 	0.4376	0.5036	0.389	0.128
Mof_C 	C 	0.4684	0.5037	0.3438	-0.201
Mof_C 	C 	0.4585	0.5435	0.3176	0.201
Mof_C 	C 	0.4208	0.5818	0.3338	-0.21
Mof_C 	C 	0.2487	0.6465	0.5055	0.161
Mof_C 	C 	0.2041	0.6777	0.5232	-0.235
Mof_C 	C 	0.1758	0.671	0.5656	0.169
Mof_C 	C 	0.1852	0.6313	0.5924	-0.235
Mof_C 	C 	0.227	0.5969	0.572	0.221
Mof_C 	C 	0.2573	0.6062	0.5305	-0.254
Mof_C 	C 	0.2179	0.843	0.2542	0.469
Mof_C 	C 	0.5054	0.4609	0.3284	0.431
Mof_C 	C 	0.1464	0.6236	0.6361	0.455
Mof_C 	C 	0.8315	0.8338	0.7054	0.337
Mof_C 	C 	0.8049	0.8602	0.6344	-0.1
Mof_C 	C 	0.8789	0.8596	0.6348	0.206
Mof_C 	C 	0.9138	0.9088	0.6291	-0.605
Mof_C 	C 	0.9005	0.9275	0.5799	0.63
Mof_C 	C 	0.9302	0.9072	0.5409	-0.74
Mof_C 	C 	0.9248	0.9241	0.498	0.686
Mof_C 	C 	0.8884	0.9609	0.4894	-0.653
Mof_C 	C 	0.8485	0.9796	0.5274	0.511
Mof_C 	C 	0.8627	0.9625	0.5723	-0.675
Mof_C 	C 	0.1979	0.7328	0.961	0.357
Mof_C 	C 	0.3003	0.7051	0.9537	0.055
Mof_C 	C 	0.3032	0.7607	0.9392	0.083
Mof_C 	C 	0.31777	0.77317	0.88862	-0.269
Mof_C 	C 	0.38443	0.75133	0.86832	0.139
Mof_C 	C 	0.42443	0.72055	0.84332	-0.178
Mof_C 	C 	0.49124	0.72957	0.83933	0.066
Mof_C 	C 	0.51806	0.76938	0.86034	-0.129
Mof_C 	C 	0.47806	0.80017	0.88534	0.044
Mof_C 	C 	0.41125	0.79114	0.88934	-0.145
Mof_C 	C 	0.94654	0.0844	0.98662	0.296
Mof_C 	C 	0.0202	0.13803	0.00608	-0.134
Mof_C 	C 	0.0234	0.12313	0.96424	0.177
Mof_C 	C 	0.06287	0.15244	0.92462	-0.228
Mof_C 	C 	0.0717	0.94039	0.88475	-0.043
Mof_C 	C 	0.1012	0.896	0.8802	-0.012
Mof_C 	C 	0.0861	0.8689	0.8402	-0.061
Mof_C 	C 	0.0456	0.8848	0.8049	-0.004
Mof_C 	C 	0.0186	0.9298	0.8084	-0.063
Mof_C 	C 	0.0318	0.9582	0.8477	-0.037
Mof_C 	C 	0.0268	0.8531	0.7656	0.106
Mof_C 	C 	0.0663	0.8152	0.7524	-0.168
Mof_C 	C 	0.0442	0.7852	0.7149	0.104
Mof_C 	C 	0.9863	0.7917	0.6923	-0.212
Mof_C 	C 	0.9488	0.8302	0.7037	0.208
Mof_C 	C 	0.9706	0.8606	0.7414	-0.2
Mof_C 	C 	0.1423	0.8782	0.9184	0.112
Mof_C 	C 	0.1538	0.9049	0.9614	-0.181
Mof_C 	C 	0.1876	0.889	0.9964	0.128
Mof_C 	C 	0.2184	0.8438	0.9963	-0.2
Mof_C 	C 	0.2085	0.8176	0.9565	0.201
Mof_C 	C 	0.1708	0.8338	0.9182	-0.21
Mof_C 	C 	0.9987	0.0055	0.8535	0.194
Mof_C 	C 	0.9541	0.0232	0.8223	-0.259
Mof_C 	C 	0.9258	0.0656	0.829	0.189
Mof_C 	C 	0.9352	0.0924	0.8687	-0.248
Mof_C 	C 	0.977	0.072	0.9031	0.244
Mof_C 	C 	0.0073	0.0305	0.8938	-0.295
Mof_C 	C 	0.9679	0.7542	0.657	0.474
Mof_C 	C 	0.2554	0.8284	0.0391	0.431
Mof_C 	C 	0.8964	0.1361	0.8764	0.46
Mof_C 	C 	0.3315	0.1662	0.2946	0.338
Mof_C 	C 	0.3049	0.1398	0.3656	-0.099
Mof_C 	C 	0.3789	0.1404	0.3652	0.205
Mof_C 	C 	0.4138	0.0912	0.3709	-0.602
Mof_C 	C 	0.4005	0.0725	0.4201	0.625
Mof_C 	C 	0.4302	0.0928	0.4591	-0.736
Mof_C 	C 	0.4248	0.0759	0.502	0.68
Mof_C 	C 	0.3884	0.0391	0.5106	-0.649
Mof_C 	C 	0.3485	0.0204	0.4726	0.505
Mof_C 	C 	0.3627	0.0375	0.4277	-0.671
Mof_C 	C 	0.6979	0.2672	0.039	0.357
Mof_C 	C 	0.8003	0.2949	0.0463	0.053
Mof_C 	C 	0.8032	0.2393	0.0608	0.087
Mof_C 	C 	0.81777	0.22683	0.11138	-0.28
Mof_C 	C 	0.88443	0.24867	0.13168	0.168
Mof_C 	C 	0.92443	0.27945	0.15668	-0.224
Mof_C 	C 	0.99124	0.27043	0.16067	0.137
Mof_C 	C 	0.01806	0.23062	0.13966	-0.198
Mof_C 	C 	0.97806	0.19983	0.11466	0.099
Mof_C 	C 	0.91125	0.20886	0.11066	-0.182
Mof_C 	C 	0.44654	0.9156	0.01338	0.295
Mof_C 	C 	0.5202	0.86197	0.99392	-0.13
Mof_C 	C 	0.5234	0.87687	0.03576	0.185
Mof_C 	C 	0.56287	0.84756	0.07538	-0.23
Mof_C 	C 	0.5717	0.05961	0.11525	-0.046
Mof_C 	C 	0.6012	0.104	0.1198	-0.012
Mof_C 	C 	0.5861	0.1311	0.1598	-0.055
Mof_C 	C 	0.5456	0.1152	0.1951	-0.014
Mof_C 	C 	0.5186	0.0702	0.1916	-0.049
Mof_C 	C 	0.5318	0.0418	0.1523	-0.026
Mof_C 	C 	0.5268	0.1469	0.2344	0.128
Mof_C 	C 	0.5663	0.1848	0.2476	-0.184
Mof_C 	C 	0.5442	0.2148	0.2851	0.127
Mof_C 	C 	0.4863	0.2083	0.3077	-0.228
Mof_C 	C 	0.4488	0.1698	0.2963	0.219
Mof_C 	C 	0.4706	0.1394	0.2586	-0.223
Mof_C 	C 	0.6423	0.1218	0.0816	0.113
Mof_C 	C 	0.6538	0.0951	0.0386	-0.181
Mof_C 	C 	0.6876	0.111	0.0036	0.129
Mof_C 	C 	0.7184	0.1562	0.0037	-0.201
Mof_C 	C 	0.7085	0.1824	0.0435	0.201
Mof_C 	C 	0.6708	0.1662	0.0818	-0.21
Mof_C 	C 	0.4987	0.9945	0.1465	0.16
Mof_C 	C 	0.4541	0.9768	0.1777	-0.235
Mof_C 	C 	0.4258	0.9344	0.171	0.169
Mof_C 	C 	0.4352	0.9076	0.1313	-0.234
Mof_C 	C 	0.477	0.928	0.0969	0.221
Mof_C 	C 	0.5073	0.9695	0.1062	-0.254
Mof_C 	C 	0.4679	0.2458	0.343	0.469
Mof_C 	C 	0.7554	0.1716	0.9609	0.431
Mof_C 	C 	0.3964	0.8639	0.1236	0.455
Mof_C 	C 	0.6685	0.2946	0.1662	0.338
Mof_C 	C 	0.6951	0.3656	0.1398	-0.099
Mof_C 	C 	0.6211	0.3652	0.1404	0.205
Mof_C 	C 	0.5862	0.3709	0.0912	-0.602
Mof_C 	C 	0.5995	0.4201	0.0725	0.626
Mof_C 	C 	0.5698	0.4591	0.0928	-0.736
Mof_C 	C 	0.5752	0.502	0.0759	0.681
Mof_C 	C 	0.6116	0.5106	0.0391	-0.65
Mof_C 	C 	0.6515	0.4726	0.0204	0.506
Mof_C 	C 	0.6373	0.4277	0.0375	-0.671
Mof_C 	C 	0.3021	0.039	0.2672	0.357
Mof_C 	C 	0.1997	0.0463	0.2949	0.057
Mof_C 	C 	0.1968	0.0608	0.2393	0.079
Mof_C 	C 	0.18223	0.11138	0.22683	-0.257
Mof_C 	C 	0.11557	0.13168	0.24867	0.11
Mof_C 	C 	0.07557	0.15668	0.27945	-0.133
Mof_C 	C 	0.00876	0.16067	0.27043	-0.005
Mof_C 	C 	0.98194	0.13966	0.23062	-0.058
Mof_C 	C 	0.02194	0.11466	0.19983	-0.012
Mof_C 	C 	0.08875	0.11066	0.20886	-0.107
Mof_C 	C 	0.55346	0.01338	0.9156	0.294
Mof_C 	C 	0.4798	0.99392	0.86197	-0.129
Mof_C 	C 	0.4766	0.03576	0.87687	0.184
Mof_C 	C 	0.43713	0.07538	0.84756	-0.23
Mof_C 	C 	0.4283	0.11525	0.05961	-0.046
Mof_C 	C 	0.3988	0.1198	0.104	-0.012
Mof_C 	C 	0.4139	0.1598	0.1311	-0.055
Mof_C 	C 	0.4544	0.1951	0.1152	-0.014
Mof_C 	C 	0.4814	0.1916	0.0702	-0.05
Mof_C 	C 	0.4682	0.1523	0.0418	-0.025
Mof_C 	C 	0.4732	0.2344	0.1469	0.128
Mof_C 	C 	0.4337	0.2476	0.1848	-0.184
Mof_C 	C 	0.4558	0.2851	0.2148	0.127
Mof_C 	C 	0.5137	0.3077	0.2083	-0.228
Mof_C 	C 	0.5512	0.2963	0.1698	0.219
Mof_C 	C 	0.5294	0.2586	0.1394	-0.223
Mof_C 	C 	0.3577	0.0816	0.1218	0.113
Mof_C 	C 	0.3462	0.0386	0.0951	-0.181
Mof_C 	C 	0.3124	0.0036	0.111	0.129
Mof_C 	C 	0.2816	0.0037	0.1562	-0.201
Mof_C 	C 	0.2915	0.0435	0.1824	0.201
Mof_C 	C 	0.3292	0.0818	0.1662	-0.21
Mof_C 	C 	0.5013	0.1465	0.9945	0.16
Mof_C 	C 	0.5459	0.1777	0.9768	-0.234
Mof_C 	C 	0.5742	0.171	0.9344	0.168
Mof_C 	C 	0.5648	0.1313	0.9076	-0.234
Mof_C 	C 	0.523	0.0969	0.928	0.22
Mof_C 	C 	0.4927	0.1062	0.9695	-0.253
Mof_C 	C 	0.5321	0.343	0.2458	0.469
Mof_C 	C 	0.2446	0.9609	0.1716	0.432
Mof_C 	C 	0.6036	0.1236	0.8639	0.455
Mof_C 	C 	0.1685	0.7054	0.8338	0.338
Mof_C 	C 	0.1951	0.6344	0.8602	-0.099
Mof_C 	C 	0.1211	0.6348	0.8596	0.205
Mof_C 	C 	0.0862	0.6291	0.9088	-0.599
Mof_C 	C 	0.0995	0.5799	0.9275	0.621
Mof_C 	C 	0.0698	0.5409	0.9072	-0.733
Mof_C 	C 	0.0752	0.498	0.9241	0.675
Mof_C 	C 	0.1116	0.4894	0.9609	-0.646
Mof_C 	C 	0.1515	0.5274	0.9796	0.502
Mof_C 	C 	0.1373	0.5723	0.9625	-0.668
Mof_C 	C 	0.8021	0.961	0.7328	0.357
Mof_C 	C 	0.6997	0.9537	0.7051	0.055
Mof_C 	C 	0.6968	0.9392	0.7607	0.083
Mof_C 	C 	0.68223	0.88862	0.77317	-0.269
Mof_C 	C 	0.61557	0.86832	0.75133	0.139
Mof_C 	C 	0.57557	0.84332	0.72055	-0.178
Mof_C 	C 	0.50876	0.83933	0.72957	0.066
Mof_C 	C 	0.48194	0.86034	0.76938	-0.129
Mof_C 	C 	0.52194	0.88534	0.80017	0.044
Mof_C 	C 	0.58875	0.88934	0.79114	-0.145
Mof_C 	C 	0.05346	0.98662	0.0844	0.294
Mof_C 	C 	0.9798	0.00608	0.13803	-0.123
Mof_C 	C 	0.9766	0.96424	0.12313	0.189
Mof_C 	C 	0.93713	0.92462	0.15244	-0.231
Mof_C 	C 	0.9283	0.88475	0.94039	-0.049
Mof_C 	C 	0.8988	0.8802	0.896	-0.012
Mof_C 	C 	0.9139	0.8402	0.8689	-0.048
Mof_C 	C 	0.9544	0.8049	0.8848	-0.025
Mof_C 	C 	0.9814	0.8084	0.9298	-0.035
Mof_C 	C 	0.9682	0.8477	0.9582	-0.015
Mof_C 	C 	0.9732	0.7656	0.8531	0.152
Mof_C 	C 	0.9337	0.7524	0.8152	-0.201
Mof_C 	C 	0.9558	0.7149	0.7852	0.15
Mof_C 	C 	0.0137	0.6923	0.7917	-0.244
Mof_C 	C 	0.0512	0.7037	0.8302	0.229
Mof_C 	C 	0.0294	0.7414	0.8606	-0.246
Mof_C 	C 	0.8577	0.9184	0.8782	0.115
Mof_C 	C 	0.8462	0.9614	0.9049	-0.182
Mof_C 	C 	0.8124	0.9964	0.889	0.13
Mof_C 	C 	0.7816	0.9963	0.8438	-0.201
Mof_C 	C 	0.7915	0.9565	0.8176	0.202
Mof_C 	C 	0.8292	0.9182	0.8338	-0.21
Mof_C 	C 	0.0013	0.8535	0.0055	0.129
Mof_C 	C 	0.0459	0.8223	0.0232	-0.212
Mof_C 	C 	0.0742	0.829	0.0656	0.15
Mof_C 	C 	0.0648	0.8687	0.0924	-0.222
Mof_C 	C 	0.023	0.9031	0.072	0.199
Mof_C 	C 	0.9927	0.8938	0.0305	-0.216
Mof_C 	C 	0.0321	0.657	0.7542	0.464
Mof_C 	C 	0.7446	0.0391	0.8284	0.431
Mof_C 	C 	0.1036	0.8764	0.1361	0.45
Mof_C 	C 	0.4185	0.6662	0.2054	0.338
Mof_C 	C 	0.4451	0.6398	0.1344	-0.099
Mof_C 	C 	0.3711	0.6404	0.1348	0.205
Mof_C 	C 	0.3362	0.5912	0.1291	-0.601
Mof_C 	C 	0.3495	0.5725	0.0799	0.625
Mof_C 	C 	0.3198	0.5928	0.0409	-0.735
Mof_C 	C 	0.3252	0.5759	0.998	0.679
Mof_C 	C 	0.3616	0.5391	0.9894	-0.649
Mof_C 	C 	0.4015	0.5204	0.0274	0.506
Mof_C 	C 	0.3873	0.5375	0.0723	-0.671
Mof_C 	C 	0.0521	0.7672	0.461	0.358
Mof_C 	C 	0.9497	0.7949	0.4537	0.065
Mof_C 	C 	0.9468	0.7393	0.4392	0.087
Mof_C 	C 	0.93223	0.72683	0.38862	-0.272
Mof_C 	C 	0.86557	0.74867	0.36832	0.142
Mof_C 	C 	0.82557	0.77945	0.34332	-0.18
Mof_C 	C 	0.75876	0.77043	0.33933	0.068
Mof_C 	C 	0.73194	0.73062	0.36034	-0.13
Mof_C 	C 	0.77194	0.69983	0.38534	0.046
Mof_C 	C 	0.83875	0.70886	0.38934	-0.147
Mof_C 	C 	0.30346	0.4156	0.48662	0.295
Mof_C 	C 	0.2298	0.36197	0.50608	-0.13
Mof_C 	C 	0.2266	0.37687	0.46424	0.185
Mof_C 	C 	0.18713	0.34756	0.42462	-0.231
Mof_C 	C 	0.1783	0.55961	0.38475	-0.045
Mof_C 	C 	0.1488	0.604	0.3802	-0.014
Mof_C 	C 	0.1639	0.6311	0.3402	-0.054
Mof_C 	C 	0.2044	0.6152	0.3049	-0.015
Mof_C 	C 	0.2314	0.5702	0.3084	-0.049
Mof_C 	C 	0.2182	0.5418	0.3477	-0.027
Mof_C 	C 	0.2232	0.6469	0.2656	0.129
Mof_C 	C 	0.1837	0.6848	0.2524	-0.185
Mof_C 	C 	0.2058	0.7148	0.2149	0.127
Mof_C 	C 	0.2637	0.7083	0.1923	-0.228
Mof_C 	C 	0.3012	0.6698	0.2037	0.219
Mof_C 	C 	0.2794	0.6394	0.2414	-0.223
Mof_C 	C 	0.1077	0.6218	0.4184	0.115
Mof_C 	C 	0.0962	0.5951	0.4614	-0.186
Mof_C 	C 	0.0624	0.611	0.4964	0.134
Mof_C 	C 	0.0316	0.6562	0.4963	-0.211
Mof_C 	C 	0.0415	0.6824	0.4565	0.204
Mof_C 	C 	0.0792	0.6662	0.4182	-0.213
Mof_C 	C 	0.2513	0.4945	0.3535	0.16
Mof_C 	C 	0.2959	0.4768	0.3223	-0.235
Mof_C 	C 	0.3242	0.4344	0.329	0.169
Mof_C 	C 	0.3148	0.4076	0.3687	-0.235
Mof_C 	C 	0.273	0.428	0.4031	0.221
Mof_C 	C 	0.2427	0.4695	0.3938	-0.254
Mof_C 	C 	0.2821	0.7458	0.157	0.469
Mof_C 	C 	0.9946	0.6716	0.5391	0.44
Mof_C 	C 	0.3536	0.3639	0.3764	0.455
Mof_C 	C 	0.9185	0.3338	0.7946	0.337
Mof_C 	C 	0.9451	0.3602	0.8656	-0.102
Mof_C 	C 	0.8711	0.3596	0.8652	0.207
Mof_C 	C 	0.8362	0.4088	0.8709	-0.603
Mof_C 	C 	0.8495	0.4275	0.9201	0.627
Mof_C 	C 	0.8198	0.4072	0.9591	-0.737
Mof_C 	C 	0.8252	0.4241	0.002	0.682
Mof_C 	C 	0.8616	0.4609	0.0106	-0.65
Mof_C 	C 	0.9015	0.4796	0.9726	0.508
Mof_C 	C 	0.8873	0.4625	0.9277	-0.672
Mof_C 	C 	0.5521	0.2328	0.539	0.357
Mof_C 	C 	0.4497	0.2051	0.5463	0.055
Mof_C 	C 	0.4468	0.2607	0.5608	0.083
Mof_C 	C 	0.43223	0.27317	0.61138	-0.269
Mof_C 	C 	0.36557	0.25133	0.63168	0.139
Mof_C 	C 	0.32557	0.22055	0.65668	-0.179
Mof_C 	C 	0.25876	0.22957	0.66067	0.066
Mof_C 	C 	0.23194	0.26938	0.63966	-0.129
Mof_C 	C 	0.27194	0.30017	0.61466	0.044
Mof_C 	C 	0.33875	0.29114	0.61066	-0.145
Mof_C 	C 	0.80346	0.5844	0.51338	0.295
Mof_C 	C 	0.7298	0.63803	0.49392	-0.131
Mof_C 	C 	0.7266	0.62313	0.53576	0.185
Mof_C 	C 	0.68713	0.65244	0.57538	-0.23
Mof_C 	C 	0.6783	0.44039	0.61525	-0.046
Mof_C 	C 	0.6488	0.396	0.6198	-0.012
Mof_C 	C 	0.6639	0.3689	0.6598	-0.055
Mof_C 	C 	0.7044	0.3848	0.6951	-0.014
Mof_C 	C 	0.7314	0.4298	0.6916	-0.049
Mof_C 	C 	0.7182	0.4582	0.6523	-0.026
Mof_C 	C 	0.7232	0.3531	0.7344	0.128
Mof_C 	C 	0.6837	0.3152	0.7476	-0.184
Mof_C 	C 	0.7058	0.2852	0.7851	0.127
Mof_C 	C 	0.7637	0.2917	0.8077	-0.228
Mof_C 	C 	0.8012	0.3302	0.7963	0.219
Mof_C 	C 	0.7794	0.3606	0.7586	-0.223
Mof_C 	C 	0.6077	0.3782	0.5816	0.113
Mof_C 	C 	0.5962	0.4049	0.5386	-0.181
Mof_C 	C 	0.5624	0.389	0.5036	0.128
Mof_C 	C 	0.5316	0.3438	0.5037	-0.201
Mof_C 	C 	0.5415	0.3176	0.5435	0.201
Mof_C 	C 	0.5792	0.3338	0.5818	-0.21
Mof_C 	C 	0.7513	0.5055	0.6465	0.16
Mof_C 	C 	0.7959	0.5232	0.6777	-0.234
Mof_C 	C 	0.8242	0.5656	0.671	0.168
Mof_C 	C 	0.8148	0.5924	0.6313	-0.234
Mof_C 	C 	0.773	0.572	0.5969	0.22
Mof_C 	C 	0.7427	0.5305	0.6062	-0.253
Mof_C 	C 	0.7821	0.2542	0.843	0.469
Mof_C 	C 	0.4946	0.3284	0.4609	0.431
Mof_C 	C 	0.8536	0.6361	0.6236	0.455
Mof_N 	N 	0.6389	0.183	0.6592	-0.211
Mof_N 	N 	0.9853	0.4513	0.7293	-0.19
Mof_N 	N 	0.73399	0.45003	0.40542	-0.222
Mof_N 	N 	0.1389	0.817	0.3408	-0.211
Mof_N 	N 	0.4853	0.5487	0.2707	-0.195
Mof_N 	N 	0.23399	0.54997	0.59458	-0.222
Mof_N 	N 	0.8889	0.8408	0.683	-0.209
Mof_N 	N 	0.2353	0.7707	0.9513	-0.195
Mof_N 	N 	0.98399	0.09458	0.95003	-0.22
Mof_N 	N 	0.3889	0.1592	0.317	-0.211
Mof_N 	N 	0.7353	0.2293	0.0487	-0.195
Mof_N 	N 	0.48399	0.90542	0.04997	-0.222
Mof_N 	N 	0.6111	0.317	0.1592	-0.211
Mof_N 	N 	0.2647	0.0487	0.2293	-0.194
Mof_N 	N 	0.51601	0.04997	0.90542	-0.222
Mof_N 	N 	0.1111	0.683	0.8408	-0.212
Mof_N 	N 	0.7647	0.9513	0.7707	-0.195
Mof_N 	N 	0.01601	0.95003	0.09458	-0.224
Mof_N 	N 	0.3611	0.6592	0.183	-0.211
Mof_N 	N 	0.0147	0.7293	0.4513	-0.199
Mof_N 	N 	0.26601	0.40542	0.45003	-0.222
Mof_N 	N 	0.8611	0.3408	0.817	-0.211
Mof_N 	N 	0.5147	0.2707	0.5487	-0.195
Mof_N 	N 	0.76601	0.59458	0.54997	-0.222
Mof_O 	O 	0.5743	0.2473	0.6769	-0.266
Mof_O 	O 	0.53	0.1786	0.6532	-0.227
Mof_O 	O 	0.8905	0.4686	0.7697	-0.289
Mof_O 	O 	0.9893	0.4593	0.8059	-0.259
Mof_O 	O 	0.6369	0.49129	0.4231	-0.23
Mof_O 	O 	0.72549	0.52511	0.38825	-0.186
Mof_O 	O 	0.66345	0.13619	0.74106	-0.515
Mof_O 	O 	0.75449	0.1509	0.77869	-0.482
Mof_O 	O 	0.00209	0.57459	0.64475	-0.448
Mof_O 	O 	0.04168	0.53718	0.70768	-0.505
Mof_O 	O 	0.60309	0.34874	0.35436	-0.483
Mof_O 	O 	0.66323	0.41034	0.33718	-0.498
Mof_O 	O 	0.0743	0.7527	0.3231	-0.268
Mof_O 	O 	0.03	0.8214	0.3468	-0.23
Mof_O 	O 	0.3905	0.5314	0.2303	-0.29
Mof_O 	O 	0.4893	0.5407	0.1941	-0.267
Mof_O 	O 	0.1369	0.50871	0.5769	-0.231
Mof_O 	O 	0.22549	0.47489	0.61175	-0.187
Mof_O 	O 	0.16345	0.86381	0.25894	-0.515
Mof_O 	O 	0.25449	0.8491	0.22131	-0.482
Mof_O 	O 	0.50209	0.42541	0.35525	-0.446
Mof_O 	O 	0.54168	0.46282	0.29232	-0.505
Mof_O 	O 	0.10309	0.65126	0.64564	-0.484
Mof_O 	O 	0.16323	0.58966	0.66282	-0.498
Mof_O 	O 	0.8243	0.8231	0.7473	-0.266
Mof_O 	O 	0.78	0.8468	0.6786	-0.227
Mof_O 	O 	0.1405	0.7303	0.9686	-0.29
Mof_O 	O 	0.2393	0.6941	0.9593	-0.267
Mof_O 	O 	0.8869	0.0769	0.99129	-0.229
Mof_O 	O 	0.97549	0.11175	0.02511	-0.181
Mof_O 	O 	0.91345	0.75894	0.63619	-0.515
Mof_O 	O 	0.00449	0.72131	0.6509	-0.49
Mof_O 	O 	0.25209	0.85525	0.07459	-0.446
Mof_O 	O 	0.29168	0.79232	0.03718	-0.505
Mof_O 	O 	0.85309	0.14564	0.84874	-0.484
Mof_O 	O 	0.91323	0.16282	0.91034	-0.497
Mof_O 	O 	0.3243	0.1769	0.2527	-0.266
Mof_O 	O 	0.28	0.1532	0.3214	-0.227
Mof_O 	O 	0.6405	0.2697	0.0314	-0.29
Mof_O 	O 	0.7393	0.3059	0.0407	-0.266
Mof_O 	O 	0.3869	0.9231	0.00871	-0.23
Mof_O 	O 	0.47549	0.88825	0.97489	-0.186
Mof_O 	O 	0.41345	0.24106	0.36381	-0.515
Mof_O 	O 	0.50449	0.27869	0.3491	-0.482
Mof_O 	O 	0.75209	0.14475	0.92541	-0.446
Mof_O 	O 	0.79168	0.20768	0.96282	-0.504
Mof_O 	O 	0.35309	0.85436	0.15126	-0.483
Mof_O 	O 	0.41323	0.83718	0.08966	-0.498
Mof_O 	O 	0.6757	0.2527	0.1769	-0.266
Mof_O 	O 	0.72	0.3214	0.1532	-0.227
Mof_O 	O 	0.3595	0.0314	0.2697	-0.29
Mof_O 	O 	0.2607	0.0407	0.3059	-0.268
Mof_O 	O 	0.6131	0.00871	0.9231	-0.23
Mof_O 	O 	0.52451	0.97489	0.88825	-0.186
Mof_O 	O 	0.58655	0.36381	0.24106	-0.515
Mof_O 	O 	0.49551	0.3491	0.27869	-0.482
Mof_O 	O 	0.24791	0.92541	0.14475	-0.446
Mof_O 	O 	0.20832	0.96282	0.20768	-0.505
Mof_O 	O 	0.64691	0.15126	0.85436	-0.483
Mof_O 	O 	0.58677	0.08966	0.83718	-0.498
Mof_O 	O 	0.1757	0.7473	0.8231	-0.267
Mof_O 	O 	0.22	0.6786	0.8468	-0.227
Mof_O 	O 	0.8595	0.9686	0.7303	-0.289
Mof_O 	O 	0.7607	0.9593	0.6941	-0.267
Mof_O 	O 	0.1131	0.99129	0.0769	-0.23
Mof_O 	O 	0.02451	0.02511	0.11175	-0.193
Mof_O 	O 	0.08655	0.63619	0.75894	-0.514
Mof_O 	O 	0.99551	0.6509	0.72131	-0.473
Mof_O 	O 	0.74791	0.07459	0.85525	-0.446
Mof_O 	O 	0.70832	0.03718	0.79232	-0.505
Mof_O 	O 	0.14691	0.84874	0.14564	-0.482
Mof_O 	O 	0.08677	0.91034	0.16282	-0.498
Mof_O 	O 	0.4257	0.6769	0.2473	-0.266
Mof_O 	O 	0.47	0.6532	0.1786	-0.227
Mof_O 	O 	0.1095	0.7697	0.4686	-0.291
Mof_O 	O 	0.0107	0.8059	0.4593	-0.275
Mof_O 	O 	0.3631	0.4231	0.49129	-0.23
Mof_O 	O 	0.27451	0.38825	0.52511	-0.187
Mof_O 	O 	0.33655	0.74106	0.13619	-0.515
Mof_O 	O 	0.24551	0.77869	0.1509	-0.482
Mof_O 	O 	0.99791	0.64475	0.57459	-0.444
Mof_O 	O 	0.95832	0.70768	0.53718	-0.505
Mof_O 	O 	0.39691	0.35436	0.34874	-0.483
Mof_O 	O 	0.33677	0.33718	0.41034	-0.498
Mof_O 	O 	0.9257	0.3231	0.7527	-0.264
Mof_O 	O 	0.97	0.3468	0.8214	-0.224
Mof_O 	O 	0.6095	0.2303	0.5314	-0.29
Mof_O 	O 	0.5107	0.1941	0.5407	-0.267
Mof_O 	O 	0.8631	0.5769	0.50871	-0.228
Mof_O 	O 	0.77451	0.61175	0.47489	-0.186
Mof_O 	O 	0.83655	0.25894	0.86381	-0.514
Mof_O 	O 	0.74551	0.22131	0.8491	-0.482
Mof_O 	O 	0.49791	0.35525	0.42541	-0.446
Mof_O 	O 	0.45832	0.29232	0.46282	-0.505
Mof_O 	O 	0.89691	0.64564	0.65126	-0.481
Mof_O 	O 	0.83677	0.66282	0.58966	-0.497
_end
