data_functionalizedCrystal
_audit_creation_method	'EQeq! by Chris Wilmer'
_symmetry_space_group_name_H-M	'P1'
_symmetry_Int_Tables_number	1
_symmetry_cell_setting	triclinic
loop_
_symmetry_equiv_pos_as_xyz
  x,y,z
_cell_length_a	13.9966
_cell_length_b	13.9966
_cell_length_c	30.521
_cell_angle_alpha	85.0828
_cell_angle_beta	85.0828
_cell_angle_gamma	88.5208
loop_
_atom_site_label
_atom_site_type_symbol
_atom_site_fract_x
_atom_site_fract_y
_atom_site_fract_z
_atom_site_charge
Mof_Zn	Zn	0.60187	0.19503	0.5312	1.217
Mof_Zn	Zn	0.81153	0.19571	0.51458	1.217
Mof_Zn	Zn	0.19503	0.60187	0.0312	1.217
Mof_Zn	Zn	0.19571	0.81153	0.01458	1.217
Mof_H 	H 	0.8319	0.6891	0.7174	0.047
Mof_H 	H 	0.8044	0.7738	0.7471	0.045
Mof_H 	H 	0.5687	0.8229	0.6707	0.154
Mof_H 	H 	0.5767	0.9405	0.6151	-0.03
Mof_H 	H 	0.8616	0.9472	0.616	-0.023
Mof_H 	H 	0.8554	0.8272	0.6724	0.145
Mof_H 	H 	0.8159	0.5719	0.825	0.048
Mof_H 	H 	0.8822	0.5832	0.7805	0.047
Mof_H 	H 	0.9513	0.5545	0.8575	0.139
Mof_H 	H 	0.0369	0.5633	0.9177	-0.016
Mof_H 	H 	0.0124	0.8496	0.9061	-0.012
Mof_H 	H 	0.9254	0.8424	0.8457	0.143
Mof_H 	H 	0.6956	0.7504	0.814	0.047
Mof_H 	H 	0.615	0.7104	0.7879	0.045
Mof_H 	H 	0.5445	0.7827	0.8489	0.133
Mof_H 	H 	0.4254	0.8128	0.9029	-0.013
Mof_H 	H 	0.4588	0.5436	0.9586	-0.007
Mof_H 	H 	0.5839	0.5177	0.9059	0.148
Mof_H 	H 	0.6506	0.578	0.7398	0.045
Mof_H 	H 	0.6839	0.5117	0.7802	0.045
Mof_H 	H 	0.8921	0.4451	0.6731	0.135
Mof_H 	H 	0.8634	0.3524	0.6169	-0.009
Mof_H 	H 	0.5818	0.3616	0.6531	-0.002
Mof_H 	H 	0.6082	0.4548	0.71	0.123
Mof_H 	H 	0.4604	0.123	0.4751	0.011
Mof_H 	H 	0.2983	0.1271	0.4679	0.082
Mof_H 	H 	0.2595	0.2625	0.5791	0.082
Mof_H 	H 	0.4212	0.2546	0.5831	0.005
Mof_H 	H 	0.9617	0.3217	0.541	-0
Mof_H 	H 	0.1237	0.3211	0.5464	0.081
Mof_H 	H 	0.1468	0.0776	0.487	0.093
Mof_H 	H 	0.9828	0.0868	0.4813	-0.004
Mof_H 	H 	0.6891	0.8319	0.2174	0.047
Mof_H 	H 	0.7738	0.8044	0.2471	0.045
Mof_H 	H 	0.8229	0.5687	0.1707	0.154
Mof_H 	H 	0.9405	0.5767	0.1151	-0.029
Mof_H 	H 	0.9472	0.8616	0.116	-0.023
Mof_H 	H 	0.8272	0.8554	0.1724	0.145
Mof_H 	H 	0.5719	0.8159	0.325	0.048
Mof_H 	H 	0.5832	0.8822	0.2805	0.047
Mof_H 	H 	0.5545	0.9513	0.3575	0.138
Mof_H 	H 	0.5633	0.0369	0.4177	-0.015
Mof_H 	H 	0.8496	0.0124	0.4061	-0.011
Mof_H 	H 	0.8424	0.9254	0.3457	0.143
Mof_H 	H 	0.7504	0.6956	0.314	0.047
Mof_H 	H 	0.7104	0.615	0.2879	0.045
Mof_H 	H 	0.7827	0.5445	0.3489	0.133
Mof_H 	H 	0.8128	0.4254	0.4029	-0.013
Mof_H 	H 	0.5436	0.4588	0.4586	-0.007
Mof_H 	H 	0.5177	0.5839	0.4059	0.148
Mof_H 	H 	0.578	0.6506	0.2398	0.045
Mof_H 	H 	0.5117	0.6839	0.2802	0.045
Mof_H 	H 	0.4451	0.8921	0.1731	0.135
Mof_H 	H 	0.3524	0.8634	0.1169	-0.009
Mof_H 	H 	0.3616	0.5818	0.1531	-0.002
Mof_H 	H 	0.4548	0.6082	0.21	0.123
Mof_H 	H 	0.123	0.4604	0.9751	0.011
Mof_H 	H 	0.1271	0.2983	0.9679	0.082
Mof_H 	H 	0.2625	0.2595	0.0791	0.082
Mof_H 	H 	0.2546	0.4212	0.0831	0.005
Mof_H 	H 	0.3217	0.9617	0.041	0
Mof_H 	H 	0.3211	0.1237	0.0464	0.081
Mof_H 	H 	0.0776	0.1468	0.987	0.093
Mof_H 	H 	0.0868	0.9828	0.9813	-0.003
Mof_C 	C 	0.7471	0.6447	0.77423	0.023
Mof_C 	C 	0.7806	0.717	0.73592	0.011
Mof_C 	C 	0.7118	0.813	0.67761	0.31
Mof_C 	C 	0.6277	0.8481	0.6599	-0.316
Mof_C 	C 	0.633	0.9188	0.6271	0.211
Mof_C 	C 	0.7188	0.9608	0.61037	-0.249
Mof_C 	C 	0.8025	0.9229	0.6275	0.199
Mof_C 	C 	0.7991	0.8507	0.661	-0.312
Mof_C 	C 	0.7194	0.0444	0.57694	0.45
Mof_C 	C 	0.8342	0.615	0.7993	0.009
Mof_C 	C 	0.9262	0.6984	0.84605	0.299
Mof_C 	C 	0.9627	0.6139	0.8675	-0.293
Mof_C 	C 	0.0149	0.6195	0.9031	0.184
Mof_C 	C 	0.036	0.7066	0.91775	-0.218
Mof_C 	C 	0.0004	0.7904	0.8962	0.175
Mof_C 	C 	0.9473	0.7861	0.8603	-0.287
Mof_C 	C 	0.0931	0.7111	0.95655	0.424
Mof_C 	C 	0.6708	0.693	0.8038	-0.001
Mof_C 	C 	0.5751	0.6471	0.87134	0.291
Mof_C 	C 	0.5276	0.735	0.8711	-0.289
Mof_C 	C 	0.4558	0.753	0.9032	0.167
Mof_C 	C 	0.4287	0.6803	0.93667	-0.208
Mof_C 	C 	0.4765	0.5921	0.9369	0.167
Mof_C 	C 	0.5506	0.576	0.9049	-0.279
Mof_C 	C 	0.3453	0.6947	0.96948	0.431
Mof_C 	C 	0.7051	0.5583	0.75618	0.009
Mof_C 	C 	0.7535	0.4615	0.69648	0.276
Mof_C 	C 	0.8296	0.4294	0.6689	-0.263
Mof_C 	C 	0.8123	0.3743	0.6351	0.157
Mof_C 	C 	0.7196	0.3514	0.62815	-0.195
Mof_C 	C 	0.6437	0.3799	0.65688	0.148
Mof_C 	C 	0.6593	0.4353	0.69104	-0.257
Mof_C 	C 	0.7026	0.2932	0.59041	0.411
Mof_C 	C 	0.4193	0.1513	0.4961	0.073
Mof_C 	C 	0.3218	0.1534	0.4917	-0.123
Mof_C 	C 	0.259	0.1942	0.52249	0.053
Mof_C 	C 	0.2987	0.2337	0.55765	-0.126
Mof_C 	C 	0.3958	0.2288	0.55963	0.081
Mof_C 	C 	0.9994	0.2716	0.5303	0.081
Mof_C 	C 	0.0966	0.271	0.5338	-0.137
Mof_C 	C 	0.1548	0.1972	0.5188	0.068
Mof_C 	C 	0.1107	0.1277	0.4986	-0.143
Mof_C 	C 	0.0113	0.1335	0.4955	0.096
Mof_C 	C 	0.6447	0.7471	0.27423	0.023
Mof_C 	C 	0.717	0.7806	0.23592	0.011
Mof_C 	C 	0.813	0.7118	0.17761	0.31
Mof_C 	C 	0.8481	0.6277	0.1599	-0.315
Mof_C 	C 	0.9188	0.633	0.1271	0.21
Mof_C 	C 	0.9608	0.7188	0.11037	-0.248
Mof_C 	C 	0.9229	0.8025	0.1275	0.199
Mof_C 	C 	0.8507	0.7991	0.161	-0.312
Mof_C 	C 	0.0444	0.7194	0.07694	0.449
Mof_C 	C 	0.615	0.8342	0.2993	0.009
Mof_C 	C 	0.6984	0.9262	0.34605	0.298
Mof_C 	C 	0.6139	0.9627	0.3675	-0.29
Mof_C 	C 	0.6195	0.0149	0.4031	0.181
Mof_C 	C 	0.7066	0.036	0.41775	-0.217
Mof_C 	C 	0.7904	0.0004	0.3962	0.173
Mof_C 	C 	0.7861	0.9473	0.3603	-0.285
Mof_C 	C 	0.7111	0.0931	0.45655	0.424
Mof_C 	C 	0.693	0.6708	0.3038	-0.001
Mof_C 	C 	0.6471	0.5751	0.37134	0.291
Mof_C 	C 	0.735	0.5276	0.3711	-0.289
Mof_C 	C 	0.753	0.4558	0.4032	0.167
Mof_C 	C 	0.6803	0.4287	0.43667	-0.208
Mof_C 	C 	0.5921	0.4765	0.4369	0.167
Mof_C 	C 	0.576	0.5506	0.4049	-0.279
Mof_C 	C 	0.6947	0.3453	0.46948	0.431
Mof_C 	C 	0.5583	0.7051	0.25618	0.009
Mof_C 	C 	0.4615	0.7535	0.19648	0.276
Mof_C 	C 	0.4294	0.8296	0.1689	-0.263
Mof_C 	C 	0.3743	0.8123	0.1351	0.157
Mof_C 	C 	0.3514	0.7196	0.12815	-0.195
Mof_C 	C 	0.3799	0.6437	0.15688	0.148
Mof_C 	C 	0.4353	0.6593	0.19104	-0.257
Mof_C 	C 	0.2932	0.7026	0.09041	0.411
Mof_C 	C 	0.1513	0.4193	0.9961	0.074
Mof_C 	C 	0.1534	0.3218	0.9917	-0.123
Mof_C 	C 	0.1942	0.259	0.02249	0.054
Mof_C 	C 	0.2337	0.2987	0.05765	-0.126
Mof_C 	C 	0.2288	0.3958	0.05963	0.082
Mof_C 	C 	0.2716	0.9994	0.0303	0.079
Mof_C 	C 	0.271	0.0966	0.0338	-0.135
Mof_C 	C 	0.1972	0.1548	0.0188	0.067
Mof_C 	C 	0.1277	0.1107	0.9986	-0.142
Mof_C 	C 	0.1335	0.0113	0.9955	0.094
Mof_N 	N 	0.4566	0.189	0.52984	-0.248
Mof_N 	N 	0.9571	0.2013	0.51179	-0.253
Mof_N 	N 	0.189	0.4566	0.02984	-0.248
Mof_N 	N 	0.2013	0.9571	0.01179	-0.253
Mof_O 	O 	0.7002	0.7416	0.71106	-0.253
Mof_O 	O 	0.641	0.0732	0.56455	-0.498
Mof_O 	O 	0.7989	0.0805	0.56273	-0.46
Mof_O 	O 	0.8708	0.702	0.81216	-0.257
Mof_O 	O 	0.1287	0.6349	0.97312	-0.469
Mof_O 	O 	0.1032	0.7934	0.96989	-0.468
Mof_O 	O 	0.6457	0.6229	0.841	-0.25
Mof_O 	O 	0.3073	0.7771	0.97008	-0.461
Mof_O 	O 	0.3203	0.6235	0.99505	-0.479
Mof_O 	O 	0.7787	0.5173	0.72786	-0.244
Mof_O 	O 	0.7753	0.2793	0.56392	-0.481
Mof_O 	O 	0.6194	0.2638	0.58685	-0.45
Mof_O 	O 	0.7416	0.7002	0.21106	-0.253
Mof_O 	O 	0.0732	0.641	0.06455	-0.498
Mof_O 	O 	0.0805	0.7989	0.06273	-0.46
Mof_O 	O 	0.702	0.8708	0.31216	-0.257
Mof_O 	O 	0.6349	0.1287	0.47312	-0.469
Mof_O 	O 	0.7934	0.1032	0.46989	-0.469
Mof_O 	O 	0.6229	0.6457	0.341	-0.25
Mof_O 	O 	0.7771	0.3073	0.47008	-0.461
Mof_O 	O 	0.6235	0.3203	0.49505	-0.479
Mof_O 	O 	0.5173	0.7787	0.22786	-0.244
Mof_O 	O 	0.2793	0.7753	0.06392	-0.481
Mof_O 	O 	0.2638	0.6194	0.08685	-0.45
Mof_Zn	Zn	0.80497	0.39813	0.9688	1.217
Mof_Zn	Zn	0.80429	0.18847	0.98542	1.217
Mof_Zn	Zn	0.39813	0.80497	0.4688	1.218
Mof_Zn	Zn	0.18847	0.80429	0.48542	1.218
Mof_H 	H 	0.3109	0.1681	0.7826	0.047
Mof_H 	H 	0.2262	0.1956	0.7529	0.045
Mof_H 	H 	0.1771	0.4313	0.8293	0.154
Mof_H 	H 	0.0595	0.4233	0.8849	-0.029
Mof_H 	H 	0.0528	0.1384	0.884	-0.023
Mof_H 	H 	0.1728	0.1446	0.8276	0.145
Mof_H 	H 	0.4281	0.1841	0.675	0.048
Mof_H 	H 	0.4168	0.1178	0.7195	0.047
Mof_H 	H 	0.4455	0.0487	0.6425	0.138
Mof_H 	H 	0.4367	0.9631	0.5823	-0.015
Mof_H 	H 	0.1504	0.9876	0.5939	-0.011
Mof_H 	H 	0.1576	0.0746	0.6543	0.143
Mof_H 	H 	0.2496	0.3044	0.686	0.047
Mof_H 	H 	0.2896	0.385	0.7121	0.045
Mof_H 	H 	0.2173	0.4555	0.6511	0.133
Mof_H 	H 	0.1872	0.5746	0.5971	-0.013
Mof_H 	H 	0.4564	0.5412	0.5414	-0.007
Mof_H 	H 	0.4823	0.4161	0.5941	0.148
Mof_H 	H 	0.422	0.3494	0.7602	0.045
Mof_H 	H 	0.4883	0.3161	0.7198	0.045
Mof_H 	H 	0.5549	0.1079	0.8269	0.135
Mof_H 	H 	0.6476	0.1366	0.8831	-0.009
Mof_H 	H 	0.6384	0.4182	0.8469	-0.002
Mof_H 	H 	0.5452	0.3918	0.79	0.123
Mof_H 	H 	0.877	0.5396	0.0249	0.011
Mof_H 	H 	0.8729	0.7017	0.0321	0.082
Mof_H 	H 	0.7375	0.7405	0.9209	0.082
Mof_H 	H 	0.7454	0.5788	0.9169	0.005
Mof_H 	H 	0.6783	0.0383	0.959	0
Mof_H 	H 	0.6789	0.8763	0.9536	0.081
Mof_H 	H 	0.9224	0.8532	0.013	0.093
Mof_H 	H 	0.9132	0.0172	0.0187	-0.003
Mof_H 	H 	0.1681	0.3109	0.2826	0.047
Mof_H 	H 	0.1956	0.2262	0.2529	0.045
Mof_H 	H 	0.4313	0.1771	0.3293	0.154
Mof_H 	H 	0.4233	0.0595	0.3849	-0.03
Mof_H 	H 	0.1384	0.0528	0.384	-0.023
Mof_H 	H 	0.1446	0.1728	0.3276	0.145
Mof_H 	H 	0.1841	0.4281	0.175	0.048
Mof_H 	H 	0.1178	0.4168	0.2195	0.047
Mof_H 	H 	0.0487	0.4455	0.1425	0.139
Mof_H 	H 	0.9631	0.4367	0.0823	-0.016
Mof_H 	H 	0.9876	0.1504	0.0939	-0.012
Mof_H 	H 	0.0746	0.1576	0.1543	0.143
Mof_H 	H 	0.3044	0.2496	0.186	0.047
Mof_H 	H 	0.385	0.2896	0.2121	0.045
Mof_H 	H 	0.4555	0.2173	0.1511	0.133
Mof_H 	H 	0.5746	0.1872	0.0971	-0.013
Mof_H 	H 	0.5412	0.4564	0.0414	-0.007
Mof_H 	H 	0.4161	0.4823	0.0941	0.148
Mof_H 	H 	0.3494	0.422	0.2602	0.045
Mof_H 	H 	0.3161	0.4883	0.2198	0.045
Mof_H 	H 	0.1079	0.5549	0.3269	0.135
Mof_H 	H 	0.1366	0.6476	0.3831	-0.009
Mof_H 	H 	0.4182	0.6384	0.3469	-0.002
Mof_H 	H 	0.3918	0.5452	0.29	0.123
Mof_H 	H 	0.5396	0.877	0.5249	0.011
Mof_H 	H 	0.7017	0.8729	0.5321	0.082
Mof_H 	H 	0.7405	0.7375	0.4209	0.082
Mof_H 	H 	0.5788	0.7454	0.4169	0.005
Mof_H 	H 	0.0383	0.6783	0.459	-0
Mof_H 	H 	0.8763	0.6789	0.4536	0.081
Mof_H 	H 	0.8532	0.9224	0.513	0.093
Mof_H 	H 	0.0172	0.9132	0.5187	-0.004
Mof_C 	C 	0.3553	0.2529	0.72577	0.023
Mof_C 	C 	0.283	0.2194	0.76408	0.011
Mof_C 	C 	0.187	0.2882	0.82239	0.31
Mof_C 	C 	0.1519	0.3723	0.8401	-0.315
Mof_C 	C 	0.0812	0.367	0.8729	0.21
Mof_C 	C 	0.0392	0.2812	0.88963	-0.248
Mof_C 	C 	0.0771	0.1975	0.8725	0.199
Mof_C 	C 	0.1493	0.2009	0.839	-0.312
Mof_C 	C 	0.9556	0.2806	0.92306	0.449
Mof_C 	C 	0.385	0.1658	0.7007	0.009
Mof_C 	C 	0.3016	0.0738	0.65395	0.298
Mof_C 	C 	0.3861	0.0373	0.6325	-0.29
Mof_C 	C 	0.3805	0.9851	0.5969	0.181
Mof_C 	C 	0.2934	0.964	0.58225	-0.217
Mof_C 	C 	0.2096	0.9996	0.6038	0.173
Mof_C 	C 	0.2139	0.0527	0.6397	-0.285
Mof_C 	C 	0.2889	0.9069	0.54345	0.424
Mof_C 	C 	0.307	0.3292	0.6962	-0.001
Mof_C 	C 	0.3529	0.4249	0.62866	0.291
Mof_C 	C 	0.265	0.4724	0.6289	-0.289
Mof_C 	C 	0.247	0.5442	0.5968	0.167
Mof_C 	C 	0.3197	0.5713	0.56333	-0.208
Mof_C 	C 	0.4079	0.5235	0.5631	0.167
Mof_C 	C 	0.424	0.4494	0.5951	-0.279
Mof_C 	C 	0.3053	0.6547	0.53052	0.431
Mof_C 	C 	0.4417	0.2949	0.74382	0.009
Mof_C 	C 	0.5385	0.2465	0.80352	0.276
Mof_C 	C 	0.5706	0.1704	0.8311	-0.263
Mof_C 	C 	0.6257	0.1877	0.8649	0.157
Mof_C 	C 	0.6486	0.2804	0.87185	-0.195
Mof_C 	C 	0.6201	0.3563	0.84312	0.148
Mof_C 	C 	0.5647	0.3407	0.80896	-0.257
Mof_C 	C 	0.7068	0.2974	0.90959	0.411
Mof_C 	C 	0.8487	0.5807	0.0039	0.074
Mof_C 	C 	0.8466	0.6782	0.0083	-0.123
Mof_C 	C 	0.8058	0.741	0.97751	0.054
Mof_C 	C 	0.7663	0.7013	0.94235	-0.126
Mof_C 	C 	0.7712	0.6042	0.94037	0.082
Mof_C 	C 	0.7284	0.0006	0.9697	0.079
Mof_C 	C 	0.729	0.9034	0.9662	-0.135
Mof_C 	C 	0.8028	0.8452	0.9812	0.067
Mof_C 	C 	0.8723	0.8893	0.0014	-0.142
Mof_C 	C 	0.8665	0.9887	0.0045	0.094
Mof_C 	C 	0.2529	0.3553	0.22577	0.023
Mof_C 	C 	0.2194	0.283	0.26408	0.011
Mof_C 	C 	0.2882	0.187	0.32239	0.31
Mof_C 	C 	0.3723	0.1519	0.3401	-0.316
Mof_C 	C 	0.367	0.0812	0.3729	0.211
Mof_C 	C 	0.2812	0.0392	0.38963	-0.249
Mof_C 	C 	0.1975	0.0771	0.3725	0.199
Mof_C 	C 	0.2009	0.1493	0.339	-0.312
Mof_C 	C 	0.2806	0.9556	0.42306	0.45
Mof_C 	C 	0.1658	0.385	0.2007	0.009
Mof_C 	C 	0.0738	0.3016	0.15395	0.299
Mof_C 	C 	0.0373	0.3861	0.1325	-0.293
Mof_C 	C 	0.9851	0.3805	0.0969	0.184
Mof_C 	C 	0.964	0.2934	0.08225	-0.218
Mof_C 	C 	0.9996	0.2096	0.1038	0.175
Mof_C 	C 	0.0527	0.2139	0.1397	-0.287
Mof_C 	C 	0.9069	0.2889	0.04345	0.424
Mof_C 	C 	0.3292	0.307	0.1962	-0.001
Mof_C 	C 	0.4249	0.3529	0.12866	0.291
Mof_C 	C 	0.4724	0.265	0.1289	-0.289
Mof_C 	C 	0.5442	0.247	0.0968	0.167
Mof_C 	C 	0.5713	0.3197	0.06333	-0.208
Mof_C 	C 	0.5235	0.4079	0.0631	0.167
Mof_C 	C 	0.4494	0.424	0.0951	-0.279
Mof_C 	C 	0.6547	0.3053	0.03052	0.431
Mof_C 	C 	0.2949	0.4417	0.24382	0.009
Mof_C 	C 	0.2465	0.5385	0.30352	0.276
Mof_C 	C 	0.1704	0.5706	0.3311	-0.263
Mof_C 	C 	0.1877	0.6257	0.3649	0.157
Mof_C 	C 	0.2804	0.6486	0.37185	-0.195
Mof_C 	C 	0.3563	0.6201	0.34312	0.148
Mof_C 	C 	0.3407	0.5647	0.30896	-0.257
Mof_C 	C 	0.2974	0.7068	0.40959	0.411
Mof_C 	C 	0.5807	0.8487	0.5039	0.073
Mof_C 	C 	0.6782	0.8466	0.5083	-0.123
Mof_C 	C 	0.741	0.8058	0.47751	0.053
Mof_C 	C 	0.7013	0.7663	0.44235	-0.126
Mof_C 	C 	0.6042	0.7712	0.44037	0.081
Mof_C 	C 	0.0006	0.7284	0.4697	0.081
Mof_C 	C 	0.9034	0.729	0.4662	-0.137
Mof_C 	C 	0.8452	0.8028	0.4812	0.068
Mof_C 	C 	0.8893	0.8723	0.5014	-0.143
Mof_C 	C 	0.9887	0.8665	0.5045	0.096
Mof_N 	N 	0.811	0.5434	0.97016	-0.248
Mof_N 	N 	0.7987	0.0429	0.98821	-0.253
Mof_N 	N 	0.5434	0.811	0.47016	-0.248
Mof_N 	N 	0.0429	0.7987	0.48821	-0.253
Mof_O 	O 	0.2584	0.2998	0.78894	-0.253
Mof_O 	O 	0.9268	0.359	0.93545	-0.498
Mof_O 	O 	0.9195	0.2011	0.93727	-0.46
Mof_O 	O 	0.298	0.1292	0.68784	-0.257
Mof_O 	O 	0.3651	0.8713	0.52688	-0.469
Mof_O 	O 	0.2066	0.8968	0.53011	-0.469
Mof_O 	O 	0.3771	0.3543	0.659	-0.25
Mof_O 	O 	0.2229	0.6927	0.52992	-0.461
Mof_O 	O 	0.3765	0.6797	0.50495	-0.479
Mof_O 	O 	0.4827	0.2213	0.77214	-0.244
Mof_O 	O 	0.7207	0.2247	0.93608	-0.481
Mof_O 	O 	0.7362	0.3806	0.91315	-0.45
Mof_O 	O 	0.2998	0.2584	0.28894	-0.253
Mof_O 	O 	0.359	0.9268	0.43545	-0.498
Mof_O 	O 	0.2011	0.9195	0.43727	-0.46
Mof_O 	O 	0.1292	0.298	0.18784	-0.257
Mof_O 	O 	0.8713	0.3651	0.02688	-0.469
Mof_O 	O 	0.8968	0.2066	0.03011	-0.468
Mof_O 	O 	0.3543	0.3771	0.159	-0.25
Mof_O 	O 	0.6927	0.2229	0.02992	-0.461
Mof_O 	O 	0.6797	0.3765	0.00495	-0.479
Mof_O 	O 	0.2213	0.4827	0.27214	-0.244
Mof_O 	O 	0.2247	0.7207	0.43608	-0.481
Mof_O 	O 	0.3806	0.7362	0.41315	-0.45
_end
