data_functionalizedCrystal
_audit_creation_method	'EQeq! by Chris Wilmer'
_symmetry_space_group_name_H-M	'P1'
_symmetry_Int_Tables_number	1
_symmetry_cell_setting	triclinic
loop_
_symmetry_equiv_pos_as_xyz
  x,y,z
_cell_length_a	16.274
_cell_length_b	20.465
_cell_length_c	21.243
_cell_angle_alpha	90
_cell_angle_beta	90
_cell_angle_gamma	90
loop_
_atom_site_label
_atom_site_type_symbol
_atom_site_fract_x
_atom_site_fract_y
_atom_site_fract_z
_atom_site_charge
Mof_Mn	Mn	0.25815	0.00889	0.62949	0.975
Mof_Mn	Mn	0.01662	0.62523	0.49462	0.87
Mof_Mn	Mn	0.75815	0.99111	0.37051	0.985
Mof_Mn	Mn	0.51662	0.37477	0.50538	0.975
Mof_Mn	Mn	0.25815	0.50889	0.87051	0.972
Mof_Mn	Mn	0.01662	0.12523	0.00538	0.863
Mof_Mn	Mn	0.75815	0.49111	0.12949	0.983
Mof_Mn	Mn	0.51662	0.87477	0.99462	0.984
Mof_Cr	Cr	0.01209	0.88797	0.50169	1.913
Mof_Cr	Cr	0.26172	0.99989	0.88328	2.125
Mof_Cr	Cr	0.51209	0.11203	0.49831	2.131
Mof_Cr	Cr	0.76172	0.00011	0.11672	2.136
Mof_Cr	Cr	0.01209	0.38797	0.99831	1.945
Mof_Cr	Cr	0.26172	0.49989	0.61672	2.138
Mof_Cr	Cr	0.51209	0.61203	0.00169	2.108
Mof_Cr	Cr	0.76172	0.50011	0.38328	2.149
Mof_C 	C 	0.0144	0.7598	0.5353	0.264
Mof_C 	C 	0.0166	0.7613	0.4621	0.256
Mof_C 	C 	0.1633	0.932	0.5421	0.265
Mof_C 	C 	0.0986	0.9673	0.5834	0.262
Mof_C 	C 	0.3589	0.0815	0.5424	0.258
Mof_C 	C 	0.42	0.0427	0.5834	0.269
Mof_C 	C 	0.3541	0.9171	0.9557	0.267
Mof_C 	C 	0.4164	0.9603	0.9187	0.263
Mof_C 	C 	0.2531	0.0423	0.761	0.278
Mof_C 	C 	0.2649	0.9655	0.759	0.283
Mof_C 	C 	0.1108	0.0376	0.9276	0.276
Mof_C 	C 	0.1756	0.0803	0.9607	0.26
Mof_C 	C 	0.5144	0.2402	0.4647	0.28
Mof_C 	C 	0.5166	0.2387	0.5379	0.26
Mof_C 	C 	0.6633	0.068	0.4579	0.273
Mof_C 	C 	0.5986	0.0327	0.4166	0.27
Mof_C 	C 	0.8589	0.9185	0.4576	0.261
Mof_C 	C 	0.92	0.9573	0.4166	0.272
Mof_C 	C 	0.8541	0.0829	0.0443	0.271
Mof_C 	C 	0.9164	0.0397	0.0813	0.266
Mof_C 	C 	0.7531	0.9577	0.239	0.279
Mof_C 	C 	0.7649	0.0345	0.241	0.287
Mof_C 	C 	0.6108	0.9624	0.0724	0.273
Mof_C 	C 	0.6756	0.9197	0.0393	0.267
Mof_C 	C 	0.0144	0.2598	0.9647	0.273
Mof_C 	C 	0.0166	0.2613	0.0379	0.249
Mof_C 	C 	0.1633	0.432	0.9579	0.274
Mof_C 	C 	0.0986	0.4673	0.9166	0.266
Mof_C 	C 	0.3589	0.5815	0.9576	0.267
Mof_C 	C 	0.42	0.5427	0.9166	0.267
Mof_C 	C 	0.3541	0.4171	0.5443	0.266
Mof_C 	C 	0.4164	0.4603	0.5813	0.268
Mof_C 	C 	0.2531	0.5423	0.739	0.274
Mof_C 	C 	0.2649	0.4655	0.741	0.287
Mof_C 	C 	0.1108	0.5376	0.5724	0.268
Mof_C 	C 	0.1756	0.5803	0.5393	0.261
Mof_C 	C 	0.5144	0.7402	0.0353	0.274
Mof_C 	C 	0.5166	0.7387	0.9621	0.266
Mof_C 	C 	0.6633	0.568	0.0421	0.262
Mof_C 	C 	0.5986	0.5327	0.0834	0.273
Mof_C 	C 	0.8589	0.4185	0.0424	0.248
Mof_C 	C 	0.92	0.4573	0.0834	0.275
Mof_C 	C 	0.8541	0.5829	0.4557	0.271
Mof_C 	C 	0.9164	0.5397	0.4187	0.273
Mof_C 	C 	0.7531	0.4577	0.261	0.277
Mof_C 	C 	0.7649	0.5345	0.259	0.29
Mof_C 	C 	0.6108	0.4624	0.4276	0.269
Mof_C 	C 	0.6756	0.4197	0.4607	0.268
Mof_O 	O 	0.0158	0.8147	0.5615	-0.491
Mof_O 	O 	0.013	0.8187	0.4381	-0.506
Mof_O 	O 	0.0112	0.7057	0.5619	-0.301
Mof_O 	O 	0.0187	0.7086	0.433	-0.319
Mof_O 	O 	0.1327	0.8957	0.4984	-0.475
Mof_O 	O 	0.0232	0.9533	0.5698	-0.497
Mof_O 	O 	0.2357	0.9395	0.5539	-0.303
Mof_O 	O 	0.1238	0.0048	0.6232	-0.307
Mof_O 	O 	0.3909	0.1126	0.4957	-0.493
Mof_O 	O 	0.4955	0.0473	0.5669	-0.478
Mof_O 	O 	0.2854	0.0797	0.5565	-0.3
Mof_O 	O 	0.3925	0.0126	0.6282	-0.29
Mof_O 	O 	0.3819	0.8745	0.9911	-0.294
Mof_O 	O 	0.4896	0.9494	0.9233	-0.288
Mof_O 	O 	0.3824	0.0047	0.8842	-0.484
Mof_O 	O 	0.2785	0.9292	0.945	-0.501
Mof_O 	O 	0.2493	0.0726	0.7116	-0.3
Mof_O 	O 	0.2678	0.9396	0.7074	-0.302
Mof_O 	O 	0.2513	0.0659	0.8165	-0.499
Mof_O 	O 	0.2648	0.938	0.812	-0.504
Mof_O 	O 	0.1412	0.9935	0.8917	-0.508
Mof_O 	O 	0.2495	0.0687	0.9475	-0.492
Mof_O 	O 	0.0376	0.0476	0.9368	-0.315
Mof_O 	O 	0.1494	0.1235	0.9972	-0.285
Mof_O 	O 	0.5158	0.1853	0.4385	-0.505
Mof_O 	O 	0.513	0.1813	0.5619	-0.491
Mof_O 	O 	0.5112	0.2943	0.4381	-0.292
Mof_O 	O 	0.5187	0.2914	0.567	-0.287
Mof_O 	O 	0.6327	0.1043	0.5016	-0.484
Mof_O 	O 	0.5232	0.0467	0.4302	-0.492
Mof_O 	O 	0.7357	0.0605	0.4461	-0.29
Mof_O 	O 	0.6238	0.9952	0.3768	-0.298
Mof_O 	O 	0.8909	0.8874	0.5043	-0.4
Mof_O 	O 	0.9955	0.9527	0.4331	-0.387
Mof_O 	O 	0.7854	0.9203	0.4435	-0.282
Mof_O 	O 	0.8925	0.9874	0.3718	-0.274
Mof_O 	O 	0.8819	0.1255	0.0089	-0.235
Mof_O 	O 	0.9896	0.0506	0.0767	-0.229
Mof_O 	O 	0.8824	0.9953	0.1158	-0.471
Mof_O 	O 	0.7785	0.0708	0.055	-0.487
Mof_O 	O 	0.7493	0.9274	0.2884	-0.289
Mof_O 	O 	0.7678	0.0604	0.2926	-0.294
Mof_O 	O 	0.7513	0.9341	0.1835	-0.493
Mof_O 	O 	0.7648	0.062	0.188	-0.495
Mof_O 	O 	0.6412	0.0065	0.1083	-0.495
Mof_O 	O 	0.7495	0.9313	0.0525	-0.483
Mof_O 	O 	0.5376	0.9524	0.0632	-0.3
Mof_O 	O 	0.6494	0.8765	0.0028	-0.287
Mof_O 	O 	0.0158	0.3147	0.9385	-0.495
Mof_O 	O 	0.013	0.3187	0.0619	-0.51
Mof_O 	O 	0.0112	0.2057	0.9381	-0.298
Mof_O 	O 	0.0187	0.2086	0.067	-0.317
Mof_O 	O 	0.1327	0.3957	0.0016	-0.488
Mof_O 	O 	0.0232	0.4533	0.9302	-0.499
Mof_O 	O 	0.2357	0.4395	0.9461	-0.302
Mof_O 	O 	0.1238	0.5048	0.8768	-0.311
Mof_O 	O 	0.3909	0.6126	0.0043	-0.497
Mof_O 	O 	0.4955	0.5473	0.9331	-0.472
Mof_O 	O 	0.2854	0.5797	0.9435	-0.301
Mof_O 	O 	0.3925	0.5126	0.8718	-0.29
Mof_O 	O 	0.3819	0.3745	0.5089	-0.296
Mof_O 	O 	0.4896	0.4494	0.5767	-0.29
Mof_O 	O 	0.3824	0.5047	0.6158	-0.493
Mof_O 	O 	0.2785	0.4292	0.555	-0.503
Mof_O 	O 	0.2493	0.5726	0.7884	-0.299
Mof_O 	O 	0.2678	0.4396	0.7926	-0.301
Mof_O 	O 	0.2513	0.5659	0.6835	-0.502
Mof_O 	O 	0.2648	0.438	0.688	-0.506
Mof_O 	O 	0.1412	0.4935	0.6083	-0.505
Mof_O 	O 	0.2495	0.5687	0.5525	-0.499
Mof_O 	O 	0.0376	0.5476	0.5632	-0.321
Mof_O 	O 	0.1494	0.6235	0.5028	-0.292
Mof_O 	O 	0.5158	0.6853	0.0615	-0.501
Mof_O 	O 	0.513	0.6813	0.9381	-0.486
Mof_O 	O 	0.5112	0.7943	0.0619	-0.293
Mof_O 	O 	0.5187	0.7914	0.933	-0.288
Mof_O 	O 	0.6327	0.6043	0.9984	-0.471
Mof_O 	O 	0.5232	0.5467	0.0698	-0.492
Mof_O 	O 	0.7357	0.5605	0.0539	-0.288
Mof_O 	O 	0.6238	0.4952	0.1232	-0.3
Mof_O 	O 	0.8909	0.3874	0.9957	-0.394
Mof_O 	O 	0.9955	0.4527	0.0669	-0.398
Mof_O 	O 	0.7854	0.4203	0.0565	-0.281
Mof_O 	O 	0.8925	0.4874	0.1282	-0.276
Mof_O 	O 	0.8819	0.6255	0.4911	-0.229
Mof_O 	O 	0.9896	0.5506	0.4233	-0.225
Mof_O 	O 	0.8824	0.4953	0.3842	-0.478
Mof_O 	O 	0.7785	0.5708	0.445	-0.486
Mof_O 	O 	0.7493	0.4274	0.2116	-0.289
Mof_O 	O 	0.7678	0.5604	0.2074	-0.293
Mof_O 	O 	0.7513	0.4341	0.3165	-0.495
Mof_O 	O 	0.7648	0.562	0.312	-0.497
Mof_O 	O 	0.6412	0.5065	0.3917	-0.492
Mof_O 	O 	0.7495	0.4313	0.4475	-0.486
Mof_O 	O 	0.5376	0.4524	0.4368	-0.297
Mof_O 	O 	0.6494	0.3765	0.4972	-0.284
_end
