data_functionalizedCrystal
_audit_creation_method	'EQeq! by Chris Wilmer'
_symmetry_space_group_name_H-M	'P1'
_symmetry_Int_Tables_number	1
_symmetry_cell_setting	triclinic
loop_
_symmetry_equiv_pos_as_xyz
  x,y,z
_cell_length_a	9.3865
_cell_length_b	17.4469
_cell_length_c	17.4469
_cell_angle_alpha	104.365
_cell_angle_beta	102.823
_cell_angle_gamma	77.1768
loop_
_atom_site_label
_atom_site_type_symbol
_atom_site_fract_x
_atom_site_fract_y
_atom_site_fract_z
_atom_site_charge
Mof_Mn	Mn	0.44067	0.68148	0.18678	0.949
Mof_Mn	Mn	0.55933	0.31852	0.81322	0.956
Mof_Mn	Mn	0.05933	0.18678	0.68148	0.939
Mof_Mn	Mn	0.5	0.5	-0	0.758
Mof_Mn	Mn	0.94067	0.81322	0.31852	0.964
Mof_Mn	Mn	5.3497e-18	2.13988e-17	0.5	0.745
Mof_H 	H 	0.3207	0.4139	0.5351	0.185
Mof_H 	H 	0.0158	0.7792	0.023	-0.037
Mof_H 	H 	0.1745	0.8942	0.66	-0.037
Mof_H 	H 	0.426	0.3376	0.1242	0.146
Mof_H 	H 	0.0644	0.6316	0.34	-0.038
Mof_H 	H 	0.1892	0.7086	0.785	0.129
Mof_H 	H 	0.4293	0.2901	0.3387	0.187
Mof_H 	H 	0.8701	0.8252	0.9124	0.153
Mof_H 	H 	0.6299	0.9124	0.8252	0.186
Mof_H 	H 	0.1299	0.1748	0.0876	0.165
Mof_H 	H 	0.699	0.5313	0.2745	-0.033
Mof_H 	H 	0.9356	0.3684	0.66	-0.067
Mof_H 	H 	0.3255	0.66	0.8942	-0.014
Mof_H 	H 	0.8207	0.4649	0.5861	0.202
Mof_H 	H 	0.5707	0.7099	0.6613	0.189
Mof_H 	H 	0.8123	0.4348	0.348	0.145
Mof_H 	H 	0.5158	0.977	0.2208	0.021
Mof_H 	H 	0.9149	0.6807	0.4839	0.157
Mof_H 	H 	0.1793	0.5351	0.4139	0.172
Mof_H 	H 	0.3108	0.785	0.7086	0.152
Mof_H 	H 	0.1877	0.5652	0.652	0.176
Mof_H 	H 	0.301	0.4687	0.7255	-0.062
Mof_H 	H 	0.3701	0.0876	0.1748	0.14
Mof_H 	H 	0.074	0.1242	0.3376	0.145
Mof_H 	H 	0.6892	0.215	0.2914	0.142
Mof_H 	H 	0.8255	0.1058	0.34	-0.029
Mof_H 	H 	0.6877	0.348	0.4348	0.16
Mof_H 	H 	0.5851	0.4839	0.6807	0.154
Mof_H 	H 	0.5644	0.66	0.3684	-0.052
Mof_H 	H 	0.0851	0.3193	0.5161	0.148
Mof_H 	H 	0.926	0.8758	0.6624	0.16
Mof_H 	H 	0.4149	0.5161	0.3193	0.151
Mof_H 	H 	0.6745	0.34	0.1058	-0.049
Mof_H 	H 	0.4356	0.34	0.6316	-0.051
Mof_H 	H 	0.4842	0.023	0.7792	-0.059
Mof_H 	H 	0.9842	0.2208	0.977	0.01
Mof_H 	H 	0.801	0.2745	0.5313	-0.042
Mof_H 	H 	0.9293	0.6613	0.7099	0.192
Mof_H 	H 	0.574	0.6624	0.8758	0.159
Mof_H 	H 	0.199	0.7255	0.4687	-0.05
Mof_H 	H 	0.8108	0.2914	0.215	0.161
Mof_H 	H 	0.0707	0.3387	0.2901	0.184
Mof_H 	H 	0.6793	0.5861	0.4649	0.188
Mof_H 	H 	0.3123	0.652	0.5652	0.158
Mof_C 	C 	0.7201	0.31082	0.95498	0.389
Mof_C 	C 	0.4497	0.97454	0.76486	0.263
Mof_C 	C 	0.0792	0.1655	0.4963	0.31
Mof_C 	C 	0.6543	0.1665	0.2767	-0.316
Mof_C 	C 	0.3695	0.69868	0.40794	-0.3
Mof_C 	C 	0.2799	0.68918	0.04502	0.322
Mof_C 	C 	0.9333	0.77411	0.69889	0.345
Mof_C 	C 	0.0365	0.20621	0.09079	-0.355
Mof_C 	C 	0.7081	0.25606	0.65674	0.491
Mof_C 	C 	0.9931	0.52436	0.61216	0.409
Mof_C 	C 	0.5787	0.56404	0.78568	0.11
Mof_C 	C 	0.1865	0.71529	0.97023	-0.181
Mof_C 	C 	0.4295	0.32629	0.30751	-0.404
Mof_C 	C 	0.0739	0.34069	0.40671	0.343
Mof_C 	C 	0.9208	0.8345	0.5037	0.308
Mof_C 	C 	0.5138	0.65782	0.4078	0.254
Mof_C 	C 	0.0733	0.17913	0.35517	-0.279
Mof_C 	C 	0.5069	0.61216	0.52436	0.365
Mof_C 	C 	0.9635	0.79379	0.90921	-0.256
Mof_C 	C 	0.7919	0.65674	0.25606	0.48
Mof_C 	C 	0.1543	0.7233	0.8335	-0.286
Mof_C 	C 	0.2049	0.46784	0.697	0.291
Mof_C 	C 	0.8695	0.59206	0.30132	-0.257
Mof_C 	C 	0.8626	0.47452	0.34628	-0.314
Mof_C 	C 	0.3457	0.8335	0.7233	-0.348
Mof_C 	C 	0.5733	0.64483	0.82087	-0.283
Mof_C 	C 	0.0069	0.47564	0.38784	0.323
Mof_C 	C 	0.4931	0.38784	0.47564	0.362
Mof_C 	C 	0.0705	0.30751	0.32629	-0.406
Mof_C 	C 	0.5827	0.61409	0.46543	-0.363
Mof_C 	C 	0.9173	0.46543	0.61409	-0.403
Mof_C 	C 	0.2647	0.89858	0.69442	0.22
Mof_C 	C 	0.0787	0.21432	0.43596	0.099
Mof_C 	C 	0.8135	0.28471	0.02977	-0.265
Mof_C 	C 	0.9862	0.4078	0.65782	0.308
Mof_C 	C 	0.1305	0.40794	0.69868	-0.343
Mof_C 	C 	0.6305	0.30132	0.59206	-0.295
Mof_C 	C 	0.4635	0.09079	0.20621	-0.278
Mof_C 	C 	0.4862	0.34218	0.5922	0.249
Mof_C 	C 	0.4208	0.4963	0.1655	0.312
Mof_C 	C 	0.2951	0.697	0.46784	0.249
Mof_C 	C 	0.4199	0.4618	0.2954	-0.283
Mof_C 	C 	0.6374	0.34628	0.47452	-0.363
Mof_C 	C 	0.4173	0.38591	0.53457	-0.36
Mof_C 	C 	0.9295	0.69249	0.67371	-0.407
Mof_C 	C 	0.5739	0.59329	0.65931	0.353
Mof_C 	C 	0.8457	0.2767	0.1665	-0.366
Mof_C 	C 	0.9213	0.78568	0.56404	0.112
Mof_C 	C 	0.3135	0.97023	0.71529	-0.23
Mof_C 	C 	0.4213	0.43596	0.21432	0.1
Mof_C 	C 	0.0138	0.5922	0.34218	0.2
Mof_C 	C 	0.7951	0.53216	0.303	0.207
Mof_C 	C 	0.7647	0.30558	0.10142	0.237
Mof_C 	C 	0.5199	0.16037	0.22543	0.314
Mof_C 	C 	0.0503	0.76486	0.97454	0.185
Mof_C 	C 	0.5705	0.67371	0.69249	-0.41
Mof_C 	C 	0.5503	0.02546	0.23514	0.121
Mof_C 	C 	0.9261	0.65931	0.59329	0.357
Mof_C 	C 	0.4333	0.30111	0.22589	0.339
Mof_C 	C 	0.2919	0.74394	0.34326	0.496
Mof_C 	C 	0.7049	0.303	0.53216	0.244
Mof_C 	C 	0.7353	0.10142	0.30558	0.191
Mof_C 	C 	0.0667	0.22589	0.30111	0.342
Mof_C 	C 	0.4267	0.35517	0.17913	-0.276
Mof_C 	C 	0.1374	0.52548	0.65372	-0.419
Mof_C 	C 	0.9267	0.82087	0.64483	-0.281
Mof_C 	C 	0.5792	0.5037	0.8345	0.308
Mof_C 	C 	0.2201	0.04502	0.68918	0.34
Mof_C 	C 	0.4261	0.40671	0.34069	0.348
Mof_C 	C 	0.9199	0.7046	0.5382	-0.289
Mof_C 	C 	0.9801	0.22543	0.16037	0.377
Mof_C 	C 	0.6865	0.02977	0.28471	-0.224
Mof_C 	C 	0.5801	0.5382	0.7046	-0.288
Mof_C 	C 	0.9497	0.23514	0.02546	0.178
Mof_C 	C 	0.4801	0.83963	0.77457	0.357
Mof_C 	C 	0.0199	0.77457	0.83963	0.28
Mof_C 	C 	0.7799	0.95498	0.31082	0.371
Mof_C 	C 	0.5365	0.90921	0.79379	-0.354
Mof_C 	C 	0.0801	0.2954	0.4618	-0.282
Mof_C 	C 	0.3626	0.65372	0.52548	-0.366
Mof_C 	C 	0.5667	0.69889	0.77411	0.348
Mof_C 	C 	0.2353	0.69442	0.89858	0.163
Mof_C 	C 	0.0827	0.53457	0.38591	-0.324
Mof_C 	C 	0.2081	0.34326	0.74394	0.509
Mof_O 	O 	0.9318	0.90739	0.53179	-0.35
Mof_O 	O 	0.1432	0.28956	0.74534	-0.432
Mof_O 	O 	0.9094	0.80012	0.43158	-0.363
Mof_O 	O 	0.7666	0.28148	0.88942	-0.365
Mof_O 	O 	0.4094	0.56842	0.19988	-0.37
Mof_O 	O 	0.3372	0.34965	0.78171	-0.443
Mof_O 	O 	0.9326	0.81207	0.77877	-0.303
Mof_O 	O 	0.4204	0.43665	0.42153	-0.332
Mof_O 	O 	0.1628	0.78171	0.34965	-0.447
Mof_O 	O 	0.4318	0.46821	0.09261	-0.376
Mof_O 	O 	0.6628	0.65035	0.21829	-0.438
Mof_O 	O 	0.5682	0.53179	0.90739	-0.356
Mof_O 	O 	0.904	0.95782	0.35778	-0.377
Mof_O 	O 	0.096	0.04218	0.64222	-0.4
Mof_O 	O 	0.9204	0.57847	0.56335	-0.341
Mof_O 	O 	0.7334	0.88942	0.28148	-0.364
Mof_O 	O 	0.0674	0.18793	0.22123	-0.345
Mof_O 	O 	0.5674	0.77877	0.81207	-0.327
Mof_O 	O 	0.5796	0.56335	0.57847	-0.334
Mof_O 	O 	0.3568	0.74534	0.28956	-0.427
Mof_O 	O 	0.596	0.35778	0.95782	-0.386
Mof_O 	O 	0.0682	0.09261	0.46821	-0.377
Mof_O 	O 	0.0796	0.42153	0.43665	-0.326
Mof_O 	O 	0.4326	0.22123	0.18793	-0.325
Mof_O 	O 	0.0906	0.19988	0.56842	-0.37
Mof_O 	O 	0.404	0.64222	0.04218	-0.394
Mof_O 	O 	0.5906	0.43158	0.80012	-0.364
Mof_O 	O 	0.8568	0.71044	0.25466	-0.422
Mof_O 	O 	0.2666	0.11058	0.71852	-0.361
Mof_O 	O 	0.6432	0.25466	0.71044	-0.426
Mof_O 	O 	0.2334	0.71852	0.11058	-0.36
Mof_O 	O 	0.8372	0.21829	0.65035	-0.432
_end
