data_functionalizedCrystal
_audit_creation_method	'EQeq! by Chris Wilmer'
_symmetry_space_group_name_H-M	'P1'
_symmetry_Int_Tables_number	1
_symmetry_cell_setting	triclinic
loop_
_symmetry_equiv_pos_as_xyz
  x,y,z
_cell_length_a	11.348
_cell_length_b	7.652
_cell_length_c	7.042
_cell_angle_alpha	90
_cell_angle_beta	106.07
_cell_angle_gamma	90
loop_
_atom_site_label
_atom_site_type_symbol
_atom_site_fract_x
_atom_site_fract_y
_atom_site_fract_z
_atom_site_charge
Mof_N 	N 	0.9417	0.2216	0.1883	-0.043
Mof_C 	C 	0.9613	0.3285	0.3057	-0.128
Mof_N 	N 	0.0583	0.2216	0.8117	-0.068
Mof_C 	C 	0.0387	0.3285	0.6943	-0.288
Mof_N 	N 	0.0583	0.7784	0.8117	-0.067
Mof_C 	C 	0.0387	0.6715	0.6943	-0.286
Mof_N 	N 	0.9417	0.7784	0.1883	-0.042
Mof_C 	C 	0.9613	0.6715	0.3057	-0.128
Mof_Cd	Cd	-0	0	-0	0.222
Mof_Ni	Ni	-1.20924e-17	0.5	0.5	1.007
Mof_N 	N 	0.1959	0	0.2106	-0.136
Mof_C 	C 	0.2112	0	0.4273	-0.01
Mof_C 	C 	0.343	5.37008e-33	0.5484	-0.007
Mof_C 	C 	0.3588	0	0.7687	-0.008
Mof_C 	C 	0.4935	0	0.8873	0.031
Mof_N 	N 	0.8041	0	0.7894	-0.079
Mof_C 	C 	0.7888	0	0.5727	0.071
Mof_C 	C 	0.657	-5.37008e-33	0.4516	-0.014
Mof_C 	C 	0.6412	2.68504e-33	0.2313	0.005
Mof_C 	C 	0.5065	-1.34252e-33	0.1127	-0.032
_end
