data_functionalizedCrystal
_audit_creation_method	'EQeq! by Chris Wilmer'
_symmetry_space_group_name_H-M	'P1'
_symmetry_Int_Tables_number	1
_symmetry_cell_setting	triclinic
loop_
_symmetry_equiv_pos_as_xyz
  x,y,z
_cell_length_a	28.253
_cell_length_b	13.8524
_cell_length_c	44.966
_cell_angle_alpha	90
_cell_angle_beta	90
_cell_angle_gamma	90
loop_
_atom_site_label
_atom_site_type_symbol
_atom_site_fract_x
_atom_site_fract_y
_atom_site_fract_z
_atom_site_charge
Mof_C 	C 	0.0471	0.0096	0.5379	0.076
Mof_H 	H 	0.0325	0.0436	0.5538	-0.014
Mof_C 	C 	0.0578	0.0591	0.5118	-0.127
Mof_H 	H 	0.0502	0.1256	0.5099	0.094
Mof_C 	C 	0.0794	0.0113	0.4889	0.062
Mof_C 	C 	0.0875	0.9142	0.4918	-0.119
Mof_H 	H 	0.1013	0.8783	0.476	0.081
Mof_C 	C 	0.0749	0.8688	0.5186	0.073
Mof_H 	H 	0.0798	0.8012	0.5204	-0.007
Mof_C 	C 	0.0942	0.0638	0.4619	0.092
Mof_C 	C 	0.0983	0.2008	0.435	0.084
Mof_C 	C 	0.1328	0.066	0.4175	0.107
Mof_C 	C 	0.0835	0.3029	0.4301	0.059
Mof_C 	C 	0.0579	0.3499	0.4522	-0.131
Mof_H 	H 	0.0512	0.3183	0.4705	0.09
Mof_C 	C 	0.0426	0.4423	0.4473	0.071
Mof_H 	H 	0.0253	0.4742	0.4626	-0.005
Mof_C 	C 	0.0764	0.4441	0.4008	0.079
Mof_H 	H 	0.0842	0.4778	0.3831	-0.007
Mof_C 	C 	0.0918	0.3509	0.4039	-0.134
Mof_H 	H 	0.1081	0.3197	0.3881	0.099
Mof_C 	C 	0.1575	0.0139	0.3935	0.062
Mof_C 	C 	0.1822	0.0586	0.3712	-0.127
Mof_H 	H 	0.1844	0.127	0.3708	0.084
Mof_C 	C 	0.2033	0.0054	0.3499	0.079
Mof_H 	H 	0.2214	0.0377	0.3351	-0.017
Mof_C 	C 	0.176	0.8642	0.3695	0.077
Mof_H 	H 	0.174	0.7958	0.369	-0.009
Mof_C 	C 	0.1538	0.9121	0.392	-0.116
Mof_H 	H 	0.1361	0.8777	0.4065	0.084
Mof_C 	C 	0.3118	0.0832	0.7662	0.079
Mof_H 	H 	0.3393	0.0989	0.7774	-0.016
Mof_C 	C 	0.3177	0.05	0.7374	-0.126
Mof_H 	H 	0.3484	0.0439	0.7291	0.083
Mof_C 	C 	0.2789	0.0261	0.7211	0.055
Mof_C 	C 	0.235	0.0328	0.7346	-0.109
Mof_H 	H 	0.2075	0.0136	0.724	0.08
Mof_C 	C 	0.2311	0.0673	0.7633	0.052
Mof_H 	H 	0.2007	0.0722	0.7722	0.003
Mof_C 	C 	0.2823	0.9956	0.6893	0.102
Mof_C 	C 	0.3244	0.9595	0.6484	0.103
Mof_C 	C 	0.2455	0.9591	0.6465	0.102
Mof_C 	C 	0.3703	0.9462	0.6332	0.054
Mof_C 	C 	0.4125	0.9572	0.6484	-0.109
Mof_H 	H 	0.4124	0.9769	0.6687	0.078
Mof_C 	C 	0.4554	0.939	0.6338	0.063
Mof_H 	H 	0.4843	0.9465	0.6443	-0.009
Mof_C 	C 	0.4164	0.9045	0.5906	0.079
Mof_H 	H 	0.4174	0.8883	0.5701	-0.012
Mof_C 	C 	0.3723	0.9201	0.6038	-0.116
Mof_H 	H 	0.3441	0.9126	0.5926	0.081
Mof_C 	C 	0.1996	0.9427	0.6302	0.055
Mof_C 	C 	0.1996	0.9104	0.601	-0.124
Mof_H 	H 	0.2284	0.9011	0.5905	0.08
Mof_C 	C 	0.1563	0.8922	0.5875	0.078
Mof_H 	H 	0.1562	0.8697	0.5675	-0.018
Mof_C 	C 	0.1159	0.9383	0.6295	0.058
Mof_H 	H 	0.0866	0.9492	0.6393	-0.008
Mof_C 	C 	0.1565	0.9569	0.6441	-0.117
Mof_H 	H 	0.1555	0.9799	0.664	0.079
Mof_I 	I 	0.98726	0.94405	0.61115	-0.362
Mof_I 	I 	0.06467	0.67486	0.57999	-0.385
Mof_I 	I 	0.19388	0.66811	0.3107	-0.369
Mof_I 	I 	0.32405	0.82465	0.33241	-0.375
Mof_I 	I 	0.06877	0.70615	0.37324	-0.37
Mof_I 	I 	0.00625	0.70073	0.46457	-0.391
Mof_N 	N 	0.0567	0.9163	0.5413	-0.277
Mof_N 	N 	0.0816	0.1563	0.4597	-0.141
Mof_N 	N 	0.1251	0.1588	0.4133	-0.131
Mof_N 	N 	0.119	0.0141	0.441	-0.136
Mof_N 	N 	0.0511	0.49	0.4214	-0.274
Mof_N 	N 	0.2	0.9088	0.3486	-0.275
Mof_N 	N 	0.2703	0.0942	0.7789	-0.274
Mof_N 	N 	0.325	0.9839	0.6776	-0.139
Mof_N 	N 	0.2862	0.9461	0.6322	-0.141
Mof_N 	N 	0.2412	0.9834	0.6752	-0.14
Mof_N 	N 	0.4566	0.9113	0.6052	-0.271
Mof_N 	N 	0.1155	0.9045	0.6011	-0.272
Mof_Zn	Zn	0.0523	0.85602	0.583	1.163
Mof_Zn	Zn	0.23722	0.82865	0.31753	1.164
Mof_Zn	Zn	0.02115	0.6234	0.41355	1.163
Mof_C 	C 	0.4529	0.9904	0.0379	0.073
Mof_H 	H 	0.4675	0.9564	0.0538	-0.015
Mof_C 	C 	0.4422	0.9409	0.0118	-0.127
Mof_H 	H 	0.4498	0.8744	0.0099	0.093
Mof_C 	C 	0.4206	0.9887	0.9889	0.059
Mof_C 	C 	0.4125	0.0858	0.9918	-0.119
Mof_H 	H 	0.3987	0.1217	0.976	0.08
Mof_C 	C 	0.4251	0.1312	0.0186	0.071
Mof_H 	H 	0.4202	0.1988	0.0204	-0.007
Mof_C 	C 	0.4058	0.9362	0.9619	0.092
Mof_C 	C 	0.4017	0.7992	0.935	0.084
Mof_C 	C 	0.3672	0.934	0.9175	0.108
Mof_C 	C 	0.4165	0.6971	0.9301	0.059
Mof_C 	C 	0.4421	0.6501	0.9522	-0.131
Mof_H 	H 	0.4488	0.6817	0.9705	0.09
Mof_C 	C 	0.4574	0.5577	0.9473	0.071
Mof_H 	H 	0.4747	0.5258	0.9626	-0.005
Mof_C 	C 	0.4236	0.5559	0.9008	0.079
Mof_H 	H 	0.4158	0.5222	0.8831	-0.007
Mof_C 	C 	0.4082	0.6491	0.9039	-0.134
Mof_H 	H 	0.3919	0.6803	0.8881	0.099
Mof_C 	C 	0.3425	0.9861	0.8935	0.06
Mof_C 	C 	0.3178	0.9414	0.8712	-0.126
Mof_H 	H 	0.3156	0.873	0.8708	0.083
Mof_C 	C 	0.2967	0.9946	0.8499	0.078
Mof_H 	H 	0.2786	0.9623	0.8351	-0.016
Mof_C 	C 	0.324	0.1358	0.8695	0.077
Mof_H 	H 	0.326	0.2042	0.869	-0.009
Mof_C 	C 	0.3462	0.0879	0.892	-0.114
Mof_H 	H 	0.3639	0.1223	0.9065	0.083
Mof_C 	C 	0.1882	0.9168	0.2662	0.079
Mof_H 	H 	0.1607	0.9011	0.2774	-0.016
Mof_C 	C 	0.1823	0.95	0.2374	-0.126
Mof_H 	H 	0.1516	0.9561	0.2291	0.083
Mof_C 	C 	0.2211	0.9739	0.2211	0.054
Mof_C 	C 	0.265	0.9672	0.2346	-0.109
Mof_H 	H 	0.2925	0.9864	0.224	0.079
Mof_C 	C 	0.2689	0.9327	0.2633	0.052
Mof_H 	H 	0.2993	0.9278	0.2722	0.003
Mof_C 	C 	0.2177	0.0044	0.1893	0.103
Mof_C 	C 	0.1756	0.0405	0.1484	0.103
Mof_C 	C 	0.2545	0.0409	0.1465	0.103
Mof_C 	C 	0.1297	0.0538	0.1332	0.054
Mof_C 	C 	0.0875	0.0428	0.1484	-0.109
Mof_H 	H 	0.0876	0.0231	0.1687	0.078
Mof_C 	C 	0.0446	0.061	0.1338	0.063
Mof_H 	H 	0.0157	0.0535	0.1443	-0.009
Mof_C 	C 	0.0836	0.0955	0.0906	0.079
Mof_H 	H 	0.0826	0.1117	0.0701	-0.012
Mof_C 	C 	0.1277	0.0799	0.1038	-0.116
Mof_H 	H 	0.1559	0.0874	0.0926	0.081
Mof_C 	C 	0.3004	0.0573	0.1302	0.055
Mof_C 	C 	0.3004	0.0896	0.101	-0.124
Mof_H 	H 	0.2716	0.0989	0.0905	0.081
Mof_C 	C 	0.3437	0.1078	0.0875	0.078
Mof_H 	H 	0.3438	0.1303	0.0675	-0.018
Mof_C 	C 	0.3841	0.0617	0.1295	0.058
Mof_H 	H 	0.4134	0.0508	0.1393	-0.008
Mof_C 	C 	0.3435	0.0431	0.1441	-0.117
Mof_H 	H 	0.3445	0.0201	0.164	0.08
Mof_I 	I 	0.51274	0.05595	0.11115	-0.363
Mof_I 	I 	0.43533	0.32514	0.07999	-0.385
Mof_I 	I 	0.30612	0.33189	0.8107	-0.369
Mof_I 	I 	0.17595	0.17535	0.83241	-0.375
Mof_I 	I 	0.43123	0.29385	0.87324	-0.37
Mof_I 	I 	0.49375	0.29927	0.96457	-0.391
Mof_N 	N 	0.4433	0.0837	0.0413	-0.276
Mof_N 	N 	0.4184	0.8437	0.9597	-0.141
Mof_N 	N 	0.3749	0.8412	0.9133	-0.131
Mof_N 	N 	0.381	0.9859	0.941	-0.136
Mof_N 	N 	0.4489	0.51	0.9214	-0.274
Mof_N 	N 	0.3	0.0912	0.8486	-0.274
Mof_N 	N 	0.2297	0.9058	0.2789	-0.274
Mof_N 	N 	0.175	0.0161	0.1776	-0.139
Mof_N 	N 	0.2138	0.0539	0.1322	-0.141
Mof_N 	N 	0.2588	0.0166	0.1752	-0.14
Mof_N 	N 	0.0434	0.0887	0.1052	-0.271
Mof_N 	N 	0.3845	0.0955	0.1011	-0.272
Mof_Zn	Zn	0.4477	0.14398	0.083	1.163
Mof_Zn	Zn	0.26278	0.17135	0.81753	1.164
Mof_Zn	Zn	0.47885	0.3766	0.91355	1.163
Mof_C 	C 	0.9529	0.5096	0.9621	0.074
Mof_H 	H 	0.9675	0.5436	0.9462	-0.015
Mof_C 	C 	0.9422	0.5591	0.9882	-0.127
Mof_H 	H 	0.9498	0.6256	0.9901	0.093
Mof_C 	C 	0.9206	0.5113	0.0111	0.059
Mof_C 	C 	0.9125	0.4142	0.0082	-0.119
Mof_H 	H 	0.8987	0.3783	0.024	0.08
Mof_C 	C 	0.9251	0.3688	0.9814	0.072
Mof_H 	H 	0.9202	0.3012	0.9796	-0.007
Mof_C 	C 	0.9058	0.5638	0.0381	0.092
Mof_C 	C 	0.9017	0.7008	0.065	0.084
Mof_C 	C 	0.8672	0.566	0.0825	0.107
Mof_C 	C 	0.9165	0.8029	0.0699	0.059
Mof_C 	C 	0.9421	0.8499	0.0478	-0.131
Mof_H 	H 	0.9488	0.8183	0.0295	0.09
Mof_C 	C 	0.9574	0.9423	0.0527	0.071
Mof_H 	H 	0.9747	0.9742	0.0374	-0.005
Mof_C 	C 	0.9236	0.9441	0.0992	0.079
Mof_H 	H 	0.9158	0.9778	0.1169	-0.007
Mof_C 	C 	0.9082	0.8509	0.0961	-0.134
Mof_H 	H 	0.8919	0.8197	0.1119	0.099
Mof_C 	C 	0.8425	0.5139	0.1065	0.061
Mof_C 	C 	0.8178	0.5586	0.1288	-0.127
Mof_H 	H 	0.8156	0.627	0.1292	0.083
Mof_C 	C 	0.7967	0.5054	0.1501	0.079
Mof_H 	H 	0.7786	0.5377	0.1649	-0.017
Mof_C 	C 	0.824	0.3642	0.1305	0.077
Mof_H 	H 	0.826	0.2958	0.131	-0.009
Mof_C 	C 	0.8462	0.4121	0.108	-0.115
Mof_H 	H 	0.8639	0.3777	0.0935	0.084
Mof_C 	C 	0.6882	0.5832	0.7338	0.079
Mof_H 	H 	0.6607	0.5989	0.7226	-0.016
Mof_C 	C 	0.6823	0.55	0.7626	-0.126
Mof_H 	H 	0.6516	0.5439	0.7709	0.083
Mof_C 	C 	0.7211	0.5261	0.7789	0.054
Mof_C 	C 	0.765	0.5328	0.7654	-0.109
Mof_H 	H 	0.7925	0.5136	0.776	0.079
Mof_C 	C 	0.7689	0.5673	0.7367	0.052
Mof_H 	H 	0.7993	0.5722	0.7278	0.003
Mof_C 	C 	0.7177	0.4956	0.8107	0.103
Mof_C 	C 	0.6756	0.4595	0.8516	0.103
Mof_C 	C 	0.7545	0.4591	0.8535	0.103
Mof_C 	C 	0.6297	0.4462	0.8668	0.054
Mof_C 	C 	0.5875	0.4572	0.8516	-0.109
Mof_H 	H 	0.5876	0.4769	0.8313	0.078
Mof_C 	C 	0.5446	0.439	0.8662	0.063
Mof_H 	H 	0.5157	0.4465	0.8557	-0.009
Mof_C 	C 	0.5836	0.4045	0.9094	0.079
Mof_H 	H 	0.5826	0.3883	0.9299	-0.012
Mof_C 	C 	0.6277	0.4201	0.8962	-0.116
Mof_H 	H 	0.6559	0.4126	0.9074	0.081
Mof_C 	C 	0.8004	0.4427	0.8698	0.055
Mof_C 	C 	0.8004	0.4104	0.899	-0.124
Mof_H 	H 	0.7716	0.4011	0.9095	0.081
Mof_C 	C 	0.8437	0.3922	0.9125	0.078
Mof_H 	H 	0.8438	0.3697	0.9325	-0.018
Mof_C 	C 	0.8841	0.4383	0.8705	0.058
Mof_H 	H 	0.9134	0.4492	0.8607	-0.008
Mof_C 	C 	0.8435	0.4569	0.8559	-0.117
Mof_H 	H 	0.8445	0.4799	0.836	0.08
Mof_I 	I 	0.01274	0.44405	0.88885	-0.362
Mof_I 	I 	0.93533	0.17486	0.92001	-0.385
Mof_I 	I 	0.80612	0.16811	0.1893	-0.37
Mof_I 	I 	0.67595	0.32465	0.16759	-0.375
Mof_I 	I 	0.93123	0.20615	0.12676	-0.37
Mof_I 	I 	0.99375	0.20073	0.03543	-0.391
Mof_N 	N 	0.9433	0.4163	0.9587	-0.277
Mof_N 	N 	0.9184	0.6563	0.0403	-0.141
Mof_N 	N 	0.8749	0.6588	0.0867	-0.131
Mof_N 	N 	0.881	0.5141	0.059	-0.136
Mof_N 	N 	0.9489	0.99	0.0786	-0.273
Mof_N 	N 	0.8	0.4088	0.1514	-0.275
Mof_N 	N 	0.7297	0.5942	0.7211	-0.274
Mof_N 	N 	0.675	0.4839	0.8224	-0.139
Mof_N 	N 	0.7138	0.4461	0.8678	-0.141
Mof_N 	N 	0.7588	0.4834	0.8248	-0.14
Mof_N 	N 	0.5434	0.4113	0.8948	-0.271
Mof_N 	N 	0.8845	0.4045	0.8989	-0.272
Mof_Zn	Zn	0.9477	0.35602	0.917	1.163
Mof_Zn	Zn	0.76278	0.32865	0.18247	1.164
Mof_Zn	Zn	0.97885	0.1234	0.08645	1.163
Mof_C 	C 	0.5471	0.4904	0.4621	0.074
Mof_H 	H 	0.5325	0.4564	0.4462	-0.015
Mof_C 	C 	0.5578	0.4409	0.4882	-0.127
Mof_H 	H 	0.5502	0.3744	0.4901	0.093
Mof_C 	C 	0.5794	0.4887	0.5111	0.059
Mof_C 	C 	0.5875	0.5858	0.5082	-0.119
Mof_H 	H 	0.6013	0.6217	0.524	0.08
Mof_C 	C 	0.5749	0.6312	0.4814	0.072
Mof_H 	H 	0.5798	0.6988	0.4796	-0.007
Mof_C 	C 	0.5942	0.4362	0.5381	0.092
Mof_C 	C 	0.5983	0.2992	0.565	0.084
Mof_C 	C 	0.6328	0.434	0.5825	0.107
Mof_C 	C 	0.5835	0.1971	0.5699	0.059
Mof_C 	C 	0.5579	0.1501	0.5478	-0.131
Mof_H 	H 	0.5512	0.1817	0.5295	0.09
Mof_C 	C 	0.5426	0.0577	0.5527	0.071
Mof_H 	H 	0.5253	0.0258	0.5374	-0.005
Mof_C 	C 	0.5764	0.0559	0.5992	0.079
Mof_H 	H 	0.5842	0.0222	0.6169	-0.007
Mof_C 	C 	0.5918	0.1491	0.5961	-0.134
Mof_H 	H 	0.6081	0.1803	0.6119	0.099
Mof_C 	C 	0.6575	0.4861	0.6065	0.061
Mof_C 	C 	0.6822	0.4414	0.6288	-0.127
Mof_H 	H 	0.6844	0.373	0.6292	0.083
Mof_C 	C 	0.7033	0.4946	0.6501	0.079
Mof_H 	H 	0.7214	0.4623	0.6649	-0.017
Mof_C 	C 	0.676	0.6358	0.6305	0.077
Mof_H 	H 	0.674	0.7042	0.631	-0.009
Mof_C 	C 	0.6538	0.5879	0.608	-0.115
Mof_H 	H 	0.6361	0.6223	0.5935	0.084
Mof_C 	C 	0.8118	0.4168	0.2338	0.079
Mof_H 	H 	0.8393	0.4011	0.2226	-0.016
Mof_C 	C 	0.8177	0.45	0.2626	-0.126
Mof_H 	H 	0.8484	0.4561	0.2709	0.083
Mof_C 	C 	0.7789	0.4739	0.2789	0.054
Mof_C 	C 	0.735	0.4672	0.2654	-0.109
Mof_H 	H 	0.7075	0.4864	0.276	0.079
Mof_C 	C 	0.7311	0.4327	0.2367	0.052
Mof_H 	H 	0.7007	0.4278	0.2278	0.003
Mof_C 	C 	0.7823	0.5044	0.3107	0.103
Mof_C 	C 	0.8244	0.5405	0.3516	0.103
Mof_C 	C 	0.7455	0.5409	0.3535	0.103
Mof_C 	C 	0.8703	0.5538	0.3668	0.054
Mof_C 	C 	0.9125	0.5428	0.3516	-0.109
Mof_H 	H 	0.9124	0.5231	0.3313	0.078
Mof_C 	C 	0.9554	0.561	0.3662	0.063
Mof_H 	H 	0.9843	0.5535	0.3557	-0.009
Mof_C 	C 	0.9164	0.5955	0.4094	0.079
Mof_H 	H 	0.9174	0.6117	0.4299	-0.012
Mof_C 	C 	0.8723	0.5799	0.3962	-0.116
Mof_H 	H 	0.8441	0.5874	0.4074	0.081
Mof_C 	C 	0.6996	0.5573	0.3698	0.055
Mof_C 	C 	0.6996	0.5896	0.399	-0.124
Mof_H 	H 	0.7284	0.5989	0.4095	0.081
Mof_C 	C 	0.6563	0.6078	0.4125	0.078
Mof_H 	H 	0.6562	0.6303	0.4325	-0.018
Mof_C 	C 	0.6159	0.5617	0.3705	0.058
Mof_H 	H 	0.5866	0.5508	0.3607	-0.008
Mof_C 	C 	0.6565	0.5431	0.3559	-0.117
Mof_H 	H 	0.6555	0.5201	0.336	0.08
Mof_I 	I 	0.48726	0.55595	0.38885	-0.362
Mof_I 	I 	0.56467	0.82514	0.42001	-0.385
Mof_I 	I 	0.69388	0.83189	0.6893	-0.369
Mof_I 	I 	0.82405	0.67535	0.66759	-0.375
Mof_I 	I 	0.56877	0.79385	0.62676	-0.37
Mof_I 	I 	0.50625	0.79927	0.53543	-0.391
Mof_N 	N 	0.5567	0.5837	0.4587	-0.277
Mof_N 	N 	0.5816	0.3437	0.5403	-0.141
Mof_N 	N 	0.6251	0.3412	0.5867	-0.131
Mof_N 	N 	0.619	0.4859	0.559	-0.136
Mof_N 	N 	0.5511	0.01	0.5786	-0.274
Mof_N 	N 	0.7	0.5912	0.6514	-0.275
Mof_N 	N 	0.7703	0.4058	0.2211	-0.274
Mof_N 	N 	0.825	0.5161	0.3224	-0.139
Mof_N 	N 	0.7862	0.5539	0.3678	-0.141
Mof_N 	N 	0.7412	0.5166	0.3248	-0.14
Mof_N 	N 	0.9566	0.5887	0.3948	-0.271
Mof_N 	N 	0.6155	0.5955	0.3989	-0.272
Mof_Zn	Zn	0.5523	0.64398	0.417	1.163
Mof_Zn	Zn	0.73722	0.67135	0.68247	1.164
Mof_Zn	Zn	0.52115	0.8766	0.58645	1.163
Mof_C 	C 	0.9529	0.9904	0.4621	0.075
Mof_H 	H 	0.9675	0.9564	0.4462	-0.015
Mof_C 	C 	0.9422	0.9409	0.4882	-0.128
Mof_H 	H 	0.9498	0.8744	0.4901	0.093
Mof_C 	C 	0.9206	0.9887	0.5111	0.061
Mof_C 	C 	0.9125	0.0858	0.5082	-0.12
Mof_H 	H 	0.8987	0.1217	0.524	0.08
Mof_C 	C 	0.9251	0.1312	0.4814	0.072
Mof_H 	H 	0.9202	0.1988	0.4796	-0.007
Mof_C 	C 	0.9058	0.9362	0.5381	0.092
Mof_C 	C 	0.9017	0.7992	0.565	0.084
Mof_C 	C 	0.8672	0.934	0.5825	0.107
Mof_C 	C 	0.9165	0.6971	0.5699	0.059
Mof_C 	C 	0.9421	0.6501	0.5478	-0.131
Mof_H 	H 	0.9488	0.6817	0.5295	0.09
Mof_C 	C 	0.9574	0.5577	0.5527	0.071
Mof_H 	H 	0.9747	0.5258	0.5374	-0.005
Mof_C 	C 	0.9236	0.5559	0.5992	0.079
Mof_H 	H 	0.9158	0.5222	0.6169	-0.007
Mof_C 	C 	0.9082	0.6491	0.5961	-0.134
Mof_H 	H 	0.8919	0.6803	0.6119	0.099
Mof_C 	C 	0.8425	0.9861	0.6065	0.062
Mof_C 	C 	0.8178	0.9414	0.6288	-0.127
Mof_H 	H 	0.8156	0.873	0.6292	0.084
Mof_C 	C 	0.7967	0.9946	0.6501	0.079
Mof_H 	H 	0.7786	0.9623	0.6649	-0.017
Mof_C 	C 	0.824	0.1358	0.6305	0.077
Mof_H 	H 	0.826	0.2042	0.631	-0.009
Mof_C 	C 	0.8462	0.0879	0.608	-0.116
Mof_H 	H 	0.8639	0.1223	0.5935	0.084
Mof_C 	C 	0.6882	0.9168	0.2338	0.079
Mof_H 	H 	0.6607	0.9011	0.2226	-0.016
Mof_C 	C 	0.6823	0.95	0.2626	-0.126
Mof_H 	H 	0.6516	0.9561	0.2709	0.083
Mof_C 	C 	0.7211	0.9739	0.2789	0.055
Mof_C 	C 	0.765	0.9672	0.2654	-0.109
Mof_H 	H 	0.7925	0.9864	0.276	0.08
Mof_C 	C 	0.7689	0.9327	0.2367	0.052
Mof_H 	H 	0.7993	0.9278	0.2278	0.003
Mof_C 	C 	0.7177	0.0044	0.3107	0.102
Mof_C 	C 	0.6756	0.0405	0.3516	0.103
Mof_C 	C 	0.7545	0.0409	0.3535	0.102
Mof_C 	C 	0.6297	0.0538	0.3668	0.054
Mof_C 	C 	0.5875	0.0428	0.3516	-0.109
Mof_H 	H 	0.5876	0.0231	0.3313	0.078
Mof_C 	C 	0.5446	0.061	0.3662	0.063
Mof_H 	H 	0.5157	0.0535	0.3557	-0.009
Mof_C 	C 	0.5836	0.0955	0.4094	0.079
Mof_H 	H 	0.5826	0.1117	0.4299	-0.012
Mof_C 	C 	0.6277	0.0799	0.3962	-0.116
Mof_H 	H 	0.6559	0.0874	0.4074	0.081
Mof_C 	C 	0.8004	0.0573	0.3698	0.055
Mof_C 	C 	0.8004	0.0896	0.399	-0.124
Mof_H 	H 	0.7716	0.0989	0.4095	0.08
Mof_C 	C 	0.8437	0.1078	0.4125	0.078
Mof_H 	H 	0.8438	0.1303	0.4325	-0.018
Mof_C 	C 	0.8841	0.0617	0.3705	0.058
Mof_H 	H 	0.9134	0.0508	0.3607	-0.008
Mof_C 	C 	0.8435	0.0431	0.3559	-0.117
Mof_H 	H 	0.8445	0.0201	0.336	0.079
Mof_I 	I 	0.01274	0.05595	0.38885	-0.362
Mof_I 	I 	0.93533	0.32514	0.42001	-0.385
Mof_I 	I 	0.80612	0.33189	0.6893	-0.369
Mof_I 	I 	0.67595	0.17535	0.66759	-0.375
Mof_I 	I 	0.93123	0.29385	0.62676	-0.37
Mof_I 	I 	0.99375	0.29927	0.53543	-0.391
Mof_N 	N 	0.9433	0.0837	0.4587	-0.277
Mof_N 	N 	0.9184	0.8437	0.5403	-0.141
Mof_N 	N 	0.8749	0.8412	0.5867	-0.131
Mof_N 	N 	0.881	0.9859	0.559	-0.136
Mof_N 	N 	0.9489	0.51	0.5786	-0.274
Mof_N 	N 	0.8	0.0912	0.6514	-0.275
Mof_N 	N 	0.7297	0.9058	0.2211	-0.274
Mof_N 	N 	0.675	0.0161	0.3224	-0.139
Mof_N 	N 	0.7138	0.0539	0.3678	-0.141
Mof_N 	N 	0.7588	0.0166	0.3248	-0.14
Mof_N 	N 	0.5434	0.0887	0.3948	-0.271
Mof_N 	N 	0.8845	0.0955	0.3989	-0.272
Mof_Zn	Zn	0.9477	0.14398	0.417	1.163
Mof_Zn	Zn	0.76278	0.17135	0.68247	1.164
Mof_Zn	Zn	0.97885	0.3766	0.58645	1.163
Mof_C 	C 	0.5471	0.0096	0.9621	0.073
Mof_H 	H 	0.5325	0.0436	0.9462	-0.015
Mof_C 	C 	0.5578	0.0591	0.9882	-0.127
Mof_H 	H 	0.5502	0.1256	0.9901	0.093
Mof_C 	C 	0.5794	0.0113	0.0111	0.059
Mof_C 	C 	0.5875	0.9142	0.0082	-0.119
Mof_H 	H 	0.6013	0.8783	0.024	0.08
Mof_C 	C 	0.5749	0.8688	0.9814	0.071
Mof_H 	H 	0.5798	0.8012	0.9796	-0.007
Mof_C 	C 	0.5942	0.0638	0.0381	0.092
Mof_C 	C 	0.5983	0.2008	0.065	0.084
Mof_C 	C 	0.6328	0.066	0.0825	0.108
Mof_C 	C 	0.5835	0.3029	0.0699	0.059
Mof_C 	C 	0.5579	0.3499	0.0478	-0.131
Mof_H 	H 	0.5512	0.3183	0.0295	0.09
Mof_C 	C 	0.5426	0.4423	0.0527	0.071
Mof_H 	H 	0.5253	0.4742	0.0374	-0.005
Mof_C 	C 	0.5764	0.4441	0.0992	0.079
Mof_H 	H 	0.5842	0.4778	0.1169	-0.007
Mof_C 	C 	0.5918	0.3509	0.0961	-0.134
Mof_H 	H 	0.6081	0.3197	0.1119	0.099
Mof_C 	C 	0.6575	0.0139	0.1065	0.06
Mof_C 	C 	0.6822	0.0586	0.1288	-0.126
Mof_H 	H 	0.6844	0.127	0.1292	0.083
Mof_C 	C 	0.7033	0.0054	0.1501	0.078
Mof_H 	H 	0.7214	0.0377	0.1649	-0.016
Mof_C 	C 	0.676	0.8642	0.1305	0.077
Mof_H 	H 	0.674	0.7958	0.131	-0.009
Mof_C 	C 	0.6538	0.9121	0.108	-0.114
Mof_H 	H 	0.6361	0.8777	0.0935	0.083
Mof_C 	C 	0.8118	0.0832	0.7338	0.079
Mof_H 	H 	0.8393	0.0989	0.7226	-0.016
Mof_C 	C 	0.8177	0.05	0.7626	-0.126
Mof_H 	H 	0.8484	0.0439	0.7709	0.083
Mof_C 	C 	0.7789	0.0261	0.7789	0.054
Mof_C 	C 	0.735	0.0328	0.7654	-0.109
Mof_H 	H 	0.7075	0.0136	0.776	0.079
Mof_C 	C 	0.7311	0.0673	0.7367	0.052
Mof_H 	H 	0.7007	0.0722	0.7278	0.003
Mof_C 	C 	0.7823	0.9956	0.8107	0.103
Mof_C 	C 	0.8244	0.9595	0.8516	0.103
Mof_C 	C 	0.7455	0.9591	0.8535	0.103
Mof_C 	C 	0.8703	0.9462	0.8668	0.054
Mof_C 	C 	0.9125	0.9572	0.8516	-0.109
Mof_H 	H 	0.9124	0.9769	0.8313	0.078
Mof_C 	C 	0.9554	0.939	0.8662	0.063
Mof_H 	H 	0.9843	0.9465	0.8557	-0.009
Mof_C 	C 	0.9164	0.9045	0.9094	0.079
Mof_H 	H 	0.9174	0.8883	0.9299	-0.012
Mof_C 	C 	0.8723	0.9201	0.8962	-0.116
Mof_H 	H 	0.8441	0.9126	0.9074	0.081
Mof_C 	C 	0.6996	0.9427	0.8698	0.055
Mof_C 	C 	0.6996	0.9104	0.899	-0.124
Mof_H 	H 	0.7284	0.9011	0.9095	0.081
Mof_C 	C 	0.6563	0.8922	0.9125	0.078
Mof_H 	H 	0.6562	0.8697	0.9325	-0.018
Mof_C 	C 	0.6159	0.9383	0.8705	0.058
Mof_H 	H 	0.5866	0.9492	0.8607	-0.008
Mof_C 	C 	0.6565	0.9569	0.8559	-0.117
Mof_H 	H 	0.6555	0.9799	0.836	0.08
Mof_I 	I 	0.48726	0.94405	0.88885	-0.363
Mof_I 	I 	0.56467	0.67486	0.92001	-0.385
Mof_I 	I 	0.69388	0.66811	0.1893	-0.369
Mof_I 	I 	0.82405	0.82465	0.16759	-0.375
Mof_I 	I 	0.56877	0.70615	0.12676	-0.37
Mof_I 	I 	0.50625	0.70073	0.03543	-0.391
Mof_N 	N 	0.5567	0.9163	0.9587	-0.276
Mof_N 	N 	0.5816	0.1563	0.0403	-0.141
Mof_N 	N 	0.6251	0.1588	0.0867	-0.131
Mof_N 	N 	0.619	0.0141	0.059	-0.136
Mof_N 	N 	0.5511	0.49	0.0786	-0.274
Mof_N 	N 	0.7	0.9088	0.1514	-0.274
Mof_N 	N 	0.7703	0.0942	0.7211	-0.274
Mof_N 	N 	0.825	0.9839	0.8224	-0.139
Mof_N 	N 	0.7862	0.9461	0.8678	-0.141
Mof_N 	N 	0.7412	0.9834	0.8248	-0.14
Mof_N 	N 	0.9566	0.9113	0.8948	-0.271
Mof_N 	N 	0.6155	0.9045	0.8989	-0.272
Mof_Zn	Zn	0.5523	0.85602	0.917	1.163
Mof_Zn	Zn	0.73722	0.82865	0.18247	1.164
Mof_Zn	Zn	0.52115	0.6234	0.08645	1.163
Mof_C 	C 	0.0471	0.4904	0.0379	0.074
Mof_H 	H 	0.0325	0.4564	0.0538	-0.015
Mof_C 	C 	0.0578	0.4409	0.0118	-0.127
Mof_H 	H 	0.0502	0.3744	0.0099	0.093
Mof_C 	C 	0.0794	0.4887	0.9889	0.059
Mof_C 	C 	0.0875	0.5858	0.9918	-0.119
Mof_H 	H 	0.1013	0.6217	0.976	0.08
Mof_C 	C 	0.0749	0.6312	0.0186	0.072
Mof_H 	H 	0.0798	0.6988	0.0204	-0.007
Mof_C 	C 	0.0942	0.4362	0.9619	0.092
Mof_C 	C 	0.0983	0.2992	0.935	0.084
Mof_C 	C 	0.1328	0.434	0.9175	0.107
Mof_C 	C 	0.0835	0.1971	0.9301	0.059
Mof_C 	C 	0.0579	0.1501	0.9522	-0.131
Mof_H 	H 	0.0512	0.1817	0.9705	0.09
Mof_C 	C 	0.0426	0.0577	0.9473	0.071
Mof_H 	H 	0.0253	0.0258	0.9626	-0.005
Mof_C 	C 	0.0764	0.0559	0.9008	0.079
Mof_H 	H 	0.0842	0.0222	0.8831	-0.007
Mof_C 	C 	0.0918	0.1491	0.9039	-0.134
Mof_H 	H 	0.1081	0.1803	0.8881	0.099
Mof_C 	C 	0.1575	0.4861	0.8935	0.061
Mof_C 	C 	0.1822	0.4414	0.8712	-0.127
Mof_H 	H 	0.1844	0.373	0.8708	0.083
Mof_C 	C 	0.2033	0.4946	0.8499	0.079
Mof_H 	H 	0.2214	0.4623	0.8351	-0.017
Mof_C 	C 	0.176	0.6358	0.8695	0.077
Mof_H 	H 	0.174	0.7042	0.869	-0.009
Mof_C 	C 	0.1538	0.5879	0.892	-0.115
Mof_H 	H 	0.1361	0.6223	0.9065	0.084
Mof_C 	C 	0.3118	0.4168	0.2662	0.079
Mof_H 	H 	0.3393	0.4011	0.2774	-0.016
Mof_C 	C 	0.3177	0.45	0.2374	-0.126
Mof_H 	H 	0.3484	0.4561	0.2291	0.083
Mof_C 	C 	0.2789	0.4739	0.2211	0.054
Mof_C 	C 	0.235	0.4672	0.2346	-0.109
Mof_H 	H 	0.2075	0.4864	0.224	0.079
Mof_C 	C 	0.2311	0.4327	0.2633	0.052
Mof_H 	H 	0.2007	0.4278	0.2722	0.003
Mof_C 	C 	0.2823	0.5044	0.1893	0.103
Mof_C 	C 	0.3244	0.5405	0.1484	0.103
Mof_C 	C 	0.2455	0.5409	0.1465	0.103
Mof_C 	C 	0.3703	0.5538	0.1332	0.054
Mof_C 	C 	0.4125	0.5428	0.1484	-0.109
Mof_H 	H 	0.4124	0.5231	0.1687	0.078
Mof_C 	C 	0.4554	0.561	0.1338	0.063
Mof_H 	H 	0.4843	0.5535	0.1443	-0.009
Mof_C 	C 	0.4164	0.5955	0.0906	0.079
Mof_H 	H 	0.4174	0.6117	0.0701	-0.012
Mof_C 	C 	0.3723	0.5799	0.1038	-0.116
Mof_H 	H 	0.3441	0.5874	0.0926	0.081
Mof_C 	C 	0.1996	0.5573	0.1302	0.055
Mof_C 	C 	0.1996	0.5896	0.101	-0.124
Mof_H 	H 	0.2284	0.5989	0.0905	0.081
Mof_C 	C 	0.1563	0.6078	0.0875	0.078
Mof_H 	H 	0.1562	0.6303	0.0675	-0.018
Mof_C 	C 	0.1159	0.5617	0.1295	0.058
Mof_H 	H 	0.0866	0.5508	0.1393	-0.008
Mof_C 	C 	0.1565	0.5431	0.1441	-0.117
Mof_H 	H 	0.1555	0.5201	0.164	0.08
Mof_I 	I 	0.98726	0.55595	0.11115	-0.362
Mof_I 	I 	0.06467	0.82514	0.07999	-0.385
Mof_I 	I 	0.19388	0.83189	0.8107	-0.37
Mof_I 	I 	0.32405	0.67535	0.83241	-0.375
Mof_I 	I 	0.06877	0.79385	0.87324	-0.37
Mof_I 	I 	0.00625	0.79927	0.96457	-0.391
Mof_N 	N 	0.0567	0.5837	0.0413	-0.277
Mof_N 	N 	0.0816	0.3437	0.9597	-0.141
Mof_N 	N 	0.1251	0.3412	0.9133	-0.131
Mof_N 	N 	0.119	0.4859	0.941	-0.136
Mof_N 	N 	0.0511	0.01	0.9214	-0.273
Mof_N 	N 	0.2	0.5912	0.8486	-0.275
Mof_N 	N 	0.2703	0.4058	0.2789	-0.274
Mof_N 	N 	0.325	0.5161	0.1776	-0.139
Mof_N 	N 	0.2862	0.5539	0.1322	-0.141
Mof_N 	N 	0.2412	0.5166	0.1752	-0.14
Mof_N 	N 	0.4566	0.5887	0.1052	-0.271
Mof_N 	N 	0.1155	0.5955	0.1011	-0.272
Mof_Zn	Zn	0.0523	0.64398	0.083	1.163
Mof_Zn	Zn	0.23722	0.67135	0.81753	1.164
Mof_Zn	Zn	0.02115	0.8766	0.91355	1.163
Mof_C 	C 	0.4529	0.5096	0.5379	0.074
Mof_H 	H 	0.4675	0.5436	0.5538	-0.015
Mof_C 	C 	0.4422	0.5591	0.5118	-0.127
Mof_H 	H 	0.4498	0.6256	0.5099	0.093
Mof_C 	C 	0.4206	0.5113	0.4889	0.059
Mof_C 	C 	0.4125	0.4142	0.4918	-0.119
Mof_H 	H 	0.3987	0.3783	0.476	0.08
Mof_C 	C 	0.4251	0.3688	0.5186	0.072
Mof_H 	H 	0.4202	0.3012	0.5204	-0.007
Mof_C 	C 	0.4058	0.5638	0.4619	0.092
Mof_C 	C 	0.4017	0.7008	0.435	0.084
Mof_C 	C 	0.3672	0.566	0.4175	0.107
Mof_C 	C 	0.4165	0.8029	0.4301	0.059
Mof_C 	C 	0.4421	0.8499	0.4522	-0.131
Mof_H 	H 	0.4488	0.8183	0.4705	0.09
Mof_C 	C 	0.4574	0.9423	0.4473	0.071
Mof_H 	H 	0.4747	0.9742	0.4626	-0.005
Mof_C 	C 	0.4236	0.9441	0.4008	0.079
Mof_H 	H 	0.4158	0.9778	0.3831	-0.007
Mof_C 	C 	0.4082	0.8509	0.4039	-0.134
Mof_H 	H 	0.3919	0.8197	0.3881	0.099
Mof_C 	C 	0.3425	0.5139	0.3935	0.061
Mof_C 	C 	0.3178	0.5586	0.3712	-0.127
Mof_H 	H 	0.3156	0.627	0.3708	0.083
Mof_C 	C 	0.2967	0.5054	0.3499	0.079
Mof_H 	H 	0.2786	0.5377	0.3351	-0.017
Mof_C 	C 	0.324	0.3642	0.3695	0.077
Mof_H 	H 	0.326	0.2958	0.369	-0.009
Mof_C 	C 	0.3462	0.4121	0.392	-0.115
Mof_H 	H 	0.3639	0.3777	0.4065	0.084
Mof_C 	C 	0.1882	0.5832	0.7662	0.079
Mof_H 	H 	0.1607	0.5989	0.7774	-0.016
Mof_C 	C 	0.1823	0.55	0.7374	-0.126
Mof_H 	H 	0.1516	0.5439	0.7291	0.083
Mof_C 	C 	0.2211	0.5261	0.7211	0.054
Mof_C 	C 	0.265	0.5328	0.7346	-0.109
Mof_H 	H 	0.2925	0.5136	0.724	0.079
Mof_C 	C 	0.2689	0.5673	0.7633	0.052
Mof_H 	H 	0.2993	0.5722	0.7722	0.003
Mof_C 	C 	0.2177	0.4956	0.6893	0.103
Mof_C 	C 	0.1756	0.4595	0.6484	0.103
Mof_C 	C 	0.2545	0.4591	0.6465	0.103
Mof_C 	C 	0.1297	0.4462	0.6332	0.054
Mof_C 	C 	0.0875	0.4572	0.6484	-0.109
Mof_H 	H 	0.0876	0.4769	0.6687	0.078
Mof_C 	C 	0.0446	0.439	0.6338	0.063
Mof_H 	H 	0.0157	0.4465	0.6443	-0.009
Mof_C 	C 	0.0836	0.4045	0.5906	0.079
Mof_H 	H 	0.0826	0.3883	0.5701	-0.012
Mof_C 	C 	0.1277	0.4201	0.6038	-0.116
Mof_H 	H 	0.1559	0.4126	0.5926	0.081
Mof_C 	C 	0.3004	0.4427	0.6302	0.055
Mof_C 	C 	0.3004	0.4104	0.601	-0.124
Mof_H 	H 	0.2716	0.4011	0.5905	0.081
Mof_C 	C 	0.3437	0.3922	0.5875	0.078
Mof_H 	H 	0.3438	0.3697	0.5675	-0.018
Mof_C 	C 	0.3841	0.4383	0.6295	0.058
Mof_H 	H 	0.4134	0.4492	0.6393	-0.008
Mof_C 	C 	0.3435	0.4569	0.6441	-0.117
Mof_H 	H 	0.3445	0.4799	0.664	0.08
Mof_I 	I 	0.51274	0.44405	0.61115	-0.362
Mof_I 	I 	0.43533	0.17486	0.57999	-0.385
Mof_I 	I 	0.30612	0.16811	0.3107	-0.369
Mof_I 	I 	0.17595	0.32465	0.33241	-0.375
Mof_I 	I 	0.43123	0.20615	0.37324	-0.37
Mof_I 	I 	0.49375	0.20073	0.46457	-0.391
Mof_N 	N 	0.4433	0.4163	0.5413	-0.277
Mof_N 	N 	0.4184	0.6563	0.4597	-0.141
Mof_N 	N 	0.3749	0.6588	0.4133	-0.131
Mof_N 	N 	0.381	0.5141	0.441	-0.136
Mof_N 	N 	0.4489	0.99	0.4214	-0.274
Mof_N 	N 	0.3	0.4088	0.3486	-0.275
Mof_N 	N 	0.2297	0.5942	0.7789	-0.274
Mof_N 	N 	0.175	0.4839	0.6776	-0.139
Mof_N 	N 	0.2138	0.4461	0.6322	-0.141
Mof_N 	N 	0.2588	0.4834	0.6752	-0.14
Mof_N 	N 	0.0434	0.4113	0.6052	-0.271
Mof_N 	N 	0.3845	0.4045	0.6011	-0.272
Mof_Zn	Zn	0.4477	0.35602	0.583	1.163
Mof_Zn	Zn	0.26278	0.32865	0.31753	1.164
Mof_Zn	Zn	0.47885	0.1234	0.41355	1.163
_end
