data_functionalizedCrystal
_audit_creation_method	'EQeq! by Chris Wilmer'
_symmetry_space_group_name_H-M	'P1'
_symmetry_Int_Tables_number	1
_symmetry_cell_setting	triclinic
loop_
_symmetry_equiv_pos_as_xyz
  x,y,z
_cell_length_a	12.3096
_cell_length_b	11.757
_cell_length_c	12.6334
_cell_angle_alpha	90
_cell_angle_beta	98.103
_cell_angle_gamma	90
loop_
_atom_site_label
_atom_site_type_symbol
_atom_site_fract_x
_atom_site_fract_y
_atom_site_fract_z
_atom_site_charge
Mof_P 	P 	0.23219	0.25	0.0997	0.579
Mof_P 	P 	0.0625	0.6673	0.11398	0.636
Mof_P 	P 	0.42871	0.3389	0.3628	0.616
Mof_P 	P 	0.32636	0.7058	0.36496	0.639
Mof_V 	V 	0.69618	0.29947	0.38101	1.744
Mof_V 	V 	0.17851	0.2567	0.3394	1.805
Mof_V 	V 	0.26388	0.5049	0.208	1.837
Mof_O 	O 	0.3977	0.4239	0.2745	-0.467
Mof_O 	O 	0.2628	0.5964	0.338	-0.496
Mof_O 	O 	0.1125	0.5576	0.1609	-0.459
Mof_O 	O 	0.5357	0.2799	0.3556	-0.466
Mof_O 	O 	0.1711	0.389	0.3036	-0.661
Mof_O 	O 	0.3246	0.5959	0.1429	-0.622
Mof_O 	O 	0.3041	0.7936	0.2793	-0.481
Mof_O 	O 	0.3412	0.2483	0.3674	-0.489
Mof_O 	O 	0.3029	0.7527	0.4695	-0.481
Mof_O 	O 	0.2395	0.3795	0.103	-0.486
Mof_O 	O 	0.1428	0.7574	0.0967	-0.498
Mof_O 	O 	0.9783	0.7111	0.1813	-0.472
Mof_O 	O 	0.1781	0.1999	0.1893	-0.468
Mof_O 	O 	0.1715	0.213	0.9916	-0.494
Mof_O 	O 	0.4365	0.4116	0.4669	-0.474
Mof_H 	H 	0.4087	0.3766	0.5124	0.215
Mof_O 	O 	0.4472	0.687	0.362	-0.467
Mof_H 	H 	0.4748	0.6566	0.418	0.285
Mof_O 	O 	0.0162	0.651	0.998	-0.439
Mof_H 	H 	0.9583	0.6864	0.9846	0.271
Mof_O 	O 	0.349	0.198	0.123	-0.402
Mof_H 	H 	0.3645	0.1677	0.0683	0.195
Mof_P 	P 	0.76781	0.75	0.4003	0.584
Mof_P 	P 	0.9375	0.1673	0.38602	0.651
Mof_P 	P 	0.57129	0.8389	0.1372	0.614
Mof_P 	P 	0.67364	0.2058	0.13504	0.638
Mof_V 	V 	0.30382	0.79947	0.11899	1.744
Mof_V 	V 	0.82149	0.7567	0.1606	1.805
Mof_V 	V 	0.73612	0.0049	0.292	1.836
Mof_O 	O 	0.6023	0.9239	0.2255	-0.465
Mof_O 	O 	0.7372	0.0964	0.162	-0.496
Mof_O 	O 	0.8875	0.0576	0.3391	-0.459
Mof_O 	O 	0.4643	0.7799	0.1444	-0.466
Mof_O 	O 	0.8289	0.889	0.1964	-0.657
Mof_O 	O 	0.6754	0.0959	0.3571	-0.622
Mof_O 	O 	0.6959	0.2936	0.2207	-0.481
Mof_O 	O 	0.6588	0.7483	0.1326	-0.488
Mof_O 	O 	0.6971	0.2527	0.0305	-0.48
Mof_O 	O 	0.7605	0.8795	0.397	-0.484
Mof_O 	O 	0.8572	0.2574	0.4033	-0.498
Mof_O 	O 	0.0217	0.2111	0.3187	-0.482
Mof_O 	O 	0.8219	0.6999	0.3107	-0.468
Mof_O 	O 	0.8285	0.713	0.5084	-0.503
Mof_O 	O 	0.5635	0.9116	0.0331	-0.465
Mof_H 	H 	0.5913	0.8766	0.9876	0.207
Mof_O 	O 	0.5528	0.187	0.138	-0.467
Mof_H 	H 	0.5252	0.1566	0.082	0.283
Mof_O 	O 	0.9838	0.151	0.502	-0.463
Mof_H 	H 	0.0417	0.1864	0.5154	0.289
Mof_O 	O 	0.651	0.698	0.377	-0.401
Mof_H 	H 	0.6355	0.6677	0.4317	0.195
Mof_P 	P 	0.76781	0.75	0.9003	0.578
Mof_P 	P 	0.9375	0.3327	0.88602	0.635
Mof_P 	P 	0.57129	0.6611	0.6372	0.616
Mof_P 	P 	0.67364	0.2942	0.63504	0.639
Mof_V 	V 	0.30382	0.70053	0.61899	1.744
Mof_V 	V 	0.82149	0.7433	0.6606	1.805
Mof_V 	V 	0.73612	0.4951	0.792	1.837
Mof_O 	O 	0.6023	0.5761	0.7255	-0.467
Mof_O 	O 	0.7372	0.4036	0.662	-0.496
Mof_O 	O 	0.8875	0.4424	0.8391	-0.459
Mof_O 	O 	0.4643	0.7201	0.6444	-0.466
Mof_O 	O 	0.8289	0.611	0.6964	-0.661
Mof_O 	O 	0.6754	0.4041	0.8571	-0.622
Mof_O 	O 	0.6959	0.2064	0.7207	-0.481
Mof_O 	O 	0.6588	0.7517	0.6326	-0.489
Mof_O 	O 	0.6971	0.2473	0.5305	-0.481
Mof_O 	O 	0.7605	0.6205	0.897	-0.486
Mof_O 	O 	0.8572	0.2426	0.9033	-0.498
Mof_O 	O 	0.0217	0.2889	0.8187	-0.472
Mof_O 	O 	0.8219	0.8001	0.8107	-0.468
Mof_O 	O 	0.8285	0.787	0.0084	-0.494
Mof_O 	O 	0.5635	0.5884	0.5331	-0.474
Mof_H 	H 	0.5913	0.6234	0.4876	0.215
Mof_O 	O 	0.5528	0.313	0.638	-0.467
Mof_H 	H 	0.5252	0.3434	0.582	0.285
Mof_O 	O 	0.9838	0.349	0.002	-0.439
Mof_H 	H 	0.0417	0.3136	0.0154	0.271
Mof_O 	O 	0.651	0.802	0.877	-0.402
Mof_H 	H 	0.6355	0.8323	0.9317	0.195
Mof_P 	P 	0.23219	0.25	0.5997	0.584
Mof_P 	P 	0.0625	0.8327	0.61398	0.651
Mof_P 	P 	0.42871	0.1611	0.8628	0.614
Mof_P 	P 	0.32636	0.7942	0.86496	0.638
Mof_V 	V 	0.69618	0.20053	0.88101	1.744
Mof_V 	V 	0.17851	0.2433	0.8394	1.805
Mof_V 	V 	0.26388	0.9951	0.708	1.836
Mof_O 	O 	0.3977	0.0761	0.7745	-0.465
Mof_O 	O 	0.2628	0.9036	0.838	-0.496
Mof_O 	O 	0.1125	0.9424	0.6609	-0.459
Mof_O 	O 	0.5357	0.2201	0.8556	-0.466
Mof_O 	O 	0.1711	0.111	0.8036	-0.657
Mof_O 	O 	0.3246	0.9041	0.6429	-0.622
Mof_O 	O 	0.3041	0.7064	0.7793	-0.481
Mof_O 	O 	0.3412	0.2517	0.8674	-0.488
Mof_O 	O 	0.3029	0.7473	0.9695	-0.48
Mof_O 	O 	0.2395	0.1205	0.603	-0.484
Mof_O 	O 	0.1428	0.7426	0.5967	-0.498
Mof_O 	O 	0.9783	0.7889	0.6813	-0.482
Mof_O 	O 	0.1781	0.3001	0.6893	-0.468
Mof_O 	O 	0.1715	0.287	0.4916	-0.503
Mof_O 	O 	0.4365	0.0884	0.9669	-0.465
Mof_H 	H 	0.4087	0.1234	0.0124	0.207
Mof_O 	O 	0.4472	0.813	0.862	-0.467
Mof_H 	H 	0.4748	0.8434	0.918	0.283
Mof_O 	O 	0.0162	0.849	0.498	-0.463
Mof_H 	H 	0.9583	0.8136	0.4846	0.289
Mof_O 	O 	0.349	0.302	0.623	-0.401
Mof_H 	H 	0.3645	0.3323	0.5683	0.195
_end
