data_functionalizedCrystal
_audit_creation_method	'EQeq! by Chris Wilmer'
_symmetry_space_group_name_H-M	'P1'
_symmetry_Int_Tables_number	1
_symmetry_cell_setting	triclinic
loop_
_symmetry_equiv_pos_as_xyz
  x,y,z
_cell_length_a	8.3203
_cell_length_b	15.8367
_cell_length_c	21.5047
_cell_angle_alpha	90
_cell_angle_beta	90
_cell_angle_gamma	90
loop_
_atom_site_label
_atom_site_type_symbol
_atom_site_fract_x
_atom_site_fract_y
_atom_site_fract_z
_atom_site_charge
Mof_Nd	Nd	0.14548	0.1565	0.72772	1.493
Mof_Nd	Nd	0.85452	0.8435	0.22772	1.493
Mof_Nd	Nd	0.35452	0.6565	0.72772	1.491
Mof_Nd	Nd	0.64548	0.3435	0.22772	1.497
Mof_U 	U 	0.97704	0.64419	0.97608	-0.017
Mof_U 	U 	0.98407	0.36625	0.97188	-0.015
Mof_U 	U 	0.02296	0.35581	0.47608	-0.001
Mof_U 	U 	0.01593	0.63375	0.47188	0.002
Mof_U 	U 	0.52296	0.14419	0.97608	-0.014
Mof_U 	U 	0.51593	0.86625	0.97188	-0.012
Mof_U 	U 	0.47704	0.85581	0.47608	-0.002
Mof_U 	U 	0.48407	0.13375	0.47188	-0.001
Mof_C 	C 	0.0178	0.1869	0.9781	0.255
Mof_C 	C 	0.0215	0.0928	0.9806	-0.036
Mof_C 	C 	0.0145	0.916	0.9793	-0.033
Mof_C 	C 	0.0116	0.8218	0.9812	0.258
Mof_C 	C 	0.1901	0.9125	0.8829	0.301
Mof_C 	C 	0.1987	0.0926	0.8837	0.372
Mof_C 	C 	0.8341	0.0954	0.0752	0.285
Mof_C 	C 	0.1003	0.9597	0.9351	-0.007
Mof_C 	C 	0.9239	0.9619	0.024	-0.033
Mof_C 	C 	0.1074	0.0478	0.9347	-0.047
Mof_C 	C 	0.9284	0.0494	0.0253	0.009
Mof_C 	C 	0.8243	0.9159	0.0729	0.381
Mof_C 	C 	0.9822	0.8131	0.4781	0.27
Mof_C 	C 	0.9785	0.9072	0.4806	-0.023
Mof_C 	C 	0.9855	0.084	0.4793	-0.023
Mof_C 	C 	0.9884	0.1782	0.4812	0.274
Mof_C 	C 	0.8099	0.0875	0.3829	0.301
Mof_C 	C 	0.8013	0.9074	0.3837	0.372
Mof_C 	C 	0.1659	0.9046	0.5752	0.288
Mof_C 	C 	0.8997	0.0403	0.4351	-0.007
Mof_C 	C 	0.0761	0.0381	0.524	-0.044
Mof_C 	C 	0.8926	0.9522	0.4347	-0.048
Mof_C 	C 	0.0716	0.9506	0.5253	-0.006
Mof_C 	C 	0.1757	0.0841	0.5729	0.384
Mof_C 	C 	0.4822	0.6869	0.9781	0.252
Mof_C 	C 	0.4785	0.5928	0.9806	-0.038
Mof_C 	C 	0.4855	0.416	0.9793	-0.039
Mof_C 	C 	0.4884	0.3218	0.9812	0.253
Mof_C 	C 	0.3099	0.4125	0.8829	0.3
Mof_C 	C 	0.3013	0.5926	0.8837	0.371
Mof_C 	C 	0.6659	0.5954	0.0752	0.285
Mof_C 	C 	0.3997	0.4597	0.9351	-0.007
Mof_C 	C 	0.5761	0.4619	0.024	-0.025
Mof_C 	C 	0.3926	0.5478	0.9347	-0.046
Mof_C 	C 	0.5716	0.5494	0.0253	0.01
Mof_C 	C 	0.6757	0.4159	0.0729	0.379
Mof_C 	C 	0.5178	0.3131	0.4781	0.276
Mof_C 	C 	0.5215	0.4072	0.4806	-0.018
Mof_C 	C 	0.5145	0.584	0.4793	-0.02
Mof_C 	C 	0.5116	0.6782	0.4812	0.279
Mof_C 	C 	0.6901	0.5875	0.3829	0.301
Mof_C 	C 	0.6987	0.4074	0.3837	0.373
Mof_C 	C 	0.3341	0.4046	0.5752	0.29
Mof_C 	C 	0.6003	0.5403	0.4351	-0.008
Mof_C 	C 	0.4239	0.5381	0.524	-0.047
Mof_C 	C 	0.6074	0.4522	0.4347	-0.048
Mof_C 	C 	0.4284	0.4506	0.5253	-0.012
Mof_C 	C 	0.3243	0.5841	0.5729	0.384
Mof_O 	O 	0.9575	0.228	0.0238	-0.166
Mof_O 	O 	0.0776	0.2261	0.9334	-0.201
Mof_O 	O 	0.9395	0.7834	0.0242	-0.184
Mof_O 	O 	0.3346	0.8956	0.889	-0.216
Mof_O 	O 	0.1115	0.9004	0.8341	-0.261
Mof_O 	O 	0.3418	0.1176	0.8936	-0.239
Mof_O 	O 	0.133	0.0937	0.832	-0.468
Mof_O 	O 	0.884	0.9075	0.125	-0.477
Mof_O 	O 	0.6846	0.8927	0.0583	-0.234
Mof_O 	O 	0.9236	0.5051	0.9527	-0.086
Mof_O 	O 	0.6893	0.1164	0.0622	-0.194
Mof_O 	O 	0.9001	0.1084	0.1258	-0.265
Mof_O 	O 	0.0833	0.7815	0.9391	-0.185
Mof_O 	O 	0.0425	0.772	0.5238	-0.182
Mof_O 	O 	0.9224	0.7739	0.4334	-0.204
Mof_O 	O 	0.0605	0.2166	0.5242	-0.201
Mof_O 	O 	0.6654	0.1044	0.389	-0.214
Mof_O 	O 	0.8885	0.0996	0.3341	-0.262
Mof_O 	O 	0.6582	0.8824	0.3936	-0.238
Mof_O 	O 	0.867	0.9063	0.332	-0.469
Mof_O 	O 	0.116	0.0925	0.625	-0.478
Mof_O 	O 	0.3154	0.1073	0.5583	-0.243
Mof_O 	O 	0.0764	0.4949	0.4527	-0.074
Mof_O 	O 	0.3107	0.8836	0.5622	-0.204
Mof_O 	O 	0.0999	0.8916	0.6258	-0.266
Mof_O 	O 	0.9167	0.2185	0.4391	-0.189
Mof_O 	O 	0.5425	0.728	0.0238	-0.162
Mof_O 	O 	0.4224	0.7261	0.9334	-0.201
Mof_O 	O 	0.5605	0.2834	0.0242	-0.179
Mof_O 	O 	0.1654	0.3956	0.889	-0.214
Mof_O 	O 	0.3885	0.4004	0.8341	-0.262
Mof_O 	O 	0.1582	0.6176	0.8936	-0.237
Mof_O 	O 	0.367	0.5937	0.832	-0.468
Mof_O 	O 	0.616	0.4075	0.125	-0.475
Mof_O 	O 	0.8154	0.3927	0.0583	-0.234
Mof_O 	O 	0.5764	0.0051	0.9527	-0.085
Mof_O 	O 	0.8107	0.6164	0.0622	-0.195
Mof_O 	O 	0.5999	0.6084	0.1258	-0.264
Mof_O 	O 	0.4167	0.2815	0.9391	-0.185
Mof_O 	O 	0.4575	0.272	0.5238	-0.188
Mof_O 	O 	0.5776	0.2739	0.4334	-0.204
Mof_O 	O 	0.4395	0.7166	0.5242	-0.206
Mof_O 	O 	0.8346	0.6044	0.389	-0.217
Mof_O 	O 	0.6115	0.5996	0.3341	-0.261
Mof_O 	O 	0.8418	0.3824	0.3936	-0.24
Mof_O 	O 	0.633	0.4063	0.332	-0.468
Mof_O 	O 	0.384	0.5925	0.625	-0.478
Mof_O 	O 	0.1846	0.6073	0.5583	-0.243
Mof_O 	O 	0.4236	0.9949	0.4527	-0.076
Mof_O 	O 	0.1893	0.3836	0.5622	-0.204
Mof_O 	O 	0.4001	0.3916	0.6258	-0.268
Mof_O 	O 	0.5833	0.7185	0.4391	-0.188
_end
