data_functionalizedCrystal
_audit_creation_method	'EQeq! by Chris Wilmer'
_symmetry_space_group_name_H-M	'P1'
_symmetry_Int_Tables_number	1
_symmetry_cell_setting	triclinic
loop_
_symmetry_equiv_pos_as_xyz
  x,y,z
_cell_length_a	32.6919
_cell_length_b	32.6919
_cell_length_c	32.6919
_cell_angle_alpha	90
_cell_angle_beta	90
_cell_angle_gamma	90
loop_
_atom_site_label
_atom_site_type_symbol
_atom_site_fract_x
_atom_site_fract_y
_atom_site_fract_z
_atom_site_charge
Mof_H 	H 	0.3035	0.5753	0.794	0.092
Mof_H 	H 	0.2579	0.589	0.7968	0.34
Mof_N 	N 	0.28696	0.61301	0.74533	-0.098
Mof_N 	N 	0.31697	0.61037	0.7226	-0.037
Mof_N 	N 	0.34712	0.60726	0.70014	-0.028
Mof_H 	H 	0.3035	0.0753	0.294	0.11
Mof_H 	H 	0.2579	0.089	0.2968	0.344
Mof_N 	N 	0.28696	0.11301	0.24533	-0.097
Mof_N 	N 	0.31697	0.11037	0.2226	-0.038
Mof_N 	N 	0.34712	0.10726	0.20014	-0.033
Mof_H 	H 	0.8035	0.5753	0.294	0.127
Mof_H 	H 	0.7579	0.589	0.2968	0.344
Mof_N 	N 	0.78696	0.61301	0.24533	-0.096
Mof_N 	N 	0.81697	0.61037	0.2226	-0.036
Mof_N 	N 	0.84712	0.60726	0.20014	-0.025
Mof_H 	H 	0.8035	0.0753	0.794	0.113
Mof_H 	H 	0.7579	0.089	0.7968	0.348
Mof_N 	N 	0.78696	0.11301	0.74533	-0.097
Mof_N 	N 	0.81697	0.11037	0.7226	-0.037
Mof_N 	N 	0.84712	0.10726	0.70014	-0.027
Mof_H 	H 	0.6965	0.4247	0.794	0.087
Mof_H 	H 	0.7421	0.411	0.7968	0.339
Mof_N 	N 	0.71304	0.38699	0.74533	-0.099
Mof_N 	N 	0.68303	0.38963	0.7226	-0.038
Mof_N 	N 	0.65288	0.39274	0.70014	-0.029
Mof_H 	H 	0.6965	0.9247	0.294	0.118
Mof_H 	H 	0.7421	0.911	0.2968	0.365
Mof_N 	N 	0.71304	0.88699	0.24533	-0.101
Mof_N 	N 	0.68303	0.88963	0.2226	-0.037
Mof_N 	N 	0.65288	0.89274	0.20014	-0.023
Mof_H 	H 	0.1965	0.4247	0.294	0.099
Mof_H 	H 	0.2421	0.411	0.2968	0.338
Mof_N 	N 	0.21304	0.38699	0.24533	-0.098
Mof_N 	N 	0.18303	0.38963	0.2226	-0.038
Mof_N 	N 	0.15288	0.39274	0.20014	-0.033
Mof_H 	H 	0.1965	0.9247	0.794	0.1
Mof_H 	H 	0.2421	0.911	0.7968	0.364
Mof_N 	N 	0.21304	0.88699	0.74533	-0.101
Mof_N 	N 	0.18303	0.88963	0.7226	-0.036
Mof_N 	N 	0.15288	0.89274	0.70014	-0.023
Mof_H 	H 	0.6965	0.5753	0.206	0.109
Mof_H 	H 	0.7421	0.589	0.2032	0.339
Mof_N 	N 	0.71304	0.61301	0.25467	-0.098
Mof_N 	N 	0.68303	0.61037	0.2774	-0.038
Mof_N 	N 	0.65288	0.60726	0.29986	-0.029
Mof_H 	H 	0.6965	0.0753	0.706	0.109
Mof_H 	H 	0.7421	0.089	0.7032	0.344
Mof_N 	N 	0.71304	0.11301	0.75467	-0.098
Mof_N 	N 	0.68303	0.11037	0.7774	-0.039
Mof_N 	N 	0.65288	0.10726	0.79986	-0.03
Mof_H 	H 	0.1965	0.5753	0.706	0.105
Mof_H 	H 	0.2421	0.589	0.7032	0.339
Mof_N 	N 	0.21304	0.61301	0.75467	-0.098
Mof_N 	N 	0.18303	0.61037	0.7774	-0.038
Mof_N 	N 	0.15288	0.60726	0.79986	-0.029
Mof_H 	H 	0.1965	0.0753	0.206	0.109
Mof_H 	H 	0.2421	0.089	0.2032	0.343
Mof_N 	N 	0.21304	0.11301	0.25467	-0.098
Mof_N 	N 	0.18303	0.11037	0.2774	-0.039
Mof_N 	N 	0.15288	0.10726	0.29986	-0.035
Mof_H 	H 	0.3035	0.4247	0.206	0.114
Mof_H 	H 	0.2579	0.411	0.2032	0.339
Mof_N 	N 	0.28696	0.38699	0.25467	-0.098
Mof_N 	N 	0.31697	0.38963	0.2774	-0.038
Mof_N 	N 	0.34712	0.39274	0.29986	-0.029
Mof_H 	H 	0.3035	0.9247	0.706	0.128
Mof_H 	H 	0.2579	0.911	0.7032	0.366
Mof_N 	N 	0.28696	0.88699	0.75467	-0.101
Mof_N 	N 	0.31697	0.88963	0.7774	-0.036
Mof_N 	N 	0.34712	0.89274	0.79986	-0.019
Mof_H 	H 	0.8035	0.4247	0.706	0.131
Mof_H 	H 	0.7579	0.411	0.7032	0.343
Mof_N 	N 	0.78696	0.38699	0.75467	-0.097
Mof_N 	N 	0.81697	0.38963	0.7774	-0.037
Mof_N 	N 	0.84712	0.39274	0.79986	-0.022
Mof_H 	H 	0.8035	0.9247	0.206	0.149
Mof_H 	H 	0.7579	0.911	0.2032	0.369
Mof_N 	N 	0.78696	0.88699	0.25467	-0.1
Mof_N 	N 	0.81697	0.88963	0.2774	-0.036
Mof_N 	N 	0.84712	0.89274	0.29986	-0.017
Mof_H 	H 	0.794	0.3035	0.5753	0.091
Mof_H 	H 	0.7968	0.2579	0.589	0.339
Mof_N 	N 	0.74533	0.28696	0.61301	-0.099
Mof_N 	N 	0.7226	0.31697	0.61037	-0.038
Mof_N 	N 	0.70014	0.34712	0.60726	-0.029
Mof_H 	H 	0.794	0.8035	0.0753	0.112
Mof_H 	H 	0.7968	0.7579	0.089	0.347
Mof_N 	N 	0.74533	0.78696	0.11301	-0.098
Mof_N 	N 	0.7226	0.81697	0.11037	-0.038
Mof_N 	N 	0.70014	0.84712	0.10726	-0.028
Mof_H 	H 	0.294	0.3035	0.0753	0.109
Mof_H 	H 	0.2968	0.2579	0.089	0.343
Mof_N 	N 	0.24533	0.28696	0.11301	-0.098
Mof_N 	N 	0.2226	0.31697	0.11037	-0.039
Mof_N 	N 	0.20014	0.34712	0.10726	-0.034
Mof_H 	H 	0.294	0.8035	0.5753	0.126
Mof_H 	H 	0.2968	0.7579	0.589	0.343
Mof_N 	N 	0.24533	0.78696	0.61301	-0.097
Mof_N 	N 	0.2226	0.81697	0.61037	-0.037
Mof_N 	N 	0.20014	0.84712	0.60726	-0.026
Mof_H 	H 	0.794	0.6965	0.4247	0.086
Mof_H 	H 	0.7968	0.7421	0.411	0.339
Mof_N 	N 	0.74533	0.71304	0.38699	-0.099
Mof_N 	N 	0.7226	0.68303	0.38963	-0.038
Mof_N 	N 	0.70014	0.65288	0.39274	-0.029
Mof_H 	H 	0.794	0.1965	0.9247	0.1
Mof_H 	H 	0.7968	0.2421	0.911	0.364
Mof_N 	N 	0.74533	0.21304	0.88699	-0.101
Mof_N 	N 	0.7226	0.18303	0.88963	-0.036
Mof_N 	N 	0.70014	0.15288	0.89274	-0.023
Mof_H 	H 	0.294	0.6965	0.9247	0.118
Mof_H 	H 	0.2968	0.7421	0.911	0.365
Mof_N 	N 	0.24533	0.71304	0.88699	-0.101
Mof_N 	N 	0.2226	0.68303	0.88963	-0.037
Mof_N 	N 	0.20014	0.65288	0.89274	-0.023
Mof_H 	H 	0.294	0.1965	0.4247	0.099
Mof_H 	H 	0.2968	0.2421	0.411	0.338
Mof_N 	N 	0.24533	0.21304	0.38699	-0.098
Mof_N 	N 	0.2226	0.18303	0.38963	-0.038
Mof_N 	N 	0.20014	0.15288	0.39274	-0.033
Mof_H 	H 	0.206	0.6965	0.5753	0.109
Mof_H 	H 	0.2032	0.7421	0.589	0.339
Mof_N 	N 	0.25467	0.71304	0.61301	-0.098
Mof_N 	N 	0.2774	0.68303	0.61037	-0.038
Mof_N 	N 	0.29986	0.65288	0.60726	-0.029
Mof_H 	H 	0.206	0.1965	0.0753	0.109
Mof_H 	H 	0.2032	0.2421	0.089	0.343
Mof_N 	N 	0.25467	0.21304	0.11301	-0.098
Mof_N 	N 	0.2774	0.18303	0.11037	-0.039
Mof_N 	N 	0.29986	0.15288	0.10726	-0.035
Mof_H 	H 	0.706	0.6965	0.0753	0.109
Mof_H 	H 	0.7032	0.7421	0.089	0.344
Mof_N 	N 	0.75467	0.71304	0.11301	-0.098
Mof_N 	N 	0.7774	0.68303	0.11037	-0.039
Mof_N 	N 	0.79986	0.65288	0.10726	-0.03
Mof_H 	H 	0.706	0.1965	0.5753	0.105
Mof_H 	H 	0.7032	0.2421	0.589	0.339
Mof_N 	N 	0.75467	0.21304	0.61301	-0.098
Mof_N 	N 	0.7774	0.18303	0.61037	-0.038
Mof_N 	N 	0.79986	0.15288	0.60726	-0.029
Mof_H 	H 	0.206	0.3035	0.4247	0.114
Mof_H 	H 	0.2032	0.2579	0.411	0.339
Mof_N 	N 	0.25467	0.28696	0.38699	-0.098
Mof_N 	N 	0.2774	0.31697	0.38963	-0.038
Mof_N 	N 	0.29986	0.34712	0.39274	-0.029
Mof_H 	H 	0.206	0.8035	0.9247	0.149
Mof_H 	H 	0.2032	0.7579	0.911	0.369
Mof_N 	N 	0.25467	0.78696	0.88699	-0.1
Mof_N 	N 	0.2774	0.81697	0.88963	-0.036
Mof_N 	N 	0.29986	0.84712	0.89274	-0.017
Mof_H 	H 	0.706	0.3035	0.9247	0.128
Mof_H 	H 	0.7032	0.2579	0.911	0.366
Mof_N 	N 	0.75467	0.28696	0.88699	-0.101
Mof_N 	N 	0.7774	0.31697	0.88963	-0.036
Mof_N 	N 	0.79986	0.34712	0.89274	-0.019
Mof_H 	H 	0.706	0.8035	0.4247	0.131
Mof_H 	H 	0.7032	0.7579	0.411	0.343
Mof_N 	N 	0.75467	0.78696	0.38699	-0.097
Mof_N 	N 	0.7774	0.81697	0.38963	-0.037
Mof_N 	N 	0.79986	0.84712	0.39274	-0.022
Mof_H 	H 	0.5753	0.794	0.3035	0.091
Mof_H 	H 	0.589	0.7968	0.2579	0.339
Mof_N 	N 	0.61301	0.74533	0.28696	-0.099
Mof_N 	N 	0.61037	0.7226	0.31697	-0.038
Mof_N 	N 	0.60726	0.70014	0.34712	-0.029
Mof_H 	H 	0.5753	0.294	0.8035	0.126
Mof_H 	H 	0.589	0.2968	0.7579	0.343
Mof_N 	N 	0.61301	0.24533	0.78696	-0.097
Mof_N 	N 	0.61037	0.2226	0.81697	-0.037
Mof_N 	N 	0.60726	0.20014	0.84712	-0.026
Mof_H 	H 	0.0753	0.794	0.8035	0.112
Mof_H 	H 	0.089	0.7968	0.7579	0.347
Mof_N 	N 	0.11301	0.74533	0.78696	-0.098
Mof_N 	N 	0.11037	0.7226	0.81697	-0.038
Mof_N 	N 	0.10726	0.70014	0.84712	-0.028
Mof_H 	H 	0.0753	0.294	0.3035	0.109
Mof_H 	H 	0.089	0.2968	0.2579	0.343
Mof_N 	N 	0.11301	0.24533	0.28696	-0.098
Mof_N 	N 	0.11037	0.2226	0.31697	-0.039
Mof_N 	N 	0.10726	0.20014	0.34712	-0.034
Mof_H 	H 	0.4247	0.794	0.6965	0.086
Mof_H 	H 	0.411	0.7968	0.7421	0.339
Mof_N 	N 	0.38699	0.74533	0.71304	-0.099
Mof_N 	N 	0.38963	0.7226	0.68303	-0.038
Mof_N 	N 	0.39274	0.70014	0.65288	-0.029
Mof_H 	H 	0.4247	0.294	0.1965	0.099
Mof_H 	H 	0.411	0.2968	0.2421	0.338
Mof_N 	N 	0.38699	0.24533	0.21304	-0.098
Mof_N 	N 	0.38963	0.2226	0.18303	-0.038
Mof_N 	N 	0.39274	0.20014	0.15288	-0.033
Mof_H 	H 	0.9247	0.794	0.1965	0.1
Mof_H 	H 	0.911	0.7968	0.2421	0.364
Mof_N 	N 	0.88699	0.74533	0.21304	-0.101
Mof_N 	N 	0.88963	0.7226	0.18303	-0.036
Mof_N 	N 	0.89274	0.70014	0.15288	-0.023
Mof_H 	H 	0.9247	0.294	0.6965	0.118
Mof_H 	H 	0.911	0.2968	0.7421	0.365
Mof_N 	N 	0.88699	0.24533	0.71304	-0.101
Mof_N 	N 	0.88963	0.2226	0.68303	-0.037
Mof_N 	N 	0.89274	0.20014	0.65288	-0.023
Mof_H 	H 	0.5753	0.206	0.6965	0.109
Mof_H 	H 	0.589	0.2032	0.7421	0.339
Mof_N 	N 	0.61301	0.25467	0.71304	-0.098
Mof_N 	N 	0.61037	0.2774	0.68303	-0.038
Mof_N 	N 	0.60726	0.29986	0.65288	-0.029
Mof_H 	H 	0.5753	0.706	0.1965	0.105
Mof_H 	H 	0.589	0.7032	0.2421	0.339
Mof_N 	N 	0.61301	0.75467	0.21304	-0.098
Mof_N 	N 	0.61037	0.7774	0.18303	-0.038
Mof_N 	N 	0.60726	0.79986	0.15288	-0.029
Mof_H 	H 	0.0753	0.206	0.1965	0.109
Mof_H 	H 	0.089	0.2032	0.2421	0.343
Mof_N 	N 	0.11301	0.25467	0.21304	-0.098
Mof_N 	N 	0.11037	0.2774	0.18303	-0.039
Mof_N 	N 	0.10726	0.29986	0.15288	-0.035
Mof_H 	H 	0.0753	0.706	0.6965	0.109
Mof_H 	H 	0.089	0.7032	0.7421	0.344
Mof_N 	N 	0.11301	0.75467	0.71304	-0.098
Mof_N 	N 	0.11037	0.7774	0.68303	-0.039
Mof_N 	N 	0.10726	0.79986	0.65288	-0.03
Mof_H 	H 	0.4247	0.206	0.3035	0.114
Mof_H 	H 	0.411	0.2032	0.2579	0.339
Mof_N 	N 	0.38699	0.25467	0.28696	-0.098
Mof_N 	N 	0.38963	0.2774	0.31697	-0.038
Mof_N 	N 	0.39274	0.29986	0.34712	-0.029
Mof_H 	H 	0.4247	0.706	0.8035	0.131
Mof_H 	H 	0.411	0.7032	0.7579	0.343
Mof_N 	N 	0.38699	0.75467	0.78696	-0.097
Mof_N 	N 	0.38963	0.7774	0.81697	-0.037
Mof_N 	N 	0.39274	0.79986	0.84712	-0.022
Mof_H 	H 	0.9247	0.206	0.8035	0.149
Mof_H 	H 	0.911	0.2032	0.7579	0.369
Mof_N 	N 	0.88699	0.25467	0.78696	-0.1
Mof_N 	N 	0.88963	0.2774	0.81697	-0.036
Mof_N 	N 	0.89274	0.29986	0.84712	-0.017
Mof_H 	H 	0.9247	0.706	0.3035	0.128
Mof_H 	H 	0.911	0.7032	0.2579	0.366
Mof_N 	N 	0.88699	0.75467	0.28696	-0.101
Mof_N 	N 	0.88963	0.7774	0.31697	-0.036
Mof_N 	N 	0.89274	0.79986	0.34712	-0.019
Mof_H 	H 	0.5753	0.3035	0.206	0.114
Mof_H 	H 	0.589	0.2579	0.2032	0.339
Mof_N 	N 	0.61301	0.28696	0.25467	-0.098
Mof_N 	N 	0.61037	0.31697	0.2774	-0.038
Mof_N 	N 	0.60726	0.34712	0.29986	-0.029
Mof_H 	H 	0.5753	0.8035	0.706	0.131
Mof_H 	H 	0.589	0.7579	0.7032	0.343
Mof_N 	N 	0.61301	0.78696	0.75467	-0.097
Mof_N 	N 	0.61037	0.81697	0.7774	-0.037
Mof_N 	N 	0.60726	0.84712	0.79986	-0.022
Mof_H 	H 	0.0753	0.3035	0.706	0.115
Mof_H 	H 	0.089	0.2579	0.7032	0.344
Mof_N 	N 	0.11301	0.28696	0.75467	-0.098
Mof_N 	N 	0.11037	0.31697	0.7774	-0.039
Mof_N 	N 	0.10726	0.34712	0.79986	-0.03
Mof_H 	H 	0.0753	0.8035	0.206	0.135
Mof_H 	H 	0.089	0.7579	0.2032	0.347
Mof_N 	N 	0.11301	0.78696	0.25467	-0.098
Mof_N 	N 	0.11037	0.81697	0.2774	-0.038
Mof_N 	N 	0.10726	0.84712	0.29986	-0.028
Mof_H 	H 	0.4247	0.6965	0.206	0.109
Mof_H 	H 	0.411	0.7421	0.2032	0.339
Mof_N 	N 	0.38699	0.71304	0.25467	-0.098
Mof_N 	N 	0.38963	0.68303	0.2774	-0.038
Mof_N 	N 	0.39274	0.65288	0.29986	-0.029
Mof_H 	H 	0.4247	0.1965	0.706	0.105
Mof_H 	H 	0.411	0.2421	0.7032	0.339
Mof_N 	N 	0.38699	0.21304	0.75467	-0.098
Mof_N 	N 	0.38963	0.18303	0.7774	-0.038
Mof_N 	N 	0.39274	0.15288	0.79986	-0.029
Mof_H 	H 	0.9247	0.6965	0.706	0.123
Mof_H 	H 	0.911	0.7421	0.7032	0.366
Mof_N 	N 	0.88699	0.71304	0.75467	-0.101
Mof_N 	N 	0.88963	0.68303	0.7774	-0.036
Mof_N 	N 	0.89274	0.65288	0.79986	-0.019
Mof_H 	H 	0.9247	0.1965	0.206	0.123
Mof_H 	H 	0.911	0.2421	0.2032	0.365
Mof_N 	N 	0.88699	0.21304	0.25467	-0.101
Mof_N 	N 	0.88963	0.18303	0.2774	-0.037
Mof_N 	N 	0.89274	0.15288	0.29986	-0.023
Mof_H 	H 	0.5753	0.6965	0.794	0.086
Mof_H 	H 	0.589	0.7421	0.7968	0.339
Mof_N 	N 	0.61301	0.71304	0.74533	-0.099
Mof_N 	N 	0.61037	0.68303	0.7226	-0.038
Mof_N 	N 	0.60726	0.65288	0.70014	-0.029
Mof_H 	H 	0.5753	0.1965	0.294	0.099
Mof_H 	H 	0.589	0.2421	0.2968	0.338
Mof_N 	N 	0.61301	0.21304	0.24533	-0.098
Mof_N 	N 	0.61037	0.18303	0.2226	-0.038
Mof_N 	N 	0.60726	0.15288	0.20014	-0.033
Mof_H 	H 	0.0753	0.6965	0.294	0.104
Mof_H 	H 	0.089	0.7421	0.2968	0.343
Mof_N 	N 	0.11301	0.71304	0.24533	-0.099
Mof_N 	N 	0.11037	0.68303	0.2226	-0.039
Mof_N 	N 	0.10726	0.65288	0.20014	-0.034
Mof_H 	H 	0.0753	0.1965	0.794	0.085
Mof_H 	H 	0.089	0.2421	0.7968	0.342
Mof_N 	N 	0.11301	0.21304	0.74533	-0.099
Mof_N 	N 	0.11037	0.18303	0.7226	-0.039
Mof_N 	N 	0.10726	0.15288	0.70014	-0.035
Mof_H 	H 	0.4247	0.3035	0.794	0.091
Mof_H 	H 	0.411	0.2579	0.7968	0.339
Mof_N 	N 	0.38699	0.28696	0.74533	-0.099
Mof_N 	N 	0.38963	0.31697	0.7226	-0.038
Mof_N 	N 	0.39274	0.34712	0.70014	-0.029
Mof_H 	H 	0.4247	0.8035	0.294	0.126
Mof_H 	H 	0.411	0.7579	0.2968	0.343
Mof_N 	N 	0.38699	0.78696	0.24533	-0.097
Mof_N 	N 	0.38963	0.81697	0.2226	-0.037
Mof_N 	N 	0.39274	0.84712	0.20014	-0.026
Mof_H 	H 	0.9247	0.3035	0.294	0.123
Mof_H 	H 	0.911	0.2579	0.2968	0.365
Mof_N 	N 	0.88699	0.28696	0.24533	-0.101
Mof_N 	N 	0.88963	0.31697	0.2226	-0.037
Mof_N 	N 	0.89274	0.34712	0.20014	-0.022
Mof_H 	H 	0.9247	0.8035	0.794	0.125
Mof_H 	H 	0.911	0.7579	0.7968	0.369
Mof_N 	N 	0.88699	0.78696	0.74533	-0.101
Mof_N 	N 	0.88963	0.81697	0.7226	-0.036
Mof_N 	N 	0.89274	0.84712	0.70014	-0.017
Mof_H 	H 	0.3035	0.794	0.4247	0.091
Mof_H 	H 	0.2579	0.7968	0.411	0.339
Mof_N 	N 	0.28696	0.74533	0.38699	-0.099
Mof_N 	N 	0.31697	0.7226	0.38963	-0.038
Mof_N 	N 	0.34712	0.70014	0.39274	-0.029
Mof_H 	H 	0.3035	0.294	0.9247	0.123
Mof_H 	H 	0.2579	0.2968	0.911	0.365
Mof_N 	N 	0.28696	0.24533	0.88699	-0.101
Mof_N 	N 	0.31697	0.2226	0.88963	-0.037
Mof_N 	N 	0.34712	0.20014	0.89274	-0.022
Mof_H 	H 	0.8035	0.794	0.9247	0.125
Mof_H 	H 	0.7579	0.7968	0.911	0.369
Mof_N 	N 	0.78696	0.74533	0.88699	-0.101
Mof_N 	N 	0.81697	0.7226	0.88963	-0.036
Mof_N 	N 	0.84712	0.70014	0.89274	-0.017
Mof_H 	H 	0.8035	0.294	0.4247	0.126
Mof_H 	H 	0.7579	0.2968	0.411	0.343
Mof_N 	N 	0.78696	0.24533	0.38699	-0.097
Mof_N 	N 	0.81697	0.2226	0.38963	-0.037
Mof_N 	N 	0.84712	0.20014	0.39274	-0.026
Mof_H 	H 	0.6965	0.794	0.5753	0.086
Mof_H 	H 	0.7421	0.7968	0.589	0.339
Mof_N 	N 	0.71304	0.74533	0.61301	-0.099
Mof_N 	N 	0.68303	0.7226	0.61037	-0.038
Mof_N 	N 	0.65288	0.70014	0.60726	-0.029
Mof_H 	H 	0.6965	0.294	0.0753	0.104
Mof_H 	H 	0.7421	0.2968	0.089	0.343
Mof_N 	N 	0.71304	0.24533	0.11301	-0.099
Mof_N 	N 	0.68303	0.2226	0.11037	-0.039
Mof_N 	N 	0.65288	0.20014	0.10726	-0.034
Mof_H 	H 	0.1965	0.794	0.0753	0.085
Mof_H 	H 	0.2421	0.7968	0.089	0.342
Mof_N 	N 	0.21304	0.74533	0.11301	-0.099
Mof_N 	N 	0.18303	0.7226	0.11037	-0.039
Mof_N 	N 	0.15288	0.70014	0.10726	-0.035
Mof_H 	H 	0.1965	0.294	0.5753	0.099
Mof_H 	H 	0.2421	0.2968	0.589	0.338
Mof_N 	N 	0.21304	0.24533	0.61301	-0.098
Mof_N 	N 	0.18303	0.2226	0.61037	-0.038
Mof_N 	N 	0.15288	0.20014	0.60726	-0.033
Mof_H 	H 	0.6965	0.206	0.4247	0.109
Mof_H 	H 	0.7421	0.2032	0.411	0.339
Mof_N 	N 	0.71304	0.25467	0.38699	-0.098
Mof_N 	N 	0.68303	0.2774	0.38963	-0.038
Mof_N 	N 	0.65288	0.29986	0.39274	-0.029
Mof_H 	H 	0.6965	0.706	0.9247	0.123
Mof_H 	H 	0.7421	0.7032	0.911	0.366
Mof_N 	N 	0.71304	0.75467	0.88699	-0.101
Mof_N 	N 	0.68303	0.7774	0.88963	-0.036
Mof_N 	N 	0.65288	0.79986	0.89274	-0.019
Mof_H 	H 	0.1965	0.206	0.9247	0.123
Mof_H 	H 	0.2421	0.2032	0.911	0.365
Mof_N 	N 	0.21304	0.25467	0.88699	-0.101
Mof_N 	N 	0.18303	0.2774	0.88963	-0.037
Mof_N 	N 	0.15288	0.29986	0.89274	-0.023
Mof_H 	H 	0.1965	0.706	0.4247	0.105
Mof_H 	H 	0.2421	0.7032	0.411	0.339
Mof_N 	N 	0.21304	0.75467	0.38699	-0.098
Mof_N 	N 	0.18303	0.7774	0.38963	-0.038
Mof_N 	N 	0.15288	0.79986	0.39274	-0.029
Mof_H 	H 	0.3035	0.206	0.5753	0.114
Mof_H 	H 	0.2579	0.2032	0.589	0.339
Mof_N 	N 	0.28696	0.25467	0.61301	-0.098
Mof_N 	N 	0.31697	0.2774	0.61037	-0.038
Mof_N 	N 	0.34712	0.29986	0.60726	-0.029
Mof_H 	H 	0.3035	0.706	0.0753	0.115
Mof_H 	H 	0.2579	0.7032	0.089	0.344
Mof_N 	N 	0.28696	0.75467	0.11301	-0.098
Mof_N 	N 	0.31697	0.7774	0.11037	-0.039
Mof_N 	N 	0.34712	0.79986	0.10726	-0.03
Mof_H 	H 	0.8035	0.206	0.0753	0.135
Mof_H 	H 	0.7579	0.2032	0.089	0.347
Mof_N 	N 	0.78696	0.25467	0.11301	-0.098
Mof_N 	N 	0.81697	0.2774	0.11037	-0.038
Mof_N 	N 	0.84712	0.29986	0.10726	-0.028
Mof_H 	H 	0.8035	0.706	0.5753	0.131
Mof_H 	H 	0.7579	0.7032	0.589	0.343
Mof_N 	N 	0.78696	0.75467	0.61301	-0.097
Mof_N 	N 	0.81697	0.7774	0.61037	-0.037
Mof_N 	N 	0.84712	0.79986	0.60726	-0.022
Mof_H 	H 	0.794	0.5753	0.6965	0.086
Mof_H 	H 	0.7968	0.589	0.7421	0.339
Mof_N 	N 	0.74533	0.61301	0.71304	-0.099
Mof_N 	N 	0.7226	0.61037	0.68303	-0.038
Mof_N 	N 	0.70014	0.60726	0.65288	-0.029
Mof_H 	H 	0.794	0.0753	0.1965	0.085
Mof_H 	H 	0.7968	0.089	0.2421	0.342
Mof_N 	N 	0.74533	0.11301	0.21304	-0.099
Mof_N 	N 	0.7226	0.11037	0.18303	-0.039
Mof_N 	N 	0.70014	0.10726	0.15288	-0.035
Mof_H 	H 	0.294	0.5753	0.1965	0.099
Mof_H 	H 	0.2968	0.589	0.2421	0.338
Mof_N 	N 	0.24533	0.61301	0.21304	-0.098
Mof_N 	N 	0.2226	0.61037	0.18303	-0.038
Mof_N 	N 	0.20014	0.60726	0.15288	-0.033
Mof_H 	H 	0.294	0.0753	0.6965	0.104
Mof_H 	H 	0.2968	0.089	0.7421	0.343
Mof_N 	N 	0.24533	0.11301	0.71304	-0.099
Mof_N 	N 	0.2226	0.11037	0.68303	-0.039
Mof_N 	N 	0.20014	0.10726	0.65288	-0.034
Mof_H 	H 	0.794	0.4247	0.3035	0.091
Mof_H 	H 	0.7968	0.411	0.2579	0.339
Mof_N 	N 	0.74533	0.38699	0.28696	-0.099
Mof_N 	N 	0.7226	0.38963	0.31697	-0.038
Mof_N 	N 	0.70014	0.39274	0.34712	-0.029
Mof_H 	H 	0.794	0.9247	0.8035	0.125
Mof_H 	H 	0.7968	0.911	0.7579	0.369
Mof_N 	N 	0.74533	0.88699	0.78696	-0.101
Mof_N 	N 	0.7226	0.88963	0.81697	-0.036
Mof_N 	N 	0.70014	0.89274	0.84712	-0.017
Mof_H 	H 	0.294	0.4247	0.8035	0.126
Mof_H 	H 	0.2968	0.411	0.7579	0.343
Mof_N 	N 	0.24533	0.38699	0.78696	-0.097
Mof_N 	N 	0.2226	0.38963	0.81697	-0.037
Mof_N 	N 	0.20014	0.39274	0.84712	-0.026
Mof_H 	H 	0.294	0.9247	0.3035	0.123
Mof_H 	H 	0.2968	0.911	0.2579	0.365
Mof_N 	N 	0.24533	0.88699	0.28696	-0.101
Mof_N 	N 	0.2226	0.88963	0.31697	-0.037
Mof_N 	N 	0.20014	0.89274	0.34712	-0.022
Mof_H 	H 	0.206	0.5753	0.3035	0.114
Mof_H 	H 	0.2032	0.589	0.2579	0.339
Mof_N 	N 	0.25467	0.61301	0.28696	-0.098
Mof_N 	N 	0.2774	0.61037	0.31697	-0.038
Mof_N 	N 	0.29986	0.60726	0.34712	-0.029
Mof_H 	H 	0.206	0.0753	0.8035	0.135
Mof_H 	H 	0.2032	0.089	0.7579	0.347
Mof_N 	N 	0.25467	0.11301	0.78696	-0.098
Mof_N 	N 	0.2774	0.11037	0.81697	-0.038
Mof_N 	N 	0.29986	0.10726	0.84712	-0.028
Mof_H 	H 	0.706	0.5753	0.8035	0.131
Mof_H 	H 	0.7032	0.589	0.7579	0.343
Mof_N 	N 	0.75467	0.61301	0.78696	-0.097
Mof_N 	N 	0.7774	0.61037	0.81697	-0.037
Mof_N 	N 	0.79986	0.60726	0.84712	-0.022
Mof_H 	H 	0.706	0.0753	0.3035	0.115
Mof_H 	H 	0.7032	0.089	0.2579	0.344
Mof_N 	N 	0.75467	0.11301	0.28696	-0.098
Mof_N 	N 	0.7774	0.11037	0.31697	-0.039
Mof_N 	N 	0.79986	0.10726	0.34712	-0.03
Mof_H 	H 	0.206	0.4247	0.6965	0.109
Mof_H 	H 	0.2032	0.411	0.7421	0.339
Mof_N 	N 	0.25467	0.38699	0.71304	-0.098
Mof_N 	N 	0.2774	0.38963	0.68303	-0.038
Mof_N 	N 	0.29986	0.39274	0.65288	-0.029
Mof_H 	H 	0.206	0.9247	0.1965	0.123
Mof_H 	H 	0.2032	0.911	0.2421	0.365
Mof_N 	N 	0.25467	0.88699	0.21304	-0.101
Mof_N 	N 	0.2774	0.88963	0.18303	-0.037
Mof_N 	N 	0.29986	0.89274	0.15288	-0.023
Mof_H 	H 	0.706	0.4247	0.1965	0.105
Mof_H 	H 	0.7032	0.411	0.2421	0.339
Mof_N 	N 	0.75467	0.38699	0.21304	-0.098
Mof_N 	N 	0.7774	0.38963	0.18303	-0.038
Mof_N 	N 	0.79986	0.39274	0.15288	-0.029
Mof_H 	H 	0.706	0.9247	0.6965	0.123
Mof_H 	H 	0.7032	0.911	0.7421	0.366
Mof_N 	N 	0.75467	0.88699	0.71304	-0.101
Mof_N 	N 	0.7774	0.88963	0.68303	-0.036
Mof_N 	N 	0.79986	0.89274	0.65288	-0.019
Mof_H 	H 	0.6965	0.4247	0.206	0.109
Mof_H 	H 	0.7421	0.411	0.2032	0.339
Mof_N 	N 	0.71304	0.38699	0.25467	-0.098
Mof_N 	N 	0.68303	0.38963	0.2774	-0.038
Mof_N 	N 	0.65288	0.39274	0.29986	-0.029
Mof_H 	H 	0.6965	0.9247	0.706	0.123
Mof_H 	H 	0.7421	0.911	0.7032	0.366
Mof_N 	N 	0.71304	0.88699	0.75467	-0.101
Mof_N 	N 	0.68303	0.88963	0.7774	-0.036
Mof_N 	N 	0.65288	0.89274	0.79986	-0.019
Mof_H 	H 	0.1965	0.4247	0.706	0.105
Mof_H 	H 	0.2421	0.411	0.7032	0.339
Mof_N 	N 	0.21304	0.38699	0.75467	-0.098
Mof_N 	N 	0.18303	0.38963	0.7774	-0.038
Mof_N 	N 	0.15288	0.39274	0.79986	-0.029
Mof_H 	H 	0.1965	0.9247	0.206	0.123
Mof_H 	H 	0.2421	0.911	0.2032	0.365
Mof_N 	N 	0.21304	0.88699	0.25467	-0.101
Mof_N 	N 	0.18303	0.88963	0.2774	-0.037
Mof_N 	N 	0.15288	0.89274	0.29986	-0.023
Mof_H 	H 	0.3035	0.5753	0.206	0.114
Mof_H 	H 	0.2579	0.589	0.2032	0.339
Mof_N 	N 	0.28696	0.61301	0.25467	-0.098
Mof_N 	N 	0.31697	0.61037	0.2774	-0.038
Mof_N 	N 	0.34712	0.60726	0.29986	-0.029
Mof_H 	H 	0.3035	0.0753	0.706	0.115
Mof_H 	H 	0.2579	0.089	0.7032	0.344
Mof_N 	N 	0.28696	0.11301	0.75467	-0.098
Mof_N 	N 	0.31697	0.11037	0.7774	-0.039
Mof_N 	N 	0.34712	0.10726	0.79986	-0.03
Mof_H 	H 	0.8035	0.5753	0.706	0.131
Mof_H 	H 	0.7579	0.589	0.7032	0.343
Mof_N 	N 	0.78696	0.61301	0.75467	-0.097
Mof_N 	N 	0.81697	0.61037	0.7774	-0.037
Mof_N 	N 	0.84712	0.60726	0.79986	-0.022
Mof_H 	H 	0.8035	0.0753	0.206	0.135
Mof_H 	H 	0.7579	0.089	0.2032	0.347
Mof_N 	N 	0.78696	0.11301	0.25467	-0.098
Mof_N 	N 	0.81697	0.11037	0.2774	-0.038
Mof_N 	N 	0.84712	0.10726	0.29986	-0.028
Mof_H 	H 	0.3035	0.4247	0.794	0.091
Mof_H 	H 	0.2579	0.411	0.7968	0.339
Mof_N 	N 	0.28696	0.38699	0.74533	-0.099
Mof_N 	N 	0.31697	0.38963	0.7226	-0.038
Mof_N 	N 	0.34712	0.39274	0.70014	-0.029
Mof_H 	H 	0.3035	0.9247	0.294	0.123
Mof_H 	H 	0.2579	0.911	0.2968	0.365
Mof_N 	N 	0.28696	0.88699	0.24533	-0.101
Mof_N 	N 	0.31697	0.88963	0.2226	-0.037
Mof_N 	N 	0.34712	0.89274	0.20014	-0.022
Mof_H 	H 	0.8035	0.4247	0.294	0.126
Mof_H 	H 	0.7579	0.411	0.2968	0.343
Mof_N 	N 	0.78696	0.38699	0.24533	-0.097
Mof_N 	N 	0.81697	0.38963	0.2226	-0.037
Mof_N 	N 	0.84712	0.39274	0.20014	-0.026
Mof_H 	H 	0.8035	0.9247	0.794	0.125
Mof_H 	H 	0.7579	0.911	0.7968	0.369
Mof_N 	N 	0.78696	0.88699	0.74533	-0.101
Mof_N 	N 	0.81697	0.88963	0.7226	-0.036
Mof_N 	N 	0.84712	0.89274	0.70014	-0.017
Mof_H 	H 	0.6965	0.5753	0.794	0.086
Mof_H 	H 	0.7421	0.589	0.7968	0.339
Mof_N 	N 	0.71304	0.61301	0.74533	-0.099
Mof_N 	N 	0.68303	0.61037	0.7226	-0.038
Mof_N 	N 	0.65288	0.60726	0.70014	-0.029
Mof_H 	H 	0.6965	0.0753	0.294	0.104
Mof_H 	H 	0.7421	0.089	0.2968	0.343
Mof_N 	N 	0.71304	0.11301	0.24533	-0.099
Mof_N 	N 	0.68303	0.11037	0.2226	-0.039
Mof_N 	N 	0.65288	0.10726	0.20014	-0.034
Mof_H 	H 	0.1965	0.5753	0.294	0.099
Mof_H 	H 	0.2421	0.589	0.2968	0.338
Mof_N 	N 	0.21304	0.61301	0.24533	-0.098
Mof_N 	N 	0.18303	0.61037	0.2226	-0.038
Mof_N 	N 	0.15288	0.60726	0.20014	-0.033
Mof_H 	H 	0.1965	0.0753	0.794	0.085
Mof_H 	H 	0.2421	0.089	0.7968	0.342
Mof_N 	N 	0.21304	0.11301	0.74533	-0.099
Mof_N 	N 	0.18303	0.11037	0.7226	-0.039
Mof_N 	N 	0.15288	0.10726	0.70014	-0.035
Mof_H 	H 	0.206	0.6965	0.4247	0.109
Mof_H 	H 	0.2032	0.7421	0.411	0.339
Mof_N 	N 	0.25467	0.71304	0.38699	-0.098
Mof_N 	N 	0.2774	0.68303	0.38963	-0.038
Mof_N 	N 	0.29986	0.65288	0.39274	-0.029
Mof_H 	H 	0.206	0.1965	0.9247	0.123
Mof_H 	H 	0.2032	0.2421	0.911	0.365
Mof_N 	N 	0.25467	0.21304	0.88699	-0.101
Mof_N 	N 	0.2774	0.18303	0.88963	-0.037
Mof_N 	N 	0.29986	0.15288	0.89274	-0.023
Mof_H 	H 	0.706	0.6965	0.9247	0.123
Mof_H 	H 	0.7032	0.7421	0.911	0.366
Mof_N 	N 	0.75467	0.71304	0.88699	-0.101
Mof_N 	N 	0.7774	0.68303	0.88963	-0.036
Mof_N 	N 	0.79986	0.65288	0.89274	-0.019
Mof_H 	H 	0.706	0.1965	0.4247	0.105
Mof_H 	H 	0.7032	0.2421	0.411	0.339
Mof_N 	N 	0.75467	0.21304	0.38699	-0.098
Mof_N 	N 	0.7774	0.18303	0.38963	-0.038
Mof_N 	N 	0.79986	0.15288	0.39274	-0.029
Mof_H 	H 	0.206	0.3035	0.5753	0.114
Mof_H 	H 	0.2032	0.2579	0.589	0.339
Mof_N 	N 	0.25467	0.28696	0.61301	-0.098
Mof_N 	N 	0.2774	0.31697	0.61037	-0.038
Mof_N 	N 	0.29986	0.34712	0.60726	-0.029
Mof_H 	H 	0.206	0.8035	0.0753	0.135
Mof_H 	H 	0.2032	0.7579	0.089	0.347
Mof_N 	N 	0.25467	0.78696	0.11301	-0.098
Mof_N 	N 	0.2774	0.81697	0.11037	-0.038
Mof_N 	N 	0.29986	0.84712	0.10726	-0.028
Mof_H 	H 	0.706	0.3035	0.0753	0.115
Mof_H 	H 	0.7032	0.2579	0.089	0.344
Mof_N 	N 	0.75467	0.28696	0.11301	-0.098
Mof_N 	N 	0.7774	0.31697	0.11037	-0.039
Mof_N 	N 	0.79986	0.34712	0.10726	-0.03
Mof_H 	H 	0.706	0.8035	0.5753	0.131
Mof_H 	H 	0.7032	0.7579	0.589	0.343
Mof_N 	N 	0.75467	0.78696	0.61301	-0.097
Mof_N 	N 	0.7774	0.81697	0.61037	-0.037
Mof_N 	N 	0.79986	0.84712	0.60726	-0.022
Mof_H 	H 	0.794	0.3035	0.4247	0.091
Mof_H 	H 	0.7968	0.2579	0.411	0.339
Mof_N 	N 	0.74533	0.28696	0.38699	-0.099
Mof_N 	N 	0.7226	0.31697	0.38963	-0.038
Mof_N 	N 	0.70014	0.34712	0.39274	-0.029
Mof_H 	H 	0.794	0.8035	0.9247	0.125
Mof_H 	H 	0.7968	0.7579	0.911	0.369
Mof_N 	N 	0.74533	0.78696	0.88699	-0.101
Mof_N 	N 	0.7226	0.81697	0.88963	-0.036
Mof_N 	N 	0.70014	0.84712	0.89274	-0.017
Mof_H 	H 	0.294	0.3035	0.9247	0.123
Mof_H 	H 	0.2968	0.2579	0.911	0.365
Mof_N 	N 	0.24533	0.28696	0.88699	-0.101
Mof_N 	N 	0.2226	0.31697	0.88963	-0.037
Mof_N 	N 	0.20014	0.34712	0.89274	-0.022
Mof_H 	H 	0.294	0.8035	0.4247	0.126
Mof_H 	H 	0.2968	0.7579	0.411	0.343
Mof_N 	N 	0.24533	0.78696	0.38699	-0.097
Mof_N 	N 	0.2226	0.81697	0.38963	-0.037
Mof_N 	N 	0.20014	0.84712	0.39274	-0.026
Mof_H 	H 	0.794	0.6965	0.5753	0.086
Mof_H 	H 	0.7968	0.7421	0.589	0.339
Mof_N 	N 	0.74533	0.71304	0.61301	-0.099
Mof_N 	N 	0.7226	0.68303	0.61037	-0.038
Mof_N 	N 	0.70014	0.65288	0.60726	-0.029
Mof_H 	H 	0.794	0.1965	0.0753	0.085
Mof_H 	H 	0.7968	0.2421	0.089	0.342
Mof_N 	N 	0.74533	0.21304	0.11301	-0.099
Mof_N 	N 	0.7226	0.18303	0.11037	-0.039
Mof_N 	N 	0.70014	0.15288	0.10726	-0.035
Mof_H 	H 	0.294	0.6965	0.0753	0.104
Mof_H 	H 	0.2968	0.7421	0.089	0.343
Mof_N 	N 	0.24533	0.71304	0.11301	-0.099
Mof_N 	N 	0.2226	0.68303	0.11037	-0.039
Mof_N 	N 	0.20014	0.65288	0.10726	-0.034
Mof_H 	H 	0.294	0.1965	0.5753	0.099
Mof_H 	H 	0.2968	0.2421	0.589	0.338
Mof_N 	N 	0.24533	0.21304	0.61301	-0.098
Mof_N 	N 	0.2226	0.18303	0.61037	-0.038
Mof_N 	N 	0.20014	0.15288	0.60726	-0.033
Mof_H 	H 	0.4247	0.206	0.6965	0.109
Mof_H 	H 	0.411	0.2032	0.7421	0.339
Mof_N 	N 	0.38699	0.25467	0.71304	-0.098
Mof_N 	N 	0.38963	0.2774	0.68303	-0.038
Mof_N 	N 	0.39274	0.29986	0.65288	-0.029
Mof_H 	H 	0.4247	0.706	0.1965	0.105
Mof_H 	H 	0.411	0.7032	0.2421	0.339
Mof_N 	N 	0.38699	0.75467	0.21304	-0.098
Mof_N 	N 	0.38963	0.7774	0.18303	-0.038
Mof_N 	N 	0.39274	0.79986	0.15288	-0.029
Mof_H 	H 	0.9247	0.206	0.1965	0.123
Mof_H 	H 	0.911	0.2032	0.2421	0.365
Mof_N 	N 	0.88699	0.25467	0.21304	-0.101
Mof_N 	N 	0.88963	0.2774	0.18303	-0.037
Mof_N 	N 	0.89274	0.29986	0.15288	-0.023
Mof_H 	H 	0.9247	0.706	0.6965	0.123
Mof_H 	H 	0.911	0.7032	0.7421	0.366
Mof_N 	N 	0.88699	0.75467	0.71304	-0.101
Mof_N 	N 	0.88963	0.7774	0.68303	-0.036
Mof_N 	N 	0.89274	0.79986	0.65288	-0.019
Mof_H 	H 	0.5753	0.206	0.3035	0.114
Mof_H 	H 	0.589	0.2032	0.2579	0.339
Mof_N 	N 	0.61301	0.25467	0.28696	-0.098
Mof_N 	N 	0.61037	0.2774	0.31697	-0.038
Mof_N 	N 	0.60726	0.29986	0.34712	-0.029
Mof_H 	H 	0.5753	0.706	0.8035	0.131
Mof_H 	H 	0.589	0.7032	0.7579	0.343
Mof_N 	N 	0.61301	0.75467	0.78696	-0.097
Mof_N 	N 	0.61037	0.7774	0.81697	-0.037
Mof_N 	N 	0.60726	0.79986	0.84712	-0.022
Mof_H 	H 	0.0753	0.206	0.8035	0.135
Mof_H 	H 	0.089	0.2032	0.7579	0.347
Mof_N 	N 	0.11301	0.25467	0.78696	-0.098
Mof_N 	N 	0.11037	0.2774	0.81697	-0.038
Mof_N 	N 	0.10726	0.29986	0.84712	-0.028
Mof_H 	H 	0.0753	0.706	0.3035	0.115
Mof_H 	H 	0.089	0.7032	0.2579	0.344
Mof_N 	N 	0.11301	0.75467	0.28696	-0.098
Mof_N 	N 	0.11037	0.7774	0.31697	-0.039
Mof_N 	N 	0.10726	0.79986	0.34712	-0.03
Mof_H 	H 	0.4247	0.794	0.3035	0.091
Mof_H 	H 	0.411	0.7968	0.2579	0.339
Mof_N 	N 	0.38699	0.74533	0.28696	-0.099
Mof_N 	N 	0.38963	0.7226	0.31697	-0.038
Mof_N 	N 	0.39274	0.70014	0.34712	-0.029
Mof_H 	H 	0.4247	0.294	0.8035	0.126
Mof_H 	H 	0.411	0.2968	0.7579	0.343
Mof_N 	N 	0.38699	0.24533	0.78696	-0.097
Mof_N 	N 	0.38963	0.2226	0.81697	-0.037
Mof_N 	N 	0.39274	0.20014	0.84712	-0.026
Mof_H 	H 	0.9247	0.794	0.8035	0.125
Mof_H 	H 	0.911	0.7968	0.7579	0.369
Mof_N 	N 	0.88699	0.74533	0.78696	-0.101
Mof_N 	N 	0.88963	0.7226	0.81697	-0.036
Mof_N 	N 	0.89274	0.70014	0.84712	-0.017
Mof_H 	H 	0.9247	0.294	0.3035	0.123
Mof_H 	H 	0.911	0.2968	0.2579	0.365
Mof_N 	N 	0.88699	0.24533	0.28696	-0.101
Mof_N 	N 	0.88963	0.2226	0.31697	-0.037
Mof_N 	N 	0.89274	0.20014	0.34712	-0.022
Mof_H 	H 	0.5753	0.794	0.6965	0.086
Mof_H 	H 	0.589	0.7968	0.7421	0.339
Mof_N 	N 	0.61301	0.74533	0.71304	-0.099
Mof_N 	N 	0.61037	0.7226	0.68303	-0.038
Mof_N 	N 	0.60726	0.70014	0.65288	-0.029
Mof_H 	H 	0.5753	0.294	0.1965	0.099
Mof_H 	H 	0.589	0.2968	0.2421	0.338
Mof_N 	N 	0.61301	0.24533	0.21304	-0.098
Mof_N 	N 	0.61037	0.2226	0.18303	-0.038
Mof_N 	N 	0.60726	0.20014	0.15288	-0.033
Mof_H 	H 	0.0753	0.794	0.1965	0.085
Mof_H 	H 	0.089	0.7968	0.2421	0.342
Mof_N 	N 	0.11301	0.74533	0.21304	-0.099
Mof_N 	N 	0.11037	0.7226	0.18303	-0.039
Mof_N 	N 	0.10726	0.70014	0.15288	-0.035
Mof_H 	H 	0.0753	0.294	0.6965	0.104
Mof_H 	H 	0.089	0.2968	0.7421	0.343
Mof_N 	N 	0.11301	0.24533	0.71304	-0.099
Mof_N 	N 	0.11037	0.2226	0.68303	-0.039
Mof_N 	N 	0.10726	0.20014	0.65288	-0.034
Mof_H 	H 	0.4247	0.6965	0.794	0.086
Mof_H 	H 	0.411	0.7421	0.7968	0.339
Mof_N 	N 	0.38699	0.71304	0.74533	-0.099
Mof_N 	N 	0.38963	0.68303	0.7226	-0.038
Mof_N 	N 	0.39274	0.65288	0.70014	-0.029
Mof_H 	H 	0.4247	0.1965	0.294	0.099
Mof_H 	H 	0.411	0.2421	0.2968	0.338
Mof_N 	N 	0.38699	0.21304	0.24533	-0.098
Mof_N 	N 	0.38963	0.18303	0.2226	-0.038
Mof_N 	N 	0.39274	0.15288	0.20014	-0.033
Mof_H 	H 	0.9247	0.6965	0.294	0.118
Mof_H 	H 	0.911	0.7421	0.2968	0.365
Mof_N 	N 	0.88699	0.71304	0.24533	-0.101
Mof_N 	N 	0.88963	0.68303	0.2226	-0.037
Mof_N 	N 	0.89274	0.65288	0.20014	-0.023
Mof_H 	H 	0.9247	0.1965	0.794	0.1
Mof_H 	H 	0.911	0.2421	0.7968	0.364
Mof_N 	N 	0.88699	0.21304	0.74533	-0.101
Mof_N 	N 	0.88963	0.18303	0.7226	-0.036
Mof_N 	N 	0.89274	0.15288	0.70014	-0.023
Mof_H 	H 	0.5753	0.3035	0.794	0.091
Mof_H 	H 	0.589	0.2579	0.7968	0.339
Mof_N 	N 	0.61301	0.28696	0.74533	-0.099
Mof_N 	N 	0.61037	0.31697	0.7226	-0.038
Mof_N 	N 	0.60726	0.34712	0.70014	-0.029
Mof_H 	H 	0.5753	0.8035	0.294	0.126
Mof_H 	H 	0.589	0.7579	0.2968	0.343
Mof_N 	N 	0.61301	0.78696	0.24533	-0.097
Mof_N 	N 	0.61037	0.81697	0.2226	-0.037
Mof_N 	N 	0.60726	0.84712	0.20014	-0.026
Mof_H 	H 	0.0753	0.3035	0.294	0.109
Mof_H 	H 	0.089	0.2579	0.2968	0.343
Mof_N 	N 	0.11301	0.28696	0.24533	-0.098
Mof_N 	N 	0.11037	0.31697	0.2226	-0.039
Mof_N 	N 	0.10726	0.34712	0.20014	-0.034
Mof_H 	H 	0.0753	0.8035	0.794	0.112
Mof_H 	H 	0.089	0.7579	0.7968	0.347
Mof_N 	N 	0.11301	0.78696	0.74533	-0.098
Mof_N 	N 	0.11037	0.81697	0.7226	-0.038
Mof_N 	N 	0.10726	0.84712	0.70014	-0.028
Mof_H 	H 	0.4247	0.3035	0.206	0.114
Mof_H 	H 	0.411	0.2579	0.2032	0.339
Mof_N 	N 	0.38699	0.28696	0.25467	-0.098
Mof_N 	N 	0.38963	0.31697	0.2774	-0.038
Mof_N 	N 	0.39274	0.34712	0.29986	-0.029
Mof_H 	H 	0.4247	0.8035	0.706	0.131
Mof_H 	H 	0.411	0.7579	0.7032	0.343
Mof_N 	N 	0.38699	0.78696	0.75467	-0.097
Mof_N 	N 	0.38963	0.81697	0.7774	-0.037
Mof_N 	N 	0.39274	0.84712	0.79986	-0.022
Mof_H 	H 	0.9247	0.3035	0.706	0.128
Mof_H 	H 	0.911	0.2579	0.7032	0.366
Mof_N 	N 	0.88699	0.28696	0.75467	-0.101
Mof_N 	N 	0.88963	0.31697	0.7774	-0.036
Mof_N 	N 	0.89274	0.34712	0.79986	-0.019
Mof_H 	H 	0.9247	0.8035	0.206	0.149
Mof_H 	H 	0.911	0.7579	0.2032	0.369
Mof_N 	N 	0.88699	0.78696	0.25467	-0.1
Mof_N 	N 	0.88963	0.81697	0.2774	-0.036
Mof_N 	N 	0.89274	0.84712	0.29986	-0.017
Mof_H 	H 	0.5753	0.6965	0.206	0.109
Mof_H 	H 	0.589	0.7421	0.2032	0.339
Mof_N 	N 	0.61301	0.71304	0.25467	-0.098
Mof_N 	N 	0.61037	0.68303	0.2774	-0.038
Mof_N 	N 	0.60726	0.65288	0.29986	-0.029
Mof_H 	H 	0.5753	0.1965	0.706	0.105
Mof_H 	H 	0.589	0.2421	0.7032	0.339
Mof_N 	N 	0.61301	0.21304	0.75467	-0.098
Mof_N 	N 	0.61037	0.18303	0.7774	-0.038
Mof_N 	N 	0.60726	0.15288	0.79986	-0.029
Mof_H 	H 	0.0753	0.6965	0.706	0.109
Mof_H 	H 	0.089	0.7421	0.7032	0.344
Mof_N 	N 	0.11301	0.71304	0.75467	-0.098
Mof_N 	N 	0.11037	0.68303	0.7774	-0.039
Mof_N 	N 	0.10726	0.65288	0.79986	-0.03
Mof_H 	H 	0.0753	0.1965	0.206	0.109
Mof_H 	H 	0.089	0.2421	0.2032	0.343
Mof_N 	N 	0.11301	0.21304	0.25467	-0.098
Mof_N 	N 	0.11037	0.18303	0.2774	-0.039
Mof_N 	N 	0.10726	0.15288	0.29986	-0.035
Mof_H 	H 	0.6965	0.206	0.5753	0.109
Mof_H 	H 	0.7421	0.2032	0.589	0.339
Mof_N 	N 	0.71304	0.25467	0.61301	-0.098
Mof_N 	N 	0.68303	0.2774	0.61037	-0.038
Mof_N 	N 	0.65288	0.29986	0.60726	-0.029
Mof_H 	H 	0.6965	0.706	0.0753	0.109
Mof_H 	H 	0.7421	0.7032	0.089	0.344
Mof_N 	N 	0.71304	0.75467	0.11301	-0.098
Mof_N 	N 	0.68303	0.7774	0.11037	-0.039
Mof_N 	N 	0.65288	0.79986	0.10726	-0.03
Mof_H 	H 	0.1965	0.206	0.0753	0.109
Mof_H 	H 	0.2421	0.2032	0.089	0.343
Mof_N 	N 	0.21304	0.25467	0.11301	-0.098
Mof_N 	N 	0.18303	0.2774	0.11037	-0.039
Mof_N 	N 	0.15288	0.29986	0.10726	-0.035
Mof_H 	H 	0.1965	0.706	0.5753	0.105
Mof_H 	H 	0.2421	0.7032	0.589	0.339
Mof_N 	N 	0.21304	0.75467	0.61301	-0.098
Mof_N 	N 	0.18303	0.7774	0.61037	-0.038
Mof_N 	N 	0.15288	0.79986	0.60726	-0.029
Mof_H 	H 	0.3035	0.206	0.4247	0.114
Mof_H 	H 	0.2579	0.2032	0.411	0.339
Mof_N 	N 	0.28696	0.25467	0.38699	-0.098
Mof_N 	N 	0.31697	0.2774	0.38963	-0.038
Mof_N 	N 	0.34712	0.29986	0.39274	-0.029
Mof_H 	H 	0.3035	0.706	0.9247	0.128
Mof_H 	H 	0.2579	0.7032	0.911	0.366
Mof_N 	N 	0.28696	0.75467	0.88699	-0.101
Mof_N 	N 	0.31697	0.7774	0.88963	-0.036
Mof_N 	N 	0.34712	0.79986	0.89274	-0.019
Mof_H 	H 	0.8035	0.206	0.9247	0.149
Mof_H 	H 	0.7579	0.2032	0.911	0.369
Mof_N 	N 	0.78696	0.25467	0.88699	-0.1
Mof_N 	N 	0.81697	0.2774	0.88963	-0.036
Mof_N 	N 	0.84712	0.29986	0.89274	-0.017
Mof_H 	H 	0.8035	0.706	0.4247	0.131
Mof_H 	H 	0.7579	0.7032	0.411	0.343
Mof_N 	N 	0.78696	0.75467	0.38699	-0.097
Mof_N 	N 	0.81697	0.7774	0.38963	-0.037
Mof_N 	N 	0.84712	0.79986	0.39274	-0.022
Mof_H 	H 	0.3035	0.794	0.5753	0.091
Mof_H 	H 	0.2579	0.7968	0.589	0.339
Mof_N 	N 	0.28696	0.74533	0.61301	-0.099
Mof_N 	N 	0.31697	0.7226	0.61037	-0.038
Mof_N 	N 	0.34712	0.70014	0.60726	-0.029
Mof_H 	H 	0.3035	0.294	0.0753	0.109
Mof_H 	H 	0.2579	0.2968	0.089	0.343
Mof_N 	N 	0.28696	0.24533	0.11301	-0.098
Mof_N 	N 	0.31697	0.2226	0.11037	-0.039
Mof_N 	N 	0.34712	0.20014	0.10726	-0.034
Mof_H 	H 	0.8035	0.794	0.0753	0.112
Mof_H 	H 	0.7579	0.7968	0.089	0.347
Mof_N 	N 	0.78696	0.74533	0.11301	-0.098
Mof_N 	N 	0.81697	0.7226	0.11037	-0.038
Mof_N 	N 	0.84712	0.70014	0.10726	-0.028
Mof_H 	H 	0.8035	0.294	0.5753	0.126
Mof_H 	H 	0.7579	0.2968	0.589	0.343
Mof_N 	N 	0.78696	0.24533	0.61301	-0.097
Mof_N 	N 	0.81697	0.2226	0.61037	-0.037
Mof_N 	N 	0.84712	0.20014	0.60726	-0.026
Mof_H 	H 	0.6965	0.794	0.4247	0.086
Mof_H 	H 	0.7421	0.7968	0.411	0.339
Mof_N 	N 	0.71304	0.74533	0.38699	-0.099
Mof_N 	N 	0.68303	0.7226	0.38963	-0.038
Mof_N 	N 	0.65288	0.70014	0.39274	-0.029
Mof_H 	H 	0.6965	0.294	0.9247	0.118
Mof_H 	H 	0.7421	0.2968	0.911	0.365
Mof_N 	N 	0.71304	0.24533	0.88699	-0.101
Mof_N 	N 	0.68303	0.2226	0.88963	-0.037
Mof_N 	N 	0.65288	0.20014	0.89274	-0.023
Mof_H 	H 	0.1965	0.794	0.9247	0.1
Mof_H 	H 	0.2421	0.7968	0.911	0.364
Mof_N 	N 	0.21304	0.74533	0.88699	-0.101
Mof_N 	N 	0.18303	0.7226	0.88963	-0.036
Mof_N 	N 	0.15288	0.70014	0.89274	-0.023
Mof_H 	H 	0.1965	0.294	0.4247	0.099
Mof_H 	H 	0.2421	0.2968	0.411	0.338
Mof_N 	N 	0.21304	0.24533	0.38699	-0.098
Mof_N 	N 	0.18303	0.2226	0.38963	-0.038
Mof_N 	N 	0.15288	0.20014	0.39274	-0.033
Mof_H 	H 	0.206	0.4247	0.3035	0.114
Mof_H 	H 	0.2032	0.411	0.2579	0.339
Mof_N 	N 	0.25467	0.38699	0.28696	-0.098
Mof_N 	N 	0.2774	0.38963	0.31697	-0.038
Mof_N 	N 	0.29986	0.39274	0.34712	-0.029
Mof_H 	H 	0.206	0.9247	0.8035	0.149
Mof_H 	H 	0.2032	0.911	0.7579	0.369
Mof_N 	N 	0.25467	0.88699	0.78696	-0.1
Mof_N 	N 	0.2774	0.88963	0.81697	-0.036
Mof_N 	N 	0.29986	0.89274	0.84712	-0.017
Mof_H 	H 	0.706	0.4247	0.8035	0.131
Mof_H 	H 	0.7032	0.411	0.7579	0.343
Mof_N 	N 	0.75467	0.38699	0.78696	-0.097
Mof_N 	N 	0.7774	0.38963	0.81697	-0.037
Mof_N 	N 	0.79986	0.39274	0.84712	-0.022
Mof_H 	H 	0.706	0.9247	0.3035	0.128
Mof_H 	H 	0.7032	0.911	0.2579	0.366
Mof_N 	N 	0.75467	0.88699	0.28696	-0.101
Mof_N 	N 	0.7774	0.88963	0.31697	-0.036
Mof_N 	N 	0.79986	0.89274	0.34712	-0.019
Mof_H 	H 	0.206	0.5753	0.6965	0.109
Mof_H 	H 	0.2032	0.589	0.7421	0.339
Mof_N 	N 	0.25467	0.61301	0.71304	-0.098
Mof_N 	N 	0.2774	0.61037	0.68303	-0.038
Mof_N 	N 	0.29986	0.60726	0.65288	-0.029
Mof_H 	H 	0.206	0.0753	0.1965	0.109
Mof_H 	H 	0.2032	0.089	0.2421	0.343
Mof_N 	N 	0.25467	0.11301	0.21304	-0.098
Mof_N 	N 	0.2774	0.11037	0.18303	-0.039
Mof_N 	N 	0.29986	0.10726	0.15288	-0.035
Mof_H 	H 	0.706	0.5753	0.1965	0.105
Mof_H 	H 	0.7032	0.589	0.2421	0.339
Mof_N 	N 	0.75467	0.61301	0.21304	-0.098
Mof_N 	N 	0.7774	0.61037	0.18303	-0.038
Mof_N 	N 	0.79986	0.60726	0.15288	-0.029
Mof_H 	H 	0.706	0.0753	0.6965	0.109
Mof_H 	H 	0.7032	0.089	0.7421	0.344
Mof_N 	N 	0.75467	0.11301	0.71304	-0.098
Mof_N 	N 	0.7774	0.11037	0.68303	-0.039
Mof_N 	N 	0.79986	0.10726	0.65288	-0.03
Mof_H 	H 	0.794	0.4247	0.6965	0.086
Mof_H 	H 	0.7968	0.411	0.7421	0.339
Mof_N 	N 	0.74533	0.38699	0.71304	-0.099
Mof_N 	N 	0.7226	0.38963	0.68303	-0.038
Mof_N 	N 	0.70014	0.39274	0.65288	-0.029
Mof_H 	H 	0.794	0.9247	0.1965	0.1
Mof_H 	H 	0.7968	0.911	0.2421	0.364
Mof_N 	N 	0.74533	0.88699	0.21304	-0.101
Mof_N 	N 	0.7226	0.88963	0.18303	-0.036
Mof_N 	N 	0.70014	0.89274	0.15288	-0.023
Mof_H 	H 	0.294	0.4247	0.1965	0.099
Mof_H 	H 	0.2968	0.411	0.2421	0.338
Mof_N 	N 	0.24533	0.38699	0.21304	-0.098
Mof_N 	N 	0.2226	0.38963	0.18303	-0.038
Mof_N 	N 	0.20014	0.39274	0.15288	-0.033
Mof_H 	H 	0.294	0.9247	0.6965	0.118
Mof_H 	H 	0.2968	0.911	0.7421	0.365
Mof_N 	N 	0.24533	0.88699	0.71304	-0.101
Mof_N 	N 	0.2226	0.88963	0.68303	-0.037
Mof_N 	N 	0.20014	0.89274	0.65288	-0.023
Mof_H 	H 	0.794	0.5753	0.3035	0.091
Mof_H 	H 	0.7968	0.589	0.2579	0.339
Mof_N 	N 	0.74533	0.61301	0.28696	-0.099
Mof_N 	N 	0.7226	0.61037	0.31697	-0.038
Mof_N 	N 	0.70014	0.60726	0.34712	-0.029
Mof_H 	H 	0.794	0.0753	0.8035	0.112
Mof_H 	H 	0.7968	0.089	0.7579	0.347
Mof_N 	N 	0.74533	0.11301	0.78696	-0.098
Mof_N 	N 	0.7226	0.11037	0.81697	-0.038
Mof_N 	N 	0.70014	0.10726	0.84712	-0.028
Mof_H 	H 	0.294	0.5753	0.8035	0.126
Mof_H 	H 	0.2968	0.589	0.7579	0.343
Mof_N 	N 	0.24533	0.61301	0.78696	-0.097
Mof_N 	N 	0.2226	0.61037	0.81697	-0.037
Mof_N 	N 	0.20014	0.60726	0.84712	-0.026
Mof_H 	H 	0.294	0.0753	0.3035	0.109
Mof_H 	H 	0.2968	0.089	0.2579	0.343
Mof_N 	N 	0.24533	0.11301	0.28696	-0.098
Mof_N 	N 	0.2226	0.11037	0.31697	-0.039
Mof_N 	N 	0.20014	0.10726	0.34712	-0.034
Mof_Zr	Zr	0.42475	0.5	-0	3.216
Mof_Zr	Zr	0.92475	0.5	0.5	3.221
Mof_Zr	Zr	0.57525	0.5	-0	3.216
Mof_Zr	Zr	0.07525	0.5	0.5	3.221
Mof_Zr	Zr	7.65459e-33	0.42475	0.5	3.216
Mof_Zr	Zr	-0	0.92475	-0	3.21
Mof_Zr	Zr	1.34345e-32	0.57525	0.5	3.216
Mof_Zr	Zr	7.22487e-34	0.07525	-0	3.21
Mof_Zr	Zr	0.5	2.88995e-33	0.42475	3.216
Mof_Zr	Zr	0.5	0.5	0.92475	3.221
Mof_Zr	Zr	0.5	1.15598e-32	0.57525	3.216
Mof_Zr	Zr	0.5	0.5	0.07525	3.221
Mof_Zr	Zr	0.5	0.42475	-0	3.216
Mof_Zr	Zr	0.5	0.92475	0.5	3.221
Mof_Zr	Zr	0.5	0.57525	-0	3.216
Mof_Zr	Zr	0.5	0.07525	0.5	3.221
Mof_Zr	Zr	0.42475	5.77989e-33	0.5	3.216
Mof_Zr	Zr	0.92475	0	-0	3.21
Mof_Zr	Zr	0.57525	5.77989e-33	0.5	3.216
Mof_Zr	Zr	0.07525	0	-0	3.21
Mof_Zr	Zr	1.37166e-32	0.5	0.57525	3.216
Mof_Zr	Zr	1.00463e-33	7.22487e-34	0.07525	3.21
Mof_Zr	Zr	1.02624e-32	0.5	0.42475	3.216
Mof_Zr	Zr	3.46726e-33	0	0.92475	3.21
Mof_O 	O 	0.39153	0.5	0.94103	-0.619
Mof_C 	C 	0.38293	0.5	0.83181	0.199
Mof_H 	H 	0.4104	0.5	0.8244	-0.012
Mof_C 	C 	0.35289	0.5	0.80213	-0.28
Mof_H 	H 	0.3603	0.5	0.7747	0.142
Mof_O 	O 	0.39153	5.77989e-33	0.44103	-0.667
Mof_C 	C 	0.38293	5.77989e-33	0.33181	0.221
Mof_H 	H 	0.4104	2.88995e-33	0.3244	-0.031
Mof_C 	C 	0.35289	2.88995e-33	0.30213	-0.319
Mof_H 	H 	0.3603	2.88995e-33	0.2747	0.143
Mof_O 	O 	0.89153	0.5	0.44103	-0.643
Mof_C 	C 	0.88293	0.5	0.33181	0.199
Mof_H 	H 	0.9104	0.5	0.3244	-0.001
Mof_C 	C 	0.85289	0.5	0.30213	-0.279
Mof_H 	H 	0.8603	0.5	0.2747	0.146
Mof_O 	O 	0.89153	0	0.94103	-0.636
Mof_C 	C 	0.88293	0	0.83181	0.21
Mof_H 	H 	0.9104	1.15598e-32	0.8244	-0.013
Mof_C 	C 	0.85289	5.77989e-33	0.80213	-0.305
Mof_H 	H 	0.8603	1.15598e-32	0.7747	0.144
Mof_O 	O 	0.60847	0.5	0.94103	-0.619
Mof_C 	C 	0.61707	0.5	0.83181	0.199
Mof_H 	H 	0.5896	0.5	0.8244	-0.012
Mof_C 	C 	0.64711	0.5	0.80213	-0.281
Mof_H 	H 	0.6397	0.5	0.7747	0.142
Mof_O 	O 	0.60847	5.77989e-33	0.44103	-0.667
Mof_C 	C 	0.61707	5.77989e-33	0.33181	0.222
Mof_H 	H 	0.5896	2.88995e-33	0.3244	-0.031
Mof_C 	C 	0.64711	2.88995e-33	0.30213	-0.32
Mof_H 	H 	0.6397	2.88995e-33	0.2747	0.143
Mof_O 	O 	0.10847	0.5	0.44103	-0.646
Mof_C 	C 	0.11707	0.5	0.33181	0.206
Mof_H 	H 	0.0896	0.5	0.3244	-0.019
Mof_C 	C 	0.14711	0.5	0.30213	-0.288
Mof_H 	H 	0.1397	0.5	0.2747	0.141
Mof_O 	O 	0.10847	0	0.94103	-0.639
Mof_C 	C 	0.11707	0	0.83181	0.217
Mof_H 	H 	0.0896	1.15598e-32	0.8244	-0.031
Mof_C 	C 	0.14711	5.77989e-33	0.80213	-0.314
Mof_H 	H 	0.1397	1.15598e-32	0.7747	0.14
Mof_O 	O 	0.60847	0.5	0.05897	-0.65
Mof_C 	C 	0.61707	0.5	0.16819	0.206
Mof_H 	H 	0.5896	0.5	0.1756	-0.015
Mof_C 	C 	0.64711	0.5	0.19787	-0.289
Mof_H 	H 	0.6397	0.5	0.2253	0.144
Mof_O 	O 	0.60847	1.15598e-32	0.55897	-0.667
Mof_C 	C 	0.61707	5.77989e-33	0.66819	0.222
Mof_H 	H 	0.5896	5.77989e-33	0.6756	-0.03
Mof_C 	C 	0.64711	1.15598e-32	0.69787	-0.321
Mof_H 	H 	0.6397	5.77989e-33	0.7253	0.145
Mof_O 	O 	0.10847	0.5	0.55897	-0.646
Mof_C 	C 	0.11707	0.5	0.66819	0.207
Mof_H 	H 	0.0896	0.5	0.6756	-0.018
Mof_C 	C 	0.14711	0.5	0.69787	-0.289
Mof_H 	H 	0.1397	0.5	0.7253	0.144
Mof_O 	O 	0.10847	7.22487e-34	0.05897	-0.67
Mof_C 	C 	0.11707	1.44497e-33	0.16819	0.224
Mof_H 	H 	0.0896	1.44497e-33	0.1756	-0.034
Mof_C 	C 	0.14711	2.88995e-33	0.19787	-0.322
Mof_H 	H 	0.1397	0	0.2253	0.142
Mof_O 	O 	0.39153	0.5	0.05897	-0.65
Mof_C 	C 	0.38293	0.5	0.16819	0.206
Mof_H 	H 	0.4104	0.5	0.1756	-0.015
Mof_C 	C 	0.35289	0.5	0.19787	-0.288
Mof_H 	H 	0.3603	0.5	0.2253	0.144
Mof_O 	O 	0.39153	1.15598e-32	0.55897	-0.667
Mof_C 	C 	0.38293	5.77989e-33	0.66819	0.222
Mof_H 	H 	0.4104	5.77989e-33	0.6756	-0.03
Mof_C 	C 	0.35289	1.15598e-32	0.69787	-0.32
Mof_H 	H 	0.3603	5.77989e-33	0.7253	0.145
Mof_O 	O 	0.89153	0.5	0.55897	-0.643
Mof_C 	C 	0.88293	0.5	0.66819	0.2
Mof_H 	H 	0.9104	0.5	0.6756	-0
Mof_C 	C 	0.85289	0.5	0.69787	-0.28
Mof_H 	H 	0.8603	0.5	0.7253	0.148
Mof_O 	O 	0.89153	7.22487e-34	0.05897	-0.667
Mof_C 	C 	0.88293	1.44497e-33	0.16819	0.217
Mof_H 	H 	0.9104	1.44497e-33	0.1756	-0.016
Mof_C 	C 	0.85289	2.88995e-33	0.19787	-0.313
Mof_H 	H 	0.8603	0	0.2253	0.147
Mof_O 	O 	0.94103	0.39153	0.5	-0.619
Mof_C 	C 	0.83181	0.38293	0.5	0.199
Mof_H 	H 	0.8244	0.4104	0.5	-0.012
Mof_C 	C 	0.80213	0.35289	0.5	-0.28
Mof_H 	H 	0.7747	0.3603	0.5	0.142
Mof_O 	O 	0.94103	0.89153	-0	-0.636
Mof_C 	C 	0.83181	0.88293	-0	0.21
Mof_H 	H 	0.8244	0.9104	-0	-0.013
Mof_C 	C 	0.80213	0.85289	-0	-0.305
Mof_H 	H 	0.7747	0.8603	-0	0.144
Mof_O 	O 	0.44103	0.39153	-0	-0.667
Mof_C 	C 	0.33181	0.38293	-0	0.221
Mof_H 	H 	0.3244	0.4104	-0	-0.031
Mof_C 	C 	0.30213	0.35289	-0	-0.319
Mof_H 	H 	0.2747	0.3603	-0	0.143
Mof_O 	O 	0.44103	0.89153	0.5	-0.643
Mof_C 	C 	0.33181	0.88293	0.5	0.199
Mof_H 	H 	0.3244	0.9104	0.5	-0.001
Mof_C 	C 	0.30213	0.85289	0.5	-0.279
Mof_H 	H 	0.2747	0.8603	0.5	0.146
Mof_O 	O 	0.94103	0.60847	0.5	-0.619
Mof_C 	C 	0.83181	0.61707	0.5	0.199
Mof_H 	H 	0.8244	0.5896	0.5	-0.012
Mof_C 	C 	0.80213	0.64711	0.5	-0.281
Mof_H 	H 	0.7747	0.6397	0.5	0.142
Mof_O 	O 	0.94103	0.10847	-0	-0.639
Mof_C 	C 	0.83181	0.11707	-0	0.217
Mof_H 	H 	0.8244	0.0896	-0	-0.031
Mof_C 	C 	0.80213	0.14711	-0	-0.314
Mof_H 	H 	0.7747	0.1397	-0	0.14
Mof_O 	O 	0.44103	0.60847	-0	-0.667
Mof_C 	C 	0.33181	0.61707	-0	0.222
Mof_H 	H 	0.3244	0.5896	-0	-0.031
Mof_C 	C 	0.30213	0.64711	-0	-0.32
Mof_H 	H 	0.2747	0.6397	-0	0.143
Mof_O 	O 	0.44103	0.10847	0.5	-0.646
Mof_C 	C 	0.33181	0.11707	0.5	0.206
Mof_H 	H 	0.3244	0.0896	0.5	-0.019
Mof_C 	C 	0.30213	0.14711	0.5	-0.288
Mof_H 	H 	0.2747	0.1397	0.5	0.141
Mof_O 	O 	0.05897	0.60847	0.5	-0.65
Mof_C 	C 	0.16819	0.61707	0.5	0.206
Mof_H 	H 	0.1756	0.5896	0.5	-0.015
Mof_C 	C 	0.19787	0.64711	0.5	-0.289
Mof_H 	H 	0.2253	0.6397	0.5	0.144
Mof_O 	O 	0.05897	0.10847	-0	-0.67
Mof_C 	C 	0.16819	0.11707	-0	0.224
Mof_H 	H 	0.1756	0.0896	-0	-0.034
Mof_C 	C 	0.19787	0.14711	-0	-0.322
Mof_H 	H 	0.2253	0.1397	-0	0.142
Mof_O 	O 	0.55897	0.60847	-0	-0.667
Mof_C 	C 	0.66819	0.61707	-0	0.222
Mof_H 	H 	0.6756	0.5896	-0	-0.03
Mof_C 	C 	0.69787	0.64711	-0	-0.321
Mof_H 	H 	0.7253	0.6397	-0	0.145
Mof_O 	O 	0.55897	0.10847	0.5	-0.646
Mof_C 	C 	0.66819	0.11707	0.5	0.207
Mof_H 	H 	0.6756	0.0896	0.5	-0.018
Mof_C 	C 	0.69787	0.14711	0.5	-0.289
Mof_H 	H 	0.7253	0.1397	0.5	0.144
Mof_O 	O 	0.05897	0.39153	0.5	-0.65
Mof_C 	C 	0.16819	0.38293	0.5	0.206
Mof_H 	H 	0.1756	0.4104	0.5	-0.015
Mof_C 	C 	0.19787	0.35289	0.5	-0.288
Mof_H 	H 	0.2253	0.3603	0.5	0.144
Mof_O 	O 	0.05897	0.89153	-0	-0.667
Mof_C 	C 	0.16819	0.88293	-0	0.217
Mof_H 	H 	0.1756	0.9104	-0	-0.016
Mof_C 	C 	0.19787	0.85289	-0	-0.313
Mof_H 	H 	0.2253	0.8603	-0	0.147
Mof_O 	O 	0.55897	0.39153	-0	-0.667
Mof_C 	C 	0.66819	0.38293	-0	0.222
Mof_H 	H 	0.6756	0.4104	-0	-0.03
Mof_C 	C 	0.69787	0.35289	-0	-0.32
Mof_H 	H 	0.7253	0.3603	-0	0.145
Mof_O 	O 	0.55897	0.89153	0.5	-0.643
Mof_C 	C 	0.66819	0.88293	0.5	0.2
Mof_H 	H 	0.6756	0.9104	0.5	-0
Mof_C 	C 	0.69787	0.85289	0.5	-0.28
Mof_H 	H 	0.7253	0.8603	0.5	0.148
Mof_O 	O 	0.5	0.94103	0.39153	-0.619
Mof_C 	C 	0.5	0.83181	0.38293	0.199
Mof_H 	H 	0.5	0.8244	0.4104	-0.012
Mof_C 	C 	0.5	0.80213	0.35289	-0.28
Mof_H 	H 	0.5	0.7747	0.3603	0.142
Mof_O 	O 	0.5	0.44103	0.89153	-0.643
Mof_C 	C 	0.5	0.33181	0.88293	0.199
Mof_H 	H 	0.5	0.3244	0.9104	-0.001
Mof_C 	C 	0.5	0.30213	0.85289	-0.279
Mof_H 	H 	0.5	0.2747	0.8603	0.146
Mof_O 	O 	-1.97769e-32	0.94103	0.89153	-0.636
Mof_C 	C 	1.48702e-32	0.83181	0.88293	0.21
Mof_H 	H 	1.49732e-32	0.8244	0.9104	-0.013
Mof_C 	C 	3.19783e-33	0.80213	0.85289	-0.305
Mof_H 	H 	1.47854e-32	0.7747	0.8603	0.144
Mof_O 	O 	1.01378e-32	0.44103	0.39153	-0.667
Mof_C 	C 	1.29955e-32	0.33181	0.38293	0.221
Mof_H 	H 	4.4287e-33	0.3244	0.4104	-0.031
Mof_C 	C 	9.99297e-33	0.30213	0.35289	-0.319
Mof_H 	H 	4.24086e-33	0.2747	0.3603	0.143
Mof_O 	O 	0.5	0.94103	0.60847	-0.619
Mof_C 	C 	0.5	0.83181	0.61707	0.199
Mof_H 	H 	0.5	0.8244	0.5896	-0.012
Mof_C 	C 	0.5	0.80213	0.64711	-0.281
Mof_H 	H 	0.5	0.7747	0.6397	0.142
Mof_O 	O 	0.5	0.44103	0.10847	-0.646
Mof_C 	C 	0.5	0.33181	0.11707	0.206
Mof_H 	H 	0.5	0.3244	0.0896	-0.019
Mof_C 	C 	0.5	0.30213	0.14711	-0.288
Mof_H 	H 	0.5	0.2747	0.1397	0.141
Mof_O 	O 	1.85167e-33	0.94103	0.10847	-0.639
Mof_C 	C 	4.77386e-33	0.83181	0.11707	0.217
Mof_H 	H 	1.47857e-32	0.8244	0.0896	-0.031
Mof_C 	C 	1.64463e-32	0.80213	0.14711	-0.314
Mof_H 	H 	1.20836e-32	0.7747	0.1397	0.14
Mof_O 	O 	1.38412e-32	0.44103	0.60847	-0.667
Mof_C 	C 	1.96533e-32	0.33181	0.61707	0.222
Mof_H 	H 	7.99054e-33	0.3244	0.5896	-0.031
Mof_C 	C 	1.9766e-32	0.30213	0.64711	-0.32
Mof_H 	H 	1.39583e-32	0.2747	0.6397	0.143
Mof_O 	O 	0.5	0.05897	0.60847	-0.65
Mof_C 	C 	0.5	0.16819	0.61707	0.206
Mof_H 	H 	0.5	0.1756	0.5896	-0.015
Mof_C 	C 	0.5	0.19787	0.64711	-0.289
Mof_H 	H 	0.5	0.2253	0.6397	0.144
Mof_O 	O 	0.5	0.55897	0.10847	-0.646
Mof_C 	C 	0.5	0.66819	0.11707	0.207
Mof_H 	H 	0.5	0.6756	0.0896	-0.018
Mof_C 	C 	0.5	0.69787	0.14711	-0.289
Mof_H 	H 	0.5	0.7253	0.1397	0.144
Mof_O 	O 	1.85167e-33	0.05897	0.10847	-0.67
Mof_C 	C 	4.77386e-33	0.16819	0.11707	0.224
Mof_H 	H 	1.78092e-33	0.1756	0.0896	-0.034
Mof_C 	C 	4.8865e-33	0.19787	0.14711	-0.322
Mof_H 	H 	3.41374e-33	0.2253	0.1397	0.142
Mof_O 	O 	1.96211e-32	0.55897	0.60847	-0.667
Mof_C 	C 	1.96533e-32	0.66819	0.61707	0.222
Mof_H 	H 	1.37704e-32	0.6756	0.5896	-0.03
Mof_C 	C 	1.9766e-32	0.69787	0.64711	-0.321
Mof_H 	H 	1.39583e-32	0.7253	0.6397	0.145
Mof_O 	O 	0.5	0.05897	0.39153	-0.65
Mof_C 	C 	0.5	0.16819	0.38293	0.206
Mof_H 	H 	0.5	0.1756	0.4104	-0.015
Mof_C 	C 	0.5	0.19787	0.35289	-0.288
Mof_H 	H 	0.5	0.2253	0.3603	0.144
Mof_O 	O 	0.5	0.55897	0.89153	-0.643
Mof_C 	C 	0.5	0.66819	0.88293	0.2
Mof_H 	H 	0.5	0.6756	0.9104	-0
Mof_C 	C 	0.5	0.69787	0.85289	-0.28
Mof_H 	H 	0.5	0.7253	0.8603	0.148
Mof_O 	O 	3.3427e-33	0.05897	0.89153	-0.667
Mof_C 	C 	1.48702e-32	0.16819	0.88293	0.217
Mof_H 	H 	3.41345e-33	0.1756	0.9104	-0.016
Mof_C 	C 	3.19783e-33	0.19787	0.85289	-0.313
Mof_H 	H 	3.22561e-33	0.2253	0.8603	0.147
Mof_O 	O 	2.16976e-32	0.55897	0.39153	-0.667
Mof_C 	C 	1.58855e-32	0.66819	0.38293	0.222
Mof_H 	H 	7.31865e-33	0.6756	0.4104	-0.03
Mof_C 	C 	9.99297e-33	0.69787	0.35289	-0.32
Mof_H 	H 	1.29107e-32	0.7253	0.3603	0.145
Mof_O 	O 	0.5	0.39153	0.05897	-0.65
Mof_C 	C 	0.5	0.38293	0.16819	0.206
Mof_H 	H 	0.5	0.4104	0.1756	-0.015
Mof_C 	C 	0.5	0.35289	0.19787	-0.288
Mof_H 	H 	0.5	0.3603	0.2253	0.144
Mof_O 	O 	0.5	0.89153	0.55897	-0.643
Mof_C 	C 	0.5	0.88293	0.66819	0.2
Mof_H 	H 	0.5	0.9104	0.6756	-0
Mof_C 	C 	0.5	0.85289	0.69787	-0.28
Mof_H 	H 	0.5	0.8603	0.7253	0.148
Mof_O 	O 	1.94355e-32	0.39153	0.55897	-0.667
Mof_C 	C 	1.40651e-32	0.38293	0.66819	0.222
Mof_H 	H 	8.31299e-33	0.4104	0.6756	-0.03
Mof_C 	C 	8.39649e-33	0.35289	0.69787	-0.32
Mof_H 	H 	8.49933e-33	0.3603	0.7253	0.145
Mof_O 	O 	5.27851e-33	0.89153	0.05897	-0.667
Mof_C 	C 	9.30045e-33	0.88293	0.16819	0.217
Mof_H 	H 	7.88326e-33	0.9104	0.1756	-0.016
Mof_C 	C 	7.41894e-34	0.85289	0.19787	-0.313
Mof_H 	H 	3.73469e-33	0.8603	0.2253	0.147
Mof_O 	O 	0.5	0.60847	0.05897	-0.65
Mof_C 	C 	0.5	0.61707	0.16819	0.206
Mof_H 	H 	0.5	0.5896	0.1756	-0.015
Mof_C 	C 	0.5	0.64711	0.19787	-0.289
Mof_H 	H 	0.5	0.6397	0.2253	0.144
Mof_O 	O 	0.5	0.10847	0.55897	-0.646
Mof_C 	C 	0.5	0.11707	0.66819	0.207
Mof_H 	H 	0.5	0.0896	0.6756	-0.018
Mof_C 	C 	0.5	0.14711	0.69787	-0.289
Mof_H 	H 	0.5	0.1397	0.7253	0.144
Mof_O 	O 	1.94355e-32	0.60847	0.55897	-0.667
Mof_C 	C 	1.9845e-32	0.61707	0.66819	0.222
Mof_H 	H 	1.40929e-32	0.5896	0.6756	-0.03
Mof_C 	C 	1.99563e-32	0.64711	0.69787	-0.321
Mof_H 	H 	1.42792e-32	0.6397	0.7253	0.145
Mof_O 	O 	2.38856e-33	0.10847	0.05897	-0.67
Mof_C 	C 	3.52056e-33	0.11707	0.16819	0.224
Mof_H 	H 	2.10337e-33	0.0896	0.1756	-0.034
Mof_C 	C 	5.07681e-33	0.14711	0.19787	-0.322
Mof_H 	H 	3.73469e-33	0.1397	0.2253	0.142
Mof_O 	O 	0.5	0.60847	0.94103	-0.619
Mof_C 	C 	0.5	0.61707	0.83181	0.199
Mof_H 	H 	0.5	0.5896	0.8244	-0.012
Mof_C 	C 	0.5	0.64711	0.80213	-0.281
Mof_H 	H 	0.5	0.6397	0.7747	0.142
Mof_O 	O 	0.5	0.10847	0.44103	-0.646
Mof_C 	C 	0.5	0.11707	0.33181	0.206
Mof_H 	H 	0.5	0.0896	0.3244	-0.019
Mof_C 	C 	0.5	0.14711	0.30213	-0.288
Mof_H 	H 	0.5	0.1397	0.2747	0.141
Mof_O 	O 	1.32134e-32	0.60847	0.44103	-0.667
Mof_C 	C 	2.14737e-32	0.61707	0.33181	0.222
Mof_H 	H 	9.88615e-33	0.5896	0.3244	-0.031
Mof_C 	C 	1.84725e-32	0.64711	0.30213	-0.32
Mof_H 	H 	1.54797e-32	0.6397	0.2747	0.143
Mof_O 	O 	3.5283e-33	0.10847	0.94103	-0.639
Mof_C 	C 	3.11879e-33	0.11707	0.83181	0.217
Mof_H 	H 	1.46508e-32	0.0896	0.8244	-0.031
Mof_C 	C 	1.45673e-32	0.14711	0.80213	-0.314
Mof_H 	H 	8.68455e-33	0.1397	0.7747	0.14
Mof_O 	O 	0.5	0.39153	0.94103	-0.619
Mof_C 	C 	0.5	0.38293	0.83181	0.199
Mof_H 	H 	0.5	0.4104	0.8244	-0.012
Mof_C 	C 	0.5	0.35289	0.80213	-0.28
Mof_H 	H 	0.5	0.3603	0.7747	0.142
Mof_O 	O 	0.5	0.89153	0.44103	-0.643
Mof_C 	C 	0.5	0.88293	0.33181	0.199
Mof_H 	H 	0.5	0.9104	0.3244	-0.001
Mof_C 	C 	0.5	0.85289	0.30213	-0.279
Mof_H 	H 	0.5	0.8603	0.2747	0.146
Mof_O 	O 	7.43349e-33	0.39153	0.44103	-0.667
Mof_C 	C 	1.28039e-32	0.38293	0.33181	0.221
Mof_H 	H 	4.10625e-33	0.4104	0.3244	-0.031
Mof_C 	C 	9.80265e-33	0.35289	0.30213	-0.319
Mof_H 	H 	3.91991e-33	0.3603	0.2747	0.143
Mof_O 	O 	-8.03149e-33	0.89153	0.94103	-0.636
Mof_C 	C 	8.89868e-33	0.88293	0.83181	0.21
Mof_H 	H 	2.04307e-32	0.9104	0.8244	-0.013
Mof_C 	C 	3.00751e-33	0.85289	0.80213	-0.305
Mof_H 	H 	2.02443e-32	0.8603	0.7747	0.144
Mof_O 	O 	0.39153	0.94103	0.5	-0.619
Mof_C 	C 	0.38293	0.83181	0.5	0.199
Mof_H 	H 	0.4104	0.8244	0.5	-0.012
Mof_C 	C 	0.35289	0.80213	0.5	-0.28
Mof_H 	H 	0.3603	0.7747	0.5	0.142
Mof_O 	O 	0.39153	0.44103	-0	-0.667
Mof_C 	C 	0.38293	0.33181	-0	0.221
Mof_H 	H 	0.4104	0.3244	-0	-0.031
Mof_C 	C 	0.35289	0.30213	-0	-0.319
Mof_H 	H 	0.3603	0.2747	-0	0.143
Mof_O 	O 	0.89153	0.94103	-0	-0.636
Mof_C 	C 	0.88293	0.83181	-0	0.21
Mof_H 	H 	0.9104	0.8244	-0	-0.013
Mof_C 	C 	0.85289	0.80213	-0	-0.305
Mof_H 	H 	0.8603	0.7747	-0	0.144
Mof_O 	O 	0.89153	0.44103	0.5	-0.643
Mof_C 	C 	0.88293	0.33181	0.5	0.199
Mof_H 	H 	0.9104	0.3244	0.5	-0.001
Mof_C 	C 	0.85289	0.30213	0.5	-0.279
Mof_H 	H 	0.8603	0.2747	0.5	0.146
Mof_O 	O 	0.60847	0.94103	0.5	-0.619
Mof_C 	C 	0.61707	0.83181	0.5	0.199
Mof_H 	H 	0.5896	0.8244	0.5	-0.012
Mof_C 	C 	0.64711	0.80213	0.5	-0.281
Mof_H 	H 	0.6397	0.7747	0.5	0.142
Mof_O 	O 	0.60847	0.44103	-0	-0.667
Mof_C 	C 	0.61707	0.33181	-0	0.222
Mof_H 	H 	0.5896	0.3244	-0	-0.031
Mof_C 	C 	0.64711	0.30213	-0	-0.32
Mof_H 	H 	0.6397	0.2747	-0	0.143
Mof_O 	O 	0.10847	0.94103	-0	-0.639
Mof_C 	C 	0.11707	0.83181	-0	0.217
Mof_H 	H 	0.0896	0.8244	-0	-0.031
Mof_C 	C 	0.14711	0.80213	-0	-0.314
Mof_H 	H 	0.1397	0.7747	-0	0.14
Mof_O 	O 	0.10847	0.44103	0.5	-0.646
Mof_C 	C 	0.11707	0.33181	0.5	0.206
Mof_H 	H 	0.0896	0.3244	0.5	-0.019
Mof_C 	C 	0.14711	0.30213	0.5	-0.288
Mof_H 	H 	0.1397	0.2747	0.5	0.141
Mof_O 	O 	0.60847	0.05897	0.5	-0.65
Mof_C 	C 	0.61707	0.16819	0.5	0.206
Mof_H 	H 	0.5896	0.1756	0.5	-0.015
Mof_C 	C 	0.64711	0.19787	0.5	-0.289
Mof_H 	H 	0.6397	0.2253	0.5	0.144
Mof_O 	O 	0.60847	0.55897	-0	-0.667
Mof_C 	C 	0.61707	0.66819	-0	0.222
Mof_H 	H 	0.5896	0.6756	-0	-0.03
Mof_C 	C 	0.64711	0.69787	-0	-0.321
Mof_H 	H 	0.6397	0.7253	-0	0.145
Mof_O 	O 	0.10847	0.05897	-0	-0.67
Mof_C 	C 	0.11707	0.16819	-0	0.224
Mof_H 	H 	0.0896	0.1756	-0	-0.034
Mof_C 	C 	0.14711	0.19787	-0	-0.322
Mof_H 	H 	0.1397	0.2253	-0	0.142
Mof_O 	O 	0.10847	0.55897	0.5	-0.646
Mof_C 	C 	0.11707	0.66819	0.5	0.207
Mof_H 	H 	0.0896	0.6756	0.5	-0.018
Mof_C 	C 	0.14711	0.69787	0.5	-0.289
Mof_H 	H 	0.1397	0.7253	0.5	0.144
Mof_O 	O 	0.39153	0.05897	0.5	-0.65
Mof_C 	C 	0.38293	0.16819	0.5	0.206
Mof_H 	H 	0.4104	0.1756	0.5	-0.015
Mof_C 	C 	0.35289	0.19787	0.5	-0.288
Mof_H 	H 	0.3603	0.2253	0.5	0.144
Mof_O 	O 	0.39153	0.55897	-0	-0.667
Mof_C 	C 	0.38293	0.66819	-0	0.222
Mof_H 	H 	0.4104	0.6756	-0	-0.03
Mof_C 	C 	0.35289	0.69787	-0	-0.32
Mof_H 	H 	0.3603	0.7253	-0	0.145
Mof_O 	O 	0.89153	0.05897	-0	-0.667
Mof_C 	C 	0.88293	0.16819	-0	0.217
Mof_H 	H 	0.9104	0.1756	-0	-0.016
Mof_C 	C 	0.85289	0.19787	-0	-0.313
Mof_H 	H 	0.8603	0.2253	-0	0.147
Mof_O 	O 	0.89153	0.55897	0.5	-0.643
Mof_C 	C 	0.88293	0.66819	0.5	0.2
Mof_H 	H 	0.9104	0.6756	0.5	-0
Mof_C 	C 	0.85289	0.69787	0.5	-0.28
Mof_H 	H 	0.8603	0.7253	0.5	0.148
Mof_O 	O 	0.94103	0.5	0.60847	-0.619
Mof_C 	C 	0.83181	0.5	0.61707	0.199
Mof_H 	H 	0.8244	0.5	0.5896	-0.012
Mof_C 	C 	0.80213	0.5	0.64711	-0.281
Mof_H 	H 	0.7747	0.5	0.6397	0.142
Mof_O 	O 	0.94103	1.44497e-33	0.10847	-0.639
Mof_C 	C 	0.83181	1.44497e-33	0.11707	0.217
Mof_H 	H 	0.8244	7.22487e-34	0.0896	-0.031
Mof_C 	C 	0.80213	0	0.14711	-0.314
Mof_H 	H 	0.7747	1.44497e-33	0.1397	0.14
Mof_O 	O 	0.44103	0.5	0.10847	-0.646
Mof_C 	C 	0.33181	0.5	0.11707	0.206
Mof_H 	H 	0.3244	0.5	0.0896	-0.019
Mof_C 	C 	0.30213	0.5	0.14711	-0.288
Mof_H 	H 	0.2747	0.5	0.1397	0.141
Mof_O 	O 	0.44103	5.77989e-33	0.60847	-0.667
Mof_C 	C 	0.33181	5.77989e-33	0.61707	0.222
Mof_H 	H 	0.3244	0	0.5896	-0.031
Mof_C 	C 	0.30213	5.77989e-33	0.64711	-0.32
Mof_H 	H 	0.2747	1.15598e-32	0.6397	0.143
Mof_O 	O 	0.94103	0.5	0.39153	-0.619
Mof_C 	C 	0.83181	0.5	0.38293	0.199
Mof_H 	H 	0.8244	0.5	0.4104	-0.012
Mof_C 	C 	0.80213	0.5	0.35289	-0.28
Mof_H 	H 	0.7747	0.5	0.3603	0.142
Mof_O 	O 	0.94103	0	0.89153	-0.636
Mof_C 	C 	0.83181	0	0.88293	0.21
Mof_H 	H 	0.8244	1.15598e-32	0.9104	-0.013
Mof_C 	C 	0.80213	0	0.85289	-0.305
Mof_H 	H 	0.7747	0	0.8603	0.144
Mof_O 	O 	0.44103	0.5	0.89153	-0.643
Mof_C 	C 	0.33181	0.5	0.88293	0.199
Mof_H 	H 	0.3244	0.5	0.9104	-0.001
Mof_C 	C 	0.30213	0.5	0.85289	-0.279
Mof_H 	H 	0.2747	0.5	0.8603	0.146
Mof_O 	O 	0.44103	2.88995e-33	0.39153	-0.667
Mof_C 	C 	0.33181	5.77989e-33	0.38293	0.221
Mof_H 	H 	0.3244	2.88995e-33	0.4104	-0.031
Mof_C 	C 	0.30213	5.77989e-33	0.35289	-0.319
Mof_H 	H 	0.2747	2.88995e-33	0.3603	0.143
Mof_O 	O 	0.05897	0.5	0.39153	-0.65
Mof_C 	C 	0.16819	0.5	0.38293	0.206
Mof_H 	H 	0.1756	0.5	0.4104	-0.015
Mof_C 	C 	0.19787	0.5	0.35289	-0.288
Mof_H 	H 	0.2253	0.5	0.3603	0.144
Mof_O 	O 	0.05897	0	0.89153	-0.667
Mof_C 	C 	0.16819	0	0.88293	0.217
Mof_H 	H 	0.1756	1.15598e-32	0.9104	-0.016
Mof_C 	C 	0.19787	0	0.85289	-0.313
Mof_H 	H 	0.2253	0	0.8603	0.147
Mof_O 	O 	0.55897	0.5	0.89153	-0.643
Mof_C 	C 	0.66819	0.5	0.88293	0.2
Mof_H 	H 	0.6756	0.5	0.9104	-0
Mof_C 	C 	0.69787	0.5	0.85289	-0.28
Mof_H 	H 	0.7253	0.5	0.8603	0.148
Mof_O 	O 	0.55897	2.88995e-33	0.39153	-0.667
Mof_C 	C 	0.66819	5.77989e-33	0.38293	0.222
Mof_H 	H 	0.6756	2.88995e-33	0.4104	-0.03
Mof_C 	C 	0.69787	5.77989e-33	0.35289	-0.32
Mof_H 	H 	0.7253	2.88995e-33	0.3603	0.145
Mof_O 	O 	0.05897	0.5	0.60847	-0.65
Mof_C 	C 	0.16819	0.5	0.61707	0.206
Mof_H 	H 	0.1756	0.5	0.5896	-0.015
Mof_C 	C 	0.19787	0.5	0.64711	-0.289
Mof_H 	H 	0.2253	0.5	0.6397	0.144
Mof_O 	O 	0.05897	1.44497e-33	0.10847	-0.67
Mof_C 	C 	0.16819	1.44497e-33	0.11707	0.224
Mof_H 	H 	0.1756	7.22487e-34	0.0896	-0.034
Mof_C 	C 	0.19787	0	0.14711	-0.322
Mof_H 	H 	0.2253	1.44497e-33	0.1397	0.142
Mof_O 	O 	0.55897	0.5	0.10847	-0.646
Mof_C 	C 	0.66819	0.5	0.11707	0.207
Mof_H 	H 	0.6756	0.5	0.0896	-0.018
Mof_C 	C 	0.69787	0.5	0.14711	-0.289
Mof_H 	H 	0.7253	0.5	0.1397	0.144
Mof_O 	O 	0.55897	5.77989e-33	0.60847	-0.667
Mof_C 	C 	0.66819	5.77989e-33	0.61707	0.222
Mof_H 	H 	0.6756	0	0.5896	-0.03
Mof_C 	C 	0.69787	5.77989e-33	0.64711	-0.321
Mof_H 	H 	0.7253	1.15598e-32	0.6397	0.145
Mof_O 	O 	0.46333	0.53667	0.96333	-1.224
Mof_O 	O 	0.53667	0.46333	0.96333	-1.224
Mof_O 	O 	0.53667	0.53667	0.03667	-1.264
Mof_O 	O 	0.46333	0.46333	0.03667	-1.264
Mof_O 	O 	0.96333	0.46333	0.53667	-1.224
Mof_O 	O 	0.96333	0.96333	0.03667	-1.208
Mof_O 	O 	0.96333	0.53667	0.46333	-1.224
Mof_O 	O 	0.96333	0.03667	0.96333	-1.208
Mof_O 	O 	0.03667	0.53667	0.53667	-1.264
Mof_O 	O 	0.03667	0.03667	0.03667	-1.288
Mof_O 	O 	0.03667	0.46333	0.46333	-1.264
Mof_O 	O 	0.03667	0.96333	0.96333	-1.208
Mof_O 	O 	0.53667	0.96333	0.46333	-1.224
Mof_O 	O 	0.46333	0.96333	0.53667	-1.224
Mof_O 	O 	0.53667	0.03667	0.53667	-1.264
Mof_O 	O 	0.46333	0.03667	0.46333	-1.264
Mof_O 	O 	0.53667	0.46333	0.03667	-1.264
Mof_O 	O 	0.46333	0.53667	0.03667	-1.264
Mof_O 	O 	0.53667	0.53667	0.96333	-1.224
Mof_O 	O 	0.46333	0.46333	0.96333	-1.224
Mof_O 	O 	0.46333	0.96333	0.46333	-1.224
Mof_O 	O 	0.53667	0.96333	0.53667	-1.224
Mof_O 	O 	0.53667	0.03667	0.46333	-1.264
Mof_O 	O 	0.46333	0.03667	0.53667	-1.264
Mof_O 	O 	0.96333	0.53667	0.53667	-1.224
Mof_O 	O 	0.96333	0.03667	0.03667	-1.247
Mof_O 	O 	0.96333	0.46333	0.46333	-1.224
Mof_O 	O 	0.96333	0.96333	0.96333	-1.169
Mof_O 	O 	0.03667	0.53667	0.46333	-1.264
Mof_O 	O 	0.03667	0.03667	0.96333	-1.247
Mof_O 	O 	0.03667	0.46333	0.53667	-1.264
Mof_O 	O 	0.03667	0.96333	0.03667	-1.247
Mof_C 	C 	0.40461	0.5	0.90461	0.548
Mof_C 	C 	0.37212	0.5	0.87212	-0.246
Mof_C 	C 	0.3126	0.5	0.8126	0.227
Mof_C 	C 	0.2796	0.5	0.7796	-0.206
Mof_C 	C 	0.40461	5.77989e-33	0.40461	0.557
Mof_C 	C 	0.37212	2.88995e-33	0.37212	-0.282
Mof_C 	C 	0.3126	2.88995e-33	0.3126	0.254
Mof_C 	C 	0.2796	2.88995e-33	0.2796	-0.287
Mof_C 	C 	0.59539	0.5	0.90461	0.548
Mof_C 	C 	0.62788	0.5	0.87212	-0.246
Mof_C 	C 	0.6874	0.5	0.8126	0.227
Mof_C 	C 	0.7204	0.5	0.7796	-0.206
Mof_C 	C 	0.59539	5.77989e-33	0.40461	0.557
Mof_C 	C 	0.62788	2.88995e-33	0.37212	-0.282
Mof_C 	C 	0.6874	2.88995e-33	0.3126	0.255
Mof_C 	C 	0.7204	2.88995e-33	0.2796	-0.287
Mof_C 	C 	0.59539	0.5	0.09539	0.554
Mof_C 	C 	0.62788	0.5	0.12788	-0.26
Mof_C 	C 	0.6874	0.5	0.1874	0.231
Mof_C 	C 	0.7204	0.5	0.2204	-0.207
Mof_C 	C 	0.59539	5.77989e-33	0.59539	0.557
Mof_C 	C 	0.62788	5.77989e-33	0.62788	-0.282
Mof_C 	C 	0.6874	5.77989e-33	0.6874	0.255
Mof_C 	C 	0.7204	0	0.7204	-0.286
Mof_C 	C 	0.40461	0.5	0.09539	0.554
Mof_C 	C 	0.37212	0.5	0.12788	-0.259
Mof_C 	C 	0.3126	0.5	0.1874	0.231
Mof_C 	C 	0.2796	0.5	0.2204	-0.207
Mof_C 	C 	0.40461	5.77989e-33	0.59539	0.557
Mof_C 	C 	0.37212	5.77989e-33	0.62788	-0.282
Mof_C 	C 	0.3126	5.77989e-33	0.6874	0.255
Mof_C 	C 	0.2796	0	0.7204	-0.287
Mof_C 	C 	0.90461	0.40461	0.5	0.548
Mof_C 	C 	0.87212	0.37212	0.5	-0.246
Mof_C 	C 	0.8126	0.3126	0.5	0.227
Mof_C 	C 	0.7796	0.2796	0.5	-0.206
Mof_C 	C 	0.90461	0.90461	-0	0.548
Mof_C 	C 	0.87212	0.87212	-0	-0.259
Mof_C 	C 	0.8126	0.8126	-0	0.247
Mof_C 	C 	0.7796	0.7796	-0	-0.284
Mof_C 	C 	0.90461	0.59539	0.5	0.548
Mof_C 	C 	0.87212	0.62788	0.5	-0.246
Mof_C 	C 	0.8126	0.6874	0.5	0.227
Mof_C 	C 	0.7796	0.7204	0.5	-0.206
Mof_C 	C 	0.90461	0.09539	-0	0.554
Mof_C 	C 	0.87212	0.12788	-0	-0.272
Mof_C 	C 	0.8126	0.1874	-0	0.251
Mof_C 	C 	0.7796	0.2204	-0	-0.286
Mof_C 	C 	0.09539	0.59539	0.5	0.554
Mof_C 	C 	0.12788	0.62788	0.5	-0.26
Mof_C 	C 	0.1874	0.6874	0.5	0.231
Mof_C 	C 	0.2204	0.7204	0.5	-0.207
Mof_C 	C 	0.09539	0.09539	-0	0.561
Mof_C 	C 	0.12788	0.12788	-0	-0.285
Mof_C 	C 	0.1874	0.1874	-0	0.256
Mof_C 	C 	0.2204	0.2204	-0	-0.288
Mof_C 	C 	0.09539	0.40461	0.5	0.554
Mof_C 	C 	0.12788	0.37212	0.5	-0.259
Mof_C 	C 	0.1874	0.3126	0.5	0.231
Mof_C 	C 	0.2204	0.2796	0.5	-0.207
Mof_C 	C 	0.09539	0.90461	-0	0.554
Mof_C 	C 	0.12788	0.87212	-0	-0.272
Mof_C 	C 	0.1874	0.8126	-0	0.251
Mof_C 	C 	0.2204	0.7796	-0	-0.286
Mof_C 	C 	0.5	0.90461	0.40461	0.548
Mof_C 	C 	0.5	0.87212	0.37212	-0.246
Mof_C 	C 	0.5	0.8126	0.3126	0.227
Mof_C 	C 	0.5	0.7796	0.2796	-0.206
Mof_C 	C 	3.39174e-33	0.90461	0.90461	0.548
Mof_C 	C 	3.26993e-33	0.87212	0.87212	-0.259
Mof_C 	C 	2.61663e-32	0.8126	0.8126	0.247
Mof_C 	C 	2.60426e-32	0.7796	0.7796	-0.284
Mof_C 	C 	0.5	0.90461	0.59539	0.548
Mof_C 	C 	0.5	0.87212	0.62788	-0.246
Mof_C 	C 	0.5	0.8126	0.6874	0.227
Mof_C 	C 	0.5	0.7796	0.7204	-0.206
Mof_C 	C 	4.69258e-33	0.90461	0.09539	0.554
Mof_C 	C 	7.70434e-33	0.87212	0.12788	-0.272
Mof_C 	C 	1.37074e-32	0.8126	0.1874	0.251
Mof_C 	C 	1.23862e-32	0.7796	0.2204	-0.286
Mof_C 	C 	0.5	0.09539	0.59539	0.554
Mof_C 	C 	0.5	0.12788	0.62788	-0.26
Mof_C 	C 	0.5	0.1874	0.6874	0.231
Mof_C 	C 	0.5	0.2204	0.7204	-0.207
Mof_C 	C 	1.80263e-33	0.09539	0.09539	0.561
Mof_C 	C 	3.36942e-33	0.12788	0.12788	-0.285
Mof_C 	C 	3.59258e-33	0.1874	0.1874	0.256
Mof_C 	C 	6.60626e-33	0.2204	0.2204	-0.288
Mof_C 	C 	0.5	0.09539	0.40461	0.554
Mof_C 	C 	0.5	0.12788	0.37212	-0.259
Mof_C 	C 	0.5	0.1874	0.3126	0.231
Mof_C 	C 	0.5	0.2204	0.2796	-0.207
Mof_C 	C 	3.39174e-33	0.09539	0.90461	0.554
Mof_C 	C 	3.26993e-33	0.12788	0.87212	-0.272
Mof_C 	C 	1.46066e-32	0.1874	0.8126	0.251
Mof_C 	C 	8.70293e-33	0.2204	0.7796	-0.286
Mof_C 	C 	0.5	0.40461	0.09539	0.554
Mof_C 	C 	0.5	0.37212	0.12788	-0.259
Mof_C 	C 	0.5	0.3126	0.1874	0.231
Mof_C 	C 	0.5	0.2796	0.2204	-0.207
Mof_C 	C 	8.01225e-33	0.40461	0.59539	0.557
Mof_C 	C 	8.13407e-33	0.37212	0.62788	-0.282
Mof_C 	C 	8.35723e-33	0.3126	0.6874	0.255
Mof_C 	C 	2.70107e-33	0.2796	0.7204	-0.287
Mof_C 	C 	0.5	0.59539	0.09539	0.554
Mof_C 	C 	0.5	0.62788	0.12788	-0.26
Mof_C 	C 	0.5	0.6874	0.1874	0.231
Mof_C 	C 	0.5	0.7204	0.2204	-0.207
Mof_C 	C 	1.37921e-32	0.59539	0.59539	0.557
Mof_C 	C 	1.3914e-32	0.62788	0.62788	-0.282
Mof_C 	C 	1.41371e-32	0.6874	0.6874	0.255
Mof_C 	C 	2.70107e-33	0.7204	0.7204	-0.286
Mof_C 	C 	0.5	0.59539	0.90461	0.548
Mof_C 	C 	0.5	0.62788	0.87212	-0.246
Mof_C 	C 	0.5	0.6874	0.8126	0.227
Mof_C 	C 	0.5	0.7204	0.7796	-0.206
Mof_C 	C 	1.30768e-32	0.59539	0.40461	0.557
Mof_C 	C 	1.00651e-32	0.62788	0.37212	-0.282
Mof_C 	C 	9.8419e-33	0.6874	0.3126	0.255
Mof_C 	C 	6.82823e-33	0.7204	0.2796	-0.287
Mof_C 	C 	0.5	0.40461	0.90461	0.548
Mof_C 	C 	0.5	0.37212	0.87212	-0.246
Mof_C 	C 	0.5	0.3126	0.8126	0.227
Mof_C 	C 	0.5	0.2796	0.7796	-0.206
Mof_C 	C 	1.30768e-32	0.40461	0.40461	0.557
Mof_C 	C 	7.17512e-33	0.37212	0.37212	-0.282
Mof_C 	C 	6.95196e-33	0.3126	0.3126	0.254
Mof_C 	C 	6.82823e-33	0.2796	0.2796	-0.287
Mof_C 	C 	0.40461	0.90461	0.5	0.548
Mof_C 	C 	0.37212	0.87212	0.5	-0.246
Mof_C 	C 	0.3126	0.8126	0.5	0.227
Mof_C 	C 	0.2796	0.7796	0.5	-0.206
Mof_C 	C 	0.40461	0.40461	-0	0.557
Mof_C 	C 	0.37212	0.37212	-0	-0.282
Mof_C 	C 	0.3126	0.3126	-0	0.254
Mof_C 	C 	0.2796	0.2796	-0	-0.287
Mof_C 	C 	0.59539	0.90461	0.5	0.548
Mof_C 	C 	0.62788	0.87212	0.5	-0.246
Mof_C 	C 	0.6874	0.8126	0.5	0.227
Mof_C 	C 	0.7204	0.7796	0.5	-0.206
Mof_C 	C 	0.59539	0.40461	-0	0.557
Mof_C 	C 	0.62788	0.37212	-0	-0.282
Mof_C 	C 	0.6874	0.3126	-0	0.255
Mof_C 	C 	0.7204	0.2796	-0	-0.287
Mof_C 	C 	0.59539	0.09539	0.5	0.554
Mof_C 	C 	0.62788	0.12788	0.5	-0.26
Mof_C 	C 	0.6874	0.1874	0.5	0.231
Mof_C 	C 	0.7204	0.2204	0.5	-0.207
Mof_C 	C 	0.59539	0.59539	-0	0.557
Mof_C 	C 	0.62788	0.62788	-0	-0.282
Mof_C 	C 	0.6874	0.6874	-0	0.255
Mof_C 	C 	0.7204	0.7204	-0	-0.286
Mof_C 	C 	0.40461	0.09539	0.5	0.554
Mof_C 	C 	0.37212	0.12788	0.5	-0.259
Mof_C 	C 	0.3126	0.1874	0.5	0.231
Mof_C 	C 	0.2796	0.2204	0.5	-0.207
Mof_C 	C 	0.40461	0.59539	-0	0.557
Mof_C 	C 	0.37212	0.62788	-0	-0.282
Mof_C 	C 	0.3126	0.6874	-0	0.255
Mof_C 	C 	0.2796	0.7204	-0	-0.287
Mof_C 	C 	0.90461	0.5	0.59539	0.548
Mof_C 	C 	0.87212	0.5	0.62788	-0.246
Mof_C 	C 	0.8126	0.5	0.6874	0.227
Mof_C 	C 	0.7796	0.5	0.7204	-0.206
Mof_C 	C 	0.90461	7.22487e-34	0.09539	0.554
Mof_C 	C 	0.87212	1.44497e-33	0.12788	-0.272
Mof_C 	C 	0.8126	1.44497e-33	0.1874	0.251
Mof_C 	C 	0.7796	2.88995e-33	0.2204	-0.286
Mof_C 	C 	0.90461	0.5	0.40461	0.548
Mof_C 	C 	0.87212	0.5	0.37212	-0.246
Mof_C 	C 	0.8126	0.5	0.3126	0.227
Mof_C 	C 	0.7796	0.5	0.2796	-0.206
Mof_C 	C 	0.90461	0	0.90461	0.548
Mof_C 	C 	0.87212	0	0.87212	-0.259
Mof_C 	C 	0.8126	1.15598e-32	0.8126	0.247
Mof_C 	C 	0.7796	1.15598e-32	0.7796	-0.284
Mof_C 	C 	0.09539	0.5	0.40461	0.554
Mof_C 	C 	0.12788	0.5	0.37212	-0.259
Mof_C 	C 	0.1874	0.5	0.3126	0.231
Mof_C 	C 	0.2204	0.5	0.2796	-0.207
Mof_C 	C 	0.09539	0	0.90461	0.554
Mof_C 	C 	0.12788	0	0.87212	-0.272
Mof_C 	C 	0.1874	1.15598e-32	0.8126	0.251
Mof_C 	C 	0.2204	1.15598e-32	0.7796	-0.286
Mof_C 	C 	0.09539	0.5	0.59539	0.554
Mof_C 	C 	0.12788	0.5	0.62788	-0.26
Mof_C 	C 	0.1874	0.5	0.6874	0.231
Mof_C 	C 	0.2204	0.5	0.7204	-0.207
Mof_C 	C 	0.09539	7.22487e-34	0.09539	0.561
Mof_C 	C 	0.12788	1.44497e-33	0.12788	-0.285
Mof_C 	C 	0.1874	1.44497e-33	0.1874	0.256
Mof_C 	C 	0.2204	2.88995e-33	0.2204	-0.288
Mof_C 	C 	0.2648	0.53535	0.7648	0.162
Mof_C 	C 	0.2784	0.57857	0.7784	-0.674
Mof_C 	C 	0.2648	0.03535	0.2648	0.175
Mof_C 	C 	0.2784	0.07857	0.2784	-0.686
Mof_C 	C 	0.7648	0.03535	0.7648	0.178
Mof_C 	C 	0.7784	0.07857	0.7784	-0.693
Mof_C 	C 	0.7352	0.46465	0.7648	0.163
Mof_C 	C 	0.7216	0.42143	0.7784	-0.674
Mof_C 	C 	0.7352	0.96465	0.2648	0.232
Mof_C 	C 	0.7216	0.92143	0.2784	-0.738
Mof_C 	C 	0.7352	0.53535	0.2352	0.161
Mof_C 	C 	0.7216	0.57857	0.2216	-0.67
Mof_C 	C 	0.7352	0.03535	0.7352	0.176
Mof_C 	C 	0.7216	0.07857	0.7216	-0.686
Mof_C 	C 	0.2648	0.46465	0.2352	0.161
Mof_C 	C 	0.2784	0.42143	0.2216	-0.67
Mof_C 	C 	0.2648	0.96465	0.7352	0.232
Mof_C 	C 	0.2784	0.92143	0.7216	-0.738
Mof_C 	C 	0.7648	0.46465	0.7352	0.163
Mof_C 	C 	0.7784	0.42143	0.7216	-0.674
Mof_C 	C 	0.7648	0.2648	0.53535	0.162
Mof_C 	C 	0.7784	0.2784	0.57857	-0.674
Mof_C 	C 	0.7648	0.7648	0.03535	0.178
Mof_C 	C 	0.7784	0.7784	0.07857	-0.693
Mof_C 	C 	0.7648	0.7352	0.46465	0.163
Mof_C 	C 	0.7784	0.7216	0.42143	-0.674
Mof_C 	C 	0.7648	0.2352	0.96465	0.233
Mof_C 	C 	0.7784	0.2216	0.92143	-0.741
Mof_C 	C 	0.2352	0.7352	0.53535	0.161
Mof_C 	C 	0.2216	0.7216	0.57857	-0.67
Mof_C 	C 	0.2352	0.2352	0.03535	0.175
Mof_C 	C 	0.2216	0.2216	0.07857	-0.685
Mof_C 	C 	0.7352	0.7352	0.03535	0.176
Mof_C 	C 	0.7216	0.7216	0.07857	-0.686
Mof_C 	C 	0.2352	0.2648	0.46465	0.161
Mof_C 	C 	0.2216	0.2784	0.42143	-0.67
Mof_C 	C 	0.2352	0.7648	0.96465	0.233
Mof_C 	C 	0.2216	0.7784	0.92143	-0.741
Mof_C 	C 	0.7352	0.7648	0.46465	0.163
Mof_C 	C 	0.7216	0.7784	0.42143	-0.674
Mof_C 	C 	0.53535	0.7648	0.2648	0.162
Mof_C 	C 	0.57857	0.7784	0.2784	-0.674
Mof_C 	C 	0.03535	0.7648	0.7648	0.178
Mof_C 	C 	0.07857	0.7784	0.7784	-0.693
Mof_C 	C 	0.46465	0.7648	0.7352	0.163
Mof_C 	C 	0.42143	0.7784	0.7216	-0.674
Mof_C 	C 	0.96465	0.7648	0.2352	0.233
Mof_C 	C 	0.92143	0.7784	0.2216	-0.741
Mof_C 	C 	0.53535	0.2352	0.7352	0.161
Mof_C 	C 	0.57857	0.2216	0.7216	-0.67
Mof_C 	C 	0.03535	0.2352	0.2352	0.175
Mof_C 	C 	0.07857	0.2216	0.2216	-0.685
Mof_C 	C 	0.03535	0.7352	0.7352	0.176
Mof_C 	C 	0.07857	0.7216	0.7216	-0.686
Mof_C 	C 	0.46465	0.2352	0.2648	0.161
Mof_C 	C 	0.42143	0.2216	0.2784	-0.67
Mof_C 	C 	0.46465	0.7352	0.7648	0.163
Mof_C 	C 	0.42143	0.7216	0.7784	-0.674
Mof_C 	C 	0.96465	0.2352	0.7648	0.233
Mof_C 	C 	0.92143	0.2216	0.7784	-0.741
Mof_C 	C 	0.53535	0.2648	0.2352	0.161
Mof_C 	C 	0.57857	0.2784	0.2216	-0.67
Mof_C 	C 	0.53535	0.7648	0.7352	0.163
Mof_C 	C 	0.57857	0.7784	0.7216	-0.674
Mof_C 	C 	0.03535	0.2648	0.7352	0.175
Mof_C 	C 	0.07857	0.2784	0.7216	-0.686
Mof_C 	C 	0.46465	0.7352	0.2352	0.161
Mof_C 	C 	0.42143	0.7216	0.2216	-0.67
Mof_C 	C 	0.96465	0.7352	0.7352	0.232
Mof_C 	C 	0.92143	0.7216	0.7216	-0.738
Mof_C 	C 	0.53535	0.7352	0.7648	0.163
Mof_C 	C 	0.57857	0.7216	0.7784	-0.674
Mof_C 	C 	0.03535	0.7352	0.2648	0.175
Mof_C 	C 	0.07857	0.7216	0.2784	-0.686
Mof_C 	C 	0.46465	0.2648	0.7648	0.162
Mof_C 	C 	0.42143	0.2784	0.7784	-0.674
Mof_C 	C 	0.96465	0.2648	0.2648	0.232
Mof_C 	C 	0.92143	0.2784	0.2784	-0.738
Mof_C 	C 	0.96465	0.7648	0.7648	0.234
Mof_C 	C 	0.92143	0.7784	0.7784	-0.744
Mof_C 	C 	0.2648	0.7648	0.46465	0.162
Mof_C 	C 	0.2784	0.7784	0.42143	-0.674
Mof_C 	C 	0.2648	0.2648	0.96465	0.232
Mof_C 	C 	0.2784	0.2784	0.92143	-0.738
Mof_C 	C 	0.7648	0.7648	0.96465	0.234
Mof_C 	C 	0.7784	0.7784	0.92143	-0.744
Mof_C 	C 	0.7352	0.7648	0.53535	0.163
Mof_C 	C 	0.7216	0.7784	0.57857	-0.674
Mof_C 	C 	0.7352	0.2648	0.03535	0.175
Mof_C 	C 	0.7216	0.2784	0.07857	-0.686
Mof_C 	C 	0.7352	0.2352	0.46465	0.161
Mof_C 	C 	0.7216	0.2216	0.42143	-0.67
Mof_C 	C 	0.7352	0.7352	0.96465	0.232
Mof_C 	C 	0.7216	0.7216	0.92143	-0.738
Mof_C 	C 	0.2648	0.2352	0.53535	0.161
Mof_C 	C 	0.2784	0.2216	0.57857	-0.67
Mof_C 	C 	0.2648	0.7352	0.03535	0.175
Mof_C 	C 	0.2784	0.7216	0.07857	-0.686
Mof_C 	C 	0.7648	0.7352	0.53535	0.163
Mof_C 	C 	0.7784	0.7216	0.57857	-0.674
Mof_C 	C 	0.7648	0.53535	0.7352	0.163
Mof_C 	C 	0.7784	0.57857	0.7216	-0.674
Mof_C 	C 	0.7648	0.03535	0.2352	0.176
Mof_C 	C 	0.7784	0.07857	0.2216	-0.689
Mof_C 	C 	0.7648	0.46465	0.2648	0.162
Mof_C 	C 	0.7784	0.42143	0.2784	-0.674
Mof_C 	C 	0.7648	0.96465	0.7648	0.234
Mof_C 	C 	0.7784	0.92143	0.7784	-0.744
Mof_C 	C 	0.2352	0.53535	0.2648	0.161
Mof_C 	C 	0.2216	0.57857	0.2784	-0.67
Mof_C 	C 	0.2352	0.03535	0.7648	0.176
Mof_C 	C 	0.2216	0.07857	0.7784	-0.689
Mof_C 	C 	0.7352	0.53535	0.7648	0.163
Mof_C 	C 	0.7216	0.57857	0.7784	-0.674
Mof_C 	C 	0.2352	0.46465	0.7352	0.161
Mof_C 	C 	0.2216	0.42143	0.7216	-0.67
Mof_C 	C 	0.2352	0.96465	0.2352	0.232
Mof_C 	C 	0.2216	0.92143	0.2216	-0.737
Mof_C 	C 	0.7352	0.96465	0.7352	0.232
Mof_C 	C 	0.7216	0.92143	0.7216	-0.738
Mof_C 	C 	0.7352	0.46465	0.2352	0.161
Mof_C 	C 	0.7216	0.42143	0.2216	-0.67
Mof_C 	C 	0.2648	0.53535	0.2352	0.161
Mof_C 	C 	0.2784	0.57857	0.2216	-0.67
Mof_C 	C 	0.2648	0.03535	0.7352	0.175
Mof_C 	C 	0.2784	0.07857	0.7216	-0.686
Mof_C 	C 	0.2648	0.46465	0.7648	0.162
Mof_C 	C 	0.2784	0.42143	0.7784	-0.674
Mof_C 	C 	0.2648	0.96465	0.2648	0.232
Mof_C 	C 	0.2784	0.92143	0.2784	-0.738
Mof_C 	C 	0.7352	0.03535	0.2648	0.175
Mof_C 	C 	0.7216	0.07857	0.2784	-0.686
Mof_C 	C 	0.2352	0.7352	0.46465	0.161
Mof_C 	C 	0.2216	0.7216	0.42143	-0.67
Mof_C 	C 	0.2352	0.2352	0.96465	0.232
Mof_C 	C 	0.2216	0.2216	0.92143	-0.737
Mof_C 	C 	0.2352	0.2648	0.53535	0.161
Mof_C 	C 	0.2216	0.2784	0.57857	-0.67
Mof_C 	C 	0.2352	0.7648	0.03535	0.176
Mof_C 	C 	0.2216	0.7784	0.07857	-0.689
Mof_C 	C 	0.7648	0.2648	0.46465	0.162
Mof_C 	C 	0.7784	0.2784	0.42143	-0.674
Mof_C 	C 	0.7648	0.2352	0.03535	0.176
Mof_C 	C 	0.7784	0.2216	0.07857	-0.689
Mof_C 	C 	0.46465	0.2352	0.7352	0.161
Mof_C 	C 	0.42143	0.2216	0.7216	-0.67
Mof_C 	C 	0.96465	0.2352	0.2352	0.232
Mof_C 	C 	0.92143	0.2216	0.2216	-0.737
Mof_C 	C 	0.53535	0.2352	0.2648	0.161
Mof_C 	C 	0.57857	0.2216	0.2784	-0.67
Mof_C 	C 	0.03535	0.2352	0.7648	0.176
Mof_C 	C 	0.07857	0.2216	0.7784	-0.689
Mof_C 	C 	0.46465	0.7648	0.2648	0.162
Mof_C 	C 	0.42143	0.7784	0.2784	-0.674
Mof_C 	C 	0.03535	0.7648	0.2352	0.176
Mof_C 	C 	0.07857	0.7784	0.2216	-0.689
Mof_C 	C 	0.96465	0.7352	0.2648	0.232
Mof_C 	C 	0.92143	0.7216	0.2784	-0.738
Mof_C 	C 	0.53535	0.2648	0.7648	0.162
Mof_C 	C 	0.57857	0.2784	0.7784	-0.674
Mof_C 	C 	0.03535	0.2648	0.2648	0.175
Mof_C 	C 	0.07857	0.2784	0.2784	-0.686
Mof_C 	C 	0.46465	0.2648	0.2352	0.161
Mof_C 	C 	0.42143	0.2784	0.2216	-0.67
Mof_C 	C 	0.96465	0.2648	0.7352	0.232
Mof_C 	C 	0.92143	0.2784	0.7216	-0.738
Mof_C 	C 	0.53535	0.7352	0.2352	0.161
Mof_C 	C 	0.57857	0.7216	0.2216	-0.67
Mof_C 	C 	0.7352	0.2352	0.53535	0.161
Mof_C 	C 	0.7216	0.2216	0.57857	-0.67
Mof_C 	C 	0.2648	0.2352	0.46465	0.161
Mof_C 	C 	0.2784	0.2216	0.42143	-0.67
Mof_C 	C 	0.2648	0.7352	0.96465	0.232
Mof_C 	C 	0.2784	0.7216	0.92143	-0.738
Mof_C 	C 	0.2648	0.7648	0.53535	0.162
Mof_C 	C 	0.2784	0.7784	0.57857	-0.674
Mof_C 	C 	0.2648	0.2648	0.03535	0.175
Mof_C 	C 	0.2784	0.2784	0.07857	-0.686
Mof_C 	C 	0.7352	0.2648	0.96465	0.232
Mof_C 	C 	0.7216	0.2784	0.92143	-0.738
Mof_C 	C 	0.2352	0.46465	0.2648	0.161
Mof_C 	C 	0.2216	0.42143	0.2784	-0.67
Mof_C 	C 	0.2352	0.96465	0.7648	0.233
Mof_C 	C 	0.2216	0.92143	0.7784	-0.741
Mof_C 	C 	0.2352	0.53535	0.7352	0.161
Mof_C 	C 	0.2216	0.57857	0.7216	-0.67
Mof_C 	C 	0.2352	0.03535	0.2352	0.175
Mof_C 	C 	0.2216	0.07857	0.2216	-0.685
Mof_C 	C 	0.7648	0.96465	0.2352	0.233
Mof_C 	C 	0.7784	0.92143	0.2216	-0.741
Mof_C 	C 	0.7648	0.53535	0.2648	0.162
Mof_C 	C 	0.7784	0.57857	0.2784	-0.674
_end
