data_functionalizedCrystal
_audit_creation_method	'EQeq! by Chris Wilmer'
_symmetry_space_group_name_H-M	'P1'
_symmetry_Int_Tables_number	1
_symmetry_cell_setting	triclinic
loop_
_symmetry_equiv_pos_as_xyz
  x,y,z
_cell_length_a	15.2095
_cell_length_b	15.3049
_cell_length_c	15.3698
_cell_angle_alpha	106.485
_cell_angle_beta	117.143
_cell_angle_gamma	103.236
loop_
_atom_site_label
_atom_site_type_symbol
_atom_site_fract_x
_atom_site_fract_y
_atom_site_fract_z
_atom_site_charge
Mof_Ce	Ce	0.94314	0.80242	0.63389	2.813
Mof_Ce	Ce	0.67948	0.81725	0.38487	2.852
Mof_Ce	Ce	0.91537	0.1457	0.56272	2.697
Mof_Ce	Ce	0.05686	0.19758	0.36611	2.814
Mof_Ce	Ce	0.32052	0.18275	0.61513	2.853
Mof_Ce	Ce	0.08463	0.8543	0.43728	2.697
Mof_P 	P 	0.87425	0.98235	0.6899	0.544
Mof_P 	P 	0.80358	0.69495	0.3261	0.541
Mof_P 	P 	0.11717	0.02455	0.6427	0.579
Mof_P 	P 	0.12575	0.01765	0.3101	0.544
Mof_P 	P 	0.19642	0.30505	0.6739	0.541
Mof_P 	P 	0.88283	0.97545	0.3573	0.579
Mof_H 	H 	0.2948	0.5254	0.1769	0.265
Mof_H 	H 	0.6633	0.9445	0.609	0.107
Mof_H 	H 	0.8411	0.5621	0.4036	0.112
Mof_H 	H 	0.2542	0.2137	0.8196	0.127
Mof_H 	H 	0.828	0.0097	0.8163	0.091
Mof_H 	H 	0.7787	0.8943	0.7423	0.092
Mof_H 	H 	0.5951	0.8166	0.6365	0.056
Mof_H 	H 	0.6113	0.8946	0.7404	0.051
Mof_H 	H 	0.4294	0.8271	0.5975	0.033
Mof_H 	H 	0.4619	0.855	0.5224	0.041
Mof_H 	H 	0.4925	0.9925	0.7109	0.086
Mof_H 	H 	0.5765	0.1262	0.6941	0.02
Mof_H 	H 	0.5587	0.0549	0.5858	0.037
Mof_H 	H 	0.7032	0.0798	0.7966	0.053
Mof_H 	H 	0.736	0.1083	0.7221	0.04
Mof_H 	H 	0.7001	0.5268	0.1968	0.103
Mof_H 	H 	0.6606	0.5516	0.2751	0.104
Mof_H 	H 	0.7862	0.421	0.2112	0.058
Mof_H 	H 	0.8889	0.5241	0.2844	0.047
Mof_H 	H 	0.9715	0.4758	0.4161	0.034
Mof_H 	H 	0.9313	0.3891	0.3044	0.021
Mof_H 	H 	0.7863	0.2924	0.2951	0.091
Mof_H 	H 	0.8368	0.4418	0.4872	0.035
Mof_H 	H 	0.7352	0.3378	0.412	0.027
Mof_H 	H 	0.6887	0.4695	0.3834	0.065
Mof_H 	H 	0.6585	0.3855	0.2747	0.055
Mof_H 	H 	0.2752	0.0597	0.8046	0.087
Mof_H 	H 	0.1764	0.0337	0.8157	0.081
Mof_H 	H 	0.0947	0.1665	0.8135	0.015
Mof_H 	H 	0.1632	0.1705	0.9291	0.04
Mof_H 	H 	0.1944	0.3372	0.8842	0.054
Mof_H 	H 	0.1448	0.3203	0.9512	0.048
Mof_H 	H 	0.3093	0.3415	0.0926	0.07
Mof_H 	H 	0.4068	0.3697	0.9778	0.077
Mof_H 	H 	0.464	0.3671	0.0911	0.056
Mof_H 	H 	0.3521	0.1965	0.0094	0.039
Mof_H 	H 	0.4088	0.2123	0.9481	0.043
Mof_H 	H 	0.2791	0.6774	0.0575	0.067
Mof_H 	H 	0.1352	0.6875	0.9212	0.042
Mof_H 	H 	0.3413	0.9197	0.9447	0.041
Mof_H 	H 	0.4863	0.9169	0.0867	0.047
Mof_H 	H 	0.5039	0.5321	0.6656	0.044
Mof_H 	H 	0.6312	0.657	0.6773	0.045
Mof_H 	H 	0.7327	0.4595	0.5643	0.041
Mof_H 	H 	0.6013	0.3315	0.5483	0.04
Mof_H 	H 	0.7052	0.4746	0.8231	0.265
Mof_H 	H 	0.3367	0.0555	0.391	0.107
Mof_H 	H 	0.1589	0.4379	0.5964	0.112
Mof_H 	H 	0.7458	0.7863	0.1804	0.127
Mof_H 	H 	0.172	0.9903	0.1837	0.091
Mof_H 	H 	0.2213	0.1057	0.2577	0.092
Mof_H 	H 	0.4049	0.1834	0.3635	0.056
Mof_H 	H 	0.3887	0.1054	0.2596	0.051
Mof_H 	H 	0.5706	0.1729	0.4025	0.033
Mof_H 	H 	0.5381	0.145	0.4776	0.041
Mof_H 	H 	0.5075	0.0075	0.2891	0.086
Mof_H 	H 	0.4235	0.8738	0.3059	0.02
Mof_H 	H 	0.4413	0.9451	0.4142	0.037
Mof_H 	H 	0.2968	0.9202	0.2034	0.053
Mof_H 	H 	0.264	0.8917	0.2779	0.04
Mof_H 	H 	0.2999	0.4732	0.8032	0.103
Mof_H 	H 	0.3394	0.4484	0.7249	0.104
Mof_H 	H 	0.2138	0.579	0.7888	0.058
Mof_H 	H 	0.1111	0.4759	0.7156	0.047
Mof_H 	H 	0.0285	0.5242	0.5839	0.034
Mof_H 	H 	0.0687	0.6109	0.6956	0.021
Mof_H 	H 	0.2137	0.7076	0.7049	0.091
Mof_H 	H 	0.1632	0.5582	0.5128	0.035
Mof_H 	H 	0.2648	0.6622	0.588	0.027
Mof_H 	H 	0.3113	0.5305	0.6166	0.065
Mof_H 	H 	0.3415	0.6145	0.7253	0.055
Mof_H 	H 	0.7248	0.9403	0.1954	0.087
Mof_H 	H 	0.8236	0.9663	0.1843	0.081
Mof_H 	H 	0.9053	0.8335	0.1865	0.015
Mof_H 	H 	0.8368	0.8295	0.0709	0.04
Mof_H 	H 	0.8056	0.6628	0.1158	0.054
Mof_H 	H 	0.8552	0.6797	0.0488	0.048
Mof_H 	H 	0.6907	0.6585	0.9074	0.07
Mof_H 	H 	0.5932	0.6303	0.0222	0.077
Mof_H 	H 	0.536	0.6329	0.9089	0.056
Mof_H 	H 	0.6479	0.8035	0.9906	0.039
Mof_H 	H 	0.5912	0.7877	0.0519	0.043
Mof_H 	H 	0.7209	0.3226	0.9425	0.067
Mof_H 	H 	0.8648	0.3125	0.0788	0.042
Mof_H 	H 	0.6587	0.0803	0.0553	0.041
Mof_H 	H 	0.5137	0.0831	0.9133	0.047
Mof_H 	H 	0.4961	0.4679	0.3344	0.044
Mof_H 	H 	0.3688	0.343	0.3227	0.045
Mof_H 	H 	0.2673	0.5405	0.4357	0.041
Mof_H 	H 	0.3987	0.6685	0.4517	0.04
Mof_C 	C 	0.7894	0.9589	0.7414	-0.217
Mof_C 	C 	0.595	0.8813	0.6679	-0.069
Mof_C 	C 	0.4822	0.8764	0.5972	-0.025
Mof_C 	C 	0.4798	0.9776	0.6388	-0.196
Mof_C 	C 	0.5734	0.0618	0.6564	-0.016
Mof_C 	C 	0.6818	0.0598	0.7216	-0.072
Mof_C 	C 	0.3675	0.9753	0.5668	0.482
Mof_C 	C 	0.7246	0.5608	0.2727	-0.22
Mof_C 	C 	0.8415	0.471	0.2861	-0.079
Mof_C 	C 	0.9072	0.4236	0.3465	-0.004
Mof_C 	C 	0.843	0.349	0.367	-0.214
Mof_C 	C 	0.784	0.3911	0.412	-0.008
Mof_C 	C 	0.7187	0.4377	0.3468	-0.085
Mof_C 	C 	0.9099	0.3054	0.4346	0.49
Mof_C 	C 	0.2114	0.072	0.791	-0.209
Mof_C 	C 	0.1662	0.1992	0.8813	-0.015
Mof_C 	C 	0.197	0.3098	0.9346	-0.085
Mof_C 	C 	0.3117	0.365	0.0403	-0.131
Mof_C 	C 	0.3951	0.3393	0.0213	-0.089
Mof_C 	C 	0.3567	0.2263	0.9629	-0.035
Mof_C 	C 	0.3373	0.4796	0.0883	0.421
Mof_C 	C 	0.4923	0.7924	0.1779	0.331
Mof_C 	C 	0.3974	0.7955	0.0865	-0.055
Mof_C 	C 	0.2924	0.7275	0.0364	-0.051
Mof_C 	C 	0.2061	0.7335	0.9543	-0.015
Mof_C 	C 	0.2244	0.8054	0.9224	-0.067
Mof_C 	C 	0.329	0.8723	0.9694	-0.021
Mof_C 	C 	0.4159	0.8696	0.0529	-0.044
Mof_C 	C 	0.1289	0.81	0.8306	0.306
Mof_C 	C 	0.4581	0.3366	0.5985	0.334
Mof_C 	C 	0.5401	0.4192	0.6081	-0.074
Mof_C 	C 	0.5495	0.5172	0.645	-0.021
Mof_C 	C 	0.6252	0.5917	0.6513	-0.031
Mof_C 	C 	0.6947	0.5713	0.6188	-0.062
Mof_C 	C 	0.6858	0.4739	0.5832	-0.029
Mof_C 	C 	0.6081	0.397	0.5752	-0.031
Mof_C 	C 	0.7747	0.6507	0.6225	0.32
Mof_C 	C 	0.2106	0.0411	0.2586	-0.217
Mof_C 	C 	0.405	0.1187	0.3321	-0.069
Mof_C 	C 	0.5178	0.1236	0.4028	-0.025
Mof_C 	C 	0.5202	0.0224	0.3612	-0.196
Mof_C 	C 	0.4266	0.9382	0.3436	-0.016
Mof_C 	C 	0.3182	0.9402	0.2784	-0.072
Mof_C 	C 	0.6325	0.0247	0.4332	0.482
Mof_C 	C 	0.2754	0.4392	0.7273	-0.22
Mof_C 	C 	0.1585	0.529	0.7139	-0.079
Mof_C 	C 	0.0928	0.5764	0.6535	-0.004
Mof_C 	C 	0.157	0.651	0.633	-0.214
Mof_C 	C 	0.216	0.6089	0.588	-0.008
Mof_C 	C 	0.2813	0.5623	0.6532	-0.085
Mof_C 	C 	0.0901	0.6946	0.5654	0.49
Mof_C 	C 	0.7886	0.928	0.209	-0.209
Mof_C 	C 	0.8338	0.8008	0.1187	-0.015
Mof_C 	C 	0.803	0.6902	0.0654	-0.085
Mof_C 	C 	0.6883	0.635	0.9597	-0.131
Mof_C 	C 	0.6049	0.6607	0.9787	-0.089
Mof_C 	C 	0.6433	0.7737	0.0371	-0.035
Mof_C 	C 	0.6627	0.5204	0.9117	0.421
Mof_C 	C 	0.5077	0.2076	0.8221	0.331
Mof_C 	C 	0.6026	0.2045	0.9135	-0.055
Mof_C 	C 	0.7076	0.2725	0.9636	-0.051
Mof_C 	C 	0.7939	0.2665	0.0457	-0.015
Mof_C 	C 	0.7756	0.1946	0.0776	-0.067
Mof_C 	C 	0.671	0.1277	0.0306	-0.021
Mof_C 	C 	0.5841	0.1304	0.9471	-0.044
Mof_C 	C 	0.8711	0.19	0.1694	0.306
Mof_C 	C 	0.5419	0.6634	0.4015	0.334
Mof_C 	C 	0.4599	0.5808	0.3919	-0.074
Mof_C 	C 	0.4505	0.4828	0.355	-0.021
Mof_C 	C 	0.3748	0.4083	0.3487	-0.031
Mof_C 	C 	0.3053	0.4287	0.3812	-0.062
Mof_C 	C 	0.3142	0.5261	0.4168	-0.029
Mof_C 	C 	0.3919	0.603	0.4248	-0.031
Mof_C 	C 	0.2253	0.3493	0.3775	0.32
Mof_N 	N 	0.68	0.959	0.6771	-0.129
Mof_N 	N 	0.7882	0.5135	0.3356	-0.126
Mof_N 	N 	0.248	0.1813	0.8582	-0.152
Mof_N 	N 	0.32	0.041	0.3229	-0.129
Mof_N 	N 	0.2118	0.4865	0.6644	-0.126
Mof_N 	N 	0.752	0.8187	0.1418	-0.152
Mof_O 	O 	0.9768	0.9731	0.7645	-0.512
Mof_O 	O 	0.8137	0.8919	0.5792	-0.785
Mof_O 	O 	0.8873	0.0797	0.6835	-0.568
Mof_O 	O 	0.2865	0.9025	0.5389	-0.595
Mof_O 	O 	0.3636	0.0446	0.5386	-0.599
Mof_O 	O 	0.7209	0.7243	0.2527	-0.518
Mof_O 	O 	0.8255	0.7452	0.4391	-0.775
Mof_O 	O 	0.9047	0.7097	0.3258	-0.566
Mof_O 	O 	0.8703	0.2565	0.4708	-0.593
Mof_O 	O 	0.0028	0.3199	0.4502	-0.588
Mof_O 	O 	0.0564	0.9103	0.5967	-0.75
Mof_O 	O 	0.0461	0.0806	0.6277	-0.625
Mof_O 	O 	0.1813	0.0384	0.5914	-0.753
Mof_O 	O 	0.2781	0.5079	0.1118	-0.504
Mof_O 	O 	0.4228	0.5318	0.1065	-0.29
Mof_O 	O 	0.4762	0.7279	0.2091	-0.44
Mof_O 	O 	0.5851	0.8611	0.227	-0.505
Mof_O 	O 	0.0338	0.7637	0.8019	-0.461
Mof_O 	O 	0.1489	0.8601	0.7829	-0.476
Mof_O 	O 	0.4052	0.3585	0.639	-0.498
Mof_O 	O 	0.4433	0.2477	0.5551	-0.492
Mof_O 	O 	0.7997	0.7426	0.6773	-0.479
Mof_O 	O 	0.8174	0.6252	0.5727	-0.49
Mof_O 	O 	0.0232	0.0269	0.2355	-0.512
Mof_O 	O 	0.1863	0.1081	0.4208	-0.785
Mof_O 	O 	0.1127	0.9203	0.3165	-0.568
Mof_O 	O 	0.7135	0.0975	0.4611	-0.595
Mof_O 	O 	0.6364	0.9554	0.4614	-0.599
Mof_O 	O 	0.2791	0.2757	0.7473	-0.518
Mof_O 	O 	0.1745	0.2548	0.5609	-0.775
Mof_O 	O 	0.0953	0.2903	0.6742	-0.566
Mof_O 	O 	0.1297	0.7435	0.5292	-0.593
Mof_O 	O 	0.9972	0.6801	0.5498	-0.588
Mof_O 	O 	0.9436	0.0897	0.4033	-0.75
Mof_O 	O 	0.9539	0.9194	0.3723	-0.625
Mof_O 	O 	0.8187	0.9616	0.4086	-0.753
Mof_O 	O 	0.7219	0.4921	0.8882	-0.504
Mof_O 	O 	0.5772	0.4682	0.8935	-0.29
Mof_O 	O 	0.5238	0.2721	0.7909	-0.44
Mof_O 	O 	0.4149	0.1389	0.773	-0.505
Mof_O 	O 	0.9662	0.2363	0.1981	-0.461
Mof_O 	O 	0.8511	0.1399	0.2171	-0.476
Mof_O 	O 	0.5948	0.6415	0.361	-0.498
Mof_O 	O 	0.5567	0.7523	0.4449	-0.492
Mof_O 	O 	0.2003	0.2574	0.3227	-0.479
Mof_O 	O 	0.1826	0.3748	0.4273	-0.49
_end
