data_functionalizedCrystal
_audit_creation_method	'EQeq! by Chris Wilmer'
_symmetry_space_group_name_H-M	'P1'
_symmetry_Int_Tables_number	1
_symmetry_cell_setting	triclinic
loop_
_symmetry_equiv_pos_as_xyz
  x,y,z
_cell_length_a	34.9245
_cell_length_b	14.9263
_cell_length_c	29.7839
_cell_angle_alpha	90
_cell_angle_beta	101.228
_cell_angle_gamma	90
loop_
_atom_site_label
_atom_site_type_symbol
_atom_site_fract_x
_atom_site_fract_y
_atom_site_fract_z
_atom_site_charge
Mof_Zn	Zn	0.92093	0.63095	0.90887	1.166
Mof_I 	I 	0.88566	0.74368	0.94919	-0.378
Mof_I 	I 	0.97514	0.6544	0.86524	-0.357
Mof_N 	N 	0.88023	0.5595	0.86222	-0.274
Mof_C 	C 	0.85079	0.598	0.835	0.079
Mof_H 	H 	0.8453	0.6591	0.8403	-0.016
Mof_C 	C 	0.82747	0.5543	0.7993	-0.132
Mof_H 	H 	0.8068	0.5851	0.78	0.076
Mof_C 	C 	0.83439	0.4651	0.7916	0.063
Mof_C 	C 	0.864	0.4235	0.8219	-0.128
Mof_H 	H 	0.8688	0.3613	0.8193	0.095
Mof_C 	C 	0.8862	0.4729	0.8555	0.081
Mof_H 	H 	0.9071	0.444	0.8754	-0.007
Mof_N 	N 	0.66997	0.5359	0.60208	-0.265
Mof_C 	C 	0.69018	0.578	0.6385	0.07
Mof_H 	H 	0.6837	0.6382	0.6441	-0.002
Mof_C 	C 	0.71998	0.5378	0.6683	-0.121
Mof_H 	H 	0.7343	0.5703	0.6935	0.086
Mof_C 	C 	0.7291	0.4485	0.6614	0.041
Mof_C 	C 	0.70817	0.4044	0.6237	-0.11
Mof_H 	H 	0.7137	0.3437	0.6178	0.082
Mof_C 	C 	0.67893	0.4506	0.5946	0.062
Mof_H 	H 	0.6647	0.4206	0.5685	0.002
Mof_N 	N 	0.81447	0.9993	0.72257	-0.268
Mof_C 	C 	0.8405	0.0549	0.7474	0.063
Mof_H 	H 	0.8626	0.0303	0.7673	-0.011
Mof_C 	C 	0.8361	0.1475	0.7449	-0.117
Mof_H 	H 	0.8553	0.1857	0.762	0.082
Mof_C 	C 	0.80346	0.1829	0.7171	0.058
Mof_C 	C 	0.77735	0.1255	0.6912	-0.123
Mof_H 	H 	0.7551	0.1482	0.6708	0.079
Mof_C 	C 	0.78378	0.0339	0.6953	0.073
Mof_H 	H 	0.7653	0.9946	0.6777	-0.013
Mof_C 	C 	0.81071	0.4133	0.75385	0.098
Mof_N 	N 	0.78123	0.4545	0.72688	-0.144
Mof_C 	C 	0.76141	0.4036	0.69362	0.089
Mof_N 	N 	0.76738	0.3166	0.68708	-0.142
Mof_C 	C 	0.79682	0.2816	0.7177	0.102
Mof_N 	N 	0.82037	0.3268	0.7501	-0.135
Mof_N 	N 	0.58103	0.5135	0.55293	-0.26
Mof_C 	C 	0.5674	0.5014	0.5911	0.075
Mof_H 	H 	0.5799	0.5314	0.6182	-0.012
Mof_C 	C 	0.5358	0.4467	0.5931	-0.119
Mof_H 	H 	0.5261	0.4404	0.6207	0.083
Mof_C 	C 	0.51859	0.4013	0.5536	0.048
Mof_C 	C 	0.53331	0.4118	0.5148	-0.113
Mof_H 	H 	0.5219	0.3806	0.4876	0.077
Mof_C 	C 	0.56502	0.4682	0.5149	0.065
Mof_H 	H 	0.5754	0.4747	0.4879	-0.003
Mof_N 	N 	0.35999	0.3439	0.68139	-0.273
Mof_C 	C 	0.3929	0.3902	0.6846	0.08
Mof_H 	H 	0.399	0.4341	0.7081	-0.017
Mof_C 	C 	0.4186	0.3773	0.6554	-0.121
Mof_H 	H 	0.442	0.4113	0.6588	0.084
Mof_C 	C 	0.40981	0.3142	0.6212	0.064
Mof_C 	C 	0.375	0.2666	0.6172	-0.117
Mof_H 	H 	0.3678	0.2228	0.5939	0.08
Mof_C 	C 	0.3511	0.2848	0.648	0.075
Mof_H 	H 	0.3272	0.2532	0.6451	-0.016
Mof_N 	N 	0.43837	0.9729	0.45486	-0.267
Mof_C 	C 	0.46636	0.0314	0.45064	0.072
Mof_H 	H 	0.4828	0.0184	0.4295	-0.006
Mof_C 	C 	0.47257	0.1094	0.47538	-0.118
Mof_H 	H 	0.4927	0.1496	0.4712	0.073
Mof_C 	C 	0.44901	0.1283	0.50644	0.048
Mof_C 	C 	0.4211	0.0667	0.5128	-0.109
Mof_H 	H 	0.4052	0.0775	0.5347	0.078
Mof_C 	C 	0.4165	0.9896	0.4872	0.052
Mof_H 	H 	0.3977	0.9468	0.4921	-0.006
Mof_C 	C 	0.48563	0.3398	0.55579	0.09
Mof_N 	N 	0.4641	0.3566	0.58718	-0.137
Mof_C 	C 	0.43576	0.2982	0.5885	0.099
Mof_N 	N 	0.42955	0.2234	0.56277	-0.138
Mof_C 	C 	0.45327	0.2132	0.53343	0.09
Mof_Zn	Zn	0.62718	0.6006	0.55617	0.545
Mof_N 	N 	0.48094	0.2708	0.52677	-0.149
Mof_Zn	Zn	0.8264	0.8635	0.7301	0.558
Mof_I 	I 	0.60689	0.73858	0.59365	-0.272
Mof_I 	I 	0.65064	0.58931	0.48145	-0.055
Mof_I 	I 	0.76497	0.7717	0.70192	-0.08
Mof_I 	I 	0.86745	0.84268	0.80924	-0.302
Mof_Zn	Zn	0.6301	0.5961	0.5509	0.554
Mof_I 	I 	0.6161	0.7424	0.5838	-0.074
Mof_I 	I 	0.6527	0.5732	0.4744	-0.267
Mof_Zn	Zn	0.8202	0.861	0.7244	0.564
Mof_I 	I 	0.7569	0.7869	0.6909	-0.264
Mof_I 	I 	0.8639	0.8321	0.7984	-0.062
Mof_Zn	Zn	0.42093	0.13095	0.90887	1.165
Mof_I 	I 	0.38566	0.24368	0.94919	-0.379
Mof_I 	I 	0.47514	0.1544	0.86524	-0.357
Mof_N 	N 	0.38023	0.0595	0.86222	-0.274
Mof_C 	C 	0.35079	0.098	0.835	0.079
Mof_H 	H 	0.3453	0.1591	0.8403	-0.016
Mof_C 	C 	0.32747	0.0543	0.7993	-0.133
Mof_H 	H 	0.3068	0.0851	0.78	0.076
Mof_C 	C 	0.33439	0.9651	0.7916	0.064
Mof_C 	C 	0.364	0.9235	0.8219	-0.128
Mof_H 	H 	0.3688	0.8613	0.8193	0.095
Mof_C 	C 	0.3862	0.9729	0.8555	0.081
Mof_H 	H 	0.4071	0.944	0.8754	-0.007
Mof_N 	N 	0.16997	0.0359	0.60208	-0.265
Mof_C 	C 	0.19018	0.078	0.6385	0.07
Mof_H 	H 	0.1837	0.1382	0.6441	-0.003
Mof_C 	C 	0.21998	0.0378	0.6683	-0.122
Mof_H 	H 	0.2343	0.0703	0.6935	0.086
Mof_C 	C 	0.2291	0.9485	0.6614	0.042
Mof_C 	C 	0.20817	0.9044	0.6237	-0.11
Mof_H 	H 	0.2137	0.8437	0.6178	0.082
Mof_C 	C 	0.17893	0.9506	0.5946	0.062
Mof_H 	H 	0.1647	0.9206	0.5685	0.002
Mof_N 	N 	0.31447	0.4993	0.72257	-0.268
Mof_C 	C 	0.3405	0.5549	0.7474	0.063
Mof_H 	H 	0.3626	0.5303	0.7673	-0.011
Mof_C 	C 	0.3361	0.6475	0.7449	-0.117
Mof_H 	H 	0.3553	0.6857	0.762	0.082
Mof_C 	C 	0.30346	0.6829	0.7171	0.058
Mof_C 	C 	0.27735	0.6255	0.6912	-0.123
Mof_H 	H 	0.2551	0.6482	0.6708	0.079
Mof_C 	C 	0.28378	0.5339	0.6953	0.074
Mof_H 	H 	0.2653	0.4946	0.6777	-0.013
Mof_C 	C 	0.31071	0.9133	0.75385	0.098
Mof_N 	N 	0.28123	0.9545	0.72688	-0.144
Mof_C 	C 	0.26141	0.9036	0.69362	0.089
Mof_N 	N 	0.26738	0.8166	0.68708	-0.142
Mof_C 	C 	0.29682	0.7816	0.7177	0.102
Mof_N 	N 	0.32037	0.8268	0.7501	-0.135
Mof_N 	N 	0.08103	0.0135	0.55293	-0.26
Mof_C 	C 	0.0674	0.0014	0.5911	0.075
Mof_H 	H 	0.0799	0.0314	0.6182	-0.012
Mof_C 	C 	0.0358	0.9467	0.5931	-0.118
Mof_H 	H 	0.0261	0.9404	0.6207	0.083
Mof_C 	C 	0.01859	0.9013	0.5536	0.048
Mof_C 	C 	0.03331	0.9118	0.5148	-0.113
Mof_H 	H 	0.0219	0.8806	0.4876	0.077
Mof_C 	C 	0.06502	0.9682	0.5149	0.065
Mof_H 	H 	0.0754	0.9747	0.4879	-0.003
Mof_N 	N 	0.85999	0.8439	0.68139	-0.273
Mof_C 	C 	0.8929	0.8902	0.6846	0.08
Mof_H 	H 	0.899	0.9341	0.7081	-0.017
Mof_C 	C 	0.9186	0.8773	0.6554	-0.121
Mof_H 	H 	0.942	0.9113	0.6588	0.084
Mof_C 	C 	0.90981	0.8142	0.6212	0.064
Mof_C 	C 	0.875	0.7666	0.6172	-0.117
Mof_H 	H 	0.8678	0.7228	0.5939	0.08
Mof_C 	C 	0.8511	0.7848	0.648	0.075
Mof_H 	H 	0.8272	0.7532	0.6451	-0.016
Mof_N 	N 	0.93837	0.4729	0.45486	-0.266
Mof_C 	C 	0.96636	0.5314	0.45064	0.072
Mof_H 	H 	0.9828	0.5184	0.4295	-0.006
Mof_C 	C 	0.97257	0.6094	0.47538	-0.118
Mof_H 	H 	0.9927	0.6496	0.4712	0.073
Mof_C 	C 	0.94901	0.6283	0.50644	0.048
Mof_C 	C 	0.9211	0.5667	0.5128	-0.109
Mof_H 	H 	0.9052	0.5775	0.5347	0.078
Mof_C 	C 	0.9165	0.4896	0.4872	0.052
Mof_H 	H 	0.8977	0.4468	0.4921	-0.006
Mof_C 	C 	0.98563	0.8398	0.55579	0.09
Mof_N 	N 	0.9641	0.8566	0.58718	-0.137
Mof_C 	C 	0.93576	0.7982	0.5885	0.099
Mof_N 	N 	0.92955	0.7234	0.56277	-0.138
Mof_C 	C 	0.95327	0.7132	0.53343	0.09
Mof_Zn	Zn	0.12718	0.1006	0.55617	0.545
Mof_N 	N 	0.98094	0.7708	0.52677	-0.149
Mof_Zn	Zn	0.3264	0.3635	0.7301	0.558
Mof_I 	I 	0.10689	0.23858	0.59365	-0.272
Mof_I 	I 	0.15064	0.08931	0.48145	-0.055
Mof_I 	I 	0.26497	0.2717	0.70192	-0.08
Mof_I 	I 	0.36745	0.34268	0.80924	-0.302
Mof_Zn	Zn	0.1301	0.0961	0.5509	0.554
Mof_I 	I 	0.1161	0.2424	0.5838	-0.074
Mof_I 	I 	0.1527	0.0732	0.4744	-0.267
Mof_Zn	Zn	0.3202	0.361	0.7244	0.564
Mof_I 	I 	0.2569	0.2869	0.6909	-0.264
Mof_I 	I 	0.3639	0.3321	0.7984	-0.062
Mof_Zn	Zn	0.92093	0.36905	0.40887	1.165
Mof_I 	I 	0.88566	0.25632	0.44919	-0.379
Mof_I 	I 	0.97514	0.3456	0.36524	-0.357
Mof_N 	N 	0.88023	0.4405	0.36222	-0.274
Mof_C 	C 	0.85079	0.402	0.335	0.079
Mof_H 	H 	0.8453	0.3409	0.3403	-0.016
Mof_C 	C 	0.82747	0.4457	0.2993	-0.132
Mof_H 	H 	0.8068	0.4149	0.28	0.076
Mof_C 	C 	0.83439	0.5349	0.2916	0.063
Mof_C 	C 	0.864	0.5765	0.3219	-0.128
Mof_H 	H 	0.8688	0.6387	0.3193	0.095
Mof_C 	C 	0.8862	0.5271	0.3555	0.081
Mof_H 	H 	0.9071	0.556	0.3754	-0.007
Mof_N 	N 	0.66997	0.4641	0.10208	-0.265
Mof_C 	C 	0.69018	0.422	0.1385	0.07
Mof_H 	H 	0.6837	0.3618	0.1441	-0.002
Mof_C 	C 	0.71998	0.4622	0.1683	-0.121
Mof_H 	H 	0.7343	0.4297	0.1935	0.086
Mof_C 	C 	0.7291	0.5515	0.1614	0.041
Mof_C 	C 	0.70817	0.5956	0.1237	-0.11
Mof_H 	H 	0.7137	0.6563	0.1178	0.082
Mof_C 	C 	0.67893	0.5494	0.0946	0.062
Mof_H 	H 	0.6647	0.5794	0.0685	0.002
Mof_N 	N 	0.81447	0.0007	0.22257	-0.268
Mof_C 	C 	0.8405	0.9451	0.2474	0.063
Mof_H 	H 	0.8626	0.9697	0.2673	-0.011
Mof_C 	C 	0.8361	0.8525	0.2449	-0.117
Mof_H 	H 	0.8553	0.8143	0.262	0.082
Mof_C 	C 	0.80346	0.8171	0.2171	0.058
Mof_C 	C 	0.77735	0.8745	0.1912	-0.123
Mof_H 	H 	0.7551	0.8518	0.1708	0.078
Mof_C 	C 	0.78378	0.9661	0.1953	0.073
Mof_H 	H 	0.7653	0.0054	0.1777	-0.013
Mof_C 	C 	0.81071	0.5867	0.25385	0.098
Mof_N 	N 	0.78123	0.5455	0.22688	-0.144
Mof_C 	C 	0.76141	0.5964	0.19362	0.089
Mof_N 	N 	0.76738	0.6834	0.18708	-0.142
Mof_C 	C 	0.79682	0.7184	0.2177	0.102
Mof_N 	N 	0.82037	0.6732	0.2501	-0.135
Mof_N 	N 	0.58103	0.4865	0.05293	-0.26
Mof_C 	C 	0.5674	0.4986	0.0911	0.075
Mof_H 	H 	0.5799	0.4686	0.1182	-0.012
Mof_C 	C 	0.5358	0.5533	0.0931	-0.119
Mof_H 	H 	0.5261	0.5596	0.1207	0.083
Mof_C 	C 	0.51859	0.5987	0.0536	0.048
Mof_C 	C 	0.53331	0.5882	0.0148	-0.113
Mof_H 	H 	0.5219	0.6194	0.9876	0.077
Mof_C 	C 	0.56502	0.5318	0.0149	0.065
Mof_H 	H 	0.5754	0.5253	0.9879	-0.003
Mof_N 	N 	0.35999	0.6561	0.18139	-0.273
Mof_C 	C 	0.3929	0.6098	0.1846	0.08
Mof_H 	H 	0.399	0.5659	0.2081	-0.017
Mof_C 	C 	0.4186	0.6227	0.1554	-0.121
Mof_H 	H 	0.442	0.5887	0.1588	0.084
Mof_C 	C 	0.40981	0.6858	0.1212	0.064
Mof_C 	C 	0.375	0.7334	0.1172	-0.117
Mof_H 	H 	0.3678	0.7772	0.0939	0.08
Mof_C 	C 	0.3511	0.7152	0.148	0.075
Mof_H 	H 	0.3272	0.7468	0.1451	-0.016
Mof_N 	N 	0.43837	0.0271	0.95486	-0.267
Mof_C 	C 	0.46636	0.9686	0.95064	0.072
Mof_H 	H 	0.4828	0.9816	0.9295	-0.006
Mof_C 	C 	0.47257	0.8906	0.97538	-0.118
Mof_H 	H 	0.4927	0.8504	0.9712	0.073
Mof_C 	C 	0.44901	0.8717	0.00644	0.048
Mof_C 	C 	0.4211	0.9333	0.0128	-0.109
Mof_H 	H 	0.4052	0.9225	0.0347	0.077
Mof_C 	C 	0.4165	0.0104	0.9872	0.052
Mof_H 	H 	0.3977	0.0532	0.9921	-0.006
Mof_C 	C 	0.48563	0.6602	0.05579	0.09
Mof_N 	N 	0.4641	0.6434	0.08718	-0.137
Mof_C 	C 	0.43576	0.7018	0.0885	0.099
Mof_N 	N 	0.42955	0.7766	0.06277	-0.138
Mof_C 	C 	0.45327	0.7868	0.03343	0.09
Mof_Zn	Zn	0.62718	0.3994	0.05617	0.545
Mof_N 	N 	0.48094	0.7292	0.02677	-0.149
Mof_Zn	Zn	0.8264	0.1365	0.2301	0.558
Mof_I 	I 	0.60689	0.26142	0.09365	-0.272
Mof_I 	I 	0.65064	0.41069	0.98145	-0.055
Mof_I 	I 	0.76497	0.2283	0.20192	-0.08
Mof_I 	I 	0.86745	0.15732	0.30924	-0.302
Mof_Zn	Zn	0.6301	0.4039	0.0509	0.554
Mof_I 	I 	0.6161	0.2576	0.0838	-0.074
Mof_I 	I 	0.6527	0.4268	0.9744	-0.267
Mof_Zn	Zn	0.8202	0.139	0.2244	0.564
Mof_I 	I 	0.7569	0.2131	0.1909	-0.264
Mof_I 	I 	0.8639	0.1679	0.2984	-0.062
Mof_Zn	Zn	0.42093	0.86905	0.40887	1.165
Mof_I 	I 	0.38566	0.75632	0.44919	-0.379
Mof_I 	I 	0.47514	0.8456	0.36524	-0.357
Mof_N 	N 	0.38023	0.9405	0.36222	-0.274
Mof_C 	C 	0.35079	0.902	0.335	0.079
Mof_H 	H 	0.3453	0.8409	0.3403	-0.016
Mof_C 	C 	0.32747	0.9457	0.2993	-0.133
Mof_H 	H 	0.3068	0.9149	0.28	0.076
Mof_C 	C 	0.33439	0.0349	0.2916	0.064
Mof_C 	C 	0.364	0.0765	0.3219	-0.128
Mof_H 	H 	0.3688	0.1387	0.3193	0.095
Mof_C 	C 	0.3862	0.0271	0.3555	0.081
Mof_H 	H 	0.4071	0.056	0.3754	-0.007
Mof_N 	N 	0.16997	0.9641	0.10208	-0.265
Mof_C 	C 	0.19018	0.922	0.1385	0.07
Mof_H 	H 	0.1837	0.8618	0.1441	-0.003
Mof_C 	C 	0.21998	0.9622	0.1683	-0.122
Mof_H 	H 	0.2343	0.9297	0.1935	0.086
Mof_C 	C 	0.2291	0.0515	0.1614	0.042
Mof_C 	C 	0.20817	0.0956	0.1237	-0.11
Mof_H 	H 	0.2137	0.1563	0.1178	0.082
Mof_C 	C 	0.17893	0.0494	0.0946	0.063
Mof_H 	H 	0.1647	0.0794	0.0685	0.002
Mof_N 	N 	0.31447	0.5007	0.22257	-0.268
Mof_C 	C 	0.3405	0.4451	0.2474	0.063
Mof_H 	H 	0.3626	0.4697	0.2673	-0.011
Mof_C 	C 	0.3361	0.3525	0.2449	-0.117
Mof_H 	H 	0.3553	0.3143	0.262	0.082
Mof_C 	C 	0.30346	0.3171	0.2171	0.058
Mof_C 	C 	0.27735	0.3745	0.1912	-0.123
Mof_H 	H 	0.2551	0.3518	0.1708	0.079
Mof_C 	C 	0.28378	0.4661	0.1953	0.074
Mof_H 	H 	0.2653	0.5054	0.1777	-0.013
Mof_C 	C 	0.31071	0.0867	0.25385	0.098
Mof_N 	N 	0.28123	0.0455	0.22688	-0.144
Mof_C 	C 	0.26141	0.0964	0.19362	0.089
Mof_N 	N 	0.26738	0.1834	0.18708	-0.142
Mof_C 	C 	0.29682	0.2184	0.2177	0.102
Mof_N 	N 	0.32037	0.1732	0.2501	-0.135
Mof_N 	N 	0.08103	0.9865	0.05293	-0.26
Mof_C 	C 	0.0674	0.9986	0.0911	0.074
Mof_H 	H 	0.0799	0.9686	0.1182	-0.011
Mof_C 	C 	0.0358	0.0533	0.0931	-0.118
Mof_H 	H 	0.0261	0.0596	0.1207	0.083
Mof_C 	C 	0.01859	0.0987	0.0536	0.048
Mof_C 	C 	0.03331	0.0882	0.0148	-0.113
Mof_H 	H 	0.0219	0.1194	0.9876	0.077
Mof_C 	C 	0.06502	0.0318	0.0149	0.066
Mof_H 	H 	0.0754	0.0253	0.9879	-0.003
Mof_N 	N 	0.85999	0.1561	0.18139	-0.273
Mof_C 	C 	0.8929	0.1098	0.1846	0.08
Mof_H 	H 	0.899	0.0659	0.2081	-0.017
Mof_C 	C 	0.9186	0.1227	0.1554	-0.121
Mof_H 	H 	0.942	0.0887	0.1588	0.084
Mof_C 	C 	0.90981	0.1858	0.1212	0.064
Mof_C 	C 	0.875	0.2334	0.1172	-0.117
Mof_H 	H 	0.8678	0.2772	0.0939	0.08
Mof_C 	C 	0.8511	0.2152	0.148	0.075
Mof_H 	H 	0.8272	0.2468	0.1451	-0.016
Mof_N 	N 	0.93837	0.5271	0.95486	-0.267
Mof_C 	C 	0.96636	0.4686	0.95064	0.072
Mof_H 	H 	0.9828	0.4816	0.9295	-0.006
Mof_C 	C 	0.97257	0.3906	0.97538	-0.118
Mof_H 	H 	0.9927	0.3504	0.9712	0.073
Mof_C 	C 	0.94901	0.3717	0.00644	0.049
Mof_C 	C 	0.9211	0.4333	0.0128	-0.109
Mof_H 	H 	0.9052	0.4225	0.0347	0.078
Mof_C 	C 	0.9165	0.5104	0.9872	0.052
Mof_H 	H 	0.8977	0.5532	0.9921	-0.006
Mof_C 	C 	0.98563	0.1602	0.05579	0.09
Mof_N 	N 	0.9641	0.1434	0.08718	-0.137
Mof_C 	C 	0.93576	0.2018	0.0885	0.099
Mof_N 	N 	0.92955	0.2766	0.06277	-0.138
Mof_C 	C 	0.95327	0.2868	0.03343	0.09
Mof_Zn	Zn	0.12718	0.8994	0.05617	0.544
Mof_N 	N 	0.98094	0.2292	0.02677	-0.149
Mof_Zn	Zn	0.3264	0.6365	0.2301	0.558
Mof_I 	I 	0.10689	0.76142	0.09365	-0.272
Mof_I 	I 	0.15064	0.91069	0.98145	-0.055
Mof_I 	I 	0.26497	0.7283	0.20192	-0.08
Mof_I 	I 	0.36745	0.65732	0.30924	-0.302
Mof_Zn	Zn	0.1301	0.9039	0.0509	0.554
Mof_I 	I 	0.1161	0.7576	0.0838	-0.074
Mof_I 	I 	0.1527	0.9268	0.9744	-0.267
Mof_Zn	Zn	0.3202	0.639	0.2244	0.564
Mof_I 	I 	0.2569	0.7131	0.1909	-0.264
Mof_I 	I 	0.3639	0.6679	0.2984	-0.062
Mof_Zn	Zn	0.07907	0.63095	0.59113	1.165
Mof_I 	I 	0.11434	0.74368	0.55081	-0.379
Mof_I 	I 	0.02486	0.6544	0.63476	-0.357
Mof_N 	N 	0.11977	0.5595	0.63778	-0.274
Mof_C 	C 	0.14921	0.598	0.665	0.079
Mof_H 	H 	0.1547	0.6591	0.6597	-0.016
Mof_C 	C 	0.17253	0.5543	0.7007	-0.132
Mof_H 	H 	0.1932	0.5851	0.72	0.076
Mof_C 	C 	0.16561	0.4651	0.7084	0.063
Mof_C 	C 	0.136	0.4235	0.6781	-0.128
Mof_H 	H 	0.1312	0.3613	0.6807	0.095
Mof_C 	C 	0.1138	0.4729	0.6445	0.081
Mof_H 	H 	0.0929	0.444	0.6246	-0.007
Mof_N 	N 	0.33003	0.5359	0.89792	-0.265
Mof_C 	C 	0.30982	0.578	0.8615	0.07
Mof_H 	H 	0.3163	0.6382	0.8559	-0.002
Mof_C 	C 	0.28002	0.5378	0.8317	-0.121
Mof_H 	H 	0.2657	0.5703	0.8065	0.086
Mof_C 	C 	0.2709	0.4485	0.8386	0.041
Mof_C 	C 	0.29183	0.4044	0.8763	-0.11
Mof_H 	H 	0.2863	0.3437	0.8822	0.082
Mof_C 	C 	0.32107	0.4506	0.9054	0.062
Mof_H 	H 	0.3353	0.4206	0.9315	0.002
Mof_N 	N 	0.18553	0.9993	0.77743	-0.268
Mof_C 	C 	0.1595	0.0549	0.7526	0.063
Mof_H 	H 	0.1374	0.0303	0.7327	-0.011
Mof_C 	C 	0.1639	0.1475	0.7551	-0.117
Mof_H 	H 	0.1447	0.1857	0.738	0.082
Mof_C 	C 	0.19654	0.1829	0.7829	0.058
Mof_C 	C 	0.22265	0.1255	0.8088	-0.123
Mof_H 	H 	0.2449	0.1482	0.8292	0.078
Mof_C 	C 	0.21622	0.0339	0.8047	0.073
Mof_H 	H 	0.2347	0.9946	0.8223	-0.013
Mof_C 	C 	0.18929	0.4133	0.74615	0.098
Mof_N 	N 	0.21877	0.4545	0.77312	-0.144
Mof_C 	C 	0.23859	0.4036	0.80638	0.089
Mof_N 	N 	0.23262	0.3166	0.81292	-0.142
Mof_C 	C 	0.20318	0.2816	0.7823	0.102
Mof_N 	N 	0.17963	0.3268	0.7499	-0.135
Mof_N 	N 	0.41897	0.5135	0.94707	-0.26
Mof_C 	C 	0.4326	0.5014	0.9089	0.075
Mof_H 	H 	0.4201	0.5314	0.8818	-0.012
Mof_C 	C 	0.4642	0.4467	0.9069	-0.119
Mof_H 	H 	0.4739	0.4404	0.8793	0.083
Mof_C 	C 	0.48141	0.4013	0.9464	0.048
Mof_C 	C 	0.46669	0.4118	0.9852	-0.113
Mof_H 	H 	0.4781	0.3806	0.0124	0.077
Mof_C 	C 	0.43498	0.4682	0.9851	0.065
Mof_H 	H 	0.4246	0.4747	0.0121	-0.003
Mof_N 	N 	0.64001	0.3439	0.81861	-0.273
Mof_C 	C 	0.6071	0.3902	0.8154	0.08
Mof_H 	H 	0.601	0.4341	0.7919	-0.017
Mof_C 	C 	0.5814	0.3773	0.8446	-0.121
Mof_H 	H 	0.558	0.4113	0.8412	0.084
Mof_C 	C 	0.59019	0.3142	0.8788	0.064
Mof_C 	C 	0.625	0.2666	0.8828	-0.117
Mof_H 	H 	0.6322	0.2228	0.9061	0.08
Mof_C 	C 	0.6489	0.2848	0.852	0.075
Mof_H 	H 	0.6728	0.2532	0.8549	-0.016
Mof_N 	N 	0.56163	0.9729	0.04514	-0.267
Mof_C 	C 	0.53364	0.0314	0.04936	0.072
Mof_H 	H 	0.5172	0.0184	0.0705	-0.006
Mof_C 	C 	0.52743	0.1094	0.02462	-0.118
Mof_H 	H 	0.5073	0.1496	0.0288	0.073
Mof_C 	C 	0.55099	0.1283	0.99356	0.048
Mof_C 	C 	0.5789	0.0667	0.9872	-0.109
Mof_H 	H 	0.5948	0.0775	0.9653	0.077
Mof_C 	C 	0.5835	0.9896	0.0128	0.052
Mof_H 	H 	0.6023	0.9468	0.0079	-0.006
Mof_C 	C 	0.51437	0.3398	0.94421	0.09
Mof_N 	N 	0.5359	0.3566	0.91282	-0.137
Mof_C 	C 	0.56424	0.2982	0.9115	0.099
Mof_N 	N 	0.57045	0.2234	0.93723	-0.138
Mof_C 	C 	0.54673	0.2132	0.96657	0.09
Mof_Zn	Zn	0.37282	0.6006	0.94383	0.545
Mof_N 	N 	0.51906	0.2708	0.97323	-0.149
Mof_Zn	Zn	0.1736	0.8635	0.7699	0.558
Mof_I 	I 	0.39311	0.73858	0.90635	-0.272
Mof_I 	I 	0.34936	0.58931	0.01855	-0.055
Mof_I 	I 	0.23503	0.7717	0.79808	-0.08
Mof_I 	I 	0.13255	0.84268	0.69076	-0.302
Mof_Zn	Zn	0.3699	0.5961	0.9491	0.554
Mof_I 	I 	0.3839	0.7424	0.9162	-0.074
Mof_I 	I 	0.3473	0.5732	0.0256	-0.267
Mof_Zn	Zn	0.1798	0.861	0.7756	0.564
Mof_I 	I 	0.2431	0.7869	0.8091	-0.264
Mof_I 	I 	0.1361	0.8321	0.7016	-0.062
Mof_Zn	Zn	0.57907	0.13095	0.59113	1.165
Mof_I 	I 	0.61434	0.24368	0.55081	-0.379
Mof_I 	I 	0.52486	0.1544	0.63476	-0.357
Mof_N 	N 	0.61977	0.0595	0.63778	-0.274
Mof_C 	C 	0.64921	0.098	0.665	0.079
Mof_H 	H 	0.6547	0.1591	0.6597	-0.016
Mof_C 	C 	0.67253	0.0543	0.7007	-0.133
Mof_H 	H 	0.6932	0.0851	0.72	0.076
Mof_C 	C 	0.66561	0.9651	0.7084	0.064
Mof_C 	C 	0.636	0.9235	0.6781	-0.128
Mof_H 	H 	0.6312	0.8613	0.6807	0.095
Mof_C 	C 	0.6138	0.9729	0.6445	0.081
Mof_H 	H 	0.5929	0.944	0.6246	-0.007
Mof_N 	N 	0.83003	0.0359	0.89792	-0.265
Mof_C 	C 	0.80982	0.078	0.8615	0.07
Mof_H 	H 	0.8163	0.1382	0.8559	-0.003
Mof_C 	C 	0.78002	0.0378	0.8317	-0.122
Mof_H 	H 	0.7657	0.0703	0.8065	0.086
Mof_C 	C 	0.7709	0.9485	0.8386	0.042
Mof_C 	C 	0.79183	0.9044	0.8763	-0.11
Mof_H 	H 	0.7863	0.8437	0.8822	0.082
Mof_C 	C 	0.82107	0.9506	0.9054	0.063
Mof_H 	H 	0.8353	0.9206	0.9315	0.002
Mof_N 	N 	0.68553	0.4993	0.77743	-0.268
Mof_C 	C 	0.6595	0.5549	0.7526	0.063
Mof_H 	H 	0.6374	0.5303	0.7327	-0.011
Mof_C 	C 	0.6639	0.6475	0.7551	-0.117
Mof_H 	H 	0.6447	0.6857	0.738	0.082
Mof_C 	C 	0.69654	0.6829	0.7829	0.058
Mof_C 	C 	0.72265	0.6255	0.8088	-0.123
Mof_H 	H 	0.7449	0.6482	0.8292	0.079
Mof_C 	C 	0.71622	0.5339	0.8047	0.074
Mof_H 	H 	0.7347	0.4946	0.8223	-0.013
Mof_C 	C 	0.68929	0.9133	0.74615	0.098
Mof_N 	N 	0.71877	0.9545	0.77312	-0.144
Mof_C 	C 	0.73859	0.9036	0.80638	0.089
Mof_N 	N 	0.73262	0.8166	0.81292	-0.142
Mof_C 	C 	0.70318	0.7816	0.7823	0.102
Mof_N 	N 	0.67963	0.8268	0.7499	-0.135
Mof_N 	N 	0.91897	0.0135	0.94707	-0.26
Mof_C 	C 	0.9326	0.0014	0.9089	0.074
Mof_H 	H 	0.9201	0.0314	0.8818	-0.011
Mof_C 	C 	0.9642	0.9467	0.9069	-0.118
Mof_H 	H 	0.9739	0.9404	0.8793	0.083
Mof_C 	C 	0.98141	0.9013	0.9464	0.048
Mof_C 	C 	0.96669	0.9118	0.9852	-0.113
Mof_H 	H 	0.9781	0.8806	0.0124	0.077
Mof_C 	C 	0.93498	0.9682	0.9851	0.066
Mof_H 	H 	0.9246	0.9747	0.0121	-0.003
Mof_N 	N 	0.14001	0.8439	0.81861	-0.273
Mof_C 	C 	0.1071	0.8902	0.8154	0.08
Mof_H 	H 	0.101	0.9341	0.7919	-0.017
Mof_C 	C 	0.0814	0.8773	0.8446	-0.121
Mof_H 	H 	0.058	0.9113	0.8412	0.084
Mof_C 	C 	0.09019	0.8142	0.8788	0.064
Mof_C 	C 	0.125	0.7666	0.8828	-0.117
Mof_H 	H 	0.1322	0.7228	0.9061	0.08
Mof_C 	C 	0.1489	0.7848	0.852	0.075
Mof_H 	H 	0.1728	0.7532	0.8549	-0.016
Mof_N 	N 	0.06163	0.4729	0.04514	-0.267
Mof_C 	C 	0.03364	0.5314	0.04936	0.072
Mof_H 	H 	0.0172	0.5184	0.0705	-0.006
Mof_C 	C 	0.02743	0.6094	0.02462	-0.118
Mof_H 	H 	0.0073	0.6496	0.0288	0.073
Mof_C 	C 	0.05099	0.6283	0.99356	0.049
Mof_C 	C 	0.0789	0.5667	0.9872	-0.109
Mof_H 	H 	0.0948	0.5775	0.9653	0.078
Mof_C 	C 	0.0835	0.4896	0.0128	0.052
Mof_H 	H 	0.1023	0.4468	0.0079	-0.006
Mof_C 	C 	0.01437	0.8398	0.94421	0.09
Mof_N 	N 	0.0359	0.8566	0.91282	-0.137
Mof_C 	C 	0.06424	0.7982	0.9115	0.099
Mof_N 	N 	0.07045	0.7234	0.93723	-0.138
Mof_C 	C 	0.04673	0.7132	0.96657	0.09
Mof_Zn	Zn	0.87282	0.1006	0.94383	0.544
Mof_N 	N 	0.01906	0.7708	0.97323	-0.149
Mof_Zn	Zn	0.6736	0.3635	0.7699	0.558
Mof_I 	I 	0.89311	0.23858	0.90635	-0.272
Mof_I 	I 	0.84936	0.08931	0.01855	-0.055
Mof_I 	I 	0.73503	0.2717	0.79808	-0.08
Mof_I 	I 	0.63255	0.34268	0.69076	-0.302
Mof_Zn	Zn	0.8699	0.0961	0.9491	0.554
Mof_I 	I 	0.8839	0.2424	0.9162	-0.074
Mof_I 	I 	0.8473	0.0732	0.0256	-0.267
Mof_Zn	Zn	0.6798	0.361	0.7756	0.564
Mof_I 	I 	0.7431	0.2869	0.8091	-0.264
Mof_I 	I 	0.6361	0.3321	0.7016	-0.062
Mof_Zn	Zn	0.07907	0.36905	0.09113	1.165
Mof_I 	I 	0.11434	0.25632	0.05081	-0.379
Mof_I 	I 	0.02486	0.3456	0.13476	-0.357
Mof_N 	N 	0.11977	0.4405	0.13778	-0.274
Mof_C 	C 	0.14921	0.402	0.165	0.079
Mof_H 	H 	0.1547	0.3409	0.1597	-0.016
Mof_C 	C 	0.17253	0.4457	0.2007	-0.132
Mof_H 	H 	0.1932	0.4149	0.22	0.076
Mof_C 	C 	0.16561	0.5349	0.2084	0.063
Mof_C 	C 	0.136	0.5765	0.1781	-0.128
Mof_H 	H 	0.1312	0.6387	0.1807	0.095
Mof_C 	C 	0.1138	0.5271	0.1445	0.081
Mof_H 	H 	0.0929	0.556	0.1246	-0.007
Mof_N 	N 	0.33003	0.4641	0.39792	-0.265
Mof_C 	C 	0.30982	0.422	0.3615	0.07
Mof_H 	H 	0.3163	0.3618	0.3559	-0.002
Mof_C 	C 	0.28002	0.4622	0.3317	-0.121
Mof_H 	H 	0.2657	0.4297	0.3065	0.086
Mof_C 	C 	0.2709	0.5515	0.3386	0.041
Mof_C 	C 	0.29183	0.5956	0.3763	-0.11
Mof_H 	H 	0.2863	0.6563	0.3822	0.082
Mof_C 	C 	0.32107	0.5494	0.4054	0.062
Mof_H 	H 	0.3353	0.5794	0.4315	0.002
Mof_N 	N 	0.18553	0.0007	0.27743	-0.268
Mof_C 	C 	0.1595	0.9451	0.2526	0.063
Mof_H 	H 	0.1374	0.9697	0.2327	-0.011
Mof_C 	C 	0.1639	0.8525	0.2551	-0.117
Mof_H 	H 	0.1447	0.8143	0.238	0.082
Mof_C 	C 	0.19654	0.8171	0.2829	0.058
Mof_C 	C 	0.22265	0.8745	0.3088	-0.123
Mof_H 	H 	0.2449	0.8518	0.3292	0.079
Mof_C 	C 	0.21622	0.9661	0.3047	0.073
Mof_H 	H 	0.2347	0.0054	0.3223	-0.013
Mof_C 	C 	0.18929	0.5867	0.24615	0.098
Mof_N 	N 	0.21877	0.5455	0.27312	-0.144
Mof_C 	C 	0.23859	0.5964	0.30638	0.089
Mof_N 	N 	0.23262	0.6834	0.31292	-0.142
Mof_C 	C 	0.20318	0.7184	0.2823	0.102
Mof_N 	N 	0.17963	0.6732	0.2499	-0.135
Mof_N 	N 	0.41897	0.4865	0.44707	-0.26
Mof_C 	C 	0.4326	0.4986	0.4089	0.075
Mof_H 	H 	0.4201	0.4686	0.3818	-0.012
Mof_C 	C 	0.4642	0.5533	0.4069	-0.119
Mof_H 	H 	0.4739	0.5596	0.3793	0.083
Mof_C 	C 	0.48141	0.5987	0.4464	0.048
Mof_C 	C 	0.46669	0.5882	0.4852	-0.113
Mof_H 	H 	0.4781	0.6194	0.5124	0.077
Mof_C 	C 	0.43498	0.5318	0.4851	0.065
Mof_H 	H 	0.4246	0.5253	0.5121	-0.003
Mof_N 	N 	0.64001	0.6561	0.31861	-0.273
Mof_C 	C 	0.6071	0.6098	0.3154	0.08
Mof_H 	H 	0.601	0.5659	0.2919	-0.017
Mof_C 	C 	0.5814	0.6227	0.3446	-0.121
Mof_H 	H 	0.558	0.5887	0.3412	0.084
Mof_C 	C 	0.59019	0.6858	0.3788	0.064
Mof_C 	C 	0.625	0.7334	0.3828	-0.117
Mof_H 	H 	0.6322	0.7772	0.4061	0.08
Mof_C 	C 	0.6489	0.7152	0.352	0.075
Mof_H 	H 	0.6728	0.7468	0.3549	-0.016
Mof_N 	N 	0.56163	0.0271	0.54514	-0.267
Mof_C 	C 	0.53364	0.9686	0.54936	0.072
Mof_H 	H 	0.5172	0.9816	0.5705	-0.006
Mof_C 	C 	0.52743	0.8906	0.52462	-0.118
Mof_H 	H 	0.5073	0.8504	0.5288	0.073
Mof_C 	C 	0.55099	0.8717	0.49356	0.048
Mof_C 	C 	0.5789	0.9333	0.4872	-0.109
Mof_H 	H 	0.5948	0.9225	0.4653	0.078
Mof_C 	C 	0.5835	0.0104	0.5128	0.052
Mof_H 	H 	0.6023	0.0532	0.5079	-0.006
Mof_C 	C 	0.51437	0.6602	0.44421	0.09
Mof_N 	N 	0.5359	0.6434	0.41282	-0.137
Mof_C 	C 	0.56424	0.7018	0.4115	0.099
Mof_N 	N 	0.57045	0.7766	0.43723	-0.138
Mof_C 	C 	0.54673	0.7868	0.46657	0.09
Mof_Zn	Zn	0.37282	0.3994	0.44383	0.545
Mof_N 	N 	0.51906	0.7292	0.47323	-0.149
Mof_Zn	Zn	0.1736	0.1365	0.2699	0.558
Mof_I 	I 	0.39311	0.26142	0.40635	-0.272
Mof_I 	I 	0.34936	0.41069	0.51855	-0.055
Mof_I 	I 	0.23503	0.2283	0.29808	-0.08
Mof_I 	I 	0.13255	0.15732	0.19076	-0.302
Mof_Zn	Zn	0.3699	0.4039	0.4491	0.554
Mof_I 	I 	0.3839	0.2576	0.4162	-0.074
Mof_I 	I 	0.3473	0.4268	0.5256	-0.267
Mof_Zn	Zn	0.1798	0.139	0.2756	0.564
Mof_I 	I 	0.2431	0.2131	0.3091	-0.264
Mof_I 	I 	0.1361	0.1679	0.2016	-0.062
Mof_Zn	Zn	0.57907	0.86905	0.09113	1.165
Mof_I 	I 	0.61434	0.75632	0.05081	-0.379
Mof_I 	I 	0.52486	0.8456	0.13476	-0.357
Mof_N 	N 	0.61977	0.9405	0.13778	-0.274
Mof_C 	C 	0.64921	0.902	0.165	0.079
Mof_H 	H 	0.6547	0.8409	0.1597	-0.016
Mof_C 	C 	0.67253	0.9457	0.2007	-0.133
Mof_H 	H 	0.6932	0.9149	0.22	0.076
Mof_C 	C 	0.66561	0.0349	0.2084	0.064
Mof_C 	C 	0.636	0.0765	0.1781	-0.128
Mof_H 	H 	0.6312	0.1387	0.1807	0.095
Mof_C 	C 	0.6138	0.0271	0.1445	0.081
Mof_H 	H 	0.5929	0.056	0.1246	-0.007
Mof_N 	N 	0.83003	0.9641	0.39792	-0.265
Mof_C 	C 	0.80982	0.922	0.3615	0.07
Mof_H 	H 	0.8163	0.8618	0.3559	-0.003
Mof_C 	C 	0.78002	0.9622	0.3317	-0.122
Mof_H 	H 	0.7657	0.9297	0.3065	0.086
Mof_C 	C 	0.7709	0.0515	0.3386	0.042
Mof_C 	C 	0.79183	0.0956	0.3763	-0.11
Mof_H 	H 	0.7863	0.1563	0.3822	0.082
Mof_C 	C 	0.82107	0.0494	0.4054	0.062
Mof_H 	H 	0.8353	0.0794	0.4315	0.002
Mof_N 	N 	0.68553	0.5007	0.27743	-0.268
Mof_C 	C 	0.6595	0.4451	0.2526	0.063
Mof_H 	H 	0.6374	0.4697	0.2327	-0.011
Mof_C 	C 	0.6639	0.3525	0.2551	-0.117
Mof_H 	H 	0.6447	0.3143	0.238	0.082
Mof_C 	C 	0.69654	0.3171	0.2829	0.058
Mof_C 	C 	0.72265	0.3745	0.3088	-0.123
Mof_H 	H 	0.7449	0.3518	0.3292	0.079
Mof_C 	C 	0.71622	0.4661	0.3047	0.074
Mof_H 	H 	0.7347	0.5054	0.3223	-0.013
Mof_C 	C 	0.68929	0.0867	0.24615	0.098
Mof_N 	N 	0.71877	0.0455	0.27312	-0.144
Mof_C 	C 	0.73859	0.0964	0.30638	0.089
Mof_N 	N 	0.73262	0.1834	0.31292	-0.142
Mof_C 	C 	0.70318	0.2184	0.2823	0.102
Mof_N 	N 	0.67963	0.1732	0.2499	-0.135
Mof_N 	N 	0.91897	0.9865	0.44707	-0.26
Mof_C 	C 	0.9326	0.9986	0.4089	0.075
Mof_H 	H 	0.9201	0.9686	0.3818	-0.012
Mof_C 	C 	0.9642	0.0533	0.4069	-0.118
Mof_H 	H 	0.9739	0.0596	0.3793	0.083
Mof_C 	C 	0.98141	0.0987	0.4464	0.048
Mof_C 	C 	0.96669	0.0882	0.4852	-0.113
Mof_H 	H 	0.9781	0.1194	0.5124	0.077
Mof_C 	C 	0.93498	0.0318	0.4851	0.065
Mof_H 	H 	0.9246	0.0253	0.5121	-0.003
Mof_N 	N 	0.14001	0.1561	0.31861	-0.273
Mof_C 	C 	0.1071	0.1098	0.3154	0.08
Mof_H 	H 	0.101	0.0659	0.2919	-0.017
Mof_C 	C 	0.0814	0.1227	0.3446	-0.121
Mof_H 	H 	0.058	0.0887	0.3412	0.084
Mof_C 	C 	0.09019	0.1858	0.3788	0.064
Mof_C 	C 	0.125	0.2334	0.3828	-0.117
Mof_H 	H 	0.1322	0.2772	0.4061	0.08
Mof_C 	C 	0.1489	0.2152	0.352	0.075
Mof_H 	H 	0.1728	0.2468	0.3549	-0.016
Mof_N 	N 	0.06163	0.5271	0.54514	-0.266
Mof_C 	C 	0.03364	0.4686	0.54936	0.072
Mof_H 	H 	0.0172	0.4816	0.5705	-0.006
Mof_C 	C 	0.02743	0.3906	0.52462	-0.118
Mof_H 	H 	0.0073	0.3504	0.5288	0.073
Mof_C 	C 	0.05099	0.3717	0.49356	0.048
Mof_C 	C 	0.0789	0.4333	0.4872	-0.109
Mof_H 	H 	0.0948	0.4225	0.4653	0.078
Mof_C 	C 	0.0835	0.5104	0.5128	0.052
Mof_H 	H 	0.1023	0.5532	0.5079	-0.006
Mof_C 	C 	0.01437	0.1602	0.44421	0.09
Mof_N 	N 	0.0359	0.1434	0.41282	-0.137
Mof_C 	C 	0.06424	0.2018	0.4115	0.099
Mof_N 	N 	0.07045	0.2766	0.43723	-0.138
Mof_C 	C 	0.04673	0.2868	0.46657	0.09
Mof_Zn	Zn	0.87282	0.8994	0.44383	0.545
Mof_N 	N 	0.01906	0.2292	0.47323	-0.149
Mof_Zn	Zn	0.6736	0.6365	0.2699	0.558
Mof_I 	I 	0.89311	0.76142	0.40635	-0.272
Mof_I 	I 	0.84936	0.91069	0.51855	-0.055
Mof_I 	I 	0.73503	0.7283	0.29808	-0.08
Mof_I 	I 	0.63255	0.65732	0.19076	-0.302
Mof_Zn	Zn	0.8699	0.9039	0.4491	0.554
Mof_I 	I 	0.8839	0.7576	0.4162	-0.074
Mof_I 	I 	0.8473	0.9268	0.5256	-0.267
Mof_Zn	Zn	0.6798	0.639	0.2756	0.564
Mof_I 	I 	0.7431	0.7131	0.3091	-0.264
Mof_I 	I 	0.6361	0.6679	0.2016	-0.062
_end
