data_functionalizedCrystal
_audit_creation_method	'EQeq! by Chris Wilmer'
_symmetry_space_group_name_H-M	'P1'
_symmetry_Int_Tables_number	1
_symmetry_cell_setting	triclinic
loop_
_symmetry_equiv_pos_as_xyz
  x,y,z
_cell_length_a	8.8383
_cell_length_b	18.4543
_cell_length_c	18.0608
_cell_angle_alpha	90
_cell_angle_beta	92.572
_cell_angle_gamma	90
loop_
_atom_site_label
_atom_site_type_symbol
_atom_site_fract_x
_atom_site_fract_y
_atom_site_fract_z
_atom_site_charge
Mof_Dy	Dy	0.26379	0.31496	0.15925	2.336
Mof_Dy	Dy	0.29013	0.20404	0.70841	2.309
Mof_O 	O 	0.1416	0.2362	0.0752	-0.518
Mof_O 	O 	0.9092	0.236	0.1196	-0.597
Mof_O 	O 	0.0226	0.1928	0.9404	-0.131
Mof_O 	O 	0.908	0.1392	0.7571	-0.565
Mof_O 	O 	0.1277	0.1861	0.8019	-0.543
Mof_O 	O 	0.9561	0.6312	0.7825	-0.601
Mof_O 	O 	0.1769	0.5778	0.7732	-0.455
Mof_O 	O 	0.05	0.4502	0.7314	-0.126
Mof_O 	O 	0.9409	0.2754	0.6668	-0.57
Mof_O 	O 	0.1656	0.3165	0.7109	-0.49
Mof_O 	O 	0.147	0.1558	0.6155	-0.586
Mof_O 	O 	0.9211	0.1715	0.5573	-0.478
Mof_O 	O 	0.0527	0.1962	0.4282	-0.121
Mof_O 	O 	0.9467	0.2365	0.2918	-0.539
Mof_O 	O 	0.1808	0.2364	0.2498	-0.56
Mof_O 	O 	0.281	0.4439	0.1345	-0.296
Mof_O 	O 	0.1143	0.3861	0.0681	-0.3
Mof_C 	C 	0.0033	0.2235	0.0708	0.484
Mof_C 	C 	0.9361	0.1917	0.0002	-0.019
Mof_C 	C 	0.8011	0.1586	0.9837	-0.029
Mof_H 	H 	0.7239	0.1499	0.0159	0.051
Mof_C 	C 	0.802	0.1404	0.9088	-0.009
Mof_H 	H 	0.7246	0.1177	0.881	0.034
Mof_C 	C 	0.9364	0.1621	0.8845	-0.036
Mof_C 	C 	0.9958	0.1632	0.8084	0.486
Mof_C 	C 	0.0339	0.5764	0.7668	0.386
Mof_C 	C 	0.957	0.5105	0.7402	0
Mof_C 	C 	0.8115	0.4923	0.7206	-0.033
Mof_H 	H 	0.7272	0.5224	0.7221	0.06
Mof_C 	C 	0.8129	0.4185	0.6973	-0.003
Mof_H 	H 	0.73	0.3914	0.6799	0.045
Mof_C 	C 	0.9577	0.3955	0.7055	-0.031
Mof_C 	C 	0.026	0.3239	0.6935	0.467
Mof_C 	C 	0.0619	0.1656	0.5582	0.485
Mof_C 	C 	0.138	0.1694	0.4871	-0.028
Mof_C 	C 	0.2794	0.1515	0.4674	-0.01
Mof_H 	H 	0.3573	0.1323	0.4977	0.067
Mof_C 	C 	0.2837	0.1686	0.3901	0.004
Mof_H 	H 	0.3653	0.1617	0.36	0.055
Mof_C 	C 	0.1476	0.1964	0.3691	-0.045
Mof_C 	C 	0.0869	0.225	0.2982	0.498
Mof_O 	O 	0.082	0.5011	0.077	-0.066
Mof_N 	N 	0.149	0.4458	0.0921	0.042
Mof_O 	O 	0.194	0.4973	0.0333	-0.056
Mof_N 	N 	0.213	0.4411	0.0741	0.036
Mof_Dy	Dy	0.23621	0.81496	0.34075	2.335
Mof_Dy	Dy	0.20987	0.70404	0.79159	2.308
Mof_O 	O 	0.3584	0.7362	0.4248	-0.519
Mof_O 	O 	0.5908	0.736	0.3804	-0.6
Mof_O 	O 	0.4774	0.6928	0.5596	-0.131
Mof_O 	O 	0.592	0.6392	0.7429	-0.566
Mof_O 	O 	0.3723	0.6861	0.6981	-0.542
Mof_O 	O 	0.5439	0.1312	0.7175	-0.6
Mof_O 	O 	0.3231	0.0778	0.7268	-0.455
Mof_O 	O 	0.45	0.9502	0.7686	-0.127
Mof_O 	O 	0.5591	0.7754	0.8332	-0.571
Mof_O 	O 	0.3344	0.8165	0.7891	-0.49
Mof_O 	O 	0.353	0.6558	0.8845	-0.586
Mof_O 	O 	0.5789	0.6715	0.9427	-0.479
Mof_O 	O 	0.4473	0.6962	0.0718	-0.121
Mof_O 	O 	0.5533	0.7365	0.2082	-0.54
Mof_O 	O 	0.3192	0.7364	0.2502	-0.561
Mof_O 	O 	0.219	0.9439	0.3655	-0.295
Mof_O 	O 	0.3857	0.8861	0.4319	-0.299
Mof_C 	C 	0.4967	0.7235	0.4292	0.488
Mof_C 	C 	0.5639	0.6917	0.4998	-0.023
Mof_C 	C 	0.6989	0.6586	0.5163	-0.026
Mof_H 	H 	0.7761	0.6499	0.4841	0.05
Mof_C 	C 	0.698	0.6404	0.5912	-0.011
Mof_H 	H 	0.7754	0.6177	0.619	0.035
Mof_C 	C 	0.5636	0.6621	0.6155	-0.035
Mof_C 	C 	0.5042	0.6632	0.6916	0.486
Mof_C 	C 	0.4661	0.0764	0.7332	0.384
Mof_C 	C 	0.543	0.0105	0.7598	0.002
Mof_C 	C 	0.6885	0.9923	0.7794	-0.036
Mof_H 	H 	0.7728	0.0224	0.7779	0.061
Mof_C 	C 	0.6871	0.9185	0.8027	-0.001
Mof_H 	H 	0.77	0.8914	0.8201	0.044
Mof_C 	C 	0.5423	0.8955	0.7945	-0.032
Mof_C 	C 	0.474	0.8239	0.8065	0.468
Mof_C 	C 	0.4381	0.6656	0.9418	0.486
Mof_C 	C 	0.362	0.6694	0.0129	-0.029
Mof_C 	C 	0.2206	0.6515	0.0326	-0.009
Mof_H 	H 	0.1427	0.6323	0.0023	0.066
Mof_C 	C 	0.2163	0.6686	0.1099	0.005
Mof_H 	H 	0.1347	0.6617	0.14	0.055
Mof_C 	C 	0.3524	0.6964	0.1309	-0.045
Mof_C 	C 	0.4131	0.725	0.2018	0.5
Mof_O 	O 	0.418	0.0011	0.423	-0.067
Mof_N 	N 	0.351	0.9458	0.4079	0.042
Mof_O 	O 	0.306	0.9973	0.4667	-0.056
Mof_N 	N 	0.287	0.9411	0.4259	0.036
Mof_Dy	Dy	0.73621	0.68504	0.84075	2.335
Mof_Dy	Dy	0.70987	0.79596	0.29159	2.308
Mof_O 	O 	0.8584	0.7638	0.9248	-0.519
Mof_O 	O 	0.0908	0.764	0.8804	-0.598
Mof_O 	O 	0.9774	0.8072	0.0596	-0.132
Mof_O 	O 	0.092	0.8608	0.2429	-0.566
Mof_O 	O 	0.8723	0.8139	0.1981	-0.543
Mof_O 	O 	0.0439	0.3688	0.2175	-0.601
Mof_O 	O 	0.8231	0.4222	0.2268	-0.455
Mof_O 	O 	0.95	0.5498	0.2686	-0.126
Mof_O 	O 	0.0591	0.7246	0.3332	-0.57
Mof_O 	O 	0.8344	0.6835	0.2891	-0.49
Mof_O 	O 	0.853	0.8442	0.3845	-0.586
Mof_O 	O 	0.0789	0.8285	0.4427	-0.478
Mof_O 	O 	0.9473	0.8038	0.5718	-0.121
Mof_O 	O 	0.0533	0.7635	0.7082	-0.539
Mof_O 	O 	0.8192	0.7636	0.7502	-0.56
Mof_O 	O 	0.719	0.5561	0.8655	-0.296
Mof_O 	O 	0.8857	0.6139	0.9319	-0.3
Mof_C 	C 	0.9967	0.7765	0.9292	0.484
Mof_C 	C 	0.0639	0.8083	0.9998	-0.019
Mof_C 	C 	0.1989	0.8414	0.0163	-0.029
Mof_H 	H 	0.2761	0.8501	0.9841	0.051
Mof_C 	C 	0.198	0.8596	0.0912	-0.009
Mof_H 	H 	0.2754	0.8823	0.119	0.034
Mof_C 	C 	0.0636	0.8379	0.1155	-0.036
Mof_C 	C 	0.0042	0.8368	0.1916	0.486
Mof_C 	C 	0.9661	0.4236	0.2332	0.386
Mof_C 	C 	0.043	0.4895	0.2598	0
Mof_C 	C 	0.1885	0.5077	0.2794	-0.033
Mof_H 	H 	0.2728	0.4776	0.2779	0.06
Mof_C 	C 	0.1871	0.5815	0.3027	-0.003
Mof_H 	H 	0.27	0.6086	0.3201	0.045
Mof_C 	C 	0.0423	0.6045	0.2945	-0.031
Mof_C 	C 	0.974	0.6761	0.3065	0.467
Mof_C 	C 	0.9381	0.8344	0.4418	0.485
Mof_C 	C 	0.862	0.8306	0.5129	-0.028
Mof_C 	C 	0.7206	0.8485	0.5326	-0.01
Mof_H 	H 	0.6427	0.8677	0.5023	0.067
Mof_C 	C 	0.7163	0.8314	0.6099	0.004
Mof_H 	H 	0.6347	0.8383	0.64	0.055
Mof_C 	C 	0.8524	0.8036	0.6309	-0.045
Mof_C 	C 	0.9131	0.775	0.7018	0.498
Mof_O 	O 	0.918	0.4989	0.923	-0.066
Mof_N 	N 	0.851	0.5542	0.9079	0.042
Mof_O 	O 	0.806	0.5027	0.9667	-0.056
Mof_N 	N 	0.787	0.5589	0.9259	0.036
Mof_Dy	Dy	0.76379	0.18504	0.65925	2.335
Mof_Dy	Dy	0.79013	0.29596	0.20841	2.308
Mof_O 	O 	0.6416	0.2638	0.5752	-0.519
Mof_O 	O 	0.4092	0.264	0.6196	-0.6
Mof_O 	O 	0.5226	0.3072	0.4404	-0.131
Mof_O 	O 	0.408	0.3608	0.2571	-0.566
Mof_O 	O 	0.6277	0.3139	0.3019	-0.542
Mof_O 	O 	0.4561	0.8688	0.2825	-0.6
Mof_O 	O 	0.6769	0.9222	0.2732	-0.455
Mof_O 	O 	0.55	0.0498	0.2314	-0.127
Mof_O 	O 	0.4409	0.2246	0.1668	-0.571
Mof_O 	O 	0.6656	0.1835	0.2109	-0.49
Mof_O 	O 	0.647	0.3442	0.1155	-0.586
Mof_O 	O 	0.4211	0.3285	0.0573	-0.479
Mof_O 	O 	0.5527	0.3038	0.9282	-0.121
Mof_O 	O 	0.4467	0.2635	0.7918	-0.54
Mof_O 	O 	0.6808	0.2636	0.7498	-0.561
Mof_O 	O 	0.781	0.0561	0.6345	-0.295
Mof_O 	O 	0.6143	0.1139	0.5681	-0.299
Mof_C 	C 	0.5033	0.2765	0.5708	0.488
Mof_C 	C 	0.4361	0.3083	0.5002	-0.023
Mof_C 	C 	0.3011	0.3414	0.4837	-0.026
Mof_H 	H 	0.2239	0.3501	0.5159	0.05
Mof_C 	C 	0.302	0.3596	0.4088	-0.011
Mof_H 	H 	0.2246	0.3823	0.381	0.035
Mof_C 	C 	0.4364	0.3379	0.3845	-0.035
Mof_C 	C 	0.4958	0.3368	0.3084	0.486
Mof_C 	C 	0.5339	0.9236	0.2668	0.384
Mof_C 	C 	0.457	0.9895	0.2402	0.002
Mof_C 	C 	0.3115	0.0077	0.2206	-0.036
Mof_H 	H 	0.2272	0.9776	0.2221	0.061
Mof_C 	C 	0.3129	0.0815	0.1973	-0.001
Mof_H 	H 	0.23	0.1086	0.1799	0.044
Mof_C 	C 	0.4577	0.1045	0.2055	-0.032
Mof_C 	C 	0.526	0.1761	0.1935	0.468
Mof_C 	C 	0.5619	0.3344	0.0582	0.486
Mof_C 	C 	0.638	0.3306	0.9871	-0.029
Mof_C 	C 	0.7794	0.3485	0.9674	-0.009
Mof_H 	H 	0.8573	0.3677	0.9977	0.066
Mof_C 	C 	0.7837	0.3314	0.8901	0.005
Mof_H 	H 	0.8653	0.3383	0.86	0.055
Mof_C 	C 	0.6476	0.3036	0.8691	-0.045
Mof_C 	C 	0.5869	0.275	0.7982	0.5
Mof_O 	O 	0.582	0.9989	0.577	-0.067
Mof_N 	N 	0.649	0.0542	0.5921	0.042
Mof_O 	O 	0.694	0.0027	0.5333	-0.056
Mof_N 	N 	0.713	0.0589	0.5741	0.036
_end
