data_functionalizedCrystal
_audit_creation_method	'EQeq! by Chris Wilmer'
_symmetry_space_group_name_H-M	'P1'
_symmetry_Int_Tables_number	1
_symmetry_cell_setting	triclinic
loop_
_symmetry_equiv_pos_as_xyz
  x,y,z
_cell_length_a	17.6726
_cell_length_b	20.0232
_cell_length_c	10.5553
_cell_angle_alpha	90
_cell_angle_beta	91.129
_cell_angle_gamma	90
loop_
_atom_site_label
_atom_site_type_symbol
_atom_site_fract_x
_atom_site_fract_y
_atom_site_fract_z
_atom_site_charge
Mof_Eu	Eu	0.49184	0.4819	0.75354	2.267
Mof_Eu	Eu	7e-05	0.26563	0.32222	2.218
Mof_O 	O 	0.4082	0.472	0.916	-0.638
Mof_O 	O 	0.3998	0.4975	0.1203	-0.586
Mof_O 	O 	0.1004	0.258	0.9669	-0.574
Mof_O 	O 	0.08	0.2975	0.1612	-0.62
Mof_O 	O 	0.5633	0.4522	0.5841	-0.638
Mof_O 	O 	0.5967	0.4657	0.3847	-0.583
Mof_O 	O 	0.9202	0.2756	0.4897	-0.63
Mof_O 	O 	0.9064	0.2887	0.6977	-0.569
Mof_O 	O 	0.4796	0.599	0.8359	-0.323
Mof_O 	O 	0.5531	0.5877	0.6784	-0.31
Mof_O 	O 	0.5444	0.6837	0.7706	-0.151
Mof_O 	O 	0.9846	0.1455	0.3965	-0.292
Mof_O 	O 	0.0594	0.1615	0.2406	-0.318
Mof_O 	O 	0.0309	0.0602	0.2975	-0.147
Mof_N 	N 	0.5257	0.625	0.7612	0.077
Mof_N 	N 	0.0248	0.1206	0.3118	0.071
Mof_C 	C 	0.1146	0.2961	0.0595	0.546
Mof_C 	C 	0.1796	0.3438	0.0466	-0.145
Mof_C 	C 	0.217	0.3508	0.9329	0.001
Mof_H 	H 	0.1996	0.3267	0.8606	0.037
Mof_C 	C 	0.2784	0.3918	0.9231	0.018
Mof_H 	H 	0.3029	0.3964	0.8443	-0
Mof_C 	C 	0.3051	0.427	0.0291	-0.158
Mof_C 	C 	0.2676	0.4213	0.1416	0.014
Mof_H 	H 	0.285	0.4456	0.2137	0.031
Mof_C 	C 	0.2049	0.3807	0.1504	0.009
Mof_H 	H 	0.1788	0.378	0.2281	0.013
Mof_C 	C 	0.3757	0.4691	0.021	0.549
Mof_C 	C 	0.6075	0.4435	0.4941	0.561
Mof_C 	C 	0.6778	0.4024	0.5182	-0.167
Mof_C 	C 	0.7191	0.3801	0.4174	-0
Mof_H 	H 	0.7026	0.3897	0.3332	0.03
Mof_C 	C 	0.7847	0.3435	0.4386	0.01
Mof_H 	H 	0.8126	0.3274	0.3689	-0.01
Mof_C 	C 	0.8096	0.3305	0.5609	-0.155
Mof_C 	C 	0.7683	0.3522	0.6605	-0.005
Mof_H 	H 	0.7851	0.3422	0.7444	0.035
Mof_C 	C 	0.7026	0.3882	0.6419	0.015
Mof_H 	H 	0.6745	0.4032	0.7123	0
Mof_C 	C 	0.8846	0.2953	0.5852	0.522
Mof_Eu	Eu	0.50816	0.9819	0.74646	2.265
Mof_Eu	Eu	0.99993	0.76563	0.17778	2.211
Mof_O 	O 	0.5918	0.972	0.584	-0.639
Mof_O 	O 	0.6002	0.9975	0.3797	-0.586
Mof_O 	O 	0.8996	0.758	0.5331	-0.573
Mof_O 	O 	0.92	0.7975	0.3388	-0.62
Mof_O 	O 	0.4367	0.9522	0.9159	-0.641
Mof_O 	O 	0.4033	0.9657	0.1153	-0.583
Mof_O 	O 	0.0798	0.7756	0.0103	-0.626
Mof_O 	O 	0.0936	0.7887	0.8023	-0.569
Mof_O 	O 	0.5204	0.099	0.6641	-0.322
Mof_O 	O 	0.4469	0.0877	0.8216	-0.31
Mof_O 	O 	0.4556	0.1837	0.7294	-0.151
Mof_O 	O 	0.0154	0.6455	0.1035	-0.293
Mof_O 	O 	0.9406	0.6615	0.2594	-0.317
Mof_O 	O 	0.9691	0.5602	0.2025	-0.145
Mof_N 	N 	0.4743	0.125	0.7388	0.077
Mof_N 	N 	0.9752	0.6206	0.1882	0.071
Mof_C 	C 	0.8854	0.7961	0.4405	0.545
Mof_C 	C 	0.8204	0.8438	0.4534	-0.145
Mof_C 	C 	0.783	0.8508	0.5671	0.002
Mof_H 	H 	0.8004	0.8267	0.6394	0.036
Mof_C 	C 	0.7216	0.8918	0.5769	0.018
Mof_H 	H 	0.6971	0.8964	0.6557	-0.001
Mof_C 	C 	0.6949	0.927	0.4709	-0.159
Mof_C 	C 	0.7324	0.9213	0.3584	0.013
Mof_H 	H 	0.715	0.9456	0.2863	0.031
Mof_C 	C 	0.7951	0.8807	0.3496	0.008
Mof_H 	H 	0.8212	0.878	0.2719	0.013
Mof_C 	C 	0.6243	0.9691	0.479	0.549
Mof_C 	C 	0.3925	0.9435	0.0059	0.567
Mof_C 	C 	0.3222	0.9024	0.9818	-0.175
Mof_C 	C 	0.2809	0.8801	0.0826	0.006
Mof_H 	H 	0.2974	0.8897	0.1668	0.029
Mof_C 	C 	0.2153	0.8435	0.0614	0.011
Mof_H 	H 	0.1874	0.8274	0.1311	-0.009
Mof_C 	C 	0.1904	0.8305	0.9391	-0.156
Mof_C 	C 	0.2317	0.8522	0.8395	-0.007
Mof_H 	H 	0.2149	0.8422	0.7556	0.036
Mof_C 	C 	0.2974	0.8882	0.8581	0.019
Mof_H 	H 	0.3255	0.9032	0.7877	-0.001
Mof_C 	C 	0.1154	0.7953	0.9148	0.518
Mof_Eu	Eu	0.50816	0.5181	0.24646	2.266
Mof_Eu	Eu	0.99993	0.73437	0.67778	2.217
Mof_O 	O 	0.5918	0.528	0.084	-0.639
Mof_O 	O 	0.6002	0.5025	0.8797	-0.587
Mof_O 	O 	0.8996	0.742	0.0331	-0.574
Mof_O 	O 	0.92	0.7025	0.8388	-0.62
Mof_O 	O 	0.4367	0.5478	0.4159	-0.638
Mof_O 	O 	0.4033	0.5343	0.6153	-0.583
Mof_O 	O 	0.0798	0.7244	0.5103	-0.63
Mof_O 	O 	0.0936	0.7113	0.3023	-0.569
Mof_O 	O 	0.5204	0.401	0.1641	-0.323
Mof_O 	O 	0.4469	0.4123	0.3216	-0.31
Mof_O 	O 	0.4556	0.3163	0.2294	-0.151
Mof_O 	O 	0.0154	0.8545	0.6035	-0.292
Mof_O 	O 	0.9406	0.8385	0.7594	-0.318
Mof_O 	O 	0.9691	0.9398	0.7025	-0.147
Mof_N 	N 	0.4743	0.375	0.2388	0.077
Mof_N 	N 	0.9752	0.8794	0.6882	0.071
Mof_C 	C 	0.8854	0.7039	0.9405	0.546
Mof_C 	C 	0.8204	0.6562	0.9534	-0.145
Mof_C 	C 	0.783	0.6492	0.0671	0.001
Mof_H 	H 	0.8004	0.6733	0.1394	0.037
Mof_C 	C 	0.7216	0.6082	0.0769	0.018
Mof_H 	H 	0.6971	0.6036	0.1557	-0
Mof_C 	C 	0.6949	0.573	0.9709	-0.158
Mof_C 	C 	0.7324	0.5787	0.8584	0.014
Mof_H 	H 	0.715	0.5544	0.7863	0.031
Mof_C 	C 	0.7951	0.6193	0.8496	0.009
Mof_H 	H 	0.8212	0.622	0.7719	0.013
Mof_C 	C 	0.6243	0.5309	0.979	0.549
Mof_C 	C 	0.3925	0.5565	0.5059	0.561
Mof_C 	C 	0.3222	0.5976	0.4818	-0.167
Mof_C 	C 	0.2809	0.6199	0.5826	-0
Mof_H 	H 	0.2974	0.6103	0.6668	0.03
Mof_C 	C 	0.2153	0.6565	0.5614	0.01
Mof_H 	H 	0.1874	0.6726	0.6311	-0.01
Mof_C 	C 	0.1904	0.6695	0.4391	-0.155
Mof_C 	C 	0.2317	0.6478	0.3395	-0.005
Mof_H 	H 	0.2149	0.6578	0.2556	0.035
Mof_C 	C 	0.2974	0.6118	0.3581	0.015
Mof_H 	H 	0.3255	0.5968	0.2877	0
Mof_C 	C 	0.1154	0.7047	0.4148	0.522
Mof_Eu	Eu	0.49184	0.0181	0.25354	2.265
Mof_Eu	Eu	7e-05	0.23437	0.82222	2.211
Mof_O 	O 	0.4082	0.028	0.416	-0.639
Mof_O 	O 	0.3998	0.0025	0.6203	-0.586
Mof_O 	O 	0.1004	0.242	0.4669	-0.573
Mof_O 	O 	0.08	0.2025	0.6612	-0.62
Mof_O 	O 	0.5633	0.0478	0.0841	-0.641
Mof_O 	O 	0.5967	0.0343	0.8847	-0.583
Mof_O 	O 	0.9202	0.2244	0.9897	-0.626
Mof_O 	O 	0.9064	0.2113	0.1977	-0.569
Mof_O 	O 	0.4796	0.901	0.3359	-0.322
Mof_O 	O 	0.5531	0.9123	0.1784	-0.31
Mof_O 	O 	0.5444	0.8163	0.2706	-0.151
Mof_O 	O 	0.9846	0.3545	0.8965	-0.293
Mof_O 	O 	0.0594	0.3385	0.7406	-0.317
Mof_O 	O 	0.0309	0.4398	0.7975	-0.145
Mof_N 	N 	0.5257	0.875	0.2612	0.077
Mof_N 	N 	0.0248	0.3794	0.8118	0.071
Mof_C 	C 	0.1146	0.2039	0.5595	0.545
Mof_C 	C 	0.1796	0.1562	0.5466	-0.145
Mof_C 	C 	0.217	0.1492	0.4329	0.002
Mof_H 	H 	0.1996	0.1733	0.3606	0.036
Mof_C 	C 	0.2784	0.1082	0.4231	0.018
Mof_H 	H 	0.3029	0.1036	0.3443	-0.001
Mof_C 	C 	0.3051	0.073	0.5291	-0.159
Mof_C 	C 	0.2676	0.0787	0.6416	0.013
Mof_H 	H 	0.285	0.0544	0.7137	0.031
Mof_C 	C 	0.2049	0.1193	0.6504	0.008
Mof_H 	H 	0.1788	0.122	0.7281	0.013
Mof_C 	C 	0.3757	0.0309	0.521	0.549
Mof_C 	C 	0.6075	0.0565	0.9941	0.567
Mof_C 	C 	0.6778	0.0976	0.0182	-0.175
Mof_C 	C 	0.7191	0.1199	0.9174	0.006
Mof_H 	H 	0.7026	0.1103	0.8332	0.029
Mof_C 	C 	0.7847	0.1565	0.9386	0.011
Mof_H 	H 	0.8126	0.1726	0.8689	-0.009
Mof_C 	C 	0.8096	0.1695	0.0609	-0.156
Mof_C 	C 	0.7683	0.1478	0.1605	-0.007
Mof_H 	H 	0.7851	0.1578	0.2444	0.036
Mof_C 	C 	0.7026	0.1118	0.1419	0.019
Mof_H 	H 	0.6745	0.0968	0.2123	-0.001
Mof_C 	C 	0.8846	0.2047	0.0852	0.518
_end
