data_functionalizedCrystal
_audit_creation_method	'EQeq! by Chris Wilmer'
_symmetry_space_group_name_H-M	'P1'
_symmetry_Int_Tables_number	1
_symmetry_cell_setting	triclinic
loop_
_symmetry_equiv_pos_as_xyz
  x,y,z
_cell_length_a	19.4032
_cell_length_b	19.4032
_cell_length_c	26.787
_cell_angle_alpha	90
_cell_angle_beta	90
_cell_angle_gamma	90
loop_
_atom_site_label
_atom_site_type_symbol
_atom_site_fract_x
_atom_site_fract_y
_atom_site_fract_z
_atom_site_charge
Mof_O 	O 	0.4485	0.4473	0.432	-0.489
Mof_O 	O 	0.3136	0.3105	0.3089	-0.495
Mof_O 	O 	0.387	0.5112	0.4839	-0.498
Mof_O 	O 	0.2029	0.3348	0.2957	-0.478
Mof_C 	C 	0.2128	0.4515	0.3563	-0.035
Mof_H 	H 	0.1721	0.4452	0.3385	0.049
Mof_C 	C 	0.1651	0.6167	0.3539	0.088
Mof_C 	C 	0.2186	0.5081	0.3875	0.021
Mof_C 	C 	0.1635	0.5636	0.3882	-0.1
Mof_C 	C 	0.2759	0.5151	0.4175	-0.042
Mof_H 	H 	0.2787	0.5511	0.4404	0.048
Mof_C 	C 	0.2649	0.4046	0.3506	-0.108
Mof_C 	C 	0.1092	0.5592	0.4237	0.094
Mof_C 	C 	0.3313	0.4663	0.4132	-0.11
Mof_C 	C 	0.3266	0.4131	0.3804	0.036
Mof_H 	H 	0.363	0.3823	0.3771	0.033
Mof_C 	C 	0.2586	0.3447	0.316	0.404
Mof_C 	C 	0.2255	0.6183	0.3168	-0.546
Mof_H 	H 	0.2111	0.599	0.2856	0.178
Mof_H 	H 	0.2632	0.5919	0.33	0.189
Mof_H 	H 	0.24	0.6651	0.3118	0.166
Mof_C 	C 	0.1083	0.5007	0.4604	-0.565
Mof_H 	H 	0.1143	0.5185	0.4936	0.178
Mof_H 	H 	0.1451	0.4693	0.4528	0.196
Mof_H 	H 	0.065	0.477	0.4583	0.177
Mof_C 	C 	0.3935	0.4756	0.4463	0.415
Mof_O 	O 	0.0515	0.0527	0.432	-0.49
Mof_O 	O 	0.1864	0.1895	0.3089	-0.495
Mof_O 	O 	0.113	0.9888	0.4839	-0.497
Mof_O 	O 	0.2971	0.1652	0.2957	-0.478
Mof_C 	C 	0.2872	0.0485	0.3563	-0.037
Mof_H 	H 	0.3279	0.0548	0.3385	0.049
Mof_C 	C 	0.3349	0.8833	0.3539	0.087
Mof_C 	C 	0.2814	0.9919	0.3875	0.022
Mof_C 	C 	0.3365	0.9364	0.3882	-0.098
Mof_C 	C 	0.2241	0.9849	0.4175	-0.041
Mof_H 	H 	0.2213	0.9489	0.4404	0.048
Mof_C 	C 	0.2351	0.0954	0.3506	-0.107
Mof_C 	C 	0.3908	0.9408	0.4237	0.091
Mof_C 	C 	0.1687	0.0337	0.4132	-0.111
Mof_C 	C 	0.1734	0.0869	0.3804	0.036
Mof_H 	H 	0.137	0.1177	0.3771	0.033
Mof_C 	C 	0.2414	0.1553	0.316	0.403
Mof_C 	C 	0.2745	0.8817	0.3168	-0.546
Mof_H 	H 	0.2889	0.901	0.2856	0.179
Mof_H 	H 	0.2368	0.9081	0.33	0.19
Mof_H 	H 	0.26	0.8349	0.3118	0.166
Mof_C 	C 	0.3917	0.9993	0.4604	-0.557
Mof_H 	H 	0.3857	0.9815	0.4936	0.176
Mof_H 	H 	0.3549	0.0307	0.4528	0.193
Mof_H 	H 	0.435	0.023	0.4583	0.174
Mof_C 	C 	0.1065	0.0244	0.4463	0.414
Mof_O 	O 	0.0527	0.4485	0.932	-0.49
Mof_O 	O 	0.1895	0.3136	0.8089	-0.495
Mof_O 	O 	0.9888	0.387	0.9839	-0.494
Mof_O 	O 	0.1652	0.2029	0.7957	-0.478
Mof_C 	C 	0.0485	0.2128	0.8563	-0.039
Mof_H 	H 	0.0548	0.1721	0.8385	0.05
Mof_C 	C 	0.8833	0.1651	0.8539	0.088
Mof_C 	C 	0.9919	0.2186	0.8875	0.024
Mof_C 	C 	0.9364	0.1635	0.8882	-0.097
Mof_C 	C 	0.9849	0.2759	0.9175	-0.039
Mof_H 	H 	0.9489	0.2787	0.9404	0.048
Mof_C 	C 	0.0954	0.2649	0.8506	-0.107
Mof_C 	C 	0.9408	0.1092	0.9237	0.088
Mof_C 	C 	0.0337	0.3313	0.9132	-0.113
Mof_C 	C 	0.0869	0.3266	0.8804	0.036
Mof_H 	H 	0.1177	0.363	0.8771	0.033
Mof_C 	C 	0.1553	0.2586	0.816	0.403
Mof_C 	C 	0.8817	0.2255	0.8168	-0.546
Mof_H 	H 	0.901	0.2111	0.7856	0.179
Mof_H 	H 	0.9081	0.2632	0.83	0.19
Mof_H 	H 	0.8349	0.24	0.8118	0.166
Mof_C 	C 	0.9993	0.1083	0.9604	-0.528
Mof_H 	H 	0.9815	0.1143	0.9936	0.17
Mof_H 	H 	0.0307	0.1451	0.9528	0.183
Mof_H 	H 	0.023	0.065	0.9583	0.163
Mof_C 	C 	0.0244	0.3935	0.9463	0.411
Mof_O 	O 	0.4473	0.0515	0.932	-0.488
Mof_O 	O 	0.3105	0.1864	0.8089	-0.495
Mof_O 	O 	0.5112	0.113	0.9839	-0.497
Mof_O 	O 	0.3348	0.2971	0.7957	-0.478
Mof_C 	C 	0.4515	0.2872	0.8563	-0.035
Mof_H 	H 	0.4452	0.3279	0.8385	0.049
Mof_C 	C 	0.6167	0.3349	0.8539	0.088
Mof_C 	C 	0.5081	0.2814	0.8875	0.021
Mof_C 	C 	0.5636	0.3365	0.8882	-0.099
Mof_C 	C 	0.5151	0.2241	0.9175	-0.042
Mof_H 	H 	0.5511	0.2213	0.9404	0.049
Mof_C 	C 	0.4046	0.2351	0.8506	-0.107
Mof_C 	C 	0.5592	0.3908	0.9237	0.093
Mof_C 	C 	0.4663	0.1687	0.9132	-0.11
Mof_C 	C 	0.4131	0.1734	0.8804	0.036
Mof_H 	H 	0.3823	0.137	0.8771	0.034
Mof_C 	C 	0.3447	0.2414	0.816	0.404
Mof_C 	C 	0.6183	0.2745	0.8168	-0.546
Mof_H 	H 	0.599	0.2889	0.7856	0.178
Mof_H 	H 	0.5919	0.2368	0.83	0.189
Mof_H 	H 	0.6651	0.26	0.8118	0.166
Mof_C 	C 	0.5007	0.3917	0.9604	-0.564
Mof_H 	H 	0.5185	0.3857	0.9936	0.178
Mof_H 	H 	0.4693	0.3549	0.9528	0.196
Mof_H 	H 	0.477	0.435	0.9583	0.176
Mof_C 	C 	0.4756	0.1065	0.9463	0.415
Mof_O 	O 	0.0515	0.4473	0.068	-0.488
Mof_O 	O 	0.1864	0.3105	0.1911	-0.495
Mof_O 	O 	0.113	0.5112	0.0161	-0.497
Mof_O 	O 	0.2971	0.3348	0.2043	-0.478
Mof_C 	C 	0.2872	0.4515	0.1437	-0.035
Mof_H 	H 	0.3279	0.4452	0.1615	0.049
Mof_C 	C 	0.3349	0.6167	0.1461	0.088
Mof_C 	C 	0.2814	0.5081	0.1125	0.021
Mof_C 	C 	0.3365	0.5636	0.1118	-0.099
Mof_C 	C 	0.2241	0.5151	0.0825	-0.042
Mof_H 	H 	0.2213	0.5511	0.0596	0.049
Mof_C 	C 	0.2351	0.4046	0.1494	-0.107
Mof_C 	C 	0.3908	0.5592	0.0763	0.093
Mof_C 	C 	0.1687	0.4663	0.0868	-0.11
Mof_C 	C 	0.1734	0.4131	0.1196	0.036
Mof_H 	H 	0.137	0.3823	0.1229	0.034
Mof_C 	C 	0.2414	0.3447	0.184	0.404
Mof_C 	C 	0.2745	0.6183	0.1832	-0.546
Mof_H 	H 	0.2889	0.599	0.2144	0.178
Mof_H 	H 	0.2368	0.5919	0.17	0.189
Mof_H 	H 	0.26	0.6651	0.1882	0.166
Mof_C 	C 	0.3917	0.5007	0.0396	-0.564
Mof_H 	H 	0.3857	0.5185	0.0064	0.178
Mof_H 	H 	0.3549	0.4693	0.0472	0.196
Mof_H 	H 	0.435	0.477	0.0417	0.176
Mof_C 	C 	0.1065	0.4756	0.0537	0.415
Mof_O 	O 	0.4485	0.0527	0.068	-0.49
Mof_O 	O 	0.3136	0.1895	0.1911	-0.495
Mof_O 	O 	0.387	0.9888	0.0161	-0.494
Mof_O 	O 	0.2029	0.1652	0.2043	-0.478
Mof_C 	C 	0.2128	0.0485	0.1437	-0.039
Mof_H 	H 	0.1721	0.0548	0.1615	0.05
Mof_C 	C 	0.1651	0.8833	0.1461	0.088
Mof_C 	C 	0.2186	0.9919	0.1125	0.024
Mof_C 	C 	0.1635	0.9364	0.1118	-0.097
Mof_C 	C 	0.2759	0.9849	0.0825	-0.039
Mof_H 	H 	0.2787	0.9489	0.0596	0.048
Mof_C 	C 	0.2649	0.0954	0.1494	-0.107
Mof_C 	C 	0.1092	0.9408	0.0763	0.088
Mof_C 	C 	0.3313	0.0337	0.0868	-0.113
Mof_C 	C 	0.3266	0.0869	0.1196	0.036
Mof_H 	H 	0.363	0.1177	0.1229	0.033
Mof_C 	C 	0.2586	0.1553	0.184	0.403
Mof_C 	C 	0.2255	0.8817	0.1832	-0.546
Mof_H 	H 	0.2111	0.901	0.2144	0.179
Mof_H 	H 	0.2632	0.9081	0.17	0.19
Mof_H 	H 	0.24	0.8349	0.1882	0.166
Mof_C 	C 	0.1083	0.9993	0.0396	-0.528
Mof_H 	H 	0.1143	0.9815	0.0064	0.17
Mof_H 	H 	0.1451	0.0307	0.0472	0.183
Mof_H 	H 	0.065	0.023	0.0417	0.163
Mof_C 	C 	0.3935	0.0244	0.0537	0.411
Mof_O 	O 	0.4473	0.4485	0.568	-0.489
Mof_O 	O 	0.3105	0.3136	0.6911	-0.495
Mof_O 	O 	0.5112	0.387	0.5161	-0.498
Mof_O 	O 	0.3348	0.2029	0.7043	-0.478
Mof_C 	C 	0.4515	0.2128	0.6437	-0.035
Mof_H 	H 	0.4452	0.1721	0.6615	0.049
Mof_C 	C 	0.6167	0.1651	0.6461	0.088
Mof_C 	C 	0.5081	0.2186	0.6125	0.021
Mof_C 	C 	0.5636	0.1635	0.6118	-0.1
Mof_C 	C 	0.5151	0.2759	0.5825	-0.042
Mof_H 	H 	0.5511	0.2787	0.5596	0.048
Mof_C 	C 	0.4046	0.2649	0.6494	-0.108
Mof_C 	C 	0.5592	0.1092	0.5763	0.094
Mof_C 	C 	0.4663	0.3313	0.5868	-0.11
Mof_C 	C 	0.4131	0.3266	0.6196	0.036
Mof_H 	H 	0.3823	0.363	0.6229	0.033
Mof_C 	C 	0.3447	0.2586	0.684	0.404
Mof_C 	C 	0.6183	0.2255	0.6832	-0.546
Mof_H 	H 	0.599	0.2111	0.7144	0.178
Mof_H 	H 	0.5919	0.2632	0.67	0.189
Mof_H 	H 	0.6651	0.24	0.6882	0.166
Mof_C 	C 	0.5007	0.1083	0.5396	-0.565
Mof_H 	H 	0.5185	0.1143	0.5064	0.178
Mof_H 	H 	0.4693	0.1451	0.5472	0.196
Mof_H 	H 	0.477	0.065	0.5417	0.177
Mof_C 	C 	0.4756	0.3935	0.5537	0.415
Mof_O 	O 	0.0527	0.0515	0.568	-0.49
Mof_O 	O 	0.1895	0.1864	0.6911	-0.495
Mof_O 	O 	0.9888	0.113	0.5161	-0.497
Mof_O 	O 	0.1652	0.2971	0.7043	-0.478
Mof_C 	C 	0.0485	0.2872	0.6437	-0.037
Mof_H 	H 	0.0548	0.3279	0.6615	0.049
Mof_C 	C 	0.8833	0.3349	0.6461	0.087
Mof_C 	C 	0.9919	0.2814	0.6125	0.022
Mof_C 	C 	0.9364	0.3365	0.6118	-0.098
Mof_C 	C 	0.9849	0.2241	0.5825	-0.041
Mof_H 	H 	0.9489	0.2213	0.5596	0.048
Mof_C 	C 	0.0954	0.2351	0.6494	-0.107
Mof_C 	C 	0.9408	0.3908	0.5763	0.091
Mof_C 	C 	0.0337	0.1687	0.5868	-0.111
Mof_C 	C 	0.0869	0.1734	0.6196	0.036
Mof_H 	H 	0.1177	0.137	0.6229	0.033
Mof_C 	C 	0.1553	0.2414	0.684	0.403
Mof_C 	C 	0.8817	0.2745	0.6832	-0.546
Mof_H 	H 	0.901	0.2889	0.7144	0.179
Mof_H 	H 	0.9081	0.2368	0.67	0.19
Mof_H 	H 	0.8349	0.26	0.6882	0.166
Mof_C 	C 	0.9993	0.3917	0.5396	-0.557
Mof_H 	H 	0.9815	0.3857	0.5064	0.176
Mof_H 	H 	0.0307	0.3549	0.5472	0.193
Mof_H 	H 	0.023	0.435	0.5417	0.174
Mof_C 	C 	0.0244	0.1065	0.5537	0.414
Mof_O 	O 	0.5515	0.5527	0.568	-0.489
Mof_O 	O 	0.6864	0.6895	0.6911	-0.495
Mof_O 	O 	0.613	0.4888	0.5161	-0.498
Mof_O 	O 	0.7971	0.6652	0.7043	-0.478
Mof_C 	C 	0.7872	0.5485	0.6437	-0.035
Mof_H 	H 	0.8279	0.5548	0.6615	0.049
Mof_C 	C 	0.8349	0.3833	0.6461	0.088
Mof_C 	C 	0.7814	0.4919	0.6125	0.021
Mof_C 	C 	0.8365	0.4364	0.6118	-0.1
Mof_C 	C 	0.7241	0.4849	0.5825	-0.042
Mof_H 	H 	0.7213	0.4489	0.5596	0.048
Mof_C 	C 	0.7351	0.5954	0.6494	-0.108
Mof_C 	C 	0.8908	0.4408	0.5763	0.094
Mof_C 	C 	0.6687	0.5337	0.5868	-0.11
Mof_C 	C 	0.6734	0.5869	0.6196	0.036
Mof_H 	H 	0.637	0.6177	0.6229	0.033
Mof_C 	C 	0.7414	0.6553	0.684	0.404
Mof_C 	C 	0.7745	0.3817	0.6832	-0.546
Mof_H 	H 	0.7889	0.401	0.7144	0.178
Mof_H 	H 	0.7368	0.4081	0.67	0.189
Mof_H 	H 	0.76	0.3349	0.6882	0.166
Mof_C 	C 	0.8917	0.4993	0.5396	-0.565
Mof_H 	H 	0.8857	0.4815	0.5064	0.178
Mof_H 	H 	0.8549	0.5307	0.5472	0.196
Mof_H 	H 	0.935	0.523	0.5417	0.177
Mof_C 	C 	0.6065	0.5244	0.5537	0.415
Mof_O 	O 	0.9485	0.9473	0.568	-0.49
Mof_O 	O 	0.8136	0.8105	0.6911	-0.495
Mof_O 	O 	0.887	0.0112	0.5161	-0.497
Mof_O 	O 	0.7029	0.8348	0.7043	-0.478
Mof_C 	C 	0.7128	0.9515	0.6437	-0.037
Mof_H 	H 	0.6721	0.9452	0.6615	0.049
Mof_C 	C 	0.6651	0.1167	0.6461	0.087
Mof_C 	C 	0.7186	0.0081	0.6125	0.022
Mof_C 	C 	0.6635	0.0636	0.6118	-0.098
Mof_C 	C 	0.7759	0.0151	0.5825	-0.041
Mof_H 	H 	0.7787	0.0511	0.5596	0.048
Mof_C 	C 	0.7649	0.9046	0.6494	-0.107
Mof_C 	C 	0.6092	0.0592	0.5763	0.091
Mof_C 	C 	0.8313	0.9663	0.5868	-0.111
Mof_C 	C 	0.8266	0.9131	0.6196	0.036
Mof_H 	H 	0.863	0.8823	0.6229	0.033
Mof_C 	C 	0.7586	0.8447	0.684	0.403
Mof_C 	C 	0.7255	0.1183	0.6832	-0.546
Mof_H 	H 	0.7111	0.099	0.7144	0.179
Mof_H 	H 	0.7632	0.0919	0.67	0.19
Mof_H 	H 	0.74	0.1651	0.6882	0.166
Mof_C 	C 	0.6083	0.0007	0.5396	-0.557
Mof_H 	H 	0.6143	0.0185	0.5064	0.176
Mof_H 	H 	0.6451	0.9693	0.5472	0.193
Mof_H 	H 	0.565	0.977	0.5417	0.174
Mof_C 	C 	0.8935	0.9756	0.5537	0.414
Mof_O 	O 	0.9473	0.5515	0.068	-0.49
Mof_O 	O 	0.8105	0.6864	0.1911	-0.495
Mof_O 	O 	0.0112	0.613	0.0161	-0.494
Mof_O 	O 	0.8348	0.7971	0.2043	-0.478
Mof_C 	C 	0.9515	0.7872	0.1437	-0.039
Mof_H 	H 	0.9452	0.8279	0.1615	0.05
Mof_C 	C 	0.1167	0.8349	0.1461	0.088
Mof_C 	C 	0.0081	0.7814	0.1125	0.024
Mof_C 	C 	0.0636	0.8365	0.1118	-0.097
Mof_C 	C 	0.0151	0.7241	0.0825	-0.039
Mof_H 	H 	0.0511	0.7213	0.0596	0.048
Mof_C 	C 	0.9046	0.7351	0.1494	-0.107
Mof_C 	C 	0.0592	0.8908	0.0763	0.088
Mof_C 	C 	0.9663	0.6687	0.0868	-0.113
Mof_C 	C 	0.9131	0.6734	0.1196	0.036
Mof_H 	H 	0.8823	0.637	0.1229	0.033
Mof_C 	C 	0.8447	0.7414	0.184	0.403
Mof_C 	C 	0.1183	0.7745	0.1832	-0.546
Mof_H 	H 	0.099	0.7889	0.2144	0.179
Mof_H 	H 	0.0919	0.7368	0.17	0.19
Mof_H 	H 	0.1651	0.76	0.1882	0.166
Mof_C 	C 	0.0007	0.8917	0.0396	-0.528
Mof_H 	H 	0.0185	0.8857	0.0064	0.17
Mof_H 	H 	0.9693	0.8549	0.0472	0.183
Mof_H 	H 	0.977	0.935	0.0417	0.163
Mof_C 	C 	0.9756	0.6065	0.0537	0.411
Mof_O 	O 	0.5527	0.9485	0.068	-0.488
Mof_O 	O 	0.6895	0.8136	0.1911	-0.495
Mof_O 	O 	0.4888	0.887	0.0161	-0.497
Mof_O 	O 	0.6652	0.7029	0.2043	-0.478
Mof_C 	C 	0.5485	0.7128	0.1437	-0.035
Mof_H 	H 	0.5548	0.6721	0.1615	0.049
Mof_C 	C 	0.3833	0.6651	0.1461	0.088
Mof_C 	C 	0.4919	0.7186	0.1125	0.021
Mof_C 	C 	0.4364	0.6635	0.1118	-0.099
Mof_C 	C 	0.4849	0.7759	0.0825	-0.042
Mof_H 	H 	0.4489	0.7787	0.0596	0.049
Mof_C 	C 	0.5954	0.7649	0.1494	-0.107
Mof_C 	C 	0.4408	0.6092	0.0763	0.093
Mof_C 	C 	0.5337	0.8313	0.0868	-0.11
Mof_C 	C 	0.5869	0.8266	0.1196	0.036
Mof_H 	H 	0.6177	0.863	0.1229	0.034
Mof_C 	C 	0.6553	0.7586	0.184	0.404
Mof_C 	C 	0.3817	0.7255	0.1832	-0.546
Mof_H 	H 	0.401	0.7111	0.2144	0.178
Mof_H 	H 	0.4081	0.7632	0.17	0.189
Mof_H 	H 	0.3349	0.74	0.1882	0.166
Mof_C 	C 	0.4993	0.6083	0.0396	-0.564
Mof_H 	H 	0.4815	0.6143	0.0064	0.178
Mof_H 	H 	0.5307	0.6451	0.0472	0.196
Mof_H 	H 	0.523	0.565	0.0417	0.176
Mof_C 	C 	0.5244	0.8935	0.0537	0.415
Mof_O 	O 	0.9485	0.5527	0.932	-0.488
Mof_O 	O 	0.8136	0.6895	0.8089	-0.495
Mof_O 	O 	0.887	0.4888	0.9839	-0.497
Mof_O 	O 	0.7029	0.6652	0.7957	-0.478
Mof_C 	C 	0.7128	0.5485	0.8563	-0.035
Mof_H 	H 	0.6721	0.5548	0.8385	0.049
Mof_C 	C 	0.6651	0.3833	0.8539	0.088
Mof_C 	C 	0.7186	0.4919	0.8875	0.021
Mof_C 	C 	0.6635	0.4364	0.8882	-0.099
Mof_C 	C 	0.7759	0.4849	0.9175	-0.042
Mof_H 	H 	0.7787	0.4489	0.9404	0.049
Mof_C 	C 	0.7649	0.5954	0.8506	-0.107
Mof_C 	C 	0.6092	0.4408	0.9237	0.093
Mof_C 	C 	0.8313	0.5337	0.9132	-0.11
Mof_C 	C 	0.8266	0.5869	0.8804	0.036
Mof_H 	H 	0.863	0.6177	0.8771	0.034
Mof_C 	C 	0.7586	0.6553	0.816	0.404
Mof_C 	C 	0.7255	0.3817	0.8168	-0.546
Mof_H 	H 	0.7111	0.401	0.7856	0.178
Mof_H 	H 	0.7632	0.4081	0.83	0.189
Mof_H 	H 	0.74	0.3349	0.8118	0.166
Mof_C 	C 	0.6083	0.4993	0.9604	-0.564
Mof_H 	H 	0.6143	0.4815	0.9936	0.178
Mof_H 	H 	0.6451	0.5307	0.9528	0.196
Mof_H 	H 	0.565	0.523	0.9583	0.176
Mof_C 	C 	0.8935	0.5244	0.9463	0.415
Mof_O 	O 	0.5515	0.9473	0.932	-0.49
Mof_O 	O 	0.6864	0.8105	0.8089	-0.495
Mof_O 	O 	0.613	0.0112	0.9839	-0.494
Mof_O 	O 	0.7971	0.8348	0.7957	-0.478
Mof_C 	C 	0.7872	0.9515	0.8563	-0.039
Mof_H 	H 	0.8279	0.9452	0.8385	0.05
Mof_C 	C 	0.8349	0.1167	0.8539	0.088
Mof_C 	C 	0.7814	0.0081	0.8875	0.024
Mof_C 	C 	0.8365	0.0636	0.8882	-0.097
Mof_C 	C 	0.7241	0.0151	0.9175	-0.039
Mof_H 	H 	0.7213	0.0511	0.9404	0.048
Mof_C 	C 	0.7351	0.9046	0.8506	-0.107
Mof_C 	C 	0.8908	0.0592	0.9237	0.088
Mof_C 	C 	0.6687	0.9663	0.9132	-0.113
Mof_C 	C 	0.6734	0.9131	0.8804	0.036
Mof_H 	H 	0.637	0.8823	0.8771	0.033
Mof_C 	C 	0.7414	0.8447	0.816	0.403
Mof_C 	C 	0.7745	0.1183	0.8168	-0.546
Mof_H 	H 	0.7889	0.099	0.7856	0.179
Mof_H 	H 	0.7368	0.0919	0.83	0.19
Mof_H 	H 	0.76	0.1651	0.8118	0.166
Mof_C 	C 	0.8917	0.0007	0.9604	-0.528
Mof_H 	H 	0.8857	0.0185	0.9936	0.17
Mof_H 	H 	0.8549	0.9693	0.9528	0.183
Mof_H 	H 	0.935	0.977	0.9583	0.163
Mof_C 	C 	0.6065	0.9756	0.9463	0.411
Mof_O 	O 	0.5527	0.5515	0.432	-0.489
Mof_O 	O 	0.6895	0.6864	0.3089	-0.495
Mof_O 	O 	0.4888	0.613	0.4839	-0.498
Mof_O 	O 	0.6652	0.7971	0.2957	-0.478
Mof_C 	C 	0.5485	0.7872	0.3563	-0.035
Mof_H 	H 	0.5548	0.8279	0.3385	0.049
Mof_C 	C 	0.3833	0.8349	0.3539	0.088
Mof_C 	C 	0.4919	0.7814	0.3875	0.021
Mof_C 	C 	0.4364	0.8365	0.3882	-0.1
Mof_C 	C 	0.4849	0.7241	0.4175	-0.042
Mof_H 	H 	0.4489	0.7213	0.4404	0.048
Mof_C 	C 	0.5954	0.7351	0.3506	-0.108
Mof_C 	C 	0.4408	0.8908	0.4237	0.094
Mof_C 	C 	0.5337	0.6687	0.4132	-0.11
Mof_C 	C 	0.5869	0.6734	0.3804	0.036
Mof_H 	H 	0.6177	0.637	0.3771	0.033
Mof_C 	C 	0.6553	0.7414	0.316	0.404
Mof_C 	C 	0.3817	0.7745	0.3168	-0.546
Mof_H 	H 	0.401	0.7889	0.2856	0.178
Mof_H 	H 	0.4081	0.7368	0.33	0.189
Mof_H 	H 	0.3349	0.76	0.3118	0.166
Mof_C 	C 	0.4993	0.8917	0.4604	-0.565
Mof_H 	H 	0.4815	0.8857	0.4936	0.178
Mof_H 	H 	0.5307	0.8549	0.4528	0.196
Mof_H 	H 	0.523	0.935	0.4583	0.177
Mof_C 	C 	0.5244	0.6065	0.4463	0.415
Mof_O 	O 	0.9473	0.9485	0.432	-0.49
Mof_O 	O 	0.8105	0.8136	0.3089	-0.495
Mof_O 	O 	0.0112	0.887	0.4839	-0.497
Mof_O 	O 	0.8348	0.7029	0.2957	-0.478
Mof_C 	C 	0.9515	0.7128	0.3563	-0.037
Mof_H 	H 	0.9452	0.6721	0.3385	0.049
Mof_C 	C 	0.1167	0.6651	0.3539	0.087
Mof_C 	C 	0.0081	0.7186	0.3875	0.022
Mof_C 	C 	0.0636	0.6635	0.3882	-0.098
Mof_C 	C 	0.0151	0.7759	0.4175	-0.041
Mof_H 	H 	0.0511	0.7787	0.4404	0.048
Mof_C 	C 	0.9046	0.7649	0.3506	-0.107
Mof_C 	C 	0.0592	0.6092	0.4237	0.091
Mof_C 	C 	0.9663	0.8313	0.4132	-0.111
Mof_C 	C 	0.9131	0.8266	0.3804	0.036
Mof_H 	H 	0.8823	0.863	0.3771	0.033
Mof_C 	C 	0.8447	0.7586	0.316	0.403
Mof_C 	C 	0.1183	0.7255	0.3168	-0.546
Mof_H 	H 	0.099	0.7111	0.2856	0.179
Mof_H 	H 	0.0919	0.7632	0.33	0.19
Mof_H 	H 	0.1651	0.74	0.3118	0.166
Mof_C 	C 	0.0007	0.6083	0.4604	-0.557
Mof_H 	H 	0.0185	0.6143	0.4936	0.176
Mof_H 	H 	0.9693	0.6451	0.4528	0.193
Mof_H 	H 	0.977	0.565	0.4583	0.174
Mof_C 	C 	0.9756	0.8935	0.4463	0.414
Mof_Zn	Zn	0.54185	0.45815	0.46478	1.196
Mof_Zn	Zn	0.95815	0.04185	0.46478	1.196
Mof_Zn	Zn	0.04185	0.54185	0.96478	1.195
Mof_Zn	Zn	0.45815	0.95815	0.96478	1.195
Mof_Zn	Zn	0.95815	0.45815	0.03522	1.195
Mof_Zn	Zn	0.54185	0.04185	0.03522	1.195
Mof_Zn	Zn	0.45815	0.54185	0.53522	1.196
Mof_Zn	Zn	0.04185	0.95815	0.53522	1.196
Mof_Zn	Zn	0.32637	0.25	0.25	1.191
Mof_Zn	Zn	0.17363	0.25	0.25	1.191
Mof_Zn	Zn	0.25	0.32637	0.75	1.191
Mof_Zn	Zn	0.25	0.17363	0.75	1.191
Mof_Zn	Zn	0.67363	0.75	0.75	1.191
Mof_Zn	Zn	0.82637	0.75	0.75	1.191
Mof_Zn	Zn	0.75	0.67363	0.25	1.191
Mof_Zn	Zn	0.75	0.82637	0.25	1.191
_end
