data_functionalizedCrystal
_audit_creation_method	'EQeq! by Chris Wilmer'
_symmetry_space_group_name_H-M	'P1'
_symmetry_Int_Tables_number	1
_symmetry_cell_setting	triclinic
loop_
_symmetry_equiv_pos_as_xyz
  x,y,z
_cell_length_a	15.1902
_cell_length_b	16.8168
_cell_length_c	22.68
_cell_angle_alpha	90
_cell_angle_beta	97.214
_cell_angle_gamma	90
loop_
_atom_site_label
_atom_site_type_symbol
_atom_site_fract_x
_atom_site_fract_y
_atom_site_fract_z
_atom_site_charge
Mof_N 	N 	0.00114	0.00448	0.09368	-0.294
Mof_N 	N 	0.10263	0.08674	0.00816	-0.273
Mof_C 	C 	0.9334	0.0348	0.11869	0.045
Mof_H 	H 	0.8859	0.0565	0.09404	-0.027
Mof_C 	C 	0.9303	0.0354	0.17933	-0.008
Mof_H 	H 	0.8809	0.0559	0.19452	0.019
Mof_C 	C 	0.0007	0.00561	0.2173	-0.164
Mof_C 	C 	0.0726	0.9768	0.19165	0.002
Mof_H 	H 	0.1224	0.9576	0.21546	0.031
Mof_C 	C 	0.0697	0.9768	0.13052	0.057
Mof_H 	H 	0.1182	0.9563	0.11417	-0.02
Mof_C 	C 	0.1835	0.07706	0.99167	0.062
Mof_H 	H 	0.2007	0.02604	0.98216	-0.032
Mof_C 	C 	0.2428	0.1384	0.988	-0.046
Mof_H 	H 	0.2978	0.1284	0.9755	0.034
Mof_C 	C 	0.22008	0.21548	0.00305	-0.084
Mof_C 	C 	0.1391	0.22421	0.02414	-0.074
Mof_H 	H 	0.1222	0.27371	0.03714	0.032
Mof_C 	C 	0.0834	0.15995	0.02597	0.021
Mof_H 	H 	0.0294	0.1678	0.0404	-0.034
Mof_N 	N 	0.50114	0.50448	0.09368	-0.262
Mof_N 	N 	0.60263	0.58674	0.00816	-0.263
Mof_C 	C 	0.4334	0.5348	0.11869	0.079
Mof_H 	H 	0.3859	0.5565	0.09404	-0.037
Mof_C 	C 	0.4303	0.5354	0.17933	-0.147
Mof_H 	H 	0.3809	0.5559	0.19452	0.072
Mof_C 	C 	0.5007	0.50561	0.2173	0.056
Mof_C 	C 	0.5726	0.4768	0.19165	-0.147
Mof_H 	H 	0.6224	0.4576	0.21546	0.074
Mof_C 	C 	0.5697	0.4768	0.13052	0.079
Mof_H 	H 	0.6182	0.4563	0.11417	-0.038
Mof_C 	C 	0.6835	0.57706	0.99167	0.074
Mof_H 	H 	0.7007	0.52604	0.98216	-0.015
Mof_C 	C 	0.7428	0.6384	0.988	-0.043
Mof_H 	H 	0.7978	0.6284	0.9755	0.046
Mof_C 	C 	0.72008	0.71548	0.00305	-0.073
Mof_C 	C 	0.6391	0.72421	0.02414	-0.071
Mof_H 	H 	0.6222	0.77371	0.03714	0.044
Mof_C 	C 	0.5834	0.65995	0.02597	0.03
Mof_H 	H 	0.5294	0.6678	0.0404	-0.02
Mof_N 	N 	0.99886	0.00448	0.40632	-0.272
Mof_N 	N 	0.89737	0.08674	0.49184	-0.255
Mof_C 	C 	0.0666	0.0348	0.38131	0.075
Mof_H 	H 	0.1141	0.0565	0.40596	-0.05
Mof_C 	C 	0.0697	0.0354	0.32067	-0.264
Mof_H 	H 	0.1191	0.0559	0.30548	0.099
Mof_C 	C 	0.9993	0.00561	0.2827	0.18
Mof_C 	C 	0.9274	0.9768	0.30835	-0.181
Mof_H 	H 	0.8776	0.9576	0.28454	0.107
Mof_C 	C 	0.9303	0.9768	0.36948	0.165
Mof_H 	H 	0.8818	0.9563	0.38583	-0.043
Mof_C 	C 	0.8165	0.07706	0.50833	0.076
Mof_H 	H 	0.7993	0.02604	0.51784	-0.039
Mof_C 	C 	0.7572	0.1384	0.512	-0.143
Mof_H 	H 	0.7022	0.1284	0.5245	0.064
Mof_C 	C 	0.77992	0.21548	0.49695	0.052
Mof_C 	C 	0.8609	0.22421	0.47586	-0.138
Mof_H 	H 	0.8778	0.27371	0.46286	0.073
Mof_C 	C 	0.9166	0.15995	0.47403	0.071
Mof_H 	H 	0.9706	0.1678	0.4596	-0.023
Mof_N 	N 	0.49886	0.50448	0.40632	-0.259
Mof_N 	N 	0.39737	0.58674	0.49184	-0.257
Mof_C 	C 	0.5666	0.5348	0.38131	0.08
Mof_H 	H 	0.6141	0.5565	0.40596	-0.03
Mof_C 	C 	0.5697	0.5354	0.32067	-0.145
Mof_H 	H 	0.6191	0.5559	0.30548	0.076
Mof_C 	C 	0.4993	0.50561	0.2827	0.055
Mof_C 	C 	0.4274	0.4768	0.30835	-0.146
Mof_H 	H 	0.3776	0.4576	0.28454	0.069
Mof_C 	C 	0.4303	0.4768	0.36948	0.079
Mof_H 	H 	0.3818	0.4563	0.38583	-0.037
Mof_C 	C 	0.3165	0.57706	0.50833	0.078
Mof_H 	H 	0.2993	0.52604	0.51784	-0.031
Mof_C 	C 	0.2572	0.6384	0.512	-0.142
Mof_H 	H 	0.2022	0.6284	0.5245	0.067
Mof_C 	C 	0.27992	0.71548	0.49695	0.054
Mof_C 	C 	0.3609	0.72421	0.47586	-0.14
Mof_H 	H 	0.3778	0.77371	0.46286	0.074
Mof_C 	C 	0.4166	0.65995	0.47403	0.073
Mof_H 	H 	0.4706	0.6678	0.4596	-0.029
Mof_N 	N 	0.99886	0.99552	0.90632	-0.213
Mof_N 	N 	0.89737	0.91326	0.99184	-0.228
Mof_C 	C 	0.0666	0.9652	0.88131	0.109
Mof_H 	H 	0.1141	0.9435	0.90596	-0.031
Mof_C 	C 	0.0697	0.9646	0.82067	-0.258
Mof_H 	H 	0.1191	0.9441	0.80548	0.121
Mof_C 	C 	0.9993	0.99439	0.7827	0.239
Mof_C 	C 	0.9274	0.0232	0.80835	-0.267
Mof_H 	H 	0.8776	0.0424	0.78454	0.109
Mof_C 	C 	0.9303	0.0232	0.86948	0.098
Mof_H 	H 	0.8818	0.0437	0.88583	-0.038
Mof_C 	C 	0.8165	0.92294	0.00833	0.094
Mof_H 	H 	0.7993	0.97396	0.01784	-0.021
Mof_C 	C 	0.7572	0.8616	0.012	-0.233
Mof_H 	H 	0.7022	0.8716	0.0245	0.105
Mof_C 	C 	0.77992	0.78452	0.99695	0.186
Mof_C 	C 	0.8609	0.77579	0.97586	-0.203
Mof_H 	H 	0.8778	0.72629	0.96286	0.106
Mof_C 	C 	0.9166	0.84005	0.97403	0.123
Mof_H 	H 	0.9706	0.8322	0.9596	-0.026
Mof_N 	N 	0.49886	0.49552	0.90632	-0.251
Mof_N 	N 	0.39737	0.41326	0.99184	-0.247
Mof_C 	C 	0.5666	0.4652	0.88131	0.081
Mof_H 	H 	0.6141	0.4435	0.90596	-0.027
Mof_C 	C 	0.5697	0.4646	0.82067	-0.144
Mof_H 	H 	0.6191	0.4441	0.80548	0.077
Mof_C 	C 	0.4993	0.49439	0.7827	0.056
Mof_C 	C 	0.4274	0.5232	0.80835	-0.143
Mof_H 	H 	0.3776	0.5424	0.78454	0.074
Mof_C 	C 	0.4303	0.5232	0.86948	0.081
Mof_H 	H 	0.3818	0.5437	0.88583	-0.027
Mof_C 	C 	0.3165	0.42294	0.00833	0.084
Mof_H 	H 	0.2993	0.47396	0.01784	-0.041
Mof_C 	C 	0.2572	0.3616	0.012	-0.24
Mof_H 	H 	0.2022	0.3716	0.0245	0.094
Mof_C 	C 	0.27992	0.28452	0.99695	0.182
Mof_C 	C 	0.3609	0.27579	0.97586	-0.21
Mof_H 	H 	0.3778	0.22629	0.96286	0.096
Mof_C 	C 	0.4166	0.34005	0.97403	0.115
Mof_H 	H 	0.4706	0.3322	0.9596	-0.042
Mof_N 	N 	0.00114	0.99552	0.59368	-0.233
Mof_N 	N 	0.10263	0.91326	0.50816	-0.248
Mof_C 	C 	0.9334	0.9652	0.61869	0.09
Mof_H 	H 	0.8859	0.9435	0.59404	-0.016
Mof_C 	C 	0.9303	0.9646	0.67933	-0.052
Mof_H 	H 	0.8809	0.9441	0.69452	0.057
Mof_C 	C 	0.0007	0.99439	0.7173	-0.032
Mof_C 	C 	0.0726	0.0232	0.69165	-0.133
Mof_H 	H 	0.1224	0.0424	0.71546	0.049
Mof_C 	C 	0.0697	0.0232	0.63052	0.001
Mof_H 	H 	0.1182	0.0437	0.61417	-0.023
Mof_C 	C 	0.1835	0.92294	0.49167	0.081
Mof_H 	H 	0.2007	0.97396	0.48216	-0.014
Mof_C 	C 	0.2428	0.8616	0.488	-0.137
Mof_H 	H 	0.2978	0.8716	0.4755	0.075
Mof_C 	C 	0.22008	0.78452	0.50305	0.053
Mof_C 	C 	0.1391	0.77579	0.52414	-0.14
Mof_H 	H 	0.1222	0.72629	0.53714	0.066
Mof_C 	C 	0.0834	0.84005	0.52597	0.073
Mof_H 	H 	0.0294	0.8322	0.5404	-0.036
Mof_N 	N 	0.50114	0.49552	0.59368	-0.258
Mof_N 	N 	0.60263	0.41326	0.50816	-0.257
Mof_C 	C 	0.4334	0.4652	0.61869	0.081
Mof_H 	H 	0.3859	0.4435	0.59404	-0.036
Mof_C 	C 	0.4303	0.4646	0.67933	-0.147
Mof_H 	H 	0.3809	0.4441	0.69452	0.072
Mof_C 	C 	0.5007	0.49439	0.7173	0.057
Mof_C 	C 	0.5726	0.5232	0.69165	-0.145
Mof_H 	H 	0.6224	0.5424	0.71546	0.079
Mof_C 	C 	0.5697	0.5232	0.63052	0.082
Mof_H 	H 	0.6182	0.5437	0.61417	-0.03
Mof_C 	C 	0.6835	0.42294	0.49167	0.079
Mof_H 	H 	0.7007	0.47396	0.48216	-0.025
Mof_C 	C 	0.7428	0.3616	0.488	-0.14
Mof_H 	H 	0.7978	0.3716	0.4755	0.073
Mof_C 	C 	0.72008	0.28452	0.50305	0.053
Mof_C 	C 	0.6391	0.27579	0.52414	-0.14
Mof_H 	H 	0.6222	0.22629	0.53714	0.066
Mof_C 	C 	0.5834	0.34005	0.52597	0.072
Mof_H 	H 	0.5294	0.3322	0.5404	-0.035
Mof_Ni	Ni	-0	0	-0	0.964
Mof_Ni	Ni	0.5	0.5	-0	0.998
Mof_Ni	Ni	3.15055e-33	0	0.5	0.976
Mof_Ni	Ni	0.5	0.5	0.5	1.012
_end
