data_functionalizedCrystal
_audit_creation_method	'EQeq! by Chris Wilmer'
_symmetry_space_group_name_H-M	'P1'
_symmetry_Int_Tables_number	1
_symmetry_cell_setting	triclinic
loop_
_symmetry_equiv_pos_as_xyz
  x,y,z
_cell_length_a	13.1587
_cell_length_b	13.1587
_cell_length_c	16.1012
_cell_angle_alpha	90
_cell_angle_beta	90
_cell_angle_gamma	120
loop_
_atom_site_label
_atom_site_type_symbol
_atom_site_fract_x
_atom_site_fract_y
_atom_site_fract_z
_atom_site_charge
Mof_P 	P 	0.148	0.6715	0.1472	2.002
Mof_Al	Al	0.1219	0.459	0.6063	10.04
Mof_Al	Al	0.1127	0.4501	0.2429	10.321
Mof_P 	P 	0.1584	0.6818	0.7064	1.518
Mof_Si	Si	0.212	0.5276	0.4237	5.606
Mof_O 	O 	0.1458	0.5865	0.2156	-3.158
Mof_O 	O 	0.0203	0.6404	0.1237	-2.895
Mof_O 	O 	0.2191	0.8039	0.1796	-2.828
Mof_O 	O 	0.2183	0.6705	0.0695	-1.499
Mof_O 	O 	0.2371	0.8179	0.6822	-2.845
Mof_O 	O 	0.1479	0.5918	0.6383	-3.19
Mof_O 	O 	0.138	0.4534	0.5019	-3.931
Mof_O 	O 	0.036	0.6668	0.736	-2.57
Mof_O 	O 	0.1507	0.463	0.3388	-4.162
Mof_O 	O 	0.2144	0.6752	0.7938	-0.982
Mof_O 	O 	0.344	0.5548	0.4255	-2.896
Mof_P 	P 	0.3285	0.4765	0.1472	2.002
Mof_Al	Al	0.541	0.6629	0.6063	10.077
Mof_Al	Al	0.5499	0.6626	0.2429	10.381
Mof_P 	P 	0.3182	0.4766	0.7064	1.52
Mof_Si	Si	0.4724	0.6844	0.4237	5.617
Mof_O 	O 	0.4135	0.5593	0.2156	-3.168
Mof_O 	O 	0.3596	0.3799	0.1237	-2.866
Mof_O 	O 	0.1961	0.4152	0.1796	-2.826
Mof_O 	O 	0.3295	0.5478	0.0695	-1.496
Mof_O 	O 	0.1821	0.4192	0.6822	-2.845
Mof_O 	O 	0.4082	0.5561	0.6383	-3.196
Mof_O 	O 	0.5466	0.6846	0.5019	-3.939
Mof_O 	O 	0.3332	0.3692	0.736	-2.56
Mof_O 	O 	0.537	0.6877	0.3388	-4.177
Mof_O 	O 	0.3248	0.5392	0.7938	-0.981
Mof_O 	O 	0.4452	0.7892	0.4255	-2.897
Mof_P 	P 	0.5235	0.852	0.1472	2.003
Mof_Al	Al	0.3371	0.8781	0.6063	10.034
Mof_Al	Al	0.3374	0.8873	0.2429	10.308
Mof_P 	P 	0.5234	0.8416	0.7064	1.519
Mof_Si	Si	0.3156	0.788	0.4237	5.603
Mof_O 	O 	0.4407	0.8542	0.2156	-3.156
Mof_O 	O 	0.6201	0.9797	0.1237	-2.892
Mof_O 	O 	0.5848	0.7809	0.1796	-2.838
Mof_O 	O 	0.4522	0.7817	0.0695	-1.498
Mof_O 	O 	0.5808	0.7629	0.6822	-2.852
Mof_O 	O 	0.4439	0.8521	0.6383	-3.19
Mof_O 	O 	0.3154	0.862	0.5019	-3.931
Mof_O 	O 	0.6308	0.964	0.736	-2.57
Mof_O 	O 	0.3123	0.8493	0.3388	-4.16
Mof_O 	O 	0.4608	0.7856	0.7938	-0.982
Mof_O 	O 	0.2108	0.656	0.4255	-2.896
Mof_P 	P 	0.852	0.3285	0.6472	1.917
Mof_Al	Al	0.8781	0.541	0.1063	10.168
Mof_Al	Al	0.8873	0.5499	0.7429	9.948
Mof_P 	P 	0.8416	0.3182	0.2064	1.574
Mof_Si	Si	0.788	0.4724	0.9237	4.851
Mof_O 	O 	0.8542	0.4135	0.7156	-3.045
Mof_O 	O 	0.9797	0.3596	0.6237	-2.866
Mof_O 	O 	0.7809	0.1961	0.6796	-2.753
Mof_O 	O 	0.7817	0.3295	0.5695	-1.356
Mof_O 	O 	0.7629	0.1821	0.1822	-2.845
Mof_O 	O 	0.8521	0.4082	0.1383	-3.191
Mof_O 	O 	0.862	0.5466	0.0019	-3.604
Mof_O 	O 	0.964	0.3332	0.236	-2.596
Mof_O 	O 	0.8493	0.537	0.8388	-3.946
Mof_O 	O 	0.7856	0.3248	0.2938	-1.09
Mof_O 	O 	0.656	0.4452	0.9255	-2.679
Mof_P 	P 	0.6715	0.5235	0.6472	1.917
Mof_Al	Al	0.459	0.3371	0.1063	10.1
Mof_Al	Al	0.4501	0.3374	0.7429	9.916
Mof_P 	P 	0.6818	0.5234	0.2064	1.572
Mof_Si	Si	0.5276	0.3156	0.9237	4.843
Mof_O 	O 	0.5865	0.4407	0.7156	-3.039
Mof_O 	O 	0.6404	0.6201	0.6237	-2.881
Mof_O 	O 	0.8039	0.5848	0.6796	-2.754
Mof_O 	O 	0.6705	0.4522	0.5695	-1.358
Mof_O 	O 	0.8179	0.5808	0.1822	-2.847
Mof_O 	O 	0.5918	0.4439	0.1383	-3.179
Mof_O 	O 	0.4534	0.3154	0.0019	-3.591
Mof_O 	O 	0.6668	0.6308	0.236	-2.617
Mof_O 	O 	0.463	0.3123	0.8388	-3.938
Mof_O 	O 	0.6752	0.4608	0.2938	-1.092
Mof_O 	O 	0.5548	0.2108	0.9255	-2.677
Mof_P 	P 	0.4765	0.148	0.6472	1.915
Mof_Al	Al	0.6629	0.1219	0.1063	10.166
Mof_Al	Al	0.6626	0.1127	0.7429	9.949
Mof_P 	P 	0.4766	0.1584	0.2064	1.572
Mof_Si	Si	0.6844	0.212	0.9237	4.848
Mof_O 	O 	0.5593	0.1458	0.7156	-3.044
Mof_O 	O 	0.3799	0.0203	0.6237	-2.866
Mof_O 	O 	0.4152	0.2191	0.6796	-2.748
Mof_O 	O 	0.5478	0.2183	0.5695	-1.357
Mof_O 	O 	0.4192	0.2371	0.1822	-2.835
Mof_O 	O 	0.5561	0.1479	0.1383	-3.189
Mof_O 	O 	0.6846	0.138	0.0019	-3.601
Mof_O 	O 	0.3692	0.036	0.236	-2.596
Mof_O 	O 	0.6877	0.1507	0.8388	-3.946
Mof_O 	O 	0.5392	0.2144	0.2938	-1.091
Mof_O 	O 	0.7892	0.344	0.9255	-2.679
Mof_Al	Al	0.33333	0.66667	0.0155	3.438
Mof_Al	Al	0.33333	0.66667	0.8428	1.077
Mof_Al	Al	0.66667	0.33333	0.5155	2.579
Mof_Al	Al	0.66667	0.33333	0.3428	1.867
_end
