data_functionalizedCrystal
_audit_creation_method	'EQeq! by Chris Wilmer'
_symmetry_space_group_name_H-M	'P1'
_symmetry_Int_Tables_number	1
_symmetry_cell_setting	triclinic
loop_
_symmetry_equiv_pos_as_xyz
  x,y,z
_cell_length_a	12.7228
_cell_length_b	18.1372
_cell_length_c	18.1372
_cell_angle_alpha	82.9338
_cell_angle_beta	69.4676
_cell_angle_gamma	69.4677
loop_
_atom_site_label
_atom_site_type_symbol
_atom_site_fract_x
_atom_site_fract_y
_atom_site_fract_z
_atom_site_charge
Mof_Mn	Mn	0.96519	0.1736	0.90792	1.04
Mof_Mn	Mn	0.87311	0.09208	0.6736	0.982
Mof_Mn	Mn	0.20174	0.21831	0.81758	1.019
Mof_Mn	Mn	0.98067	0.81758	0.2817	1.09
Mof_Mn	Mn	0.03481	0.8264	0.09208	0.883
Mof_Mn	Mn	0.45329	0.6736	0.40792	0.983
Mof_Mn	Mn	0.5	0.5	0.5	0.961
Mof_Mn	Mn	0.57995	0.68242	0.2183	1.023
Mof_Mn	Mn	0.26236	0.71831	0.31758	1.016
Mof_Mn	Mn	0.86121	0.59208	0.1736	0.982
Mof_Mn	Mn	-0	0.5	-0	0.823
Mof_Mn	Mn	0.73764	0.28169	0.68242	1.027
Mof_Mn	Mn	0.12689	0.90792	0.3264	0.975
Mof_Mn	Mn	0.42005	0.31758	0.7817	1.021
Mof_Mn	Mn	-0	0	-0	0.787
Mof_Mn	Mn	1.39758e-17	0	0.5	0.855
Mof_Mn	Mn	0.54671	0.3264	0.59208	0.982
Mof_Mn	Mn	0.13879	0.40792	0.8264	0.987
Mof_Mn	Mn	0.01933	0.18242	0.7183	0.978
Mof_Mn	Mn	0.79826	0.78169	0.18242	1.024
Mof_H 	H 	0.6791	0.0987	0.8919	0.28
Mof_H 	H 	0.5511	0.8868	0.4118	0.295
Mof_H 	H 	0.6968	0.0499	0.4469	0.145
Mof_H 	H 	0.8951	0.6862	0.813	0.262
Mof_H 	H 	0.2056	0.3514	0.1774	0.21
Mof_H 	H 	0.7353	0.5164	0.4898	0.274
Mof_H 	H 	0.1648	0.5643	0.6989	0.252
Mof_H 	H 	0.1401	0.8646	0.5844	0.26
Mof_H 	H 	0.2222	0.6081	0.0987	0.267
Mof_H 	H 	0.4595	0.7538	0.6294	0.241
Mof_H 	H 	0.9417	0.2051	0.6031	0.292
Mof_H 	H 	0.1057	0.1862	0.313	0.218
Mof_H 	H 	0.6339	0.5323	0.0163	0.283
Mof_H 	H 	0.928	0.9357	0.8011	0.211
Mof_H 	H 	0.2625	0.6787	0.0493	0.274
Mof_H 	H 	0.8943	0.8138	0.687	0.249
Mof_H 	H 	0.0665	0.9251	0.7737	0.178
Mof_H 	H 	0.2653	0.5749	0.7263	0.253
Mof_H 	H 	0.2709	0.8011	0.5643	0.255
Mof_H 	H 	0.1697	0.4013	0.6081	0.276
Mof_H 	H 	0.2251	0.5102	0.0164	0.196
Mof_H 	H 	0.0583	0.7949	0.3969	0.275
Mof_H 	H 	0.443	0.3226	0.3514	0.237
Mof_H 	H 	0.2919	0.813	0.8138	0.236
Mof_H 	H 	0.7375	0.3213	0.9507	0.305
Mof_H 	H 	0.5448	0.3969	0.7051	0.284
Mof_H 	H 	0.072	0.0643	0.1989	0.306
Mof_H 	H 	0.9109	0.3646	0.0844	0.311
Mof_H 	H 	0.9335	0.0749	0.2263	0.337
Mof_H 	H 	0.5405	0.2462	0.3706	0.234
Mof_H 	H 	0.4905	0.8213	0.4507	0.294
Mof_H 	H 	0.7778	0.3919	0.9013	0.296
Mof_H 	H 	0.6573	0.2538	0.1294	0.229
Mof_H 	H 	0.429	0.8919	0.4013	0.288
Mof_H 	H 	0.0588	0.4507	0.6787	0.28
Mof_H 	H 	0.3497	0.6132	0.0882	0.276
Mof_H 	H 	0.8402	0.2263	0.4251	0.264
Mof_H 	H 	0.8303	0.5987	0.3919	0.291
Mof_H 	H 	0.2344	0.1486	0.3226	0.228
Mof_H 	H 	0.0084	0.7263	0.9251	0.181
Mof_H 	H 	0.7867	0.8706	0.7538	0.25
Mof_H 	H 	0.7944	0.6486	0.8226	0.263
Mof_H 	H 	0.9412	0.5493	0.3213	0.304
Mof_H 	H 	0.2133	0.1294	0.2462	0.222
Mof_H 	H 	0.6825	0.9677	0.4837	0.187
Mof_H 	H 	0.2415	0.9836	0.0102	0.201
Mof_H 	H 	0.7245	0.4156	0.3646	0.268
Mof_H 	H 	0.7656	0.8514	0.6774	0.252
Mof_H 	H 	0.5095	0.1787	0.5493	0.288
Mof_H 	H 	0.8563	0.4469	0.4501	0.264
Mof_H 	H 	0.9916	0.2737	0.0749	0.304
Mof_H 	H 	0.571	0.1081	0.5987	0.279
Mof_H 	H 	0.3661	0.4677	0.9837	0.231
Mof_H 	H 	0.383	0.8226	0.8514	0.248
Mof_H 	H 	0.9953	0.9156	0.8646	0.226
Mof_H 	H 	0.7347	0.4251	0.2737	0.26
Mof_H 	H 	0.0047	0.0844	0.1354	0.304
Mof_H 	H 	0.7749	0.4898	0.9836	0.322
Mof_H 	H 	0.9111	0.6294	0.7462	0.265
Mof_H 	H 	0.8352	0.4357	0.3011	0.268
Mof_H 	H 	0.0891	0.6354	0.9156	0.194
Mof_H 	H 	0.8338	0.4837	0.5323	0.276
Mof_H 	H 	0.2533	0.0531	0.0499	0.155
Mof_H 	H 	0.617	0.1774	0.1486	0.23
Mof_H 	H 	0.6503	0.3868	0.9118	0.3
Mof_H 	H 	0.5813	0.313	0.3138	0.233
Mof_H 	H 	0.2499	0.2949	0.8969	0.287
Mof_H 	H 	0.2755	0.5844	0.6354	0.26
Mof_H 	H 	0.1662	0.5163	0.4677	0.251
Mof_H 	H 	0.1468	0.1031	0.7949	0.28
Mof_H 	H 	0.7081	0.187	0.1862	0.23
Mof_H 	H 	0.0371	0.4118	0.6132	0.272
Mof_H 	H 	0.9629	0.5882	0.3868	0.306
Mof_H 	H 	0.1437	0.5531	0.5499	0.242
Mof_H 	H 	0.557	0.6774	0.6486	0.247
Mof_H 	H 	0.3175	0.0323	0.5163	0.329
Mof_H 	H 	0.0889	0.3706	0.2538	0.198
Mof_H 	H 	0.8637	0.3011	0.0643	0.294
Mof_H 	H 	0.3064	0.5499	0.9469	0.219
Mof_H 	H 	0.2517	0.9898	0.4836	0.368
Mof_H 	H 	0.7483	0.0102	0.5164	0.158
Mof_H 	H 	0.3498	0.0163	0.9677	0.2
Mof_H 	H 	0.8599	0.1354	0.4156	0.27
Mof_H 	H 	0.7467	0.9469	0.9501	0.301
Mof_H 	H 	0.2647	0.4836	0.5102	0.263
Mof_H 	H 	0.6502	0.9837	0.0323	0.288
Mof_H 	H 	0.3427	0.7462	0.8706	0.242
Mof_H 	H 	0.8532	0.8969	0.2051	0.291
Mof_H 	H 	0.7291	0.1989	0.4357	0.261
Mof_H 	H 	0.6936	0.4501	0.0531	0.274
Mof_H 	H 	0.4489	0.1132	0.5882	0.28
Mof_H 	H 	0.3209	0.9013	0.1081	0.289
Mof_H 	H 	0.3118	0.9507	0.1787	0.304
Mof_H 	H 	0.4552	0.6031	0.2949	0.283
Mof_H 	H 	0.1363	0.6989	0.9357	0.194
Mof_H 	H 	0.7585	0.0164	0.9898	0.29
Mof_H 	H 	0.3032	0.9501	0.5531	0.347
Mof_H 	H 	0.4187	0.687	0.6862	0.239
Mof_H 	H 	0.7501	0.7051	0.1031	0.286
Mof_H 	H 	0.4379	0.9118	0.1132	0.293
Mof_H 	H 	0.1598	0.7737	0.5749	0.246
Mof_H 	H 	0.5621	0.0882	0.8868	0.284
Mof_H 	H 	0.1049	0.3138	0.187	0.197
Mof_H 	H 	0.6882	0.0493	0.8213	0.278
Mof_C 	C 	0.79602	0.4694	0.50016	-0.906
Mof_C 	C 	0.38138	0.83178	0.19226	0.669
Mof_C 	C 	0.73442	0.9694	0.00016	-0.961
Mof_C 	C 	0.21377	0.84458	0.93068	0.559
Mof_C 	C 	0.14445	0.06932	0.34458	0.555
Mof_C 	C 	0.31692	0.80293	0.86043	-0.821
Mof_C 	C 	0.26542	0.00016	0.5306	-1.153
Mof_C 	C 	0.95909	0.03102	0.8286	0.509
Mof_C 	C 	0.85555	0.93068	0.65542	0.575
Mof_C 	C 	0.04091	0.96898	0.1714	0.675
Mof_C 	C 	0.00989	0.6714	0.03102	0.362
Mof_C 	C 	0.26647	0.64388	0.09478	-0.931
Mof_C 	C 	0.61862	0.16822	0.80774	0.66
Mof_C 	C 	0.73458	0.99984	0.4694	-0.589
Mof_C 	C 	0.01009	0.05574	0.18408	-1.096
Mof_C 	C 	0.51097	0.34458	0.43068	0.57
Mof_C 	C 	0.20398	0.5306	0.49984	-0.876
Mof_C 	C 	0.48028	0.69707	0.63957	-0.836
Mof_C 	C 	0.90542	0.66822	0.30774	0.678
Mof_C 	C 	0.73353	0.35612	0.90522	-0.974
Mof_C 	C 	0.98991	0.94426	0.81592	-0.663
Mof_C 	C 	0.80783	0.90978	0.04336	0.628
Mof_C 	C 	0.06583	0.68408	0.94426	-0.629
Mof_C 	C 	0.80583	0.18408	0.44426	-0.887
Mof_C 	C 	0.31871	0.46898	0.6714	0.6
Mof_C 	C 	0.85119	0.95664	0.40978	0.526
Mof_C 	C 	0.48903	0.65542	0.56932	0.574
Mof_C 	C 	0.14881	0.04336	0.59022	0.684
Mof_C 	C 	0.78684	0.30774	0.83178	0.674
Mof_C 	C 	0.88015	0.63957	0.80293	-0.882
Mof_C 	C 	0.26097	0.59022	0.45664	0.607
Mof_C 	C 	0.21231	0.8286	0.46898	0.592
Mof_C 	C 	0.94165	0.56932	0.84458	0.625
Mof_C 	C 	0.50513	0.85612	0.40522	-0.963
Mof_C 	C 	0.57364	0.80774	0.33178	0.668
Mof_C 	C 	0.74991	0.44426	0.31592	-0.893
Mof_C 	C 	0.29618	0.49984	0.9694	-0.733
Mof_C 	C 	0.73903	0.40978	0.54336	0.62
Mof_C 	C 	0.19217	0.09022	0.95664	0.545
Mof_C 	C 	0.19417	0.81592	0.55574	-0.872
Mof_C 	C 	0.70382	0.50016	0.0306	-0.988
Mof_C 	C 	0.91035	0.59478	0.35612	-0.975
Mof_C 	C 	0.26558	0.0306	0.99984	-0.668
Mof_C 	C 	0.21316	0.69226	0.16822	0.652
Mof_C 	C 	0.93417	0.31592	0.05574	-1.015
Mof_C 	C 	0.05835	0.43068	0.15542	0.479
Mof_C 	C 	0.71761	0.54336	0.09022	0.635
Mof_C 	C 	0.63875	0.09478	0.85612	-0.943
Mof_C 	C 	0.08965	0.40522	0.64388	-0.935
Mof_C 	C 	0.28239	0.45664	0.90978	0.568
Mof_C 	C 	0.25009	0.55574	0.68408	-0.875
Mof_C 	C 	0.42636	0.19226	0.66822	0.66
Mof_C 	C 	0.49487	0.14388	0.59478	-0.944
Mof_C 	C 	0.82265	0.86043	0.69707	-0.839
Mof_C 	C 	0.51972	0.30293	0.36043	-0.824
Mof_C 	C 	0.99011	0.3286	0.96898	0.723
Mof_C 	C 	0.36125	0.90522	0.14388	-0.966
Mof_C 	C 	0.09458	0.33178	0.69226	0.654
Mof_C 	C 	0.11985	0.36043	0.19707	-0.743
Mof_C 	C 	0.78769	0.1714	0.53102	0.604
Mof_C 	C 	0.68308	0.19707	0.13957	-0.815
Mof_C 	C 	0.68129	0.53102	0.3286	0.606
Mof_C 	C 	0.17735	0.13957	0.30293	-0.807
Mof_C 	C 	0.78623	0.15542	0.06932	0.562
Mof_O 	O 	0.91511	0.90832	0.02918	-0.483
Mof_O 	O 	0.25923	0.30056	0.84826	-0.712
Mof_O 	O 	0.88301	0.67204	0.24438	-0.547
Mof_O 	O 	0.47713	0.77793	0.16601	-0.509
Mof_O 	O 	0.55979	0.34826	0.69944	-0.711
Mof_O 	O 	0.2866	0.77441	0.42175	-0.516
Mof_O 	O 	0.01724	0.27441	0.92175	-0.573
Mof_O 	O 	0.21668	0.63458	0.41012	-0.496
Mof_O 	O 	0.09195	0.80056	0.34826	-0.73
Mof_O 	O 	0.64314	0.83399	0.27793	-0.506
Mof_O 	O 	0.52469	0.30278	0.489	-0.499
Mof_O 	O 	0.17253	0.011	0.30278	-0.522
Mof_O 	O 	0.07893	0.27793	0.66601	-0.509
Mof_O 	O 	0.00817	0.3938	0.94596	-0.557
Mof_O 	O 	0.17657	0.47082	0.90832	-0.496
Mof_O 	O 	0.01369	0.511	0.80278	-0.533
Mof_O 	O 	0.59803	0.55404	0.3938	-0.53
Mof_O 	O 	0.52287	0.22207	0.83399	-0.503
Mof_O 	O 	0.76138	0.86542	0.08988	-0.49
Mof_O 	O 	0.47531	0.69722	0.511	-0.5
Mof_O 	O 	0.35686	0.16601	0.72207	-0.508
Mof_O 	O 	0.16413	0.91787	0.92577	-0.421
Mof_O 	O 	0.82343	0.52918	0.09168	-0.521
Mof_O 	O 	0.14874	0.08988	0.63458	-0.519
Mof_O 	O 	0.98631	0.489	0.19722	-0.44
Mof_O 	O 	0.70057	0.17204	0.74438	-0.548
Mof_O 	O 	0.15207	0.8938	0.44596	-0.518
Mof_O 	O 	0.84793	0.1062	0.55404	-0.513
Mof_O 	O 	0.55505	0.74438	0.32796	-0.548
Mof_O 	O 	0.23862	0.13458	0.91012	-0.469
Mof_O 	O 	0.87261	0.24438	0.82796	-0.538
Mof_O 	O 	0.10749	0.15174	0.80056	-0.719
Mof_O 	O 	0.9101	0.92577	0.58213	-0.422
Mof_O 	O 	0.83587	0.08213	0.07423	-0.452
Mof_O 	O 	0.64739	0.40832	0.52918	-0.534
Mof_O 	O 	0.70835	0.57825	0.27441	-0.52
Mof_O 	O 	0.18353	0.80278	0.989	-0.456
Mof_O 	O 	0.85126	0.91012	0.36542	-0.454
Mof_O 	O 	0.74077	0.69944	0.15174	-0.711
Mof_O 	O 	0.78332	0.36542	0.58988	-0.486
Mof_O 	O 	0.99183	0.6062	0.05404	-0.413
Mof_O 	O 	0.92107	0.72207	0.33399	-0.505
Mof_O 	O 	0.35261	0.59168	0.47082	-0.531
Mof_O 	O 	0.40197	0.44596	0.6062	-0.528
Mof_O 	O 	0.7134	0.22559	0.57825	-0.519
Mof_O 	O 	0.3732	0.41012	0.86542	-0.473
Mof_O 	O 	0.11699	0.32796	0.75562	-0.547
Mof_O 	O 	0.82747	0.989	0.69722	-0.468
Mof_O 	O 	0.25506	0.66601	0.22207	-0.511
Mof_O 	O 	0.74494	0.33399	0.77793	-0.504
Mof_O 	O 	0.29943	0.82796	0.25562	-0.546
Mof_O 	O 	0.082	0.42577	0.08213	-0.458
Mof_O 	O 	0.05571	0.02918	0.59168	-0.571
Mof_O 	O 	0.98276	0.72559	0.07825	-0.406
Mof_O 	O 	0.89251	0.84826	0.19944	-0.693
Mof_O 	O 	0.0899	0.07423	0.41787	-0.475
Mof_O 	O 	0.81647	0.19722	0.011	-0.515
Mof_O 	O 	0.06101	0.92175	0.22559	-0.554
Mof_O 	O 	0.04587	0.94596	0.1062	-0.535
Mof_O 	O 	0.08489	0.09168	0.97082	-0.499
Mof_O 	O 	0.918	0.57423	0.91787	-0.438
Mof_O 	O 	0.90805	0.19944	0.65174	-0.697
Mof_O 	O 	0.44495	0.25562	0.67204	-0.546
Mof_O 	O 	0.95413	0.05404	0.8938	-0.481
Mof_O 	O 	0.29165	0.42175	0.72559	-0.518
Mof_O 	O 	0.50777	0.58213	0.57423	-0.467
Mof_O 	O 	0.6268	0.58988	0.13458	-0.499
Mof_O 	O 	0.93899	0.07825	0.77441	-0.485
Mof_O 	O 	0.49223	0.41787	0.42577	-0.467
Mof_O 	O 	0.44021	0.65174	0.30056	-0.71
Mof_O 	O 	0.94429	0.97082	0.40832	-0.453
Mof_O 	O 	0.12739	0.75562	0.17204	-0.561
_end
