data_functionalizedCrystal
_audit_creation_method	'EQeq! by Chris Wilmer'
_symmetry_space_group_name_H-M	'P1'
_symmetry_Int_Tables_number	1
_symmetry_cell_setting	triclinic
loop_
_symmetry_equiv_pos_as_xyz
  x,y,z
_cell_length_a	22.0927
_cell_length_b	22.0927
_cell_length_c	15.2503
_cell_angle_alpha	90
_cell_angle_beta	90
_cell_angle_gamma	90
loop_
_atom_site_label
_atom_site_type_symbol
_atom_site_fract_x
_atom_site_fract_y
_atom_site_fract_z
_atom_site_charge
Mof_F 	F 	0.9932	0.92552	0.662	-0.659
Mof_F 	F 	0.92592	0.01508	0.1665	-0.716
Mof_N 	N 	0.432	0.43261	0.9115	-0.226
Mof_C 	C 	0.387	0.4331	0.8557	0.117
Mof_H 	H 	0.3866	0.4646	0.8132	0.041
Mof_C 	C 	0.3399	0.3916	0.8531	-0.142
Mof_H 	H 	0.3086	0.3952	0.8108	0.104
Mof_C 	C 	0.3396	0.3443	0.9143	0.112
Mof_C 	C 	0.3902	0.3424	0.9767	-0.148
Mof_H 	H 	0.3934	0.3117	0.0201	0.104
Mof_C 	C 	0.4313	0.3861	0.9688	0.107
Mof_H 	H 	0.4643	0.3844	0.0087	0.048
Mof_C 	C 	0.2933	0.2969	0.9173	-0.038
Mof_C 	C 	0.232	0.3077	0.9266	0.137
Mof_C 	C 	0.1915	0.2637	0.9231	-0.11
Mof_H 	H 	0.1498	0.2744	0.923	0.068
Mof_C 	C 	0.2063	0.2042	0.9195	-0.048
Mof_C 	C 	0.2679	0.1883	0.9189	0.15
Mof_C 	C 	0.3115	0.2368	0.9175	-0.106
Mof_H 	H 	0.3535	0.2275	0.9168	0.075
Mof_C 	C 	0.1586	0.156	0.9185	0.125
Mof_C 	C 	0.1571	0.11	0.978	-0.157
Mof_H 	H 	0.1888	0.1072	0.0199	0.108
Mof_C 	C 	0.1121	0.068	0.9799	0.082
Mof_H 	H 	0.1112	0.0382	0.0249	0.031
Mof_N 	N 	0.06759	0.06896	0.9159	-0.234
Mof_C 	C 	0.0678	0.1118	0.8543	0.083
Mof_H 	H 	0.0373	0.1138	0.8106	0.03
Mof_C 	C 	0.1166	0.155	0.8572	-0.156
Mof_H 	H 	0.1187	0.1846	0.812	0.09
Mof_O 	O 	0.2189	0.3696	0.9401	-0.196
Mof_C 	C 	0.1591	0.3846	0.9704	-0.004
Mof_H 	H 	0.1489	0.3606	0.0232	0.048
Mof_H 	H 	0.1288	0.3755	0.9243	0.038
Mof_C 	C 	0.1584	0.4532	0.9925	0.008
Mof_C 	C 	0.0903	0.4683	0.0161	-0.041
Mof_C 	C 	0.096	0.458	0.1194	0.017
Mof_C 	C 	0.1551	0.4857	0.8993	-0.009
Mof_C 	C 	0.3168	0.0094	0.9068	0.012
Mof_C 	C 	0.4243	0.0486	0.893	-0.031
Mof_C 	C 	0.4107	0.0347	0.9906	-0.065
Mof_O 	O 	0.2834	0.1324	0.9405	-0.214
Mof_C 	C 	0.3447	0.1166	0.9623	0.002
Mof_H 	H 	0.3597	0.1419	0.0113	0.044
Mof_H 	H 	0.3716	0.1223	0.9111	0.044
Mof_C 	C 	0.3421	0.0463	0.9904	-0.003
Mof_C 	C 	0.2124	0.4929	0.968	0.01
Mof_C 	C 	0.1078	0.4696	0.0578	0.024
Mof_C 	C 	0.102	0.438	0.148	-0.043
Mof_C 	C 	0.299	0.015	0.923	-0.054
Mof_C 	C 	0.4063	0.026	0.017	-0
Mof_C 	C 	0.388	0.961	0.992	0.069
Mof_F 	F 	0.0068	0.07448	0.662	-0.783
Mof_F 	F 	0.07408	0.98492	0.1665	-0.666
Mof_N 	N 	0.568	0.56739	0.9115	-0.227
Mof_C 	C 	0.613	0.5669	0.8557	0.118
Mof_H 	H 	0.6134	0.5354	0.8132	0.041
Mof_C 	C 	0.6601	0.6084	0.8531	-0.144
Mof_H 	H 	0.6914	0.6048	0.8108	0.107
Mof_C 	C 	0.6604	0.6557	0.9143	0.116
Mof_C 	C 	0.6098	0.6576	0.9767	-0.149
Mof_H 	H 	0.6066	0.6883	0.0201	0.105
Mof_C 	C 	0.5687	0.6139	0.9688	0.108
Mof_H 	H 	0.5357	0.6156	0.0087	0.048
Mof_C 	C 	0.7067	0.7031	0.9173	-0.041
Mof_C 	C 	0.768	0.6923	0.9266	0.147
Mof_C 	C 	0.8085	0.7363	0.9231	-0.118
Mof_H 	H 	0.8502	0.7256	0.923	0.089
Mof_C 	C 	0.7937	0.7958	0.9195	-0.035
Mof_C 	C 	0.7321	0.8117	0.9189	0.148
Mof_C 	C 	0.6885	0.7632	0.9175	-0.099
Mof_H 	H 	0.6465	0.7725	0.9168	0.074
Mof_C 	C 	0.8414	0.844	0.9185	0.133
Mof_C 	C 	0.8429	0.89	0.978	-0.142
Mof_H 	H 	0.8112	0.8928	0.0199	0.12
Mof_C 	C 	0.8879	0.932	0.9799	0.107
Mof_H 	H 	0.8888	0.9618	0.0249	0.089
Mof_N 	N 	0.93241	0.93104	0.9159	-0.173
Mof_C 	C 	0.9322	0.8882	0.8543	0.118
Mof_H 	H 	0.9627	0.8862	0.8106	0.08
Mof_C 	C 	0.8834	0.845	0.8572	-0.138
Mof_H 	H 	0.8813	0.8154	0.812	0.109
Mof_O 	O 	0.7811	0.6304	0.9401	-0.193
Mof_C 	C 	0.8409	0.6154	0.9704	-0.013
Mof_H 	H 	0.8511	0.6394	0.0232	0.056
Mof_H 	H 	0.8712	0.6245	0.9243	0.053
Mof_C 	C 	0.8416	0.5468	0.9925	0.004
Mof_C 	C 	0.9097	0.5317	0.0161	0.038
Mof_C 	C 	0.904	0.542	0.1194	-0.017
Mof_C 	C 	0.8449	0.5143	0.8993	0.003
Mof_C 	C 	0.6832	0.9906	0.9068	0.036
Mof_C 	C 	0.5757	0.9514	0.893	0.002
Mof_C 	C 	0.5893	0.9653	0.9906	0.104
Mof_O 	O 	0.7166	0.8676	0.9405	-0.203
Mof_C 	C 	0.6553	0.8834	0.9623	-0.01
Mof_H 	H 	0.6403	0.8581	0.0113	0.05
Mof_H 	H 	0.6284	0.8777	0.9111	0.046
Mof_C 	C 	0.6579	0.9537	0.9904	0.019
Mof_C 	C 	0.7876	0.5071	0.968	0.011
Mof_C 	C 	0.8922	0.5304	0.0578	-0.027
Mof_C 	C 	0.898	0.562	0.148	0.046
Mof_C 	C 	0.701	0.985	0.923	0.025
Mof_C 	C 	0.5937	0.974	0.017	-0.042
Mof_C 	C 	0.612	0.039	0.992	-0.092
Mof_F 	F 	0.07448	0.9932	0.662	-0.7
Mof_F 	F 	0.98492	0.92592	0.1665	-0.629
Mof_N 	N 	0.56739	0.432	0.9115	-0.227
Mof_C 	C 	0.5669	0.387	0.8557	0.117
Mof_H 	H 	0.5354	0.3866	0.8132	0.041
Mof_C 	C 	0.6084	0.3399	0.8531	-0.143
Mof_H 	H 	0.6048	0.3086	0.8108	0.105
Mof_C 	C 	0.6557	0.3396	0.9143	0.113
Mof_C 	C 	0.6576	0.3902	0.9767	-0.148
Mof_H 	H 	0.6883	0.3934	0.0201	0.105
Mof_C 	C 	0.6139	0.4313	0.9688	0.108
Mof_H 	H 	0.6156	0.4643	0.0087	0.048
Mof_C 	C 	0.7031	0.2933	0.9173	-0.038
Mof_C 	C 	0.6923	0.232	0.9266	0.139
Mof_C 	C 	0.7363	0.1915	0.9231	-0.112
Mof_H 	H 	0.7256	0.1498	0.923	0.069
Mof_C 	C 	0.7958	0.2063	0.9195	-0.044
Mof_C 	C 	0.8117	0.2679	0.9189	0.151
Mof_C 	C 	0.7632	0.3115	0.9175	-0.103
Mof_H 	H 	0.7725	0.3535	0.9168	0.076
Mof_C 	C 	0.844	0.1586	0.9185	0.127
Mof_C 	C 	0.89	0.1571	0.978	-0.145
Mof_H 	H 	0.8928	0.1888	0.0199	0.118
Mof_C 	C 	0.932	0.1121	0.9799	0.095
Mof_H 	H 	0.9618	0.1112	0.0249	0.083
Mof_N 	N 	0.93104	0.06759	0.9159	-0.2
Mof_C 	C 	0.8882	0.0678	0.8543	0.099
Mof_H 	H 	0.8862	0.0373	0.8106	0.042
Mof_C 	C 	0.845	0.1166	0.8572	-0.148
Mof_H 	H 	0.8154	0.1187	0.812	0.093
Mof_O 	O 	0.6304	0.2189	0.9401	-0.196
Mof_C 	C 	0.6154	0.1591	0.9704	-0.004
Mof_H 	H 	0.6394	0.1489	0.0232	0.049
Mof_H 	H 	0.6245	0.1288	0.9243	0.038
Mof_C 	C 	0.5468	0.1584	0.9925	0.008
Mof_C 	C 	0.5317	0.0903	0.0161	-0.04
Mof_C 	C 	0.542	0.096	0.1194	0.017
Mof_C 	C 	0.5143	0.1551	0.8993	-0.009
Mof_C 	C 	0.9906	0.3168	0.9068	0.037
Mof_C 	C 	0.9514	0.4243	0.893	0.002
Mof_C 	C 	0.9653	0.4107	0.9906	0.106
Mof_O 	O 	0.8676	0.2834	0.9405	-0.204
Mof_C 	C 	0.8834	0.3447	0.9623	-0.009
Mof_H 	H 	0.8581	0.3597	0.0113	0.05
Mof_H 	H 	0.8777	0.3716	0.9111	0.046
Mof_C 	C 	0.9537	0.3421	0.9904	0.019
Mof_C 	C 	0.5071	0.2124	0.968	0.01
Mof_C 	C 	0.5304	0.1078	0.0578	0.023
Mof_C 	C 	0.562	0.102	0.148	-0.042
Mof_C 	C 	0.985	0.299	0.923	0.025
Mof_C 	C 	0.974	0.4063	0.017	-0.042
Mof_C 	C 	0.039	0.388	0.992	-0.094
Mof_F 	F 	0.92552	0.0068	0.662	-0.733
Mof_F 	F 	0.01508	0.07408	0.1665	-0.764
Mof_N 	N 	0.43261	0.568	0.9115	-0.227
Mof_C 	C 	0.4331	0.613	0.8557	0.118
Mof_H 	H 	0.4646	0.6134	0.8132	0.041
Mof_C 	C 	0.3916	0.6601	0.8531	-0.144
Mof_H 	H 	0.3952	0.6914	0.8108	0.107
Mof_C 	C 	0.3443	0.6604	0.9143	0.115
Mof_C 	C 	0.3424	0.6098	0.9767	-0.149
Mof_H 	H 	0.3117	0.6066	0.0201	0.105
Mof_C 	C 	0.3861	0.5687	0.9688	0.108
Mof_H 	H 	0.3844	0.5357	0.0087	0.048
Mof_C 	C 	0.2969	0.7067	0.9173	-0.041
Mof_C 	C 	0.3077	0.768	0.9266	0.145
Mof_C 	C 	0.2637	0.8085	0.9231	-0.117
Mof_H 	H 	0.2744	0.8502	0.923	0.089
Mof_C 	C 	0.2042	0.7937	0.9195	-0.039
Mof_C 	C 	0.1883	0.7321	0.9189	0.148
Mof_C 	C 	0.2368	0.6885	0.9175	-0.101
Mof_H 	H 	0.2275	0.6465	0.9168	0.074
Mof_C 	C 	0.156	0.8414	0.9185	0.131
Mof_C 	C 	0.11	0.8429	0.978	-0.153
Mof_H 	H 	0.1072	0.8112	0.0199	0.111
Mof_C 	C 	0.068	0.8879	0.9799	0.096
Mof_H 	H 	0.0382	0.8888	0.0249	0.042
Mof_N 	N 	0.06896	0.93241	0.9159	-0.202
Mof_C 	C 	0.1118	0.9322	0.8543	0.104
Mof_H 	H 	0.1138	0.9627	0.8106	0.071
Mof_C 	C 	0.155	0.8834	0.8572	-0.145
Mof_H 	H 	0.1846	0.8813	0.812	0.106
Mof_O 	O 	0.3696	0.7811	0.9401	-0.193
Mof_C 	C 	0.3846	0.8409	0.9704	-0.013
Mof_H 	H 	0.3606	0.8511	0.0232	0.056
Mof_H 	H 	0.3755	0.8712	0.9243	0.053
Mof_C 	C 	0.4532	0.8416	0.9925	0.004
Mof_C 	C 	0.4683	0.9097	0.0161	0.038
Mof_C 	C 	0.458	0.904	0.1194	-0.017
Mof_C 	C 	0.4857	0.8449	0.8993	0.003
Mof_C 	C 	0.0094	0.6832	0.9068	0.013
Mof_C 	C 	0.0486	0.5757	0.893	-0.031
Mof_C 	C 	0.0347	0.5893	0.9906	-0.063
Mof_O 	O 	0.1324	0.7166	0.9405	-0.213
Mof_C 	C 	0.1166	0.6553	0.9623	0.001
Mof_H 	H 	0.1419	0.6403	0.0113	0.044
Mof_H 	H 	0.1223	0.6284	0.9111	0.045
Mof_C 	C 	0.0463	0.6579	0.9904	-0.002
Mof_C 	C 	0.4929	0.7876	0.968	0.011
Mof_C 	C 	0.4696	0.8922	0.0578	-0.027
Mof_C 	C 	0.438	0.898	0.148	0.047
Mof_C 	C 	0.015	0.701	0.923	-0.053
Mof_C 	C 	0.026	0.5937	0.017	-0.001
Mof_C 	C 	0.961	0.612	0.992	0.066
Mof_Zn	Zn	2.37428e-33	0	0.91736	1.217
Mof_Si	Si	-1.67024e-33	0	0.665	3.035
Mof_Si	Si	-4.20536e-34	0	0.1651	2.904
Mof_F 	F 	2.02394e-33	0	0.782	-0.899
Mof_F 	F 	4.83556e-33	3.39136e-33	0.558	-0.952
Mof_F 	F 	1.36396e-34	0	0.0527	-0.921
Mof_F 	F 	7.15627e-34	0	0.2765	-0.91
Mof_Zn	Zn	0.5	0.5	0.91515	1.259
Mof_N 	N 	0.932	0.93261	0.4115	-0.18
Mof_C 	C 	0.887	0.9331	0.3557	0.122
Mof_H 	H 	0.8866	0.9646	0.3132	0.081
Mof_C 	C 	0.8399	0.8916	0.3531	-0.129
Mof_H 	H 	0.8086	0.8952	0.3108	0.111
Mof_C 	C 	0.8396	0.8443	0.4143	0.115
Mof_C 	C 	0.8902	0.8424	0.4767	-0.131
Mof_H 	H 	0.8934	0.8117	0.5201	0.111
Mof_C 	C 	0.9313	0.8861	0.4688	0.123
Mof_H 	H 	0.9643	0.8844	0.5087	0.079
Mof_C 	C 	0.7933	0.7969	0.4173	-0.031
Mof_C 	C 	0.732	0.8077	0.4266	0.142
Mof_C 	C 	0.6915	0.7637	0.4231	-0.111
Mof_H 	H 	0.6498	0.7744	0.423	0.079
Mof_C 	C 	0.7063	0.7042	0.4195	-0.043
Mof_C 	C 	0.7679	0.6883	0.4189	0.155
Mof_C 	C 	0.8115	0.7368	0.4175	-0.106
Mof_H 	H 	0.8535	0.7275	0.4168	0.089
Mof_C 	C 	0.6586	0.656	0.4185	0.131
Mof_C 	C 	0.6571	0.61	0.478	-0.148
Mof_H 	H 	0.6888	0.6072	0.5199	0.112
Mof_C 	C 	0.6121	0.568	0.4799	0.101
Mof_H 	H 	0.6112	0.5382	0.5249	0.047
Mof_N 	N 	0.56759	0.56896	0.4159	-0.218
Mof_C 	C 	0.5678	0.6118	0.3543	0.102
Mof_H 	H 	0.5373	0.6138	0.3106	0.046
Mof_C 	C 	0.6166	0.655	0.3572	-0.15
Mof_H 	H 	0.6187	0.6846	0.312	0.101
Mof_O 	O 	0.7189	0.8696	0.4401	-0.192
Mof_C 	C 	0.6591	0.8846	0.4704	0.004
Mof_H 	H 	0.6489	0.8606	0.5232	0.047
Mof_H 	H 	0.6288	0.8755	0.4243	0.044
Mof_C 	C 	0.6584	0.9532	0.4925	-0.005
Mof_C 	C 	0.5903	0.9683	0.5161	0.037
Mof_C 	C 	0.596	0.958	0.6194	-0.01
Mof_C 	C 	0.6551	0.9857	0.3993	0.035
Mof_C 	C 	0.8168	0.5094	0.4068	0.025
Mof_C 	C 	0.9243	0.5486	0.393	0.026
Mof_C 	C 	0.9107	0.5347	0.4906	0.021
Mof_O 	O 	0.7834	0.6324	0.4405	-0.208
Mof_C 	C 	0.8447	0.6166	0.4623	-0.004
Mof_H 	H 	0.8597	0.6419	0.5113	0.056
Mof_H 	H 	0.8716	0.6223	0.4111	0.055
Mof_C 	C 	0.8421	0.5463	0.4904	0.01
Mof_C 	C 	0.7124	0.9929	0.468	0.057
Mof_C 	C 	0.6078	0.9696	0.5578	-0.003
Mof_C 	C 	0.602	0.938	0.648	0.038
Mof_C 	C 	0.799	0.515	0.423	-0.014
Mof_C 	C 	0.9063	0.526	0.517	-0.003
Mof_C 	C 	0.888	0.461	0.492	-0.009
Mof_F 	F 	0.4932	0.42552	0.162	-0.811
Mof_F 	F 	0.42592	0.51508	0.6665	-0.781
Mof_N 	N 	0.068	0.06739	0.4115	-0.246
Mof_C 	C 	0.113	0.0669	0.3557	0.106
Mof_H 	H 	0.1134	0.0354	0.3132	0.019
Mof_C 	C 	0.1601	0.1084	0.3531	-0.149
Mof_H 	H 	0.1914	0.1048	0.3108	0.098
Mof_C 	C 	0.1604	0.1557	0.4143	0.107
Mof_C 	C 	0.1098	0.1576	0.4767	-0.15
Mof_H 	H 	0.1066	0.1883	0.5201	0.087
Mof_C 	C 	0.0687	0.1139	0.4688	0.096
Mof_H 	H 	0.0357	0.1156	0.5087	0.024
Mof_C 	C 	0.2067	0.2031	0.4173	-0.044
Mof_C 	C 	0.268	0.1923	0.4266	0.143
Mof_C 	C 	0.3085	0.2363	0.4231	-0.117
Mof_H 	H 	0.3502	0.2256	0.423	0.079
Mof_C 	C 	0.2937	0.2958	0.4195	-0.04
Mof_C 	C 	0.2321	0.3117	0.4189	0.146
Mof_C 	C 	0.1885	0.2632	0.4175	-0.1
Mof_H 	H 	0.1465	0.2725	0.4168	0.063
Mof_C 	C 	0.3414	0.344	0.4185	0.127
Mof_C 	C 	0.3429	0.39	0.478	-0.146
Mof_H 	H 	0.3112	0.3928	0.5199	0.109
Mof_C 	C 	0.3879	0.432	0.4799	0.099
Mof_H 	H 	0.3888	0.4618	0.5249	0.047
Mof_N 	N 	0.43241	0.43104	0.4159	-0.218
Mof_C 	C 	0.4322	0.3882	0.3543	0.101
Mof_H 	H 	0.4627	0.3862	0.3106	0.046
Mof_C 	C 	0.3834	0.345	0.3572	-0.148
Mof_H 	H 	0.3813	0.3154	0.312	0.099
Mof_O 	O 	0.2811	0.1304	0.4401	-0.199
Mof_C 	C 	0.3409	0.1154	0.4704	-0.008
Mof_H 	H 	0.3511	0.1394	0.5232	0.048
Mof_H 	H 	0.3712	0.1245	0.4243	0.044
Mof_C 	C 	0.3416	0.0468	0.4925	0.022
Mof_C 	C 	0.4097	0.0317	0.5161	-0.056
Mof_C 	C 	0.404	0.042	0.6194	0.016
Mof_C 	C 	0.3449	0.0143	0.3993	-0.04
Mof_C 	C 	0.1832	0.4906	0.4068	0.024
Mof_C 	C 	0.0757	0.4514	0.393	-0.045
Mof_C 	C 	0.0893	0.4653	0.4906	-0.019
Mof_O 	O 	0.2166	0.3676	0.4405	-0.212
Mof_C 	C 	0.1553	0.3834	0.4623	0.012
Mof_H 	H 	0.1403	0.3581	0.5113	0.027
Mof_H 	H 	0.1284	0.3777	0.4111	0.031
Mof_C 	C 	0.1579	0.4537	0.4904	0.008
Mof_C 	C 	0.2876	0.0071	0.468	-0.034
Mof_C 	C 	0.3922	0.0304	0.5578	0.007
Mof_C 	C 	0.398	0.062	0.648	-0.043
Mof_C 	C 	0.201	0.485	0.423	-0.014
Mof_C 	C 	0.0937	0.474	0.517	-0.007
Mof_C 	C 	0.112	0.539	0.492	-0.012
Mof_F 	F 	0.5068	0.57448	0.162	-0.81
Mof_F 	F 	0.57408	0.48492	0.6665	-0.781
Mof_N 	N 	0.06739	0.932	0.4115	-0.212
Mof_C 	C 	0.0669	0.887	0.3557	0.115
Mof_H 	H 	0.0354	0.8866	0.3132	0.031
Mof_C 	C 	0.1084	0.8399	0.3531	-0.141
Mof_H 	H 	0.1048	0.8086	0.3108	0.101
Mof_C 	C 	0.1557	0.8396	0.4143	0.112
Mof_C 	C 	0.1576	0.8902	0.4767	-0.137
Mof_H 	H 	0.1883	0.8934	0.5201	0.109
Mof_C 	C 	0.1139	0.9313	0.4688	0.112
Mof_H 	H 	0.1156	0.9643	0.5087	0.07
Mof_C 	C 	0.2031	0.7933	0.4173	-0.033
Mof_C 	C 	0.1923	0.732	0.4266	0.139
Mof_C 	C 	0.2363	0.6915	0.4231	-0.111
Mof_H 	H 	0.2256	0.6498	0.423	0.078
Mof_C 	C 	0.2958	0.7063	0.4195	-0.043
Mof_C 	C 	0.3117	0.7679	0.4189	0.154
Mof_C 	C 	0.2632	0.8115	0.4175	-0.106
Mof_H 	H 	0.2725	0.8535	0.4168	0.089
Mof_C 	C 	0.344	0.6586	0.4185	0.13
Mof_C 	C 	0.39	0.6571	0.478	-0.148
Mof_H 	H 	0.3928	0.6888	0.5199	0.111
Mof_C 	C 	0.432	0.6121	0.4799	0.101
Mof_H 	H 	0.4618	0.6112	0.5249	0.047
Mof_N 	N 	0.43104	0.56759	0.4159	-0.218
Mof_C 	C 	0.3882	0.5678	0.3543	0.102
Mof_H 	H 	0.3862	0.5373	0.3106	0.046
Mof_C 	C 	0.345	0.6166	0.3572	-0.149
Mof_H 	H 	0.3154	0.6187	0.312	0.1
Mof_O 	O 	0.1304	0.7189	0.4401	-0.197
Mof_C 	C 	0.1154	0.6591	0.4704	-0.009
Mof_H 	H 	0.1394	0.6489	0.5232	0.049
Mof_H 	H 	0.1245	0.6288	0.4243	0.045
Mof_C 	C 	0.0468	0.6584	0.4925	0.022
Mof_C 	C 	0.0317	0.5903	0.5161	-0.055
Mof_C 	C 	0.042	0.596	0.6194	0.017
Mof_C 	C 	0.0143	0.6551	0.3993	-0.039
Mof_C 	C 	0.4906	0.8168	0.4068	0.025
Mof_C 	C 	0.4514	0.9243	0.393	0.027
Mof_C 	C 	0.4653	0.9107	0.4906	0.022
Mof_O 	O 	0.3676	0.7834	0.4405	-0.208
Mof_C 	C 	0.3834	0.8447	0.4623	-0.004
Mof_H 	H 	0.3581	0.8597	0.5113	0.056
Mof_H 	H 	0.3777	0.8716	0.4111	0.056
Mof_C 	C 	0.4537	0.8421	0.4904	0.01
Mof_C 	C 	0.0071	0.7124	0.468	-0.032
Mof_C 	C 	0.0304	0.6078	0.5578	0.006
Mof_C 	C 	0.062	0.602	0.648	-0.043
Mof_C 	C 	0.485	0.799	0.423	-0.014
Mof_C 	C 	0.474	0.9063	0.517	-0.003
Mof_C 	C 	0.539	0.888	0.492	-0.009
Mof_F 	F 	0.57448	0.4932	0.162	-0.81
Mof_F 	F 	0.48492	0.42592	0.6665	-0.781
Mof_N 	N 	0.93261	0.068	0.4115	-0.21
Mof_C 	C 	0.9331	0.113	0.3557	0.114
Mof_H 	H 	0.9646	0.1134	0.3132	0.074
Mof_C 	C 	0.8916	0.1601	0.3531	-0.135
Mof_H 	H 	0.8952	0.1914	0.3108	0.11
Mof_C 	C 	0.8443	0.1604	0.4143	0.11
Mof_C 	C 	0.8424	0.1098	0.4767	-0.143
Mof_H 	H 	0.8117	0.1066	0.5201	0.09
Mof_C 	C 	0.8861	0.0687	0.4688	0.108
Mof_H 	H 	0.8844	0.0357	0.5087	0.036
Mof_C 	C 	0.7969	0.2067	0.4173	-0.041
Mof_C 	C 	0.8077	0.268	0.4266	0.145
Mof_C 	C 	0.7637	0.3085	0.4231	-0.116
Mof_H 	H 	0.7744	0.3502	0.423	0.08
Mof_C 	C 	0.7042	0.2937	0.4195	-0.04
Mof_C 	C 	0.6883	0.2321	0.4189	0.147
Mof_C 	C 	0.7368	0.1885	0.4175	-0.1
Mof_H 	H 	0.7275	0.1465	0.4168	0.063
Mof_C 	C 	0.656	0.3414	0.4185	0.128
Mof_C 	C 	0.61	0.3429	0.478	-0.146
Mof_H 	H 	0.6072	0.3112	0.5199	0.11
Mof_C 	C 	0.568	0.3879	0.4799	0.1
Mof_H 	H 	0.5382	0.3888	0.5249	0.047
Mof_N 	N 	0.56896	0.43241	0.4159	-0.218
Mof_C 	C 	0.6118	0.4322	0.3543	0.101
Mof_H 	H 	0.6138	0.4627	0.3106	0.046
Mof_C 	C 	0.655	0.3834	0.3572	-0.148
Mof_H 	H 	0.6846	0.3813	0.312	0.1
Mof_O 	O 	0.8696	0.2811	0.4401	-0.193
Mof_C 	C 	0.8846	0.3409	0.4704	0.005
Mof_H 	H 	0.8606	0.3511	0.5232	0.046
Mof_H 	H 	0.8755	0.3712	0.4243	0.043
Mof_C 	C 	0.9532	0.3416	0.4925	-0.006
Mof_C 	C 	0.9683	0.4097	0.5161	0.037
Mof_C 	C 	0.958	0.404	0.6194	-0.01
Mof_C 	C 	0.9857	0.3449	0.3993	0.036
Mof_C 	C 	0.5094	0.1832	0.4068	0.024
Mof_C 	C 	0.5486	0.0757	0.393	-0.045
Mof_C 	C 	0.5347	0.0893	0.4906	-0.018
Mof_O 	O 	0.6324	0.2166	0.4405	-0.212
Mof_C 	C 	0.6166	0.1553	0.4623	0.011
Mof_H 	H 	0.6419	0.1403	0.5113	0.028
Mof_H 	H 	0.6223	0.1284	0.4111	0.032
Mof_C 	C 	0.5463	0.1579	0.4904	0.008
Mof_C 	C 	0.9929	0.2876	0.468	0.059
Mof_C 	C 	0.9696	0.3922	0.5578	-0.003
Mof_C 	C 	0.938	0.398	0.648	0.037
Mof_C 	C 	0.515	0.201	0.423	-0.015
Mof_C 	C 	0.526	0.0937	0.517	-0.007
Mof_C 	C 	0.461	0.112	0.492	-0.012
Mof_F 	F 	0.42552	0.5068	0.162	-0.811
Mof_F 	F 	0.51508	0.57408	0.6665	-0.781
Mof_Zn	Zn	1.07448e-33	0	0.41515	1.215
Mof_Zn	Zn	0.5	0.5	0.41736	1.26
Mof_Si	Si	0.5	0.5	0.165	3.467
Mof_Si	Si	0.5	0.5	0.6651	3.314
Mof_F 	F 	0.5	0.5	0.282	-0.875
Mof_F 	F 	0.5	0.5	0.058	-0.938
Mof_F 	F 	0.5	0.5	0.5527	-0.903
Mof_F 	F 	0.5	0.5	0.7765	-0.89
_end
