data_functionalizedCrystal
_audit_creation_method	'EQeq! by Chris Wilmer'
_symmetry_space_group_name_H-M	'P1'
_symmetry_Int_Tables_number	1
_symmetry_cell_setting	triclinic
loop_
_symmetry_equiv_pos_as_xyz
  x,y,z
_cell_length_a	11.262
_cell_length_b	13.4386
_cell_length_c	21.16
_cell_angle_alpha	101.184
_cell_angle_beta	90
_cell_angle_gamma	114.772
loop_
_atom_site_label
_atom_site_type_symbol
_atom_site_fract_x
_atom_site_fract_y
_atom_site_fract_z
_atom_site_charge
Mof_Mn	Mn	0.8214	2.00106e-17	0.25	0.795
Mof_Br	Br	0.65801	0.91918	0.15401	-0.396
Mof_Br	Br	0.02361	0.15154	0.22303	-0.474
Mof_Br	Br	0.73883	0.08082	0.34599	-0.446
Mof_Br	Br	0.87207	0.84846	0.27697	-0.42
Mof_Mn	Mn	0.1786	4.00212e-17	0.75	0.79
Mof_Br	Br	0.34199	0.08082	0.84599	-0.446
Mof_Br	Br	0.97639	0.84846	0.77697	-0.417
Mof_Br	Br	0.26117	0.91918	0.65401	-0.402
Mof_Br	Br	0.12793	0.15154	0.72303	-0.472
Mof_Mn	Mn	-0	0.5	-0	1.025
Mof_Mn	Mn	0.5	0.5	0.5	1.05
Mof_H 	H 	0.9011	0.6744	0.8573	0.392
Mof_H 	H 	0.8805	0.552	0.8589	0.383
Mof_H 	H 	0.8623	0.6284	0.9206	0.397
Mof_H 	H 	0.1028	0.7894	0.862	0.164
Mof_H 	H 	0.2979	0.7458	0.904	-0.014
Mof_H 	H 	0.3156	0.8364	0.8635	0.002
Mof_H 	H 	0.2925	0.9538	0.9585	0.122
Mof_H 	H 	0.2868	0.8646	0.9981	0.107
Mof_H 	H 	0.5094	0.9778	0.9334	0.03
Mof_H 	H 	0.5032	0.8962	0.9784	0.015
Mof_H 	H 	0.5481	0.292	0.95	0.356
Mof_H 	H 	0.6347	0.421	0.9575	0.344
Mof_H 	H 	0.6592	0.3572	0.007	0.349
Mof_H 	H 	0.6008	0.1858	0.8715	0.16
Mof_H 	H 	0.8549	0.2214	0.8559	0.023
Mof_H 	H 	0.786	0.2394	0.7964	0.008
Mof_H 	H 	0.6962	0.0384	0.8454	0.051
Mof_H 	H 	0.5972	0.0592	0.8018	0.06
Mof_H 	H 	0.7599	0.9042	0.7346	0.027
Mof_H 	H 	0.6498	0.9098	0.7805	0.019
Mof_H 	H 	0.1349	0.3656	0.8105	0.336
Mof_H 	H 	0.1885	0.486	0.8551	0.331
Mof_H 	H 	0.0368	0.4116	0.8419	0.337
Mof_H 	H 	0.1601	0.2456	0.8595	0.15
Mof_H 	H 	0.1738	0.27	0.9907	0.018
Mof_H 	H 	0.2335	0.2006	0.9442	0.032
Mof_H 	H 	0.0211	0.064	0.9072	0.038
Mof_H 	H 	0.9645	0.1324	0.9567	0.044
Mof_H 	H 	0.8646	0.9538	0.0026	-0.022
Mof_H 	H 	0.9384	0.8978	0.9562	-0.02
Mof_H 	H 	0.2267	0.3256	0.6427	0.388
Mof_H 	H 	0.3285	0.448	0.6411	0.384
Mof_H 	H 	0.2339	0.3716	0.5794	0.391
Mof_H 	H 	0.3134	0.2106	0.638	0.159
Mof_H 	H 	0.5521	0.2542	0.596	0
Mof_H 	H 	0.4792	0.1636	0.6365	0.009
Mof_H 	H 	0.3387	0.0462	0.5415	0.072
Mof_H 	H 	0.4222	0.1354	0.5019	0.068
Mof_H 	H 	0.5316	0.0222	0.5666	0.059
Mof_H 	H 	0.607	0.1038	0.5216	0.056
Mof_H 	H 	0.2561	0.708	0.55	0.374
Mof_H 	H 	0.2137	0.579	0.5425	0.357
Mof_H 	H 	0.302	0.6428	0.493	0.372
Mof_H 	H 	0.415	0.8142	0.6285	0.166
Mof_H 	H 	0.6335	0.7786	0.6441	0.002
Mof_H 	H 	0.5466	0.7606	0.7036	-0.01
Mof_H 	H 	0.6578	0.9616	0.6546	0.107
Mof_H 	H 	0.538	0.9408	0.6982	0.118
Mof_H 	H 	0.8557	0.0958	0.7654	0.082
Mof_H 	H 	0.74	0.0902	0.7195	0.064
Mof_H 	H 	0.7693	0.6344	0.6895	0.345
Mof_H 	H 	0.7025	0.514	0.6449	0.337
Mof_H 	H 	0.6252	0.5884	0.6581	0.347
Mof_H 	H 	0.9145	0.7544	0.6405	0.163
Mof_H 	H 	0.9038	0.73	0.5093	-0.041
Mof_H 	H 	0.0329	0.7994	0.5558	-0.033
Mof_H 	H 	0.9571	0.936	0.5928	0.155
Mof_H 	H 	0.8321	0.8676	0.5433	0.14
Mof_H 	H 	0.9108	0.0462	0.4974	0.104
Mof_H 	H 	0.0406	0.1022	0.5438	0.105
Mof_H 	H 	0.0989	0.3256	0.1427	0.393
Mof_H 	H 	0.1195	0.448	0.1411	0.389
Mof_H 	H 	0.1377	0.3716	0.0794	0.396
Mof_H 	H 	0.8972	0.2106	0.138	0.161
Mof_H 	H 	0.7021	0.2542	0.096	0.001
Mof_H 	H 	0.6844	0.1636	0.1365	0.01
Mof_H 	H 	0.7075	0.0462	0.0415	0.066
Mof_H 	H 	0.7132	0.1354	0.0019	0.062
Mof_H 	H 	0.4906	0.0222	0.0666	0.064
Mof_H 	H 	0.4968	0.1038	0.0216	0.06
Mof_H 	H 	0.4519	0.708	0.05	0.386
Mof_H 	H 	0.3653	0.579	0.0425	0.369
Mof_H 	H 	0.3408	0.6428	0.993	0.391
Mof_H 	H 	0.3992	0.8142	0.1285	0.166
Mof_H 	H 	0.1451	0.7786	0.1441	-0.001
Mof_H 	H 	0.214	0.7606	0.2036	-0.012
Mof_H 	H 	0.3038	0.9616	0.1546	0.104
Mof_H 	H 	0.4028	0.9408	0.1982	0.118
Mof_H 	H 	0.2401	0.0958	0.2654	0.078
Mof_H 	H 	0.3502	0.0902	0.2195	0.061
Mof_H 	H 	0.8651	0.6344	0.1895	0.345
Mof_H 	H 	0.8115	0.514	0.1449	0.337
Mof_H 	H 	0.9632	0.5884	0.1581	0.351
Mof_H 	H 	0.8399	0.7544	0.1405	0.161
Mof_H 	H 	0.8262	0.73	0.0093	-0.034
Mof_H 	H 	0.7665	0.7994	0.0558	-0.016
Mof_H 	H 	0.9789	0.936	0.0928	0.146
Mof_H 	H 	0.0355	0.8676	0.0433	0.12
Mof_H 	H 	0.1354	0.0462	0.9974	0.113
Mof_H 	H 	0.0616	0.1022	0.0438	0.107
Mof_H 	H 	0.7733	0.6744	0.3573	0.402
Mof_H 	H 	0.6715	0.552	0.3589	0.392
Mof_H 	H 	0.7661	0.6284	0.4206	0.405
Mof_H 	H 	0.6866	0.7894	0.362	0.169
Mof_H 	H 	0.4479	0.7458	0.404	-0.014
Mof_H 	H 	0.5208	0.8364	0.3635	0.004
Mof_H 	H 	0.6613	0.9538	0.4585	0.12
Mof_H 	H 	0.5778	0.8646	0.4981	0.103
Mof_H 	H 	0.4684	0.9778	0.4334	0.034
Mof_H 	H 	0.393	0.8962	0.4784	0.017
Mof_H 	H 	0.7439	0.292	0.45	0.369
Mof_H 	H 	0.7863	0.421	0.4575	0.358
Mof_H 	H 	0.698	0.3572	0.507	0.369
Mof_H 	H 	0.585	0.1858	0.3715	0.16
Mof_H 	H 	0.3665	0.2214	0.3559	0.02
Mof_H 	H 	0.4534	0.2394	0.2964	0.005
Mof_H 	H 	0.3422	0.0384	0.3454	0.051
Mof_H 	H 	0.462	0.0592	0.3018	0.061
Mof_H 	H 	0.1443	0.9042	0.2346	0.024
Mof_H 	H 	0.26	0.9098	0.2805	0.019
Mof_H 	H 	0.2307	0.3656	0.3105	0.337
Mof_H 	H 	0.2975	0.486	0.3551	0.332
Mof_H 	H 	0.3748	0.4116	0.3419	0.341
Mof_H 	H 	0.0855	0.2456	0.3595	0.149
Mof_H 	H 	0.0962	0.27	0.4907	0.018
Mof_H 	H 	0.9671	0.2006	0.4442	0.038
Mof_H 	H 	0.0429	0.064	0.4072	0.036
Mof_H 	H 	0.1679	0.1324	0.4567	0.036
Mof_H 	H 	0.0892	0.9538	0.5026	-0.026
Mof_H 	H 	0.9594	0.8978	0.4562	-0.023
Mof_C 	C 	0.9117	0.6274	0.8837	-1.227
Mof_C 	C 	0.049	0.669	0.9051	0.603
Mof_C 	C 	0.2731	0.8052	0.8995	0.113
Mof_C 	C 	0.3229	0.897	0.9613	-0.253
Mof_C 	C 	0.4737	0.952	0.972	0.052
Mof_C 	C 	0.6344	0.3514	0.9626	-1.111
Mof_C 	C 	0.7287	0.3274	0.9215	0.561
Mof_C 	C 	0.7714	0.2034	0.833	0.034
Mof_C 	C 	0.6887	0.0784	0.8132	-0.112
Mof_C 	C 	0.7613	0.0632	0.7553	-0.171
Mof_C 	C 	0.1208	0.4108	0.8481	-1.055
Mof_C 	C 	0.1238	0.3622	0.9061	0.527
Mof_C 	C 	0.1587	0.2186	0.9493	-0.008
Mof_C 	C 	0.0388	0.1142	0.9493	-0.036
Mof_C 	C 	0.0543	0.055	0.0016	-0.326
Mof_C 	C 	0.2843	0.3726	0.6163	-1.24
Mof_C 	C 	0.38	0.331	0.5949	0.612
Mof_C 	C 	0.4679	0.1948	0.6005	0.058
Mof_C 	C 	0.4259	0.103	0.5387	-0.14
Mof_C 	C 	0.5217	0.048	0.528	-0.156
Mof_C 	C 	0.283	0.6486	0.5374	-1.167
Mof_C 	C 	0.4013	0.6726	0.5785	0.579
Mof_C 	C 	0.568	0.7966	0.667	0.095
Mof_C 	C 	0.6103	0.9216	0.6868	-0.242
Mof_C 	C 	0.6981	0.9368	0.7447	0.05
Mof_C 	C 	0.71	0.5892	0.6519	-1.079
Mof_C 	C 	0.7616	0.6378	0.5939	0.545
Mof_C 	C 	0.9401	0.7814	0.5507	0.194
Mof_C 	C 	0.9246	0.8858	0.5507	-0.367
Mof_C 	C 	0.9993	0.945	0.4984	0.198
Mof_C 	C 	0.0883	0.3726	0.1163	-1.262
Mof_C 	C 	0.951	0.331	0.0949	0.623
Mof_C 	C 	0.7269	0.1948	0.1005	0.052
Mof_C 	C 	0.6771	0.103	0.0387	-0.127
Mof_C 	C 	0.5263	0.048	0.028	-0.178
Mof_C 	C 	0.3656	0.6486	0.0374	-1.211
Mof_C 	C 	0.2713	0.6726	0.0785	0.59
Mof_C 	C 	0.2286	0.7966	0.167	0.097
Mof_C 	C 	0.3113	0.9216	0.1868	-0.241
Mof_C 	C 	0.2387	0.9368	0.2447	0.046
Mof_C 	C 	0.8792	0.5892	0.1519	-1.079
Mof_C 	C 	0.8762	0.6378	0.0939	0.544
Mof_C 	C 	0.8413	0.7814	0.0507	0.159
Mof_C 	C 	0.9612	0.8858	0.0507	-0.335
Mof_C 	C 	0.9457	0.945	0.9984	0.197
Mof_C 	C 	0.7157	0.6274	0.3837	-1.265
Mof_C 	C 	0.62	0.669	0.4051	0.624
Mof_C 	C 	0.5321	0.8052	0.3995	0.111
Mof_C 	C 	0.5741	0.897	0.4613	-0.243
Mof_C 	C 	0.4783	0.952	0.472	0.032
Mof_C 	C 	0.717	0.3514	0.4626	-1.161
Mof_C 	C 	0.5987	0.3274	0.4215	0.575
Mof_C 	C 	0.432	0.2034	0.333	0.038
Mof_C 	C 	0.3897	0.0784	0.3132	-0.117
Mof_C 	C 	0.3019	0.0632	0.2553	-0.164
Mof_C 	C 	0.29	0.4108	0.3481	-1.06
Mof_C 	C 	0.2384	0.3622	0.4061	0.53
Mof_C 	C 	0.0599	0.2186	0.4493	-0.02
Mof_C 	C 	0.0754	0.1142	0.4493	-0.033
Mof_C 	C 	0.0007	0.055	0.5016	-0.309
Mof_N 	N 	0.1336	0.758	0.8851	-0.34
Mof_N 	N 	0.6828	0.231	0.8756	-0.307
Mof_N 	N 	0.1488	0.2732	0.898	-0.303
Mof_N 	N 	0.3756	0.242	0.6149	-0.332
Mof_N 	N 	0.4518	0.769	0.6244	-0.321
Mof_N 	N 	0.8756	0.7268	0.602	-0.338
Mof_N 	N 	0.8664	0.242	0.1149	-0.334
Mof_N 	N 	0.3172	0.769	0.1244	-0.324
Mof_N 	N 	0.8512	0.7268	0.102	-0.332
Mof_N 	N 	0.6244	0.758	0.3851	-0.344
Mof_N 	N 	0.5482	0.231	0.3756	-0.312
Mof_N 	N 	0.1244	0.2732	0.398	-0.302
Mof_O 	O 	0.0902	0.6232	0.9403	-0.458
Mof_O 	O 	0.8473	0.3876	0.9255	-0.456
Mof_O 	O 	0.1075	0.4068	0.9605	-0.444
Mof_O 	O 	0.467	0.3768	0.5597	-0.463
Mof_O 	O 	0.4597	0.6124	0.5745	-0.471
Mof_O 	O 	0.7007	0.5932	0.5395	-0.454
Mof_O 	O 	0.9098	0.3768	0.0597	-0.462
Mof_O 	O 	0.1527	0.6124	0.0745	-0.477
Mof_O 	O 	0.8925	0.5932	0.0395	-0.449
Mof_O 	O 	0.533	0.6232	0.4403	-0.467
Mof_O 	O 	0.5403	0.3876	0.4255	-0.469
Mof_O 	O 	0.2993	0.4068	0.4605	-0.449
_end
