data_functionalizedCrystal
_audit_creation_method	'EQeq! by Chris Wilmer'
_symmetry_space_group_name_H-M	'P1'
_symmetry_Int_Tables_number	1
_symmetry_cell_setting	triclinic
loop_
_symmetry_equiv_pos_as_xyz
  x,y,z
_cell_length_a	8.7992
_cell_length_b	10.2696
_cell_length_c	18.6244
_cell_angle_alpha	90
_cell_angle_beta	90
_cell_angle_gamma	90
loop_
_atom_site_label
_atom_site_type_symbol
_atom_site_fract_x
_atom_site_fract_y
_atom_site_fract_z
_atom_site_charge
Mof_Zn	Zn	0.13311	0.02643	0.59917	1.196
Mof_Zn	Zn	0.63311	0.97357	0.40083	1.195
Mof_Zn	Zn	0.13311	0.47357	0.09917	1.196
Mof_Zn	Zn	0.63311	0.52643	0.90083	1.195
Mof_H 	H 	0.8328	0.9629	0.528	-0.038
Mof_H 	H 	0.2359	0.371	0.3879	0.008
Mof_H 	H 	0.8251	0.2965	0.2662	0.178
Mof_H 	H 	0.7377	0.1952	0.3059	0.155
Mof_H 	H 	0.9576	0.6891	0.7076	0.062
Mof_H 	H 	0.8464	0.5425	0.7846	-0.018
Mof_H 	H 	0.6072	0.8185	0.8749	-0.009
Mof_H 	H 	0.7081	0.9705	0.7983	0.067
Mof_H 	H 	0.3328	0.0371	0.472	-0.041
Mof_H 	H 	0.7359	0.629	0.6121	0.004
Mof_H 	H 	0.3251	0.7035	0.7338	0.185
Mof_H 	H 	0.2377	0.8048	0.6941	0.16
Mof_H 	H 	0.4576	0.3109	0.2924	0.068
Mof_H 	H 	0.3464	0.4575	0.2154	-0.014
Mof_H 	H 	0.1072	0.1815	0.1251	-0.005
Mof_H 	H 	0.2081	0.0295	0.2017	0.068
Mof_H 	H 	0.8328	0.5371	0.028	-0.036
Mof_H 	H 	0.2359	0.129	0.8879	0.008
Mof_H 	H 	0.8251	0.2035	0.7662	0.178
Mof_H 	H 	0.7377	0.3048	0.8059	0.155
Mof_H 	H 	0.9576	0.8109	0.2076	0.061
Mof_H 	H 	0.8464	0.9575	0.2846	-0.018
Mof_H 	H 	0.6072	0.6815	0.3749	-0.009
Mof_H 	H 	0.7081	0.5295	0.2983	0.066
Mof_H 	H 	0.3328	0.4629	0.972	-0.035
Mof_H 	H 	0.7359	0.871	0.1121	0.004
Mof_H 	H 	0.3251	0.7965	0.2338	0.185
Mof_H 	H 	0.2377	0.6952	0.1941	0.16
Mof_H 	H 	0.4576	0.1891	0.7924	0.068
Mof_H 	H 	0.3464	0.0425	0.7154	-0.015
Mof_H 	H 	0.1072	0.3185	0.6251	-0.005
Mof_H 	H 	0.2081	0.4705	0.7017	0.069
Mof_C 	C 	0.8781	0.0264	0.4995	0.068
Mof_C 	C 	0.1532	0.3166	0.39607	0.104
Mof_C 	C 	0.9234	0.2424	0.35322	0.14
Mof_C 	C 	0.919	0.1601	0.41368	-0.065
Mof_C 	C 	0.038	0.1674	0.46219	0.14
Mof_C 	C 	0.9134	0.9442	0.69311	0.283
Mof_C 	C 	0.8861	0.7171	0.74094	-0.084
Mof_C 	C 	0.8448	0.847	0.74438	-0.017
Mof_C 	C 	0.8199	0.63	0.78766	0.054
Mof_C 	C 	0.6782	0.7927	0.8407	0.054
Mof_C 	C 	0.7385	0.8839	0.7951	-0.083
Mof_C 	C 	0.3781	0.9736	0.5005	0.091
Mof_C 	C 	0.6532	0.6834	0.60393	0.1
Mof_C 	C 	0.4234	0.7576	0.64678	0.156
Mof_C 	C 	0.419	0.8399	0.58632	-0.047
Mof_C 	C 	0.538	0.8326	0.53781	0.12
Mof_C 	C 	0.4134	0.0558	0.30689	0.316
Mof_C 	C 	0.3861	0.2829	0.25906	-0.077
Mof_C 	C 	0.3448	0.153	0.25562	-0.022
Mof_C 	C 	0.3199	0.37	0.21234	0.055
Mof_C 	C 	0.1782	0.2073	0.1593	0.054
Mof_C 	C 	0.2385	0.1161	0.2049	-0.076
Mof_C 	C 	0.8781	0.4736	0.9995	0.064
Mof_C 	C 	0.1532	0.1834	0.89607	0.104
Mof_C 	C 	0.9234	0.2576	0.85322	0.142
Mof_C 	C 	0.919	0.3399	0.91368	-0.067
Mof_C 	C 	0.038	0.3326	0.96219	0.143
Mof_C 	C 	0.9134	0.5558	0.19311	0.29
Mof_C 	C 	0.8861	0.7829	0.24094	-0.082
Mof_C 	C 	0.8448	0.653	0.24438	-0.019
Mof_C 	C 	0.8199	0.87	0.28766	0.053
Mof_C 	C 	0.6782	0.7073	0.3407	0.053
Mof_C 	C 	0.7385	0.6161	0.2951	-0.081
Mof_C 	C 	0.3781	0.5264	0.0005	0.081
Mof_C 	C 	0.6532	0.8166	0.10393	0.1
Mof_C 	C 	0.4234	0.7424	0.14678	0.155
Mof_C 	C 	0.419	0.6601	0.08632	-0.047
Mof_C 	C 	0.538	0.6674	0.03781	0.119
Mof_C 	C 	0.4134	0.4442	0.80689	0.318
Mof_C 	C 	0.3861	0.2171	0.75906	-0.076
Mof_C 	C 	0.3448	0.347	0.75562	-0.023
Mof_C 	C 	0.3199	0.13	0.71234	0.055
Mof_C 	C 	0.1782	0.2927	0.6593	0.054
Mof_C 	C 	0.2385	0.3839	0.7049	-0.075
Mof_N 	N 	0.0102	0.0818	0.51705	-0.289
Mof_N 	N 	0.1607	0.2453	0.45575	-0.167
Mof_N 	N 	0.8155	0.068	0.43857	-0.259
Mof_N 	N 	0.0444	0.3213	0.34628	-0.138
Mof_N 	N 	0.8159	0.245	0.3024	-0.327
Mof_N 	N 	0.7194	0.6665	0.83703	-0.27
Mof_N 	N 	0.5102	0.9182	0.48295	-0.297
Mof_N 	N 	0.6607	0.7547	0.54425	-0.167
Mof_N 	N 	0.3155	0.932	0.56143	-0.261
Mof_N 	N 	0.5444	0.6787	0.65372	-0.15
Mof_N 	N 	0.3159	0.755	0.6976	-0.331
Mof_N 	N 	0.2194	0.3335	0.16297	-0.267
Mof_N 	N 	0.0102	0.4182	0.01705	-0.287
Mof_N 	N 	0.1607	0.2547	0.95575	-0.168
Mof_N 	N 	0.8155	0.432	0.93857	-0.258
Mof_N 	N 	0.0444	0.1787	0.84628	-0.138
Mof_N 	N 	0.8159	0.255	0.8024	-0.328
Mof_N 	N 	0.7194	0.8335	0.33703	-0.269
Mof_N 	N 	0.5102	0.5818	0.98295	-0.294
Mof_N 	N 	0.6607	0.7453	0.04425	-0.167
Mof_N 	N 	0.3155	0.568	0.06143	-0.261
Mof_N 	N 	0.5444	0.8213	0.15372	-0.15
Mof_N 	N 	0.3159	0.745	0.1976	-0.331
Mof_N 	N 	0.2194	0.1665	0.66297	-0.268
Mof_O 	O 	0.0327	0.9019	0.66077	-0.445
Mof_O 	O 	0.857	0.0514	0.68506	-0.32
Mof_O 	O 	0.5327	0.0981	0.33923	-0.474
Mof_O 	O 	0.357	0.9486	0.31494	-0.32
Mof_O 	O 	0.0327	0.5981	0.16077	-0.45
Mof_O 	O 	0.857	0.4486	0.18506	-0.324
Mof_O 	O 	0.5327	0.4019	0.83923	-0.475
Mof_O 	O 	0.357	0.5514	0.81494	-0.323
_end
