data_functionalizedCrystal
_audit_creation_method	'EQeq! by Chris Wilmer'
_symmetry_space_group_name_H-M	'P1'
_symmetry_Int_Tables_number	1
_symmetry_cell_setting	triclinic
loop_
_symmetry_equiv_pos_as_xyz
  x,y,z
_cell_length_a	14.5104
_cell_length_b	14.5104
_cell_length_c	15.7725
_cell_angle_alpha	90
_cell_angle_beta	90
_cell_angle_gamma	120
loop_
_atom_site_label
_atom_site_type_symbol
_atom_site_fract_x
_atom_site_fract_y
_atom_site_fract_z
_atom_site_charge
Mof_Gd	Gd	0.33333	0.66666	0.75	1.894
Mof_Gd	Gd	0.66667	0.33334	0.75	1.894
Mof_Gd	Gd	0.66667	0.33334	0.25	1.879
Mof_Gd	Gd	0.33333	0.66666	0.25	1.878
Mof_Zn	Zn	1.25005e-17	0.5	0.5	1.192
Mof_Zn	Zn	0.5	0	0.5	1.192
Mof_Zn	Zn	0.5	0.5	0.5	1.223
Mof_Zn	Zn	0.5	0.5	-0	1.169
Mof_Zn	Zn	0.5	0	-0	1.139
Mof_Zn	Zn	-0	0.5	-0	1.139
Mof_H 	H 	0.1676	0.8026	0.6602	0.109
Mof_H 	H 	0.0872	0.723	0.7274	0.081
Mof_H 	H 	0.635	0.8324	0.6602	0.128
Mof_H 	H 	0.6358	0.9128	0.7274	0.144
Mof_H 	H 	0.1974	0.365	0.6602	0.077
Mof_H 	H 	0.277	0.3642	0.7274	0.09
Mof_H 	H 	0.8324	0.1974	0.6602	0.1
Mof_H 	H 	0.9128	0.277	0.7274	0.129
Mof_H 	H 	0.365	0.1676	0.6602	0.081
Mof_H 	H 	0.3642	0.0872	0.7274	0.066
Mof_H 	H 	0.8026	0.635	0.6602	0.133
Mof_H 	H 	0.723	0.6358	0.7274	0.121
Mof_H 	H 	0.365	0.1974	0.8398	0.097
Mof_H 	H 	0.3642	0.277	0.7726	0.089
Mof_H 	H 	0.8026	0.1676	0.8398	0.128
Mof_H 	H 	0.723	0.0872	0.7726	0.08
Mof_H 	H 	0.8324	0.635	0.8398	0.147
Mof_H 	H 	0.9128	0.6358	0.7726	0.144
Mof_H 	H 	0.635	0.8026	0.8398	0.152
Mof_H 	H 	0.6358	0.723	0.7726	0.12
Mof_H 	H 	0.1974	0.8324	0.8398	0.12
Mof_H 	H 	0.277	0.9128	0.7726	0.128
Mof_H 	H 	0.1676	0.365	0.8398	0.101
Mof_H 	H 	0.0872	0.3642	0.7726	0.065
Mof_H 	H 	0.8324	0.1974	0.3398	0.094
Mof_H 	H 	0.9128	0.277	0.2726	0.118
Mof_H 	H 	0.365	0.1676	0.3398	0.074
Mof_H 	H 	0.3642	0.0872	0.2726	0.053
Mof_H 	H 	0.8026	0.635	0.3398	0.127
Mof_H 	H 	0.723	0.6358	0.2726	0.109
Mof_H 	H 	0.1676	0.8026	0.3398	0.103
Mof_H 	H 	0.0872	0.723	0.2726	0.069
Mof_H 	H 	0.635	0.8324	0.3398	0.122
Mof_H 	H 	0.6358	0.9128	0.2726	0.133
Mof_H 	H 	0.1974	0.365	0.3398	0.071
Mof_H 	H 	0.277	0.3642	0.2726	0.077
Mof_H 	H 	0.635	0.8026	0.1602	0.108
Mof_H 	H 	0.6358	0.723	0.2274	0.108
Mof_H 	H 	0.1974	0.8324	0.1602	0.075
Mof_H 	H 	0.277	0.9128	0.2274	0.117
Mof_H 	H 	0.1676	0.365	0.1602	0.055
Mof_H 	H 	0.0872	0.3642	0.2274	0.052
Mof_H 	H 	0.365	0.1974	0.1602	0.051
Mof_H 	H 	0.3642	0.277	0.2274	0.077
Mof_H 	H 	0.8026	0.1676	0.1602	0.084
Mof_H 	H 	0.723	0.0872	0.2274	0.068
Mof_H 	H 	0.8324	0.635	0.1602	0.103
Mof_H 	H 	0.9128	0.6358	0.2274	0.133
Mof_C 	C 	0.1319	0.65	0.64	0.434
Mof_C 	C 	0.1509	0.7411	0.6951	-0.222
Mof_C 	C 	0.5181	0.8681	0.64	0.45
Mof_C 	C 	0.5902	0.8491	0.6951	-0.254
Mof_C 	C 	0.35	0.4819	0.64	0.427
Mof_C 	C 	0.2589	0.4098	0.6951	-0.204
Mof_C 	C 	0.8681	0.35	0.64	0.439
Mof_C 	C 	0.8491	0.2589	0.6951	-0.23
Mof_C 	C 	0.4819	0.1319	0.64	0.423
Mof_C 	C 	0.4098	0.1509	0.6951	-0.199
Mof_C 	C 	0.65	0.5181	0.64	0.45
Mof_C 	C 	0.7411	0.5902	0.6951	-0.251
Mof_C 	C 	0.4819	0.35	0.86	0.425
Mof_C 	C 	0.4098	0.2589	0.8049	-0.202
Mof_C 	C 	0.65	0.1319	0.86	0.431
Mof_C 	C 	0.7411	0.1509	0.8049	-0.22
Mof_C 	C 	0.8681	0.5181	0.86	0.448
Mof_C 	C 	0.8491	0.5902	0.8049	-0.252
Mof_C 	C 	0.5181	0.65	0.86	0.446
Mof_C 	C 	0.5902	0.7411	0.8049	-0.249
Mof_C 	C 	0.35	0.8681	0.86	0.437
Mof_C 	C 	0.2589	0.8491	0.8049	-0.229
Mof_C 	C 	0.1319	0.4819	0.86	0.42
Mof_C 	C 	0.1509	0.4098	0.8049	-0.197
Mof_C 	C 	0.8681	0.35	0.36	0.435
Mof_C 	C 	0.8491	0.2589	0.3049	-0.22
Mof_C 	C 	0.4819	0.1319	0.36	0.418
Mof_C 	C 	0.4098	0.1509	0.3049	-0.188
Mof_C 	C 	0.65	0.5181	0.36	0.445
Mof_C 	C 	0.7411	0.5902	0.3049	-0.241
Mof_C 	C 	0.1319	0.65	0.36	0.43
Mof_C 	C 	0.1509	0.7411	0.3049	-0.212
Mof_C 	C 	0.5181	0.8681	0.36	0.446
Mof_C 	C 	0.5902	0.8491	0.3049	-0.244
Mof_C 	C 	0.35	0.4819	0.36	0.422
Mof_C 	C 	0.2589	0.4098	0.3049	-0.193
Mof_C 	C 	0.5181	0.65	0.14	0.443
Mof_C 	C 	0.5902	0.7411	0.1951	-0.24
Mof_C 	C 	0.35	0.8681	0.14	0.432
Mof_C 	C 	0.2589	0.8491	0.1951	-0.219
Mof_C 	C 	0.1319	0.4819	0.14	0.416
Mof_C 	C 	0.1509	0.4098	0.1951	-0.186
Mof_C 	C 	0.4819	0.35	0.14	0.42
Mof_C 	C 	0.4098	0.2589	0.1951	-0.191
Mof_C 	C 	0.65	0.1319	0.14	0.427
Mof_C 	C 	0.7411	0.1509	0.1951	-0.21
Mof_C 	C 	0.8681	0.5181	0.14	0.443
Mof_C 	C 	0.8491	0.5902	0.1951	-0.243
Mof_O 	O 	0.19569	0.61523	0.64559	-0.469
Mof_O 	O 	0.055	0.61731	0.59043	-0.498
Mof_O 	O 	0.41954	0.80431	0.64559	-0.449
Mof_O 	O 	0.56231	0.945	0.59043	-0.419
Mof_O 	O 	0.38477	0.58046	0.64559	-0.457
Mof_O 	O 	0.38269	0.43769	0.59043	-0.47
Mof_O 	O 	0.80431	0.38477	0.64559	-0.447
Mof_O 	O 	0.945	0.38269	0.59043	-0.422
Mof_O 	O 	0.58046	0.19569	0.64559	-0.466
Mof_O 	O 	0.43769	0.055	0.59043	-0.502
Mof_O 	O 	0.61523	0.41954	0.64559	-0.462
Mof_O 	O 	0.61731	0.56231	0.59043	-0.462
Mof_O 	O 	0.58046	0.38477	0.85441	-0.426
Mof_O 	O 	0.43769	0.38269	0.90957	-0.4
Mof_O 	O 	0.61523	0.19569	0.85441	-0.438
Mof_O 	O 	0.61731	0.055	0.90957	-0.428
Mof_O 	O 	0.80431	0.41954	0.85441	-0.419
Mof_O 	O 	0.945	0.56231	0.90957	-0.351
Mof_O 	O 	0.41954	0.61523	0.85441	-0.431
Mof_O 	O 	0.56231	0.61731	0.90957	-0.393
Mof_O 	O 	0.38477	0.80431	0.85441	-0.417
Mof_O 	O 	0.38269	0.945	0.90957	-0.355
Mof_O 	O 	0.19569	0.58046	0.85441	-0.436
Mof_O 	O 	0.055	0.43769	0.90957	-0.432
Mof_O 	O 	0.80431	0.38477	0.35441	-0.444
Mof_O 	O 	0.945	0.38269	0.40957	-0.421
Mof_O 	O 	0.58046	0.19569	0.35441	-0.463
Mof_O 	O 	0.43769	0.055	0.40957	-0.501
Mof_O 	O 	0.61523	0.41954	0.35441	-0.459
Mof_O 	O 	0.61731	0.56231	0.40957	-0.461
Mof_O 	O 	0.19569	0.61523	0.35441	-0.466
Mof_O 	O 	0.055	0.61731	0.40957	-0.497
Mof_O 	O 	0.41954	0.80431	0.35441	-0.446
Mof_O 	O 	0.56231	0.945	0.40957	-0.417
Mof_O 	O 	0.38477	0.58046	0.35441	-0.454
Mof_O 	O 	0.38269	0.43769	0.40957	-0.469
Mof_O 	O 	0.41954	0.61523	0.14559	-0.483
Mof_O 	O 	0.56231	0.61731	0.09043	-0.508
Mof_O 	O 	0.38477	0.80431	0.14559	-0.468
Mof_O 	O 	0.38269	0.945	0.09043	-0.467
Mof_O 	O 	0.19569	0.58046	0.14559	-0.487
Mof_O 	O 	0.055	0.43769	0.09043	-0.548
Mof_O 	O 	0.58046	0.38477	0.14559	-0.478
Mof_O 	O 	0.43769	0.38269	0.09043	-0.517
Mof_O 	O 	0.61523	0.19569	0.14559	-0.49
Mof_O 	O 	0.61731	0.055	0.09043	-0.544
Mof_O 	O 	0.80431	0.41954	0.14559	-0.47
Mof_O 	O 	0.945	0.56231	0.09043	-0.463
Mof_O 	O 	0.23485	0.76515	0.75	-0.217
Mof_O 	O 	0.5303	0.76515	0.75	-0.2
Mof_O 	O 	0.23485	0.4697	0.75	-0.233
Mof_O 	O 	0.76515	0.23485	0.75	-0.217
Mof_O 	O 	0.4697	0.23485	0.75	-0.233
Mof_O 	O 	0.76515	0.5303	0.75	-0.2
Mof_O 	O 	0.76515	0.23485	0.25	-0.225
Mof_O 	O 	0.4697	0.23485	0.25	-0.242
Mof_O 	O 	0.76515	0.5303	0.25	-0.209
Mof_O 	O 	0.23485	0.76515	0.25	-0.225
Mof_O 	O 	0.5303	0.76515	0.25	-0.208
Mof_O 	O 	0.23485	0.4697	0.25	-0.242
_end
