data_functionalizedCrystal
_audit_creation_method	'EQeq! by Chris Wilmer'
_symmetry_space_group_name_H-M	'P1'
_symmetry_Int_Tables_number	1
_symmetry_cell_setting	triclinic
loop_
_symmetry_equiv_pos_as_xyz
  x,y,z
_cell_length_a	9.3421
_cell_length_b	9.3421
_cell_length_c	6.996
_cell_angle_alpha	90
_cell_angle_beta	90
_cell_angle_gamma	120
loop_
_atom_site_label
_atom_site_type_symbol
_atom_site_fract_x
_atom_site_fract_y
_atom_site_fract_z
_atom_site_charge
Mof_O 	O 	0.5734	0.7216	0.0409	-2.196
Mof_O 	O 	0.4345	0.4675	0.8302	-2.283
Mof_Al	Al	0.47892	0.838	0.94364	8.785
Mof_O 	O 	0.2701	0.6986	0.0404	-4.999
Mof_H 	H 	0.204	0.652	0.968	1.84
Mof_O 	O 	0.2784	0.8518	0.37423	-2.517
Mof_O 	O 	0.5325	0.967	0.16353	-2.459
Mof_Al	Al	0.162	0.64092	0.27697	10.025
Mof_O 	O 	0.3014	0.5715	0.37373	-5.254
Mof_H 	H 	0.348	0.552	0.30133	1.94
Mof_O 	O 	0.1482	0.4266	0.70757	-2.253
Mof_O 	O 	0.033	0.5655	0.49687	-2.352
Mof_Al	Al	0.35908	0.52108	0.61031	9.708
Mof_O 	O 	0.4285	0.7299	0.70707	-4.95
Mof_H 	H 	0.448	0.796	0.63467	1.728
Mof_O 	O 	0.7216	0.5734	0.9591	-1.996
Mof_O 	O 	0.4675	0.4345	0.1698	-2.308
Mof_Al	Al	0.838	0.47892	0.05636	8.035
Mof_O 	O 	0.6986	0.2701	0.9596	-4.523
Mof_H 	H 	0.652	0.204	0.032	1.566
Mof_O 	O 	0.8518	0.2784	0.62577	-2.439
Mof_O 	O 	0.967	0.5325	0.83647	-2.281
Mof_Al	Al	0.64092	0.162	0.72303	9.801
Mof_O 	O 	0.5715	0.3014	0.62627	-5.179
Mof_H 	H 	0.552	0.348	0.69867	1.917
Mof_O 	O 	0.4266	0.1482	0.29243	-2.256
Mof_O 	O 	0.5655	0.033	0.50313	-2.314
Mof_Al	Al	0.52108	0.35908	0.38969	9.631
Mof_O 	O 	0.7299	0.4285	0.29293	-4.775
Mof_H 	H 	0.796	0.448	0.36533	1.683
Mof_P 	P 	0.55059	0.55059	-0	1.825
Mof_P 	P 	0.44941	0	0.33333	2.313
Mof_P 	P 	-3.42651e-17	0.44941	0.66667	2.237
Mof_F 	F 	0.6818	0	0.83333	-2.594
Mof_F 	F 	0.4317	0	0.83333	-2.478
Mof_F 	F 	-1.52853e-17	0.6818	0.16667	-2.58
Mof_F 	F 	-1.52853e-17	0.4317	0.16667	-2.463
Mof_F 	F 	0.3182	0.3182	0.5	-2.786
Mof_F 	F 	0.5683	0.5683	0.5	-2.799
_end
