data_functionalizedCrystal
_audit_creation_method	'EQeq! by Chris Wilmer'
_symmetry_space_group_name_H-M	'P1'
_symmetry_Int_Tables_number	1
_symmetry_cell_setting	triclinic
loop_
_symmetry_equiv_pos_as_xyz
  x,y,z
_cell_length_a	22.7098
_cell_length_b	22.7098
_cell_length_c	22.7098
_cell_angle_alpha	90
_cell_angle_beta	90
_cell_angle_gamma	90
loop_
_atom_site_label
_atom_site_type_symbol
_atom_site_fract_x
_atom_site_fract_y
_atom_site_fract_z
_atom_site_charge
Mof_O 	O 	0.45066	0.3799	0.06952	-0.44
Mof_C 	C 	0.3151	0.316	0.23028	-0.59
Mof_C 	C 	0.3975	0.3977	0.08111	0.413
Mof_C 	C 	0.3685	0.3689	0.133	-0.14
Mof_C 	C 	0.3498	0.3099	0.1295	0.004
Mof_C 	C 	0.3341	0.3773	0.2328	0.256
Mof_C 	C 	0.3621	0.4018	0.1846	0.035
Mof_C 	C 	0.3235	0.2847	0.1788	0.292
Mof_C 	C 	0.3044	0.2209	0.1732	-0.744
Mof_H 	H 	0.3007	0.2039	0.2118	0.215
Mof_H 	H 	0.3332	0.1994	0.1511	0.219
Mof_H 	H 	0.2671	0.219	0.1534	0.201
Mof_C 	C 	0.3235	0.4152	0.2869	-0.731
Mof_H 	H 	0.283	0.4123	0.2984	0.227
Mof_H 	H 	0.3328	0.4554	0.2779	0.217
Mof_H 	H 	0.3481	0.4018	0.3185	0.2
Mof_C 	C 	0.3572	0.276	0.072	-0.416
Mof_H 	H 	0.3193	0.2638	0.0579	0.111
Mof_H 	H 	0.3813	0.2419	0.0788	0.118
Mof_H 	H 	0.3757	0.3008	0.0433	0.14
Mof_C 	C 	0.3851	0.4652	0.1874	-0.507
Mof_H 	H 	0.4096	0.4698	0.2215	0.149
Mof_H 	H 	0.3525	0.4919	0.1898	0.17
Mof_H 	H 	0.4077	0.4735	0.1526	0.187
Mof_O 	O 	0.36914	0.43359	0.05242	-0.461
Mof_O 	O 	0.54934	0.6201	0.06952	-0.406
Mof_C 	C 	0.6849	0.684	0.23028	-0.599
Mof_C 	C 	0.6025	0.6023	0.08111	0.362
Mof_C 	C 	0.6315	0.6311	0.133	-0.121
Mof_C 	C 	0.6502	0.6901	0.1295	-0.001
Mof_C 	C 	0.6659	0.6227	0.2328	0.262
Mof_C 	C 	0.6379	0.5982	0.1846	0.029
Mof_C 	C 	0.6765	0.7153	0.1788	0.308
Mof_C 	C 	0.6956	0.7791	0.1732	-0.788
Mof_H 	H 	0.6993	0.7961	0.2118	0.234
Mof_H 	H 	0.6668	0.8006	0.1511	0.242
Mof_H 	H 	0.7329	0.781	0.1534	0.224
Mof_C 	C 	0.6765	0.5848	0.2869	-0.739
Mof_H 	H 	0.717	0.5877	0.2984	0.23
Mof_H 	H 	0.6672	0.5446	0.2779	0.22
Mof_H 	H 	0.6519	0.5982	0.3185	0.202
Mof_C 	C 	0.6428	0.724	0.072	-0.434
Mof_H 	H 	0.6807	0.7362	0.0579	0.125
Mof_H 	H 	0.6187	0.7581	0.0788	0.131
Mof_H 	H 	0.6243	0.6992	0.0433	0.151
Mof_C 	C 	0.6149	0.5348	0.1874	-0.506
Mof_H 	H 	0.5904	0.5302	0.2215	0.149
Mof_H 	H 	0.6475	0.5081	0.1898	0.171
Mof_H 	H 	0.5923	0.5265	0.1526	0.188
Mof_O 	O 	0.63086	0.56641	0.05242	-0.424
Mof_O 	O 	0.54934	0.3799	0.93048	-0.407
Mof_C 	C 	0.6849	0.316	0.76972	-0.589
Mof_C 	C 	0.6025	0.3977	0.91889	0.385
Mof_C 	C 	0.6315	0.3689	0.867	-0.138
Mof_C 	C 	0.6502	0.3099	0.8705	0.037
Mof_C 	C 	0.6659	0.3773	0.7672	0.254
Mof_C 	C 	0.6379	0.4018	0.8154	0.042
Mof_C 	C 	0.6765	0.2847	0.8212	0.29
Mof_C 	C 	0.6956	0.2209	0.8268	-0.77
Mof_H 	H 	0.6993	0.2039	0.7882	0.227
Mof_H 	H 	0.6668	0.1994	0.8489	0.236
Mof_H 	H 	0.7329	0.219	0.8466	0.222
Mof_C 	C 	0.6765	0.4152	0.7131	-0.73
Mof_H 	H 	0.717	0.4123	0.7016	0.228
Mof_H 	H 	0.6672	0.4554	0.7221	0.218
Mof_H 	H 	0.6519	0.4018	0.6815	0.199
Mof_C 	C 	0.6428	0.276	0.928	-0.521
Mof_H 	H 	0.6807	0.2638	0.9421	0.171
Mof_H 	H 	0.6187	0.2419	0.9212	0.166
Mof_H 	H 	0.6243	0.3008	0.9567	0.202
Mof_C 	C 	0.6149	0.4652	0.8126	-0.522
Mof_H 	H 	0.5904	0.4698	0.7785	0.154
Mof_H 	H 	0.6475	0.4919	0.8102	0.178
Mof_H 	H 	0.5923	0.4735	0.8474	0.194
Mof_O 	O 	0.63086	0.43359	0.94758	-0.39
Mof_O 	O 	0.45066	0.6201	0.93048	-0.386
Mof_C 	C 	0.3151	0.684	0.76972	-0.591
Mof_C 	C 	0.3975	0.6023	0.91889	0.386
Mof_C 	C 	0.3685	0.6311	0.867	-0.139
Mof_C 	C 	0.3498	0.6901	0.8705	0.04
Mof_C 	C 	0.3341	0.6227	0.7672	0.255
Mof_C 	C 	0.3621	0.5982	0.8154	0.04
Mof_C 	C 	0.3235	0.7153	0.8212	0.293
Mof_C 	C 	0.3044	0.7791	0.8268	-0.785
Mof_H 	H 	0.3007	0.7961	0.7882	0.235
Mof_H 	H 	0.3332	0.8006	0.8489	0.247
Mof_H 	H 	0.2671	0.781	0.8466	0.228
Mof_C 	C 	0.3235	0.5848	0.7131	-0.731
Mof_H 	H 	0.283	0.5877	0.7016	0.228
Mof_H 	H 	0.3328	0.5446	0.7221	0.217
Mof_H 	H 	0.3481	0.5982	0.6815	0.2
Mof_C 	C 	0.3572	0.724	0.928	-0.537
Mof_H 	H 	0.3193	0.7362	0.9421	0.177
Mof_H 	H 	0.3813	0.7581	0.9212	0.176
Mof_H 	H 	0.3757	0.6992	0.9567	0.208
Mof_C 	C 	0.3851	0.5348	0.8126	-0.514
Mof_H 	H 	0.4096	0.5302	0.7785	0.151
Mof_H 	H 	0.3525	0.5081	0.8102	0.174
Mof_H 	H 	0.4077	0.5265	0.8474	0.191
Mof_O 	O 	0.36914	0.56641	0.94758	-0.41
Mof_O 	O 	0.06952	0.45066	0.3799	-0.441
Mof_C 	C 	0.23028	0.3151	0.316	-0.591
Mof_C 	C 	0.08111	0.3975	0.3977	0.412
Mof_C 	C 	0.133	0.3685	0.3689	-0.141
Mof_C 	C 	0.1295	0.3498	0.3099	0.003
Mof_C 	C 	0.2328	0.3341	0.3773	0.255
Mof_C 	C 	0.1846	0.3621	0.4018	0.035
Mof_C 	C 	0.1788	0.3235	0.2847	0.292
Mof_C 	C 	0.1732	0.3044	0.2209	-0.744
Mof_H 	H 	0.2118	0.3007	0.2039	0.215
Mof_H 	H 	0.1511	0.3332	0.1994	0.219
Mof_H 	H 	0.1534	0.2671	0.219	0.201
Mof_C 	C 	0.2869	0.3235	0.4152	-0.731
Mof_H 	H 	0.2984	0.283	0.4123	0.227
Mof_H 	H 	0.2779	0.3328	0.4554	0.217
Mof_H 	H 	0.3185	0.3481	0.4018	0.2
Mof_C 	C 	0.072	0.3572	0.276	-0.416
Mof_H 	H 	0.0579	0.3193	0.2638	0.111
Mof_H 	H 	0.0788	0.3813	0.2419	0.118
Mof_H 	H 	0.0433	0.3757	0.3008	0.14
Mof_C 	C 	0.1874	0.3851	0.4652	-0.507
Mof_H 	H 	0.2215	0.4096	0.4698	0.149
Mof_H 	H 	0.1898	0.3525	0.4919	0.17
Mof_H 	H 	0.1526	0.4077	0.4735	0.187
Mof_O 	O 	0.05242	0.36914	0.43359	-0.461
Mof_O 	O 	0.06952	0.54934	0.6201	-0.406
Mof_C 	C 	0.23028	0.6849	0.684	-0.598
Mof_C 	C 	0.08111	0.6025	0.6023	0.362
Mof_C 	C 	0.133	0.6315	0.6311	-0.121
Mof_C 	C 	0.1295	0.6502	0.6901	-0.001
Mof_C 	C 	0.2328	0.6659	0.6227	0.262
Mof_C 	C 	0.1846	0.6379	0.5982	0.029
Mof_C 	C 	0.1788	0.6765	0.7153	0.308
Mof_C 	C 	0.1732	0.6956	0.7791	-0.788
Mof_H 	H 	0.2118	0.6993	0.7961	0.234
Mof_H 	H 	0.1511	0.6668	0.8006	0.242
Mof_H 	H 	0.1534	0.7329	0.781	0.224
Mof_C 	C 	0.2869	0.6765	0.5848	-0.739
Mof_H 	H 	0.2984	0.717	0.5877	0.23
Mof_H 	H 	0.2779	0.6672	0.5446	0.22
Mof_H 	H 	0.3185	0.6519	0.5982	0.202
Mof_C 	C 	0.072	0.6428	0.724	-0.435
Mof_H 	H 	0.0579	0.6807	0.7362	0.125
Mof_H 	H 	0.0788	0.6187	0.7581	0.131
Mof_H 	H 	0.0433	0.6243	0.6992	0.151
Mof_C 	C 	0.1874	0.6149	0.5348	-0.507
Mof_H 	H 	0.2215	0.5904	0.5302	0.149
Mof_H 	H 	0.1898	0.6475	0.5081	0.171
Mof_H 	H 	0.1526	0.5923	0.5265	0.188
Mof_O 	O 	0.05242	0.63086	0.56641	-0.424
Mof_O 	O 	0.93048	0.54934	0.3799	-0.407
Mof_C 	C 	0.76972	0.6849	0.316	-0.59
Mof_C 	C 	0.91889	0.6025	0.3977	0.385
Mof_C 	C 	0.867	0.6315	0.3689	-0.138
Mof_C 	C 	0.8705	0.6502	0.3099	0.037
Mof_C 	C 	0.7672	0.6659	0.3773	0.254
Mof_C 	C 	0.8154	0.6379	0.4018	0.042
Mof_C 	C 	0.8212	0.6765	0.2847	0.29
Mof_C 	C 	0.8268	0.6956	0.2209	-0.77
Mof_H 	H 	0.7882	0.6993	0.2039	0.227
Mof_H 	H 	0.8489	0.6668	0.1994	0.236
Mof_H 	H 	0.8466	0.7329	0.219	0.222
Mof_C 	C 	0.7131	0.6765	0.4152	-0.731
Mof_H 	H 	0.7016	0.717	0.4123	0.228
Mof_H 	H 	0.7221	0.6672	0.4554	0.218
Mof_H 	H 	0.6815	0.6519	0.4018	0.199
Mof_C 	C 	0.928	0.6428	0.276	-0.521
Mof_H 	H 	0.9421	0.6807	0.2638	0.171
Mof_H 	H 	0.9212	0.6187	0.2419	0.166
Mof_H 	H 	0.9567	0.6243	0.3008	0.202
Mof_C 	C 	0.8126	0.6149	0.4652	-0.522
Mof_H 	H 	0.7785	0.5904	0.4698	0.154
Mof_H 	H 	0.8102	0.6475	0.4919	0.178
Mof_H 	H 	0.8474	0.5923	0.4735	0.194
Mof_O 	O 	0.94758	0.63086	0.43359	-0.39
Mof_O 	O 	0.93048	0.45066	0.6201	-0.386
Mof_C 	C 	0.76972	0.3151	0.684	-0.591
Mof_C 	C 	0.91889	0.3975	0.6023	0.386
Mof_C 	C 	0.867	0.3685	0.6311	-0.139
Mof_C 	C 	0.8705	0.3498	0.6901	0.04
Mof_C 	C 	0.7672	0.3341	0.6227	0.255
Mof_C 	C 	0.8154	0.3621	0.5982	0.04
Mof_C 	C 	0.8212	0.3235	0.7153	0.293
Mof_C 	C 	0.8268	0.3044	0.7791	-0.785
Mof_H 	H 	0.7882	0.3007	0.7961	0.235
Mof_H 	H 	0.8489	0.3332	0.8006	0.247
Mof_H 	H 	0.8466	0.2671	0.781	0.229
Mof_C 	C 	0.7131	0.3235	0.5848	-0.731
Mof_H 	H 	0.7016	0.283	0.5877	0.228
Mof_H 	H 	0.7221	0.3328	0.5446	0.217
Mof_H 	H 	0.6815	0.3481	0.5982	0.2
Mof_C 	C 	0.928	0.3572	0.724	-0.537
Mof_H 	H 	0.9421	0.3193	0.7362	0.177
Mof_H 	H 	0.9212	0.3813	0.7581	0.176
Mof_H 	H 	0.9567	0.3757	0.6992	0.208
Mof_C 	C 	0.8126	0.3851	0.5348	-0.514
Mof_H 	H 	0.7785	0.4096	0.5302	0.151
Mof_H 	H 	0.8102	0.3525	0.5081	0.174
Mof_H 	H 	0.8474	0.4077	0.5265	0.191
Mof_O 	O 	0.94758	0.36914	0.56641	-0.41
Mof_O 	O 	0.3799	0.06952	0.45066	-0.434
Mof_C 	C 	0.316	0.23028	0.3151	-0.592
Mof_C 	C 	0.3977	0.08111	0.3975	0.387
Mof_C 	C 	0.3689	0.133	0.3685	-0.131
Mof_C 	C 	0.3099	0.1295	0.3498	-0.001
Mof_C 	C 	0.3773	0.2328	0.3341	0.257
Mof_C 	C 	0.4018	0.1846	0.3621	0.033
Mof_C 	C 	0.2847	0.1788	0.3235	0.294
Mof_C 	C 	0.2209	0.1732	0.3044	-0.747
Mof_H 	H 	0.2039	0.2118	0.3007	0.216
Mof_H 	H 	0.1994	0.1511	0.3332	0.22
Mof_H 	H 	0.219	0.1534	0.2671	0.201
Mof_C 	C 	0.4152	0.2869	0.3235	-0.733
Mof_H 	H 	0.4123	0.2984	0.283	0.227
Mof_H 	H 	0.4554	0.2779	0.3328	0.218
Mof_H 	H 	0.4018	0.3185	0.3481	0.201
Mof_C 	C 	0.276	0.072	0.3572	-0.413
Mof_H 	H 	0.2638	0.0579	0.3193	0.111
Mof_H 	H 	0.2419	0.0788	0.3813	0.117
Mof_H 	H 	0.3008	0.0433	0.3757	0.14
Mof_C 	C 	0.4652	0.1874	0.3851	-0.51
Mof_H 	H 	0.4698	0.2215	0.4096	0.15
Mof_H 	H 	0.4919	0.1898	0.3525	0.171
Mof_H 	H 	0.4735	0.1526	0.4077	0.188
Mof_O 	O 	0.43359	0.05242	0.36914	-0.434
Mof_O 	O 	0.6201	0.06952	0.54934	-0.413
Mof_C 	C 	0.684	0.23028	0.6849	-0.597
Mof_C 	C 	0.6023	0.08111	0.6025	0.387
Mof_C 	C 	0.6311	0.133	0.6315	-0.131
Mof_C 	C 	0.6901	0.1295	0.6502	0.003
Mof_C 	C 	0.6227	0.2328	0.6659	0.26
Mof_C 	C 	0.5982	0.1846	0.6379	0.031
Mof_C 	C 	0.7153	0.1788	0.6765	0.305
Mof_C 	C 	0.7791	0.1732	0.6956	-0.785
Mof_H 	H 	0.7961	0.2118	0.6993	0.234
Mof_H 	H 	0.8006	0.1511	0.6668	0.241
Mof_H 	H 	0.781	0.1534	0.7329	0.224
Mof_C 	C 	0.5848	0.2869	0.6765	-0.737
Mof_H 	H 	0.5877	0.2984	0.717	0.229
Mof_H 	H 	0.5446	0.2779	0.6672	0.219
Mof_H 	H 	0.5982	0.3185	0.6519	0.202
Mof_C 	C 	0.724	0.072	0.6428	-0.438
Mof_H 	H 	0.7362	0.0579	0.6807	0.126
Mof_H 	H 	0.7581	0.0788	0.6187	0.132
Mof_H 	H 	0.6992	0.0433	0.6243	0.151
Mof_C 	C 	0.5348	0.1874	0.6149	-0.504
Mof_H 	H 	0.5302	0.2215	0.5904	0.148
Mof_H 	H 	0.5081	0.1898	0.6475	0.17
Mof_H 	H 	0.5265	0.1526	0.5923	0.186
Mof_O 	O 	0.56641	0.05242	0.63086	-0.452
Mof_O 	O 	0.3799	0.93048	0.54934	-0.414
Mof_C 	C 	0.316	0.76972	0.6849	-0.588
Mof_C 	C 	0.3977	0.91889	0.6025	0.41
Mof_C 	C 	0.3689	0.867	0.6315	-0.148
Mof_C 	C 	0.3099	0.8705	0.6502	0.041
Mof_C 	C 	0.3773	0.7672	0.6659	0.253
Mof_C 	C 	0.4018	0.8154	0.6379	0.045
Mof_C 	C 	0.2847	0.8212	0.6765	0.288
Mof_C 	C 	0.2209	0.8268	0.6956	-0.767
Mof_H 	H 	0.2039	0.7882	0.6993	0.226
Mof_H 	H 	0.1994	0.8489	0.6668	0.235
Mof_H 	H 	0.219	0.8466	0.7329	0.221
Mof_C 	C 	0.4152	0.7131	0.6765	-0.729
Mof_H 	H 	0.4123	0.7016	0.717	0.227
Mof_H 	H 	0.4554	0.7221	0.6672	0.217
Mof_H 	H 	0.4018	0.6815	0.6519	0.199
Mof_C 	C 	0.276	0.928	0.6428	-0.524
Mof_H 	H 	0.2638	0.9421	0.6807	0.171
Mof_H 	H 	0.2419	0.9212	0.6187	0.167
Mof_H 	H 	0.3008	0.9567	0.6243	0.202
Mof_C 	C 	0.4652	0.8126	0.6149	-0.519
Mof_H 	H 	0.4698	0.7785	0.5904	0.153
Mof_H 	H 	0.4919	0.8102	0.6475	0.176
Mof_H 	H 	0.4735	0.8474	0.5923	0.192
Mof_O 	O 	0.43359	0.94758	0.63086	-0.417
Mof_O 	O 	0.6201	0.93048	0.45066	-0.379
Mof_C 	C 	0.684	0.76972	0.3151	-0.593
Mof_C 	C 	0.6023	0.91889	0.3975	0.361
Mof_C 	C 	0.6311	0.867	0.3685	-0.129
Mof_C 	C 	0.6901	0.8705	0.3498	0.036
Mof_C 	C 	0.6227	0.7672	0.3341	0.257
Mof_C 	C 	0.5982	0.8154	0.3621	0.037
Mof_C 	C 	0.7153	0.8212	0.3235	0.296
Mof_C 	C 	0.7791	0.8268	0.3044	-0.788
Mof_H 	H 	0.7961	0.7882	0.3007	0.236
Mof_H 	H 	0.8006	0.8489	0.3332	0.248
Mof_H 	H 	0.781	0.8466	0.2671	0.229
Mof_C 	C 	0.5848	0.7131	0.3235	-0.733
Mof_H 	H 	0.5877	0.7016	0.283	0.228
Mof_H 	H 	0.5446	0.7221	0.3328	0.218
Mof_H 	H 	0.5982	0.6815	0.3481	0.2
Mof_C 	C 	0.724	0.928	0.3572	-0.534
Mof_H 	H 	0.7362	0.9421	0.3193	0.176
Mof_H 	H 	0.7581	0.9212	0.3813	0.175
Mof_H 	H 	0.6992	0.9567	0.3757	0.208
Mof_C 	C 	0.5348	0.8126	0.3851	-0.516
Mof_H 	H 	0.5302	0.7785	0.4096	0.152
Mof_H 	H 	0.5081	0.8102	0.3525	0.175
Mof_H 	H 	0.5265	0.8474	0.4077	0.193
Mof_O 	O 	0.56641	0.94758	0.36914	-0.383
Mof_O 	O 	0.3799	0.45066	0.93048	-0.414
Mof_C 	C 	0.316	0.3151	0.76972	-0.586
Mof_C 	C 	0.3977	0.3975	0.91889	0.411
Mof_C 	C 	0.3689	0.3685	0.867	-0.148
Mof_C 	C 	0.3099	0.3498	0.8705	0.04
Mof_C 	C 	0.3773	0.3341	0.7672	0.251
Mof_C 	C 	0.4018	0.3621	0.8154	0.044
Mof_C 	C 	0.2847	0.3235	0.8212	0.283
Mof_C 	C 	0.2209	0.3044	0.8268	-0.756
Mof_H 	H 	0.2039	0.3007	0.7882	0.222
Mof_H 	H 	0.1994	0.3332	0.8489	0.23
Mof_H 	H 	0.219	0.2671	0.8466	0.214
Mof_C 	C 	0.4152	0.3235	0.7131	-0.727
Mof_H 	H 	0.4123	0.283	0.7016	0.226
Mof_H 	H 	0.4554	0.3328	0.7221	0.216
Mof_H 	H 	0.4018	0.3481	0.6815	0.198
Mof_C 	C 	0.276	0.3572	0.928	-0.52
Mof_H 	H 	0.2638	0.3193	0.9421	0.167
Mof_H 	H 	0.2419	0.3813	0.9212	0.165
Mof_H 	H 	0.3008	0.3757	0.9567	0.2
Mof_C 	C 	0.4652	0.3851	0.8126	-0.518
Mof_H 	H 	0.4698	0.4096	0.7785	0.152
Mof_H 	H 	0.4919	0.3525	0.8102	0.175
Mof_H 	H 	0.4735	0.4077	0.8474	0.192
Mof_O 	O 	0.43359	0.36914	0.94758	-0.418
Mof_O 	O 	0.6201	0.54934	0.93048	-0.379
Mof_C 	C 	0.684	0.6849	0.76972	-0.594
Mof_C 	C 	0.6023	0.6025	0.91889	0.36
Mof_C 	C 	0.6311	0.6315	0.867	-0.129
Mof_C 	C 	0.6901	0.6502	0.8705	0.037
Mof_C 	C 	0.6227	0.6659	0.7672	0.258
Mof_C 	C 	0.5982	0.6379	0.8154	0.038
Mof_C 	C 	0.7153	0.6765	0.8212	0.3
Mof_C 	C 	0.7791	0.6956	0.8268	-0.799
Mof_H 	H 	0.7961	0.6993	0.7882	0.241
Mof_H 	H 	0.8006	0.6668	0.8489	0.253
Mof_H 	H 	0.781	0.7329	0.8466	0.237
Mof_C 	C 	0.5848	0.6765	0.7131	-0.734
Mof_H 	H 	0.5877	0.717	0.7016	0.229
Mof_H 	H 	0.5446	0.6672	0.7221	0.219
Mof_H 	H 	0.5982	0.6519	0.6815	0.201
Mof_C 	C 	0.724	0.6428	0.928	-0.538
Mof_H 	H 	0.7362	0.6807	0.9421	0.181
Mof_H 	H 	0.7581	0.6187	0.9212	0.177
Mof_H 	H 	0.6992	0.6243	0.9567	0.21
Mof_C 	C 	0.5348	0.6149	0.8126	-0.518
Mof_H 	H 	0.5302	0.5904	0.7785	0.153
Mof_H 	H 	0.5081	0.6475	0.8102	0.176
Mof_H 	H 	0.5265	0.5923	0.8474	0.193
Mof_O 	O 	0.56641	0.63086	0.94758	-0.381
Mof_O 	O 	0.3799	0.54934	0.06952	-0.434
Mof_C 	C 	0.316	0.6849	0.23028	-0.594
Mof_C 	C 	0.3977	0.6025	0.08111	0.386
Mof_C 	C 	0.3689	0.6315	0.133	-0.13
Mof_C 	C 	0.3099	0.6502	0.1295	-0.001
Mof_C 	C 	0.3773	0.6659	0.2328	0.258
Mof_C 	C 	0.4018	0.6379	0.1846	0.034
Mof_C 	C 	0.2847	0.6765	0.1788	0.298
Mof_C 	C 	0.2209	0.6956	0.1732	-0.758
Mof_H 	H 	0.2039	0.6993	0.2118	0.221
Mof_H 	H 	0.1994	0.6668	0.1511	0.225
Mof_H 	H 	0.219	0.7329	0.1534	0.209
Mof_C 	C 	0.4152	0.6765	0.2869	-0.735
Mof_H 	H 	0.4123	0.717	0.2984	0.228
Mof_H 	H 	0.4554	0.6672	0.2779	0.219
Mof_H 	H 	0.4018	0.6519	0.3185	0.201
Mof_C 	C 	0.276	0.6428	0.072	-0.417
Mof_H 	H 	0.2638	0.6807	0.0579	0.115
Mof_H 	H 	0.2419	0.6187	0.0788	0.119
Mof_H 	H 	0.3008	0.6243	0.0433	0.142
Mof_C 	C 	0.4652	0.6149	0.1874	-0.511
Mof_H 	H 	0.4698	0.5904	0.2215	0.151
Mof_H 	H 	0.4919	0.6475	0.1898	0.172
Mof_H 	H 	0.4735	0.5923	0.1526	0.189
Mof_O 	O 	0.43359	0.63086	0.05242	-0.432
Mof_O 	O 	0.6201	0.45066	0.06952	-0.413
Mof_C 	C 	0.684	0.3151	0.23028	-0.596
Mof_C 	C 	0.6023	0.3975	0.08111	0.387
Mof_C 	C 	0.6311	0.3685	0.133	-0.131
Mof_C 	C 	0.6901	0.3498	0.1295	0.002
Mof_C 	C 	0.6227	0.3341	0.2328	0.259
Mof_C 	C 	0.5982	0.3621	0.1846	0.031
Mof_C 	C 	0.7153	0.3235	0.1788	0.301
Mof_C 	C 	0.7791	0.3044	0.1732	-0.774
Mof_H 	H 	0.7961	0.3007	0.2118	0.229
Mof_H 	H 	0.8006	0.3332	0.1511	0.236
Mof_H 	H 	0.781	0.2671	0.1534	0.216
Mof_C 	C 	0.5848	0.3235	0.2869	-0.735
Mof_H 	H 	0.5877	0.283	0.2984	0.228
Mof_H 	H 	0.5446	0.3328	0.2779	0.218
Mof_H 	H 	0.5982	0.3481	0.3185	0.201
Mof_C 	C 	0.724	0.3572	0.072	-0.433
Mof_H 	H 	0.7362	0.3193	0.0579	0.121
Mof_H 	H 	0.7581	0.3813	0.0788	0.13
Mof_H 	H 	0.6992	0.3757	0.0433	0.149
Mof_C 	C 	0.5348	0.3851	0.1874	-0.503
Mof_H 	H 	0.5302	0.4096	0.2215	0.148
Mof_H 	H 	0.5081	0.3525	0.1898	0.169
Mof_H 	H 	0.5265	0.4077	0.1526	0.186
Mof_O 	O 	0.56641	0.36914	0.05242	-0.453
Mof_O 	O 	0.45066	0.06952	0.6201	-0.441
Mof_C 	C 	0.3151	0.23028	0.684	-0.594
Mof_C 	C 	0.3975	0.08111	0.6023	0.412
Mof_C 	C 	0.3685	0.133	0.6311	-0.141
Mof_C 	C 	0.3498	0.1295	0.6901	0.005
Mof_C 	C 	0.3341	0.2328	0.6227	0.256
Mof_C 	C 	0.3621	0.1846	0.5982	0.035
Mof_C 	C 	0.3235	0.1788	0.7153	0.299
Mof_C 	C 	0.3044	0.1732	0.7791	-0.772
Mof_H 	H 	0.3007	0.2118	0.7961	0.229
Mof_H 	H 	0.3332	0.1511	0.8006	0.235
Mof_H 	H 	0.2671	0.1534	0.781	0.215
Mof_C 	C 	0.3235	0.2869	0.5848	-0.733
Mof_H 	H 	0.283	0.2984	0.5877	0.227
Mof_H 	H 	0.3328	0.2779	0.5446	0.218
Mof_H 	H 	0.3481	0.3185	0.5982	0.2
Mof_C 	C 	0.3572	0.072	0.724	-0.431
Mof_H 	H 	0.3193	0.0579	0.7362	0.12
Mof_H 	H 	0.3813	0.0788	0.7581	0.129
Mof_H 	H 	0.3757	0.0433	0.6992	0.147
Mof_C 	C 	0.3851	0.1874	0.5348	-0.507
Mof_H 	H 	0.4096	0.2215	0.5302	0.149
Mof_H 	H 	0.3525	0.1898	0.5081	0.17
Mof_H 	H 	0.4077	0.1526	0.5265	0.186
Mof_O 	O 	0.36914	0.05242	0.56641	-0.461
Mof_O 	O 	0.54934	0.06952	0.3799	-0.407
Mof_C 	C 	0.6849	0.23028	0.316	-0.595
Mof_C 	C 	0.6025	0.08111	0.3977	0.362
Mof_C 	C 	0.6315	0.133	0.3689	-0.121
Mof_C 	C 	0.6502	0.1295	0.3099	-0.003
Mof_C 	C 	0.6659	0.2328	0.3773	0.26
Mof_C 	C 	0.6379	0.1846	0.4018	0.029
Mof_C 	C 	0.6765	0.1788	0.2847	0.3
Mof_C 	C 	0.6956	0.1732	0.2209	-0.76
Mof_H 	H 	0.6993	0.2118	0.2039	0.221
Mof_H 	H 	0.6668	0.1511	0.1994	0.225
Mof_H 	H 	0.7329	0.1534	0.219	0.21
Mof_C 	C 	0.6765	0.2869	0.4152	-0.737
Mof_H 	H 	0.717	0.2984	0.4123	0.229
Mof_H 	H 	0.6672	0.2779	0.4554	0.22
Mof_H 	H 	0.6519	0.3185	0.4018	0.202
Mof_C 	C 	0.6428	0.072	0.276	-0.419
Mof_H 	H 	0.6807	0.0579	0.2638	0.116
Mof_H 	H 	0.6187	0.0788	0.2419	0.121
Mof_H 	H 	0.6243	0.0433	0.3008	0.144
Mof_C 	C 	0.6149	0.1874	0.4652	-0.507
Mof_H 	H 	0.5904	0.2215	0.4698	0.15
Mof_H 	H 	0.6475	0.1898	0.4919	0.171
Mof_H 	H 	0.5923	0.1526	0.4735	0.188
Mof_O 	O 	0.63086	0.05242	0.43359	-0.424
Mof_O 	O 	0.54934	0.93048	0.6201	-0.406
Mof_C 	C 	0.6849	0.76972	0.684	-0.593
Mof_C 	C 	0.6025	0.91889	0.6023	0.385
Mof_C 	C 	0.6315	0.867	0.6311	-0.138
Mof_C 	C 	0.6502	0.8705	0.6901	0.039
Mof_C 	C 	0.6659	0.7672	0.6227	0.256
Mof_C 	C 	0.6379	0.8154	0.5982	0.042
Mof_C 	C 	0.6765	0.8212	0.7153	0.298
Mof_C 	C 	0.6956	0.8268	0.7791	-0.798
Mof_H 	H 	0.6993	0.7882	0.7961	0.24
Mof_H 	H 	0.6668	0.8489	0.8006	0.252
Mof_H 	H 	0.7329	0.8466	0.781	0.237
Mof_C 	C 	0.6765	0.7131	0.5848	-0.732
Mof_H 	H 	0.717	0.7016	0.5877	0.228
Mof_H 	H 	0.6672	0.7221	0.5446	0.218
Mof_H 	H 	0.6519	0.6815	0.5982	0.2
Mof_C 	C 	0.6428	0.928	0.724	-0.536
Mof_H 	H 	0.6807	0.9421	0.7362	0.179
Mof_H 	H 	0.6187	0.9212	0.7581	0.176
Mof_H 	H 	0.6243	0.9567	0.6992	0.208
Mof_C 	C 	0.6149	0.8126	0.5348	-0.522
Mof_H 	H 	0.5904	0.7785	0.5302	0.154
Mof_H 	H 	0.6475	0.8102	0.5081	0.177
Mof_H 	H 	0.5923	0.8474	0.5265	0.194
Mof_O 	O 	0.63086	0.94758	0.56641	-0.39
Mof_O 	O 	0.45066	0.93048	0.3799	-0.387
Mof_C 	C 	0.3151	0.76972	0.316	-0.588
Mof_C 	C 	0.3975	0.91889	0.3977	0.386
Mof_C 	C 	0.3685	0.867	0.3689	-0.139
Mof_C 	C 	0.3498	0.8705	0.3099	0.037
Mof_C 	C 	0.3341	0.7672	0.3773	0.254
Mof_C 	C 	0.3621	0.8154	0.4018	0.04
Mof_C 	C 	0.3235	0.8212	0.2847	0.285
Mof_C 	C 	0.3044	0.8268	0.2209	-0.758
Mof_H 	H 	0.3007	0.7882	0.2039	0.222
Mof_H 	H 	0.3332	0.8489	0.1994	0.23
Mof_H 	H 	0.2671	0.8466	0.219	0.214
Mof_C 	C 	0.3235	0.7131	0.4152	-0.73
Mof_H 	H 	0.283	0.7016	0.4123	0.227
Mof_H 	H 	0.3328	0.7221	0.4554	0.217
Mof_H 	H 	0.3481	0.6815	0.4018	0.199
Mof_C 	C 	0.3572	0.928	0.276	-0.522
Mof_H 	H 	0.3193	0.9421	0.2638	0.168
Mof_H 	H 	0.3813	0.9212	0.2419	0.166
Mof_H 	H 	0.3757	0.9567	0.3008	0.202
Mof_C 	C 	0.3851	0.8126	0.4652	-0.514
Mof_H 	H 	0.4096	0.7785	0.4698	0.151
Mof_H 	H 	0.3525	0.8102	0.4919	0.174
Mof_H 	H 	0.4077	0.8474	0.4735	0.191
Mof_O 	O 	0.36914	0.94758	0.43359	-0.41
Mof_O 	O 	0.06952	0.3799	0.54934	-0.434
Mof_C 	C 	0.23028	0.316	0.6849	-0.593
Mof_C 	C 	0.08111	0.3977	0.6025	0.386
Mof_C 	C 	0.133	0.3689	0.6315	-0.13
Mof_C 	C 	0.1295	0.3099	0.6502	-0
Mof_C 	C 	0.2328	0.3773	0.6659	0.258
Mof_C 	C 	0.1846	0.4018	0.6379	0.034
Mof_C 	C 	0.1788	0.2847	0.6765	0.298
Mof_C 	C 	0.1732	0.2209	0.6956	-0.758
Mof_H 	H 	0.2118	0.2039	0.6993	0.221
Mof_H 	H 	0.1511	0.1994	0.6668	0.225
Mof_H 	H 	0.1534	0.219	0.7329	0.209
Mof_C 	C 	0.2869	0.4152	0.6765	-0.735
Mof_H 	H 	0.2984	0.4123	0.717	0.228
Mof_H 	H 	0.2779	0.4554	0.6672	0.219
Mof_H 	H 	0.3185	0.4018	0.6519	0.201
Mof_C 	C 	0.072	0.276	0.6428	-0.417
Mof_H 	H 	0.0579	0.2638	0.6807	0.115
Mof_H 	H 	0.0788	0.2419	0.6187	0.119
Mof_H 	H 	0.0433	0.3008	0.6243	0.142
Mof_C 	C 	0.1874	0.4652	0.6149	-0.511
Mof_H 	H 	0.2215	0.4698	0.5904	0.151
Mof_H 	H 	0.1898	0.4919	0.6475	0.172
Mof_H 	H 	0.1526	0.4735	0.5923	0.189
Mof_O 	O 	0.05242	0.43359	0.63086	-0.432
Mof_O 	O 	0.06952	0.6201	0.45066	-0.413
Mof_C 	C 	0.23028	0.684	0.3151	-0.596
Mof_C 	C 	0.08111	0.6023	0.3975	0.387
Mof_C 	C 	0.133	0.6311	0.3685	-0.131
Mof_C 	C 	0.1295	0.6901	0.3498	0.002
Mof_C 	C 	0.2328	0.6227	0.3341	0.259
Mof_C 	C 	0.1846	0.5982	0.3621	0.031
Mof_C 	C 	0.1788	0.7153	0.3235	0.301
Mof_C 	C 	0.1732	0.7791	0.3044	-0.774
Mof_H 	H 	0.2118	0.7961	0.3007	0.229
Mof_H 	H 	0.1511	0.8006	0.3332	0.236
Mof_H 	H 	0.1534	0.781	0.2671	0.216
Mof_C 	C 	0.2869	0.5848	0.3235	-0.735
Mof_H 	H 	0.2984	0.5877	0.283	0.228
Mof_H 	H 	0.2779	0.5446	0.3328	0.219
Mof_H 	H 	0.3185	0.5982	0.3481	0.201
Mof_C 	C 	0.072	0.724	0.3572	-0.433
Mof_H 	H 	0.0579	0.7362	0.3193	0.121
Mof_H 	H 	0.0788	0.7581	0.3813	0.13
Mof_H 	H 	0.0433	0.6992	0.3757	0.149
Mof_C 	C 	0.1874	0.5348	0.3851	-0.503
Mof_H 	H 	0.2215	0.5302	0.4096	0.148
Mof_H 	H 	0.1898	0.5081	0.3525	0.169
Mof_H 	H 	0.1526	0.5265	0.4077	0.186
Mof_O 	O 	0.05242	0.56641	0.36914	-0.453
Mof_O 	O 	0.93048	0.3799	0.45066	-0.414
Mof_C 	C 	0.76972	0.316	0.3151	-0.587
Mof_C 	C 	0.91889	0.3977	0.3975	0.411
Mof_C 	C 	0.867	0.3689	0.3685	-0.148
Mof_C 	C 	0.8705	0.3099	0.3498	0.04
Mof_C 	C 	0.7672	0.3773	0.3341	0.251
Mof_C 	C 	0.8154	0.4018	0.3621	0.044
Mof_C 	C 	0.8212	0.2847	0.3235	0.284
Mof_C 	C 	0.8268	0.2209	0.3044	-0.756
Mof_H 	H 	0.7882	0.2039	0.3007	0.222
Mof_H 	H 	0.8489	0.1994	0.3332	0.23
Mof_H 	H 	0.8466	0.219	0.2671	0.214
Mof_C 	C 	0.7131	0.4152	0.3235	-0.727
Mof_H 	H 	0.7016	0.4123	0.283	0.226
Mof_H 	H 	0.7221	0.4554	0.3328	0.216
Mof_H 	H 	0.6815	0.4018	0.3481	0.198
Mof_C 	C 	0.928	0.276	0.3572	-0.52
Mof_H 	H 	0.9421	0.2638	0.3193	0.167
Mof_H 	H 	0.9212	0.2419	0.3813	0.165
Mof_H 	H 	0.9567	0.3008	0.3757	0.2
Mof_C 	C 	0.8126	0.4652	0.3851	-0.518
Mof_H 	H 	0.7785	0.4698	0.4096	0.152
Mof_H 	H 	0.8102	0.4919	0.3525	0.175
Mof_H 	H 	0.8474	0.4735	0.4077	0.192
Mof_O 	O 	0.94758	0.43359	0.36914	-0.418
Mof_O 	O 	0.93048	0.6201	0.54934	-0.379
Mof_C 	C 	0.76972	0.684	0.6849	-0.594
Mof_C 	C 	0.91889	0.6023	0.6025	0.36
Mof_C 	C 	0.867	0.6311	0.6315	-0.129
Mof_C 	C 	0.8705	0.6901	0.6502	0.037
Mof_C 	C 	0.7672	0.6227	0.6659	0.258
Mof_C 	C 	0.8154	0.5982	0.6379	0.038
Mof_C 	C 	0.8212	0.7153	0.6765	0.3
Mof_C 	C 	0.8268	0.7791	0.6956	-0.799
Mof_H 	H 	0.7882	0.7961	0.6993	0.241
Mof_H 	H 	0.8489	0.8006	0.6668	0.253
Mof_H 	H 	0.8466	0.781	0.7329	0.237
Mof_C 	C 	0.7131	0.5848	0.6765	-0.734
Mof_H 	H 	0.7016	0.5877	0.717	0.229
Mof_H 	H 	0.7221	0.5446	0.6672	0.219
Mof_H 	H 	0.6815	0.5982	0.6519	0.201
Mof_C 	C 	0.928	0.724	0.6428	-0.538
Mof_H 	H 	0.9421	0.7362	0.6807	0.181
Mof_H 	H 	0.9212	0.7581	0.6187	0.177
Mof_H 	H 	0.9567	0.6992	0.6243	0.21
Mof_C 	C 	0.8126	0.5348	0.6149	-0.518
Mof_H 	H 	0.7785	0.5302	0.5904	0.153
Mof_H 	H 	0.8102	0.5081	0.6475	0.176
Mof_H 	H 	0.8474	0.5265	0.5923	0.193
Mof_O 	O 	0.94758	0.56641	0.63086	-0.381
Mof_Mn	Mn	0.5	0.3886	-0	1.017
Mof_Cu	Cu	0.5	0.6114	-0	0.925
Mof_Mn	Mn	-1.14749e-32	0.5	0.3886	1.017
Mof_Cu	Cu	-2.01824e-33	0.5	0.6114	0.925
Mof_Mn	Mn	0.3886	-4.31063e-33	0.5	1.017
Mof_Cu	Cu	0.6114	-4.31063e-33	0.5	0.925
Mof_Mn	Mn	0.3886	0.5	-0	1.017
Mof_Cu	Cu	0.6114	0.5	-0	0.925
Mof_Mn	Mn	0.5	-8.62125e-33	0.6114	1.018
Mof_Cu	Cu	0.5	-4.31063e-33	0.3886	0.925
Mof_Mn	Mn	-1.10572e-32	0.3886	0.5	1.017
Mof_Cu	Cu	-2.43593e-33	0.6114	0.5	0.925
Mof_Cl	Cl	0.5	0.5	-0	-0.743
Mof_Cl	Cl	-6.74655e-33	0.5	0.5	-0.743
Mof_Cl	Cl	0.5	-4.31063e-33	0.5	-0.743
Mof_B 	B 	0.2866	0.2866	0.2866	1.057
Mof_B 	B 	0.7134	0.7134	0.2866	1.061
Mof_B 	B 	0.7134	0.2866	0.7134	1.059
Mof_B 	B 	0.2866	0.7134	0.7134	1.059
Mof_B 	B 	0.2866	0.2866	0.7134	1.058
Mof_B 	B 	0.7134	0.7134	0.7134	1.061
Mof_B 	B 	0.2866	0.7134	0.2866	1.059
Mof_B 	B 	0.7134	0.2866	0.2866	1.059
_end
