data_functionalizedCrystal
_audit_creation_method	'EQeq! by Chris Wilmer'
_symmetry_space_group_name_H-M	'P1'
_symmetry_Int_Tables_number	1
_symmetry_cell_setting	triclinic
loop_
_symmetry_equiv_pos_as_xyz
  x,y,z
_cell_length_a	9.5731
_cell_length_b	9.5731
_cell_length_c	16.3828
_cell_angle_alpha	87.258
_cell_angle_beta	74.7977
_cell_angle_gamma	117.994
loop_
_atom_site_label
_atom_site_type_symbol
_atom_site_fract_x
_atom_site_fract_y
_atom_site_fract_z
_atom_site_charge
Mof_Zn	Zn	0.32775	0.44011	0.6779	1.189
Mof_Zn	Zn	0.61801	0.00565	0.8221	1.187
Mof_Zn	Zn	0.67225	0.55989	0.3221	1.189
Mof_Zn	Zn	0.38199	0.99435	0.1779	1.187
Mof_H 	H 	0.8787	0.7951	0.7846	0.051
Mof_H 	H 	0.0193	0.8592	0.6945	0.05
Mof_H 	H 	0.682	0.4612	0.5718	-0.005
Mof_H 	H 	0.5896	0.6592	0.7644	0.003
Mof_H 	H 	0.9317	0.2581	0.9548	0.035
Mof_H 	H 	0.0797	0.6633	0.7154	0.052
Mof_H 	H 	0.0537	0.7138	0.8055	0.054
Mof_H 	H 	0.533	0.2538	0.9282	-0.007
Mof_H 	H 	0.9236	0.354	0.7356	0.001
Mof_H 	H 	0.7129	0.8865	0.5452	0.033
Mof_H 	H 	0.1213	0.2049	0.2154	0.05
Mof_H 	H 	0.9807	0.1408	0.3055	0.049
Mof_H 	H 	0.318	0.5388	0.4282	-0.006
Mof_H 	H 	0.4104	0.3408	0.2356	0.002
Mof_H 	H 	0.0683	0.7419	0.0452	0.035
Mof_H 	H 	0.9203	0.3367	0.2846	0.052
Mof_H 	H 	0.9463	0.2862	0.1945	0.054
Mof_H 	H 	0.467	0.7462	0.0718	-0.007
Mof_H 	H 	0.0764	0.646	0.2644	0.001
Mof_H 	H 	0.2871	0.1135	0.4548	0.033
Mof_C 	C 	0.929	0.7624	0.7354	-0.039
Mof_C 	C 	0.6968	0.5216	0.6148	0.106
Mof_C 	C 	0.6429	0.6277	0.7194	0.097
Mof_C 	C 	0.1131	0.4899	0.9292	-0.043
Mof_C 	C 	0.1559	0.637	0.9561	-0.038
Mof_C 	C 	0.9595	0.3557	0.9728	-0.013
Mof_C 	C 	0.2236	0.463	0.854	0.352
Mof_C 	C 	0.3216	0.7858	0.9138	0.284
Mof_C 	C 	0.9978	0.6644	0.7646	-0.049
Mof_C 	C 	0.6364	0.3116	0.8852	0.105
Mof_C 	C 	0.8471	0.3623	0.7806	0.096
Mof_C 	C 	0.9191	0.0423	0.5708	-0.058
Mof_C 	C 	0.0931	0.112	0.5439	-0.038
Mof_C 	C 	0.8285	0.9323	0.5272	0.006
Mof_C 	C 	0.817	0.0776	0.646	0.347
Mof_C 	C 	0.1996	0.2354	0.5862	0.285
Mof_C 	C 	0.071	0.2376	0.2646	-0.039
Mof_C 	C 	0.3032	0.4784	0.3852	0.106
Mof_C 	C 	0.3571	0.3723	0.2806	0.097
Mof_C 	C 	0.8869	0.5101	0.0708	-0.043
Mof_C 	C 	0.8441	0.363	0.0439	-0.038
Mof_C 	C 	0.0405	0.6443	0.0272	-0.013
Mof_C 	C 	0.7764	0.537	0.146	0.352
Mof_C 	C 	0.6784	0.2142	0.0862	0.284
Mof_C 	C 	0.0022	0.3356	0.2354	-0.049
Mof_C 	C 	0.3636	0.6884	0.1148	0.105
Mof_C 	C 	0.1529	0.6377	0.2194	0.096
Mof_C 	C 	0.0809	0.9577	0.4292	-0.058
Mof_C 	C 	0.9069	0.888	0.4561	-0.038
Mof_C 	C 	0.1715	0.0677	0.4728	0.006
Mof_C 	C 	0.183	0.9224	0.354	0.347
Mof_C 	C 	0.8004	0.7646	0.4138	0.285
Mof_N 	N 	0.8046	0.6711	0.6951	-0.081
Mof_N 	N 	0.8398	0.6019	0.6277	-0.087
Mof_N 	N 	0.5706	0.5332	0.6696	-0.284
Mof_N 	N 	0.8662	0.4997	0.8049	-0.081
Mof_N 	N 	0.7296	0.4675	0.8723	-0.088
Mof_N 	N 	0.7028	0.2402	0.8304	-0.285
Mof_N 	N 	0.1954	0.3289	0.3049	-0.081
Mof_N 	N 	0.1602	0.3981	0.3723	-0.087
Mof_N 	N 	0.4294	0.4668	0.3304	-0.284
Mof_N 	N 	0.1338	0.5003	0.1951	-0.081
Mof_N 	N 	0.2704	0.5325	0.1277	-0.088
Mof_N 	N 	0.2972	0.7598	0.1696	-0.285
Mof_O 	O 	0.2159	0.4949	0.781	-0.467
Mof_O 	O 	0.3031	0.4005	0.8702	-0.301
Mof_O 	O 	0.4295	0.7743	0.854	-0.43
Mof_O 	O 	0.3545	0.9175	0.938	-0.371
Mof_O 	O 	0.7759	0.9969	0.719	-0.461
Mof_O 	O 	0.7707	0.1733	0.6298	-0.301
Mof_O 	O 	0.1283	0.2835	0.646	-0.43
Mof_O 	O 	0.3555	0.2925	0.562	-0.374
Mof_O 	O 	0.7841	0.5051	0.219	-0.467
Mof_O 	O 	0.6969	0.5995	0.1298	-0.301
Mof_O 	O 	0.5705	0.2257	0.146	-0.43
Mof_O 	O 	0.6455	0.0825	0.062	-0.371
Mof_O 	O 	0.2241	0.0031	0.281	-0.461
Mof_O 	O 	0.2293	0.8267	0.3702	-0.301
Mof_O 	O 	0.8717	0.7165	0.354	-0.43
Mof_O 	O 	0.6445	0.7075	0.438	-0.374
_end
