data_functionalizedCrystal
_audit_creation_method	'EQeq! by Chris Wilmer'
_symmetry_space_group_name_H-M	'P1'
_symmetry_Int_Tables_number	1
_symmetry_cell_setting	triclinic
loop_
_symmetry_equiv_pos_as_xyz
  x,y,z
_cell_length_a	19.569
_cell_length_b	9.7034
_cell_length_c	14.927
_cell_angle_alpha	90
_cell_angle_beta	119.091
_cell_angle_gamma	90
loop_
_atom_site_label
_atom_site_type_symbol
_atom_site_fract_x
_atom_site_fract_y
_atom_site_fract_z
_atom_site_charge
Mof_P 	P 	0.42252	0.26009	0.5743	0.752
Mof_P 	P 	0.62654	0.70039	0.96368	0.972
Mof_O 	O 	0.7097	0.6479	0.0278	-0.828
Mof_O 	O 	0.6283	0.859	0.9663	-0.386
Mof_O 	O 	0.5896	0.6536	0.8527	-0.767
Mof_O 	O 	0.437	0.3391	0.6683	-0.756
Mof_O 	O 	0.5786	0.6553	0.0143	-0.766
Mof_O 	O 	0.4178	0.3503	0.4894	-0.742
Mof_O 	O 	0.4822	0.147	0.5978	-0.564
Mof_O 	O 	0.342	0.192	0.5321	-0.572
Mof_H 	H 	0.3104	0.2486	0.531	0.295
Mof_P 	P 	0.92252	0.76009	0.5743	0.683
Mof_P 	P 	0.12654	0.20039	0.96368	0.857
Mof_O 	O 	0.2097	0.1479	0.0278	-0.764
Mof_O 	O 	0.1283	0.359	0.9663	-0.7
Mof_O 	O 	0.0896	0.1536	0.8527	-0.635
Mof_O 	O 	0.937	0.8391	0.6683	-0.269
Mof_O 	O 	0.0786	0.1553	0.0143	-0.634
Mof_O 	O 	0.9178	0.8503	0.4894	-0.273
Mof_O 	O 	0.9822	0.647	0.5978	-0.388
Mof_O 	O 	0.842	0.692	0.5321	-0.461
Mof_H 	H 	0.8104	0.7486	0.531	0.335
Mof_P 	P 	0.57748	0.26009	0.4257	0.748
Mof_P 	P 	0.37346	0.70039	0.03632	0.698
Mof_O 	O 	0.2903	0.6479	0.9722	-0.699
Mof_O 	O 	0.3717	0.859	0.0337	-0.372
Mof_O 	O 	0.4104	0.6536	0.1473	-0.748
Mof_O 	O 	0.563	0.3391	0.3317	-0.747
Mof_O 	O 	0.4214	0.6553	0.9857	-0.578
Mof_O 	O 	0.5822	0.3503	0.5106	-0.735
Mof_O 	O 	0.5178	0.147	0.4022	-0.566
Mof_O 	O 	0.658	0.192	0.4679	-0.568
Mof_H 	H 	0.6896	0.2486	0.469	0.299
Mof_P 	P 	0.07748	0.76009	0.4257	0.71
Mof_P 	P 	0.87346	0.20039	0.03632	0.618
Mof_O 	O 	0.7903	0.1479	0.9722	-0.651
Mof_O 	O 	0.8717	0.359	0.0337	-0.649
Mof_O 	O 	0.9104	0.1536	0.1473	-0.702
Mof_O 	O 	0.063	0.8391	0.3317	-0.542
Mof_O 	O 	0.9214	0.1553	0.9857	-0.356
Mof_O 	O 	0.0822	0.8503	0.5106	-0.373
Mof_O 	O 	0.0178	0.647	0.4022	-0.558
Mof_O 	O 	0.158	0.692	0.4679	-0.489
Mof_H 	H 	0.1896	0.7486	0.469	0.338
Mof_P 	P 	0.57748	0.73991	0.4257	0.733
Mof_P 	P 	0.37346	0.29961	0.03632	0.706
Mof_O 	O 	0.2903	0.3521	0.9722	-0.737
Mof_O 	O 	0.3717	0.141	0.0337	-0.655
Mof_O 	O 	0.4104	0.3464	0.1473	-0.802
Mof_O 	O 	0.563	0.6609	0.3317	-0.691
Mof_O 	O 	0.4214	0.3447	0.9857	-0.64
Mof_O 	O 	0.5822	0.6497	0.5106	-0.697
Mof_O 	O 	0.5178	0.853	0.4022	-0.305
Mof_O 	O 	0.658	0.808	0.4679	-0.354
Mof_H 	H 	0.6896	0.7514	0.469	0.279
Mof_P 	P 	0.07748	0.23991	0.4257	0.704
Mof_P 	P 	0.87346	0.79961	0.03632	0.631
Mof_O 	O 	0.7903	0.8521	0.9722	-0.423
Mof_O 	O 	0.8717	0.641	0.0337	-0.642
Mof_O 	O 	0.9104	0.8464	0.1473	-0.485
Mof_O 	O 	0.063	0.1609	0.3317	-0.764
Mof_O 	O 	0.9214	0.8447	0.9857	-0.147
Mof_O 	O 	0.0822	0.1497	0.5106	-0.617
Mof_O 	O 	0.0178	0.353	0.4022	-0.582
Mof_O 	O 	0.158	0.308	0.4679	-0.487
Mof_H 	H 	0.1896	0.2514	0.469	0.253
Mof_P 	P 	0.42252	0.73991	0.5743	0.735
Mof_P 	P 	0.62654	0.29961	0.96368	0.983
Mof_O 	O 	0.7097	0.3521	0.0278	-0.87
Mof_O 	O 	0.6283	0.141	0.9663	-0.664
Mof_O 	O 	0.5896	0.3464	0.8527	-0.821
Mof_O 	O 	0.437	0.6609	0.6683	-0.7
Mof_O 	O 	0.5786	0.3447	0.0143	-0.832
Mof_O 	O 	0.4178	0.6497	0.4894	-0.703
Mof_O 	O 	0.4822	0.853	0.5978	-0.304
Mof_O 	O 	0.342	0.808	0.5321	-0.356
Mof_H 	H 	0.3104	0.7514	0.531	0.275
Mof_P 	P 	0.92252	0.23991	0.5743	0.677
Mof_P 	P 	0.12654	0.79961	0.96368	0.858
Mof_O 	O 	0.2097	0.8521	0.0278	-0.526
Mof_O 	O 	0.1283	0.641	0.9663	-0.692
Mof_O 	O 	0.0896	0.8464	0.8527	-0.416
Mof_O 	O 	0.937	0.1609	0.6683	-0.485
Mof_O 	O 	0.0786	0.8447	0.0143	-0.414
Mof_O 	O 	0.9178	0.1497	0.4894	-0.514
Mof_O 	O 	0.9822	0.353	0.5978	-0.41
Mof_O 	O 	0.842	0.308	0.5321	-0.458
Mof_H 	H 	0.8104	0.2514	0.531	0.25
Mof_In	In	0.78206	0.5	0.01392	3.433
Mof_In	In	0.51224	0.5	0.76073	3.386
Mof_F 	F 	0.7343	0.5	0.8567	-0.728
Mof_F 	F 	0.8367	0.5	0.1795	-0.656
Mof_F 	F 	0.4468	0.5	0.8381	-1.043
Mof_F 	F 	0.5619	0.5	0.6621	-1.061
Mof_In	In	0.28206	0	0.01392	2.455
Mof_In	In	0.01224	2.03835e-32	0.76073	1.921
Mof_F 	F 	0.2343	0	0.8567	-0.762
Mof_F 	F 	0.3367	0	0.1795	-0.757
Mof_F 	F 	0.9468	0	0.8381	-0.785
Mof_F 	F 	0.0619	0	0.6621	-0.935
Mof_In	In	0.21794	0.5	0.98608	3.693
Mof_In	In	0.48776	0.5	0.23927	3.29
Mof_F 	F 	0.2657	0.5	0.1433	-0.835
Mof_F 	F 	0.1633	0.5	0.8205	-0.729
Mof_F 	F 	0.5532	0.5	0.1619	-1.063
Mof_F 	F 	0.4381	0.5	0.3379	-1.058
Mof_In	In	0.71794	0	0.98608	2.799
Mof_In	In	0.98776	0	0.23927	2.971
Mof_F 	F 	0.7657	0	0.1433	-0.874
Mof_F 	F 	0.6633	0	0.8205	-0.783
Mof_F 	F 	0.0532	0	0.1619	-1.067
Mof_F 	F 	0.9381	0	0.3379	-0.938
Mof_In	In	0.5	0.5	-0	3.027
Mof_In	In	-0	0	-0	1.52
Mof_In	In	0.5	0.5	0.5	3.222
Mof_In	In	2.12526e-33	0	0.5	1.722
Mof_In	In	0.5	0	0.5	1.39
Mof_In	In	2.12526e-33	0.5	0.5	1.887
_end
