data_functionalizedCrystal
_audit_creation_method	'EQeq! by Chris Wilmer'
_symmetry_space_group_name_H-M	'P1'
_symmetry_Int_Tables_number	1
_symmetry_cell_setting	triclinic
loop_
_symmetry_equiv_pos_as_xyz
  x,y,z
_cell_length_a	17.749
_cell_length_b	7.2777
_cell_length_c	12.907
_cell_angle_alpha	90
_cell_angle_beta	90
_cell_angle_gamma	90
loop_
_atom_site_label
_atom_site_type_symbol
_atom_site_fract_x
_atom_site_fract_y
_atom_site_fract_z
_atom_site_charge
Mof_O 	O 	0.4128	0.5956	0.3976	1.451
Mof_C 	C 	0.2732	0.5952	0.2958	-19.079
Mof_H 	H 	0.2883	0.4805	0.324	49.262
Mof_N 	N 	0.296	0.423	0.338	-57.079
Mof_O 	O 	0.2726	0.375	0.425	-14.636
Mof_O 	O 	0.3386	0.322	0.288	37.044
Mof_C 	C 	0.2904	0.5834	0.2661	-11.901
Mof_H 	H 	0.3076	0.4658	0.2877	43.406
Mof_N 	N 	0.317	0.407	0.298	-53.091
Mof_O 	O 	0.2971	0.338	0.3806	34.314
Mof_O 	O 	0.3611	0.326	0.239	-17.003
Mof_O 	O 	0.9128	0.0956	0.8976	1.727
Mof_C 	C 	0.7732	0.0952	0.7958	-18.065
Mof_H 	H 	0.7883	0.9805	0.824	46.634
Mof_N 	N 	0.796	0.923	0.838	-54.019
Mof_O 	O 	0.7726	0.875	0.925	-13.914
Mof_O 	O 	0.8386	0.822	0.788	35.393
Mof_C 	C 	0.7904	0.0834	0.7661	-11.029
Mof_H 	H 	0.8076	0.9658	0.7877	40.827
Mof_N 	N 	0.817	0.907	0.798	-50.225
Mof_O 	O 	0.7971	0.838	0.8806	32.44
Mof_O 	O 	0.8611	0.826	0.739	-16.405
Mof_O 	O 	0.5872	0.9044	0.3976	1.422
Mof_C 	C 	0.7268	0.9048	0.2958	-17.691
Mof_H 	H 	0.7117	0.0195	0.324	46.506
Mof_N 	N 	0.704	0.077	0.338	-53.959
Mof_O 	O 	0.7274	0.125	0.425	-13.798
Mof_O 	O 	0.6614	0.178	0.288	35.205
Mof_C 	C 	0.7096	0.9166	0.2661	-11.357
Mof_H 	H 	0.6924	0.0342	0.2877	40.775
Mof_N 	N 	0.683	0.093	0.298	-49.988
Mof_O 	O 	0.7029	0.162	0.3806	32.359
Mof_O 	O 	0.6389	0.174	0.239	-16.294
Mof_O 	O 	0.0872	0.4044	0.8976	1.525
Mof_C 	C 	0.2268	0.4048	0.7958	-19.339
Mof_H 	H 	0.2117	0.5195	0.824	49.484
Mof_N 	N 	0.204	0.577	0.838	-57.237
Mof_O 	O 	0.2274	0.625	0.925	-14.651
Mof_O 	O 	0.1614	0.678	0.788	37.198
Mof_C 	C 	0.2096	0.4166	0.7661	-11.845
Mof_H 	H 	0.1924	0.5342	0.7877	43.564
Mof_N 	N 	0.183	0.593	0.798	-53.346
Mof_O 	O 	0.2029	0.662	0.8806	34.368
Mof_O 	O 	0.1389	0.674	0.739	-17.064
Mof_O 	O 	0.5872	0.0956	0.6024	1.422
Mof_C 	C 	0.7268	0.0952	0.7042	-17.699
Mof_H 	H 	0.7117	0.9805	0.676	46.539
Mof_N 	N 	0.704	0.923	0.662	-54.003
Mof_O 	O 	0.7274	0.875	0.575	-13.811
Mof_O 	O 	0.6614	0.822	0.712	35.22
Mof_C 	C 	0.7096	0.0834	0.7339	-11.375
Mof_H 	H 	0.6924	0.9658	0.7123	40.814
Mof_N 	N 	0.683	0.907	0.702	-50.024
Mof_O 	O 	0.7029	0.838	0.6194	32.388
Mof_O 	O 	0.6389	0.826	0.761	-16.293
Mof_O 	O 	0.0872	0.5956	0.1024	1.504
Mof_C 	C 	0.2268	0.5952	0.2042	-19.288
Mof_H 	H 	0.2117	0.4805	0.176	49.377
Mof_N 	N 	0.204	0.423	0.162	-57.123
Mof_O 	O 	0.2274	0.375	0.075	-14.645
Mof_O 	O 	0.1614	0.322	0.212	37.11
Mof_C 	C 	0.2096	0.5834	0.2339	-11.83
Mof_H 	H 	0.1924	0.4658	0.2123	43.48
Mof_N 	N 	0.183	0.407	0.202	-53.233
Mof_O 	O 	0.2029	0.338	0.1194	34.31
Mof_O 	O 	0.1389	0.326	0.261	-17.02
Mof_O 	O 	0.4128	0.4044	0.6024	1.455
Mof_C 	C 	0.2732	0.4048	0.7042	-19.105
Mof_H 	H 	0.2883	0.5195	0.676	49.355
Mof_N 	N 	0.296	0.577	0.662	-57.195
Mof_O 	O 	0.2726	0.625	0.575	-14.675
Mof_O 	O 	0.3386	0.678	0.712	37.112
Mof_C 	C 	0.2904	0.4166	0.7339	-11.933
Mof_H 	H 	0.3076	0.5342	0.7123	43.493
Mof_N 	N 	0.317	0.593	0.702	-53.192
Mof_O 	O 	0.2971	0.662	0.6194	34.39
Mof_O 	O 	0.3611	0.674	0.761	-17.032
Mof_O 	O 	0.9128	0.9044	0.1024	1.713
Mof_C 	C 	0.7732	0.9048	0.2042	-18.034
Mof_H 	H 	0.7883	0.0195	0.176	46.587
Mof_N 	N 	0.796	0.077	0.162	-53.979
Mof_O 	O 	0.7726	0.125	0.075	-13.931
Mof_O 	O 	0.8386	0.178	0.212	35.357
Mof_C 	C 	0.7904	0.9166	0.2339	-11.029
Mof_H 	H 	0.8076	0.0342	0.2123	40.794
Mof_N 	N 	0.817	0.093	0.202	-50.178
Mof_O 	O 	0.7971	0.162	0.1194	32.428
Mof_O 	O 	0.8611	0.174	0.261	-16.39
Mof_O 	O 	0.5872	0.4044	0.6024	1.368
Mof_C 	C 	0.7268	0.4048	0.7042	-17.977
Mof_H 	H 	0.7117	0.5195	0.676	46.499
Mof_N 	N 	0.704	0.577	0.662	-53.907
Mof_O 	O 	0.7274	0.625	0.575	-13.832
Mof_O 	O 	0.6614	0.678	0.712	34.924
Mof_C 	C 	0.7096	0.4166	0.7339	-11.263
Mof_H 	H 	0.6924	0.5342	0.7123	41.019
Mof_N 	N 	0.683	0.593	0.702	-50.122
Mof_O 	O 	0.7029	0.662	0.6194	32.426
Mof_O 	O 	0.6389	0.674	0.761	-15.977
Mof_O 	O 	0.0872	0.9044	0.1024	1.857
Mof_C 	C 	0.2268	0.9048	0.2042	-19.109
Mof_H 	H 	0.2117	0.0195	0.176	49.375
Mof_N 	N 	0.204	0.077	0.162	-57.213
Mof_O 	O 	0.2274	0.125	0.075	-14.779
Mof_O 	O 	0.1614	0.178	0.212	37.471
Mof_C 	C 	0.2096	0.9166	0.2339	-11.723
Mof_H 	H 	0.1924	0.0342	0.2123	43.24
Mof_N 	N 	0.183	0.093	0.202	-53.176
Mof_O 	O 	0.2029	0.162	0.1194	34.379
Mof_O 	O 	0.1389	0.174	0.261	-17.378
Mof_O 	O 	0.4128	0.0956	0.6024	1.508
Mof_C 	C 	0.2732	0.0952	0.7042	-18.826
Mof_H 	H 	0.2883	0.9805	0.676	49.395
Mof_N 	N 	0.296	0.923	0.662	-57.29
Mof_O 	O 	0.2726	0.875	0.575	-14.655
Mof_O 	O 	0.3386	0.822	0.712	37.41
Mof_C 	C 	0.2904	0.0834	0.7339	-12.044
Mof_H 	H 	0.3076	0.9658	0.7123	43.287
Mof_N 	N 	0.317	0.907	0.702	-53.093
Mof_O 	O 	0.2971	0.838	0.6194	34.352
Mof_O 	O 	0.3611	0.826	0.761	-17.35
Mof_O 	O 	0.9128	0.5956	0.1024	1.359
Mof_C 	C 	0.7732	0.5952	0.2042	-18.215
Mof_H 	H 	0.7883	0.4805	0.176	46.59
Mof_N 	N 	0.796	0.423	0.162	-53.889
Mof_O 	O 	0.7726	0.375	0.075	-13.797
Mof_O 	O 	0.8386	0.322	0.212	34.994
Mof_C 	C 	0.7904	0.5834	0.2339	-11.137
Mof_H 	H 	0.8076	0.4658	0.2123	41.035
Mof_N 	N 	0.817	0.407	0.202	-50.236
Mof_O 	O 	0.7971	0.338	0.1194	32.357
Mof_O 	O 	0.8611	0.326	0.261	-16.031
Mof_O 	O 	0.4128	0.9044	0.3976	1.506
Mof_C 	C 	0.2732	0.9048	0.2958	-18.795
Mof_H 	H 	0.2883	0.0195	0.324	49.302
Mof_N 	N 	0.296	0.077	0.338	-57.176
Mof_O 	O 	0.2726	0.125	0.425	-14.618
Mof_O 	O 	0.3386	0.178	0.288	37.347
Mof_C 	C 	0.2904	0.9166	0.2661	-12.013
Mof_H 	H 	0.3076	0.0342	0.2877	43.196
Mof_N 	N 	0.317	0.093	0.298	-52.991
Mof_O 	O 	0.2971	0.162	0.3806	34.278
Mof_O 	O 	0.3611	0.174	0.239	-17.327
Mof_O 	O 	0.9128	0.4044	0.8976	1.376
Mof_C 	C 	0.7732	0.4048	0.7958	-18.241
Mof_H 	H 	0.7883	0.5195	0.824	46.636
Mof_N 	N 	0.796	0.577	0.838	-53.931
Mof_O 	O 	0.7726	0.625	0.925	-13.781
Mof_O 	O 	0.8386	0.678	0.788	35.037
Mof_C 	C 	0.7904	0.4166	0.7661	-11.136
Mof_H 	H 	0.8076	0.5342	0.7877	41.063
Mof_N 	N 	0.817	0.593	0.798	-50.282
Mof_O 	O 	0.7971	0.662	0.8806	32.37
Mof_O 	O 	0.8611	0.674	0.739	-16.054
Mof_O 	O 	0.5872	0.5956	0.3976	1.366
Mof_C 	C 	0.7268	0.5952	0.2958	-17.975
Mof_H 	H 	0.7117	0.4805	0.324	46.466
Mof_N 	N 	0.704	0.423	0.338	-53.862
Mof_O 	O 	0.7274	0.375	0.425	-13.816
Mof_O 	O 	0.6614	0.322	0.288	34.901
Mof_C 	C 	0.7096	0.5834	0.2661	-11.245
Mof_H 	H 	0.6924	0.4658	0.2877	40.985
Mof_N 	N 	0.683	0.407	0.298	-50.088
Mof_O 	O 	0.7029	0.338	0.3806	32.395
Mof_O 	O 	0.6389	0.326	0.239	-15.97
Mof_O 	O 	0.0872	0.0956	0.8976	1.877
Mof_C 	C 	0.2268	0.0952	0.7958	-19.16
Mof_H 	H 	0.2117	0.9805	0.824	49.482
Mof_N 	N 	0.204	0.923	0.838	-57.326
Mof_O 	O 	0.2274	0.875	0.925	-14.785
Mof_O 	O 	0.1614	0.822	0.788	37.557
Mof_C 	C 	0.2096	0.0834	0.7661	-11.738
Mof_H 	H 	0.1924	0.9658	0.7877	43.325
Mof_N 	N 	0.183	0.907	0.798	-53.289
Mof_O 	O 	0.2029	0.838	0.8806	34.437
Mof_O 	O 	0.1389	0.826	0.739	-17.419
Mof_In	In	0.5	0.5	0.5	0.937
Mof_In	In	-0	0	-0	-0.596
Mof_In	In	0.5	-7.57054e-33	0.5	0.885
Mof_In	In	-0	0.5	-0	1.019
Mof_O 	O 	0.5	0.75	0.5791	-2.033
Mof_H 	H 	0.5	0.75	0.6438	1.049
Mof_O 	O 	-2.57489e-34	0.25	0.0791	-1.856
Mof_H 	H 	-5.5424e-34	0.25	0.1438	1.008
Mof_O 	O 	0.5	0.25	0.4209	-2.032
Mof_H 	H 	0.5	0.25	0.3562	1.046
Mof_O 	O 	2.51088e-33	0.75	0.9209	-1.83
Mof_H 	H 	2.33447e-33	0.75	0.8562	1.002
Mof_C 	C 	0.3863	0.75	0.374	-6.329
Mof_C 	C 	0.3108	0.75	0.3208	10.03
Mof_C 	C 	0.3219	0.75	0.2968	10.924
Mof_C 	C 	0.8863	0.25	0.874	-6.026
Mof_C 	C 	0.8108	0.25	0.8208	9.362
Mof_C 	C 	0.8219	0.25	0.7968	10.52
Mof_C 	C 	0.6137	0.75	0.374	-5.932
Mof_C 	C 	0.6892	0.75	0.3208	9.502
Mof_C 	C 	0.6781	0.75	0.2968	10.281
Mof_C 	C 	0.1137	0.25	0.874	-6.437
Mof_C 	C 	0.1892	0.25	0.8208	9.942
Mof_C 	C 	0.1781	0.25	0.7968	11.154
Mof_C 	C 	0.6137	0.25	0.626	-5.936
Mof_C 	C 	0.6892	0.25	0.6792	9.518
Mof_C 	C 	0.6781	0.25	0.7032	10.281
Mof_C 	C 	0.1137	0.75	0.126	-6.424
Mof_C 	C 	0.1892	0.75	0.1792	9.931
Mof_C 	C 	0.1781	0.75	0.2032	11.117
Mof_C 	C 	0.3863	0.25	0.626	-6.34
Mof_C 	C 	0.3108	0.25	0.6792	10.057
Mof_C 	C 	0.3219	0.25	0.7032	10.938
Mof_C 	C 	0.8863	0.75	0.126	-6.022
Mof_C 	C 	0.8108	0.75	0.1792	9.363
Mof_C 	C 	0.8219	0.75	0.2032	10.497
_end
