data_functionalizedCrystal
_audit_creation_method	'EQeq! by Chris Wilmer'
_symmetry_space_group_name_H-M	'P1'
_symmetry_Int_Tables_number	1
_symmetry_cell_setting	triclinic
loop_
_symmetry_equiv_pos_as_xyz
  x,y,z
_cell_length_a	9.4088
_cell_length_b	9.0924
_cell_length_c	9.6884
_cell_angle_alpha	90
_cell_angle_beta	117.252
_cell_angle_gamma	90
loop_
_atom_site_label
_atom_site_type_symbol
_atom_site_fract_x
_atom_site_fract_y
_atom_site_fract_z
_atom_site_charge
Mof_P 	P 	0.3322	0.6021	0.0644	0.678
Mof_P 	P 	0.1432	0.1573	0.9721	0.807
Mof_O 	O 	0.2485	0.5596	0.893	-0.459
Mof_O 	O 	0.2351	0.7231	0.0916	-0.515
Mof_O 	O 	0.2493	0.0512	0.0963	-0.459
Mof_O 	O 	0.2431	0.2337	0.9079	-0.488
Mof_O 	O 	0.5039	0.6449	0.1175	-0.482
Mof_O 	O 	0.9949	0.0871	0.8474	-0.534
Mof_O 	O 	0.3412	0.464	0.1657	-0.493
Mof_O 	O 	0.0875	0.2783	0.0557	-1.077
Mof_H 	H 	0.2494	0.4333	0.1331	0.354
Mof_H 	H 	0.0143	0.2884	0.0311	0.792
Mof_P 	P 	0.1678	0.6021	0.4356	0.678
Mof_P 	P 	0.3568	0.1573	0.5279	0.83
Mof_O 	O 	0.2515	0.5596	0.607	-0.457
Mof_O 	O 	0.2649	0.7231	0.4084	-0.513
Mof_O 	O 	0.2507	0.0512	0.4037	-0.47
Mof_O 	O 	0.2569	0.2337	0.5921	-0.488
Mof_O 	O 	0.9961	0.6449	0.3825	-0.484
Mof_O 	O 	0.5051	0.0871	0.6526	-0.539
Mof_O 	O 	0.1588	0.464	0.3343	-0.493
Mof_O 	O 	0.4125	0.2783	0.4443	-1.091
Mof_H 	H 	0.2506	0.4333	0.3669	0.353
Mof_H 	H 	0.4857	0.2884	0.4689	0.796
Mof_P 	P 	0.6678	0.3979	0.9356	0.679
Mof_P 	P 	0.8568	0.8427	0.0279	0.808
Mof_O 	O 	0.7515	0.4404	0.107	-0.458
Mof_O 	O 	0.7649	0.2769	0.9084	-0.514
Mof_O 	O 	0.7507	0.9488	0.9037	-0.459
Mof_O 	O 	0.7569	0.7663	0.0921	-0.488
Mof_O 	O 	0.4961	0.3551	0.8825	-0.482
Mof_O 	O 	0.0051	0.9129	0.1526	-0.534
Mof_O 	O 	0.6588	0.536	0.8343	-0.493
Mof_O 	O 	0.9125	0.7217	0.9443	-1.077
Mof_H 	H 	0.7506	0.5667	0.8669	0.354
Mof_H 	H 	0.9857	0.7116	0.9689	0.792
Mof_P 	P 	0.8322	0.3979	0.5644	0.678
Mof_P 	P 	0.6432	0.8427	0.4721	0.83
Mof_O 	O 	0.7485	0.4404	0.393	-0.457
Mof_O 	O 	0.7351	0.2769	0.5916	-0.513
Mof_O 	O 	0.7493	0.9488	0.5963	-0.47
Mof_O 	O 	0.7431	0.7663	0.4079	-0.488
Mof_O 	O 	0.0039	0.3551	0.6175	-0.484
Mof_O 	O 	0.4949	0.9129	0.3474	-0.539
Mof_O 	O 	0.8412	0.536	0.6657	-0.493
Mof_O 	O 	0.5875	0.7217	0.5557	-1.091
Mof_H 	H 	0.7494	0.5667	0.6331	0.353
Mof_H 	H 	0.5143	0.7116	0.5311	0.796
Mof_Sc	Sc	0.25	0.8943	0.25	1.868
Mof_Sc	Sc	0.75	0.1057	0.75	1.868
Mof_Sc	Sc	0.25	0.3827	0.75	1.884
Mof_Sc	Sc	0.75	0.6173	0.25	1.884
_end
