data_functionalizedCrystal
_audit_creation_method	'EQeq! by Chris Wilmer'
_symmetry_space_group_name_H-M	'P1'
_symmetry_Int_Tables_number	1
_symmetry_cell_setting	triclinic
loop_
_symmetry_equiv_pos_as_xyz
  x,y,z
_cell_length_a	9.0164
_cell_length_b	9.0164
_cell_length_c	17.078
_cell_angle_alpha	90
_cell_angle_beta	90
_cell_angle_gamma	117.031
loop_
_atom_site_label
_atom_site_type_symbol
_atom_site_fract_x
_atom_site_fract_y
_atom_site_fract_z
_atom_site_charge
Mof_Gd	Gd	-0	0	-0	1.266
Mof_Gd	Gd	2.0412e-32	0	0.5	1.403
Mof_Gd	Gd	0.34991	0.65509	0.25	1.809
Mof_Gd	Gd	0.65509	0.34991	0.75	1.813
Mof_H 	H 	0.562	0.9652	0.0843	0.145
Mof_H 	H 	0.5023	0.8193	0.0233	0.109
Mof_H 	H 	0.5834	0.9812	0.91	0.268
Mof_H 	H 	0.6246	0.1394	0.9618	0.185
Mof_H 	H 	0.3939	0.4017	0.0865	0.076
Mof_H 	H 	0.316	0.4888	0.0325	0.064
Mof_H 	H 	0.9652	0.562	0.9157	0.173
Mof_H 	H 	0.8193	0.5023	0.9767	0.157
Mof_H 	H 	0.9812	0.5834	0.09	0.266
Mof_H 	H 	0.1394	0.6246	0.0382	0.188
Mof_H 	H 	0.4017	0.3939	0.9135	0.083
Mof_H 	H 	0.4888	0.316	0.9675	0.079
Mof_H 	H 	0.9652	0.562	0.5843	0.152
Mof_H 	H 	0.8193	0.5023	0.5233	0.126
Mof_H 	H 	0.9812	0.5834	0.41	0.252
Mof_H 	H 	0.1394	0.6246	0.4618	0.177
Mof_H 	H 	0.4017	0.3939	0.5865	0.096
Mof_H 	H 	0.4888	0.316	0.5325	0.086
Mof_H 	H 	0.562	0.9652	0.4157	0.161
Mof_H 	H 	0.5023	0.8193	0.4767	0.134
Mof_H 	H 	0.5834	0.9812	0.59	0.287
Mof_H 	H 	0.6246	0.1394	0.5382	0.194
Mof_H 	H 	0.3939	0.4017	0.4135	0.094
Mof_H 	H 	0.316	0.4888	0.4675	0.088
Mof_C 	C 	0.6535	0.8025	0.1059	0.486
Mof_C 	C 	0.5972	0.8968	0.0532	-0.318
Mof_C 	C 	0.6694	0.0686	0.9402	-0.534
Mof_C 	C 	0.815	0.169	0.8894	0.532
Mof_C 	C 	0.1515	0.3365	0.1142	0.439
Mof_C 	C 	0.295	0.385	0.0577	-0.207
Mof_C 	C 	0.8025	0.6535	0.8941	0.51
Mof_C 	C 	0.8968	0.5972	0.9468	-0.373
Mof_C 	C 	0.0686	0.6694	0.0598	-0.641
Mof_C 	C 	0.169	0.815	0.1106	0.555
Mof_C 	C 	0.3365	0.1515	0.8858	0.433
Mof_C 	C 	0.385	0.295	0.9423	-0.153
Mof_C 	C 	0.8025	0.6535	0.6059	0.497
Mof_C 	C 	0.8968	0.5972	0.5532	-0.334
Mof_C 	C 	0.0686	0.6694	0.4402	-0.556
Mof_C 	C 	0.169	0.815	0.3894	0.537
Mof_C 	C 	0.3365	0.1515	0.6142	0.456
Mof_C 	C 	0.385	0.295	0.5577	-0.241
Mof_C 	C 	0.6535	0.8025	0.3941	0.504
Mof_C 	C 	0.5972	0.8968	0.4468	-0.352
Mof_C 	C 	0.6694	0.0686	0.5598	-0.63
Mof_C 	C 	0.815	0.169	0.6106	0.558
Mof_C 	C 	0.1515	0.3365	0.3858	0.456
Mof_C 	C 	0.295	0.385	0.4423	-0.241
Mof_O 	O 	0.8008	0.827	0.0962	-0.361
Mof_O 	O 	0.5558	0.7074	0.1564	-0.506
Mof_O 	O 	0.7239	0.9991	0.0015	-0.06
Mof_O 	O 	0.7937	0.2483	0.8351	-0.501
Mof_O 	O 	0.9571	0.1769	0.9042	-0.349
Mof_O 	O 	0.0244	0.2032	0.0979	-0.457
Mof_O 	O 	0.171	0.437	0.1674	-0.5
Mof_O 	O 	0.827	0.8008	0.9038	-0.337
Mof_O 	O 	0.7074	0.5558	0.8436	-0.506
Mof_O 	O 	0.9991	0.7239	0.9985	0.044
Mof_O 	O 	0.2483	0.7937	0.1649	-0.507
Mof_O 	O 	0.1769	0.9571	0.0958	-0.378
Mof_O 	O 	0.2032	0.0244	0.9021	-0.428
Mof_O 	O 	0.437	0.171	0.8326	-0.496
Mof_O 	O 	0.827	0.8008	0.5962	-0.362
Mof_O 	O 	0.7074	0.5558	0.6564	-0.506
Mof_O 	O 	0.9991	0.7239	0.5015	-0.035
Mof_O 	O 	0.2483	0.7937	0.3351	-0.501
Mof_O 	O 	0.1769	0.9571	0.4042	-0.375
Mof_O 	O 	0.2032	0.0244	0.5979	-0.467
Mof_O 	O 	0.437	0.171	0.6674	-0.505
Mof_O 	O 	0.8008	0.827	0.4038	-0.367
Mof_O 	O 	0.5558	0.7074	0.3436	-0.509
Mof_O 	O 	0.7239	0.9991	0.4985	-0.008
Mof_O 	O 	0.7937	0.2483	0.6649	-0.511
Mof_O 	O 	0.9571	0.1769	0.5958	-0.393
Mof_O 	O 	0.0244	0.2032	0.4021	-0.467
Mof_O 	O 	0.171	0.437	0.3326	-0.504
Mof_O 	O 	0.262	0.262	-0	-0.258
Mof_O 	O 	0.262	0.262	0.5	-0.204
_end
