data_functionalizedCrystal
_audit_creation_method	'EQeq! by Chris Wilmer'
_symmetry_space_group_name_H-M	'P1'
_symmetry_Int_Tables_number	1
_symmetry_cell_setting	triclinic
loop_
_symmetry_equiv_pos_as_xyz
  x,y,z
_cell_length_a	14.95
_cell_length_b	18.8284
_cell_length_c	30.348
_cell_angle_alpha	99.2797
_cell_angle_beta	90
_cell_angle_gamma	113.391
loop_
_atom_site_label
_atom_site_type_symbol
_atom_site_fract_x
_atom_site_fract_y
_atom_site_fract_z
_atom_site_charge
Mof_Zn	Zn	0.22673	0.25928	0.05641	1.165
Mof_Zn	Zn	0.29138	0.83466	0.90566	1.165
Mof_Zn	Zn	0.96618	0.65494	0.72997	1.163
Mof_Zn	Zn	0.03255	0.25928	0.55641	1.165
Mof_Zn	Zn	0.54328	0.83466	0.40566	1.165
Mof_Zn	Zn	0.68876	0.65494	0.22997	1.164
Mof_H 	H 	0.1049	0.1608	0.1163	-0.016
Mof_H 	H 	0.9555	0.0628	0.1183	0.086
Mof_H 	H 	0.8998	0.0534	0.9883	0.076
Mof_H 	H 	0.0523	0.1542	0.9881	0.001
Mof_H 	H 	0.5716	0.6686	0.1544	-0.017
Mof_H 	H 	0.5841	0.747	0.1016	0.093
Mof_H 	H 	0.8576	0.8714	0.1496	0.1
Mof_H 	H 	0.843	0.7768	0.1909	-0.043
Mof_H 	H 	0.4968	0.9654	0.9326	-0.012
Mof_H 	H 	0.6364	0.986	0.9719	0.079
Mof_H 	H 	0.4809	0.793	0.0249	0.084
Mof_H 	H 	0.3501	0.7756	0.9793	-0.019
Mof_H 	H 	0.4652	0.8196	0.8639	-0.007
Mof_H 	H 	0.5107	0.7376	0.8154	0.098
Mof_H 	H 	0.2245	0.6098	0.777	0.08
Mof_H 	H 	0.1876	0.6874	0.8354	-0.01
Mof_H 	H 	0.8291	0.719	0.7701	-0.021
Mof_H 	H 	0.6684	0.6982	0.7693	0.089
Mof_H 	H 	0.6163	0.5178	0.6667	0.082
Mof_H 	H 	0.7791	0.5398	0.6752	-0.014
Mof_H 	H 	0.0504	0.3792	0.6389	-0.002
Mof_H 	H 	0.1717	0.4764	0.6908	0.092
Mof_H 	H 	0.3744	0.4256	0.6197	0.088
Mof_H 	H 	0.2483	0.3316	0.5711	-0.003
Mof_H 	H 	0.0559	0.1608	0.6163	-0.017
Mof_H 	H 	0.1073	0.0628	0.6183	0.088
Mof_H 	H 	0.1536	0.0534	0.4883	0.078
Mof_H 	H 	0.1019	0.1542	0.4881	-0.002
Mof_H 	H 	0.097	0.6686	0.6544	-0.016
Mof_H 	H 	0.1629	0.747	0.6016	0.092
Mof_H 	H 	0.0138	0.8714	0.6496	0.099
Mof_H 	H 	0.9338	0.7768	0.6909	-0.041
Mof_H 	H 	0.4686	0.9654	0.4326	-0.012
Mof_H 	H 	0.3496	0.986	0.4719	0.08
Mof_H 	H 	0.3121	0.793	0.5249	0.084
Mof_H 	H 	0.4255	0.7756	0.4793	-0.019
Mof_H 	H 	0.3544	0.8196	0.3639	-0.007
Mof_H 	H 	0.2269	0.7376	0.3154	0.098
Mof_H 	H 	0.3853	0.6098	0.277	0.08
Mof_H 	H 	0.4998	0.6874	0.3354	-0.01
Mof_H 	H 	0.8899	0.719	0.2701	-0.02
Mof_H 	H 	0.0298	0.6982	0.2693	0.09
Mof_H 	H 	0.9015	0.5178	0.1667	0.083
Mof_H 	H 	0.7607	0.5398	0.1752	-0.014
Mof_H 	H 	0.3288	0.3792	0.1389	-0.002
Mof_H 	H 	0.3047	0.4764	0.1908	0.092
Mof_H 	H 	0.0512	0.4256	0.1197	0.088
Mof_H 	H 	0.0833	0.3316	0.0711	-0.004
Mof_C 	C 	0.0629	0.1388	0.0897	0.076
Mof_C 	C 	0.9764	0.0788	0.0905	-0.121
Mof_C 	C 	0.9161	0.04	0.0524	0.052
Mof_C 	C 	0.9428	0.073	0.0146	-0.11
Mof_C 	C 	0.0321	0.1348	0.015	0.062
Mof_C 	C 	0.8212	0.9716	0.0528	0.087
Mof_C 	C 	0.7319	0.871	0.0861	0.092
Mof_C 	C 	0.6636	0.904	0.031	0.086
Mof_C 	C 	0.6319	0.7116	0.153	0.089
Mof_C 	C 	0.6387	0.7588	0.1218	-0.142
Mof_C 	C 	0.722	0.821	0.1198	0.098
Mof_C 	C 	0.7965	0.828	0.1485	-0.17
Mof_C 	C 	0.7862	0.7746	0.1757	0.147
Mof_C 	C 	0.4956	0.9278	0.9503	0.087
Mof_C 	C 	0.5784	0.9418	0.9744	-0.134
Mof_C 	C 	0.5786	0.8918	0.0024	0.06
Mof_C 	C 	0.4874	0.8282	0.0047	-0.129
Mof_C 	C 	0.4102	0.819	0.9777	0.086
Mof_C 	C 	0.4153	0.773	0.848	0.085
Mof_C 	C 	0.4437	0.7284	0.8173	-0.132
Mof_C 	C 	0.3719	0.6682	0.7885	0.064
Mof_C 	C 	0.2754	0.652	0.7956	-0.129
Mof_C 	C 	0.2543	0.6984	0.8307	0.069
Mof_C 	C 	0.3988	0.6202	0.751	0.103
Mof_C 	C 	0.5182	0.593	0.7165	0.11
Mof_C 	C 	0.3583	0.5224	0.6913	0.081
Mof_C 	C 	0.7843	0.6764	0.7493	0.087
Mof_C 	C 	0.6894	0.6656	0.7485	-0.133
Mof_C 	C 	0.6232	0.6066	0.717	0.063
Mof_C 	C 	0.6586	0.5592	0.6889	-0.128
Mof_C 	C 	0.7558	0.5734	0.6938	0.081
Mof_C 	C 	0.117	0.3882	0.6356	0.065
Mof_C 	C 	0.1889	0.4468	0.6665	-0.124
Mof_C 	C 	0.2838	0.4594	0.6604	0.052
Mof_C 	C 	0.3082	0.4166	0.6245	-0.125
Mof_C 	C 	0.2324	0.3606	0.5962	0.082
Mof_C 	C 	0.0759	0.1388	0.5897	0.083
Mof_C 	C 	0.1024	0.0788	0.5905	-0.129
Mof_C 	C 	0.1239	0.04	0.5524	0.053
Mof_C 	C 	0.1302	0.073	0.5146	-0.119
Mof_C 	C 	0.1027	0.1348	0.515	0.071
Mof_C 	C 	0.1504	0.9716	0.5528	0.089
Mof_C 	C 	0.1391	0.871	0.5861	0.093
Mof_C 	C 	0.2404	0.904	0.531	0.086
Mof_C 	C 	0.0797	0.7116	0.653	0.088
Mof_C 	C 	0.1201	0.7588	0.6218	-0.139
Mof_C 	C 	0.099	0.821	0.6198	0.096
Mof_C 	C 	0.0315	0.828	0.6485	-0.163
Mof_C 	C 	0.9884	0.7746	0.6757	0.139
Mof_C 	C 	0.4322	0.9278	0.4503	0.087
Mof_C 	C 	0.3634	0.9418	0.4744	-0.133
Mof_C 	C 	0.3132	0.8918	0.5024	0.06
Mof_C 	C 	0.3408	0.8282	0.5047	-0.128
Mof_C 	C 	0.4088	0.819	0.4777	0.085
Mof_C 	C 	0.3577	0.773	0.348	0.085
Mof_C 	C 	0.2847	0.7284	0.3173	-0.132
Mof_C 	C 	0.2963	0.6682	0.2885	0.064
Mof_C 	C 	0.3766	0.652	0.2956	-0.129
Mof_C 	C 	0.4441	0.6984	0.3307	0.069
Mof_C 	C 	0.2214	0.6202	0.251	0.103
Mof_C 	C 	0.0748	0.593	0.2165	0.11
Mof_C 	C 	0.1641	0.5224	0.1913	0.081
Mof_C 	C 	0.8921	0.6764	0.2493	0.087
Mof_C 	C 	0.9762	0.6656	0.2485	-0.133
Mof_C 	C 	0.9834	0.6066	0.217	0.064
Mof_C 	C 	0.9006	0.5592	0.1889	-0.128
Mof_C 	C 	0.8176	0.5734	0.1938	0.081
Mof_C 	C 	0.2712	0.3882	0.1356	0.065
Mof_C 	C 	0.2579	0.4468	0.1665	-0.124
Mof_C 	C 	0.1756	0.4594	0.1604	0.052
Mof_C 	C 	0.1084	0.4166	0.1245	-0.125
Mof_C 	C 	0.1282	0.3606	0.0962	0.082
Mof_I 	I 	0.24876	0.30424	0.98247	-0.377
Mof_I 	I 	0.34094	0.21742	0.09657	-0.382
Mof_I 	I 	0.31972	0.9512	0.86706	-0.351
Mof_I 	I 	0.14406	0.75872	0.94483	-0.376
Mof_I 	I 	0.03098	0.74064	0.80584	-0.404
Mof_I 	I 	0.99654	0.53242	0.70462	-0.381
Mof_I 	I 	0.05548	0.30424	0.48247	-0.378
Mof_I 	I 	0.87648	0.21742	0.59657	-0.38
Mof_I 	I 	0.63148	0.9512	0.36706	-0.352
Mof_I 	I 	0.61466	0.75872	0.44483	-0.377
Mof_I 	I 	0.70966	0.74064	0.30584	-0.407
Mof_I 	I 	0.53588	0.53242	0.20462	-0.38
Mof_N 	N 	0.0919	0.1684	0.0528	-0.271
Mof_N 	N 	0.8187	0.9276	0.0846	-0.133
Mof_N 	N 	0.6503	0.857	0.0609	-0.133
Mof_N 	N 	0.7493	0.9612	0.0238	-0.146
Mof_N 	N 	0.7069	0.724	0.1813	-0.297
Mof_N 	N 	0.4121	0.8652	0.9495	-0.279
Mof_N 	N 	0.3226	0.7582	0.8585	-0.274
Mof_N 	N 	0.4956	0.6392	0.7489	-0.134
Mof_N 	N 	0.4564	0.5368	0.688	-0.139
Mof_N 	N 	0.3295	0.563	0.7248	-0.141
Mof_N 	N 	0.8188	0.632	0.7233	-0.279
Mof_N 	N 	0.1393	0.3444	0.6015	-0.273
Mof_N 	N 	0.0765	0.1684	0.5528	-0.274
Mof_N 	N 	0.1089	0.9276	0.5846	-0.132
Mof_N 	N 	0.2067	0.857	0.5609	-0.133
Mof_N 	N 	0.2119	0.9612	0.5238	-0.145
Mof_N 	N 	0.0171	0.724	0.6813	-0.294
Mof_N 	N 	0.4531	0.8652	0.4495	-0.279
Mof_N 	N 	0.4356	0.7582	0.3585	-0.274
Mof_N 	N 	0.1436	0.6392	0.2489	-0.134
Mof_N 	N 	0.0804	0.5368	0.188	-0.139
Mof_N 	N 	0.2335	0.563	0.2248	-0.141
Mof_N 	N 	0.8132	0.632	0.2233	-0.279
Mof_N 	N 	0.2051	0.3444	0.1015	-0.273
Mof_Zn	Zn	0.96745	0.74072	0.44359	1.166
Mof_Zn	Zn	0.45672	0.16534	0.59434	1.166
Mof_Zn	Zn	0.31124	0.34506	0.77003	1.165
Mof_Zn	Zn	0.77327	0.74072	0.94359	1.166
Mof_Zn	Zn	0.70862	0.16534	0.09434	1.166
Mof_Zn	Zn	0.03382	0.34506	0.27003	1.164
Mof_H 	H 	0.9441	0.8392	0.3837	-0.017
Mof_H 	H 	0.8927	0.9372	0.3817	0.088
Mof_H 	H 	0.8464	0.9466	0.5117	0.078
Mof_H 	H 	0.8981	0.8458	0.5119	-0.002
Mof_H 	H 	0.903	0.3314	0.3456	-0.016
Mof_H 	H 	0.8371	0.253	0.3984	0.092
Mof_H 	H 	0.9862	0.1286	0.3504	0.099
Mof_H 	H 	0.0662	0.2232	0.3091	-0.041
Mof_H 	H 	0.5314	0.0346	0.5674	-0.012
Mof_H 	H 	0.6504	0.014	0.5281	0.08
Mof_H 	H 	0.6879	0.207	0.4751	0.084
Mof_H 	H 	0.5745	0.2244	0.5207	-0.019
Mof_H 	H 	0.6456	0.1804	0.6361	-0.007
Mof_H 	H 	0.7731	0.2624	0.6846	0.098
Mof_H 	H 	0.6147	0.3902	0.723	0.08
Mof_H 	H 	0.5002	0.3126	0.6646	-0.01
Mof_H 	H 	0.1101	0.281	0.7299	-0.02
Mof_H 	H 	0.9702	0.3018	0.7307	0.09
Mof_H 	H 	0.0985	0.4822	0.8333	0.083
Mof_H 	H 	0.2393	0.4602	0.8248	-0.014
Mof_H 	H 	0.6712	0.6208	0.8611	-0.002
Mof_H 	H 	0.6953	0.5236	0.8092	0.092
Mof_H 	H 	0.9488	0.5744	0.8803	0.088
Mof_H 	H 	0.9167	0.6684	0.9289	-0.004
Mof_H 	H 	0.8951	0.8392	0.8837	-0.015
Mof_H 	H 	0.0445	0.9372	0.8817	0.087
Mof_H 	H 	0.1002	0.9466	0.0117	0.076
Mof_H 	H 	0.9477	0.8458	0.0119	0.001
Mof_H 	H 	0.4284	0.3314	0.8456	-0.017
Mof_H 	H 	0.4159	0.253	0.8984	0.093
Mof_H 	H 	0.1424	0.1286	0.8504	0.1
Mof_H 	H 	0.157	0.2232	0.8091	-0.043
Mof_H 	H 	0.5032	0.0346	0.0674	-0.012
Mof_H 	H 	0.3636	0.014	0.0281	0.079
Mof_H 	H 	0.5191	0.207	0.9751	0.084
Mof_H 	H 	0.6499	0.2244	0.0207	-0.019
Mof_H 	H 	0.5348	0.1804	0.1361	-0.007
Mof_H 	H 	0.4893	0.2624	0.1846	0.098
Mof_H 	H 	0.7755	0.3902	0.223	0.08
Mof_H 	H 	0.8124	0.3126	0.1646	-0.01
Mof_H 	H 	0.1709	0.281	0.2299	-0.021
Mof_H 	H 	0.3316	0.3018	0.2307	0.089
Mof_H 	H 	0.3837	0.4822	0.3333	0.082
Mof_H 	H 	0.2209	0.4602	0.3248	-0.014
Mof_H 	H 	0.9496	0.6208	0.3611	-0.002
Mof_H 	H 	0.8283	0.5236	0.3092	0.092
Mof_H 	H 	0.6256	0.5744	0.3803	0.088
Mof_H 	H 	0.7517	0.6684	0.4289	-0.003
Mof_C 	C 	0.9241	0.8612	0.4103	0.083
Mof_C 	C 	0.8976	0.9212	0.4095	-0.129
Mof_C 	C 	0.8761	0.96	0.4476	0.053
Mof_C 	C 	0.8698	0.927	0.4854	-0.119
Mof_C 	C 	0.8973	0.8652	0.485	0.071
Mof_C 	C 	0.8496	0.0284	0.4472	0.089
Mof_C 	C 	0.8609	0.129	0.4139	0.093
Mof_C 	C 	0.7596	0.096	0.469	0.086
Mof_C 	C 	0.9203	0.2884	0.347	0.088
Mof_C 	C 	0.8799	0.2412	0.3782	-0.139
Mof_C 	C 	0.901	0.179	0.3802	0.096
Mof_C 	C 	0.9685	0.172	0.3515	-0.163
Mof_C 	C 	0.0116	0.2254	0.3243	0.139
Mof_C 	C 	0.5678	0.0722	0.5497	0.087
Mof_C 	C 	0.6366	0.0582	0.5256	-0.133
Mof_C 	C 	0.6868	0.1082	0.4976	0.06
Mof_C 	C 	0.6592	0.1718	0.4953	-0.128
Mof_C 	C 	0.5912	0.181	0.5223	0.085
Mof_C 	C 	0.6423	0.227	0.652	0.085
Mof_C 	C 	0.7153	0.2716	0.6827	-0.132
Mof_C 	C 	0.7037	0.3318	0.7115	0.064
Mof_C 	C 	0.6234	0.348	0.7044	-0.129
Mof_C 	C 	0.5559	0.3016	0.6693	0.069
Mof_C 	C 	0.7786	0.3798	0.749	0.103
Mof_C 	C 	0.9252	0.407	0.7835	0.11
Mof_C 	C 	0.8359	0.4776	0.8087	0.081
Mof_C 	C 	0.1079	0.3236	0.7507	0.087
Mof_C 	C 	0.0238	0.3344	0.7515	-0.133
Mof_C 	C 	0.0166	0.3934	0.783	0.064
Mof_C 	C 	0.0994	0.4408	0.8111	-0.128
Mof_C 	C 	0.1824	0.4266	0.8062	0.081
Mof_C 	C 	0.7288	0.6118	0.8644	0.065
Mof_C 	C 	0.7421	0.5532	0.8335	-0.124
Mof_C 	C 	0.8244	0.5406	0.8396	0.052
Mof_C 	C 	0.8916	0.5834	0.8755	-0.125
Mof_C 	C 	0.8718	0.6394	0.9038	0.082
Mof_C 	C 	0.9371	0.8612	0.9103	0.076
Mof_C 	C 	0.0236	0.9212	0.9095	-0.121
Mof_C 	C 	0.0839	0.96	0.9476	0.052
Mof_C 	C 	0.0572	0.927	0.9854	-0.11
Mof_C 	C 	0.9679	0.8652	0.985	0.062
Mof_C 	C 	0.1788	0.0284	0.9472	0.087
Mof_C 	C 	0.2681	0.129	0.9139	0.092
Mof_C 	C 	0.3364	0.096	0.969	0.086
Mof_C 	C 	0.3681	0.2884	0.847	0.089
Mof_C 	C 	0.3613	0.2412	0.8782	-0.142
Mof_C 	C 	0.278	0.179	0.8802	0.098
Mof_C 	C 	0.2035	0.172	0.8515	-0.17
Mof_C 	C 	0.2138	0.2254	0.8243	0.147
Mof_C 	C 	0.5044	0.0722	0.0497	0.087
Mof_C 	C 	0.4216	0.0582	0.0256	-0.134
Mof_C 	C 	0.4214	0.1082	0.9976	0.06
Mof_C 	C 	0.5126	0.1718	0.9953	-0.129
Mof_C 	C 	0.5898	0.181	0.0223	0.086
Mof_C 	C 	0.5847	0.227	0.152	0.085
Mof_C 	C 	0.5563	0.2716	0.1827	-0.132
Mof_C 	C 	0.6281	0.3318	0.2115	0.064
Mof_C 	C 	0.7246	0.348	0.2044	-0.129
Mof_C 	C 	0.7457	0.3016	0.1693	0.069
Mof_C 	C 	0.6012	0.3798	0.249	0.103
Mof_C 	C 	0.4818	0.407	0.2835	0.11
Mof_C 	C 	0.6417	0.4776	0.3087	0.081
Mof_C 	C 	0.2157	0.3236	0.2507	0.087
Mof_C 	C 	0.3106	0.3344	0.2515	-0.133
Mof_C 	C 	0.3768	0.3934	0.283	0.063
Mof_C 	C 	0.3414	0.4408	0.3111	-0.128
Mof_C 	C 	0.2442	0.4266	0.3062	0.081
Mof_C 	C 	0.883	0.6118	0.3644	0.065
Mof_C 	C 	0.8111	0.5532	0.3335	-0.124
Mof_C 	C 	0.7162	0.5406	0.3396	0.052
Mof_C 	C 	0.6918	0.5834	0.3755	-0.125
Mof_C 	C 	0.7676	0.6394	0.4038	0.082
Mof_I 	I 	0.94452	0.69576	0.51753	-0.378
Mof_I 	I 	0.12352	0.78258	0.40343	-0.38
Mof_I 	I 	0.36852	0.0488	0.63294	-0.352
Mof_I 	I 	0.38534	0.24128	0.55517	-0.377
Mof_I 	I 	0.29034	0.25936	0.69416	-0.407
Mof_I 	I 	0.46412	0.46758	0.79538	-0.38
Mof_I 	I 	0.75124	0.69576	0.01753	-0.377
Mof_I 	I 	0.65906	0.78258	0.90343	-0.382
Mof_I 	I 	0.68028	0.0488	0.13294	-0.351
Mof_I 	I 	0.85594	0.24128	0.05517	-0.376
Mof_I 	I 	0.96902	0.25936	0.19416	-0.404
Mof_I 	I 	0.00346	0.46758	0.29538	-0.381
Mof_N 	N 	0.9235	0.8316	0.4472	-0.274
Mof_N 	N 	0.8911	0.0724	0.4154	-0.132
Mof_N 	N 	0.7933	0.143	0.4391	-0.133
Mof_N 	N 	0.7881	0.0388	0.4762	-0.145
Mof_N 	N 	0.9829	0.276	0.3187	-0.294
Mof_N 	N 	0.5469	0.1348	0.5505	-0.279
Mof_N 	N 	0.5644	0.2418	0.6415	-0.274
Mof_N 	N 	0.8564	0.3608	0.7511	-0.134
Mof_N 	N 	0.9196	0.4632	0.812	-0.139
Mof_N 	N 	0.7665	0.437	0.7752	-0.141
Mof_N 	N 	0.1868	0.368	0.7767	-0.279
Mof_N 	N 	0.7949	0.6556	0.8985	-0.273
Mof_N 	N 	0.9081	0.8316	0.9472	-0.271
Mof_N 	N 	0.1813	0.0724	0.9154	-0.133
Mof_N 	N 	0.3497	0.143	0.9391	-0.133
Mof_N 	N 	0.2507	0.0388	0.9762	-0.146
Mof_N 	N 	0.2931	0.276	0.8187	-0.297
Mof_N 	N 	0.5879	0.1348	0.0505	-0.279
Mof_N 	N 	0.6774	0.2418	0.1415	-0.274
Mof_N 	N 	0.5044	0.3608	0.2511	-0.134
Mof_N 	N 	0.5436	0.4632	0.312	-0.139
Mof_N 	N 	0.6705	0.437	0.2752	-0.141
Mof_N 	N 	0.1812	0.368	0.2767	-0.279
Mof_N 	N 	0.8607	0.6556	0.3985	-0.273
_end
