data_functionalizedCrystal
_audit_creation_method	'EQeq! by Chris Wilmer'
_symmetry_space_group_name_H-M	'P1'
_symmetry_Int_Tables_number	1
_symmetry_cell_setting	triclinic
loop_
_symmetry_equiv_pos_as_xyz
  x,y,z
_cell_length_a	13.8296
_cell_length_b	28.1807
_cell_length_c	44.3094
_cell_angle_alpha	90
_cell_angle_beta	90
_cell_angle_gamma	90
loop_
_atom_site_label
_atom_site_type_symbol
_atom_site_fract_x
_atom_site_fract_y
_atom_site_fract_z
_atom_site_charge
Mof_Zn	Zn	0.57046	0.02756	0.93107	1.163
Mof_Zn	Zn	0.37305	0.23135	0.82707	1.163
Mof_Zn	Zn	0.61119	0.20467	0.65793	1.164
Mof_Zn	Zn	0.92954	0.97244	0.43107	1.162
Mof_Zn	Zn	0.12695	0.76865	0.32707	1.163
Mof_Zn	Zn	0.88881	0.79533	0.15793	1.164
Mof_Zn	Zn	0.42954	0.52756	0.56893	1.163
Mof_Zn	Zn	0.62695	0.73135	0.67293	1.163
Mof_Zn	Zn	0.38881	0.70467	0.84207	1.165
Mof_Zn	Zn	0.07046	0.47244	0.06893	1.164
Mof_Zn	Zn	0.87305	0.26865	0.17293	1.164
Mof_Zn	Zn	0.11119	0.29533	0.34207	1.165
Mof_H 	H 	0.7982	0.2228	0.6887	-0.016
Mof_H 	H 	0.8808	0.2004	0.731	0.095
Mof_H 	H 	0.5514	0.1791	0.7224	0.001
Mof_H 	H 	0.6272	0.1606	0.7685	0.08
Mof_H 	H 	0.5424	0.0664	0.8703	-0.022
Mof_H 	H 	0.6255	0.1023	0.8322	0.093
Mof_H 	H 	0.7795	0.0622	0.9198	-0.016
Mof_H 	H 	0.8645	0.1011	0.8821	0.097
Mof_H 	H 	0.2291	0.1732	0.8622	0.005
Mof_H 	H 	0.0637	0.1516	0.8569	0.09
Mof_H 	H 	0.2296	0.2181	0.777	-0.004
Mof_H 	H 	0.0734	0.1934	0.7689	0.086
Mof_H 	H 	0.8632	0.162	0.1862	-0.008
Mof_H 	H 	0.8415	0.0933	0.1601	0.082
Mof_H 	H 	0.8078	0.2348	0.1127	-0.015
Mof_H 	H 	0.7804	0.1668	0.0854	0.087
Mof_H 	H 	0.6127	0.1003	0.979	-0.006
Mof_H 	H 	0.7023	0.1082	0.0232	0.08
Mof_H 	H 	0.678	0.9648	0.9728	0.001
Mof_H 	H 	0.7527	0.9681	0.0209	0.083
Mof_H 	H 	0.8011	0.838	0.1022	-0.01
Mof_H 	H 	0.7881	0.9114	0.0796	0.086
Mof_H 	H 	0.8708	0.8991	0.1788	-0.013
Mof_H 	H 	0.8496	0.9726	0.1578	0.083
Mof_H 	H 	0.7018	0.7772	0.1887	-0.015
Mof_H 	H 	0.6192	0.7996	0.231	0.095
Mof_H 	H 	0.9486	0.8209	0.2224	0.001
Mof_H 	H 	0.8728	0.8394	0.2685	0.08
Mof_H 	H 	0.9576	0.9336	0.3703	-0.023
Mof_H 	H 	0.8745	0.8977	0.3322	0.093
Mof_H 	H 	0.7205	0.9378	0.4198	-0.016
Mof_H 	H 	0.6355	0.8989	0.3821	0.096
Mof_H 	H 	0.2709	0.8268	0.3622	0.005
Mof_H 	H 	0.4363	0.8484	0.3569	0.09
Mof_H 	H 	0.2704	0.7819	0.277	-0.004
Mof_H 	H 	0.4266	0.8066	0.2689	0.086
Mof_H 	H 	0.6368	0.838	0.6862	-0.008
Mof_H 	H 	0.6585	0.9067	0.6601	0.082
Mof_H 	H 	0.6922	0.7652	0.6127	-0.015
Mof_H 	H 	0.7196	0.8332	0.5854	0.087
Mof_H 	H 	0.8873	0.8997	0.479	-0.007
Mof_H 	H 	0.7977	0.8918	0.5232	0.079
Mof_H 	H 	0.822	0.0352	0.4728	0.001
Mof_H 	H 	0.7473	0.0319	0.5209	0.082
Mof_H 	H 	0.6989	0.162	0.6022	-0.01
Mof_H 	H 	0.7119	0.0886	0.5796	0.085
Mof_H 	H 	0.6292	0.1009	0.6788	-0.013
Mof_H 	H 	0.6504	0.0274	0.6578	0.083
Mof_H 	H 	0.2018	0.7228	0.8113	-0.016
Mof_H 	H 	0.1192	0.7004	0.769	0.095
Mof_H 	H 	0.4486	0.6791	0.7776	0.001
Mof_H 	H 	0.3728	0.6606	0.7315	0.08
Mof_H 	H 	0.4576	0.5664	0.6297	-0.022
Mof_H 	H 	0.3745	0.6023	0.6678	0.093
Mof_H 	H 	0.2205	0.5622	0.5802	-0.016
Mof_H 	H 	0.1355	0.6011	0.6179	0.097
Mof_H 	H 	0.7709	0.6732	0.6378	0.005
Mof_H 	H 	0.9363	0.6516	0.6431	0.09
Mof_H 	H 	0.7704	0.7181	0.723	-0.004
Mof_H 	H 	0.9266	0.6934	0.7311	0.086
Mof_H 	H 	0.1368	0.662	0.3138	-0.008
Mof_H 	H 	0.1585	0.5933	0.3399	0.082
Mof_H 	H 	0.1922	0.7348	0.3873	-0.015
Mof_H 	H 	0.2196	0.6668	0.4146	0.087
Mof_H 	H 	0.3873	0.6003	0.521	-0.006
Mof_H 	H 	0.2977	0.6082	0.4768	0.079
Mof_H 	H 	0.322	0.4648	0.5272	0.001
Mof_H 	H 	0.2473	0.4681	0.4791	0.083
Mof_H 	H 	0.1989	0.338	0.3978	-0.01
Mof_H 	H 	0.2119	0.4114	0.4204	0.086
Mof_H 	H 	0.1292	0.3991	0.3212	-0.013
Mof_H 	H 	0.1504	0.4726	0.3422	0.083
Mof_H 	H 	0.2982	0.2772	0.3113	-0.015
Mof_H 	H 	0.3808	0.2996	0.269	0.095
Mof_H 	H 	0.0514	0.3209	0.2776	0.001
Mof_H 	H 	0.1272	0.3394	0.2315	0.08
Mof_H 	H 	0.0424	0.4336	0.1297	-0.022
Mof_H 	H 	0.1255	0.3977	0.1678	0.093
Mof_H 	H 	0.2795	0.4378	0.0802	-0.016
Mof_H 	H 	0.3645	0.3989	0.1179	0.096
Mof_H 	H 	0.7291	0.3268	0.1378	0.005
Mof_H 	H 	0.5637	0.3484	0.1431	0.09
Mof_H 	H 	0.7296	0.2819	0.223	-0.004
Mof_H 	H 	0.5734	0.3066	0.2311	0.086
Mof_H 	H 	0.3632	0.338	0.8138	-0.008
Mof_H 	H 	0.3415	0.4067	0.8399	0.082
Mof_H 	H 	0.3078	0.2652	0.8873	-0.015
Mof_H 	H 	0.2804	0.3332	0.9146	0.087
Mof_H 	H 	0.1127	0.3997	0.021	-0.007
Mof_H 	H 	0.2023	0.3918	0.9768	0.079
Mof_H 	H 	0.178	0.5352	0.0272	0.001
Mof_H 	H 	0.2527	0.5319	0.9791	0.082
Mof_H 	H 	0.3011	0.662	0.8978	-0.01
Mof_H 	H 	0.2881	0.5886	0.9204	0.085
Mof_H 	H 	0.3708	0.6009	0.8212	-0.013
Mof_H 	H 	0.3496	0.5274	0.8422	0.083
Mof_C 	C 	0.7642	0.2085	0.7043	0.077
Mof_C 	C 	0.8141	0.1964	0.7298	-0.132
Mof_C 	C 	0.6177	0.1835	0.7244	0.055
Mof_C 	C 	0.6629	0.1719	0.7522	-0.116
Mof_C 	C 	0.7608	0.1778	0.7542	0.057
Mof_C 	C 	0.8106	0.163	0.7816	0.091
Mof_C 	C 	0.6077	0.0732	0.8728	0.095
Mof_C 	C 	0.6574	0.094	0.8499	-0.142
Mof_C 	C 	0.7483	0.0712	0.9021	0.078
Mof_C 	C 	0.7999	0.0931	0.8793	-0.143
Mof_C 	C 	0.7548	0.1028	0.8528	0.086
Mof_C 	C 	0.8105	0.1262	0.8272	0.094
Mof_C 	C 	0.1963	0.1783	0.8442	0.043
Mof_C 	C 	0.097	0.1646	0.8407	-0.108
Mof_C 	C 	0.1957	0.2044	0.7929	0.066
Mof_C 	C 	0.1023	0.1904	0.7878	-0.117
Mof_C 	C 	0.0508	0.1707	0.8136	0.042
Mof_C 	C 	0.946	0.1591	0.8088	0.092
Mof_C 	C 	0.848	0.1631	0.1657	0.065
Mof_C 	C 	0.8353	0.122	0.1499	-0.119
Mof_C 	C 	0.8147	0.2057	0.1223	0.084
Mof_C 	C 	0.7995	0.165	0.1055	-0.126
Mof_C 	C 	0.8138	0.1209	0.1197	0.058
Mof_C 	C 	0.7972	0.0768	0.1027	0.102
Mof_C 	C 	0.6456	0.0743	0.9867	0.051
Mof_C 	C 	0.6928	0.0786	0.0144	-0.11
Mof_C 	C 	0.6815	0.9934	0.9831	0.057
Mof_C 	C 	0.725	0.9952	0.0127	-0.109
Mof_C 	C 	0.7256	0.0372	0.0287	0.047
Mof_C 	C 	0.7589	0.0374	0.0602	0.101
Mof_C 	C 	0.8153	0.8651	0.1133	0.061
Mof_C 	C 	0.8024	0.9094	0.1	-0.125
Mof_C 	C 	0.855	0.9013	0.1585	0.069
Mof_C 	C 	0.8399	0.9456	0.1461	-0.129
Mof_C 	C 	0.8106	0.95	0.1168	0.06
Mof_C 	C 	0.7987	0.9969	0.1017	0.103
Mof_C 	C 	0.7358	0.7915	0.2043	0.077
Mof_C 	C 	0.6859	0.8036	0.2298	-0.132
Mof_C 	C 	0.8823	0.8165	0.2244	0.055
Mof_C 	C 	0.8371	0.8281	0.2522	-0.116
Mof_C 	C 	0.7392	0.8222	0.2542	0.057
Mof_C 	C 	0.6894	0.837	0.2816	0.091
Mof_C 	C 	0.8923	0.9268	0.3728	0.094
Mof_C 	C 	0.8426	0.906	0.3499	-0.142
Mof_C 	C 	0.7517	0.9288	0.4021	0.078
Mof_C 	C 	0.7001	0.9069	0.3793	-0.143
Mof_C 	C 	0.7452	0.8972	0.3528	0.086
Mof_C 	C 	0.6895	0.8738	0.3272	0.094
Mof_C 	C 	0.3037	0.8217	0.3442	0.043
Mof_C 	C 	0.403	0.8354	0.3407	-0.109
Mof_C 	C 	0.3043	0.7956	0.2929	0.066
Mof_C 	C 	0.3977	0.8096	0.2878	-0.117
Mof_C 	C 	0.4492	0.8293	0.3136	0.043
Mof_C 	C 	0.554	0.8409	0.3088	0.091
Mof_C 	C 	0.652	0.8369	0.6657	0.065
Mof_C 	C 	0.6647	0.878	0.6499	-0.119
Mof_C 	C 	0.6853	0.7943	0.6223	0.084
Mof_C 	C 	0.7005	0.835	0.6055	-0.126
Mof_C 	C 	0.6862	0.8791	0.6197	0.058
Mof_C 	C 	0.7028	0.9232	0.6027	0.101
Mof_C 	C 	0.8544	0.9257	0.4867	0.051
Mof_C 	C 	0.8072	0.9214	0.5144	-0.11
Mof_C 	C 	0.8185	0.0066	0.4831	0.057
Mof_C 	C 	0.775	0.0048	0.5127	-0.108
Mof_C 	C 	0.7744	0.9628	0.5287	0.046
Mof_C 	C 	0.7411	0.9626	0.5602	0.1
Mof_C 	C 	0.6847	0.1349	0.6133	0.061
Mof_C 	C 	0.6976	0.0906	0.6	-0.125
Mof_C 	C 	0.645	0.0987	0.6585	0.068
Mof_C 	C 	0.6601	0.0544	0.6461	-0.129
Mof_C 	C 	0.6894	0.05	0.6168	0.06
Mof_C 	C 	0.7013	0.0031	0.6017	0.104
Mof_C 	C 	0.2358	0.7085	0.7957	0.077
Mof_C 	C 	0.1859	0.6964	0.7702	-0.132
Mof_C 	C 	0.3823	0.6835	0.7756	0.055
Mof_C 	C 	0.3371	0.6719	0.7478	-0.116
Mof_C 	C 	0.2392	0.6778	0.7458	0.057
Mof_C 	C 	0.1894	0.663	0.7184	0.091
Mof_C 	C 	0.3923	0.5732	0.6272	0.094
Mof_C 	C 	0.3426	0.594	0.6501	-0.142
Mof_C 	C 	0.2517	0.5712	0.5979	0.078
Mof_C 	C 	0.2001	0.5931	0.6207	-0.143
Mof_C 	C 	0.2452	0.6028	0.6472	0.086
Mof_C 	C 	0.1895	0.6262	0.6728	0.094
Mof_C 	C 	0.8037	0.6783	0.6558	0.043
Mof_C 	C 	0.903	0.6646	0.6593	-0.108
Mof_C 	C 	0.8043	0.7044	0.7071	0.066
Mof_C 	C 	0.8977	0.6904	0.7122	-0.117
Mof_C 	C 	0.9492	0.6707	0.6864	0.042
Mof_C 	C 	0.054	0.6591	0.6912	0.092
Mof_C 	C 	0.152	0.6631	0.3343	0.065
Mof_C 	C 	0.1647	0.622	0.3501	-0.119
Mof_C 	C 	0.1853	0.7057	0.3777	0.084
Mof_C 	C 	0.2005	0.665	0.3945	-0.126
Mof_C 	C 	0.1862	0.6209	0.3803	0.058
Mof_C 	C 	0.2028	0.5768	0.3973	0.102
Mof_C 	C 	0.3544	0.5743	0.5133	0.051
Mof_C 	C 	0.3072	0.5786	0.4856	-0.11
Mof_C 	C 	0.3185	0.4934	0.5169	0.056
Mof_C 	C 	0.275	0.4952	0.4873	-0.109
Mof_C 	C 	0.2744	0.5372	0.4713	0.047
Mof_C 	C 	0.2411	0.5374	0.4398	0.1
Mof_C 	C 	0.1847	0.3651	0.3867	0.061
Mof_C 	C 	0.1976	0.4094	0.4	-0.125
Mof_C 	C 	0.145	0.4013	0.3415	0.069
Mof_C 	C 	0.1601	0.4456	0.3539	-0.129
Mof_C 	C 	0.1894	0.45	0.3832	0.06
Mof_C 	C 	0.2013	0.4969	0.3983	0.103
Mof_C 	C 	0.2642	0.2915	0.2957	0.077
Mof_C 	C 	0.3141	0.3036	0.2702	-0.132
Mof_C 	C 	0.1177	0.3165	0.2756	0.055
Mof_C 	C 	0.1629	0.3281	0.2478	-0.116
Mof_C 	C 	0.2608	0.3222	0.2458	0.057
Mof_C 	C 	0.3106	0.337	0.2184	0.091
Mof_C 	C 	0.1077	0.4268	0.1272	0.094
Mof_C 	C 	0.1574	0.406	0.1501	-0.142
Mof_C 	C 	0.2483	0.4288	0.0979	0.078
Mof_C 	C 	0.2999	0.4069	0.1207	-0.143
Mof_C 	C 	0.2548	0.3972	0.1472	0.086
Mof_C 	C 	0.3105	0.3738	0.1728	0.094
Mof_C 	C 	0.6963	0.3217	0.1558	0.043
Mof_C 	C 	0.597	0.3354	0.1593	-0.109
Mof_C 	C 	0.6957	0.2956	0.2071	0.066
Mof_C 	C 	0.6023	0.3096	0.2122	-0.117
Mof_C 	C 	0.5508	0.3293	0.1864	0.043
Mof_C 	C 	0.446	0.3409	0.1912	0.091
Mof_C 	C 	0.348	0.3369	0.8343	0.065
Mof_C 	C 	0.3353	0.378	0.8501	-0.119
Mof_C 	C 	0.3147	0.2943	0.8777	0.084
Mof_C 	C 	0.2995	0.335	0.8945	-0.126
Mof_C 	C 	0.3138	0.3791	0.8803	0.058
Mof_C 	C 	0.2972	0.4232	0.8973	0.101
Mof_C 	C 	0.1456	0.4257	0.0133	0.051
Mof_C 	C 	0.1928	0.4214	0.9856	-0.11
Mof_C 	C 	0.1815	0.5066	0.0169	0.056
Mof_C 	C 	0.225	0.5048	0.9873	-0.109
Mof_C 	C 	0.2256	0.4628	0.9713	0.047
Mof_C 	C 	0.2589	0.4626	0.9398	0.1
Mof_C 	C 	0.3153	0.6349	0.8867	0.061
Mof_C 	C 	0.3024	0.5906	0.9	-0.125
Mof_C 	C 	0.355	0.5987	0.8415	0.068
Mof_C 	C 	0.3399	0.5544	0.8539	-0.129
Mof_C 	C 	0.3106	0.55	0.8832	0.06
Mof_C 	C 	0.2987	0.5031	0.8983	0.103
Mof_I 	I 	0.56639	0.94079	0.91446	-0.368
Mof_I 	I 	0.41093	0.0722	0.93703	-0.368
Mof_I 	I 	0.43908	0.25029	0.77458	-0.393
Mof_I 	I 	0.46579	0.18186	0.86497	-0.37
Mof_I 	I 	0.42716	0.20194	0.66158	-0.38
Mof_I 	I 	0.69979	0.26725	0.62747	-0.366
Mof_I 	I 	0.93361	0.05921	0.41446	-0.368
Mof_I 	I 	0.08907	0.9278	0.43703	-0.366
Mof_I 	I 	0.06092	0.74971	0.27458	-0.393
Mof_I 	I 	0.03421	0.81814	0.36497	-0.369
Mof_I 	I 	0.07284	0.79806	0.16158	-0.38
Mof_I 	I 	0.80021	0.73275	0.12747	-0.366
Mof_I 	I 	0.43361	0.44079	0.58554	-0.368
Mof_I 	I 	0.58907	0.5722	0.56297	-0.368
Mof_I 	I 	0.56092	0.75029	0.72542	-0.393
Mof_I 	I 	0.53421	0.68186	0.63503	-0.37
Mof_I 	I 	0.57284	0.70194	0.83842	-0.38
Mof_I 	I 	0.30021	0.76725	0.87253	-0.366
Mof_I 	I 	0.06639	0.55921	0.08554	-0.369
Mof_I 	I 	0.91093	0.4278	0.06297	-0.367
Mof_I 	I 	0.93908	0.24971	0.22542	-0.393
Mof_I 	I 	0.96579	0.31814	0.13503	-0.37
Mof_I 	I 	0.92716	0.29806	0.33842	-0.38
Mof_I 	I 	0.19979	0.23275	0.37253	-0.366
Mof_N 	N 	0.6691	0.2011	0.7004	-0.272
Mof_N 	N 	0.6509	0.0626	0.8987	-0.274
Mof_N 	N 	0.2417	0.1994	0.8198	-0.264
Mof_N 	N 	0.7573	0.1399	0.8027	-0.135
Mof_N 	N 	0.9044	0.1329	0.8313	-0.133
Mof_N 	N 	0.9039	0.174	0.784	-0.144
Mof_N 	N 	0.8383	0.2058	0.1513	-0.269
Mof_N 	N 	0.6465	0.0325	0.9707	-0.269
Mof_N 	N 	0.8477	0.8602	0.142	-0.275
Mof_N 	N 	0.7711	0.0808	0.0741	-0.138
Mof_N 	N 	0.7731	0.9956	0.0727	-0.141
Mof_N 	N 	0.811	0.0358	0.1175	-0.141
Mof_N 	N 	0.8309	0.7989	0.2004	-0.272
Mof_N 	N 	0.8491	0.9374	0.3987	-0.274
Mof_N 	N 	0.2583	0.8006	0.3198	-0.264
Mof_N 	N 	0.7427	0.8601	0.3027	-0.135
Mof_N 	N 	0.5956	0.8671	0.3313	-0.133
Mof_N 	N 	0.5961	0.826	0.284	-0.144
Mof_N 	N 	0.6617	0.7942	0.6513	-0.269
Mof_N 	N 	0.8535	0.9675	0.4707	-0.269
Mof_N 	N 	0.6523	0.1398	0.642	-0.275
Mof_N 	N 	0.7289	0.9192	0.5741	-0.138
Mof_N 	N 	0.7269	0.0044	0.5727	-0.141
Mof_N 	N 	0.689	0.9642	0.6175	-0.141
Mof_N 	N 	0.3309	0.7011	0.7996	-0.272
Mof_N 	N 	0.3491	0.5626	0.6013	-0.274
Mof_N 	N 	0.7583	0.6994	0.6802	-0.264
Mof_N 	N 	0.2427	0.6399	0.6973	-0.135
Mof_N 	N 	0.0956	0.6329	0.6687	-0.133
Mof_N 	N 	0.0961	0.674	0.716	-0.144
Mof_N 	N 	0.1617	0.7058	0.3487	-0.269
Mof_N 	N 	0.3535	0.5325	0.5293	-0.269
Mof_N 	N 	0.1523	0.3602	0.358	-0.275
Mof_N 	N 	0.2289	0.5808	0.4259	-0.138
Mof_N 	N 	0.2269	0.4956	0.4273	-0.141
Mof_N 	N 	0.189	0.5358	0.3825	-0.141
Mof_N 	N 	0.1691	0.2989	0.2996	-0.272
Mof_N 	N 	0.1509	0.4374	0.1013	-0.274
Mof_N 	N 	0.7417	0.3006	0.1802	-0.264
Mof_N 	N 	0.2573	0.3601	0.1973	-0.135
Mof_N 	N 	0.4044	0.3671	0.1687	-0.133
Mof_N 	N 	0.4039	0.326	0.216	-0.144
Mof_N 	N 	0.3383	0.2942	0.8487	-0.269
Mof_N 	N 	0.1465	0.4675	0.0293	-0.269
Mof_N 	N 	0.3477	0.6398	0.858	-0.275
Mof_N 	N 	0.2711	0.4192	0.9259	-0.138
Mof_N 	N 	0.2731	0.5044	0.9273	-0.141
Mof_N 	N 	0.311	0.4642	0.8825	-0.141
Mof_Zn	Zn	0.56117	0.49721	0.06972	1.163
Mof_Zn	Zn	0.88741	0.3029	0.83274	1.163
Mof_Zn	Zn	0.86713	0.77923	0.84775	1.163
Mof_Zn	Zn	0.93883	0.50279	0.56972	1.163
Mof_Zn	Zn	0.61259	0.6971	0.33274	1.162
Mof_Zn	Zn	0.63287	0.22077	0.34775	1.163
Mof_Zn	Zn	0.43883	0.99721	0.43028	1.163
Mof_Zn	Zn	0.11259	0.8029	0.66726	1.163
Mof_Zn	Zn	0.13287	0.27923	0.65225	1.163
Mof_Zn	Zn	0.06117	0.00279	0.93028	1.163
Mof_Zn	Zn	0.38741	0.1971	0.16726	1.162
Mof_Zn	Zn	0.36713	0.72077	0.15225	1.163
Mof_H 	H 	0.8274	0.3392	0.8918	-0.024
Mof_H 	H 	0.7859	0.406	0.9158	0.091
Mof_H 	H 	0.871	0.4082	0.8175	-0.021
Mof_H 	H 	0.8417	0.4802	0.8415	0.087
Mof_H 	H 	0.8713	0.6767	0.8275	-0.009
Mof_H 	H 	0.849	0.6002	0.8481	0.081
Mof_H 	H 	0.792	0.7347	0.9028	-0.02
Mof_H 	H 	0.7622	0.6625	0.9245	0.087
Mof_H 	H 	0.6156	0.5788	0.0285	-0.014
Mof_H 	H 	0.6841	0.5906	0.9842	0.093
Mof_H 	H 	0.6925	0.4456	0.0252	-0.011
Mof_H 	H 	0.7527	0.4557	0.9782	0.098
Mof_H 	H 	0.7664	0.5149	0.0847	-0.02
Mof_H 	H 	0.862	0.5524	0.1204	0.09
Mof_H 	H 	0.5331	0.5714	0.116	-0.018
Mof_H 	H 	0.6183	0.6087	0.1539	0.088
Mof_H 	H 	0.554	0.667	0.27	-0.016
Mof_H 	H 	0.6289	0.6495	0.2249	0.096
Mof_H 	H 	0.7978	0.7225	0.2992	-0.01
Mof_H 	H 	0.8805	0.6986	0.2547	0.099
Mof_H 	H 	0.2397	0.7006	0.2051	-0.014
Mof_H 	H 	0.0796	0.6782	0.2176	0.098
Mof_H 	H 	0.1983	0.6787	0.1201	-0.013
Mof_H 	H 	0.0449	0.6534	0.1277	0.106
Mof_H 	H 	0.6726	0.6608	0.3918	-0.024
Mof_H 	H 	0.7141	0.594	0.4158	0.09
Mof_H 	H 	0.629	0.5918	0.3175	-0.021
Mof_H 	H 	0.6583	0.5198	0.3415	0.087
Mof_H 	H 	0.6287	0.3233	0.3275	-0.009
Mof_H 	H 	0.651	0.3998	0.3481	0.081
Mof_H 	H 	0.708	0.2653	0.4028	-0.021
Mof_H 	H 	0.7378	0.3375	0.4245	0.087
Mof_H 	H 	0.8844	0.4212	0.5285	-0.014
Mof_H 	H 	0.8159	0.4094	0.4842	0.093
Mof_H 	H 	0.8075	0.5544	0.5252	-0.011
Mof_H 	H 	0.7473	0.5443	0.4782	0.097
Mof_H 	H 	0.7336	0.4851	0.5847	-0.02
Mof_H 	H 	0.638	0.4476	0.6204	0.09
Mof_H 	H 	0.9669	0.4286	0.616	-0.019
Mof_H 	H 	0.8817	0.3913	0.6539	0.088
Mof_H 	H 	0.946	0.333	0.77	-0.016
Mof_H 	H 	0.8711	0.3505	0.7249	0.096
Mof_H 	H 	0.7022	0.2775	0.7992	-0.01
Mof_H 	H 	0.6195	0.3014	0.7547	0.099
Mof_H 	H 	0.2603	0.2994	0.7051	-0.014
Mof_H 	H 	0.4204	0.3218	0.7176	0.098
Mof_H 	H 	0.3017	0.3213	0.6201	-0.013
Mof_H 	H 	0.4551	0.3466	0.6277	0.106
Mof_H 	H 	0.1726	0.8392	0.6082	-0.024
Mof_H 	H 	0.2141	0.906	0.5842	0.091
Mof_H 	H 	0.129	0.9082	0.6825	-0.021
Mof_H 	H 	0.1583	0.9802	0.6585	0.087
Mof_H 	H 	0.1287	0.1767	0.6725	-0.009
Mof_H 	H 	0.151	0.1002	0.6519	0.081
Mof_H 	H 	0.208	0.2347	0.5972	-0.02
Mof_H 	H 	0.2378	0.1625	0.5755	0.087
Mof_H 	H 	0.3844	0.0788	0.4715	-0.014
Mof_H 	H 	0.3159	0.0906	0.5158	0.093
Mof_H 	H 	0.3075	0.9456	0.4748	-0.011
Mof_H 	H 	0.2473	0.9557	0.5218	0.098
Mof_H 	H 	0.2336	0.0149	0.4153	-0.02
Mof_H 	H 	0.138	0.0524	0.3796	0.09
Mof_H 	H 	0.4669	0.0714	0.384	-0.018
Mof_H 	H 	0.3817	0.1087	0.3461	0.088
Mof_H 	H 	0.446	0.167	0.23	-0.016
Mof_H 	H 	0.3711	0.1495	0.2751	0.096
Mof_H 	H 	0.2022	0.2225	0.2008	-0.01
Mof_H 	H 	0.1195	0.1986	0.2453	0.099
Mof_H 	H 	0.7603	0.2006	0.2949	-0.014
Mof_H 	H 	0.9204	0.1782	0.2824	0.098
Mof_H 	H 	0.8017	0.1787	0.3799	-0.013
Mof_H 	H 	0.9551	0.1534	0.3723	0.106
Mof_H 	H 	0.3274	0.1608	0.1082	-0.024
Mof_H 	H 	0.2859	0.094	0.0842	0.09
Mof_H 	H 	0.371	0.0918	0.1825	-0.021
Mof_H 	H 	0.3417	0.0198	0.1585	0.087
Mof_H 	H 	0.3713	0.8233	0.1725	-0.009
Mof_H 	H 	0.349	0.8998	0.1519	0.081
Mof_H 	H 	0.292	0.7653	0.0972	-0.021
Mof_H 	H 	0.2622	0.8375	0.0755	0.087
Mof_H 	H 	0.1156	0.9212	0.9715	-0.014
Mof_H 	H 	0.1841	0.9094	0.0158	0.093
Mof_H 	H 	0.1925	0.0544	0.9748	-0.011
Mof_H 	H 	0.2527	0.0443	0.0218	0.098
Mof_H 	H 	0.2664	0.9851	0.9153	-0.02
Mof_H 	H 	0.362	0.9476	0.8796	0.09
Mof_H 	H 	0.0331	0.9286	0.884	-0.019
Mof_H 	H 	0.1183	0.8913	0.8461	0.088
Mof_H 	H 	0.054	0.833	0.73	-0.016
Mof_H 	H 	0.1289	0.8505	0.7751	0.096
Mof_H 	H 	0.2978	0.7775	0.7008	-0.01
Mof_H 	H 	0.3805	0.8014	0.7453	0.099
Mof_H 	H 	0.7397	0.7994	0.7949	-0.014
Mof_H 	H 	0.5796	0.8218	0.7824	0.098
Mof_H 	H 	0.6983	0.8213	0.8799	-0.013
Mof_H 	H 	0.5449	0.8466	0.8723	0.106
Mof_C 	C 	0.8269	0.3676	0.8811	0.09
Mof_C 	C 	0.8061	0.4077	0.8958	-0.144
Mof_C 	C 	0.854	0.4081	0.8378	0.082
Mof_C 	C 	0.8371	0.452	0.8522	-0.139
Mof_C 	C 	0.814	0.4523	0.8819	0.068
Mof_C 	C 	0.7971	0.4969	0.9001	0.105
Mof_C 	C 	0.8491	0.6735	0.8472	0.064
Mof_C 	C 	0.8354	0.6269	0.8596	-0.114
Mof_C 	C 	0.8018	0.7075	0.8913	0.092
Mof_C 	C 	0.7849	0.6638	0.9047	-0.129
Mof_C 	C 	0.8015	0.6221	0.889	0.056
Mof_C 	C 	0.7962	0.5749	0.9027	0.107
Mof_C 	C 	0.6432	0.5533	0.0183	0.085
Mof_C 	C 	0.6824	0.56	0.992	-0.151
Mof_C 	C 	0.6866	0.4753	0.0162	0.099
Mof_C 	C 	0.7247	0.4813	0.9881	-0.16
Mof_C 	C 	0.7222	0.5231	0.975	0.081
Mof_C 	C 	0.757	0.5306	0.9431	0.102
Mof_C 	C 	0.7373	0.5336	0.0995	0.085
Mof_C 	C 	0.7954	0.5571	0.12	-0.138
Mof_C 	C 	0.5992	0.5663	0.1178	0.094
Mof_C 	C 	0.6509	0.5906	0.1396	-0.139
Mof_C 	C 	0.75	0.5882	0.1403	0.075
Mof_C 	C 	0.8069	0.6164	0.1642	0.108
Mof_C 	C 	0.6194	0.6736	0.2675	0.093
Mof_C 	C 	0.6646	0.6625	0.2406	-0.146
Mof_C 	C 	0.765	0.7054	0.2845	0.058
Mof_C 	C 	0.8151	0.6923	0.2576	-0.139
Mof_C 	C 	0.7619	0.6704	0.237	0.077
Mof_C 	C 	0.812	0.6532	0.2082	0.098
Mof_C 	C 	0.1987	0.6914	0.1895	0.091
Mof_C 	C 	0.1023	0.6774	0.1978	-0.135
Mof_C 	C 	0.1745	0.6781	0.1398	0.088
Mof_C 	C 	0.0822	0.6631	0.144	-0.147
Mof_C 	C 	0.0444	0.6622	0.1728	0.062
Mof_C 	C 	0.9467	0.649	0.1786	0.081
Mof_C 	C 	0.6731	0.6324	0.3811	0.09
Mof_C 	C 	0.6939	0.5923	0.3958	-0.144
Mof_C 	C 	0.646	0.5919	0.3378	0.082
Mof_C 	C 	0.6629	0.548	0.3522	-0.139
Mof_C 	C 	0.686	0.5477	0.3819	0.068
Mof_C 	C 	0.7029	0.5031	0.4001	0.105
Mof_C 	C 	0.6509	0.3265	0.3472	0.064
Mof_C 	C 	0.6646	0.3731	0.3596	-0.114
Mof_C 	C 	0.6982	0.2925	0.3913	0.092
Mof_C 	C 	0.7151	0.3362	0.4047	-0.129
Mof_C 	C 	0.6985	0.3779	0.389	0.056
Mof_C 	C 	0.7038	0.4251	0.4027	0.106
Mof_C 	C 	0.8568	0.4467	0.5183	0.085
Mof_C 	C 	0.8176	0.44	0.492	-0.151
Mof_C 	C 	0.8134	0.5247	0.5162	0.099
Mof_C 	C 	0.7753	0.5187	0.4881	-0.16
Mof_C 	C 	0.7778	0.4769	0.475	0.081
Mof_C 	C 	0.743	0.4694	0.4431	0.102
Mof_C 	C 	0.7627	0.4664	0.5995	0.085
Mof_C 	C 	0.7046	0.4429	0.62	-0.138
Mof_C 	C 	0.9008	0.4337	0.6178	0.094
Mof_C 	C 	0.8491	0.4094	0.6396	-0.139
Mof_C 	C 	0.75	0.4118	0.6403	0.074
Mof_C 	C 	0.6931	0.3836	0.6642	0.108
Mof_C 	C 	0.8806	0.3264	0.7675	0.093
Mof_C 	C 	0.8354	0.3375	0.7406	-0.146
Mof_C 	C 	0.735	0.2946	0.7845	0.058
Mof_C 	C 	0.6849	0.3077	0.7576	-0.139
Mof_C 	C 	0.7381	0.3296	0.737	0.077
Mof_C 	C 	0.688	0.3468	0.7082	0.098
Mof_C 	C 	0.3013	0.3086	0.6895	0.092
Mof_C 	C 	0.3977	0.3226	0.6978	-0.135
Mof_C 	C 	0.3255	0.3219	0.6398	0.088
Mof_C 	C 	0.4178	0.3369	0.644	-0.147
Mof_C 	C 	0.4556	0.3378	0.6728	0.063
Mof_C 	C 	0.5533	0.351	0.6786	0.081
Mof_C 	C 	0.1731	0.8676	0.6189	0.09
Mof_C 	C 	0.1939	0.9077	0.6042	-0.144
Mof_C 	C 	0.146	0.9081	0.6622	0.082
Mof_C 	C 	0.1629	0.952	0.6478	-0.139
Mof_C 	C 	0.186	0.9523	0.6181	0.068
Mof_C 	C 	0.2029	0.9969	0.5999	0.106
Mof_C 	C 	0.1509	0.1735	0.6528	0.064
Mof_C 	C 	0.1646	0.1269	0.6404	-0.114
Mof_C 	C 	0.1982	0.2075	0.6087	0.092
Mof_C 	C 	0.2151	0.1638	0.5953	-0.129
Mof_C 	C 	0.1985	0.1221	0.611	0.056
Mof_C 	C 	0.2038	0.0749	0.5973	0.107
Mof_C 	C 	0.3568	0.0533	0.4817	0.085
Mof_C 	C 	0.3176	0.06	0.508	-0.151
Mof_C 	C 	0.3134	0.9753	0.4838	0.099
Mof_C 	C 	0.2753	0.9813	0.5119	-0.16
Mof_C 	C 	0.2778	0.0231	0.525	0.081
Mof_C 	C 	0.243	0.0306	0.5569	0.102
Mof_C 	C 	0.2627	0.0336	0.4005	0.085
Mof_C 	C 	0.2046	0.0571	0.38	-0.138
Mof_C 	C 	0.4008	0.0663	0.3822	0.094
Mof_C 	C 	0.3491	0.0906	0.3604	-0.139
Mof_C 	C 	0.25	0.0882	0.3597	0.075
Mof_C 	C 	0.1931	0.1164	0.3358	0.108
Mof_C 	C 	0.3806	0.1736	0.2325	0.093
Mof_C 	C 	0.3354	0.1625	0.2594	-0.146
Mof_C 	C 	0.235	0.2054	0.2155	0.058
Mof_C 	C 	0.1849	0.1923	0.2424	-0.139
Mof_C 	C 	0.2381	0.1704	0.263	0.077
Mof_C 	C 	0.188	0.1532	0.2918	0.098
Mof_C 	C 	0.8013	0.1914	0.3105	0.092
Mof_C 	C 	0.8977	0.1774	0.3022	-0.135
Mof_C 	C 	0.8255	0.1781	0.3602	0.088
Mof_C 	C 	0.9178	0.1631	0.356	-0.147
Mof_C 	C 	0.9556	0.1622	0.3272	0.063
Mof_C 	C 	0.0533	0.149	0.3214	0.081
Mof_C 	C 	0.3269	0.1324	0.1189	0.09
Mof_C 	C 	0.3061	0.0923	0.1042	-0.144
Mof_C 	C 	0.354	0.0919	0.1622	0.082
Mof_C 	C 	0.3371	0.048	0.1478	-0.139
Mof_C 	C 	0.314	0.0477	0.1181	0.068
Mof_C 	C 	0.2971	0.0031	0.0999	0.105
Mof_C 	C 	0.3491	0.8265	0.1528	0.064
Mof_C 	C 	0.3354	0.8731	0.1404	-0.114
Mof_C 	C 	0.3018	0.7925	0.1087	0.092
Mof_C 	C 	0.2849	0.8362	0.0953	-0.129
Mof_C 	C 	0.3015	0.8779	0.111	0.056
Mof_C 	C 	0.2962	0.9251	0.0973	0.107
Mof_C 	C 	0.1432	0.9467	0.9817	0.085
Mof_C 	C 	0.1824	0.94	0.008	-0.151
Mof_C 	C 	0.1866	0.0247	0.9838	0.098
Mof_C 	C 	0.2247	0.0187	0.0119	-0.16
Mof_C 	C 	0.2222	0.9769	0.025	0.081
Mof_C 	C 	0.257	0.9694	0.0569	0.102
Mof_C 	C 	0.2373	0.9664	0.9005	0.085
Mof_C 	C 	0.2954	0.9429	0.88	-0.138
Mof_C 	C 	0.0992	0.9337	0.8822	0.094
Mof_C 	C 	0.1509	0.9094	0.8604	-0.139
Mof_C 	C 	0.25	0.9118	0.8597	0.075
Mof_C 	C 	0.3069	0.8836	0.8358	0.108
Mof_C 	C 	0.1194	0.8264	0.7325	0.093
Mof_C 	C 	0.1646	0.8375	0.7594	-0.146
Mof_C 	C 	0.265	0.7946	0.7155	0.058
Mof_C 	C 	0.3151	0.8077	0.7424	-0.139
Mof_C 	C 	0.2619	0.8296	0.763	0.077
Mof_C 	C 	0.312	0.8468	0.7918	0.098
Mof_C 	C 	0.6987	0.8086	0.8105	0.092
Mof_C 	C 	0.6023	0.8226	0.8022	-0.135
Mof_C 	C 	0.6745	0.8219	0.8602	0.088
Mof_C 	C 	0.5822	0.8369	0.856	-0.147
Mof_C 	C 	0.5444	0.8378	0.8272	0.063
Mof_C 	C 	0.4467	0.851	0.8214	0.081
Mof_I 	I 	0.56918	0.4085	0.08142	-0.373
Mof_I 	I 	0.39882	0.53788	0.06212	-0.378
Mof_I 	I 	0.07285	0.30682	0.82879	-0.376
Mof_I 	I 	0.80359	0.23811	0.86262	-0.363
Mof_I 	I 	0.95791	0.77144	0.79755	-0.388
Mof_I 	I 	0.93941	0.82253	0.8932	-0.359
Mof_I 	I 	0.93082	0.5915	0.58142	-0.374
Mof_I 	I 	0.10118	0.46212	0.56212	-0.377
Mof_I 	I 	0.42715	0.69318	0.32879	-0.376
Mof_I 	I 	0.69641	0.76189	0.36262	-0.364
Mof_I 	I 	0.54209	0.22856	0.29755	-0.388
Mof_I 	I 	0.56059	0.17747	0.3932	-0.36
Mof_I 	I 	0.43082	0.9085	0.41858	-0.373
Mof_I 	I 	0.60118	0.03788	0.43788	-0.377
Mof_I 	I 	0.92715	0.80682	0.67121	-0.376
Mof_I 	I 	0.19641	0.73811	0.63738	-0.363
Mof_I 	I 	0.04209	0.27144	0.70245	-0.388
Mof_I 	I 	0.06059	0.32253	0.6068	-0.359
Mof_I 	I 	0.06918	0.0915	0.91858	-0.374
Mof_I 	I 	0.89882	0.96212	0.93788	-0.377
Mof_I 	I 	0.57285	0.19318	0.17121	-0.376
Mof_I 	I 	0.30359	0.26189	0.13738	-0.364
Mof_I 	I 	0.45791	0.72856	0.20245	-0.388
Mof_I 	I 	0.43941	0.67747	0.1068	-0.36
Mof_N 	N 	0.8466	0.3666	0.852	-0.282
Mof_N 	N 	0.8305	0.7126	0.8636	-0.272
Mof_N 	N 	0.642	0.5089	0.0313	-0.28
Mof_N 	N 	0.8095	0.5383	0.8858	-0.144
Mof_N 	N 	0.7683	0.5733	0.9319	-0.141
Mof_N 	N 	0.7719	0.4918	0.9279	-0.146
Mof_N 	N 	0.6414	0.5366	0.1001	-0.282
Mof_N 	N 	0.6681	0.6934	0.2893	-0.274
Mof_N 	N 	0.2341	0.6925	0.1623	-0.28
Mof_N 	N 	0.7587	0.631	0.1881	-0.142
Mof_N 	N 	0.9029	0.6649	0.2052	-0.141
Mof_N 	N 	0.8991	0.6228	0.1588	-0.132
Mof_N 	N 	0.6534	0.6334	0.352	-0.283
Mof_N 	N 	0.6695	0.2874	0.3636	-0.272
Mof_N 	N 	0.858	0.4911	0.5313	-0.281
Mof_N 	N 	0.6905	0.4617	0.3858	-0.144
Mof_N 	N 	0.7317	0.4267	0.4319	-0.141
Mof_N 	N 	0.7281	0.5082	0.4279	-0.146
Mof_N 	N 	0.8586	0.4634	0.6001	-0.282
Mof_N 	N 	0.8319	0.3066	0.7893	-0.274
Mof_N 	N 	0.2659	0.3075	0.6623	-0.28
Mof_N 	N 	0.7413	0.369	0.6881	-0.142
Mof_N 	N 	0.5971	0.3351	0.7052	-0.141
Mof_N 	N 	0.6009	0.3772	0.6588	-0.132
Mof_N 	N 	0.1534	0.8666	0.648	-0.282
Mof_N 	N 	0.1695	0.2126	0.6364	-0.272
Mof_N 	N 	0.358	0.0089	0.4687	-0.28
Mof_N 	N 	0.1905	0.0383	0.6142	-0.144
Mof_N 	N 	0.2317	0.0733	0.5681	-0.141
Mof_N 	N 	0.2281	0.9918	0.5721	-0.146
Mof_N 	N 	0.3586	0.0366	0.3999	-0.282
Mof_N 	N 	0.3319	0.1934	0.2107	-0.274
Mof_N 	N 	0.7659	0.1925	0.3377	-0.28
Mof_N 	N 	0.2413	0.131	0.3119	-0.142
Mof_N 	N 	0.0971	0.1649	0.2948	-0.141
Mof_N 	N 	0.1009	0.1228	0.3412	-0.132
Mof_N 	N 	0.3466	0.1334	0.148	-0.283
Mof_N 	N 	0.3305	0.7874	0.1364	-0.272
Mof_N 	N 	0.142	0.9911	0.9687	-0.28
Mof_N 	N 	0.3095	0.9617	0.1142	-0.144
Mof_N 	N 	0.2683	0.9267	0.0681	-0.141
Mof_N 	N 	0.2719	0.0082	0.0721	-0.146
Mof_N 	N 	0.1414	0.9634	0.8999	-0.282
Mof_N 	N 	0.1681	0.8066	0.7107	-0.274
Mof_N 	N 	0.7341	0.8075	0.8377	-0.28
Mof_N 	N 	0.2587	0.869	0.8119	-0.142
Mof_N 	N 	0.4029	0.8351	0.7948	-0.141
Mof_N 	N 	0.3991	0.8772	0.8412	-0.132
_end
