data_functionalizedCrystal
_audit_creation_method	'EQeq! by Chris Wilmer'
_symmetry_space_group_name_H-M	'P1'
_symmetry_Int_Tables_number	1
_symmetry_cell_setting	triclinic
loop_
_symmetry_equiv_pos_as_xyz
  x,y,z
_cell_length_a	14.8233
_cell_length_b	20.5787
_cell_length_c	18.5579
_cell_angle_alpha	90
_cell_angle_beta	104.674
_cell_angle_gamma	90
loop_
_atom_site_label
_atom_site_type_symbol
_atom_site_fract_x
_atom_site_fract_y
_atom_site_fract_z
_atom_site_charge
Mof_Ag	Ag	0.26418	0.41716	0.62746	0.487
Mof_Ag	Ag	0.49324	0.33821	0.38369	0.485
Mof_Ag	Ag	0.87866	0.25746	0.5774	0.543
Mof_Ag	Ag	0.13846	0.18113	0.40039	0.558
Mof_Ag	Ag	0.09534	0.46918	0.301	0.491
Mof_Ag	Ag	0.6319	0.45155	0.87683	0.495
Mof_C 	C 	0.0031	0.186	0.4831	0.31
Mof_C 	C 	0.918	0.1788	0.4141	-0.079
Mof_C 	C 	0.8842	0.2317	0.3771	-0.07
Mof_H 	H 	0.9104	0.2719	0.3932	0.026
Mof_C 	C 	0.8115	0.2283	0.3156	0.011
Mof_H 	H 	0.7905	0.2668	0.2908	0.001
Mof_C 	C 	0.7675	0.1725	0.2882	-0.167
Mof_H 	H 	0.7168	0.1724	0.2466	0.06
Mof_C 	C 	0.8037	0.1118	0.3274	0.136
Mof_C 	C 	0.7657	0.0525	0.3014	-0.372
Mof_H 	H 	0.716	0.0508	0.2592	0.13
Mof_C 	C 	0.7996	0.9972	0.3361	0.313
Mof_C 	C 	0.8707	0.9987	0.4029	-0.298
Mof_H 	H 	0.8907	0.9604	0.4285	0.12
Mof_C 	C 	0.9121	0.059	0.4311	0.057
Mof_H 	H 	0.9594	0.0606	0.4749	0.005
Mof_C 	C 	0.8805	0.1154	0.3919	-0.076
Mof_C 	C 	0.1987	0.4198	0.4533	0.026
Mof_H 	H 	0.1375	0.4237	0.4627	-0.015
Mof_H 	H 	0.2273	0.4626	0.4593	-0.016
Mof_C 	C 	0.145	0.3322	0.3675	0.024
Mof_H 	H 	0.138	0.3171	0.3169	-0.01
Mof_H 	H 	0.0834	0.3347	0.3765	-0.011
Mof_C 	C 	0.2964	0.2822	0.4068	0.026
Mof_H 	H 	0.2913	0.2666	0.3566	-0.015
Mof_H 	H 	0.3343	0.2516	0.4412	-0.01
Mof_C 	C 	0.3497	0.3697	0.4924	0.028
Mof_H 	H 	0.3795	0.412	0.499	-0.012
Mof_H 	H 	0.3885	0.3399	0.5275	-0.008
Mof_C 	C 	0.2838	0.3915	0.3626	0.011
Mof_H 	H 	0.2781	0.3758	0.3123	0.014
Mof_H 	H 	0.3131	0.434	0.3669	0.003
Mof_C 	C 	0.2123	0.3093	0.497	0.018
Mof_H 	H 	0.2497	0.2789	0.5321	-0.003
Mof_H 	H 	0.1511	0.3116	0.5068	0.01
Mof_C 	C 	0.3185	0.5273	0.7512	0.017
Mof_H 	H 	0.263	0.5482	0.7211	0.003
Mof_H 	H 	0.2993	0.4969	0.7843	0.005
Mof_C 	C 	0.4083	0.6222	0.7458	0.012
Mof_H 	H 	0.4483	0.6549	0.7753	0.01
Mof_H 	H 	0.3539	0.6439	0.7152	0.008
Mof_C 	C 	0.5422	0.5553	0.7458	0.015
Mof_H 	H 	0.5769	0.5331	0.7154	0.005
Mof_H 	H 	0.5829	0.5876	0.7755	0.009
Mof_C 	C 	0.4502	0.4592	0.75	0.022
Mof_H 	H 	0.4309	0.4283	0.7827	-0.014
Mof_H 	H 	0.483	0.4356	0.7193	-0.012
Mof_C 	C 	0.3975	0.5386	0.6529	0.028
Mof_H 	H 	0.43	0.5157	0.6213	-0.014
Mof_H 	H 	0.3434	0.5596	0.6209	-0.016
Mof_C 	C 	0.4613	0.5445	0.8418	0.014
Mof_H 	H 	0.4423	0.5147	0.8756	0
Mof_H 	H 	0.5018	0.577	0.8714	0.009
Mof_C 	C 	0.9302	0.3899	0.6591	0.024
Mof_H 	H 	0.9052	0.4057	0.6088	-0.018
Mof_H 	H 	0.8782	0.3811	0.6805	-0.007
Mof_C 	C 	0.028	0.4159	0.7806	0.011
Mof_H 	H 	0.9771	0.4082	0.8037	0.013
Mof_H 	H 	0.0689	0.4483	0.8099	-0.005
Mof_C 	C 	0.0622	0.3435	0.6256	0.018
Mof_H 	H 	0.0395	0.3586	0.5747	0.006
Mof_H 	H 	0.0973	0.3038	0.6246	0.016
Mof_C 	C 	0.1587	0.3685	0.7461	0.025
Mof_H 	H 	0.1945	0.3291	0.7457	-0.014
Mof_H 	H 	0.1996	0.4006	0.7759	-0.015
Mof_C 	C 	0.0178	0.3058	0.7335	0.021
Mof_H 	H 	0.966	0.2969	0.7551	0.001
Mof_H 	H 	0.0518	0.2656	0.7332	-0.006
Mof_C 	C 	0.0697	0.4524	0.6702	0.026
Mof_H 	H 	0.1098	0.4856	0.6986	-0.012
Mof_H 	H 	0.0462	0.4682	0.6197	-0.014
Mof_C 	C 	0.5355	0.2308	0.515	0.018
Mof_H 	H 	0.534	0.2687	0.5457	0.004
Mof_H 	H 	0.4719	0.2159	0.4955	0.006
Mof_C 	C 	0.5775	0.1901	0.4066	0.025
Mof_H 	H 	0.6043	0.2008	0.3655	-0.007
Mof_H 	H 	0.5142	0.1751	0.3859	-0.012
Mof_C 	C 	0.6737	0.2707	0.483	0.023
Mof_H 	H 	0.7016	0.2811	0.4425	-0.008
Mof_H 	H 	0.6741	0.3098	0.5123	-0.017
Mof_C 	C 	0.5921	0.1224	0.5154	0.019
Mof_H 	H 	0.5294	0.1057	0.4967	-0
Mof_H 	H 	0.6292	0.089	0.5462	0.007
Mof_C 	C 	0.6848	0.2031	0.5912	0.014
Mof_H 	H 	0.7209	0.1697	0.6226	0.009
Mof_H 	H 	0.6836	0.2411	0.6218	0.005
Mof_C 	C 	0.7285	0.1616	0.483	0.015
Mof_H 	H 	0.7567	0.1723	0.4427	0.011
Mof_H 	H 	0.7656	0.1276	0.5126	-0.003
Mof_N 	N 	0.2566	0.3746	0.5086	-0.166
Mof_N 	N 	0.1884	0.3975	0.3763	-0.168
Mof_N 	N 	0.3426	0.3467	0.4161	-0.159
Mof_N 	N 	0.2027	0.2852	0.4202	-0.167
Mof_N 	N 	0.3662	0.4912	0.7016	-0.166
Mof_N 	N 	0.3792	0.5763	0.7951	-0.116
Mof_N 	N 	0.4599	0.5886	0.6963	-0.164
Mof_N 	N 	0.5139	0.5081	0.7956	-0.164
Mof_N 	N 	0.9901	0.4406	0.7037	-0.17
Mof_N 	N 	0.9819	0.3291	0.6566	-0.162
Mof_N 	N 	0.1244	0.3928	0.6691	-0.16
Mof_N 	N 	0.0805	0.3547	0.7799	-0.167
Mof_N 	N 	0.5756	0.2491	0.4519	-0.163
Mof_N 	N 	0.6327	0.1372	0.4514	-0.167
Mof_N 	N 	0.7298	0.2199	0.5304	-0.17
Mof_N 	N 	0.5895	0.1798	0.5605	-0.116
Mof_O 	O 	0.0684	0.1469	0.4906	-0.36
Mof_O 	O 	0.0044	0.2326	0.5237	-0.357
Mof_O 	O 	0.7663	0.9395	0.3043	-0.504
Mof_H 	H 	0.7883	0.9096	0.3326	0.243
Mof_Ag	Ag	0.73582	0.91716	0.87254	0.489
Mof_Ag	Ag	0.50676	0.83821	0.11631	0.486
Mof_Ag	Ag	0.12134	0.75746	0.9226	0.541
Mof_Ag	Ag	0.86154	0.68113	0.09961	0.558
Mof_Ag	Ag	0.90466	0.96918	0.199	0.489
Mof_Ag	Ag	0.3681	0.95155	0.62317	0.496
Mof_C 	C 	0.9969	0.686	0.0169	0.306
Mof_C 	C 	0.082	0.6788	0.0859	-0.073
Mof_C 	C 	0.1158	0.7317	0.1229	-0.072
Mof_H 	H 	0.0896	0.7719	0.1068	0.029
Mof_C 	C 	0.1885	0.7283	0.1844	0.015
Mof_H 	H 	0.2095	0.7668	0.2092	0.001
Mof_C 	C 	0.2325	0.6725	0.2118	-0.168
Mof_H 	H 	0.2832	0.6724	0.2534	0.062
Mof_C 	C 	0.1963	0.6118	0.1726	0.138
Mof_C 	C 	0.2343	0.5525	0.1986	-0.374
Mof_H 	H 	0.284	0.5508	0.2408	0.131
Mof_C 	C 	0.2004	0.4972	0.1639	0.314
Mof_C 	C 	0.1293	0.4987	0.0971	-0.298
Mof_H 	H 	0.1093	0.4604	0.0715	0.121
Mof_C 	C 	0.0879	0.559	0.0689	0.058
Mof_H 	H 	0.0406	0.5606	0.0251	0.005
Mof_C 	C 	0.1195	0.6154	0.1081	-0.078
Mof_C 	C 	0.8013	0.9198	0.0467	0.025
Mof_H 	H 	0.8625	0.9237	0.0373	-0.015
Mof_H 	H 	0.7727	0.9626	0.0407	-0.017
Mof_C 	C 	0.855	0.8322	0.1325	0.024
Mof_H 	H 	0.862	0.8171	0.1831	-0.01
Mof_H 	H 	0.9166	0.8347	0.1235	-0.011
Mof_C 	C 	0.7036	0.7822	0.0932	0.025
Mof_H 	H 	0.7087	0.7666	0.1434	-0.015
Mof_H 	H 	0.6657	0.7516	0.0588	-0.01
Mof_C 	C 	0.6503	0.8697	0.0076	0.024
Mof_H 	H 	0.6205	0.912	0.001	-0.011
Mof_H 	H 	0.6115	0.8399	0.9725	-0.006
Mof_C 	C 	0.7162	0.8915	0.1374	0.011
Mof_H 	H 	0.7219	0.8758	0.1877	0.014
Mof_H 	H 	0.6869	0.934	0.1331	0.003
Mof_C 	C 	0.7877	0.8093	0.003	0.01
Mof_H 	H 	0.7503	0.7789	0.9679	0.001
Mof_H 	H 	0.8489	0.8116	0.9932	0.014
Mof_C 	C 	0.6815	0.0273	0.7488	0.017
Mof_H 	H 	0.737	0.0482	0.7789	0.003
Mof_H 	H 	0.7007	0.9969	0.7157	0.005
Mof_C 	C 	0.5917	0.1222	0.7542	0.012
Mof_H 	H 	0.5517	0.1549	0.7247	0.01
Mof_H 	H 	0.6461	0.1439	0.7848	0.008
Mof_C 	C 	0.4578	0.0553	0.7542	0.015
Mof_H 	H 	0.4231	0.0331	0.7846	0.005
Mof_H 	H 	0.4171	0.0876	0.7245	0.009
Mof_C 	C 	0.5498	0.9592	0.75	0.022
Mof_H 	H 	0.5691	0.9283	0.7173	-0.014
Mof_H 	H 	0.517	0.9356	0.7807	-0.012
Mof_C 	C 	0.6025	0.0386	0.8471	0.028
Mof_H 	H 	0.57	0.0157	0.8787	-0.014
Mof_H 	H 	0.6566	0.0596	0.8791	-0.015
Mof_C 	C 	0.5387	0.0445	0.6582	0.014
Mof_H 	H 	0.5577	0.0147	0.6244	0
Mof_H 	H 	0.4982	0.077	0.6286	0.009
Mof_C 	C 	0.0698	0.8899	0.8409	0.024
Mof_H 	H 	0.0948	0.9057	0.8912	-0.018
Mof_H 	H 	0.1218	0.8811	0.8195	-0.006
Mof_C 	C 	0.972	0.9159	0.7194	0.016
Mof_H 	H 	0.0229	0.9082	0.6963	0.011
Mof_H 	H 	0.9311	0.9483	0.6901	-0.006
Mof_C 	C 	0.9378	0.8435	0.8744	0.02
Mof_H 	H 	0.9605	0.8586	0.9253	0.006
Mof_H 	H 	0.9027	0.8038	0.8754	0.015
Mof_C 	C 	0.8413	0.8685	0.7539	0.026
Mof_H 	H 	0.8055	0.8291	0.7543	-0.014
Mof_H 	H 	0.8004	0.9006	0.7241	-0.015
Mof_C 	C 	0.9822	0.8058	0.7665	0.026
Mof_H 	H 	0.034	0.7969	0.7449	-0.002
Mof_H 	H 	0.9482	0.7656	0.7668	-0.007
Mof_C 	C 	0.9303	0.9524	0.8298	0.027
Mof_H 	H 	0.8902	0.9856	0.8014	-0.012
Mof_H 	H 	0.9538	0.9682	0.8803	-0.013
Mof_C 	C 	0.4645	0.7308	0.985	0.019
Mof_H 	H 	0.466	0.7687	0.9543	0.004
Mof_H 	H 	0.5281	0.7159	0.0045	0.006
Mof_C 	C 	0.4225	0.6901	0.0934	0.025
Mof_H 	H 	0.3957	0.7008	0.1345	-0.007
Mof_H 	H 	0.4858	0.6751	0.1141	-0.012
Mof_C 	C 	0.3263	0.7707	0.017	0.024
Mof_H 	H 	0.2984	0.7811	0.0575	-0.008
Mof_H 	H 	0.3259	0.8098	0.9877	-0.017
Mof_C 	C 	0.4079	0.6224	0.9846	0.019
Mof_H 	H 	0.4706	0.6057	0.0033	-0
Mof_H 	H 	0.3708	0.589	0.9538	0.007
Mof_C 	C 	0.3152	0.7031	0.9088	0.015
Mof_H 	H 	0.2791	0.6697	0.8774	0.009
Mof_H 	H 	0.3164	0.7411	0.8782	0.005
Mof_C 	C 	0.2715	0.6616	0.017	0.017
Mof_H 	H 	0.2433	0.6723	0.0573	0.01
Mof_H 	H 	0.2344	0.6276	0.9874	-0.004
Mof_N 	N 	0.7434	0.8746	0.9914	-0.163
Mof_N 	N 	0.8116	0.8975	0.1237	-0.167
Mof_N 	N 	0.6574	0.8467	0.0839	-0.158
Mof_N 	N 	0.7973	0.7852	0.0798	-0.166
Mof_N 	N 	0.6338	0.9912	0.7984	-0.166
Mof_N 	N 	0.6208	0.0763	0.7049	-0.115
Mof_N 	N 	0.5401	0.0886	0.8037	-0.164
Mof_N 	N 	0.4861	0.0081	0.7044	-0.164
Mof_N 	N 	0.0099	0.9406	0.7963	-0.171
Mof_N 	N 	0.0181	0.8291	0.8434	-0.163
Mof_N 	N 	0.8756	0.8928	0.8309	-0.161
Mof_N 	N 	0.9195	0.8547	0.7201	-0.168
Mof_N 	N 	0.4244	0.7491	0.0481	-0.163
Mof_N 	N 	0.3673	0.6372	0.0486	-0.167
Mof_N 	N 	0.2702	0.7199	0.9696	-0.17
Mof_N 	N 	0.4105	0.6798	0.9395	-0.116
Mof_O 	O 	0.9316	0.6469	0.0094	-0.359
Mof_O 	O 	0.9956	0.7326	0.9763	-0.353
Mof_O 	O 	0.2337	0.4395	0.1957	-0.504
Mof_H 	H 	0.2117	0.4096	0.1674	0.244
Mof_Ag	Ag	0.73582	0.58284	0.37254	0.488
Mof_Ag	Ag	0.50676	0.66179	0.61631	0.486
Mof_Ag	Ag	0.12134	0.74254	0.4226	0.544
Mof_Ag	Ag	0.86154	0.81887	0.59961	0.559
Mof_Ag	Ag	0.90466	0.53082	0.699	0.492
Mof_Ag	Ag	0.3681	0.54845	0.12317	0.496
Mof_C 	C 	0.9969	0.814	0.5169	0.311
Mof_C 	C 	0.082	0.8212	0.5859	-0.078
Mof_C 	C 	0.1158	0.7683	0.6229	-0.069
Mof_H 	H 	0.0896	0.7281	0.6068	0.027
Mof_C 	C 	0.1885	0.7717	0.6844	0.012
Mof_H 	H 	0.2095	0.7332	0.7092	0.002
Mof_C 	C 	0.2325	0.8275	0.7118	-0.166
Mof_H 	H 	0.2832	0.8276	0.7534	0.061
Mof_C 	C 	0.1963	0.8882	0.6726	0.136
Mof_C 	C 	0.2343	0.9475	0.6986	-0.372
Mof_H 	H 	0.284	0.9492	0.7408	0.13
Mof_C 	C 	0.2004	0.0028	0.6639	0.313
Mof_C 	C 	0.1293	0.0013	0.5971	-0.298
Mof_H 	H 	0.1093	0.0396	0.5715	0.12
Mof_C 	C 	0.0879	0.941	0.5689	0.057
Mof_H 	H 	0.0406	0.9394	0.5251	0.005
Mof_C 	C 	0.1195	0.8846	0.6081	-0.076
Mof_C 	C 	0.8013	0.5802	0.5467	0.026
Mof_H 	H 	0.8625	0.5763	0.5373	-0.015
Mof_H 	H 	0.7727	0.5374	0.5407	-0.016
Mof_C 	C 	0.855	0.6678	0.6325	0.024
Mof_H 	H 	0.862	0.6829	0.6831	-0.01
Mof_H 	H 	0.9166	0.6653	0.6235	-0.011
Mof_C 	C 	0.7036	0.7178	0.5932	0.026
Mof_H 	H 	0.7087	0.7334	0.6434	-0.015
Mof_H 	H 	0.6657	0.7484	0.5588	-0.01
Mof_C 	C 	0.6503	0.6303	0.5076	0.028
Mof_H 	H 	0.6205	0.588	0.501	-0.012
Mof_H 	H 	0.6115	0.6601	0.4725	-0.008
Mof_C 	C 	0.7162	0.6085	0.6374	0.011
Mof_H 	H 	0.7219	0.6242	0.6877	0.014
Mof_H 	H 	0.6869	0.566	0.6331	0.003
Mof_C 	C 	0.7877	0.6907	0.503	0.018
Mof_H 	H 	0.7503	0.7211	0.4679	-0.003
Mof_H 	H 	0.8489	0.6884	0.4932	0.01
Mof_C 	C 	0.6815	0.4727	0.2488	0.017
Mof_H 	H 	0.737	0.4518	0.2789	0.003
Mof_H 	H 	0.7007	0.5031	0.2157	0.005
Mof_C 	C 	0.5917	0.3778	0.2542	0.012
Mof_H 	H 	0.5517	0.3451	0.2247	0.01
Mof_H 	H 	0.6461	0.3561	0.2848	0.008
Mof_C 	C 	0.4578	0.4447	0.2542	0.015
Mof_H 	H 	0.4231	0.4669	0.2846	0.005
Mof_H 	H 	0.4171	0.4124	0.2245	0.009
Mof_C 	C 	0.5498	0.5408	0.25	0.022
Mof_H 	H 	0.5691	0.5717	0.2173	-0.014
Mof_H 	H 	0.517	0.5644	0.2807	-0.012
Mof_C 	C 	0.6025	0.4614	0.3471	0.028
Mof_H 	H 	0.57	0.4843	0.3787	-0.014
Mof_H 	H 	0.6566	0.4404	0.3791	-0.016
Mof_C 	C 	0.5387	0.4555	0.1582	0.014
Mof_H 	H 	0.5577	0.4853	0.1244	0
Mof_H 	H 	0.4982	0.423	0.1286	0.009
Mof_C 	C 	0.0698	0.6101	0.3409	0.024
Mof_H 	H 	0.0948	0.5943	0.3912	-0.018
Mof_H 	H 	0.1218	0.6189	0.3195	-0.007
Mof_C 	C 	0.972	0.5841	0.2194	0.011
Mof_H 	H 	0.0229	0.5918	0.1963	0.013
Mof_H 	H 	0.9311	0.5517	0.1901	-0.005
Mof_C 	C 	0.9378	0.6565	0.3744	0.018
Mof_H 	H 	0.9605	0.6414	0.4253	0.006
Mof_H 	H 	0.9027	0.6962	0.3754	0.016
Mof_C 	C 	0.8413	0.6315	0.2539	0.025
Mof_H 	H 	0.8055	0.6709	0.2543	-0.014
Mof_H 	H 	0.8004	0.5994	0.2241	-0.015
Mof_C 	C 	0.9822	0.6942	0.2665	0.021
Mof_H 	H 	0.034	0.7031	0.2449	0.001
Mof_H 	H 	0.9482	0.7344	0.2668	-0.006
Mof_C 	C 	0.9303	0.5476	0.3298	0.026
Mof_H 	H 	0.8902	0.5144	0.3014	-0.012
Mof_H 	H 	0.9538	0.5318	0.3803	-0.014
Mof_C 	C 	0.4645	0.7692	0.485	0.018
Mof_H 	H 	0.466	0.7313	0.4543	0.004
Mof_H 	H 	0.5281	0.7841	0.5045	0.006
Mof_C 	C 	0.4225	0.8099	0.5934	0.025
Mof_H 	H 	0.3957	0.7992	0.6345	-0.007
Mof_H 	H 	0.4858	0.8249	0.6141	-0.012
Mof_C 	C 	0.3263	0.7293	0.517	0.023
Mof_H 	H 	0.2984	0.7189	0.5575	-0.008
Mof_H 	H 	0.3259	0.6902	0.4877	-0.017
Mof_C 	C 	0.4079	0.8776	0.4846	0.019
Mof_H 	H 	0.4706	0.8943	0.5033	-0
Mof_H 	H 	0.3708	0.911	0.4538	0.007
Mof_C 	C 	0.3152	0.7969	0.4088	0.014
Mof_H 	H 	0.2791	0.8303	0.3774	0.009
Mof_H 	H 	0.3164	0.7589	0.3782	0.005
Mof_C 	C 	0.2715	0.8384	0.517	0.015
Mof_H 	H 	0.2433	0.8277	0.5573	0.011
Mof_H 	H 	0.2344	0.8724	0.4874	-0.003
Mof_N 	N 	0.7434	0.6254	0.4914	-0.166
Mof_N 	N 	0.8116	0.6025	0.6237	-0.168
Mof_N 	N 	0.6574	0.6533	0.5839	-0.159
Mof_N 	N 	0.7973	0.7148	0.5798	-0.167
Mof_N 	N 	0.6338	0.5088	0.2984	-0.166
Mof_N 	N 	0.6208	0.4237	0.2049	-0.116
Mof_N 	N 	0.5401	0.4114	0.3037	-0.164
Mof_N 	N 	0.4861	0.4919	0.2044	-0.164
Mof_N 	N 	0.0099	0.5594	0.2963	-0.17
Mof_N 	N 	0.0181	0.6709	0.3434	-0.162
Mof_N 	N 	0.8756	0.6072	0.3309	-0.16
Mof_N 	N 	0.9195	0.6453	0.2201	-0.167
Mof_N 	N 	0.4244	0.7509	0.5481	-0.163
Mof_N 	N 	0.3673	0.8628	0.5486	-0.167
Mof_N 	N 	0.2702	0.7801	0.4696	-0.17
Mof_N 	N 	0.4105	0.8202	0.4395	-0.116
Mof_O 	O 	0.9316	0.8531	0.5094	-0.36
Mof_O 	O 	0.9956	0.7674	0.4763	-0.357
Mof_O 	O 	0.2337	0.0605	0.6957	-0.504
Mof_H 	H 	0.2117	0.0904	0.6674	0.243
Mof_Ag	Ag	0.26418	0.08284	0.12746	0.489
Mof_Ag	Ag	0.49324	0.16179	0.88369	0.486
Mof_Ag	Ag	0.87866	0.24254	0.0774	0.541
Mof_Ag	Ag	0.13846	0.31887	0.90039	0.558
Mof_Ag	Ag	0.09534	0.03082	0.801	0.489
Mof_Ag	Ag	0.6319	0.04845	0.37683	0.496
Mof_C 	C 	0.0031	0.314	0.9831	0.306
Mof_C 	C 	0.918	0.3212	0.9141	-0.073
Mof_C 	C 	0.8842	0.2683	0.8771	-0.072
Mof_H 	H 	0.9104	0.2281	0.8932	0.029
Mof_C 	C 	0.8115	0.2717	0.8156	0.015
Mof_H 	H 	0.7905	0.2332	0.7908	0.001
Mof_C 	C 	0.7675	0.3275	0.7882	-0.168
Mof_H 	H 	0.7168	0.3276	0.7466	0.062
Mof_C 	C 	0.8037	0.3882	0.8274	0.138
Mof_C 	C 	0.7657	0.4475	0.8014	-0.374
Mof_H 	H 	0.716	0.4492	0.7592	0.131
Mof_C 	C 	0.7996	0.5028	0.8361	0.314
Mof_C 	C 	0.8707	0.5013	0.9029	-0.298
Mof_H 	H 	0.8907	0.5396	0.9285	0.121
Mof_C 	C 	0.9121	0.441	0.9311	0.058
Mof_H 	H 	0.9594	0.4394	0.9749	0.005
Mof_C 	C 	0.8805	0.3846	0.8919	-0.078
Mof_C 	C 	0.1987	0.0802	0.9533	0.025
Mof_H 	H 	0.1375	0.0763	0.9627	-0.015
Mof_H 	H 	0.2273	0.0374	0.9593	-0.017
Mof_C 	C 	0.145	0.1678	0.8675	0.024
Mof_H 	H 	0.138	0.1829	0.8169	-0.01
Mof_H 	H 	0.0834	0.1653	0.8765	-0.011
Mof_C 	C 	0.2964	0.2178	0.9068	0.025
Mof_H 	H 	0.2913	0.2334	0.8566	-0.015
Mof_H 	H 	0.3343	0.2484	0.9412	-0.01
Mof_C 	C 	0.3497	0.1303	0.9924	0.024
Mof_H 	H 	0.3795	0.088	0.999	-0.011
Mof_H 	H 	0.3885	0.1601	0.0275	-0.006
Mof_C 	C 	0.2838	0.1085	0.8626	0.011
Mof_H 	H 	0.2781	0.1242	0.8123	0.014
Mof_H 	H 	0.3131	0.066	0.8669	0.003
Mof_C 	C 	0.2123	0.1907	0.997	0.01
Mof_H 	H 	0.2497	0.2211	0.0321	0.001
Mof_H 	H 	0.1511	0.1884	0.0068	0.014
Mof_C 	C 	0.3185	0.9727	0.2512	0.017
Mof_H 	H 	0.263	0.9518	0.2211	0.003
Mof_H 	H 	0.2993	0.0031	0.2843	0.005
Mof_C 	C 	0.4083	0.8778	0.2458	0.012
Mof_H 	H 	0.4483	0.8451	0.2753	0.01
Mof_H 	H 	0.3539	0.8561	0.2152	0.008
Mof_C 	C 	0.5422	0.9447	0.2458	0.015
Mof_H 	H 	0.5769	0.9669	0.2154	0.005
Mof_H 	H 	0.5829	0.9124	0.2755	0.009
Mof_C 	C 	0.4502	0.0408	0.25	0.022
Mof_H 	H 	0.4309	0.0717	0.2827	-0.014
Mof_H 	H 	0.483	0.0644	0.2193	-0.012
Mof_C 	C 	0.3975	0.9614	0.1529	0.028
Mof_H 	H 	0.43	0.9843	0.1213	-0.014
Mof_H 	H 	0.3434	0.9404	0.1209	-0.015
Mof_C 	C 	0.4613	0.9555	0.3418	0.014
Mof_H 	H 	0.4423	0.9853	0.3756	0
Mof_H 	H 	0.5018	0.923	0.3714	0.009
Mof_C 	C 	0.9302	0.1101	0.1591	0.024
Mof_H 	H 	0.9052	0.0943	0.1088	-0.018
Mof_H 	H 	0.8782	0.1189	0.1805	-0.006
Mof_C 	C 	0.028	0.0841	0.2806	0.016
Mof_H 	H 	0.9771	0.0918	0.3037	0.011
Mof_H 	H 	0.0689	0.0517	0.3099	-0.006
Mof_C 	C 	0.0622	0.1565	0.1256	0.02
Mof_H 	H 	0.0395	0.1414	0.0747	0.006
Mof_H 	H 	0.0973	0.1962	0.1246	0.015
Mof_C 	C 	0.1587	0.1315	0.2461	0.026
Mof_H 	H 	0.1945	0.1709	0.2457	-0.014
Mof_H 	H 	0.1996	0.0994	0.2759	-0.015
Mof_C 	C 	0.0178	0.1942	0.2335	0.026
Mof_H 	H 	0.966	0.2031	0.2551	-0.002
Mof_H 	H 	0.0518	0.2344	0.2332	-0.007
Mof_C 	C 	0.0697	0.0476	0.1702	0.027
Mof_H 	H 	0.1098	0.0144	0.1986	-0.012
Mof_H 	H 	0.0462	0.0318	0.1197	-0.013
Mof_C 	C 	0.5355	0.2692	0.015	0.019
Mof_H 	H 	0.534	0.2313	0.0457	0.004
Mof_H 	H 	0.4719	0.2841	0.9955	0.006
Mof_C 	C 	0.5775	0.3099	0.9066	0.025
Mof_H 	H 	0.6043	0.2992	0.8655	-0.007
Mof_H 	H 	0.5142	0.3249	0.8859	-0.012
Mof_C 	C 	0.6737	0.2293	0.983	0.024
Mof_H 	H 	0.7016	0.2189	0.9425	-0.008
Mof_H 	H 	0.6741	0.1902	0.0123	-0.017
Mof_C 	C 	0.5921	0.3776	0.0154	0.019
Mof_H 	H 	0.5294	0.3943	0.9967	-0
Mof_H 	H 	0.6292	0.411	0.0462	0.007
Mof_C 	C 	0.6848	0.2969	0.0912	0.015
Mof_H 	H 	0.7209	0.3303	0.1226	0.009
Mof_H 	H 	0.6836	0.2589	0.1218	0.005
Mof_C 	C 	0.7285	0.3384	0.983	0.017
Mof_H 	H 	0.7567	0.3277	0.9427	0.01
Mof_H 	H 	0.7656	0.3724	0.0126	-0.004
Mof_N 	N 	0.2566	0.1254	0.0086	-0.163
Mof_N 	N 	0.1884	0.1025	0.8763	-0.167
Mof_N 	N 	0.3426	0.1533	0.9161	-0.158
Mof_N 	N 	0.2027	0.2148	0.9202	-0.166
Mof_N 	N 	0.3662	0.0088	0.2016	-0.166
Mof_N 	N 	0.3792	0.9237	0.2951	-0.115
Mof_N 	N 	0.4599	0.9114	0.1963	-0.164
Mof_N 	N 	0.5139	0.9919	0.2956	-0.164
Mof_N 	N 	0.9901	0.0594	0.2037	-0.171
Mof_N 	N 	0.9819	0.1709	0.1566	-0.163
Mof_N 	N 	0.1244	0.1072	0.1691	-0.161
Mof_N 	N 	0.0805	0.1453	0.2799	-0.168
Mof_N 	N 	0.5756	0.2509	0.9519	-0.163
Mof_N 	N 	0.6327	0.3628	0.9514	-0.167
Mof_N 	N 	0.7298	0.2801	0.0304	-0.17
Mof_N 	N 	0.5895	0.3202	0.0605	-0.116
Mof_O 	O 	0.0684	0.3531	0.9906	-0.359
Mof_O 	O 	0.0044	0.2674	0.0237	-0.353
Mof_O 	O 	0.7663	0.5605	0.8043	-0.504
Mof_H 	H 	0.7883	0.5904	0.8326	0.244
_end
