data_functionalizedCrystal
_audit_creation_method	'EQeq! by Chris Wilmer'
_symmetry_space_group_name_H-M	'P1'
_symmetry_Int_Tables_number	1
_symmetry_cell_setting	triclinic
loop_
_symmetry_equiv_pos_as_xyz
  x,y,z
_cell_length_a	28.718
_cell_length_b	28.718
_cell_length_c	28.718
_cell_angle_alpha	90
_cell_angle_beta	90
_cell_angle_gamma	90
loop_
_atom_site_label
_atom_site_type_symbol
_atom_site_fract_x
_atom_site_fract_y
_atom_site_fract_z
_atom_site_charge
Mof_C 	C 	0.4652	0.4251	0.9013	0.338
Mof_C 	C 	0.5066	0.4412	0.9295	-0.107
Mof_C 	C 	0.52	0.4162	0.9673	0.046
Mof_H 	H 	0.503	0.39	0.9759	0.043
Mof_N 	N 	0.4193	0.2941	0.9239	-0.215
Mof_C 	C 	0.4241	0.3076	0.9702	0.035
Mof_C 	C 	0.4348	0.2746	0.004	-0.016
Mof_C 	C 	0.4406	0.2282	0.9916	0.018
Mof_C 	C 	0.4357	0.2147	0.9453	-0.018
Mof_C 	C 	0.4251	0.2476	0.9115	0.04
Mof_O 	O 	0.4483	0.3864	0.9117	-0.428
Mof_O 	O 	0.4498	0.4522	0.8699	-0.28
Mof_C 	C 	0.0348	0.5749	0.4013	0.338
Mof_C 	C 	0.9934	0.5588	0.4295	-0.107
Mof_C 	C 	0.98	0.5838	0.4673	0.046
Mof_H 	H 	0.997	0.61	0.4759	0.043
Mof_N 	N 	0.0807	0.7059	0.4239	-0.215
Mof_C 	C 	0.0759	0.6924	0.4702	0.035
Mof_C 	C 	0.0652	0.7254	0.504	-0.016
Mof_C 	C 	0.0594	0.7718	0.4916	0.018
Mof_C 	C 	0.0643	0.7853	0.4453	-0.018
Mof_C 	C 	0.0749	0.7524	0.4115	0.04
Mof_O 	O 	0.0517	0.6136	0.4117	-0.428
Mof_O 	O 	0.0502	0.5478	0.3699	-0.28
Mof_C 	C 	0.5348	0.9251	0.5987	0.339
Mof_C 	C 	0.4934	0.9412	0.5705	-0.106
Mof_C 	C 	0.48	0.9162	0.5327	0.047
Mof_H 	H 	0.497	0.89	0.5241	0.044
Mof_N 	N 	0.5807	0.7941	0.5761	-0.214
Mof_C 	C 	0.5759	0.8076	0.5298	0.036
Mof_C 	C 	0.5652	0.7746	0.496	-0.015
Mof_C 	C 	0.5594	0.7282	0.5084	0.019
Mof_C 	C 	0.5643	0.7147	0.5547	-0.017
Mof_C 	C 	0.5749	0.7476	0.5885	0.041
Mof_O 	O 	0.5517	0.8864	0.5883	-0.427
Mof_O 	O 	0.5502	0.9522	0.6301	-0.279
Mof_C 	C 	0.9652	0.0749	0.0987	0.339
Mof_C 	C 	0.0066	0.0588	0.0705	-0.106
Mof_C 	C 	0.02	0.0838	0.0327	0.047
Mof_H 	H 	0.003	0.11	0.0241	0.044
Mof_N 	N 	0.9193	0.2059	0.0761	-0.214
Mof_C 	C 	0.9241	0.1924	0.0298	0.036
Mof_C 	C 	0.9348	0.2254	0.996	-0.015
Mof_C 	C 	0.9406	0.2718	0.0084	0.019
Mof_C 	C 	0.9357	0.2853	0.0547	-0.017
Mof_C 	C 	0.9251	0.2524	0.0885	0.041
Mof_O 	O 	0.9483	0.1136	0.0883	-0.427
Mof_O 	O 	0.9498	0.0478	0.1301	-0.279
Mof_C 	C 	0.9013	0.4652	0.4251	0.339
Mof_C 	C 	0.9295	0.5066	0.4412	-0.106
Mof_C 	C 	0.9673	0.52	0.4162	0.047
Mof_H 	H 	0.9759	0.503	0.39	0.044
Mof_N 	N 	0.9239	0.4193	0.2941	-0.214
Mof_C 	C 	0.9702	0.4241	0.3076	0.036
Mof_C 	C 	0.004	0.4348	0.2746	-0.015
Mof_C 	C 	0.9916	0.4406	0.2282	0.019
Mof_C 	C 	0.9453	0.4357	0.2147	-0.017
Mof_C 	C 	0.9115	0.4251	0.2476	0.041
Mof_O 	O 	0.9117	0.4483	0.3864	-0.427
Mof_O 	O 	0.8699	0.4498	0.4522	-0.279
Mof_C 	C 	0.4013	0.0348	0.5749	0.339
Mof_C 	C 	0.4295	0.9934	0.5588	-0.106
Mof_C 	C 	0.4673	0.98	0.5838	0.047
Mof_H 	H 	0.4759	0.997	0.61	0.044
Mof_N 	N 	0.4239	0.0807	0.7059	-0.214
Mof_C 	C 	0.4702	0.0759	0.6924	0.036
Mof_C 	C 	0.504	0.0652	0.7254	-0.015
Mof_C 	C 	0.4916	0.0594	0.7718	0.019
Mof_C 	C 	0.4453	0.0643	0.7853	-0.017
Mof_C 	C 	0.4115	0.0749	0.7524	0.041
Mof_O 	O 	0.4117	0.0517	0.6136	-0.427
Mof_O 	O 	0.3699	0.0502	0.5478	-0.279
Mof_C 	C 	0.5987	0.5348	0.9251	0.339
Mof_C 	C 	0.5705	0.4934	0.9412	-0.106
Mof_C 	C 	0.5327	0.48	0.9162	0.047
Mof_H 	H 	0.5241	0.497	0.89	0.044
Mof_N 	N 	0.5761	0.5807	0.7941	-0.214
Mof_C 	C 	0.5298	0.5759	0.8076	0.036
Mof_C 	C 	0.496	0.5652	0.7746	-0.015
Mof_C 	C 	0.5084	0.5594	0.7282	0.019
Mof_C 	C 	0.5547	0.5643	0.7147	-0.017
Mof_C 	C 	0.5885	0.5749	0.7476	0.041
Mof_O 	O 	0.5883	0.5517	0.8864	-0.427
Mof_O 	O 	0.6301	0.5502	0.9522	-0.279
Mof_C 	C 	0.0987	0.9652	0.0749	0.339
Mof_C 	C 	0.0705	0.0066	0.0588	-0.106
Mof_C 	C 	0.0327	0.02	0.0838	0.047
Mof_H 	H 	0.0241	0.003	0.11	0.044
Mof_N 	N 	0.0761	0.9193	0.2059	-0.214
Mof_C 	C 	0.0298	0.9241	0.1924	0.036
Mof_C 	C 	0.996	0.9348	0.2254	-0.015
Mof_C 	C 	0.0084	0.9406	0.2718	0.019
Mof_C 	C 	0.0547	0.9357	0.2853	-0.017
Mof_C 	C 	0.0885	0.9251	0.2524	0.041
Mof_O 	O 	0.0883	0.9483	0.1136	-0.427
Mof_O 	O 	0.1301	0.9498	0.0478	-0.279
Mof_C 	C 	0.4251	0.9013	0.4652	0.339
Mof_C 	C 	0.4412	0.9295	0.5066	-0.106
Mof_C 	C 	0.4162	0.9673	0.52	0.047
Mof_H 	H 	0.39	0.9759	0.503	0.044
Mof_N 	N 	0.2941	0.9239	0.4193	-0.214
Mof_C 	C 	0.3076	0.9702	0.4241	0.036
Mof_C 	C 	0.2746	0.004	0.4348	-0.015
Mof_C 	C 	0.2282	0.9916	0.4406	0.019
Mof_C 	C 	0.2147	0.9453	0.4357	-0.017
Mof_C 	C 	0.2476	0.9115	0.4251	0.041
Mof_O 	O 	0.3864	0.9117	0.4483	-0.427
Mof_O 	O 	0.4522	0.8699	0.4498	-0.279
Mof_C 	C 	0.5749	0.4013	0.0348	0.339
Mof_C 	C 	0.5588	0.4295	0.9934	-0.106
Mof_C 	C 	0.5838	0.4673	0.98	0.047
Mof_H 	H 	0.61	0.4759	0.997	0.044
Mof_N 	N 	0.7059	0.4239	0.0807	-0.214
Mof_C 	C 	0.6924	0.4702	0.0759	0.036
Mof_C 	C 	0.7254	0.504	0.0652	-0.015
Mof_C 	C 	0.7718	0.4916	0.0594	0.019
Mof_C 	C 	0.7853	0.4453	0.0643	-0.017
Mof_C 	C 	0.7524	0.4115	0.0749	0.041
Mof_O 	O 	0.6136	0.4117	0.0517	-0.427
Mof_O 	O 	0.5478	0.3699	0.0502	-0.279
Mof_C 	C 	0.9251	0.5987	0.5348	0.339
Mof_C 	C 	0.9412	0.5705	0.4934	-0.106
Mof_C 	C 	0.9162	0.5327	0.48	0.047
Mof_H 	H 	0.89	0.5241	0.497	0.044
Mof_N 	N 	0.7941	0.5761	0.5807	-0.214
Mof_C 	C 	0.8076	0.5298	0.5759	0.036
Mof_C 	C 	0.7746	0.496	0.5652	-0.015
Mof_C 	C 	0.7282	0.5084	0.5594	0.019
Mof_C 	C 	0.7147	0.5547	0.5643	-0.017
Mof_C 	C 	0.7476	0.5885	0.5749	0.041
Mof_O 	O 	0.8864	0.5883	0.5517	-0.427
Mof_O 	O 	0.9522	0.6301	0.5502	-0.279
Mof_C 	C 	0.0749	0.0987	0.9652	0.339
Mof_C 	C 	0.0588	0.0705	0.0066	-0.106
Mof_C 	C 	0.0838	0.0327	0.02	0.047
Mof_H 	H 	0.11	0.0241	0.003	0.044
Mof_N 	N 	0.2059	0.0761	0.9193	-0.214
Mof_C 	C 	0.1924	0.0298	0.9241	0.036
Mof_C 	C 	0.2254	0.996	0.9348	-0.015
Mof_C 	C 	0.2718	0.0084	0.9406	0.019
Mof_C 	C 	0.2853	0.0547	0.9357	-0.017
Mof_C 	C 	0.2524	0.0885	0.9251	0.041
Mof_O 	O 	0.1136	0.0883	0.9483	-0.427
Mof_O 	O 	0.0478	0.1301	0.9498	-0.279
Mof_C 	C 	0.1751	0.7152	0.3487	0.339
Mof_C 	C 	0.1912	0.7566	0.3205	-0.106
Mof_C 	C 	0.1662	0.77	0.2827	0.047
Mof_H 	H 	0.14	0.753	0.2741	0.044
Mof_N 	N 	0.0441	0.6693	0.3261	-0.214
Mof_C 	C 	0.0576	0.6741	0.2798	0.036
Mof_C 	C 	0.0246	0.6848	0.246	-0.015
Mof_C 	C 	0.9782	0.6906	0.2584	0.019
Mof_C 	C 	0.9647	0.6857	0.3047	-0.017
Mof_C 	C 	0.9976	0.6751	0.3385	0.041
Mof_O 	O 	0.1364	0.6983	0.3383	-0.427
Mof_O 	O 	0.2022	0.6998	0.3801	-0.279
Mof_C 	C 	0.3249	0.2848	0.8487	0.339
Mof_C 	C 	0.3088	0.2434	0.8205	-0.106
Mof_C 	C 	0.3338	0.23	0.7827	0.047
Mof_H 	H 	0.36	0.247	0.7741	0.044
Mof_N 	N 	0.4559	0.3307	0.8261	-0.214
Mof_C 	C 	0.4424	0.3259	0.7798	0.036
Mof_C 	C 	0.4754	0.3152	0.746	-0.015
Mof_C 	C 	0.5218	0.3094	0.7584	0.019
Mof_C 	C 	0.5353	0.3143	0.8047	-0.017
Mof_C 	C 	0.5024	0.3249	0.8385	0.041
Mof_O 	O 	0.3636	0.3017	0.8383	-0.427
Mof_O 	O 	0.2978	0.3002	0.8801	-0.279
Mof_C 	C 	0.6751	0.7848	0.6513	0.339
Mof_C 	C 	0.6912	0.7434	0.6795	-0.106
Mof_C 	C 	0.6662	0.73	0.7173	0.047
Mof_H 	H 	0.64	0.747	0.7259	0.044
Mof_N 	N 	0.5441	0.8307	0.6739	-0.214
Mof_C 	C 	0.5576	0.8259	0.7202	0.036
Mof_C 	C 	0.5246	0.8152	0.754	-0.015
Mof_C 	C 	0.4782	0.8094	0.7416	0.019
Mof_C 	C 	0.4647	0.8143	0.6953	-0.017
Mof_C 	C 	0.4976	0.8249	0.6615	0.041
Mof_O 	O 	0.6364	0.8017	0.6617	-0.427
Mof_O 	O 	0.7022	0.8002	0.6199	-0.279
Mof_C 	C 	0.8249	0.2152	0.1513	0.339
Mof_C 	C 	0.8088	0.2566	0.1795	-0.106
Mof_C 	C 	0.8338	0.27	0.2173	0.047
Mof_H 	H 	0.86	0.253	0.2259	0.044
Mof_N 	N 	0.9559	0.1693	0.1739	-0.214
Mof_C 	C 	0.9424	0.1741	0.2202	0.036
Mof_C 	C 	0.9754	0.1848	0.254	-0.015
Mof_C 	C 	0.0218	0.1906	0.2416	0.019
Mof_C 	C 	0.0353	0.1857	0.1953	-0.017
Mof_C 	C 	0.0024	0.1751	0.1615	0.041
Mof_O 	O 	0.8636	0.1983	0.1617	-0.427
Mof_O 	O 	0.7978	0.1998	0.1199	-0.279
Mof_C 	C 	0.2152	0.1513	0.8249	0.339
Mof_C 	C 	0.2566	0.1795	0.8088	-0.106
Mof_C 	C 	0.27	0.2173	0.8338	0.047
Mof_H 	H 	0.253	0.2259	0.86	0.044
Mof_N 	N 	0.1693	0.1739	0.9559	-0.214
Mof_C 	C 	0.1741	0.2202	0.9424	0.036
Mof_C 	C 	0.1848	0.254	0.9754	-0.015
Mof_C 	C 	0.1906	0.2416	0.0218	0.019
Mof_C 	C 	0.1857	0.1953	0.0353	-0.017
Mof_C 	C 	0.1751	0.1615	0.0024	0.041
Mof_O 	O 	0.1983	0.1617	0.8636	-0.427
Mof_O 	O 	0.1998	0.1199	0.7978	-0.279
Mof_C 	C 	0.7848	0.6513	0.6751	0.339
Mof_C 	C 	0.7434	0.6795	0.6912	-0.106
Mof_C 	C 	0.73	0.7173	0.6662	0.047
Mof_H 	H 	0.747	0.7259	0.64	0.044
Mof_N 	N 	0.8307	0.6739	0.5441	-0.214
Mof_C 	C 	0.8259	0.7202	0.5576	0.036
Mof_C 	C 	0.8152	0.754	0.5246	-0.015
Mof_C 	C 	0.8094	0.7416	0.4782	0.019
Mof_C 	C 	0.8143	0.6953	0.4647	-0.017
Mof_C 	C 	0.8249	0.6615	0.4976	0.041
Mof_O 	O 	0.8017	0.6617	0.6364	-0.427
Mof_O 	O 	0.8002	0.6199	0.7022	-0.279
Mof_C 	C 	0.2848	0.8487	0.3249	0.339
Mof_C 	C 	0.2434	0.8205	0.3088	-0.106
Mof_C 	C 	0.23	0.7827	0.3338	0.047
Mof_H 	H 	0.247	0.7741	0.36	0.044
Mof_N 	N 	0.3307	0.8261	0.4559	-0.214
Mof_C 	C 	0.3259	0.7798	0.4424	0.036
Mof_C 	C 	0.3152	0.746	0.4754	-0.015
Mof_C 	C 	0.3094	0.7584	0.5218	0.019
Mof_C 	C 	0.3143	0.8047	0.5353	-0.017
Mof_C 	C 	0.3249	0.8385	0.5024	0.041
Mof_O 	O 	0.3017	0.8383	0.3636	-0.427
Mof_O 	O 	0.3002	0.8801	0.2978	-0.279
Mof_C 	C 	0.7152	0.3487	0.1751	0.339
Mof_C 	C 	0.7566	0.3205	0.1912	-0.106
Mof_C 	C 	0.77	0.2827	0.1662	0.047
Mof_H 	H 	0.753	0.2741	0.14	0.044
Mof_N 	N 	0.6693	0.3261	0.0441	-0.214
Mof_C 	C 	0.6741	0.2798	0.0576	0.036
Mof_C 	C 	0.6848	0.246	0.0246	-0.015
Mof_C 	C 	0.6906	0.2584	0.9782	0.019
Mof_C 	C 	0.6857	0.3047	0.9647	-0.017
Mof_C 	C 	0.6751	0.3385	0.9976	0.041
Mof_O 	O 	0.6983	0.3383	0.1364	-0.427
Mof_O 	O 	0.6998	0.3801	0.2022	-0.279
Mof_C 	C 	0.6513	0.6751	0.7848	0.339
Mof_C 	C 	0.6795	0.6912	0.7434	-0.106
Mof_C 	C 	0.7173	0.6662	0.73	0.047
Mof_H 	H 	0.7259	0.64	0.747	0.044
Mof_N 	N 	0.6739	0.5441	0.8307	-0.214
Mof_C 	C 	0.7202	0.5576	0.8259	0.036
Mof_C 	C 	0.754	0.5246	0.8152	-0.015
Mof_C 	C 	0.7416	0.4782	0.8094	0.019
Mof_C 	C 	0.6953	0.4647	0.8143	-0.017
Mof_C 	C 	0.6615	0.4976	0.8249	0.041
Mof_O 	O 	0.6617	0.6364	0.8017	-0.427
Mof_O 	O 	0.6199	0.7022	0.8002	-0.279
Mof_C 	C 	0.1513	0.8249	0.2152	0.339
Mof_C 	C 	0.1795	0.8088	0.2566	-0.106
Mof_C 	C 	0.2173	0.8338	0.27	0.047
Mof_H 	H 	0.2259	0.86	0.253	0.044
Mof_N 	N 	0.1739	0.9559	0.1693	-0.214
Mof_C 	C 	0.2202	0.9424	0.1741	0.036
Mof_C 	C 	0.254	0.9754	0.1848	-0.015
Mof_C 	C 	0.2416	0.0218	0.1906	0.019
Mof_C 	C 	0.1953	0.0353	0.1857	-0.017
Mof_C 	C 	0.1615	0.0024	0.1751	0.041
Mof_O 	O 	0.1617	0.8636	0.1983	-0.427
Mof_O 	O 	0.1199	0.7978	0.1998	-0.279
Mof_C 	C 	0.3487	0.1751	0.7152	0.339
Mof_C 	C 	0.3205	0.1912	0.7566	-0.106
Mof_C 	C 	0.2827	0.1662	0.77	0.047
Mof_H 	H 	0.2741	0.14	0.753	0.044
Mof_N 	N 	0.3261	0.0441	0.6693	-0.214
Mof_C 	C 	0.2798	0.0576	0.6741	0.036
Mof_C 	C 	0.246	0.0246	0.6848	-0.015
Mof_C 	C 	0.2584	0.9782	0.6906	0.019
Mof_C 	C 	0.3047	0.9647	0.6857	-0.017
Mof_C 	C 	0.3385	0.9976	0.6751	0.041
Mof_O 	O 	0.3383	0.1364	0.6983	-0.427
Mof_O 	O 	0.3801	0.2022	0.6998	-0.279
Mof_C 	C 	0.8487	0.3249	0.2848	0.339
Mof_C 	C 	0.8205	0.3088	0.2434	-0.106
Mof_C 	C 	0.7827	0.3338	0.23	0.047
Mof_H 	H 	0.7741	0.36	0.247	0.044
Mof_N 	N 	0.8261	0.4559	0.3307	-0.214
Mof_C 	C 	0.7798	0.4424	0.3259	0.036
Mof_C 	C 	0.746	0.4754	0.3152	-0.015
Mof_C 	C 	0.7584	0.5218	0.3094	0.019
Mof_C 	C 	0.8047	0.5353	0.3143	-0.017
Mof_C 	C 	0.8385	0.5024	0.3249	0.041
Mof_O 	O 	0.8383	0.3636	0.3017	-0.427
Mof_O 	O 	0.8801	0.2978	0.3002	-0.279
Mof_Ni	Ni	0.4042	0.3458	0.875	1.065
Mof_Ni	Ni	0.0958	0.6542	0.375	1.065
Mof_Ni	Ni	0.5958	0.8458	0.625	1.065
Mof_Ni	Ni	0.9042	0.1542	0.125	1.065
Mof_Ni	Ni	0.875	0.4042	0.3458	1.065
Mof_Ni	Ni	0.375	0.0958	0.6542	1.065
Mof_Ni	Ni	0.625	0.5958	0.8458	1.065
Mof_Ni	Ni	0.125	0.9042	0.1542	1.065
Mof_Ni	Ni	0.3458	0.875	0.4042	1.065
Mof_Ni	Ni	0.6542	0.375	0.0958	1.065
Mof_Ni	Ni	0.8458	0.625	0.5958	1.065
Mof_Ni	Ni	0.1542	0.125	0.9042	1.065
Mof_C 	C 	0.9652	0.9251	0.4013	0.339
Mof_C 	C 	0.0066	0.9412	0.4295	-0.106
Mof_C 	C 	0.02	0.9162	0.4673	0.047
Mof_H 	H 	0.003	0.89	0.4759	0.044
Mof_N 	N 	0.9193	0.7941	0.4239	-0.214
Mof_C 	C 	0.9241	0.8076	0.4702	0.036
Mof_C 	C 	0.9348	0.7746	0.504	-0.015
Mof_C 	C 	0.9406	0.7282	0.4916	0.019
Mof_C 	C 	0.9357	0.7147	0.4453	-0.017
Mof_C 	C 	0.9251	0.7476	0.4115	0.041
Mof_O 	O 	0.9483	0.8864	0.4117	-0.427
Mof_O 	O 	0.9498	0.9522	0.3699	-0.279
Mof_C 	C 	0.5348	0.0749	0.9013	0.339
Mof_C 	C 	0.4934	0.0588	0.9295	-0.106
Mof_C 	C 	0.48	0.0838	0.9673	0.047
Mof_H 	H 	0.497	0.11	0.9759	0.044
Mof_N 	N 	0.5807	0.2059	0.9239	-0.214
Mof_C 	C 	0.5759	0.1924	0.9702	0.036
Mof_C 	C 	0.5652	0.2254	0.004	-0.015
Mof_C 	C 	0.5594	0.2718	0.9916	0.019
Mof_C 	C 	0.5643	0.2853	0.9453	-0.017
Mof_C 	C 	0.5749	0.2524	0.9115	0.041
Mof_O 	O 	0.5517	0.1136	0.9117	-0.427
Mof_O 	O 	0.5502	0.0478	0.8699	-0.279
Mof_C 	C 	0.0348	0.4251	0.0987	0.339
Mof_C 	C 	0.9934	0.4412	0.0705	-0.106
Mof_C 	C 	0.98	0.4162	0.0327	0.047
Mof_H 	H 	0.997	0.39	0.0241	0.044
Mof_N 	N 	0.0807	0.2941	0.0761	-0.214
Mof_C 	C 	0.0759	0.3076	0.0298	0.036
Mof_C 	C 	0.0652	0.2746	0.996	-0.015
Mof_C 	C 	0.0594	0.2282	0.0084	0.019
Mof_C 	C 	0.0643	0.2147	0.0547	-0.017
Mof_C 	C 	0.0749	0.2476	0.0885	0.041
Mof_O 	O 	0.0517	0.3864	0.0883	-0.427
Mof_O 	O 	0.0502	0.4522	0.1301	-0.279
Mof_C 	C 	0.4652	0.5749	0.5987	0.339
Mof_C 	C 	0.5066	0.5588	0.5705	-0.106
Mof_C 	C 	0.52	0.5838	0.5327	0.047
Mof_H 	H 	0.503	0.61	0.5241	0.044
Mof_N 	N 	0.4193	0.7059	0.5761	-0.214
Mof_C 	C 	0.4241	0.6924	0.5298	0.036
Mof_C 	C 	0.4348	0.7254	0.496	-0.015
Mof_C 	C 	0.4406	0.7718	0.5084	0.019
Mof_C 	C 	0.4357	0.7853	0.5547	-0.017
Mof_C 	C 	0.4251	0.7524	0.5885	0.041
Mof_O 	O 	0.4483	0.6136	0.5883	-0.427
Mof_O 	O 	0.4498	0.5478	0.6301	-0.279
Mof_C 	C 	0.4013	0.9652	0.9251	0.339
Mof_C 	C 	0.4295	0.0066	0.9412	-0.106
Mof_C 	C 	0.4673	0.02	0.9162	0.047
Mof_H 	H 	0.4759	0.003	0.89	0.044
Mof_N 	N 	0.4239	0.9193	0.7941	-0.214
Mof_C 	C 	0.4702	0.9241	0.8076	0.036
Mof_C 	C 	0.504	0.9348	0.7746	-0.015
Mof_C 	C 	0.4916	0.9406	0.7282	0.019
Mof_C 	C 	0.4453	0.9357	0.7147	-0.017
Mof_C 	C 	0.4115	0.9251	0.7476	0.041
Mof_O 	O 	0.4117	0.9483	0.8864	-0.427
Mof_O 	O 	0.3699	0.9498	0.9522	-0.279
Mof_C 	C 	0.9013	0.5348	0.0749	0.339
Mof_C 	C 	0.9295	0.4934	0.0588	-0.106
Mof_C 	C 	0.9673	0.48	0.0838	0.047
Mof_H 	H 	0.9759	0.497	0.11	0.044
Mof_N 	N 	0.9239	0.5807	0.2059	-0.214
Mof_C 	C 	0.9702	0.5759	0.1924	0.036
Mof_C 	C 	0.004	0.5652	0.2254	-0.015
Mof_C 	C 	0.9916	0.5594	0.2718	0.019
Mof_C 	C 	0.9453	0.5643	0.2853	-0.017
Mof_C 	C 	0.9115	0.5749	0.2524	0.041
Mof_O 	O 	0.9117	0.5517	0.1136	-0.427
Mof_O 	O 	0.8699	0.5502	0.0478	-0.279
Mof_C 	C 	0.0987	0.0348	0.4251	0.339
Mof_C 	C 	0.0705	0.9934	0.4412	-0.106
Mof_C 	C 	0.0327	0.98	0.4162	0.047
Mof_H 	H 	0.0241	0.997	0.39	0.044
Mof_N 	N 	0.0761	0.0807	0.2941	-0.214
Mof_C 	C 	0.0298	0.0759	0.3076	0.036
Mof_C 	C 	0.996	0.0652	0.2746	-0.015
Mof_C 	C 	0.0084	0.0594	0.2282	0.019
Mof_C 	C 	0.0547	0.0643	0.2147	-0.017
Mof_C 	C 	0.0885	0.0749	0.2476	0.041
Mof_O 	O 	0.0883	0.0517	0.3864	-0.427
Mof_O 	O 	0.1301	0.0502	0.4522	-0.279
Mof_C 	C 	0.5987	0.4652	0.5749	0.339
Mof_C 	C 	0.5705	0.5066	0.5588	-0.106
Mof_C 	C 	0.5327	0.52	0.5838	0.047
Mof_H 	H 	0.5241	0.503	0.61	0.044
Mof_N 	N 	0.5761	0.4193	0.7059	-0.214
Mof_C 	C 	0.5298	0.4241	0.6924	0.036
Mof_C 	C 	0.496	0.4348	0.7254	-0.015
Mof_C 	C 	0.5084	0.4406	0.7718	0.019
Mof_C 	C 	0.5547	0.4357	0.7853	-0.017
Mof_C 	C 	0.5885	0.4251	0.7524	0.041
Mof_O 	O 	0.5883	0.4483	0.6136	-0.427
Mof_O 	O 	0.6301	0.4498	0.5478	-0.279
Mof_C 	C 	0.9251	0.4013	0.9652	0.339
Mof_C 	C 	0.9412	0.4295	0.0066	-0.106
Mof_C 	C 	0.9162	0.4673	0.02	0.047
Mof_H 	H 	0.89	0.4759	0.003	0.044
Mof_N 	N 	0.7941	0.4239	0.9193	-0.214
Mof_C 	C 	0.8076	0.4702	0.9241	0.036
Mof_C 	C 	0.7746	0.504	0.9348	-0.015
Mof_C 	C 	0.7282	0.4916	0.9406	0.019
Mof_C 	C 	0.7147	0.4453	0.9357	-0.017
Mof_C 	C 	0.7476	0.4115	0.9251	0.041
Mof_O 	O 	0.8864	0.4117	0.9483	-0.427
Mof_O 	O 	0.9522	0.3699	0.9498	-0.279
Mof_C 	C 	0.0749	0.9013	0.5348	0.339
Mof_C 	C 	0.0588	0.9295	0.4934	-0.106
Mof_C 	C 	0.0838	0.9673	0.48	0.047
Mof_H 	H 	0.11	0.9759	0.497	0.044
Mof_N 	N 	0.2059	0.9239	0.5807	-0.214
Mof_C 	C 	0.1924	0.9702	0.5759	0.036
Mof_C 	C 	0.2254	0.004	0.5652	-0.015
Mof_C 	C 	0.2718	0.9916	0.5594	0.019
Mof_C 	C 	0.2853	0.9453	0.5643	-0.017
Mof_C 	C 	0.2524	0.9115	0.5749	0.041
Mof_O 	O 	0.1136	0.9117	0.5517	-0.427
Mof_O 	O 	0.0478	0.8699	0.5502	-0.279
Mof_C 	C 	0.4251	0.0987	0.0348	0.339
Mof_C 	C 	0.4412	0.0705	0.9934	-0.106
Mof_C 	C 	0.4162	0.0327	0.98	0.047
Mof_H 	H 	0.39	0.0241	0.997	0.044
Mof_N 	N 	0.2941	0.0761	0.0807	-0.214
Mof_C 	C 	0.3076	0.0298	0.0759	0.036
Mof_C 	C 	0.2746	0.996	0.0652	-0.015
Mof_C 	C 	0.2282	0.0084	0.0594	0.019
Mof_C 	C 	0.2147	0.0547	0.0643	-0.017
Mof_C 	C 	0.2476	0.0885	0.0749	0.041
Mof_O 	O 	0.3864	0.0883	0.0517	-0.427
Mof_O 	O 	0.4522	0.1301	0.0502	-0.279
Mof_C 	C 	0.5749	0.5987	0.4652	0.339
Mof_C 	C 	0.5588	0.5705	0.5066	-0.106
Mof_C 	C 	0.5838	0.5327	0.52	0.047
Mof_H 	H 	0.61	0.5241	0.503	0.044
Mof_N 	N 	0.7059	0.5761	0.4193	-0.214
Mof_C 	C 	0.6924	0.5298	0.4241	0.036
Mof_C 	C 	0.7254	0.496	0.4348	-0.015
Mof_C 	C 	0.7718	0.5084	0.4406	0.019
Mof_C 	C 	0.7853	0.5547	0.4357	-0.017
Mof_C 	C 	0.7524	0.5885	0.4251	0.041
Mof_O 	O 	0.6136	0.5883	0.4483	-0.427
Mof_O 	O 	0.5478	0.6301	0.4498	-0.279
Mof_C 	C 	0.6751	0.2152	0.8487	0.339
Mof_C 	C 	0.6912	0.2566	0.8205	-0.106
Mof_C 	C 	0.6662	0.27	0.7827	0.047
Mof_H 	H 	0.64	0.253	0.7741	0.044
Mof_N 	N 	0.5441	0.1693	0.8261	-0.214
Mof_C 	C 	0.5576	0.1741	0.7798	0.036
Mof_C 	C 	0.5246	0.1848	0.746	-0.015
Mof_C 	C 	0.4782	0.1906	0.7584	0.019
Mof_C 	C 	0.4647	0.1857	0.8047	-0.017
Mof_C 	C 	0.4976	0.1751	0.8385	0.041
Mof_O 	O 	0.6364	0.1983	0.8383	-0.427
Mof_O 	O 	0.7022	0.1998	0.8801	-0.279
Mof_C 	C 	0.8249	0.7848	0.3487	0.339
Mof_C 	C 	0.8088	0.7434	0.3205	-0.106
Mof_C 	C 	0.8338	0.73	0.2827	0.047
Mof_H 	H 	0.86	0.747	0.2741	0.044
Mof_N 	N 	0.9559	0.8307	0.3261	-0.214
Mof_C 	C 	0.9424	0.8259	0.2798	0.036
Mof_C 	C 	0.9754	0.8152	0.246	-0.015
Mof_C 	C 	0.0218	0.8094	0.2584	0.019
Mof_C 	C 	0.0353	0.8143	0.3047	-0.017
Mof_C 	C 	0.0024	0.8249	0.3385	0.041
Mof_O 	O 	0.8636	0.8017	0.3383	-0.427
Mof_O 	O 	0.7978	0.8002	0.3801	-0.279
Mof_C 	C 	0.1751	0.2848	0.1513	0.339
Mof_C 	C 	0.1912	0.2434	0.1795	-0.106
Mof_C 	C 	0.1662	0.23	0.2173	0.047
Mof_H 	H 	0.14	0.247	0.2259	0.044
Mof_N 	N 	0.0441	0.3307	0.1739	-0.214
Mof_C 	C 	0.0576	0.3259	0.2202	0.036
Mof_C 	C 	0.0246	0.3152	0.254	-0.015
Mof_C 	C 	0.9782	0.3094	0.2416	0.019
Mof_C 	C 	0.9647	0.3143	0.1953	-0.017
Mof_C 	C 	0.9976	0.3249	0.1615	0.041
Mof_O 	O 	0.1364	0.3017	0.1617	-0.427
Mof_O 	O 	0.2022	0.3002	0.1199	-0.279
Mof_C 	C 	0.3249	0.7152	0.6513	0.339
Mof_C 	C 	0.3088	0.7566	0.6795	-0.106
Mof_C 	C 	0.3338	0.77	0.7173	0.047
Mof_H 	H 	0.36	0.753	0.7259	0.044
Mof_N 	N 	0.4559	0.6693	0.6739	-0.214
Mof_C 	C 	0.4424	0.6741	0.7202	0.036
Mof_C 	C 	0.4754	0.6848	0.754	-0.015
Mof_C 	C 	0.5218	0.6906	0.7416	0.019
Mof_C 	C 	0.5353	0.6857	0.6953	-0.017
Mof_C 	C 	0.5024	0.6751	0.6615	0.041
Mof_O 	O 	0.3636	0.6983	0.6617	-0.427
Mof_O 	O 	0.2978	0.6998	0.6199	-0.279
Mof_C 	C 	0.7152	0.6513	0.3249	0.339
Mof_C 	C 	0.7566	0.6795	0.3088	-0.106
Mof_C 	C 	0.77	0.7173	0.3338	0.047
Mof_H 	H 	0.753	0.7259	0.36	0.044
Mof_N 	N 	0.6693	0.6739	0.4559	-0.214
Mof_C 	C 	0.6741	0.7202	0.4424	0.036
Mof_C 	C 	0.6848	0.754	0.4754	-0.015
Mof_C 	C 	0.6906	0.7416	0.5218	0.019
Mof_C 	C 	0.6857	0.6953	0.5353	-0.017
Mof_C 	C 	0.6751	0.6615	0.5024	0.041
Mof_O 	O 	0.6983	0.6617	0.3636	-0.427
Mof_O 	O 	0.6998	0.6199	0.2978	-0.279
Mof_C 	C 	0.2848	0.1513	0.1751	0.339
Mof_C 	C 	0.2434	0.1795	0.1912	-0.106
Mof_C 	C 	0.23	0.2173	0.1662	0.047
Mof_H 	H 	0.247	0.2259	0.14	0.044
Mof_N 	N 	0.3307	0.1739	0.0441	-0.214
Mof_C 	C 	0.3259	0.2202	0.0576	0.036
Mof_C 	C 	0.3152	0.254	0.0246	-0.015
Mof_C 	C 	0.3094	0.2416	0.9782	0.019
Mof_C 	C 	0.3143	0.1953	0.9647	-0.017
Mof_C 	C 	0.3249	0.1615	0.9976	0.041
Mof_O 	O 	0.3017	0.1617	0.1364	-0.427
Mof_O 	O 	0.3002	0.1199	0.2022	-0.279
Mof_C 	C 	0.7848	0.3487	0.8249	0.339
Mof_C 	C 	0.7434	0.3205	0.8088	-0.106
Mof_C 	C 	0.73	0.2827	0.8338	0.047
Mof_H 	H 	0.747	0.2741	0.86	0.044
Mof_N 	N 	0.8307	0.3261	0.9559	-0.214
Mof_C 	C 	0.8259	0.2798	0.9424	0.036
Mof_C 	C 	0.8152	0.246	0.9754	-0.015
Mof_C 	C 	0.8094	0.2584	0.0218	0.019
Mof_C 	C 	0.8143	0.3047	0.0353	-0.017
Mof_C 	C 	0.8249	0.3385	0.0024	0.041
Mof_O 	O 	0.8017	0.3383	0.8636	-0.427
Mof_O 	O 	0.8002	0.3801	0.7978	-0.279
Mof_C 	C 	0.2152	0.8487	0.6751	0.339
Mof_C 	C 	0.2566	0.8205	0.6912	-0.106
Mof_C 	C 	0.27	0.7827	0.6662	0.047
Mof_H 	H 	0.253	0.7741	0.64	0.044
Mof_N 	N 	0.1693	0.8261	0.5441	-0.214
Mof_C 	C 	0.1741	0.7798	0.5576	0.036
Mof_C 	C 	0.1848	0.746	0.5246	-0.015
Mof_C 	C 	0.1906	0.7584	0.4782	0.019
Mof_C 	C 	0.1857	0.8047	0.4647	-0.017
Mof_C 	C 	0.1751	0.8385	0.4976	0.041
Mof_O 	O 	0.1983	0.8383	0.6364	-0.427
Mof_O 	O 	0.1998	0.8801	0.7022	-0.279
Mof_C 	C 	0.1513	0.1751	0.2848	0.339
Mof_C 	C 	0.1795	0.1912	0.2434	-0.106
Mof_C 	C 	0.2173	0.1662	0.23	0.047
Mof_H 	H 	0.2259	0.14	0.247	0.044
Mof_N 	N 	0.1739	0.0441	0.3307	-0.214
Mof_C 	C 	0.2202	0.0576	0.3259	0.036
Mof_C 	C 	0.254	0.0246	0.3152	-0.015
Mof_C 	C 	0.2416	0.9782	0.3094	0.019
Mof_C 	C 	0.1953	0.9647	0.3143	-0.017
Mof_C 	C 	0.1615	0.9976	0.3249	0.041
Mof_O 	O 	0.1617	0.1364	0.3017	-0.427
Mof_O 	O 	0.1199	0.2022	0.3002	-0.279
Mof_C 	C 	0.6513	0.3249	0.7152	0.339
Mof_C 	C 	0.6795	0.3088	0.7566	-0.106
Mof_C 	C 	0.7173	0.3338	0.77	0.047
Mof_H 	H 	0.7259	0.36	0.753	0.044
Mof_N 	N 	0.6739	0.4559	0.6693	-0.214
Mof_C 	C 	0.7202	0.4424	0.6741	0.036
Mof_C 	C 	0.754	0.4754	0.6848	-0.015
Mof_C 	C 	0.7416	0.5218	0.6906	0.019
Mof_C 	C 	0.6953	0.5353	0.6857	-0.017
Mof_C 	C 	0.6615	0.5024	0.6751	0.041
Mof_O 	O 	0.6617	0.3636	0.6983	-0.427
Mof_O 	O 	0.6199	0.2978	0.6998	-0.279
Mof_C 	C 	0.8487	0.6751	0.2152	0.339
Mof_C 	C 	0.8205	0.6912	0.2566	-0.106
Mof_C 	C 	0.7827	0.6662	0.27	0.047
Mof_H 	H 	0.7741	0.64	0.253	0.044
Mof_N 	N 	0.8261	0.5441	0.1693	-0.214
Mof_C 	C 	0.7798	0.5576	0.1741	0.036
Mof_C 	C 	0.746	0.5246	0.1848	-0.015
Mof_C 	C 	0.7584	0.4782	0.1906	0.019
Mof_C 	C 	0.8047	0.4647	0.1857	-0.017
Mof_C 	C 	0.8385	0.4976	0.1751	0.041
Mof_O 	O 	0.8383	0.6364	0.1983	-0.427
Mof_O 	O 	0.8801	0.7022	0.1998	-0.279
Mof_C 	C 	0.3487	0.8249	0.7848	0.339
Mof_C 	C 	0.3205	0.8088	0.7434	-0.106
Mof_C 	C 	0.2827	0.8338	0.73	0.047
Mof_H 	H 	0.2741	0.86	0.747	0.044
Mof_N 	N 	0.3261	0.9559	0.8307	-0.214
Mof_C 	C 	0.2798	0.9424	0.8259	0.036
Mof_C 	C 	0.246	0.9754	0.8152	-0.015
Mof_C 	C 	0.2584	0.0218	0.8094	0.019
Mof_C 	C 	0.3047	0.0353	0.8143	-0.017
Mof_C 	C 	0.3385	0.0024	0.8249	0.041
Mof_O 	O 	0.3383	0.8636	0.8017	-0.427
Mof_O 	O 	0.3801	0.7978	0.8002	-0.279
Mof_Ni	Ni	0.9042	0.8458	0.375	1.065
Mof_Ni	Ni	0.5958	0.1542	0.875	1.065
Mof_Ni	Ni	0.0958	0.3458	0.125	1.065
Mof_Ni	Ni	0.4042	0.6542	0.625	1.065
Mof_Ni	Ni	0.375	0.9042	0.8458	1.065
Mof_Ni	Ni	0.875	0.5958	0.1542	1.065
Mof_Ni	Ni	0.125	0.0958	0.3458	1.065
Mof_Ni	Ni	0.625	0.4042	0.6542	1.065
Mof_Ni	Ni	0.8458	0.375	0.9042	1.065
Mof_Ni	Ni	0.1542	0.875	0.5958	1.065
Mof_Ni	Ni	0.3458	0.125	0.0958	1.065
Mof_Ni	Ni	0.6542	0.625	0.4042	1.065
_end
