data_functionalizedCrystal
_audit_creation_method	'EQeq! by Chris Wilmer'
_symmetry_space_group_name_H-M	'P1'
_symmetry_Int_Tables_number	1
_symmetry_cell_setting	triclinic
loop_
_symmetry_equiv_pos_as_xyz
  x,y,z
_cell_length_a	12.618
_cell_length_b	12.927
_cell_length_c	13.012
_cell_angle_alpha	78.3
_cell_angle_beta	62.22
_cell_angle_gamma	62.07
loop_
_atom_site_label
_atom_site_type_symbol
_atom_site_fract_x
_atom_site_fract_y
_atom_site_fract_z
_atom_site_charge
Mof_Zn	Zn	0.65823	0.14125	0.39387	1.225
Mof_H 	H 	0.1123	0.8167	0.879	0.281
Mof_H 	H 	0.985	0.1661	0.5544	0.001
Mof_H 	H 	0.831	0.9436	0.5983	-0.008
Mof_H 	H 	0.695	0.1171	0.7126	0.06
Mof_H 	H 	0.7342	0.222	0.6698	0.066
Mof_H 	H 	0.9532	0.9849	0.7778	0.04
Mof_H 	H 	0.6168	0.9357	0.5861	0.035
Mof_H 	H 	0.3572	0.9607	0.8583	0.142
Mof_H 	H 	0.5068	0.8709	0.7968	0.129
Mof_H 	H 	0.2858	0.079	0.0203	0.149
Mof_H 	H 	0.6718	0.8814	0.842	0.167
Mof_H 	H 	0.9055	0.7731	0.1831	0.186
Mof_H 	H 	0.0107	0.7829	0.208	0.145
Mof_H 	H 	0.7863	0.7517	0.3808	0.015
Mof_H 	H 	0.8839	0.7697	0.41	0.024
Mof_H 	H 	0.9343	0.3731	0.221	-0.019
Mof_H 	H 	0.023	0.2659	0.2712	-0.049
Mof_H 	H 	0.845	0.3248	0.4597	0.224
Mof_H 	H 	0.757	0.4207	0.4014	0.221
Mof_H 	H 	0.2522	0.4496	0.4271	-0.002
Mof_H 	H 	0.2759	0.3227	0.4099	0.012
Mof_H 	H 	0.3883	0.3489	0.2035	0.181
Mof_H 	H 	0.3857	0.46	0.2375	0.187
Mof_C 	C 	0.9908	0.0987	0.5326	0.176
Mof_C 	C 	0.8862	0.0673	0.5947	-0.113
Mof_C 	C 	0.8994	0.9667	0.5587	0.169
Mof_C 	C 	0.7644	0.141	0.6933	-0.041
Mof_C 	C 	0.7502	0.1795	0.959	0.139
Mof_C 	C 	0.8833	0.0504	0.8236	0.071
Mof_C 	C 	0.4476	0.1924	0.6446	0.099
Mof_C 	C 	0.5566	0.01	0.6193	0.057
Mof_C 	C 	0.4479	0.9511	0.8251	-0.272
Mof_C 	C 	0.4747	0.976	0.9167	0.342
Mof_C 	C 	0.3727	0.0469	0.0118	-0.364
Mof_C 	C 	0.602	0.9294	0.9057	-0.318
Mof_C 	C 	0.8372	0.9328	0.2524	0.504
Mof_C 	C 	0.9173	0.8013	0.2389	-0.418
Mof_C 	C 	0.878	0.7376	0.3526	0.143
Mof_C 	C 	0.9221	0.5408	0.3129	0.287
Mof_C 	C 	0.0732	0.5685	0.3581	0.258
Mof_C 	C 	0.1082	0.3713	0.332	0.261
Mof_C 	C 	0.9525	0.3449	0.2886	0.276
Mof_C 	C 	0.83	0.3433	0.3902	-0.546
Mof_C 	C 	0.792	0.2551	0.3736	0.513
Mof_C 	C 	0.2642	0.3983	0.3737	0.166
Mof_C 	C 	0.3878	0.3835	0.2634	-0.47
Mof_C 	C 	0.5147	0.3071	0.2781	0.482
Mof_N 	N 	0.9621	0.6106	0.3408	-0.193
Mof_N 	N 	0.1445	0.4471	0.354	-0.21
Mof_N 	N 	0.9964	0.4212	0.3136	-0.207
Mof_N 	N 	0.5463	0.1088	0.5639	-0.239
Mof_N 	N 	0.3972	0.1482	0.7466	-0.083
Mof_N 	N 	0.4693	0.0318	0.7282	-0.058
Mof_N 	N 	0.8636	0.0779	0.9261	-0.225
Mof_N 	N 	0.701	0.2136	0.8834	-0.09
Mof_N 	N 	0.7858	0.1324	0.7979	-0.082
Mof_O 	O 	0.6815	0.2599	0.451	-0.479
Mof_O 	O 	0.858	0.1844	0.297	-0.412
Mof_O 	O 	0.5138	0.2271	0.3477	-0.503
Mof_O 	O 	0.6167	0.3185	0.2114	-0.351
Mof_O 	O 	0.8489	0.9945	0.1651	-0.479
Mof_O 	O 	0.7592	0.9732	0.3541	-0.483
Mof_O 	O 	0.8242	0.5829	0.2945	-0.253
Mof_O 	O 	0.1099	0.632	0.3761	-0.266
Mof_O 	O 	0.1722	0.2659	0.3313	-0.256
Mof_O 	O 	0.0503	0.8322	0.944	-0.481
Mof_H 	H 	0.41689	0.28865	0.62056	0.028
Mof_H 	H 	0.29092	0.77544	0.95505	0.061
Mof_Zn	Zn	0.34177	0.85875	0.60613	1.232
Mof_H 	H 	0.8877	0.1833	0.121	0.286
Mof_H 	H 	0.015	0.8339	0.4456	0.153
Mof_H 	H 	0.169	0.0564	0.4017	0.156
Mof_H 	H 	0.305	0.8829	0.2874	0.127
Mof_H 	H 	0.2658	0.778	0.3302	0.128
Mof_H 	H 	0.0468	0.0151	0.2222	-0.018
Mof_H 	H 	0.3832	0.0643	0.4139	-0.011
Mof_H 	H 	0.6428	0.0393	0.1417	0.039
Mof_H 	H 	0.4932	0.1291	0.2032	0.048
Mof_H 	H 	0.7142	0.921	0.9797	-0.014
Mof_H 	H 	0.3282	0.1186	0.158	-0.011
Mof_H 	H 	0.0945	0.2269	0.8169	0.239
Mof_H 	H 	0.9893	0.2171	0.792	0.245
Mof_H 	H 	0.2137	0.2483	0.6192	-0.008
Mof_H 	H 	0.1161	0.2303	0.59	-0.013
Mof_H 	H 	0.0657	0.6269	0.779	0.026
Mof_H 	H 	0.977	0.7341	0.7288	0.043
Mof_H 	H 	0.155	0.6752	0.5403	0.19
Mof_H 	H 	0.243	0.5793	0.5986	0.198
Mof_H 	H 	0.7478	0.5504	0.5729	-0.005
Mof_H 	H 	0.7241	0.6773	0.5901	0.008
Mof_H 	H 	0.6117	0.6511	0.7965	0.194
Mof_H 	H 	0.6143	0.54	0.7625	0.2
Mof_C 	C 	0.0092	0.9013	0.4674	-0.313
Mof_C 	C 	0.1138	0.9327	0.4053	0.276
Mof_C 	C 	0.1006	0.0333	0.4413	-0.35
Mof_C 	C 	0.2356	0.859	0.3067	-0.262
Mof_C 	C 	0.2498	0.8205	0.041	0.029
Mof_C 	C 	0.1167	0.9496	0.1764	0.113
Mof_C 	C 	0.5524	0.8076	0.3554	0.095
Mof_C 	C 	0.4434	0.99	0.3807	0.133
Mof_C 	C 	0.5521	0.0489	0.1749	-0.023
Mof_C 	C 	0.5253	0.024	0.0833	-0.165
Mof_C 	C 	0.6273	0.9531	0.9882	0.228
Mof_C 	C 	0.398	0.0706	0.0943	0.159
Mof_C 	C 	0.1628	0.0672	0.7476	0.552
Mof_C 	C 	0.0827	0.1987	0.7611	-0.6
Mof_C 	C 	0.122	0.2624	0.6474	0.225
Mof_C 	C 	0.0779	0.4592	0.6871	0.283
Mof_C 	C 	0.9268	0.4315	0.6419	0.32
Mof_C 	C 	0.8918	0.6287	0.668	0.316
Mof_C 	C 	0.0475	0.6551	0.7114	0.118
Mof_C 	C 	0.17	0.6567	0.6098	-0.464
Mof_C 	C 	0.208	0.7449	0.6264	0.482
Mof_C 	C 	0.7358	0.6017	0.6263	0.179
Mof_C 	C 	0.6122	0.6165	0.7366	-0.485
Mof_C 	C 	0.4853	0.6929	0.7219	0.485
Mof_N 	N 	0.0379	0.3894	0.6592	-0.238
Mof_N 	N 	0.8555	0.5529	0.646	-0.218
Mof_N 	N 	0.0036	0.5788	0.6864	-0.221
Mof_N 	N 	0.4537	0.8912	0.4361	-0.249
Mof_N 	N 	0.6028	0.8518	0.2534	-0.084
Mof_N 	N 	0.5307	0.9682	0.2718	-0.091
Mof_N 	N 	0.1364	0.9221	0.0739	-0.242
Mof_N 	N 	0.299	0.7864	0.1166	-0.088
Mof_N 	N 	0.2142	0.8676	0.2021	-0.064
Mof_O 	O 	0.3185	0.7401	0.549	-0.472
Mof_O 	O 	0.142	0.8156	0.703	-0.415
Mof_O 	O 	0.4862	0.7729	0.6523	-0.5
Mof_O 	O 	0.3833	0.6815	0.7886	-0.341
Mof_O 	O 	0.1511	0.0055	0.8349	-0.513
Mof_O 	O 	0.2408	0.0268	0.6459	-0.516
Mof_O 	O 	0.1758	0.4171	0.7055	-0.247
Mof_O 	O 	0.8901	0.368	0.6239	-0.26
Mof_O 	O 	0.8278	0.7341	0.6687	-0.261
Mof_O 	O 	0.9497	0.1678	0.056	-0.506
Mof_H 	H 	0.58311	0.71135	0.37944	0.025
Mof_H 	H 	0.70908	0.22456	0.04495	-0.008
Mof_Zn	Zn	-0	0	-0	1.194
_end
