data_functionalizedCrystal
_audit_creation_method	'EQeq! by Chris Wilmer'
_symmetry_space_group_name_H-M	'P1'
_symmetry_Int_Tables_number	1
_symmetry_cell_setting	triclinic
loop_
_symmetry_equiv_pos_as_xyz
  x,y,z
_cell_length_a	8.7151
_cell_length_b	8.7151
_cell_length_c	19.011
_cell_angle_alpha	90
_cell_angle_beta	90
_cell_angle_gamma	120
loop_
_atom_site_label
_atom_site_type_symbol
_atom_site_fract_x
_atom_site_fract_y
_atom_site_fract_z
_atom_site_charge
Mof_Co	Co	0.66667	0.33333	0.33333	1.148
Mof_Co	Co	0.33333	0.66667	0.66667	1.146
Mof_Co	Co	-0	0	-0	0.996
Mof_K 	K 	-1.00935e-32	-2.01869e-32	0.5	1.524
Mof_K 	K 	0.66667	0.33333	0.83333	2.399
Mof_K 	K 	0.33333	0.66667	0.16667	2.314
Mof_N 	N 	0.83425	0.6685	0.42266	-0.172
Mof_C 	C 	0.7704	0.5408	0.39003	-0.24
Mof_N 	N 	0.50092	0.00183	0.75599	-0.412
Mof_C 	C 	0.43707	0.87413	0.72336	-0.118
Mof_N 	N 	0.16758	0.33517	0.08933	-0.305
Mof_C 	C 	0.10373	0.20747	0.0567	-0.406
Mof_N 	N 	0.3315	0.16575	0.42266	-0.26
Mof_C 	C 	0.4592	0.2296	0.39003	-0.287
Mof_N 	N 	0.99817	0.49908	0.75599	-0.189
Mof_C 	C 	0.12587	0.56293	0.72336	-0.394
Mof_N 	N 	0.66483	0.83242	0.08933	-0.303
Mof_C 	C 	0.79253	0.89627	0.0567	-0.159
Mof_N 	N 	0.83425	0.16575	0.42266	-0.216
Mof_C 	C 	0.7704	0.2296	0.39003	-0.264
Mof_N 	N 	0.50092	0.49908	0.75599	-0.294
Mof_C 	C 	0.43707	0.56293	0.72336	-0.264
Mof_N 	N 	0.16758	0.83242	0.08933	-0.304
Mof_C 	C 	0.10373	0.89627	0.0567	-0.268
Mof_N 	N 	0.6685	0.83425	0.57734	-0.172
Mof_C 	C 	0.5408	0.7704	0.60997	-0.241
Mof_N 	N 	0.33517	0.16758	0.91067	-0.308
Mof_C 	C 	0.20747	0.10373	0.9433	-0.336
Mof_N 	N 	0.00183	0.50092	0.24401	-0.397
Mof_C 	C 	0.87413	0.43707	0.27664	-0.134
Mof_N 	N 	0.16575	0.3315	0.57734	-0.26
Mof_C 	C 	0.2296	0.4592	0.60997	-0.286
Mof_N 	N 	0.83242	0.66483	0.91067	-0.306
Mof_C 	C 	0.89627	0.79253	0.9433	-0.094
Mof_N 	N 	0.49908	0.99817	0.24401	-0.172
Mof_C 	C 	0.56293	0.12587	0.27664	-0.412
Mof_N 	N 	0.16575	0.83425	0.57734	-0.211
Mof_C 	C 	0.2296	0.7704	0.60997	-0.262
Mof_N 	N 	0.83242	0.16758	0.91067	-0.308
Mof_C 	C 	0.89627	0.10373	0.9433	-0.215
Mof_N 	N 	0.49908	0.50092	0.24401	-0.291
Mof_C 	C 	0.56293	0.43707	0.27664	-0.267
_end
