data_functionalizedCrystal
_audit_creation_method	'EQeq! by Chris Wilmer'
_symmetry_space_group_name_H-M	'P1'
_symmetry_Int_Tables_number	1
_symmetry_cell_setting	triclinic
loop_
_symmetry_equiv_pos_as_xyz
  x,y,z
_cell_length_a	13.0843
_cell_length_b	25.4045
_cell_length_c	16.3416
_cell_angle_alpha	90
_cell_angle_beta	93.974
_cell_angle_gamma	90
loop_
_atom_site_label
_atom_site_type_symbol
_atom_site_fract_x
_atom_site_fract_y
_atom_site_fract_z
_atom_site_charge
Mof_C 	C 	0.54776	0.78317	0.47782	0.041
Mof_C 	C 	0.67354	0.73818	0.40145	0.009
Mof_H 	H 	0.6972	0.7071	0.3793	0.042
Mof_C 	C 	0.22458	0.90102	0.26943	0.34
Mof_C 	C 	0.82948	0.67126	0.06082	0.349
Mof_C 	C 	0.94466	0.741	0.26655	0.129
Mof_C 	C 	0.91795	0.70104	0.02906	-0.116
Mof_C 	C 	0.11943	0.72905	0.18648	0.018
Mof_H 	H 	0.1791	0.7248	0.1593	0.022
Mof_C 	C 	0.72654	0.78457	0.39181	-0.066
Mof_C 	C 	0.58561	0.73761	0.44378	-0.085
Mof_H 	H 	0.551	0.706	0.4496	0.077
Mof_C 	C 	0.82156	0.78948	0.34581	0.233
Mof_C 	C 	0.99493	0.78369	0.23377	-0.04
Mof_H 	H 	0.9682	0.8173	0.2391	0.058
Mof_C 	C 	0.98494	0.6911	0.25754	-0.1
Mof_H 	H 	0.9529	0.6619	0.2786	0.09
Mof_C 	C 	0.2973	0.9528	0.38985	0.057
Mof_H 	H 	0.3153	0.9211	0.4155	0.041
Mof_C 	C 	0.6902	0.83007	0.42625	0.012
Mof_H 	H 	0.7254	0.8615	0.4209	0.061
Mof_C 	C 	0.24769	0.9524	0.31204	-0.082
Mof_C 	C 	0.07296	0.68535	0.2171	-0.029
Mof_H 	H 	0.101	0.6521	0.2105	0.057
Mof_C 	C 	0.91798	0.75554	0.02881	0.089
Mof_H 	H 	0.8629	0.7738	0.048	0.008
Mof_C 	C 	0.6025	0.82944	0.46827	-0.087
Mof_H 	H 	0.5794	0.8606	0.4907	0.084
Mof_N 	N 	0.08112	0.77729	0.19471	-0.23
Mof_N 	N 	0.85458	0.74591	0.30873	-0.247
Mof_H 	H 	0.8169	0.7183	0.311	0.152
Mof_O 	O 	0.26423	0.86029	0.2966	-0.327
Mof_O 	O 	0.1641	0.90349	0.20457	-0.43
Mof_O 	O 	0.3855	0.95705	0.55028	-0.218
Mof_O 	O 	0.86718	0.83111	0.34337	-0.227
Mof_O 	O 	0.7694	0.69844	0.10246	-0.458
Mof_O 	O 	0.81741	0.62457	0.04569	-0.29
Mof_O 	O 	0.05888	0.86626	0.05091	-0.429
Mof_Zn	Zn	0.15353	0.83879	0.14203	1.225
Mof_C 	C 	0.04776	0.28317	0.47782	0.024
Mof_C 	C 	0.17354	0.23818	0.40145	-0
Mof_H 	H 	0.1972	0.2071	0.3793	0.043
Mof_C 	C 	0.72458	0.40102	0.26943	0.343
Mof_C 	C 	0.32948	0.17126	0.06082	0.35
Mof_C 	C 	0.44466	0.241	0.26655	0.137
Mof_C 	C 	0.41795	0.20104	0.02906	-0.125
Mof_C 	C 	0.61943	0.22905	0.18648	0.009
Mof_H 	H 	0.6791	0.2248	0.1593	0.026
Mof_C 	C 	0.22654	0.28457	0.39181	-0.062
Mof_C 	C 	0.08561	0.23761	0.44378	-0.075
Mof_H 	H 	0.051	0.206	0.4496	0.071
Mof_C 	C 	0.32156	0.28948	0.34581	0.232
Mof_C 	C 	0.49493	0.28369	0.23377	-0.053
Mof_H 	H 	0.4682	0.3173	0.2391	0.06
Mof_C 	C 	0.48494	0.1911	0.25754	-0.121
Mof_H 	H 	0.4529	0.1619	0.2786	0.095
Mof_C 	C 	0.7973	0.4528	0.38985	0.045
Mof_H 	H 	0.8153	0.4211	0.4155	0.044
Mof_C 	C 	0.1902	0.33007	0.42625	0.004
Mof_H 	H 	0.2254	0.3615	0.4209	0.062
Mof_C 	C 	0.74769	0.4524	0.31204	-0.095
Mof_C 	C 	0.57296	0.18535	0.2171	-0.008
Mof_H 	H 	0.601	0.1521	0.2105	0.05
Mof_C 	C 	0.41798	0.25554	0.02881	0.085
Mof_H 	H 	0.3629	0.2738	0.048	0.009
Mof_C 	C 	0.1025	0.32944	0.46827	-0.078
Mof_H 	H 	0.0794	0.3606	0.4907	0.078
Mof_N 	N 	0.58112	0.27729	0.19471	-0.224
Mof_N 	N 	0.35458	0.24591	0.30873	-0.249
Mof_H 	H 	0.3169	0.2183	0.311	0.152
Mof_O 	O 	0.76423	0.36029	0.2966	-0.327
Mof_O 	O 	0.6641	0.40349	0.20457	-0.433
Mof_O 	O 	0.8855	0.45705	0.55028	-0.23
Mof_O 	O 	0.36718	0.33111	0.34337	-0.23
Mof_O 	O 	0.2694	0.19844	0.10246	-0.459
Mof_O 	O 	0.31741	0.12457	0.04569	-0.295
Mof_O 	O 	0.55888	0.36626	0.05091	-0.431
Mof_Zn	Zn	0.65353	0.33879	0.14203	1.225
Mof_C 	C 	0.45224	0.78317	0.52218	0.041
Mof_C 	C 	0.32646	0.73818	0.59855	0.009
Mof_H 	H 	0.3028	0.7071	0.6207	0.041
Mof_C 	C 	0.77542	0.90102	0.73057	0.339
Mof_C 	C 	0.17052	0.67126	0.93918	0.347
Mof_C 	C 	0.05534	0.741	0.73345	0.147
Mof_C 	C 	0.08205	0.70104	0.97094	-0.102
Mof_C 	C 	0.88057	0.72905	0.81352	0.003
Mof_H 	H 	0.8209	0.7248	0.8407	0.034
Mof_C 	C 	0.27346	0.78457	0.60819	-0.067
Mof_C 	C 	0.41439	0.73761	0.55622	-0.086
Mof_H 	H 	0.449	0.706	0.5504	0.077
Mof_C 	C 	0.17844	0.78948	0.65419	0.234
Mof_C 	C 	0.00507	0.78369	0.76623	-0.065
Mof_H 	H 	0.0318	0.8173	0.7609	0.065
Mof_C 	C 	0.01506	0.6911	0.74246	-0.141
Mof_H 	H 	0.0471	0.6619	0.7214	0.102
Mof_C 	C 	0.7027	0.9528	0.61015	0.056
Mof_H 	H 	0.6847	0.9211	0.5845	0.042
Mof_C 	C 	0.3098	0.83007	0.57375	0.013
Mof_H 	H 	0.2746	0.8615	0.5791	0.06
Mof_C 	C 	0.75231	0.9524	0.68796	-0.078
Mof_C 	C 	0.92704	0.68535	0.7829	0.013
Mof_H 	H 	0.899	0.6521	0.7895	0.049
Mof_C 	C 	0.08202	0.75554	0.97119	0.104
Mof_H 	H 	0.1371	0.7738	0.952	0.013
Mof_C 	C 	0.3975	0.82944	0.53173	-0.088
Mof_H 	H 	0.4206	0.8606	0.5093	0.084
Mof_N 	N 	0.91888	0.77729	0.80529	-0.215
Mof_N 	N 	0.14542	0.74591	0.69127	-0.251
Mof_H 	H 	0.1831	0.7183	0.689	0.153
Mof_O 	O 	0.73577	0.86029	0.7034	-0.325
Mof_O 	O 	0.8359	0.90349	0.79543	-0.424
Mof_O 	O 	0.6145	0.95705	0.44972	-0.219
Mof_O 	O 	0.13282	0.83111	0.65663	-0.23
Mof_O 	O 	0.2306	0.69844	0.89754	-0.451
Mof_O 	O 	0.18259	0.62457	0.95431	-0.279
Mof_O 	O 	0.94112	0.86626	0.94909	-0.401
Mof_Zn	Zn	0.84647	0.83879	0.85797	1.227
Mof_C 	C 	0.95224	0.28317	0.52218	0.058
Mof_C 	C 	0.82646	0.23818	0.59855	0.017
Mof_H 	H 	0.8028	0.2071	0.6207	0.038
Mof_C 	C 	0.27542	0.40102	0.73057	0.342
Mof_C 	C 	0.67052	0.17126	0.93918	0.349
Mof_C 	C 	0.55534	0.241	0.73345	0.138
Mof_C 	C 	0.58205	0.20104	0.97094	-0.105
Mof_C 	C 	0.38057	0.22905	0.81352	0.011
Mof_H 	H 	0.3209	0.2248	0.8407	0.03
Mof_C 	C 	0.77346	0.28457	0.60819	-0.073
Mof_C 	C 	0.91439	0.23761	0.55622	-0.096
Mof_H 	H 	0.949	0.206	0.5504	0.083
Mof_C 	C 	0.67844	0.28948	0.65419	0.236
Mof_C 	C 	0.50507	0.28369	0.76623	-0.052
Mof_H 	H 	0.5318	0.3173	0.7609	0.062
Mof_C 	C 	0.51506	0.1911	0.74246	-0.121
Mof_H 	H 	0.5471	0.1619	0.7214	0.096
Mof_C 	C 	0.2027	0.4528	0.61015	0.044
Mof_H 	H 	0.1847	0.4211	0.5845	0.043
Mof_C 	C 	0.8098	0.33007	0.57375	0.021
Mof_H 	H 	0.7746	0.3615	0.5791	0.057
Mof_C 	C 	0.25231	0.4524	0.68796	-0.094
Mof_C 	C 	0.42704	0.18535	0.7829	-0.007
Mof_H 	H 	0.399	0.1521	0.7895	0.054
Mof_C 	C 	0.58202	0.25554	0.97119	0.106
Mof_H 	H 	0.6371	0.2738	0.952	0.013
Mof_C 	C 	0.8975	0.32944	0.53173	-0.099
Mof_H 	H 	0.9206	0.3606	0.5093	0.089
Mof_N 	N 	0.41888	0.27729	0.80529	-0.222
Mof_N 	N 	0.64542	0.24591	0.69127	-0.25
Mof_H 	H 	0.6831	0.2183	0.689	0.153
Mof_O 	O 	0.23577	0.36029	0.7034	-0.328
Mof_O 	O 	0.3359	0.40349	0.79543	-0.43
Mof_O 	O 	0.1145	0.45705	0.44972	-0.235
Mof_O 	O 	0.63282	0.33111	0.65663	-0.23
Mof_O 	O 	0.7306	0.19844	0.89754	-0.452
Mof_O 	O 	0.68259	0.12457	0.95431	-0.28
Mof_O 	O 	0.44112	0.36626	0.94909	-0.41
Mof_Zn	Zn	0.34647	0.33879	0.85797	1.227
Mof_C 	C 	0.45224	0.21683	0.52218	0.041
Mof_C 	C 	0.32646	0.26182	0.59855	0.009
Mof_H 	H 	0.3028	0.2929	0.6207	0.04
Mof_C 	C 	0.77542	0.09898	0.73057	0.34
Mof_C 	C 	0.17052	0.32874	0.93918	0.347
Mof_C 	C 	0.05534	0.259	0.73345	0.146
Mof_C 	C 	0.08205	0.29896	0.97094	-0.103
Mof_C 	C 	0.88057	0.27095	0.81352	0.003
Mof_H 	H 	0.8209	0.2752	0.8407	0.034
Mof_C 	C 	0.27346	0.21543	0.60819	-0.068
Mof_C 	C 	0.41439	0.26239	0.55622	-0.086
Mof_H 	H 	0.449	0.294	0.5504	0.077
Mof_C 	C 	0.17844	0.21052	0.65419	0.235
Mof_C 	C 	0.00507	0.21631	0.76623	-0.065
Mof_H 	H 	0.0318	0.1827	0.7609	0.063
Mof_C 	C 	0.01506	0.3089	0.74246	-0.141
Mof_H 	H 	0.0471	0.3381	0.7214	0.102
Mof_C 	C 	0.7027	0.0472	0.61015	0.042
Mof_H 	H 	0.6847	0.0789	0.5845	0.044
Mof_C 	C 	0.3098	0.16993	0.57375	0.014
Mof_H 	H 	0.2746	0.1385	0.5791	0.058
Mof_C 	C 	0.75231	0.0476	0.68796	-0.089
Mof_C 	C 	0.92704	0.31465	0.7829	0.013
Mof_H 	H 	0.899	0.3479	0.7895	0.049
Mof_C 	C 	0.08202	0.24446	0.97119	0.105
Mof_H 	H 	0.1371	0.2262	0.952	0.013
Mof_C 	C 	0.3975	0.17056	0.53173	-0.089
Mof_H 	H 	0.4206	0.1394	0.5093	0.084
Mof_N 	N 	0.91888	0.22271	0.80529	-0.216
Mof_N 	N 	0.14542	0.25409	0.69127	-0.251
Mof_H 	H 	0.1831	0.2817	0.689	0.153
Mof_O 	O 	0.73577	0.13971	0.7034	-0.326
Mof_O 	O 	0.8359	0.09651	0.79543	-0.429
Mof_O 	O 	0.6145	0.04295	0.44972	-0.231
Mof_O 	O 	0.13282	0.16889	0.65663	-0.232
Mof_O 	O 	0.2306	0.30156	0.89754	-0.452
Mof_O 	O 	0.18259	0.37543	0.95431	-0.279
Mof_O 	O 	0.94112	0.13374	0.94909	-0.405
Mof_Zn	Zn	0.84647	0.16121	0.85797	1.227
Mof_C 	C 	0.95224	0.71683	0.52218	0.058
Mof_C 	C 	0.82646	0.76182	0.59855	0.018
Mof_H 	H 	0.8028	0.7929	0.6207	0.038
Mof_C 	C 	0.27542	0.59898	0.73057	0.342
Mof_C 	C 	0.67052	0.82874	0.93918	0.348
Mof_C 	C 	0.55534	0.759	0.73345	0.138
Mof_C 	C 	0.58205	0.79896	0.97094	-0.103
Mof_C 	C 	0.38057	0.77095	0.81352	0.012
Mof_H 	H 	0.3209	0.7752	0.8407	0.03
Mof_C 	C 	0.77346	0.71543	0.60819	-0.073
Mof_C 	C 	0.91439	0.76239	0.55622	-0.096
Mof_H 	H 	0.949	0.794	0.5504	0.084
Mof_C 	C 	0.67844	0.71052	0.65419	0.236
Mof_C 	C 	0.50507	0.71631	0.76623	-0.052
Mof_H 	H 	0.5318	0.6827	0.7609	0.061
Mof_C 	C 	0.51506	0.8089	0.74246	-0.121
Mof_H 	H 	0.5471	0.8381	0.7214	0.097
Mof_C 	C 	0.2027	0.5472	0.61015	0.044
Mof_H 	H 	0.1847	0.5789	0.5845	0.043
Mof_C 	C 	0.8098	0.66993	0.57375	0.021
Mof_H 	H 	0.7746	0.6385	0.5791	0.057
Mof_C 	C 	0.25231	0.5476	0.68796	-0.094
Mof_C 	C 	0.42704	0.81465	0.7829	-0.008
Mof_H 	H 	0.399	0.8479	0.7895	0.056
Mof_C 	C 	0.58202	0.74446	0.97119	0.105
Mof_H 	H 	0.6371	0.7262	0.952	0.013
Mof_C 	C 	0.8975	0.67056	0.53173	-0.099
Mof_H 	H 	0.9206	0.6394	0.5093	0.089
Mof_N 	N 	0.41888	0.72271	0.80529	-0.222
Mof_N 	N 	0.64542	0.75409	0.69127	-0.25
Mof_H 	H 	0.6831	0.7817	0.689	0.153
Mof_O 	O 	0.23577	0.63971	0.7034	-0.328
Mof_O 	O 	0.3359	0.59651	0.79543	-0.43
Mof_O 	O 	0.1145	0.54295	0.44972	-0.235
Mof_O 	O 	0.63282	0.66889	0.65663	-0.23
Mof_O 	O 	0.7306	0.80156	0.89754	-0.451
Mof_O 	O 	0.68259	0.87543	0.95431	-0.275
Mof_O 	O 	0.44112	0.63374	0.94909	-0.41
Mof_Zn	Zn	0.34647	0.66121	0.85797	1.227
Mof_C 	C 	0.54776	0.21683	0.47782	0.041
Mof_C 	C 	0.67354	0.26182	0.40145	0.009
Mof_H 	H 	0.6972	0.2929	0.3793	0.041
Mof_C 	C 	0.22458	0.09898	0.26943	0.34
Mof_C 	C 	0.82948	0.32874	0.06082	0.348
Mof_C 	C 	0.94466	0.259	0.26655	0.129
Mof_C 	C 	0.91795	0.29896	0.02906	-0.117
Mof_C 	C 	0.11943	0.27095	0.18648	0.018
Mof_H 	H 	0.1791	0.2752	0.1593	0.022
Mof_C 	C 	0.72654	0.21543	0.39181	-0.067
Mof_C 	C 	0.58561	0.26239	0.44378	-0.085
Mof_H 	H 	0.551	0.294	0.4496	0.077
Mof_C 	C 	0.82156	0.21052	0.34581	0.234
Mof_C 	C 	0.99493	0.21631	0.23377	-0.039
Mof_H 	H 	0.9682	0.1827	0.2391	0.057
Mof_C 	C 	0.98494	0.3089	0.25754	-0.1
Mof_H 	H 	0.9529	0.3381	0.2786	0.09
Mof_C 	C 	0.2973	0.0472	0.38985	0.043
Mof_H 	H 	0.3153	0.0789	0.4155	0.043
Mof_C 	C 	0.6902	0.16993	0.42625	0.013
Mof_H 	H 	0.7254	0.1385	0.4209	0.059
Mof_C 	C 	0.24769	0.0476	0.31204	-0.092
Mof_C 	C 	0.07296	0.31465	0.2171	-0.029
Mof_H 	H 	0.101	0.3479	0.2105	0.057
Mof_C 	C 	0.91798	0.24446	0.02881	0.09
Mof_H 	H 	0.8629	0.2262	0.048	0.008
Mof_C 	C 	0.6025	0.17056	0.46827	-0.088
Mof_H 	H 	0.5794	0.1394	0.4907	0.084
Mof_N 	N 	0.08112	0.22271	0.19471	-0.231
Mof_N 	N 	0.85458	0.25409	0.30873	-0.247
Mof_H 	H 	0.8169	0.2817	0.311	0.152
Mof_O 	O 	0.26423	0.13971	0.2966	-0.328
Mof_O 	O 	0.1641	0.09651	0.20457	-0.435
Mof_O 	O 	0.3855	0.04295	0.55028	-0.231
Mof_O 	O 	0.86718	0.16889	0.34337	-0.23
Mof_O 	O 	0.7694	0.30156	0.10246	-0.458
Mof_O 	O 	0.81741	0.37543	0.04569	-0.29
Mof_O 	O 	0.05888	0.13374	0.05091	-0.433
Mof_Zn	Zn	0.15353	0.16121	0.14203	1.225
Mof_C 	C 	0.04776	0.71683	0.47782	0.024
Mof_C 	C 	0.17354	0.76182	0.40145	0
Mof_H 	H 	0.1972	0.7929	0.3793	0.043
Mof_C 	C 	0.72458	0.59898	0.26943	0.343
Mof_C 	C 	0.32948	0.82874	0.06082	0.349
Mof_C 	C 	0.44466	0.759	0.26655	0.137
Mof_C 	C 	0.41795	0.79896	0.02906	-0.123
Mof_C 	C 	0.61943	0.77095	0.18648	0.01
Mof_H 	H 	0.6791	0.7752	0.1593	0.026
Mof_C 	C 	0.22654	0.71543	0.39181	-0.062
Mof_C 	C 	0.08561	0.76239	0.44378	-0.075
Mof_H 	H 	0.051	0.794	0.4496	0.071
Mof_C 	C 	0.32156	0.71052	0.34581	0.232
Mof_C 	C 	0.49493	0.71631	0.23377	-0.052
Mof_H 	H 	0.4682	0.6827	0.2391	0.06
Mof_C 	C 	0.48494	0.8089	0.25754	-0.121
Mof_H 	H 	0.4529	0.8381	0.2786	0.096
Mof_C 	C 	0.7973	0.5472	0.38985	0.045
Mof_H 	H 	0.8153	0.5789	0.4155	0.044
Mof_C 	C 	0.1902	0.66993	0.42625	0.004
Mof_H 	H 	0.2254	0.6385	0.4209	0.062
Mof_C 	C 	0.74769	0.5476	0.31204	-0.095
Mof_C 	C 	0.57296	0.81465	0.2171	-0.009
Mof_H 	H 	0.601	0.8479	0.2105	0.053
Mof_C 	C 	0.41798	0.74446	0.02881	0.083
Mof_H 	H 	0.3629	0.7262	0.048	0.009
Mof_C 	C 	0.1025	0.67056	0.46827	-0.078
Mof_H 	H 	0.0794	0.6394	0.4907	0.078
Mof_N 	N 	0.58112	0.72271	0.19471	-0.224
Mof_N 	N 	0.35458	0.75409	0.30873	-0.249
Mof_H 	H 	0.3169	0.7817	0.311	0.152
Mof_O 	O 	0.76423	0.63971	0.2966	-0.327
Mof_O 	O 	0.6641	0.59651	0.20457	-0.433
Mof_O 	O 	0.8855	0.54295	0.55028	-0.23
Mof_O 	O 	0.36718	0.66889	0.34337	-0.23
Mof_O 	O 	0.2694	0.80156	0.10246	-0.458
Mof_O 	O 	0.31741	0.87543	0.04569	-0.29
Mof_O 	O 	0.55888	0.63374	0.05091	-0.431
Mof_Zn	Zn	0.65353	0.66121	0.14203	1.225
Mof_C 	C 	0.222	-2.32922e-33	0.2747	0.025
Mof_H 	H 	0.1867	0	0.2233	0.063
Mof_C 	C 	0.3205	0	0.4298	-0.101
Mof_C 	C 	0.3685	0	0.5153	0.306
Mof_C 	C 	0.722	0.5	0.2747	0.046
Mof_H 	H 	0.6867	0.5	0.2233	0.062
Mof_C 	C 	0.8205	0.5	0.4298	-0.088
Mof_C 	C 	0.8685	0.5	0.5153	0.321
Mof_C 	C 	0.778	0	0.7253	0.023
Mof_H 	H 	0.8133	0	0.7767	0.068
Mof_C 	C 	0.6795	-4.65844e-33	0.5702	-0.099
Mof_C 	C 	0.6315	2.32922e-33	0.4847	0.306
Mof_C 	C 	0.278	0.5	0.7253	0.045
Mof_H 	H 	0.3133	0.5	0.7767	0.065
Mof_C 	C 	0.1795	0.5	0.5702	-0.089
Mof_C 	C 	0.1315	0.5	0.4847	0.32
Mof_C 	C 	-0	0.6739	-0	0.02
Mof_H 	H 	9.31687e-33	0.6373	-0	0.05
Mof_C 	C 	-0	0.78304	-0	-0.253
Mof_C 	C 	-0	0.84201	-0	0.378
Mof_C 	C 	0.5	0.1739	-0	0.031
Mof_H 	H 	0.5	0.1373	-0	0.047
Mof_C 	C 	0.5	0.28304	-0	-0.248
Mof_C 	C 	0.5	0.34201	-0	0.385
Mof_C 	C 	-4.65844e-33	0.3261	-0	0.02
Mof_H 	H 	-0	0.3627	-0	0.05
Mof_C 	C 	-0	0.21696	-0	-0.254
Mof_C 	C 	2.32922e-33	0.15799	-0	0.379
Mof_C 	C 	0.5	0.8261	-0	0.029
Mof_H 	H 	0.5	0.8627	-0	0.051
Mof_C 	C 	0.5	0.71696	-0	-0.247
Mof_C 	C 	0.5	0.65799	-0	0.384
_end
