data_functionalizedCrystal
_audit_creation_method	'EQeq! by Chris Wilmer'
_symmetry_space_group_name_H-M	'P1'
_symmetry_Int_Tables_number	1
_symmetry_cell_setting	triclinic
loop_
_symmetry_equiv_pos_as_xyz
  x,y,z
_cell_length_a	27.2895
_cell_length_b	27.2892
_cell_length_c	27.2892
_cell_angle_alpha	109.471
_cell_angle_beta	109.471
_cell_angle_gamma	109.471
loop_
_atom_site_label
_atom_site_type_symbol
_atom_site_fract_x
_atom_site_fract_y
_atom_site_fract_z
_atom_site_charge
Mof_Zn	Zn	0.25	0.375	0.125	1.18
Mof_Zn	Zn	0.375	0.625	0.75	1.18
Mof_Zn	Zn	0.75	0.125	0.375	1.18
Mof_Zn	Zn	0.625	0.375	0.25	1.18
Mof_Zn	Zn	0.125	0.875	0.25	1.18
Mof_Zn	Zn	0.875	0.125	0.75	1.18
Mof_Zn	Zn	0.375	0.75	0.125	1.18
Mof_Zn	Zn	0.625	0.25	0.875	1.18
Mof_Zn	Zn	0.125	0.25	0.375	1.18
Mof_Zn	Zn	0.25	0.875	0.625	1.18
Mof_Zn	Zn	0.875	0.75	0.625	1.18
Mof_Zn	Zn	0.75	0.625	0.875	1.18
Mof_H 	H 	0.8562	0.8137	0.7325	0.018
Mof_H 	H 	0.2203	0.0877	0.9514	0.004
Mof_H 	H 	0.1083	0.7069	0.2058	0.083
Mof_H 	H 	0.9123	0.5486	0.2797	0.004
Mof_H 	H 	0.6144	0.5949	0.2245	0.008
Mof_H 	H 	0.1863	0.7675	0.6438	0.018
Mof_H 	H 	0.4805	0.8856	0.6101	0.008
Mof_H 	H 	0.9575	0.0812	0.8137	0.018
Mof_H 	H 	0.1296	0.5195	0.9051	0.008
Mof_H 	H 	0.2686	0.916	0.146	0.037
Mof_H 	H 	0.339	0.07	0.0384	0.064
Mof_H 	H 	0.9014	0.2931	0.4989	0.083
Mof_H 	H 	0.9632	0.2151	0.1637	0.091
Mof_H 	H 	0.1863	0.4188	0.0425	0.018
Mof_H 	H 	0.1083	0.4014	0.4025	0.083
Mof_H 	H 	0.3704	0.0949	0.4805	0.008
Mof_H 	H 	0.1637	0.4486	0.7005	0.091
Mof_H 	H 	0.7245	0.1101	0.1296	0.008
Mof_H 	H 	0.8899	0.5195	0.6144	0.008
Mof_H 	H 	0.661	0.731	0.1994	0.064
Mof_H 	H 	0.731	0.6994	0.161	0.064
Mof_H 	H 	0.7697	0.2039	0.6356	0.034
Mof_H 	H 	0.3137	0.3562	0.2325	0.018
Mof_H 	H 	0.3917	0.7942	0.2931	0.083
Mof_H 	H 	0.231	0.07	0.0316	0.064
Mof_H 	H 	0.339	0.269	0.8006	0.064
Mof_H 	H 	0.9342	0.7303	0.8659	0.034
Mof_H 	H 	0.7755	0.9051	0.3856	0.008
Mof_H 	H 	0.769	0.93	0.9684	0.064
Mof_H 	H 	0.2069	0.6083	0.7058	0.083
Mof_H 	H 	0.3644	0.0683	0.6341	0.034
Mof_H 	H 	0.9188	0.6863	0.5425	0.018
Mof_H 	H 	0.4989	0.7058	0.0975	0.083
Mof_H 	H 	0.7039	0.2697	0.1356	0.034
Mof_H 	H 	0.1994	0.231	0.661	0.064
Mof_H 	H 	0.3363	0.0368	0.2849	0.091
Mof_H 	H 	0.9051	0.0195	0.1296	0.009
Mof_H 	H 	0.6326	0.7203	0.2689	0.005
Mof_H 	H 	0.43	0.161	0.4616	0.065
Mof_H 	H 	0.5877	0.7203	0.4514	0.005
Mof_H 	H 	0.7325	0.3137	0.8562	0.019
Mof_H 	H 	0.4025	0.9014	0.1083	0.084
Mof_H 	H 	0.5812	0.1237	0.7675	0.019
Mof_H 	H 	0.3659	0.9342	0.2303	0.035
Mof_H 	H 	0.5368	0.8363	0.7849	0.092
Mof_H 	H 	0.2039	0.0683	0.4342	0.035
Mof_H 	H 	0.7797	0.9123	0.0486	0.005
Mof_H 	H 	0.8704	0.4805	0.0949	0.009
Mof_H 	H 	0.2931	0.2942	0.3917	0.084
Mof_H 	H 	0.8659	0.6356	0.4317	0.035
Mof_H 	H 	0.8137	0.5812	0.9575	0.019
Mof_H 	H 	0.2058	0.2069	0.1083	0.084
Mof_H 	H 	0.0486	0.4123	0.7797	0.005
Mof_H 	H 	0.3704	0.2755	0.3899	0.009
Mof_H 	H 	0.7058	0.1083	0.2069	0.084
Mof_H 	H 	0.269	0.3006	0.839	0.065
Mof_H 	H 	0.8363	0.5514	0.2995	0.092
Mof_H 	H 	0.5877	0.8674	0.6363	0.005
Mof_H 	H 	0.354	0.7314	0.584	0.038
Mof_H 	H 	0.4514	0.2311	0.3637	0.005
Mof_H 	H 	0.2995	0.2481	0.9632	0.092
Mof_H 	H 	0.7314	0.084	0.854	0.038
Mof_H 	H 	0.4188	0.8763	0.2325	0.019
Mof_H 	H 	0.8006	0.769	0.339	0.065
Mof_H 	H 	0.3006	0.339	0.769	0.065
Mof_H 	H 	0.6237	0.5425	0.8562	0.019
Mof_H 	H 	0.7675	0.1438	0.6863	0.019
Mof_H 	H 	0.9317	0.0658	0.2961	0.035
Mof_H 	H 	0.3774	0.1474	0.7314	0.038
Mof_H 	H 	0.7151	0.4632	0.6637	0.092
Mof_H 	H 	0.3763	0.9188	0.7325	0.019
Mof_H 	H 	0.5384	0.339	0.57	0.065
Mof_H 	H 	0.2942	0.8917	0.7931	0.084
Mof_H 	H 	0.2325	0.3763	0.4188	0.019
Mof_H 	H 	0.9616	0.5316	0.8006	0.065
Mof_H 	H 	0.839	0.8006	0.269	0.065
Mof_H 	H 	0.5514	0.7519	0.7151	0.092
Mof_H 	H 	0.9025	0.1083	0.9014	0.084
Mof_H 	H 	0.1296	0.6101	0.7245	0.009
Mof_H 	H 	0.5384	0.1994	0.4684	0.065
Mof_H 	H 	0.8006	0.0316	0.9616	0.065
Mof_H 	H 	0.4014	0.9025	0.6083	0.084
Mof_H 	H 	0.3763	0.4575	0.1438	0.019
Mof_H 	H 	0.0986	0.7069	0.5011	0.084
Mof_H 	H 	0.0368	0.7849	0.8363	0.092
Mof_H 	H 	0.4051	0.1296	0.0195	0.009
Mof_H 	H 	0.2311	0.8637	0.9514	0.005
Mof_H 	H 	0.269	0.9684	0.93	0.065
Mof_H 	H 	0.4486	0.2481	0.2849	0.092
Mof_H 	H 	0.0316	0.4616	0.3006	0.065
Mof_H 	H 	0.0486	0.6363	0.7689	0.005
Mof_H 	H 	0.146	0.416	0.2686	0.038
Mof_H 	H 	0.2519	0.0514	0.2151	0.092
Mof_H 	H 	0.6237	0.0812	0.2675	0.019
Mof_H 	H 	0.9684	0.5384	0.6994	0.065
Mof_H 	H 	0.77	0.416	0.1474	0.038
Mof_H 	H 	0.7942	0.0011	0.4025	0.084
Mof_H 	H 	0.4632	0.1637	0.2151	0.092
Mof_H 	H 	0.7519	0.2151	0.0514	0.092
Mof_H 	H 	0.7151	0.2519	0.5514	0.092
Mof_H 	H 	0.854	0.27	0.6226	0.038
Mof_H 	H 	0.4025	0.5011	0.7942	0.084
Mof_H 	H 	0.77	0.354	0.1226	0.038
Mof_H 	H 	0.5683	0.7039	0.9342	0.035
Mof_H 	H 	0.2325	0.8562	0.3137	0.019
Mof_H 	H 	0.731	0.0316	0.07	0.065
Mof_H 	H 	0.3637	0.7311	0.4514	0.005
Mof_H 	H 	0.6083	0.4025	0.4014	0.084
Mof_H 	H 	0.0975	0.2058	0.4989	0.084
Mof_H 	H 	0.7686	0.146	0.916	0.038
Mof_H 	H 	0.7203	0.7689	0.1326	0.005
Mof_H 	H 	0.1438	0.1863	0.2675	0.019
Mof_H 	H 	0.2151	0.6637	0.4632	0.092
Mof_H 	H 	0.2303	0.7961	0.3644	0.035
Mof_H 	H 	0.7797	0.8674	0.2311	0.005
Mof_H 	H 	0.6363	0.3674	0.5877	0.005
Mof_H 	H 	0.7039	0.4342	0.0683	0.035
Mof_H 	H 	0.7481	0.9486	0.7849	0.092
Mof_H 	H 	0.084	0.73	0.3526	0.038
Mof_H 	H 	0.4342	0.5683	0.2039	0.035
Mof_H 	H 	0.3774	0.23	0.146	0.038
Mof_H 	H 	0.4123	0.1326	0.3637	0.005
Mof_H 	H 	0.8659	0.2303	0.9342	0.035
Mof_H 	H 	0.1237	0.2675	0.0812	0.019
Mof_H 	H 	0.2675	0.6863	0.1438	0.019
Mof_H 	H 	0.7849	0.3363	0.5368	0.092
Mof_H 	H 	0.7697	0.5658	0.6341	0.035
Mof_H 	H 	0.2675	0.5812	0.6237	0.019
Mof_H 	H 	0.3562	0.6237	0.0425	0.019
Mof_H 	H 	0.9486	0.6637	0.2005	0.092
Mof_H 	H 	0.1101	0.6296	0.2245	0.009
Mof_H 	H 	0.7519	0.5368	0.2005	0.092
Mof_H 	H 	0.7069	0.0011	0.5986	0.084
Mof_H 	H 	0.769	0.839	0.3006	0.065
Mof_H 	H 	0.3856	0.4051	0.7755	0.009
Mof_H 	H 	0.6101	0.3856	0.4805	0.009
Mof_H 	H 	0.73	0.8526	0.584	0.038
Mof_H 	H 	0.2069	0.5986	0.0011	0.084
Mof_H 	H 	0.2519	0.2005	0.5368	0.092
Mof_H 	H 	0.5949	0.7245	0.1144	0.009
Mof_H 	H 	0.6326	0.9123	0.8637	0.005
Mof_H 	H 	0.3856	0.9805	0.1101	0.009
Mof_H 	H 	0.2058	0.9989	0.5975	0.084
Mof_H 	H 	0.9188	0.2325	0.8763	0.019
Mof_H 	H 	0.6341	0.0658	0.7697	0.035
Mof_H 	H 	0.1474	0.2314	0.8774	0.038
Mof_H 	H 	0.2303	0.4342	0.3659	0.035
Mof_H 	H 	0.8774	0.7314	0.1474	0.038
Mof_H 	H 	0.1363	0.5877	0.3674	0.005
Mof_H 	H 	0.8363	0.2849	0.0368	0.092
Mof_H 	H 	0.2151	0.5514	0.2519	0.092
Mof_H 	H 	0.3006	0.9616	0.0316	0.065
Mof_H 	H 	0.3363	0.2995	0.5514	0.092
Mof_H 	H 	0.9989	0.9014	0.7931	0.084
Mof_H 	H 	0.8917	0.5986	0.5975	0.084
Mof_H 	H 	0.9632	0.7481	0.2995	0.092
Mof_H 	H 	0.1994	0.9684	0.0384	0.065
Mof_H 	H 	0.2689	0.0486	0.1363	0.005
Mof_H 	H 	0.7942	0.7931	0.8917	0.084
Mof_H 	H 	0.6637	0.9632	0.7151	0.092
Mof_H 	H 	0.8763	0.7325	0.9188	0.019
Mof_H 	H 	0.661	0.93	0.9616	0.065
Mof_H 	H 	0.0975	0.8917	0.0986	0.084
Mof_H 	H 	0.0368	0.2519	0.7005	0.092
Mof_H 	H 	0.4123	0.2797	0.5486	0.005
Mof_H 	H 	0.6863	0.0425	0.4188	0.019
Mof_H 	H 	0.9805	0.6101	0.8856	0.009
Mof_H 	H 	0.7203	0.9514	0.0877	0.005
Mof_H 	H 	0.6356	0.7039	0.7697	0.035
Mof_H 	H 	0.7849	0.4486	0.7481	0.092
Mof_H 	H 	0.2797	0.0486	0.9123	0.005
Mof_H 	H 	0.084	0.354	0.2314	0.038
Mof_H 	H 	0.3899	0.6144	0.5195	0.009
Mof_H 	H 	0.8917	0.2931	0.7942	0.084
Mof_H 	H 	0.4616	0.8006	0.5316	0.065
Mof_H 	H 	0.2961	0.5658	0.9317	0.035
Mof_H 	H 	0.6296	0.9051	0.5195	0.009
Mof_H 	H 	0.0384	0.57	0.339	0.065
Mof_H 	H 	0.6438	0.2675	0.1863	0.019
Mof_H 	H 	0.27	0.1474	0.416	0.038
Mof_H 	H 	0.1363	0.5486	0.2689	0.005
Mof_H 	H 	0.8644	0.6341	0.0683	0.035
Mof_H 	H 	0.6083	0.2058	0.7069	0.084
Mof_H 	H 	0.2931	0.9989	0.4014	0.084
Mof_H 	H 	0.7995	0.8363	0.0514	0.092
Mof_H 	H 	0.2314	0.854	0.084	0.038
Mof_H 	H 	0.5812	0.4575	0.3137	0.019
Mof_H 	H 	0.2755	0.8899	0.8704	0.009
Mof_H 	H 	0.646	0.3774	0.73	0.038
Mof_H 	H 	0.354	0.6226	0.27	0.038
Mof_H 	H 	0.0949	0.1144	0.7245	0.009
Mof_H 	H 	0.7325	0.4188	0.3763	0.019
Mof_H 	H 	0.0195	0.3899	0.1144	0.009
Mof_H 	H 	0.7961	0.9317	0.5658	0.035
Mof_H 	H 	0.6341	0.5683	0.3644	0.035
Mof_H 	H 	0.7961	0.8644	0.7303	0.035
Mof_H 	H 	0.0658	0.2697	0.1341	0.035
Mof_H 	H 	0.8704	0.3899	0.2755	0.009
Mof_H 	H 	0.7931	0.4014	0.9989	0.084
Mof_H 	H 	0.646	0.2686	0.416	0.038
Mof_H 	H 	0.161	0.9616	0.93	0.065
Mof_H 	H 	0.5368	0.7005	0.2519	0.092
Mof_H 	H 	0.584	0.3526	0.73	0.038
Mof_H 	H 	0.8856	0.7755	0.4051	0.009
Mof_H 	H 	0.4989	0.7931	0.9014	0.084
Mof_H 	H 	0.8644	0.2303	0.2961	0.035
Mof_H 	H 	0.9575	0.8763	0.6438	0.019
Mof_H 	H 	0.57	0.731	0.5316	0.065
Mof_H 	H 	0.9014	0.6083	0.9025	0.084
Mof_H 	H 	0.5011	0.2942	0.9025	0.084
Mof_H 	H 	0.2995	0.0514	0.8363	0.092
Mof_H 	H 	0.2961	0.7303	0.8644	0.035
Mof_H 	H 	0.27	0.1226	0.354	0.038
Mof_H 	H 	0.5486	0.7689	0.6363	0.005
Mof_H 	H 	0.07	0.5316	0.731	0.065
Mof_H 	H 	0.1326	0.2689	0.7203	0.005
Mof_H 	H 	0.6637	0.7005	0.4486	0.092
Mof_H 	H 	0.7314	0.6474	0.3774	0.038
Mof_H 	H 	0.8774	0.146	0.23	0.038
Mof_H 	H 	0.5975	0.4989	0.2058	0.084
Mof_H 	H 	0.2481	0.4632	0.7995	0.092
Mof_H 	H 	0.2849	0.7481	0.4486	0.092
Mof_H 	H 	0.8674	0.1363	0.0877	0.005
Mof_H 	H 	0.0425	0.1237	0.3562	0.019
Mof_H 	H 	0.5425	0.1863	0.9188	0.019
Mof_H 	H 	0.7303	0.3644	0.7961	0.035
Mof_H 	H 	0.6101	0.2245	0.6296	0.009
Mof_H 	H 	0.2314	0.3774	0.6474	0.038
Mof_H 	H 	0.0425	0.9188	0.1863	0.019
Mof_H 	H 	0.5683	0.8644	0.1341	0.035
Mof_H 	H 	0.3644	0.2961	0.2303	0.035
Mof_H 	H 	0.23	0.584	0.8526	0.038
Mof_H 	H 	0.4051	0.2755	0.8856	0.009
Mof_H 	H 	0.6474	0.77	0.916	0.038
Mof_H 	H 	0.0877	0.6363	0.8674	0.005
Mof_H 	H 	0.1438	0.9575	0.3763	0.019
Mof_H 	H 	0.7689	0.1363	0.0486	0.005
Mof_H 	H 	0.5949	0.8704	0.9805	0.009
Mof_H 	H 	0.7311	0.9514	0.8637	0.005
Mof_H 	H 	0.93	0.4616	0.161	0.065
Mof_H 	H 	0.8856	0.1101	0.9805	0.009
Mof_H 	H 	0.0986	0.3917	0.0975	0.084
Mof_H 	H 	0.9051	0.8856	0.2755	0.009
Mof_H 	H 	0.2686	0.3526	0.6226	0.038
Mof_H 	H 	0.2689	0.2203	0.6326	0.005
Mof_H 	H 	0.4188	0.5425	0.6863	0.019
Mof_H 	H 	0.8526	0.084	0.23	0.038
Mof_H 	H 	0.6994	0.0384	0.9684	0.065
Mof_H 	H 	0.3526	0.1226	0.7686	0.038
Mof_H 	H 	0.5316	0.231	0.57	0.065
Mof_H 	H 	0.1474	0.916	0.77	0.038
Mof_H 	H 	0.8763	0.1438	0.4575	0.019
Mof_H 	H 	0.07	0.5384	0.839	0.065
Mof_H 	H 	0.146	0.73	0.3774	0.038
Mof_H 	H 	0.7069	0.7058	0.6083	0.084
Mof_H 	H 	0.1356	0.7697	0.7039	0.035
Mof_H 	H 	0.1326	0.8637	0.9123	0.005
Mof_H 	H 	0.0011	0.9025	0.2942	0.084
Mof_H 	H 	0.3674	0.0877	0.1363	0.005
Mof_H 	H 	0.2755	0.3856	0.9051	0.009
Mof_H 	H 	0.8562	0.0425	0.6237	0.019
Mof_H 	H 	0.2245	0.0949	0.6144	0.009
Mof_H 	H 	0.6474	0.8774	0.2314	0.038
Mof_H 	H 	0.4317	0.1356	0.8659	0.035
Mof_H 	H 	0.7686	0.6226	0.3526	0.038
Mof_H 	H 	0.7755	0.8704	0.8899	0.009
Mof_H 	H 	0.7303	0.3659	0.4342	0.035
Mof_H 	H 	0.231	0.161	0.6994	0.065
Mof_H 	H 	0.9616	0.43	0.661	0.065
Mof_H 	H 	0.4632	0.2995	0.7481	0.092
Mof_H 	H 	0.1637	0.7151	0.9632	0.092
Mof_H 	H 	0.5425	0.3562	0.1237	0.019
Mof_H 	H 	0.2245	0.1296	0.1101	0.009
Mof_H 	H 	0.23	0.646	0.8774	0.038
Mof_H 	H 	0.2005	0.1637	0.9486	0.092
Mof_H 	H 	0.5316	0.3006	0.4616	0.065
Mof_H 	H 	0.9514	0.5877	0.2203	0.005
Mof_H 	H 	0.4575	0.6438	0.8763	0.019
Mof_H 	H 	0.2005	0.0368	0.7519	0.092
Mof_H 	H 	0.5658	0.4317	0.7961	0.035
Mof_H 	H 	0.0683	0.9342	0.7039	0.035
Mof_H 	H 	0.57	0.839	0.5384	0.065
Mof_H 	H 	0.5195	0.4051	0.6296	0.009
Mof_H 	H 	0.3526	0.23	0.084	0.038
Mof_H 	H 	0.0683	0.1341	0.8644	0.035
Mof_H 	H 	0.4684	0.769	0.43	0.065
Mof_H 	H 	0.1144	0.2245	0.5949	0.009
Mof_H 	H 	0.6144	0.0195	0.8899	0.009
Mof_H 	H 	0.0011	0.0986	0.2069	0.084
Mof_H 	H 	0.8637	0.4514	0.7311	0.005
Mof_H 	H 	0.3899	0.7755	0.3704	0.009
Mof_H 	H 	0.7005	0.7519	0.0368	0.092
Mof_H 	H 	0.8137	0.2325	0.3562	0.019
Mof_H 	H 	0.3659	0.4317	0.6356	0.035
Mof_H 	H 	0.8637	0.4123	0.6326	0.005
Mof_H 	H 	0.7311	0.7797	0.3674	0.005
Mof_H 	H 	0.5658	0.1341	0.2697	0.035
Mof_H 	H 	0.2203	0.1326	0.7689	0.005
Mof_H 	H 	0.4684	0.6994	0.5384	0.065
Mof_H 	H 	0.1226	0.2686	0.8526	0.038
Mof_H 	H 	0.3562	0.7325	0.8137	0.019
Mof_H 	H 	0.6226	0.77	0.854	0.038
Mof_H 	H 	0.584	0.2314	0.354	0.038
Mof_H 	H 	0.0949	0.9805	0.8704	0.009
Mof_H 	H 	0.4486	0.2005	0.6637	0.092
Mof_H 	H 	0.916	0.27	0.6474	0.038
Mof_H 	H 	0.9123	0.3637	0.1326	0.005
Mof_H 	H 	0.7689	0.6326	0.2203	0.005
Mof_H 	H 	0.7058	0.5975	0.9989	0.084
Mof_H 	H 	0.1356	0.3659	0.9317	0.035
Mof_H 	H 	0.6863	0.6438	0.7675	0.019
Mof_H 	H 	0.854	0.584	0.7314	0.038
Mof_H 	H 	0.5011	0.2069	0.0986	0.084
Mof_H 	H 	0.6438	0.3763	0.9575	0.019
Mof_H 	H 	0.6296	0.7245	0.6101	0.009
Mof_H 	H 	0.0812	0.3137	0.4575	0.019
Mof_H 	H 	0.0812	0.7675	0.1237	0.019
Mof_H 	H 	0.5986	0.5011	0.7069	0.084
Mof_H 	H 	0.0384	0.4684	0.1994	0.065
Mof_H 	H 	0.5975	0.0986	0.8917	0.084
Mof_H 	H 	0.93	0.4684	0.269	0.065
Mof_H 	H 	0.4014	0.4989	0.2931	0.084
Mof_H 	H 	0.7995	0.9632	0.2481	0.092
Mof_H 	H 	0.5195	0.1144	0.3899	0.009
Mof_H 	H 	0.4342	0.8659	0.7303	0.035
Mof_H 	H 	0.3137	0.9575	0.5812	0.019
Mof_H 	H 	0.0658	0.7961	0.4317	0.035
Mof_H 	H 	0.43	0.269	0.4684	0.065
Mof_H 	H 	0.3917	0.5975	0.5986	0.084
Mof_H 	H 	0.4805	0.5949	0.3704	0.009
Mof_H 	H 	0.9025	0.7942	0.5011	0.084
Mof_H 	H 	0.9317	0.8659	0.1356	0.035
Mof_H 	H 	0.161	0.1994	0.731	0.065
Mof_H 	H 	0.0877	0.4514	0.7203	0.005
Mof_H 	H 	0.7675	0.6237	0.5812	0.019
Mof_H 	H 	0.4575	0.8137	0.0812	0.019
Mof_H 	H 	0.1237	0.8562	0.5425	0.019
Mof_H 	H 	0.2311	0.3674	0.7797	0.005
Mof_H 	H 	0.916	0.646	0.7686	0.038
Mof_H 	H 	0.0195	0.6296	0.4051	0.009
Mof_H 	H 	0.3637	0.6326	0.4123	0.005
Mof_H 	H 	0.2942	0.4025	0.0011	0.084
Mof_H 	H 	0.839	0.0384	0.07	0.065
Mof_H 	H 	0.6356	0.9317	0.3659	0.035
Mof_H 	H 	0.2481	0.7849	0.9486	0.092
Mof_H 	H 	0.5486	0.7797	0.4123	0.005
Mof_H 	H 	0.6226	0.8526	0.2686	0.038
Mof_H 	H 	0.2697	0.6356	0.2039	0.035
Mof_H 	H 	0.0514	0.7151	0.7519	0.092
Mof_H 	H 	0.0514	0.3363	0.7995	0.092
Mof_H 	H 	0.6994	0.661	0.231	0.065
Mof_H 	H 	0.1144	0.8899	0.0195	0.009
Mof_H 	H 	0.4616	0.661	0.43	0.065
Mof_H 	H 	0.9989	0.0975	0.7058	0.084
Mof_H 	H 	0.1226	0.854	0.77	0.038
Mof_H 	H 	0.9486	0.2849	0.2481	0.092
Mof_H 	H 	0.1341	0.7697	0.0658	0.035
Mof_H 	H 	0.9684	0.43	0.769	0.065
Mof_H 	H 	0.416	0.7686	0.646	0.038
Mof_H 	H 	0.9805	0.3704	0.5949	0.009
Mof_H 	H 	0.7005	0.9486	0.1637	0.092
Mof_H 	H 	0.4317	0.2961	0.0658	0.035
Mof_H 	H 	0.9514	0.3637	0.2311	0.005
Mof_H 	H 	0.2849	0.5368	0.3363	0.092
Mof_H 	H 	0.8674	0.7311	0.2797	0.005
Mof_H 	H 	0.416	0.6474	0.27	0.038
Mof_H 	H 	0.2039	0.1356	0.2697	0.035
Mof_H 	H 	0.1341	0.3644	0.5683	0.035
Mof_H 	H 	0.7931	0.3917	0.2942	0.084
Mof_H 	H 	0.1101	0.4805	0.3856	0.009
Mof_H 	H 	0.0316	0.57	0.231	0.065
Mof_H 	H 	0.73	0.8774	0.646	0.038
Mof_H 	H 	0.4514	0.2203	0.5877	0.005
Mof_H 	H 	0.6363	0.2689	0.5486	0.005
Mof_H 	H 	0.8526	0.7686	0.1226	0.038
Mof_H 	H 	0.2797	0.2311	0.8674	0.005
Mof_H 	H 	0.3674	0.2797	0.7311	0.005
Mof_H 	H 	0.9342	0.2039	0.5683	0.035
Mof_H 	H 	0.8899	0.3704	0.7755	0.009
Mof_H 	H 	0.7481	0.7995	0.4632	0.092
Mof_H 	H 	0.7245	0.6144	0.0949	0.009
Mof_H 	H 	0.5986	0.0975	0.3917	0.084
Mof_H 	H 	0.5514	0.7995	0.3363	0.092
Mof_H 	H 	0.2697	0.6341	0.5658	0.035
Mof_C 	C 	0.17295	0.97202	0.16381	0.15
Mof_C 	C 	0.62803	0.25	0.37197	0.022
Mof_C 	C 	0.54861	0.70537	0.22404	-0.159
Mof_C 	C 	0.62213	0.72363	0.1926	-0.126
Mof_C 	C 	0.83979	0.82221	0.70182	-0.005
Mof_C 	C 	0.13797	0.29818	0.12039	-0.005
Mof_C 	C 	0.42953	0.8074	0.53103	-0.126
Mof_C 	C 	0.32705	0.49086	0.79907	0.15
Mof_C 	C 	0.20677	0.32876	0.51099	0.164
Mof_C 	C 	0.63797	0.12039	0.29818	-0.005
Mof_C 	C 	0.86203	0.70182	0.87961	-0.005
Mof_C 	C 	0.13212	0.20837	0.52607	-0.16
Mof_C 	C 	0.73389	0.12879	0.01702	0.057
Mof_C 	C 	0.53103	0.3074	0.42953	-0.126
Mof_C 	C 	0.99086	0.16381	0.19179	0.15
Mof_C 	C 	0.22404	0.20537	0.54861	-0.159
Mof_C 	C 	0.37787	0.1015	0.07047	-0.126
Mof_C 	C 	0.89415	0.19302	0.54317	0.004
Mof_C 	C 	0.8634	0.44079	0.08301	0.06
Mof_C 	C 	0.6051	0.71687	0.23389	0.057
Mof_C 	C 	0.52798	0.20093	0.69179	0.15
Mof_C 	C 	0.67779	0.01758	0.37961	-0.005
Mof_C 	C 	0.69302	0.29887	0.14985	0.004
Mof_C 	C 	0.60605	0.47393	0.6823	-0.16
Mof_C 	C 	0.23389	0.21687	0.6051	0.057
Mof_C 	C 	0.79163	0.8177	0.92375	-0.16
Mof_C 	C 	0.67543	0.45139	0.65676	-0.159
Mof_C 	C 	0.12199	0.30422	0.29323	0.164
Mof_C 	C 	0.89395	0.3177	0.52607	-0.16
Mof_C 	C 	0.35015	0.30698	0.20113	0.004
Mof_C 	C 	0.3074	0.37787	0.77637	-0.126
Mof_C 	C 	0.32221	0.98242	0.62039	-0.005
Mof_C 	C 	0.70113	0.35015	0.80698	0.004
Mof_C 	C 	0.19578	0.81777	0.48901	0.164
Mof_C 	C 	0.38823	0.1051	0.37121	0.057
Mof_C 	C 	0.87197	0.24394	0.62197	0.022
Mof_C 	C 	0.98242	0.86203	0.66021	-0.005
Mof_C 	C 	0.51867	0.72404	0.67543	-0.159
Mof_C 	C 	0.64902	0.54317	0.35015	0.004
Mof_C 	C 	0.42375	0.63212	0.60605	-0.16
Mof_C 	C 	0.80821	0.33619	0.00914	0.15
Mof_C 	C 	0.97393	0.10605	0.1823	-0.16
Mof_C 	C 	0.61177	0.71687	0.48298	0.057
Mof_C 	C 	0.8634	0.42261	0.28039	0.06
Mof_C 	C 	0.28039	0.92261	0.8634	0.06
Mof_C 	C 	0.01758	0.87961	0.17779	-0.005
Mof_C 	C 	0.41699	0.1366	0.05921	0.06
Mof_C 	C 	0.70093	0.67295	0.00914	0.15
Mof_C 	C 	0.62803	0.37803	0.75606	0.022
Mof_C 	C 	0.62879	0.23389	0.51702	0.057
Mof_C 	C 	0.30422	0.79323	0.62199	0.164
Mof_C 	C 	0.6926	0.07047	0.96897	-0.126
Mof_C 	C 	0.45139	0.15676	0.17543	-0.159
Mof_C 	C 	0.07047	0.46897	0.1926	-0.126
Mof_C 	C 	0.80422	0.18223	0.51099	0.164
Mof_C 	C 	0.70537	0.72404	0.04861	-0.159
Mof_C 	C 	0.98901	0.19578	0.31777	0.164
Mof_C 	C 	0.20182	0.83979	0.32221	-0.005
Mof_C 	C 	0.70837	0.63212	0.02607	-0.16
Mof_C 	C 	0.82221	0.20182	0.33979	-0.005
Mof_C 	C 	0.20537	0.04861	0.72404	-0.159
Mof_C 	C 	0.79163	0.97393	0.36788	-0.16
Mof_C 	C 	0.72404	0.54861	0.20537	-0.159
Mof_C 	C 	0.62039	0.13797	0.79818	-0.005
Mof_C 	C 	0.47393	0.29163	0.86788	-0.16
Mof_C 	C 	0.05921	0.42261	0.14222	0.06
Mof_C 	C 	0.82705	0.79907	0.49086	0.15
Mof_C 	C 	0.62199	0.32876	0.81777	0.164
Mof_C 	C 	0.62197	0.87803	0.25	0.022
Mof_C 	C 	0.42261	0.64222	0.55921	0.06
Mof_C 	C 	0.77596	0.98133	0.82457	-0.159
Mof_C 	C 	0.77637	0.8985	0.96897	-0.126
Mof_C 	C 	0.70093	0.02798	0.19179	0.15
Mof_C 	C 	0.8074	0.03103	0.92953	-0.127
Mof_C 	C 	0.10605	0.6823	0.47393	-0.16
Mof_C 	C 	0.23389	0.01702	0.12879	0.057
Mof_C 	C 	0.62213	0.8985	0.92953	-0.126
Mof_C 	C 	0.75606	0.87803	0.62803	0.022
Mof_C 	C 	0.17779	0.79818	0.66021	-0.005
Mof_C 	C 	0.87197	0.62803	0.75	0.022
Mof_C 	C 	0.32457	0.54861	0.34324	-0.159
Mof_C 	C 	0.87121	0.48298	0.76611	0.057
Mof_C 	C 	0.07625	0.39395	0.36788	-0.16
Mof_C 	C 	0.72363	0.6926	0.12213	-0.127
Mof_C 	C 	0.21687	0.1051	0.73389	0.057
Mof_C 	C 	0.8074	0.77637	0.37787	-0.126
Mof_C 	C 	0.12879	0.61177	0.3949	0.057
Mof_C 	C 	0.12039	0.32221	0.48242	-0.005
Mof_C 	C 	0.07739	0.6366	0.21961	0.06
Mof_C 	C 	0.01702	0.38823	0.78313	0.057
Mof_C 	C 	0.6015	0.87787	0.57047	-0.126
Mof_C 	C 	0.07739	0.44079	0.35778	0.06
Mof_C 	C 	0.34324	0.29463	0.51867	-0.159
Mof_C 	C 	0.92375	0.60605	0.63212	-0.16
Mof_C 	C 	0.14985	0.79887	0.69302	0.004
Mof_C 	C 	0.75	0.62197	0.37803	0.022
Mof_C 	C 	0.67295	0.16381	0.97202	0.15
Mof_C 	C 	0.21961	0.08301	0.64222	0.06
Mof_C 	C 	0.07625	0.6823	0.20837	-0.16
Mof_C 	C 	0.12213	0.1926	0.72363	-0.126
Mof_C 	C 	0.10585	0.29887	0.14902	0.004
Mof_C 	C 	0.37197	0.75	0.62803	0.022
Mof_C 	C 	0.37801	0.70677	0.69578	0.164
Mof_C 	C 	0.57047	0.1926	0.46897	-0.126
Mof_C 	C 	0.70677	0.19578	0.87801	0.164
Mof_C 	C 	0.72404	0.17543	0.01867	-0.159
Mof_C 	C 	0.48298	0.21687	0.61177	0.057
Mof_C 	C 	0.37801	0.67124	0.18223	0.164
Mof_C 	C 	0.87803	0.75	0.12197	0.021
Mof_C 	C 	0.6823	0.97393	0.60605	-0.16
Mof_C 	C 	0.1051	0.23389	0.71687	0.057
Mof_C 	C 	0.95139	0.17543	0.15676	-0.159
Mof_C 	C 	0.64985	0.95683	0.35098	0.004
Mof_C 	C 	0.98298	0.61177	0.21687	0.057
Mof_C 	C 	0.37803	0.25606	0.12803	0.022
Mof_C 	C 	0.89395	0.57625	0.86788	-0.16
Mof_C 	C 	0.87961	0.67779	0.51758	-0.005
Mof_C 	C 	0.32876	0.31777	0.12199	0.164
Mof_C 	C 	0.55921	0.41699	0.6366	0.06
Mof_C 	C 	0.94079	0.3634	0.58301	0.06
Mof_C 	C 	0.98133	0.32457	0.27596	-0.159
Mof_C 	C 	0.6366	0.71961	0.57739	0.06
Mof_C 	C 	0.79818	0.63797	0.62039	-0.005
Mof_C 	C 	0.66381	0.17295	0.47202	0.15
Mof_C 	C 	0.57739	0.35778	0.44079	0.06
Mof_C 	C 	0.29323	0.80422	0.12199	0.164
Mof_C 	C 	0.63212	0.10605	0.92375	-0.16
Mof_C 	C 	0.67124	0.68223	0.87801	0.164
Mof_C 	C 	0.12197	0.25	0.87803	0.021
Mof_C 	C 	0.44079	0.58301	0.3634	0.06
Mof_C 	C 	0.12803	0.37197	0.25	0.022
Mof_C 	C 	0.78313	0.8949	0.26611	0.057
Mof_C 	C 	0.64902	0.10585	0.79887	0.004
Mof_C 	C 	0.46897	0.77637	0.3985	-0.126
Mof_C 	C 	0.3177	0.29163	0.42375	-0.16
Mof_C 	C 	0.36203	0.48242	0.16021	-0.005
Mof_C 	C 	0.36788	0.47393	0.79163	-0.16
Mof_C 	C 	0.37121	0.76611	0.48298	0.057
Mof_C 	C 	0.00914	0.83619	0.80821	0.15
Mof_C 	C 	0.20837	0.02607	0.63212	-0.16
Mof_C 	C 	0.01758	0.13797	0.33979	-0.005
Mof_C 	C 	0.62197	0.74394	0.87197	0.022
Mof_C 	C 	0.31777	0.62199	0.82876	0.164
Mof_C 	C 	0.74394	0.37197	0.12197	0.022
Mof_C 	C 	0.8985	0.42953	0.12213	-0.127
Mof_C 	C 	0.16021	0.98242	0.36203	-0.005
Mof_C 	C 	0.33979	0.63797	0.01758	-0.005
Mof_C 	C 	0.78039	0.91699	0.35778	0.06
Mof_C 	C 	0.14902	0.79887	0.10585	0.004
Mof_C 	C 	0.28313	0.01702	0.88823	0.057
Mof_C 	C 	0.08301	0.94079	0.8634	0.06
Mof_C 	C 	0.87787	0.07047	0.1015	-0.127
Mof_C 	C 	0.11177	0.48298	0.71687	0.057
Mof_C 	C 	0.82876	0.12199	0.31777	0.164
Mof_C 	C 	0.39415	0.54317	0.19302	0.004
Mof_C 	C 	0.32221	0.33979	0.20182	-0.005
Mof_C 	C 	0.04317	0.89415	0.69302	0.004
Mof_C 	C 	0.02607	0.89395	0.8177	-0.16
Mof_C 	C 	0.67295	0.50914	0.20093	0.15
Mof_C 	C 	0.96897	0.3985	0.77637	-0.126
Mof_C 	C 	0.92953	0.3985	0.62213	-0.126
Mof_C 	C 	0.27596	0.45139	0.79463	-0.159
Mof_C 	C 	0.11177	0.62879	0.8949	0.057
Mof_C 	C 	0.25	0.87197	0.12803	0.022
Mof_C 	C 	0.77596	0.79463	0.45139	-0.159
Mof_C 	C 	0.20093	0.00914	0.67295	0.15
Mof_C 	C 	0.35778	0.41699	0.78039	0.06
Mof_C 	C 	0.44079	0.85778	0.57739	0.06
Mof_C 	C 	0.21961	0.1366	0.07739	0.06
Mof_C 	C 	0.29323	0.48901	0.67124	0.164
Mof_C 	C 	0.92261	0.3634	0.78039	0.06
Mof_C 	C 	0.63797	0.51758	0.83979	-0.005
Mof_C 	C 	0.17543	0.65676	0.45139	-0.159
Mof_C 	C 	0.79907	0.99086	0.32705	0.15
Mof_C 	C 	0.35098	0.45683	0.64985	0.004
Mof_C 	C 	0.70677	0.51099	0.32876	0.164
Mof_C 	C 	0.22363	0.12213	0.6926	-0.126
Mof_C 	C 	0.3985	0.12213	0.42953	-0.126
Mof_C 	C 	0.45683	0.14985	0.85098	0.004
Mof_C 	C 	0.48901	0.17124	0.79323	0.164
Mof_C 	C 	0.88823	0.51702	0.28313	0.057
Mof_C 	C 	0.6366	0.91699	0.55921	0.06
Mof_C 	C 	0.33619	0.82705	0.52798	0.15
Mof_C 	C 	0.57625	0.20837	0.6823	-0.16
Mof_C 	C 	0.51702	0.73389	0.62879	0.057
Mof_C 	C 	0.62879	0.3949	0.61177	0.057
Mof_C 	C 	0.50914	0.80821	0.83619	0.15
Mof_C 	C 	0.79818	0.16021	0.67779	-0.005
Mof_C 	C 	0.46897	0.6926	0.57047	-0.126
Mof_C 	C 	0.70113	0.35098	0.39415	0.004
Mof_C 	C 	0.8985	0.46897	0.27637	-0.126
Mof_C 	C 	0.19179	0.66381	0.99086	0.15
Mof_C 	C 	0.82705	0.02798	0.83619	0.15
Mof_C 	C 	0.18223	0.17124	0.37801	0.164
Mof_C 	C 	0.1823	0.57625	0.70837	-0.16
Mof_C 	C 	0.37803	0.12197	0.75	0.022
Mof_C 	C 	0.37961	0.86203	0.20182	-0.005
Mof_C 	C 	0.92261	0.55921	0.64222	0.06
Mof_C 	C 	0.19302	0.04317	0.39415	0.004
Mof_C 	C 	0.86788	0.79163	0.47393	-0.16
Mof_C 	C 	0.48242	0.82221	0.12039	-0.005
Mof_C 	C 	0.84324	0.32457	0.04861	-0.159
Mof_C 	C 	0.29907	0.97202	0.80821	0.15
Mof_C 	C 	0.19578	0.37801	0.20677	0.164
Mof_C 	C 	0.30422	0.51099	0.18223	0.164
Mof_C 	C 	0.04861	0.82457	0.84324	-0.159
Mof_C 	C 	0.52607	0.70837	0.13212	-0.16
Mof_C 	C 	0.92375	0.3177	0.79163	-0.16
Mof_C 	C 	0.50914	0.70093	0.17295	0.15
Mof_C 	C 	0.47393	0.1823	0.10605	-0.16
Mof_C 	C 	0.82457	0.34324	0.54861	-0.159
Mof_C 	C 	0.29463	0.01867	0.84324	-0.159
Mof_C 	C 	0.42375	0.79163	0.3177	-0.16
Mof_C 	C 	0.60605	0.13212	0.42375	-0.16
Mof_C 	C 	0.04317	0.14902	0.85015	0.004
Mof_C 	C 	0.71961	0.07739	0.1366	0.06
Mof_C 	C 	0.70182	0.32221	0.83979	-0.005
Mof_C 	C 	0.61177	0.8949	0.62879	0.057
Mof_C 	C 	0.85778	0.07739	0.94079	0.06
Mof_C 	C 	0.10605	0.42375	0.13212	-0.16
Mof_C 	C 	0.73389	0.6051	0.21687	0.057
Mof_C 	C 	0.51702	0.78313	0.38823	0.057
Mof_C 	C 	0.78039	0.8634	0.92261	0.06
Mof_C 	C 	0.32457	0.77596	0.48133	-0.159
Mof_C 	C 	0.98133	0.65676	0.20537	-0.159
Mof_C 	C 	0.79323	0.67124	0.48901	0.164
Mof_C 	C 	0.6823	0.70837	0.57625	-0.16
Mof_C 	C 	0.47202	0.79907	0.30821	0.15
Mof_C 	C 	0.14222	0.92261	0.05921	0.06
Mof_C 	C 	0.12879	0.51702	0.23389	0.057
Mof_C 	C 	0.91699	0.85778	0.28039	0.06
Mof_C 	C 	0.27637	0.96897	0.8985	-0.126
Mof_C 	C 	0.98242	0.12039	0.82221	-0.005
Mof_C 	C 	0.82221	0.62039	0.98242	-0.005
Mof_C 	C 	0.95139	0.77596	0.29463	-0.159
Mof_C 	C 	0.83619	0.30821	0.50914	0.15
Mof_C 	C 	0.70537	0.98133	0.15676	-0.159
Mof_C 	C 	0.25	0.37803	0.62197	0.022
Mof_C 	C 	0.85015	0.64902	0.04317	0.004
Mof_C 	C 	0.45683	0.30698	0.10585	0.004
Mof_C 	C 	0.39415	0.85098	0.70113	0.004
Mof_C 	C 	0.17779	0.37961	0.01758	-0.005
Mof_C 	C 	0.80422	0.62199	0.79323	0.164
Mof_C 	C 	0.34324	0.04861	0.32457	-0.159
Mof_C 	C 	0.01099	0.80422	0.68223	0.164
Mof_C 	C 	0.1926	0.22363	0.62213	-0.126
Mof_C 	C 	0.97393	0.86788	0.29163	-0.16
Mof_C 	C 	0.95683	0.85098	0.14985	0.004
Mof_C 	C 	0.20677	0.87801	0.19578	0.164
Mof_C 	C 	0.48901	0.31777	0.19578	0.164
Mof_C 	C 	0.79887	0.19302	0.64985	0.004
Mof_C 	C 	0.79887	0.60585	0.64902	0.004
Mof_C 	C 	0.85778	0.78039	0.41699	0.06
Mof_C 	C 	0.65676	0.70537	0.48133	-0.159
Mof_C 	C 	0.68223	0.30422	0.01099	0.164
Mof_C 	C 	0.81777	0.98901	0.69578	0.164
Mof_C 	C 	0.30821	0.29907	0.47202	0.15
Mof_C 	C 	0.48133	0.20537	0.65676	-0.159
Mof_C 	C 	0.12199	0.81777	0.32876	0.164
Mof_C 	C 	0.54861	0.84324	0.82457	-0.159
Mof_C 	C 	0.80821	0.47202	0.29907	0.15
Mof_C 	C 	0.51758	0.33979	0.13797	-0.005
Mof_C 	C 	0.71961	0.64222	0.08301	0.06
Mof_C 	C 	0.10585	0.80698	0.45683	0.004
Mof_C 	C 	0.79463	0.95139	0.27596	-0.159
Mof_C 	C 	0.72363	0.03103	0.1015	-0.126
Mof_C 	C 	0.39395	0.52607	0.3177	-0.16
Mof_C 	C 	0.69302	0.39415	0.04317	0.004
Mof_C 	C 	0.65676	0.95139	0.67543	-0.159
Mof_C 	C 	0.20113	0.80698	0.35015	0.004
Mof_C 	C 	0.17295	0.20093	0.50914	0.15
Mof_C 	C 	0.26611	0.3949	0.78313	0.057
Mof_C 	C 	0.69179	0.99086	0.66381	0.15
Mof_C 	C 	0.81777	0.82876	0.62199	0.164
Mof_C 	C 	0.88823	0.37121	0.1051	0.057
Mof_C 	C 	0.30698	0.70113	0.85015	0.004
Mof_C 	C 	0.8949	0.76611	0.28313	0.057
Mof_C 	C 	0.49086	0.29907	0.82705	0.15
Mof_C 	C 	0.95683	0.10585	0.30698	0.004
Mof_C 	C 	0.53103	0.22363	0.6015	-0.126
Mof_C 	C 	0.6051	0.88823	0.87121	0.057
Mof_C 	C 	0.83979	0.01758	0.63797	-0.005
Mof_C 	C 	0.33979	0.70182	0.82221	-0.005
Mof_C 	C 	0.80698	0.85015	0.70113	0.004
Mof_C 	C 	0.58301	0.71961	0.14222	0.06
Mof_C 	C 	0.17543	0.51867	0.22404	-0.159
Mof_C 	C 	0.8177	0.39395	0.02607	-0.16
Mof_C 	C 	0.66021	0.36203	0.98242	-0.005
Mof_C 	C 	0.58301	0.8634	0.94079	0.06
Mof_C 	C 	0.20837	0.1823	0.07625	-0.16
Mof_C 	C 	0.80698	0.95683	0.60585	0.004
Mof_C 	C 	0.51867	0.79463	0.34324	-0.159
Mof_C 	C 	0.8949	0.12879	0.11177	0.057
Mof_C 	C 	0.14222	0.21961	0.58301	0.06
Mof_C 	C 	0.12197	0.87197	0.74394	0.022
Mof_C 	C 	0.12039	0.79818	0.13797	-0.005
Mof_C 	C 	0.57047	0.37787	0.6015	-0.126
Mof_C 	C 	0.3634	0.28039	0.42261	0.06
Mof_C 	C 	0.87121	0.38823	0.6051	0.057
Mof_C 	C 	0.36203	0.87961	0.70182	-0.005
Mof_C 	C 	0.57625	0.36788	0.39395	-0.16
Mof_C 	C 	0.14902	0.35015	0.54317	0.004
Mof_C 	C 	0.12803	0.75606	0.37803	0.022
Mof_C 	C 	0.70837	0.07625	0.1823	-0.16
Mof_C 	C 	0.57739	0.21961	0.6366	0.06
Mof_C 	C 	0.1823	0.60605	0.97393	-0.16
Mof_C 	C 	0.71687	0.73389	0.1051	0.057
Mof_C 	C 	0.15676	0.48133	0.70537	-0.159
Mof_C 	C 	0.1051	0.87121	0.88823	0.057
Mof_C 	C 	0.37787	0.27637	0.8074	-0.126
Mof_C 	C 	0.36788	0.89395	0.07625	-0.16
Mof_C 	C 	0.52607	0.8177	0.89395	-0.16
Mof_C 	C 	0.18223	0.01099	0.30422	0.164
Mof_C 	C 	0.01099	0.20677	0.82876	0.164
Mof_C 	C 	0.31777	0.69578	0.98901	0.164
Mof_C 	C 	0.01867	0.67543	0.72404	-0.159
Mof_C 	C 	0.21687	0.11177	0.98298	0.056
Mof_C 	C 	0.29463	0.27596	0.95139	-0.159
Mof_C 	C 	0.75	0.12803	0.87197	0.022
Mof_C 	C 	0.89415	0.70113	0.85098	0.004
Mof_C 	C 	0.68223	0.37801	0.17124	0.164
Mof_C 	C 	0.98901	0.79323	0.17124	0.164
Mof_C 	C 	0.27637	0.3074	0.87787	-0.127
Mof_C 	C 	0.3074	0.92953	0.03103	-0.126
Mof_C 	C 	0.67543	0.22404	0.51867	-0.159
Mof_C 	C 	0.97202	0.30821	0.79907	0.15
Mof_C 	C 	0.20182	0.36203	0.37961	-0.005
Mof_C 	C 	0.20537	0.15676	0.98133	-0.159
Mof_C 	C 	0.32705	0.83619	0.02798	0.15
Mof_C 	C 	0.3634	0.08301	0.44079	0.06
Mof_C 	C 	0.35778	0.94079	0.07739	0.06
Mof_C 	C 	0.70182	0.37961	0.36203	-0.005
Mof_C 	C 	0.82876	0.70677	0.01099	0.164
Mof_C 	C 	0.27596	0.82457	0.98133	-0.159
Mof_C 	C 	0.29818	0.62039	0.63797	-0.005
Mof_C 	C 	0.69578	0.20677	0.37801	0.164
Mof_C 	C 	0.51099	0.68223	0.80422	0.164
Mof_C 	C 	0.05921	0.6366	0.41699	0.06
Mof_C 	C 	0.1015	0.53103	0.72363	-0.126
Mof_C 	C 	0.66021	0.29818	0.17779	-0.005
Mof_C 	C 	0.55921	0.14222	0.42261	0.06
Mof_C 	C 	0.16021	0.17779	0.29818	-0.005
Mof_C 	C 	0.87801	0.18223	0.67124	0.164
Mof_C 	C 	0.62039	0.48242	0.32221	-0.005
Mof_C 	C 	0.86203	0.16021	0.48242	-0.005
Mof_C 	C 	0.63212	0.52607	0.20837	-0.16
Mof_C 	C 	0.92953	0.53103	0.8074	-0.126
Mof_C 	C 	0.71687	0.98298	0.11177	0.057
Mof_C 	C 	0.79463	0.84324	0.01867	-0.159
Mof_C 	C 	0.22404	0.01867	0.17543	-0.159
Mof_C 	C 	0.79323	0.12199	0.80422	0.164
Mof_C 	C 	0.87787	0.8074	0.27637	-0.126
Mof_C 	C 	0.3949	0.11177	0.12879	0.057
Mof_C 	C 	0.84324	0.51867	0.29463	-0.159
Mof_C 	C 	0.25606	0.62803	0.87803	0.022
Mof_C 	C 	0.41699	0.28039	0.85778	0.06
Mof_C 	C 	0.1926	0.96897	0.07047	-0.127
Mof_C 	C 	0.54317	0.85015	0.14902	0.004
Mof_C 	C 	0.19179	0.52798	0.70093	0.15
Mof_C 	C 	0.42953	0.62213	0.3985	-0.126
Mof_C 	C 	0.87801	0.69578	0.70677	0.164
Mof_C 	C 	0.3985	0.27637	0.46897	-0.126
Mof_C 	C 	0.29887	0.64985	0.19302	0.004
Mof_C 	C 	0.16381	0.69179	0.49086	0.15
Mof_C 	C 	0.03103	0.42953	0.3074	-0.126
Mof_C 	C 	0.79907	0.80821	0.97202	0.15
Mof_C 	C 	0.16381	0.47202	0.17295	0.15
Mof_C 	C 	0.87803	0.12803	0.25606	0.022
Mof_C 	C 	0.08301	0.14222	0.71961	0.06
Mof_C 	C 	0.13212	0.92375	0.10605	-0.16
Mof_C 	C 	0.33619	0.50914	0.30821	0.15
Mof_C 	C 	0.91699	0.05921	0.1366	0.06
Mof_C 	C 	0.97202	0.66381	0.67295	0.15
Mof_C 	C 	0.32876	0.01099	0.70677	0.164
Mof_C 	C 	0.47202	0.67295	0.66381	0.15
Mof_C 	C 	0.28313	0.26611	0.8949	0.057
Mof_C 	C 	0.82457	0.48133	0.77596	-0.159
Mof_C 	C 	0.85098	0.64985	0.45683	0.004
Mof_C 	C 	0.02798	0.33619	0.32705	0.15
Mof_C 	C 	0.17124	0.29323	0.98901	0.164
Mof_C 	C 	0.39395	0.86788	0.57625	-0.16
Mof_C 	C 	0.1015	0.57047	0.87787	-0.127
Mof_C 	C 	0.30698	0.60585	0.95683	0.004
Mof_C 	C 	0.19302	0.14985	0.29887	0.004
Mof_C 	C 	0.69578	0.48901	0.81777	0.164
Mof_C 	C 	0.14985	0.35098	0.95683	0.004
Mof_C 	C 	0.42261	0.78039	0.3634	0.06
Mof_C 	C 	0.66381	0.49086	0.69179	0.15
Mof_C 	C 	0.24394	0.12197	0.37197	0.022
Mof_C 	C 	0.07047	0.6015	0.37787	-0.126
Mof_C 	C 	0.51758	0.17779	0.87961	-0.005
Mof_C 	C 	0.38823	0.28313	0.51702	0.057
Mof_C 	C 	0.94079	0.57739	0.85778	0.06
Mof_C 	C 	0.15676	0.67543	0.95139	-0.159
Mof_C 	C 	0.85015	0.20113	0.30698	0.004
Mof_C 	C 	0.04861	0.22404	0.70537	-0.159
Mof_C 	C 	0.67124	0.98901	0.29323	0.164
Mof_C 	C 	0.76611	0.78313	0.3949	0.057
Mof_C 	C 	0.1366	0.57739	0.71961	0.06
Mof_C 	C 	0.37121	0.6051	0.38823	0.057
Mof_C 	C 	0.29163	0.92375	0.8177	-0.16
Mof_C 	C 	0.02607	0.13212	0.70837	-0.16
Mof_C 	C 	0.83619	0.52798	0.82705	0.15
Mof_C 	C 	0.01702	0.62879	0.73389	0.057
Mof_C 	C 	0.1366	0.55921	0.91699	0.06
Mof_C 	C 	0.48298	0.26611	0.37121	0.057
Mof_C 	C 	0.64222	0.58301	0.21961	0.06
Mof_C 	C 	0.86788	0.07625	0.89395	-0.16
Mof_C 	C 	0.26611	0.87121	0.98298	0.057
Mof_C 	C 	0.20093	0.19179	0.02798	0.15
Mof_C 	C 	0.49086	0.19179	0.16381	0.15
Mof_C 	C 	0.29887	0.64902	0.60585	0.004
Mof_C 	C 	0.60585	0.45683	0.80698	0.004
Mof_C 	C 	0.45139	0.29463	0.77596	-0.159
Mof_C 	C 	0.37961	0.51758	0.67779	-0.005
Mof_C 	C 	0.48242	0.66021	0.86203	-0.005
Mof_C 	C 	0.96897	0.57047	0.6926	-0.126
Mof_C 	C 	0.85098	0.20113	0.89415	0.004
Mof_C 	C 	0.35098	0.89415	0.20113	0.004
Mof_C 	C 	0.01867	0.34324	0.79463	-0.159
Mof_C 	C 	0.03103	0.6015	0.22363	-0.126
Mof_C 	C 	0.13797	0.83979	0.51758	-0.005
Mof_C 	C 	0.8177	0.42375	0.29163	-0.16
Mof_C 	C 	0.54317	0.69302	0.89415	0.004
Mof_C 	C 	0.78313	0.88823	0.01702	0.056
Mof_C 	C 	0.3177	0.02607	0.39395	-0.16
Mof_C 	C 	0.52798	0.32705	0.33619	0.15
Mof_C 	C 	0.98298	0.37121	0.26611	0.057
Mof_C 	C 	0.29907	0.32705	0.99086	0.15
Mof_C 	C 	0.76611	0.98298	0.87121	0.057
Mof_C 	C 	0.37197	0.62197	0.24394	0.022
Mof_C 	C 	0.30821	0.00914	0.33619	0.15
Mof_C 	C 	0.67779	0.66021	0.79818	-0.005
Mof_C 	C 	0.29818	0.67779	0.16021	-0.005
Mof_C 	C 	0.6015	0.72363	0.53103	-0.126
Mof_C 	C 	0.60585	0.14902	0.29887	0.004
Mof_C 	C 	0.35015	0.04317	0.64902	0.004
Mof_C 	C 	0.3949	0.28313	0.76611	0.057
Mof_C 	C 	0.64985	0.69302	0.79887	0.004
Mof_C 	C 	0.6926	0.62213	0.22363	-0.126
Mof_C 	C 	0.51099	0.82876	0.20677	0.164
Mof_C 	C 	0.22363	0.1015	0.03103	-0.126
Mof_C 	C 	0.64222	0.05921	0.92261	0.06
Mof_C 	C 	0.28039	0.35778	0.91699	0.06
Mof_C 	C 	0.62199	0.29323	0.30422	0.164
Mof_C 	C 	0.20113	0.39415	0.35098	0.004
Mof_C 	C 	0.48133	0.27596	0.32457	-0.159
Mof_C 	C 	0.12213	0.92953	0.8985	-0.127
Mof_C 	C 	0.87961	0.20182	0.86203	-0.005
Mof_C 	C 	0.69179	0.70093	0.52798	0.15
Mof_C 	C 	0.00914	0.17295	0.70093	0.15
Mof_C 	C 	0.17124	0.87801	0.68223	0.164
Mof_C 	C 	0.29163	0.36788	0.97393	-0.16
Mof_C 	C 	0.99086	0.82705	0.29907	0.15
Mof_C 	C 	0.02798	0.69179	0.20093	0.15
Mof_C 	C 	0.77637	0.87787	0.3074	-0.126
Mof_N 	N 	0.46834	0.80856	0.25922	-0.129
Mof_N 	N 	0.29088	0.84022	0.53166	-0.129
Mof_N 	N 	0.64632	0.93894	0.29594	-0.129
Mof_N 	N 	0.65978	0.45066	0.19144	-0.129
Mof_N 	N 	0.30799	0.34601	0.1519	-0.275
Mof_N 	N 	0.35038	0.70406	0.643	-0.129
Mof_N 	N 	0.65978	0.20912	0.96834	-0.129
Mof_N 	N 	0.35038	0.64632	0.20738	-0.129
Mof_N 	N 	0.85038	0.643	0.70406	-0.129
Mof_N 	N 	0.75922	0.46834	0.30856	-0.129
Mof_N 	N 	0.35368	0.29262	0.14962	-0.129
Mof_N 	N 	0.20406	0.35368	0.56106	-0.129
Mof_N 	N 	0.74084	0.48288	0.80778	-0.104
Mof_N 	N 	0.643	0.43894	0.79262	-0.129
Mof_N 	N 	0.75922	0.29088	0.95066	-0.129
Mof_N 	N 	0.143	0.79262	0.43894	-0.129
Mof_N 	N 	0.80799	0.1519	0.34601	-0.275
Mof_N 	N 	0.06694	0.80778	0.3249	-0.104
Mof_N 	N 	0.84391	0.1519	0.80589	-0.275
Mof_N 	N 	0.14632	0.85038	0.70738	-0.129
Mof_N 	N 	0.53166	0.19144	0.74078	-0.129
Mof_N 	N 	0.54934	0.30856	0.84022	-0.129
Mof_N 	N 	0.01712	0.75916	0.69222	-0.104
Mof_N 	N 	0.96834	0.25922	0.80856	-0.129
Mof_N 	N 	0.48288	0.30778	0.24084	-0.104
Mof_N 	N 	0.65609	0.46198	0.30799	-0.275
Mof_N 	N 	0.96834	0.70912	0.65978	-0.129
Mof_N 	N 	0.74204	0.6751	0.48288	-0.104
Mof_N 	N 	0.64962	0.35368	0.79262	-0.129
Mof_N 	N 	0.25796	0.3249	0.51712	-0.104
Mof_N 	N 	0.24204	0.75916	0.06694	-0.104
Mof_N 	N 	0.25916	0.51712	0.19222	-0.104
Mof_N 	N 	0.46834	0.65978	0.70912	-0.129
Mof_N 	N 	0.85368	0.14962	0.29262	-0.129
Mof_N 	N 	0.53802	0.19201	0.84391	-0.275
Mof_N 	N 	0.24204	0.48288	0.6751	-0.104
Mof_N 	N 	0.06694	0.25916	0.24204	-0.104
Mof_N 	N 	0.857	0.20738	0.56106	-0.129
Mof_N 	N 	0.34391	0.80589	0.1519	-0.275
Mof_N 	N 	0.24084	0.43306	0.25796	-0.104
Mof_N 	N 	0.3481	0.65609	0.69411	-0.275
Mof_N 	N 	0.74078	0.04934	0.70912	-0.129
Mof_N 	N 	0.29594	0.43894	0.64632	-0.129
Mof_N 	N 	0.20738	0.14632	0.35038	-0.129
Mof_N 	N 	0.69201	0.03802	0.34391	-0.275
Mof_N 	N 	0.04934	0.84022	0.30856	-0.129
Mof_N 	N 	0.3481	0.69201	0.15399	-0.275
Mof_N 	N 	0.29262	0.64962	0.85368	-0.129
Mof_N 	N 	0.29594	0.857	0.14962	-0.129
Mof_N 	N 	0.56694	0.24204	0.25916	-0.104
Mof_N 	N 	0.43894	0.14632	0.79594	-0.129
Mof_N 	N 	0.24078	0.53166	0.69144	-0.129
Mof_N 	N 	0.1519	0.30589	0.34391	-0.275
Mof_N 	N 	0.8481	0.15399	0.69201	-0.275
Mof_N 	N 	0.14632	0.29594	0.93894	-0.129
Mof_N 	N 	0.70406	0.56106	0.35368	-0.129
Mof_N 	N 	0.64632	0.70738	0.85038	-0.129
Mof_N 	N 	0.80589	0.15399	0.46198	-0.275
Mof_N 	N 	0.25796	0.93306	0.24084	-0.104
Mof_N 	N 	0.56694	0.3249	0.80778	-0.104
Mof_N 	N 	0.80856	0.75922	0.96834	-0.129
Mof_N 	N 	0.84022	0.80856	0.54934	-0.129
Mof_N 	N 	0.74084	0.25796	0.43306	-0.104
Mof_N 	N 	0.30778	0.56694	0.8249	-0.104
Mof_N 	N 	0.19411	0.3481	0.15609	-0.275
Mof_N 	N 	0.20912	0.74078	0.54934	-0.129
Mof_N 	N 	0.65399	0.3481	0.19201	-0.275
Mof_N 	N 	0.45066	0.69144	0.15978	-0.129
Mof_N 	N 	0.6751	0.98288	0.24204	-0.104
Mof_N 	N 	0.29262	0.643	0.93894	-0.129
Mof_N 	N 	0.19411	0.84601	0.53802	-0.275
Mof_N 	N 	0.15399	0.96198	0.30589	-0.275
Mof_N 	N 	0.84601	0.03802	0.69411	-0.275
Mof_N 	N 	0.29088	0.45066	0.25922	-0.129
Mof_N 	N 	0.15978	0.19144	0.45066	-0.129
Mof_N 	N 	0.75916	0.19222	0.51712	-0.104
Mof_N 	N 	0.93894	0.143	0.29262	-0.129
Mof_N 	N 	0.143	0.35038	0.20406	-0.129
Mof_N 	N 	0.14962	0.357	0.29594	-0.129
Mof_N 	N 	0.1519	0.84601	0.30799	-0.275
Mof_N 	N 	0.19201	0.8481	0.65399	-0.275
Mof_N 	N 	0.643	0.20406	0.35038	-0.129
Mof_N 	N 	0.79594	0.64632	0.43894	-0.129
Mof_N 	N 	0.20738	0.06106	0.357	-0.129
Mof_N 	N 	0.93894	0.79594	0.14632	-0.129
Mof_N 	N 	0.95066	0.15978	0.69144	-0.129
Mof_N 	N 	0.80778	0.98288	0.74084	-0.104
Mof_N 	N 	0.65609	0.19411	0.8481	-0.275
Mof_N 	N 	0.1751	0.24204	0.98288	-0.104
Mof_N 	N 	0.6519	0.30799	0.84601	-0.275
Mof_N 	N 	0.20406	0.85038	0.143	-0.129
Mof_N 	N 	0.15399	0.19201	0.3481	-0.275
Mof_N 	N 	0.69201	0.65399	0.8481	-0.275
Mof_N 	N 	0.75796	0.24084	0.93306	-0.104
Mof_N 	N 	0.06106	0.857	0.70738	-0.129
Mof_N 	N 	0.20912	0.46834	0.15978	-0.129
Mof_N 	N 	0.80856	0.04934	0.34022	-0.129
Mof_N 	N 	0.43894	0.29262	0.143	-0.129
Mof_N 	N 	0.96198	0.80589	0.65399	-0.275
Mof_N 	N 	0.30589	0.46198	0.15399	-0.275
Mof_N 	N 	0.98288	0.74204	0.1751	-0.104
Mof_N 	N 	0.19222	0.1751	0.43306	-0.104
Mof_N 	N 	0.53166	0.34022	0.29088	-0.129
Mof_N 	N 	0.84391	0.69201	0.53802	-0.275
Mof_N 	N 	0.51712	0.69222	0.75916	-0.104
Mof_N 	N 	0.70738	0.35038	0.14632	-0.129
Mof_N 	N 	0.3249	0.30778	0.06694	-0.104
Mof_N 	N 	0.69222	0.43306	0.1751	-0.104
Mof_N 	N 	0.19144	0.24078	0.03166	-0.129
Mof_N 	N 	0.45066	0.75922	0.79088	-0.129
Mof_N 	N 	0.70912	0.15978	0.46834	-0.129
Mof_N 	N 	0.51712	0.8249	0.25796	-0.104
Mof_N 	N 	0.30589	0.84391	0.6519	-0.275
Mof_N 	N 	0.53802	0.34601	0.19411	-0.275
Mof_N 	N 	0.74204	0.06694	0.75916	-0.104
Mof_N 	N 	0.04934	0.20912	0.24078	-0.129
Mof_N 	N 	0.80799	0.65609	0.96198	-0.275
Mof_N 	N 	0.70912	0.54934	0.74078	-0.129
Mof_N 	N 	0.95066	0.79088	0.75922	-0.129
Mof_N 	N 	0.6751	0.69222	0.93306	-0.104
Mof_N 	N 	0.30856	0.34022	0.04934	-0.129
Mof_N 	N 	0.25922	0.95066	0.29088	-0.129
Mof_N 	N 	0.70738	0.357	0.06106	-0.129
Mof_N 	N 	0.30799	0.96198	0.65609	-0.275
Mof_N 	N 	0.1751	0.93306	0.69222	-0.104
Mof_N 	N 	0.34391	0.53802	0.69201	-0.275
Mof_N 	N 	0.69411	0.53802	0.84601	-0.275
Mof_N 	N 	0.8481	0.69411	0.65609	-0.275
Mof_N 	N 	0.857	0.64962	0.79594	-0.129
Mof_N 	N 	0.79262	0.93894	0.643	-0.129
Mof_N 	N 	0.19201	0.34391	0.03802	-0.275
Mof_N 	N 	0.69222	0.25916	0.01712	-0.104
Mof_N 	N 	0.84601	0.80799	0.6519	-0.275
Mof_N 	N 	0.79088	0.25922	0.45066	-0.129
Mof_N 	N 	0.46198	0.80799	0.15609	-0.275
Mof_N 	N 	0.15609	0.8481	0.19411	-0.275
Mof_N 	N 	0.74078	0.69144	0.53166	-0.129
Mof_N 	N 	0.03802	0.84391	0.19201	-0.275
Mof_N 	N 	0.43306	0.75796	0.74084	-0.104
Mof_N 	N 	0.75796	0.51712	0.3249	-0.104
Mof_N 	N 	0.03166	0.74078	0.19144	-0.129
Mof_N 	N 	0.34022	0.79088	0.03166	-0.129
Mof_N 	N 	0.84022	0.03166	0.79088	-0.129
Mof_N 	N 	0.69411	0.15609	0.3481	-0.275
Mof_N 	N 	0.19222	0.01712	0.25916	-0.104
Mof_N 	N 	0.3249	0.01712	0.75796	-0.104
Mof_N 	N 	0.69144	0.65978	0.95066	-0.129
Mof_N 	N 	0.85368	0.70406	0.06106	-0.129
Mof_N 	N 	0.25916	0.74204	0.56694	-0.104
Mof_N 	N 	0.93306	0.19222	0.6751	-0.104
Mof_N 	N 	0.80589	0.6519	0.84391	-0.275
Mof_N 	N 	0.06106	0.20406	0.85368	-0.129
Mof_N 	N 	0.8249	0.75796	0.01712	-0.104
Mof_N 	N 	0.98288	0.24084	0.30778	-0.104
Mof_N 	N 	0.56106	0.85368	0.20406	-0.129
Mof_N 	N 	0.30856	0.96834	0.75922	-0.129
Mof_N 	N 	0.96198	0.15609	0.80799	-0.275
Mof_N 	N 	0.35368	0.06106	0.70406	-0.129
Mof_N 	N 	0.15609	0.30799	0.46198	-0.275
Mof_N 	N 	0.6519	0.34391	0.30589	-0.275
Mof_N 	N 	0.03166	0.29088	0.34022	-0.129
Mof_N 	N 	0.25922	0.30856	0.46834	-0.129
Mof_N 	N 	0.34601	0.6519	0.80799	-0.275
Mof_N 	N 	0.85038	0.20738	0.64632	-0.129
Mof_N 	N 	0.30778	0.74084	0.98288	-0.104
Mof_N 	N 	0.34601	0.69411	0.03802	-0.275
Mof_N 	N 	0.75916	0.56694	0.74204	-0.104
Mof_N 	N 	0.03802	0.19411	0.34601	-0.275
Mof_N 	N 	0.93306	0.74084	0.75796	-0.104
Mof_N 	N 	0.79088	0.53166	0.84022	-0.129
Mof_N 	N 	0.8249	0.06694	0.30778	-0.104
Mof_N 	N 	0.01712	0.25796	0.8249	-0.104
Mof_N 	N 	0.79262	0.85368	0.64962	-0.129
Mof_N 	N 	0.64962	0.29594	0.357	-0.129
Mof_N 	N 	0.15978	0.96834	0.20912	-0.129
Mof_N 	N 	0.14962	0.79262	0.35368	-0.129
Mof_N 	N 	0.79594	0.14962	0.857	-0.129
Mof_N 	N 	0.357	0.79594	0.64962	-0.129
Mof_N 	N 	0.48288	0.1751	0.74204	-0.104
Mof_N 	N 	0.46198	0.65399	0.80589	-0.275
Mof_N 	N 	0.65399	0.30589	0.96198	-0.275
Mof_N 	N 	0.34022	0.54934	0.80856	-0.129
Mof_N 	N 	0.24078	0.70912	0.04934	-0.129
Mof_N 	N 	0.70406	0.143	0.85038	-0.129
Mof_N 	N 	0.56106	0.70738	0.857	-0.129
Mof_N 	N 	0.80778	0.8249	0.56694	-0.104
Mof_N 	N 	0.54934	0.24078	0.20912	-0.129
Mof_N 	N 	0.357	0.56106	0.20738	-0.129
Mof_N 	N 	0.69144	0.03166	0.24078	-0.129
Mof_N 	N 	0.43306	0.6751	0.19222	-0.104
Mof_N 	N 	0.24084	0.80778	0.48288	-0.104
Mof_N 	N 	0.19144	0.95066	0.65978	-0.129
_end
