data_functionalizedCrystal
_audit_creation_method	'EQeq! by Chris Wilmer'
_symmetry_space_group_name_H-M	'P1'
_symmetry_Int_Tables_number	1
_symmetry_cell_setting	triclinic
loop_
_symmetry_equiv_pos_as_xyz
  x,y,z
_cell_length_a	27.631
_cell_length_b	27.631
_cell_length_c	22.827
_cell_angle_alpha	90
_cell_angle_beta	90
_cell_angle_gamma	120
loop_
_atom_site_label
_atom_site_type_symbol
_atom_site_fract_x
_atom_site_fract_y
_atom_site_fract_z
_atom_site_charge
Mof_Zn	Zn	0.88136	0.54866	0.46734	1.179
Mof_Zn	Zn	0.66734	0.54872	0.46718	1.177
Mof_N 	N 	0.6023	0.4797	0.4985	-0.314
Mof_N 	N 	0.6656	0.531	0.2879	-0.298
Mof_N 	N 	0.5191	0.4024	0.498	-0.365
Mof_N 	N 	0.6653	0.5307	0.3796	-0.306
Mof_C 	C 	0.5542	0.4444	0.4678	0.318
Mof_C 	C 	0.6648	0.4823	0.3003	-0.016
Mof_H 	H 	0.6628	0.4547	0.2742	-0.005
Mof_C 	C 	0.6672	0.5585	0.3339	0.258
Mof_C 	C 	0.5235	0.4261	0.5506	0.348
Mof_C 	C 	0.5733	0.4768	0.5536	-0.195
Mof_C 	C 	0.5906	0.5051	0.6067	0.145
Mof_H 	H 	0.6246	0.5397	0.6088	-0.054
Mof_C 	C 	0.5582	0.4827	0.6566	-0.363
Mof_C 	C 	0.5084	0.432	0.6536	0.86
Mof_C 	C 	0.4911	0.4037	0.6005	-0.655
Mof_H 	H 	0.457	0.3691	0.5984	0.289
Mof_N 	N 	0.8193	0.5552	0.4988	-0.293
Mof_C 	C 	0.784	0.515	0.54	-0.002
Mof_C 	C 	0.7279	0.5082	0.544	-0.042
Mof_N 	N 	0.7366	0.5562	0.4992	-0.276
Mof_C 	C 	0.6675	0.4835	0.3588	-0.017
Mof_H 	H 	0.6704	0.4569	0.3827	0.001
Mof_C 	C 	0.6638	0.6153	0.3371	-0.714
Mof_H 	H 	0.6964	0.644	0.3583	0.231
Mof_H 	H 	0.6296	0.6078	0.3576	0.295
Mof_H 	H 	0.6634	0.6284	0.2973	0.263
Mof_Br	Br	0.6013	0.5176	0.7324	0.376
Mof_C 	C 	0.7827	0.5537	0.4714	0.092
Mof_N 	N 	0.0461	0.6597	0.5081	-0.285
Mof_N 	N 	0.9549	0.6137	0.4902	-0.27
Mof_C 	C 	0.0004	0.6119	0.4987	0.029
Mof_Br	Br	0.0853	0.8671	0.4335	-6.017
Mof_C 	C 	0.0343	0.7824	0.465	-0.687
Mof_C 	C 	0.9764	0.7553	0.461	0.876
Mof_C 	C 	0.9447	0.6981	0.4705	-0.083
Mof_C 	C 	0.9709	0.668	0.485	0.26
Mof_C 	C 	0.0288	0.6951	0.49	0.639
Mof_C 	C 	0.0605	0.7523	0.4803	0.366
Mof_C 	C 	0.8202	0.586	0.552	0.042
Mof_C 	C 	0.8421	0.586	0.6069	-0.01
Mof_C 	C 	0.8201	0.597	0.6566	0.392
Mof_C 	C 	0.7762	0.608	0.6515	-0.07
Mof_C 	C 	0.7542	0.608	0.5967	0.054
Mof_C 	C 	0.776	0.597	0.5469	0.005
Mof_C 	C 	0.533	0.464	0.424	-0.791
Mof_H 	H 	0.4932	0.4487	0.4299	0.223
Mof_H 	H 	0.5401	0.4527	0.3858	0.242
Mof_H 	H 	0.5524	0.5051	0.4261	0.224
Mof_C 	C 	0.606	0.4417	0.541	0.158
Mof_H 	H 	0.638	0.4501	0.5634	-0.043
Mof_C 	C 	0.5632	0.4	0.543	-0.239
Mof_H 	H 	0.5557	0.3686	0.567	0.102
Mof_C 	C 	0.7556	0.6989	0.4749	-0.332
Mof_C 	C 	0.6982	0.6685	0.4838	-0.561
Mof_C 	C 	0.6677	0.696	0.4877	-0.343
Mof_C 	C 	0.6947	0.7538	0.4827	0.472
Mof_C 	C 	0.7521	0.7842	0.4738	-1.484
Mof_C 	C 	0.7826	0.7568	0.4699	0.794
Mof_Br	Br	0.7922	0.8601	0.4653	13.097
Mof_Br	Br	0.8573	0.8002	0.4628	-4.424
Mof_Br	Br	0.8578	0.7962	0.5105	6.782
Mof_Br	Br	0.8003	0.8605	0.508	-15.06
Mof_Br	Br	0.4741	0.3997	0.7272	-3.541
Mof_Br	Br	0.5124	0.3907	0.7635	7.475
Mof_Br	Br	0.8789	0.6531	0.6306	-0.316
Mof_Br	Br	0.896	0.6798	0.7032	-0.084
Mof_Zn	Zn	0.54803	0.88199	0.80067	1.177
Mof_Zn	Zn	0.33401	0.88205	0.80051	1.176
Mof_N 	N 	0.26897	0.81303	0.83183	-0.316
Mof_N 	N 	0.33227	0.86433	0.62123	-0.299
Mof_N 	N 	0.18577	0.73573	0.83133	-0.365
Mof_N 	N 	0.33197	0.86403	0.71293	-0.307
Mof_C 	C 	0.22087	0.77773	0.80113	0.319
Mof_C 	C 	0.33147	0.81563	0.63363	-0.015
Mof_H 	H 	0.32947	0.78803	0.60753	-0.005
Mof_C 	C 	0.33387	0.89183	0.66723	0.262
Mof_C 	C 	0.19017	0.75943	0.88393	0.35
Mof_C 	C 	0.23997	0.81013	0.88693	-0.196
Mof_C 	C 	0.25727	0.83843	0.94003	0.146
Mof_H 	H 	0.29127	0.87303	0.94213	-0.055
Mof_C 	C 	0.22487	0.81603	0.98993	-0.366
Mof_C 	C 	0.17507	0.76533	0.98693	0.865
Mof_C 	C 	0.15777	0.73703	0.93383	-0.658
Mof_H 	H 	0.12367	0.70243	0.93173	0.29
Mof_N 	N 	0.48597	0.88853	0.83213	-0.293
Mof_C 	C 	0.45067	0.84833	0.87333	-0.002
Mof_C 	C 	0.39457	0.84153	0.87733	-0.043
Mof_N 	N 	0.40327	0.88953	0.83253	-0.276
Mof_C 	C 	0.33417	0.81683	0.69213	-0.017
Mof_H 	H 	0.33707	0.79023	0.71603	0.001
Mof_C 	C 	0.33047	0.94863	0.67043	-0.724
Mof_H 	H 	0.36307	0.97733	0.69163	0.234
Mof_H 	H 	0.29627	0.94113	0.69093	0.303
Mof_H 	H 	0.33007	0.96173	0.63063	0.27
Mof_Br	Br	0.26797	0.85093	0.06573	0.38
Mof_C 	C 	0.44937	0.88703	0.80473	0.091
Mof_N 	N 	0.71277	0.99303	0.84143	-0.285
Mof_N 	N 	0.62157	0.94703	0.82353	-0.271
Mof_C 	C 	0.66707	0.94523	0.83203	0.029
Mof_Br	Br	0.75197	0.20043	0.76683	-5.552
Mof_C 	C 	0.70097	0.11573	0.79833	-0.634
Mof_C 	C 	0.64307	0.08863	0.79433	0.819
Mof_C 	C 	0.61137	0.03143	0.80383	-0.079
Mof_C 	C 	0.63757	0.00133	0.81833	0.239
Mof_C 	C 	0.69547	0.02843	0.82333	0.588
Mof_C 	C 	0.72717	0.08563	0.81363	0.341
Mof_C 	C 	0.48687	0.91933	0.88533	0.044
Mof_C 	C 	0.50877	0.91933	0.94023	-0.011
Mof_C 	C 	0.48677	0.93033	0.98993	0.395
Mof_C 	C 	0.44287	0.94133	0.98483	-0.072
Mof_C 	C 	0.42087	0.94133	0.93003	0.058
Mof_C 	C 	0.44267	0.93033	0.88023	0.003
Mof_C 	C 	0.19967	0.79733	0.75733	-0.794
Mof_H 	H 	0.15987	0.78203	0.76323	0.225
Mof_H 	H 	0.20677	0.78603	0.71913	0.244
Mof_H 	H 	0.21907	0.83843	0.75943	0.226
Mof_C 	C 	0.27267	0.77503	0.87433	0.159
Mof_H 	H 	0.30467	0.78343	0.89673	-0.044
Mof_C 	C 	0.22987	0.73333	0.87633	-0.24
Mof_H 	H 	0.22237	0.70193	0.90033	0.102
Mof_C 	C 	0.42227	0.03223	0.80823	-0.316
Mof_C 	C 	0.36487	0.00183	0.81713	-0.502
Mof_C 	C 	0.33437	0.02933	0.82103	-0.304
Mof_C 	C 	0.36137	0.08713	0.81603	0.432
Mof_C 	C 	0.41877	0.11753	0.80713	-1.358
Mof_C 	C 	0.44927	0.09013	0.80323	0.742
Mof_Br	Br	0.45887	0.19343	0.79863	11.989
Mof_Br	Br	0.52397	0.13353	0.79613	-4.083
Mof_Br	Br	0.52447	0.12953	0.84383	6.253
Mof_Br	Br	0.46697	0.19383	0.84133	-13.793
Mof_Br	Br	0.14077	0.73303	0.06053	-3.565
Mof_Br	Br	0.17907	0.72403	0.09683	7.528
Mof_Br	Br	0.54557	0.98643	0.96393	-0.307
Mof_Br	Br	0.56267	0.01313	0.03653	-0.085
Mof_Zn	Zn	0.21469	0.21533	0.13401	1.177
Mof_Zn	Zn	0.00067	0.21539	0.13385	1.176
Mof_N 	N 	0.93563	0.14637	0.16517	-0.315
Mof_N 	N 	0.99893	0.19767	0.95457	-0.298
Mof_N 	N 	0.85243	0.06907	0.16467	-0.368
Mof_N 	N 	0.99863	0.19737	0.04627	-0.305
Mof_C 	C 	0.88753	0.11107	0.13447	0.319
Mof_C 	C 	0.99813	0.14897	0.96697	-0.016
Mof_H 	H 	0.99613	0.12137	0.94087	-0.005
Mof_C 	C 	0.00053	0.22517	0.00057	0.255
Mof_C 	C 	0.85683	0.09277	0.21727	0.37
Mof_C 	C 	0.90663	0.14347	0.22027	-0.212
Mof_C 	C 	0.92393	0.17177	0.27337	0.168
Mof_H 	H 	0.95793	0.20637	0.27547	-0.065
Mof_C 	C 	0.89153	0.14937	0.32327	-0.403
Mof_C 	C 	0.84173	0.09867	0.32027	0.929
Mof_C 	C 	0.82443	0.07037	0.26717	-0.698
Mof_H 	H 	0.79033	0.03577	0.26507	0.307
Mof_N 	N 	0.15263	0.22187	0.16547	-0.294
Mof_C 	C 	0.11733	0.18167	0.20667	-0.002
Mof_C 	C 	0.06123	0.17487	0.21067	-0.044
Mof_N 	N 	0.06993	0.22287	0.16587	-0.276
Mof_C 	C 	0.00083	0.15017	0.02547	-0.018
Mof_H 	H 	0.00373	0.12357	0.04937	0.001
Mof_C 	C 	0.99713	0.28197	0.00377	-0.707
Mof_H 	H 	0.02973	0.31067	0.02497	0.229
Mof_H 	H 	0.96293	0.27447	0.02427	0.293
Mof_H 	H 	0.99673	0.29507	0.96397	0.261
Mof_Br	Br	0.93463	0.18427	0.39907	0.431
Mof_C 	C 	0.11603	0.22037	0.13807	0.09
Mof_N 	N 	0.37943	0.32637	0.17477	-0.285
Mof_N 	N 	0.28823	0.28037	0.15687	-0.271
Mof_C 	C 	0.33373	0.27857	0.16537	0.029
Mof_Br	Br	0.41863	0.53377	0.10017	-5.503
Mof_C 	C 	0.36763	0.44907	0.13167	-0.622
Mof_C 	C 	0.30973	0.42197	0.12767	0.805
Mof_C 	C 	0.27803	0.36477	0.13717	-0.08
Mof_C 	C 	0.30423	0.33467	0.15167	0.236
Mof_C 	C 	0.36213	0.36177	0.15667	0.579
Mof_C 	C 	0.39383	0.41897	0.14697	0.337
Mof_C 	C 	0.15353	0.25267	0.21867	0.046
Mof_C 	C 	0.17543	0.25267	0.27357	-0.014
Mof_C 	C 	0.15343	0.26367	0.32327	0.417
Mof_C 	C 	0.10953	0.27467	0.31817	-0.087
Mof_C 	C 	0.08753	0.27467	0.26337	0.059
Mof_C 	C 	0.10933	0.26367	0.21357	0.002
Mof_C 	C 	0.86633	0.13067	0.09067	-0.793
Mof_H 	H 	0.82653	0.11537	0.09657	0.224
Mof_H 	H 	0.87343	0.11937	0.05247	0.243
Mof_H 	H 	0.88573	0.17177	0.09277	0.225
Mof_C 	C 	0.93933	0.10837	0.20767	0.169
Mof_H 	H 	0.97133	0.11677	0.23007	-0.048
Mof_C 	C 	0.89653	0.06667	0.20967	-0.251
Mof_H 	H 	0.88903	0.03527	0.23367	0.105
Mof_C 	C 	0.08893	0.36557	0.14157	-0.31
Mof_C 	C 	0.03153	0.33517	0.15047	-0.507
Mof_C 	C 	0.00103	0.36267	0.15437	-0.309
Mof_C 	C 	0.02803	0.42047	0.14937	0.433
Mof_C 	C 	0.08543	0.45087	0.14047	-1.359
Mof_C 	C 	0.11593	0.42347	0.13657	0.74
Mof_Br	Br	0.12553	0.52677	0.13197	12.006
Mof_Br	Br	0.19063	0.46687	0.12947	-4.021
Mof_Br	Br	0.19113	0.46287	0.17717	6.151
Mof_Br	Br	0.13363	0.52717	0.17467	-13.815
Mof_Br	Br	0.80743	0.06637	0.39387	-3.848
Mof_Br	Br	0.84573	0.05737	0.43017	8.174
Mof_Br	Br	0.21223	0.31977	0.29727	-0.306
Mof_Br	Br	0.22933	0.34647	0.36987	-0.074
Mof_Zn	Zn	0.45134	0.3327	0.46734	1.178
Mof_Zn	Zn	0.45128	0.11862	0.46718	1.176
Mof_N 	N 	0.5203	0.1226	0.4985	-0.315
Mof_N 	N 	0.469	0.1346	0.2879	-0.299
Mof_N 	N 	0.5976	0.1167	0.498	-0.365
Mof_N 	N 	0.4693	0.1346	0.3796	-0.306
Mof_C 	C 	0.5556	0.1098	0.4678	0.318
Mof_C 	C 	0.5177	0.1825	0.3003	-0.016
Mof_H 	H 	0.5453	0.2081	0.2742	-0.005
Mof_C 	C 	0.4415	0.1087	0.3339	0.259
Mof_C 	C 	0.5739	0.0974	0.5506	0.351
Mof_C 	C 	0.5232	0.0965	0.5536	-0.197
Mof_C 	C 	0.4949	0.0855	0.6067	0.148
Mof_H 	H 	0.4603	0.0849	0.6088	-0.056
Mof_C 	C 	0.5173	0.0755	0.6566	-0.369
Mof_C 	C 	0.568	0.0764	0.6536	0.869
Mof_C 	C 	0.5963	0.0874	0.6005	-0.661
Mof_H 	H 	0.6309	0.0879	0.5984	0.291
Mof_N 	N 	0.4448	0.2641	0.4988	-0.293
Mof_C 	C 	0.485	0.269	0.54	-0.002
Mof_C 	C 	0.4918	0.2197	0.544	-0.043
Mof_N 	N 	0.4438	0.1804	0.4992	-0.276
Mof_C 	C 	0.5165	0.184	0.3588	-0.017
Mof_H 	H 	0.5431	0.2135	0.3827	0.001
Mof_C 	C 	0.3847	0.0485	0.3371	-0.716
Mof_H 	H 	0.356	0.0524	0.3583	0.232
Mof_H 	H 	0.3922	0.0218	0.3576	0.296
Mof_H 	H 	0.3716	0.035	0.2973	0.264
Mof_Br	Br	0.4824	0.0837	0.7324	0.384
Mof_C 	C 	0.4463	0.229	0.4714	0.092
Mof_N 	N 	0.3403	0.3864	0.5081	-0.285
Mof_N 	N 	0.3863	0.3412	0.4902	-0.27
Mof_C 	C 	0.3881	0.3885	0.4987	0.028
Mof_Br	Br	0.1329	0.2182	0.4335	-6.031
Mof_C 	C 	0.2176	0.2519	0.465	-0.687
Mof_C 	C 	0.2447	0.2211	0.461	0.875
Mof_C 	C 	0.3019	0.2466	0.4705	-0.083
Mof_C 	C 	0.332	0.3029	0.485	0.261
Mof_C 	C 	0.3049	0.3337	0.49	0.639
Mof_C 	C 	0.2477	0.3082	0.4803	0.366
Mof_C 	C 	0.414	0.2342	0.552	0.042
Mof_C 	C 	0.414	0.2561	0.6069	-0.01
Mof_C 	C 	0.403	0.2231	0.6566	0.394
Mof_C 	C 	0.392	0.1682	0.6515	-0.072
Mof_C 	C 	0.392	0.1462	0.5967	0.054
Mof_C 	C 	0.403	0.179	0.5469	0.005
Mof_C 	C 	0.536	0.069	0.424	-0.791
Mof_H 	H 	0.5513	0.0445	0.4299	0.224
Mof_H 	H 	0.5473	0.0874	0.3858	0.242
Mof_H 	H 	0.4949	0.0473	0.4261	0.225
Mof_C 	C 	0.5583	0.1643	0.541	0.16
Mof_H 	H 	0.5499	0.1879	0.5634	-0.044
Mof_C 	C 	0.6	0.1632	0.543	-0.241
Mof_H 	H 	0.6314	0.1871	0.567	0.102
Mof_C 	C 	0.3011	0.0567	0.4749	-0.331
Mof_C 	C 	0.3315	0.0297	0.4838	-0.56
Mof_C 	C 	0.304	0.9717	0.4877	-0.343
Mof_C 	C 	0.2462	0.9409	0.4827	0.472
Mof_C 	C 	0.2158	0.9679	0.4738	-1.483
Mof_C 	C 	0.2432	0.0258	0.4699	0.794
Mof_Br	Br	0.1399	0.9321	0.4653	13.083
Mof_Br	Br	0.1998	0.0571	0.4628	-4.415
Mof_Br	Br	0.2038	0.0616	0.5105	6.77
Mof_Br	Br	0.1395	0.9398	0.508	-15.044
Mof_Br	Br	0.6003	0.0744	0.7272	-3.583
Mof_Br	Br	0.6093	0.1217	0.7635	7.57
Mof_Br	Br	0.3469	0.2258	0.6306	-0.316
Mof_Br	Br	0.3202	0.2162	0.7032	-0.083
Mof_Zn	Zn	0.11801	0.66603	0.80067	1.177
Mof_Zn	Zn	0.11795	0.45195	0.80051	1.176
Mof_N 	N 	0.18697	0.45593	0.83183	-0.316
Mof_N 	N 	0.13567	0.46793	0.62123	-0.299
Mof_N 	N 	0.26427	0.45003	0.83133	-0.365
Mof_N 	N 	0.13597	0.46793	0.71293	-0.307
Mof_C 	C 	0.22227	0.44313	0.80113	0.319
Mof_C 	C 	0.18437	0.51583	0.63363	-0.015
Mof_H 	H 	0.21197	0.54143	0.60753	-0.005
Mof_C 	C 	0.10817	0.44203	0.66723	0.262
Mof_C 	C 	0.24057	0.43073	0.88393	0.346
Mof_C 	C 	0.18987	0.42983	0.88693	-0.193
Mof_C 	C 	0.16157	0.41883	0.94003	0.142
Mof_H 	H 	0.12697	0.41823	0.94213	-0.053
Mof_C 	C 	0.18397	0.40883	0.98993	-0.359
Mof_C 	C 	0.23467	0.40973	0.98693	0.853
Mof_C 	C 	0.26297	0.42073	0.93383	-0.651
Mof_H 	H 	0.29757	0.42123	0.93173	0.287
Mof_N 	N 	0.11147	0.59743	0.83213	-0.293
Mof_C 	C 	0.15167	0.60233	0.87333	-0.002
Mof_C 	C 	0.15847	0.55303	0.87733	-0.043
Mof_N 	N 	0.11047	0.51373	0.83253	-0.276
Mof_C 	C 	0.18317	0.51733	0.69213	-0.017
Mof_H 	H 	0.20977	0.54683	0.71603	0.001
Mof_C 	C 	0.05137	0.38183	0.67043	-0.724
Mof_H 	H 	0.02267	0.38573	0.69163	0.234
Mof_H 	H 	0.05887	0.35513	0.69093	0.304
Mof_H 	H 	0.03827	0.36833	0.63063	0.27
Mof_Br	Br	0.14907	0.41703	0.06573	0.371
Mof_C 	C 	0.11297	0.56233	0.80473	0.09
Mof_N 	N 	0.00697	0.71973	0.84143	-0.285
Mof_N 	N 	0.05297	0.67453	0.82353	-0.271
Mof_C 	C 	0.05477	0.72183	0.83203	0.029
Mof_Br	Br	0.79957	0.55153	0.76683	-5.47
Mof_C 	C 	0.88427	0.58523	0.79833	-0.626
Mof_C 	C 	0.91137	0.55443	0.79433	0.812
Mof_C 	C 	0.96857	0.57993	0.80383	-0.078
Mof_C 	C 	0.99867	0.63623	0.81833	0.236
Mof_C 	C 	0.97157	0.66703	0.82333	0.582
Mof_C 	C 	0.91437	0.64153	0.81363	0.337
Mof_C 	C 	0.08067	0.56753	0.88533	0.044
Mof_C 	C 	0.08067	0.58943	0.94023	-0.011
Mof_C 	C 	0.06967	0.55643	0.98993	0.392
Mof_C 	C 	0.05867	0.50153	0.98483	-0.07
Mof_C 	C 	0.05867	0.47953	0.93003	0.058
Mof_C 	C 	0.06967	0.51233	0.88023	0.003
Mof_C 	C 	0.20267	0.40233	0.75733	-0.794
Mof_H 	H 	0.21797	0.37783	0.76323	0.225
Mof_H 	H 	0.21397	0.42073	0.71913	0.244
Mof_H 	H 	0.16157	0.38063	0.75943	0.226
Mof_C 	C 	0.22497	0.49763	0.87433	0.157
Mof_H 	H 	0.21657	0.52123	0.89673	-0.043
Mof_C 	C 	0.26667	0.49653	0.87633	-0.238
Mof_H 	H 	0.29807	0.52043	0.90033	0.101
Mof_C 	C 	0.96777	0.39003	0.80823	-0.316
Mof_C 	C 	0.99817	0.36303	0.81713	-0.503
Mof_C 	C 	0.97067	0.30503	0.82103	-0.305
Mof_C 	C 	0.91287	0.27423	0.81603	0.434
Mof_C 	C 	0.88247	0.30123	0.80713	-1.365
Mof_C 	C 	0.90987	0.35913	0.80323	0.744
Mof_Br	Br	0.80657	0.26543	0.79863	12.047
Mof_Br	Br	0.86647	0.39043	0.79613	-4.063
Mof_Br	Br	0.87047	0.39493	0.84383	6.219
Mof_Br	Br	0.80617	0.27313	0.84133	-13.86
Mof_Br	Br	0.26697	0.40773	0.06053	-3.511
Mof_Br	Br	0.27597	0.45503	0.09683	7.407
Mof_Br	Br	0.01357	0.55913	0.96393	-0.305
Mof_Br	Br	0.98687	0.54953	0.03653	-0.087
Mof_Zn	Zn	0.78467	0.99937	0.13401	1.177
Mof_Zn	Zn	0.78461	0.78529	0.13385	1.176
Mof_N 	N 	0.85363	0.78927	0.16517	-0.315
Mof_N 	N 	0.80233	0.80127	0.95457	-0.299
Mof_N 	N 	0.93093	0.78337	0.16467	-0.368
Mof_N 	N 	0.80263	0.80127	0.04627	-0.307
Mof_C 	C 	0.88893	0.77647	0.13447	0.318
Mof_C 	C 	0.85103	0.84917	0.96697	-0.016
Mof_H 	H 	0.87863	0.87477	0.94087	-0.005
Mof_C 	C 	0.77483	0.77537	0.00057	0.257
Mof_C 	C 	0.90723	0.76407	0.21727	0.371
Mof_C 	C 	0.85653	0.76317	0.22027	-0.212
Mof_C 	C 	0.82823	0.75217	0.27337	0.169
Mof_H 	H 	0.79363	0.75157	0.27547	-0.065
Mof_C 	C 	0.85063	0.74217	0.32327	-0.404
Mof_C 	C 	0.90133	0.74307	0.32027	0.931
Mof_C 	C 	0.92963	0.75407	0.26717	-0.7
Mof_H 	H 	0.96423	0.75457	0.26507	0.308
Mof_N 	N 	0.77813	0.93077	0.16547	-0.294
Mof_C 	C 	0.81833	0.93567	0.20667	-0.002
Mof_C 	C 	0.82513	0.88637	0.21067	-0.044
Mof_N 	N 	0.77713	0.84707	0.16587	-0.276
Mof_C 	C 	0.84983	0.85067	0.02547	-0.018
Mof_H 	H 	0.87643	0.88017	0.04937	0.001
Mof_C 	C 	0.71803	0.71517	0.00377	-0.714
Mof_H 	H 	0.68933	0.71907	0.02497	0.231
Mof_H 	H 	0.72553	0.68847	0.02427	0.294
Mof_H 	H 	0.70493	0.70167	0.96397	0.262
Mof_Br	Br	0.81573	0.75037	0.39907	0.433
Mof_C 	C 	0.77963	0.89567	0.13807	0.09
Mof_N 	N 	0.67363	0.05307	0.17477	-0.285
Mof_N 	N 	0.71963	0.00787	0.15687	-0.27
Mof_C 	C 	0.72143	0.05517	0.16537	0.029
Mof_Br	Br	0.46623	0.88487	0.10017	-5.573
Mof_C 	C 	0.55093	0.91857	0.13167	-0.631
Mof_C 	C 	0.57803	0.88777	0.12767	0.813
Mof_C 	C 	0.63523	0.91327	0.13717	-0.077
Mof_C 	C 	0.66533	0.96957	0.15167	0.232
Mof_C 	C 	0.63823	0.00037	0.15667	0.577
Mof_C 	C 	0.58103	0.97487	0.14697	0.345
Mof_C 	C 	0.74733	0.90087	0.21867	0.046
Mof_C 	C 	0.74733	0.92277	0.27357	-0.014
Mof_C 	C 	0.73633	0.88977	0.32327	0.417
Mof_C 	C 	0.72533	0.83487	0.31817	-0.087
Mof_C 	C 	0.72533	0.81287	0.26337	0.059
Mof_C 	C 	0.73633	0.84567	0.21357	0.002
Mof_C 	C 	0.86933	0.73567	0.09067	-0.791
Mof_H 	H 	0.88463	0.71117	0.09657	0.224
Mof_H 	H 	0.88063	0.75407	0.05247	0.242
Mof_H 	H 	0.82823	0.71397	0.09277	0.224
Mof_C 	C 	0.89163	0.83097	0.20767	0.169
Mof_H 	H 	0.88323	0.85457	0.23007	-0.049
Mof_C 	C 	0.93333	0.82987	0.20967	-0.251
Mof_H 	H 	0.96473	0.85377	0.23367	0.105
Mof_C 	C 	0.63443	0.72337	0.14157	-0.31
Mof_C 	C 	0.66483	0.69637	0.15047	-0.507
Mof_C 	C 	0.63733	0.63837	0.15437	-0.308
Mof_C 	C 	0.57953	0.60757	0.14937	0.432
Mof_C 	C 	0.54913	0.63457	0.14047	-1.354
Mof_C 	C 	0.57653	0.69247	0.13657	0.738
Mof_Br	Br	0.47323	0.59877	0.13197	11.96
Mof_Br	Br	0.53313	0.72377	0.12947	-4.048
Mof_Br	Br	0.53713	0.72827	0.17717	6.198
Mof_Br	Br	0.47283	0.60647	0.17467	-13.761
Mof_Br	Br	0.93363	0.74107	0.39387	-3.86
Mof_Br	Br	0.94263	0.78837	0.43017	8.2
Mof_Br	Br	0.68023	0.89247	0.29727	-0.308
Mof_Br	Br	0.65353	0.88287	0.36987	-0.074
Mof_Zn	Zn	0.6673	0.11864	0.46734	1.178
Mof_Zn	Zn	0.88138	0.33266	0.46718	1.176
Mof_N 	N 	0.8774	0.3977	0.4985	-0.315
Mof_N 	N 	0.8654	0.3344	0.2879	-0.299
Mof_N 	N 	0.8833	0.4809	0.498	-0.365
Mof_N 	N 	0.8654	0.3347	0.3796	-0.306
Mof_C 	C 	0.8902	0.4458	0.4678	0.318
Mof_C 	C 	0.8175	0.3352	0.3003	-0.016
Mof_H 	H 	0.7919	0.3372	0.2742	-0.005
Mof_C 	C 	0.8913	0.3328	0.3339	0.258
Mof_C 	C 	0.9026	0.4765	0.5506	0.349
Mof_C 	C 	0.9035	0.4267	0.5536	-0.196
Mof_C 	C 	0.9145	0.4094	0.6067	0.146
Mof_H 	H 	0.9151	0.3754	0.6088	-0.055
Mof_C 	C 	0.9245	0.4418	0.6566	-0.365
Mof_C 	C 	0.9236	0.4916	0.6536	0.863
Mof_C 	C 	0.9126	0.5089	0.6005	-0.657
Mof_H 	H 	0.9121	0.543	0.5984	0.289
Mof_N 	N 	0.7359	0.1807	0.4988	-0.293
Mof_C 	C 	0.731	0.216	0.54	-0.002
Mof_C 	C 	0.7803	0.2721	0.544	-0.043
Mof_N 	N 	0.8196	0.2634	0.4992	-0.276
Mof_C 	C 	0.816	0.3325	0.3588	-0.017
Mof_H 	H 	0.7865	0.3296	0.3827	0.001
Mof_C 	C 	0.9515	0.3362	0.3371	-0.715
Mof_H 	H 	0.9476	0.3036	0.3583	0.232
Mof_H 	H 	0.9782	0.3704	0.3576	0.296
Mof_H 	H 	0.965	0.3366	0.2973	0.263
Mof_Br	Br	0.9163	0.3987	0.7324	0.379
Mof_C 	C 	0.771	0.2173	0.4714	0.092
Mof_N 	N 	0.6136	0.9539	0.5081	-0.285
Mof_N 	N 	0.6588	0.0451	0.4902	-0.27
Mof_C 	C 	0.6115	0.9996	0.4987	0.028
Mof_Br	Br	0.7818	0.9147	0.4335	-6.02
Mof_C 	C 	0.7481	0.9657	0.465	-0.685
Mof_C 	C 	0.7789	0.0236	0.461	0.874
Mof_C 	C 	0.7534	0.0553	0.4705	-0.083
Mof_C 	C 	0.6971	0.0291	0.485	0.261
Mof_C 	C 	0.6663	0.9712	0.49	0.638
Mof_C 	C 	0.6918	0.9395	0.4803	0.366
Mof_C 	C 	0.7658	0.1798	0.552	0.042
Mof_C 	C 	0.7439	0.1579	0.6069	-0.01
Mof_C 	C 	0.7769	0.1799	0.6566	0.396
Mof_C 	C 	0.8318	0.2238	0.6515	-0.073
Mof_C 	C 	0.8538	0.2458	0.5967	0.054
Mof_C 	C 	0.821	0.224	0.5469	0.005
Mof_C 	C 	0.931	0.467	0.424	-0.791
Mof_H 	H 	0.9555	0.5068	0.4299	0.224
Mof_H 	H 	0.9126	0.4599	0.3858	0.242
Mof_H 	H 	0.9527	0.4476	0.4261	0.225
Mof_C 	C 	0.8357	0.394	0.541	0.159
Mof_H 	H 	0.8121	0.362	0.5634	-0.044
Mof_C 	C 	0.8368	0.4368	0.543	-0.24
Mof_H 	H 	0.8129	0.4443	0.567	0.102
Mof_C 	C 	0.9433	0.2444	0.4749	-0.332
Mof_C 	C 	0.9703	0.3018	0.4838	-0.56
Mof_C 	C 	0.0283	0.3323	0.4877	-0.343
Mof_C 	C 	0.0591	0.3053	0.4827	0.473
Mof_C 	C 	0.0321	0.2479	0.4738	-1.487
Mof_C 	C 	0.9742	0.2174	0.4699	0.796
Mof_Br	Br	0.0679	0.2078	0.4653	13.123
Mof_Br	Br	0.9429	0.1427	0.4628	-4.416
Mof_Br	Br	0.9384	0.1422	0.5105	6.769
Mof_Br	Br	0.0602	0.1997	0.508	-15.091
Mof_Br	Br	0.9256	0.5259	0.7272	-3.555
Mof_Br	Br	0.8783	0.4876	0.7635	7.505
Mof_Br	Br	0.7742	0.1211	0.6306	-0.316
Mof_Br	Br	0.7838	0.104	0.7032	-0.082
Mof_Zn	Zn	0.33397	0.45197	0.80067	1.177
Mof_Zn	Zn	0.54805	0.66599	0.80051	1.176
Mof_N 	N 	0.54407	0.73103	0.83183	-0.316
Mof_N 	N 	0.53207	0.66773	0.62123	-0.299
Mof_N 	N 	0.54997	0.81423	0.83133	-0.365
Mof_N 	N 	0.53207	0.66803	0.71293	-0.307
Mof_C 	C 	0.55687	0.77913	0.80113	0.319
Mof_C 	C 	0.48417	0.66853	0.63363	-0.015
Mof_H 	H 	0.45857	0.67053	0.60753	-0.005
Mof_C 	C 	0.55797	0.66613	0.66723	0.262
Mof_C 	C 	0.56927	0.80983	0.88393	0.348
Mof_C 	C 	0.57017	0.76003	0.88693	-0.195
Mof_C 	C 	0.58117	0.74273	0.94003	0.145
Mof_H 	H 	0.58177	0.70873	0.94213	-0.054
Mof_C 	C 	0.59117	0.77513	0.98993	-0.364
Mof_C 	C 	0.59027	0.82493	0.98693	0.862
Mof_C 	C 	0.57927	0.84223	0.93383	-0.656
Mof_H 	H 	0.57877	0.87633	0.93173	0.289
Mof_N 	N 	0.40257	0.51403	0.83213	-0.293
Mof_C 	C 	0.39767	0.54933	0.87333	-0.002
Mof_C 	C 	0.44697	0.60543	0.87733	-0.043
Mof_N 	N 	0.48627	0.59673	0.83253	-0.276
Mof_C 	C 	0.48267	0.66583	0.69213	-0.017
Mof_H 	H 	0.45317	0.66293	0.71603	0.001
Mof_C 	C 	0.61817	0.66953	0.67043	-0.724
Mof_H 	H 	0.61427	0.63693	0.69163	0.234
Mof_H 	H 	0.64487	0.70373	0.69093	0.303
Mof_H 	H 	0.63167	0.66993	0.63063	0.27
Mof_Br	Br	0.58297	0.73203	0.06573	0.377
Mof_C 	C 	0.43767	0.55063	0.80473	0.09
Mof_N 	N 	0.28027	0.28723	0.84143	-0.285
Mof_N 	N 	0.32547	0.37843	0.82353	-0.271
Mof_C 	C 	0.27817	0.33293	0.83203	0.029
Mof_Br	Br	0.44847	0.24803	0.76683	-5.521
Mof_C 	C 	0.41477	0.29903	0.79833	-0.627
Mof_C 	C 	0.44557	0.35693	0.79433	0.81
Mof_C 	C 	0.42007	0.38863	0.80383	-0.079
Mof_C 	C 	0.36377	0.36243	0.81833	0.236
Mof_C 	C 	0.33297	0.30453	0.82333	0.582
Mof_C 	C 	0.35847	0.27283	0.81363	0.338
Mof_C 	C 	0.43247	0.51313	0.88533	0.044
Mof_C 	C 	0.41057	0.49123	0.94023	-0.011
Mof_C 	C 	0.44357	0.51323	0.98993	0.391
Mof_C 	C 	0.49847	0.55713	0.98483	-0.069
Mof_C 	C 	0.52047	0.57913	0.93003	0.059
Mof_C 	C 	0.48767	0.55733	0.88023	0.003
Mof_C 	C 	0.59767	0.80033	0.75733	-0.794
Mof_H 	H 	0.62217	0.84013	0.76323	0.225
Mof_H 	H 	0.57927	0.79323	0.71913	0.244
Mof_H 	H 	0.61937	0.78093	0.75943	0.226
Mof_C 	C 	0.50237	0.72733	0.87433	0.158
Mof_H 	H 	0.47877	0.69533	0.89673	-0.043
Mof_C 	C 	0.50347	0.77013	0.87633	-0.24
Mof_H 	H 	0.47957	0.77763	0.90033	0.102
Mof_C 	C 	0.60997	0.57773	0.80823	-0.308
Mof_C 	C 	0.63697	0.63513	0.81713	-0.504
Mof_C 	C 	0.69497	0.66563	0.82103	-0.307
Mof_C 	C 	0.72577	0.63863	0.81603	0.43
Mof_C 	C 	0.69877	0.58123	0.80713	-1.343
Mof_C 	C 	0.64087	0.55073	0.80323	0.733
Mof_Br	Br	0.73457	0.54113	0.79863	11.856
Mof_Br	Br	0.60957	0.47603	0.79613	-4.031
Mof_Br	Br	0.60507	0.47553	0.84383	6.174
Mof_Br	Br	0.72687	0.53303	0.84133	-13.64
Mof_Br	Br	0.59227	0.85923	0.06053	-3.548
Mof_Br	Br	0.54497	0.82093	0.09683	7.49
Mof_Br	Br	0.44087	0.45443	0.96393	-0.305
Mof_Br	Br	0.45047	0.43733	0.03653	-0.089
Mof_Zn	Zn	0.00063	0.78531	0.13401	1.177
Mof_Zn	Zn	0.21471	0.99933	0.13385	1.176
Mof_N 	N 	0.21073	0.06437	0.16517	-0.315
Mof_N 	N 	0.19873	0.00107	0.95457	-0.298
Mof_N 	N 	0.21663	0.14757	0.16467	-0.368
Mof_N 	N 	0.19873	0.00137	0.04627	-0.305
Mof_C 	C 	0.22353	0.11247	0.13447	0.318
Mof_C 	C 	0.15083	0.00187	0.96697	-0.015
Mof_H 	H 	0.12523	0.00387	0.94087	-0.006
Mof_C 	C 	0.22463	0.99947	0.00057	0.255
Mof_C 	C 	0.23593	0.14317	0.21727	0.37
Mof_C 	C 	0.23683	0.09337	0.22027	-0.212
Mof_C 	C 	0.24783	0.07607	0.27337	0.168
Mof_H 	H 	0.24843	0.04207	0.27547	-0.065
Mof_C 	C 	0.25783	0.10847	0.32327	-0.403
Mof_C 	C 	0.25693	0.15827	0.32027	0.93
Mof_C 	C 	0.24593	0.17557	0.26717	-0.698
Mof_H 	H 	0.24543	0.20967	0.26507	0.308
Mof_N 	N 	0.06923	0.84737	0.16547	-0.294
Mof_C 	C 	0.06433	0.88267	0.20667	-0.002
Mof_C 	C 	0.11363	0.93877	0.21067	-0.044
Mof_N 	N 	0.15293	0.93007	0.16587	-0.276
Mof_C 	C 	0.14933	0.99917	0.02547	-0.019
Mof_H 	H 	0.11983	0.99627	0.04937	0.001
Mof_C 	C 	0.28483	0.00287	0.00377	-0.709
Mof_H 	H 	0.28093	0.97027	0.02497	0.229
Mof_H 	H 	0.31153	0.03707	0.02427	0.293
Mof_H 	H 	0.29833	0.00327	0.96397	0.261
Mof_Br	Br	0.24963	0.06537	0.39907	0.432
Mof_C 	C 	0.10433	0.88397	0.13807	0.09
Mof_N 	N 	0.94693	0.62057	0.17477	-0.285
Mof_N 	N 	0.99213	0.71177	0.15687	-0.27
Mof_C 	C 	0.94483	0.66627	0.16537	0.029
Mof_Br	Br	0.11513	0.58137	0.10017	-5.534
Mof_C 	C 	0.08143	0.63237	0.13167	-0.632
Mof_C 	C 	0.11223	0.69027	0.12767	0.816
Mof_C 	C 	0.08673	0.72197	0.13717	-0.077
Mof_C 	C 	0.03043	0.69577	0.15167	0.232
Mof_C 	C 	0.99963	0.63787	0.15667	0.579
Mof_C 	C 	0.02513	0.60617	0.14697	0.344
Mof_C 	C 	0.09913	0.84647	0.21867	0.045
Mof_C 	C 	0.07723	0.82457	0.27357	-0.014
Mof_C 	C 	0.11023	0.84657	0.32327	0.417
Mof_C 	C 	0.16513	0.89047	0.31817	-0.087
Mof_C 	C 	0.18713	0.91247	0.26337	0.059
Mof_C 	C 	0.15433	0.89067	0.21357	0.002
Mof_C 	C 	0.26433	0.13367	0.09067	-0.792
Mof_H 	H 	0.28883	0.17347	0.09657	0.224
Mof_H 	H 	0.24593	0.12657	0.05247	0.242
Mof_H 	H 	0.28603	0.11427	0.09277	0.225
Mof_C 	C 	0.16903	0.06067	0.20767	0.169
Mof_H 	H 	0.14543	0.02867	0.23007	-0.048
Mof_C 	C 	0.17013	0.10347	0.20967	-0.251
Mof_H 	H 	0.14623	0.11097	0.23367	0.104
Mof_C 	C 	0.27663	0.91107	0.14157	-0.313
Mof_C 	C 	0.30363	0.96847	0.15047	-0.513
Mof_C 	C 	0.36163	0.99897	0.15437	-0.312
Mof_C 	C 	0.39243	0.97197	0.14937	0.437
Mof_C 	C 	0.36543	0.91457	0.14047	-1.372
Mof_C 	C 	0.30753	0.88407	0.13657	0.746
Mof_Br	Br	0.40123	0.87447	0.13197	12.112
Mof_Br	Br	0.27623	0.80937	0.12947	-4.078
Mof_Br	Br	0.27173	0.80887	0.17717	6.241
Mof_Br	Br	0.39353	0.86637	0.17467	-13.936
Mof_Br	Br	0.25893	0.19257	0.39387	-3.852
Mof_Br	Br	0.21163	0.15427	0.43017	8.183
Mof_Br	Br	0.10753	0.78777	0.29727	-0.308
Mof_Br	Br	0.11713	0.77067	0.36987	-0.074
Mof_Zn	Zn	0.11864	0.45134	0.53266	1.178
Mof_Zn	Zn	0.33266	0.45128	0.53282	1.176
Mof_N 	N 	0.3977	0.5203	0.5015	-0.315
Mof_N 	N 	0.3344	0.469	0.7121	-0.299
Mof_N 	N 	0.4809	0.5976	0.502	-0.365
Mof_N 	N 	0.3347	0.4693	0.6204	-0.306
Mof_C 	C 	0.4458	0.5556	0.5322	0.318
Mof_C 	C 	0.3352	0.5177	0.6997	-0.016
Mof_H 	H 	0.3372	0.5453	0.7258	-0.005
Mof_C 	C 	0.3328	0.4415	0.6661	0.258
Mof_C 	C 	0.4765	0.5739	0.4494	0.348
Mof_C 	C 	0.4267	0.5232	0.4464	-0.195
Mof_C 	C 	0.4094	0.4949	0.3933	0.145
Mof_H 	H 	0.3754	0.4603	0.3912	-0.054
Mof_C 	C 	0.4418	0.5173	0.3434	-0.363
Mof_C 	C 	0.4916	0.568	0.3464	0.86
Mof_C 	C 	0.5089	0.5963	0.3995	-0.655
Mof_H 	H 	0.543	0.6309	0.4016	0.289
Mof_N 	N 	0.1807	0.4448	0.5012	-0.293
Mof_C 	C 	0.216	0.485	0.46	-0.002
Mof_C 	C 	0.2721	0.4918	0.456	-0.042
Mof_N 	N 	0.2634	0.4438	0.5008	-0.276
Mof_C 	C 	0.3325	0.5165	0.6412	-0.017
Mof_H 	H 	0.3296	0.5431	0.6173	0.001
Mof_C 	C 	0.3362	0.3847	0.6629	-0.714
Mof_H 	H 	0.3036	0.356	0.6417	0.231
Mof_H 	H 	0.3704	0.3922	0.6424	0.295
Mof_H 	H 	0.3366	0.3716	0.7027	0.263
Mof_Br	Br	0.3987	0.4824	0.2676	0.376
Mof_C 	C 	0.2173	0.4463	0.5286	0.092
Mof_N 	N 	0.9539	0.3403	0.4919	-0.285
Mof_N 	N 	0.0451	0.3863	0.5098	-0.27
Mof_C 	C 	0.9996	0.3881	0.5013	0.029
Mof_Br	Br	0.9147	0.1329	0.5665	-6.017
Mof_C 	C 	0.9657	0.2176	0.535	-0.687
Mof_C 	C 	0.0236	0.2447	0.539	0.876
Mof_C 	C 	0.0553	0.3019	0.5295	-0.083
Mof_C 	C 	0.0291	0.332	0.515	0.26
Mof_C 	C 	0.9712	0.3049	0.51	0.639
Mof_C 	C 	0.9395	0.2477	0.5197	0.366
Mof_C 	C 	0.1798	0.414	0.448	0.042
Mof_C 	C 	0.1579	0.414	0.3931	-0.01
Mof_C 	C 	0.1799	0.403	0.3434	0.392
Mof_C 	C 	0.2238	0.392	0.3485	-0.07
Mof_C 	C 	0.2458	0.392	0.4033	0.054
Mof_C 	C 	0.224	0.403	0.4531	0.005
Mof_C 	C 	0.467	0.536	0.576	-0.791
Mof_H 	H 	0.5068	0.5513	0.5701	0.223
Mof_H 	H 	0.4599	0.5473	0.6142	0.242
Mof_H 	H 	0.4476	0.4949	0.5739	0.224
Mof_C 	C 	0.394	0.5583	0.459	0.158
Mof_H 	H 	0.362	0.5499	0.4366	-0.043
Mof_C 	C 	0.4368	0.6	0.457	-0.239
Mof_H 	H 	0.4443	0.6314	0.433	0.102
Mof_C 	C 	0.2444	0.3011	0.5251	-0.332
Mof_C 	C 	0.3018	0.3315	0.5162	-0.561
Mof_C 	C 	0.3323	0.304	0.5123	-0.343
Mof_C 	C 	0.3053	0.2462	0.5173	0.472
Mof_C 	C 	0.2479	0.2158	0.5262	-1.484
Mof_C 	C 	0.2174	0.2432	0.5301	0.794
Mof_Br	Br	0.2078	0.1399	0.5347	13.097
Mof_Br	Br	0.1427	0.1998	0.5372	-4.424
Mof_Br	Br	0.1422	0.2038	0.4895	6.782
Mof_Br	Br	0.1997	0.1395	0.492	-15.06
Mof_Br	Br	0.5259	0.6003	0.2728	-3.541
Mof_Br	Br	0.4876	0.6093	0.2365	7.475
Mof_Br	Br	0.1211	0.3469	0.3694	-0.316
Mof_Br	Br	0.104	0.3202	0.2968	-0.084
Mof_Zn	Zn	0.78531	0.78467	0.86599	1.177
Mof_Zn	Zn	0.99933	0.78461	0.86615	1.176
Mof_N 	N 	0.06437	0.85363	0.83483	-0.315
Mof_N 	N 	0.00107	0.80233	0.04543	-0.298
Mof_N 	N 	0.14757	0.93093	0.83533	-0.368
Mof_N 	N 	0.00137	0.80263	0.95373	-0.305
Mof_C 	C 	0.11247	0.88893	0.86553	0.319
Mof_C 	C 	0.00187	0.85103	0.03303	-0.016
Mof_H 	H 	0.00387	0.87863	0.05913	-0.005
Mof_C 	C 	0.99947	0.77483	0.99943	0.255
Mof_C 	C 	0.14317	0.90723	0.78273	0.37
Mof_C 	C 	0.09337	0.85653	0.77973	-0.212
Mof_C 	C 	0.07607	0.82823	0.72663	0.168
Mof_H 	H 	0.04207	0.79363	0.72453	-0.065
Mof_C 	C 	0.10847	0.85063	0.67673	-0.403
Mof_C 	C 	0.15827	0.90133	0.67973	0.929
Mof_C 	C 	0.17557	0.92963	0.73283	-0.698
Mof_H 	H 	0.20967	0.96423	0.73493	0.307
Mof_N 	N 	0.84737	0.77813	0.83453	-0.294
Mof_C 	C 	0.88267	0.81833	0.79333	-0.002
Mof_C 	C 	0.93877	0.82513	0.78933	-0.044
Mof_N 	N 	0.93007	0.77713	0.83413	-0.276
Mof_C 	C 	0.99917	0.84983	0.97453	-0.018
Mof_H 	H 	0.99627	0.87643	0.95063	0.001
Mof_C 	C 	0.00287	0.71803	0.99623	-0.707
Mof_H 	H 	0.97027	0.68933	0.97503	0.229
Mof_H 	H 	0.03707	0.72553	0.97573	0.293
Mof_H 	H 	0.00327	0.70493	0.03603	0.261
Mof_Br	Br	0.06537	0.81573	0.60093	0.431
Mof_C 	C 	0.88397	0.77963	0.86193	0.09
Mof_N 	N 	0.62057	0.67363	0.82523	-0.285
Mof_N 	N 	0.71177	0.71963	0.84313	-0.271
Mof_C 	C 	0.66627	0.72143	0.83463	0.029
Mof_Br	Br	0.58137	0.46623	0.89983	-5.503
Mof_C 	C 	0.63237	0.55093	0.86833	-0.622
Mof_C 	C 	0.69027	0.57803	0.87233	0.805
Mof_C 	C 	0.72197	0.63523	0.86283	-0.08
Mof_C 	C 	0.69577	0.66533	0.84833	0.236
Mof_C 	C 	0.63787	0.63823	0.84333	0.579
Mof_C 	C 	0.60617	0.58103	0.85303	0.337
Mof_C 	C 	0.84647	0.74733	0.78133	0.046
Mof_C 	C 	0.82457	0.74733	0.72643	-0.014
Mof_C 	C 	0.84657	0.73633	0.67673	0.417
Mof_C 	C 	0.89047	0.72533	0.68183	-0.087
Mof_C 	C 	0.91247	0.72533	0.73663	0.059
Mof_C 	C 	0.89067	0.73633	0.78643	0.002
Mof_C 	C 	0.13367	0.86933	0.90933	-0.793
Mof_H 	H 	0.17347	0.88463	0.90343	0.224
Mof_H 	H 	0.12657	0.88063	0.94753	0.243
Mof_H 	H 	0.11427	0.82823	0.90723	0.225
Mof_C 	C 	0.06067	0.89163	0.79233	0.169
Mof_H 	H 	0.02867	0.88323	0.76993	-0.048
Mof_C 	C 	0.10347	0.93333	0.79033	-0.251
Mof_H 	H 	0.11097	0.96473	0.76633	0.105
Mof_C 	C 	0.91107	0.63443	0.85843	-0.31
Mof_C 	C 	0.96847	0.66483	0.84953	-0.507
Mof_C 	C 	0.99897	0.63733	0.84563	-0.309
Mof_C 	C 	0.97197	0.57953	0.85063	0.433
Mof_C 	C 	0.91457	0.54913	0.85953	-1.359
Mof_C 	C 	0.88407	0.57653	0.86343	0.74
Mof_Br	Br	0.87447	0.47323	0.86803	12.006
Mof_Br	Br	0.80937	0.53313	0.87053	-4.021
Mof_Br	Br	0.80887	0.53713	0.82283	6.151
Mof_Br	Br	0.86637	0.47283	0.82533	-13.815
Mof_Br	Br	0.19257	0.93363	0.60613	-3.848
Mof_Br	Br	0.15427	0.94263	0.56983	8.174
Mof_Br	Br	0.78777	0.68023	0.70273	-0.306
Mof_Br	Br	0.77067	0.65353	0.63013	-0.074
Mof_Zn	Zn	0.45197	0.11801	0.19933	1.177
Mof_Zn	Zn	0.66599	0.11795	0.19949	1.176
Mof_N 	N 	0.73103	0.18697	0.16817	-0.316
Mof_N 	N 	0.66773	0.13567	0.37877	-0.299
Mof_N 	N 	0.81423	0.26427	0.16867	-0.365
Mof_N 	N 	0.66803	0.13597	0.28707	-0.307
Mof_C 	C 	0.77913	0.22227	0.19887	0.319
Mof_C 	C 	0.66853	0.18437	0.36637	-0.015
Mof_H 	H 	0.67053	0.21197	0.39247	-0.005
Mof_C 	C 	0.66613	0.10817	0.33277	0.262
Mof_C 	C 	0.80983	0.24057	0.11607	0.35
Mof_C 	C 	0.76003	0.18987	0.11307	-0.196
Mof_C 	C 	0.74273	0.16157	0.05997	0.146
Mof_H 	H 	0.70873	0.12697	0.05787	-0.055
Mof_C 	C 	0.77513	0.18397	0.01007	-0.366
Mof_C 	C 	0.82493	0.23467	0.01307	0.865
Mof_C 	C 	0.84223	0.26297	0.06617	-0.658
Mof_H 	H 	0.87633	0.29757	0.06827	0.29
Mof_N 	N 	0.51403	0.11147	0.16787	-0.293
Mof_C 	C 	0.54933	0.15167	0.12667	-0.002
Mof_C 	C 	0.60543	0.15847	0.12267	-0.043
Mof_N 	N 	0.59673	0.11047	0.16747	-0.276
Mof_C 	C 	0.66583	0.18317	0.30787	-0.017
Mof_H 	H 	0.66293	0.20977	0.28397	0.001
Mof_C 	C 	0.66953	0.05137	0.32957	-0.724
Mof_H 	H 	0.63693	0.02267	0.30837	0.234
Mof_H 	H 	0.70373	0.05887	0.30907	0.303
Mof_H 	H 	0.66993	0.03827	0.36937	0.27
Mof_Br	Br	0.73203	0.14907	0.93427	0.38
Mof_C 	C 	0.55063	0.11297	0.19527	0.091
Mof_N 	N 	0.28723	0.00697	0.15857	-0.285
Mof_N 	N 	0.37843	0.05297	0.17647	-0.271
Mof_C 	C 	0.33293	0.05477	0.16797	0.029
Mof_Br	Br	0.24803	0.79957	0.23317	-5.552
Mof_C 	C 	0.29903	0.88427	0.20167	-0.634
Mof_C 	C 	0.35693	0.91137	0.20567	0.819
Mof_C 	C 	0.38863	0.96857	0.19617	-0.079
Mof_C 	C 	0.36243	0.99867	0.18167	0.239
Mof_C 	C 	0.30453	0.97157	0.17667	0.588
Mof_C 	C 	0.27283	0.91437	0.18637	0.341
Mof_C 	C 	0.51313	0.08067	0.11467	0.044
Mof_C 	C 	0.49123	0.08067	0.05977	-0.011
Mof_C 	C 	0.51323	0.06967	0.01007	0.395
Mof_C 	C 	0.55713	0.05867	0.01517	-0.072
Mof_C 	C 	0.57913	0.05867	0.06997	0.058
Mof_C 	C 	0.55733	0.06967	0.11977	0.003
Mof_C 	C 	0.80033	0.20267	0.24267	-0.794
Mof_H 	H 	0.84013	0.21797	0.23677	0.225
Mof_H 	H 	0.79323	0.21397	0.28087	0.244
Mof_H 	H 	0.78093	0.16157	0.24057	0.226
Mof_C 	C 	0.72733	0.22497	0.12567	0.159
Mof_H 	H 	0.69533	0.21657	0.10327	-0.044
Mof_C 	C 	0.77013	0.26667	0.12367	-0.24
Mof_H 	H 	0.77763	0.29807	0.09967	0.102
Mof_C 	C 	0.57773	0.96777	0.19177	-0.316
Mof_C 	C 	0.63513	0.99817	0.18287	-0.502
Mof_C 	C 	0.66563	0.97067	0.17897	-0.304
Mof_C 	C 	0.63863	0.91287	0.18397	0.432
Mof_C 	C 	0.58123	0.88247	0.19287	-1.358
Mof_C 	C 	0.55073	0.90987	0.19677	0.742
Mof_Br	Br	0.54113	0.80657	0.20137	11.989
Mof_Br	Br	0.47603	0.86647	0.20387	-4.083
Mof_Br	Br	0.47553	0.87047	0.15617	6.253
Mof_Br	Br	0.53303	0.80617	0.15867	-13.793
Mof_Br	Br	0.85923	0.26697	0.93947	-3.565
Mof_Br	Br	0.82093	0.27597	0.90317	7.528
Mof_Br	Br	0.45443	0.01357	0.03607	-0.307
Mof_Br	Br	0.43733	0.98687	0.96347	-0.085
Mof_Zn	Zn	0.54866	0.6673	0.53266	1.178
Mof_Zn	Zn	0.54872	0.88138	0.53282	1.176
Mof_N 	N 	0.4797	0.8774	0.5015	-0.315
Mof_N 	N 	0.531	0.8654	0.7121	-0.299
Mof_N 	N 	0.4024	0.8833	0.502	-0.365
Mof_N 	N 	0.5307	0.8654	0.6204	-0.306
Mof_C 	C 	0.4444	0.8902	0.5322	0.318
Mof_C 	C 	0.4823	0.8175	0.6997	-0.016
Mof_H 	H 	0.4547	0.7919	0.7258	-0.005
Mof_C 	C 	0.5585	0.8913	0.6661	0.259
Mof_C 	C 	0.4261	0.9026	0.4494	0.351
Mof_C 	C 	0.4768	0.9035	0.4464	-0.197
Mof_C 	C 	0.5051	0.9145	0.3933	0.148
Mof_H 	H 	0.5397	0.9151	0.3912	-0.056
Mof_C 	C 	0.4827	0.9245	0.3434	-0.369
Mof_C 	C 	0.432	0.9236	0.3464	0.869
Mof_C 	C 	0.4037	0.9126	0.3995	-0.661
Mof_H 	H 	0.3691	0.9121	0.4016	0.291
Mof_N 	N 	0.5552	0.7359	0.5012	-0.293
Mof_C 	C 	0.515	0.731	0.46	-0.002
Mof_C 	C 	0.5082	0.7803	0.456	-0.043
Mof_N 	N 	0.5562	0.8196	0.5008	-0.276
Mof_C 	C 	0.4835	0.816	0.6412	-0.017
Mof_H 	H 	0.4569	0.7865	0.6173	0.001
Mof_C 	C 	0.6153	0.9515	0.6629	-0.716
Mof_H 	H 	0.644	0.9476	0.6417	0.232
Mof_H 	H 	0.6078	0.9782	0.6424	0.296
Mof_H 	H 	0.6284	0.965	0.7027	0.264
Mof_Br	Br	0.5176	0.9163	0.2676	0.384
Mof_C 	C 	0.5537	0.771	0.5286	0.092
Mof_N 	N 	0.6597	0.6136	0.4919	-0.285
Mof_N 	N 	0.6137	0.6588	0.5098	-0.27
Mof_C 	C 	0.6119	0.6115	0.5013	0.028
Mof_Br	Br	0.8671	0.7818	0.5665	-6.031
Mof_C 	C 	0.7824	0.7481	0.535	-0.687
Mof_C 	C 	0.7553	0.7789	0.539	0.875
Mof_C 	C 	0.6981	0.7534	0.5295	-0.083
Mof_C 	C 	0.668	0.6971	0.515	0.261
Mof_C 	C 	0.6951	0.6663	0.51	0.639
Mof_C 	C 	0.7523	0.6918	0.5197	0.366
Mof_C 	C 	0.586	0.7658	0.448	0.042
Mof_C 	C 	0.586	0.7439	0.3931	-0.01
Mof_C 	C 	0.597	0.7769	0.3434	0.394
Mof_C 	C 	0.608	0.8318	0.3485	-0.072
Mof_C 	C 	0.608	0.8538	0.4033	0.054
Mof_C 	C 	0.597	0.821	0.4531	0.005
Mof_C 	C 	0.464	0.931	0.576	-0.791
Mof_H 	H 	0.4487	0.9555	0.5701	0.224
Mof_H 	H 	0.4527	0.9126	0.6142	0.242
Mof_H 	H 	0.5051	0.9527	0.5739	0.225
Mof_C 	C 	0.4417	0.8357	0.459	0.16
Mof_H 	H 	0.4501	0.8121	0.4366	-0.044
Mof_C 	C 	0.4	0.8368	0.457	-0.241
Mof_H 	H 	0.3686	0.8129	0.433	0.102
Mof_C 	C 	0.6989	0.9433	0.5251	-0.331
Mof_C 	C 	0.6685	0.9703	0.5162	-0.56
Mof_C 	C 	0.696	0.0283	0.5123	-0.343
Mof_C 	C 	0.7538	0.0591	0.5173	0.472
Mof_C 	C 	0.7842	0.0321	0.5262	-1.483
Mof_C 	C 	0.7568	0.9742	0.5301	0.794
Mof_Br	Br	0.8601	0.0679	0.5347	13.083
Mof_Br	Br	0.8002	0.9429	0.5372	-4.415
Mof_Br	Br	0.7962	0.9384	0.4895	6.77
Mof_Br	Br	0.8605	0.0602	0.492	-15.044
Mof_Br	Br	0.3997	0.9256	0.2728	-3.583
Mof_Br	Br	0.3907	0.8783	0.2365	7.57
Mof_Br	Br	0.6531	0.7742	0.3694	-0.316
Mof_Br	Br	0.6798	0.7838	0.2968	-0.083
Mof_Zn	Zn	0.21533	0.00063	0.86599	1.177
Mof_Zn	Zn	0.21539	0.21471	0.86615	1.176
Mof_N 	N 	0.14637	0.21073	0.83483	-0.315
Mof_N 	N 	0.19767	0.19873	0.04543	-0.299
Mof_N 	N 	0.06907	0.21663	0.83533	-0.368
Mof_N 	N 	0.19737	0.19873	0.95373	-0.307
Mof_C 	C 	0.11107	0.22353	0.86553	0.318
Mof_C 	C 	0.14897	0.15083	0.03303	-0.016
Mof_H 	H 	0.12137	0.12523	0.05913	-0.005
Mof_C 	C 	0.22517	0.22463	0.99943	0.257
Mof_C 	C 	0.09277	0.23593	0.78273	0.371
Mof_C 	C 	0.14347	0.23683	0.77973	-0.212
Mof_C 	C 	0.17177	0.24783	0.72663	0.169
Mof_H 	H 	0.20637	0.24843	0.72453	-0.065
Mof_C 	C 	0.14937	0.25783	0.67673	-0.404
Mof_C 	C 	0.09867	0.25693	0.67973	0.931
Mof_C 	C 	0.07037	0.24593	0.73283	-0.7
Mof_H 	H 	0.03577	0.24543	0.73493	0.308
Mof_N 	N 	0.22187	0.06923	0.83453	-0.294
Mof_C 	C 	0.18167	0.06433	0.79333	-0.002
Mof_C 	C 	0.17487	0.11363	0.78933	-0.044
Mof_N 	N 	0.22287	0.15293	0.83413	-0.276
Mof_C 	C 	0.15017	0.14933	0.97453	-0.018
Mof_H 	H 	0.12357	0.11983	0.95063	0.001
Mof_C 	C 	0.28197	0.28483	0.99623	-0.714
Mof_H 	H 	0.31067	0.28093	0.97503	0.231
Mof_H 	H 	0.27447	0.31153	0.97573	0.294
Mof_H 	H 	0.29507	0.29833	0.03603	0.262
Mof_Br	Br	0.18427	0.24963	0.60093	0.433
Mof_C 	C 	0.22037	0.10433	0.86193	0.09
Mof_N 	N 	0.32637	0.94693	0.82523	-0.285
Mof_N 	N 	0.28037	0.99213	0.84313	-0.27
Mof_C 	C 	0.27857	0.94483	0.83463	0.029
Mof_Br	Br	0.53377	0.11513	0.89983	-5.573
Mof_C 	C 	0.44907	0.08143	0.86833	-0.631
Mof_C 	C 	0.42197	0.11223	0.87233	0.813
Mof_C 	C 	0.36477	0.08673	0.86283	-0.077
Mof_C 	C 	0.33467	0.03043	0.84833	0.232
Mof_C 	C 	0.36177	0.99963	0.84333	0.577
Mof_C 	C 	0.41897	0.02513	0.85303	0.345
Mof_C 	C 	0.25267	0.09913	0.78133	0.046
Mof_C 	C 	0.25267	0.07723	0.72643	-0.014
Mof_C 	C 	0.26367	0.11023	0.67673	0.417
Mof_C 	C 	0.27467	0.16513	0.68183	-0.087
Mof_C 	C 	0.27467	0.18713	0.73663	0.059
Mof_C 	C 	0.26367	0.15433	0.78643	0.002
Mof_C 	C 	0.13067	0.26433	0.90933	-0.791
Mof_H 	H 	0.11537	0.28883	0.90343	0.224
Mof_H 	H 	0.11937	0.24593	0.94753	0.242
Mof_H 	H 	0.17177	0.28603	0.90723	0.224
Mof_C 	C 	0.10837	0.16903	0.79233	0.169
Mof_H 	H 	0.11677	0.14543	0.76993	-0.049
Mof_C 	C 	0.06667	0.17013	0.79033	-0.251
Mof_H 	H 	0.03527	0.14623	0.76633	0.105
Mof_C 	C 	0.36557	0.27663	0.85843	-0.31
Mof_C 	C 	0.33517	0.30363	0.84953	-0.507
Mof_C 	C 	0.36267	0.36163	0.84563	-0.308
Mof_C 	C 	0.42047	0.39243	0.85063	0.432
Mof_C 	C 	0.45087	0.36543	0.85953	-1.354
Mof_C 	C 	0.42347	0.30753	0.86343	0.738
Mof_Br	Br	0.52677	0.40123	0.86803	11.96
Mof_Br	Br	0.46687	0.27623	0.87053	-4.048
Mof_Br	Br	0.46287	0.27173	0.82283	6.198
Mof_Br	Br	0.52717	0.39353	0.82533	-13.761
Mof_Br	Br	0.06637	0.25893	0.60613	-3.86
Mof_Br	Br	0.05737	0.21163	0.56983	8.2
Mof_Br	Br	0.31977	0.10753	0.70273	-0.308
Mof_Br	Br	0.34647	0.11713	0.63013	-0.074
Mof_Zn	Zn	0.88199	0.33397	0.19933	1.177
Mof_Zn	Zn	0.88205	0.54805	0.19949	1.176
Mof_N 	N 	0.81303	0.54407	0.16817	-0.316
Mof_N 	N 	0.86433	0.53207	0.37877	-0.299
Mof_N 	N 	0.73573	0.54997	0.16867	-0.365
Mof_N 	N 	0.86403	0.53207	0.28707	-0.307
Mof_C 	C 	0.77773	0.55687	0.19887	0.319
Mof_C 	C 	0.81563	0.48417	0.36637	-0.015
Mof_H 	H 	0.78803	0.45857	0.39247	-0.005
Mof_C 	C 	0.89183	0.55797	0.33277	0.262
Mof_C 	C 	0.75943	0.56927	0.11607	0.346
Mof_C 	C 	0.81013	0.57017	0.11307	-0.193
Mof_C 	C 	0.83843	0.58117	0.05997	0.142
Mof_H 	H 	0.87303	0.58177	0.05787	-0.053
Mof_C 	C 	0.81603	0.59117	0.01007	-0.359
Mof_C 	C 	0.76533	0.59027	0.01307	0.853
Mof_C 	C 	0.73703	0.57927	0.06617	-0.651
Mof_H 	H 	0.70243	0.57877	0.06827	0.287
Mof_N 	N 	0.88853	0.40257	0.16787	-0.293
Mof_C 	C 	0.84833	0.39767	0.12667	-0.002
Mof_C 	C 	0.84153	0.44697	0.12267	-0.043
Mof_N 	N 	0.88953	0.48627	0.16747	-0.276
Mof_C 	C 	0.81683	0.48267	0.30787	-0.017
Mof_H 	H 	0.79023	0.45317	0.28397	0.001
Mof_C 	C 	0.94863	0.61817	0.32957	-0.724
Mof_H 	H 	0.97733	0.61427	0.30837	0.234
Mof_H 	H 	0.94113	0.64487	0.30907	0.304
Mof_H 	H 	0.96173	0.63167	0.36937	0.27
Mof_Br	Br	0.85093	0.58297	0.93427	0.371
Mof_C 	C 	0.88703	0.43767	0.19527	0.09
Mof_N 	N 	0.99303	0.28027	0.15857	-0.285
Mof_N 	N 	0.94703	0.32547	0.17647	-0.271
Mof_C 	C 	0.94523	0.27817	0.16797	0.029
Mof_Br	Br	0.20043	0.44847	0.23317	-5.47
Mof_C 	C 	0.11573	0.41477	0.20167	-0.626
Mof_C 	C 	0.08863	0.44557	0.20567	0.812
Mof_C 	C 	0.03143	0.42007	0.19617	-0.078
Mof_C 	C 	0.00133	0.36377	0.18167	0.236
Mof_C 	C 	0.02843	0.33297	0.17667	0.582
Mof_C 	C 	0.08563	0.35847	0.18637	0.337
Mof_C 	C 	0.91933	0.43247	0.11467	0.044
Mof_C 	C 	0.91933	0.41057	0.05977	-0.011
Mof_C 	C 	0.93033	0.44357	0.01007	0.392
Mof_C 	C 	0.94133	0.49847	0.01517	-0.07
Mof_C 	C 	0.94133	0.52047	0.06997	0.058
Mof_C 	C 	0.93033	0.48767	0.11977	0.003
Mof_C 	C 	0.79733	0.59767	0.24267	-0.794
Mof_H 	H 	0.78203	0.62217	0.23677	0.225
Mof_H 	H 	0.78603	0.57927	0.28087	0.244
Mof_H 	H 	0.83843	0.61937	0.24057	0.226
Mof_C 	C 	0.77503	0.50237	0.12567	0.157
Mof_H 	H 	0.78343	0.47877	0.10327	-0.043
Mof_C 	C 	0.73333	0.50347	0.12367	-0.238
Mof_H 	H 	0.70193	0.47957	0.09967	0.101
Mof_C 	C 	0.03223	0.60997	0.19177	-0.316
Mof_C 	C 	0.00183	0.63697	0.18287	-0.503
Mof_C 	C 	0.02933	0.69497	0.17897	-0.305
Mof_C 	C 	0.08713	0.72577	0.18397	0.434
Mof_C 	C 	0.11753	0.69877	0.19287	-1.365
Mof_C 	C 	0.09013	0.64087	0.19677	0.744
Mof_Br	Br	0.19343	0.73457	0.20137	12.047
Mof_Br	Br	0.13353	0.60957	0.20387	-4.063
Mof_Br	Br	0.12953	0.60507	0.15617	6.219
Mof_Br	Br	0.19383	0.72687	0.15867	-13.86
Mof_Br	Br	0.73303	0.59227	0.93947	-3.511
Mof_Br	Br	0.72403	0.54497	0.90317	7.407
Mof_Br	Br	0.98643	0.44087	0.03607	-0.305
Mof_Br	Br	0.01313	0.45047	0.96347	-0.087
Mof_Zn	Zn	0.3327	0.88136	0.53266	1.178
Mof_Zn	Zn	0.11862	0.66734	0.53282	1.176
Mof_N 	N 	0.1226	0.6023	0.5015	-0.315
Mof_N 	N 	0.1346	0.6656	0.7121	-0.299
Mof_N 	N 	0.1167	0.5191	0.502	-0.365
Mof_N 	N 	0.1346	0.6653	0.6204	-0.306
Mof_C 	C 	0.1098	0.5542	0.5322	0.318
Mof_C 	C 	0.1825	0.6648	0.6997	-0.016
Mof_H 	H 	0.2081	0.6628	0.7258	-0.005
Mof_C 	C 	0.1087	0.6672	0.6661	0.258
Mof_C 	C 	0.0974	0.5235	0.4494	0.349
Mof_C 	C 	0.0965	0.5733	0.4464	-0.196
Mof_C 	C 	0.0855	0.5906	0.3933	0.146
Mof_H 	H 	0.0849	0.6246	0.3912	-0.055
Mof_C 	C 	0.0755	0.5582	0.3434	-0.365
Mof_C 	C 	0.0764	0.5084	0.3464	0.863
Mof_C 	C 	0.0874	0.4911	0.3995	-0.657
Mof_H 	H 	0.0879	0.457	0.4016	0.289
Mof_N 	N 	0.2641	0.8193	0.5012	-0.293
Mof_C 	C 	0.269	0.784	0.46	-0.002
Mof_C 	C 	0.2197	0.7279	0.456	-0.043
Mof_N 	N 	0.1804	0.7366	0.5008	-0.276
Mof_C 	C 	0.184	0.6675	0.6412	-0.017
Mof_H 	H 	0.2135	0.6704	0.6173	0.001
Mof_C 	C 	0.0485	0.6638	0.6629	-0.715
Mof_H 	H 	0.0524	0.6964	0.6417	0.232
Mof_H 	H 	0.0218	0.6296	0.6424	0.296
Mof_H 	H 	0.035	0.6634	0.7027	0.263
Mof_Br	Br	0.0837	0.6013	0.2676	0.379
Mof_C 	C 	0.229	0.7827	0.5286	0.092
Mof_N 	N 	0.3864	0.0461	0.4919	-0.285
Mof_N 	N 	0.3412	0.9549	0.5098	-0.27
Mof_C 	C 	0.3885	0.0004	0.5013	0.028
Mof_Br	Br	0.2182	0.0853	0.5665	-6.02
Mof_C 	C 	0.2519	0.0343	0.535	-0.685
Mof_C 	C 	0.2211	0.9764	0.539	0.874
Mof_C 	C 	0.2466	0.9447	0.5295	-0.083
Mof_C 	C 	0.3029	0.9709	0.515	0.261
Mof_C 	C 	0.3337	0.0288	0.51	0.638
Mof_C 	C 	0.3082	0.0605	0.5197	0.366
Mof_C 	C 	0.2342	0.8202	0.448	0.042
Mof_C 	C 	0.2561	0.8421	0.3931	-0.01
Mof_C 	C 	0.2231	0.8201	0.3434	0.396
Mof_C 	C 	0.1682	0.7762	0.3485	-0.073
Mof_C 	C 	0.1462	0.7542	0.4033	0.054
Mof_C 	C 	0.179	0.776	0.4531	0.005
Mof_C 	C 	0.069	0.533	0.576	-0.791
Mof_H 	H 	0.0445	0.4932	0.5701	0.224
Mof_H 	H 	0.0874	0.5401	0.6142	0.242
Mof_H 	H 	0.0473	0.5524	0.5739	0.225
Mof_C 	C 	0.1643	0.606	0.459	0.159
Mof_H 	H 	0.1879	0.638	0.4366	-0.044
Mof_C 	C 	0.1632	0.5632	0.457	-0.24
Mof_H 	H 	0.1871	0.5557	0.433	0.102
Mof_C 	C 	0.0567	0.7556	0.5251	-0.332
Mof_C 	C 	0.0297	0.6982	0.5162	-0.56
Mof_C 	C 	0.9717	0.6677	0.5123	-0.343
Mof_C 	C 	0.9409	0.6947	0.5173	0.473
Mof_C 	C 	0.9679	0.7521	0.5262	-1.487
Mof_C 	C 	0.0258	0.7826	0.5301	0.796
Mof_Br	Br	0.9321	0.7922	0.5347	13.123
Mof_Br	Br	0.0571	0.8573	0.5372	-4.416
Mof_Br	Br	0.0616	0.8578	0.4895	6.769
Mof_Br	Br	0.9398	0.8003	0.492	-15.091
Mof_Br	Br	0.0744	0.4741	0.2728	-3.555
Mof_Br	Br	0.1217	0.5124	0.2365	7.505
Mof_Br	Br	0.2258	0.8789	0.3694	-0.316
Mof_Br	Br	0.2162	0.896	0.2968	-0.082
Mof_Zn	Zn	0.99937	0.21469	0.86599	1.177
Mof_Zn	Zn	0.78529	0.00067	0.86615	1.176
Mof_N 	N 	0.78927	0.93563	0.83483	-0.315
Mof_N 	N 	0.80127	0.99893	0.04543	-0.298
Mof_N 	N 	0.78337	0.85243	0.83533	-0.368
Mof_N 	N 	0.80127	0.99863	0.95373	-0.305
Mof_C 	C 	0.77647	0.88753	0.86553	0.318
Mof_C 	C 	0.84917	0.99813	0.03303	-0.015
Mof_H 	H 	0.87477	0.99613	0.05913	-0.006
Mof_C 	C 	0.77537	0.00053	0.99943	0.255
Mof_C 	C 	0.76407	0.85683	0.78273	0.37
Mof_C 	C 	0.76317	0.90663	0.77973	-0.212
Mof_C 	C 	0.75217	0.92393	0.72663	0.168
Mof_H 	H 	0.75157	0.95793	0.72453	-0.065
Mof_C 	C 	0.74217	0.89153	0.67673	-0.403
Mof_C 	C 	0.74307	0.84173	0.67973	0.93
Mof_C 	C 	0.75407	0.82443	0.73283	-0.698
Mof_H 	H 	0.75457	0.79033	0.73493	0.308
Mof_N 	N 	0.93077	0.15263	0.83453	-0.294
Mof_C 	C 	0.93567	0.11733	0.79333	-0.002
Mof_C 	C 	0.88637	0.06123	0.78933	-0.044
Mof_N 	N 	0.84707	0.06993	0.83413	-0.276
Mof_C 	C 	0.85067	0.00083	0.97453	-0.019
Mof_H 	H 	0.88017	0.00373	0.95063	0.001
Mof_C 	C 	0.71517	0.99713	0.99623	-0.709
Mof_H 	H 	0.71907	0.02973	0.97503	0.229
Mof_H 	H 	0.68847	0.96293	0.97573	0.293
Mof_H 	H 	0.70167	0.99673	0.03603	0.261
Mof_Br	Br	0.75037	0.93463	0.60093	0.432
Mof_C 	C 	0.89567	0.11603	0.86193	0.09
Mof_N 	N 	0.05307	0.37943	0.82523	-0.285
Mof_N 	N 	0.00787	0.28823	0.84313	-0.27
Mof_C 	C 	0.05517	0.33373	0.83463	0.029
Mof_Br	Br	0.88487	0.41863	0.89983	-5.534
Mof_C 	C 	0.91857	0.36763	0.86833	-0.632
Mof_C 	C 	0.88777	0.30973	0.87233	0.816
Mof_C 	C 	0.91327	0.27803	0.86283	-0.077
Mof_C 	C 	0.96957	0.30423	0.84833	0.232
Mof_C 	C 	0.00037	0.36213	0.84333	0.579
Mof_C 	C 	0.97487	0.39383	0.85303	0.344
Mof_C 	C 	0.90087	0.15353	0.78133	0.045
Mof_C 	C 	0.92277	0.17543	0.72643	-0.014
Mof_C 	C 	0.88977	0.15343	0.67673	0.417
Mof_C 	C 	0.83487	0.10953	0.68183	-0.087
Mof_C 	C 	0.81287	0.08753	0.73663	0.059
Mof_C 	C 	0.84567	0.10933	0.78643	0.002
Mof_C 	C 	0.73567	0.86633	0.90933	-0.792
Mof_H 	H 	0.71117	0.82653	0.90343	0.224
Mof_H 	H 	0.75407	0.87343	0.94753	0.242
Mof_H 	H 	0.71397	0.88573	0.90723	0.225
Mof_C 	C 	0.83097	0.93933	0.79233	0.169
Mof_H 	H 	0.85457	0.97133	0.76993	-0.048
Mof_C 	C 	0.82987	0.89653	0.79033	-0.251
Mof_H 	H 	0.85377	0.88903	0.76633	0.104
Mof_C 	C 	0.72337	0.08893	0.85843	-0.313
Mof_C 	C 	0.69637	0.03153	0.84953	-0.513
Mof_C 	C 	0.63837	0.00103	0.84563	-0.312
Mof_C 	C 	0.60757	0.02803	0.85063	0.437
Mof_C 	C 	0.63457	0.08543	0.85953	-1.372
Mof_C 	C 	0.69247	0.11593	0.86343	0.746
Mof_Br	Br	0.59877	0.12553	0.86803	12.112
Mof_Br	Br	0.72377	0.19063	0.87053	-4.078
Mof_Br	Br	0.72827	0.19113	0.82283	6.241
Mof_Br	Br	0.60647	0.13363	0.82533	-13.936
Mof_Br	Br	0.74107	0.80743	0.60613	-3.852
Mof_Br	Br	0.78837	0.84573	0.56983	8.183
Mof_Br	Br	0.89247	0.21223	0.70273	-0.308
Mof_Br	Br	0.88287	0.22933	0.63013	-0.074
Mof_Zn	Zn	0.66603	0.54803	0.19933	1.177
Mof_Zn	Zn	0.45195	0.33401	0.19949	1.176
Mof_N 	N 	0.45593	0.26897	0.16817	-0.316
Mof_N 	N 	0.46793	0.33227	0.37877	-0.299
Mof_N 	N 	0.45003	0.18577	0.16867	-0.365
Mof_N 	N 	0.46793	0.33197	0.28707	-0.307
Mof_C 	C 	0.44313	0.22087	0.19887	0.319
Mof_C 	C 	0.51583	0.33147	0.36637	-0.015
Mof_H 	H 	0.54143	0.32947	0.39247	-0.005
Mof_C 	C 	0.44203	0.33387	0.33277	0.262
Mof_C 	C 	0.43073	0.19017	0.11607	0.348
Mof_C 	C 	0.42983	0.23997	0.11307	-0.195
Mof_C 	C 	0.41883	0.25727	0.05997	0.145
Mof_H 	H 	0.41823	0.29127	0.05787	-0.054
Mof_C 	C 	0.40883	0.22487	0.01007	-0.364
Mof_C 	C 	0.40973	0.17507	0.01307	0.862
Mof_C 	C 	0.42073	0.15777	0.06617	-0.656
Mof_H 	H 	0.42123	0.12367	0.06827	0.289
Mof_N 	N 	0.59743	0.48597	0.16787	-0.293
Mof_C 	C 	0.60233	0.45067	0.12667	-0.002
Mof_C 	C 	0.55303	0.39457	0.12267	-0.043
Mof_N 	N 	0.51373	0.40327	0.16747	-0.276
Mof_C 	C 	0.51733	0.33417	0.30787	-0.017
Mof_H 	H 	0.54683	0.33707	0.28397	0.001
Mof_C 	C 	0.38183	0.33047	0.32957	-0.724
Mof_H 	H 	0.38573	0.36307	0.30837	0.234
Mof_H 	H 	0.35513	0.29627	0.30907	0.303
Mof_H 	H 	0.36833	0.33007	0.36937	0.27
Mof_Br	Br	0.41703	0.26797	0.93427	0.377
Mof_C 	C 	0.56233	0.44937	0.19527	0.09
Mof_N 	N 	0.71973	0.71277	0.15857	-0.285
Mof_N 	N 	0.67453	0.62157	0.17647	-0.271
Mof_C 	C 	0.72183	0.66707	0.16797	0.029
Mof_Br	Br	0.55153	0.75197	0.23317	-5.521
Mof_C 	C 	0.58523	0.70097	0.20167	-0.627
Mof_C 	C 	0.55443	0.64307	0.20567	0.81
Mof_C 	C 	0.57993	0.61137	0.19617	-0.079
Mof_C 	C 	0.63623	0.63757	0.18167	0.236
Mof_C 	C 	0.66703	0.69547	0.17667	0.582
Mof_C 	C 	0.64153	0.72717	0.18637	0.338
Mof_C 	C 	0.56753	0.48687	0.11467	0.044
Mof_C 	C 	0.58943	0.50877	0.05977	-0.011
Mof_C 	C 	0.55643	0.48677	0.01007	0.391
Mof_C 	C 	0.50153	0.44287	0.01517	-0.069
Mof_C 	C 	0.47953	0.42087	0.06997	0.059
Mof_C 	C 	0.51233	0.44267	0.11977	0.003
Mof_C 	C 	0.40233	0.19967	0.24267	-0.794
Mof_H 	H 	0.37783	0.15987	0.23677	0.225
Mof_H 	H 	0.42073	0.20677	0.28087	0.244
Mof_H 	H 	0.38063	0.21907	0.24057	0.226
Mof_C 	C 	0.49763	0.27267	0.12567	0.158
Mof_H 	H 	0.52123	0.30467	0.10327	-0.043
Mof_C 	C 	0.49653	0.22987	0.12367	-0.24
Mof_H 	H 	0.52043	0.22237	0.09967	0.102
Mof_C 	C 	0.39003	0.42227	0.19177	-0.308
Mof_C 	C 	0.36303	0.36487	0.18287	-0.504
Mof_C 	C 	0.30503	0.33437	0.17897	-0.307
Mof_C 	C 	0.27423	0.36137	0.18397	0.43
Mof_C 	C 	0.30123	0.41877	0.19287	-1.343
Mof_C 	C 	0.35913	0.44927	0.19677	0.733
Mof_Br	Br	0.26543	0.45887	0.20137	11.856
Mof_Br	Br	0.39043	0.52397	0.20387	-4.031
Mof_Br	Br	0.39493	0.52447	0.15617	6.174
Mof_Br	Br	0.27313	0.46697	0.15867	-13.64
Mof_Br	Br	0.40773	0.14077	0.93947	-3.548
Mof_Br	Br	0.45503	0.17907	0.90317	7.49
Mof_Br	Br	0.55913	0.54557	0.03607	-0.305
Mof_Br	Br	0.54953	0.56267	0.96347	-0.089
_end
