data_functionalizedCrystal
_audit_creation_method	'EQeq! by Chris Wilmer'
_symmetry_space_group_name_H-M	'P1'
_symmetry_Int_Tables_number	1
_symmetry_cell_setting	triclinic
loop_
_symmetry_equiv_pos_as_xyz
  x,y,z
_cell_length_a	11.046
_cell_length_b	11.633
_cell_length_c	16.246
_cell_angle_alpha	78.69
_cell_angle_beta	73.81
_cell_angle_gamma	88.58
loop_
_atom_site_label
_atom_site_type_symbol
_atom_site_fract_x
_atom_site_fract_y
_atom_site_fract_z
_atom_site_charge
Mof_Eu	Eu	0.93434	0.93808	0.19417	2.59
Mof_Eu	Eu	0.54926	0.55298	0.30958	2.634
Mof_O 	O 	0.1422	0.8771	0.2179	-0.455
Mof_O 	O 	0.9035	0.7393	0.2652	-0.603
Mof_O 	O 	0.7269	0.8933	0.1965	-0.632
Mof_O 	O 	0.5791	0.7537	0.2378	-0.603
Mof_O 	O 	0.024	0.8636	0.0667	-0.611
Mof_O 	O 	0.0777	0.9038	0.9226	-0.588
Mof_O 	O 	0.342	0.6142	0.2862	-0.462
Mof_O 	O 	0.9032	0.9562	0.3461	-0.481
Mof_O 	O 	0.8217	0.0944	0.2659	-0.46
Mof_O 	O 	0.34	0.6049	0.765	-0.456
Mof_O 	O 	0.1117	0.0655	0.1855	-0.481
Mof_O 	O 	0.758	0.597	0.3033	-0.638
Mof_O 	O 	0.5645	0.3968	0.4239	-0.618
Mof_O 	O 	0.3706	0.4255	0.3177	-0.477
Mof_O 	O 	0.4158	0.4624	0.8447	-0.472
Mof_O 	O 	0.5352	0.3677	0.5658	-0.64
Mof_C 	C 	0.8687	0.6326	0.2814	0.617
Mof_C 	C 	0.1779	0.9807	0.2057	0.353
Mof_C 	C 	0.394	0.9211	0.2198	0.131
Mof_H 	H 	0.3705	0.8431	0.2257	0.01
Mof_C 	C 	0.3042	0.5104	0.2974	0.346
Mof_C 	C 	0.3063	0.008	0.2136	-0.151
Mof_C 	C 	0.2284	0.7058	0.9153	0.136
Mof_H 	H 	0.207	0.7389	0.8645	0.008
Mof_C 	C 	0.8469	0.0522	0.3361	0.348
Mof_C 	C 	0.3587	0.5586	0.8363	0.342
Mof_C 	C 	0.179	0.7494	0.9909	-0.262
Mof_C 	C 	0.6155	0.8585	0.2181	0.62
Mof_C 	C 	0.0879	0.8475	0.9933	0.606
Mof_C 	C 	0.9694	0.5417	0.2788	-0.268
Mof_C 	C 	0.5158	0.9502	0.2172	-0.252
Mof_C 	C 	0.4622	0.1554	0.2071	-0.169
Mof_H 	H 	0.4842	0.2333	0.2031	0.101
Mof_C 	C 	0.3101	0.6126	0.9151	-0.159
Mof_C 	C 	0.3463	0.568	0.9892	0.094
Mof_H 	H 	0.4023	0.507	0.9886	0.014
Mof_C 	C 	0.2142	0.7014	0.0656	0.15
Mof_H 	H 	0.1796	0.729	0.1169	-0.014
Mof_C 	C 	0.6908	0.2596	0.4852	-0.264
Mof_C 	C 	0.5507	0.0674	0.2108	0.135
Mof_H 	H 	0.6327	0.0868	0.2091	-0.007
Mof_C 	C 	0.088	0.5703	0.285	0.144
Mof_H 	H 	0.1077	0.6465	0.2877	0.006
Mof_C 	C 	0.1764	0.4837	0.2869	-0.163
Mof_C 	C 	0.7288	0.2083	0.4118	0.138
Mof_H 	H 	0.6968	0.2341	0.3644	0.008
Mof_C 	C 	0.5907	0.3501	0.4915	0.634
Mof_C 	C 	0.8147	0.1183	0.4093	-0.157
Mof_C 	C 	0.8664	0.0847	0.4786	0.105
Mof_H 	H 	0.925	0.0257	0.4768	0.013
Mof_C 	C 	0.3006	0.6125	0.0648	-0.181
Mof_H 	H 	0.3274	0.5834	0.1142	0.105
Mof_C 	C 	0.1473	0.3728	0.2795	0.112
Mof_H 	H 	0.2071	0.3152	0.2804	0.008
Mof_C 	C 	0.8318	0.1379	0.5503	-0.192
Mof_H 	H 	0.867	0.1145	0.5964	0.113
Mof_C 	C 	0.7456	0.2254	0.5539	0.152
Mof_H 	H 	0.7236	0.2618	0.6019	-0.014
Mof_C 	C 	0.9417	0.4303	0.272	0.155
Mof_H 	H 	0.8623	0.4116	0.2682	-0.017
Mof_C 	C 	0.0331	0.3451	0.2709	-0.195
Mof_H 	H 	0.0161	0.27	0.2643	0.111
Mof_C 	C 	0.3397	0.1231	0.2094	0.088
Mof_H 	H 	0.2797	0.1804	0.2082	0.017
Mof_Eu	Eu	0.06566	0.06192	0.80583	2.589
Mof_Eu	Eu	0.45074	0.44702	0.69042	2.633
Mof_O 	O 	0.8578	0.1229	0.7821	-0.456
Mof_O 	O 	0.0965	0.2607	0.7348	-0.604
Mof_O 	O 	0.2731	0.1067	0.8035	-0.632
Mof_O 	O 	0.4209	0.2463	0.7622	-0.603
Mof_O 	O 	0.976	0.1364	0.9333	-0.611
Mof_O 	O 	0.9223	0.0962	0.0774	-0.588
Mof_O 	O 	0.658	0.3858	0.7138	-0.462
Mof_O 	O 	0.0968	0.0438	0.6539	-0.481
Mof_O 	O 	0.1783	0.9056	0.7341	-0.46
Mof_O 	O 	0.66	0.3951	0.235	-0.456
Mof_O 	O 	0.8883	0.9345	0.8145	-0.481
Mof_O 	O 	0.242	0.403	0.6967	-0.638
Mof_O 	O 	0.4355	0.6032	0.5761	-0.618
Mof_O 	O 	0.6294	0.5745	0.6823	-0.477
Mof_O 	O 	0.5842	0.5376	0.1553	-0.472
Mof_O 	O 	0.4648	0.6323	0.4342	-0.64
Mof_C 	C 	0.1313	0.3674	0.7186	0.617
Mof_C 	C 	0.8221	0.0193	0.7943	0.353
Mof_C 	C 	0.606	0.0789	0.7802	0.131
Mof_H 	H 	0.6295	0.1569	0.7743	0.01
Mof_C 	C 	0.6958	0.4896	0.7026	0.346
Mof_C 	C 	0.6937	0.992	0.7864	-0.151
Mof_C 	C 	0.7716	0.2942	0.0847	0.136
Mof_H 	H 	0.793	0.2611	0.1355	0.008
Mof_C 	C 	0.1531	0.9478	0.6639	0.348
Mof_C 	C 	0.6413	0.4414	0.1637	0.342
Mof_C 	C 	0.821	0.2506	0.0091	-0.262
Mof_C 	C 	0.3845	0.1415	0.7819	0.62
Mof_C 	C 	0.9121	0.1525	0.0067	0.606
Mof_C 	C 	0.0306	0.4583	0.7212	-0.268
Mof_C 	C 	0.4842	0.0498	0.7828	-0.252
Mof_C 	C 	0.5378	0.8446	0.7929	-0.169
Mof_H 	H 	0.5158	0.7667	0.7969	0.101
Mof_C 	C 	0.6899	0.3874	0.0849	-0.159
Mof_C 	C 	0.6537	0.432	0.0108	0.094
Mof_H 	H 	0.5977	0.493	0.0114	0.014
Mof_C 	C 	0.7858	0.2986	0.9344	0.15
Mof_H 	H 	0.8204	0.271	0.8831	-0.014
Mof_C 	C 	0.3092	0.7404	0.5148	-0.264
Mof_C 	C 	0.4493	0.9326	0.7892	0.135
Mof_H 	H 	0.3673	0.9132	0.7909	-0.007
Mof_C 	C 	0.912	0.4297	0.715	0.144
Mof_H 	H 	0.8923	0.3535	0.7123	0.006
Mof_C 	C 	0.8236	0.5163	0.7131	-0.163
Mof_C 	C 	0.2712	0.7917	0.5882	0.138
Mof_H 	H 	0.3032	0.7659	0.6356	0.008
Mof_C 	C 	0.4093	0.6499	0.5085	0.634
Mof_C 	C 	0.1853	0.8817	0.5907	-0.157
Mof_C 	C 	0.1336	0.9153	0.5214	0.105
Mof_H 	H 	0.075	0.9743	0.5232	0.013
Mof_C 	C 	0.6994	0.3875	0.9352	-0.181
Mof_H 	H 	0.6726	0.4166	0.8858	0.105
Mof_C 	C 	0.8527	0.6272	0.7205	0.112
Mof_H 	H 	0.7929	0.6848	0.7196	0.008
Mof_C 	C 	0.1682	0.8621	0.4497	-0.192
Mof_H 	H 	0.133	0.8855	0.4036	0.113
Mof_C 	C 	0.2544	0.7746	0.4461	0.152
Mof_H 	H 	0.2764	0.7382	0.3981	-0.014
Mof_C 	C 	0.0583	0.5697	0.728	0.155
Mof_H 	H 	0.1377	0.5884	0.7318	-0.017
Mof_C 	C 	0.9669	0.6549	0.7291	-0.195
Mof_H 	H 	0.9839	0.73	0.7357	0.111
Mof_C 	C 	0.6603	0.8769	0.7906	0.088
Mof_H 	H 	0.7203	0.8196	0.7918	0.017
_end
