data_functionalizedCrystal
_audit_creation_method	'EQeq! by Chris Wilmer'
_symmetry_space_group_name_H-M	'P1'
_symmetry_Int_Tables_number	1
_symmetry_cell_setting	triclinic
loop_
_symmetry_equiv_pos_as_xyz
  x,y,z
_cell_length_a	11.136
_cell_length_b	12.852
_cell_length_c	13.459
_cell_angle_alpha	90
_cell_angle_beta	90
_cell_angle_gamma	90
loop_
_atom_site_label
_atom_site_type_symbol
_atom_site_fract_x
_atom_site_fract_y
_atom_site_fract_z
_atom_site_charge
Mof_N 	N 	0.6306	0.3872	0.2071	-0.231
Mof_C 	C 	0.5645	0.4444	0.1793	0.127
Mof_C 	C 	0.4723	0.5159	0.1415	-0.233
Mof_H 	H 	0.469	0.5776	0.183	0.074
Mof_H 	H 	0.3943	0.4824	0.1436	0.08
Mof_C 	C 	0.502	0.547	0.0344	-0.035
Mof_H 	H 	0.445	0.5987	0.0117	0.022
Mof_H 	H 	0.5816	0.5777	0.0322	0.022
Mof_C 	C 	0.4453	0.4932	0.0327	-0.015
Mof_H 	H 	0.4161	0.4224	0.0266	0.006
Mof_H 	H 	0.3823	0.5396	0.01	0.014
Mof_N 	N 	0.852	0.2925	0.3888	-0.231
Mof_C 	C 	0.9168	0.318	0.4466	0.132
Mof_C 	C 	0.9984	0.353	0.5234	-0.24
Mof_H 	H 	0.0635	0.3033	0.53	0.082
Mof_H 	H 	0.956	0.3559	0.5863	0.081
Mof_C 	C 	0.0502	0.4598	0.5002	-0.037
Mof_H 	H 	0.0893	0.4585	0.4358	0.025
Mof_H 	H 	0.1097	0.4782	0.5498	0.025
Mof_C 	C 	0.9828	0.4686	0.5457	-0.009
Mof_H 	H 	0.0334	0.4882	0.6013	0.013
Mof_H 	H 	0.9	0.4827	0.5635	0.006
Mof_N 	N 	0.6306	0.1128	0.2929	-0.23
Mof_C 	C 	0.5645	0.0556	0.3207	0.128
Mof_C 	C 	0.4723	0.9841	0.3585	-0.231
Mof_H 	H 	0.469	0.9224	0.317	0.075
Mof_H 	H 	0.3943	0.0176	0.3564	0.081
Mof_C 	C 	0.502	0.953	0.4656	-0.035
Mof_H 	H 	0.445	0.9013	0.4883	0.024
Mof_H 	H 	0.5816	0.9223	0.4678	0.023
Mof_C 	C 	0.4453	0.0068	0.4673	-0.014
Mof_H 	H 	0.4161	0.0776	0.4734	0.007
Mof_H 	H 	0.3823	0.9604	0.49	0.015
Mof_N 	N 	0.852	0.2075	0.1112	-0.23
Mof_C 	C 	0.9168	0.182	0.0534	0.131
Mof_C 	C 	0.9984	0.147	0.9766	-0.233
Mof_H 	H 	0.0635	0.1967	0.97	0.08
Mof_H 	H 	0.956	0.1441	0.9137	0.081
Mof_C 	C 	0.0502	0.0402	0.9998	-0.026
Mof_H 	H 	0.0893	0.0415	0.0642	0.019
Mof_H 	H 	0.1097	0.0218	0.9502	0.021
Mof_C 	C 	0.9828	0.0314	0.9543	-0.021
Mof_H 	H 	0.0334	0.0118	0.8987	0.015
Mof_H 	H 	0.9	0.0173	0.9365	0.012
Mof_N 	N 	0.3694	0.6128	0.7929	-0.23
Mof_C 	C 	0.4355	0.5556	0.8207	0.128
Mof_C 	C 	0.5277	0.4841	0.8585	-0.232
Mof_H 	H 	0.531	0.4224	0.817	0.075
Mof_H 	H 	0.6057	0.5176	0.8564	0.081
Mof_C 	C 	0.498	0.453	0.9656	-0.034
Mof_H 	H 	0.555	0.4013	0.9883	0.023
Mof_H 	H 	0.4184	0.4223	0.9678	0.023
Mof_C 	C 	0.5547	0.5068	0.9673	-0.014
Mof_H 	H 	0.5839	0.5776	0.9734	0.007
Mof_H 	H 	0.6177	0.4604	0.99	0.015
Mof_N 	N 	0.148	0.7075	0.6112	-0.23
Mof_C 	C 	0.0832	0.682	0.5534	0.133
Mof_C 	C 	0.0016	0.647	0.4766	-0.239
Mof_H 	H 	0.9365	0.6967	0.47	0.082
Mof_H 	H 	0.044	0.6441	0.4137	0.081
Mof_C 	C 	0.9498	0.5402	0.4998	-0.037
Mof_H 	H 	0.9107	0.5415	0.5642	0.025
Mof_H 	H 	0.8903	0.5218	0.4502	0.025
Mof_C 	C 	0.0172	0.5314	0.4543	-0.009
Mof_H 	H 	0.9666	0.5118	0.3987	0.013
Mof_H 	H 	0.1	0.5173	0.4365	0.006
Mof_N 	N 	0.3694	0.8872	0.7071	-0.23
Mof_C 	C 	0.4355	0.9444	0.6793	0.128
Mof_C 	C 	0.5277	0.0159	0.6415	-0.231
Mof_H 	H 	0.531	0.0776	0.683	0.075
Mof_H 	H 	0.6057	0.9824	0.6436	0.081
Mof_C 	C 	0.498	0.047	0.5344	-0.035
Mof_H 	H 	0.555	0.0987	0.5117	0.024
Mof_H 	H 	0.4184	0.0777	0.5322	0.023
Mof_C 	C 	0.5547	0.9932	0.5327	-0.014
Mof_H 	H 	0.5839	0.9224	0.5266	0.007
Mof_H 	H 	0.6177	0.0396	0.51	0.015
Mof_N 	N 	0.148	0.7925	0.8888	-0.23
Mof_C 	C 	0.0832	0.818	0.9466	0.131
Mof_C 	C 	0.0016	0.853	0.0234	-0.233
Mof_H 	H 	0.9365	0.8033	0.03	0.08
Mof_H 	H 	0.044	0.8559	0.0863	0.081
Mof_C 	C 	0.9498	0.9598	0.0002	-0.026
Mof_H 	H 	0.9107	0.9585	0.9358	0.019
Mof_H 	H 	0.8903	0.9782	0.0498	0.021
Mof_C 	C 	0.0172	0.9686	0.0457	-0.021
Mof_H 	H 	0.9666	0.9882	0.1013	0.015
Mof_H 	H 	0.1	0.9827	0.0635	0.012
Mof_Ag	Ag	0.74797	0.25	0.25	0.619
Mof_Ag	Ag	0.25203	0.75	0.75	0.619
Mof_N 	N 	0.8694	0.3872	0.7929	-0.23
Mof_C 	C 	0.9355	0.4444	0.8207	0.129
Mof_C 	C 	0.0277	0.5159	0.8585	-0.235
Mof_H 	H 	0.031	0.5776	0.817	0.076
Mof_H 	H 	0.1057	0.4824	0.8564	0.082
Mof_C 	C 	0.998	0.547	0.9656	-0.036
Mof_H 	H 	0.055	0.5987	0.9883	0.024
Mof_H 	H 	0.9184	0.5777	0.9678	0.025
Mof_C 	C 	0.0547	0.4932	0.9673	-0.011
Mof_H 	H 	0.0839	0.4224	0.9734	0.005
Mof_H 	H 	0.1177	0.5396	0.99	0.014
Mof_N 	N 	0.648	0.2925	0.6112	-0.231
Mof_C 	C 	0.5832	0.318	0.5534	0.133
Mof_C 	C 	0.5016	0.353	0.4766	-0.241
Mof_H 	H 	0.4365	0.3033	0.47	0.084
Mof_H 	H 	0.544	0.3559	0.4137	0.082
Mof_C 	C 	0.4498	0.4598	0.4998	-0.038
Mof_H 	H 	0.4107	0.4585	0.5642	0.025
Mof_H 	H 	0.3903	0.4782	0.4502	0.025
Mof_C 	C 	0.5172	0.4686	0.4543	-0.008
Mof_H 	H 	0.4666	0.4882	0.3987	0.013
Mof_H 	H 	0.6	0.4827	0.4365	0.005
Mof_N 	N 	0.8694	0.1128	0.7071	-0.229
Mof_C 	C 	0.9355	0.0556	0.6793	0.127
Mof_C 	C 	0.0277	0.9841	0.6415	-0.225
Mof_H 	H 	0.031	0.9224	0.683	0.073
Mof_H 	H 	0.1057	0.0176	0.6436	0.078
Mof_C 	C 	0.998	0.953	0.5344	-0.036
Mof_H 	H 	0.055	0.9013	0.5117	0.025
Mof_H 	H 	0.9184	0.9223	0.5322	0.023
Mof_C 	C 	0.0547	0.0068	0.5327	-0.017
Mof_H 	H 	0.0839	0.0776	0.5266	0.008
Mof_H 	H 	0.1177	0.9604	0.51	0.017
Mof_N 	N 	0.648	0.2075	0.8888	-0.231
Mof_C 	C 	0.5832	0.182	0.9466	0.133
Mof_C 	C 	0.5016	0.147	0.0234	-0.241
Mof_H 	H 	0.4365	0.1967	0.03	0.084
Mof_H 	H 	0.544	0.1441	0.0863	0.082
Mof_C 	C 	0.4498	0.0402	0.0002	-0.038
Mof_H 	H 	0.4107	0.0415	0.9358	0.025
Mof_H 	H 	0.3903	0.0218	0.0498	0.025
Mof_C 	C 	0.5172	0.0314	0.0457	-0.007
Mof_H 	H 	0.4666	0.0118	0.1013	0.012
Mof_H 	H 	0.6	0.0173	0.0635	0.005
Mof_N 	N 	0.1306	0.6128	0.2071	-0.23
Mof_C 	C 	0.0645	0.5556	0.1793	0.129
Mof_C 	C 	0.9723	0.4841	0.1415	-0.235
Mof_H 	H 	0.969	0.4224	0.183	0.076
Mof_H 	H 	0.8943	0.5176	0.1436	0.082
Mof_C 	C 	0.002	0.453	0.0344	-0.036
Mof_H 	H 	0.945	0.4013	0.0117	0.024
Mof_H 	H 	0.0816	0.4223	0.0322	0.025
Mof_C 	C 	0.9453	0.5068	0.0327	-0.011
Mof_H 	H 	0.9161	0.5776	0.0266	0.005
Mof_H 	H 	0.8823	0.4604	0.01	0.014
Mof_N 	N 	0.352	0.7075	0.3888	-0.231
Mof_C 	C 	0.4168	0.682	0.4466	0.133
Mof_C 	C 	0.4984	0.647	0.5234	-0.241
Mof_H 	H 	0.5635	0.6967	0.53	0.084
Mof_H 	H 	0.456	0.6441	0.5863	0.082
Mof_C 	C 	0.5502	0.5402	0.5002	-0.038
Mof_H 	H 	0.5893	0.5415	0.4358	0.025
Mof_H 	H 	0.6097	0.5218	0.5498	0.025
Mof_C 	C 	0.4828	0.5314	0.5457	-0.008
Mof_H 	H 	0.5334	0.5118	0.6013	0.013
Mof_H 	H 	0.4	0.5173	0.5635	0.005
Mof_N 	N 	0.1306	0.8872	0.2929	-0.229
Mof_C 	C 	0.0645	0.9444	0.3207	0.127
Mof_C 	C 	0.9723	0.0159	0.3585	-0.225
Mof_H 	H 	0.969	0.0776	0.317	0.073
Mof_H 	H 	0.8943	0.9824	0.3564	0.078
Mof_C 	C 	0.002	0.047	0.4656	-0.036
Mof_H 	H 	0.945	0.0987	0.4883	0.025
Mof_H 	H 	0.0816	0.0777	0.4678	0.023
Mof_C 	C 	0.9453	0.9932	0.4673	-0.017
Mof_H 	H 	0.9161	0.9224	0.4734	0.008
Mof_H 	H 	0.8823	0.0396	0.49	0.017
Mof_N 	N 	0.352	0.7925	0.1112	-0.231
Mof_C 	C 	0.4168	0.818	0.0534	0.133
Mof_C 	C 	0.4984	0.853	0.9766	-0.241
Mof_H 	H 	0.5635	0.8033	0.97	0.084
Mof_H 	H 	0.456	0.8559	0.9137	0.082
Mof_C 	C 	0.5502	0.9598	0.9998	-0.038
Mof_H 	H 	0.5893	0.9585	0.0642	0.025
Mof_H 	H 	0.6097	0.9782	0.9502	0.025
Mof_C 	C 	0.4828	0.9686	0.9543	-0.007
Mof_H 	H 	0.5334	0.9882	0.8987	0.012
Mof_H 	H 	0.4	0.9827	0.9365	0.005
Mof_Ag	Ag	0.75203	0.25	0.75	0.619
Mof_Ag	Ag	0.24797	0.75	0.25	0.619
_end
