data_functionalizedCrystal
_audit_creation_method	'EQeq! by Chris Wilmer'
_symmetry_space_group_name_H-M	'P1'
_symmetry_Int_Tables_number	1
_symmetry_cell_setting	triclinic
loop_
_symmetry_equiv_pos_as_xyz
  x,y,z
_cell_length_a	12.16
_cell_length_b	26.331
_cell_length_c	26.468
_cell_angle_alpha	90
_cell_angle_beta	90
_cell_angle_gamma	90
loop_
_atom_site_label
_atom_site_type_symbol
_atom_site_fract_x
_atom_site_fract_y
_atom_site_fract_z
_atom_site_charge
Mof_Zn	Zn	0.91507	0.45961	0.99294	1.196
Mof_Zn	Zn	0.08493	0.95961	0.00706	1.196
Mof_Zn	Zn	0.08493	0.04039	0.49294	1.198
Mof_Zn	Zn	0.91507	0.54039	0.50706	1.197
Mof_Zn	Zn	0.08493	0.54039	0.00706	1.195
Mof_Zn	Zn	0.91507	0.04039	0.99294	1.195
Mof_Zn	Zn	0.91507	0.95961	0.50706	1.197
Mof_Zn	Zn	0.08493	0.45961	0.49294	1.197
Mof_Zn	Zn	0.16448	0.75	0.77712	1.193
Mof_Zn	Zn	0.98955	0.75	0.69645	1.2
Mof_Zn	Zn	0.83552	0.25	0.22288	1.193
Mof_Zn	Zn	0.01045	0.25	0.30355	1.2
Mof_Zn	Zn	0.83552	0.75	0.27712	1.193
Mof_Zn	Zn	0.01045	0.75	0.19645	1.199
Mof_Zn	Zn	0.16448	0.25	0.72288	1.193
Mof_Zn	Zn	0.98955	0.25	0.80355	1.199
Mof_H 	H 	0.573	0.5296	0.8216	0.046
Mof_H 	H 	0.6644	0.4903	0.8057	0.048
Mof_H 	H 	0.4198	0.4483	0.7417	0.05
Mof_H 	H 	0.5195	0.4259	0.7723	0.049
Mof_H 	H 	0.8036	0.6315	0.7544	0.093
Mof_H 	H 	0.0048	0.6319	0.8737	0.065
Mof_H 	H 	0.7622	0.5279	0.8645	0.088
Mof_H 	H 	0.3413	0.3816	0.7835	0.081
Mof_H 	H 	0.3142	0.4907	0.8892	0.089
Mof_H 	H 	0.1029	0.3742	0.8885	0.051
Mof_H 	H 	0.427	0.0296	0.1784	0.046
Mof_H 	H 	0.3356	0.9903	0.1943	0.047
Mof_H 	H 	0.5802	0.9483	0.2583	0.05
Mof_H 	H 	0.4805	0.9259	0.2277	0.049
Mof_H 	H 	0.1964	0.1315	0.2456	0.093
Mof_H 	H 	0.9952	0.1319	0.1263	0.065
Mof_H 	H 	0.2378	0.0279	0.1355	0.088
Mof_H 	H 	0.6587	0.8816	0.2165	0.081
Mof_H 	H 	0.6858	0.9907	0.1108	0.089
Mof_H 	H 	0.8971	0.8742	0.1115	0.051
Mof_H 	H 	0.427	0.9704	0.3216	0.046
Mof_H 	H 	0.3356	0.0097	0.3057	0.048
Mof_H 	H 	0.5802	0.0517	0.2417	0.05
Mof_H 	H 	0.4805	0.0741	0.2723	0.049
Mof_H 	H 	0.1964	0.8685	0.2544	0.091
Mof_H 	H 	0.9952	0.8681	0.3737	0.06
Mof_H 	H 	0.2378	0.9721	0.3645	0.087
Mof_H 	H 	0.6587	0.1184	0.2835	0.081
Mof_H 	H 	0.6858	0.0093	0.3892	0.088
Mof_H 	H 	0.8971	0.1258	0.3885	0.051
Mof_H 	H 	0.573	0.4704	0.6784	0.046
Mof_H 	H 	0.6644	0.5097	0.6943	0.048
Mof_H 	H 	0.4198	0.5517	0.7583	0.05
Mof_H 	H 	0.5195	0.5741	0.7277	0.049
Mof_H 	H 	0.8036	0.3685	0.7456	0.091
Mof_H 	H 	0.0048	0.3681	0.6263	0.06
Mof_H 	H 	0.7622	0.4721	0.6355	0.087
Mof_H 	H 	0.3413	0.6184	0.7165	0.081
Mof_H 	H 	0.3142	0.5093	0.6108	0.089
Mof_H 	H 	0.1029	0.6258	0.6115	0.051
Mof_H 	H 	0.427	0.4704	0.1784	0.046
Mof_H 	H 	0.3356	0.5097	0.1943	0.048
Mof_H 	H 	0.5802	0.5517	0.2583	0.05
Mof_H 	H 	0.4805	0.5741	0.2277	0.049
Mof_H 	H 	0.1964	0.3685	0.2456	0.093
Mof_H 	H 	0.9952	0.3681	0.1263	0.065
Mof_H 	H 	0.2378	0.4721	0.1355	0.088
Mof_H 	H 	0.6587	0.6184	0.2165	0.081
Mof_H 	H 	0.6858	0.5093	0.1108	0.089
Mof_H 	H 	0.8971	0.6258	0.1115	0.051
Mof_H 	H 	0.573	0.9704	0.8216	0.045
Mof_H 	H 	0.6644	0.0097	0.8057	0.045
Mof_H 	H 	0.4198	0.0517	0.7417	0.049
Mof_H 	H 	0.5195	0.0741	0.7723	0.048
Mof_H 	H 	0.8036	0.8685	0.7544	0.093
Mof_H 	H 	0.0048	0.8681	0.8737	0.065
Mof_H 	H 	0.7622	0.9721	0.8645	0.088
Mof_H 	H 	0.3413	0.1184	0.7835	0.081
Mof_H 	H 	0.3142	0.0093	0.8892	0.088
Mof_H 	H 	0.1029	0.1258	0.8885	0.051
Mof_H 	H 	0.573	0.0296	0.6784	0.046
Mof_H 	H 	0.6644	0.9903	0.6943	0.049
Mof_H 	H 	0.4198	0.9483	0.7583	0.049
Mof_H 	H 	0.5195	0.9259	0.7277	0.048
Mof_H 	H 	0.8036	0.1315	0.7456	0.091
Mof_H 	H 	0.0048	0.1319	0.6263	0.06
Mof_H 	H 	0.7622	0.0279	0.6355	0.086
Mof_H 	H 	0.3413	0.8816	0.7165	0.081
Mof_H 	H 	0.3142	0.9907	0.6108	0.089
Mof_H 	H 	0.1029	0.8742	0.6115	0.051
Mof_H 	H 	0.427	0.5296	0.3216	0.046
Mof_H 	H 	0.3356	0.4903	0.3057	0.048
Mof_H 	H 	0.5802	0.4483	0.2417	0.05
Mof_H 	H 	0.4805	0.4259	0.2723	0.049
Mof_H 	H 	0.1964	0.6315	0.2544	0.091
Mof_H 	H 	0.9952	0.6319	0.3737	0.06
Mof_H 	H 	0.2378	0.5279	0.3645	0.087
Mof_H 	H 	0.6587	0.3816	0.2835	0.081
Mof_H 	H 	0.6858	0.4907	0.3892	0.089
Mof_H 	H 	0.8971	0.3742	0.3885	0.051
Mof_C 	C 	0.6186	0.51801	0.79376	0.002
Mof_C 	C 	0.4748	0.45592	0.76712	-0.009
Mof_C 	C 	0.7688	0.57623	0.80499	0.181
Mof_C 	C 	0.8252	0.61766	0.78516	-0.12
Mof_C 	C 	0.912	0.63798	0.81073	-0.038
Mof_C 	C 	0.9454	0.61786	0.85657	-0.028
Mof_C 	C 	0.8897	0.57679	0.87664	-0.039
Mof_C 	C 	0.7999	0.55541	0.85096	-0.125
Mof_C 	C 	0.9749	0.68072	0.78622	0.367
Mof_C 	C 	0.9287	0.55198	0.92492	0.371
Mof_C 	C 	0.3052	0.39524	0.81129	-0.107
Mof_C 	C 	0.3394	0.44117	0.83182	0.164
Mof_C 	C 	0.2882	0.46094	0.87462	-0.103
Mof_C 	C 	0.2163	0.36983	0.83281	-0.061
Mof_C 	C 	0.1631	0.39084	0.8745	0.001
Mof_C 	C 	0.1988	0.43626	0.89528	-0.058
Mof_C 	C 	0.173	0.32249	0.80971	0.387
Mof_C 	C 	0.135	0.46016	0.93822	0.394
Mof_C 	C 	0.3814	0.01801	0.20624	0.003
Mof_C 	C 	0.5252	0.95592	0.23288	-0.009
Mof_C 	C 	0.2312	0.07623	0.19501	0.181
Mof_C 	C 	0.1748	0.11766	0.21484	-0.12
Mof_C 	C 	0.088	0.13798	0.18927	-0.038
Mof_C 	C 	0.0546	0.11786	0.14343	-0.028
Mof_C 	C 	0.1103	0.07679	0.12336	-0.039
Mof_C 	C 	0.2001	0.05541	0.14904	-0.125
Mof_C 	C 	0.0251	0.18072	0.21378	0.367
Mof_C 	C 	0.0713	0.05198	0.07508	0.371
Mof_C 	C 	0.6948	0.89524	0.18871	-0.107
Mof_C 	C 	0.6606	0.94117	0.16818	0.164
Mof_C 	C 	0.7118	0.96094	0.12538	-0.103
Mof_C 	C 	0.7837	0.86983	0.16719	-0.061
Mof_C 	C 	0.8369	0.89084	0.1255	0.001
Mof_C 	C 	0.8012	0.93626	0.10472	-0.058
Mof_C 	C 	0.827	0.82249	0.19029	0.387
Mof_C 	C 	0.865	0.96016	0.06178	0.394
Mof_C 	C 	0.3814	0.98199	0.29376	0.002
Mof_C 	C 	0.5252	0.04408	0.26712	-0.009
Mof_C 	C 	0.2312	0.92377	0.30499	0.178
Mof_C 	C 	0.1748	0.88234	0.28516	-0.117
Mof_C 	C 	0.088	0.86202	0.31073	-0.042
Mof_C 	C 	0.0546	0.88214	0.35657	-0.019
Mof_C 	C 	0.1103	0.92321	0.37664	-0.044
Mof_C 	C 	0.2001	0.94459	0.35096	-0.122
Mof_C 	C 	0.0251	0.81928	0.28622	0.37
Mof_C 	C 	0.0713	0.94802	0.42492	0.379
Mof_C 	C 	0.6948	0.10476	0.31129	-0.107
Mof_C 	C 	0.6606	0.05883	0.33182	0.164
Mof_C 	C 	0.7118	0.03906	0.37462	-0.102
Mof_C 	C 	0.7837	0.13017	0.33281	-0.061
Mof_C 	C 	0.8369	0.10916	0.3745	0.001
Mof_C 	C 	0.8012	0.06374	0.39528	-0.059
Mof_C 	C 	0.827	0.17751	0.30971	0.388
Mof_C 	C 	0.865	0.03984	0.43822	0.395
Mof_C 	C 	0.6186	0.48199	0.70624	0.002
Mof_C 	C 	0.4748	0.54408	0.73288	-0.009
Mof_C 	C 	0.7688	0.42377	0.69501	0.178
Mof_C 	C 	0.8252	0.38234	0.71484	-0.117
Mof_C 	C 	0.912	0.36202	0.68927	-0.042
Mof_C 	C 	0.9454	0.38214	0.64343	-0.019
Mof_C 	C 	0.8897	0.42321	0.62336	-0.044
Mof_C 	C 	0.7999	0.44459	0.64904	-0.122
Mof_C 	C 	0.9749	0.31928	0.71378	0.37
Mof_C 	C 	0.9287	0.44802	0.57508	0.379
Mof_C 	C 	0.3052	0.60476	0.68871	-0.107
Mof_C 	C 	0.3394	0.55883	0.66818	0.164
Mof_C 	C 	0.2882	0.53906	0.62538	-0.102
Mof_C 	C 	0.2163	0.63017	0.66719	-0.061
Mof_C 	C 	0.1631	0.60916	0.6255	0.001
Mof_C 	C 	0.1988	0.56374	0.60472	-0.059
Mof_C 	C 	0.173	0.67751	0.69029	0.388
Mof_C 	C 	0.135	0.53984	0.56178	0.395
Mof_C 	C 	0.3814	0.48199	0.20624	0.002
Mof_C 	C 	0.5252	0.54408	0.23288	-0.009
Mof_C 	C 	0.2312	0.42377	0.19501	0.181
Mof_C 	C 	0.1748	0.38234	0.21484	-0.12
Mof_C 	C 	0.088	0.36202	0.18927	-0.038
Mof_C 	C 	0.0546	0.38214	0.14343	-0.028
Mof_C 	C 	0.1103	0.42321	0.12336	-0.039
Mof_C 	C 	0.2001	0.44459	0.14904	-0.125
Mof_C 	C 	0.0251	0.31928	0.21378	0.367
Mof_C 	C 	0.0713	0.44802	0.07508	0.371
Mof_C 	C 	0.6948	0.60476	0.18871	-0.107
Mof_C 	C 	0.6606	0.55883	0.16818	0.164
Mof_C 	C 	0.7118	0.53906	0.12538	-0.103
Mof_C 	C 	0.7837	0.63017	0.16719	-0.061
Mof_C 	C 	0.8369	0.60916	0.1255	0.001
Mof_C 	C 	0.8012	0.56374	0.10472	-0.058
Mof_C 	C 	0.827	0.67751	0.19029	0.387
Mof_C 	C 	0.865	0.53984	0.06178	0.394
Mof_C 	C 	0.6186	0.98199	0.79376	0.007
Mof_C 	C 	0.4748	0.04408	0.76712	-0.007
Mof_C 	C 	0.7688	0.92377	0.80499	0.181
Mof_C 	C 	0.8252	0.88234	0.78516	-0.121
Mof_C 	C 	0.912	0.86202	0.81073	-0.037
Mof_C 	C 	0.9454	0.88214	0.85657	-0.029
Mof_C 	C 	0.8897	0.92321	0.87664	-0.038
Mof_C 	C 	0.7999	0.94459	0.85096	-0.126
Mof_C 	C 	0.9749	0.81928	0.78622	0.367
Mof_C 	C 	0.9287	0.94802	0.92492	0.371
Mof_C 	C 	0.3052	0.10476	0.81129	-0.107
Mof_C 	C 	0.3394	0.05883	0.83182	0.164
Mof_C 	C 	0.2882	0.03906	0.87462	-0.103
Mof_C 	C 	0.2163	0.13017	0.83281	-0.061
Mof_C 	C 	0.1631	0.10916	0.8745	0.001
Mof_C 	C 	0.1988	0.06374	0.89528	-0.058
Mof_C 	C 	0.173	0.17751	0.80971	0.387
Mof_C 	C 	0.135	0.03984	0.93822	0.395
Mof_C 	C 	0.6186	0.01801	0.70624	0.001
Mof_C 	C 	0.4748	0.95592	0.73288	-0.006
Mof_C 	C 	0.7688	0.07623	0.69501	0.178
Mof_C 	C 	0.8252	0.11766	0.71484	-0.117
Mof_C 	C 	0.912	0.13798	0.68927	-0.042
Mof_C 	C 	0.9454	0.11786	0.64343	-0.019
Mof_C 	C 	0.8897	0.07679	0.62336	-0.044
Mof_C 	C 	0.7999	0.05541	0.64904	-0.121
Mof_C 	C 	0.9749	0.18072	0.71378	0.37
Mof_C 	C 	0.9287	0.05198	0.57508	0.379
Mof_C 	C 	0.3052	0.89524	0.68871	-0.107
Mof_C 	C 	0.3394	0.94117	0.66818	0.164
Mof_C 	C 	0.2882	0.96094	0.62538	-0.102
Mof_C 	C 	0.2163	0.86983	0.66719	-0.061
Mof_C 	C 	0.1631	0.89084	0.6255	0.001
Mof_C 	C 	0.1988	0.93626	0.60472	-0.058
Mof_C 	C 	0.173	0.82249	0.69029	0.388
Mof_C 	C 	0.135	0.96016	0.56178	0.395
Mof_C 	C 	0.3814	0.51801	0.29376	0.002
Mof_C 	C 	0.5252	0.45592	0.26712	-0.009
Mof_C 	C 	0.2312	0.57623	0.30499	0.178
Mof_C 	C 	0.1748	0.61766	0.28516	-0.117
Mof_C 	C 	0.088	0.63798	0.31073	-0.042
Mof_C 	C 	0.0546	0.61786	0.35657	-0.019
Mof_C 	C 	0.1103	0.57679	0.37664	-0.044
Mof_C 	C 	0.2001	0.55541	0.35096	-0.122
Mof_C 	C 	0.0251	0.68072	0.28622	0.37
Mof_C 	C 	0.0713	0.55198	0.42492	0.379
Mof_C 	C 	0.6948	0.39524	0.31129	-0.107
Mof_C 	C 	0.6606	0.44117	0.33182	0.164
Mof_C 	C 	0.7118	0.46094	0.37462	-0.102
Mof_C 	C 	0.7837	0.36983	0.33281	-0.061
Mof_C 	C 	0.8369	0.39084	0.3745	0.001
Mof_C 	C 	0.8012	0.43626	0.39528	-0.059
Mof_C 	C 	0.827	0.32249	0.30971	0.388
Mof_C 	C 	0.865	0.46016	0.43822	0.395
Mof_C 	C 	0.5463	0.5	0.75	0.026
Mof_C 	C 	0.4537	0	0.25	0.025
Mof_C 	C 	0.4537	0.5	0.25	0.026
Mof_C 	C 	0.5463	5.95742e-33	0.75	0.022
Mof_O 	O 	0.685	0.5583	0.77595	-0.226
Mof_O 	O 	0.4232	0.47041	0.81314	-0.22
Mof_O 	O 	0.9353	0.6976	0.74566	-0.48
Mof_O 	O 	0.0615	0.69591	0.80744	-0.458
Mof_O 	O 	0.0075	0.57229	0.94695	-0.466
Mof_O 	O 	0.8797	0.51188	0.93811	-0.475
Mof_O 	O 	0.1744	0.49951	0.95712	-0.473
Mof_O 	O 	0.219	0.30563	0.77127	-0.477
Mof_O 	O 	0.0465	0.4395	0.94968	-0.489
Mof_O 	O 	0.09	0.30353	0.83149	-0.477
Mof_O 	O 	0.315	0.0583	0.22405	-0.226
Mof_O 	O 	0.5768	0.97041	0.18686	-0.221
Mof_O 	O 	0.0647	0.1976	0.25434	-0.48
Mof_O 	O 	0.9385	0.19591	0.19256	-0.458
Mof_O 	O 	0.9925	0.07229	0.05305	-0.466
Mof_O 	O 	0.1203	0.01188	0.06189	-0.475
Mof_O 	O 	0.8256	0.99951	0.04288	-0.474
Mof_O 	O 	0.781	0.80563	0.22873	-0.477
Mof_O 	O 	0.9535	0.9395	0.05032	-0.489
Mof_O 	O 	0.91	0.80353	0.16851	-0.477
Mof_O 	O 	0.315	0.9417	0.27595	-0.225
Mof_O 	O 	0.5768	0.02959	0.31314	-0.22
Mof_O 	O 	0.0647	0.8024	0.24566	-0.481
Mof_O 	O 	0.9385	0.80409	0.30744	-0.46
Mof_O 	O 	0.9925	0.92771	0.44695	-0.472
Mof_O 	O 	0.1203	0.98812	0.43811	-0.475
Mof_O 	O 	0.8256	0.00049	0.45712	-0.475
Mof_O 	O 	0.781	0.19437	0.27127	-0.477
Mof_O 	O 	0.9535	0.0605	0.44968	-0.491
Mof_O 	O 	0.91	0.19647	0.33149	-0.478
Mof_O 	O 	0.685	0.4417	0.72405	-0.225
Mof_O 	O 	0.4232	0.52959	0.68686	-0.22
Mof_O 	O 	0.9353	0.3024	0.75434	-0.481
Mof_O 	O 	0.0615	0.30409	0.69256	-0.46
Mof_O 	O 	0.0075	0.42771	0.55305	-0.472
Mof_O 	O 	0.8797	0.48812	0.56189	-0.475
Mof_O 	O 	0.1744	0.50049	0.54288	-0.475
Mof_O 	O 	0.219	0.69437	0.72873	-0.477
Mof_O 	O 	0.0465	0.5605	0.55032	-0.491
Mof_O 	O 	0.09	0.69647	0.66851	-0.478
Mof_O 	O 	0.315	0.4417	0.22405	-0.226
Mof_O 	O 	0.5768	0.52959	0.18686	-0.22
Mof_O 	O 	0.0647	0.3024	0.25434	-0.48
Mof_O 	O 	0.9385	0.30409	0.19256	-0.458
Mof_O 	O 	0.9925	0.42771	0.05305	-0.466
Mof_O 	O 	0.1203	0.48812	0.06189	-0.475
Mof_O 	O 	0.8256	0.50049	0.04288	-0.473
Mof_O 	O 	0.781	0.69437	0.22873	-0.477
Mof_O 	O 	0.9535	0.5605	0.05032	-0.489
Mof_O 	O 	0.91	0.69647	0.16851	-0.477
Mof_O 	O 	0.685	0.9417	0.77595	-0.226
Mof_O 	O 	0.4232	0.02959	0.81314	-0.221
Mof_O 	O 	0.9353	0.8024	0.74566	-0.48
Mof_O 	O 	0.0615	0.80409	0.80744	-0.458
Mof_O 	O 	0.0075	0.92771	0.94695	-0.466
Mof_O 	O 	0.8797	0.98812	0.93811	-0.474
Mof_O 	O 	0.1744	0.00049	0.95712	-0.474
Mof_O 	O 	0.219	0.19437	0.77127	-0.477
Mof_O 	O 	0.0465	0.0605	0.94968	-0.489
Mof_O 	O 	0.09	0.19647	0.83149	-0.477
Mof_O 	O 	0.685	0.0583	0.72405	-0.225
Mof_O 	O 	0.4232	0.97041	0.68686	-0.221
Mof_O 	O 	0.9353	0.1976	0.75434	-0.481
Mof_O 	O 	0.0615	0.19591	0.69256	-0.46
Mof_O 	O 	0.0075	0.07229	0.55305	-0.472
Mof_O 	O 	0.8797	0.01188	0.56189	-0.476
Mof_O 	O 	0.1744	0.99951	0.54288	-0.475
Mof_O 	O 	0.219	0.80563	0.72873	-0.477
Mof_O 	O 	0.0465	0.9395	0.55032	-0.491
Mof_O 	O 	0.09	0.80353	0.66851	-0.478
Mof_O 	O 	0.315	0.5583	0.27595	-0.225
Mof_O 	O 	0.5768	0.47041	0.31314	-0.22
Mof_O 	O 	0.0647	0.6976	0.24566	-0.481
Mof_O 	O 	0.9385	0.69591	0.30744	-0.46
Mof_O 	O 	0.9925	0.57229	0.44695	-0.472
Mof_O 	O 	0.1203	0.51188	0.43811	-0.475
Mof_O 	O 	0.8256	0.49951	0.45712	-0.475
Mof_O 	O 	0.781	0.30563	0.27127	-0.477
Mof_O 	O 	0.9535	0.4395	0.44968	-0.491
Mof_O 	O 	0.91	0.30353	0.33149	-0.478
_end
