data_functionalizedCrystal
_audit_creation_method	'EQeq! by Chris Wilmer'
_symmetry_space_group_name_H-M	'P1'
_symmetry_Int_Tables_number	1
_symmetry_cell_setting	triclinic
loop_
_symmetry_equiv_pos_as_xyz
  x,y,z
_cell_length_a	7.5481
_cell_length_b	10.8878
_cell_length_c	19.046
_cell_angle_alpha	79.948
_cell_angle_beta	79.57
_cell_angle_gamma	73.077
loop_
_atom_site_label
_atom_site_type_symbol
_atom_site_fract_x
_atom_site_fract_y
_atom_site_fract_z
_atom_site_charge
Mof_Zn	Zn	0.39281	0.7844	0.45164	1.131
Mof_Zn	Zn	0.71636	0.28664	0.96788	1.106
Mof_H 	H 	0.0533	0.5574	0.6533	0.012
Mof_H 	H 	0.2293	0.3327	0.1833	0.014
Mof_H 	H 	0.3582	0.2465	0.551	0.121
Mof_H 	H 	0.4521	0.553	0.0229	-0.036
Mof_H 	H 	0.8294	0.5973	0.4756	0.001
Mof_H 	H 	0.4582	0.0036	0.8552	0.008
Mof_H 	H 	0.1134	0.506	0.241	0.114
Mof_H 	H 	0.0824	0.5669	0.3717	0.021
Mof_H 	H 	0.6001	0.7095	0.586	-0.002
Mof_H 	H 	0.2172	0.7254	0.053	0.126
Mof_H 	H 	0.2813	0.9696	0.0553	0.014
Mof_H 	H 	0.3628	0.4026	0.7273	0.106
Mof_H 	H 	0.6185	0.8552	0.6687	0.011
Mof_H 	H 	0.4939	0.0141	0.7315	0.118
Mof_H 	H 	0.5726	0.0388	0.9592	-0.027
Mof_H 	H 	0.136	0.1672	0.98	-0.119
Mof_H 	H 	0.6171	0.7867	0.3014	-0.056
Mof_H 	H 	0.7412	0.0151	0.0839	-0.027
Mof_H 	H 	0.8604	0.8904	0.2158	0.105
Mof_H 	H 	0.564	0.3433	0.8188	-0.064
Mof_H 	H 	0.5052	0.4773	0.5142	-0.037
Mof_H 	H 	0.3314	0.0609	0.5128	-0.017
Mof_H 	H 	0.4548	0.1934	0.1046	0.013
Mof_H 	H 	0.0512	0.7438	0.5593	-0.015
Mof_C 	C 	0.1861	0.5981	0.1431	0.199
Mof_C 	C 	0.398	0.9911	0.5417	0.042
Mof_C 	C 	0.9589	0.6153	0.3703	-0.031
Mof_C 	C 	0.5523	0.2624	0.8412	0.091
Mof_C 	C 	0.4258	0.4809	0.0522	0.09
Mof_C 	C 	0.4575	0.097	0.7069	-0.261
Mof_C 	C 	0.9784	0.696	0.2404	0.175
Mof_C 	C 	0.8173	0.6305	0.4277	-0.008
Mof_C 	C 	0.3017	0.3591	0.1416	0.004
Mof_C 	C 	0.1588	0.7185	0.1003	-0.271
Mof_C 	C 	0.3516	0.3411	0.6336	0.202
Mof_C 	C 	0.4251	0.2834	0.098	-0.019
Mof_C 	C 	0.4252	0.1141	0.6357	0.208
Mof_C 	C 	0.5475	0.7986	0.5818	-0.016
Mof_C 	C 	0.5568	0.8784	0.6283	-0.026
Mof_C 	C 	0.6997	0.7356	0.3325	0.078
Mof_C 	C 	0.1431	0.5626	0.6133	0.004
Mof_C 	C 	0.044	0.8267	0.1292	0.213
Mof_C 	C 	0.9453	0.818	0.1982	-0.276
Mof_C 	C 	0.4912	0.0771	0.8605	-0.012
Mof_C 	C 	0.3756	0.2353	0.5991	-0.278
Mof_C 	C 	0.3897	0.5211	0.5367	0.111
Mof_C 	C 	0.0957	0.5864	0.2129	-0.251
Mof_C 	C 	0.0732	0.1126	0.0109	0.127
Mof_C 	C 	0.1545	0.0019	0.0515	0.009
Mof_C 	C 	0.1449	0.6663	0.5615	-0.012
Mof_C 	C 	0.3799	0.3299	0.7048	-0.265
Mof_C 	C 	0.5583	0.0959	0.9169	-0.009
Mof_C 	C 	0.8578	0.0297	0.0668	0.13
Mof_C 	C 	0.4349	0.2052	0.741	0.187
Mof_N 	N 	0.0197	0.9485	0.0848	-0.182
Mof_N 	N 	0.4539	0.0025	0.6025	-0.139
Mof_N 	N 	0.6023	0.2103	0.9031	-0.314
Mof_N 	N 	0.6526	0.7045	0.4013	-0.295
Mof_N 	N 	0.5055	0.3587	0.0397	-0.284
Mof_N 	N 	0.3013	0.4857	0.1133	-0.16
Mof_N 	N 	0.8837	0.6838	0.3123	-0.158
Mof_N 	N 	0.4465	0.8722	0.5271	-0.291
Mof_N 	N 	0.3012	0.6402	0.5144	-0.3
Mof_N 	N 	0.4806	0.1848	0.8127	-0.164
Mof_N 	N 	0.2973	0.4699	0.5945	-0.167
Mof_N 	N 	0.8827	0.1306	0.0229	-0.302
_end
