data_functionalizedCrystal
_audit_creation_method	'EQeq! by Chris Wilmer'
_symmetry_space_group_name_H-M	'P1'
_symmetry_Int_Tables_number	1
_symmetry_cell_setting	triclinic
loop_
_symmetry_equiv_pos_as_xyz
  x,y,z
_cell_length_a	26.943
_cell_length_b	26.943
_cell_length_c	26.943
_cell_angle_alpha	90
_cell_angle_beta	90
_cell_angle_gamma	90
loop_
_atom_site_label
_atom_site_type_symbol
_atom_site_fract_x
_atom_site_fract_y
_atom_site_fract_z
_atom_site_charge
Mof_O 	O 	0.4475	0.05041	0.14884	-0.434
Mof_O 	O 	0.4485	0.0489	0.2311	-0.437
Mof_C 	C 	0.2941	0.1451	0.1972	0.036
Mof_C 	C 	0.4306	0.062	0.1902	0.38
Mof_C 	C 	0.3598	0.1065	0.1491	0.038
Mof_H 	H 	0.3732	0.0981	0.1184	0.016
Mof_C 	C 	0.3195	0.1294	0.2413	-0.12
Mof_H 	H 	0.3061	0.1364	0.2723	0.073
Mof_C 	C 	0.3149	0.1337	0.1512	-0.117
Mof_H 	H 	0.2994	0.144	0.1221	0.057
Mof_C 	C 	0.3638	0.104	0.2377	0.045
Mof_H 	H 	0.3803	0.0945	0.2665	0.025
Mof_C 	C 	0.2164	0.1695	0.2414	-0.111
Mof_H 	H 	0.2207	0.1425	0.2625	0.063
Mof_C 	C 	0.3841	0.0922	0.1923	-0.132
Mof_C 	C 	0.2494	0.1768	0.2023	0.037
Mof_O 	O 	0.5525	0.94959	0.14884	-0.391
Mof_O 	O 	0.5515	0.9511	0.2311	-0.393
Mof_C 	C 	0.7059	0.8549	0.1972	0.035
Mof_C 	C 	0.5694	0.938	0.1902	0.375
Mof_C 	C 	0.6402	0.8935	0.1491	0.034
Mof_H 	H 	0.6268	0.9019	0.1184	0.033
Mof_C 	C 	0.6805	0.8706	0.2413	-0.104
Mof_H 	H 	0.6939	0.8636	0.2723	0.074
Mof_C 	C 	0.6851	0.8663	0.1512	-0.101
Mof_H 	H 	0.7006	0.856	0.1221	0.064
Mof_C 	C 	0.6362	0.896	0.2377	0.039
Mof_H 	H 	0.6197	0.9055	0.2665	0.041
Mof_C 	C 	0.7836	0.8305	0.2414	-0.116
Mof_H 	H 	0.7793	0.8575	0.2625	0.078
Mof_C 	C 	0.6159	0.9078	0.1923	-0.107
Mof_C 	C 	0.7506	0.8232	0.2023	0.052
Mof_O 	O 	0.5525	0.05041	0.85116	-0.42
Mof_O 	O 	0.5515	0.0489	0.7689	-0.434
Mof_C 	C 	0.7059	0.1451	0.8028	0.038
Mof_C 	C 	0.5694	0.062	0.8098	0.378
Mof_C 	C 	0.6402	0.1065	0.8509	0.039
Mof_H 	H 	0.6268	0.0981	0.8816	0.034
Mof_C 	C 	0.6805	0.1294	0.7587	-0.115
Mof_H 	H 	0.6939	0.1364	0.7277	0.073
Mof_C 	C 	0.6851	0.1337	0.8488	-0.109
Mof_H 	H 	0.7006	0.144	0.8779	0.074
Mof_C 	C 	0.6362	0.104	0.7623	0.044
Mof_H 	H 	0.6197	0.0945	0.7335	0.027
Mof_C 	C 	0.7836	0.1695	0.7586	-0.114
Mof_H 	H 	0.7793	0.1425	0.7375	0.07
Mof_C 	C 	0.6159	0.0922	0.8077	-0.124
Mof_C 	C 	0.7506	0.1768	0.7977	0.05
Mof_O 	O 	0.4475	0.94959	0.85116	-0.378
Mof_O 	O 	0.4485	0.9511	0.7689	-0.391
Mof_C 	C 	0.2941	0.8549	0.8028	0.036
Mof_C 	C 	0.4306	0.938	0.8098	0.372
Mof_C 	C 	0.3598	0.8935	0.8509	0.033
Mof_H 	H 	0.3732	0.9019	0.8816	0.049
Mof_C 	C 	0.3195	0.8706	0.7587	-0.101
Mof_H 	H 	0.3061	0.8636	0.7277	0.074
Mof_C 	C 	0.3149	0.8663	0.8488	-0.096
Mof_H 	H 	0.2994	0.856	0.8779	0.076
Mof_C 	C 	0.3638	0.896	0.7623	0.038
Mof_H 	H 	0.3803	0.9055	0.7335	0.042
Mof_C 	C 	0.2164	0.8305	0.7586	-0.115
Mof_H 	H 	0.2207	0.8575	0.7375	0.077
Mof_C 	C 	0.3841	0.9078	0.8077	-0.101
Mof_C 	C 	0.2494	0.8232	0.7977	0.054
Mof_O 	O 	0.14884	0.4475	0.05041	-0.433
Mof_O 	O 	0.2311	0.4485	0.0489	-0.436
Mof_C 	C 	0.1972	0.2941	0.1451	0.037
Mof_C 	C 	0.1902	0.4306	0.062	0.381
Mof_C 	C 	0.1491	0.3598	0.1065	0.039
Mof_H 	H 	0.1184	0.3732	0.0981	0.017
Mof_C 	C 	0.2413	0.3195	0.1294	-0.119
Mof_H 	H 	0.2723	0.3061	0.1364	0.074
Mof_C 	C 	0.1512	0.3149	0.1337	-0.116
Mof_H 	H 	0.1221	0.2994	0.144	0.058
Mof_C 	C 	0.2377	0.3638	0.104	0.046
Mof_H 	H 	0.2665	0.3803	0.0945	0.026
Mof_C 	C 	0.2414	0.2164	0.1695	-0.11
Mof_H 	H 	0.2625	0.2207	0.1425	0.064
Mof_C 	C 	0.1923	0.3841	0.0922	-0.131
Mof_C 	C 	0.2023	0.2494	0.1768	0.038
Mof_O 	O 	0.14884	0.5525	0.94959	-0.39
Mof_O 	O 	0.2311	0.5515	0.9511	-0.392
Mof_C 	C 	0.1972	0.7059	0.8549	0.036
Mof_C 	C 	0.1902	0.5694	0.938	0.376
Mof_C 	C 	0.1491	0.6402	0.8935	0.035
Mof_H 	H 	0.1184	0.6268	0.9019	0.034
Mof_C 	C 	0.2413	0.6805	0.8706	-0.103
Mof_H 	H 	0.2723	0.6939	0.8636	0.075
Mof_C 	C 	0.1512	0.6851	0.8663	-0.1
Mof_H 	H 	0.1221	0.7006	0.856	0.065
Mof_C 	C 	0.2377	0.6362	0.896	0.04
Mof_H 	H 	0.2665	0.6197	0.9055	0.041
Mof_C 	C 	0.2414	0.7836	0.8305	-0.116
Mof_H 	H 	0.2625	0.7793	0.8575	0.078
Mof_C 	C 	0.1923	0.6159	0.9078	-0.107
Mof_C 	C 	0.2023	0.7506	0.8232	0.052
Mof_O 	O 	0.85116	0.5525	0.05041	-0.42
Mof_O 	O 	0.7689	0.5515	0.0489	-0.434
Mof_C 	C 	0.8028	0.7059	0.1451	0.038
Mof_C 	C 	0.8098	0.5694	0.062	0.378
Mof_C 	C 	0.8509	0.6402	0.1065	0.039
Mof_H 	H 	0.8816	0.6268	0.0981	0.034
Mof_C 	C 	0.7587	0.6805	0.1294	-0.115
Mof_H 	H 	0.7277	0.6939	0.1364	0.073
Mof_C 	C 	0.8488	0.6851	0.1337	-0.109
Mof_H 	H 	0.8779	0.7006	0.144	0.074
Mof_C 	C 	0.7623	0.6362	0.104	0.044
Mof_H 	H 	0.7335	0.6197	0.0945	0.027
Mof_C 	C 	0.7586	0.7836	0.1695	-0.114
Mof_H 	H 	0.7375	0.7793	0.1425	0.07
Mof_C 	C 	0.8077	0.6159	0.0922	-0.124
Mof_C 	C 	0.7977	0.7506	0.1768	0.05
Mof_O 	O 	0.85116	0.4475	0.94959	-0.378
Mof_O 	O 	0.7689	0.4485	0.9511	-0.391
Mof_C 	C 	0.8028	0.2941	0.8549	0.036
Mof_C 	C 	0.8098	0.4306	0.938	0.372
Mof_C 	C 	0.8509	0.3598	0.8935	0.033
Mof_H 	H 	0.8816	0.3732	0.9019	0.049
Mof_C 	C 	0.7587	0.3195	0.8706	-0.101
Mof_H 	H 	0.7277	0.3061	0.8636	0.074
Mof_C 	C 	0.8488	0.3149	0.8663	-0.096
Mof_H 	H 	0.8779	0.2994	0.856	0.076
Mof_C 	C 	0.7623	0.3638	0.896	0.038
Mof_H 	H 	0.7335	0.3803	0.9055	0.042
Mof_C 	C 	0.7586	0.2164	0.8305	-0.115
Mof_H 	H 	0.7375	0.2207	0.8575	0.077
Mof_C 	C 	0.8077	0.3841	0.9078	-0.101
Mof_C 	C 	0.7977	0.2494	0.8232	0.054
Mof_O 	O 	0.05041	0.14884	0.4475	-0.433
Mof_O 	O 	0.0489	0.2311	0.4485	-0.436
Mof_C 	C 	0.1451	0.1972	0.2941	0.037
Mof_C 	C 	0.062	0.1902	0.4306	0.381
Mof_C 	C 	0.1065	0.1491	0.3598	0.039
Mof_H 	H 	0.0981	0.1184	0.3732	0.017
Mof_C 	C 	0.1294	0.2413	0.3195	-0.119
Mof_H 	H 	0.1364	0.2723	0.3061	0.074
Mof_C 	C 	0.1337	0.1512	0.3149	-0.116
Mof_H 	H 	0.144	0.1221	0.2994	0.058
Mof_C 	C 	0.104	0.2377	0.3638	0.046
Mof_H 	H 	0.0945	0.2665	0.3803	0.026
Mof_C 	C 	0.1695	0.2414	0.2164	-0.11
Mof_H 	H 	0.1425	0.2625	0.2207	0.064
Mof_C 	C 	0.0922	0.1923	0.3841	-0.131
Mof_C 	C 	0.1768	0.2023	0.2494	0.038
Mof_O 	O 	0.94959	0.14884	0.5525	-0.39
Mof_O 	O 	0.9511	0.2311	0.5515	-0.392
Mof_C 	C 	0.8549	0.1972	0.7059	0.036
Mof_C 	C 	0.938	0.1902	0.5694	0.376
Mof_C 	C 	0.8935	0.1491	0.6402	0.035
Mof_H 	H 	0.9019	0.1184	0.6268	0.034
Mof_C 	C 	0.8706	0.2413	0.6805	-0.103
Mof_H 	H 	0.8636	0.2723	0.6939	0.075
Mof_C 	C 	0.8663	0.1512	0.6851	-0.1
Mof_H 	H 	0.856	0.1221	0.7006	0.065
Mof_C 	C 	0.896	0.2377	0.6362	0.04
Mof_H 	H 	0.9055	0.2665	0.6197	0.041
Mof_C 	C 	0.8305	0.2414	0.7836	-0.116
Mof_H 	H 	0.8575	0.2625	0.7793	0.078
Mof_C 	C 	0.9078	0.1923	0.6159	-0.107
Mof_C 	C 	0.8232	0.2023	0.7506	0.052
Mof_O 	O 	0.05041	0.85116	0.5525	-0.42
Mof_O 	O 	0.0489	0.7689	0.5515	-0.434
Mof_C 	C 	0.1451	0.8028	0.7059	0.038
Mof_C 	C 	0.062	0.8098	0.5694	0.378
Mof_C 	C 	0.1065	0.8509	0.6402	0.039
Mof_H 	H 	0.0981	0.8816	0.6268	0.034
Mof_C 	C 	0.1294	0.7587	0.6805	-0.115
Mof_H 	H 	0.1364	0.7277	0.6939	0.073
Mof_C 	C 	0.1337	0.8488	0.6851	-0.109
Mof_H 	H 	0.144	0.8779	0.7006	0.074
Mof_C 	C 	0.104	0.7623	0.6362	0.044
Mof_H 	H 	0.0945	0.7335	0.6197	0.027
Mof_C 	C 	0.1695	0.7586	0.7836	-0.114
Mof_H 	H 	0.1425	0.7375	0.7793	0.07
Mof_C 	C 	0.0922	0.8077	0.6159	-0.124
Mof_C 	C 	0.1768	0.7977	0.7506	0.05
Mof_O 	O 	0.94959	0.85116	0.4475	-0.378
Mof_O 	O 	0.9511	0.7689	0.4485	-0.391
Mof_C 	C 	0.8549	0.8028	0.2941	0.036
Mof_C 	C 	0.938	0.8098	0.4306	0.372
Mof_C 	C 	0.8935	0.8509	0.3598	0.033
Mof_H 	H 	0.9019	0.8816	0.3732	0.049
Mof_C 	C 	0.8706	0.7587	0.3195	-0.101
Mof_H 	H 	0.8636	0.7277	0.3061	0.074
Mof_C 	C 	0.8663	0.8488	0.3149	-0.096
Mof_H 	H 	0.856	0.8779	0.2994	0.076
Mof_C 	C 	0.896	0.7623	0.3638	0.038
Mof_H 	H 	0.9055	0.7335	0.3803	0.042
Mof_C 	C 	0.8305	0.7586	0.2164	-0.115
Mof_H 	H 	0.8575	0.7375	0.2207	0.077
Mof_C 	C 	0.9078	0.8077	0.3841	-0.101
Mof_C 	C 	0.8232	0.7977	0.2494	0.054
Mof_O 	O 	0.5525	0.94959	0.85116	-0.377
Mof_O 	O 	0.5515	0.9511	0.7689	-0.391
Mof_C 	C 	0.7059	0.8549	0.8028	0.037
Mof_C 	C 	0.5694	0.938	0.8098	0.373
Mof_C 	C 	0.6402	0.8935	0.8509	0.034
Mof_H 	H 	0.6268	0.9019	0.8816	0.05
Mof_C 	C 	0.6805	0.8706	0.7587	-0.1
Mof_H 	H 	0.6939	0.8636	0.7277	0.074
Mof_C 	C 	0.6851	0.8663	0.8488	-0.095
Mof_H 	H 	0.7006	0.856	0.8779	0.079
Mof_C 	C 	0.6362	0.896	0.7623	0.038
Mof_H 	H 	0.6197	0.9055	0.7335	0.042
Mof_C 	C 	0.7836	0.8305	0.7586	-0.117
Mof_H 	H 	0.7793	0.8575	0.7375	0.08
Mof_C 	C 	0.6159	0.9078	0.8077	-0.1
Mof_C 	C 	0.7506	0.8232	0.7977	0.059
Mof_O 	O 	0.4475	0.05041	0.85116	-0.421
Mof_O 	O 	0.4485	0.0489	0.7689	-0.434
Mof_C 	C 	0.2941	0.1451	0.8028	0.038
Mof_C 	C 	0.4306	0.062	0.8098	0.378
Mof_C 	C 	0.3598	0.1065	0.8509	0.038
Mof_H 	H 	0.3732	0.0981	0.8816	0.033
Mof_C 	C 	0.3195	0.1294	0.7587	-0.116
Mof_H 	H 	0.3061	0.1364	0.7277	0.073
Mof_C 	C 	0.3149	0.1337	0.8488	-0.111
Mof_H 	H 	0.2994	0.144	0.8779	0.071
Mof_C 	C 	0.3638	0.104	0.7623	0.044
Mof_H 	H 	0.3803	0.0945	0.7335	0.027
Mof_C 	C 	0.2164	0.1695	0.7586	-0.112
Mof_H 	H 	0.2207	0.1425	0.7375	0.066
Mof_C 	C 	0.3841	0.0922	0.8077	-0.124
Mof_C 	C 	0.2494	0.1768	0.7977	0.045
Mof_O 	O 	0.4475	0.94959	0.14884	-0.39
Mof_O 	O 	0.4485	0.9511	0.2311	-0.392
Mof_C 	C 	0.2941	0.8549	0.1972	0.036
Mof_C 	C 	0.4306	0.938	0.1902	0.375
Mof_C 	C 	0.3598	0.8935	0.1491	0.034
Mof_H 	H 	0.3732	0.9019	0.1184	0.033
Mof_C 	C 	0.3195	0.8706	0.2413	-0.104
Mof_H 	H 	0.3061	0.8636	0.2723	0.075
Mof_C 	C 	0.3149	0.8663	0.1512	-0.101
Mof_H 	H 	0.2994	0.856	0.1221	0.063
Mof_C 	C 	0.3638	0.896	0.2377	0.04
Mof_H 	H 	0.3803	0.9055	0.2665	0.041
Mof_C 	C 	0.2164	0.8305	0.2414	-0.113
Mof_H 	H 	0.2207	0.8575	0.2625	0.074
Mof_C 	C 	0.3841	0.9078	0.1923	-0.107
Mof_C 	C 	0.2494	0.8232	0.2023	0.048
Mof_O 	O 	0.5525	0.05041	0.14884	-0.433
Mof_O 	O 	0.5515	0.0489	0.2311	-0.436
Mof_C 	C 	0.7059	0.1451	0.1972	0.038
Mof_C 	C 	0.5694	0.062	0.1902	0.381
Mof_C 	C 	0.6402	0.1065	0.1491	0.04
Mof_H 	H 	0.6268	0.0981	0.1184	0.018
Mof_C 	C 	0.6805	0.1294	0.2413	-0.119
Mof_H 	H 	0.6939	0.1364	0.2723	0.074
Mof_C 	C 	0.6851	0.1337	0.1512	-0.115
Mof_H 	H 	0.7006	0.144	0.1221	0.061
Mof_C 	C 	0.6362	0.104	0.2377	0.047
Mof_H 	H 	0.6197	0.0945	0.2665	0.026
Mof_C 	C 	0.7836	0.1695	0.2414	-0.113
Mof_H 	H 	0.7793	0.1425	0.2625	0.067
Mof_C 	C 	0.6159	0.0922	0.1923	-0.13
Mof_C 	C 	0.7506	0.1768	0.2023	0.043
Mof_O 	O 	0.85116	0.5525	0.94959	-0.377
Mof_O 	O 	0.7689	0.5515	0.9511	-0.391
Mof_C 	C 	0.8028	0.7059	0.8549	0.037
Mof_C 	C 	0.8098	0.5694	0.938	0.373
Mof_C 	C 	0.8509	0.6402	0.8935	0.034
Mof_H 	H 	0.8816	0.6268	0.9019	0.05
Mof_C 	C 	0.7587	0.6805	0.8706	-0.1
Mof_H 	H 	0.7277	0.6939	0.8636	0.074
Mof_C 	C 	0.8488	0.6851	0.8663	-0.095
Mof_H 	H 	0.8779	0.7006	0.856	0.079
Mof_C 	C 	0.7623	0.6362	0.896	0.038
Mof_H 	H 	0.7335	0.6197	0.9055	0.042
Mof_C 	C 	0.7586	0.7836	0.8305	-0.117
Mof_H 	H 	0.7375	0.7793	0.8575	0.08
Mof_C 	C 	0.8077	0.6159	0.9078	-0.1
Mof_C 	C 	0.7977	0.7506	0.8232	0.059
Mof_O 	O 	0.85116	0.4475	0.05041	-0.421
Mof_O 	O 	0.7689	0.4485	0.0489	-0.434
Mof_C 	C 	0.8028	0.2941	0.1451	0.038
Mof_C 	C 	0.8098	0.4306	0.062	0.378
Mof_C 	C 	0.8509	0.3598	0.1065	0.038
Mof_H 	H 	0.8816	0.3732	0.0981	0.033
Mof_C 	C 	0.7587	0.3195	0.1294	-0.116
Mof_H 	H 	0.7277	0.3061	0.1364	0.073
Mof_C 	C 	0.8488	0.3149	0.1337	-0.111
Mof_H 	H 	0.8779	0.2994	0.144	0.071
Mof_C 	C 	0.7623	0.3638	0.104	0.044
Mof_H 	H 	0.7335	0.3803	0.0945	0.027
Mof_C 	C 	0.7586	0.2164	0.1695	-0.112
Mof_H 	H 	0.7375	0.2207	0.1425	0.066
Mof_C 	C 	0.8077	0.3841	0.0922	-0.124
Mof_C 	C 	0.7977	0.2494	0.1768	0.045
Mof_O 	O 	0.14884	0.4475	0.94959	-0.39
Mof_O 	O 	0.2311	0.4485	0.9511	-0.392
Mof_C 	C 	0.1972	0.2941	0.8549	0.036
Mof_C 	C 	0.1902	0.4306	0.938	0.375
Mof_C 	C 	0.1491	0.3598	0.8935	0.034
Mof_H 	H 	0.1184	0.3732	0.9019	0.033
Mof_C 	C 	0.2413	0.3195	0.8706	-0.104
Mof_H 	H 	0.2723	0.3061	0.8636	0.075
Mof_C 	C 	0.1512	0.3149	0.8663	-0.101
Mof_H 	H 	0.1221	0.2994	0.856	0.063
Mof_C 	C 	0.2377	0.3638	0.896	0.04
Mof_H 	H 	0.2665	0.3803	0.9055	0.041
Mof_C 	C 	0.2414	0.2164	0.8305	-0.113
Mof_H 	H 	0.2625	0.2207	0.8575	0.074
Mof_C 	C 	0.1923	0.3841	0.9078	-0.107
Mof_C 	C 	0.2023	0.2494	0.8232	0.048
Mof_O 	O 	0.14884	0.5525	0.05041	-0.433
Mof_O 	O 	0.2311	0.5515	0.0489	-0.436
Mof_C 	C 	0.1972	0.7059	0.1451	0.038
Mof_C 	C 	0.1902	0.5694	0.062	0.381
Mof_C 	C 	0.1491	0.6402	0.1065	0.04
Mof_H 	H 	0.1184	0.6268	0.0981	0.018
Mof_C 	C 	0.2413	0.6805	0.1294	-0.119
Mof_H 	H 	0.2723	0.6939	0.1364	0.074
Mof_C 	C 	0.1512	0.6851	0.1337	-0.115
Mof_H 	H 	0.1221	0.7006	0.144	0.061
Mof_C 	C 	0.2377	0.6362	0.104	0.047
Mof_H 	H 	0.2665	0.6197	0.0945	0.026
Mof_C 	C 	0.2414	0.7836	0.1695	-0.113
Mof_H 	H 	0.2625	0.7793	0.1425	0.067
Mof_C 	C 	0.1923	0.6159	0.0922	-0.13
Mof_C 	C 	0.2023	0.7506	0.1768	0.043
Mof_O 	O 	0.94959	0.85116	0.5525	-0.377
Mof_O 	O 	0.9511	0.7689	0.5515	-0.391
Mof_C 	C 	0.8549	0.8028	0.7059	0.037
Mof_C 	C 	0.938	0.8098	0.5694	0.373
Mof_C 	C 	0.8935	0.8509	0.6402	0.034
Mof_H 	H 	0.9019	0.8816	0.6268	0.05
Mof_C 	C 	0.8706	0.7587	0.6805	-0.1
Mof_H 	H 	0.8636	0.7277	0.6939	0.074
Mof_C 	C 	0.8663	0.8488	0.6851	-0.095
Mof_H 	H 	0.856	0.8779	0.7006	0.079
Mof_C 	C 	0.896	0.7623	0.6362	0.038
Mof_H 	H 	0.9055	0.7335	0.6197	0.042
Mof_C 	C 	0.8305	0.7586	0.7836	-0.117
Mof_H 	H 	0.8575	0.7375	0.7793	0.08
Mof_C 	C 	0.9078	0.8077	0.6159	-0.1
Mof_C 	C 	0.8232	0.7977	0.7506	0.059
Mof_O 	O 	0.05041	0.85116	0.4475	-0.421
Mof_O 	O 	0.0489	0.7689	0.4485	-0.434
Mof_C 	C 	0.1451	0.8028	0.2941	0.038
Mof_C 	C 	0.062	0.8098	0.4306	0.378
Mof_C 	C 	0.1065	0.8509	0.3598	0.038
Mof_H 	H 	0.0981	0.8816	0.3732	0.033
Mof_C 	C 	0.1294	0.7587	0.3195	-0.116
Mof_H 	H 	0.1364	0.7277	0.3061	0.073
Mof_C 	C 	0.1337	0.8488	0.3149	-0.111
Mof_H 	H 	0.144	0.8779	0.2994	0.071
Mof_C 	C 	0.104	0.7623	0.3638	0.044
Mof_H 	H 	0.0945	0.7335	0.3803	0.027
Mof_C 	C 	0.1695	0.7586	0.2164	-0.112
Mof_H 	H 	0.1425	0.7375	0.2207	0.066
Mof_C 	C 	0.0922	0.8077	0.3841	-0.124
Mof_C 	C 	0.1768	0.7977	0.2494	0.045
Mof_O 	O 	0.94959	0.14884	0.4475	-0.39
Mof_O 	O 	0.9511	0.2311	0.4485	-0.392
Mof_C 	C 	0.8549	0.1972	0.2941	0.036
Mof_C 	C 	0.938	0.1902	0.4306	0.375
Mof_C 	C 	0.8935	0.1491	0.3598	0.034
Mof_H 	H 	0.9019	0.1184	0.3732	0.033
Mof_C 	C 	0.8706	0.2413	0.3195	-0.104
Mof_H 	H 	0.8636	0.2723	0.3061	0.075
Mof_C 	C 	0.8663	0.1512	0.3149	-0.101
Mof_H 	H 	0.856	0.1221	0.2994	0.063
Mof_C 	C 	0.896	0.2377	0.3638	0.04
Mof_H 	H 	0.9055	0.2665	0.3803	0.041
Mof_C 	C 	0.8305	0.2414	0.2164	-0.113
Mof_H 	H 	0.8575	0.2625	0.2207	0.074
Mof_C 	C 	0.9078	0.1923	0.3841	-0.107
Mof_C 	C 	0.8232	0.2023	0.2494	0.048
Mof_O 	O 	0.05041	0.14884	0.5525	-0.433
Mof_O 	O 	0.0489	0.2311	0.5515	-0.436
Mof_C 	C 	0.1451	0.1972	0.7059	0.038
Mof_C 	C 	0.062	0.1902	0.5694	0.381
Mof_C 	C 	0.1065	0.1491	0.6402	0.04
Mof_H 	H 	0.0981	0.1184	0.6268	0.018
Mof_C 	C 	0.1294	0.2413	0.6805	-0.119
Mof_H 	H 	0.1364	0.2723	0.6939	0.074
Mof_C 	C 	0.1337	0.1512	0.6851	-0.115
Mof_H 	H 	0.144	0.1221	0.7006	0.061
Mof_C 	C 	0.104	0.2377	0.6362	0.047
Mof_H 	H 	0.0945	0.2665	0.6197	0.026
Mof_C 	C 	0.1695	0.2414	0.7836	-0.113
Mof_H 	H 	0.1425	0.2625	0.7793	0.067
Mof_C 	C 	0.0922	0.1923	0.6159	-0.13
Mof_C 	C 	0.1768	0.2023	0.7506	0.043
Mof_Cu	Cu	0.5	1.29066e-33	0.14409	0.875
Mof_Cu	Cu	0.5	0	0.24049	0.884
Mof_Cu	Cu	0.5	0	0.85591	0.881
Mof_Cu	Cu	0.5	1.03253e-32	0.75951	0.884
Mof_Cu	Cu	0.14409	0.5	-0	0.875
Mof_Cu	Cu	0.24049	0.5	-0	0.884
Mof_Cu	Cu	0.85591	0.5	-0	0.881
Mof_Cu	Cu	0.75951	0.5	-0	0.884
Mof_Cu	Cu	7.03735e-33	0.14409	0.5	0.875
Mof_Cu	Cu	1.8747e-33	0.24049	0.5	0.884
Mof_Cu	Cu	1.22e-32	0.85591	0.5	0.881
Mof_Cu	Cu	1.8747e-33	0.75951	0.5	0.884
Mof_O 	O 	0.9475	0.55041	0.64884	-0.383
Mof_O 	O 	0.9485	0.5489	0.7311	-0.39
Mof_C 	C 	0.7941	0.6451	0.6972	0.032
Mof_C 	C 	0.9306	0.562	0.6902	0.372
Mof_C 	C 	0.8598	0.6065	0.6491	0.03
Mof_H 	H 	0.8732	0.5981	0.6184	0.04
Mof_C 	C 	0.8195	0.6294	0.7413	-0.102
Mof_H 	H 	0.8061	0.6364	0.7723	0.072
Mof_C 	C 	0.8149	0.6337	0.6512	-0.099
Mof_H 	H 	0.7994	0.644	0.6221	0.067
Mof_C 	C 	0.8638	0.604	0.7377	0.035
Mof_H 	H 	0.8803	0.5945	0.7665	0.042
Mof_C 	C 	0.7164	0.6695	0.7414	-0.117
Mof_H 	H 	0.7207	0.6425	0.7625	0.073
Mof_C 	C 	0.8841	0.5922	0.6923	-0.104
Mof_C 	C 	0.7494	0.6768	0.7023	0.052
Mof_O 	O 	0.0525	0.44959	0.64884	-0.427
Mof_O 	O 	0.0515	0.4511	0.7311	-0.434
Mof_C 	C 	0.2059	0.3549	0.6972	0.04
Mof_C 	C 	0.0694	0.438	0.6902	0.382
Mof_C 	C 	0.1402	0.3935	0.6491	0.041
Mof_H 	H 	0.1268	0.4019	0.6184	0.027
Mof_C 	C 	0.1805	0.3706	0.7413	-0.115
Mof_H 	H 	0.1939	0.3636	0.7723	0.075
Mof_C 	C 	0.1851	0.3663	0.6512	-0.11
Mof_H 	H 	0.2006	0.356	0.6221	0.069
Mof_C 	C 	0.1362	0.396	0.7377	0.047
Mof_H 	H 	0.1197	0.4055	0.7665	0.028
Mof_C 	C 	0.2836	0.3305	0.7414	-0.113
Mof_H 	H 	0.2793	0.3575	0.7625	0.072
Mof_C 	C 	0.1159	0.4078	0.6923	-0.125
Mof_C 	C 	0.2506	0.3232	0.7023	0.047
Mof_O 	O 	0.0525	0.55041	0.35116	-0.427
Mof_O 	O 	0.0515	0.5489	0.2689	-0.436
Mof_C 	C 	0.2059	0.6451	0.3028	0.041
Mof_C 	C 	0.0694	0.562	0.3098	0.382
Mof_C 	C 	0.1402	0.6065	0.3509	0.042
Mof_H 	H 	0.1268	0.5981	0.3816	0.027
Mof_C 	C 	0.1805	0.6294	0.2587	-0.116
Mof_H 	H 	0.1939	0.6364	0.2277	0.076
Mof_C 	C 	0.1851	0.6337	0.3488	-0.111
Mof_H 	H 	0.2006	0.644	0.3779	0.069
Mof_C 	C 	0.1362	0.604	0.2623	0.048
Mof_H 	H 	0.1197	0.5945	0.2335	0.026
Mof_C 	C 	0.2836	0.6695	0.2586	-0.112
Mof_H 	H 	0.2793	0.6425	0.2375	0.071
Mof_C 	C 	0.1159	0.5922	0.3077	-0.127
Mof_C 	C 	0.2506	0.6768	0.2977	0.046
Mof_O 	O 	0.9475	0.44959	0.35116	-0.383
Mof_O 	O 	0.9485	0.4511	0.2689	-0.393
Mof_C 	C 	0.7941	0.3549	0.3028	0.035
Mof_C 	C 	0.9306	0.438	0.3098	0.373
Mof_C 	C 	0.8598	0.3935	0.3509	0.032
Mof_H 	H 	0.8732	0.4019	0.3816	0.039
Mof_C 	C 	0.8195	0.3706	0.2587	-0.105
Mof_H 	H 	0.8061	0.3636	0.2277	0.073
Mof_C 	C 	0.8149	0.3663	0.3488	-0.101
Mof_H 	H 	0.7994	0.356	0.3779	0.068
Mof_C 	C 	0.8638	0.396	0.2623	0.038
Mof_H 	H 	0.8803	0.4055	0.2335	0.039
Mof_C 	C 	0.7164	0.3305	0.2586	-0.113
Mof_H 	H 	0.7207	0.3575	0.2375	0.072
Mof_C 	C 	0.8841	0.4078	0.3077	-0.106
Mof_C 	C 	0.7494	0.3232	0.2977	0.049
Mof_O 	O 	0.64884	0.9475	0.55041	-0.383
Mof_O 	O 	0.7311	0.9485	0.5489	-0.39
Mof_C 	C 	0.6972	0.7941	0.6451	0.032
Mof_C 	C 	0.6902	0.9306	0.562	0.372
Mof_C 	C 	0.6491	0.8598	0.6065	0.03
Mof_H 	H 	0.6184	0.8732	0.5981	0.04
Mof_C 	C 	0.7413	0.8195	0.6294	-0.102
Mof_H 	H 	0.7723	0.8061	0.6364	0.072
Mof_C 	C 	0.6512	0.8149	0.6337	-0.099
Mof_H 	H 	0.6221	0.7994	0.644	0.067
Mof_C 	C 	0.7377	0.8638	0.604	0.035
Mof_H 	H 	0.7665	0.8803	0.5945	0.042
Mof_C 	C 	0.7414	0.7164	0.6695	-0.117
Mof_H 	H 	0.7625	0.7207	0.6425	0.073
Mof_C 	C 	0.6923	0.8841	0.5922	-0.104
Mof_C 	C 	0.7023	0.7494	0.6768	0.052
Mof_O 	O 	0.64884	0.0525	0.44959	-0.427
Mof_O 	O 	0.7311	0.0515	0.4511	-0.434
Mof_C 	C 	0.6972	0.2059	0.3549	0.04
Mof_C 	C 	0.6902	0.0694	0.438	0.382
Mof_C 	C 	0.6491	0.1402	0.3935	0.041
Mof_H 	H 	0.6184	0.1268	0.4019	0.027
Mof_C 	C 	0.7413	0.1805	0.3706	-0.115
Mof_H 	H 	0.7723	0.1939	0.3636	0.075
Mof_C 	C 	0.6512	0.1851	0.3663	-0.11
Mof_H 	H 	0.6221	0.2006	0.356	0.069
Mof_C 	C 	0.7377	0.1362	0.396	0.047
Mof_H 	H 	0.7665	0.1197	0.4055	0.028
Mof_C 	C 	0.7414	0.2836	0.3305	-0.113
Mof_H 	H 	0.7625	0.2793	0.3575	0.072
Mof_C 	C 	0.6923	0.1159	0.4078	-0.125
Mof_C 	C 	0.7023	0.2506	0.3232	0.047
Mof_O 	O 	0.35116	0.0525	0.55041	-0.427
Mof_O 	O 	0.2689	0.0515	0.5489	-0.436
Mof_C 	C 	0.3028	0.2059	0.6451	0.041
Mof_C 	C 	0.3098	0.0694	0.562	0.382
Mof_C 	C 	0.3509	0.1402	0.6065	0.042
Mof_H 	H 	0.3816	0.1268	0.5981	0.027
Mof_C 	C 	0.2587	0.1805	0.6294	-0.116
Mof_H 	H 	0.2277	0.1939	0.6364	0.076
Mof_C 	C 	0.3488	0.1851	0.6337	-0.111
Mof_H 	H 	0.3779	0.2006	0.644	0.069
Mof_C 	C 	0.2623	0.1362	0.604	0.048
Mof_H 	H 	0.2335	0.1197	0.5945	0.026
Mof_C 	C 	0.2586	0.2836	0.6695	-0.112
Mof_H 	H 	0.2375	0.2793	0.6425	0.071
Mof_C 	C 	0.3077	0.1159	0.5922	-0.127
Mof_C 	C 	0.2977	0.2506	0.6768	0.046
Mof_O 	O 	0.35116	0.9475	0.44959	-0.383
Mof_O 	O 	0.2689	0.9485	0.4511	-0.393
Mof_C 	C 	0.3028	0.7941	0.3549	0.035
Mof_C 	C 	0.3098	0.9306	0.438	0.373
Mof_C 	C 	0.3509	0.8598	0.3935	0.032
Mof_H 	H 	0.3816	0.8732	0.4019	0.039
Mof_C 	C 	0.2587	0.8195	0.3706	-0.105
Mof_H 	H 	0.2277	0.8061	0.3636	0.073
Mof_C 	C 	0.3488	0.8149	0.3663	-0.101
Mof_H 	H 	0.3779	0.7994	0.356	0.068
Mof_C 	C 	0.2623	0.8638	0.396	0.038
Mof_H 	H 	0.2335	0.8803	0.4055	0.039
Mof_C 	C 	0.2586	0.7164	0.3305	-0.113
Mof_H 	H 	0.2375	0.7207	0.3575	0.072
Mof_C 	C 	0.3077	0.8841	0.4078	-0.106
Mof_C 	C 	0.2977	0.7494	0.3232	0.049
Mof_O 	O 	0.55041	0.64884	0.9475	-0.383
Mof_O 	O 	0.5489	0.7311	0.9485	-0.39
Mof_C 	C 	0.6451	0.6972	0.7941	0.032
Mof_C 	C 	0.562	0.6902	0.9306	0.372
Mof_C 	C 	0.6065	0.6491	0.8598	0.03
Mof_H 	H 	0.5981	0.6184	0.8732	0.04
Mof_C 	C 	0.6294	0.7413	0.8195	-0.102
Mof_H 	H 	0.6364	0.7723	0.8061	0.072
Mof_C 	C 	0.6337	0.6512	0.8149	-0.099
Mof_H 	H 	0.644	0.6221	0.7994	0.067
Mof_C 	C 	0.604	0.7377	0.8638	0.035
Mof_H 	H 	0.5945	0.7665	0.8803	0.042
Mof_C 	C 	0.6695	0.7414	0.7164	-0.117
Mof_H 	H 	0.6425	0.7625	0.7207	0.073
Mof_C 	C 	0.5922	0.6923	0.8841	-0.104
Mof_C 	C 	0.6768	0.7023	0.7494	0.052
Mof_O 	O 	0.44959	0.64884	0.0525	-0.427
Mof_O 	O 	0.4511	0.7311	0.0515	-0.434
Mof_C 	C 	0.3549	0.6972	0.2059	0.04
Mof_C 	C 	0.438	0.6902	0.0694	0.382
Mof_C 	C 	0.3935	0.6491	0.1402	0.041
Mof_H 	H 	0.4019	0.6184	0.1268	0.027
Mof_C 	C 	0.3706	0.7413	0.1805	-0.115
Mof_H 	H 	0.3636	0.7723	0.1939	0.075
Mof_C 	C 	0.3663	0.6512	0.1851	-0.11
Mof_H 	H 	0.356	0.6221	0.2006	0.069
Mof_C 	C 	0.396	0.7377	0.1362	0.047
Mof_H 	H 	0.4055	0.7665	0.1197	0.028
Mof_C 	C 	0.3305	0.7414	0.2836	-0.113
Mof_H 	H 	0.3575	0.7625	0.2793	0.072
Mof_C 	C 	0.4078	0.6923	0.1159	-0.125
Mof_C 	C 	0.3232	0.7023	0.2506	0.047
Mof_O 	O 	0.55041	0.35116	0.0525	-0.427
Mof_O 	O 	0.5489	0.2689	0.0515	-0.436
Mof_C 	C 	0.6451	0.3028	0.2059	0.041
Mof_C 	C 	0.562	0.3098	0.0694	0.382
Mof_C 	C 	0.6065	0.3509	0.1402	0.042
Mof_H 	H 	0.5981	0.3816	0.1268	0.027
Mof_C 	C 	0.6294	0.2587	0.1805	-0.116
Mof_H 	H 	0.6364	0.2277	0.1939	0.076
Mof_C 	C 	0.6337	0.3488	0.1851	-0.111
Mof_H 	H 	0.644	0.3779	0.2006	0.069
Mof_C 	C 	0.604	0.2623	0.1362	0.048
Mof_H 	H 	0.5945	0.2335	0.1197	0.026
Mof_C 	C 	0.6695	0.2586	0.2836	-0.112
Mof_H 	H 	0.6425	0.2375	0.2793	0.071
Mof_C 	C 	0.5922	0.3077	0.1159	-0.127
Mof_C 	C 	0.6768	0.2977	0.2506	0.046
Mof_O 	O 	0.44959	0.35116	0.9475	-0.383
Mof_O 	O 	0.4511	0.2689	0.9485	-0.393
Mof_C 	C 	0.3549	0.3028	0.7941	0.035
Mof_C 	C 	0.438	0.3098	0.9306	0.373
Mof_C 	C 	0.3935	0.3509	0.8598	0.032
Mof_H 	H 	0.4019	0.3816	0.8732	0.039
Mof_C 	C 	0.3706	0.2587	0.8195	-0.105
Mof_H 	H 	0.3636	0.2277	0.8061	0.073
Mof_C 	C 	0.3663	0.3488	0.8149	-0.101
Mof_H 	H 	0.356	0.3779	0.7994	0.068
Mof_C 	C 	0.396	0.2623	0.8638	0.038
Mof_H 	H 	0.4055	0.2335	0.8803	0.039
Mof_C 	C 	0.3305	0.2586	0.7164	-0.113
Mof_H 	H 	0.3575	0.2375	0.7207	0.072
Mof_C 	C 	0.4078	0.3077	0.8841	-0.106
Mof_C 	C 	0.3232	0.2977	0.7494	0.049
Mof_O 	O 	0.0525	0.44959	0.35116	-0.428
Mof_O 	O 	0.0515	0.4511	0.2689	-0.437
Mof_C 	C 	0.2059	0.3549	0.3028	0.042
Mof_C 	C 	0.0694	0.438	0.3098	0.382
Mof_C 	C 	0.1402	0.3935	0.3509	0.043
Mof_H 	H 	0.1268	0.4019	0.3816	0.027
Mof_C 	C 	0.1805	0.3706	0.2587	-0.117
Mof_H 	H 	0.1939	0.3636	0.2277	0.076
Mof_C 	C 	0.1851	0.3663	0.3488	-0.112
Mof_H 	H 	0.2006	0.356	0.3779	0.07
Mof_C 	C 	0.1362	0.396	0.2623	0.049
Mof_H 	H 	0.1197	0.4055	0.2335	0.026
Mof_C 	C 	0.2836	0.3305	0.2586	-0.11
Mof_H 	H 	0.2793	0.3575	0.2375	0.071
Mof_C 	C 	0.1159	0.4078	0.3077	-0.127
Mof_C 	C 	0.2506	0.3232	0.2977	0.045
Mof_O 	O 	0.9475	0.55041	0.35116	-0.383
Mof_O 	O 	0.9485	0.5489	0.2689	-0.392
Mof_C 	C 	0.7941	0.6451	0.3028	0.034
Mof_C 	C 	0.9306	0.562	0.3098	0.372
Mof_C 	C 	0.8598	0.6065	0.3509	0.032
Mof_H 	H 	0.8732	0.5981	0.3816	0.039
Mof_C 	C 	0.8195	0.6294	0.2587	-0.105
Mof_H 	H 	0.8061	0.6364	0.2277	0.073
Mof_C 	C 	0.8149	0.6337	0.3488	-0.1
Mof_H 	H 	0.7994	0.644	0.3779	0.068
Mof_C 	C 	0.8638	0.604	0.2623	0.037
Mof_H 	H 	0.8803	0.5945	0.2335	0.039
Mof_C 	C 	0.7164	0.6695	0.2586	-0.114
Mof_H 	H 	0.7207	0.6425	0.2375	0.072
Mof_C 	C 	0.8841	0.5922	0.3077	-0.106
Mof_C 	C 	0.7494	0.6768	0.2977	0.05
Mof_O 	O 	0.9475	0.44959	0.64884	-0.383
Mof_O 	O 	0.9485	0.4511	0.7311	-0.39
Mof_C 	C 	0.7941	0.3549	0.6972	0.033
Mof_C 	C 	0.9306	0.438	0.6902	0.372
Mof_C 	C 	0.8598	0.3935	0.6491	0.031
Mof_H 	H 	0.8732	0.4019	0.6184	0.04
Mof_C 	C 	0.8195	0.3706	0.7413	-0.103
Mof_H 	H 	0.8061	0.3636	0.7723	0.072
Mof_C 	C 	0.8149	0.3663	0.6512	-0.1
Mof_H 	H 	0.7994	0.356	0.6221	0.067
Mof_C 	C 	0.8638	0.396	0.7377	0.036
Mof_H 	H 	0.8803	0.4055	0.7665	0.041
Mof_C 	C 	0.7164	0.3305	0.7414	-0.115
Mof_H 	H 	0.7207	0.3575	0.7625	0.073
Mof_C 	C 	0.8841	0.4078	0.6923	-0.104
Mof_C 	C 	0.7494	0.3232	0.7023	0.05
Mof_O 	O 	0.0525	0.55041	0.64884	-0.427
Mof_O 	O 	0.0515	0.5489	0.7311	-0.434
Mof_C 	C 	0.2059	0.6451	0.6972	0.039
Mof_C 	C 	0.0694	0.562	0.6902	0.381
Mof_C 	C 	0.1402	0.6065	0.6491	0.041
Mof_H 	H 	0.1268	0.5981	0.6184	0.028
Mof_C 	C 	0.1805	0.6294	0.7413	-0.114
Mof_H 	H 	0.1939	0.6364	0.7723	0.075
Mof_C 	C 	0.1851	0.6337	0.6512	-0.11
Mof_H 	H 	0.2006	0.644	0.6221	0.069
Mof_C 	C 	0.1362	0.604	0.7377	0.047
Mof_H 	H 	0.1197	0.5945	0.7665	0.029
Mof_C 	C 	0.2836	0.6695	0.7414	-0.115
Mof_H 	H 	0.2793	0.6425	0.7625	0.072
Mof_C 	C 	0.1159	0.5922	0.6923	-0.125
Mof_C 	C 	0.2506	0.6768	0.7023	0.048
Mof_O 	O 	0.35116	0.0525	0.44959	-0.428
Mof_O 	O 	0.2689	0.0515	0.4511	-0.437
Mof_C 	C 	0.3028	0.2059	0.3549	0.042
Mof_C 	C 	0.3098	0.0694	0.438	0.382
Mof_C 	C 	0.3509	0.1402	0.3935	0.043
Mof_H 	H 	0.3816	0.1268	0.4019	0.027
Mof_C 	C 	0.2587	0.1805	0.3706	-0.117
Mof_H 	H 	0.2277	0.1939	0.3636	0.076
Mof_C 	C 	0.3488	0.1851	0.3663	-0.112
Mof_H 	H 	0.3779	0.2006	0.356	0.07
Mof_C 	C 	0.2623	0.1362	0.396	0.049
Mof_H 	H 	0.2335	0.1197	0.4055	0.026
Mof_C 	C 	0.2586	0.2836	0.3305	-0.11
Mof_H 	H 	0.2375	0.2793	0.3575	0.071
Mof_C 	C 	0.3077	0.1159	0.4078	-0.127
Mof_C 	C 	0.2977	0.2506	0.3232	0.045
Mof_O 	O 	0.35116	0.9475	0.55041	-0.383
Mof_O 	O 	0.2689	0.9485	0.5489	-0.392
Mof_C 	C 	0.3028	0.7941	0.6451	0.034
Mof_C 	C 	0.3098	0.9306	0.562	0.372
Mof_C 	C 	0.3509	0.8598	0.6065	0.032
Mof_H 	H 	0.3816	0.8732	0.5981	0.039
Mof_C 	C 	0.2587	0.8195	0.6294	-0.105
Mof_H 	H 	0.2277	0.8061	0.6364	0.073
Mof_C 	C 	0.3488	0.8149	0.6337	-0.1
Mof_H 	H 	0.3779	0.7994	0.644	0.068
Mof_C 	C 	0.2623	0.8638	0.604	0.037
Mof_H 	H 	0.2335	0.8803	0.5945	0.039
Mof_C 	C 	0.2586	0.7164	0.6695	-0.114
Mof_H 	H 	0.2375	0.7207	0.6425	0.072
Mof_C 	C 	0.3077	0.8841	0.5922	-0.106
Mof_C 	C 	0.2977	0.7494	0.6768	0.05
Mof_O 	O 	0.64884	0.9475	0.44959	-0.383
Mof_O 	O 	0.7311	0.9485	0.4511	-0.39
Mof_C 	C 	0.6972	0.7941	0.3549	0.033
Mof_C 	C 	0.6902	0.9306	0.438	0.372
Mof_C 	C 	0.6491	0.8598	0.3935	0.031
Mof_H 	H 	0.6184	0.8732	0.4019	0.04
Mof_C 	C 	0.7413	0.8195	0.3706	-0.103
Mof_H 	H 	0.7723	0.8061	0.3636	0.072
Mof_C 	C 	0.6512	0.8149	0.3663	-0.1
Mof_H 	H 	0.6221	0.7994	0.356	0.067
Mof_C 	C 	0.7377	0.8638	0.396	0.036
Mof_H 	H 	0.7665	0.8803	0.4055	0.041
Mof_C 	C 	0.7414	0.7164	0.3305	-0.115
Mof_H 	H 	0.7625	0.7207	0.3575	0.073
Mof_C 	C 	0.6923	0.8841	0.4078	-0.104
Mof_C 	C 	0.7023	0.7494	0.3232	0.05
Mof_O 	O 	0.64884	0.0525	0.55041	-0.427
Mof_O 	O 	0.7311	0.0515	0.5489	-0.434
Mof_C 	C 	0.6972	0.2059	0.6451	0.039
Mof_C 	C 	0.6902	0.0694	0.562	0.381
Mof_C 	C 	0.6491	0.1402	0.6065	0.041
Mof_H 	H 	0.6184	0.1268	0.5981	0.028
Mof_C 	C 	0.7413	0.1805	0.6294	-0.114
Mof_H 	H 	0.7723	0.1939	0.6364	0.075
Mof_C 	C 	0.6512	0.1851	0.6337	-0.11
Mof_H 	H 	0.6221	0.2006	0.644	0.069
Mof_C 	C 	0.7377	0.1362	0.604	0.047
Mof_H 	H 	0.7665	0.1197	0.5945	0.029
Mof_C 	C 	0.7414	0.2836	0.6695	-0.115
Mof_H 	H 	0.7625	0.2793	0.6425	0.072
Mof_C 	C 	0.6923	0.1159	0.5922	-0.125
Mof_C 	C 	0.7023	0.2506	0.6768	0.048
Mof_O 	O 	0.44959	0.35116	0.0525	-0.428
Mof_O 	O 	0.4511	0.2689	0.0515	-0.437
Mof_C 	C 	0.3549	0.3028	0.2059	0.042
Mof_C 	C 	0.438	0.3098	0.0694	0.382
Mof_C 	C 	0.3935	0.3509	0.1402	0.043
Mof_H 	H 	0.4019	0.3816	0.1268	0.027
Mof_C 	C 	0.3706	0.2587	0.1805	-0.117
Mof_H 	H 	0.3636	0.2277	0.1939	0.076
Mof_C 	C 	0.3663	0.3488	0.1851	-0.112
Mof_H 	H 	0.356	0.3779	0.2006	0.07
Mof_C 	C 	0.396	0.2623	0.1362	0.049
Mof_H 	H 	0.4055	0.2335	0.1197	0.026
Mof_C 	C 	0.3305	0.2586	0.2836	-0.11
Mof_H 	H 	0.3575	0.2375	0.2793	0.071
Mof_C 	C 	0.4078	0.3077	0.1159	-0.127
Mof_C 	C 	0.3232	0.2977	0.2506	0.045
Mof_O 	O 	0.55041	0.35116	0.9475	-0.383
Mof_O 	O 	0.5489	0.2689	0.9485	-0.392
Mof_C 	C 	0.6451	0.3028	0.7941	0.034
Mof_C 	C 	0.562	0.3098	0.9306	0.372
Mof_C 	C 	0.6065	0.3509	0.8598	0.032
Mof_H 	H 	0.5981	0.3816	0.8732	0.039
Mof_C 	C 	0.6294	0.2587	0.8195	-0.105
Mof_H 	H 	0.6364	0.2277	0.8061	0.073
Mof_C 	C 	0.6337	0.3488	0.8149	-0.1
Mof_H 	H 	0.644	0.3779	0.7994	0.068
Mof_C 	C 	0.604	0.2623	0.8638	0.037
Mof_H 	H 	0.5945	0.2335	0.8803	0.039
Mof_C 	C 	0.6695	0.2586	0.7164	-0.114
Mof_H 	H 	0.6425	0.2375	0.7207	0.072
Mof_C 	C 	0.5922	0.3077	0.8841	-0.106
Mof_C 	C 	0.6768	0.2977	0.7494	0.05
Mof_O 	O 	0.44959	0.64884	0.9475	-0.383
Mof_O 	O 	0.4511	0.7311	0.9485	-0.39
Mof_C 	C 	0.3549	0.6972	0.7941	0.033
Mof_C 	C 	0.438	0.6902	0.9306	0.372
Mof_C 	C 	0.3935	0.6491	0.8598	0.031
Mof_H 	H 	0.4019	0.6184	0.8732	0.04
Mof_C 	C 	0.3706	0.7413	0.8195	-0.103
Mof_H 	H 	0.3636	0.7723	0.8061	0.072
Mof_C 	C 	0.3663	0.6512	0.8149	-0.1
Mof_H 	H 	0.356	0.6221	0.7994	0.067
Mof_C 	C 	0.396	0.7377	0.8638	0.036
Mof_H 	H 	0.4055	0.7665	0.8803	0.041
Mof_C 	C 	0.3305	0.7414	0.7164	-0.115
Mof_H 	H 	0.3575	0.7625	0.7207	0.073
Mof_C 	C 	0.4078	0.6923	0.8841	-0.104
Mof_C 	C 	0.3232	0.7023	0.7494	0.05
Mof_O 	O 	0.55041	0.64884	0.0525	-0.427
Mof_O 	O 	0.5489	0.7311	0.0515	-0.434
Mof_C 	C 	0.6451	0.6972	0.2059	0.039
Mof_C 	C 	0.562	0.6902	0.0694	0.381
Mof_C 	C 	0.6065	0.6491	0.1402	0.041
Mof_H 	H 	0.5981	0.6184	0.1268	0.028
Mof_C 	C 	0.6294	0.7413	0.1805	-0.114
Mof_H 	H 	0.6364	0.7723	0.1939	0.075
Mof_C 	C 	0.6337	0.6512	0.1851	-0.11
Mof_H 	H 	0.644	0.6221	0.2006	0.069
Mof_C 	C 	0.604	0.7377	0.1362	0.047
Mof_H 	H 	0.5945	0.7665	0.1197	0.029
Mof_C 	C 	0.6695	0.7414	0.2836	-0.115
Mof_H 	H 	0.6425	0.7625	0.2793	0.072
Mof_C 	C 	0.5922	0.6923	0.1159	-0.125
Mof_C 	C 	0.6768	0.7023	0.2506	0.048
Mof_Cu	Cu	7.5776e-33	0.5	0.64409	0.878
Mof_Cu	Cu	1.31017e-32	0.5	0.74049	0.885
Mof_Cu	Cu	6.4971e-33	0.5	0.35591	0.878
Mof_Cu	Cu	6.13566e-33	0.5	0.25951	0.883
Mof_Cu	Cu	0.64409	0	0.5	0.878
Mof_Cu	Cu	0.74049	0	0.5	0.885
Mof_Cu	Cu	0.35591	0	0.5	0.878
Mof_Cu	Cu	0.25951	0	0.5	0.883
Mof_Cu	Cu	0.5	0.64409	-0	0.878
Mof_Cu	Cu	0.5	0.74049	-0	0.885
Mof_Cu	Cu	0.5	0.35591	-0	0.878
Mof_Cu	Cu	0.5	0.25951	-0	0.883
_end
