data_functionalizedCrystal
_audit_creation_method	'EQeq! by Chris Wilmer'
_symmetry_space_group_name_H-M	'P1'
_symmetry_Int_Tables_number	1
_symmetry_cell_setting	triclinic
loop_
_symmetry_equiv_pos_as_xyz
  x,y,z
_cell_length_a	11.164
_cell_length_b	11.164
_cell_length_c	10.638
_cell_angle_alpha	90
_cell_angle_beta	90
_cell_angle_gamma	90
loop_
_atom_site_label
_atom_site_type_symbol
_atom_site_fract_x
_atom_site_fract_y
_atom_site_fract_z
_atom_site_charge
Mof_Cu	Cu	0.91399	0.08601	0.21482	0.802
Mof_Cu	Cu	0.58511	0.41489	0.05521	0.724
Mof_S 	S 	0.69474	0.30526	0.91107	-0.102
Mof_N 	N 	0.8234	0.1766	0.0902	-0.255
Mof_C 	C 	0.7715	0.2285	0.0165	-0.075
Mof_Cu	Cu	0.08601	0.91399	0.21482	0.802
Mof_Cu	Cu	0.41489	0.58511	0.05521	0.724
Mof_S 	S 	0.30526	0.69474	0.91107	-0.102
Mof_N 	N 	0.1766	0.8234	0.0902	-0.255
Mof_C 	C 	0.2285	0.7715	0.0165	-0.075
Mof_Cu	Cu	0.91399	0.91399	0.71482	0.814
Mof_Cu	Cu	0.58511	0.58511	0.55521	0.796
Mof_S 	S 	0.69474	0.69474	0.41107	-0.294
Mof_N 	N 	0.8234	0.8234	0.5902	-0.277
Mof_C 	C 	0.7715	0.7715	0.5165	0.092
Mof_Cu	Cu	0.08601	0.08601	0.71482	0.814
Mof_Cu	Cu	0.41489	0.41489	0.55521	0.796
Mof_S 	S 	0.30526	0.30526	0.41107	-0.294
Mof_N 	N 	0.1766	0.1766	0.5902	-0.277
Mof_C 	C 	0.2285	0.2285	0.5165	0.092
Mof_S 	S 	0.12252	0.12252	0.15749	-0.369
Mof_N 	N 	0.1093	0.1093	0.8934	-0.178
Mof_C 	C 	0.1133	0.1133	0.0015	-0.065
Mof_S 	S 	0.87748	0.87748	0.15749	-0.369
Mof_N 	N 	0.8907	0.8907	0.8934	-0.178
Mof_C 	C 	0.8867	0.8867	0.0015	-0.065
Mof_S 	S 	0.87748	0.12252	0.65749	-0.348
Mof_N 	N 	0.8907	0.1093	0.3934	-0.29
Mof_C 	C 	0.8867	0.1133	0.5015	0.086
Mof_S 	S 	0.12252	0.87748	0.65749	-0.348
Mof_N 	N 	0.1093	0.8907	0.3934	-0.29
Mof_C 	C 	0.1133	0.8867	0.5015	0.086
Mof_S 	S 	0.62448	0.62448	0.99766	-0.243
Mof_N 	N 	0.6088	0.6088	0.7347	-0.282
Mof_C 	C 	0.6142	0.6142	0.8417	0.073
Mof_S 	S 	0.37552	0.37552	0.99766	-0.243
Mof_N 	N 	0.3912	0.3912	0.7347	-0.282
Mof_C 	C 	0.3858	0.3858	0.8417	0.073
Mof_S 	S 	0.37552	0.62448	0.49766	-0.376
Mof_N 	N 	0.3912	0.6088	0.2347	-0.309
Mof_C 	C 	0.3858	0.6142	0.3417	0.076
Mof_S 	S 	0.62448	0.37552	0.49766	-0.376
Mof_N 	N 	0.6088	0.3912	0.2347	-0.309
Mof_C 	C 	0.6142	0.3858	0.3417	0.076
_end
