data_functionalizedCrystal
_audit_creation_method	'EQeq! by Chris Wilmer'
_symmetry_space_group_name_H-M	'P1'
_symmetry_Int_Tables_number	1
_symmetry_cell_setting	triclinic
loop_
_symmetry_equiv_pos_as_xyz
  x,y,z
_cell_length_a	16.9948
_cell_length_b	16.9948
_cell_length_c	16.9948
_cell_angle_alpha	90
_cell_angle_beta	90
_cell_angle_gamma	90
loop_
_atom_site_label
_atom_site_type_symbol
_atom_site_fract_x
_atom_site_fract_y
_atom_site_fract_z
_atom_site_charge
Mof_C 	C 	0.37027	0.90048	0.68776	-0.017
Mof_N 	N 	0.41228	0.97171	0.68107	-0.223
Mof_H 	H 	0.3857	0.8641	0.7284	-0.008
Mof_H 	H 	0.4312	0.1218	0.6341	0.134
Mof_C 	C 	0.87027	0.40048	0.18776	-0.022
Mof_N 	N 	0.91228	0.47171	0.18107	-0.293
Mof_H 	H 	0.8857	0.3641	0.2284	0.001
Mof_H 	H 	0.9312	0.6218	0.1341	0.231
Mof_C 	C 	0.62973	0.09952	0.68776	-0.03
Mof_N 	N 	0.58772	0.02829	0.68107	-0.399
Mof_H 	H 	0.6143	0.1359	0.7284	-0.007
Mof_H 	H 	0.5688	0.8782	0.6341	0.283
Mof_C 	C 	0.12973	0.59952	0.18776	-0.037
Mof_N 	N 	0.08772	0.52829	0.18107	-0.319
Mof_H 	H 	0.1143	0.6359	0.2284	-0.021
Mof_H 	H 	0.0688	0.3782	0.1341	0.111
Mof_C 	C 	0.62973	0.90048	0.31224	-0.016
Mof_N 	N 	0.58772	0.97171	0.31893	-0.222
Mof_H 	H 	0.6143	0.8641	0.2716	-0.006
Mof_H 	H 	0.5688	0.1218	0.3659	0.136
Mof_C 	C 	0.12973	0.40048	0.81224	-0.03
Mof_N 	N 	0.08772	0.47171	0.81893	-0.33
Mof_H 	H 	0.1143	0.3641	0.7716	-0.02
Mof_H 	H 	0.0688	0.6218	0.8659	0.201
Mof_C 	C 	0.37027	0.09952	0.31224	-0.035
Mof_N 	N 	0.41228	0.02829	0.31893	-0.4
Mof_H 	H 	0.3857	0.1359	0.2716	-0.009
Mof_H 	H 	0.4312	0.8782	0.3659	0.283
Mof_C 	C 	0.87027	0.59952	0.81224	-0.009
Mof_N 	N 	0.91228	0.52829	0.81893	-0.301
Mof_H 	H 	0.8857	0.6359	0.7716	0.011
Mof_H 	H 	0.9312	0.3782	0.8659	0.295
Mof_C 	C 	0.68776	0.37027	0.90048	-0.016
Mof_N 	N 	0.68107	0.41228	0.97171	-0.222
Mof_H 	H 	0.7284	0.3857	0.8641	-0.007
Mof_H 	H 	0.6341	0.4312	0.1218	0.135
Mof_C 	C 	0.18776	0.87027	0.40048	-0.021
Mof_N 	N 	0.18107	0.91228	0.47171	-0.292
Mof_H 	H 	0.2284	0.8857	0.3641	0.001
Mof_H 	H 	0.1341	0.9312	0.6218	0.231
Mof_C 	C 	0.68776	0.62973	0.09952	-0.03
Mof_N 	N 	0.68107	0.58772	0.02829	-0.399
Mof_H 	H 	0.7284	0.6143	0.1359	-0.007
Mof_H 	H 	0.6341	0.5688	0.8782	0.283
Mof_C 	C 	0.18776	0.12973	0.59952	-0.037
Mof_N 	N 	0.18107	0.08772	0.52829	-0.319
Mof_H 	H 	0.2284	0.1143	0.6359	-0.021
Mof_H 	H 	0.1341	0.0688	0.3782	0.111
Mof_C 	C 	0.31224	0.62973	0.90048	-0.016
Mof_N 	N 	0.31893	0.58772	0.97171	-0.222
Mof_H 	H 	0.2716	0.6143	0.8641	-0.006
Mof_H 	H 	0.3659	0.5688	0.1218	0.136
Mof_C 	C 	0.81224	0.12973	0.40048	-0.03
Mof_N 	N 	0.81893	0.08772	0.47171	-0.33
Mof_H 	H 	0.7716	0.1143	0.3641	-0.02
Mof_H 	H 	0.8659	0.0688	0.6218	0.201
Mof_C 	C 	0.31224	0.37027	0.09952	-0.035
Mof_N 	N 	0.31893	0.41228	0.02829	-0.4
Mof_H 	H 	0.2716	0.3857	0.1359	-0.009
Mof_H 	H 	0.3659	0.4312	0.8782	0.283
Mof_C 	C 	0.81224	0.87027	0.59952	-0.009
Mof_N 	N 	0.81893	0.91228	0.52829	-0.301
Mof_H 	H 	0.7716	0.8857	0.6359	0.011
Mof_H 	H 	0.8659	0.9312	0.3782	0.295
Mof_C 	C 	0.90048	0.68776	0.37027	-0.016
Mof_N 	N 	0.97171	0.68107	0.41228	-0.222
Mof_H 	H 	0.8641	0.7284	0.3857	-0.007
Mof_H 	H 	0.1218	0.6341	0.4312	0.135
Mof_C 	C 	0.40048	0.18776	0.87027	-0.021
Mof_N 	N 	0.47171	0.18107	0.91228	-0.292
Mof_H 	H 	0.3641	0.2284	0.8857	0.001
Mof_H 	H 	0.6218	0.1341	0.9312	0.231
Mof_C 	C 	0.09952	0.68776	0.62973	-0.03
Mof_N 	N 	0.02829	0.68107	0.58772	-0.399
Mof_H 	H 	0.1359	0.7284	0.6143	-0.007
Mof_H 	H 	0.8782	0.6341	0.5688	0.283
Mof_C 	C 	0.59952	0.18776	0.12973	-0.037
Mof_N 	N 	0.52829	0.18107	0.08772	-0.319
Mof_H 	H 	0.6359	0.2284	0.1143	-0.021
Mof_H 	H 	0.3782	0.1341	0.0688	0.111
Mof_C 	C 	0.90048	0.31224	0.62973	-0.016
Mof_N 	N 	0.97171	0.31893	0.58772	-0.222
Mof_H 	H 	0.8641	0.2716	0.6143	-0.006
Mof_H 	H 	0.1218	0.3659	0.5688	0.136
Mof_C 	C 	0.40048	0.81224	0.12973	-0.03
Mof_N 	N 	0.47171	0.81893	0.08772	-0.33
Mof_H 	H 	0.3641	0.7716	0.1143	-0.02
Mof_H 	H 	0.6218	0.8659	0.0688	0.201
Mof_C 	C 	0.09952	0.31224	0.37027	-0.035
Mof_N 	N 	0.02829	0.31893	0.41228	-0.4
Mof_H 	H 	0.1359	0.2716	0.3857	-0.009
Mof_H 	H 	0.8782	0.3659	0.4312	0.283
Mof_C 	C 	0.59952	0.81224	0.87027	-0.009
Mof_N 	N 	0.52829	0.81893	0.91228	-0.301
Mof_H 	H 	0.6359	0.7716	0.8857	0.011
Mof_H 	H 	0.3782	0.8659	0.9312	0.295
Mof_C 	C 	0.90048	0.37027	0.68776	-0.016
Mof_N 	N 	0.97171	0.41228	0.68107	-0.222
Mof_H 	H 	0.8641	0.3857	0.7284	-0.007
Mof_H 	H 	0.1218	0.4312	0.6341	0.135
Mof_C 	C 	0.40048	0.87027	0.18776	-0.021
Mof_N 	N 	0.47171	0.91228	0.18107	-0.292
Mof_H 	H 	0.3641	0.8857	0.2284	0.001
Mof_H 	H 	0.6218	0.9312	0.1341	0.231
Mof_C 	C 	0.09952	0.62973	0.68776	-0.03
Mof_N 	N 	0.02829	0.58772	0.68107	-0.399
Mof_H 	H 	0.1359	0.6143	0.7284	-0.007
Mof_H 	H 	0.8782	0.5688	0.6341	0.283
Mof_C 	C 	0.59952	0.12973	0.18776	-0.037
Mof_N 	N 	0.52829	0.08772	0.18107	-0.319
Mof_H 	H 	0.6359	0.1143	0.2284	-0.021
Mof_H 	H 	0.3782	0.0688	0.1341	0.111
Mof_C 	C 	0.90048	0.62973	0.31224	-0.016
Mof_N 	N 	0.97171	0.58772	0.31893	-0.222
Mof_H 	H 	0.8641	0.6143	0.2716	-0.006
Mof_H 	H 	0.1218	0.5688	0.3659	0.136
Mof_C 	C 	0.40048	0.12973	0.81224	-0.03
Mof_N 	N 	0.47171	0.08772	0.81893	-0.33
Mof_H 	H 	0.3641	0.1143	0.7716	-0.02
Mof_H 	H 	0.6218	0.0688	0.8659	0.201
Mof_C 	C 	0.09952	0.37027	0.31224	-0.035
Mof_N 	N 	0.02829	0.41228	0.31893	-0.4
Mof_H 	H 	0.1359	0.3857	0.2716	-0.009
Mof_H 	H 	0.8782	0.4312	0.3659	0.283
Mof_C 	C 	0.59952	0.87027	0.81224	-0.009
Mof_N 	N 	0.52829	0.91228	0.81893	-0.301
Mof_H 	H 	0.6359	0.8857	0.7716	0.011
Mof_H 	H 	0.3782	0.9312	0.8659	0.295
Mof_C 	C 	0.37027	0.68776	0.90048	-0.016
Mof_N 	N 	0.41228	0.68107	0.97171	-0.222
Mof_H 	H 	0.3857	0.7284	0.8641	-0.007
Mof_H 	H 	0.4312	0.6341	0.1218	0.135
Mof_C 	C 	0.87027	0.18776	0.40048	-0.021
Mof_N 	N 	0.91228	0.18107	0.47171	-0.292
Mof_H 	H 	0.8857	0.2284	0.3641	0.001
Mof_H 	H 	0.9312	0.1341	0.6218	0.231
Mof_C 	C 	0.62973	0.68776	0.09952	-0.03
Mof_N 	N 	0.58772	0.68107	0.02829	-0.399
Mof_H 	H 	0.6143	0.7284	0.1359	-0.007
Mof_H 	H 	0.5688	0.6341	0.8782	0.283
Mof_C 	C 	0.12973	0.18776	0.59952	-0.037
Mof_N 	N 	0.08772	0.18107	0.52829	-0.319
Mof_H 	H 	0.1143	0.2284	0.6359	-0.021
Mof_H 	H 	0.0688	0.1341	0.3782	0.111
Mof_C 	C 	0.62973	0.31224	0.90048	-0.016
Mof_N 	N 	0.58772	0.31893	0.97171	-0.222
Mof_H 	H 	0.6143	0.2716	0.8641	-0.006
Mof_H 	H 	0.5688	0.3659	0.1218	0.136
Mof_C 	C 	0.12973	0.81224	0.40048	-0.03
Mof_N 	N 	0.08772	0.81893	0.47171	-0.33
Mof_H 	H 	0.1143	0.7716	0.3641	-0.02
Mof_H 	H 	0.0688	0.8659	0.6218	0.201
Mof_C 	C 	0.37027	0.31224	0.09952	-0.035
Mof_N 	N 	0.41228	0.31893	0.02829	-0.4
Mof_H 	H 	0.3857	0.2716	0.1359	-0.009
Mof_H 	H 	0.4312	0.3659	0.8782	0.283
Mof_C 	C 	0.87027	0.81224	0.59952	-0.009
Mof_N 	N 	0.91228	0.81893	0.52829	-0.301
Mof_H 	H 	0.8857	0.7716	0.6359	0.011
Mof_H 	H 	0.9312	0.8659	0.3782	0.295
Mof_C 	C 	0.68776	0.90048	0.37027	-0.016
Mof_N 	N 	0.68107	0.97171	0.41228	-0.222
Mof_H 	H 	0.7284	0.8641	0.3857	-0.007
Mof_H 	H 	0.6341	0.1218	0.4312	0.135
Mof_C 	C 	0.18776	0.40048	0.87027	-0.021
Mof_N 	N 	0.18107	0.47171	0.91228	-0.292
Mof_H 	H 	0.2284	0.3641	0.8857	0.001
Mof_H 	H 	0.1341	0.6218	0.9312	0.231
Mof_C 	C 	0.68776	0.09952	0.62973	-0.03
Mof_N 	N 	0.68107	0.02829	0.58772	-0.399
Mof_H 	H 	0.7284	0.1359	0.6143	-0.007
Mof_H 	H 	0.6341	0.8782	0.5688	0.283
Mof_C 	C 	0.18776	0.59952	0.12973	-0.037
Mof_N 	N 	0.18107	0.52829	0.08772	-0.319
Mof_H 	H 	0.2284	0.6359	0.1143	-0.021
Mof_H 	H 	0.1341	0.3782	0.0688	0.111
Mof_C 	C 	0.31224	0.90048	0.62973	-0.016
Mof_N 	N 	0.31893	0.97171	0.58772	-0.222
Mof_H 	H 	0.2716	0.8641	0.6143	-0.006
Mof_H 	H 	0.3659	0.1218	0.5688	0.136
Mof_C 	C 	0.81224	0.40048	0.12973	-0.03
Mof_N 	N 	0.81893	0.47171	0.08772	-0.33
Mof_H 	H 	0.7716	0.3641	0.1143	-0.02
Mof_H 	H 	0.8659	0.6218	0.0688	0.201
Mof_C 	C 	0.31224	0.09952	0.37027	-0.035
Mof_N 	N 	0.31893	0.02829	0.41228	-0.4
Mof_H 	H 	0.2716	0.1359	0.3857	-0.009
Mof_H 	H 	0.3659	0.8782	0.4312	0.283
Mof_C 	C 	0.81224	0.59952	0.87027	-0.009
Mof_N 	N 	0.81893	0.52829	0.91228	-0.301
Mof_H 	H 	0.7716	0.6359	0.8857	0.011
Mof_H 	H 	0.8659	0.3782	0.9312	0.295
Mof_Zn	Zn	0.5	0	0.75	1.143
Mof_Zn	Zn	0.5	0	0.25	1.142
Mof_Zn	Zn	0.75	0.5	-0	1.143
Mof_Zn	Zn	0.25	0.5	-0	1.142
Mof_Zn	Zn	7.01753e-33	0.75	0.5	1.143
Mof_Zn	Zn	1.8747e-33	0.25	0.5	1.142
Mof_Zn	Zn	7.95488e-33	0.5	0.75	1.143
Mof_Zn	Zn	6.08018e-33	0.5	0.25	1.142
Mof_Zn	Zn	0.5	0.75	-0	1.143
Mof_Zn	Zn	0.5	0.25	-0	1.142
Mof_Zn	Zn	0.75	0	0.5	1.143
Mof_Zn	Zn	0.25	0	0.5	1.142
Mof_C 	C 	0.38079	0.0151	0.61921	0.01
Mof_C 	C 	0.40864	0.09237	0.59136	-0.518
Mof_H 	H 	0.44803	0.0841	0.55197	0.127
Mof_C 	C 	0.88079	0.5151	0.11921	0.234
Mof_C 	C 	0.90864	0.59237	0.09136	-0.761
Mof_H 	H 	0.94803	0.5841	0.05197	0.218
Mof_C 	C 	0.61921	0.9849	0.61921	0.453
Mof_C 	C 	0.59136	0.90763	0.59136	-0.981
Mof_H 	H 	0.55197	0.9159	0.55197	0.299
Mof_C 	C 	0.11921	0.4849	0.11921	0.145
Mof_C 	C 	0.09136	0.40763	0.09136	-0.535
Mof_H 	H 	0.05197	0.4159	0.05197	0.08
Mof_C 	C 	0.61921	0.0151	0.38079	0.01
Mof_C 	C 	0.59136	0.09237	0.40864	-0.518
Mof_H 	H 	0.55197	0.0841	0.44803	0.127
Mof_C 	C 	0.11921	0.5151	0.88079	0.234
Mof_C 	C 	0.09136	0.59237	0.90864	-0.761
Mof_H 	H 	0.05197	0.5841	0.94803	0.218
Mof_C 	C 	0.38079	0.9849	0.38079	0.451
Mof_C 	C 	0.40864	0.90763	0.40864	-0.98
Mof_H 	H 	0.44803	0.9159	0.44803	0.299
Mof_C 	C 	0.88079	0.4849	0.88079	0.31
Mof_C 	C 	0.90864	0.40763	0.90864	-0.942
Mof_H 	H 	0.94803	0.4159	0.94803	0.337
Mof_C 	C 	0.61921	0.38079	0.0151	0.01
Mof_C 	C 	0.59136	0.40864	0.09237	-0.518
Mof_H 	H 	0.55197	0.44803	0.0841	0.127
Mof_C 	C 	0.11921	0.88079	0.5151	0.234
Mof_C 	C 	0.09136	0.90864	0.59237	-0.761
Mof_H 	H 	0.05197	0.94803	0.5841	0.218
Mof_C 	C 	0.61921	0.61921	0.9849	0.453
Mof_C 	C 	0.59136	0.59136	0.90763	-0.981
Mof_H 	H 	0.55197	0.55197	0.9159	0.299
Mof_C 	C 	0.11921	0.11921	0.4849	0.145
Mof_C 	C 	0.09136	0.09136	0.40763	-0.535
Mof_H 	H 	0.05197	0.05197	0.4159	0.08
Mof_C 	C 	0.38079	0.61921	0.0151	0.01
Mof_C 	C 	0.40864	0.59136	0.09237	-0.518
Mof_H 	H 	0.44803	0.55197	0.0841	0.127
Mof_C 	C 	0.88079	0.11921	0.5151	0.234
Mof_C 	C 	0.90864	0.09136	0.59237	-0.761
Mof_H 	H 	0.94803	0.05197	0.5841	0.218
Mof_C 	C 	0.38079	0.38079	0.9849	0.451
Mof_C 	C 	0.40864	0.40864	0.90763	-0.98
Mof_H 	H 	0.44803	0.44803	0.9159	0.299
Mof_C 	C 	0.88079	0.88079	0.4849	0.31
Mof_C 	C 	0.90864	0.90864	0.40763	-0.942
Mof_H 	H 	0.94803	0.94803	0.4159	0.337
Mof_C 	C 	0.0151	0.61921	0.38079	0.01
Mof_C 	C 	0.09237	0.59136	0.40864	-0.518
Mof_H 	H 	0.0841	0.55197	0.44803	0.127
Mof_C 	C 	0.5151	0.11921	0.88079	0.234
Mof_C 	C 	0.59237	0.09136	0.90864	-0.761
Mof_H 	H 	0.5841	0.05197	0.94803	0.218
Mof_C 	C 	0.9849	0.61921	0.61921	0.453
Mof_C 	C 	0.90763	0.59136	0.59136	-0.981
Mof_H 	H 	0.9159	0.55197	0.55197	0.299
Mof_C 	C 	0.4849	0.11921	0.11921	0.145
Mof_C 	C 	0.40763	0.09136	0.09136	-0.535
Mof_H 	H 	0.4159	0.05197	0.05197	0.08
Mof_C 	C 	0.0151	0.38079	0.61921	0.01
Mof_C 	C 	0.09237	0.40864	0.59136	-0.518
Mof_H 	H 	0.0841	0.44803	0.55197	0.127
Mof_C 	C 	0.5151	0.88079	0.11921	0.234
Mof_C 	C 	0.59237	0.90864	0.09136	-0.761
Mof_H 	H 	0.5841	0.94803	0.05197	0.218
Mof_C 	C 	0.9849	0.38079	0.38079	0.451
Mof_C 	C 	0.90763	0.40864	0.40864	-0.98
Mof_H 	H 	0.9159	0.44803	0.44803	0.299
Mof_C 	C 	0.4849	0.88079	0.88079	0.31
Mof_C 	C 	0.40763	0.90864	0.90864	-0.942
Mof_H 	H 	0.4159	0.94803	0.94803	0.337
_end
