data_functionalizedCrystal
_audit_creation_method	'EQeq! by Chris Wilmer'
_symmetry_space_group_name_H-M	'P1'
_symmetry_Int_Tables_number	1
_symmetry_cell_setting	triclinic
loop_
_symmetry_equiv_pos_as_xyz
  x,y,z
_cell_length_a	9.9402
_cell_length_b	9.9402
_cell_length_c	15.69
_cell_angle_alpha	92.4662
_cell_angle_beta	92.4662
_cell_angle_gamma	97.1781
loop_
_atom_site_label
_atom_site_type_symbol
_atom_site_fract_x
_atom_site_fract_y
_atom_site_fract_z
_atom_site_charge
Mof_Pr	Pr	0.01058	0.98942	0.75	2.627
Mof_Pr	Pr	0.98942	0.01058	0.25	2.627
Mof_P 	P 	0.35683	0.04635	0.64161	0.337
Mof_P 	P 	0.64974	0.9774	0.65167	0.328
Mof_P 	P 	0.95365	0.64317	0.85839	0.339
Mof_P 	P 	0.0226	0.35026	0.84833	0.327
Mof_P 	P 	0.64317	0.95365	0.35839	0.336
Mof_P 	P 	0.35026	0.0226	0.34833	0.327
Mof_P 	P 	0.04635	0.35683	0.14161	0.338
Mof_P 	P 	0.9774	0.64974	0.15167	0.326
Mof_H 	H 	0.4301	0.8475	0.7207	0.192
Mof_H 	H 	0.9302	0.119	0.8873	0.379
Mof_H 	H 	0.8493	0.9855	0.8787	0.352
Mof_H 	H 	0.5496	0.1286	0.8306	0.171
Mof_H 	H 	0.6472	0.1766	0.7562	0.149
Mof_H 	H 	0.4966	0.2176	0.7566	0.172
Mof_H 	H 	0.1525	0.5699	0.7793	0.191
Mof_H 	H 	0.881	0.0698	0.6127	0.381
Mof_H 	H 	0.0145	0.1507	0.6213	0.36
Mof_H 	H 	0.8714	0.4504	0.6694	0.168
Mof_H 	H 	0.8234	0.3528	0.7438	0.147
Mof_H 	H 	0.7824	0.5034	0.7434	0.17
Mof_H 	H 	0.5699	0.1525	0.2793	0.192
Mof_H 	H 	0.0698	0.881	0.1127	0.379
Mof_H 	H 	0.1507	0.0145	0.1213	0.352
Mof_H 	H 	0.4504	0.8714	0.1694	0.171
Mof_H 	H 	0.3528	0.8234	0.2438	0.149
Mof_H 	H 	0.5034	0.7824	0.2434	0.172
Mof_H 	H 	0.8475	0.4301	0.2207	0.191
Mof_H 	H 	0.119	0.9302	0.3873	0.381
Mof_H 	H 	0.9855	0.8493	0.3787	0.36
Mof_H 	H 	0.1286	0.5496	0.3306	0.168
Mof_H 	H 	0.1766	0.6472	0.2562	0.147
Mof_H 	H 	0.2176	0.4966	0.2566	0.17
Mof_Ru	Ru	0.54469	0.11899	0.50338	0.829
Mof_Ru	Ru	0.88101	0.45531	0.99662	0.837
Mof_Ru	Ru	0.45531	0.88101	0.49662	0.829
Mof_Ru	Ru	0.11899	0.54469	0.00338	0.837
Mof_C 	C 	0.5013	0.0187	0.7173	0.187
Mof_C 	C 	0.5533	0.1465	0.7698	-0.498
Mof_C 	C 	0.9813	0.4987	0.7827	0.183
Mof_C 	C 	0.8535	0.4467	0.7302	-0.495
Mof_C 	C 	0.4987	0.9813	0.2827	0.187
Mof_C 	C 	0.4467	0.8535	0.2302	-0.498
Mof_C 	C 	0.0187	0.5013	0.2173	0.183
Mof_C 	C 	0.1465	0.5533	0.2698	-0.495
Mof_O 	O 	0.4072	0.1688	0.5912	-0.368
Mof_O 	O 	0.3057	0.9051	0.5804	-0.383
Mof_O 	O 	0.237	0.0768	0.6987	-0.469
Mof_O 	O 	0.6882	0.1016	0.5959	-0.423
Mof_O 	O 	0.5847	0.8433	0.5971	-0.364
Mof_O 	O 	0.7562	0.9374	0.7222	-0.449
Mof_O 	O 	0.4603	0.9181	0.7556	-0.411
Mof_O 	O 	0.9319	0.0317	0.8766	-1.04
Mof_O 	O 	0.8312	0.5928	0.9088	-0.37
Mof_O 	O 	0.0949	0.6943	0.9196	-0.39
Mof_O 	O 	0.9232	0.763	0.8013	-0.47
Mof_O 	O 	0.8984	0.3118	0.9041	-0.421
Mof_O 	O 	0.1567	0.4153	0.9029	-0.367
Mof_O 	O 	0.0626	0.2438	0.7778	-0.448
Mof_O 	O 	0.0819	0.5397	0.7444	-0.407
Mof_O 	O 	0.9683	0.0681	0.6234	-1.051
Mof_O 	O 	0.5928	0.8312	0.4088	-0.368
Mof_O 	O 	0.6943	0.0949	0.4196	-0.383
Mof_O 	O 	0.763	0.9232	0.3013	-0.469
Mof_O 	O 	0.3118	0.8984	0.4041	-0.423
Mof_O 	O 	0.4153	0.1567	0.4029	-0.364
Mof_O 	O 	0.2438	0.0626	0.2778	-0.449
Mof_O 	O 	0.5397	0.0819	0.2444	-0.411
Mof_O 	O 	0.0681	0.9683	0.1234	-1.04
Mof_O 	O 	0.1688	0.4072	0.0912	-0.37
Mof_O 	O 	0.9051	0.3057	0.0804	-0.39
Mof_O 	O 	0.0768	0.237	0.1987	-0.47
Mof_O 	O 	0.1016	0.6882	0.0959	-0.421
Mof_O 	O 	0.8433	0.5847	0.0971	-0.367
Mof_O 	O 	0.9374	0.7562	0.2222	-0.448
Mof_O 	O 	0.9181	0.4603	0.2556	-0.407
Mof_O 	O 	0.0317	0.9319	0.3766	-1.051
_end
