data_functionalizedCrystal
_audit_creation_method	'EQeq! by Chris Wilmer'
_symmetry_space_group_name_H-M	'P1'
_symmetry_Int_Tables_number	1
_symmetry_cell_setting	triclinic
loop_
_symmetry_equiv_pos_as_xyz
  x,y,z
_cell_length_a	10.6978
_cell_length_b	13.4912
_cell_length_c	14.3843
_cell_angle_alpha	76.7708
_cell_angle_beta	68.1699
_cell_angle_gamma	66.6422
loop_
_atom_site_label
_atom_site_type_symbol
_atom_site_fract_x
_atom_site_fract_y
_atom_site_fract_z
_atom_site_charge
Mof_Mn	Mn	0.85709	0.03911	0.10951	0.851
Mof_Mn	Mn	0.50571	0.46089	0.39049	0.873
Mof_Mn	Mn	0.14291	0.96089	0.89049	0.851
Mof_Mn	Mn	0.49429	0.53911	0.60951	0.873
Mof_Mn	Mn	0.78202	0.25	0.25	0.99
Mof_Mn	Mn	0.21798	0.75	0.75	0.99
Mof_H 	H 	0.2012	0.1814	0.8466	0.059
Mof_H 	H 	0.2971	0.3134	0.7526	0.045
Mof_H 	H 	0.9544	0.5416	0.9076	0.042
Mof_H 	H 	0.8646	0.4089	0.0093	0.056
Mof_H 	H 	0.5452	0.1616	0.4482	0.044
Mof_H 	H 	0.5794	0.8753	0.3851	0.049
Mof_H 	H 	0.7292	0.3186	0.6534	0.046
Mof_H 	H 	0.8631	0.1866	0.7474	0.053
Mof_H 	H 	0.9036	0.9584	0.5924	0.06
Mof_H 	H 	0.7828	0.0911	0.4907	0.039
Mof_H 	H 	0.655	0.3384	0.0518	0.044
Mof_H 	H 	0.3398	0.6247	0.1149	0.049
Mof_H 	H 	0.7988	0.8186	0.1534	0.059
Mof_H 	H 	0.7029	0.6866	0.2474	0.045
Mof_H 	H 	0.0456	0.4584	0.0924	0.042
Mof_H 	H 	0.1354	0.5911	0.9907	0.056
Mof_H 	H 	0.4548	0.8384	0.5518	0.044
Mof_H 	H 	0.4206	0.1247	0.6149	0.049
Mof_H 	H 	0.2708	0.6814	0.3466	0.046
Mof_H 	H 	0.1369	0.8134	0.2526	0.053
Mof_H 	H 	0.0964	0.0416	0.4076	0.06
Mof_H 	H 	0.2172	0.9089	0.5093	0.039
Mof_H 	H 	0.345	0.6616	0.9482	0.044
Mof_H 	H 	0.6602	0.3753	0.8851	0.049
Mof_C 	C 	0.9681	0.19554	0.00406	0.342
Mof_C 	C 	0.0248	0.28152	0.93908	-0.064
Mof_C 	C 	0.153	0.25335	0.86065	-0.036
Mof_C 	C 	0.20908	0.33287	0.80317	0
Mof_C 	C 	0.1352	0.4407	0.8205	-0.095
Mof_C 	C 	0.00546	0.469	0.89668	0.007
Mof_C 	C 	0.95072	0.38954	0.95702	-0.043
Mof_C 	C 	0.2007	0.52544	0.76016	0.379
Mof_C 	C 	0.66048	0.04433	0.29371	0.34
Mof_C 	C 	0.57578	0.02198	0.40026	-0.079
Mof_C 	C 	0.52731	0.09662	0.46896	-0.021
Mof_C 	C 	0.54784	0.9253	0.43122	-0.018
Mof_C 	C 	0.6677	0.30446	0.49594	0.373
Mof_C 	C 	0.7454	0.21848	0.56092	-0.105
Mof_C 	C 	0.767	0.24665	0.63935	-0.005
Mof_C 	C 	0.84512	0.16713	0.69683	-0.028
Mof_C 	C 	0.8964	0.0593	0.6795	-0.068
Mof_C 	C 	0.87114	0.031	0.60332	-0.037
Mof_C 	C 	0.79728	0.11046	0.54298	0.002
Mof_C 	C 	0.9863	0.97456	0.73984	0.361
Mof_C 	C 	0.49852	0.45567	0.20629	0.348
Mof_C 	C 	0.49802	0.47802	0.09974	-0.08
Mof_C 	C 	0.59289	0.40338	0.03104	-0.021
Mof_C 	C 	0.40436	0.5747	0.06878	-0.018
Mof_C 	C 	0.0319	0.80446	0.99594	0.342
Mof_C 	C 	0.9752	0.71848	0.06092	-0.064
Mof_C 	C 	0.847	0.74665	0.13935	-0.036
Mof_C 	C 	0.79092	0.66713	0.19683	0
Mof_C 	C 	0.8648	0.5593	0.1795	-0.095
Mof_C 	C 	0.99454	0.531	0.10332	0.007
Mof_C 	C 	0.04928	0.61046	0.04298	-0.043
Mof_C 	C 	0.7993	0.47456	0.23984	0.379
Mof_C 	C 	0.33952	0.95567	0.70629	0.34
Mof_C 	C 	0.42422	0.97802	0.59974	-0.079
Mof_C 	C 	0.47269	0.90338	0.53104	-0.021
Mof_C 	C 	0.45216	0.0747	0.56878	-0.018
Mof_C 	C 	0.3323	0.69554	0.50406	0.373
Mof_C 	C 	0.2546	0.78152	0.43908	-0.105
Mof_C 	C 	0.233	0.75335	0.36065	-0.005
Mof_C 	C 	0.15488	0.83287	0.30317	-0.028
Mof_C 	C 	0.1036	0.9407	0.3205	-0.068
Mof_C 	C 	0.12886	0.969	0.39668	-0.037
Mof_C 	C 	0.20272	0.88954	0.45702	0.002
Mof_C 	C 	0.0137	0.02544	0.26016	0.361
Mof_C 	C 	0.50148	0.54433	0.79371	0.348
Mof_C 	C 	0.50198	0.52198	0.90026	-0.08
Mof_C 	C 	0.40711	0.59662	0.96896	-0.021
Mof_C 	C 	0.59564	0.4253	0.93122	-0.018
Mof_O 	O 	0.01819	0.10117	0.97605	-0.415
Mof_O 	O 	0.8682	0.21652	0.08628	-0.411
Mof_O 	O 	0.1371	0.62139	0.78361	-0.385
Mof_O 	O 	0.31743	0.49158	0.69196	-0.389
Mof_O 	O 	0.68073	0.13362	0.26552	-0.404
Mof_O 	O 	0.70983	0.97267	0.23447	-0.352
Mof_O 	O 	0.59541	0.39883	0.52395	-0.436
Mof_O 	O 	0.671	0.28348	0.41372	-0.419
Mof_O 	O 	0.0421	0.87861	0.71639	-0.382
Mof_O 	O 	0.00097	0.00842	0.80804	-0.373
Mof_O 	O 	0.57987	0.36638	0.23448	-0.407
Mof_O 	O 	0.41697	0.52733	0.26553	-0.361
Mof_O 	O 	0.98181	0.89883	0.02395	-0.415
Mof_O 	O 	0.1318	0.78348	0.91372	-0.411
Mof_O 	O 	0.8629	0.37861	0.21639	-0.385
Mof_O 	O 	0.68257	0.50842	0.30804	-0.389
Mof_O 	O 	0.31927	0.86638	0.73448	-0.404
Mof_O 	O 	0.29017	0.02733	0.76553	-0.352
Mof_O 	O 	0.40459	0.60117	0.47605	-0.436
Mof_O 	O 	0.329	0.71652	0.58628	-0.419
Mof_O 	O 	0.9579	0.12139	0.28361	-0.382
Mof_O 	O 	0.99903	0.99158	0.19196	-0.373
Mof_O 	O 	0.42013	0.63362	0.76552	-0.407
Mof_O 	O 	0.58303	0.47267	0.73447	-0.361
_end
