data_functionalizedCrystal
_audit_creation_method	'EQeq! by Chris Wilmer'
_symmetry_space_group_name_H-M	'P1'
_symmetry_Int_Tables_number	1
_symmetry_cell_setting	triclinic
loop_
_symmetry_equiv_pos_as_xyz
  x,y,z
_cell_length_a	10.4005
_cell_length_b	10.6486
_cell_length_c	13.6321
_cell_angle_alpha	105.307
_cell_angle_beta	93.835
_cell_angle_gamma	108.935
loop_
_atom_site_label
_atom_site_type_symbol
_atom_site_fract_x
_atom_site_fract_y
_atom_site_fract_z
_atom_site_charge
Mof_Er	Er	0.47639	0.41994	0.81192	1.491
Mof_Er	Er	0.01863	0.05028	0.18658	1.762
Mof_Er	Er	0.52361	0.58006	0.18808	1.492
Mof_Er	Er	0.98137	0.94972	0.81342	1.763
Mof_H 	H 	0.6871	0.1769	0.1103	0.033
Mof_H 	H 	0.7981	0.3146	0.9184	0.017
Mof_H 	H 	0.0996	0.2376	0.5712	0.025
Mof_H 	H 	0.3129	0.8231	0.8897	0.033
Mof_H 	H 	0.2019	0.6854	0.0816	0.017
Mof_H 	H 	0.9004	0.7624	0.4288	0.025
Mof_C 	C 	0.5202	0.8912	0.9273	-0.051
Mof_C 	C 	0.6332	0.9988	0.9944	-0.123
Mof_C 	C 	0.6119	0.1055	0.0658	0.024
Mof_C 	C 	0.5306	0.766	0.8492	0.341
Mof_C 	C 	0.7769	0.0004	0.9904	0.493
Mof_C 	C 	0.9943	0.6272	0.0582	-0.036
Mof_C 	C 	0.8722	0.5133	0.0089	-0.108
Mof_C 	C 	0.8791	0.3889	0.9513	-0.002
Mof_C 	C 	0.9903	0.7684	0.1096	0.308
Mof_C 	C 	0.7329	0.5217	0.0262	0.471
Mof_C 	C 	0.0938	0.0566	0.5925	-0.131
Mof_C 	C 	0.059	0.1415	0.5424	0.016
Mof_C 	C 	0.0345	0.9113	0.5496	-0.082
Mof_C 	C 	0.1978	0.1261	0.6896	0.432
Mof_C 	C 	0.0662	0.8077	0.5948	0.365
Mof_C 	C 	0.4798	0.1088	0.0727	-0.051
Mof_C 	C 	0.3668	0.0012	0.0056	-0.123
Mof_C 	C 	0.3881	0.8945	0.9342	0.024
Mof_C 	C 	0.4694	0.234	0.1508	0.341
Mof_C 	C 	0.2231	0.9996	0.0096	0.493
Mof_C 	C 	0.0057	0.3728	0.9418	-0.036
Mof_C 	C 	0.1278	0.4867	0.9911	-0.108
Mof_C 	C 	0.1209	0.6111	0.0487	-0.002
Mof_C 	C 	0.0097	0.2316	0.8904	0.308
Mof_C 	C 	0.2671	0.4783	0.9738	0.471
Mof_C 	C 	0.9062	0.9434	0.4075	-0.131
Mof_C 	C 	0.941	0.8585	0.4576	0.016
Mof_C 	C 	0.9655	0.0887	0.4504	-0.082
Mof_C 	C 	0.8022	0.8739	0.3104	0.432
Mof_C 	C 	0.9338	0.1923	0.4052	0.365
Mof_O 	O 	0.861	0.0616	0.0736	-0.511
Mof_O 	O 	0.8047	0.9445	0.9064	-0.531
Mof_O 	O 	0.539	0.6691	0.883	-0.419
Mof_O 	O 	0.5195	0.7633	0.7568	-0.309
Mof_O 	O 	0.644	0.4901	0.9487	-0.529
Mof_O 	O 	0.7144	0.5545	0.1172	-0.465
Mof_O 	O 	0.9221	0.8168	0.0596	-0.386
Mof_O 	O 	0.0611	0.8409	0.1971	-0.405
Mof_O 	O 	0.1799	0.0763	0.7636	-0.47
Mof_O 	O 	0.298	0.2326	0.6923	-0.483
Mof_O 	O 	0.0324	0.7989	0.68	-0.471
Mof_O 	O 	0.1166	0.7301	0.5393	-0.267
Mof_O 	O 	0.139	0.9384	0.9264	-0.511
Mof_O 	O 	0.1953	0.0555	0.0936	-0.531
Mof_O 	O 	0.461	0.3309	0.117	-0.419
Mof_O 	O 	0.4805	0.2367	0.2432	-0.309
Mof_O 	O 	0.356	0.5099	0.0513	-0.529
Mof_O 	O 	0.2856	0.4455	0.8828	-0.465
Mof_O 	O 	0.0779	0.1832	0.9404	-0.386
Mof_O 	O 	0.9389	0.1591	0.8029	-0.405
Mof_O 	O 	0.8201	0.9237	0.2364	-0.47
Mof_O 	O 	0.702	0.7674	0.3077	-0.483
Mof_O 	O 	0.9676	0.2011	0.32	-0.471
Mof_O 	O 	0.8834	0.2699	0.4607	-0.267
_end
