data_functionalizedCrystal
_audit_creation_method	'EQeq! by Chris Wilmer'
_symmetry_space_group_name_H-M	'P1'
_symmetry_Int_Tables_number	1
_symmetry_cell_setting	triclinic
loop_
_symmetry_equiv_pos_as_xyz
  x,y,z
_cell_length_a	22.839
_cell_length_b	22.839
_cell_length_c	33.078
_cell_angle_alpha	90
_cell_angle_beta	90
_cell_angle_gamma	90
loop_
_atom_site_label
_atom_site_type_symbol
_atom_site_fract_x
_atom_site_fract_y
_atom_site_fract_z
_atom_site_charge
Mof_Zn	Zn	0.42361	0.041	0.60736	1.188
Mof_Na	Na	0.46916	0.93363	0.55716	2.537
Mof_Na	Na	0.46039	0.89118	0.4572	2.394
Mof_C 	C 	0.8064	0.2693	0.34576	-0.119
Mof_C 	C 	0.774	0.272	0.38337	-0.03
Mof_H 	H 	0.7387	0.2524	0.3866	0.07
Mof_C 	C 	0.7983	0.3055	0.41451	0.03
Mof_C 	C 	0.8515	0.3338	0.40965	0.061
Mof_H 	H 	0.8667	0.3562	0.4307	-0.082
Mof_C 	C 	0.8827	0.3291	0.3734	-0.24
Mof_C 	C 	0.8589	0.2987	0.34205	0.116
Mof_H 	H 	0.8786	0.2978	0.3175	-0.005
Mof_C 	C 	0.51093	0.08855	0.50124	-0.202
Mof_C 	C 	0.5529	0.1309	0.49456	0.002
Mof_H 	H 	0.5641	0.1558	0.5154	0.054
Mof_C 	C 	0.5782	0.1364	0.4572	0.038
Mof_C 	C 	0.5609	0.0965	0.42599	0.039
Mof_H 	H 	0.5789	0.0984	0.4008	0.02
Mof_C 	C 	0.51774	0.05533	0.43282	-0.267
Mof_C 	C 	0.49352	0.05167	0.47017	0.183
Mof_H 	H 	0.4646	0.0239	0.475	-0.122
Mof_C 	C 	0.50164	0.01575	0.39858	0.568
Mof_C 	C 	0.48526	0.0851	0.544	0.46
Mof_C 	C 	0.93992	0.3619	0.36769	0.594
Mof_C 	C 	0.779	0.2365	0.31096	0.371
Mof_C 	C 	0.7259	0.2811	0.46992	0.179
Mof_C 	C 	0.6556	0.2133	0.46964	0.199
Mof_C 	C 	0.6772	0.2613	0.52704	0.204
Mof_C 	C 	0.8303	0.3905	0.61522	0.471
Mof_C 	C 	0.7683	0.3654	0.61989	-0.085
Mof_C 	C 	0.7328	0.3825	0.65429	-0.021
Mof_H 	H 	0.7491	0.4053	0.6747	0.065
Mof_C 	C 	0.6783	0.3661	0.6567	-0.004
Mof_C 	C 	0.7434	0.3315	0.59094	-0.086
Mof_H 	H 	0.7657	0.3228	0.5682	0.066
Mof_C 	C 	0.6551	0.3318	0.6236	-0.133
Mof_H 	H 	0.615	0.3249	0.6233	0.094
Mof_C 	C 	0.6873	0.3088	0.59284	0.144
Mof_C 	C 	0.6346	0.3845	0.6884	0.251
Mof_N 	N 	0.7729	0.3102	0.4532	-0.207
Mof_H 	H 	0.7894	0.3352	0.4689	0.078
Mof_N 	N 	0.718	0.2934	0.50997	-0.185
Mof_N 	N 	0.6984	0.2404	0.44836	-0.169
Mof_N 	N 	0.6211	0.1795	0.44574	-0.22
Mof_H 	H 	0.6255	0.1845	0.4202	0.138
Mof_N 	N 	0.64059	0.2236	0.5075	-0.174
Mof_N 	N 	0.6629	0.2713	0.56602	-0.249
Mof_H 	H 	0.6341	0.2508	0.5751	0.147
Mof_O 	O 	0.52638	0.0224	0.3658	-0.675
Mof_O 	O 	0.5383	0.91672	0.50575	-0.783
Mof_O 	O 	0.46519	0.97558	0.40521	-0.757
Mof_O 	O 	0.4947	0.8414	0.5882	-0.691
Mof_H 	H 	0.4883	0.8146	0.5722	0.232
Mof_O 	O 	0.49266	0.12199	0.569	-0.375
Mof_O 	O 	0.3918	0.93392	0.50197	-0.72
Mof_O 	O 	0.45387	0.03953	0.55013	-0.732
Mof_O 	O 	0.96894	0.35395	0.33573	-0.73
Mof_O 	O 	0.95904	0.38938	0.39758	-0.805
Mof_O 	O 	0.85295	0.41121	0.64639	-0.511
Mof_O 	O 	0.85262	0.39018	0.58153	-0.726
Mof_O 	O 	0.737	0.2086	0.31607	-0.269
Mof_O 	O 	0.8082	0.239	0.28002	-0.242
Mof_O 	O 	0.5875	0.3614	0.69406	-0.201
Mof_O 	O 	0.6619	0.4141	0.7178	-0.178
Mof_Zn	Zn	0.57639	0.959	0.10736	1.189
Mof_Na	Na	0.53084	0.06637	0.05716	2.54
Mof_Na	Na	0.53961	0.10882	0.9572	2.392
Mof_C 	C 	0.1936	0.7307	0.84576	-0.118
Mof_C 	C 	0.226	0.728	0.88337	-0.03
Mof_H 	H 	0.2613	0.7476	0.8866	0.07
Mof_C 	C 	0.2017	0.6945	0.91451	0.03
Mof_C 	C 	0.1485	0.6662	0.90965	0.061
Mof_H 	H 	0.1333	0.6438	0.9307	-0.082
Mof_C 	C 	0.1173	0.6709	0.8734	-0.24
Mof_C 	C 	0.1411	0.7013	0.84205	0.116
Mof_H 	H 	0.1214	0.7022	0.8175	-0.005
Mof_C 	C 	0.48907	0.91145	0.00124	-0.206
Mof_C 	C 	0.4471	0.8691	0.99456	0.006
Mof_H 	H 	0.4359	0.8442	0.0154	0.052
Mof_C 	C 	0.4218	0.8636	0.9572	0.036
Mof_C 	C 	0.4391	0.9035	0.92599	0.041
Mof_H 	H 	0.4211	0.9016	0.9008	0.02
Mof_C 	C 	0.48226	0.94467	0.93282	-0.269
Mof_C 	C 	0.50648	0.94833	0.97017	0.186
Mof_H 	H 	0.5354	0.9761	0.975	-0.123
Mof_C 	C 	0.49836	0.98425	0.89858	0.569
Mof_C 	C 	0.51474	0.9149	0.044	0.461
Mof_C 	C 	0.06008	0.6381	0.86769	0.594
Mof_C 	C 	0.221	0.7635	0.81096	0.371
Mof_C 	C 	0.2741	0.7189	0.96992	0.18
Mof_C 	C 	0.3444	0.7867	0.96964	0.199
Mof_C 	C 	0.3228	0.7387	0.02704	0.204
Mof_C 	C 	0.1697	0.6095	0.11522	0.471
Mof_C 	C 	0.2317	0.6346	0.11989	-0.085
Mof_C 	C 	0.2672	0.6175	0.15429	-0.021
Mof_H 	H 	0.2509	0.5947	0.1747	0.065
Mof_C 	C 	0.3217	0.6339	0.1567	-0.004
Mof_C 	C 	0.2566	0.6685	0.09094	-0.086
Mof_H 	H 	0.2343	0.6772	0.0682	0.066
Mof_C 	C 	0.3449	0.6682	0.1236	-0.133
Mof_H 	H 	0.385	0.6751	0.1233	0.094
Mof_C 	C 	0.3127	0.6912	0.09284	0.144
Mof_C 	C 	0.3654	0.6155	0.1884	0.251
Mof_N 	N 	0.2271	0.6898	0.9532	-0.207
Mof_H 	H 	0.2106	0.6648	0.9689	0.079
Mof_N 	N 	0.282	0.7066	0.00997	-0.186
Mof_N 	N 	0.3016	0.7596	0.94836	-0.169
Mof_N 	N 	0.3789	0.8205	0.94574	-0.22
Mof_H 	H 	0.3745	0.8155	0.9202	0.138
Mof_N 	N 	0.35941	0.7764	0.0075	-0.174
Mof_N 	N 	0.3371	0.7287	0.06602	-0.249
Mof_H 	H 	0.3659	0.7492	0.0751	0.147
Mof_O 	O 	0.47362	0.9776	0.8658	-0.676
Mof_O 	O 	0.4617	0.08328	0.00575	-0.783
Mof_O 	O 	0.53481	0.02442	0.90521	-0.757
Mof_O 	O 	0.5053	0.1586	0.0882	-0.691
Mof_H 	H 	0.5117	0.1854	0.0722	0.232
Mof_O 	O 	0.50734	0.87801	0.069	-0.376
Mof_O 	O 	0.6082	0.06608	0.00197	-0.72
Mof_O 	O 	0.54613	0.96047	0.05013	-0.733
Mof_O 	O 	0.03106	0.64605	0.83573	-0.729
Mof_O 	O 	0.04096	0.61062	0.89758	-0.805
Mof_O 	O 	0.14705	0.58879	0.14639	-0.511
Mof_O 	O 	0.14738	0.60982	0.08153	-0.725
Mof_O 	O 	0.263	0.7914	0.81607	-0.269
Mof_O 	O 	0.1918	0.761	0.78002	-0.242
Mof_O 	O 	0.4125	0.6386	0.19406	-0.201
Mof_O 	O 	0.3381	0.5859	0.2178	-0.178
Mof_Zn	Zn	0.459	0.92361	0.35736	1.189
Mof_Na	Na	0.56637	0.96916	0.30716	2.537
Mof_Na	Na	0.60882	0.96039	0.2072	2.393
Mof_C 	C 	0.2307	0.3064	0.09576	-0.118
Mof_C 	C 	0.228	0.274	0.13337	-0.029
Mof_H 	H 	0.2476	0.2387	0.1366	0.07
Mof_C 	C 	0.1945	0.2983	0.16451	0.03
Mof_C 	C 	0.1662	0.3515	0.15965	0.061
Mof_H 	H 	0.1438	0.3667	0.1807	-0.082
Mof_C 	C 	0.1709	0.3827	0.1234	-0.24
Mof_C 	C 	0.2013	0.3589	0.09205	0.116
Mof_H 	H 	0.2022	0.3786	0.0675	-0.006
Mof_C 	C 	0.41145	0.01093	0.25124	-0.201
Mof_C 	C 	0.3691	0.0529	0.24456	0.001
Mof_H 	H 	0.3442	0.0641	0.2654	0.055
Mof_C 	C 	0.3636	0.0782	0.2072	0.039
Mof_C 	C 	0.4035	0.0609	0.17599	0.038
Mof_H 	H 	0.4016	0.0789	0.1508	0.02
Mof_C 	C 	0.44467	0.01774	0.18282	-0.266
Mof_C 	C 	0.44833	0.99352	0.22017	0.181
Mof_H 	H 	0.4761	0.9646	0.225	-0.122
Mof_C 	C 	0.48425	0.00164	0.14858	0.569
Mof_C 	C 	0.4149	0.98526	0.294	0.459
Mof_C 	C 	0.1381	0.43992	0.11769	0.594
Mof_C 	C 	0.2635	0.279	0.06096	0.371
Mof_C 	C 	0.2189	0.2259	0.21992	0.179
Mof_C 	C 	0.2867	0.1556	0.21964	0.199
Mof_C 	C 	0.2387	0.1772	0.27704	0.204
Mof_C 	C 	0.1095	0.3303	0.36522	0.471
Mof_C 	C 	0.1346	0.2683	0.36989	-0.085
Mof_C 	C 	0.1175	0.2328	0.40429	-0.021
Mof_H 	H 	0.0947	0.2491	0.4247	0.065
Mof_C 	C 	0.1339	0.1783	0.4067	-0.004
Mof_C 	C 	0.1685	0.2434	0.34094	-0.086
Mof_H 	H 	0.1772	0.2657	0.3182	0.066
Mof_C 	C 	0.1682	0.1551	0.3736	-0.133
Mof_H 	H 	0.1751	0.115	0.3733	0.094
Mof_C 	C 	0.1912	0.1873	0.34284	0.144
Mof_C 	C 	0.1155	0.1346	0.4384	0.251
Mof_N 	N 	0.1898	0.2729	0.2032	-0.207
Mof_H 	H 	0.1648	0.2894	0.2189	0.078
Mof_N 	N 	0.2066	0.218	0.25997	-0.185
Mof_N 	N 	0.2596	0.1984	0.19836	-0.169
Mof_N 	N 	0.3205	0.1211	0.19574	-0.22
Mof_H 	H 	0.3155	0.1255	0.1702	0.138
Mof_N 	N 	0.2764	0.14059	0.2575	-0.174
Mof_N 	N 	0.2287	0.1629	0.31602	-0.249
Mof_H 	H 	0.2492	0.1341	0.3251	0.147
Mof_O 	O 	0.4776	0.02638	0.1158	-0.676
Mof_O 	O 	0.58328	0.0383	0.25575	-0.782
Mof_O 	O 	0.52442	0.96519	0.15521	-0.757
Mof_O 	O 	0.6586	0.9947	0.3382	-0.691
Mof_H 	H 	0.6854	0.9883	0.3222	0.232
Mof_O 	O 	0.37801	0.99266	0.319	-0.375
Mof_O 	O 	0.56608	0.8918	0.25197	-0.72
Mof_O 	O 	0.46047	0.95387	0.30013	-0.732
Mof_O 	O 	0.14605	0.46894	0.08573	-0.73
Mof_O 	O 	0.11062	0.45904	0.14758	-0.805
Mof_O 	O 	0.08879	0.35295	0.39639	-0.511
Mof_O 	O 	0.10982	0.35262	0.33153	-0.725
Mof_O 	O 	0.2914	0.237	0.06607	-0.27
Mof_O 	O 	0.261	0.3082	0.03002	-0.242
Mof_O 	O 	0.1386	0.0875	0.44406	-0.201
Mof_O 	O 	0.0859	0.1619	0.4678	-0.178
Mof_Zn	Zn	0.541	0.07639	0.85736	1.189
Mof_Na	Na	0.43363	0.03084	0.80716	2.537
Mof_Na	Na	0.39118	0.03961	0.7072	2.394
Mof_C 	C 	0.7693	0.6936	0.59576	-0.118
Mof_C 	C 	0.772	0.726	0.63337	-0.029
Mof_H 	H 	0.7524	0.7613	0.6366	0.07
Mof_C 	C 	0.8055	0.7017	0.66451	0.03
Mof_C 	C 	0.8338	0.6485	0.65965	0.061
Mof_H 	H 	0.8562	0.6333	0.6807	-0.082
Mof_C 	C 	0.8291	0.6173	0.6234	-0.24
Mof_C 	C 	0.7987	0.6411	0.59205	0.116
Mof_H 	H 	0.7978	0.6214	0.5675	-0.006
Mof_C 	C 	0.58855	0.98907	0.75124	-0.201
Mof_C 	C 	0.6309	0.9471	0.74456	0.001
Mof_H 	H 	0.6558	0.9359	0.7654	0.055
Mof_C 	C 	0.6364	0.9218	0.7072	0.039
Mof_C 	C 	0.5965	0.9391	0.67599	0.038
Mof_H 	H 	0.5984	0.9211	0.6508	0.02
Mof_C 	C 	0.55533	0.98226	0.68282	-0.266
Mof_C 	C 	0.55167	0.00648	0.72017	0.182
Mof_H 	H 	0.5239	0.0354	0.725	-0.122
Mof_C 	C 	0.51575	0.99836	0.64858	0.568
Mof_C 	C 	0.5851	0.01474	0.794	0.459
Mof_C 	C 	0.8619	0.56008	0.61769	0.594
Mof_C 	C 	0.7365	0.721	0.56096	0.371
Mof_C 	C 	0.7811	0.7741	0.71992	0.179
Mof_C 	C 	0.7133	0.8444	0.71964	0.199
Mof_C 	C 	0.7613	0.8228	0.77704	0.204
Mof_C 	C 	0.8905	0.6697	0.86522	0.471
Mof_C 	C 	0.8654	0.7317	0.86989	-0.085
Mof_C 	C 	0.8825	0.7672	0.90429	-0.021
Mof_H 	H 	0.9053	0.7509	0.9247	0.065
Mof_C 	C 	0.8661	0.8217	0.9067	-0.004
Mof_C 	C 	0.8315	0.7566	0.84094	-0.086
Mof_H 	H 	0.8228	0.7343	0.8182	0.066
Mof_C 	C 	0.8318	0.8449	0.8736	-0.133
Mof_H 	H 	0.8249	0.885	0.8733	0.094
Mof_C 	C 	0.8088	0.8127	0.84284	0.144
Mof_C 	C 	0.8845	0.8654	0.9384	0.251
Mof_N 	N 	0.8102	0.7271	0.7032	-0.207
Mof_H 	H 	0.8352	0.7106	0.7189	0.078
Mof_N 	N 	0.7934	0.782	0.75997	-0.185
Mof_N 	N 	0.7404	0.8016	0.69836	-0.169
Mof_N 	N 	0.6795	0.8789	0.69574	-0.22
Mof_H 	H 	0.6845	0.8745	0.6702	0.138
Mof_N 	N 	0.7236	0.85941	0.7575	-0.174
Mof_N 	N 	0.7713	0.8371	0.81602	-0.249
Mof_H 	H 	0.7508	0.8659	0.8251	0.147
Mof_O 	O 	0.5224	0.97362	0.6158	-0.676
Mof_O 	O 	0.41672	0.9617	0.75575	-0.782
Mof_O 	O 	0.47558	0.03481	0.65521	-0.757
Mof_O 	O 	0.3414	0.0053	0.8382	-0.691
Mof_H 	H 	0.3146	0.0117	0.8222	0.232
Mof_O 	O 	0.62199	0.00734	0.819	-0.375
Mof_O 	O 	0.43392	0.1082	0.75197	-0.72
Mof_O 	O 	0.53953	0.04613	0.80013	-0.732
Mof_O 	O 	0.85395	0.53106	0.58573	-0.73
Mof_O 	O 	0.88938	0.54096	0.64758	-0.805
Mof_O 	O 	0.91121	0.64705	0.89639	-0.511
Mof_O 	O 	0.89018	0.64738	0.83153	-0.725
Mof_O 	O 	0.7086	0.763	0.56607	-0.27
Mof_O 	O 	0.739	0.6918	0.53002	-0.242
Mof_O 	O 	0.8614	0.9125	0.94406	-0.201
Mof_O 	O 	0.9141	0.8381	0.9678	-0.178
Mof_Zn	Zn	0.07639	0.541	0.14264	1.189
Mof_Na	Na	0.03084	0.43363	0.19284	2.537
Mof_Na	Na	0.03961	0.39118	0.2928	2.394
Mof_C 	C 	0.6936	0.7693	0.40424	-0.118
Mof_C 	C 	0.726	0.772	0.36663	-0.029
Mof_H 	H 	0.7613	0.7524	0.3634	0.07
Mof_C 	C 	0.7017	0.8055	0.33549	0.03
Mof_C 	C 	0.6485	0.8338	0.34035	0.061
Mof_H 	H 	0.6333	0.8562	0.3193	-0.082
Mof_C 	C 	0.6173	0.8291	0.3766	-0.24
Mof_C 	C 	0.6411	0.7987	0.40795	0.116
Mof_H 	H 	0.6214	0.7978	0.4325	-0.006
Mof_C 	C 	0.98907	0.58855	0.24876	-0.201
Mof_C 	C 	0.9471	0.6309	0.25544	0.001
Mof_H 	H 	0.9359	0.6558	0.2346	0.055
Mof_C 	C 	0.9218	0.6364	0.2928	0.039
Mof_C 	C 	0.9391	0.5965	0.32401	0.038
Mof_H 	H 	0.9211	0.5984	0.3492	0.02
Mof_C 	C 	0.98226	0.55533	0.31718	-0.266
Mof_C 	C 	0.00648	0.55167	0.27983	0.182
Mof_H 	H 	0.0354	0.5239	0.275	-0.122
Mof_C 	C 	0.99836	0.51575	0.35142	0.568
Mof_C 	C 	0.01474	0.5851	0.206	0.459
Mof_C 	C 	0.56008	0.8619	0.38231	0.594
Mof_C 	C 	0.721	0.7365	0.43904	0.371
Mof_C 	C 	0.7741	0.7811	0.28008	0.179
Mof_C 	C 	0.8444	0.7133	0.28036	0.199
Mof_C 	C 	0.8228	0.7613	0.22296	0.204
Mof_C 	C 	0.6697	0.8905	0.13478	0.471
Mof_C 	C 	0.7317	0.8654	0.13011	-0.085
Mof_C 	C 	0.7672	0.8825	0.09571	-0.021
Mof_H 	H 	0.7509	0.9053	0.0753	0.065
Mof_C 	C 	0.8217	0.8661	0.0933	-0.004
Mof_C 	C 	0.7566	0.8315	0.15906	-0.086
Mof_H 	H 	0.7343	0.8228	0.1818	0.066
Mof_C 	C 	0.8449	0.8318	0.1264	-0.133
Mof_H 	H 	0.885	0.8249	0.1267	0.094
Mof_C 	C 	0.8127	0.8088	0.15716	0.144
Mof_C 	C 	0.8654	0.8845	0.0616	0.251
Mof_N 	N 	0.7271	0.8102	0.2968	-0.207
Mof_H 	H 	0.7106	0.8352	0.2811	0.078
Mof_N 	N 	0.782	0.7934	0.24003	-0.185
Mof_N 	N 	0.8016	0.7404	0.30164	-0.169
Mof_N 	N 	0.8789	0.6795	0.30426	-0.22
Mof_H 	H 	0.8745	0.6845	0.3298	0.138
Mof_N 	N 	0.85941	0.7236	0.2425	-0.174
Mof_N 	N 	0.8371	0.7713	0.18398	-0.249
Mof_H 	H 	0.8659	0.7508	0.1749	0.147
Mof_O 	O 	0.97362	0.5224	0.3842	-0.676
Mof_O 	O 	0.9617	0.41672	0.24425	-0.782
Mof_O 	O 	0.03481	0.47558	0.34479	-0.757
Mof_O 	O 	0.0053	0.3414	0.1618	-0.691
Mof_H 	H 	0.0117	0.3146	0.1778	0.232
Mof_O 	O 	0.00734	0.62199	0.181	-0.375
Mof_O 	O 	0.1082	0.43392	0.24803	-0.72
Mof_O 	O 	0.04613	0.53953	0.19987	-0.732
Mof_O 	O 	0.53106	0.85395	0.41427	-0.73
Mof_O 	O 	0.54096	0.88938	0.35242	-0.805
Mof_O 	O 	0.64705	0.91121	0.10361	-0.511
Mof_O 	O 	0.64738	0.89018	0.16847	-0.725
Mof_O 	O 	0.763	0.7086	0.43393	-0.27
Mof_O 	O 	0.6918	0.739	0.46998	-0.242
Mof_O 	O 	0.9125	0.8614	0.05594	-0.201
Mof_O 	O 	0.8381	0.9141	0.0322	-0.178
Mof_Zn	Zn	0.92361	0.459	0.64264	1.189
Mof_Na	Na	0.96916	0.56637	0.69284	2.537
Mof_Na	Na	0.96039	0.60882	0.7928	2.393
Mof_C 	C 	0.3064	0.2307	0.90424	-0.118
Mof_C 	C 	0.274	0.228	0.86663	-0.029
Mof_H 	H 	0.2387	0.2476	0.8634	0.07
Mof_C 	C 	0.2983	0.1945	0.83549	0.03
Mof_C 	C 	0.3515	0.1662	0.84035	0.061
Mof_H 	H 	0.3667	0.1438	0.8193	-0.082
Mof_C 	C 	0.3827	0.1709	0.8766	-0.24
Mof_C 	C 	0.3589	0.2013	0.90795	0.116
Mof_H 	H 	0.3786	0.2022	0.9325	-0.006
Mof_C 	C 	0.01093	0.41145	0.74876	-0.201
Mof_C 	C 	0.0529	0.3691	0.75544	0.001
Mof_H 	H 	0.0641	0.3442	0.7346	0.055
Mof_C 	C 	0.0782	0.3636	0.7928	0.039
Mof_C 	C 	0.0609	0.4035	0.82401	0.038
Mof_H 	H 	0.0789	0.4016	0.8492	0.02
Mof_C 	C 	0.01774	0.44467	0.81718	-0.266
Mof_C 	C 	0.99352	0.44833	0.77983	0.181
Mof_H 	H 	0.9646	0.4761	0.775	-0.122
Mof_C 	C 	0.00164	0.48425	0.85142	0.569
Mof_C 	C 	0.98526	0.4149	0.706	0.459
Mof_C 	C 	0.43992	0.1381	0.88231	0.594
Mof_C 	C 	0.279	0.2635	0.93904	0.371
Mof_C 	C 	0.2259	0.2189	0.78008	0.179
Mof_C 	C 	0.1556	0.2867	0.78036	0.199
Mof_C 	C 	0.1772	0.2387	0.72296	0.204
Mof_C 	C 	0.3303	0.1095	0.63478	0.471
Mof_C 	C 	0.2683	0.1346	0.63011	-0.085
Mof_C 	C 	0.2328	0.1175	0.59571	-0.021
Mof_H 	H 	0.2491	0.0947	0.5753	0.065
Mof_C 	C 	0.1783	0.1339	0.5933	-0.004
Mof_C 	C 	0.2434	0.1685	0.65906	-0.086
Mof_H 	H 	0.2657	0.1772	0.6818	0.066
Mof_C 	C 	0.1551	0.1682	0.6264	-0.133
Mof_H 	H 	0.115	0.1751	0.6267	0.094
Mof_C 	C 	0.1873	0.1912	0.65716	0.144
Mof_C 	C 	0.1346	0.1155	0.5616	0.251
Mof_N 	N 	0.2729	0.1898	0.7968	-0.207
Mof_H 	H 	0.2894	0.1648	0.7811	0.078
Mof_N 	N 	0.218	0.2066	0.74003	-0.185
Mof_N 	N 	0.1984	0.2596	0.80164	-0.169
Mof_N 	N 	0.1211	0.3205	0.80426	-0.22
Mof_H 	H 	0.1255	0.3155	0.8298	0.138
Mof_N 	N 	0.14059	0.2764	0.7425	-0.174
Mof_N 	N 	0.1629	0.2287	0.68398	-0.249
Mof_H 	H 	0.1341	0.2492	0.6749	0.147
Mof_O 	O 	0.02638	0.4776	0.8842	-0.676
Mof_O 	O 	0.0383	0.58328	0.74425	-0.782
Mof_O 	O 	0.96519	0.52442	0.84479	-0.757
Mof_O 	O 	0.9947	0.6586	0.6618	-0.691
Mof_H 	H 	0.9883	0.6854	0.6778	0.232
Mof_O 	O 	0.99266	0.37801	0.681	-0.375
Mof_O 	O 	0.8918	0.56608	0.74803	-0.72
Mof_O 	O 	0.95387	0.46047	0.69987	-0.732
Mof_O 	O 	0.46894	0.14605	0.91427	-0.73
Mof_O 	O 	0.45904	0.11062	0.85242	-0.805
Mof_O 	O 	0.35295	0.08879	0.60361	-0.511
Mof_O 	O 	0.35262	0.10982	0.66847	-0.725
Mof_O 	O 	0.237	0.2914	0.93393	-0.27
Mof_O 	O 	0.3082	0.261	0.96998	-0.242
Mof_O 	O 	0.0875	0.1386	0.55594	-0.201
Mof_O 	O 	0.1619	0.0859	0.5322	-0.178
Mof_Zn	Zn	0.041	0.42361	0.39264	1.189
Mof_Na	Na	0.93363	0.46916	0.44284	2.538
Mof_Na	Na	0.89118	0.46039	0.5428	2.395
Mof_C 	C 	0.2693	0.8064	0.65424	-0.118
Mof_C 	C 	0.272	0.774	0.61663	-0.03
Mof_H 	H 	0.2524	0.7387	0.6134	0.07
Mof_C 	C 	0.3055	0.7983	0.58549	0.03
Mof_C 	C 	0.3338	0.8515	0.59035	0.061
Mof_H 	H 	0.3562	0.8667	0.5693	-0.082
Mof_C 	C 	0.3291	0.8827	0.6266	-0.24
Mof_C 	C 	0.2987	0.8589	0.65795	0.116
Mof_H 	H 	0.2978	0.8786	0.6825	-0.005
Mof_C 	C 	0.08855	0.51093	0.49876	-0.202
Mof_C 	C 	0.1309	0.5529	0.50544	0.002
Mof_H 	H 	0.1558	0.5641	0.4846	0.054
Mof_C 	C 	0.1364	0.5782	0.5428	0.038
Mof_C 	C 	0.0965	0.5609	0.57401	0.039
Mof_H 	H 	0.0984	0.5789	0.5992	0.02
Mof_C 	C 	0.05533	0.51774	0.56718	-0.267
Mof_C 	C 	0.05167	0.49352	0.52983	0.183
Mof_H 	H 	0.0239	0.4646	0.525	-0.122
Mof_C 	C 	0.01575	0.50164	0.60142	0.568
Mof_C 	C 	0.0851	0.48526	0.456	0.46
Mof_C 	C 	0.3619	0.93992	0.63231	0.594
Mof_C 	C 	0.2365	0.779	0.68904	0.371
Mof_C 	C 	0.2811	0.7259	0.53008	0.179
Mof_C 	C 	0.2133	0.6556	0.53036	0.199
Mof_C 	C 	0.2613	0.6772	0.47296	0.204
Mof_C 	C 	0.3905	0.8303	0.38478	0.471
Mof_C 	C 	0.3654	0.7683	0.38011	-0.085
Mof_C 	C 	0.3825	0.7328	0.34571	-0.021
Mof_H 	H 	0.4053	0.7491	0.3253	0.065
Mof_C 	C 	0.3661	0.6783	0.3433	-0.004
Mof_C 	C 	0.3315	0.7434	0.40906	-0.086
Mof_H 	H 	0.3228	0.7657	0.4318	0.066
Mof_C 	C 	0.3318	0.6551	0.3764	-0.133
Mof_H 	H 	0.3249	0.615	0.3767	0.094
Mof_C 	C 	0.3088	0.6873	0.40716	0.144
Mof_C 	C 	0.3845	0.6346	0.3116	0.251
Mof_N 	N 	0.3102	0.7729	0.5468	-0.207
Mof_H 	H 	0.3352	0.7894	0.5311	0.078
Mof_N 	N 	0.2934	0.718	0.49003	-0.185
Mof_N 	N 	0.2404	0.6984	0.55164	-0.169
Mof_N 	N 	0.1795	0.6211	0.55426	-0.22
Mof_H 	H 	0.1845	0.6255	0.5798	0.138
Mof_N 	N 	0.2236	0.64059	0.4925	-0.174
Mof_N 	N 	0.2713	0.6629	0.43398	-0.249
Mof_H 	H 	0.2508	0.6341	0.4249	0.147
Mof_O 	O 	0.0224	0.52638	0.6342	-0.675
Mof_O 	O 	0.91672	0.5383	0.49425	-0.783
Mof_O 	O 	0.97558	0.46519	0.59479	-0.757
Mof_O 	O 	0.8414	0.4947	0.4118	-0.691
Mof_H 	H 	0.8146	0.4883	0.4278	0.232
Mof_O 	O 	0.12199	0.49266	0.431	-0.375
Mof_O 	O 	0.93392	0.3918	0.49803	-0.72
Mof_O 	O 	0.03953	0.45387	0.44987	-0.732
Mof_O 	O 	0.35395	0.96894	0.66427	-0.73
Mof_O 	O 	0.38938	0.95904	0.60242	-0.805
Mof_O 	O 	0.41121	0.85295	0.35361	-0.511
Mof_O 	O 	0.39018	0.85262	0.41847	-0.726
Mof_O 	O 	0.2086	0.737	0.68393	-0.269
Mof_O 	O 	0.239	0.8082	0.71998	-0.242
Mof_O 	O 	0.3614	0.5875	0.30594	-0.201
Mof_O 	O 	0.4141	0.6619	0.2822	-0.178
Mof_Zn	Zn	0.959	0.57639	0.89264	1.189
Mof_Na	Na	0.06637	0.53084	0.94284	2.54
Mof_Na	Na	0.10882	0.53961	0.0428	2.392
Mof_C 	C 	0.7307	0.1936	0.15424	-0.118
Mof_C 	C 	0.728	0.226	0.11663	-0.03
Mof_H 	H 	0.7476	0.2613	0.1134	0.07
Mof_C 	C 	0.6945	0.2017	0.08549	0.03
Mof_C 	C 	0.6662	0.1485	0.09035	0.061
Mof_H 	H 	0.6438	0.1333	0.0693	-0.082
Mof_C 	C 	0.6709	0.1173	0.1266	-0.24
Mof_C 	C 	0.7013	0.1411	0.15795	0.116
Mof_H 	H 	0.7022	0.1214	0.1825	-0.005
Mof_C 	C 	0.91145	0.48907	0.99876	-0.206
Mof_C 	C 	0.8691	0.4471	0.00544	0.006
Mof_H 	H 	0.8442	0.4359	0.9846	0.052
Mof_C 	C 	0.8636	0.4218	0.0428	0.036
Mof_C 	C 	0.9035	0.4391	0.07401	0.041
Mof_H 	H 	0.9016	0.4211	0.0992	0.02
Mof_C 	C 	0.94467	0.48226	0.06718	-0.269
Mof_C 	C 	0.94833	0.50648	0.02983	0.186
Mof_H 	H 	0.9761	0.5354	0.025	-0.123
Mof_C 	C 	0.98425	0.49836	0.10142	0.569
Mof_C 	C 	0.9149	0.51474	0.956	0.461
Mof_C 	C 	0.6381	0.06008	0.13231	0.594
Mof_C 	C 	0.7635	0.221	0.18904	0.371
Mof_C 	C 	0.7189	0.2741	0.03008	0.18
Mof_C 	C 	0.7867	0.3444	0.03036	0.199
Mof_C 	C 	0.7387	0.3228	0.97296	0.204
Mof_C 	C 	0.6095	0.1697	0.88478	0.471
Mof_C 	C 	0.6346	0.2317	0.88011	-0.085
Mof_C 	C 	0.6175	0.2672	0.84571	-0.021
Mof_H 	H 	0.5947	0.2509	0.8253	0.065
Mof_C 	C 	0.6339	0.3217	0.8433	-0.004
Mof_C 	C 	0.6685	0.2566	0.90906	-0.086
Mof_H 	H 	0.6772	0.2343	0.9318	0.066
Mof_C 	C 	0.6682	0.3449	0.8764	-0.133
Mof_H 	H 	0.6751	0.385	0.8767	0.094
Mof_C 	C 	0.6912	0.3127	0.90716	0.144
Mof_C 	C 	0.6155	0.3654	0.8116	0.251
Mof_N 	N 	0.6898	0.2271	0.0468	-0.207
Mof_H 	H 	0.6648	0.2106	0.0311	0.079
Mof_N 	N 	0.7066	0.282	0.99003	-0.186
Mof_N 	N 	0.7596	0.3016	0.05164	-0.169
Mof_N 	N 	0.8205	0.3789	0.05426	-0.22
Mof_H 	H 	0.8155	0.3745	0.0798	0.138
Mof_N 	N 	0.7764	0.35941	0.9925	-0.174
Mof_N 	N 	0.7287	0.3371	0.93398	-0.249
Mof_H 	H 	0.7492	0.3659	0.9249	0.147
Mof_O 	O 	0.9776	0.47362	0.1342	-0.676
Mof_O 	O 	0.08328	0.4617	0.99425	-0.783
Mof_O 	O 	0.02442	0.53481	0.09479	-0.757
Mof_O 	O 	0.1586	0.5053	0.9118	-0.691
Mof_H 	H 	0.1854	0.5117	0.9278	0.232
Mof_O 	O 	0.87801	0.50734	0.931	-0.376
Mof_O 	O 	0.06608	0.6082	0.99803	-0.72
Mof_O 	O 	0.96047	0.54613	0.94987	-0.733
Mof_O 	O 	0.64605	0.03106	0.16427	-0.729
Mof_O 	O 	0.61062	0.04096	0.10242	-0.805
Mof_O 	O 	0.58879	0.14705	0.85361	-0.511
Mof_O 	O 	0.60982	0.14738	0.91847	-0.725
Mof_O 	O 	0.7914	0.263	0.18393	-0.269
Mof_O 	O 	0.761	0.1918	0.21998	-0.242
Mof_O 	O 	0.6386	0.4125	0.80594	-0.201
Mof_O 	O 	0.5859	0.3381	0.7822	-0.178
_end
