data_functionalizedCrystal
_audit_creation_method	'EQeq! by Chris Wilmer'
_symmetry_space_group_name_H-M	'P1'
_symmetry_Int_Tables_number	1
_symmetry_cell_setting	triclinic
loop_
_symmetry_equiv_pos_as_xyz
  x,y,z
_cell_length_a	16.154
_cell_length_b	33.51
_cell_length_c	41.623
_cell_angle_alpha	90
_cell_angle_beta	90
_cell_angle_gamma	90
loop_
_atom_site_label
_atom_site_type_symbol
_atom_site_fract_x
_atom_site_fract_y
_atom_site_fract_z
_atom_site_charge
Mof_C 	C 	0.6663	0.117	0.9541	-0.15
Mof_C 	C 	0.7277	0.1504	0.0062	-0.743
Mof_H 	H 	0.7805	0.1495	0.0167	0.24
Mof_H 	H 	0.6856	0.1408	0.0205	0.232
Mof_H 	H 	0.7155	0.1774	0.0001	0.236
Mof_C 	C 	0.9371	0.2367	0.9858	0.199
Mof_C 	C 	0.8826	0.197	0.9487	0.228
Mof_C 	C 	0.9087	0.302	0.9249	0.137
Mof_C 	C 	0.7022	0.2636	0.9445	-0.655
Mof_H 	H 	0.6566	0.2785	0.9358	0.194
Mof_H 	H 	0.6995	0.2639	0.9675	0.207
Mof_H 	H 	0.6993	0.2365	0.937	0.186
Mof_C 	C 	0.9692	0.2696	0.0064	-0.605
Mof_H 	H 	0.9976	0.2586	0.0246	0.165
Mof_H 	H 	0.9239	0.2858	0.0137	0.192
Mof_H 	H 	0.0069	0.2858	0.9941	0.169
Mof_C 	C 	0.7011	0.0923	0.9311	0.224
Mof_C 	C 	0.839	0.18	0.9197	-0.686
Mof_H 	H 	0.8415	0.1514	0.9204	0.206
Mof_H 	H 	0.8656	0.1894	0.9005	0.208
Mof_H 	H 	0.7822	0.1884	0.9197	0.21
Mof_C 	C 	0.862	0.2715	0.9394	-0.112
Mof_C 	C 	0.6683	0.0747	0.9011	-0.673
Mof_H 	H 	0.7103	0.0586	0.8912	0.197
Mof_H 	H 	0.6519	0.0956	0.8867	0.222
Mof_H 	H 	0.6212	0.0583	0.9061	0.189
Mof_C 	C 	0.8925	0.2364	0.957	-0.151
Mof_C 	C 	0.73	0.1243	0.9764	0.236
Mof_C 	C 	0.0006	0.3039	0.9248	-0.399
Mof_H 	H 	0.0183	0.3273	0.9134	0.021
Mof_H 	H 	0.0224	0.2805	0.9144	0.093
Mof_H 	H 	0.0205	0.305	0.9465	0.108
Mof_C 	C 	0.7812	0.2818	0.9337	0.209
Mof_N 	N 	0.9193	0.1736	0.971	-0.237
Mof_N 	N 	0.9519	0.1984	0.9929	-0.147
Mof_N 	N 	0.7798	0.0857	0.9405	-0.174
Mof_N 	N 	0.8597	0.3285	0.9106	-0.258
Mof_N 	N 	0.7819	0.3157	0.9165	-0.194
Mof_N 	N 	0.7993	0.105	0.9681	-0.269
Mof_O 	O 	0.0533	0.116	0.9887	-0.661
Mof_O 	O 	0.0696	0.1512	0.10376	-0.614
Mof_O 	O 	0.0431	0.1663	0.0418	-0.887
Mof_O 	O 	0.0309	0.2249	0.0878	-0.721
Mof_O 	O 	0.9328	0.0902	0.0968	-0.969
Mof_O 	O 	0.9105	0.165	0.09279	-0.924
Mof_O 	O 	0.1964	0.215	0.09773	-0.725
Mof_O 	O 	0.068	0.0993	0.9514	-0.415
Mof_O 	O 	0.0561	0.091	0.05213	-0.987
Mof_O 	O 	0.9066	0.1224	0.0327	-0.824
Mof_Co	Co	0.92266	0.11206	0.98134	1.11
Mof_Mo	Mo	0.96947	0.12745	0.06336	2.064
Mof_Mo	Mo	0.9702	0.20221	0.12239	1.521
Mof_Mo	Mo	0.11951	0.202	0.06533	1.596
Mof_O 	O 	0.138	0.1105	0.9307	-0.216
Mof_C 	C 	0.6663	0.617	0.4541	-0.151
Mof_C 	C 	0.7277	0.6504	0.5062	-0.744
Mof_H 	H 	0.7805	0.6495	0.5167	0.239
Mof_H 	H 	0.6856	0.6408	0.5205	0.231
Mof_H 	H 	0.7155	0.6774	0.5001	0.234
Mof_C 	C 	0.9371	0.7367	0.4858	0.197
Mof_C 	C 	0.8826	0.697	0.4487	0.227
Mof_C 	C 	0.9087	0.802	0.4249	0.138
Mof_C 	C 	0.7022	0.7636	0.4445	-0.656
Mof_H 	H 	0.6566	0.7785	0.4358	0.193
Mof_H 	H 	0.6995	0.7639	0.4675	0.206
Mof_H 	H 	0.6993	0.7365	0.437	0.185
Mof_C 	C 	0.9692	0.7696	0.5064	-0.6
Mof_H 	H 	0.9976	0.7586	0.5246	0.163
Mof_H 	H 	0.9239	0.7858	0.5137	0.19
Mof_H 	H 	0.0069	0.7858	0.4941	0.165
Mof_C 	C 	0.7011	0.5923	0.4311	0.224
Mof_C 	C 	0.839	0.68	0.4197	-0.686
Mof_H 	H 	0.8415	0.6514	0.4204	0.205
Mof_H 	H 	0.8656	0.6894	0.4005	0.207
Mof_H 	H 	0.7822	0.6884	0.4197	0.208
Mof_C 	C 	0.862	0.7715	0.4394	-0.113
Mof_C 	C 	0.6683	0.5747	0.4011	-0.675
Mof_H 	H 	0.7103	0.5586	0.3912	0.197
Mof_H 	H 	0.6519	0.5956	0.3867	0.221
Mof_H 	H 	0.6212	0.5583	0.4061	0.188
Mof_C 	C 	0.8925	0.7364	0.457	-0.151
Mof_C 	C 	0.73	0.6243	0.4764	0.235
Mof_C 	C 	0.0006	0.8039	0.4248	-0.403
Mof_H 	H 	0.0183	0.8273	0.4134	0.021
Mof_H 	H 	0.0224	0.7805	0.4144	0.093
Mof_H 	H 	0.0205	0.805	0.4465	0.108
Mof_C 	C 	0.7812	0.7818	0.4337	0.208
Mof_N 	N 	0.9193	0.6736	0.471	-0.237
Mof_N 	N 	0.9519	0.6984	0.4929	-0.146
Mof_N 	N 	0.7798	0.5857	0.4405	-0.174
Mof_N 	N 	0.8597	0.8285	0.4106	-0.259
Mof_N 	N 	0.7819	0.8157	0.4165	-0.194
Mof_N 	N 	0.7993	0.605	0.4681	-0.268
Mof_O 	O 	0.0533	0.616	0.4887	-0.661
Mof_O 	O 	0.0696	0.6512	0.60376	-0.615
Mof_O 	O 	0.0431	0.6663	0.5418	-0.888
Mof_O 	O 	0.0309	0.7249	0.5878	-0.722
Mof_O 	O 	0.9328	0.5902	0.5968	-0.969
Mof_O 	O 	0.9105	0.665	0.59279	-0.925
Mof_O 	O 	0.1964	0.715	0.59773	-0.725
Mof_O 	O 	0.068	0.5993	0.4514	-0.415
Mof_O 	O 	0.0561	0.591	0.55213	-0.988
Mof_O 	O 	0.9066	0.6224	0.5327	-0.824
Mof_Co	Co	0.92266	0.61206	0.48134	1.11
Mof_Mo	Mo	0.96947	0.62745	0.56336	2.068
Mof_Mo	Mo	0.9702	0.70221	0.62239	1.524
Mof_Mo	Mo	0.11951	0.702	0.56533	1.596
Mof_O 	O 	0.138	0.6105	0.4307	-0.216
Mof_C 	C 	0.1663	0.117	0.4541	-0.151
Mof_C 	C 	0.2277	0.1504	0.5062	-0.744
Mof_H 	H 	0.2805	0.1495	0.5167	0.239
Mof_H 	H 	0.1856	0.1408	0.5205	0.231
Mof_H 	H 	0.2155	0.1774	0.5001	0.235
Mof_C 	C 	0.4371	0.2367	0.4858	0.197
Mof_C 	C 	0.3826	0.197	0.4487	0.227
Mof_C 	C 	0.4087	0.302	0.4249	0.137
Mof_C 	C 	0.2022	0.2636	0.4445	-0.656
Mof_H 	H 	0.1566	0.2785	0.4358	0.193
Mof_H 	H 	0.1995	0.2639	0.4675	0.206
Mof_H 	H 	0.1993	0.2365	0.437	0.185
Mof_C 	C 	0.4692	0.2696	0.5064	-0.602
Mof_H 	H 	0.4976	0.2586	0.5246	0.163
Mof_H 	H 	0.4239	0.2858	0.5137	0.19
Mof_H 	H 	0.5069	0.2858	0.4941	0.166
Mof_C 	C 	0.2011	0.0923	0.4311	0.224
Mof_C 	C 	0.339	0.18	0.4197	-0.687
Mof_H 	H 	0.3415	0.1514	0.4204	0.205
Mof_H 	H 	0.3656	0.1894	0.4005	0.207
Mof_H 	H 	0.2822	0.1884	0.4197	0.208
Mof_C 	C 	0.362	0.2715	0.4394	-0.113
Mof_C 	C 	0.1683	0.0747	0.4011	-0.675
Mof_H 	H 	0.2103	0.0586	0.3912	0.197
Mof_H 	H 	0.1519	0.0956	0.3867	0.221
Mof_H 	H 	0.1212	0.0583	0.4061	0.188
Mof_C 	C 	0.3925	0.2364	0.457	-0.151
Mof_C 	C 	0.23	0.1243	0.4764	0.235
Mof_C 	C 	0.5006	0.3039	0.4248	-0.401
Mof_H 	H 	0.5183	0.3273	0.4134	0.021
Mof_H 	H 	0.5224	0.2805	0.4144	0.092
Mof_H 	H 	0.5205	0.305	0.4465	0.108
Mof_C 	C 	0.2812	0.2818	0.4337	0.208
Mof_N 	N 	0.4193	0.1736	0.471	-0.238
Mof_N 	N 	0.4519	0.1984	0.4929	-0.146
Mof_N 	N 	0.2798	0.0857	0.4405	-0.174
Mof_N 	N 	0.3597	0.3285	0.4106	-0.258
Mof_N 	N 	0.2819	0.3157	0.4165	-0.194
Mof_N 	N 	0.2993	0.105	0.4681	-0.268
Mof_O 	O 	0.5533	0.116	0.4887	-0.661
Mof_O 	O 	0.5696	0.1512	0.60376	-0.615
Mof_O 	O 	0.5431	0.1663	0.5418	-0.888
Mof_O 	O 	0.5309	0.2249	0.5878	-0.722
Mof_O 	O 	0.4328	0.0902	0.5968	-0.969
Mof_O 	O 	0.4105	0.165	0.59279	-0.925
Mof_O 	O 	0.6964	0.215	0.59773	-0.725
Mof_O 	O 	0.568	0.0993	0.4514	-0.415
Mof_O 	O 	0.5561	0.091	0.55213	-0.988
Mof_O 	O 	0.4066	0.1224	0.5327	-0.824
Mof_Co	Co	0.42266	0.11206	0.48134	1.11
Mof_Mo	Mo	0.46947	0.12745	0.56336	2.068
Mof_Mo	Mo	0.4702	0.20221	0.62239	1.524
Mof_Mo	Mo	0.61951	0.202	0.56533	1.596
Mof_O 	O 	0.638	0.1105	0.4307	-0.216
Mof_C 	C 	0.1663	0.617	0.9541	-0.152
Mof_C 	C 	0.2277	0.6504	0.0062	-0.743
Mof_H 	H 	0.2805	0.6495	0.0167	0.239
Mof_H 	H 	0.1856	0.6408	0.0205	0.231
Mof_H 	H 	0.2155	0.6774	0.0001	0.234
Mof_C 	C 	0.4371	0.7367	0.9858	0.197
Mof_C 	C 	0.3826	0.697	0.9487	0.227
Mof_C 	C 	0.4087	0.802	0.9249	0.137
Mof_C 	C 	0.2022	0.7636	0.9445	-0.656
Mof_H 	H 	0.1566	0.7785	0.9358	0.193
Mof_H 	H 	0.1995	0.7639	0.9675	0.206
Mof_H 	H 	0.1993	0.7365	0.937	0.185
Mof_C 	C 	0.4692	0.7696	0.0064	-0.602
Mof_H 	H 	0.4976	0.7586	0.0246	0.163
Mof_H 	H 	0.4239	0.7858	0.0137	0.19
Mof_H 	H 	0.5069	0.7858	0.9941	0.166
Mof_C 	C 	0.2011	0.5923	0.9311	0.224
Mof_C 	C 	0.339	0.68	0.9197	-0.687
Mof_H 	H 	0.3415	0.6514	0.9204	0.205
Mof_H 	H 	0.3656	0.6894	0.9005	0.207
Mof_H 	H 	0.2822	0.6884	0.9197	0.209
Mof_C 	C 	0.362	0.7715	0.9394	-0.113
Mof_C 	C 	0.1683	0.5747	0.9011	-0.675
Mof_H 	H 	0.2103	0.5586	0.8912	0.197
Mof_H 	H 	0.1519	0.5956	0.8867	0.221
Mof_H 	H 	0.1212	0.5583	0.9061	0.188
Mof_C 	C 	0.3925	0.7364	0.957	-0.151
Mof_C 	C 	0.23	0.6243	0.9764	0.235
Mof_C 	C 	0.5006	0.8039	0.9248	-0.401
Mof_H 	H 	0.5183	0.8273	0.9134	0.021
Mof_H 	H 	0.5224	0.7805	0.9144	0.092
Mof_H 	H 	0.5205	0.805	0.9465	0.108
Mof_C 	C 	0.2812	0.7818	0.9337	0.208
Mof_N 	N 	0.4193	0.6736	0.971	-0.238
Mof_N 	N 	0.4519	0.6984	0.9929	-0.146
Mof_N 	N 	0.2798	0.5857	0.9405	-0.174
Mof_N 	N 	0.3597	0.8285	0.9106	-0.258
Mof_N 	N 	0.2819	0.8157	0.9165	-0.194
Mof_N 	N 	0.2993	0.605	0.9681	-0.268
Mof_O 	O 	0.5533	0.616	0.9887	-0.661
Mof_O 	O 	0.5696	0.6512	0.10376	-0.615
Mof_O 	O 	0.5431	0.6663	0.0418	-0.888
Mof_O 	O 	0.5309	0.7249	0.0878	-0.722
Mof_O 	O 	0.4328	0.5902	0.0968	-0.969
Mof_O 	O 	0.4105	0.665	0.09279	-0.925
Mof_O 	O 	0.6964	0.715	0.09773	-0.725
Mof_O 	O 	0.568	0.5993	0.9514	-0.415
Mof_O 	O 	0.5561	0.591	0.05213	-0.988
Mof_O 	O 	0.4066	0.6224	0.0327	-0.824
Mof_Co	Co	0.42266	0.61206	0.98134	1.11
Mof_Mo	Mo	0.46947	0.62745	0.06336	2.068
Mof_Mo	Mo	0.4702	0.70221	0.12239	1.524
Mof_Mo	Mo	0.61951	0.702	0.06533	1.596
Mof_O 	O 	0.638	0.6105	0.9307	-0.216
Mof_C 	C 	0.0837	0.633	0.9541	-0.151
Mof_C 	C 	0.0223	0.5996	0.0062	-0.743
Mof_H 	H 	0.9695	0.6005	0.0167	0.239
Mof_H 	H 	0.0644	0.6092	0.0205	0.231
Mof_H 	H 	0.0345	0.5726	0.0001	0.234
Mof_C 	C 	0.8129	0.5133	0.9858	0.198
Mof_C 	C 	0.8674	0.553	0.9487	0.228
Mof_C 	C 	0.8413	0.448	0.9249	0.137
Mof_C 	C 	0.0478	0.4864	0.9445	-0.656
Mof_H 	H 	0.0934	0.4715	0.9358	0.193
Mof_H 	H 	0.0505	0.4861	0.9675	0.206
Mof_H 	H 	0.0507	0.5135	0.937	0.184
Mof_C 	C 	0.7808	0.4804	0.0064	-0.603
Mof_H 	H 	0.7524	0.4914	0.0246	0.163
Mof_H 	H 	0.8261	0.4642	0.0137	0.19
Mof_H 	H 	0.7431	0.4642	0.9941	0.167
Mof_C 	C 	0.0489	0.6577	0.9311	0.222
Mof_C 	C 	0.911	0.57	0.9197	-0.687
Mof_H 	H 	0.9085	0.5986	0.9204	0.205
Mof_H 	H 	0.8844	0.5606	0.9005	0.207
Mof_H 	H 	0.9678	0.5616	0.9197	0.209
Mof_C 	C 	0.888	0.4785	0.9394	-0.113
Mof_C 	C 	0.0817	0.6753	0.9011	-0.673
Mof_H 	H 	0.0397	0.6914	0.8912	0.196
Mof_H 	H 	0.0981	0.6544	0.8867	0.221
Mof_H 	H 	0.1288	0.6917	0.9061	0.188
Mof_C 	C 	0.8575	0.5136	0.957	-0.151
Mof_C 	C 	0.02	0.6257	0.9764	0.234
Mof_C 	C 	0.7494	0.4461	0.9248	-0.401
Mof_H 	H 	0.7317	0.4227	0.9134	0.021
Mof_H 	H 	0.7276	0.4695	0.9144	0.092
Mof_H 	H 	0.7295	0.445	0.9465	0.108
Mof_C 	C 	0.9688	0.4682	0.9337	0.208
Mof_N 	N 	0.8307	0.5764	0.971	-0.238
Mof_N 	N 	0.7981	0.5516	0.9929	-0.146
Mof_N 	N 	0.9702	0.6643	0.9405	-0.173
Mof_N 	N 	0.8903	0.4215	0.9106	-0.258
Mof_N 	N 	0.9681	0.4343	0.9165	-0.194
Mof_N 	N 	0.9507	0.645	0.9681	-0.268
Mof_O 	O 	0.6967	0.634	0.9887	-0.661
Mof_O 	O 	0.6804	0.5988	0.10376	-0.615
Mof_O 	O 	0.7069	0.5837	0.0418	-0.888
Mof_O 	O 	0.7191	0.5251	0.0878	-0.722
Mof_O 	O 	0.8172	0.6598	0.0968	-0.969
Mof_O 	O 	0.8395	0.585	0.09279	-0.925
Mof_O 	O 	0.5536	0.535	0.09773	-0.725
Mof_O 	O 	0.682	0.6507	0.9514	-0.415
Mof_O 	O 	0.6939	0.659	0.05213	-0.988
Mof_O 	O 	0.8434	0.6276	0.0327	-0.824
Mof_Co	Co	0.82734	0.63794	0.98134	1.11
Mof_Mo	Mo	0.78053	0.62255	0.06336	2.068
Mof_Mo	Mo	0.7798	0.54779	0.12239	1.524
Mof_Mo	Mo	0.63049	0.548	0.06533	1.596
Mof_O 	O 	0.612	0.6395	0.9307	-0.216
Mof_C 	C 	0.0837	0.133	0.4541	-0.151
Mof_C 	C 	0.0223	0.0996	0.5062	-0.741
Mof_H 	H 	0.9695	0.1005	0.5167	0.238
Mof_H 	H 	0.0644	0.1092	0.5205	0.23
Mof_H 	H 	0.0345	0.0726	0.5001	0.234
Mof_C 	C 	0.8129	0.0133	0.4858	0.196
Mof_C 	C 	0.8674	0.053	0.4487	0.227
Mof_C 	C 	0.8413	0.948	0.4249	0.138
Mof_C 	C 	0.0478	0.9864	0.4445	-0.666
Mof_H 	H 	0.0934	0.9715	0.4358	0.196
Mof_H 	H 	0.0505	0.9861	0.4675	0.209
Mof_H 	H 	0.0507	0.0135	0.437	0.188
Mof_C 	C 	0.7808	0.9804	0.5064	-0.6
Mof_H 	H 	0.7524	0.9914	0.5246	0.163
Mof_H 	H 	0.8261	0.9642	0.5137	0.19
Mof_H 	H 	0.7431	0.9642	0.4941	0.166
Mof_C 	C 	0.0489	0.1577	0.4311	0.224
Mof_C 	C 	0.911	0.07	0.4197	-0.685
Mof_H 	H 	0.9085	0.0986	0.4204	0.205
Mof_H 	H 	0.8844	0.0606	0.4005	0.206
Mof_H 	H 	0.9678	0.0616	0.4197	0.207
Mof_C 	C 	0.888	0.9785	0.4394	-0.114
Mof_C 	C 	0.0817	0.1753	0.4011	-0.675
Mof_H 	H 	0.0397	0.1914	0.3912	0.197
Mof_H 	H 	0.0981	0.1544	0.3867	0.222
Mof_H 	H 	0.1288	0.1917	0.4061	0.188
Mof_C 	C 	0.8575	0.0136	0.457	-0.151
Mof_C 	C 	0.02	0.1257	0.4764	0.235
Mof_C 	C 	0.7494	0.9461	0.4248	-0.402
Mof_H 	H 	0.7317	0.9227	0.4134	0.021
Mof_H 	H 	0.7276	0.9695	0.4144	0.093
Mof_H 	H 	0.7295	0.945	0.4465	0.108
Mof_C 	C 	0.9688	0.9682	0.4337	0.212
Mof_N 	N 	0.8307	0.0764	0.471	-0.237
Mof_N 	N 	0.7981	0.0516	0.4929	-0.146
Mof_N 	N 	0.9702	0.1643	0.4405	-0.174
Mof_N 	N 	0.8903	0.9215	0.4106	-0.258
Mof_N 	N 	0.9681	0.9343	0.4165	-0.194
Mof_N 	N 	0.9507	0.145	0.4681	-0.269
Mof_O 	O 	0.6967	0.134	0.4887	-0.661
Mof_O 	O 	0.6804	0.0988	0.60376	-0.615
Mof_O 	O 	0.7069	0.0837	0.5418	-0.888
Mof_O 	O 	0.7191	0.0251	0.5878	-0.722
Mof_O 	O 	0.8172	0.1598	0.5968	-0.969
Mof_O 	O 	0.8395	0.085	0.59279	-0.925
Mof_O 	O 	0.5536	0.035	0.59773	-0.725
Mof_O 	O 	0.682	0.1507	0.4514	-0.415
Mof_O 	O 	0.6939	0.159	0.55213	-0.988
Mof_O 	O 	0.8434	0.1276	0.5327	-0.824
Mof_Co	Co	0.82734	0.13794	0.48134	1.11
Mof_Mo	Mo	0.78053	0.12255	0.56336	2.068
Mof_Mo	Mo	0.7798	0.04779	0.62239	1.523
Mof_Mo	Mo	0.63049	0.048	0.56533	1.596
Mof_O 	O 	0.612	0.1395	0.4307	-0.216
Mof_C 	C 	0.5837	0.633	0.4541	-0.151
Mof_C 	C 	0.5223	0.5996	0.5062	-0.744
Mof_H 	H 	0.4695	0.6005	0.5167	0.239
Mof_H 	H 	0.5644	0.6092	0.5205	0.231
Mof_H 	H 	0.5345	0.5726	0.5001	0.234
Mof_C 	C 	0.3129	0.5133	0.4858	0.197
Mof_C 	C 	0.3674	0.553	0.4487	0.227
Mof_C 	C 	0.3413	0.448	0.4249	0.137
Mof_C 	C 	0.5478	0.4864	0.4445	-0.656
Mof_H 	H 	0.5934	0.4715	0.4358	0.193
Mof_H 	H 	0.5505	0.4861	0.4675	0.206
Mof_H 	H 	0.5507	0.5135	0.437	0.185
Mof_C 	C 	0.2808	0.4804	0.5064	-0.602
Mof_H 	H 	0.2524	0.4914	0.5246	0.163
Mof_H 	H 	0.3261	0.4642	0.5137	0.19
Mof_H 	H 	0.2431	0.4642	0.4941	0.166
Mof_C 	C 	0.5489	0.6577	0.4311	0.223
Mof_C 	C 	0.411	0.57	0.4197	-0.687
Mof_H 	H 	0.4085	0.5986	0.4204	0.205
Mof_H 	H 	0.3844	0.5606	0.4005	0.207
Mof_H 	H 	0.4678	0.5616	0.4197	0.209
Mof_C 	C 	0.388	0.4785	0.4394	-0.113
Mof_C 	C 	0.5817	0.6753	0.4011	-0.675
Mof_H 	H 	0.5397	0.6914	0.3912	0.197
Mof_H 	H 	0.5981	0.6544	0.3867	0.221
Mof_H 	H 	0.6288	0.6917	0.4061	0.188
Mof_C 	C 	0.3575	0.5136	0.457	-0.151
Mof_C 	C 	0.52	0.6257	0.4764	0.235
Mof_C 	C 	0.2494	0.4461	0.4248	-0.401
Mof_H 	H 	0.2317	0.4227	0.4134	0.021
Mof_H 	H 	0.2276	0.4695	0.4144	0.092
Mof_H 	H 	0.2295	0.445	0.4465	0.108
Mof_C 	C 	0.4688	0.4682	0.4337	0.208
Mof_N 	N 	0.3307	0.5764	0.471	-0.238
Mof_N 	N 	0.2981	0.5516	0.4929	-0.146
Mof_N 	N 	0.4702	0.6643	0.4405	-0.174
Mof_N 	N 	0.3903	0.4215	0.4106	-0.258
Mof_N 	N 	0.4681	0.4343	0.4165	-0.194
Mof_N 	N 	0.4507	0.645	0.4681	-0.268
Mof_O 	O 	0.1967	0.634	0.4887	-0.661
Mof_O 	O 	0.1804	0.5988	0.60376	-0.615
Mof_O 	O 	0.2069	0.5837	0.5418	-0.888
Mof_O 	O 	0.2191	0.5251	0.5878	-0.722
Mof_O 	O 	0.3172	0.6598	0.5968	-0.969
Mof_O 	O 	0.3395	0.585	0.59279	-0.925
Mof_O 	O 	0.0536	0.535	0.59773	-0.725
Mof_O 	O 	0.182	0.6507	0.4514	-0.415
Mof_O 	O 	0.1939	0.659	0.55213	-0.988
Mof_O 	O 	0.3434	0.6276	0.5327	-0.824
Mof_Co	Co	0.32734	0.63794	0.48134	1.11
Mof_Mo	Mo	0.28053	0.62255	0.56336	2.068
Mof_Mo	Mo	0.2798	0.54779	0.62239	1.524
Mof_Mo	Mo	0.13049	0.548	0.56533	1.596
Mof_O 	O 	0.112	0.6395	0.4307	-0.216
Mof_C 	C 	0.5837	0.133	0.9541	-0.151
Mof_C 	C 	0.5223	0.0996	0.0062	-0.744
Mof_H 	H 	0.4695	0.1005	0.0167	0.239
Mof_H 	H 	0.5644	0.1092	0.0205	0.231
Mof_H 	H 	0.5345	0.0726	0.0001	0.234
Mof_C 	C 	0.3129	0.0133	0.9858	0.198
Mof_C 	C 	0.3674	0.053	0.9487	0.227
Mof_C 	C 	0.3413	0.948	0.9249	0.137
Mof_C 	C 	0.5478	0.9864	0.9445	-0.656
Mof_H 	H 	0.5934	0.9715	0.9358	0.193
Mof_H 	H 	0.5505	0.9861	0.9675	0.206
Mof_H 	H 	0.5507	0.0135	0.937	0.184
Mof_C 	C 	0.2808	0.9804	0.0064	-0.602
Mof_H 	H 	0.2524	0.9914	0.0246	0.163
Mof_H 	H 	0.3261	0.9642	0.0137	0.19
Mof_H 	H 	0.2431	0.9642	0.9941	0.166
Mof_C 	C 	0.5489	0.1577	0.9311	0.224
Mof_C 	C 	0.411	0.07	0.9197	-0.686
Mof_H 	H 	0.4085	0.0986	0.9204	0.205
Mof_H 	H 	0.3844	0.0606	0.9005	0.207
Mof_H 	H 	0.4678	0.0616	0.9197	0.208
Mof_C 	C 	0.388	0.9785	0.9394	-0.113
Mof_C 	C 	0.5817	0.1753	0.9011	-0.675
Mof_H 	H 	0.5397	0.1914	0.8912	0.197
Mof_H 	H 	0.5981	0.1544	0.8867	0.221
Mof_H 	H 	0.6288	0.1917	0.9061	0.188
Mof_C 	C 	0.3575	0.0136	0.957	-0.151
Mof_C 	C 	0.52	0.1257	0.9764	0.235
Mof_C 	C 	0.2494	0.9461	0.9248	-0.401
Mof_H 	H 	0.2317	0.9227	0.9134	0.021
Mof_H 	H 	0.2276	0.9695	0.9144	0.092
Mof_H 	H 	0.2295	0.945	0.9465	0.108
Mof_C 	C 	0.4688	0.9682	0.9337	0.208
Mof_N 	N 	0.3307	0.0764	0.971	-0.238
Mof_N 	N 	0.2981	0.0516	0.9929	-0.146
Mof_N 	N 	0.4702	0.1643	0.9405	-0.174
Mof_N 	N 	0.3903	0.9215	0.9106	-0.258
Mof_N 	N 	0.4681	0.9343	0.9165	-0.194
Mof_N 	N 	0.4507	0.145	0.9681	-0.268
Mof_O 	O 	0.1967	0.134	0.9887	-0.661
Mof_O 	O 	0.1804	0.0988	0.10376	-0.615
Mof_O 	O 	0.2069	0.0837	0.0418	-0.888
Mof_O 	O 	0.2191	0.0251	0.0878	-0.721
Mof_O 	O 	0.3172	0.1598	0.0968	-0.969
Mof_O 	O 	0.3395	0.085	0.09279	-0.925
Mof_O 	O 	0.0536	0.035	0.09773	-0.723
Mof_O 	O 	0.182	0.1507	0.9514	-0.415
Mof_O 	O 	0.1939	0.159	0.05213	-0.988
Mof_O 	O 	0.3434	0.1276	0.0327	-0.824
Mof_Co	Co	0.32734	0.13794	0.98134	1.11
Mof_Mo	Mo	0.28053	0.12255	0.06336	2.068
Mof_Mo	Mo	0.2798	0.04779	0.12239	1.524
Mof_Mo	Mo	0.13049	0.048	0.06533	1.596
Mof_O 	O 	0.112	0.1395	0.9307	-0.216
Mof_C 	C 	0.0837	0.117	0.7959	-0.152
Mof_C 	C 	0.0223	0.1504	0.7438	-0.742
Mof_H 	H 	0.9695	0.1495	0.7333	0.238
Mof_H 	H 	0.0644	0.1408	0.7295	0.23
Mof_H 	H 	0.0345	0.1774	0.7499	0.234
Mof_C 	C 	0.8129	0.2367	0.7642	0.197
Mof_C 	C 	0.8674	0.197	0.8013	0.227
Mof_C 	C 	0.8413	0.302	0.8251	0.137
Mof_C 	C 	0.0478	0.2636	0.8055	-0.654
Mof_H 	H 	0.0934	0.2785	0.8142	0.193
Mof_H 	H 	0.0505	0.2639	0.7825	0.206
Mof_H 	H 	0.0507	0.2365	0.813	0.184
Mof_C 	C 	0.7808	0.2696	0.7436	-0.602
Mof_H 	H 	0.7524	0.2586	0.7254	0.163
Mof_H 	H 	0.8261	0.2858	0.7363	0.19
Mof_H 	H 	0.7431	0.2858	0.7559	0.166
Mof_C 	C 	0.0489	0.0923	0.8189	0.225
Mof_C 	C 	0.911	0.18	0.8303	-0.686
Mof_H 	H 	0.9085	0.1514	0.8296	0.205
Mof_H 	H 	0.8844	0.1894	0.8495	0.206
Mof_H 	H 	0.9678	0.1884	0.8303	0.208
Mof_C 	C 	0.888	0.2715	0.8106	-0.113
Mof_C 	C 	0.0817	0.0747	0.8489	-0.676
Mof_H 	H 	0.0397	0.0586	0.8588	0.197
Mof_H 	H 	0.0981	0.0956	0.8633	0.222
Mof_H 	H 	0.1288	0.0583	0.8439	0.189
Mof_C 	C 	0.8575	0.2364	0.793	-0.151
Mof_C 	C 	0.02	0.1243	0.7736	0.235
Mof_C 	C 	0.7494	0.3039	0.8252	-0.401
Mof_H 	H 	0.7317	0.3273	0.8366	0.021
Mof_H 	H 	0.7276	0.2805	0.8356	0.092
Mof_H 	H 	0.7295	0.305	0.8035	0.108
Mof_C 	C 	0.9688	0.2818	0.8163	0.207
Mof_N 	N 	0.8307	0.1736	0.779	-0.238
Mof_N 	N 	0.7981	0.1984	0.7571	-0.146
Mof_N 	N 	0.9702	0.0857	0.8095	-0.174
Mof_N 	N 	0.8903	0.3285	0.8394	-0.258
Mof_N 	N 	0.9681	0.3157	0.8335	-0.194
Mof_N 	N 	0.9507	0.105	0.7819	-0.269
Mof_O 	O 	0.6967	0.116	0.7613	-0.661
Mof_O 	O 	0.6804	0.1512	0.64624	-0.615
Mof_O 	O 	0.7069	0.1663	0.7082	-0.888
Mof_O 	O 	0.7191	0.2249	0.6622	-0.722
Mof_O 	O 	0.8172	0.0902	0.6532	-0.969
Mof_O 	O 	0.8395	0.165	0.65721	-0.925
Mof_O 	O 	0.5536	0.215	0.65227	-0.725
Mof_O 	O 	0.682	0.0993	0.7986	-0.415
Mof_O 	O 	0.6939	0.091	0.69787	-0.988
Mof_O 	O 	0.8434	0.1224	0.7173	-0.824
Mof_Co	Co	0.82734	0.11206	0.76866	1.11
Mof_Mo	Mo	0.78053	0.12745	0.68664	2.068
Mof_Mo	Mo	0.7798	0.20221	0.62761	1.524
Mof_Mo	Mo	0.63049	0.202	0.68467	1.596
Mof_O 	O 	0.612	0.1105	0.8193	-0.216
Mof_C 	C 	0.0837	0.617	0.2959	-0.151
Mof_C 	C 	0.0223	0.6504	0.2438	-0.745
Mof_H 	H 	0.9695	0.6495	0.2333	0.24
Mof_H 	H 	0.0644	0.6408	0.2295	0.231
Mof_H 	H 	0.0345	0.6774	0.2499	0.235
Mof_C 	C 	0.8129	0.7367	0.2642	0.197
Mof_C 	C 	0.8674	0.697	0.3013	0.227
Mof_C 	C 	0.8413	0.802	0.3251	0.137
Mof_C 	C 	0.0478	0.7636	0.3055	-0.657
Mof_H 	H 	0.0934	0.7785	0.3142	0.194
Mof_H 	H 	0.0505	0.7639	0.2825	0.207
Mof_H 	H 	0.0507	0.7365	0.313	0.185
Mof_C 	C 	0.7808	0.7696	0.2436	-0.602
Mof_H 	H 	0.7524	0.7586	0.2254	0.163
Mof_H 	H 	0.8261	0.7858	0.2363	0.19
Mof_H 	H 	0.7431	0.7858	0.2559	0.166
Mof_C 	C 	0.0489	0.5923	0.3189	0.223
Mof_C 	C 	0.911	0.68	0.3303	-0.687
Mof_H 	H 	0.9085	0.6514	0.3296	0.205
Mof_H 	H 	0.8844	0.6894	0.3495	0.207
Mof_H 	H 	0.9678	0.6884	0.3303	0.209
Mof_C 	C 	0.888	0.7715	0.3106	-0.113
Mof_C 	C 	0.0817	0.5747	0.3489	-0.674
Mof_H 	H 	0.0397	0.5586	0.3588	0.196
Mof_H 	H 	0.0981	0.5956	0.3633	0.221
Mof_H 	H 	0.1288	0.5583	0.3439	0.188
Mof_C 	C 	0.8575	0.7364	0.293	-0.151
Mof_C 	C 	0.02	0.6243	0.2736	0.235
Mof_C 	C 	0.7494	0.8039	0.3252	-0.401
Mof_H 	H 	0.7317	0.8273	0.3366	0.021
Mof_H 	H 	0.7276	0.7805	0.3356	0.092
Mof_H 	H 	0.7295	0.805	0.3035	0.108
Mof_C 	C 	0.9688	0.7818	0.3163	0.209
Mof_N 	N 	0.8307	0.6736	0.279	-0.238
Mof_N 	N 	0.7981	0.6984	0.2571	-0.146
Mof_N 	N 	0.9702	0.5857	0.3095	-0.173
Mof_N 	N 	0.8903	0.8285	0.3394	-0.258
Mof_N 	N 	0.9681	0.8157	0.3335	-0.194
Mof_N 	N 	0.9507	0.605	0.2819	-0.268
Mof_O 	O 	0.6967	0.616	0.2613	-0.661
Mof_O 	O 	0.6804	0.6512	0.14624	-0.615
Mof_O 	O 	0.7069	0.6663	0.2082	-0.888
Mof_O 	O 	0.7191	0.7249	0.1622	-0.722
Mof_O 	O 	0.8172	0.5902	0.1532	-0.969
Mof_O 	O 	0.8395	0.665	0.15721	-0.925
Mof_O 	O 	0.5536	0.715	0.15227	-0.725
Mof_O 	O 	0.682	0.5993	0.2986	-0.415
Mof_O 	O 	0.6939	0.591	0.19787	-0.988
Mof_O 	O 	0.8434	0.6224	0.2173	-0.824
Mof_Co	Co	0.82734	0.61206	0.26866	1.11
Mof_Mo	Mo	0.78053	0.62745	0.18664	2.068
Mof_Mo	Mo	0.7798	0.70221	0.12761	1.524
Mof_Mo	Mo	0.63049	0.702	0.18467	1.596
Mof_O 	O 	0.612	0.6105	0.3193	-0.216
Mof_C 	C 	0.5837	0.117	0.2959	-0.151
Mof_C 	C 	0.5223	0.1504	0.2438	-0.744
Mof_H 	H 	0.4695	0.1495	0.2333	0.239
Mof_H 	H 	0.5644	0.1408	0.2295	0.231
Mof_H 	H 	0.5345	0.1774	0.2499	0.234
Mof_C 	C 	0.3129	0.2367	0.2642	0.197
Mof_C 	C 	0.3674	0.197	0.3013	0.227
Mof_C 	C 	0.3413	0.302	0.3251	0.137
Mof_C 	C 	0.5478	0.2636	0.3055	-0.656
Mof_H 	H 	0.5934	0.2785	0.3142	0.193
Mof_H 	H 	0.5505	0.2639	0.2825	0.206
Mof_H 	H 	0.5507	0.2365	0.313	0.185
Mof_C 	C 	0.2808	0.2696	0.2436	-0.602
Mof_H 	H 	0.2524	0.2586	0.2254	0.163
Mof_H 	H 	0.3261	0.2858	0.2363	0.19
Mof_H 	H 	0.2431	0.2858	0.2559	0.166
Mof_C 	C 	0.5489	0.0923	0.3189	0.223
Mof_C 	C 	0.411	0.18	0.3303	-0.687
Mof_H 	H 	0.4085	0.1514	0.3296	0.205
Mof_H 	H 	0.3844	0.1894	0.3495	0.207
Mof_H 	H 	0.4678	0.1884	0.3303	0.209
Mof_C 	C 	0.388	0.2715	0.3106	-0.113
Mof_C 	C 	0.5817	0.0747	0.3489	-0.674
Mof_H 	H 	0.5397	0.0586	0.3588	0.196
Mof_H 	H 	0.5981	0.0956	0.3633	0.221
Mof_H 	H 	0.6288	0.0583	0.3439	0.188
Mof_C 	C 	0.3575	0.2364	0.293	-0.151
Mof_C 	C 	0.52	0.1243	0.2736	0.235
Mof_C 	C 	0.2494	0.3039	0.3252	-0.401
Mof_H 	H 	0.2317	0.3273	0.3366	0.021
Mof_H 	H 	0.2276	0.2805	0.3356	0.092
Mof_H 	H 	0.2295	0.305	0.3035	0.108
Mof_C 	C 	0.4688	0.2818	0.3163	0.208
Mof_N 	N 	0.3307	0.1736	0.279	-0.238
Mof_N 	N 	0.2981	0.1984	0.2571	-0.146
Mof_N 	N 	0.4702	0.0857	0.3095	-0.174
Mof_N 	N 	0.3903	0.3285	0.3394	-0.258
Mof_N 	N 	0.4681	0.3157	0.3335	-0.194
Mof_N 	N 	0.4507	0.105	0.2819	-0.268
Mof_O 	O 	0.1967	0.116	0.2613	-0.661
Mof_O 	O 	0.1804	0.1512	0.14624	-0.615
Mof_O 	O 	0.2069	0.1663	0.2082	-0.888
Mof_O 	O 	0.2191	0.2249	0.1622	-0.722
Mof_O 	O 	0.3172	0.0902	0.1532	-0.969
Mof_O 	O 	0.3395	0.165	0.15721	-0.925
Mof_O 	O 	0.0536	0.215	0.15227	-0.724
Mof_O 	O 	0.182	0.0993	0.2986	-0.415
Mof_O 	O 	0.1939	0.091	0.19787	-0.988
Mof_O 	O 	0.3434	0.1224	0.2173	-0.824
Mof_Co	Co	0.32734	0.11206	0.26866	1.11
Mof_Mo	Mo	0.28053	0.12745	0.18664	2.068
Mof_Mo	Mo	0.2798	0.20221	0.12761	1.524
Mof_Mo	Mo	0.13049	0.202	0.18467	1.596
Mof_O 	O 	0.112	0.1105	0.3193	-0.216
Mof_C 	C 	0.5837	0.617	0.7959	-0.151
Mof_C 	C 	0.5223	0.6504	0.7438	-0.744
Mof_H 	H 	0.4695	0.6495	0.7333	0.239
Mof_H 	H 	0.5644	0.6408	0.7295	0.231
Mof_H 	H 	0.5345	0.6774	0.7499	0.234
Mof_C 	C 	0.3129	0.7367	0.7642	0.197
Mof_C 	C 	0.3674	0.697	0.8013	0.227
Mof_C 	C 	0.3413	0.802	0.8251	0.137
Mof_C 	C 	0.5478	0.7636	0.8055	-0.656
Mof_H 	H 	0.5934	0.7785	0.8142	0.193
Mof_H 	H 	0.5505	0.7639	0.7825	0.206
Mof_H 	H 	0.5507	0.7365	0.813	0.185
Mof_C 	C 	0.2808	0.7696	0.7436	-0.602
Mof_H 	H 	0.2524	0.7586	0.7254	0.163
Mof_H 	H 	0.3261	0.7858	0.7363	0.19
Mof_H 	H 	0.2431	0.7858	0.7559	0.166
Mof_C 	C 	0.5489	0.5923	0.8189	0.223
Mof_C 	C 	0.411	0.68	0.8303	-0.687
Mof_H 	H 	0.4085	0.6514	0.8296	0.205
Mof_H 	H 	0.3844	0.6894	0.8495	0.207
Mof_H 	H 	0.4678	0.6884	0.8303	0.209
Mof_C 	C 	0.388	0.7715	0.8106	-0.113
Mof_C 	C 	0.5817	0.5747	0.8489	-0.675
Mof_H 	H 	0.5397	0.5586	0.8588	0.197
Mof_H 	H 	0.5981	0.5956	0.8633	0.221
Mof_H 	H 	0.6288	0.5583	0.8439	0.188
Mof_C 	C 	0.3575	0.7364	0.793	-0.151
Mof_C 	C 	0.52	0.6243	0.7736	0.235
Mof_C 	C 	0.2494	0.8039	0.8252	-0.401
Mof_H 	H 	0.2317	0.8273	0.8366	0.021
Mof_H 	H 	0.2276	0.7805	0.8356	0.092
Mof_H 	H 	0.2295	0.805	0.8035	0.108
Mof_C 	C 	0.4688	0.7818	0.8163	0.208
Mof_N 	N 	0.3307	0.6736	0.779	-0.238
Mof_N 	N 	0.2981	0.6984	0.7571	-0.146
Mof_N 	N 	0.4702	0.5857	0.8095	-0.174
Mof_N 	N 	0.3903	0.8285	0.8394	-0.258
Mof_N 	N 	0.4681	0.8157	0.8335	-0.194
Mof_N 	N 	0.4507	0.605	0.7819	-0.268
Mof_O 	O 	0.1967	0.616	0.7613	-0.661
Mof_O 	O 	0.1804	0.6512	0.64624	-0.615
Mof_O 	O 	0.2069	0.6663	0.7082	-0.888
Mof_O 	O 	0.2191	0.7249	0.6622	-0.722
Mof_O 	O 	0.3172	0.5902	0.6532	-0.969
Mof_O 	O 	0.3395	0.665	0.65721	-0.925
Mof_O 	O 	0.0536	0.715	0.65227	-0.725
Mof_O 	O 	0.182	0.5993	0.7986	-0.415
Mof_O 	O 	0.1939	0.591	0.69787	-0.988
Mof_O 	O 	0.3434	0.6224	0.7173	-0.824
Mof_Co	Co	0.32734	0.61206	0.76866	1.11
Mof_Mo	Mo	0.28053	0.62745	0.68664	2.068
Mof_Mo	Mo	0.2798	0.70221	0.62761	1.524
Mof_Mo	Mo	0.13049	0.702	0.68467	1.596
Mof_O 	O 	0.112	0.6105	0.8193	-0.216
Mof_C 	C 	0.6663	0.633	0.7959	-0.151
Mof_C 	C 	0.7277	0.5996	0.7438	-0.744
Mof_H 	H 	0.7805	0.6005	0.7333	0.239
Mof_H 	H 	0.6856	0.6092	0.7295	0.231
Mof_H 	H 	0.7155	0.5726	0.7499	0.234
Mof_C 	C 	0.9371	0.5133	0.7642	0.198
Mof_C 	C 	0.8826	0.553	0.8013	0.227
Mof_C 	C 	0.9087	0.448	0.8251	0.137
Mof_C 	C 	0.7022	0.4864	0.8055	-0.656
Mof_H 	H 	0.6566	0.4715	0.8142	0.193
Mof_H 	H 	0.6995	0.4861	0.7825	0.206
Mof_H 	H 	0.6993	0.5135	0.813	0.185
Mof_C 	C 	0.9692	0.4804	0.7436	-0.604
Mof_H 	H 	0.9976	0.4914	0.7254	0.163
Mof_H 	H 	0.9239	0.4642	0.7363	0.19
Mof_H 	H 	0.0069	0.4642	0.7559	0.167
Mof_C 	C 	0.7011	0.6577	0.8189	0.224
Mof_C 	C 	0.839	0.57	0.8303	-0.687
Mof_H 	H 	0.8415	0.5986	0.8296	0.205
Mof_H 	H 	0.8656	0.5606	0.8495	0.207
Mof_H 	H 	0.7822	0.5616	0.8303	0.209
Mof_C 	C 	0.862	0.4785	0.8106	-0.113
Mof_C 	C 	0.6683	0.6753	0.8489	-0.675
Mof_H 	H 	0.7103	0.6914	0.8588	0.197
Mof_H 	H 	0.6519	0.6544	0.8633	0.221
Mof_H 	H 	0.6212	0.6917	0.8439	0.188
Mof_C 	C 	0.8925	0.5136	0.793	-0.151
Mof_C 	C 	0.73	0.6257	0.7736	0.235
Mof_C 	C 	0.0006	0.4461	0.8252	-0.401
Mof_H 	H 	0.0183	0.4227	0.8366	0.021
Mof_H 	H 	0.0224	0.4695	0.8356	0.092
Mof_H 	H 	0.0205	0.445	0.8035	0.108
Mof_C 	C 	0.7812	0.4682	0.8163	0.208
Mof_N 	N 	0.9193	0.5764	0.779	-0.238
Mof_N 	N 	0.9519	0.5516	0.7571	-0.146
Mof_N 	N 	0.7798	0.6643	0.8095	-0.174
Mof_N 	N 	0.8597	0.4215	0.8394	-0.258
Mof_N 	N 	0.7819	0.4343	0.8335	-0.194
Mof_N 	N 	0.7993	0.645	0.7819	-0.268
Mof_O 	O 	0.0533	0.634	0.7613	-0.661
Mof_O 	O 	0.0696	0.5988	0.64624	-0.615
Mof_O 	O 	0.0431	0.5837	0.7082	-0.888
Mof_O 	O 	0.0309	0.5251	0.6622	-0.721
Mof_O 	O 	0.9328	0.6598	0.6532	-0.969
Mof_O 	O 	0.9105	0.585	0.65721	-0.925
Mof_O 	O 	0.1964	0.535	0.65227	-0.725
Mof_O 	O 	0.068	0.6507	0.7986	-0.416
Mof_O 	O 	0.0561	0.659	0.69787	-0.988
Mof_O 	O 	0.9066	0.6276	0.7173	-0.824
Mof_Co	Co	0.92266	0.63794	0.76866	1.11
Mof_Mo	Mo	0.96947	0.62255	0.68664	2.068
Mof_Mo	Mo	0.9702	0.54779	0.62761	1.523
Mof_Mo	Mo	0.11951	0.548	0.68467	1.596
Mof_O 	O 	0.138	0.6395	0.8193	-0.216
Mof_C 	C 	0.6663	0.133	0.2959	-0.151
Mof_C 	C 	0.7277	0.0996	0.2438	-0.744
Mof_H 	H 	0.7805	0.1005	0.2333	0.239
Mof_H 	H 	0.6856	0.1092	0.2295	0.231
Mof_H 	H 	0.7155	0.0726	0.2499	0.234
Mof_C 	C 	0.9371	0.0133	0.2642	0.194
Mof_C 	C 	0.8826	0.053	0.3013	0.227
Mof_C 	C 	0.9087	0.948	0.3251	0.138
Mof_C 	C 	0.7022	0.9864	0.3055	-0.653
Mof_H 	H 	0.6566	0.9715	0.3142	0.193
Mof_H 	H 	0.6995	0.9861	0.2825	0.206
Mof_H 	H 	0.6993	0.0135	0.313	0.183
Mof_C 	C 	0.9692	0.9804	0.2436	-0.594
Mof_H 	H 	0.9976	0.9914	0.2254	0.161
Mof_H 	H 	0.9239	0.9642	0.2363	0.188
Mof_H 	H 	0.0069	0.9642	0.2559	0.163
Mof_C 	C 	0.7011	0.1577	0.3189	0.223
Mof_C 	C 	0.839	0.07	0.3303	-0.686
Mof_H 	H 	0.8415	0.0986	0.3296	0.205
Mof_H 	H 	0.8656	0.0606	0.3495	0.206
Mof_H 	H 	0.7822	0.0616	0.3303	0.208
Mof_C 	C 	0.862	0.9785	0.3106	-0.112
Mof_C 	C 	0.6683	0.1753	0.3489	-0.674
Mof_H 	H 	0.7103	0.1914	0.3588	0.196
Mof_H 	H 	0.6519	0.1544	0.3633	0.221
Mof_H 	H 	0.6212	0.1917	0.3439	0.188
Mof_C 	C 	0.8925	0.0136	0.293	-0.151
Mof_C 	C 	0.73	0.1257	0.2736	0.235
Mof_C 	C 	0.0006	0.9461	0.3252	-0.403
Mof_H 	H 	0.0183	0.9227	0.3366	0.021
Mof_H 	H 	0.0224	0.9695	0.3356	0.093
Mof_H 	H 	0.0205	0.945	0.3035	0.108
Mof_C 	C 	0.7812	0.9682	0.3163	0.207
Mof_N 	N 	0.9193	0.0764	0.279	-0.238
Mof_N 	N 	0.9519	0.0516	0.2571	-0.146
Mof_N 	N 	0.7798	0.1643	0.3095	-0.174
Mof_N 	N 	0.8597	0.9215	0.3394	-0.259
Mof_N 	N 	0.7819	0.9343	0.3335	-0.194
Mof_N 	N 	0.7993	0.145	0.2819	-0.268
Mof_O 	O 	0.0533	0.134	0.2613	-0.661
Mof_O 	O 	0.0696	0.0988	0.14624	-0.614
Mof_O 	O 	0.0431	0.0837	0.2082	-0.887
Mof_O 	O 	0.0309	0.0251	0.1622	-0.72
Mof_O 	O 	0.9328	0.1598	0.1532	-0.969
Mof_O 	O 	0.9105	0.085	0.15721	-0.924
Mof_O 	O 	0.1964	0.035	0.15227	-0.725
Mof_O 	O 	0.068	0.1507	0.2986	-0.415
Mof_O 	O 	0.0561	0.159	0.19787	-0.987
Mof_O 	O 	0.9066	0.1276	0.2173	-0.824
Mof_Co	Co	0.92266	0.13794	0.26866	1.11
Mof_Mo	Mo	0.96947	0.12255	0.18664	2.064
Mof_Mo	Mo	0.9702	0.04779	0.12761	1.52
Mof_Mo	Mo	0.11951	0.048	0.18467	1.596
Mof_O 	O 	0.138	0.1395	0.3193	-0.216
Mof_C 	C 	0.1663	0.633	0.2959	-0.151
Mof_C 	C 	0.2277	0.5996	0.2438	-0.744
Mof_H 	H 	0.2805	0.6005	0.2333	0.239
Mof_H 	H 	0.1856	0.6092	0.2295	0.231
Mof_H 	H 	0.2155	0.5726	0.2499	0.234
Mof_C 	C 	0.4371	0.5133	0.2642	0.197
Mof_C 	C 	0.3826	0.553	0.3013	0.227
Mof_C 	C 	0.4087	0.448	0.3251	0.137
Mof_C 	C 	0.2022	0.4864	0.3055	-0.656
Mof_H 	H 	0.1566	0.4715	0.3142	0.193
Mof_H 	H 	0.1995	0.4861	0.2825	0.206
Mof_H 	H 	0.1993	0.5135	0.313	0.185
Mof_C 	C 	0.4692	0.4804	0.2436	-0.602
Mof_H 	H 	0.4976	0.4914	0.2254	0.163
Mof_H 	H 	0.4239	0.4642	0.2363	0.19
Mof_H 	H 	0.5069	0.4642	0.2559	0.166
Mof_C 	C 	0.2011	0.6577	0.3189	0.223
Mof_C 	C 	0.339	0.57	0.3303	-0.687
Mof_H 	H 	0.3415	0.5986	0.3296	0.205
Mof_H 	H 	0.3656	0.5606	0.3495	0.207
Mof_H 	H 	0.2822	0.5616	0.3303	0.209
Mof_C 	C 	0.362	0.4785	0.3106	-0.113
Mof_C 	C 	0.1683	0.6753	0.3489	-0.674
Mof_H 	H 	0.2103	0.6914	0.3588	0.196
Mof_H 	H 	0.1519	0.6544	0.3633	0.221
Mof_H 	H 	0.1212	0.6917	0.3439	0.188
Mof_C 	C 	0.3925	0.5136	0.293	-0.151
Mof_C 	C 	0.23	0.6257	0.2736	0.235
Mof_C 	C 	0.5006	0.4461	0.3252	-0.401
Mof_H 	H 	0.5183	0.4227	0.3366	0.021
Mof_H 	H 	0.5224	0.4695	0.3356	0.092
Mof_H 	H 	0.5205	0.445	0.3035	0.108
Mof_C 	C 	0.2812	0.4682	0.3163	0.208
Mof_N 	N 	0.4193	0.5764	0.279	-0.238
Mof_N 	N 	0.4519	0.5516	0.2571	-0.146
Mof_N 	N 	0.2798	0.6643	0.3095	-0.174
Mof_N 	N 	0.3597	0.4215	0.3394	-0.258
Mof_N 	N 	0.2819	0.4343	0.3335	-0.194
Mof_N 	N 	0.2993	0.645	0.2819	-0.268
Mof_O 	O 	0.5533	0.634	0.2613	-0.661
Mof_O 	O 	0.5696	0.5988	0.14624	-0.615
Mof_O 	O 	0.5431	0.5837	0.2082	-0.888
Mof_O 	O 	0.5309	0.5251	0.1622	-0.722
Mof_O 	O 	0.4328	0.6598	0.1532	-0.969
Mof_O 	O 	0.4105	0.585	0.15721	-0.925
Mof_O 	O 	0.6964	0.535	0.15227	-0.725
Mof_O 	O 	0.568	0.6507	0.2986	-0.415
Mof_O 	O 	0.5561	0.659	0.19787	-0.988
Mof_O 	O 	0.4066	0.6276	0.2173	-0.824
Mof_Co	Co	0.42266	0.63794	0.26866	1.11
Mof_Mo	Mo	0.46947	0.62255	0.18664	2.068
Mof_Mo	Mo	0.4702	0.54779	0.12761	1.524
Mof_Mo	Mo	0.61951	0.548	0.18467	1.596
Mof_O 	O 	0.638	0.6395	0.3193	-0.216
Mof_C 	C 	0.1663	0.133	0.7959	-0.151
Mof_C 	C 	0.2277	0.0996	0.7438	-0.744
Mof_H 	H 	0.2805	0.1005	0.7333	0.239
Mof_H 	H 	0.1856	0.1092	0.7295	0.231
Mof_H 	H 	0.2155	0.0726	0.7499	0.235
Mof_C 	C 	0.4371	0.0133	0.7642	0.197
Mof_C 	C 	0.3826	0.053	0.8013	0.227
Mof_C 	C 	0.4087	0.948	0.8251	0.138
Mof_C 	C 	0.2022	0.9864	0.8055	-0.66
Mof_H 	H 	0.1566	0.9715	0.8142	0.195
Mof_H 	H 	0.1995	0.9861	0.7825	0.207
Mof_H 	H 	0.1993	0.0135	0.813	0.186
Mof_C 	C 	0.4692	0.9804	0.7436	-0.602
Mof_H 	H 	0.4976	0.9914	0.7254	0.163
Mof_H 	H 	0.4239	0.9642	0.7363	0.19
Mof_H 	H 	0.5069	0.9642	0.7559	0.166
Mof_C 	C 	0.2011	0.1577	0.8189	0.224
Mof_C 	C 	0.339	0.07	0.8303	-0.686
Mof_H 	H 	0.3415	0.0986	0.8296	0.205
Mof_H 	H 	0.3656	0.0606	0.8495	0.207
Mof_H 	H 	0.2822	0.0616	0.8303	0.208
Mof_C 	C 	0.362	0.9785	0.8106	-0.114
Mof_C 	C 	0.1683	0.1753	0.8489	-0.675
Mof_H 	H 	0.2103	0.1914	0.8588	0.197
Mof_H 	H 	0.1519	0.1544	0.8633	0.221
Mof_H 	H 	0.1212	0.1917	0.8439	0.188
Mof_C 	C 	0.3925	0.0136	0.793	-0.15
Mof_C 	C 	0.23	0.1257	0.7736	0.235
Mof_C 	C 	0.5006	0.9461	0.8252	-0.402
Mof_H 	H 	0.5183	0.9227	0.8366	0.021
Mof_H 	H 	0.5224	0.9695	0.8356	0.092
Mof_H 	H 	0.5205	0.945	0.8035	0.108
Mof_C 	C 	0.2812	0.9682	0.8163	0.209
Mof_N 	N 	0.4193	0.0764	0.779	-0.237
Mof_N 	N 	0.4519	0.0516	0.7571	-0.146
Mof_N 	N 	0.2798	0.1643	0.8095	-0.174
Mof_N 	N 	0.3597	0.9215	0.8394	-0.259
Mof_N 	N 	0.2819	0.9343	0.8335	-0.194
Mof_N 	N 	0.2993	0.145	0.7819	-0.268
Mof_O 	O 	0.5533	0.134	0.7613	-0.661
Mof_O 	O 	0.5696	0.0988	0.64624	-0.615
Mof_O 	O 	0.5431	0.0837	0.7082	-0.888
Mof_O 	O 	0.5309	0.0251	0.6622	-0.722
Mof_O 	O 	0.4328	0.1598	0.6532	-0.969
Mof_O 	O 	0.4105	0.085	0.65721	-0.925
Mof_O 	O 	0.6964	0.035	0.65227	-0.725
Mof_O 	O 	0.568	0.1507	0.7986	-0.415
Mof_O 	O 	0.5561	0.159	0.69787	-0.988
Mof_O 	O 	0.4066	0.1276	0.7173	-0.824
Mof_Co	Co	0.42266	0.13794	0.76866	1.11
Mof_Mo	Mo	0.46947	0.12255	0.68664	2.068
Mof_Mo	Mo	0.4702	0.04779	0.62761	1.524
Mof_Mo	Mo	0.61951	0.048	0.68467	1.596
Mof_O 	O 	0.638	0.1395	0.8193	-0.216
Mof_V 	V 	0.87529	0.125	0.125	1.674
Mof_V 	V 	0.37529	0.125	0.625	1.674
Mof_V 	V 	0.87471	0.625	0.125	1.674
Mof_V 	V 	0.37471	0.625	0.625	1.674
Mof_V 	V 	0.87471	0.125	0.625	1.674
Mof_V 	V 	0.37471	0.125	0.125	1.674
Mof_V 	V 	0.87529	0.625	0.625	1.674
Mof_V 	V 	0.37529	0.625	0.125	1.674
Mof_P 	P 	0.125	0.125	0.125	0.666
Mof_P 	P 	0.625	0.625	0.125	0.666
Mof_P 	P 	0.625	0.125	0.625	0.666
Mof_P 	P 	0.125	0.625	0.625	0.666
Mof_V 	V 	0.125	0.125	0.02629	1.758
Mof_S 	S 	0.125	0.125	0.9611	0.972
Mof_V 	V 	0.125	0.625	0.52629	1.758
Mof_S 	S 	0.125	0.625	0.4611	0.972
Mof_V 	V 	0.625	0.625	0.02629	1.758
Mof_S 	S 	0.625	0.625	0.9611	0.972
Mof_V 	V 	0.625	0.125	0.52629	1.758
Mof_S 	S 	0.625	0.125	0.4611	0.972
Mof_V 	V 	0.625	0.125	0.72371	1.758
Mof_S 	S 	0.625	0.125	0.7889	0.973
Mof_V 	V 	0.625	0.625	0.22371	1.758
Mof_S 	S 	0.625	0.625	0.2889	0.972
Mof_V 	V 	0.125	0.625	0.72371	1.758
Mof_S 	S 	0.125	0.625	0.7889	0.973
Mof_V 	V 	0.125	0.125	0.22371	1.758
Mof_S 	S 	0.125	0.125	0.2889	0.972
Mof_Co	Co	0.375	0.875	0.875	1.022
Mof_Co	Co	0.875	0.375	0.875	1.022
Mof_Co	Co	0.875	0.875	0.375	1.022
Mof_Co	Co	0.375	0.375	0.375	1.022
Mof_C 	C 	0.3337	0.883	0.0459	-0.151
Mof_C 	C 	0.2723	0.8496	0.9938	-0.744
Mof_H 	H 	0.2195	0.8505	0.9833	0.239
Mof_H 	H 	0.3144	0.8592	0.9795	0.231
Mof_H 	H 	0.2845	0.8226	0.9999	0.235
Mof_C 	C 	0.0629	0.7633	0.0142	0.198
Mof_C 	C 	0.1174	0.803	0.0513	0.227
Mof_C 	C 	0.0913	0.698	0.0751	0.136
Mof_C 	C 	0.2978	0.7364	0.0555	-0.656
Mof_H 	H 	0.3434	0.7215	0.0642	0.193
Mof_H 	H 	0.3005	0.7361	0.0325	0.206
Mof_H 	H 	0.3007	0.7635	0.063	0.185
Mof_C 	C 	0.0308	0.7304	0.9936	-0.606
Mof_H 	H 	0.0024	0.7414	0.9754	0.164
Mof_H 	H 	0.0761	0.7142	0.9863	0.191
Mof_H 	H 	0.9931	0.7142	0.0059	0.168
Mof_C 	C 	0.2989	0.9077	0.0689	0.223
Mof_C 	C 	0.161	0.82	0.0803	-0.687
Mof_H 	H 	0.1585	0.8486	0.0796	0.205
Mof_H 	H 	0.1344	0.8106	0.0995	0.207
Mof_H 	H 	0.2178	0.8116	0.0803	0.209
Mof_C 	C 	0.138	0.7285	0.0606	-0.113
Mof_C 	C 	0.3317	0.9253	0.0989	-0.674
Mof_H 	H 	0.2897	0.9414	0.1088	0.196
Mof_H 	H 	0.3481	0.9044	0.1133	0.221
Mof_H 	H 	0.3788	0.9417	0.0939	0.188
Mof_C 	C 	0.1075	0.7636	0.043	-0.152
Mof_C 	C 	0.27	0.8757	0.0236	0.235
Mof_C 	C 	0.9994	0.6961	0.0752	-0.4
Mof_H 	H 	0.9817	0.6727	0.0866	0.02
Mof_H 	H 	0.9776	0.7195	0.0856	0.092
Mof_H 	H 	0.9795	0.695	0.0535	0.107
Mof_C 	C 	0.2188	0.7182	0.0663	0.208
Mof_N 	N 	0.0807	0.8264	0.029	-0.238
Mof_N 	N 	0.0481	0.8016	0.0071	-0.147
Mof_N 	N 	0.2202	0.9143	0.0595	-0.174
Mof_N 	N 	0.1403	0.6715	0.0894	-0.258
Mof_N 	N 	0.2181	0.6843	0.0835	-0.194
Mof_N 	N 	0.2007	0.895	0.0319	-0.269
Mof_O 	O 	0.9467	0.884	0.0113	-0.661
Mof_O 	O 	0.9304	0.8488	0.89624	-0.614
Mof_O 	O 	0.9569	0.8337	0.9582	-0.887
Mof_O 	O 	0.9691	0.7751	0.9122	-0.721
Mof_O 	O 	0.0672	0.9098	0.9032	-0.969
Mof_O 	O 	0.0895	0.835	0.90721	-0.924
Mof_O 	O 	0.8036	0.785	0.90227	-0.725
Mof_O 	O 	0.932	0.9007	0.0486	-0.415
Mof_O 	O 	0.9439	0.909	0.94787	-0.987
Mof_O 	O 	0.0934	0.8776	0.9673	-0.824
Mof_Co	Co	0.07734	0.88794	0.01866	1.11
Mof_Mo	Mo	0.03053	0.87255	0.93664	2.064
Mof_Mo	Mo	0.0298	0.79779	0.87761	1.521
Mof_Mo	Mo	0.88049	0.798	0.93467	1.596
Mof_O 	O 	0.862	0.8895	0.0693	-0.216
Mof_C 	C 	0.3337	0.383	0.5459	-0.151
Mof_C 	C 	0.2723	0.3496	0.4938	-0.744
Mof_H 	H 	0.2195	0.3505	0.4833	0.239
Mof_H 	H 	0.3144	0.3592	0.4795	0.231
Mof_H 	H 	0.2845	0.3226	0.4999	0.234
Mof_C 	C 	0.0629	0.2633	0.5142	0.197
Mof_C 	C 	0.1174	0.303	0.5513	0.227
Mof_C 	C 	0.0913	0.198	0.5751	0.138
Mof_C 	C 	0.2978	0.2364	0.5555	-0.656
Mof_H 	H 	0.3434	0.2215	0.5642	0.193
Mof_H 	H 	0.3005	0.2361	0.5325	0.206
Mof_H 	H 	0.3007	0.2635	0.563	0.185
Mof_C 	C 	0.0308	0.2304	0.4936	-0.6
Mof_H 	H 	0.0024	0.2414	0.4754	0.163
Mof_H 	H 	0.0761	0.2142	0.4863	0.19
Mof_H 	H 	0.9931	0.2142	0.5059	0.165
Mof_C 	C 	0.2989	0.4077	0.5689	0.224
Mof_C 	C 	0.161	0.32	0.5803	-0.686
Mof_H 	H 	0.1585	0.3486	0.5796	0.205
Mof_H 	H 	0.1344	0.3106	0.5995	0.207
Mof_H 	H 	0.2178	0.3116	0.5803	0.208
Mof_C 	C 	0.138	0.2285	0.5606	-0.113
Mof_C 	C 	0.3317	0.4253	0.5989	-0.675
Mof_H 	H 	0.2897	0.4414	0.6088	0.197
Mof_H 	H 	0.3481	0.4044	0.6133	0.221
Mof_H 	H 	0.3788	0.4417	0.5939	0.188
Mof_C 	C 	0.1075	0.2636	0.543	-0.151
Mof_C 	C 	0.27	0.3757	0.5236	0.235
Mof_C 	C 	0.9994	0.1961	0.5752	-0.403
Mof_H 	H 	0.9817	0.1727	0.5866	0.021
Mof_H 	H 	0.9776	0.2195	0.5856	0.093
Mof_H 	H 	0.9795	0.195	0.5535	0.108
Mof_C 	C 	0.2188	0.2182	0.5663	0.208
Mof_N 	N 	0.0807	0.3264	0.529	-0.237
Mof_N 	N 	0.0481	0.3016	0.5071	-0.146
Mof_N 	N 	0.2202	0.4143	0.5595	-0.174
Mof_N 	N 	0.1403	0.1715	0.5894	-0.259
Mof_N 	N 	0.2181	0.1843	0.5835	-0.194
Mof_N 	N 	0.2007	0.395	0.5319	-0.268
Mof_O 	O 	0.9467	0.384	0.5113	-0.661
Mof_O 	O 	0.9304	0.3488	0.39624	-0.615
Mof_O 	O 	0.9569	0.3337	0.4582	-0.888
Mof_O 	O 	0.9691	0.2751	0.4122	-0.722
Mof_O 	O 	0.0672	0.4098	0.4032	-0.969
Mof_O 	O 	0.0895	0.335	0.40721	-0.925
Mof_O 	O 	0.8036	0.285	0.40227	-0.725
Mof_O 	O 	0.932	0.4007	0.5486	-0.415
Mof_O 	O 	0.9439	0.409	0.44787	-0.988
Mof_O 	O 	0.0934	0.3776	0.4673	-0.824
Mof_Co	Co	0.07734	0.38794	0.51866	1.11
Mof_Mo	Mo	0.03053	0.37255	0.43664	2.068
Mof_Mo	Mo	0.0298	0.29779	0.37761	1.524
Mof_Mo	Mo	0.88049	0.298	0.43467	1.596
Mof_O 	O 	0.862	0.3895	0.5693	-0.216
Mof_C 	C 	0.8337	0.883	0.5459	-0.151
Mof_C 	C 	0.7723	0.8496	0.4938	-0.744
Mof_H 	H 	0.7195	0.8505	0.4833	0.239
Mof_H 	H 	0.8144	0.8592	0.4795	0.231
Mof_H 	H 	0.7845	0.8226	0.4999	0.235
Mof_C 	C 	0.5629	0.7633	0.5142	0.197
Mof_C 	C 	0.6174	0.803	0.5513	0.227
Mof_C 	C 	0.5913	0.698	0.5751	0.137
Mof_C 	C 	0.7978	0.7364	0.5555	-0.656
Mof_H 	H 	0.8434	0.7215	0.5642	0.193
Mof_H 	H 	0.8005	0.7361	0.5325	0.206
Mof_H 	H 	0.8007	0.7635	0.563	0.185
Mof_C 	C 	0.5308	0.7304	0.4936	-0.602
Mof_H 	H 	0.5024	0.7414	0.4754	0.163
Mof_H 	H 	0.5761	0.7142	0.4863	0.19
Mof_H 	H 	0.4931	0.7142	0.5059	0.166
Mof_C 	C 	0.7989	0.9077	0.5689	0.224
Mof_C 	C 	0.661	0.82	0.5803	-0.687
Mof_H 	H 	0.6585	0.8486	0.5796	0.205
Mof_H 	H 	0.6344	0.8106	0.5995	0.207
Mof_H 	H 	0.7178	0.8116	0.5803	0.208
Mof_C 	C 	0.638	0.7285	0.5606	-0.113
Mof_C 	C 	0.8317	0.9253	0.5989	-0.675
Mof_H 	H 	0.7897	0.9414	0.6088	0.197
Mof_H 	H 	0.8481	0.9044	0.6133	0.221
Mof_H 	H 	0.8788	0.9417	0.5939	0.188
Mof_C 	C 	0.6075	0.7636	0.543	-0.151
Mof_C 	C 	0.77	0.8757	0.5236	0.235
Mof_C 	C 	0.4994	0.6961	0.5752	-0.401
Mof_H 	H 	0.4817	0.6727	0.5866	0.021
Mof_H 	H 	0.4776	0.7195	0.5856	0.092
Mof_H 	H 	0.4795	0.695	0.5535	0.108
Mof_C 	C 	0.7188	0.7182	0.5663	0.208
Mof_N 	N 	0.5807	0.8264	0.529	-0.238
Mof_N 	N 	0.5481	0.8016	0.5071	-0.146
Mof_N 	N 	0.7202	0.9143	0.5595	-0.174
Mof_N 	N 	0.6403	0.6715	0.5894	-0.258
Mof_N 	N 	0.7181	0.6843	0.5835	-0.194
Mof_N 	N 	0.7007	0.895	0.5319	-0.268
Mof_O 	O 	0.4467	0.884	0.5113	-0.661
Mof_O 	O 	0.4304	0.8488	0.39624	-0.615
Mof_O 	O 	0.4569	0.8337	0.4582	-0.888
Mof_O 	O 	0.4691	0.7751	0.4122	-0.722
Mof_O 	O 	0.5672	0.9098	0.4032	-0.969
Mof_O 	O 	0.5895	0.835	0.40721	-0.925
Mof_O 	O 	0.3036	0.785	0.40227	-0.725
Mof_O 	O 	0.432	0.9007	0.5486	-0.415
Mof_O 	O 	0.4439	0.909	0.44787	-0.988
Mof_O 	O 	0.5934	0.8776	0.4673	-0.824
Mof_Co	Co	0.57734	0.88794	0.51866	1.11
Mof_Mo	Mo	0.53053	0.87255	0.43664	2.068
Mof_Mo	Mo	0.5298	0.79779	0.37761	1.524
Mof_Mo	Mo	0.38049	0.798	0.43467	1.596
Mof_O 	O 	0.362	0.8895	0.5693	-0.216
Mof_C 	C 	0.8337	0.383	0.0459	-0.152
Mof_C 	C 	0.7723	0.3496	0.9938	-0.743
Mof_H 	H 	0.7195	0.3505	0.9833	0.239
Mof_H 	H 	0.8144	0.3592	0.9795	0.231
Mof_H 	H 	0.7845	0.3226	0.9999	0.234
Mof_C 	C 	0.5629	0.2633	0.0142	0.197
Mof_C 	C 	0.6174	0.303	0.0513	0.227
Mof_C 	C 	0.5913	0.198	0.0751	0.137
Mof_C 	C 	0.7978	0.2364	0.0555	-0.656
Mof_H 	H 	0.8434	0.2215	0.0642	0.193
Mof_H 	H 	0.8005	0.2361	0.0325	0.206
Mof_H 	H 	0.8007	0.2635	0.063	0.185
Mof_C 	C 	0.5308	0.2304	0.9936	-0.602
Mof_H 	H 	0.5024	0.2414	0.9754	0.163
Mof_H 	H 	0.5761	0.2142	0.9863	0.19
Mof_H 	H 	0.4931	0.2142	0.0059	0.166
Mof_C 	C 	0.7989	0.4077	0.0689	0.224
Mof_C 	C 	0.661	0.32	0.0803	-0.687
Mof_H 	H 	0.6585	0.3486	0.0796	0.205
Mof_H 	H 	0.6344	0.3106	0.0995	0.207
Mof_H 	H 	0.7178	0.3116	0.0803	0.209
Mof_C 	C 	0.638	0.2285	0.0606	-0.113
Mof_C 	C 	0.8317	0.4253	0.0989	-0.675
Mof_H 	H 	0.7897	0.4414	0.1088	0.197
Mof_H 	H 	0.8481	0.4044	0.1133	0.221
Mof_H 	H 	0.8788	0.4417	0.0939	0.188
Mof_C 	C 	0.6075	0.2636	0.043	-0.151
Mof_C 	C 	0.77	0.3757	0.0236	0.235
Mof_C 	C 	0.4994	0.1961	0.0752	-0.401
Mof_H 	H 	0.4817	0.1727	0.0866	0.021
Mof_H 	H 	0.4776	0.2195	0.0856	0.092
Mof_H 	H 	0.4795	0.195	0.0535	0.108
Mof_C 	C 	0.7188	0.2182	0.0663	0.208
Mof_N 	N 	0.5807	0.3264	0.029	-0.238
Mof_N 	N 	0.5481	0.3016	0.0071	-0.146
Mof_N 	N 	0.7202	0.4143	0.0595	-0.174
Mof_N 	N 	0.6403	0.1715	0.0894	-0.258
Mof_N 	N 	0.7181	0.1843	0.0835	-0.194
Mof_N 	N 	0.7007	0.395	0.0319	-0.268
Mof_O 	O 	0.4467	0.384	0.0113	-0.661
Mof_O 	O 	0.4304	0.3488	0.89624	-0.615
Mof_O 	O 	0.4569	0.3337	0.9582	-0.888
Mof_O 	O 	0.4691	0.2751	0.9122	-0.722
Mof_O 	O 	0.5672	0.4098	0.9032	-0.969
Mof_O 	O 	0.5895	0.335	0.90721	-0.925
Mof_O 	O 	0.3036	0.285	0.90227	-0.725
Mof_O 	O 	0.432	0.4007	0.0486	-0.415
Mof_O 	O 	0.4439	0.409	0.94787	-0.988
Mof_O 	O 	0.5934	0.3776	0.9673	-0.824
Mof_Co	Co	0.57734	0.38794	0.01866	1.11
Mof_Mo	Mo	0.53053	0.37255	0.93664	2.068
Mof_Mo	Mo	0.5298	0.29779	0.87761	1.524
Mof_Mo	Mo	0.38049	0.298	0.93467	1.596
Mof_O 	O 	0.362	0.3895	0.0693	-0.216
Mof_C 	C 	0.9163	0.367	0.0459	-0.151
Mof_C 	C 	0.9777	0.4004	0.9938	-0.743
Mof_H 	H 	0.0305	0.3995	0.9833	0.239
Mof_H 	H 	0.9356	0.3908	0.9795	0.231
Mof_H 	H 	0.9655	0.4274	0.9999	0.234
Mof_C 	C 	0.1871	0.4867	0.0142	0.198
Mof_C 	C 	0.1326	0.447	0.0513	0.228
Mof_C 	C 	0.1587	0.552	0.0751	0.137
Mof_C 	C 	0.9522	0.5136	0.0555	-0.656
Mof_H 	H 	0.9066	0.5285	0.0642	0.193
Mof_H 	H 	0.9495	0.5139	0.0325	0.206
Mof_H 	H 	0.9493	0.4865	0.063	0.184
Mof_C 	C 	0.2192	0.5196	0.9936	-0.603
Mof_H 	H 	0.2476	0.5086	0.9754	0.163
Mof_H 	H 	0.1739	0.5358	0.9863	0.19
Mof_H 	H 	0.2569	0.5358	0.0059	0.167
Mof_C 	C 	0.9511	0.3423	0.0689	0.222
Mof_C 	C 	0.089	0.43	0.0803	-0.687
Mof_H 	H 	0.0915	0.4014	0.0796	0.205
Mof_H 	H 	0.1156	0.4394	0.0995	0.207
Mof_H 	H 	0.0322	0.4384	0.0803	0.209
Mof_C 	C 	0.112	0.5215	0.0606	-0.113
Mof_C 	C 	0.9183	0.3247	0.0989	-0.673
Mof_H 	H 	0.9603	0.3086	0.1088	0.196
Mof_H 	H 	0.9019	0.3456	0.1133	0.221
Mof_H 	H 	0.8712	0.3083	0.0939	0.188
Mof_C 	C 	0.1425	0.4864	0.043	-0.151
Mof_C 	C 	0.98	0.3743	0.0236	0.234
Mof_C 	C 	0.2506	0.5539	0.0752	-0.401
Mof_H 	H 	0.2683	0.5773	0.0866	0.021
Mof_H 	H 	0.2724	0.5305	0.0856	0.092
Mof_H 	H 	0.2705	0.555	0.0535	0.108
Mof_C 	C 	0.0312	0.5318	0.0663	0.208
Mof_N 	N 	0.1693	0.4236	0.029	-0.238
Mof_N 	N 	0.2019	0.4484	0.0071	-0.146
Mof_N 	N 	0.0298	0.3357	0.0595	-0.173
Mof_N 	N 	0.1097	0.5785	0.0894	-0.258
Mof_N 	N 	0.0319	0.5657	0.0835	-0.194
Mof_N 	N 	0.0493	0.355	0.0319	-0.268
Mof_O 	O 	0.3033	0.366	0.0113	-0.661
Mof_O 	O 	0.3196	0.4012	0.89624	-0.615
Mof_O 	O 	0.2931	0.4163	0.9582	-0.888
Mof_O 	O 	0.2809	0.4749	0.9122	-0.722
Mof_O 	O 	0.1828	0.3402	0.9032	-0.969
Mof_O 	O 	0.1605	0.415	0.90721	-0.925
Mof_O 	O 	0.4464	0.465	0.90227	-0.725
Mof_O 	O 	0.318	0.3493	0.0486	-0.415
Mof_O 	O 	0.3061	0.341	0.94787	-0.988
Mof_O 	O 	0.1566	0.3724	0.9673	-0.824
Mof_Co	Co	0.17266	0.36206	0.01866	1.11
Mof_Mo	Mo	0.21947	0.37745	0.93664	2.068
Mof_Mo	Mo	0.2202	0.45221	0.87761	1.524
Mof_Mo	Mo	0.36951	0.452	0.93467	1.596
Mof_O 	O 	0.388	0.3605	0.0693	-0.216
Mof_C 	C 	0.9163	0.867	0.5459	-0.151
Mof_C 	C 	0.9777	0.9004	0.4938	-0.741
Mof_H 	H 	0.0305	0.8995	0.4833	0.238
Mof_H 	H 	0.9356	0.8908	0.4795	0.23
Mof_H 	H 	0.9655	0.9274	0.4999	0.234
Mof_C 	C 	0.1871	0.9867	0.5142	0.196
Mof_C 	C 	0.1326	0.947	0.5513	0.227
Mof_C 	C 	0.1587	0.052	0.5751	0.138
Mof_C 	C 	0.9522	0.0136	0.5555	-0.666
Mof_H 	H 	0.9066	0.0285	0.5642	0.196
Mof_H 	H 	0.9495	0.0139	0.5325	0.209
Mof_H 	H 	0.9493	0.9865	0.563	0.188
Mof_C 	C 	0.2192	0.0196	0.4936	-0.6
Mof_H 	H 	0.2476	0.0086	0.4754	0.163
Mof_H 	H 	0.1739	0.0358	0.4863	0.19
Mof_H 	H 	0.2569	0.0358	0.5059	0.166
Mof_C 	C 	0.9511	0.8423	0.5689	0.224
Mof_C 	C 	0.089	0.93	0.5803	-0.685
Mof_H 	H 	0.0915	0.9014	0.5796	0.205
Mof_H 	H 	0.1156	0.9394	0.5995	0.206
Mof_H 	H 	0.0322	0.9384	0.5803	0.207
Mof_C 	C 	0.112	0.0215	0.5606	-0.114
Mof_C 	C 	0.9183	0.8247	0.5989	-0.675
Mof_H 	H 	0.9603	0.8086	0.6088	0.197
Mof_H 	H 	0.9019	0.8456	0.6133	0.222
Mof_H 	H 	0.8712	0.8083	0.5939	0.188
Mof_C 	C 	0.1425	0.9864	0.543	-0.151
Mof_C 	C 	0.98	0.8743	0.5236	0.235
Mof_C 	C 	0.2506	0.0539	0.5752	-0.402
Mof_H 	H 	0.2683	0.0773	0.5866	0.021
Mof_H 	H 	0.2724	0.0305	0.5856	0.093
Mof_H 	H 	0.2705	0.055	0.5535	0.108
Mof_C 	C 	0.0312	0.0318	0.5663	0.212
Mof_N 	N 	0.1693	0.9236	0.529	-0.237
Mof_N 	N 	0.2019	0.9484	0.5071	-0.146
Mof_N 	N 	0.0298	0.8357	0.5595	-0.174
Mof_N 	N 	0.1097	0.0785	0.5894	-0.258
Mof_N 	N 	0.0319	0.0657	0.5835	-0.194
Mof_N 	N 	0.0493	0.855	0.5319	-0.269
Mof_O 	O 	0.3033	0.866	0.5113	-0.661
Mof_O 	O 	0.3196	0.9012	0.39624	-0.615
Mof_O 	O 	0.2931	0.9163	0.4582	-0.888
Mof_O 	O 	0.2809	0.9749	0.4122	-0.722
Mof_O 	O 	0.1828	0.8402	0.4032	-0.969
Mof_O 	O 	0.1605	0.915	0.40721	-0.925
Mof_O 	O 	0.4464	0.965	0.40227	-0.725
Mof_O 	O 	0.318	0.8493	0.5486	-0.415
Mof_O 	O 	0.3061	0.841	0.44787	-0.988
Mof_O 	O 	0.1566	0.8724	0.4673	-0.824
Mof_Co	Co	0.17266	0.86206	0.51866	1.11
Mof_Mo	Mo	0.21947	0.87745	0.43664	2.068
Mof_Mo	Mo	0.2202	0.95221	0.37761	1.523
Mof_Mo	Mo	0.36951	0.952	0.43467	1.596
Mof_O 	O 	0.388	0.8605	0.5693	-0.216
Mof_C 	C 	0.4163	0.367	0.5459	-0.151
Mof_C 	C 	0.4777	0.4004	0.4938	-0.744
Mof_H 	H 	0.5305	0.3995	0.4833	0.239
Mof_H 	H 	0.4356	0.3908	0.4795	0.231
Mof_H 	H 	0.4655	0.4274	0.4999	0.234
Mof_C 	C 	0.6871	0.4867	0.5142	0.197
Mof_C 	C 	0.6326	0.447	0.5513	0.227
Mof_C 	C 	0.6587	0.552	0.5751	0.137
Mof_C 	C 	0.4522	0.5136	0.5555	-0.656
Mof_H 	H 	0.4066	0.5285	0.5642	0.193
Mof_H 	H 	0.4495	0.5139	0.5325	0.206
Mof_H 	H 	0.4493	0.4865	0.563	0.185
Mof_C 	C 	0.7192	0.5196	0.4936	-0.602
Mof_H 	H 	0.7476	0.5086	0.4754	0.163
Mof_H 	H 	0.6739	0.5358	0.4863	0.19
Mof_H 	H 	0.7569	0.5358	0.5059	0.166
Mof_C 	C 	0.4511	0.3423	0.5689	0.223
Mof_C 	C 	0.589	0.43	0.5803	-0.687
Mof_H 	H 	0.5915	0.4014	0.5796	0.205
Mof_H 	H 	0.6156	0.4394	0.5995	0.207
Mof_H 	H 	0.5322	0.4384	0.5803	0.209
Mof_C 	C 	0.612	0.5215	0.5606	-0.113
Mof_C 	C 	0.4183	0.3247	0.5989	-0.675
Mof_H 	H 	0.4603	0.3086	0.6088	0.197
Mof_H 	H 	0.4019	0.3456	0.6133	0.221
Mof_H 	H 	0.3712	0.3083	0.5939	0.188
Mof_C 	C 	0.6425	0.4864	0.543	-0.151
Mof_C 	C 	0.48	0.3743	0.5236	0.235
Mof_C 	C 	0.7506	0.5539	0.5752	-0.401
Mof_H 	H 	0.7683	0.5773	0.5866	0.021
Mof_H 	H 	0.7724	0.5305	0.5856	0.092
Mof_H 	H 	0.7705	0.555	0.5535	0.108
Mof_C 	C 	0.5312	0.5318	0.5663	0.208
Mof_N 	N 	0.6693	0.4236	0.529	-0.238
Mof_N 	N 	0.7019	0.4484	0.5071	-0.146
Mof_N 	N 	0.5298	0.3357	0.5595	-0.174
Mof_N 	N 	0.6097	0.5785	0.5894	-0.258
Mof_N 	N 	0.5319	0.5657	0.5835	-0.194
Mof_N 	N 	0.5493	0.355	0.5319	-0.268
Mof_O 	O 	0.8033	0.366	0.5113	-0.661
Mof_O 	O 	0.8196	0.4012	0.39624	-0.615
Mof_O 	O 	0.7931	0.4163	0.4582	-0.888
Mof_O 	O 	0.7809	0.4749	0.4122	-0.722
Mof_O 	O 	0.6828	0.3402	0.4032	-0.969
Mof_O 	O 	0.6605	0.415	0.40721	-0.925
Mof_O 	O 	0.9464	0.465	0.40227	-0.725
Mof_O 	O 	0.818	0.3493	0.5486	-0.415
Mof_O 	O 	0.8061	0.341	0.44787	-0.988
Mof_O 	O 	0.6566	0.3724	0.4673	-0.824
Mof_Co	Co	0.67266	0.36206	0.51866	1.11
Mof_Mo	Mo	0.71947	0.37745	0.43664	2.068
Mof_Mo	Mo	0.7202	0.45221	0.37761	1.524
Mof_Mo	Mo	0.86951	0.452	0.43467	1.596
Mof_O 	O 	0.888	0.3605	0.5693	-0.216
Mof_C 	C 	0.4163	0.867	0.0459	-0.151
Mof_C 	C 	0.4777	0.9004	0.9938	-0.744
Mof_H 	H 	0.5305	0.8995	0.9833	0.239
Mof_H 	H 	0.4356	0.8908	0.9795	0.231
Mof_H 	H 	0.4655	0.9274	0.9999	0.234
Mof_C 	C 	0.6871	0.9867	0.0142	0.198
Mof_C 	C 	0.6326	0.947	0.0513	0.227
Mof_C 	C 	0.6587	0.052	0.0751	0.137
Mof_C 	C 	0.4522	0.0136	0.0555	-0.656
Mof_H 	H 	0.4066	0.0285	0.0642	0.193
Mof_H 	H 	0.4495	0.0139	0.0325	0.206
Mof_H 	H 	0.4493	0.9865	0.063	0.184
Mof_C 	C 	0.7192	0.0196	0.9936	-0.602
Mof_H 	H 	0.7476	0.0086	0.9754	0.163
Mof_H 	H 	0.6739	0.0358	0.9863	0.19
Mof_H 	H 	0.7569	0.0358	0.0059	0.166
Mof_C 	C 	0.4511	0.8423	0.0689	0.224
Mof_C 	C 	0.589	0.93	0.0803	-0.686
Mof_H 	H 	0.5915	0.9014	0.0796	0.205
Mof_H 	H 	0.6156	0.9394	0.0995	0.207
Mof_H 	H 	0.5322	0.9384	0.0803	0.208
Mof_C 	C 	0.612	0.0215	0.0606	-0.113
Mof_C 	C 	0.4183	0.8247	0.0989	-0.675
Mof_H 	H 	0.4603	0.8086	0.1088	0.197
Mof_H 	H 	0.4019	0.8456	0.1133	0.221
Mof_H 	H 	0.3712	0.8083	0.0939	0.188
Mof_C 	C 	0.6425	0.9864	0.043	-0.151
Mof_C 	C 	0.48	0.8743	0.0236	0.235
Mof_C 	C 	0.7506	0.0539	0.0752	-0.401
Mof_H 	H 	0.7683	0.0773	0.0866	0.021
Mof_H 	H 	0.7724	0.0305	0.0856	0.092
Mof_H 	H 	0.7705	0.055	0.0535	0.108
Mof_C 	C 	0.5312	0.0318	0.0663	0.208
Mof_N 	N 	0.6693	0.9236	0.029	-0.238
Mof_N 	N 	0.7019	0.9484	0.0071	-0.146
Mof_N 	N 	0.5298	0.8357	0.0595	-0.174
Mof_N 	N 	0.6097	0.0785	0.0894	-0.258
Mof_N 	N 	0.5319	0.0657	0.0835	-0.194
Mof_N 	N 	0.5493	0.855	0.0319	-0.268
Mof_O 	O 	0.8033	0.866	0.0113	-0.661
Mof_O 	O 	0.8196	0.9012	0.89624	-0.615
Mof_O 	O 	0.7931	0.9163	0.9582	-0.888
Mof_O 	O 	0.7809	0.9749	0.9122	-0.721
Mof_O 	O 	0.6828	0.8402	0.9032	-0.969
Mof_O 	O 	0.6605	0.915	0.90721	-0.925
Mof_O 	O 	0.9464	0.965	0.90227	-0.723
Mof_O 	O 	0.818	0.8493	0.0486	-0.415
Mof_O 	O 	0.8061	0.841	0.94787	-0.988
Mof_O 	O 	0.6566	0.8724	0.9673	-0.824
Mof_Co	Co	0.67266	0.86206	0.01866	1.11
Mof_Mo	Mo	0.71947	0.87745	0.93664	2.068
Mof_Mo	Mo	0.7202	0.95221	0.87761	1.524
Mof_Mo	Mo	0.86951	0.952	0.93467	1.596
Mof_O 	O 	0.888	0.8605	0.0693	-0.216
Mof_C 	C 	0.9163	0.883	0.2041	-0.152
Mof_C 	C 	0.9777	0.8496	0.2562	-0.742
Mof_H 	H 	0.0305	0.8505	0.2667	0.238
Mof_H 	H 	0.9356	0.8592	0.2705	0.23
Mof_H 	H 	0.9655	0.8226	0.2501	0.234
Mof_C 	C 	0.1871	0.7633	0.2358	0.197
Mof_C 	C 	0.1326	0.803	0.1987	0.227
Mof_C 	C 	0.1587	0.698	0.1749	0.137
Mof_C 	C 	0.9522	0.7364	0.1945	-0.654
Mof_H 	H 	0.9066	0.7215	0.1858	0.193
Mof_H 	H 	0.9495	0.7361	0.2175	0.206
Mof_H 	H 	0.9493	0.7635	0.187	0.184
Mof_C 	C 	0.2192	0.7304	0.2564	-0.602
Mof_H 	H 	0.2476	0.7414	0.2746	0.163
Mof_H 	H 	0.1739	0.7142	0.2637	0.19
Mof_H 	H 	0.2569	0.7142	0.2441	0.166
Mof_C 	C 	0.9511	0.9077	0.1811	0.225
Mof_C 	C 	0.089	0.82	0.1697	-0.686
Mof_H 	H 	0.0915	0.8486	0.1704	0.205
Mof_H 	H 	0.1156	0.8106	0.1505	0.206
Mof_H 	H 	0.0322	0.8116	0.1697	0.208
Mof_C 	C 	0.112	0.7285	0.1894	-0.113
Mof_C 	C 	0.9183	0.9253	0.1511	-0.676
Mof_H 	H 	0.9603	0.9414	0.1412	0.197
Mof_H 	H 	0.9019	0.9044	0.1367	0.222
Mof_H 	H 	0.8712	0.9417	0.1561	0.189
Mof_C 	C 	0.1425	0.7636	0.207	-0.151
Mof_C 	C 	0.98	0.8757	0.2264	0.235
Mof_C 	C 	0.2506	0.6961	0.1748	-0.401
Mof_H 	H 	0.2683	0.6727	0.1634	0.021
Mof_H 	H 	0.2724	0.7195	0.1644	0.092
Mof_H 	H 	0.2705	0.695	0.1965	0.108
Mof_C 	C 	0.0312	0.7182	0.1837	0.207
Mof_N 	N 	0.1693	0.8264	0.221	-0.238
Mof_N 	N 	0.2019	0.8016	0.2429	-0.146
Mof_N 	N 	0.0298	0.9143	0.1905	-0.174
Mof_N 	N 	0.1097	0.6715	0.1606	-0.258
Mof_N 	N 	0.0319	0.6843	0.1665	-0.194
Mof_N 	N 	0.0493	0.895	0.2181	-0.269
Mof_O 	O 	0.3033	0.884	0.2387	-0.661
Mof_O 	O 	0.3196	0.8488	0.35376	-0.615
Mof_O 	O 	0.2931	0.8337	0.2918	-0.888
Mof_O 	O 	0.2809	0.7751	0.3378	-0.722
Mof_O 	O 	0.1828	0.9098	0.3468	-0.969
Mof_O 	O 	0.1605	0.835	0.34279	-0.925
Mof_O 	O 	0.4464	0.785	0.34773	-0.725
Mof_O 	O 	0.318	0.9007	0.2014	-0.415
Mof_O 	O 	0.3061	0.909	0.30213	-0.988
Mof_O 	O 	0.1566	0.8776	0.2827	-0.824
Mof_Co	Co	0.17266	0.88794	0.23134	1.11
Mof_Mo	Mo	0.21947	0.87255	0.31336	2.068
Mof_Mo	Mo	0.2202	0.79779	0.37239	1.524
Mof_Mo	Mo	0.36951	0.798	0.31533	1.596
Mof_O 	O 	0.388	0.8895	0.1807	-0.216
Mof_C 	C 	0.9163	0.383	0.7041	-0.151
Mof_C 	C 	0.9777	0.3496	0.7562	-0.745
Mof_H 	H 	0.0305	0.3505	0.7667	0.24
Mof_H 	H 	0.9356	0.3592	0.7705	0.231
Mof_H 	H 	0.9655	0.3226	0.7501	0.235
Mof_C 	C 	0.1871	0.2633	0.7358	0.197
Mof_C 	C 	0.1326	0.303	0.6987	0.227
Mof_C 	C 	0.1587	0.198	0.6749	0.137
Mof_C 	C 	0.9522	0.2364	0.6945	-0.657
Mof_H 	H 	0.9066	0.2215	0.6858	0.194
Mof_H 	H 	0.9495	0.2361	0.7175	0.207
Mof_H 	H 	0.9493	0.2635	0.687	0.185
Mof_C 	C 	0.2192	0.2304	0.7564	-0.602
Mof_H 	H 	0.2476	0.2414	0.7746	0.163
Mof_H 	H 	0.1739	0.2142	0.7637	0.19
Mof_H 	H 	0.2569	0.2142	0.7441	0.166
Mof_C 	C 	0.9511	0.4077	0.6811	0.223
Mof_C 	C 	0.089	0.32	0.6697	-0.687
Mof_H 	H 	0.0915	0.3486	0.6704	0.205
Mof_H 	H 	0.1156	0.3106	0.6505	0.207
Mof_H 	H 	0.0322	0.3116	0.6697	0.209
Mof_C 	C 	0.112	0.2285	0.6894	-0.113
Mof_C 	C 	0.9183	0.4253	0.6511	-0.674
Mof_H 	H 	0.9603	0.4414	0.6412	0.196
Mof_H 	H 	0.9019	0.4044	0.6367	0.221
Mof_H 	H 	0.8712	0.4417	0.6561	0.188
Mof_C 	C 	0.1425	0.2636	0.707	-0.151
Mof_C 	C 	0.98	0.3757	0.7264	0.235
Mof_C 	C 	0.2506	0.1961	0.6748	-0.401
Mof_H 	H 	0.2683	0.1727	0.6634	0.021
Mof_H 	H 	0.2724	0.2195	0.6644	0.092
Mof_H 	H 	0.2705	0.195	0.6965	0.108
Mof_C 	C 	0.0312	0.2182	0.6837	0.209
Mof_N 	N 	0.1693	0.3264	0.721	-0.238
Mof_N 	N 	0.2019	0.3016	0.7429	-0.146
Mof_N 	N 	0.0298	0.4143	0.6905	-0.173
Mof_N 	N 	0.1097	0.1715	0.6606	-0.258
Mof_N 	N 	0.0319	0.1843	0.6665	-0.194
Mof_N 	N 	0.0493	0.395	0.7181	-0.268
Mof_O 	O 	0.3033	0.384	0.7387	-0.661
Mof_O 	O 	0.3196	0.3488	0.85376	-0.615
Mof_O 	O 	0.2931	0.3337	0.7918	-0.888
Mof_O 	O 	0.2809	0.2751	0.8378	-0.722
Mof_O 	O 	0.1828	0.4098	0.8468	-0.969
Mof_O 	O 	0.1605	0.335	0.84279	-0.925
Mof_O 	O 	0.4464	0.285	0.84773	-0.725
Mof_O 	O 	0.318	0.4007	0.7014	-0.415
Mof_O 	O 	0.3061	0.409	0.80213	-0.988
Mof_O 	O 	0.1566	0.3776	0.7827	-0.824
Mof_Co	Co	0.17266	0.38794	0.73134	1.11
Mof_Mo	Mo	0.21947	0.37255	0.81336	2.068
Mof_Mo	Mo	0.2202	0.29779	0.87239	1.524
Mof_Mo	Mo	0.36951	0.298	0.81533	1.596
Mof_O 	O 	0.388	0.3895	0.6807	-0.216
Mof_C 	C 	0.4163	0.883	0.7041	-0.151
Mof_C 	C 	0.4777	0.8496	0.7562	-0.744
Mof_H 	H 	0.5305	0.8505	0.7667	0.239
Mof_H 	H 	0.4356	0.8592	0.7705	0.231
Mof_H 	H 	0.4655	0.8226	0.7501	0.234
Mof_C 	C 	0.6871	0.7633	0.7358	0.197
Mof_C 	C 	0.6326	0.803	0.6987	0.227
Mof_C 	C 	0.6587	0.698	0.6749	0.137
Mof_C 	C 	0.4522	0.7364	0.6945	-0.656
Mof_H 	H 	0.4066	0.7215	0.6858	0.193
Mof_H 	H 	0.4495	0.7361	0.7175	0.206
Mof_H 	H 	0.4493	0.7635	0.687	0.185
Mof_C 	C 	0.7192	0.7304	0.7564	-0.602
Mof_H 	H 	0.7476	0.7414	0.7746	0.163
Mof_H 	H 	0.6739	0.7142	0.7637	0.19
Mof_H 	H 	0.7569	0.7142	0.7441	0.166
Mof_C 	C 	0.4511	0.9077	0.6811	0.223
Mof_C 	C 	0.589	0.82	0.6697	-0.687
Mof_H 	H 	0.5915	0.8486	0.6704	0.205
Mof_H 	H 	0.6156	0.8106	0.6505	0.207
Mof_H 	H 	0.5322	0.8116	0.6697	0.209
Mof_C 	C 	0.612	0.7285	0.6894	-0.113
Mof_C 	C 	0.4183	0.9253	0.6511	-0.674
Mof_H 	H 	0.4603	0.9414	0.6412	0.196
Mof_H 	H 	0.4019	0.9044	0.6367	0.221
Mof_H 	H 	0.3712	0.9417	0.6561	0.188
Mof_C 	C 	0.6425	0.7636	0.707	-0.151
Mof_C 	C 	0.48	0.8757	0.7264	0.235
Mof_C 	C 	0.7506	0.6961	0.6748	-0.401
Mof_H 	H 	0.7683	0.6727	0.6634	0.021
Mof_H 	H 	0.7724	0.7195	0.6644	0.092
Mof_H 	H 	0.7705	0.695	0.6965	0.108
Mof_C 	C 	0.5312	0.7182	0.6837	0.208
Mof_N 	N 	0.6693	0.8264	0.721	-0.238
Mof_N 	N 	0.7019	0.8016	0.7429	-0.146
Mof_N 	N 	0.5298	0.9143	0.6905	-0.174
Mof_N 	N 	0.6097	0.6715	0.6606	-0.258
Mof_N 	N 	0.5319	0.6843	0.6665	-0.194
Mof_N 	N 	0.5493	0.895	0.7181	-0.268
Mof_O 	O 	0.8033	0.884	0.7387	-0.661
Mof_O 	O 	0.8196	0.8488	0.85376	-0.615
Mof_O 	O 	0.7931	0.8337	0.7918	-0.888
Mof_O 	O 	0.7809	0.7751	0.8378	-0.722
Mof_O 	O 	0.6828	0.9098	0.8468	-0.969
Mof_O 	O 	0.6605	0.835	0.84279	-0.925
Mof_O 	O 	0.9464	0.785	0.84773	-0.724
Mof_O 	O 	0.818	0.9007	0.7014	-0.415
Mof_O 	O 	0.8061	0.909	0.80213	-0.988
Mof_O 	O 	0.6566	0.8776	0.7827	-0.824
Mof_Co	Co	0.67266	0.88794	0.73134	1.11
Mof_Mo	Mo	0.71947	0.87255	0.81336	2.068
Mof_Mo	Mo	0.7202	0.79779	0.87239	1.524
Mof_Mo	Mo	0.86951	0.798	0.81533	1.596
Mof_O 	O 	0.888	0.8895	0.6807	-0.216
Mof_C 	C 	0.4163	0.383	0.2041	-0.151
Mof_C 	C 	0.4777	0.3496	0.2562	-0.744
Mof_H 	H 	0.5305	0.3505	0.2667	0.239
Mof_H 	H 	0.4356	0.3592	0.2705	0.231
Mof_H 	H 	0.4655	0.3226	0.2501	0.234
Mof_C 	C 	0.6871	0.2633	0.2358	0.197
Mof_C 	C 	0.6326	0.303	0.1987	0.227
Mof_C 	C 	0.6587	0.198	0.1749	0.137
Mof_C 	C 	0.4522	0.2364	0.1945	-0.656
Mof_H 	H 	0.4066	0.2215	0.1858	0.193
Mof_H 	H 	0.4495	0.2361	0.2175	0.206
Mof_H 	H 	0.4493	0.2635	0.187	0.185
Mof_C 	C 	0.7192	0.2304	0.2564	-0.602
Mof_H 	H 	0.7476	0.2414	0.2746	0.163
Mof_H 	H 	0.6739	0.2142	0.2637	0.19
Mof_H 	H 	0.7569	0.2142	0.2441	0.166
Mof_C 	C 	0.4511	0.4077	0.1811	0.223
Mof_C 	C 	0.589	0.32	0.1697	-0.687
Mof_H 	H 	0.5915	0.3486	0.1704	0.205
Mof_H 	H 	0.6156	0.3106	0.1505	0.207
Mof_H 	H 	0.5322	0.3116	0.1697	0.209
Mof_C 	C 	0.612	0.2285	0.1894	-0.113
Mof_C 	C 	0.4183	0.4253	0.1511	-0.675
Mof_H 	H 	0.4603	0.4414	0.1412	0.197
Mof_H 	H 	0.4019	0.4044	0.1367	0.221
Mof_H 	H 	0.3712	0.4417	0.1561	0.188
Mof_C 	C 	0.6425	0.2636	0.207	-0.151
Mof_C 	C 	0.48	0.3757	0.2264	0.235
Mof_C 	C 	0.7506	0.1961	0.1748	-0.401
Mof_H 	H 	0.7683	0.1727	0.1634	0.021
Mof_H 	H 	0.7724	0.2195	0.1644	0.092
Mof_H 	H 	0.7705	0.195	0.1965	0.108
Mof_C 	C 	0.5312	0.2182	0.1837	0.208
Mof_N 	N 	0.6693	0.3264	0.221	-0.238
Mof_N 	N 	0.7019	0.3016	0.2429	-0.146
Mof_N 	N 	0.5298	0.4143	0.1905	-0.174
Mof_N 	N 	0.6097	0.1715	0.1606	-0.258
Mof_N 	N 	0.5319	0.1843	0.1665	-0.194
Mof_N 	N 	0.5493	0.395	0.2181	-0.268
Mof_O 	O 	0.8033	0.384	0.2387	-0.661
Mof_O 	O 	0.8196	0.3488	0.35376	-0.615
Mof_O 	O 	0.7931	0.3337	0.2918	-0.888
Mof_O 	O 	0.7809	0.2751	0.3378	-0.722
Mof_O 	O 	0.6828	0.4098	0.3468	-0.969
Mof_O 	O 	0.6605	0.335	0.34279	-0.925
Mof_O 	O 	0.9464	0.285	0.34773	-0.725
Mof_O 	O 	0.818	0.4007	0.2014	-0.415
Mof_O 	O 	0.8061	0.409	0.30213	-0.988
Mof_O 	O 	0.6566	0.3776	0.2827	-0.824
Mof_Co	Co	0.67266	0.38794	0.23134	1.11
Mof_Mo	Mo	0.71947	0.37255	0.31336	2.068
Mof_Mo	Mo	0.7202	0.29779	0.37239	1.524
Mof_Mo	Mo	0.86951	0.298	0.31533	1.596
Mof_O 	O 	0.888	0.3895	0.1807	-0.216
Mof_C 	C 	0.3337	0.367	0.2041	-0.151
Mof_C 	C 	0.2723	0.4004	0.2562	-0.744
Mof_H 	H 	0.2195	0.3995	0.2667	0.239
Mof_H 	H 	0.3144	0.3908	0.2705	0.231
Mof_H 	H 	0.2845	0.4274	0.2501	0.234
Mof_C 	C 	0.0629	0.4867	0.2358	0.198
Mof_C 	C 	0.1174	0.447	0.1987	0.227
Mof_C 	C 	0.0913	0.552	0.1749	0.137
Mof_C 	C 	0.2978	0.5136	0.1945	-0.656
Mof_H 	H 	0.3434	0.5285	0.1858	0.193
Mof_H 	H 	0.3005	0.5139	0.2175	0.206
Mof_H 	H 	0.3007	0.4865	0.187	0.185
Mof_C 	C 	0.0308	0.5196	0.2564	-0.604
Mof_H 	H 	0.0024	0.5086	0.2746	0.163
Mof_H 	H 	0.0761	0.5358	0.2637	0.19
Mof_H 	H 	0.9931	0.5358	0.2441	0.167
Mof_C 	C 	0.2989	0.3423	0.1811	0.224
Mof_C 	C 	0.161	0.43	0.1697	-0.687
Mof_H 	H 	0.1585	0.4014	0.1704	0.205
Mof_H 	H 	0.1344	0.4394	0.1505	0.207
Mof_H 	H 	0.2178	0.4384	0.1697	0.209
Mof_C 	C 	0.138	0.5215	0.1894	-0.113
Mof_C 	C 	0.3317	0.3247	0.1511	-0.675
Mof_H 	H 	0.2897	0.3086	0.1412	0.197
Mof_H 	H 	0.3481	0.3456	0.1367	0.221
Mof_H 	H 	0.3788	0.3083	0.1561	0.188
Mof_C 	C 	0.1075	0.4864	0.207	-0.151
Mof_C 	C 	0.27	0.3743	0.2264	0.235
Mof_C 	C 	0.9994	0.5539	0.1748	-0.401
Mof_H 	H 	0.9817	0.5773	0.1634	0.021
Mof_H 	H 	0.9776	0.5305	0.1644	0.092
Mof_H 	H 	0.9795	0.555	0.1965	0.108
Mof_C 	C 	0.2188	0.5318	0.1837	0.208
Mof_N 	N 	0.0807	0.4236	0.221	-0.238
Mof_N 	N 	0.0481	0.4484	0.2429	-0.146
Mof_N 	N 	0.2202	0.3357	0.1905	-0.174
Mof_N 	N 	0.1403	0.5785	0.1606	-0.258
Mof_N 	N 	0.2181	0.5657	0.1665	-0.194
Mof_N 	N 	0.2007	0.355	0.2181	-0.268
Mof_O 	O 	0.9467	0.366	0.2387	-0.661
Mof_O 	O 	0.9304	0.4012	0.35376	-0.615
Mof_O 	O 	0.9569	0.4163	0.2918	-0.888
Mof_O 	O 	0.9691	0.4749	0.3378	-0.721
Mof_O 	O 	0.0672	0.3402	0.3468	-0.969
Mof_O 	O 	0.0895	0.415	0.34279	-0.925
Mof_O 	O 	0.8036	0.465	0.34773	-0.725
Mof_O 	O 	0.932	0.3493	0.2014	-0.416
Mof_O 	O 	0.9439	0.341	0.30213	-0.988
Mof_O 	O 	0.0934	0.3724	0.2827	-0.824
Mof_Co	Co	0.07734	0.36206	0.23134	1.11
Mof_Mo	Mo	0.03053	0.37745	0.31336	2.068
Mof_Mo	Mo	0.0298	0.45221	0.37239	1.523
Mof_Mo	Mo	0.88049	0.452	0.31533	1.596
Mof_O 	O 	0.862	0.3605	0.1807	-0.216
Mof_C 	C 	0.3337	0.867	0.7041	-0.151
Mof_C 	C 	0.2723	0.9004	0.7562	-0.744
Mof_H 	H 	0.2195	0.8995	0.7667	0.239
Mof_H 	H 	0.3144	0.8908	0.7705	0.231
Mof_H 	H 	0.2845	0.9274	0.7501	0.234
Mof_C 	C 	0.0629	0.9867	0.7358	0.194
Mof_C 	C 	0.1174	0.947	0.6987	0.227
Mof_C 	C 	0.0913	0.052	0.6749	0.138
Mof_C 	C 	0.2978	0.0136	0.6945	-0.653
Mof_H 	H 	0.3434	0.0285	0.6858	0.193
Mof_H 	H 	0.3005	0.0139	0.7175	0.206
Mof_H 	H 	0.3007	0.9865	0.687	0.183
Mof_C 	C 	0.0308	0.0196	0.7564	-0.594
Mof_H 	H 	0.0024	0.0086	0.7746	0.161
Mof_H 	H 	0.0761	0.0358	0.7637	0.188
Mof_H 	H 	0.9931	0.0358	0.7441	0.163
Mof_C 	C 	0.2989	0.8423	0.6811	0.223
Mof_C 	C 	0.161	0.93	0.6697	-0.686
Mof_H 	H 	0.1585	0.9014	0.6704	0.205
Mof_H 	H 	0.1344	0.9394	0.6505	0.206
Mof_H 	H 	0.2178	0.9384	0.6697	0.208
Mof_C 	C 	0.138	0.0215	0.6894	-0.112
Mof_C 	C 	0.3317	0.8247	0.6511	-0.674
Mof_H 	H 	0.2897	0.8086	0.6412	0.196
Mof_H 	H 	0.3481	0.8456	0.6367	0.221
Mof_H 	H 	0.3788	0.8083	0.6561	0.188
Mof_C 	C 	0.1075	0.9864	0.707	-0.151
Mof_C 	C 	0.27	0.8743	0.7264	0.235
Mof_C 	C 	0.9994	0.0539	0.6748	-0.403
Mof_H 	H 	0.9817	0.0773	0.6634	0.021
Mof_H 	H 	0.9776	0.0305	0.6644	0.093
Mof_H 	H 	0.9795	0.055	0.6965	0.108
Mof_C 	C 	0.2188	0.0318	0.6837	0.207
Mof_N 	N 	0.0807	0.9236	0.721	-0.238
Mof_N 	N 	0.0481	0.9484	0.7429	-0.146
Mof_N 	N 	0.2202	0.8357	0.6905	-0.174
Mof_N 	N 	0.1403	0.0785	0.6606	-0.259
Mof_N 	N 	0.2181	0.0657	0.6665	-0.194
Mof_N 	N 	0.2007	0.855	0.7181	-0.268
Mof_O 	O 	0.9467	0.866	0.7387	-0.661
Mof_O 	O 	0.9304	0.9012	0.85376	-0.614
Mof_O 	O 	0.9569	0.9163	0.7918	-0.887
Mof_O 	O 	0.9691	0.9749	0.8378	-0.72
Mof_O 	O 	0.0672	0.8402	0.8468	-0.969
Mof_O 	O 	0.0895	0.915	0.84279	-0.924
Mof_O 	O 	0.8036	0.965	0.84773	-0.725
Mof_O 	O 	0.932	0.8493	0.7014	-0.415
Mof_O 	O 	0.9439	0.841	0.80213	-0.987
Mof_O 	O 	0.0934	0.8724	0.7827	-0.824
Mof_Co	Co	0.07734	0.86206	0.73134	1.11
Mof_Mo	Mo	0.03053	0.87745	0.81336	2.064
Mof_Mo	Mo	0.0298	0.95221	0.87239	1.52
Mof_Mo	Mo	0.88049	0.952	0.81533	1.596
Mof_O 	O 	0.862	0.8605	0.6807	-0.216
Mof_C 	C 	0.8337	0.367	0.7041	-0.151
Mof_C 	C 	0.7723	0.4004	0.7562	-0.744
Mof_H 	H 	0.7195	0.3995	0.7667	0.239
Mof_H 	H 	0.8144	0.3908	0.7705	0.231
Mof_H 	H 	0.7845	0.4274	0.7501	0.234
Mof_C 	C 	0.5629	0.4867	0.7358	0.197
Mof_C 	C 	0.6174	0.447	0.6987	0.227
Mof_C 	C 	0.5913	0.552	0.6749	0.137
Mof_C 	C 	0.7978	0.5136	0.6945	-0.656
Mof_H 	H 	0.8434	0.5285	0.6858	0.193
Mof_H 	H 	0.8005	0.5139	0.7175	0.206
Mof_H 	H 	0.8007	0.4865	0.687	0.185
Mof_C 	C 	0.5308	0.5196	0.7564	-0.602
Mof_H 	H 	0.5024	0.5086	0.7746	0.163
Mof_H 	H 	0.5761	0.5358	0.7637	0.19
Mof_H 	H 	0.4931	0.5358	0.7441	0.166
Mof_C 	C 	0.7989	0.3423	0.6811	0.223
Mof_C 	C 	0.661	0.43	0.6697	-0.687
Mof_H 	H 	0.6585	0.4014	0.6704	0.205
Mof_H 	H 	0.6344	0.4394	0.6505	0.207
Mof_H 	H 	0.7178	0.4384	0.6697	0.209
Mof_C 	C 	0.638	0.5215	0.6894	-0.113
Mof_C 	C 	0.8317	0.3247	0.6511	-0.674
Mof_H 	H 	0.7897	0.3086	0.6412	0.196
Mof_H 	H 	0.8481	0.3456	0.6367	0.221
Mof_H 	H 	0.8788	0.3083	0.6561	0.188
Mof_C 	C 	0.6075	0.4864	0.707	-0.151
Mof_C 	C 	0.77	0.3743	0.7264	0.235
Mof_C 	C 	0.4994	0.5539	0.6748	-0.401
Mof_H 	H 	0.4817	0.5773	0.6634	0.021
Mof_H 	H 	0.4776	0.5305	0.6644	0.092
Mof_H 	H 	0.4795	0.555	0.6965	0.108
Mof_C 	C 	0.7188	0.5318	0.6837	0.208
Mof_N 	N 	0.5807	0.4236	0.721	-0.238
Mof_N 	N 	0.5481	0.4484	0.7429	-0.146
Mof_N 	N 	0.7202	0.3357	0.6905	-0.174
Mof_N 	N 	0.6403	0.5785	0.6606	-0.258
Mof_N 	N 	0.7181	0.5657	0.6665	-0.194
Mof_N 	N 	0.7007	0.355	0.7181	-0.268
Mof_O 	O 	0.4467	0.366	0.7387	-0.661
Mof_O 	O 	0.4304	0.4012	0.85376	-0.615
Mof_O 	O 	0.4569	0.4163	0.7918	-0.888
Mof_O 	O 	0.4691	0.4749	0.8378	-0.722
Mof_O 	O 	0.5672	0.3402	0.8468	-0.969
Mof_O 	O 	0.5895	0.415	0.84279	-0.925
Mof_O 	O 	0.3036	0.465	0.84773	-0.725
Mof_O 	O 	0.432	0.3493	0.7014	-0.415
Mof_O 	O 	0.4439	0.341	0.80213	-0.988
Mof_O 	O 	0.5934	0.3724	0.7827	-0.824
Mof_Co	Co	0.57734	0.36206	0.73134	1.11
Mof_Mo	Mo	0.53053	0.37745	0.81336	2.068
Mof_Mo	Mo	0.5298	0.45221	0.87239	1.524
Mof_Mo	Mo	0.38049	0.452	0.81533	1.596
Mof_O 	O 	0.362	0.3605	0.6807	-0.216
Mof_C 	C 	0.8337	0.867	0.2041	-0.151
Mof_C 	C 	0.7723	0.9004	0.2562	-0.744
Mof_H 	H 	0.7195	0.8995	0.2667	0.239
Mof_H 	H 	0.8144	0.8908	0.2705	0.231
Mof_H 	H 	0.7845	0.9274	0.2501	0.235
Mof_C 	C 	0.5629	0.9867	0.2358	0.197
Mof_C 	C 	0.6174	0.947	0.1987	0.227
Mof_C 	C 	0.5913	0.052	0.1749	0.138
Mof_C 	C 	0.7978	0.0136	0.1945	-0.66
Mof_H 	H 	0.8434	0.0285	0.1858	0.195
Mof_H 	H 	0.8005	0.0139	0.2175	0.207
Mof_H 	H 	0.8007	0.9865	0.187	0.186
Mof_C 	C 	0.5308	0.0196	0.2564	-0.602
Mof_H 	H 	0.5024	0.0086	0.2746	0.163
Mof_H 	H 	0.5761	0.0358	0.2637	0.19
Mof_H 	H 	0.4931	0.0358	0.2441	0.166
Mof_C 	C 	0.7989	0.8423	0.1811	0.224
Mof_C 	C 	0.661	0.93	0.1697	-0.686
Mof_H 	H 	0.6585	0.9014	0.1704	0.205
Mof_H 	H 	0.6344	0.9394	0.1505	0.207
Mof_H 	H 	0.7178	0.9384	0.1697	0.208
Mof_C 	C 	0.638	0.0215	0.1894	-0.114
Mof_C 	C 	0.8317	0.8247	0.1511	-0.675
Mof_H 	H 	0.7897	0.8086	0.1412	0.197
Mof_H 	H 	0.8481	0.8456	0.1367	0.221
Mof_H 	H 	0.8788	0.8083	0.1561	0.188
Mof_C 	C 	0.6075	0.9864	0.207	-0.15
Mof_C 	C 	0.77	0.8743	0.2264	0.235
Mof_C 	C 	0.4994	0.0539	0.1748	-0.402
Mof_H 	H 	0.4817	0.0773	0.1634	0.021
Mof_H 	H 	0.4776	0.0305	0.1644	0.092
Mof_H 	H 	0.4795	0.055	0.1965	0.108
Mof_C 	C 	0.7188	0.0318	0.1837	0.209
Mof_N 	N 	0.5807	0.9236	0.221	-0.237
Mof_N 	N 	0.5481	0.9484	0.2429	-0.146
Mof_N 	N 	0.7202	0.8357	0.1905	-0.174
Mof_N 	N 	0.6403	0.0785	0.1606	-0.259
Mof_N 	N 	0.7181	0.0657	0.1665	-0.194
Mof_N 	N 	0.7007	0.855	0.2181	-0.268
Mof_O 	O 	0.4467	0.866	0.2387	-0.661
Mof_O 	O 	0.4304	0.9012	0.35376	-0.615
Mof_O 	O 	0.4569	0.9163	0.2918	-0.888
Mof_O 	O 	0.4691	0.9749	0.3378	-0.722
Mof_O 	O 	0.5672	0.8402	0.3468	-0.969
Mof_O 	O 	0.5895	0.915	0.34279	-0.925
Mof_O 	O 	0.3036	0.965	0.34773	-0.725
Mof_O 	O 	0.432	0.8493	0.2014	-0.415
Mof_O 	O 	0.4439	0.841	0.30213	-0.988
Mof_O 	O 	0.5934	0.8724	0.2827	-0.824
Mof_Co	Co	0.57734	0.86206	0.23134	1.11
Mof_Mo	Mo	0.53053	0.87745	0.31336	2.068
Mof_Mo	Mo	0.5298	0.95221	0.37239	1.524
Mof_Mo	Mo	0.38049	0.952	0.31533	1.596
Mof_O 	O 	0.362	0.8605	0.1807	-0.216
Mof_V 	V 	0.12471	0.875	0.875	1.674
Mof_V 	V 	0.62471	0.875	0.375	1.674
Mof_V 	V 	0.12529	0.375	0.875	1.674
Mof_V 	V 	0.62529	0.375	0.375	1.674
Mof_V 	V 	0.12529	0.875	0.375	1.674
Mof_V 	V 	0.62529	0.875	0.875	1.674
Mof_V 	V 	0.12471	0.375	0.375	1.674
Mof_V 	V 	0.62471	0.375	0.875	1.674
Mof_P 	P 	0.875	0.875	0.875	0.666
Mof_P 	P 	0.375	0.375	0.875	0.666
Mof_P 	P 	0.375	0.875	0.375	0.666
Mof_P 	P 	0.875	0.375	0.375	0.666
Mof_V 	V 	0.875	0.875	0.97371	1.758
Mof_S 	S 	0.875	0.875	0.0389	0.972
Mof_V 	V 	0.875	0.375	0.47371	1.758
Mof_S 	S 	0.875	0.375	0.5389	0.972
Mof_V 	V 	0.375	0.375	0.97371	1.758
Mof_S 	S 	0.375	0.375	0.0389	0.972
Mof_V 	V 	0.375	0.875	0.47371	1.758
Mof_S 	S 	0.375	0.875	0.5389	0.972
Mof_V 	V 	0.375	0.875	0.27629	1.758
Mof_S 	S 	0.375	0.875	0.2111	0.973
Mof_V 	V 	0.375	0.375	0.77629	1.758
Mof_S 	S 	0.375	0.375	0.7111	0.972
Mof_V 	V 	0.875	0.375	0.27629	1.758
Mof_S 	S 	0.875	0.375	0.2111	0.973
Mof_V 	V 	0.875	0.875	0.77629	1.758
Mof_S 	S 	0.875	0.875	0.7111	0.972
Mof_Co	Co	0.625	0.125	0.125	1.022
Mof_Co	Co	0.125	0.625	0.125	1.022
Mof_Co	Co	0.125	0.125	0.625	1.022
Mof_Co	Co	0.625	0.625	0.625	1.022
_end
