data_functionalizedCrystal
_audit_creation_method	'EQeq! by Chris Wilmer'
_symmetry_space_group_name_H-M	'P1'
_symmetry_Int_Tables_number	1
_symmetry_cell_setting	triclinic
loop_
_symmetry_equiv_pos_as_xyz
  x,y,z
_cell_length_a	13.4125
_cell_length_b	13.4125
_cell_length_c	27.8003
_cell_angle_alpha	90
_cell_angle_beta	90
_cell_angle_gamma	120
loop_
_atom_site_label
_atom_site_type_symbol
_atom_site_fract_x
_atom_site_fract_y
_atom_site_fract_z
_atom_site_charge
Mof_V 	V 	0.29251	0.85685	0.52686	1.823
Mof_P 	P 	0.16281	0.97533	0.58404	0.738
Mof_P 	P 	0.1269	0.63024	0.46386	0.48
Mof_O 	O 	0.1502	0.717	0.50377	-0.501
Mof_O 	O 	0.1682	0.5471	0.47567	-0.495
Mof_O 	O 	0.0005	0.5697	0.45009	-0.562
Mof_O 	O 	0.1866	0.8796	0.5698	-0.465
Mof_O 	O 	0.326	0.7726	0.57592	-0.449
Mof_O 	O 	0.258	0.9474	0.47394	-0.435
Mof_O 	O 	0.1412	0.0807	0.70447	-0.539
Mof_O 	O 	0.0713	0.9296	0.62249	-0.478
Mof_O 	O 	0.1364	0.0286	0.5405	-0.682
Mof_H 	H 	0.165	0.674	0.4198	-0.017
Mof_H 	H 	0.259	0.06	0.6039	-0.144
Mof_H 	H 	0.19	0.935	0.473	0.288
Mof_V 	V 	0.14315	0.43566	0.52686	1.768
Mof_P 	P 	0.02467	0.18748	0.58404	0.211
Mof_P 	P 	0.36976	0.49666	0.46386	0.484
Mof_O 	O 	0.283	0.4332	0.50377	-0.463
Mof_O 	O 	0.4529	0.6211	0.47567	-0.47
Mof_O 	O 	0.4303	0.4308	0.45009	-0.451
Mof_O 	O 	0.1204	0.307	0.5698	-0.445
Mof_O 	O 	0.2274	0.5534	0.57592	-0.508
Mof_O 	O 	0.0526	0.3106	0.47394	-0.593
Mof_O 	O 	0.9193	0.0605	0.70447	-0.475
Mof_O 	O 	0.0704	0.1417	0.62249	-0.499
Mof_O 	O 	0.9714	0.1078	0.5405	-0.346
Mof_H 	H 	0.326	0.491	0.4198	-0.014
Mof_H 	H 	0.94	0.199	0.6039	0.082
Mof_H 	H 	0.065	0.255	0.473	0.259
Mof_V 	V 	0.56434	0.70749	0.52686	1.796
Mof_P 	P 	0.81252	0.83719	0.58404	0.475
Mof_P 	P 	0.50334	0.8731	0.46386	0.486
Mof_O 	O 	0.5668	0.8498	0.50377	-0.419
Mof_O 	O 	0.3789	0.8318	0.47567	-0.444
Mof_O 	O 	0.5692	0.9995	0.45009	-0.337
Mof_O 	O 	0.693	0.8134	0.5698	-0.41
Mof_O 	O 	0.4466	0.674	0.57592	-0.464
Mof_O 	O 	0.6894	0.742	0.47394	-0.512
Mof_O 	O 	0.9395	0.8588	0.70447	-0.327
Mof_O 	O 	0.8583	0.9287	0.62249	-0.303
Mof_O 	O 	0.8922	0.8636	0.5405	-0.38
Mof_H 	H 	0.509	0.835	0.4198	0.003
Mof_H 	H 	0.801	0.741	0.6039	-0.009
Mof_H 	H 	0.745	0.81	0.473	0.283
Mof_V 	V 	0.70749	0.14315	0.02686	1.761
Mof_P 	P 	0.83719	0.02467	0.08404	0.231
Mof_P 	P 	0.8731	0.36976	0.96386	0.508
Mof_O 	O 	0.8498	0.283	0.00377	-0.444
Mof_O 	O 	0.8318	0.4529	0.97567	-0.435
Mof_O 	O 	0.9995	0.4303	0.95009	-0.331
Mof_O 	O 	0.8134	0.1204	0.0698	-0.418
Mof_O 	O 	0.674	0.2274	0.07592	-0.502
Mof_O 	O 	0.742	0.0526	0.97394	-0.576
Mof_O 	O 	0.8588	0.9193	0.20447	-0.361
Mof_O 	O 	0.9287	0.0704	0.12249	-0.364
Mof_O 	O 	0.8636	0.9714	0.0405	-0.28
Mof_H 	H 	0.835	0.326	0.9198	-0.003
Mof_H 	H 	0.741	0.94	0.1039	0.087
Mof_H 	H 	0.81	0.065	0.973	0.273
Mof_V 	V 	0.85685	0.56434	0.02686	1.815
Mof_P 	P 	0.97533	0.81252	0.08404	0.704
Mof_P 	P 	0.63024	0.50334	0.96386	0.503
Mof_O 	O 	0.717	0.5668	0.00377	-0.481
Mof_O 	O 	0.5471	0.3789	0.97567	-0.46
Mof_O 	O 	0.5697	0.5692	0.95009	-0.446
Mof_O 	O 	0.8796	0.693	0.0698	-0.436
Mof_O 	O 	0.7726	0.4466	0.07592	-0.443
Mof_O 	O 	0.9474	0.6894	0.97394	-0.429
Mof_O 	O 	0.0807	0.9395	0.20447	-0.401
Mof_O 	O 	0.9296	0.8583	0.12249	-0.356
Mof_O 	O 	0.0286	0.8922	0.0405	-0.569
Mof_H 	H 	0.674	0.509	0.9198	-0.007
Mof_H 	H 	0.06	0.801	0.1039	-0.114
Mof_H 	H 	0.935	0.745	0.973	0.295
Mof_V 	V 	0.43566	0.29251	0.02686	1.788
Mof_P 	P 	0.18748	0.16281	0.08404	0.473
Mof_P 	P 	0.49666	0.1269	0.96386	0.502
Mof_O 	O 	0.4332	0.1502	0.00377	-0.53
Mof_O 	O 	0.6211	0.1682	0.97567	-0.484
Mof_O 	O 	0.4308	0.0005	0.95009	-0.56
Mof_O 	O 	0.307	0.1866	0.0698	-0.476
Mof_O 	O 	0.5534	0.326	0.07592	-0.487
Mof_O 	O 	0.3106	0.258	0.97394	-0.505
Mof_O 	O 	0.0605	0.1412	0.20447	-0.575
Mof_O 	O 	0.1417	0.0713	0.12249	-0.559
Mof_O 	O 	0.1078	0.1364	0.0405	-0.575
Mof_H 	H 	0.491	0.165	0.9198	-0.023
Mof_H 	H 	0.199	0.259	0.1039	-0.04
Mof_H 	H 	0.255	0.19	0.973	0.273
Mof_V 	V 	0.70749	0.14315	0.47314	1.769
Mof_P 	P 	0.83719	0.02467	0.41596	0.235
Mof_P 	P 	0.8731	0.36976	0.53614	0.486
Mof_O 	O 	0.8498	0.283	0.49623	-0.419
Mof_O 	O 	0.8318	0.4529	0.52433	-0.445
Mof_O 	O 	0.9995	0.4303	0.54991	-0.335
Mof_O 	O 	0.8134	0.1204	0.4302	-0.414
Mof_O 	O 	0.674	0.2274	0.42408	-0.498
Mof_O 	O 	0.742	0.0526	0.52606	-0.588
Mof_O 	O 	0.8588	0.9193	0.29553	-0.361
Mof_O 	O 	0.9287	0.0704	0.37751	-0.363
Mof_O 	O 	0.8636	0.9714	0.4595	-0.274
Mof_H 	H 	0.835	0.326	0.5802	-0.001
Mof_H 	H 	0.741	0.94	0.3961	0.086
Mof_H 	H 	0.81	0.065	0.527	0.269
Mof_V 	V 	0.85685	0.56434	0.47314	1.822
Mof_P 	P 	0.97533	0.81252	0.41596	0.708
Mof_P 	P 	0.63024	0.50334	0.53614	0.483
Mof_O 	O 	0.717	0.5668	0.49623	-0.459
Mof_O 	O 	0.5471	0.3789	0.52433	-0.47
Mof_O 	O 	0.5697	0.5692	0.54991	-0.45
Mof_O 	O 	0.8796	0.693	0.4302	-0.433
Mof_O 	O 	0.7726	0.4466	0.42408	-0.439
Mof_O 	O 	0.9474	0.6894	0.52606	-0.439
Mof_O 	O 	0.0807	0.9395	0.29553	-0.402
Mof_O 	O 	0.9296	0.8583	0.37751	-0.357
Mof_O 	O 	0.0286	0.8922	0.4595	-0.565
Mof_H 	H 	0.674	0.509	0.5802	-0.005
Mof_H 	H 	0.06	0.801	0.3961	-0.115
Mof_H 	H 	0.935	0.745	0.527	0.292
Mof_V 	V 	0.43566	0.29251	0.47314	1.794
Mof_P 	P 	0.18748	0.16281	0.41596	0.473
Mof_P 	P 	0.49666	0.1269	0.53614	0.481
Mof_O 	O 	0.4332	0.1502	0.49623	-0.506
Mof_O 	O 	0.6211	0.1682	0.52433	-0.495
Mof_O 	O 	0.4308	0.0005	0.54991	-0.566
Mof_O 	O 	0.307	0.1866	0.4302	-0.472
Mof_O 	O 	0.5534	0.326	0.42408	-0.484
Mof_O 	O 	0.3106	0.258	0.52606	-0.516
Mof_O 	O 	0.0605	0.1412	0.29553	-0.575
Mof_O 	O 	0.1417	0.0713	0.37751	-0.559
Mof_O 	O 	0.1078	0.1364	0.4595	-0.567
Mof_H 	H 	0.491	0.165	0.5802	-0.022
Mof_H 	H 	0.199	0.259	0.3961	-0.04
Mof_H 	H 	0.255	0.19	0.527	0.269
Mof_V 	V 	0.29251	0.85685	0.97314	1.827
Mof_P 	P 	0.16281	0.97533	0.91596	0.732
Mof_P 	P 	0.1269	0.63024	0.03614	0.464
Mof_O 	O 	0.1502	0.717	0.99623	-0.483
Mof_O 	O 	0.1682	0.5471	0.02433	-0.504
Mof_O 	O 	0.0005	0.5697	0.04991	-0.564
Mof_O 	O 	0.1866	0.8796	0.9302	-0.463
Mof_O 	O 	0.326	0.7726	0.92408	-0.447
Mof_O 	O 	0.258	0.9474	0.02606	-0.442
Mof_O 	O 	0.1412	0.0807	0.79553	-0.539
Mof_O 	O 	0.0713	0.9296	0.87751	-0.478
Mof_O 	O 	0.1364	0.0286	0.9595	-0.668
Mof_H 	H 	0.165	0.674	0.0802	-0.015
Mof_H 	H 	0.259	0.06	0.8961	-0.141
Mof_H 	H 	0.19	0.935	0.027	0.285
Mof_V 	V 	0.14315	0.43566	0.97314	1.774
Mof_P 	P 	0.02467	0.18748	0.91596	0.209
Mof_P 	P 	0.36976	0.49666	0.03614	0.465
Mof_O 	O 	0.283	0.4332	0.99623	-0.442
Mof_O 	O 	0.4529	0.6211	0.02433	-0.478
Mof_O 	O 	0.4303	0.4308	0.04991	-0.455
Mof_O 	O 	0.1204	0.307	0.9302	-0.442
Mof_O 	O 	0.2274	0.5534	0.92408	-0.506
Mof_O 	O 	0.0526	0.3106	0.02606	-0.601
Mof_O 	O 	0.9193	0.0605	0.79553	-0.475
Mof_O 	O 	0.0704	0.1417	0.87751	-0.498
Mof_O 	O 	0.9714	0.1078	0.9595	-0.333
Mof_H 	H 	0.326	0.491	0.0802	-0.012
Mof_H 	H 	0.94	0.199	0.8961	0.084
Mof_H 	H 	0.065	0.255	0.027	0.256
Mof_V 	V 	0.56434	0.70749	0.97314	1.803
Mof_P 	P 	0.81252	0.83719	0.91596	0.475
Mof_P 	P 	0.50334	0.8731	0.03614	0.469
Mof_O 	O 	0.5668	0.8498	0.99623	-0.4
Mof_O 	O 	0.3789	0.8318	0.02433	-0.452
Mof_O 	O 	0.5692	0.9995	0.04991	-0.34
Mof_O 	O 	0.693	0.8134	0.9302	-0.407
Mof_O 	O 	0.4466	0.674	0.92408	-0.461
Mof_O 	O 	0.6894	0.742	0.02606	-0.522
Mof_O 	O 	0.9395	0.8588	0.79553	-0.327
Mof_O 	O 	0.8583	0.9287	0.87751	-0.304
Mof_O 	O 	0.8922	0.8636	0.9595	-0.37
Mof_H 	H 	0.509	0.835	0.0802	0.004
Mof_H 	H 	0.801	0.741	0.8961	-0.008
Mof_H 	H 	0.745	0.81	0.027	0.28
Mof_V 	V 	1.16568e-32	0	0.5	1.64
Mof_V 	V 	-0	0	-0	1.629
Mof_V 	V 	-1.16568e-32	0	0.66429	1.645
Mof_V 	V 	-2.91421e-33	-5.82842e-33	0.16429	1.645
Mof_V 	V 	-1.74853e-32	-1.16568e-32	0.33571	1.645
Mof_V 	V 	-0	0	0.83571	1.646
Mof_P 	P 	0.33333	0.66667	0.58962	0.507
Mof_H 	H 	0.33333	0.66667	0.6384	0.001
Mof_P 	P 	0.66667	0.33333	0.08962	0.506
Mof_H 	H 	0.66667	0.33333	0.1384	0.001
Mof_P 	P 	0.66667	0.33333	0.41038	0.507
Mof_H 	H 	0.66667	0.33333	0.3616	0.001
Mof_P 	P 	0.33333	0.66667	0.91038	0.508
Mof_H 	H 	0.33333	0.66667	0.8616	0
Mof_P 	P 	0.19121	0.06594	0.75	0.361
Mof_O 	O 	0.3209	0.1506	0.75	-0.386
Mof_H 	H 	0.3556	0.1147	0.75	0.209
Mof_H 	H 	0.194	0.964	0.75	0.062
Mof_P 	P 	0.93406	0.12527	0.75	0.644
Mof_O 	O 	0.8494	0.1703	0.75	-0.47
Mof_H 	H 	0.8853	0.2409	0.75	0.323
Mof_H 	H 	0.036	0.23	0.75	-0.153
Mof_P 	P 	0.87473	0.80879	0.75	0.507
Mof_O 	O 	0.8297	0.6791	0.75	-0.375
Mof_H 	H 	0.7591	0.6444	0.75	0.257
Mof_H 	H 	0.77	0.806	0.75	-0.002
Mof_P 	P 	0.80879	0.93406	0.25	0.638
Mof_O 	O 	0.6791	0.8494	0.25	-0.434
Mof_H 	H 	0.6444	0.8853	0.25	0.315
Mof_H 	H 	0.806	0.036	0.25	-0.113
Mof_P 	P 	0.06594	0.87473	0.25	0.377
Mof_O 	O 	0.1506	0.8297	0.25	-0.349
Mof_H 	H 	0.1147	0.7591	0.25	0.206
Mof_H 	H 	0.964	0.77	0.25	0.079
Mof_P 	P 	0.12527	0.19121	0.25	0.497
Mof_O 	O 	0.1703	0.3209	0.25	-0.446
Mof_H 	H 	0.2409	0.3556	0.25	0.268
Mof_H 	H 	0.23	0.194	0.25	-0.062
_end
