data_functionalizedCrystal
_audit_creation_method	'EQeq! by Chris Wilmer'
_symmetry_space_group_name_H-M	'P1'
_symmetry_Int_Tables_number	1
_symmetry_cell_setting	triclinic
loop_
_symmetry_equiv_pos_as_xyz
  x,y,z
_cell_length_a	24.046
_cell_length_b	24.1573
_cell_length_c	24.3834
_cell_angle_alpha	83.861
_cell_angle_beta	61.837
_cell_angle_gamma	61.701
loop_
_atom_site_label
_atom_site_type_symbol
_atom_site_fract_x
_atom_site_fract_y
_atom_site_fract_z
_atom_site_charge
Mof_Yb	Yb	0.34138	0.21992	0.36347	1.804
Mof_Yb	Yb	0.2466	0.77969	0.23044	1.787
Mof_Yb	Yb	0.8525	0.35268	0.20892	1.794
Mof_Yb	Yb	0.65862	0.78008	0.63653	1.804
Mof_Yb	Yb	0.7534	0.22031	0.76956	1.787
Mof_Yb	Yb	0.1475	0.64732	0.79108	1.794
Mof_H 	H 	0.2028	0.4083	0.4235	0.034
Mof_H 	H 	0.1737	0.5016	0.3768	0.105
Mof_H 	H 	0.166	0.5951	0.3601	0.119
Mof_H 	H 	0.41	0.3432	0.3081	0.028
Mof_H 	H 	0.3873	0.4328	0.26	0.071
Mof_H 	H 	0.3509	0.5006	0.1974	0.068
Mof_H 	H 	0.1423	0.6882	0.3185	0.041
Mof_H 	H 	0.327	0.5946	0.1569	0.016
Mof_H 	H 	0.0884	0.5606	0.7309	0.034
Mof_H 	H 	0.1102	0.4703	0.6837	0.074
Mof_H 	H 	0.2831	0.536	0.6068	0.022
Mof_H 	H 	0.3133	0.4407	0.5602	0.073
Mof_H 	H 	0.3294	0.3261	0.576	0.069
Mof_H 	H 	0.1348	0.4244	0.5822	0.094
Mof_H 	H 	0.1627	0.3389	0.5218	0.024
Mof_H 	H 	0.3517	0.2405	0.5168	0.028
Mof_H 	H 	0.0978	0.8114	0.6053	0.112
Mof_H 	H 	0.0998	0.792	0.6988	0.036
Mof_H 	H 	0.2935	0.6574	0.5159	0.078
Mof_H 	H 	0.2933	0.6419	0.6109	0.015
Mof_H 	H 	0.2619	0.6551	0.4447	0.094
Mof_H 	H 	0.2529	0.6723	0.3541	0.042
Mof_H 	H 	0.1115	0.8548	0.4218	0.029
Mof_H 	H 	0.1163	0.841	0.5133	0.096
Mof_H 	H 	0.2501	0.5872	0.8827	0.034
Mof_H 	H 	0.2743	0.6208	0.9498	0.065
Mof_H 	H 	0.0643	0.7497	0.0501	0.066
Mof_H 	H 	0.0411	0.7122	0.9827	0.024
Mof_H 	H 	0.0371	0.3396	0.0618	0.018
Mof_H 	H 	0.0687	0.3937	0.9783	0.065
Mof_H 	H 	0.9078	0.5574	0.0909	0.063
Mof_H 	H 	0.877	0.5012	0.1765	0.036
Mof_H 	H 	0.6377	0.4098	0.3146	0.019
Mof_H 	H 	0.5626	0.366	0.3597	0.065
Mof_H 	H 	0.7006	0.2249	0.2077	0.065
Mof_H 	H 	0.77	0.2736	0.1674	0.034
Mof_H 	H 	0.7688	0.5043	0.1351	0.031
Mof_H 	H 	0.6585	0.5641	0.1326	0.067
Mof_H 	H 	0.5542	0.5668	0.322	0.068
Mof_H 	H 	0.6658	0.5067	0.3176	0.017
Mof_H 	H 	0.0714	0.2578	0.138	0.018
Mof_H 	H 	0.1573	0.2621	0.154	0.07
Mof_H 	H 	0.0106	0.3209	0.3413	0.143
Mof_H 	H 	0.9319	0.3054	0.3216	0.075
Mof_H 	H 	0.858	0.1856	0.22	0.03
Mof_H 	H 	0.9386	0.0866	0.2303	0.071
Mof_H 	H 	0.104	0.1027	0.0884	0.072
Mof_H 	H 	0.0251	0.1999	0.0809	0.014
Mof_H 	H 	0.9584	0.0925	0.6475	0.023
Mof_H 	H 	0.0576	0.0977	0.5668	0.103
Mof_H 	H 	0.0104	0.2461	0.6709	0.074
Mof_H 	H 	0.915	0.2362	0.7525	0.029
Mof_H 	H 	0.2399	0.9043	0.1078	0.029
Mof_H 	H 	0.1609	0.9913	0.0858	0.069
Mof_H 	H 	0.0226	0.0469	0.2717	0.084
Mof_H 	H 	0.1086	0.9629	0.2914	0.028
Mof_H 	H 	0.1925	0.9178	0.3546	0.023
Mof_H 	H 	0.2169	0.0001	0.3539	0.108
Mof_H 	H 	0.4224	0.8859	0.224	0.071
Mof_H 	H 	0.392	0.8069	0.2278	0.031
Mof_H 	H 	0.1365	0.8403	0.1349	0.035
Mof_H 	H 	0.1011	0.8026	0.0821	0.066
Mof_H 	H 	0.2906	0.6384	0.0176	0.067
Mof_H 	H 	0.3243	0.6793	0.069	0.016
Mof_H 	H 	0.3573	0.7142	0.3153	0.034
Mof_H 	H 	0.4694	0.6661	0.3088	0.068
Mof_H 	H 	0.5517	0.5537	0.1505	0.07
Mof_H 	H 	0.439	0.6008	0.1596	0.018
Mof_H 	H 	0.6403	0.1413	0.8805	0.035
Mof_H 	H 	0.5825	0.1325	0.987	0.065
Mof_H 	H 	0.5097	0.3215	0.0303	0.063
Mof_H 	H 	0.5666	0.3257	0.9236	0.017
Mof_H 	H 	0.1169	0.3003	0.4744	0.036
Mof_H 	H 	0.0345	0.2863	0.565	0.087
Mof_H 	H 	0.1716	0.0956	0.5182	0.078
Mof_H 	H 	0.2529	0.1154	0.4334	0.034
Mof_H 	H 	0.257	0.1621	0.2995	0.064
Mof_H 	H 	0.2372	0.0752	0.3059	0.115
Mof_H 	H 	0.4461	0.9554	0.2541	0.068
Mof_H 	H 	0.4624	0.0429	0.2531	0.02
Mof_H 	H 	0.4152	0.2911	0.4298	0.032
Mof_H 	H 	0.4939	0.3312	0.3894	0.067
Mof_H 	H 	0.6382	0.1783	0.255	0.067
Mof_H 	H 	0.5597	0.138	0.2958	0.022
Mof_H 	H 	0.1519	0.3578	0.3717	0.035
Mof_H 	H 	0.0703	0.3595	0.3453	0.112
Mof_H 	H 	0.2373	0.2373	0.1848	0.069
Mof_H 	H 	0.3179	0.2362	0.2144	0.035
Mof_H 	H 	0.322	0.1265	0.5051	0.03
Mof_H 	H 	0.4989	0.0392	0.3423	0.017
Mof_H 	H 	0.5627	0.9831	0.3969	0.068
Mof_H 	H 	0.3856	0.0736	0.5589	0.068
Mof_H 	H 	0.3822	0.3125	0.2222	0.031
Mof_H 	H 	0.4237	0.311	0.1166	0.071
Mof_H 	H 	0.579	0.133	0.0861	0.072
Mof_H 	H 	0.5324	0.1331	0.1944	0.019
Mof_H 	H 	0.7972	0.5917	0.5765	0.034
Mof_H 	H 	0.8263	0.4984	0.6232	0.105
Mof_H 	H 	0.834	0.4049	0.6399	0.119
Mof_H 	H 	0.59	0.6568	0.6919	0.028
Mof_H 	H 	0.6127	0.5672	0.74	0.071
Mof_H 	H 	0.6491	0.4994	0.8026	0.068
Mof_H 	H 	0.8577	0.3118	0.6815	0.041
Mof_H 	H 	0.673	0.4054	0.8431	0.016
Mof_H 	H 	0.9116	0.4394	0.2691	0.034
Mof_H 	H 	0.8898	0.5297	0.3163	0.074
Mof_H 	H 	0.7169	0.464	0.3932	0.022
Mof_H 	H 	0.6867	0.5593	0.4398	0.073
Mof_H 	H 	0.6706	0.6739	0.424	0.069
Mof_H 	H 	0.8652	0.5756	0.4178	0.094
Mof_H 	H 	0.8373	0.6611	0.4782	0.024
Mof_H 	H 	0.6483	0.7595	0.4832	0.028
Mof_H 	H 	0.9022	0.1886	0.3947	0.112
Mof_H 	H 	0.9002	0.208	0.3012	0.036
Mof_H 	H 	0.7065	0.3426	0.4841	0.078
Mof_H 	H 	0.7067	0.3581	0.3891	0.015
Mof_H 	H 	0.7381	0.3449	0.5553	0.094
Mof_H 	H 	0.7471	0.3277	0.6459	0.042
Mof_H 	H 	0.8885	0.1452	0.5782	0.029
Mof_H 	H 	0.8837	0.159	0.4867	0.096
Mof_H 	H 	0.7499	0.4128	0.1173	0.034
Mof_H 	H 	0.7257	0.3792	0.0502	0.065
Mof_H 	H 	0.9357	0.2503	0.9499	0.066
Mof_H 	H 	0.9589	0.2878	0.0173	0.024
Mof_H 	H 	0.9629	0.6604	0.9382	0.018
Mof_H 	H 	0.9313	0.6063	0.0217	0.065
Mof_H 	H 	0.0922	0.4426	0.9091	0.063
Mof_H 	H 	0.123	0.4988	0.8235	0.036
Mof_H 	H 	0.3623	0.5902	0.6854	0.019
Mof_H 	H 	0.4374	0.634	0.6403	0.065
Mof_H 	H 	0.2994	0.7751	0.7923	0.065
Mof_H 	H 	0.23	0.7264	0.8326	0.034
Mof_H 	H 	0.2312	0.4957	0.8649	0.031
Mof_H 	H 	0.3415	0.4359	0.8674	0.067
Mof_H 	H 	0.4458	0.4332	0.678	0.068
Mof_H 	H 	0.3342	0.4933	0.6824	0.017
Mof_H 	H 	0.9286	0.7422	0.862	0.018
Mof_H 	H 	0.8427	0.7379	0.846	0.07
Mof_H 	H 	0.9894	0.6791	0.6587	0.143
Mof_H 	H 	0.0681	0.6946	0.6784	0.075
Mof_H 	H 	0.142	0.8144	0.78	0.03
Mof_H 	H 	0.0614	0.9134	0.7697	0.071
Mof_H 	H 	0.896	0.8973	0.9116	0.072
Mof_H 	H 	0.9749	0.8001	0.9191	0.014
Mof_H 	H 	0.0416	0.9075	0.3525	0.023
Mof_H 	H 	0.9424	0.9023	0.4332	0.103
Mof_H 	H 	0.9896	0.7539	0.3291	0.074
Mof_H 	H 	0.085	0.7638	0.2475	0.029
Mof_H 	H 	0.7601	0.0957	0.8922	0.029
Mof_H 	H 	0.8391	0.0087	0.9142	0.069
Mof_H 	H 	0.9774	0.9531	0.7283	0.084
Mof_H 	H 	0.8914	0.0371	0.7086	0.028
Mof_H 	H 	0.8075	0.0822	0.6454	0.023
Mof_H 	H 	0.7831	0.9999	0.6461	0.108
Mof_H 	H 	0.5776	0.1141	0.776	0.071
Mof_H 	H 	0.608	0.1931	0.7722	0.031
Mof_H 	H 	0.8635	0.1597	0.8651	0.035
Mof_H 	H 	0.8989	0.1974	0.9179	0.066
Mof_H 	H 	0.7094	0.3616	0.9824	0.067
Mof_H 	H 	0.6757	0.3207	0.931	0.016
Mof_H 	H 	0.6427	0.2858	0.6847	0.034
Mof_H 	H 	0.5306	0.3339	0.6912	0.068
Mof_H 	H 	0.4483	0.4463	0.8495	0.07
Mof_H 	H 	0.561	0.3992	0.8404	0.018
Mof_H 	H 	0.3597	0.8587	0.1195	0.035
Mof_H 	H 	0.4175	0.8675	0.013	0.065
Mof_H 	H 	0.4903	0.6785	0.9697	0.063
Mof_H 	H 	0.4334	0.6743	0.0764	0.017
Mof_H 	H 	0.8831	0.6997	0.5256	0.036
Mof_H 	H 	0.9655	0.7137	0.435	0.087
Mof_H 	H 	0.8284	0.9044	0.4818	0.078
Mof_H 	H 	0.7471	0.8846	0.5666	0.034
Mof_H 	H 	0.743	0.8379	0.7005	0.064
Mof_H 	H 	0.7628	0.9248	0.6941	0.115
Mof_H 	H 	0.5539	0.0446	0.7459	0.068
Mof_H 	H 	0.5376	0.9571	0.7469	0.02
Mof_H 	H 	0.5848	0.7089	0.5702	0.032
Mof_H 	H 	0.5061	0.6688	0.6106	0.067
Mof_H 	H 	0.3618	0.8217	0.745	0.067
Mof_H 	H 	0.4403	0.862	0.7042	0.022
Mof_H 	H 	0.8481	0.6422	0.6283	0.035
Mof_H 	H 	0.9297	0.6405	0.6547	0.112
Mof_H 	H 	0.7627	0.7627	0.8152	0.069
Mof_H 	H 	0.6821	0.7638	0.7856	0.035
Mof_H 	H 	0.678	0.8735	0.4949	0.03
Mof_H 	H 	0.5011	0.9608	0.6577	0.017
Mof_H 	H 	0.4373	0.0169	0.6031	0.068
Mof_H 	H 	0.6144	0.9264	0.4411	0.068
Mof_H 	H 	0.6178	0.6875	0.7778	0.031
Mof_H 	H 	0.5763	0.689	0.8834	0.071
Mof_H 	H 	0.421	0.867	0.9139	0.072
Mof_H 	H 	0.4676	0.8669	0.8056	0.019
Mof_C 	C 	0.24	0.414	0.3895	0.085
Mof_C 	C 	0.2225	0.4698	0.3622	-0.098
Mof_C 	C 	0.2776	0.4774	0.3138	0.065
Mof_C 	C 	0.1992	0.5947	0.3184	-0.114
Mof_C 	C 	0.3618	0.3759	0.3218	0.07
Mof_C 	C 	0.3483	0.4287	0.2937	-0.113
Mof_C 	C 	0.261	0.5369	0.2841	0.06
Mof_C 	C 	0.3085	0.5387	0.2226	-0.115
Mof_C 	C 	0.1851	0.6498	0.2945	0.069
Mof_C 	C 	0.2947	0.5939	0.1987	0.068
Mof_C 	C 	0.1335	0.5363	0.6948	0.07
Mof_C 	C 	0.1466	0.4825	0.6678	-0.099
Mof_C 	C 	0.2486	0.5215	0.6224	0.079
Mof_C 	C 	0.2663	0.4655	0.5942	-0.102
Mof_C 	C 	0.2154	0.4441	0.6153	0.05
Mof_C 	C 	0.2323	0.3866	0.5825	0.055
Mof_C 	C 	0.295	0.3305	0.5645	-0.112
Mof_C 	C 	0.1808	0.3877	0.5673	-0.112
Mof_C 	C 	0.197	0.3373	0.532	0.07
Mof_C 	C 	0.3083	0.2795	0.5288	0.062
Mof_C 	C 	0.138	0.7756	0.6059	-0.116
Mof_C 	C 	0.1394	0.7641	0.6611	0.079
Mof_C 	C 	0.2531	0.6853	0.5532	-0.117
Mof_C 	C 	0.2525	0.676	0.6095	0.082
Mof_C 	C 	0.1913	0.7456	0.4906	0.071
Mof_C 	C 	0.1942	0.7358	0.5511	0.087
Mof_C 	C 	0.2305	0.6964	0.4411	-0.089
Mof_C 	C 	0.2249	0.7063	0.3878	0.08
Mof_C 	C 	0.1413	0.8139	0.4275	0.097
Mof_C 	C 	0.1452	0.8057	0.4808	-0.095
Mof_C 	C 	0.212	0.6199	0.9173	0.054
Mof_C 	C 	0.2264	0.6412	0.9561	-0.105
Mof_C 	C 	0.174	0.6911	0.0038	0.044
Mof_C 	C 	0.1027	0.7169	0.0156	-0.105
Mof_C 	C 	0.0889	0.6939	0.9761	0.058
Mof_C 	C 	0.0101	0.3847	0.0681	0.061
Mof_C 	C 	0.029	0.4167	0.0182	-0.108
Mof_C 	C 	0.99	0.4831	0.0261	0.045
Mof_C 	C 	0.9351	0.5123	0.0841	-0.098
Mof_C 	C 	0.9158	0.4792	0.136	0.047
Mof_C 	C 	0.6494	0.3722	0.2931	0.063
Mof_C 	C 	0.6051	0.346	0.3204	-0.105
Mof_C 	C 	0.6231	0.2878	0.2894	0.038
Mof_C 	C 	0.6864	0.2628	0.2307	-0.101
Mof_C 	C 	0.7271	0.2918	0.2067	0.051
Mof_C 	C 	0.7244	0.5168	0.1727	0.056
Mof_C 	C 	0.6588	0.5521	0.1709	-0.106
Mof_C 	C 	0.5936	0.5692	0.2274	0.042
Mof_C 	C 	0.5971	0.5535	0.2828	-0.112
Mof_C 	C 	0.6634	0.5186	0.28	0.063
Mof_C 	C 	0.0605	0.2686	0.1794	0.077
Mof_C 	C 	0.1112	0.2722	0.1885	-0.11
Mof_C 	C 	0.0933	0.2912	0.2503	0.067
Mof_C 	C 	0.0247	0.3059	0.3	-0.091
Mof_C 	C 	0.9774	0.2982	0.2879	0.08
Mof_C 	C 	0.9085	0.1693	0.1946	0.06
Mof_C 	C 	0.9565	0.1108	0.2008	-0.111
Mof_C 	C 	0.0293	0.0877	0.1648	0.056
Mof_C 	C 	0.054	0.1205	0.1173	-0.117
Mof_C 	C 	0.0076	0.1768	0.1124	0.07
Mof_C 	C 	0.9694	0.124	0.6522	0.075
Mof_C 	C 	0.0267	0.1285	0.6037	-0.11
Mof_C 	C 	0.0398	0.1779	0.608	0.072
Mof_C 	C 	0.9997	0.2149	0.6645	-0.12
Mof_C 	C 	0.9432	0.2085	0.7137	0.069
Mof_C 	C 	0.1958	0.9348	0.1412	0.065
Mof_C 	C 	0.1488	0.9851	0.1283	-0.113
Mof_C 	C 	0.0823	0.0284	0.1771	0.054
Mof_C 	C 	0.0677	0.0187	0.2376	-0.111
Mof_C 	C 	0.1183	0.9684	0.2493	0.078
Mof_C 	C 	0.2398	0.9117	0.3279	0.088
Mof_C 	C 	0.2539	0.961	0.327	-0.127
Mof_C 	C 	0.3213	0.9533	0.2871	0.065
Mof_C 	C 	0.3743	0.8939	0.2507	-0.118
Mof_C 	C 	0.3566	0.8469	0.2538	0.068
Mof_C 	C 	0.1682	0.7996	0.1096	0.051
Mof_C 	C 	0.1473	0.7772	0.0791	-0.104
Mof_C 	C 	0.1944	0.7147	0.0417	0.046
Mof_C 	C 	0.2589	0.6803	0.0404	-0.115
Mof_C 	C 	0.2786	0.7047	0.0711	0.067
Mof_C 	C 	0.3969	0.6803	0.2823	0.055
Mof_C 	C 	0.4632	0.6523	0.278	-0.109
Mof_C 	C 	0.5233	0.6029	0.2282	0.051
Mof_C 	C 	0.5122	0.5858	0.1852	-0.118
Mof_C 	C 	0.4454	0.6137	0.1906	0.064
Mof_C 	C 	0.6128	0.1775	0.9118	0.05
Mof_C 	C 	0.58	0.1719	0.9749	-0.098
Mof_C 	C 	0.5424	0.2258	0.0214	0.033
Mof_C 	C 	0.5364	0.2841	0.0006	-0.103
Mof_C 	C 	0.5693	0.2867	0.9375	0.056
Mof_C 	C 	0.1278	0.2585	0.4845	0.091
Mof_C 	C 	0.079	0.2507	0.5379	-0.095
Mof_C 	C 	0.0954	0.1888	0.5528	0.065
Mof_C 	C 	0.1604	0.1381	0.5109	-0.092
Mof_C 	C 	0.207	0.15	0.4599	0.083
Mof_C 	C 	0.2948	0.1199	0.2919	0.062
Mof_C 	C 	0.284	0.0678	0.2946	-0.106
Mof_C 	C 	0.3377	0.0066	0.2818	0.049
Mof_C 	C 	0.4066	0.9972	0.2648	-0.11
Mof_C 	C 	0.4161	0.0492	0.2639	0.068
Mof_C 	C 	0.4609	0.2678	0.3939	0.057
Mof_C 	C 	0.5077	0.2916	0.3697	-0.106
Mof_C 	C 	0.5757	0.2594	0.3163	0.048
Mof_C 	C 	0.5925	0.202	0.2908	-0.108
Mof_C 	C 	0.5464	0.1778	0.3147	0.06
Mof_C 	C 	0.1687	0.3327	0.3342	0.078
Mof_C 	C 	0.1205	0.3334	0.3187	-0.096
Mof_C 	C 	0.2192	0.2609	0.2236	-0.096
Mof_C 	C 	0.1447	0.2957	0.2632	0.063
Mof_C 	C 	0.2673	0.2607	0.2408	0.054
Mof_C 	C 	0.372	0.097	0.4825	0.062
Mof_C 	C 	0.4751	0.0458	0.387	0.069
Mof_C 	C 	0.5125	0.0118	0.4198	-0.116
Mof_C 	C 	0.4792	0.019	0.4826	0.055
Mof_C 	C 	0.409	0.0644	0.5144	-0.115
Mof_C 	C 	0.4233	0.2754	0.194	0.062
Mof_C 	C 	0.4485	0.2749	0.1318	-0.122
Mof_C 	C 	0.5098	0.2228	0.0896	0.061
Mof_C 	C 	0.5387	0.1707	0.1139	-0.122
Mof_C 	C 	0.5115	0.1705	0.1783	0.068
Mof_C 	C 	0.76	0.586	0.6105	0.085
Mof_C 	C 	0.7775	0.5302	0.6378	-0.098
Mof_C 	C 	0.7224	0.5226	0.6862	0.065
Mof_C 	C 	0.8008	0.4053	0.6816	-0.114
Mof_C 	C 	0.6382	0.6241	0.6782	0.07
Mof_C 	C 	0.6517	0.5713	0.7063	-0.113
Mof_C 	C 	0.739	0.4631	0.7159	0.06
Mof_C 	C 	0.6915	0.4613	0.7774	-0.115
Mof_C 	C 	0.8149	0.3502	0.7055	0.069
Mof_C 	C 	0.7053	0.4061	0.8013	0.068
Mof_C 	C 	0.8665	0.4637	0.3052	0.07
Mof_C 	C 	0.8534	0.5175	0.3322	-0.099
Mof_C 	C 	0.7514	0.4785	0.3776	0.079
Mof_C 	C 	0.7337	0.5345	0.4058	-0.102
Mof_C 	C 	0.7846	0.5559	0.3847	0.05
Mof_C 	C 	0.7677	0.6134	0.4175	0.055
Mof_C 	C 	0.705	0.6695	0.4355	-0.112
Mof_C 	C 	0.8192	0.6123	0.4327	-0.112
Mof_C 	C 	0.803	0.6627	0.468	0.07
Mof_C 	C 	0.6917	0.7205	0.4712	0.062
Mof_C 	C 	0.862	0.2244	0.3941	-0.116
Mof_C 	C 	0.8606	0.2359	0.3389	0.079
Mof_C 	C 	0.7469	0.3147	0.4468	-0.117
Mof_C 	C 	0.7475	0.324	0.3905	0.082
Mof_C 	C 	0.8087	0.2544	0.5094	0.071
Mof_C 	C 	0.8058	0.2642	0.4489	0.087
Mof_C 	C 	0.7695	0.3036	0.5589	-0.089
Mof_C 	C 	0.7751	0.2937	0.6122	0.08
Mof_C 	C 	0.8587	0.1861	0.5725	0.097
Mof_C 	C 	0.8548	0.1943	0.5192	-0.095
Mof_C 	C 	0.788	0.3801	0.0827	0.054
Mof_C 	C 	0.7736	0.3588	0.0439	-0.105
Mof_C 	C 	0.826	0.3089	0.9962	0.044
Mof_C 	C 	0.8973	0.2831	0.9844	-0.105
Mof_C 	C 	0.9111	0.3061	0.0239	0.058
Mof_C 	C 	0.9899	0.6153	0.9319	0.061
Mof_C 	C 	0.971	0.5833	0.9818	-0.108
Mof_C 	C 	0.01	0.5169	0.9739	0.045
Mof_C 	C 	0.0649	0.4877	0.9159	-0.098
Mof_C 	C 	0.0842	0.5208	0.864	0.047
Mof_C 	C 	0.3506	0.6278	0.7069	0.063
Mof_C 	C 	0.3949	0.654	0.6796	-0.105
Mof_C 	C 	0.3769	0.7122	0.7106	0.038
Mof_C 	C 	0.3136	0.7372	0.7693	-0.101
Mof_C 	C 	0.2729	0.7082	0.7933	0.051
Mof_C 	C 	0.2756	0.4832	0.8273	0.056
Mof_C 	C 	0.3412	0.4479	0.8291	-0.106
Mof_C 	C 	0.4064	0.4308	0.7726	0.042
Mof_C 	C 	0.4029	0.4465	0.7172	-0.112
Mof_C 	C 	0.3366	0.4814	0.72	0.063
Mof_C 	C 	0.9395	0.7314	0.8206	0.077
Mof_C 	C 	0.8888	0.7278	0.8115	-0.11
Mof_C 	C 	0.9067	0.7088	0.7497	0.067
Mof_C 	C 	0.9753	0.6941	0.7	-0.091
Mof_C 	C 	0.0226	0.7018	0.7121	0.08
Mof_C 	C 	0.0915	0.8307	0.8054	0.06
Mof_C 	C 	0.0435	0.8892	0.7992	-0.111
Mof_C 	C 	0.9707	0.9123	0.8352	0.056
Mof_C 	C 	0.946	0.8795	0.8827	-0.117
Mof_C 	C 	0.9924	0.8232	0.8876	0.07
Mof_C 	C 	0.0306	0.876	0.3478	0.075
Mof_C 	C 	0.9733	0.8715	0.3963	-0.11
Mof_C 	C 	0.9602	0.8221	0.392	0.072
Mof_C 	C 	0.0003	0.7851	0.3355	-0.12
Mof_C 	C 	0.0568	0.7915	0.2863	0.069
Mof_C 	C 	0.8042	0.0652	0.8588	0.065
Mof_C 	C 	0.8512	0.0149	0.8717	-0.113
Mof_C 	C 	0.9177	0.9716	0.8229	0.054
Mof_C 	C 	0.9323	0.9813	0.7624	-0.111
Mof_C 	C 	0.8817	0.0316	0.7507	0.078
Mof_C 	C 	0.7602	0.0883	0.6721	0.088
Mof_C 	C 	0.7461	0.039	0.673	-0.127
Mof_C 	C 	0.6787	0.0467	0.7129	0.065
Mof_C 	C 	0.6257	0.1061	0.7493	-0.118
Mof_C 	C 	0.6434	0.1531	0.7462	0.068
Mof_C 	C 	0.8318	0.2004	0.8904	0.051
Mof_C 	C 	0.8527	0.2228	0.9209	-0.104
Mof_C 	C 	0.8056	0.2853	0.9583	0.046
Mof_C 	C 	0.7411	0.3197	0.9596	-0.115
Mof_C 	C 	0.7214	0.2953	0.9289	0.067
Mof_C 	C 	0.6031	0.3197	0.7177	0.055
Mof_C 	C 	0.5368	0.3477	0.722	-0.109
Mof_C 	C 	0.4767	0.3971	0.7718	0.051
Mof_C 	C 	0.4878	0.4142	0.8148	-0.118
Mof_C 	C 	0.5546	0.3863	0.8094	0.064
Mof_C 	C 	0.3872	0.8225	0.0882	0.05
Mof_C 	C 	0.42	0.8281	0.0251	-0.098
Mof_C 	C 	0.4576	0.7742	0.9786	0.033
Mof_C 	C 	0.4636	0.7159	0.9994	-0.103
Mof_C 	C 	0.4307	0.7133	0.0625	0.056
Mof_C 	C 	0.8722	0.7415	0.5155	0.091
Mof_C 	C 	0.921	0.7493	0.4621	-0.095
Mof_C 	C 	0.9046	0.8112	0.4472	0.065
Mof_C 	C 	0.8396	0.8619	0.4891	-0.092
Mof_C 	C 	0.793	0.85	0.5401	0.083
Mof_C 	C 	0.7052	0.8801	0.7081	0.062
Mof_C 	C 	0.716	0.9322	0.7054	-0.106
Mof_C 	C 	0.6623	0.9934	0.7182	0.049
Mof_C 	C 	0.5934	0.0028	0.7352	-0.11
Mof_C 	C 	0.5839	0.9508	0.7361	0.068
Mof_C 	C 	0.5391	0.7322	0.6061	0.057
Mof_C 	C 	0.4923	0.7084	0.6303	-0.106
Mof_C 	C 	0.4243	0.7406	0.6837	0.048
Mof_C 	C 	0.4075	0.798	0.7092	-0.108
Mof_C 	C 	0.4536	0.8222	0.6853	0.06
Mof_C 	C 	0.8313	0.6673	0.6658	0.078
Mof_C 	C 	0.8795	0.6666	0.6813	-0.096
Mof_C 	C 	0.7808	0.7391	0.7764	-0.096
Mof_C 	C 	0.8553	0.7043	0.7368	0.063
Mof_C 	C 	0.7327	0.7393	0.7592	0.054
Mof_C 	C 	0.628	0.903	0.5175	0.062
Mof_C 	C 	0.5249	0.9542	0.613	0.069
Mof_C 	C 	0.4875	0.9882	0.5802	-0.116
Mof_C 	C 	0.5208	0.981	0.5174	0.055
Mof_C 	C 	0.591	0.9356	0.4856	-0.115
Mof_C 	C 	0.5767	0.7246	0.806	0.062
Mof_C 	C 	0.5515	0.7251	0.8682	-0.122
Mof_C 	C 	0.4902	0.7772	0.9104	0.061
Mof_C 	C 	0.4613	0.8293	0.8861	-0.122
Mof_C 	C 	0.4885	0.8295	0.8217	0.068
Mof_N 	N 	0.4063	0.0871	0.4195	-0.068
Mof_N 	N 	0.4789	0.2122	0.3676	-0.061
Mof_N 	N 	0.4562	0.2233	0.217	-0.063
Mof_N 	N 	0.3619	0.108	0.2778	-0.068
Mof_N 	N 	0.3075	0.3696	0.3684	-0.069
Mof_N 	N 	0.2406	0.296	0.2957	-0.061
Mof_N 	N 	0.1917	0.2089	0.4447	-0.055
Mof_N 	N 	0.2621	0.2845	0.5114	-0.068
Mof_N 	N 	0.2339	0.649	0.2349	-0.066
Mof_N 	N 	0.1793	0.7646	0.3824	-0.062
Mof_N 	N 	0.3876	0.6598	0.2395	-0.059
Mof_N 	N 	0.2905	0.8568	0.2927	-0.073
Mof_N 	N 	0.6058	0.2341	0.8948	-0.061
Mof_N 	N 	0.1809	0.9271	0.2018	-0.065
Mof_N 	N 	0.2364	0.7632	0.1043	-0.059
Mof_N 	N 	0.9284	0.1649	0.7072	-0.07
Mof_N 	N 	0.7243	0.5012	0.2258	-0.07
Mof_N 	N 	0.1433	0.6455	0.9281	-0.063
Mof_N 	N 	0.7078	0.3471	0.2378	-0.059
Mof_N 	N 	0.9348	0.2023	0.152	-0.067
Mof_N 	N 	0.1953	0.7144	0.6631	-0.069
Mof_N 	N 	0.9966	0.2801	0.2276	-0.062
Mof_N 	N 	0.1833	0.5567	0.6717	-0.054
Mof_N 	N 	0.9553	0.415	0.1247	-0.06
Mof_N 	N 	0.5937	0.9129	0.5805	-0.068
Mof_N 	N 	0.5211	0.7878	0.6324	-0.061
Mof_N 	N 	0.5438	0.7767	0.783	-0.063
Mof_N 	N 	0.6381	0.892	0.7222	-0.068
Mof_N 	N 	0.6925	0.6304	0.6316	-0.069
Mof_N 	N 	0.7594	0.704	0.7043	-0.061
Mof_N 	N 	0.8083	0.7911	0.5553	-0.055
Mof_N 	N 	0.7379	0.7155	0.4886	-0.068
Mof_N 	N 	0.7661	0.351	0.7651	-0.066
Mof_N 	N 	0.8207	0.2354	0.6176	-0.062
Mof_N 	N 	0.6124	0.3402	0.7605	-0.059
Mof_N 	N 	0.7095	0.1432	0.7073	-0.073
Mof_N 	N 	0.3942	0.7659	0.1052	-0.061
Mof_N 	N 	0.8191	0.0729	0.7982	-0.065
Mof_N 	N 	0.7636	0.2368	0.8957	-0.059
Mof_N 	N 	0.0716	0.8351	0.2928	-0.07
Mof_N 	N 	0.2757	0.4988	0.7742	-0.07
Mof_N 	N 	0.8567	0.3545	0.0719	-0.063
Mof_N 	N 	0.2922	0.6529	0.7622	-0.059
Mof_N 	N 	0.0652	0.7977	0.848	-0.067
Mof_N 	N 	0.8047	0.2856	0.3369	-0.069
Mof_N 	N 	0.0034	0.7199	0.7724	-0.062
Mof_N 	N 	0.8167	0.4433	0.3283	-0.054
Mof_N 	N 	0.0447	0.585	0.8753	-0.06
Mof_O 	O 	0.3698	0.1191	0.3879	-0.296
Mof_O 	O 	0.4331	0.19	0.389	-0.282
Mof_O 	O 	0.4346	0.2259	0.2791	-0.3
Mof_O 	O 	0.373	0.1585	0.2766	-0.287
Mof_O 	O 	0.3207	0.3168	0.3967	-0.29
Mof_O 	O 	0.286	0.2952	0.3122	-0.282
Mof_O 	O 	0.2358	0.2198	0.3919	-0.281
Mof_O 	O 	0.2785	0.2365	0.4741	-0.28
Mof_O 	O 	0.2214	0.7037	0.2113	-0.283
Mof_O 	O 	0.1712	0.773	0.331	-0.283
Mof_O 	O 	0.3225	0.683	0.2467	-0.287
Mof_O 	O 	0.2755	0.8092	0.2967	-0.287
Mof_O 	O 	0.6359	0.2396	0.8343	-0.286
Mof_O 	O 	0.231	0.8803	0.2143	-0.289
Mof_O 	O 	0.2583	0.7867	0.1316	-0.294
Mof_O 	O 	0.8727	0.1596	0.7525	-0.274
Mof_O 	O 	0.7878	0.4646	0.2251	-0.278
Mof_O 	O 	0.1294	0.6227	0.8914	-0.282
Mof_O 	O 	0.7475	0.376	0.2128	-0.305
Mof_O 	O 	0.8906	0.2606	0.1476	-0.281
Mof_O 	O 	0.1966	0.7029	0.7174	-0.281
Mof_O 	O 	0.9498	0.273	0.2177	-0.281
Mof_O 	O 	0.1672	0.6117	0.6964	-0.282
Mof_O 	O 	0.9387	0.3835	0.1725	-0.299
Mof_O 	O 	0.6302	0.8809	0.6121	-0.296
Mof_O 	O 	0.5669	0.81	0.611	-0.282
Mof_O 	O 	0.5654	0.7741	0.7209	-0.3
Mof_O 	O 	0.627	0.8415	0.7234	-0.287
Mof_O 	O 	0.6793	0.6832	0.6033	-0.29
Mof_O 	O 	0.714	0.7048	0.6878	-0.282
Mof_O 	O 	0.7642	0.7802	0.6081	-0.281
Mof_O 	O 	0.7215	0.7635	0.5259	-0.28
Mof_O 	O 	0.7786	0.2963	0.7887	-0.283
Mof_O 	O 	0.8288	0.227	0.669	-0.283
Mof_O 	O 	0.6775	0.317	0.7533	-0.287
Mof_O 	O 	0.7245	0.1908	0.7033	-0.287
Mof_O 	O 	0.3641	0.7604	0.1657	-0.286
Mof_O 	O 	0.769	0.1197	0.7857	-0.289
Mof_O 	O 	0.7417	0.2133	0.8684	-0.294
Mof_O 	O 	0.1273	0.8404	0.2475	-0.274
Mof_O 	O 	0.2122	0.5354	0.7749	-0.278
Mof_O 	O 	0.8706	0.3773	0.1086	-0.282
Mof_O 	O 	0.2525	0.624	0.7872	-0.305
Mof_O 	O 	0.1094	0.7394	0.8524	-0.281
Mof_O 	O 	0.8034	0.2971	0.2826	-0.281
Mof_O 	O 	0.0502	0.727	0.7823	-0.281
Mof_O 	O 	0.8328	0.3883	0.3036	-0.282
Mof_O 	O 	0.0613	0.6165	0.8275	-0.299
Mof_C 	C 	0.9453	0.8239	0.5995	0.662
Mof_S 	S 	0.9399	0.877	0.6535	0.325
Mof_O 	O 	0.9623	0.8367	0.6969	-0.177
Mof_O 	O 	0.9909	0.8983	0.6088	-0.189
Mof_O 	O 	0.8629	0.9269	0.6828	-0.188
Mof_F 	F 	0.894	0.8032	0.6329	-0.44
Mof_F 	F 	0.016	0.7722	0.5732	-0.421
Mof_F 	F 	0.9314	0.8578	0.5528	-0.443
Mof_C 	C 	0.8735	0.4176	0.4767	0.662
Mof_S 	S 	0.938	0.3564	0.5013	0.488
Mof_O 	O 	0.0037	0.3275	0.4393	-0.129
Mof_O 	O 	0.915	0.3111	0.5389	-0.15
Mof_O 	O 	0.9364	0.4027	0.5384	-0.157
Mof_F 	F 	0.873	0.3781	0.4393	-0.45
Mof_F 	F 	0.8215	0.4256	0.539	-0.472
Mof_F 	F 	0.9303	0.4291	0.4633	-0.491
Mof_C 	C 	0.0547	0.1761	0.4005	0.662
Mof_S 	S 	0.0601	0.123	0.3465	0.325
Mof_O 	O 	0.0377	0.1633	0.3031	-0.177
Mof_O 	O 	0.0091	0.1017	0.3912	-0.189
Mof_O 	O 	0.1371	0.0731	0.3172	-0.188
Mof_F 	F 	0.106	0.1968	0.3671	-0.44
Mof_F 	F 	0.984	0.2278	0.4268	-0.421
Mof_F 	F 	0.0686	0.1422	0.4472	-0.443
Mof_C 	C 	0.1265	0.5824	0.5233	0.662
Mof_S 	S 	0.062	0.6436	0.4987	0.488
Mof_O 	O 	0.9963	0.6725	0.5607	-0.129
Mof_O 	O 	0.085	0.6889	0.4611	-0.15
Mof_O 	O 	0.0636	0.5973	0.4616	-0.157
Mof_F 	F 	0.127	0.6219	0.5607	-0.45
Mof_F 	F 	0.1785	0.5744	0.461	-0.472
Mof_F 	F 	0.0697	0.5709	0.5367	-0.491
_end
