data_functionalizedCrystal
_audit_creation_method	'EQeq! by Chris Wilmer'
_symmetry_space_group_name_H-M	'P1'
_symmetry_Int_Tables_number	1
_symmetry_cell_setting	triclinic
loop_
_symmetry_equiv_pos_as_xyz
  x,y,z
_cell_length_a	39.7379
_cell_length_b	39.7379
_cell_length_c	39.7379
_cell_angle_alpha	90
_cell_angle_beta	90
_cell_angle_gamma	90
loop_
_atom_site_label
_atom_site_type_symbol
_atom_site_fract_x
_atom_site_fract_y
_atom_site_fract_z
_atom_site_charge
Mof_Mo	Mo	0.18296	0.34713	0.0883	0.995
Mof_Mo	Mo	0.10589	0.30151	0.00839	1.007
Mof_Mo	Mo	0.10009	0.38248	0.98586	0.947
Mof_P 	P 	0.17679	0.34931	0.00647	0.55
Mof_O 	O 	0.21256	0.34413	0.99358	-0.481
Mof_O 	O 	0.17824	0.36603	0.04196	-0.455
Mof_O 	O 	0.16684	0.39777	0.0964	-0.394
Mof_O 	O 	0.16871	0.45859	0.10991	-0.427
Mof_O 	O 	0.15905	0.31536	0.00808	-0.424
Mof_O 	O 	0.10228	0.34893	0.02011	-0.6
Mof_O 	O 	0.15751	0.375	0.98452	-0.43
Mof_O 	O 	0.19371	0.34951	0.13508	-0.601
Mof_Mo	Mo	0.68296	0.84713	0.5883	0.996
Mof_Mo	Mo	0.60589	0.80151	0.50839	1.016
Mof_Mo	Mo	0.60009	0.88248	0.48586	0.943
Mof_P 	P 	0.67679	0.84931	0.50647	0.556
Mof_O 	O 	0.71256	0.84413	0.49358	-0.486
Mof_O 	O 	0.67824	0.86603	0.54196	-0.455
Mof_O 	O 	0.66684	0.89777	0.5964	-0.393
Mof_O 	O 	0.66871	0.95859	0.60991	-0.426
Mof_O 	O 	0.65905	0.81536	0.50808	-0.424
Mof_O 	O 	0.60228	0.84893	0.52011	-0.598
Mof_O 	O 	0.65751	0.875	0.48452	-0.433
Mof_O 	O 	0.69371	0.84951	0.63508	-0.601
Mof_Mo	Mo	0.31704	0.65287	0.5883	0.996
Mof_Mo	Mo	0.39411	0.69849	0.50839	1.016
Mof_Mo	Mo	0.39991	0.61752	0.48586	0.942
Mof_P 	P 	0.32321	0.65069	0.50647	0.556
Mof_O 	O 	0.28744	0.65587	0.49358	-0.486
Mof_O 	O 	0.32176	0.63397	0.54196	-0.455
Mof_O 	O 	0.33316	0.60223	0.5964	-0.392
Mof_O 	O 	0.33129	0.54141	0.60991	-0.426
Mof_O 	O 	0.34095	0.68464	0.50808	-0.423
Mof_O 	O 	0.39772	0.65107	0.52011	-0.597
Mof_O 	O 	0.34249	0.625	0.48452	-0.432
Mof_O 	O 	0.30629	0.65049	0.63508	-0.6
Mof_Mo	Mo	0.81704	0.15287	0.0883	0.997
Mof_Mo	Mo	0.89411	0.19849	0.00839	1.011
Mof_Mo	Mo	0.89991	0.11752	0.98586	0.95
Mof_P 	P 	0.82321	0.15069	0.00647	0.551
Mof_O 	O 	0.78744	0.15587	0.99358	-0.481
Mof_O 	O 	0.82176	0.13397	0.04196	-0.454
Mof_O 	O 	0.83316	0.10223	0.0964	-0.393
Mof_O 	O 	0.83129	0.04141	0.10991	-0.428
Mof_O 	O 	0.84095	0.18464	0.00808	-0.423
Mof_O 	O 	0.89772	0.15107	0.02011	-0.599
Mof_O 	O 	0.84249	0.125	0.98452	-0.429
Mof_O 	O 	0.80629	0.15049	0.13508	-0.6
Mof_Mo	Mo	0.81704	0.84713	0.4117	0.998
Mof_Mo	Mo	0.89411	0.80151	0.49161	1.018
Mof_Mo	Mo	0.89991	0.88248	0.51414	0.946
Mof_P 	P 	0.82321	0.84931	0.49353	0.557
Mof_O 	O 	0.78744	0.84413	0.50642	-0.485
Mof_O 	O 	0.82176	0.86603	0.45804	-0.454
Mof_O 	O 	0.83316	0.89777	0.4036	-0.392
Mof_O 	O 	0.83129	0.95859	0.39009	-0.425
Mof_O 	O 	0.84095	0.81536	0.49192	-0.423
Mof_O 	O 	0.89772	0.84893	0.47989	-0.597
Mof_O 	O 	0.84249	0.875	0.51548	-0.432
Mof_O 	O 	0.80629	0.84951	0.36492	-0.6
Mof_Mo	Mo	0.31704	0.34713	0.9117	0.998
Mof_Mo	Mo	0.39411	0.30151	0.99161	1.025
Mof_Mo	Mo	0.39991	0.38248	0.01414	0.938
Mof_P 	P 	0.32321	0.34931	0.99353	0.562
Mof_O 	O 	0.28744	0.34413	0.00642	-0.489
Mof_O 	O 	0.32176	0.36603	0.95804	-0.454
Mof_O 	O 	0.33316	0.39777	0.9036	-0.392
Mof_O 	O 	0.33129	0.45859	0.89009	-0.426
Mof_O 	O 	0.34095	0.31536	0.99192	-0.422
Mof_O 	O 	0.39772	0.34893	0.97989	-0.596
Mof_O 	O 	0.34249	0.375	0.01548	-0.435
Mof_O 	O 	0.30629	0.34951	0.86492	-0.6
Mof_Mo	Mo	0.68296	0.15287	0.9117	0.998
Mof_Mo	Mo	0.60589	0.19849	0.99161	1.025
Mof_Mo	Mo	0.60009	0.11752	0.01414	0.937
Mof_P 	P 	0.67679	0.15069	0.99353	0.562
Mof_O 	O 	0.71256	0.15587	0.00642	-0.489
Mof_O 	O 	0.67824	0.13397	0.95804	-0.454
Mof_O 	O 	0.66684	0.10223	0.9036	-0.392
Mof_O 	O 	0.66871	0.04141	0.89009	-0.428
Mof_O 	O 	0.65905	0.18464	0.99192	-0.422
Mof_O 	O 	0.60228	0.15107	0.97989	-0.596
Mof_O 	O 	0.65751	0.125	0.01548	-0.435
Mof_O 	O 	0.69371	0.15049	0.86492	-0.6
Mof_Mo	Mo	0.18296	0.65287	0.4117	0.997
Mof_Mo	Mo	0.10589	0.69849	0.49161	1.016
Mof_Mo	Mo	0.10009	0.61752	0.51414	0.942
Mof_P 	P 	0.17679	0.65069	0.49353	0.557
Mof_O 	O 	0.21256	0.65587	0.50642	-0.485
Mof_O 	O 	0.17824	0.63397	0.45804	-0.454
Mof_O 	O 	0.16684	0.60223	0.4036	-0.392
Mof_O 	O 	0.16871	0.54141	0.39009	-0.426
Mof_O 	O 	0.15905	0.68464	0.49192	-0.423
Mof_O 	O 	0.10228	0.65107	0.47989	-0.597
Mof_O 	O 	0.15751	0.625	0.51548	-0.432
Mof_O 	O 	0.19371	0.65049	0.36492	-0.6
Mof_Mo	Mo	0.0883	0.18296	0.34713	0.996
Mof_Mo	Mo	0.00839	0.10589	0.30151	1.008
Mof_Mo	Mo	0.98586	0.10009	0.38248	0.948
Mof_P 	P 	0.00647	0.17679	0.34931	0.551
Mof_O 	O 	0.99358	0.21256	0.34413	-0.48
Mof_O 	O 	0.04196	0.17824	0.36603	-0.454
Mof_O 	O 	0.0964	0.16684	0.39777	-0.393
Mof_O 	O 	0.10991	0.16871	0.45859	-0.426
Mof_O 	O 	0.00808	0.15905	0.31536	-0.423
Mof_O 	O 	0.02011	0.10228	0.34893	-0.599
Mof_O 	O 	0.98452	0.15751	0.375	-0.429
Mof_O 	O 	0.13508	0.19371	0.34951	-0.6
Mof_Mo	Mo	0.5883	0.68296	0.84713	0.997
Mof_Mo	Mo	0.50839	0.60589	0.80151	1.017
Mof_Mo	Mo	0.48586	0.60009	0.88248	0.944
Mof_P 	P 	0.50647	0.67679	0.84931	0.557
Mof_O 	O 	0.49358	0.71256	0.84413	-0.485
Mof_O 	O 	0.54196	0.67824	0.86603	-0.454
Mof_O 	O 	0.5964	0.66684	0.89777	-0.392
Mof_O 	O 	0.60991	0.66871	0.95859	-0.425
Mof_O 	O 	0.50808	0.65905	0.81536	-0.423
Mof_O 	O 	0.52011	0.60228	0.84893	-0.597
Mof_O 	O 	0.48452	0.65751	0.875	-0.432
Mof_O 	O 	0.63508	0.69371	0.84951	-0.6
Mof_Mo	Mo	0.5883	0.31704	0.65287	0.997
Mof_Mo	Mo	0.50839	0.39411	0.69849	1.017
Mof_Mo	Mo	0.48586	0.39991	0.61752	0.943
Mof_P 	P 	0.50647	0.32321	0.65069	0.557
Mof_O 	O 	0.49358	0.28744	0.65587	-0.485
Mof_O 	O 	0.54196	0.32176	0.63397	-0.454
Mof_O 	O 	0.5964	0.33316	0.60223	-0.392
Mof_O 	O 	0.60991	0.33129	0.54141	-0.426
Mof_O 	O 	0.50808	0.34095	0.68464	-0.423
Mof_O 	O 	0.52011	0.39772	0.65107	-0.597
Mof_O 	O 	0.48452	0.34249	0.625	-0.432
Mof_O 	O 	0.63508	0.30629	0.65049	-0.6
Mof_Mo	Mo	0.0883	0.81704	0.15287	0.997
Mof_Mo	Mo	0.00839	0.89411	0.19849	1.011
Mof_Mo	Mo	0.98586	0.89991	0.11752	0.95
Mof_P 	P 	0.00647	0.82321	0.15069	0.551
Mof_O 	O 	0.99358	0.78744	0.15587	-0.481
Mof_O 	O 	0.04196	0.82176	0.13397	-0.454
Mof_O 	O 	0.0964	0.83316	0.10223	-0.393
Mof_O 	O 	0.10991	0.83129	0.04141	-0.428
Mof_O 	O 	0.00808	0.84095	0.18464	-0.423
Mof_O 	O 	0.02011	0.89772	0.15107	-0.599
Mof_O 	O 	0.98452	0.84249	0.125	-0.429
Mof_O 	O 	0.13508	0.80629	0.15049	-0.6
Mof_Mo	Mo	0.4117	0.81704	0.84713	0.998
Mof_Mo	Mo	0.49161	0.89411	0.80151	1.018
Mof_Mo	Mo	0.51414	0.89991	0.88248	0.946
Mof_P 	P 	0.49353	0.82321	0.84931	0.557
Mof_O 	O 	0.50642	0.78744	0.84413	-0.485
Mof_O 	O 	0.45804	0.82176	0.86603	-0.454
Mof_O 	O 	0.4036	0.83316	0.89777	-0.392
Mof_O 	O 	0.39009	0.83129	0.95859	-0.425
Mof_O 	O 	0.49192	0.84095	0.81536	-0.423
Mof_O 	O 	0.47989	0.89772	0.84893	-0.597
Mof_O 	O 	0.51548	0.84249	0.875	-0.432
Mof_O 	O 	0.36492	0.80629	0.84951	-0.6
Mof_Mo	Mo	0.9117	0.31704	0.34713	0.998
Mof_Mo	Mo	0.99161	0.39411	0.30151	1.025
Mof_Mo	Mo	0.01414	0.39991	0.38248	0.938
Mof_P 	P 	0.99353	0.32321	0.34931	0.562
Mof_O 	O 	0.00642	0.28744	0.34413	-0.489
Mof_O 	O 	0.95804	0.32176	0.36603	-0.454
Mof_O 	O 	0.9036	0.33316	0.39777	-0.392
Mof_O 	O 	0.89009	0.33129	0.45859	-0.426
Mof_O 	O 	0.99192	0.34095	0.31536	-0.422
Mof_O 	O 	0.97989	0.39772	0.34893	-0.596
Mof_O 	O 	0.01548	0.34249	0.375	-0.435
Mof_O 	O 	0.86492	0.30629	0.34951	-0.6
Mof_Mo	Mo	0.9117	0.68296	0.15287	0.998
Mof_Mo	Mo	0.99161	0.60589	0.19849	1.025
Mof_Mo	Mo	0.01414	0.60009	0.11752	0.937
Mof_P 	P 	0.99353	0.67679	0.15069	0.562
Mof_O 	O 	0.00642	0.71256	0.15587	-0.489
Mof_O 	O 	0.95804	0.67824	0.13397	-0.454
Mof_O 	O 	0.9036	0.66684	0.10223	-0.392
Mof_O 	O 	0.89009	0.66871	0.04141	-0.428
Mof_O 	O 	0.99192	0.65905	0.18464	-0.422
Mof_O 	O 	0.97989	0.60228	0.15107	-0.596
Mof_O 	O 	0.01548	0.65751	0.125	-0.435
Mof_O 	O 	0.86492	0.69371	0.15049	-0.6
Mof_Mo	Mo	0.4117	0.18296	0.65287	0.997
Mof_Mo	Mo	0.49161	0.10589	0.69849	1.016
Mof_Mo	Mo	0.51414	0.10009	0.61752	0.942
Mof_P 	P 	0.49353	0.17679	0.65069	0.557
Mof_O 	O 	0.50642	0.21256	0.65587	-0.485
Mof_O 	O 	0.45804	0.17824	0.63397	-0.454
Mof_O 	O 	0.4036	0.16684	0.60223	-0.392
Mof_O 	O 	0.39009	0.16871	0.54141	-0.426
Mof_O 	O 	0.49192	0.15905	0.68464	-0.423
Mof_O 	O 	0.47989	0.10228	0.65107	-0.597
Mof_O 	O 	0.51548	0.15751	0.625	-0.432
Mof_O 	O 	0.36492	0.19371	0.65049	-0.6
Mof_Mo	Mo	0.34713	0.0883	0.18296	0.996
Mof_Mo	Mo	0.30151	0.00839	0.10589	1.008
Mof_Mo	Mo	0.38248	0.98586	0.10009	0.948
Mof_P 	P 	0.34931	0.00647	0.17679	0.551
Mof_O 	O 	0.34413	0.99358	0.21256	-0.48
Mof_O 	O 	0.36603	0.04196	0.17824	-0.454
Mof_O 	O 	0.39777	0.0964	0.16684	-0.393
Mof_O 	O 	0.45859	0.10991	0.16871	-0.426
Mof_O 	O 	0.31536	0.00808	0.15905	-0.423
Mof_O 	O 	0.34893	0.02011	0.10228	-0.599
Mof_O 	O 	0.375	0.98452	0.15751	-0.429
Mof_O 	O 	0.34951	0.13508	0.19371	-0.6
Mof_Mo	Mo	0.84713	0.5883	0.68296	0.997
Mof_Mo	Mo	0.80151	0.50839	0.60589	1.017
Mof_Mo	Mo	0.88248	0.48586	0.60009	0.944
Mof_P 	P 	0.84931	0.50647	0.67679	0.557
Mof_O 	O 	0.84413	0.49358	0.71256	-0.485
Mof_O 	O 	0.86603	0.54196	0.67824	-0.454
Mof_O 	O 	0.89777	0.5964	0.66684	-0.392
Mof_O 	O 	0.95859	0.60991	0.66871	-0.425
Mof_O 	O 	0.81536	0.50808	0.65905	-0.423
Mof_O 	O 	0.84893	0.52011	0.60228	-0.597
Mof_O 	O 	0.875	0.48452	0.65751	-0.432
Mof_O 	O 	0.84951	0.63508	0.69371	-0.6
Mof_Mo	Mo	0.65287	0.5883	0.31704	0.997
Mof_Mo	Mo	0.69849	0.50839	0.39411	1.017
Mof_Mo	Mo	0.61752	0.48586	0.39991	0.943
Mof_P 	P 	0.65069	0.50647	0.32321	0.557
Mof_O 	O 	0.65587	0.49358	0.28744	-0.485
Mof_O 	O 	0.63397	0.54196	0.32176	-0.454
Mof_O 	O 	0.60223	0.5964	0.33316	-0.392
Mof_O 	O 	0.54141	0.60991	0.33129	-0.426
Mof_O 	O 	0.68464	0.50808	0.34095	-0.423
Mof_O 	O 	0.65107	0.52011	0.39772	-0.597
Mof_O 	O 	0.625	0.48452	0.34249	-0.432
Mof_O 	O 	0.65049	0.63508	0.30629	-0.6
Mof_Mo	Mo	0.15287	0.0883	0.81704	0.997
Mof_Mo	Mo	0.19849	0.00839	0.89411	1.011
Mof_Mo	Mo	0.11752	0.98586	0.89991	0.95
Mof_P 	P 	0.15069	0.00647	0.82321	0.551
Mof_O 	O 	0.15587	0.99358	0.78744	-0.481
Mof_O 	O 	0.13397	0.04196	0.82176	-0.454
Mof_O 	O 	0.10223	0.0964	0.83316	-0.393
Mof_O 	O 	0.04141	0.10991	0.83129	-0.428
Mof_O 	O 	0.18464	0.00808	0.84095	-0.423
Mof_O 	O 	0.15107	0.02011	0.89772	-0.599
Mof_O 	O 	0.125	0.98452	0.84249	-0.429
Mof_O 	O 	0.15049	0.13508	0.80629	-0.6
Mof_Mo	Mo	0.84713	0.4117	0.81704	0.998
Mof_Mo	Mo	0.80151	0.49161	0.89411	1.018
Mof_Mo	Mo	0.88248	0.51414	0.89991	0.946
Mof_P 	P 	0.84931	0.49353	0.82321	0.557
Mof_O 	O 	0.84413	0.50642	0.78744	-0.485
Mof_O 	O 	0.86603	0.45804	0.82176	-0.454
Mof_O 	O 	0.89777	0.4036	0.83316	-0.392
Mof_O 	O 	0.95859	0.39009	0.83129	-0.425
Mof_O 	O 	0.81536	0.49192	0.84095	-0.423
Mof_O 	O 	0.84893	0.47989	0.89772	-0.597
Mof_O 	O 	0.875	0.51548	0.84249	-0.432
Mof_O 	O 	0.84951	0.36492	0.80629	-0.6
Mof_Mo	Mo	0.34713	0.9117	0.31704	0.998
Mof_Mo	Mo	0.30151	0.99161	0.39411	1.025
Mof_Mo	Mo	0.38248	0.01414	0.39991	0.938
Mof_P 	P 	0.34931	0.99353	0.32321	0.562
Mof_O 	O 	0.34413	0.00642	0.28744	-0.489
Mof_O 	O 	0.36603	0.95804	0.32176	-0.454
Mof_O 	O 	0.39777	0.9036	0.33316	-0.392
Mof_O 	O 	0.45859	0.89009	0.33129	-0.426
Mof_O 	O 	0.31536	0.99192	0.34095	-0.422
Mof_O 	O 	0.34893	0.97989	0.39772	-0.596
Mof_O 	O 	0.375	0.01548	0.34249	-0.435
Mof_O 	O 	0.34951	0.86492	0.30629	-0.6
Mof_Mo	Mo	0.15287	0.9117	0.68296	0.998
Mof_Mo	Mo	0.19849	0.99161	0.60589	1.025
Mof_Mo	Mo	0.11752	0.01414	0.60009	0.937
Mof_P 	P 	0.15069	0.99353	0.67679	0.562
Mof_O 	O 	0.15587	0.00642	0.71256	-0.489
Mof_O 	O 	0.13397	0.95804	0.67824	-0.454
Mof_O 	O 	0.10223	0.9036	0.66684	-0.392
Mof_O 	O 	0.04141	0.89009	0.66871	-0.428
Mof_O 	O 	0.18464	0.99192	0.65905	-0.422
Mof_O 	O 	0.15107	0.97989	0.60228	-0.596
Mof_O 	O 	0.125	0.01548	0.65751	-0.435
Mof_O 	O 	0.15049	0.86492	0.69371	-0.6
Mof_Mo	Mo	0.65287	0.4117	0.18296	0.997
Mof_Mo	Mo	0.69849	0.49161	0.10589	1.016
Mof_Mo	Mo	0.61752	0.51414	0.10009	0.942
Mof_P 	P 	0.65069	0.49353	0.17679	0.557
Mof_O 	O 	0.65587	0.50642	0.21256	-0.485
Mof_O 	O 	0.63397	0.45804	0.17824	-0.454
Mof_O 	O 	0.60223	0.4036	0.16684	-0.392
Mof_O 	O 	0.54141	0.39009	0.16871	-0.426
Mof_O 	O 	0.68464	0.49192	0.15905	-0.423
Mof_O 	O 	0.65107	0.47989	0.10228	-0.597
Mof_O 	O 	0.625	0.51548	0.15751	-0.432
Mof_O 	O 	0.65049	0.36492	0.19371	-0.6
Mof_Mo	Mo	0.09713	0.43296	0.1617	0.996
Mof_Mo	Mo	0.05151	0.35589	0.24161	1.015
Mof_Mo	Mo	0.13248	0.35009	0.26414	0.943
Mof_P 	P 	0.09931	0.42679	0.24353	0.557
Mof_O 	O 	0.09413	0.46256	0.25642	-0.485
Mof_O 	O 	0.11603	0.42824	0.20804	-0.454
Mof_O 	O 	0.14777	0.41684	0.1536	-0.392
Mof_O 	O 	0.20859	0.41871	0.14009	-0.426
Mof_O 	O 	0.06536	0.40905	0.24192	-0.423
Mof_O 	O 	0.09893	0.35228	0.22989	-0.597
Mof_O 	O 	0.125	0.40751	0.26548	-0.432
Mof_O 	O 	0.09951	0.44371	0.11492	-0.6
Mof_Mo	Mo	0.59713	0.93296	0.6617	0.998
Mof_Mo	Mo	0.55151	0.85589	0.74161	1.017
Mof_Mo	Mo	0.63248	0.85009	0.76414	0.944
Mof_P 	P 	0.59931	0.92679	0.74353	0.557
Mof_O 	O 	0.59413	0.96256	0.75642	-0.483
Mof_O 	O 	0.61603	0.92824	0.70804	-0.454
Mof_O 	O 	0.64777	0.91684	0.6536	-0.392
Mof_O 	O 	0.70859	0.91871	0.64009	-0.426
Mof_O 	O 	0.56536	0.90905	0.74192	-0.422
Mof_O 	O 	0.59893	0.85228	0.72989	-0.598
Mof_O 	O 	0.625	0.90751	0.76548	-0.432
Mof_O 	O 	0.59951	0.94371	0.61492	-0.601
Mof_Mo	Mo	0.40287	0.56704	0.6617	0.997
Mof_Mo	Mo	0.44849	0.64411	0.74161	1.017
Mof_Mo	Mo	0.36752	0.64991	0.76414	0.944
Mof_P 	P 	0.40069	0.57321	0.74353	0.557
Mof_O 	O 	0.40587	0.53744	0.75642	-0.485
Mof_O 	O 	0.38397	0.57176	0.70804	-0.454
Mof_O 	O 	0.35223	0.58316	0.6536	-0.392
Mof_O 	O 	0.29141	0.58129	0.64009	-0.426
Mof_O 	O 	0.43464	0.59095	0.74192	-0.423
Mof_O 	O 	0.40107	0.64772	0.72989	-0.597
Mof_O 	O 	0.375	0.59249	0.76548	-0.432
Mof_O 	O 	0.40049	0.55629	0.61492	-0.6
Mof_Mo	Mo	0.90287	0.06704	0.1617	0.997
Mof_Mo	Mo	0.94849	0.14411	0.24161	1.018
Mof_Mo	Mo	0.86752	0.14991	0.26414	0.944
Mof_P 	P 	0.90069	0.07321	0.24353	0.557
Mof_O 	O 	0.90587	0.03744	0.25642	-0.486
Mof_O 	O 	0.88397	0.07176	0.20804	-0.454
Mof_O 	O 	0.85223	0.08316	0.1536	-0.392
Mof_O 	O 	0.79141	0.08129	0.14009	-0.426
Mof_O 	O 	0.93464	0.09095	0.24192	-0.422
Mof_O 	O 	0.90107	0.14772	0.22989	-0.597
Mof_O 	O 	0.875	0.09249	0.26548	-0.432
Mof_O 	O 	0.90049	0.05629	0.11492	-0.599
Mof_Mo	Mo	0.59713	0.06704	0.8383	0.997
Mof_Mo	Mo	0.55151	0.14411	0.75839	1.017
Mof_Mo	Mo	0.63248	0.14991	0.73586	0.943
Mof_P 	P 	0.59931	0.07321	0.75647	0.557
Mof_O 	O 	0.59413	0.03744	0.74358	-0.486
Mof_O 	O 	0.61603	0.07176	0.79196	-0.454
Mof_O 	O 	0.64777	0.08316	0.8464	-0.392
Mof_O 	O 	0.70859	0.08129	0.85991	-0.426
Mof_O 	O 	0.56536	0.09095	0.75808	-0.423
Mof_O 	O 	0.59893	0.14772	0.77011	-0.597
Mof_O 	O 	0.625	0.09249	0.73452	-0.432
Mof_O 	O 	0.59951	0.05629	0.88508	-0.599
Mof_Mo	Mo	0.09713	0.56704	0.3383	0.996
Mof_Mo	Mo	0.05151	0.64411	0.25839	1.016
Mof_Mo	Mo	0.13248	0.64991	0.23586	0.943
Mof_P 	P 	0.09931	0.57321	0.25647	0.557
Mof_O 	O 	0.09413	0.53744	0.24358	-0.485
Mof_O 	O 	0.11603	0.57176	0.29196	-0.454
Mof_O 	O 	0.14777	0.58316	0.3464	-0.392
Mof_O 	O 	0.20859	0.58129	0.35991	-0.426
Mof_O 	O 	0.06536	0.59095	0.25808	-0.423
Mof_O 	O 	0.09893	0.64772	0.27011	-0.597
Mof_O 	O 	0.125	0.59249	0.23452	-0.432
Mof_O 	O 	0.09951	0.55629	0.38508	-0.6
Mof_Mo	Mo	0.90287	0.93296	0.3383	0.999
Mof_Mo	Mo	0.94849	0.85589	0.25839	1.019
Mof_Mo	Mo	0.86752	0.85009	0.23586	0.944
Mof_P 	P 	0.90069	0.92679	0.25647	0.557
Mof_O 	O 	0.90587	0.96256	0.24358	-0.483
Mof_O 	O 	0.88397	0.92824	0.29196	-0.454
Mof_O 	O 	0.85223	0.91684	0.3464	-0.392
Mof_O 	O 	0.79141	0.91871	0.35991	-0.426
Mof_O 	O 	0.93464	0.90905	0.25808	-0.422
Mof_O 	O 	0.90107	0.85228	0.27011	-0.597
Mof_O 	O 	0.875	0.90751	0.23452	-0.432
Mof_O 	O 	0.90049	0.94371	0.38508	-0.601
Mof_Mo	Mo	0.40287	0.43296	0.8383	0.998
Mof_Mo	Mo	0.44849	0.35589	0.75839	1.017
Mof_Mo	Mo	0.36752	0.35009	0.73586	0.944
Mof_P 	P 	0.40069	0.42679	0.75647	0.557
Mof_O 	O 	0.40587	0.46256	0.74358	-0.485
Mof_O 	O 	0.38397	0.42824	0.79196	-0.454
Mof_O 	O 	0.35223	0.41684	0.8464	-0.392
Mof_O 	O 	0.29141	0.41871	0.85991	-0.426
Mof_O 	O 	0.43464	0.40905	0.75808	-0.423
Mof_O 	O 	0.40107	0.35228	0.77011	-0.597
Mof_O 	O 	0.375	0.40751	0.73452	-0.432
Mof_O 	O 	0.40049	0.44371	0.88508	-0.6
Mof_Mo	Mo	0.93296	0.3383	0.90287	0.999
Mof_Mo	Mo	0.85589	0.25839	0.94849	1.019
Mof_Mo	Mo	0.85009	0.23586	0.86752	0.944
Mof_P 	P 	0.92679	0.25647	0.90069	0.557
Mof_O 	O 	0.96256	0.24358	0.90587	-0.483
Mof_O 	O 	0.92824	0.29196	0.88397	-0.454
Mof_O 	O 	0.91684	0.3464	0.85223	-0.392
Mof_O 	O 	0.91871	0.35991	0.79141	-0.426
Mof_O 	O 	0.90905	0.25808	0.93464	-0.422
Mof_O 	O 	0.85228	0.27011	0.90107	-0.597
Mof_O 	O 	0.90751	0.23452	0.875	-0.432
Mof_O 	O 	0.94371	0.38508	0.90049	-0.601
Mof_Mo	Mo	0.43296	0.8383	0.40287	0.998
Mof_Mo	Mo	0.35589	0.75839	0.44849	1.017
Mof_Mo	Mo	0.35009	0.73586	0.36752	0.944
Mof_P 	P 	0.42679	0.75647	0.40069	0.557
Mof_O 	O 	0.46256	0.74358	0.40587	-0.485
Mof_O 	O 	0.42824	0.79196	0.38397	-0.454
Mof_O 	O 	0.41684	0.8464	0.35223	-0.392
Mof_O 	O 	0.41871	0.85991	0.29141	-0.426
Mof_O 	O 	0.40905	0.75808	0.43464	-0.423
Mof_O 	O 	0.35228	0.77011	0.40107	-0.597
Mof_O 	O 	0.40751	0.73452	0.375	-0.432
Mof_O 	O 	0.44371	0.88508	0.40049	-0.6
Mof_Mo	Mo	0.06704	0.8383	0.59713	0.997
Mof_Mo	Mo	0.14411	0.75839	0.55151	1.017
Mof_Mo	Mo	0.14991	0.73586	0.63248	0.943
Mof_P 	P 	0.07321	0.75647	0.59931	0.557
Mof_O 	O 	0.03744	0.74358	0.59413	-0.486
Mof_O 	O 	0.07176	0.79196	0.61603	-0.454
Mof_O 	O 	0.08316	0.8464	0.64777	-0.392
Mof_O 	O 	0.08129	0.85991	0.70859	-0.426
Mof_O 	O 	0.09095	0.75808	0.56536	-0.423
Mof_O 	O 	0.14772	0.77011	0.59893	-0.597
Mof_O 	O 	0.09249	0.73452	0.625	-0.432
Mof_O 	O 	0.05629	0.88508	0.59951	-0.599
Mof_Mo	Mo	0.56704	0.3383	0.09713	0.996
Mof_Mo	Mo	0.64411	0.25839	0.05151	1.016
Mof_Mo	Mo	0.64991	0.23586	0.13248	0.943
Mof_P 	P 	0.57321	0.25647	0.09931	0.557
Mof_O 	O 	0.53744	0.24358	0.09413	-0.485
Mof_O 	O 	0.57176	0.29196	0.11603	-0.454
Mof_O 	O 	0.58316	0.3464	0.14777	-0.392
Mof_O 	O 	0.58129	0.35991	0.20859	-0.426
Mof_O 	O 	0.59095	0.25808	0.06536	-0.423
Mof_O 	O 	0.64772	0.27011	0.09893	-0.597
Mof_O 	O 	0.59249	0.23452	0.125	-0.432
Mof_O 	O 	0.55629	0.38508	0.09951	-0.6
Mof_Mo	Mo	0.56704	0.6617	0.40287	0.997
Mof_Mo	Mo	0.64411	0.74161	0.44849	1.017
Mof_Mo	Mo	0.64991	0.76414	0.36752	0.944
Mof_P 	P 	0.57321	0.74353	0.40069	0.557
Mof_O 	O 	0.53744	0.75642	0.40587	-0.485
Mof_O 	O 	0.57176	0.70804	0.38397	-0.454
Mof_O 	O 	0.58316	0.6536	0.35223	-0.392
Mof_O 	O 	0.58129	0.64009	0.29141	-0.426
Mof_O 	O 	0.59095	0.74192	0.43464	-0.423
Mof_O 	O 	0.64772	0.72989	0.40107	-0.597
Mof_O 	O 	0.59249	0.76548	0.375	-0.432
Mof_O 	O 	0.55629	0.61492	0.40049	-0.6
Mof_Mo	Mo	0.06704	0.1617	0.90287	0.997
Mof_Mo	Mo	0.14411	0.24161	0.94849	1.018
Mof_Mo	Mo	0.14991	0.26414	0.86752	0.944
Mof_P 	P 	0.07321	0.24353	0.90069	0.557
Mof_O 	O 	0.03744	0.25642	0.90587	-0.486
Mof_O 	O 	0.07176	0.20804	0.88397	-0.454
Mof_O 	O 	0.08316	0.1536	0.85223	-0.392
Mof_O 	O 	0.08129	0.14009	0.79141	-0.426
Mof_O 	O 	0.09095	0.24192	0.93464	-0.422
Mof_O 	O 	0.14772	0.22989	0.90107	-0.597
Mof_O 	O 	0.09249	0.26548	0.875	-0.432
Mof_O 	O 	0.05629	0.11492	0.90049	-0.599
Mof_Mo	Mo	0.43296	0.1617	0.09713	0.996
Mof_Mo	Mo	0.35589	0.24161	0.05151	1.015
Mof_Mo	Mo	0.35009	0.26414	0.13248	0.943
Mof_P 	P 	0.42679	0.24353	0.09931	0.557
Mof_O 	O 	0.46256	0.25642	0.09413	-0.485
Mof_O 	O 	0.42824	0.20804	0.11603	-0.454
Mof_O 	O 	0.41684	0.1536	0.14777	-0.392
Mof_O 	O 	0.41871	0.14009	0.20859	-0.426
Mof_O 	O 	0.40905	0.24192	0.06536	-0.423
Mof_O 	O 	0.35228	0.22989	0.09893	-0.597
Mof_O 	O 	0.40751	0.26548	0.125	-0.432
Mof_O 	O 	0.44371	0.11492	0.09951	-0.6
Mof_Mo	Mo	0.93296	0.6617	0.59713	0.998
Mof_Mo	Mo	0.85589	0.74161	0.55151	1.017
Mof_Mo	Mo	0.85009	0.76414	0.63248	0.944
Mof_P 	P 	0.92679	0.74353	0.59931	0.557
Mof_O 	O 	0.96256	0.75642	0.59413	-0.483
Mof_O 	O 	0.92824	0.70804	0.61603	-0.454
Mof_O 	O 	0.91684	0.6536	0.64777	-0.392
Mof_O 	O 	0.91871	0.64009	0.70859	-0.426
Mof_O 	O 	0.90905	0.74192	0.56536	-0.422
Mof_O 	O 	0.85228	0.72989	0.59893	-0.598
Mof_O 	O 	0.90751	0.76548	0.625	-0.432
Mof_O 	O 	0.94371	0.61492	0.59951	-0.601
Mof_Mo	Mo	0.8383	0.59713	0.06704	0.997
Mof_Mo	Mo	0.75839	0.55151	0.14411	1.017
Mof_Mo	Mo	0.73586	0.63248	0.14991	0.943
Mof_P 	P 	0.75647	0.59931	0.07321	0.557
Mof_O 	O 	0.74358	0.59413	0.03744	-0.486
Mof_O 	O 	0.79196	0.61603	0.07176	-0.454
Mof_O 	O 	0.8464	0.64777	0.08316	-0.392
Mof_O 	O 	0.85991	0.70859	0.08129	-0.426
Mof_O 	O 	0.75808	0.56536	0.09095	-0.423
Mof_O 	O 	0.77011	0.59893	0.14772	-0.597
Mof_O 	O 	0.73452	0.625	0.09249	-0.432
Mof_O 	O 	0.88508	0.59951	0.05629	-0.599
Mof_Mo	Mo	0.3383	0.09713	0.56704	0.996
Mof_Mo	Mo	0.25839	0.05151	0.64411	1.016
Mof_Mo	Mo	0.23586	0.13248	0.64991	0.943
Mof_P 	P 	0.25647	0.09931	0.57321	0.557
Mof_O 	O 	0.24358	0.09413	0.53744	-0.485
Mof_O 	O 	0.29196	0.11603	0.57176	-0.454
Mof_O 	O 	0.3464	0.14777	0.58316	-0.392
Mof_O 	O 	0.35991	0.20859	0.58129	-0.426
Mof_O 	O 	0.25808	0.06536	0.59095	-0.423
Mof_O 	O 	0.27011	0.09893	0.64772	-0.597
Mof_O 	O 	0.23452	0.125	0.59249	-0.432
Mof_O 	O 	0.38508	0.09951	0.55629	-0.6
Mof_Mo	Mo	0.3383	0.90287	0.93296	0.999
Mof_Mo	Mo	0.25839	0.94849	0.85589	1.019
Mof_Mo	Mo	0.23586	0.86752	0.85009	0.944
Mof_P 	P 	0.25647	0.90069	0.92679	0.557
Mof_O 	O 	0.24358	0.90587	0.96256	-0.483
Mof_O 	O 	0.29196	0.88397	0.92824	-0.454
Mof_O 	O 	0.3464	0.85223	0.91684	-0.392
Mof_O 	O 	0.35991	0.79141	0.91871	-0.426
Mof_O 	O 	0.25808	0.93464	0.90905	-0.422
Mof_O 	O 	0.27011	0.90107	0.85228	-0.597
Mof_O 	O 	0.23452	0.875	0.90751	-0.432
Mof_O 	O 	0.38508	0.90049	0.94371	-0.601
Mof_Mo	Mo	0.8383	0.40287	0.43296	0.998
Mof_Mo	Mo	0.75839	0.44849	0.35589	1.017
Mof_Mo	Mo	0.73586	0.36752	0.35009	0.944
Mof_P 	P 	0.75647	0.40069	0.42679	0.557
Mof_O 	O 	0.74358	0.40587	0.46256	-0.485
Mof_O 	O 	0.79196	0.38397	0.42824	-0.454
Mof_O 	O 	0.8464	0.35223	0.41684	-0.392
Mof_O 	O 	0.85991	0.29141	0.41871	-0.426
Mof_O 	O 	0.75808	0.43464	0.40905	-0.423
Mof_O 	O 	0.77011	0.40107	0.35228	-0.597
Mof_O 	O 	0.73452	0.375	0.40751	-0.432
Mof_O 	O 	0.88508	0.40049	0.44371	-0.6
Mof_Mo	Mo	0.1617	0.09713	0.43296	0.996
Mof_Mo	Mo	0.24161	0.05151	0.35589	1.015
Mof_Mo	Mo	0.26414	0.13248	0.35009	0.943
Mof_P 	P 	0.24353	0.09931	0.42679	0.557
Mof_O 	O 	0.25642	0.09413	0.46256	-0.485
Mof_O 	O 	0.20804	0.11603	0.42824	-0.454
Mof_O 	O 	0.1536	0.14777	0.41684	-0.392
Mof_O 	O 	0.14009	0.20859	0.41871	-0.426
Mof_O 	O 	0.24192	0.06536	0.40905	-0.423
Mof_O 	O 	0.22989	0.09893	0.35228	-0.597
Mof_O 	O 	0.26548	0.125	0.40751	-0.432
Mof_O 	O 	0.11492	0.09951	0.44371	-0.6
Mof_Mo	Mo	0.6617	0.59713	0.93296	0.998
Mof_Mo	Mo	0.74161	0.55151	0.85589	1.017
Mof_Mo	Mo	0.76414	0.63248	0.85009	0.944
Mof_P 	P 	0.74353	0.59931	0.92679	0.557
Mof_O 	O 	0.75642	0.59413	0.96256	-0.483
Mof_O 	O 	0.70804	0.61603	0.92824	-0.454
Mof_O 	O 	0.6536	0.64777	0.91684	-0.392
Mof_O 	O 	0.64009	0.70859	0.91871	-0.426
Mof_O 	O 	0.74192	0.56536	0.90905	-0.422
Mof_O 	O 	0.72989	0.59893	0.85228	-0.598
Mof_O 	O 	0.76548	0.625	0.90751	-0.432
Mof_O 	O 	0.61492	0.59951	0.94371	-0.601
Mof_Mo	Mo	0.6617	0.40287	0.56704	0.997
Mof_Mo	Mo	0.74161	0.44849	0.64411	1.017
Mof_Mo	Mo	0.76414	0.36752	0.64991	0.944
Mof_P 	P 	0.74353	0.40069	0.57321	0.557
Mof_O 	O 	0.75642	0.40587	0.53744	-0.485
Mof_O 	O 	0.70804	0.38397	0.57176	-0.454
Mof_O 	O 	0.6536	0.35223	0.58316	-0.392
Mof_O 	O 	0.64009	0.29141	0.58129	-0.426
Mof_O 	O 	0.74192	0.43464	0.59095	-0.423
Mof_O 	O 	0.72989	0.40107	0.64772	-0.597
Mof_O 	O 	0.76548	0.375	0.59249	-0.432
Mof_O 	O 	0.61492	0.40049	0.55629	-0.6
Mof_Mo	Mo	0.1617	0.90287	0.06704	0.997
Mof_Mo	Mo	0.24161	0.94849	0.14411	1.018
Mof_Mo	Mo	0.26414	0.86752	0.14991	0.944
Mof_P 	P 	0.24353	0.90069	0.07321	0.557
Mof_O 	O 	0.25642	0.90587	0.03744	-0.486
Mof_O 	O 	0.20804	0.88397	0.07176	-0.454
Mof_O 	O 	0.1536	0.85223	0.08316	-0.392
Mof_O 	O 	0.14009	0.79141	0.08129	-0.426
Mof_O 	O 	0.24192	0.93464	0.09095	-0.422
Mof_O 	O 	0.22989	0.90107	0.14772	-0.597
Mof_O 	O 	0.26548	0.875	0.09249	-0.432
Mof_O 	O 	0.11492	0.90049	0.05629	-0.599
Mof_Mo	Mo	0.81704	0.65287	0.9117	0.998
Mof_Mo	Mo	0.89411	0.69849	0.99161	1.026
Mof_Mo	Mo	0.89991	0.61752	0.01414	0.939
Mof_P 	P 	0.82321	0.65069	0.99353	0.562
Mof_O 	O 	0.78744	0.65587	0.00642	-0.489
Mof_O 	O 	0.82176	0.63397	0.95804	-0.454
Mof_O 	O 	0.83316	0.60223	0.9036	-0.392
Mof_O 	O 	0.83129	0.54141	0.89009	-0.426
Mof_O 	O 	0.84095	0.68464	0.99192	-0.422
Mof_O 	O 	0.89772	0.65107	0.97989	-0.596
Mof_O 	O 	0.84249	0.625	0.01548	-0.435
Mof_O 	O 	0.80629	0.65049	0.86492	-0.6
Mof_Mo	Mo	0.31704	0.15287	0.4117	0.997
Mof_Mo	Mo	0.39411	0.19849	0.49161	1.017
Mof_Mo	Mo	0.39991	0.11752	0.51414	0.943
Mof_P 	P 	0.32321	0.15069	0.49353	0.557
Mof_O 	O 	0.28744	0.15587	0.50642	-0.485
Mof_O 	O 	0.32176	0.13397	0.45804	-0.454
Mof_O 	O 	0.33316	0.10223	0.4036	-0.392
Mof_O 	O 	0.33129	0.04141	0.39009	-0.428
Mof_O 	O 	0.34095	0.18464	0.49192	-0.423
Mof_O 	O 	0.39772	0.15107	0.47989	-0.597
Mof_O 	O 	0.34249	0.125	0.51548	-0.432
Mof_O 	O 	0.30629	0.15049	0.36492	-0.6
Mof_Mo	Mo	0.68296	0.34713	0.4117	0.997
Mof_Mo	Mo	0.60589	0.30151	0.49161	1.017
Mof_Mo	Mo	0.60009	0.38248	0.51414	0.943
Mof_P 	P 	0.67679	0.34931	0.49353	0.557
Mof_O 	O 	0.71256	0.34413	0.50642	-0.485
Mof_O 	O 	0.67824	0.36603	0.45804	-0.454
Mof_O 	O 	0.66684	0.39777	0.4036	-0.392
Mof_O 	O 	0.66871	0.45859	0.39009	-0.426
Mof_O 	O 	0.65905	0.31536	0.49192	-0.423
Mof_O 	O 	0.60228	0.34893	0.47989	-0.597
Mof_O 	O 	0.65751	0.375	0.51548	-0.432
Mof_O 	O 	0.69371	0.34951	0.36492	-0.6
Mof_Mo	Mo	0.18296	0.84713	0.9117	0.998
Mof_Mo	Mo	0.10589	0.80151	0.99161	1.024
Mof_Mo	Mo	0.10009	0.88248	0.01414	0.937
Mof_P 	P 	0.17679	0.84931	0.99353	0.562
Mof_O 	O 	0.21256	0.84413	0.00642	-0.489
Mof_O 	O 	0.17824	0.86603	0.95804	-0.454
Mof_O 	O 	0.16684	0.89777	0.9036	-0.392
Mof_O 	O 	0.16871	0.95859	0.89009	-0.425
Mof_O 	O 	0.15905	0.81536	0.99192	-0.422
Mof_O 	O 	0.10228	0.84893	0.97989	-0.596
Mof_O 	O 	0.15751	0.875	0.01548	-0.435
Mof_O 	O 	0.19371	0.84951	0.86492	-0.6
Mof_Mo	Mo	0.18296	0.15287	0.5883	0.997
Mof_Mo	Mo	0.10589	0.19849	0.50839	1.016
Mof_Mo	Mo	0.10009	0.11752	0.48586	0.941
Mof_P 	P 	0.17679	0.15069	0.50647	0.557
Mof_O 	O 	0.21256	0.15587	0.49358	-0.485
Mof_O 	O 	0.17824	0.13397	0.54196	-0.454
Mof_O 	O 	0.16684	0.10223	0.5964	-0.392
Mof_O 	O 	0.16871	0.04141	0.60991	-0.428
Mof_O 	O 	0.15905	0.18464	0.50808	-0.422
Mof_O 	O 	0.10228	0.15107	0.52011	-0.597
Mof_O 	O 	0.15751	0.125	0.48452	-0.432
Mof_O 	O 	0.19371	0.15049	0.63508	-0.6
Mof_Mo	Mo	0.68296	0.65287	0.0883	0.996
Mof_Mo	Mo	0.60589	0.69849	0.00839	1.01
Mof_Mo	Mo	0.60009	0.61752	0.98586	0.949
Mof_P 	P 	0.67679	0.65069	0.00647	0.551
Mof_O 	O 	0.71256	0.65587	0.99358	-0.48
Mof_O 	O 	0.67824	0.63397	0.04196	-0.454
Mof_O 	O 	0.66684	0.60223	0.0964	-0.393
Mof_O 	O 	0.66871	0.54141	0.10991	-0.426
Mof_O 	O 	0.65905	0.68464	0.00808	-0.423
Mof_O 	O 	0.60228	0.65107	0.02011	-0.599
Mof_O 	O 	0.65751	0.625	0.98452	-0.429
Mof_O 	O 	0.69371	0.65049	0.13508	-0.6
Mof_Mo	Mo	0.31704	0.84713	0.0883	0.996
Mof_Mo	Mo	0.39411	0.80151	0.00839	1.01
Mof_Mo	Mo	0.39991	0.88248	0.98586	0.95
Mof_P 	P 	0.32321	0.84931	0.00647	0.551
Mof_O 	O 	0.28744	0.84413	0.99358	-0.481
Mof_O 	O 	0.32176	0.86603	0.04196	-0.454
Mof_O 	O 	0.33316	0.89777	0.0964	-0.392
Mof_O 	O 	0.33129	0.95859	0.10991	-0.425
Mof_O 	O 	0.34095	0.81536	0.00808	-0.423
Mof_O 	O 	0.39772	0.84893	0.02011	-0.599
Mof_O 	O 	0.34249	0.875	0.98452	-0.429
Mof_O 	O 	0.30629	0.84951	0.13508	-0.6
Mof_Mo	Mo	0.81704	0.34713	0.5883	0.997
Mof_Mo	Mo	0.89411	0.30151	0.50839	1.018
Mof_Mo	Mo	0.89991	0.38248	0.48586	0.945
Mof_P 	P 	0.82321	0.34931	0.50647	0.557
Mof_O 	O 	0.78744	0.34413	0.49358	-0.485
Mof_O 	O 	0.82176	0.36603	0.54196	-0.454
Mof_O 	O 	0.83316	0.39777	0.5964	-0.392
Mof_O 	O 	0.83129	0.45859	0.60991	-0.426
Mof_O 	O 	0.84095	0.31536	0.50808	-0.423
Mof_O 	O 	0.89772	0.34893	0.52011	-0.597
Mof_O 	O 	0.84249	0.375	0.48452	-0.432
Mof_O 	O 	0.80629	0.34951	0.63508	-0.6
Mof_Mo	Mo	0.9117	0.81704	0.65287	0.998
Mof_Mo	Mo	0.99161	0.89411	0.69849	1.026
Mof_Mo	Mo	0.01414	0.89991	0.61752	0.939
Mof_P 	P 	0.99353	0.82321	0.65069	0.562
Mof_O 	O 	0.00642	0.78744	0.65587	-0.489
Mof_O 	O 	0.95804	0.82176	0.63397	-0.454
Mof_O 	O 	0.9036	0.83316	0.60223	-0.392
Mof_O 	O 	0.89009	0.83129	0.54141	-0.426
Mof_O 	O 	0.99192	0.84095	0.68464	-0.422
Mof_O 	O 	0.97989	0.89772	0.65107	-0.596
Mof_O 	O 	0.01548	0.84249	0.625	-0.435
Mof_O 	O 	0.86492	0.80629	0.65049	-0.6
Mof_Mo	Mo	0.4117	0.31704	0.15287	0.997
Mof_Mo	Mo	0.49161	0.39411	0.19849	1.017
Mof_Mo	Mo	0.51414	0.39991	0.11752	0.943
Mof_P 	P 	0.49353	0.32321	0.15069	0.557
Mof_O 	O 	0.50642	0.28744	0.15587	-0.485
Mof_O 	O 	0.45804	0.32176	0.13397	-0.454
Mof_O 	O 	0.4036	0.33316	0.10223	-0.392
Mof_O 	O 	0.39009	0.33129	0.04141	-0.428
Mof_O 	O 	0.49192	0.34095	0.18464	-0.423
Mof_O 	O 	0.47989	0.39772	0.15107	-0.597
Mof_O 	O 	0.51548	0.34249	0.125	-0.432
Mof_O 	O 	0.36492	0.30629	0.15049	-0.6
Mof_Mo	Mo	0.4117	0.68296	0.34713	0.997
Mof_Mo	Mo	0.49161	0.60589	0.30151	1.017
Mof_Mo	Mo	0.51414	0.60009	0.38248	0.943
Mof_P 	P 	0.49353	0.67679	0.34931	0.557
Mof_O 	O 	0.50642	0.71256	0.34413	-0.485
Mof_O 	O 	0.45804	0.67824	0.36603	-0.454
Mof_O 	O 	0.4036	0.66684	0.39777	-0.392
Mof_O 	O 	0.39009	0.66871	0.45859	-0.426
Mof_O 	O 	0.49192	0.65905	0.31536	-0.423
Mof_O 	O 	0.47989	0.60228	0.34893	-0.597
Mof_O 	O 	0.51548	0.65751	0.375	-0.432
Mof_O 	O 	0.36492	0.69371	0.34951	-0.6
Mof_Mo	Mo	0.9117	0.18296	0.84713	0.998
Mof_Mo	Mo	0.99161	0.10589	0.80151	1.024
Mof_Mo	Mo	0.01414	0.10009	0.88248	0.937
Mof_P 	P 	0.99353	0.17679	0.84931	0.562
Mof_O 	O 	0.00642	0.21256	0.84413	-0.489
Mof_O 	O 	0.95804	0.17824	0.86603	-0.454
Mof_O 	O 	0.9036	0.16684	0.89777	-0.392
Mof_O 	O 	0.89009	0.16871	0.95859	-0.425
Mof_O 	O 	0.99192	0.15905	0.81536	-0.422
Mof_O 	O 	0.97989	0.10228	0.84893	-0.596
Mof_O 	O 	0.01548	0.15751	0.875	-0.435
Mof_O 	O 	0.86492	0.19371	0.84951	-0.6
Mof_Mo	Mo	0.5883	0.18296	0.15287	0.997
Mof_Mo	Mo	0.50839	0.10589	0.19849	1.016
Mof_Mo	Mo	0.48586	0.10009	0.11752	0.941
Mof_P 	P 	0.50647	0.17679	0.15069	0.557
Mof_O 	O 	0.49358	0.21256	0.15587	-0.485
Mof_O 	O 	0.54196	0.17824	0.13397	-0.454
Mof_O 	O 	0.5964	0.16684	0.10223	-0.392
Mof_O 	O 	0.60991	0.16871	0.04141	-0.428
Mof_O 	O 	0.50808	0.15905	0.18464	-0.422
Mof_O 	O 	0.52011	0.10228	0.15107	-0.597
Mof_O 	O 	0.48452	0.15751	0.125	-0.432
Mof_O 	O 	0.63508	0.19371	0.15049	-0.6
Mof_Mo	Mo	0.0883	0.68296	0.65287	0.996
Mof_Mo	Mo	0.00839	0.60589	0.69849	1.01
Mof_Mo	Mo	0.98586	0.60009	0.61752	0.949
Mof_P 	P 	0.00647	0.67679	0.65069	0.551
Mof_O 	O 	0.99358	0.71256	0.65587	-0.48
Mof_O 	O 	0.04196	0.67824	0.63397	-0.454
Mof_O 	O 	0.0964	0.66684	0.60223	-0.393
Mof_O 	O 	0.10991	0.66871	0.54141	-0.426
Mof_O 	O 	0.00808	0.65905	0.68464	-0.423
Mof_O 	O 	0.02011	0.60228	0.65107	-0.599
Mof_O 	O 	0.98452	0.65751	0.625	-0.429
Mof_O 	O 	0.13508	0.69371	0.65049	-0.6
Mof_Mo	Mo	0.0883	0.31704	0.84713	0.996
Mof_Mo	Mo	0.00839	0.39411	0.80151	1.01
Mof_Mo	Mo	0.98586	0.39991	0.88248	0.95
Mof_P 	P 	0.00647	0.32321	0.84931	0.551
Mof_O 	O 	0.99358	0.28744	0.84413	-0.481
Mof_O 	O 	0.04196	0.32176	0.86603	-0.454
Mof_O 	O 	0.0964	0.33316	0.89777	-0.392
Mof_O 	O 	0.10991	0.33129	0.95859	-0.425
Mof_O 	O 	0.00808	0.34095	0.81536	-0.423
Mof_O 	O 	0.02011	0.39772	0.84893	-0.599
Mof_O 	O 	0.98452	0.34249	0.875	-0.429
Mof_O 	O 	0.13508	0.30629	0.84951	-0.6
Mof_Mo	Mo	0.5883	0.81704	0.34713	0.997
Mof_Mo	Mo	0.50839	0.89411	0.30151	1.018
Mof_Mo	Mo	0.48586	0.89991	0.38248	0.945
Mof_P 	P 	0.50647	0.82321	0.34931	0.557
Mof_O 	O 	0.49358	0.78744	0.34413	-0.485
Mof_O 	O 	0.54196	0.82176	0.36603	-0.454
Mof_O 	O 	0.5964	0.83316	0.39777	-0.392
Mof_O 	O 	0.60991	0.83129	0.45859	-0.426
Mof_O 	O 	0.50808	0.84095	0.31536	-0.423
Mof_O 	O 	0.52011	0.89772	0.34893	-0.597
Mof_O 	O 	0.48452	0.84249	0.375	-0.432
Mof_O 	O 	0.63508	0.80629	0.34951	-0.6
Mof_Mo	Mo	0.65287	0.9117	0.81704	0.998
Mof_Mo	Mo	0.69849	0.99161	0.89411	1.026
Mof_Mo	Mo	0.61752	0.01414	0.89991	0.939
Mof_P 	P 	0.65069	0.99353	0.82321	0.562
Mof_O 	O 	0.65587	0.00642	0.78744	-0.489
Mof_O 	O 	0.63397	0.95804	0.82176	-0.454
Mof_O 	O 	0.60223	0.9036	0.83316	-0.392
Mof_O 	O 	0.54141	0.89009	0.83129	-0.426
Mof_O 	O 	0.68464	0.99192	0.84095	-0.422
Mof_O 	O 	0.65107	0.97989	0.89772	-0.596
Mof_O 	O 	0.625	0.01548	0.84249	-0.435
Mof_O 	O 	0.65049	0.86492	0.80629	-0.6
Mof_Mo	Mo	0.15287	0.4117	0.31704	0.997
Mof_Mo	Mo	0.19849	0.49161	0.39411	1.017
Mof_Mo	Mo	0.11752	0.51414	0.39991	0.943
Mof_P 	P 	0.15069	0.49353	0.32321	0.557
Mof_O 	O 	0.15587	0.50642	0.28744	-0.485
Mof_O 	O 	0.13397	0.45804	0.32176	-0.454
Mof_O 	O 	0.10223	0.4036	0.33316	-0.392
Mof_O 	O 	0.04141	0.39009	0.33129	-0.428
Mof_O 	O 	0.18464	0.49192	0.34095	-0.423
Mof_O 	O 	0.15107	0.47989	0.39772	-0.597
Mof_O 	O 	0.125	0.51548	0.34249	-0.432
Mof_O 	O 	0.15049	0.36492	0.30629	-0.6
Mof_Mo	Mo	0.34713	0.4117	0.68296	0.997
Mof_Mo	Mo	0.30151	0.49161	0.60589	1.017
Mof_Mo	Mo	0.38248	0.51414	0.60009	0.943
Mof_P 	P 	0.34931	0.49353	0.67679	0.557
Mof_O 	O 	0.34413	0.50642	0.71256	-0.485
Mof_O 	O 	0.36603	0.45804	0.67824	-0.454
Mof_O 	O 	0.39777	0.4036	0.66684	-0.392
Mof_O 	O 	0.45859	0.39009	0.66871	-0.426
Mof_O 	O 	0.31536	0.49192	0.65905	-0.423
Mof_O 	O 	0.34893	0.47989	0.60228	-0.597
Mof_O 	O 	0.375	0.51548	0.65751	-0.432
Mof_O 	O 	0.34951	0.36492	0.69371	-0.6
Mof_Mo	Mo	0.84713	0.9117	0.18296	0.998
Mof_Mo	Mo	0.80151	0.99161	0.10589	1.024
Mof_Mo	Mo	0.88248	0.01414	0.10009	0.937
Mof_P 	P 	0.84931	0.99353	0.17679	0.562
Mof_O 	O 	0.84413	0.00642	0.21256	-0.489
Mof_O 	O 	0.86603	0.95804	0.17824	-0.454
Mof_O 	O 	0.89777	0.9036	0.16684	-0.392
Mof_O 	O 	0.95859	0.89009	0.16871	-0.425
Mof_O 	O 	0.81536	0.99192	0.15905	-0.422
Mof_O 	O 	0.84893	0.97989	0.10228	-0.596
Mof_O 	O 	0.875	0.01548	0.15751	-0.435
Mof_O 	O 	0.84951	0.86492	0.19371	-0.6
Mof_Mo	Mo	0.15287	0.5883	0.18296	0.997
Mof_Mo	Mo	0.19849	0.50839	0.10589	1.016
Mof_Mo	Mo	0.11752	0.48586	0.10009	0.941
Mof_P 	P 	0.15069	0.50647	0.17679	0.557
Mof_O 	O 	0.15587	0.49358	0.21256	-0.485
Mof_O 	O 	0.13397	0.54196	0.17824	-0.454
Mof_O 	O 	0.10223	0.5964	0.16684	-0.392
Mof_O 	O 	0.04141	0.60991	0.16871	-0.428
Mof_O 	O 	0.18464	0.50808	0.15905	-0.422
Mof_O 	O 	0.15107	0.52011	0.10228	-0.597
Mof_O 	O 	0.125	0.48452	0.15751	-0.432
Mof_O 	O 	0.15049	0.63508	0.19371	-0.6
Mof_Mo	Mo	0.65287	0.0883	0.68296	0.996
Mof_Mo	Mo	0.69849	0.00839	0.60589	1.01
Mof_Mo	Mo	0.61752	0.98586	0.60009	0.949
Mof_P 	P 	0.65069	0.00647	0.67679	0.551
Mof_O 	O 	0.65587	0.99358	0.71256	-0.48
Mof_O 	O 	0.63397	0.04196	0.67824	-0.454
Mof_O 	O 	0.60223	0.0964	0.66684	-0.393
Mof_O 	O 	0.54141	0.10991	0.66871	-0.426
Mof_O 	O 	0.68464	0.00808	0.65905	-0.423
Mof_O 	O 	0.65107	0.02011	0.60228	-0.599
Mof_O 	O 	0.625	0.98452	0.65751	-0.429
Mof_O 	O 	0.65049	0.13508	0.69371	-0.6
Mof_Mo	Mo	0.84713	0.0883	0.31704	0.996
Mof_Mo	Mo	0.80151	0.00839	0.39411	1.01
Mof_Mo	Mo	0.88248	0.98586	0.39991	0.95
Mof_P 	P 	0.84931	0.00647	0.32321	0.551
Mof_O 	O 	0.84413	0.99358	0.28744	-0.481
Mof_O 	O 	0.86603	0.04196	0.32176	-0.454
Mof_O 	O 	0.89777	0.0964	0.33316	-0.392
Mof_O 	O 	0.95859	0.10991	0.33129	-0.425
Mof_O 	O 	0.81536	0.00808	0.34095	-0.423
Mof_O 	O 	0.84893	0.02011	0.39772	-0.599
Mof_O 	O 	0.875	0.98452	0.34249	-0.429
Mof_O 	O 	0.84951	0.13508	0.30629	-0.6
Mof_Mo	Mo	0.34713	0.5883	0.81704	0.997
Mof_Mo	Mo	0.30151	0.50839	0.89411	1.018
Mof_Mo	Mo	0.38248	0.48586	0.89991	0.945
Mof_P 	P 	0.34931	0.50647	0.82321	0.557
Mof_O 	O 	0.34413	0.49358	0.78744	-0.485
Mof_O 	O 	0.36603	0.54196	0.82176	-0.454
Mof_O 	O 	0.39777	0.5964	0.83316	-0.392
Mof_O 	O 	0.45859	0.60991	0.83129	-0.426
Mof_O 	O 	0.31536	0.50808	0.84095	-0.423
Mof_O 	O 	0.34893	0.52011	0.89772	-0.597
Mof_O 	O 	0.375	0.48452	0.84249	-0.432
Mof_O 	O 	0.34951	0.63508	0.80629	-0.6
Mof_Mo	Mo	0.90287	0.56704	0.8383	0.999
Mof_Mo	Mo	0.94849	0.64411	0.75839	1.019
Mof_Mo	Mo	0.86752	0.64991	0.73586	0.944
Mof_P 	P 	0.90069	0.57321	0.75647	0.557
Mof_O 	O 	0.90587	0.53744	0.74358	-0.484
Mof_O 	O 	0.88397	0.57176	0.79196	-0.454
Mof_O 	O 	0.85223	0.58316	0.8464	-0.392
Mof_O 	O 	0.79141	0.58129	0.85991	-0.426
Mof_O 	O 	0.93464	0.59095	0.75808	-0.422
Mof_O 	O 	0.90107	0.64772	0.77011	-0.597
Mof_O 	O 	0.875	0.59249	0.73452	-0.432
Mof_O 	O 	0.90049	0.55629	0.88508	-0.6
Mof_Mo	Mo	0.40287	0.06704	0.3383	0.996
Mof_Mo	Mo	0.44849	0.14411	0.25839	1.017
Mof_Mo	Mo	0.36752	0.14991	0.23586	0.943
Mof_P 	P 	0.40069	0.07321	0.25647	0.557
Mof_O 	O 	0.40587	0.03744	0.24358	-0.486
Mof_O 	O 	0.38397	0.07176	0.29196	-0.454
Mof_O 	O 	0.35223	0.08316	0.3464	-0.392
Mof_O 	O 	0.29141	0.08129	0.35991	-0.426
Mof_O 	O 	0.43464	0.09095	0.25808	-0.423
Mof_O 	O 	0.40107	0.14772	0.27011	-0.597
Mof_O 	O 	0.375	0.09249	0.23452	-0.432
Mof_O 	O 	0.40049	0.05629	0.38508	-0.599
Mof_Mo	Mo	0.59713	0.43296	0.3383	0.997
Mof_Mo	Mo	0.55151	0.35589	0.25839	1.017
Mof_Mo	Mo	0.63248	0.35009	0.23586	0.943
Mof_P 	P 	0.59931	0.42679	0.25647	0.557
Mof_O 	O 	0.59413	0.46256	0.24358	-0.485
Mof_O 	O 	0.61603	0.42824	0.29196	-0.454
Mof_O 	O 	0.64777	0.41684	0.3464	-0.392
Mof_O 	O 	0.70859	0.41871	0.35991	-0.426
Mof_O 	O 	0.56536	0.40905	0.25808	-0.423
Mof_O 	O 	0.59893	0.35228	0.27011	-0.597
Mof_O 	O 	0.625	0.40751	0.23452	-0.432
Mof_O 	O 	0.59951	0.44371	0.38508	-0.6
Mof_Mo	Mo	0.09713	0.93296	0.8383	0.997
Mof_Mo	Mo	0.05151	0.85589	0.75839	1.016
Mof_Mo	Mo	0.13248	0.85009	0.73586	0.943
Mof_P 	P 	0.09931	0.92679	0.75647	0.557
Mof_O 	O 	0.09413	0.96256	0.74358	-0.483
Mof_O 	O 	0.11603	0.92824	0.79196	-0.454
Mof_O 	O 	0.14777	0.91684	0.8464	-0.392
Mof_O 	O 	0.20859	0.91871	0.85991	-0.426
Mof_O 	O 	0.06536	0.90905	0.75808	-0.423
Mof_O 	O 	0.09893	0.85228	0.77011	-0.597
Mof_O 	O 	0.125	0.90751	0.73452	-0.432
Mof_O 	O 	0.09951	0.94371	0.88508	-0.601
Mof_Mo	Mo	0.40287	0.93296	0.1617	0.998
Mof_Mo	Mo	0.44849	0.85589	0.24161	1.017
Mof_Mo	Mo	0.36752	0.85009	0.26414	0.944
Mof_P 	P 	0.40069	0.92679	0.24353	0.557
Mof_O 	O 	0.40587	0.96256	0.25642	-0.483
Mof_O 	O 	0.38397	0.92824	0.20804	-0.454
Mof_O 	O 	0.35223	0.91684	0.1536	-0.392
Mof_O 	O 	0.29141	0.91871	0.14009	-0.426
Mof_O 	O 	0.43464	0.90905	0.24192	-0.422
Mof_O 	O 	0.40107	0.85228	0.22989	-0.598
Mof_O 	O 	0.375	0.90751	0.26548	-0.432
Mof_O 	O 	0.40049	0.94371	0.11492	-0.601
Mof_Mo	Mo	0.90287	0.43296	0.6617	0.998
Mof_Mo	Mo	0.94849	0.35589	0.74161	1.019
Mof_Mo	Mo	0.86752	0.35009	0.76414	0.944
Mof_P 	P 	0.90069	0.42679	0.74353	0.557
Mof_O 	O 	0.90587	0.46256	0.75642	-0.484
Mof_O 	O 	0.88397	0.42824	0.70804	-0.454
Mof_O 	O 	0.85223	0.41684	0.6536	-0.392
Mof_O 	O 	0.79141	0.41871	0.64009	-0.426
Mof_O 	O 	0.93464	0.40905	0.74192	-0.422
Mof_O 	O 	0.90107	0.35228	0.72989	-0.597
Mof_O 	O 	0.875	0.40751	0.76548	-0.432
Mof_O 	O 	0.90049	0.44371	0.61492	-0.6
Mof_Mo	Mo	0.09713	0.06704	0.6617	0.995
Mof_Mo	Mo	0.05151	0.14411	0.74161	1.015
Mof_Mo	Mo	0.13248	0.14991	0.76414	0.943
Mof_P 	P 	0.09931	0.07321	0.74353	0.557
Mof_O 	O 	0.09413	0.03744	0.75642	-0.486
Mof_O 	O 	0.11603	0.07176	0.70804	-0.454
Mof_O 	O 	0.14777	0.08316	0.6536	-0.392
Mof_O 	O 	0.20859	0.08129	0.64009	-0.426
Mof_O 	O 	0.06536	0.09095	0.74192	-0.423
Mof_O 	O 	0.09893	0.14772	0.72989	-0.597
Mof_O 	O 	0.125	0.09249	0.76548	-0.432
Mof_O 	O 	0.09951	0.05629	0.61492	-0.599
Mof_Mo	Mo	0.59713	0.56704	0.1617	0.997
Mof_Mo	Mo	0.55151	0.64411	0.24161	1.017
Mof_Mo	Mo	0.63248	0.64991	0.26414	0.943
Mof_P 	P 	0.59931	0.57321	0.24353	0.557
Mof_O 	O 	0.59413	0.53744	0.25642	-0.485
Mof_O 	O 	0.61603	0.57176	0.20804	-0.454
Mof_O 	O 	0.64777	0.58316	0.1536	-0.392
Mof_O 	O 	0.70859	0.58129	0.14009	-0.426
Mof_O 	O 	0.56536	0.59095	0.24192	-0.423
Mof_O 	O 	0.59893	0.64772	0.22989	-0.597
Mof_O 	O 	0.625	0.59249	0.26548	-0.432
Mof_O 	O 	0.59951	0.55629	0.11492	-0.6
Mof_Mo	Mo	0.06704	0.6617	0.09713	0.995
Mof_Mo	Mo	0.14411	0.74161	0.05151	1.015
Mof_Mo	Mo	0.14991	0.76414	0.13248	0.943
Mof_P 	P 	0.07321	0.74353	0.09931	0.557
Mof_O 	O 	0.03744	0.75642	0.09413	-0.486
Mof_O 	O 	0.07176	0.70804	0.11603	-0.454
Mof_O 	O 	0.08316	0.6536	0.14777	-0.392
Mof_O 	O 	0.08129	0.64009	0.20859	-0.426
Mof_O 	O 	0.09095	0.74192	0.06536	-0.423
Mof_O 	O 	0.14772	0.72989	0.09893	-0.597
Mof_O 	O 	0.09249	0.76548	0.125	-0.432
Mof_O 	O 	0.05629	0.61492	0.09951	-0.599
Mof_Mo	Mo	0.56704	0.1617	0.59713	0.997
Mof_Mo	Mo	0.64411	0.24161	0.55151	1.017
Mof_Mo	Mo	0.64991	0.26414	0.63248	0.943
Mof_P 	P 	0.57321	0.24353	0.59931	0.557
Mof_O 	O 	0.53744	0.25642	0.59413	-0.485
Mof_O 	O 	0.57176	0.20804	0.61603	-0.454
Mof_O 	O 	0.58316	0.1536	0.64777	-0.392
Mof_O 	O 	0.58129	0.14009	0.70859	-0.426
Mof_O 	O 	0.59095	0.24192	0.56536	-0.423
Mof_O 	O 	0.64772	0.22989	0.59893	-0.597
Mof_O 	O 	0.59249	0.26548	0.625	-0.432
Mof_O 	O 	0.55629	0.11492	0.59951	-0.6
Mof_Mo	Mo	0.93296	0.1617	0.40287	0.998
Mof_Mo	Mo	0.85589	0.24161	0.44849	1.017
Mof_Mo	Mo	0.85009	0.26414	0.36752	0.944
Mof_P 	P 	0.92679	0.24353	0.40069	0.557
Mof_O 	O 	0.96256	0.25642	0.40587	-0.483
Mof_O 	O 	0.92824	0.20804	0.38397	-0.454
Mof_O 	O 	0.91684	0.1536	0.35223	-0.392
Mof_O 	O 	0.91871	0.14009	0.29141	-0.426
Mof_O 	O 	0.90905	0.24192	0.43464	-0.422
Mof_O 	O 	0.85228	0.22989	0.40107	-0.598
Mof_O 	O 	0.90751	0.26548	0.375	-0.432
Mof_O 	O 	0.94371	0.11492	0.40049	-0.601
Mof_Mo	Mo	0.43296	0.6617	0.90287	0.998
Mof_Mo	Mo	0.35589	0.74161	0.94849	1.019
Mof_Mo	Mo	0.35009	0.76414	0.86752	0.944
Mof_P 	P 	0.42679	0.74353	0.90069	0.557
Mof_O 	O 	0.46256	0.75642	0.90587	-0.484
Mof_O 	O 	0.42824	0.70804	0.88397	-0.454
Mof_O 	O 	0.41684	0.6536	0.85223	-0.392
Mof_O 	O 	0.41871	0.64009	0.79141	-0.426
Mof_O 	O 	0.40905	0.74192	0.93464	-0.422
Mof_O 	O 	0.35228	0.72989	0.90107	-0.597
Mof_O 	O 	0.40751	0.76548	0.875	-0.432
Mof_O 	O 	0.44371	0.61492	0.90049	-0.6
Mof_Mo	Mo	0.43296	0.3383	0.59713	0.997
Mof_Mo	Mo	0.35589	0.25839	0.55151	1.017
Mof_Mo	Mo	0.35009	0.23586	0.63248	0.943
Mof_P 	P 	0.42679	0.25647	0.59931	0.557
Mof_O 	O 	0.46256	0.24358	0.59413	-0.485
Mof_O 	O 	0.42824	0.29196	0.61603	-0.454
Mof_O 	O 	0.41684	0.3464	0.64777	-0.392
Mof_O 	O 	0.41871	0.35991	0.70859	-0.426
Mof_O 	O 	0.40905	0.25808	0.56536	-0.423
Mof_O 	O 	0.35228	0.27011	0.59893	-0.597
Mof_O 	O 	0.40751	0.23452	0.625	-0.432
Mof_O 	O 	0.44371	0.38508	0.59951	-0.6
Mof_Mo	Mo	0.93296	0.8383	0.09713	0.997
Mof_Mo	Mo	0.85589	0.75839	0.05151	1.016
Mof_Mo	Mo	0.85009	0.73586	0.13248	0.943
Mof_P 	P 	0.92679	0.75647	0.09931	0.557
Mof_O 	O 	0.96256	0.74358	0.09413	-0.483
Mof_O 	O 	0.92824	0.79196	0.11603	-0.454
Mof_O 	O 	0.91684	0.8464	0.14777	-0.392
Mof_O 	O 	0.91871	0.85991	0.20859	-0.426
Mof_O 	O 	0.90905	0.75808	0.06536	-0.423
Mof_O 	O 	0.85228	0.77011	0.09893	-0.597
Mof_O 	O 	0.90751	0.73452	0.125	-0.432
Mof_O 	O 	0.94371	0.88508	0.09951	-0.601
Mof_Mo	Mo	0.56704	0.8383	0.90287	0.999
Mof_Mo	Mo	0.64411	0.75839	0.94849	1.019
Mof_Mo	Mo	0.64991	0.73586	0.86752	0.944
Mof_P 	P 	0.57321	0.75647	0.90069	0.557
Mof_O 	O 	0.53744	0.74358	0.90587	-0.484
Mof_O 	O 	0.57176	0.79196	0.88397	-0.454
Mof_O 	O 	0.58316	0.8464	0.85223	-0.392
Mof_O 	O 	0.58129	0.85991	0.79141	-0.426
Mof_O 	O 	0.59095	0.75808	0.93464	-0.422
Mof_O 	O 	0.64772	0.77011	0.90107	-0.597
Mof_O 	O 	0.59249	0.73452	0.875	-0.432
Mof_O 	O 	0.55629	0.88508	0.90049	-0.6
Mof_Mo	Mo	0.06704	0.3383	0.40287	0.996
Mof_Mo	Mo	0.14411	0.25839	0.44849	1.017
Mof_Mo	Mo	0.14991	0.23586	0.36752	0.943
Mof_P 	P 	0.07321	0.25647	0.40069	0.557
Mof_O 	O 	0.03744	0.24358	0.40587	-0.486
Mof_O 	O 	0.07176	0.29196	0.38397	-0.454
Mof_O 	O 	0.08316	0.3464	0.35223	-0.392
Mof_O 	O 	0.08129	0.35991	0.29141	-0.426
Mof_O 	O 	0.09095	0.25808	0.43464	-0.423
Mof_O 	O 	0.14772	0.27011	0.40107	-0.597
Mof_O 	O 	0.09249	0.23452	0.375	-0.432
Mof_O 	O 	0.05629	0.38508	0.40049	-0.599
Mof_Mo	Mo	0.1617	0.40287	0.93296	0.998
Mof_Mo	Mo	0.24161	0.44849	0.85589	1.017
Mof_Mo	Mo	0.26414	0.36752	0.85009	0.944
Mof_P 	P 	0.24353	0.40069	0.92679	0.557
Mof_O 	O 	0.25642	0.40587	0.96256	-0.483
Mof_O 	O 	0.20804	0.38397	0.92824	-0.454
Mof_O 	O 	0.1536	0.35223	0.91684	-0.392
Mof_O 	O 	0.14009	0.29141	0.91871	-0.426
Mof_O 	O 	0.24192	0.43464	0.90905	-0.422
Mof_O 	O 	0.22989	0.40107	0.85228	-0.598
Mof_O 	O 	0.26548	0.375	0.90751	-0.432
Mof_O 	O 	0.11492	0.40049	0.94371	-0.601
Mof_Mo	Mo	0.6617	0.90287	0.43296	0.998
Mof_Mo	Mo	0.74161	0.94849	0.35589	1.019
Mof_Mo	Mo	0.76414	0.86752	0.35009	0.944
Mof_P 	P 	0.74353	0.90069	0.42679	0.557
Mof_O 	O 	0.75642	0.90587	0.46256	-0.484
Mof_O 	O 	0.70804	0.88397	0.42824	-0.454
Mof_O 	O 	0.6536	0.85223	0.41684	-0.392
Mof_O 	O 	0.64009	0.79141	0.41871	-0.426
Mof_O 	O 	0.74192	0.93464	0.40905	-0.422
Mof_O 	O 	0.72989	0.90107	0.35228	-0.597
Mof_O 	O 	0.76548	0.875	0.40751	-0.432
Mof_O 	O 	0.61492	0.90049	0.44371	-0.6
Mof_Mo	Mo	0.6617	0.09713	0.06704	0.995
Mof_Mo	Mo	0.74161	0.05151	0.14411	1.015
Mof_Mo	Mo	0.76414	0.13248	0.14991	0.943
Mof_P 	P 	0.74353	0.09931	0.07321	0.557
Mof_O 	O 	0.75642	0.09413	0.03744	-0.486
Mof_O 	O 	0.70804	0.11603	0.07176	-0.454
Mof_O 	O 	0.6536	0.14777	0.08316	-0.392
Mof_O 	O 	0.64009	0.20859	0.08129	-0.426
Mof_O 	O 	0.74192	0.06536	0.09095	-0.423
Mof_O 	O 	0.72989	0.09893	0.14772	-0.597
Mof_O 	O 	0.76548	0.125	0.09249	-0.432
Mof_O 	O 	0.61492	0.09951	0.05629	-0.599
Mof_Mo	Mo	0.1617	0.59713	0.56704	0.997
Mof_Mo	Mo	0.24161	0.55151	0.64411	1.017
Mof_Mo	Mo	0.26414	0.63248	0.64991	0.943
Mof_P 	P 	0.24353	0.59931	0.57321	0.557
Mof_O 	O 	0.25642	0.59413	0.53744	-0.485
Mof_O 	O 	0.20804	0.61603	0.57176	-0.454
Mof_O 	O 	0.1536	0.64777	0.58316	-0.392
Mof_O 	O 	0.14009	0.70859	0.58129	-0.426
Mof_O 	O 	0.24192	0.56536	0.59095	-0.423
Mof_O 	O 	0.22989	0.59893	0.64772	-0.597
Mof_O 	O 	0.26548	0.625	0.59249	-0.432
Mof_O 	O 	0.11492	0.59951	0.55629	-0.6
Mof_Mo	Mo	0.8383	0.90287	0.56704	0.999
Mof_Mo	Mo	0.75839	0.94849	0.64411	1.019
Mof_Mo	Mo	0.73586	0.86752	0.64991	0.944
Mof_P 	P 	0.75647	0.90069	0.57321	0.557
Mof_O 	O 	0.74358	0.90587	0.53744	-0.484
Mof_O 	O 	0.79196	0.88397	0.57176	-0.454
Mof_O 	O 	0.8464	0.85223	0.58316	-0.392
Mof_O 	O 	0.85991	0.79141	0.58129	-0.426
Mof_O 	O 	0.75808	0.93464	0.59095	-0.422
Mof_O 	O 	0.77011	0.90107	0.64772	-0.597
Mof_O 	O 	0.73452	0.875	0.59249	-0.432
Mof_O 	O 	0.88508	0.90049	0.55629	-0.6
Mof_Mo	Mo	0.3383	0.40287	0.06704	0.996
Mof_Mo	Mo	0.25839	0.44849	0.14411	1.017
Mof_Mo	Mo	0.23586	0.36752	0.14991	0.943
Mof_P 	P 	0.25647	0.40069	0.07321	0.557
Mof_O 	O 	0.24358	0.40587	0.03744	-0.486
Mof_O 	O 	0.29196	0.38397	0.07176	-0.454
Mof_O 	O 	0.3464	0.35223	0.08316	-0.392
Mof_O 	O 	0.35991	0.29141	0.08129	-0.426
Mof_O 	O 	0.25808	0.43464	0.09095	-0.423
Mof_O 	O 	0.27011	0.40107	0.14772	-0.597
Mof_O 	O 	0.23452	0.375	0.09249	-0.432
Mof_O 	O 	0.38508	0.40049	0.05629	-0.599
Mof_Mo	Mo	0.3383	0.59713	0.43296	0.997
Mof_Mo	Mo	0.25839	0.55151	0.35589	1.017
Mof_Mo	Mo	0.23586	0.63248	0.35009	0.943
Mof_P 	P 	0.25647	0.59931	0.42679	0.557
Mof_O 	O 	0.24358	0.59413	0.46256	-0.485
Mof_O 	O 	0.29196	0.61603	0.42824	-0.454
Mof_O 	O 	0.3464	0.64777	0.41684	-0.392
Mof_O 	O 	0.35991	0.70859	0.41871	-0.426
Mof_O 	O 	0.25808	0.56536	0.40905	-0.423
Mof_O 	O 	0.27011	0.59893	0.35228	-0.597
Mof_O 	O 	0.23452	0.625	0.40751	-0.432
Mof_O 	O 	0.38508	0.59951	0.44371	-0.6
Mof_Mo	Mo	0.8383	0.09713	0.93296	0.997
Mof_Mo	Mo	0.75839	0.05151	0.85589	1.016
Mof_Mo	Mo	0.73586	0.13248	0.85009	0.943
Mof_P 	P 	0.75647	0.09931	0.92679	0.557
Mof_O 	O 	0.74358	0.09413	0.96256	-0.483
Mof_O 	O 	0.79196	0.11603	0.92824	-0.454
Mof_O 	O 	0.8464	0.14777	0.91684	-0.392
Mof_O 	O 	0.85991	0.20859	0.91871	-0.426
Mof_O 	O 	0.75808	0.06536	0.90905	-0.423
Mof_O 	O 	0.77011	0.09893	0.85228	-0.597
Mof_O 	O 	0.73452	0.125	0.90751	-0.432
Mof_O 	O 	0.88508	0.09951	0.94371	-0.601
Mof_Zn	Zn	0.25	0.375	-0	1.225
Mof_Zn	Zn	0.25	0.625	0.5	1.226
Mof_Zn	Zn	0.75	0.875	0.5	1.226
Mof_Zn	Zn	0.75	0.125	-0	1.225
Mof_Zn	Zn	-5.03056e-33	0.25	0.375	1.225
Mof_Zn	Zn	0.5	0.25	0.625	1.226
Mof_Zn	Zn	0.5	0.75	0.875	1.226
Mof_Zn	Zn	5.29612e-33	0.75	0.125	1.225
Mof_Zn	Zn	0.375	0	0.25	1.225
Mof_Zn	Zn	0.625	0.5	0.25	1.226
Mof_Zn	Zn	0.875	0.5	0.75	1.226
Mof_Zn	Zn	0.125	0	0.75	1.225
Mof_Zn	Zn	0.125	0.5	0.25	1.226
Mof_Zn	Zn	0.375	0.5	0.75	1.226
Mof_Zn	Zn	0.625	0	0.75	1.225
Mof_Zn	Zn	0.875	0	0.25	1.225
Mof_Zn	Zn	3.28072e-33	0.25	0.875	1.225
Mof_Zn	Zn	-4.09321e-33	0.75	0.625	1.225
Mof_Zn	Zn	0.5	0.75	0.375	1.226
Mof_Zn	Zn	0.5	0.25	0.125	1.226
Mof_Zn	Zn	0.75	0.625	-0	1.225
Mof_Zn	Zn	0.25	0.875	-0	1.225
Mof_Zn	Zn	0.25	0.125	0.5	1.226
Mof_Zn	Zn	0.75	0.375	0.5	1.226
Mof_P 	P 	0.17302	0.42302	0.125	0.585
Mof_P 	P 	0.67302	0.92302	0.625	0.585
Mof_P 	P 	0.32698	0.57698	0.625	0.585
Mof_P 	P 	0.82698	0.07698	0.125	0.585
Mof_P 	P 	0.82698	0.92302	0.375	0.585
Mof_P 	P 	0.32698	0.42302	0.875	0.585
Mof_P 	P 	0.67302	0.07698	0.875	0.585
Mof_P 	P 	0.17302	0.57698	0.375	0.585
Mof_P 	P 	0.125	0.17302	0.42302	0.585
Mof_P 	P 	0.625	0.67302	0.92302	0.585
Mof_P 	P 	0.625	0.32698	0.57698	0.585
Mof_P 	P 	0.125	0.82698	0.07698	0.585
Mof_P 	P 	0.375	0.82698	0.92302	0.585
Mof_P 	P 	0.875	0.32698	0.42302	0.585
Mof_P 	P 	0.875	0.67302	0.07698	0.585
Mof_P 	P 	0.375	0.17302	0.57698	0.585
Mof_P 	P 	0.42302	0.125	0.17302	0.585
Mof_P 	P 	0.92302	0.625	0.67302	0.585
Mof_P 	P 	0.57698	0.625	0.32698	0.585
Mof_P 	P 	0.07698	0.125	0.82698	0.585
Mof_P 	P 	0.92302	0.375	0.82698	0.585
Mof_P 	P 	0.42302	0.875	0.32698	0.585
Mof_P 	P 	0.07698	0.875	0.67302	0.585
Mof_P 	P 	0.57698	0.375	0.17302	0.585
Mof_P 	P 	0.82698	0.57698	0.875	0.585
Mof_P 	P 	0.32698	0.07698	0.375	0.585
Mof_P 	P 	0.67302	0.42302	0.375	0.585
Mof_P 	P 	0.17302	0.92302	0.875	0.585
Mof_P 	P 	0.17302	0.07698	0.625	0.585
Mof_P 	P 	0.67302	0.57698	0.125	0.585
Mof_P 	P 	0.32698	0.92302	0.125	0.585
Mof_P 	P 	0.82698	0.42302	0.625	0.585
Mof_P 	P 	0.875	0.82698	0.57698	0.585
Mof_P 	P 	0.375	0.32698	0.07698	0.585
Mof_P 	P 	0.375	0.67302	0.42302	0.585
Mof_P 	P 	0.875	0.17302	0.92302	0.585
Mof_P 	P 	0.625	0.17302	0.07698	0.585
Mof_P 	P 	0.125	0.67302	0.57698	0.585
Mof_P 	P 	0.125	0.32698	0.92302	0.585
Mof_P 	P 	0.625	0.82698	0.42302	0.585
Mof_P 	P 	0.57698	0.875	0.82698	0.585
Mof_P 	P 	0.07698	0.375	0.32698	0.585
Mof_P 	P 	0.42302	0.375	0.67302	0.585
Mof_P 	P 	0.92302	0.875	0.17302	0.585
Mof_P 	P 	0.07698	0.625	0.17302	0.585
Mof_P 	P 	0.57698	0.125	0.67302	0.585
Mof_P 	P 	0.92302	0.125	0.32698	0.585
Mof_P 	P 	0.42302	0.625	0.82698	0.585
Mof_O 	O 	0.125	0.26498	0.98502	-0.605
Mof_O 	O 	0.625	0.76498	0.48502	-0.609
Mof_O 	O 	0.375	0.73502	0.48502	-0.609
Mof_O 	O 	0.875	0.76498	0.51498	-0.609
Mof_O 	O 	0.625	0.23502	0.01498	-0.612
Mof_O 	O 	0.98502	0.125	0.26498	-0.605
Mof_O 	O 	0.48502	0.625	0.76498	-0.609
Mof_O 	O 	0.48502	0.375	0.73502	-0.609
Mof_O 	O 	0.51498	0.875	0.76498	-0.609
Mof_O 	O 	0.01498	0.625	0.23502	-0.612
Mof_O 	O 	0.26498	0.98502	0.125	-0.605
Mof_O 	O 	0.76498	0.48502	0.625	-0.609
Mof_O 	O 	0.73502	0.48502	0.375	-0.609
Mof_O 	O 	0.76498	0.51498	0.875	-0.609
Mof_O 	O 	0.23502	0.01498	0.625	-0.612
Mof_O 	O 	0.01498	0.375	0.26498	-0.612
Mof_O 	O 	0.51498	0.125	0.73502	-0.609
Mof_O 	O 	0.98502	0.875	0.23502	-0.605
Mof_O 	O 	0.875	0.23502	0.98502	-0.605
Mof_O 	O 	0.125	0.73502	0.51498	-0.609
Mof_O 	O 	0.375	0.26498	0.01498	-0.612
Mof_O 	O 	0.73502	0.51498	0.125	-0.609
Mof_O 	O 	0.23502	0.98502	0.875	-0.605
Mof_O 	O 	0.26498	0.01498	0.375	-0.612
Mof_O 	O 	0.875	0.73502	0.01498	-0.612
Mof_O 	O 	0.375	0.23502	0.51498	-0.609
Mof_O 	O 	0.625	0.26498	0.51498	-0.609
Mof_O 	O 	0.125	0.23502	0.48502	-0.609
Mof_O 	O 	0.375	0.76498	0.98502	-0.605
Mof_O 	O 	0.01498	0.875	0.73502	-0.612
Mof_O 	O 	0.51498	0.375	0.23502	-0.609
Mof_O 	O 	0.51498	0.625	0.26498	-0.609
Mof_O 	O 	0.48502	0.125	0.23502	-0.609
Mof_O 	O 	0.98502	0.375	0.76498	-0.605
Mof_O 	O 	0.73502	0.01498	0.875	-0.612
Mof_O 	O 	0.23502	0.51498	0.375	-0.609
Mof_O 	O 	0.26498	0.51498	0.625	-0.609
Mof_O 	O 	0.23502	0.48502	0.125	-0.609
Mof_O 	O 	0.76498	0.98502	0.375	-0.605
Mof_O 	O 	0.98502	0.625	0.73502	-0.605
Mof_O 	O 	0.48502	0.875	0.26498	-0.609
Mof_O 	O 	0.01498	0.125	0.76498	-0.612
Mof_O 	O 	0.125	0.76498	0.01498	-0.612
Mof_O 	O 	0.875	0.26498	0.48502	-0.609
Mof_O 	O 	0.625	0.73502	0.98502	-0.605
Mof_O 	O 	0.26498	0.48502	0.875	-0.609
Mof_O 	O 	0.76498	0.01498	0.125	-0.612
Mof_O 	O 	0.73502	0.98502	0.625	-0.605
_end
