data_functionalizedCrystal
_audit_creation_method	'EQeq! by Chris Wilmer'
_symmetry_space_group_name_H-M	'P1'
_symmetry_Int_Tables_number	1
_symmetry_cell_setting	triclinic
loop_
_symmetry_equiv_pos_as_xyz
  x,y,z
_cell_length_a	8.365
_cell_length_b	9.795
_cell_length_c	20.946
_cell_angle_alpha	90
_cell_angle_beta	90
_cell_angle_gamma	90
loop_
_atom_site_label
_atom_site_type_symbol
_atom_site_fract_x
_atom_site_fract_y
_atom_site_fract_z
_atom_site_charge
Mof_Cd	Cd	0.50768	0.60338	0.71677	0.38
Mof_Cd	Cd	0.30831	0.65942	0.97866	0.396
Mof_Cd	Cd	0.99232	0.39662	0.21677	0.379
Mof_Cd	Cd	0.19169	0.34058	0.47866	0.396
Mof_Cd	Cd	0.49232	0.10338	0.78323	0.38
Mof_Cd	Cd	0.69169	0.15942	0.52134	0.397
Mof_Cd	Cd	0.00768	0.89662	0.28323	0.38
Mof_Cd	Cd	0.80831	0.84058	0.02134	0.397
Mof_H 	H 	0.4248	0.4001	0.9241	0.214
Mof_H 	H 	0.6943	0.6781	0.8156	0.203
Mof_H 	H 	0.6721	0.41	0.9397	0.033
Mof_H 	H 	0.7888	0.4975	0.846	0.032
Mof_H 	H 	0.0752	0.5999	0.4241	0.214
Mof_H 	H 	0.8057	0.3219	0.3156	0.202
Mof_H 	H 	0.8279	0.59	0.4397	0.033
Mof_H 	H 	0.7112	0.5025	0.346	0.032
Mof_H 	H 	0.5752	0.9001	0.5759	0.215
Mof_H 	H 	0.3057	0.1781	0.6844	0.202
Mof_H 	H 	0.3279	0.91	0.5603	0.032
Mof_H 	H 	0.2112	0.9975	0.654	0.033
Mof_H 	H 	0.9248	0.0999	0.0759	0.215
Mof_H 	H 	0.1943	0.8219	0.1844	0.202
Mof_H 	H 	0.1721	0.09	0.0603	0.032
Mof_H 	H 	0.2888	0.0025	0.154	0.033
Mof_C 	C 	0.6784	0.6203	0.95551	0.27
Mof_C 	C 	0.6214	0.4924	0.92017	0.027
Mof_C 	C 	0.6697	0.5015	0.84919	0.009
Mof_C 	C 	0.5989	0.379	0.81404	0.278
Mof_C 	C 	0.8216	0.3797	0.45551	0.27
Mof_C 	C 	0.8786	0.5076	0.42017	0.027
Mof_C 	C 	0.8303	0.4985	0.34919	0.009
Mof_C 	C 	0.9011	0.621	0.31404	0.278
Mof_C 	C 	0.3216	0.1203	0.54449	0.269
Mof_C 	C 	0.3786	0.9924	0.57983	0.029
Mof_C 	C 	0.3303	0.0015	0.65081	0.006
Mof_C 	C 	0.4011	0.879	0.68596	0.279
Mof_C 	C 	0.1784	0.8797	0.04449	0.268
Mof_C 	C 	0.1214	0.0076	0.07983	0.03
Mof_C 	C 	0.1697	0.9985	0.15081	0.007
Mof_C 	C 	0.0989	0.121	0.18596	0.279
Mof_O 	O 	0.5814	0.6976	0.98354	-0.282
Mof_O 	O 	0.8279	0.6436	0.95545	-0.267
Mof_O 	O 	0.4523	0.4824	0.92609	-0.364
Mof_O 	O 	0.6157	0.6267	0.82219	-0.347
Mof_O 	O 	0.5997	0.2667	0.84402	-0.294
Mof_O 	O 	0.5449	0.3908	0.75792	-0.288
Mof_O 	O 	0.9186	0.3024	0.48354	-0.282
Mof_O 	O 	0.6721	0.3564	0.45545	-0.268
Mof_O 	O 	0.0477	0.5176	0.42609	-0.364
Mof_O 	O 	0.8843	0.3733	0.32219	-0.347
Mof_O 	O 	0.9003	0.7333	0.34402	-0.293
Mof_O 	O 	0.9551	0.6092	0.25792	-0.288
Mof_O 	O 	0.4186	0.1976	0.51646	-0.282
Mof_O 	O 	0.1721	0.1436	0.54455	-0.268
Mof_O 	O 	0.5477	0.9824	0.57391	-0.364
Mof_O 	O 	0.3843	0.1267	0.67781	-0.346
Mof_O 	O 	0.4003	0.7667	0.65598	-0.294
Mof_O 	O 	0.4551	0.8908	0.74208	-0.288
Mof_O 	O 	0.0814	0.8024	0.01646	-0.281
Mof_O 	O 	0.3279	0.8564	0.04455	-0.268
Mof_O 	O 	0.9523	0.0176	0.07391	-0.365
Mof_O 	O 	0.1157	0.8733	0.17781	-0.346
Mof_O 	O 	0.0997	0.2333	0.15598	-0.293
Mof_O 	O 	0.0449	0.1092	0.24208	-0.288
_end
