data_functionalizedCrystal
_audit_creation_method	'EQeq! by Chris Wilmer'
_symmetry_space_group_name_H-M	'P1'
_symmetry_Int_Tables_number	1
_symmetry_cell_setting	triclinic
loop_
_symmetry_equiv_pos_as_xyz
  x,y,z
_cell_length_a	14.319
_cell_length_b	14.49
_cell_length_c	22.598
_cell_angle_alpha	90
_cell_angle_beta	98.21
_cell_angle_gamma	90
loop_
_atom_site_label
_atom_site_type_symbol
_atom_site_fract_x
_atom_site_fract_y
_atom_site_fract_z
_atom_site_charge
Mof_Cd	Cd	0.17877	0.13256	0.86001	0.386
Mof_Cd	Cd	0.17877	0.36744	0.36001	0.387
Mof_Cd	Cd	0.74414	0.75077	0.75883	0.503
Mof_Cd	Cd	0.25586	0.24923	0.24117	0.503
Mof_Cd	Cd	0.74414	0.74923	0.25883	0.504
Mof_Cd	Cd	0.82123	0.63256	0.63999	0.388
Mof_Cd	Cd	0.82123	0.86744	0.13999	0.387
Mof_Cd	Cd	0.25586	0.25077	0.74117	0.504
Mof_H 	H 	0.0746	0.0833	0.5958	0.097
Mof_H 	H 	0.4018	0.4261	0.4086	0.084
Mof_H 	H 	0.9848	0.5241	0.2401	0.072
Mof_H 	H 	0.0152	0.0241	0.2599	0.072
Mof_H 	H 	0.5982	0.5739	0.5914	0.084
Mof_H 	H 	0.9848	0.9759	0.7401	0.072
Mof_H 	H 	0.3899	0.3859	0.5833	0.096
Mof_H 	H 	0.5012	0.4934	0.7416	0.081
Mof_H 	H 	0.9254	0.9167	0.4042	0.097
Mof_H 	H 	0.0152	0.4759	0.7599	0.072
Mof_H 	H 	0.4018	0.0739	0.9086	0.084
Mof_H 	H 	0.8891	0.6245	0.078	0.09
Mof_H 	H 	0.4988	0.5066	0.2584	0.081
Mof_H 	H 	0.8891	0.8755	0.578	0.09
Mof_H 	H 	0.5982	0.9261	0.0914	0.084
Mof_H 	H 	0.0746	0.4167	0.0958	0.097
Mof_H 	H 	0.5012	0.0066	0.2416	0.081
Mof_H 	H 	0.3899	0.1141	0.0833	0.096
Mof_H 	H 	0.6101	0.6141	0.4167	0.096
Mof_H 	H 	0.9254	0.5833	0.9042	0.097
Mof_H 	H 	0.1109	0.1245	0.422	0.09
Mof_H 	H 	0.1109	0.3755	0.922	0.09
Mof_H 	H 	0.6101	0.8859	0.9167	0.096
Mof_H 	H 	0.4988	0.9934	0.7584	0.081
Mof_C 	C 	0.4325	0.4252	0.6057	-0.102
Mof_C 	C 	0.5594	0.9559	0.1717	-0.015
Mof_C 	C 	0.4406	0.4559	0.3283	-0.015
Mof_C 	C 	0.015	0.0237	0.30102	-0.029
Mof_C 	C 	0.9615	0.9597	0.38697	-0.09
Mof_C 	C 	0.1054	0.3968	0.2131	0.317
Mof_C 	C 	0.9273	0.5835	0.102	-0.099
Mof_C 	C 	0.9273	0.9165	0.602	-0.099
Mof_C 	C 	0.0727	0.4165	0.898	-0.099
Mof_C 	C 	0.0183	0.4782	0.9235	0.118
Mof_C 	C 	0.9584	0.9614	0.32578	-0.024
Mof_C 	C 	0.1344	0.3484	0.8103	0.291
Mof_C 	C 	0.4359	0.43	0.6673	-0.007
Mof_C 	C 	0.9615	0.5403	0.88697	-0.09
Mof_C 	C 	0.9817	0.9782	0.5765	0.118
Mof_C 	C 	0.5594	0.5441	0.6717	-0.015
Mof_C 	C 	0.4428	0.0386	0.8895	-0.097
Mof_C 	C 	0.6303	0.63	0.303	0.292
Mof_C 	C 	0.6303	0.87	0.803	0.292
Mof_C 	C 	0.1054	0.1032	0.7131	0.317
Mof_C 	C 	0.985	0.5237	0.19898	-0.03
Mof_C 	C 	0.0385	0.0403	0.61303	-0.09
Mof_C 	C 	0.6254	0.8893	0.2082	0.283
Mof_C 	C 	0.4929	0.0206	0.0777	0.119
Mof_C 	C 	0.9286	0.9146	0.6632	-0.018
Mof_C 	C 	0.8656	0.6516	0.1897	0.291
Mof_C 	C 	0.4359	0.07	0.1673	-0.007
Mof_C 	C 	0.3697	0.37	0.697	0.292
Mof_C 	C 	0.5572	0.9614	0.1105	-0.097
Mof_C 	C 	0.3746	0.1107	0.7918	0.283
Mof_C 	C 	0.5572	0.5386	0.6105	-0.097
Mof_C 	C 	0.4991	0.4897	0.7003	-0.04
Mof_C 	C 	0.5641	0.93	0.8327	-0.007
Mof_C 	C 	0.5071	0.5206	0.4223	0.119
Mof_C 	C 	0.8656	0.8484	0.6897	0.291
Mof_C 	C 	0.0416	0.4614	0.17422	-0.024
Mof_C 	C 	0.9817	0.5218	0.0765	0.118
Mof_C 	C 	0.3746	0.3893	0.2918	0.283
Mof_C 	C 	0.0714	0.0854	0.3368	-0.018
Mof_C 	C 	0.4991	0.0103	0.2003	-0.04
Mof_C 	C 	0.0183	0.0218	0.4235	0.118
Mof_C 	C 	0.9286	0.5854	0.1632	-0.018
Mof_C 	C 	0.4325	0.0748	0.1057	-0.102
Mof_C 	C 	0.4406	0.0441	0.8283	-0.015
Mof_C 	C 	0.1344	0.1516	0.3103	0.291
Mof_C 	C 	0.5675	0.5748	0.3943	-0.102
Mof_C 	C 	0.8946	0.6032	0.7869	0.317
Mof_C 	C 	0.4929	0.4794	0.5777	0.119
Mof_C 	C 	0.6254	0.6107	0.7082	0.283
Mof_C 	C 	0.5071	0.9794	0.9223	0.119
Mof_C 	C 	0.015	0.4763	0.80102	-0.03
Mof_C 	C 	0.0385	0.4597	0.11303	-0.09
Mof_C 	C 	0.3697	0.13	0.197	0.292
Mof_C 	C 	0.0727	0.0835	0.398	-0.099
Mof_C 	C 	0.0714	0.4146	0.8368	-0.018
Mof_C 	C 	0.5641	0.57	0.3327	-0.007
Mof_C 	C 	0.8946	0.8968	0.2869	0.317
Mof_C 	C 	0.5009	0.5103	0.2997	-0.04
Mof_C 	C 	0.5675	0.9252	0.8943	-0.102
Mof_C 	C 	0.4428	0.4614	0.3895	-0.097
Mof_C 	C 	0.0416	0.0386	0.67422	-0.024
Mof_C 	C 	0.9584	0.5386	0.82578	-0.024
Mof_C 	C 	0.5009	0.9897	0.7997	-0.04
Mof_C 	C 	0.985	0.9763	0.69898	-0.029
Mof_N 	N 	0.5146	0.5329	0.48556	-0.088
Mof_N 	N 	0.4854	0.4671	0.51444	-0.088
Mof_N 	N 	0.9715	0.5231	0.01223	-0.084
Mof_N 	N 	0.0285	0.4769	0.98777	-0.084
Mof_N 	N 	0.9715	0.9769	0.51223	-0.084
Mof_N 	N 	0.4854	0.0329	0.01444	-0.088
Mof_N 	N 	0.5146	0.9671	0.98556	-0.088
Mof_N 	N 	0.0285	0.0231	0.48777	-0.084
Mof_O 	O 	0.6218	0.6322	0.24774	-0.248
Mof_O 	O 	0.8475	0.658	0.81254	-0.273
Mof_O 	O 	0.3782	0.1322	0.25226	-0.248
Mof_O 	O 	0.6883	0.6775	0.33556	-0.258
Mof_O 	O 	0.62	0.8754	0.2613	-0.241
Mof_O 	O 	0.8973	0.9012	0.23204	-0.29
Mof_O 	O 	0.38	0.3754	0.2387	-0.241
Mof_O 	O 	0.3155	0.3448	0.31865	-0.289
Mof_O 	O 	0.6883	0.8225	0.83556	-0.258
Mof_O 	O 	0.3117	0.1775	0.16444	-0.258
Mof_O 	O 	0.8475	0.842	0.31254	-0.273
Mof_O 	O 	0.1525	0.342	0.18746	-0.273
Mof_O 	O 	0.6845	0.6552	0.68135	-0.289
Mof_O 	O 	0.1027	0.0988	0.76796	-0.29
Mof_O 	O 	0.6845	0.8448	0.18135	-0.289
Mof_O 	O 	0.8575	0.6437	0.244	-0.259
Mof_O 	O 	0.38	0.1246	0.7387	-0.241
Mof_O 	O 	0.8223	0.7884	0.65596	-0.279
Mof_O 	O 	0.1525	0.158	0.68746	-0.273
Mof_O 	O 	0.3155	0.1552	0.81865	-0.289
Mof_O 	O 	0.8223	0.7116	0.15596	-0.279
Mof_O 	O 	0.1777	0.2116	0.34404	-0.279
Mof_O 	O 	0.3782	0.3678	0.75226	-0.248
Mof_O 	O 	0.62	0.6246	0.7613	-0.241
Mof_O 	O 	0.6218	0.8678	0.74774	-0.248
Mof_O 	O 	0.1425	0.3563	0.756	-0.259
Mof_O 	O 	0.1425	0.1437	0.256	-0.259
Mof_O 	O 	0.8973	0.5988	0.73204	-0.29
Mof_O 	O 	0.8575	0.8563	0.744	-0.259
Mof_O 	O 	0.3117	0.3225	0.66444	-0.258
Mof_O 	O 	0.1027	0.4012	0.26796	-0.29
Mof_O 	O 	0.1777	0.2884	0.84404	-0.279
_end
