data_functionalizedCrystal
_audit_creation_method	'EQeq! by Chris Wilmer'
_symmetry_space_group_name_H-M	'P1'
_symmetry_Int_Tables_number	1
_symmetry_cell_setting	triclinic
loop_
_symmetry_equiv_pos_as_xyz
  x,y,z
_cell_length_a	9.162
_cell_length_b	9.291
_cell_length_c	16.504
_cell_angle_alpha	75.038
_cell_angle_beta	75.244
_cell_angle_gamma	83.867
loop_
_atom_site_label
_atom_site_type_symbol
_atom_site_fract_x
_atom_site_fract_y
_atom_site_fract_z
_atom_site_charge
Mof_P 	P 	0.66579	0.81787	0.47416	1.947
Mof_P 	P 	0.31216	0.58007	0.69359	1.911
Mof_P 	P 	0.13504	0.66364	0.46786	1.841
Mof_P 	P 	0.0217	0.7366	0.99889	1.061
Mof_P 	P 	0.14661	0.5475	0.22546	1.418
Mof_Al	Al	0.31406	0.8494	0.53419	7.474
Mof_Al	Al	0.89516	0.6112	0.37486	7.116
Mof_Al	Al	0.66642	0.5546	0.63477	7.404
Mof_Al	Al	0.0702	0.5486	0.8597	6.253
Mof_O 	O 	0.4988	0.8399	0.4749	-2.332
Mof_O 	O 	0.0183	0.7112	0.4166	-1.77
Mof_O 	O 	0.0713	0.5634	0.5549	-2.193
Mof_O 	O 	0.1922	0.8035	0.4804	-2.172
Mof_O 	O 	0.7321	0.9704	0.4551	-2.201
Mof_O 	O 	0.4784	0.5333	0.6876	-2.204
Mof_O 	O 	0.074	0.4384	0.1934	-1.812
Mof_O 	O 	0.7423	0.7383	0.4041	-2.013
Mof_O 	O 	0.6843	0.7279	0.564	-2.339
Mof_O 	O 	0.2369	0.4692	0.6687	-1.951
Mof_O 	O 	0.2434	0.5878	0.7876	-1.877
Mof_O 	O 	0.2733	0.5848	0.4191	-2.386
Mof_O 	O 	0.0261	0.6444	0.2715	-1.931
Mof_O 	O 	0.3009	0.7377	0.6374	-2.308
Mof_O 	O 	0.2516	0.6472	0.149	-0.467
Mof_O 	O 	0.0289	0.6861	0.917	-1.789
Mof_O 	O 	0.9213	0.6294	0.075	-1.793
Mof_O 	O 	0.237	0.4524	0.287	-2.149
Mof_O 	O 	0.1809	0.7327	0.011	-0.427
Mof_O 	O 	0.9479	0.8903	0.9878	-0.312
Mof_P 	P 	0.33421	0.18213	0.52584	1.948
Mof_P 	P 	0.68784	0.41993	0.30641	1.912
Mof_P 	P 	0.86496	0.33636	0.53214	1.841
Mof_P 	P 	0.9783	0.2634	0.00111	1.061
Mof_P 	P 	0.85339	0.4525	0.77454	1.418
Mof_Al	Al	0.68594	0.1506	0.46581	7.474
Mof_Al	Al	0.10484	0.3888	0.62514	7.116
Mof_Al	Al	0.33358	0.4454	0.36523	7.404
Mof_Al	Al	0.9298	0.4514	0.1403	6.253
Mof_O 	O 	0.5012	0.1601	0.5251	-2.332
Mof_O 	O 	0.9817	0.2888	0.5834	-1.77
Mof_O 	O 	0.9287	0.4366	0.4451	-2.193
Mof_O 	O 	0.8078	0.1965	0.5196	-2.172
Mof_O 	O 	0.2679	0.0296	0.5449	-2.201
Mof_O 	O 	0.5216	0.4667	0.3124	-2.204
Mof_O 	O 	0.926	0.5616	0.8066	-1.812
Mof_O 	O 	0.2577	0.2617	0.5959	-2.013
Mof_O 	O 	0.3157	0.2721	0.436	-2.339
Mof_O 	O 	0.7631	0.5308	0.3313	-1.951
Mof_O 	O 	0.7566	0.4122	0.2124	-1.877
Mof_O 	O 	0.7267	0.4152	0.5809	-2.386
Mof_O 	O 	0.9739	0.3556	0.7285	-1.931
Mof_O 	O 	0.6991	0.2623	0.3626	-2.308
Mof_O 	O 	0.7484	0.3528	0.851	-0.467
Mof_O 	O 	0.9711	0.3139	0.083	-1.789
Mof_O 	O 	0.0787	0.3706	0.925	-1.793
Mof_O 	O 	0.763	0.5476	0.713	-2.149
Mof_O 	O 	0.8191	0.2673	0.989	-0.427
Mof_O 	O 	0.0521	0.1097	0.0122	-0.312
_end
