data_functionalizedCrystal
_audit_creation_method	'EQeq! by Chris Wilmer'
_symmetry_space_group_name_H-M	'P1'
_symmetry_Int_Tables_number	1
_symmetry_cell_setting	triclinic
loop_
_symmetry_equiv_pos_as_xyz
  x,y,z
_cell_length_a	26.4701
_cell_length_b	26.4701
_cell_length_c	5.1884
_cell_angle_alpha	90
_cell_angle_beta	90
_cell_angle_gamma	90
loop_
_atom_site_label
_atom_site_type_symbol
_atom_site_fract_x
_atom_site_fract_y
_atom_site_fract_z
_atom_site_charge
Mof_Zn	Zn	0.27172	0.21431	0.92217	1.226
Mof_O 	O 	0.2216	0.2547	0.0902	-0.79
Mof_H 	H 	0.2008	0.2657	0.9783	0.29
Mof_N 	N 	0.249	0.1422	0.915	-0.28
Mof_C 	C 	0.2636	0.1045	0.0594	0.118
Mof_H 	H 	0.2885	0.1077	0.1848	-0.02
Mof_N 	N 	0.2394	0.0602	0.0114	-0.167
Mof_C 	C 	0.21119	0.1218	0.7561	0.042
Mof_O 	O 	0.2765	0.8337	0.3704	-0.533
Mof_C 	C 	0.1823	0.1442	0.5659	-0.129
Mof_H 	H 	0.1866	0.1781	0.5243	0.042
Mof_O 	O 	0.3077	0.8716	0.692	-0.271
Mof_C 	C 	0.1467	0.115	0.4383	0.042
Mof_C 	C 	0.1176	0.1356	0.2432	-0.088
Mof_H 	H 	0.1222	0.1694	0.2	0.058
Mof_C 	C 	0.0819	0.1075	0.1097	-0.02
Mof_H 	H 	0.0624	0.1223	0.9812	0.027
Mof_C 	C 	0.0759	0.0568	0.1721	-0.029
Mof_H 	H 	0.0524	0.0372	0.084	0.034
Mof_C 	C 	0.1048	0.0356	0.3652	-0.091
Mof_H 	H 	0.1002	0.0017	0.4066	0.06
Mof_C 	C 	0.1408	0.0637	0.4999	0.047
Mof_C 	C 	0.1701	0.0414	0.6905	-0.135
Mof_H 	H 	0.1666	0.0074	0.7304	0.077
Mof_C 	C 	0.2046	0.0712	0.8188	0.078
Mof_C 	C 	0.2542	0.0129	0.1168	0.174
Mof_C 	C 	0.2837	0.9218	0.3297	-0.143
Mof_C 	C 	0.2726	0.0102	0.3658	0.104
Mof_H 	H 	0.275	0.0398	0.4619	-0
Mof_C 	C 	0.2874	0.9655	0.4763	-0.159
Mof_H 	H 	0.2996	0.9645	0.6444	0.101
Mof_C 	C 	0.2654	0.9221	0.0801	-0.162
Mof_H 	H 	0.2628	0.8924	0.9852	0.11
Mof_C 	C 	0.2509	0.968	0.9761	0.109
Mof_H 	H 	0.2387	0.969	0.8081	-0.007
Mof_C 	C 	0.2958	0.8715	0.455	0.454
Mof_O 	O 	0.3446	0.8721	0.55	-0.188
Mof_C 	C 	0.304	0.0061	0.1818	-0.316
Mof_H 	H 	0.3271	0.0319	0.1542	0.149
Mof_C 	C 	0.3202	0.9601	0.29	0.225
Mof_H 	H 	0.3539	0.955	0.334	-0.031
Mof_C 	C 	0.2324	0.9268	0.264	0.213
Mof_H 	H 	0.2088	0.9012	0.2882	-0.046
Mof_C 	C 	0.22	0.9741	0.159	-0.308
Mof_H 	H 	0.1865	0.9798	0.1152	0.135
Mof_Zn	Zn	0.77172	0.71431	0.42217	1.228
Mof_O 	O 	0.7216	0.7547	0.5902	-0.806
Mof_H 	H 	0.7008	0.7657	0.4783	0.305
Mof_N 	N 	0.749	0.6422	0.415	-0.275
Mof_C 	C 	0.7636	0.6045	0.5594	0.111
Mof_H 	H 	0.7885	0.6077	0.6848	-0.02
Mof_N 	N 	0.7394	0.5602	0.5114	-0.171
Mof_C 	C 	0.71119	0.6218	0.2561	0.036
Mof_O 	O 	0.7765	0.3337	0.8704	-0.535
Mof_C 	C 	0.6823	0.6442	0.0659	-0.114
Mof_H 	H 	0.6866	0.6781	0.0243	0.039
Mof_O 	O 	0.8077	0.3716	0.192	-0.272
Mof_C 	C 	0.6467	0.615	0.9383	0.022
Mof_C 	C 	0.6176	0.6356	0.7432	-0.072
Mof_H 	H 	0.6222	0.6694	0.7	0.05
Mof_C 	C 	0.5819	0.6075	0.6097	-0.041
Mof_H 	H 	0.5624	0.6223	0.4812	0.039
Mof_C 	C 	0.5759	0.5568	0.6721	-0.014
Mof_H 	H 	0.5524	0.5372	0.584	0.03
Mof_C 	C 	0.6048	0.5356	0.8652	-0.1
Mof_H 	H 	0.6002	0.5017	0.9066	0.064
Mof_C 	C 	0.6408	0.5637	0.9999	0.054
Mof_C 	C 	0.6701	0.5414	0.1905	-0.138
Mof_H 	H 	0.6666	0.5074	0.2304	0.078
Mof_C 	C 	0.7046	0.5712	0.3188	0.082
Mof_C 	C 	0.7542	0.5129	0.6168	0.187
Mof_C 	C 	0.7837	0.4218	0.8297	-0.177
Mof_C 	C 	0.7726	0.5102	0.8658	-0.168
Mof_H 	H 	0.775	0.5398	0.9619	0.091
Mof_C 	C 	0.7874	0.4655	0.9763	0.088
Mof_H 	H 	0.7996	0.4645	0.1444	0.015
Mof_C 	C 	0.7654	0.4221	0.5801	0.141
Mof_H 	H 	0.7628	0.3924	0.4852	0
Mof_C 	C 	0.7509	0.468	0.4761	-0.196
Mof_H 	H 	0.7387	0.469	0.3081	0.1
Mof_C 	C 	0.7958	0.3715	0.955	0.474
Mof_O 	O 	0.8446	0.3721	0.05	-0.196
Mof_C 	C 	0.804	0.5061	0.6818	-0.066
Mof_H 	H 	0.8271	0.5319	0.6542	0.062
Mof_C 	C 	0.8202	0.4601	0.79	0.01
Mof_H 	H 	0.8539	0.455	0.834	0.044
Mof_C 	C 	0.7324	0.4268	0.764	-0.049
Mof_H 	H 	0.7088	0.4012	0.7882	0.048
Mof_C 	C 	0.72	0.4741	0.659	-0.028
Mof_H 	H 	0.6865	0.4798	0.6152	0.038
Mof_Zn	Zn	0.72828	0.78569	0.92217	1.226
Mof_O 	O 	0.7784	0.7453	0.0902	-0.79
Mof_H 	H 	0.7992	0.7343	0.9783	0.29
Mof_N 	N 	0.751	0.8578	0.915	-0.28
Mof_C 	C 	0.7364	0.8955	0.0594	0.118
Mof_H 	H 	0.7115	0.8923	0.1848	-0.02
Mof_N 	N 	0.7606	0.9398	0.0114	-0.167
Mof_C 	C 	0.78881	0.8782	0.7561	0.042
Mof_O 	O 	0.7235	0.1663	0.3704	-0.533
Mof_C 	C 	0.8177	0.8558	0.5659	-0.129
Mof_H 	H 	0.8134	0.8219	0.5243	0.042
Mof_O 	O 	0.6923	0.1284	0.692	-0.271
Mof_C 	C 	0.8533	0.885	0.4383	0.042
Mof_C 	C 	0.8824	0.8644	0.2432	-0.088
Mof_H 	H 	0.8778	0.8306	0.2	0.058
Mof_C 	C 	0.9181	0.8925	0.1097	-0.02
Mof_H 	H 	0.9376	0.8777	0.9812	0.027
Mof_C 	C 	0.9241	0.9432	0.1721	-0.029
Mof_H 	H 	0.9476	0.9628	0.084	0.034
Mof_C 	C 	0.8952	0.9644	0.3652	-0.091
Mof_H 	H 	0.8998	0.9983	0.4066	0.06
Mof_C 	C 	0.8592	0.9363	0.4999	0.047
Mof_C 	C 	0.8299	0.9586	0.6905	-0.135
Mof_H 	H 	0.8334	0.9926	0.7304	0.077
Mof_C 	C 	0.7954	0.9288	0.8188	0.078
Mof_C 	C 	0.7458	0.9871	0.1168	0.174
Mof_C 	C 	0.7163	0.0782	0.3297	-0.143
Mof_C 	C 	0.7274	0.9898	0.3658	0.104
Mof_H 	H 	0.725	0.9602	0.4619	-0
Mof_C 	C 	0.7126	0.0345	0.4763	-0.159
Mof_H 	H 	0.7004	0.0355	0.6444	0.101
Mof_C 	C 	0.7346	0.0779	0.0801	-0.162
Mof_H 	H 	0.7372	0.1076	0.9852	0.11
Mof_C 	C 	0.7491	0.032	0.9761	0.109
Mof_H 	H 	0.7613	0.031	0.8081	-0.007
Mof_C 	C 	0.7042	0.1285	0.455	0.454
Mof_O 	O 	0.6554	0.1279	0.55	-0.188
Mof_C 	C 	0.696	0.9939	0.1818	-0.316
Mof_H 	H 	0.6729	0.9681	0.1542	0.149
Mof_C 	C 	0.6798	0.0399	0.29	0.225
Mof_H 	H 	0.6461	0.045	0.334	-0.031
Mof_C 	C 	0.7676	0.0732	0.264	0.213
Mof_H 	H 	0.7912	0.0988	0.2882	-0.046
Mof_C 	C 	0.78	0.0259	0.159	-0.308
Mof_H 	H 	0.8135	0.0202	0.1152	0.135
Mof_Zn	Zn	0.22828	0.28569	0.42217	1.228
Mof_O 	O 	0.2784	0.2453	0.5902	-0.806
Mof_H 	H 	0.2992	0.2343	0.4783	0.305
Mof_N 	N 	0.251	0.3578	0.415	-0.275
Mof_C 	C 	0.2364	0.3955	0.5594	0.111
Mof_H 	H 	0.2115	0.3923	0.6848	-0.02
Mof_N 	N 	0.2606	0.4398	0.5114	-0.171
Mof_C 	C 	0.28881	0.3782	0.2561	0.036
Mof_O 	O 	0.2235	0.6663	0.8704	-0.535
Mof_C 	C 	0.3177	0.3558	0.0659	-0.114
Mof_H 	H 	0.3134	0.3219	0.0243	0.039
Mof_O 	O 	0.1923	0.6284	0.192	-0.272
Mof_C 	C 	0.3533	0.385	0.9383	0.022
Mof_C 	C 	0.3824	0.3644	0.7432	-0.072
Mof_H 	H 	0.3778	0.3306	0.7	0.05
Mof_C 	C 	0.4181	0.3925	0.6097	-0.041
Mof_H 	H 	0.4376	0.3777	0.4812	0.039
Mof_C 	C 	0.4241	0.4432	0.6721	-0.014
Mof_H 	H 	0.4476	0.4628	0.584	0.03
Mof_C 	C 	0.3952	0.4644	0.8652	-0.1
Mof_H 	H 	0.3998	0.4983	0.9066	0.064
Mof_C 	C 	0.3592	0.4363	0.9999	0.054
Mof_C 	C 	0.3299	0.4586	0.1905	-0.138
Mof_H 	H 	0.3334	0.4926	0.2304	0.078
Mof_C 	C 	0.2954	0.4288	0.3188	0.082
Mof_C 	C 	0.2458	0.4871	0.6168	0.187
Mof_C 	C 	0.2163	0.5782	0.8297	-0.177
Mof_C 	C 	0.2274	0.4898	0.8658	-0.168
Mof_H 	H 	0.225	0.4602	0.9619	0.091
Mof_C 	C 	0.2126	0.5345	0.9763	0.088
Mof_H 	H 	0.2004	0.5355	0.1444	0.015
Mof_C 	C 	0.2346	0.5779	0.5801	0.141
Mof_H 	H 	0.2372	0.6076	0.4852	0
Mof_C 	C 	0.2491	0.532	0.4761	-0.196
Mof_H 	H 	0.2613	0.531	0.3081	0.1
Mof_C 	C 	0.2042	0.6285	0.955	0.474
Mof_O 	O 	0.1554	0.6279	0.05	-0.196
Mof_C 	C 	0.196	0.4939	0.6818	-0.066
Mof_H 	H 	0.1729	0.4681	0.6542	0.062
Mof_C 	C 	0.1798	0.5399	0.79	0.01
Mof_H 	H 	0.1461	0.545	0.834	0.044
Mof_C 	C 	0.2676	0.5732	0.764	-0.049
Mof_H 	H 	0.2912	0.5988	0.7882	0.048
Mof_C 	C 	0.28	0.5259	0.659	-0.028
Mof_H 	H 	0.3135	0.5202	0.6152	0.038
Mof_Zn	Zn	0.21431	0.72828	0.07783	1.226
Mof_O 	O 	0.2547	0.7784	0.9098	-0.79
Mof_H 	H 	0.2657	0.7992	0.0217	0.29
Mof_N 	N 	0.1422	0.751	0.085	-0.28
Mof_C 	C 	0.1045	0.7364	0.9406	0.118
Mof_H 	H 	0.1077	0.7115	0.8152	-0.02
Mof_N 	N 	0.0602	0.7606	0.9886	-0.167
Mof_C 	C 	0.1218	0.78881	0.2439	0.042
Mof_O 	O 	0.8337	0.7235	0.6296	-0.533
Mof_C 	C 	0.1442	0.8177	0.4341	-0.129
Mof_H 	H 	0.1781	0.8134	0.4757	0.042
Mof_O 	O 	0.8716	0.6923	0.308	-0.271
Mof_C 	C 	0.115	0.8533	0.5617	0.042
Mof_C 	C 	0.1356	0.8824	0.7568	-0.088
Mof_H 	H 	0.1694	0.8778	0.8	0.058
Mof_C 	C 	0.1075	0.9181	0.8903	-0.02
Mof_H 	H 	0.1223	0.9376	0.0188	0.027
Mof_C 	C 	0.0568	0.9241	0.8279	-0.029
Mof_H 	H 	0.0372	0.9476	0.916	0.034
Mof_C 	C 	0.0356	0.8952	0.6348	-0.091
Mof_H 	H 	0.0017	0.8998	0.5934	0.06
Mof_C 	C 	0.0637	0.8592	0.5001	0.047
Mof_C 	C 	0.0414	0.8299	0.3095	-0.135
Mof_H 	H 	0.0074	0.8334	0.2696	0.077
Mof_C 	C 	0.0712	0.7954	0.1812	0.078
Mof_C 	C 	0.0129	0.7458	0.8832	0.174
Mof_C 	C 	0.9218	0.7163	0.6703	-0.143
Mof_C 	C 	0.0102	0.7274	0.6342	0.104
Mof_H 	H 	0.0398	0.725	0.5381	-0
Mof_C 	C 	0.9655	0.7126	0.5237	-0.159
Mof_H 	H 	0.9645	0.7004	0.3556	0.101
Mof_C 	C 	0.9221	0.7346	0.9199	-0.162
Mof_H 	H 	0.8924	0.7372	0.0148	0.11
Mof_C 	C 	0.968	0.7491	0.0239	0.109
Mof_H 	H 	0.969	0.7613	0.1919	-0.007
Mof_C 	C 	0.8715	0.7042	0.545	0.454
Mof_O 	O 	0.8721	0.6554	0.45	-0.188
Mof_C 	C 	0.0061	0.696	0.8182	-0.316
Mof_H 	H 	0.0319	0.6729	0.8458	0.149
Mof_C 	C 	0.9601	0.6798	0.71	0.225
Mof_H 	H 	0.955	0.6461	0.666	-0.031
Mof_C 	C 	0.9268	0.7676	0.736	0.213
Mof_H 	H 	0.9012	0.7912	0.7118	-0.046
Mof_C 	C 	0.9741	0.78	0.841	-0.308
Mof_H 	H 	0.9798	0.8135	0.8848	0.135
Mof_Zn	Zn	0.71431	0.22828	0.57783	1.228
Mof_O 	O 	0.7547	0.2784	0.4098	-0.806
Mof_H 	H 	0.7657	0.2992	0.5217	0.305
Mof_N 	N 	0.6422	0.251	0.585	-0.275
Mof_C 	C 	0.6045	0.2364	0.4406	0.111
Mof_H 	H 	0.6077	0.2115	0.3152	-0.02
Mof_N 	N 	0.5602	0.2606	0.4886	-0.171
Mof_C 	C 	0.6218	0.28881	0.7439	0.036
Mof_O 	O 	0.3337	0.2235	0.1296	-0.535
Mof_C 	C 	0.6442	0.3177	0.9341	-0.114
Mof_H 	H 	0.6781	0.3134	0.9757	0.039
Mof_O 	O 	0.3716	0.1923	0.808	-0.272
Mof_C 	C 	0.615	0.3533	0.0617	0.022
Mof_C 	C 	0.6356	0.3824	0.2568	-0.072
Mof_H 	H 	0.6694	0.3778	0.3	0.05
Mof_C 	C 	0.6075	0.4181	0.3903	-0.041
Mof_H 	H 	0.6223	0.4376	0.5188	0.039
Mof_C 	C 	0.5568	0.4241	0.3279	-0.014
Mof_H 	H 	0.5372	0.4476	0.416	0.03
Mof_C 	C 	0.5356	0.3952	0.1348	-0.1
Mof_H 	H 	0.5017	0.3998	0.0934	0.064
Mof_C 	C 	0.5637	0.3592	0.0001	0.054
Mof_C 	C 	0.5414	0.3299	0.8095	-0.138
Mof_H 	H 	0.5074	0.3334	0.7696	0.078
Mof_C 	C 	0.5712	0.2954	0.6812	0.082
Mof_C 	C 	0.5129	0.2458	0.3832	0.187
Mof_C 	C 	0.4218	0.2163	0.1703	-0.177
Mof_C 	C 	0.5102	0.2274	0.1342	-0.168
Mof_H 	H 	0.5398	0.225	0.0381	0.091
Mof_C 	C 	0.4655	0.2126	0.0237	0.088
Mof_H 	H 	0.4645	0.2004	0.8556	0.015
Mof_C 	C 	0.4221	0.2346	0.4199	0.141
Mof_H 	H 	0.3924	0.2372	0.5148	0
Mof_C 	C 	0.468	0.2491	0.5239	-0.196
Mof_H 	H 	0.469	0.2613	0.6919	0.1
Mof_C 	C 	0.3715	0.2042	0.045	0.474
Mof_O 	O 	0.3721	0.1554	0.95	-0.196
Mof_C 	C 	0.5061	0.196	0.3182	-0.066
Mof_H 	H 	0.5319	0.1729	0.3458	0.062
Mof_C 	C 	0.4601	0.1798	0.21	0.01
Mof_H 	H 	0.455	0.1461	0.166	0.044
Mof_C 	C 	0.4268	0.2676	0.236	-0.049
Mof_H 	H 	0.4012	0.2912	0.2118	0.048
Mof_C 	C 	0.4741	0.28	0.341	-0.028
Mof_H 	H 	0.4798	0.3135	0.3848	0.038
Mof_Zn	Zn	0.78569	0.27172	0.07783	1.226
Mof_O 	O 	0.7453	0.2216	0.9098	-0.79
Mof_H 	H 	0.7343	0.2008	0.0217	0.29
Mof_N 	N 	0.8578	0.249	0.085	-0.28
Mof_C 	C 	0.8955	0.2636	0.9406	0.118
Mof_H 	H 	0.8923	0.2885	0.8152	-0.02
Mof_N 	N 	0.9398	0.2394	0.9886	-0.167
Mof_C 	C 	0.8782	0.21119	0.2439	0.042
Mof_O 	O 	0.1663	0.2765	0.6296	-0.533
Mof_C 	C 	0.8558	0.1823	0.4341	-0.129
Mof_H 	H 	0.8219	0.1866	0.4757	0.042
Mof_O 	O 	0.1284	0.3077	0.308	-0.271
Mof_C 	C 	0.885	0.1467	0.5617	0.042
Mof_C 	C 	0.8644	0.1176	0.7568	-0.088
Mof_H 	H 	0.8306	0.1222	0.8	0.058
Mof_C 	C 	0.8925	0.0819	0.8903	-0.02
Mof_H 	H 	0.8777	0.0624	0.0188	0.027
Mof_C 	C 	0.9432	0.0759	0.8279	-0.029
Mof_H 	H 	0.9628	0.0524	0.916	0.034
Mof_C 	C 	0.9644	0.1048	0.6348	-0.091
Mof_H 	H 	0.9983	0.1002	0.5934	0.06
Mof_C 	C 	0.9363	0.1408	0.5001	0.047
Mof_C 	C 	0.9586	0.1701	0.3095	-0.135
Mof_H 	H 	0.9926	0.1666	0.2696	0.077
Mof_C 	C 	0.9288	0.2046	0.1812	0.078
Mof_C 	C 	0.9871	0.2542	0.8832	0.174
Mof_C 	C 	0.0782	0.2837	0.6703	-0.143
Mof_C 	C 	0.9898	0.2726	0.6342	0.104
Mof_H 	H 	0.9602	0.275	0.5381	-0
Mof_C 	C 	0.0345	0.2874	0.5237	-0.159
Mof_H 	H 	0.0355	0.2996	0.3556	0.101
Mof_C 	C 	0.0779	0.2654	0.9199	-0.162
Mof_H 	H 	0.1076	0.2628	0.0148	0.11
Mof_C 	C 	0.032	0.2509	0.0239	0.109
Mof_H 	H 	0.031	0.2387	0.1919	-0.007
Mof_C 	C 	0.1285	0.2958	0.545	0.454
Mof_O 	O 	0.1279	0.3446	0.45	-0.188
Mof_C 	C 	0.9939	0.304	0.8182	-0.316
Mof_H 	H 	0.9681	0.3271	0.8458	0.149
Mof_C 	C 	0.0399	0.3202	0.71	0.225
Mof_H 	H 	0.045	0.3539	0.666	-0.031
Mof_C 	C 	0.0732	0.2324	0.736	0.213
Mof_H 	H 	0.0988	0.2088	0.7118	-0.046
Mof_C 	C 	0.0259	0.22	0.841	-0.308
Mof_H 	H 	0.0202	0.1865	0.8848	0.135
Mof_Zn	Zn	0.28569	0.77172	0.57783	1.228
Mof_O 	O 	0.2453	0.7216	0.4098	-0.806
Mof_H 	H 	0.2343	0.7008	0.5217	0.305
Mof_N 	N 	0.3578	0.749	0.585	-0.275
Mof_C 	C 	0.3955	0.7636	0.4406	0.111
Mof_H 	H 	0.3923	0.7885	0.3152	-0.02
Mof_N 	N 	0.4398	0.7394	0.4886	-0.171
Mof_C 	C 	0.3782	0.71119	0.7439	0.036
Mof_O 	O 	0.6663	0.7765	0.1296	-0.535
Mof_C 	C 	0.3558	0.6823	0.9341	-0.114
Mof_H 	H 	0.3219	0.6866	0.9757	0.039
Mof_O 	O 	0.6284	0.8077	0.808	-0.272
Mof_C 	C 	0.385	0.6467	0.0617	0.022
Mof_C 	C 	0.3644	0.6176	0.2568	-0.072
Mof_H 	H 	0.3306	0.6222	0.3	0.05
Mof_C 	C 	0.3925	0.5819	0.3903	-0.041
Mof_H 	H 	0.3777	0.5624	0.5188	0.039
Mof_C 	C 	0.4432	0.5759	0.3279	-0.014
Mof_H 	H 	0.4628	0.5524	0.416	0.03
Mof_C 	C 	0.4644	0.6048	0.1348	-0.1
Mof_H 	H 	0.4983	0.6002	0.0934	0.064
Mof_C 	C 	0.4363	0.6408	0.0001	0.054
Mof_C 	C 	0.4586	0.6701	0.8095	-0.138
Mof_H 	H 	0.4926	0.6666	0.7696	0.078
Mof_C 	C 	0.4288	0.7046	0.6812	0.082
Mof_C 	C 	0.4871	0.7542	0.3832	0.187
Mof_C 	C 	0.5782	0.7837	0.1703	-0.177
Mof_C 	C 	0.4898	0.7726	0.1342	-0.168
Mof_H 	H 	0.4602	0.775	0.0381	0.091
Mof_C 	C 	0.5345	0.7874	0.0237	0.088
Mof_H 	H 	0.5355	0.7996	0.8556	0.015
Mof_C 	C 	0.5779	0.7654	0.4199	0.141
Mof_H 	H 	0.6076	0.7628	0.5148	0
Mof_C 	C 	0.532	0.7509	0.5239	-0.196
Mof_H 	H 	0.531	0.7387	0.6919	0.1
Mof_C 	C 	0.6285	0.7958	0.045	0.474
Mof_O 	O 	0.6279	0.8446	0.95	-0.196
Mof_C 	C 	0.4939	0.804	0.3182	-0.066
Mof_H 	H 	0.4681	0.8271	0.3458	0.062
Mof_C 	C 	0.5399	0.8202	0.21	0.01
Mof_H 	H 	0.545	0.8539	0.166	0.044
Mof_C 	C 	0.5732	0.7324	0.236	-0.049
Mof_H 	H 	0.5988	0.7088	0.2118	0.048
Mof_C 	C 	0.5259	0.72	0.341	-0.028
Mof_H 	H 	0.5202	0.6865	0.3848	0.038
_end
