data_functionalizedCrystal
_audit_creation_method	'EQeq! by Chris Wilmer'
_symmetry_space_group_name_H-M	'P1'
_symmetry_Int_Tables_number	1
_symmetry_cell_setting	triclinic
loop_
_symmetry_equiv_pos_as_xyz
  x,y,z
_cell_length_a	12.371
_cell_length_b	12.371
_cell_length_c	24.0689
_cell_angle_alpha	90
_cell_angle_beta	90
_cell_angle_gamma	90
loop_
_atom_site_label
_atom_site_type_symbol
_atom_site_fract_x
_atom_site_fract_y
_atom_site_fract_z
_atom_site_charge
Mof_Cu	Cu	0.8926	0.5	-0	0.883
Mof_Cu	Cu	0.1074	0.5	-0	0.871
Mof_Cu	Cu	0.5	0.8926	0.5	0.906
Mof_Cu	Cu	0.5	0.1074	0.5	0.895
Mof_Si	Si	5.4711e-33	0	0.75	0.75
Mof_Si	Si	-1.60283e-33	0	0.25	0.739
Mof_H 	H 	0.8374	0.87	0.8049	-0.007
Mof_H 	H 	0.8406	0.7335	0.8727	0.077
Mof_H 	H 	0.1626	0.13	0.8049	-0.026
Mof_H 	H 	0.1594	0.2665	0.8727	0.084
Mof_H 	H 	0.13	0.8374	0.3049	-0.032
Mof_H 	H 	0.2665	0.8406	0.3727	0.07
Mof_H 	H 	0.87	0.1626	0.3049	-0.001
Mof_H 	H 	0.7335	0.1594	0.3727	0.075
Mof_H 	H 	0.1626	0.87	0.1951	-0.002
Mof_H 	H 	0.1594	0.7335	0.1273	0.069
Mof_H 	H 	0.8374	0.13	0.1951	-0.033
Mof_H 	H 	0.8406	0.2665	0.1273	0.064
Mof_H 	H 	0.87	0.8374	0.6951	-0.008
Mof_H 	H 	0.7335	0.8406	0.6273	0.07
Mof_H 	H 	0.13	0.1626	0.6951	-0.026
Mof_H 	H 	0.2665	0.1594	0.6273	0.077
Mof_H 	H 	0.1626	0.13	0.1951	-0.027
Mof_H 	H 	0.1594	0.2665	0.1273	0.07
Mof_H 	H 	0.8374	0.87	0.1951	-0.008
Mof_H 	H 	0.8406	0.7335	0.1273	0.063
Mof_H 	H 	0.87	0.1626	0.6951	-0.002
Mof_H 	H 	0.7335	0.1594	0.6273	0.076
Mof_H 	H 	0.13	0.8374	0.6951	-0.032
Mof_H 	H 	0.2665	0.8406	0.6273	0.071
Mof_H 	H 	0.8374	0.13	0.8049	-0.032
Mof_H 	H 	0.8406	0.2665	0.8727	0.078
Mof_H 	H 	0.1626	0.87	0.8049	-0.001
Mof_H 	H 	0.1594	0.7335	0.8727	0.083
Mof_H 	H 	0.13	0.1626	0.3049	-0.026
Mof_H 	H 	0.2665	0.1594	0.3727	0.076
Mof_H 	H 	0.87	0.8374	0.3049	-0.007
Mof_H 	H 	0.7335	0.8406	0.3727	0.069
Mof_C 	C 	0.9044	0.8432	0.8183	0.138
Mof_C 	C 	0.9068	0.7629	0.8595	-0.051
Mof_C 	C 	0.0956	0.1568	0.8183	0.122
Mof_C 	C 	0.0932	0.2371	0.8595	-0.115
Mof_C 	C 	0.1568	0.9044	0.3183	0.153
Mof_C 	C 	0.2371	0.9068	0.3595	-0.066
Mof_C 	C 	0.8432	0.0956	0.3183	0.092
Mof_C 	C 	0.7629	0.0932	0.3595	-0.086
Mof_C 	C 	0.0956	0.8432	0.1817	0.088
Mof_C 	C 	0.0932	0.7629	0.1405	-0.083
Mof_C 	C 	0.9044	0.1568	0.1817	0.148
Mof_C 	C 	0.9068	0.2371	0.1405	-0.064
Mof_C 	C 	0.8432	0.9044	0.6817	0.132
Mof_C 	C 	0.7629	0.9068	0.6405	-0.046
Mof_C 	C 	0.1568	0.0956	0.6817	0.116
Mof_C 	C 	0.2371	0.0932	0.6405	-0.111
Mof_C 	C 	0.0956	0.1568	0.1817	0.108
Mof_C 	C 	0.0932	0.2371	0.1405	-0.107
Mof_C 	C 	0.9044	0.8432	0.1817	0.124
Mof_C 	C 	0.9068	0.7629	0.1405	-0.042
Mof_C 	C 	0.8432	0.0956	0.6817	0.096
Mof_C 	C 	0.7629	0.0932	0.6405	-0.087
Mof_C 	C 	0.1568	0.9044	0.6817	0.157
Mof_C 	C 	0.2371	0.9068	0.6405	-0.067
Mof_C 	C 	0.9044	0.1568	0.8183	0.163
Mof_C 	C 	0.9068	0.2371	0.8595	-0.072
Mof_C 	C 	0.0956	0.8432	0.8183	0.102
Mof_C 	C 	0.0932	0.7629	0.8595	-0.092
Mof_C 	C 	0.1568	0.0956	0.3183	0.112
Mof_C 	C 	0.2371	0.0932	0.3595	-0.109
Mof_C 	C 	0.8432	0.9044	0.3183	0.129
Mof_C 	C 	0.7629	0.9068	0.3595	-0.045
Mof_C 	C 	-2.15932e-32	0.8826	0.7977	-0.298
Mof_C 	C 	6.4238e-33	0.7268	0.8806	-0.034
Mof_C 	C 	-3.43575e-32	0.6419	0.9268	0.29
Mof_C 	C 	-7.88706e-33	0.1174	0.7977	-0.351
Mof_C 	C 	6.4238e-33	0.2732	0.8806	-0.027
Mof_C 	C 	6.76082e-33	0.3581	0.9268	0.283
Mof_C 	C 	0.1174	0	0.2977	-0.346
Mof_C 	C 	0.2732	6.85306e-33	0.3806	-0.04
Mof_C 	C 	0.3581	-6.85306e-33	0.4268	0.288
Mof_C 	C 	0.8826	0	0.2977	-0.293
Mof_C 	C 	0.7268	6.85306e-33	0.3806	-0.048
Mof_C 	C 	0.6419	-6.85306e-33	0.4268	0.296
Mof_C 	C 	4.90227e-33	0.8826	0.2023	-0.291
Mof_C 	C 	8.70999e-34	0.7268	0.1194	-0.056
Mof_C 	C 	-4.60582e-33	0.6419	0.0732	0.298
Mof_C 	C 	-1.95079e-33	0.1174	0.2023	-0.344
Mof_C 	C 	8.70999e-34	0.2732	0.1194	-0.048
Mof_C 	C 	2.24724e-33	0.3581	0.0732	0.29
Mof_C 	C 	0.8826	-1.37061e-32	0.7023	-0.296
Mof_C 	C 	0.7268	0	0.6194	-0.046
Mof_C 	C 	0.6419	0	0.5732	0.296
Mof_C 	C 	0.1174	-1.37061e-32	0.7023	-0.349
Mof_C 	C 	0.2732	0	0.6194	-0.038
Mof_C 	C 	0.3581	0	0.5732	0.288
Mof_O 	O 	0.9092	0.6122	0.94317	-0.34
Mof_O 	O 	0.0908	0.3878	0.94317	-0.376
Mof_O 	O 	0.3878	0.9092	0.44317	-0.369
Mof_O 	O 	0.6122	0.0908	0.44317	-0.401
Mof_O 	O 	0.0908	0.6122	0.05683	-0.415
Mof_O 	O 	0.9092	0.3878	0.05683	-0.383
Mof_O 	O 	0.6122	0.9092	0.55683	-0.367
Mof_O 	O 	0.3878	0.0908	0.55683	-0.403
Mof_O 	O 	0.0908	0.3878	0.05683	-0.417
Mof_O 	O 	0.9092	0.6122	0.05683	-0.382
Mof_O 	O 	0.6122	0.0908	0.55683	-0.4
Mof_O 	O 	0.3878	0.9092	0.55683	-0.368
Mof_O 	O 	0.9092	0.3878	0.94317	-0.342
Mof_O 	O 	0.0908	0.6122	0.94317	-0.374
Mof_O 	O 	0.3878	0.0908	0.44317	-0.403
Mof_O 	O 	0.6122	0.9092	0.44317	-0.367
_end
