data_functionalizedCrystal
_audit_creation_method	'EQeq! by Chris Wilmer'
_symmetry_space_group_name_H-M	'P1'
_symmetry_Int_Tables_number	1
_symmetry_cell_setting	triclinic
loop_
_symmetry_equiv_pos_as_xyz
  x,y,z
_cell_length_a	25.502
_cell_length_b	25.502
_cell_length_c	50.469
_cell_angle_alpha	90
_cell_angle_beta	90
_cell_angle_gamma	90
loop_
_atom_site_label
_atom_site_type_symbol
_atom_site_fract_x
_atom_site_fract_y
_atom_site_fract_z
_atom_site_charge
Mof_O 	O 	0.0437	0.0391	0.12815	-0.998
Mof_Zn	Zn	0.00534	0.99588	0.10254	1.213
Mof_Zn	Zn	0.09023	0.50034	0.08396	1.235
Mof_Zn	Zn	0.58904	0.92384	0.11431	1.211
Mof_Zn	Zn	0.99774	0.57689	0.09562	1.209
Mof_Zn	Zn	0.07732	0.99186	0.15241	1.171
Mof_Zn	Zn	0.0981	0.07209	0.10779	1.208
Mof_Zn	Zn	0.00916	0.48154	0.13226	1.217
Mof_Zn	Zn	0.99316	0.0885	0.14271	1.232
Mof_O 	O 	0.9271	0.1333	0.1466	-0.435
Mof_C 	C 	0.9215	0.1726	0.1613	0.254
Mof_H 	H 	0.9515	0.1899	0.1681	0.024
Mof_N 	N 	0.8732	0.1904	0.1674	0
Mof_C 	C 	0.8286	0.1681	0.1545	0.52
Mof_H 	H 	0.7971	0.1876	0.1596	-0.018
Mof_H 	H 	0.8248	0.1314	0.1598	-0.154
Mof_H 	H 	0.8333	0.17	0.1353	-0.122
Mof_C 	C 	0.8601	0.2318	0.1837	0.501
Mof_H 	H 	0.8222	0.2379	0.1828	-0.181
Mof_H 	H 	0.8787	0.2634	0.1779	-0.15
Mof_H 	H 	0.8701	0.2234	0.202	0.497
Mof_C 	C 	0.0524	0.3962	0.0992	0.381
Mof_O 	O 	0.0166	0.4163	0.1138	-0.503
Mof_O 	O 	0.0813	0.4217	0.08408	-0.454
Mof_C 	C 	0.0648	0.1729	0.1176	0.437
Mof_O 	O 	0.0323	0.1545	0.1324	-0.531
Mof_O 	O 	0.1003	0.1468	0.107	-0.528
Mof_C 	C 	0.0579	0.3383	0.1017	-0.11
Mof_C 	C 	0.0129	0.3086	0.1063	-0.019
Mof_H 	H 	0.9795	0.3249	0.1054	0.045
Mof_C 	C 	0.0161	0.2562	0.1121	-0.001
Mof_H 	H 	0.9852	0.2373	0.1164	0.035
Mof_C 	C 	0.0645	0.2302	0.1116	-0.137
Mof_C 	C 	0.1104	0.2585	0.1066	0.056
Mof_C 	C 	0.1058	0.3122	0.0999	0.04
Mof_C 	C 	0.167	0.2394	0.10759	-0.104
Mof_H 	H 	0.1697	0.2013	0.112	0.072
Mof_C 	C 	0.1591	0.3378	0.09576	-0.095
Mof_H 	H 	0.1564	0.3758	0.091	0.077
Mof_C 	C 	0.1955	0.2746	0.1279	0.029
Mof_C 	C 	0.1913	0.3287	0.1206	0.024
Mof_C 	C 	0.2164	0.3683	0.1351	-0.078
Mof_H 	H 	0.2149	0.4043	0.1303	0.062
Mof_C 	C 	0.2446	0.349	0.1578	-0.036
Mof_H 	H 	0.2637	0.3734	0.1682	0.044
Mof_C 	C 	0.2454	0.3004	0.1646	-0.027
Mof_H 	H 	0.2632	0.2906	0.1804	0.03
Mof_C 	C 	0.2207	0.2617	0.1495	-0.088
Mof_H 	H 	0.2223	0.226	0.1548	0.047
Mof_C 	C 	0.1898	0.2521	0.0808	0.036
Mof_C 	C 	0.1846	0.306	0.0745	0.024
Mof_C 	C 	0.2028	0.3233	0.0499	-0.069
Mof_H 	H 	0.1994	0.359	0.0448	0.051
Mof_C 	C 	0.2267	0.286	0.0326	-0.041
Mof_H 	H 	0.2393	0.2968	0.0158	0.038
Mof_C 	C 	0.2313	0.2356	0.0401	-0.015
Mof_H 	H 	0.2466	0.2111	0.0282	0.034
Mof_C 	C 	0.2145	0.2188	0.0643	-0.087
Mof_H 	H 	0.2202	0.1835	0.0695	0.057
Mof_C 	C 	0.683	0.9756	0.1292	0.358
Mof_O 	O 	0.6605	0.0031	0.1468	-0.46
Mof_O 	O 	0.6642	0.9365	0.11713	-0.489
Mof_C 	C 	0.9055	0.014	0.118	0.458
Mof_O 	O 	0.9278	0.0389	0.1337	-0.523
Mof_O 	O 	0.9295	0.9869	0.1008	-0.498
Mof_C 	C 	0.7392	0.9877	0.12446	-0.102
Mof_C 	C 	0.771	0.0027	0.1456	-0.021
Mof_H 	H 	0.7552	0.0067	0.1625	0.046
Mof_C 	C 	0.822	0.0118	0.1434	0.008
Mof_H 	H 	0.8418	0.0206	0.1587	0.043
Mof_C 	C 	0.847	0.0086	0.1185	-0.138
Mof_C 	C 	0.8162	0.996	0.0964	0.056
Mof_C 	C 	0.7625	0.9838	0.09986	0.036
Mof_C 	C 	0.834	0.9919	0.06742	-0.106
Mof_H 	H 	0.8724	0.9984	0.0651	0.074
Mof_C 	C 	0.7354	0.9739	0.07295	-0.09
Mof_H 	H 	0.6971	0.9668	0.0751	0.067
Mof_C 	C 	0.7991	0.0318	0.0519	0.032
Mof_C 	C 	0.745	0.0197	0.0552	0.022
Mof_C 	C 	0.7058	0.0509	0.0435	-0.075
Mof_H 	H 	0.6694	0.0454	0.0464	0.049
Mof_C 	C 	0.7254	0.0913	0.0267	-0.032
Mof_H 	H 	0.7008	0.1134	0.0181	0.03
Mof_C 	C 	0.7749	0.0997	0.0225	-0.025
Mof_H 	H 	0.7855	0.1263	0.0105	0.033
Mof_C 	C 	0.8125	0.0696	0.0357	-0.085
Mof_H 	H 	0.8486	0.0768	0.0329	0.056
Mof_C 	C 	0.8177	0.9381	0.05844	0.041
Mof_C 	C 	0.7633	0.9285	0.0612	0.024
Mof_C 	C 	0.7433	0.8795	0.0541	-0.065
Mof_H 	H 	0.7079	0.8705	0.0578	0.058
Mof_C 	C 	0.7782	0.8423	0.0408	-0.041
Mof_H 	H 	0.7656	0.8098	0.0343	0.043
Mof_C 	C 	0.8279	0.8557	0.0381	-0.014
Mof_H 	H 	0.8507	0.8315	0.0297	0.037
Mof_C 	C 	0.8491	0.9028	0.0469	-0.086
Mof_H 	H 	0.8854	0.9098	0.0447	0.06
Mof_C 	C 	0.0028	0.5411	0.04489	0.391
Mof_O 	O 	0.9838	0.5796	0.05738	-0.48
Mof_O 	O 	0.0233	0.5052	0.0571	-0.468
Mof_C 	C 	0.969	0.5445	0.93211	0.444
Mof_O 	O 	0.9424	0.5804	0.92374	-0.512
Mof_O 	O 	0.9952	0.5134	0.9188	-0.545
Mof_C 	C 	0.9928	0.5367	0.01597	-0.117
Mof_C 	C 	0.9748	0.5829	0.00311	-0.023
Mof_H 	H 	0.9665	0.6132	0.0132	0.048
Mof_C 	C 	0.9697	0.5833	0.97674	0.008
Mof_H 	H 	0.9633	0.6158	0.9681	0.036
Mof_C 	C 	0.9732	0.5387	0.96162	-0.133
Mof_C 	C 	0.9901	0.4921	0.97357	0.052
Mof_C 	C 	0.9993	0.4918	0.00119	0.051
Mof_C 	C 	0.9976	0.438	0.9611	-0.096
Mof_H 	H 	0.9908	0.438	0.9416	0.075
Mof_C 	C 	0.0156	0.4372	0.0106	-0.109
Mof_H 	H 	0.0222	0.4367	0.0301	0.088
Mof_C 	C 	0.9616	0.3997	0.9764	0.024
Mof_C 	C 	0.973	0.3995	0.0031	0.037
Mof_C 	C 	0.9492	0.3634	0.0202	-0.083
Mof_H 	H 	0.957	0.3608	0.0386	0.061
Mof_C 	C 	0.9118	0.3308	0.0069	-0.02
Mof_H 	H 	0.8978	0.3023	0.0167	0.034
Mof_C 	C 	0.8954	0.3365	0.983	-0.033
Mof_H 	H 	0.8635	0.3219	0.9767	0.037
Mof_C 	C 	0.928	0.3653	0.9677	-0.072
Mof_H 	H 	0.9262	0.36	0.9491	0.055
Mof_C 	C 	0.0526	0.4234	0.9678	0.028
Mof_C 	C 	0.0623	0.422	0.9957	0.037
Mof_C 	C 	0.1111	0.4074	0.0048	-0.083
Mof_H 	H 	0.1183	0.4046	0.0232	0.071
Mof_C 	C 	0.1501	0.3967	0.9856	-0.028
Mof_H 	H 	0.1856	0.3933	0.991	0.038
Mof_C 	C 	0.138	0.3912	0.9598	-0.031
Mof_H 	H 	0.1627	0.3763	0.9479	0.042
Mof_C 	C 	0.0897	0.4072	0.9508	-0.08
Mof_H 	H 	0.0825	0.4067	0.9323	0.058
Mof_C 	C 	0.0341	0.6712	0.1216	0.394
Mof_O 	O 	0.0696	0.6491	0.135	-0.516
Mof_O 	O 	0.0026	0.6493	0.106	-0.519
Mof_C 	C 	0.0425	0.8981	0.1258	0.371
Mof_O 	O 	0.0595	0.9174	0.14622	-0.365
Mof_O 	O 	0.0341	0.9228	0.10462	-0.476
Mof_C 	C 	0.03	0.73	0.1228	-0.116
Mof_C 	C 	0.0679	0.7565	0.1381	0.004
Mof_H 	H 	0.0923	0.7359	0.1478	0.046
Mof_C 	C 	0.0716	0.8087	0.1398	-0.021
Mof_H 	H 	0.0975	0.8247	0.1507	0.063
Mof_C 	C 	0.0357	0.8394	0.125	-0.072
Mof_C 	C 	0.9969	0.8162	0.1095	0.032
Mof_C 	C 	0.9941	0.7603	0.1095	0.061
Mof_C 	C 	0.9567	0.8424	0.0917	-0.084
Mof_H 	H 	0.9619	0.8812	0.0904	0.068
Mof_C 	C 	0.9457	0.7432	0.0941	-0.106
Mof_H 	H 	0.9409	0.7043	0.095	0.08
Mof_C 	C 	0.9017	0.8273	0.1031	0.03
Mof_C 	C 	0.8987	0.7714	0.1051	0.037
Mof_C 	C 	0.8544	0.7482	0.116	-0.083
Mof_H 	H 	0.8496	0.7113	0.117	0.062
Mof_C 	C 	0.8172	0.7848	0.1255	-0.016
Mof_H 	H 	0.7894	0.7713	0.1361	0.035
Mof_C 	C 	0.8172	0.8351	0.1213	-0.031
Mof_H 	H 	0.7871	0.8559	0.1248	0.045
Mof_C 	C 	0.8634	0.8576	0.1112	-0.07
Mof_H 	H 	0.8668	0.8946	0.1102	0.071
Mof_C 	C 	0.9624	0.8156	0.0654	0.027
Mof_C 	C 	0.9526	0.7609	0.0664	0.035
Mof_C 	C 	0.9568	0.7338	0.0428	-0.081
Mof_H 	H 	0.9529	0.6968	0.0426	0.06
Mof_C 	C 	0.9669	0.7616	0.0189	-0.027
Mof_H 	H 	0.9646	0.7439	0.0024	0.042
Mof_C 	C 	0.9796	0.8125	0.0195	-0.027
Mof_H 	H 	0.9946	0.8288	0.0044	0.04
Mof_C 	C 	0.971	0.8408	0.0419	-0.072
Mof_H 	H 	0.9711	0.878	0.0412	0.054
Mof_C 	C 	0.4072	0.9834	0.1317	0.397
Mof_O 	O 	0.4325	0.0182	0.11946	-0.483
Mof_O 	O 	0.4261	0.9444	0.14309	-0.502
Mof_C 	C 	0.1828	0.0152	0.1321	0.416
Mof_O 	O 	0.1681	0.0495	0.11671	-0.542
Mof_O 	O 	0.1527	0.9883	0.1464	-0.573
Mof_C 	C 	0.3491	0.9898	0.1329	-0.108
Mof_C 	C 	0.3233	0.0117	0.111	-0.018
Mof_H 	H 	0.3431	0.0221	0.096	0.043
Mof_C 	C 	0.2713	0.0182	0.111	0.002
Mof_H 	H 	0.2546	0.0317	0.0956	0.039
Mof_C 	C 	0.2411	0.0054	0.1332	-0.13
Mof_C 	C 	0.2642	0.9825	0.15545	0.048
Mof_C 	C 	0.3196	0.9741	0.1546	0.051
Mof_C 	C 	0.2393	0.9631	0.1805	-0.091
Mof_H 	H 	0.2003	0.9666	0.1804	0.054
Mof_C 	C 	0.339	0.9522	0.1806	-0.105
Mof_H 	H 	0.3779	0.9477	0.1805	0.078
Mof_C 	C 	0.2653	0.994	0.2037	0.01
Mof_C 	C 	0.3217	0.989	0.2022	0.045
Mof_C 	C 	0.353	0.0155	0.2205	-0.092
Mof_H 	H 	0.3902	0.0138	0.2199	0.068
Mof_C 	C 	0.326	0.0452	0.24	-0.006
Mof_H 	H 	0.3459	0.0606	0.2539	0.037
Mof_C 	C 	0.2757	0.0524	0.2399	-0.051
Mof_H 	H 	0.2597	0.075	0.2525	0.044
Mof_C 	C 	0.245	0.026	0.2207	-0.054
Mof_H 	H 	0.2083	0.032	0.2203	0.017
Mof_C 	C 	0.2571	0.907	0.1836	0.039
Mof_C 	C 	0.312	0.9016	0.1845	0.034
Mof_C 	C 	0.3324	0.8524	0.1864	-0.068
Mof_H 	H 	0.3694	0.8481	0.1868	0.057
Mof_C 	C 	0.299	0.8065	0.1881	-0.04
Mof_H 	H 	0.3133	0.7722	0.1886	0.046
Mof_C 	C 	0.2466	0.8145	0.1889	-0.01
Mof_H 	H 	0.2236	0.7853	0.1902	0.036
Mof_C 	C 	0.2263	0.8646	0.188	-0.084
Mof_H 	H 	0.1897	0.8695	0.1904	0.076
Mof_C 	C 	0.0573	0.0395	0.0567	0.421
Mof_O 	O 	0.0181	0.0124	0.06578	-0.507
Mof_O 	O 	0.0926	0.0565	0.06963	-0.529
Mof_C 	C 	0.0519	0.0494	0.0284	-0.127
Mof_C 	C 	0.02	0.0153	0.0131	-0.012
Mof_H 	H 	0.0012	0.9882	0.0218	0.051
Mof_C 	C 	0.0856	0.0827	0.0134	0.048
Mof_C 	C 	0.125	0.1217	0.0255	-0.091
Mof_H 	H 	0.1262	0.1202	0.0453	0.075
Mof_C 	C 	0.1784	0.1078	0.01231	0.029
Mof_C 	C 	0.2218	0.091	0.0266	-0.074
Mof_H 	H 	0.2216	0.0887	0.0453	0.057
Mof_C 	C 	0.1061	0.1769	0.0146	0.027
Mof_C 	C 	0.0961	0.219	0.0297	-0.073
Mof_H 	H 	0.0978	0.2176	0.0485	0.063
Mof_C 	C 	0.2652	0.078	0.0117	-0.026
Mof_H 	H 	0.2956	0.0653	0.0205	0.042
Mof_C 	C 	0.0827	0.2663	0.0158	-0.03
Mof_H 	H 	0.0772	0.298	0.0252	0.046
Mof_O 	O 	0.0484	0.5323	0.11246	-0.961
Mof_O 	O 	0.0618	0.0083	0.1867	4.351
Mof_C 	C 	0.0118	0.0296	0.2227	0.669
Mof_C 	C 	0.0208	0.0366	0.194	1.421
Mof_O 	O 	0.9997	0.0705	0.1819	-1.334
Mof_C 	C 	0.009	0.967	0.2359	0.472
Mof_C 	C 	0.9377	0.101	0.229	-0.093
Mof_H 	H 	0.9429	0.1149	0.2106	0.055
Mof_C 	C 	0.8915	0.0613	0.2299	0.113
Mof_C 	C 	0.8496	0.074	0.2139	0.58
Mof_H 	H 	0.8534	0.0884	0.1967	-0.175
Mof_C 	C 	0.8011	0.062	0.2251	-0.787
Mof_C 	C 	0.953	0.0389	0.2341	0.265
Mof_C 	C 	0.96	0.1783	0.2345	1.097
Mof_H 	H 	0.968	0.1784	0.2162	-0.345
Mof_C 	C 	0.964	0.2243	0.249	-0.5
Mof_C 	C 	0.943	0.1327	0.2461	0.189
Mof_C 	C 	0.9231	0.0892	0.2259	-0.066
Mof_C 	C 	0.9858	0.0684	0.238	-0.343
Mof_H 	H 	0.9283	0.099	0.2069	0.04
Mof_O 	O 	0.952	0.1491	0.1618	-0.264
Mof_C 	C 	0.9064	0.1572	0.154	0.131
Mof_H 	H 	0.8927	0.1338	0.1411	0.142
Mof_N 	N 	0.8752	0.1956	0.1621	-0.232
Mof_C 	C 	0.899	0.234	0.1799	0.085
Mof_H 	H 	0.9358	0.224	0.1831	0.009
Mof_H 	H 	0.8801	0.2344	0.1967	-0.693
Mof_H 	H 	0.8979	0.2687	0.1717	0.089
Mof_C 	C 	0.827	0.2113	0.1538	-0.736
Mof_H 	H 	0.818	0.2447	0.1623	0.273
Mof_H 	H 	0.801	0.1847	0.1587	0.069
Mof_H 	H 	0.8273	0.2158	0.1345	0.249
Mof_O 	O 	0.1099	0.5192	0.0483	-0.332
Mof_C 	C 	0.1567	0.527	0.0437	-0.029
Mof_H 	H 	0.1808	0.523	0.0579	0.191
Mof_N 	N 	0.176	0.5407	0.0198	-0.33
Mof_C 	C 	0.1395	0.5499	0.9983	-0.234
Mof_H 	H 	0.1575	0.5684	0.9839	-0.081
Mof_H 	H 	0.1102	0.5714	0.0047	0.093
Mof_H 	H 	0.1261	0.5163	0.9918	0.257
Mof_C 	C 	0.2268	0.5454	0.0128	0.092
Mof_H 	H 	0.2293	0.5515	0.9937	-0.008
Mof_H 	H 	0.2455	0.5131	0.0174	-0.021
Mof_H 	H 	0.2424	0.575	0.0224	-0.02
Mof_O 	O 	0.1487	0.5061	0.0574	-0.437
Mof_C 	C 	0.1452	0.507	0.0329	0.485
Mof_H 	H 	0.1334	0.4756	0.0248	-0.118
Mof_N 	N 	0.1557	0.547	0.0162	0.202
Mof_C 	C 	0.149	0.538	0.9881	-0.128
Mof_H 	H 	0.1526	0.571	0.9785	0.19
Mof_H 	H 	0.1136	0.5235	0.9849	-0.127
Mof_H 	H 	0.1752	0.5128	0.9818	0.053
Mof_C 	C 	0.169	0.597	0.0219	-0.253
Mof_H 	H 	0.1736	0.6167	0.0054	0.094
Mof_H 	H 	0.2018	0.5975	0.032	0.105
Mof_H 	H 	0.1411	0.6133	0.0324	0.084
Mof_C 	C 	0.0104	0.0216	0.1941	-1.292
Mof_O 	O 	0.0505	0.9913	0.1878	-4.753
Mof_O 	O 	0.9846	0.0479	0.1794	0.783
Mof_H 	H 	0.0063	0.9314	0.2307	0.022
Mof_C 	C 	0.994	0.0115	0.2217	-0.488
Mof_C 	C 	0.0472	0.0047	0.2391	-0.421
Mof_C 	C 	0.8654	0.07	0.2323	-0.288
Mof_H 	H 	0.7813	0.0871	0.2154	0.151
Mof_C 	C 	0.8274	0.066	0.2145	-0.051
Mof_H 	H 	0.8328	0.0763	0.1966	0.004
Mof_C 	C 	0.9395	0.1474	0.2504	-0.19
Mof_C 	C 	0.9435	0.1968	0.242	-0.74
Mof_C 	C 	0.957	0.2382	0.261	0.56
Mof_H 	H 	0.9751	0.2559	0.2406	0.142
Mof_C 	C 	0.7764	0.047	0.2237	0.615
Mof_H 	H 	0.7275	0.0286	0.2376	-0.177
Mof_H 	H 	0.9376	0.2052	0.2239	0.1
Mof_H 	H 	0.747	0.0417	0.2124	-0.217
Mof_O 	O 	0.9563	0.9609	0.62815	-0.999
Mof_Zn	Zn	0.99466	0.00412	0.60254	1.211
Mof_Zn	Zn	0.90977	0.49966	0.58396	1.234
Mof_Zn	Zn	0.41096	0.07616	0.61431	1.21
Mof_Zn	Zn	0.00226	0.42311	0.59562	1.208
Mof_Zn	Zn	0.92268	0.00814	0.65241	1.17
Mof_Zn	Zn	0.9019	0.92791	0.60779	1.207
Mof_Zn	Zn	0.99084	0.51846	0.63226	1.216
Mof_Zn	Zn	0.00684	0.9115	0.64271	1.231
Mof_O 	O 	0.0729	0.8667	0.6466	-0.436
Mof_C 	C 	0.0785	0.8274	0.6613	0.253
Mof_H 	H 	0.0485	0.8101	0.6681	0.023
Mof_N 	N 	0.1268	0.8096	0.6674	-0.001
Mof_C 	C 	0.1714	0.8319	0.6545	0.519
Mof_H 	H 	0.2029	0.8124	0.6596	-0.018
Mof_H 	H 	0.1752	0.8686	0.6598	-0.154
Mof_H 	H 	0.1667	0.83	0.6353	-0.122
Mof_C 	C 	0.1399	0.7682	0.6837	0.501
Mof_H 	H 	0.1778	0.7621	0.6828	-0.181
Mof_H 	H 	0.1213	0.7366	0.6779	-0.15
Mof_H 	H 	0.1299	0.7766	0.702	0.497
Mof_C 	C 	0.9476	0.6038	0.5992	0.381
Mof_O 	O 	0.9834	0.5837	0.6138	-0.503
Mof_O 	O 	0.9187	0.5783	0.58408	-0.454
Mof_C 	C 	0.9352	0.8271	0.6176	0.437
Mof_O 	O 	0.9677	0.8455	0.6324	-0.531
Mof_O 	O 	0.8997	0.8532	0.607	-0.528
Mof_C 	C 	0.9421	0.6617	0.6017	-0.11
Mof_C 	C 	0.9871	0.6914	0.6063	-0.019
Mof_H 	H 	0.0205	0.6751	0.6054	0.045
Mof_C 	C 	0.9839	0.7438	0.6121	-0.001
Mof_H 	H 	0.0148	0.7627	0.6164	0.035
Mof_C 	C 	0.9355	0.7698	0.6116	-0.137
Mof_C 	C 	0.8896	0.7415	0.6066	0.056
Mof_C 	C 	0.8942	0.6878	0.5999	0.04
Mof_C 	C 	0.833	0.7606	0.60759	-0.104
Mof_H 	H 	0.8303	0.7987	0.612	0.072
Mof_C 	C 	0.8409	0.6622	0.59576	-0.095
Mof_H 	H 	0.8436	0.6242	0.591	0.077
Mof_C 	C 	0.8045	0.7254	0.6279	0.029
Mof_C 	C 	0.8087	0.6713	0.6206	0.024
Mof_C 	C 	0.7836	0.6317	0.6351	-0.078
Mof_H 	H 	0.7851	0.5957	0.6303	0.062
Mof_C 	C 	0.7554	0.651	0.6578	-0.036
Mof_H 	H 	0.7363	0.6266	0.6682	0.044
Mof_C 	C 	0.7546	0.6996	0.6646	-0.027
Mof_H 	H 	0.7368	0.7094	0.6804	0.03
Mof_C 	C 	0.7793	0.7383	0.6495	-0.088
Mof_H 	H 	0.7777	0.774	0.6548	0.047
Mof_C 	C 	0.8102	0.7479	0.5808	0.036
Mof_C 	C 	0.8154	0.694	0.5745	0.024
Mof_C 	C 	0.7972	0.6767	0.5499	-0.069
Mof_H 	H 	0.8006	0.641	0.5448	0.051
Mof_C 	C 	0.7733	0.714	0.5326	-0.041
Mof_H 	H 	0.7607	0.7032	0.5158	0.038
Mof_C 	C 	0.7687	0.7644	0.5401	-0.015
Mof_H 	H 	0.7534	0.7889	0.5282	0.034
Mof_C 	C 	0.7855	0.7812	0.5643	-0.087
Mof_H 	H 	0.7798	0.8165	0.5695	0.057
Mof_C 	C 	0.317	0.0244	0.6292	0.358
Mof_O 	O 	0.3395	0.9969	0.6468	-0.46
Mof_O 	O 	0.3358	0.0635	0.61713	-0.489
Mof_C 	C 	0.0945	0.986	0.618	0.458
Mof_O 	O 	0.0722	0.9611	0.6337	-0.523
Mof_O 	O 	0.0705	0.0131	0.6008	-0.498
Mof_C 	C 	0.2608	0.0123	0.62446	-0.102
Mof_C 	C 	0.229	0.9973	0.6456	-0.021
Mof_H 	H 	0.2448	0.9933	0.6625	0.046
Mof_C 	C 	0.178	0.9882	0.6434	0.008
Mof_H 	H 	0.1582	0.9794	0.6587	0.043
Mof_C 	C 	0.153	0.9914	0.6185	-0.138
Mof_C 	C 	0.1838	0.004	0.5964	0.056
Mof_C 	C 	0.2375	0.0162	0.59986	0.036
Mof_C 	C 	0.166	0.0081	0.56742	-0.106
Mof_H 	H 	0.1276	0.0016	0.5651	0.074
Mof_C 	C 	0.2646	0.0261	0.57295	-0.09
Mof_H 	H 	0.3029	0.0332	0.5751	0.067
Mof_C 	C 	0.2009	0.9682	0.5519	0.032
Mof_C 	C 	0.255	0.9803	0.5552	0.022
Mof_C 	C 	0.2942	0.9491	0.5435	-0.075
Mof_H 	H 	0.3306	0.9546	0.5464	0.049
Mof_C 	C 	0.2746	0.9087	0.5267	-0.032
Mof_H 	H 	0.2992	0.8866	0.5181	0.03
Mof_C 	C 	0.2251	0.9003	0.5225	-0.025
Mof_H 	H 	0.2145	0.8737	0.5105	0.033
Mof_C 	C 	0.1875	0.9304	0.5357	-0.085
Mof_H 	H 	0.1514	0.9232	0.5329	0.056
Mof_C 	C 	0.1823	0.0619	0.55844	0.041
Mof_C 	C 	0.2367	0.0715	0.5612	0.024
Mof_C 	C 	0.2567	0.1205	0.5541	-0.065
Mof_H 	H 	0.2921	0.1295	0.5578	0.058
Mof_C 	C 	0.2218	0.1577	0.5408	-0.041
Mof_H 	H 	0.2344	0.1902	0.5343	0.043
Mof_C 	C 	0.1721	0.1443	0.5381	-0.014
Mof_H 	H 	0.1493	0.1685	0.5297	0.037
Mof_C 	C 	0.1509	0.0972	0.5469	-0.086
Mof_H 	H 	0.1146	0.0902	0.5447	0.06
Mof_C 	C 	0.9972	0.4589	0.54489	0.391
Mof_O 	O 	0.0162	0.4204	0.55738	-0.48
Mof_O 	O 	0.9767	0.4948	0.5571	-0.468
Mof_C 	C 	0.031	0.4555	0.43211	0.444
Mof_O 	O 	0.0576	0.4196	0.42374	-0.512
Mof_O 	O 	0.0048	0.4866	0.4188	-0.545
Mof_C 	C 	0.0072	0.4633	0.51597	-0.117
Mof_C 	C 	0.0252	0.4171	0.50311	-0.023
Mof_H 	H 	0.0335	0.3868	0.5132	0.048
Mof_C 	C 	0.0303	0.4167	0.47674	0.008
Mof_H 	H 	0.0367	0.3842	0.4681	0.036
Mof_C 	C 	0.0268	0.4613	0.46162	-0.133
Mof_C 	C 	0.0099	0.5079	0.47357	0.052
Mof_C 	C 	0.0007	0.5082	0.50119	0.051
Mof_C 	C 	0.0024	0.562	0.4611	-0.096
Mof_H 	H 	0.0092	0.562	0.4416	0.075
Mof_C 	C 	0.9844	0.5628	0.5106	-0.109
Mof_H 	H 	0.9778	0.5633	0.5301	0.088
Mof_C 	C 	0.0384	0.6003	0.4764	0.024
Mof_C 	C 	0.027	0.6005	0.5031	0.037
Mof_C 	C 	0.0508	0.6366	0.5202	-0.083
Mof_H 	H 	0.043	0.6392	0.5386	0.061
Mof_C 	C 	0.0882	0.6692	0.5069	-0.02
Mof_H 	H 	0.1022	0.6977	0.5167	0.034
Mof_C 	C 	0.1046	0.6635	0.483	-0.034
Mof_H 	H 	0.1365	0.6781	0.4767	0.037
Mof_C 	C 	0.072	0.6347	0.4677	-0.072
Mof_H 	H 	0.0738	0.64	0.4491	0.055
Mof_C 	C 	0.9474	0.5766	0.4678	0.028
Mof_C 	C 	0.9377	0.578	0.4957	0.037
Mof_C 	C 	0.8889	0.5926	0.5048	-0.084
Mof_H 	H 	0.8817	0.5954	0.5232	0.071
Mof_C 	C 	0.8499	0.6033	0.4856	-0.027
Mof_H 	H 	0.8144	0.6067	0.491	0.038
Mof_C 	C 	0.862	0.6088	0.4598	-0.031
Mof_H 	H 	0.8373	0.6237	0.4479	0.042
Mof_C 	C 	0.9103	0.5928	0.4508	-0.08
Mof_H 	H 	0.9175	0.5933	0.4323	0.058
Mof_C 	C 	0.9659	0.3288	0.6216	0.394
Mof_O 	O 	0.9304	0.3509	0.635	-0.516
Mof_O 	O 	0.9974	0.3507	0.606	-0.519
Mof_C 	C 	0.9575	0.1019	0.6258	0.371
Mof_O 	O 	0.9405	0.0826	0.64622	-0.365
Mof_O 	O 	0.9659	0.0772	0.60462	-0.476
Mof_C 	C 	0.97	0.27	0.6228	-0.116
Mof_C 	C 	0.9321	0.2435	0.6381	0.004
Mof_H 	H 	0.9077	0.2641	0.6478	0.046
Mof_C 	C 	0.9284	0.1913	0.6398	-0.021
Mof_H 	H 	0.9025	0.1753	0.6507	0.063
Mof_C 	C 	0.9643	0.1606	0.625	-0.072
Mof_C 	C 	0.0031	0.1838	0.6095	0.032
Mof_C 	C 	0.0059	0.2397	0.6095	0.061
Mof_C 	C 	0.0433	0.1576	0.5917	-0.084
Mof_H 	H 	0.0381	0.1188	0.5904	0.068
Mof_C 	C 	0.0543	0.2568	0.5941	-0.106
Mof_H 	H 	0.0591	0.2957	0.595	0.08
Mof_C 	C 	0.0983	0.1727	0.6031	0.03
Mof_C 	C 	0.1013	0.2286	0.6051	0.037
Mof_C 	C 	0.1456	0.2518	0.616	-0.083
Mof_H 	H 	0.1504	0.2887	0.617	0.062
Mof_C 	C 	0.1828	0.2152	0.6255	-0.016
Mof_H 	H 	0.2106	0.2287	0.6361	0.035
Mof_C 	C 	0.1828	0.1649	0.6213	-0.031
Mof_H 	H 	0.2129	0.1441	0.6248	0.045
Mof_C 	C 	0.1366	0.1424	0.6112	-0.07
Mof_H 	H 	0.1332	0.1054	0.6102	0.071
Mof_C 	C 	0.0376	0.1844	0.5654	0.027
Mof_C 	C 	0.0474	0.2391	0.5664	0.035
Mof_C 	C 	0.0432	0.2662	0.5428	-0.081
Mof_H 	H 	0.0471	0.3032	0.5426	0.06
Mof_C 	C 	0.0331	0.2384	0.5189	-0.027
Mof_H 	H 	0.0354	0.2561	0.5024	0.042
Mof_C 	C 	0.0204	0.1875	0.5195	-0.027
Mof_H 	H 	0.0054	0.1712	0.5044	0.04
Mof_C 	C 	0.029	0.1592	0.5419	-0.072
Mof_H 	H 	0.0289	0.122	0.5412	0.054
Mof_C 	C 	0.5928	0.0166	0.6317	0.397
Mof_O 	O 	0.5675	0.9818	0.61946	-0.483
Mof_O 	O 	0.5739	0.0556	0.64309	-0.502
Mof_C 	C 	0.8172	0.9848	0.6321	0.416
Mof_O 	O 	0.8319	0.9505	0.61671	-0.542
Mof_O 	O 	0.8473	0.0117	0.6464	-0.573
Mof_C 	C 	0.6509	0.0102	0.6329	-0.108
Mof_C 	C 	0.6767	0.9883	0.611	-0.018
Mof_H 	H 	0.6569	0.9779	0.596	0.043
Mof_C 	C 	0.7287	0.9818	0.611	0.002
Mof_H 	H 	0.7454	0.9683	0.5956	0.039
Mof_C 	C 	0.7589	0.9946	0.6332	-0.13
Mof_C 	C 	0.7358	0.0175	0.65545	0.048
Mof_C 	C 	0.6804	0.0259	0.6546	0.051
Mof_C 	C 	0.7607	0.0369	0.6805	-0.091
Mof_H 	H 	0.7997	0.0334	0.6804	0.054
Mof_C 	C 	0.661	0.0478	0.6806	-0.105
Mof_H 	H 	0.6221	0.0523	0.6805	0.078
Mof_C 	C 	0.7347	0.006	0.7037	0.01
Mof_C 	C 	0.6783	0.011	0.7022	0.045
Mof_C 	C 	0.647	0.9845	0.7205	-0.092
Mof_H 	H 	0.6098	0.9862	0.7199	0.068
Mof_C 	C 	0.674	0.9548	0.74	-0.006
Mof_H 	H 	0.6541	0.9394	0.7539	0.037
Mof_C 	C 	0.7243	0.9476	0.7399	-0.051
Mof_H 	H 	0.7403	0.925	0.7525	0.044
Mof_C 	C 	0.755	0.974	0.7207	-0.054
Mof_H 	H 	0.7917	0.968	0.7203	0.017
Mof_C 	C 	0.7429	0.093	0.6836	0.039
Mof_C 	C 	0.688	0.0984	0.6845	0.034
Mof_C 	C 	0.6676	0.1476	0.6864	-0.068
Mof_H 	H 	0.6306	0.1519	0.6868	0.057
Mof_C 	C 	0.701	0.1935	0.6881	-0.04
Mof_H 	H 	0.6867	0.2278	0.6886	0.046
Mof_C 	C 	0.7534	0.1855	0.6889	-0.01
Mof_H 	H 	0.7764	0.2147	0.6902	0.036
Mof_C 	C 	0.7737	0.1354	0.688	-0.084
Mof_H 	H 	0.8103	0.1305	0.6904	0.076
Mof_C 	C 	0.9427	0.9605	0.5567	0.421
Mof_O 	O 	0.9819	0.9876	0.56578	-0.507
Mof_O 	O 	0.9074	0.9435	0.56963	-0.529
Mof_C 	C 	0.9481	0.9506	0.5284	-0.127
Mof_C 	C 	0.98	0.9847	0.5131	-0.012
Mof_H 	H 	0.9988	0.0118	0.5218	0.051
Mof_C 	C 	0.9144	0.9173	0.5134	0.048
Mof_C 	C 	0.875	0.8783	0.5255	-0.091
Mof_H 	H 	0.8738	0.8798	0.5453	0.075
Mof_C 	C 	0.8216	0.8922	0.51231	0.029
Mof_C 	C 	0.7782	0.909	0.5266	-0.074
Mof_H 	H 	0.7784	0.9113	0.5453	0.057
Mof_C 	C 	0.8939	0.8231	0.5146	0.027
Mof_C 	C 	0.9039	0.781	0.5297	-0.073
Mof_H 	H 	0.9022	0.7824	0.5485	0.063
Mof_C 	C 	0.7348	0.922	0.5117	-0.026
Mof_H 	H 	0.7044	0.9347	0.5205	0.042
Mof_C 	C 	0.9173	0.7337	0.5158	-0.03
Mof_H 	H 	0.9228	0.702	0.5252	0.046
Mof_O 	O 	0.9516	0.4677	0.61246	-0.961
Mof_O 	O 	0.9382	0.9917	0.6867	4.351
Mof_C 	C 	0.9882	0.9704	0.7227	0.669
Mof_C 	C 	0.9792	0.9634	0.694	1.421
Mof_O 	O 	0.0003	0.9295	0.6819	-1.334
Mof_C 	C 	0.991	0.033	0.7359	0.472
Mof_C 	C 	0.0623	0.899	0.729	-0.094
Mof_H 	H 	0.0571	0.8851	0.7106	0.055
Mof_C 	C 	0.1085	0.9387	0.7299	0.113
Mof_C 	C 	0.1504	0.926	0.7139	0.58
Mof_H 	H 	0.1466	0.9116	0.6967	-0.175
Mof_C 	C 	0.1989	0.938	0.7251	-0.787
Mof_C 	C 	0.047	0.9611	0.7341	0.265
Mof_C 	C 	0.04	0.8217	0.7345	1.097
Mof_H 	H 	0.032	0.8216	0.7162	-0.345
Mof_C 	C 	0.036	0.7757	0.749	-0.5
Mof_C 	C 	0.057	0.8673	0.7461	0.189
Mof_C 	C 	0.0769	0.9108	0.7259	-0.066
Mof_C 	C 	0.0142	0.9316	0.738	-0.343
Mof_H 	H 	0.0717	0.901	0.7069	0.04
Mof_O 	O 	0.048	0.8509	0.6618	-0.264
Mof_C 	C 	0.0936	0.8428	0.654	0.131
Mof_H 	H 	0.1073	0.8662	0.6411	0.142
Mof_N 	N 	0.1248	0.8044	0.6621	-0.232
Mof_C 	C 	0.101	0.766	0.6799	0.085
Mof_H 	H 	0.0642	0.776	0.6831	0.009
Mof_H 	H 	0.1199	0.7656	0.6967	-0.693
Mof_H 	H 	0.1021	0.7313	0.6717	0.089
Mof_C 	C 	0.173	0.7887	0.6538	-0.736
Mof_H 	H 	0.182	0.7553	0.6623	0.273
Mof_H 	H 	0.199	0.8153	0.6587	0.069
Mof_H 	H 	0.1727	0.7842	0.6345	0.249
Mof_O 	O 	0.8901	0.4808	0.5483	-0.332
Mof_C 	C 	0.8433	0.473	0.5437	-0.029
Mof_H 	H 	0.8192	0.477	0.5579	0.191
Mof_N 	N 	0.824	0.4593	0.5198	-0.329
Mof_C 	C 	0.8605	0.4501	0.4983	-0.234
Mof_H 	H 	0.8425	0.4316	0.4839	-0.081
Mof_H 	H 	0.8898	0.4286	0.5047	0.093
Mof_H 	H 	0.8739	0.4837	0.4918	0.257
Mof_C 	C 	0.7732	0.4546	0.5128	0.092
Mof_H 	H 	0.7707	0.4485	0.4937	-0.008
Mof_H 	H 	0.7545	0.4869	0.5174	-0.021
Mof_H 	H 	0.7576	0.425	0.5224	-0.02
Mof_O 	O 	0.8513	0.4939	0.5574	-0.437
Mof_C 	C 	0.8548	0.493	0.5329	0.485
Mof_H 	H 	0.8666	0.5244	0.5248	-0.118
Mof_N 	N 	0.8443	0.453	0.5162	0.202
Mof_C 	C 	0.851	0.462	0.4881	-0.128
Mof_H 	H 	0.8474	0.429	0.4785	0.19
Mof_H 	H 	0.8864	0.4765	0.4849	-0.127
Mof_H 	H 	0.8248	0.4872	0.4818	0.053
Mof_C 	C 	0.831	0.403	0.5219	-0.253
Mof_H 	H 	0.8264	0.3833	0.5054	0.094
Mof_H 	H 	0.7982	0.4025	0.532	0.105
Mof_H 	H 	0.8589	0.3867	0.5324	0.084
Mof_C 	C 	0.9896	0.9784	0.6941	-1.292
Mof_O 	O 	0.9495	0.0087	0.6878	-4.754
Mof_O 	O 	0.0154	0.9521	0.6794	0.783
Mof_H 	H 	0.9937	0.0686	0.7307	0.022
Mof_C 	C 	0.006	0.9885	0.7217	-0.488
Mof_C 	C 	0.9528	0.9953	0.7391	-0.421
Mof_C 	C 	0.1346	0.93	0.7323	-0.288
Mof_H 	H 	0.2187	0.9129	0.7154	0.151
Mof_C 	C 	0.1726	0.934	0.7145	-0.05
Mof_H 	H 	0.1672	0.9237	0.6966	0.004
Mof_C 	C 	0.0605	0.8526	0.7504	-0.19
Mof_C 	C 	0.0565	0.8032	0.742	-0.74
Mof_C 	C 	0.043	0.7618	0.761	0.56
Mof_H 	H 	0.0249	0.7441	0.7406	0.142
Mof_C 	C 	0.2236	0.953	0.7237	0.615
Mof_H 	H 	0.2725	0.9714	0.7376	-0.177
Mof_H 	H 	0.0624	0.7948	0.7239	0.1
Mof_H 	H 	0.253	0.9583	0.7124	-0.217
Mof_O 	O 	0.4609	0.5437	0.87815	-0.988
Mof_Zn	Zn	0.50412	0.50534	0.85254	1.208
Mof_Zn	Zn	0.99966	0.59023	0.83396	1.234
Mof_Zn	Zn	0.57616	0.08904	0.86431	1.21
Mof_Zn	Zn	0.92311	0.49774	0.84562	1.208
Mof_Zn	Zn	0.50814	0.57732	0.90241	1.178
Mof_Zn	Zn	0.42791	0.5981	0.85779	1.209
Mof_Zn	Zn	0.01846	0.50916	0.88226	1.216
Mof_Zn	Zn	0.4115	0.49316	0.89271	1.231
Mof_O 	O 	0.3667	0.4271	0.8966	-0.436
Mof_C 	C 	0.3274	0.4215	0.9113	0.252
Mof_H 	H 	0.3101	0.4515	0.9181	0.024
Mof_N 	N 	0.3096	0.3732	0.9174	-0.001
Mof_C 	C 	0.3319	0.3286	0.9045	0.518
Mof_H 	H 	0.3124	0.2971	0.9096	-0.018
Mof_H 	H 	0.3686	0.3248	0.9098	-0.153
Mof_H 	H 	0.33	0.3333	0.8853	-0.122
Mof_C 	C 	0.2682	0.3601	0.9337	0.503
Mof_H 	H 	0.2621	0.3222	0.9328	-0.182
Mof_H 	H 	0.2366	0.3787	0.9279	-0.151
Mof_H 	H 	0.2766	0.3701	0.952	0.497
Mof_C 	C 	0.1038	0.5524	0.8492	0.381
Mof_O 	O 	0.0837	0.5166	0.8638	-0.503
Mof_O 	O 	0.0783	0.5813	0.83408	-0.454
Mof_C 	C 	0.3271	0.5648	0.8676	0.438
Mof_O 	O 	0.3455	0.5323	0.8824	-0.528
Mof_O 	O 	0.3532	0.6003	0.857	-0.526
Mof_C 	C 	0.1617	0.5579	0.8517	-0.11
Mof_C 	C 	0.1914	0.5129	0.8563	-0.018
Mof_H 	H 	0.1751	0.4795	0.8554	0.044
Mof_C 	C 	0.2438	0.5161	0.8621	0.002
Mof_H 	H 	0.2627	0.4852	0.8664	0.032
Mof_C 	C 	0.2698	0.5645	0.8616	-0.138
Mof_C 	C 	0.2415	0.6104	0.8566	0.057
Mof_C 	C 	0.1878	0.6058	0.8499	0.04
Mof_C 	C 	0.2606	0.667	0.85759	-0.105
Mof_H 	H 	0.2987	0.6697	0.862	0.073
Mof_C 	C 	0.1622	0.6591	0.84576	-0.095
Mof_H 	H 	0.1242	0.6564	0.841	0.077
Mof_C 	C 	0.2254	0.6955	0.8779	0.03
Mof_C 	C 	0.1713	0.6913	0.8706	0.023
Mof_C 	C 	0.1317	0.7164	0.8851	-0.077
Mof_H 	H 	0.0957	0.7149	0.8803	0.062
Mof_C 	C 	0.151	0.7446	0.9078	-0.037
Mof_H 	H 	0.1266	0.7637	0.9182	0.044
Mof_C 	C 	0.1996	0.7454	0.9146	-0.025
Mof_H 	H 	0.2094	0.7632	0.9304	0.03
Mof_C 	C 	0.2383	0.7207	0.8995	-0.089
Mof_H 	H 	0.274	0.7223	0.9048	0.049
Mof_C 	C 	0.2479	0.6898	0.8308	0.037
Mof_C 	C 	0.194	0.6846	0.8245	0.023
Mof_C 	C 	0.1767	0.7028	0.7999	-0.069
Mof_H 	H 	0.141	0.6994	0.7948	0.051
Mof_C 	C 	0.214	0.7267	0.7826	-0.042
Mof_H 	H 	0.2032	0.7393	0.7658	0.038
Mof_C 	C 	0.2644	0.7313	0.7901	-0.015
Mof_H 	H 	0.2889	0.7466	0.7782	0.034
Mof_C 	C 	0.2812	0.7145	0.8143	-0.087
Mof_H 	H 	0.3165	0.7202	0.8195	0.058
Mof_C 	C 	0.5244	0.183	0.8792	0.357
Mof_O 	O 	0.4969	0.1605	0.8968	-0.461
Mof_O 	O 	0.5635	0.1642	0.86713	-0.488
Mof_C 	C 	0.486	0.4055	0.868	0.453
Mof_O 	O 	0.4611	0.4278	0.8837	-0.522
Mof_O 	O 	0.5131	0.4295	0.8508	-0.496
Mof_C 	C 	0.5123	0.2392	0.87446	-0.098
Mof_C 	C 	0.4973	0.271	0.8956	-0.025
Mof_H 	H 	0.4933	0.2552	0.9125	0.047
Mof_C 	C 	0.4882	0.322	0.8934	0.01
Mof_H 	H 	0.4794	0.3418	0.9087	0.041
Mof_C 	C 	0.4914	0.347	0.8685	-0.14
Mof_C 	C 	0.504	0.3162	0.8464	0.059
Mof_C 	C 	0.5162	0.2625	0.84986	0.034
Mof_C 	C 	0.5081	0.334	0.81742	-0.105
Mof_H 	H 	0.5016	0.3724	0.8151	0.075
Mof_C 	C 	0.5261	0.2354	0.82295	-0.088
Mof_H 	H 	0.5332	0.1971	0.8251	0.066
Mof_C 	C 	0.4682	0.2991	0.8019	0.03
Mof_C 	C 	0.4803	0.245	0.8052	0.021
Mof_C 	C 	0.4491	0.2058	0.7935	-0.075
Mof_H 	H 	0.4546	0.1694	0.7964	0.049
Mof_C 	C 	0.4087	0.2254	0.7767	-0.032
Mof_H 	H 	0.3866	0.2008	0.7681	0.03
Mof_C 	C 	0.4003	0.2749	0.7725	-0.026
Mof_H 	H 	0.3737	0.2855	0.7605	0.033
Mof_C 	C 	0.4304	0.3125	0.7857	-0.085
Mof_H 	H 	0.4232	0.3486	0.7829	0.055
Mof_C 	C 	0.5619	0.3177	0.80844	0.042
Mof_C 	C 	0.5715	0.2633	0.8112	0.023
Mof_C 	C 	0.6205	0.2433	0.8041	-0.065
Mof_H 	H 	0.6295	0.2079	0.8078	0.058
Mof_C 	C 	0.6577	0.2782	0.7908	-0.041
Mof_H 	H 	0.6902	0.2656	0.7843	0.043
Mof_C 	C 	0.6443	0.3279	0.7881	-0.013
Mof_H 	H 	0.6685	0.3507	0.7797	0.037
Mof_C 	C 	0.5972	0.3491	0.7969	-0.086
Mof_H 	H 	0.5902	0.3854	0.7947	0.061
Mof_C 	C 	0.9589	0.5028	0.79489	0.389
Mof_O 	O 	0.9204	0.4838	0.80738	-0.479
Mof_O 	O 	0.9948	0.5233	0.8071	-0.468
Mof_C 	C 	0.9555	0.469	0.68211	0.444
Mof_O 	O 	0.9196	0.4424	0.67374	-0.512
Mof_O 	O 	0.9866	0.4952	0.6688	-0.545
Mof_C 	C 	0.9633	0.4928	0.76597	-0.114
Mof_C 	C 	0.9171	0.4748	0.75311	-0.024
Mof_H 	H 	0.8868	0.4665	0.7632	0.049
Mof_C 	C 	0.9167	0.4697	0.72674	0.009
Mof_H 	H 	0.8842	0.4633	0.7181	0.036
Mof_C 	C 	0.9613	0.4732	0.71162	-0.132
Mof_C 	C 	0.0079	0.4901	0.72357	0.052
Mof_C 	C 	0.0082	0.4993	0.75119	0.048
Mof_C 	C 	0.062	0.4976	0.7111	-0.098
Mof_H 	H 	0.062	0.4908	0.6916	0.075
Mof_C 	C 	0.0628	0.5156	0.7606	-0.106
Mof_H 	H 	0.0633	0.5222	0.7801	0.087
Mof_C 	C 	0.1003	0.4616	0.7264	0.025
Mof_C 	C 	0.1005	0.473	0.7531	0.034
Mof_C 	C 	0.1366	0.4492	0.7702	-0.082
Mof_H 	H 	0.1392	0.457	0.7886	0.06
Mof_C 	C 	0.1692	0.4118	0.7569	-0.022
Mof_H 	H 	0.1977	0.3978	0.7667	0.034
Mof_C 	C 	0.1635	0.3954	0.733	-0.032
Mof_H 	H 	0.1781	0.3635	0.7267	0.036
Mof_C 	C 	0.1347	0.428	0.7177	-0.074
Mof_H 	H 	0.14	0.4262	0.6991	0.055
Mof_C 	C 	0.0766	0.5526	0.7178	0.031
Mof_C 	C 	0.078	0.5623	0.7457	0.035
Mof_C 	C 	0.0926	0.6111	0.7548	-0.082
Mof_H 	H 	0.0954	0.6183	0.7732	0.071
Mof_C 	C 	0.1033	0.6501	0.7356	-0.029
Mof_H 	H 	0.1067	0.6856	0.741	0.038
Mof_C 	C 	0.1088	0.638	0.7098	-0.029
Mof_H 	H 	0.1237	0.6627	0.6979	0.042
Mof_C 	C 	0.0928	0.5897	0.7008	-0.082
Mof_H 	H 	0.0933	0.5825	0.6823	0.059
Mof_C 	C 	0.8288	0.5341	0.8716	0.395
Mof_O 	O 	0.8509	0.5696	0.885	-0.516
Mof_O 	O 	0.8507	0.5026	0.856	-0.52
Mof_C 	C 	0.6019	0.5425	0.8758	0.378
Mof_O 	O 	0.5826	0.5595	0.89622	-0.392
Mof_O 	O 	0.5772	0.5341	0.85462	-0.483
Mof_C 	C 	0.77	0.53	0.8728	-0.118
Mof_C 	C 	0.7435	0.5679	0.8881	0.001
Mof_H 	H 	0.7641	0.5923	0.8978	0.046
Mof_C 	C 	0.6913	0.5716	0.8898	-0.018
Mof_H 	H 	0.6753	0.5975	0.9007	0.059
Mof_C 	C 	0.6606	0.5357	0.875	-0.082
Mof_C 	C 	0.6838	0.4969	0.8595	0.037
Mof_C 	C 	0.7397	0.4941	0.8595	0.062
Mof_C 	C 	0.6576	0.4567	0.8417	-0.086
Mof_H 	H 	0.6188	0.4619	0.8404	0.069
Mof_C 	C 	0.7568	0.4457	0.8441	-0.106
Mof_H 	H 	0.7957	0.4409	0.845	0.081
Mof_C 	C 	0.6727	0.4017	0.8531	0.03
Mof_C 	C 	0.7286	0.3987	0.8551	0.036
Mof_C 	C 	0.7518	0.3544	0.866	-0.083
Mof_H 	H 	0.7887	0.3496	0.867	0.062
Mof_C 	C 	0.7152	0.3172	0.8755	-0.017
Mof_H 	H 	0.7287	0.2894	0.8861	0.035
Mof_C 	C 	0.6649	0.3172	0.8713	-0.031
Mof_H 	H 	0.6441	0.2871	0.8748	0.045
Mof_C 	C 	0.6424	0.3634	0.8612	-0.072
Mof_H 	H 	0.6054	0.3668	0.8602	0.071
Mof_C 	C 	0.6844	0.4624	0.8154	0.029
Mof_C 	C 	0.7391	0.4526	0.8164	0.034
Mof_C 	C 	0.7662	0.4568	0.7928	-0.08
Mof_H 	H 	0.8032	0.4529	0.7926	0.06
Mof_C 	C 	0.7384	0.4669	0.7689	-0.027
Mof_H 	H 	0.7561	0.4646	0.7524	0.042
Mof_C 	C 	0.6875	0.4796	0.7695	-0.026
Mof_H 	H 	0.6712	0.4946	0.7544	0.041
Mof_C 	C 	0.6592	0.471	0.7919	-0.073
Mof_H 	H 	0.622	0.4711	0.7912	0.055
Mof_C 	C 	0.5166	0.9072	0.8817	0.396
Mof_O 	O 	0.4818	0.9325	0.86946	-0.482
Mof_O 	O 	0.5556	0.9261	0.89309	-0.502
Mof_C 	C 	0.4848	0.6828	0.8821	0.42
Mof_O 	O 	0.4505	0.6681	0.86671	-0.538
Mof_O 	O 	0.5117	0.6527	0.8964	-0.566
Mof_C 	C 	0.5102	0.8491	0.8829	-0.113
Mof_C 	C 	0.4883	0.8233	0.861	-0.011
Mof_H 	H 	0.4779	0.8431	0.846	0.041
Mof_C 	C 	0.4818	0.7713	0.861	-0.002
Mof_H 	H 	0.4683	0.7546	0.8456	0.04
Mof_C 	C 	0.4946	0.7411	0.8832	-0.124
Mof_C 	C 	0.5175	0.7642	0.90545	0.044
Mof_C 	C 	0.5259	0.8196	0.9046	0.053
Mof_C 	C 	0.5369	0.7393	0.9305	-0.089
Mof_H 	H 	0.5334	0.7003	0.9304	0.056
Mof_C 	C 	0.5478	0.839	0.9306	-0.105
Mof_H 	H 	0.5523	0.8779	0.9305	0.078
Mof_C 	C 	0.506	0.7653	0.9537	0.008
Mof_C 	C 	0.511	0.8217	0.9522	0.043
Mof_C 	C 	0.4845	0.853	0.9705	-0.088
Mof_H 	H 	0.4862	0.8902	0.9699	0.068
Mof_C 	C 	0.4548	0.826	0.99	-0.007
Mof_H 	H 	0.4394	0.8459	0.0039	0.037
Mof_C 	C 	0.4476	0.7757	0.9899	-0.05
Mof_H 	H 	0.425	0.7597	0.0025	0.044
Mof_C 	C 	0.474	0.745	0.9707	-0.051
Mof_H 	H 	0.468	0.7083	0.9703	0.023
Mof_C 	C 	0.593	0.7571	0.9336	0.037
Mof_C 	C 	0.5984	0.812	0.9345	0.035
Mof_C 	C 	0.6476	0.8324	0.9364	-0.069
Mof_H 	H 	0.6519	0.8694	0.9368	0.057
Mof_C 	C 	0.6935	0.799	0.9381	-0.039
Mof_H 	H 	0.7278	0.8133	0.9386	0.045
Mof_C 	C 	0.6855	0.7466	0.9389	-0.013
Mof_H 	H 	0.7147	0.7236	0.9402	0.036
Mof_C 	C 	0.6354	0.7263	0.938	-0.082
Mof_H 	H 	0.6305	0.6897	0.9404	0.072
Mof_C 	C 	0.4605	0.5573	0.8067	0.422
Mof_O 	O 	0.4876	0.5181	0.81578	-0.504
Mof_O 	O 	0.4435	0.5926	0.81963	-0.529
Mof_C 	C 	0.4506	0.5519	0.7784	-0.128
Mof_C 	C 	0.4847	0.52	0.7631	-0.005
Mof_H 	H 	0.5118	0.5012	0.7718	0.045
Mof_C 	C 	0.4173	0.5856	0.7634	0.048
Mof_C 	C 	0.3783	0.625	0.7755	-0.091
Mof_H 	H 	0.3798	0.6262	0.7953	0.075
Mof_C 	C 	0.3922	0.6784	0.76231	0.029
Mof_C 	C 	0.409	0.7218	0.7766	-0.074
Mof_H 	H 	0.4113	0.7216	0.7953	0.057
Mof_C 	C 	0.3231	0.6061	0.7646	0.027
Mof_C 	C 	0.281	0.5961	0.7797	-0.073
Mof_H 	H 	0.2824	0.5978	0.7985	0.063
Mof_C 	C 	0.422	0.7652	0.7617	-0.026
Mof_H 	H 	0.4347	0.7956	0.7705	0.042
Mof_C 	C 	0.2337	0.5827	0.7658	-0.03
Mof_H 	H 	0.202	0.5772	0.7752	0.046
Mof_O 	O 	0.9677	0.5484	0.86246	-0.961
Mof_O 	O 	0.4917	0.5618	0.9367	3.475
Mof_C 	C 	0.4704	0.5118	0.9727	0.539
Mof_C 	C 	0.4634	0.5208	0.944	1.173
Mof_O 	O 	0.4295	0.4997	0.9319	-1.124
Mof_C 	C 	0.533	0.509	0.9859	0.357
Mof_C 	C 	0.399	0.4377	0.979	-0.088
Mof_H 	H 	0.3851	0.4429	0.9606	0.048
Mof_C 	C 	0.4387	0.3915	0.9799	0.118
Mof_C 	C 	0.426	0.3496	0.9639	0.582
Mof_H 	H 	0.4116	0.3534	0.9467	-0.177
Mof_C 	C 	0.438	0.3011	0.9751	-0.79
Mof_C 	C 	0.4611	0.453	0.9841	0.222
Mof_C 	C 	0.3217	0.46	0.9845	1.11
Mof_H 	H 	0.3216	0.468	0.9662	-0.349
Mof_C 	C 	0.2757	0.464	0.999	-0.507
Mof_C 	C 	0.3673	0.443	0.9961	0.187
Mof_C 	C 	0.4108	0.4231	0.9759	-0.075
Mof_C 	C 	0.4316	0.4858	0.988	-0.285
Mof_H 	H 	0.401	0.4283	0.9569	0.044
Mof_O 	O 	0.3509	0.452	0.9118	-0.269
Mof_C 	C 	0.3428	0.4064	0.904	0.134
Mof_H 	H 	0.3662	0.3927	0.8911	0.141
Mof_N 	N 	0.3044	0.3752	0.9121	-0.232
Mof_C 	C 	0.266	0.399	0.9299	0.085
Mof_H 	H 	0.276	0.4358	0.9331	0.009
Mof_H 	H 	0.2656	0.3801	0.9467	-0.693
Mof_H 	H 	0.2313	0.3979	0.9217	0.089
Mof_C 	C 	0.2887	0.327	0.9038	-0.735
Mof_H 	H 	0.2553	0.318	0.9123	0.273
Mof_H 	H 	0.3153	0.301	0.9087	0.069
Mof_H 	H 	0.2842	0.3273	0.8845	0.248
Mof_O 	O 	0.9808	0.6099	0.7983	-0.332
Mof_C 	C 	0.973	0.6567	0.7937	-0.029
Mof_H 	H 	0.977	0.6808	0.8079	0.191
Mof_N 	N 	0.9593	0.676	0.7698	-0.33
Mof_C 	C 	0.9501	0.6395	0.7483	-0.233
Mof_H 	H 	0.9316	0.6575	0.7339	-0.081
Mof_H 	H 	0.9286	0.6102	0.7547	0.093
Mof_H 	H 	0.9837	0.6261	0.7418	0.257
Mof_C 	C 	0.9546	0.7268	0.7628	0.094
Mof_H 	H 	0.9485	0.7293	0.7437	-0.01
Mof_H 	H 	0.9869	0.7455	0.7674	-0.022
Mof_H 	H 	0.925	0.7424	0.7724	-0.021
Mof_O 	O 	0.9939	0.6487	0.8074	-0.437
Mof_C 	C 	0.993	0.6452	0.7829	0.486
Mof_H 	H 	0.0244	0.6334	0.7748	-0.119
Mof_N 	N 	0.953	0.6557	0.7662	0.202
Mof_C 	C 	0.962	0.649	0.7381	-0.128
Mof_H 	H 	0.929	0.6526	0.7285	0.19
Mof_H 	H 	0.9765	0.6136	0.7349	-0.127
Mof_H 	H 	0.9872	0.6752	0.7318	0.053
Mof_C 	C 	0.903	0.669	0.7719	-0.252
Mof_H 	H 	0.8833	0.6736	0.7554	0.093
Mof_H 	H 	0.9025	0.7018	0.782	0.104
Mof_H 	H 	0.8867	0.6411	0.7824	0.083
Mof_C 	C 	0.4784	0.5104	0.9441	-1.01
Mof_O 	O 	0.5087	0.5505	0.9378	-3.889
Mof_O 	O 	0.4521	0.4846	0.9294	0.588
Mof_H 	H 	0.5686	0.5063	0.9807	0.03
Mof_C 	C 	0.4885	0.494	0.9717	-0.405
Mof_C 	C 	0.4953	0.5472	0.9891	-0.322
Mof_C 	C 	0.43	0.3654	0.9823	-0.282
Mof_H 	H 	0.4129	0.2813	0.9654	0.151
Mof_C 	C 	0.434	0.3274	0.9645	-0.056
Mof_H 	H 	0.4237	0.3328	0.9466	0.007
Mof_C 	C 	0.3526	0.4395	0.0004	-0.2
Mof_C 	C 	0.3032	0.4435	0.992	-0.741
Mof_C 	C 	0.2618	0.457	0.011	0.56
Mof_H 	H 	0.2441	0.4751	0.9906	0.144
Mof_C 	C 	0.453	0.2764	0.9737	0.624
Mof_H 	H 	0.4714	0.2275	0.9876	-0.178
Mof_H 	H 	0.2948	0.4376	0.9739	0.099
Mof_H 	H 	0.4583	0.247	0.9624	-0.22
Mof_O 	O 	0.5391	0.4563	0.37815	-0.988
Mof_Zn	Zn	0.49588	0.49466	0.35254	1.208
Mof_Zn	Zn	0.00034	0.40977	0.33396	1.234
Mof_Zn	Zn	0.42384	0.91096	0.36431	1.21
Mof_Zn	Zn	0.07689	0.50226	0.34562	1.208
Mof_Zn	Zn	0.49186	0.42268	0.40241	1.178
Mof_Zn	Zn	0.57209	0.4019	0.35779	1.209
Mof_Zn	Zn	0.98154	0.49084	0.38226	1.216
Mof_Zn	Zn	0.5885	0.50684	0.39271	1.231
Mof_O 	O 	0.6333	0.5729	0.3966	-0.436
Mof_C 	C 	0.6726	0.5785	0.4113	0.252
Mof_H 	H 	0.6899	0.5485	0.4181	0.024
Mof_N 	N 	0.6904	0.6268	0.4174	-0.001
Mof_C 	C 	0.6681	0.6714	0.4045	0.518
Mof_H 	H 	0.6876	0.7029	0.4096	-0.018
Mof_H 	H 	0.6314	0.6752	0.4098	-0.153
Mof_H 	H 	0.67	0.6667	0.3853	-0.122
Mof_C 	C 	0.7318	0.6399	0.4337	0.503
Mof_H 	H 	0.7379	0.6778	0.4328	-0.182
Mof_H 	H 	0.7634	0.6213	0.4279	-0.151
Mof_H 	H 	0.7234	0.6299	0.452	0.497
Mof_C 	C 	0.8962	0.4476	0.3492	0.381
Mof_O 	O 	0.9163	0.4834	0.3638	-0.503
Mof_O 	O 	0.9217	0.4187	0.33408	-0.454
Mof_C 	C 	0.6729	0.4352	0.3676	0.438
Mof_O 	O 	0.6545	0.4677	0.3824	-0.528
Mof_O 	O 	0.6468	0.3997	0.357	-0.526
Mof_C 	C 	0.8383	0.4421	0.3517	-0.11
Mof_C 	C 	0.8086	0.4871	0.3563	-0.018
Mof_H 	H 	0.8249	0.5205	0.3554	0.044
Mof_C 	C 	0.7562	0.4839	0.3621	0.002
Mof_H 	H 	0.7373	0.5148	0.3664	0.032
Mof_C 	C 	0.7302	0.4355	0.3616	-0.138
Mof_C 	C 	0.7585	0.3896	0.3566	0.057
Mof_C 	C 	0.8122	0.3942	0.3499	0.04
Mof_C 	C 	0.7394	0.333	0.35759	-0.105
Mof_H 	H 	0.7013	0.3303	0.362	0.073
Mof_C 	C 	0.8378	0.3409	0.34576	-0.095
Mof_H 	H 	0.8758	0.3436	0.341	0.077
Mof_C 	C 	0.7746	0.3045	0.3779	0.03
Mof_C 	C 	0.8287	0.3087	0.3706	0.023
Mof_C 	C 	0.8683	0.2836	0.3851	-0.077
Mof_H 	H 	0.9043	0.2851	0.3803	0.062
Mof_C 	C 	0.849	0.2554	0.4078	-0.037
Mof_H 	H 	0.8734	0.2363	0.4182	0.044
Mof_C 	C 	0.8004	0.2546	0.4146	-0.025
Mof_H 	H 	0.7906	0.2368	0.4304	0.03
Mof_C 	C 	0.7617	0.2793	0.3995	-0.089
Mof_H 	H 	0.726	0.2777	0.4048	0.049
Mof_C 	C 	0.7521	0.3102	0.3308	0.037
Mof_C 	C 	0.806	0.3154	0.3245	0.023
Mof_C 	C 	0.8233	0.2972	0.2999	-0.069
Mof_H 	H 	0.859	0.3006	0.2948	0.051
Mof_C 	C 	0.786	0.2733	0.2826	-0.042
Mof_H 	H 	0.7968	0.2607	0.2658	0.038
Mof_C 	C 	0.7356	0.2687	0.2901	-0.015
Mof_H 	H 	0.7111	0.2534	0.2782	0.034
Mof_C 	C 	0.7188	0.2855	0.3143	-0.087
Mof_H 	H 	0.6835	0.2798	0.3195	0.058
Mof_C 	C 	0.4756	0.817	0.3792	0.357
Mof_O 	O 	0.5031	0.8395	0.3968	-0.461
Mof_O 	O 	0.4365	0.8358	0.36713	-0.488
Mof_C 	C 	0.514	0.5945	0.368	0.453
Mof_O 	O 	0.5389	0.5722	0.3837	-0.522
Mof_O 	O 	0.4869	0.5705	0.3508	-0.496
Mof_C 	C 	0.4877	0.7608	0.37446	-0.098
Mof_C 	C 	0.5027	0.729	0.3956	-0.025
Mof_H 	H 	0.5067	0.7448	0.4125	0.047
Mof_C 	C 	0.5118	0.678	0.3934	0.01
Mof_H 	H 	0.5206	0.6582	0.4087	0.041
Mof_C 	C 	0.5086	0.653	0.3685	-0.14
Mof_C 	C 	0.496	0.6838	0.3464	0.059
Mof_C 	C 	0.4838	0.7375	0.34986	0.034
Mof_C 	C 	0.4919	0.666	0.31742	-0.105
Mof_H 	H 	0.4984	0.6276	0.3151	0.075
Mof_C 	C 	0.4739	0.7646	0.32295	-0.088
Mof_H 	H 	0.4668	0.8029	0.3251	0.066
Mof_C 	C 	0.5318	0.7009	0.3019	0.03
Mof_C 	C 	0.5197	0.755	0.3052	0.021
Mof_C 	C 	0.5509	0.7942	0.2935	-0.075
Mof_H 	H 	0.5454	0.8306	0.2964	0.049
Mof_C 	C 	0.5913	0.7746	0.2767	-0.032
Mof_H 	H 	0.6134	0.7992	0.2681	0.03
Mof_C 	C 	0.5997	0.7251	0.2725	-0.026
Mof_H 	H 	0.6263	0.7145	0.2605	0.033
Mof_C 	C 	0.5696	0.6875	0.2857	-0.085
Mof_H 	H 	0.5768	0.6514	0.2829	0.055
Mof_C 	C 	0.4381	0.6823	0.30844	0.042
Mof_C 	C 	0.4285	0.7367	0.3112	0.023
Mof_C 	C 	0.3795	0.7567	0.3041	-0.065
Mof_H 	H 	0.3705	0.7921	0.3078	0.058
Mof_C 	C 	0.3423	0.7218	0.2908	-0.041
Mof_H 	H 	0.3098	0.7344	0.2843	0.043
Mof_C 	C 	0.3557	0.6721	0.2881	-0.013
Mof_H 	H 	0.3315	0.6493	0.2797	0.037
Mof_C 	C 	0.4028	0.6509	0.2969	-0.086
Mof_H 	H 	0.4098	0.6146	0.2947	0.061
Mof_C 	C 	0.0411	0.4972	0.29489	0.389
Mof_O 	O 	0.0796	0.5162	0.30738	-0.479
Mof_O 	O 	0.0052	0.4767	0.3071	-0.468
Mof_C 	C 	0.0445	0.531	0.18211	0.444
Mof_O 	O 	0.0804	0.5576	0.17374	-0.512
Mof_O 	O 	0.0134	0.5048	0.1688	-0.545
Mof_C 	C 	0.0367	0.5072	0.26597	-0.114
Mof_C 	C 	0.0829	0.5252	0.25311	-0.024
Mof_H 	H 	0.1132	0.5335	0.2632	0.049
Mof_C 	C 	0.0833	0.5303	0.22674	0.009
Mof_H 	H 	0.1158	0.5367	0.2181	0.036
Mof_C 	C 	0.0387	0.5268	0.21162	-0.132
Mof_C 	C 	0.9921	0.5099	0.22357	0.052
Mof_C 	C 	0.9918	0.5007	0.25119	0.048
Mof_C 	C 	0.938	0.5024	0.2111	-0.098
Mof_H 	H 	0.938	0.5092	0.1916	0.075
Mof_C 	C 	0.9372	0.4844	0.2606	-0.106
Mof_H 	H 	0.9367	0.4778	0.2801	0.087
Mof_C 	C 	0.8997	0.5384	0.2264	0.025
Mof_C 	C 	0.8995	0.527	0.2531	0.034
Mof_C 	C 	0.8634	0.5508	0.2702	-0.082
Mof_H 	H 	0.8608	0.543	0.2886	0.06
Mof_C 	C 	0.8308	0.5882	0.2569	-0.022
Mof_H 	H 	0.8023	0.6022	0.2667	0.034
Mof_C 	C 	0.8365	0.6046	0.233	-0.032
Mof_H 	H 	0.8219	0.6365	0.2267	0.036
Mof_C 	C 	0.8653	0.572	0.2177	-0.074
Mof_H 	H 	0.86	0.5738	0.1991	0.055
Mof_C 	C 	0.9234	0.4474	0.2178	0.031
Mof_C 	C 	0.922	0.4377	0.2457	0.035
Mof_C 	C 	0.9074	0.3889	0.2548	-0.082
Mof_H 	H 	0.9046	0.3817	0.2732	0.071
Mof_C 	C 	0.8967	0.3499	0.2356	-0.029
Mof_H 	H 	0.8933	0.3144	0.241	0.038
Mof_C 	C 	0.8912	0.362	0.2098	-0.029
Mof_H 	H 	0.8763	0.3373	0.1979	0.042
Mof_C 	C 	0.9072	0.4103	0.2008	-0.082
Mof_H 	H 	0.9067	0.4175	0.1823	0.059
Mof_C 	C 	0.1712	0.4659	0.3716	0.395
Mof_O 	O 	0.1491	0.4304	0.385	-0.516
Mof_O 	O 	0.1493	0.4974	0.356	-0.52
Mof_C 	C 	0.3981	0.4575	0.3758	0.378
Mof_O 	O 	0.4174	0.4405	0.39622	-0.392
Mof_O 	O 	0.4228	0.4659	0.35462	-0.483
Mof_C 	C 	0.23	0.47	0.3728	-0.118
Mof_C 	C 	0.2565	0.4321	0.3881	0.001
Mof_H 	H 	0.2359	0.4077	0.3978	0.046
Mof_C 	C 	0.3087	0.4284	0.3898	-0.018
Mof_H 	H 	0.3247	0.4025	0.4007	0.059
Mof_C 	C 	0.3394	0.4643	0.375	-0.082
Mof_C 	C 	0.3162	0.5031	0.3595	0.037
Mof_C 	C 	0.2603	0.5059	0.3595	0.062
Mof_C 	C 	0.3424	0.5433	0.3417	-0.086
Mof_H 	H 	0.3812	0.5381	0.3404	0.069
Mof_C 	C 	0.2432	0.5543	0.3441	-0.106
Mof_H 	H 	0.2043	0.5591	0.345	0.081
Mof_C 	C 	0.3273	0.5983	0.3531	0.03
Mof_C 	C 	0.2714	0.6013	0.3551	0.036
Mof_C 	C 	0.2482	0.6456	0.366	-0.083
Mof_H 	H 	0.2113	0.6504	0.367	0.062
Mof_C 	C 	0.2848	0.6828	0.3755	-0.017
Mof_H 	H 	0.2713	0.7106	0.3861	0.035
Mof_C 	C 	0.3351	0.6828	0.3713	-0.031
Mof_H 	H 	0.3559	0.7129	0.3748	0.045
Mof_C 	C 	0.3576	0.6366	0.3612	-0.072
Mof_H 	H 	0.3946	0.6332	0.3602	0.071
Mof_C 	C 	0.3156	0.5376	0.3154	0.029
Mof_C 	C 	0.2609	0.5474	0.3164	0.034
Mof_C 	C 	0.2338	0.5432	0.2928	-0.08
Mof_H 	H 	0.1968	0.5471	0.2926	0.06
Mof_C 	C 	0.2616	0.5331	0.2689	-0.027
Mof_H 	H 	0.2439	0.5354	0.2524	0.042
Mof_C 	C 	0.3125	0.5204	0.2695	-0.026
Mof_H 	H 	0.3288	0.5054	0.2544	0.041
Mof_C 	C 	0.3408	0.529	0.2919	-0.073
Mof_H 	H 	0.378	0.5289	0.2912	0.055
Mof_C 	C 	0.4834	0.0928	0.3817	0.396
Mof_O 	O 	0.5182	0.0675	0.36946	-0.482
Mof_O 	O 	0.4444	0.0739	0.39309	-0.502
Mof_C 	C 	0.5152	0.3172	0.3821	0.42
Mof_O 	O 	0.5495	0.3319	0.36671	-0.538
Mof_O 	O 	0.4883	0.3473	0.3964	-0.566
Mof_C 	C 	0.4898	0.1509	0.3829	-0.113
Mof_C 	C 	0.5117	0.1767	0.361	-0.011
Mof_H 	H 	0.5221	0.1569	0.346	0.041
Mof_C 	C 	0.5182	0.2287	0.361	-0.002
Mof_H 	H 	0.5317	0.2454	0.3456	0.04
Mof_C 	C 	0.5054	0.2589	0.3832	-0.124
Mof_C 	C 	0.4825	0.2358	0.40545	0.044
Mof_C 	C 	0.4741	0.1804	0.4046	0.053
Mof_C 	C 	0.4631	0.2607	0.4305	-0.089
Mof_H 	H 	0.4666	0.2997	0.4304	0.056
Mof_C 	C 	0.4522	0.161	0.4306	-0.105
Mof_H 	H 	0.4477	0.1221	0.4305	0.078
Mof_C 	C 	0.494	0.2347	0.4537	0.008
Mof_C 	C 	0.489	0.1783	0.4522	0.043
Mof_C 	C 	0.5155	0.147	0.4705	-0.088
Mof_H 	H 	0.5138	0.1098	0.4699	0.068
Mof_C 	C 	0.5452	0.174	0.49	-0.007
Mof_H 	H 	0.5606	0.1541	0.5039	0.037
Mof_C 	C 	0.5524	0.2243	0.4899	-0.05
Mof_H 	H 	0.575	0.2403	0.5025	0.044
Mof_C 	C 	0.526	0.255	0.4707	-0.051
Mof_H 	H 	0.532	0.2917	0.4703	0.023
Mof_C 	C 	0.407	0.2429	0.4336	0.037
Mof_C 	C 	0.4016	0.188	0.4345	0.035
Mof_C 	C 	0.3524	0.1676	0.4364	-0.069
Mof_H 	H 	0.3481	0.1306	0.4368	0.057
Mof_C 	C 	0.3065	0.201	0.4381	-0.039
Mof_H 	H 	0.2722	0.1867	0.4386	0.045
Mof_C 	C 	0.3145	0.2534	0.4389	-0.013
Mof_H 	H 	0.2853	0.2764	0.4402	0.036
Mof_C 	C 	0.3646	0.2737	0.438	-0.082
Mof_H 	H 	0.3695	0.3103	0.4404	0.072
Mof_C 	C 	0.5395	0.4427	0.3067	0.422
Mof_O 	O 	0.5124	0.4819	0.31578	-0.504
Mof_O 	O 	0.5565	0.4074	0.31963	-0.529
Mof_C 	C 	0.5494	0.4481	0.2784	-0.128
Mof_C 	C 	0.5153	0.48	0.2631	-0.005
Mof_H 	H 	0.4882	0.4988	0.2718	0.045
Mof_C 	C 	0.5827	0.4144	0.2634	0.048
Mof_C 	C 	0.6217	0.375	0.2755	-0.091
Mof_H 	H 	0.6202	0.3738	0.2953	0.075
Mof_C 	C 	0.6078	0.3216	0.26231	0.029
Mof_C 	C 	0.591	0.2782	0.2766	-0.074
Mof_H 	H 	0.5887	0.2784	0.2953	0.057
Mof_C 	C 	0.6769	0.3939	0.2646	0.027
Mof_C 	C 	0.719	0.4039	0.2797	-0.073
Mof_H 	H 	0.7176	0.4022	0.2985	0.063
Mof_C 	C 	0.578	0.2348	0.2617	-0.026
Mof_H 	H 	0.5653	0.2044	0.2705	0.042
Mof_C 	C 	0.7663	0.4173	0.2658	-0.03
Mof_H 	H 	0.798	0.4228	0.2752	0.046
Mof_O 	O 	0.0323	0.4516	0.36246	-0.961
Mof_O 	O 	0.5083	0.4382	0.4367	3.475
Mof_C 	C 	0.5296	0.4882	0.4727	0.539
Mof_C 	C 	0.5366	0.4792	0.444	1.173
Mof_O 	O 	0.5705	0.5003	0.4319	-1.124
Mof_C 	C 	0.467	0.491	0.4859	0.357
Mof_C 	C 	0.601	0.5623	0.479	-0.088
Mof_H 	H 	0.6149	0.5571	0.4606	0.048
Mof_C 	C 	0.5613	0.6085	0.4799	0.118
Mof_C 	C 	0.574	0.6504	0.4639	0.582
Mof_H 	H 	0.5884	0.6466	0.4467	-0.177
Mof_C 	C 	0.562	0.6989	0.4751	-0.79
Mof_C 	C 	0.5389	0.547	0.4841	0.222
Mof_C 	C 	0.6783	0.54	0.4845	1.11
Mof_H 	H 	0.6784	0.532	0.4662	-0.349
Mof_C 	C 	0.7243	0.536	0.499	-0.507
Mof_C 	C 	0.6327	0.557	0.4961	0.187
Mof_C 	C 	0.5892	0.5769	0.4759	-0.075
Mof_C 	C 	0.5684	0.5142	0.488	-0.285
Mof_H 	H 	0.599	0.5717	0.4569	0.044
Mof_O 	O 	0.6491	0.548	0.4118	-0.269
Mof_C 	C 	0.6572	0.5936	0.404	0.134
Mof_H 	H 	0.6338	0.6073	0.3911	0.141
Mof_N 	N 	0.6956	0.6248	0.4121	-0.232
Mof_C 	C 	0.734	0.601	0.4299	0.085
Mof_H 	H 	0.724	0.5642	0.4331	0.009
Mof_H 	H 	0.7344	0.6199	0.4467	-0.693
Mof_H 	H 	0.7687	0.6021	0.4217	0.089
Mof_C 	C 	0.7113	0.673	0.4038	-0.735
Mof_H 	H 	0.7447	0.682	0.4123	0.273
Mof_H 	H 	0.6847	0.699	0.4087	0.069
Mof_H 	H 	0.7158	0.6727	0.3845	0.248
Mof_O 	O 	0.0192	0.3901	0.2983	-0.332
Mof_C 	C 	0.027	0.3433	0.2937	-0.029
Mof_H 	H 	0.023	0.3192	0.3079	0.191
Mof_N 	N 	0.0407	0.324	0.2698	-0.33
Mof_C 	C 	0.0499	0.3605	0.2483	-0.233
Mof_H 	H 	0.0684	0.3425	0.2339	-0.081
Mof_H 	H 	0.0714	0.3898	0.2547	0.093
Mof_H 	H 	0.0163	0.3739	0.2418	0.257
Mof_C 	C 	0.0454	0.2732	0.2628	0.094
Mof_H 	H 	0.0515	0.2707	0.2437	-0.01
Mof_H 	H 	0.0131	0.2545	0.2674	-0.022
Mof_H 	H 	0.075	0.2576	0.2724	-0.021
Mof_O 	O 	0.0061	0.3513	0.3074	-0.437
Mof_C 	C 	0.007	0.3548	0.2829	0.486
Mof_H 	H 	0.9756	0.3666	0.2748	-0.119
Mof_N 	N 	0.047	0.3443	0.2662	0.202
Mof_C 	C 	0.038	0.351	0.2381	-0.128
Mof_H 	H 	0.071	0.3474	0.2285	0.19
Mof_H 	H 	0.0235	0.3864	0.2349	-0.127
Mof_H 	H 	0.0128	0.3248	0.2318	0.053
Mof_C 	C 	0.097	0.331	0.2719	-0.252
Mof_H 	H 	0.1167	0.3264	0.2554	0.093
Mof_H 	H 	0.0975	0.2982	0.282	0.104
Mof_H 	H 	0.1133	0.3589	0.2824	0.083
Mof_C 	C 	0.5216	0.4896	0.4441	-1.01
Mof_O 	O 	0.4913	0.4495	0.4378	-3.889
Mof_O 	O 	0.5479	0.5154	0.4294	0.588
Mof_H 	H 	0.4314	0.4937	0.4807	0.03
Mof_C 	C 	0.5115	0.506	0.4717	-0.405
Mof_C 	C 	0.5047	0.4528	0.4891	-0.322
Mof_C 	C 	0.57	0.6346	0.4823	-0.282
Mof_H 	H 	0.5871	0.7187	0.4654	0.151
Mof_C 	C 	0.566	0.6726	0.4645	-0.056
Mof_H 	H 	0.5763	0.6672	0.4466	0.007
Mof_C 	C 	0.6474	0.5605	0.5004	-0.2
Mof_C 	C 	0.6968	0.5565	0.492	-0.742
Mof_C 	C 	0.7382	0.543	0.511	0.56
Mof_H 	H 	0.7559	0.5249	0.4906	0.144
Mof_C 	C 	0.547	0.7236	0.4737	0.624
Mof_H 	H 	0.5286	0.7725	0.4876	-0.178
Mof_H 	H 	0.7052	0.5624	0.4739	0.099
Mof_H 	H 	0.5417	0.753	0.4624	-0.22
Mof_O 	O 	0.4563	0.5391	0.62185	-0.988
Mof_Zn	Zn	0.49466	0.49588	0.64746	1.208
Mof_Zn	Zn	0.40977	0.00034	0.66604	1.234
Mof_Zn	Zn	0.91096	0.42384	0.63569	1.21
Mof_Zn	Zn	0.50226	0.07689	0.65438	1.208
Mof_Zn	Zn	0.42268	0.49186	0.59759	1.178
Mof_Zn	Zn	0.4019	0.57209	0.64221	1.209
Mof_Zn	Zn	0.49084	0.98154	0.61774	1.216
Mof_Zn	Zn	0.50684	0.5885	0.60729	1.231
Mof_O 	O 	0.5729	0.6333	0.6034	-0.436
Mof_C 	C 	0.5785	0.6726	0.5887	0.252
Mof_H 	H 	0.5485	0.6899	0.5819	0.024
Mof_N 	N 	0.6268	0.6904	0.5826	-0.001
Mof_C 	C 	0.6714	0.6681	0.5955	0.518
Mof_H 	H 	0.7029	0.6876	0.5904	-0.018
Mof_H 	H 	0.6752	0.6314	0.5902	-0.153
Mof_H 	H 	0.6667	0.67	0.6147	-0.122
Mof_C 	C 	0.6399	0.7318	0.5663	0.503
Mof_H 	H 	0.6778	0.7379	0.5672	-0.182
Mof_H 	H 	0.6213	0.7634	0.5721	-0.151
Mof_H 	H 	0.6299	0.7234	0.548	0.497
Mof_C 	C 	0.4476	0.8962	0.6508	0.381
Mof_O 	O 	0.4834	0.9163	0.6362	-0.503
Mof_O 	O 	0.4187	0.9217	0.66592	-0.454
Mof_C 	C 	0.4352	0.6729	0.6324	0.438
Mof_O 	O 	0.4677	0.6545	0.6176	-0.528
Mof_O 	O 	0.3997	0.6468	0.643	-0.526
Mof_C 	C 	0.4421	0.8383	0.6483	-0.11
Mof_C 	C 	0.4871	0.8086	0.6437	-0.018
Mof_H 	H 	0.5205	0.8249	0.6446	0.044
Mof_C 	C 	0.4839	0.7562	0.6379	0.002
Mof_H 	H 	0.5148	0.7373	0.6336	0.032
Mof_C 	C 	0.4355	0.7302	0.6384	-0.138
Mof_C 	C 	0.3896	0.7585	0.6434	0.057
Mof_C 	C 	0.3942	0.8122	0.6501	0.04
Mof_C 	C 	0.333	0.7394	0.64241	-0.105
Mof_H 	H 	0.3303	0.7013	0.638	0.073
Mof_C 	C 	0.3409	0.8378	0.65424	-0.095
Mof_H 	H 	0.3436	0.8758	0.659	0.077
Mof_C 	C 	0.3045	0.7746	0.6221	0.03
Mof_C 	C 	0.3087	0.8287	0.6294	0.023
Mof_C 	C 	0.2836	0.8683	0.6149	-0.077
Mof_H 	H 	0.2851	0.9043	0.6197	0.062
Mof_C 	C 	0.2554	0.849	0.5922	-0.037
Mof_H 	H 	0.2363	0.8734	0.5818	0.044
Mof_C 	C 	0.2546	0.8004	0.5854	-0.025
Mof_H 	H 	0.2368	0.7906	0.5696	0.03
Mof_C 	C 	0.2793	0.7617	0.6005	-0.089
Mof_H 	H 	0.2777	0.726	0.5952	0.049
Mof_C 	C 	0.3102	0.7521	0.6692	0.037
Mof_C 	C 	0.3154	0.806	0.6755	0.023
Mof_C 	C 	0.2972	0.8233	0.7001	-0.069
Mof_H 	H 	0.3006	0.859	0.7052	0.051
Mof_C 	C 	0.2733	0.786	0.7174	-0.042
Mof_H 	H 	0.2607	0.7968	0.7342	0.038
Mof_C 	C 	0.2687	0.7356	0.7099	-0.015
Mof_H 	H 	0.2534	0.7111	0.7218	0.034
Mof_C 	C 	0.2855	0.7188	0.6857	-0.087
Mof_H 	H 	0.2798	0.6835	0.6805	0.058
Mof_C 	C 	0.817	0.4756	0.6208	0.357
Mof_O 	O 	0.8395	0.5031	0.6032	-0.461
Mof_O 	O 	0.8358	0.4365	0.63287	-0.488
Mof_C 	C 	0.5945	0.514	0.632	0.453
Mof_O 	O 	0.5722	0.5389	0.6163	-0.522
Mof_O 	O 	0.5705	0.4869	0.6492	-0.496
Mof_C 	C 	0.7608	0.4877	0.62554	-0.098
Mof_C 	C 	0.729	0.5027	0.6044	-0.025
Mof_H 	H 	0.7448	0.5067	0.5875	0.047
Mof_C 	C 	0.678	0.5118	0.6066	0.01
Mof_H 	H 	0.6582	0.5206	0.5913	0.041
Mof_C 	C 	0.653	0.5086	0.6315	-0.14
Mof_C 	C 	0.6838	0.496	0.6536	0.059
Mof_C 	C 	0.7375	0.4838	0.65014	0.034
Mof_C 	C 	0.666	0.4919	0.68258	-0.105
Mof_H 	H 	0.6276	0.4984	0.6849	0.075
Mof_C 	C 	0.7646	0.4739	0.67705	-0.088
Mof_H 	H 	0.8029	0.4668	0.6749	0.066
Mof_C 	C 	0.7009	0.5318	0.6981	0.03
Mof_C 	C 	0.755	0.5197	0.6948	0.021
Mof_C 	C 	0.7942	0.5509	0.7065	-0.075
Mof_H 	H 	0.8306	0.5454	0.7036	0.049
Mof_C 	C 	0.7746	0.5913	0.7233	-0.032
Mof_H 	H 	0.7992	0.6134	0.7319	0.03
Mof_C 	C 	0.7251	0.5997	0.7275	-0.026
Mof_H 	H 	0.7145	0.6263	0.7395	0.033
Mof_C 	C 	0.6875	0.5696	0.7143	-0.085
Mof_H 	H 	0.6514	0.5768	0.7171	0.055
Mof_C 	C 	0.6823	0.4381	0.69156	0.042
Mof_C 	C 	0.7367	0.4285	0.6888	0.023
Mof_C 	C 	0.7567	0.3795	0.6959	-0.065
Mof_H 	H 	0.7921	0.3705	0.6922	0.058
Mof_C 	C 	0.7218	0.3423	0.7092	-0.041
Mof_H 	H 	0.7344	0.3098	0.7157	0.043
Mof_C 	C 	0.6721	0.3557	0.7119	-0.013
Mof_H 	H 	0.6493	0.3315	0.7203	0.037
Mof_C 	C 	0.6509	0.4028	0.7031	-0.086
Mof_H 	H 	0.6146	0.4098	0.7053	0.061
Mof_C 	C 	0.4972	0.0411	0.70511	0.389
Mof_O 	O 	0.5162	0.0796	0.69262	-0.479
Mof_O 	O 	0.4767	0.0052	0.6929	-0.468
Mof_C 	C 	0.531	0.0445	0.81789	0.444
Mof_O 	O 	0.5576	0.0804	0.82626	-0.512
Mof_O 	O 	0.5048	0.0134	0.8312	-0.545
Mof_C 	C 	0.5072	0.0367	0.73403	-0.114
Mof_C 	C 	0.5252	0.0829	0.74689	-0.024
Mof_H 	H 	0.5335	0.1132	0.7368	0.049
Mof_C 	C 	0.5303	0.0833	0.77326	0.009
Mof_H 	H 	0.5367	0.1158	0.7819	0.036
Mof_C 	C 	0.5268	0.0387	0.78838	-0.132
Mof_C 	C 	0.5099	0.9921	0.77643	0.052
Mof_C 	C 	0.5007	0.9918	0.74881	0.048
Mof_C 	C 	0.5024	0.938	0.7889	-0.098
Mof_H 	H 	0.5092	0.938	0.8084	0.075
Mof_C 	C 	0.4844	0.9372	0.7394	-0.106
Mof_H 	H 	0.4778	0.9367	0.7199	0.087
Mof_C 	C 	0.5384	0.8997	0.7736	0.025
Mof_C 	C 	0.527	0.8995	0.7469	0.034
Mof_C 	C 	0.5508	0.8634	0.7298	-0.082
Mof_H 	H 	0.543	0.8608	0.7114	0.06
Mof_C 	C 	0.5882	0.8308	0.7431	-0.022
Mof_H 	H 	0.6022	0.8023	0.7333	0.034
Mof_C 	C 	0.6046	0.8365	0.767	-0.032
Mof_H 	H 	0.6365	0.8219	0.7733	0.036
Mof_C 	C 	0.572	0.8653	0.7823	-0.074
Mof_H 	H 	0.5738	0.86	0.8009	0.055
Mof_C 	C 	0.4474	0.9234	0.7822	0.031
Mof_C 	C 	0.4377	0.922	0.7543	0.035
Mof_C 	C 	0.3889	0.9074	0.7452	-0.082
Mof_H 	H 	0.3817	0.9046	0.7268	0.071
Mof_C 	C 	0.3499	0.8967	0.7644	-0.029
Mof_H 	H 	0.3144	0.8933	0.759	0.038
Mof_C 	C 	0.362	0.8912	0.7902	-0.029
Mof_H 	H 	0.3373	0.8763	0.8021	0.042
Mof_C 	C 	0.4103	0.9072	0.7992	-0.082
Mof_H 	H 	0.4175	0.9067	0.8177	0.059
Mof_C 	C 	0.4659	0.1712	0.6284	0.395
Mof_O 	O 	0.4304	0.1491	0.615	-0.516
Mof_O 	O 	0.4974	0.1493	0.644	-0.52
Mof_C 	C 	0.4575	0.3981	0.6242	0.378
Mof_O 	O 	0.4405	0.4174	0.60378	-0.392
Mof_O 	O 	0.4659	0.4228	0.64538	-0.483
Mof_C 	C 	0.47	0.23	0.6272	-0.118
Mof_C 	C 	0.4321	0.2565	0.6119	0.001
Mof_H 	H 	0.4077	0.2359	0.6022	0.046
Mof_C 	C 	0.4284	0.3087	0.6102	-0.018
Mof_H 	H 	0.4025	0.3247	0.5993	0.059
Mof_C 	C 	0.4643	0.3394	0.625	-0.082
Mof_C 	C 	0.5031	0.3162	0.6405	0.037
Mof_C 	C 	0.5059	0.2603	0.6405	0.062
Mof_C 	C 	0.5433	0.3424	0.6583	-0.086
Mof_H 	H 	0.5381	0.3812	0.6596	0.069
Mof_C 	C 	0.5543	0.2432	0.6559	-0.106
Mof_H 	H 	0.5591	0.2043	0.655	0.081
Mof_C 	C 	0.5983	0.3273	0.6469	0.03
Mof_C 	C 	0.6013	0.2714	0.6449	0.036
Mof_C 	C 	0.6456	0.2482	0.634	-0.083
Mof_H 	H 	0.6504	0.2113	0.633	0.062
Mof_C 	C 	0.6828	0.2848	0.6245	-0.017
Mof_H 	H 	0.7106	0.2713	0.6139	0.035
Mof_C 	C 	0.6828	0.3351	0.6287	-0.031
Mof_H 	H 	0.7129	0.3559	0.6252	0.045
Mof_C 	C 	0.6366	0.3576	0.6388	-0.072
Mof_H 	H 	0.6332	0.3946	0.6398	0.071
Mof_C 	C 	0.5376	0.3156	0.6846	0.029
Mof_C 	C 	0.5474	0.2609	0.6836	0.034
Mof_C 	C 	0.5432	0.2338	0.7072	-0.08
Mof_H 	H 	0.5471	0.1968	0.7074	0.06
Mof_C 	C 	0.5331	0.2616	0.7311	-0.027
Mof_H 	H 	0.5354	0.2439	0.7476	0.042
Mof_C 	C 	0.5204	0.3125	0.7305	-0.026
Mof_H 	H 	0.5054	0.3288	0.7456	0.041
Mof_C 	C 	0.529	0.3408	0.7081	-0.073
Mof_H 	H 	0.5289	0.378	0.7088	0.055
Mof_C 	C 	0.0928	0.4834	0.6183	0.396
Mof_O 	O 	0.0675	0.5182	0.63054	-0.482
Mof_O 	O 	0.0739	0.4444	0.60691	-0.502
Mof_C 	C 	0.3172	0.5152	0.6179	0.42
Mof_O 	O 	0.3319	0.5495	0.63329	-0.538
Mof_O 	O 	0.3473	0.4883	0.6036	-0.566
Mof_C 	C 	0.1509	0.4898	0.6171	-0.113
Mof_C 	C 	0.1767	0.5117	0.639	-0.011
Mof_H 	H 	0.1569	0.5221	0.654	0.041
Mof_C 	C 	0.2287	0.5182	0.639	-0.002
Mof_H 	H 	0.2454	0.5317	0.6544	0.04
Mof_C 	C 	0.2589	0.5054	0.6168	-0.124
Mof_C 	C 	0.2358	0.4825	0.59455	0.044
Mof_C 	C 	0.1804	0.4741	0.5954	0.053
Mof_C 	C 	0.2607	0.4631	0.5695	-0.089
Mof_H 	H 	0.2997	0.4666	0.5696	0.056
Mof_C 	C 	0.161	0.4522	0.5694	-0.105
Mof_H 	H 	0.1221	0.4477	0.5695	0.078
Mof_C 	C 	0.2347	0.494	0.5463	0.008
Mof_C 	C 	0.1783	0.489	0.5478	0.043
Mof_C 	C 	0.147	0.5155	0.5295	-0.088
Mof_H 	H 	0.1098	0.5138	0.5301	0.068
Mof_C 	C 	0.174	0.5452	0.51	-0.007
Mof_H 	H 	0.1541	0.5606	0.4961	0.037
Mof_C 	C 	0.2243	0.5524	0.5101	-0.05
Mof_H 	H 	0.2403	0.575	0.4975	0.044
Mof_C 	C 	0.255	0.526	0.5293	-0.051
Mof_H 	H 	0.2917	0.532	0.5297	0.023
Mof_C 	C 	0.2429	0.407	0.5664	0.037
Mof_C 	C 	0.188	0.4016	0.5655	0.035
Mof_C 	C 	0.1676	0.3524	0.5636	-0.069
Mof_H 	H 	0.1306	0.3481	0.5632	0.057
Mof_C 	C 	0.201	0.3065	0.5619	-0.039
Mof_H 	H 	0.1867	0.2722	0.5614	0.045
Mof_C 	C 	0.2534	0.3145	0.5611	-0.013
Mof_H 	H 	0.2764	0.2853	0.5598	0.036
Mof_C 	C 	0.2737	0.3646	0.562	-0.082
Mof_H 	H 	0.3103	0.3695	0.5596	0.072
Mof_C 	C 	0.4427	0.5395	0.6933	0.422
Mof_O 	O 	0.4819	0.5124	0.68422	-0.504
Mof_O 	O 	0.4074	0.5565	0.68037	-0.529
Mof_C 	C 	0.4481	0.5494	0.7216	-0.128
Mof_C 	C 	0.48	0.5153	0.7369	-0.005
Mof_H 	H 	0.4988	0.4882	0.7282	0.045
Mof_C 	C 	0.4144	0.5827	0.7366	0.048
Mof_C 	C 	0.375	0.6217	0.7245	-0.091
Mof_H 	H 	0.3738	0.6202	0.7047	0.075
Mof_C 	C 	0.3216	0.6078	0.73769	0.029
Mof_C 	C 	0.2782	0.591	0.7234	-0.074
Mof_H 	H 	0.2784	0.5887	0.7047	0.057
Mof_C 	C 	0.3939	0.6769	0.7354	0.027
Mof_C 	C 	0.4039	0.719	0.7203	-0.073
Mof_H 	H 	0.4022	0.7176	0.7015	0.063
Mof_C 	C 	0.2348	0.578	0.7383	-0.026
Mof_H 	H 	0.2044	0.5653	0.7295	0.042
Mof_C 	C 	0.4173	0.7663	0.7342	-0.03
Mof_H 	H 	0.4228	0.798	0.7248	0.046
Mof_O 	O 	0.4516	0.0323	0.63754	-0.961
Mof_O 	O 	0.4382	0.5083	0.5633	3.475
Mof_C 	C 	0.4882	0.5296	0.5273	0.539
Mof_C 	C 	0.4792	0.5366	0.556	1.173
Mof_O 	O 	0.5003	0.5705	0.5681	-1.124
Mof_C 	C 	0.491	0.467	0.5141	0.357
Mof_C 	C 	0.5623	0.601	0.521	-0.088
Mof_H 	H 	0.5571	0.6149	0.5394	0.048
Mof_C 	C 	0.6085	0.5613	0.5201	0.118
Mof_C 	C 	0.6504	0.574	0.5361	0.582
Mof_H 	H 	0.6466	0.5884	0.5533	-0.177
Mof_C 	C 	0.6989	0.562	0.5249	-0.79
Mof_C 	C 	0.547	0.5389	0.5159	0.222
Mof_C 	C 	0.54	0.6783	0.5155	1.11
Mof_H 	H 	0.532	0.6784	0.5338	-0.349
Mof_C 	C 	0.536	0.7243	0.501	-0.507
Mof_C 	C 	0.557	0.6327	0.5039	0.187
Mof_C 	C 	0.5769	0.5892	0.5241	-0.075
Mof_C 	C 	0.5142	0.5684	0.512	-0.285
Mof_H 	H 	0.5717	0.599	0.5431	0.044
Mof_O 	O 	0.548	0.6491	0.5882	-0.269
Mof_C 	C 	0.5936	0.6572	0.596	0.134
Mof_H 	H 	0.6073	0.6338	0.6089	0.141
Mof_N 	N 	0.6248	0.6956	0.5879	-0.232
Mof_C 	C 	0.601	0.734	0.5701	0.085
Mof_H 	H 	0.5642	0.724	0.5669	0.009
Mof_H 	H 	0.6199	0.7344	0.5533	-0.693
Mof_H 	H 	0.6021	0.7687	0.5783	0.089
Mof_C 	C 	0.673	0.7113	0.5962	-0.735
Mof_H 	H 	0.682	0.7447	0.5877	0.273
Mof_H 	H 	0.699	0.6847	0.5913	0.069
Mof_H 	H 	0.6727	0.7158	0.6155	0.248
Mof_O 	O 	0.3901	0.0192	0.7017	-0.332
Mof_C 	C 	0.3433	0.027	0.7063	-0.029
Mof_H 	H 	0.3192	0.023	0.6921	0.191
Mof_N 	N 	0.324	0.0407	0.7302	-0.33
Mof_C 	C 	0.3605	0.0499	0.7517	-0.233
Mof_H 	H 	0.3425	0.0684	0.7661	-0.081
Mof_H 	H 	0.3898	0.0714	0.7453	0.093
Mof_H 	H 	0.3739	0.0163	0.7582	0.257
Mof_C 	C 	0.2732	0.0454	0.7372	0.094
Mof_H 	H 	0.2707	0.0515	0.7563	-0.01
Mof_H 	H 	0.2545	0.0131	0.7326	-0.022
Mof_H 	H 	0.2576	0.075	0.7276	-0.021
Mof_O 	O 	0.3513	0.0061	0.6926	-0.437
Mof_C 	C 	0.3548	0.007	0.7171	0.486
Mof_H 	H 	0.3666	0.9756	0.7252	-0.119
Mof_N 	N 	0.3443	0.047	0.7338	0.202
Mof_C 	C 	0.351	0.038	0.7619	-0.128
Mof_H 	H 	0.3474	0.071	0.7715	0.19
Mof_H 	H 	0.3864	0.0235	0.7651	-0.127
Mof_H 	H 	0.3248	0.0128	0.7682	0.053
Mof_C 	C 	0.331	0.097	0.7281	-0.252
Mof_H 	H 	0.3264	0.1167	0.7446	0.093
Mof_H 	H 	0.2982	0.0975	0.718	0.104
Mof_H 	H 	0.3589	0.1133	0.7176	0.083
Mof_C 	C 	0.4896	0.5216	0.5559	-1.01
Mof_O 	O 	0.4495	0.4913	0.5622	-3.889
Mof_O 	O 	0.5154	0.5479	0.5706	0.588
Mof_H 	H 	0.4937	0.4314	0.5193	0.03
Mof_C 	C 	0.506	0.5115	0.5283	-0.405
Mof_C 	C 	0.4528	0.5047	0.5109	-0.322
Mof_C 	C 	0.6346	0.57	0.5177	-0.282
Mof_H 	H 	0.7187	0.5871	0.5346	0.151
Mof_C 	C 	0.6726	0.566	0.5355	-0.056
Mof_H 	H 	0.6672	0.5763	0.5534	0.007
Mof_C 	C 	0.5605	0.6474	0.4996	-0.2
Mof_C 	C 	0.5565	0.6968	0.508	-0.742
Mof_C 	C 	0.543	0.7382	0.489	0.56
Mof_H 	H 	0.5249	0.7559	0.5094	0.144
Mof_C 	C 	0.7236	0.547	0.5263	0.624
Mof_H 	H 	0.7725	0.5286	0.5124	-0.178
Mof_H 	H 	0.5624	0.7052	0.5261	0.099
Mof_H 	H 	0.753	0.5417	0.5376	-0.22
Mof_O 	O 	0.5437	0.4609	0.12185	-0.988
Mof_Zn	Zn	0.50534	0.50412	0.14746	1.208
Mof_Zn	Zn	0.59023	0.99966	0.16604	1.234
Mof_Zn	Zn	0.08904	0.57616	0.13569	1.21
Mof_Zn	Zn	0.49774	0.92311	0.15438	1.208
Mof_Zn	Zn	0.57732	0.50814	0.09759	1.178
Mof_Zn	Zn	0.5981	0.42791	0.14221	1.209
Mof_Zn	Zn	0.50916	0.01846	0.11774	1.216
Mof_Zn	Zn	0.49316	0.4115	0.10729	1.231
Mof_O 	O 	0.4271	0.3667	0.1034	-0.436
Mof_C 	C 	0.4215	0.3274	0.0887	0.252
Mof_H 	H 	0.4515	0.3101	0.0819	0.024
Mof_N 	N 	0.3732	0.3096	0.0826	-0.001
Mof_C 	C 	0.3286	0.3319	0.0955	0.518
Mof_H 	H 	0.2971	0.3124	0.0904	-0.018
Mof_H 	H 	0.3248	0.3686	0.0902	-0.153
Mof_H 	H 	0.3333	0.33	0.1147	-0.122
Mof_C 	C 	0.3601	0.2682	0.0663	0.503
Mof_H 	H 	0.3222	0.2621	0.0672	-0.182
Mof_H 	H 	0.3787	0.2366	0.0721	-0.151
Mof_H 	H 	0.3701	0.2766	0.048	0.497
Mof_C 	C 	0.5524	0.1038	0.1508	0.381
Mof_O 	O 	0.5166	0.0837	0.1362	-0.503
Mof_O 	O 	0.5813	0.0783	0.16592	-0.454
Mof_C 	C 	0.5648	0.3271	0.1324	0.438
Mof_O 	O 	0.5323	0.3455	0.1176	-0.528
Mof_O 	O 	0.6003	0.3532	0.143	-0.526
Mof_C 	C 	0.5579	0.1617	0.1483	-0.11
Mof_C 	C 	0.5129	0.1914	0.1437	-0.018
Mof_H 	H 	0.4795	0.1751	0.1446	0.044
Mof_C 	C 	0.5161	0.2438	0.1379	0.002
Mof_H 	H 	0.4852	0.2627	0.1336	0.032
Mof_C 	C 	0.5645	0.2698	0.1384	-0.138
Mof_C 	C 	0.6104	0.2415	0.1434	0.057
Mof_C 	C 	0.6058	0.1878	0.1501	0.04
Mof_C 	C 	0.667	0.2606	0.14241	-0.105
Mof_H 	H 	0.6697	0.2987	0.138	0.073
Mof_C 	C 	0.6591	0.1622	0.15424	-0.095
Mof_H 	H 	0.6564	0.1242	0.159	0.077
Mof_C 	C 	0.6955	0.2254	0.1221	0.03
Mof_C 	C 	0.6913	0.1713	0.1294	0.023
Mof_C 	C 	0.7164	0.1317	0.1149	-0.077
Mof_H 	H 	0.7149	0.0957	0.1197	0.062
Mof_C 	C 	0.7446	0.151	0.0922	-0.037
Mof_H 	H 	0.7637	0.1266	0.0818	0.044
Mof_C 	C 	0.7454	0.1996	0.0854	-0.025
Mof_H 	H 	0.7632	0.2094	0.0696	0.03
Mof_C 	C 	0.7207	0.2383	0.1005	-0.089
Mof_H 	H 	0.7223	0.274	0.0952	0.049
Mof_C 	C 	0.6898	0.2479	0.1692	0.037
Mof_C 	C 	0.6846	0.194	0.1755	0.023
Mof_C 	C 	0.7028	0.1767	0.2001	-0.069
Mof_H 	H 	0.6994	0.141	0.2052	0.051
Mof_C 	C 	0.7267	0.214	0.2174	-0.042
Mof_H 	H 	0.7393	0.2032	0.2342	0.038
Mof_C 	C 	0.7313	0.2644	0.2099	-0.015
Mof_H 	H 	0.7466	0.2889	0.2218	0.034
Mof_C 	C 	0.7145	0.2812	0.1857	-0.087
Mof_H 	H 	0.7202	0.3165	0.1805	0.058
Mof_C 	C 	0.183	0.5244	0.1208	0.357
Mof_O 	O 	0.1605	0.4969	0.1032	-0.461
Mof_O 	O 	0.1642	0.5635	0.13287	-0.488
Mof_C 	C 	0.4055	0.486	0.132	0.453
Mof_O 	O 	0.4278	0.4611	0.1163	-0.522
Mof_O 	O 	0.4295	0.5131	0.1492	-0.496
Mof_C 	C 	0.2392	0.5123	0.12554	-0.098
Mof_C 	C 	0.271	0.4973	0.1044	-0.025
Mof_H 	H 	0.2552	0.4933	0.0875	0.047
Mof_C 	C 	0.322	0.4882	0.1066	0.01
Mof_H 	H 	0.3418	0.4794	0.0913	0.041
Mof_C 	C 	0.347	0.4914	0.1315	-0.14
Mof_C 	C 	0.3162	0.504	0.1536	0.059
Mof_C 	C 	0.2625	0.5162	0.15014	0.034
Mof_C 	C 	0.334	0.5081	0.18258	-0.105
Mof_H 	H 	0.3724	0.5016	0.1849	0.075
Mof_C 	C 	0.2354	0.5261	0.17705	-0.088
Mof_H 	H 	0.1971	0.5332	0.1749	0.066
Mof_C 	C 	0.2991	0.4682	0.1981	0.03
Mof_C 	C 	0.245	0.4803	0.1948	0.021
Mof_C 	C 	0.2058	0.4491	0.2065	-0.075
Mof_H 	H 	0.1694	0.4546	0.2036	0.049
Mof_C 	C 	0.2254	0.4087	0.2233	-0.032
Mof_H 	H 	0.2008	0.3866	0.2319	0.03
Mof_C 	C 	0.2749	0.4003	0.2275	-0.026
Mof_H 	H 	0.2855	0.3737	0.2395	0.033
Mof_C 	C 	0.3125	0.4304	0.2143	-0.085
Mof_H 	H 	0.3486	0.4232	0.2171	0.055
Mof_C 	C 	0.3177	0.5619	0.19156	0.042
Mof_C 	C 	0.2633	0.5715	0.1888	0.023
Mof_C 	C 	0.2433	0.6205	0.1959	-0.065
Mof_H 	H 	0.2079	0.6295	0.1922	0.058
Mof_C 	C 	0.2782	0.6577	0.2092	-0.041
Mof_H 	H 	0.2656	0.6902	0.2157	0.043
Mof_C 	C 	0.3279	0.6443	0.2119	-0.013
Mof_H 	H 	0.3507	0.6685	0.2203	0.037
Mof_C 	C 	0.3491	0.5972	0.2031	-0.086
Mof_H 	H 	0.3854	0.5902	0.2053	0.061
Mof_C 	C 	0.5028	0.9589	0.20511	0.389
Mof_O 	O 	0.4838	0.9204	0.19262	-0.479
Mof_O 	O 	0.5233	0.9948	0.1929	-0.468
Mof_C 	C 	0.469	0.9555	0.31789	0.444
Mof_O 	O 	0.4424	0.9196	0.32626	-0.512
Mof_O 	O 	0.4952	0.9866	0.3312	-0.545
Mof_C 	C 	0.4928	0.9633	0.23403	-0.114
Mof_C 	C 	0.4748	0.9171	0.24689	-0.024
Mof_H 	H 	0.4665	0.8868	0.2368	0.049
Mof_C 	C 	0.4697	0.9167	0.27326	0.009
Mof_H 	H 	0.4633	0.8842	0.2819	0.036
Mof_C 	C 	0.4732	0.9613	0.28838	-0.132
Mof_C 	C 	0.4901	0.0079	0.27643	0.052
Mof_C 	C 	0.4993	0.0082	0.24881	0.048
Mof_C 	C 	0.4976	0.062	0.2889	-0.098
Mof_H 	H 	0.4908	0.062	0.3084	0.075
Mof_C 	C 	0.5156	0.0628	0.2394	-0.106
Mof_H 	H 	0.5222	0.0633	0.2199	0.087
Mof_C 	C 	0.4616	0.1003	0.2736	0.025
Mof_C 	C 	0.473	0.1005	0.2469	0.034
Mof_C 	C 	0.4492	0.1366	0.2298	-0.082
Mof_H 	H 	0.457	0.1392	0.2114	0.06
Mof_C 	C 	0.4118	0.1692	0.2431	-0.022
Mof_H 	H 	0.3978	0.1977	0.2333	0.034
Mof_C 	C 	0.3954	0.1635	0.267	-0.032
Mof_H 	H 	0.3635	0.1781	0.2733	0.036
Mof_C 	C 	0.428	0.1347	0.2823	-0.074
Mof_H 	H 	0.4262	0.14	0.3009	0.055
Mof_C 	C 	0.5526	0.0766	0.2822	0.031
Mof_C 	C 	0.5623	0.078	0.2543	0.035
Mof_C 	C 	0.6111	0.0926	0.2452	-0.082
Mof_H 	H 	0.6183	0.0954	0.2268	0.071
Mof_C 	C 	0.6501	0.1033	0.2644	-0.029
Mof_H 	H 	0.6856	0.1067	0.259	0.038
Mof_C 	C 	0.638	0.1088	0.2902	-0.029
Mof_H 	H 	0.6627	0.1237	0.3021	0.042
Mof_C 	C 	0.5897	0.0928	0.2992	-0.082
Mof_H 	H 	0.5825	0.0933	0.3177	0.059
Mof_C 	C 	0.5341	0.8288	0.1284	0.395
Mof_O 	O 	0.5696	0.8509	0.115	-0.516
Mof_O 	O 	0.5026	0.8507	0.144	-0.52
Mof_C 	C 	0.5425	0.6019	0.1242	0.378
Mof_O 	O 	0.5595	0.5826	0.10378	-0.392
Mof_O 	O 	0.5341	0.5772	0.14538	-0.483
Mof_C 	C 	0.53	0.77	0.1272	-0.118
Mof_C 	C 	0.5679	0.7435	0.1119	0.001
Mof_H 	H 	0.5923	0.7641	0.1022	0.046
Mof_C 	C 	0.5716	0.6913	0.1102	-0.018
Mof_H 	H 	0.5975	0.6753	0.0993	0.059
Mof_C 	C 	0.5357	0.6606	0.125	-0.082
Mof_C 	C 	0.4969	0.6838	0.1405	0.037
Mof_C 	C 	0.4941	0.7397	0.1405	0.062
Mof_C 	C 	0.4567	0.6576	0.1583	-0.086
Mof_H 	H 	0.4619	0.6188	0.1596	0.069
Mof_C 	C 	0.4457	0.7568	0.1559	-0.106
Mof_H 	H 	0.4409	0.7957	0.155	0.081
Mof_C 	C 	0.4017	0.6727	0.1469	0.03
Mof_C 	C 	0.3987	0.7286	0.1449	0.036
Mof_C 	C 	0.3544	0.7518	0.134	-0.083
Mof_H 	H 	0.3496	0.7887	0.133	0.062
Mof_C 	C 	0.3172	0.7152	0.1245	-0.017
Mof_H 	H 	0.2894	0.7287	0.1139	0.035
Mof_C 	C 	0.3172	0.6649	0.1287	-0.031
Mof_H 	H 	0.2871	0.6441	0.1252	0.045
Mof_C 	C 	0.3634	0.6424	0.1388	-0.072
Mof_H 	H 	0.3668	0.6054	0.1398	0.071
Mof_C 	C 	0.4624	0.6844	0.1846	0.029
Mof_C 	C 	0.4526	0.7391	0.1836	0.034
Mof_C 	C 	0.4568	0.7662	0.2072	-0.08
Mof_H 	H 	0.4529	0.8032	0.2074	0.06
Mof_C 	C 	0.4669	0.7384	0.2311	-0.027
Mof_H 	H 	0.4646	0.7561	0.2476	0.042
Mof_C 	C 	0.4796	0.6875	0.2305	-0.026
Mof_H 	H 	0.4946	0.6712	0.2456	0.041
Mof_C 	C 	0.471	0.6592	0.2081	-0.073
Mof_H 	H 	0.4711	0.622	0.2088	0.055
Mof_C 	C 	0.9072	0.5166	0.1183	0.396
Mof_O 	O 	0.9325	0.4818	0.13054	-0.482
Mof_O 	O 	0.9261	0.5556	0.10691	-0.502
Mof_C 	C 	0.6828	0.4848	0.1179	0.42
Mof_O 	O 	0.6681	0.4505	0.13329	-0.538
Mof_O 	O 	0.6527	0.5117	0.1036	-0.566
Mof_C 	C 	0.8491	0.5102	0.1171	-0.113
Mof_C 	C 	0.8233	0.4883	0.139	-0.011
Mof_H 	H 	0.8431	0.4779	0.154	0.041
Mof_C 	C 	0.7713	0.4818	0.139	-0.002
Mof_H 	H 	0.7546	0.4683	0.1544	0.04
Mof_C 	C 	0.7411	0.4946	0.1168	-0.124
Mof_C 	C 	0.7642	0.5175	0.09455	0.044
Mof_C 	C 	0.8196	0.5259	0.0954	0.053
Mof_C 	C 	0.7393	0.5369	0.0695	-0.089
Mof_H 	H 	0.7003	0.5334	0.0696	0.056
Mof_C 	C 	0.839	0.5478	0.0694	-0.105
Mof_H 	H 	0.8779	0.5523	0.0695	0.078
Mof_C 	C 	0.7653	0.506	0.0463	0.008
Mof_C 	C 	0.8217	0.511	0.0478	0.043
Mof_C 	C 	0.853	0.4845	0.0295	-0.088
Mof_H 	H 	0.8902	0.4862	0.0301	0.068
Mof_C 	C 	0.826	0.4548	0.01	-0.007
Mof_H 	H 	0.8459	0.4394	0.9961	0.037
Mof_C 	C 	0.7757	0.4476	0.0101	-0.05
Mof_H 	H 	0.7597	0.425	0.9975	0.044
Mof_C 	C 	0.745	0.474	0.0293	-0.051
Mof_H 	H 	0.7083	0.468	0.0297	0.023
Mof_C 	C 	0.7571	0.593	0.0664	0.037
Mof_C 	C 	0.812	0.5984	0.0655	0.035
Mof_C 	C 	0.8324	0.6476	0.0636	-0.069
Mof_H 	H 	0.8694	0.6519	0.0632	0.057
Mof_C 	C 	0.799	0.6935	0.0619	-0.039
Mof_H 	H 	0.8133	0.7278	0.0614	0.045
Mof_C 	C 	0.7466	0.6855	0.0611	-0.013
Mof_H 	H 	0.7236	0.7147	0.0598	0.036
Mof_C 	C 	0.7263	0.6354	0.062	-0.082
Mof_H 	H 	0.6897	0.6305	0.0596	0.072
Mof_C 	C 	0.5573	0.4605	0.1933	0.422
Mof_O 	O 	0.5181	0.4876	0.18422	-0.504
Mof_O 	O 	0.5926	0.4435	0.18037	-0.529
Mof_C 	C 	0.5519	0.4506	0.2216	-0.128
Mof_C 	C 	0.52	0.4847	0.2369	-0.005
Mof_H 	H 	0.5012	0.5118	0.2282	0.045
Mof_C 	C 	0.5856	0.4173	0.2366	0.048
Mof_C 	C 	0.625	0.3783	0.2245	-0.091
Mof_H 	H 	0.6262	0.3798	0.2047	0.075
Mof_C 	C 	0.6784	0.3922	0.23769	0.029
Mof_C 	C 	0.7218	0.409	0.2234	-0.074
Mof_H 	H 	0.7216	0.4113	0.2047	0.057
Mof_C 	C 	0.6061	0.3231	0.2354	0.027
Mof_C 	C 	0.5961	0.281	0.2203	-0.073
Mof_H 	H 	0.5978	0.2824	0.2015	0.063
Mof_C 	C 	0.7652	0.422	0.2383	-0.026
Mof_H 	H 	0.7956	0.4347	0.2295	0.042
Mof_C 	C 	0.5827	0.2337	0.2342	-0.03
Mof_H 	H 	0.5772	0.202	0.2248	0.046
Mof_O 	O 	0.5484	0.9677	0.13754	-0.961
Mof_O 	O 	0.5618	0.4917	0.0633	3.475
Mof_C 	C 	0.5118	0.4704	0.0273	0.539
Mof_C 	C 	0.5208	0.4634	0.056	1.173
Mof_O 	O 	0.4997	0.4295	0.0681	-1.124
Mof_C 	C 	0.509	0.533	0.0141	0.357
Mof_C 	C 	0.4377	0.399	0.021	-0.088
Mof_H 	H 	0.4429	0.3851	0.0394	0.048
Mof_C 	C 	0.3915	0.4387	0.0201	0.118
Mof_C 	C 	0.3496	0.426	0.0361	0.582
Mof_H 	H 	0.3534	0.4116	0.0533	-0.177
Mof_C 	C 	0.3011	0.438	0.0249	-0.79
Mof_C 	C 	0.453	0.4611	0.0159	0.222
Mof_C 	C 	0.46	0.3217	0.0155	1.11
Mof_H 	H 	0.468	0.3216	0.0338	-0.349
Mof_C 	C 	0.464	0.2757	0.001	-0.507
Mof_C 	C 	0.443	0.3673	0.0039	0.187
Mof_C 	C 	0.4231	0.4108	0.0241	-0.075
Mof_C 	C 	0.4858	0.4316	0.012	-0.285
Mof_H 	H 	0.4283	0.401	0.0431	0.044
Mof_O 	O 	0.452	0.3509	0.0882	-0.269
Mof_C 	C 	0.4064	0.3428	0.096	0.134
Mof_H 	H 	0.3927	0.3662	0.1089	0.141
Mof_N 	N 	0.3752	0.3044	0.0879	-0.232
Mof_C 	C 	0.399	0.266	0.0701	0.085
Mof_H 	H 	0.4358	0.276	0.0669	0.009
Mof_H 	H 	0.3801	0.2656	0.0533	-0.693
Mof_H 	H 	0.3979	0.2313	0.0783	0.089
Mof_C 	C 	0.327	0.2887	0.0962	-0.735
Mof_H 	H 	0.318	0.2553	0.0877	0.273
Mof_H 	H 	0.301	0.3153	0.0913	0.069
Mof_H 	H 	0.3273	0.2842	0.1155	0.248
Mof_O 	O 	0.6099	0.9808	0.2017	-0.332
Mof_C 	C 	0.6567	0.973	0.2063	-0.029
Mof_H 	H 	0.6808	0.977	0.1921	0.191
Mof_N 	N 	0.676	0.9593	0.2302	-0.33
Mof_C 	C 	0.6395	0.9501	0.2517	-0.233
Mof_H 	H 	0.6575	0.9316	0.2661	-0.081
Mof_H 	H 	0.6102	0.9286	0.2453	0.093
Mof_H 	H 	0.6261	0.9837	0.2582	0.257
Mof_C 	C 	0.7268	0.9546	0.2372	0.094
Mof_H 	H 	0.7293	0.9485	0.2563	-0.01
Mof_H 	H 	0.7455	0.9869	0.2326	-0.022
Mof_H 	H 	0.7424	0.925	0.2276	-0.021
Mof_O 	O 	0.6487	0.9939	0.1926	-0.437
Mof_C 	C 	0.6452	0.993	0.2171	0.486
Mof_H 	H 	0.6334	0.0244	0.2252	-0.119
Mof_N 	N 	0.6557	0.953	0.2338	0.202
Mof_C 	C 	0.649	0.962	0.2619	-0.128
Mof_H 	H 	0.6526	0.929	0.2715	0.19
Mof_H 	H 	0.6136	0.9765	0.2651	-0.127
Mof_H 	H 	0.6752	0.9872	0.2682	0.053
Mof_C 	C 	0.669	0.903	0.2281	-0.252
Mof_H 	H 	0.6736	0.8833	0.2446	0.093
Mof_H 	H 	0.7018	0.9025	0.218	0.104
Mof_H 	H 	0.6411	0.8867	0.2176	0.083
Mof_C 	C 	0.5104	0.4784	0.0559	-1.01
Mof_O 	O 	0.5505	0.5087	0.0622	-3.889
Mof_O 	O 	0.4846	0.4521	0.0706	0.588
Mof_H 	H 	0.5063	0.5686	0.0193	0.03
Mof_C 	C 	0.494	0.4885	0.0283	-0.405
Mof_C 	C 	0.5472	0.4953	0.0109	-0.322
Mof_C 	C 	0.3654	0.43	0.0177	-0.282
Mof_H 	H 	0.2813	0.4129	0.0346	0.151
Mof_C 	C 	0.3274	0.434	0.0355	-0.056
Mof_H 	H 	0.3328	0.4237	0.0534	0.007
Mof_C 	C 	0.4395	0.3526	0.9996	-0.2
Mof_C 	C 	0.4435	0.3032	0.008	-0.741
Mof_C 	C 	0.457	0.2618	0.989	0.56
Mof_H 	H 	0.4751	0.2441	0.0094	0.144
Mof_C 	C 	0.2764	0.453	0.0263	0.624
Mof_H 	H 	0.2275	0.4714	0.0124	-0.178
Mof_H 	H 	0.4376	0.2948	0.0261	0.099
Mof_H 	H 	0.247	0.4583	0.0376	-0.22
Mof_O 	O 	0.0391	0.0437	0.87185	-0.999
Mof_Zn	Zn	0.99588	0.00534	0.89746	1.212
Mof_Zn	Zn	0.50034	0.09023	0.91604	1.234
Mof_Zn	Zn	0.92384	0.58904	0.88569	1.21
Mof_Zn	Zn	0.57689	0.99774	0.90438	1.208
Mof_Zn	Zn	0.99186	0.07732	0.84759	1.17
Mof_Zn	Zn	0.07209	0.0981	0.89221	1.207
Mof_Zn	Zn	0.48154	0.00916	0.86774	1.216
Mof_Zn	Zn	0.0885	0.99316	0.85729	1.231
Mof_O 	O 	0.1333	0.9271	0.8534	-0.436
Mof_C 	C 	0.1726	0.9215	0.8387	0.253
Mof_H 	H 	0.1899	0.9515	0.8319	0.023
Mof_N 	N 	0.1904	0.8732	0.8326	-0.001
Mof_C 	C 	0.1681	0.8286	0.8455	0.519
Mof_H 	H 	0.1876	0.7971	0.8404	-0.018
Mof_H 	H 	0.1314	0.8248	0.8402	-0.154
Mof_H 	H 	0.17	0.8333	0.8647	-0.122
Mof_C 	C 	0.2318	0.8601	0.8163	0.501
Mof_H 	H 	0.2379	0.8222	0.8172	-0.181
Mof_H 	H 	0.2634	0.8787	0.8221	-0.15
Mof_H 	H 	0.2234	0.8701	0.798	0.497
Mof_C 	C 	0.3962	0.0524	0.9008	0.381
Mof_O 	O 	0.4163	0.0166	0.8862	-0.503
Mof_O 	O 	0.4217	0.0813	0.91592	-0.454
Mof_C 	C 	0.1729	0.0648	0.8824	0.437
Mof_O 	O 	0.1545	0.0323	0.8676	-0.531
Mof_O 	O 	0.1468	0.1003	0.893	-0.528
Mof_C 	C 	0.3383	0.0579	0.8983	-0.11
Mof_C 	C 	0.3086	0.0129	0.8937	-0.019
Mof_H 	H 	0.3249	0.9795	0.8946	0.045
Mof_C 	C 	0.2562	0.0161	0.8879	-0.001
Mof_H 	H 	0.2373	0.9852	0.8836	0.035
Mof_C 	C 	0.2302	0.0645	0.8884	-0.137
Mof_C 	C 	0.2585	0.1104	0.8934	0.056
Mof_C 	C 	0.3122	0.1058	0.9001	0.04
Mof_C 	C 	0.2394	0.167	0.89241	-0.104
Mof_H 	H 	0.2013	0.1697	0.888	0.072
Mof_C 	C 	0.3378	0.1591	0.90424	-0.095
Mof_H 	H 	0.3758	0.1564	0.909	0.077
Mof_C 	C 	0.2746	0.1955	0.8721	0.029
Mof_C 	C 	0.3287	0.1913	0.8794	0.024
Mof_C 	C 	0.3683	0.2164	0.8649	-0.078
Mof_H 	H 	0.4043	0.2149	0.8697	0.062
Mof_C 	C 	0.349	0.2446	0.8422	-0.036
Mof_H 	H 	0.3734	0.2637	0.8318	0.044
Mof_C 	C 	0.3004	0.2454	0.8354	-0.027
Mof_H 	H 	0.2906	0.2632	0.8196	0.03
Mof_C 	C 	0.2617	0.2207	0.8505	-0.088
Mof_H 	H 	0.226	0.2223	0.8452	0.047
Mof_C 	C 	0.2521	0.1898	0.9192	0.036
Mof_C 	C 	0.306	0.1846	0.9255	0.024
Mof_C 	C 	0.3233	0.2028	0.9501	-0.069
Mof_H 	H 	0.359	0.1994	0.9552	0.051
Mof_C 	C 	0.286	0.2267	0.9674	-0.041
Mof_H 	H 	0.2968	0.2393	0.9842	0.038
Mof_C 	C 	0.2356	0.2313	0.9599	-0.015
Mof_H 	H 	0.2111	0.2466	0.9718	0.034
Mof_C 	C 	0.2188	0.2145	0.9357	-0.087
Mof_H 	H 	0.1835	0.2202	0.9305	0.057
Mof_C 	C 	0.9756	0.683	0.8708	0.358
Mof_O 	O 	0.0031	0.6605	0.8532	-0.46
Mof_O 	O 	0.9365	0.6642	0.88287	-0.489
Mof_C 	C 	0.014	0.9055	0.882	0.458
Mof_O 	O 	0.0389	0.9278	0.8663	-0.523
Mof_O 	O 	0.9869	0.9295	0.8992	-0.498
Mof_C 	C 	0.9877	0.7392	0.87554	-0.102
Mof_C 	C 	0.0027	0.771	0.8544	-0.021
Mof_H 	H 	0.0067	0.7552	0.8375	0.046
Mof_C 	C 	0.0118	0.822	0.8566	0.008
Mof_H 	H 	0.0206	0.8418	0.8413	0.043
Mof_C 	C 	0.0086	0.847	0.8815	-0.138
Mof_C 	C 	0.996	0.8162	0.9036	0.056
Mof_C 	C 	0.9838	0.7625	0.90014	0.036
Mof_C 	C 	0.9919	0.834	0.93258	-0.106
Mof_H 	H 	0.9984	0.8724	0.9349	0.074
Mof_C 	C 	0.9739	0.7354	0.92705	-0.09
Mof_H 	H 	0.9668	0.6971	0.9249	0.067
Mof_C 	C 	0.0318	0.7991	0.9481	0.032
Mof_C 	C 	0.0197	0.745	0.9448	0.022
Mof_C 	C 	0.0509	0.7058	0.9565	-0.075
Mof_H 	H 	0.0454	0.6694	0.9536	0.049
Mof_C 	C 	0.0913	0.7254	0.9733	-0.032
Mof_H 	H 	0.1134	0.7008	0.9819	0.03
Mof_C 	C 	0.0997	0.7749	0.9775	-0.025
Mof_H 	H 	0.1263	0.7855	0.9895	0.033
Mof_C 	C 	0.0696	0.8125	0.9643	-0.085
Mof_H 	H 	0.0768	0.8486	0.9671	0.056
Mof_C 	C 	0.9381	0.8177	0.94156	0.041
Mof_C 	C 	0.9285	0.7633	0.9388	0.024
Mof_C 	C 	0.8795	0.7433	0.9459	-0.065
Mof_H 	H 	0.8705	0.7079	0.9422	0.058
Mof_C 	C 	0.8423	0.7782	0.9592	-0.041
Mof_H 	H 	0.8098	0.7656	0.9657	0.043
Mof_C 	C 	0.8557	0.8279	0.9619	-0.014
Mof_H 	H 	0.8315	0.8507	0.9703	0.037
Mof_C 	C 	0.9028	0.8491	0.9531	-0.086
Mof_H 	H 	0.9098	0.8854	0.9553	0.06
Mof_C 	C 	0.5411	0.0028	0.95511	0.391
Mof_O 	O 	0.5796	0.9838	0.94262	-0.48
Mof_O 	O 	0.5052	0.0233	0.9429	-0.468
Mof_C 	C 	0.5445	0.969	0.06789	0.444
Mof_O 	O 	0.5804	0.9424	0.07626	-0.512
Mof_O 	O 	0.5134	0.9952	0.0812	-0.545
Mof_C 	C 	0.5367	0.9928	0.98403	-0.117
Mof_C 	C 	0.5829	0.9748	0.99689	-0.023
Mof_H 	H 	0.6132	0.9665	0.9868	0.048
Mof_C 	C 	0.5833	0.9697	0.02326	0.008
Mof_H 	H 	0.6158	0.9633	0.0319	0.036
Mof_C 	C 	0.5387	0.9732	0.03838	-0.133
Mof_C 	C 	0.4921	0.9901	0.02643	0.052
Mof_C 	C 	0.4918	0.9993	0.99881	0.051
Mof_C 	C 	0.438	0.9976	0.0389	-0.096
Mof_H 	H 	0.438	0.9908	0.0584	0.075
Mof_C 	C 	0.4372	0.0156	0.9894	-0.109
Mof_H 	H 	0.4367	0.0222	0.9699	0.088
Mof_C 	C 	0.3997	0.9616	0.0236	0.024
Mof_C 	C 	0.3995	0.973	0.9969	0.037
Mof_C 	C 	0.3634	0.9492	0.9798	-0.083
Mof_H 	H 	0.3608	0.957	0.9614	0.061
Mof_C 	C 	0.3308	0.9118	0.9931	-0.02
Mof_H 	H 	0.3023	0.8978	0.9833	0.034
Mof_C 	C 	0.3365	0.8954	0.017	-0.033
Mof_H 	H 	0.3219	0.8635	0.0233	0.037
Mof_C 	C 	0.3653	0.928	0.0323	-0.072
Mof_H 	H 	0.36	0.9262	0.0509	0.055
Mof_C 	C 	0.4234	0.0526	0.0322	0.028
Mof_C 	C 	0.422	0.0623	0.0043	0.037
Mof_C 	C 	0.4074	0.1111	0.9952	-0.083
Mof_H 	H 	0.4046	0.1183	0.9768	0.071
Mof_C 	C 	0.3967	0.1501	0.0144	-0.028
Mof_H 	H 	0.3933	0.1856	0.009	0.038
Mof_C 	C 	0.3912	0.138	0.0402	-0.031
Mof_H 	H 	0.3763	0.1627	0.0521	0.042
Mof_C 	C 	0.4072	0.0897	0.0492	-0.08
Mof_H 	H 	0.4067	0.0825	0.0677	0.058
Mof_C 	C 	0.6712	0.0341	0.8784	0.394
Mof_O 	O 	0.6491	0.0696	0.865	-0.516
Mof_O 	O 	0.6493	0.0026	0.894	-0.519
Mof_C 	C 	0.8981	0.0425	0.8742	0.371
Mof_O 	O 	0.9174	0.0595	0.85378	-0.365
Mof_O 	O 	0.9228	0.0341	0.89538	-0.476
Mof_C 	C 	0.73	0.03	0.8772	-0.116
Mof_C 	C 	0.7565	0.0679	0.8619	0.004
Mof_H 	H 	0.7359	0.0923	0.8522	0.046
Mof_C 	C 	0.8087	0.0716	0.8602	-0.021
Mof_H 	H 	0.8247	0.0975	0.8493	0.063
Mof_C 	C 	0.8394	0.0357	0.875	-0.072
Mof_C 	C 	0.8162	0.9969	0.8905	0.032
Mof_C 	C 	0.7603	0.9941	0.8905	0.061
Mof_C 	C 	0.8424	0.9567	0.9083	-0.084
Mof_H 	H 	0.8812	0.9619	0.9096	0.068
Mof_C 	C 	0.7432	0.9457	0.9059	-0.106
Mof_H 	H 	0.7043	0.9409	0.905	0.08
Mof_C 	C 	0.8273	0.9017	0.8969	0.03
Mof_C 	C 	0.7714	0.8987	0.8949	0.037
Mof_C 	C 	0.7482	0.8544	0.884	-0.083
Mof_H 	H 	0.7113	0.8496	0.883	0.062
Mof_C 	C 	0.7848	0.8172	0.8745	-0.016
Mof_H 	H 	0.7713	0.7894	0.8639	0.035
Mof_C 	C 	0.8351	0.8172	0.8787	-0.031
Mof_H 	H 	0.8559	0.7871	0.8752	0.045
Mof_C 	C 	0.8576	0.8634	0.8888	-0.07
Mof_H 	H 	0.8946	0.8668	0.8898	0.071
Mof_C 	C 	0.8156	0.9624	0.9346	0.027
Mof_C 	C 	0.7609	0.9526	0.9336	0.035
Mof_C 	C 	0.7338	0.9568	0.9572	-0.081
Mof_H 	H 	0.6968	0.9529	0.9574	0.06
Mof_C 	C 	0.7616	0.9669	0.9811	-0.027
Mof_H 	H 	0.7439	0.9646	0.9976	0.042
Mof_C 	C 	0.8125	0.9796	0.9805	-0.027
Mof_H 	H 	0.8288	0.9946	0.9956	0.04
Mof_C 	C 	0.8408	0.971	0.9581	-0.072
Mof_H 	H 	0.878	0.9711	0.9588	0.054
Mof_C 	C 	0.9834	0.4072	0.8683	0.397
Mof_O 	O 	0.0182	0.4325	0.88054	-0.483
Mof_O 	O 	0.9444	0.4261	0.85691	-0.502
Mof_C 	C 	0.0152	0.1828	0.8679	0.416
Mof_O 	O 	0.0495	0.1681	0.88329	-0.542
Mof_O 	O 	0.9883	0.1527	0.8536	-0.573
Mof_C 	C 	0.9898	0.3491	0.8671	-0.108
Mof_C 	C 	0.0117	0.3233	0.889	-0.018
Mof_H 	H 	0.0221	0.3431	0.904	0.043
Mof_C 	C 	0.0182	0.2713	0.889	0.002
Mof_H 	H 	0.0317	0.2546	0.9044	0.039
Mof_C 	C 	0.0054	0.2411	0.8668	-0.13
Mof_C 	C 	0.9825	0.2642	0.84455	0.048
Mof_C 	C 	0.9741	0.3196	0.8454	0.051
Mof_C 	C 	0.9631	0.2393	0.8195	-0.091
Mof_H 	H 	0.9666	0.2003	0.8196	0.054
Mof_C 	C 	0.9522	0.339	0.8194	-0.105
Mof_H 	H 	0.9477	0.3779	0.8195	0.078
Mof_C 	C 	0.994	0.2653	0.7963	0.01
Mof_C 	C 	0.989	0.3217	0.7978	0.045
Mof_C 	C 	0.0155	0.353	0.7795	-0.092
Mof_H 	H 	0.0138	0.3902	0.7801	0.068
Mof_C 	C 	0.0452	0.326	0.76	-0.006
Mof_H 	H 	0.0606	0.3459	0.7461	0.037
Mof_C 	C 	0.0524	0.2757	0.7601	-0.051
Mof_H 	H 	0.075	0.2597	0.7475	0.044
Mof_C 	C 	0.026	0.245	0.7793	-0.054
Mof_H 	H 	0.032	0.2083	0.7797	0.017
Mof_C 	C 	0.907	0.2571	0.8164	0.039
Mof_C 	C 	0.9016	0.312	0.8155	0.034
Mof_C 	C 	0.8524	0.3324	0.8136	-0.068
Mof_H 	H 	0.8481	0.3694	0.8132	0.057
Mof_C 	C 	0.8065	0.299	0.8119	-0.04
Mof_H 	H 	0.7722	0.3133	0.8114	0.046
Mof_C 	C 	0.8145	0.2466	0.8111	-0.01
Mof_H 	H 	0.7853	0.2236	0.8098	0.036
Mof_C 	C 	0.8646	0.2263	0.812	-0.084
Mof_H 	H 	0.8695	0.1897	0.8096	0.076
Mof_C 	C 	0.0395	0.0573	0.9433	0.421
Mof_O 	O 	0.0124	0.0181	0.93422	-0.507
Mof_O 	O 	0.0565	0.0926	0.93037	-0.529
Mof_C 	C 	0.0494	0.0519	0.9716	-0.127
Mof_C 	C 	0.0153	0.02	0.9869	-0.012
Mof_H 	H 	0.9882	0.0012	0.9782	0.051
Mof_C 	C 	0.0827	0.0856	0.9866	0.048
Mof_C 	C 	0.1217	0.125	0.9745	-0.091
Mof_H 	H 	0.1202	0.1262	0.9547	0.075
Mof_C 	C 	0.1078	0.1784	0.98769	0.029
Mof_C 	C 	0.091	0.2218	0.9734	-0.074
Mof_H 	H 	0.0887	0.2216	0.9547	0.057
Mof_C 	C 	0.1769	0.1061	0.9854	0.027
Mof_C 	C 	0.219	0.0961	0.9703	-0.073
Mof_H 	H 	0.2176	0.0978	0.9515	0.063
Mof_C 	C 	0.078	0.2652	0.9883	-0.026
Mof_H 	H 	0.0653	0.2956	0.9795	0.042
Mof_C 	C 	0.2663	0.0827	0.9842	-0.03
Mof_H 	H 	0.298	0.0772	0.9748	0.046
Mof_O 	O 	0.5323	0.0484	0.88754	-0.961
Mof_O 	O 	0.0083	0.0618	0.8133	4.351
Mof_C 	C 	0.0296	0.0118	0.7773	0.669
Mof_C 	C 	0.0366	0.0208	0.806	1.421
Mof_O 	O 	0.0705	0.9997	0.8181	-1.334
Mof_C 	C 	0.967	0.009	0.7641	0.472
Mof_C 	C 	0.101	0.9377	0.771	-0.093
Mof_H 	H 	0.1149	0.9429	0.7894	0.055
Mof_C 	C 	0.0613	0.8915	0.7701	0.113
Mof_C 	C 	0.074	0.8496	0.7861	0.58
Mof_H 	H 	0.0884	0.8534	0.8033	-0.175
Mof_C 	C 	0.062	0.8011	0.7749	-0.787
Mof_C 	C 	0.0389	0.953	0.7659	0.265
Mof_C 	C 	0.1783	0.96	0.7655	1.097
Mof_H 	H 	0.1784	0.968	0.7838	-0.345
Mof_C 	C 	0.2243	0.964	0.751	-0.5
Mof_C 	C 	0.1327	0.943	0.7539	0.189
Mof_C 	C 	0.0892	0.9231	0.7741	-0.066
Mof_C 	C 	0.0684	0.9858	0.762	-0.343
Mof_H 	H 	0.099	0.9283	0.7931	0.04
Mof_O 	O 	0.1491	0.952	0.8382	-0.264
Mof_C 	C 	0.1572	0.9064	0.846	0.131
Mof_H 	H 	0.1338	0.8927	0.8589	0.142
Mof_N 	N 	0.1956	0.8752	0.8379	-0.232
Mof_C 	C 	0.234	0.899	0.8201	0.085
Mof_H 	H 	0.224	0.9358	0.8169	0.009
Mof_H 	H 	0.2344	0.8801	0.8033	-0.693
Mof_H 	H 	0.2687	0.8979	0.8283	0.089
Mof_C 	C 	0.2113	0.827	0.8462	-0.736
Mof_H 	H 	0.2447	0.818	0.8377	0.273
Mof_H 	H 	0.1847	0.801	0.8413	0.069
Mof_H 	H 	0.2158	0.8273	0.8655	0.249
Mof_O 	O 	0.5192	0.1099	0.9517	-0.332
Mof_C 	C 	0.527	0.1567	0.9563	-0.029
Mof_H 	H 	0.523	0.1808	0.9421	0.191
Mof_N 	N 	0.5407	0.176	0.9802	-0.33
Mof_C 	C 	0.5499	0.1395	0.0017	-0.234
Mof_H 	H 	0.5684	0.1575	0.0161	-0.081
Mof_H 	H 	0.5714	0.1102	0.9953	0.093
Mof_H 	H 	0.5163	0.1261	0.0082	0.257
Mof_C 	C 	0.5454	0.2268	0.9872	0.092
Mof_H 	H 	0.5515	0.2293	0.0063	-0.008
Mof_H 	H 	0.5131	0.2455	0.9826	-0.021
Mof_H 	H 	0.575	0.2424	0.9776	-0.02
Mof_O 	O 	0.5061	0.1487	0.9426	-0.437
Mof_C 	C 	0.507	0.1452	0.9671	0.485
Mof_H 	H 	0.4756	0.1334	0.9752	-0.118
Mof_N 	N 	0.547	0.1557	0.9838	0.202
Mof_C 	C 	0.538	0.149	0.0119	-0.128
Mof_H 	H 	0.571	0.1526	0.0215	0.19
Mof_H 	H 	0.5235	0.1136	0.0151	-0.127
Mof_H 	H 	0.5128	0.1752	0.0182	0.053
Mof_C 	C 	0.597	0.169	0.9781	-0.253
Mof_H 	H 	0.6167	0.1736	0.9946	0.094
Mof_H 	H 	0.5975	0.2018	0.968	0.105
Mof_H 	H 	0.6133	0.1411	0.9676	0.084
Mof_C 	C 	0.0216	0.0104	0.8059	-1.292
Mof_O 	O 	0.9913	0.0505	0.8122	-4.753
Mof_O 	O 	0.0479	0.9846	0.8206	0.783
Mof_H 	H 	0.9314	0.0063	0.7693	0.022
Mof_C 	C 	0.0115	0.994	0.7783	-0.488
Mof_C 	C 	0.0047	0.0472	0.7609	-0.421
Mof_C 	C 	0.07	0.8654	0.7677	-0.288
Mof_H 	H 	0.0871	0.7813	0.7846	0.151
Mof_C 	C 	0.066	0.8274	0.7855	-0.051
Mof_H 	H 	0.0763	0.8328	0.8034	0.004
Mof_C 	C 	0.1474	0.9395	0.7496	-0.19
Mof_C 	C 	0.1968	0.9435	0.758	-0.74
Mof_C 	C 	0.2382	0.957	0.739	0.56
Mof_H 	H 	0.2559	0.9751	0.7594	0.142
Mof_C 	C 	0.047	0.7764	0.7763	0.615
Mof_H 	H 	0.0286	0.7275	0.7624	-0.177
Mof_H 	H 	0.2052	0.9376	0.7761	0.1
Mof_H 	H 	0.0417	0.747	0.7876	-0.217
Mof_O 	O 	0.9609	0.9563	0.37185	-0.999
Mof_Zn	Zn	0.00412	0.99466	0.39746	1.211
Mof_Zn	Zn	0.49966	0.90977	0.41604	1.234
Mof_Zn	Zn	0.07616	0.41096	0.38569	1.21
Mof_Zn	Zn	0.42311	0.00226	0.40438	1.208
Mof_Zn	Zn	0.00814	0.92268	0.34759	1.17
Mof_Zn	Zn	0.92791	0.9019	0.39221	1.207
Mof_Zn	Zn	0.51846	0.99084	0.36774	1.216
Mof_Zn	Zn	0.9115	0.00684	0.35729	1.231
Mof_O 	O 	0.8667	0.0729	0.3534	-0.436
Mof_C 	C 	0.8274	0.0785	0.3387	0.253
Mof_H 	H 	0.8101	0.0485	0.3319	0.023
Mof_N 	N 	0.8096	0.1268	0.3326	-0.001
Mof_C 	C 	0.8319	0.1714	0.3455	0.519
Mof_H 	H 	0.8124	0.2029	0.3404	-0.018
Mof_H 	H 	0.8686	0.1752	0.3402	-0.154
Mof_H 	H 	0.83	0.1667	0.3647	-0.122
Mof_C 	C 	0.7682	0.1399	0.3163	0.501
Mof_H 	H 	0.7621	0.1778	0.3172	-0.181
Mof_H 	H 	0.7366	0.1213	0.3221	-0.15
Mof_H 	H 	0.7766	0.1299	0.298	0.497
Mof_C 	C 	0.6038	0.9476	0.4008	0.381
Mof_O 	O 	0.5837	0.9834	0.3862	-0.503
Mof_O 	O 	0.5783	0.9187	0.41592	-0.454
Mof_C 	C 	0.8271	0.9352	0.3824	0.437
Mof_O 	O 	0.8455	0.9677	0.3676	-0.531
Mof_O 	O 	0.8532	0.8997	0.393	-0.528
Mof_C 	C 	0.6617	0.9421	0.3983	-0.11
Mof_C 	C 	0.6914	0.9871	0.3937	-0.019
Mof_H 	H 	0.6751	0.0205	0.3946	0.045
Mof_C 	C 	0.7438	0.9839	0.3879	-0.001
Mof_H 	H 	0.7627	0.0148	0.3836	0.035
Mof_C 	C 	0.7698	0.9355	0.3884	-0.137
Mof_C 	C 	0.7415	0.8896	0.3934	0.056
Mof_C 	C 	0.6878	0.8942	0.4001	0.04
Mof_C 	C 	0.7606	0.833	0.39241	-0.104
Mof_H 	H 	0.7987	0.8303	0.388	0.072
Mof_C 	C 	0.6622	0.8409	0.40424	-0.095
Mof_H 	H 	0.6242	0.8436	0.409	0.077
Mof_C 	C 	0.7254	0.8045	0.3721	0.029
Mof_C 	C 	0.6713	0.8087	0.3794	0.024
Mof_C 	C 	0.6317	0.7836	0.3649	-0.078
Mof_H 	H 	0.5957	0.7851	0.3697	0.062
Mof_C 	C 	0.651	0.7554	0.3422	-0.036
Mof_H 	H 	0.6266	0.7363	0.3318	0.044
Mof_C 	C 	0.6996	0.7546	0.3354	-0.027
Mof_H 	H 	0.7094	0.7368	0.3196	0.03
Mof_C 	C 	0.7383	0.7793	0.3505	-0.088
Mof_H 	H 	0.774	0.7777	0.3452	0.047
Mof_C 	C 	0.7479	0.8102	0.4192	0.036
Mof_C 	C 	0.694	0.8154	0.4255	0.024
Mof_C 	C 	0.6767	0.7972	0.4501	-0.069
Mof_H 	H 	0.641	0.8006	0.4552	0.051
Mof_C 	C 	0.714	0.7733	0.4674	-0.041
Mof_H 	H 	0.7032	0.7607	0.4842	0.038
Mof_C 	C 	0.7644	0.7687	0.4599	-0.015
Mof_H 	H 	0.7889	0.7534	0.4718	0.034
Mof_C 	C 	0.7812	0.7855	0.4357	-0.087
Mof_H 	H 	0.8165	0.7798	0.4305	0.057
Mof_C 	C 	0.0244	0.317	0.3708	0.358
Mof_O 	O 	0.9969	0.3395	0.3532	-0.46
Mof_O 	O 	0.0635	0.3358	0.38287	-0.489
Mof_C 	C 	0.986	0.0945	0.382	0.458
Mof_O 	O 	0.9611	0.0722	0.3663	-0.523
Mof_O 	O 	0.0131	0.0705	0.3992	-0.498
Mof_C 	C 	0.0123	0.2608	0.37554	-0.102
Mof_C 	C 	0.9973	0.229	0.3544	-0.021
Mof_H 	H 	0.9933	0.2448	0.3375	0.046
Mof_C 	C 	0.9882	0.178	0.3566	0.008
Mof_H 	H 	0.9794	0.1582	0.3413	0.043
Mof_C 	C 	0.9914	0.153	0.3815	-0.138
Mof_C 	C 	0.004	0.1838	0.4036	0.056
Mof_C 	C 	0.0162	0.2375	0.40014	0.036
Mof_C 	C 	0.0081	0.166	0.43258	-0.106
Mof_H 	H 	0.0016	0.1276	0.4349	0.074
Mof_C 	C 	0.0261	0.2646	0.42705	-0.09
Mof_H 	H 	0.0332	0.3029	0.4249	0.067
Mof_C 	C 	0.9682	0.2009	0.4481	0.032
Mof_C 	C 	0.9803	0.255	0.4448	0.022
Mof_C 	C 	0.9491	0.2942	0.4565	-0.075
Mof_H 	H 	0.9546	0.3306	0.4536	0.049
Mof_C 	C 	0.9087	0.2746	0.4733	-0.032
Mof_H 	H 	0.8866	0.2992	0.4819	0.03
Mof_C 	C 	0.9003	0.2251	0.4775	-0.025
Mof_H 	H 	0.8737	0.2145	0.4895	0.033
Mof_C 	C 	0.9304	0.1875	0.4643	-0.085
Mof_H 	H 	0.9232	0.1514	0.4671	0.056
Mof_C 	C 	0.0619	0.1823	0.44156	0.041
Mof_C 	C 	0.0715	0.2367	0.4388	0.024
Mof_C 	C 	0.1205	0.2567	0.4459	-0.065
Mof_H 	H 	0.1295	0.2921	0.4422	0.058
Mof_C 	C 	0.1577	0.2218	0.4592	-0.041
Mof_H 	H 	0.1902	0.2344	0.4657	0.043
Mof_C 	C 	0.1443	0.1721	0.4619	-0.014
Mof_H 	H 	0.1685	0.1493	0.4703	0.037
Mof_C 	C 	0.0972	0.1509	0.4531	-0.086
Mof_H 	H 	0.0902	0.1146	0.4553	0.06
Mof_C 	C 	0.4589	0.9972	0.45511	0.391
Mof_O 	O 	0.4204	0.0162	0.44262	-0.48
Mof_O 	O 	0.4948	0.9767	0.4429	-0.468
Mof_C 	C 	0.4555	0.031	0.56789	0.444
Mof_O 	O 	0.4196	0.0576	0.57626	-0.512
Mof_O 	O 	0.4866	0.0048	0.5812	-0.545
Mof_C 	C 	0.4633	0.0072	0.48403	-0.117
Mof_C 	C 	0.4171	0.0252	0.49689	-0.023
Mof_H 	H 	0.3868	0.0335	0.4868	0.048
Mof_C 	C 	0.4167	0.0303	0.52326	0.008
Mof_H 	H 	0.3842	0.0367	0.5319	0.036
Mof_C 	C 	0.4613	0.0268	0.53838	-0.133
Mof_C 	C 	0.5079	0.0099	0.52643	0.052
Mof_C 	C 	0.5082	0.0007	0.49881	0.051
Mof_C 	C 	0.562	0.0024	0.5389	-0.096
Mof_H 	H 	0.562	0.0092	0.5584	0.075
Mof_C 	C 	0.5628	0.9844	0.4894	-0.109
Mof_H 	H 	0.5633	0.9778	0.4699	0.088
Mof_C 	C 	0.6003	0.0384	0.5236	0.024
Mof_C 	C 	0.6005	0.027	0.4969	0.037
Mof_C 	C 	0.6366	0.0508	0.4798	-0.083
Mof_H 	H 	0.6392	0.043	0.4614	0.061
Mof_C 	C 	0.6692	0.0882	0.4931	-0.02
Mof_H 	H 	0.6977	0.1022	0.4833	0.034
Mof_C 	C 	0.6635	0.1046	0.517	-0.034
Mof_H 	H 	0.6781	0.1365	0.5233	0.037
Mof_C 	C 	0.6347	0.072	0.5323	-0.072
Mof_H 	H 	0.64	0.0738	0.5509	0.055
Mof_C 	C 	0.5766	0.9474	0.5322	0.028
Mof_C 	C 	0.578	0.9377	0.5043	0.037
Mof_C 	C 	0.5926	0.8889	0.4952	-0.084
Mof_H 	H 	0.5954	0.8817	0.4768	0.071
Mof_C 	C 	0.6033	0.8499	0.5144	-0.027
Mof_H 	H 	0.6067	0.8144	0.509	0.038
Mof_C 	C 	0.6088	0.862	0.5402	-0.031
Mof_H 	H 	0.6237	0.8373	0.5521	0.042
Mof_C 	C 	0.5928	0.9103	0.5492	-0.08
Mof_H 	H 	0.5933	0.9175	0.5677	0.058
Mof_C 	C 	0.3288	0.9659	0.3784	0.394
Mof_O 	O 	0.3509	0.9304	0.365	-0.516
Mof_O 	O 	0.3507	0.9974	0.394	-0.519
Mof_C 	C 	0.1019	0.9575	0.3742	0.371
Mof_O 	O 	0.0826	0.9405	0.35378	-0.365
Mof_O 	O 	0.0772	0.9659	0.39538	-0.476
Mof_C 	C 	0.27	0.97	0.3772	-0.116
Mof_C 	C 	0.2435	0.9321	0.3619	0.004
Mof_H 	H 	0.2641	0.9077	0.3522	0.046
Mof_C 	C 	0.1913	0.9284	0.3602	-0.021
Mof_H 	H 	0.1753	0.9025	0.3493	0.063
Mof_C 	C 	0.1606	0.9643	0.375	-0.072
Mof_C 	C 	0.1838	0.0031	0.3905	0.032
Mof_C 	C 	0.2397	0.0059	0.3905	0.061
Mof_C 	C 	0.1576	0.0433	0.4083	-0.084
Mof_H 	H 	0.1188	0.0381	0.4096	0.068
Mof_C 	C 	0.2568	0.0543	0.4059	-0.106
Mof_H 	H 	0.2957	0.0591	0.405	0.08
Mof_C 	C 	0.1727	0.0983	0.3969	0.03
Mof_C 	C 	0.2286	0.1013	0.3949	0.037
Mof_C 	C 	0.2518	0.1456	0.384	-0.083
Mof_H 	H 	0.2887	0.1504	0.383	0.062
Mof_C 	C 	0.2152	0.1828	0.3745	-0.016
Mof_H 	H 	0.2287	0.2106	0.3639	0.035
Mof_C 	C 	0.1649	0.1828	0.3787	-0.031
Mof_H 	H 	0.1441	0.2129	0.3752	0.045
Mof_C 	C 	0.1424	0.1366	0.3888	-0.07
Mof_H 	H 	0.1054	0.1332	0.3898	0.071
Mof_C 	C 	0.1844	0.0376	0.4346	0.027
Mof_C 	C 	0.2391	0.0474	0.4336	0.035
Mof_C 	C 	0.2662	0.0432	0.4572	-0.081
Mof_H 	H 	0.3032	0.0471	0.4574	0.06
Mof_C 	C 	0.2384	0.0331	0.4811	-0.027
Mof_H 	H 	0.2561	0.0354	0.4976	0.042
Mof_C 	C 	0.1875	0.0204	0.4805	-0.027
Mof_H 	H 	0.1712	0.0054	0.4956	0.04
Mof_C 	C 	0.1592	0.029	0.4581	-0.072
Mof_H 	H 	0.122	0.0289	0.4588	0.054
Mof_C 	C 	0.0166	0.5928	0.3683	0.397
Mof_O 	O 	0.9818	0.5675	0.38054	-0.483
Mof_O 	O 	0.0556	0.5739	0.35691	-0.502
Mof_C 	C 	0.9848	0.8172	0.3679	0.416
Mof_O 	O 	0.9505	0.8319	0.38329	-0.542
Mof_O 	O 	0.0117	0.8473	0.3536	-0.573
Mof_C 	C 	0.0102	0.6509	0.3671	-0.108
Mof_C 	C 	0.9883	0.6767	0.389	-0.018
Mof_H 	H 	0.9779	0.6569	0.404	0.043
Mof_C 	C 	0.9818	0.7287	0.389	0.002
Mof_H 	H 	0.9683	0.7454	0.4044	0.039
Mof_C 	C 	0.9946	0.7589	0.3668	-0.13
Mof_C 	C 	0.0175	0.7358	0.34455	0.048
Mof_C 	C 	0.0259	0.6804	0.3454	0.051
Mof_C 	C 	0.0369	0.7607	0.3195	-0.091
Mof_H 	H 	0.0334	0.7997	0.3196	0.054
Mof_C 	C 	0.0478	0.661	0.3194	-0.105
Mof_H 	H 	0.0523	0.6221	0.3195	0.078
Mof_C 	C 	0.006	0.7347	0.2963	0.01
Mof_C 	C 	0.011	0.6783	0.2978	0.045
Mof_C 	C 	0.9845	0.647	0.2795	-0.092
Mof_H 	H 	0.9862	0.6098	0.2801	0.068
Mof_C 	C 	0.9548	0.674	0.26	-0.006
Mof_H 	H 	0.9394	0.6541	0.2461	0.037
Mof_C 	C 	0.9476	0.7243	0.2601	-0.051
Mof_H 	H 	0.925	0.7403	0.2475	0.044
Mof_C 	C 	0.974	0.755	0.2793	-0.054
Mof_H 	H 	0.968	0.7917	0.2797	0.017
Mof_C 	C 	0.093	0.7429	0.3164	0.039
Mof_C 	C 	0.0984	0.688	0.3155	0.034
Mof_C 	C 	0.1476	0.6676	0.3136	-0.068
Mof_H 	H 	0.1519	0.6306	0.3132	0.057
Mof_C 	C 	0.1935	0.701	0.3119	-0.04
Mof_H 	H 	0.2278	0.6867	0.3114	0.046
Mof_C 	C 	0.1855	0.7534	0.3111	-0.01
Mof_H 	H 	0.2147	0.7764	0.3098	0.036
Mof_C 	C 	0.1354	0.7737	0.312	-0.084
Mof_H 	H 	0.1305	0.8103	0.3096	0.076
Mof_C 	C 	0.9605	0.9427	0.4433	0.421
Mof_O 	O 	0.9876	0.9819	0.43422	-0.507
Mof_O 	O 	0.9435	0.9074	0.43037	-0.529
Mof_C 	C 	0.9506	0.9481	0.4716	-0.127
Mof_C 	C 	0.9847	0.98	0.4869	-0.012
Mof_H 	H 	0.0118	0.9988	0.4782	0.051
Mof_C 	C 	0.9173	0.9144	0.4866	0.048
Mof_C 	C 	0.8783	0.875	0.4745	-0.091
Mof_H 	H 	0.8798	0.8738	0.4547	0.075
Mof_C 	C 	0.8922	0.8216	0.48769	0.029
Mof_C 	C 	0.909	0.7782	0.4734	-0.074
Mof_H 	H 	0.9113	0.7784	0.4547	0.057
Mof_C 	C 	0.8231	0.8939	0.4854	0.027
Mof_C 	C 	0.781	0.9039	0.4703	-0.073
Mof_H 	H 	0.7824	0.9022	0.4515	0.063
Mof_C 	C 	0.922	0.7348	0.4883	-0.026
Mof_H 	H 	0.9347	0.7044	0.4795	0.042
Mof_C 	C 	0.7337	0.9173	0.4842	-0.03
Mof_H 	H 	0.702	0.9228	0.4748	0.046
Mof_O 	O 	0.4677	0.9516	0.38754	-0.961
Mof_O 	O 	0.9917	0.9382	0.3133	4.351
Mof_C 	C 	0.9704	0.9882	0.2773	0.669
Mof_C 	C 	0.9634	0.9792	0.306	1.421
Mof_O 	O 	0.9295	0.0003	0.3181	-1.334
Mof_C 	C 	0.033	0.991	0.2641	0.472
Mof_C 	C 	0.899	0.0623	0.271	-0.094
Mof_H 	H 	0.8851	0.0571	0.2894	0.055
Mof_C 	C 	0.9387	0.1085	0.2701	0.113
Mof_C 	C 	0.926	0.1504	0.2861	0.58
Mof_H 	H 	0.9116	0.1466	0.3033	-0.175
Mof_C 	C 	0.938	0.1989	0.2749	-0.787
Mof_C 	C 	0.9611	0.047	0.2659	0.265
Mof_C 	C 	0.8217	0.04	0.2655	1.097
Mof_H 	H 	0.8216	0.032	0.2838	-0.345
Mof_C 	C 	0.7757	0.036	0.251	-0.5
Mof_C 	C 	0.8673	0.057	0.2539	0.189
Mof_C 	C 	0.9108	0.0769	0.2741	-0.066
Mof_C 	C 	0.9316	0.0142	0.262	-0.343
Mof_H 	H 	0.901	0.0717	0.2931	0.04
Mof_O 	O 	0.8509	0.048	0.3382	-0.264
Mof_C 	C 	0.8428	0.0936	0.346	0.131
Mof_H 	H 	0.8662	0.1073	0.3589	0.142
Mof_N 	N 	0.8044	0.1248	0.3379	-0.232
Mof_C 	C 	0.766	0.101	0.3201	0.085
Mof_H 	H 	0.776	0.0642	0.3169	0.009
Mof_H 	H 	0.7656	0.1199	0.3033	-0.693
Mof_H 	H 	0.7313	0.1021	0.3283	0.089
Mof_C 	C 	0.7887	0.173	0.3462	-0.736
Mof_H 	H 	0.7553	0.182	0.3377	0.273
Mof_H 	H 	0.8153	0.199	0.3413	0.069
Mof_H 	H 	0.7842	0.1727	0.3655	0.249
Mof_O 	O 	0.4808	0.8901	0.4517	-0.332
Mof_C 	C 	0.473	0.8433	0.4563	-0.029
Mof_H 	H 	0.477	0.8192	0.4421	0.191
Mof_N 	N 	0.4593	0.824	0.4802	-0.329
Mof_C 	C 	0.4501	0.8605	0.5017	-0.234
Mof_H 	H 	0.4316	0.8425	0.5161	-0.081
Mof_H 	H 	0.4286	0.8898	0.4953	0.093
Mof_H 	H 	0.4837	0.8739	0.5082	0.257
Mof_C 	C 	0.4546	0.7732	0.4872	0.092
Mof_H 	H 	0.4485	0.7707	0.5063	-0.008
Mof_H 	H 	0.4869	0.7545	0.4826	-0.021
Mof_H 	H 	0.425	0.7576	0.4776	-0.02
Mof_O 	O 	0.4939	0.8513	0.4426	-0.437
Mof_C 	C 	0.493	0.8548	0.4671	0.485
Mof_H 	H 	0.5244	0.8666	0.4752	-0.118
Mof_N 	N 	0.453	0.8443	0.4838	0.202
Mof_C 	C 	0.462	0.851	0.5119	-0.128
Mof_H 	H 	0.429	0.8474	0.5215	0.19
Mof_H 	H 	0.4765	0.8864	0.5151	-0.127
Mof_H 	H 	0.4872	0.8248	0.5182	0.053
Mof_C 	C 	0.403	0.831	0.4781	-0.253
Mof_H 	H 	0.3833	0.8264	0.4946	0.094
Mof_H 	H 	0.4025	0.7982	0.468	0.105
Mof_H 	H 	0.3867	0.8589	0.4676	0.084
Mof_C 	C 	0.9784	0.9896	0.3059	-1.292
Mof_O 	O 	0.0087	0.9495	0.3122	-4.754
Mof_O 	O 	0.9521	0.0154	0.3206	0.783
Mof_H 	H 	0.0686	0.9937	0.2693	0.022
Mof_C 	C 	0.9885	0.006	0.2783	-0.488
Mof_C 	C 	0.9953	0.9528	0.2609	-0.421
Mof_C 	C 	0.93	0.1346	0.2677	-0.288
Mof_H 	H 	0.9129	0.2187	0.2846	0.151
Mof_C 	C 	0.934	0.1726	0.2855	-0.05
Mof_H 	H 	0.9237	0.1672	0.3034	0.004
Mof_C 	C 	0.8526	0.0605	0.2496	-0.19
Mof_C 	C 	0.8032	0.0565	0.258	-0.74
Mof_C 	C 	0.7618	0.043	0.239	0.56
Mof_H 	H 	0.7441	0.0249	0.2594	0.142
Mof_C 	C 	0.953	0.2236	0.2763	0.615
Mof_H 	H 	0.9714	0.2725	0.2624	-0.177
Mof_H 	H 	0.7948	0.0624	0.2761	0.1
Mof_H 	H 	0.9583	0.253	0.2876	-0.217
_end
