data_functionalizedCrystal
_audit_creation_method	'EQeq! by Chris Wilmer'
_symmetry_space_group_name_H-M	'P1'
_symmetry_Int_Tables_number	1
_symmetry_cell_setting	triclinic
loop_
_symmetry_equiv_pos_as_xyz
  x,y,z
_cell_length_a	28.8818
_cell_length_b	27.4017
_cell_length_c	26.7889
_cell_angle_alpha	90
_cell_angle_beta	104.86
_cell_angle_gamma	90
loop_
_atom_site_label
_atom_site_type_symbol
_atom_site_fract_x
_atom_site_fract_y
_atom_site_fract_z
_atom_site_charge
Mof_Mo	Mo	0.27872	0.43989	0.17288	1.017
Mof_Mo	Mo	0.19254	0.46321	0.17754	1.016
Mof_Mo	Mo	0.10998	0.36904	0.19061	1.017
Mof_Mo	Mo	0.13791	0.27816	0.19626	1.05
Mof_Mo	Mo	0.25058	0.23996	0.19215	1.299
Mof_Mo	Mo	0.32362	0.32363	0.18035	1.3
Mof_Mo	Mo	0.29999	0.37961	0.06152	1.001
Mof_Mo	Mo	0.15863	0.21682	0.08511	1.008
Mof_Mo	Mo	0.0927	0.43793	0.08061	1.302
Mof_Mo	Mo	0.11015	0.38359	0.98193	1.286
Mof_Mo	Mo	0.14689	0.26472	0.99846	0.997
Mof_Mo	Mo	0.22706	0.35701	0.98437	1.015
Mof_Zn	Zn	0.23886	0.35142	0.24933	1.225
Mof_Zn	Zn	0.19879	0.46491	0.04487	1.223
Mof_Zn	Zn	0.06608	0.31228	0.06702	1.222
Mof_Zn	Zn	0.22634	0.24719	0.92964	1.199
Mof_O 	O 	0.2616	0.3554	0.3225	-0.486
Mof_O 	O 	0.2033	0.4089	0.3243	-0.327
Mof_O 	O 	0.20766	0.48002	0.5031	-0.479
Mof_O 	O 	0.2804	0.4784	0.5581	-0.331
Mof_O 	O 	0.5025	0.2152	0.5469	-0.49
Mof_O 	O 	0.5308	0.2803	0.5962	-0.33
Mof_O 	O 	0.32295	0.386	0.2053	-0.642
Mof_O 	O 	0.27595	0.3054	0.21984	-0.782
Mof_O 	O 	0.202	0.2478	0.2244	-0.647
Mof_O 	O 	0.23886	0.41628	0.2171	-0.721
Mof_O 	O 	0.16944	0.3375	0.228	-0.726
Mof_O 	O 	0.148	0.4322	0.2185	-0.48
Mof_O 	O 	0.33856	0.3399	0.1208	-0.673
Mof_O 	O 	0.28976	0.26413	0.145	-0.796
Mof_O 	O 	0.31058	0.43824	0.1124	-0.477
Mof_O 	O 	0.21736	0.20111	0.14066	-0.675
Mof_O 	O 	0.22386	0.46776	0.1213	-0.719
Mof_O 	O 	0.12419	0.22171	0.1442	-0.479
Mof_O 	O 	0.13374	0.47994	0.1227	-0.657
Mof_O 	O 	0.09086	0.314	0.1436	-0.726
Mof_O 	O 	0.07111	0.40861	0.1317	-0.651
Mof_O 	O 	0.27181	0.3169	0.03519	-0.765
Mof_O 	O 	0.24185	0.41547	0.02751	-0.72
Mof_O 	O 	0.2043	0.23892	0.04715	-0.765
Mof_O 	O 	0.10924	0.26304	0.04963	-0.72
Mof_O 	O 	0.13334	0.44022	0.03098	-0.781
Mof_O 	O 	0.07861	0.3759	0.0405	-0.785
Mof_O 	O 	0.19194	0.29465	0.96111	-0.718
Mof_O 	O 	0.16317	0.39048	0.9581	-0.65
Mof_O 	O 	0.10067	0.31914	0.96861	-0.653
Mof_C 	C 	0.2388	0.3843	0.3457	0.322
Mof_C 	C 	0.2608	0.3877	0.4031	-0.106
Mof_C 	C 	0.3005	0.3602	0.4257	-0.002
Mof_H 	H 	0.3122	0.338	0.4057	0.028
Mof_C 	C 	0.3236	0.3648	0.4778	-0.055
Mof_C 	C 	0.3058	0.3987	0.5063	-0.005
Mof_H 	H 	0.3213	0.4028	0.541	0.029
Mof_C 	C 	0.2663	0.4266	0.4852	-0.104
Mof_C 	C 	0.2428	0.4214	0.433	0.019
Mof_H 	H 	0.2158	0.4399	0.4183	0.024
Mof_C 	C 	0.2507	0.4641	0.5188	0.311
Mof_C 	C 	0.3677	0.3361	0.5012	0.085
Mof_C 	C 	0.4043	0.3559	0.5393	-0.163
Mof_H 	H 	0.4011	0.3874	0.5509	0.07
Mof_C 	C 	0.4453	0.3303	0.5603	0.061
Mof_H 	H 	0.469	0.3444	0.5865	-0.001
Mof_C 	C 	0.4524	0.2835	0.5432	-0.156
Mof_C 	C 	0.4158	0.2631	0.5062	0.064
Mof_H 	H 	0.4192	0.2315	0.495	-0.006
Mof_C 	C 	0.3737	0.2887	0.4849	-0.161
Mof_H 	H 	0.3494	0.2741	0.4598	0.068
Mof_C 	C 	0.4989	0.2585	0.5645	0.336
Mof_Mo	Mo	0.77872	0.93989	0.17288	1.018
Mof_Mo	Mo	0.69254	0.96321	0.17754	1.017
Mof_Mo	Mo	0.60998	0.86904	0.19061	1.018
Mof_Mo	Mo	0.63791	0.77816	0.19626	1.051
Mof_Mo	Mo	0.75058	0.73996	0.19215	1.299
Mof_Mo	Mo	0.82362	0.82363	0.18035	1.301
Mof_Mo	Mo	0.79999	0.87961	0.06152	1.001
Mof_Mo	Mo	0.65863	0.71682	0.08511	1.009
Mof_Mo	Mo	0.5927	0.93793	0.08061	1.303
Mof_Mo	Mo	0.61015	0.88359	0.98193	1.289
Mof_Mo	Mo	0.64689	0.76472	0.99846	1
Mof_Mo	Mo	0.72706	0.85701	0.98437	1.018
Mof_Zn	Zn	0.73886	0.85142	0.24933	1.226
Mof_Zn	Zn	0.69879	0.96491	0.04487	1.223
Mof_Zn	Zn	0.56608	0.81228	0.06702	1.223
Mof_Zn	Zn	0.72634	0.74719	0.92964	1.2
Mof_O 	O 	0.7616	0.8554	0.3225	-0.485
Mof_O 	O 	0.7033	0.9089	0.3243	-0.326
Mof_O 	O 	0.70766	0.98002	0.5031	-0.479
Mof_O 	O 	0.7804	0.9784	0.5581	-0.331
Mof_O 	O 	0.0025	0.7152	0.5469	-0.491
Mof_O 	O 	0.0308	0.7803	0.5962	-0.33
Mof_O 	O 	0.82295	0.886	0.2053	-0.642
Mof_O 	O 	0.77595	0.8054	0.21984	-0.782
Mof_O 	O 	0.702	0.7478	0.2244	-0.647
Mof_O 	O 	0.73886	0.91628	0.2171	-0.721
Mof_O 	O 	0.66944	0.8375	0.228	-0.726
Mof_O 	O 	0.648	0.9322	0.2185	-0.48
Mof_O 	O 	0.83856	0.8399	0.1208	-0.673
Mof_O 	O 	0.78976	0.76413	0.145	-0.796
Mof_O 	O 	0.81058	0.93824	0.1124	-0.477
Mof_O 	O 	0.71736	0.70111	0.14066	-0.675
Mof_O 	O 	0.72386	0.96776	0.1213	-0.719
Mof_O 	O 	0.62419	0.72171	0.1442	-0.479
Mof_O 	O 	0.63374	0.97994	0.1227	-0.657
Mof_O 	O 	0.59086	0.814	0.1436	-0.726
Mof_O 	O 	0.57111	0.90861	0.1317	-0.651
Mof_O 	O 	0.77181	0.8169	0.03519	-0.766
Mof_O 	O 	0.74185	0.91547	0.02751	-0.72
Mof_O 	O 	0.7043	0.73892	0.04715	-0.765
Mof_O 	O 	0.60924	0.76304	0.04963	-0.721
Mof_O 	O 	0.63334	0.94022	0.03098	-0.781
Mof_O 	O 	0.57861	0.8759	0.0405	-0.785
Mof_O 	O 	0.69194	0.79465	0.96111	-0.718
Mof_O 	O 	0.66317	0.89048	0.9581	-0.65
Mof_O 	O 	0.60067	0.81914	0.96861	-0.653
Mof_C 	C 	0.7388	0.8843	0.3457	0.322
Mof_C 	C 	0.7608	0.8877	0.4031	-0.106
Mof_C 	C 	0.8005	0.8602	0.4257	-0.002
Mof_H 	H 	0.8122	0.838	0.4057	0.028
Mof_C 	C 	0.8236	0.8648	0.4778	-0.055
Mof_C 	C 	0.8058	0.8987	0.5063	-0.005
Mof_H 	H 	0.8213	0.9028	0.541	0.029
Mof_C 	C 	0.7663	0.9266	0.4852	-0.104
Mof_C 	C 	0.7428	0.9214	0.433	0.019
Mof_H 	H 	0.7158	0.9399	0.4183	0.024
Mof_C 	C 	0.7507	0.9641	0.5188	0.311
Mof_C 	C 	0.8677	0.8361	0.5012	0.085
Mof_C 	C 	0.9043	0.8559	0.5393	-0.163
Mof_H 	H 	0.9011	0.8874	0.5509	0.07
Mof_C 	C 	0.9453	0.8303	0.5603	0.062
Mof_H 	H 	0.969	0.8444	0.5865	-0.001
Mof_C 	C 	0.9524	0.7835	0.5432	-0.156
Mof_C 	C 	0.9158	0.7631	0.5062	0.064
Mof_H 	H 	0.9192	0.7315	0.495	-0.006
Mof_C 	C 	0.8737	0.7887	0.4849	-0.161
Mof_H 	H 	0.8494	0.7741	0.4598	0.068
Mof_C 	C 	0.9989	0.7585	0.5645	0.336
Mof_Mo	Mo	0.72128	0.43989	0.32712	1.018
Mof_Mo	Mo	0.80746	0.46321	0.32246	1.017
Mof_Mo	Mo	0.89002	0.36904	0.30939	1.018
Mof_Mo	Mo	0.86209	0.27816	0.30374	1.051
Mof_Mo	Mo	0.74942	0.23996	0.30785	1.299
Mof_Mo	Mo	0.67638	0.32363	0.31965	1.301
Mof_Mo	Mo	0.70001	0.37961	0.43848	1.002
Mof_Mo	Mo	0.84137	0.21682	0.41489	1.009
Mof_Mo	Mo	0.9073	0.43793	0.41939	1.303
Mof_Mo	Mo	0.88985	0.38359	0.51807	1.289
Mof_Mo	Mo	0.85311	0.26472	0.50154	0.999
Mof_Mo	Mo	0.77294	0.35701	0.51563	1.017
Mof_Zn	Zn	0.76114	0.35142	0.25067	1.226
Mof_Zn	Zn	0.80121	0.46491	0.45513	1.223
Mof_Zn	Zn	0.93392	0.31228	0.43298	1.223
Mof_Zn	Zn	0.77366	0.24719	0.57036	1.2
Mof_O 	O 	0.7384	0.3554	0.1775	-0.485
Mof_O 	O 	0.7967	0.4089	0.1757	-0.326
Mof_O 	O 	0.79234	0.48002	0.9969	-0.479
Mof_O 	O 	0.7196	0.4784	0.9419	-0.331
Mof_O 	O 	0.4975	0.2152	0.9531	-0.491
Mof_O 	O 	0.4692	0.2803	0.9038	-0.33
Mof_O 	O 	0.67705	0.386	0.2947	-0.642
Mof_O 	O 	0.72405	0.3054	0.28016	-0.782
Mof_O 	O 	0.798	0.2478	0.2756	-0.647
Mof_O 	O 	0.76114	0.41628	0.2829	-0.721
Mof_O 	O 	0.83056	0.3375	0.272	-0.726
Mof_O 	O 	0.852	0.4322	0.2815	-0.48
Mof_O 	O 	0.66144	0.3399	0.3792	-0.673
Mof_O 	O 	0.71024	0.26413	0.355	-0.796
Mof_O 	O 	0.68942	0.43824	0.3876	-0.477
Mof_O 	O 	0.78264	0.20111	0.35934	-0.675
Mof_O 	O 	0.77614	0.46776	0.3787	-0.719
Mof_O 	O 	0.87581	0.22171	0.3558	-0.479
Mof_O 	O 	0.86626	0.47994	0.3773	-0.657
Mof_O 	O 	0.90914	0.314	0.3564	-0.726
Mof_O 	O 	0.92889	0.40861	0.3683	-0.651
Mof_O 	O 	0.72819	0.3169	0.46481	-0.766
Mof_O 	O 	0.75815	0.41547	0.47249	-0.72
Mof_O 	O 	0.7957	0.23892	0.45285	-0.765
Mof_O 	O 	0.89076	0.26304	0.45037	-0.721
Mof_O 	O 	0.86666	0.44022	0.46902	-0.781
Mof_O 	O 	0.92139	0.3759	0.4595	-0.785
Mof_O 	O 	0.80806	0.29465	0.53889	-0.718
Mof_O 	O 	0.83683	0.39048	0.5419	-0.65
Mof_O 	O 	0.89933	0.31914	0.53139	-0.653
Mof_C 	C 	0.7612	0.3843	0.1543	0.323
Mof_C 	C 	0.7392	0.3877	0.0969	-0.107
Mof_C 	C 	0.6995	0.3602	0.0743	-0
Mof_H 	H 	0.6878	0.338	0.0943	0.027
Mof_C 	C 	0.6764	0.3648	0.0222	-0.058
Mof_C 	C 	0.6942	0.3987	0.9937	-0.002
Mof_H 	H 	0.6787	0.4028	0.959	0.028
Mof_C 	C 	0.7337	0.4266	0.0148	-0.106
Mof_C 	C 	0.7572	0.4214	0.067	0.02
Mof_H 	H 	0.7842	0.4399	0.0817	0.023
Mof_C 	C 	0.7493	0.4641	0.9812	0.312
Mof_C 	C 	0.6323	0.3361	0.9988	0.088
Mof_C 	C 	0.5957	0.3559	0.9607	-0.165
Mof_H 	H 	0.5989	0.3874	0.9491	0.071
Mof_C 	C 	0.5547	0.3303	0.9397	0.063
Mof_H 	H 	0.531	0.3444	0.9135	-0.001
Mof_C 	C 	0.5476	0.2835	0.9568	-0.158
Mof_C 	C 	0.5842	0.2631	0.9938	0.067
Mof_H 	H 	0.5808	0.2315	0.005	-0.007
Mof_C 	C 	0.6263	0.2887	0.0151	-0.164
Mof_H 	H 	0.6506	0.2741	0.0402	0.069
Mof_C 	C 	0.5011	0.2585	0.9355	0.337
Mof_Mo	Mo	0.22128	0.93989	0.32712	1.018
Mof_Mo	Mo	0.30746	0.96321	0.32246	1.017
Mof_Mo	Mo	0.39002	0.86904	0.30939	1.018
Mof_Mo	Mo	0.36209	0.77816	0.30374	1.051
Mof_Mo	Mo	0.24942	0.73996	0.30785	1.3
Mof_Mo	Mo	0.17638	0.82363	0.31965	1.301
Mof_Mo	Mo	0.20001	0.87961	0.43848	1.001
Mof_Mo	Mo	0.34137	0.71682	0.41489	1.009
Mof_Mo	Mo	0.4073	0.93793	0.41939	1.303
Mof_Mo	Mo	0.38985	0.88359	0.51807	1.289
Mof_Mo	Mo	0.35311	0.76472	0.50154	0.999
Mof_Mo	Mo	0.27294	0.85701	0.51563	1.017
Mof_Zn	Zn	0.26114	0.85142	0.25067	1.226
Mof_Zn	Zn	0.30121	0.96491	0.45513	1.223
Mof_Zn	Zn	0.43392	0.81228	0.43298	1.223
Mof_Zn	Zn	0.27366	0.74719	0.57036	1.2
Mof_O 	O 	0.2384	0.8554	0.1775	-0.485
Mof_O 	O 	0.2967	0.9089	0.1757	-0.326
Mof_O 	O 	0.29234	0.98002	0.9969	-0.479
Mof_O 	O 	0.2196	0.9784	0.9419	-0.33
Mof_O 	O 	0.9975	0.7152	0.9531	-0.489
Mof_O 	O 	0.9692	0.7803	0.9038	-0.329
Mof_O 	O 	0.17705	0.886	0.2947	-0.642
Mof_O 	O 	0.22405	0.8054	0.28016	-0.782
Mof_O 	O 	0.298	0.7478	0.2756	-0.647
Mof_O 	O 	0.26114	0.91628	0.2829	-0.721
Mof_O 	O 	0.33056	0.8375	0.272	-0.726
Mof_O 	O 	0.352	0.9322	0.2815	-0.48
Mof_O 	O 	0.16144	0.8399	0.3792	-0.673
Mof_O 	O 	0.21024	0.76413	0.355	-0.796
Mof_O 	O 	0.18942	0.93824	0.3876	-0.477
Mof_O 	O 	0.28264	0.70111	0.35934	-0.675
Mof_O 	O 	0.27614	0.96776	0.3787	-0.719
Mof_O 	O 	0.37581	0.72171	0.3558	-0.479
Mof_O 	O 	0.36626	0.97994	0.3773	-0.657
Mof_O 	O 	0.40914	0.814	0.3564	-0.726
Mof_O 	O 	0.42889	0.90861	0.3683	-0.651
Mof_O 	O 	0.22819	0.8169	0.46481	-0.766
Mof_O 	O 	0.25815	0.91547	0.47249	-0.72
Mof_O 	O 	0.2957	0.73892	0.45285	-0.765
Mof_O 	O 	0.39076	0.76304	0.45037	-0.721
Mof_O 	O 	0.36666	0.94022	0.46902	-0.781
Mof_O 	O 	0.42139	0.8759	0.4595	-0.785
Mof_O 	O 	0.30806	0.79465	0.53889	-0.718
Mof_O 	O 	0.33683	0.89048	0.5419	-0.65
Mof_O 	O 	0.39933	0.81914	0.53139	-0.653
Mof_C 	C 	0.2612	0.8843	0.1543	0.322
Mof_C 	C 	0.2392	0.8877	0.0969	-0.103
Mof_C 	C 	0.1995	0.8602	0.0743	-0.006
Mof_H 	H 	0.1878	0.838	0.0943	0.029
Mof_C 	C 	0.1764	0.8648	0.0222	-0.049
Mof_C 	C 	0.1942	0.8987	0.9937	-0.011
Mof_H 	H 	0.1787	0.9028	0.959	0.031
Mof_C 	C 	0.2337	0.9266	0.0148	-0.1
Mof_C 	C 	0.2572	0.9214	0.067	0.016
Mof_H 	H 	0.2842	0.9399	0.0817	0.025
Mof_C 	C 	0.2493	0.9641	0.9812	0.309
Mof_C 	C 	0.1323	0.8361	0.9988	0.078
Mof_C 	C 	0.0957	0.8559	0.9607	-0.157
Mof_H 	H 	0.0989	0.8874	0.9491	0.067
Mof_C 	C 	0.0547	0.8303	0.9397	0.056
Mof_H 	H 	0.031	0.8444	0.9135	0.001
Mof_C 	C 	0.0476	0.7835	0.9568	-0.151
Mof_C 	C 	0.0842	0.7631	0.9938	0.055
Mof_H 	H 	0.0808	0.7315	0.005	-0.002
Mof_C 	C 	0.1263	0.7887	0.0151	-0.153
Mof_H 	H 	0.1506	0.7741	0.0402	0.065
Mof_C 	C 	0.0011	0.7585	0.9355	0.332
Mof_Mo	Mo	0.72128	0.56011	0.82712	1.018
Mof_Mo	Mo	0.80746	0.53679	0.82246	1.017
Mof_Mo	Mo	0.89002	0.63096	0.80939	1.018
Mof_Mo	Mo	0.86209	0.72184	0.80374	1.051
Mof_Mo	Mo	0.74942	0.76004	0.80785	1.3
Mof_Mo	Mo	0.67638	0.67637	0.81965	1.301
Mof_Mo	Mo	0.70001	0.62039	0.93848	1.002
Mof_Mo	Mo	0.84137	0.78318	0.91489	1.009
Mof_Mo	Mo	0.9073	0.56207	0.91939	1.303
Mof_Mo	Mo	0.88985	0.61641	0.01807	1.287
Mof_Mo	Mo	0.85311	0.73528	0.00154	0.998
Mof_Mo	Mo	0.77294	0.64299	0.01563	1.016
Mof_Zn	Zn	0.76114	0.64858	0.75067	1.226
Mof_Zn	Zn	0.80121	0.53509	0.95513	1.224
Mof_Zn	Zn	0.93392	0.68772	0.93298	1.223
Mof_Zn	Zn	0.77366	0.75281	0.07036	1.2
Mof_O 	O 	0.7384	0.6446	0.6775	-0.485
Mof_O 	O 	0.7967	0.5911	0.6757	-0.326
Mof_O 	O 	0.79234	0.51998	0.4969	-0.479
Mof_O 	O 	0.7196	0.5216	0.4419	-0.331
Mof_O 	O 	0.4975	0.7848	0.4531	-0.49
Mof_O 	O 	0.4692	0.7197	0.4038	-0.33
Mof_O 	O 	0.67705	0.614	0.7947	-0.642
Mof_O 	O 	0.72405	0.6946	0.78016	-0.782
Mof_O 	O 	0.798	0.7522	0.7756	-0.647
Mof_O 	O 	0.76114	0.58372	0.7829	-0.721
Mof_O 	O 	0.83056	0.6625	0.772	-0.726
Mof_O 	O 	0.852	0.5678	0.7815	-0.48
Mof_O 	O 	0.66144	0.6601	0.8792	-0.673
Mof_O 	O 	0.71024	0.73587	0.855	-0.796
Mof_O 	O 	0.68942	0.56176	0.8876	-0.477
Mof_O 	O 	0.78264	0.79889	0.85934	-0.675
Mof_O 	O 	0.77614	0.53224	0.8787	-0.719
Mof_O 	O 	0.87581	0.77829	0.8558	-0.479
Mof_O 	O 	0.86626	0.52006	0.8773	-0.657
Mof_O 	O 	0.90914	0.686	0.8564	-0.726
Mof_O 	O 	0.92889	0.59139	0.8683	-0.651
Mof_O 	O 	0.72819	0.6831	0.96481	-0.765
Mof_O 	O 	0.75815	0.58453	0.97249	-0.72
Mof_O 	O 	0.7957	0.76108	0.95285	-0.765
Mof_O 	O 	0.89076	0.73696	0.95037	-0.72
Mof_O 	O 	0.86666	0.55978	0.96902	-0.781
Mof_O 	O 	0.92139	0.6241	0.9595	-0.785
Mof_O 	O 	0.80806	0.70535	0.03889	-0.718
Mof_O 	O 	0.83683	0.60952	0.0419	-0.65
Mof_O 	O 	0.89933	0.68086	0.03139	-0.653
Mof_C 	C 	0.7612	0.6157	0.6543	0.322
Mof_C 	C 	0.7392	0.6123	0.5969	-0.106
Mof_C 	C 	0.6995	0.6398	0.5743	-0.002
Mof_H 	H 	0.6878	0.662	0.5943	0.028
Mof_C 	C 	0.6764	0.6352	0.5222	-0.055
Mof_C 	C 	0.6942	0.6013	0.4937	-0.005
Mof_H 	H 	0.6787	0.5972	0.459	0.029
Mof_C 	C 	0.7337	0.5734	0.5148	-0.104
Mof_C 	C 	0.7572	0.5786	0.567	0.019
Mof_H 	H 	0.7842	0.5601	0.5817	0.024
Mof_C 	C 	0.7493	0.5359	0.4812	0.311
Mof_C 	C 	0.6323	0.6639	0.4988	0.085
Mof_C 	C 	0.5957	0.6441	0.4607	-0.163
Mof_H 	H 	0.5989	0.6126	0.4491	0.07
Mof_C 	C 	0.5547	0.6697	0.4397	0.061
Mof_H 	H 	0.531	0.6556	0.4135	-0.001
Mof_C 	C 	0.5476	0.7165	0.4568	-0.156
Mof_C 	C 	0.5842	0.7369	0.4938	0.064
Mof_H 	H 	0.5808	0.7685	0.505	-0.006
Mof_C 	C 	0.6263	0.7113	0.5151	-0.161
Mof_H 	H 	0.6506	0.7259	0.5402	0.068
Mof_C 	C 	0.5011	0.7415	0.4355	0.336
Mof_Mo	Mo	0.22128	0.06011	0.82712	1.018
Mof_Mo	Mo	0.30746	0.03679	0.82246	1.017
Mof_Mo	Mo	0.39002	0.13096	0.80939	1.018
Mof_Mo	Mo	0.36209	0.22184	0.80374	1.051
Mof_Mo	Mo	0.24942	0.26004	0.80785	1.299
Mof_Mo	Mo	0.17638	0.17637	0.81965	1.301
Mof_Mo	Mo	0.20001	0.12039	0.93848	1.001
Mof_Mo	Mo	0.34137	0.28318	0.91489	1.009
Mof_Mo	Mo	0.4073	0.06207	0.91939	1.303
Mof_Mo	Mo	0.38985	0.11641	0.01807	1.289
Mof_Mo	Mo	0.35311	0.23528	0.00154	1
Mof_Mo	Mo	0.27294	0.14299	0.01563	1.018
Mof_Zn	Zn	0.26114	0.14858	0.75067	1.226
Mof_Zn	Zn	0.30121	0.03509	0.95513	1.223
Mof_Zn	Zn	0.43392	0.18772	0.93298	1.223
Mof_Zn	Zn	0.27366	0.25281	0.07036	1.2
Mof_O 	O 	0.2384	0.1446	0.6775	-0.485
Mof_O 	O 	0.2967	0.0911	0.6757	-0.326
Mof_O 	O 	0.29234	0.01998	0.4969	-0.479
Mof_O 	O 	0.2196	0.0216	0.4419	-0.331
Mof_O 	O 	0.9975	0.2848	0.4531	-0.491
Mof_O 	O 	0.9692	0.2197	0.4038	-0.33
Mof_O 	O 	0.17705	0.114	0.7947	-0.642
Mof_O 	O 	0.22405	0.1946	0.78016	-0.782
Mof_O 	O 	0.298	0.2522	0.7756	-0.647
Mof_O 	O 	0.26114	0.08372	0.7829	-0.721
Mof_O 	O 	0.33056	0.1625	0.772	-0.726
Mof_O 	O 	0.352	0.0678	0.7815	-0.48
Mof_O 	O 	0.16144	0.1601	0.8792	-0.673
Mof_O 	O 	0.21024	0.23587	0.855	-0.796
Mof_O 	O 	0.18942	0.06176	0.8876	-0.477
Mof_O 	O 	0.28264	0.29889	0.85934	-0.675
Mof_O 	O 	0.27614	0.03224	0.8787	-0.719
Mof_O 	O 	0.37581	0.27829	0.8558	-0.479
Mof_O 	O 	0.36626	0.02006	0.8773	-0.657
Mof_O 	O 	0.40914	0.186	0.8564	-0.726
Mof_O 	O 	0.42889	0.09139	0.8683	-0.651
Mof_O 	O 	0.22819	0.1831	0.96481	-0.766
Mof_O 	O 	0.25815	0.08453	0.97249	-0.72
Mof_O 	O 	0.2957	0.26108	0.95285	-0.765
Mof_O 	O 	0.39076	0.23696	0.95037	-0.721
Mof_O 	O 	0.36666	0.05978	0.96902	-0.781
Mof_O 	O 	0.42139	0.1241	0.9595	-0.785
Mof_O 	O 	0.30806	0.20535	0.03889	-0.718
Mof_O 	O 	0.33683	0.10952	0.0419	-0.65
Mof_O 	O 	0.39933	0.18086	0.03139	-0.653
Mof_C 	C 	0.2612	0.1157	0.6543	0.322
Mof_C 	C 	0.2392	0.1123	0.5969	-0.106
Mof_C 	C 	0.1995	0.1398	0.5743	-0.002
Mof_H 	H 	0.1878	0.162	0.5943	0.028
Mof_C 	C 	0.1764	0.1352	0.5222	-0.055
Mof_C 	C 	0.1942	0.1013	0.4937	-0.005
Mof_H 	H 	0.1787	0.0972	0.459	0.029
Mof_C 	C 	0.2337	0.0734	0.5148	-0.104
Mof_C 	C 	0.2572	0.0786	0.567	0.019
Mof_H 	H 	0.2842	0.0601	0.5817	0.024
Mof_C 	C 	0.2493	0.0359	0.4812	0.311
Mof_C 	C 	0.1323	0.1639	0.4988	0.085
Mof_C 	C 	0.0957	0.1441	0.4607	-0.163
Mof_H 	H 	0.0989	0.1126	0.4491	0.07
Mof_C 	C 	0.0547	0.1697	0.4397	0.062
Mof_H 	H 	0.031	0.1556	0.4135	-0.001
Mof_C 	C 	0.0476	0.2165	0.4568	-0.156
Mof_C 	C 	0.0842	0.2369	0.4938	0.064
Mof_H 	H 	0.0808	0.2685	0.505	-0.006
Mof_C 	C 	0.1263	0.2113	0.5151	-0.161
Mof_H 	H 	0.1506	0.2259	0.5402	0.068
Mof_C 	C 	0.0011	0.2415	0.4355	0.336
Mof_Mo	Mo	0.27872	0.56011	0.67288	1.018
Mof_Mo	Mo	0.19254	0.53679	0.67754	1.017
Mof_Mo	Mo	0.10998	0.63096	0.69061	1.018
Mof_Mo	Mo	0.13791	0.72184	0.69626	1.051
Mof_Mo	Mo	0.25058	0.76004	0.69215	1.299
Mof_Mo	Mo	0.32362	0.67637	0.68035	1.301
Mof_Mo	Mo	0.29999	0.62039	0.56152	1.002
Mof_Mo	Mo	0.15863	0.78318	0.58511	1.009
Mof_Mo	Mo	0.0927	0.56207	0.58061	1.303
Mof_Mo	Mo	0.11015	0.61641	0.48193	1.289
Mof_Mo	Mo	0.14689	0.73528	0.49846	0.999
Mof_Mo	Mo	0.22706	0.64299	0.48437	1.017
Mof_Zn	Zn	0.23886	0.64858	0.74933	1.226
Mof_Zn	Zn	0.19879	0.53509	0.54487	1.223
Mof_Zn	Zn	0.06608	0.68772	0.56702	1.223
Mof_Zn	Zn	0.22634	0.75281	0.42964	1.2
Mof_O 	O 	0.2616	0.6446	0.8225	-0.485
Mof_O 	O 	0.2033	0.5911	0.8243	-0.326
Mof_O 	O 	0.20766	0.51998	0.0031	-0.479
Mof_O 	O 	0.2804	0.5216	0.0581	-0.331
Mof_O 	O 	0.5025	0.7848	0.0469	-0.491
Mof_O 	O 	0.5308	0.7197	0.0962	-0.33
Mof_O 	O 	0.32295	0.614	0.7053	-0.642
Mof_O 	O 	0.27595	0.6946	0.71984	-0.782
Mof_O 	O 	0.202	0.7522	0.7244	-0.647
Mof_O 	O 	0.23886	0.58372	0.7171	-0.721
Mof_O 	O 	0.16944	0.6625	0.728	-0.726
Mof_O 	O 	0.148	0.5678	0.7185	-0.48
Mof_O 	O 	0.33856	0.6601	0.6208	-0.673
Mof_O 	O 	0.28976	0.73587	0.645	-0.796
Mof_O 	O 	0.31058	0.56176	0.6124	-0.477
Mof_O 	O 	0.21736	0.79889	0.64066	-0.675
Mof_O 	O 	0.22386	0.53224	0.6213	-0.719
Mof_O 	O 	0.12419	0.77829	0.6442	-0.479
Mof_O 	O 	0.13374	0.52006	0.6227	-0.657
Mof_O 	O 	0.09086	0.686	0.6436	-0.726
Mof_O 	O 	0.07111	0.59139	0.6317	-0.651
Mof_O 	O 	0.27181	0.6831	0.53519	-0.766
Mof_O 	O 	0.24185	0.58453	0.52751	-0.72
Mof_O 	O 	0.2043	0.76108	0.54715	-0.765
Mof_O 	O 	0.10924	0.73696	0.54963	-0.721
Mof_O 	O 	0.13334	0.55978	0.53098	-0.781
Mof_O 	O 	0.07861	0.6241	0.5405	-0.785
Mof_O 	O 	0.19194	0.70535	0.46111	-0.718
Mof_O 	O 	0.16317	0.60952	0.4581	-0.65
Mof_O 	O 	0.10067	0.68086	0.46861	-0.653
Mof_C 	C 	0.2388	0.6157	0.8457	0.323
Mof_C 	C 	0.2608	0.6123	0.9031	-0.107
Mof_C 	C 	0.3005	0.6398	0.9257	-0
Mof_H 	H 	0.3122	0.662	0.9057	0.027
Mof_C 	C 	0.3236	0.6352	0.9778	-0.058
Mof_C 	C 	0.3058	0.6013	0.0063	-0.002
Mof_H 	H 	0.3213	0.5972	0.041	0.028
Mof_C 	C 	0.2663	0.5734	0.9852	-0.106
Mof_C 	C 	0.2428	0.5786	0.933	0.02
Mof_H 	H 	0.2158	0.5601	0.9183	0.023
Mof_C 	C 	0.2507	0.5359	0.0188	0.312
Mof_C 	C 	0.3677	0.6639	0.0012	0.088
Mof_C 	C 	0.4043	0.6441	0.0393	-0.165
Mof_H 	H 	0.4011	0.6126	0.0509	0.071
Mof_C 	C 	0.4453	0.6697	0.0603	0.063
Mof_H 	H 	0.469	0.6556	0.0865	-0.001
Mof_C 	C 	0.4524	0.7165	0.0432	-0.158
Mof_C 	C 	0.4158	0.7369	0.0062	0.067
Mof_H 	H 	0.4192	0.7685	0.995	-0.007
Mof_C 	C 	0.3737	0.7113	0.9849	-0.164
Mof_H 	H 	0.3494	0.7259	0.9598	0.069
Mof_C 	C 	0.4989	0.7415	0.0645	0.337
Mof_Mo	Mo	0.77872	0.06011	0.67288	1.018
Mof_Mo	Mo	0.69254	0.03679	0.67754	1.017
Mof_Mo	Mo	0.60998	0.13096	0.69061	1.018
Mof_Mo	Mo	0.63791	0.22184	0.69626	1.051
Mof_Mo	Mo	0.75058	0.26004	0.69215	1.3
Mof_Mo	Mo	0.82362	0.17637	0.68035	1.301
Mof_Mo	Mo	0.79999	0.12039	0.56152	1.001
Mof_Mo	Mo	0.65863	0.28318	0.58511	1.009
Mof_Mo	Mo	0.5927	0.06207	0.58061	1.303
Mof_Mo	Mo	0.61015	0.11641	0.48193	1.289
Mof_Mo	Mo	0.64689	0.23528	0.49846	0.999
Mof_Mo	Mo	0.72706	0.14299	0.48437	1.017
Mof_Zn	Zn	0.73886	0.14858	0.74933	1.226
Mof_Zn	Zn	0.69879	0.03509	0.54487	1.223
Mof_Zn	Zn	0.56608	0.18772	0.56702	1.223
Mof_Zn	Zn	0.72634	0.25281	0.42964	1.2
Mof_O 	O 	0.7616	0.1446	0.8225	-0.485
Mof_O 	O 	0.7033	0.0911	0.8243	-0.326
Mof_O 	O 	0.70766	0.01998	0.0031	-0.479
Mof_O 	O 	0.7804	0.0216	0.0581	-0.33
Mof_O 	O 	0.0025	0.2848	0.0469	-0.489
Mof_O 	O 	0.0308	0.2197	0.0962	-0.329
Mof_O 	O 	0.82295	0.114	0.7053	-0.642
Mof_O 	O 	0.77595	0.1946	0.71984	-0.782
Mof_O 	O 	0.702	0.2522	0.7244	-0.647
Mof_O 	O 	0.73886	0.08372	0.7171	-0.721
Mof_O 	O 	0.66944	0.1625	0.728	-0.726
Mof_O 	O 	0.648	0.0678	0.7185	-0.48
Mof_O 	O 	0.83856	0.1601	0.6208	-0.673
Mof_O 	O 	0.78976	0.23587	0.645	-0.796
Mof_O 	O 	0.81058	0.06176	0.6124	-0.477
Mof_O 	O 	0.71736	0.29889	0.64066	-0.675
Mof_O 	O 	0.72386	0.03224	0.6213	-0.719
Mof_O 	O 	0.62419	0.27829	0.6442	-0.479
Mof_O 	O 	0.63374	0.02006	0.6227	-0.657
Mof_O 	O 	0.59086	0.186	0.6436	-0.726
Mof_O 	O 	0.57111	0.09139	0.6317	-0.651
Mof_O 	O 	0.77181	0.1831	0.53519	-0.766
Mof_O 	O 	0.74185	0.08453	0.52751	-0.72
Mof_O 	O 	0.7043	0.26108	0.54715	-0.765
Mof_O 	O 	0.60924	0.23696	0.54963	-0.721
Mof_O 	O 	0.63334	0.05978	0.53098	-0.781
Mof_O 	O 	0.57861	0.1241	0.5405	-0.785
Mof_O 	O 	0.69194	0.20535	0.46111	-0.718
Mof_O 	O 	0.66317	0.10952	0.4581	-0.65
Mof_O 	O 	0.60067	0.18086	0.46861	-0.653
Mof_C 	C 	0.7388	0.1157	0.8457	0.322
Mof_C 	C 	0.7608	0.1123	0.9031	-0.103
Mof_C 	C 	0.8005	0.1398	0.9257	-0.006
Mof_H 	H 	0.8122	0.162	0.9057	0.029
Mof_C 	C 	0.8236	0.1352	0.9778	-0.049
Mof_C 	C 	0.8058	0.1013	0.0063	-0.011
Mof_H 	H 	0.8213	0.0972	0.041	0.031
Mof_C 	C 	0.7663	0.0734	0.9852	-0.1
Mof_C 	C 	0.7428	0.0786	0.933	0.016
Mof_H 	H 	0.7158	0.0601	0.9183	0.025
Mof_C 	C 	0.7507	0.0359	0.0188	0.309
Mof_C 	C 	0.8677	0.1639	0.0012	0.078
Mof_C 	C 	0.9043	0.1441	0.0393	-0.157
Mof_H 	H 	0.9011	0.1126	0.0509	0.067
Mof_C 	C 	0.9453	0.1697	0.0603	0.056
Mof_H 	H 	0.969	0.1556	0.0865	0.001
Mof_C 	C 	0.9524	0.2165	0.0432	-0.151
Mof_C 	C 	0.9158	0.2369	0.0062	0.055
Mof_H 	H 	0.9192	0.2685	0.995	-0.002
Mof_C 	C 	0.8737	0.2113	0.9849	-0.153
Mof_H 	H 	0.8494	0.2259	0.9598	0.065
Mof_C 	C 	0.9989	0.2415	0.0645	0.332
_end
