data_functionalizedCrystal
_audit_creation_method	'EQeq! by Chris Wilmer'
_symmetry_space_group_name_H-M	'P1'
_symmetry_Int_Tables_number	1
_symmetry_cell_setting	triclinic
loop_
_symmetry_equiv_pos_as_xyz
  x,y,z
_cell_length_a	11.454
_cell_length_b	11.454
_cell_length_c	11.454
_cell_angle_alpha	90
_cell_angle_beta	90
_cell_angle_gamma	90
loop_
_atom_site_label
_atom_site_type_symbol
_atom_site_fract_x
_atom_site_fract_y
_atom_site_fract_z
_atom_site_charge
Mof_Co	Co	-6.52471e-33	0.5	0.5	1.121
Mof_Co	Co	-0	0	-0	1.069
Mof_Co	Co	0.5	-4.19971e-33	0.5	1.121
Mof_Co	Co	0.5	0.5	-0	1.121
Mof_K 	K 	0.5	0.5	0.5	2.981
Mof_K 	K 	0.5	0	-0	2.172
Mof_K 	K 	-4.19971e-33	0.5	-0	2.172
Mof_K 	K 	-2.32501e-33	-4.19971e-33	0.5	2.172
Mof_C 	C 	0.1629	0.5	0.5	-0.24
Mof_N 	N 	0.2592	0.5	0.5	-0.355
Mof_C 	C 	0.1629	0	-0	-0.368
Mof_N 	N 	0.2592	0	-0	-0.329
Mof_C 	C 	0.6629	0.5	-0	-0.296
Mof_N 	N 	0.7592	0.5	-0	-0.255
Mof_C 	C 	0.6629	-4.19971e-33	0.5	-0.296
Mof_N 	N 	0.7592	-4.19971e-33	0.5	-0.255
Mof_C 	C 	0.8371	0.5	0.5	-0.081
Mof_N 	N 	0.7408	0.5	0.5	-0.365
Mof_C 	C 	0.8371	0	-0	-0.202
Mof_N 	N 	0.7408	0	-0	-0.339
Mof_C 	C 	0.3371	0.5	-0	-0.321
Mof_N 	N 	0.2408	0.5	-0	-0.31
Mof_C 	C 	0.3371	-4.19971e-33	0.5	-0.321
Mof_N 	N 	0.2408	-4.19971e-33	0.5	-0.31
Mof_C 	C 	0.5	0.1629	0.5	-0.24
Mof_N 	N 	0.5	0.2592	0.5	-0.355
Mof_C 	C 	0.5	0.6629	-0	-0.296
Mof_N 	N 	0.5	0.7592	-0	-0.255
Mof_C 	C 	-2.09985e-33	0.1629	-0	-0.368
Mof_N 	N 	-2.09985e-33	0.2592	-0	-0.329
Mof_C 	C 	-1.49241e-32	0.6629	0.5	-0.296
Mof_N 	N 	-6.52471e-33	0.7592	0.5	-0.255
Mof_C 	C 	0.5	0.8371	0.5	-0.081
Mof_N 	N 	0.5	0.7408	0.5	-0.365
Mof_C 	C 	0.5	0.3371	-0	-0.321
Mof_N 	N 	0.5	0.2408	-0	-0.31
Mof_C 	C 	-0	0.8371	-0	-0.202
Mof_N 	N 	-8.39941e-33	0.7408	-0	-0.339
Mof_C 	C 	-6.52471e-33	0.3371	0.5	-0.321
Mof_N 	N 	-6.52471e-33	0.2408	0.5	-0.31
Mof_C 	C 	0.5	0.5	0.1629	-0.24
Mof_N 	N 	0.5	0.5	0.2592	-0.355
Mof_C 	C 	0.5	-8.39941e-33	0.6629	-0.296
Mof_N 	N 	0.5	-8.39941e-33	0.7592	-0.255
Mof_C 	C 	-2.27128e-32	0.5	0.6629	-0.296
Mof_N 	N 	-5.55287e-33	0.5	0.7592	-0.255
Mof_C 	C 	-1.48908e-33	0	0.1629	-0.368
Mof_N 	N 	-1.12801e-33	0	0.2592	-0.329
Mof_C 	C 	0.5	0.5	0.8371	-0.081
Mof_N 	N 	0.5	0.5	0.7408	-0.365
Mof_C 	C 	0.5	-4.19971e-33	0.3371	-0.321
Mof_N 	N 	0.5	-2.09985e-33	0.2408	-0.31
Mof_C 	C 	-7.13549e-33	0.5	0.3371	-0.321
Mof_N 	N 	-3.29685e-33	0.5	0.2408	-0.31
Mof_C 	C 	3.13862e-33	0	0.8371	-0.202
Mof_N 	N 	-5.62186e-33	0	0.7408	-0.339
_end
