data_functionalizedCrystal
_audit_creation_method	'EQeq! by Chris Wilmer'
_symmetry_space_group_name_H-M	'P1'
_symmetry_Int_Tables_number	1
_symmetry_cell_setting	triclinic
loop_
_symmetry_equiv_pos_as_xyz
  x,y,z
_cell_length_a	17.7703
_cell_length_b	29.79
_cell_length_c	29.79
_cell_angle_alpha	84.8963
_cell_angle_beta	72.6469
_cell_angle_gamma	72.6469
loop_
_atom_site_label
_atom_site_type_symbol
_atom_site_fract_x
_atom_site_fract_y
_atom_site_fract_z
_atom_site_charge
Mof_Mn	Mn	0.78496	0.005	0.92594	1.058
Mof_Mn	Mn	0.99326	0.08496	0.858	1.062
Mof_Mn	Mn	0.87839	0.87978	0.03116	1.01
Mof_Mn	Mn	0.2159	0.495	0.57406	1.059
Mof_Mn	Mn	0.43622	0.41504	0.642	1.061
Mof_Mn	Mn	0.28933	0.62022	0.46884	1.012
Mof_Mn	Mn	0.71089	0.07407	0.505	1.059
Mof_Mn	Mn	0.85126	0.142	0.58496	1.061
Mof_Mn	Mn	0.90955	0.96884	0.37978	1.011
Mof_Mn	Mn	0.78997	0.42593	0.995	1.06
Mof_Mn	Mn	0.07822	0.358	0.91504	1.061
Mof_Mn	Mn	0.75817	0.53116	0.12022	1.012
Mof_Mn	Mn	0.21504	0.995	0.07407	1.057
Mof_Mn	Mn	0.00674	0.91504	0.142	1.061
Mof_Mn	Mn	0.12161	0.12022	0.96884	1.009
Mof_Mn	Mn	0.7841	0.505	0.42594	1.058
Mof_Mn	Mn	0.56378	0.58496	0.358	1.06
Mof_Mn	Mn	0.71067	0.37978	0.53116	1.011
Mof_Mn	Mn	0.28911	0.92593	0.495	1.058
Mof_Mn	Mn	0.14874	0.858	0.41504	1.06
Mof_Mn	Mn	0.09045	0.03116	0.62022	1.01
Mof_Mn	Mn	0.21003	0.57407	0.005	1.059
Mof_Mn	Mn	0.92178	0.642	0.08496	1.06
Mof_Mn	Mn	0.24183	0.46884	0.87978	1.011
Mof_H 	H 	0.7661	0.9311	0.8127	0.137
Mof_H 	H 	0.8266	0.9299	0.7335	-0.034
Mof_H 	H 	0.9223	0.9717	0.6995	0.103
Mof_H 	H 	0.96	0.0128	0.7494	0.005
Mof_H 	H 	0.8883	0.0873	0.0005	0.229
Mof_H 	H 	0.879	0.127	0.961	0.229
Mof_H 	H 	0.7993	0.1213	0.0011	0.24
Mof_H 	H 	0.7018	0.0693	0.8517	-0.014
Mof_H 	H 	0.5926	0.1344	0.8482	0.094
Mof_H 	H 	0.5062	0.1326	0.9868	0.088
Mof_H 	H 	0.6205	0.0682	0.9886	-0.001
Mof_H 	H 	0.4659	0.1812	0.8738	0.07
Mof_H 	H 	0.4818	0.2121	0.9095	0.067
Mof_H 	H 	0.8735	0.2189	0.8045	0.14
Mof_H 	H 	0.8809	0.2936	0.8118	-0.035
Mof_H 	H 	0.9476	0.3086	0.862	0.117
Mof_H 	H 	0.0118	0.2476	0.9036	0.005
Mof_H 	H 	0.1356	0.0086	0.9682	0.21
Mof_H 	H 	0.0736	0.9818	0.9618	0.195
Mof_H 	H 	0.1617	0.9747	0.9239	0.213
Mof_H 	H 	0.1477	0.2475	0.9109	-0.005
Mof_H 	H 	0.2606	0.1862	0.913	0.102
Mof_H 	H 	0.3714	0.2799	0.9309	0.089
Mof_H 	H 	0.2595	0.3388	0.9214	-0.01
Mof_H 	H 	0.389	0.1535	0.9321	0.064
Mof_H 	H 	0.4031	0.1863	0.9667	0.057
Mof_H 	H 	0.6678	0.8874	0.1522	0.137
Mof_H 	H 	0.5316	0.9255	0.1637	-0.031
Mof_H 	H 	0.4843	0.9714	0.1036	0.107
Mof_H 	H 	0.5814	0.9832	0.0342	-0.002
Mof_H 	H 	0.0388	0.9388	0.9076	0.241
Mof_H 	H 	0.9764	0.9396	0.8782	0.233
Mof_H 	H 	0.0375	0.8907	0.8883	0.242
Mof_H 	H 	0.0099	0.5689	0.6873	0.137
Mof_H 	H 	0.99	0.5701	0.7665	-0.034
Mof_H 	H 	0.0935	0.5283	0.8005	0.103
Mof_H 	H 	0.2222	0.4872	0.7506	0.005
Mof_H 	H 	0.4761	0.4127	0.4995	0.227
Mof_H 	H 	0.467	0.373	0.539	0.228
Mof_H 	H 	0.4217	0.3787	0.4989	0.238
Mof_H 	H 	0.1228	0.4307	0.6483	-0.013
Mof_H 	H 	0.0752	0.3656	0.6518	0.094
Mof_H 	H 	0.1256	0.3674	0.5132	0.088
Mof_H 	H 	0.1773	0.4318	0.5114	-0.001
Mof_H 	H 	0.0209	0.3188	0.6262	0.068
Mof_H 	H 	0.1034	0.2879	0.5905	0.065
Mof_H 	H 	0.3969	0.2811	0.6955	0.14
Mof_H 	H 	0.4863	0.2064	0.6882	-0.035
Mof_H 	H 	0.6182	0.1914	0.638	0.117
Mof_H 	H 	0.663	0.2524	0.5964	0.006
Mof_H 	H 	0.6124	0.4914	0.5318	0.213
Mof_H 	H 	0.5172	0.5182	0.5382	0.197
Mof_H 	H 	0.5603	0.5253	0.5761	0.214
Mof_H 	H 	0.8061	0.2525	0.5891	-0.005
Mof_H 	H 	0.8598	0.3138	0.587	0.103
Mof_H 	H 	0.0822	0.2201	0.5691	0.09
Mof_H 	H 	0.0197	0.1612	0.5786	-0.011
Mof_H 	H 	0.9746	0.3465	0.5679	0.066
Mof_H 	H 	0.0561	0.3137	0.5333	0.058
Mof_H 	H 	0.2074	0.6126	0.3478	0.137
Mof_H 	H 	0.1208	0.5745	0.3363	-0.031
Mof_H 	H 	0.0593	0.5286	0.3964	0.107
Mof_H 	H 	0.0988	0.5168	0.4658	-0.002
Mof_H 	H 	0.3852	0.5612	0.5924	0.241
Mof_H 	H 	0.2942	0.5604	0.6218	0.233
Mof_H 	H 	0.3165	0.6093	0.6117	0.242
Mof_H 	H 	0.5788	0.1873	0.4311	0.137
Mof_H 	H 	0.5601	0.2665	0.4299	-0.034
Mof_H 	H 	0.6218	0.3005	0.4717	0.103
Mof_H 	H 	0.7094	0.2506	0.5128	0.004
Mof_H 	H 	0.8888	0.9995	0.5873	0.226
Mof_H 	H 	0.84	0.039	0.627	0.228
Mof_H 	H 	0.8004	0.9989	0.6213	0.238
Mof_H 	H 	0.5535	0.1483	0.5693	-0.013
Mof_H 	H 	0.4408	0.1518	0.6344	0.094
Mof_H 	H 	0.493	0.0132	0.6326	0.088
Mof_H 	H 	0.6091	0.0114	0.5682	-0.001
Mof_H 	H 	0.3397	0.1262	0.6812	0.07
Mof_H 	H 	0.3913	0.0905	0.7121	0.067
Mof_H 	H 	0.678	0.1955	0.7189	0.14
Mof_H 	H 	0.6927	0.1882	0.7936	-0.035
Mof_H 	H 	0.8096	0.138	0.8086	0.117
Mof_H 	H 	0.9154	0.0964	0.7476	0.006
Mof_H 	H 	0.1038	0.0318	0.5086	0.213
Mof_H 	H 	0.0354	0.0382	0.4818	0.197
Mof_H 	H 	0.0856	0.0761	0.4747	0.215
Mof_H 	H 	0.0586	0.0891	0.7475	-0.005
Mof_H 	H 	0.1736	0.087	0.6862	0.102
Mof_H 	H 	0.3023	0.0691	0.7799	0.089
Mof_H 	H 	0.1809	0.0786	0.8388	-0.01
Mof_H 	H 	0.3211	0.0679	0.6535	0.064
Mof_H 	H 	0.3698	0.0333	0.6863	0.057
Mof_H 	H 	0.82	0.8478	0.3874	0.137
Mof_H 	H 	0.6953	0.8363	0.4255	-0.031
Mof_H 	H 	0.5879	0.8964	0.4714	0.107
Mof_H 	H 	0.6156	0.9658	0.4832	-0.002
Mof_H 	H 	0.9464	0.0924	0.4388	0.241
Mof_H 	H 	0.8546	0.1218	0.4396	0.233
Mof_H 	H 	0.9258	0.1117	0.3907	0.242
Mof_H 	H 	0.6972	0.3127	0.0689	0.137
Mof_H 	H 	0.7565	0.2335	0.0701	-0.034
Mof_H 	H 	0.894	0.1995	0.0283	0.103
Mof_H 	H 	0.9728	0.2494	0.9872	0.004
Mof_H 	H 	0.9756	0.5005	0.9127	0.227
Mof_H 	H 	0.006	0.461	0.873	0.227
Mof_H 	H 	0.9206	0.5011	0.8787	0.237
Mof_H 	H 	0.7711	0.3517	0.9307	-0.013
Mof_H 	H 	0.727	0.3482	0.8656	0.094
Mof_H 	H 	0.6388	0.4868	0.8674	0.088
Mof_H 	H 	0.6887	0.4886	0.9318	-0.001
Mof_H 	H 	0.6471	0.3738	0.8188	0.07
Mof_H 	H 	0.6939	0.4095	0.7879	0.067
Mof_H 	H 	0.0924	0.3045	0.7811	0.14
Mof_H 	H 	0.1745	0.3118	0.7064	-0.035
Mof_H 	H 	0.2562	0.362	0.6914	0.117
Mof_H 	H 	0.2594	0.4036	0.7524	0.006
Mof_H 	H 	0.1442	0.4682	0.9914	0.212
Mof_H 	H 	0.0554	0.4618	0.0182	0.196
Mof_H 	H 	0.1364	0.4239	0.0253	0.214
Mof_H 	H 	0.3952	0.4109	0.7525	-0.005
Mof_H 	H 	0.4468	0.413	0.8138	0.102
Mof_H 	H 	0.6513	0.4309	0.7201	0.089
Mof_H 	H 	0.5983	0.4214	0.6612	-0.01
Mof_H 	H 	0.5425	0.4321	0.8465	0.064
Mof_H 	H 	0.5894	0.4667	0.8137	0.057
Mof_H 	H 	0.5552	0.6522	0.1126	0.137
Mof_H 	H 	0.4571	0.6637	0.0745	-0.031
Mof_H 	H 	0.4557	0.6036	0.0286	0.107
Mof_H 	H 	0.5646	0.5342	0.0168	-0.002
Mof_H 	H 	0.9776	0.4076	0.0612	0.241
Mof_H 	H 	0.916	0.3782	0.0604	0.233
Mof_H 	H 	0.9282	0.3883	0.1093	0.242
Mof_H 	H 	0.2339	0.0689	0.1873	0.137
Mof_H 	H 	0.1734	0.0701	0.2665	-0.034
Mof_H 	H 	0.0777	0.0283	0.3005	0.103
Mof_H 	H 	0.04	0.9872	0.2506	0.005
Mof_H 	H 	0.1117	0.9127	0.9995	0.229
Mof_H 	H 	0.121	0.873	0.039	0.229
Mof_H 	H 	0.2007	0.8787	0.9989	0.24
Mof_H 	H 	0.2982	0.9307	0.1483	-0.014
Mof_H 	H 	0.4074	0.8656	0.1518	0.094
Mof_H 	H 	0.4938	0.8674	0.0132	0.088
Mof_H 	H 	0.3795	0.9318	0.0114	-0.001
Mof_H 	H 	0.5341	0.8188	0.1262	0.07
Mof_H 	H 	0.5182	0.7879	0.0905	0.067
Mof_H 	H 	0.1265	0.7811	0.1955	0.14
Mof_H 	H 	0.1191	0.7064	0.1882	-0.035
Mof_H 	H 	0.0524	0.6914	0.138	0.117
Mof_H 	H 	0.9882	0.7524	0.0964	0.005
Mof_H 	H 	0.8644	0.9914	0.0318	0.21
Mof_H 	H 	0.9264	0.0182	0.0382	0.195
Mof_H 	H 	0.8383	0.0253	0.0761	0.213
Mof_H 	H 	0.8523	0.7525	0.0891	-0.005
Mof_H 	H 	0.7394	0.8138	0.087	0.102
Mof_H 	H 	0.6286	0.7201	0.0691	0.089
Mof_H 	H 	0.7405	0.6612	0.0786	-0.01
Mof_H 	H 	0.611	0.8465	0.0679	0.064
Mof_H 	H 	0.5969	0.8137	0.0333	0.057
Mof_H 	H 	0.3322	0.1126	0.8478	0.137
Mof_H 	H 	0.4684	0.0745	0.8363	-0.031
Mof_H 	H 	0.5157	0.0286	0.8964	0.107
Mof_H 	H 	0.4186	0.0168	0.9658	-0.002
Mof_H 	H 	0.9612	0.0612	0.0924	0.241
Mof_H 	H 	0.0236	0.0604	0.1218	0.233
Mof_H 	H 	0.9625	0.1093	0.1117	0.242
Mof_H 	H 	0.9901	0.4311	0.3127	0.137
Mof_H 	H 	0.01	0.4299	0.2335	-0.034
Mof_H 	H 	0.9065	0.4717	0.1995	0.103
Mof_H 	H 	0.7778	0.5128	0.2494	0.005
Mof_H 	H 	0.5239	0.5873	0.5005	0.227
Mof_H 	H 	0.533	0.627	0.461	0.228
Mof_H 	H 	0.5783	0.6213	0.5011	0.238
Mof_H 	H 	0.8772	0.5693	0.3517	-0.013
Mof_H 	H 	0.9248	0.6344	0.3482	0.094
Mof_H 	H 	0.8744	0.6326	0.4868	0.088
Mof_H 	H 	0.8227	0.5682	0.4886	-0.001
Mof_H 	H 	0.9791	0.6812	0.3738	0.068
Mof_H 	H 	0.8966	0.7121	0.4095	0.065
Mof_H 	H 	0.6031	0.7189	0.3045	0.14
Mof_H 	H 	0.5137	0.7936	0.3118	-0.035
Mof_H 	H 	0.3818	0.8086	0.362	0.117
Mof_H 	H 	0.337	0.7476	0.4036	0.006
Mof_H 	H 	0.3876	0.5086	0.4682	0.213
Mof_H 	H 	0.4828	0.4818	0.4618	0.197
Mof_H 	H 	0.4397	0.4747	0.4239	0.214
Mof_H 	H 	0.1939	0.7475	0.4109	-0.005
Mof_H 	H 	0.1402	0.6862	0.413	0.103
Mof_H 	H 	0.9178	0.7799	0.4309	0.09
Mof_H 	H 	0.9803	0.8388	0.4214	-0.011
Mof_H 	H 	0.0254	0.6535	0.4321	0.066
Mof_H 	H 	0.9439	0.6863	0.4667	0.058
Mof_H 	H 	0.7926	0.3874	0.6522	0.137
Mof_H 	H 	0.8792	0.4255	0.6637	-0.031
Mof_H 	H 	0.9407	0.4714	0.6036	0.107
Mof_H 	H 	0.9012	0.4832	0.5342	-0.002
Mof_H 	H 	0.6148	0.4388	0.4076	0.241
Mof_H 	H 	0.7058	0.4396	0.3782	0.233
Mof_H 	H 	0.6835	0.3907	0.3883	0.242
Mof_H 	H 	0.4212	0.8127	0.5689	0.137
Mof_H 	H 	0.4399	0.7335	0.5701	-0.034
Mof_H 	H 	0.3782	0.6995	0.5283	0.103
Mof_H 	H 	0.2906	0.7494	0.4872	0.004
Mof_H 	H 	0.1112	0.0005	0.4127	0.226
Mof_H 	H 	0.16	0.961	0.373	0.228
Mof_H 	H 	0.1996	0.0011	0.3787	0.238
Mof_H 	H 	0.4465	0.8517	0.4307	-0.013
Mof_H 	H 	0.5592	0.8482	0.3656	0.094
Mof_H 	H 	0.507	0.9868	0.3674	0.088
Mof_H 	H 	0.3909	0.9886	0.4318	-0.001
Mof_H 	H 	0.6603	0.8738	0.3188	0.07
Mof_H 	H 	0.6087	0.9095	0.2879	0.067
Mof_H 	H 	0.322	0.8045	0.2811	0.14
Mof_H 	H 	0.3073	0.8118	0.2064	-0.035
Mof_H 	H 	0.1904	0.862	0.1914	0.117
Mof_H 	H 	0.0846	0.9036	0.2524	0.006
Mof_H 	H 	0.8962	0.9682	0.4914	0.213
Mof_H 	H 	0.9646	0.9618	0.5182	0.197
Mof_H 	H 	0.9144	0.9239	0.5253	0.215
Mof_H 	H 	0.9414	0.9109	0.2525	-0.005
Mof_H 	H 	0.8264	0.913	0.3138	0.102
Mof_H 	H 	0.6977	0.9309	0.2201	0.089
Mof_H 	H 	0.8191	0.9214	0.1612	-0.01
Mof_H 	H 	0.6789	0.9321	0.3465	0.064
Mof_H 	H 	0.6302	0.9667	0.3137	0.057
Mof_H 	H 	0.18	0.1522	0.6126	0.137
Mof_H 	H 	0.3047	0.1637	0.5745	-0.031
Mof_H 	H 	0.4121	0.1036	0.5286	0.107
Mof_H 	H 	0.3844	0.0342	0.5168	-0.002
Mof_H 	H 	0.0536	0.9076	0.5612	0.241
Mof_H 	H 	0.1454	0.8782	0.5604	0.233
Mof_H 	H 	0.0742	0.8883	0.6093	0.242
Mof_H 	H 	0.3028	0.6873	0.9311	0.137
Mof_H 	H 	0.2435	0.7665	0.9299	-0.034
Mof_H 	H 	0.106	0.8005	0.9717	0.103
Mof_H 	H 	0.0272	0.7506	0.0128	0.004
Mof_H 	H 	0.0244	0.4995	0.0873	0.227
Mof_H 	H 	0.994	0.539	0.127	0.227
Mof_H 	H 	0.0794	0.4989	0.1213	0.237
Mof_H 	H 	0.2289	0.6483	0.0693	-0.013
Mof_H 	H 	0.273	0.6518	0.1344	0.094
Mof_H 	H 	0.3612	0.5132	0.1326	0.088
Mof_H 	H 	0.3113	0.5114	0.0682	-0.001
Mof_H 	H 	0.3529	0.6262	0.1812	0.07
Mof_H 	H 	0.3061	0.5905	0.2121	0.067
Mof_H 	H 	0.9076	0.6955	0.2189	0.14
Mof_H 	H 	0.8255	0.6882	0.2936	-0.035
Mof_H 	H 	0.7438	0.638	0.3086	0.117
Mof_H 	H 	0.7406	0.5964	0.2476	0.006
Mof_H 	H 	0.8558	0.5318	0.0086	0.212
Mof_H 	H 	0.9446	0.5382	0.9818	0.196
Mof_H 	H 	0.8636	0.5761	0.9747	0.214
Mof_H 	H 	0.6048	0.5891	0.2475	-0.005
Mof_H 	H 	0.5532	0.587	0.1862	0.102
Mof_H 	H 	0.3487	0.5691	0.2799	0.089
Mof_H 	H 	0.4017	0.5786	0.3388	-0.01
Mof_H 	H 	0.4575	0.5679	0.1535	0.064
Mof_H 	H 	0.4106	0.5333	0.1863	0.057
Mof_H 	H 	0.4448	0.3478	0.8874	0.137
Mof_H 	H 	0.5429	0.3363	0.9255	-0.031
Mof_H 	H 	0.5443	0.3964	0.9714	0.107
Mof_H 	H 	0.4354	0.4658	0.9832	-0.002
Mof_H 	H 	0.0224	0.5924	0.9388	0.241
Mof_H 	H 	0.084	0.6218	0.9396	0.233
Mof_H 	H 	0.0718	0.6117	0.8907	0.242
Mof_C 	C 	0.82328	0.97326	0.83004	0.316
Mof_C 	C 	0.80501	0.94828	0.8001	-0.297
Mof_C 	C 	0.84093	0.94753	0.75301	0.161
Mof_C 	C 	0.89823	0.97196	0.73258	-0.215
Mof_C 	C 	0.91925	0.99687	0.76241	0.134
Mof_C 	C 	0.88214	0.99883	0.81011	-0.242
Mof_C 	C 	0.90307	0.02906	0.83918	0.289
Mof_C 	C 	0.84357	0.0707	0.9508	0.398
Mof_C 	C 	0.85338	0.10441	0.98089	-0.734
Mof_C 	C 	0.6618	0.08214	0.88014	0.117
Mof_C 	C 	0.59543	0.12119	0.87815	-0.209
Mof_C 	C 	0.53823	0.14009	0.91485	0.148
Mof_C 	C 	0.5463	0.12006	0.95834	-0.189
Mof_C 	C 	0.61472	0.0812	0.95916	0.116
Mof_C 	C 	0.46872	0.18264	0.90632	-0.155
Mof_C 	C 	0.9419	0.18607	0.84819	0.325
Mof_C 	C 	0.90305	0.22404	0.82444	-0.298
Mof_C 	C 	0.90653	0.26856	0.82916	0.175
Mof_C 	C 	0.94627	0.27748	0.85858	-0.231
Mof_C 	C 	0.98424	0.24126	0.88304	0.152
Mof_C 	C 	0.98333	0.19462	0.8785	-0.255
Mof_C 	C 	0.02423	0.15828	0.90636	0.298
Mof_C 	C 	0.07871	0.03899	0.91687	0.359
Mof_C 	C 	0.11575	0.99732	0.94524	-0.65
Mof_C 	C 	0.19467	0.2541	0.9145	0.129
Mof_C 	C 	0.2606	0.21754	0.91686	-0.203
Mof_C 	C 	0.32743	0.22594	0.9248	0.126
Mof_C 	C 	0.32594	0.27226	0.92646	-0.192
Mof_C 	C 	0.25888	0.30701	0.92159	0.118
Mof_C 	C 	0.40077	0.18355	0.93431	-0.119
Mof_C 	C 	0.70933	0.90937	0.08497	0.335
Mof_C 	C 	0.6505	0.90609	0.12751	-0.305
Mof_C 	C 	0.56982	0.92873	0.13443	0.165
Mof_C 	C 	0.5414	0.95683	0.09917	-0.219
Mof_C 	C 	0.59934	0.9627	0.05762	0.146
Mof_C 	C 	0.68226	0.93977	0.04931	-0.261
Mof_C 	C 	0.73871	0.94981	0.00575	0.304
Mof_C 	C 	0.94127	0.91642	0.94494	0.391
Mof_C 	C 	0.00371	0.92183	0.90113	-0.747
Mof_C 	C 	0.12658	0.52674	0.66996	0.316
Mof_C 	C 	0.05339	0.55172	0.6999	-0.297
Mof_C 	C 	0.04147	0.55247	0.74699	0.161
Mof_C 	C 	0.10277	0.52804	0.76742	-0.215
Mof_C 	C 	0.17853	0.50313	0.73759	0.134
Mof_C 	C 	0.19108	0.50117	0.68989	-0.242
Mof_C 	C 	0.27131	0.47094	0.66082	0.289
Mof_C 	C 	0.36507	0.4293	0.5492	0.397
Mof_C 	C 	0.43868	0.39559	0.51911	-0.729
Mof_C 	C 	0.12408	0.41786	0.61986	0.116
Mof_C 	C 	0.09477	0.37881	0.62185	-0.207
Mof_C 	C 	0.09317	0.35991	0.58515	0.146
Mof_C 	C 	0.1247	0.37994	0.54166	-0.187
Mof_C 	C 	0.15508	0.4188	0.54084	0.115
Mof_C 	C 	0.05768	0.31736	0.59368	-0.15
Mof_C 	C 	0.47616	0.31393	0.65181	0.325
Mof_C 	C 	0.45153	0.27596	0.67556	-0.298
Mof_C 	C 	0.50425	0.23144	0.67084	0.174
Mof_C 	C 	0.58233	0.22252	0.64142	-0.231
Mof_C 	C 	0.60854	0.25874	0.61696	0.15
Mof_C 	C 	0.55645	0.30538	0.6215	-0.255
Mof_C 	C 	0.58887	0.34172	0.59364	0.299
Mof_C 	C 	0.53457	0.46101	0.58313	0.362
Mof_C 	C 	0.55831	0.50268	0.55476	-0.658
Mof_C 	C 	0.86327	0.2459	0.5855	0.131
Mof_C 	C 	0.895	0.28246	0.58314	-0.205
Mof_C 	C 	0.97817	0.27406	0.5752	0.129
Mof_C 	C 	0.02466	0.22774	0.57354	-0.195
Mof_C 	C 	0.98748	0.19299	0.57841	0.121
Mof_C 	C 	0.01863	0.31645	0.56569	-0.125
Mof_C 	C 	0.20367	0.59063	0.41503	0.336
Mof_C 	C 	0.1841	0.59391	0.37249	-0.305
Mof_C 	C 	0.13298	0.57127	0.36557	0.166
Mof_C 	C 	0.0974	0.54317	0.40083	-0.219
Mof_C 	C 	0.11966	0.5373	0.44238	0.147
Mof_C 	C 	0.17134	0.56023	0.45069	-0.262
Mof_C 	C 	0.19427	0.55019	0.49425	0.307
Mof_C 	C 	0.30263	0.58358	0.55506	0.391
Mof_C 	C 	0.32667	0.57817	0.59887	-0.747
Mof_C 	C 	0.65332	0.16996	0.47326	0.316
Mof_C 	C 	0.60511	0.1999	0.44828	-0.297
Mof_C 	C 	0.59394	0.24699	0.44753	0.161
Mof_C 	C 	0.63081	0.26742	0.47196	-0.215
Mof_C 	C 	0.68166	0.23759	0.49687	0.134
Mof_C 	C 	0.69225	0.18989	0.49883	-0.242
Mof_C 	C 	0.74225	0.16082	0.52906	0.289
Mof_C 	C 	0.79437	0.0492	0.5707	0.396
Mof_C 	C 	0.83427	0.01911	0.60441	-0.728
Mof_C 	C 	0.54194	0.11986	0.58214	0.117
Mof_C 	C 	0.47358	0.12185	0.62119	-0.209
Mof_C 	C 	0.45308	0.08515	0.64009	0.148
Mof_C 	C 	0.50464	0.04166	0.62006	-0.188
Mof_C 	C 	0.57388	0.04084	0.5812	0.116
Mof_C 	C 	0.37504	0.09368	0.68264	-0.154
Mof_C 	C 	0.79009	0.15181	0.68607	0.325
Mof_C 	C 	0.72749	0.17556	0.72404	-0.298
Mof_C 	C 	0.73569	0.17084	0.76856	0.174
Mof_C 	C 	0.80485	0.14142	0.77748	-0.231
Mof_C 	C 	0.86728	0.11696	0.74126	0.15
Mof_C 	C 	0.86183	0.1215	0.69462	-0.255
Mof_C 	C 	0.93059	0.09364	0.65828	0.299
Mof_C 	C 	0.99558	0.08313	0.53899	0.363
Mof_C 	C 	0.06099	0.05476	0.49732	-0.659
Mof_C 	C 	0.10917	0.0855	0.7541	0.129
Mof_C 	C 	0.17746	0.08314	0.71754	-0.203
Mof_C 	C 	0.25223	0.0752	0.72594	0.126
Mof_C 	C 	0.2524	0.07354	0.77226	-0.192
Mof_C 	C 	0.18047	0.07841	0.80701	0.118
Mof_C 	C 	0.33508	0.06569	0.68355	-0.12
Mof_C 	C 	0.7943	0.91503	0.40937	0.336
Mof_C 	C 	0.77801	0.87249	0.40609	-0.305
Mof_C 	C 	0.70425	0.86557	0.42873	0.166
Mof_C 	C 	0.64057	0.90083	0.45683	-0.219
Mof_C 	C 	0.65696	0.94238	0.4627	0.146
Mof_C 	C 	0.73157	0.95069	0.43977	-0.261
Mof_C 	C 	0.74446	0.99425	0.44981	0.306
Mof_C 	C 	0.88621	0.05506	0.41642	0.391
Mof_C 	C 	0.90484	0.09887	0.42183	-0.747
Mof_C 	C 	0.79654	0.33004	0.02674	0.316
Mof_C 	C 	0.75329	0.3001	0.05172	-0.297
Mof_C 	C 	0.78846	0.25301	0.05247	0.161
Mof_C 	C 	0.87019	0.23258	0.02804	-0.215
Mof_C 	C 	0.91612	0.26241	0.00313	0.135
Mof_C 	C 	0.88097	0.31011	0.00117	-0.242
Mof_C 	C 	0.93213	0.33918	0.97094	0.29
Mof_C 	C 	0.91427	0.4508	0.9293	0.396
Mof_C 	C 	0.95779	0.48089	0.89559	-0.728
Mof_C 	C 	0.74394	0.38014	0.91786	0.117
Mof_C 	C 	0.71662	0.37815	0.87881	-0.209
Mof_C 	C 	0.67832	0.41485	0.85991	0.148
Mof_C 	C 	0.66636	0.45834	0.87994	-0.188
Mof_C 	C 	0.69592	0.45916	0.9188	0.116
Mof_C 	C 	0.65136	0.40632	0.81736	-0.154
Mof_C 	C 	0.12797	0.34819	0.81393	0.325
Mof_C 	C 	0.12709	0.32444	0.77596	-0.298
Mof_C 	C 	0.17509	0.32916	0.73144	0.174
Mof_C 	C 	0.22375	0.35858	0.72252	-0.231
Mof_C 	C 	0.2255	0.38304	0.75874	0.15
Mof_C 	C 	0.17795	0.3785	0.80538	-0.255
Mof_C 	C 	0.18251	0.40636	0.84172	0.299
Mof_C 	C 	0.1177	0.41687	0.96101	0.361
Mof_C 	C 	0.11307	0.44524	0.00268	-0.656
Mof_C 	C 	0.44877	0.4145	0.7459	0.129
Mof_C 	C 	0.47814	0.41686	0.78246	-0.203
Mof_C 	C 	0.55337	0.4248	0.77406	0.126
Mof_C 	C 	0.5982	0.42646	0.72774	-0.192
Mof_C 	C 	0.56589	0.42159	0.69299	0.118
Mof_C 	C 	0.58432	0.43431	0.81645	-0.12
Mof_C 	C 	0.6187	0.58497	0.09063	0.336
Mof_C 	C 	0.55659	0.62751	0.09391	-0.305
Mof_C 	C 	0.49855	0.63443	0.07127	0.166
Mof_C 	C 	0.49823	0.59917	0.04317	-0.219
Mof_C 	C 	0.56204	0.55762	0.0373	0.147
Mof_C 	C 	0.62203	0.54931	0.06023	-0.262
Mof_C 	C 	0.68852	0.50575	0.05019	0.306
Mof_C 	C 	0.85769	0.44494	0.08358	0.391
Mof_C 	C 	0.92554	0.40113	0.07817	-0.747
Mof_C 	C 	0.17672	0.02674	0.16996	0.316
Mof_C 	C 	0.19499	0.05172	0.1999	-0.297
Mof_C 	C 	0.15907	0.05247	0.24699	0.161
Mof_C 	C 	0.10177	0.02804	0.26742	-0.215
Mof_C 	C 	0.08075	0.00313	0.23759	0.134
Mof_C 	C 	0.11786	0.00117	0.18989	-0.242
Mof_C 	C 	0.09693	0.97094	0.16082	0.289
Mof_C 	C 	0.15643	0.9293	0.0492	0.398
Mof_C 	C 	0.14662	0.89559	0.01911	-0.734
Mof_C 	C 	0.3382	0.91786	0.11986	0.117
Mof_C 	C 	0.40457	0.87881	0.12185	-0.209
Mof_C 	C 	0.46177	0.85991	0.08515	0.148
Mof_C 	C 	0.4537	0.87994	0.04166	-0.189
Mof_C 	C 	0.38528	0.9188	0.04084	0.116
Mof_C 	C 	0.53128	0.81736	0.09368	-0.155
Mof_C 	C 	0.0581	0.81393	0.15181	0.325
Mof_C 	C 	0.09695	0.77596	0.17556	-0.298
Mof_C 	C 	0.09347	0.73144	0.17084	0.175
Mof_C 	C 	0.05373	0.72252	0.14142	-0.231
Mof_C 	C 	0.01576	0.75874	0.11696	0.152
Mof_C 	C 	0.01667	0.80538	0.1215	-0.255
Mof_C 	C 	0.97577	0.84172	0.09364	0.298
Mof_C 	C 	0.92129	0.96101	0.08313	0.359
Mof_C 	C 	0.88425	0.00268	0.05476	-0.65
Mof_C 	C 	0.80533	0.7459	0.0855	0.129
Mof_C 	C 	0.7394	0.78246	0.08314	-0.203
Mof_C 	C 	0.67257	0.77406	0.0752	0.126
Mof_C 	C 	0.67406	0.72774	0.07354	-0.192
Mof_C 	C 	0.74112	0.69299	0.07841	0.118
Mof_C 	C 	0.59923	0.81645	0.06569	-0.119
Mof_C 	C 	0.29067	0.09063	0.91503	0.335
Mof_C 	C 	0.3495	0.09391	0.87249	-0.305
Mof_C 	C 	0.43018	0.07127	0.86557	0.165
Mof_C 	C 	0.4586	0.04317	0.90083	-0.219
Mof_C 	C 	0.40066	0.0373	0.94238	0.146
Mof_C 	C 	0.31774	0.06023	0.95069	-0.261
Mof_C 	C 	0.26129	0.05019	0.99425	0.304
Mof_C 	C 	0.05873	0.08358	0.05506	0.391
Mof_C 	C 	0.99629	0.07817	0.09887	-0.747
Mof_C 	C 	0.87342	0.47326	0.33004	0.316
Mof_C 	C 	0.94661	0.44828	0.3001	-0.297
Mof_C 	C 	0.95853	0.44753	0.25301	0.161
Mof_C 	C 	0.89723	0.47196	0.23258	-0.215
Mof_C 	C 	0.82147	0.49687	0.26241	0.134
Mof_C 	C 	0.80892	0.49883	0.31011	-0.242
Mof_C 	C 	0.72869	0.52906	0.33918	0.289
Mof_C 	C 	0.63493	0.5707	0.4508	0.397
Mof_C 	C 	0.56132	0.60441	0.48089	-0.729
Mof_C 	C 	0.87592	0.58214	0.38014	0.116
Mof_C 	C 	0.90523	0.62119	0.37815	-0.207
Mof_C 	C 	0.90683	0.64009	0.41485	0.146
Mof_C 	C 	0.8753	0.62006	0.45834	-0.187
Mof_C 	C 	0.84492	0.5812	0.45916	0.115
Mof_C 	C 	0.94232	0.68264	0.40632	-0.15
Mof_C 	C 	0.52384	0.68607	0.34819	0.325
Mof_C 	C 	0.54847	0.72404	0.32444	-0.298
Mof_C 	C 	0.49575	0.76856	0.32916	0.174
Mof_C 	C 	0.41767	0.77748	0.35858	-0.231
Mof_C 	C 	0.39146	0.74126	0.38304	0.15
Mof_C 	C 	0.44355	0.69462	0.3785	-0.255
Mof_C 	C 	0.41113	0.65828	0.40636	0.299
Mof_C 	C 	0.46543	0.53899	0.41687	0.362
Mof_C 	C 	0.44169	0.49732	0.44524	-0.658
Mof_C 	C 	0.13673	0.7541	0.4145	0.131
Mof_C 	C 	0.105	0.71754	0.41686	-0.205
Mof_C 	C 	0.02183	0.72594	0.4248	0.129
Mof_C 	C 	0.97534	0.77226	0.42646	-0.195
Mof_C 	C 	0.01252	0.80701	0.42159	0.121
Mof_C 	C 	0.98137	0.68355	0.43431	-0.125
Mof_C 	C 	0.79633	0.40937	0.58497	0.336
Mof_C 	C 	0.8159	0.40609	0.62751	-0.305
Mof_C 	C 	0.86702	0.42873	0.63443	0.166
Mof_C 	C 	0.9026	0.45683	0.59917	-0.219
Mof_C 	C 	0.88034	0.4627	0.55762	0.147
Mof_C 	C 	0.82866	0.43977	0.54931	-0.262
Mof_C 	C 	0.80573	0.44981	0.50575	0.307
Mof_C 	C 	0.69737	0.41642	0.44494	0.391
Mof_C 	C 	0.67333	0.42183	0.40113	-0.747
Mof_C 	C 	0.34668	0.83004	0.52674	0.316
Mof_C 	C 	0.39489	0.8001	0.55172	-0.297
Mof_C 	C 	0.40606	0.75301	0.55247	0.161
Mof_C 	C 	0.36919	0.73258	0.52804	-0.215
Mof_C 	C 	0.31834	0.76241	0.50313	0.134
Mof_C 	C 	0.30775	0.81011	0.50117	-0.242
Mof_C 	C 	0.25775	0.83918	0.47094	0.289
Mof_C 	C 	0.20563	0.9508	0.4293	0.396
Mof_C 	C 	0.16573	0.98089	0.39559	-0.728
Mof_C 	C 	0.45806	0.88014	0.41786	0.117
Mof_C 	C 	0.52642	0.87815	0.37881	-0.209
Mof_C 	C 	0.54692	0.91485	0.35991	0.148
Mof_C 	C 	0.49536	0.95834	0.37994	-0.188
Mof_C 	C 	0.42612	0.95916	0.4188	0.116
Mof_C 	C 	0.62496	0.90632	0.31736	-0.154
Mof_C 	C 	0.20991	0.84819	0.31393	0.325
Mof_C 	C 	0.27251	0.82444	0.27596	-0.298
Mof_C 	C 	0.26431	0.82916	0.23144	0.174
Mof_C 	C 	0.19515	0.85858	0.22252	-0.231
Mof_C 	C 	0.13272	0.88304	0.25874	0.15
Mof_C 	C 	0.13817	0.8785	0.30538	-0.255
Mof_C 	C 	0.06941	0.90636	0.34172	0.299
Mof_C 	C 	0.00442	0.91687	0.46101	0.363
Mof_C 	C 	0.93901	0.94524	0.50268	-0.659
Mof_C 	C 	0.89083	0.9145	0.2459	0.129
Mof_C 	C 	0.82254	0.91686	0.28246	-0.203
Mof_C 	C 	0.74777	0.9248	0.27406	0.126
Mof_C 	C 	0.7476	0.92646	0.22774	-0.192
Mof_C 	C 	0.81953	0.92159	0.19299	0.118
Mof_C 	C 	0.66492	0.93431	0.31645	-0.12
Mof_C 	C 	0.2057	0.08497	0.59063	0.336
Mof_C 	C 	0.22199	0.12751	0.59391	-0.305
Mof_C 	C 	0.29575	0.13443	0.57127	0.166
Mof_C 	C 	0.35943	0.09917	0.54317	-0.219
Mof_C 	C 	0.34304	0.05762	0.5373	0.146
Mof_C 	C 	0.26843	0.04931	0.56023	-0.261
Mof_C 	C 	0.25554	0.00575	0.55019	0.306
Mof_C 	C 	0.11379	0.94494	0.58358	0.391
Mof_C 	C 	0.09516	0.90113	0.57817	-0.747
Mof_C 	C 	0.20346	0.66996	0.97326	0.316
Mof_C 	C 	0.24671	0.6999	0.94828	-0.297
Mof_C 	C 	0.21154	0.74699	0.94753	0.161
Mof_C 	C 	0.12981	0.76742	0.97196	-0.215
Mof_C 	C 	0.08388	0.73759	0.99687	0.135
Mof_C 	C 	0.11903	0.68989	0.99883	-0.242
Mof_C 	C 	0.06787	0.66082	0.02906	0.29
Mof_C 	C 	0.08573	0.5492	0.0707	0.396
Mof_C 	C 	0.04221	0.51911	0.10441	-0.728
Mof_C 	C 	0.25606	0.61986	0.08214	0.117
Mof_C 	C 	0.28338	0.62185	0.12119	-0.209
Mof_C 	C 	0.32168	0.58515	0.14009	0.148
Mof_C 	C 	0.33364	0.54166	0.12006	-0.188
Mof_C 	C 	0.30408	0.54084	0.0812	0.116
Mof_C 	C 	0.34864	0.59368	0.18264	-0.154
Mof_C 	C 	0.87203	0.65181	0.18607	0.325
Mof_C 	C 	0.87291	0.67556	0.22404	-0.298
Mof_C 	C 	0.82491	0.67084	0.26856	0.174
Mof_C 	C 	0.77625	0.64142	0.27748	-0.231
Mof_C 	C 	0.7745	0.61696	0.24126	0.15
Mof_C 	C 	0.82205	0.6215	0.19462	-0.255
Mof_C 	C 	0.81749	0.59364	0.15828	0.299
Mof_C 	C 	0.8823	0.58313	0.03899	0.361
Mof_C 	C 	0.88693	0.55476	0.99732	-0.656
Mof_C 	C 	0.55123	0.5855	0.2541	0.129
Mof_C 	C 	0.52186	0.58314	0.21754	-0.203
Mof_C 	C 	0.44663	0.5752	0.22594	0.126
Mof_C 	C 	0.4018	0.57354	0.27226	-0.192
Mof_C 	C 	0.43411	0.57841	0.30701	0.118
Mof_C 	C 	0.41568	0.56569	0.18355	-0.12
Mof_C 	C 	0.3813	0.41503	0.90937	0.336
Mof_C 	C 	0.44341	0.37249	0.90609	-0.305
Mof_C 	C 	0.50145	0.36557	0.92873	0.166
Mof_C 	C 	0.50177	0.40083	0.95683	-0.219
Mof_C 	C 	0.43796	0.44238	0.9627	0.147
Mof_C 	C 	0.37797	0.45069	0.93977	-0.262
Mof_C 	C 	0.31148	0.49425	0.94981	0.306
Mof_C 	C 	0.14231	0.55506	0.91642	0.391
Mof_C 	C 	0.07446	0.59887	0.92183	-0.747
Mof_N 	N 	0.86119	0.03557	0.88423	-0.251
Mof_N 	N 	0.8812	0.06857	0.90649	-0.228
Mof_N 	N 	0.67016	0.06256	0.92088	-0.203
Mof_N 	N 	0.03035	0.11355	0.90033	-0.251
Mof_N 	N 	0.0717	0.08164	0.92892	-0.216
Mof_N 	N 	0.19264	0.29808	0.91702	-0.208
Mof_N 	N 	0.81711	0.92826	0.99734	-0.257
Mof_N 	N 	0.86491	0.9414	0.95378	-0.229
Mof_N 	N 	0.28099	0.46443	0.61577	-0.251
Mof_N 	N 	0.35626	0.43143	0.59351	-0.228
Mof_N 	N 	0.1536	0.43744	0.57912	-0.203
Mof_N 	N 	0.54423	0.38645	0.59967	-0.251
Mof_N 	N 	0.58226	0.41836	0.57108	-0.217
Mof_N 	N 	0.90774	0.20192	0.58298	-0.209
Mof_N 	N 	0.24271	0.57174	0.50266	-0.258
Mof_N 	N 	0.26009	0.5586	0.54622	-0.229
Mof_N 	N 	0.74542	0.11577	0.53557	-0.251
Mof_N 	N 	0.78769	0.09351	0.56857	-0.228
Mof_N 	N 	0.59104	0.07912	0.56256	-0.203
Mof_N 	N 	0.93068	0.09967	0.61355	-0.251
Mof_N 	N 	0.00062	0.07108	0.58164	-0.217
Mof_N 	N 	0.10966	0.08298	0.79808	-0.208
Mof_N 	N 	0.81445	0.00266	0.42826	-0.258
Mof_N 	N 	0.81869	0.04622	0.4414	-0.229
Mof_N 	N 	0.89676	0.38423	0.96443	-0.251
Mof_N 	N 	0.94977	0.40649	0.93143	-0.228
Mof_N 	N 	0.73272	0.42088	0.93744	-0.203
Mof_N 	N 	0.1439	0.40033	0.88645	-0.251
Mof_N 	N 	0.15334	0.42892	0.91836	-0.217
Mof_N 	N 	0.49072	0.41702	0.70192	-0.208
Mof_N 	N 	0.74537	0.49734	0.07174	-0.258
Mof_N 	N 	0.80631	0.45378	0.0586	-0.229
Mof_N 	N 	0.13881	0.96443	0.11577	-0.251
Mof_N 	N 	0.1188	0.93143	0.09351	-0.228
Mof_N 	N 	0.32984	0.93744	0.07912	-0.203
Mof_N 	N 	0.96965	0.88645	0.09967	-0.251
Mof_N 	N 	0.9283	0.91836	0.07108	-0.216
Mof_N 	N 	0.80736	0.70192	0.08298	-0.208
Mof_N 	N 	0.18289	0.07174	0.00266	-0.257
Mof_N 	N 	0.13509	0.0586	0.04622	-0.229
Mof_N 	N 	0.71901	0.53557	0.38423	-0.251
Mof_N 	N 	0.64374	0.56857	0.40649	-0.228
Mof_N 	N 	0.8464	0.56256	0.42088	-0.203
Mof_N 	N 	0.45577	0.61355	0.40033	-0.251
Mof_N 	N 	0.41774	0.58164	0.42892	-0.217
Mof_N 	N 	0.09226	0.79808	0.41702	-0.209
Mof_N 	N 	0.75729	0.42826	0.49734	-0.258
Mof_N 	N 	0.73991	0.4414	0.45378	-0.229
Mof_N 	N 	0.25458	0.88423	0.46443	-0.251
Mof_N 	N 	0.21231	0.90649	0.43143	-0.228
Mof_N 	N 	0.40896	0.92088	0.43744	-0.203
Mof_N 	N 	0.06932	0.90033	0.38645	-0.251
Mof_N 	N 	0.99938	0.92892	0.41836	-0.217
Mof_N 	N 	0.89034	0.91702	0.20192	-0.208
Mof_N 	N 	0.18555	0.99734	0.57174	-0.258
Mof_N 	N 	0.18131	0.95378	0.5586	-0.229
Mof_N 	N 	0.10324	0.61577	0.03557	-0.251
Mof_N 	N 	0.05023	0.59351	0.06857	-0.228
Mof_N 	N 	0.26728	0.57912	0.06256	-0.203
Mof_N 	N 	0.8561	0.59967	0.11355	-0.251
Mof_N 	N 	0.84666	0.57108	0.08164	-0.217
Mof_N 	N 	0.50928	0.58298	0.29808	-0.208
Mof_N 	N 	0.25463	0.50266	0.92826	-0.258
Mof_N 	N 	0.19369	0.54622	0.9414	-0.229
Mof_O 	O 	0.7833	0.97298	0.87584	-0.431
Mof_O 	O 	0.95854	0.04935	0.81893	-0.38
Mof_O 	O 	0.79524	0.04418	0.97046	-0.436
Mof_O 	O 	0.93755	0.14333	0.84033	-0.434
Mof_O 	O 	0.05411	0.16983	0.93675	-0.381
Mof_O 	O 	0.05375	0.02902	0.88384	-0.434
Mof_O 	O 	0.7841	0.88467	0.08121	-0.444
Mof_O 	O 	0.70868	0.97935	0.97671	-0.377
Mof_O 	O 	0.96619	0.88388	0.97498	-0.433
Mof_O 	O 	0.13212	0.52702	0.62416	-0.431
Mof_O 	O 	0.32682	0.45065	0.68107	-0.38
Mof_O 	O 	0.30988	0.45582	0.52954	-0.436
Mof_O 	O 	0.42121	0.35667	0.65967	-0.434
Mof_O 	O 	0.66069	0.33017	0.56325	-0.381
Mof_O 	O 	0.46661	0.47098	0.61616	-0.434
Mof_O 	O 	0.24998	0.61533	0.41879	-0.444
Mof_O 	O 	0.16474	0.52065	0.52329	-0.379
Mof_O 	O 	0.32505	0.61612	0.52502	-0.434
Mof_O 	O 	0.65914	0.12416	0.47298	-0.431
Mof_O 	O 	0.77747	0.18107	0.54935	-0.38
Mof_O 	O 	0.7657	0.02954	0.54418	-0.436
Mof_O 	O 	0.77788	0.15967	0.64333	-0.434
Mof_O 	O 	0.99086	0.06325	0.66983	-0.38
Mof_O 	O 	0.93759	0.11616	0.52902	-0.434
Mof_O 	O 	0.86531	0.91879	0.38467	-0.444
Mof_O 	O 	0.68539	0.02329	0.47935	-0.378
Mof_O 	O 	0.94117	0.02502	0.38388	-0.433
Mof_O 	O 	0.75628	0.37584	0.02702	-0.431
Mof_O 	O 	0.00789	0.31893	0.95065	-0.381
Mof_O 	O 	0.83942	0.47046	0.95582	-0.436
Mof_O 	O 	0.08088	0.34033	0.85667	-0.434
Mof_O 	O 	0.22394	0.43675	0.83017	-0.381
Mof_O 	O 	0.08277	0.38384	0.97098	-0.434
Mof_O 	O 	0.66877	0.58121	0.11533	-0.444
Mof_O 	O 	0.68803	0.47671	0.02065	-0.379
Mof_O 	O 	0.85007	0.47498	0.11612	-0.434
Mof_O 	O 	0.2167	0.02702	0.12416	-0.431
Mof_O 	O 	0.04146	0.95065	0.18107	-0.38
Mof_O 	O 	0.20476	0.95582	0.02954	-0.436
Mof_O 	O 	0.06245	0.85667	0.15967	-0.434
Mof_O 	O 	0.94589	0.83017	0.06325	-0.381
Mof_O 	O 	0.94625	0.97098	0.11616	-0.434
Mof_O 	O 	0.2159	0.11533	0.91879	-0.444
Mof_O 	O 	0.29132	0.02065	0.02329	-0.377
Mof_O 	O 	0.03381	0.11612	0.02502	-0.433
Mof_O 	O 	0.86788	0.47298	0.37584	-0.431
Mof_O 	O 	0.67318	0.54935	0.31893	-0.38
Mof_O 	O 	0.69012	0.54418	0.47046	-0.436
Mof_O 	O 	0.57879	0.64333	0.34033	-0.434
Mof_O 	O 	0.33931	0.66983	0.43675	-0.381
Mof_O 	O 	0.53339	0.52902	0.38384	-0.434
Mof_O 	O 	0.75002	0.38467	0.58121	-0.444
Mof_O 	O 	0.83526	0.47935	0.47671	-0.379
Mof_O 	O 	0.67495	0.38388	0.47498	-0.434
Mof_O 	O 	0.34086	0.87584	0.52702	-0.431
Mof_O 	O 	0.22253	0.81893	0.45065	-0.38
Mof_O 	O 	0.2343	0.97046	0.45582	-0.436
Mof_O 	O 	0.22212	0.84033	0.35667	-0.434
Mof_O 	O 	0.00914	0.93675	0.33017	-0.38
Mof_O 	O 	0.06241	0.88384	0.47098	-0.434
Mof_O 	O 	0.13469	0.08121	0.61533	-0.444
Mof_O 	O 	0.31461	0.97671	0.52065	-0.378
Mof_O 	O 	0.05883	0.97498	0.61612	-0.433
Mof_O 	O 	0.24372	0.62416	0.97298	-0.431
Mof_O 	O 	0.99211	0.68107	0.04935	-0.381
Mof_O 	O 	0.16058	0.52954	0.04418	-0.436
Mof_O 	O 	0.91912	0.65967	0.14333	-0.434
Mof_O 	O 	0.77606	0.56325	0.16983	-0.381
Mof_O 	O 	0.91723	0.61616	0.02902	-0.434
Mof_O 	O 	0.33123	0.41879	0.88467	-0.444
Mof_O 	O 	0.31197	0.52329	0.97935	-0.379
Mof_O 	O 	0.14993	0.52502	0.88388	-0.434
_end
