data_functionalizedCrystal
_audit_creation_method	'EQeq! by Chris Wilmer'
_symmetry_space_group_name_H-M	'P1'
_symmetry_Int_Tables_number	1
_symmetry_cell_setting	triclinic
loop_
_symmetry_equiv_pos_as_xyz
  x,y,z
_cell_length_a	8.778
_cell_length_b	8.778
_cell_length_c	30.64
_cell_angle_alpha	90
_cell_angle_beta	90
_cell_angle_gamma	120
loop_
_atom_site_label
_atom_site_type_symbol
_atom_site_fract_x
_atom_site_fract_y
_atom_site_fract_z
_atom_site_charge
Mof_Cd	Cd	-0	0	-0	0.333
Mof_Cd	Cd	0.66667	0.33333	0.33333	0.383
Mof_Cd	Cd	0.33333	0.66667	0.66667	0.383
Mof_Cd	Cd	0.33333	0.66667	0.07489	0.268
Mof_C 	C 	0.33333	0.66667	0.1487	-0.061
Mof_Cd	Cd	-1.23464e-32	-2.46928e-32	0.40822	0.232
Mof_C 	C 	-0	2.46928e-32	0.48203	-0.071
Mof_Cd	Cd	0.66667	0.33333	0.74156	0.268
Mof_C 	C 	0.66667	0.33333	0.81537	-0.061
Mof_Cd	Cd	0.66667	0.33333	0.92511	0.27
Mof_C 	C 	0.66667	0.33333	0.8513	-0.061
Mof_Cd	Cd	0.33333	0.66667	0.25844	0.268
Mof_C 	C 	0.33333	0.66667	0.18463	-0.062
Mof_Cd	Cd	-2.46928e-32	-4.93855e-32	0.59178	0.232
Mof_C 	C 	-2.46928e-32	0	0.51797	-0.071
Mof_N 	N 	0.1271	0.8729	0.0436	-0.133
Mof_C 	C 	0.1934	0.8066	0.055	0.005
Mof_N 	N 	0.79377	0.20623	0.37693	-0.14
Mof_C 	C 	0.86007	0.13993	0.38833	0.022
Mof_N 	N 	0.46043	0.53957	0.71027	-0.137
Mof_C 	C 	0.52673	0.47327	0.72167	0.007
Mof_N 	N 	0.1271	0.2542	0.0436	-0.143
Mof_C 	C 	0.1934	0.3868	0.055	-0.002
Mof_N 	N 	0.79377	0.58753	0.37693	-0.141
Mof_C 	C 	0.86007	0.72013	0.38833	0.041
Mof_N 	N 	0.46043	0.92087	0.71027	-0.113
Mof_C 	C 	0.52673	0.05347	0.72167	-0.028
Mof_N 	N 	0.7458	0.8729	0.0436	-0.123
Mof_C 	C 	0.6132	0.8066	0.055	0.012
Mof_N 	N 	0.41247	0.20623	0.37693	-0.138
Mof_C 	C 	0.27987	0.13993	0.38833	-0.001
Mof_N 	N 	0.07913	0.53957	0.71027	-0.157
Mof_C 	C 	0.94653	0.47327	0.72167	0.035
Mof_N 	N 	0.8729	0.1271	0.9564	-0.13
Mof_C 	C 	0.8066	0.1934	0.945	0.008
Mof_N 	N 	0.53957	0.46043	0.28973	-0.137
Mof_C 	C 	0.47327	0.52673	0.27833	0.007
Mof_N 	N 	0.20623	0.79377	0.62307	-0.14
Mof_C 	C 	0.13993	0.86007	0.61167	0.022
Mof_N 	N 	0.2542	0.1271	0.9564	-0.14
Mof_C 	C 	0.3868	0.1934	0.945	0.001
Mof_N 	N 	0.92087	0.46043	0.28973	-0.113
Mof_C 	C 	0.05347	0.52673	0.27833	-0.027
Mof_N 	N 	0.58753	0.79377	0.62307	-0.141
Mof_C 	C 	0.72013	0.86007	0.61167	0.041
Mof_N 	N 	0.8729	0.7458	0.9564	-0.121
Mof_C 	C 	0.8066	0.6132	0.945	0.015
Mof_N 	N 	0.53957	0.07913	0.28973	-0.158
Mof_C 	C 	0.47327	0.94653	0.27833	0.036
Mof_N 	N 	0.20623	0.41247	0.62307	-0.138
Mof_C 	C 	0.13993	0.27987	0.61167	-0.001
_end
