data_functionalizedCrystal
_audit_creation_method	'EQeq! by Chris Wilmer'
_symmetry_space_group_name_H-M	'P1'
_symmetry_Int_Tables_number	1
_symmetry_cell_setting	triclinic
loop_
_symmetry_equiv_pos_as_xyz
  x,y,z
_cell_length_a	6.1645
_cell_length_b	10.074
_cell_length_c	13.503
_cell_angle_alpha	68.951
_cell_angle_beta	80.872
_cell_angle_gamma	76.667
loop_
_atom_site_label
_atom_site_type_symbol
_atom_site_fract_x
_atom_site_fract_y
_atom_site_fract_z
_atom_site_charge
Mof_Nd	Nd	0.82878	0.61541	0.19666	2.198
Mof_Nd	Nd	0.17122	0.38459	0.80335	2.198
Mof_H 	H 	0.3239	0.0469	0.0268	-0.001
Mof_H 	H 	0.7016	0.3271	0.6293	-0.02
Mof_H 	H 	0.6761	0.9531	0.9732	-0.001
Mof_H 	H 	0.2984	0.6729	0.3707	-0.02
Mof_C 	C 	0.2838	0.7695	0.1405	0.435
Mof_C 	C 	0.1336	0.895	0.0682	-0.116
Mof_C 	C 	0.1906	0.0294	0.0145	0.089
Mof_C 	C 	0.9469	0.3842	0.4409	0.359
Mof_C 	C 	0.7102	0.4451	0.473	-0.088
Mof_C 	C 	0.6164	0.3988	0.5775	0.085
Mof_C 	C 	0.0873	0.4403	0.0338	0.261
Mof_C 	C 	0.7162	0.2305	0.8595	0.435
Mof_C 	C 	0.8664	0.105	0.9318	-0.116
Mof_C 	C 	0.8094	0.9706	0.9855	0.089
Mof_C 	C 	0.0531	0.6158	0.5591	0.359
Mof_C 	C 	0.2898	0.5549	0.527	-0.088
Mof_C 	C 	0.3836	0.6012	0.4225	0.085
Mof_C 	C 	0.9127	0.5597	0.9662	0.261
Mof_N 	N 	0.9402	0.8659	0.0544	-0.211
Mof_N 	N 	0.5924	0.5457	0.3946	-0.22
Mof_N 	N 	0.0598	0.1341	0.9456	-0.211
Mof_N 	N 	0.4076	0.4543	0.6054	-0.22
Mof_O 	O 	0.2121	0.6543	0.1846	-0.542
Mof_O 	O 	0.4738	0.7876	0.1496	-0.536
Mof_O 	O 	0.0118	0.4309	0.3438	-0.498
Mof_O 	O 	0.0647	0.2925	0.5114	-0.291
Mof_O 	O 	0.0829	0.4308	0.1289	-0.442
Mof_O 	O 	0.2206	0.3631	0.9878	-0.462
Mof_O 	O 	0.7879	0.3457	0.8154	-0.542
Mof_O 	O 	0.5262	0.2124	0.8504	-0.536
Mof_O 	O 	0.9882	0.5691	0.6562	-0.498
Mof_O 	O 	0.9353	0.7075	0.4886	-0.291
Mof_O 	O 	0.9171	0.5692	0.8711	-0.442
Mof_O 	O 	0.7794	0.6369	0.0122	-0.462
_end
