data_functionalizedCrystal
_audit_creation_method	'EQeq! by Chris Wilmer'
_symmetry_space_group_name_H-M	'P1'
_symmetry_Int_Tables_number	1
_symmetry_cell_setting	triclinic
loop_
_symmetry_equiv_pos_as_xyz
  x,y,z
_cell_length_a	10.929
_cell_length_b	16.594
_cell_length_c	18.277
_cell_angle_alpha	63.002
_cell_angle_beta	72.6034
_cell_angle_gamma	90
loop_
_atom_site_label
_atom_site_type_symbol
_atom_site_fract_x
_atom_site_fract_y
_atom_site_fract_z
_atom_site_charge
Mof_Zn	Zn	0.57411	0.78544	0.64924	1.214
Mof_Zn	Zn	0.63569	0.47716	0.15342	1.227
Mof_Zn	Zn	0.42589	0.43468	0.35076	1.214
Mof_Zn	Zn	0.36431	0.63058	0.84658	1.227
Mof_Zn	Zn	0.77665	0.28544	0.64924	1.214
Mof_Zn	Zn	0.21089	0.97716	0.15342	1.221
Mof_Zn	Zn	0.22335	0.93468	0.35076	1.209
Mof_Zn	Zn	0.78911	0.13058	0.84658	1.229
Mof_H 	H 	0.7355	0.4912	0.7084	0.015
Mof_H 	H 	0.7342	0.3188	0.949	0.033
Mof_H 	H 	0.634	0.5664	0.8944	0.031
Mof_H 	H 	0.9375	0.9901	0.641	0.038
Mof_H 	H 	0.7673	0.8582	0.7362	0.021
Mof_H 	H 	0.9081	0.0107	0.3674	0.145
Mof_H 	H 	0.8179	0.9977	0.2706	-0.035
Mof_H 	H 	0.6251	0.9006	0.326	0.105
Mof_H 	H 	0.5233	0.8243	0.4722	0.001
Mof_H 	H 	0.0385	0.0959	0.4778	0.101
Mof_H 	H 	0.0253	0.0554	0.4172	0.092
Mof_H 	H 	0.9889	0.1817	0.2998	0.122
Mof_H 	H 	0.8644	0.2911	0.2426	-0.008
Mof_H 	H 	0.6522	0.2365	0.484	-0.005
Mof_H 	H 	0.7706	0.1255	0.5408	0.143
Mof_H 	H 	0.2645	0.1996	0.2916	0.02
Mof_H 	H 	0.2658	0.2678	0.051	0.039
Mof_H 	H 	0.366	0.4608	0.1056	0.036
Mof_H 	H 	0.0625	0.6311	0.359	0.051
Mof_H 	H 	0.2327	0.5944	0.2638	0.022
Mof_H 	H 	0.0919	0.3781	0.6326	0.075
Mof_H 	H 	0.1821	0.2683	0.7294	0.005
Mof_H 	H 	0.3749	0.2266	0.674	0.091
Mof_H 	H 	0.4767	0.2965	0.5278	0.011
Mof_H 	H 	0.9615	0.5737	0.5222	0.105
Mof_H 	H 	0.9747	0.4726	0.5828	0.095
Mof_H 	H 	0.0111	0.4815	0.7002	0.124
Mof_H 	H 	0.1356	0.5337	0.7574	-0.011
Mof_H 	H 	0.3478	0.7205	0.516	-0.007
Mof_H 	H 	0.2294	0.6663	0.4592	0.138
Mof_H 	H 	0.5561	0.9912	0.7084	0.021
Mof_H 	H 	0.3168	0.8188	0.949	0.027
Mof_H 	H 	0.4716	0.0664	0.8944	0.024
Mof_H 	H 	0.4215	0.4901	0.641	0.051
Mof_H 	H 	0.4965	0.3582	0.7362	0.023
Mof_H 	H 	0.7245	0.5107	0.3674	0.075
Mof_H 	H 	0.9115	0.4977	0.2706	0.004
Mof_H 	H 	0.0489	0.4006	0.326	0.088
Mof_H 	H 	0.0045	0.3243	0.4722	0.009
Mof_H 	H 	0.4837	0.5959	0.4778	0.103
Mof_H 	H 	0.5575	0.5554	0.4172	0.093
Mof_H 	H 	0.7113	0.6817	0.2998	0.123
Mof_H 	H 	0.893	0.7911	0.2426	-0.011
Mof_H 	H 	0.8638	0.7365	0.484	-0.006
Mof_H 	H 	0.6886	0.6255	0.5408	0.137
Mof_H 	H 	0.4439	0.6996	0.2916	0.016
Mof_H 	H 	0.6832	0.7678	0.051	0.036
Mof_H 	H 	0.5284	0.9608	0.1056	0.027
Mof_H 	H 	0.5785	0.1311	0.359	0.059
Mof_H 	H 	0.5035	0.0944	0.2638	0.015
Mof_H 	H 	0.2755	0.8781	0.6326	0.076
Mof_H 	H 	0.0885	0.7683	0.7294	-0.001
Mof_H 	H 	0.9511	0.7266	0.674	0.093
Mof_H 	H 	0.9955	0.7965	0.5278	0.013
Mof_H 	H 	0.5163	0.0737	0.5222	0.071
Mof_H 	H 	0.4425	0.9726	0.5828	0.031
Mof_H 	H 	0.2887	0.9815	0.7002	0.036
Mof_H 	H 	0.107	0.0337	0.7574	0.04
Mof_H 	H 	0.1362	0.2205	0.516	0.021
Mof_H 	H 	0.3114	0.1663	0.4592	0.106
Mof_C 	C 	0.72161	0.47791	0.76578	0.085
Mof_C 	C 	0.74324	0.39454	0.82352	-0.153
Mof_C 	C 	0.72294	0.37554	0.90912	0.07
Mof_C 	C 	0.6854	0.4422	0.9352	-0.117
Mof_C 	C 	0.6621	0.5231	0.8768	0.07
Mof_C 	C 	0.67943	0.54193	0.79274	-0.148
Mof_C 	C 	0.6693	0.4239	0.0266	0.322
Mof_C 	C 	0.64992	0.63142	0.73096	0.362
Mof_C 	C 	0.78046	0.32316	0.79648	0.398
Mof_C 	C 	0.8865	0.962	0.6238	-0.027
Mof_C 	C 	0.7918	0.8899	0.6758	0.03
Mof_C 	C 	0.79721	0.93011	0.54518	0.037
Mof_C 	C 	0.75907	0.92787	0.47506	0.104
Mof_C 	C 	0.8283	0.9742	0.388	-0.249
Mof_C 	C 	0.7753	0.9652	0.3304	0.14
Mof_C 	C 	0.6611	0.9085	0.3628	-0.202
Mof_C 	C 	0.6009	0.8635	0.4506	0.119
Mof_C 	C 	0.9768	0.0709	0.4618	-0.176
Mof_C 	C 	0.89328	0.14328	0.42504	0.198
Mof_C 	C 	0.9199	0.1923	0.337	-0.241
Mof_C 	C 	0.84503	0.25773	0.30254	0.154
Mof_C 	C 	0.74245	0.27285	0.3575	-0.216
Mof_C 	C 	0.71869	0.22429	0.44662	0.158
Mof_C 	C 	0.79038	0.15918	0.48064	-0.241
Mof_C 	C 	0.66095	0.34295	0.3199	0.456
Mof_C 	C 	0.27839	0.24369	0.23422	0.078
Mof_C 	C 	0.25676	0.21806	0.17648	-0.143
Mof_C 	C 	0.27706	0.28466	0.09088	0.061
Mof_C 	C 	0.3146	0.3774	0.0648	-0.102
Mof_C 	C 	0.3379	0.3999	0.1232	0.061
Mof_C 	C 	0.32057	0.33467	0.20726	-0.142
Mof_C 	C 	0.3307	0.4505	0.9734	0.311
Mof_C 	C 	0.35008	0.36238	0.26904	0.36
Mof_C 	C 	0.21954	0.11964	0.20352	0.393
Mof_C 	C 	0.1135	0.5858	0.3762	-0.026
Mof_C 	C 	0.2082	0.5657	0.3242	0.035
Mof_C 	C 	0.20279	0.47529	0.45482	0.058
Mof_C 	C 	0.24093	0.40293	0.52494	0.065
Mof_C 	C 	0.1717	0.3622	0.612	-0.126
Mof_C 	C 	0.2247	0.2956	0.6696	0.065
Mof_C 	C 	0.3389	0.2713	0.6372	-0.145
Mof_C 	C 	0.3991	0.3141	0.5494	0.092
Mof_C 	C 	0.0232	0.5327	0.5382	-0.211
Mof_C 	C 	0.10672	0.56832	0.57496	0.205
Mof_C 	C 	0.0801	0.5293	0.663	-0.25
Mof_C 	C 	0.15497	0.56027	0.69746	0.158
Mof_C 	C 	0.25755	0.63035	0.6425	-0.22
Mof_C 	C 	0.28131	0.67091	0.55338	0.161
Mof_C 	C 	0.20962	0.63982	0.51936	-0.251
Mof_C 	C 	0.33905	0.66285	0.6801	0.457
Mof_C 	C 	0.51261	0.97791	0.76578	0.035
Mof_C 	C 	0.43324	0.89454	0.82352	-0.146
Mof_C 	C 	0.36794	0.87554	0.90912	0.077
Mof_C 	C 	0.3794	0.9422	0.9352	-0.163
Mof_C 	C 	0.4611	0.0231	0.8768	0.119
Mof_C 	C 	0.52783	0.04193	0.79274	-0.115
Mof_C 	C 	0.3041	0.9239	0.0266	0.333
Mof_C 	C 	0.61912	0.13142	0.73096	0.358
Mof_C 	C 	0.42306	0.82316	0.79648	0.394
Mof_C 	C 	0.4897	0.462	0.6238	-0.026
Mof_C 	C 	0.5324	0.3899	0.6758	0.035
Mof_C 	C 	0.65761	0.43011	0.54518	0.058
Mof_C 	C 	0.76587	0.42787	0.47506	0.066
Mof_C 	C 	0.7837	0.4742	0.388	-0.126
Mof_C 	C 	0.8943	0.4652	0.3304	0.064
Mof_C 	C 	0.9761	0.4085	0.3628	-0.144
Mof_C 	C 	0.9485	0.3635	0.4506	0.093
Mof_C 	C 	0.5614	0.5709	0.4618	-0.206
Mof_C 	C 	0.68168	0.64328	0.42504	0.202
Mof_C 	C 	0.7431	0.6923	0.337	-0.248
Mof_C 	C 	0.85243	0.75773	0.30254	0.155
Mof_C 	C 	0.90005	0.77285	0.3575	-0.216
Mof_C 	C 	0.83469	0.72429	0.44662	0.159
Mof_C 	C 	0.72898	0.65918	0.48064	-0.248
Mof_C 	C 	0.01915	0.84295	0.3199	0.454
Mof_C 	C 	0.48739	0.74369	0.23422	0.081
Mof_C 	C 	0.56676	0.71806	0.17648	-0.148
Mof_C 	C 	0.63206	0.78466	0.09088	0.059
Mof_C 	C 	0.6206	0.8774	0.0648	-0.098
Mof_C 	C 	0.5389	0.8999	0.1232	0.058
Mof_C 	C 	0.47217	0.83467	0.20726	-0.145
Mof_C 	C 	0.6959	0.9505	0.9734	0.27
Mof_C 	C 	0.38088	0.86238	0.26904	0.362
Mof_C 	C 	0.57694	0.61964	0.20352	0.396
Mof_C 	C 	0.5103	0.0858	0.3762	-0.034
Mof_C 	C 	0.4676	0.0657	0.3242	0.084
Mof_C 	C 	0.34239	0.97529	0.45482	0.026
Mof_C 	C 	0.23413	0.90293	0.52494	0.069
Mof_C 	C 	0.2163	0.8622	0.612	-0.138
Mof_C 	C 	0.1057	0.7956	0.6696	0.07
Mof_C 	C 	0.0239	0.7713	0.6372	-0.151
Mof_C 	C 	0.0515	0.8141	0.5494	0.09
Mof_C 	C 	0.4386	0.0327	0.5382	-0.073
Mof_C 	C 	0.31832	0.06832	0.57496	0.098
Mof_C 	C 	0.2569	0.0293	0.663	-0.07
Mof_C 	C 	0.14757	0.06027	0.69746	0.045
Mof_C 	C 	0.09995	0.13035	0.6425	-0.144
Mof_C 	C 	0.16531	0.17091	0.55338	0.082
Mof_C 	C 	0.27102	0.13982	0.51936	-0.155
Mof_C 	C 	0.98085	0.16285	0.6801	0.432
Mof_N 	N 	0.89348	0.98668	0.53984	-0.102
Mof_N 	N 	0.73652	0.86942	0.62756	-0.232
Mof_N 	N 	0.64577	0.87167	0.50846	-0.246
Mof_N 	N 	0.10652	0.52652	0.46016	-0.086
Mof_N 	N 	0.26348	0.49698	0.37244	-0.236
Mof_N 	N 	0.35423	0.38013	0.49154	-0.232
Mof_N 	N 	0.56668	0.48668	0.53984	-0.086
Mof_N 	N 	0.63592	0.36942	0.62756	-0.235
Mof_N 	N 	0.84577	0.37167	0.50846	-0.232
Mof_N 	N 	0.43332	0.02652	0.46016	-0.076
Mof_N 	N 	0.36408	0.99698	0.37244	-0.258
Mof_N 	N 	0.15423	0.88013	0.49154	-0.236
Mof_O 	O 	0.63733	0.48893	0.04334	-0.445
Mof_O 	O 	0.6543	0.3419	0.087	-0.277
Mof_O 	O 	0.70516	0.66556	0.65188	-0.374
Mof_O 	O 	0.5679	0.6706	0.7642	-0.55
Mof_O 	O 	0.82587	0.34627	0.71666	-0.476
Mof_O 	O 	0.76126	0.24126	0.85728	-0.477
Mof_O 	O 	0.56755	0.35525	0.3701	-0.489
Mof_O 	O 	0.69459	0.38439	0.23742	-0.524
Mof_O 	O 	0.36267	0.53227	0.95666	-0.445
Mof_O 	O 	0.3457	0.4289	0.913	-0.278
Mof_O 	O 	0.29484	0.31744	0.34812	-0.373
Mof_O 	O 	0.4321	0.4348	0.2358	-0.549
Mof_O 	O 	0.17413	0.06293	0.28334	-0.457
Mof_O 	O 	0.23874	0.09854	0.14272	-0.457
Mof_O 	O 	0.43245	0.72535	0.6299	-0.489
Mof_O 	O 	0.30541	0.62181	0.76258	-0.526
Mof_O 	O 	0.31933	0.98893	0.04334	-0.465
Mof_O 	O 	0.2587	0.8419	0.087	-0.284
Mof_O 	O 	0.64296	0.16556	0.65188	-0.366
Mof_O 	O 	0.6679	0.1706	0.7642	-0.546
Mof_O 	O 	0.45747	0.84627	0.71666	-0.475
Mof_O 	O 	0.38146	0.74126	0.85728	-0.479
Mof_O 	O 	0.06235	0.85525	0.3701	-0.495
Mof_O 	O 	0.06799	0.88439	0.23742	-0.531
Mof_O 	O 	0.68067	0.03227	0.95666	-0.406
Mof_O 	O 	0.7413	0.9289	0.913	-0.283
Mof_O 	O 	0.35704	0.81744	0.34812	-0.375
Mof_O 	O 	0.3321	0.9348	0.2358	-0.56
Mof_O 	O 	0.54253	0.56293	0.28334	-0.476
Mof_O 	O 	0.61854	0.59854	0.14272	-0.478
Mof_O 	O 	0.93765	0.22535	0.6299	-0.481
Mof_O 	O 	0.93201	0.12181	0.76258	-0.512
_end
