data_functionalizedCrystal
_audit_creation_method	'EQeq! by Chris Wilmer'
_symmetry_space_group_name_H-M	'P1'
_symmetry_Int_Tables_number	1
_symmetry_cell_setting	triclinic
loop_
_symmetry_equiv_pos_as_xyz
  x,y,z
_cell_length_a	15.6115
_cell_length_b	15.6115
_cell_length_c	15.1842
_cell_angle_alpha	90
_cell_angle_beta	90
_cell_angle_gamma	120
loop_
_atom_site_label
_atom_site_type_symbol
_atom_site_fract_x
_atom_site_fract_y
_atom_site_fract_z
_atom_site_charge
Mof_O 	O 	0.80442	0.38449	0.85858	-0.511
Mof_O 	O 	0.94169	0.38839	0.90578	-0.395
Mof_C 	C 	0.86535	0.35303	0.86078	0.404
Mof_C 	C 	0.84068	0.2649	0.8031	-0.037
Mof_C 	C 	0.893	0.2153	0.8057	-0.001
Mof_H 	H 	0.9461	0.2352	0.8441	0.083
Mof_O 	O 	0.61551	0.41993	0.85858	-0.524
Mof_O 	O 	0.61161	0.5533	0.90578	-0.434
Mof_C 	C 	0.64697	0.51232	0.86078	0.409
Mof_C 	C 	0.7351	0.57578	0.8031	-0.041
Mof_C 	C 	0.7847	0.6777	0.8057	0.004
Mof_H 	H 	0.7648	0.7109	0.8441	0.072
Mof_O 	O 	0.58007	0.19558	0.85858	-0.539
Mof_O 	O 	0.4467	0.05831	0.90578	-0.48
Mof_C 	C 	0.48768	0.13465	0.86078	0.41
Mof_C 	C 	0.42422	0.15932	0.8031	-0.064
Mof_C 	C 	0.3223	0.107	0.8057	-0.009
Mof_H 	H 	0.2891	0.0539	0.8441	0.032
Mof_O 	O 	0.19558	0.61551	0.85858	-0.538
Mof_O 	O 	0.05831	0.61161	0.90578	-0.477
Mof_C 	C 	0.13465	0.64697	0.86078	0.412
Mof_C 	C 	0.15932	0.7351	0.8031	-0.058
Mof_C 	C 	0.107	0.7847	0.8057	-0.003
Mof_H 	H 	0.0539	0.7648	0.8441	0.041
Mof_O 	O 	0.38449	0.58007	0.85858	-0.526
Mof_O 	O 	0.38839	0.4467	0.90578	-0.44
Mof_C 	C 	0.35303	0.48768	0.86078	0.406
Mof_C 	C 	0.2649	0.42422	0.8031	-0.054
Mof_C 	C 	0.2153	0.3223	0.8057	-0.009
Mof_H 	H 	0.2352	0.2891	0.8441	0.052
Mof_O 	O 	0.41993	0.80442	0.85858	-0.511
Mof_O 	O 	0.5533	0.94169	0.90578	-0.393
Mof_C 	C 	0.51232	0.86535	0.86078	0.405
Mof_C 	C 	0.57578	0.84068	0.8031	-0.031
Mof_C 	C 	0.6777	0.893	0.8057	0.005
Mof_H 	H 	0.7109	0.9461	0.8441	0.092
Mof_O 	O 	0.38449	0.80442	0.64142	-0.551
Mof_O 	O 	0.38839	0.94169	0.59422	-0.465
Mof_C 	C 	0.35303	0.86535	0.63922	0.408
Mof_C 	C 	0.2649	0.84068	0.6969	-0.055
Mof_C 	C 	0.2153	0.893	0.6943	-0.001
Mof_H 	H 	0.2352	0.9461	0.6559	0.056
Mof_O 	O 	0.41993	0.61551	0.64142	-0.563
Mof_O 	O 	0.5533	0.61161	0.59422	-0.505
Mof_C 	C 	0.51232	0.64697	0.63922	0.414
Mof_C 	C 	0.57578	0.7351	0.6969	-0.058
Mof_C 	C 	0.6777	0.7847	0.6943	0.006
Mof_H 	H 	0.7109	0.7648	0.6559	0.046
Mof_O 	O 	0.19558	0.58007	0.64142	-0.578
Mof_O 	O 	0.05831	0.4467	0.59422	-0.552
Mof_C 	C 	0.13465	0.48768	0.63922	0.415
Mof_C 	C 	0.15932	0.42422	0.6969	-0.083
Mof_C 	C 	0.107	0.3223	0.6943	-0.008
Mof_H 	H 	0.0539	0.2891	0.6559	0.004
Mof_O 	O 	0.61551	0.19558	0.64142	-0.577
Mof_O 	O 	0.61161	0.05831	0.59422	-0.548
Mof_C 	C 	0.64697	0.13465	0.63922	0.417
Mof_C 	C 	0.7351	0.15932	0.6969	-0.076
Mof_C 	C 	0.7847	0.107	0.6943	-0.001
Mof_H 	H 	0.7648	0.0539	0.6559	0.014
Mof_O 	O 	0.58007	0.38449	0.64142	-0.566
Mof_O 	O 	0.4467	0.38839	0.59422	-0.512
Mof_C 	C 	0.48768	0.35303	0.63922	0.411
Mof_C 	C 	0.42422	0.2649	0.6969	-0.073
Mof_C 	C 	0.3223	0.2153	0.6943	-0.007
Mof_H 	H 	0.2891	0.2352	0.6559	0.025
Mof_O 	O 	0.80442	0.41993	0.64142	-0.55
Mof_O 	O 	0.94169	0.5533	0.59422	-0.461
Mof_C 	C 	0.86535	0.51232	0.63922	0.409
Mof_C 	C 	0.84068	0.57578	0.6969	-0.048
Mof_C 	C 	0.893	0.6777	0.6943	0.006
Mof_H 	H 	0.9461	0.7109	0.6559	0.066
Mof_O 	O 	0.19558	0.61551	0.14142	-0.609
Mof_O 	O 	0.05831	0.61161	0.09422	-0.611
Mof_C 	C 	0.13465	0.64697	0.13922	0.42
Mof_C 	C 	0.15932	0.7351	0.1969	-0.102
Mof_C 	C 	0.107	0.7847	0.1943	0.009
Mof_H 	H 	0.0539	0.7648	0.1559	-0.015
Mof_O 	O 	0.38449	0.58007	0.14142	-0.598
Mof_O 	O 	0.38839	0.4467	0.09422	-0.575
Mof_C 	C 	0.35303	0.48768	0.13922	0.415
Mof_C 	C 	0.2649	0.42422	0.1969	-0.1
Mof_C 	C 	0.2153	0.3223	0.1943	0.003
Mof_H 	H 	0.2352	0.2891	0.1559	-0.005
Mof_O 	O 	0.41993	0.80442	0.14142	-0.581
Mof_O 	O 	0.5533	0.94169	0.09422	-0.522
Mof_C 	C 	0.51232	0.86535	0.13922	0.413
Mof_C 	C 	0.57578	0.84068	0.1969	-0.075
Mof_C 	C 	0.6777	0.893	0.1943	0.017
Mof_H 	H 	0.7109	0.9461	0.1559	0.037
Mof_O 	O 	0.80442	0.38449	0.14142	-0.582
Mof_O 	O 	0.94169	0.38839	0.09422	-0.526
Mof_C 	C 	0.86535	0.35303	0.13922	0.411
Mof_C 	C 	0.84068	0.2649	0.1969	-0.082
Mof_C 	C 	0.893	0.2153	0.1943	0.01
Mof_H 	H 	0.9461	0.2352	0.1559	0.027
Mof_O 	O 	0.61551	0.41993	0.14142	-0.595
Mof_O 	O 	0.61161	0.5533	0.09422	-0.568
Mof_C 	C 	0.64697	0.51232	0.13922	0.418
Mof_C 	C 	0.7351	0.57578	0.1969	-0.085
Mof_C 	C 	0.7847	0.6777	0.1943	0.017
Mof_H 	H 	0.7648	0.7109	0.1559	0.016
Mof_O 	O 	0.58007	0.19558	0.14142	-0.61
Mof_O 	O 	0.4467	0.05831	0.09422	-0.615
Mof_C 	C 	0.48768	0.13465	0.13922	0.419
Mof_C 	C 	0.42422	0.15932	0.1969	-0.11
Mof_C 	C 	0.3223	0.107	0.1943	0.003
Mof_H 	H 	0.2891	0.0539	0.1559	-0.026
Mof_O 	O 	0.61551	0.19558	0.35858	-0.572
Mof_O 	O 	0.61161	0.05831	0.40578	-0.548
Mof_C 	C 	0.64697	0.13465	0.36078	0.417
Mof_C 	C 	0.7351	0.15932	0.3031	-0.085
Mof_C 	C 	0.7847	0.107	0.3057	0.008
Mof_H 	H 	0.7648	0.0539	0.3441	0.011
Mof_O 	O 	0.58007	0.38449	0.35858	-0.561
Mof_O 	O 	0.4467	0.38839	0.40578	-0.512
Mof_C 	C 	0.48768	0.35303	0.36078	0.412
Mof_C 	C 	0.42422	0.2649	0.3031	-0.083
Mof_C 	C 	0.3223	0.2153	0.3057	0.002
Mof_H 	H 	0.2891	0.2352	0.3441	0.021
Mof_O 	O 	0.80442	0.41993	0.35858	-0.545
Mof_O 	O 	0.94169	0.5533	0.40578	-0.461
Mof_C 	C 	0.86535	0.51232	0.36078	0.41
Mof_C 	C 	0.84068	0.57578	0.3031	-0.058
Mof_C 	C 	0.893	0.6777	0.3057	0.016
Mof_H 	H 	0.9461	0.7109	0.3441	0.063
Mof_O 	O 	0.38449	0.80442	0.35858	-0.546
Mof_O 	O 	0.38839	0.94169	0.40578	-0.464
Mof_C 	C 	0.35303	0.86535	0.36078	0.408
Mof_C 	C 	0.2649	0.84068	0.3031	-0.065
Mof_C 	C 	0.2153	0.893	0.3057	0.009
Mof_H 	H 	0.2352	0.9461	0.3441	0.053
Mof_O 	O 	0.41993	0.61551	0.35858	-0.558
Mof_O 	O 	0.5533	0.61161	0.40578	-0.505
Mof_C 	C 	0.51232	0.64697	0.36078	0.415
Mof_C 	C 	0.57578	0.7351	0.3031	-0.068
Mof_C 	C 	0.6777	0.7847	0.3057	0.015
Mof_H 	H 	0.7109	0.7648	0.3441	0.042
Mof_O 	O 	0.19558	0.58007	0.35858	-0.573
Mof_O 	O 	0.05831	0.4467	0.40578	-0.552
Mof_C 	C 	0.13465	0.48768	0.36078	0.416
Mof_C 	C 	0.15932	0.42422	0.3031	-0.093
Mof_C 	C 	0.107	0.3223	0.3057	0.002
Mof_H 	H 	0.0539	0.2891	0.3441	0
Mof_Ce	Ce	0.66667	0.33333	0.75	2.716
Mof_Ce	Ce	0.33333	0.66667	0.75	2.716
Mof_Ce	Ce	0.33333	0.66667	0.25	2.667
Mof_Ce	Ce	0.66667	0.33333	0.25	2.667
Mof_Mg	Mg	-3.5473e-17	0.5	-0	1.436
Mof_Mg	Mg	0.5	0.5	-0	1.446
Mof_Mg	Mg	0.5	0	-0	1.436
Mof_Mg	Mg	0.5	0	0.5	1.455
Mof_Mg	Mg	0.5	0.5	0.5	1.465
Mof_Mg	Mg	-2.40833e-17	0.5	0.5	1.455
Mof_N 	N 	0.76299	0.23701	0.75	-0.224
Mof_C 	C 	0.86493	0.13507	0.75	-0.061
Mof_H 	H 	0.8993	0.1007	0.75	0.053
Mof_N 	N 	0.76299	0.52598	0.75	-0.224
Mof_C 	C 	0.86493	0.72986	0.75	-0.047
Mof_H 	H 	0.8993	0.7986	0.75	0.086
Mof_N 	N 	0.47402	0.23701	0.75	-0.225
Mof_C 	C 	0.27014	0.13507	0.75	-0.075
Mof_H 	H 	0.2014	0.1007	0.75	0.02
Mof_N 	N 	0.23701	0.76299	0.75	-0.224
Mof_C 	C 	0.13507	0.86493	0.75	-0.061
Mof_H 	H 	0.1007	0.8993	0.75	0.053
Mof_N 	N 	0.23701	0.47402	0.75	-0.225
Mof_C 	C 	0.13507	0.27014	0.75	-0.075
Mof_H 	H 	0.1007	0.2014	0.75	0.02
Mof_N 	N 	0.52598	0.76299	0.75	-0.224
Mof_C 	C 	0.72986	0.86493	0.75	-0.047
Mof_H 	H 	0.7986	0.8993	0.75	0.086
Mof_N 	N 	0.23701	0.76299	0.25	-0.219
Mof_C 	C 	0.13507	0.86493	0.25	-0.09
Mof_H 	H 	0.1007	0.8993	0.25	0.044
Mof_N 	N 	0.23701	0.47402	0.25	-0.219
Mof_C 	C 	0.13507	0.27014	0.25	-0.105
Mof_H 	H 	0.1007	0.2014	0.25	0.01
Mof_N 	N 	0.52598	0.76299	0.25	-0.218
Mof_C 	C 	0.72986	0.86493	0.25	-0.076
Mof_H 	H 	0.7986	0.8993	0.25	0.078
Mof_N 	N 	0.76299	0.23701	0.25	-0.219
Mof_C 	C 	0.86493	0.13507	0.25	-0.09
Mof_H 	H 	0.8993	0.1007	0.25	0.044
Mof_N 	N 	0.76299	0.52598	0.25	-0.218
Mof_C 	C 	0.86493	0.72986	0.25	-0.076
Mof_H 	H 	0.8993	0.7986	0.25	0.078
Mof_N 	N 	0.47402	0.23701	0.25	-0.219
Mof_C 	C 	0.27014	0.13507	0.25	-0.105
Mof_H 	H 	0.2014	0.1007	0.25	0.01
_end
