data_functionalizedCrystal
_audit_creation_method	'EQeq! by Chris Wilmer'
_symmetry_space_group_name_H-M	'P1'
_symmetry_Int_Tables_number	1
_symmetry_cell_setting	triclinic
loop_
_symmetry_equiv_pos_as_xyz
  x,y,z
_cell_length_a	9.9063
_cell_length_b	9.9063
_cell_length_c	13.3661
_cell_angle_alpha	86.0709
_cell_angle_beta	69.3023
_cell_angle_gamma	115.51
loop_
_atom_site_label
_atom_site_type_symbol
_atom_site_fract_x
_atom_site_fract_y
_atom_site_fract_z
_atom_site_charge
Mof_Eu	Eu	0.23434	0.4599	0.49836	2.241
Mof_Eu	Eu	0.45826	0.73269	0.00164	2.244
Mof_Eu	Eu	0.54174	0.2673	0.99836	2.245
Mof_Eu	Eu	0.76567	0.5401	0.50164	2.242
Mof_H 	H 	0.4901	0.0532	0.6471	0.035
Mof_H 	H 	0.2003	0.1372	0.8529	0.039
Mof_H 	H 	0.6815	0.2392	0.3181	-0.001
Mof_H 	H 	0.0573	0.9996	0.1819	-0.012
Mof_H 	H 	0.5099	0.9468	0.3529	0.035
Mof_H 	H 	0.9427	0.0004	0.8181	-0.012
Mof_H 	H 	0.3185	0.7608	0.6819	-0.001
Mof_H 	H 	0.7997	0.8628	0.1471	0.039
Mof_C 	C 	0.01198	0.04727	0.14953	0.015
Mof_C 	C 	0.94409	0.3238	0.39727	0.472
Mof_C 	C 	0.561	0.40512	0.76656	0.277
Mof_C 	C 	0.81466	0.18414	0.38722	-0.054
Mof_C 	C 	0.77893	0.65864	0.89727	0.476
Mof_C 	C 	0.92864	0.79812	0.88722	-0.06
Mof_C 	C 	0.439	0.59488	0.23344	0.277
Mof_C 	C 	0.39843	0.00053	0.63004	-0.032
Mof_C 	C 	0.66682	0.93383	0.41783	-0.047
Mof_C 	C 	0.7356	0.08242	0.03656	0.477
Mof_C 	C 	0.14834	0.91535	0.91783	-0.041
Mof_C 	C 	0.6968	0.16151	0.35047	-0.001
Mof_C 	C 	0.85166	0.08465	0.08217	-0.041
Mof_C 	C 	0.33318	0.06617	0.58217	-0.047
Mof_C 	C 	0.61898	0.77216	0.46344	0.473
Mof_C 	C 	0.86943	0.97153	0.13004	-0.045
Mof_C 	C 	0.2644	0.91758	0.96344	0.477
Mof_C 	C 	0.98802	0.95273	0.85047	0.015
Mof_C 	C 	0.3032	0.83849	0.64953	-0.001
Mof_C 	C 	0.67168	0.32756	0.73344	0.277
Mof_C 	C 	0.60157	0.99947	0.36996	-0.032
Mof_C 	C 	0.32832	0.67244	0.26656	0.277
Mof_C 	C 	0.18534	0.81586	0.61278	-0.054
Mof_C 	C 	0.22107	0.34136	0.10273	0.476
Mof_C 	C 	0.13057	0.02847	0.86996	-0.045
Mof_C 	C 	0.05591	0.6762	0.60273	0.472
Mof_C 	C 	0.07136	0.20188	0.11278	-0.06
Mof_C 	C 	0.38102	0.22784	0.53656	0.473
Mof_O 	O 	0.75001	0.21164	0.00071	-0.563
Mof_O 	O 	0.02665	0.77256	0.92789	-0.149
Mof_O 	O 	0.57003	0.49386	0.68981	-0.459
Mof_O 	O 	0.68367	0.25984	0.81019	-0.46
Mof_O 	O 	0.49063	0.66778	0.46375	-0.612
Mof_O 	O 	0.24999	0.78836	0.99929	-0.563
Mof_O 	O 	0.93814	0.68388	0.5924	-0.511
Mof_O 	O 	0.77628	0.53054	0.9076	-0.512
Mof_O 	O 	0.06186	0.31612	0.4076	-0.511
Mof_O 	O 	0.22372	0.46946	0.0924	-0.512
Mof_O 	O 	0.0755	0.55882	0.60466	-0.604
Mof_O 	O 	0.50937	0.33222	0.53625	-0.612
Mof_O 	O 	0.42997	0.50614	0.31019	-0.459
Mof_O 	O 	0.26191	0.6644	0.36711	-0.465
Mof_O 	O 	0.53151	0.62902	0.13289	-0.464
Mof_O 	O 	0.33652	0.31984	0.10466	-0.604
Mof_O 	O 	0.97335	0.22744	0.07211	-0.149
Mof_O 	O 	0.46849	0.37098	0.86711	-0.464
Mof_O 	O 	0.63153	0.95438	0.03625	-0.615
Mof_O 	O 	0.71235	0.75072	0.49929	-0.565
Mof_O 	O 	0.36847	0.04562	0.96375	-0.615
Mof_O 	O 	0.73809	0.3356	0.63289	-0.465
Mof_O 	O 	0.20045	0.95454	0.57211	-0.151
Mof_O 	O 	0.31633	0.74016	0.18981	-0.46
Mof_O 	O 	0.28765	0.24928	0.50071	-0.565
Mof_O 	O 	0.9245	0.44118	0.39534	-0.604
Mof_O 	O 	0.66348	0.68016	0.89534	-0.604
Mof_O 	O 	0.79955	0.04546	0.42789	-0.151
_end
