data_functionalizedCrystal
_audit_creation_method	'EQeq! by Chris Wilmer'
_symmetry_space_group_name_H-M	'P1'
_symmetry_Int_Tables_number	1
_symmetry_cell_setting	triclinic
loop_
_symmetry_equiv_pos_as_xyz
  x,y,z
_cell_length_a	11.1061
_cell_length_b	32.9123
_cell_length_c	32.9123
_cell_angle_alpha	88.3687
_cell_angle_beta	80.2864
_cell_angle_gamma	80.2864
loop_
_atom_site_label
_atom_site_type_symbol
_atom_site_fract_x
_atom_site_fract_y
_atom_site_fract_z
_atom_site_charge
Mof_Eu	Eu	0.21288	0.32874	0.9721	2.001
Mof_Eu	Eu	0.71145	0.32609	0.97443	2.031
Mof_Eu	Eu	0.01372	0.17126	0.5279	1.995
Mof_Eu	Eu	0.51197	0.17391	0.52557	2.03
Mof_Eu	Eu	0.18498	0.0279	0.82874	2
Mof_Eu	Eu	0.68588	0.02557	0.82609	2.031
Mof_Eu	Eu	0.54163	0.47209	0.67126	2.001
Mof_Eu	Eu	0.03754	0.47443	0.67391	2.027
Mof_Eu	Eu	0.78712	0.67126	0.0279	2.001
Mof_Eu	Eu	0.28855	0.67391	0.02557	2.031
Mof_Eu	Eu	0.98628	0.82874	0.4721	1.994
Mof_Eu	Eu	0.48803	0.82609	0.47443	2.029
Mof_Eu	Eu	0.81502	0.9721	0.17126	1.999
Mof_Eu	Eu	0.31412	0.97443	0.17391	2.03
Mof_Eu	Eu	0.45838	0.5279	0.32874	2
Mof_Eu	Eu	0.96246	0.52557	0.32609	2.026
Mof_Co	Co	0.41824	0.53614	0.8713	1.117
Mof_Co	Co	0.32568	0.96386	0.6287	1.117
Mof_Co	Co	0.28954	0.1287	0.03614	1.117
Mof_Co	Co	0.95438	0.3713	0.46386	1.118
Mof_Co	Co	0.58176	0.46386	0.1287	1.117
Mof_Co	Co	0.67432	0.03614	0.3713	1.117
Mof_Co	Co	0.71046	0.8713	0.96386	1.117
Mof_Co	Co	0.04562	0.6287	0.53614	1.118
Mof_H 	H 	0.6078	0.3669	0.8433	0.024
Mof_H 	H 	0.5551	0.4058	0.7874	0.091
Mof_H 	H 	0.447	0.4723	0.7987	-0.018
Mof_H 	H 	0.3965	0.558	0.968	-0.02
Mof_H 	H 	0.3131	0.528	0.028	0.09
Mof_H 	H 	0.2744	0.4614	0.0268	0.005
Mof_H 	H 	0.0334	0.4381	0.0177	-0.011
Mof_H 	H 	0.0024	0.495	0.062	0.094
Mof_H 	H 	0.8298	0.5029	0.1131	-0.018
Mof_H 	H 	0.4439	0.3885	0.1391	-0.002
Mof_H 	H 	0.5014	0.3195	0.1485	0.09
Mof_H 	H 	0.708	0.2898	0.1274	0.032
Mof_H 	H 	0.6737	0.2101	0.9557	-0.014
Mof_H 	H 	0.7236	0.1397	0.9617	0.092
Mof_H 	H 	0.581	0.1045	0.0001	-0.019
Mof_H 	H 	0.0678	0.1875	0.0867	-0
Mof_H 	H 	0.046	0.2432	0.129	0.088
Mof_H 	H 	0.2098	0.2795	0.1249	0.032
Mof_H 	H 	0.9357	0.1871	0.9577	-0.012
Mof_H 	H 	0.0486	0.1271	0.9281	0.122
Mof_H 	H 	0.1726	0.1344	0.871	-0.02
Mof_H 	H 	0.9653	0.2962	0.7608	0.022
Mof_H 	H 	0.9423	0.3618	0.7876	0.089
Mof_H 	H 	0.0352	0.3643	0.8469	0.025
Mof_H 	H 	0.318	0.1331	0.6567	0.023
Mof_H 	H 	0.2483	0.0942	0.7126	0.091
Mof_H 	H 	0.218	0.0277	0.7013	-0.018
Mof_H 	H 	0.4225	0.942	0.532	-0.02
Mof_H 	H 	0.3691	0.972	0.472	0.09
Mof_H 	H 	0.2626	0.0386	0.4732	0.005
Mof_H 	H 	0.9892	0.0619	0.4823	-0.01
Mof_H 	H 	0.0594	0.005	0.438	0.092
Mof_H 	H 	0.9458	0.9971	0.3869	-0.018
Mof_H 	H 	0.4715	0.1115	0.3609	-0.002
Mof_H 	H 	0.4694	0.1805	0.3515	0.09
Mof_H 	H 	0.6252	0.2102	0.3726	0.031
Mof_H 	H 	0.3395	0.2899	0.5443	-0.014
Mof_H 	H 	0.325	0.3603	0.5383	0.092
Mof_H 	H 	0.1856	0.3955	0.4999	-0.019
Mof_H 	H 	0.842	0.3125	0.4133	0.001
Mof_H 	H 	0.9182	0.2568	0.371	0.087
Mof_H 	H 	0.1142	0.2205	0.3751	0.033
Mof_H 	H 	0.5805	0.3129	0.5423	-0.011
Mof_H 	H 	0.6038	0.3729	0.5719	0.121
Mof_H 	H 	0.678	0.3656	0.629	-0.02
Mof_H 	H 	0.5223	0.2038	0.7392	0.021
Mof_H 	H 	0.5917	0.1382	0.7124	0.09
Mof_H 	H 	0.7464	0.1357	0.6531	0.024
Mof_H 	H 	0.4511	0.1567	0.8669	0.023
Mof_H 	H 	0.3425	0.2126	0.9058	0.091
Mof_H 	H 	0.2457	0.2013	0.9723	-0.018
Mof_H 	H 	0.3645	0.032	0.058	-0.02
Mof_H 	H 	0.3411	0.972	0.028	0.09
Mof_H 	H 	0.3012	0.9732	0.9614	0.005
Mof_H 	H 	0.0511	0.9823	0.9381	-0.01
Mof_H 	H 	0.0644	0.938	0.995	0.092
Mof_H 	H 	0.9429	0.8869	0.0029	-0.017
Mof_H 	H 	0.583	0.8609	0.8885	-0.002
Mof_H 	H 	0.6499	0.8515	0.8195	0.09
Mof_H 	H 	0.8354	0.8726	0.7898	0.031
Mof_H 	H 	0.6294	0.0443	0.7101	-0.014
Mof_H 	H 	0.6853	0.0383	0.6397	0.092
Mof_H 	H 	0.5811	0.9999	0.6045	-0.019
Mof_H 	H 	0.1545	0.9133	0.6875	0
Mof_H 	H 	0.175	0.871	0.7432	0.088
Mof_H 	H 	0.3347	0.8751	0.7795	0.032
Mof_H 	H 	0.8934	0.0423	0.6871	-0.012
Mof_H 	H 	0.9767	0.0719	0.6271	0.123
Mof_H 	H 	0.0436	0.129	0.6344	-0.024
Mof_H 	H 	0.7261	0.2392	0.7962	0.022
Mof_H 	H 	0.7299	0.2124	0.8618	0.089
Mof_H 	H 	0.8821	0.1531	0.8643	0.025
Mof_H 	H 	0.9747	0.3433	0.6331	0.024
Mof_H 	H 	0.9609	0.2874	0.5942	0.092
Mof_H 	H 	0.9193	0.2987	0.5277	-0.018
Mof_H 	H 	0.9545	0.468	0.442	-0.02
Mof_H 	H 	0.8411	0.528	0.472	0.09
Mof_H 	H 	0.7358	0.5268	0.5386	0.005
Mof_H 	H 	0.4715	0.5177	0.5619	-0.01
Mof_H 	H 	0.4974	0.562	0.505	0.092
Mof_H 	H 	0.3327	0.6131	0.4971	-0.017
Mof_H 	H 	0.8324	0.6391	0.6115	-0.002
Mof_H 	H 	0.8209	0.6485	0.6805	0.09
Mof_H 	H 	0.9978	0.6274	0.7102	0.032
Mof_H 	H 	0.8838	0.4557	0.7899	-0.013
Mof_H 	H 	0.8633	0.4617	0.8603	0.093
Mof_H 	H 	0.6855	0.5001	0.8955	-0.019
Mof_H 	H 	0.2553	0.5867	0.8125	0
Mof_H 	H 	0.2892	0.629	0.7568	0.088
Mof_H 	H 	0.4893	0.6249	0.7205	0.032
Mof_H 	H 	0.1228	0.4577	0.8129	-0.011
Mof_H 	H 	0.1757	0.4281	0.8729	0.121
Mof_H 	H 	0.307	0.371	0.8656	-0.02
Mof_H 	H 	0.2615	0.2608	0.7038	0.021
Mof_H 	H 	0.3041	0.2876	0.6382	0.089
Mof_H 	H 	0.3995	0.3469	0.6357	0.024
Mof_H 	H 	0.3922	0.6331	0.1567	0.024
Mof_H 	H 	0.4449	0.5942	0.2126	0.091
Mof_H 	H 	0.553	0.5277	0.2013	-0.018
Mof_H 	H 	0.6035	0.442	0.032	-0.02
Mof_H 	H 	0.6869	0.472	0.972	0.09
Mof_H 	H 	0.7256	0.5386	0.9732	0.005
Mof_H 	H 	0.9666	0.5619	0.9823	-0.011
Mof_H 	H 	0.9976	0.505	0.938	0.094
Mof_H 	H 	0.1702	0.4971	0.8869	-0.018
Mof_H 	H 	0.5561	0.6115	0.8609	-0.002
Mof_H 	H 	0.4986	0.6805	0.8515	0.09
Mof_H 	H 	0.292	0.7102	0.8726	0.032
Mof_H 	H 	0.3263	0.7899	0.0443	-0.014
Mof_H 	H 	0.2764	0.8603	0.0383	0.092
Mof_H 	H 	0.419	0.8955	0.9999	-0.019
Mof_H 	H 	0.9322	0.8125	0.9133	-0
Mof_H 	H 	0.954	0.7568	0.871	0.088
Mof_H 	H 	0.7902	0.7205	0.8751	0.032
Mof_H 	H 	0.0643	0.8129	0.0423	-0.012
Mof_H 	H 	0.9514	0.8729	0.0719	0.122
Mof_H 	H 	0.8274	0.8656	0.129	-0.02
Mof_H 	H 	0.0347	0.7038	0.2392	0.022
Mof_H 	H 	0.0577	0.6382	0.2124	0.089
Mof_H 	H 	0.9648	0.6357	0.1531	0.025
Mof_H 	H 	0.682	0.8669	0.3433	0.023
Mof_H 	H 	0.7517	0.9058	0.2874	0.091
Mof_H 	H 	0.782	0.9723	0.2987	-0.018
Mof_H 	H 	0.5775	0.058	0.468	-0.02
Mof_H 	H 	0.6309	0.028	0.528	0.09
Mof_H 	H 	0.7374	0.9614	0.5268	0.005
Mof_H 	H 	0.0108	0.9381	0.5177	-0.01
Mof_H 	H 	0.9406	0.995	0.562	0.092
Mof_H 	H 	0.0542	0.0029	0.6131	-0.018
Mof_H 	H 	0.5285	0.8885	0.6391	-0.002
Mof_H 	H 	0.5306	0.8195	0.6485	0.09
Mof_H 	H 	0.3748	0.7898	0.6274	0.031
Mof_H 	H 	0.6605	0.7101	0.4557	-0.014
Mof_H 	H 	0.675	0.6397	0.4617	0.092
Mof_H 	H 	0.8144	0.6045	0.5001	-0.019
Mof_H 	H 	0.158	0.6875	0.5867	0.001
Mof_H 	H 	0.0818	0.7432	0.629	0.087
Mof_H 	H 	0.8858	0.7795	0.6249	0.033
Mof_H 	H 	0.4195	0.6871	0.4577	-0.011
Mof_H 	H 	0.3962	0.6271	0.4281	0.121
Mof_H 	H 	0.322	0.6344	0.371	-0.02
Mof_H 	H 	0.4777	0.7962	0.2608	0.021
Mof_H 	H 	0.4083	0.8618	0.2876	0.09
Mof_H 	H 	0.2536	0.8643	0.3469	0.024
Mof_H 	H 	0.5489	0.8433	0.1331	0.023
Mof_H 	H 	0.6575	0.7874	0.0942	0.091
Mof_H 	H 	0.7543	0.7987	0.0277	-0.018
Mof_H 	H 	0.6355	0.968	0.942	-0.02
Mof_H 	H 	0.6589	0.028	0.972	0.09
Mof_H 	H 	0.6988	0.0268	0.0386	0.005
Mof_H 	H 	0.9489	0.0177	0.0619	-0.01
Mof_H 	H 	0.9356	0.062	0.005	0.092
Mof_H 	H 	0.0571	0.1131	0.9971	-0.017
Mof_H 	H 	0.417	0.1391	0.1115	-0.002
Mof_H 	H 	0.3501	0.1485	0.1805	0.09
Mof_H 	H 	0.1646	0.1274	0.2102	0.031
Mof_H 	H 	0.3706	0.9557	0.2899	-0.014
Mof_H 	H 	0.3147	0.9617	0.3603	0.092
Mof_H 	H 	0.4189	0.0001	0.3955	-0.019
Mof_H 	H 	0.8455	0.0867	0.3125	0
Mof_H 	H 	0.825	0.129	0.2568	0.088
Mof_H 	H 	0.6653	0.1249	0.2205	0.032
Mof_H 	H 	0.1066	0.9577	0.3129	-0.012
Mof_H 	H 	0.0233	0.9281	0.3729	0.123
Mof_H 	H 	0.9564	0.871	0.3656	-0.024
Mof_H 	H 	0.2739	0.7608	0.2038	0.022
Mof_H 	H 	0.2701	0.7876	0.1382	0.089
Mof_H 	H 	0.1179	0.8469	0.1357	0.025
Mof_H 	H 	0.0253	0.6567	0.3669	0.024
Mof_H 	H 	0.0391	0.7126	0.4058	0.092
Mof_H 	H 	0.0807	0.7013	0.4723	-0.018
Mof_H 	H 	0.0455	0.532	0.558	-0.02
Mof_H 	H 	0.1589	0.472	0.528	0.09
Mof_H 	H 	0.2642	0.4732	0.4614	0.005
Mof_H 	H 	0.5285	0.4823	0.4381	-0.01
Mof_H 	H 	0.5026	0.438	0.495	0.092
Mof_H 	H 	0.6673	0.3869	0.5029	-0.017
Mof_H 	H 	0.1676	0.3609	0.3885	-0.002
Mof_H 	H 	0.1791	0.3515	0.3195	0.09
Mof_H 	H 	0.0022	0.3726	0.2898	0.032
Mof_H 	H 	0.1162	0.5443	0.2101	-0.013
Mof_H 	H 	0.1367	0.5383	0.1397	0.093
Mof_H 	H 	0.3145	0.4999	0.1045	-0.019
Mof_H 	H 	0.7447	0.4133	0.1875	0
Mof_H 	H 	0.7108	0.371	0.2432	0.088
Mof_H 	H 	0.5107	0.3751	0.2795	0.032
Mof_H 	H 	0.8772	0.5423	0.1871	-0.011
Mof_H 	H 	0.8243	0.5719	0.1271	0.121
Mof_H 	H 	0.693	0.629	0.1344	-0.02
Mof_H 	H 	0.7385	0.7392	0.2962	0.021
Mof_H 	H 	0.6959	0.7124	0.3618	0.089
Mof_H 	H 	0.6005	0.6531	0.3643	0.024
Mof_C 	C 	0.5815	0.3865	0.9219	0.325
Mof_C 	C 	0.52829	0.40988	0.88754	-0.118
Mof_C 	C 	0.5633	0.3935	0.8473	0.054
Mof_C 	C 	0.5325	0.4164	0.814	-0.139
Mof_C 	C 	0.46603	0.45618	0.82116	0.091
Mof_C 	C 	0.45514	0.44869	0.89183	0.055
Mof_C 	C 	0.40632	0.46899	0.93217	0.064
Mof_C 	C 	0.38536	0.5306	0.96768	0.097
Mof_C 	C 	0.33327	0.51303	0.00363	-0.149
Mof_C 	C 	0.31154	0.47317	0.00295	0.064
Mof_C 	C 	0.34558	0.4502	0.96624	-0.117
Mof_C 	C 	0.3046	0.40885	0.96475	0.339
Mof_C 	C 	0.91254	0.3765	0.01742	0.552
Mof_C 	C 	0.89654	0.41044	0.04868	-0.212
Mof_C 	C 	0.9703	0.4408	0.0404	0.12
Mof_C 	C 	0.9504	0.4753	0.0659	-0.177
Mof_C 	C 	0.8493	0.479	0.0974	0.105
Mof_C 	C 	0.80478	0.41489	0.08355	0.097
Mof_C 	C 	0.72475	0.38383	0.10027	0.044
Mof_C 	C 	0.52618	0.37669	0.13075	0.075
Mof_C 	C 	0.55935	0.33551	0.13639	-0.126
Mof_C 	C 	0.68233	0.31782	0.12352	0.039
Mof_C 	C 	0.76657	0.34221	0.10485	-0.106
Mof_C 	C 	0.89972	0.3221	0.09066	0.305
Mof_C 	C 	0.47693	0.26286	0.98888	0.549
Mof_C 	C 	0.51473	0.21715	0.99679	-0.21
Mof_C 	C 	0.62114	0.19576	0.97336	0.126
Mof_C 	C 	0.6496	0.1539	0.9759	-0.186
Mof_C 	C 	0.5659	0.1331	0.0001	0.104
Mof_C 	C 	0.44037	0.19441	0.02385	0.097
Mof_C 	C 	0.33053	0.21179	0.05435	0.044
Mof_C 	C 	0.13266	0.20232	0.08496	0.073
Mof_C 	C 	0.11881	0.2354	0.11038	-0.12
Mof_C 	C 	0.21639	0.25715	0.10767	0.04
Mof_C 	C 	0.32306	0.24581	0.07967	-0.1
Mof_C 	C 	0.43023	0.26986	0.07808	0.31
Mof_C 	C 	0.8838	0.2606	0.93	0.357
Mof_C 	C 	0.976	0.2256	0.91	-0.149
Mof_C 	C 	0.9816	0.1878	0.9314	0.115
Mof_C 	C 	0.0503	0.1527	0.9153	-0.223
Mof_C 	C 	0.118	0.1579	0.8809	0.149
Mof_C 	C 	0.0464	0.2283	0.8723	0.092
Mof_C 	C 	0.0343	0.267	0.847	0.091
Mof_C 	C 	0.9807	0.299	0.7874	0.082
Mof_C 	C 	0.9751	0.3384	0.801	-0.128
Mof_C 	C 	0.0244	0.3391	0.8373	0.049
Mof_C 	C 	0.0595	0.3022	0.8604	-0.127
Mof_C 	C 	0.1179	0.3068	0.9002	0.394
Mof_C 	C 	0.3899	0.1135	0.5781	0.325
Mof_C 	C 	0.32571	0.09012	0.61246	-0.118
Mof_C 	C 	0.3041	0.1065	0.6527	0.054
Mof_C 	C 	0.2629	0.0836	0.686	-0.139
Mof_C 	C 	0.24337	0.04382	0.67884	0.091
Mof_C 	C 	0.29566	0.05131	0.60817	0.055
Mof_C 	C 	0.30748	0.03101	0.56783	0.064
Mof_C 	C 	0.38364	0.9694	0.53232	0.097
Mof_C 	C 	0.34993	0.98697	0.49637	-0.148
Mof_C 	C 	0.28766	0.02683	0.49705	0.064
Mof_C 	C 	0.26202	0.0498	0.53376	-0.118
Mof_C 	C 	0.1782	0.09115	0.53525	0.339
Mof_C 	C 	0.80646	0.1235	0.48258	0.55
Mof_C 	C 	0.85566	0.08956	0.45132	-0.21
Mof_C 	C 	0.9515	0.0592	0.4596	0.117
Mof_C 	C 	0.9916	0.0247	0.4341	-0.175
Mof_C 	C 	0.9257	0.021	0.4026	0.105
Mof_C 	C 	0.80322	0.08511	0.41645	0.096
Mof_C 	C 	0.70885	0.11617	0.39973	0.044
Mof_C 	C 	0.53362	0.12331	0.36925	0.075
Mof_C 	C 	0.53125	0.16449	0.36361	-0.126
Mof_C 	C 	0.62367	0.18218	0.37648	0.039
Mof_C 	C 	0.71363	0.15779	0.39515	-0.106
Mof_C 	C 	0.81248	0.1779	0.40934	0.305
Mof_C 	C 	0.22867	0.23714	0.51112	0.548
Mof_C 	C 	0.22867	0.28285	0.50321	-0.21
Mof_C 	C 	0.29026	0.30424	0.52664	0.126
Mof_C 	C 	0.2794	0.3461	0.5241	-0.186
Mof_C 	C 	0.1991	0.3669	0.4999	0.103
Mof_C 	C 	0.15863	0.30559	0.47615	0.097
Mof_C 	C 	0.09667	0.28821	0.44565	0.042
Mof_C 	C 	0.91994	0.29768	0.41504	0.071
Mof_C 	C 	0.96459	0.2646	0.38962	-0.116
Mof_C 	C 	0.08121	0.24285	0.39233	0.036
Mof_C 	C 	0.14854	0.25419	0.42033	-0.099
Mof_C 	C 	0.27817	0.23014	0.42192	0.309
Mof_C 	C 	0.5744	0.2394	0.57	0.357
Mof_C 	C 	0.6116	0.2744	0.59	-0.151
Mof_C 	C 	0.6008	0.3122	0.5686	0.113
Mof_C 	C 	0.6183	0.3473	0.5847	-0.219
Mof_C 	C 	0.6568	0.3421	0.6191	0.148
Mof_C 	C 	0.647	0.2717	0.6277	0.094
Mof_C 	C 	0.6483	0.233	0.653	0.091
Mof_C 	C 	0.5671	0.201	0.7126	0.08
Mof_C 	C 	0.6145	0.1616	0.699	-0.132
Mof_C 	C 	0.7008	0.1609	0.6627	0.054
Mof_C 	C 	0.7221	0.1978	0.6396	-0.128
Mof_C 	C 	0.8249	0.1932	0.5998	0.394
Mof_C 	C 	0.5034	0.0781	0.8865	0.325
Mof_C 	C 	0.41583	0.11246	0.90988	-0.118
Mof_C 	C 	0.4106	0.1527	0.8935	0.054
Mof_C 	C 	0.3465	0.186	0.9164	-0.139
Mof_C 	C 	0.28719	0.17884	0.95618	0.091
Mof_C 	C 	0.34697	0.10817	0.94869	0.055
Mof_C 	C 	0.33849	0.06783	0.96899	0.064
Mof_C 	C 	0.35304	0.03232	0.0306	0.097
Mof_C 	C 	0.3369	0.99637	0.01303	-0.149
Mof_C 	C 	0.31449	0.99705	0.97317	0.065
Mof_C 	C 	0.31182	0.03376	0.9502	-0.118
Mof_C 	C 	0.26935	0.03525	0.90885	0.339
Mof_C 	C 	0.92996	0.98258	0.8765	0.551
Mof_C 	C 	0.94522	0.95132	0.91044	-0.211
Mof_C 	C 	0.0107	0.9596	0.9408	0.116
Mof_C 	C 	0.0163	0.9341	0.9753	-0.173
Mof_C 	C 	0.9467	0.9026	0.979	0.102
Mof_C 	C 	0.88833	0.91645	0.91489	0.096
Mof_C 	C 	0.82502	0.89973	0.88383	0.044
Mof_C 	C 	0.65693	0.86925	0.87669	0.075
Mof_C 	C 	0.69574	0.86361	0.83551	-0.126
Mof_C 	C 	0.80585	0.87648	0.81782	0.039
Mof_C 	C 	0.87142	0.89515	0.84221	-0.106
Mof_C 	C 	0.99038	0.90934	0.8221	0.305
Mof_C 	C 	0.46581	0.01112	0.76286	0.549
Mof_C 	C 	0.51152	0.00321	0.71715	-0.21
Mof_C 	C 	0.5945	0.02664	0.69576	0.126
Mof_C 	C 	0.6255	0.0241	0.6539	-0.185
Mof_C 	C 	0.566	0.9999	0.6331	0.104
Mof_C 	C 	0.46422	0.97615	0.69441	0.097
Mof_C 	C 	0.38488	0.94565	0.71179	0.044
Mof_C 	C 	0.21762	0.91504	0.70232	0.073
Mof_C 	C 	0.22919	0.88962	0.7354	-0.12
Mof_C 	C 	0.32406	0.89233	0.75715	0.04
Mof_C 	C 	0.40273	0.92033	0.74581	-0.1
Mof_C 	C 	0.50831	0.92192	0.76986	0.31
Mof_C 	C 	0.8138	0.07	0.7606	0.358
Mof_C 	C 	0.886	0.09	0.7256	-0.152
Mof_C 	C 	0.913	0.0686	0.6878	0.116
Mof_C 	C 	0.9656	0.0847	0.6527	-0.225
Mof_C 	C 	0.9989	0.1191	0.6579	0.155
Mof_C 	C 	0.9187	0.1277	0.7283	0.095
Mof_C 	C 	0.8813	0.153	0.767	0.091
Mof_C 	C 	0.7681	0.2126	0.799	0.08
Mof_C 	C 	0.7761	0.199	0.8384	-0.131
Mof_C 	C 	0.8617	0.1627	0.8391	0.053
Mof_C 	C 	0.9199	0.1396	0.8022	-0.126
Mof_C 	C 	0.0181	0.0998	0.8068	0.392
Mof_C 	C 	0.968	0.4219	0.6135	0.328
Mof_C 	C 	0.93817	0.38754	0.59012	-0.118
Mof_C 	C 	0.9568	0.3473	0.6065	0.055
Mof_C 	C 	0.9489	0.314	0.5836	-0.139
Mof_C 	C 	0.92221	0.32116	0.54382	0.092
Mof_C 	C 	0.90383	0.39183	0.55131	0.055
Mof_C 	C 	0.87531	0.43217	0.53101	0.064
Mof_C 	C 	0.91596	0.46768	0.4694	0.097
Mof_C 	C 	0.8463	0.50363	0.48697	-0.149
Mof_C 	C 	0.78471	0.50295	0.52683	0.064
Mof_C 	C 	0.79578	0.46624	0.5498	-0.117
Mof_C 	C 	0.71345	0.46475	0.59115	0.339
Mof_C 	C 	0.28904	0.51742	0.6235	0.55
Mof_C 	C 	0.30698	0.54868	0.58956	-0.211
Mof_C 	C 	0.4111	0.5404	0.5592	0.117
Mof_C 	C 	0.4257	0.5659	0.5247	-0.174
Mof_C 	C 	0.3283	0.5974	0.521	0.104
Mof_C 	C 	0.21967	0.58355	0.58511	0.096
Mof_C 	C 	0.10858	0.60027	0.61617	0.044
Mof_C 	C 	0.90287	0.63075	0.62331	0.074
Mof_C 	C 	0.89486	0.63639	0.66449	-0.125
Mof_C 	C 	0.00015	0.62352	0.68218	0.038
Mof_C 	C 	0.10878	0.60485	0.65779	-0.106
Mof_C 	C 	0.22182	0.59066	0.6779	0.305
Mof_C 	C 	0.73979	0.48888	0.73714	0.548
Mof_C 	C 	0.73188	0.49679	0.78285	-0.209
Mof_C 	C 	0.8169	0.47336	0.80424	0.126
Mof_C 	C 	0.8035	0.4759	0.8461	-0.185
Mof_C 	C 	0.699	0.5001	0.8669	0.104
Mof_C 	C 	0.63478	0.52385	0.80559	0.097
Mof_C 	C 	0.54232	0.55435	0.78821	0.044
Mof_C 	C 	0.33498	0.58496	0.79768	0.073
Mof_C 	C 	0.35421	0.61038	0.7646	-0.12
Mof_C 	C 	0.47354	0.60767	0.74285	0.04
Mof_C 	C 	0.56887	0.57967	0.75419	-0.1
Mof_C 	C 	0.70009	0.57808	0.73014	0.31
Mof_C 	C 	0.1444	0.43	0.7394	0.357
Mof_C 	C 	0.2016	0.41	0.7744	-0.151
Mof_C 	C 	0.1694	0.4314	0.8122	0.113
Mof_C 	C 	0.203	0.4153	0.8473	-0.219
Mof_C 	C 	0.2759	0.3809	0.8421	0.148
Mof_C 	C 	0.2747	0.3723	0.7717	0.094
Mof_C 	C 	0.3013	0.347	0.733	0.091
Mof_C 	C 	0.2797	0.2874	0.701	0.08
Mof_C 	C 	0.3135	0.301	0.6616	-0.132
Mof_C 	C 	0.3635	0.3373	0.6609	0.054
Mof_C 	C 	0.3617	0.3604	0.6978	-0.128
Mof_C 	C 	0.4247	0.4002	0.6932	0.395
Mof_C 	C 	0.4185	0.6135	0.0781	0.325
Mof_C 	C 	0.47171	0.59012	0.11246	-0.118
Mof_C 	C 	0.4367	0.6065	0.1527	0.054
Mof_C 	C 	0.4675	0.5836	0.186	-0.139
Mof_C 	C 	0.53397	0.54382	0.17884	0.091
Mof_C 	C 	0.54486	0.55131	0.10817	0.055
Mof_C 	C 	0.59368	0.53101	0.06783	0.064
Mof_C 	C 	0.61464	0.4694	0.03232	0.097
Mof_C 	C 	0.66673	0.48697	0.99637	-0.149
Mof_C 	C 	0.68846	0.52683	0.99705	0.064
Mof_C 	C 	0.65442	0.5498	0.03376	-0.117
Mof_C 	C 	0.6954	0.59115	0.03525	0.339
Mof_C 	C 	0.08746	0.6235	0.98258	0.552
Mof_C 	C 	0.10346	0.58956	0.95132	-0.212
Mof_C 	C 	0.0297	0.5592	0.9596	0.12
Mof_C 	C 	0.0496	0.5247	0.9341	-0.177
Mof_C 	C 	0.1507	0.521	0.9026	0.105
Mof_C 	C 	0.19522	0.58511	0.91645	0.097
Mof_C 	C 	0.27525	0.61617	0.89973	0.044
Mof_C 	C 	0.47382	0.62331	0.86925	0.075
Mof_C 	C 	0.44065	0.66449	0.86361	-0.126
Mof_C 	C 	0.31767	0.68218	0.87648	0.039
Mof_C 	C 	0.23343	0.65779	0.89515	-0.106
Mof_C 	C 	0.10028	0.6779	0.90934	0.305
Mof_C 	C 	0.52307	0.73714	0.01112	0.549
Mof_C 	C 	0.48527	0.78285	0.00321	-0.21
Mof_C 	C 	0.37886	0.80424	0.02664	0.126
Mof_C 	C 	0.3504	0.8461	0.0241	-0.186
Mof_C 	C 	0.4341	0.8669	0.9999	0.104
Mof_C 	C 	0.55963	0.80559	0.97615	0.097
Mof_C 	C 	0.66947	0.78821	0.94565	0.044
Mof_C 	C 	0.86734	0.79768	0.91504	0.073
Mof_C 	C 	0.88119	0.7646	0.88962	-0.12
Mof_C 	C 	0.78361	0.74285	0.89233	0.04
Mof_C 	C 	0.67694	0.75419	0.92033	-0.1
Mof_C 	C 	0.56977	0.73014	0.92192	0.31
Mof_C 	C 	0.1162	0.7394	0.07	0.357
Mof_C 	C 	0.024	0.7744	0.09	-0.149
Mof_C 	C 	0.0184	0.8122	0.0686	0.115
Mof_C 	C 	0.9497	0.8473	0.0847	-0.223
Mof_C 	C 	0.882	0.8421	0.1191	0.149
Mof_C 	C 	0.9536	0.7717	0.1277	0.092
Mof_C 	C 	0.9657	0.733	0.153	0.091
Mof_C 	C 	0.0193	0.701	0.2126	0.082
Mof_C 	C 	0.0249	0.6616	0.199	-0.128
Mof_C 	C 	0.9756	0.6609	0.1627	0.049
Mof_C 	C 	0.9405	0.6978	0.1396	-0.127
Mof_C 	C 	0.8821	0.6932	0.0998	0.394
Mof_C 	C 	0.6101	0.8865	0.4219	0.325
Mof_C 	C 	0.67429	0.90988	0.38754	-0.118
Mof_C 	C 	0.6959	0.8935	0.3473	0.054
Mof_C 	C 	0.7371	0.9164	0.314	-0.139
Mof_C 	C 	0.75663	0.95618	0.32116	0.091
Mof_C 	C 	0.70434	0.94869	0.39183	0.055
Mof_C 	C 	0.69252	0.96899	0.43217	0.064
Mof_C 	C 	0.61636	0.0306	0.46768	0.097
Mof_C 	C 	0.65007	0.01303	0.50363	-0.148
Mof_C 	C 	0.71234	0.97317	0.50295	0.064
Mof_C 	C 	0.73798	0.9502	0.46624	-0.118
Mof_C 	C 	0.8218	0.90885	0.46475	0.339
Mof_C 	C 	0.19354	0.8765	0.51742	0.55
Mof_C 	C 	0.14434	0.91044	0.54868	-0.21
Mof_C 	C 	0.0485	0.9408	0.5404	0.117
Mof_C 	C 	0.0084	0.9753	0.5659	-0.175
Mof_C 	C 	0.0743	0.979	0.5974	0.105
Mof_C 	C 	0.19678	0.91489	0.58355	0.096
Mof_C 	C 	0.29115	0.88383	0.60027	0.044
Mof_C 	C 	0.46638	0.87669	0.63075	0.075
Mof_C 	C 	0.46875	0.83551	0.63639	-0.126
Mof_C 	C 	0.37633	0.81782	0.62352	0.039
Mof_C 	C 	0.28637	0.84221	0.60485	-0.106
Mof_C 	C 	0.18752	0.8221	0.59066	0.305
Mof_C 	C 	0.77133	0.76286	0.48888	0.548
Mof_C 	C 	0.77133	0.71715	0.49679	-0.21
Mof_C 	C 	0.70974	0.69576	0.47336	0.126
Mof_C 	C 	0.7206	0.6539	0.4759	-0.186
Mof_C 	C 	0.8009	0.6331	0.5001	0.103
Mof_C 	C 	0.84137	0.69441	0.52385	0.097
Mof_C 	C 	0.90333	0.71179	0.55435	0.042
Mof_C 	C 	0.08006	0.70232	0.58496	0.071
Mof_C 	C 	0.03541	0.7354	0.61038	-0.116
Mof_C 	C 	0.91879	0.75715	0.60767	0.036
Mof_C 	C 	0.85146	0.74581	0.57967	-0.099
Mof_C 	C 	0.72183	0.76986	0.57808	0.309
Mof_C 	C 	0.4256	0.7606	0.43	0.357
Mof_C 	C 	0.3884	0.7256	0.41	-0.151
Mof_C 	C 	0.3992	0.6878	0.4314	0.113
Mof_C 	C 	0.3817	0.6527	0.4153	-0.219
Mof_C 	C 	0.3432	0.6579	0.3809	0.148
Mof_C 	C 	0.353	0.7283	0.3723	0.094
Mof_C 	C 	0.3517	0.767	0.347	0.091
Mof_C 	C 	0.4329	0.799	0.2874	0.08
Mof_C 	C 	0.3855	0.8384	0.301	-0.132
Mof_C 	C 	0.2992	0.8391	0.3373	0.054
Mof_C 	C 	0.2779	0.8022	0.3604	-0.128
Mof_C 	C 	0.1751	0.8068	0.4002	0.394
Mof_C 	C 	0.4966	0.9219	0.1135	0.325
Mof_C 	C 	0.58417	0.88754	0.09012	-0.118
Mof_C 	C 	0.5894	0.8473	0.1065	0.054
Mof_C 	C 	0.6535	0.814	0.0836	-0.139
Mof_C 	C 	0.71281	0.82116	0.04382	0.091
Mof_C 	C 	0.65303	0.89183	0.05131	0.055
Mof_C 	C 	0.66151	0.93217	0.03101	0.064
Mof_C 	C 	0.64696	0.96768	0.9694	0.097
Mof_C 	C 	0.6631	0.00363	0.98697	-0.149
Mof_C 	C 	0.68551	0.00295	0.02683	0.065
Mof_C 	C 	0.68818	0.96624	0.0498	-0.118
Mof_C 	C 	0.73065	0.96475	0.09115	0.339
Mof_C 	C 	0.07004	0.01742	0.1235	0.551
Mof_C 	C 	0.05478	0.04868	0.08956	-0.211
Mof_C 	C 	0.9893	0.0404	0.0592	0.116
Mof_C 	C 	0.9837	0.0659	0.0247	-0.173
Mof_C 	C 	0.0533	0.0974	0.021	0.102
Mof_C 	C 	0.11167	0.08355	0.08511	0.096
Mof_C 	C 	0.17498	0.10027	0.11617	0.044
Mof_C 	C 	0.34307	0.13075	0.12331	0.075
Mof_C 	C 	0.30426	0.13639	0.16449	-0.126
Mof_C 	C 	0.19415	0.12352	0.18218	0.039
Mof_C 	C 	0.12858	0.10485	0.15779	-0.106
Mof_C 	C 	0.00962	0.09066	0.1779	0.305
Mof_C 	C 	0.53419	0.98888	0.23714	0.549
Mof_C 	C 	0.48848	0.99679	0.28285	-0.21
Mof_C 	C 	0.4055	0.97336	0.30424	0.126
Mof_C 	C 	0.3745	0.9759	0.3461	-0.185
Mof_C 	C 	0.434	0.0001	0.3669	0.104
Mof_C 	C 	0.53578	0.02385	0.30559	0.097
Mof_C 	C 	0.61512	0.05435	0.28821	0.044
Mof_C 	C 	0.78238	0.08496	0.29768	0.073
Mof_C 	C 	0.77081	0.11038	0.2646	-0.12
Mof_C 	C 	0.67594	0.10767	0.24285	0.04
Mof_C 	C 	0.59727	0.07967	0.25419	-0.1
Mof_C 	C 	0.49169	0.07808	0.23014	0.31
Mof_C 	C 	0.1862	0.93	0.2394	0.358
Mof_C 	C 	0.114	0.91	0.2744	-0.152
Mof_C 	C 	0.087	0.9314	0.3122	0.116
Mof_C 	C 	0.0344	0.9153	0.3473	-0.225
Mof_C 	C 	0.0011	0.8809	0.3421	0.155
Mof_C 	C 	0.0813	0.8723	0.2717	0.095
Mof_C 	C 	0.1187	0.847	0.233	0.091
Mof_C 	C 	0.2319	0.7874	0.201	0.08
Mof_C 	C 	0.2239	0.801	0.1616	-0.131
Mof_C 	C 	0.1383	0.8373	0.1609	0.053
Mof_C 	C 	0.0801	0.8604	0.1978	-0.126
Mof_C 	C 	0.9819	0.9002	0.1932	0.392
Mof_C 	C 	0.032	0.5781	0.3865	0.328
Mof_C 	C 	0.06183	0.61246	0.40988	-0.118
Mof_C 	C 	0.0432	0.6527	0.3935	0.055
Mof_C 	C 	0.0511	0.686	0.4164	-0.139
Mof_C 	C 	0.07779	0.67884	0.45618	0.092
Mof_C 	C 	0.09617	0.60817	0.44869	0.055
Mof_C 	C 	0.12469	0.56783	0.46899	0.064
Mof_C 	C 	0.08404	0.53232	0.5306	0.097
Mof_C 	C 	0.1537	0.49637	0.51303	-0.149
Mof_C 	C 	0.21529	0.49705	0.47317	0.064
Mof_C 	C 	0.20422	0.53376	0.4502	-0.117
Mof_C 	C 	0.28655	0.53525	0.40885	0.339
Mof_C 	C 	0.71096	0.48258	0.3765	0.55
Mof_C 	C 	0.69302	0.45132	0.41044	-0.211
Mof_C 	C 	0.5889	0.4596	0.4408	0.117
Mof_C 	C 	0.5743	0.4341	0.4753	-0.174
Mof_C 	C 	0.6717	0.4026	0.479	0.104
Mof_C 	C 	0.78033	0.41645	0.41489	0.096
Mof_C 	C 	0.89142	0.39973	0.38383	0.044
Mof_C 	C 	0.09713	0.36925	0.37669	0.074
Mof_C 	C 	0.10514	0.36361	0.33551	-0.125
Mof_C 	C 	0.99985	0.37648	0.31782	0.038
Mof_C 	C 	0.89122	0.39515	0.34221	-0.106
Mof_C 	C 	0.77818	0.40934	0.3221	0.305
Mof_C 	C 	0.26021	0.51112	0.26286	0.548
Mof_C 	C 	0.26812	0.50321	0.21715	-0.209
Mof_C 	C 	0.1831	0.52664	0.19576	0.126
Mof_C 	C 	0.1965	0.5241	0.1539	-0.185
Mof_C 	C 	0.301	0.4999	0.1331	0.104
Mof_C 	C 	0.36522	0.47615	0.19441	0.097
Mof_C 	C 	0.45768	0.44565	0.21179	0.044
Mof_C 	C 	0.66502	0.41504	0.20232	0.073
Mof_C 	C 	0.64579	0.38962	0.2354	-0.12
Mof_C 	C 	0.52646	0.39233	0.25715	0.04
Mof_C 	C 	0.43113	0.42033	0.24581	-0.1
Mof_C 	C 	0.29991	0.42192	0.26986	0.31
Mof_C 	C 	0.8556	0.57	0.2606	0.357
Mof_C 	C 	0.7984	0.59	0.2256	-0.151
Mof_C 	C 	0.8306	0.5686	0.1878	0.113
Mof_C 	C 	0.797	0.5847	0.1527	-0.219
Mof_C 	C 	0.7241	0.6191	0.1579	0.148
Mof_C 	C 	0.7253	0.6277	0.2283	0.094
Mof_C 	C 	0.6987	0.653	0.267	0.091
Mof_C 	C 	0.7203	0.7126	0.299	0.08
Mof_C 	C 	0.6865	0.699	0.3384	-0.132
Mof_C 	C 	0.6365	0.6627	0.3391	0.054
Mof_C 	C 	0.6383	0.6396	0.3022	-0.128
Mof_C 	C 	0.5753	0.5998	0.3068	0.395
Mof_N 	N 	0.0064	0.2639	0.8091	-0.123
Mof_N 	N 	0.126	0.1921	0.8553	-0.133
Mof_N 	N 	0.23587	0.19021	0.05745	-0.241
Mof_N 	N 	0.46273	0.15274	0.0238	-0.245
Mof_N 	N 	0.4202	0.50914	0.93246	-0.238
Mof_N 	N 	0.4289	0.47197	0.85883	-0.241
Mof_N 	N 	0.77881	0.44989	0.10609	-0.246
Mof_N 	N 	0.6058	0.40103	0.11377	-0.247
Mof_N 	N 	0.5794	0.2361	0.6909	-0.121
Mof_N 	N 	0.6734	0.3079	0.6447	-0.133
Mof_N 	N 	0.98353	0.30979	0.44255	-0.239
Mof_N 	N 	0.13927	0.34726	0.4762	-0.245
Mof_N 	N 	0.3618	0.99086	0.56754	-0.238
Mof_N 	N 	0.2597	0.02803	0.64117	-0.241
Mof_N 	N 	0.83479	0.05011	0.39391	-0.245
Mof_N 	N 	0.6206	0.09897	0.38623	-0.247
Mof_N 	N 	0.8155	0.1909	0.7639	-0.121
Mof_N 	N 	0.9813	0.1447	0.6921	-0.133
Mof_N 	N 	0.29332	0.94255	0.69021	-0.241
Mof_N 	N 	0.48653	0.9762	0.65274	-0.244
Mof_N 	N 	0.35266	0.06754	0.00914	-0.238
Mof_N 	N 	0.28773	0.14117	0.97197	-0.241
Mof_N 	N 	0.8849	0.89391	0.94989	-0.245
Mof_N 	N 	0.71957	0.88623	0.90103	-0.247
Mof_N 	N 	0.2703	0.3091	0.7361	-0.122
Mof_N 	N 	0.3181	0.3553	0.8079	-0.133
Mof_N 	N 	0.42608	0.55745	0.80979	-0.241
Mof_N 	N 	0.61547	0.5238	0.84726	-0.244
Mof_N 	N 	0.92934	0.43246	0.49086	-0.238
Mof_N 	N 	0.90087	0.35883	0.52803	-0.241
Mof_N 	N 	0.2287	0.60609	0.55011	-0.245
Mof_N 	N 	0.00683	0.61377	0.59897	-0.247
Mof_N 	N 	0.9936	0.7361	0.1909	-0.123
Mof_N 	N 	0.874	0.8079	0.1447	-0.133
Mof_N 	N 	0.76413	0.80979	0.94255	-0.241
Mof_N 	N 	0.53727	0.84726	0.9762	-0.245
Mof_N 	N 	0.5798	0.49086	0.06754	-0.238
Mof_N 	N 	0.5711	0.52803	0.14117	-0.241
Mof_N 	N 	0.22119	0.55011	0.89391	-0.246
Mof_N 	N 	0.3942	0.59897	0.88623	-0.247
Mof_N 	N 	0.4206	0.7639	0.3091	-0.121
Mof_N 	N 	0.3266	0.6921	0.3553	-0.133
Mof_N 	N 	0.01647	0.69021	0.55745	-0.239
Mof_N 	N 	0.86073	0.65274	0.5238	-0.245
Mof_N 	N 	0.6382	0.00914	0.43246	-0.238
Mof_N 	N 	0.7403	0.97197	0.35883	-0.241
Mof_N 	N 	0.16521	0.94989	0.60609	-0.245
Mof_N 	N 	0.3794	0.90103	0.61377	-0.247
Mof_N 	N 	0.1845	0.8091	0.2361	-0.121
Mof_N 	N 	0.0187	0.8553	0.3079	-0.133
Mof_N 	N 	0.70668	0.05745	0.30979	-0.241
Mof_N 	N 	0.51347	0.0238	0.34726	-0.244
Mof_N 	N 	0.64734	0.93246	0.99086	-0.238
Mof_N 	N 	0.71227	0.85883	0.02803	-0.241
Mof_N 	N 	0.1151	0.10609	0.05011	-0.245
Mof_N 	N 	0.28043	0.11377	0.09897	-0.247
Mof_N 	N 	0.7297	0.6909	0.2639	-0.122
Mof_N 	N 	0.6819	0.6447	0.1921	-0.133
Mof_N 	N 	0.57392	0.44255	0.19021	-0.241
Mof_N 	N 	0.38453	0.4762	0.15274	-0.244
Mof_N 	N 	0.07066	0.56754	0.50914	-0.238
Mof_N 	N 	0.09913	0.64117	0.47197	-0.241
Mof_N 	N 	0.7713	0.39391	0.44989	-0.245
Mof_N 	N 	0.99317	0.38623	0.40103	-0.247
Mof_O 	O 	0.53571	0.2502	0.07858	-0.264
Mof_O 	O 	0.40197	0.30839	0.07647	-0.283
Mof_O 	O 	0.61275	0.40456	0.94954	-0.392
Mof_O 	O 	0.5977	0.34682	0.91918	-0.458
Mof_O 	O 	0.56016	0.28333	0.97775	-0.579
Mof_O 	O 	0.36207	0.27537	0.99209	-0.577
Mof_O 	O 	0.22159	0.40585	0.94417	-0.388
Mof_O 	O 	0.35015	0.37934	0.98536	-0.461
Mof_O 	O 	0.18861	0.27724	0.91274	-0.418
Mof_O 	O 	0.09718	0.33972	0.91492	-0.495
Mof_O 	O 	0.01664	0.36726	0.99586	-0.573
Mof_O 	O 	0.81723	0.36195	0.01459	-0.584
Mof_O 	O 	0.91807	0.2891	0.07096	-0.28
Mof_O 	O 	0.98373	0.33987	0.09967	-0.259
Mof_O 	O 	0.90656	0.27662	0.96146	-0.48
Mof_O 	O 	0.78862	0.2736	0.91556	-0.413
Mof_O 	O 	0.36449	0.2498	0.42142	-0.264
Mof_O 	O 	0.28683	0.19161	0.42353	-0.283
Mof_O 	O 	0.46685	0.09544	0.55046	-0.392
Mof_O 	O 	0.3637	0.15318	0.58082	-0.458
Mof_O 	O 	0.32124	0.21667	0.52225	-0.579
Mof_O 	O 	0.12953	0.22463	0.50791	-0.577
Mof_O 	O 	0.07161	0.09415	0.55583	-0.388
Mof_O 	O 	0.21485	0.12066	0.51464	-0.461
Mof_O 	O 	0.87859	0.22276	0.58726	-0.417
Mof_O 	O 	0.85182	0.16028	0.58508	-0.494
Mof_O 	O 	0.87976	0.13274	0.50414	-0.571
Mof_O 	O 	0.69377	0.13805	0.48541	-0.584
Mof_O 	O 	0.77813	0.2109	0.42904	-0.281
Mof_O 	O 	0.92327	0.16013	0.40033	-0.259
Mof_O 	O 	0.64464	0.22338	0.53854	-0.481
Mof_O 	O 	0.47778	0.2264	0.58444	-0.413
Mof_O 	O 	0.61429	0.92142	0.7502	-0.264
Mof_O 	O 	0.47844	0.92353	0.80839	-0.283
Mof_O 	O 	0.56229	0.05046	0.90456	-0.392
Mof_O 	O 	0.51688	0.08082	0.84682	-0.458
Mof_O 	O 	0.53791	0.02225	0.78333	-0.579
Mof_O 	O 	0.35416	0.00791	0.77537	-0.577
Mof_O 	O 	0.16576	0.05583	0.90585	-0.388
Mof_O 	O 	0.33551	0.01464	0.87934	-0.461
Mof_O 	O 	0.10135	0.08726	0.77724	-0.418
Mof_O 	O 	0.0121	0.08508	0.83972	-0.495
Mof_O 	O 	0.0125	0.00414	0.86726	-0.573
Mof_O 	O 	0.83182	0.98541	0.86195	-0.584
Mof_O 	O 	0.98903	0.92904	0.7891	-0.281
Mof_O 	O 	0.0834	0.90033	0.83987	-0.259
Mof_O 	O 	0.86802	0.03854	0.77662	-0.481
Mof_O 	O 	0.70418	0.08444	0.7736	-0.413
Mof_O 	O 	0.78591	0.57858	0.7498	-0.263
Mof_O 	O 	0.71036	0.57647	0.69161	-0.283
Mof_O 	O 	0.01731	0.44954	0.59544	-0.394
Mof_O 	O 	0.94452	0.41918	0.65318	-0.457
Mof_O 	O 	0.84349	0.47775	0.71667	-0.578
Mof_O 	O 	0.63744	0.49209	0.72463	-0.577
Mof_O 	O 	0.62744	0.44417	0.59415	-0.388
Mof_O 	O 	0.72949	0.48536	0.62066	-0.461
Mof_O 	O 	0.46585	0.41274	0.72276	-0.418
Mof_O 	O 	0.4369	0.41492	0.66028	-0.495
Mof_O 	O 	0.3839	0.49586	0.63274	-0.572
Mof_O 	O 	0.17918	0.51459	0.63805	-0.584
Mof_O 	O 	0.20717	0.57096	0.7109	-0.281
Mof_O 	O 	0.3236	0.59967	0.66013	-0.259
Mof_O 	O 	0.18318	0.46146	0.72338	-0.481
Mof_O 	O 	0.06222	0.41556	0.7264	-0.414
Mof_O 	O 	0.46429	0.7498	0.92142	-0.264
Mof_O 	O 	0.59803	0.69161	0.92353	-0.283
Mof_O 	O 	0.38725	0.59544	0.05046	-0.392
Mof_O 	O 	0.4023	0.65318	0.08082	-0.458
Mof_O 	O 	0.43984	0.71667	0.02225	-0.579
Mof_O 	O 	0.63793	0.72463	0.00791	-0.577
Mof_O 	O 	0.77841	0.59415	0.05583	-0.388
Mof_O 	O 	0.64985	0.62066	0.01464	-0.461
Mof_O 	O 	0.81139	0.72276	0.08726	-0.418
Mof_O 	O 	0.90282	0.66028	0.08508	-0.495
Mof_O 	O 	0.98336	0.63274	0.00414	-0.573
Mof_O 	O 	0.18277	0.63805	0.98541	-0.584
Mof_O 	O 	0.08193	0.7109	0.92904	-0.28
Mof_O 	O 	0.01627	0.66013	0.90033	-0.259
Mof_O 	O 	0.09344	0.72338	0.03854	-0.48
Mof_O 	O 	0.21138	0.7264	0.08444	-0.413
Mof_O 	O 	0.63551	0.7502	0.57858	-0.264
Mof_O 	O 	0.71317	0.80839	0.57647	-0.283
Mof_O 	O 	0.53315	0.90456	0.44954	-0.392
Mof_O 	O 	0.6363	0.84682	0.41918	-0.458
Mof_O 	O 	0.67876	0.78333	0.47775	-0.579
Mof_O 	O 	0.87047	0.77537	0.49209	-0.577
Mof_O 	O 	0.92839	0.90585	0.44417	-0.388
Mof_O 	O 	0.78515	0.87934	0.48536	-0.461
Mof_O 	O 	0.12141	0.77724	0.41274	-0.417
Mof_O 	O 	0.14818	0.83972	0.41492	-0.494
Mof_O 	O 	0.12024	0.86726	0.49586	-0.571
Mof_O 	O 	0.30623	0.86195	0.51459	-0.584
Mof_O 	O 	0.22187	0.7891	0.57096	-0.281
Mof_O 	O 	0.07673	0.83987	0.59967	-0.259
Mof_O 	O 	0.35536	0.77662	0.46146	-0.481
Mof_O 	O 	0.52222	0.7736	0.41556	-0.413
Mof_O 	O 	0.38571	0.07858	0.2498	-0.264
Mof_O 	O 	0.52156	0.07647	0.19161	-0.283
Mof_O 	O 	0.43771	0.94954	0.09544	-0.392
Mof_O 	O 	0.48312	0.91918	0.15318	-0.458
Mof_O 	O 	0.46209	0.97775	0.21667	-0.579
Mof_O 	O 	0.64584	0.99209	0.22463	-0.577
Mof_O 	O 	0.83424	0.94417	0.09415	-0.388
Mof_O 	O 	0.66449	0.98536	0.12066	-0.461
Mof_O 	O 	0.89865	0.91274	0.22276	-0.418
Mof_O 	O 	0.9879	0.91492	0.16028	-0.495
Mof_O 	O 	0.9875	0.99586	0.13274	-0.573
Mof_O 	O 	0.16818	0.01459	0.13805	-0.584
Mof_O 	O 	0.01097	0.07096	0.2109	-0.281
Mof_O 	O 	0.9166	0.09967	0.16013	-0.259
Mof_O 	O 	0.13198	0.96146	0.22338	-0.481
Mof_O 	O 	0.29582	0.91556	0.2264	-0.413
Mof_O 	O 	0.21409	0.42142	0.2502	-0.263
Mof_O 	O 	0.28964	0.42353	0.30839	-0.283
Mof_O 	O 	0.98269	0.55046	0.40456	-0.394
Mof_O 	O 	0.05548	0.58082	0.34682	-0.457
Mof_O 	O 	0.15651	0.52225	0.28333	-0.578
Mof_O 	O 	0.36256	0.50791	0.27537	-0.577
Mof_O 	O 	0.37256	0.55583	0.40585	-0.388
Mof_O 	O 	0.27051	0.51464	0.37934	-0.461
Mof_O 	O 	0.53415	0.58726	0.27724	-0.418
Mof_O 	O 	0.5631	0.58508	0.33972	-0.495
Mof_O 	O 	0.6161	0.50414	0.36726	-0.572
Mof_O 	O 	0.82082	0.48541	0.36195	-0.584
Mof_O 	O 	0.79283	0.42904	0.2891	-0.281
Mof_O 	O 	0.6764	0.40033	0.33987	-0.259
Mof_O 	O 	0.81682	0.53854	0.27662	-0.481
Mof_O 	O 	0.93778	0.58444	0.2736	-0.414
_end
