data_functionalizedCrystal
_audit_creation_method	'EQeq! by Chris Wilmer'
_symmetry_space_group_name_H-M	'P1'
_symmetry_Int_Tables_number	1
_symmetry_cell_setting	triclinic
loop_
_symmetry_equiv_pos_as_xyz
  x,y,z
_cell_length_a	18.571
_cell_length_b	18.571
_cell_length_c	28.8779
_cell_angle_alpha	90
_cell_angle_beta	90
_cell_angle_gamma	120
loop_
_atom_site_label
_atom_site_type_symbol
_atom_site_fract_x
_atom_site_fract_y
_atom_site_fract_z
_atom_site_charge
Mof_P 	P 	0.62764	0.23559	0.96178	0.38
Mof_O 	O 	0.5946	0.1573	0.99521	-0.281
Mof_O 	O 	0.6184	0.1928	0.91324	-0.294
Mof_O 	O 	0.3774	0.1278	0.17005	-0.274
Mof_O 	O 	0.5012	0.2192	0.19891	-0.483
Mof_O 	O 	0.2689	0.9613	0.8158	-0.276
Mof_O 	O 	0.3369	0.8948	0.8008	-0.512
Mof_N 	N 	0.57	0.2753	0.96721	-0.184
Mof_C 	C 	0.4549	0.1701	0.16716	0.385
Mof_C 	C 	0.4938	0.1658	0.12324	-0.194
Mof_C 	C 	0.4427	0.1218	0.08532	0.149
Mof_H 	H 	0.3853	0.094	0.089	0.004
Mof_C 	C 	0.4751	0.1188	0.04338	-0.267
Mof_H 	H 	0.4402	0.0907	0.0186	0.148
Mof_C 	C 	0.5618	0.1587	0.03816	0.291
Mof_C 	C 	0.6139	0.2007	0.07542	-0.274
Mof_H 	H 	0.6713	0.2256	0.072	0.144
Mof_C 	C 	0.5807	0.2055	0.1176	0.153
Mof_H 	H 	0.6158	0.2348	0.1421	-0.014
Mof_C 	C 	0.3292	0.9492	0.8198	0.451
Mof_C 	C 	0.4039	0.0154	0.847	-0.254
Mof_C 	C 	0.4113	0.0895	0.8599	0.231
Mof_H 	H 	0.3684	0.1001	0.8531	-0.018
Mof_C 	C 	0.4821	0.1502	0.8832	-0.356
Mof_H 	H 	0.4875	0.201	0.8916	0.187
Mof_C 	C 	0.5422	0.1316	0.89281	0.381
Mof_C 	C 	0.5367	0.059	0.8819	-0.362
Mof_H 	H 	0.5786	0.0479	0.8899	0.185
Mof_C 	C 	0.4662	0.0007	0.8581	0.24
Mof_H 	H 	0.4618	0.9503	0.8496	-0.03
Mof_P 	P 	0.76441	0.39205	0.96178	0.381
Mof_O 	O 	0.8427	0.4373	0.99521	-0.28
Mof_O 	O 	0.8072	0.4256	0.91324	-0.293
Mof_O 	O 	0.8722	0.2496	0.17005	-0.273
Mof_O 	O 	0.7808	0.282	0.19891	-0.482
Mof_O 	O 	0.0387	0.3076	0.8158	-0.275
Mof_O 	O 	0.1052	0.4421	0.8008	-0.511
Mof_N 	N 	0.7247	0.2947	0.96721	-0.183
Mof_C 	C 	0.8299	0.2848	0.16716	0.386
Mof_C 	C 	0.8342	0.328	0.12324	-0.193
Mof_C 	C 	0.8782	0.3209	0.08532	0.15
Mof_H 	H 	0.906	0.2913	0.089	0.005
Mof_C 	C 	0.8812	0.3563	0.04338	-0.267
Mof_H 	H 	0.9093	0.3495	0.0186	0.148
Mof_C 	C 	0.8413	0.4031	0.03816	0.291
Mof_C 	C 	0.7993	0.4132	0.07542	-0.274
Mof_H 	H 	0.7744	0.4457	0.072	0.144
Mof_C 	C 	0.7945	0.3752	0.1176	0.153
Mof_H 	H 	0.7652	0.381	0.1421	-0.014
Mof_C 	C 	0.0508	0.38	0.8198	0.451
Mof_C 	C 	0.9846	0.3885	0.847	-0.254
Mof_C 	C 	0.9105	0.3218	0.8599	0.231
Mof_H 	H 	0.8999	0.2683	0.8531	-0.018
Mof_C 	C 	0.8498	0.3319	0.8832	-0.356
Mof_H 	H 	0.799	0.2865	0.8916	0.187
Mof_C 	C 	0.8684	0.4106	0.89281	0.381
Mof_C 	C 	0.941	0.4777	0.8819	-0.363
Mof_H 	H 	0.9521	0.5307	0.8899	0.185
Mof_C 	C 	0.9993	0.4655	0.8581	0.24
Mof_H 	H 	0.0497	0.5115	0.8496	-0.03
Mof_P 	P 	0.60795	0.37236	0.96178	0.381
Mof_O 	O 	0.5627	0.4054	0.99521	-0.28
Mof_O 	O 	0.5744	0.3816	0.91324	-0.293
Mof_O 	O 	0.7504	0.6226	0.17005	-0.273
Mof_O 	O 	0.718	0.4988	0.19891	-0.482
Mof_O 	O 	0.6924	0.7311	0.8158	-0.275
Mof_O 	O 	0.5579	0.6631	0.8008	-0.511
Mof_N 	N 	0.7053	0.43	0.96721	-0.183
Mof_C 	C 	0.7152	0.5451	0.16716	0.386
Mof_C 	C 	0.672	0.5062	0.12324	-0.193
Mof_C 	C 	0.6791	0.5573	0.08532	0.15
Mof_H 	H 	0.7087	0.6147	0.089	0.005
Mof_C 	C 	0.6437	0.5249	0.04338	-0.267
Mof_H 	H 	0.6505	0.5598	0.0186	0.148
Mof_C 	C 	0.5969	0.4382	0.03816	0.291
Mof_C 	C 	0.5868	0.3861	0.07542	-0.274
Mof_H 	H 	0.5543	0.3287	0.072	0.144
Mof_C 	C 	0.6248	0.4193	0.1176	0.153
Mof_H 	H 	0.619	0.3842	0.1421	-0.014
Mof_C 	C 	0.62	0.6708	0.8198	0.451
Mof_C 	C 	0.6115	0.5961	0.847	-0.254
Mof_C 	C 	0.6782	0.5887	0.8599	0.231
Mof_H 	H 	0.7317	0.6316	0.8531	-0.018
Mof_C 	C 	0.6681	0.5179	0.8832	-0.356
Mof_H 	H 	0.7135	0.5125	0.8916	0.187
Mof_C 	C 	0.5894	0.4578	0.89281	0.381
Mof_C 	C 	0.5223	0.4633	0.8819	-0.362
Mof_H 	H 	0.4693	0.4214	0.8899	0.185
Mof_C 	C 	0.5345	0.5338	0.8581	0.24
Mof_H 	H 	0.4885	0.5382	0.8496	-0.03
Mof_P 	P 	0.37236	0.76441	0.46178	0.381
Mof_O 	O 	0.4054	0.8427	0.49521	-0.28
Mof_O 	O 	0.3816	0.8072	0.41324	-0.293
Mof_O 	O 	0.6226	0.8722	0.67005	-0.273
Mof_O 	O 	0.4988	0.7808	0.69891	-0.482
Mof_O 	O 	0.7311	0.0387	0.3158	-0.275
Mof_O 	O 	0.6631	0.1052	0.3008	-0.511
Mof_N 	N 	0.43	0.7247	0.46721	-0.183
Mof_C 	C 	0.5451	0.8299	0.66716	0.386
Mof_C 	C 	0.5062	0.8342	0.62324	-0.193
Mof_C 	C 	0.5573	0.8782	0.58532	0.15
Mof_H 	H 	0.6147	0.906	0.589	0.005
Mof_C 	C 	0.5249	0.8812	0.54338	-0.268
Mof_H 	H 	0.5598	0.9093	0.5186	0.148
Mof_C 	C 	0.4382	0.8413	0.53816	0.291
Mof_C 	C 	0.3861	0.7993	0.57542	-0.274
Mof_H 	H 	0.3287	0.7744	0.572	0.144
Mof_C 	C 	0.4193	0.7945	0.6176	0.153
Mof_H 	H 	0.3842	0.7652	0.6421	-0.014
Mof_C 	C 	0.6708	0.0508	0.3198	0.451
Mof_C 	C 	0.5961	0.9846	0.347	-0.254
Mof_C 	C 	0.5887	0.9105	0.3599	0.231
Mof_H 	H 	0.6316	0.8999	0.3531	-0.018
Mof_C 	C 	0.5179	0.8498	0.3832	-0.356
Mof_H 	H 	0.5125	0.799	0.3916	0.187
Mof_C 	C 	0.4578	0.8684	0.39281	0.381
Mof_C 	C 	0.4633	0.941	0.3819	-0.362
Mof_H 	H 	0.4214	0.9521	0.3899	0.185
Mof_C 	C 	0.5338	0.9993	0.3581	0.24
Mof_H 	H 	0.5382	0.0497	0.3496	-0.03
Mof_P 	P 	0.23559	0.60795	0.46178	0.381
Mof_O 	O 	0.1573	0.5627	0.49521	-0.28
Mof_O 	O 	0.1928	0.5744	0.41324	-0.293
Mof_O 	O 	0.1278	0.7504	0.67005	-0.273
Mof_O 	O 	0.2192	0.718	0.69891	-0.482
Mof_O 	O 	0.9613	0.6924	0.3158	-0.275
Mof_O 	O 	0.8948	0.5579	0.3008	-0.511
Mof_N 	N 	0.2753	0.7053	0.46721	-0.183
Mof_C 	C 	0.1701	0.7152	0.66716	0.386
Mof_C 	C 	0.1658	0.672	0.62324	-0.193
Mof_C 	C 	0.1218	0.6791	0.58532	0.15
Mof_H 	H 	0.094	0.7087	0.589	0.005
Mof_C 	C 	0.1188	0.6437	0.54338	-0.268
Mof_H 	H 	0.0907	0.6505	0.5186	0.148
Mof_C 	C 	0.1587	0.5969	0.53816	0.291
Mof_C 	C 	0.2007	0.5868	0.57542	-0.274
Mof_H 	H 	0.2256	0.5543	0.572	0.144
Mof_C 	C 	0.2055	0.6248	0.6176	0.153
Mof_H 	H 	0.2348	0.619	0.6421	-0.014
Mof_C 	C 	0.9492	0.62	0.3198	0.451
Mof_C 	C 	0.0154	0.6115	0.347	-0.254
Mof_C 	C 	0.0895	0.6782	0.3599	0.231
Mof_H 	H 	0.1001	0.7317	0.3531	-0.018
Mof_C 	C 	0.1502	0.6681	0.3832	-0.356
Mof_H 	H 	0.201	0.7135	0.3916	0.187
Mof_C 	C 	0.1316	0.5894	0.39281	0.381
Mof_C 	C 	0.059	0.5223	0.3819	-0.362
Mof_H 	H 	0.0479	0.4693	0.3899	0.185
Mof_C 	C 	0.0007	0.5345	0.3581	0.24
Mof_H 	H 	0.9503	0.4885	0.3496	-0.03
Mof_P 	P 	0.39205	0.62764	0.46178	0.381
Mof_O 	O 	0.4373	0.5946	0.49521	-0.28
Mof_O 	O 	0.4256	0.6184	0.41324	-0.293
Mof_O 	O 	0.2496	0.3774	0.67005	-0.273
Mof_O 	O 	0.282	0.5012	0.69891	-0.482
Mof_O 	O 	0.3076	0.2689	0.3158	-0.275
Mof_O 	O 	0.4421	0.3369	0.3008	-0.511
Mof_N 	N 	0.2947	0.57	0.46721	-0.183
Mof_C 	C 	0.2848	0.4549	0.66716	0.386
Mof_C 	C 	0.328	0.4938	0.62324	-0.193
Mof_C 	C 	0.3209	0.4427	0.58532	0.15
Mof_H 	H 	0.2913	0.3853	0.589	0.005
Mof_C 	C 	0.3563	0.4751	0.54338	-0.267
Mof_H 	H 	0.3495	0.4402	0.5186	0.148
Mof_C 	C 	0.4031	0.5618	0.53816	0.291
Mof_C 	C 	0.4132	0.6139	0.57542	-0.274
Mof_H 	H 	0.4457	0.6713	0.572	0.144
Mof_C 	C 	0.3752	0.5807	0.6176	0.153
Mof_H 	H 	0.381	0.6158	0.6421	-0.014
Mof_C 	C 	0.38	0.3292	0.3198	0.451
Mof_C 	C 	0.3885	0.4039	0.347	-0.254
Mof_C 	C 	0.3218	0.4113	0.3599	0.231
Mof_H 	H 	0.2683	0.3684	0.3531	-0.018
Mof_C 	C 	0.3319	0.4821	0.3832	-0.356
Mof_H 	H 	0.2865	0.4875	0.3916	0.187
Mof_C 	C 	0.4106	0.5422	0.39281	0.381
Mof_C 	C 	0.4777	0.5367	0.3819	-0.362
Mof_H 	H 	0.5307	0.5786	0.3899	0.185
Mof_C 	C 	0.4655	0.4662	0.3581	0.24
Mof_H 	H 	0.5115	0.4618	0.3496	-0.03
Mof_P 	P 	0.37236	0.76441	0.03822	0.381
Mof_O 	O 	0.4054	0.8427	0.00479	-0.28
Mof_O 	O 	0.3816	0.8072	0.08676	-0.293
Mof_O 	O 	0.6226	0.8722	0.82995	-0.273
Mof_O 	O 	0.4988	0.7808	0.80109	-0.482
Mof_O 	O 	0.7311	0.0387	0.1842	-0.275
Mof_O 	O 	0.6631	0.1052	0.1992	-0.511
Mof_N 	N 	0.43	0.7247	0.03279	-0.183
Mof_C 	C 	0.5451	0.8299	0.83284	0.386
Mof_C 	C 	0.5062	0.8342	0.87676	-0.193
Mof_C 	C 	0.5573	0.8782	0.91468	0.15
Mof_H 	H 	0.6147	0.906	0.911	0.005
Mof_C 	C 	0.5249	0.8812	0.95662	-0.267
Mof_H 	H 	0.5598	0.9093	0.9814	0.148
Mof_C 	C 	0.4382	0.8413	0.96184	0.291
Mof_C 	C 	0.3861	0.7993	0.92458	-0.274
Mof_H 	H 	0.3287	0.7744	0.928	0.144
Mof_C 	C 	0.4193	0.7945	0.8824	0.153
Mof_H 	H 	0.3842	0.7652	0.8579	-0.014
Mof_C 	C 	0.6708	0.0508	0.1802	0.451
Mof_C 	C 	0.5961	0.9846	0.153	-0.254
Mof_C 	C 	0.5887	0.9105	0.1401	0.231
Mof_H 	H 	0.6316	0.8999	0.1469	-0.018
Mof_C 	C 	0.5179	0.8498	0.1168	-0.356
Mof_H 	H 	0.5125	0.799	0.1084	0.187
Mof_C 	C 	0.4578	0.8684	0.10719	0.381
Mof_C 	C 	0.4633	0.941	0.1181	-0.362
Mof_H 	H 	0.4214	0.9521	0.1101	0.185
Mof_C 	C 	0.5338	0.9993	0.1419	0.24
Mof_H 	H 	0.5382	0.0497	0.1504	-0.03
Mof_P 	P 	0.23559	0.60795	0.03822	0.381
Mof_O 	O 	0.1573	0.5627	0.00479	-0.28
Mof_O 	O 	0.1928	0.5744	0.08676	-0.293
Mof_O 	O 	0.1278	0.7504	0.82995	-0.273
Mof_O 	O 	0.2192	0.718	0.80109	-0.482
Mof_O 	O 	0.9613	0.6924	0.1842	-0.275
Mof_O 	O 	0.8948	0.5579	0.1992	-0.511
Mof_N 	N 	0.2753	0.7053	0.03279	-0.183
Mof_C 	C 	0.1701	0.7152	0.83284	0.386
Mof_C 	C 	0.1658	0.672	0.87676	-0.193
Mof_C 	C 	0.1218	0.6791	0.91468	0.15
Mof_H 	H 	0.094	0.7087	0.911	0.005
Mof_C 	C 	0.1188	0.6437	0.95662	-0.267
Mof_H 	H 	0.0907	0.6505	0.9814	0.148
Mof_C 	C 	0.1587	0.5969	0.96184	0.291
Mof_C 	C 	0.2007	0.5868	0.92458	-0.274
Mof_H 	H 	0.2256	0.5543	0.928	0.144
Mof_C 	C 	0.2055	0.6248	0.8824	0.153
Mof_H 	H 	0.2348	0.619	0.8579	-0.014
Mof_C 	C 	0.9492	0.62	0.1802	0.451
Mof_C 	C 	0.0154	0.6115	0.153	-0.254
Mof_C 	C 	0.0895	0.6782	0.1401	0.231
Mof_H 	H 	0.1001	0.7317	0.1469	-0.018
Mof_C 	C 	0.1502	0.6681	0.1168	-0.356
Mof_H 	H 	0.201	0.7135	0.1084	0.187
Mof_C 	C 	0.1316	0.5894	0.10719	0.381
Mof_C 	C 	0.059	0.5223	0.1181	-0.363
Mof_H 	H 	0.0479	0.4693	0.1101	0.185
Mof_C 	C 	0.0007	0.5345	0.1419	0.24
Mof_H 	H 	0.9503	0.4885	0.1504	-0.03
Mof_P 	P 	0.39205	0.62764	0.03822	0.381
Mof_O 	O 	0.4373	0.5946	0.00479	-0.28
Mof_O 	O 	0.4256	0.6184	0.08676	-0.293
Mof_O 	O 	0.2496	0.3774	0.82995	-0.273
Mof_O 	O 	0.282	0.5012	0.80109	-0.482
Mof_O 	O 	0.3076	0.2689	0.1842	-0.275
Mof_O 	O 	0.4421	0.3369	0.1992	-0.511
Mof_N 	N 	0.2947	0.57	0.03279	-0.183
Mof_C 	C 	0.2848	0.4549	0.83284	0.386
Mof_C 	C 	0.328	0.4938	0.87676	-0.193
Mof_C 	C 	0.3209	0.4427	0.91468	0.15
Mof_H 	H 	0.2913	0.3853	0.911	0.005
Mof_C 	C 	0.3563	0.4751	0.95662	-0.267
Mof_H 	H 	0.3495	0.4402	0.9814	0.148
Mof_C 	C 	0.4031	0.5618	0.96184	0.291
Mof_C 	C 	0.4132	0.6139	0.92458	-0.274
Mof_H 	H 	0.4457	0.6713	0.928	0.144
Mof_C 	C 	0.3752	0.5807	0.8824	0.153
Mof_H 	H 	0.381	0.6158	0.8579	-0.014
Mof_C 	C 	0.38	0.3292	0.1802	0.451
Mof_C 	C 	0.3885	0.4039	0.153	-0.254
Mof_C 	C 	0.3218	0.4113	0.1401	0.231
Mof_H 	H 	0.2683	0.3684	0.1469	-0.018
Mof_C 	C 	0.3319	0.4821	0.1168	-0.356
Mof_H 	H 	0.2865	0.4875	0.1084	0.187
Mof_C 	C 	0.4106	0.5422	0.10719	0.381
Mof_C 	C 	0.4777	0.5367	0.1181	-0.362
Mof_H 	H 	0.5307	0.5786	0.1101	0.185
Mof_C 	C 	0.4655	0.4662	0.1419	0.24
Mof_H 	H 	0.5115	0.4618	0.1504	-0.03
Mof_P 	P 	0.62764	0.23559	0.53822	0.381
Mof_O 	O 	0.5946	0.1573	0.50479	-0.28
Mof_O 	O 	0.6184	0.1928	0.58676	-0.293
Mof_O 	O 	0.3774	0.1278	0.32995	-0.273
Mof_O 	O 	0.5012	0.2192	0.30109	-0.482
Mof_O 	O 	0.2689	0.9613	0.6842	-0.275
Mof_O 	O 	0.3369	0.8948	0.6992	-0.511
Mof_N 	N 	0.57	0.2753	0.53279	-0.183
Mof_C 	C 	0.4549	0.1701	0.33284	0.386
Mof_C 	C 	0.4938	0.1658	0.37676	-0.193
Mof_C 	C 	0.4427	0.1218	0.41468	0.15
Mof_H 	H 	0.3853	0.094	0.411	0.005
Mof_C 	C 	0.4751	0.1188	0.45662	-0.268
Mof_H 	H 	0.4402	0.0907	0.4814	0.148
Mof_C 	C 	0.5618	0.1587	0.46184	0.291
Mof_C 	C 	0.6139	0.2007	0.42458	-0.274
Mof_H 	H 	0.6713	0.2256	0.428	0.144
Mof_C 	C 	0.5807	0.2055	0.3824	0.153
Mof_H 	H 	0.6158	0.2348	0.3579	-0.014
Mof_C 	C 	0.3292	0.9492	0.6802	0.451
Mof_C 	C 	0.4039	0.0154	0.653	-0.254
Mof_C 	C 	0.4113	0.0895	0.6401	0.231
Mof_H 	H 	0.3684	0.1001	0.6469	-0.018
Mof_C 	C 	0.4821	0.1502	0.6168	-0.356
Mof_H 	H 	0.4875	0.201	0.6084	0.187
Mof_C 	C 	0.5422	0.1316	0.60719	0.381
Mof_C 	C 	0.5367	0.059	0.6181	-0.362
Mof_H 	H 	0.5786	0.0479	0.6101	0.185
Mof_C 	C 	0.4662	0.0007	0.6419	0.24
Mof_H 	H 	0.4618	0.9503	0.6504	-0.03
Mof_P 	P 	0.76441	0.39205	0.53822	0.381
Mof_O 	O 	0.8427	0.4373	0.50479	-0.28
Mof_O 	O 	0.8072	0.4256	0.58676	-0.293
Mof_O 	O 	0.8722	0.2496	0.32995	-0.273
Mof_O 	O 	0.7808	0.282	0.30109	-0.482
Mof_O 	O 	0.0387	0.3076	0.6842	-0.275
Mof_O 	O 	0.1052	0.4421	0.6992	-0.511
Mof_N 	N 	0.7247	0.2947	0.53279	-0.183
Mof_C 	C 	0.8299	0.2848	0.33284	0.386
Mof_C 	C 	0.8342	0.328	0.37676	-0.193
Mof_C 	C 	0.8782	0.3209	0.41468	0.15
Mof_H 	H 	0.906	0.2913	0.411	0.005
Mof_C 	C 	0.8812	0.3563	0.45662	-0.268
Mof_H 	H 	0.9093	0.3495	0.4814	0.148
Mof_C 	C 	0.8413	0.4031	0.46184	0.291
Mof_C 	C 	0.7993	0.4132	0.42458	-0.274
Mof_H 	H 	0.7744	0.4457	0.428	0.144
Mof_C 	C 	0.7945	0.3752	0.3824	0.153
Mof_H 	H 	0.7652	0.381	0.3579	-0.014
Mof_C 	C 	0.0508	0.38	0.6802	0.451
Mof_C 	C 	0.9846	0.3885	0.653	-0.254
Mof_C 	C 	0.9105	0.3218	0.6401	0.231
Mof_H 	H 	0.8999	0.2683	0.6469	-0.018
Mof_C 	C 	0.8498	0.3319	0.6168	-0.356
Mof_H 	H 	0.799	0.2865	0.6084	0.187
Mof_C 	C 	0.8684	0.4106	0.60719	0.381
Mof_C 	C 	0.941	0.4777	0.6181	-0.362
Mof_H 	H 	0.9521	0.5307	0.6101	0.185
Mof_C 	C 	0.9993	0.4655	0.6419	0.24
Mof_H 	H 	0.0497	0.5115	0.6504	-0.03
Mof_P 	P 	0.60795	0.37236	0.53822	0.381
Mof_O 	O 	0.5627	0.4054	0.50479	-0.28
Mof_O 	O 	0.5744	0.3816	0.58676	-0.293
Mof_O 	O 	0.7504	0.6226	0.32995	-0.273
Mof_O 	O 	0.718	0.4988	0.30109	-0.482
Mof_O 	O 	0.6924	0.7311	0.6842	-0.275
Mof_O 	O 	0.5579	0.6631	0.6992	-0.511
Mof_N 	N 	0.7053	0.43	0.53279	-0.183
Mof_C 	C 	0.7152	0.5451	0.33284	0.386
Mof_C 	C 	0.672	0.5062	0.37676	-0.193
Mof_C 	C 	0.6791	0.5573	0.41468	0.15
Mof_H 	H 	0.7087	0.6147	0.411	0.005
Mof_C 	C 	0.6437	0.5249	0.45662	-0.267
Mof_H 	H 	0.6505	0.5598	0.4814	0.148
Mof_C 	C 	0.5969	0.4382	0.46184	0.291
Mof_C 	C 	0.5868	0.3861	0.42458	-0.274
Mof_H 	H 	0.5543	0.3287	0.428	0.144
Mof_C 	C 	0.6248	0.4193	0.3824	0.153
Mof_H 	H 	0.619	0.3842	0.3579	-0.014
Mof_C 	C 	0.62	0.6708	0.6802	0.451
Mof_C 	C 	0.6115	0.5961	0.653	-0.254
Mof_C 	C 	0.6782	0.5887	0.6401	0.231
Mof_H 	H 	0.7317	0.6316	0.6469	-0.018
Mof_C 	C 	0.6681	0.5179	0.6168	-0.356
Mof_H 	H 	0.7135	0.5125	0.6084	0.187
Mof_C 	C 	0.5894	0.4578	0.60719	0.381
Mof_C 	C 	0.5223	0.4633	0.6181	-0.362
Mof_H 	H 	0.4693	0.4214	0.6101	0.185
Mof_C 	C 	0.5345	0.5338	0.6419	0.24
Mof_H 	H 	0.4885	0.5382	0.6504	-0.03
Mof_Mg	Mg	0.46969	0.27738	0.25	1.467
Mof_Mg	Mg	0.72262	0.19231	0.25	1.467
Mof_Mg	Mg	0.80769	0.53031	0.25	1.467
Mof_Mg	Mg	0.53031	0.72262	0.75	1.467
Mof_Mg	Mg	0.27738	0.80769	0.75	1.467
Mof_Mg	Mg	0.19231	0.46969	0.75	1.467
_end
