data_functionalizedCrystal
_audit_creation_method	'EQeq! by Chris Wilmer'
_symmetry_space_group_name_H-M	'P1'
_symmetry_Int_Tables_number	1
_symmetry_cell_setting	triclinic
loop_
_symmetry_equiv_pos_as_xyz
  x,y,z
_cell_length_a	8.5409
_cell_length_b	19.1605
_cell_length_c	11.3037
_cell_angle_alpha	90
_cell_angle_beta	110.327
_cell_angle_gamma	90
loop_
_atom_site_label
_atom_site_type_symbol
_atom_site_fract_x
_atom_site_fract_y
_atom_site_fract_z
_atom_site_charge
Mof_U 	U 	0.77227	0.50791	0.01616	0.07
Mof_P 	P 	0.76597	0.61555	0.29046	0.38
Mof_P 	P 	0.80105	0.43609	0.77488	0.375
Mof_O 	O 	0.8846	0.67596	0.3243	-0.161
Mof_O 	O 	0.7895	0.56419	0.1965	-0.139
Mof_O 	O 	0.5816	0.64463	0.2369	-0.123
Mof_O 	O 	0.8259	0.36145	0.7454	-0.16
Mof_O 	O 	0.9408	0.46688	0.891	-0.149
Mof_O 	O 	0.6457	0.44823	0.8125	-0.14
Mof_C 	C 	0.7798	0.56603	0.4285	-0.015
Mof_C 	C 	0.8069	0.5987	0.5442	-0.025
Mof_H 	H 	0.8216	0.6479	0.5509	0.07
Mof_C 	C 	0.8127	0.5604	0.649	-0.023
Mof_H 	H 	0.8316	0.5832	0.7274	0.076
Mof_C 	C 	0.7908	0.48784	0.6402	-0.017
Mof_C 	C 	0.7671	0.455	0.5258	-0.025
Mof_H 	H 	0.7548	0.4058	0.5196	0.078
Mof_C 	C 	0.7611	0.4938	0.42	-0.028
Mof_H 	H 	0.7443	0.4709	0.342	0.09
Mof_U 	U 	0.22773	0.00791	0.98384	0.035
Mof_P 	P 	0.23403	0.11555	0.70954	0.376
Mof_P 	P 	0.19895	0.93609	0.22512	0.379
Mof_O 	O 	0.1154	0.17596	0.6757	-0.166
Mof_O 	O 	0.2105	0.06419	0.8035	-0.148
Mof_O 	O 	0.4184	0.14463	0.7631	-0.13
Mof_O 	O 	0.1741	0.86145	0.2546	-0.158
Mof_O 	O 	0.0592	0.96688	0.109	-0.133
Mof_O 	O 	0.3543	0.94823	0.1875	-0.126
Mof_C 	C 	0.2202	0.06603	0.5715	0.008
Mof_C 	C 	0.1931	0.0987	0.4558	-0.045
Mof_H 	H 	0.1784	0.1479	0.4491	0.08
Mof_C 	C 	0.1873	0.0604	0.351	0.008
Mof_H 	H 	0.1684	0.0832	0.2726	0.078
Mof_C 	C 	0.2092	0.98784	0.3598	-0.041
Mof_C 	C 	0.2329	0.955	0.4742	-0.006
Mof_H 	H 	0.2452	0.9058	0.4804	0.067
Mof_C 	C 	0.2389	0.9938	0.58	-0.061
Mof_H 	H 	0.2557	0.9709	0.658	0.089
Mof_U 	U 	0.22773	0.49209	0.98384	0.029
Mof_P 	P 	0.23403	0.38445	0.70954	0.381
Mof_P 	P 	0.19895	0.56391	0.22512	0.375
Mof_O 	O 	0.1154	0.32404	0.6757	-0.166
Mof_O 	O 	0.2105	0.43581	0.8035	-0.151
Mof_O 	O 	0.4184	0.35537	0.7631	-0.131
Mof_O 	O 	0.1741	0.63855	0.2546	-0.157
Mof_O 	O 	0.0592	0.53312	0.109	-0.127
Mof_O 	O 	0.3543	0.55177	0.1875	-0.121
Mof_C 	C 	0.2202	0.43397	0.5715	-0.019
Mof_C 	C 	0.1931	0.4013	0.4558	-0.021
Mof_H 	H 	0.1784	0.3521	0.4491	0.072
Mof_C 	C 	0.1873	0.4396	0.351	-0.027
Mof_H 	H 	0.1684	0.4168	0.2726	0.087
Mof_C 	C 	0.2092	0.51216	0.3598	-0.013
Mof_C 	C 	0.2329	0.545	0.4742	-0.03
Mof_H 	H 	0.2452	0.5942	0.4804	0.075
Mof_C 	C 	0.2389	0.5062	0.58	-0.025
Mof_H 	H 	0.2557	0.5291	0.658	0.082
Mof_U 	U 	0.77227	0.99209	0.01616	0.063
Mof_P 	P 	0.76597	0.88445	0.29046	0.385
Mof_P 	P 	0.80105	0.06391	0.77488	0.372
Mof_O 	O 	0.8846	0.82404	0.3243	-0.161
Mof_O 	O 	0.7895	0.93581	0.1965	-0.143
Mof_O 	O 	0.5816	0.85537	0.2369	-0.124
Mof_O 	O 	0.8259	0.13855	0.7454	-0.16
Mof_O 	O 	0.9408	0.03312	0.891	-0.143
Mof_O 	O 	0.6457	0.05177	0.8125	-0.135
Mof_C 	C 	0.7798	0.93397	0.4285	-0.043
Mof_C 	C 	0.8069	0.9013	0.5442	-0.001
Mof_H 	H 	0.8216	0.8521	0.5509	0.062
Mof_C 	C 	0.8127	0.9396	0.649	-0.059
Mof_H 	H 	0.8316	0.9168	0.7274	0.085
Mof_C 	C 	0.7908	0.01216	0.6402	0.012
Mof_C 	C 	0.7671	0.045	0.5258	-0.048
Mof_H 	H 	0.7548	0.0942	0.5196	0.086
Mof_C 	C 	0.7611	0.0062	0.42	0.009
Mof_H 	H 	0.7443	0.0291	0.342	0.082
Mof_U 	U 	0.07705	0.75	0.28024	0.021
Mof_U 	U 	0.92295	0.25	0.71976	0.021
Mof_F 	F 	0.5	0.5	-0	-0.27
Mof_F 	F 	0.5	0	-0	-0.264
_end
