data_functionalizedCrystal
_audit_creation_method	'EQeq! by Chris Wilmer'
_symmetry_space_group_name_H-M	'P1'
_symmetry_Int_Tables_number	1
_symmetry_cell_setting	triclinic
loop_
_symmetry_equiv_pos_as_xyz
  x,y,z
_cell_length_a	13.7876
_cell_length_b	27.8747
_cell_length_c	45.415
_cell_angle_alpha	90
_cell_angle_beta	90
_cell_angle_gamma	90
loop_
_atom_site_label
_atom_site_type_symbol
_atom_site_fract_x
_atom_site_fract_y
_atom_site_fract_z
_atom_site_charge
Mof_Zn	Zn	0.16105	0.25673	0.31384	1.163
Mof_Zn	Zn	0.33895	0.75673	0.68616	1.163
Mof_Zn	Zn	0.15056	0.44887	0.57684	1.162
Mof_Zn	Zn	0.65056	0.55113	0.92316	1.162
Mof_Zn	Zn	0.36946	0.475	0.41202	1.163
Mof_Zn	Zn	0.66105	0.74327	0.18616	1.163
Mof_Zn	Zn	0.86946	0.525	0.08798	1.163
Mof_Zn	Zn	0.83895	0.24327	0.81384	1.163
Mof_Zn	Zn	0.13054	0.975	0.58798	1.162
Mof_Zn	Zn	0.84944	0.05113	0.07684	1.162
Mof_Zn	Zn	0.34944	0.94887	0.42316	1.162
Mof_Zn	Zn	0.63054	0.025	0.91202	1.163
Mof_H 	H 	0.8152	0.8988	0.616	0.098
Mof_H 	H 	0.4711	0.0717	0.8781	-0.012
Mof_H 	H 	0.9647	0.1541	0.7276	0.076
Mof_H 	H 	0.636	0.8101	0.6318	0.077
Mof_H 	H 	0.1848	0.6012	0.116	0.098
Mof_H 	H 	0.9939	0.9557	0.5375	-0.008
Mof_H 	H 	0.9043	0.3469	0.0926	0.079
Mof_H 	H 	0.1283	0.0517	0.0057	0.088
Mof_H 	H 	0.9514	0.2717	0.3322	-0.015
Mof_H 	H 	0.6283	0.9483	0.4943	0.088
Mof_H 	H 	0.1153	0.0782	0.5712	-0.01
Mof_H 	H 	0.0061	0.5443	0.0375	-0.008
Mof_H 	H 	0.9877	0.2026	0.2233	0.074
Mof_H 	H 	0.6339	0.6569	0.9359	-0.017
Mof_H 	H 	0.5475	0.6524	0.8376	0.079
Mof_H 	H 	0.9514	0.3045	0.7707	0.004
Mof_H 	H 	0.1946	0.4076	0.5171	-0.004
Mof_H 	H 	0.0353	0.3459	0.2276	0.077
Mof_H 	H 	0.4514	0.7283	0.1678	-0.015
Mof_H 	H 	0.9565	0.4682	0.5481	-0.01
Mof_H 	H 	0.6946	0.5924	0.9829	-0.003
Mof_H 	H 	0.8833	0.1488	0.9055	0.083
Mof_H 	H 	0.4877	0.7974	0.2767	0.077
Mof_H 	H 	0.9711	0.9283	0.6219	-0.011
Mof_H 	H 	0.1135	0.3843	0.4743	0.076
Mof_H 	H 	0.6135	0.6157	0.0257	0.076
Mof_H 	H 	0.9228	0.0833	0.1361	-0.008
Mof_H 	H 	0.564	0.9855	0.8532	-0.009
Mof_H 	H 	0.4565	0.5318	0.9519	-0.009
Mof_H 	H 	0.8717	0.4483	0.5057	0.089
Mof_H 	H 	0.0486	0.1955	0.2707	0.006
Mof_H 	H 	0.0937	0.3355	0.2743	-0.009
Mof_H 	H 	0.5486	0.8045	0.2293	0.005
Mof_H 	H 	0.5957	0.8469	0.9074	0.08
Mof_H 	H 	0.8661	0.1569	0.0641	-0.016
Mof_H 	H 	0.8054	0.0924	0.0171	-0.003
Mof_H 	H 	0.4043	0.6531	0.4074	0.08
Mof_H 	H 	0.0957	0.1531	0.5926	0.08
Mof_H 	H 	0.3717	0.5517	0.9943	0.089
Mof_H 	H 	0.6167	0.6488	0.0945	0.083
Mof_H 	H 	0.3953	0.7709	0.4116	0.078
Mof_H 	H 	0.6047	0.7291	0.9116	0.078
Mof_H 	H 	0.4939	0.0443	0.9625	-0.007
Mof_H 	H 	0.936	0.4855	0.1468	-0.009
Mof_H 	H 	0.4063	0.8355	0.7257	-0.009
Mof_H 	H 	0.5123	0.7026	0.7767	0.077
Mof_H 	H 	0.4603	0.5878	0.3299	0.08
Mof_H 	H 	0.9603	0.4122	0.1701	0.08
Mof_H 	H 	0.0289	0.5717	0.1219	-0.011
Mof_H 	H 	0.364	0.6899	0.1318	0.078
Mof_H 	H 	0.0397	0.0878	0.6701	0.08
Mof_H 	H 	0.6848	0.3988	0.384	0.099
Mof_H 	H 	0.8865	0.1157	0.9743	0.077
Mof_H 	H 	0.3865	0.8843	0.5257	0.076
Mof_H 	H 	0.0123	0.2974	0.7233	0.076
Mof_H 	H 	0.1167	0.3512	0.4055	0.082
Mof_H 	H 	0.3054	0.9076	0.4829	-0.003
Mof_H 	H 	0.5435	0.9682	0.4519	-0.009
Mof_H 	H 	0.4514	0.6955	0.7293	0.005
Mof_H 	H 	0.5397	0.9122	0.8299	0.08
Mof_H 	H 	0.5289	0.4283	0.3781	-0.011
Mof_H 	H 	0.0475	0.3476	0.6624	0.08
Mof_H 	H 	0.1047	0.2709	0.5884	0.078
Mof_H 	H 	0.5353	0.6541	0.2724	0.077
Mof_H 	H 	0.5486	0.7717	0.6678	-0.014
Mof_H 	H 	0.6971	0.6835	0.1335	-0.009
Mof_H 	H 	0.5061	0.4557	0.4625	-0.007
Mof_H 	H 	0.1607	0.5727	0.029	0.089
Mof_H 	H 	0.4228	0.9167	0.3639	-0.008
Mof_H 	H 	0.436	0.5145	0.3532	-0.009
Mof_H 	H 	0.064	0.0145	0.6468	-0.009
Mof_H 	H 	0.3833	0.8512	0.5945	0.083
Mof_H 	H 	0.8029	0.1835	0.8665	-0.009
Mof_H 	H 	0.1971	0.3165	0.3665	-0.008
Mof_H 	H 	0.4525	0.8476	0.3376	0.08
Mof_H 	H 	0.9063	0.1645	0.7743	-0.009
Mof_H 	H 	0.3029	0.8165	0.6335	-0.009
Mof_H 	H 	0.0772	0.4167	0.6361	-0.008
Mof_H 	H 	0.5772	0.5833	0.8639	-0.008
Mof_H 	H 	0.5937	0.6645	0.2257	-0.009
Mof_H 	H 	0.1339	0.3431	0.5641	-0.016
Mof_H 	H 	0.6607	0.4273	0.471	0.089
Mof_H 	H 	0.3661	0.8431	0.4359	-0.016
Mof_H 	H 	0.6153	0.9218	0.9288	-0.009
Mof_H 	H 	0.8847	0.4218	0.0712	-0.009
Mof_H 	H 	0.3847	0.5782	0.4288	-0.009
Mof_H 	H 	0.3152	0.1012	0.884	0.099
Mof_H 	H 	0.8393	0.9273	0.529	0.089
Mof_H 	H 	0.3393	0.0727	0.971	0.089
Mof_H 	H 	0.9525	0.1524	0.1624	0.08
Mof_H 	H 	0.864	0.3101	0.3682	0.078
Mof_H 	H 	0.0435	0.0318	0.0481	-0.009
Mof_H 	H 	0.8953	0.2291	0.0884	0.078
Mof_H 	H 	0.4647	0.8459	0.7724	0.077
Mof_H 	H 	0.0486	0.2283	0.8322	-0.014
Mof_H 	H 	0.136	0.1899	0.8682	0.078
Mof_C 	C 	0.0799	0.4011	0.48933	-0.109
Mof_C 	C 	0.3723	0.9151	0.48497	0.058
Mof_C 	C 	0.5427	0.4438	0.44639	0.08
Mof_C 	C 	0.9828	0.4123	0.4862	0.05
Mof_C 	C 	0.4427	0.7566	0.35484	0.103
Mof_C 	C 	0.0564	0.5722	0.10268	0.078
Mof_C 	C 	0.4346	0.8458	0.35772	-0.114
Mof_C 	C 	0.0992	0.3005	0.59866	-0.118
Mof_C 	C 	0.0671	0.1888	0.86855	-0.121
Mof_C 	C 	0.9916	0.2248	0.71912	0.041
Mof_C 	C 	0.0734	0.3081	0.26354	0.062
Mof_C 	C 	0.4891	0.7303	0.76673	-0.1
Mof_C 	C 	0.9436	0.9278	0.60268	0.078
Mof_C 	C 	0.5833	0.6134	0.87351	0.06
Mof_C 	C 	0.5734	0.6919	0.23646	0.062
Mof_C 	C 	0.8509	0.9102	0.59958	-0.135
Mof_C 	C 	0.0711	0.0432	0.63576	0.069
Mof_C 	C 	0.4438	0.5867	0.35024	-0.116
Mof_C 	C 	0.3509	0.0898	0.90042	-0.135
Mof_C 	C 	0.5887	0.875	0.89583	-0.114
Mof_C 	C 	0.3986	0.5802	0.4083	0.069
Mof_C 	C 	0.1346	0.5729	0.0484	-0.132
Mof_C 	C 	0.3717	0.8146	0.63277	0.072
Mof_C 	C 	0.6014	0.9198	0.9083	0.069
Mof_C 	C 	0.1491	0.5898	0.09958	-0.135
Mof_C 	C 	0.5562	0.9133	0.85024	-0.116
Mof_C 	C 	0.6346	0.4271	0.4516	-0.132
Mof_C 	C 	0.6277	0.5849	0.98497	0.058
Mof_C 	C 	0.5564	0.4278	0.39732	0.078
Mof_C 	C 	0.0109	0.2303	0.23327	-0.097
Mof_C 	C 	0.3836	0.8436	0.41567	0.07
Mof_C 	C 	0.6491	0.4102	0.40042	-0.135
Mof_C 	C 	0.9782	0.2795	0.18809	0.106
Mof_C 	C 	0.3654	0.0729	0.9516	-0.132
Mof_C 	C 	0.5084	0.7248	0.28088	0.041
Mof_C 	C 	0.1014	0.0802	0.5917	0.069
Mof_C 	C 	0.0711	0.1034	0.95943	0.098
Mof_C 	C 	0.0655	0.1285	0.63372	0.053
Mof_C 	C 	0.5149	0.7892	0.653	0.072
Mof_C 	C 	0.9289	0.4568	0.13576	0.069
Mof_C 	C 	0.0811	0.336	0.39025	-0.112
Mof_C 	C 	0.0149	0.2108	0.847	0.071
Mof_C 	C 	0.5711	0.8966	0.54057	0.098
Mof_C 	C 	0.8986	0.4198	0.0917	0.069
Mof_C 	C 	0.4851	0.7108	0.153	0.072
Mof_C 	C 	0.5627	0.9386	0.49208	-0.121
Mof_C 	C 	0.5218	0.7795	0.81191	0.107
Mof_C 	C 	0.4289	0.5432	0.36424	0.069
Mof_C 	C 	0.5109	0.7697	0.26673	-0.1
Mof_C 	C 	0.9273	0.3599	0.41514	0.107
Mof_C 	C 	0.4273	0.6401	0.08486	0.107
Mof_C 	C 	0.9008	0.1995	0.09866	-0.118
Mof_C 	C 	0.953	0.2738	0.76155	0.051
Mof_C 	C 	0.0218	0.2205	0.68809	0.107
Mof_C 	C 	0.9345	0.3715	0.13372	0.053
Mof_C 	C 	0.9189	0.164	0.89025	-0.114
Mof_C 	C 	0.0887	0.125	0.60417	-0.114
Mof_C 	C 	0.4436	0.0722	0.89732	0.078
Mof_C 	C 	0.9329	0.3112	0.36855	-0.119
Mof_C 	C 	0.4167	0.8866	0.37351	0.06
Mof_C 	C 	0.8116	0.91	0.57153	0.06
Mof_C 	C 	0.4189	0.836	0.60975	-0.115
Mof_C 	C 	0.0172	0.0877	0.9862	0.052
Mof_C 	C 	0.5544	0.824	0.85206	0.103
Mof_C 	C 	0.0544	0.176	0.64794	0.103
Mof_C 	C 	0.1283	0.3146	0.36723	0.071
Mof_C 	C 	0.5727	0.8599	0.58486	0.107
Mof_C 	C 	0.0562	0.0867	0.64976	-0.116
Mof_C 	C 	0.4113	0.625	0.39583	-0.114
Mof_C 	C 	0.9346	0.1542	0.14228	-0.114
Mof_C 	C 	0.9891	0.2697	0.73327	-0.099
Mof_C 	C 	0.5654	0.6542	0.85772	-0.114
Mof_C 	C 	0.6164	0.6564	0.91567	0.07
Mof_C 	C 	0.4887	0.5493	0.967	0.067
Mof_C 	C 	0.6283	0.6854	0.13277	0.072
Mof_C 	C 	0.0654	0.3458	0.64228	-0.114
Mof_C 	C 	0.574	0.6986	0.87188	0.051
Mof_C 	C 	0.1277	0.4151	0.51503	0.058
Mof_C 	C 	0.0113	0.0493	0.033	0.069
Mof_C 	C 	0.453	0.7262	0.73845	0.052
Mof_C 	C 	0.5113	0.9507	0.467	0.067
Mof_C 	C 	0.0627	0.0614	0.00792	-0.122
Mof_C 	C 	0.5799	0.5989	0.01067	-0.109
Mof_C 	C 	0.4345	0.6285	0.36628	0.053
Mof_C 	C 	0.5172	0.9123	0.5138	0.051
Mof_C 	C 	0.0084	0.2752	0.21912	0.041
Mof_C 	C 	0.8717	0.1854	0.86723	0.071
Mof_C 	C 	0.9612	0.1855	0.73572	-0.109
Mof_C 	C 	0.0388	0.3145	0.23572	-0.109
Mof_C 	C 	0.9201	0.0989	0.98933	-0.11
Mof_C 	C 	0.4573	0.0562	0.94639	0.08
Mof_C 	C 	0.4289	0.6034	0.04057	0.098
Mof_C 	C 	0.7918	0.3944	0.43257	0.093
Mof_C 	C 	0.0727	0.1401	0.91514	0.107
Mof_C 	C 	0.5671	0.8112	0.63145	-0.121
Mof_C 	C 	0.4782	0.7205	0.31191	0.107
Mof_C 	C 	0.9373	0.4386	0.50792	-0.121
Mof_C 	C 	0.4008	0.8005	0.40134	-0.118
Mof_C 	C 	0.9803	0.335	0.39092	0.058
Mof_C 	C 	0.926	0.1986	0.12812	0.051
Mof_C 	C 	0.0833	0.3866	0.62649	0.059
Mof_C 	C 	0.2082	0.1056	0.93257	0.093
Mof_C 	C 	0.2918	0.6056	0.06743	0.093
Mof_C 	C 	0.4373	0.5614	0.99208	-0.121
Mof_C 	C 	0.4329	0.6888	0.13145	-0.121
Mof_C 	C 	0.5388	0.6855	0.26428	-0.109
Mof_C 	C 	0.4803	0.665	0.10908	0.061
Mof_C 	C 	0.0573	0.2566	0.64516	0.103
Mof_C 	C 	0.3116	0.09	0.92847	0.06
Mof_C 	C 	0.0427	0.5562	0.05361	0.08
Mof_C 	C 	0.4612	0.8145	0.76428	-0.109
Mof_C 	C 	0.547	0.7738	0.23845	0.052
Mof_C 	C 	0.9113	0.375	0.10417	-0.114
Mof_C 	C 	0.5992	0.6995	0.90134	-0.118
Mof_C 	C 	0.426	0.8014	0.37188	0.051
Mof_C 	C 	0.4266	0.8081	0.73646	0.062
Mof_C 	C 	0.7082	0.8944	0.56743	0.093
Mof_C 	C 	0.5655	0.8715	0.86628	0.053
Mof_C 	C 	0.0197	0.165	0.89092	0.06
Mof_C 	C 	0.4456	0.676	0.35206	0.103
Mof_C 	C 	0.9456	0.324	0.14794	0.103
Mof_C 	C 	0.6884	0.41	0.42847	0.06
Mof_C 	C 	0.9266	0.1919	0.76354	0.062
Mof_C 	C 	0.074	0.3014	0.62812	0.051
Mof_C 	C 	0.8836	0.1564	0.08433	0.07
Mof_C 	C 	0.4916	0.7752	0.78088	0.041
Mof_C 	C 	0.5197	0.835	0.60908	0.061
Mof_C 	C 	0.9887	0.4507	0.533	0.067
Mof_C 	C 	0.8723	0.0849	0.01503	0.059
Mof_C 	C 	0.5811	0.664	0.10975	-0.115
Mof_C 	C 	0.9289	0.3966	0.45943	0.098
Mof_C 	C 	0.9438	0.4133	0.14976	-0.116
Mof_C 	C 	0.4828	0.5877	0.0138	0.051
Mof_C 	C 	0.8654	0.9271	0.5484	-0.132
Mof_C 	C 	0.4201	0.9011	0.51067	-0.109
Mof_C 	C 	0.1884	0.59	0.07153	0.06
Mof_C 	C 	0.9573	0.9438	0.55361	0.08
Mof_C 	C 	0.5573	0.7434	0.85484	0.103
Mof_C 	C 	0.1164	0.3436	0.58433	0.07
Mof_C 	C 	0.047	0.2262	0.26155	0.051
Mof_C 	C 	0.9851	0.2892	0.347	0.069
Mof_C 	C 	0.9427	0.2434	0.14516	0.103
Mof_C 	C 	0.5711	0.9568	0.86424	0.069
Mof_C 	C 	0.9167	0.1134	0.12649	0.059
Mof_I 	I 	0.43551	0.01477	0.39455	-0.363
Mof_I 	I 	0.66734	0.05705	0.06759	-0.382
Mof_I 	I 	0.33266	0.44295	0.56759	-0.382
Mof_I 	I 	0.32359	0.66712	0.67455	-0.371
Mof_I 	I 	0.18337	0.80511	0.69433	-0.37
Mof_I 	I 	0.70916	0.00879	0.96218	-0.385
Mof_I 	I 	0.29084	0.49121	0.46218	-0.385
Mof_I 	I 	0.28359	0.42705	0.37231	-0.366
Mof_I 	I 	0.56449	0.48523	0.89455	-0.363
Mof_I 	I 	0.17641	0.16712	0.32545	-0.37
Mof_I 	I 	0.21641	0.92705	0.62769	-0.367
Mof_I 	I 	0.31663	0.30511	0.30567	-0.369
Mof_I 	I 	0.78359	0.57295	0.12769	-0.367
Mof_I 	I 	0.83266	0.55705	0.93241	-0.382
Mof_I 	I 	0.82359	0.33288	0.82545	-0.37
Mof_I 	I 	0.68337	0.19489	0.80567	-0.369
Mof_I 	I 	0.71641	0.07295	0.87231	-0.367
Mof_I 	I 	0.67641	0.83288	0.17455	-0.371
Mof_I 	I 	0.79084	0.50879	0.03782	-0.385
Mof_I 	I 	0.16734	0.94295	0.43241	-0.383
Mof_I 	I 	0.20916	0.99121	0.53782	-0.385
Mof_I 	I 	0.06449	0.51477	0.60545	-0.363
Mof_I 	I 	0.93551	0.98523	0.10545	-0.362
Mof_I 	I 	0.81663	0.69489	0.19433	-0.369
Mof_N 	N 	0.6647	0.9085	0.54242	-0.143
Mof_N 	N 	0.0312	0.1767	0.67653	-0.14
Mof_N 	N 	0.5827	0.7088	0.15429	-0.277
Mof_N 	N 	0.0827	0.2912	0.34571	-0.275
Mof_N 	N 	0.0343	0.2614	0.67362	-0.141
Mof_N 	N 	0.5343	0.7386	0.82638	-0.141
Mof_N 	N 	0.1647	0.0915	0.95758	-0.143
Mof_N 	N 	0.8907	0.1142	0.0979	-0.27
Mof_N 	N 	0.9175	0.0612	0.03702	-0.272
Mof_N 	N 	0.3353	0.5915	0.04242	-0.143
Mof_N 	N 	0.8331	0.3688	0.41122	-0.133
Mof_N 	N 	0.905	0.4601	0.10728	-0.27
Mof_N 	N 	0.9314	0.2854	0.13134	-0.14
Mof_N 	N 	0.5312	0.8233	0.82347	-0.14
Mof_N 	N 	0.095	0.0399	0.60728	-0.27
Mof_N 	N 	0.5024	0.4441	0.41969	-0.277
Mof_N 	N 	0.6669	0.8688	0.58878	-0.133
Mof_N 	N 	0.4173	0.7912	0.65429	-0.277
Mof_N 	N 	0.4199	0.7648	0.7235	-0.271
Mof_N 	N 	0.405	0.5399	0.39272	-0.27
Mof_N 	N 	0.5686	0.7854	0.86866	-0.14
Mof_N 	N 	0.1669	0.1312	0.91122	-0.133
Mof_N 	N 	0.4657	0.7614	0.32638	-0.141
Mof_N 	N 	0.3331	0.6312	0.08878	-0.133
Mof_N 	N 	0.5207	0.8727	0.56124	-0.137
Mof_N 	N 	0.9173	0.2088	0.84571	-0.276
Mof_N 	N 	0.9199	0.2352	0.7765	-0.271
Mof_N 	N 	0.9976	0.9441	0.58031	-0.277
Mof_N 	N 	0.4793	0.6273	0.06124	-0.137
Mof_N 	N 	0.9688	0.3233	0.17653	-0.14
Mof_N 	N 	0.9793	0.3727	0.43876	-0.137
Mof_N 	N 	0.4976	0.0559	0.91969	-0.277
Mof_N 	N 	0.4175	0.9388	0.46298	-0.271
Mof_N 	N 	0.5801	0.7352	0.2235	-0.271
Mof_N 	N 	0.1093	0.3858	0.5979	-0.27
Mof_N 	N 	0.9657	0.2386	0.17362	-0.141
Mof_N 	N 	0.4314	0.7146	0.36866	-0.14
Mof_N 	N 	0.595	0.9601	0.89272	-0.27
Mof_N 	N 	0.4688	0.6767	0.32347	-0.14
Mof_N 	N 	0.8353	0.4085	0.45758	-0.143
Mof_N 	N 	0.0825	0.4388	0.53702	-0.271
Mof_N 	N 	0.0207	0.1273	0.93876	-0.137
Mof_N 	N 	0.0686	0.2146	0.63134	-0.14
Mof_N 	N 	0.0024	0.5559	0.08031	-0.277
Mof_N 	N 	0.0801	0.2648	0.2765	-0.27
Mof_N 	N 	0.3907	0.8858	0.4021	-0.27
Mof_N 	N 	0.6093	0.6142	0.9021	-0.27
Mof_N 	N 	0.5825	0.5612	0.96298	-0.271
Mof_Zn	Zn	0.84944	0.55113	0.42316	1.163
Mof_Zn	Zn	0.34944	0.44887	0.07684	1.163
Mof_Zn	Zn	0.36946	0.975	0.08798	1.164
Mof_Zn	Zn	0.63054	0.525	0.58798	1.164
Mof_Zn	Zn	0.15056	0.94887	0.92316	1.163
Mof_Zn	Zn	0.66105	0.24327	0.31384	1.164
Mof_Zn	Zn	0.65056	0.05113	0.57684	1.163
Mof_Zn	Zn	0.33895	0.25673	0.81384	1.164
Mof_Zn	Zn	0.13054	0.475	0.91202	1.164
Mof_Zn	Zn	0.16105	0.75673	0.18616	1.164
Mof_Zn	Zn	0.86946	0.025	0.41202	1.163
Mof_Zn	Zn	0.83895	0.74327	0.68616	1.164
Mof_H 	H 	0.8717	0.9483	0.9943	0.089
Mof_H 	H 	0.0486	0.7283	0.6678	-0.014
Mof_H 	H 	0.936	0.9855	0.3532	-0.009
Mof_H 	H 	0.3953	0.2709	0.0884	0.078
Mof_H 	H 	0.8953	0.7291	0.4116	0.078
Mof_H 	H 	0.6339	0.1569	0.5641	-0.016
Mof_H 	H 	0.1339	0.8431	0.9359	-0.016
Mof_H 	H 	0.1153	0.5782	0.9288	-0.009
Mof_H 	H 	0.3393	0.5727	0.529	0.089
Mof_H 	H 	0.8865	0.6157	0.5257	0.076
Mof_H 	H 	0.6971	0.1835	0.3665	-0.009
Mof_H 	H 	0.0937	0.8355	0.2257	-0.009
Mof_H 	H 	0.4711	0.5717	0.6219	-0.011
Mof_H 	H 	0.8833	0.6488	0.5945	0.082
Mof_H 	H 	0.9228	0.5833	0.3639	-0.008
Mof_H 	H 	0.4647	0.3459	0.7276	0.077
Mof_H 	H 	0.6153	0.4218	0.5712	-0.009
Mof_H 	H 	0.3717	0.0517	0.5057	0.089
Mof_H 	H 	0.5937	0.1645	0.2743	-0.009
Mof_H 	H 	0.6283	0.4483	0.0057	0.089
Mof_H 	H 	0.9647	0.6541	0.7724	0.078
Mof_H 	H 	0.1848	0.1012	0.384	0.099
Mof_H 	H 	0.564	0.4855	0.6468	-0.009
Mof_H 	H 	0.1167	0.8512	0.0945	0.083
Mof_H 	H 	0.4877	0.2974	0.2233	0.077
Mof_H 	H 	0.3865	0.3843	0.9743	0.076
Mof_H 	H 	0.3661	0.3431	0.0641	-0.016
Mof_H 	H 	0.1047	0.7709	0.9116	0.078
Mof_H 	H 	0.5289	0.9283	0.1219	-0.011
Mof_H 	H 	0.3054	0.4076	0.0171	-0.003
Mof_H 	H 	0.636	0.3101	0.8682	0.078
Mof_H 	H 	0.6135	0.1157	0.4743	0.076
Mof_H 	H 	0.4603	0.0878	0.1701	0.08
Mof_H 	H 	0.3152	0.6012	0.616	0.099
Mof_H 	H 	0.9711	0.4283	0.8781	-0.011
Mof_H 	H 	0.3029	0.3165	0.8665	-0.009
Mof_H 	H 	0.1607	0.0727	0.471	0.089
Mof_H 	H 	0.6848	0.8988	0.116	0.099
Mof_H 	H 	0.9514	0.8045	0.7293	0.006
Mof_H 	H 	0.6167	0.1488	0.4055	0.083
Mof_H 	H 	0.3833	0.3512	0.9055	0.083
Mof_H 	H 	0.5435	0.4682	0.0481	-0.009
Mof_H 	H 	0.5061	0.9557	0.0375	-0.007
Mof_H 	H 	0.5957	0.3469	0.5926	0.08
Mof_H 	H 	0.0435	0.5318	0.4519	-0.009
Mof_H 	H 	0.6607	0.9273	0.029	0.089
Mof_H 	H 	0.5772	0.0833	0.6361	-0.008
Mof_H 	H 	0.136	0.6899	0.6318	0.078
Mof_H 	H 	0.0957	0.6531	0.9074	0.08
Mof_H 	H 	0.9063	0.6645	0.7257	-0.009
Mof_H 	H 	0.3847	0.0782	0.0712	-0.009
Mof_H 	H 	0.9514	0.7717	0.1678	-0.014
Mof_H 	H 	0.9603	0.9122	0.3299	0.08
Mof_H 	H 	0.8847	0.9218	0.4288	-0.009
Mof_H 	H 	0.4063	0.3355	0.7743	-0.009
Mof_H 	H 	0.9939	0.4557	0.9625	-0.007
Mof_H 	H 	0.9565	0.9682	0.9519	-0.009
Mof_H 	H 	0.5397	0.4122	0.6701	0.08
Mof_H 	H 	0.4514	0.1955	0.7707	0.005
Mof_H 	H 	0.4514	0.2283	0.3322	-0.014
Mof_H 	H 	0.6946	0.0924	0.5171	-0.003
Mof_H 	H 	0.0397	0.5878	0.8299	0.08
Mof_H 	H 	0.0123	0.7974	0.7767	0.075
Mof_H 	H 	0.9043	0.8469	0.4074	0.08
Mof_H 	H 	0.0475	0.8476	0.8376	0.08
Mof_H 	H 	0.8054	0.5924	0.4829	-0.003
Mof_H 	H 	0.4939	0.5443	0.5375	-0.007
Mof_H 	H 	0.5486	0.2717	0.8322	-0.014
Mof_H 	H 	0.4043	0.1531	0.0926	0.08
Mof_H 	H 	0.1135	0.8843	0.0257	0.077
Mof_H 	H 	0.6047	0.2291	0.5884	0.078
Mof_H 	H 	0.9877	0.7026	0.2767	0.076
Mof_H 	H 	0.0772	0.9167	0.8639	-0.008
Mof_H 	H 	0.0486	0.6955	0.2293	0.005
Mof_H 	H 	0.5123	0.2026	0.7233	0.077
Mof_H 	H 	0.8152	0.3988	0.884	0.099
Mof_H 	H 	0.9525	0.6524	0.3376	0.08
Mof_H 	H 	0.0289	0.0717	0.3781	-0.011
Mof_H 	H 	0.0061	0.0443	0.4625	-0.007
Mof_H 	H 	0.5475	0.1524	0.6624	0.08
Mof_H 	H 	0.5353	0.1541	0.2276	0.077
Mof_H 	H 	0.4565	0.0318	0.5481	-0.009
Mof_H 	H 	0.0353	0.8459	0.2724	0.077
Mof_H 	H 	0.1283	0.5517	0.4943	0.089
Mof_H 	H 	0.5486	0.3045	0.2707	0.005
Mof_H 	H 	0.8029	0.6835	0.6335	-0.008
Mof_H 	H 	0.1946	0.9076	0.9829	-0.003
Mof_H 	H 	0.864	0.8101	0.1318	0.078
Mof_H 	H 	0.8393	0.4273	0.971	0.089
Mof_H 	H 	0.1971	0.8165	0.1335	-0.009
Mof_H 	H 	0.8661	0.6569	0.4359	-0.016
Mof_H 	H 	0.4228	0.4167	0.1361	-0.008
Mof_H 	H 	0.436	0.0145	0.1468	-0.009
Mof_H 	H 	0.064	0.5145	0.8532	-0.009
Mof_H 	H 	0.364	0.1899	0.3682	0.078
Mof_H 	H 	0.4525	0.3476	0.1624	0.08
Mof_C 	C 	0.4573	0.5562	0.55361	0.08
Mof_C 	C 	0.1277	0.9151	0.98497	0.059
Mof_C 	C 	0.9916	0.7248	0.78088	0.041
Mof_C 	C 	0.4373	0.0614	0.50792	-0.121
Mof_C 	C 	0.453	0.2262	0.76155	0.052
Mof_C 	C 	0.3723	0.4151	0.01503	0.058
Mof_C 	C 	0.9289	0.9568	0.36424	0.069
Mof_C 	C 	0.9201	0.5989	0.51067	-0.109
Mof_C 	C 	0.0564	0.0722	0.39732	0.078
Mof_C 	C 	0.5544	0.324	0.64794	0.103
Mof_C 	C 	0.5711	0.4568	0.63576	0.069
Mof_C 	C 	0.9436	0.4278	0.89732	0.078
Mof_C 	C 	0.9373	0.9386	0.99208	-0.122
Mof_C 	C 	0.6346	0.9271	0.0484	-0.132
Mof_C 	C 	0.7918	0.8944	0.06743	0.093
Mof_C 	C 	0.0992	0.8005	0.90134	-0.118
Mof_C 	C 	0.0573	0.7566	0.85484	0.103
Mof_C 	C 	0.0149	0.7108	0.653	0.069
Mof_C 	C 	0.0172	0.5877	0.5138	0.05
Mof_C 	C 	0.6164	0.1564	0.58433	0.07
Mof_C 	C 	0.9851	0.7892	0.153	0.071
Mof_C 	C 	0.2082	0.6056	0.56743	0.093
Mof_C 	C 	0.3509	0.5898	0.59958	-0.135
Mof_C 	C 	0.2918	0.1056	0.43257	0.093
Mof_C 	C 	0.0654	0.8458	0.85772	-0.114
Mof_C 	C 	0.6283	0.1854	0.36723	0.072
Mof_C 	C 	0.9573	0.4438	0.94639	0.08
Mof_C 	C 	0.5218	0.2795	0.68809	0.107
Mof_C 	C 	0.4008	0.3005	0.09866	-0.118
Mof_C 	C 	0.4289	0.1034	0.45943	0.098
Mof_C 	C 	0.4346	0.3458	0.14228	-0.114
Mof_C 	C 	0.0544	0.676	0.85206	0.103
Mof_C 	C 	0.4167	0.3866	0.12649	0.06
Mof_C 	C 	0.0799	0.9011	0.01067	-0.11
Mof_C 	C 	0.5734	0.1919	0.26354	0.062
Mof_C 	C 	0.9427	0.7434	0.35484	0.103
Mof_C 	C 	0.0627	0.5614	0.49208	-0.121
Mof_C 	C 	0.5564	0.9278	0.10268	0.078
Mof_C 	C 	0.0887	0.625	0.89583	-0.114
Mof_C 	C 	0.5172	0.4123	0.9862	0.051
Mof_C 	C 	0.8717	0.6854	0.63277	0.071
Mof_C 	C 	0.8836	0.6564	0.41567	0.07
Mof_C 	C 	0.1491	0.0898	0.40042	-0.135
Mof_C 	C 	0.8723	0.5849	0.48497	0.058
Mof_C 	C 	0.4782	0.2205	0.18809	0.107
Mof_C 	C 	0.4266	0.3081	0.76354	0.062
Mof_C 	C 	0.5654	0.1542	0.64228	-0.114
Mof_C 	C 	0.574	0.1986	0.62812	0.051
Mof_C 	C 	0.5811	0.164	0.39025	-0.115
Mof_C 	C 	0.9345	0.8715	0.36628	0.053
Mof_C 	C 	0.0734	0.8081	0.23646	0.062
Mof_C 	C 	0.5799	0.0989	0.48933	-0.109
Mof_C 	C 	0.9346	0.6542	0.35772	-0.114
Mof_C 	C 	0.5655	0.3715	0.63372	0.053
Mof_C 	C 	0.047	0.7262	0.23845	0.051
Mof_C 	C 	0.4612	0.3145	0.73572	-0.109
Mof_C 	C 	0.1164	0.8436	0.91567	0.07
Mof_C 	C 	0.0113	0.5493	0.467	0.067
Mof_C 	C 	0.4201	0.4011	0.98933	-0.109
Mof_C 	C 	0.4289	0.0432	0.13576	0.069
Mof_C 	C 	0.9008	0.6995	0.40134	-0.118
Mof_C 	C 	0.1283	0.8146	0.13277	0.071
Mof_C 	C 	0.6884	0.91	0.07153	0.06
Mof_C 	C 	0.0388	0.8145	0.26428	-0.109
Mof_C 	C 	0.3986	0.0802	0.0917	0.069
Mof_C 	C 	0.3654	0.5729	0.5484	-0.132
Mof_C 	C 	0.9266	0.6919	0.73646	0.062
Mof_C 	C 	0.0218	0.7205	0.81191	0.106
Mof_C 	C 	0.926	0.6986	0.37188	0.051
Mof_C 	C 	0.4828	0.0877	0.4862	0.051
Mof_C 	C 	0.5084	0.2248	0.21912	0.041
Mof_C 	C 	0.4345	0.1285	0.13372	0.053
Mof_C 	C 	0.4438	0.0867	0.14976	-0.116
Mof_C 	C 	0.4803	0.165	0.39092	0.061
Mof_C 	C 	0.4436	0.5722	0.60268	0.078
Mof_C 	C 	0.4891	0.2303	0.73327	-0.1
Mof_C 	C 	0.5573	0.2434	0.64516	0.103
Mof_C 	C 	0.9167	0.6134	0.37351	0.059
Mof_C 	C 	0.4189	0.336	0.89025	-0.115
Mof_C 	C 	0.0833	0.8866	0.87351	0.059
Mof_C 	C 	0.1884	0.09	0.42847	0.06
Mof_C 	C 	0.8509	0.4102	0.90042	-0.135
Mof_C 	C 	0.074	0.8014	0.87188	0.051
Mof_C 	C 	0.5109	0.2697	0.23327	-0.1
Mof_C 	C 	0.4329	0.1888	0.36855	-0.121
Mof_C 	C 	0.0197	0.665	0.60908	0.058
Mof_C 	C 	0.8116	0.41	0.92847	0.06
Mof_C 	C 	0.4851	0.2108	0.347	0.072
Mof_C 	C 	0.5727	0.3599	0.91514	0.107
Mof_C 	C 	0.4456	0.176	0.14794	0.103
Mof_C 	C 	0.7082	0.3944	0.93257	0.093
Mof_C 	C 	0.426	0.3014	0.12812	0.051
Mof_C 	C 	0.0711	0.5432	0.86424	0.069
Mof_C 	C 	0.9456	0.824	0.35206	0.103
Mof_C 	C 	0.4916	0.2752	0.71912	0.041
Mof_C 	C 	0.9289	0.8966	0.04057	0.098
Mof_C 	C 	0.0711	0.6034	0.54057	0.098
Mof_C 	C 	0.5562	0.4133	0.64976	-0.116
Mof_C 	C 	0.5627	0.4386	0.00792	-0.121
Mof_C 	C 	0.5113	0.4507	0.033	0.067
Mof_C 	C 	0.3116	0.59	0.57153	0.06
Mof_C 	C 	0.9329	0.8112	0.13145	-0.121
Mof_C 	C 	0.5149	0.2892	0.847	0.072
Mof_C 	C 	0.5887	0.375	0.60417	-0.114
Mof_C 	C 	0.9891	0.7697	0.76673	-0.097
Mof_C 	C 	0.9828	0.9123	0.0138	0.052
Mof_C 	C 	0.5711	0.3966	0.95943	0.098
Mof_C 	C 	0.0727	0.6401	0.58486	0.107
Mof_C 	C 	0.5992	0.1995	0.59866	-0.118
Mof_C 	C 	0.5427	0.9438	0.05361	0.08
Mof_C 	C 	0.9887	0.9507	0.967	0.069
Mof_C 	C 	0.0427	0.0562	0.44639	0.08
Mof_C 	C 	0.0109	0.7303	0.26673	-0.099
Mof_C 	C 	0.9782	0.7795	0.31191	0.107
Mof_C 	C 	0.0562	0.5867	0.85024	-0.116
Mof_C 	C 	0.4427	0.2566	0.14516	0.103
Mof_C 	C 	0.4113	0.125	0.10417	-0.114
Mof_C 	C 	0.8986	0.9198	0.4083	0.069
Mof_C 	C 	0.5833	0.1134	0.62649	0.06
Mof_C 	C 	0.8654	0.4271	0.9516	-0.132
Mof_C 	C 	0.4887	0.0493	0.533	0.067
Mof_C 	C 	0.0811	0.836	0.10975	-0.114
Mof_C 	C 	0.9438	0.9133	0.35024	-0.116
Mof_C 	C 	0.9612	0.6855	0.76428	-0.109
Mof_C 	C 	0.0084	0.7752	0.28088	0.041
Mof_C 	C 	0.3717	0.3146	0.86723	0.072
Mof_C 	C 	0.9113	0.875	0.39583	-0.114
Mof_C 	C 	0.1014	0.5802	0.9083	0.069
Mof_C 	C 	0.9189	0.664	0.60975	-0.112
Mof_C 	C 	0.0671	0.6888	0.63145	-0.119
Mof_C 	C 	0.547	0.2738	0.26155	0.052
Mof_C 	C 	0.9273	0.8599	0.08486	0.107
Mof_C 	C 	0.6277	0.0849	0.51503	0.058
Mof_C 	C 	0.5388	0.1855	0.23572	-0.109
Mof_C 	C 	0.6014	0.4198	0.5917	0.069
Mof_C 	C 	0.3836	0.3436	0.08433	0.07
Mof_C 	C 	0.1346	0.0729	0.4516	-0.132
Mof_C 	C 	0.4273	0.1401	0.41514	0.107
Mof_C 	C 	0.953	0.7738	0.73845	0.051
Mof_C 	C 	0.0655	0.6285	0.86628	0.053
Mof_C 	C 	0.9803	0.835	0.10908	0.06
Mof_C 	C 	0.5197	0.335	0.89092	0.061
Mof_C 	C 	0.6491	0.9102	0.09958	-0.135
Mof_C 	C 	0.5671	0.3112	0.86855	-0.121
Mof_I 	I 	0.66734	0.55705	0.43241	-0.382
Mof_I 	I 	0.20916	0.49121	0.96218	-0.385
Mof_I 	I 	0.29084	0.99121	0.03782	-0.385
Mof_I 	I 	0.93551	0.48523	0.39455	-0.363
Mof_I 	I 	0.33266	0.94295	0.93241	-0.382
Mof_I 	I 	0.68337	0.69489	0.69433	-0.369
Mof_I 	I 	0.71641	0.57295	0.62769	-0.366
Mof_I 	I 	0.43551	0.51477	0.10545	-0.363
Mof_I 	I 	0.56449	0.98523	0.60545	-0.363
Mof_I 	I 	0.06449	0.01477	0.89455	-0.362
Mof_I 	I 	0.28359	0.92705	0.12769	-0.367
Mof_I 	I 	0.16734	0.44295	0.06759	-0.382
Mof_I 	I 	0.17641	0.66712	0.17455	-0.37
Mof_I 	I 	0.81663	0.19489	0.30567	-0.37
Mof_I 	I 	0.18337	0.30511	0.80567	-0.369
Mof_I 	I 	0.78359	0.07295	0.37231	-0.367
Mof_I 	I 	0.83266	0.05705	0.56759	-0.383
Mof_I 	I 	0.21641	0.42705	0.87231	-0.367
Mof_I 	I 	0.31663	0.80511	0.19433	-0.369
Mof_I 	I 	0.79084	0.00879	0.46218	-0.385
Mof_I 	I 	0.32359	0.16712	0.82545	-0.371
Mof_I 	I 	0.67641	0.33288	0.32545	-0.371
Mof_I 	I 	0.70916	0.50879	0.53782	-0.385
Mof_I 	I 	0.82359	0.83288	0.67455	-0.37
Mof_N 	N 	0.5686	0.2854	0.63134	-0.14
Mof_N 	N 	0.0207	0.6273	0.56124	-0.137
Mof_N 	N 	0.405	0.0399	0.10728	-0.27
Mof_N 	N 	0.4314	0.2146	0.13134	-0.14
Mof_N 	N 	0.4976	0.5559	0.58031	-0.277
Mof_N 	N 	0.0825	0.9388	0.96298	-0.272
Mof_N 	N 	0.8353	0.9085	0.04242	-0.143
Mof_N 	N 	0.8331	0.8688	0.08878	-0.133
Mof_N 	N 	0.4173	0.2912	0.84571	-0.277
Mof_N 	N 	0.0024	0.0559	0.41969	-0.277
Mof_N 	N 	0.5825	0.0612	0.53702	-0.271
Mof_N 	N 	0.9175	0.5612	0.46298	-0.271
Mof_N 	N 	0.1647	0.5915	0.54242	-0.143
Mof_N 	N 	0.4199	0.2648	0.7765	-0.271
Mof_N 	N 	0.5343	0.2386	0.67362	-0.141
Mof_N 	N 	0.905	0.9601	0.39272	-0.27
Mof_N 	N 	0.5827	0.2088	0.34571	-0.277
Mof_N 	N 	0.1669	0.6312	0.58878	-0.133
Mof_N 	N 	0.0801	0.7648	0.2235	-0.271
Mof_N 	N 	0.6669	0.3688	0.91122	-0.133
Mof_N 	N 	0.8907	0.6142	0.4021	-0.27
Mof_N 	N 	0.5207	0.3727	0.93876	-0.137
Mof_N 	N 	0.6093	0.1142	0.5979	-0.27
Mof_N 	N 	0.9688	0.8233	0.32347	-0.14
Mof_N 	N 	0.5801	0.2352	0.2765	-0.271
Mof_N 	N 	0.4175	0.4388	0.03702	-0.271
Mof_N 	N 	0.0312	0.6767	0.82347	-0.14
Mof_N 	N 	0.3331	0.1312	0.41122	-0.133
Mof_N 	N 	0.595	0.4601	0.60728	-0.27
Mof_N 	N 	0.4688	0.1767	0.17653	-0.14
Mof_N 	N 	0.095	0.5399	0.89272	-0.27
Mof_N 	N 	0.5312	0.3233	0.67653	-0.14
Mof_N 	N 	0.6647	0.4085	0.95758	-0.143
Mof_N 	N 	0.4793	0.1273	0.43876	-0.137
Mof_N 	N 	0.0827	0.7912	0.15429	-0.276
Mof_N 	N 	0.9199	0.7352	0.7235	-0.27
Mof_N 	N 	0.4657	0.2614	0.17362	-0.141
Mof_N 	N 	0.3353	0.0915	0.45758	-0.143
Mof_N 	N 	0.9314	0.7854	0.36866	-0.14
Mof_N 	N 	0.0686	0.7146	0.86866	-0.14
Mof_N 	N 	0.3907	0.3858	0.0979	-0.27
Mof_N 	N 	0.1093	0.8858	0.9021	-0.27
Mof_N 	N 	0.0343	0.7614	0.82638	-0.141
Mof_N 	N 	0.5024	0.9441	0.08031	-0.277
Mof_N 	N 	0.9657	0.7386	0.32638	-0.141
Mof_N 	N 	0.9173	0.7088	0.65429	-0.275
Mof_N 	N 	0.9976	0.4441	0.91969	-0.277
Mof_N 	N 	0.9793	0.8727	0.06124	-0.137
_end
