data_functionalizedCrystal
_audit_creation_method	'EQeq! by Chris Wilmer'
_symmetry_space_group_name_H-M	'P1'
_symmetry_Int_Tables_number	1
_symmetry_cell_setting	triclinic
loop_
_symmetry_equiv_pos_as_xyz
  x,y,z
_cell_length_a	8.779
_cell_length_b	20.742
_cell_length_c	34.287
_cell_angle_alpha	90
_cell_angle_beta	90
_cell_angle_gamma	90
loop_
_atom_site_label
_atom_site_type_symbol
_atom_site_fract_x
_atom_site_fract_y
_atom_site_fract_z
_atom_site_charge
Mof_O 	O 	0.247	0.3354	0.5929	-0.59
Mof_O 	O 	0.0061	0.3336	0.5705	-0.569
Mof_O 	O 	0.2403	0.4573	0.6361	-0.586
Mof_C 	C 	0.144	0.321	0.5682	0.535
Mof_C 	C 	0.2	0.2843	0.5328	-0.137
Mof_C 	C 	0.102	0.2655	0.5045	-0.001
Mof_C 	C 	0.147	0.2315	0.4712	0.005
Mof_C 	C 	0.2342	0.589	0.6471	-0.022
Mof_C 	C 	0.229	0.6559	0.646	0.031
Mof_H 	H 	0.9972	0.276	0.5073	0.044
Mof_H 	H 	0.0754	0.2196	0.4518	0.03
Mof_H 	H 	0.313	0.5663	0.6603	0.044
Mof_H 	H 	0.3047	0.6786	0.6603	0.018
Mof_O 	O 	0.247	0.8354	0.0929	-0.591
Mof_O 	O 	0.0061	0.8336	0.0705	-0.568
Mof_O 	O 	0.2403	0.9573	0.1361	-0.585
Mof_C 	C 	0.144	0.821	0.0682	0.536
Mof_C 	C 	0.2	0.7843	0.0328	-0.141
Mof_C 	C 	0.102	0.7655	0.0045	0.008
Mof_C 	C 	0.147	0.7315	0.9712	-0.001
Mof_C 	C 	0.2342	0.089	0.1471	-0.022
Mof_C 	C 	0.229	0.1559	0.146	0.031
Mof_H 	H 	0.9972	0.776	0.0073	0.038
Mof_H 	H 	0.0754	0.7196	0.9518	0.033
Mof_H 	H 	0.313	0.0663	0.1603	0.044
Mof_H 	H 	0.3047	0.1786	0.1603	0.018
Mof_O 	O 	0.747	0.3354	0.0929	-0.591
Mof_O 	O 	0.5061	0.3336	0.0705	-0.57
Mof_O 	O 	0.7403	0.4573	0.1361	-0.586
Mof_C 	C 	0.644	0.321	0.0682	0.534
Mof_C 	C 	0.7	0.2843	0.0328	-0.136
Mof_C 	C 	0.602	0.2655	0.0045	-0.001
Mof_C 	C 	0.647	0.2315	0.9712	0.007
Mof_C 	C 	0.7342	0.589	0.1471	-0.023
Mof_C 	C 	0.729	0.6559	0.146	0.031
Mof_H 	H 	0.4972	0.276	0.0073	0.043
Mof_H 	H 	0.5754	0.2196	0.9518	0.03
Mof_H 	H 	0.813	0.5663	0.1603	0.044
Mof_H 	H 	0.8047	0.6786	0.1603	0.018
Mof_O 	O 	0.747	0.8354	0.5929	-0.591
Mof_O 	O 	0.5061	0.8336	0.5705	-0.57
Mof_O 	O 	0.7403	0.9573	0.6361	-0.585
Mof_C 	C 	0.644	0.821	0.5682	0.535
Mof_C 	C 	0.7	0.7843	0.5328	-0.139
Mof_C 	C 	0.602	0.7655	0.5045	0.002
Mof_C 	C 	0.647	0.7315	0.4712	0.003
Mof_C 	C 	0.7342	0.089	0.6471	-0.023
Mof_C 	C 	0.729	0.1559	0.646	0.031
Mof_H 	H 	0.4972	0.776	0.5073	0.042
Mof_H 	H 	0.5754	0.7196	0.4518	0.031
Mof_H 	H 	0.813	0.0663	0.6603	0.045
Mof_H 	H 	0.8047	0.1786	0.6603	0.018
Mof_O 	O 	0.503	0.4146	0.5929	-0.591
Mof_O 	O 	0.7439	0.4164	0.5705	-0.57
Mof_O 	O 	0.5097	0.2927	0.6361	-0.586
Mof_C 	C 	0.606	0.429	0.5682	0.535
Mof_C 	C 	0.55	0.4657	0.5328	-0.138
Mof_C 	C 	0.648	0.4845	0.5045	0.001
Mof_C 	C 	0.603	0.5185	0.4712	0.004
Mof_C 	C 	0.5158	0.161	0.6471	-0.022
Mof_C 	C 	0.521	0.0941	0.646	0.031
Mof_H 	H 	0.7528	0.474	0.5073	0.042
Mof_H 	H 	0.6746	0.5304	0.4518	0.031
Mof_H 	H 	0.437	0.1837	0.6603	0.044
Mof_H 	H 	0.4453	0.0714	0.6603	0.018
Mof_O 	O 	0.503	0.9146	0.0929	-0.591
Mof_O 	O 	0.7439	0.9164	0.0705	-0.57
Mof_O 	O 	0.5097	0.7927	0.1361	-0.585
Mof_C 	C 	0.606	0.929	0.0682	0.535
Mof_C 	C 	0.55	0.9657	0.0328	-0.138
Mof_C 	C 	0.648	0.9845	0.0045	0
Mof_C 	C 	0.603	0.0185	0.9712	0.005
Mof_C 	C 	0.5158	0.661	0.1471	-0.023
Mof_C 	C 	0.521	0.5941	0.146	0.031
Mof_H 	H 	0.7528	0.974	0.0073	0.042
Mof_H 	H 	0.6746	0.0304	0.9518	0.031
Mof_H 	H 	0.437	0.6837	0.1603	0.044
Mof_H 	H 	0.4453	0.5714	0.1603	0.018
Mof_O 	O 	0.003	0.4146	0.0929	-0.591
Mof_O 	O 	0.2439	0.4164	0.0705	-0.57
Mof_O 	O 	0.0097	0.2927	0.1361	-0.585
Mof_C 	C 	0.106	0.429	0.0682	0.535
Mof_C 	C 	0.05	0.4657	0.0328	-0.137
Mof_C 	C 	0.148	0.4845	0.0045	0.002
Mof_C 	C 	0.103	0.5185	0.9712	0.002
Mof_C 	C 	0.0158	0.161	0.1471	-0.023
Mof_C 	C 	0.021	0.0941	0.146	0.03
Mof_H 	H 	0.2528	0.474	0.0073	0.042
Mof_H 	H 	0.1746	0.5304	0.9518	0.032
Mof_H 	H 	0.937	0.1837	0.1603	0.045
Mof_H 	H 	0.9453	0.0714	0.1603	0.019
Mof_O 	O 	0.003	0.9146	0.5929	-0.589
Mof_O 	O 	0.2439	0.9164	0.5705	-0.569
Mof_O 	O 	0.0097	0.7927	0.6361	-0.584
Mof_C 	C 	0.106	0.929	0.5682	0.534
Mof_C 	C 	0.05	0.9657	0.5328	-0.135
Mof_C 	C 	0.148	0.9845	0.5045	0.004
Mof_C 	C 	0.103	0.0185	0.4712	-0.002
Mof_C 	C 	0.0158	0.661	0.6471	-0.021
Mof_C 	C 	0.021	0.5941	0.646	0.031
Mof_H 	H 	0.2528	0.974	0.5073	0.042
Mof_H 	H 	0.1746	0.0304	0.4518	0.033
Mof_H 	H 	0.937	0.6837	0.6603	0.043
Mof_H 	H 	0.9453	0.5714	0.6603	0.018
Mof_O 	O 	0.503	0.3354	0.1571	-0.591
Mof_O 	O 	0.7439	0.3336	0.1795	-0.57
Mof_O 	O 	0.5097	0.4573	0.1139	-0.585
Mof_C 	C 	0.606	0.321	0.1818	0.535
Mof_C 	C 	0.55	0.2843	0.2172	-0.138
Mof_C 	C 	0.648	0.2655	0.2455	0.001
Mof_C 	C 	0.603	0.2315	0.2788	0.004
Mof_C 	C 	0.5158	0.589	0.1029	-0.023
Mof_C 	C 	0.521	0.6559	0.104	0.031
Mof_H 	H 	0.7528	0.276	0.2427	0.042
Mof_H 	H 	0.6746	0.2196	0.2982	0.031
Mof_H 	H 	0.437	0.5663	0.0897	0.044
Mof_H 	H 	0.4453	0.6786	0.0897	0.018
Mof_O 	O 	0.503	0.8354	0.6571	-0.591
Mof_O 	O 	0.7439	0.8336	0.6795	-0.569
Mof_O 	O 	0.5097	0.9573	0.6139	-0.585
Mof_C 	C 	0.606	0.821	0.6818	0.535
Mof_C 	C 	0.55	0.7843	0.7172	-0.138
Mof_C 	C 	0.648	0.7655	0.7455	0.001
Mof_C 	C 	0.603	0.7315	0.7788	0.004
Mof_C 	C 	0.5158	0.089	0.6029	-0.023
Mof_C 	C 	0.521	0.1559	0.604	0.031
Mof_H 	H 	0.7528	0.776	0.7427	0.042
Mof_H 	H 	0.6746	0.7196	0.7982	0.031
Mof_H 	H 	0.437	0.0663	0.5897	0.044
Mof_H 	H 	0.4453	0.1786	0.5897	0.018
Mof_O 	O 	0.003	0.3354	0.6571	-0.592
Mof_O 	O 	0.2439	0.3336	0.6795	-0.57
Mof_O 	O 	0.0097	0.4573	0.6139	-0.585
Mof_C 	C 	0.106	0.321	0.6818	0.536
Mof_C 	C 	0.05	0.2843	0.7172	-0.142
Mof_C 	C 	0.148	0.2655	0.7455	0.005
Mof_C 	C 	0.103	0.2315	0.7788	-0.002
Mof_C 	C 	0.0158	0.589	0.6029	-0.022
Mof_C 	C 	0.021	0.6559	0.604	0.032
Mof_H 	H 	0.2528	0.276	0.7427	0.041
Mof_H 	H 	0.1746	0.2196	0.7982	0.033
Mof_H 	H 	0.937	0.5663	0.5897	0.043
Mof_H 	H 	0.9453	0.6786	0.5897	0.017
Mof_O 	O 	0.003	0.8354	0.1571	-0.588
Mof_O 	O 	0.2439	0.8336	0.1795	-0.569
Mof_O 	O 	0.0097	0.9573	0.1139	-0.583
Mof_C 	C 	0.106	0.821	0.1818	0.533
Mof_C 	C 	0.05	0.7843	0.2172	-0.133
Mof_C 	C 	0.148	0.7655	0.2455	-0.003
Mof_C 	C 	0.103	0.7315	0.2788	0.008
Mof_C 	C 	0.0158	0.089	0.1029	-0.024
Mof_C 	C 	0.021	0.1559	0.104	0.031
Mof_H 	H 	0.2528	0.776	0.2427	0.044
Mof_H 	H 	0.1746	0.7196	0.2982	0.03
Mof_H 	H 	0.937	0.0663	0.0897	0.045
Mof_H 	H 	0.9453	0.1786	0.0897	0.018
Mof_O 	O 	0.247	0.4146	0.1571	-0.591
Mof_O 	O 	0.0061	0.4164	0.1795	-0.569
Mof_O 	O 	0.2403	0.2927	0.1139	-0.585
Mof_C 	C 	0.144	0.429	0.1818	0.535
Mof_C 	C 	0.2	0.4657	0.2172	-0.138
Mof_C 	C 	0.102	0.4845	0.2455	0.002
Mof_C 	C 	0.147	0.5185	0.2788	0.003
Mof_C 	C 	0.2342	0.161	0.1029	-0.023
Mof_C 	C 	0.229	0.0941	0.104	0.032
Mof_H 	H 	0.9972	0.474	0.2427	0.042
Mof_H 	H 	0.0754	0.5304	0.2982	0.031
Mof_H 	H 	0.313	0.1837	0.0897	0.044
Mof_H 	H 	0.3047	0.0714	0.0897	0.018
Mof_O 	O 	0.247	0.9146	0.6571	-0.591
Mof_O 	O 	0.0061	0.9164	0.6795	-0.568
Mof_O 	O 	0.2403	0.7927	0.6139	-0.585
Mof_C 	C 	0.144	0.929	0.6818	0.537
Mof_C 	C 	0.2	0.9657	0.7172	-0.143
Mof_C 	C 	0.102	0.9845	0.7455	0.012
Mof_C 	C 	0.147	0.0185	0.7788	-0.005
Mof_C 	C 	0.2342	0.661	0.6029	-0.022
Mof_C 	C 	0.229	0.5941	0.604	0.031
Mof_H 	H 	0.9972	0.974	0.7427	0.037
Mof_H 	H 	0.0754	0.0304	0.7982	0.033
Mof_H 	H 	0.313	0.6837	0.5897	0.044
Mof_H 	H 	0.3047	0.5714	0.5897	0.018
Mof_O 	O 	0.747	0.4146	0.6571	-0.591
Mof_O 	O 	0.5061	0.4164	0.6795	-0.57
Mof_O 	O 	0.7403	0.2927	0.6139	-0.586
Mof_C 	C 	0.644	0.429	0.6818	0.535
Mof_C 	C 	0.7	0.4657	0.7172	-0.138
Mof_C 	C 	0.602	0.4845	0.7455	0.001
Mof_C 	C 	0.647	0.5185	0.7788	0.004
Mof_C 	C 	0.7342	0.161	0.6029	-0.022
Mof_C 	C 	0.729	0.0941	0.604	0.03
Mof_H 	H 	0.4972	0.474	0.7427	0.042
Mof_H 	H 	0.5754	0.5304	0.7982	0.031
Mof_H 	H 	0.813	0.1837	0.5897	0.044
Mof_H 	H 	0.8047	0.0714	0.5897	0.019
Mof_O 	O 	0.747	0.9146	0.1571	-0.591
Mof_O 	O 	0.5061	0.9164	0.1795	-0.569
Mof_O 	O 	0.7403	0.7927	0.1139	-0.585
Mof_C 	C 	0.644	0.929	0.1818	0.533
Mof_C 	C 	0.7	0.9657	0.2172	-0.133
Mof_C 	C 	0.602	0.9845	0.2455	-0.004
Mof_C 	C 	0.647	0.0185	0.2788	0.009
Mof_C 	C 	0.7342	0.661	0.1029	-0.023
Mof_C 	C 	0.729	0.5941	0.104	0.031
Mof_H 	H 	0.4972	0.974	0.2427	0.044
Mof_H 	H 	0.5754	0.0304	0.2982	0.029
Mof_H 	H 	0.813	0.6837	0.0897	0.044
Mof_H 	H 	0.8047	0.5714	0.0897	0.018
Mof_O 	O 	0.753	0.6646	0.4071	-0.591
Mof_O 	O 	0.9939	0.6664	0.4295	-0.57
Mof_O 	O 	0.7597	0.5427	0.3639	-0.586
Mof_C 	C 	0.856	0.679	0.4318	0.535
Mof_C 	C 	0.8	0.7157	0.4672	-0.137
Mof_C 	C 	0.898	0.7345	0.4955	-0.001
Mof_C 	C 	0.853	0.7685	0.5288	0.005
Mof_C 	C 	0.7658	0.411	0.3529	-0.022
Mof_C 	C 	0.771	0.3441	0.354	0.031
Mof_H 	H 	0.0028	0.724	0.4927	0.044
Mof_H 	H 	0.9246	0.7804	0.5482	0.03
Mof_H 	H 	0.687	0.4337	0.3397	0.044
Mof_H 	H 	0.6953	0.3214	0.3397	0.018
Mof_O 	O 	0.753	0.1646	0.9071	-0.591
Mof_O 	O 	0.9939	0.1664	0.9295	-0.568
Mof_O 	O 	0.7597	0.0427	0.8639	-0.585
Mof_C 	C 	0.856	0.179	0.9318	0.536
Mof_C 	C 	0.8	0.2157	0.9672	-0.141
Mof_C 	C 	0.898	0.2345	0.9955	0.008
Mof_C 	C 	0.853	0.2685	0.0288	-0.001
Mof_C 	C 	0.7658	0.911	0.8529	-0.022
Mof_C 	C 	0.771	0.8441	0.854	0.031
Mof_H 	H 	0.0028	0.224	0.9927	0.038
Mof_H 	H 	0.9246	0.2804	0.0482	0.033
Mof_H 	H 	0.687	0.9337	0.8397	0.044
Mof_H 	H 	0.6953	0.8214	0.8397	0.018
Mof_O 	O 	0.253	0.6646	0.9071	-0.591
Mof_O 	O 	0.4939	0.6664	0.9295	-0.57
Mof_O 	O 	0.2597	0.5427	0.8639	-0.586
Mof_C 	C 	0.356	0.679	0.9318	0.534
Mof_C 	C 	0.3	0.7157	0.9672	-0.136
Mof_C 	C 	0.398	0.7345	0.9955	-0.001
Mof_C 	C 	0.353	0.7685	0.0288	0.007
Mof_C 	C 	0.2658	0.411	0.8529	-0.023
Mof_C 	C 	0.271	0.3441	0.854	0.031
Mof_H 	H 	0.5028	0.724	0.9927	0.043
Mof_H 	H 	0.4246	0.7804	0.0482	0.03
Mof_H 	H 	0.187	0.4337	0.8397	0.044
Mof_H 	H 	0.1953	0.3214	0.8397	0.018
Mof_O 	O 	0.253	0.1646	0.4071	-0.591
Mof_O 	O 	0.4939	0.1664	0.4295	-0.57
Mof_O 	O 	0.2597	0.0427	0.3639	-0.585
Mof_C 	C 	0.356	0.179	0.4318	0.535
Mof_C 	C 	0.3	0.2157	0.4672	-0.139
Mof_C 	C 	0.398	0.2345	0.4955	0.002
Mof_C 	C 	0.353	0.2685	0.5288	0.003
Mof_C 	C 	0.2658	0.911	0.3529	-0.023
Mof_C 	C 	0.271	0.8441	0.354	0.031
Mof_H 	H 	0.5028	0.224	0.4927	0.042
Mof_H 	H 	0.4246	0.2804	0.5482	0.031
Mof_H 	H 	0.187	0.9337	0.3397	0.045
Mof_H 	H 	0.1953	0.8214	0.3397	0.018
Mof_O 	O 	0.497	0.5854	0.4071	-0.591
Mof_O 	O 	0.2561	0.5836	0.4295	-0.57
Mof_O 	O 	0.4903	0.7073	0.3639	-0.586
Mof_C 	C 	0.394	0.571	0.4318	0.535
Mof_C 	C 	0.45	0.5343	0.4672	-0.138
Mof_C 	C 	0.352	0.5155	0.4955	0.001
Mof_C 	C 	0.397	0.4815	0.5288	0.004
Mof_C 	C 	0.4842	0.839	0.3529	-0.022
Mof_C 	C 	0.479	0.9059	0.354	0.031
Mof_H 	H 	0.2472	0.526	0.4927	0.042
Mof_H 	H 	0.3254	0.4696	0.5482	0.031
Mof_H 	H 	0.563	0.8163	0.3397	0.044
Mof_H 	H 	0.5547	0.9286	0.3397	0.018
Mof_O 	O 	0.497	0.0854	0.9071	-0.591
Mof_O 	O 	0.2561	0.0836	0.9295	-0.57
Mof_O 	O 	0.4903	0.2073	0.8639	-0.585
Mof_C 	C 	0.394	0.071	0.9318	0.535
Mof_C 	C 	0.45	0.0343	0.9672	-0.138
Mof_C 	C 	0.352	0.0155	0.9955	0
Mof_C 	C 	0.397	0.9815	0.0288	0.005
Mof_C 	C 	0.4842	0.339	0.8529	-0.023
Mof_C 	C 	0.479	0.4059	0.854	0.031
Mof_H 	H 	0.2472	0.026	0.9927	0.042
Mof_H 	H 	0.3254	0.9696	0.0482	0.031
Mof_H 	H 	0.563	0.3163	0.8397	0.044
Mof_H 	H 	0.5547	0.4286	0.8397	0.018
Mof_O 	O 	0.997	0.5854	0.9071	-0.591
Mof_O 	O 	0.7561	0.5836	0.9295	-0.57
Mof_O 	O 	0.9903	0.7073	0.8639	-0.585
Mof_C 	C 	0.894	0.571	0.9318	0.535
Mof_C 	C 	0.95	0.5343	0.9672	-0.137
Mof_C 	C 	0.852	0.5155	0.9955	0.002
Mof_C 	C 	0.897	0.4815	0.0288	0.002
Mof_C 	C 	0.9842	0.839	0.8529	-0.023
Mof_C 	C 	0.979	0.9059	0.854	0.03
Mof_H 	H 	0.7472	0.526	0.9927	0.042
Mof_H 	H 	0.8254	0.4696	0.0482	0.032
Mof_H 	H 	0.063	0.8163	0.8397	0.045
Mof_H 	H 	0.0547	0.9286	0.8397	0.019
Mof_O 	O 	0.997	0.0854	0.4071	-0.589
Mof_O 	O 	0.7561	0.0836	0.4295	-0.569
Mof_O 	O 	0.9903	0.2073	0.3639	-0.584
Mof_C 	C 	0.894	0.071	0.4318	0.534
Mof_C 	C 	0.95	0.0343	0.4672	-0.135
Mof_C 	C 	0.852	0.0155	0.4955	0.004
Mof_C 	C 	0.897	0.9815	0.5288	-0.002
Mof_C 	C 	0.9842	0.339	0.3529	-0.021
Mof_C 	C 	0.979	0.4059	0.354	0.031
Mof_H 	H 	0.7472	0.026	0.4927	0.042
Mof_H 	H 	0.8254	0.9696	0.5482	0.033
Mof_H 	H 	0.063	0.3163	0.3397	0.043
Mof_H 	H 	0.0547	0.4286	0.3397	0.018
Mof_O 	O 	0.497	0.6646	0.8429	-0.591
Mof_O 	O 	0.2561	0.6664	0.8205	-0.57
Mof_O 	O 	0.4903	0.5427	0.8861	-0.585
Mof_C 	C 	0.394	0.679	0.8182	0.535
Mof_C 	C 	0.45	0.7157	0.7828	-0.138
Mof_C 	C 	0.352	0.7345	0.7545	0.001
Mof_C 	C 	0.397	0.7685	0.7212	0.004
Mof_C 	C 	0.4842	0.411	0.8971	-0.023
Mof_C 	C 	0.479	0.3441	0.896	0.031
Mof_H 	H 	0.2472	0.724	0.7573	0.042
Mof_H 	H 	0.3254	0.7804	0.7018	0.031
Mof_H 	H 	0.563	0.4337	0.9103	0.044
Mof_H 	H 	0.5547	0.3214	0.9103	0.018
Mof_O 	O 	0.497	0.1646	0.3429	-0.591
Mof_O 	O 	0.2561	0.1664	0.3205	-0.569
Mof_O 	O 	0.4903	0.0427	0.3861	-0.585
Mof_C 	C 	0.394	0.179	0.3182	0.535
Mof_C 	C 	0.45	0.2157	0.2828	-0.138
Mof_C 	C 	0.352	0.2345	0.2545	0.001
Mof_C 	C 	0.397	0.2685	0.2212	0.004
Mof_C 	C 	0.4842	0.911	0.3971	-0.023
Mof_C 	C 	0.479	0.8441	0.396	0.031
Mof_H 	H 	0.2472	0.224	0.2573	0.042
Mof_H 	H 	0.3254	0.2804	0.2018	0.031
Mof_H 	H 	0.563	0.9337	0.4103	0.044
Mof_H 	H 	0.5547	0.8214	0.4103	0.018
Mof_O 	O 	0.997	0.6646	0.3429	-0.592
Mof_O 	O 	0.7561	0.6664	0.3205	-0.57
Mof_O 	O 	0.9903	0.5427	0.3861	-0.585
Mof_C 	C 	0.894	0.679	0.3182	0.536
Mof_C 	C 	0.95	0.7157	0.2828	-0.142
Mof_C 	C 	0.852	0.7345	0.2545	0.005
Mof_C 	C 	0.897	0.7685	0.2212	-0.002
Mof_C 	C 	0.9842	0.411	0.3971	-0.022
Mof_C 	C 	0.979	0.3441	0.396	0.032
Mof_H 	H 	0.7472	0.724	0.2573	0.041
Mof_H 	H 	0.8254	0.7804	0.2018	0.033
Mof_H 	H 	0.063	0.4337	0.4103	0.043
Mof_H 	H 	0.0547	0.3214	0.4103	0.017
Mof_O 	O 	0.997	0.1646	0.8429	-0.588
Mof_O 	O 	0.7561	0.1664	0.8205	-0.569
Mof_O 	O 	0.9903	0.0427	0.8861	-0.583
Mof_C 	C 	0.894	0.179	0.8182	0.533
Mof_C 	C 	0.95	0.2157	0.7828	-0.133
Mof_C 	C 	0.852	0.2345	0.7545	-0.003
Mof_C 	C 	0.897	0.2685	0.7212	0.008
Mof_C 	C 	0.9842	0.911	0.8971	-0.024
Mof_C 	C 	0.979	0.8441	0.896	0.031
Mof_H 	H 	0.7472	0.224	0.7573	0.044
Mof_H 	H 	0.8254	0.2804	0.7018	0.03
Mof_H 	H 	0.063	0.9337	0.9103	0.045
Mof_H 	H 	0.0547	0.8214	0.9103	0.018
Mof_O 	O 	0.753	0.5854	0.8429	-0.591
Mof_O 	O 	0.9939	0.5836	0.8205	-0.569
Mof_O 	O 	0.7597	0.7073	0.8861	-0.585
Mof_C 	C 	0.856	0.571	0.8182	0.535
Mof_C 	C 	0.8	0.5343	0.7828	-0.138
Mof_C 	C 	0.898	0.5155	0.7545	0.002
Mof_C 	C 	0.853	0.4815	0.7212	0.003
Mof_C 	C 	0.7658	0.839	0.8971	-0.023
Mof_C 	C 	0.771	0.9059	0.896	0.032
Mof_H 	H 	0.0028	0.526	0.7573	0.042
Mof_H 	H 	0.9246	0.4696	0.7018	0.031
Mof_H 	H 	0.687	0.8163	0.9103	0.044
Mof_H 	H 	0.6953	0.9286	0.9103	0.018
Mof_O 	O 	0.753	0.0854	0.3429	-0.591
Mof_O 	O 	0.9939	0.0836	0.3205	-0.568
Mof_O 	O 	0.7597	0.2073	0.3861	-0.585
Mof_C 	C 	0.856	0.071	0.3182	0.537
Mof_C 	C 	0.8	0.0343	0.2828	-0.143
Mof_C 	C 	0.898	0.0155	0.2545	0.012
Mof_C 	C 	0.853	0.9815	0.2212	-0.005
Mof_C 	C 	0.7658	0.339	0.3971	-0.022
Mof_C 	C 	0.771	0.4059	0.396	0.031
Mof_H 	H 	0.0028	0.026	0.2573	0.037
Mof_H 	H 	0.9246	0.9696	0.2018	0.033
Mof_H 	H 	0.687	0.3163	0.4103	0.044
Mof_H 	H 	0.6953	0.4286	0.4103	0.018
Mof_O 	O 	0.253	0.5854	0.3429	-0.591
Mof_O 	O 	0.4939	0.5836	0.3205	-0.57
Mof_O 	O 	0.2597	0.7073	0.3861	-0.586
Mof_C 	C 	0.356	0.571	0.3182	0.535
Mof_C 	C 	0.3	0.5343	0.2828	-0.138
Mof_C 	C 	0.398	0.5155	0.2545	0.001
Mof_C 	C 	0.353	0.4815	0.2212	0.004
Mof_C 	C 	0.2658	0.839	0.3971	-0.022
Mof_C 	C 	0.271	0.9059	0.396	0.03
Mof_H 	H 	0.5028	0.526	0.2573	0.042
Mof_H 	H 	0.4246	0.4696	0.2018	0.031
Mof_H 	H 	0.187	0.8163	0.4103	0.044
Mof_H 	H 	0.1953	0.9286	0.4103	0.019
Mof_O 	O 	0.253	0.0854	0.8429	-0.591
Mof_O 	O 	0.4939	0.0836	0.8205	-0.569
Mof_O 	O 	0.2597	0.2073	0.8861	-0.585
Mof_C 	C 	0.356	0.071	0.8182	0.533
Mof_C 	C 	0.3	0.0343	0.7828	-0.133
Mof_C 	C 	0.398	0.0155	0.7545	-0.004
Mof_C 	C 	0.353	0.9815	0.7212	0.009
Mof_C 	C 	0.2658	0.339	0.8971	-0.023
Mof_C 	C 	0.271	0.4059	0.896	0.031
Mof_H 	H 	0.5028	0.026	0.7573	0.044
Mof_H 	H 	0.4246	0.9696	0.7018	0.029
Mof_H 	H 	0.187	0.3163	0.9103	0.044
Mof_H 	H 	0.1953	0.4286	0.9103	0.018
Mof_Sc	Sc	0.375	0.375	0.63608	2.009
Mof_Sc	Sc	0.375	0.875	0.13608	2.009
Mof_Sc	Sc	0.875	0.375	0.13608	2.007
Mof_Sc	Sc	0.875	0.875	0.63608	2.003
Mof_Sc	Sc	0.375	0.375	0.11392	2.009
Mof_Sc	Sc	0.375	0.875	0.61392	2.009
Mof_Sc	Sc	0.875	0.375	0.61392	2.009
Mof_Sc	Sc	0.875	0.875	0.11392	2.002
Mof_Sc	Sc	0.625	0.625	0.36392	2.009
Mof_Sc	Sc	0.625	0.125	0.86392	2.009
Mof_Sc	Sc	0.125	0.625	0.86392	2.007
Mof_Sc	Sc	0.125	0.125	0.36392	2.003
Mof_Sc	Sc	0.625	0.625	0.88608	2.009
Mof_Sc	Sc	0.625	0.125	0.38608	2.009
Mof_Sc	Sc	0.125	0.625	0.38608	2.009
Mof_Sc	Sc	0.125	0.125	0.88608	2.002
Mof_C 	C 	0.125	0.4869	0.625	0.577
Mof_C 	C 	0.125	0.5576	0.625	-0.185
Mof_C 	C 	0.125	0.9869	0.125	0.578
Mof_C 	C 	0.125	0.0576	0.125	-0.186
Mof_C 	C 	0.625	0.9869	0.625	0.576
Mof_C 	C 	0.625	0.0576	0.625	-0.184
Mof_C 	C 	0.625	0.2631	0.625	0.577
Mof_C 	C 	0.625	0.1924	0.625	-0.185
Mof_C 	C 	0.625	0.7631	0.125	0.577
Mof_C 	C 	0.625	0.6924	0.125	-0.185
Mof_C 	C 	0.625	0.4869	0.125	0.577
Mof_C 	C 	0.625	0.5576	0.125	-0.185
Mof_C 	C 	0.125	0.2631	0.125	0.577
Mof_C 	C 	0.125	0.1924	0.125	-0.184
Mof_C 	C 	0.125	0.7631	0.625	0.577
Mof_C 	C 	0.125	0.6924	0.625	-0.186
Mof_C 	C 	0.875	0.5131	0.375	0.577
Mof_C 	C 	0.875	0.4424	0.375	-0.185
Mof_C 	C 	0.875	0.0131	0.875	0.578
Mof_C 	C 	0.875	0.9424	0.875	-0.186
Mof_C 	C 	0.375	0.7369	0.375	0.577
Mof_C 	C 	0.375	0.8076	0.375	-0.185
Mof_C 	C 	0.375	0.2369	0.875	0.577
Mof_C 	C 	0.375	0.3076	0.875	-0.185
Mof_C 	C 	0.375	0.5131	0.875	0.577
Mof_C 	C 	0.375	0.4424	0.875	-0.185
Mof_C 	C 	0.375	0.0131	0.375	0.576
Mof_C 	C 	0.375	0.9424	0.375	-0.184
Mof_C 	C 	0.875	0.7369	0.875	0.577
Mof_C 	C 	0.875	0.8076	0.875	-0.184
Mof_C 	C 	0.875	0.2369	0.375	0.577
Mof_C 	C 	0.875	0.3076	0.375	-0.186
_end
