data_functionalizedCrystal
_audit_creation_method	'EQeq! by Chris Wilmer'
_symmetry_space_group_name_H-M	'P1'
_symmetry_Int_Tables_number	1
_symmetry_cell_setting	triclinic
loop_
_symmetry_equiv_pos_as_xyz
  x,y,z
_cell_length_a	12.6992
_cell_length_b	12.6992
_cell_length_c	13.3781
_cell_angle_alpha	63.5325
_cell_angle_beta	63.5325
_cell_angle_gamma	88.3975
loop_
_atom_site_label
_atom_site_type_symbol
_atom_site_fract_x
_atom_site_fract_y
_atom_site_fract_z
_atom_site_charge
Mof_Mn	Mn	0.5	0	-0	0.913
Mof_Mn	Mn	-3.57532e-17	0.5	0.5	0.955
Mof_Mn	Mn	0.30516	0.69484	0.25	0.998
Mof_Mn	Mn	0.69484	0.30516	0.75	1.008
Mof_H 	H 	0.7485	0.8365	0.7703	0.085
Mof_H 	H 	0.8561	0.7283	0.6746	0.039
Mof_H 	H 	0.6513	0.4213	0.9931	0.019
Mof_H 	H 	0.5464	0.5296	0.0907	0.097
Mof_H 	H 	0.2377	0.8047	0.0063	0.035
Mof_H 	H 	0.0875	0.8593	0.9547	0.065
Mof_H 	H 	0.0465	0.0901	0.0912	0.102
Mof_H 	H 	0.2011	0.0353	0.1345	-0.033
Mof_H 	H 	0.1635	0.2515	0.7297	0.048
Mof_H 	H 	0.2717	0.1439	0.8254	0.058
Mof_H 	H 	0.5787	0.3487	0.5069	0.051
Mof_H 	H 	0.4704	0.4536	0.4093	0.051
Mof_H 	H 	0.1953	0.7623	0.4937	0.05
Mof_H 	H 	0.1407	0.9125	0.5453	0.052
Mof_H 	H 	0.9099	0.9535	0.4088	0.03
Mof_H 	H 	0.9647	0.7989	0.3655	0.094
Mof_H 	H 	0.2515	0.1635	0.2297	0.015
Mof_H 	H 	0.1439	0.2717	0.3254	0.078
Mof_H 	H 	0.3487	0.5787	0.0069	0.085
Mof_H 	H 	0.4536	0.4704	0.9093	0.008
Mof_H 	H 	0.7623	0.1953	0.9937	0.03
Mof_H 	H 	0.9125	0.1407	0.0453	0.079
Mof_H 	H 	0.9535	0.9099	0.9088	0.042
Mof_H 	H 	0.7989	0.9647	0.8655	0.096
Mof_H 	H 	0.8365	0.7485	0.2703	0.053
Mof_H 	H 	0.7283	0.8561	0.1746	0.06
Mof_H 	H 	0.4213	0.6513	0.4931	0.052
Mof_H 	H 	0.5296	0.5464	0.5907	0.055
Mof_H 	H 	0.8047	0.2377	0.5063	0.019
Mof_H 	H 	0.8593	0.0875	0.4547	0.088
Mof_H 	H 	0.0901	0.0465	0.5912	0.109
Mof_H 	H 	0.0353	0.2011	0.6345	-0.025
Mof_C 	C 	0.55947	0.76433	0.0011	0.297
Mof_C 	C 	0.63465	0.69495	0.9395	0.035
Mof_C 	C 	0.7284	0.7528	0.8155	-0.096
Mof_C 	C 	0.7928	0.688	0.7578	0.05
Mof_C 	C 	0.76351	0.56309	0.8231	-0.131
Mof_C 	C 	0.671	0.505	0.9479	0.092
Mof_C 	C 	0.60753	0.56987	0.0063	-0.156
Mof_C 	C 	0.82628	0.49312	0.7561	0.384
Mof_C 	C 	0.1984	0.8624	0.0233	0.038
Mof_C 	C 	0.1085	0.8953	0.9924	-0.086
Mof_C 	C 	0.04841	0.98159	0.0167	0.079
Mof_C 	C 	0.0846	0.0326	0.0725	-0.251
Mof_C 	C 	0.1759	0.9985	0.1	0.187
Mof_C 	C 	0.23567	0.44053	0.4989	0.379
Mof_C 	C 	0.30505	0.36535	0.5605	-0.086
Mof_C 	C 	0.2472	0.2716	0.6845	-0.011
Mof_C 	C 	0.312	0.2072	0.7422	-0.028
Mof_C 	C 	0.43691	0.23649	0.6769	-0.071
Mof_C 	C 	0.495	0.329	0.5521	-0.023
Mof_C 	C 	0.43013	0.39247	0.4937	-0.015
Mof_C 	C 	0.50688	0.17372	0.7439	0.358
Mof_C 	C 	0.1376	0.8016	0.4767	0.015
Mof_C 	C 	0.1047	0.8915	0.5076	-0.041
Mof_C 	C 	0.01841	0.95159	0.4833	-0.055
Mof_C 	C 	0.9674	0.9154	0.4275	0.035
Mof_C 	C 	0.0015	0.8241	0.4	-0.072
Mof_C 	C 	0.44053	0.23567	0.9989	0.459
Mof_C 	C 	0.36535	0.30505	0.0605	-0.203
Mof_C 	C 	0.2716	0.2472	0.1845	0.073
Mof_C 	C 	0.2072	0.312	0.2422	-0.101
Mof_C 	C 	0.23649	0.43691	0.1769	-0.011
Mof_C 	C 	0.329	0.495	0.0521	-0.135
Mof_C 	C 	0.39247	0.43013	0.9937	0.128
Mof_C 	C 	0.17372	0.50688	0.2439	0.337
Mof_C 	C 	0.8016	0.1376	0.9767	0.085
Mof_C 	C 	0.8915	0.1047	0.0076	-0.149
Mof_C 	C 	0.95159	0.01841	0.9833	0.017
Mof_C 	C 	0.9154	0.9674	0.9275	0.009
Mof_C 	C 	0.8241	0.0015	0.9	-0.064
Mof_C 	C 	0.76433	0.55947	0.5011	0.376
Mof_C 	C 	0.69495	0.63465	0.4395	-0.08
Mof_C 	C 	0.7528	0.7284	0.3155	-0.012
Mof_C 	C 	0.688	0.7928	0.2578	-0.023
Mof_C 	C 	0.56309	0.76351	0.3231	-0.07
Mof_C 	C 	0.505	0.671	0.4479	-0.02
Mof_C 	C 	0.56987	0.60753	0.5063	-0.016
Mof_C 	C 	0.49312	0.82628	0.2561	0.359
Mof_C 	C 	0.8624	0.1984	0.5233	0.097
Mof_C 	C 	0.8953	0.1085	0.4924	-0.178
Mof_C 	C 	0.98159	0.04841	0.5167	0.14
Mof_C 	C 	0.0326	0.0846	0.5725	-0.261
Mof_C 	C 	0.9985	0.1759	0.6	0.18
Mof_N 	N 	0.22936	0.91312	0.0778	-0.085
Mof_N 	N 	0.08688	0.77064	0.4222	-0.036
Mof_N 	N 	0.77064	0.08688	0.9222	-0.049
Mof_N 	N 	0.91312	0.22936	0.5778	-0.094
Mof_O 	O 	0.47979	0.70301	0.1156	-0.369
Mof_O 	O 	0.5823	0.87634	0.9346	-0.318
Mof_O 	O 	0.78235	0.38185	0.8138	-0.376
Mof_O 	O 	0.91663	0.54941	0.6479	-0.353
Mof_O 	O 	0.31551	0.87947	0.1096	-0.275
Mof_O 	O 	0.29699	0.52021	0.3844	-0.391
Mof_O 	O 	0.12366	0.4177	0.5654	-0.374
Mof_O 	O 	0.61815	0.21765	0.6862	-0.375
Mof_O 	O 	0.45059	0.08337	0.8521	-0.356
Mof_O 	O 	0.12053	0.68449	0.3904	-0.296
Mof_O 	O 	0.52021	0.29699	0.8844	-0.406
Mof_O 	O 	0.4177	0.12366	0.0654	-0.407
Mof_O 	O 	0.21765	0.61815	0.1862	-0.372
Mof_O 	O 	0.08337	0.45059	0.3521	-0.362
Mof_O 	O 	0.68449	0.12053	0.8904	-0.288
Mof_O 	O 	0.70301	0.47979	0.6156	-0.387
Mof_O 	O 	0.87634	0.5823	0.4346	-0.362
Mof_O 	O 	0.38185	0.78235	0.3138	-0.37
Mof_O 	O 	0.54941	0.91663	0.1479	-0.345
Mof_O 	O 	0.87947	0.31551	0.6096	-0.279
_end
