data_functionalizedCrystal
_audit_creation_method	'EQeq! by Chris Wilmer'
_symmetry_space_group_name_H-M	'P1'
_symmetry_Int_Tables_number	1
_symmetry_cell_setting	triclinic
loop_
_symmetry_equiv_pos_as_xyz
  x,y,z
_cell_length_a	26.8913
_cell_length_b	26.8913
_cell_length_c	10.0069
_cell_angle_alpha	90
_cell_angle_beta	90
_cell_angle_gamma	120
loop_
_atom_site_label
_atom_site_type_symbol
_atom_site_fract_x
_atom_site_fract_y
_atom_site_fract_z
_atom_site_charge
Mof_N 	N 	0.4416	0.9999	0.1468	-0.133
Mof_C 	C 	0.4799	0.8757	0.0039	0.083
Mof_H 	H 	0.5198	0.8957	0.0045	-0.025
Mof_C 	C 	0.452	0.8166	0.0035	-0.158
Mof_H 	H 	0.4729	0.7976	0.004	0.079
Mof_C 	C 	0.4118	0.0081	0.2124	-0.151
Mof_N 	N 	0.10827	0.33323	0.48013	-0.146
Mof_C 	C 	0.14657	0.20903	0.33723	0.098
Mof_H 	H 	0.18647	0.22903	0.33783	-0.024
Mof_C 	C 	0.11867	0.14993	0.33683	-0.172
Mof_H 	H 	0.13957	0.13093	0.33733	0.086
Mof_C 	C 	0.07847	0.34143	0.54573	-0.122
Mof_N 	N 	0.77493	0.66657	0.81347	-0.161
Mof_C 	C 	0.81323	0.54237	0.67057	0.092
Mof_H 	H 	0.85313	0.56237	0.67117	-0.021
Mof_C 	C 	0.78533	0.48327	0.67017	-0.16
Mof_H 	H 	0.80623	0.46427	0.67067	0.084
Mof_C 	C 	0.74513	0.67477	0.87907	-0.049
Mof_N 	N 	0.0001	0.4417	0.1468	-0.163
Mof_C 	C 	0.1243	0.6042	0.0039	0.082
Mof_H 	H 	0.1043	0.6241	0.0045	-0.029
Mof_C 	C 	0.1834	0.6354	0.0035	-0.16
Mof_H 	H 	0.2024	0.6753	0.004	0.078
Mof_C 	C 	0.9919	0.4037	0.2124	-0.118
Mof_N 	N 	0.66677	0.77503	0.48013	-0.147
Mof_C 	C 	0.79097	0.93753	0.33723	0.065
Mof_H 	H 	0.77097	0.95743	0.33783	-0.009
Mof_C 	C 	0.85007	0.96873	0.33683	-0.108
Mof_H 	H 	0.86907	0.00863	0.33733	0.054
Mof_C 	C 	0.65857	0.73703	0.54573	-0.12
Mof_N 	N 	0.33343	0.10837	0.81347	-0.164
Mof_C 	C 	0.45763	0.27087	0.67057	0.092
Mof_H 	H 	0.43763	0.29077	0.67117	-0.022
Mof_C 	C 	0.51673	0.30207	0.67017	-0.161
Mof_H 	H 	0.53573	0.34197	0.67067	0.083
Mof_C 	C 	0.32523	0.07037	0.87907	-0.045
Mof_N 	N 	0.5583	0.5584	0.1468	-0.154
Mof_C 	C 	0.3958	0.5201	0.0039	0.083
Mof_H 	H 	0.3759	0.4802	0.0045	-0.029
Mof_C 	C 	0.3646	0.548	0.0035	-0.161
Mof_H 	H 	0.3247	0.5271	0.004	0.078
Mof_C 	C 	0.5963	0.5882	0.2124	-0.132
Mof_N 	N 	0.22497	0.89173	0.48013	-0.146
Mof_C 	C 	0.06247	0.85343	0.33723	0.097
Mof_H 	H 	0.04257	0.81353	0.33783	-0.028
Mof_C 	C 	0.03127	0.88133	0.33683	-0.179
Mof_H 	H 	0.99137	0.86043	0.33733	0.096
Mof_C 	C 	0.26297	0.92153	0.54573	-0.117
Mof_N 	N 	0.89163	0.22507	0.81347	-0.164
Mof_C 	C 	0.72913	0.18677	0.67057	0.093
Mof_H 	H 	0.70923	0.14687	0.67117	-0.024
Mof_C 	C 	0.69793	0.21467	0.67017	-0.161
Mof_H 	H 	0.65803	0.19377	0.67067	0.083
Mof_C 	C 	0.92963	0.25487	0.87907	-0.036
Mof_N 	N 	0.9999	0.4416	0.8532	-0.108
Mof_C 	C 	0.8757	0.4799	0.9961	0.096
Mof_H 	H 	0.8957	0.5198	0.9955	-0.001
Mof_C 	C 	0.8166	0.452	0.9965	-0.149
Mof_H 	H 	0.7976	0.4729	0.996	0.092
Mof_C 	C 	0.0081	0.4118	0.7876	-0.125
Mof_N 	N 	0.66657	0.77493	0.18653	-0.158
Mof_C 	C 	0.54237	0.81323	0.32943	0.095
Mof_H 	H 	0.56237	0.85313	0.32883	-0.021
Mof_C 	C 	0.48327	0.78533	0.32983	-0.158
Mof_H 	H 	0.46427	0.80623	0.32933	0.089
Mof_C 	C 	0.67477	0.74513	0.12093	-0.108
Mof_N 	N 	0.33323	0.10827	0.51987	-0.153
Mof_C 	C 	0.20903	0.14657	0.66277	0.108
Mof_H 	H 	0.22903	0.18647	0.66217	-0.022
Mof_C 	C 	0.14993	0.11867	0.66317	-0.174
Mof_H 	H 	0.13093	0.13957	0.66267	0.097
Mof_C 	C 	0.34143	0.07847	0.45427	-0.129
Mof_N 	N 	0.4417	0.0001	0.8532	-0.134
Mof_C 	C 	0.6042	0.1243	0.9961	0.095
Mof_H 	H 	0.6241	0.1043	0.9955	-0.003
Mof_C 	C 	0.6354	0.1834	0.9965	-0.15
Mof_H 	H 	0.6753	0.2024	0.996	0.092
Mof_C 	C 	0.4037	0.9919	0.7876	-0.093
Mof_N 	N 	0.10837	0.33343	0.18653	-0.16
Mof_C 	C 	0.27087	0.45763	0.32943	0.095
Mof_H 	H 	0.29077	0.43763	0.32883	-0.022
Mof_C 	C 	0.30207	0.51673	0.32983	-0.159
Mof_H 	H 	0.34197	0.53573	0.32933	0.088
Mof_C 	C 	0.07037	0.32523	0.12093	-0.107
Mof_N 	N 	0.77503	0.66677	0.51987	-0.153
Mof_C 	C 	0.93753	0.79097	0.66277	0.081
Mof_H 	H 	0.95743	0.77097	0.66217	-0.009
Mof_C 	C 	0.96873	0.85007	0.66317	-0.12
Mof_H 	H 	0.00863	0.86907	0.66267	0.072
Mof_C 	C 	0.73703	0.65857	0.45427	-0.126
Mof_N 	N 	0.5584	0.5583	0.8532	-0.122
Mof_C 	C 	0.5201	0.3958	0.9961	0.096
Mof_H 	H 	0.4802	0.3759	0.9955	-0.003
Mof_C 	C 	0.548	0.3646	0.9965	-0.15
Mof_H 	H 	0.5271	0.3247	0.996	0.092
Mof_C 	C 	0.5882	0.5963	0.7876	-0.111
Mof_N 	N 	0.22507	0.89163	0.18653	-0.162
Mof_C 	C 	0.18677	0.72913	0.32943	0.095
Mof_H 	H 	0.14687	0.70923	0.32883	-0.023
Mof_C 	C 	0.21467	0.69793	0.32983	-0.159
Mof_H 	H 	0.19377	0.65803	0.32933	0.088
Mof_C 	C 	0.25487	0.92963	0.12093	-0.089
Mof_N 	N 	0.89173	0.22497	0.51987	-0.152
Mof_C 	C 	0.85343	0.06247	0.66277	0.115
Mof_H 	H 	0.81353	0.04257	0.66217	-0.028
Mof_C 	C 	0.88133	0.03127	0.66317	-0.193
Mof_H 	H 	0.86043	0.99137	0.66267	0.114
Mof_C 	C 	0.92153	0.26297	0.45427	-0.124
Mof_N 	N 	0.5584	0.0001	0.8532	-0.134
Mof_C 	C 	0.5201	0.1243	0.9961	0.095
Mof_H 	H 	0.4802	0.1043	0.9955	-0.003
Mof_C 	C 	0.548	0.1834	0.9965	-0.15
Mof_H 	H 	0.5271	0.2024	0.996	0.092
Mof_C 	C 	0.5882	0.9919	0.7876	-0.093
Mof_N 	N 	0.22507	0.33343	0.18653	-0.159
Mof_C 	C 	0.18677	0.45763	0.32943	0.095
Mof_H 	H 	0.14687	0.43763	0.32883	-0.023
Mof_C 	C 	0.21467	0.51673	0.32983	-0.159
Mof_H 	H 	0.19377	0.53573	0.32933	0.088
Mof_C 	C 	0.25487	0.32523	0.12093	-0.108
Mof_N 	N 	0.89173	0.66677	0.51987	-0.152
Mof_C 	C 	0.85343	0.79097	0.66277	0.092
Mof_H 	H 	0.81353	0.77097	0.66217	-0.016
Mof_C 	C 	0.88133	0.85007	0.66317	-0.145
Mof_H 	H 	0.86043	0.86907	0.66267	0.088
Mof_C 	C 	0.92153	0.65857	0.45427	-0.124
Mof_N 	N 	0.9999	0.5583	0.8532	-0.108
Mof_C 	C 	0.8757	0.3958	0.9961	0.096
Mof_H 	H 	0.8957	0.3759	0.9955	-0.001
Mof_C 	C 	0.8166	0.3646	0.9965	-0.149
Mof_H 	H 	0.7976	0.3247	0.996	0.092
Mof_C 	C 	0.0081	0.5963	0.7876	-0.125
Mof_N 	N 	0.66657	0.89163	0.18653	-0.162
Mof_C 	C 	0.54237	0.72913	0.32943	0.095
Mof_H 	H 	0.56237	0.70923	0.32883	-0.022
Mof_C 	C 	0.48327	0.69793	0.32983	-0.159
Mof_H 	H 	0.46427	0.65803	0.32933	0.088
Mof_C 	C 	0.67477	0.92963	0.12093	-0.089
Mof_N 	N 	0.33323	0.22497	0.51987	-0.153
Mof_C 	C 	0.20903	0.06247	0.66277	0.122
Mof_H 	H 	0.22903	0.04257	0.66217	-0.031
Mof_C 	C 	0.14993	0.03127	0.66317	-0.206
Mof_H 	H 	0.13093	0.99137	0.66267	0.118
Mof_C 	C 	0.34143	0.26297	0.45427	-0.126
Mof_N 	N 	0.4417	0.4416	0.8532	-0.122
Mof_C 	C 	0.6042	0.4799	0.9961	0.096
Mof_H 	H 	0.6241	0.5198	0.9955	-0.003
Mof_C 	C 	0.6354	0.452	0.9965	-0.151
Mof_H 	H 	0.6753	0.4729	0.996	0.092
Mof_C 	C 	0.4037	0.4118	0.7876	-0.111
Mof_N 	N 	0.10837	0.77493	0.18653	-0.159
Mof_C 	C 	0.27087	0.81323	0.32943	0.095
Mof_H 	H 	0.29077	0.85313	0.32883	-0.021
Mof_C 	C 	0.30207	0.78533	0.32983	-0.158
Mof_H 	H 	0.34197	0.80623	0.32933	0.089
Mof_C 	C 	0.07037	0.74513	0.12093	-0.107
Mof_N 	N 	0.77503	0.10827	0.51987	-0.153
Mof_C 	C 	0.93753	0.14657	0.66277	0.09
Mof_H 	H 	0.95743	0.18647	0.66217	-0.013
Mof_C 	C 	0.96873	0.11867	0.66317	-0.136
Mof_H 	H 	0.00863	0.13957	0.66267	0.077
Mof_C 	C 	0.73703	0.07847	0.45427	-0.129
Mof_N 	N 	0.0001	0.5584	0.1468	-0.163
Mof_C 	C 	0.1243	0.5201	0.0039	0.082
Mof_H 	H 	0.1043	0.4802	0.0045	-0.03
Mof_C 	C 	0.1834	0.548	0.0035	-0.16
Mof_H 	H 	0.2024	0.5271	0.004	0.078
Mof_C 	C 	0.9919	0.5882	0.2124	-0.118
Mof_N 	N 	0.66677	0.89173	0.48013	-0.146
Mof_C 	C 	0.79097	0.85343	0.33723	0.08
Mof_H 	H 	0.77097	0.81353	0.33783	-0.019
Mof_C 	C 	0.85007	0.88133	0.33683	-0.142
Mof_H 	H 	0.86907	0.86043	0.33733	0.076
Mof_C 	C 	0.65857	0.92153	0.54573	-0.117
Mof_N 	N 	0.33343	0.22507	0.81347	-0.162
Mof_C 	C 	0.45763	0.18677	0.67057	0.092
Mof_H 	H 	0.43763	0.14687	0.67117	-0.024
Mof_C 	C 	0.51673	0.21467	0.67017	-0.161
Mof_H 	H 	0.53573	0.19377	0.67067	0.083
Mof_C 	C 	0.32523	0.25487	0.87907	-0.048
Mof_N 	N 	0.5583	0.9999	0.1468	-0.134
Mof_C 	C 	0.3958	0.8757	0.0039	0.082
Mof_H 	H 	0.3759	0.8957	0.0045	-0.026
Mof_C 	C 	0.3646	0.8166	0.0035	-0.159
Mof_H 	H 	0.3247	0.7976	0.004	0.078
Mof_C 	C 	0.5963	0.0081	0.2124	-0.152
Mof_N 	N 	0.22497	0.33323	0.48013	-0.147
Mof_C 	C 	0.06247	0.20903	0.33723	0.107
Mof_H 	H 	0.04257	0.22903	0.33783	-0.032
Mof_C 	C 	0.03127	0.14993	0.33683	-0.197
Mof_H 	H 	0.99137	0.13093	0.33733	0.102
Mof_C 	C 	0.26297	0.34143	0.54573	-0.12
Mof_N 	N 	0.89163	0.66657	0.81347	-0.164
Mof_C 	C 	0.72913	0.54237	0.67057	0.092
Mof_H 	H 	0.70923	0.56237	0.67117	-0.022
Mof_C 	C 	0.69793	0.48327	0.67017	-0.161
Mof_H 	H 	0.65803	0.46427	0.67067	0.083
Mof_C 	C 	0.92963	0.67477	0.87907	-0.037
Mof_N 	N 	0.4416	0.4417	0.1468	-0.154
Mof_C 	C 	0.4799	0.6042	0.0039	0.083
Mof_H 	H 	0.5198	0.6241	0.0045	-0.029
Mof_C 	C 	0.452	0.6354	0.0035	-0.161
Mof_H 	H 	0.4729	0.6753	0.004	0.078
Mof_C 	C 	0.4118	0.4037	0.2124	-0.132
Mof_N 	N 	0.10827	0.77503	0.48013	-0.147
Mof_C 	C 	0.14657	0.93753	0.33723	0.072
Mof_H 	H 	0.18647	0.95743	0.33783	-0.012
Mof_C 	C 	0.11867	0.96873	0.33683	-0.12
Mof_H 	H 	0.13957	0.00863	0.33733	0.057
Mof_C 	C 	0.07847	0.73703	0.54573	-0.122
Mof_N 	N 	0.77493	0.10837	0.81347	-0.163
Mof_C 	C 	0.81323	0.27087	0.67057	0.092
Mof_H 	H 	0.85313	0.29077	0.67117	-0.021
Mof_C 	C 	0.78533	0.30207	0.67017	-0.161
Mof_H 	H 	0.80623	0.34197	0.67067	0.084
Mof_C 	C 	0.74513	0.07037	0.87907	-0.045
Mof_Ag	Ag	0.36885	0.03552	0.33333	0.391
Mof_Ag	Ag	0.96448	0.33333	0.33333	0.41
Mof_Ag	Ag	0.66667	0.63115	0.33333	0.399
Mof_Ag	Ag	0.03552	0.36885	0.66667	0.453
Mof_Ag	Ag	0.70218	0.70218	-0	0.286
Mof_Ag	Ag	0.33333	0.96448	0.66667	0.473
Mof_Ag	Ag	-0	0.29782	-0	0.264
Mof_Ag	Ag	0.63115	0.66667	0.66667	0.459
Mof_Ag	Ag	0.29782	0	-0	0.253
Mof_Ag	Ag	0.63115	0.96448	0.66667	0.473
Mof_Ag	Ag	0.29782	0.29782	-0	0.283
Mof_Ag	Ag	0.03552	0.66667	0.66667	0.452
Mof_Ag	Ag	0.70218	0	-0	0.254
Mof_Ag	Ag	0.36885	0.33333	0.33333	0.399
Mof_Ag	Ag	0.33333	0.36885	0.66667	0.459
Mof_Ag	Ag	-7.25632e-17	0.70218	-0	0.266
Mof_Ag	Ag	0.96448	0.63115	0.33333	0.41
Mof_Ag	Ag	0.66667	0.03552	0.33333	0.392
Mof_Fe	Fe	0.5	0	-0	0.503
Mof_Fe	Fe	0.16667	0.33333	0.33333	0.614
Mof_Fe	Fe	0.83333	0.66667	0.66667	0.623
Mof_Fe	Fe	-3.62816e-17	0.5	-0	0.511
Mof_Fe	Fe	0.66667	0.83333	0.33333	0.616
Mof_Fe	Fe	0.33333	0.16667	0.66667	0.621
Mof_Fe	Fe	0.5	0.5	-0	0.524
Mof_Fe	Fe	0.16667	0.83333	0.33333	0.616
Mof_Fe	Fe	0.83333	0.16667	0.66667	0.622
Mof_N 	N 	0.45275	0.9055	0.0036	-0.191
Mof_C 	C 	0.39295	0.7859	0.0022	0.066
Mof_C 	C 	0.36135	0.7227	0.0017	0.087
Mof_N 	N 	0.11942	0.23883	0.33693	-0.2
Mof_C 	C 	0.05962	0.11923	0.33553	0.087
Mof_C 	C 	0.02802	0.05603	0.33503	0.071
Mof_N 	N 	0.78608	0.57217	0.67027	-0.195
Mof_C 	C 	0.72628	0.45257	0.66887	0.072
Mof_C 	C 	0.69468	0.38937	0.66837	0.089
Mof_N 	N 	0.0945	0.54725	0.0036	-0.196
Mof_C 	C 	0.2141	0.60705	0.0022	0.066
Mof_C 	C 	0.2773	0.63865	0.0017	0.087
Mof_N 	N 	0.76117	0.88058	0.33693	-0.188
Mof_C 	C 	0.88077	0.94038	0.33553	0.046
Mof_C 	C 	0.94397	0.97198	0.33503	0.112
Mof_N 	N 	0.42783	0.21392	0.67027	-0.196
Mof_C 	C 	0.54743	0.27372	0.66887	0.072
Mof_C 	C 	0.61063	0.30532	0.66837	0.088
Mof_N 	N 	0.45275	0.54725	0.0036	-0.197
Mof_C 	C 	0.39295	0.60705	0.0022	0.067
Mof_C 	C 	0.36135	0.63865	0.0017	0.087
Mof_N 	N 	0.11942	0.88058	0.33693	-0.193
Mof_C 	C 	0.05962	0.94038	0.33553	0.063
Mof_C 	C 	0.02802	0.97198	0.33503	0.096
Mof_N 	N 	0.78608	0.21392	0.67027	-0.196
Mof_C 	C 	0.72628	0.27372	0.66887	0.072
Mof_C 	C 	0.69468	0.30532	0.66837	0.088
Mof_N 	N 	0.9055	0.45275	0.9964	-0.168
Mof_C 	C 	0.7859	0.39295	0.9978	0.077
Mof_C 	C 	0.7227	0.36135	0.9983	0.101
Mof_N 	N 	0.57217	0.78608	0.32973	-0.196
Mof_C 	C 	0.45257	0.72628	0.33113	0.078
Mof_C 	C 	0.38937	0.69468	0.33163	0.097
Mof_N 	N 	0.23883	0.11942	0.66307	-0.201
Mof_C 	C 	0.11923	0.05962	0.66447	0.104
Mof_C 	C 	0.05603	0.02802	0.66497	0.076
Mof_N 	N 	0.54725	0.0945	0.9964	-0.171
Mof_C 	C 	0.60705	0.2141	0.9978	0.077
Mof_C 	C 	0.63865	0.2773	0.9983	0.101
Mof_N 	N 	0.21392	0.42783	0.32973	-0.196
Mof_C 	C 	0.27372	0.54743	0.33113	0.078
Mof_C 	C 	0.30532	0.61063	0.33163	0.097
Mof_N 	N 	0.88058	0.76117	0.66307	-0.19
Mof_C 	C 	0.94038	0.88077	0.66447	0.063
Mof_C 	C 	0.97198	0.94397	0.66497	0.117
Mof_N 	N 	0.54725	0.45275	0.9964	-0.171
Mof_C 	C 	0.60705	0.39295	0.9978	0.078
Mof_C 	C 	0.63865	0.36135	0.9983	0.101
Mof_N 	N 	0.21392	0.78608	0.32973	-0.196
Mof_C 	C 	0.27372	0.72628	0.33113	0.078
Mof_C 	C 	0.30532	0.69468	0.33163	0.097
Mof_N 	N 	0.88058	0.11942	0.66307	-0.196
Mof_C 	C 	0.94038	0.05962	0.66447	0.086
Mof_C 	C 	0.97198	0.02802	0.66497	0.094
Mof_N 	N 	0.30397	0.69603	0.0026	-0.142
Mof_N 	N 	0.97064	0.02936	0.33593	-0.143
Mof_N 	N 	0.6373	0.3627	0.66927	-0.14
Mof_N 	N 	0.30397	0.60794	0.0026	-0.142
Mof_N 	N 	0.97064	0.94127	0.33593	-0.139
Mof_N 	N 	0.6373	0.27461	0.66927	-0.14
Mof_N 	N 	0.39206	0.69603	0.0026	-0.142
Mof_N 	N 	0.05873	0.02936	0.33593	-0.147
Mof_N 	N 	0.72539	0.3627	0.66927	-0.14
Mof_N 	N 	0.69603	0.30397	0.9974	-0.135
Mof_N 	N 	0.3627	0.6373	0.33073	-0.136
Mof_N 	N 	0.02936	0.97064	0.66407	-0.133
Mof_N 	N 	0.60794	0.30397	0.9974	-0.135
Mof_N 	N 	0.27461	0.6373	0.33073	-0.136
Mof_N 	N 	0.94127	0.97064	0.66407	-0.129
Mof_N 	N 	0.69603	0.39206	0.9974	-0.135
Mof_N 	N 	0.3627	0.72539	0.33073	-0.136
Mof_N 	N 	0.02936	0.05873	0.66407	-0.137
_end
