data_functionalizedCrystal
_audit_creation_method	'EQeq! by Chris Wilmer'
_symmetry_space_group_name_H-M	'P1'
_symmetry_Int_Tables_number	1
_symmetry_cell_setting	triclinic
loop_
_symmetry_equiv_pos_as_xyz
  x,y,z
_cell_length_a	20.1616
_cell_length_b	20.1616
_cell_length_c	20.1616
_cell_angle_alpha	90
_cell_angle_beta	90
_cell_angle_gamma	90
loop_
_atom_site_label
_atom_site_type_symbol
_atom_site_fract_x
_atom_site_fract_y
_atom_site_fract_z
_atom_site_charge
Mof_Zn	Zn	0.30416	0.80887	0.19746	1.276
Mof_Zn	Zn	0.30281	0.80382	0.80799	1.149
Mof_C 	C 	0.2098	0.7072	0.9648	0.148
Mof_H 	H 	0.1841	0.6712	0.981	-0.042
Mof_C 	C 	0.2403	0.7529	0.0029	-0.282
Mof_C 	C 	0.2361	0.7635	0.0749	0.65
Mof_C 	C 	0.2923	0.7777	0.9674	0.115
Mof_H 	H 	0.3339	0.794	0.9823	-0.032
Mof_C 	C 	0.2289	0.947	0.7091	0.473
Mof_H 	H 	0.2133	0.9505	0.6648	-0.16
Mof_C 	C 	0.248	0.0021	0.7364	-0.43
Mof_C 	C 	0.2208	0.0758	0.7313	1.091
Mof_N 	N 	0.2667	0.7725	0.9016	-0.262
Mof_N 	N 	0.2217	0.7207	0.8978	-0.298
Mof_N 	N 	0.2282	0.8984	0.7298	-0.396
Mof_N 	N 	0.2784	0.8938	0.78	-0.261
Mof_O 	O 	0.2755	0.7897	0.1071	-0.588
Mof_O 	O 	0.2042	0.7265	0.1074	-0.583
Mof_O 	O 	0.2082	0.1037	0.7019	-1.02
Mof_O 	O 	0.2187	0.1132	0.7905	-0.392
Mof_Zn	Zn	0.19584	0.19113	0.69746	1.275
Mof_Zn	Zn	0.19719	0.19618	0.30799	1.148
Mof_C 	C 	0.2902	0.2928	0.4648	0.147
Mof_H 	H 	0.3159	0.3288	0.481	-0.042
Mof_C 	C 	0.2597	0.2471	0.5029	-0.282
Mof_C 	C 	0.2639	0.2365	0.5749	0.65
Mof_C 	C 	0.2077	0.2223	0.4674	0.115
Mof_H 	H 	0.1661	0.206	0.4823	-0.032
Mof_C 	C 	0.2711	0.053	0.2091	0.472
Mof_H 	H 	0.2867	0.0495	0.1648	-0.16
Mof_C 	C 	0.252	0.9979	0.2364	-0.43
Mof_C 	C 	0.2792	0.9242	0.2313	1.091
Mof_N 	N 	0.2333	0.2275	0.4016	-0.262
Mof_N 	N 	0.2783	0.2793	0.3978	-0.298
Mof_N 	N 	0.2718	0.1016	0.2298	-0.396
Mof_N 	N 	0.2216	0.1062	0.28	-0.262
Mof_O 	O 	0.2245	0.2103	0.6071	-0.588
Mof_O 	O 	0.2958	0.2735	0.6074	-0.583
Mof_O 	O 	0.2918	0.8963	0.2019	-1.019
Mof_O 	O 	0.2813	0.8868	0.2905	-0.392
Mof_Zn	Zn	0.69584	0.30887	0.30254	1.275
Mof_Zn	Zn	0.69719	0.30382	0.69201	1.148
Mof_C 	C 	0.7902	0.2072	0.5352	0.147
Mof_H 	H 	0.8159	0.1712	0.519	-0.042
Mof_C 	C 	0.7597	0.2529	0.4971	-0.282
Mof_C 	C 	0.7639	0.2635	0.4251	0.65
Mof_C 	C 	0.7077	0.2777	0.5326	0.115
Mof_H 	H 	0.6661	0.294	0.5177	-0.032
Mof_C 	C 	0.7711	0.447	0.7909	0.472
Mof_H 	H 	0.7867	0.4505	0.8352	-0.16
Mof_C 	C 	0.752	0.5021	0.7636	-0.43
Mof_C 	C 	0.7792	0.5758	0.7687	1.091
Mof_N 	N 	0.7333	0.2725	0.5984	-0.262
Mof_N 	N 	0.7783	0.2207	0.6022	-0.298
Mof_N 	N 	0.7718	0.3984	0.7702	-0.396
Mof_N 	N 	0.7216	0.3938	0.72	-0.261
Mof_O 	O 	0.7245	0.2897	0.3929	-0.588
Mof_O 	O 	0.7958	0.2265	0.3926	-0.583
Mof_O 	O 	0.7918	0.6037	0.7981	-1.019
Mof_O 	O 	0.7813	0.6132	0.7095	-0.392
Mof_Zn	Zn	0.80416	0.69113	0.80254	1.275
Mof_Zn	Zn	0.80281	0.69618	0.19201	1.148
Mof_C 	C 	0.7098	0.7928	0.0352	0.148
Mof_H 	H 	0.6841	0.8288	0.019	-0.042
Mof_C 	C 	0.7403	0.7471	0.9971	-0.282
Mof_C 	C 	0.7361	0.7365	0.9251	0.65
Mof_C 	C 	0.7923	0.7223	0.0326	0.116
Mof_H 	H 	0.8339	0.706	0.0177	-0.032
Mof_C 	C 	0.7289	0.553	0.2909	0.472
Mof_H 	H 	0.7133	0.5495	0.3352	-0.16
Mof_C 	C 	0.748	0.4979	0.2636	-0.43
Mof_C 	C 	0.7208	0.4242	0.2687	1.091
Mof_N 	N 	0.7667	0.7275	0.0984	-0.262
Mof_N 	N 	0.7217	0.7793	0.1022	-0.298
Mof_N 	N 	0.7282	0.6016	0.2702	-0.396
Mof_N 	N 	0.7784	0.6062	0.22	-0.261
Mof_O 	O 	0.7755	0.7103	0.8929	-0.588
Mof_O 	O 	0.7042	0.7735	0.8926	-0.583
Mof_O 	O 	0.7082	0.3963	0.2981	-1.019
Mof_O 	O 	0.7187	0.3868	0.2095	-0.392
Mof_Zn	Zn	0.19746	0.30416	0.80887	1.275
Mof_Zn	Zn	0.80799	0.30281	0.80382	1.148
Mof_C 	C 	0.9648	0.2098	0.7072	0.148
Mof_H 	H 	0.981	0.1841	0.6712	-0.042
Mof_C 	C 	0.0029	0.2403	0.7529	-0.282
Mof_C 	C 	0.0749	0.2361	0.7635	0.65
Mof_C 	C 	0.9674	0.2923	0.7777	0.115
Mof_H 	H 	0.9823	0.3339	0.794	-0.032
Mof_C 	C 	0.7091	0.2289	0.947	0.473
Mof_H 	H 	0.6648	0.2133	0.9505	-0.16
Mof_C 	C 	0.7364	0.248	0.0021	-0.43
Mof_C 	C 	0.7313	0.2208	0.0758	1.091
Mof_N 	N 	0.9016	0.2667	0.7725	-0.262
Mof_N 	N 	0.8978	0.2217	0.7207	-0.298
Mof_N 	N 	0.7298	0.2282	0.8984	-0.396
Mof_N 	N 	0.78	0.2784	0.8938	-0.261
Mof_O 	O 	0.1071	0.2755	0.7897	-0.588
Mof_O 	O 	0.1074	0.2042	0.7265	-0.583
Mof_O 	O 	0.7019	0.2082	0.1037	-1.02
Mof_O 	O 	0.7905	0.2187	0.1132	-0.392
Mof_Zn	Zn	0.69746	0.19584	0.19113	1.275
Mof_Zn	Zn	0.30799	0.19719	0.19618	1.148
Mof_C 	C 	0.4648	0.2902	0.2928	0.147
Mof_H 	H 	0.481	0.3159	0.3288	-0.042
Mof_C 	C 	0.5029	0.2597	0.2471	-0.282
Mof_C 	C 	0.5749	0.2639	0.2365	0.65
Mof_C 	C 	0.4674	0.2077	0.2223	0.115
Mof_H 	H 	0.4823	0.1661	0.206	-0.032
Mof_C 	C 	0.2091	0.2711	0.053	0.472
Mof_H 	H 	0.1648	0.2867	0.0495	-0.16
Mof_C 	C 	0.2364	0.252	0.9979	-0.43
Mof_C 	C 	0.2313	0.2792	0.9242	1.091
Mof_N 	N 	0.4016	0.2333	0.2275	-0.262
Mof_N 	N 	0.3978	0.2783	0.2793	-0.298
Mof_N 	N 	0.2298	0.2718	0.1016	-0.396
Mof_N 	N 	0.28	0.2216	0.1062	-0.262
Mof_O 	O 	0.6071	0.2245	0.2103	-0.588
Mof_O 	O 	0.6074	0.2958	0.2735	-0.583
Mof_O 	O 	0.2019	0.2918	0.8963	-1.019
Mof_O 	O 	0.2905	0.2813	0.8868	-0.392
Mof_Zn	Zn	0.30254	0.69584	0.30887	1.275
Mof_Zn	Zn	0.69201	0.69719	0.30382	1.148
Mof_C 	C 	0.5352	0.7902	0.2072	0.147
Mof_H 	H 	0.519	0.8159	0.1712	-0.042
Mof_C 	C 	0.4971	0.7597	0.2529	-0.282
Mof_C 	C 	0.4251	0.7639	0.2635	0.65
Mof_C 	C 	0.5326	0.7077	0.2777	0.115
Mof_H 	H 	0.5177	0.6661	0.294	-0.032
Mof_C 	C 	0.7909	0.7711	0.447	0.472
Mof_H 	H 	0.8352	0.7867	0.4505	-0.16
Mof_C 	C 	0.7636	0.752	0.5021	-0.43
Mof_C 	C 	0.7687	0.7792	0.5758	1.091
Mof_N 	N 	0.5984	0.7333	0.2725	-0.262
Mof_N 	N 	0.6022	0.7783	0.2207	-0.298
Mof_N 	N 	0.7702	0.7718	0.3984	-0.396
Mof_N 	N 	0.72	0.7216	0.3938	-0.261
Mof_O 	O 	0.3929	0.7245	0.2897	-0.588
Mof_O 	O 	0.3926	0.7958	0.2265	-0.583
Mof_O 	O 	0.7981	0.7918	0.6037	-1.019
Mof_O 	O 	0.7095	0.7813	0.6132	-0.392
Mof_Zn	Zn	0.80254	0.80416	0.69113	1.275
Mof_Zn	Zn	0.19201	0.80281	0.69618	1.148
Mof_C 	C 	0.0352	0.7098	0.7928	0.148
Mof_H 	H 	0.019	0.6841	0.8288	-0.042
Mof_C 	C 	0.9971	0.7403	0.7471	-0.282
Mof_C 	C 	0.9251	0.7361	0.7365	0.65
Mof_C 	C 	0.0326	0.7923	0.7223	0.116
Mof_H 	H 	0.0177	0.8339	0.706	-0.032
Mof_C 	C 	0.2909	0.7289	0.553	0.472
Mof_H 	H 	0.3352	0.7133	0.5495	-0.16
Mof_C 	C 	0.2636	0.748	0.4979	-0.43
Mof_C 	C 	0.2687	0.7208	0.4242	1.091
Mof_N 	N 	0.0984	0.7667	0.7275	-0.262
Mof_N 	N 	0.1022	0.7217	0.7793	-0.298
Mof_N 	N 	0.2702	0.7282	0.6016	-0.396
Mof_N 	N 	0.22	0.7784	0.6062	-0.261
Mof_O 	O 	0.8929	0.7755	0.7103	-0.588
Mof_O 	O 	0.8926	0.7042	0.7735	-0.583
Mof_O 	O 	0.2981	0.7082	0.3963	-1.019
Mof_O 	O 	0.2095	0.7187	0.3868	-0.392
Mof_Zn	Zn	0.80887	0.19746	0.30416	1.275
Mof_Zn	Zn	0.80382	0.80799	0.30281	1.148
Mof_C 	C 	0.7072	0.9648	0.2098	0.148
Mof_H 	H 	0.6712	0.981	0.1841	-0.042
Mof_C 	C 	0.7529	0.0029	0.2403	-0.282
Mof_C 	C 	0.7635	0.0749	0.2361	0.65
Mof_C 	C 	0.7777	0.9674	0.2923	0.115
Mof_H 	H 	0.794	0.9823	0.3339	-0.032
Mof_C 	C 	0.947	0.7091	0.2289	0.473
Mof_H 	H 	0.9505	0.6648	0.2133	-0.16
Mof_C 	C 	0.0021	0.7364	0.248	-0.43
Mof_C 	C 	0.0758	0.7313	0.2208	1.091
Mof_N 	N 	0.7725	0.9016	0.2667	-0.262
Mof_N 	N 	0.7207	0.8978	0.2217	-0.298
Mof_N 	N 	0.8984	0.7298	0.2282	-0.396
Mof_N 	N 	0.8938	0.78	0.2784	-0.261
Mof_O 	O 	0.7897	0.1071	0.2755	-0.588
Mof_O 	O 	0.7265	0.1074	0.2042	-0.583
Mof_O 	O 	0.1037	0.7019	0.2082	-1.02
Mof_O 	O 	0.1132	0.7905	0.2187	-0.392
Mof_Zn	Zn	0.19113	0.69746	0.19584	1.275
Mof_Zn	Zn	0.19618	0.30799	0.19719	1.148
Mof_C 	C 	0.2928	0.4648	0.2902	0.147
Mof_H 	H 	0.3288	0.481	0.3159	-0.042
Mof_C 	C 	0.2471	0.5029	0.2597	-0.282
Mof_C 	C 	0.2365	0.5749	0.2639	0.65
Mof_C 	C 	0.2223	0.4674	0.2077	0.115
Mof_H 	H 	0.206	0.4823	0.1661	-0.032
Mof_C 	C 	0.053	0.2091	0.2711	0.472
Mof_H 	H 	0.0495	0.1648	0.2867	-0.16
Mof_C 	C 	0.9979	0.2364	0.252	-0.43
Mof_C 	C 	0.9242	0.2313	0.2792	1.091
Mof_N 	N 	0.2275	0.4016	0.2333	-0.262
Mof_N 	N 	0.2793	0.3978	0.2783	-0.298
Mof_N 	N 	0.1016	0.2298	0.2718	-0.396
Mof_N 	N 	0.1062	0.28	0.2216	-0.262
Mof_O 	O 	0.2103	0.6071	0.2245	-0.588
Mof_O 	O 	0.2735	0.6074	0.2958	-0.583
Mof_O 	O 	0.8963	0.2019	0.2918	-1.019
Mof_O 	O 	0.8868	0.2905	0.2813	-0.392
Mof_Zn	Zn	0.30887	0.30254	0.69584	1.275
Mof_Zn	Zn	0.30382	0.69201	0.69719	1.148
Mof_C 	C 	0.2072	0.5352	0.7902	0.147
Mof_H 	H 	0.1712	0.519	0.8159	-0.042
Mof_C 	C 	0.2529	0.4971	0.7597	-0.282
Mof_C 	C 	0.2635	0.4251	0.7639	0.65
Mof_C 	C 	0.2777	0.5326	0.7077	0.115
Mof_H 	H 	0.294	0.5177	0.6661	-0.032
Mof_C 	C 	0.447	0.7909	0.7711	0.472
Mof_H 	H 	0.4505	0.8352	0.7867	-0.16
Mof_C 	C 	0.5021	0.7636	0.752	-0.43
Mof_C 	C 	0.5758	0.7687	0.7792	1.091
Mof_N 	N 	0.2725	0.5984	0.7333	-0.262
Mof_N 	N 	0.2207	0.6022	0.7783	-0.298
Mof_N 	N 	0.3984	0.7702	0.7718	-0.396
Mof_N 	N 	0.3938	0.72	0.7216	-0.261
Mof_O 	O 	0.2897	0.3929	0.7245	-0.588
Mof_O 	O 	0.2265	0.3926	0.7958	-0.583
Mof_O 	O 	0.6037	0.7981	0.7918	-1.019
Mof_O 	O 	0.6132	0.7095	0.7813	-0.392
Mof_Zn	Zn	0.69113	0.80254	0.80416	1.275
Mof_Zn	Zn	0.69618	0.19201	0.80281	1.148
Mof_C 	C 	0.7928	0.0352	0.7098	0.148
Mof_H 	H 	0.8288	0.019	0.6841	-0.042
Mof_C 	C 	0.7471	0.9971	0.7403	-0.282
Mof_C 	C 	0.7365	0.9251	0.7361	0.65
Mof_C 	C 	0.7223	0.0326	0.7923	0.116
Mof_H 	H 	0.706	0.0177	0.8339	-0.032
Mof_C 	C 	0.553	0.2909	0.7289	0.472
Mof_H 	H 	0.5495	0.3352	0.7133	-0.16
Mof_C 	C 	0.4979	0.2636	0.748	-0.43
Mof_C 	C 	0.4242	0.2687	0.7208	1.091
Mof_N 	N 	0.7275	0.0984	0.7667	-0.262
Mof_N 	N 	0.7793	0.1022	0.7217	-0.298
Mof_N 	N 	0.6016	0.2702	0.7282	-0.396
Mof_N 	N 	0.6062	0.22	0.7784	-0.261
Mof_O 	O 	0.7103	0.8929	0.7755	-0.588
Mof_O 	O 	0.7735	0.8926	0.7042	-0.583
Mof_O 	O 	0.3963	0.2981	0.7082	-1.019
Mof_O 	O 	0.3868	0.2095	0.7187	-0.392
Mof_Zn	Zn	0.18975	0.68975	0.81025	1.154
Mof_O 	O 	0.247	0.747	0.753	-0.983
Mof_Zn	Zn	0.31025	0.31025	0.31025	1.154
Mof_O 	O 	0.253	0.253	0.253	-0.983
Mof_Zn	Zn	0.81025	0.18975	0.68975	1.154
Mof_O 	O 	0.753	0.247	0.747	-0.983
Mof_Zn	Zn	0.68975	0.81025	0.18975	1.154
Mof_O 	O 	0.747	0.753	0.247	-0.983
Mof_O 	O 	0.245	0.755	0.255	-0.632
Mof_O 	O 	0.255	0.245	0.755	-0.632
Mof_O 	O 	0.755	0.255	0.245	-0.632
Mof_O 	O 	0.745	0.745	0.745	-0.632
_end
