data_functionalizedCrystal
_audit_creation_method	'EQeq! by Chris Wilmer'
_symmetry_space_group_name_H-M	'P1'
_symmetry_Int_Tables_number	1
_symmetry_cell_setting	triclinic
loop_
_symmetry_equiv_pos_as_xyz
  x,y,z
_cell_length_a	31.1089
_cell_length_b	31.1089
_cell_length_c	31.1089
_cell_angle_alpha	90
_cell_angle_beta	90
_cell_angle_gamma	90
loop_
_atom_site_label
_atom_site_type_symbol
_atom_site_fract_x
_atom_site_fract_y
_atom_site_fract_z
_atom_site_charge
Mof_C 	C 	0.1002	0.1543	0.3176	-0.036
Mof_H 	H 	0.0855	0.1761	0.3316	0.061
Mof_C 	C 	0.0904	0.145	0.2747	-0.074
Mof_C 	C 	0.0572	0.1697	0.2509	0.343
Mof_O 	O 	0.04406	0.15394	0.21601	-0.412
Mof_O 	O 	0.04437	0.20456	0.26769	-0.396
Mof_C 	C 	0.6002	0.6543	0.8176	-0.037
Mof_H 	H 	0.5855	0.6761	0.8316	0.066
Mof_C 	C 	0.5904	0.645	0.7747	-0.068
Mof_C 	C 	0.5572	0.6697	0.7509	0.343
Mof_O 	O 	0.54406	0.65394	0.71601	-0.403
Mof_O 	O 	0.54437	0.70456	0.76769	-0.39
Mof_C 	C 	0.8998	0.8457	0.3176	-0.042
Mof_H 	H 	0.9145	0.8239	0.3316	0.07
Mof_C 	C 	0.9096	0.855	0.2747	-0.059
Mof_C 	C 	0.9428	0.8303	0.2509	0.34
Mof_O 	O 	0.95594	0.84606	0.21601	-0.388
Mof_O 	O 	0.95563	0.79544	0.26769	-0.377
Mof_C 	C 	0.3998	0.3457	0.8176	-0.036
Mof_H 	H 	0.4145	0.3239	0.8316	0.067
Mof_C 	C 	0.4096	0.355	0.7747	-0.067
Mof_C 	C 	0.4428	0.3303	0.7509	0.344
Mof_O 	O 	0.45594	0.34606	0.71601	-0.402
Mof_O 	O 	0.45563	0.29544	0.76769	-0.389
Mof_C 	C 	0.8998	0.1543	0.6824	-0.039
Mof_H 	H 	0.9145	0.1761	0.6684	0.07
Mof_C 	C 	0.9096	0.145	0.7253	-0.063
Mof_C 	C 	0.9428	0.1697	0.7491	0.341
Mof_O 	O 	0.95594	0.15394	0.78399	-0.391
Mof_O 	O 	0.95563	0.20456	0.73231	-0.378
Mof_C 	C 	0.3998	0.6543	0.1824	-0.035
Mof_H 	H 	0.4145	0.6761	0.1684	0.065
Mof_C 	C 	0.4096	0.645	0.2253	-0.068
Mof_C 	C 	0.4428	0.6697	0.2491	0.344
Mof_O 	O 	0.45594	0.65394	0.28399	-0.403
Mof_O 	O 	0.45563	0.70456	0.23231	-0.39
Mof_C 	C 	0.1002	0.8457	0.6824	-0.039
Mof_H 	H 	0.0855	0.8239	0.6684	0.065
Mof_C 	C 	0.0904	0.855	0.7253	-0.067
Mof_C 	C 	0.0572	0.8303	0.7491	0.342
Mof_O 	O 	0.04406	0.84606	0.78399	-0.406
Mof_O 	O 	0.04437	0.79544	0.73231	-0.394
Mof_C 	C 	0.6002	0.3457	0.1824	-0.035
Mof_H 	H 	0.5855	0.3239	0.1684	0.065
Mof_C 	C 	0.5904	0.355	0.2253	-0.068
Mof_C 	C 	0.5572	0.3303	0.2491	0.344
Mof_O 	O 	0.54406	0.34606	0.28399	-0.402
Mof_O 	O 	0.54437	0.29544	0.23231	-0.39
Mof_C 	C 	0.3176	0.1002	0.1543	-0.035
Mof_H 	H 	0.3316	0.0855	0.1761	0.062
Mof_C 	C 	0.2747	0.0904	0.145	-0.073
Mof_C 	C 	0.2509	0.0572	0.1697	0.344
Mof_O 	O 	0.21601	0.04406	0.15394	-0.411
Mof_O 	O 	0.26769	0.04437	0.20456	-0.395
Mof_C 	C 	0.8176	0.6002	0.6543	-0.036
Mof_H 	H 	0.8316	0.5855	0.6761	0.067
Mof_C 	C 	0.7747	0.5904	0.645	-0.067
Mof_C 	C 	0.7509	0.5572	0.6697	0.344
Mof_O 	O 	0.71601	0.54406	0.65394	-0.402
Mof_O 	O 	0.76769	0.54437	0.70456	-0.389
Mof_C 	C 	0.3176	0.8998	0.8457	-0.041
Mof_H 	H 	0.3316	0.9145	0.8239	0.071
Mof_C 	C 	0.2747	0.9096	0.855	-0.058
Mof_C 	C 	0.2509	0.9428	0.8303	0.34
Mof_O 	O 	0.21601	0.95594	0.84606	-0.388
Mof_O 	O 	0.26769	0.95563	0.79544	-0.377
Mof_C 	C 	0.8176	0.3998	0.3457	-0.036
Mof_H 	H 	0.8316	0.4145	0.3239	0.067
Mof_C 	C 	0.7747	0.4096	0.355	-0.067
Mof_C 	C 	0.7509	0.4428	0.3303	0.344
Mof_O 	O 	0.71601	0.45594	0.34606	-0.402
Mof_O 	O 	0.76769	0.45563	0.29544	-0.389
Mof_C 	C 	0.6824	0.8998	0.1543	-0.039
Mof_H 	H 	0.6684	0.9145	0.1761	0.07
Mof_C 	C 	0.7253	0.9096	0.145	-0.063
Mof_C 	C 	0.7491	0.9428	0.1697	0.341
Mof_O 	O 	0.78399	0.95594	0.15394	-0.391
Mof_O 	O 	0.73231	0.95563	0.20456	-0.378
Mof_C 	C 	0.1824	0.3998	0.6543	-0.035
Mof_H 	H 	0.1684	0.4145	0.6761	0.065
Mof_C 	C 	0.2253	0.4096	0.645	-0.068
Mof_C 	C 	0.2491	0.4428	0.6697	0.344
Mof_O 	O 	0.28399	0.45594	0.65394	-0.403
Mof_O 	O 	0.23231	0.45563	0.70456	-0.39
Mof_C 	C 	0.6824	0.1002	0.8457	-0.039
Mof_H 	H 	0.6684	0.0855	0.8239	0.065
Mof_C 	C 	0.7253	0.0904	0.855	-0.067
Mof_C 	C 	0.7491	0.0572	0.8303	0.342
Mof_O 	O 	0.78399	0.04406	0.84606	-0.406
Mof_O 	O 	0.73231	0.04437	0.79544	-0.394
Mof_C 	C 	0.1824	0.6002	0.3457	-0.035
Mof_H 	H 	0.1684	0.5855	0.3239	0.065
Mof_C 	C 	0.2253	0.5904	0.355	-0.068
Mof_C 	C 	0.2491	0.5572	0.3303	0.344
Mof_O 	O 	0.28399	0.54406	0.34606	-0.402
Mof_O 	O 	0.23231	0.54437	0.29544	-0.39
Mof_C 	C 	0.1543	0.3176	0.1002	-0.035
Mof_H 	H 	0.1761	0.3316	0.0855	0.062
Mof_C 	C 	0.145	0.2747	0.0904	-0.073
Mof_C 	C 	0.1697	0.2509	0.0572	0.344
Mof_O 	O 	0.15394	0.21601	0.04406	-0.411
Mof_O 	O 	0.20456	0.26769	0.04437	-0.395
Mof_C 	C 	0.6543	0.8176	0.6002	-0.036
Mof_H 	H 	0.6761	0.8316	0.5855	0.067
Mof_C 	C 	0.645	0.7747	0.5904	-0.067
Mof_C 	C 	0.6697	0.7509	0.5572	0.344
Mof_O 	O 	0.65394	0.71601	0.54406	-0.402
Mof_O 	O 	0.70456	0.76769	0.54437	-0.389
Mof_C 	C 	0.8457	0.3176	0.8998	-0.041
Mof_H 	H 	0.8239	0.3316	0.9145	0.071
Mof_C 	C 	0.855	0.2747	0.9096	-0.058
Mof_C 	C 	0.8303	0.2509	0.9428	0.34
Mof_O 	O 	0.84606	0.21601	0.95594	-0.388
Mof_O 	O 	0.79544	0.26769	0.95563	-0.377
Mof_C 	C 	0.3457	0.8176	0.3998	-0.036
Mof_H 	H 	0.3239	0.8316	0.4145	0.067
Mof_C 	C 	0.355	0.7747	0.4096	-0.067
Mof_C 	C 	0.3303	0.7509	0.4428	0.344
Mof_O 	O 	0.34606	0.71601	0.45594	-0.402
Mof_O 	O 	0.29544	0.76769	0.45563	-0.389
Mof_C 	C 	0.1543	0.6824	0.8998	-0.039
Mof_H 	H 	0.1761	0.6684	0.9145	0.07
Mof_C 	C 	0.145	0.7253	0.9096	-0.063
Mof_C 	C 	0.1697	0.7491	0.9428	0.341
Mof_O 	O 	0.15394	0.78399	0.95594	-0.391
Mof_O 	O 	0.20456	0.73231	0.95563	-0.378
Mof_C 	C 	0.6543	0.1824	0.3998	-0.035
Mof_H 	H 	0.6761	0.1684	0.4145	0.065
Mof_C 	C 	0.645	0.2253	0.4096	-0.068
Mof_C 	C 	0.6697	0.2491	0.4428	0.344
Mof_O 	O 	0.65394	0.28399	0.45594	-0.403
Mof_O 	O 	0.70456	0.23231	0.45563	-0.39
Mof_C 	C 	0.8457	0.6824	0.1002	-0.039
Mof_H 	H 	0.8239	0.6684	0.0855	0.065
Mof_C 	C 	0.855	0.7253	0.0904	-0.067
Mof_C 	C 	0.8303	0.7491	0.0572	0.342
Mof_O 	O 	0.84606	0.78399	0.04406	-0.406
Mof_O 	O 	0.79544	0.73231	0.04437	-0.394
Mof_C 	C 	0.3457	0.1824	0.6002	-0.035
Mof_H 	H 	0.3239	0.1684	0.5855	0.065
Mof_C 	C 	0.355	0.2253	0.5904	-0.068
Mof_C 	C 	0.3303	0.2491	0.5572	0.344
Mof_O 	O 	0.34606	0.28399	0.54406	-0.402
Mof_O 	O 	0.29544	0.23231	0.54437	-0.39
Mof_C 	C 	0.1543	0.1002	0.6824	-0.036
Mof_H 	H 	0.1761	0.0855	0.6684	0.063
Mof_C 	C 	0.145	0.0904	0.7253	-0.072
Mof_C 	C 	0.1697	0.0572	0.7491	0.344
Mof_O 	O 	0.15394	0.04406	0.78399	-0.41
Mof_O 	O 	0.20456	0.04437	0.73231	-0.395
Mof_C 	C 	0.6543	0.6002	0.1824	-0.036
Mof_H 	H 	0.6761	0.5855	0.1684	0.065
Mof_C 	C 	0.645	0.5904	0.2253	-0.068
Mof_C 	C 	0.6697	0.5572	0.2491	0.344
Mof_O 	O 	0.65394	0.54406	0.28399	-0.403
Mof_O 	O 	0.70456	0.54437	0.23231	-0.39
Mof_C 	C 	0.8457	0.8998	0.6824	-0.042
Mof_H 	H 	0.8239	0.9145	0.6684	0.072
Mof_C 	C 	0.855	0.9096	0.7253	-0.057
Mof_C 	C 	0.8303	0.9428	0.7491	0.34
Mof_O 	O 	0.84606	0.95594	0.78399	-0.387
Mof_O 	O 	0.79544	0.95563	0.73231	-0.377
Mof_C 	C 	0.3457	0.3998	0.1824	-0.035
Mof_H 	H 	0.3239	0.4145	0.1684	0.065
Mof_C 	C 	0.355	0.4096	0.2253	-0.068
Mof_C 	C 	0.3303	0.4428	0.2491	0.344
Mof_O 	O 	0.34606	0.45594	0.28399	-0.402
Mof_O 	O 	0.29544	0.45563	0.23231	-0.39
Mof_C 	C 	0.1543	0.8998	0.3176	-0.038
Mof_H 	H 	0.1761	0.9145	0.3316	0.069
Mof_C 	C 	0.145	0.9096	0.2747	-0.064
Mof_C 	C 	0.1697	0.9428	0.2509	0.342
Mof_O 	O 	0.15394	0.95594	0.21601	-0.392
Mof_O 	O 	0.20456	0.95563	0.26769	-0.378
Mof_C 	C 	0.6543	0.3998	0.8176	-0.036
Mof_H 	H 	0.6761	0.4145	0.8316	0.067
Mof_C 	C 	0.645	0.4096	0.7747	-0.067
Mof_C 	C 	0.6697	0.4428	0.7509	0.344
Mof_O 	O 	0.65394	0.45594	0.71601	-0.402
Mof_O 	O 	0.70456	0.45563	0.76769	-0.389
Mof_C 	C 	0.8457	0.1002	0.3176	-0.038
Mof_H 	H 	0.8239	0.0855	0.3316	0.064
Mof_C 	C 	0.855	0.0904	0.2747	-0.068
Mof_C 	C 	0.8303	0.0572	0.2509	0.343
Mof_O 	O 	0.84606	0.04406	0.21601	-0.407
Mof_O 	O 	0.79544	0.04437	0.26769	-0.394
Mof_C 	C 	0.3457	0.6002	0.8176	-0.036
Mof_H 	H 	0.3239	0.5855	0.8316	0.067
Mof_C 	C 	0.355	0.5904	0.7747	-0.067
Mof_C 	C 	0.3303	0.5572	0.7509	0.344
Mof_O 	O 	0.34606	0.54406	0.71601	-0.402
Mof_O 	O 	0.29544	0.54437	0.76769	-0.389
Mof_C 	C 	0.1002	0.3176	0.8457	-0.038
Mof_H 	H 	0.0855	0.3316	0.8239	0.064
Mof_C 	C 	0.0904	0.2747	0.855	-0.068
Mof_C 	C 	0.0572	0.2509	0.8303	0.343
Mof_O 	O 	0.04406	0.21601	0.84606	-0.407
Mof_O 	O 	0.04437	0.26769	0.79544	-0.394
Mof_C 	C 	0.6002	0.8176	0.3457	-0.036
Mof_H 	H 	0.5855	0.8316	0.3239	0.067
Mof_C 	C 	0.5904	0.7747	0.355	-0.067
Mof_C 	C 	0.5572	0.7509	0.3303	0.344
Mof_O 	O 	0.54406	0.71601	0.34606	-0.402
Mof_O 	O 	0.54437	0.76769	0.29544	-0.389
Mof_C 	C 	0.8998	0.3176	0.1543	-0.038
Mof_H 	H 	0.9145	0.3316	0.1761	0.069
Mof_C 	C 	0.9096	0.2747	0.145	-0.064
Mof_C 	C 	0.9428	0.2509	0.1697	0.342
Mof_O 	O 	0.95594	0.21601	0.15394	-0.392
Mof_O 	O 	0.95563	0.26769	0.20456	-0.378
Mof_C 	C 	0.3998	0.8176	0.6543	-0.036
Mof_H 	H 	0.4145	0.8316	0.6761	0.067
Mof_C 	C 	0.4096	0.7747	0.645	-0.067
Mof_C 	C 	0.4428	0.7509	0.6697	0.344
Mof_O 	O 	0.45594	0.71601	0.65394	-0.402
Mof_O 	O 	0.45563	0.76769	0.70456	-0.389
Mof_C 	C 	0.8998	0.6824	0.8457	-0.042
Mof_H 	H 	0.9145	0.6684	0.8239	0.072
Mof_C 	C 	0.9096	0.7253	0.855	-0.057
Mof_C 	C 	0.9428	0.7491	0.8303	0.34
Mof_O 	O 	0.95594	0.78399	0.84606	-0.387
Mof_O 	O 	0.95563	0.73231	0.79544	-0.377
Mof_C 	C 	0.3998	0.1824	0.3457	-0.035
Mof_H 	H 	0.4145	0.1684	0.3239	0.065
Mof_C 	C 	0.4096	0.2253	0.355	-0.068
Mof_C 	C 	0.4428	0.2491	0.3303	0.344
Mof_O 	O 	0.45594	0.28399	0.34606	-0.402
Mof_O 	O 	0.45563	0.23231	0.29544	-0.39
Mof_C 	C 	0.1002	0.6824	0.1543	-0.036
Mof_H 	H 	0.0855	0.6684	0.1761	0.063
Mof_C 	C 	0.0904	0.7253	0.145	-0.072
Mof_C 	C 	0.0572	0.7491	0.1697	0.344
Mof_O 	O 	0.04406	0.78399	0.15394	-0.41
Mof_O 	O 	0.04437	0.73231	0.20456	-0.395
Mof_C 	C 	0.6002	0.1824	0.6543	-0.036
Mof_H 	H 	0.5855	0.1684	0.6761	0.065
Mof_C 	C 	0.5904	0.2253	0.645	-0.068
Mof_C 	C 	0.5572	0.2491	0.6697	0.344
Mof_O 	O 	0.54406	0.28399	0.65394	-0.403
Mof_O 	O 	0.54437	0.23231	0.70456	-0.39
Mof_C 	C 	0.3176	0.1543	0.8998	-0.038
Mof_H 	H 	0.3316	0.1761	0.9145	0.069
Mof_C 	C 	0.2747	0.145	0.9096	-0.064
Mof_C 	C 	0.2509	0.1697	0.9428	0.342
Mof_O 	O 	0.21601	0.15394	0.95594	-0.392
Mof_O 	O 	0.26769	0.20456	0.95563	-0.378
Mof_C 	C 	0.8176	0.6543	0.3998	-0.036
Mof_H 	H 	0.8316	0.6761	0.4145	0.067
Mof_C 	C 	0.7747	0.645	0.4096	-0.067
Mof_C 	C 	0.7509	0.6697	0.4428	0.344
Mof_O 	O 	0.71601	0.65394	0.45594	-0.402
Mof_O 	O 	0.76769	0.70456	0.45563	-0.389
Mof_C 	C 	0.3176	0.8457	0.1002	-0.038
Mof_H 	H 	0.3316	0.8239	0.0855	0.064
Mof_C 	C 	0.2747	0.855	0.0904	-0.068
Mof_C 	C 	0.2509	0.8303	0.0572	0.343
Mof_O 	O 	0.21601	0.84606	0.04406	-0.407
Mof_O 	O 	0.26769	0.79544	0.04437	-0.394
Mof_C 	C 	0.8176	0.3457	0.6002	-0.036
Mof_H 	H 	0.8316	0.3239	0.5855	0.067
Mof_C 	C 	0.7747	0.355	0.5904	-0.067
Mof_C 	C 	0.7509	0.3303	0.5572	0.344
Mof_O 	O 	0.71601	0.34606	0.54406	-0.402
Mof_O 	O 	0.76769	0.29544	0.54437	-0.389
Mof_C 	C 	0.6824	0.1543	0.1002	-0.036
Mof_H 	H 	0.6684	0.1761	0.0855	0.063
Mof_C 	C 	0.7253	0.145	0.0904	-0.072
Mof_C 	C 	0.7491	0.1697	0.0572	0.344
Mof_O 	O 	0.78399	0.15394	0.04406	-0.41
Mof_O 	O 	0.73231	0.20456	0.04437	-0.395
Mof_C 	C 	0.1824	0.6543	0.6002	-0.036
Mof_H 	H 	0.1684	0.6761	0.5855	0.065
Mof_C 	C 	0.2253	0.645	0.5904	-0.068
Mof_C 	C 	0.2491	0.6697	0.5572	0.344
Mof_O 	O 	0.28399	0.65394	0.54406	-0.403
Mof_O 	O 	0.23231	0.70456	0.54437	-0.39
Mof_C 	C 	0.6824	0.8457	0.8998	-0.042
Mof_H 	H 	0.6684	0.8239	0.9145	0.072
Mof_C 	C 	0.7253	0.855	0.9096	-0.057
Mof_C 	C 	0.7491	0.8303	0.9428	0.34
Mof_O 	O 	0.78399	0.84606	0.95594	-0.387
Mof_O 	O 	0.73231	0.79544	0.95563	-0.377
Mof_C 	C 	0.1824	0.3457	0.3998	-0.035
Mof_H 	H 	0.1684	0.3239	0.4145	0.065
Mof_C 	C 	0.2253	0.355	0.4096	-0.068
Mof_C 	C 	0.2491	0.3303	0.4428	0.344
Mof_O 	O 	0.28399	0.34606	0.45594	-0.402
Mof_O 	O 	0.23231	0.29544	0.45563	-0.39
Mof_C 	C 	0.8998	0.8457	0.6824	-0.042
Mof_H 	H 	0.9145	0.8239	0.6684	0.072
Mof_C 	C 	0.9096	0.855	0.7253	-0.057
Mof_C 	C 	0.9428	0.8303	0.7491	0.34
Mof_O 	O 	0.95594	0.84606	0.78399	-0.387
Mof_O 	O 	0.95563	0.79544	0.73231	-0.377
Mof_C 	C 	0.3998	0.3457	0.1824	-0.035
Mof_H 	H 	0.4145	0.3239	0.1684	0.065
Mof_C 	C 	0.4096	0.355	0.2253	-0.068
Mof_C 	C 	0.4428	0.3303	0.2491	0.344
Mof_O 	O 	0.45594	0.34606	0.28399	-0.402
Mof_O 	O 	0.45563	0.29544	0.23231	-0.39
Mof_C 	C 	0.1002	0.1543	0.6824	-0.036
Mof_H 	H 	0.0855	0.1761	0.6684	0.063
Mof_C 	C 	0.0904	0.145	0.7253	-0.072
Mof_C 	C 	0.0572	0.1697	0.7491	0.344
Mof_O 	O 	0.04406	0.15394	0.78399	-0.41
Mof_O 	O 	0.04437	0.20456	0.73231	-0.395
Mof_C 	C 	0.6002	0.6543	0.1824	-0.036
Mof_H 	H 	0.5855	0.6761	0.1684	0.065
Mof_C 	C 	0.5904	0.645	0.2253	-0.068
Mof_C 	C 	0.5572	0.6697	0.2491	0.344
Mof_O 	O 	0.54406	0.65394	0.28399	-0.403
Mof_O 	O 	0.54437	0.70456	0.23231	-0.39
Mof_C 	C 	0.1002	0.8457	0.3176	-0.038
Mof_H 	H 	0.0855	0.8239	0.3316	0.064
Mof_C 	C 	0.0904	0.855	0.2747	-0.068
Mof_C 	C 	0.0572	0.8303	0.2509	0.343
Mof_O 	O 	0.04406	0.84606	0.21601	-0.407
Mof_O 	O 	0.04437	0.79544	0.26769	-0.394
Mof_C 	C 	0.6002	0.3457	0.8176	-0.036
Mof_H 	H 	0.5855	0.3239	0.8316	0.067
Mof_C 	C 	0.5904	0.355	0.7747	-0.067
Mof_C 	C 	0.5572	0.3303	0.7509	0.344
Mof_O 	O 	0.54406	0.34606	0.71601	-0.402
Mof_O 	O 	0.54437	0.29544	0.76769	-0.389
Mof_C 	C 	0.8998	0.1543	0.3176	-0.038
Mof_H 	H 	0.9145	0.1761	0.3316	0.069
Mof_C 	C 	0.9096	0.145	0.2747	-0.064
Mof_C 	C 	0.9428	0.1697	0.2509	0.342
Mof_O 	O 	0.95594	0.15394	0.21601	-0.392
Mof_O 	O 	0.95563	0.20456	0.26769	-0.378
Mof_C 	C 	0.3998	0.6543	0.8176	-0.036
Mof_H 	H 	0.4145	0.6761	0.8316	0.067
Mof_C 	C 	0.4096	0.645	0.7747	-0.067
Mof_C 	C 	0.4428	0.6697	0.7509	0.344
Mof_O 	O 	0.45594	0.65394	0.71601	-0.402
Mof_O 	O 	0.45563	0.70456	0.76769	-0.389
Mof_C 	C 	0.6824	0.8998	0.8457	-0.042
Mof_H 	H 	0.6684	0.9145	0.8239	0.072
Mof_C 	C 	0.7253	0.9096	0.855	-0.057
Mof_C 	C 	0.7491	0.9428	0.8303	0.34
Mof_O 	O 	0.78399	0.95594	0.84606	-0.387
Mof_O 	O 	0.73231	0.95563	0.79544	-0.377
Mof_C 	C 	0.1824	0.3998	0.3457	-0.035
Mof_H 	H 	0.1684	0.4145	0.3239	0.065
Mof_C 	C 	0.2253	0.4096	0.355	-0.068
Mof_C 	C 	0.2491	0.4428	0.3303	0.344
Mof_O 	O 	0.28399	0.45594	0.34606	-0.402
Mof_O 	O 	0.23231	0.45563	0.29544	-0.39
Mof_C 	C 	0.6824	0.1002	0.1543	-0.036
Mof_H 	H 	0.6684	0.0855	0.1761	0.063
Mof_C 	C 	0.7253	0.0904	0.145	-0.072
Mof_C 	C 	0.7491	0.0572	0.1697	0.344
Mof_O 	O 	0.78399	0.04406	0.15394	-0.41
Mof_O 	O 	0.73231	0.04437	0.20456	-0.395
Mof_C 	C 	0.1824	0.6002	0.6543	-0.036
Mof_H 	H 	0.1684	0.5855	0.6761	0.065
Mof_C 	C 	0.2253	0.5904	0.645	-0.068
Mof_C 	C 	0.2491	0.5572	0.6697	0.344
Mof_O 	O 	0.28399	0.54406	0.65394	-0.403
Mof_O 	O 	0.23231	0.54437	0.70456	-0.39
Mof_C 	C 	0.3176	0.1002	0.8457	-0.038
Mof_H 	H 	0.3316	0.0855	0.8239	0.064
Mof_C 	C 	0.2747	0.0904	0.855	-0.068
Mof_C 	C 	0.2509	0.0572	0.8303	0.343
Mof_O 	O 	0.21601	0.04406	0.84606	-0.407
Mof_O 	O 	0.26769	0.04437	0.79544	-0.394
Mof_C 	C 	0.8176	0.6002	0.3457	-0.036
Mof_H 	H 	0.8316	0.5855	0.3239	0.067
Mof_C 	C 	0.7747	0.5904	0.355	-0.067
Mof_C 	C 	0.7509	0.5572	0.3303	0.344
Mof_O 	O 	0.71601	0.54406	0.34606	-0.402
Mof_O 	O 	0.76769	0.54437	0.29544	-0.389
Mof_C 	C 	0.3176	0.8998	0.1543	-0.038
Mof_H 	H 	0.3316	0.9145	0.1761	0.069
Mof_C 	C 	0.2747	0.9096	0.145	-0.064
Mof_C 	C 	0.2509	0.9428	0.1697	0.342
Mof_O 	O 	0.21601	0.95594	0.15394	-0.392
Mof_O 	O 	0.26769	0.95563	0.20456	-0.378
Mof_C 	C 	0.8176	0.3998	0.6543	-0.036
Mof_H 	H 	0.8316	0.4145	0.6761	0.067
Mof_C 	C 	0.7747	0.4096	0.645	-0.067
Mof_C 	C 	0.7509	0.4428	0.6697	0.344
Mof_O 	O 	0.71601	0.45594	0.65394	-0.402
Mof_O 	O 	0.76769	0.45563	0.70456	-0.389
Mof_C 	C 	0.8457	0.6824	0.8998	-0.042
Mof_H 	H 	0.8239	0.6684	0.9145	0.072
Mof_C 	C 	0.855	0.7253	0.9096	-0.057
Mof_C 	C 	0.8303	0.7491	0.9428	0.34
Mof_O 	O 	0.84606	0.78399	0.95594	-0.387
Mof_O 	O 	0.79544	0.73231	0.95563	-0.377
Mof_C 	C 	0.3457	0.1824	0.3998	-0.035
Mof_H 	H 	0.3239	0.1684	0.4145	0.065
Mof_C 	C 	0.355	0.2253	0.4096	-0.068
Mof_C 	C 	0.3303	0.2491	0.4428	0.344
Mof_O 	O 	0.34606	0.28399	0.45594	-0.402
Mof_O 	O 	0.29544	0.23231	0.45563	-0.39
Mof_C 	C 	0.1543	0.6824	0.1002	-0.036
Mof_H 	H 	0.1761	0.6684	0.0855	0.063
Mof_C 	C 	0.145	0.7253	0.0904	-0.072
Mof_C 	C 	0.1697	0.7491	0.0572	0.344
Mof_O 	O 	0.15394	0.78399	0.04406	-0.41
Mof_O 	O 	0.20456	0.73231	0.04437	-0.395
Mof_C 	C 	0.6543	0.1824	0.6002	-0.036
Mof_H 	H 	0.6761	0.1684	0.5855	0.065
Mof_C 	C 	0.645	0.2253	0.5904	-0.068
Mof_C 	C 	0.6697	0.2491	0.5572	0.344
Mof_O 	O 	0.65394	0.28399	0.54406	-0.403
Mof_O 	O 	0.70456	0.23231	0.54437	-0.39
Mof_C 	C 	0.8457	0.3176	0.1002	-0.038
Mof_H 	H 	0.8239	0.3316	0.0855	0.064
Mof_C 	C 	0.855	0.2747	0.0904	-0.068
Mof_C 	C 	0.8303	0.2509	0.0572	0.343
Mof_O 	O 	0.84606	0.21601	0.04406	-0.407
Mof_O 	O 	0.79544	0.26769	0.04437	-0.394
Mof_C 	C 	0.3457	0.8176	0.6002	-0.036
Mof_H 	H 	0.3239	0.8316	0.5855	0.067
Mof_C 	C 	0.355	0.7747	0.5904	-0.067
Mof_C 	C 	0.3303	0.7509	0.5572	0.344
Mof_O 	O 	0.34606	0.71601	0.54406	-0.402
Mof_O 	O 	0.29544	0.76769	0.54437	-0.389
Mof_C 	C 	0.1543	0.3176	0.8998	-0.038
Mof_H 	H 	0.1761	0.3316	0.9145	0.069
Mof_C 	C 	0.145	0.2747	0.9096	-0.064
Mof_C 	C 	0.1697	0.2509	0.9428	0.342
Mof_O 	O 	0.15394	0.21601	0.95594	-0.392
Mof_O 	O 	0.20456	0.26769	0.95563	-0.378
Mof_C 	C 	0.6543	0.8176	0.3998	-0.036
Mof_H 	H 	0.6761	0.8316	0.4145	0.067
Mof_C 	C 	0.645	0.7747	0.4096	-0.067
Mof_C 	C 	0.6697	0.7509	0.4428	0.344
Mof_O 	O 	0.65394	0.71601	0.45594	-0.402
Mof_O 	O 	0.70456	0.76769	0.45563	-0.389
Mof_C 	C 	0.8457	0.8998	0.3176	-0.041
Mof_H 	H 	0.8239	0.9145	0.3316	0.071
Mof_C 	C 	0.855	0.9096	0.2747	-0.058
Mof_C 	C 	0.8303	0.9428	0.2509	0.34
Mof_O 	O 	0.84606	0.95594	0.21601	-0.388
Mof_O 	O 	0.79544	0.95563	0.26769	-0.377
Mof_C 	C 	0.3457	0.3998	0.8176	-0.036
Mof_H 	H 	0.3239	0.4145	0.8316	0.067
Mof_C 	C 	0.355	0.4096	0.7747	-0.067
Mof_C 	C 	0.3303	0.4428	0.7509	0.344
Mof_O 	O 	0.34606	0.45594	0.71601	-0.402
Mof_O 	O 	0.29544	0.45563	0.76769	-0.389
Mof_C 	C 	0.1543	0.1002	0.3176	-0.035
Mof_H 	H 	0.1761	0.0855	0.3316	0.062
Mof_C 	C 	0.145	0.0904	0.2747	-0.073
Mof_C 	C 	0.1697	0.0572	0.2509	0.344
Mof_O 	O 	0.15394	0.04406	0.21601	-0.411
Mof_O 	O 	0.20456	0.04437	0.26769	-0.395
Mof_C 	C 	0.6543	0.6002	0.8176	-0.036
Mof_H 	H 	0.6761	0.5855	0.8316	0.067
Mof_C 	C 	0.645	0.5904	0.7747	-0.067
Mof_C 	C 	0.6697	0.5572	0.7509	0.344
Mof_O 	O 	0.65394	0.54406	0.71601	-0.402
Mof_O 	O 	0.70456	0.54437	0.76769	-0.389
Mof_C 	C 	0.8457	0.1002	0.6824	-0.039
Mof_H 	H 	0.8239	0.0855	0.6684	0.065
Mof_C 	C 	0.855	0.0904	0.7253	-0.067
Mof_C 	C 	0.8303	0.0572	0.7491	0.342
Mof_O 	O 	0.84606	0.04406	0.78399	-0.406
Mof_O 	O 	0.79544	0.04437	0.73231	-0.394
Mof_C 	C 	0.3457	0.6002	0.1824	-0.035
Mof_H 	H 	0.3239	0.5855	0.1684	0.065
Mof_C 	C 	0.355	0.5904	0.2253	-0.068
Mof_C 	C 	0.3303	0.5572	0.2491	0.344
Mof_O 	O 	0.34606	0.54406	0.28399	-0.402
Mof_O 	O 	0.29544	0.54437	0.23231	-0.39
Mof_C 	C 	0.1543	0.8998	0.6824	-0.039
Mof_H 	H 	0.1761	0.9145	0.6684	0.07
Mof_C 	C 	0.145	0.9096	0.7253	-0.063
Mof_C 	C 	0.1697	0.9428	0.7491	0.341
Mof_O 	O 	0.15394	0.95594	0.78399	-0.391
Mof_O 	O 	0.20456	0.95563	0.73231	-0.378
Mof_C 	C 	0.6543	0.3998	0.1824	-0.035
Mof_H 	H 	0.6761	0.4145	0.1684	0.065
Mof_C 	C 	0.645	0.4096	0.2253	-0.068
Mof_C 	C 	0.6697	0.4428	0.2491	0.344
Mof_O 	O 	0.65394	0.45594	0.28399	-0.403
Mof_O 	O 	0.70456	0.45563	0.23231	-0.39
Mof_C 	C 	0.8998	0.6824	0.1543	-0.039
Mof_H 	H 	0.9145	0.6684	0.1761	0.07
Mof_C 	C 	0.9096	0.7253	0.145	-0.063
Mof_C 	C 	0.9428	0.7491	0.1697	0.341
Mof_O 	O 	0.95594	0.78399	0.15394	-0.391
Mof_O 	O 	0.95563	0.73231	0.20456	-0.378
Mof_C 	C 	0.3998	0.1824	0.6543	-0.035
Mof_H 	H 	0.4145	0.1684	0.6761	0.065
Mof_C 	C 	0.4096	0.2253	0.645	-0.068
Mof_C 	C 	0.4428	0.2491	0.6697	0.344
Mof_O 	O 	0.45594	0.28399	0.65394	-0.403
Mof_O 	O 	0.45563	0.23231	0.70456	-0.39
Mof_C 	C 	0.1002	0.6824	0.8457	-0.039
Mof_H 	H 	0.0855	0.6684	0.8239	0.065
Mof_C 	C 	0.0904	0.7253	0.855	-0.067
Mof_C 	C 	0.0572	0.7491	0.8303	0.342
Mof_O 	O 	0.04406	0.78399	0.84606	-0.406
Mof_O 	O 	0.04437	0.73231	0.79544	-0.394
Mof_C 	C 	0.6002	0.1824	0.3457	-0.035
Mof_H 	H 	0.5855	0.1684	0.3239	0.065
Mof_C 	C 	0.5904	0.2253	0.355	-0.068
Mof_C 	C 	0.5572	0.2491	0.3303	0.344
Mof_O 	O 	0.54406	0.28399	0.34606	-0.402
Mof_O 	O 	0.54437	0.23231	0.29544	-0.39
Mof_C 	C 	0.1002	0.3176	0.1543	-0.035
Mof_H 	H 	0.0855	0.3316	0.1761	0.062
Mof_C 	C 	0.0904	0.2747	0.145	-0.073
Mof_C 	C 	0.0572	0.2509	0.1697	0.344
Mof_O 	O 	0.04406	0.21601	0.15394	-0.411
Mof_O 	O 	0.04437	0.26769	0.20456	-0.395
Mof_C 	C 	0.6002	0.8176	0.6543	-0.036
Mof_H 	H 	0.5855	0.8316	0.6761	0.067
Mof_C 	C 	0.5904	0.7747	0.645	-0.067
Mof_C 	C 	0.5572	0.7509	0.6697	0.344
Mof_O 	O 	0.54406	0.71601	0.65394	-0.402
Mof_O 	O 	0.54437	0.76769	0.70456	-0.389
Mof_C 	C 	0.8998	0.3176	0.8457	-0.041
Mof_H 	H 	0.9145	0.3316	0.8239	0.071
Mof_C 	C 	0.9096	0.2747	0.855	-0.058
Mof_C 	C 	0.9428	0.2509	0.8303	0.34
Mof_O 	O 	0.95594	0.21601	0.84606	-0.388
Mof_O 	O 	0.95563	0.26769	0.79544	-0.377
Mof_C 	C 	0.3998	0.8176	0.3457	-0.036
Mof_H 	H 	0.4145	0.8316	0.3239	0.067
Mof_C 	C 	0.4096	0.7747	0.355	-0.067
Mof_C 	C 	0.4428	0.7509	0.3303	0.344
Mof_O 	O 	0.45594	0.71601	0.34606	-0.402
Mof_O 	O 	0.45563	0.76769	0.29544	-0.389
Mof_C 	C 	0.6824	0.8457	0.1002	-0.039
Mof_H 	H 	0.6684	0.8239	0.0855	0.065
Mof_C 	C 	0.7253	0.855	0.0904	-0.067
Mof_C 	C 	0.7491	0.8303	0.0572	0.342
Mof_O 	O 	0.78399	0.84606	0.04406	-0.406
Mof_O 	O 	0.73231	0.79544	0.04437	-0.394
Mof_C 	C 	0.1824	0.3457	0.6002	-0.035
Mof_H 	H 	0.1684	0.3239	0.5855	0.065
Mof_C 	C 	0.2253	0.355	0.5904	-0.068
Mof_C 	C 	0.2491	0.3303	0.5572	0.344
Mof_O 	O 	0.28399	0.34606	0.54406	-0.402
Mof_O 	O 	0.23231	0.29544	0.54437	-0.39
Mof_C 	C 	0.6824	0.1543	0.8998	-0.039
Mof_H 	H 	0.6684	0.1761	0.9145	0.07
Mof_C 	C 	0.7253	0.145	0.9096	-0.063
Mof_C 	C 	0.7491	0.1697	0.9428	0.341
Mof_O 	O 	0.78399	0.15394	0.95594	-0.391
Mof_O 	O 	0.73231	0.20456	0.95563	-0.378
Mof_C 	C 	0.1824	0.6543	0.3998	-0.035
Mof_H 	H 	0.1684	0.6761	0.4145	0.065
Mof_C 	C 	0.2253	0.645	0.4096	-0.068
Mof_C 	C 	0.2491	0.6697	0.4428	0.344
Mof_O 	O 	0.28399	0.65394	0.45594	-0.403
Mof_O 	O 	0.23231	0.70456	0.45563	-0.39
Mof_C 	C 	0.3176	0.8457	0.8998	-0.041
Mof_H 	H 	0.3316	0.8239	0.9145	0.071
Mof_C 	C 	0.2747	0.855	0.9096	-0.058
Mof_C 	C 	0.2509	0.8303	0.9428	0.34
Mof_O 	O 	0.21601	0.84606	0.95594	-0.388
Mof_O 	O 	0.26769	0.79544	0.95563	-0.377
Mof_C 	C 	0.8176	0.3457	0.3998	-0.036
Mof_H 	H 	0.8316	0.3239	0.4145	0.067
Mof_C 	C 	0.7747	0.355	0.4096	-0.067
Mof_C 	C 	0.7509	0.3303	0.4428	0.344
Mof_O 	O 	0.71601	0.34606	0.45594	-0.402
Mof_O 	O 	0.76769	0.29544	0.45563	-0.389
Mof_C 	C 	0.3176	0.1543	0.1002	-0.035
Mof_H 	H 	0.3316	0.1761	0.0855	0.062
Mof_C 	C 	0.2747	0.145	0.0904	-0.073
Mof_C 	C 	0.2509	0.1697	0.0572	0.344
Mof_O 	O 	0.21601	0.15394	0.04406	-0.411
Mof_O 	O 	0.26769	0.20456	0.04437	-0.395
Mof_C 	C 	0.8176	0.6543	0.6002	-0.036
Mof_H 	H 	0.8316	0.6761	0.5855	0.067
Mof_C 	C 	0.7747	0.645	0.5904	-0.067
Mof_C 	C 	0.7509	0.6697	0.5572	0.344
Mof_O 	O 	0.71601	0.65394	0.54406	-0.402
Mof_O 	O 	0.76769	0.70456	0.54437	-0.389
Mof_Cu	Cu	4.03064e-33	0.18048	0.18048	0.894
Mof_Cu	Cu	2.57859e-33	0.24047	0.24047	0.906
Mof_Cu	Cu	0.5	0.68048	0.68048	0.907
Mof_Cu	Cu	0.5	0.74047	0.74047	0.916
Mof_Cu	Cu	1.40925e-32	0.81952	0.18048	0.896
Mof_Cu	Cu	9.28649e-33	0.75953	0.24047	0.906
Mof_Cu	Cu	0.5	0.31952	0.68048	0.907
Mof_Cu	Cu	0.5	0.25953	0.74047	0.916
Mof_Cu	Cu	9.78061e-33	0.18048	0.81952	0.896
Mof_Cu	Cu	9.55568e-33	0.24047	0.75953	0.906
Mof_Cu	Cu	0.5	0.68048	0.31952	0.907
Mof_Cu	Cu	0.5	0.74047	0.25953	0.916
Mof_Cu	Cu	2.99043e-32	0.81952	0.81952	0.897
Mof_Cu	Cu	2.84778e-33	0.75953	0.75953	0.906
Mof_Cu	Cu	0.5	0.31952	0.31952	0.907
Mof_Cu	Cu	0.5	0.25953	0.25953	0.916
Mof_Cu	Cu	0.18048	1.67697e-33	0.18048	0.894
Mof_Cu	Cu	0.24047	1.67697e-33	0.24047	0.906
Mof_Cu	Cu	0.68048	0.5	0.68048	0.907
Mof_Cu	Cu	0.74047	0.5	0.74047	0.916
Mof_Cu	Cu	0.18048	1.34158e-32	0.81952	0.896
Mof_Cu	Cu	0.24047	0	0.75953	0.906
Mof_Cu	Cu	0.68048	0.5	0.31952	0.907
Mof_Cu	Cu	0.74047	0.5	0.25953	0.916
Mof_Cu	Cu	0.81952	1.67697e-33	0.18048	0.896
Mof_Cu	Cu	0.75953	1.67697e-33	0.24047	0.906
Mof_Cu	Cu	0.31952	0.5	0.68048	0.907
Mof_Cu	Cu	0.25953	0.5	0.74047	0.916
Mof_Cu	Cu	0.81952	1.34158e-32	0.81952	0.897
Mof_Cu	Cu	0.75953	0	0.75953	0.906
Mof_Cu	Cu	0.31952	0.5	0.31952	0.907
Mof_Cu	Cu	0.25953	0.5	0.25953	0.916
Mof_Cu	Cu	0.18048	0.18048	-0	0.894
Mof_Cu	Cu	0.24047	0.24047	-0	0.906
Mof_Cu	Cu	0.68048	0.68048	0.5	0.907
Mof_Cu	Cu	0.74047	0.74047	0.5	0.916
Mof_Cu	Cu	0.81952	0.18048	-0	0.896
Mof_Cu	Cu	0.75953	0.24047	-0	0.906
Mof_Cu	Cu	0.31952	0.68048	0.5	0.907
Mof_Cu	Cu	0.25953	0.74047	0.5	0.916
Mof_Cu	Cu	0.18048	0.81952	-0	0.896
Mof_Cu	Cu	0.24047	0.75953	-0	0.906
Mof_Cu	Cu	0.68048	0.31952	0.5	0.907
Mof_Cu	Cu	0.74047	0.25953	0.5	0.916
Mof_Cu	Cu	0.81952	0.81952	-0	0.897
Mof_Cu	Cu	0.75953	0.75953	-0	0.906
Mof_Cu	Cu	0.31952	0.31952	0.5	0.907
Mof_Cu	Cu	0.25953	0.25953	0.5	0.916
Mof_N 	N 	0.2107	0.2107	0.5	-0.162
Mof_C 	C 	0.1474	0.1474	0.5	-0.092
Mof_H 	H 	0.1263	0.1263	0.5	0.068
Mof_N 	N 	0.7107	0.7107	-0	-0.176
Mof_C 	C 	0.6474	0.6474	-0	-0.137
Mof_H 	H 	0.6263	0.6263	-0	0.081
Mof_N 	N 	0.7893	0.7893	0.5	-0.161
Mof_C 	C 	0.8526	0.8526	0.5	-0.09
Mof_H 	H 	0.8737	0.8737	0.5	0.079
Mof_N 	N 	0.2893	0.2893	-0	-0.176
Mof_C 	C 	0.3526	0.3526	-0	-0.137
Mof_H 	H 	0.3737	0.3737	-0	0.081
Mof_N 	N 	0.7893	0.2107	0.5	-0.161
Mof_C 	C 	0.8526	0.1474	0.5	-0.091
Mof_H 	H 	0.8737	0.1263	0.5	0.073
Mof_N 	N 	0.2893	0.7107	-0	-0.176
Mof_C 	C 	0.3526	0.6474	-0	-0.137
Mof_H 	H 	0.3737	0.6263	-0	0.081
Mof_N 	N 	0.2107	0.7893	0.5	-0.161
Mof_C 	C 	0.1474	0.8526	0.5	-0.091
Mof_H 	H 	0.1263	0.8737	0.5	0.073
Mof_N 	N 	0.7107	0.2893	-0	-0.176
Mof_C 	C 	0.6474	0.3526	-0	-0.137
Mof_H 	H 	0.6263	0.3737	-0	0.081
Mof_N 	N 	0.5	0.2107	0.2107	-0.162
Mof_C 	C 	0.5	0.1474	0.1474	-0.092
Mof_H 	H 	0.5	0.1263	0.1263	0.068
Mof_N 	N 	1.60805e-32	0.7107	0.7107	-0.176
Mof_C 	C 	2.42736e-33	0.6474	0.6474	-0.137
Mof_H 	H 	1.5764e-32	0.6263	0.6263	0.081
Mof_N 	N 	0.5	0.7893	0.7893	-0.161
Mof_C 	C 	0.5	0.8526	0.8526	-0.09
Mof_H 	H 	0.5	0.8737	0.8737	0.079
Mof_N 	N 	7.7926e-33	0.2893	0.2893	-0.176
Mof_C 	C 	8.02994e-33	0.3526	0.3526	-0.137
Mof_H 	H 	8.10905e-33	0.3737	0.3737	0.081
Mof_N 	N 	0.5	0.7893	0.2107	-0.161
Mof_C 	C 	0.5	0.8526	0.1474	-0.091
Mof_H 	H 	0.5	0.8737	0.1263	0.073
Mof_N 	N 	9.3726e-33	0.2893	0.7107	-0.176
Mof_C 	C 	9.13526e-33	0.3526	0.6474	-0.137
Mof_H 	H 	1.5764e-32	0.3737	0.6263	0.081
Mof_N 	N 	0.5	0.2107	0.7893	-0.161
Mof_C 	C 	0.5	0.1474	0.8526	-0.091
Mof_H 	H 	0.5	0.1263	0.8737	0.073
Mof_N 	N 	1.11465e-32	0.7107	0.2893	-0.176
Mof_C 	C 	8.02994e-33	0.6474	0.3526	-0.137
Mof_H 	H 	1.48169e-32	0.6263	0.3737	0.081
Mof_N 	N 	0.2107	0.5	0.2107	-0.162
Mof_C 	C 	0.1474	0.5	0.1474	-0.092
Mof_H 	H 	0.1263	0.5	0.1263	0.068
Mof_N 	N 	0.7107	6.7079e-33	0.7107	-0.176
Mof_C 	C 	0.6474	0	0.6474	-0.137
Mof_H 	H 	0.6263	6.7079e-33	0.6263	0.081
Mof_N 	N 	0.7893	0.5	0.7893	-0.161
Mof_C 	C 	0.8526	0.5	0.8526	-0.09
Mof_H 	H 	0.8737	0.5	0.8737	0.079
Mof_N 	N 	0.2893	3.35395e-33	0.2893	-0.176
Mof_C 	C 	0.3526	3.35395e-33	0.3526	-0.137
Mof_H 	H 	0.3737	3.35395e-33	0.3737	0.081
Mof_N 	N 	0.2107	0.5	0.7893	-0.161
Mof_C 	C 	0.1474	0.5	0.8526	-0.091
Mof_H 	H 	0.1263	0.5	0.8737	0.073
Mof_N 	N 	0.7107	3.35395e-33	0.2893	-0.176
Mof_C 	C 	0.6474	3.35395e-33	0.3526	-0.137
Mof_H 	H 	0.6263	3.35395e-33	0.3737	0.081
Mof_N 	N 	0.7893	0.5	0.2107	-0.161
Mof_C 	C 	0.8526	0.5	0.1474	-0.091
Mof_H 	H 	0.8737	0.5	0.1263	0.073
Mof_N 	N 	0.2893	6.7079e-33	0.7107	-0.176
Mof_C 	C 	0.3526	0	0.6474	-0.137
Mof_H 	H 	0.3737	6.7079e-33	0.6263	0.081
Mof_C 	C 	0.1957	0.1957	0.4633	0
Mof_H 	H 	0.2066	0.2066	0.4377	0.045
Mof_C 	C 	0.1636	0.1636	0.4615	0.03
Mof_C 	C 	0.1495	0.1495	0.4198	-0.018
Mof_C 	C 	0.141	0.141	0.3831	-0.014
Mof_C 	C 	0.1316	0.1316	0.3395	0.022
Mof_C 	C 	0.1123	0.1123	0.2543	0.016
Mof_H 	H 	0.1049	0.1049	0.2263	0.054
Mof_C 	C 	0.6957	0.6957	0.9633	0.02
Mof_H 	H 	0.7066	0.7066	0.9377	0.042
Mof_C 	C 	0.6636	0.6636	0.9615	0.065
Mof_C 	C 	0.6495	0.6495	0.9198	-0.02
Mof_C 	C 	0.641	0.641	0.8831	-0.004
Mof_C 	C 	0.6316	0.6316	0.8395	0.025
Mof_C 	C 	0.6123	0.6123	0.7543	0.014
Mof_H 	H 	0.6049	0.6049	0.7263	0.059
Mof_C 	C 	0.8043	0.8043	0.4633	0.002
Mof_H 	H 	0.7934	0.7934	0.4377	0.045
Mof_C 	C 	0.8364	0.8364	0.4615	0.033
Mof_C 	C 	0.8505	0.8505	0.4198	-0.01
Mof_C 	C 	0.859	0.859	0.3831	-0.01
Mof_C 	C 	0.8684	0.8684	0.3395	0.033
Mof_C 	C 	0.8877	0.8877	0.2543	0.009
Mof_H 	H 	0.8951	0.8951	0.2263	0.064
Mof_C 	C 	0.3043	0.3043	0.9633	0.019
Mof_H 	H 	0.2934	0.2934	0.9377	0.042
Mof_C 	C 	0.3364	0.3364	0.9615	0.065
Mof_C 	C 	0.3505	0.3505	0.9198	-0.02
Mof_C 	C 	0.359	0.359	0.8831	-0.004
Mof_C 	C 	0.3684	0.3684	0.8395	0.025
Mof_C 	C 	0.3877	0.3877	0.7543	0.014
Mof_H 	H 	0.3951	0.3951	0.7263	0.059
Mof_C 	C 	0.8043	0.1957	0.5367	0.001
Mof_H 	H 	0.7934	0.2066	0.5623	0.045
Mof_C 	C 	0.8364	0.1636	0.5385	0.031
Mof_C 	C 	0.8505	0.1495	0.5802	-0.014
Mof_C 	C 	0.859	0.141	0.6169	-0.012
Mof_C 	C 	0.8684	0.1316	0.6605	0.028
Mof_C 	C 	0.8877	0.1123	0.7457	0.011
Mof_H 	H 	0.8951	0.1049	0.7737	0.06
Mof_C 	C 	0.3043	0.6957	0.0367	-0.011
Mof_H 	H 	0.2934	0.7066	0.0623	0.048
Mof_C 	C 	0.3364	0.6636	0.0385	0.045
Mof_C 	C 	0.3505	0.6495	0.0802	-0.024
Mof_C 	C 	0.359	0.641	0.1169	-0.009
Mof_C 	C 	0.3684	0.6316	0.1605	0.023
Mof_C 	C 	0.3877	0.6123	0.2457	0.014
Mof_H 	H 	0.3951	0.6049	0.2737	0.058
Mof_C 	C 	0.1957	0.8043	0.5367	0.001
Mof_H 	H 	0.2066	0.7934	0.5623	0.045
Mof_C 	C 	0.1636	0.8364	0.5385	0.031
Mof_C 	C 	0.1495	0.8505	0.5802	-0.014
Mof_C 	C 	0.141	0.859	0.6169	-0.012
Mof_C 	C 	0.1316	0.8684	0.6605	0.028
Mof_C 	C 	0.1123	0.8877	0.7457	0.011
Mof_H 	H 	0.1049	0.8951	0.7737	0.06
Mof_C 	C 	0.6957	0.3043	0.0367	-0.011
Mof_H 	H 	0.7066	0.2934	0.0623	0.048
Mof_C 	C 	0.6636	0.3364	0.0385	0.045
Mof_C 	C 	0.6495	0.3505	0.0802	-0.024
Mof_C 	C 	0.641	0.359	0.1169	-0.009
Mof_C 	C 	0.6316	0.3684	0.1605	0.023
Mof_C 	C 	0.6123	0.3877	0.2457	0.014
Mof_H 	H 	0.6049	0.3951	0.2737	0.058
Mof_C 	C 	0.4633	0.1957	0.1957	0
Mof_H 	H 	0.4377	0.2066	0.2066	0.045
Mof_C 	C 	0.4615	0.1636	0.1636	0.03
Mof_C 	C 	0.4198	0.1495	0.1495	-0.018
Mof_C 	C 	0.3831	0.141	0.141	-0.014
Mof_C 	C 	0.3395	0.1316	0.1316	0.022
Mof_C 	C 	0.2543	0.1123	0.1123	0.016
Mof_H 	H 	0.2263	0.1049	0.1049	0.054
Mof_C 	C 	0.9633	0.6957	0.6957	0.02
Mof_H 	H 	0.9377	0.7066	0.7066	0.042
Mof_C 	C 	0.9615	0.6636	0.6636	0.065
Mof_C 	C 	0.9198	0.6495	0.6495	-0.02
Mof_C 	C 	0.8831	0.641	0.641	-0.004
Mof_C 	C 	0.8395	0.6316	0.6316	0.025
Mof_C 	C 	0.7543	0.6123	0.6123	0.014
Mof_H 	H 	0.7263	0.6049	0.6049	0.059
Mof_C 	C 	0.4633	0.8043	0.8043	0.002
Mof_H 	H 	0.4377	0.7934	0.7934	0.045
Mof_C 	C 	0.4615	0.8364	0.8364	0.033
Mof_C 	C 	0.4198	0.8505	0.8505	-0.01
Mof_C 	C 	0.3831	0.859	0.859	-0.01
Mof_C 	C 	0.3395	0.8684	0.8684	0.033
Mof_C 	C 	0.2543	0.8877	0.8877	0.009
Mof_H 	H 	0.2263	0.8951	0.8951	0.064
Mof_C 	C 	0.9633	0.3043	0.3043	0.019
Mof_H 	H 	0.9377	0.2934	0.2934	0.042
Mof_C 	C 	0.9615	0.3364	0.3364	0.065
Mof_C 	C 	0.9198	0.3505	0.3505	-0.02
Mof_C 	C 	0.8831	0.359	0.359	-0.004
Mof_C 	C 	0.8395	0.3684	0.3684	0.025
Mof_C 	C 	0.7543	0.3877	0.3877	0.014
Mof_H 	H 	0.7263	0.3951	0.3951	0.059
Mof_C 	C 	0.5367	0.8043	0.1957	0.001
Mof_H 	H 	0.5623	0.7934	0.2066	0.045
Mof_C 	C 	0.5385	0.8364	0.1636	0.031
Mof_C 	C 	0.5802	0.8505	0.1495	-0.014
Mof_C 	C 	0.6169	0.859	0.141	-0.012
Mof_C 	C 	0.6605	0.8684	0.1316	0.028
Mof_C 	C 	0.7457	0.8877	0.1123	0.011
Mof_H 	H 	0.7737	0.8951	0.1049	0.06
Mof_C 	C 	0.0367	0.3043	0.6957	-0.011
Mof_H 	H 	0.0623	0.2934	0.7066	0.048
Mof_C 	C 	0.0385	0.3364	0.6636	0.045
Mof_C 	C 	0.0802	0.3505	0.6495	-0.024
Mof_C 	C 	0.1169	0.359	0.641	-0.009
Mof_C 	C 	0.1605	0.3684	0.6316	0.023
Mof_C 	C 	0.2457	0.3877	0.6123	0.014
Mof_H 	H 	0.2737	0.3951	0.6049	0.058
Mof_C 	C 	0.5367	0.1957	0.8043	0.001
Mof_H 	H 	0.5623	0.2066	0.7934	0.045
Mof_C 	C 	0.5385	0.1636	0.8364	0.031
Mof_C 	C 	0.5802	0.1495	0.8505	-0.014
Mof_C 	C 	0.6169	0.141	0.859	-0.012
Mof_C 	C 	0.6605	0.1316	0.8684	0.028
Mof_C 	C 	0.7457	0.1123	0.8877	0.011
Mof_H 	H 	0.7737	0.1049	0.8951	0.06
Mof_C 	C 	0.0367	0.6957	0.3043	-0.011
Mof_H 	H 	0.0623	0.7066	0.2934	0.048
Mof_C 	C 	0.0385	0.6636	0.3364	0.045
Mof_C 	C 	0.0802	0.6495	0.3505	-0.024
Mof_C 	C 	0.1169	0.641	0.359	-0.009
Mof_C 	C 	0.1605	0.6316	0.3684	0.023
Mof_C 	C 	0.2457	0.6123	0.3877	0.014
Mof_H 	H 	0.2737	0.6049	0.3951	0.058
Mof_C 	C 	0.1957	0.4633	0.1957	0
Mof_H 	H 	0.2066	0.4377	0.2066	0.045
Mof_C 	C 	0.1636	0.4615	0.1636	0.03
Mof_C 	C 	0.1495	0.4198	0.1495	-0.018
Mof_C 	C 	0.141	0.3831	0.141	-0.014
Mof_C 	C 	0.1316	0.3395	0.1316	0.022
Mof_C 	C 	0.1123	0.2543	0.1123	0.016
Mof_H 	H 	0.1049	0.2263	0.1049	0.054
Mof_C 	C 	0.6957	0.9633	0.6957	0.02
Mof_H 	H 	0.7066	0.9377	0.7066	0.042
Mof_C 	C 	0.6636	0.9615	0.6636	0.065
Mof_C 	C 	0.6495	0.9198	0.6495	-0.02
Mof_C 	C 	0.641	0.8831	0.641	-0.004
Mof_C 	C 	0.6316	0.8395	0.6316	0.025
Mof_C 	C 	0.6123	0.7543	0.6123	0.014
Mof_H 	H 	0.6049	0.7263	0.6049	0.059
Mof_C 	C 	0.8043	0.4633	0.8043	0.002
Mof_H 	H 	0.7934	0.4377	0.7934	0.045
Mof_C 	C 	0.8364	0.4615	0.8364	0.033
Mof_C 	C 	0.8505	0.4198	0.8505	-0.01
Mof_C 	C 	0.859	0.3831	0.859	-0.01
Mof_C 	C 	0.8684	0.3395	0.8684	0.033
Mof_C 	C 	0.8877	0.2543	0.8877	0.009
Mof_H 	H 	0.8951	0.2263	0.8951	0.064
Mof_C 	C 	0.3043	0.9633	0.3043	0.019
Mof_H 	H 	0.2934	0.9377	0.2934	0.042
Mof_C 	C 	0.3364	0.9615	0.3364	0.065
Mof_C 	C 	0.3505	0.9198	0.3505	-0.02
Mof_C 	C 	0.359	0.8831	0.359	-0.004
Mof_C 	C 	0.3684	0.8395	0.3684	0.025
Mof_C 	C 	0.3877	0.7543	0.3877	0.014
Mof_H 	H 	0.3951	0.7263	0.3951	0.059
Mof_C 	C 	0.1957	0.5367	0.8043	0.001
Mof_H 	H 	0.2066	0.5623	0.7934	0.045
Mof_C 	C 	0.1636	0.5385	0.8364	0.031
Mof_C 	C 	0.1495	0.5802	0.8505	-0.014
Mof_C 	C 	0.141	0.6169	0.859	-0.012
Mof_C 	C 	0.1316	0.6605	0.8684	0.028
Mof_C 	C 	0.1123	0.7457	0.8877	0.011
Mof_H 	H 	0.1049	0.7737	0.8951	0.06
Mof_C 	C 	0.6957	0.0367	0.3043	-0.011
Mof_H 	H 	0.7066	0.0623	0.2934	0.048
Mof_C 	C 	0.6636	0.0385	0.3364	0.045
Mof_C 	C 	0.6495	0.0802	0.3505	-0.024
Mof_C 	C 	0.641	0.1169	0.359	-0.009
Mof_C 	C 	0.6316	0.1605	0.3684	0.023
Mof_C 	C 	0.6123	0.2457	0.3877	0.014
Mof_H 	H 	0.6049	0.2737	0.3951	0.058
Mof_C 	C 	0.8043	0.5367	0.1957	0.001
Mof_H 	H 	0.7934	0.5623	0.2066	0.045
Mof_C 	C 	0.8364	0.5385	0.1636	0.031
Mof_C 	C 	0.8505	0.5802	0.1495	-0.014
Mof_C 	C 	0.859	0.6169	0.141	-0.012
Mof_C 	C 	0.8684	0.6605	0.1316	0.028
Mof_C 	C 	0.8877	0.7457	0.1123	0.011
Mof_H 	H 	0.8951	0.7737	0.1049	0.06
Mof_C 	C 	0.3043	0.0367	0.6957	-0.011
Mof_H 	H 	0.2934	0.0623	0.7066	0.048
Mof_C 	C 	0.3364	0.0385	0.6636	0.045
Mof_C 	C 	0.3505	0.0802	0.6495	-0.024
Mof_C 	C 	0.359	0.1169	0.641	-0.009
Mof_C 	C 	0.3684	0.1605	0.6316	0.023
Mof_C 	C 	0.3877	0.2457	0.6123	0.014
Mof_H 	H 	0.3951	0.2737	0.6049	0.058
Mof_C 	C 	0.1957	0.1957	0.5367	0
Mof_H 	H 	0.2066	0.2066	0.5623	0.045
Mof_C 	C 	0.1636	0.1636	0.5385	0.03
Mof_C 	C 	0.1495	0.1495	0.5802	-0.018
Mof_C 	C 	0.141	0.141	0.6169	-0.014
Mof_C 	C 	0.1316	0.1316	0.6605	0.022
Mof_C 	C 	0.1123	0.1123	0.7457	0.015
Mof_H 	H 	0.1049	0.1049	0.7737	0.055
Mof_C 	C 	0.6957	0.6957	0.0367	-0.01
Mof_H 	H 	0.7066	0.7066	0.0623	0.047
Mof_C 	C 	0.6636	0.6636	0.0385	0.045
Mof_C 	C 	0.6495	0.6495	0.0802	-0.024
Mof_C 	C 	0.641	0.641	0.1169	-0.009
Mof_C 	C 	0.6316	0.6316	0.1605	0.023
Mof_C 	C 	0.6123	0.6123	0.2457	0.014
Mof_H 	H 	0.6049	0.6049	0.2737	0.058
Mof_C 	C 	0.8043	0.8043	0.5367	0.002
Mof_H 	H 	0.7934	0.7934	0.5623	0.045
Mof_C 	C 	0.8364	0.8364	0.5385	0.033
Mof_C 	C 	0.8505	0.8505	0.5802	-0.01
Mof_C 	C 	0.859	0.859	0.6169	-0.01
Mof_C 	C 	0.8684	0.8684	0.6605	0.034
Mof_C 	C 	0.8877	0.8877	0.7457	0.008
Mof_H 	H 	0.8951	0.8951	0.7737	0.065
Mof_C 	C 	0.3043	0.3043	0.0367	-0.011
Mof_H 	H 	0.2934	0.2934	0.0623	0.048
Mof_C 	C 	0.3364	0.3364	0.0385	0.045
Mof_C 	C 	0.3505	0.3505	0.0802	-0.024
Mof_C 	C 	0.359	0.359	0.1169	-0.009
Mof_C 	C 	0.3684	0.3684	0.1605	0.023
Mof_C 	C 	0.3877	0.3877	0.2457	0.014
Mof_H 	H 	0.3951	0.3951	0.2737	0.058
Mof_C 	C 	0.1957	0.8043	0.4633	0.001
Mof_H 	H 	0.2066	0.7934	0.4377	0.045
Mof_C 	C 	0.1636	0.8364	0.4615	0.031
Mof_C 	C 	0.1495	0.8505	0.4198	-0.014
Mof_C 	C 	0.141	0.859	0.3831	-0.012
Mof_C 	C 	0.1316	0.8684	0.3395	0.028
Mof_C 	C 	0.1123	0.8877	0.2543	0.013
Mof_H 	H 	0.1049	0.8951	0.2263	0.059
Mof_C 	C 	0.6957	0.3043	0.9633	0.02
Mof_H 	H 	0.7066	0.2934	0.9377	0.042
Mof_C 	C 	0.6636	0.3364	0.9615	0.065
Mof_C 	C 	0.6495	0.3505	0.9198	-0.02
Mof_C 	C 	0.641	0.359	0.8831	-0.004
Mof_C 	C 	0.6316	0.3684	0.8395	0.025
Mof_C 	C 	0.6123	0.3877	0.7543	0.014
Mof_H 	H 	0.6049	0.3951	0.7263	0.059
Mof_C 	C 	0.8043	0.1957	0.4633	0.001
Mof_H 	H 	0.7934	0.2066	0.4377	0.045
Mof_C 	C 	0.8364	0.1636	0.4615	0.031
Mof_C 	C 	0.8505	0.1495	0.4198	-0.014
Mof_C 	C 	0.859	0.141	0.3831	-0.012
Mof_C 	C 	0.8684	0.1316	0.3395	0.028
Mof_C 	C 	0.8877	0.1123	0.2543	0.013
Mof_H 	H 	0.8951	0.1049	0.2263	0.059
Mof_C 	C 	0.3043	0.6957	0.9633	0.02
Mof_H 	H 	0.2934	0.7066	0.9377	0.042
Mof_C 	C 	0.3364	0.6636	0.9615	0.065
Mof_C 	C 	0.3505	0.6495	0.9198	-0.02
Mof_C 	C 	0.359	0.641	0.8831	-0.004
Mof_C 	C 	0.3684	0.6316	0.8395	0.025
Mof_C 	C 	0.3877	0.6123	0.7543	0.014
Mof_H 	H 	0.3951	0.6049	0.7263	0.059
Mof_C 	C 	0.1957	0.4633	0.8043	0.001
Mof_H 	H 	0.2066	0.4377	0.7934	0.045
Mof_C 	C 	0.1636	0.4615	0.8364	0.031
Mof_C 	C 	0.1495	0.4198	0.8505	-0.014
Mof_C 	C 	0.141	0.3831	0.859	-0.012
Mof_C 	C 	0.1316	0.3395	0.8684	0.028
Mof_C 	C 	0.1123	0.2543	0.8877	0.013
Mof_H 	H 	0.1049	0.2263	0.8951	0.059
Mof_C 	C 	0.6957	0.9633	0.3043	0.02
Mof_H 	H 	0.7066	0.9377	0.2934	0.042
Mof_C 	C 	0.6636	0.9615	0.3364	0.065
Mof_C 	C 	0.6495	0.9198	0.3505	-0.02
Mof_C 	C 	0.641	0.8831	0.359	-0.004
Mof_C 	C 	0.6316	0.8395	0.3684	0.025
Mof_C 	C 	0.6123	0.7543	0.3877	0.014
Mof_H 	H 	0.6049	0.7263	0.3951	0.059
Mof_C 	C 	0.8043	0.4633	0.1957	0.001
Mof_H 	H 	0.7934	0.4377	0.2066	0.045
Mof_C 	C 	0.8364	0.4615	0.1636	0.031
Mof_C 	C 	0.8505	0.4198	0.1495	-0.014
Mof_C 	C 	0.859	0.3831	0.141	-0.012
Mof_C 	C 	0.8684	0.3395	0.1316	0.028
Mof_C 	C 	0.8877	0.2543	0.1123	0.013
Mof_H 	H 	0.8951	0.2263	0.1049	0.059
Mof_C 	C 	0.3043	0.9633	0.6957	0.02
Mof_H 	H 	0.2934	0.9377	0.7066	0.042
Mof_C 	C 	0.3364	0.9615	0.6636	0.065
Mof_C 	C 	0.3505	0.9198	0.6495	-0.02
Mof_C 	C 	0.359	0.8831	0.641	-0.004
Mof_C 	C 	0.3684	0.8395	0.6316	0.025
Mof_C 	C 	0.3877	0.7543	0.6123	0.014
Mof_H 	H 	0.3951	0.7263	0.6049	0.059
Mof_C 	C 	0.8043	0.5367	0.8043	0.002
Mof_H 	H 	0.7934	0.5623	0.7934	0.045
Mof_C 	C 	0.8364	0.5385	0.8364	0.033
Mof_C 	C 	0.8505	0.5802	0.8505	-0.01
Mof_C 	C 	0.859	0.6169	0.859	-0.01
Mof_C 	C 	0.8684	0.6605	0.8684	0.034
Mof_C 	C 	0.8877	0.7457	0.8877	0.008
Mof_H 	H 	0.8951	0.7737	0.8951	0.065
Mof_C 	C 	0.3043	0.0367	0.3043	-0.011
Mof_H 	H 	0.2934	0.0623	0.2934	0.048
Mof_C 	C 	0.3364	0.0385	0.3364	0.045
Mof_C 	C 	0.3505	0.0802	0.3505	-0.024
Mof_C 	C 	0.359	0.1169	0.359	-0.009
Mof_C 	C 	0.3684	0.1605	0.3684	0.023
Mof_C 	C 	0.3877	0.2457	0.3877	0.014
Mof_H 	H 	0.3951	0.2737	0.3951	0.058
Mof_C 	C 	0.1957	0.5367	0.1957	0
Mof_H 	H 	0.2066	0.5623	0.2066	0.045
Mof_C 	C 	0.1636	0.5385	0.1636	0.03
Mof_C 	C 	0.1495	0.5802	0.1495	-0.018
Mof_C 	C 	0.141	0.6169	0.141	-0.014
Mof_C 	C 	0.1316	0.6605	0.1316	0.022
Mof_C 	C 	0.1123	0.7457	0.1123	0.015
Mof_H 	H 	0.1049	0.7737	0.1049	0.055
Mof_C 	C 	0.6957	0.0367	0.6957	-0.01
Mof_H 	H 	0.7066	0.0623	0.7066	0.047
Mof_C 	C 	0.6636	0.0385	0.6636	0.045
Mof_C 	C 	0.6495	0.0802	0.6495	-0.024
Mof_C 	C 	0.641	0.1169	0.641	-0.009
Mof_C 	C 	0.6316	0.1605	0.6316	0.023
Mof_C 	C 	0.6123	0.2457	0.6123	0.014
Mof_H 	H 	0.6049	0.2737	0.6049	0.058
Mof_C 	C 	0.4633	0.1957	0.8043	0.001
Mof_H 	H 	0.4377	0.2066	0.7934	0.045
Mof_C 	C 	0.4615	0.1636	0.8364	0.031
Mof_C 	C 	0.4198	0.1495	0.8505	-0.014
Mof_C 	C 	0.3831	0.141	0.859	-0.012
Mof_C 	C 	0.3395	0.1316	0.8684	0.028
Mof_C 	C 	0.2543	0.1123	0.8877	0.013
Mof_H 	H 	0.2263	0.1049	0.8951	0.059
Mof_C 	C 	0.9633	0.6957	0.3043	0.02
Mof_H 	H 	0.9377	0.7066	0.2934	0.042
Mof_C 	C 	0.9615	0.6636	0.3364	0.065
Mof_C 	C 	0.9198	0.6495	0.3505	-0.02
Mof_C 	C 	0.8831	0.641	0.359	-0.004
Mof_C 	C 	0.8395	0.6316	0.3684	0.025
Mof_C 	C 	0.7543	0.6123	0.3877	0.014
Mof_H 	H 	0.7263	0.6049	0.3951	0.059
Mof_C 	C 	0.4633	0.8043	0.1957	0.001
Mof_H 	H 	0.4377	0.7934	0.2066	0.045
Mof_C 	C 	0.4615	0.8364	0.1636	0.031
Mof_C 	C 	0.4198	0.8505	0.1495	-0.014
Mof_C 	C 	0.3831	0.859	0.141	-0.012
Mof_C 	C 	0.3395	0.8684	0.1316	0.028
Mof_C 	C 	0.2543	0.8877	0.1123	0.013
Mof_H 	H 	0.2263	0.8951	0.1049	0.059
Mof_C 	C 	0.9633	0.3043	0.6957	0.02
Mof_H 	H 	0.9377	0.2934	0.7066	0.042
Mof_C 	C 	0.9615	0.3364	0.6636	0.065
Mof_C 	C 	0.9198	0.3505	0.6495	-0.02
Mof_C 	C 	0.8831	0.359	0.641	-0.004
Mof_C 	C 	0.8395	0.3684	0.6316	0.025
Mof_C 	C 	0.7543	0.3877	0.6123	0.014
Mof_H 	H 	0.7263	0.3951	0.6049	0.059
Mof_C 	C 	0.5367	0.1957	0.1957	0
Mof_H 	H 	0.5623	0.2066	0.2066	0.045
Mof_C 	C 	0.5385	0.1636	0.1636	0.03
Mof_C 	C 	0.5802	0.1495	0.1495	-0.018
Mof_C 	C 	0.6169	0.141	0.141	-0.014
Mof_C 	C 	0.6605	0.1316	0.1316	0.022
Mof_C 	C 	0.7457	0.1123	0.1123	0.015
Mof_H 	H 	0.7737	0.1049	0.1049	0.055
Mof_C 	C 	0.0367	0.6957	0.6957	-0.01
Mof_H 	H 	0.0623	0.7066	0.7066	0.047
Mof_C 	C 	0.0385	0.6636	0.6636	0.045
Mof_C 	C 	0.0802	0.6495	0.6495	-0.024
Mof_C 	C 	0.1169	0.641	0.641	-0.009
Mof_C 	C 	0.1605	0.6316	0.6316	0.023
Mof_C 	C 	0.2457	0.6123	0.6123	0.014
Mof_H 	H 	0.2737	0.6049	0.6049	0.058
Mof_C 	C 	0.5367	0.8043	0.8043	0.002
Mof_H 	H 	0.5623	0.7934	0.7934	0.045
Mof_C 	C 	0.5385	0.8364	0.8364	0.033
Mof_C 	C 	0.5802	0.8505	0.8505	-0.01
Mof_C 	C 	0.6169	0.859	0.859	-0.01
Mof_C 	C 	0.6605	0.8684	0.8684	0.034
Mof_C 	C 	0.7457	0.8877	0.8877	0.008
Mof_H 	H 	0.7737	0.8951	0.8951	0.065
Mof_C 	C 	0.0367	0.3043	0.3043	-0.011
Mof_H 	H 	0.0623	0.2934	0.2934	0.048
Mof_C 	C 	0.0385	0.3364	0.3364	0.045
Mof_C 	C 	0.0802	0.3505	0.3505	-0.024
Mof_C 	C 	0.1169	0.359	0.359	-0.009
Mof_C 	C 	0.1605	0.3684	0.3684	0.023
Mof_C 	C 	0.2457	0.3877	0.3877	0.014
Mof_H 	H 	0.2737	0.3951	0.3951	0.058
_end
