data_functionalizedCrystal
_audit_creation_method	'EQeq! by Chris Wilmer'
_symmetry_space_group_name_H-M	'P1'
_symmetry_Int_Tables_number	1
_symmetry_cell_setting	triclinic
loop_
_symmetry_equiv_pos_as_xyz
  x,y,z
_cell_length_a	13.5063
_cell_length_b	15.3586
_cell_length_c	15.8303
_cell_angle_alpha	90
_cell_angle_beta	95.849
_cell_angle_gamma	90
loop_
_atom_site_label
_atom_site_type_symbol
_atom_site_fract_x
_atom_site_fract_y
_atom_site_fract_z
_atom_site_charge
Mof_O 	O 	0.0943	0.753	0.5735	-0.316
Mof_Co	Co	0.24066	0.90479	0.49645	1.183
Mof_O 	O 	0.2504	0.77966	0.54404	-0.418
Mof_C 	C 	0.2266	0.6696	0.6419	-0.109
Mof_Fe	Fe	0.28448	0.65413	0.25418	0.716
Mof_O 	O 	0.42175	0.5171	0.88274	-0.418
Mof_C 	C 	0.1624	0.6162	0.6817	-0.097
Mof_H 	H 	0.0928	0.6197	0.6658	0.061
Mof_Fe	Fe	0.25408	0.68168	0.77095	0.475
Mof_O 	O 	0.27223	0.45304	0.88123	-0.424
Mof_C 	C 	0.1989	0.5571	0.7451	-0.078
Mof_H 	H 	0.1542	0.5184	0.7686	0.048
Mof_O 	O 	0.41723	0.38972	0.02636	-0.708
Mof_H 	H 	0.4341	0.3737	0.0867	0.241
Mof_H 	H 	0.4377	0.3408	0.9913	0.276
Mof_C 	C 	0.2987	0.5545	0.7738	-0.143
Mof_C 	C 	0.3651	0.6053	0.7327	-0.078
Mof_H 	H 	0.4346	0.6017	0.749	0.079
Mof_O 	O 	0.2587	0.52954	0.04899	-0.467
Mof_C 	C 	0.328	0.6622	0.6665	-0.091
Mof_H 	H 	0.3734	0.6962	0.6384	0.071
Mof_O 	O 	0.4106	0.58745	0.05868	-0.441
Mof_C 	C 	0.3339	0.5033	0.8536	0.383
Mof_O 	O 	0.0985	0.8368	0.3222	-0.33
Mof_O 	O 	0.2574	0.85776	0.37303	-0.418
Mof_C 	C 	0.1854	0.7398	0.5809	0.343
Mof_C 	C 	0.3222	0.5851	0.0731	0.413
Mof_C 	C 	0.2863	0.6588	0.1256	-0.146
Mof_C 	C 	0.3523	0.7215	0.1627	-0.094
Mof_H 	H 	0.4179	0.7254	0.1462	0.082
Mof_C 	C 	0.3212	0.7791	0.2247	-0.105
Mof_H 	H 	0.3671	0.8199	0.2514	0.062
Mof_C 	C 	0.2233	0.7763	0.2472	-0.133
Mof_C 	C 	0.1559	0.7178	0.2039	-0.102
Mof_H 	H 	0.0881	0.7184	0.2152	0.055
Mof_C 	C 	0.1867	0.659	0.1448	-0.087
Mof_H 	H 	0.1404	0.6189	0.1174	0.057
Mof_C 	C 	0.1906	0.8283	0.3208	0.357
Mof_C 	C 	0.3979	0.6156	0.341	-0.126
Mof_H 	H 	0.4613	0.6428	0.3494	0.09
Mof_C 	C 	0.3101	0.6353	0.3809	-0.117
Mof_H 	H 	0.3045	0.6793	0.4223	0.078
Mof_C 	C 	0.2367	0.5811	0.3501	-0.093
Mof_H 	H 	0.1713	0.5805	0.3672	0.054
Mof_C 	C 	0.2699	0.5277	0.291	-0.119
Mof_H 	H 	0.231	0.4853	0.2591	0.067
Mof_C 	C 	0.3668	0.5442	0.2845	-0.092
Mof_H 	H 	0.4079	0.5141	0.2489	0.072
Mof_C 	C 	0.1251	0.7271	0.8244	-0.879
Mof_H 	H 	0.0571	0.7115	0.8121	0.322
Mof_C 	C 	0.176	0.7931	0.7832	0.46
Mof_H 	H 	0.148	0.8294	0.7384	-0.068
Mof_C 	C 	0.276	0.7953	0.8207	-0.424
Mof_H 	H 	0.3267	0.8333	0.8053	-0.132
Mof_C 	C 	0.287	0.7306	0.8851	-0.071
Mof_H 	H 	0.3464	0.7178	0.9204	0.097
Mof_C 	C 	0.1938	0.6885	0.8874	2.07
Mof_H 	H 	0.1798	0.6426	0.9246	-0.568
Mof_C 	C 	0.2083	0.8006	0.8115	0.113
Mof_C 	C 	0.3	0.8215	0.7798	0.519
Mof_C 	C 	0.3771	0.7767	0.8298	-0.05
Mof_C 	C 	0.333	0.7281	0.8925	0.068
Mof_C 	C 	0.2287	0.7429	0.8812	-0.609
Mof_H 	H 	0.1446	0.8216	0.7899	-0.153
Mof_H 	H 	0.3084	0.8589	0.7332	-0.132
Mof_H 	H 	0.446	0.7788	0.8227	0.051
Mof_H 	H 	0.3672	0.692	0.9346	-0.054
Mof_H 	H 	0.1809	0.7185	0.9144	-0.727
Mof_O 	O 	0.4057	0.253	0.9265	-0.298
Mof_Co	Co	0.25934	0.40479	0.00355	1.157
Mof_O 	O 	0.2496	0.27966	0.95596	-0.399
Mof_C 	C 	0.2734	0.1696	0.8581	-0.1
Mof_Fe	Fe	0.21552	0.15413	0.24582	0.717
Mof_O 	O 	0.07825	0.0171	0.61726	-0.448
Mof_C 	C 	0.3376	0.1162	0.8183	-0.104
Mof_H 	H 	0.4072	0.1197	0.8342	0.072
Mof_Fe	Fe	0.24592	0.18168	0.72905	0.486
Mof_O 	O 	0.22777	0.95304	0.61877	-0.401
Mof_C 	C 	0.3011	0.0571	0.7549	-0.075
Mof_H 	H 	0.3458	0.0184	0.7314	0.042
Mof_O 	O 	0.08277	0.88972	0.47364	-0.65
Mof_H 	H 	0.0659	0.8737	0.4133	0.226
Mof_H 	H 	0.0623	0.8408	0.5087	0.228
Mof_C 	C 	0.2013	0.0545	0.7262	-0.147
Mof_C 	C 	0.1349	0.1053	0.7673	-0.077
Mof_H 	H 	0.0654	0.1017	0.751	0.062
Mof_O 	O 	0.2413	0.02954	0.45101	-0.47
Mof_C 	C 	0.172	0.1622	0.8335	-0.099
Mof_H 	H 	0.1266	0.1962	0.8616	0.069
Mof_O 	O 	0.0894	0.08745	0.44132	-0.453
Mof_C 	C 	0.1661	0.0033	0.6464	0.346
Mof_O 	O 	0.4015	0.3368	0.1778	-0.325
Mof_O 	O 	0.2426	0.35776	0.12697	-0.434
Mof_C 	C 	0.3146	0.2398	0.9191	0.34
Mof_C 	C 	0.1778	0.0851	0.4269	0.42
Mof_C 	C 	0.2137	0.1588	0.3744	-0.146
Mof_C 	C 	0.1477	0.2215	0.3373	-0.092
Mof_H 	H 	0.0821	0.2254	0.3538	0.069
Mof_C 	C 	0.1788	0.2791	0.2753	-0.107
Mof_H 	H 	0.1329	0.3199	0.2486	0.051
Mof_C 	C 	0.2767	0.2763	0.2528	-0.132
Mof_C 	C 	0.3441	0.2178	0.2961	-0.102
Mof_H 	H 	0.4119	0.2184	0.2848	0.066
Mof_C 	C 	0.3133	0.159	0.3552	-0.082
Mof_H 	H 	0.3596	0.1189	0.3826	0.064
Mof_C 	C 	0.3094	0.3283	0.1792	0.356
Mof_C 	C 	0.1021	0.1156	0.159	-0.149
Mof_H 	H 	0.0387	0.1428	0.1506	0.073
Mof_C 	C 	0.1899	0.1353	0.1191	-0.147
Mof_H 	H 	0.1955	0.1793	0.0777	0.072
Mof_C 	C 	0.2633	0.0811	0.1499	-0.035
Mof_H 	H 	0.3287	0.0805	0.1328	0.027
Mof_C 	C 	0.2301	0.0277	0.209	-0.234
Mof_H 	H 	0.269	0.9853	0.2409	0.131
Mof_C 	C 	0.1332	0.0442	0.2155	-0.043
Mof_H 	H 	0.0921	0.0141	0.2511	0.032
Mof_C 	C 	0.3749	0.2271	0.6756	-0.837
Mof_H 	H 	0.4429	0.2115	0.6879	0.314
Mof_C 	C 	0.324	0.2931	0.7168	0.443
Mof_H 	H 	0.352	0.3294	0.7616	-0.065
Mof_C 	C 	0.224	0.2953	0.6793	-0.405
Mof_H 	H 	0.1733	0.3333	0.6947	-0.129
Mof_C 	C 	0.213	0.2306	0.6149	-0.053
Mof_H 	H 	0.1536	0.2178	0.5796	0.07
Mof_C 	C 	0.3062	0.1885	0.6126	1.951
Mof_H 	H 	0.3202	0.1426	0.5754	-0.547
Mof_C 	C 	0.2917	0.3006	0.6885	0.095
Mof_C 	C 	0.2	0.3215	0.7202	0.501
Mof_C 	C 	0.1229	0.2767	0.6702	-0.074
Mof_C 	C 	0.167	0.2281	0.6075	0.078
Mof_C 	C 	0.2713	0.2429	0.6188	-0.608
Mof_H 	H 	0.3554	0.3216	0.7101	-0.143
Mof_H 	H 	0.1916	0.3589	0.7668	-0.134
Mof_H 	H 	0.054	0.2788	0.6773	0.039
Mof_H 	H 	0.1328	0.192	0.5654	-0.059
Mof_H 	H 	0.3191	0.2185	0.5856	-0.677
Mof_O 	O 	0.9057	0.247	0.4265	-0.291
Mof_Co	Co	0.75934	0.09521	0.50355	1.17
Mof_O 	O 	0.7496	0.22034	0.45596	-0.417
Mof_C 	C 	0.7734	0.3304	0.3581	-0.099
Mof_Fe	Fe	0.71552	0.34587	0.74582	0.716
Mof_O 	O 	0.57825	0.4829	0.11726	-0.439
Mof_C 	C 	0.8376	0.3838	0.3183	-0.105
Mof_H 	H 	0.9072	0.3803	0.3342	0.082
Mof_Fe	Fe	0.74592	0.31832	0.22905	0.495
Mof_O 	O 	0.72777	0.54696	0.11877	-0.449
Mof_C 	C 	0.8011	0.4429	0.2549	-0.069
Mof_H 	H 	0.8458	0.4816	0.2314	0.054
Mof_O 	O 	0.58277	0.61028	0.97364	-0.605
Mof_H 	H 	0.5659	0.6263	0.9133	0.227
Mof_H 	H 	0.5623	0.6592	0.0087	0.2
Mof_C 	C 	0.7013	0.4455	0.2262	-0.149
Mof_C 	C 	0.6349	0.3947	0.2673	-0.074
Mof_H 	H 	0.5654	0.3983	0.251	0.077
Mof_O 	O 	0.7413	0.47046	0.95101	-0.435
Mof_C 	C 	0.672	0.3378	0.3335	-0.098
Mof_H 	H 	0.6266	0.3038	0.3616	0.072
Mof_O 	O 	0.5894	0.41255	0.94132	-0.414
Mof_C 	C 	0.6661	0.4967	0.1464	0.386
Mof_O 	O 	0.9015	0.1632	0.6778	-0.309
Mof_O 	O 	0.7426	0.14224	0.62697	-0.426
Mof_C 	C 	0.8146	0.2602	0.4191	0.337
Mof_C 	C 	0.6778	0.4149	0.9269	0.411
Mof_C 	C 	0.7137	0.3412	0.8744	-0.129
Mof_C 	C 	0.6477	0.2785	0.8373	-0.095
Mof_H 	H 	0.5821	0.2746	0.8538	0.086
Mof_C 	C 	0.6788	0.2209	0.7753	-0.102
Mof_H 	H 	0.6329	0.1801	0.7486	0.059
Mof_C 	C 	0.7767	0.2237	0.7528	-0.128
Mof_C 	C 	0.8441	0.2822	0.7961	-0.096
Mof_H 	H 	0.9119	0.2816	0.7848	0.08
Mof_C 	C 	0.8133	0.341	0.8552	-0.084
Mof_H 	H 	0.8596	0.3811	0.8826	0.083
Mof_C 	C 	0.8094	0.1717	0.6792	0.352
Mof_C 	C 	0.6021	0.3844	0.659	-0.127
Mof_H 	H 	0.5387	0.3572	0.6506	0.089
Mof_C 	C 	0.6899	0.3647	0.6191	-0.113
Mof_H 	H 	0.6955	0.3207	0.5777	0.078
Mof_C 	C 	0.7633	0.4189	0.6499	-0.094
Mof_H 	H 	0.8287	0.4195	0.6328	0.069
Mof_C 	C 	0.7301	0.4723	0.709	-0.115
Mof_H 	H 	0.769	0.5147	0.7409	0.073
Mof_C 	C 	0.6332	0.4558	0.7155	-0.093
Mof_H 	H 	0.5921	0.4859	0.7511	0.072
Mof_C 	C 	0.8749	0.2729	0.1756	-0.811
Mof_H 	H 	0.9429	0.2885	0.1879	0.318
Mof_C 	C 	0.824	0.2069	0.2168	0.429
Mof_H 	H 	0.852	0.1706	0.2616	-0.063
Mof_C 	C 	0.724	0.2047	0.1793	-0.39
Mof_H 	H 	0.6733	0.1667	0.1947	-0.13
Mof_C 	C 	0.713	0.2694	0.1149	-0.043
Mof_H 	H 	0.6536	0.2822	0.0796	0.061
Mof_C 	C 	0.8062	0.3115	0.1126	1.89
Mof_H 	H 	0.8202	0.3574	0.0754	-0.535
Mof_C 	C 	0.7917	0.1994	0.1885	0.08
Mof_C 	C 	0.7	0.1785	0.2202	0.495
Mof_C 	C 	0.6229	0.2233	0.1702	-0.086
Mof_C 	C 	0.667	0.2719	0.1075	0.079
Mof_C 	C 	0.7713	0.2571	0.1188	-0.608
Mof_H 	H 	0.8554	0.1784	0.2101	-0.131
Mof_H 	H 	0.6916	0.1411	0.2668	-0.135
Mof_H 	H 	0.554	0.2212	0.1773	0.051
Mof_H 	H 	0.6328	0.308	0.0654	-0.06
Mof_H 	H 	0.8191	0.2815	0.0856	-0.651
Mof_O 	O 	0.5943	0.747	0.0735	-0.311
Mof_Co	Co	0.74066	0.59521	0.99645	1.194
Mof_O 	O 	0.7504	0.72034	0.04404	-0.434
Mof_C 	C 	0.7266	0.8304	0.1419	-0.109
Mof_Fe	Fe	0.78448	0.84587	0.75418	0.716
Mof_O 	O 	0.92175	0.9829	0.38274	-0.405
Mof_C 	C 	0.6624	0.8838	0.1817	-0.098
Mof_H 	H 	0.5928	0.8803	0.1658	0.07
Mof_Fe	Fe	0.75408	0.81832	0.27095	0.486
Mof_O 	O 	0.77223	0.04696	0.38123	-0.469
Mof_C 	C 	0.6989	0.9429	0.2451	-0.073
Mof_H 	H 	0.6542	0.9816	0.2686	0.06
Mof_O 	O 	0.91723	0.11028	0.52636	-0.657
Mof_H 	H 	0.9341	0.1263	0.5867	0.242
Mof_H 	H 	0.9377	0.1592	0.4913	0.247
Mof_C 	C 	0.7987	0.9455	0.2738	-0.143
Mof_C 	C 	0.8651	0.8947	0.2327	-0.076
Mof_H 	H 	0.9346	0.8983	0.249	0.095
Mof_O 	O 	0.7587	0.97046	0.54899	-0.431
Mof_C 	C 	0.828	0.8378	0.1665	-0.09
Mof_H 	H 	0.8734	0.8038	0.1384	0.074
Mof_O 	O 	0.9106	0.91255	0.55868	-0.399
Mof_C 	C 	0.8339	0.9967	0.3536	0.419
Mof_O 	O 	0.5985	0.6632	0.8222	-0.315
Mof_O 	O 	0.7574	0.64224	0.87303	-0.411
Mof_C 	C 	0.6854	0.7602	0.0809	0.341
Mof_C 	C 	0.8222	0.9149	0.5731	0.404
Mof_C 	C 	0.7863	0.8412	0.6256	-0.128
Mof_C 	C 	0.8523	0.7785	0.6627	-0.098
Mof_H 	H 	0.9179	0.7746	0.6462	0.098
Mof_C 	C 	0.8212	0.7209	0.7247	-0.1
Mof_H 	H 	0.8671	0.6801	0.7514	0.069
Mof_C 	C 	0.7233	0.7237	0.7472	-0.13
Mof_C 	C 	0.6559	0.7822	0.7039	-0.095
Mof_H 	H 	0.5881	0.7816	0.7152	0.069
Mof_C 	C 	0.6867	0.841	0.6448	-0.089
Mof_H 	H 	0.6404	0.8811	0.6174	0.077
Mof_C 	C 	0.6906	0.6717	0.8208	0.354
Mof_C 	C 	0.8979	0.8844	0.841	-0.106
Mof_H 	H 	0.9613	0.8572	0.8494	0.105
Mof_C 	C 	0.8101	0.8647	0.8809	-0.085
Mof_H 	H 	0.8045	0.8207	0.9223	0.085
Mof_C 	C 	0.7367	0.9189	0.8501	-0.148
Mof_H 	H 	0.6713	0.9195	0.8672	0.095
Mof_C 	C 	0.7699	0.9723	0.791	-0.006
Mof_H 	H 	0.731	0.0147	0.7591	0.013
Mof_C 	C 	0.8668	0.9558	0.7845	-0.14
Mof_H 	H 	0.9079	0.9859	0.7489	0.11
Mof_C 	C 	0.6251	0.7729	0.3244	-0.851
Mof_H 	H 	0.5571	0.7885	0.3121	0.322
Mof_C 	C 	0.676	0.7069	0.2832	0.445
Mof_H 	H 	0.648	0.6706	0.2384	-0.066
Mof_C 	C 	0.776	0.7047	0.3207	-0.411
Mof_H 	H 	0.8267	0.6667	0.3053	-0.131
Mof_C 	C 	0.787	0.7694	0.3851	-0.061
Mof_H 	H 	0.8464	0.7822	0.4204	0.087
Mof_C 	C 	0.6938	0.8115	0.3874	1.992
Mof_H 	H 	0.6798	0.8574	0.4246	-0.552
Mof_C 	C 	0.7083	0.6994	0.3115	0.099
Mof_C 	C 	0.8	0.6785	0.2798	0.511
Mof_C 	C 	0.8771	0.7233	0.3298	-0.062
Mof_C 	C 	0.833	0.7719	0.3925	0.068
Mof_C 	C 	0.7287	0.7571	0.3812	-0.604
Mof_H 	H 	0.6446	0.6784	0.2899	-0.143
Mof_H 	H 	0.8084	0.6411	0.2332	-0.132
Mof_H 	H 	0.946	0.7212	0.3227	0.063
Mof_H 	H 	0.8672	0.808	0.4346	-0.054
Mof_H 	H 	0.6809	0.7815	0.4144	-0.696
Mof_Co	Co	0.5	0.5	-0	1.189
Mof_Co	Co	2.42119e-33	3.86376e-33	0.5	1.174
_end
