data_functionalizedCrystal
_audit_creation_method	'EQeq! by Chris Wilmer'
_symmetry_space_group_name_H-M	'P1'
_symmetry_Int_Tables_number	1
_symmetry_cell_setting	triclinic
loop_
_symmetry_equiv_pos_as_xyz
  x,y,z
_cell_length_a	23.167
_cell_length_b	23.167
_cell_length_c	26.46
_cell_angle_alpha	86.5322
_cell_angle_beta	86.5322
_cell_angle_gamma	84.9234
loop_
_atom_site_label
_atom_site_type_symbol
_atom_site_fract_x
_atom_site_fract_y
_atom_site_fract_z
_atom_site_charge
Mof_Ag	Ag	0.24547	0.00095	0.93539	0.644
Mof_Ag	Ag	0.23975	0.99167	0.06426	0.644
Mof_Ag	Ag	0.49264	0.80896	0.46578	0.608
Mof_Ag	Ag	0.52763	0.67843	0.47324	0.636
Mof_Ag	Ag	0.5994	0.53308	0.7131	0.734
Mof_Ag	Ag	0.48472	0.98238	0.22919	0.854
Mof_Ag	Ag	0.99905	0.75453	0.56461	0.645
Mof_Ag	Ag	0.00833	0.76025	0.43574	0.649
Mof_Ag	Ag	0.19104	0.50736	0.03422	0.6
Mof_Ag	Ag	0.32157	0.47237	0.02676	0.633
Mof_Ag	Ag	0.46692	0.4006	0.7869	0.734
Mof_Ag	Ag	0.01762	0.51528	0.27081	0.852
Mof_Ag	Ag	0.75453	0.99905	0.06461	0.643
Mof_Ag	Ag	0.76025	0.00833	0.93574	0.643
Mof_Ag	Ag	0.50736	0.19104	0.53422	0.607
Mof_Ag	Ag	0.47237	0.32157	0.52676	0.635
Mof_Ag	Ag	0.4006	0.46692	0.2869	0.733
Mof_Ag	Ag	0.51528	0.01762	0.77081	0.853
Mof_Ag	Ag	0.00095	0.24547	0.43539	0.644
Mof_Ag	Ag	0.99167	0.23975	0.56426	0.648
Mof_Ag	Ag	0.80896	0.49264	0.96578	0.599
Mof_Ag	Ag	0.67843	0.52763	0.97324	0.632
Mof_Ag	Ag	0.53308	0.5994	0.2131	0.733
Mof_Ag	Ag	0.98238	0.48472	0.72919	0.851
Mof_Ag	Ag	0.02052	0.97948	0.75	0.904
Mof_Ag	Ag	0.97948	0.02052	0.25	0.904
Mof_H 	H 	0.282	0.0492	0.171	0.047
Mof_H 	H 	0.3604	0.0446	0.2172	0.05
Mof_H 	H 	0.4423	0.9319	0.1279	0.02
Mof_H 	H 	0.4154	0.8738	0.0123	0.311
Mof_H 	H 	0.4525	0.9179	0.0356	0.283
Mof_H 	H 	0.4334	0.8636	0.0685	0.279
Mof_H 	H 	0.3593	0.8707	0.9084	0.122
Mof_H 	H 	0.3646	0.82	0.8347	0.057
Mof_H 	H 	0.2905	0.7633	0.8191	0.074
Mof_H 	H 	0.2134	0.7538	0.8788	0.029
Mof_H 	H 	0.2096	0.8034	0.9527	0.081
Mof_H 	H 	0.1475	0.8691	0.0954	0.145
Mof_H 	H 	0.1515	0.8155	0.1746	0.021
Mof_H 	H 	0.2345	0.7537	0.1914	0.087
Mof_H 	H 	0.3076	0.744	0.1306	0
Mof_H 	H 	0.3099	0.8015	0.0592	0.104
Mof_H 	H 	0.0977	0.8687	0.9784	0.336
Mof_H 	H 	0.0531	0.9051	0.9444	0.328
Mof_H 	H 	0.0972	0.8574	0.9207	0.328
Mof_H 	H 	0.0681	0.9285	0.86	0.042
Mof_H 	H 	0.1301	0.0485	0.7652	0.049
Mof_H 	H 	0.2034	0.0554	0.8223	0.034
Mof_H 	H 	0.9519	0.3009	0.3207	0.044
Mof_H 	H 	0.9562	0.3902	0.2694	0.023
Mof_H 	H 	0.0457	0.4517	0.3695	0.023
Mof_H 	H 	0.0948	0.4062	0.4894	0.359
Mof_H 	H 	0.048	0.448	0.4623	0.339
Mof_H 	H 	0.1071	0.4295	0.4333	0.357
Mof_H 	H 	0.1874	0.1796	0.5551	0.084
Mof_H 	H 	0.241	0.184	0.6271	0.044
Mof_H 	H 	0.231	0.2578	0.6796	0.109
Mof_H 	H 	0.1819	0.3447	0.6495	0.091
Mof_H 	H 	0.1237	0.3491	0.5801	0.122
Mof_H 	H 	0.1303	0.1383	0.4134	0.099
Mof_H 	H 	0.1891	0.1403	0.3361	0.073
Mof_H 	H 	0.2271	0.2243	0.3067	0.089
Mof_H 	H 	0.2334	0.2998	0.3582	0.076
Mof_H 	H 	0.1816	0.297	0.4416	0.081
Mof_H 	H 	0.1297	0.0825	0.5218	0.338
Mof_H 	H 	0.0923	0.0375	0.5522	0.329
Mof_H 	H 	0.1416	0.0646	0.5786	0.358
Mof_H 	H 	0.0697	0.0405	0.6444	0.02
Mof_H 	H 	0.9569	0.1133	0.7416	0.035
Mof_H 	H 	0.9414	0.1906	0.6832	0.033
Mof_H 	H 	0.5995	0.5557	0.5157	0.106
Mof_H 	H 	0.6231	0.5131	0.5958	0.024
Mof_H 	H 	0.511	0.6268	0.6637	0.034
Mof_H 	H 	0.416	0.7456	0.6199	0.253
Mof_H 	H 	0.4745	0.7343	0.6471	0.259
Mof_H 	H 	0.4283	0.6885	0.6539	0.254
Mof_H 	H 	0.35	0.8356	0.5746	0.064
Mof_H 	H 	0.2859	0.9179	0.5698	0.071
Mof_H 	H 	0.2351	0.9411	0.4981	0.106
Mof_H 	H 	0.2471	0.8811	0.4306	0.07
Mof_H 	H 	0.3127	0.7989	0.4341	0.082
Mof_H 	H 	0.3295	0.6789	0.5517	0.073
Mof_H 	H 	0.2606	0.6068	0.5729	0.067
Mof_H 	H 	0.2492	0.5464	0.5099	0.11
Mof_H 	H 	0.2946	0.5548	0.4315	0.069
Mof_H 	H 	0.3493	0.6317	0.4086	0.059
Mof_H 	H 	0.3805	0.7349	0.3396	0.287
Mof_H 	H 	0.4277	0.7539	0.2984	0.301
Mof_H 	H 	0.3736	0.7968	0.3123	0.307
Mof_H 	H 	0.4374	0.8668	0.285	0.036
Mof_H 	H 	0.5561	0.9627	0.3258	0.017
Mof_H 	H 	0.5739	0.8997	0.3922	0.036
Mof_H 	H 	0.475	0.5966	0.4057	0.016
Mof_H 	H 	0.4678	0.5722	0.3189	-0.033
Mof_H 	H 	0.5828	0.6834	0.2798	0.062
Mof_H 	H 	0.6479	0.7887	0.3397	0.36
Mof_H 	H 	0.6016	0.7736	0.3028	0.387
Mof_H 	H 	0.6554	0.7296	0.3133	0.427
Mof_H 	H 	0.6671	0.8769	0.4144	0.066
Mof_H 	H 	0.7189	0.9543	0.4313	0.082
Mof_H 	H 	0.7552	0.9588	0.5101	0.098
Mof_H 	H 	0.7389	0.8873	0.5733	0.085
Mof_H 	H 	0.6886	0.809	0.5561	0.084
Mof_H 	H 	0.6469	0.6837	0.6021	0.117
Mof_H 	H 	0.7105	0.6029	0.6169	0.087
Mof_H 	H 	0.7688	0.5646	0.5506	0.108
Mof_H 	H 	0.7644	0.6084	0.4699	0.086
Mof_H 	H 	0.7017	0.6905	0.4549	0.114
Mof_H 	H 	0.5823	0.8067	0.6283	0.365
Mof_H 	H 	0.5252	0.8424	0.6471	0.308
Mof_H 	H 	0.5785	0.8747	0.6249	0.341
Mof_H 	H 	0.5031	0.9365	0.6119	0.063
Mof_H 	H 	0.4008	0.0154	0.5149	0.05
Mof_H 	H 	0.4118	0.9354	0.4681	0.068
Mof_H 	H 	0.9508	0.718	0.329	0.047
Mof_H 	H 	0.9554	0.6396	0.2828	0.05
Mof_H 	H 	0.0681	0.5577	0.3721	0.02
Mof_H 	H 	0.1262	0.5846	0.4877	0.314
Mof_H 	H 	0.0821	0.5475	0.4644	0.285
Mof_H 	H 	0.1364	0.5666	0.4315	0.28
Mof_H 	H 	0.1293	0.6407	0.5916	0.122
Mof_H 	H 	0.18	0.6354	0.6653	0.056
Mof_H 	H 	0.2367	0.7095	0.6809	0.074
Mof_H 	H 	0.2462	0.7866	0.6212	0.028
Mof_H 	H 	0.1966	0.7904	0.5473	0.079
Mof_H 	H 	0.1309	0.8525	0.4046	0.145
Mof_H 	H 	0.1845	0.8485	0.3254	0.021
Mof_H 	H 	0.2463	0.7655	0.3086	0.087
Mof_H 	H 	0.256	0.6924	0.3694	0.001
Mof_H 	H 	0.1985	0.6901	0.4408	0.104
Mof_H 	H 	0.1313	0.9023	0.5216	0.329
Mof_H 	H 	0.0949	0.9469	0.5556	0.322
Mof_H 	H 	0.1426	0.9028	0.5793	0.323
Mof_H 	H 	0.0715	0.9319	0.64	0.042
Mof_H 	H 	0.9515	0.8699	0.7348	0.049
Mof_H 	H 	0.9446	0.7966	0.6777	0.034
Mof_H 	H 	0.6991	0.0481	0.1793	0.044
Mof_H 	H 	0.6098	0.0438	0.2306	0.023
Mof_H 	H 	0.5483	0.9543	0.1305	0.023
Mof_H 	H 	0.5938	0.9052	0.0106	0.358
Mof_H 	H 	0.552	0.952	0.0377	0.338
Mof_H 	H 	0.5705	0.8929	0.0667	0.357
Mof_H 	H 	0.8204	0.8126	0.9449	0.083
Mof_H 	H 	0.816	0.759	0.8729	0.043
Mof_H 	H 	0.7422	0.769	0.8204	0.109
Mof_H 	H 	0.6553	0.8181	0.8505	0.091
Mof_H 	H 	0.6509	0.8763	0.9199	0.123
Mof_H 	H 	0.8617	0.8697	0.0866	0.1
Mof_H 	H 	0.8597	0.8109	0.1639	0.073
Mof_H 	H 	0.7757	0.7729	0.1933	0.089
Mof_H 	H 	0.7002	0.7666	0.1418	0.076
Mof_H 	H 	0.703	0.8184	0.0584	0.081
Mof_H 	H 	0.9175	0.8703	0.9782	0.334
Mof_H 	H 	0.9625	0.9077	0.9478	0.324
Mof_H 	H 	0.9354	0.8584	0.9214	0.355
Mof_H 	H 	0.9595	0.9303	0.8556	0.019
Mof_H 	H 	0.8867	0.0431	0.7584	0.035
Mof_H 	H 	0.8094	0.0586	0.8168	0.034
Mof_H 	H 	0.4443	0.4005	0.9843	0.106
Mof_H 	H 	0.4869	0.3769	0.9042	0.024
Mof_H 	H 	0.3732	0.489	0.8363	0.034
Mof_H 	H 	0.2544	0.584	0.8801	0.253
Mof_H 	H 	0.2657	0.5255	0.8529	0.259
Mof_H 	H 	0.3115	0.5717	0.8461	0.254
Mof_H 	H 	0.1644	0.65	0.9254	0.075
Mof_H 	H 	0.0821	0.7141	0.9302	0.057
Mof_H 	H 	0.0589	0.7649	0.0019	0.118
Mof_H 	H 	0.1189	0.7529	0.0694	0.057
Mof_H 	H 	0.2011	0.6873	0.0659	0.094
Mof_H 	H 	0.3211	0.6705	0.9483	0.069
Mof_H 	H 	0.3932	0.7394	0.9271	0.072
Mof_H 	H 	0.4536	0.7508	0.9901	0.105
Mof_H 	H 	0.4452	0.7054	0.0685	0.075
Mof_H 	H 	0.3683	0.6507	0.0914	0.054
Mof_H 	H 	0.2651	0.6195	0.1604	0.287
Mof_H 	H 	0.2461	0.5723	0.2016	0.301
Mof_H 	H 	0.2032	0.6264	0.1877	0.307
Mof_H 	H 	0.1332	0.5626	0.215	0.036
Mof_H 	H 	0.0373	0.4439	0.1742	0.016
Mof_H 	H 	0.1003	0.4261	0.1078	0.036
Mof_H 	H 	0.4034	0.525	0.0943	0.016
Mof_H 	H 	0.4278	0.5322	0.1811	-0.033
Mof_H 	H 	0.3166	0.4172	0.2202	0.062
Mof_H 	H 	0.2113	0.3521	0.1603	0.36
Mof_H 	H 	0.2264	0.3984	0.1972	0.387
Mof_H 	H 	0.2704	0.3446	0.1867	0.427
Mof_H 	H 	0.1231	0.3329	0.0856	0.058
Mof_H 	H 	0.0457	0.2811	0.0687	0.09
Mof_H 	H 	0.0412	0.2448	0.9899	0.09
Mof_H 	H 	0.1127	0.2611	0.9267	0.094
Mof_H 	H 	0.191	0.3114	0.9439	0.076
Mof_H 	H 	0.3163	0.3531	0.8979	0.118
Mof_H 	H 	0.3971	0.2895	0.8831	0.086
Mof_H 	H 	0.4354	0.2312	0.9494	0.109
Mof_H 	H 	0.3916	0.2356	0.0301	0.085
Mof_H 	H 	0.3095	0.2983	0.0451	0.115
Mof_H 	H 	0.1933	0.4177	0.8717	0.366
Mof_H 	H 	0.1576	0.4748	0.8529	0.31
Mof_H 	H 	0.1253	0.4215	0.8751	0.343
Mof_H 	H 	0.0635	0.4969	0.8881	0.062
Mof_H 	H 	0.9846	0.5992	0.9851	0.03
Mof_H 	H 	0.0646	0.5882	0.0319	0.079
Mof_H 	H 	0.718	0.9508	0.829	0.047
Mof_H 	H 	0.6396	0.9554	0.7828	0.05
Mof_H 	H 	0.5577	0.0681	0.8721	0.02
Mof_H 	H 	0.5846	0.1262	0.9877	0.311
Mof_H 	H 	0.5475	0.0821	0.9644	0.283
Mof_H 	H 	0.5666	0.1364	0.9315	0.279
Mof_H 	H 	0.6407	0.1293	0.0916	0.122
Mof_H 	H 	0.6354	0.18	0.1653	0.057
Mof_H 	H 	0.7095	0.2367	0.1809	0.074
Mof_H 	H 	0.7866	0.2462	0.1212	0.029
Mof_H 	H 	0.7904	0.1966	0.0473	0.081
Mof_H 	H 	0.8525	0.1309	0.9046	0.145
Mof_H 	H 	0.8485	0.1845	0.8254	0.021
Mof_H 	H 	0.7655	0.2463	0.8086	0.087
Mof_H 	H 	0.6924	0.256	0.8694	0
Mof_H 	H 	0.6901	0.1985	0.9408	0.104
Mof_H 	H 	0.9023	0.1313	0.0216	0.336
Mof_H 	H 	0.9469	0.0949	0.0556	0.328
Mof_H 	H 	0.9028	0.1426	0.0793	0.328
Mof_H 	H 	0.9319	0.0715	0.14	0.042
Mof_H 	H 	0.8699	0.9515	0.2348	0.049
Mof_H 	H 	0.7966	0.9446	0.1777	0.034
Mof_H 	H 	0.0481	0.6991	0.6793	0.044
Mof_H 	H 	0.0438	0.6098	0.7306	0.023
Mof_H 	H 	0.9543	0.5483	0.6305	0.023
Mof_H 	H 	0.9052	0.5938	0.5106	0.359
Mof_H 	H 	0.952	0.552	0.5377	0.339
Mof_H 	H 	0.8929	0.5705	0.5667	0.357
Mof_H 	H 	0.8126	0.8204	0.4449	0.084
Mof_H 	H 	0.759	0.816	0.3729	0.044
Mof_H 	H 	0.769	0.7422	0.3204	0.109
Mof_H 	H 	0.8181	0.6553	0.3505	0.091
Mof_H 	H 	0.8763	0.6509	0.4199	0.122
Mof_H 	H 	0.8697	0.8617	0.5866	0.099
Mof_H 	H 	0.8109	0.8597	0.6639	0.073
Mof_H 	H 	0.7729	0.7757	0.6933	0.089
Mof_H 	H 	0.7666	0.7002	0.6418	0.076
Mof_H 	H 	0.8184	0.703	0.5584	0.081
Mof_H 	H 	0.8703	0.9175	0.4782	0.338
Mof_H 	H 	0.9077	0.9625	0.4478	0.329
Mof_H 	H 	0.8584	0.9354	0.4214	0.358
Mof_H 	H 	0.9303	0.9595	0.3556	0.02
Mof_H 	H 	0.0431	0.8867	0.2584	0.035
Mof_H 	H 	0.0586	0.8094	0.3168	0.033
Mof_H 	H 	0.4005	0.4443	0.4843	0.106
Mof_H 	H 	0.3769	0.4869	0.4042	0.024
Mof_H 	H 	0.489	0.3732	0.3363	0.034
Mof_H 	H 	0.584	0.2544	0.3801	0.253
Mof_H 	H 	0.5255	0.2657	0.3529	0.259
Mof_H 	H 	0.5717	0.3115	0.3461	0.254
Mof_H 	H 	0.65	0.1644	0.4254	0.064
Mof_H 	H 	0.7141	0.0821	0.4302	0.071
Mof_H 	H 	0.7649	0.0589	0.5019	0.106
Mof_H 	H 	0.7529	0.1189	0.5694	0.07
Mof_H 	H 	0.6873	0.2011	0.5659	0.082
Mof_H 	H 	0.6705	0.3211	0.4483	0.073
Mof_H 	H 	0.7394	0.3932	0.4271	0.067
Mof_H 	H 	0.7508	0.4536	0.4901	0.11
Mof_H 	H 	0.7054	0.4452	0.5685	0.069
Mof_H 	H 	0.6507	0.3683	0.5914	0.059
Mof_H 	H 	0.6195	0.2651	0.6604	0.287
Mof_H 	H 	0.5723	0.2461	0.7016	0.301
Mof_H 	H 	0.6264	0.2032	0.6877	0.307
Mof_H 	H 	0.5626	0.1332	0.715	0.036
Mof_H 	H 	0.4439	0.0373	0.6742	0.017
Mof_H 	H 	0.4261	0.1003	0.6078	0.036
Mof_H 	H 	0.525	0.4034	0.5943	0.016
Mof_H 	H 	0.5322	0.4278	0.6811	-0.033
Mof_H 	H 	0.4172	0.3166	0.7202	0.062
Mof_H 	H 	0.3521	0.2113	0.6603	0.36
Mof_H 	H 	0.3984	0.2264	0.6972	0.387
Mof_H 	H 	0.3446	0.2704	0.6867	0.427
Mof_H 	H 	0.3329	0.1231	0.5856	0.066
Mof_H 	H 	0.2811	0.0457	0.5687	0.082
Mof_H 	H 	0.2448	0.0412	0.4899	0.098
Mof_H 	H 	0.2611	0.1127	0.4267	0.085
Mof_H 	H 	0.3114	0.191	0.4439	0.084
Mof_H 	H 	0.3531	0.3163	0.3979	0.117
Mof_H 	H 	0.2895	0.3971	0.3831	0.087
Mof_H 	H 	0.2312	0.4354	0.4494	0.108
Mof_H 	H 	0.2356	0.3916	0.5301	0.086
Mof_H 	H 	0.2983	0.3095	0.5451	0.114
Mof_H 	H 	0.4177	0.1933	0.3717	0.365
Mof_H 	H 	0.4748	0.1576	0.3529	0.308
Mof_H 	H 	0.4215	0.1253	0.3751	0.341
Mof_H 	H 	0.4969	0.0635	0.3881	0.063
Mof_H 	H 	0.5992	0.9846	0.4851	0.05
Mof_H 	H 	0.5882	0.0646	0.5319	0.068
Mof_H 	H 	0.0492	0.282	0.671	0.047
Mof_H 	H 	0.0446	0.3604	0.7172	0.05
Mof_H 	H 	0.9319	0.4423	0.6279	0.02
Mof_H 	H 	0.8738	0.4154	0.5123	0.314
Mof_H 	H 	0.9179	0.4525	0.5356	0.285
Mof_H 	H 	0.8636	0.4334	0.5685	0.28
Mof_H 	H 	0.8707	0.3593	0.4084	0.122
Mof_H 	H 	0.82	0.3646	0.3347	0.056
Mof_H 	H 	0.7633	0.2905	0.3191	0.074
Mof_H 	H 	0.7538	0.2134	0.3788	0.028
Mof_H 	H 	0.8034	0.2096	0.4527	0.079
Mof_H 	H 	0.8691	0.1475	0.5954	0.145
Mof_H 	H 	0.8155	0.1515	0.6746	0.021
Mof_H 	H 	0.7537	0.2345	0.6914	0.087
Mof_H 	H 	0.744	0.3076	0.6306	0.001
Mof_H 	H 	0.8015	0.3099	0.5592	0.104
Mof_H 	H 	0.8687	0.0977	0.4784	0.329
Mof_H 	H 	0.9051	0.0531	0.4444	0.322
Mof_H 	H 	0.8574	0.0972	0.4207	0.323
Mof_H 	H 	0.9285	0.0681	0.36	0.042
Mof_H 	H 	0.0485	0.1301	0.2652	0.049
Mof_H 	H 	0.0554	0.2034	0.3223	0.034
Mof_H 	H 	0.3009	0.9519	0.8207	0.044
Mof_H 	H 	0.3902	0.9562	0.7694	0.023
Mof_H 	H 	0.4517	0.0457	0.8695	0.023
Mof_H 	H 	0.4062	0.0948	0.9894	0.358
Mof_H 	H 	0.448	0.048	0.9623	0.338
Mof_H 	H 	0.4295	0.1071	0.9333	0.357
Mof_H 	H 	0.1796	0.1874	0.0551	0.083
Mof_H 	H 	0.184	0.241	0.1271	0.043
Mof_H 	H 	0.2578	0.231	0.1796	0.109
Mof_H 	H 	0.3447	0.1819	0.1495	0.091
Mof_H 	H 	0.3491	0.1237	0.0801	0.123
Mof_H 	H 	0.1383	0.1303	0.9134	0.1
Mof_H 	H 	0.1403	0.1891	0.8361	0.073
Mof_H 	H 	0.2243	0.2271	0.8067	0.089
Mof_H 	H 	0.2998	0.2334	0.8582	0.076
Mof_H 	H 	0.297	0.1816	0.9416	0.081
Mof_H 	H 	0.0825	0.1297	0.0218	0.334
Mof_H 	H 	0.0375	0.0923	0.0522	0.324
Mof_H 	H 	0.0646	0.1416	0.0786	0.355
Mof_H 	H 	0.0405	0.0697	0.1444	0.019
Mof_H 	H 	0.1133	0.9569	0.2416	0.035
Mof_H 	H 	0.1906	0.9414	0.1832	0.034
Mof_H 	H 	0.5557	0.5995	0.0157	0.106
Mof_H 	H 	0.5131	0.6231	0.0958	0.024
Mof_H 	H 	0.6268	0.511	0.1637	0.034
Mof_H 	H 	0.7456	0.416	0.1199	0.253
Mof_H 	H 	0.7343	0.4745	0.1471	0.259
Mof_H 	H 	0.6885	0.4283	0.1539	0.254
Mof_H 	H 	0.8356	0.35	0.0746	0.075
Mof_H 	H 	0.9179	0.2859	0.0698	0.057
Mof_H 	H 	0.9411	0.2351	0.9981	0.118
Mof_H 	H 	0.8811	0.2471	0.9306	0.057
Mof_H 	H 	0.7989	0.3127	0.9341	0.094
Mof_H 	H 	0.6789	0.3295	0.0517	0.069
Mof_H 	H 	0.6068	0.2606	0.0729	0.072
Mof_H 	H 	0.5464	0.2492	0.0099	0.105
Mof_H 	H 	0.5548	0.2946	0.9315	0.075
Mof_H 	H 	0.6317	0.3493	0.9086	0.054
Mof_H 	H 	0.7349	0.3805	0.8396	0.287
Mof_H 	H 	0.7539	0.4277	0.7984	0.301
Mof_H 	H 	0.7968	0.3736	0.8123	0.307
Mof_H 	H 	0.8668	0.4374	0.785	0.036
Mof_H 	H 	0.9627	0.5561	0.8258	0.016
Mof_H 	H 	0.8997	0.5739	0.8922	0.036
Mof_H 	H 	0.5966	0.475	0.9057	0.016
Mof_H 	H 	0.5722	0.4678	0.8189	-0.033
Mof_H 	H 	0.6834	0.5828	0.7798	0.062
Mof_H 	H 	0.7887	0.6479	0.8397	0.36
Mof_H 	H 	0.7736	0.6016	0.8028	0.387
Mof_H 	H 	0.7296	0.6554	0.8133	0.427
Mof_H 	H 	0.8769	0.6671	0.9144	0.058
Mof_H 	H 	0.9543	0.7189	0.9313	0.09
Mof_H 	H 	0.9588	0.7552	0.0101	0.09
Mof_H 	H 	0.8873	0.7389	0.0733	0.094
Mof_H 	H 	0.809	0.6886	0.0561	0.076
Mof_H 	H 	0.6837	0.6469	0.1021	0.118
Mof_H 	H 	0.6029	0.7105	0.1169	0.086
Mof_H 	H 	0.5646	0.7688	0.0506	0.109
Mof_H 	H 	0.6084	0.7644	0.9699	0.085
Mof_H 	H 	0.6905	0.7017	0.9549	0.115
Mof_H 	H 	0.8067	0.5823	0.1283	0.366
Mof_H 	H 	0.8424	0.5252	0.1471	0.31
Mof_H 	H 	0.8747	0.5785	0.1249	0.343
Mof_H 	H 	0.9365	0.5031	0.1119	0.062
Mof_H 	H 	0.0154	0.4008	0.0149	0.03
Mof_H 	H 	0.9354	0.4118	0.9681	0.079
Mof_C 	C 	0.31492	0.02538	0.16168	0.003
Mof_C 	C 	0.36167	0.02215	0.18913	0.097
Mof_C 	C 	0.40957	0.95675	0.13577	0.12
Mof_C 	C 	0.36472	0.96046	0.10586	-0.041
Mof_C 	C 	0.36504	0.92856	0.06103	0.248
Mof_C 	C 	0.4221	0.89246	0.04256	-0.748
Mof_C 	C 	0.28043	0.87329	0.98402	0.017
Mof_C 	C 	0.28392	0.84136	0.93764	0.064
Mof_C 	C 	0.33029	0.84697	0.90243	-0.122
Mof_C 	C 	0.33321	0.81701	0.85811	0.032
Mof_C 	C 	0.28907	0.78269	0.84903	-0.092
Mof_C 	C 	0.24269	0.77721	0.88465	0.025
Mof_C 	C 	0.24045	0.80683	0.92888	-0.115
Mof_C 	C 	0.18026	0.845	0.1036	-0.172
Mof_C 	C 	0.18256	0.8123	0.15063	0.083
Mof_C 	C 	0.23202	0.77512	0.16062	-0.157
Mof_C 	C 	0.27625	0.77095	0.12471	0.102
Mof_C 	C 	0.2772	0.8034	0.08141	-0.177
Mof_C 	C 	0.22914	0.8397	0.07013	0.104
Mof_C 	C 	0.22719	0.87269	0.01992	-0.02
Mof_C 	C 	0.13442	0.93062	0.9332	0.309
Mof_C 	C 	0.09182	0.88652	0.94524	-0.884
Mof_C 	C 	0.13483	0.96489	0.88418	-0.039
Mof_C 	C 	0.09463	0.95587	0.85172	0.082
Mof_C 	C 	0.1311	0.02554	0.79529	0.064
Mof_C 	C 	0.17433	0.03075	0.83124	0.03
Mof_C 	C 	0.97111	0.33115	0.33149	0.011
Mof_C 	C 	0.97448	0.3855	0.29988	0.062
Mof_C 	C 	0.02626	0.42174	0.35852	0.116
Mof_C 	C 	0.022	0.37084	0.38967	-0.035
Mof_C 	C 	0.05152	0.36522	0.4387	0.327
Mof_C 	C 	0.07773	0.41697	0.4577	-0.928
Mof_C 	C 	0.11678	0.26708	0.51629	0.014
Mof_C 	C 	0.1484	0.2638	0.56308	0.053
Mof_C 	C 	0.1846	0.2121	0.57442	-0.097
Mof_C 	C 	0.21571	0.21593	0.61842	0.037
Mof_C 	C 	0.2128	0.26044	0.64901	-0.081
Mof_C 	C 	0.18043	0.31145	0.63178	0.042
Mof_C 	C 	0.14614	0.3154	0.5898	-0.107
Mof_C 	C 	0.15164	0.16934	0.40284	-0.103
Mof_C 	C 	0.18475	0.17235	0.35599	0.011
Mof_C 	C 	0.21051	0.22193	0.33959	-0.058
Mof_C 	C 	0.21282	0.26838	0.36961	0.007
Mof_C 	C 	0.18218	0.26712	0.41965	-0.094
Mof_C 	C 	0.15423	0.21713	0.43112	0.054
Mof_C 	C 	0.12167	0.21737	0.4808	-0.006
Mof_C 	C 	0.06921	0.12067	0.57124	0.315
Mof_C 	C 	0.11209	0.07187	0.55443	-0.881
Mof_C 	C 	0.03555	0.11839	0.61864	-0.031
Mof_C 	C 	0.04326	0.07134	0.65318	0.121
Mof_C 	C 	0.97689	0.11319	0.71008	0.04
Mof_C 	C 	0.96782	0.15978	0.67452	0.02
Mof_C 	C 	0.58242	0.57058	0.5454	-0.026
Mof_C 	C 	0.59578	0.5449	0.59323	0.032
Mof_C 	C 	0.53021	0.61243	0.63454	0.044
Mof_C 	C 	0.51964	0.63894	0.585	-0.026
Mof_C 	C 	0.47414	0.68496	0.58313	0.207
Mof_C 	C 	0.44548	0.7164	0.63063	-0.703
Mof_C 	C 	0.38054	0.75568	0.50231	0.01
Mof_C 	C 	0.33779	0.80917	0.50465	0.043
Mof_C 	C 	0.32968	0.84478	0.54552	-0.087
Mof_C 	C 	0.2912	0.894	0.54263	0.003
Mof_C 	C 	0.26066	0.90782	0.49981	-0.077
Mof_C 	C 	0.26814	0.87208	0.4593	0.034
Mof_C 	C 	0.3072	0.82264	0.46145	-0.084
Mof_C 	C 	0.31928	0.65576	0.52675	-0.081
Mof_C 	C 	0.27953	0.61089	0.54099	0.012
Mof_C 	C 	0.2732	0.57644	0.50321	-0.062
Mof_C 	C 	0.29952	0.58192	0.45505	-0.003
Mof_C 	C 	0.33332	0.62754	0.44157	-0.086
Mof_C 	C 	0.34326	0.66562	0.47535	0.047
Mof_C 	C 	0.37551	0.71351	0.46892	0.002
Mof_C 	C 	0.43398	0.79046	0.36599	0.295
Mof_C 	C 	0.40093	0.76687	0.3253	-0.835
Mof_C 	C 	0.46789	0.83889	0.35325	-0.058
Mof_C 	C 	0.46356	0.87524	0.30834	0.111
Mof_C 	C 	0.5345	0.93066	0.33121	0.049
Mof_C 	C 	0.54308	0.89486	0.37227	-0.002
Mof_C 	C 	0.49563	0.61657	0.38003	0.028
Mof_C 	C 	0.49259	0.59951	0.32653	0.057
Mof_C 	C 	0.55994	0.6656	0.30528	0.08
Mof_C 	C 	0.56248	0.68294	0.35642	-0.04
Mof_C 	C 	0.59393	0.72999	0.37198	0.365
Mof_C 	C 	0.62779	0.75803	0.3279	-1.023
Mof_C 	C 	0.64132	0.78908	0.47084	0.037
Mof_C 	C 	0.67269	0.83495	0.48352	0.037
Mof_C 	C 	0.68172	0.87866	0.44614	-0.076
Mof_C 	C 	0.71275	0.92519	0.45633	-0.006
Mof_C 	C 	0.73424	0.92792	0.5035	-0.057
Mof_C 	C 	0.7249	0.88486	0.54134	0.006
Mof_C 	C 	0.69448	0.83822	0.5311	-0.081
Mof_C 	C 	0.67062	0.66872	0.57558	-0.104
Mof_C 	C 	0.70844	0.62028	0.58442	0.027
Mof_C 	C 	0.7435	0.5975	0.54471	-0.076
Mof_C 	C 	0.74081	0.62373	0.49641	0.035
Mof_C 	C 	0.70323	0.67271	0.48735	-0.102
Mof_C 	C 	0.66775	0.69519	0.52723	0.065
Mof_C 	C 	0.6297	0.74794	0.51405	0.003
Mof_C 	C 	0.53376	0.84212	0.56783	0.248
Mof_C 	C 	0.55723	0.84143	0.62235	-0.874
Mof_C 	C 	0.49541	0.89187	0.55375	-0.045
Mof_C 	C 	0.48453	0.93717	0.58168	0.047
Mof_C 	C 	0.42421	0.98301	0.52609	0.02
Mof_C 	C 	0.432	0.93646	0.49732	0.011
Mof_C 	C 	0.97462	0.68508	0.33832	0.001
Mof_C 	C 	0.97785	0.63833	0.31087	0.099
Mof_C 	C 	0.04325	0.59043	0.36423	0.12
Mof_C 	C 	0.03954	0.63528	0.39414	-0.042
Mof_C 	C 	0.07144	0.63496	0.43897	0.249
Mof_C 	C 	0.10754	0.5779	0.45744	-0.751
Mof_C 	C 	0.12671	0.71957	0.51598	0.009
Mof_C 	C 	0.15864	0.71608	0.56236	0.066
Mof_C 	C 	0.15303	0.66971	0.59757	-0.123
Mof_C 	C 	0.18299	0.66679	0.64189	0.034
Mof_C 	C 	0.21731	0.71093	0.65097	-0.093
Mof_C 	C 	0.22279	0.75731	0.61535	0.026
Mof_C 	C 	0.19317	0.75955	0.57112	-0.116
Mof_C 	C 	0.155	0.81974	0.3964	-0.17
Mof_C 	C 	0.1877	0.81744	0.34937	0.082
Mof_C 	C 	0.22488	0.76798	0.33938	-0.155
Mof_C 	C 	0.22905	0.72375	0.37529	0.1
Mof_C 	C 	0.1966	0.7228	0.41859	-0.174
Mof_C 	C 	0.1603	0.77086	0.42987	0.102
Mof_C 	C 	0.12731	0.77281	0.48008	-0.013
Mof_C 	C 	0.06938	0.86558	0.5668	0.304
Mof_C 	C 	0.11348	0.90818	0.55476	-0.872
Mof_C 	C 	0.03511	0.86517	0.61582	-0.039
Mof_C 	C 	0.04413	0.90537	0.64828	0.081
Mof_C 	C 	0.97446	0.8689	0.70471	0.063
Mof_C 	C 	0.96925	0.82567	0.66876	0.031
Mof_C 	C 	0.66885	0.02889	0.16851	0.011
Mof_C 	C 	0.6145	0.02552	0.20012	0.061
Mof_C 	C 	0.57826	0.97374	0.14148	0.116
Mof_C 	C 	0.62916	0.978	0.11033	-0.036
Mof_C 	C 	0.63478	0.94848	0.0613	0.327
Mof_C 	C 	0.58303	0.92227	0.0423	-0.927
Mof_C 	C 	0.73292	0.88322	0.98371	0.012
Mof_C 	C 	0.7362	0.8516	0.93692	0.053
Mof_C 	C 	0.7879	0.8154	0.92558	-0.097
Mof_C 	C 	0.78407	0.78429	0.88158	0.037
Mof_C 	C 	0.73956	0.7872	0.85099	-0.081
Mof_C 	C 	0.68855	0.81957	0.86822	0.042
Mof_C 	C 	0.6846	0.85386	0.9102	-0.107
Mof_C 	C 	0.83066	0.84836	0.09716	-0.103
Mof_C 	C 	0.82765	0.81525	0.14401	0.011
Mof_C 	C 	0.77807	0.78949	0.16041	-0.058
Mof_C 	C 	0.73162	0.78718	0.13039	0.007
Mof_C 	C 	0.73288	0.81782	0.08035	-0.094
Mof_C 	C 	0.78287	0.84577	0.06888	0.054
Mof_C 	C 	0.78263	0.87833	0.0192	-0.005
Mof_C 	C 	0.87933	0.93079	0.92876	0.313
Mof_C 	C 	0.92813	0.88791	0.94557	-0.874
Mof_C 	C 	0.88161	0.96445	0.88136	-0.029
Mof_C 	C 	0.92866	0.95674	0.84682	0.121
Mof_C 	C 	0.88681	0.02311	0.78992	0.041
Mof_C 	C 	0.84022	0.03218	0.82548	0.019
Mof_C 	C 	0.42942	0.41758	0.9546	-0.025
Mof_C 	C 	0.4551	0.40422	0.90677	0.032
Mof_C 	C 	0.38757	0.46979	0.86546	0.044
Mof_C 	C 	0.36106	0.48036	0.915	-0.026
Mof_C 	C 	0.31504	0.52586	0.91687	0.207
Mof_C 	C 	0.2836	0.55452	0.86937	-0.703
Mof_C 	C 	0.24432	0.61946	0.99769	0.007
Mof_C 	C 	0.19083	0.66221	0.99535	0.072
Mof_C 	C 	0.15522	0.67032	0.95448	-0.118
Mof_C 	C 	0.106	0.7088	0.95737	0.047
Mof_C 	C 	0.09218	0.73934	0.00019	-0.121
Mof_C 	C 	0.12792	0.73186	0.0407	0.068
Mof_C 	C 	0.17736	0.6928	0.03855	-0.119
Mof_C 	C 	0.34424	0.68072	0.97325	-0.067
Mof_C 	C 	0.38911	0.72047	0.95901	-0.002
Mof_C 	C 	0.42356	0.7268	0.99679	-0.043
Mof_C 	C 	0.41808	0.70048	0.04495	-0.022
Mof_C 	C 	0.37246	0.66668	0.05843	-0.072
Mof_C 	C 	0.33438	0.65674	0.02465	0.033
Mof_C 	C 	0.28649	0.62449	0.03108	0.003
Mof_C 	C 	0.20954	0.56602	0.13401	0.295
Mof_C 	C 	0.23313	0.59907	0.1747	-0.835
Mof_C 	C 	0.16111	0.53211	0.14675	-0.058
Mof_C 	C 	0.12476	0.53644	0.19166	0.11
Mof_C 	C 	0.06934	0.4655	0.16879	0.048
Mof_C 	C 	0.10514	0.45692	0.12773	-0.003
Mof_C 	C 	0.38343	0.50437	0.11997	0.028
Mof_C 	C 	0.40049	0.50741	0.17347	0.057
Mof_C 	C 	0.3344	0.44006	0.19472	0.08
Mof_C 	C 	0.31706	0.43752	0.14358	-0.04
Mof_C 	C 	0.27001	0.40607	0.12802	0.365
Mof_C 	C 	0.24197	0.37221	0.1721	-1.024
Mof_C 	C 	0.21092	0.35868	0.02916	0.04
Mof_C 	C 	0.16505	0.32731	0.01648	0.018
Mof_C 	C 	0.12134	0.31828	0.05386	-0.056
Mof_C 	C 	0.07481	0.28725	0.04367	-0.034
Mof_C 	C 	0.07208	0.26576	0.9965	-0.027
Mof_C 	C 	0.11514	0.2751	0.95866	-0.016
Mof_C 	C 	0.16178	0.30552	0.9689	-0.057
Mof_C 	C 	0.33128	0.32938	0.92442	-0.106
Mof_C 	C 	0.37972	0.29156	0.91558	0.029
Mof_C 	C 	0.4025	0.2565	0.95529	-0.079
Mof_C 	C 	0.37627	0.25919	0.00359	0.038
Mof_C 	C 	0.32729	0.29677	0.01265	-0.106
Mof_C 	C 	0.30481	0.33225	0.97277	0.068
Mof_C 	C 	0.25206	0.3703	0.98595	0.004
Mof_C 	C 	0.15788	0.46624	0.93217	0.251
Mof_C 	C 	0.15857	0.44277	0.87765	-0.877
Mof_C 	C 	0.10813	0.50459	0.94625	-0.049
Mof_C 	C 	0.06283	0.51547	0.91832	0.052
Mof_C 	C 	0.01699	0.57579	0.97391	0.062
Mof_C 	C 	0.06354	0.568	0.00268	-0.028
Mof_C 	C 	0.68508	0.97462	0.83832	0.003
Mof_C 	C 	0.63833	0.97785	0.81087	0.097
Mof_C 	C 	0.59043	0.04325	0.86423	0.12
Mof_C 	C 	0.63528	0.03954	0.89414	-0.041
Mof_C 	C 	0.63496	0.07144	0.93897	0.248
Mof_C 	C 	0.5779	0.10754	0.95744	-0.748
Mof_C 	C 	0.71957	0.12671	0.01598	0.017
Mof_C 	C 	0.71608	0.15864	0.06236	0.064
Mof_C 	C 	0.66971	0.15303	0.09757	-0.122
Mof_C 	C 	0.66679	0.18299	0.14189	0.032
Mof_C 	C 	0.71093	0.21731	0.15097	-0.092
Mof_C 	C 	0.75731	0.22279	0.11535	0.025
Mof_C 	C 	0.75955	0.19317	0.07112	-0.115
Mof_C 	C 	0.81974	0.155	0.8964	-0.172
Mof_C 	C 	0.81744	0.1877	0.84937	0.083
Mof_C 	C 	0.76798	0.22488	0.83938	-0.157
Mof_C 	C 	0.72375	0.22905	0.87529	0.102
Mof_C 	C 	0.7228	0.1966	0.91859	-0.177
Mof_C 	C 	0.77086	0.1603	0.92987	0.104
Mof_C 	C 	0.77281	0.12731	0.98008	-0.02
Mof_C 	C 	0.86558	0.06938	0.0668	0.309
Mof_C 	C 	0.90818	0.11348	0.05476	-0.884
Mof_C 	C 	0.86517	0.03511	0.11582	-0.039
Mof_C 	C 	0.90537	0.04413	0.14828	0.082
Mof_C 	C 	0.8689	0.97446	0.20471	0.064
Mof_C 	C 	0.82567	0.96925	0.16876	0.03
Mof_C 	C 	0.02889	0.66885	0.66851	0.011
Mof_C 	C 	0.02552	0.6145	0.70012	0.062
Mof_C 	C 	0.97374	0.57826	0.64148	0.116
Mof_C 	C 	0.978	0.62916	0.61033	-0.035
Mof_C 	C 	0.94848	0.63478	0.5613	0.327
Mof_C 	C 	0.92227	0.58303	0.5423	-0.928
Mof_C 	C 	0.88322	0.73292	0.48371	0.014
Mof_C 	C 	0.8516	0.7362	0.43692	0.053
Mof_C 	C 	0.8154	0.7879	0.42558	-0.097
Mof_C 	C 	0.78429	0.78407	0.38158	0.037
Mof_C 	C 	0.7872	0.73956	0.35099	-0.081
Mof_C 	C 	0.81957	0.68855	0.36822	0.042
Mof_C 	C 	0.85386	0.6846	0.4102	-0.107
Mof_C 	C 	0.84836	0.83066	0.59716	-0.103
Mof_C 	C 	0.81525	0.82765	0.64401	0.011
Mof_C 	C 	0.78949	0.77807	0.66041	-0.058
Mof_C 	C 	0.78718	0.73162	0.63039	0.007
Mof_C 	C 	0.81782	0.73288	0.58035	-0.094
Mof_C 	C 	0.84577	0.78287	0.56888	0.054
Mof_C 	C 	0.87833	0.78263	0.5192	-0.006
Mof_C 	C 	0.93079	0.87933	0.42876	0.315
Mof_C 	C 	0.88791	0.92813	0.44557	-0.881
Mof_C 	C 	0.96445	0.88161	0.38136	-0.031
Mof_C 	C 	0.95674	0.92866	0.34682	0.121
Mof_C 	C 	0.02311	0.88681	0.28992	0.04
Mof_C 	C 	0.03218	0.84022	0.32548	0.02
Mof_C 	C 	0.41758	0.42942	0.4546	-0.026
Mof_C 	C 	0.40422	0.4551	0.40677	0.032
Mof_C 	C 	0.46979	0.38757	0.36546	0.044
Mof_C 	C 	0.48036	0.36106	0.415	-0.026
Mof_C 	C 	0.52586	0.31504	0.41687	0.207
Mof_C 	C 	0.55452	0.2836	0.36937	-0.703
Mof_C 	C 	0.61946	0.24432	0.49769	0.01
Mof_C 	C 	0.66221	0.19083	0.49535	0.043
Mof_C 	C 	0.67032	0.15522	0.45448	-0.087
Mof_C 	C 	0.7088	0.106	0.45737	0.003
Mof_C 	C 	0.73934	0.09218	0.50019	-0.077
Mof_C 	C 	0.73186	0.12792	0.5407	0.034
Mof_C 	C 	0.6928	0.17736	0.53855	-0.084
Mof_C 	C 	0.68072	0.34424	0.47325	-0.081
Mof_C 	C 	0.72047	0.38911	0.45901	0.012
Mof_C 	C 	0.7268	0.42356	0.49679	-0.062
Mof_C 	C 	0.70048	0.41808	0.54495	-0.003
Mof_C 	C 	0.66668	0.37246	0.55843	-0.086
Mof_C 	C 	0.65674	0.33438	0.52465	0.047
Mof_C 	C 	0.62449	0.28649	0.53108	0.002
Mof_C 	C 	0.56602	0.20954	0.63401	0.295
Mof_C 	C 	0.59907	0.23313	0.6747	-0.835
Mof_C 	C 	0.53211	0.16111	0.64675	-0.058
Mof_C 	C 	0.53644	0.12476	0.69166	0.111
Mof_C 	C 	0.4655	0.06934	0.66879	0.049
Mof_C 	C 	0.45692	0.10514	0.62773	-0.002
Mof_C 	C 	0.50437	0.38343	0.61997	0.028
Mof_C 	C 	0.50741	0.40049	0.67347	0.057
Mof_C 	C 	0.44006	0.3344	0.69472	0.08
Mof_C 	C 	0.43752	0.31706	0.64358	-0.04
Mof_C 	C 	0.40607	0.27001	0.62802	0.365
Mof_C 	C 	0.37221	0.24197	0.6721	-1.023
Mof_C 	C 	0.35868	0.21092	0.52916	0.037
Mof_C 	C 	0.32731	0.16505	0.51648	0.037
Mof_C 	C 	0.31828	0.12134	0.55386	-0.076
Mof_C 	C 	0.28725	0.07481	0.54367	-0.006
Mof_C 	C 	0.26576	0.07208	0.4965	-0.057
Mof_C 	C 	0.2751	0.11514	0.45866	0.006
Mof_C 	C 	0.30552	0.16178	0.4689	-0.081
Mof_C 	C 	0.32938	0.33128	0.42442	-0.104
Mof_C 	C 	0.29156	0.37972	0.41558	0.027
Mof_C 	C 	0.2565	0.4025	0.45529	-0.076
Mof_C 	C 	0.25919	0.37627	0.50359	0.035
Mof_C 	C 	0.29677	0.32729	0.51265	-0.102
Mof_C 	C 	0.33225	0.30481	0.47277	0.065
Mof_C 	C 	0.3703	0.25206	0.48595	0.003
Mof_C 	C 	0.46624	0.15788	0.43217	0.248
Mof_C 	C 	0.44277	0.15857	0.37765	-0.874
Mof_C 	C 	0.50459	0.10813	0.44625	-0.045
Mof_C 	C 	0.51547	0.06283	0.41832	0.047
Mof_C 	C 	0.57579	0.01699	0.47391	0.02
Mof_C 	C 	0.568	0.06354	0.50268	0.011
Mof_C 	C 	0.02538	0.31492	0.66168	0.001
Mof_C 	C 	0.02215	0.36167	0.68913	0.099
Mof_C 	C 	0.95675	0.40957	0.63577	0.12
Mof_C 	C 	0.96046	0.36472	0.60586	-0.042
Mof_C 	C 	0.92856	0.36504	0.56103	0.249
Mof_C 	C 	0.89246	0.4221	0.54256	-0.751
Mof_C 	C 	0.87329	0.28043	0.48402	0.009
Mof_C 	C 	0.84136	0.28392	0.43764	0.066
Mof_C 	C 	0.84697	0.33029	0.40243	-0.123
Mof_C 	C 	0.81701	0.33321	0.35811	0.034
Mof_C 	C 	0.78269	0.28907	0.34903	-0.093
Mof_C 	C 	0.77721	0.24269	0.38465	0.026
Mof_C 	C 	0.80683	0.24045	0.42888	-0.116
Mof_C 	C 	0.845	0.18026	0.6036	-0.17
Mof_C 	C 	0.8123	0.18256	0.65063	0.082
Mof_C 	C 	0.77512	0.23202	0.66062	-0.155
Mof_C 	C 	0.77095	0.27625	0.62471	0.1
Mof_C 	C 	0.8034	0.2772	0.58141	-0.174
Mof_C 	C 	0.8397	0.22914	0.57013	0.102
Mof_C 	C 	0.87269	0.22719	0.51992	-0.013
Mof_C 	C 	0.93062	0.13442	0.4332	0.304
Mof_C 	C 	0.88652	0.09182	0.44524	-0.872
Mof_C 	C 	0.96489	0.13483	0.38418	-0.039
Mof_C 	C 	0.95587	0.09463	0.35172	0.081
Mof_C 	C 	0.02554	0.1311	0.29529	0.063
Mof_C 	C 	0.03075	0.17433	0.33124	0.031
Mof_C 	C 	0.33115	0.97111	0.83149	0.011
Mof_C 	C 	0.3855	0.97448	0.79988	0.061
Mof_C 	C 	0.42174	0.02626	0.85852	0.116
Mof_C 	C 	0.37084	0.022	0.88967	-0.036
Mof_C 	C 	0.36522	0.05152	0.9387	0.327
Mof_C 	C 	0.41697	0.07773	0.9577	-0.927
Mof_C 	C 	0.26708	0.11678	0.01629	0.012
Mof_C 	C 	0.2638	0.1484	0.06308	0.053
Mof_C 	C 	0.2121	0.1846	0.07442	-0.097
Mof_C 	C 	0.21593	0.21571	0.11842	0.037
Mof_C 	C 	0.26044	0.2128	0.14901	-0.081
Mof_C 	C 	0.31145	0.18043	0.13178	0.042
Mof_C 	C 	0.3154	0.14614	0.0898	-0.107
Mof_C 	C 	0.16934	0.15164	0.90284	-0.103
Mof_C 	C 	0.17235	0.18475	0.85599	0.011
Mof_C 	C 	0.22193	0.21051	0.83959	-0.058
Mof_C 	C 	0.26838	0.21282	0.86961	0.007
Mof_C 	C 	0.26712	0.18218	0.91965	-0.094
Mof_C 	C 	0.21713	0.15423	0.93112	0.054
Mof_C 	C 	0.21737	0.12167	0.9808	-0.005
Mof_C 	C 	0.12067	0.06921	0.07124	0.313
Mof_C 	C 	0.07187	0.11209	0.05443	-0.874
Mof_C 	C 	0.11839	0.03555	0.11864	-0.029
Mof_C 	C 	0.07134	0.04326	0.15318	0.121
Mof_C 	C 	0.11319	0.97689	0.21008	0.041
Mof_C 	C 	0.15978	0.96782	0.17452	0.019
Mof_C 	C 	0.57058	0.58242	0.0454	-0.025
Mof_C 	C 	0.5449	0.59578	0.09323	0.032
Mof_C 	C 	0.61243	0.53021	0.13454	0.044
Mof_C 	C 	0.63894	0.51964	0.085	-0.026
Mof_C 	C 	0.68496	0.47414	0.08313	0.207
Mof_C 	C 	0.7164	0.44548	0.13063	-0.703
Mof_C 	C 	0.75568	0.38054	0.00231	0.007
Mof_C 	C 	0.80917	0.33779	0.00465	0.072
Mof_C 	C 	0.84478	0.32968	0.04552	-0.118
Mof_C 	C 	0.894	0.2912	0.04263	0.047
Mof_C 	C 	0.90782	0.26066	0.99981	-0.121
Mof_C 	C 	0.87208	0.26814	0.9593	0.068
Mof_C 	C 	0.82264	0.3072	0.96145	-0.119
Mof_C 	C 	0.65576	0.31928	0.02675	-0.067
Mof_C 	C 	0.61089	0.27953	0.04099	-0.002
Mof_C 	C 	0.57644	0.2732	0.00321	-0.043
Mof_C 	C 	0.58192	0.29952	0.95505	-0.022
Mof_C 	C 	0.62754	0.33332	0.94157	-0.072
Mof_C 	C 	0.66562	0.34326	0.97535	0.033
Mof_C 	C 	0.71351	0.37551	0.96892	0.003
Mof_C 	C 	0.79046	0.43398	0.86599	0.295
Mof_C 	C 	0.76687	0.40093	0.8253	-0.835
Mof_C 	C 	0.83889	0.46789	0.85325	-0.058
Mof_C 	C 	0.87524	0.46356	0.80834	0.11
Mof_C 	C 	0.93066	0.5345	0.83121	0.048
Mof_C 	C 	0.89486	0.54308	0.87227	-0.003
Mof_C 	C 	0.61657	0.49563	0.88003	0.028
Mof_C 	C 	0.59951	0.49259	0.82653	0.057
Mof_C 	C 	0.6656	0.55994	0.80528	0.08
Mof_C 	C 	0.68294	0.56248	0.85642	-0.04
Mof_C 	C 	0.72999	0.59393	0.87198	0.365
Mof_C 	C 	0.75803	0.62779	0.8279	-1.024
Mof_C 	C 	0.78908	0.64132	0.97084	0.04
Mof_C 	C 	0.83495	0.67269	0.98352	0.018
Mof_C 	C 	0.87866	0.68172	0.94614	-0.056
Mof_C 	C 	0.92519	0.71275	0.95633	-0.034
Mof_C 	C 	0.92792	0.73424	0.0035	-0.027
Mof_C 	C 	0.88486	0.7249	0.04134	-0.016
Mof_C 	C 	0.83822	0.69448	0.0311	-0.057
Mof_C 	C 	0.66872	0.67062	0.07558	-0.106
Mof_C 	C 	0.62028	0.70844	0.08442	0.029
Mof_C 	C 	0.5975	0.7435	0.04471	-0.079
Mof_C 	C 	0.62373	0.74081	0.99641	0.038
Mof_C 	C 	0.67271	0.70323	0.98735	-0.106
Mof_C 	C 	0.69519	0.66775	0.02723	0.068
Mof_C 	C 	0.74794	0.6297	0.01405	0.004
Mof_C 	C 	0.84212	0.53376	0.06783	0.251
Mof_C 	C 	0.84143	0.55723	0.12235	-0.877
Mof_C 	C 	0.89187	0.49541	0.05375	-0.049
Mof_C 	C 	0.93717	0.48453	0.08168	0.052
Mof_C 	C 	0.98301	0.42421	0.02609	0.062
Mof_C 	C 	0.93646	0.432	0.99732	-0.028
Mof_N 	N 	0.31584	0.99396	0.12044	-0.133
Mof_N 	N 	0.40835	0.98963	0.17889	-0.163
Mof_N 	N 	0.318	0.93044	0.03704	-0.193
Mof_N 	N 	0.32474	0.89818	0.99352	-0.09
Mof_N 	N 	0.17979	0.90155	0.00775	-0.092
Mof_N 	N 	0.18082	0.93382	0.96011	-0.193
Mof_N 	N 	0.17513	0.00329	0.8749	-0.145
Mof_N 	N 	0.09323	0.98739	0.80643	-0.153
Mof_N 	N 	0.99605	0.32613	0.37572	-0.137
Mof_N 	N 	0.00337	0.42765	0.31463	-0.192
Mof_N 	N 	0.0548	0.31526	0.4605	-0.215
Mof_N 	N 	0.08504	0.31358	0.50533	-0.1
Mof_N 	N 	0.09411	0.16953	0.49547	-0.095
Mof_N 	N 	0.06511	0.16927	0.54259	-0.192
Mof_N 	N 	0.99641	0.16221	0.62692	-0.127
Mof_N 	N 	0.0148	0.06822	0.69818	-0.164
Mof_N 	N 	0.5425	0.6194	0.54454	-0.14
Mof_N 	N 	0.56807	0.56719	0.63652	-0.177
Mof_N 	N 	0.4538	0.70302	0.54025	-0.178
Mof_N 	N 	0.41453	0.75201	0.54039	-0.113
Mof_N 	N 	0.40076	0.72076	0.41947	-0.1
Mof_N 	N 	0.432	0.76812	0.41061	-0.201
Mof_N 	N 	0.507	0.8504	0.38596	-0.141
Mof_N 	N 	0.49472	0.92114	0.29715	-0.186
Mof_N 	N 	0.52505	0.65697	0.39197	-0.157
Mof_N 	N 	0.52454	0.62306	0.29187	-0.187
Mof_N 	N 	0.59544	0.73614	0.41912	-0.207
Mof_N 	N 	0.62852	0.78402	0.42667	-0.105
Mof_N 	N 	0.5848	0.7526	0.54683	-0.097
Mof_N 	N 	0.54981	0.80317	0.53418	-0.188
Mof_N 	N 	0.46925	0.89171	0.51153	-0.141
Mof_N 	N 	0.44917	0.98371	0.57005	-0.099
Mof_N 	N 	0.00604	0.68416	0.37956	-0.133
Mof_N 	N 	0.01037	0.59165	0.32111	-0.164
Mof_N 	N 	0.06956	0.682	0.46296	-0.191
Mof_N 	N 	0.10182	0.67526	0.50648	-0.092
Mof_N 	N 	0.09845	0.82021	0.49225	-0.089
Mof_N 	N 	0.06618	0.81918	0.53989	-0.196
Mof_N 	N 	0.99671	0.82487	0.6251	-0.145
Mof_N 	N 	0.01261	0.90677	0.69357	-0.152
Mof_N 	N 	0.67387	0.00395	0.12428	-0.136
Mof_N 	N 	0.57235	0.99663	0.18537	-0.191
Mof_N 	N 	0.68474	0.9452	0.0395	-0.215
Mof_N 	N 	0.68642	0.91496	0.99467	-0.1
Mof_N 	N 	0.83047	0.90589	0.00453	-0.094
Mof_N 	N 	0.83073	0.93489	0.95741	-0.191
Mof_N 	N 	0.83779	0.00359	0.87308	-0.127
Mof_N 	N 	0.93178	0.9852	0.80182	-0.166
Mof_N 	N 	0.3806	0.4575	0.95546	-0.139
Mof_N 	N 	0.43281	0.43193	0.86348	-0.177
Mof_N 	N 	0.29698	0.5462	0.95975	-0.176
Mof_N 	N 	0.24799	0.58547	0.95961	-0.112
Mof_N 	N 	0.27924	0.59924	0.08053	-0.1
Mof_N 	N 	0.23188	0.568	0.08939	-0.201
Mof_N 	N 	0.1496	0.493	0.11404	-0.141
Mof_N 	N 	0.07886	0.50528	0.20285	-0.186
Mof_N 	N 	0.34303	0.47495	0.10803	-0.157
Mof_N 	N 	0.37694	0.47546	0.20813	-0.187
Mof_N 	N 	0.26386	0.40456	0.08088	-0.207
Mof_N 	N 	0.21598	0.37148	0.07333	-0.106
Mof_N 	N 	0.2474	0.4152	0.95317	-0.097
Mof_N 	N 	0.19683	0.45019	0.96582	-0.186
Mof_N 	N 	0.10829	0.53075	0.98847	-0.129
Mof_N 	N 	0.01629	0.55083	0.92995	-0.105
Mof_N 	N 	0.68416	0.00604	0.87956	-0.133
Mof_N 	N 	0.59165	0.01037	0.82111	-0.163
Mof_N 	N 	0.682	0.06956	0.96296	-0.193
Mof_N 	N 	0.67526	0.10182	0.00648	-0.09
Mof_N 	N 	0.82021	0.09845	0.99225	-0.092
Mof_N 	N 	0.81918	0.06618	0.03989	-0.193
Mof_N 	N 	0.82487	0.99671	0.1251	-0.145
Mof_N 	N 	0.90677	0.01261	0.19357	-0.153
Mof_N 	N 	0.00395	0.67387	0.62428	-0.137
Mof_N 	N 	0.99663	0.57235	0.68537	-0.192
Mof_N 	N 	0.9452	0.68474	0.5395	-0.215
Mof_N 	N 	0.91496	0.68642	0.49467	-0.1
Mof_N 	N 	0.90589	0.83047	0.50453	-0.095
Mof_N 	N 	0.93489	0.83073	0.45741	-0.192
Mof_N 	N 	0.00359	0.83779	0.37308	-0.127
Mof_N 	N 	0.9852	0.93178	0.30182	-0.164
Mof_N 	N 	0.4575	0.3806	0.45546	-0.14
Mof_N 	N 	0.43193	0.43281	0.36348	-0.177
Mof_N 	N 	0.5462	0.29698	0.45975	-0.178
Mof_N 	N 	0.58547	0.24799	0.45961	-0.113
Mof_N 	N 	0.59924	0.27924	0.58053	-0.1
Mof_N 	N 	0.568	0.23188	0.58939	-0.201
Mof_N 	N 	0.493	0.1496	0.61404	-0.141
Mof_N 	N 	0.50528	0.07886	0.70285	-0.186
Mof_N 	N 	0.47495	0.34303	0.60803	-0.157
Mof_N 	N 	0.47546	0.37694	0.70813	-0.187
Mof_N 	N 	0.40456	0.26386	0.58088	-0.207
Mof_N 	N 	0.37148	0.21598	0.57333	-0.105
Mof_N 	N 	0.4152	0.2474	0.45317	-0.097
Mof_N 	N 	0.45019	0.19683	0.46582	-0.188
Mof_N 	N 	0.53075	0.10829	0.48847	-0.141
Mof_N 	N 	0.55083	0.01629	0.42995	-0.099
Mof_N 	N 	0.99396	0.31584	0.62044	-0.133
Mof_N 	N 	0.98963	0.40835	0.67889	-0.164
Mof_N 	N 	0.93044	0.318	0.53704	-0.191
Mof_N 	N 	0.89818	0.32474	0.49352	-0.092
Mof_N 	N 	0.90155	0.17979	0.50775	-0.089
Mof_N 	N 	0.93382	0.18082	0.46011	-0.196
Mof_N 	N 	0.00329	0.17513	0.3749	-0.145
Mof_N 	N 	0.98739	0.09323	0.30643	-0.152
Mof_N 	N 	0.32613	0.99605	0.87572	-0.136
Mof_N 	N 	0.42765	0.00337	0.81463	-0.191
Mof_N 	N 	0.31526	0.0548	0.9605	-0.215
Mof_N 	N 	0.31358	0.08504	0.00533	-0.1
Mof_N 	N 	0.16953	0.09411	0.99547	-0.094
Mof_N 	N 	0.16927	0.06511	0.04259	-0.191
Mof_N 	N 	0.16221	0.99641	0.12692	-0.127
Mof_N 	N 	0.06822	0.0148	0.19818	-0.166
Mof_N 	N 	0.6194	0.5425	0.04454	-0.139
Mof_N 	N 	0.56719	0.56807	0.13652	-0.177
Mof_N 	N 	0.70302	0.4538	0.04025	-0.176
Mof_N 	N 	0.75201	0.41453	0.04039	-0.112
Mof_N 	N 	0.72076	0.40076	0.91947	-0.1
Mof_N 	N 	0.76812	0.432	0.91061	-0.201
Mof_N 	N 	0.8504	0.507	0.88596	-0.141
Mof_N 	N 	0.92114	0.49472	0.79715	-0.186
Mof_N 	N 	0.65697	0.52505	0.89197	-0.157
Mof_N 	N 	0.62306	0.52454	0.79187	-0.187
Mof_N 	N 	0.73614	0.59544	0.91912	-0.207
Mof_N 	N 	0.78402	0.62852	0.92667	-0.106
Mof_N 	N 	0.7526	0.5848	0.04683	-0.097
Mof_N 	N 	0.80317	0.54981	0.03418	-0.186
Mof_N 	N 	0.89171	0.46925	0.01153	-0.129
Mof_N 	N 	0.98371	0.44917	0.07005	-0.105
Mof_B 	B 	0.48944	0.10506	0.08789	4.101
Mof_F 	F 	0.47775	0.14571	0.05108	-1.277
Mof_F 	F 	0.53987	0.07569	0.07599	-1.307
Mof_F 	F 	0.44776	0.06948	0.09408	-1.328
Mof_F 	F 	0.4944	0.13108	0.13143	-1.217
Mof_B 	B 	0.36542	0.98818	0.35219	2.904
Mof_F 	F 	0.41552	0.00648	0.3721	-0.967
Mof_F 	F 	0.37555	0.98489	0.29846	-0.952
Mof_F 	F 	0.31772	0.02832	0.36225	-0.938
Mof_F 	F 	0.35481	0.93331	0.37367	-0.962
Mof_B 	B 	0.99287	0.80913	0.8424	3.27
Mof_F 	F 	0.00467	0.79961	0.89268	-1.098
Mof_F 	F 	0.93411	0.82547	0.83899	-1.058
Mof_F 	F 	0.00617	0.75929	0.81733	-1.054
Mof_F 	F 	0.02362	0.85342	0.8204	-1.083
Mof_B 	B 	0.19356	0.4999	0.3225	3.471
Mof_F 	F 	0.21286	0.47434	0.27839	-1.107
Mof_F 	F 	0.154	0.4668	0.34603	-1.165
Mof_F 	F 	0.23987	0.50307	0.3521	-1.116
Mof_F 	F 	0.16883	0.55497	0.31129	-1.121
Mof_B 	B 	0.36314	0.30728	0.27824	3.294
Mof_F 	F 	0.32368	0.35206	0.29255	-1.077
Mof_F 	F 	0.34318	0.28392	0.23703	-1.048
Mof_F 	F 	0.36694	0.26562	0.31792	-1.067
Mof_F 	F 	0.41706	0.32836	0.26678	-1.032
Mof_B 	B 	0.01267	0.91235	0.09063	3.338
Mof_F 	F 	0.06569	0.93461	0.08801	-1.094
Mof_F 	F 	0.01252	0.8574	0.07454	-1.091
Mof_F 	F 	0.9892	0.91348	0.13986	-1.045
Mof_F 	F 	0.97671	0.95087	0.06295	-1.05
Mof_B 	B 	0.4302	0.33	0.1134	3.39
Mof_F 	F 	0.44512	0.35962	0.15419	-1.012
Mof_F 	F 	0.3711	0.32292	0.121	-1.035
Mof_F 	F 	0.46092	0.27634	0.11485	-1.019
Mof_F 	F 	0.44063	0.36085	0.07	-1.148
Mof_B 	B 	0.89494	0.51056	0.41211	4.101
Mof_F 	F 	0.85429	0.52225	0.44892	-1.278
Mof_F 	F 	0.92431	0.46013	0.42401	-1.308
Mof_F 	F 	0.93052	0.55224	0.40592	-1.328
Mof_F 	F 	0.86892	0.5056	0.36857	-1.217
Mof_B 	B 	0.01182	0.63458	0.14781	2.889
Mof_F 	F 	0.99352	0.58448	0.1279	-0.961
Mof_F 	F 	0.01511	0.62445	0.20154	-0.95
Mof_F 	F 	0.97168	0.68228	0.13775	-0.932
Mof_F 	F 	0.06669	0.64519	0.12633	-0.961
Mof_B 	B 	0.19087	0.00713	0.6576	3.291
Mof_F 	F 	0.20039	0.99533	0.60732	-1.107
Mof_F 	F 	0.17453	0.06589	0.66101	-1.061
Mof_F 	F 	0.24071	0.99383	0.68267	-1.061
Mof_F 	F 	0.14658	0.97638	0.6796	-1.089
Mof_B 	B 	0.5001	0.80644	0.1775	3.471
Mof_F 	F 	0.52566	0.78714	0.22161	-1.107
Mof_F 	F 	0.5332	0.846	0.15397	-1.165
Mof_F 	F 	0.49693	0.76013	0.1479	-1.116
Mof_F 	F 	0.44503	0.83117	0.18871	-1.121
Mof_B 	B 	0.69272	0.63686	0.22176	3.294
Mof_F 	F 	0.64794	0.67632	0.20745	-1.077
Mof_F 	F 	0.71608	0.65682	0.26297	-1.048
Mof_F 	F 	0.73438	0.63306	0.18208	-1.067
Mof_F 	F 	0.67164	0.58294	0.23322	-1.032
Mof_B 	B 	0.08765	0.98733	0.40937	3.357
Mof_F 	F 	0.06539	0.93431	0.41199	-1.096
Mof_F 	F 	0.1426	0.98748	0.42546	-1.092
Mof_F 	F 	0.08652	0.0108	0.36014	-1.053
Mof_F 	F 	0.04913	0.02329	0.43705	-1.057
Mof_B 	B 	0.67	0.5698	0.3866	3.39
Mof_F 	F 	0.64038	0.55488	0.34581	-1.012
Mof_F 	F 	0.67708	0.6289	0.379	-1.035
Mof_F 	F 	0.72366	0.53908	0.38515	-1.019
Mof_F 	F 	0.63915	0.55937	0.43	-1.148
Mof_B 	B 	0.51056	0.89494	0.91211	4.101
Mof_F 	F 	0.52225	0.85429	0.94892	-1.277
Mof_F 	F 	0.46013	0.92431	0.92401	-1.307
Mof_F 	F 	0.55224	0.93052	0.90592	-1.328
Mof_F 	F 	0.5056	0.86892	0.86857	-1.217
Mof_B 	B 	0.63458	0.01182	0.64781	2.904
Mof_F 	F 	0.58448	0.99352	0.6279	-0.967
Mof_F 	F 	0.62445	0.01511	0.70154	-0.952
Mof_F 	F 	0.68228	0.97168	0.63775	-0.938
Mof_F 	F 	0.64519	0.06669	0.62633	-0.962
Mof_B 	B 	0.00713	0.19087	0.1576	3.27
Mof_F 	F 	0.99533	0.20039	0.10732	-1.098
Mof_F 	F 	0.06589	0.17453	0.16101	-1.058
Mof_F 	F 	0.99383	0.24071	0.18267	-1.054
Mof_F 	F 	0.97638	0.14658	0.1796	-1.083
Mof_B 	B 	0.80644	0.5001	0.6775	3.471
Mof_F 	F 	0.78714	0.52566	0.72161	-1.107
Mof_F 	F 	0.846	0.5332	0.65397	-1.165
Mof_F 	F 	0.76013	0.49693	0.6479	-1.116
Mof_F 	F 	0.83117	0.44503	0.68871	-1.121
Mof_B 	B 	0.63686	0.69272	0.72176	3.294
Mof_F 	F 	0.67632	0.64794	0.70745	-1.077
Mof_F 	F 	0.65682	0.71608	0.76297	-1.048
Mof_F 	F 	0.63306	0.73438	0.68208	-1.067
Mof_F 	F 	0.58294	0.67164	0.73322	-1.032
Mof_B 	B 	0.98733	0.08765	0.90937	3.338
Mof_F 	F 	0.93431	0.06539	0.91199	-1.094
Mof_F 	F 	0.98748	0.1426	0.92546	-1.091
Mof_F 	F 	0.0108	0.08652	0.86014	-1.045
Mof_F 	F 	0.02329	0.04913	0.93705	-1.05
Mof_B 	B 	0.5698	0.67	0.8866	3.39
Mof_F 	F 	0.55488	0.64038	0.84581	-1.012
Mof_F 	F 	0.6289	0.67708	0.879	-1.035
Mof_F 	F 	0.53908	0.72366	0.88515	-1.019
Mof_F 	F 	0.55937	0.63915	0.93	-1.148
Mof_B 	B 	0.10506	0.48944	0.58789	4.101
Mof_F 	F 	0.14571	0.47775	0.55108	-1.278
Mof_F 	F 	0.07569	0.53987	0.57599	-1.308
Mof_F 	F 	0.06948	0.44776	0.59408	-1.328
Mof_F 	F 	0.13108	0.4944	0.63143	-1.217
Mof_B 	B 	0.98818	0.36542	0.85219	2.889
Mof_F 	F 	0.00648	0.41552	0.8721	-0.961
Mof_F 	F 	0.98489	0.37555	0.79846	-0.95
Mof_F 	F 	0.02832	0.31772	0.86225	-0.932
Mof_F 	F 	0.93331	0.35481	0.87367	-0.961
Mof_B 	B 	0.80913	0.99287	0.3424	3.291
Mof_F 	F 	0.79961	0.00467	0.39268	-1.107
Mof_F 	F 	0.82547	0.93411	0.33899	-1.061
Mof_F 	F 	0.75929	0.00617	0.31733	-1.061
Mof_F 	F 	0.85342	0.02362	0.3204	-1.089
Mof_B 	B 	0.4999	0.19356	0.8225	3.471
Mof_F 	F 	0.47434	0.21286	0.77839	-1.107
Mof_F 	F 	0.4668	0.154	0.84603	-1.165
Mof_F 	F 	0.50307	0.23987	0.8521	-1.116
Mof_F 	F 	0.55497	0.16883	0.81129	-1.121
Mof_B 	B 	0.30728	0.36314	0.77824	3.294
Mof_F 	F 	0.35206	0.32368	0.79255	-1.077
Mof_F 	F 	0.28392	0.34318	0.73703	-1.048
Mof_F 	F 	0.26562	0.36694	0.81792	-1.067
Mof_F 	F 	0.32836	0.41706	0.76678	-1.032
Mof_B 	B 	0.91235	0.01267	0.59063	3.357
Mof_F 	F 	0.93461	0.06569	0.58801	-1.096
Mof_F 	F 	0.8574	0.01252	0.57454	-1.092
Mof_F 	F 	0.91348	0.9892	0.63986	-1.053
Mof_F 	F 	0.95087	0.97671	0.56295	-1.057
Mof_B 	B 	0.33	0.4302	0.6134	3.39
Mof_F 	F 	0.35962	0.44512	0.65419	-1.012
Mof_F 	F 	0.32292	0.3711	0.621	-1.035
Mof_F 	F 	0.27634	0.46092	0.61485	-1.019
Mof_F 	F 	0.36085	0.44063	0.57	-1.148
_end
