data_functionalizedCrystal
_audit_creation_method	'EQeq! by Chris Wilmer'
_symmetry_space_group_name_H-M	'P1'
_symmetry_Int_Tables_number	1
_symmetry_cell_setting	triclinic
loop_
_symmetry_equiv_pos_as_xyz
  x,y,z
_cell_length_a	29.5955
_cell_length_b	29.5955
_cell_length_c	29.5955
_cell_angle_alpha	90
_cell_angle_beta	90
_cell_angle_gamma	90
loop_
_atom_site_label
_atom_site_type_symbol
_atom_site_fract_x
_atom_site_fract_y
_atom_site_fract_z
_atom_site_charge
Mof_Cd	Cd	0.97393	0.22813	0.75207	0.465
Mof_Cd	Cd	0.77607	0.99793	0.52187	0.465
Mof_Cd	Cd	0.22393	0.49793	0.97813	0.465
Mof_Cd	Cd	0.52607	0.77187	0.25207	0.465
Mof_Cd	Cd	0.97813	0.22393	0.49793	0.465
Mof_Cd	Cd	0.74793	0.02607	0.72813	0.465
Mof_Cd	Cd	0.24793	0.47393	0.27187	0.465
Mof_Cd	Cd	0.56324	0.375	0.18676	0.391
Mof_Cd	Cd	0.47393	0.27187	0.24793	0.465
Mof_Cd	Cd	0.99793	0.52187	0.77607	0.465
Mof_Cd	Cd	0.72393	0.00207	0.02187	0.465
Mof_Cd	Cd	0.625	0.68676	0.93676	0.391
Mof_Cd	Cd	0.22813	0.75207	0.97393	0.465
Mof_Cd	Cd	0.50207	0.47813	0.27607	0.465
Mof_Cd	Cd	0.02187	0.72393	0.00207	0.465
Mof_Cd	Cd	0.81324	0.06324	0.125	0.391
Mof_Cd	Cd	0.68676	0.93676	0.625	0.391
Mof_Cd	Cd	0.02607	0.72813	0.74793	0.465
Mof_Cd	Cd	0.125	0.81324	0.06324	0.391
Mof_Cd	Cd	0.47813	0.27607	0.50207	0.465
Mof_Cd	Cd	0.00207	0.02187	0.72393	0.465
Mof_Cd	Cd	0.72813	0.74793	0.02607	0.465
Mof_Cd	Cd	0.77187	0.25207	0.52607	0.465
Mof_Cd	Cd	0.52187	0.77607	0.99793	0.465
Mof_Cd	Cd	0.27607	0.50207	0.47813	0.464
Mof_Cd	Cd	0.875	0.31324	0.43676	0.39
Mof_Cd	Cd	0.18676	0.56324	0.375	0.39
Mof_Cd	Cd	0.27187	0.24793	0.47393	0.464
Mof_Cd	Cd	0.75207	0.97393	0.22813	0.464
Mof_Cd	Cd	0.43676	0.875	0.31324	0.39
Mof_Cd	Cd	0.06324	0.125	0.81324	0.39
Mof_Cd	Cd	0.93676	0.625	0.68676	0.39
Mof_Cd	Cd	0.375	0.18676	0.56324	0.39
Mof_Cd	Cd	0.49793	0.97813	0.22393	0.464
Mof_Cd	Cd	0.31324	0.43676	0.875	0.39
Mof_Cd	Cd	0.25207	0.52607	0.77187	0.464
Mof_H 	H 	0.9324	0.0471	0.1902	0.033
Mof_H 	H 	0.7225	0.1121	0.3447	0.152
Mof_H 	H 	0.3601	0.7952	0.303	-0.002
Mof_H 	H 	0.3098	0.0676	0.5471	0.033
Mof_H 	H 	0.0749	0.6272	0.1588	0.038
Mof_H 	H 	0.4818	0.7594	0.4708	0.072
Mof_H 	H 	0.8098	0.4324	0.4529	0.033
Mof_H 	H 	0.9955	0.3319	0.6355	0.043
Mof_H 	H 	0.998	0.6921	0.5958	0.045
Mof_H 	H 	0.8879	0.8447	0.7775	0.152
Mof_H 	H 	0.6101	0.947	0.5452	-0.002
Mof_H 	H 	0.79	0.1805	0.2691	0.193
Mof_H 	H 	0.1101	0.553	0.4548	-0.002
Mof_H 	H 	0.7481	0.4335	0.5179	0.088
Mof_H 	H 	0.9177	0.7109	0.629	0.059
Mof_H 	H 	0.6681	0.1355	0.5045	0.043
Mof_H 	H 	0.5969	0.9499	0.2804	0.034
Mof_H 	H 	0.4251	0.3728	0.6588	0.038
Mof_H 	H 	0.5727	0.6201	0.2005	0.061
Mof_H 	H 	0.7951	0.8988	0.6273	0.038
Mof_H 	H 	0.5304	0.3001	0.3469	0.034
Mof_H 	H 	0.729	0.8304	0.4373	0.046
Mof_H 	H 	0.303	0.3601	0.7952	-0.002
Mof_H 	H 	0.8249	0.4088	0.6228	0.038
Mof_H 	H 	0.7321	0.1835	0.9981	0.088
Mof_H 	H 	0.8539	0.1437	0.7795	0.065
Mof_H 	H 	0.521	0.1873	0.0804	0.046
Mof_H 	H 	0.4499	0.2196	0.4031	0.034
Mof_H 	H 	0.0295	0.1063	0.6039	0.065
Mof_H 	H 	0.6227	0.6488	0.0451	0.038
Mof_H 	H 	0.1873	0.0804	0.521	0.046
Mof_H 	H 	0.3645	0.4955	0.1681	0.043
Mof_H 	H 	0.748	0.8458	0.5579	0.045
Mof_H 	H 	0.7775	0.8879	0.8447	0.152
Mof_H 	H 	0.7005	0.9273	0.3799	0.061
Mof_H 	H 	0.1355	0.5045	0.6681	0.043
Mof_H 	H 	0.7047	0.4487	0.4378	0.036
Mof_H 	H 	0.3304	0.0627	0.271	0.046
Mof_H 	H 	0.5495	0.1299	0.1773	0.061
Mof_H 	H 	0.0969	0.5501	0.7196	0.034
Mof_H 	H 	0.5501	0.7196	0.0969	0.034
Mof_H 	H 	0.2455	0.6145	0.0819	0.043
Mof_H 	H 	0.1987	0.9547	0.8122	0.036
Mof_H 	H 	0.5958	0.998	0.6921	0.045
Mof_H 	H 	0.4042	0.498	0.8079	0.045
Mof_H 	H 	0.9809	0.9305	0.04	0.193
Mof_H 	H 	0.0665	0.4821	0.2481	0.088
Mof_H 	H 	0.6756	0.1567	0.1809	0.042
Mof_H 	H 	0.6987	0.5453	0.1878	0.036
Mof_H 	H 	0.9273	0.3799	0.7005	0.061
Mof_H 	H 	0.9335	0.9821	0.2519	0.088
Mof_H 	H 	0.4955	0.1681	0.3645	0.043
Mof_H 	H 	0.021	0.3127	0.9196	0.046
Mof_H 	H 	0.6063	0.8961	0.9705	0.065
Mof_H 	H 	0.3227	0.4505	0.6299	0.061
Mof_H 	H 	0.803	0.1399	0.2048	-0.002
Mof_H 	H 	0.8727	0.2049	0.3988	0.038
Mof_H 	H 	0.0019	0.2321	0.3165	0.089
Mof_H 	H 	0.5819	0.2545	0.3855	0.043
Mof_H 	H 	0.6812	0.0082	0.4649	0.019
Mof_H 	H 	0.8469	0.9696	0.6999	0.034
Mof_H 	H 	0.3879	0.6553	0.2225	0.152
Mof_H 	H 	0.8304	0.4373	0.729	0.046
Mof_H 	H 	0.8563	0.2795	0.6461	0.065
Mof_H 	H 	0.2205	0.3539	0.3563	0.065
Mof_H 	H 	0.3447	0.7225	0.1121	0.152
Mof_H 	H 	0.71	0.8195	0.7691	0.193
Mof_H 	H 	0.0947	0.3621	0.5275	0.152
Mof_H 	H 	0.6878	0.8013	0.4547	0.036
Mof_H 	H 	0.8013	0.4547	0.6878	0.036
Mof_H 	H 	0.5947	0.1379	0.4725	0.152
Mof_H 	H 	0.6461	0.8563	0.2795	0.065
Mof_H 	H 	0.7953	0.5513	0.9378	0.036
Mof_H 	H 	0.3323	0.379	0.9609	0.059
Mof_H 	H 	0.4324	0.4529	0.8098	0.033
Mof_H 	H 	0.4981	0.7679	0.8165	0.088
Mof_H 	H 	0.271	0.3304	0.0627	0.046
Mof_H 	H 	0.1488	0.4549	0.3773	0.038
Mof_H 	H 	0.621	0.4609	0.1677	0.059
Mof_H 	H 	0.4548	0.1101	0.553	-0.002
Mof_H 	H 	0.9609	0.3323	0.379	0.059
Mof_H 	H 	0.5295	0.3937	0.3961	0.065
Mof_H 	H 	0.6145	0.0819	0.2455	0.043
Mof_H 	H 	0.8188	0.9918	0.9649	0.019
Mof_H 	H 	0.6809	0.8244	0.8433	0.042
Mof_H 	H 	0.7971	0.1824	0.0598	0.033
Mof_H 	H 	0.3727	0.2951	0.6012	0.038
Mof_H 	H 	0.9499	0.2804	0.5969	0.034
Mof_H 	H 	0.5179	0.7481	0.4335	0.088
Mof_H 	H 	0.8227	0.0495	0.3701	0.061
Mof_H 	H 	0.4549	0.3773	0.1488	0.038
Mof_H 	H 	0.4031	0.4499	0.2196	0.034
Mof_H 	H 	0.5912	0.1228	0.6751	0.038
Mof_H 	H 	0.5019	0.2679	0.6835	0.088
Mof_H 	H 	0.0452	0.8899	0.053	-0.002
Mof_H 	H 	0.7418	0.0688	0.2851	0.019
Mof_H 	H 	0.1824	0.0598	0.7971	0.033
Mof_H 	H 	0.6588	0.4251	0.3728	0.038
Mof_H 	H 	0.1228	0.6751	0.5912	0.038
Mof_H 	H 	0.3899	0.447	0.9548	-0.002
Mof_H 	H 	0.5804	0.979	0.8127	0.046
Mof_H 	H 	0.7691	0.71	0.8195	0.193
Mof_H 	H 	0.8601	0.7048	0.697	-0.002
Mof_H 	H 	0.2891	0.129	0.5823	0.059
Mof_H 	H 	0.7891	0.371	0.4177	0.059
Mof_H 	H 	0.8799	0.7995	0.0727	0.061
Mof_H 	H 	0.21	0.6805	0.2309	0.193
Mof_H 	H 	0.7455	0.8855	0.9181	0.043
Mof_H 	H 	0.9305	0.04	0.9809	0.193
Mof_H 	H 	0.6999	0.8469	0.9696	0.034
Mof_H 	H 	0.2208	0.0094	0.7682	0.072
Mof_H 	H 	0.1227	0.8512	0.9549	0.038
Mof_H 	H 	0.4088	0.6228	0.8249	0.038
Mof_H 	H 	0.0627	0.271	0.3304	0.046
Mof_H 	H 	0.0471	0.1902	0.9324	0.033
Mof_H 	H 	0.7318	0.7792	0.5094	0.072
Mof_H 	H 	0.4305	0.46	0.0191	0.193
Mof_H 	H 	0.2775	0.6121	0.1553	0.152
Mof_H 	H 	0.8621	0.9725	0.9053	0.152
Mof_H 	H 	0.1553	0.2775	0.6121	0.152
Mof_H 	H 	0.3188	0.5082	0.0351	0.019
Mof_H 	H 	0.1379	0.4725	0.5947	0.152
Mof_H 	H 	0.7804	0.9031	0.0501	0.034
Mof_H 	H 	0.9487	0.0622	0.2953	0.036
Mof_H 	H 	0.9042	0.002	0.1921	0.045
Mof_H 	H 	0.0045	0.8319	0.8645	0.043
Mof_H 	H 	0.3701	0.8227	0.0495	0.061
Mof_H 	H 	0.1921	0.9042	0.002	0.045
Mof_H 	H 	0.1835	0.9981	0.7321	0.088
Mof_H 	H 	0.5749	0.8728	0.8412	0.038
Mof_H 	H 	0.1902	0.9324	0.0471	0.033
Mof_H 	H 	0.3728	0.6588	0.4251	0.038
Mof_H 	H 	0.2851	0.7418	0.0688	0.019
Mof_H 	H 	0.3195	0.7309	0.29	0.193
Mof_H 	H 	0.6805	0.2309	0.21	0.193
Mof_H 	H 	0.6272	0.1588	0.0749	0.038
Mof_H 	H 	0.4906	0.2318	0.7208	0.072
Mof_H 	H 	0.2047	0.0513	0.5622	0.036
Mof_H 	H 	0.7029	0.8176	0.5598	0.033
Mof_H 	H 	0.3937	0.3961	0.5295	0.065
Mof_H 	H 	0.3319	0.6355	0.9955	0.043
Mof_H 	H 	0.8961	0.9705	0.6063	0.065
Mof_H 	H 	0.54	0.5191	0.0695	0.193
Mof_H 	H 	0.9196	0.021	0.3127	0.046
Mof_H 	H 	0.7679	0.8165	0.4981	0.088
Mof_H 	H 	0.6696	0.5627	0.229	0.046
Mof_H 	H 	0.1272	0.3412	0.9251	0.038
Mof_H 	H 	0.3244	0.6567	0.3191	0.042
Mof_H 	H 	0.1756	0.3433	0.8191	0.042
Mof_H 	H 	0.2792	0.9906	0.2682	0.072
Mof_H 	H 	0.379	0.9609	0.3323	0.059
Mof_H 	H 	0.6542	0.4421	0.248	0.045
Mof_H 	H 	0.4487	0.4378	0.7047	0.036
Mof_H 	H 	0.1681	0.3645	0.4955	0.043
Mof_H 	H 	0.5452	0.6101	0.947	-0.002
Mof_H 	H 	0.0823	0.2109	0.871	0.059
Mof_H 	H 	0.96	0.4809	0.5695	0.193
Mof_H 	H 	0.5082	0.0351	0.3188	0.019
Mof_H 	H 	0.371	0.4177	0.7891	0.059
Mof_H 	H 	0.8127	0.5804	0.979	0.046
Mof_H 	H 	0.5045	0.6681	0.1355	0.043
Mof_H 	H 	0.9373	0.771	0.1696	0.046
Mof_H 	H 	0.2406	0.9708	0.0182	0.072
Mof_H 	H 	0.2309	0.21	0.6805	0.193
Mof_H 	H 	0.3772	0.3249	0.0912	0.038
Mof_H 	H 	0.629	0.9177	0.7109	0.059
Mof_H 	H 	0.4809	0.5695	0.96	0.193
Mof_H 	H 	0.1809	0.6756	0.1567	0.042
Mof_H 	H 	0.2519	0.9335	0.9821	0.088
Mof_H 	H 	0.2804	0.5969	0.9499	0.034
Mof_H 	H 	0.2594	0.0292	0.5182	0.072
Mof_H 	H 	0.248	0.6542	0.4421	0.045
Mof_H 	H 	0.9705	0.6063	0.8961	0.065
Mof_H 	H 	0.8323	0.121	0.0391	0.059
Mof_H 	H 	0.1437	0.7795	0.8539	0.065
Mof_H 	H 	0.9309	0.4067	0.5744	0.042
Mof_H 	H 	0.8447	0.7775	0.8879	0.152
Mof_H 	H 	0.129	0.5823	0.2891	0.059
Mof_H 	H 	0.871	0.0823	0.2109	0.059
Mof_H 	H 	0.7952	0.303	0.3601	-0.002
Mof_H 	H 	0.4309	0.0933	0.4256	0.042
Mof_H 	H 	0.979	0.8127	0.5804	0.046
Mof_H 	H 	0.002	0.1921	0.9042	0.045
Mof_H 	H 	0.3799	0.7005	0.9273	0.061
Mof_H 	H 	0.6201	0.2005	0.5727	0.061
Mof_H 	H 	0.8728	0.8412	0.5749	0.038
Mof_H 	H 	0.8458	0.5579	0.748	0.045
Mof_H 	H 	0.4918	0.5351	0.1812	0.019
Mof_H 	H 	0.2481	0.0665	0.4821	0.088
Mof_H 	H 	0.3621	0.5275	0.0947	0.152
Mof_H 	H 	0.8191	0.1756	0.3433	0.042
Mof_H 	H 	0.2418	0.4312	0.7149	0.019
Mof_H 	H 	0.9818	0.7406	0.5292	0.072
Mof_H 	H 	0.1273	0.7049	0.1012	0.038
Mof_H 	H 	0.4547	0.6878	0.8013	0.036
Mof_H 	H 	0.6824	0.4402	0.2029	0.033
Mof_H 	H 	0.4053	0.6379	0.0275	0.152
Mof_H 	H 	0.3165	0.0019	0.2321	0.089
Mof_H 	H 	0.1878	0.6987	0.5453	0.036
Mof_H 	H 	0.7109	0.629	0.9177	0.059
Mof_H 	H 	0.502	0.3079	0.0958	0.045
Mof_H 	H 	0.6228	0.8249	0.4088	0.038
Mof_H 	H 	0.6039	0.0295	0.1063	0.065
Mof_H 	H 	0.9906	0.2682	0.2792	0.072
Mof_H 	H 	0.2582	0.5688	0.2149	0.019
Mof_H 	H 	0.5453	0.1878	0.6987	0.036
Mof_H 	H 	0.498	0.8079	0.4042	0.045
Mof_H 	H 	0.6488	0.0451	0.6227	0.038
Mof_H 	H 	0.1201	0.2995	0.4273	0.061
Mof_H 	H 	0.2318	0.7208	0.4906	0.072
Mof_H 	H 	0.4181	0.7545	0.1145	0.043
Mof_H 	H 	0.2545	0.3855	0.5819	0.043
Mof_H 	H 	0.5351	0.1812	0.4918	0.019
Mof_H 	H 	0.8122	0.1987	0.9547	0.036
Mof_H 	H 	0.3079	0.0958	0.502	0.045
Mof_H 	H 	0.0819	0.2455	0.6145	0.043
Mof_H 	H 	0.4529	0.8098	0.4324	0.033
Mof_H 	H 	0.9067	0.9256	0.0691	0.042
Mof_H 	H 	0.0292	0.5182	0.2594	0.072
Mof_H 	H 	0.3433	0.8191	0.1756	0.042
Mof_H 	H 	0.1542	0.0579	0.752	0.045
Mof_H 	H 	0.3961	0.5295	0.3937	0.065
Mof_H 	H 	0.0304	0.1999	0.6531	0.034
Mof_H 	H 	0.229	0.6696	0.5627	0.046
Mof_H 	H 	0.2109	0.871	0.0823	0.059
Mof_H 	H 	0.697	0.8601	0.7048	-0.002
Mof_H 	H 	0.2048	0.803	0.1399	-0.002
Mof_H 	H 	0.0958	0.502	0.3079	0.045
Mof_H 	H 	0.6921	0.5958	0.998	0.045
Mof_H 	H 	0.5691	0.5933	0.0744	0.042
Mof_H 	H 	0.04	0.9809	0.9305	0.193
Mof_H 	H 	0.7995	0.0727	0.8799	0.061
Mof_H 	H 	0.5451	0.8773	0.3512	0.038
Mof_H 	H 	0.5598	0.7029	0.8176	0.033
Mof_H 	H 	0.3013	0.0453	0.3122	0.035
Mof_H 	H 	0.4402	0.2029	0.6824	0.033
Mof_H 	H 	0.9312	0.7851	0.7582	0.019
Mof_H 	H 	0.0275	0.4053	0.6379	0.152
Mof_H 	H 	0.6902	0.5676	0.9529	0.033
Mof_H 	H 	0.0179	0.7519	0.5665	0.088
Mof_H 	H 	0.7149	0.2418	0.4312	0.019
Mof_H 	H 	0.2049	0.3988	0.8727	0.038
Mof_H 	H 	0.5391	0.6677	0.879	0.059
Mof_H 	H 	0.5182	0.2594	0.0292	0.072
Mof_H 	H 	0.9918	0.9649	0.8188	0.019
Mof_H 	H 	0.7208	0.4906	0.2318	0.072
Mof_H 	H 	0.9421	0.252	0.3458	0.045
Mof_H 	H 	0.6379	0.0275	0.4053	0.152
Mof_H 	H 	0.9181	0.7455	0.8855	0.043
Mof_H 	H 	0.8433	0.6809	0.8244	0.042
Mof_H 	H 	0.7792	0.5094	0.7318	0.072
Mof_H 	H 	0.8001	0.1531	0.4696	0.034
Mof_H 	H 	0.0082	0.4649	0.6812	0.019
Mof_H 	H 	0.8165	0.4981	0.7679	0.088
Mof_H 	H 	0.0579	0.752	0.1542	0.045
Mof_H 	H 	0.8244	0.8433	0.6809	0.042
Mof_H 	H 	0.1121	0.3447	0.7225	0.152
Mof_H 	H 	0.29	0.3195	0.7309	0.193
Mof_H 	H 	0.5471	0.3098	0.0676	0.033
Mof_H 	H 	0.053	0.0452	0.8899	-0.002
Mof_H 	H 	0.5933	0.0744	0.5691	0.042
Mof_H 	H 	0.2679	0.6835	0.5019	0.088
Mof_H 	H 	0.8195	0.7691	0.71	0.193
Mof_H 	H 	0.3469	0.5304	0.3001	0.034
Mof_H 	H 	0.4312	0.7149	0.2418	0.019
Mof_H 	H 	0.3176	0.9402	0.2971	0.033
Mof_H 	H 	0.6677	0.879	0.5391	0.059
Mof_H 	H 	0.8772	0.1751	0.9088	0.038
Mof_H 	H 	0.3127	0.9196	0.021	0.046
Mof_H 	H 	0.8079	0.4042	0.498	0.045
Mof_H 	H 	0.9547	0.8122	0.1987	0.036
Mof_H 	H 	0.3191	0.3244	0.6567	0.042
Mof_H 	H 	0.4609	0.1677	0.621	0.059
Mof_H 	H 	0.9548	0.3899	0.447	-0.002
Mof_H 	H 	0.9053	0.8621	0.9725	0.152
Mof_H 	H 	0.0501	0.7804	0.9031	0.034
Mof_H 	H 	0.5665	0.0179	0.7519	0.088
Mof_H 	H 	0.4708	0.4818	0.7594	0.072
Mof_H 	H 	0.4505	0.6299	0.3227	0.061
Mof_H 	H 	0.7196	0.0969	0.5501	0.034
Mof_H 	H 	0.0191	0.4305	0.46	0.193
Mof_H 	H 	0.9529	0.6902	0.5676	0.033
Mof_H 	H 	0.4421	0.248	0.6542	0.045
Mof_H 	H 	0.9088	0.8772	0.1751	0.038
Mof_H 	H 	0.3001	0.3469	0.5304	0.034
Mof_H 	H 	0.5191	0.0695	0.54	0.193
Mof_H 	H 	0.5292	0.9818	0.7406	0.072
Mof_H 	H 	0.5094	0.7318	0.7792	0.072
Mof_H 	H 	0.1012	0.1273	0.7049	0.038
Mof_H 	H 	0.0495	0.3701	0.8227	0.061
Mof_H 	H 	0.3563	0.2205	0.3539	0.065
Mof_H 	H 	0.8512	0.9549	0.1227	0.038
Mof_H 	H 	0.1751	0.9088	0.8772	0.038
Mof_H 	H 	0.197	0.6399	0.2952	-0.002
Mof_H 	H 	0.1063	0.6039	0.0295	0.065
Mof_H 	H 	0.3512	0.5451	0.8773	0.038
Mof_H 	H 	0.479	0.6873	0.4196	0.046
Mof_H 	H 	0.3249	0.0912	0.3772	0.038
Mof_H 	H 	0.6531	0.0304	0.1999	0.034
Mof_H 	H 	0.6437	0.7205	0.1461	0.065
Mof_H 	H 	0.2951	0.6012	0.3727	0.038
Mof_H 	H 	0.0688	0.2851	0.7418	0.019
Mof_H 	H 	0.4335	0.5179	0.7481	0.088
Mof_H 	H 	0.46	0.0191	0.4305	0.193
Mof_H 	H 	0.1567	0.1809	0.6756	0.042
Mof_H 	H 	0.7594	0.4708	0.4818	0.072
Mof_H 	H 	0.252	0.3458	0.9421	0.045
Mof_H 	H 	0.1696	0.9373	0.771	0.046
Mof_H 	H 	0.2005	0.5727	0.6201	0.061
Mof_H 	H 	0.2321	0.3165	0.0019	0.089
Mof_H 	H 	0.1812	0.4918	0.5351	0.019
Mof_H 	H 	0.4696	0.8001	0.1531	0.034
Mof_H 	H 	0.5513	0.9378	0.7953	0.036
Mof_H 	H 	0.4273	0.1201	0.2995	0.061
Mof_H 	H 	0.4196	0.479	0.6873	0.046
Mof_H 	H 	0.4177	0.7891	0.371	0.059
Mof_H 	H 	0.4821	0.2481	0.0665	0.088
Mof_H 	H 	0.7406	0.5292	0.9818	0.072
Mof_H 	H 	0.7682	0.2208	0.0094	0.072
Mof_H 	H 	0.1039	0.4705	0.8937	0.065
Mof_H 	H 	0.9981	0.7321	0.1835	0.088
Mof_H 	H 	0.5579	0.748	0.8458	0.045
Mof_H 	H 	0.6751	0.5912	0.1228	0.038
Mof_H 	H 	0.7309	0.29	0.3195	0.193
Mof_H 	H 	0.553	0.4548	0.1101	-0.002
Mof_H 	H 	0.3855	0.5819	0.2545	0.043
Mof_H 	H 	0.5676	0.9529	0.6902	0.033
Mof_H 	H 	0.6299	0.3227	0.4505	0.061
Mof_H 	H 	0.1773	0.5495	0.1299	0.061
Mof_H 	H 	0.7519	0.5665	0.0179	0.088
Mof_H 	H 	0.0513	0.5622	0.2047	0.036
Mof_H 	H 	0.8899	0.053	0.0452	-0.002
Mof_H 	H 	0.9708	0.0182	0.2406	0.072
Mof_H 	H 	0.7049	0.1012	0.1273	0.038
Mof_H 	H 	0.8412	0.5749	0.8728	0.038
Mof_H 	H 	0.0912	0.3772	0.3249	0.038
Mof_H 	H 	0.0744	0.5691	0.5933	0.042
Mof_H 	H 	0.0691	0.9067	0.9256	0.042
Mof_H 	H 	0.6553	0.2225	0.3879	0.152
Mof_H 	H 	0.2196	0.4031	0.4499	0.034
Mof_H 	H 	0.2682	0.2792	0.9906	0.072
Mof_H 	H 	0.1145	0.4181	0.7545	0.043
Mof_H 	H 	0.3773	0.1488	0.4549	0.038
Mof_H 	H 	0.3122	0.3013	0.0453	0.035
Mof_H 	H 	0.8319	0.8645	0.0045	0.043
Mof_H 	H 	0.1399	0.2048	0.803	-0.002
Mof_H 	H 	0.2149	0.2582	0.5688	0.019
Mof_H 	H 	0.0182	0.2406	0.9708	0.072
Mof_H 	H 	0.6355	0.9955	0.3319	0.043
Mof_H 	H 	0.0622	0.2953	0.9487	0.036
Mof_H 	H 	0.752	0.1542	0.0579	0.045
Mof_H 	H 	0.9696	0.6999	0.8469	0.034
Mof_H 	H 	0.4378	0.7047	0.4487	0.036
Mof_H 	H 	0.771	0.1696	0.9373	0.046
Mof_H 	H 	0.3988	0.8727	0.2049	0.038
Mof_H 	H 	0.8645	0.0045	0.8319	0.043
Mof_H 	H 	0.9256	0.0691	0.9067	0.042
Mof_H 	H 	0.6121	0.1553	0.2775	0.152
Mof_H 	H 	0.1677	0.621	0.4609	0.059
Mof_H 	H 	0.7205	0.1461	0.6437	0.065
Mof_H 	H 	0.7795	0.8539	0.1437	0.065
Mof_H 	H 	0.5627	0.229	0.6696	0.046
Mof_H 	H 	0.8855	0.9181	0.7455	0.043
Mof_H 	H 	0.0804	0.521	0.1873	0.046
Mof_H 	H 	0.3412	0.9251	0.1272	0.038
Mof_H 	H 	0.6835	0.5019	0.2679	0.088
Mof_H 	H 	0.8176	0.5598	0.7029	0.033
Mof_H 	H 	0.2971	0.3176	0.9402	0.033
Mof_H 	H 	0.1461	0.6437	0.7205	0.065
Mof_H 	H 	0.9505	0.8701	0.6773	0.061
Mof_H 	H 	0.8701	0.6773	0.9505	0.061
Mof_H 	H 	0.7582	0.9312	0.7851	0.019
Mof_H 	H 	0.9549	0.1227	0.8512	0.038
Mof_H 	H 	0.1805	0.2691	0.79	0.193
Mof_H 	H 	0.4705	0.8937	0.1039	0.065
Mof_H 	H 	0.5688	0.2149	0.2582	0.019
Mof_H 	H 	0.6012	0.3727	0.2951	0.038
Mof_H 	H 	0.7545	0.1145	0.4181	0.043
Mof_H 	H 	0.8937	0.1039	0.4705	0.065
Mof_H 	H 	0.2953	0.9487	0.0622	0.036
Mof_H 	H 	0.9251	0.1272	0.3412	0.038
Mof_H 	H 	0.9725	0.9053	0.8621	0.152
Mof_H 	H 	0.0727	0.8799	0.7995	0.061
Mof_H 	H 	0.0933	0.4256	0.4309	0.042
Mof_H 	H 	0.2795	0.6461	0.8563	0.065
Mof_H 	H 	0.5695	0.96	0.4809	0.193
Mof_H 	H 	0.0451	0.6227	0.6488	0.038
Mof_H 	H 	0.0598	0.7971	0.1824	0.033
Mof_H 	H 	0.1999	0.6531	0.0304	0.034
Mof_H 	H 	0.7851	0.7582	0.9312	0.019
Mof_H 	H 	0.2691	0.79	0.1805	0.193
Mof_H 	H 	0.0676	0.5471	0.3098	0.033
Mof_H 	H 	0.7048	0.697	0.8601	-0.002
Mof_H 	H 	0.5275	0.0947	0.3621	0.152
Mof_H 	H 	0.1531	0.4696	0.8001	0.034
Mof_H 	H 	0.1588	0.0749	0.6272	0.038
Mof_H 	H 	0.2952	0.197	0.6399	-0.002
Mof_H 	H 	0.4256	0.4309	0.0933	0.042
Mof_H 	H 	0.0695	0.54	0.5191	0.193
Mof_H 	H 	0.6873	0.4196	0.479	0.046
Mof_H 	H 	0.121	0.0391	0.8323	0.059
Mof_H 	H 	0.3458	0.9421	0.252	0.045
Mof_H 	H 	0.4067	0.5744	0.9309	0.042
Mof_H 	H 	0.4725	0.5947	0.1379	0.152
Mof_H 	H 	0.0453	0.3122	0.3013	0.035
Mof_H 	H 	0.5744	0.9309	0.4067	0.042
Mof_H 	H 	0.947	0.5452	0.6101	-0.002
Mof_H 	H 	0.6273	0.7951	0.8988	0.038
Mof_H 	H 	0.1299	0.1773	0.5495	0.061
Mof_H 	H 	0.9649	0.8188	0.9918	0.019
Mof_H 	H 	0.6773	0.9505	0.8701	0.061
Mof_H 	H 	0.9402	0.2971	0.3176	0.033
Mof_H 	H 	0.0094	0.7682	0.2208	0.072
Mof_H 	H 	0.8988	0.6273	0.7951	0.038
Mof_H 	H 	0.2029	0.6824	0.4402	0.033
Mof_H 	H 	0.5823	0.2891	0.129	0.059
Mof_H 	H 	0.9031	0.0501	0.7804	0.034
Mof_H 	H 	0.8773	0.3512	0.5451	0.038
Mof_H 	H 	0.879	0.5391	0.6677	0.059
Mof_H 	H 	0.4649	0.6812	0.0082	0.019
Mof_H 	H 	0.0351	0.3188	0.5082	0.019
Mof_H 	H 	0.6399	0.2952	0.197	-0.002
Mof_H 	H 	0.6567	0.3191	0.3244	0.042
Mof_H 	H 	0.5622	0.2047	0.0513	0.036
Mof_H 	H 	0.9378	0.7953	0.5513	0.036
Mof_H 	H 	0.0391	0.8323	0.121	0.059
Mof_H 	H 	0.3539	0.3563	0.2205	0.065
Mof_H 	H 	0.4373	0.729	0.8304	0.046
Mof_H 	H 	0.2995	0.4273	0.1201	0.061
Mof_H 	H 	0.447	0.9548	0.3899	-0.002
Mof_H 	H 	0.2225	0.3879	0.6553	0.152
Mof_H 	H 	0.9821	0.2519	0.9335	0.088
Mof_C 	C 	0.275	0.3341	0.5443	0.032
Mof_C 	C 	0.1194	0.42	0.5552	0.255
Mof_C 	C 	0.8243	0.1015	0.8264	-0.056
Mof_C 	C 	0.4142	0.4721	0.7905	-0.023
Mof_C 	C 	0.225	0.6659	0.0443	0.032
Mof_C 	C 	0.5721	0.6014	0.0441	0.011
Mof_C 	C 	0.6108	0.9752	0.5591	0.108
Mof_C 	C 	0.5803	0.4749	0.2214	0.315
Mof_C 	C 	0.5407	0.2128	0.0747	0.003
Mof_C 	C 	0.3347	0.1566	0.3743	-0.086
Mof_C 	C 	0.1552	0.5696	0.1199	-0.001
Mof_C 	C 	0.982	0.4828	0.5472	-0.401
Mof_C 	C 	0.0612	0.514	0.2536	-0.145
Mof_C 	C 	0.8514	0.6779	0.7941	0.011
Mof_C 	C 	0.6129	0.1339	0.6553	0.018
Mof_C 	C 	0.8949	0.0024	0.8243	-0.007
Mof_C 	C 	0.7905	0.4142	0.4721	-0.023
Mof_C 	C 	0.2328	0.232	0.7028	-0.401
Mof_C 	C 	0.702	0.9267	0.2918	0.272
Mof_C 	C 	0.6261	0.9462	0.7275	-0.083
Mof_C 	C 	0.7943	0.9159	0.025	0.032
Mof_C 	C 	0.7145	0.0657	0.2698	0.1
Mof_C 	C 	0.7302	0.2145	0.4343	0.1
Mof_C 	C 	0.5841	0.975	0.2943	0.032
Mof_C 	C 	0.1007	0.8663	0.9715	0.017
Mof_C 	C 	0.9749	0.2786	0.4197	0.315
Mof_C 	C 	0.7249	0.6697	0.9714	0.315
Mof_C 	C 	0.6642	0.4595	0.2221	-0.023
Mof_C 	C 	0.3233	0.5999	0.7947	0.361
Mof_C 	C 	0.9714	0.7249	0.6697	0.315
Mof_C 	C 	0.6566	0.1257	0.6653	-0.086
Mof_C 	C 	0.7128	0.4253	0.4593	0.003
Mof_C 	C 	0.2476	0.6449	0.0743	-0.007
Mof_C 	C 	0.6402	0.9117	0.8002	0.209
Mof_C 	C 	0.5538	0.2725	0.1261	-0.083
Mof_C 	C 	0.1767	0.548	0.0418	0.272
Mof_C 	C 	0.5657	0.2302	0.2855	0.1
Mof_C 	C 	0.1261	0.5538	0.2725	-0.083
Mof_C 	C 	0.8102	0.8512	0.1378	0.001
Mof_C 	C 	0.1804	0.5948	0.6301	-0.001
Mof_C 	C 	0.4267	0.2082	0.298	0.272
Mof_C 	C 	0.83	0.8694	0.8052	0.255
Mof_C 	C 	0.2221	0.6642	0.4595	-0.023
Mof_C 	C 	0.2028	0.2672	0.768	-0.401
Mof_C 	C 	0.4645	0.5198	0.1843	0.1
Mof_C 	C 	0.9052	0.3699	0.6804	-0.001
Mof_C 	C 	0.7464	0.5612	0.986	-0.145
Mof_C 	C 	0.9159	0.025	0.7943	0.032
Mof_C 	C 	0.8665	0.8404	0.8001	-0.306
Mof_C 	C 	0.7214	0.9197	0.5251	0.315
Mof_C 	C 	0.1564	0.6197	0.5989	-0.062
Mof_C 	C 	0.6257	0.8347	0.3434	-0.086
Mof_C 	C 	0.6301	0.1804	0.5948	-0.001
Mof_C 	C 	0.5858	0.9721	0.7095	-0.023
Mof_C 	C 	0.7779	0.1642	0.0405	-0.023
Mof_C 	C 	0.6122	0.8988	0.9398	0.001
Mof_C 	C 	0.6553	0.6129	0.1339	0.018
Mof_C 	C 	0.9001	0.2053	0.8233	0.361
Mof_C 	C 	0.3447	0.1129	0.3661	0.018
Mof_C 	C 	0.2215	0.3837	0.8507	0.018
Mof_C 	C 	0.1753	0.9628	0.7907	0.003
Mof_C 	C 	0.8837	0.6493	0.7785	0.018
Mof_C 	C 	0.5733	0.4553	0.3499	0.361
Mof_C 	C 	0.1757	0.3949	0.4976	-0.007
Mof_C 	C 	0.2059	0.3514	0.8221	0.011
Mof_C 	C 	0.8001	0.8665	0.8404	-0.306
Mof_C 	C 	0.6007	0.6337	0.0285	0.018
Mof_C 	C 	0.9117	0.8002	0.6402	0.209
Mof_C 	C 	0.0372	0.2907	0.3247	0.004
Mof_C 	C 	0.7252	0.8608	0.6909	0.108
Mof_C 	C 	0.6015	0.6736	0.1757	-0.056
Mof_C 	C 	0.0904	0.3835	0.5501	-0.306
Mof_C 	C 	0.9267	0.5447	0.8499	0.361
Mof_C 	C 	0.0948	0.8699	0.8196	-0.001
Mof_C 	C 	0.6998	0.3598	0.4117	0.209
Mof_C 	C 	0.9557	0.725	0.8341	0.032
Mof_C 	C 	0.3986	0.5441	0.9279	0.011
Mof_C 	C 	0.8091	0.2748	0.3608	0.108
Mof_C 	C 	0.7057	0.0841	0.525	0.032
Mof_C 	C 	0.264	0.3112	0.9964	-0.146
Mof_C 	C 	0.2907	0.3247	0.0372	0.004
Mof_C 	C 	0.8739	0.0538	0.2275	-0.083
Mof_C 	C 	0.8551	0.9257	0.7476	-0.007
Mof_C 	C 	0.525	0.7057	0.0841	0.032
Mof_C 	C 	0.2725	0.1261	0.5538	-0.083
Mof_C 	C 	0.33	0.6306	0.1948	0.255
Mof_C 	C 	0.8988	0.9398	0.6122	0.001
Mof_C 	C 	0.2145	0.4343	0.7302	0.1
Mof_C 	C 	0.2943	0.5841	0.975	0.032
Mof_C 	C 	0.3243	0.3985	0.1736	-0.056
Mof_C 	C 	0.3871	0.6339	0.8447	0.018
Mof_C 	C 	0.2082	0.298	0.4267	0.272
Mof_C 	C 	0.2785	0.6163	0.3507	0.018
Mof_C 	C 	0.1161	0.3629	0.9053	0.018
Mof_C 	C 	0.3264	0.6757	0.8985	-0.056
Mof_C 	C 	0.3837	0.8507	0.2215	0.018
Mof_C 	C 	0.6012	0.0602	0.1122	0.001
Mof_C 	C 	0.0407	0.2872	0.9253	0.003
Mof_C 	C 	0.1757	0.6015	0.6736	-0.056
Mof_C 	C 	0.7368	0.2018	0.2335	0.335
Mof_C 	C 	0.4835	0.0482	0.4868	0.335
Mof_C 	C 	0.6753	0.5372	0.2093	0.003
Mof_C 	C 	0.514	0.2536	0.0612	-0.145
Mof_C 	C 	0.6197	0.5989	0.1564	-0.062
Mof_C 	C 	0.6888	0.4964	0.236	-0.145
Mof_C 	C 	0.8806	0.92	0.9448	0.255
Mof_C 	C 	0.6596	0.1999	0.3665	-0.306
Mof_C 	C 	0.2779	0.3358	0.9595	-0.022
Mof_C 	C 	0.798	0.0733	0.7918	0.272
Mof_C 	C 	0.3761	0.9775	0.3038	-0.083
Mof_C 	C 	0.4096	0.6165	0.0501	-0.306
Mof_C 	C 	0.0733	0.7918	0.798	0.272
Mof_C 	C 	0.4398	0.8878	0.1012	0.001
Mof_C 	C 	0.9582	0.6767	0.952	0.272
Mof_C 	C 	0.8052	0.83	0.8694	0.255
Mof_C 	C 	0.775	0.1659	0.4557	0.032
Mof_C 	C 	0.1015	0.8264	0.8243	-0.056
Mof_C 	C 	0.3629	0.9053	0.1161	0.018
Mof_C 	C 	0.2672	0.768	0.2028	-0.401
Mof_C 	C 	0.1339	0.6553	0.6129	0.018
Mof_C 	C 	0.7632	0.7982	0.7335	0.335
Mof_C 	C 	0.5502	0.1617	0.6098	0.209
Mof_C 	C 	0.7941	0.8514	0.6779	0.011
Mof_C 	C 	0.9553	0.1501	0.4267	0.361
Mof_C 	C 	0.7748	0.1392	0.1909	0.108
Mof_C 	C 	0.6511	0.3697	0.4064	-0.062
Mof_C 	C 	0.7018	0.2665	0.2632	0.335
Mof_C 	C 	0.0286	0.2249	0.8303	0.315
Mof_C 	C 	0.2918	0.702	0.9267	0.272
Mof_C 	C 	0.2464	0.9388	0.014	-0.145
Mof_C 	C 	0.3757	0.5934	0.4153	-0.086
Mof_C 	C 	0.452	0.5418	0.3233	0.272
Mof_C 	C 	0.5743	0.2524	0.3551	-0.007
Mof_C 	C 	0.3694	0.6948	0.17	0.255
Mof_C 	C 	0.1301	0.3196	0.4052	-0.001
Mof_C 	C 	0.6449	0.0743	0.2476	-0.007
Mof_C 	C 	0.1337	0.4715	0.3993	0.018
Mof_C 	C 	0.4159	0.475	0.2057	0.032
Mof_C 	C 	0.7751	0.3303	0.4714	0.315
Mof_C 	C 	0.0803	0.0251	0.7786	0.315
Mof_C 	C 	0.7698	0.7855	0.9343	0.1
Mof_C 	C 	0.3988	0.5602	0.3878	0.001
Mof_C 	C 	0.7972	0.7672	0.732	-0.401
Mof_C 	C 	0.1642	0.0405	0.7779	-0.023
Mof_C 	C 	0.3835	0.5501	0.0904	-0.306
Mof_C 	C 	0.486	0.7536	0.4388	-0.145
Mof_C 	C 	0.3303	0.4714	0.7751	0.315
Mof_C 	C 	0.2751	0.1697	0.5286	0.315
Mof_C 	C 	0.9715	0.1007	0.8663	0.017
Mof_C 	C 	0.4721	0.7905	0.4142	-0.023
Mof_C 	C 	0.5696	0.1199	0.1552	-0.001
Mof_C 	C 	0.5847	0.8757	0.9066	-0.086
Mof_C 	C 	0.9409	0.3892	0.4752	0.108
Mof_C 	C 	0.7947	0.3233	0.5999	0.361
Mof_C 	C 	0.2335	0.7368	0.2018	0.335
Mof_C 	C 	0.2249	0.8303	0.0286	0.315
Mof_C 	C 	0.5418	0.3233	0.452	0.272
Mof_C 	C 	0.0172	0.4528	0.482	-0.401
Mof_C 	C 	0.3091	0.2252	0.6392	0.108
Mof_C 	C 	0.1767	0.4001	0.2947	0.361
Mof_C 	C 	0.6337	0.0285	0.6007	0.018
Mof_C 	C 	0.2905	0.0858	0.5279	-0.023
Mof_C 	C 	0.8892	0.0248	0.0591	0.108
Mof_C 	C 	0.8507	0.2215	0.3837	0.018
Mof_C 	C 	0.5355	0.0198	0.3157	0.1
Mof_C 	C 	0.3661	0.3447	0.1129	0.018
Mof_C 	C 	0.8761	0.5225	0.6962	-0.083
Mof_C 	C 	0.8347	0.3434	0.6257	-0.086
Mof_C 	C 	0.9499	0.9096	0.8835	-0.306
Mof_C 	C 	0.3499	0.5733	0.4553	0.361
Mof_C 	C 	0.8757	0.9066	0.5847	-0.086
Mof_C 	C 	0.2214	0.5803	0.4749	0.315
Mof_C 	C 	0.9964	0.264	0.3112	-0.146
Mof_C 	C 	0.1098	0.9498	0.8383	0.209
Mof_C 	C 	0.0405	0.7779	0.1642	-0.023
Mof_C 	C 	0.3598	0.4117	0.6998	0.209
Mof_C 	C 	0.736	0.8112	0.5036	-0.145
Mof_C 	C 	0.7093	0.8247	0.4628	0.003
Mof_C 	C 	0.5285	0.8993	0.3663	0.018
Mof_C 	C 	0.4628	0.7093	0.8247	0.003
Mof_C 	C 	0.0743	0.4236	0.8515	-0.056
Mof_C 	C 	0.7059	0.1486	0.1779	0.011
Mof_C 	C 	0.6898	0.1488	0.6378	0.001
Mof_C 	C 	0.1165	0.4499	0.5904	-0.306
Mof_C 	C 	0.0225	0.8038	0.1239	-0.082
Mof_C 	C 	0.1257	0.6653	0.6566	-0.086
Mof_C 	C 	0.9398	0.6122	0.8988	0.001
Mof_C 	C 	0.2057	0.4159	0.475	0.032
Mof_C 	C 	0.3551	0.5743	0.2524	-0.007
Mof_C 	C 	0.4053	0.3839	0.6371	0.018
Mof_C 	C 	0.5552	0.1194	0.42	0.255
Mof_C 	C 	0.9197	0.5251	0.7214	0.315
Mof_C 	C 	0.8835	0.9499	0.9096	-0.306
Mof_C 	C 	0.4253	0.4593	0.7128	0.003
Mof_C 	C 	0.6653	0.6566	0.1257	-0.086
Mof_C 	C 	0.1596	0.3001	0.6335	-0.306
Mof_C 	C 	0.8436	0.1197	0.9011	-0.062
Mof_C 	C 	0.482	0.0172	0.4528	-0.401
Mof_C 	C 	0.3697	0.4064	0.6511	-0.062
Mof_C 	C 	0.4462	0.7725	0.3739	-0.083
Mof_C 	C 	0.0447	0.6501	0.0733	0.361
Mof_C 	C 	0.8157	0.9645	0.9802	0.1
Mof_C 	C 	0.9066	0.5847	0.8757	-0.086
Mof_C 	C 	0.5198	0.1843	0.4645	0.1
Mof_C 	C 	0.6098	0.5502	0.1617	0.209
Mof_C 	C 	0.5948	0.6301	0.1804	-0.001
Mof_C 	C 	0.6501	0.0733	0.0447	0.361
Mof_C 	C 	0.4197	0.9749	0.2786	0.315
Mof_C 	C 	0.4775	0.1962	0.6239	-0.083
Mof_C 	C 	0.8699	0.8196	0.0948	-0.001
Mof_C 	C 	0.9011	0.8436	0.1197	-0.062
Mof_C 	C 	0.3699	0.6804	0.9052	-0.001
Mof_C 	C 	0.1486	0.1779	0.7059	0.011
Mof_C 	C 	0.548	0.0418	0.1767	0.272
Mof_C 	C 	0.2698	0.7145	0.0657	0.1
Mof_C 	C 	0.7536	0.4388	0.486	-0.145
Mof_C 	C 	0.9462	0.7275	0.6261	-0.083
Mof_C 	C 	0.518	0.5172	0.0472	-0.401
Mof_C 	C 	0.3801	0.8448	0.0696	-0.001
Mof_C 	C 	0.2252	0.6392	0.3091	0.108
Mof_C 	C 	0.0696	0.3801	0.8448	-0.001
Mof_C 	C 	0.3902	0.0502	0.3383	0.209
Mof_C 	C 	0.4828	0.5472	0.982	-0.401
Mof_C 	C 	0.1909	0.7748	0.1392	0.108
Mof_C 	C 	0.1303	0.5936	0.1511	-0.062
Mof_C 	C 	0.8358	0.5405	0.7221	-0.023
Mof_C 	C 	0.6767	0.0999	0.7053	0.361
Mof_C 	C 	0.1501	0.4267	0.9553	0.361
Mof_C 	C 	0.5936	0.1511	0.1303	-0.062
Mof_C 	C 	0.7872	0.5747	0.9593	0.003
Mof_C 	C 	0.1617	0.6098	0.5502	0.209
Mof_C 	C 	0.1199	0.1552	0.5696	-0.001
Mof_C 	C 	0.8985	0.3264	0.6757	-0.056
Mof_C 	C 	0.6014	0.0441	0.5721	0.011
Mof_C 	C 	0.3001	0.6335	0.1596	-0.306
Mof_C 	C 	0.9257	0.7476	0.8551	-0.007
Mof_C 	C 	0.8697	0.0936	0.3489	-0.063
Mof_C 	C 	0.4528	0.482	0.0172	-0.401
Mof_C 	C 	0.9153	0.1243	0.4066	-0.086
Mof_C 	C 	0.6165	0.0501	0.4096	-0.306
Mof_C 	C 	0.5286	0.2751	0.1697	0.315
Mof_C 	C 	0.7335	0.7632	0.7982	0.335
Mof_C 	C 	0.4559	0.4279	0.1014	0.011
Mof_C 	C 	0.9721	0.7095	0.5858	-0.023
Mof_C 	C 	0.3112	0.9964	0.264	-0.146
Mof_C 	C 	0.7053	0.6767	0.0999	0.361
Mof_C 	C 	0.1012	0.4398	0.8878	0.001
Mof_C 	C 	0.025	0.7943	0.9159	0.032
Mof_C 	C 	0.5501	0.0904	0.3835	-0.306
Mof_C 	C 	0.7095	0.5858	0.9721	-0.023
Mof_C 	C 	0.4557	0.775	0.1659	0.032
Mof_C 	C 	0.1898	0.3512	0.3622	0.001
Mof_C 	C 	0.5443	0.275	0.3341	0.032
Mof_C 	C 	0.5482	0.0132	0.5165	0.335
Mof_C 	C 	0.6485	0.9257	0.9236	-0.056
Mof_C 	C 	0.0989	0.3436	0.3803	-0.063
Mof_C 	C 	0.4388	0.486	0.7536	-0.145
Mof_C 	C 	0.8598	0.0883	0.3002	0.209
Mof_C 	C 	0.4868	0.4835	0.0482	0.335
Mof_C 	C 	0.58	0.0552	0.3806	0.255
Mof_C 	C 	0.0472	0.518	0.5172	-0.401
Mof_C 	C 	0.8663	0.9715	0.1007	0.017
Mof_C 	C 	0.5441	0.9279	0.3986	0.011
Mof_C 	C 	0.2947	0.1767	0.4001	0.361
Mof_C 	C 	0.3002	0.8598	0.0883	0.209
Mof_C 	C 	0.8661	0.1553	0.8871	0.018
Mof_C 	C 	0.4802	0.6843	0.0355	0.1
Mof_C 	C 	0.9802	0.8157	0.9645	0.1
Mof_C 	C 	0.2018	0.2335	0.7368	0.335
Mof_C 	C 	0.7665	0.2368	0.2982	0.335
Mof_C 	C 	0.4117	0.6998	0.3598	0.209
Mof_C 	C 	0.7028	0.2328	0.232	-0.401
Mof_C 	C 	0.6564	0.8803	0.4011	-0.063
Mof_C 	C 	0.3839	0.6371	0.4053	0.018
Mof_C 	C 	0.2665	0.2632	0.7018	0.335
Mof_C 	C 	0.9448	0.8806	0.92	0.255
Mof_C 	C 	0.7221	0.8358	0.5405	-0.023
Mof_C 	C 	0.3233	0.452	0.5418	0.272
Mof_C 	C 	0.3052	0.67	0.1306	0.255
Mof_C 	C 	0.4236	0.8515	0.0743	-0.056
Mof_C 	C 	0.2053	0.8233	0.9001	0.361
Mof_C 	C 	0.8878	0.1012	0.4398	0.001
Mof_C 	C 	0.2972	0.7328	0.268	-0.401
Mof_C 	C 	0.3739	0.4462	0.7725	-0.083
Mof_C 	C 	0.1736	0.3243	0.3985	-0.056
Mof_C 	C 	0.4304	0.6199	0.3448	-0.001
Mof_C 	C 	0.4714	0.7751	0.3303	0.315
Mof_C 	C 	0.4749	0.2214	0.5803	0.315
Mof_C 	C 	0.7855	0.9343	0.7698	0.1
Mof_C 	C 	0.6339	0.8447	0.3871	0.018
Mof_C 	C 	0.1163	0.1493	0.7215	0.018
Mof_C 	C 	0.8112	0.5036	0.736	-0.145
Mof_C 	C 	0.202	0.5733	0.7082	0.272
Mof_C 	C 	0.8694	0.8052	0.83	0.255
Mof_C 	C 	0.1108	0.5248	0.4409	0.108
Mof_C 	C 	0.4001	0.2947	0.1767	0.361
Mof_C 	C 	0.8608	0.6909	0.7252	0.108
Mof_C 	C 	0.1493	0.7215	0.1163	0.018
Mof_C 	C 	0.9868	0.0165	0.9518	0.335
Mof_C 	C 	0.8515	0.0743	0.4236	-0.056
Mof_C 	C 	0.0883	0.3002	0.8598	0.209
Mof_C 	C 	0.4343	0.7302	0.2145	0.1
Mof_C 	C 	0.0743	0.2476	0.6449	-0.007
Mof_C 	C 	0.92	0.9448	0.8806	0.255
Mof_C 	C 	0.014	0.2464	0.9388	-0.145
Mof_C 	C 	0.5764	0.3515	0.4257	-0.056
Mof_C 	C 	0.6199	0.3448	0.4304	-0.001
Mof_C 	C 	0.0591	0.8892	0.0248	0.108
Mof_C 	C 	0.5251	0.7214	0.9197	0.315
Mof_C 	C 	0.8341	0.9557	0.725	0.032
Mof_C 	C 	0.2941	0.6486	0.3221	0.011
Mof_C 	C 	0.4052	0.1301	0.3196	-0.001
Mof_C 	C 	0.298	0.4267	0.2082	0.272
Mof_C 	C 	0.3489	0.8697	0.0936	-0.063
Mof_C 	C 	0.3878	0.3988	0.5602	0.001
Mof_C 	C 	0.6392	0.3091	0.2252	0.108
Mof_C 	C 	0.3803	0.0989	0.3436	-0.063
Mof_C 	C 	0.3196	0.4052	0.1301	-0.001
Mof_C 	C 	0.4582	0.8233	0.048	0.272
Mof_C 	C 	0.4448	0.6194	0.08	0.255
Mof_C 	C 	0.6488	0.8622	0.3102	0.001
Mof_C 	C 	0.6335	0.1596	0.3001	-0.306
Mof_C 	C 	0.8902	0.4498	0.6617	0.209
Mof_C 	C 	0.8434	0.8743	0.1653	-0.086
Mof_C 	C 	0.6804	0.9052	0.3699	-0.001
Mof_C 	C 	0.5612	0.986	0.7464	-0.145
Mof_C 	C 	0.6161	0.1371	0.0947	0.018
Mof_C 	C 	0.5132	0.9835	0.4518	0.335
Mof_C 	C 	0.7275	0.6261	0.9462	-0.083
Mof_C 	C 	0.5904	0.1165	0.4499	-0.306
Mof_C 	C 	0.952	0.9582	0.6767	0.272
Mof_C 	C 	0.9498	0.8383	0.1098	0.209
Mof_C 	C 	0.975	0.2943	0.5841	0.032
Mof_C 	C 	0.3038	0.3761	0.9775	-0.083
Mof_C 	C 	0.0947	0.6161	0.1371	0.018
Mof_C 	C 	0.8489	0.6303	0.9064	-0.062
Mof_C 	C 	0.17	0.3694	0.6948	0.255
Mof_C 	C 	0.4011	0.6564	0.8803	-0.063
Mof_C 	C 	0.725	0.8341	0.9557	0.032
Mof_C 	C 	0.0132	0.5165	0.5482	0.335
Mof_C 	C 	0.5989	0.1564	0.6197	-0.062
Mof_C 	C 	0.1962	0.6239	0.4775	-0.083
Mof_C 	C 	0.9253	0.0407	0.2872	0.003
Mof_C 	C 	0.2275	0.8739	0.0538	-0.083
Mof_C 	C 	0.9645	0.9802	0.8157	0.1
Mof_C 	C 	0.2524	0.3551	0.5743	-0.007
Mof_C 	C 	0.7476	0.8551	0.9257	-0.007
Mof_C 	C 	0.3102	0.6488	0.8622	0.001
Mof_C 	C 	0.7982	0.7335	0.7632	0.335
Mof_C 	C 	0.2368	0.2982	0.7665	0.335
Mof_C 	C 	0.6163	0.3507	0.2785	0.018
Mof_C 	C 	0.4498	0.6617	0.8902	0.209
Mof_C 	C 	0.2093	0.6753	0.5372	0.003
Mof_C 	C 	0.2872	0.9253	0.0407	0.003
Mof_C 	C 	0.8743	0.1653	0.8434	-0.086
Mof_C 	C 	0.9559	0.0721	0.8986	0.011
Mof_C 	C 	0.1659	0.4557	0.775	0.032
Mof_C 	C 	0.5747	0.9593	0.7872	0.003
Mof_C 	C 	0.4257	0.5764	0.3515	-0.056
Mof_C 	C 	0.2095	0.9142	0.0279	-0.023
Mof_C 	C 	0.3515	0.4257	0.5764	-0.056
Mof_C 	C 	0.0443	0.225	0.6659	0.032
Mof_C 	C 	0.4267	0.9553	0.1501	0.361
Mof_C 	C 	0.0251	0.7786	0.0803	0.315
Mof_C 	C 	0.232	0.7028	0.2328	-0.401
Mof_C 	C 	0.5447	0.8499	0.9267	0.361
Mof_C 	C 	0.8002	0.6402	0.9117	0.209
Mof_C 	C 	0.8383	0.1098	0.9498	0.209
Mof_C 	C 	0.2786	0.4197	0.9749	0.315
Mof_C 	C 	0.048	0.4582	0.8233	0.272
Mof_C 	C 	0.0165	0.9518	0.9868	0.335
Mof_C 	C 	0.6948	0.17	0.3694	0.255
Mof_C 	C 	0.7215	0.1163	0.1493	0.018
Mof_C 	C 	0.1488	0.6378	0.6898	0.001
Mof_C 	C 	0.1014	0.4559	0.4279	0.011
Mof_C 	C 	0.8447	0.3871	0.6339	0.018
Mof_C 	C 	0.8221	0.2059	0.3514	0.011
Mof_C 	C 	0.9343	0.7698	0.7855	0.1
Mof_C 	C 	0.0036	0.764	0.1888	-0.145
Mof_C 	C 	0.8629	0.5947	0.8839	0.018
Mof_C 	C 	0.1371	0.0947	0.6161	0.018
Mof_C 	C 	0.3507	0.2785	0.6163	0.018
Mof_C 	C 	0.3448	0.4304	0.6199	-0.001
Mof_C 	C 	0.0858	0.5279	0.2905	-0.023
Mof_C 	C 	0.1553	0.8871	0.8661	0.018
Mof_C 	C 	0.0602	0.1122	0.6012	0.001
Mof_C 	C 	0.6909	0.7252	0.8608	0.108
Mof_C 	C 	0.9595	0.2779	0.3358	-0.022
Mof_C 	C 	0.6843	0.0355	0.4802	0.1
Mof_C 	C 	0.0198	0.3157	0.5355	0.1
Mof_C 	C 	0.6194	0.08	0.4448	0.255
Mof_C 	C 	0.9828	0.9528	0.018	-0.401
Mof_C 	C 	0.1402	0.5883	0.1998	0.209
Mof_C 	C 	0.3622	0.1898	0.3512	0.001
Mof_C 	C 	0.6962	0.8761	0.5225	-0.083
Mof_C 	C 	0.768	0.2028	0.2672	-0.401
Mof_C 	C 	0.0999	0.7053	0.6767	0.361
Mof_C 	C 	0.2632	0.7018	0.2665	0.335
Mof_C 	C 	0.42	0.5552	0.1194	0.255
Mof_C 	C 	0.8303	0.0286	0.2249	0.315
Mof_C 	C 	0.1948	0.33	0.6306	0.255
Mof_C 	C 	0.1779	0.7059	0.1486	0.011
Mof_C 	C 	0.8247	0.4628	0.7093	0.003
Mof_C 	C 	0.4964	0.236	0.6888	-0.145
Mof_C 	C 	0.6757	0.8985	0.3264	-0.056
Mof_C 	C 	0.5248	0.4409	0.1108	0.108
Mof_C 	C 	0.2855	0.5657	0.2302	0.1
Mof_C 	C 	0.1122	0.6012	0.0602	0.001
Mof_C 	C 	0.5024	0.6757	0.1051	-0.007
Mof_C 	C 	0.7786	0.0803	0.0251	0.315
Mof_C 	C 	0.4715	0.3993	0.1337	0.018
Mof_C 	C 	0.1239	0.0225	0.8038	-0.082
Mof_C 	C 	0.4279	0.1014	0.4559	0.011
Mof_C 	C 	0.7918	0.798	0.0733	0.272
Mof_C 	C 	0.3221	0.2941	0.6486	0.011
Mof_C 	C 	0.0847	0.6243	0.0934	-0.086
Mof_C 	C 	0.9835	0.4518	0.5132	0.335
Mof_C 	C 	0.018	0.9828	0.9528	-0.401
Mof_C 	C 	0.1378	0.8102	0.8512	0.001
Mof_C 	C 	0.0501	0.4096	0.6165	-0.306
Mof_C 	C 	0.6757	0.1051	0.5024	-0.007
Mof_C 	C 	0.9388	0.014	0.2464	-0.145
Mof_C 	C 	0.0482	0.4868	0.4835	0.335
Mof_C 	C 	0.4518	0.5132	0.9835	0.335
Mof_C 	C 	0.6736	0.1757	0.6015	-0.056
Mof_C 	C 	0.8871	0.8661	0.1553	0.018
Mof_C 	C 	0.9142	0.0279	0.2095	-0.023
Mof_C 	C 	0.6617	0.8902	0.4498	0.209
Mof_C 	C 	0.9628	0.7907	0.1753	0.003
Mof_C 	C 	0.0733	0.0447	0.6501	0.361
Mof_C 	C 	0.9976	0.3243	0.6051	-0.007
Mof_C 	C 	0.8839	0.8629	0.5947	0.018
Mof_C 	C 	0.7725	0.3739	0.4462	-0.083
Mof_C 	C 	0.6999	0.1335	0.3404	-0.306
Mof_C 	C 	0.3436	0.3803	0.0989	-0.063
Mof_C 	C 	0.8448	0.0696	0.3801	-0.001
Mof_C 	C 	0.2302	0.2855	0.5657	0.1
Mof_C 	C 	0.3247	0.0372	0.2907	0.004
Mof_C 	C 	0.6779	0.7941	0.8514	0.011
Mof_C 	C 	0.2982	0.7665	0.2368	0.335
Mof_C 	C 	0.6378	0.6898	0.1488	0.001
Mof_C 	C 	0.4257	0.7524	0.1449	-0.007
Mof_C 	C 	0.3892	0.4752	0.9409	0.108
Mof_C 	C 	0.3985	0.1736	0.3243	-0.056
Mof_C 	C 	0.3806	0.58	0.0552	0.255
Mof_C 	C 	0.9267	0.2918	0.702	0.272
Mof_C 	C 	0.3157	0.5355	0.0198	0.1
Mof_C 	C 	0.5279	0.2905	0.0858	-0.023
Mof_C 	C 	0.0747	0.5407	0.2128	0.003
Mof_C 	C 	0.6697	0.9714	0.7249	0.315
Mof_C 	C 	0.8622	0.3102	0.6488	0.001
Mof_C 	C 	0.5372	0.2093	0.6753	0.003
Mof_C 	C 	0.9064	0.8489	0.6303	-0.062
Mof_C 	C 	0.7672	0.732	0.7972	-0.401
Mof_C 	C 	0.9518	0.9868	0.0165	0.335
Mof_C 	C 	0.2748	0.3608	0.8091	0.108
Mof_C 	C 	0.0841	0.525	0.7057	0.032
Mof_C 	C 	0.1697	0.5286	0.2751	0.315
Mof_C 	C 	0.5934	0.4153	0.3757	-0.086
Mof_C 	C 	0.3434	0.6257	0.8347	-0.086
Mof_C 	C 	0.7524	0.1449	0.4257	-0.007
Mof_C 	C 	0.0552	0.3806	0.58	0.255
Mof_C 	C 	0.4153	0.3757	0.5934	-0.086
Mof_C 	C 	0.9053	0.1161	0.3629	0.018
Mof_C 	C 	0.3514	0.8221	0.2059	0.011
Mof_C 	C 	0.8993	0.3663	0.5285	0.018
Mof_C 	C 	0.5743	0.0764	0.1485	-0.056
Mof_C 	C 	0.9257	0.9236	0.6485	-0.056
Mof_C 	C 	0.3743	0.3347	0.1566	-0.086
Mof_C 	C 	0.8233	0.048	0.4582	0.272
Mof_C 	C 	0.0936	0.3489	0.8697	-0.063
Mof_C 	C 	0.0538	0.2275	0.8739	-0.083
Mof_C 	C 	0.1449	0.4257	0.7524	-0.007
Mof_C 	C 	0.5591	0.6108	0.9752	0.108
Mof_C 	C 	0.6552	0.9304	0.8801	-0.001
Mof_C 	C 	0.236	0.6888	0.4964	-0.145
Mof_C 	C 	0.6303	0.9064	0.8489	-0.062
Mof_C 	C 	0.1243	0.4066	0.9153	-0.086
Mof_C 	C 	0.8499	0.9267	0.5447	0.361
Mof_C 	C 	0.1511	0.1303	0.5936	-0.062
Mof_C 	C 	0.4066	0.9153	0.1243	-0.086
Mof_C 	C 	0.2128	0.0747	0.5407	0.003
Mof_C 	C 	0.8196	0.0948	0.8699	-0.001
Mof_C 	C 	0.7328	0.268	0.2972	-0.401
Mof_C 	C 	0.0418	0.1767	0.548	0.272
Mof_C 	C 	0.764	0.1888	0.0036	-0.145
Mof_C 	C 	0.7082	0.202	0.5733	0.272
Mof_C 	C 	0.3608	0.8091	0.2748	0.108
Mof_C 	C 	0.1335	0.3404	0.6999	-0.306
Mof_C 	C 	0.5165	0.5482	0.0132	0.335
Mof_C 	C 	0.0285	0.6007	0.6337	0.018
Mof_C 	C 	0.4593	0.7128	0.4253	0.003
Mof_C 	C 	0.0934	0.0847	0.6243	-0.086
Mof_C 	C 	0.6486	0.3221	0.2941	0.011
Mof_C 	C 	0.4595	0.2221	0.6642	-0.023
Mof_C 	C 	0.1051	0.5024	0.6757	-0.007
Mof_C 	C 	0.1197	0.9011	0.8436	-0.062
Mof_C 	C 	0.67	0.1306	0.3052	0.255
Mof_C 	C 	0.9528	0.018	0.9828	-0.401
Mof_C 	C 	0.5947	0.8839	0.8629	0.018
Mof_C 	C 	0.1843	0.4645	0.5198	0.1
Mof_C 	C 	0.0279	0.2095	0.9142	-0.023
Mof_C 	C 	0.3949	0.4976	0.1757	-0.007
Mof_C 	C 	0.8264	0.8243	0.1015	-0.056
Mof_C 	C 	0.3358	0.9595	0.2779	-0.022
Mof_C 	C 	0.0355	0.4802	0.6843	0.1
Mof_C 	C 	0.1392	0.1909	0.7748	0.108
Mof_C 	C 	0.1653	0.8434	0.8743	-0.086
Mof_C 	C 	0.9775	0.3038	0.3761	-0.083
Mof_C 	C 	0.5036	0.736	0.8112	-0.145
Mof_C 	C 	0.5225	0.6962	0.8761	-0.083
Mof_C 	C 	0.5733	0.7082	0.202	0.272
Mof_C 	C 	0.4409	0.1108	0.5248	0.108
Mof_C 	C 	0.3663	0.5285	0.8993	0.018
Mof_C 	C 	0.3243	0.6051	0.9976	-0.007
Mof_C 	C 	0.0248	0.0591	0.8892	0.108
Mof_C 	C 	0.1999	0.3665	0.6596	-0.306
Mof_C 	C 	0.5405	0.7221	0.8358	-0.023
Mof_C 	C 	0.8803	0.4011	0.6564	-0.063
Mof_C 	C 	0.9752	0.5591	0.6108	0.108
Mof_C 	C 	0.8404	0.8001	0.8665	-0.306
Mof_C 	C 	0.0764	0.1485	0.5743	-0.056
Mof_C 	C 	0.3993	0.1337	0.4715	0.018
Mof_C 	C 	0.8243	0.8949	0.0024	-0.007
Mof_C 	C 	0.475	0.2057	0.4159	0.032
Mof_C 	C 	0.9279	0.3986	0.5441	0.011
Mof_C 	C 	0.0721	0.8986	0.9559	0.011
Mof_C 	C 	0.1306	0.3052	0.67	0.255
Mof_C 	C 	0.6659	0.0443	0.225	0.032
Mof_C 	C 	0.732	0.7972	0.7672	-0.401
Mof_C 	C 	0.6306	0.1948	0.33	0.255
Mof_C 	C 	0.9593	0.7872	0.5747	0.003
Mof_C 	C 	0.0502	0.3383	0.3902	0.209
Mof_C 	C 	0.1566	0.3743	0.3347	-0.086
Mof_C 	C 	0.6493	0.7785	0.8837	0.018
Mof_C 	C 	0.6767	0.952	0.9582	0.272
Mof_C 	C 	0.4976	0.1757	0.3949	-0.007
Mof_C 	C 	0.3665	0.6596	0.1999	-0.306
Mof_C 	C 	0.9304	0.8801	0.6552	-0.001
Mof_C 	C 	0.1998	0.1402	0.5883	0.209
Mof_C 	C 	0.3341	0.5443	0.275	0.032
Mof_C 	C 	0.08	0.4448	0.6194	0.255
Mof_C 	C 	0.7785	0.8837	0.6493	0.018
Mof_C 	C 	0.5472	0.982	0.4828	-0.401
Mof_C 	C 	0.4752	0.9409	0.3892	0.108
Mof_C 	C 	0.4553	0.3499	0.5733	0.361
Mof_C 	C 	0.7907	0.1753	0.9628	0.003
Mof_C 	C 	0.5883	0.1998	0.1402	0.209
Mof_C 	C 	0.5999	0.7947	0.3233	0.361
Mof_C 	C 	0.1129	0.3661	0.3447	0.018
Mof_C 	C 	0.8986	0.9559	0.0721	0.011
Mof_C 	C 	0.268	0.2972	0.7328	-0.401
Mof_C 	C 	0.6371	0.4053	0.3839	0.018
Mof_C 	C 	0.8801	0.6552	0.9304	-0.001
Mof_C 	C 	0.6051	0.9976	0.3243	-0.007
Mof_C 	C 	0.6239	0.4775	0.1962	-0.083
Mof_C 	C 	0.986	0.7464	0.5612	-0.145
Mof_C 	C 	0.0657	0.2698	0.7145	0.1
Mof_C 	C 	0.8512	0.1378	0.8102	0.001
Mof_C 	C 	0.8233	0.9001	0.2053	0.361
Mof_C 	C 	0.1888	0.0036	0.764	-0.145
Mof_C 	C 	0.5172	0.0472	0.518	-0.401
Mof_C 	C 	0.1485	0.5743	0.0764	-0.056
Mof_C 	C 	0.3404	0.6999	0.1335	-0.306
Mof_C 	C 	0.3512	0.3622	0.1898	0.001
Mof_C 	C 	0.6243	0.0934	0.0847	-0.086
Mof_C 	C 	0.0441	0.5721	0.6014	0.011
Mof_C 	C 	0.2536	0.0612	0.514	-0.145
Mof_C 	C 	0.0024	0.8243	0.8949	-0.007
Mof_C 	C 	0.5602	0.3878	0.3988	0.001
Mof_C 	C 	0.9236	0.6485	0.9257	-0.056
Mof_C 	C 	0.8038	0.1239	0.0225	-0.082
Mof_C 	C 	0.3383	0.3902	0.0502	0.209
Mof_C 	C 	0.4064	0.6511	0.3697	-0.062
Mof_C 	C 	0.4499	0.5904	0.1165	-0.306
Mof_C 	C 	0.9096	0.8835	0.9499	-0.306
Mof_N 	N 	0.9762	0.8131	0.1358	-0.124
Mof_N 	N 	0.7404	0.1676	0.2018	-0.181
Mof_N 	N 	0.5824	0.0096	0.5482	-0.181
Mof_N 	N 	0.4084	0.1396	0.5138	-0.151
Mof_N 	N 	0.8131	0.1358	0.9762	-0.124
Mof_N 	N 	0.5261	0.1569	0.427	-0.156
Mof_N 	N 	0.7018	0.7596	0.8324	-0.181
Mof_N 	N 	0.8604	0.0138	0.0916	-0.151
Mof_N 	N 	0.4561	0.4887	0.2157	-0.147
Mof_N 	N 	0.0439	0.5113	0.7157	-0.147
Mof_N 	N 	0.7613	0.2061	0.4657	-0.147
Mof_N 	N 	0.2843	0.5439	0.9887	-0.147
Mof_N 	N 	0.0096	0.5482	0.5824	-0.181
Mof_N 	N 	0.177	0.4069	0.7239	-0.156
Mof_N 	N 	0.8416	0.2638	0.3896	-0.151
Mof_N 	N 	0.7262	0.3858	0.4369	-0.124
Mof_N 	N 	0.7596	0.8324	0.7018	-0.181
Mof_N 	N 	0.7387	0.7939	0.9657	-0.147
Mof_N 	N 	0.927	0.9739	0.8431	-0.156
Mof_N 	N 	0.6569	0.073	0.4739	-0.156
Mof_N 	N 	0.0482	0.9176	0.9904	-0.181
Mof_N 	N 	0.5096	0.9518	0.4176	-0.181
Mof_N 	N 	0.4069	0.7239	0.177	-0.156
Mof_N 	N 	0.9084	0.3604	0.4862	-0.151
Mof_N 	N 	0.6584	0.7362	0.8896	-0.151
Mof_N 	N 	0.6104	0.3416	0.2362	-0.151
Mof_N 	N 	0.2939	0.5343	0.2613	-0.147
Mof_N 	N 	0.7738	0.6142	0.9369	-0.124
Mof_N 	N 	0.9657	0.7387	0.7939	-0.147
Mof_N 	N 	0.2738	0.8858	0.0631	-0.124
Mof_N 	N 	0.7239	0.177	0.4069	-0.156
Mof_N 	N 	0.4762	0.6869	0.8642	-0.124
Mof_N 	N 	0.9887	0.2843	0.5439	-0.147
Mof_N 	N 	0.2613	0.2939	0.5343	-0.147
Mof_N 	N 	0.9561	0.0113	0.7843	-0.147
Mof_N 	N 	0.2761	0.677	0.0931	-0.156
Mof_N 	N 	0.5631	0.2262	0.1142	-0.124
Mof_N 	N 	0.8431	0.927	0.9739	-0.156
Mof_N 	N 	0.5482	0.5824	0.0096	-0.181
Mof_N 	N 	0.3642	0.0238	0.3131	-0.124
Mof_N 	N 	0.1396	0.5138	0.4084	-0.151
Mof_N 	N 	0.9904	0.0482	0.9176	-0.181
Mof_N 	N 	0.0238	0.3131	0.3642	-0.124
Mof_N 	N 	0.0916	0.8604	0.0138	-0.151
Mof_N 	N 	0.0824	0.4904	0.4518	-0.181
Mof_N 	N 	0.7939	0.9657	0.7387	-0.147
Mof_N 	N 	0.7843	0.9561	0.0113	-0.147
Mof_N 	N 	0.3324	0.7982	0.2404	-0.181
Mof_N 	N 	0.0138	0.0916	0.8604	-0.151
Mof_N 	N 	0.0113	0.7843	0.9561	-0.147
Mof_N 	N 	0.5138	0.4084	0.1396	-0.151
Mof_N 	N 	0.6358	0.5238	0.1869	-0.124
Mof_N 	N 	0.5931	0.2239	0.323	-0.156
Mof_N 	N 	0.4887	0.2157	0.4561	-0.147
Mof_N 	N 	0.3431	0.573	0.0261	-0.156
Mof_N 	N 	0.5343	0.2613	0.2939	-0.147
Mof_N 	N 	0.2982	0.2596	0.6676	-0.181
Mof_N 	N 	0.8858	0.0631	0.2738	-0.124
Mof_N 	N 	0.0631	0.2738	0.8858	-0.124
Mof_N 	N 	0.2638	0.3896	0.8416	-0.151
Mof_N 	N 	0.7761	0.823	0.9069	-0.156
Mof_N 	N 	0.3858	0.4369	0.7262	-0.124
Mof_N 	N 	0.2387	0.7061	0.0343	-0.147
Mof_N 	N 	0.8324	0.7018	0.7596	-0.181
Mof_N 	N 	0.6142	0.9369	0.7738	-0.124
Mof_N 	N 	0.2061	0.4657	0.7613	-0.147
Mof_N 	N 	0.2362	0.6104	0.3416	-0.151
Mof_N 	N 	0.1104	0.1584	0.7638	-0.151
Mof_N 	N 	0.823	0.9069	0.7761	-0.156
Mof_N 	N 	0.677	0.0931	0.2761	-0.156
Mof_N 	N 	0.4904	0.4518	0.0824	-0.181
Mof_N 	N 	0.6396	0.9862	0.5916	-0.151
Mof_N 	N 	0.7362	0.8896	0.6584	-0.151
Mof_N 	N 	0.3604	0.4862	0.9084	-0.151
Mof_N 	N 	0.7061	0.0343	0.2387	-0.147
Mof_N 	N 	0.3131	0.3642	0.0238	-0.124
Mof_N 	N 	0.0343	0.2387	0.7061	-0.147
Mof_N 	N 	0.2404	0.3324	0.7982	-0.181
Mof_N 	N 	0.6869	0.8642	0.4762	-0.124
Mof_N 	N 	0.323	0.5931	0.2239	-0.156
Mof_N 	N 	0.9518	0.4176	0.5096	-0.181
Mof_N 	N 	0.9369	0.7738	0.6142	-0.124
Mof_N 	N 	0.4862	0.9084	0.3604	-0.151
Mof_N 	N 	0.1869	0.6358	0.5238	-0.124
Mof_N 	N 	0.3896	0.8416	0.2638	-0.151
Mof_N 	N 	0.7638	0.1104	0.1584	-0.151
Mof_N 	N 	0.1358	0.9762	0.8131	-0.124
Mof_N 	N 	0.5439	0.9887	0.2843	-0.147
Mof_N 	N 	0.4518	0.0824	0.4904	-0.181
Mof_N 	N 	0.1142	0.5631	0.2262	-0.124
Mof_N 	N 	0.1569	0.427	0.5261	-0.156
Mof_N 	N 	0.1584	0.7638	0.1104	-0.151
Mof_N 	N 	0.8642	0.4762	0.6869	-0.124
Mof_N 	N 	0.4657	0.7613	0.2061	-0.147
Mof_N 	N 	0.7157	0.0439	0.5113	-0.147
Mof_N 	N 	0.2018	0.7404	0.1676	-0.181
Mof_N 	N 	0.9862	0.5916	0.6396	-0.151
Mof_N 	N 	0.073	0.4739	0.6569	-0.156
Mof_N 	N 	0.0261	0.3431	0.573	-0.156
Mof_N 	N 	0.9176	0.9904	0.0482	-0.181
Mof_N 	N 	0.573	0.0261	0.3431	-0.156
Mof_N 	N 	0.7982	0.2404	0.3324	-0.181
Mof_N 	N 	0.5113	0.7157	0.0439	-0.147
Mof_N 	N 	0.3416	0.2362	0.6104	-0.151
Mof_N 	N 	0.2157	0.4561	0.4887	-0.147
Mof_N 	N 	0.0931	0.2761	0.677	-0.156
Mof_N 	N 	0.2596	0.6676	0.2982	-0.181
Mof_N 	N 	0.2262	0.1142	0.5631	-0.124
Mof_N 	N 	0.6676	0.2982	0.2596	-0.181
Mof_N 	N 	0.1676	0.2018	0.7404	-0.181
Mof_N 	N 	0.427	0.5261	0.1569	-0.156
Mof_N 	N 	0.4369	0.7262	0.3858	-0.124
Mof_N 	N 	0.8896	0.6584	0.7362	-0.151
Mof_N 	N 	0.5238	0.1869	0.6358	-0.124
Mof_N 	N 	0.2239	0.323	0.5931	-0.156
Mof_N 	N 	0.5916	0.6396	0.9862	-0.151
Mof_N 	N 	0.4176	0.5096	0.9518	-0.181
Mof_N 	N 	0.9739	0.8431	0.927	-0.156
Mof_N 	N 	0.4739	0.6569	0.073	-0.156
Mof_N 	N 	0.9069	0.7761	0.823	-0.156
Mof_O 	O 	0.6873	0.9772	0.6869	-0.313
Mof_O 	O 	0.0631	0.7728	0.0627	-0.313
Mof_O 	O 	0.1032	0.0162	0.661	-0.243
Mof_O 	O 	0.3076	0.422	0.2489	-0.25
Mof_O 	O 	0.2408	0.5655	0.5098	-0.247
Mof_O 	O 	0.4636	0.9538	0.163	-0.309
Mof_O 	O 	0.4644	0.6405	0.9234	-0.235
Mof_O 	O 	0.5364	0.4538	0.337	-0.309
Mof_O 	O 	0.9373	0.5631	0.7272	-0.313
Mof_O 	O 	0.828	0.0576	0.4989	-0.25
Mof_O 	O 	0.5162	0.839	0.8968	-0.243
Mof_O 	O 	0.8131	0.3127	0.4772	-0.313
Mof_O 	O 	0.5573	0.2974	0.4835	-0.234
Mof_O 	O 	0.7338	0.6468	0.089	-0.243
Mof_O 	O 	0.589	0.7662	0.3532	-0.243
Mof_O 	O 	0.9902	0.7592	0.0655	-0.247
Mof_O 	O 	0.5098	0.2408	0.5655	-0.247
Mof_O 	O 	0.0364	0.0462	0.663	-0.309
Mof_O 	O 	0.2665	0.4526	0.1927	-0.234
Mof_O 	O 	0.078	0.7511	0.8076	-0.25
Mof_O 	O 	0.4835	0.5573	0.2974	-0.234
Mof_O 	O 	0.7402	0.3155	0.4908	-0.247
Mof_O 	O 	0.6405	0.9234	0.4644	-0.235
Mof_O 	O 	0.0474	0.8073	0.7665	-0.234
Mof_O 	O 	0.2962	0.2136	0.413	-0.309
Mof_O 	O 	0.8905	0.7856	0.6734	-0.235
Mof_O 	O 	0.1734	0.6095	0.2144	-0.235
Mof_O 	O 	0.0165	0.4427	0.7974	-0.234
Mof_O 	O 	0.4772	0.8131	0.3127	-0.313
Mof_O 	O 	0.8076	0.078	0.7511	-0.25
Mof_O 	O 	0.0462	0.663	0.0364	-0.309
Mof_O 	O 	0.922	0.2511	0.6924	-0.25
Mof_O 	O 	0.4345	0.0098	0.2592	-0.246
Mof_O 	O 	0.087	0.7038	0.7136	-0.309
Mof_O 	O 	0.5462	0.837	0.9636	-0.309
Mof_O 	O 	0.6095	0.2144	0.1734	-0.235
Mof_O 	O 	0.0356	0.3595	0.4234	-0.235
Mof_O 	O 	0.1927	0.2665	0.4526	-0.234
Mof_O 	O 	0.2864	0.587	0.7962	-0.309
Mof_O 	O 	0.9538	0.163	0.4636	-0.309
Mof_O 	O 	0.3532	0.589	0.7662	-0.243
Mof_O 	O 	0.4424	0.5011	0.328	-0.25
Mof_O 	O 	0.3266	0.3905	0.7144	-0.235
Mof_O 	O 	0.339	0.6032	0.4838	-0.243
Mof_O 	O 	0.7144	0.3266	0.3905	-0.235
Mof_O 	O 	0.2144	0.1734	0.6095	-0.235
Mof_O 	O 	0.7026	0.9835	0.9427	-0.234
Mof_O 	O 	0.9644	0.8595	0.0766	-0.235
Mof_O 	O 	0.7408	0.9345	0.4902	-0.247
Mof_O 	O 	0.0092	0.2598	0.8155	-0.246
Mof_O 	O 	0.7962	0.2864	0.587	-0.309
Mof_O 	O 	0.3968	0.9838	0.161	-0.243
Mof_O 	O 	0.1468	0.411	0.2662	-0.243
Mof_O 	O 	0.7592	0.0655	0.9902	-0.247
Mof_O 	O 	0.2598	0.8155	0.0092	-0.246
Mof_O 	O 	0.5356	0.1405	0.5766	-0.235
Mof_O 	O 	0.5092	0.2402	0.1845	-0.247
Mof_O 	O 	0.8073	0.7665	0.0474	-0.234
Mof_O 	O 	0.9772	0.6869	0.6873	-0.313
Mof_O 	O 	0.672	0.9424	0.9989	-0.25
Mof_O 	O 	0.4373	0.9369	0.2728	-0.313
Mof_O 	O 	0.4526	0.1927	0.2665	-0.234
Mof_O 	O 	0.7038	0.7136	0.087	-0.309
Mof_O 	O 	0.5627	0.4369	0.2272	-0.313
Mof_O 	O 	0.8532	0.911	0.2338	-0.243
Mof_O 	O 	0.663	0.0364	0.0462	-0.309
Mof_O 	O 	0.2038	0.7864	0.913	-0.309
Mof_O 	O 	0.422	0.2489	0.3076	-0.25
Mof_O 	O 	0.9369	0.2728	0.4373	-0.313
Mof_O 	O 	0.7511	0.8076	0.078	-0.25
Mof_O 	O 	0.0011	0.172	0.5576	-0.25
Mof_O 	O 	0.2856	0.8266	0.1095	-0.235
Mof_O 	O 	0.7864	0.913	0.2038	-0.309
Mof_O 	O 	0.4989	0.828	0.0576	-0.25
Mof_O 	O 	0.8266	0.1095	0.2856	-0.235
Mof_O 	O 	0.9345	0.4902	0.7408	-0.247
Mof_O 	O 	0.3595	0.4234	0.0356	-0.235
Mof_O 	O 	0.1405	0.5766	0.5356	-0.235
Mof_O 	O 	0.172	0.5576	0.0011	-0.25
Mof_O 	O 	0.7272	0.9373	0.5631	-0.313
Mof_O 	O 	0.2728	0.4373	0.9369	-0.313
Mof_O 	O 	0.161	0.3968	0.9838	-0.243
Mof_O 	O 	0.9835	0.9427	0.7026	-0.234
Mof_O 	O 	0.9427	0.7026	0.9835	-0.234
Mof_O 	O 	0.328	0.4424	0.5011	-0.25
Mof_O 	O 	0.0576	0.4989	0.828	-0.25
Mof_O 	O 	0.661	0.1032	0.0162	-0.243
Mof_O 	O 	0.2136	0.413	0.2962	-0.309
Mof_O 	O 	0.913	0.2038	0.7864	-0.309
Mof_O 	O 	0.1869	0.8127	0.0228	-0.313
Mof_O 	O 	0.5165	0.0573	0.2026	-0.234
Mof_O 	O 	0.6032	0.4838	0.339	-0.243
Mof_O 	O 	0.7662	0.3532	0.589	-0.243
Mof_O 	O 	0.9424	0.9989	0.672	-0.25
Mof_O 	O 	0.578	0.7489	0.1924	-0.25
Mof_O 	O 	0.5228	0.3131	0.1873	-0.313
Mof_O 	O 	0.7728	0.0627	0.0631	-0.313
Mof_O 	O 	0.2974	0.4835	0.5573	-0.234
Mof_O 	O 	0.3127	0.4772	0.8131	-0.313
Mof_O 	O 	0.4369	0.2272	0.5627	-0.313
Mof_O 	O 	0.7489	0.1924	0.578	-0.25
Mof_O 	O 	0.3131	0.1873	0.5228	-0.313
Mof_O 	O 	0.7598	0.6845	0.9908	-0.247
Mof_O 	O 	0.5576	0.0011	0.172	-0.25
Mof_O 	O 	0.1095	0.2856	0.8266	-0.235
Mof_O 	O 	0.413	0.2962	0.2136	-0.309
Mof_O 	O 	0.7856	0.6734	0.8905	-0.235
Mof_O 	O 	0.0162	0.661	0.1032	-0.243
Mof_O 	O 	0.2511	0.6924	0.922	-0.25
Mof_O 	O 	0.9838	0.161	0.3968	-0.243
Mof_O 	O 	0.7335	0.9526	0.3073	-0.234
Mof_O 	O 	0.7136	0.087	0.7038	-0.309
Mof_O 	O 	0.0627	0.0631	0.7728	-0.313
Mof_O 	O 	0.7974	0.0165	0.4427	-0.234
Mof_O 	O 	0.1845	0.5092	0.2402	-0.247
Mof_O 	O 	0.8968	0.5162	0.839	-0.243
Mof_O 	O 	0.2272	0.5627	0.4369	-0.313
Mof_O 	O 	0.3905	0.7144	0.3266	-0.235
Mof_O 	O 	0.6927	0.2335	0.5474	-0.234
Mof_O 	O 	0.2489	0.3076	0.422	-0.25
Mof_O 	O 	0.6869	0.6873	0.9772	-0.313
Mof_O 	O 	0.6734	0.8905	0.7856	-0.235
Mof_O 	O 	0.5011	0.328	0.4424	-0.25
Mof_O 	O 	0.5766	0.5356	0.1405	-0.235
Mof_O 	O 	0.4908	0.7402	0.3155	-0.247
Mof_O 	O 	0.2026	0.5165	0.0573	-0.234
Mof_O 	O 	0.089	0.7338	0.6468	-0.243
Mof_O 	O 	0.9636	0.5462	0.837	-0.309
Mof_O 	O 	0.4427	0.7974	0.0165	-0.234
Mof_O 	O 	0.4902	0.7408	0.9345	-0.247
Mof_O 	O 	0.0573	0.2026	0.5165	-0.234
Mof_O 	O 	0.837	0.9636	0.5462	-0.309
Mof_O 	O 	0.0655	0.9902	0.7592	-0.247
Mof_O 	O 	0.0098	0.2592	0.4345	-0.246
Mof_O 	O 	0.337	0.5364	0.4538	-0.309
Mof_O 	O 	0.6468	0.089	0.7338	-0.243
Mof_O 	O 	0.4234	0.0356	0.3595	-0.235
Mof_O 	O 	0.8127	0.0228	0.1869	-0.313
Mof_O 	O 	0.0228	0.1869	0.8127	-0.313
Mof_O 	O 	0.1873	0.5228	0.3131	-0.313
Mof_O 	O 	0.587	0.7962	0.2864	-0.309
Mof_O 	O 	0.5631	0.7272	0.9373	-0.313
Mof_O 	O 	0.2335	0.5474	0.6927	-0.234
Mof_O 	O 	0.8595	0.0766	0.9644	-0.235
Mof_O 	O 	0.911	0.2338	0.8532	-0.243
Mof_O 	O 	0.6845	0.9908	0.7598	-0.247
Mof_O 	O 	0.6924	0.922	0.2511	-0.25
Mof_O 	O 	0.9908	0.7598	0.6845	-0.247
Mof_O 	O 	0.163	0.4636	0.9538	-0.309
Mof_O 	O 	0.2402	0.1845	0.5092	-0.247
Mof_O 	O 	0.411	0.2662	0.1468	-0.243
Mof_O 	O 	0.1924	0.578	0.7489	-0.25
Mof_O 	O 	0.8155	0.0092	0.2598	-0.246
Mof_O 	O 	0.7665	0.0474	0.8073	-0.234
Mof_O 	O 	0.9989	0.672	0.9424	-0.25
Mof_O 	O 	0.2662	0.1468	0.411	-0.243
Mof_O 	O 	0.5655	0.5098	0.2408	-0.247
Mof_O 	O 	0.9234	0.4644	0.6405	-0.235
Mof_O 	O 	0.2592	0.4345	0.0098	-0.246
Mof_O 	O 	0.0766	0.9644	0.8595	-0.235
Mof_O 	O 	0.9526	0.3073	0.7335	-0.234
Mof_O 	O 	0.839	0.8968	0.5162	-0.243
Mof_O 	O 	0.3155	0.4908	0.7402	-0.247
Mof_O 	O 	0.4838	0.339	0.6032	-0.243
Mof_O 	O 	0.3073	0.7335	0.9526	-0.234
Mof_O 	O 	0.5474	0.6927	0.2335	-0.234
Mof_O 	O 	0.4538	0.337	0.5364	-0.309
Mof_O 	O 	0.2338	0.8532	0.911	-0.243
_end
