data_functionalizedCrystal
_audit_creation_method	'EQeq! by Chris Wilmer'
_symmetry_space_group_name_H-M	'P1'
_symmetry_Int_Tables_number	1
_symmetry_cell_setting	triclinic
loop_
_symmetry_equiv_pos_as_xyz
  x,y,z
_cell_length_a	14.234
_cell_length_b	14.234
_cell_length_c	63.76
_cell_angle_alpha	90
_cell_angle_beta	90
_cell_angle_gamma	90
loop_
_atom_site_label
_atom_site_type_symbol
_atom_site_fract_x
_atom_site_fract_y
_atom_site_fract_z
_atom_site_charge
Mof_Tb	Tb	0.22408	0.98323	0.4382	2.325
Mof_O 	O 	0.3691	0.0391	0.42818	-0.679
Mof_O 	O 	0.5052	0.1127	0.43022	-0.489
Mof_O 	O 	0.3238	0.0072	0.34779	-0.554
Mof_O 	O 	0.318	0.1361	0.32923	-0.442
Mof_O 	O 	0.4059	0.1283	0.47003	-0.545
Mof_O 	O 	0.2548	0.0934	0.4643	-0.572
Mof_O 	O 	0.1116	0.219	0.532	-0.529
Mof_O 	O 	0.0927	0.3718	0.53451	-0.604
Mof_O 	O 	0.0752	0.0107	0.44945	-0.658
Mof_N 	N 	0.5402	0.3944	0.4422	-0.118
Mof_C 	C 	0.4291	0.0991	0.42146	0.484
Mof_C 	C 	0.4061	0.1517	0.40145	-0.222
Mof_C 	C 	0.3811	0.1038	0.38384	0.131
Mof_H 	H 	0.3757	0.0387	0.3842	-0.029
Mof_C 	C 	0.3638	0.1509	0.36559	-0.164
Mof_C 	C 	0.3329	0.0923	0.34593	0.374
Mof_C 	C 	0.3741	0.2467	0.36447	0.101
Mof_H 	H 	0.3671	0.2774	0.3517	0.003
Mof_C 	C 	0.3944	0.296	0.38191	-0.187
Mof_H 	H 	0.3962	0.3613	0.3812	0.091
Mof_C 	C 	0.4129	0.251	0.40116	0.129
Mof_C 	C 	0.4302	0.3011	0.42074	-0.056
Mof_C 	C 	0.5205	0.3512	0.42412	0.034
Mof_H 	H 	0.5645	0.3525	0.4134	0.019
Mof_C 	C 	0.4777	0.3823	0.45813	0.046
Mof_H 	H 	0.4936	0.4096	0.4709	0.019
Mof_C 	C 	0.3946	0.335	0.45755	-0.071
Mof_C 	C 	0.3688	0.2935	0.43793	-0.002
Mof_H 	H 	0.312	0.2618	0.4366	0.035
Mof_C 	C 	0.3286	0.3244	0.47582	0.175
Mof_C 	C 	0.2927	0.2371	0.48139	-0.257
Mof_C 	C 	0.3205	0.1459	0.47118	0.52
Mof_C 	C 	0.2286	0.2354	0.4969	0.167
Mof_H 	H 	0.1991	0.1787	0.4999	-0.02
Mof_C 	C 	0.2038	0.3152	0.5088	-0.251
Mof_C 	C 	0.2373	0.3986	0.50291	0.164
Mof_H 	H 	0.2164	0.4535	0.5093	-0.032
Mof_C 	C 	0.3049	0.4022	0.4868	-0.246
Mof_H 	H 	0.3338	0.4591	0.4837	0.114
Mof_C 	C 	0.1326	0.2991	0.5263	0.466
Mof_Tb	Tb	0.72408	0.48323	0.9382	2.09
Mof_O 	O 	0.8691	0.5391	0.92818	-0.628
Mof_O 	O 	0.0052	0.6127	0.93022	-0.555
Mof_O 	O 	0.8238	0.5072	0.84779	-0.478
Mof_O 	O 	0.818	0.6361	0.82923	-0.4
Mof_O 	O 	0.9059	0.6283	0.97003	-0.492
Mof_O 	O 	0.7548	0.5934	0.9643	-0.505
Mof_O 	O 	0.6116	0.719	0.032	-0.527
Mof_O 	O 	0.5927	0.8718	0.03451	-0.578
Mof_O 	O 	0.5752	0.5107	0.94945	-0.673
Mof_N 	N 	0.0402	0.8944	0.9422	-0.132
Mof_C 	C 	0.9291	0.5991	0.92146	0.558
Mof_C 	C 	0.9061	0.6517	0.90145	-0.207
Mof_C 	C 	0.8811	0.6038	0.88384	0.127
Mof_H 	H 	0.8757	0.5387	0.8842	0.001
Mof_C 	C 	0.8638	0.6509	0.86559	-0.136
Mof_C 	C 	0.8329	0.5923	0.84593	0.363
Mof_C 	C 	0.8741	0.7467	0.86447	0.089
Mof_H 	H 	0.8671	0.7774	0.8517	0.025
Mof_C 	C 	0.8944	0.796	0.88191	-0.158
Mof_H 	H 	0.8962	0.8613	0.8812	0.107
Mof_C 	C 	0.9129	0.751	0.90116	0.117
Mof_C 	C 	0.9302	0.8011	0.92074	0.033
Mof_C 	C 	0.0205	0.8512	0.92412	-0.061
Mof_H 	H 	0.0645	0.8525	0.9134	0.044
Mof_C 	C 	0.9777	0.8823	0.95813	0.119
Mof_H 	H 	0.9936	0.9096	0.9709	0.038
Mof_C 	C 	0.8946	0.835	0.95755	-0.061
Mof_C 	C 	0.8688	0.7935	0.93793	-0.02
Mof_H 	H 	0.812	0.7618	0.9366	0.048
Mof_C 	C 	0.8286	0.8244	0.97582	0.176
Mof_C 	C 	0.7927	0.7371	0.98139	-0.228
Mof_C 	C 	0.8205	0.6459	0.97118	0.497
Mof_C 	C 	0.7286	0.7354	0.9969	0.155
Mof_H 	H 	0.6991	0.6787	0.9999	0.005
Mof_C 	C 	0.7038	0.8152	0.0088	-0.222
Mof_C 	C 	0.7373	0.8986	0.00291	0.159
Mof_H 	H 	0.7164	0.9535	0.0093	-0.002
Mof_C 	C 	0.8049	0.9022	0.9868	-0.225
Mof_H 	H 	0.8338	0.9591	0.9837	0.136
Mof_C 	C 	0.6326	0.7991	0.0263	0.466
Mof_Tb	Tb	0.77592	0.01677	0.4382	1.81
Mof_O 	O 	0.6309	0.9609	0.42818	-0.538
Mof_O 	O 	0.4948	0.8873	0.43022	-0.442
Mof_O 	O 	0.6762	0.9928	0.34779	-0.419
Mof_O 	O 	0.682	0.8639	0.32923	-0.377
Mof_O 	O 	0.5941	0.8717	0.47003	-0.497
Mof_O 	O 	0.7452	0.9066	0.4643	-0.448
Mof_O 	O 	0.8884	0.781	0.532	-0.527
Mof_O 	O 	0.9073	0.6282	0.53451	-0.575
Mof_O 	O 	0.9248	0.9893	0.44945	-0.421
Mof_N 	N 	0.4598	0.6056	0.4422	-0.119
Mof_C 	C 	0.5709	0.9009	0.42146	0.443
Mof_C 	C 	0.5939	0.8483	0.40145	-0.169
Mof_C 	C 	0.6189	0.8962	0.38384	0.09
Mof_H 	H 	0.6243	0.9613	0.3842	0.025
Mof_C 	C 	0.6362	0.8491	0.36559	-0.119
Mof_C 	C 	0.6671	0.9077	0.34593	0.345
Mof_C 	C 	0.6259	0.7533	0.36447	0.067
Mof_H 	H 	0.6329	0.7226	0.3517	0.016
Mof_C 	C 	0.6056	0.704	0.38191	-0.154
Mof_H 	H 	0.6038	0.6387	0.3812	0.082
Mof_C 	C 	0.5871	0.749	0.40116	0.102
Mof_C 	C 	0.5698	0.6989	0.42074	-0.039
Mof_C 	C 	0.4795	0.6488	0.42412	0.027
Mof_H 	H 	0.4355	0.6475	0.4134	0.019
Mof_C 	C 	0.5223	0.6177	0.45813	0.038
Mof_H 	H 	0.5064	0.5904	0.4709	0.021
Mof_C 	C 	0.6054	0.665	0.45755	-0.054
Mof_C 	C 	0.6312	0.7065	0.43793	-0.015
Mof_H 	H 	0.688	0.7382	0.4366	0.048
Mof_C 	C 	0.6714	0.6756	0.47582	0.155
Mof_C 	C 	0.7073	0.7629	0.48139	-0.215
Mof_C 	C 	0.6795	0.8541	0.47118	0.484
Mof_C 	C 	0.7714	0.7646	0.4969	0.142
Mof_H 	H 	0.8009	0.8213	0.4999	0.022
Mof_C 	C 	0.7962	0.6848	0.5088	-0.213
Mof_C 	C 	0.7627	0.6014	0.50291	0.143
Mof_H 	H 	0.7836	0.5465	0.5093	-0.016
Mof_C 	C 	0.6951	0.5978	0.4868	-0.216
Mof_H 	H 	0.6662	0.5409	0.4837	0.109
Mof_C 	C 	0.8674	0.7009	0.5263	0.465
Mof_Tb	Tb	0.27592	0.51677	0.9382	2.075
Mof_O 	O 	0.1309	0.4609	0.92818	-0.595
Mof_O 	O 	0.9948	0.3873	0.93022	-0.379
Mof_O 	O 	0.1762	0.4928	0.84779	-0.494
Mof_O 	O 	0.182	0.3639	0.82923	-0.418
Mof_O 	O 	0.0941	0.3717	0.97003	-0.554
Mof_O 	O 	0.2452	0.4066	0.9643	-0.512
Mof_O 	O 	0.3884	0.281	0.032	-0.532
Mof_O 	O 	0.4073	0.1282	0.03451	-0.608
Mof_O 	O 	0.4248	0.4893	0.94945	-0.671
Mof_N 	N 	0.9598	0.1056	0.9422	-0.103
Mof_C 	C 	0.0709	0.4009	0.92146	0.37
Mof_C 	C 	0.0939	0.3483	0.90145	-0.186
Mof_C 	C 	0.1189	0.3962	0.88384	0.096
Mof_H 	H 	0.1243	0.4613	0.8842	-0.006
Mof_C 	C 	0.1362	0.3491	0.86559	-0.149
Mof_C 	C 	0.1671	0.4077	0.84593	0.357
Mof_C 	C 	0.1259	0.2533	0.86447	0.08
Mof_H 	H 	0.1329	0.2226	0.8517	-0.005
Mof_C 	C 	0.1056	0.204	0.88191	-0.185
Mof_H 	H 	0.1038	0.1387	0.8812	0.065
Mof_C 	C 	0.0871	0.249	0.90116	0.115
Mof_C 	C 	0.0698	0.1989	0.92074	-0.134
Mof_C 	C 	0.9795	0.1488	0.92412	0.128
Mof_H 	H 	0.9355	0.1475	0.9134	-0.007
Mof_C 	C 	0.0223	0.1177	0.95813	-0.039
Mof_H 	H 	0.0064	0.0904	0.9709	0.002
Mof_C 	C 	0.1054	0.165	0.95755	-0.065
Mof_C 	C 	0.1312	0.2065	0.93793	0.004
Mof_H 	H 	0.188	0.2382	0.9366	0.035
Mof_C 	C 	0.1714	0.1756	0.97582	0.153
Mof_C 	C 	0.2073	0.2629	0.98139	-0.245
Mof_C 	C 	0.1795	0.3541	0.97118	0.506
Mof_C 	C 	0.2714	0.2646	0.9969	0.154
Mof_H 	H 	0.3009	0.3213	0.9999	-0.002
Mof_C 	C 	0.2962	0.1848	0.0088	-0.244
Mof_C 	C 	0.2627	0.1014	0.00291	0.148
Mof_H 	H 	0.2836	0.0465	0.0093	-0.047
Mof_C 	C 	0.1951	0.0978	0.9868	-0.237
Mof_H 	H 	0.1662	0.0409	0.9837	0.085
Mof_C 	C 	0.3674	0.2009	0.0263	0.466
Mof_Tb	Tb	0.98323	0.77592	0.5618	2.348
Mof_O 	O 	0.0391	0.6309	0.57182	-0.681
Mof_O 	O 	0.1127	0.4948	0.56978	-0.491
Mof_O 	O 	0.0072	0.6762	0.65221	-0.55
Mof_O 	O 	0.1361	0.682	0.67077	-0.444
Mof_O 	O 	0.1283	0.5941	0.52997	-0.545
Mof_O 	O 	0.0934	0.7452	0.5357	-0.565
Mof_O 	O 	0.219	0.8884	0.468	-0.544
Mof_O 	O 	0.3718	0.9073	0.46549	-0.577
Mof_O 	O 	0.0107	0.9248	0.55055	-0.583
Mof_N 	N 	0.3944	0.4598	0.5578	-0.121
Mof_C 	C 	0.0991	0.5709	0.57854	0.485
Mof_C 	C 	0.1517	0.5939	0.59855	-0.223
Mof_C 	C 	0.1038	0.6189	0.61616	0.13
Mof_H 	H 	0.0387	0.6243	0.6158	-0.027
Mof_C 	C 	0.1509	0.6362	0.63441	-0.165
Mof_C 	C 	0.0923	0.6671	0.65407	0.372
Mof_C 	C 	0.2467	0.6259	0.63553	0.1
Mof_H 	H 	0.2774	0.6329	0.6483	0.003
Mof_C 	C 	0.296	0.6056	0.61809	-0.188
Mof_H 	H 	0.3613	0.6038	0.6188	0.093
Mof_C 	C 	0.251	0.5871	0.59884	0.129
Mof_C 	C 	0.3011	0.5698	0.57926	-0.055
Mof_C 	C 	0.3512	0.4795	0.57588	0.035
Mof_H 	H 	0.3525	0.4355	0.5866	0.013
Mof_C 	C 	0.3823	0.5223	0.54187	0.045
Mof_H 	H 	0.4096	0.5064	0.5291	0.018
Mof_C 	C 	0.335	0.6054	0.54245	-0.067
Mof_C 	C 	0.2935	0.6312	0.56207	-0.001
Mof_H 	H 	0.2618	0.688	0.5634	0.04
Mof_C 	C 	0.3244	0.6714	0.52418	0.173
Mof_C 	C 	0.2371	0.7073	0.51861	-0.248
Mof_C 	C 	0.1459	0.6795	0.52882	0.518
Mof_C 	C 	0.2354	0.7714	0.5031	0.164
Mof_H 	H 	0.1787	0.8009	0.5001	-0.005
Mof_C 	C 	0.3152	0.7962	0.4912	-0.235
Mof_C 	C 	0.3986	0.7627	0.49709	0.161
Mof_H 	H 	0.4535	0.7836	0.4907	-0.022
Mof_C 	C 	0.4022	0.6951	0.5132	-0.235
Mof_H 	H 	0.4591	0.6662	0.5163	0.115
Mof_C 	C 	0.2991	0.8674	0.4737	0.471
Mof_Tb	Tb	0.48323	0.27592	0.0618	2.062
Mof_O 	O 	0.5391	0.1309	0.07182	-0.595
Mof_O 	O 	0.6127	0.9948	0.06978	-0.378
Mof_O 	O 	0.5072	0.1762	0.15221	-0.497
Mof_O 	O 	0.6361	0.182	0.17077	-0.412
Mof_O 	O 	0.6283	0.0941	0.02997	-0.552
Mof_O 	O 	0.5934	0.2452	0.0357	-0.508
Mof_O 	O 	0.719	0.3884	0.968	-0.531
Mof_O 	O 	0.8718	0.4073	0.96549	-0.578
Mof_O 	O 	0.5107	0.4248	0.05055	-0.67
Mof_N 	N 	0.8944	0.9598	0.0578	-0.076
Mof_C 	C 	0.5991	0.0709	0.07854	0.371
Mof_C 	C 	0.6517	0.0939	0.09855	-0.188
Mof_C 	C 	0.6038	0.1189	0.11616	0.1
Mof_H 	H 	0.5387	0.1243	0.1158	-0.008
Mof_C 	C 	0.6509	0.1362	0.13441	-0.15
Mof_C 	C 	0.5923	0.1671	0.15407	0.358
Mof_C 	C 	0.7467	0.1259	0.13553	0.088
Mof_H 	H 	0.7774	0.1329	0.1483	0.006
Mof_C 	C 	0.796	0.1056	0.11809	-0.186
Mof_H 	H 	0.8613	0.1038	0.1188	0.092
Mof_C 	C 	0.751	0.0871	0.09884	0.123
Mof_C 	C 	0.8011	0.0698	0.07926	-0.12
Mof_C 	C 	0.8512	0.9795	0.07588	0.134
Mof_H 	H 	0.8525	0.9355	0.0866	0.013
Mof_C 	C 	0.8823	0.0223	0.04187	-0.027
Mof_H 	H 	0.9096	0.0064	0.0291	0.031
Mof_C 	C 	0.835	0.1054	0.04245	-0.053
Mof_C 	C 	0.7935	0.1312	0.06207	0.008
Mof_H 	H 	0.7618	0.188	0.0634	0.04
Mof_C 	C 	0.8244	0.1714	0.02418	0.157
Mof_C 	C 	0.7371	0.2073	0.01861	-0.239
Mof_C 	C 	0.6459	0.1795	0.02882	0.505
Mof_C 	C 	0.7354	0.2714	0.0031	0.151
Mof_H 	H 	0.6787	0.3009	0.0001	0.001
Mof_C 	C 	0.8152	0.2962	0.9912	-0.225
Mof_C 	C 	0.8986	0.2627	0.99709	0.149
Mof_H 	H 	0.9535	0.2836	0.9907	-0
Mof_C 	C 	0.9022	0.1951	0.0132	-0.222
Mof_H 	H 	0.9591	0.1662	0.0163	0.122
Mof_C 	C 	0.7991	0.3674	0.9737	0.464
Mof_Tb	Tb	0.01677	0.22408	0.5618	1.758
Mof_O 	O 	0.9609	0.3691	0.57182	-0.531
Mof_O 	O 	0.8873	0.5052	0.56978	-0.44
Mof_O 	O 	0.9928	0.3238	0.65221	-0.419
Mof_O 	O 	0.8639	0.318	0.67077	-0.373
Mof_O 	O 	0.8717	0.4059	0.52997	-0.496
Mof_O 	O 	0.9066	0.2548	0.5357	-0.45
Mof_O 	O 	0.781	0.1116	0.468	-0.511
Mof_O 	O 	0.6282	0.0927	0.46549	-0.602
Mof_O 	O 	0.9893	0.0752	0.55055	-0.476
Mof_N 	N 	0.6056	0.5402	0.5578	-0.116
Mof_C 	C 	0.9009	0.4291	0.57854	0.44
Mof_C 	C 	0.8483	0.4061	0.59855	-0.167
Mof_C 	C 	0.8962	0.3811	0.61616	0.089
Mof_H 	H 	0.9613	0.3757	0.6158	0.025
Mof_C 	C 	0.8491	0.3638	0.63441	-0.118
Mof_C 	C 	0.9077	0.3329	0.65407	0.346
Mof_C 	C 	0.7533	0.3741	0.63553	0.067
Mof_H 	H 	0.7226	0.3671	0.6483	0.017
Mof_C 	C 	0.704	0.3944	0.61809	-0.153
Mof_H 	H 	0.6387	0.3962	0.6188	0.079
Mof_C 	C 	0.749	0.4129	0.59884	0.102
Mof_C 	C 	0.6989	0.4302	0.57926	-0.04
Mof_C 	C 	0.6488	0.5205	0.57588	0.027
Mof_H 	H 	0.6475	0.5645	0.5866	0.024
Mof_C 	C 	0.6177	0.4777	0.54187	0.039
Mof_H 	H 	0.5904	0.4936	0.5291	0.022
Mof_C 	C 	0.665	0.3946	0.54245	-0.058
Mof_C 	C 	0.7065	0.3688	0.56207	-0.016
Mof_H 	H 	0.7382	0.312	0.5634	0.044
Mof_C 	C 	0.6756	0.3286	0.52418	0.156
Mof_C 	C 	0.7629	0.2927	0.51861	-0.223
Mof_C 	C 	0.8541	0.3205	0.52882	0.483
Mof_C 	C 	0.7646	0.2286	0.5031	0.144
Mof_H 	H 	0.8213	0.1991	0.5001	0.008
Mof_C 	C 	0.6848	0.2038	0.4912	-0.228
Mof_C 	C 	0.6014	0.2373	0.49709	0.145
Mof_H 	H 	0.5465	0.2164	0.4907	-0.025
Mof_C 	C 	0.5978	0.3049	0.5132	-0.226
Mof_H 	H 	0.5409	0.3338	0.5163	0.107
Mof_C 	C 	0.7009	0.1326	0.4737	0.46
Mof_Tb	Tb	0.51677	0.72408	0.0618	2.102
Mof_O 	O 	0.4609	0.8691	0.07182	-0.629
Mof_O 	O 	0.3873	0.0052	0.06978	-0.558
Mof_O 	O 	0.4928	0.8238	0.15221	-0.475
Mof_O 	O 	0.3639	0.818	0.17077	-0.405
Mof_O 	O 	0.3717	0.9059	0.02997	-0.493
Mof_O 	O 	0.4066	0.7548	0.0357	-0.509
Mof_O 	O 	0.281	0.6116	0.968	-0.528
Mof_O 	O 	0.1282	0.5927	0.96549	-0.607
Mof_O 	O 	0.4893	0.5752	0.05055	-0.674
Mof_N 	N 	0.1056	0.0402	0.0578	-0.163
Mof_C 	C 	0.4009	0.9291	0.07854	0.56
Mof_C 	C 	0.3483	0.9061	0.09855	-0.205
Mof_C 	C 	0.3962	0.8811	0.11616	0.123
Mof_H 	H 	0.4613	0.8757	0.1158	0.004
Mof_C 	C 	0.3491	0.8638	0.13441	-0.134
Mof_C 	C 	0.4077	0.8329	0.15407	0.362
Mof_C 	C 	0.2533	0.8741	0.13553	0.081
Mof_H 	H 	0.2226	0.8671	0.1483	0.014
Mof_C 	C 	0.204	0.8944	0.11809	-0.155
Mof_H 	H 	0.1387	0.8962	0.1188	0.082
Mof_C 	C 	0.249	0.9129	0.09884	0.109
Mof_C 	C 	0.1989	0.9302	0.07926	0.028
Mof_C 	C 	0.1488	0.0205	0.07588	-0.076
Mof_H 	H 	0.1475	0.0645	0.0866	0.024
Mof_C 	C 	0.1177	0.9777	0.04187	0.116
Mof_H 	H 	0.0904	0.9936	0.0291	0.008
Mof_C 	C 	0.165	0.8946	0.04245	-0.074
Mof_C 	C 	0.2065	0.8688	0.06207	-0.024
Mof_H 	H 	0.2382	0.812	0.0634	0.044
Mof_C 	C 	0.1756	0.8286	0.02418	0.173
Mof_C 	C 	0.2629	0.7927	0.01861	-0.234
Mof_C 	C 	0.3541	0.8205	0.02882	0.498
Mof_C 	C 	0.2646	0.7286	0.0031	0.158
Mof_H 	H 	0.3213	0.6991	0.0001	0.002
Mof_C 	C 	0.1848	0.7038	0.9912	-0.24
Mof_C 	C 	0.1014	0.7373	0.99709	0.158
Mof_H 	H 	0.0465	0.7164	0.9907	-0.047
Mof_C 	C 	0.0978	0.8049	0.0132	-0.241
Mof_H 	H 	0.0409	0.8338	0.0163	0.101
Mof_C 	C 	0.2009	0.6326	0.9737	0.469
Mof_Tb	Tb	0.27592	0.98323	0.3118	2.343
Mof_O 	O 	0.1309	0.0391	0.32182	-0.654
Mof_O 	O 	0.9948	0.1127	0.31978	-0.381
Mof_O 	O 	0.1762	0.0072	0.40221	-0.559
Mof_O 	O 	0.182	0.1361	0.42077	-0.448
Mof_O 	O 	0.0941	0.1283	0.27997	-0.547
Mof_O 	O 	0.2452	0.0934	0.2857	-0.566
Mof_O 	O 	0.3884	0.219	0.218	-0.544
Mof_O 	O 	0.4073	0.3718	0.21549	-0.626
Mof_O 	O 	0.4248	0.0107	0.30055	-0.689
Mof_N 	N 	0.9598	0.3944	0.3078	-0.091
Mof_C 	C 	0.0709	0.0991	0.32854	0.389
Mof_C 	C 	0.0939	0.1517	0.34855	-0.212
Mof_C 	C 	0.1189	0.1038	0.36616	0.117
Mof_H 	H 	0.1243	0.0387	0.3658	-0.032
Mof_C 	C 	0.1362	0.1509	0.38441	-0.17
Mof_C 	C 	0.1671	0.0923	0.40407	0.371
Mof_C 	C 	0.1259	0.2467	0.38553	0.099
Mof_H 	H 	0.1329	0.2774	0.3983	-0.005
Mof_C 	C 	0.1056	0.296	0.36809	-0.201
Mof_H 	H 	0.1038	0.3613	0.3688	0.084
Mof_C 	C 	0.0871	0.251	0.34884	0.131
Mof_C 	C 	0.0698	0.3011	0.32926	-0.133
Mof_C 	C 	0.9795	0.3512	0.32588	0.133
Mof_H 	H 	0.9355	0.3525	0.3366	0.001
Mof_C 	C 	0.0223	0.3823	0.29187	-0.028
Mof_H 	H 	0.0064	0.4096	0.2791	0.015
Mof_C 	C 	0.1054	0.335	0.29245	-0.065
Mof_C 	C 	0.1312	0.2935	0.31207	0.013
Mof_H 	H 	0.188	0.2618	0.3134	0.033
Mof_C 	C 	0.1714	0.3244	0.27418	0.165
Mof_C 	C 	0.2073	0.2371	0.26861	-0.257
Mof_C 	C 	0.1795	0.1459	0.27882	0.515
Mof_C 	C 	0.2714	0.2354	0.2531	0.167
Mof_H 	H 	0.3009	0.1787	0.2501	-0.015
Mof_C 	C 	0.2962	0.3152	0.2412	-0.254
Mof_C 	C 	0.2627	0.3986	0.24709	0.164
Mof_H 	H 	0.2836	0.4535	0.2407	-0.032
Mof_C 	C 	0.1951	0.4022	0.2632	-0.243
Mof_H 	H 	0.1662	0.4591	0.2663	0.108
Mof_C 	C 	0.3674	0.2991	0.2237	0.481
Mof_Tb	Tb	0.77592	0.48323	0.8118	2.084
Mof_O 	O 	0.6309	0.5391	0.82182	-0.625
Mof_O 	O 	0.4948	0.6127	0.81978	-0.489
Mof_O 	O 	0.6762	0.5072	0.90221	-0.49
Mof_O 	O 	0.682	0.6361	0.92077	-0.41
Mof_O 	O 	0.5941	0.6283	0.77997	-0.551
Mof_O 	O 	0.7452	0.5934	0.7857	-0.51
Mof_O 	O 	0.8884	0.719	0.718	-0.531
Mof_O 	O 	0.9073	0.8718	0.71549	-0.532
Mof_O 	O 	0.9248	0.5107	0.80055	-0.568
Mof_N 	N 	0.4598	0.8944	0.8078	-0.105
Mof_C 	C 	0.5709	0.5991	0.82854	0.469
Mof_C 	C 	0.5939	0.6517	0.84855	-0.199
Mof_C 	C 	0.6189	0.6038	0.86616	0.114
Mof_H 	H 	0.6243	0.5387	0.8658	-0.004
Mof_C 	C 	0.6362	0.6509	0.88441	-0.144
Mof_C 	C 	0.6671	0.5923	0.90407	0.36
Mof_C 	C 	0.6259	0.7467	0.88553	0.089
Mof_H 	H 	0.6329	0.7774	0.8983	0.015
Mof_C 	C 	0.6056	0.796	0.86809	-0.173
Mof_H 	H 	0.6038	0.8613	0.8688	0.101
Mof_C 	C 	0.5871	0.751	0.84884	0.121
Mof_C 	C 	0.5698	0.8011	0.82926	-0.043
Mof_C 	C 	0.4795	0.8512	0.82588	0.036
Mof_H 	H 	0.4355	0.8525	0.8366	0.026
Mof_C 	C 	0.5223	0.8823	0.79187	0.046
Mof_H 	H 	0.5064	0.9096	0.7791	0.034
Mof_C 	C 	0.6054	0.835	0.79245	-0.055
Mof_C 	C 	0.6312	0.7935	0.81207	-0.006
Mof_H 	H 	0.688	0.7618	0.8134	0.046
Mof_C 	C 	0.6714	0.8244	0.77418	0.166
Mof_C 	C 	0.7073	0.7371	0.76861	-0.231
Mof_C 	C 	0.6795	0.6459	0.77882	0.51
Mof_C 	C 	0.7714	0.7354	0.7531	0.15
Mof_H 	H 	0.8009	0.6787	0.7501	0.011
Mof_C 	C 	0.7962	0.8152	0.7412	-0.208
Mof_C 	C 	0.7627	0.8986	0.74709	0.147
Mof_H 	H 	0.7836	0.9535	0.7407	0.008
Mof_C 	C 	0.6951	0.9022	0.7632	-0.215
Mof_H 	H 	0.6662	0.9591	0.7663	0.129
Mof_C 	C 	0.8674	0.7991	0.7237	0.455
Mof_Tb	Tb	0.72408	0.01677	0.3118	1.809
Mof_O 	O 	0.8691	0.9609	0.32182	-0.539
Mof_O 	O 	0.0052	0.8873	0.31978	-0.504
Mof_O 	O 	0.8238	0.9928	0.40221	-0.41
Mof_O 	O 	0.818	0.8639	0.42077	-0.368
Mof_O 	O 	0.9059	0.8717	0.27997	-0.44
Mof_O 	O 	0.7548	0.9066	0.2857	-0.441
Mof_O 	O 	0.6116	0.781	0.218	-0.522
Mof_O 	O 	0.5927	0.6282	0.21549	-0.623
Mof_O 	O 	0.5752	0.9893	0.30055	-0.517
Mof_N 	N 	0.0402	0.6056	0.3078	-0.146
Mof_C 	C 	0.9291	0.9009	0.32854	0.528
Mof_C 	C 	0.9061	0.8483	0.34855	-0.176
Mof_C 	C 	0.8811	0.8962	0.36616	0.102
Mof_H 	H 	0.8757	0.9613	0.3658	0.03
Mof_C 	C 	0.8638	0.8491	0.38441	-0.111
Mof_C 	C 	0.8329	0.9077	0.40407	0.349
Mof_C 	C 	0.8741	0.7533	0.38553	0.067
Mof_H 	H 	0.8671	0.7226	0.3983	0.027
Mof_C 	C 	0.8944	0.704	0.36809	-0.139
Mof_H 	H 	0.8962	0.6387	0.3688	0.088
Mof_C 	C 	0.9129	0.749	0.34884	0.098
Mof_C 	C 	0.9302	0.6989	0.32926	0.037
Mof_C 	C 	0.0205	0.6488	0.32588	-0.07
Mof_H 	H 	0.0645	0.6475	0.3366	0.036
Mof_C 	C 	0.9777	0.6177	0.29187	0.113
Mof_H 	H 	0.9936	0.5904	0.2791	0.024
Mof_C 	C 	0.8946	0.665	0.29245	-0.061
Mof_C 	C 	0.8688	0.7065	0.31207	-0.029
Mof_H 	H 	0.812	0.7382	0.3134	0.051
Mof_C 	C 	0.8286	0.6756	0.27418	0.166
Mof_C 	C 	0.7927	0.7629	0.26861	-0.212
Mof_C 	C 	0.8205	0.8541	0.27882	0.471
Mof_C 	C 	0.7286	0.7646	0.2531	0.147
Mof_H 	H 	0.6991	0.8213	0.2501	0.017
Mof_C 	C 	0.7038	0.6848	0.2412	-0.228
Mof_C 	C 	0.7373	0.6014	0.24709	0.155
Mof_H 	H 	0.7164	0.5465	0.2407	-0.026
Mof_C 	C 	0.8049	0.5978	0.2632	-0.227
Mof_H 	H 	0.8338	0.5409	0.2663	0.117
Mof_C 	C 	0.6326	0.7009	0.2237	0.477
Mof_Tb	Tb	0.22408	0.51677	0.8118	2.056
Mof_O 	O 	0.3691	0.4609	0.82182	-0.621
Mof_O 	O 	0.5052	0.3873	0.81978	-0.488
Mof_O 	O 	0.3238	0.4928	0.90221	-0.488
Mof_O 	O 	0.318	0.3639	0.92077	-0.412
Mof_O 	O 	0.4059	0.3717	0.77997	-0.552
Mof_O 	O 	0.2548	0.4066	0.7857	-0.519
Mof_O 	O 	0.1116	0.281	0.718	-0.517
Mof_O 	O 	0.0927	0.1282	0.71549	-0.586
Mof_O 	O 	0.0752	0.4893	0.80055	-0.638
Mof_N 	N 	0.5402	0.1056	0.8078	-0.131
Mof_C 	C 	0.4291	0.4009	0.82854	0.467
Mof_C 	C 	0.4061	0.3483	0.84855	-0.196
Mof_C 	C 	0.3811	0.3962	0.86616	0.11
Mof_H 	H 	0.3757	0.4613	0.8658	-0.002
Mof_C 	C 	0.3638	0.3491	0.88441	-0.143
Mof_C 	C 	0.3329	0.4077	0.90407	0.36
Mof_C 	C 	0.3741	0.2533	0.88553	0.081
Mof_H 	H 	0.3671	0.2226	0.8983	0.004
Mof_C 	C 	0.3944	0.204	0.86809	-0.171
Mof_H 	H 	0.3962	0.1387	0.8688	0.072
Mof_C 	C 	0.4129	0.249	0.84884	0.112
Mof_C 	C 	0.4302	0.1989	0.82926	-0.053
Mof_C 	C 	0.5205	0.1488	0.82588	0.025
Mof_H 	H 	0.5645	0.1475	0.8366	0.012
Mof_C 	C 	0.4777	0.1177	0.79187	0.038
Mof_H 	H 	0.4936	0.0904	0.7791	0.006
Mof_C 	C 	0.3946	0.165	0.79245	-0.071
Mof_C 	C 	0.3688	0.2065	0.81207	-0.011
Mof_H 	H 	0.312	0.2382	0.8134	0.037
Mof_C 	C 	0.3286	0.1756	0.77418	0.163
Mof_C 	C 	0.2927	0.2629	0.76861	-0.245
Mof_C 	C 	0.3205	0.3541	0.77882	0.511
Mof_C 	C 	0.2286	0.2646	0.7531	0.155
Mof_H 	H 	0.1991	0.3213	0.7501	-0.007
Mof_C 	C 	0.2038	0.1848	0.7412	-0.241
Mof_C 	C 	0.2373	0.1014	0.74709	0.148
Mof_H 	H 	0.2164	0.0465	0.7407	-0.046
Mof_C 	C 	0.3049	0.0978	0.7632	-0.24
Mof_H 	H 	0.3338	0.0409	0.7663	0.091
Mof_C 	C 	0.1326	0.2009	0.7237	0.451
Mof_Tb	Tb	0.51677	0.77592	0.1882	2.096
Mof_O 	O 	0.4609	0.6309	0.17818	-0.625
Mof_O 	O 	0.3873	0.4948	0.18022	-0.491
Mof_O 	O 	0.4928	0.6762	0.09779	-0.487
Mof_O 	O 	0.3639	0.682	0.07923	-0.415
Mof_O 	O 	0.3717	0.5941	0.22003	-0.552
Mof_O 	O 	0.4066	0.7452	0.2143	-0.514
Mof_O 	O 	0.281	0.8884	0.282	-0.533
Mof_O 	O 	0.1282	0.9073	0.28451	-0.559
Mof_O 	O 	0.4893	0.9248	0.19945	-0.569
Mof_N 	N 	0.1056	0.4598	0.1922	-0.135
Mof_C 	C 	0.4009	0.5709	0.17146	0.469
Mof_C 	C 	0.3483	0.5939	0.15145	-0.198
Mof_C 	C 	0.3962	0.6189	0.13384	0.11
Mof_H 	H 	0.4613	0.6243	0.1342	-0.001
Mof_C 	C 	0.3491	0.6362	0.11559	-0.144
Mof_C 	C 	0.4077	0.6671	0.09593	0.358
Mof_C 	C 	0.2533	0.6259	0.11447	0.081
Mof_H 	H 	0.2226	0.6329	0.1017	0.004
Mof_C 	C 	0.204	0.6056	0.13191	-0.172
Mof_H 	H 	0.1387	0.6038	0.1312	0.075
Mof_C 	C 	0.249	0.5871	0.15116	0.113
Mof_C 	C 	0.1989	0.5698	0.17074	-0.052
Mof_C 	C 	0.1488	0.4795	0.17412	0.025
Mof_H 	H 	0.1475	0.4355	0.1634	0.005
Mof_C 	C 	0.1177	0.5223	0.20813	0.037
Mof_H 	H 	0.0904	0.5064	0.2209	0.005
Mof_C 	C 	0.165	0.6054	0.20755	-0.067
Mof_C 	C 	0.2065	0.6312	0.18793	-0.01
Mof_H 	H 	0.2382	0.688	0.1866	0.042
Mof_C 	C 	0.1756	0.6714	0.22582	0.162
Mof_C 	C 	0.2629	0.7073	0.23139	-0.236
Mof_C 	C 	0.3541	0.6795	0.22118	0.511
Mof_C 	C 	0.2646	0.7714	0.2469	0.152
Mof_H 	H 	0.3213	0.8009	0.2499	0.008
Mof_C 	C 	0.1848	0.7962	0.2588	-0.225
Mof_C 	C 	0.1014	0.7627	0.25291	0.146
Mof_H 	H 	0.0465	0.7836	0.2593	-0.036
Mof_C 	C 	0.0978	0.6951	0.2368	-0.229
Mof_H 	H 	0.0409	0.6662	0.2337	0.093
Mof_C 	C 	0.2009	0.8674	0.2763	0.457
Mof_Tb	Tb	0.01677	0.27592	0.6882	1.775
Mof_O 	O 	0.9609	0.1309	0.67818	-0.505
Mof_O 	O 	0.8873	0.9948	0.68022	-0.339
Mof_O 	O 	0.9928	0.1762	0.59779	-0.425
Mof_O 	O 	0.8639	0.182	0.57923	-0.379
Mof_O 	O 	0.8717	0.0941	0.72003	-0.496
Mof_O 	O 	0.9066	0.2452	0.7143	-0.443
Mof_O 	O 	0.781	0.3884	0.782	-0.526
Mof_O 	O 	0.6282	0.4073	0.78451	-0.624
Mof_O 	O 	0.9893	0.4248	0.69945	-0.512
Mof_N 	N 	0.6056	0.9598	0.6922	-0.089
Mof_C 	C 	0.9009	0.0709	0.67146	0.351
Mof_C 	C 	0.8483	0.0939	0.65145	-0.158
Mof_C 	C 	0.8962	0.1189	0.63384	0.076
Mof_H 	H 	0.9613	0.1243	0.6342	0.021
Mof_C 	C 	0.8491	0.1362	0.61559	-0.124
Mof_C 	C 	0.9077	0.1671	0.59593	0.344
Mof_C 	C 	0.7533	0.1259	0.61447	0.066
Mof_H 	H 	0.7226	0.1329	0.6017	0.008
Mof_C 	C 	0.704	0.1056	0.63191	-0.167
Mof_H 	H 	0.6387	0.1038	0.6312	0.073
Mof_C 	C 	0.749	0.0871	0.65116	0.105
Mof_C 	C 	0.6989	0.0698	0.67074	-0.115
Mof_C 	C 	0.6488	0.9795	0.67412	0.122
Mof_H 	H 	0.6475	0.9355	0.6634	0.007
Mof_C 	C 	0.6177	0.0223	0.70813	-0.034
Mof_H 	H 	0.5904	0.0064	0.7209	0.018
Mof_C 	C 	0.665	0.1054	0.70755	-0.052
Mof_C 	C 	0.7065	0.1312	0.68793	-0.002
Mof_H 	H 	0.7382	0.188	0.6866	0.042
Mof_C 	C 	0.6756	0.1714	0.72582	0.146
Mof_C 	C 	0.7629	0.2073	0.73139	-0.222
Mof_C 	C 	0.8541	0.1795	0.72118	0.478
Mof_C 	C 	0.7646	0.2714	0.7469	0.143
Mof_H 	H 	0.8213	0.3009	0.7499	0.013
Mof_C 	C 	0.6848	0.2962	0.7588	-0.23
Mof_C 	C 	0.6014	0.2627	0.75291	0.145
Mof_H 	H 	0.5465	0.2836	0.7593	-0.025
Mof_C 	C 	0.5978	0.1951	0.7368	-0.223
Mof_H 	H 	0.5409	0.1662	0.7337	0.101
Mof_C 	C 	0.7009	0.3674	0.7763	0.474
Mof_Tb	Tb	0.48323	0.22408	0.1882	2.043
Mof_O 	O 	0.5391	0.3691	0.17818	-0.621
Mof_O 	O 	0.6127	0.5052	0.18022	-0.486
Mof_O 	O 	0.5072	0.3238	0.09779	-0.491
Mof_O 	O 	0.6361	0.318	0.07923	-0.406
Mof_O 	O 	0.6283	0.4059	0.22003	-0.551
Mof_O 	O 	0.5934	0.2548	0.2143	-0.515
Mof_O 	O 	0.719	0.1116	0.282	-0.516
Mof_O 	O 	0.8718	0.0927	0.28451	-0.557
Mof_O 	O 	0.5107	0.0752	0.19945	-0.636
Mof_N 	N 	0.8944	0.5402	0.1922	-0.102
Mof_C 	C 	0.5991	0.4291	0.17146	0.466
Mof_C 	C 	0.6517	0.4061	0.15145	-0.197
Mof_C 	C 	0.6038	0.3811	0.13384	0.114
Mof_H 	H 	0.5387	0.3757	0.1342	-0.005
Mof_C 	C 	0.6509	0.3638	0.11559	-0.144
Mof_C 	C 	0.5923	0.3329	0.09593	0.361
Mof_C 	C 	0.7467	0.3741	0.11447	0.09
Mof_H 	H 	0.7774	0.3671	0.1017	0.015
Mof_C 	C 	0.796	0.3944	0.13191	-0.172
Mof_H 	H 	0.8613	0.3962	0.1312	0.099
Mof_C 	C 	0.751	0.4129	0.15116	0.121
Mof_C 	C 	0.8011	0.4302	0.17074	-0.044
Mof_C 	C 	0.8512	0.5205	0.17412	0.036
Mof_H 	H 	0.8525	0.5645	0.1634	0.031
Mof_C 	C 	0.8823	0.4777	0.20813	0.047
Mof_H 	H 	0.9096	0.4936	0.2209	0.035
Mof_C 	C 	0.835	0.3946	0.20755	-0.059
Mof_C 	C 	0.7935	0.3688	0.18793	-0.007
Mof_H 	H 	0.7618	0.312	0.1866	0.042
Mof_C 	C 	0.8244	0.3286	0.22582	0.167
Mof_C 	C 	0.7371	0.2927	0.23139	-0.239
Mof_C 	C 	0.6459	0.3205	0.22118	0.51
Mof_C 	C 	0.7354	0.2286	0.2469	0.152
Mof_H 	H 	0.6787	0.1991	0.2499	-0.004
Mof_C 	C 	0.8152	0.2038	0.2588	-0.223
Mof_C 	C 	0.8986	0.2373	0.25291	0.149
Mof_H 	H 	0.9535	0.2164	0.2593	-0
Mof_C 	C 	0.9022	0.3049	0.2368	-0.225
Mof_H 	H 	0.9591	0.3338	0.2337	0.128
Mof_C 	C 	0.7991	0.1326	0.2763	0.449
Mof_Tb	Tb	0.98323	0.72408	0.6882	2.359
Mof_O 	O 	0.0391	0.8691	0.67818	-0.685
Mof_O 	O 	0.1127	0.0052	0.68022	-0.558
Mof_O 	O 	0.0072	0.8238	0.59779	-0.538
Mof_O 	O 	0.1361	0.818	0.57923	-0.434
Mof_O 	O 	0.1283	0.9059	0.72003	-0.486
Mof_O 	O 	0.0934	0.7548	0.7143	-0.561
Mof_O 	O 	0.219	0.6116	0.782	-0.54
Mof_O 	O 	0.3718	0.5927	0.78451	-0.625
Mof_O 	O 	0.0107	0.5752	0.69945	-0.689
Mof_N 	N 	0.3944	0.0402	0.6922	-0.148
Mof_C 	C 	0.0991	0.9291	0.67146	0.575
Mof_C 	C 	0.1517	0.9061	0.65145	-0.23
Mof_C 	C 	0.1038	0.8811	0.63384	0.143
Mof_H 	H 	0.0387	0.8757	0.6342	-0.022
Mof_C 	C 	0.1509	0.8638	0.61559	-0.156
Mof_C 	C 	0.0923	0.8329	0.59593	0.376
Mof_C 	C 	0.2467	0.8741	0.61447	0.101
Mof_H 	H 	0.2774	0.8671	0.6017	0.014
Mof_C 	C 	0.296	0.8944	0.63191	-0.172
Mof_H 	H 	0.3613	0.8962	0.6312	0.1
Mof_C 	C 	0.251	0.9129	0.65116	0.125
Mof_C 	C 	0.3011	0.9302	0.67074	0.023
Mof_C 	C 	0.3512	0.0205	0.67412	-0.064
Mof_H 	H 	0.3525	0.0645	0.6634	0.031
Mof_C 	C 	0.3823	0.9777	0.70813	0.121
Mof_H 	H 	0.4096	0.9936	0.7209	0.022
Mof_C 	C 	0.335	0.8946	0.70755	-0.073
Mof_C 	C 	0.2935	0.8688	0.68793	-0.015
Mof_H 	H 	0.2618	0.812	0.6866	0.042
Mof_C 	C 	0.3244	0.8286	0.72582	0.185
Mof_C 	C 	0.2371	0.7927	0.73139	-0.245
Mof_C 	C 	0.1459	0.8205	0.72118	0.506
Mof_C 	C 	0.2354	0.7286	0.7469	0.17
Mof_H 	H 	0.1787	0.6991	0.7499	-0.011
Mof_C 	C 	0.3152	0.7038	0.7588	-0.25
Mof_C 	C 	0.3986	0.7373	0.75291	0.173
Mof_H 	H 	0.4535	0.7164	0.7593	-0.033
Mof_C 	C 	0.4022	0.8049	0.7368	-0.246
Mof_H 	H 	0.4591	0.8338	0.7337	0.123
Mof_C 	C 	0.2991	0.6326	0.7763	0.483
Mof_Tb	Tb	0.5	0	0.45941	1.933
Mof_Tb	Tb	4.73791e-32	0.5	0.95941	1.943
Mof_Tb	Tb	4.0345e-32	0.5	0.54059	1.933
Mof_Tb	Tb	0.5	0	0.04059	1.943
Mof_Tb	Tb	2.05133e-32	1.56329e-32	0.29059	1.734
Mof_Tb	Tb	0.5	0.5	0.79059	2.144
Mof_Tb	Tb	0.5	0.5	0.20941	2.144
Mof_Tb	Tb	1.19146e-32	0	0.70941	1.733
Mof_C 	C 	7.4184e-33	0	0.4417	0.56
Mof_H 	H 	2.2806e-32	1.56329e-32	0.4271	-0.255
Mof_C 	C 	0.5	0.5	0.9417	0.888
Mof_H 	H 	0.5	0.5	0.9271	-0.313
Mof_C 	C 	9.37671e-33	0	0.5583	0.544
Mof_H 	H 	9.62192e-33	0	0.5729	-0.251
Mof_C 	C 	0.5	0.5	0.0583	0.888
Mof_H 	H 	0.5	0.5	0.0729	-0.313
Mof_C 	C 	0.5	0	0.3083	0.717
Mof_H 	H 	0.5	0	0.3229	-0.283
Mof_C 	C 	1.35755e-32	0.5	0.8083	0.72
Mof_H 	H 	4.50864e-32	0.5	0.8229	-0.283
Mof_C 	C 	0.5	0	0.1917	0.719
Mof_H 	H 	0.5	7.81643e-33	0.1771	-0.283
Mof_C 	C 	1.16172e-32	0.5	0.6917	0.714
Mof_H 	H 	1.1372e-32	0.5	0.6771	-0.282
_end
