data_functionalizedCrystal
_audit_creation_method	'EQeq! by Chris Wilmer'
_symmetry_space_group_name_H-M	'P1'
_symmetry_Int_Tables_number	1
_symmetry_cell_setting	triclinic
loop_
_symmetry_equiv_pos_as_xyz
  x,y,z
_cell_length_a	9.267
_cell_length_b	19.041
_cell_length_c	8.292
_cell_angle_alpha	90
_cell_angle_beta	111.164
_cell_angle_gamma	90
loop_
_atom_site_label
_atom_site_type_symbol
_atom_site_fract_x
_atom_site_fract_y
_atom_site_fract_z
_atom_site_charge
Mof_Zn	Zn	0.3024	0.46983	0.83751	1.195
Mof_O 	O 	0.0606	0.3972	0.9702	-0.471
Mof_O 	O 	0.2328	0.3724	0.8408	-0.482
Mof_O 	O 	0.7871	0.0496	0.8306	-0.443
Mof_O 	O 	0.9817	0.0207	0.7473	-0.449
Mof_N 	N 	0.2368	0.5291	0.1391	-0.211
Mof_N 	N 	0.3514	0.5171	0.0768	-0.233
Mof_N 	N 	0.488	0.5417	0.1911	-0.233
Mof_C 	C 	0.1286	0.355	0.9044	0.4
Mof_C 	C 	0.0875	0.2776	0.8993	-0.211
Mof_C 	C 	0.9507	0.2588	0.9303	0.163
Mof_H 	H 	0.894	0.2931	0.9612	0.012
Mof_C 	C 	0.902	0.1888	0.914	-0.139
Mof_H 	H 	0.8134	0.1769	0.9356	0.104
Mof_C 	C 	0.9839	0.1369	0.866	0.081
Mof_C 	C 	0.1257	0.1549	0.8457	-0.199
Mof_H 	H 	0.1857	0.12	0.8224	0.09
Mof_C 	C 	0.1745	0.2246	0.8609	0.116
Mof_H 	H 	0.2661	0.236	0.8452	0.006
Mof_C 	C 	0.9178	0.0644	0.8162	0.287
Mof_C 	C 	0.3026	0.5607	0.2932	0.003
Mof_H 	H 	0.2512	0.5745	0.3658	0.03
Mof_C 	C 	0.4579	0.5693	0.3264	0.007
Mof_H 	H 	0.5293	0.5902	0.4239	0.015
Mof_Zn	Zn	0.6976	0.96983	0.66249	1.211
Mof_O 	O 	0.9394	0.8972	0.5298	-0.401
Mof_O 	O 	0.7672	0.8724	0.6592	-0.439
Mof_O 	O 	0.2129	0.5496	0.6694	-0.455
Mof_O 	O 	0.0183	0.5207	0.7527	-0.493
Mof_N 	N 	0.7632	0.0291	0.3609	-0.193
Mof_N 	N 	0.6486	0.0171	0.4232	-0.231
Mof_N 	N 	0.512	0.0417	0.3089	-0.242
Mof_C 	C 	0.8714	0.855	0.5956	0.317
Mof_C 	C 	0.9125	0.7776	0.6007	0.086
Mof_C 	C 	0.0493	0.7588	0.5697	-0.203
Mof_H 	H 	0.106	0.7931	0.5388	0.1
Mof_C 	C 	0.098	0.6888	0.586	0.117
Mof_H 	H 	0.1866	0.6769	0.5644	-0.001
Mof_C 	C 	0.0161	0.6369	0.634	-0.23
Mof_C 	C 	0.8743	0.6549	0.6543	0.164
Mof_H 	H 	0.8143	0.62	0.6776	-0.007
Mof_C 	C 	0.8255	0.7246	0.6391	-0.143
Mof_H 	H 	0.7339	0.736	0.6548	0.098
Mof_C 	C 	0.0822	0.5644	0.6838	0.364
Mof_C 	C 	0.6974	0.0607	0.2068	-0
Mof_H 	H 	0.7488	0.0745	0.1342	0.022
Mof_C 	C 	0.5421	0.0693	0.1736	-0.005
Mof_H 	H 	0.4707	0.0902	0.0761	-0.015
Mof_Zn	Zn	0.6976	0.53017	0.16249	1.181
Mof_O 	O 	0.9394	0.6028	0.0298	-0.441
Mof_O 	O 	0.7672	0.6276	0.1592	-0.469
Mof_O 	O 	0.2129	0.9504	0.1694	-0.448
Mof_O 	O 	0.0183	0.9793	0.2527	-0.473
Mof_N 	N 	0.7632	0.4709	0.8609	-0.167
Mof_N 	N 	0.6486	0.4829	0.9232	-0.19
Mof_N 	N 	0.512	0.4583	0.8089	-0.22
Mof_C 	C 	0.8714	0.645	0.0956	0.314
Mof_C 	C 	0.9125	0.7224	0.1007	0.071
Mof_C 	C 	0.0493	0.7412	0.0697	-0.215
Mof_H 	H 	0.106	0.7069	0.0388	0.087
Mof_C 	C 	0.098	0.8112	0.086	0.107
Mof_H 	H 	0.1866	0.8231	0.0644	-0.014
Mof_C 	C 	0.0161	0.8631	0.134	-0.238
Mof_C 	C 	0.8743	0.8451	0.1543	0.149
Mof_H 	H 	0.8143	0.88	0.1776	-0.011
Mof_C 	C 	0.8255	0.7754	0.1391	-0.149
Mof_H 	H 	0.7339	0.764	0.1548	0.085
Mof_C 	C 	0.0822	0.9356	0.1838	0.352
Mof_C 	C 	0.6974	0.4393	0.7068	0.014
Mof_H 	H 	0.7488	0.4255	0.6342	0.044
Mof_C 	C 	0.5421	0.4307	0.6736	0.013
Mof_H 	H 	0.4707	0.4098	0.5761	0.009
Mof_Zn	Zn	0.3024	0.03017	0.33751	1.164
Mof_O 	O 	0.0606	0.1028	0.4702	-0.518
Mof_O 	O 	0.2328	0.1276	0.3408	-0.514
Mof_O 	O 	0.7871	0.4504	0.3306	-0.435
Mof_O 	O 	0.9817	0.4793	0.2473	-0.43
Mof_N 	N 	0.2368	0.9709	0.6391	-0.18
Mof_N 	N 	0.3514	0.9829	0.5768	-0.19
Mof_N 	N 	0.488	0.9583	0.6911	-0.211
Mof_C 	C 	0.1286	0.145	0.4044	0.401
Mof_C 	C 	0.0875	0.2224	0.3993	-0.244
Mof_C 	C 	0.9507	0.2412	0.4303	0.173
Mof_H 	H 	0.894	0.2069	0.4612	-0.006
Mof_C 	C 	0.902	0.3112	0.414	-0.164
Mof_H 	H 	0.8134	0.3231	0.4356	0.096
Mof_C 	C 	0.9839	0.3631	0.366	0.086
Mof_C 	C 	0.1257	0.3451	0.3457	-0.23
Mof_H 	H 	0.1857	0.38	0.3224	0.09
Mof_C 	C 	0.1745	0.2754	0.3609	0.122
Mof_H 	H 	0.2661	0.264	0.3452	-0.013
Mof_C 	C 	0.9178	0.4356	0.3162	0.271
Mof_C 	C 	0.3026	0.9393	0.7932	0.018
Mof_H 	H 	0.2512	0.9255	0.8658	0.055
Mof_C 	C 	0.4579	0.9307	0.8264	0.026
Mof_H 	H 	0.5293	0.9098	0.9239	0.038
Mof_Zn	Zn	-9.25038e-33	0.5	-0	1.174
Mof_Zn	Zn	2.28309e-33	2.3126e-33	0.5	1.171
_end
