data_functionalizedCrystal
_audit_creation_method	'EQeq! by Chris Wilmer'
_symmetry_space_group_name_H-M	'P1'
_symmetry_Int_Tables_number	1
_symmetry_cell_setting	triclinic
loop_
_symmetry_equiv_pos_as_xyz
  x,y,z
_cell_length_a	34.5583
_cell_length_b	19.0573
_cell_length_c	23.688
_cell_angle_alpha	90
_cell_angle_beta	128.188
_cell_angle_gamma	90
loop_
_atom_site_label
_atom_site_type_symbol
_atom_site_fract_x
_atom_site_fract_y
_atom_site_fract_z
_atom_site_charge
Mof_Gd	Gd	0.20624	0.09203	0.71776	1.797
Mof_O 	O 	0.13101	0.114	0.7061	-0.451
Mof_O 	O 	0.29728	0.0938	0.805	-0.418
Mof_O 	O 	0.23707	0.0385	0.6615	-0.578
Mof_O 	O 	0.14082	0.0664	0.59445	-0.59
Mof_O 	O 	0.18453	0.9743	0.705	-0.576
Mof_O 	O 	0.20833	0.1949	0.6639	-0.475
Mof_O 	O 	0.2242	0.07548	0.8362	-0.37
Mof_O 	O 	0.22782	0.1841	0.8069	-0.386
Mof_C 	C 	0.0923	0.0793	0.6771	0.461
Mof_C 	C 	0.3162	0.0337	0.8242	0.418
Mof_Gd	Gd	0.17568	0.04273	0.5352	1.609
Mof_Gd	Gd	0.24218	0.91392	0.69509	1.58
Mof_Gd	Gd	0.10515	0.95571	0.58737	1.578
Mof_C 	C 	0.0532	0.1055	0.6815	-0.176
Mof_O 	O 	0.08105	0.0246	0.6404	-0.499
Mof_C 	C 	0.3706	0.0255	0.8777	-0.172
Mof_O 	O 	0.29071	0.9776	0.8002	-0.494
Mof_O 	O 	0.23842	0.9761	0.5487	-0.496
Mof_O 	O 	0.16816	0.9338	0.57807	-0.641
Mof_O 	O 	0.09424	0.0796	0.4422	-0.475
Mof_O 	O 	0.18936	0.1646	0.5583	-0.479
Mof_O 	O 	0.20243	0.8298	0.7152	-0.485
Mof_O 	O 	0.29328	0.9263	0.6568	-0.456
Mof_O 	O 	0.12217	0.8531	0.6534	-0.499
Mof_O 	O 	0.0563	0.004	0.4655	-0.484
Mof_C 	C 	0.0457	0.177	0.6817	0.081
Mof_C 	C 	0.0194	0.0589	0.6765	0.092
Mof_C 	C 	0.3901	0.9603	0.907	0.077
Mof_C 	C 	0.4014	0.079	0.8959	0.075
Mof_C 	C 	0.2766	0.9422	0.5929	0.446
Mof_C 	C 	0.0568	0.0492	0.4263	0.434
Mof_C 	C 	0.1611	0.8216	0.7014	0.473
Mof_H 	H 	0.0677	0.2091	0.686	0
Mof_C 	C 	0.0051	0.2002	0.6752	-0.159
Mof_C 	C 	0.0282	0.9815	0.6888	0.101
Mof_N 	N 	0.97883	0.0817	0.6672	-0.141
Mof_H 	H 	0.3691	0.9223	0.8938	-0.001
Mof_C 	C 	0.4405	0.9508	0.9557	-0.136
Mof_C 	C 	0.4527	0.0694	0.9442	-0.135
Mof_H 	H 	0.3887	0.1232	0.8765	0.013
Mof_C 	C 	0.3064	0.9218	0.5694	-0.176
Mof_C 	C 	0.0085	0.0681	0.3559	-0.174
Mof_C 	C 	0.1588	0.7694	0.7464	-0.187
Mof_H 	H 	0.0001	0.2478	0.6775	0.078
Mof_C 	C 	0.9719	0.15	0.6652	0.079
Mof_N 	N 	0.07262	0.9618	0.7485	-0.14
Mof_H 	H 	0.4529	0.9069	0.9765	0.07
Mof_C 	C 	0.4728	0.0053	0.9743	0.052
Mof_H 	H 	0.4734	0.1073	0.9557	0.068
Mof_C 	C 	0.3544	0.9451	0.6084	0.092
Mof_C 	C 	0.287	0.8828	0.5068	0.104
Mof_C 	C 	0.0001	0.1382	0.3356	0.086
Mof_C 	C 	0.118	0.7261	0.7157	0.113
Mof_C 	C 	0.1973	0.7606	0.819	0.104
Mof_H 	H 	0.9432	0.1657	0.6567	0.002
Mof_C 	C 	0.0803	0.8947	0.7658	0.098
Mof_H 	H 	0.369	0.9686	0.6516	-0.001
Mof_C 	C 	0.3808	0.9336	0.5832	-0.163
Mof_C 	C 	0.2381	0.8463	0.4641	0.075
Mof_N 	N 	0.31245	0.8706	0.4822	-0.134
Mof_C 	C 	0.9546	0.1572	0.2731	-0.158
Mof_H 	H 	0.0245	0.1717	0.3634	0.004
Mof_H 	H 	0.0909	0.7318	0.6678	-0.01
Mof_C 	C 	0.1178	0.6753	0.7559	-0.18
Mof_C 	C 	0.2404	0.8087	0.8616	0.093
Mof_N 	N 	0.1973	0.7113	0.859	-0.145
Mof_H 	H 	0.1112	0.8815	0.8067	0.001
Mof_H 	H 	0.413	0.9495	0.6084	0.082
Mof_C 	C 	0.3577	0.8976	0.5192	0.086
Mof_C 	C 	0.2125	0.8307	0.3914	-0.109
Mof_N 	N 	0.22174	0.8243	0.5002	-0.14
Mof_H 	H 	0.9477	0.2036	0.2576	0.086
Mof_H 	H 	0.0908	0.6458	0.736	0.089
Mof_C 	C 	0.1584	0.6686	0.8265	0.101
Mof_C 	C 	0.2888	0.7822	0.9032	-0.177
Mof_N 	N 	0.2308	0.877	0.8624	-0.139
Mof_H 	H 	0.3747	0.8919	0.5007	0.008
Mof_C 	C 	0.1706	0.7886	0.3566	0.053
Mof_C 	C 	0.22437	0.8588	0.3446	0.323
Mof_C 	C 	0.1802	0.7868	0.4647	0.076
Mof_H 	H 	0.1588	0.6323	0.8531	-0.003
Mof_C 	C 	0.3271	0.827	0.9509	0.094
Mof_C 	C 	0.2975	0.7076	0.8936	0.465
Mof_C 	C 	0.2689	0.9183	0.9089	0.088
Mof_C 	C 	0.1537	0.7668	0.3934	-0.133
Mof_H 	H 	0.1542	0.7752	0.3091	0.017
Mof_H 	H 	0.1683	0.7733	0.4892	0.001
Mof_C 	C 	0.317	0.8962	0.9544	-0.16
Mof_H 	H 	0.3594	0.8107	0.9803	-0.005
Mof_H 	H 	0.2626	0.9654	0.9106	0.023
Mof_H 	H 	0.1255	0.7396	0.3712	0.077
Mof_H 	H 	0.3421	0.9271	0.9868	0.089
Mof_Gd	Gd	0.70624	0.59203	0.71776	1.797
Mof_O 	O 	0.63101	0.614	0.7061	-0.451
Mof_O 	O 	0.79728	0.5938	0.805	-0.418
Mof_O 	O 	0.73707	0.5385	0.6615	-0.578
Mof_O 	O 	0.64082	0.5664	0.59445	-0.59
Mof_O 	O 	0.68453	0.4743	0.705	-0.576
Mof_O 	O 	0.70833	0.6949	0.6639	-0.475
Mof_O 	O 	0.7242	0.57548	0.8362	-0.37
Mof_O 	O 	0.72782	0.6841	0.8069	-0.386
Mof_C 	C 	0.5923	0.5793	0.6771	0.461
Mof_C 	C 	0.8162	0.5337	0.8242	0.419
Mof_Gd	Gd	0.67568	0.54273	0.5352	1.609
Mof_Gd	Gd	0.74218	0.41392	0.69509	1.58
Mof_Gd	Gd	0.60515	0.45571	0.58737	1.578
Mof_C 	C 	0.5532	0.6055	0.6815	-0.176
Mof_O 	O 	0.58105	0.5246	0.6404	-0.499
Mof_C 	C 	0.8706	0.5255	0.8777	-0.171
Mof_O 	O 	0.79071	0.4776	0.8002	-0.495
Mof_O 	O 	0.73842	0.4761	0.5487	-0.496
Mof_O 	O 	0.66816	0.4338	0.57807	-0.641
Mof_O 	O 	0.59424	0.5796	0.4422	-0.475
Mof_O 	O 	0.68936	0.6646	0.5583	-0.479
Mof_O 	O 	0.70243	0.3298	0.7152	-0.485
Mof_O 	O 	0.79328	0.4263	0.6568	-0.457
Mof_O 	O 	0.62217	0.3531	0.6534	-0.499
Mof_O 	O 	0.5563	0.504	0.4655	-0.483
Mof_C 	C 	0.5457	0.677	0.6817	0.081
Mof_C 	C 	0.5194	0.5589	0.6765	0.093
Mof_C 	C 	0.8901	0.4603	0.907	0.075
Mof_C 	C 	0.9014	0.579	0.8959	0.075
Mof_C 	C 	0.7766	0.4422	0.5929	0.446
Mof_C 	C 	0.5568	0.5492	0.4263	0.434
Mof_C 	C 	0.6611	0.3216	0.7014	0.473
Mof_H 	H 	0.5677	0.7091	0.686	0
Mof_C 	C 	0.5051	0.7002	0.6752	-0.159
Mof_C 	C 	0.5282	0.4815	0.6888	0.1
Mof_N 	N 	0.47883	0.5817	0.6672	-0.141
Mof_H 	H 	0.8691	0.4223	0.8938	-0.001
Mof_C 	C 	0.9405	0.4508	0.9557	-0.138
Mof_C 	C 	0.9527	0.5694	0.9442	-0.135
Mof_H 	H 	0.8887	0.6232	0.8765	0.013
Mof_C 	C 	0.8064	0.4218	0.5694	-0.176
Mof_C 	C 	0.5085	0.5681	0.3559	-0.173
Mof_C 	C 	0.6588	0.2694	0.7464	-0.187
Mof_H 	H 	0.5001	0.7478	0.6775	0.078
Mof_C 	C 	0.4719	0.65	0.6652	0.079
Mof_N 	N 	0.57262	0.4618	0.7485	-0.14
Mof_H 	H 	0.9529	0.4069	0.9765	0.069
Mof_C 	C 	0.9728	0.5053	0.9743	0.053
Mof_H 	H 	0.9734	0.6073	0.9557	0.069
Mof_C 	C 	0.8544	0.4451	0.6084	0.092
Mof_C 	C 	0.787	0.3828	0.5068	0.104
Mof_C 	C 	0.5001	0.6382	0.3356	0.087
Mof_C 	C 	0.618	0.2261	0.7157	0.113
Mof_C 	C 	0.6973	0.2606	0.819	0.104
Mof_H 	H 	0.4432	0.6657	0.6567	0.002
Mof_C 	C 	0.5803	0.3947	0.7658	0.098
Mof_H 	H 	0.869	0.4686	0.6516	-0.001
Mof_C 	C 	0.8808	0.4336	0.5832	-0.163
Mof_C 	C 	0.7381	0.3463	0.4641	0.075
Mof_N 	N 	0.81245	0.3706	0.4822	-0.135
Mof_C 	C 	0.4546	0.6572	0.2731	-0.159
Mof_H 	H 	0.5245	0.6717	0.3634	0.004
Mof_H 	H 	0.5909	0.2318	0.6678	-0.01
Mof_C 	C 	0.6178	0.1753	0.7559	-0.18
Mof_C 	C 	0.7404	0.3087	0.8616	0.093
Mof_N 	N 	0.6973	0.2113	0.859	-0.145
Mof_H 	H 	0.6112	0.3815	0.8067	0
Mof_H 	H 	0.913	0.4495	0.6084	0.081
Mof_C 	C 	0.8577	0.3976	0.5192	0.086
Mof_C 	C 	0.7125	0.3307	0.3914	-0.109
Mof_N 	N 	0.72174	0.3243	0.5002	-0.14
Mof_H 	H 	0.4477	0.7036	0.2576	0.086
Mof_H 	H 	0.5908	0.1458	0.736	0.088
Mof_C 	C 	0.6584	0.1686	0.8265	0.101
Mof_C 	C 	0.7888	0.2822	0.9032	-0.177
Mof_N 	N 	0.7308	0.377	0.8624	-0.139
Mof_H 	H 	0.8747	0.3919	0.5007	0.008
Mof_C 	C 	0.6706	0.2886	0.3566	0.053
Mof_C 	C 	0.72437	0.3588	0.3446	0.323
Mof_C 	C 	0.6802	0.2868	0.4647	0.076
Mof_H 	H 	0.6588	0.1323	0.8531	-0.003
Mof_C 	C 	0.8271	0.327	0.9509	0.093
Mof_C 	C 	0.7975	0.2076	0.8936	0.465
Mof_C 	C 	0.7689	0.4183	0.9089	0.088
Mof_C 	C 	0.6537	0.2668	0.3934	-0.133
Mof_H 	H 	0.6542	0.2752	0.3091	0.017
Mof_H 	H 	0.6683	0.2733	0.4892	0.001
Mof_C 	C 	0.817	0.3962	0.9544	-0.16
Mof_H 	H 	0.8594	0.3107	0.9803	-0.005
Mof_H 	H 	0.7626	0.4654	0.9106	0.022
Mof_H 	H 	0.6255	0.2396	0.3712	0.077
Mof_H 	H 	0.8421	0.4271	0.9868	0.088
Mof_Gd	Gd	0.79376	0.09203	0.78224	1.797
Mof_O 	O 	0.86899	0.114	0.7939	-0.451
Mof_O 	O 	0.70272	0.0938	0.695	-0.418
Mof_O 	O 	0.76293	0.0385	0.8385	-0.578
Mof_O 	O 	0.85918	0.0664	0.90555	-0.591
Mof_O 	O 	0.81547	0.9743	0.795	-0.576
Mof_O 	O 	0.79167	0.1949	0.8361	-0.475
Mof_O 	O 	0.7758	0.07548	0.6638	-0.37
Mof_O 	O 	0.77218	0.1841	0.6931	-0.386
Mof_C 	C 	0.9077	0.0793	0.8229	0.461
Mof_C 	C 	0.6838	0.0337	0.6758	0.419
Mof_Gd	Gd	0.82432	0.04273	0.9648	1.606
Mof_Gd	Gd	0.75782	0.91392	0.80491	1.58
Mof_Gd	Gd	0.89485	0.95571	0.91263	1.579
Mof_C 	C 	0.9468	0.1055	0.8185	-0.177
Mof_O 	O 	0.91895	0.0246	0.8596	-0.5
Mof_C 	C 	0.6294	0.0255	0.6223	-0.171
Mof_O 	O 	0.70929	0.9776	0.6998	-0.494
Mof_O 	O 	0.76158	0.9761	0.9513	-0.495
Mof_O 	O 	0.83184	0.9338	0.92193	-0.64
Mof_O 	O 	0.90576	0.0796	0.0578	-0.474
Mof_O 	O 	0.81064	0.1646	0.9417	-0.479
Mof_O 	O 	0.79757	0.8298	0.7848	-0.485
Mof_O 	O 	0.70672	0.9263	0.8432	-0.456
Mof_O 	O 	0.87783	0.8531	0.8466	-0.499
Mof_O 	O 	0.9437	0.004	0.0345	-0.482
Mof_C 	C 	0.9543	0.177	0.8183	0.081
Mof_C 	C 	0.9806	0.0589	0.8235	0.091
Mof_C 	C 	0.6099	0.9603	0.593	0.076
Mof_C 	C 	0.5986	0.079	0.6041	0.075
Mof_C 	C 	0.7234	0.9422	0.9071	0.446
Mof_C 	C 	0.9432	0.0492	0.0737	0.434
Mof_C 	C 	0.8389	0.8216	0.7986	0.473
Mof_H 	H 	0.9323	0.2091	0.814	0
Mof_C 	C 	0.9949	0.2002	0.8248	-0.16
Mof_C 	C 	0.9718	0.9815	0.8112	0.101
Mof_N 	N 	0.02117	0.0817	0.8328	-0.141
Mof_H 	H 	0.6309	0.9223	0.6062	-0.001
Mof_C 	C 	0.5595	0.9508	0.5443	-0.138
Mof_C 	C 	0.5473	0.0694	0.5558	-0.135
Mof_H 	H 	0.6113	0.1232	0.6235	0.013
Mof_C 	C 	0.6936	0.9218	0.9306	-0.177
Mof_C 	C 	0.9915	0.0681	0.1441	-0.173
Mof_C 	C 	0.8412	0.7694	0.7536	-0.187
Mof_H 	H 	0.9999	0.2478	0.8225	0.078
Mof_C 	C 	0.0281	0.15	0.8348	0.08
Mof_N 	N 	0.92738	0.9618	0.7515	-0.14
Mof_H 	H 	0.5471	0.9069	0.5235	0.07
Mof_C 	C 	0.5272	0.0053	0.5257	0.053
Mof_H 	H 	0.5266	0.1073	0.5443	0.069
Mof_C 	C 	0.6456	0.9451	0.8916	0.093
Mof_C 	C 	0.713	0.8828	0.9932	0.106
Mof_C 	C 	0.9999	0.1382	0.1644	0.087
Mof_C 	C 	0.882	0.7261	0.7843	0.113
Mof_C 	C 	0.8027	0.7606	0.681	0.104
Mof_H 	H 	0.0568	0.1657	0.8433	0.002
Mof_C 	C 	0.9197	0.8947	0.7342	0.099
Mof_H 	H 	0.631	0.9686	0.8484	-0.001
Mof_C 	C 	0.6192	0.9336	0.9168	-0.164
Mof_C 	C 	0.7619	0.8463	0.0359	0.073
Mof_N 	N 	0.68755	0.8706	0.0178	-0.136
Mof_C 	C 	0.0454	0.1572	0.2269	-0.159
Mof_H 	H 	0.9755	0.1717	0.1366	0.004
Mof_H 	H 	0.9091	0.7318	0.8322	-0.01
Mof_C 	C 	0.8822	0.6753	0.7441	-0.18
Mof_C 	C 	0.7596	0.8087	0.6384	0.093
Mof_N 	N 	0.8027	0.7113	0.641	-0.145
Mof_H 	H 	0.8888	0.8815	0.6933	0
Mof_H 	H 	0.587	0.9495	0.8916	0.082
Mof_C 	C 	0.6423	0.8976	0.9808	0.087
Mof_C 	C 	0.7875	0.8307	0.1086	-0.109
Mof_N 	N 	0.77826	0.8243	0.9998	-0.139
Mof_H 	H 	0.0523	0.2036	0.2424	0.086
Mof_H 	H 	0.9092	0.6458	0.764	0.088
Mof_C 	C 	0.8416	0.6686	0.6735	0.101
Mof_C 	C 	0.7112	0.7822	0.5968	-0.177
Mof_N 	N 	0.7692	0.877	0.6376	-0.139
Mof_H 	H 	0.6253	0.8919	0.9993	0.008
Mof_C 	C 	0.8294	0.7886	0.1434	0.052
Mof_C 	C 	0.77563	0.8588	0.1554	0.322
Mof_C 	C 	0.8198	0.7868	0.0353	0.074
Mof_H 	H 	0.8412	0.6323	0.6469	-0.003
Mof_C 	C 	0.6729	0.827	0.5491	0.093
Mof_C 	C 	0.7025	0.7076	0.6064	0.465
Mof_C 	C 	0.7311	0.9183	0.5911	0.088
Mof_C 	C 	0.8463	0.7668	0.1066	-0.132
Mof_H 	H 	0.8458	0.7752	0.1909	0.018
Mof_H 	H 	0.8317	0.7733	0.0108	0.001
Mof_C 	C 	0.683	0.8962	0.5456	-0.16
Mof_H 	H 	0.6406	0.8107	0.5197	-0.005
Mof_H 	H 	0.7374	0.9654	0.5894	0.022
Mof_H 	H 	0.8745	0.7396	0.1288	0.076
Mof_H 	H 	0.6579	0.9271	0.5132	0.088
Mof_Gd	Gd	0.29376	0.59203	0.78224	1.797
Mof_O 	O 	0.36899	0.614	0.7939	-0.451
Mof_O 	O 	0.20272	0.5938	0.695	-0.418
Mof_O 	O 	0.26293	0.5385	0.8385	-0.578
Mof_O 	O 	0.35918	0.5664	0.90555	-0.59
Mof_O 	O 	0.31547	0.4743	0.795	-0.576
Mof_O 	O 	0.29167	0.6949	0.8361	-0.475
Mof_O 	O 	0.2758	0.57548	0.6638	-0.37
Mof_O 	O 	0.27218	0.6841	0.6931	-0.386
Mof_C 	C 	0.4077	0.5793	0.8229	0.461
Mof_C 	C 	0.1838	0.5337	0.6758	0.419
Mof_Gd	Gd	0.32432	0.54273	0.9648	1.61
Mof_Gd	Gd	0.25782	0.41392	0.80491	1.58
Mof_Gd	Gd	0.39485	0.45571	0.91263	1.578
Mof_C 	C 	0.4468	0.6055	0.8185	-0.176
Mof_O 	O 	0.41895	0.5246	0.8596	-0.499
Mof_C 	C 	0.1294	0.5255	0.6223	-0.171
Mof_O 	O 	0.20929	0.4776	0.6998	-0.495
Mof_O 	O 	0.26158	0.4761	0.9513	-0.496
Mof_O 	O 	0.33184	0.4338	0.92193	-0.641
Mof_O 	O 	0.40576	0.5796	0.0578	-0.475
Mof_O 	O 	0.31064	0.6646	0.9417	-0.479
Mof_O 	O 	0.29757	0.3298	0.7848	-0.485
Mof_O 	O 	0.20672	0.4263	0.8432	-0.457
Mof_O 	O 	0.37783	0.3531	0.8466	-0.499
Mof_O 	O 	0.4437	0.504	0.0345	-0.483
Mof_C 	C 	0.4543	0.677	0.8183	0.081
Mof_C 	C 	0.4806	0.5589	0.8235	0.093
Mof_C 	C 	0.1099	0.4603	0.593	0.075
Mof_C 	C 	0.0986	0.579	0.6041	0.075
Mof_C 	C 	0.2234	0.4422	0.9071	0.446
Mof_C 	C 	0.4432	0.5492	0.0737	0.434
Mof_C 	C 	0.3389	0.3216	0.7986	0.473
Mof_H 	H 	0.4323	0.7091	0.814	0
Mof_C 	C 	0.4949	0.7002	0.8248	-0.159
Mof_C 	C 	0.4718	0.4815	0.8112	0.1
Mof_N 	N 	0.52117	0.5817	0.8328	-0.141
Mof_H 	H 	0.1309	0.4223	0.6062	-0.001
Mof_C 	C 	0.0595	0.4508	0.5443	-0.138
Mof_C 	C 	0.0473	0.5694	0.5558	-0.135
Mof_H 	H 	0.1113	0.6232	0.6235	0.013
Mof_C 	C 	0.1936	0.4218	0.9306	-0.176
Mof_C 	C 	0.4915	0.5681	0.1441	-0.174
Mof_C 	C 	0.3412	0.2694	0.7536	-0.187
Mof_H 	H 	0.4999	0.7478	0.8225	0.078
Mof_C 	C 	0.5281	0.65	0.8348	0.079
Mof_N 	N 	0.42738	0.4618	0.7515	-0.14
Mof_H 	H 	0.0471	0.4069	0.5235	0.07
Mof_C 	C 	0.0272	0.5053	0.5257	0.053
Mof_H 	H 	0.0266	0.6073	0.5443	0.069
Mof_C 	C 	0.1456	0.4451	0.8916	0.092
Mof_C 	C 	0.213	0.3828	0.9932	0.103
Mof_C 	C 	0.4999	0.6382	0.1644	0.087
Mof_C 	C 	0.382	0.2261	0.7843	0.113
Mof_C 	C 	0.3027	0.2606	0.681	0.104
Mof_H 	H 	0.5568	0.6657	0.8433	0.002
Mof_C 	C 	0.4197	0.3947	0.7342	0.098
Mof_H 	H 	0.131	0.4686	0.8484	-0.001
Mof_C 	C 	0.1192	0.4336	0.9168	-0.163
Mof_C 	C 	0.2619	0.3463	0.0359	0.075
Mof_N 	N 	0.18755	0.3706	0.0178	-0.134
Mof_C 	C 	0.5454	0.6572	0.2269	-0.159
Mof_H 	H 	0.4755	0.6717	0.1366	0.004
Mof_H 	H 	0.4091	0.2318	0.8322	-0.01
Mof_C 	C 	0.3822	0.1753	0.7441	-0.18
Mof_C 	C 	0.2596	0.3087	0.6384	0.093
Mof_N 	N 	0.3027	0.2113	0.641	-0.145
Mof_H 	H 	0.3888	0.3815	0.6933	0
Mof_H 	H 	0.087	0.4495	0.8916	0.082
Mof_C 	C 	0.1423	0.3976	0.9808	0.086
Mof_C 	C 	0.2875	0.3307	0.1086	-0.11
Mof_N 	N 	0.27826	0.3243	0.9998	-0.141
Mof_H 	H 	0.5523	0.7036	0.2424	0.086
Mof_H 	H 	0.4092	0.1458	0.764	0.088
Mof_C 	C 	0.3416	0.1686	0.6735	0.101
Mof_C 	C 	0.2112	0.2822	0.5968	-0.177
Mof_N 	N 	0.2692	0.377	0.6376	-0.139
Mof_H 	H 	0.1253	0.3919	0.9993	0.008
Mof_C 	C 	0.3294	0.2886	0.1434	0.053
Mof_C 	C 	0.27563	0.3588	0.1554	0.323
Mof_C 	C 	0.3198	0.2868	0.0353	0.076
Mof_H 	H 	0.3412	0.1323	0.6469	-0.003
Mof_C 	C 	0.1729	0.327	0.5491	0.093
Mof_C 	C 	0.2025	0.2076	0.6064	0.465
Mof_C 	C 	0.2311	0.4183	0.5911	0.088
Mof_C 	C 	0.3463	0.2668	0.1066	-0.134
Mof_H 	H 	0.3458	0.2752	0.1909	0.017
Mof_H 	H 	0.3317	0.2733	0.0108	0.001
Mof_C 	C 	0.183	0.3962	0.5456	-0.16
Mof_H 	H 	0.1406	0.3107	0.5197	-0.005
Mof_H 	H 	0.2374	0.4654	0.5894	0.022
Mof_H 	H 	0.3745	0.2396	0.1288	0.077
Mof_H 	H 	0.1579	0.4271	0.5132	0.088
Mof_Gd	Gd	0.79376	0.90797	0.28224	1.797
Mof_O 	O 	0.86899	0.886	0.2939	-0.451
Mof_O 	O 	0.70272	0.9062	0.195	-0.418
Mof_O 	O 	0.76293	0.9615	0.3385	-0.578
Mof_O 	O 	0.85918	0.9336	0.40555	-0.59
Mof_O 	O 	0.81547	0.0257	0.295	-0.576
Mof_O 	O 	0.79167	0.8051	0.3361	-0.475
Mof_O 	O 	0.7758	0.92452	0.1638	-0.37
Mof_O 	O 	0.77218	0.8159	0.1931	-0.386
Mof_C 	C 	0.9077	0.9207	0.3229	0.461
Mof_C 	C 	0.6838	0.9663	0.1758	0.418
Mof_Gd	Gd	0.82432	0.95727	0.4648	1.609
Mof_Gd	Gd	0.75782	0.08608	0.30491	1.58
Mof_Gd	Gd	0.89485	0.04429	0.41263	1.578
Mof_C 	C 	0.9468	0.8945	0.3185	-0.176
Mof_O 	O 	0.91895	0.9754	0.3596	-0.499
Mof_C 	C 	0.6294	0.9745	0.1223	-0.172
Mof_O 	O 	0.70929	0.0224	0.1998	-0.494
Mof_O 	O 	0.76158	0.0239	0.4513	-0.496
Mof_O 	O 	0.83184	0.0662	0.42193	-0.641
Mof_O 	O 	0.90576	0.9204	0.5578	-0.475
Mof_O 	O 	0.81064	0.8354	0.4417	-0.479
Mof_O 	O 	0.79757	0.1702	0.2848	-0.485
Mof_O 	O 	0.70672	0.0737	0.3432	-0.456
Mof_O 	O 	0.87783	0.1469	0.3466	-0.499
Mof_O 	O 	0.9437	0.996	0.5345	-0.484
Mof_C 	C 	0.9543	0.823	0.3183	0.081
Mof_C 	C 	0.9806	0.9411	0.3235	0.092
Mof_C 	C 	0.6099	0.0397	0.093	0.077
Mof_C 	C 	0.5986	0.921	0.1041	0.075
Mof_C 	C 	0.7234	0.0578	0.4071	0.446
Mof_C 	C 	0.9432	0.9508	0.5737	0.434
Mof_C 	C 	0.8389	0.1784	0.2986	0.473
Mof_H 	H 	0.9323	0.7909	0.314	0
Mof_C 	C 	0.9949	0.7998	0.3248	-0.159
Mof_C 	C 	0.9718	0.0185	0.3112	0.101
Mof_N 	N 	0.02117	0.9183	0.3328	-0.141
Mof_H 	H 	0.6309	0.0777	0.1062	-0.001
Mof_C 	C 	0.5595	0.0492	0.0443	-0.136
Mof_C 	C 	0.5473	0.9306	0.0558	-0.135
Mof_H 	H 	0.6113	0.8768	0.1235	0.013
Mof_C 	C 	0.6936	0.0782	0.4306	-0.176
Mof_C 	C 	0.9915	0.9319	0.6441	-0.174
Mof_C 	C 	0.8412	0.2306	0.2536	-0.187
Mof_H 	H 	0.9999	0.7522	0.3225	0.078
Mof_C 	C 	0.0281	0.85	0.3348	0.079
Mof_N 	N 	0.92738	0.0382	0.2515	-0.14
Mof_H 	H 	0.5471	0.0931	0.0235	0.07
Mof_C 	C 	0.5272	0.9947	0.0257	0.052
Mof_H 	H 	0.5266	0.8927	0.0443	0.068
Mof_C 	C 	0.6456	0.0549	0.3916	0.092
Mof_C 	C 	0.713	0.1172	0.4932	0.104
Mof_C 	C 	0.9999	0.8618	0.6644	0.086
Mof_C 	C 	0.882	0.2739	0.2843	0.113
Mof_C 	C 	0.8027	0.2394	0.181	0.104
Mof_H 	H 	0.0568	0.8343	0.3433	0.002
Mof_C 	C 	0.9197	0.1053	0.2342	0.098
Mof_H 	H 	0.631	0.0314	0.3484	-0.001
Mof_C 	C 	0.6192	0.0664	0.4168	-0.163
Mof_C 	C 	0.7619	0.1537	0.5359	0.075
Mof_N 	N 	0.68755	0.1294	0.5178	-0.134
Mof_C 	C 	0.0454	0.8428	0.7269	-0.158
Mof_H 	H 	0.9755	0.8283	0.6366	0.004
Mof_H 	H 	0.9091	0.2682	0.3322	-0.01
Mof_C 	C 	0.8822	0.3247	0.2441	-0.18
Mof_C 	C 	0.7596	0.1913	0.1384	0.093
Mof_N 	N 	0.8027	0.2887	0.141	-0.145
Mof_H 	H 	0.8888	0.1185	0.1933	0.001
Mof_H 	H 	0.587	0.0505	0.3916	0.082
Mof_C 	C 	0.6423	0.1024	0.4808	0.086
Mof_C 	C 	0.7875	0.1693	0.6086	-0.109
Mof_N 	N 	0.77826	0.1757	0.4998	-0.14
Mof_H 	H 	0.0523	0.7964	0.7424	0.086
Mof_H 	H 	0.9092	0.3542	0.264	0.089
Mof_C 	C 	0.8416	0.3314	0.1735	0.101
Mof_C 	C 	0.7112	0.2178	0.0968	-0.177
Mof_N 	N 	0.7692	0.123	0.1376	-0.139
Mof_H 	H 	0.6253	0.1081	0.4993	0.008
Mof_C 	C 	0.8294	0.2114	0.6434	0.053
Mof_C 	C 	0.77563	0.1412	0.6554	0.323
Mof_C 	C 	0.8198	0.2132	0.5353	0.076
Mof_H 	H 	0.8412	0.3677	0.1469	-0.003
Mof_C 	C 	0.6729	0.173	0.0491	0.094
Mof_C 	C 	0.7025	0.2924	0.1064	0.465
Mof_C 	C 	0.7311	0.0817	0.0911	0.088
Mof_C 	C 	0.8463	0.2332	0.6066	-0.133
Mof_H 	H 	0.8458	0.2248	0.6909	0.017
Mof_H 	H 	0.8317	0.2267	0.5108	0.001
Mof_C 	C 	0.683	0.1038	0.0456	-0.16
Mof_H 	H 	0.6406	0.1893	0.0197	-0.005
Mof_H 	H 	0.7374	0.0346	0.0894	0.023
Mof_H 	H 	0.8745	0.2604	0.6288	0.077
Mof_H 	H 	0.6579	0.0729	0.0132	0.089
Mof_Gd	Gd	0.29376	0.40797	0.28224	1.797
Mof_O 	O 	0.36899	0.386	0.2939	-0.451
Mof_O 	O 	0.20272	0.4062	0.195	-0.418
Mof_O 	O 	0.26293	0.4615	0.3385	-0.578
Mof_O 	O 	0.35918	0.4336	0.40555	-0.59
Mof_O 	O 	0.31547	0.5257	0.295	-0.576
Mof_O 	O 	0.29167	0.3051	0.3361	-0.475
Mof_O 	O 	0.2758	0.42452	0.1638	-0.37
Mof_O 	O 	0.27218	0.3159	0.1931	-0.386
Mof_C 	C 	0.4077	0.4207	0.3229	0.461
Mof_C 	C 	0.1838	0.4663	0.1758	0.419
Mof_Gd	Gd	0.32432	0.45727	0.4648	1.609
Mof_Gd	Gd	0.25782	0.58608	0.30491	1.58
Mof_Gd	Gd	0.39485	0.54429	0.41263	1.578
Mof_C 	C 	0.4468	0.3945	0.3185	-0.176
Mof_O 	O 	0.41895	0.4754	0.3596	-0.499
Mof_C 	C 	0.1294	0.4745	0.1223	-0.171
Mof_O 	O 	0.20929	0.5224	0.1998	-0.495
Mof_O 	O 	0.26158	0.5239	0.4513	-0.496
Mof_O 	O 	0.33184	0.5662	0.42193	-0.641
Mof_O 	O 	0.40576	0.4204	0.5578	-0.475
Mof_O 	O 	0.31064	0.3354	0.4417	-0.479
Mof_O 	O 	0.29757	0.6702	0.2848	-0.485
Mof_O 	O 	0.20672	0.5737	0.3432	-0.457
Mof_O 	O 	0.37783	0.6469	0.3466	-0.499
Mof_O 	O 	0.4437	0.496	0.5345	-0.483
Mof_C 	C 	0.4543	0.323	0.3183	0.081
Mof_C 	C 	0.4806	0.4411	0.3235	0.093
Mof_C 	C 	0.1099	0.5397	0.093	0.075
Mof_C 	C 	0.0986	0.421	0.1041	0.075
Mof_C 	C 	0.2234	0.5578	0.4071	0.446
Mof_C 	C 	0.4432	0.4508	0.5737	0.434
Mof_C 	C 	0.3389	0.6784	0.2986	0.473
Mof_H 	H 	0.4323	0.2909	0.314	0
Mof_C 	C 	0.4949	0.2998	0.3248	-0.159
Mof_C 	C 	0.4718	0.5185	0.3112	0.1
Mof_N 	N 	0.52117	0.4183	0.3328	-0.141
Mof_H 	H 	0.1309	0.5777	0.1062	-0.001
Mof_C 	C 	0.0595	0.5492	0.0443	-0.138
Mof_C 	C 	0.0473	0.4306	0.0558	-0.135
Mof_H 	H 	0.1113	0.3768	0.1235	0.013
Mof_C 	C 	0.1936	0.5782	0.4306	-0.176
Mof_C 	C 	0.4915	0.4319	0.6441	-0.173
Mof_C 	C 	0.3412	0.7306	0.2536	-0.187
Mof_H 	H 	0.4999	0.2522	0.3225	0.078
Mof_C 	C 	0.5281	0.35	0.3348	0.079
Mof_N 	N 	0.42738	0.5382	0.2515	-0.14
Mof_H 	H 	0.0471	0.5931	0.0235	0.069
Mof_C 	C 	0.0272	0.4947	0.0257	0.053
Mof_H 	H 	0.0266	0.3927	0.0443	0.069
Mof_C 	C 	0.1456	0.5549	0.3916	0.092
Mof_C 	C 	0.213	0.6172	0.4932	0.104
Mof_C 	C 	0.4999	0.3618	0.6644	0.087
Mof_C 	C 	0.382	0.7739	0.2843	0.113
Mof_C 	C 	0.3027	0.7394	0.181	0.104
Mof_H 	H 	0.5568	0.3343	0.3433	0.002
Mof_C 	C 	0.4197	0.6053	0.2342	0.098
Mof_H 	H 	0.131	0.5314	0.3484	-0.001
Mof_C 	C 	0.1192	0.5664	0.4168	-0.163
Mof_C 	C 	0.2619	0.6537	0.5359	0.075
Mof_N 	N 	0.18755	0.6294	0.5178	-0.135
Mof_C 	C 	0.5454	0.3428	0.7269	-0.159
Mof_H 	H 	0.4755	0.3283	0.6366	0.004
Mof_H 	H 	0.4091	0.7682	0.3322	-0.01
Mof_C 	C 	0.3822	0.8247	0.2441	-0.18
Mof_C 	C 	0.2596	0.6913	0.1384	0.093
Mof_N 	N 	0.3027	0.7887	0.141	-0.145
Mof_H 	H 	0.3888	0.6185	0.1933	0
Mof_H 	H 	0.087	0.5505	0.3916	0.081
Mof_C 	C 	0.1423	0.6024	0.4808	0.086
Mof_C 	C 	0.2875	0.6693	0.6086	-0.109
Mof_N 	N 	0.27826	0.6757	0.4998	-0.14
Mof_H 	H 	0.5523	0.2964	0.7424	0.086
Mof_H 	H 	0.4092	0.8542	0.264	0.088
Mof_C 	C 	0.3416	0.8314	0.1735	0.101
Mof_C 	C 	0.2112	0.7178	0.0968	-0.177
Mof_N 	N 	0.2692	0.623	0.1376	-0.139
Mof_H 	H 	0.1253	0.6081	0.4993	0.008
Mof_C 	C 	0.3294	0.7114	0.6434	0.053
Mof_C 	C 	0.27563	0.6412	0.6554	0.323
Mof_C 	C 	0.3198	0.7132	0.5353	0.076
Mof_H 	H 	0.3412	0.8677	0.1469	-0.003
Mof_C 	C 	0.1729	0.673	0.0491	0.093
Mof_C 	C 	0.2025	0.7924	0.1064	0.465
Mof_C 	C 	0.2311	0.5817	0.0911	0.088
Mof_C 	C 	0.3463	0.7332	0.6066	-0.133
Mof_H 	H 	0.3458	0.7248	0.6909	0.017
Mof_H 	H 	0.3317	0.7267	0.5108	0.001
Mof_C 	C 	0.183	0.6038	0.0456	-0.16
Mof_H 	H 	0.1406	0.6893	0.0197	-0.005
Mof_H 	H 	0.2374	0.5346	0.0894	0.022
Mof_H 	H 	0.3745	0.7604	0.6288	0.077
Mof_H 	H 	0.1579	0.5729	0.0132	0.088
Mof_Gd	Gd	0.20624	0.90797	0.21776	1.797
Mof_O 	O 	0.13101	0.886	0.2061	-0.451
Mof_O 	O 	0.29728	0.9062	0.305	-0.418
Mof_O 	O 	0.23707	0.9615	0.1615	-0.578
Mof_O 	O 	0.14082	0.9336	0.09445	-0.591
Mof_O 	O 	0.18453	0.0257	0.205	-0.576
Mof_O 	O 	0.20833	0.8051	0.1639	-0.475
Mof_O 	O 	0.2242	0.92452	0.3362	-0.37
Mof_O 	O 	0.22782	0.8159	0.3069	-0.386
Mof_C 	C 	0.0923	0.9207	0.1771	0.461
Mof_C 	C 	0.3162	0.9663	0.3242	0.419
Mof_Gd	Gd	0.17568	0.95727	0.0352	1.606
Mof_Gd	Gd	0.24218	0.08608	0.19509	1.58
Mof_Gd	Gd	0.10515	0.04429	0.08737	1.579
Mof_C 	C 	0.0532	0.8945	0.1815	-0.177
Mof_O 	O 	0.08105	0.9754	0.1404	-0.5
Mof_C 	C 	0.3706	0.9745	0.3777	-0.171
Mof_O 	O 	0.29071	0.0224	0.3002	-0.494
Mof_O 	O 	0.23842	0.0239	0.0487	-0.495
Mof_O 	O 	0.16816	0.0662	0.07807	-0.64
Mof_O 	O 	0.09424	0.9204	0.9422	-0.474
Mof_O 	O 	0.18936	0.8354	0.0583	-0.479
Mof_O 	O 	0.20243	0.1702	0.2152	-0.485
Mof_O 	O 	0.29328	0.0737	0.1568	-0.456
Mof_O 	O 	0.12217	0.1469	0.1534	-0.499
Mof_O 	O 	0.0563	0.996	0.9655	-0.482
Mof_C 	C 	0.0457	0.823	0.1817	0.081
Mof_C 	C 	0.0194	0.9411	0.1765	0.091
Mof_C 	C 	0.3901	0.0397	0.407	0.076
Mof_C 	C 	0.4014	0.921	0.3959	0.075
Mof_C 	C 	0.2766	0.0578	0.0929	0.446
Mof_C 	C 	0.0568	0.9508	0.9263	0.434
Mof_C 	C 	0.1611	0.1784	0.2014	0.473
Mof_H 	H 	0.0677	0.7909	0.186	0
Mof_C 	C 	0.0051	0.7998	0.1752	-0.16
Mof_C 	C 	0.0282	0.0185	0.1888	0.101
Mof_N 	N 	0.97883	0.9183	0.1672	-0.141
Mof_H 	H 	0.3691	0.0777	0.3938	-0.001
Mof_C 	C 	0.4405	0.0492	0.4557	-0.138
Mof_C 	C 	0.4527	0.9306	0.4442	-0.135
Mof_H 	H 	0.3887	0.8768	0.3765	0.013
Mof_C 	C 	0.3064	0.0782	0.0694	-0.177
Mof_C 	C 	0.0085	0.9319	0.8559	-0.173
Mof_C 	C 	0.1588	0.2306	0.2464	-0.187
Mof_H 	H 	0.0001	0.7522	0.1775	0.078
Mof_C 	C 	0.9719	0.85	0.1652	0.08
Mof_N 	N 	0.07262	0.0382	0.2485	-0.14
Mof_H 	H 	0.4529	0.0931	0.4765	0.07
Mof_C 	C 	0.4728	0.9947	0.4743	0.053
Mof_H 	H 	0.4734	0.8927	0.4557	0.069
Mof_C 	C 	0.3544	0.0549	0.1084	0.093
Mof_C 	C 	0.287	0.1172	0.0068	0.106
Mof_C 	C 	0.0001	0.8618	0.8356	0.087
Mof_C 	C 	0.118	0.2739	0.2157	0.113
Mof_C 	C 	0.1973	0.2394	0.319	0.104
Mof_H 	H 	0.9432	0.8343	0.1567	0.002
Mof_C 	C 	0.0803	0.1053	0.2658	0.099
Mof_H 	H 	0.369	0.0314	0.1516	-0.001
Mof_C 	C 	0.3808	0.0664	0.0832	-0.164
Mof_C 	C 	0.2381	0.1537	0.9641	0.073
Mof_N 	N 	0.31245	0.1294	0.9822	-0.136
Mof_C 	C 	0.9546	0.8428	0.7731	-0.159
Mof_H 	H 	0.0245	0.8283	0.8634	0.004
Mof_H 	H 	0.0909	0.2682	0.1678	-0.01
Mof_C 	C 	0.1178	0.3247	0.2559	-0.18
Mof_C 	C 	0.2404	0.1913	0.3616	0.093
Mof_N 	N 	0.1973	0.2887	0.359	-0.145
Mof_H 	H 	0.1112	0.1185	0.3067	0
Mof_H 	H 	0.413	0.0505	0.1084	0.082
Mof_C 	C 	0.3577	0.1024	0.0192	0.087
Mof_C 	C 	0.2125	0.1693	0.8914	-0.109
Mof_N 	N 	0.22174	0.1757	0.0002	-0.139
Mof_H 	H 	0.9477	0.7964	0.7576	0.086
Mof_H 	H 	0.0908	0.3542	0.236	0.088
Mof_C 	C 	0.1584	0.3314	0.3265	0.101
Mof_C 	C 	0.2888	0.2178	0.4032	-0.177
Mof_N 	N 	0.2308	0.123	0.3624	-0.139
Mof_H 	H 	0.3747	0.1081	0.0007	0.008
Mof_C 	C 	0.1706	0.2114	0.8566	0.052
Mof_C 	C 	0.22437	0.1412	0.8446	0.322
Mof_C 	C 	0.1802	0.2132	0.9647	0.074
Mof_H 	H 	0.1588	0.3677	0.3531	-0.003
Mof_C 	C 	0.3271	0.173	0.4509	0.093
Mof_C 	C 	0.2975	0.2924	0.3936	0.465
Mof_C 	C 	0.2689	0.0817	0.4089	0.088
Mof_C 	C 	0.1537	0.2332	0.8934	-0.132
Mof_H 	H 	0.1542	0.2248	0.8091	0.018
Mof_H 	H 	0.1683	0.2267	0.9892	0.001
Mof_C 	C 	0.317	0.1038	0.4544	-0.16
Mof_H 	H 	0.3594	0.1893	0.4803	-0.005
Mof_H 	H 	0.2626	0.0346	0.4106	0.022
Mof_H 	H 	0.1255	0.2604	0.8712	0.076
Mof_H 	H 	0.3421	0.0729	0.4868	0.088
Mof_Gd	Gd	0.70624	0.40797	0.21776	1.797
Mof_O 	O 	0.63101	0.386	0.2061	-0.451
Mof_O 	O 	0.79728	0.4062	0.305	-0.418
Mof_O 	O 	0.73707	0.4615	0.1615	-0.578
Mof_O 	O 	0.64082	0.4336	0.09445	-0.59
Mof_O 	O 	0.68453	0.5257	0.205	-0.576
Mof_O 	O 	0.70833	0.3051	0.1639	-0.475
Mof_O 	O 	0.7242	0.42452	0.3362	-0.37
Mof_O 	O 	0.72782	0.3159	0.3069	-0.386
Mof_C 	C 	0.5923	0.4207	0.1771	0.461
Mof_C 	C 	0.8162	0.4663	0.3242	0.419
Mof_Gd	Gd	0.67568	0.45727	0.0352	1.61
Mof_Gd	Gd	0.74218	0.58608	0.19509	1.58
Mof_Gd	Gd	0.60515	0.54429	0.08737	1.578
Mof_C 	C 	0.5532	0.3945	0.1815	-0.176
Mof_O 	O 	0.58105	0.4754	0.1404	-0.499
Mof_C 	C 	0.8706	0.4745	0.3777	-0.171
Mof_O 	O 	0.79071	0.5224	0.3002	-0.495
Mof_O 	O 	0.73842	0.5239	0.0487	-0.496
Mof_O 	O 	0.66816	0.5662	0.07807	-0.641
Mof_O 	O 	0.59424	0.4204	0.9422	-0.475
Mof_O 	O 	0.68936	0.3354	0.0583	-0.479
Mof_O 	O 	0.70243	0.6702	0.2152	-0.485
Mof_O 	O 	0.79328	0.5737	0.1568	-0.457
Mof_O 	O 	0.62217	0.6469	0.1534	-0.499
Mof_O 	O 	0.5563	0.496	0.9655	-0.483
Mof_C 	C 	0.5457	0.323	0.1817	0.081
Mof_C 	C 	0.5194	0.4411	0.1765	0.093
Mof_C 	C 	0.8901	0.5397	0.407	0.075
Mof_C 	C 	0.9014	0.421	0.3959	0.075
Mof_C 	C 	0.7766	0.5578	0.0929	0.446
Mof_C 	C 	0.5568	0.4508	0.9263	0.434
Mof_C 	C 	0.6611	0.6784	0.2014	0.473
Mof_H 	H 	0.5677	0.2909	0.186	0
Mof_C 	C 	0.5051	0.2998	0.1752	-0.159
Mof_C 	C 	0.5282	0.5185	0.1888	0.1
Mof_N 	N 	0.47883	0.4183	0.1672	-0.141
Mof_H 	H 	0.8691	0.5777	0.3938	-0.001
Mof_C 	C 	0.9405	0.5492	0.4557	-0.138
Mof_C 	C 	0.9527	0.4306	0.4442	-0.135
Mof_H 	H 	0.8887	0.3768	0.3765	0.013
Mof_C 	C 	0.8064	0.5782	0.0694	-0.176
Mof_C 	C 	0.5085	0.4319	0.8559	-0.174
Mof_C 	C 	0.6588	0.7306	0.2464	-0.187
Mof_H 	H 	0.5001	0.2522	0.1775	0.078
Mof_C 	C 	0.4719	0.35	0.1652	0.079
Mof_N 	N 	0.57262	0.5382	0.2485	-0.14
Mof_H 	H 	0.9529	0.5931	0.4765	0.07
Mof_C 	C 	0.9728	0.4947	0.4743	0.053
Mof_H 	H 	0.9734	0.3927	0.4557	0.069
Mof_C 	C 	0.8544	0.5549	0.1084	0.092
Mof_C 	C 	0.787	0.6172	0.0068	0.103
Mof_C 	C 	0.5001	0.3618	0.8356	0.087
Mof_C 	C 	0.618	0.7739	0.2157	0.113
Mof_C 	C 	0.6973	0.7394	0.319	0.104
Mof_H 	H 	0.4432	0.3343	0.1567	0.002
Mof_C 	C 	0.5803	0.6053	0.2658	0.098
Mof_H 	H 	0.869	0.5314	0.1516	-0.001
Mof_C 	C 	0.8808	0.5664	0.0832	-0.163
Mof_C 	C 	0.7381	0.6537	0.9641	0.075
Mof_N 	N 	0.81245	0.6294	0.9822	-0.134
Mof_C 	C 	0.4546	0.3428	0.7731	-0.159
Mof_H 	H 	0.5245	0.3283	0.8634	0.004
Mof_H 	H 	0.5909	0.7682	0.1678	-0.01
Mof_C 	C 	0.6178	0.8247	0.2559	-0.18
Mof_C 	C 	0.7404	0.6913	0.3616	0.093
Mof_N 	N 	0.6973	0.7887	0.359	-0.145
Mof_H 	H 	0.6112	0.6185	0.3067	0
Mof_H 	H 	0.913	0.5505	0.1084	0.082
Mof_C 	C 	0.8577	0.6024	0.0192	0.086
Mof_C 	C 	0.7125	0.6693	0.8914	-0.11
Mof_N 	N 	0.72174	0.6757	0.0002	-0.141
Mof_H 	H 	0.4477	0.2964	0.7576	0.086
Mof_H 	H 	0.5908	0.8542	0.236	0.088
Mof_C 	C 	0.6584	0.8314	0.3265	0.101
Mof_C 	C 	0.7888	0.7178	0.4032	-0.177
Mof_N 	N 	0.7308	0.623	0.3624	-0.139
Mof_H 	H 	0.8747	0.6081	0.0007	0.008
Mof_C 	C 	0.6706	0.7114	0.8566	0.053
Mof_C 	C 	0.72437	0.6412	0.8446	0.323
Mof_C 	C 	0.6802	0.7132	0.9647	0.076
Mof_H 	H 	0.6588	0.8677	0.3531	-0.003
Mof_C 	C 	0.8271	0.673	0.4509	0.093
Mof_C 	C 	0.7975	0.7924	0.3936	0.465
Mof_C 	C 	0.7689	0.5817	0.4089	0.088
Mof_C 	C 	0.6537	0.7332	0.8934	-0.134
Mof_H 	H 	0.6542	0.7248	0.8091	0.017
Mof_H 	H 	0.6683	0.7267	0.9892	0.001
Mof_C 	C 	0.817	0.6038	0.4544	-0.16
Mof_H 	H 	0.8594	0.6893	0.4803	-0.005
Mof_H 	H 	0.7626	0.5346	0.4106	0.022
Mof_H 	H 	0.6255	0.7604	0.8712	0.077
Mof_H 	H 	0.8421	0.5729	0.4868	0.088
_end
