data_functionalizedCrystal
_audit_creation_method	'EQeq! by Chris Wilmer'
_symmetry_space_group_name_H-M	'P1'
_symmetry_Int_Tables_number	1
_symmetry_cell_setting	triclinic
loop_
_symmetry_equiv_pos_as_xyz
  x,y,z
_cell_length_a	15.482
_cell_length_b	15.482
_cell_length_c	40.32
_cell_angle_alpha	90
_cell_angle_beta	90
_cell_angle_gamma	120
loop_
_atom_site_label
_atom_site_type_symbol
_atom_site_fract_x
_atom_site_fract_y
_atom_site_fract_z
_atom_site_charge
Mof_O 	O 	0.0334	0.1595	0.0766	-0.503
Mof_O 	O 	0.9973	0.165	0.1287	-0.536
Mof_O 	O 	0.7506	0.0522	0.1291	-0.538
Mof_O 	O 	0.8285	0.1712	0.1674	-0.54
Mof_C 	C 	0.0489	0.1502	0.1052	0.381
Mof_C 	C 	0.1206	0.1217	0.1178	-0.203
Mof_C 	C 	0.1276	0.1002	0.1508	0.156
Mof_H 	H 	0.09	0.1095	0.1668	-0.024
Mof_C 	C 	0.191	0.0648	0.1598	-0.248
Mof_H 	H 	0.1956	0.0504	0.1819	0.129
Mof_C 	C 	0.2473	0.0508	0.1358	0.198
Mof_C 	C 	0.2403	0.0723	0.1028	-0.209
Mof_H 	H 	0.278	0.063	0.0867	0.205
Mof_C 	C 	0.177	0.1078	0.0937	0.128
Mof_H 	H 	0.1723	0.1221	0.0716	-0.001
Mof_O 	O 	0.2889	0.965	0.1773	-0.239
Mof_C 	C 	0.3087	0.0062	0.15	0.505
Mof_C 	C 	0.3962	0.012	0.13	1.793
Mof_C 	C 	0.4893	0.0929	0.1224	2.396
Mof_H 	H 	0.5084	0.1555	0.1312	-0.75
Mof_C 	C 	0.554	0.0802	0.1018	-3.489
Mof_H 	H 	0.6164	0.1342	0.0968	0.119
Mof_C 	C 	0.5256	0.987	0.0887	0.16
Mof_C 	C 	0.432	0.9059	0.0962	0.277
Mof_H 	H 	0.4134	0.8433	0.0875	0.013
Mof_C 	C 	0.3677	0.9186	0.1168	1.124
Mof_H 	H 	0.3054	0.8646	0.1219	-0.224
Mof_C 	C 	0.6034	0.9807	0.0668	0.019
Mof_O 	O 	0.5716	0.8967	0.0554	-0.264
Mof_O 	O 	0.686	0.0548	0.0626	-0.279
Mof_O 	O 	0.2781	0.9241	0.1571	-0.176
Mof_C 	C 	0.3054	0.9949	0.1371	-0.52
Mof_C 	C 	0.3953	0.0234	0.1147	-2.694
Mof_C 	C 	0.4589	0.1244	0.1087	-0.541
Mof_H 	H 	0.4406	0.1706	0.1153	0.303
Mof_C 	C 	0.55	0.1563	0.0931	0.26
Mof_H 	H 	0.5926	0.2239	0.0892	-0.067
Mof_C 	C 	0.5775	0.0873	0.0834	2.841
Mof_C 	C 	0.5139	0.9863	0.0893	-0.015
Mof_H 	H 	0.5322	0.9401	0.0828	-0.059
Mof_C 	C 	0.4228	0.9543	0.1049	0.044
Mof_H 	H 	0.3802	0.8867	0.1089	-0.675
Mof_C 	C 	0.6819	0.1178	0.07	-0.703
Mof_O 	O 	0.684	0.0454	0.0586	0.006
Mof_O 	O 	0.7405	0.207	0.0736	-0.074
Mof_C 	C 	0.756	0.088	0.1569	0.513
Mof_C 	C 	0.6764	0.0325	0.1829	-0.253
Mof_C 	C 	0.6843	0.0717	0.2145	0.159
Mof_H 	H 	0.7409	0.1311	0.2204	-0.012
Mof_C 	C 	0.6076	0.022	0.2373	-0.26
Mof_H 	H 	0.6129	0.0483	0.2584	0.109
Mof_C 	C 	0.523	0.9332	0.2285	0.172
Mof_C 	C 	0.5151	0.894	0.1969	-0.242
Mof_H 	H 	0.4585	0.8345	0.191	0.119
Mof_C 	C 	0.5918	0.9436	0.1741	0.175
Mof_H 	H 	0.5865	0.9174	0.153	-0.007
Mof_N 	N 	0.0946	0.4992	0.1701	-0.212
Mof_C 	C 	0.1982	0.5482	0.1711	-0.017
Mof_H 	H 	0.231	0.5117	0.1714	0.036
Mof_C 	C 	0.2528	0.6518	0.1717	-0
Mof_H 	H 	0.3221	0.6846	0.1723	0.036
Mof_C 	C 	0.2038	0.7064	0.1713	-0.155
Mof_H 	H 	0.2403	0.7758	0.1717	0.111
Mof_C 	C 	0.1002	0.6574	0.1703	0.168
Mof_C 	C 	0.0456	0.5538	0.1697	-0.129
Mof_C 	C 	0.0464	0.708	0.1698	-0.268
Mof_H 	H 	0.0789	0.7761	0.1741	0.151
Mof_O 	O 	0.8405	0.8739	0.74327	-0.47
Mof_O 	O 	0.835	0.8323	0.79537	-0.566
Mof_O 	O 	0.9478	0.6984	0.79577	-0.504
Mof_O 	O 	0.8288	0.6573	0.83407	-0.539
Mof_C 	C 	0.8498	0.8987	0.77187	0.37
Mof_C 	C 	0.8783	0.9989	0.78447	-0.054
Mof_C 	C 	0.8998	0.0274	0.81747	-0.032
Mof_H 	H 	0.8905	0.9805	0.83347	0.065
Mof_C 	C 	0.9352	0.1262	0.82647	-0.114
Mof_H 	H 	0.9496	0.1452	0.84857	0.098
Mof_C 	C 	0.9492	0.1965	0.80247	0.141
Mof_C 	C 	0.9277	0.168	0.76947	-0.138
Mof_H 	H 	0.937	0.215	0.75337	0.168
Mof_C 	C 	0.8922	0.0692	0.76037	0.017
Mof_H 	H 	0.8779	0.0502	0.73827	0.035
Mof_O 	O 	0.035	0.3239	0.84397	-0.134
Mof_C 	C 	0.9938	0.3025	0.81667	0.003
Mof_C 	C 	0.988	0.3842	0.79667	1.483
Mof_C 	C 	0.9071	0.3964	0.78907	2.086
Mof_H 	H 	0.8445	0.3529	0.79787	-0.629
Mof_C 	C 	0.9198	0.4738	0.76847	-2.909
Mof_H 	H 	0.8658	0.4822	0.76347	0.066
Mof_C 	C 	0.013	0.5386	0.75537	0.076
Mof_C 	C 	0.0941	0.5261	0.76287	0.38
Mof_H 	H 	0.1567	0.5701	0.75417	-0.04
Mof_C 	C 	0.0814	0.4491	0.78347	0.867
Mof_H 	H 	0.1354	0.4408	0.78857	-0.169
Mof_C 	C 	0.0193	0.6227	0.73347	-0.021
Mof_O 	O 	0.1033	0.6749	0.72207	-0.27
Mof_O 	O 	0.9452	0.6312	0.72927	-0.251
Mof_O 	O 	0.0759	0.354	0.82377	-0.208
Mof_C 	C 	0.0051	0.3105	0.80377	-0.009
Mof_C 	C 	0.9766	0.3719	0.78137	-2.209
Mof_C 	C 	0.8756	0.3345	0.77537	-0.535
Mof_H 	H 	0.8294	0.27	0.78197	0.29
Mof_C 	C 	0.8437	0.3937	0.75977	0.187
Mof_H 	H 	0.7761	0.3687	0.75587	-0.034
Mof_C 	C 	0.9127	0.4902	0.75007	2.485
Mof_C 	C 	0.0137	0.5276	0.75597	-0.086
Mof_H 	H 	0.0599	0.5921	0.74947	-0.002
Mof_C 	C 	0.0457	0.4685	0.77157	-0.066
Mof_H 	H 	0.1133	0.4935	0.77557	-0.547
Mof_C 	C 	0.8822	0.5641	0.73667	-0.572
Mof_O 	O 	0.9546	0.6386	0.72527	-0.019
Mof_O 	O 	0.793	0.5335	0.74027	-0.12
Mof_C 	C 	0.912	0.668	0.82357	0.455
Mof_C 	C 	0.9675	0.6439	0.84957	-0.055
Mof_C 	C 	0.9283	0.6126	0.88117	-0.027
Mof_H 	H 	0.8689	0.6098	0.88707	0.054
Mof_C 	C 	0.978	0.5856	0.90397	0
Mof_H 	H 	0.9517	0.5646	0.92507	0.039
Mof_C 	C 	0.0668	0.5898	0.89517	-0.065
Mof_C 	C 	0.106	0.6211	0.86357	-0.038
Mof_H 	H 	0.1655	0.624	0.85767	0.047
Mof_C 	C 	0.0564	0.6482	0.84077	-0.065
Mof_H 	H 	0.0826	0.6691	0.81967	0.063
Mof_N 	N 	0.5008	0.5954	0.83677	-0.235
Mof_C 	C 	0.4518	0.65	0.83777	0.02
Mof_H 	H 	0.4883	0.7193	0.83807	0.023
Mof_C 	C 	0.3482	0.601	0.83837	-0.062
Mof_H 	H 	0.3154	0.6375	0.83897	0.06
Mof_C 	C 	0.2936	0.4974	0.83797	-0.061
Mof_H 	H 	0.2242	0.4645	0.83837	0.074
Mof_C 	C 	0.3426	0.4428	0.83697	0.03
Mof_C 	C 	0.4462	0.4918	0.83637	0.001
Mof_C 	C 	0.292	0.3384	0.83647	-0.045
Mof_H 	H 	0.2239	0.3028	0.84077	0.07
Mof_O 	O 	0.1261	0.9666	0.40993	-0.507
Mof_O 	O 	0.1677	0.0027	0.46203	-0.613
Mof_O 	O 	0.3016	0.2494	0.46243	-0.518
Mof_O 	O 	0.3427	0.1715	0.50073	-0.54
Mof_C 	C 	0.1013	0.9511	0.43853	0.511
Mof_C 	C 	0.0011	0.8794	0.45113	-0.388
Mof_C 	C 	0.9726	0.8724	0.48413	0.398
Mof_H 	H 	0.0195	0.91	0.50013	-0.112
Mof_C 	C 	0.8738	0.809	0.49313	-0.382
Mof_H 	H 	0.8548	0.8044	0.51523	0.194
Mof_C 	C 	0.8035	0.7527	0.46913	0.304
Mof_C 	C 	0.832	0.7597	0.43613	-0.333
Mof_H 	H 	0.785	0.722	0.42003	0.247
Mof_C 	C 	0.9308	0.823	0.42703	0.308
Mof_H 	H 	0.9498	0.8277	0.40493	-0.044
Mof_O 	O 	0.6761	0.7111	0.51063	-0.186
Mof_C 	C 	0.6975	0.6913	0.48333	0.237
Mof_C 	C 	0.6158	0.6038	0.46333	1.644
Mof_C 	C 	0.6036	0.5107	0.45573	2.256
Mof_H 	H 	0.6471	0.4916	0.46453	-0.691
Mof_C 	C 	0.5262	0.446	0.43513	-3.218
Mof_H 	H 	0.5178	0.3836	0.43013	0.093
Mof_C 	C 	0.4614	0.4744	0.42203	0.122
Mof_C 	C 	0.4739	0.568	0.42953	0.331
Mof_H 	H 	0.4299	0.5866	0.42083	-0.014
Mof_C 	C 	0.5509	0.6323	0.45013	0.992
Mof_H 	H 	0.5592	0.6946	0.45523	-0.193
Mof_C 	C 	0.3773	0.3966	0.40013	-0.003
Mof_O 	O 	0.3251	0.4284	0.38873	-0.271
Mof_O 	O 	0.3688	0.314	0.39593	-0.273
Mof_O 	O 	0.646	0.7219	0.49043	-0.174
Mof_C 	C 	0.6895	0.6946	0.47043	-0.287
Mof_C 	C 	0.6281	0.6047	0.44803	-2.445
Mof_C 	C 	0.6655	0.5411	0.44203	-0.563
Mof_H 	H 	0.73	0.5594	0.44863	0.306
Mof_C 	C 	0.6063	0.45	0.42643	0.239
Mof_H 	H 	0.6313	0.4074	0.42253	-0.058
Mof_C 	C 	0.5098	0.4225	0.41673	2.668
Mof_C 	C 	0.4724	0.4861	0.42263	-0.047
Mof_H 	H 	0.4079	0.4678	0.41613	-0.033
Mof_C 	C 	0.5315	0.5772	0.43823	-0.017
Mof_H 	H 	0.5065	0.6198	0.44223	-0.607
Mof_C 	C 	0.4359	0.3181	0.40333	-0.63
Mof_O 	O 	0.3614	0.316	0.39193	-0.008
Mof_O 	O 	0.4665	0.2595	0.40693	-0.109
Mof_C 	C 	0.332	0.244	0.49023	0.483
Mof_C 	C 	0.3561	0.3236	0.51623	-0.154
Mof_C 	C 	0.3874	0.3157	0.54783	0.066
Mof_H 	H 	0.3902	0.2591	0.55373	0.02
Mof_C 	C 	0.4144	0.3924	0.57063	-0.129
Mof_H 	H 	0.4354	0.3871	0.59173	0.073
Mof_C 	C 	0.4102	0.477	0.56183	0.053
Mof_C 	C 	0.3789	0.4849	0.53023	-0.139
Mof_H 	H 	0.376	0.5415	0.52433	0.082
Mof_C 	C 	0.3518	0.4082	0.50743	0.054
Mof_H 	H 	0.3309	0.4135	0.48633	0.026
Mof_N 	N 	0.4046	0.9054	0.50343	-0.249
Mof_C 	C 	0.35	0.8018	0.50443	0.055
Mof_H 	H 	0.2807	0.769	0.50473	0.014
Mof_C 	C 	0.399	0.7472	0.50503	-0.119
Mof_H 	H 	0.3625	0.6779	0.50563	0.079
Mof_C 	C 	0.5026	0.7962	0.50463	0.031
Mof_H 	H 	0.5355	0.7597	0.50503	0.044
Mof_C 	C 	0.5572	0.8998	0.50363	-0.101
Mof_C 	C 	0.5082	0.9544	0.50303	0.131
Mof_C 	C 	0.6616	0.9536	0.50313	0.175
Mof_H 	H 	0.6972	0.9211	0.50743	0.007
Mof_O 	O 	0.9666	0.8405	0.5766	-0.482
Mof_O 	O 	0.0027	0.835	0.6287	-0.602
Mof_O 	O 	0.2494	0.9478	0.6291	-0.501
Mof_O 	O 	0.1715	0.8288	0.6674	-0.532
Mof_C 	C 	0.9511	0.8498	0.6052	0.457
Mof_C 	C 	0.8794	0.8783	0.6178	-0.221
Mof_C 	C 	0.8724	0.8998	0.6508	0.184
Mof_H 	H 	0.91	0.8905	0.6668	-0.019
Mof_C 	C 	0.809	0.9352	0.6598	-0.243
Mof_H 	H 	0.8044	0.9496	0.6819	0.149
Mof_C 	C 	0.7527	0.9492	0.6358	0.227
Mof_C 	C 	0.7597	0.9277	0.6028	-0.24
Mof_H 	H 	0.722	0.937	0.5867	0.207
Mof_C 	C 	0.823	0.8922	0.5937	0.168
Mof_H 	H 	0.8277	0.8779	0.5716	-0.004
Mof_O 	O 	0.7111	0.035	0.6773	-0.134
Mof_C 	C 	0.6913	0.9938	0.65	-0.004
Mof_C 	C 	0.6038	0.988	0.63	1.483
Mof_C 	C 	0.5107	0.9071	0.6224	2.089
Mof_H 	H 	0.4916	0.8445	0.6312	-0.628
Mof_C 	C 	0.446	0.9198	0.6018	-2.912
Mof_H 	H 	0.3836	0.8658	0.5968	0.067
Mof_C 	C 	0.4744	0.013	0.5887	0.078
Mof_C 	C 	0.568	0.0941	0.5962	0.381
Mof_H 	H 	0.5866	0.1567	0.5875	-0.04
Mof_C 	C 	0.6323	0.0814	0.6168	0.863
Mof_H 	H 	0.6946	0.1354	0.6219	-0.166
Mof_C 	C 	0.3966	0.0193	0.5668	-0.019
Mof_O 	O 	0.4284	0.1033	0.5554	-0.27
Mof_O 	O 	0.314	0.9452	0.5626	-0.252
Mof_O 	O 	0.7219	0.0759	0.6571	-0.195
Mof_C 	C 	0.6946	0.0051	0.6371	-0.026
Mof_C 	C 	0.6047	0.9766	0.6147	-2.199
Mof_C 	C 	0.5411	0.8756	0.6087	-0.549
Mof_H 	H 	0.5594	0.8294	0.6153	0.295
Mof_C 	C 	0.45	0.8437	0.5931	0.196
Mof_H 	H 	0.4074	0.7761	0.5892	-0.038
Mof_C 	C 	0.4225	0.9127	0.5834	2.481
Mof_C 	C 	0.4861	0.0137	0.5893	-0.083
Mof_H 	H 	0.4678	0.0599	0.5828	-0.004
Mof_C 	C 	0.5772	0.0457	0.6049	-0.07
Mof_H 	H 	0.6198	0.1133	0.6089	-0.544
Mof_C 	C 	0.3181	0.8822	0.57	-0.566
Mof_O 	O 	0.316	0.9546	0.5586	-0.021
Mof_O 	O 	0.2595	0.793	0.5736	-0.128
Mof_C 	C 	0.244	0.912	0.6569	0.452
Mof_C 	C 	0.3236	0.9675	0.6829	-0.055
Mof_C 	C 	0.3157	0.9283	0.7145	-0.026
Mof_H 	H 	0.2591	0.8689	0.7204	0.053
Mof_C 	C 	0.3924	0.978	0.7373	-0.001
Mof_H 	H 	0.3871	0.9517	0.7584	0.038
Mof_C 	C 	0.477	0.0668	0.7285	-0.063
Mof_C 	C 	0.4849	0.106	0.6969	-0.039
Mof_H 	H 	0.5415	0.1655	0.691	0.047
Mof_C 	C 	0.4082	0.0564	0.6741	-0.064
Mof_H 	H 	0.4135	0.0826	0.653	0.061
Mof_N 	N 	0.9054	0.5008	0.6701	-0.249
Mof_C 	C 	0.8018	0.4518	0.6711	0.055
Mof_H 	H 	0.769	0.4883	0.6714	0.013
Mof_C 	C 	0.7472	0.3482	0.6717	-0.121
Mof_H 	H 	0.6779	0.3154	0.6723	0.081
Mof_C 	C 	0.7962	0.2936	0.6713	0.032
Mof_H 	H 	0.7597	0.2242	0.6717	0.041
Mof_C 	C 	0.8998	0.3426	0.6703	-0.105
Mof_C 	C 	0.9544	0.4462	0.6697	0.133
Mof_C 	C 	0.9536	0.292	0.6698	0.178
Mof_H 	H 	0.9211	0.2239	0.6741	-0
Mof_O 	O 	0.1595	0.1261	0.24327	-0.518
Mof_O 	O 	0.165	0.1677	0.29537	-0.588
Mof_O 	O 	0.0522	0.3016	0.29577	-0.539
Mof_O 	O 	0.1712	0.3427	0.33407	-0.555
Mof_C 	C 	0.1502	0.1013	0.27187	0.476
Mof_C 	C 	0.1217	0.0011	0.28447	-0.378
Mof_C 	C 	0.1002	0.9726	0.31747	0.383
Mof_H 	H 	0.1095	0.0195	0.33347	-0.114
Mof_C 	C 	0.0648	0.8738	0.32647	-0.384
Mof_H 	H 	0.0504	0.8548	0.34857	0.183
Mof_C 	C 	0.0508	0.8035	0.30247	0.288
Mof_C 	C 	0.0723	0.832	0.26947	-0.316
Mof_H 	H 	0.063	0.785	0.25337	0.245
Mof_C 	C 	0.1078	0.9308	0.26037	0.286
Mof_H 	H 	0.1221	0.9498	0.23827	-0.042
Mof_O 	O 	0.965	0.6761	0.34397	-0.238
Mof_C 	C 	0.0062	0.6975	0.31667	0.495
Mof_C 	C 	0.012	0.6158	0.29667	1.791
Mof_C 	C 	0.0929	0.6036	0.28907	2.396
Mof_H 	H 	0.1555	0.6471	0.29787	-0.748
Mof_C 	C 	0.0802	0.5262	0.26847	-3.488
Mof_H 	H 	0.1342	0.5178	0.26347	0.119
Mof_C 	C 	0.987	0.4614	0.25537	0.162
Mof_C 	C 	0.9059	0.4739	0.26287	0.278
Mof_H 	H 	0.8433	0.4299	0.25417	0.013
Mof_C 	C 	0.9186	0.5509	0.28347	1.118
Mof_H 	H 	0.8646	0.5592	0.28857	-0.22
Mof_C 	C 	0.9807	0.3773	0.23347	0.02
Mof_O 	O 	0.8967	0.3251	0.22207	-0.264
Mof_O 	O 	0.0548	0.3688	0.22927	-0.281
Mof_O 	O 	0.9241	0.646	0.32377	-0.163
Mof_C 	C 	0.9949	0.6895	0.30377	-0.536
Mof_C 	C 	0.0234	0.6281	0.28137	-2.68
Mof_C 	C 	0.1244	0.6655	0.27537	-0.554
Mof_H 	H 	0.1706	0.73	0.28197	0.308
Mof_C 	C 	0.1563	0.6063	0.25977	0.269
Mof_H 	H 	0.2239	0.6313	0.25587	-0.072
Mof_C 	C 	0.0873	0.5098	0.25007	2.832
Mof_C 	C 	0.9863	0.4724	0.25597	-0.012
Mof_H 	H 	0.9401	0.4079	0.24947	-0.061
Mof_C 	C 	0.9543	0.5315	0.27157	0.039
Mof_H 	H 	0.8867	0.5065	0.27557	-0.67
Mof_C 	C 	0.1178	0.4359	0.23667	-0.696
Mof_O 	O 	0.0454	0.3614	0.22527	0.005
Mof_O 	O 	0.207	0.4665	0.24027	-0.082
Mof_C 	C 	0.088	0.332	0.32357	0.519
Mof_C 	C 	0.0325	0.3561	0.34957	-0.258
Mof_C 	C 	0.0717	0.3874	0.38117	0.164
Mof_H 	H 	0.1311	0.3902	0.38707	-0.015
Mof_C 	C 	0.022	0.4144	0.40397	-0.264
Mof_H 	H 	0.0483	0.4354	0.42507	0.11
Mof_C 	C 	0.9332	0.4102	0.39517	0.175
Mof_C 	C 	0.894	0.3789	0.36357	-0.245
Mof_H 	H 	0.8345	0.376	0.35767	0.119
Mof_C 	C 	0.9436	0.3518	0.34077	0.179
Mof_H 	H 	0.9174	0.3309	0.31967	-0.01
Mof_N 	N 	0.4992	0.4046	0.33677	-0.236
Mof_C 	C 	0.5482	0.35	0.33777	0.019
Mof_H 	H 	0.5117	0.2807	0.33807	0.024
Mof_C 	C 	0.6518	0.399	0.33837	-0.06
Mof_H 	H 	0.6846	0.3625	0.33897	0.057
Mof_C 	C 	0.7064	0.5026	0.33797	-0.062
Mof_H 	H 	0.7758	0.5355	0.33837	0.078
Mof_C 	C 	0.6574	0.5572	0.33697	0.034
Mof_C 	C 	0.5538	0.5082	0.33637	0.001
Mof_C 	C 	0.708	0.6616	0.33647	-0.045
Mof_H 	H 	0.7761	0.6972	0.34077	0.082
Mof_O 	O 	0.8739	0.0334	0.90993	-0.478
Mof_O 	O 	0.8323	0.9973	0.96203	-0.523
Mof_O 	O 	0.6984	0.7506	0.96243	-0.52
Mof_O 	O 	0.6573	0.8285	0.00073	-0.535
Mof_C 	C 	0.8987	0.0489	0.93853	0.33
Mof_C 	C 	0.9989	0.1206	0.95113	-0.04
Mof_C 	C 	0.0274	0.1276	0.98413	-0.045
Mof_H 	H 	0.9805	0.09	0.00013	0.06
Mof_C 	C 	0.1262	0.191	0.99313	-0.106
Mof_H 	H 	0.1452	0.1956	0.01523	0.082
Mof_C 	C 	0.1965	0.2473	0.96913	0.123
Mof_C 	C 	0.168	0.2403	0.93613	-0.119
Mof_H 	H 	0.215	0.278	0.92003	0.167
Mof_C 	C 	0.0692	0.177	0.92703	-0.007
Mof_H 	H 	0.0502	0.1723	0.90493	0.038
Mof_O 	O 	0.3239	0.2889	0.01063	-0.192
Mof_C 	C 	0.3025	0.3087	0.98333	0.255
Mof_C 	C 	0.3842	0.3962	0.96333	1.643
Mof_C 	C 	0.3964	0.4893	0.95573	2.251
Mof_H 	H 	0.3529	0.5084	0.96453	-0.693
Mof_C 	C 	0.4738	0.554	0.93513	-3.21
Mof_H 	H 	0.4822	0.6164	0.93013	0.093
Mof_C 	C 	0.5386	0.5256	0.92203	0.118
Mof_C 	C 	0.5261	0.432	0.92953	0.328
Mof_H 	H 	0.5701	0.4134	0.92083	-0.013
Mof_C 	C 	0.4491	0.3677	0.95013	1.002
Mof_H 	H 	0.4408	0.3054	0.95523	-0.199
Mof_C 	C 	0.6227	0.6034	0.90013	-0.002
Mof_O 	O 	0.6749	0.5716	0.88873	-0.272
Mof_O 	O 	0.6312	0.686	0.89593	-0.272
Mof_O 	O 	0.354	0.2781	0.99043	-0.193
Mof_C 	C 	0.3105	0.3054	0.97043	-0.25
Mof_C 	C 	0.3719	0.3953	0.94803	-2.467
Mof_C 	C 	0.3345	0.4589	0.94203	-0.536
Mof_H 	H 	0.27	0.4406	0.94863	0.296
Mof_C 	C 	0.3937	0.55	0.92643	0.221
Mof_H 	H 	0.3687	0.5926	0.92253	-0.049
Mof_C 	C 	0.4902	0.5775	0.91673	2.673
Mof_C 	C 	0.5276	0.5139	0.92263	-0.05
Mof_H 	H 	0.5921	0.5322	0.91613	-0.03
Mof_C 	C 	0.4685	0.4228	0.93823	-0.008
Mof_H 	H 	0.4935	0.3802	0.94223	-0.615
Mof_C 	C 	0.5641	0.6819	0.90333	-0.64
Mof_O 	O 	0.6386	0.684	0.89193	-0.006
Mof_O 	O 	0.5335	0.7405	0.90693	-0.094
Mof_C 	C 	0.668	0.756	0.99023	0.489
Mof_C 	C 	0.6439	0.6764	0.01623	-0.153
Mof_C 	C 	0.6126	0.6843	0.04783	0.063
Mof_H 	H 	0.6098	0.7409	0.05373	0.022
Mof_C 	C 	0.5856	0.6076	0.07063	-0.127
Mof_H 	H 	0.5646	0.6129	0.09173	0.073
Mof_C 	C 	0.5898	0.523	0.06183	0.05
Mof_C 	C 	0.6211	0.5151	0.03023	-0.133
Mof_H 	H 	0.624	0.4585	0.02433	0.08
Mof_C 	C 	0.6482	0.5918	0.00743	0.043
Mof_H 	H 	0.6691	0.5865	0.98633	0.036
Mof_N 	N 	0.5954	0.0946	0.00343	-0.209
Mof_C 	C 	0.65	0.1982	0.00443	-0.021
Mof_H 	H 	0.7193	0.231	0.00473	0.036
Mof_C 	C 	0.601	0.2528	0.00503	0.005
Mof_H 	H 	0.6375	0.3221	0.00563	0.034
Mof_C 	C 	0.4974	0.2038	0.00463	-0.166
Mof_H 	H 	0.4645	0.2403	0.00503	0.111
Mof_C 	C 	0.4428	0.1002	0.00363	0.181
Mof_C 	C 	0.4918	0.0456	0.00303	-0.144
Mof_C 	C 	0.3384	0.0464	0.00313	-0.295
Mof_H 	H 	0.3028	0.0789	0.00743	0.153
Mof_O 	O 	0.1595	0.0334	0.59007	-0.502
Mof_O 	O 	0.165	0.9973	0.53797	-0.536
Mof_O 	O 	0.0522	0.7506	0.53757	-0.537
Mof_O 	O 	0.1712	0.8285	0.49927	-0.539
Mof_C 	C 	0.1502	0.0489	0.56147	0.382
Mof_C 	C 	0.1217	0.1206	0.54887	-0.202
Mof_C 	C 	0.1002	0.1276	0.51587	0.157
Mof_H 	H 	0.1095	0.09	0.49987	-0.025
Mof_C 	C 	0.0648	0.191	0.50687	-0.248
Mof_H 	H 	0.0504	0.1956	0.48477	0.129
Mof_C 	C 	0.0508	0.2473	0.53087	0.198
Mof_C 	C 	0.0723	0.2403	0.56387	-0.209
Mof_H 	H 	0.063	0.278	0.57997	0.205
Mof_C 	C 	0.1078	0.177	0.57297	0.128
Mof_H 	H 	0.1221	0.1723	0.59507	-0
Mof_O 	O 	0.965	0.2889	0.48937	-0.24
Mof_C 	C 	0.0062	0.3087	0.51667	0.509
Mof_C 	C 	0.012	0.3962	0.53667	1.797
Mof_C 	C 	0.0929	0.4893	0.54427	2.4
Mof_H 	H 	0.1555	0.5084	0.53547	-0.752
Mof_C 	C 	0.0802	0.554	0.56487	-3.497
Mof_H 	H 	0.1342	0.6164	0.56987	0.119
Mof_C 	C 	0.987	0.5256	0.57797	0.161
Mof_C 	C 	0.9059	0.432	0.57047	0.277
Mof_H 	H 	0.8433	0.4134	0.57917	0.014
Mof_C 	C 	0.9186	0.3677	0.54987	1.127
Mof_H 	H 	0.8646	0.3054	0.54477	-0.224
Mof_C 	C 	0.9807	0.6034	0.59987	0.018
Mof_O 	O 	0.8967	0.5716	0.61127	-0.264
Mof_O 	O 	0.0548	0.686	0.60407	-0.28
Mof_O 	O 	0.9241	0.2781	0.50957	-0.176
Mof_C 	C 	0.9949	0.3054	0.52957	-0.524
Mof_C 	C 	0.0234	0.3953	0.55197	-2.7
Mof_C 	C 	0.1244	0.4589	0.55797	-0.541
Mof_H 	H 	0.1706	0.4406	0.55137	0.303
Mof_C 	C 	0.1563	0.55	0.57357	0.261
Mof_H 	H 	0.2239	0.5926	0.57747	-0.068
Mof_C 	C 	0.0873	0.5775	0.58327	2.846
Mof_C 	C 	0.9863	0.5139	0.57737	-0.014
Mof_H 	H 	0.9401	0.5322	0.58387	-0.06
Mof_C 	C 	0.9543	0.4228	0.56177	0.045
Mof_H 	H 	0.8867	0.3802	0.55777	-0.676
Mof_C 	C 	0.1178	0.6819	0.59667	-0.705
Mof_O 	O 	0.0454	0.684	0.60807	0.007
Mof_O 	O 	0.207	0.7405	0.59307	-0.073
Mof_C 	C 	0.088	0.756	0.50977	0.513
Mof_C 	C 	0.0325	0.6764	0.48377	-0.254
Mof_C 	C 	0.0717	0.6843	0.45217	0.16
Mof_H 	H 	0.1311	0.7409	0.44627	-0.012
Mof_C 	C 	0.022	0.6076	0.42937	-0.262
Mof_H 	H 	0.0483	0.6129	0.40827	0.11
Mof_C 	C 	0.9332	0.523	0.43817	0.174
Mof_C 	C 	0.894	0.5151	0.46977	-0.244
Mof_H 	H 	0.8345	0.4585	0.47567	0.119
Mof_C 	C 	0.9436	0.5918	0.49257	0.176
Mof_H 	H 	0.9174	0.5865	0.51367	-0.008
Mof_N 	N 	0.4992	0.0946	0.49657	-0.212
Mof_C 	C 	0.5482	0.1982	0.49557	-0.016
Mof_H 	H 	0.5117	0.231	0.49527	0.036
Mof_C 	C 	0.6518	0.2528	0.49497	-0.001
Mof_H 	H 	0.6846	0.3221	0.49437	0.036
Mof_C 	C 	0.7064	0.2038	0.49537	-0.154
Mof_H 	H 	0.7758	0.2403	0.49497	0.11
Mof_C 	C 	0.6574	0.1002	0.49637	0.166
Mof_C 	C 	0.5538	0.0456	0.49697	-0.128
Mof_C 	C 	0.708	0.0464	0.49687	-0.266
Mof_H 	H 	0.7761	0.0789	0.49257	0.151
Mof_O 	O 	0.8739	0.8405	0.9234	-0.469
Mof_O 	O 	0.8323	0.835	0.8713	-0.566
Mof_O 	O 	0.6984	0.9478	0.8709	-0.504
Mof_O 	O 	0.6573	0.8288	0.8326	-0.539
Mof_C 	C 	0.8987	0.8498	0.8948	0.369
Mof_C 	C 	0.9989	0.8783	0.8822	-0.05
Mof_C 	C 	0.0274	0.8998	0.8492	-0.037
Mof_H 	H 	0.9805	0.8905	0.8332	0.067
Mof_C 	C 	0.1262	0.9352	0.8402	-0.111
Mof_H 	H 	0.1452	0.9496	0.8181	0.096
Mof_C 	C 	0.1965	0.9492	0.8642	0.139
Mof_C 	C 	0.168	0.9277	0.8972	-0.135
Mof_H 	H 	0.215	0.937	0.9133	0.167
Mof_C 	C 	0.0692	0.8922	0.9063	0.013
Mof_H 	H 	0.0502	0.8779	0.9284	0.037
Mof_O 	O 	0.3239	0.035	0.8227	-0.136
Mof_C 	C 	0.3025	0.9938	0.85	0.011
Mof_C 	C 	0.3842	0.988	0.87	1.486
Mof_C 	C 	0.3964	0.9071	0.8776	2.087
Mof_H 	H 	0.3529	0.8445	0.8688	-0.63
Mof_C 	C 	0.4738	0.9198	0.8982	-2.914
Mof_H 	H 	0.4822	0.8658	0.9032	0.067
Mof_C 	C 	0.5386	0.013	0.9113	0.077
Mof_C 	C 	0.5261	0.0941	0.9038	0.379
Mof_H 	H 	0.5701	0.1567	0.9125	-0.039
Mof_C 	C 	0.4491	0.0814	0.8832	0.87
Mof_H 	H 	0.4408	0.1354	0.8781	-0.17
Mof_C 	C 	0.6227	0.0193	0.9332	-0.02
Mof_O 	O 	0.6749	0.1033	0.9446	-0.268
Mof_O 	O 	0.6312	0.9452	0.9374	-0.25
Mof_O 	O 	0.354	0.0759	0.8429	-0.207
Mof_C 	C 	0.3105	0.0051	0.8629	-0.015
Mof_C 	C 	0.3719	0.9766	0.8853	-2.214
Mof_C 	C 	0.3345	0.8756	0.8913	-0.534
Mof_H 	H 	0.27	0.8294	0.8847	0.289
Mof_C 	C 	0.3937	0.8437	0.9069	0.187
Mof_H 	H 	0.3687	0.7761	0.9108	-0.034
Mof_C 	C 	0.4902	0.9127	0.9166	2.488
Mof_C 	C 	0.5276	0.0137	0.9107	-0.085
Mof_H 	H 	0.5921	0.0599	0.9172	-0.003
Mof_C 	C 	0.4685	0.0457	0.8951	-0.065
Mof_H 	H 	0.4935	0.1133	0.8911	-0.549
Mof_C 	C 	0.5641	0.8822	0.93	-0.574
Mof_O 	O 	0.6386	0.9546	0.9414	-0.019
Mof_O 	O 	0.5335	0.793	0.9264	-0.119
Mof_C 	C 	0.668	0.912	0.8431	0.456
Mof_C 	C 	0.6439	0.9675	0.8171	-0.057
Mof_C 	C 	0.6126	0.9283	0.7855	-0.025
Mof_H 	H 	0.6098	0.8689	0.7796	0.053
Mof_C 	C 	0.5856	0.978	0.7627	-0.003
Mof_H 	H 	0.5646	0.9517	0.7416	0.039
Mof_C 	C 	0.5898	0.0668	0.7715	-0.062
Mof_C 	C 	0.6211	0.106	0.8031	-0.04
Mof_H 	H 	0.624	0.1655	0.809	0.047
Mof_C 	C 	0.6482	0.0564	0.8259	-0.062
Mof_H 	H 	0.6691	0.0826	0.847	0.062
Mof_N 	N 	0.5954	0.5008	0.8299	-0.235
Mof_C 	C 	0.65	0.4518	0.8289	0.02
Mof_H 	H 	0.7193	0.4883	0.8286	0.023
Mof_C 	C 	0.601	0.3482	0.8283	-0.062
Mof_H 	H 	0.6375	0.3154	0.8277	0.06
Mof_C 	C 	0.4974	0.2936	0.8287	-0.061
Mof_H 	H 	0.4645	0.2242	0.8283	0.074
Mof_C 	C 	0.4428	0.3426	0.8297	0.03
Mof_C 	C 	0.4918	0.4462	0.8303	0.001
Mof_C 	C 	0.3384	0.292	0.8302	-0.046
Mof_H 	H 	0.3028	0.2239	0.8259	0.07
Mof_O 	O 	0.9666	0.1261	0.25673	-0.507
Mof_O 	O 	0.0027	0.1677	0.20463	-0.613
Mof_O 	O 	0.2494	0.3016	0.20423	-0.518
Mof_O 	O 	0.1715	0.3427	0.16593	-0.54
Mof_C 	C 	0.9511	0.1013	0.22813	0.511
Mof_C 	C 	0.8794	0.0011	0.21553	-0.386
Mof_C 	C 	0.8724	0.9726	0.18253	0.395
Mof_H 	H 	0.91	0.0195	0.16653	-0.111
Mof_C 	C 	0.809	0.8738	0.17353	-0.38
Mof_H 	H 	0.8044	0.8548	0.15143	0.193
Mof_C 	C 	0.7527	0.8035	0.19753	0.303
Mof_C 	C 	0.7597	0.832	0.23053	-0.331
Mof_H 	H 	0.722	0.785	0.24663	0.247
Mof_C 	C 	0.823	0.9308	0.23963	0.306
Mof_H 	H 	0.8277	0.9498	0.26173	-0.043
Mof_O 	O 	0.7111	0.6761	0.15603	-0.186
Mof_C 	C 	0.6913	0.6975	0.18333	0.238
Mof_C 	C 	0.6038	0.6158	0.20333	1.645
Mof_C 	C 	0.5107	0.6036	0.21093	2.258
Mof_H 	H 	0.4916	0.6471	0.20213	-0.692
Mof_C 	C 	0.446	0.5262	0.23153	-3.219
Mof_H 	H 	0.3836	0.5178	0.23653	0.093
Mof_C 	C 	0.4744	0.4614	0.24463	0.122
Mof_C 	C 	0.568	0.4739	0.23713	0.331
Mof_H 	H 	0.5866	0.4299	0.24583	-0.014
Mof_C 	C 	0.6323	0.5509	0.21653	0.992
Mof_H 	H 	0.6946	0.5592	0.21143	-0.193
Mof_C 	C 	0.3966	0.3773	0.26653	-0.003
Mof_O 	O 	0.4284	0.3251	0.27793	-0.271
Mof_O 	O 	0.314	0.3688	0.27073	-0.273
Mof_O 	O 	0.7219	0.646	0.17623	-0.174
Mof_C 	C 	0.6946	0.6895	0.19623	-0.287
Mof_C 	C 	0.6047	0.6281	0.21863	-2.446
Mof_C 	C 	0.5411	0.6655	0.22463	-0.563
Mof_H 	H 	0.5594	0.73	0.21803	0.306
Mof_C 	C 	0.45	0.6063	0.24023	0.239
Mof_H 	H 	0.4074	0.6313	0.24413	-0.058
Mof_C 	C 	0.4225	0.5098	0.24993	2.669
Mof_C 	C 	0.4861	0.4724	0.24403	-0.047
Mof_H 	H 	0.4678	0.4079	0.25053	-0.033
Mof_C 	C 	0.5772	0.5315	0.22843	-0.017
Mof_H 	H 	0.6198	0.5065	0.22443	-0.608
Mof_C 	C 	0.3181	0.4359	0.26333	-0.63
Mof_O 	O 	0.316	0.3614	0.27473	-0.008
Mof_O 	O 	0.2595	0.4665	0.25973	-0.109
Mof_C 	C 	0.244	0.332	0.17643	0.483
Mof_C 	C 	0.3236	0.3561	0.15043	-0.153
Mof_C 	C 	0.3157	0.3874	0.11883	0.066
Mof_H 	H 	0.2591	0.3902	0.11293	0.02
Mof_C 	C 	0.3924	0.4144	0.09603	-0.129
Mof_H 	H 	0.3871	0.4354	0.07493	0.073
Mof_C 	C 	0.477	0.4102	0.10483	0.052
Mof_C 	C 	0.4849	0.3789	0.13643	-0.139
Mof_H 	H 	0.5415	0.376	0.14233	0.082
Mof_C 	C 	0.4082	0.3518	0.15923	0.054
Mof_H 	H 	0.4135	0.3309	0.18033	0.027
Mof_N 	N 	0.9054	0.4046	0.16323	-0.249
Mof_C 	C 	0.8018	0.35	0.16223	0.055
Mof_H 	H 	0.769	0.2807	0.16193	0.014
Mof_C 	C 	0.7472	0.399	0.16163	-0.12
Mof_H 	H 	0.6779	0.3625	0.16103	0.079
Mof_C 	C 	0.7962	0.5026	0.16203	0.032
Mof_H 	H 	0.7597	0.5355	0.16163	0.043
Mof_C 	C 	0.8998	0.5572	0.16303	-0.102
Mof_C 	C 	0.9544	0.5082	0.16363	0.132
Mof_C 	C 	0.9536	0.6616	0.16353	0.177
Mof_H 	H 	0.9211	0.6972	0.15923	0.006
Mof_O 	O 	0.8405	0.9666	0.09007	-0.482
Mof_O 	O 	0.835	0.0027	0.03797	-0.601
Mof_O 	O 	0.9478	0.2494	0.03757	-0.499
Mof_O 	O 	0.8288	0.1715	0.99927	-0.524
Mof_C 	C 	0.8498	0.9511	0.06147	0.455
Mof_C 	C 	0.8783	0.8794	0.04887	-0.219
Mof_C 	C 	0.8998	0.8724	0.01587	0.178
Mof_H 	H 	0.8905	0.91	0.99987	-0.014
Mof_C 	C 	0.9352	0.809	0.00687	-0.25
Mof_H 	H 	0.9496	0.8044	0.98477	0.154
Mof_C 	C 	0.9492	0.7527	0.03087	0.229
Mof_C 	C 	0.9277	0.7597	0.06387	-0.24
Mof_H 	H 	0.937	0.722	0.07997	0.207
Mof_C 	C 	0.8922	0.823	0.07297	0.167
Mof_H 	H 	0.8779	0.8277	0.09507	-0.003
Mof_O 	O 	0.035	0.7111	0.98937	-0.13
Mof_C 	C 	0.9938	0.6913	0.01667	0
Mof_C 	C 	0.988	0.6038	0.03667	1.491
Mof_C 	C 	0.9071	0.5107	0.04427	2.096
Mof_H 	H 	0.8445	0.4916	0.03547	-0.631
Mof_C 	C 	0.9198	0.446	0.06487	-2.927
Mof_H 	H 	0.8658	0.3836	0.06987	0.066
Mof_C 	C 	0.013	0.4744	0.07797	0.078
Mof_C 	C 	0.0941	0.568	0.07047	0.382
Mof_H 	H 	0.1567	0.5866	0.07917	-0.041
Mof_C 	C 	0.0814	0.6323	0.04987	0.865
Mof_H 	H 	0.1354	0.6946	0.04477	-0.167
Mof_C 	C 	0.0193	0.3966	0.09987	-0.022
Mof_O 	O 	0.1033	0.4284	0.11127	-0.27
Mof_O 	O 	0.9452	0.314	0.10407	-0.251
Mof_O 	O 	0.0759	0.7219	0.00957	-0.2
Mof_C 	C 	0.0051	0.6946	0.02957	-0.033
Mof_C 	C 	0.9766	0.6047	0.05197	-2.208
Mof_C 	C 	0.8756	0.5411	0.05797	-0.549
Mof_H 	H 	0.8294	0.5594	0.05137	0.295
Mof_C 	C 	0.8437	0.45	0.07357	0.197
Mof_H 	H 	0.7761	0.4074	0.07747	-0.038
Mof_C 	C 	0.9127	0.4225	0.08327	2.495
Mof_C 	C 	0.0137	0.4861	0.07737	-0.084
Mof_H 	H 	0.0599	0.4678	0.08387	-0.004
Mof_C 	C 	0.0457	0.5772	0.06177	-0.069
Mof_H 	H 	0.1133	0.6198	0.05777	-0.546
Mof_C 	C 	0.8822	0.3181	0.09667	-0.571
Mof_O 	O 	0.9546	0.316	0.10807	-0.019
Mof_O 	O 	0.793	0.2595	0.09307	-0.126
Mof_C 	C 	0.912	0.244	0.00977	0.441
Mof_C 	C 	0.9675	0.3236	0.98377	-0.05
Mof_C 	C 	0.9283	0.3157	0.95217	-0.029
Mof_H 	H 	0.8689	0.2591	0.94627	0.055
Mof_C 	C 	0.978	0.3924	0.92937	0.001
Mof_H 	H 	0.9517	0.3871	0.90827	0.038
Mof_C 	C 	0.0668	0.477	0.93817	-0.064
Mof_C 	C 	0.106	0.4849	0.96977	-0.041
Mof_H 	H 	0.1655	0.5415	0.97567	0.048
Mof_C 	C 	0.0564	0.4082	0.99257	-0.058
Mof_H 	H 	0.0826	0.4135	0.01367	0.056
Mof_N 	N 	0.5008	0.9054	0.99657	-0.25
Mof_C 	C 	0.4518	0.8018	0.99557	0.06
Mof_H 	H 	0.4883	0.769	0.99527	0.013
Mof_C 	C 	0.3482	0.7472	0.99497	-0.127
Mof_H 	H 	0.3154	0.6779	0.99437	0.084
Mof_C 	C 	0.2936	0.7962	0.99537	0.043
Mof_H 	H 	0.2242	0.7597	0.99497	0.039
Mof_C 	C 	0.3426	0.8998	0.99637	-0.12
Mof_C 	C 	0.4462	0.9544	0.99697	0.148
Mof_C 	C 	0.292	0.9536	0.99687	0.204
Mof_H 	H 	0.2239	0.9211	0.99257	-0.008
Mof_O 	O 	0.1261	0.1595	0.4234	-0.518
Mof_O 	O 	0.1677	0.165	0.3713	-0.589
Mof_O 	O 	0.3016	0.0522	0.3709	-0.538
Mof_O 	O 	0.3427	0.1712	0.3326	-0.555
Mof_C 	C 	0.1013	0.1502	0.3948	0.476
Mof_C 	C 	0.0011	0.1217	0.3822	-0.38
Mof_C 	C 	0.9726	0.1002	0.3492	0.385
Mof_H 	H 	0.0195	0.1095	0.3332	-0.115
Mof_C 	C 	0.8738	0.0648	0.3402	-0.385
Mof_H 	H 	0.8548	0.0504	0.3181	0.184
Mof_C 	C 	0.8035	0.0508	0.3642	0.289
Mof_C 	C 	0.832	0.0723	0.3972	-0.318
Mof_H 	H 	0.785	0.063	0.4133	0.246
Mof_C 	C 	0.9308	0.1078	0.4063	0.288
Mof_H 	H 	0.9498	0.1221	0.4284	-0.042
Mof_O 	O 	0.6761	0.965	0.3227	-0.238
Mof_C 	C 	0.6975	0.0062	0.35	0.491
Mof_C 	C 	0.6158	0.012	0.37	1.788
Mof_C 	C 	0.6036	0.0929	0.3776	2.393
Mof_H 	H 	0.6471	0.1555	0.3688	-0.747
Mof_C 	C 	0.5262	0.0802	0.3982	-3.483
Mof_H 	H 	0.5178	0.1342	0.4032	0.119
Mof_C 	C 	0.4614	0.987	0.4113	0.162
Mof_C 	C 	0.4739	0.9059	0.4038	0.278
Mof_H 	H 	0.4299	0.8433	0.4125	0.013
Mof_C 	C 	0.5509	0.9186	0.3832	1.117
Mof_H 	H 	0.5592	0.8646	0.3781	-0.22
Mof_C 	C 	0.3773	0.9807	0.4332	0.02
Mof_O 	O 	0.3251	0.8967	0.4446	-0.264
Mof_O 	O 	0.3688	0.0548	0.4374	-0.281
Mof_O 	O 	0.646	0.9241	0.3429	-0.163
Mof_C 	C 	0.6895	0.9949	0.3629	-0.533
Mof_C 	C 	0.6281	0.0234	0.3853	-2.676
Mof_C 	C 	0.6655	0.1244	0.3913	-0.554
Mof_H 	H 	0.73	0.1706	0.3847	0.308
Mof_C 	C 	0.6063	0.1563	0.4069	0.268
Mof_H 	H 	0.6313	0.2239	0.4108	-0.071
Mof_C 	C 	0.5098	0.0873	0.4166	2.829
Mof_C 	C 	0.4724	0.9863	0.4107	-0.013
Mof_H 	H 	0.4079	0.9401	0.4172	-0.061
Mof_C 	C 	0.5315	0.9543	0.3951	0.038
Mof_H 	H 	0.5065	0.8867	0.3911	-0.669
Mof_C 	C 	0.4359	0.1178	0.43	-0.695
Mof_O 	O 	0.3614	0.0454	0.4414	0.004
Mof_O 	O 	0.4665	0.207	0.4264	-0.082
Mof_C 	C 	0.332	0.088	0.3431	0.518
Mof_C 	C 	0.3561	0.0325	0.3171	-0.257
Mof_C 	C 	0.3874	0.0717	0.2855	0.162
Mof_H 	H 	0.3902	0.1311	0.2796	-0.015
Mof_C 	C 	0.4144	0.022	0.2627	-0.262
Mof_H 	H 	0.4354	0.0483	0.2416	0.11
Mof_C 	C 	0.4102	0.9332	0.2715	0.174
Mof_C 	C 	0.3789	0.894	0.3031	-0.244
Mof_H 	H 	0.376	0.8345	0.309	0.119
Mof_C 	C 	0.3518	0.9436	0.3259	0.177
Mof_H 	H 	0.3309	0.9174	0.347	-0.009
Mof_N 	N 	0.4046	0.4992	0.3299	-0.236
Mof_C 	C 	0.35	0.5482	0.3289	0.019
Mof_H 	H 	0.2807	0.5117	0.3286	0.024
Mof_C 	C 	0.399	0.6518	0.3283	-0.06
Mof_H 	H 	0.3625	0.6846	0.3277	0.057
Mof_C 	C 	0.5026	0.7064	0.3287	-0.061
Mof_H 	H 	0.5355	0.7758	0.3283	0.078
Mof_C 	C 	0.5572	0.6574	0.3297	0.033
Mof_C 	C 	0.5082	0.5538	0.3303	0.001
Mof_C 	C 	0.6616	0.708	0.3302	-0.045
Mof_H 	H 	0.6972	0.7761	0.3259	0.082
Mof_O 	O 	0.0334	0.8739	0.75673	-0.478
Mof_O 	O 	0.9973	0.8323	0.70463	-0.524
Mof_O 	O 	0.7506	0.6984	0.70423	-0.519
Mof_O 	O 	0.8285	0.6573	0.66593	-0.53
Mof_C 	C 	0.0489	0.8987	0.72813	0.33
Mof_C 	C 	0.1206	0.9989	0.71553	-0.042
Mof_C 	C 	0.1276	0.0274	0.68253	-0.047
Mof_H 	H 	0.09	0.9805	0.66653	0.064
Mof_C 	C 	0.191	0.1262	0.67353	-0.116
Mof_H 	H 	0.1956	0.1452	0.65143	0.087
Mof_C 	C 	0.2473	0.1965	0.69753	0.126
Mof_C 	C 	0.2403	0.168	0.73053	-0.122
Mof_H 	H 	0.278	0.215	0.74663	0.168
Mof_C 	C 	0.177	0.0692	0.73963	-0.005
Mof_H 	H 	0.1723	0.0502	0.76173	0.038
Mof_O 	O 	0.2889	0.3239	0.65603	-0.188
Mof_C 	C 	0.3087	0.3025	0.68333	0.263
Mof_C 	C 	0.3962	0.3842	0.70333	1.653
Mof_C 	C 	0.4893	0.3964	0.71093	2.262
Mof_H 	H 	0.5084	0.3529	0.70213	-0.697
Mof_C 	C 	0.554	0.4738	0.73153	-3.23
Mof_H 	H 	0.6164	0.4822	0.73653	0.093
Mof_C 	C 	0.5256	0.5386	0.74463	0.118
Mof_C 	C 	0.432	0.5261	0.73713	0.329
Mof_H 	H 	0.4134	0.5701	0.74583	-0.013
Mof_C 	C 	0.3677	0.4491	0.71653	1.006
Mof_H 	H 	0.3054	0.4408	0.71143	-0.2
Mof_C 	C 	0.6034	0.6227	0.76653	-0.005
Mof_O 	O 	0.5716	0.6749	0.77793	-0.271
Mof_O 	O 	0.686	0.6312	0.77073	-0.272
Mof_O 	O 	0.2781	0.354	0.67623	-0.198
Mof_C 	C 	0.3054	0.3105	0.69623	-0.262
Mof_C 	C 	0.3953	0.3719	0.71863	-2.48
Mof_C 	C 	0.4589	0.3345	0.72463	-0.537
Mof_H 	H 	0.4406	0.27	0.71803	0.297
Mof_C 	C 	0.55	0.3937	0.74023	0.223
Mof_H 	H 	0.5926	0.3687	0.74413	-0.05
Mof_C 	C 	0.5775	0.4902	0.74993	2.691
Mof_C 	C 	0.5139	0.5276	0.74403	-0.051
Mof_H 	H 	0.5322	0.5921	0.75053	-0.03
Mof_C 	C 	0.4228	0.4685	0.72843	-0.007
Mof_H 	H 	0.3802	0.4935	0.72443	-0.618
Mof_C 	C 	0.6819	0.5641	0.76333	-0.647
Mof_O 	O 	0.684	0.6386	0.77473	-0.003
Mof_O 	O 	0.7405	0.5335	0.75973	-0.092
Mof_C 	C 	0.756	0.668	0.67643	0.481
Mof_C 	C 	0.6764	0.6439	0.65043	-0.151
Mof_C 	C 	0.6843	0.6126	0.61883	0.064
Mof_H 	H 	0.7409	0.6098	0.61293	0.023
Mof_C 	C 	0.6076	0.5856	0.59603	-0.128
Mof_H 	H 	0.6129	0.5646	0.57493	0.073
Mof_C 	C 	0.523	0.5898	0.60483	0.052
Mof_C 	C 	0.5151	0.6211	0.63643	-0.138
Mof_H 	H 	0.4585	0.624	0.64233	0.082
Mof_C 	C 	0.5918	0.6482	0.65923	0.053
Mof_H 	H 	0.5865	0.6691	0.68033	0.029
Mof_N 	N 	0.0946	0.5954	0.66323	-0.211
Mof_C 	C 	0.1982	0.65	0.66223	-0.017
Mof_H 	H 	0.231	0.7193	0.66193	0.036
Mof_C 	C 	0.2528	0.601	0.66163	-0.001
Mof_H 	H 	0.3221	0.6375	0.66103	0.037
Mof_C 	C 	0.2038	0.4974	0.66203	-0.155
Mof_H 	H 	0.2403	0.4645	0.66163	0.109
Mof_C 	C 	0.1002	0.4428	0.66303	0.166
Mof_C 	C 	0.0456	0.4918	0.66363	-0.129
Mof_C 	C 	0.0464	0.3384	0.66353	-0.269
Mof_H 	H 	0.0789	0.3028	0.65923	0.146
Mof_La	La	0.86289	0.13711	0.08333	2.388
Mof_La	La	0.86289	0.72578	0.75	2.397
Mof_La	La	0.27422	0.13711	0.41667	2.376
Mof_La	La	0.13711	0.86289	0.58333	2.388
Mof_La	La	0.13711	0.27422	0.25	2.376
Mof_La	La	0.72578	0.86289	0.91667	2.398
Mof_La	La	1.17599e-18	0.30087	0.16667	1.959
Mof_La	La	0.69913	0.69913	0.83333	2.02
Mof_La	La	0.30087	0	0.5	1.96
Mof_La	La	4.70717e-18	0.69913	0.66667	1.943
Mof_La	La	0.30087	0.30087	0.33333	2.049
Mof_La	La	0.69913	0	-0	1.932
Mof_O 	O 	0.393	0.786	0.25	-0.165
Mof_C 	C 	0.439	0.878	0.25	-0.007
Mof_O 	O 	0.214	0.607	0.91667	-0.21
Mof_C 	C 	0.122	0.561	0.91667	0.146
Mof_O 	O 	0.393	0.607	0.58333	-0.188
Mof_C 	C 	0.439	0.561	0.58333	0.071
Mof_O 	O 	0.607	0.214	0.75	-0.209
Mof_C 	C 	0.561	0.122	0.75	0.145
Mof_O 	O 	0.786	0.393	0.41667	-0.165
Mof_C 	C 	0.878	0.439	0.41667	-0.008
Mof_O 	O 	0.607	0.393	0.08333	-0.188
Mof_C 	C 	0.561	0.439	0.08333	0.072
_end
