data_functionalizedCrystal
_audit_creation_method	'EQeq! by Chris Wilmer'
_symmetry_space_group_name_H-M	'P1'
_symmetry_Int_Tables_number	1
_symmetry_cell_setting	triclinic
loop_
_symmetry_equiv_pos_as_xyz
  x,y,z
_cell_length_a	13.2342
_cell_length_b	18.0808
_cell_length_c	18.0808
_cell_angle_alpha	90
_cell_angle_beta	90
_cell_angle_gamma	90
loop_
_atom_site_label
_atom_site_type_symbol
_atom_site_fract_x
_atom_site_fract_y
_atom_site_fract_z
_atom_site_charge
Mof_Cu	Cu	0.76501	0.98844	0.51156	0.901
Mof_Cu	Cu	0.76501	0.51156	0.98844	0.901
Mof_Cu	Cu	0.26501	0.98844	0.98844	0.912
Mof_Cu	Cu	0.26501	0.51156	0.51156	0.884
Mof_Cu	Cu	0.73499	0.01156	0.01156	0.85
Mof_Cu	Cu	0.73499	0.48844	0.48844	0.884
Mof_Cu	Cu	0.23499	0.01156	0.48844	0.865
Mof_Cu	Cu	0.23499	0.48844	0.01156	0.865
Mof_Cu	Cu	0.5	0	0.5	0.883
Mof_Cu	Cu	0.5	0.5	-0	0.883
Mof_Cu	Cu	-0	0	-0	0.843
Mof_Cu	Cu	2.56125e-33	0.5	0.5	0.885
Mof_H 	H 	0.4884	0.9801	0.3251	0.047
Mof_H 	H 	0.7909	0.9662	0.3299	0.034
Mof_H 	H 	0.5609	0.8707	0.2039	0.055
Mof_H 	H 	0.7213	0.0566	0.1873	0.045
Mof_H 	H 	0.4884	0.5199	0.1749	0.038
Mof_H 	H 	0.7909	0.5338	0.1701	0.026
Mof_H 	H 	0.5609	0.6293	0.2961	0.055
Mof_H 	H 	0.7213	0.4434	0.3127	0.024
Mof_H 	H 	0.9884	0.1749	0.9801	0.093
Mof_H 	H 	0.2909	0.1701	0.9662	0.029
Mof_H 	H 	0.0609	0.2961	0.8707	0.046
Mof_H 	H 	0.2213	0.3127	0.0566	0.042
Mof_H 	H 	0.9884	0.3251	0.5199	0.086
Mof_H 	H 	0.2909	0.3299	0.5338	0.025
Mof_H 	H 	0.0609	0.2039	0.6293	0.045
Mof_H 	H 	0.2213	0.1873	0.4434	0.02
Mof_H 	H 	0.0116	0.0199	0.8251	-0.014
Mof_H 	H 	0.7091	0.0338	0.8299	0.023
Mof_H 	H 	0.9391	0.1293	0.7039	0.065
Mof_H 	H 	0.7787	0.9434	0.6873	0.01
Mof_H 	H 	0.0116	0.4801	0.6749	-0.006
Mof_H 	H 	0.7091	0.4662	0.6701	0.025
Mof_H 	H 	0.9391	0.3707	0.7961	0.065
Mof_H 	H 	0.7787	0.5566	0.8127	0.028
Mof_H 	H 	0.5116	0.8251	0.4801	0.04
Mof_H 	H 	0.2091	0.8299	0.4662	0.025
Mof_H 	H 	0.4391	0.7039	0.3707	0.055
Mof_H 	H 	0.2787	0.6873	0.5566	0.025
Mof_H 	H 	0.5116	0.6749	0.0199	0.032
Mof_H 	H 	0.2091	0.6701	0.0338	0.017
Mof_H 	H 	0.4391	0.7961	0.1293	0.056
Mof_H 	H 	0.2787	0.8127	0.9434	0.008
Mof_H 	H 	0.5116	0.0199	0.6749	0.032
Mof_H 	H 	0.2091	0.0338	0.6701	0.017
Mof_H 	H 	0.4391	0.1293	0.7961	0.056
Mof_H 	H 	0.2787	0.9434	0.8127	0.008
Mof_H 	H 	0.5116	0.4801	0.8251	0.04
Mof_H 	H 	0.2091	0.4662	0.8299	0.025
Mof_H 	H 	0.4391	0.3707	0.7039	0.055
Mof_H 	H 	0.2787	0.5566	0.6873	0.025
Mof_H 	H 	0.0116	0.8251	0.0199	-0.014
Mof_H 	H 	0.7091	0.8299	0.0338	0.023
Mof_H 	H 	0.9391	0.7039	0.1293	0.065
Mof_H 	H 	0.7787	0.6873	0.9434	0.01
Mof_H 	H 	0.0116	0.6749	0.4801	-0.006
Mof_H 	H 	0.7091	0.6701	0.4662	0.025
Mof_H 	H 	0.9391	0.7961	0.3707	0.065
Mof_H 	H 	0.7787	0.8127	0.5566	0.028
Mof_H 	H 	0.9884	0.9801	0.1749	0.093
Mof_H 	H 	0.2909	0.9662	0.1701	0.029
Mof_H 	H 	0.0609	0.8707	0.2961	0.046
Mof_H 	H 	0.2213	0.0566	0.3127	0.042
Mof_H 	H 	0.9884	0.5199	0.3251	0.086
Mof_H 	H 	0.2909	0.5338	0.3299	0.025
Mof_H 	H 	0.0609	0.6293	0.2039	0.045
Mof_H 	H 	0.2213	0.4434	0.1873	0.02
Mof_H 	H 	0.4884	0.1749	0.5199	0.038
Mof_H 	H 	0.7909	0.1701	0.5338	0.026
Mof_H 	H 	0.5609	0.2961	0.6293	0.055
Mof_H 	H 	0.7213	0.3127	0.4434	0.024
Mof_H 	H 	0.4884	0.3251	0.9801	0.047
Mof_H 	H 	0.7909	0.3299	0.9662	0.034
Mof_H 	H 	0.5609	0.2039	0.8707	0.055
Mof_H 	H 	0.7213	0.1873	0.0566	0.045
Mof_C 	C 	0.5569	0.9784	0.3423	0.127
Mof_C 	C 	0.7218	0.971	0.345	0.124
Mof_C 	C 	0.5974	0.9115	0.1835	0.117
Mof_C 	C 	0.6842	0.013	0.1751	0.012
Mof_C 	C 	0.5569	0.5216	0.1577	0.118
Mof_C 	C 	0.7218	0.529	0.155	0.114
Mof_C 	C 	0.5974	0.5885	0.3165	0.114
Mof_C 	C 	0.6842	0.487	0.3249	0.114
Mof_C 	C 	0.0569	0.1577	0.9784	0.06
Mof_C 	C 	0.2218	0.155	0.971	0.121
Mof_C 	C 	0.0974	0.3165	0.9115	0.113
Mof_C 	C 	0.1842	0.3249	0.013	0.01
Mof_C 	C 	0.0569	0.3423	0.5216	0.048
Mof_C 	C 	0.2218	0.345	0.529	0.114
Mof_C 	C 	0.0974	0.1835	0.5885	0.11
Mof_C 	C 	0.1842	0.1751	0.487	0.109
Mof_C 	C 	0.9431	0.0216	0.8423	0.185
Mof_C 	C 	0.7782	0.029	0.845	0.112
Mof_C 	C 	0.9026	0.0885	0.6835	0.117
Mof_C 	C 	0.8158	0.987	0.6751	0.2
Mof_C 	C 	0.9431	0.4784	0.6577	0.188
Mof_C 	C 	0.7782	0.471	0.655	0.117
Mof_C 	C 	0.9026	0.4115	0.8165	0.12
Mof_C 	C 	0.8158	0.513	0.8249	0.119
Mof_C 	C 	0.4431	0.8423	0.4784	0.121
Mof_C 	C 	0.2782	0.845	0.471	0.118
Mof_C 	C 	0.4026	0.6835	0.4115	0.115
Mof_C 	C 	0.3158	0.6751	0.513	0.115
Mof_C 	C 	0.4431	0.6577	0.0216	0.114
Mof_C 	C 	0.2782	0.655	0.029	0.109
Mof_C 	C 	0.4026	0.8165	0.0885	0.114
Mof_C 	C 	0.3158	0.8249	0.987	0.198
Mof_C 	C 	0.4431	0.0216	0.6577	0.114
Mof_C 	C 	0.2782	0.029	0.655	0.109
Mof_C 	C 	0.4026	0.0885	0.8165	0.114
Mof_C 	C 	0.3158	0.987	0.8249	0.198
Mof_C 	C 	0.4431	0.4784	0.8423	0.121
Mof_C 	C 	0.2782	0.471	0.845	0.118
Mof_C 	C 	0.4026	0.4115	0.6835	0.115
Mof_C 	C 	0.3158	0.513	0.6751	0.115
Mof_C 	C 	0.9431	0.8423	0.0216	0.185
Mof_C 	C 	0.7782	0.845	0.029	0.112
Mof_C 	C 	0.9026	0.6835	0.0885	0.117
Mof_C 	C 	0.8158	0.6751	0.987	0.2
Mof_C 	C 	0.9431	0.6577	0.4784	0.188
Mof_C 	C 	0.7782	0.655	0.471	0.117
Mof_C 	C 	0.9026	0.8165	0.4115	0.12
Mof_C 	C 	0.8158	0.8249	0.513	0.119
Mof_C 	C 	0.0569	0.9784	0.1577	0.06
Mof_C 	C 	0.2218	0.971	0.155	0.121
Mof_C 	C 	0.0974	0.9115	0.3165	0.113
Mof_C 	C 	0.1842	0.013	0.3249	0.01
Mof_C 	C 	0.0569	0.5216	0.3423	0.048
Mof_C 	C 	0.2218	0.529	0.345	0.114
Mof_C 	C 	0.0974	0.5885	0.1835	0.11
Mof_C 	C 	0.1842	0.487	0.1751	0.109
Mof_C 	C 	0.5569	0.1577	0.5216	0.118
Mof_C 	C 	0.7218	0.155	0.529	0.114
Mof_C 	C 	0.5974	0.3165	0.5885	0.114
Mof_C 	C 	0.6842	0.3249	0.487	0.114
Mof_C 	C 	0.5569	0.3423	0.9784	0.127
Mof_C 	C 	0.7218	0.345	0.971	0.124
Mof_C 	C 	0.5974	0.1835	0.9115	0.117
Mof_C 	C 	0.6842	0.1751	0.013	0.012
Mof_N 	N 	0.5855	0.9806	0.4104	-0.168
Mof_N 	N 	0.6899	0.9773	0.4128	-0.175
Mof_N 	N 	0.6395	0.9717	0.2992	-0.091
Mof_N 	N 	0.6129	0.9225	0.1137	-0.097
Mof_N 	N 	0.6682	0.988	0.1091	-0.141
Mof_N 	N 	0.6399	0.9658	0.2233	-0.063
Mof_N 	N 	0.5855	0.5194	0.0896	-0.185
Mof_N 	N 	0.6899	0.5227	0.0872	-0.192
Mof_N 	N 	0.6395	0.5283	0.2008	-0.094
Mof_N 	N 	0.6129	0.5775	0.3863	-0.098
Mof_N 	N 	0.6682	0.512	0.3909	-0.186
Mof_N 	N 	0.6399	0.5342	0.2767	-0.096
Mof_N 	N 	0.0855	0.0896	0.9806	-0.166
Mof_N 	N 	0.1899	0.0872	0.9773	-0.186
Mof_N 	N 	0.1395	0.2008	0.9717	-0.083
Mof_N 	N 	0.1129	0.3863	0.9225	-0.1
Mof_N 	N 	0.1682	0.3909	0.988	-0.141
Mof_N 	N 	0.1399	0.2767	0.9658	-0.067
Mof_N 	N 	0.0855	0.4104	0.5194	-0.173
Mof_N 	N 	0.1899	0.4128	0.5227	-0.182
Mof_N 	N 	0.1395	0.2992	0.5283	-0.084
Mof_N 	N 	0.1129	0.1137	0.5775	-0.108
Mof_N 	N 	0.1682	0.1091	0.512	-0.192
Mof_N 	N 	0.1399	0.2233	0.5342	-0.1
Mof_N 	N 	0.9145	0.0194	0.9104	-0.175
Mof_N 	N 	0.8101	0.0227	0.9128	-0.172
Mof_N 	N 	0.8605	0.0283	0.7992	-0.103
Mof_N 	N 	0.8871	0.0775	0.6137	-0.095
Mof_N 	N 	0.8318	0.012	0.6091	-0.222
Mof_N 	N 	0.8601	0.0342	0.7233	-0.118
Mof_N 	N 	0.9145	0.4806	0.5896	-0.181
Mof_N 	N 	0.8101	0.4773	0.5872	-0.18
Mof_N 	N 	0.8605	0.4717	0.7008	-0.102
Mof_N 	N 	0.8871	0.4225	0.8863	-0.089
Mof_N 	N 	0.8318	0.488	0.8909	-0.18
Mof_N 	N 	0.8601	0.4658	0.7767	-0.092
Mof_N 	N 	0.4145	0.9104	0.4806	-0.168
Mof_N 	N 	0.3101	0.9128	0.4773	-0.17
Mof_N 	N 	0.3605	0.7992	0.4717	-0.093
Mof_N 	N 	0.3871	0.6137	0.4225	-0.098
Mof_N 	N 	0.3318	0.6091	0.488	-0.185
Mof_N 	N 	0.3601	0.7233	0.4658	-0.095
Mof_N 	N 	0.4145	0.5896	0.0194	-0.185
Mof_N 	N 	0.3101	0.5872	0.0227	-0.187
Mof_N 	N 	0.3605	0.7008	0.0283	-0.095
Mof_N 	N 	0.3871	0.8863	0.0775	-0.098
Mof_N 	N 	0.3318	0.8909	0.012	-0.22
Mof_N 	N 	0.3601	0.7767	0.0342	-0.122
Mof_N 	N 	0.4145	0.0194	0.5896	-0.185
Mof_N 	N 	0.3101	0.0227	0.5872	-0.187
Mof_N 	N 	0.3605	0.0283	0.7008	-0.095
Mof_N 	N 	0.3871	0.0775	0.8863	-0.098
Mof_N 	N 	0.3318	0.012	0.8909	-0.22
Mof_N 	N 	0.3601	0.0342	0.7767	-0.122
Mof_N 	N 	0.4145	0.4806	0.9104	-0.168
Mof_N 	N 	0.3101	0.4773	0.9128	-0.17
Mof_N 	N 	0.3605	0.4717	0.7992	-0.093
Mof_N 	N 	0.3871	0.4225	0.6137	-0.098
Mof_N 	N 	0.3318	0.488	0.6091	-0.185
Mof_N 	N 	0.3601	0.4658	0.7233	-0.095
Mof_N 	N 	0.9145	0.9104	0.0194	-0.175
Mof_N 	N 	0.8101	0.9128	0.0227	-0.172
Mof_N 	N 	0.8605	0.7992	0.0283	-0.103
Mof_N 	N 	0.8871	0.6137	0.0775	-0.095
Mof_N 	N 	0.8318	0.6091	0.012	-0.222
Mof_N 	N 	0.8601	0.7233	0.0342	-0.118
Mof_N 	N 	0.9145	0.5896	0.4806	-0.181
Mof_N 	N 	0.8101	0.5872	0.4773	-0.18
Mof_N 	N 	0.8605	0.7008	0.4717	-0.102
Mof_N 	N 	0.8871	0.8863	0.4225	-0.089
Mof_N 	N 	0.8318	0.8909	0.488	-0.18
Mof_N 	N 	0.8601	0.7767	0.4658	-0.092
Mof_N 	N 	0.0855	0.9806	0.0896	-0.166
Mof_N 	N 	0.1899	0.9773	0.0872	-0.186
Mof_N 	N 	0.1395	0.9717	0.2008	-0.083
Mof_N 	N 	0.1129	0.9225	0.3863	-0.1
Mof_N 	N 	0.1682	0.988	0.3909	-0.141
Mof_N 	N 	0.1399	0.9658	0.2767	-0.067
Mof_N 	N 	0.0855	0.5194	0.4104	-0.173
Mof_N 	N 	0.1899	0.5227	0.4128	-0.182
Mof_N 	N 	0.1395	0.5283	0.2992	-0.084
Mof_N 	N 	0.1129	0.5775	0.1137	-0.108
Mof_N 	N 	0.1682	0.512	0.1091	-0.192
Mof_N 	N 	0.1399	0.5342	0.2233	-0.1
Mof_N 	N 	0.5855	0.0896	0.5194	-0.185
Mof_N 	N 	0.6899	0.0872	0.5227	-0.192
Mof_N 	N 	0.6395	0.2008	0.5283	-0.094
Mof_N 	N 	0.6129	0.3863	0.5775	-0.098
Mof_N 	N 	0.6682	0.3909	0.512	-0.186
Mof_N 	N 	0.6399	0.2767	0.5342	-0.096
Mof_N 	N 	0.5855	0.4104	0.9806	-0.168
Mof_N 	N 	0.6899	0.4128	0.9773	-0.175
Mof_N 	N 	0.6395	0.2992	0.9717	-0.091
Mof_N 	N 	0.6129	0.1137	0.9225	-0.097
Mof_N 	N 	0.6682	0.1091	0.988	-0.141
Mof_N 	N 	0.6399	0.2233	0.9658	-0.063
Mof_Cl	Cl	0.6232	0.92	0.58	-0.462
Mof_Cl	Cl	0.6232	0.58	0.92	-0.462
Mof_Cl	Cl	0.1232	0.92	0.92	-0.454
Mof_Cl	Cl	0.1232	0.58	0.58	-0.498
Mof_Cl	Cl	0.8768	0.08	0.08	-0.513
Mof_Cl	Cl	0.8768	0.42	0.42	-0.473
Mof_Cl	Cl	0.3768	0.08	0.42	-0.511
Mof_Cl	Cl	0.3768	0.42	0.08	-0.511
Mof_Hg	Hg	0.75	0.75	0.25	0.337
Mof_Cl	Cl	0.85881	0.8564	0.21344	-0.266
Mof_Cl	Cl	0.85881	0.6436	0.28656	-0.273
Mof_Cl	Cl	0.64119	0.71344	0.1436	-0.288
Mof_Cl	Cl	0.64119	0.78656	0.3564	-0.284
Mof_Hg	Hg	0.25	0.25	0.75	0.336
Mof_Cl	Cl	0.35881	0.28656	0.8564	-0.278
Mof_Cl	Cl	0.35881	0.21344	0.6436	-0.284
Mof_Cl	Cl	0.14119	0.1436	0.78656	-0.3
Mof_Cl	Cl	0.14119	0.3564	0.71344	-0.294
Mof_Hg	Hg	0.75	0.25	0.75	0.337
Mof_Cl	Cl	0.64119	0.1436	0.71344	-0.288
Mof_Cl	Cl	0.64119	0.3564	0.78656	-0.284
Mof_Cl	Cl	0.85881	0.28656	0.6436	-0.273
Mof_Cl	Cl	0.85881	0.21344	0.8564	-0.266
Mof_Hg	Hg	0.25	0.75	0.25	0.336
Mof_Cl	Cl	0.14119	0.71344	0.3564	-0.294
Mof_Cl	Cl	0.14119	0.78656	0.1436	-0.3
Mof_Cl	Cl	0.35881	0.8564	0.28656	-0.278
Mof_Cl	Cl	0.35881	0.6436	0.21344	-0.284
_end
