data_functionalizedCrystal
_audit_creation_method	'EQeq! by Chris Wilmer'
_symmetry_space_group_name_H-M	'P1'
_symmetry_Int_Tables_number	1
_symmetry_cell_setting	triclinic
loop_
_symmetry_equiv_pos_as_xyz
  x,y,z
_cell_length_a	11.0437
_cell_length_b	11.0107
_cell_length_c	11.0222
_cell_angle_alpha	83.364
_cell_angle_beta	85.871
_cell_angle_gamma	77.346
loop_
_atom_site_label
_atom_site_type_symbol
_atom_site_fract_x
_atom_site_fract_y
_atom_site_fract_z
_atom_site_charge
Mof_Co	Co	0.0869	0.90366	0.25111	1.155
Mof_Co	Co	0.9718	0.85856	0.00277	1.116
Mof_Co	Co	0.8537	0.99996	0.48949	1.11
Mof_O 	O 	0.0925	0.9412	0.0659	-0.708
Mof_O 	O 	0.048	0.9035	0.4318	-0.623
Mof_O 	O 	0.33	0.9369	0.4378	-0.426
Mof_O 	O 	0.279	0.8641	0.2692	-0.421
Mof_O 	O 	0.0386	0.6743	0.0756	-0.441
Mof_O 	O 	0.1031	0.7111	0.2519	-0.43
Mof_N 	N 	0.8425	0.8951	0.1428	-0.229
Mof_N 	N 	0.89	0.9152	0.2444	-0.195
Mof_N 	N 	0.8047	0.9252	0.3354	-0.21
Mof_N 	N 	0.0743	0.1862	0.1615	-0.22
Mof_N 	N 	0.0952	0.0948	0.2542	-0.192
Mof_N 	N 	0.1157	0.1363	0.3567	-0.212
Mof_C 	C 	0.6957	0.9102	0.2942	0.038
Mof_C 	C 	0.7193	0.8924	0.1684	0.064
Mof_C 	C 	0.502	0.8806	0.1554	0.03
Mof_H 	H 	0.4378	0.8721	0.1094	0.021
Mof_C 	C 	0.6208	0.8786	0.1004	-0.134
Mof_H 	H 	0.6348	0.8681	0.0177	0.06
Mof_C 	C 	0.481	0.8956	0.2816	-0.097
Mof_C 	C 	0.5777	0.9122	0.3493	-0.054
Mof_H 	H 	0.5631	0.9247	0.4316	0.06
Mof_C 	C 	0.357	0.899	0.3321	0.349
Mof_C 	C 	0.079	0.2957	0.209	0.039
Mof_C 	C 	0.103	0.2643	0.3314	0.07
Mof_C 	C 	0.113	0.3539	0.4102	-0.131
Mof_H 	H 	0.1212	0.3336	0.4938	0.068
Mof_C 	C 	0.108	0.4732	0.3549	0.027
Mof_H 	H 	0.1195	0.5348	0.4013	0.034
Mof_C 	C 	0.086	0.5035	0.2344	-0.079
Mof_C 	C 	0.07	0.4192	0.1574	-0.065
Mof_H 	H 	0.0538	0.4431	0.0755	0.065
Mof_C 	C 	0.074	0.6416	0.1831	0.367
Mof_H 	H 	0.181	0.919	0.043	0.165
Mof_H 	H 	0.968	0.883	0.448	0.029
Mof_Co	Co	0.9131	0.09634	0.74889	1.155
Mof_Co	Co	0.0282	0.14144	0.99723	1.116
Mof_Co	Co	0.1463	4e-05	0.51051	1.11
Mof_O 	O 	0.9075	0.0588	0.9341	-0.708
Mof_O 	O 	0.952	0.0965	0.5682	-0.623
Mof_O 	O 	0.67	0.0631	0.5622	-0.426
Mof_O 	O 	0.721	0.1359	0.7308	-0.421
Mof_O 	O 	0.9614	0.3257	0.9244	-0.441
Mof_O 	O 	0.8969	0.2889	0.7481	-0.43
Mof_N 	N 	0.1575	0.1049	0.8572	-0.229
Mof_N 	N 	0.11	0.0848	0.7556	-0.195
Mof_N 	N 	0.1953	0.0748	0.6646	-0.21
Mof_N 	N 	0.9257	0.8138	0.8385	-0.22
Mof_N 	N 	0.9048	0.9052	0.7458	-0.192
Mof_N 	N 	0.8843	0.8637	0.6433	-0.212
Mof_C 	C 	0.3043	0.0898	0.7058	0.038
Mof_C 	C 	0.2807	0.1076	0.8316	0.064
Mof_C 	C 	0.498	0.1194	0.8446	0.03
Mof_H 	H 	0.5622	0.1279	0.8906	0.021
Mof_C 	C 	0.3792	0.1214	0.8996	-0.134
Mof_H 	H 	0.3652	0.1319	0.9823	0.06
Mof_C 	C 	0.519	0.1044	0.7184	-0.097
Mof_C 	C 	0.4223	0.0878	0.6507	-0.054
Mof_H 	H 	0.4369	0.0753	0.5684	0.06
Mof_C 	C 	0.643	0.101	0.6679	0.349
Mof_C 	C 	0.921	0.7043	0.791	0.039
Mof_C 	C 	0.897	0.7357	0.6686	0.07
Mof_C 	C 	0.887	0.6461	0.5898	-0.131
Mof_H 	H 	0.8788	0.6664	0.5062	0.068
Mof_C 	C 	0.892	0.5268	0.6451	0.027
Mof_H 	H 	0.8805	0.4652	0.5987	0.034
Mof_C 	C 	0.914	0.4965	0.7656	-0.079
Mof_C 	C 	0.93	0.5808	0.8426	-0.065
Mof_H 	H 	0.9462	0.5569	0.9245	0.065
Mof_C 	C 	0.926	0.3584	0.8169	0.367
Mof_H 	H 	0.819	0.081	0.957	0.165
Mof_H 	H 	0.032	0.117	0.552	0.029
_end
