data_functionalizedCrystal
_audit_creation_method	'EQeq! by Chris Wilmer'
_symmetry_space_group_name_H-M	'P1'
_symmetry_Int_Tables_number	1
_symmetry_cell_setting	triclinic
loop_
_symmetry_equiv_pos_as_xyz
  x,y,z
_cell_length_a	10.3862
_cell_length_b	10.3862
_cell_length_c	9.2089
_cell_angle_alpha	90
_cell_angle_beta	90
_cell_angle_gamma	120
loop_
_atom_site_label
_atom_site_type_symbol
_atom_site_fract_x
_atom_site_fract_y
_atom_site_fract_z
_atom_site_charge
Mof_P 	P 	0.88002	0.29352	0.09044	0.532
Mof_H 	H 	0.02	0.343	0.091	-0.1
Mof_O 	O 	0.8512	0.3935	0.1927	-0.391
Mof_O 	O 	0.8404	0.3102	0.9335	-0.368
Mof_O 	O 	0.8063	0.1345	0.144	-0.34
Mof_P 	P 	0.70648	0.5865	0.09044	0.463
Mof_H 	H 	0.657	0.677	0.091	-0.03
Mof_O 	O 	0.6065	0.4577	0.1927	-0.419
Mof_O 	O 	0.6898	0.5302	0.9335	-0.394
Mof_O 	O 	0.8655	0.6718	0.144	-0.272
Mof_P 	P 	0.4135	0.11998	0.09044	0.386
Mof_H 	H 	0.323	0.98	0.091	0.027
Mof_O 	O 	0.5423	0.1488	0.1927	-0.418
Mof_O 	O 	0.4698	0.1596	0.9335	-0.396
Mof_O 	O 	0.3282	0.1937	0.144	-0.353
Mof_P 	P 	0.29352	0.88002	0.40956	0.539
Mof_H 	H 	0.343	0.02	0.409	-0.102
Mof_O 	O 	0.3935	0.8512	0.3073	-0.389
Mof_O 	O 	0.3102	0.8404	0.5665	-0.37
Mof_O 	O 	0.1345	0.8063	0.356	-0.338
Mof_P 	P 	0.5865	0.70648	0.40956	0.464
Mof_H 	H 	0.677	0.657	0.409	-0.03
Mof_O 	O 	0.4577	0.6065	0.3073	-0.419
Mof_O 	O 	0.5302	0.6898	0.5665	-0.394
Mof_O 	O 	0.6718	0.8655	0.356	-0.27
Mof_P 	P 	0.11998	0.4135	0.40956	0.389
Mof_H 	H 	0.98	0.323	0.409	0.025
Mof_O 	O 	0.1488	0.5423	0.3073	-0.418
Mof_O 	O 	0.1596	0.4698	0.5665	-0.397
Mof_O 	O 	0.1937	0.3282	0.356	-0.353
Mof_P 	P 	0.11998	0.70648	0.90956	0.379
Mof_H 	H 	0.98	0.657	0.909	0.034
Mof_O 	O 	0.1488	0.6065	0.8073	-0.412
Mof_O 	O 	0.1596	0.6898	0.0665	-0.388
Mof_O 	O 	0.1937	0.8655	0.856	-0.289
Mof_P 	P 	0.29352	0.4135	0.90956	0.466
Mof_H 	H 	0.343	0.323	0.909	-0.047
Mof_O 	O 	0.3935	0.5423	0.8073	-0.426
Mof_O 	O 	0.3102	0.4698	0.0665	-0.403
Mof_O 	O 	0.1345	0.3282	0.856	-0.357
Mof_P 	P 	0.5865	0.88002	0.90956	0.535
Mof_H 	H 	0.677	0.02	0.909	-0.09
Mof_O 	O 	0.4577	0.8512	0.8073	-0.389
Mof_O 	O 	0.5302	0.8404	0.0665	-0.365
Mof_O 	O 	0.6718	0.8063	0.856	-0.319
Mof_P 	P 	0.70648	0.11998	0.59044	0.383
Mof_H 	H 	0.657	0.98	0.591	0.033
Mof_O 	O 	0.6065	0.1488	0.6927	-0.412
Mof_O 	O 	0.6898	0.1596	0.4335	-0.391
Mof_O 	O 	0.8655	0.1937	0.644	-0.286
Mof_P 	P 	0.4135	0.29352	0.59044	0.467
Mof_H 	H 	0.323	0.343	0.591	-0.048
Mof_O 	O 	0.5423	0.3935	0.6927	-0.426
Mof_O 	O 	0.4698	0.3102	0.4335	-0.403
Mof_O 	O 	0.3282	0.1345	0.644	-0.357
Mof_P 	P 	0.88002	0.5865	0.59044	0.541
Mof_H 	H 	0.02	0.677	0.591	-0.093
Mof_O 	O 	0.8512	0.4577	0.6927	-0.388
Mof_O 	O 	0.8404	0.5302	0.4335	-0.367
Mof_O 	O 	0.8063	0.6718	0.644	-0.319
Mof_Fe	Fe	0.6133	-3.66783e-33	0.25	0.756
Mof_Fe	Fe	-2.71458e-17	0.6133	0.25	0.761
Mof_Fe	Fe	0.3867	0.3867	0.25	0.885
Mof_Fe	Fe	0.3867	0	0.75	0.753
Mof_Fe	Fe	1.76732e-17	0.3867	0.75	0.748
Mof_Fe	Fe	0.6133	0.6133	0.75	0.902
Mof_Fe	Fe	0.66667	0.33333	0.33453	0.867
Mof_Fe	Fe	0.33333	0.66667	0.16547	0.867
Mof_Fe	Fe	0.33333	0.66667	0.66547	0.867
Mof_Fe	Fe	0.66667	0.33333	0.83453	0.867
_end
