data_functionalizedCrystal
_audit_creation_method	'EQeq! by Chris Wilmer'
_symmetry_space_group_name_H-M	'P1'
_symmetry_Int_Tables_number	1
_symmetry_cell_setting	triclinic
loop_
_symmetry_equiv_pos_as_xyz
  x,y,z
_cell_length_a	10.861
_cell_length_b	6.3914
_cell_length_c	17.003
_cell_angle_alpha	90
_cell_angle_beta	105.828
_cell_angle_gamma	90
loop_
_atom_site_label
_atom_site_type_symbol
_atom_site_fract_x
_atom_site_fract_y
_atom_site_fract_z
_atom_site_charge
Mof_Zn	Zn	0.46915	0.99808	0.08438	1.189
Mof_O 	O 	0.3445	0.5323	0.0499	-0.502
Mof_O 	O 	0.276	0.8608	0.0346	-0.48
Mof_O 	O 	0.3597	0.6279	0.3446	-0.5
Mof_O 	O 	0.3825	0.9607	0.3808	-0.467
Mof_O 	O 	0.5551	0.8094	0.0167	-0.759
Mof_H 	H 	0.6469	0.8094	0.0446	0.178
Mof_C 	C 	0.2566	0.6701	0.036	0.417
Mof_C 	C 	0.1235	0.5837	0.0199	-0.261
Mof_C 	C 	0.0364	0.6527	0.062	0.153
Mof_C 	C 	0.9136	0.5689	0.0392	-0.218
Mof_H 	H 	0.8539	0.618	0.065	0.096
Mof_C 	C 	0.0761	0.8023	0.1311	-0.119
Mof_C 	C 	0.0187	0.9936	0.131	0.133
Mof_H 	H 	0.9494	0.0309	0.0876	-0.033
Mof_C 	C 	0.0637	0.131	0.1953	-0.204
Mof_H 	H 	0.0253	0.2613	0.1946	0.1
Mof_C 	C 	0.1655	0.0756	0.2604	0.047
Mof_H 	H 	0.1966	0.1709	0.3024	0.005
Mof_C 	C 	0.222	0.8804	0.2641	-0.142
Mof_C 	C 	0.1756	0.7442	0.1984	0.048
Mof_H 	H 	0.2119	0.612	0.1996	0.013
Mof_C 	C 	0.3306	0.8154	0.3353	0.416
Mof_Zn	Zn	0.53085	0.49808	0.41562	1.187
Mof_O 	O 	0.6555	0.0323	0.4501	-0.494
Mof_O 	O 	0.724	0.3608	0.4654	-0.462
Mof_O 	O 	0.6403	0.1279	0.1554	-0.522
Mof_O 	O 	0.6175	0.4607	0.1192	-0.5
Mof_O 	O 	0.4449	0.3094	0.4833	-0.743
Mof_H 	H 	0.3531	0.3094	0.4554	0.175
Mof_C 	C 	0.7434	0.1701	0.464	0.406
Mof_C 	C 	0.8765	0.0837	0.4801	-0.203
Mof_C 	C 	0.9636	0.1527	0.438	0.129
Mof_C 	C 	0.0864	0.0689	0.4608	-0.173
Mof_H 	H 	0.1461	0.118	0.435	0.079
Mof_C 	C 	0.9239	0.3023	0.3689	-0.071
Mof_C 	C 	0.9813	0.4936	0.369	0.032
Mof_H 	H 	0.0506	0.5309	0.4124	0.026
Mof_C 	C 	0.9363	0.631	0.3047	-0.121
Mof_H 	H 	0.9747	0.7613	0.3054	0.09
Mof_C 	C 	0.8345	0.5756	0.2396	0.058
Mof_H 	H 	0.8034	0.6709	0.1976	0.013
Mof_C 	C 	0.778	0.3804	0.2359	-0.163
Mof_C 	C 	0.8244	0.2442	0.3016	0.03
Mof_H 	H 	0.7881	0.112	0.3004	0.014
Mof_C 	C 	0.6694	0.3154	0.1647	0.422
Mof_Zn	Zn	0.53085	0.00192	0.91562	1.184
Mof_O 	O 	0.6555	0.4677	0.9501	-0.433
Mof_O 	O 	0.724	0.1392	0.9654	-0.423
Mof_O 	O 	0.6403	0.3721	0.6554	-0.497
Mof_O 	O 	0.6175	0.0393	0.6192	-0.501
Mof_O 	O 	0.4449	0.1906	0.9833	-0.711
Mof_H 	H 	0.3531	0.1906	0.9554	0.182
Mof_C 	C 	0.7434	0.3299	0.964	0.324
Mof_C 	C 	0.8765	0.4163	0.9801	0.064
Mof_C 	C 	0.9636	0.3473	0.938	-0.087
Mof_C 	C 	0.0864	0.4311	0.9608	0.149
Mof_H 	H 	0.1461	0.382	0.935	-0.012
Mof_C 	C 	0.9239	0.1977	0.8689	0.115
Mof_C 	C 	0.9813	0.0064	0.869	-0.233
Mof_H 	H 	0.0506	0.9691	0.9124	0.157
Mof_C 	C 	0.9363	0.869	0.8047	0.081
Mof_H 	H 	0.9747	0.7387	0.8054	0.017
Mof_C 	C 	0.8345	0.9244	0.7396	-0.025
Mof_H 	H 	0.8034	0.8291	0.6976	0.049
Mof_C 	C 	0.778	0.1196	0.7359	-0.11
Mof_C 	C 	0.8244	0.2558	0.8016	-0.086
Mof_H 	H 	0.7881	0.388	0.8004	0.062
Mof_C 	C 	0.6694	0.1846	0.6647	0.4
Mof_Zn	Zn	0.46915	0.50192	0.58438	1.186
Mof_O 	O 	0.3445	0.9677	0.5499	-0.443
Mof_O 	O 	0.276	0.6392	0.5346	-0.442
Mof_O 	O 	0.3597	0.8721	0.8446	-0.471
Mof_O 	O 	0.3825	0.5393	0.8808	-0.465
Mof_O 	O 	0.5551	0.6906	0.5167	-0.73
Mof_H 	H 	0.6469	0.6906	0.5446	0.186
Mof_C 	C 	0.2566	0.8299	0.536	0.336
Mof_C 	C 	0.1235	0.9163	0.5199	0.007
Mof_C 	C 	0.0364	0.8473	0.562	-0.059
Mof_C 	C 	0.9136	0.9311	0.5392	0.1
Mof_H 	H 	0.8539	0.882	0.565	0.007
Mof_C 	C 	0.0761	0.6977	0.6311	0.065
Mof_C 	C 	0.0187	0.5064	0.631	-0.127
Mof_H 	H 	0.9494	0.4691	0.5876	0.094
Mof_C 	C 	0.0637	0.369	0.6953	-0.006
Mof_H 	H 	0.0253	0.2387	0.6946	0.026
Mof_C 	C 	0.1655	0.4244	0.7604	-0.037
Mof_H 	H 	0.1966	0.3291	0.8024	0.04
Mof_C 	C 	0.222	0.6196	0.7641	-0.088
Mof_C 	C 	0.1756	0.7558	0.6984	-0.068
Mof_H 	H 	0.2119	0.888	0.6996	0.062
Mof_C 	C 	0.3306	0.6846	0.8353	0.393
Mof_Zn	Zn	0.5	0.5	-0	1.22
Mof_Zn	Zn	0.5	0	0.5	1.229
_end
