data_functionalizedCrystal
_audit_creation_method	'EQeq! by Chris Wilmer'
_symmetry_space_group_name_H-M	'P1'
_symmetry_Int_Tables_number	1
_symmetry_cell_setting	triclinic
loop_
_symmetry_equiv_pos_as_xyz
  x,y,z
_cell_length_a	14.669
_cell_length_b	16.6639
_cell_length_c	16.6639
_cell_angle_alpha	60.6724
_cell_angle_beta	63.887
_cell_angle_gamma	63.8871
loop_
_atom_site_label
_atom_site_type_symbol
_atom_site_fract_x
_atom_site_fract_y
_atom_site_fract_z
_atom_site_charge
Mof_Cu	Cu	0.4272	0.04758	0.95242	0.919
Mof_Cu	Cu	0.5728	0.95242	0.04758	0.919
Mof_Cu	Cu	0.0728	0.54758	0.45242	0.922
Mof_Cu	Cu	0.9272	0.45242	0.54758	0.922
Mof_Cu	Cu	0.25	0.556	0.944	0.898
Mof_Cu	Cu	0.25	0.944	0.556	0.898
Mof_Cu	Cu	0.75	0.444	0.056	0.898
Mof_Cu	Cu	0.75	0.056	0.444	0.898
Mof_H 	H 	0.5735	0.4425	0.1773	0.122
Mof_H 	H 	0.618	0.4951	0.1921	0.136
Mof_H 	H 	0.5966	0.6636	0.1032	0.083
Mof_H 	H 	0.4564	0.5176	0.0852	0.081
Mof_H 	H 	0.3715	0.807	0.9676	0.07
Mof_H 	H 	0.8067	0.1773	0.4425	0.122
Mof_H 	H 	0.6948	0.1921	0.4951	0.136
Mof_H 	H 	0.6366	0.1032	0.6636	0.084
Mof_H 	H 	0.9408	0.0852	0.5176	0.082
Mof_H 	H 	0.8539	0.9676	0.807	0.073
Mof_H 	H 	0.9265	0.3227	0.0575	0.123
Mof_H 	H 	0.882	0.3079	0.0049	0.137
Mof_H 	H 	0.9034	0.3968	0.8364	0.081
Mof_H 	H 	0.0436	0.4148	0.9824	0.08
Mof_H 	H 	0.1285	0.5324	0.693	0.064
Mof_H 	H 	0.6933	0.0575	0.3227	0.123
Mof_H 	H 	0.8052	0.0049	0.3079	0.137
Mof_H 	H 	0.8634	0.8364	0.3968	0.081
Mof_H 	H 	0.5592	0.9824	0.4148	0.08
Mof_H 	H 	0.6461	0.693	0.5324	0.064
Mof_H 	H 	0.4265	0.5575	0.8227	0.122
Mof_H 	H 	0.382	0.5049	0.8079	0.136
Mof_H 	H 	0.4034	0.3364	0.8968	0.083
Mof_H 	H 	0.5436	0.4824	0.9148	0.081
Mof_H 	H 	0.6285	0.193	0.0324	0.07
Mof_H 	H 	0.1933	0.8227	0.5575	0.122
Mof_H 	H 	0.3052	0.8079	0.5049	0.136
Mof_H 	H 	0.3634	0.8968	0.3364	0.084
Mof_H 	H 	0.0592	0.9148	0.4824	0.082
Mof_H 	H 	0.1461	0.0324	0.193	0.073
Mof_H 	H 	0.0735	0.6773	0.9425	0.123
Mof_H 	H 	0.118	0.6921	0.9951	0.137
Mof_H 	H 	0.0966	0.6032	0.1636	0.081
Mof_H 	H 	0.9564	0.5852	0.0176	0.08
Mof_H 	H 	0.8715	0.4676	0.307	0.064
Mof_H 	H 	0.3067	0.9425	0.6773	0.123
Mof_H 	H 	0.1948	0.9951	0.6921	0.137
Mof_H 	H 	0.1366	0.1636	0.6032	0.081
Mof_H 	H 	0.4408	0.0176	0.5852	0.08
Mof_H 	H 	0.3539	0.307	0.4676	0.064
Mof_H 	H 	0.2198	0.0434	0.9566	-0.003
Mof_H 	H 	0.0952	0.1248	0.8752	0.101
Mof_H 	H 	0.1189	0.263	0.737	-0.006
Mof_H 	H 	0.259	0.311	0.689	0.112
Mof_H 	H 	0.3811	0.223	0.777	-0.005
Mof_H 	H 	0.7802	0.9566	0.0434	-0.003
Mof_H 	H 	0.9048	0.8752	0.1248	0.101
Mof_H 	H 	0.8811	0.737	0.263	-0.006
Mof_H 	H 	0.741	0.689	0.311	0.112
Mof_H 	H 	0.6189	0.777	0.223	-0.005
Mof_H 	H 	0.2802	0.5434	0.4566	-0
Mof_H 	H 	0.4048	0.6248	0.3752	0.101
Mof_H 	H 	0.3811	0.763	0.237	-0.005
Mof_H 	H 	0.241	0.811	0.189	0.111
Mof_H 	H 	0.1189	0.723	0.277	-0.005
Mof_H 	H 	0.7198	0.4566	0.5434	-0
Mof_H 	H 	0.5952	0.3752	0.6248	0.101
Mof_H 	H 	0.6189	0.237	0.763	-0.005
Mof_H 	H 	0.759	0.189	0.811	0.111
Mof_H 	H 	0.8811	0.277	0.723	-0.005
Mof_C 	C 	0.3259	0.6616	0.9838	0.332
Mof_C 	C 	0.4869	0.7501	0.0319	-0.037
Mof_C 	C 	0.5481	0.6633	0.0817	-0.111
Mof_C 	C 	0.5389	0.577	0.1	0.105
Mof_C 	C 	0.465	0.5758	0.0706	-0.102
Mof_C 	C 	0.4034	0.6615	0.0195	-0.041
Mof_C 	C 	0.4136	0.7495	0.0007	-0.032
Mof_C 	C 	0.4947	0.8442	0.0152	0.344
Mof_C 	C 	0.0287	0.9838	0.6616	0.331
Mof_C 	C 	0.7311	0.0319	0.7501	-0.035
Mof_C 	C 	0.7069	0.0817	0.6633	-0.112
Mof_C 	C 	0.7841	0.1	0.577	0.106
Mof_C 	C 	0.8886	0.0706	0.5758	-0.103
Mof_C 	C 	0.9156	0.0195	0.6615	-0.039
Mof_C 	C 	0.8362	0.0007	0.7495	-0.036
Mof_C 	C 	0.6459	0.0152	0.8442	0.342
Mof_C 	C 	0.1741	0.5162	0.8384	0.332
Mof_C 	C 	0.0131	0.4681	0.7499	-0.044
Mof_C 	C 	0.9519	0.4183	0.8367	-0.106
Mof_C 	C 	0.9611	0.4	0.923	0.104
Mof_C 	C 	0.035	0.4294	0.9242	-0.1
Mof_C 	C 	0.0966	0.4805	0.8385	-0.044
Mof_C 	C 	0.0864	0.4993	0.7505	-0.021
Mof_C 	C 	0.0053	0.4848	0.6558	0.354
Mof_C 	C 	0.4713	0.8384	0.5162	0.332
Mof_C 	C 	0.7689	0.7499	0.4681	-0.044
Mof_C 	C 	0.7931	0.8367	0.4183	-0.106
Mof_C 	C 	0.7159	0.923	0.4	0.102
Mof_C 	C 	0.6114	0.9242	0.4294	-0.098
Mof_C 	C 	0.5844	0.8385	0.4805	-0.045
Mof_C 	C 	0.6638	0.7505	0.4993	-0.021
Mof_C 	C 	0.8541	0.6558	0.4848	0.354
Mof_C 	C 	0.6741	0.3384	0.0162	0.332
Mof_C 	C 	0.5131	0.2499	0.9681	-0.037
Mof_C 	C 	0.4519	0.3367	0.9183	-0.111
Mof_C 	C 	0.4611	0.423	0.9	0.105
Mof_C 	C 	0.535	0.4242	0.9294	-0.102
Mof_C 	C 	0.5966	0.3385	0.9805	-0.041
Mof_C 	C 	0.5864	0.2505	0.9993	-0.032
Mof_C 	C 	0.5053	0.1558	0.9848	0.344
Mof_C 	C 	0.9713	0.0162	0.3384	0.331
Mof_C 	C 	0.2689	0.9681	0.2499	-0.035
Mof_C 	C 	0.2931	0.9183	0.3367	-0.112
Mof_C 	C 	0.2159	0.9	0.423	0.106
Mof_C 	C 	0.1114	0.9294	0.4242	-0.103
Mof_C 	C 	0.0844	0.9805	0.3385	-0.039
Mof_C 	C 	0.1638	0.9993	0.2505	-0.036
Mof_C 	C 	0.3541	0.9848	0.1558	0.342
Mof_C 	C 	0.8259	0.4838	0.1616	0.332
Mof_C 	C 	0.9869	0.5319	0.2501	-0.044
Mof_C 	C 	0.0481	0.5817	0.1633	-0.106
Mof_C 	C 	0.0389	0.6	0.077	0.104
Mof_C 	C 	0.965	0.5706	0.0758	-0.1
Mof_C 	C 	0.9034	0.5195	0.1615	-0.044
Mof_C 	C 	0.9136	0.5007	0.2495	-0.021
Mof_C 	C 	0.9947	0.5152	0.3442	0.354
Mof_C 	C 	0.5287	0.1616	0.4838	0.332
Mof_C 	C 	0.2311	0.2501	0.5319	-0.044
Mof_C 	C 	0.2069	0.1633	0.5817	-0.106
Mof_C 	C 	0.2841	0.077	0.6	0.102
Mof_C 	C 	0.3886	0.0758	0.5706	-0.098
Mof_C 	C 	0.4156	0.1615	0.5195	-0.045
Mof_C 	C 	0.3362	0.2495	0.5007	-0.021
Mof_C 	C 	0.1459	0.3442	0.5152	0.354
Mof_C 	C 	0.2284	0.0981	0.9019	0.115
Mof_C 	C 	0.1538	0.1459	0.8541	-0.186
Mof_C 	C 	0.1685	0.2285	0.7715	0.135
Mof_C 	C 	0.2488	0.2564	0.7436	-0.203
Mof_C 	C 	0.3223	0.2023	0.7977	0.128
Mof_C 	C 	0.7716	0.9019	0.0981	0.115
Mof_C 	C 	0.8462	0.8541	0.1459	-0.186
Mof_C 	C 	0.8315	0.7715	0.2285	0.135
Mof_C 	C 	0.7512	0.7436	0.2564	-0.203
Mof_C 	C 	0.6777	0.7977	0.2023	0.128
Mof_C 	C 	0.2716	0.5981	0.4019	0.115
Mof_C 	C 	0.3462	0.6459	0.3541	-0.185
Mof_C 	C 	0.3315	0.7285	0.2715	0.134
Mof_C 	C 	0.2512	0.7564	0.2436	-0.202
Mof_C 	C 	0.1777	0.7023	0.2977	0.128
Mof_C 	C 	0.7284	0.4019	0.5981	0.115
Mof_C 	C 	0.6538	0.3541	0.6459	-0.185
Mof_C 	C 	0.6685	0.2715	0.7285	0.134
Mof_C 	C 	0.7488	0.2436	0.7564	-0.202
Mof_C 	C 	0.8223	0.2977	0.7023	0.128
Mof_N 	N 	0.6066	0.4885	0.1471	-0.347
Mof_N 	N 	0.7578	0.1471	0.4885	-0.347
Mof_N 	N 	0.8934	0.3529	0.0115	-0.346
Mof_N 	N 	0.7422	0.0115	0.3529	-0.346
Mof_N 	N 	0.3934	0.5115	0.8529	-0.347
Mof_N 	N 	0.2422	0.8529	0.5115	-0.347
Mof_N 	N 	0.1066	0.6471	0.9885	-0.346
Mof_N 	N 	0.2578	0.9885	0.6471	-0.346
Mof_N 	N 	0.3135	0.1261	0.8739	-0.212
Mof_N 	N 	0.6865	0.8739	0.1261	-0.212
Mof_N 	N 	0.1865	0.6261	0.3739	-0.211
Mof_N 	N 	0.8135	0.3739	0.6261	-0.211
Mof_O 	O 	0.3228	0.5827	0.9973	-0.414
Mof_O 	O 	0.4378	0.9191	0.9713	-0.399
Mof_O 	O 	0.5584	0.8395	0.0497	-0.397
Mof_O 	O 	0.268	0.7393	0.9427	-0.292
Mof_O 	O 	0.0972	0.9973	0.5827	-0.414
Mof_O 	O 	0.6718	0.9713	0.9191	-0.398
Mof_O 	O 	0.5524	0.0497	0.8395	-0.397
Mof_O 	O 	0.05	0.9427	0.7393	-0.293
Mof_O 	O 	0.1772	0.5027	0.9173	-0.414
Mof_O 	O 	0.0622	0.5287	0.5809	-0.407
Mof_O 	O 	0.9416	0.4503	0.6605	-0.398
Mof_O 	O 	0.232	0.5573	0.7607	-0.293
Mof_O 	O 	0.4028	0.9173	0.5027	-0.414
Mof_O 	O 	0.8282	0.5809	0.5287	-0.407
Mof_O 	O 	0.9476	0.6605	0.4503	-0.398
Mof_O 	O 	0.45	0.7607	0.5573	-0.293
Mof_O 	O 	0.6772	0.4173	0.0027	-0.414
Mof_O 	O 	0.5622	0.0809	0.0287	-0.399
Mof_O 	O 	0.4416	0.1605	0.9503	-0.397
Mof_O 	O 	0.732	0.2607	0.0573	-0.292
Mof_O 	O 	0.9028	0.0027	0.4173	-0.414
Mof_O 	O 	0.3282	0.0287	0.0809	-0.398
Mof_O 	O 	0.4476	0.9503	0.1605	-0.397
Mof_O 	O 	0.95	0.0573	0.2607	-0.293
Mof_O 	O 	0.8228	0.4973	0.0827	-0.414
Mof_O 	O 	0.9378	0.4713	0.4191	-0.407
Mof_O 	O 	0.0584	0.5497	0.3395	-0.398
Mof_O 	O 	0.768	0.4427	0.2393	-0.293
Mof_O 	O 	0.5972	0.0827	0.4973	-0.414
Mof_O 	O 	0.1718	0.4191	0.4713	-0.407
Mof_O 	O 	0.0524	0.3395	0.5497	-0.398
Mof_O 	O 	0.55	0.2393	0.4427	-0.293
_end
