data_functionalizedCrystal
_audit_creation_method	'EQeq! by Chris Wilmer'
_symmetry_space_group_name_H-M	'P1'
_symmetry_Int_Tables_number	1
_symmetry_cell_setting	triclinic
loop_
_symmetry_equiv_pos_as_xyz
  x,y,z
_cell_length_a	13.812
_cell_length_b	27.54
_cell_length_c	45.022
_cell_angle_alpha	90
_cell_angle_beta	90
_cell_angle_gamma	90
loop_
_atom_site_label
_atom_site_type_symbol
_atom_site_fract_x
_atom_site_fract_y
_atom_site_fract_z
_atom_site_charge
Mof_Zn	Zn	0.14989	0.54598	0.08331	1.162
Mof_Zn	Zn	0.37732	0.52592	0.91475	1.163
Mof_Zn	Zn	0.67336	0.25762	0.68205	1.163
Mof_Zn	Zn	0.85011	0.95402	0.58331	1.162
Mof_Zn	Zn	0.62268	0.97408	0.41475	1.164
Mof_Zn	Zn	0.32664	0.24238	0.18205	1.164
Mof_Zn	Zn	0.64989	0.45402	0.41669	1.163
Mof_Zn	Zn	0.87732	0.47408	0.58525	1.163
Mof_Zn	Zn	0.17336	0.74238	0.81795	1.164
Mof_Zn	Zn	0.35011	0.04598	0.91669	1.163
Mof_Zn	Zn	0.12268	0.02592	0.08525	1.163
Mof_Zn	Zn	0.82664	0.75762	0.31795	1.164
Mof_H 	H 	0.9596	0.5284	0.054	-0.012
Mof_H 	H 	0.8757	0.5492	0.0107	0.091
Mof_H 	H 	0.1269	0.6038	0.9777	0.079
Mof_H 	H 	0.2023	0.5794	0.021	-0.005
Mof_H 	H 	0.5281	0.5828	0.8831	-0.008
Mof_H 	H 	0.6879	0.6088	0.8892	0.094
Mof_H 	H 	0.6734	0.5639	0.9752	0.089
Mof_H 	H 	0.5179	0.5365	0.9656	-0.005
Mof_H 	H 	0.209	0.6888	0.8738	-0.009
Mof_H 	H 	0.1263	0.6515	0.912	0.08
Mof_H 	H 	0.8749	0.685	0.871	0.08
Mof_H 	H 	0.965	0.7222	0.834	-0.016
Mof_H 	H 	0.3974	0.419	0.9295	-0.007
Mof_H 	H 	0.413	0.3442	0.9058	0.082
Mof_H 	H 	0.4594	0.4161	0.8293	0.083
Mof_H 	H 	0.4382	0.4883	0.8543	-0.01
Mof_H 	H 	0.4356	0.0805	0.8594	-0.01
Mof_H 	H 	0.466	0.151	0.8338	0.08
Mof_H 	H 	0.4016	0.2265	0.9086	0.079
Mof_H 	H 	0.3735	0.1526	0.932	-0.015
Mof_H 	H 	0.6054	0.3382	0.7217	-0.01
Mof_H 	H 	0.5461	0.3491	0.7695	0.079
Mof_H 	H 	0.4996	0.2035	0.7737	0.078
Mof_H 	H 	0.5579	0.1978	0.7253	0.004
Mof_H 	H 	0.0404	0.9716	0.554	-0.012
Mof_H 	H 	0.1243	0.9508	0.5107	0.091
Mof_H 	H 	0.8731	0.8962	0.4777	0.079
Mof_H 	H 	0.7977	0.9206	0.521	-0.005
Mof_H 	H 	0.4719	0.9172	0.3831	-0.008
Mof_H 	H 	0.3121	0.8912	0.3892	0.094
Mof_H 	H 	0.3266	0.9361	0.4752	0.089
Mof_H 	H 	0.4821	0.9635	0.4656	-0.005
Mof_H 	H 	0.791	0.8112	0.3738	-0.009
Mof_H 	H 	0.8737	0.8485	0.412	0.08
Mof_H 	H 	0.1251	0.815	0.371	0.08
Mof_H 	H 	0.035	0.7778	0.334	-0.017
Mof_H 	H 	0.6026	0.081	0.4295	-0.007
Mof_H 	H 	0.587	0.1558	0.4058	0.082
Mof_H 	H 	0.5406	0.0839	0.3293	0.083
Mof_H 	H 	0.5618	0.0117	0.3543	-0.01
Mof_H 	H 	0.5644	0.4195	0.3594	-0.01
Mof_H 	H 	0.534	0.349	0.3338	0.08
Mof_H 	H 	0.5984	0.2735	0.4086	0.079
Mof_H 	H 	0.6265	0.3474	0.432	-0.015
Mof_H 	H 	0.3946	0.1618	0.2217	-0.01
Mof_H 	H 	0.4539	0.1509	0.2695	0.079
Mof_H 	H 	0.5004	0.2965	0.2737	0.078
Mof_H 	H 	0.4421	0.3022	0.2253	0.004
Mof_H 	H 	0.4596	0.4716	0.446	-0.012
Mof_H 	H 	0.3757	0.4508	0.4893	0.091
Mof_H 	H 	0.6269	0.3962	0.5223	0.079
Mof_H 	H 	0.7023	0.4206	0.479	-0.005
Mof_H 	H 	0.0281	0.4172	0.6169	-0.008
Mof_H 	H 	0.1879	0.3912	0.6108	0.094
Mof_H 	H 	0.1734	0.4361	0.5248	0.089
Mof_H 	H 	0.0179	0.4635	0.5344	-0.005
Mof_H 	H 	0.709	0.3112	0.6262	-0.009
Mof_H 	H 	0.6263	0.3485	0.588	0.08
Mof_H 	H 	0.3749	0.315	0.629	0.08
Mof_H 	H 	0.465	0.2778	0.666	-0.017
Mof_H 	H 	0.8974	0.581	0.5705	-0.007
Mof_H 	H 	0.913	0.6558	0.5942	0.082
Mof_H 	H 	0.9594	0.5839	0.6707	0.083
Mof_H 	H 	0.9382	0.5117	0.6457	-0.011
Mof_H 	H 	0.9356	0.9195	0.6406	-0.01
Mof_H 	H 	0.966	0.849	0.6662	0.08
Mof_H 	H 	0.9016	0.7735	0.5914	0.079
Mof_H 	H 	0.8735	0.8474	0.568	-0.015
Mof_H 	H 	0.1054	0.6618	0.7783	-0.01
Mof_H 	H 	0.0461	0.6509	0.7305	0.079
Mof_H 	H 	0.9996	0.7965	0.7263	0.076
Mof_H 	H 	0.0579	0.8022	0.7747	0.005
Mof_H 	H 	0.5404	0.0284	0.946	-0.012
Mof_H 	H 	0.6243	0.0492	0.9893	0.091
Mof_H 	H 	0.3731	0.1038	0.0223	0.079
Mof_H 	H 	0.2977	0.0794	0.979	-0.005
Mof_H 	H 	0.9719	0.0828	0.1169	-0.007
Mof_H 	H 	0.8121	0.1088	0.1108	0.094
Mof_H 	H 	0.8266	0.0639	0.0248	0.089
Mof_H 	H 	0.9821	0.0365	0.0344	-0.005
Mof_H 	H 	0.291	0.1888	0.1262	-0.009
Mof_H 	H 	0.3737	0.1515	0.088	0.08
Mof_H 	H 	0.6251	0.185	0.129	0.08
Mof_H 	H 	0.535	0.2222	0.166	-0.017
Mof_H 	H 	0.1026	0.919	0.0705	-0.007
Mof_H 	H 	0.087	0.8442	0.0942	0.082
Mof_H 	H 	0.0406	0.9161	0.1707	0.083
Mof_H 	H 	0.0618	0.9883	0.1457	-0.01
Mof_H 	H 	0.0644	0.5805	0.1406	-0.01
Mof_H 	H 	0.034	0.651	0.1662	0.08
Mof_H 	H 	0.0984	0.7265	0.0914	0.079
Mof_H 	H 	0.1265	0.6526	0.068	-0.015
Mof_H 	H 	0.8946	0.8382	0.2783	-0.01
Mof_H 	H 	0.9539	0.8491	0.2305	0.079
Mof_H 	H 	0.0004	0.7035	0.2263	0.077
Mof_H 	H 	0.9421	0.6978	0.2747	0.004
Mof_C 	C 	0.9933	0.5443	0.0384	0.065
Mof_C 	C 	0.9424	0.5569	0.0127	-0.119
Mof_C 	C 	0.992	0.5811	0.99023	0.053
Mof_C 	C 	0.0906	0.5889	0.9931	-0.117
Mof_C 	C 	0.1345	0.5744	0.0192	0.07
Mof_C 	C 	0.5591	0.5781	0.9017	0.07
Mof_C 	C 	0.654	0.5945	0.9054	-0.125
Mof_C 	C 	0.6982	0.5898	0.9326	0.048
Mof_C 	C 	0.6457	0.5676	0.956	-0.124
Mof_C 	C 	0.5533	0.5516	0.9501	0.07
Mof_C 	C 	0.1403	0.6878	0.8733	0.065
Mof_C 	C 	0.0911	0.6657	0.8961	-0.109
Mof_C 	C 	0.9922	0.6638	0.8961	0.059
Mof_C 	C 	0.9436	0.6854	0.8721	-0.12
Mof_C 	C 	0.9981	0.7072	0.8501	0.078
Mof_C 	C 	0.9387	0.5977	0.9633	0.095
Mof_C 	C 	0.8011	0.6042	0.9371	0.091
Mof_C 	C 	0.9368	0.6387	0.91986	0.104
Mof_C 	C 	0.4077	0.4183	0.9086	0.073
Mof_C 	C 	0.4194	0.3735	0.8948	-0.118
Mof_C 	C 	0.4401	0.3725	0.8653	0.062
Mof_C 	C 	0.4459	0.4159	0.85	-0.123
Mof_C 	C 	0.4321	0.4586	0.865	0.077
Mof_C 	C 	0.4277	0.1107	0.8693	0.064
Mof_C 	C 	0.4464	0.1525	0.854	-0.116
Mof_C 	C 	0.4367	0.197	0.86801	0.051
Mof_C 	C 	0.4086	0.1969	0.898	-0.119
Mof_C 	C 	0.3914	0.1527	0.9116	0.074
Mof_C 	C 	0.5853	0.3106	0.7327	0.067
Mof_C 	C 	0.5498	0.3174	0.7612	-0.113
Mof_C 	C 	0.5201	0.2778	0.77754	0.045
Mof_C 	C 	0.5221	0.2316	0.7636	-0.104
Mof_C 	C 	0.5578	0.2285	0.7349	0.055
Mof_C 	C 	0.4533	0.3251	0.8498	0.097
Mof_C 	C 	0.4519	0.2431	0.85136	0.104
Mof_C 	C 	0.4888	0.2813	0.809	0.106
Mof_C 	C 	0.0067	0.9557	0.5384	0.066
Mof_C 	C 	0.0576	0.9431	0.5127	-0.12
Mof_C 	C 	0.008	0.9189	0.49023	0.055
Mof_C 	C 	0.9094	0.9111	0.4931	-0.119
Mof_C 	C 	0.8655	0.9256	0.5192	0.071
Mof_C 	C 	0.4409	0.9219	0.4017	0.07
Mof_C 	C 	0.346	0.9055	0.4054	-0.125
Mof_C 	C 	0.3018	0.9102	0.4326	0.048
Mof_C 	C 	0.3543	0.9324	0.456	-0.124
Mof_C 	C 	0.4467	0.9484	0.4501	0.07
Mof_C 	C 	0.8597	0.8122	0.3733	0.066
Mof_C 	C 	0.9089	0.8343	0.3961	-0.111
Mof_C 	C 	0.0078	0.8362	0.3961	0.06
Mof_C 	C 	0.0564	0.8146	0.3721	-0.121
Mof_C 	C 	0.0019	0.7928	0.3501	0.079
Mof_C 	C 	0.0613	0.9023	0.4633	0.095
Mof_C 	C 	0.1989	0.8958	0.4371	0.091
Mof_C 	C 	0.0632	0.8613	0.41986	0.103
Mof_C 	C 	0.5923	0.0817	0.4086	0.073
Mof_C 	C 	0.5806	0.1265	0.3948	-0.118
Mof_C 	C 	0.5599	0.1275	0.3653	0.062
Mof_C 	C 	0.5541	0.0841	0.35	-0.123
Mof_C 	C 	0.5679	0.0414	0.365	0.077
Mof_C 	C 	0.5723	0.3893	0.3693	0.064
Mof_C 	C 	0.5536	0.3475	0.354	-0.116
Mof_C 	C 	0.5633	0.303	0.36801	0.051
Mof_C 	C 	0.5914	0.3031	0.398	-0.119
Mof_C 	C 	0.6086	0.3473	0.4116	0.074
Mof_C 	C 	0.4147	0.1894	0.2327	0.067
Mof_C 	C 	0.4502	0.1826	0.2612	-0.113
Mof_C 	C 	0.4799	0.2222	0.27754	0.045
Mof_C 	C 	0.4779	0.2684	0.2636	-0.104
Mof_C 	C 	0.4422	0.2715	0.2349	0.055
Mof_C 	C 	0.5467	0.1749	0.3498	0.097
Mof_C 	C 	0.5481	0.2569	0.35136	0.104
Mof_C 	C 	0.5112	0.2187	0.309	0.106
Mof_C 	C 	0.4933	0.4557	0.4616	0.065
Mof_C 	C 	0.4424	0.4431	0.4873	-0.12
Mof_C 	C 	0.492	0.4189	0.50977	0.054
Mof_C 	C 	0.5906	0.4111	0.5069	-0.118
Mof_C 	C 	0.6345	0.4256	0.4808	0.071
Mof_C 	C 	0.0591	0.4219	0.5983	0.07
Mof_C 	C 	0.154	0.4055	0.5946	-0.125
Mof_C 	C 	0.1982	0.4102	0.5674	0.048
Mof_C 	C 	0.1457	0.4324	0.544	-0.124
Mof_C 	C 	0.0533	0.4484	0.5499	0.07
Mof_C 	C 	0.6403	0.3122	0.6267	0.066
Mof_C 	C 	0.5911	0.3343	0.6039	-0.111
Mof_C 	C 	0.4922	0.3362	0.6039	0.061
Mof_C 	C 	0.4436	0.3146	0.6279	-0.121
Mof_C 	C 	0.4981	0.2928	0.6499	0.08
Mof_C 	C 	0.4387	0.4023	0.5367	0.095
Mof_C 	C 	0.3011	0.3958	0.5629	0.091
Mof_C 	C 	0.4368	0.3613	0.58014	0.103
Mof_C 	C 	0.9077	0.5817	0.5914	0.073
Mof_C 	C 	0.9194	0.6265	0.6052	-0.118
Mof_C 	C 	0.9401	0.6275	0.6347	0.062
Mof_C 	C 	0.9459	0.5841	0.65	-0.123
Mof_C 	C 	0.9321	0.5414	0.635	0.077
Mof_C 	C 	0.9277	0.8893	0.6307	0.063
Mof_C 	C 	0.9464	0.8475	0.646	-0.117
Mof_C 	C 	0.9367	0.803	0.63199	0.051
Mof_C 	C 	0.9086	0.8031	0.602	-0.119
Mof_C 	C 	0.8914	0.8473	0.5884	0.074
Mof_C 	C 	0.0853	0.6894	0.7673	0.068
Mof_C 	C 	0.0498	0.6826	0.7388	-0.113
Mof_C 	C 	0.0201	0.7222	0.72246	0.045
Mof_C 	C 	0.0221	0.7684	0.7364	-0.101
Mof_C 	C 	0.0578	0.7715	0.7651	0.054
Mof_C 	C 	0.9533	0.6749	0.6502	0.097
Mof_C 	C 	0.9519	0.7569	0.64864	0.103
Mof_C 	C 	0.9888	0.7187	0.691	0.104
Mof_C 	C 	0.5067	0.0443	0.9616	0.065
Mof_C 	C 	0.5576	0.0569	0.9873	-0.12
Mof_C 	C 	0.508	0.0811	0.00977	0.054
Mof_C 	C 	0.4094	0.0889	0.0069	-0.118
Mof_C 	C 	0.3655	0.0744	0.9808	0.071
Mof_C 	C 	0.9409	0.0781	0.0983	0.07
Mof_C 	C 	0.846	0.0945	0.0946	-0.125
Mof_C 	C 	0.8018	0.0898	0.0674	0.048
Mof_C 	C 	0.8543	0.0676	0.044	-0.124
Mof_C 	C 	0.9467	0.0516	0.0499	0.07
Mof_C 	C 	0.3597	0.1878	0.1267	0.066
Mof_C 	C 	0.4089	0.1657	0.1039	-0.111
Mof_C 	C 	0.5078	0.1638	0.1039	0.061
Mof_C 	C 	0.5564	0.1854	0.1279	-0.121
Mof_C 	C 	0.5019	0.2072	0.1499	0.08
Mof_C 	C 	0.5613	0.0977	0.0367	0.095
Mof_C 	C 	0.6989	0.1042	0.0629	0.091
Mof_C 	C 	0.5632	0.1387	0.08014	0.103
Mof_C 	C 	0.0923	0.9183	0.0914	0.073
Mof_C 	C 	0.0806	0.8735	0.1052	-0.118
Mof_C 	C 	0.0599	0.8725	0.1347	0.062
Mof_C 	C 	0.0541	0.9159	0.15	-0.123
Mof_C 	C 	0.0679	0.9586	0.135	0.077
Mof_C 	C 	0.0723	0.6107	0.1307	0.063
Mof_C 	C 	0.0536	0.6525	0.146	-0.116
Mof_C 	C 	0.0633	0.697	0.13199	0.051
Mof_C 	C 	0.0914	0.6969	0.102	-0.119
Mof_C 	C 	0.1086	0.6527	0.0884	0.074
Mof_C 	C 	0.9147	0.8106	0.2673	0.067
Mof_C 	C 	0.9502	0.8174	0.2388	-0.113
Mof_C 	C 	0.9799	0.7778	0.22246	0.045
Mof_C 	C 	0.9779	0.7316	0.2364	-0.102
Mof_C 	C 	0.9422	0.7285	0.2651	0.054
Mof_C 	C 	0.0467	0.8251	0.1502	0.097
Mof_C 	C 	0.0481	0.7431	0.14864	0.104
Mof_C 	C 	0.0112	0.7813	0.191	0.105
Mof_I 	I 	0.06496	0.47932	0.11211	-0.363
Mof_I 	I 	0.33109	0.55938	0.07815	-0.386
Mof_I 	I 	0.30024	0.50523	0.96516	-0.389
Mof_I 	I 	0.2927	0.57615	0.87599	-0.374
Mof_I 	I 	0.68515	0.16696	0.6711	-0.373
Mof_I 	I 	0.8304	0.30501	0.69032	-0.369
Mof_I 	I 	0.93504	0.02068	0.61211	-0.362
Mof_I 	I 	0.66891	0.94062	0.57815	-0.386
Mof_I 	I 	0.69976	0.99477	0.46516	-0.389
Mof_I 	I 	0.7073	0.92385	0.37599	-0.375
Mof_I 	I 	0.31485	0.33304	0.1711	-0.373
Mof_I 	I 	0.1696	0.19499	0.19032	-0.37
Mof_I 	I 	0.56496	0.52068	0.38789	-0.362
Mof_I 	I 	0.83109	0.44062	0.42185	-0.385
Mof_I 	I 	0.80024	0.49477	0.53484	-0.389
Mof_I 	I 	0.7927	0.42385	0.62401	-0.375
Mof_I 	I 	0.18515	0.83304	0.8289	-0.372
Mof_I 	I 	0.3304	0.69499	0.80968	-0.369
Mof_I 	I 	0.43504	0.97932	0.88789	-0.362
Mof_I 	I 	0.16891	0.05938	0.92185	-0.386
Mof_I 	I 	0.19976	0.00523	0.03484	-0.39
Mof_I 	I 	0.2073	0.07615	0.12401	-0.375
Mof_I 	I 	0.81485	0.66696	0.3289	-0.373
Mof_I 	I 	0.6696	0.80501	0.30968	-0.369
Mof_N 	N 	0.0883	0.5538	0.04191	-0.273
Mof_N 	N 	0.5105	0.5561	0.92329	-0.274
Mof_N 	N 	0.0936	0.7082	0.85016	-0.275
Mof_N 	N 	0.8449	0.5861	0.96147	-0.144
Mof_N 	N 	0.842	0.6313	0.91614	-0.134
Mof_N 	N 	0.9899	0.6228	0.94315	-0.137
Mof_N 	N 	0.4105	0.4604	0.89382	-0.268
Mof_N 	N 	0.3987	0.1105	0.89759	-0.27
Mof_N 	N 	0.5922	0.2672	0.72005	-0.27
Mof_N 	N 	0.4783	0.3255	0.82083	-0.138
Mof_N 	N 	0.4403	0.285	0.8663	-0.138
Mof_N 	N 	0.4762	0.2393	0.82304	-0.141
Mof_N 	N 	0.9117	0.9462	0.54191	-0.274
Mof_N 	N 	0.4895	0.9439	0.42329	-0.274
Mof_N 	N 	0.9064	0.7918	0.35016	-0.276
Mof_N 	N 	0.1551	0.9139	0.46147	-0.144
Mof_N 	N 	0.158	0.8687	0.41614	-0.133
Mof_N 	N 	0.0101	0.8772	0.44315	-0.137
Mof_N 	N 	0.5895	0.0396	0.39382	-0.268
Mof_N 	N 	0.6013	0.3895	0.39759	-0.27
Mof_N 	N 	0.4078	0.2328	0.22005	-0.27
Mof_N 	N 	0.5217	0.1745	0.32083	-0.138
Mof_N 	N 	0.5597	0.215	0.3663	-0.138
Mof_N 	N 	0.5238	0.2607	0.32304	-0.141
Mof_N 	N 	0.5883	0.4462	0.45809	-0.273
Mof_N 	N 	0.0105	0.4439	0.57671	-0.273
Mof_N 	N 	0.5936	0.2918	0.64984	-0.276
Mof_N 	N 	0.3449	0.4139	0.53853	-0.144
Mof_N 	N 	0.342	0.3687	0.58386	-0.133
Mof_N 	N 	0.4899	0.3772	0.55685	-0.137
Mof_N 	N 	0.9105	0.5396	0.60618	-0.268
Mof_N 	N 	0.8987	0.8895	0.60241	-0.27
Mof_N 	N 	0.0922	0.7328	0.77995	-0.269
Mof_N 	N 	0.9783	0.6745	0.67917	-0.138
Mof_N 	N 	0.9403	0.715	0.6337	-0.138
Mof_N 	N 	0.9762	0.7607	0.67696	-0.141
Mof_N 	N 	0.4117	0.0538	0.95809	-0.273
Mof_N 	N 	0.9895	0.0561	0.07671	-0.273
Mof_N 	N 	0.4064	0.2082	0.14984	-0.276
Mof_N 	N 	0.6551	0.0861	0.03853	-0.144
Mof_N 	N 	0.658	0.1313	0.08386	-0.133
Mof_N 	N 	0.5101	0.1228	0.05685	-0.137
Mof_N 	N 	0.0895	0.9604	0.10618	-0.268
Mof_N 	N 	0.1013	0.6105	0.10241	-0.27
Mof_N 	N 	0.9078	0.7672	0.27995	-0.27
Mof_N 	N 	0.0217	0.8255	0.17917	-0.138
Mof_N 	N 	0.0597	0.785	0.1337	-0.138
Mof_N 	N 	0.0238	0.7393	0.17696	-0.141
Mof_Zn	Zn	0.85011	0.45402	0.91669	1.163
Mof_Zn	Zn	0.62268	0.47408	0.08525	1.164
Mof_Zn	Zn	0.32664	0.74238	0.31795	1.164
Mof_Zn	Zn	0.14989	0.04598	0.41669	1.163
Mof_Zn	Zn	0.37732	0.02592	0.58525	1.164
Mof_Zn	Zn	0.67336	0.75762	0.81795	1.164
Mof_Zn	Zn	0.35011	0.54598	0.58331	1.163
Mof_Zn	Zn	0.12268	0.52592	0.41475	1.163
Mof_Zn	Zn	0.82664	0.25762	0.18205	1.164
Mof_Zn	Zn	0.64989	0.95402	0.08331	1.163
Mof_Zn	Zn	0.87732	0.97408	0.91475	1.163
Mof_Zn	Zn	0.17336	0.24238	0.68205	1.164
Mof_H 	H 	0.0404	0.4716	0.946	-0.012
Mof_H 	H 	0.1243	0.4508	0.9893	0.091
Mof_H 	H 	0.8731	0.3962	0.0223	0.079
Mof_H 	H 	0.7977	0.4206	0.979	-0.005
Mof_H 	H 	0.4719	0.4172	0.1169	-0.008
Mof_H 	H 	0.3121	0.3912	0.1108	0.094
Mof_H 	H 	0.3266	0.4361	0.0248	0.089
Mof_H 	H 	0.4821	0.4635	0.0344	-0.005
Mof_H 	H 	0.791	0.3112	0.1262	-0.009
Mof_H 	H 	0.8737	0.3485	0.088	0.08
Mof_H 	H 	0.1251	0.315	0.129	0.08
Mof_H 	H 	0.035	0.2778	0.166	-0.016
Mof_H 	H 	0.6026	0.581	0.0705	-0.007
Mof_H 	H 	0.587	0.6558	0.0942	0.082
Mof_H 	H 	0.5406	0.5839	0.1707	0.083
Mof_H 	H 	0.5618	0.5117	0.1457	-0.01
Mof_H 	H 	0.5644	0.9195	0.1406	-0.01
Mof_H 	H 	0.534	0.849	0.1662	0.08
Mof_H 	H 	0.5984	0.7735	0.0914	0.079
Mof_H 	H 	0.6265	0.8474	0.068	-0.015
Mof_H 	H 	0.3946	0.6618	0.2783	-0.01
Mof_H 	H 	0.4539	0.6509	0.2305	0.079
Mof_H 	H 	0.5004	0.7965	0.2263	0.078
Mof_H 	H 	0.4421	0.8022	0.2747	0.004
Mof_H 	H 	0.9596	0.0284	0.446	-0.012
Mof_H 	H 	0.8757	0.0492	0.4893	0.091
Mof_H 	H 	0.1269	0.1038	0.5223	0.079
Mof_H 	H 	0.2023	0.0794	0.479	-0.005
Mof_H 	H 	0.5281	0.0828	0.6169	-0.008
Mof_H 	H 	0.6879	0.1088	0.6108	0.094
Mof_H 	H 	0.6734	0.0639	0.5248	0.089
Mof_H 	H 	0.5179	0.0365	0.5344	-0.005
Mof_H 	H 	0.209	0.1888	0.6262	-0.009
Mof_H 	H 	0.1263	0.1515	0.588	0.08
Mof_H 	H 	0.8749	0.185	0.629	0.08
Mof_H 	H 	0.965	0.2222	0.666	-0.017
Mof_H 	H 	0.3974	0.919	0.5705	-0.007
Mof_H 	H 	0.413	0.8442	0.5942	0.082
Mof_H 	H 	0.4594	0.9161	0.6707	0.083
Mof_H 	H 	0.4382	0.9883	0.6457	-0.01
Mof_H 	H 	0.4356	0.5805	0.6406	-0.01
Mof_H 	H 	0.466	0.651	0.6662	0.08
Mof_H 	H 	0.4016	0.7265	0.5914	0.079
Mof_H 	H 	0.3735	0.6526	0.568	-0.015
Mof_H 	H 	0.6054	0.8382	0.7783	-0.01
Mof_H 	H 	0.5461	0.8491	0.7305	0.079
Mof_H 	H 	0.4996	0.7035	0.7263	0.078
Mof_H 	H 	0.5579	0.6978	0.7747	0.004
Mof_H 	H 	0.5404	0.5284	0.554	-0.012
Mof_H 	H 	0.6243	0.5492	0.5107	0.091
Mof_H 	H 	0.3731	0.6038	0.4777	0.079
Mof_H 	H 	0.2977	0.5794	0.521	-0.005
Mof_H 	H 	0.9719	0.5828	0.3831	-0.008
Mof_H 	H 	0.8121	0.6088	0.3892	0.094
Mof_H 	H 	0.8266	0.5639	0.4752	0.089
Mof_H 	H 	0.9821	0.5365	0.4656	-0.005
Mof_H 	H 	0.291	0.6888	0.3738	-0.009
Mof_H 	H 	0.3737	0.6515	0.412	0.08
Mof_H 	H 	0.6251	0.685	0.371	0.08
Mof_H 	H 	0.535	0.7222	0.334	-0.017
Mof_H 	H 	0.1026	0.419	0.4295	-0.007
Mof_H 	H 	0.087	0.3442	0.4058	0.082
Mof_H 	H 	0.0406	0.4161	0.3293	0.083
Mof_H 	H 	0.0618	0.4883	0.3543	-0.011
Mof_H 	H 	0.0644	0.0805	0.3594	-0.01
Mof_H 	H 	0.034	0.151	0.3338	0.08
Mof_H 	H 	0.0984	0.2265	0.4086	0.079
Mof_H 	H 	0.1265	0.1526	0.432	-0.015
Mof_H 	H 	0.8946	0.3382	0.2217	-0.01
Mof_H 	H 	0.9539	0.3491	0.2695	0.079
Mof_H 	H 	0.0004	0.2035	0.2737	0.076
Mof_H 	H 	0.9421	0.1978	0.2253	0.005
Mof_H 	H 	0.4596	0.9716	0.054	-0.012
Mof_H 	H 	0.3757	0.9508	0.0107	0.091
Mof_H 	H 	0.6269	0.8962	0.9777	0.079
Mof_H 	H 	0.7023	0.9206	0.021	-0.005
Mof_H 	H 	0.0281	0.9172	0.8831	-0.007
Mof_H 	H 	0.1879	0.8912	0.8892	0.094
Mof_H 	H 	0.1734	0.9361	0.9752	0.089
Mof_H 	H 	0.0179	0.9635	0.9656	-0.005
Mof_H 	H 	0.709	0.8112	0.8738	-0.009
Mof_H 	H 	0.6263	0.8485	0.912	0.08
Mof_H 	H 	0.3749	0.815	0.871	0.08
Mof_H 	H 	0.465	0.7778	0.834	-0.017
Mof_H 	H 	0.8974	0.081	0.9295	-0.007
Mof_H 	H 	0.913	0.1558	0.9058	0.082
Mof_H 	H 	0.9594	0.0839	0.8293	0.083
Mof_H 	H 	0.9382	0.0117	0.8543	-0.01
Mof_H 	H 	0.9356	0.4195	0.8594	-0.01
Mof_H 	H 	0.966	0.349	0.8338	0.08
Mof_H 	H 	0.9016	0.2735	0.9086	0.079
Mof_H 	H 	0.8735	0.3474	0.932	-0.015
Mof_H 	H 	0.1054	0.1618	0.7217	-0.01
Mof_H 	H 	0.0461	0.1509	0.7695	0.079
Mof_H 	H 	0.9996	0.2965	0.7737	0.077
Mof_H 	H 	0.0579	0.3022	0.7253	0.004
Mof_C 	C 	0.0067	0.4557	0.9616	0.065
Mof_C 	C 	0.0576	0.4431	0.9873	-0.119
Mof_C 	C 	0.008	0.4189	0.00977	0.053
Mof_C 	C 	0.9094	0.4111	0.0069	-0.117
Mof_C 	C 	0.8655	0.4256	0.9808	0.07
Mof_C 	C 	0.4409	0.4219	0.0983	0.07
Mof_C 	C 	0.346	0.4055	0.0946	-0.125
Mof_C 	C 	0.3018	0.4102	0.0674	0.048
Mof_C 	C 	0.3543	0.4324	0.044	-0.124
Mof_C 	C 	0.4467	0.4484	0.0499	0.07
Mof_C 	C 	0.8597	0.3122	0.1267	0.065
Mof_C 	C 	0.9089	0.3343	0.1039	-0.109
Mof_C 	C 	0.0078	0.3362	0.1039	0.059
Mof_C 	C 	0.0564	0.3146	0.1279	-0.12
Mof_C 	C 	0.0019	0.2928	0.1499	0.078
Mof_C 	C 	0.0613	0.4023	0.0367	0.095
Mof_C 	C 	0.1989	0.3958	0.0629	0.091
Mof_C 	C 	0.0632	0.3613	0.08014	0.104
Mof_C 	C 	0.5923	0.5817	0.0914	0.073
Mof_C 	C 	0.5806	0.6265	0.1052	-0.118
Mof_C 	C 	0.5599	0.6275	0.1347	0.062
Mof_C 	C 	0.5541	0.5841	0.15	-0.123
Mof_C 	C 	0.5679	0.5414	0.135	0.077
Mof_C 	C 	0.5723	0.8893	0.1307	0.064
Mof_C 	C 	0.5536	0.8475	0.146	-0.116
Mof_C 	C 	0.5633	0.803	0.13199	0.051
Mof_C 	C 	0.5914	0.8031	0.102	-0.119
Mof_C 	C 	0.6086	0.8473	0.0884	0.074
Mof_C 	C 	0.4147	0.6894	0.2673	0.067
Mof_C 	C 	0.4502	0.6826	0.2388	-0.113
Mof_C 	C 	0.4799	0.7222	0.22246	0.045
Mof_C 	C 	0.4779	0.7684	0.2364	-0.104
Mof_C 	C 	0.4422	0.7715	0.2651	0.055
Mof_C 	C 	0.5467	0.6749	0.1502	0.097
Mof_C 	C 	0.5481	0.7569	0.14864	0.104
Mof_C 	C 	0.5112	0.7187	0.191	0.106
Mof_C 	C 	0.9933	0.0443	0.4616	0.066
Mof_C 	C 	0.9424	0.0569	0.4873	-0.12
Mof_C 	C 	0.992	0.0811	0.50977	0.055
Mof_C 	C 	0.0906	0.0889	0.5069	-0.119
Mof_C 	C 	0.1345	0.0744	0.4808	0.071
Mof_C 	C 	0.5591	0.0781	0.5983	0.07
Mof_C 	C 	0.654	0.0945	0.5946	-0.125
Mof_C 	C 	0.6982	0.0898	0.5674	0.048
Mof_C 	C 	0.6457	0.0676	0.544	-0.124
Mof_C 	C 	0.5533	0.0516	0.5499	0.07
Mof_C 	C 	0.1403	0.1878	0.6267	0.066
Mof_C 	C 	0.0911	0.1657	0.6039	-0.111
Mof_C 	C 	0.9922	0.1638	0.6039	0.06
Mof_C 	C 	0.9436	0.1854	0.6279	-0.121
Mof_C 	C 	0.9981	0.2072	0.6499	0.079
Mof_C 	C 	0.9387	0.0977	0.5367	0.095
Mof_C 	C 	0.8011	0.1042	0.5629	0.091
Mof_C 	C 	0.9368	0.1387	0.58014	0.103
Mof_C 	C 	0.4077	0.9183	0.5914	0.073
Mof_C 	C 	0.4194	0.8735	0.6052	-0.118
Mof_C 	C 	0.4401	0.8725	0.6347	0.062
Mof_C 	C 	0.4459	0.9159	0.65	-0.123
Mof_C 	C 	0.4321	0.9586	0.635	0.077
Mof_C 	C 	0.4277	0.6107	0.6307	0.064
Mof_C 	C 	0.4464	0.6525	0.646	-0.116
Mof_C 	C 	0.4367	0.697	0.63199	0.051
Mof_C 	C 	0.4086	0.6969	0.602	-0.119
Mof_C 	C 	0.3914	0.6527	0.5884	0.074
Mof_C 	C 	0.5853	0.8106	0.7673	0.067
Mof_C 	C 	0.5498	0.8174	0.7388	-0.113
Mof_C 	C 	0.5201	0.7778	0.72246	0.045
Mof_C 	C 	0.5221	0.7316	0.7364	-0.104
Mof_C 	C 	0.5578	0.7285	0.7651	0.055
Mof_C 	C 	0.4533	0.8251	0.6502	0.097
Mof_C 	C 	0.4519	0.7431	0.64864	0.104
Mof_C 	C 	0.4888	0.7813	0.691	0.106
Mof_C 	C 	0.5067	0.5443	0.5384	0.065
Mof_C 	C 	0.5576	0.5569	0.5127	-0.12
Mof_C 	C 	0.508	0.5811	0.49023	0.054
Mof_C 	C 	0.4094	0.5889	0.4931	-0.118
Mof_C 	C 	0.3655	0.5744	0.5192	0.071
Mof_C 	C 	0.9409	0.5781	0.4017	0.07
Mof_C 	C 	0.846	0.5945	0.4054	-0.125
Mof_C 	C 	0.8018	0.5898	0.4326	0.048
Mof_C 	C 	0.8543	0.5676	0.456	-0.124
Mof_C 	C 	0.9467	0.5516	0.4501	0.07
Mof_C 	C 	0.3597	0.6878	0.3733	0.066
Mof_C 	C 	0.4089	0.6657	0.3961	-0.111
Mof_C 	C 	0.5078	0.6638	0.3961	0.061
Mof_C 	C 	0.5564	0.6854	0.3721	-0.121
Mof_C 	C 	0.5019	0.7072	0.3501	0.08
Mof_C 	C 	0.5613	0.5977	0.4633	0.095
Mof_C 	C 	0.6989	0.6042	0.4371	0.091
Mof_C 	C 	0.5632	0.6387	0.41986	0.103
Mof_C 	C 	0.0923	0.4183	0.4086	0.073
Mof_C 	C 	0.0806	0.3735	0.3948	-0.118
Mof_C 	C 	0.0599	0.3725	0.3653	0.062
Mof_C 	C 	0.0541	0.4159	0.35	-0.123
Mof_C 	C 	0.0679	0.4586	0.365	0.077
Mof_C 	C 	0.0723	0.1107	0.3693	0.063
Mof_C 	C 	0.0536	0.1525	0.354	-0.117
Mof_C 	C 	0.0633	0.197	0.36801	0.051
Mof_C 	C 	0.0914	0.1969	0.398	-0.119
Mof_C 	C 	0.1086	0.1527	0.4116	0.074
Mof_C 	C 	0.9147	0.3106	0.2327	0.068
Mof_C 	C 	0.9502	0.3174	0.2612	-0.113
Mof_C 	C 	0.9799	0.2778	0.27754	0.045
Mof_C 	C 	0.9779	0.2316	0.2636	-0.101
Mof_C 	C 	0.9422	0.2285	0.2349	0.054
Mof_C 	C 	0.0467	0.3251	0.3498	0.097
Mof_C 	C 	0.0481	0.2431	0.35136	0.103
Mof_C 	C 	0.0112	0.2813	0.309	0.104
Mof_C 	C 	0.4933	0.9557	0.0384	0.065
Mof_C 	C 	0.4424	0.9431	0.0127	-0.12
Mof_C 	C 	0.492	0.9189	0.99023	0.054
Mof_C 	C 	0.5906	0.9111	0.9931	-0.118
Mof_C 	C 	0.6345	0.9256	0.0192	0.071
Mof_C 	C 	0.0591	0.9219	0.9017	0.07
Mof_C 	C 	0.154	0.9055	0.9054	-0.125
Mof_C 	C 	0.1982	0.9102	0.9326	0.048
Mof_C 	C 	0.1457	0.9324	0.956	-0.124
Mof_C 	C 	0.0533	0.9484	0.9501	0.07
Mof_C 	C 	0.6403	0.8122	0.8733	0.066
Mof_C 	C 	0.5911	0.8343	0.8961	-0.111
Mof_C 	C 	0.4922	0.8362	0.8961	0.061
Mof_C 	C 	0.4436	0.8146	0.8721	-0.121
Mof_C 	C 	0.4981	0.7928	0.8501	0.08
Mof_C 	C 	0.4387	0.9023	0.9633	0.095
Mof_C 	C 	0.3011	0.8958	0.9371	0.091
Mof_C 	C 	0.4368	0.8613	0.91986	0.103
Mof_C 	C 	0.9077	0.0817	0.9086	0.073
Mof_C 	C 	0.9194	0.1265	0.8948	-0.118
Mof_C 	C 	0.9401	0.1275	0.8653	0.062
Mof_C 	C 	0.9459	0.0841	0.85	-0.123
Mof_C 	C 	0.9321	0.0414	0.865	0.077
Mof_C 	C 	0.9277	0.3893	0.8693	0.063
Mof_C 	C 	0.9464	0.3475	0.854	-0.116
Mof_C 	C 	0.9367	0.303	0.86801	0.051
Mof_C 	C 	0.9086	0.3031	0.898	-0.119
Mof_C 	C 	0.8914	0.3473	0.9116	0.074
Mof_C 	C 	0.0853	0.1894	0.7327	0.067
Mof_C 	C 	0.0498	0.1826	0.7612	-0.113
Mof_C 	C 	0.0201	0.2222	0.77754	0.045
Mof_C 	C 	0.0221	0.2684	0.7636	-0.102
Mof_C 	C 	0.0578	0.2715	0.7349	0.054
Mof_C 	C 	0.9533	0.1749	0.8498	0.097
Mof_C 	C 	0.9519	0.2569	0.85136	0.104
Mof_C 	C 	0.9888	0.2187	0.809	0.105
Mof_I 	I 	0.93504	0.52068	0.88789	-0.363
Mof_I 	I 	0.66891	0.44062	0.92185	-0.386
Mof_I 	I 	0.69976	0.49477	0.03484	-0.389
Mof_I 	I 	0.7073	0.42385	0.12401	-0.374
Mof_I 	I 	0.31485	0.83304	0.3289	-0.373
Mof_I 	I 	0.1696	0.69499	0.30968	-0.369
Mof_I 	I 	0.06496	0.97932	0.38789	-0.362
Mof_I 	I 	0.33109	0.05938	0.42185	-0.386
Mof_I 	I 	0.30024	0.00523	0.53484	-0.389
Mof_I 	I 	0.2927	0.07615	0.62401	-0.375
Mof_I 	I 	0.68515	0.66696	0.8289	-0.373
Mof_I 	I 	0.8304	0.80501	0.80968	-0.37
Mof_I 	I 	0.43504	0.47932	0.61211	-0.362
Mof_I 	I 	0.16891	0.55938	0.57815	-0.385
Mof_I 	I 	0.19976	0.50523	0.46516	-0.389
Mof_I 	I 	0.2073	0.57615	0.37599	-0.375
Mof_I 	I 	0.81485	0.16696	0.1711	-0.372
Mof_I 	I 	0.6696	0.30501	0.19032	-0.369
Mof_I 	I 	0.56496	0.02068	0.11211	-0.362
Mof_I 	I 	0.83109	0.94062	0.07815	-0.386
Mof_I 	I 	0.80024	0.99477	0.96516	-0.39
Mof_I 	I 	0.7927	0.92385	0.87599	-0.375
Mof_I 	I 	0.18515	0.33304	0.6711	-0.373
Mof_I 	I 	0.3304	0.19499	0.69032	-0.369
Mof_N 	N 	0.9117	0.4462	0.95809	-0.273
Mof_N 	N 	0.4895	0.4439	0.07671	-0.274
Mof_N 	N 	0.9064	0.2918	0.14984	-0.275
Mof_N 	N 	0.1551	0.4139	0.03853	-0.144
Mof_N 	N 	0.158	0.3687	0.08386	-0.134
Mof_N 	N 	0.0101	0.3772	0.05685	-0.137
Mof_N 	N 	0.5895	0.5396	0.10618	-0.268
Mof_N 	N 	0.6013	0.8895	0.10241	-0.27
Mof_N 	N 	0.4078	0.7328	0.27995	-0.27
Mof_N 	N 	0.5217	0.6745	0.17917	-0.138
Mof_N 	N 	0.5597	0.715	0.1337	-0.138
Mof_N 	N 	0.5238	0.7607	0.17696	-0.141
Mof_N 	N 	0.0883	0.0538	0.45809	-0.274
Mof_N 	N 	0.5105	0.0561	0.57671	-0.274
Mof_N 	N 	0.0936	0.2082	0.64984	-0.276
Mof_N 	N 	0.8449	0.0861	0.53853	-0.144
Mof_N 	N 	0.842	0.1313	0.58386	-0.133
Mof_N 	N 	0.9899	0.1228	0.55685	-0.137
Mof_N 	N 	0.4105	0.9604	0.60618	-0.268
Mof_N 	N 	0.3987	0.6105	0.60241	-0.27
Mof_N 	N 	0.5922	0.7672	0.77995	-0.27
Mof_N 	N 	0.4783	0.8255	0.67917	-0.138
Mof_N 	N 	0.4403	0.785	0.6337	-0.138
Mof_N 	N 	0.4762	0.7393	0.67696	-0.141
Mof_N 	N 	0.4117	0.5538	0.54191	-0.273
Mof_N 	N 	0.9895	0.5561	0.42329	-0.273
Mof_N 	N 	0.4064	0.7082	0.35016	-0.276
Mof_N 	N 	0.6551	0.5861	0.46147	-0.144
Mof_N 	N 	0.658	0.6313	0.41614	-0.133
Mof_N 	N 	0.5101	0.6228	0.44315	-0.137
Mof_N 	N 	0.0895	0.4604	0.39382	-0.268
Mof_N 	N 	0.1013	0.1105	0.39759	-0.27
Mof_N 	N 	0.9078	0.2672	0.22005	-0.269
Mof_N 	N 	0.0217	0.3255	0.32083	-0.138
Mof_N 	N 	0.0597	0.285	0.3663	-0.138
Mof_N 	N 	0.0238	0.2393	0.32304	-0.141
Mof_N 	N 	0.5883	0.9462	0.04191	-0.273
Mof_N 	N 	0.0105	0.9439	0.92329	-0.273
Mof_N 	N 	0.5936	0.7918	0.85016	-0.276
Mof_N 	N 	0.3449	0.9139	0.96147	-0.144
Mof_N 	N 	0.342	0.8687	0.91614	-0.133
Mof_N 	N 	0.4899	0.8772	0.94315	-0.137
Mof_N 	N 	0.9105	0.0396	0.89382	-0.268
Mof_N 	N 	0.8987	0.3895	0.89759	-0.27
Mof_N 	N 	0.0922	0.2328	0.72005	-0.27
Mof_N 	N 	0.9783	0.1745	0.82083	-0.138
Mof_N 	N 	0.9403	0.215	0.8663	-0.138
Mof_N 	N 	0.9762	0.2607	0.82304	-0.141
_end
