data_functionalizedCrystal
_audit_creation_method	'EQeq! by Chris Wilmer'
_symmetry_space_group_name_H-M	'P1'
_symmetry_Int_Tables_number	1
_symmetry_cell_setting	triclinic
loop_
_symmetry_equiv_pos_as_xyz
  x,y,z
_cell_length_a	20.7929
_cell_length_b	12.4871
_cell_length_c	19.5025
_cell_angle_alpha	90
_cell_angle_beta	97.329
_cell_angle_gamma	90
loop_
_atom_site_label
_atom_site_type_symbol
_atom_site_fract_x
_atom_site_fract_y
_atom_site_fract_z
_atom_site_charge
Mof_Cu	Cu	0.30278	0.23703	0.18793	0.903
Mof_Cu	Cu	0.39069	0.37236	0.14997	0.915
Mof_Cu	Cu	0.51996	0.83561	0.43707	0.917
Mof_O 	O 	0.4611	0.7177	0.4095	-0.385
Mof_O 	O 	0.0567	0.4332	0.5792	-0.402
Mof_O 	O 	0.4531	0.2688	0.1955	-0.397
Mof_O 	O 	0.377	0.4362	0.2408	-0.403
Mof_O 	O 	0.309	0.315	0.2748	-0.419
Mof_O 	O 	0.0779	0.4517	0.4695	-0.389
Mof_N 	N 	0.5561	0.8278	0.341	-0.198
Mof_O 	O 	0.41918	0.7315	0.5102	-0.385
Mof_O 	O 	0.61821	0.2781	0.9323	-0.395
Mof_O 	O 	0.8177	0.9588	0.108	-0.388
Mof_O 	O 	0.3796	0.1494	0.2216	-0.402
Mof_O 	O 	0.7438	0.8507	0.1488	-0.404
Mof_N 	N 	0.1927	0.5594	0.5124	-0.119
Mof_O 	O 	0.6987	0.1734	0.903	-0.392
Mof_O 	O 	0.2194	0.3838	0.5064	-0.223
Mof_N 	N 	0.5456	0.1072	0.204	-0.117
Mof_C 	C 	0.4368	0.1794	0.216	0.362
Mof_C 	C 	0.6566	0.135	0.0077	-0.087
Mof_N 	N 	0.4685	0.4635	0.1161	-0.189
Mof_C 	C 	0.4209	0.6912	0.4506	0.343
Mof_C 	C 	0.286	0.4434	0.3874	0.016
Mof_H 	H 	0.2583	0.3857	0.3763	0.042
Mof_C 	C 	0.6006	0.0807	0.103	-0.056
Mof_C 	C 	0.0891	0.4683	0.5345	0.346
Mof_C 	C 	0.6025	0.1417	0.0429	0.018
Mof_H 	H 	0.568	0.1861	0.0267	0.052
Mof_C 	C 	0.541	0.0813	0.1384	0.195
Mof_C 	C 	0.6564	0.2011	0.9433	0.345
Mof_O 	O 	0.4871	0.0545	0.1057	-0.204
Mof_C 	C 	0.4901	0.1014	0.2434	-0.088
Mof_H 	H 	0.4729	0.0283	0.2421	0.084
Mof_C 	C 	0.2782	0.5062	0.4449	-0.063
Mof_C 	C 	0.3221	0.5856	0.4636	0.015
Mof_H 	H 	0.3176	0.6272	0.5023	0.048
Mof_C 	C 	0.3788	0.5482	0.3667	0.038
Mof_H 	H 	0.4115	0.5639	0.3399	0.049
Mof_C 	C 	0.3423	0.3987	0.2826	0.365
Mof_C 	C 	0.706	0.0075	0.0906	-0.089
Mof_C 	C 	0.3349	0.4656	0.3461	-0.1
Mof_C 	C 	0.6506	0.0137	0.1241	0.014
Mof_H 	H 	0.648	0.9702	0.1624	0.042
Mof_C 	C 	0.2268	0.4772	0.4904	0.204
Mof_C 	C 	0.7601	0.9332	0.118	0.343
Mof_C 	C 	0.7079	0.0713	0.0314	0.037
Mof_H 	H 	0.7443	0.07	0.0083	0.046
Mof_C 	C 	0.1475	0.5378	0.5621	-0.072
Mof_H 	H 	0.1707	0.5044	0.6035	0.076
Mof_C 	C 	0.3742	0.6062	0.4255	-0.095
Mof_C 	C 	0.6189	0.8198	0.3383	0.083
Mof_H 	H 	0.6473	0.8249	0.3791	0.015
Mof_C 	C 	0.6029	0.1556	0.2473	-0.021
Mof_H 	H 	0.6429	0.1213	0.2385	0.042
Mof_H 	H 	0.6058	0.2318	0.2387	0.05
Mof_C 	C 	0.1908	0.6713	0.4898	-0.032
Mof_H 	H 	0.1904	0.6764	0.4401	0.048
Mof_H 	H 	0.2276	0.711	0.5125	0.061
Mof_C 	C 	0.6018	0.7973	0.216	0.066
Mof_H 	H 	0.6174	0.7858	0.174	0.014
Mof_C 	C 	0.5157	0.8201	0.2824	0.086
Mof_H 	H 	0.4713	0.8234	0.2846	0.011
Mof_C 	C 	0.5196	0.13	0.3177	-0.045
Mof_H 	H 	0.5032	0.1985	0.3313	0.049
Mof_H 	H 	0.5086	0.0758	0.3499	0.051
Mof_C 	C 	0.1262	0.6484	0.5795	-0.071
Mof_H 	H 	0.1554	0.6792	0.6171	0.064
Mof_H 	H 	0.0826	0.6475	0.5923	0.056
Mof_C 	C 	0.6442	0.8041	0.2759	-0.141
Mof_H 	H 	0.6887	0.7983	0.2751	0.086
Mof_C 	C 	0.5176	0.4068	0.0962	0.074
Mof_H 	H 	0.516	0.3326	0.0996	0.021
Mof_C 	C 	0.1286	0.7115	0.5113	-0.108
Mof_H 	H 	0.0919	0.6944	0.4772	0.068
Mof_H 	H 	0.13	0.7882	0.5193	0.068
Mof_C 	C 	0.5714	0.4527	0.0706	-0.125
Mof_H 	H 	0.6043	0.4102	0.0571	0.088
Mof_C 	C 	0.5368	0.8075	0.2185	-0.139
Mof_H 	H 	0.5075	0.8061	0.1782	0.088
Mof_C 	C 	0.4705	0.5691	0.1097	0.075
Mof_H 	H 	0.4379	0.6105	0.1248	0.012
Mof_C 	C 	0.5221	0.6212	0.0796	-0.128
Mof_H 	H 	0.5197	0.694	0.0697	0.079
Mof_C 	C 	0.5896	0.135	0.318	-0.122
Mof_H 	H 	0.6092	0.0678	0.3345	0.077
Mof_H 	H 	0.6077	0.1918	0.3484	0.066
Mof_C 	C 	0.5738	0.564	0.066	0.057
Mof_H 	H 	0.6104	0.5981	0.0538	0.018
Mof_Cu	Cu	0.80278	0.73703	0.18793	0.904
Mof_Cu	Cu	0.89069	0.87236	0.14997	0.916
Mof_Cu	Cu	0.01996	0.33561	0.43707	0.918
Mof_O 	O 	0.9611	0.2177	0.4095	-0.383
Mof_O 	O 	0.5567	0.9332	0.5792	-0.401
Mof_O 	O 	0.9531	0.7688	0.1955	-0.396
Mof_O 	O 	0.877	0.9362	0.2408	-0.403
Mof_O 	O 	0.809	0.815	0.2748	-0.419
Mof_O 	O 	0.5779	0.9517	0.4695	-0.389
Mof_N 	N 	0.0561	0.3278	0.341	-0.198
Mof_O 	O 	0.91918	0.2315	0.5102	-0.385
Mof_O 	O 	0.11821	0.7781	0.9323	-0.395
Mof_O 	O 	0.3177	0.4588	0.108	-0.388
Mof_O 	O 	0.8796	0.6494	0.2216	-0.402
Mof_O 	O 	0.2438	0.3507	0.1488	-0.404
Mof_N 	N 	0.6927	0.0594	0.5124	-0.119
Mof_O 	O 	0.1987	0.6734	0.903	-0.392
Mof_O 	O 	0.7194	0.8838	0.5064	-0.223
Mof_N 	N 	0.0456	0.6072	0.204	-0.118
Mof_C 	C 	0.9368	0.6794	0.216	0.362
Mof_C 	C 	0.1566	0.635	0.0077	-0.089
Mof_N 	N 	0.9685	0.9635	0.1161	-0.189
Mof_C 	C 	0.9209	0.1912	0.4506	0.343
Mof_C 	C 	0.786	0.9434	0.3874	0.016
Mof_H 	H 	0.7583	0.8857	0.3763	0.042
Mof_C 	C 	0.1006	0.5807	0.103	-0.056
Mof_C 	C 	0.5891	0.9683	0.5345	0.346
Mof_C 	C 	0.1025	0.6417	0.0429	0.019
Mof_H 	H 	0.068	0.6861	0.0267	0.051
Mof_C 	C 	0.041	0.5813	0.1384	0.194
Mof_C 	C 	0.1564	0.7011	0.9433	0.347
Mof_O 	O 	0.9871	0.5545	0.1057	-0.202
Mof_C 	C 	0.9901	0.6014	0.2434	-0.086
Mof_H 	H 	0.9729	0.5283	0.2421	0.084
Mof_C 	C 	0.7782	0.0062	0.4449	-0.063
Mof_C 	C 	0.8221	0.0856	0.4636	0.015
Mof_H 	H 	0.8176	0.1272	0.5023	0.048
Mof_C 	C 	0.8788	0.0482	0.3667	0.038
Mof_H 	H 	0.9115	0.0639	0.3399	0.049
Mof_C 	C 	0.8423	0.8987	0.2826	0.365
Mof_C 	C 	0.206	0.5075	0.0906	-0.09
Mof_C 	C 	0.8349	0.9656	0.3461	-0.1
Mof_C 	C 	0.1506	0.5137	0.1241	0.015
Mof_H 	H 	0.148	0.4702	0.1624	0.042
Mof_C 	C 	0.7268	0.9772	0.4904	0.204
Mof_C 	C 	0.2601	0.4332	0.118	0.343
Mof_C 	C 	0.2079	0.5713	0.0314	0.037
Mof_H 	H 	0.2443	0.57	0.0083	0.046
Mof_C 	C 	0.6475	0.0378	0.5621	-0.072
Mof_H 	H 	0.6707	0.0044	0.6035	0.076
Mof_C 	C 	0.8742	0.1062	0.4255	-0.095
Mof_C 	C 	0.1189	0.3198	0.3383	0.083
Mof_H 	H 	0.1473	0.3249	0.3791	0.016
Mof_C 	C 	0.1029	0.6556	0.2473	-0.021
Mof_H 	H 	0.1429	0.6213	0.2385	0.043
Mof_H 	H 	0.1058	0.7318	0.2387	0.05
Mof_C 	C 	0.6908	0.1713	0.4898	-0.032
Mof_H 	H 	0.6904	0.1764	0.4401	0.048
Mof_H 	H 	0.7276	0.211	0.5125	0.061
Mof_C 	C 	0.1018	0.2973	0.216	0.065
Mof_H 	H 	0.1174	0.2858	0.174	0.014
Mof_C 	C 	0.0157	0.3201	0.2824	0.084
Mof_H 	H 	0.9713	0.3234	0.2846	0.012
Mof_C 	C 	0.0196	0.63	0.3177	-0.047
Mof_H 	H 	0.0032	0.6985	0.3313	0.05
Mof_H 	H 	0.0086	0.5758	0.3499	0.051
Mof_C 	C 	0.6262	0.1484	0.5795	-0.071
Mof_H 	H 	0.6554	0.1792	0.6171	0.064
Mof_H 	H 	0.5826	0.1475	0.5923	0.056
Mof_C 	C 	0.1442	0.3041	0.2759	-0.14
Mof_H 	H 	0.1887	0.2983	0.2751	0.085
Mof_C 	C 	0.0176	0.9068	0.0962	0.073
Mof_H 	H 	0.016	0.8326	0.0996	0.021
Mof_C 	C 	0.6286	0.2115	0.5113	-0.108
Mof_H 	H 	0.5919	0.1944	0.4772	0.068
Mof_H 	H 	0.63	0.2882	0.5193	0.068
Mof_C 	C 	0.0714	0.9527	0.0706	-0.126
Mof_H 	H 	0.1043	0.9102	0.0571	0.088
Mof_C 	C 	0.0368	0.3075	0.2185	-0.138
Mof_H 	H 	0.0075	0.3061	0.1782	0.087
Mof_C 	C 	0.9705	0.0691	0.1097	0.077
Mof_H 	H 	0.9379	0.1105	0.1248	0.011
Mof_C 	C 	0.0221	0.1212	0.0796	-0.13
Mof_H 	H 	0.0197	0.194	0.0697	0.08
Mof_C 	C 	0.0896	0.635	0.318	-0.12
Mof_H 	H 	0.1092	0.5678	0.3345	0.077
Mof_H 	H 	0.1077	0.6918	0.3484	0.065
Mof_C 	C 	0.0738	0.064	0.066	0.058
Mof_H 	H 	0.1104	0.0981	0.0538	0.017
Mof_Cu	Cu	0.69722	0.23703	0.81207	0.904
Mof_Cu	Cu	0.60931	0.37236	0.85003	0.916
Mof_Cu	Cu	0.48004	0.83561	0.56293	0.918
Mof_O 	O 	0.5389	0.7177	0.5905	-0.384
Mof_O 	O 	0.9433	0.4332	0.4208	-0.401
Mof_O 	O 	0.5469	0.2688	0.8045	-0.396
Mof_O 	O 	0.623	0.4362	0.7592	-0.403
Mof_O 	O 	0.691	0.315	0.7252	-0.419
Mof_O 	O 	0.9221	0.4517	0.5305	-0.389
Mof_N 	N 	0.4439	0.8278	0.659	-0.198
Mof_O 	O 	0.58082	0.7315	0.4898	-0.385
Mof_O 	O 	0.38179	0.2781	0.0677	-0.395
Mof_O 	O 	0.1823	0.9588	0.892	-0.388
Mof_O 	O 	0.6204	0.1494	0.7784	-0.402
Mof_O 	O 	0.2562	0.8507	0.8512	-0.404
Mof_N 	N 	0.8073	0.5594	0.4876	-0.119
Mof_O 	O 	0.3013	0.1734	0.097	-0.392
Mof_O 	O 	0.7806	0.3838	0.4936	-0.223
Mof_N 	N 	0.4544	0.1072	0.796	-0.117
Mof_C 	C 	0.5632	0.1794	0.784	0.362
Mof_C 	C 	0.3434	0.135	0.9923	-0.087
Mof_N 	N 	0.5315	0.4635	0.8839	-0.189
Mof_C 	C 	0.5791	0.6912	0.5494	0.343
Mof_C 	C 	0.714	0.4434	0.6126	0.016
Mof_H 	H 	0.7417	0.3857	0.6237	0.042
Mof_C 	C 	0.3994	0.0807	0.897	-0.056
Mof_C 	C 	0.9109	0.4683	0.4655	0.346
Mof_C 	C 	0.3975	0.1417	0.9571	0.018
Mof_H 	H 	0.432	0.1861	0.9733	0.052
Mof_C 	C 	0.459	0.0813	0.8616	0.195
Mof_C 	C 	0.3436	0.2011	0.0567	0.345
Mof_O 	O 	0.5129	0.0545	0.8943	-0.204
Mof_C 	C 	0.5099	0.1014	0.7566	-0.088
Mof_H 	H 	0.5271	0.0283	0.7579	0.084
Mof_C 	C 	0.7218	0.5062	0.5551	-0.063
Mof_C 	C 	0.6779	0.5856	0.5364	0.015
Mof_H 	H 	0.6824	0.6272	0.4977	0.048
Mof_C 	C 	0.6212	0.5482	0.6333	0.038
Mof_H 	H 	0.5885	0.5639	0.6601	0.049
Mof_C 	C 	0.6577	0.3987	0.7174	0.365
Mof_C 	C 	0.294	0.0075	0.9094	-0.089
Mof_C 	C 	0.6651	0.4656	0.6539	-0.1
Mof_C 	C 	0.3494	0.0137	0.8759	0.014
Mof_H 	H 	0.352	0.9702	0.8376	0.042
Mof_C 	C 	0.7732	0.4772	0.5096	0.204
Mof_C 	C 	0.2399	0.9332	0.882	0.343
Mof_C 	C 	0.2921	0.0713	0.9686	0.037
Mof_H 	H 	0.2557	0.07	0.9917	0.046
Mof_C 	C 	0.8525	0.5378	0.4379	-0.072
Mof_H 	H 	0.8293	0.5044	0.3965	0.076
Mof_C 	C 	0.6258	0.6062	0.5745	-0.095
Mof_C 	C 	0.3811	0.8198	0.6617	0.083
Mof_H 	H 	0.3527	0.8249	0.6209	0.015
Mof_C 	C 	0.3971	0.1556	0.7527	-0.021
Mof_H 	H 	0.3571	0.1213	0.7615	0.042
Mof_H 	H 	0.3942	0.2318	0.7613	0.05
Mof_C 	C 	0.8092	0.6713	0.5102	-0.032
Mof_H 	H 	0.8096	0.6764	0.5599	0.048
Mof_H 	H 	0.7724	0.711	0.4875	0.061
Mof_C 	C 	0.3982	0.7973	0.784	0.066
Mof_H 	H 	0.3826	0.7858	0.826	0.014
Mof_C 	C 	0.4843	0.8201	0.7176	0.086
Mof_H 	H 	0.5287	0.8234	0.7154	0.011
Mof_C 	C 	0.4804	0.13	0.6823	-0.045
Mof_H 	H 	0.4968	0.1985	0.6687	0.049
Mof_H 	H 	0.4914	0.0758	0.6501	0.051
Mof_C 	C 	0.8738	0.6484	0.4205	-0.071
Mof_H 	H 	0.8446	0.6792	0.3829	0.064
Mof_H 	H 	0.9174	0.6475	0.4077	0.056
Mof_C 	C 	0.3558	0.8041	0.7241	-0.141
Mof_H 	H 	0.3113	0.7983	0.7249	0.086
Mof_C 	C 	0.4824	0.4068	0.9038	0.074
Mof_H 	H 	0.484	0.3326	0.9004	0.021
Mof_C 	C 	0.8714	0.7115	0.4887	-0.108
Mof_H 	H 	0.9081	0.6944	0.5228	0.068
Mof_H 	H 	0.87	0.7882	0.4807	0.068
Mof_C 	C 	0.4286	0.4527	0.9294	-0.125
Mof_H 	H 	0.3957	0.4102	0.9429	0.088
Mof_C 	C 	0.4632	0.8075	0.7815	-0.139
Mof_H 	H 	0.4925	0.8061	0.8218	0.088
Mof_C 	C 	0.5295	0.5691	0.8903	0.075
Mof_H 	H 	0.5621	0.6105	0.8752	0.012
Mof_C 	C 	0.4779	0.6212	0.9204	-0.128
Mof_H 	H 	0.4803	0.694	0.9303	0.079
Mof_C 	C 	0.4104	0.135	0.682	-0.122
Mof_H 	H 	0.3908	0.0678	0.6655	0.077
Mof_H 	H 	0.3923	0.1918	0.6516	0.066
Mof_C 	C 	0.4262	0.564	0.934	0.057
Mof_H 	H 	0.3896	0.5981	0.9462	0.018
Mof_Cu	Cu	0.19722	0.73703	0.81207	0.904
Mof_Cu	Cu	0.10931	0.87236	0.85003	0.916
Mof_Cu	Cu	0.98004	0.33561	0.56293	0.918
Mof_O 	O 	0.0389	0.2177	0.5905	-0.383
Mof_O 	O 	0.4433	0.9332	0.4208	-0.401
Mof_O 	O 	0.0469	0.7688	0.8045	-0.396
Mof_O 	O 	0.123	0.9362	0.7592	-0.403
Mof_O 	O 	0.191	0.815	0.7252	-0.419
Mof_O 	O 	0.4221	0.9517	0.5305	-0.389
Mof_N 	N 	0.9439	0.3278	0.659	-0.198
Mof_O 	O 	0.08082	0.2315	0.4898	-0.385
Mof_O 	O 	0.88179	0.7781	0.0677	-0.395
Mof_O 	O 	0.6823	0.4588	0.892	-0.388
Mof_O 	O 	0.1204	0.6494	0.7784	-0.402
Mof_O 	O 	0.7562	0.3507	0.8512	-0.404
Mof_N 	N 	0.3073	0.0594	0.4876	-0.119
Mof_O 	O 	0.8013	0.6734	0.097	-0.392
Mof_O 	O 	0.2806	0.8838	0.4936	-0.223
Mof_N 	N 	0.9544	0.6072	0.796	-0.118
Mof_C 	C 	0.0632	0.6794	0.784	0.362
Mof_C 	C 	0.8434	0.635	0.9923	-0.089
Mof_N 	N 	0.0315	0.9635	0.8839	-0.189
Mof_C 	C 	0.0791	0.1912	0.5494	0.343
Mof_C 	C 	0.214	0.9434	0.6126	0.016
Mof_H 	H 	0.2417	0.8857	0.6237	0.042
Mof_C 	C 	0.8994	0.5807	0.897	-0.056
Mof_C 	C 	0.4109	0.9683	0.4655	0.346
Mof_C 	C 	0.8975	0.6417	0.9571	0.019
Mof_H 	H 	0.932	0.6861	0.9733	0.051
Mof_C 	C 	0.959	0.5813	0.8616	0.194
Mof_C 	C 	0.8436	0.7011	0.0567	0.347
Mof_O 	O 	0.0129	0.5545	0.8943	-0.202
Mof_C 	C 	0.0099	0.6014	0.7566	-0.086
Mof_H 	H 	0.0271	0.5283	0.7579	0.084
Mof_C 	C 	0.2218	0.0062	0.5551	-0.063
Mof_C 	C 	0.1779	0.0856	0.5364	0.015
Mof_H 	H 	0.1824	0.1272	0.4977	0.048
Mof_C 	C 	0.1212	0.0482	0.6333	0.038
Mof_H 	H 	0.0885	0.0639	0.6601	0.049
Mof_C 	C 	0.1577	0.8987	0.7174	0.365
Mof_C 	C 	0.794	0.5075	0.9094	-0.09
Mof_C 	C 	0.1651	0.9656	0.6539	-0.1
Mof_C 	C 	0.8494	0.5137	0.8759	0.015
Mof_H 	H 	0.852	0.4702	0.8376	0.042
Mof_C 	C 	0.2732	0.9772	0.5096	0.204
Mof_C 	C 	0.7399	0.4332	0.882	0.343
Mof_C 	C 	0.7921	0.5713	0.9686	0.037
Mof_H 	H 	0.7557	0.57	0.9917	0.046
Mof_C 	C 	0.3525	0.0378	0.4379	-0.072
Mof_H 	H 	0.3293	0.0044	0.3965	0.076
Mof_C 	C 	0.1258	0.1062	0.5745	-0.095
Mof_C 	C 	0.8811	0.3198	0.6617	0.083
Mof_H 	H 	0.8527	0.3249	0.6209	0.016
Mof_C 	C 	0.8971	0.6556	0.7527	-0.021
Mof_H 	H 	0.8571	0.6213	0.7615	0.043
Mof_H 	H 	0.8942	0.7318	0.7613	0.05
Mof_C 	C 	0.3092	0.1713	0.5102	-0.032
Mof_H 	H 	0.3096	0.1764	0.5599	0.048
Mof_H 	H 	0.2724	0.211	0.4875	0.061
Mof_C 	C 	0.8982	0.2973	0.784	0.065
Mof_H 	H 	0.8826	0.2858	0.826	0.014
Mof_C 	C 	0.9843	0.3201	0.7176	0.084
Mof_H 	H 	0.0287	0.3234	0.7154	0.012
Mof_C 	C 	0.9804	0.63	0.6823	-0.047
Mof_H 	H 	0.9968	0.6985	0.6687	0.05
Mof_H 	H 	0.9914	0.5758	0.6501	0.051
Mof_C 	C 	0.3738	0.1484	0.4205	-0.071
Mof_H 	H 	0.3446	0.1792	0.3829	0.064
Mof_H 	H 	0.4174	0.1475	0.4077	0.056
Mof_C 	C 	0.8558	0.3041	0.7241	-0.14
Mof_H 	H 	0.8113	0.2983	0.7249	0.085
Mof_C 	C 	0.9824	0.9068	0.9038	0.073
Mof_H 	H 	0.984	0.8326	0.9004	0.021
Mof_C 	C 	0.3714	0.2115	0.4887	-0.108
Mof_H 	H 	0.4081	0.1944	0.5228	0.068
Mof_H 	H 	0.37	0.2882	0.4807	0.068
Mof_C 	C 	0.9286	0.9527	0.9294	-0.126
Mof_H 	H 	0.8957	0.9102	0.9429	0.088
Mof_C 	C 	0.9632	0.3075	0.7815	-0.138
Mof_H 	H 	0.9925	0.3061	0.8218	0.087
Mof_C 	C 	0.0295	0.0691	0.8903	0.077
Mof_H 	H 	0.0621	0.1105	0.8752	0.011
Mof_C 	C 	0.9779	0.1212	0.9204	-0.13
Mof_H 	H 	0.9803	0.194	0.9303	0.08
Mof_C 	C 	0.9104	0.635	0.682	-0.12
Mof_H 	H 	0.8908	0.5678	0.6655	0.077
Mof_H 	H 	0.8923	0.6918	0.6516	0.065
Mof_C 	C 	0.9262	0.064	0.934	0.058
Mof_H 	H 	0.8896	0.0981	0.9462	0.017
_end
