data_functionalizedCrystal
_audit_creation_method	'EQeq! by Chris Wilmer'
_symmetry_space_group_name_H-M	'P1'
_symmetry_Int_Tables_number	1
_symmetry_cell_setting	triclinic
loop_
_symmetry_equiv_pos_as_xyz
  x,y,z
_cell_length_a	16.0636
_cell_length_b	16.0636
_cell_length_c	27.915
_cell_angle_alpha	79.8902
_cell_angle_beta	79.8902
_cell_angle_gamma	63.1763
loop_
_atom_site_label
_atom_site_type_symbol
_atom_site_fract_x
_atom_site_fract_y
_atom_site_fract_z
_atom_site_charge
Mof_Gd	Gd	0.53127	0.06657	0.04611	1.632
Mof_Gd	Gd	0.93343	0.46873	0.45389	1.635
Mof_Gd	Gd	0.46873	0.93343	0.95389	1.632
Mof_Gd	Gd	0.06657	0.53127	0.54611	1.635
Mof_H 	H 	0.6337	0.0649	0.2035	0.019
Mof_H 	H 	0.7077	0.1065	0.2535	0.103
Mof_H 	H 	0.8412	0.1948	0.1335	0.102
Mof_H 	H 	0.7603	0.1599	0.0855	0.019
Mof_H 	H 	0.6752	0.1724	0.9101	-0.019
Mof_H 	H 	0.7386	0.2334	0.8414	0.136
Mof_H 	H 	0.6328	0.134	0.7575	0.117
Mof_H 	H 	0.5692	0.0678	0.8294	-0.005
Mof_H 	H 	0.1762	0.2108	0.9443	-0.006
Mof_H 	H 	0.0504	0.3538	0.9571	0.124
Mof_H 	H 	0.1933	0.4119	0.0393	0.13
Mof_H 	H 	0.3181	0.2675	0.0313	-0.071
Mof_H 	H 	0.9351	0.3663	0.2965	0.019
Mof_H 	H 	0.8935	0.2923	0.2465	0.103
Mof_H 	H 	0.8052	0.1588	0.3665	0.102
Mof_H 	H 	0.8401	0.2397	0.4145	0.02
Mof_H 	H 	0.8276	0.3248	0.5899	-0.02
Mof_H 	H 	0.7666	0.2614	0.6586	0.136
Mof_H 	H 	0.866	0.3672	0.7425	0.117
Mof_H 	H 	0.9322	0.4308	0.6706	-0.006
Mof_H 	H 	0.7892	0.8238	0.5557	-0.006
Mof_H 	H 	0.6462	0.9496	0.5429	0.124
Mof_H 	H 	0.5881	0.8067	0.4607	0.13
Mof_H 	H 	0.7325	0.6819	0.4687	-0.072
Mof_H 	H 	0.3663	0.9351	0.7965	0.019
Mof_H 	H 	0.2923	0.8935	0.7465	0.103
Mof_H 	H 	0.1588	0.8052	0.8665	0.102
Mof_H 	H 	0.2397	0.8401	0.9145	0.019
Mof_H 	H 	0.3248	0.8276	0.0899	-0.019
Mof_H 	H 	0.2614	0.7666	0.1586	0.136
Mof_H 	H 	0.3672	0.866	0.2425	0.117
Mof_H 	H 	0.4308	0.9322	0.1706	-0.005
Mof_H 	H 	0.8238	0.7892	0.0557	-0.006
Mof_H 	H 	0.9496	0.6462	0.0429	0.124
Mof_H 	H 	0.8067	0.5881	0.9607	0.13
Mof_H 	H 	0.6819	0.7325	0.9687	-0.071
Mof_H 	H 	0.0649	0.6337	0.7035	0.019
Mof_H 	H 	0.1065	0.7077	0.7535	0.103
Mof_H 	H 	0.1948	0.8412	0.6335	0.102
Mof_H 	H 	0.1599	0.7603	0.5855	0.02
Mof_H 	H 	0.1724	0.6752	0.4101	-0.02
Mof_H 	H 	0.2334	0.7386	0.3414	0.136
Mof_H 	H 	0.134	0.6328	0.2575	0.117
Mof_H 	H 	0.0678	0.5692	0.3294	-0.006
Mof_H 	H 	0.2108	0.1762	0.4443	-0.006
Mof_H 	H 	0.3538	0.0504	0.4571	0.124
Mof_H 	H 	0.4119	0.1933	0.5393	0.13
Mof_H 	H 	0.2675	0.3181	0.5313	-0.072
Mof_C 	C 	0.6449	0.0765	0.10989	0.326
Mof_C 	C 	0.7042	0.0928	0.13883	-0.126
Mof_C 	C 	0.6782	0.087	0.1899	0.068
Mof_C 	C 	0.7201	0.1147	0.21964	-0.174
Mof_C 	C 	0.7801	0.1545	0.1988	0.162
Mof_C 	C 	0.8	0.169	0.14743	-0.177
Mof_C 	C 	0.7557	0.1431	0.11911	0.079
Mof_C 	C 	0.5787	0.0759	0.92305	0.464
Mof_C 	C 	0.618	0.113	0.87716	-0.227
Mof_C 	C 	0.6674	0.1632	0.87949	0.172
Mof_C 	C 	0.7052	0.2002	0.8388	-0.269
Mof_C 	C 	0.6929	0.1873	0.7954	0.219
Mof_C 	C 	0.6415	0.1397	0.7886	-0.226
Mof_C 	C 	0.6033	0.1007	0.83165	0.14
Mof_C 	C 	0.3353	0.1297	0.98096	0.485
Mof_C 	C 	0.25946	0.22306	0.98751	-0.25
Mof_C 	C 	0.1791	0.2499	0.96418	0.16
Mof_C 	C 	0.1049	0.3357	0.9715	-0.236
Mof_C 	C 	0.11033	0.39773	0.00101	0.231
Mof_C 	C 	0.1892	0.3708	0.02116	-0.285
Mof_C 	C 	0.26474	0.28474	0.01614	0.193
Mof_C 	C 	0.9235	0.3551	0.39011	0.326
Mof_C 	C 	0.9072	0.2958	0.36117	-0.126
Mof_C 	C 	0.913	0.3218	0.3101	0.068
Mof_C 	C 	0.8853	0.2799	0.28036	-0.174
Mof_C 	C 	0.8455	0.2199	0.3012	0.162
Mof_C 	C 	0.831	0.2	0.35257	-0.177
Mof_C 	C 	0.8569	0.2443	0.38089	0.079
Mof_C 	C 	0.9241	0.4213	0.57695	0.465
Mof_C 	C 	0.887	0.382	0.62284	-0.228
Mof_C 	C 	0.8368	0.3326	0.62051	0.172
Mof_C 	C 	0.7998	0.2948	0.6612	-0.269
Mof_C 	C 	0.8127	0.3071	0.7046	0.219
Mof_C 	C 	0.8603	0.3585	0.7114	-0.227
Mof_C 	C 	0.8993	0.3967	0.66835	0.141
Mof_C 	C 	0.8703	0.6647	0.51904	0.484
Mof_C 	C 	0.77694	0.74054	0.51249	-0.251
Mof_C 	C 	0.7501	0.8209	0.53582	0.161
Mof_C 	C 	0.6643	0.8951	0.5285	-0.237
Mof_C 	C 	0.60227	0.88967	0.49899	0.232
Mof_C 	C 	0.6292	0.8108	0.47884	-0.286
Mof_C 	C 	0.71526	0.73526	0.48386	0.196
Mof_C 	C 	0.3551	0.9235	0.89011	0.326
Mof_C 	C 	0.2958	0.9072	0.86117	-0.126
Mof_C 	C 	0.3218	0.913	0.8101	0.068
Mof_C 	C 	0.2799	0.8853	0.78036	-0.174
Mof_C 	C 	0.2199	0.8455	0.8012	0.162
Mof_C 	C 	0.2	0.831	0.85257	-0.177
Mof_C 	C 	0.2443	0.8569	0.88089	0.079
Mof_C 	C 	0.4213	0.9241	0.07695	0.464
Mof_C 	C 	0.382	0.887	0.12284	-0.227
Mof_C 	C 	0.3326	0.8368	0.12051	0.172
Mof_C 	C 	0.2948	0.7998	0.1612	-0.269
Mof_C 	C 	0.3071	0.8127	0.2046	0.219
Mof_C 	C 	0.3585	0.8603	0.2114	-0.226
Mof_C 	C 	0.3967	0.8993	0.16835	0.14
Mof_C 	C 	0.6647	0.8703	0.01904	0.485
Mof_C 	C 	0.74054	0.77694	0.01249	-0.25
Mof_C 	C 	0.8209	0.7501	0.03582	0.16
Mof_C 	C 	0.8951	0.6643	0.0285	-0.236
Mof_C 	C 	0.88967	0.60227	0.99899	0.231
Mof_C 	C 	0.8108	0.6292	0.97884	-0.285
Mof_C 	C 	0.73526	0.71526	0.98386	0.193
Mof_C 	C 	0.0765	0.6449	0.60989	0.326
Mof_C 	C 	0.0928	0.7042	0.63883	-0.126
Mof_C 	C 	0.087	0.6782	0.6899	0.068
Mof_C 	C 	0.1147	0.7201	0.71964	-0.174
Mof_C 	C 	0.1545	0.7801	0.6988	0.162
Mof_C 	C 	0.169	0.8	0.64743	-0.177
Mof_C 	C 	0.1431	0.7557	0.61911	0.079
Mof_C 	C 	0.0759	0.5787	0.42305	0.465
Mof_C 	C 	0.113	0.618	0.37716	-0.228
Mof_C 	C 	0.1632	0.6674	0.37949	0.172
Mof_C 	C 	0.2002	0.7052	0.3388	-0.269
Mof_C 	C 	0.1873	0.6929	0.2954	0.219
Mof_C 	C 	0.1397	0.6415	0.2886	-0.227
Mof_C 	C 	0.1007	0.6033	0.33165	0.141
Mof_C 	C 	0.1297	0.3353	0.48096	0.484
Mof_C 	C 	0.22306	0.25946	0.48751	-0.251
Mof_C 	C 	0.2499	0.1791	0.46418	0.161
Mof_C 	C 	0.3357	0.1049	0.4715	-0.237
Mof_C 	C 	0.39773	0.11033	0.50101	0.232
Mof_C 	C 	0.3708	0.1892	0.52116	-0.286
Mof_C 	C 	0.28474	0.26474	0.51614	0.196
Mof_N 	N 	0.82016	0.19076	0.22522	-0.102
Mof_N 	N 	0.72374	0.22594	0.75095	-0.112
Mof_N 	N 	0.04427	0.48427	0.00515	-0.121
Mof_N 	N 	0.80924	0.17984	0.27478	-0.102
Mof_N 	N 	0.77406	0.27626	0.74905	-0.112
Mof_N 	N 	0.51573	0.95573	0.49485	-0.121
Mof_N 	N 	0.17984	0.80924	0.77478	-0.102
Mof_N 	N 	0.27626	0.77406	0.24905	-0.112
Mof_N 	N 	0.95573	0.51573	0.99485	-0.121
Mof_N 	N 	0.19076	0.82016	0.72522	-0.102
Mof_N 	N 	0.22594	0.72374	0.25095	-0.112
Mof_N 	N 	0.48427	0.04427	0.50515	-0.121
Mof_O 	O 	0.59043	0.04185	0.12606	-0.396
Mof_O 	O 	0.65655	0.10355	0.06349	-0.377
Mof_O 	O 	0.59233	0.08463	0.96494	-0.475
Mof_O 	O 	0.53091	0.03631	0.91401	-0.471
Mof_O 	O 	0.40292	0.10372	0.00289	-0.545
Mof_O 	O 	0.32472	0.0794	0.95384	-0.411
Mof_O 	O 	0.95815	0.40957	0.37394	-0.396
Mof_O 	O 	0.89645	0.34345	0.43651	-0.377
Mof_O 	O 	0.91537	0.40767	0.53506	-0.476
Mof_O 	O 	0.96369	0.46909	0.58599	-0.472
Mof_O 	O 	0.89628	0.59708	0.49711	-0.544
Mof_O 	O 	0.9206	0.67528	0.54616	-0.412
Mof_O 	O 	0.40957	0.95815	0.87394	-0.396
Mof_O 	O 	0.34345	0.89645	0.93651	-0.377
Mof_O 	O 	0.40767	0.91537	0.03506	-0.475
Mof_O 	O 	0.46909	0.96369	0.08599	-0.471
Mof_O 	O 	0.59708	0.89628	0.99711	-0.545
Mof_O 	O 	0.67528	0.9206	0.04616	-0.411
Mof_O 	O 	0.04185	0.59043	0.62606	-0.396
Mof_O 	O 	0.10355	0.65655	0.56349	-0.377
Mof_O 	O 	0.08463	0.59233	0.46494	-0.476
Mof_O 	O 	0.03631	0.53091	0.41401	-0.472
Mof_O 	O 	0.10372	0.40292	0.50289	-0.544
Mof_O 	O 	0.0794	0.32472	0.45384	-0.412
_end
