data_functionalizedCrystal
_audit_creation_method	'EQeq! by Chris Wilmer'
_symmetry_space_group_name_H-M	'P1'
_symmetry_Int_Tables_number	1
_symmetry_cell_setting	triclinic
loop_
_symmetry_equiv_pos_as_xyz
  x,y,z
_cell_length_a	11.184
_cell_length_b	11.184
_cell_length_c	14.591
_cell_angle_alpha	90
_cell_angle_beta	90
_cell_angle_gamma	120
loop_
_atom_site_label
_atom_site_type_symbol
_atom_site_fract_x
_atom_site_fract_y
_atom_site_fract_z
_atom_site_charge
Mof_O 	O 	0.893	0.37	0.151	-0.381
Mof_O 	O 	0.881	0.559	0.154	-0.425
Mof_C 	C 	0.919	0.482	0.114	0.422
Mof_C 	C 	0.935	0.482	0.019	-0.065
Mof_O 	O 	0.63	0.523	0.151	-0.381
Mof_O 	O 	0.441	0.322	0.154	-0.425
Mof_C 	C 	0.518	0.437	0.114	0.423
Mof_C 	C 	0.518	0.453	0.019	-0.064
Mof_O 	O 	0.477	0.107	0.151	-0.38
Mof_O 	O 	0.678	0.119	0.154	-0.424
Mof_C 	C 	0.563	0.081	0.114	0.423
Mof_C 	C 	0.547	0.065	0.019	-0.064
Mof_O 	O 	0.893	0.37	0.349	-0.38
Mof_O 	O 	0.881	0.559	0.346	-0.424
Mof_C 	C 	0.919	0.482	0.386	0.423
Mof_C 	C 	0.935	0.482	0.481	-0.064
Mof_O 	O 	0.63	0.523	0.349	-0.38
Mof_O 	O 	0.441	0.322	0.346	-0.424
Mof_C 	C 	0.518	0.437	0.386	0.423
Mof_C 	C 	0.518	0.453	0.481	-0.064
Mof_O 	O 	0.477	0.107	0.349	-0.38
Mof_O 	O 	0.678	0.119	0.346	-0.424
Mof_C 	C 	0.563	0.081	0.386	0.423
Mof_C 	C 	0.547	0.065	0.481	-0.064
Mof_O 	O 	0.37	0.893	0.849	-0.38
Mof_O 	O 	0.559	0.881	0.846	-0.424
Mof_C 	C 	0.482	0.919	0.886	0.423
Mof_C 	C 	0.482	0.935	0.981	-0.064
Mof_O 	O 	0.523	0.63	0.849	-0.38
Mof_O 	O 	0.322	0.441	0.846	-0.424
Mof_C 	C 	0.437	0.518	0.886	0.423
Mof_C 	C 	0.453	0.518	0.981	-0.064
Mof_O 	O 	0.107	0.477	0.849	-0.38
Mof_O 	O 	0.119	0.678	0.846	-0.424
Mof_C 	C 	0.081	0.563	0.886	0.423
Mof_C 	C 	0.065	0.547	0.981	-0.064
Mof_O 	O 	0.37	0.893	0.651	-0.38
Mof_O 	O 	0.559	0.881	0.654	-0.424
Mof_C 	C 	0.482	0.919	0.614	0.423
Mof_C 	C 	0.482	0.935	0.519	-0.064
Mof_O 	O 	0.523	0.63	0.651	-0.38
Mof_O 	O 	0.322	0.441	0.654	-0.424
Mof_C 	C 	0.437	0.518	0.614	0.423
Mof_C 	C 	0.453	0.518	0.519	-0.064
Mof_O 	O 	0.107	0.477	0.651	-0.38
Mof_O 	O 	0.119	0.678	0.654	-0.424
Mof_C 	C 	0.081	0.563	0.614	0.423
Mof_C 	C 	0.065	0.547	0.519	-0.064
Mof_Fe	Fe	0.769	0.237	0.25	1.07
Mof_Fe	Fe	0.763	0.532	0.25	1.07
Mof_Fe	Fe	0.468	0.231	0.25	1.07
Mof_Fe	Fe	0.237	0.769	0.75	1.07
Mof_Fe	Fe	0.532	0.763	0.75	1.07
Mof_Fe	Fe	0.231	0.468	0.75	1.07
Mof_O 	O 	0.66667	0.33333	0.25	-0.537
Mof_O 	O 	0.33333	0.66667	0.75	-0.537
_end
