data_functionalizedCrystal
_audit_creation_method	'EQeq! by Chris Wilmer'
_symmetry_space_group_name_H-M	'P1'
_symmetry_Int_Tables_number	1
_symmetry_cell_setting	triclinic
loop_
_symmetry_equiv_pos_as_xyz
  x,y,z
_cell_length_a	10.1661
_cell_length_b	21.4687
_cell_length_c	20.113
_cell_angle_alpha	90
_cell_angle_beta	97.091
_cell_angle_gamma	90
loop_
_atom_site_label
_atom_site_type_symbol
_atom_site_fract_x
_atom_site_fract_y
_atom_site_fract_z
_atom_site_charge
Mof_K 	K 	0.12642	0.13019	0.85712	2.591
Mof_K 	K 	0.63551	0.1124	0.84982	2.56
Mof_K 	K 	0.06432	0.41052	0.96627	2.782
Mof_C 	C 	0.1585	0.28206	0.74408	0.097
Mof_N 	N 	0.1673	0.23854	0.77706	-0.354
Mof_N 	N 	0.1872	0.43359	0.84497	-0.343
Mof_C 	C 	0.1726	0.41867	0.79005	0.028
Mof_C 	C 	0.1324	0.50144	0.66392	-0.072
Mof_N 	N 	0.1328	0.55505	0.66513	-0.461
Mof_C 	C 	0.0973	0.41402	0.53936	0.054
Mof_N 	N 	0.0869	0.42621	0.48383	-0.355
Mof_C 	C 	0.1089	0.2788	0.59177	0.032
Mof_N 	N 	0.0981	0.23329	0.56161	-0.153
Mof_C 	C 	0.1457	0.33526	0.7017	-0.059
Mof_C 	C 	0.1522	0.39808	0.72239	-0.056
Mof_C 	C 	0.1327	0.4354	0.66429	-0.04
Mof_C 	C 	0.1147	0.39574	0.60806	-0.072
Mof_C 	C 	0.1226	0.33399	0.6314	-0.012
Mof_C 	C 	0.9323	0.27247	0.05804	0.041
Mof_N 	N 	0.9252	0.3178	0.02796	-0.376
Mof_C 	C 	0.9018	0.14212	0.99723	0.001
Mof_N 	N 	0.8795	0.13233	0.94116	-0.453
Mof_C 	C 	0.9414	0.04604	0.1141	0.067
Mof_N 	N 	0.9333	0.99322	0.11255	-0.42
Mof_C 	C 	0.0011	0.11909	0.24504	0.035
Mof_N 	N 	0.0232	0.0984	0.2975	-0.167
Mof_C 	C 	0.9956	0.25839	0.21221	0.076
Mof_N 	N 	0.017	0.29719	0.25111	-0.363
Mof_C 	C 	0.9427	0.21577	0.09487	-0.055
Mof_C 	C 	0.9744	0.14551	0.17965	-0.01
Mof_C 	C 	0.9296	0.15572	0.06674	-0.042
Mof_C 	C 	0.9489	0.11215	0.1195	-0.077
Mof_C 	C 	0.9709	0.20941	0.16461	-0.058
Mof_C 	C 	0.2729	0.29181	0.09864	0.041
Mof_N 	N 	0.2532	0.33473	0.06491	-0.32
Mof_N 	N 	0.2241	0.14337	0.99325	-0.374
Mof_C 	C 	0.2503	0.15713	0.048	0.093
Mof_N 	N 	0.2966	0.01632	0.1676	-0.397
Mof_C 	C 	0.2993	0.06978	0.16997	0.055
Mof_C 	C 	0.3585	0.15053	0.29645	0.054
Mof_N 	N 	0.3856	0.13156	0.34958	-0.368
Mof_N 	N 	0.3601	0.33291	0.28403	-0.482
Mof_C 	C 	0.343	0.28932	0.25141	-0.034
Mof_C 	C 	0.2935	0.23756	0.13912	-0.051
Mof_C 	C 	0.2814	0.17562	0.11622	-0.053
Mof_C 	C 	0.3029	0.13608	0.17188	-0.044
Mof_C 	C 	0.3282	0.17326	0.22968	-0.06
Mof_C 	C 	0.3228	0.23584	0.20933	-0.045
Mof_N 	N 	0.2796	0.52463	0.0068	0.079
Mof_O 	O 	0.3288	0.47304	0.00538	-0.4
Mof_O 	O 	0.1622	0.53454	0.9882	-0.74
Mof_C 	C 	0.3639	0.57793	0.0323	-0.265
Mof_H 	H 	0.3464	0.5882	0.0779	0.059
Mof_H 	H 	0.3435	0.6141	0.0031	0.079
Mof_H 	H 	0.4575	0.5667	0.0328	0.101
Mof_N 	N 	0.4886	0.2448	0.9027	-0.048
Mof_O 	O 	0.6019	0.25505	0.8948	-0.318
Mof_O 	O 	0.4369	0.1937	0.8969	-0.147
Mof_C 	C 	0.4073	0.2986	0.9164	0.302
Mof_H 	H 	0.4217	0.3325	0.8854	0.018
Mof_H 	H 	0.4324	0.3126	0.9626	-0.117
Mof_H 	H 	0.3135	0.2867	0.9103	-1.321
Mof_N 	N 	0.3125	0.266	0.9108	1.375
Mof_O 	O 	0.3529	0.2148	0.896	-0.647
Mof_O 	O 	0.1958	0.2769	0.9153	-0.445
Mof_C 	C 	0.4083	0.3141	0.9213	0.245
Mof_H 	H 	0.4431	0.3234	0.879	-0.115
Mof_H 	H 	0.481	0.3007	0.9548	-0.034
Mof_H 	H 	0.3671	0.3516	0.9373	-0.064
Mof_K 	K 	0.37358	0.63019	0.64288	2.608
Mof_K 	K 	0.86449	0.6124	0.65018	2.562
Mof_K 	K 	0.43568	0.91052	0.53373	2.798
Mof_C 	C 	0.3415	0.78206	0.75592	0.099
Mof_N 	N 	0.3327	0.73854	0.72294	-0.353
Mof_N 	N 	0.3128	0.93359	0.65503	-0.343
Mof_C 	C 	0.3274	0.91867	0.70995	0.03
Mof_C 	C 	0.3676	0.00144	0.83608	-0.077
Mof_N 	N 	0.3672	0.05505	0.83487	-0.459
Mof_C 	C 	0.4027	0.91402	0.96064	0.059
Mof_N 	N 	0.4131	0.92621	0.01617	-0.357
Mof_C 	C 	0.3911	0.7788	0.90823	0.033
Mof_N 	N 	0.4019	0.73329	0.93839	-0.152
Mof_C 	C 	0.3543	0.83526	0.7983	-0.058
Mof_C 	C 	0.3478	0.89808	0.77761	-0.057
Mof_C 	C 	0.3673	0.9354	0.83571	-0.035
Mof_C 	C 	0.3853	0.89574	0.89194	-0.074
Mof_C 	C 	0.3774	0.83399	0.8686	-0.011
Mof_C 	C 	0.5677	0.77247	0.44196	0.041
Mof_N 	N 	0.5748	0.8178	0.47204	-0.378
Mof_C 	C 	0.5982	0.64212	0.50277	-0.002
Mof_N 	N 	0.6205	0.63233	0.55884	-0.454
Mof_C 	C 	0.5586	0.54604	0.3859	0.062
Mof_N 	N 	0.5667	0.49322	0.38745	-0.416
Mof_C 	C 	0.4989	0.61909	0.25496	0.035
Mof_N 	N 	0.4768	0.5984	0.2025	-0.166
Mof_C 	C 	0.5044	0.75839	0.28779	0.077
Mof_N 	N 	0.483	0.79719	0.24889	-0.363
Mof_C 	C 	0.5573	0.71577	0.40513	-0.056
Mof_C 	C 	0.5256	0.64551	0.32035	-0.01
Mof_C 	C 	0.5704	0.65572	0.43326	-0.041
Mof_C 	C 	0.5511	0.61215	0.3805	-0.076
Mof_C 	C 	0.5291	0.70941	0.33539	-0.058
Mof_C 	C 	0.2271	0.79181	0.40136	0.041
Mof_N 	N 	0.2468	0.83473	0.43509	-0.322
Mof_N 	N 	0.2759	0.64337	0.50675	-0.37
Mof_C 	C 	0.2497	0.65713	0.452	0.086
Mof_N 	N 	0.2034	0.51632	0.3324	-0.398
Mof_C 	C 	0.2007	0.56978	0.33003	0.056
Mof_C 	C 	0.1415	0.65053	0.20355	0.055
Mof_N 	N 	0.1144	0.63156	0.15042	-0.365
Mof_N 	N 	0.1399	0.83291	0.21597	-0.48
Mof_C 	C 	0.157	0.78932	0.24859	-0.033
Mof_C 	C 	0.2065	0.73756	0.36088	-0.052
Mof_C 	C 	0.2186	0.67562	0.38378	-0.05
Mof_C 	C 	0.1971	0.63608	0.32812	-0.045
Mof_C 	C 	0.1718	0.67326	0.27032	-0.059
Mof_C 	C 	0.1772	0.73584	0.29067	-0.044
Mof_N 	N 	0.2204	0.02463	0.4932	0.076
Mof_O 	O 	0.1712	0.97304	0.49462	-0.401
Mof_O 	O 	0.3378	0.03454	0.5118	-0.741
Mof_C 	C 	0.1361	0.07793	0.4677	-0.263
Mof_H 	H 	0.1536	0.0882	0.4221	0.057
Mof_H 	H 	0.1565	0.1141	0.4969	0.078
Mof_H 	H 	0.0425	0.0667	0.4672	0.1
Mof_N 	N 	0.0114	0.7448	0.5973	-0.047
Mof_O 	O 	0.8981	0.75505	0.6052	-0.319
Mof_O 	O 	0.0631	0.6937	0.6031	-0.147
Mof_C 	C 	0.0927	0.7986	0.5836	0.301
Mof_H 	H 	0.0783	0.8325	0.6146	0.018
Mof_H 	H 	0.0676	0.8126	0.5374	-0.116
Mof_H 	H 	0.1865	0.7867	0.5897	-1.32
Mof_N 	N 	0.1875	0.766	0.5892	1.374
Mof_O 	O 	0.1471	0.7148	0.604	-0.647
Mof_O 	O 	0.3042	0.7769	0.5847	-0.445
Mof_C 	C 	0.0917	0.8141	0.5787	0.245
Mof_H 	H 	0.0569	0.8234	0.621	-0.115
Mof_H 	H 	0.019	0.8007	0.5452	-0.033
Mof_H 	H 	0.1329	0.8516	0.5627	-0.064
Mof_K 	K 	0.87358	0.86981	0.14288	2.592
Mof_K 	K 	0.36449	0.8876	0.15018	2.561
Mof_K 	K 	0.93568	0.58948	0.03373	2.783
Mof_C 	C 	0.8415	0.71794	0.25592	0.098
Mof_N 	N 	0.8327	0.76146	0.22294	-0.353
Mof_N 	N 	0.8128	0.56641	0.15503	-0.342
Mof_C 	C 	0.8274	0.58133	0.20995	0.028
Mof_C 	C 	0.8676	0.49856	0.33608	-0.072
Mof_N 	N 	0.8672	0.44495	0.33487	-0.461
Mof_C 	C 	0.9027	0.58598	0.46064	0.054
Mof_N 	N 	0.9131	0.57379	0.51617	-0.355
Mof_C 	C 	0.8911	0.7212	0.40823	0.032
Mof_N 	N 	0.9019	0.76671	0.43839	-0.153
Mof_C 	C 	0.8543	0.66474	0.2983	-0.059
Mof_C 	C 	0.8478	0.60192	0.27761	-0.056
Mof_C 	C 	0.8673	0.5646	0.33571	-0.04
Mof_C 	C 	0.8853	0.60426	0.39194	-0.072
Mof_C 	C 	0.8774	0.66601	0.3686	-0.012
Mof_C 	C 	0.0677	0.72753	0.94196	0.041
Mof_N 	N 	0.0748	0.6822	0.97204	-0.376
Mof_C 	C 	0.0982	0.85788	0.00277	0.001
Mof_N 	N 	0.1205	0.86767	0.05884	-0.453
Mof_C 	C 	0.0586	0.95396	0.8859	0.067
Mof_N 	N 	0.0667	0.00678	0.88745	-0.42
Mof_C 	C 	0.9989	0.88091	0.75496	0.035
Mof_N 	N 	0.9768	0.9016	0.7025	-0.167
Mof_C 	C 	0.0044	0.74161	0.78779	0.076
Mof_N 	N 	0.983	0.70281	0.74889	-0.363
Mof_C 	C 	0.0573	0.78423	0.90513	-0.055
Mof_C 	C 	0.0256	0.85449	0.82035	-0.01
Mof_C 	C 	0.0704	0.84428	0.93326	-0.042
Mof_C 	C 	0.0511	0.88785	0.8805	-0.077
Mof_C 	C 	0.0291	0.79059	0.83539	-0.058
Mof_C 	C 	0.7271	0.70819	0.90136	0.041
Mof_N 	N 	0.7468	0.66527	0.93509	-0.32
Mof_N 	N 	0.7759	0.85663	0.00675	-0.374
Mof_C 	C 	0.7497	0.84287	0.952	0.093
Mof_N 	N 	0.7034	0.98368	0.8324	-0.397
Mof_C 	C 	0.7007	0.93022	0.83003	0.055
Mof_C 	C 	0.6415	0.84947	0.70355	0.054
Mof_N 	N 	0.6144	0.86844	0.65042	-0.368
Mof_N 	N 	0.6399	0.66709	0.71597	-0.482
Mof_C 	C 	0.657	0.71068	0.74859	-0.034
Mof_C 	C 	0.7065	0.76244	0.86088	-0.051
Mof_C 	C 	0.7186	0.82438	0.88378	-0.053
Mof_C 	C 	0.6971	0.86392	0.82812	-0.044
Mof_C 	C 	0.6718	0.82674	0.77032	-0.06
Mof_C 	C 	0.6772	0.76416	0.79067	-0.045
Mof_N 	N 	0.7204	0.47537	0.9932	0.079
Mof_O 	O 	0.6712	0.52696	0.99462	-0.4
Mof_O 	O 	0.8378	0.46546	0.0118	-0.74
Mof_C 	C 	0.6361	0.42207	0.9677	-0.265
Mof_H 	H 	0.6536	0.4118	0.9221	0.059
Mof_H 	H 	0.6565	0.3859	0.9969	0.079
Mof_H 	H 	0.5425	0.4333	0.9672	0.101
Mof_N 	N 	0.5114	0.7552	0.0973	-0.048
Mof_O 	O 	0.3981	0.74495	0.1052	-0.318
Mof_O 	O 	0.5631	0.8063	0.1031	-0.147
Mof_C 	C 	0.5927	0.7014	0.0836	0.302
Mof_H 	H 	0.5783	0.6675	0.1146	0.018
Mof_H 	H 	0.5676	0.6874	0.0374	-0.117
Mof_H 	H 	0.6865	0.7133	0.0897	-1.321
Mof_N 	N 	0.6875	0.734	0.0892	1.375
Mof_O 	O 	0.6471	0.7852	0.104	-0.647
Mof_O 	O 	0.8042	0.7231	0.0847	-0.445
Mof_C 	C 	0.5917	0.6859	0.0787	0.245
Mof_H 	H 	0.5569	0.6766	0.121	-0.115
Mof_H 	H 	0.519	0.6993	0.0452	-0.034
Mof_H 	H 	0.6329	0.6484	0.0627	-0.064
Mof_K 	K 	0.62642	0.36981	0.35712	2.608
Mof_K 	K 	0.13551	0.3876	0.34982	2.562
Mof_K 	K 	0.56432	0.08948	0.46627	2.798
Mof_C 	C 	0.6585	0.21794	0.24408	0.099
Mof_N 	N 	0.6673	0.26146	0.27706	-0.353
Mof_N 	N 	0.6872	0.06641	0.34497	-0.343
Mof_C 	C 	0.6726	0.08133	0.29005	0.03
Mof_C 	C 	0.6324	0.99856	0.16392	-0.077
Mof_N 	N 	0.6328	0.94495	0.16513	-0.459
Mof_C 	C 	0.5973	0.08598	0.03936	0.059
Mof_N 	N 	0.5869	0.07379	0.98383	-0.357
Mof_C 	C 	0.6089	0.2212	0.09177	0.033
Mof_N 	N 	0.5981	0.26671	0.06161	-0.152
Mof_C 	C 	0.6457	0.16474	0.2017	-0.058
Mof_C 	C 	0.6522	0.10192	0.22239	-0.057
Mof_C 	C 	0.6327	0.0646	0.16429	-0.035
Mof_C 	C 	0.6147	0.10426	0.10806	-0.074
Mof_C 	C 	0.6226	0.16601	0.1314	-0.011
Mof_C 	C 	0.4323	0.22753	0.55804	0.041
Mof_N 	N 	0.4252	0.1822	0.52796	-0.378
Mof_C 	C 	0.4018	0.35788	0.49723	-0.002
Mof_N 	N 	0.3795	0.36767	0.44116	-0.454
Mof_C 	C 	0.4414	0.45396	0.6141	0.062
Mof_N 	N 	0.4333	0.50678	0.61255	-0.416
Mof_C 	C 	0.5011	0.38091	0.74504	0.035
Mof_N 	N 	0.5232	0.4016	0.7975	-0.166
Mof_C 	C 	0.4956	0.24161	0.71221	0.077
Mof_N 	N 	0.517	0.20281	0.75111	-0.363
Mof_C 	C 	0.4427	0.28423	0.59487	-0.056
Mof_C 	C 	0.4744	0.35449	0.67965	-0.01
Mof_C 	C 	0.4296	0.34428	0.56674	-0.041
Mof_C 	C 	0.4489	0.38785	0.6195	-0.076
Mof_C 	C 	0.4709	0.29059	0.66461	-0.058
Mof_C 	C 	0.7729	0.20819	0.59864	0.041
Mof_N 	N 	0.7532	0.16527	0.56491	-0.322
Mof_N 	N 	0.7241	0.35663	0.49325	-0.37
Mof_C 	C 	0.7503	0.34287	0.548	0.086
Mof_N 	N 	0.7966	0.48368	0.6676	-0.398
Mof_C 	C 	0.7993	0.43022	0.66997	0.056
Mof_C 	C 	0.8585	0.34947	0.79645	0.055
Mof_N 	N 	0.8856	0.36844	0.84958	-0.365
Mof_N 	N 	0.8601	0.16709	0.78403	-0.48
Mof_C 	C 	0.843	0.21068	0.75141	-0.033
Mof_C 	C 	0.7935	0.26244	0.63912	-0.052
Mof_C 	C 	0.7814	0.32438	0.61622	-0.05
Mof_C 	C 	0.8029	0.36392	0.67188	-0.045
Mof_C 	C 	0.8282	0.32674	0.72968	-0.059
Mof_C 	C 	0.8228	0.26416	0.70933	-0.044
Mof_N 	N 	0.7796	0.97537	0.5068	0.076
Mof_O 	O 	0.8288	0.02696	0.50538	-0.401
Mof_O 	O 	0.6622	0.96546	0.4882	-0.741
Mof_C 	C 	0.8639	0.92207	0.5323	-0.263
Mof_H 	H 	0.8464	0.9118	0.5779	0.057
Mof_H 	H 	0.8435	0.8859	0.5031	0.078
Mof_H 	H 	0.9575	0.9333	0.5328	0.1
Mof_N 	N 	0.9886	0.2552	0.4027	-0.047
Mof_O 	O 	0.1019	0.24495	0.3948	-0.319
Mof_O 	O 	0.9369	0.3063	0.3969	-0.147
Mof_C 	C 	0.9073	0.2014	0.4164	0.301
Mof_H 	H 	0.9217	0.1675	0.3854	0.018
Mof_H 	H 	0.9324	0.1874	0.4626	-0.116
Mof_H 	H 	0.8135	0.2133	0.4103	-1.32
Mof_N 	N 	0.8125	0.234	0.4108	1.374
Mof_O 	O 	0.8529	0.2852	0.396	-0.647
Mof_O 	O 	0.6958	0.2231	0.4153	-0.445
Mof_C 	C 	0.9083	0.1859	0.4213	0.245
Mof_H 	H 	0.9431	0.1766	0.379	-0.115
Mof_H 	H 	0.981	0.1993	0.4548	-0.033
Mof_H 	H 	0.8671	0.1484	0.4373	-0.064
_end
