data_functionalizedCrystal
_audit_creation_method	'EQeq! by Chris Wilmer'
_symmetry_space_group_name_H-M	'P1'
_symmetry_Int_Tables_number	1
_symmetry_cell_setting	triclinic
loop_
_symmetry_equiv_pos_as_xyz
  x,y,z
_cell_length_a	7.8005
_cell_length_b	11.2947
_cell_length_c	13.1552
_cell_angle_alpha	82.719
_cell_angle_beta	80.499
_cell_angle_gamma	83.194
loop_
_atom_site_label
_atom_site_type_symbol
_atom_site_fract_x
_atom_site_fract_y
_atom_site_fract_z
_atom_site_charge
Mof_Zn	Zn	0.71638	0.7647	0.73578	1.194
Mof_Zn	Zn	0.28362	0.2353	0.26422	1.194
Mof_H 	H 	0.7522	0.1146	0.5665	0.051
Mof_H 	H 	0.2822	0.5208	0.2097	-0.035
Mof_H 	H 	0.344	0.4652	0.6639	0.049
Mof_H 	H 	0.529	0.614	0.1214	0.13
Mof_H 	H 	0.1237	0.9057	0.8554	0.051
Mof_H 	H 	0.8763	0.0943	0.1446	0.051
Mof_H 	H 	0.5286	0.0209	0.7572	-0.005
Mof_H 	H 	0.4714	0.9791	0.2428	-0.005
Mof_H 	H 	0.7178	0.4792	0.7903	-0.035
Mof_H 	H 	0.6277	0.3786	0.6277	0.044
Mof_H 	H 	0.2991	0.9868	0.9479	0.065
Mof_H 	H 	0.9561	0.3164	0.0943	0.05
Mof_H 	H 	0.789	0.7224	0.4978	-0.029
Mof_H 	H 	0.7009	0.0132	0.0521	0.065
Mof_H 	H 	0.652	0.2694	0.1286	0.03
Mof_H 	H 	0.4256	0.7933	0.5797	0.02
Mof_H 	H 	0.211	0.2776	0.5022	-0.029
Mof_H 	H 	0.0606	0.6389	0.4124	0.124
Mof_H 	H 	0.1019	0.6268	0.7037	0.023
Mof_H 	H 	0.0439	0.6836	0.9057	0.05
Mof_H 	H 	0.2478	0.8854	0.4335	0.051
Mof_H 	H 	0.5744	0.2067	0.4203	0.02
Mof_H 	H 	0.9866	0.0808	0.6545	0.058
Mof_H 	H 	0.348	0.7306	0.8714	0.03
Mof_H 	H 	0.2313	0.3528	0.0108	0.045
Mof_H 	H 	0.3723	0.6214	0.3723	0.044
Mof_H 	H 	0.656	0.5348	0.3361	0.049
Mof_H 	H 	0.8981	0.3732	0.2963	0.023
Mof_H 	H 	0.471	0.386	0.8786	0.13
Mof_H 	H 	0.7687	0.6472	0.9892	0.045
Mof_H 	H 	0.0134	0.9192	0.3455	0.058
Mof_H 	H 	0.9394	0.3611	0.5876	0.124
Mof_C 	C 	0.9263	0.0569	0.0861	-0.019
Mof_C 	C 	0.6715	0.4458	0.4772	-0.006
Mof_C 	C 	0.0267	0.6095	0.9436	-0.063
Mof_C 	C 	0.1787	0.9927	0.9686	-0.031
Mof_C 	C 	0.4083	0.6556	0.8627	-0.031
Mof_C 	C 	0.1493	0.6112	0.5493	0.058
Mof_C 	C 	0.1478	0.9314	0.4605	-0.063
Mof_C 	C 	0.8951	0.9485	0.9452	-0.061
Mof_C 	C 	0.8865	0.6928	0.5287	0.124
Mof_C 	C 	0.8612	0.5877	0.9938	-0.051
Mof_C 	C 	0.8522	0.0686	0.5395	-0.063
Mof_C 	C 	0.1429	0.9782	0.5538	0.009
Mof_C 	C 	0.3419	0.5485	0.8955	0.063
Mof_C 	C 	0.8507	0.3888	0.4507	0.058
Mof_C 	C 	0.9733	0.3905	0.0564	-0.063
Mof_C 	C 	0.1684	0.5221	0.9489	-0.002
Mof_C 	C 	0.1388	0.4123	0.0062	-0.051
Mof_C 	C 	0.1049	0.0515	0.0548	-0.061
Mof_C 	C 	0.5241	0.0146	0.2881	0.09
Mof_C 	C 	0.9411	0.36	0.359	-0.026
Mof_C 	C 	0.5917	0.3444	0.1373	-0.031
Mof_C 	C 	0.4188	0.861	0.6143	-0.015
Mof_C 	C 	0.9922	0.0481	0.5925	-0.06
Mof_C 	C 	0.4064	0.48	0.5977	-0.059
Mof_C 	C 	0.7805	0.89	0.8897	0.319
Mof_C 	C 	0.6121	0.5183	0.8182	0.128
Mof_C 	C 	0.4231	0.573	0.4242	-0.053
Mof_C 	C 	0.1135	0.3072	0.4713	0.124
Mof_C 	C 	0.8316	0.4779	0.0511	-0.002
Mof_C 	C 	0.4759	0.9854	0.7119	0.09
Mof_C 	C 	0.3285	0.5542	0.5228	-0.006
Mof_C 	C 	0.2939	0.9555	0.6091	0.039
Mof_C 	C 	0.8213	0.0073	0.0314	-0.031
Mof_C 	C 	0.6581	0.4515	0.1045	0.063
Mof_C 	C 	0.5936	0.52	0.4023	-0.059
Mof_C 	C 	0.5769	0.427	0.5758	-0.053
Mof_C 	C 	0.5812	0.139	0.3857	-0.015
Mof_C 	C 	0.0737	0.9431	0.9139	-0.019
Mof_C 	C 	0.3879	0.4817	0.1818	0.128
Mof_C 	C 	0.0078	0.9519	0.4075	-0.06
Mof_C 	C 	0.7061	0.0445	0.3909	0.039
Mof_C 	C 	0.2195	0.11	0.1103	0.319
Mof_C 	C 	0.0589	0.64	0.641	-0.026
Mof_C 	C 	0.8571	0.0218	0.4462	0.009
Mof_N 	N 	0.9623	0.3541	0.5222	-0.212
Mof_N 	N 	0.4209	0.3643	0.1856	-0.276
Mof_N 	N 	0.5249	0.5377	0.1329	-0.218
Mof_N 	N 	0.5336	0.8801	0.678	-0.269
Mof_N 	N 	0.8938	0.6916	0.6282	-0.275
Mof_N 	N 	0.3324	0.0345	0.6728	-0.125
Mof_N 	N 	0.1062	0.3084	0.3718	-0.275
Mof_N 	N 	0.5791	0.6357	0.8144	-0.276
Mof_N 	N 	0.4751	0.4623	0.8671	-0.218
Mof_N 	N 	0.0377	0.6459	0.4778	-0.212
Mof_N 	N 	0.4664	0.1199	0.322	-0.269
Mof_N 	N 	0.6676	0.9655	0.3272	-0.125
Mof_O 	O 	0.1433	0.151	0.19466	-0.468
Mof_O 	O 	0.6258	0.8813	0.9253	-0.312
Mof_O 	O 	0.8567	0.849	0.80534	-0.468
Mof_O 	O 	0.3742	0.1187	0.0747	-0.312
_end
