data_functionalizedCrystal
_audit_creation_method	'EQeq! by Chris Wilmer'
_symmetry_space_group_name_H-M	'P1'
_symmetry_Int_Tables_number	1
_symmetry_cell_setting	triclinic
loop_
_symmetry_equiv_pos_as_xyz
  x,y,z
_cell_length_a	9.3521
_cell_length_b	11.3471
_cell_length_c	18.8078
_cell_angle_alpha	79.46
_cell_angle_beta	79.462
_cell_angle_gamma	66.512
loop_
_atom_site_label
_atom_site_type_symbol
_atom_site_fract_x
_atom_site_fract_y
_atom_site_fract_z
_atom_site_charge
Mof_Co	Co	0.60536	0.81047	0.71808	1.099
Mof_Co	Co	0.39464	0.18953	0.28192	1.079
Mof_Co	Co	-0	0	-0	1.074
Mof_H 	H 	0.5752	0.5694	0.1942	0.004
Mof_H 	H 	0.4822	0.5419	0.3174	0.134
Mof_H 	H 	0.0995	0.8554	0.2863	0.13
Mof_H 	H 	0.4508	0.7448	0.3924	0.15
Mof_H 	H 	0.5245	0.7654	0.4995	-0.019
Mof_H 	H 	0.206	0.6348	0.6166	-0.018
Mof_H 	H 	0.1336	0.6103	0.511	0.141
Mof_H 	H 	0.7733	0.8659	0.9982	0.034
Mof_H 	H 	0.768	0.6668	0.0005	0.046
Mof_H 	H 	0.2314	0.518	0.9956	0.114
Mof_H 	H 	0.2236	0.72	0.9956	0.016
Mof_H 	H 	0.6624	0.8812	0.5516	-0.003
Mof_H 	H 	0.8196	0.9516	0.4628	0.111
Mof_H 	H 	0.0344	0.9842	0.6161	0.097
Mof_H 	H 	0.8717	0.9104	0.7013	-0.016
Mof_H 	H 	0.3503	0.0095	0.6251	-0.028
Mof_H 	H 	0.1516	0.2071	0.6223	0.092
Mof_H 	H 	0.2686	0.2502	0.8064	0.098
Mof_H 	H 	0.4723	0.0571	0.7993	-0.033
Mof_H 	H 	0.9924	0.376	0.8254	0.07
Mof_H 	H 	0.7847	0.5705	0.8244	-0.005
Mof_H 	H 	0.8368	0.622	0.6136	0.014
Mof_H 	H 	0.048	0.437	0.608	0.03
Mof_H 	H 	0.4248	0.4306	0.8058	0.002
Mof_H 	H 	0.5178	0.4581	0.6826	0.137
Mof_H 	H 	0.9005	0.1446	0.7137	0.124
Mof_H 	H 	0.5492	0.2552	0.6076	0.144
Mof_H 	H 	0.4755	0.2346	0.5005	-0.025
Mof_H 	H 	0.794	0.3652	0.3834	-0.013
Mof_H 	H 	0.8664	0.3897	0.489	0.148
Mof_H 	H 	0.2267	0.1341	0.0018	-0.033
Mof_H 	H 	0.232	0.3332	0.9995	0.149
Mof_H 	H 	0.7686	0.482	0.0044	0.08
Mof_H 	H 	0.7764	0.28	0.0044	-0.017
Mof_H 	H 	0.3376	0.1188	0.4484	0.007
Mof_H 	H 	0.1804	0.0484	0.5372	0.047
Mof_H 	H 	0.9656	0.0158	0.3839	0.072
Mof_H 	H 	0.1283	0.0896	0.2987	-0.025
Mof_H 	H 	0.6497	0.9905	0.3749	0.01
Mof_H 	H 	0.8484	0.7929	0.3777	0.079
Mof_H 	H 	0.7314	0.7498	0.1936	0.074
Mof_H 	H 	0.5277	0.9429	0.2007	-0.009
Mof_H 	H 	0.0076	0.624	0.1746	0.097
Mof_H 	H 	0.2153	0.4295	0.1756	-0.048
Mof_H 	H 	0.1632	0.378	0.3864	-0.027
Mof_H 	H 	0.952	0.563	0.392	0.128
Mof_C 	C 	0.2441	0.8161	0.1928	0.023
Mof_C 	C 	0.3907	0.7299	0.1652	-0.111
Mof_C 	C 	0.4783	0.6277	0.2122	0.102
Mof_C 	C 	0.4233	0.6111	0.2863	-0.259
Mof_C 	C 	0.284	0.6965	0.3118	0.274
Mof_C 	C 	0.1951	0.7976	0.2669	-0.205
Mof_C 	C 	0.131	0.9212	0.145	0.358
Mof_C 	C 	0.461	0.7435	0.0863	0.325
Mof_C 	C 	0.283	0.6788	0.4424	0.325
Mof_C 	C 	0.4009	0.7234	0.4375	-0.311
Mof_C 	C 	0.444	0.7358	0.502	0.186
Mof_C 	C 	0.3716	0.7057	0.5692	-0.209
Mof_C 	C 	0.2551	0.6577	0.5717	0.172
Mof_C 	C 	0.2109	0.6434	0.5087	-0.298
Mof_C 	C 	0.4059	0.7314	0.6388	0.372
Mof_C 	C 	0.8675	0.7944	0.9984	0.062
Mof_C 	C 	0.8637	0.6744	0.9996	-0.074
Mof_C 	C 	0.9988	0.5656	0.9993	0.116
Mof_C 	C 	0.135	0.5873	0.9969	-0.174
Mof_C 	C 	0.1295	0.7097	0.9966	0.092
Mof_C 	C 	0.7404	0.9006	0.5654	0.12
Mof_C 	C 	0.834	0.9442	0.5113	-0.19
Mof_C 	C 	0.9479	0.9769	0.5282	0.164
Mof_C 	C 	0.9595	0.9629	0.601	-0.159
Mof_C 	C 	0.8608	0.9175	0.6524	0.112
Mof_C 	C 	0.3341	0.0589	0.6624	0.101
Mof_C 	C 	0.2127	0.1778	0.6605	-0.184
Mof_C 	C 	0.1814	0.254	0.7153	0.107
Mof_C 	C 	0.2827	0.2037	0.7681	-0.179
Mof_C 	C 	0.4037	0.0858	0.7641	0.094
Mof_C 	C 	0.9974	0.4575	0.6536	-0.025
Mof_C 	C 	0.0483	0.3804	0.7173	-0.028
Mof_C 	C 	0.9646	0.425	0.7811	-0.065
Mof_C 	C 	0.8389	0.5428	0.78	0.051
Mof_C 	C 	0.8699	0.5729	0.6571	0.037
Mof_C 	C 	0.7559	0.1839	0.8072	0.055
Mof_C 	C 	0.6093	0.2701	0.8348	-0.122
Mof_C 	C 	0.5217	0.3723	0.7878	0.113
Mof_C 	C 	0.5767	0.3889	0.7137	-0.268
Mof_C 	C 	0.716	0.3035	0.6882	0.282
Mof_C 	C 	0.8049	0.2024	0.7331	-0.23
Mof_C 	C 	0.869	0.0788	0.855	0.245
Mof_C 	C 	0.539	0.2565	0.9137	0.327
Mof_C 	C 	0.717	0.3212	0.5576	0.322
Mof_C 	C 	0.5991	0.2766	0.5625	-0.319
Mof_C 	C 	0.556	0.2642	0.498	0.18
Mof_C 	C 	0.6284	0.2943	0.4308	-0.214
Mof_C 	C 	0.7449	0.3423	0.4283	0.173
Mof_C 	C 	0.7891	0.3566	0.4913	-0.298
Mof_C 	C 	0.5941	0.2686	0.3612	0.367
Mof_C 	C 	0.1325	0.2056	0.0016	0.111
Mof_C 	C 	0.1363	0.3256	0.0004	-0.229
Mof_C 	C 	0.0012	0.4344	0.0007	0.014
Mof_C 	C 	0.865	0.4127	0.0031	-0.125
Mof_C 	C 	0.8705	0.2903	0.0034	0.097
Mof_C 	C 	0.2596	0.0994	0.4346	0.049
Mof_C 	C 	0.166	0.0558	0.4887	-0.091
Mof_C 	C 	0.0521	0.0231	0.4718	-0.029
Mof_C 	C 	0.0405	0.0371	0.399	-0.125
Mof_C 	C 	0.1392	0.0825	0.3476	0.068
Mof_C 	C 	0.6659	0.9411	0.3376	0.08
Mof_C 	C 	0.7873	0.8222	0.3395	-0.117
Mof_C 	C 	0.8186	0.746	0.2847	0.024
Mof_C 	C 	0.7173	0.7963	0.2319	-0.114
Mof_C 	C 	0.5963	0.9142	0.2359	0.069
Mof_C 	C 	0.0026	0.5425	0.3464	-0.243
Mof_C 	C 	0.9517	0.6196	0.2827	0.155
Mof_C 	C 	0.0354	0.575	0.2189	-0.213
Mof_C 	C 	0.1611	0.4572	0.22	0.123
Mof_C 	C 	0.1301	0.4271	0.3429	0.141
Mof_N 	N 	0.4296	0.0098	0.71345	-0.271
Mof_N 	N 	0.7913	0.6183	0.71942	-0.232
Mof_N 	N 	0.7534	0.884	0.63602	-0.253
Mof_N 	N 	0.9991	0.8138	0.99765	-0.217
Mof_N 	N 	0.5704	0.9902	0.28655	-0.231
Mof_N 	N 	0.2087	0.3817	0.28058	-0.27
Mof_N 	N 	0.2466	0.116	0.36398	-0.245
Mof_N 	N 	0.0009	0.1862	0.00235	-0.277
Mof_O 	O 	0.155	0.9131	0.07906	-0.424
Mof_O 	O 	0.0135	0.004	0.17683	-0.344
Mof_O 	O 	0.5001	0.8373	0.0647	-0.259
Mof_O 	O 	0.4835	0.6537	0.05086	-0.271
Mof_O 	O 	0.2163	0.6742	0.38371	-0.313
Mof_O 	O 	0.5163	0.771	0.63463	-0.422
Mof_O 	O 	0.3214	0.7134	0.6961	-0.299
Mof_O 	O 	0.845	0.0869	0.92094	-0.387
Mof_O 	O 	0.9865	0.996	0.82317	-0.222
Mof_O 	O 	0.4999	0.1627	0.9353	-0.254
Mof_O 	O 	0.5165	0.3463	0.94914	-0.246
Mof_O 	O 	0.7837	0.3258	0.61629	-0.314
Mof_O 	O 	0.4837	0.229	0.36537	-0.438
Mof_O 	O 	0.6786	0.2866	0.3039	-0.303
_end
