data_functionalizedCrystal
_audit_creation_method	'EQeq! by Chris Wilmer'
_symmetry_space_group_name_H-M	'P1'
_symmetry_Int_Tables_number	1
_symmetry_cell_setting	triclinic
loop_
_symmetry_equiv_pos_as_xyz
  x,y,z
_cell_length_a	21.5599
_cell_length_b	21.5599
_cell_length_c	12.8974
_cell_angle_alpha	90
_cell_angle_beta	90
_cell_angle_gamma	90
loop_
_atom_site_label
_atom_site_type_symbol
_atom_site_fract_x
_atom_site_fract_y
_atom_site_fract_z
_atom_site_charge
Mof_Cu	Cu	0.05811	0.31312	0.68583	0.895
Mof_O 	O 	0.14609	0.26223	0.56017	-0.458
Mof_O 	O 	0.05301	0.30176	0.5315	-0.36
Mof_O 	O 	0.09447	0.39403	0.6656	-0.368
Mof_N 	N 	0.1634	0.22915	0.3651	-0.244
Mof_H 	H 	0.1632	0.1936	0.3242	0.066
Mof_N 	N 	0.09806	0.31816	0.8259	-0.232
Mof_H 	H 	0.1213	0.282	0.8324	0.065
Mof_C 	C 	0.09945	0.27202	0.5022	0.262
Mof_C 	C 	0.09806	0.2431	0.3958	0.049
Mof_H 	H 	0.0801	0.2736	0.3455	0.031
Mof_C 	C 	0.0578	0.1858	0.3981	-0.621
Mof_H 	H 	0.0845	0.1505	0.4189	0.027
Mof_H 	H 	0.0268	0.1915	0.454	0.033
Mof_C 	C 	0.0235	0.1667	0.3027	-0.516
Mof_H 	H 	0.0566	0.1518	0.2545	0.122
Mof_C 	C 	0.9911	0.214	0.2442	0.108
Mof_H 	H 	0.0186	0.2496	0.2336	-0.009
Mof_H 	H 	0.9542	0.2273	0.2827	-0.32
Mof_H 	H 	0.9786	0.1971	0.1768	0.015
Mof_C 	C 	0.9824	0.111	0.3183	0.441
Mof_H 	H 	0.0049	0.0793	0.3576	0.011
Mof_H 	H 	0.9703	0.0941	0.2506	-0.248
Mof_H 	H 	0.9451	0.1233	0.3567	0.808
Mof_C 	C 	0.19145	0.2804	0.3038	-0.095
Mof_H 	H 	0.2354	0.2703	0.2892	0.018
Mof_H 	H 	0.1905	0.3189	0.3454	0.035
Mof_C 	C 	0.15772	0.2914	0.2017	0.032
Mof_C 	C 	0.1537	0.2461	0.1275	-0.067
Mof_H 	H 	0.1743	0.2077	0.1388	0.029
Mof_C 	C 	0.1211	0.2544	0.0381	-0.072
Mof_H 	H 	0.1192	0.2217	0.9889	0.033
Mof_C 	C 	0.09084	0.30936	0.0177	0.039
Mof_C 	C 	0.0958	0.356	0.0922	-0.07
Mof_H 	H 	0.0761	0.3948	0.0805	0.045
Mof_C 	C 	0.1286	0.3469	0.1817	-0.068
Mof_H 	H 	0.1312	0.3795	0.2311	0.05
Mof_C 	C 	0.1294	0.41435	0.737	0.329
Mof_C 	C 	0.14377	0.3695	0.8259	-0.025
Mof_H 	H 	0.1412	0.3923	0.8934	0.038
Mof_C 	C 	0.20985	0.34292	0.8126	-0.386
Mof_H 	H 	0.2127	0.3039	0.8528	0.126
Mof_H 	H 	0.2158	0.3322	0.7386	0.122
Mof_C 	C 	0.2624	0.3851	0.8457	0.524
Mof_H 	H 	0.2576	0.4252	0.8078	-0.139
Mof_C 	C 	0.2626	0.3993	0.9596	-0.831
Mof_H 	H 	0.2977	0.4264	0.9759	0.246
Mof_H 	H 	0.2664	0.3605	0.9989	0.245
Mof_H 	H 	0.2238	0.4201	0.9784	0.263
Mof_C 	C 	0.3233	0.3563	0.8121	-0.793
Mof_H 	H 	0.3577	0.3833	0.8332	0.224
Mof_H 	H 	0.3236	0.3516	0.7365	0.218
Mof_H 	H 	0.328	0.3156	0.8447	0.231
Mof_C 	C 	0.0564	0.3192	0.9174	-0.108
Mof_H 	H 	0.0247	0.2864	0.9097	0.035
Mof_H 	H 	0.0347	0.3596	0.9201	0.057
Mof_O 	O 	0.15384	0.4652	0.738	-0.364
Mof_H 	H 	0.0736	0.1583	0.3426	0.263
Mof_H 	H 	0.0672	0.1647	0.4645	0.137
Mof_C 	C 	0.9984	0.1854	0.3894	0.818
Mof_H 	H 	0.9826	0.2064	0.4534	-0.231
Mof_C 	C 	0.9697	0.2233	0.295	0.299
Mof_H 	H 	0.9245	0.225	0.3026	0.061
Mof_H 	H 	0.9804	0.2028	0.2299	-0.08
Mof_H 	H 	0.9865	0.2655	0.2953	-0.033
Mof_C 	C 	0.9721	0.1146	0.395	-2.367
Mof_H 	H 	0.9266	0.1152	0.3938	0.131
Mof_H 	H 	0.9862	0.095	0.4595	0.734
Mof_H 	H 	0.9875	0.0909	0.3356	0.343
Mof_Cu	Cu	0.94189	0.68688	0.68583	0.896
Mof_O 	O 	0.85391	0.73777	0.56017	-0.457
Mof_O 	O 	0.94699	0.69824	0.5315	-0.359
Mof_O 	O 	0.90553	0.60597	0.6656	-0.367
Mof_N 	N 	0.8366	0.77085	0.3651	-0.243
Mof_H 	H 	0.8368	0.8064	0.3242	0.067
Mof_N 	N 	0.90194	0.68184	0.8259	-0.231
Mof_H 	H 	0.8787	0.718	0.8324	0.066
Mof_C 	C 	0.90055	0.72798	0.5022	0.263
Mof_C 	C 	0.90194	0.7569	0.3958	0.05
Mof_H 	H 	0.9199	0.7264	0.3455	0.032
Mof_C 	C 	0.9422	0.8142	0.3981	-0.62
Mof_H 	H 	0.9155	0.8495	0.4189	0.028
Mof_H 	H 	0.9732	0.8085	0.454	0.034
Mof_C 	C 	0.9765	0.8333	0.3027	-0.515
Mof_H 	H 	0.9434	0.8482	0.2545	0.123
Mof_C 	C 	0.0089	0.786	0.2442	0.108
Mof_H 	H 	0.9814	0.7504	0.2336	-0.009
Mof_H 	H 	0.0458	0.7727	0.2827	-0.32
Mof_H 	H 	0.0214	0.8029	0.1768	0.015
Mof_C 	C 	0.0176	0.889	0.3183	0.441
Mof_H 	H 	0.9951	0.9207	0.3576	0.011
Mof_H 	H 	0.0297	0.9059	0.2506	-0.248
Mof_H 	H 	0.0549	0.8767	0.3567	0.808
Mof_C 	C 	0.80855	0.7196	0.3038	-0.095
Mof_H 	H 	0.7646	0.7297	0.2892	0.018
Mof_H 	H 	0.8095	0.6811	0.3454	0.035
Mof_C 	C 	0.84228	0.7086	0.2017	0.032
Mof_C 	C 	0.8463	0.7539	0.1275	-0.067
Mof_H 	H 	0.8257	0.7923	0.1388	0.029
Mof_C 	C 	0.8789	0.7456	0.0381	-0.072
Mof_H 	H 	0.8808	0.7783	0.9889	0.033
Mof_C 	C 	0.90916	0.69064	0.0177	0.039
Mof_C 	C 	0.9042	0.644	0.0922	-0.07
Mof_H 	H 	0.9239	0.6052	0.0805	0.045
Mof_C 	C 	0.8714	0.6531	0.1817	-0.068
Mof_H 	H 	0.8688	0.6205	0.2311	0.05
Mof_C 	C 	0.8706	0.58565	0.737	0.329
Mof_C 	C 	0.85623	0.6305	0.8259	-0.025
Mof_H 	H 	0.8588	0.6077	0.8934	0.038
Mof_C 	C 	0.79015	0.65708	0.8126	-0.386
Mof_H 	H 	0.7873	0.6961	0.8528	0.126
Mof_H 	H 	0.7842	0.6678	0.7386	0.122
Mof_C 	C 	0.7376	0.6149	0.8457	0.524
Mof_H 	H 	0.7424	0.5748	0.8078	-0.139
Mof_C 	C 	0.7374	0.6007	0.9596	-0.831
Mof_H 	H 	0.7023	0.5736	0.9759	0.246
Mof_H 	H 	0.7336	0.6395	0.9989	0.245
Mof_H 	H 	0.7762	0.5799	0.9784	0.263
Mof_C 	C 	0.6767	0.6437	0.8121	-0.793
Mof_H 	H 	0.6423	0.6167	0.8332	0.224
Mof_H 	H 	0.6764	0.6484	0.7365	0.218
Mof_H 	H 	0.672	0.6844	0.8447	0.231
Mof_C 	C 	0.9436	0.6808	0.9174	-0.108
Mof_H 	H 	0.9753	0.7136	0.9097	0.035
Mof_H 	H 	0.9653	0.6404	0.9201	0.057
Mof_O 	O 	0.84616	0.5348	0.738	-0.364
Mof_H 	H 	0.9264	0.8417	0.3426	0.263
Mof_H 	H 	0.9328	0.8353	0.4645	0.137
Mof_C 	C 	0.0016	0.8146	0.3894	0.818
Mof_H 	H 	0.0174	0.7936	0.4534	-0.231
Mof_C 	C 	0.0303	0.7767	0.295	0.299
Mof_H 	H 	0.0755	0.775	0.3026	0.061
Mof_H 	H 	0.0196	0.7972	0.2299	-0.08
Mof_H 	H 	0.0135	0.7345	0.2953	-0.033
Mof_C 	C 	0.0279	0.8854	0.395	-2.367
Mof_H 	H 	0.0734	0.8848	0.3938	0.131
Mof_H 	H 	0.0138	0.905	0.4595	0.734
Mof_H 	H 	0.0125	0.9091	0.3356	0.343
Mof_Cu	Cu	0.18688	0.55811	0.68583	0.896
Mof_O 	O 	0.23777	0.64609	0.56017	-0.457
Mof_O 	O 	0.19824	0.55301	0.5315	-0.359
Mof_O 	O 	0.10597	0.59447	0.6656	-0.367
Mof_N 	N 	0.27085	0.6634	0.3651	-0.243
Mof_H 	H 	0.3064	0.6632	0.3242	0.067
Mof_N 	N 	0.18184	0.59806	0.8259	-0.231
Mof_H 	H 	0.218	0.6213	0.8324	0.066
Mof_C 	C 	0.22798	0.59945	0.5022	0.262
Mof_C 	C 	0.2569	0.59806	0.3958	0.053
Mof_H 	H 	0.2264	0.5801	0.3455	0.031
Mof_C 	C 	0.3142	0.5578	0.3981	-0.628
Mof_H 	H 	0.3495	0.5845	0.4189	0.028
Mof_H 	H 	0.3085	0.5268	0.454	0.032
Mof_C 	C 	0.3333	0.5235	0.3027	-0.525
Mof_H 	H 	0.3482	0.5566	0.2545	0.125
Mof_C 	C 	0.286	0.4911	0.2442	0.106
Mof_H 	H 	0.2504	0.5186	0.2336	-0.009
Mof_H 	H 	0.2727	0.4542	0.2827	-0.323
Mof_H 	H 	0.3029	0.4786	0.1768	0.014
Mof_C 	C 	0.389	0.4824	0.3183	0.449
Mof_H 	H 	0.4207	0.5049	0.3576	0.005
Mof_H 	H 	0.4059	0.4703	0.2506	-0.252
Mof_H 	H 	0.3767	0.4451	0.3567	0.815
Mof_C 	C 	0.2196	0.69145	0.3038	-0.095
Mof_H 	H 	0.2297	0.7354	0.2892	0.018
Mof_H 	H 	0.1811	0.6905	0.3454	0.035
Mof_C 	C 	0.2086	0.65772	0.2017	0.032
Mof_C 	C 	0.2539	0.6537	0.1275	-0.067
Mof_H 	H 	0.2923	0.6743	0.1388	0.029
Mof_C 	C 	0.2456	0.6211	0.0381	-0.072
Mof_H 	H 	0.2783	0.6192	0.9889	0.032
Mof_C 	C 	0.19064	0.59084	0.0177	0.038
Mof_C 	C 	0.144	0.5958	0.0922	-0.07
Mof_H 	H 	0.1052	0.5761	0.0805	0.045
Mof_C 	C 	0.1531	0.6286	0.1817	-0.068
Mof_H 	H 	0.1205	0.6312	0.2311	0.05
Mof_C 	C 	0.08565	0.6294	0.737	0.329
Mof_C 	C 	0.1305	0.64377	0.8259	-0.025
Mof_H 	H 	0.1077	0.6412	0.8934	0.038
Mof_C 	C 	0.15708	0.70985	0.8126	-0.386
Mof_H 	H 	0.1961	0.7127	0.8528	0.126
Mof_H 	H 	0.1678	0.7158	0.7386	0.122
Mof_C 	C 	0.1149	0.7624	0.8457	0.524
Mof_H 	H 	0.0748	0.7576	0.8078	-0.139
Mof_C 	C 	0.1007	0.7626	0.9596	-0.831
Mof_H 	H 	0.0736	0.7977	0.9759	0.246
Mof_H 	H 	0.1395	0.7664	0.9989	0.245
Mof_H 	H 	0.0799	0.7238	0.9784	0.263
Mof_C 	C 	0.1437	0.8233	0.8121	-0.793
Mof_H 	H 	0.1167	0.8577	0.8332	0.224
Mof_H 	H 	0.1484	0.8236	0.7365	0.218
Mof_H 	H 	0.1844	0.828	0.8447	0.231
Mof_C 	C 	0.1808	0.5564	0.9174	-0.108
Mof_H 	H 	0.2136	0.5247	0.9097	0.035
Mof_H 	H 	0.1404	0.5347	0.9201	0.056
Mof_O 	O 	0.0348	0.65384	0.738	-0.365
Mof_H 	H 	0.3417	0.5736	0.3426	0.266
Mof_H 	H 	0.3353	0.5672	0.4645	0.139
Mof_C 	C 	0.3146	0.4984	0.3894	0.834
Mof_H 	H 	0.2936	0.4826	0.4534	-0.235
Mof_C 	C 	0.2767	0.4697	0.295	0.301
Mof_H 	H 	0.275	0.4245	0.3026	0.061
Mof_H 	H 	0.2972	0.4804	0.2299	-0.077
Mof_H 	H 	0.2345	0.4865	0.2953	-0.033
Mof_C 	C 	0.3854	0.4721	0.395	-2.394
Mof_H 	H 	0.3848	0.4266	0.3938	0.134
Mof_H 	H 	0.405	0.4862	0.4595	0.743
Mof_H 	H 	0.4091	0.4875	0.3356	0.351
Mof_Cu	Cu	0.81312	0.44189	0.68583	0.896
Mof_O 	O 	0.76223	0.35391	0.56017	-0.457
Mof_O 	O 	0.80176	0.44699	0.5315	-0.359
Mof_O 	O 	0.89403	0.40553	0.6656	-0.367
Mof_N 	N 	0.72915	0.3366	0.3651	-0.243
Mof_H 	H 	0.6936	0.3368	0.3242	0.067
Mof_N 	N 	0.81816	0.40194	0.8259	-0.231
Mof_H 	H 	0.782	0.3787	0.8324	0.066
Mof_C 	C 	0.77202	0.40055	0.5022	0.262
Mof_C 	C 	0.7431	0.40194	0.3958	0.053
Mof_H 	H 	0.7736	0.4199	0.3455	0.031
Mof_C 	C 	0.6858	0.4422	0.3981	-0.628
Mof_H 	H 	0.6505	0.4155	0.4189	0.028
Mof_H 	H 	0.6915	0.4732	0.454	0.032
Mof_C 	C 	0.6667	0.4765	0.3027	-0.525
Mof_H 	H 	0.6518	0.4434	0.2545	0.125
Mof_C 	C 	0.714	0.5089	0.2442	0.106
Mof_H 	H 	0.7496	0.4814	0.2336	-0.009
Mof_H 	H 	0.7273	0.5458	0.2827	-0.323
Mof_H 	H 	0.6971	0.5214	0.1768	0.014
Mof_C 	C 	0.611	0.5176	0.3183	0.449
Mof_H 	H 	0.5793	0.4951	0.3576	0.005
Mof_H 	H 	0.5941	0.5297	0.2506	-0.252
Mof_H 	H 	0.6233	0.5549	0.3567	0.815
Mof_C 	C 	0.7804	0.30855	0.3038	-0.095
Mof_H 	H 	0.7703	0.2646	0.2892	0.018
Mof_H 	H 	0.8189	0.3095	0.3454	0.035
Mof_C 	C 	0.7914	0.34228	0.2017	0.032
Mof_C 	C 	0.7461	0.3463	0.1275	-0.067
Mof_H 	H 	0.7077	0.3257	0.1388	0.029
Mof_C 	C 	0.7544	0.3789	0.0381	-0.072
Mof_H 	H 	0.7217	0.3808	0.9889	0.032
Mof_C 	C 	0.80936	0.40916	0.0177	0.038
Mof_C 	C 	0.856	0.4042	0.0922	-0.07
Mof_H 	H 	0.8948	0.4239	0.0805	0.045
Mof_C 	C 	0.8469	0.3714	0.1817	-0.068
Mof_H 	H 	0.8795	0.3688	0.2311	0.05
Mof_C 	C 	0.91435	0.3706	0.737	0.329
Mof_C 	C 	0.8695	0.35623	0.8259	-0.025
Mof_H 	H 	0.8923	0.3588	0.8934	0.038
Mof_C 	C 	0.84292	0.29015	0.8126	-0.386
Mof_H 	H 	0.8039	0.2873	0.8528	0.126
Mof_H 	H 	0.8322	0.2842	0.7386	0.122
Mof_C 	C 	0.8851	0.2376	0.8457	0.524
Mof_H 	H 	0.9252	0.2424	0.8078	-0.139
Mof_C 	C 	0.8993	0.2374	0.9596	-0.831
Mof_H 	H 	0.9264	0.2023	0.9759	0.246
Mof_H 	H 	0.8605	0.2336	0.9989	0.245
Mof_H 	H 	0.9201	0.2762	0.9784	0.263
Mof_C 	C 	0.8563	0.1767	0.8121	-0.793
Mof_H 	H 	0.8833	0.1423	0.8332	0.224
Mof_H 	H 	0.8516	0.1764	0.7365	0.218
Mof_H 	H 	0.8156	0.172	0.8447	0.231
Mof_C 	C 	0.8192	0.4436	0.9174	-0.108
Mof_H 	H 	0.7864	0.4753	0.9097	0.035
Mof_H 	H 	0.8596	0.4653	0.9201	0.056
Mof_O 	O 	0.9652	0.34616	0.738	-0.365
Mof_H 	H 	0.6583	0.4264	0.3426	0.266
Mof_H 	H 	0.6647	0.4328	0.4645	0.139
Mof_C 	C 	0.6854	0.5016	0.3894	0.834
Mof_H 	H 	0.7064	0.5174	0.4534	-0.235
Mof_C 	C 	0.7233	0.5303	0.295	0.301
Mof_H 	H 	0.725	0.5755	0.3026	0.061
Mof_H 	H 	0.7028	0.5196	0.2299	-0.077
Mof_H 	H 	0.7655	0.5135	0.2953	-0.033
Mof_C 	C 	0.6146	0.5279	0.395	-2.394
Mof_H 	H 	0.6152	0.5734	0.3938	0.134
Mof_H 	H 	0.595	0.5138	0.4595	0.743
Mof_H 	H 	0.5909	0.5125	0.3356	0.351
Mof_Cu	Cu	0.44189	0.81312	0.31417	0.896
Mof_O 	O 	0.35391	0.76223	0.43983	-0.457
Mof_O 	O 	0.44699	0.80176	0.4685	-0.359
Mof_O 	O 	0.40553	0.89403	0.3344	-0.367
Mof_N 	N 	0.3366	0.72915	0.6349	-0.243
Mof_H 	H 	0.3368	0.6936	0.6758	0.067
Mof_N 	N 	0.40194	0.81816	0.1741	-0.231
Mof_H 	H 	0.3787	0.782	0.1676	0.066
Mof_C 	C 	0.40055	0.77202	0.4978	0.262
Mof_C 	C 	0.40194	0.7431	0.6042	0.053
Mof_H 	H 	0.4199	0.7736	0.6545	0.031
Mof_C 	C 	0.4422	0.6858	0.6019	-0.628
Mof_H 	H 	0.4155	0.6505	0.5811	0.028
Mof_H 	H 	0.4732	0.6915	0.546	0.032
Mof_C 	C 	0.4765	0.6667	0.6973	-0.525
Mof_H 	H 	0.4434	0.6518	0.7455	0.125
Mof_C 	C 	0.5089	0.714	0.7558	0.106
Mof_H 	H 	0.4814	0.7496	0.7664	-0.009
Mof_H 	H 	0.5458	0.7273	0.7173	-0.323
Mof_H 	H 	0.5214	0.6971	0.8232	0.014
Mof_C 	C 	0.5176	0.611	0.6817	0.449
Mof_H 	H 	0.4951	0.5793	0.6424	0.005
Mof_H 	H 	0.5297	0.5941	0.7494	-0.252
Mof_H 	H 	0.5549	0.6233	0.6433	0.815
Mof_C 	C 	0.30855	0.7804	0.6962	-0.095
Mof_H 	H 	0.2646	0.7703	0.7108	0.018
Mof_H 	H 	0.3095	0.8189	0.6546	0.035
Mof_C 	C 	0.34228	0.7914	0.7983	0.032
Mof_C 	C 	0.3463	0.7461	0.8725	-0.067
Mof_H 	H 	0.3257	0.7077	0.8612	0.029
Mof_C 	C 	0.3789	0.7544	0.9619	-0.072
Mof_H 	H 	0.3808	0.7217	0.0111	0.032
Mof_C 	C 	0.40916	0.80936	0.9823	0.038
Mof_C 	C 	0.4042	0.856	0.9078	-0.07
Mof_H 	H 	0.4239	0.8948	0.9195	0.045
Mof_C 	C 	0.3714	0.8469	0.8183	-0.068
Mof_H 	H 	0.3688	0.8795	0.7689	0.05
Mof_C 	C 	0.3706	0.91435	0.263	0.329
Mof_C 	C 	0.35623	0.8695	0.1741	-0.025
Mof_H 	H 	0.3588	0.8923	0.1066	0.038
Mof_C 	C 	0.29015	0.84292	0.1874	-0.386
Mof_H 	H 	0.2873	0.8039	0.1472	0.126
Mof_H 	H 	0.2842	0.8322	0.2614	0.122
Mof_C 	C 	0.2376	0.8851	0.1543	0.524
Mof_H 	H 	0.2424	0.9252	0.1922	-0.139
Mof_C 	C 	0.2374	0.8993	0.0404	-0.831
Mof_H 	H 	0.2023	0.9264	0.0241	0.246
Mof_H 	H 	0.2336	0.8605	0.0011	0.245
Mof_H 	H 	0.2762	0.9201	0.0216	0.263
Mof_C 	C 	0.1767	0.8563	0.1879	-0.793
Mof_H 	H 	0.1423	0.8833	0.1668	0.224
Mof_H 	H 	0.1764	0.8516	0.2635	0.218
Mof_H 	H 	0.172	0.8156	0.1553	0.231
Mof_C 	C 	0.4436	0.8192	0.0826	-0.108
Mof_H 	H 	0.4753	0.7864	0.0903	0.035
Mof_H 	H 	0.4653	0.8596	0.0799	0.056
Mof_O 	O 	0.34616	0.9652	0.262	-0.365
Mof_H 	H 	0.4264	0.6583	0.6574	0.266
Mof_H 	H 	0.4328	0.6647	0.5355	0.139
Mof_C 	C 	0.5016	0.6854	0.6106	0.834
Mof_H 	H 	0.5174	0.7064	0.5466	-0.235
Mof_C 	C 	0.5303	0.7233	0.705	0.301
Mof_H 	H 	0.5755	0.725	0.6974	0.061
Mof_H 	H 	0.5196	0.7028	0.7701	-0.077
Mof_H 	H 	0.5135	0.7655	0.7047	-0.033
Mof_C 	C 	0.5279	0.6146	0.605	-2.394
Mof_H 	H 	0.5734	0.6152	0.6062	0.134
Mof_H 	H 	0.5138	0.595	0.5405	0.743
Mof_H 	H 	0.5125	0.5909	0.6644	0.351
Mof_Cu	Cu	0.55811	0.18688	0.31417	0.896
Mof_O 	O 	0.64609	0.23777	0.43983	-0.457
Mof_O 	O 	0.55301	0.19824	0.4685	-0.359
Mof_O 	O 	0.59447	0.10597	0.3344	-0.367
Mof_N 	N 	0.6634	0.27085	0.6349	-0.243
Mof_H 	H 	0.6632	0.3064	0.6758	0.067
Mof_N 	N 	0.59806	0.18184	0.1741	-0.231
Mof_H 	H 	0.6213	0.218	0.1676	0.066
Mof_C 	C 	0.59945	0.22798	0.4978	0.262
Mof_C 	C 	0.59806	0.2569	0.6042	0.053
Mof_H 	H 	0.5801	0.2264	0.6545	0.031
Mof_C 	C 	0.5578	0.3142	0.6019	-0.628
Mof_H 	H 	0.5845	0.3495	0.5811	0.028
Mof_H 	H 	0.5268	0.3085	0.546	0.032
Mof_C 	C 	0.5235	0.3333	0.6973	-0.525
Mof_H 	H 	0.5566	0.3482	0.7455	0.125
Mof_C 	C 	0.4911	0.286	0.7558	0.106
Mof_H 	H 	0.5186	0.2504	0.7664	-0.009
Mof_H 	H 	0.4542	0.2727	0.7173	-0.323
Mof_H 	H 	0.4786	0.3029	0.8232	0.014
Mof_C 	C 	0.4824	0.389	0.6817	0.449
Mof_H 	H 	0.5049	0.4207	0.6424	0.005
Mof_H 	H 	0.4703	0.4059	0.7494	-0.252
Mof_H 	H 	0.4451	0.3767	0.6433	0.815
Mof_C 	C 	0.69145	0.2196	0.6962	-0.095
Mof_H 	H 	0.7354	0.2297	0.7108	0.018
Mof_H 	H 	0.6905	0.1811	0.6546	0.035
Mof_C 	C 	0.65772	0.2086	0.7983	0.032
Mof_C 	C 	0.6537	0.2539	0.8725	-0.067
Mof_H 	H 	0.6743	0.2923	0.8612	0.029
Mof_C 	C 	0.6211	0.2456	0.9619	-0.072
Mof_H 	H 	0.6192	0.2783	0.0111	0.032
Mof_C 	C 	0.59084	0.19064	0.9823	0.038
Mof_C 	C 	0.5958	0.144	0.9078	-0.07
Mof_H 	H 	0.5761	0.1052	0.9195	0.045
Mof_C 	C 	0.6286	0.1531	0.8183	-0.068
Mof_H 	H 	0.6312	0.1205	0.7689	0.05
Mof_C 	C 	0.6294	0.08565	0.263	0.329
Mof_C 	C 	0.64377	0.1305	0.1741	-0.025
Mof_H 	H 	0.6412	0.1077	0.1066	0.038
Mof_C 	C 	0.70985	0.15708	0.1874	-0.386
Mof_H 	H 	0.7127	0.1961	0.1472	0.126
Mof_H 	H 	0.7158	0.1678	0.2614	0.122
Mof_C 	C 	0.7624	0.1149	0.1543	0.524
Mof_H 	H 	0.7576	0.0748	0.1922	-0.139
Mof_C 	C 	0.7626	0.1007	0.0404	-0.831
Mof_H 	H 	0.7977	0.0736	0.0241	0.246
Mof_H 	H 	0.7664	0.1395	0.0011	0.245
Mof_H 	H 	0.7238	0.0799	0.0216	0.263
Mof_C 	C 	0.8233	0.1437	0.1879	-0.793
Mof_H 	H 	0.8577	0.1167	0.1668	0.224
Mof_H 	H 	0.8236	0.1484	0.2635	0.218
Mof_H 	H 	0.828	0.1844	0.1553	0.231
Mof_C 	C 	0.5564	0.1808	0.0826	-0.108
Mof_H 	H 	0.5247	0.2136	0.0903	0.035
Mof_H 	H 	0.5347	0.1404	0.0799	0.056
Mof_O 	O 	0.65384	0.0348	0.262	-0.365
Mof_H 	H 	0.5736	0.3417	0.6574	0.266
Mof_H 	H 	0.5672	0.3353	0.5355	0.139
Mof_C 	C 	0.4984	0.3146	0.6106	0.834
Mof_H 	H 	0.4826	0.2936	0.5466	-0.235
Mof_C 	C 	0.4697	0.2767	0.705	0.301
Mof_H 	H 	0.4245	0.275	0.6974	0.061
Mof_H 	H 	0.4804	0.2972	0.7701	-0.077
Mof_H 	H 	0.4865	0.2345	0.7047	-0.033
Mof_C 	C 	0.4721	0.3854	0.605	-2.394
Mof_H 	H 	0.4266	0.3848	0.6062	0.134
Mof_H 	H 	0.4862	0.405	0.5405	0.743
Mof_H 	H 	0.4875	0.4091	0.6644	0.351
Mof_Cu	Cu	0.31312	0.05811	0.31417	0.896
Mof_O 	O 	0.26223	0.14609	0.43983	-0.457
Mof_O 	O 	0.30176	0.05301	0.4685	-0.359
Mof_O 	O 	0.39403	0.09447	0.3344	-0.367
Mof_N 	N 	0.22915	0.1634	0.6349	-0.243
Mof_H 	H 	0.1936	0.1632	0.6758	0.067
Mof_N 	N 	0.31816	0.09806	0.1741	-0.231
Mof_H 	H 	0.282	0.1213	0.1676	0.066
Mof_C 	C 	0.27202	0.09945	0.4978	0.263
Mof_C 	C 	0.2431	0.09806	0.6042	0.05
Mof_H 	H 	0.2736	0.0801	0.6545	0.032
Mof_C 	C 	0.1858	0.0578	0.6019	-0.62
Mof_H 	H 	0.1505	0.0845	0.5811	0.028
Mof_H 	H 	0.1915	0.0268	0.546	0.034
Mof_C 	C 	0.1667	0.0235	0.6973	-0.515
Mof_H 	H 	0.1518	0.0566	0.7455	0.123
Mof_C 	C 	0.214	0.9911	0.7558	0.108
Mof_H 	H 	0.2496	0.0186	0.7664	-0.009
Mof_H 	H 	0.2273	0.9542	0.7173	-0.32
Mof_H 	H 	0.1971	0.9786	0.8232	0.015
Mof_C 	C 	0.111	0.9824	0.6817	0.441
Mof_H 	H 	0.0793	0.0049	0.6424	0.011
Mof_H 	H 	0.0941	0.9703	0.7494	-0.248
Mof_H 	H 	0.1233	0.9451	0.6433	0.808
Mof_C 	C 	0.2804	0.19145	0.6962	-0.095
Mof_H 	H 	0.2703	0.2354	0.7108	0.018
Mof_H 	H 	0.3189	0.1905	0.6546	0.035
Mof_C 	C 	0.2914	0.15772	0.7983	0.032
Mof_C 	C 	0.2461	0.1537	0.8725	-0.067
Mof_H 	H 	0.2077	0.1743	0.8612	0.029
Mof_C 	C 	0.2544	0.1211	0.9619	-0.072
Mof_H 	H 	0.2217	0.1192	0.0111	0.033
Mof_C 	C 	0.30936	0.09084	0.9823	0.039
Mof_C 	C 	0.356	0.0958	0.9078	-0.07
Mof_H 	H 	0.3948	0.0761	0.9195	0.045
Mof_C 	C 	0.3469	0.1286	0.8183	-0.068
Mof_H 	H 	0.3795	0.1312	0.7689	0.05
Mof_C 	C 	0.41435	0.1294	0.263	0.329
Mof_C 	C 	0.3695	0.14377	0.1741	-0.025
Mof_H 	H 	0.3923	0.1412	0.1066	0.038
Mof_C 	C 	0.34292	0.20985	0.1874	-0.386
Mof_H 	H 	0.3039	0.2127	0.1472	0.126
Mof_H 	H 	0.3322	0.2158	0.2614	0.122
Mof_C 	C 	0.3851	0.2624	0.1543	0.524
Mof_H 	H 	0.4252	0.2576	0.1922	-0.139
Mof_C 	C 	0.3993	0.2626	0.0404	-0.831
Mof_H 	H 	0.4264	0.2977	0.0241	0.246
Mof_H 	H 	0.3605	0.2664	0.0011	0.245
Mof_H 	H 	0.4201	0.2238	0.0216	0.263
Mof_C 	C 	0.3563	0.3233	0.1879	-0.793
Mof_H 	H 	0.3833	0.3577	0.1668	0.224
Mof_H 	H 	0.3516	0.3236	0.2635	0.218
Mof_H 	H 	0.3156	0.328	0.1553	0.231
Mof_C 	C 	0.3192	0.0564	0.0826	-0.108
Mof_H 	H 	0.2864	0.0247	0.0903	0.035
Mof_H 	H 	0.3596	0.0347	0.0799	0.057
Mof_O 	O 	0.4652	0.15384	0.262	-0.364
Mof_H 	H 	0.1583	0.0736	0.6574	0.263
Mof_H 	H 	0.1647	0.0672	0.5355	0.137
Mof_C 	C 	0.1854	0.9984	0.6106	0.818
Mof_H 	H 	0.2064	0.9826	0.5466	-0.231
Mof_C 	C 	0.2233	0.9697	0.705	0.299
Mof_H 	H 	0.225	0.9245	0.6974	0.061
Mof_H 	H 	0.2028	0.9804	0.7701	-0.08
Mof_H 	H 	0.2655	0.9865	0.7047	-0.033
Mof_C 	C 	0.1146	0.9721	0.605	-2.367
Mof_H 	H 	0.1152	0.9266	0.6062	0.131
Mof_H 	H 	0.095	0.9862	0.5405	0.734
Mof_H 	H 	0.0909	0.9875	0.6644	0.343
Mof_Cu	Cu	0.68688	0.94189	0.31417	0.896
Mof_O 	O 	0.73777	0.85391	0.43983	-0.457
Mof_O 	O 	0.69824	0.94699	0.4685	-0.359
Mof_O 	O 	0.60597	0.90553	0.3344	-0.367
Mof_N 	N 	0.77085	0.8366	0.6349	-0.243
Mof_H 	H 	0.8064	0.8368	0.6758	0.067
Mof_N 	N 	0.68184	0.90194	0.1741	-0.231
Mof_H 	H 	0.718	0.8787	0.1676	0.066
Mof_C 	C 	0.72798	0.90055	0.4978	0.263
Mof_C 	C 	0.7569	0.90194	0.6042	0.05
Mof_H 	H 	0.7264	0.9199	0.6545	0.032
Mof_C 	C 	0.8142	0.9422	0.6019	-0.62
Mof_H 	H 	0.8495	0.9155	0.5811	0.028
Mof_H 	H 	0.8085	0.9732	0.546	0.034
Mof_C 	C 	0.8333	0.9765	0.6973	-0.515
Mof_H 	H 	0.8482	0.9434	0.7455	0.123
Mof_C 	C 	0.786	0.0089	0.7558	0.108
Mof_H 	H 	0.7504	0.9814	0.7664	-0.009
Mof_H 	H 	0.7727	0.0458	0.7173	-0.32
Mof_H 	H 	0.8029	0.0214	0.8232	0.015
Mof_C 	C 	0.889	0.0176	0.6817	0.441
Mof_H 	H 	0.9207	0.9951	0.6424	0.011
Mof_H 	H 	0.9059	0.0297	0.7494	-0.248
Mof_H 	H 	0.8767	0.0549	0.6433	0.808
Mof_C 	C 	0.7196	0.80855	0.6962	-0.095
Mof_H 	H 	0.7297	0.7646	0.7108	0.018
Mof_H 	H 	0.6811	0.8095	0.6546	0.035
Mof_C 	C 	0.7086	0.84228	0.7983	0.032
Mof_C 	C 	0.7539	0.8463	0.8725	-0.067
Mof_H 	H 	0.7923	0.8257	0.8612	0.029
Mof_C 	C 	0.7456	0.8789	0.9619	-0.072
Mof_H 	H 	0.7783	0.8808	0.0111	0.033
Mof_C 	C 	0.69064	0.90916	0.9823	0.039
Mof_C 	C 	0.644	0.9042	0.9078	-0.07
Mof_H 	H 	0.6052	0.9239	0.9195	0.045
Mof_C 	C 	0.6531	0.8714	0.8183	-0.068
Mof_H 	H 	0.6205	0.8688	0.7689	0.05
Mof_C 	C 	0.58565	0.8706	0.263	0.329
Mof_C 	C 	0.6305	0.85623	0.1741	-0.025
Mof_H 	H 	0.6077	0.8588	0.1066	0.038
Mof_C 	C 	0.65708	0.79015	0.1874	-0.386
Mof_H 	H 	0.6961	0.7873	0.1472	0.126
Mof_H 	H 	0.6678	0.7842	0.2614	0.122
Mof_C 	C 	0.6149	0.7376	0.1543	0.524
Mof_H 	H 	0.5748	0.7424	0.1922	-0.139
Mof_C 	C 	0.6007	0.7374	0.0404	-0.831
Mof_H 	H 	0.5736	0.7023	0.0241	0.246
Mof_H 	H 	0.6395	0.7336	0.0011	0.245
Mof_H 	H 	0.5799	0.7762	0.0216	0.263
Mof_C 	C 	0.6437	0.6767	0.1879	-0.793
Mof_H 	H 	0.6167	0.6423	0.1668	0.224
Mof_H 	H 	0.6484	0.6764	0.2635	0.218
Mof_H 	H 	0.6844	0.672	0.1553	0.231
Mof_C 	C 	0.6808	0.9436	0.0826	-0.108
Mof_H 	H 	0.7136	0.9753	0.0903	0.035
Mof_H 	H 	0.6404	0.9653	0.0799	0.057
Mof_O 	O 	0.5348	0.84616	0.262	-0.364
Mof_H 	H 	0.8417	0.9264	0.6574	0.263
Mof_H 	H 	0.8353	0.9328	0.5355	0.137
Mof_C 	C 	0.8146	0.0016	0.6106	0.818
Mof_H 	H 	0.7936	0.0174	0.5466	-0.231
Mof_C 	C 	0.7767	0.0303	0.705	0.299
Mof_H 	H 	0.775	0.0755	0.6974	0.061
Mof_H 	H 	0.7972	0.0196	0.7701	-0.08
Mof_H 	H 	0.7345	0.0135	0.7047	-0.033
Mof_C 	C 	0.8854	0.0279	0.605	-2.367
Mof_H 	H 	0.8848	0.0734	0.6062	0.131
Mof_H 	H 	0.905	0.0138	0.5405	0.734
Mof_H 	H 	0.9091	0.0125	0.6644	0.343
Mof_Cu	Cu	0.20949	0.20949	0.5	0.873
Mof_Cu	Cu	0.79051	0.79051	0.5	0.873
Mof_Cu	Cu	0.29051	0.70949	0.5	0.873
Mof_Cu	Cu	0.70949	0.29051	0.5	0.873
_end
