data_functionalizedCrystal
_audit_creation_method	'EQeq! by Chris Wilmer'
_symmetry_space_group_name_H-M	'P1'
_symmetry_Int_Tables_number	1
_symmetry_cell_setting	triclinic
loop_
_symmetry_equiv_pos_as_xyz
  x,y,z
_cell_length_a	9.59
_cell_length_b	13.416
_cell_length_c	14.5286
_cell_angle_alpha	95.1557
_cell_angle_beta	109.271
_cell_angle_gamma	74.2001
loop_
_atom_site_label
_atom_site_type_symbol
_atom_site_fract_x
_atom_site_fract_y
_atom_site_fract_z
_atom_site_charge
Mof_Cu	Cu	0.29087	0.2254	0.22894	0.86
Mof_Cu	Cu	0.06193	0.7254	0.77106	0.854
Mof_H 	H 	0.6852	0.9192	0.1504	0.179
Mof_H 	H 	0.6898	0.0336	0.8728	0.055
Mof_H 	H 	0.8692	0.7623	0.1392	0.457
Mof_H 	H 	0.9774	0.7712	0.0828	0.493
Mof_H 	H 	0.8422	0.7218	0.0328	0.486
Mof_H 	H 	0.3667	0.1721	0.9142	0.166
Mof_H 	H 	0.4881	0.2294	0.9746	0.205
Mof_H 	H 	0.4802	0.1946	0.8686	0.247
Mof_H 	H 	0.3415	0.0968	0.5632	0.074
Mof_H 	H 	0.0016	0.8704	0.4406	0.087
Mof_H 	H 	0.3683	0.0518	0.7308	0.238
Mof_H 	H 	0.3525	0.9423	0.7438	0.173
Mof_H 	H 	0.2184	0.039	0.7414	0.256
Mof_H 	H 	0.0704	0.9819	0.256	0.29
Mof_H 	H 	0.9305	0.9656	0.278	0.287
Mof_H 	H 	0.0715	0.8729	0.2844	0.222
Mof_H 	H 	0.5348	0.4192	0.8496	0.161
Mof_H 	H 	0.817	0.5336	0.1272	0.085
Mof_H 	H 	0.73	0.2623	0.8608	0.445
Mof_H 	H 	0.8946	0.2712	0.9172	0.482
Mof_H 	H 	0.8094	0.2218	0.9672	0.476
Mof_H 	H 	0.4525	0.6721	0.0858	0.171
Mof_H 	H 	0.5135	0.7294	0.0254	0.215
Mof_H 	H 	0.6116	0.6946	0.1314	0.259
Mof_H 	H 	0.7783	0.5968	0.4368	0.092
Mof_H 	H 	0.561	0.3704	0.5594	0.084
Mof_H 	H 	0.6375	0.5518	0.2692	0.316
Mof_H 	H 	0.6087	0.4423	0.2562	0.254
Mof_H 	H 	0.477	0.539	0.2586	0.345
Mof_H 	H 	0.8144	0.4819	0.744	0.294
Mof_H 	H 	0.6525	0.4656	0.722	0.279
Mof_H 	H 	0.7871	0.3729	0.7156	0.224
Mof_C 	C 	0.4894	0.096	0.1088	0.065
Mof_C 	C 	0.5825	0.0343	0.053	0.042
Mof_C 	C 	0.6835	0.939	0.091	-0.418
Mof_C 	C 	0.7779	0.874	0.0418	0.525
Mof_C 	C 	0.7638	0.914	0.9516	-0.255
Mof_C 	C 	0.6721	0.013	0.9162	-0.055
Mof_C 	C 	0.5817	0.0715	0.9674	0.106
Mof_C 	C 	0.8568	0.8531	0.8976	0.115
Mof_C 	C 	0.8781	0.772	0.0762	-1.5
Mof_C 	C 	0.477	0.177	0.926	-0.63
Mof_C 	C 	0.2377	0.087	0.3734	0.134
Mof_C 	C 	0.2006	0.033	0.4392	-0.109
Mof_C 	C 	0.2671	0.048	0.5402	-0.058
Mof_C 	C 	0.2367	0.9968	0.6074	0.143
Mof_C 	C 	0.1316	0.936	0.5672	-0.06
Mof_C 	C 	0.0737	0.9194	0.4714	-0.139
Mof_C 	C 	0.1101	0.968	0.4022	0.236
Mof_C 	C 	0.0959	0.876	0.6358	0.099
Mof_C 	C 	0.2928	0.014	0.7156	-0.656
Mof_C 	C 	0.0384	0.951	0.2948	-0.829
Mof_C 	C 	0.3806	0.596	0.8912	0.074
Mof_C 	C 	0.5295	0.5343	0.947	-0.008
Mof_C 	C 	0.5925	0.439	0.909	-0.356
Mof_C 	C 	0.7361	0.374	0.9582	0.489
Mof_C 	C 	0.8122	0.414	0.0484	-0.206
Mof_C 	C 	0.7559	0.513	0.0838	-0.144
Mof_C 	C 	0.6143	0.5715	0.0326	0.149
Mof_C 	C 	0.9592	0.3531	0.1024	0.108
Mof_C 	C 	0.8019	0.272	0.9238	-1.453
Mof_C 	C 	0.551	0.677	0.074	-0.675
Mof_C 	C 	0.8643	0.587	0.6266	0.125
Mof_C 	C 	0.7614	0.533	0.5608	-0.101
Mof_C 	C 	0.7269	0.548	0.4598	-0.135
Mof_C 	C 	0.6293	0.4968	0.3926	0.273
Mof_C 	C 	0.5644	0.436	0.4328	-0.109
Mof_C 	C 	0.6023	0.4194	0.5286	-0.109
Mof_C 	C 	0.7079	0.468	0.5978	0.239
Mof_C 	C 	0.4601	0.376	0.3642	0.12
Mof_C 	C 	0.5772	0.514	0.2844	-0.93
Mof_C 	C 	0.7436	0.451	0.7052	-0.808
Mof_N 	N 	0.4176	0.1419	0.1512	-0.258
Mof_N 	N 	0.9329	0.8019	0.8518	-0.272
Mof_N 	N 	0.2649	0.1291	0.3198	-0.254
Mof_N 	N 	0.0781	0.8267	0.6862	-0.265
Mof_N 	N 	0.2664	0.6419	0.8488	-0.266
Mof_N 	N 	0.0811	0.3019	0.1482	-0.275
Mof_N 	N 	0.9451	0.6291	0.6802	-0.251
Mof_N 	N 	0.3919	0.3267	0.3138	-0.267
Mof_Cl	Cl	0.7076	0.809	0.346	-0.204
Mof_O 	O 	0.7796	0.7957	0.4472	-0.052
Mof_O 	O 	0.7095	0.908	0.319	-0.084
Mof_O 	O 	0.8015	0.737	0.299	-0.1
Mof_O 	O 	0.57	0.785	0.316	-0.069
Mof_Cl	Cl	0.3616	0.309	0.654	-0.206
Mof_O 	O 	0.3324	0.2957	0.5528	-0.051
Mof_O 	O 	0.3905	0.408	0.681	-0.079
Mof_O 	O 	0.5025	0.237	0.701	-0.094
Mof_O 	O 	0.254	0.285	0.684	-0.063
_end
