data_functionalizedCrystal
_audit_creation_method	'EQeq! by Chris Wilmer'
_symmetry_space_group_name_H-M	'P1'
_symmetry_Int_Tables_number	1
_symmetry_cell_setting	triclinic
loop_
_symmetry_equiv_pos_as_xyz
  x,y,z
_cell_length_a	15.486
_cell_length_b	15.486
_cell_length_c	15.486
_cell_angle_alpha	90
_cell_angle_beta	90
_cell_angle_gamma	90
loop_
_atom_site_label
_atom_site_type_symbol
_atom_site_fract_x
_atom_site_fract_y
_atom_site_fract_z
_atom_site_charge
Mof_O 	O 	0.7304	0.3794	0.908	-0.535
Mof_O 	O 	0.6041	0.3835	0.0184	-0.529
Mof_C 	C 	0.7538	0.3681	0.9864	0.283
Mof_C 	C 	0.6771	0.3677	0.0521	0.278
Mof_O 	O 	0.8256	0.3593	0.0079	-0.274
Mof_O 	O 	0.6871	0.3541	0.1287	-0.293
Mof_O 	O 	0.7696	0.6206	0.408	-0.534
Mof_O 	O 	0.8959	0.6165	0.5184	-0.529
Mof_C 	C 	0.7462	0.6319	0.4864	0.289
Mof_C 	C 	0.8229	0.6323	0.5521	0.275
Mof_O 	O 	0.6744	0.6407	0.5079	-0.278
Mof_O 	O 	0.8129	0.6459	0.6287	-0.294
Mof_O 	O 	0.2696	0.8794	0.592	-0.534
Mof_O 	O 	0.3959	0.8835	0.4816	-0.528
Mof_C 	C 	0.2462	0.8681	0.5136	0.289
Mof_C 	C 	0.3229	0.8677	0.4479	0.275
Mof_O 	O 	0.1744	0.8593	0.4921	-0.277
Mof_O 	O 	0.3129	0.8541	0.3713	-0.292
Mof_O 	O 	0.2304	0.1206	0.092	-0.532
Mof_O 	O 	0.1041	0.1165	0.9816	-0.525
Mof_C 	C 	0.2538	0.1319	0.0136	0.282
Mof_C 	C 	0.1771	0.1323	0.9479	0.279
Mof_O 	O 	0.3256	0.1407	0.9921	-0.273
Mof_O 	O 	0.1871	0.1459	0.8713	-0.293
Mof_O 	O 	0.908	0.7304	0.3794	-0.534
Mof_O 	O 	0.0184	0.6041	0.3835	-0.528
Mof_C 	C 	0.9864	0.7538	0.3681	0.283
Mof_C 	C 	0.0521	0.6771	0.3677	0.278
Mof_O 	O 	0.0079	0.8256	0.3593	-0.274
Mof_O 	O 	0.1287	0.6871	0.3541	-0.293
Mof_O 	O 	0.408	0.7696	0.6206	-0.534
Mof_O 	O 	0.5184	0.8959	0.6165	-0.529
Mof_C 	C 	0.4864	0.7462	0.6319	0.289
Mof_C 	C 	0.5521	0.8229	0.6323	0.275
Mof_O 	O 	0.5079	0.6744	0.6407	-0.278
Mof_O 	O 	0.6287	0.8129	0.6459	-0.294
Mof_O 	O 	0.592	0.2696	0.8794	-0.534
Mof_O 	O 	0.4816	0.3959	0.8835	-0.528
Mof_C 	C 	0.5136	0.2462	0.8681	0.289
Mof_C 	C 	0.4479	0.3229	0.8677	0.275
Mof_O 	O 	0.4921	0.1744	0.8593	-0.277
Mof_O 	O 	0.3713	0.3129	0.8541	-0.292
Mof_O 	O 	0.092	0.2304	0.1206	-0.532
Mof_O 	O 	0.9816	0.1041	0.1165	-0.525
Mof_C 	C 	0.0136	0.2538	0.1319	0.282
Mof_C 	C 	0.9479	0.1771	0.1323	0.279
Mof_O 	O 	0.9921	0.3256	0.1407	-0.273
Mof_O 	O 	0.8713	0.1871	0.1459	-0.293
Mof_O 	O 	0.3794	0.908	0.7304	-0.534
Mof_O 	O 	0.3835	0.0184	0.6041	-0.528
Mof_C 	C 	0.3681	0.9864	0.7538	0.283
Mof_C 	C 	0.3677	0.0521	0.6771	0.278
Mof_O 	O 	0.3593	0.0079	0.8256	-0.274
Mof_O 	O 	0.3541	0.1287	0.6871	-0.293
Mof_O 	O 	0.6206	0.408	0.7696	-0.534
Mof_O 	O 	0.6165	0.5184	0.8959	-0.529
Mof_C 	C 	0.6319	0.4864	0.7462	0.289
Mof_C 	C 	0.6323	0.5521	0.8229	0.275
Mof_O 	O 	0.6407	0.5079	0.6744	-0.278
Mof_O 	O 	0.6459	0.6287	0.8129	-0.294
Mof_O 	O 	0.8794	0.592	0.2696	-0.534
Mof_O 	O 	0.8835	0.4816	0.3959	-0.528
Mof_C 	C 	0.8681	0.5136	0.2462	0.289
Mof_C 	C 	0.8677	0.4479	0.3229	0.275
Mof_O 	O 	0.8593	0.4921	0.1744	-0.277
Mof_O 	O 	0.8541	0.3713	0.3129	-0.292
Mof_O 	O 	0.1206	0.092	0.2304	-0.532
Mof_O 	O 	0.1165	0.9816	0.1041	-0.525
Mof_C 	C 	0.1319	0.0136	0.2538	0.282
Mof_C 	C 	0.1323	0.9479	0.1771	0.279
Mof_O 	O 	0.1407	0.9921	0.3256	-0.273
Mof_O 	O 	0.1459	0.8713	0.1871	-0.293
Mof_Ag	Ag	0.8329	0.3329	0.1671	0.92
Mof_Ag	Ag	0.6671	0.6671	0.6671	0.918
Mof_Ag	Ag	0.1671	0.8329	0.3329	0.92
Mof_Ag	Ag	0.3329	0.1671	0.8329	0.92
Mof_Cr	Cr	0.607	0.393	0.893	2.285
Mof_Cr	Cr	0.893	0.607	0.393	2.285
Mof_Cr	Cr	0.393	0.893	0.607	2.285
Mof_Cr	Cr	0.107	0.107	0.107	2.273
_end
