data_functionalizedCrystal
_audit_creation_method	'EQeq! by Chris Wilmer'
_symmetry_space_group_name_H-M	'P1'
_symmetry_Int_Tables_number	1
_symmetry_cell_setting	triclinic
loop_
_symmetry_equiv_pos_as_xyz
  x,y,z
_cell_length_a	45.5462
_cell_length_b	45.5462
_cell_length_c	45.5462
_cell_angle_alpha	60
_cell_angle_beta	60
_cell_angle_gamma	60
loop_
_atom_site_label
_atom_site_type_symbol
_atom_site_fract_x
_atom_site_fract_y
_atom_site_fract_z
_atom_site_charge
Mof_N 	N 	0.57078	0.89134	0.13282	-0.264
Mof_N 	N 	0.9082	0.84064	0.09522	-0.267
Mof_N 	N 	0.6649	0.90308	0.3164	-0.224
Mof_N 	N 	0.61583	0.88415	0.16729	-0.224
Mof_N 	N 	0.70232	0.88874	0.17072	-0.152
Mof_N 	N 	0.66732	0.90274	0.2243	-0.154
Mof_N 	N 	0.72843	0.89919	0.19709	-0.154
Mof_N 	N 	0.82873	0.87221	0.12275	-0.23
Mof_N 	N 	0.92141	0.87003	0.13029	-0.23
Mof_N 	N 	0.92295	0.95485	0.13887	-0.153
Mof_S 	S 	0.49606	0.91434	0.15998	-0.061
Mof_S 	S 	0.96024	0.79858	0.05264	-0.063
Mof_C 	C 	0.53922	0.90166	0.14316	0.096
Mof_C 	C 	0.66746	0.90218	0.28586	0.032
Mof_H 	H 	0.6501	0.8957	0.2869	0.015
Mof_C 	C 	0.69362	0.9101	0.25386	-0.046
Mof_C 	C 	0.71889	0.92147	0.25077	0.006
Mof_H 	H 	0.7375	0.9271	0.2287	0.037
Mof_C 	C 	0.71526	0.92394	0.2812	-0.101
Mof_H 	H 	0.7311	0.9323	0.2803	0.065
Mof_C 	C 	0.68919	0.91453	0.31273	0.058
Mof_H 	H 	0.688	0.916	0.3334	-0.001
Mof_C 	C 	0.58485	0.88669	0.19585	0.057
Mof_H 	H 	0.5649	0.8853	0.1955	-0.002
Mof_C 	C 	0.58168	0.89102	0.22452	-0.104
Mof_H 	H 	0.56	0.8916	0.2444	0.065
Mof_C 	C 	0.6089	0.89458	0.2255	0.013
Mof_H 	H 	0.6062	0.898	0.2458	0.034
Mof_C 	C 	0.64078	0.8932	0.1967	-0.052
Mof_C 	C 	0.64326	0.88754	0.16838	0.035
Mof_H 	H 	0.6651	0.8859	0.1487	0.016
Mof_C 	C 	0.67189	0.89521	0.19729	0.137
Mof_C 	C 	0.69647	0.90411	0.22263	0.134
Mof_C 	C 	0.7301	0.8912	0.1722	0.132
Mof_C 	C 	0.83166	0.86736	0.09452	0.059
Mof_H 	H 	0.8547	0.8627	0.0767	0
Mof_C 	C 	0.80348	0.86872	0.0898	-0.1
Mof_H 	H 	0.807	0.8646	0.0696	0.065
Mof_C 	C 	0.76951	0.87645	0.11547	0.008
Mof_H 	H 	0.7494	0.8776	0.113	0.037
Mof_C 	C 	0.76526	0.88236	0.14372	-0.049
Mof_C 	C 	0.79618	0.87912	0.1474	0.036
Mof_H 	H 	0.7935	0.8819	0.1681	0.013
Mof_C 	C 	0.94792	0.83876	0.13454	0.058
Mof_H 	H 	0.9472	0.8196	0.132	-0.001
Mof_C 	C 	0.97689	0.83271	0.14249	-0.1
Mof_H 	H 	0.9946	0.8096	0.147	0.066
Mof_C 	C 	0.97885	0.86145	0.14355	0.009
Mof_H 	H 	0.9986	0.8586	0.1478	0.036
Mof_C 	C 	0.95194	0.89424	0.13838	-0.056
Mof_C 	C 	0.92359	0.89697	0.13165	0.047
Mof_H 	H 	0.905	0.9196	0.1278	0.008
Mof_C 	C 	0.95285	0.92577	0.13873	0.134
Mof_C 	C 	0.92925	0.82373	0.07715	0.107
Mof_N 	N 	0.89134	0.57078	0.40506	-0.264
Mof_N 	N 	0.84064	0.9082	0.15594	-0.267
Mof_N 	N 	0.90308	0.6649	0.11562	-0.224
Mof_N 	N 	0.88415	0.61583	0.33273	-0.224
Mof_N 	N 	0.88874	0.70232	0.23822	-0.152
Mof_N 	N 	0.90274	0.66732	0.20564	-0.154
Mof_N 	N 	0.89919	0.72843	0.17529	-0.154
Mof_N 	N 	0.87221	0.82873	0.17631	-0.23
Mof_N 	N 	0.87003	0.92141	0.07827	-0.23
Mof_N 	N 	0.95485	0.92295	0.98333	-0.153
Mof_S 	S 	0.91434	0.49606	0.42962	-0.061
Mof_S 	S 	0.79858	0.96024	0.18854	-0.063
Mof_C 	C 	0.90166	0.53922	0.41596	0.096
Mof_C 	C 	0.90218	0.66746	0.1445	0.032
Mof_H 	H 	0.8957	0.6501	0.1673	0.015
Mof_C 	C 	0.9101	0.69362	0.14242	-0.046
Mof_C 	C 	0.92147	0.71889	0.10887	0.006
Mof_H 	H 	0.9271	0.7375	0.1067	0.037
Mof_C 	C 	0.92394	0.71526	0.0796	-0.101
Mof_H 	H 	0.9323	0.7311	0.0563	0.065
Mof_C 	C 	0.91453	0.68919	0.08355	0.058
Mof_H 	H 	0.916	0.688	0.0626	-0.001
Mof_C 	C 	0.88669	0.58485	0.33261	0.057
Mof_H 	H 	0.8853	0.5649	0.3543	-0.002
Mof_C 	C 	0.89102	0.58168	0.30278	-0.104
Mof_H 	H 	0.8916	0.56	0.304	0.065
Mof_C 	C 	0.89458	0.6089	0.27102	0.013
Mof_H 	H 	0.898	0.6062	0.25	0.034
Mof_C 	C 	0.8932	0.64078	0.26932	-0.052
Mof_C 	C 	0.88754	0.64326	0.30082	0.035
Mof_H 	H 	0.8859	0.6651	0.3003	0.016
Mof_C 	C 	0.89521	0.67189	0.23561	0.137
Mof_C 	C 	0.90411	0.69647	0.17679	0.134
Mof_C 	C 	0.8912	0.7301	0.2065	0.132
Mof_C 	C 	0.86736	0.83166	0.20646	0.059
Mof_H 	H 	0.8627	0.8547	0.2059	0
Mof_C 	C 	0.86872	0.80348	0.238	-0.1
Mof_H 	H 	0.8646	0.807	0.2588	0.065
Mof_C 	C 	0.87645	0.76951	0.23857	0.008
Mof_H 	H 	0.8776	0.7494	0.26	0.037
Mof_C 	C 	0.88236	0.76526	0.20866	-0.049
Mof_C 	C 	0.87912	0.79618	0.1773	0.036
Mof_H 	H 	0.8819	0.7935	0.1565	0.013
Mof_C 	C 	0.83876	0.94792	0.07878	0.058
Mof_H 	H 	0.8196	0.9472	0.1012	-0.001
Mof_C 	C 	0.83271	0.97689	0.04791	-0.1
Mof_H 	H 	0.8096	0.9946	0.0488	0.066
Mof_C 	C 	0.86145	0.97885	0.01615	0.009
Mof_H 	H 	0.8586	0.9986	0.995	0.036
Mof_C 	C 	0.89424	0.95194	0.01544	-0.056
Mof_C 	C 	0.89697	0.92359	0.04779	0.047
Mof_H 	H 	0.9196	0.905	0.0476	0.008
Mof_C 	C 	0.92577	0.95285	0.98265	0.134
Mof_C 	C 	0.82373	0.92925	0.16987	0.107
Mof_N 	N 	0.13282	0.40506	0.57078	-0.264
Mof_N 	N 	0.09522	0.15594	0.9082	-0.267
Mof_N 	N 	0.3164	0.11562	0.6649	-0.224
Mof_N 	N 	0.16729	0.33273	0.61583	-0.224
Mof_N 	N 	0.17072	0.23822	0.70232	-0.152
Mof_N 	N 	0.2243	0.20564	0.66732	-0.154
Mof_N 	N 	0.19709	0.17529	0.72843	-0.154
Mof_N 	N 	0.12275	0.17631	0.82873	-0.23
Mof_N 	N 	0.13029	0.07827	0.92141	-0.23
Mof_N 	N 	0.13887	0.98333	0.92295	-0.153
Mof_S 	S 	0.15998	0.42962	0.49606	-0.061
Mof_S 	S 	0.05264	0.18854	0.96024	-0.063
Mof_C 	C 	0.14316	0.41596	0.53922	0.096
Mof_C 	C 	0.28586	0.1445	0.66746	0.032
Mof_H 	H 	0.2869	0.1673	0.6501	0.015
Mof_C 	C 	0.25386	0.14242	0.69362	-0.046
Mof_C 	C 	0.25077	0.10887	0.71889	0.006
Mof_H 	H 	0.2287	0.1067	0.7375	0.037
Mof_C 	C 	0.2812	0.0796	0.71526	-0.101
Mof_H 	H 	0.2803	0.0563	0.7311	0.065
Mof_C 	C 	0.31273	0.08355	0.68919	0.058
Mof_H 	H 	0.3334	0.0626	0.688	-0.001
Mof_C 	C 	0.19585	0.33261	0.58485	0.057
Mof_H 	H 	0.1955	0.3543	0.5649	-0.002
Mof_C 	C 	0.22452	0.30278	0.58168	-0.104
Mof_H 	H 	0.2444	0.304	0.56	0.065
Mof_C 	C 	0.2255	0.27102	0.6089	0.013
Mof_H 	H 	0.2458	0.25	0.6062	0.034
Mof_C 	C 	0.1967	0.26932	0.64078	-0.052
Mof_C 	C 	0.16838	0.30082	0.64326	0.035
Mof_H 	H 	0.1487	0.3003	0.6651	0.016
Mof_C 	C 	0.19729	0.23561	0.67189	0.137
Mof_C 	C 	0.22263	0.17679	0.69647	0.134
Mof_C 	C 	0.1722	0.2065	0.7301	0.132
Mof_C 	C 	0.09452	0.20646	0.83166	0.059
Mof_H 	H 	0.0767	0.2059	0.8547	0
Mof_C 	C 	0.0898	0.238	0.80348	-0.099
Mof_H 	H 	0.0696	0.2588	0.807	0.066
Mof_C 	C 	0.11547	0.23857	0.76951	0.009
Mof_H 	H 	0.113	0.26	0.7494	0.038
Mof_C 	C 	0.14372	0.20866	0.76526	-0.048
Mof_C 	C 	0.1474	0.1773	0.79618	0.037
Mof_H 	H 	0.1681	0.1565	0.7935	0.014
Mof_C 	C 	0.13454	0.07878	0.94792	0.059
Mof_H 	H 	0.132	0.1012	0.9472	0
Mof_C 	C 	0.14249	0.04791	0.97689	-0.099
Mof_H 	H 	0.147	0.0488	0.9946	0.067
Mof_C 	C 	0.14355	0.01615	0.97885	0.01
Mof_H 	H 	0.1478	0.995	0.9986	0.037
Mof_C 	C 	0.13838	0.01544	0.95194	-0.055
Mof_C 	C 	0.13165	0.04779	0.92359	0.048
Mof_H 	H 	0.1278	0.0476	0.905	0.009
Mof_C 	C 	0.13873	0.98265	0.95285	0.135
Mof_C 	C 	0.07715	0.16987	0.92925	0.108
Mof_N 	N 	0.40506	0.13282	0.89134	-0.263
Mof_N 	N 	0.15594	0.09522	0.84064	-0.266
Mof_N 	N 	0.11562	0.3164	0.90308	-0.223
Mof_N 	N 	0.33273	0.16729	0.88415	-0.223
Mof_N 	N 	0.23822	0.17072	0.88874	-0.151
Mof_N 	N 	0.20564	0.2243	0.90274	-0.153
Mof_N 	N 	0.17529	0.19709	0.89919	-0.153
Mof_N 	N 	0.17631	0.12275	0.87221	-0.229
Mof_N 	N 	0.07827	0.13029	0.87003	-0.229
Mof_N 	N 	0.98333	0.13887	0.95485	-0.152
Mof_S 	S 	0.42962	0.15998	0.91434	-0.06
Mof_S 	S 	0.18854	0.05264	0.79858	-0.062
Mof_C 	C 	0.41596	0.14316	0.90166	0.097
Mof_C 	C 	0.1445	0.28586	0.90218	0.033
Mof_H 	H 	0.1673	0.2869	0.8957	0.016
Mof_C 	C 	0.14242	0.25386	0.9101	-0.045
Mof_C 	C 	0.10887	0.25077	0.92147	0.007
Mof_H 	H 	0.1067	0.2287	0.9271	0.038
Mof_C 	C 	0.0796	0.2812	0.92394	-0.1
Mof_H 	H 	0.0563	0.2803	0.9323	0.066
Mof_C 	C 	0.08355	0.31273	0.91453	0.059
Mof_H 	H 	0.0626	0.3334	0.916	-0
Mof_C 	C 	0.33261	0.19585	0.88669	0.058
Mof_H 	H 	0.3543	0.1955	0.8853	-0.001
Mof_C 	C 	0.30278	0.22452	0.89102	-0.103
Mof_H 	H 	0.304	0.2444	0.8916	0.066
Mof_C 	C 	0.27102	0.2255	0.89458	0.014
Mof_H 	H 	0.25	0.2458	0.898	0.035
Mof_C 	C 	0.26932	0.1967	0.8932	-0.051
Mof_C 	C 	0.30082	0.16838	0.88754	0.036
Mof_H 	H 	0.3003	0.1487	0.8859	0.017
Mof_C 	C 	0.23561	0.19729	0.89521	0.138
Mof_C 	C 	0.17679	0.22263	0.90411	0.135
Mof_C 	C 	0.2065	0.1722	0.8912	0.133
Mof_C 	C 	0.20646	0.09452	0.86736	0.06
Mof_H 	H 	0.2059	0.0767	0.8627	0.001
Mof_C 	C 	0.238	0.0898	0.86872	-0.099
Mof_H 	H 	0.2588	0.0696	0.8646	0.066
Mof_C 	C 	0.23857	0.11547	0.87645	0.009
Mof_H 	H 	0.26	0.113	0.8776	0.038
Mof_C 	C 	0.20866	0.14372	0.88236	-0.048
Mof_C 	C 	0.1773	0.1474	0.87912	0.037
Mof_H 	H 	0.1565	0.1681	0.8819	0.014
Mof_C 	C 	0.07878	0.13454	0.83876	0.059
Mof_H 	H 	0.1012	0.132	0.8196	0
Mof_C 	C 	0.04791	0.14249	0.83271	-0.099
Mof_H 	H 	0.0488	0.147	0.8096	0.067
Mof_C 	C 	0.01615	0.14355	0.86145	0.01
Mof_H 	H 	0.995	0.1478	0.8586	0.037
Mof_C 	C 	0.01544	0.13838	0.89424	-0.055
Mof_C 	C 	0.04779	0.13165	0.89697	0.048
Mof_H 	H 	0.0476	0.1278	0.9196	0.009
Mof_C 	C 	0.98265	0.13873	0.92577	0.135
Mof_C 	C 	0.16987	0.07715	0.82373	0.108
Mof_N 	N 	0.13282	0.57078	0.89134	-0.263
Mof_N 	N 	0.09522	0.9082	0.84064	-0.266
Mof_N 	N 	0.3164	0.6649	0.90308	-0.223
Mof_N 	N 	0.16729	0.61583	0.88415	-0.223
Mof_N 	N 	0.17072	0.70232	0.88874	-0.151
Mof_N 	N 	0.2243	0.66732	0.90274	-0.153
Mof_N 	N 	0.19709	0.72843	0.89919	-0.153
Mof_N 	N 	0.12275	0.82873	0.87221	-0.229
Mof_N 	N 	0.13029	0.92141	0.87003	-0.229
Mof_N 	N 	0.13887	0.92295	0.95485	-0.152
Mof_S 	S 	0.15998	0.49606	0.91434	-0.06
Mof_S 	S 	0.05264	0.96024	0.79858	-0.062
Mof_C 	C 	0.14316	0.53922	0.90166	0.097
Mof_C 	C 	0.28586	0.66746	0.90218	0.033
Mof_H 	H 	0.2869	0.6501	0.8957	0.016
Mof_C 	C 	0.25386	0.69362	0.9101	-0.045
Mof_C 	C 	0.25077	0.71889	0.92147	0.007
Mof_H 	H 	0.2287	0.7375	0.9271	0.038
Mof_C 	C 	0.2812	0.71526	0.92394	-0.1
Mof_H 	H 	0.2803	0.7311	0.9323	0.066
Mof_C 	C 	0.31273	0.68919	0.91453	0.059
Mof_H 	H 	0.3334	0.688	0.916	-0
Mof_C 	C 	0.19585	0.58485	0.88669	0.058
Mof_H 	H 	0.1955	0.5649	0.8853	-0.001
Mof_C 	C 	0.22452	0.58168	0.89102	-0.103
Mof_H 	H 	0.2444	0.56	0.8916	0.066
Mof_C 	C 	0.2255	0.6089	0.89458	0.014
Mof_H 	H 	0.2458	0.6062	0.898	0.035
Mof_C 	C 	0.1967	0.64078	0.8932	-0.051
Mof_C 	C 	0.16838	0.64326	0.88754	0.036
Mof_H 	H 	0.1487	0.6651	0.8859	0.017
Mof_C 	C 	0.19729	0.67189	0.89521	0.138
Mof_C 	C 	0.22263	0.69647	0.90411	0.135
Mof_C 	C 	0.1722	0.7301	0.8912	0.133
Mof_C 	C 	0.09452	0.83166	0.86736	0.06
Mof_H 	H 	0.0767	0.8547	0.8627	0.001
Mof_C 	C 	0.0898	0.80348	0.86872	-0.099
Mof_H 	H 	0.0696	0.807	0.8646	0.066
Mof_C 	C 	0.11547	0.76951	0.87645	0.009
Mof_H 	H 	0.113	0.7494	0.8776	0.038
Mof_C 	C 	0.14372	0.76526	0.88236	-0.048
Mof_C 	C 	0.1474	0.79618	0.87912	0.037
Mof_H 	H 	0.1681	0.7935	0.8819	0.014
Mof_C 	C 	0.13454	0.94792	0.83876	0.059
Mof_H 	H 	0.132	0.9472	0.8196	0
Mof_C 	C 	0.14249	0.97689	0.83271	-0.099
Mof_H 	H 	0.147	0.9946	0.8096	0.067
Mof_C 	C 	0.14355	0.97885	0.86145	0.01
Mof_H 	H 	0.1478	0.9986	0.8586	0.037
Mof_C 	C 	0.13838	0.95194	0.89424	-0.055
Mof_C 	C 	0.13165	0.92359	0.89697	0.048
Mof_H 	H 	0.1278	0.905	0.9196	0.009
Mof_C 	C 	0.13873	0.95285	0.92577	0.135
Mof_C 	C 	0.07715	0.92925	0.82373	0.108
Mof_N 	N 	0.40506	0.89134	0.57078	-0.263
Mof_N 	N 	0.15594	0.84064	0.9082	-0.266
Mof_N 	N 	0.11562	0.90308	0.6649	-0.223
Mof_N 	N 	0.33273	0.88415	0.61583	-0.223
Mof_N 	N 	0.23822	0.88874	0.70232	-0.151
Mof_N 	N 	0.20564	0.90274	0.66732	-0.153
Mof_N 	N 	0.17529	0.89919	0.72843	-0.153
Mof_N 	N 	0.17631	0.87221	0.82873	-0.229
Mof_N 	N 	0.07827	0.87003	0.92141	-0.229
Mof_N 	N 	0.98333	0.95485	0.92295	-0.152
Mof_S 	S 	0.42962	0.91434	0.49606	-0.06
Mof_S 	S 	0.18854	0.79858	0.96024	-0.062
Mof_C 	C 	0.41596	0.90166	0.53922	0.097
Mof_C 	C 	0.1445	0.90218	0.66746	0.033
Mof_H 	H 	0.1673	0.8957	0.6501	0.016
Mof_C 	C 	0.14242	0.9101	0.69362	-0.045
Mof_C 	C 	0.10887	0.92147	0.71889	0.007
Mof_H 	H 	0.1067	0.9271	0.7375	0.038
Mof_C 	C 	0.0796	0.92394	0.71526	-0.1
Mof_H 	H 	0.0563	0.9323	0.7311	0.066
Mof_C 	C 	0.08355	0.91453	0.68919	0.059
Mof_H 	H 	0.0626	0.916	0.688	-0
Mof_C 	C 	0.33261	0.88669	0.58485	0.058
Mof_H 	H 	0.3543	0.8853	0.5649	-0.001
Mof_C 	C 	0.30278	0.89102	0.58168	-0.103
Mof_H 	H 	0.304	0.8916	0.56	0.066
Mof_C 	C 	0.27102	0.89458	0.6089	0.014
Mof_H 	H 	0.25	0.898	0.6062	0.035
Mof_C 	C 	0.26932	0.8932	0.64078	-0.051
Mof_C 	C 	0.30082	0.88754	0.64326	0.036
Mof_H 	H 	0.3003	0.8859	0.6651	0.017
Mof_C 	C 	0.23561	0.89521	0.67189	0.138
Mof_C 	C 	0.17679	0.90411	0.69647	0.135
Mof_C 	C 	0.2065	0.8912	0.7301	0.133
Mof_C 	C 	0.20646	0.86736	0.83166	0.06
Mof_H 	H 	0.2059	0.8627	0.8547	0.001
Mof_C 	C 	0.238	0.86872	0.80348	-0.099
Mof_H 	H 	0.2588	0.8646	0.807	0.066
Mof_C 	C 	0.23857	0.87645	0.76951	0.009
Mof_H 	H 	0.26	0.8776	0.7494	0.038
Mof_C 	C 	0.20866	0.88236	0.76526	-0.048
Mof_C 	C 	0.1773	0.87912	0.79618	0.037
Mof_H 	H 	0.1565	0.8819	0.7935	0.014
Mof_C 	C 	0.07878	0.83876	0.94792	0.059
Mof_H 	H 	0.1012	0.8196	0.9472	0
Mof_C 	C 	0.04791	0.83271	0.97689	-0.099
Mof_H 	H 	0.0488	0.8096	0.9946	0.067
Mof_C 	C 	0.01615	0.86145	0.97885	0.01
Mof_H 	H 	0.995	0.8586	0.9986	0.037
Mof_C 	C 	0.01544	0.89424	0.95194	-0.055
Mof_C 	C 	0.04779	0.89697	0.92359	0.048
Mof_H 	H 	0.0476	0.9196	0.905	0.009
Mof_C 	C 	0.98265	0.92577	0.95285	0.135
Mof_C 	C 	0.16987	0.82373	0.92925	0.108
Mof_N 	N 	0.57078	0.13282	0.40506	-0.263
Mof_N 	N 	0.9082	0.09522	0.15594	-0.266
Mof_N 	N 	0.6649	0.3164	0.11562	-0.223
Mof_N 	N 	0.61583	0.16729	0.33273	-0.223
Mof_N 	N 	0.70232	0.17072	0.23822	-0.151
Mof_N 	N 	0.66732	0.2243	0.20564	-0.153
Mof_N 	N 	0.72843	0.19709	0.17529	-0.153
Mof_N 	N 	0.82873	0.12275	0.17631	-0.229
Mof_N 	N 	0.92141	0.13029	0.07827	-0.229
Mof_N 	N 	0.92295	0.13887	0.98333	-0.152
Mof_S 	S 	0.49606	0.15998	0.42962	-0.06
Mof_S 	S 	0.96024	0.05264	0.18854	-0.062
Mof_C 	C 	0.53922	0.14316	0.41596	0.097
Mof_C 	C 	0.66746	0.28586	0.1445	0.033
Mof_H 	H 	0.6501	0.2869	0.1673	0.016
Mof_C 	C 	0.69362	0.25386	0.14242	-0.045
Mof_C 	C 	0.71889	0.25077	0.10887	0.007
Mof_H 	H 	0.7375	0.2287	0.1067	0.038
Mof_C 	C 	0.71526	0.2812	0.0796	-0.1
Mof_H 	H 	0.7311	0.2803	0.0563	0.066
Mof_C 	C 	0.68919	0.31273	0.08355	0.059
Mof_H 	H 	0.688	0.3334	0.0626	-0
Mof_C 	C 	0.58485	0.19585	0.33261	0.058
Mof_H 	H 	0.5649	0.1955	0.3543	-0.001
Mof_C 	C 	0.58168	0.22452	0.30278	-0.103
Mof_H 	H 	0.56	0.2444	0.304	0.066
Mof_C 	C 	0.6089	0.2255	0.27102	0.014
Mof_H 	H 	0.6062	0.2458	0.25	0.035
Mof_C 	C 	0.64078	0.1967	0.26932	-0.051
Mof_C 	C 	0.64326	0.16838	0.30082	0.036
Mof_H 	H 	0.6651	0.1487	0.3003	0.017
Mof_C 	C 	0.67189	0.19729	0.23561	0.138
Mof_C 	C 	0.69647	0.22263	0.17679	0.135
Mof_C 	C 	0.7301	0.1722	0.2065	0.133
Mof_C 	C 	0.83166	0.09452	0.20646	0.06
Mof_H 	H 	0.8547	0.0767	0.2059	0.001
Mof_C 	C 	0.80348	0.0898	0.238	-0.099
Mof_H 	H 	0.807	0.0696	0.2588	0.066
Mof_C 	C 	0.76951	0.11547	0.23857	0.009
Mof_H 	H 	0.7494	0.113	0.26	0.038
Mof_C 	C 	0.76526	0.14372	0.20866	-0.048
Mof_C 	C 	0.79618	0.1474	0.1773	0.037
Mof_H 	H 	0.7935	0.1681	0.1565	0.014
Mof_C 	C 	0.94792	0.13454	0.07878	0.059
Mof_H 	H 	0.9472	0.132	0.1012	0
Mof_C 	C 	0.97689	0.14249	0.04791	-0.099
Mof_H 	H 	0.9946	0.147	0.0488	0.067
Mof_C 	C 	0.97885	0.14355	0.01615	0.01
Mof_H 	H 	0.9986	0.1478	0.995	0.037
Mof_C 	C 	0.95194	0.13838	0.01544	-0.055
Mof_C 	C 	0.92359	0.13165	0.04779	0.048
Mof_H 	H 	0.905	0.1278	0.0476	0.009
Mof_C 	C 	0.95285	0.13873	0.98265	0.135
Mof_C 	C 	0.92925	0.07715	0.16987	0.108
Mof_N 	N 	0.89134	0.40506	0.13282	-0.263
Mof_N 	N 	0.84064	0.15594	0.09522	-0.266
Mof_N 	N 	0.90308	0.11562	0.3164	-0.223
Mof_N 	N 	0.88415	0.33273	0.16729	-0.223
Mof_N 	N 	0.88874	0.23822	0.17072	-0.151
Mof_N 	N 	0.90274	0.20564	0.2243	-0.153
Mof_N 	N 	0.89919	0.17529	0.19709	-0.153
Mof_N 	N 	0.87221	0.17631	0.12275	-0.229
Mof_N 	N 	0.87003	0.07827	0.13029	-0.229
Mof_N 	N 	0.95485	0.98333	0.13887	-0.152
Mof_S 	S 	0.91434	0.42962	0.15998	-0.06
Mof_S 	S 	0.79858	0.18854	0.05264	-0.062
Mof_C 	C 	0.90166	0.41596	0.14316	0.097
Mof_C 	C 	0.90218	0.1445	0.28586	0.033
Mof_H 	H 	0.8957	0.1673	0.2869	0.016
Mof_C 	C 	0.9101	0.14242	0.25386	-0.045
Mof_C 	C 	0.92147	0.10887	0.25077	0.007
Mof_H 	H 	0.9271	0.1067	0.2287	0.038
Mof_C 	C 	0.92394	0.0796	0.2812	-0.1
Mof_H 	H 	0.9323	0.0563	0.2803	0.066
Mof_C 	C 	0.91453	0.08355	0.31273	0.059
Mof_H 	H 	0.916	0.0626	0.3334	-0
Mof_C 	C 	0.88669	0.33261	0.19585	0.058
Mof_H 	H 	0.8853	0.3543	0.1955	-0.001
Mof_C 	C 	0.89102	0.30278	0.22452	-0.103
Mof_H 	H 	0.8916	0.304	0.2444	0.066
Mof_C 	C 	0.89458	0.27102	0.2255	0.014
Mof_H 	H 	0.898	0.25	0.2458	0.035
Mof_C 	C 	0.8932	0.26932	0.1967	-0.051
Mof_C 	C 	0.88754	0.30082	0.16838	0.036
Mof_H 	H 	0.8859	0.3003	0.1487	0.017
Mof_C 	C 	0.89521	0.23561	0.19729	0.138
Mof_C 	C 	0.90411	0.17679	0.22263	0.135
Mof_C 	C 	0.8912	0.2065	0.1722	0.133
Mof_C 	C 	0.86736	0.20646	0.09452	0.06
Mof_H 	H 	0.8627	0.2059	0.0767	0.001
Mof_C 	C 	0.86872	0.238	0.0898	-0.099
Mof_H 	H 	0.8646	0.2588	0.0696	0.066
Mof_C 	C 	0.87645	0.23857	0.11547	0.009
Mof_H 	H 	0.8776	0.26	0.113	0.038
Mof_C 	C 	0.88236	0.20866	0.14372	-0.048
Mof_C 	C 	0.87912	0.1773	0.1474	0.037
Mof_H 	H 	0.8819	0.1565	0.1681	0.014
Mof_C 	C 	0.83876	0.07878	0.13454	0.059
Mof_H 	H 	0.8196	0.1012	0.132	0
Mof_C 	C 	0.83271	0.04791	0.14249	-0.099
Mof_H 	H 	0.8096	0.0488	0.147	0.067
Mof_C 	C 	0.86145	0.01615	0.14355	0.01
Mof_H 	H 	0.8586	0.995	0.1478	0.037
Mof_C 	C 	0.89424	0.01544	0.13838	-0.055
Mof_C 	C 	0.89697	0.04779	0.13165	0.048
Mof_H 	H 	0.9196	0.0476	0.1278	0.009
Mof_C 	C 	0.92577	0.98265	0.13873	0.135
Mof_C 	C 	0.82373	0.16987	0.07715	0.108
Mof_N 	N 	0.89134	0.13282	0.57078	-0.263
Mof_N 	N 	0.84064	0.09522	0.9082	-0.266
Mof_N 	N 	0.90308	0.3164	0.6649	-0.223
Mof_N 	N 	0.88415	0.16729	0.61583	-0.223
Mof_N 	N 	0.88874	0.17072	0.70232	-0.151
Mof_N 	N 	0.90274	0.2243	0.66732	-0.153
Mof_N 	N 	0.89919	0.19709	0.72843	-0.153
Mof_N 	N 	0.87221	0.12275	0.82873	-0.229
Mof_N 	N 	0.87003	0.13029	0.92141	-0.229
Mof_N 	N 	0.95485	0.13887	0.92295	-0.152
Mof_S 	S 	0.91434	0.15998	0.49606	-0.06
Mof_S 	S 	0.79858	0.05264	0.96024	-0.062
Mof_C 	C 	0.90166	0.14316	0.53922	0.097
Mof_C 	C 	0.90218	0.28586	0.66746	0.033
Mof_H 	H 	0.8957	0.2869	0.6501	0.016
Mof_C 	C 	0.9101	0.25386	0.69362	-0.045
Mof_C 	C 	0.92147	0.25077	0.71889	0.007
Mof_H 	H 	0.9271	0.2287	0.7375	0.038
Mof_C 	C 	0.92394	0.2812	0.71526	-0.1
Mof_H 	H 	0.9323	0.2803	0.7311	0.066
Mof_C 	C 	0.91453	0.31273	0.68919	0.059
Mof_H 	H 	0.916	0.3334	0.688	-0
Mof_C 	C 	0.88669	0.19585	0.58485	0.058
Mof_H 	H 	0.8853	0.1955	0.5649	-0.001
Mof_C 	C 	0.89102	0.22452	0.58168	-0.103
Mof_H 	H 	0.8916	0.2444	0.56	0.066
Mof_C 	C 	0.89458	0.2255	0.6089	0.014
Mof_H 	H 	0.898	0.2458	0.6062	0.035
Mof_C 	C 	0.8932	0.1967	0.64078	-0.051
Mof_C 	C 	0.88754	0.16838	0.64326	0.036
Mof_H 	H 	0.8859	0.1487	0.6651	0.017
Mof_C 	C 	0.89521	0.19729	0.67189	0.138
Mof_C 	C 	0.90411	0.22263	0.69647	0.135
Mof_C 	C 	0.8912	0.1722	0.7301	0.133
Mof_C 	C 	0.86736	0.09452	0.83166	0.06
Mof_H 	H 	0.8627	0.0767	0.8547	0.001
Mof_C 	C 	0.86872	0.0898	0.80348	-0.099
Mof_H 	H 	0.8646	0.0696	0.807	0.066
Mof_C 	C 	0.87645	0.11547	0.76951	0.009
Mof_H 	H 	0.8776	0.113	0.7494	0.038
Mof_C 	C 	0.88236	0.14372	0.76526	-0.048
Mof_C 	C 	0.87912	0.1474	0.79618	0.037
Mof_H 	H 	0.8819	0.1681	0.7935	0.014
Mof_C 	C 	0.83876	0.13454	0.94792	0.059
Mof_H 	H 	0.8196	0.132	0.9472	0
Mof_C 	C 	0.83271	0.14249	0.97689	-0.099
Mof_H 	H 	0.8096	0.147	0.9946	0.067
Mof_C 	C 	0.86145	0.14355	0.97885	0.01
Mof_H 	H 	0.8586	0.1478	0.9986	0.037
Mof_C 	C 	0.89424	0.13838	0.95194	-0.055
Mof_C 	C 	0.89697	0.13165	0.92359	0.048
Mof_H 	H 	0.9196	0.1278	0.905	0.009
Mof_C 	C 	0.92577	0.13873	0.95285	0.135
Mof_C 	C 	0.82373	0.07715	0.92925	0.108
Mof_N 	N 	0.57078	0.40506	0.89134	-0.263
Mof_N 	N 	0.9082	0.15594	0.84064	-0.266
Mof_N 	N 	0.6649	0.11562	0.90308	-0.223
Mof_N 	N 	0.61583	0.33273	0.88415	-0.223
Mof_N 	N 	0.70232	0.23822	0.88874	-0.151
Mof_N 	N 	0.66732	0.20564	0.90274	-0.153
Mof_N 	N 	0.72843	0.17529	0.89919	-0.153
Mof_N 	N 	0.82873	0.17631	0.87221	-0.229
Mof_N 	N 	0.92141	0.07827	0.87003	-0.229
Mof_N 	N 	0.92295	0.98333	0.95485	-0.152
Mof_S 	S 	0.49606	0.42962	0.91434	-0.06
Mof_S 	S 	0.96024	0.18854	0.79858	-0.062
Mof_C 	C 	0.53922	0.41596	0.90166	0.097
Mof_C 	C 	0.66746	0.1445	0.90218	0.033
Mof_H 	H 	0.6501	0.1673	0.8957	0.016
Mof_C 	C 	0.69362	0.14242	0.9101	-0.045
Mof_C 	C 	0.71889	0.10887	0.92147	0.007
Mof_H 	H 	0.7375	0.1067	0.9271	0.038
Mof_C 	C 	0.71526	0.0796	0.92394	-0.1
Mof_H 	H 	0.7311	0.0563	0.9323	0.066
Mof_C 	C 	0.68919	0.08355	0.91453	0.059
Mof_H 	H 	0.688	0.0626	0.916	-0
Mof_C 	C 	0.58485	0.33261	0.88669	0.058
Mof_H 	H 	0.5649	0.3543	0.8853	-0.001
Mof_C 	C 	0.58168	0.30278	0.89102	-0.103
Mof_H 	H 	0.56	0.304	0.8916	0.066
Mof_C 	C 	0.6089	0.27102	0.89458	0.014
Mof_H 	H 	0.6062	0.25	0.898	0.035
Mof_C 	C 	0.64078	0.26932	0.8932	-0.051
Mof_C 	C 	0.64326	0.30082	0.88754	0.036
Mof_H 	H 	0.6651	0.3003	0.8859	0.017
Mof_C 	C 	0.67189	0.23561	0.89521	0.138
Mof_C 	C 	0.69647	0.17679	0.90411	0.135
Mof_C 	C 	0.7301	0.2065	0.8912	0.133
Mof_C 	C 	0.83166	0.20646	0.86736	0.06
Mof_H 	H 	0.8547	0.2059	0.8627	0.001
Mof_C 	C 	0.80348	0.238	0.86872	-0.099
Mof_H 	H 	0.807	0.2588	0.8646	0.066
Mof_C 	C 	0.76951	0.23857	0.87645	0.009
Mof_H 	H 	0.7494	0.26	0.8776	0.038
Mof_C 	C 	0.76526	0.20866	0.88236	-0.048
Mof_C 	C 	0.79618	0.1773	0.87912	0.037
Mof_H 	H 	0.7935	0.1565	0.8819	0.014
Mof_C 	C 	0.94792	0.07878	0.83876	0.059
Mof_H 	H 	0.9472	0.1012	0.8196	0
Mof_C 	C 	0.97689	0.04791	0.83271	-0.099
Mof_H 	H 	0.9946	0.0488	0.8096	0.067
Mof_C 	C 	0.97885	0.01615	0.86145	0.01
Mof_H 	H 	0.9986	0.995	0.8586	0.037
Mof_C 	C 	0.95194	0.01544	0.89424	-0.055
Mof_C 	C 	0.92359	0.04779	0.89697	0.048
Mof_H 	H 	0.905	0.0476	0.9196	0.009
Mof_C 	C 	0.95285	0.98265	0.92577	0.135
Mof_C 	C 	0.92925	0.16987	0.82373	0.108
Mof_N 	N 	0.40506	0.57078	0.13282	-0.263
Mof_N 	N 	0.15594	0.9082	0.09522	-0.266
Mof_N 	N 	0.11562	0.6649	0.3164	-0.223
Mof_N 	N 	0.33273	0.61583	0.16729	-0.223
Mof_N 	N 	0.23822	0.70232	0.17072	-0.151
Mof_N 	N 	0.20564	0.66732	0.2243	-0.153
Mof_N 	N 	0.17529	0.72843	0.19709	-0.153
Mof_N 	N 	0.17631	0.82873	0.12275	-0.229
Mof_N 	N 	0.07827	0.92141	0.13029	-0.229
Mof_N 	N 	0.98333	0.92295	0.13887	-0.152
Mof_S 	S 	0.42962	0.49606	0.15998	-0.06
Mof_S 	S 	0.18854	0.96024	0.05264	-0.062
Mof_C 	C 	0.41596	0.53922	0.14316	0.097
Mof_C 	C 	0.1445	0.66746	0.28586	0.033
Mof_H 	H 	0.1673	0.6501	0.2869	0.016
Mof_C 	C 	0.14242	0.69362	0.25386	-0.045
Mof_C 	C 	0.10887	0.71889	0.25077	0.007
Mof_H 	H 	0.1067	0.7375	0.2287	0.038
Mof_C 	C 	0.0796	0.71526	0.2812	-0.1
Mof_H 	H 	0.0563	0.7311	0.2803	0.066
Mof_C 	C 	0.08355	0.68919	0.31273	0.059
Mof_H 	H 	0.0626	0.688	0.3334	-0
Mof_C 	C 	0.33261	0.58485	0.19585	0.058
Mof_H 	H 	0.3543	0.5649	0.1955	-0.001
Mof_C 	C 	0.30278	0.58168	0.22452	-0.103
Mof_H 	H 	0.304	0.56	0.2444	0.066
Mof_C 	C 	0.27102	0.6089	0.2255	0.014
Mof_H 	H 	0.25	0.6062	0.2458	0.035
Mof_C 	C 	0.26932	0.64078	0.1967	-0.051
Mof_C 	C 	0.30082	0.64326	0.16838	0.036
Mof_H 	H 	0.3003	0.6651	0.1487	0.017
Mof_C 	C 	0.23561	0.67189	0.19729	0.138
Mof_C 	C 	0.17679	0.69647	0.22263	0.135
Mof_C 	C 	0.2065	0.7301	0.1722	0.133
Mof_C 	C 	0.20646	0.83166	0.09452	0.06
Mof_H 	H 	0.2059	0.8547	0.0767	0.001
Mof_C 	C 	0.238	0.80348	0.0898	-0.099
Mof_H 	H 	0.2588	0.807	0.0696	0.066
Mof_C 	C 	0.23857	0.76951	0.11547	0.009
Mof_H 	H 	0.26	0.7494	0.113	0.038
Mof_C 	C 	0.20866	0.76526	0.14372	-0.048
Mof_C 	C 	0.1773	0.79618	0.1474	0.037
Mof_H 	H 	0.1565	0.7935	0.1681	0.014
Mof_C 	C 	0.07878	0.94792	0.13454	0.059
Mof_H 	H 	0.1012	0.9472	0.132	0
Mof_C 	C 	0.04791	0.97689	0.14249	-0.099
Mof_H 	H 	0.0488	0.9946	0.147	0.067
Mof_C 	C 	0.01615	0.97885	0.14355	0.01
Mof_H 	H 	0.995	0.9986	0.1478	0.037
Mof_C 	C 	0.01544	0.95194	0.13838	-0.055
Mof_C 	C 	0.04779	0.92359	0.13165	0.048
Mof_H 	H 	0.0476	0.905	0.1278	0.009
Mof_C 	C 	0.98265	0.95285	0.13873	0.135
Mof_C 	C 	0.16987	0.92925	0.07715	0.108
Mof_N 	N 	0.13282	0.89134	0.40506	-0.263
Mof_N 	N 	0.09522	0.84064	0.15594	-0.266
Mof_N 	N 	0.3164	0.90308	0.11562	-0.223
Mof_N 	N 	0.16729	0.88415	0.33273	-0.223
Mof_N 	N 	0.17072	0.88874	0.23822	-0.151
Mof_N 	N 	0.2243	0.90274	0.20564	-0.153
Mof_N 	N 	0.19709	0.89919	0.17529	-0.153
Mof_N 	N 	0.12275	0.87221	0.17631	-0.229
Mof_N 	N 	0.13029	0.87003	0.07827	-0.229
Mof_N 	N 	0.13887	0.95485	0.98333	-0.152
Mof_S 	S 	0.15998	0.91434	0.42962	-0.06
Mof_S 	S 	0.05264	0.79858	0.18854	-0.062
Mof_C 	C 	0.14316	0.90166	0.41596	0.097
Mof_C 	C 	0.28586	0.90218	0.1445	0.033
Mof_H 	H 	0.2869	0.8957	0.1673	0.016
Mof_C 	C 	0.25386	0.9101	0.14242	-0.045
Mof_C 	C 	0.25077	0.92147	0.10887	0.007
Mof_H 	H 	0.2287	0.9271	0.1067	0.038
Mof_C 	C 	0.2812	0.92394	0.0796	-0.1
Mof_H 	H 	0.2803	0.9323	0.0563	0.066
Mof_C 	C 	0.31273	0.91453	0.08355	0.059
Mof_H 	H 	0.3334	0.916	0.0626	-0
Mof_C 	C 	0.19585	0.88669	0.33261	0.058
Mof_H 	H 	0.1955	0.8853	0.3543	-0.001
Mof_C 	C 	0.22452	0.89102	0.30278	-0.103
Mof_H 	H 	0.2444	0.8916	0.304	0.066
Mof_C 	C 	0.2255	0.89458	0.27102	0.014
Mof_H 	H 	0.2458	0.898	0.25	0.035
Mof_C 	C 	0.1967	0.8932	0.26932	-0.051
Mof_C 	C 	0.16838	0.88754	0.30082	0.036
Mof_H 	H 	0.1487	0.8859	0.3003	0.017
Mof_C 	C 	0.19729	0.89521	0.23561	0.138
Mof_C 	C 	0.22263	0.90411	0.17679	0.135
Mof_C 	C 	0.1722	0.8912	0.2065	0.133
Mof_C 	C 	0.09452	0.86736	0.20646	0.06
Mof_H 	H 	0.0767	0.8627	0.2059	0.001
Mof_C 	C 	0.0898	0.86872	0.238	-0.099
Mof_H 	H 	0.0696	0.8646	0.2588	0.066
Mof_C 	C 	0.11547	0.87645	0.23857	0.009
Mof_H 	H 	0.113	0.8776	0.26	0.038
Mof_C 	C 	0.14372	0.88236	0.20866	-0.048
Mof_C 	C 	0.1474	0.87912	0.1773	0.037
Mof_H 	H 	0.1681	0.8819	0.1565	0.014
Mof_C 	C 	0.13454	0.83876	0.07878	0.059
Mof_H 	H 	0.132	0.8196	0.1012	0
Mof_C 	C 	0.14249	0.83271	0.04791	-0.099
Mof_H 	H 	0.147	0.8096	0.0488	0.067
Mof_C 	C 	0.14355	0.86145	0.01615	0.01
Mof_H 	H 	0.1478	0.8586	0.995	0.037
Mof_C 	C 	0.13838	0.89424	0.01544	-0.055
Mof_C 	C 	0.13165	0.89697	0.04779	0.048
Mof_H 	H 	0.1278	0.9196	0.0476	0.009
Mof_C 	C 	0.13873	0.92577	0.98265	0.135
Mof_C 	C 	0.07715	0.82373	0.16987	0.108
Mof_N 	N 	0.67922	0.35866	0.84494	-0.263
Mof_N 	N 	0.3418	0.40936	0.09406	-0.266
Mof_N 	N 	0.5851	0.34692	0.13438	-0.223
Mof_N 	N 	0.63417	0.36585	0.91727	-0.223
Mof_N 	N 	0.54768	0.36126	0.01178	-0.151
Mof_N 	N 	0.58268	0.34726	0.04436	-0.153
Mof_N 	N 	0.52157	0.35081	0.07471	-0.153
Mof_N 	N 	0.42127	0.37779	0.07369	-0.229
Mof_N 	N 	0.32859	0.37997	0.17173	-0.229
Mof_N 	N 	0.32705	0.29515	0.26667	-0.152
Mof_S 	S 	0.75394	0.33566	0.82038	-0.06
Mof_S 	S 	0.28976	0.45142	0.06146	-0.062
Mof_C 	C 	0.71078	0.34834	0.83404	0.097
Mof_C 	C 	0.58254	0.34782	0.1055	0.033
Mof_H 	H 	0.5999	0.3543	0.0827	0.016
Mof_C 	C 	0.55638	0.3399	0.10758	-0.045
Mof_C 	C 	0.53111	0.32853	0.14113	0.007
Mof_H 	H 	0.5125	0.3229	0.1433	0.038
Mof_C 	C 	0.53474	0.32606	0.1704	-0.1
Mof_H 	H 	0.5189	0.3177	0.1937	0.066
Mof_C 	C 	0.56081	0.33547	0.16645	0.059
Mof_H 	H 	0.562	0.334	0.1874	-0
Mof_C 	C 	0.66515	0.36331	0.91739	0.058
Mof_H 	H 	0.6851	0.3647	0.8957	-0.001
Mof_C 	C 	0.66832	0.35898	0.94722	-0.103
Mof_H 	H 	0.69	0.3584	0.946	0.066
Mof_C 	C 	0.6411	0.35542	0.97898	0.014
Mof_H 	H 	0.6438	0.352	-0	0.035
Mof_C 	C 	0.60922	0.3568	0.98068	-0.051
Mof_C 	C 	0.60674	0.36246	0.94918	0.036
Mof_H 	H 	0.5849	0.3641	0.9497	0.017
Mof_C 	C 	0.57811	0.35479	0.01439	0.138
Mof_C 	C 	0.55353	0.34589	0.07321	0.135
Mof_C 	C 	0.5199	0.3588	0.0435	0.133
Mof_C 	C 	0.41834	0.38264	0.04354	0.06
Mof_H 	H 	0.3953	0.3873	0.0441	0.001
Mof_C 	C 	0.44652	0.38128	0.012	-0.099
Mof_H 	H 	0.443	0.3854	0.9912	0.066
Mof_C 	C 	0.48049	0.37355	0.01143	0.009
Mof_H 	H 	0.5006	0.3724	0.99	0.038
Mof_C 	C 	0.48474	0.36764	0.04134	-0.048
Mof_C 	C 	0.45382	0.37088	0.0727	0.037
Mof_H 	H 	0.4565	0.3681	0.0935	0.014
Mof_C 	C 	0.30208	0.41124	0.17122	0.059
Mof_H 	H 	0.3028	0.4304	0.1488	0
Mof_C 	C 	0.27311	0.41729	0.20209	-0.099
Mof_H 	H 	0.2554	0.4404	0.2012	0.067
Mof_C 	C 	0.27115	0.38855	0.23385	0.01
Mof_H 	H 	0.2514	0.3914	0.255	0.037
Mof_C 	C 	0.29806	0.35576	0.23456	-0.055
Mof_C 	C 	0.32641	0.35303	0.20221	0.048
Mof_H 	H 	0.345	0.3304	0.2024	0.009
Mof_C 	C 	0.29715	0.32423	0.26735	0.135
Mof_C 	C 	0.32075	0.42627	0.08013	0.108
Mof_N 	N 	0.35866	0.67922	0.11718	-0.263
Mof_N 	N 	0.40936	0.3418	0.15478	-0.266
Mof_N 	N 	0.34692	0.5851	0.9336	-0.223
Mof_N 	N 	0.36585	0.63417	0.08271	-0.223
Mof_N 	N 	0.36126	0.54768	0.07928	-0.151
Mof_N 	N 	0.34726	0.58268	0.0257	-0.153
Mof_N 	N 	0.35081	0.52157	0.05291	-0.153
Mof_N 	N 	0.37779	0.42127	0.12725	-0.229
Mof_N 	N 	0.37997	0.32859	0.11971	-0.229
Mof_N 	N 	0.29515	0.32705	0.11113	-0.152
Mof_S 	S 	0.33566	0.75394	0.09002	-0.06
Mof_S 	S 	0.45142	0.28976	0.19736	-0.062
Mof_C 	C 	0.34834	0.71078	0.10684	0.097
Mof_C 	C 	0.34782	0.58254	0.96414	0.033
Mof_H 	H 	0.3543	0.5999	0.9631	0.016
Mof_C 	C 	0.3399	0.55638	0.99614	-0.045
Mof_C 	C 	0.32853	0.53111	0.99923	0.007
Mof_H 	H 	0.3229	0.5125	0.0213	0.038
Mof_C 	C 	0.32606	0.53474	0.9688	-0.1
Mof_H 	H 	0.3177	0.5189	0.9697	0.066
Mof_C 	C 	0.33547	0.56081	0.93727	0.059
Mof_H 	H 	0.334	0.562	0.9166	-0
Mof_C 	C 	0.36331	0.66515	0.05415	0.058
Mof_H 	H 	0.3647	0.6851	0.0545	-0.001
Mof_C 	C 	0.35898	0.66832	0.02548	-0.103
Mof_H 	H 	0.3584	0.69	0.0056	0.066
Mof_C 	C 	0.35542	0.6411	0.0245	0.014
Mof_H 	H 	0.352	0.6438	0.0042	0.035
Mof_C 	C 	0.3568	0.60922	0.0533	-0.051
Mof_C 	C 	0.36246	0.60674	0.08162	0.036
Mof_H 	H 	0.3641	0.5849	0.1013	0.017
Mof_C 	C 	0.35479	0.57811	0.05271	0.138
Mof_C 	C 	0.34589	0.55353	0.02737	0.135
Mof_C 	C 	0.3588	0.5199	0.0778	0.133
Mof_C 	C 	0.38264	0.41834	0.15548	0.06
Mof_H 	H 	0.3873	0.3953	0.1733	0.001
Mof_C 	C 	0.38128	0.44652	0.1602	-0.099
Mof_H 	H 	0.3854	0.443	0.1804	0.066
Mof_C 	C 	0.37355	0.48049	0.13453	0.009
Mof_H 	H 	0.3724	0.5006	0.137	0.038
Mof_C 	C 	0.36764	0.48474	0.10628	-0.048
Mof_C 	C 	0.37088	0.45382	0.1026	0.037
Mof_H 	H 	0.3681	0.4565	0.0819	0.014
Mof_C 	C 	0.41124	0.30208	0.11546	0.059
Mof_H 	H 	0.4304	0.3028	0.118	0
Mof_C 	C 	0.41729	0.27311	0.10751	-0.099
Mof_H 	H 	0.4404	0.2554	0.103	0.067
Mof_C 	C 	0.38855	0.27115	0.10645	0.01
Mof_H 	H 	0.3914	0.2514	0.1022	0.037
Mof_C 	C 	0.35576	0.29806	0.11162	-0.055
Mof_C 	C 	0.35303	0.32641	0.11835	0.048
Mof_H 	H 	0.3304	0.345	0.1222	0.009
Mof_C 	C 	0.32423	0.29715	0.11127	0.135
Mof_C 	C 	0.42627	0.32075	0.17285	0.108
Mof_N 	N 	0.11718	0.84494	0.35866	-0.263
Mof_N 	N 	0.15478	0.09406	0.40936	-0.266
Mof_N 	N 	0.9336	0.13438	0.34692	-0.223
Mof_N 	N 	0.08271	0.91727	0.36585	-0.223
Mof_N 	N 	0.07928	0.01178	0.36126	-0.151
Mof_N 	N 	0.0257	0.04436	0.34726	-0.153
Mof_N 	N 	0.05291	0.07471	0.35081	-0.153
Mof_N 	N 	0.12725	0.07369	0.37779	-0.229
Mof_N 	N 	0.11971	0.17173	0.37997	-0.229
Mof_N 	N 	0.11113	0.26667	0.29515	-0.152
Mof_S 	S 	0.09002	0.82038	0.33566	-0.06
Mof_S 	S 	0.19736	0.06146	0.45142	-0.062
Mof_C 	C 	0.10684	0.83404	0.34834	0.097
Mof_C 	C 	0.96414	0.1055	0.34782	0.033
Mof_H 	H 	0.9631	0.0827	0.3543	0.016
Mof_C 	C 	0.99614	0.10758	0.3399	-0.045
Mof_C 	C 	0.99923	0.14113	0.32853	0.007
Mof_H 	H 	0.0213	0.1433	0.3229	0.038
Mof_C 	C 	0.9688	0.1704	0.32606	-0.1
Mof_H 	H 	0.9697	0.1937	0.3177	0.066
Mof_C 	C 	0.93727	0.16645	0.33547	0.059
Mof_H 	H 	0.9166	0.1874	0.334	-0
Mof_C 	C 	0.05415	0.91739	0.36331	0.058
Mof_H 	H 	0.0545	0.8957	0.3647	-0.001
Mof_C 	C 	0.02548	0.94722	0.35898	-0.103
Mof_H 	H 	0.0056	0.946	0.3584	0.066
Mof_C 	C 	0.0245	0.97898	0.35542	0.014
Mof_H 	H 	0.0042	-1.36132e-17	0.352	0.035
Mof_C 	C 	0.0533	0.98068	0.3568	-0.051
Mof_C 	C 	0.08162	0.94918	0.36246	0.036
Mof_H 	H 	0.1013	0.9497	0.3641	0.017
Mof_C 	C 	0.05271	0.01439	0.35479	0.138
Mof_C 	C 	0.02737	0.07321	0.34589	0.135
Mof_C 	C 	0.0778	0.0435	0.3588	0.133
Mof_C 	C 	0.15548	0.04354	0.38264	0.06
Mof_H 	H 	0.1733	0.0441	0.3873	0.001
Mof_C 	C 	0.1602	0.012	0.38128	-0.099
Mof_H 	H 	0.1804	0.9912	0.3854	0.066
Mof_C 	C 	0.13453	0.01143	0.37355	0.009
Mof_H 	H 	0.137	0.99	0.3724	0.038
Mof_C 	C 	0.10628	0.04134	0.36764	-0.048
Mof_C 	C 	0.1026	0.0727	0.37088	0.037
Mof_H 	H 	0.0819	0.0935	0.3681	0.014
Mof_C 	C 	0.11546	0.17122	0.41124	0.059
Mof_H 	H 	0.118	0.1488	0.4304	0
Mof_C 	C 	0.10751	0.20209	0.41729	-0.099
Mof_H 	H 	0.103	0.2012	0.4404	0.067
Mof_C 	C 	0.10645	0.23385	0.38855	0.01
Mof_H 	H 	0.1022	0.255	0.3914	0.037
Mof_C 	C 	0.11162	0.23456	0.35576	-0.055
Mof_C 	C 	0.11835	0.20221	0.35303	0.048
Mof_H 	H 	0.1222	0.2024	0.3304	0.009
Mof_C 	C 	0.11127	0.26735	0.32423	0.135
Mof_C 	C 	0.17285	0.08013	0.42627	0.108
Mof_N 	N 	0.84494	0.11718	0.67922	-0.263
Mof_N 	N 	0.09406	0.15478	0.3418	-0.266
Mof_N 	N 	0.13438	0.9336	0.5851	-0.223
Mof_N 	N 	0.91727	0.08271	0.63417	-0.223
Mof_N 	N 	0.01178	0.07928	0.54768	-0.151
Mof_N 	N 	0.04436	0.0257	0.58268	-0.153
Mof_N 	N 	0.07471	0.05291	0.52157	-0.153
Mof_N 	N 	0.07369	0.12725	0.42127	-0.229
Mof_N 	N 	0.17173	0.11971	0.32859	-0.229
Mof_N 	N 	0.26667	0.11113	0.32705	-0.152
Mof_S 	S 	0.82038	0.09002	0.75394	-0.06
Mof_S 	S 	0.06146	0.19736	0.28976	-0.062
Mof_C 	C 	0.83404	0.10684	0.71078	0.097
Mof_C 	C 	0.1055	0.96414	0.58254	0.033
Mof_H 	H 	0.0827	0.9631	0.5999	0.016
Mof_C 	C 	0.10758	0.99614	0.55638	-0.045
Mof_C 	C 	0.14113	0.99923	0.53111	0.007
Mof_H 	H 	0.1433	0.0213	0.5125	0.038
Mof_C 	C 	0.1704	0.9688	0.53474	-0.1
Mof_H 	H 	0.1937	0.9697	0.5189	0.066
Mof_C 	C 	0.16645	0.93727	0.56081	0.059
Mof_H 	H 	0.1874	0.9166	0.562	-0
Mof_C 	C 	0.91739	0.05415	0.66515	0.058
Mof_H 	H 	0.8957	0.0545	0.6851	-0.001
Mof_C 	C 	0.94722	0.02548	0.66832	-0.103
Mof_H 	H 	0.946	0.0056	0.69	0.066
Mof_C 	C 	0.97898	0.0245	0.6411	0.014
Mof_H 	H 	-1.36132e-17	0.0042	0.6438	0.035
Mof_C 	C 	0.98068	0.0533	0.60922	-0.051
Mof_C 	C 	0.94918	0.08162	0.60674	0.036
Mof_H 	H 	0.9497	0.1013	0.5849	0.017
Mof_C 	C 	0.01439	0.05271	0.57811	0.138
Mof_C 	C 	0.07321	0.02737	0.55353	0.135
Mof_C 	C 	0.0435	0.0778	0.5199	0.133
Mof_C 	C 	0.04354	0.15548	0.41834	0.06
Mof_H 	H 	0.0441	0.1733	0.3953	0.001
Mof_C 	C 	0.012	0.1602	0.44652	-0.099
Mof_H 	H 	0.9912	0.1804	0.443	0.066
Mof_C 	C 	0.01143	0.13453	0.48049	0.009
Mof_H 	H 	0.99	0.137	0.5006	0.038
Mof_C 	C 	0.04134	0.10628	0.48474	-0.048
Mof_C 	C 	0.0727	0.1026	0.45382	0.037
Mof_H 	H 	0.0935	0.0819	0.4565	0.014
Mof_C 	C 	0.17122	0.11546	0.30208	0.059
Mof_H 	H 	0.1488	0.118	0.3028	0
Mof_C 	C 	0.20209	0.10751	0.27311	-0.099
Mof_H 	H 	0.2012	0.103	0.2554	0.067
Mof_C 	C 	0.23385	0.10645	0.27115	0.01
Mof_H 	H 	0.255	0.1022	0.2514	0.037
Mof_C 	C 	0.23456	0.11162	0.29806	-0.055
Mof_C 	C 	0.20221	0.11835	0.32641	0.048
Mof_H 	H 	0.2024	0.1222	0.345	0.009
Mof_C 	C 	0.26735	0.11127	0.29715	0.135
Mof_C 	C 	0.08013	0.17285	0.32075	0.108
Mof_N 	N 	0.11718	0.67922	0.84494	-0.263
Mof_N 	N 	0.15478	0.3418	0.09406	-0.266
Mof_N 	N 	0.9336	0.5851	0.13438	-0.223
Mof_N 	N 	0.08271	0.63417	0.91727	-0.223
Mof_N 	N 	0.07928	0.54768	0.01178	-0.151
Mof_N 	N 	0.0257	0.58268	0.04436	-0.153
Mof_N 	N 	0.05291	0.52157	0.07471	-0.153
Mof_N 	N 	0.12725	0.42127	0.07369	-0.229
Mof_N 	N 	0.11971	0.32859	0.17173	-0.229
Mof_N 	N 	0.11113	0.32705	0.26667	-0.152
Mof_S 	S 	0.09002	0.75394	0.82038	-0.06
Mof_S 	S 	0.19736	0.28976	0.06146	-0.062
Mof_C 	C 	0.10684	0.71078	0.83404	0.097
Mof_C 	C 	0.96414	0.58254	0.1055	0.033
Mof_H 	H 	0.9631	0.5999	0.0827	0.016
Mof_C 	C 	0.99614	0.55638	0.10758	-0.045
Mof_C 	C 	0.99923	0.53111	0.14113	0.007
Mof_H 	H 	0.0213	0.5125	0.1433	0.038
Mof_C 	C 	0.9688	0.53474	0.1704	-0.1
Mof_H 	H 	0.9697	0.5189	0.1937	0.066
Mof_C 	C 	0.93727	0.56081	0.16645	0.059
Mof_H 	H 	0.9166	0.562	0.1874	-0
Mof_C 	C 	0.05415	0.66515	0.91739	0.058
Mof_H 	H 	0.0545	0.6851	0.8957	-0.001
Mof_C 	C 	0.02548	0.66832	0.94722	-0.103
Mof_H 	H 	0.0056	0.69	0.946	0.066
Mof_C 	C 	0.0245	0.6411	0.97898	0.014
Mof_H 	H 	0.0042	0.6438	-0	0.035
Mof_C 	C 	0.0533	0.60922	0.98068	-0.051
Mof_C 	C 	0.08162	0.60674	0.94918	0.036
Mof_H 	H 	0.1013	0.5849	0.9497	0.017
Mof_C 	C 	0.05271	0.57811	0.01439	0.138
Mof_C 	C 	0.02737	0.55353	0.07321	0.135
Mof_C 	C 	0.0778	0.5199	0.0435	0.133
Mof_C 	C 	0.15548	0.41834	0.04354	0.06
Mof_H 	H 	0.1733	0.3953	0.0441	0.001
Mof_C 	C 	0.1602	0.44652	0.012	-0.099
Mof_H 	H 	0.1804	0.443	0.9912	0.066
Mof_C 	C 	0.13453	0.48049	0.01143	0.009
Mof_H 	H 	0.137	0.5006	0.99	0.038
Mof_C 	C 	0.10628	0.48474	0.04134	-0.048
Mof_C 	C 	0.1026	0.45382	0.0727	0.037
Mof_H 	H 	0.0819	0.4565	0.0935	0.014
Mof_C 	C 	0.11546	0.30208	0.17122	0.059
Mof_H 	H 	0.118	0.3028	0.1488	0
Mof_C 	C 	0.10751	0.27311	0.20209	-0.099
Mof_H 	H 	0.103	0.2554	0.2012	0.067
Mof_C 	C 	0.10645	0.27115	0.23385	0.01
Mof_H 	H 	0.1022	0.2514	0.255	0.037
Mof_C 	C 	0.11162	0.29806	0.23456	-0.055
Mof_C 	C 	0.11835	0.32641	0.20221	0.048
Mof_H 	H 	0.1222	0.345	0.2024	0.009
Mof_C 	C 	0.11127	0.29715	0.26735	0.135
Mof_C 	C 	0.17285	0.32075	0.08013	0.108
Mof_N 	N 	0.84494	0.35866	0.11718	-0.263
Mof_N 	N 	0.09406	0.40936	0.15478	-0.266
Mof_N 	N 	0.13438	0.34692	0.9336	-0.223
Mof_N 	N 	0.91727	0.36585	0.08271	-0.223
Mof_N 	N 	0.01178	0.36126	0.07928	-0.151
Mof_N 	N 	0.04436	0.34726	0.0257	-0.153
Mof_N 	N 	0.07471	0.35081	0.05291	-0.153
Mof_N 	N 	0.07369	0.37779	0.12725	-0.229
Mof_N 	N 	0.17173	0.37997	0.11971	-0.229
Mof_N 	N 	0.26667	0.29515	0.11113	-0.152
Mof_S 	S 	0.82038	0.33566	0.09002	-0.06
Mof_S 	S 	0.06146	0.45142	0.19736	-0.062
Mof_C 	C 	0.83404	0.34834	0.10684	0.097
Mof_C 	C 	0.1055	0.34782	0.96414	0.033
Mof_H 	H 	0.0827	0.3543	0.9631	0.016
Mof_C 	C 	0.10758	0.3399	0.99614	-0.045
Mof_C 	C 	0.14113	0.32853	0.99923	0.007
Mof_H 	H 	0.1433	0.3229	0.0213	0.038
Mof_C 	C 	0.1704	0.32606	0.9688	-0.1
Mof_H 	H 	0.1937	0.3177	0.9697	0.066
Mof_C 	C 	0.16645	0.33547	0.93727	0.059
Mof_H 	H 	0.1874	0.334	0.9166	-0
Mof_C 	C 	0.91739	0.36331	0.05415	0.058
Mof_H 	H 	0.8957	0.3647	0.0545	-0.001
Mof_C 	C 	0.94722	0.35898	0.02548	-0.103
Mof_H 	H 	0.946	0.3584	0.0056	0.066
Mof_C 	C 	0.97898	0.35542	0.0245	0.014
Mof_H 	H 	-4.24348e-17	0.352	0.0042	0.035
Mof_C 	C 	0.98068	0.3568	0.0533	-0.051
Mof_C 	C 	0.94918	0.36246	0.08162	0.036
Mof_H 	H 	0.9497	0.3641	0.1013	0.017
Mof_C 	C 	0.01439	0.35479	0.05271	0.138
Mof_C 	C 	0.07321	0.34589	0.02737	0.135
Mof_C 	C 	0.0435	0.3588	0.0778	0.133
Mof_C 	C 	0.04354	0.38264	0.15548	0.06
Mof_H 	H 	0.0441	0.3873	0.1733	0.001
Mof_C 	C 	0.012	0.38128	0.1602	-0.099
Mof_H 	H 	0.9912	0.3854	0.1804	0.066
Mof_C 	C 	0.01143	0.37355	0.13453	0.009
Mof_H 	H 	0.99	0.3724	0.137	0.038
Mof_C 	C 	0.04134	0.36764	0.10628	-0.048
Mof_C 	C 	0.0727	0.37088	0.1026	0.037
Mof_H 	H 	0.0935	0.3681	0.0819	0.014
Mof_C 	C 	0.17122	0.41124	0.11546	0.059
Mof_H 	H 	0.1488	0.4304	0.118	0
Mof_C 	C 	0.20209	0.41729	0.10751	-0.099
Mof_H 	H 	0.2012	0.4404	0.103	0.067
Mof_C 	C 	0.23385	0.38855	0.10645	0.01
Mof_H 	H 	0.255	0.3914	0.1022	0.037
Mof_C 	C 	0.23456	0.35576	0.11162	-0.055
Mof_C 	C 	0.20221	0.35303	0.11835	0.048
Mof_H 	H 	0.2024	0.3304	0.1222	0.009
Mof_C 	C 	0.26735	0.32423	0.11127	0.135
Mof_C 	C 	0.08013	0.42627	0.17285	0.108
Mof_N 	N 	0.67922	0.11718	0.35866	-0.263
Mof_N 	N 	0.3418	0.15478	0.40936	-0.266
Mof_N 	N 	0.5851	0.9336	0.34692	-0.223
Mof_N 	N 	0.63417	0.08271	0.36585	-0.223
Mof_N 	N 	0.54768	0.07928	0.36126	-0.151
Mof_N 	N 	0.58268	0.0257	0.34726	-0.153
Mof_N 	N 	0.52157	0.05291	0.35081	-0.153
Mof_N 	N 	0.42127	0.12725	0.37779	-0.229
Mof_N 	N 	0.32859	0.11971	0.37997	-0.229
Mof_N 	N 	0.32705	0.11113	0.29515	-0.152
Mof_S 	S 	0.75394	0.09002	0.33566	-0.06
Mof_S 	S 	0.28976	0.19736	0.45142	-0.062
Mof_C 	C 	0.71078	0.10684	0.34834	0.097
Mof_C 	C 	0.58254	0.96414	0.34782	0.033
Mof_H 	H 	0.5999	0.9631	0.3543	0.016
Mof_C 	C 	0.55638	0.99614	0.3399	-0.045
Mof_C 	C 	0.53111	0.99923	0.32853	0.007
Mof_H 	H 	0.5125	0.0213	0.3229	0.038
Mof_C 	C 	0.53474	0.9688	0.32606	-0.1
Mof_H 	H 	0.5189	0.9697	0.3177	0.066
Mof_C 	C 	0.56081	0.93727	0.33547	0.059
Mof_H 	H 	0.562	0.9166	0.334	-0
Mof_C 	C 	0.66515	0.05415	0.36331	0.058
Mof_H 	H 	0.6851	0.0545	0.3647	-0.001
Mof_C 	C 	0.66832	0.02548	0.35898	-0.103
Mof_H 	H 	0.69	0.0056	0.3584	0.066
Mof_C 	C 	0.6411	0.0245	0.35542	0.014
Mof_H 	H 	0.6438	0.0042	0.352	0.035
Mof_C 	C 	0.60922	0.0533	0.3568	-0.051
Mof_C 	C 	0.60674	0.08162	0.36246	0.036
Mof_H 	H 	0.5849	0.1013	0.3641	0.017
Mof_C 	C 	0.57811	0.05271	0.35479	0.138
Mof_C 	C 	0.55353	0.02737	0.34589	0.135
Mof_C 	C 	0.5199	0.0778	0.3588	0.133
Mof_C 	C 	0.41834	0.15548	0.38264	0.06
Mof_H 	H 	0.3953	0.1733	0.3873	0.001
Mof_C 	C 	0.44652	0.1602	0.38128	-0.099
Mof_H 	H 	0.443	0.1804	0.3854	0.066
Mof_C 	C 	0.48049	0.13453	0.37355	0.009
Mof_H 	H 	0.5006	0.137	0.3724	0.038
Mof_C 	C 	0.48474	0.10628	0.36764	-0.048
Mof_C 	C 	0.45382	0.1026	0.37088	0.037
Mof_H 	H 	0.4565	0.0819	0.3681	0.014
Mof_C 	C 	0.30208	0.11546	0.41124	0.059
Mof_H 	H 	0.3028	0.118	0.4304	0
Mof_C 	C 	0.27311	0.10751	0.41729	-0.099
Mof_H 	H 	0.2554	0.103	0.4404	0.067
Mof_C 	C 	0.27115	0.10645	0.38855	0.01
Mof_H 	H 	0.2514	0.1022	0.3914	0.037
Mof_C 	C 	0.29806	0.11162	0.35576	-0.055
Mof_C 	C 	0.32641	0.11835	0.35303	0.048
Mof_H 	H 	0.345	0.1222	0.3304	0.009
Mof_C 	C 	0.29715	0.11127	0.32423	0.135
Mof_C 	C 	0.32075	0.17285	0.42627	0.108
Mof_N 	N 	0.35866	0.84494	0.67922	-0.263
Mof_N 	N 	0.40936	0.09406	0.3418	-0.266
Mof_N 	N 	0.34692	0.13438	0.5851	-0.223
Mof_N 	N 	0.36585	0.91727	0.63417	-0.223
Mof_N 	N 	0.36126	0.01178	0.54768	-0.151
Mof_N 	N 	0.34726	0.04436	0.58268	-0.153
Mof_N 	N 	0.35081	0.07471	0.52157	-0.153
Mof_N 	N 	0.37779	0.07369	0.42127	-0.229
Mof_N 	N 	0.37997	0.17173	0.32859	-0.229
Mof_N 	N 	0.29515	0.26667	0.32705	-0.152
Mof_S 	S 	0.33566	0.82038	0.75394	-0.06
Mof_S 	S 	0.45142	0.06146	0.28976	-0.062
Mof_C 	C 	0.34834	0.83404	0.71078	0.097
Mof_C 	C 	0.34782	0.1055	0.58254	0.033
Mof_H 	H 	0.3543	0.0827	0.5999	0.016
Mof_C 	C 	0.3399	0.10758	0.55638	-0.045
Mof_C 	C 	0.32853	0.14113	0.53111	0.007
Mof_H 	H 	0.3229	0.1433	0.5125	0.038
Mof_C 	C 	0.32606	0.1704	0.53474	-0.1
Mof_H 	H 	0.3177	0.1937	0.5189	0.066
Mof_C 	C 	0.33547	0.16645	0.56081	0.059
Mof_H 	H 	0.334	0.1874	0.562	-0
Mof_C 	C 	0.36331	0.91739	0.66515	0.058
Mof_H 	H 	0.3647	0.8957	0.6851	-0.001
Mof_C 	C 	0.35898	0.94722	0.66832	-0.103
Mof_H 	H 	0.3584	0.946	0.69	0.066
Mof_C 	C 	0.35542	0.97898	0.6411	0.014
Mof_H 	H 	0.352	-2.72263e-17	0.6438	0.035
Mof_C 	C 	0.3568	0.98068	0.60922	-0.051
Mof_C 	C 	0.36246	0.94918	0.60674	0.036
Mof_H 	H 	0.3641	0.9497	0.5849	0.017
Mof_C 	C 	0.35479	0.01439	0.57811	0.138
Mof_C 	C 	0.34589	0.07321	0.55353	0.135
Mof_C 	C 	0.3588	0.0435	0.5199	0.133
Mof_C 	C 	0.38264	0.04354	0.41834	0.06
Mof_H 	H 	0.3873	0.0441	0.3953	0.001
Mof_C 	C 	0.38128	0.012	0.44652	-0.099
Mof_H 	H 	0.3854	0.9912	0.443	0.066
Mof_C 	C 	0.37355	0.01143	0.48049	0.009
Mof_H 	H 	0.3724	0.99	0.5006	0.038
Mof_C 	C 	0.36764	0.04134	0.48474	-0.048
Mof_C 	C 	0.37088	0.0727	0.45382	0.037
Mof_H 	H 	0.3681	0.0935	0.4565	0.014
Mof_C 	C 	0.41124	0.17122	0.30208	0.059
Mof_H 	H 	0.4304	0.1488	0.3028	0
Mof_C 	C 	0.41729	0.20209	0.27311	-0.099
Mof_H 	H 	0.4404	0.2012	0.2554	0.067
Mof_C 	C 	0.38855	0.23385	0.27115	0.01
Mof_H 	H 	0.3914	0.255	0.2514	0.037
Mof_C 	C 	0.35576	0.23456	0.29806	-0.055
Mof_C 	C 	0.35303	0.20221	0.32641	0.048
Mof_H 	H 	0.3304	0.2024	0.345	0.009
Mof_C 	C 	0.32423	0.26735	0.29715	0.135
Mof_C 	C 	0.42627	0.08013	0.32075	0.108
Mof_N 	N 	0.35866	0.11718	0.84494	-0.263
Mof_N 	N 	0.40936	0.15478	0.09406	-0.266
Mof_N 	N 	0.34692	0.9336	0.13438	-0.223
Mof_N 	N 	0.36585	0.08271	0.91727	-0.223
Mof_N 	N 	0.36126	0.07928	0.01178	-0.151
Mof_N 	N 	0.34726	0.0257	0.04436	-0.153
Mof_N 	N 	0.35081	0.05291	0.07471	-0.153
Mof_N 	N 	0.37779	0.12725	0.07369	-0.229
Mof_N 	N 	0.37997	0.11971	0.17173	-0.229
Mof_N 	N 	0.29515	0.11113	0.26667	-0.152
Mof_S 	S 	0.33566	0.09002	0.82038	-0.06
Mof_S 	S 	0.45142	0.19736	0.06146	-0.062
Mof_C 	C 	0.34834	0.10684	0.83404	0.097
Mof_C 	C 	0.34782	0.96414	0.1055	0.033
Mof_H 	H 	0.3543	0.9631	0.0827	0.016
Mof_C 	C 	0.3399	0.99614	0.10758	-0.045
Mof_C 	C 	0.32853	0.99923	0.14113	0.007
Mof_H 	H 	0.3229	0.0213	0.1433	0.038
Mof_C 	C 	0.32606	0.9688	0.1704	-0.1
Mof_H 	H 	0.3177	0.9697	0.1937	0.066
Mof_C 	C 	0.33547	0.93727	0.16645	0.059
Mof_H 	H 	0.334	0.9166	0.1874	-0
Mof_C 	C 	0.36331	0.05415	0.91739	0.058
Mof_H 	H 	0.3647	0.0545	0.8957	-0.001
Mof_C 	C 	0.35898	0.02548	0.94722	-0.103
Mof_H 	H 	0.3584	0.0056	0.946	0.066
Mof_C 	C 	0.35542	0.0245	0.97898	0.014
Mof_H 	H 	0.352	0.0042	-0	0.035
Mof_C 	C 	0.3568	0.0533	0.98068	-0.051
Mof_C 	C 	0.36246	0.08162	0.94918	0.036
Mof_H 	H 	0.3641	0.1013	0.9497	0.017
Mof_C 	C 	0.35479	0.05271	0.01439	0.138
Mof_C 	C 	0.34589	0.02737	0.07321	0.135
Mof_C 	C 	0.3588	0.0778	0.0435	0.133
Mof_C 	C 	0.38264	0.15548	0.04354	0.06
Mof_H 	H 	0.3873	0.1733	0.0441	0.001
Mof_C 	C 	0.38128	0.1602	0.012	-0.099
Mof_H 	H 	0.3854	0.1804	0.9912	0.066
Mof_C 	C 	0.37355	0.13453	0.01143	0.009
Mof_H 	H 	0.3724	0.137	0.99	0.038
Mof_C 	C 	0.36764	0.10628	0.04134	-0.048
Mof_C 	C 	0.37088	0.1026	0.0727	0.037
Mof_H 	H 	0.3681	0.0819	0.0935	0.014
Mof_C 	C 	0.41124	0.11546	0.17122	0.059
Mof_H 	H 	0.4304	0.118	0.1488	0
Mof_C 	C 	0.41729	0.10751	0.20209	-0.099
Mof_H 	H 	0.4404	0.103	0.2012	0.067
Mof_C 	C 	0.38855	0.10645	0.23385	0.01
Mof_H 	H 	0.3914	0.1022	0.255	0.037
Mof_C 	C 	0.35576	0.11162	0.23456	-0.055
Mof_C 	C 	0.35303	0.11835	0.20221	0.048
Mof_H 	H 	0.3304	0.1222	0.2024	0.009
Mof_C 	C 	0.32423	0.11127	0.26735	0.135
Mof_C 	C 	0.42627	0.17285	0.08013	0.108
Mof_N 	N 	0.67922	0.84494	0.11718	-0.263
Mof_N 	N 	0.3418	0.09406	0.15478	-0.266
Mof_N 	N 	0.5851	0.13438	0.9336	-0.223
Mof_N 	N 	0.63417	0.91727	0.08271	-0.223
Mof_N 	N 	0.54768	0.01178	0.07928	-0.151
Mof_N 	N 	0.58268	0.04436	0.0257	-0.153
Mof_N 	N 	0.52157	0.07471	0.05291	-0.153
Mof_N 	N 	0.42127	0.07369	0.12725	-0.229
Mof_N 	N 	0.32859	0.17173	0.11971	-0.229
Mof_N 	N 	0.32705	0.26667	0.11113	-0.152
Mof_S 	S 	0.75394	0.82038	0.09002	-0.06
Mof_S 	S 	0.28976	0.06146	0.19736	-0.062
Mof_C 	C 	0.71078	0.83404	0.10684	0.097
Mof_C 	C 	0.58254	0.1055	0.96414	0.033
Mof_H 	H 	0.5999	0.0827	0.9631	0.016
Mof_C 	C 	0.55638	0.10758	0.99614	-0.045
Mof_C 	C 	0.53111	0.14113	0.99923	0.007
Mof_H 	H 	0.5125	0.1433	0.0213	0.038
Mof_C 	C 	0.53474	0.1704	0.9688	-0.1
Mof_H 	H 	0.5189	0.1937	0.9697	0.066
Mof_C 	C 	0.56081	0.16645	0.93727	0.059
Mof_H 	H 	0.562	0.1874	0.9166	-0
Mof_C 	C 	0.66515	0.91739	0.05415	0.058
Mof_H 	H 	0.6851	0.8957	0.0545	-0.001
Mof_C 	C 	0.66832	0.94722	0.02548	-0.103
Mof_H 	H 	0.69	0.946	0.0056	0.066
Mof_C 	C 	0.6411	0.97898	0.0245	0.014
Mof_H 	H 	0.6438	0	0.0042	0.035
Mof_C 	C 	0.60922	0.98068	0.0533	-0.051
Mof_C 	C 	0.60674	0.94918	0.08162	0.036
Mof_H 	H 	0.5849	0.9497	0.1013	0.017
Mof_C 	C 	0.57811	0.01439	0.05271	0.138
Mof_C 	C 	0.55353	0.07321	0.02737	0.135
Mof_C 	C 	0.5199	0.0435	0.0778	0.133
Mof_C 	C 	0.41834	0.04354	0.15548	0.06
Mof_H 	H 	0.3953	0.0441	0.1733	0.001
Mof_C 	C 	0.44652	0.012	0.1602	-0.099
Mof_H 	H 	0.443	0.9912	0.1804	0.066
Mof_C 	C 	0.48049	0.01143	0.13453	0.009
Mof_H 	H 	0.5006	0.99	0.137	0.038
Mof_C 	C 	0.48474	0.04134	0.10628	-0.048
Mof_C 	C 	0.45382	0.0727	0.1026	0.037
Mof_H 	H 	0.4565	0.0935	0.0819	0.014
Mof_C 	C 	0.30208	0.17122	0.11546	0.059
Mof_H 	H 	0.3028	0.1488	0.118	0
Mof_C 	C 	0.27311	0.20209	0.10751	-0.099
Mof_H 	H 	0.2554	0.2012	0.103	0.067
Mof_C 	C 	0.27115	0.23385	0.10645	0.01
Mof_H 	H 	0.2514	0.255	0.1022	0.037
Mof_C 	C 	0.29806	0.23456	0.11162	-0.055
Mof_C 	C 	0.32641	0.20221	0.11835	0.048
Mof_H 	H 	0.345	0.2024	0.1222	0.009
Mof_C 	C 	0.29715	0.26735	0.11127	0.135
Mof_C 	C 	0.32075	0.08013	0.17285	0.108
Mof_N 	N 	0.84494	0.67922	0.35866	-0.263
Mof_N 	N 	0.09406	0.3418	0.40936	-0.266
Mof_N 	N 	0.13438	0.5851	0.34692	-0.223
Mof_N 	N 	0.91727	0.63417	0.36585	-0.223
Mof_N 	N 	0.01178	0.54768	0.36126	-0.151
Mof_N 	N 	0.04436	0.58268	0.34726	-0.153
Mof_N 	N 	0.07471	0.52157	0.35081	-0.153
Mof_N 	N 	0.07369	0.42127	0.37779	-0.229
Mof_N 	N 	0.17173	0.32859	0.37997	-0.229
Mof_N 	N 	0.26667	0.32705	0.29515	-0.152
Mof_S 	S 	0.82038	0.75394	0.33566	-0.06
Mof_S 	S 	0.06146	0.28976	0.45142	-0.062
Mof_C 	C 	0.83404	0.71078	0.34834	0.097
Mof_C 	C 	0.1055	0.58254	0.34782	0.033
Mof_H 	H 	0.0827	0.5999	0.3543	0.016
Mof_C 	C 	0.10758	0.55638	0.3399	-0.045
Mof_C 	C 	0.14113	0.53111	0.32853	0.007
Mof_H 	H 	0.1433	0.5125	0.3229	0.038
Mof_C 	C 	0.1704	0.53474	0.32606	-0.1
Mof_H 	H 	0.1937	0.5189	0.3177	0.066
Mof_C 	C 	0.16645	0.56081	0.33547	0.059
Mof_H 	H 	0.1874	0.562	0.334	-0
Mof_C 	C 	0.91739	0.66515	0.36331	0.058
Mof_H 	H 	0.8957	0.6851	0.3647	-0.001
Mof_C 	C 	0.94722	0.66832	0.35898	-0.103
Mof_H 	H 	0.946	0.69	0.3584	0.066
Mof_C 	C 	0.97898	0.6411	0.35542	0.014
Mof_H 	H 	-4.08395e-17	0.6438	0.352	0.035
Mof_C 	C 	0.98068	0.60922	0.3568	-0.051
Mof_C 	C 	0.94918	0.60674	0.36246	0.036
Mof_H 	H 	0.9497	0.5849	0.3641	0.017
Mof_C 	C 	0.01439	0.57811	0.35479	0.138
Mof_C 	C 	0.07321	0.55353	0.34589	0.135
Mof_C 	C 	0.0435	0.5199	0.3588	0.133
Mof_C 	C 	0.04354	0.41834	0.38264	0.06
Mof_H 	H 	0.0441	0.3953	0.3873	0.001
Mof_C 	C 	0.012	0.44652	0.38128	-0.099
Mof_H 	H 	0.9912	0.443	0.3854	0.066
Mof_C 	C 	0.01143	0.48049	0.37355	0.009
Mof_H 	H 	0.99	0.5006	0.3724	0.038
Mof_C 	C 	0.04134	0.48474	0.36764	-0.048
Mof_C 	C 	0.0727	0.45382	0.37088	0.037
Mof_H 	H 	0.0935	0.4565	0.3681	0.014
Mof_C 	C 	0.17122	0.30208	0.41124	0.059
Mof_H 	H 	0.1488	0.3028	0.4304	0
Mof_C 	C 	0.20209	0.27311	0.41729	-0.099
Mof_H 	H 	0.2012	0.2554	0.4404	0.067
Mof_C 	C 	0.23385	0.27115	0.38855	0.01
Mof_H 	H 	0.255	0.2514	0.3914	0.037
Mof_C 	C 	0.23456	0.29806	0.35576	-0.055
Mof_C 	C 	0.20221	0.32641	0.35303	0.048
Mof_H 	H 	0.2024	0.345	0.3304	0.009
Mof_C 	C 	0.26735	0.29715	0.32423	0.135
Mof_C 	C 	0.08013	0.32075	0.42627	0.108
Mof_N 	N 	0.11718	0.35866	0.67922	-0.263
Mof_N 	N 	0.15478	0.40936	0.3418	-0.266
Mof_N 	N 	0.9336	0.34692	0.5851	-0.223
Mof_N 	N 	0.08271	0.36585	0.63417	-0.223
Mof_N 	N 	0.07928	0.36126	0.54768	-0.151
Mof_N 	N 	0.0257	0.34726	0.58268	-0.153
Mof_N 	N 	0.05291	0.35081	0.52157	-0.153
Mof_N 	N 	0.12725	0.37779	0.42127	-0.229
Mof_N 	N 	0.11971	0.37997	0.32859	-0.229
Mof_N 	N 	0.11113	0.29515	0.32705	-0.152
Mof_S 	S 	0.09002	0.33566	0.75394	-0.06
Mof_S 	S 	0.19736	0.45142	0.28976	-0.062
Mof_C 	C 	0.10684	0.34834	0.71078	0.097
Mof_C 	C 	0.96414	0.34782	0.58254	0.033
Mof_H 	H 	0.9631	0.3543	0.5999	0.016
Mof_C 	C 	0.99614	0.3399	0.55638	-0.045
Mof_C 	C 	0.99923	0.32853	0.53111	0.007
Mof_H 	H 	0.0213	0.3229	0.5125	0.038
Mof_C 	C 	0.9688	0.32606	0.53474	-0.1
Mof_H 	H 	0.9697	0.3177	0.5189	0.066
Mof_C 	C 	0.93727	0.33547	0.56081	0.059
Mof_H 	H 	0.9166	0.334	0.562	-0
Mof_C 	C 	0.05415	0.36331	0.66515	0.058
Mof_H 	H 	0.0545	0.3647	0.6851	-0.001
Mof_C 	C 	0.02548	0.35898	0.66832	-0.103
Mof_H 	H 	0.0056	0.3584	0.69	0.066
Mof_C 	C 	0.0245	0.35542	0.6411	0.014
Mof_H 	H 	0.0042	0.352	0.6438	0.035
Mof_C 	C 	0.0533	0.3568	0.60922	-0.051
Mof_C 	C 	0.08162	0.36246	0.60674	0.036
Mof_H 	H 	0.1013	0.3641	0.5849	0.017
Mof_C 	C 	0.05271	0.35479	0.57811	0.138
Mof_C 	C 	0.02737	0.34589	0.55353	0.135
Mof_C 	C 	0.0778	0.3588	0.5199	0.133
Mof_C 	C 	0.15548	0.38264	0.41834	0.06
Mof_H 	H 	0.1733	0.3873	0.3953	0.001
Mof_C 	C 	0.1602	0.38128	0.44652	-0.099
Mof_H 	H 	0.1804	0.3854	0.443	0.066
Mof_C 	C 	0.13453	0.37355	0.48049	0.009
Mof_H 	H 	0.137	0.3724	0.5006	0.038
Mof_C 	C 	0.10628	0.36764	0.48474	-0.048
Mof_C 	C 	0.1026	0.37088	0.45382	0.037
Mof_H 	H 	0.0819	0.3681	0.4565	0.014
Mof_C 	C 	0.11546	0.41124	0.30208	0.059
Mof_H 	H 	0.118	0.4304	0.3028	0
Mof_C 	C 	0.10751	0.41729	0.27311	-0.099
Mof_H 	H 	0.103	0.4404	0.2554	0.067
Mof_C 	C 	0.10645	0.38855	0.27115	0.01
Mof_H 	H 	0.1022	0.3914	0.2514	0.037
Mof_C 	C 	0.11162	0.35576	0.29806	-0.055
Mof_C 	C 	0.11835	0.35303	0.32641	0.048
Mof_H 	H 	0.1222	0.3304	0.345	0.009
Mof_C 	C 	0.11127	0.32423	0.29715	0.135
Mof_C 	C 	0.17285	0.42627	0.32075	0.108
Mof_N 	N 	0.17922	0.85866	0.61718	-0.263
Mof_N 	N 	0.8418	0.90936	0.65478	-0.266
Mof_N 	N 	0.0851	0.84692	0.4336	-0.223
Mof_N 	N 	0.13417	0.86585	0.58271	-0.223
Mof_N 	N 	0.04768	0.86126	0.57928	-0.151
Mof_N 	N 	0.08268	0.84726	0.5257	-0.153
Mof_N 	N 	0.02157	0.85081	0.55291	-0.153
Mof_N 	N 	0.92127	0.87779	0.62725	-0.229
Mof_N 	N 	0.82859	0.87997	0.61971	-0.229
Mof_N 	N 	0.82705	0.79515	0.61113	-0.152
Mof_S 	S 	0.25394	0.83566	0.59002	-0.06
Mof_S 	S 	0.78976	0.95142	0.69736	-0.062
Mof_C 	C 	0.21078	0.84834	0.60684	0.097
Mof_C 	C 	0.08254	0.84782	0.46414	0.033
Mof_H 	H 	0.0999	0.8543	0.4631	0.016
Mof_C 	C 	0.05638	0.8399	0.49614	-0.045
Mof_C 	C 	0.03111	0.82853	0.49923	0.007
Mof_H 	H 	0.0125	0.8229	0.5213	0.038
Mof_C 	C 	0.03474	0.82606	0.4688	-0.1
Mof_H 	H 	0.0189	0.8177	0.4697	0.066
Mof_C 	C 	0.06081	0.83547	0.43727	0.059
Mof_H 	H 	0.062	0.834	0.4166	-0
Mof_C 	C 	0.16515	0.86331	0.55415	0.058
Mof_H 	H 	0.1851	0.8647	0.5545	-0.001
Mof_C 	C 	0.16832	0.85898	0.52548	-0.103
Mof_H 	H 	0.19	0.8584	0.5056	0.066
Mof_C 	C 	0.1411	0.85542	0.5245	0.014
Mof_H 	H 	0.1438	0.852	0.5042	0.035
Mof_C 	C 	0.10922	0.8568	0.5533	-0.051
Mof_C 	C 	0.10674	0.86246	0.58162	0.036
Mof_H 	H 	0.0849	0.8641	0.6013	0.017
Mof_C 	C 	0.07811	0.85479	0.55271	0.138
Mof_C 	C 	0.05353	0.84589	0.52737	0.135
Mof_C 	C 	0.0199	0.8588	0.5778	0.133
Mof_C 	C 	0.91834	0.88264	0.65548	0.06
Mof_H 	H 	0.8953	0.8873	0.6733	0.001
Mof_C 	C 	0.94652	0.88128	0.6602	-0.099
Mof_H 	H 	0.943	0.8854	0.6804	0.066
Mof_C 	C 	0.98049	0.87355	0.63453	0.009
Mof_H 	H 	0.0006	0.8724	0.637	0.038
Mof_C 	C 	0.98474	0.86764	0.60628	-0.048
Mof_C 	C 	0.95382	0.87088	0.6026	0.037
Mof_H 	H 	0.9565	0.8681	0.5819	0.014
Mof_C 	C 	0.80208	0.91124	0.61546	0.059
Mof_H 	H 	0.8028	0.9304	0.618	0
Mof_C 	C 	0.77311	0.91729	0.60751	-0.099
Mof_H 	H 	0.7554	0.9404	0.603	0.067
Mof_C 	C 	0.77115	0.88855	0.60645	0.01
Mof_H 	H 	0.7514	0.8914	0.6022	0.037
Mof_C 	C 	0.79806	0.85576	0.61162	-0.055
Mof_C 	C 	0.82641	0.85303	0.61835	0.048
Mof_H 	H 	0.845	0.8304	0.6222	0.009
Mof_C 	C 	0.79715	0.82423	0.61127	0.135
Mof_C 	C 	0.82075	0.92627	0.67285	0.108
Mof_N 	N 	0.85866	0.17922	0.34494	-0.263
Mof_N 	N 	0.90936	0.8418	0.59406	-0.266
Mof_N 	N 	0.84692	0.0851	0.63438	-0.223
Mof_N 	N 	0.86585	0.13417	0.41727	-0.223
Mof_N 	N 	0.86126	0.04768	0.51178	-0.151
Mof_N 	N 	0.84726	0.08268	0.54436	-0.153
Mof_N 	N 	0.85081	0.02157	0.57471	-0.153
Mof_N 	N 	0.87779	0.92127	0.57369	-0.229
Mof_N 	N 	0.87997	0.82859	0.67173	-0.229
Mof_N 	N 	0.79515	0.82705	0.76667	-0.152
Mof_S 	S 	0.83566	0.25394	0.32038	-0.06
Mof_S 	S 	0.95142	0.78976	0.56146	-0.062
Mof_C 	C 	0.84834	0.21078	0.33404	0.097
Mof_C 	C 	0.84782	0.08254	0.6055	0.033
Mof_H 	H 	0.8543	0.0999	0.5827	0.016
Mof_C 	C 	0.8399	0.05638	0.60758	-0.045
Mof_C 	C 	0.82853	0.03111	0.64113	0.007
Mof_H 	H 	0.8229	0.0125	0.6433	0.038
Mof_C 	C 	0.82606	0.03474	0.6704	-0.1
Mof_H 	H 	0.8177	0.0189	0.6937	0.066
Mof_C 	C 	0.83547	0.06081	0.66645	0.059
Mof_H 	H 	0.834	0.062	0.6874	-0
Mof_C 	C 	0.86331	0.16515	0.41739	0.058
Mof_H 	H 	0.8647	0.1851	0.3957	-0.001
Mof_C 	C 	0.85898	0.16832	0.44722	-0.103
Mof_H 	H 	0.8584	0.19	0.446	0.066
Mof_C 	C 	0.85542	0.1411	0.47898	0.014
Mof_H 	H 	0.852	0.1438	0.5	0.035
Mof_C 	C 	0.8568	0.10922	0.48068	-0.051
Mof_C 	C 	0.86246	0.10674	0.44918	0.036
Mof_H 	H 	0.8641	0.0849	0.4497	0.017
Mof_C 	C 	0.85479	0.07811	0.51439	0.138
Mof_C 	C 	0.84589	0.05353	0.57321	0.135
Mof_C 	C 	0.8588	0.0199	0.5435	0.133
Mof_C 	C 	0.88264	0.91834	0.54354	0.06
Mof_H 	H 	0.8873	0.8953	0.5441	0.001
Mof_C 	C 	0.88128	0.94652	0.512	-0.099
Mof_H 	H 	0.8854	0.943	0.4912	0.066
Mof_C 	C 	0.87355	0.98049	0.51143	0.009
Mof_H 	H 	0.8724	0.0006	0.49	0.038
Mof_C 	C 	0.86764	0.98474	0.54134	-0.048
Mof_C 	C 	0.87088	0.95382	0.5727	0.037
Mof_H 	H 	0.8681	0.9565	0.5935	0.014
Mof_C 	C 	0.91124	0.80208	0.67122	0.059
Mof_H 	H 	0.9304	0.8028	0.6488	0
Mof_C 	C 	0.91729	0.77311	0.70209	-0.099
Mof_H 	H 	0.9404	0.7554	0.7012	0.067
Mof_C 	C 	0.88855	0.77115	0.73385	0.01
Mof_H 	H 	0.8914	0.7514	0.755	0.037
Mof_C 	C 	0.85576	0.79806	0.73456	-0.055
Mof_C 	C 	0.85303	0.82641	0.70221	0.048
Mof_H 	H 	0.8304	0.845	0.7024	0.009
Mof_C 	C 	0.82423	0.79715	0.76735	0.135
Mof_C 	C 	0.92627	0.82075	0.58013	0.108
Mof_N 	N 	0.61718	0.34494	0.17922	-0.263
Mof_N 	N 	0.65478	0.59406	0.8418	-0.266
Mof_N 	N 	0.4336	0.63438	0.0851	-0.223
Mof_N 	N 	0.58271	0.41727	0.13417	-0.223
Mof_N 	N 	0.57928	0.51178	0.04768	-0.151
Mof_N 	N 	0.5257	0.54436	0.08268	-0.153
Mof_N 	N 	0.55291	0.57471	0.02157	-0.153
Mof_N 	N 	0.62725	0.57369	0.92127	-0.229
Mof_N 	N 	0.61971	0.67173	0.82859	-0.229
Mof_N 	N 	0.61113	0.76667	0.82705	-0.152
Mof_S 	S 	0.59002	0.32038	0.25394	-0.06
Mof_S 	S 	0.69736	0.56146	0.78976	-0.062
Mof_C 	C 	0.60684	0.33404	0.21078	0.097
Mof_C 	C 	0.46414	0.6055	0.08254	0.033
Mof_H 	H 	0.4631	0.5827	0.0999	0.016
Mof_C 	C 	0.49614	0.60758	0.05638	-0.045
Mof_C 	C 	0.49923	0.64113	0.03111	0.007
Mof_H 	H 	0.5213	0.6433	0.0125	0.038
Mof_C 	C 	0.4688	0.6704	0.03474	-0.1
Mof_H 	H 	0.4697	0.6937	0.0189	0.066
Mof_C 	C 	0.43727	0.66645	0.06081	0.059
Mof_H 	H 	0.4166	0.6874	0.062	-0
Mof_C 	C 	0.55415	0.41739	0.16515	0.058
Mof_H 	H 	0.5545	0.3957	0.1851	-0.001
Mof_C 	C 	0.52548	0.44722	0.16832	-0.103
Mof_H 	H 	0.5056	0.446	0.19	0.066
Mof_C 	C 	0.5245	0.47898	0.1411	0.014
Mof_H 	H 	0.5042	0.5	0.1438	0.035
Mof_C 	C 	0.5533	0.48068	0.10922	-0.051
Mof_C 	C 	0.58162	0.44918	0.10674	0.036
Mof_H 	H 	0.6013	0.4497	0.0849	0.017
Mof_C 	C 	0.55271	0.51439	0.07811	0.138
Mof_C 	C 	0.52737	0.57321	0.05353	0.135
Mof_C 	C 	0.5778	0.5435	0.0199	0.133
Mof_C 	C 	0.65548	0.54354	0.91834	0.06
Mof_H 	H 	0.6733	0.5441	0.8953	0.001
Mof_C 	C 	0.6602	0.512	0.94652	-0.099
Mof_H 	H 	0.6804	0.4912	0.943	0.066
Mof_C 	C 	0.63453	0.51143	0.98049	0.009
Mof_H 	H 	0.637	0.49	0.0006	0.038
Mof_C 	C 	0.60628	0.54134	0.98474	-0.048
Mof_C 	C 	0.6026	0.5727	0.95382	0.037
Mof_H 	H 	0.5819	0.5935	0.9565	0.014
Mof_C 	C 	0.61546	0.67122	0.80208	0.059
Mof_H 	H 	0.618	0.6488	0.8028	0
Mof_C 	C 	0.60751	0.70209	0.77311	-0.099
Mof_H 	H 	0.603	0.7012	0.7554	0.067
Mof_C 	C 	0.60645	0.73385	0.77115	0.01
Mof_H 	H 	0.6022	0.755	0.7514	0.037
Mof_C 	C 	0.61162	0.73456	0.79806	-0.055
Mof_C 	C 	0.61835	0.70221	0.82641	0.048
Mof_H 	H 	0.6222	0.7024	0.845	0.009
Mof_C 	C 	0.61127	0.76735	0.79715	0.135
Mof_C 	C 	0.67285	0.58013	0.82075	0.108
Mof_N 	N 	0.34494	0.61718	0.85866	-0.263
Mof_N 	N 	0.59406	0.65478	0.90936	-0.266
Mof_N 	N 	0.63438	0.4336	0.84692	-0.223
Mof_N 	N 	0.41727	0.58271	0.86585	-0.223
Mof_N 	N 	0.51178	0.57928	0.86126	-0.151
Mof_N 	N 	0.54436	0.5257	0.84726	-0.153
Mof_N 	N 	0.57471	0.55291	0.85081	-0.153
Mof_N 	N 	0.57369	0.62725	0.87779	-0.229
Mof_N 	N 	0.67173	0.61971	0.87997	-0.229
Mof_N 	N 	0.76667	0.61113	0.79515	-0.152
Mof_S 	S 	0.32038	0.59002	0.83566	-0.06
Mof_S 	S 	0.56146	0.69736	0.95142	-0.062
Mof_C 	C 	0.33404	0.60684	0.84834	0.097
Mof_C 	C 	0.6055	0.46414	0.84782	0.033
Mof_H 	H 	0.5827	0.4631	0.8543	0.016
Mof_C 	C 	0.60758	0.49614	0.8399	-0.045
Mof_C 	C 	0.64113	0.49923	0.82853	0.007
Mof_H 	H 	0.6433	0.5213	0.8229	0.038
Mof_C 	C 	0.6704	0.4688	0.82606	-0.1
Mof_H 	H 	0.6937	0.4697	0.8177	0.066
Mof_C 	C 	0.66645	0.43727	0.83547	0.059
Mof_H 	H 	0.6874	0.4166	0.834	-0
Mof_C 	C 	0.41739	0.55415	0.86331	0.058
Mof_H 	H 	0.3957	0.5545	0.8647	-0.001
Mof_C 	C 	0.44722	0.52548	0.85898	-0.103
Mof_H 	H 	0.446	0.5056	0.8584	0.066
Mof_C 	C 	0.47898	0.5245	0.85542	0.014
Mof_H 	H 	0.5	0.5042	0.852	0.035
Mof_C 	C 	0.48068	0.5533	0.8568	-0.051
Mof_C 	C 	0.44918	0.58162	0.86246	0.036
Mof_H 	H 	0.4497	0.6013	0.8641	0.017
Mof_C 	C 	0.51439	0.55271	0.85479	0.138
Mof_C 	C 	0.57321	0.52737	0.84589	0.135
Mof_C 	C 	0.5435	0.5778	0.8588	0.133
Mof_C 	C 	0.54354	0.65548	0.88264	0.06
Mof_H 	H 	0.5441	0.6733	0.8873	0.001
Mof_C 	C 	0.512	0.6602	0.88128	-0.099
Mof_H 	H 	0.4912	0.6804	0.8854	0.066
Mof_C 	C 	0.51143	0.63453	0.87355	0.009
Mof_H 	H 	0.49	0.637	0.8724	0.038
Mof_C 	C 	0.54134	0.60628	0.86764	-0.048
Mof_C 	C 	0.5727	0.6026	0.87088	0.037
Mof_H 	H 	0.5935	0.5819	0.8681	0.014
Mof_C 	C 	0.67122	0.61546	0.91124	0.059
Mof_H 	H 	0.6488	0.618	0.9304	0
Mof_C 	C 	0.70209	0.60751	0.91729	-0.099
Mof_H 	H 	0.7012	0.603	0.9404	0.067
Mof_C 	C 	0.73385	0.60645	0.88855	0.01
Mof_H 	H 	0.755	0.6022	0.8914	0.037
Mof_C 	C 	0.73456	0.61162	0.85576	-0.055
Mof_C 	C 	0.70221	0.61835	0.85303	0.048
Mof_H 	H 	0.7024	0.6222	0.8304	0.009
Mof_C 	C 	0.76735	0.61127	0.82423	0.135
Mof_C 	C 	0.58013	0.67285	0.92627	0.108
Mof_N 	N 	0.61718	0.17922	0.85866	-0.263
Mof_N 	N 	0.65478	0.8418	0.90936	-0.266
Mof_N 	N 	0.4336	0.0851	0.84692	-0.223
Mof_N 	N 	0.58271	0.13417	0.86585	-0.223
Mof_N 	N 	0.57928	0.04768	0.86126	-0.151
Mof_N 	N 	0.5257	0.08268	0.84726	-0.153
Mof_N 	N 	0.55291	0.02157	0.85081	-0.153
Mof_N 	N 	0.62725	0.92127	0.87779	-0.229
Mof_N 	N 	0.61971	0.82859	0.87997	-0.229
Mof_N 	N 	0.61113	0.82705	0.79515	-0.152
Mof_S 	S 	0.59002	0.25394	0.83566	-0.06
Mof_S 	S 	0.69736	0.78976	0.95142	-0.062
Mof_C 	C 	0.60684	0.21078	0.84834	0.097
Mof_C 	C 	0.46414	0.08254	0.84782	0.033
Mof_H 	H 	0.4631	0.0999	0.8543	0.016
Mof_C 	C 	0.49614	0.05638	0.8399	-0.045
Mof_C 	C 	0.49923	0.03111	0.82853	0.007
Mof_H 	H 	0.5213	0.0125	0.8229	0.038
Mof_C 	C 	0.4688	0.03474	0.82606	-0.1
Mof_H 	H 	0.4697	0.0189	0.8177	0.066
Mof_C 	C 	0.43727	0.06081	0.83547	0.059
Mof_H 	H 	0.4166	0.062	0.834	-0
Mof_C 	C 	0.55415	0.16515	0.86331	0.058
Mof_H 	H 	0.5545	0.1851	0.8647	-0.001
Mof_C 	C 	0.52548	0.16832	0.85898	-0.103
Mof_H 	H 	0.5056	0.19	0.8584	0.066
Mof_C 	C 	0.5245	0.1411	0.85542	0.014
Mof_H 	H 	0.5042	0.1438	0.852	0.035
Mof_C 	C 	0.5533	0.10922	0.8568	-0.051
Mof_C 	C 	0.58162	0.10674	0.86246	0.036
Mof_H 	H 	0.6013	0.0849	0.8641	0.017
Mof_C 	C 	0.55271	0.07811	0.85479	0.138
Mof_C 	C 	0.52737	0.05353	0.84589	0.135
Mof_C 	C 	0.5778	0.0199	0.8588	0.133
Mof_C 	C 	0.65548	0.91834	0.88264	0.06
Mof_H 	H 	0.6733	0.8953	0.8873	0.001
Mof_C 	C 	0.6602	0.94652	0.88128	-0.099
Mof_H 	H 	0.6804	0.943	0.8854	0.066
Mof_C 	C 	0.63453	0.98049	0.87355	0.009
Mof_H 	H 	0.637	0.0006	0.8724	0.038
Mof_C 	C 	0.60628	0.98474	0.86764	-0.048
Mof_C 	C 	0.6026	0.95382	0.87088	0.037
Mof_H 	H 	0.5819	0.9565	0.8681	0.014
Mof_C 	C 	0.61546	0.80208	0.91124	0.059
Mof_H 	H 	0.618	0.8028	0.9304	0
Mof_C 	C 	0.60751	0.77311	0.91729	-0.099
Mof_H 	H 	0.603	0.7554	0.9404	0.067
Mof_C 	C 	0.60645	0.77115	0.88855	0.01
Mof_H 	H 	0.6022	0.7514	0.8914	0.037
Mof_C 	C 	0.61162	0.79806	0.85576	-0.055
Mof_C 	C 	0.61835	0.82641	0.85303	0.048
Mof_H 	H 	0.6222	0.845	0.8304	0.009
Mof_C 	C 	0.61127	0.79715	0.82423	0.135
Mof_C 	C 	0.67285	0.82075	0.92627	0.108
Mof_N 	N 	0.34494	0.85866	0.17922	-0.263
Mof_N 	N 	0.59406	0.90936	0.8418	-0.266
Mof_N 	N 	0.63438	0.84692	0.0851	-0.223
Mof_N 	N 	0.41727	0.86585	0.13417	-0.223
Mof_N 	N 	0.51178	0.86126	0.04768	-0.151
Mof_N 	N 	0.54436	0.84726	0.08268	-0.153
Mof_N 	N 	0.57471	0.85081	0.02157	-0.153
Mof_N 	N 	0.57369	0.87779	0.92127	-0.229
Mof_N 	N 	0.67173	0.87997	0.82859	-0.229
Mof_N 	N 	0.76667	0.79515	0.82705	-0.152
Mof_S 	S 	0.32038	0.83566	0.25394	-0.06
Mof_S 	S 	0.56146	0.95142	0.78976	-0.062
Mof_C 	C 	0.33404	0.84834	0.21078	0.097
Mof_C 	C 	0.6055	0.84782	0.08254	0.033
Mof_H 	H 	0.5827	0.8543	0.0999	0.016
Mof_C 	C 	0.60758	0.8399	0.05638	-0.045
Mof_C 	C 	0.64113	0.82853	0.03111	0.007
Mof_H 	H 	0.6433	0.8229	0.0125	0.038
Mof_C 	C 	0.6704	0.82606	0.03474	-0.1
Mof_H 	H 	0.6937	0.8177	0.0189	0.066
Mof_C 	C 	0.66645	0.83547	0.06081	0.059
Mof_H 	H 	0.6874	0.834	0.062	-0
Mof_C 	C 	0.41739	0.86331	0.16515	0.058
Mof_H 	H 	0.3957	0.8647	0.1851	-0.001
Mof_C 	C 	0.44722	0.85898	0.16832	-0.103
Mof_H 	H 	0.446	0.8584	0.19	0.066
Mof_C 	C 	0.47898	0.85542	0.1411	0.014
Mof_H 	H 	0.5	0.852	0.1438	0.035
Mof_C 	C 	0.48068	0.8568	0.10922	-0.051
Mof_C 	C 	0.44918	0.86246	0.10674	0.036
Mof_H 	H 	0.4497	0.8641	0.0849	0.017
Mof_C 	C 	0.51439	0.85479	0.07811	0.138
Mof_C 	C 	0.57321	0.84589	0.05353	0.135
Mof_C 	C 	0.5435	0.8588	0.0199	0.133
Mof_C 	C 	0.54354	0.88264	0.91834	0.06
Mof_H 	H 	0.5441	0.8873	0.8953	0.001
Mof_C 	C 	0.512	0.88128	0.94652	-0.099
Mof_H 	H 	0.4912	0.8854	0.943	0.066
Mof_C 	C 	0.51143	0.87355	0.98049	0.009
Mof_H 	H 	0.49	0.8724	0.0006	0.038
Mof_C 	C 	0.54134	0.86764	0.98474	-0.048
Mof_C 	C 	0.5727	0.87088	0.95382	0.037
Mof_H 	H 	0.5935	0.8681	0.9565	0.014
Mof_C 	C 	0.67122	0.91124	0.80208	0.059
Mof_H 	H 	0.6488	0.9304	0.8028	0
Mof_C 	C 	0.70209	0.91729	0.77311	-0.099
Mof_H 	H 	0.7012	0.9404	0.7554	0.067
Mof_C 	C 	0.73385	0.88855	0.77115	0.01
Mof_H 	H 	0.755	0.8914	0.7514	0.037
Mof_C 	C 	0.73456	0.85576	0.79806	-0.055
Mof_C 	C 	0.70221	0.85303	0.82641	0.048
Mof_H 	H 	0.7024	0.8304	0.845	0.009
Mof_C 	C 	0.76735	0.82423	0.79715	0.135
Mof_C 	C 	0.58013	0.92627	0.82075	0.108
Mof_N 	N 	0.17922	0.61718	0.34494	-0.263
Mof_N 	N 	0.8418	0.65478	0.59406	-0.266
Mof_N 	N 	0.0851	0.4336	0.63438	-0.223
Mof_N 	N 	0.13417	0.58271	0.41727	-0.223
Mof_N 	N 	0.04768	0.57928	0.51178	-0.151
Mof_N 	N 	0.08268	0.5257	0.54436	-0.153
Mof_N 	N 	0.02157	0.55291	0.57471	-0.153
Mof_N 	N 	0.92127	0.62725	0.57369	-0.229
Mof_N 	N 	0.82859	0.61971	0.67173	-0.229
Mof_N 	N 	0.82705	0.61113	0.76667	-0.152
Mof_S 	S 	0.25394	0.59002	0.32038	-0.06
Mof_S 	S 	0.78976	0.69736	0.56146	-0.062
Mof_C 	C 	0.21078	0.60684	0.33404	0.097
Mof_C 	C 	0.08254	0.46414	0.6055	0.033
Mof_H 	H 	0.0999	0.4631	0.5827	0.016
Mof_C 	C 	0.05638	0.49614	0.60758	-0.045
Mof_C 	C 	0.03111	0.49923	0.64113	0.007
Mof_H 	H 	0.0125	0.5213	0.6433	0.038
Mof_C 	C 	0.03474	0.4688	0.6704	-0.1
Mof_H 	H 	0.0189	0.4697	0.6937	0.066
Mof_C 	C 	0.06081	0.43727	0.66645	0.059
Mof_H 	H 	0.062	0.4166	0.6874	-0
Mof_C 	C 	0.16515	0.55415	0.41739	0.058
Mof_H 	H 	0.1851	0.5545	0.3957	-0.001
Mof_C 	C 	0.16832	0.52548	0.44722	-0.103
Mof_H 	H 	0.19	0.5056	0.446	0.066
Mof_C 	C 	0.1411	0.5245	0.47898	0.014
Mof_H 	H 	0.1438	0.5042	0.5	0.035
Mof_C 	C 	0.10922	0.5533	0.48068	-0.051
Mof_C 	C 	0.10674	0.58162	0.44918	0.036
Mof_H 	H 	0.0849	0.6013	0.4497	0.017
Mof_C 	C 	0.07811	0.55271	0.51439	0.138
Mof_C 	C 	0.05353	0.52737	0.57321	0.135
Mof_C 	C 	0.0199	0.5778	0.5435	0.133
Mof_C 	C 	0.91834	0.65548	0.54354	0.06
Mof_H 	H 	0.8953	0.6733	0.5441	0.001
Mof_C 	C 	0.94652	0.6602	0.512	-0.099
Mof_H 	H 	0.943	0.6804	0.4912	0.066
Mof_C 	C 	0.98049	0.63453	0.51143	0.009
Mof_H 	H 	0.0006	0.637	0.49	0.038
Mof_C 	C 	0.98474	0.60628	0.54134	-0.048
Mof_C 	C 	0.95382	0.6026	0.5727	0.037
Mof_H 	H 	0.9565	0.5819	0.5935	0.014
Mof_C 	C 	0.80208	0.61546	0.67122	0.059
Mof_H 	H 	0.8028	0.618	0.6488	0
Mof_C 	C 	0.77311	0.60751	0.70209	-0.099
Mof_H 	H 	0.7554	0.603	0.7012	0.067
Mof_C 	C 	0.77115	0.60645	0.73385	0.01
Mof_H 	H 	0.7514	0.6022	0.755	0.037
Mof_C 	C 	0.79806	0.61162	0.73456	-0.055
Mof_C 	C 	0.82641	0.61835	0.70221	0.048
Mof_H 	H 	0.845	0.6222	0.7024	0.009
Mof_C 	C 	0.79715	0.61127	0.76735	0.135
Mof_C 	C 	0.82075	0.67285	0.58013	0.108
Mof_N 	N 	0.85866	0.34494	0.61718	-0.263
Mof_N 	N 	0.90936	0.59406	0.65478	-0.266
Mof_N 	N 	0.84692	0.63438	0.4336	-0.223
Mof_N 	N 	0.86585	0.41727	0.58271	-0.223
Mof_N 	N 	0.86126	0.51178	0.57928	-0.151
Mof_N 	N 	0.84726	0.54436	0.5257	-0.153
Mof_N 	N 	0.85081	0.57471	0.55291	-0.153
Mof_N 	N 	0.87779	0.57369	0.62725	-0.229
Mof_N 	N 	0.87997	0.67173	0.61971	-0.229
Mof_N 	N 	0.79515	0.76667	0.61113	-0.152
Mof_S 	S 	0.83566	0.32038	0.59002	-0.06
Mof_S 	S 	0.95142	0.56146	0.69736	-0.062
Mof_C 	C 	0.84834	0.33404	0.60684	0.097
Mof_C 	C 	0.84782	0.6055	0.46414	0.033
Mof_H 	H 	0.8543	0.5827	0.4631	0.016
Mof_C 	C 	0.8399	0.60758	0.49614	-0.045
Mof_C 	C 	0.82853	0.64113	0.49923	0.007
Mof_H 	H 	0.8229	0.6433	0.5213	0.038
Mof_C 	C 	0.82606	0.6704	0.4688	-0.1
Mof_H 	H 	0.8177	0.6937	0.4697	0.066
Mof_C 	C 	0.83547	0.66645	0.43727	0.059
Mof_H 	H 	0.834	0.6874	0.4166	-0
Mof_C 	C 	0.86331	0.41739	0.55415	0.058
Mof_H 	H 	0.8647	0.3957	0.5545	-0.001
Mof_C 	C 	0.85898	0.44722	0.52548	-0.103
Mof_H 	H 	0.8584	0.446	0.5056	0.066
Mof_C 	C 	0.85542	0.47898	0.5245	0.014
Mof_H 	H 	0.852	0.5	0.5042	0.035
Mof_C 	C 	0.8568	0.48068	0.5533	-0.051
Mof_C 	C 	0.86246	0.44918	0.58162	0.036
Mof_H 	H 	0.8641	0.4497	0.6013	0.017
Mof_C 	C 	0.85479	0.51439	0.55271	0.138
Mof_C 	C 	0.84589	0.57321	0.52737	0.135
Mof_C 	C 	0.8588	0.5435	0.5778	0.133
Mof_C 	C 	0.88264	0.54354	0.65548	0.06
Mof_H 	H 	0.8873	0.5441	0.6733	0.001
Mof_C 	C 	0.88128	0.512	0.6602	-0.099
Mof_H 	H 	0.8854	0.4912	0.6804	0.066
Mof_C 	C 	0.87355	0.51143	0.63453	0.009
Mof_H 	H 	0.8724	0.49	0.637	0.038
Mof_C 	C 	0.86764	0.54134	0.60628	-0.048
Mof_C 	C 	0.87088	0.5727	0.6026	0.037
Mof_H 	H 	0.8681	0.5935	0.5819	0.014
Mof_C 	C 	0.91124	0.67122	0.61546	0.059
Mof_H 	H 	0.9304	0.6488	0.618	0
Mof_C 	C 	0.91729	0.70209	0.60751	-0.099
Mof_H 	H 	0.9404	0.7012	0.603	0.067
Mof_C 	C 	0.88855	0.73385	0.60645	0.01
Mof_H 	H 	0.8914	0.755	0.6022	0.037
Mof_C 	C 	0.85576	0.73456	0.61162	-0.055
Mof_C 	C 	0.85303	0.70221	0.61835	0.048
Mof_H 	H 	0.8304	0.7024	0.6222	0.009
Mof_C 	C 	0.82423	0.76735	0.61127	0.135
Mof_C 	C 	0.92627	0.58013	0.67285	0.108
Mof_N 	N 	0.85866	0.61718	0.17922	-0.263
Mof_N 	N 	0.90936	0.65478	0.8418	-0.266
Mof_N 	N 	0.84692	0.4336	0.0851	-0.223
Mof_N 	N 	0.86585	0.58271	0.13417	-0.223
Mof_N 	N 	0.86126	0.57928	0.04768	-0.151
Mof_N 	N 	0.84726	0.5257	0.08268	-0.153
Mof_N 	N 	0.85081	0.55291	0.02157	-0.153
Mof_N 	N 	0.87779	0.62725	0.92127	-0.229
Mof_N 	N 	0.87997	0.61971	0.82859	-0.229
Mof_N 	N 	0.79515	0.61113	0.82705	-0.152
Mof_S 	S 	0.83566	0.59002	0.25394	-0.06
Mof_S 	S 	0.95142	0.69736	0.78976	-0.062
Mof_C 	C 	0.84834	0.60684	0.21078	0.097
Mof_C 	C 	0.84782	0.46414	0.08254	0.033
Mof_H 	H 	0.8543	0.4631	0.0999	0.016
Mof_C 	C 	0.8399	0.49614	0.05638	-0.045
Mof_C 	C 	0.82853	0.49923	0.03111	0.007
Mof_H 	H 	0.8229	0.5213	0.0125	0.038
Mof_C 	C 	0.82606	0.4688	0.03474	-0.1
Mof_H 	H 	0.8177	0.4697	0.0189	0.066
Mof_C 	C 	0.83547	0.43727	0.06081	0.059
Mof_H 	H 	0.834	0.4166	0.062	-0
Mof_C 	C 	0.86331	0.55415	0.16515	0.058
Mof_H 	H 	0.8647	0.5545	0.1851	-0.001
Mof_C 	C 	0.85898	0.52548	0.16832	-0.103
Mof_H 	H 	0.8584	0.5056	0.19	0.066
Mof_C 	C 	0.85542	0.5245	0.1411	0.014
Mof_H 	H 	0.852	0.5042	0.1438	0.035
Mof_C 	C 	0.8568	0.5533	0.10922	-0.051
Mof_C 	C 	0.86246	0.58162	0.10674	0.036
Mof_H 	H 	0.8641	0.6013	0.0849	0.017
Mof_C 	C 	0.85479	0.55271	0.07811	0.138
Mof_C 	C 	0.84589	0.52737	0.05353	0.135
Mof_C 	C 	0.8588	0.5778	0.0199	0.133
Mof_C 	C 	0.88264	0.65548	0.91834	0.06
Mof_H 	H 	0.8873	0.6733	0.8953	0.001
Mof_C 	C 	0.88128	0.6602	0.94652	-0.099
Mof_H 	H 	0.8854	0.6804	0.943	0.066
Mof_C 	C 	0.87355	0.63453	0.98049	0.009
Mof_H 	H 	0.8724	0.637	0.0006	0.038
Mof_C 	C 	0.86764	0.60628	0.98474	-0.048
Mof_C 	C 	0.87088	0.6026	0.95382	0.037
Mof_H 	H 	0.8681	0.5819	0.9565	0.014
Mof_C 	C 	0.91124	0.61546	0.80208	0.059
Mof_H 	H 	0.9304	0.618	0.8028	0
Mof_C 	C 	0.91729	0.60751	0.77311	-0.099
Mof_H 	H 	0.9404	0.603	0.7554	0.067
Mof_C 	C 	0.88855	0.60645	0.77115	0.01
Mof_H 	H 	0.8914	0.6022	0.7514	0.037
Mof_C 	C 	0.85576	0.61162	0.79806	-0.055
Mof_C 	C 	0.85303	0.61835	0.82641	0.048
Mof_H 	H 	0.8304	0.6222	0.845	0.009
Mof_C 	C 	0.82423	0.61127	0.79715	0.135
Mof_C 	C 	0.92627	0.67285	0.82075	0.108
Mof_N 	N 	0.17922	0.34494	0.85866	-0.263
Mof_N 	N 	0.8418	0.59406	0.90936	-0.266
Mof_N 	N 	0.0851	0.63438	0.84692	-0.223
Mof_N 	N 	0.13417	0.41727	0.86585	-0.223
Mof_N 	N 	0.04768	0.51178	0.86126	-0.151
Mof_N 	N 	0.08268	0.54436	0.84726	-0.153
Mof_N 	N 	0.02157	0.57471	0.85081	-0.153
Mof_N 	N 	0.92127	0.57369	0.87779	-0.229
Mof_N 	N 	0.82859	0.67173	0.87997	-0.229
Mof_N 	N 	0.82705	0.76667	0.79515	-0.152
Mof_S 	S 	0.25394	0.32038	0.83566	-0.06
Mof_S 	S 	0.78976	0.56146	0.95142	-0.062
Mof_C 	C 	0.21078	0.33404	0.84834	0.097
Mof_C 	C 	0.08254	0.6055	0.84782	0.033
Mof_H 	H 	0.0999	0.5827	0.8543	0.016
Mof_C 	C 	0.05638	0.60758	0.8399	-0.045
Mof_C 	C 	0.03111	0.64113	0.82853	0.007
Mof_H 	H 	0.0125	0.6433	0.8229	0.038
Mof_C 	C 	0.03474	0.6704	0.82606	-0.1
Mof_H 	H 	0.0189	0.6937	0.8177	0.066
Mof_C 	C 	0.06081	0.66645	0.83547	0.059
Mof_H 	H 	0.062	0.6874	0.834	-0
Mof_C 	C 	0.16515	0.41739	0.86331	0.058
Mof_H 	H 	0.1851	0.3957	0.8647	-0.001
Mof_C 	C 	0.16832	0.44722	0.85898	-0.103
Mof_H 	H 	0.19	0.446	0.8584	0.066
Mof_C 	C 	0.1411	0.47898	0.85542	0.014
Mof_H 	H 	0.1438	0.5	0.852	0.035
Mof_C 	C 	0.10922	0.48068	0.8568	-0.051
Mof_C 	C 	0.10674	0.44918	0.86246	0.036
Mof_H 	H 	0.0849	0.4497	0.8641	0.017
Mof_C 	C 	0.07811	0.51439	0.85479	0.138
Mof_C 	C 	0.05353	0.57321	0.84589	0.135
Mof_C 	C 	0.0199	0.5435	0.8588	0.133
Mof_C 	C 	0.91834	0.54354	0.88264	0.06
Mof_H 	H 	0.8953	0.5441	0.8873	0.001
Mof_C 	C 	0.94652	0.512	0.88128	-0.099
Mof_H 	H 	0.943	0.4912	0.8854	0.066
Mof_C 	C 	0.98049	0.51143	0.87355	0.009
Mof_H 	H 	0.0006	0.49	0.8724	0.038
Mof_C 	C 	0.98474	0.54134	0.86764	-0.048
Mof_C 	C 	0.95382	0.5727	0.87088	0.037
Mof_H 	H 	0.9565	0.5935	0.8681	0.014
Mof_C 	C 	0.80208	0.67122	0.91124	0.059
Mof_H 	H 	0.8028	0.6488	0.9304	0
Mof_C 	C 	0.77311	0.70209	0.91729	-0.099
Mof_H 	H 	0.7554	0.7012	0.9404	0.067
Mof_C 	C 	0.77115	0.73385	0.88855	0.01
Mof_H 	H 	0.7514	0.755	0.8914	0.037
Mof_C 	C 	0.79806	0.73456	0.85576	-0.055
Mof_C 	C 	0.82641	0.70221	0.85303	0.048
Mof_H 	H 	0.845	0.7024	0.8304	0.009
Mof_C 	C 	0.79715	0.76735	0.82423	0.135
Mof_C 	C 	0.82075	0.58013	0.92627	0.108
Mof_N 	N 	0.34494	0.17922	0.61718	-0.263
Mof_N 	N 	0.59406	0.8418	0.65478	-0.266
Mof_N 	N 	0.63438	0.0851	0.4336	-0.223
Mof_N 	N 	0.41727	0.13417	0.58271	-0.223
Mof_N 	N 	0.51178	0.04768	0.57928	-0.151
Mof_N 	N 	0.54436	0.08268	0.5257	-0.153
Mof_N 	N 	0.57471	0.02157	0.55291	-0.153
Mof_N 	N 	0.57369	0.92127	0.62725	-0.229
Mof_N 	N 	0.67173	0.82859	0.61971	-0.229
Mof_N 	N 	0.76667	0.82705	0.61113	-0.152
Mof_S 	S 	0.32038	0.25394	0.59002	-0.06
Mof_S 	S 	0.56146	0.78976	0.69736	-0.062
Mof_C 	C 	0.33404	0.21078	0.60684	0.097
Mof_C 	C 	0.6055	0.08254	0.46414	0.033
Mof_H 	H 	0.5827	0.0999	0.4631	0.016
Mof_C 	C 	0.60758	0.05638	0.49614	-0.045
Mof_C 	C 	0.64113	0.03111	0.49923	0.007
Mof_H 	H 	0.6433	0.0125	0.5213	0.038
Mof_C 	C 	0.6704	0.03474	0.4688	-0.1
Mof_H 	H 	0.6937	0.0189	0.4697	0.066
Mof_C 	C 	0.66645	0.06081	0.43727	0.059
Mof_H 	H 	0.6874	0.062	0.4166	-0
Mof_C 	C 	0.41739	0.16515	0.55415	0.058
Mof_H 	H 	0.3957	0.1851	0.5545	-0.001
Mof_C 	C 	0.44722	0.16832	0.52548	-0.103
Mof_H 	H 	0.446	0.19	0.5056	0.066
Mof_C 	C 	0.47898	0.1411	0.5245	0.014
Mof_H 	H 	0.5	0.1438	0.5042	0.035
Mof_C 	C 	0.48068	0.10922	0.5533	-0.051
Mof_C 	C 	0.44918	0.10674	0.58162	0.036
Mof_H 	H 	0.4497	0.0849	0.6013	0.017
Mof_C 	C 	0.51439	0.07811	0.55271	0.138
Mof_C 	C 	0.57321	0.05353	0.52737	0.135
Mof_C 	C 	0.5435	0.0199	0.5778	0.133
Mof_C 	C 	0.54354	0.91834	0.65548	0.06
Mof_H 	H 	0.5441	0.8953	0.6733	0.001
Mof_C 	C 	0.512	0.94652	0.6602	-0.099
Mof_H 	H 	0.4912	0.943	0.6804	0.066
Mof_C 	C 	0.51143	0.98049	0.63453	0.009
Mof_H 	H 	0.49	0.0006	0.637	0.038
Mof_C 	C 	0.54134	0.98474	0.60628	-0.048
Mof_C 	C 	0.5727	0.95382	0.6026	0.037
Mof_H 	H 	0.5935	0.9565	0.5819	0.014
Mof_C 	C 	0.67122	0.80208	0.61546	0.059
Mof_H 	H 	0.6488	0.8028	0.618	0
Mof_C 	C 	0.70209	0.77311	0.60751	-0.099
Mof_H 	H 	0.7012	0.7554	0.603	0.067
Mof_C 	C 	0.73385	0.77115	0.60645	0.01
Mof_H 	H 	0.755	0.7514	0.6022	0.037
Mof_C 	C 	0.73456	0.79806	0.61162	-0.055
Mof_C 	C 	0.70221	0.82641	0.61835	0.048
Mof_H 	H 	0.7024	0.845	0.6222	0.009
Mof_C 	C 	0.76735	0.79715	0.61127	0.135
Mof_C 	C 	0.58013	0.82075	0.67285	0.108
Mof_N 	N 	0.61718	0.85866	0.34494	-0.263
Mof_N 	N 	0.65478	0.90936	0.59406	-0.266
Mof_N 	N 	0.4336	0.84692	0.63438	-0.223
Mof_N 	N 	0.58271	0.86585	0.41727	-0.223
Mof_N 	N 	0.57928	0.86126	0.51178	-0.151
Mof_N 	N 	0.5257	0.84726	0.54436	-0.153
Mof_N 	N 	0.55291	0.85081	0.57471	-0.153
Mof_N 	N 	0.62725	0.87779	0.57369	-0.229
Mof_N 	N 	0.61971	0.87997	0.67173	-0.229
Mof_N 	N 	0.61113	0.79515	0.76667	-0.152
Mof_S 	S 	0.59002	0.83566	0.32038	-0.06
Mof_S 	S 	0.69736	0.95142	0.56146	-0.062
Mof_C 	C 	0.60684	0.84834	0.33404	0.097
Mof_C 	C 	0.46414	0.84782	0.6055	0.033
Mof_H 	H 	0.4631	0.8543	0.5827	0.016
Mof_C 	C 	0.49614	0.8399	0.60758	-0.045
Mof_C 	C 	0.49923	0.82853	0.64113	0.007
Mof_H 	H 	0.5213	0.8229	0.6433	0.038
Mof_C 	C 	0.4688	0.82606	0.6704	-0.1
Mof_H 	H 	0.4697	0.8177	0.6937	0.066
Mof_C 	C 	0.43727	0.83547	0.66645	0.059
Mof_H 	H 	0.4166	0.834	0.6874	-0
Mof_C 	C 	0.55415	0.86331	0.41739	0.058
Mof_H 	H 	0.5545	0.8647	0.3957	-0.001
Mof_C 	C 	0.52548	0.85898	0.44722	-0.103
Mof_H 	H 	0.5056	0.8584	0.446	0.066
Mof_C 	C 	0.5245	0.85542	0.47898	0.014
Mof_H 	H 	0.5042	0.852	0.5	0.035
Mof_C 	C 	0.5533	0.8568	0.48068	-0.051
Mof_C 	C 	0.58162	0.86246	0.44918	0.036
Mof_H 	H 	0.6013	0.8641	0.4497	0.017
Mof_C 	C 	0.55271	0.85479	0.51439	0.138
Mof_C 	C 	0.52737	0.84589	0.57321	0.135
Mof_C 	C 	0.5778	0.8588	0.5435	0.133
Mof_C 	C 	0.65548	0.88264	0.54354	0.06
Mof_H 	H 	0.6733	0.8873	0.5441	0.001
Mof_C 	C 	0.6602	0.88128	0.512	-0.099
Mof_H 	H 	0.6804	0.8854	0.4912	0.066
Mof_C 	C 	0.63453	0.87355	0.51143	0.009
Mof_H 	H 	0.637	0.8724	0.49	0.038
Mof_C 	C 	0.60628	0.86764	0.54134	-0.048
Mof_C 	C 	0.6026	0.87088	0.5727	0.037
Mof_H 	H 	0.5819	0.8681	0.5935	0.014
Mof_C 	C 	0.61546	0.91124	0.67122	0.059
Mof_H 	H 	0.618	0.9304	0.6488	0
Mof_C 	C 	0.60751	0.91729	0.70209	-0.099
Mof_H 	H 	0.603	0.9404	0.7012	0.067
Mof_C 	C 	0.60645	0.88855	0.73385	0.01
Mof_H 	H 	0.6022	0.8914	0.755	0.037
Mof_C 	C 	0.61162	0.85576	0.73456	-0.055
Mof_C 	C 	0.61835	0.85303	0.70221	0.048
Mof_H 	H 	0.6222	0.8304	0.7024	0.009
Mof_C 	C 	0.61127	0.82423	0.76735	0.135
Mof_C 	C 	0.67285	0.92627	0.58013	0.108
Mof_N 	N 	0.07078	0.39134	0.90506	-0.263
Mof_N 	N 	0.4082	0.34064	0.65594	-0.266
Mof_N 	N 	0.1649	0.40308	0.61562	-0.223
Mof_N 	N 	0.11583	0.38415	0.83273	-0.223
Mof_N 	N 	0.20232	0.38874	0.73822	-0.151
Mof_N 	N 	0.16732	0.40274	0.70564	-0.153
Mof_N 	N 	0.22843	0.39919	0.67529	-0.153
Mof_N 	N 	0.32873	0.37221	0.67631	-0.229
Mof_N 	N 	0.42141	0.37003	0.57827	-0.229
Mof_N 	N 	0.42295	0.45485	0.48333	-0.152
Mof_S 	S 	0.99606	0.41434	0.92962	-0.06
Mof_S 	S 	0.46024	0.29858	0.68854	-0.062
Mof_C 	C 	0.03922	0.40166	0.91596	0.097
Mof_C 	C 	0.16746	0.40218	0.6445	0.033
Mof_H 	H 	0.1501	0.3957	0.6673	0.016
Mof_C 	C 	0.19362	0.4101	0.64242	-0.045
Mof_C 	C 	0.21889	0.42147	0.60887	0.007
Mof_H 	H 	0.2375	0.4271	0.6067	0.038
Mof_C 	C 	0.21526	0.42394	0.5796	-0.1
Mof_H 	H 	0.2311	0.4323	0.5563	0.066
Mof_C 	C 	0.18919	0.41453	0.58355	0.059
Mof_H 	H 	0.188	0.416	0.5626	-0
Mof_C 	C 	0.08485	0.38669	0.83261	0.058
Mof_H 	H 	0.0649	0.3853	0.8543	-0.001
Mof_C 	C 	0.08168	0.39102	0.80278	-0.103
Mof_H 	H 	0.06	0.3916	0.804	0.066
Mof_C 	C 	0.1089	0.39458	0.77102	0.014
Mof_H 	H 	0.1062	0.398	0.75	0.035
Mof_C 	C 	0.14078	0.3932	0.76932	-0.051
Mof_C 	C 	0.14326	0.38754	0.80082	0.036
Mof_H 	H 	0.1651	0.3859	0.8003	0.017
Mof_C 	C 	0.17189	0.39521	0.73561	0.138
Mof_C 	C 	0.19647	0.40411	0.67679	0.135
Mof_C 	C 	0.2301	0.3912	0.7065	0.133
Mof_C 	C 	0.33166	0.36736	0.70646	0.06
Mof_H 	H 	0.3547	0.3627	0.7059	0.001
Mof_C 	C 	0.30348	0.36872	0.738	-0.099
Mof_H 	H 	0.307	0.3646	0.7588	0.066
Mof_C 	C 	0.26951	0.37645	0.73857	0.009
Mof_H 	H 	0.2494	0.3776	0.76	0.038
Mof_C 	C 	0.26526	0.38236	0.70866	-0.048
Mof_C 	C 	0.29618	0.37912	0.6773	0.037
Mof_H 	H 	0.2935	0.3819	0.6565	0.014
Mof_C 	C 	0.44792	0.33876	0.57878	0.059
Mof_H 	H 	0.4472	0.3196	0.6012	0
Mof_C 	C 	0.47689	0.33271	0.54791	-0.099
Mof_H 	H 	0.4946	0.3096	0.5488	0.067
Mof_C 	C 	0.47885	0.36145	0.51615	0.01
Mof_H 	H 	0.4986	0.3586	0.495	0.037
Mof_C 	C 	0.45194	0.39424	0.51544	-0.055
Mof_C 	C 	0.42359	0.39697	0.54779	0.048
Mof_H 	H 	0.405	0.4196	0.5476	0.009
Mof_C 	C 	0.45285	0.42577	0.48265	0.135
Mof_C 	C 	0.42925	0.32373	0.66987	0.108
Mof_N 	N 	0.39134	0.07078	0.63282	-0.263
Mof_N 	N 	0.34064	0.4082	0.59522	-0.266
Mof_N 	N 	0.40308	0.1649	0.8164	-0.223
Mof_N 	N 	0.38415	0.11583	0.66729	-0.223
Mof_N 	N 	0.38874	0.20232	0.67072	-0.151
Mof_N 	N 	0.40274	0.16732	0.7243	-0.153
Mof_N 	N 	0.39919	0.22843	0.69709	-0.153
Mof_N 	N 	0.37221	0.32873	0.62275	-0.229
Mof_N 	N 	0.37003	0.42141	0.63029	-0.229
Mof_N 	N 	0.45485	0.42295	0.63887	-0.152
Mof_S 	S 	0.41434	0.99606	0.65998	-0.06
Mof_S 	S 	0.29858	0.46024	0.55264	-0.062
Mof_C 	C 	0.40166	0.03922	0.64316	0.097
Mof_C 	C 	0.40218	0.16746	0.78586	0.033
Mof_H 	H 	0.3957	0.1501	0.7869	0.016
Mof_C 	C 	0.4101	0.19362	0.75386	-0.045
Mof_C 	C 	0.42147	0.21889	0.75077	0.007
Mof_H 	H 	0.4271	0.2375	0.7287	0.038
Mof_C 	C 	0.42394	0.21526	0.7812	-0.1
Mof_H 	H 	0.4323	0.2311	0.7803	0.066
Mof_C 	C 	0.41453	0.18919	0.81273	0.059
Mof_H 	H 	0.416	0.188	0.8334	-0
Mof_C 	C 	0.38669	0.08485	0.69585	0.058
Mof_H 	H 	0.3853	0.0649	0.6955	-0.001
Mof_C 	C 	0.39102	0.08168	0.72452	-0.103
Mof_H 	H 	0.3916	0.06	0.7444	0.066
Mof_C 	C 	0.39458	0.1089	0.7255	0.014
Mof_H 	H 	0.398	0.1062	0.7458	0.035
Mof_C 	C 	0.3932	0.14078	0.6967	-0.051
Mof_C 	C 	0.38754	0.14326	0.66838	0.036
Mof_H 	H 	0.3859	0.1651	0.6487	0.017
Mof_C 	C 	0.39521	0.17189	0.69729	0.138
Mof_C 	C 	0.40411	0.19647	0.72263	0.135
Mof_C 	C 	0.3912	0.2301	0.6722	0.133
Mof_C 	C 	0.36736	0.33166	0.59452	0.06
Mof_H 	H 	0.3627	0.3547	0.5767	0.001
Mof_C 	C 	0.36872	0.30348	0.5898	-0.099
Mof_H 	H 	0.3646	0.307	0.5696	0.066
Mof_C 	C 	0.37645	0.26951	0.61547	0.009
Mof_H 	H 	0.3776	0.2494	0.613	0.038
Mof_C 	C 	0.38236	0.26526	0.64372	-0.048
Mof_C 	C 	0.37912	0.29618	0.6474	0.037
Mof_H 	H 	0.3819	0.2935	0.6681	0.014
Mof_C 	C 	0.33876	0.44792	0.63454	0.059
Mof_H 	H 	0.3196	0.4472	0.632	0
Mof_C 	C 	0.33271	0.47689	0.64249	-0.099
Mof_H 	H 	0.3096	0.4946	0.647	0.067
Mof_C 	C 	0.36145	0.47885	0.64355	0.01
Mof_H 	H 	0.3586	0.4986	0.6478	0.037
Mof_C 	C 	0.39424	0.45194	0.63838	-0.055
Mof_C 	C 	0.39697	0.42359	0.63165	0.048
Mof_H 	H 	0.4196	0.405	0.6278	0.009
Mof_C 	C 	0.42577	0.45285	0.63873	0.135
Mof_C 	C 	0.32373	0.42925	0.57715	0.108
Mof_N 	N 	0.63282	0.90506	0.39134	-0.263
Mof_N 	N 	0.59522	0.65594	0.34064	-0.266
Mof_N 	N 	0.8164	0.61562	0.40308	-0.223
Mof_N 	N 	0.66729	0.83273	0.38415	-0.223
Mof_N 	N 	0.67072	0.73822	0.38874	-0.151
Mof_N 	N 	0.7243	0.70564	0.40274	-0.153
Mof_N 	N 	0.69709	0.67529	0.39919	-0.153
Mof_N 	N 	0.62275	0.67631	0.37221	-0.229
Mof_N 	N 	0.63029	0.57827	0.37003	-0.229
Mof_N 	N 	0.63887	0.48333	0.45485	-0.152
Mof_S 	S 	0.65998	0.92962	0.41434	-0.06
Mof_S 	S 	0.55264	0.68854	0.29858	-0.062
Mof_C 	C 	0.64316	0.91596	0.40166	0.097
Mof_C 	C 	0.78586	0.6445	0.40218	0.033
Mof_H 	H 	0.7869	0.6673	0.3957	0.016
Mof_C 	C 	0.75386	0.64242	0.4101	-0.045
Mof_C 	C 	0.75077	0.60887	0.42147	0.007
Mof_H 	H 	0.7287	0.6067	0.4271	0.038
Mof_C 	C 	0.7812	0.5796	0.42394	-0.1
Mof_H 	H 	0.7803	0.5563	0.4323	0.066
Mof_C 	C 	0.81273	0.58355	0.41453	0.059
Mof_H 	H 	0.8334	0.5626	0.416	-0
Mof_C 	C 	0.69585	0.83261	0.38669	0.058
Mof_H 	H 	0.6955	0.8543	0.3853	-0.001
Mof_C 	C 	0.72452	0.80278	0.39102	-0.103
Mof_H 	H 	0.7444	0.804	0.3916	0.066
Mof_C 	C 	0.7255	0.77102	0.39458	0.014
Mof_H 	H 	0.7458	0.75	0.398	0.035
Mof_C 	C 	0.6967	0.76932	0.3932	-0.051
Mof_C 	C 	0.66838	0.80082	0.38754	0.036
Mof_H 	H 	0.6487	0.8003	0.3859	0.017
Mof_C 	C 	0.69729	0.73561	0.39521	0.138
Mof_C 	C 	0.72263	0.67679	0.40411	0.135
Mof_C 	C 	0.6722	0.7065	0.3912	0.133
Mof_C 	C 	0.59452	0.70646	0.36736	0.06
Mof_H 	H 	0.5767	0.7059	0.3627	0.001
Mof_C 	C 	0.5898	0.738	0.36872	-0.099
Mof_H 	H 	0.5696	0.7588	0.3646	0.066
Mof_C 	C 	0.61547	0.73857	0.37645	0.009
Mof_H 	H 	0.613	0.76	0.3776	0.038
Mof_C 	C 	0.64372	0.70866	0.38236	-0.048
Mof_C 	C 	0.6474	0.6773	0.37912	0.037
Mof_H 	H 	0.6681	0.6565	0.3819	0.014
Mof_C 	C 	0.63454	0.57878	0.33876	0.059
Mof_H 	H 	0.632	0.6012	0.3196	0
Mof_C 	C 	0.64249	0.54791	0.33271	-0.099
Mof_H 	H 	0.647	0.5488	0.3096	0.067
Mof_C 	C 	0.64355	0.51615	0.36145	0.01
Mof_H 	H 	0.6478	0.495	0.3586	0.037
Mof_C 	C 	0.63838	0.51544	0.39424	-0.055
Mof_C 	C 	0.63165	0.54779	0.39697	0.048
Mof_H 	H 	0.6278	0.5476	0.4196	0.009
Mof_C 	C 	0.63873	0.48265	0.42577	0.135
Mof_C 	C 	0.57715	0.66987	0.32373	0.108
Mof_N 	N 	0.90506	0.63282	0.07078	-0.263
Mof_N 	N 	0.65594	0.59522	0.4082	-0.266
Mof_N 	N 	0.61562	0.8164	0.1649	-0.223
Mof_N 	N 	0.83273	0.66729	0.11583	-0.223
Mof_N 	N 	0.73822	0.67072	0.20232	-0.151
Mof_N 	N 	0.70564	0.7243	0.16732	-0.153
Mof_N 	N 	0.67529	0.69709	0.22843	-0.153
Mof_N 	N 	0.67631	0.62275	0.32873	-0.229
Mof_N 	N 	0.57827	0.63029	0.42141	-0.229
Mof_N 	N 	0.48333	0.63887	0.42295	-0.152
Mof_S 	S 	0.92962	0.65998	0.99606	-0.06
Mof_S 	S 	0.68854	0.55264	0.46024	-0.062
Mof_C 	C 	0.91596	0.64316	0.03922	0.097
Mof_C 	C 	0.6445	0.78586	0.16746	0.033
Mof_H 	H 	0.6673	0.7869	0.1501	0.016
Mof_C 	C 	0.64242	0.75386	0.19362	-0.045
Mof_C 	C 	0.60887	0.75077	0.21889	0.007
Mof_H 	H 	0.6067	0.7287	0.2375	0.038
Mof_C 	C 	0.5796	0.7812	0.21526	-0.1
Mof_H 	H 	0.5563	0.7803	0.2311	0.066
Mof_C 	C 	0.58355	0.81273	0.18919	0.059
Mof_H 	H 	0.5626	0.8334	0.188	-0
Mof_C 	C 	0.83261	0.69585	0.08485	0.058
Mof_H 	H 	0.8543	0.6955	0.0649	-0.001
Mof_C 	C 	0.80278	0.72452	0.08168	-0.103
Mof_H 	H 	0.804	0.7444	0.06	0.066
Mof_C 	C 	0.77102	0.7255	0.1089	0.014
Mof_H 	H 	0.75	0.7458	0.1062	0.035
Mof_C 	C 	0.76932	0.6967	0.14078	-0.051
Mof_C 	C 	0.80082	0.66838	0.14326	0.036
Mof_H 	H 	0.8003	0.6487	0.1651	0.017
Mof_C 	C 	0.73561	0.69729	0.17189	0.138
Mof_C 	C 	0.67679	0.72263	0.19647	0.135
Mof_C 	C 	0.7065	0.6722	0.2301	0.133
Mof_C 	C 	0.70646	0.59452	0.33166	0.06
Mof_H 	H 	0.7059	0.5767	0.3547	0.001
Mof_C 	C 	0.738	0.5898	0.30348	-0.099
Mof_H 	H 	0.7588	0.5696	0.307	0.066
Mof_C 	C 	0.73857	0.61547	0.26951	0.009
Mof_H 	H 	0.76	0.613	0.2494	0.038
Mof_C 	C 	0.70866	0.64372	0.26526	-0.048
Mof_C 	C 	0.6773	0.6474	0.29618	0.037
Mof_H 	H 	0.6565	0.6681	0.2935	0.014
Mof_C 	C 	0.57878	0.63454	0.44792	0.059
Mof_H 	H 	0.6012	0.632	0.4472	0
Mof_C 	C 	0.54791	0.64249	0.47689	-0.099
Mof_H 	H 	0.5488	0.647	0.4946	0.067
Mof_C 	C 	0.51615	0.64355	0.47885	0.01
Mof_H 	H 	0.495	0.6478	0.4986	0.037
Mof_C 	C 	0.51544	0.63838	0.45194	-0.055
Mof_C 	C 	0.54779	0.63165	0.42359	0.048
Mof_H 	H 	0.5476	0.6278	0.405	0.009
Mof_C 	C 	0.48265	0.63873	0.45285	0.135
Mof_C 	C 	0.66987	0.57715	0.42925	0.108
Mof_N 	N 	0.63282	0.07078	0.90506	-0.263
Mof_N 	N 	0.59522	0.4082	0.65594	-0.266
Mof_N 	N 	0.8164	0.1649	0.61562	-0.223
Mof_N 	N 	0.66729	0.11583	0.83273	-0.223
Mof_N 	N 	0.67072	0.20232	0.73822	-0.151
Mof_N 	N 	0.7243	0.16732	0.70564	-0.153
Mof_N 	N 	0.69709	0.22843	0.67529	-0.153
Mof_N 	N 	0.62275	0.32873	0.67631	-0.229
Mof_N 	N 	0.63029	0.42141	0.57827	-0.229
Mof_N 	N 	0.63887	0.42295	0.48333	-0.152
Mof_S 	S 	0.65998	0.99606	0.92962	-0.06
Mof_S 	S 	0.55264	0.46024	0.68854	-0.062
Mof_C 	C 	0.64316	0.03922	0.91596	0.097
Mof_C 	C 	0.78586	0.16746	0.6445	0.033
Mof_H 	H 	0.7869	0.1501	0.6673	0.016
Mof_C 	C 	0.75386	0.19362	0.64242	-0.045
Mof_C 	C 	0.75077	0.21889	0.60887	0.007
Mof_H 	H 	0.7287	0.2375	0.6067	0.038
Mof_C 	C 	0.7812	0.21526	0.5796	-0.1
Mof_H 	H 	0.7803	0.2311	0.5563	0.066
Mof_C 	C 	0.81273	0.18919	0.58355	0.059
Mof_H 	H 	0.8334	0.188	0.5626	-0
Mof_C 	C 	0.69585	0.08485	0.83261	0.058
Mof_H 	H 	0.6955	0.0649	0.8543	-0.001
Mof_C 	C 	0.72452	0.08168	0.80278	-0.103
Mof_H 	H 	0.7444	0.06	0.804	0.066
Mof_C 	C 	0.7255	0.1089	0.77102	0.014
Mof_H 	H 	0.7458	0.1062	0.75	0.035
Mof_C 	C 	0.6967	0.14078	0.76932	-0.051
Mof_C 	C 	0.66838	0.14326	0.80082	0.036
Mof_H 	H 	0.6487	0.1651	0.8003	0.017
Mof_C 	C 	0.69729	0.17189	0.73561	0.138
Mof_C 	C 	0.72263	0.19647	0.67679	0.135
Mof_C 	C 	0.6722	0.2301	0.7065	0.133
Mof_C 	C 	0.59452	0.33166	0.70646	0.06
Mof_H 	H 	0.5767	0.3547	0.7059	0.001
Mof_C 	C 	0.5898	0.30348	0.738	-0.099
Mof_H 	H 	0.5696	0.307	0.7588	0.066
Mof_C 	C 	0.61547	0.26951	0.73857	0.009
Mof_H 	H 	0.613	0.2494	0.76	0.038
Mof_C 	C 	0.64372	0.26526	0.70866	-0.048
Mof_C 	C 	0.6474	0.29618	0.6773	0.037
Mof_H 	H 	0.6681	0.2935	0.6565	0.014
Mof_C 	C 	0.63454	0.44792	0.57878	0.059
Mof_H 	H 	0.632	0.4472	0.6012	0
Mof_C 	C 	0.64249	0.47689	0.54791	-0.099
Mof_H 	H 	0.647	0.4946	0.5488	0.067
Mof_C 	C 	0.64355	0.47885	0.51615	0.01
Mof_H 	H 	0.6478	0.4986	0.495	0.037
Mof_C 	C 	0.63838	0.45194	0.51544	-0.055
Mof_C 	C 	0.63165	0.42359	0.54779	0.048
Mof_H 	H 	0.6278	0.405	0.5476	0.009
Mof_C 	C 	0.63873	0.45285	0.48265	0.135
Mof_C 	C 	0.57715	0.42925	0.66987	0.108
Mof_N 	N 	0.90506	0.39134	0.63282	-0.263
Mof_N 	N 	0.65594	0.34064	0.59522	-0.266
Mof_N 	N 	0.61562	0.40308	0.8164	-0.223
Mof_N 	N 	0.83273	0.38415	0.66729	-0.223
Mof_N 	N 	0.73822	0.38874	0.67072	-0.151
Mof_N 	N 	0.70564	0.40274	0.7243	-0.153
Mof_N 	N 	0.67529	0.39919	0.69709	-0.153
Mof_N 	N 	0.67631	0.37221	0.62275	-0.229
Mof_N 	N 	0.57827	0.37003	0.63029	-0.229
Mof_N 	N 	0.48333	0.45485	0.63887	-0.152
Mof_S 	S 	0.92962	0.41434	0.65998	-0.06
Mof_S 	S 	0.68854	0.29858	0.55264	-0.062
Mof_C 	C 	0.91596	0.40166	0.64316	0.097
Mof_C 	C 	0.6445	0.40218	0.78586	0.033
Mof_H 	H 	0.6673	0.3957	0.7869	0.016
Mof_C 	C 	0.64242	0.4101	0.75386	-0.045
Mof_C 	C 	0.60887	0.42147	0.75077	0.007
Mof_H 	H 	0.6067	0.4271	0.7287	0.038
Mof_C 	C 	0.5796	0.42394	0.7812	-0.1
Mof_H 	H 	0.5563	0.4323	0.7803	0.066
Mof_C 	C 	0.58355	0.41453	0.81273	0.059
Mof_H 	H 	0.5626	0.416	0.8334	-0
Mof_C 	C 	0.83261	0.38669	0.69585	0.058
Mof_H 	H 	0.8543	0.3853	0.6955	-0.001
Mof_C 	C 	0.80278	0.39102	0.72452	-0.103
Mof_H 	H 	0.804	0.3916	0.7444	0.066
Mof_C 	C 	0.77102	0.39458	0.7255	0.014
Mof_H 	H 	0.75	0.398	0.7458	0.035
Mof_C 	C 	0.76932	0.3932	0.6967	-0.051
Mof_C 	C 	0.80082	0.38754	0.66838	0.036
Mof_H 	H 	0.8003	0.3859	0.6487	0.017
Mof_C 	C 	0.73561	0.39521	0.69729	0.138
Mof_C 	C 	0.67679	0.40411	0.72263	0.135
Mof_C 	C 	0.7065	0.3912	0.6722	0.133
Mof_C 	C 	0.70646	0.36736	0.59452	0.06
Mof_H 	H 	0.7059	0.3627	0.5767	0.001
Mof_C 	C 	0.738	0.36872	0.5898	-0.099
Mof_H 	H 	0.7588	0.3646	0.5696	0.066
Mof_C 	C 	0.73857	0.37645	0.61547	0.009
Mof_H 	H 	0.76	0.3776	0.613	0.038
Mof_C 	C 	0.70866	0.38236	0.64372	-0.048
Mof_C 	C 	0.6773	0.37912	0.6474	0.037
Mof_H 	H 	0.6565	0.3819	0.6681	0.014
Mof_C 	C 	0.57878	0.33876	0.63454	0.059
Mof_H 	H 	0.6012	0.3196	0.632	0
Mof_C 	C 	0.54791	0.33271	0.64249	-0.099
Mof_H 	H 	0.5488	0.3096	0.647	0.067
Mof_C 	C 	0.51615	0.36145	0.64355	0.01
Mof_H 	H 	0.495	0.3586	0.6478	0.037
Mof_C 	C 	0.51544	0.39424	0.63838	-0.055
Mof_C 	C 	0.54779	0.39697	0.63165	0.048
Mof_H 	H 	0.5476	0.4196	0.6278	0.009
Mof_C 	C 	0.48265	0.42577	0.63873	0.135
Mof_C 	C 	0.66987	0.32373	0.57715	0.108
Mof_N 	N 	0.07078	0.63282	0.39134	-0.263
Mof_N 	N 	0.4082	0.59522	0.34064	-0.266
Mof_N 	N 	0.1649	0.8164	0.40308	-0.223
Mof_N 	N 	0.11583	0.66729	0.38415	-0.223
Mof_N 	N 	0.20232	0.67072	0.38874	-0.151
Mof_N 	N 	0.16732	0.7243	0.40274	-0.153
Mof_N 	N 	0.22843	0.69709	0.39919	-0.153
Mof_N 	N 	0.32873	0.62275	0.37221	-0.229
Mof_N 	N 	0.42141	0.63029	0.37003	-0.229
Mof_N 	N 	0.42295	0.63887	0.45485	-0.152
Mof_S 	S 	0.99606	0.65998	0.41434	-0.06
Mof_S 	S 	0.46024	0.55264	0.29858	-0.062
Mof_C 	C 	0.03922	0.64316	0.40166	0.097
Mof_C 	C 	0.16746	0.78586	0.40218	0.033
Mof_H 	H 	0.1501	0.7869	0.3957	0.016
Mof_C 	C 	0.19362	0.75386	0.4101	-0.045
Mof_C 	C 	0.21889	0.75077	0.42147	0.007
Mof_H 	H 	0.2375	0.7287	0.4271	0.038
Mof_C 	C 	0.21526	0.7812	0.42394	-0.1
Mof_H 	H 	0.2311	0.7803	0.4323	0.066
Mof_C 	C 	0.18919	0.81273	0.41453	0.059
Mof_H 	H 	0.188	0.8334	0.416	-0
Mof_C 	C 	0.08485	0.69585	0.38669	0.058
Mof_H 	H 	0.0649	0.6955	0.3853	-0.001
Mof_C 	C 	0.08168	0.72452	0.39102	-0.103
Mof_H 	H 	0.06	0.7444	0.3916	0.066
Mof_C 	C 	0.1089	0.7255	0.39458	0.014
Mof_H 	H 	0.1062	0.7458	0.398	0.035
Mof_C 	C 	0.14078	0.6967	0.3932	-0.051
Mof_C 	C 	0.14326	0.66838	0.38754	0.036
Mof_H 	H 	0.1651	0.6487	0.3859	0.017
Mof_C 	C 	0.17189	0.69729	0.39521	0.138
Mof_C 	C 	0.19647	0.72263	0.40411	0.135
Mof_C 	C 	0.2301	0.6722	0.3912	0.133
Mof_C 	C 	0.33166	0.59452	0.36736	0.06
Mof_H 	H 	0.3547	0.5767	0.3627	0.001
Mof_C 	C 	0.30348	0.5898	0.36872	-0.099
Mof_H 	H 	0.307	0.5696	0.3646	0.066
Mof_C 	C 	0.26951	0.61547	0.37645	0.009
Mof_H 	H 	0.2494	0.613	0.3776	0.038
Mof_C 	C 	0.26526	0.64372	0.38236	-0.048
Mof_C 	C 	0.29618	0.6474	0.37912	0.037
Mof_H 	H 	0.2935	0.6681	0.3819	0.014
Mof_C 	C 	0.44792	0.63454	0.33876	0.059
Mof_H 	H 	0.4472	0.632	0.3196	0
Mof_C 	C 	0.47689	0.64249	0.33271	-0.099
Mof_H 	H 	0.4946	0.647	0.3096	0.067
Mof_C 	C 	0.47885	0.64355	0.36145	0.01
Mof_H 	H 	0.4986	0.6478	0.3586	0.037
Mof_C 	C 	0.45194	0.63838	0.39424	-0.055
Mof_C 	C 	0.42359	0.63165	0.39697	0.048
Mof_H 	H 	0.405	0.6278	0.4196	0.009
Mof_C 	C 	0.45285	0.63873	0.42577	0.135
Mof_C 	C 	0.42925	0.57715	0.32373	0.108
Mof_N 	N 	0.39134	0.90506	0.07078	-0.263
Mof_N 	N 	0.34064	0.65594	0.4082	-0.266
Mof_N 	N 	0.40308	0.61562	0.1649	-0.223
Mof_N 	N 	0.38415	0.83273	0.11583	-0.223
Mof_N 	N 	0.38874	0.73822	0.20232	-0.151
Mof_N 	N 	0.40274	0.70564	0.16732	-0.153
Mof_N 	N 	0.39919	0.67529	0.22843	-0.153
Mof_N 	N 	0.37221	0.67631	0.32873	-0.229
Mof_N 	N 	0.37003	0.57827	0.42141	-0.229
Mof_N 	N 	0.45485	0.48333	0.42295	-0.152
Mof_S 	S 	0.41434	0.92962	0.99606	-0.06
Mof_S 	S 	0.29858	0.68854	0.46024	-0.062
Mof_C 	C 	0.40166	0.91596	0.03922	0.097
Mof_C 	C 	0.40218	0.6445	0.16746	0.033
Mof_H 	H 	0.3957	0.6673	0.1501	0.016
Mof_C 	C 	0.4101	0.64242	0.19362	-0.045
Mof_C 	C 	0.42147	0.60887	0.21889	0.007
Mof_H 	H 	0.4271	0.6067	0.2375	0.038
Mof_C 	C 	0.42394	0.5796	0.21526	-0.1
Mof_H 	H 	0.4323	0.5563	0.2311	0.066
Mof_C 	C 	0.41453	0.58355	0.18919	0.059
Mof_H 	H 	0.416	0.5626	0.188	-0
Mof_C 	C 	0.38669	0.83261	0.08485	0.058
Mof_H 	H 	0.3853	0.8543	0.0649	-0.001
Mof_C 	C 	0.39102	0.80278	0.08168	-0.103
Mof_H 	H 	0.3916	0.804	0.06	0.066
Mof_C 	C 	0.39458	0.77102	0.1089	0.014
Mof_H 	H 	0.398	0.75	0.1062	0.035
Mof_C 	C 	0.3932	0.76932	0.14078	-0.051
Mof_C 	C 	0.38754	0.80082	0.14326	0.036
Mof_H 	H 	0.3859	0.8003	0.1651	0.017
Mof_C 	C 	0.39521	0.73561	0.17189	0.138
Mof_C 	C 	0.40411	0.67679	0.19647	0.135
Mof_C 	C 	0.3912	0.7065	0.2301	0.133
Mof_C 	C 	0.36736	0.70646	0.33166	0.06
Mof_H 	H 	0.3627	0.7059	0.3547	0.001
Mof_C 	C 	0.36872	0.738	0.30348	-0.099
Mof_H 	H 	0.3646	0.7588	0.307	0.066
Mof_C 	C 	0.37645	0.73857	0.26951	0.009
Mof_H 	H 	0.3776	0.76	0.2494	0.038
Mof_C 	C 	0.38236	0.70866	0.26526	-0.048
Mof_C 	C 	0.37912	0.6773	0.29618	0.037
Mof_H 	H 	0.3819	0.6565	0.2935	0.014
Mof_C 	C 	0.33876	0.57878	0.44792	0.059
Mof_H 	H 	0.3196	0.6012	0.4472	0
Mof_C 	C 	0.33271	0.54791	0.47689	-0.099
Mof_H 	H 	0.3096	0.5488	0.4946	0.067
Mof_C 	C 	0.36145	0.51615	0.47885	0.01
Mof_H 	H 	0.3586	0.495	0.4986	0.037
Mof_C 	C 	0.39424	0.51544	0.45194	-0.055
Mof_C 	C 	0.39697	0.54779	0.42359	0.048
Mof_H 	H 	0.4196	0.5476	0.405	0.009
Mof_C 	C 	0.42577	0.48265	0.45285	0.135
Mof_C 	C 	0.32373	0.66987	0.42925	0.108
Mof_N 	N 	0.39134	0.63282	0.90506	-0.263
Mof_N 	N 	0.34064	0.59522	0.65594	-0.266
Mof_N 	N 	0.40308	0.8164	0.61562	-0.223
Mof_N 	N 	0.38415	0.66729	0.83273	-0.223
Mof_N 	N 	0.38874	0.67072	0.73822	-0.151
Mof_N 	N 	0.40274	0.7243	0.70564	-0.153
Mof_N 	N 	0.39919	0.69709	0.67529	-0.153
Mof_N 	N 	0.37221	0.62275	0.67631	-0.229
Mof_N 	N 	0.37003	0.63029	0.57827	-0.229
Mof_N 	N 	0.45485	0.63887	0.48333	-0.152
Mof_S 	S 	0.41434	0.65998	0.92962	-0.06
Mof_S 	S 	0.29858	0.55264	0.68854	-0.062
Mof_C 	C 	0.40166	0.64316	0.91596	0.097
Mof_C 	C 	0.40218	0.78586	0.6445	0.033
Mof_H 	H 	0.3957	0.7869	0.6673	0.016
Mof_C 	C 	0.4101	0.75386	0.64242	-0.045
Mof_C 	C 	0.42147	0.75077	0.60887	0.007
Mof_H 	H 	0.4271	0.7287	0.6067	0.038
Mof_C 	C 	0.42394	0.7812	0.5796	-0.1
Mof_H 	H 	0.4323	0.7803	0.5563	0.066
Mof_C 	C 	0.41453	0.81273	0.58355	0.059
Mof_H 	H 	0.416	0.8334	0.5626	-0
Mof_C 	C 	0.38669	0.69585	0.83261	0.058
Mof_H 	H 	0.3853	0.6955	0.8543	-0.001
Mof_C 	C 	0.39102	0.72452	0.80278	-0.103
Mof_H 	H 	0.3916	0.7444	0.804	0.066
Mof_C 	C 	0.39458	0.7255	0.77102	0.014
Mof_H 	H 	0.398	0.7458	0.75	0.035
Mof_C 	C 	0.3932	0.6967	0.76932	-0.051
Mof_C 	C 	0.38754	0.66838	0.80082	0.036
Mof_H 	H 	0.3859	0.6487	0.8003	0.017
Mof_C 	C 	0.39521	0.69729	0.73561	0.138
Mof_C 	C 	0.40411	0.72263	0.67679	0.135
Mof_C 	C 	0.3912	0.6722	0.7065	0.133
Mof_C 	C 	0.36736	0.59452	0.70646	0.06
Mof_H 	H 	0.3627	0.5767	0.7059	0.001
Mof_C 	C 	0.36872	0.5898	0.738	-0.099
Mof_H 	H 	0.3646	0.5696	0.7588	0.066
Mof_C 	C 	0.37645	0.61547	0.73857	0.009
Mof_H 	H 	0.3776	0.613	0.76	0.038
Mof_C 	C 	0.38236	0.64372	0.70866	-0.048
Mof_C 	C 	0.37912	0.6474	0.6773	0.037
Mof_H 	H 	0.3819	0.6681	0.6565	0.014
Mof_C 	C 	0.33876	0.63454	0.57878	0.059
Mof_H 	H 	0.3196	0.632	0.6012	0
Mof_C 	C 	0.33271	0.64249	0.54791	-0.099
Mof_H 	H 	0.3096	0.647	0.5488	0.067
Mof_C 	C 	0.36145	0.64355	0.51615	0.01
Mof_H 	H 	0.3586	0.6478	0.495	0.037
Mof_C 	C 	0.39424	0.63838	0.51544	-0.055
Mof_C 	C 	0.39697	0.63165	0.54779	0.048
Mof_H 	H 	0.4196	0.6278	0.5476	0.009
Mof_C 	C 	0.42577	0.63873	0.48265	0.135
Mof_C 	C 	0.32373	0.57715	0.66987	0.108
Mof_N 	N 	0.07078	0.90506	0.63282	-0.263
Mof_N 	N 	0.4082	0.65594	0.59522	-0.266
Mof_N 	N 	0.1649	0.61562	0.8164	-0.223
Mof_N 	N 	0.11583	0.83273	0.66729	-0.223
Mof_N 	N 	0.20232	0.73822	0.67072	-0.151
Mof_N 	N 	0.16732	0.70564	0.7243	-0.153
Mof_N 	N 	0.22843	0.67529	0.69709	-0.153
Mof_N 	N 	0.32873	0.67631	0.62275	-0.229
Mof_N 	N 	0.42141	0.57827	0.63029	-0.229
Mof_N 	N 	0.42295	0.48333	0.63887	-0.152
Mof_S 	S 	0.99606	0.92962	0.65998	-0.06
Mof_S 	S 	0.46024	0.68854	0.55264	-0.062
Mof_C 	C 	0.03922	0.91596	0.64316	0.097
Mof_C 	C 	0.16746	0.6445	0.78586	0.033
Mof_H 	H 	0.1501	0.6673	0.7869	0.016
Mof_C 	C 	0.19362	0.64242	0.75386	-0.045
Mof_C 	C 	0.21889	0.60887	0.75077	0.007
Mof_H 	H 	0.2375	0.6067	0.7287	0.038
Mof_C 	C 	0.21526	0.5796	0.7812	-0.1
Mof_H 	H 	0.2311	0.5563	0.7803	0.066
Mof_C 	C 	0.18919	0.58355	0.81273	0.059
Mof_H 	H 	0.188	0.5626	0.8334	-0
Mof_C 	C 	0.08485	0.83261	0.69585	0.058
Mof_H 	H 	0.0649	0.8543	0.6955	-0.001
Mof_C 	C 	0.08168	0.80278	0.72452	-0.103
Mof_H 	H 	0.06	0.804	0.7444	0.066
Mof_C 	C 	0.1089	0.77102	0.7255	0.014
Mof_H 	H 	0.1062	0.75	0.7458	0.035
Mof_C 	C 	0.14078	0.76932	0.6967	-0.051
Mof_C 	C 	0.14326	0.80082	0.66838	0.036
Mof_H 	H 	0.1651	0.8003	0.6487	0.017
Mof_C 	C 	0.17189	0.73561	0.69729	0.138
Mof_C 	C 	0.19647	0.67679	0.72263	0.135
Mof_C 	C 	0.2301	0.7065	0.6722	0.133
Mof_C 	C 	0.33166	0.70646	0.59452	0.06
Mof_H 	H 	0.3547	0.7059	0.5767	0.001
Mof_C 	C 	0.30348	0.738	0.5898	-0.099
Mof_H 	H 	0.307	0.7588	0.5696	0.066
Mof_C 	C 	0.26951	0.73857	0.61547	0.009
Mof_H 	H 	0.2494	0.76	0.613	0.038
Mof_C 	C 	0.26526	0.70866	0.64372	-0.048
Mof_C 	C 	0.29618	0.6773	0.6474	0.037
Mof_H 	H 	0.2935	0.6565	0.6681	0.014
Mof_C 	C 	0.44792	0.57878	0.63454	0.059
Mof_H 	H 	0.4472	0.6012	0.632	0
Mof_C 	C 	0.47689	0.54791	0.64249	-0.099
Mof_H 	H 	0.4946	0.5488	0.647	0.067
Mof_C 	C 	0.47885	0.51615	0.64355	0.01
Mof_H 	H 	0.4986	0.495	0.6478	0.037
Mof_C 	C 	0.45194	0.51544	0.63838	-0.055
Mof_C 	C 	0.42359	0.54779	0.63165	0.048
Mof_H 	H 	0.405	0.5476	0.6278	0.009
Mof_C 	C 	0.45285	0.48265	0.63873	0.135
Mof_C 	C 	0.42925	0.66987	0.57715	0.108
Mof_N 	N 	0.90506	0.07078	0.39134	-0.263
Mof_N 	N 	0.65594	0.4082	0.34064	-0.266
Mof_N 	N 	0.61562	0.1649	0.40308	-0.223
Mof_N 	N 	0.83273	0.11583	0.38415	-0.223
Mof_N 	N 	0.73822	0.20232	0.38874	-0.151
Mof_N 	N 	0.70564	0.16732	0.40274	-0.153
Mof_N 	N 	0.67529	0.22843	0.39919	-0.153
Mof_N 	N 	0.67631	0.32873	0.37221	-0.229
Mof_N 	N 	0.57827	0.42141	0.37003	-0.229
Mof_N 	N 	0.48333	0.42295	0.45485	-0.152
Mof_S 	S 	0.92962	0.99606	0.41434	-0.06
Mof_S 	S 	0.68854	0.46024	0.29858	-0.062
Mof_C 	C 	0.91596	0.03922	0.40166	0.097
Mof_C 	C 	0.6445	0.16746	0.40218	0.033
Mof_H 	H 	0.6673	0.1501	0.3957	0.016
Mof_C 	C 	0.64242	0.19362	0.4101	-0.045
Mof_C 	C 	0.60887	0.21889	0.42147	0.007
Mof_H 	H 	0.6067	0.2375	0.4271	0.038
Mof_C 	C 	0.5796	0.21526	0.42394	-0.1
Mof_H 	H 	0.5563	0.2311	0.4323	0.066
Mof_C 	C 	0.58355	0.18919	0.41453	0.059
Mof_H 	H 	0.5626	0.188	0.416	-0
Mof_C 	C 	0.83261	0.08485	0.38669	0.058
Mof_H 	H 	0.8543	0.0649	0.3853	-0.001
Mof_C 	C 	0.80278	0.08168	0.39102	-0.103
Mof_H 	H 	0.804	0.06	0.3916	0.066
Mof_C 	C 	0.77102	0.1089	0.39458	0.014
Mof_H 	H 	0.75	0.1062	0.398	0.035
Mof_C 	C 	0.76932	0.14078	0.3932	-0.051
Mof_C 	C 	0.80082	0.14326	0.38754	0.036
Mof_H 	H 	0.8003	0.1651	0.3859	0.017
Mof_C 	C 	0.73561	0.17189	0.39521	0.138
Mof_C 	C 	0.67679	0.19647	0.40411	0.135
Mof_C 	C 	0.7065	0.2301	0.3912	0.133
Mof_C 	C 	0.70646	0.33166	0.36736	0.06
Mof_H 	H 	0.7059	0.3547	0.3627	0.001
Mof_C 	C 	0.738	0.30348	0.36872	-0.099
Mof_H 	H 	0.7588	0.307	0.3646	0.066
Mof_C 	C 	0.73857	0.26951	0.37645	0.009
Mof_H 	H 	0.76	0.2494	0.3776	0.038
Mof_C 	C 	0.70866	0.26526	0.38236	-0.048
Mof_C 	C 	0.6773	0.29618	0.37912	0.037
Mof_H 	H 	0.6565	0.2935	0.3819	0.014
Mof_C 	C 	0.57878	0.44792	0.33876	0.059
Mof_H 	H 	0.6012	0.4472	0.3196	0
Mof_C 	C 	0.54791	0.47689	0.33271	-0.099
Mof_H 	H 	0.5488	0.4946	0.3096	0.067
Mof_C 	C 	0.51615	0.47885	0.36145	0.01
Mof_H 	H 	0.495	0.4986	0.3586	0.037
Mof_C 	C 	0.51544	0.45194	0.39424	-0.055
Mof_C 	C 	0.54779	0.42359	0.39697	0.048
Mof_H 	H 	0.5476	0.405	0.4196	0.009
Mof_C 	C 	0.48265	0.45285	0.42577	0.135
Mof_C 	C 	0.66987	0.42925	0.32373	0.108
Mof_N 	N 	0.63282	0.39134	0.07078	-0.263
Mof_N 	N 	0.59522	0.34064	0.4082	-0.266
Mof_N 	N 	0.8164	0.40308	0.1649	-0.223
Mof_N 	N 	0.66729	0.38415	0.11583	-0.223
Mof_N 	N 	0.67072	0.38874	0.20232	-0.151
Mof_N 	N 	0.7243	0.40274	0.16732	-0.153
Mof_N 	N 	0.69709	0.39919	0.22843	-0.153
Mof_N 	N 	0.62275	0.37221	0.32873	-0.229
Mof_N 	N 	0.63029	0.37003	0.42141	-0.229
Mof_N 	N 	0.63887	0.45485	0.42295	-0.152
Mof_S 	S 	0.65998	0.41434	0.99606	-0.06
Mof_S 	S 	0.55264	0.29858	0.46024	-0.062
Mof_C 	C 	0.64316	0.40166	0.03922	0.097
Mof_C 	C 	0.78586	0.40218	0.16746	0.033
Mof_H 	H 	0.7869	0.3957	0.1501	0.016
Mof_C 	C 	0.75386	0.4101	0.19362	-0.045
Mof_C 	C 	0.75077	0.42147	0.21889	0.007
Mof_H 	H 	0.7287	0.4271	0.2375	0.038
Mof_C 	C 	0.7812	0.42394	0.21526	-0.1
Mof_H 	H 	0.7803	0.4323	0.2311	0.066
Mof_C 	C 	0.81273	0.41453	0.18919	0.059
Mof_H 	H 	0.8334	0.416	0.188	-0
Mof_C 	C 	0.69585	0.38669	0.08485	0.058
Mof_H 	H 	0.6955	0.3853	0.0649	-0.001
Mof_C 	C 	0.72452	0.39102	0.08168	-0.103
Mof_H 	H 	0.7444	0.3916	0.06	0.066
Mof_C 	C 	0.7255	0.39458	0.1089	0.014
Mof_H 	H 	0.7458	0.398	0.1062	0.035
Mof_C 	C 	0.6967	0.3932	0.14078	-0.051
Mof_C 	C 	0.66838	0.38754	0.14326	0.036
Mof_H 	H 	0.6487	0.3859	0.1651	0.017
Mof_C 	C 	0.69729	0.39521	0.17189	0.138
Mof_C 	C 	0.72263	0.40411	0.19647	0.135
Mof_C 	C 	0.6722	0.3912	0.2301	0.133
Mof_C 	C 	0.59452	0.36736	0.33166	0.06
Mof_H 	H 	0.5767	0.3627	0.3547	0.001
Mof_C 	C 	0.5898	0.36872	0.30348	-0.099
Mof_H 	H 	0.5696	0.3646	0.307	0.066
Mof_C 	C 	0.61547	0.37645	0.26951	0.009
Mof_H 	H 	0.613	0.3776	0.2494	0.038
Mof_C 	C 	0.64372	0.38236	0.26526	-0.048
Mof_C 	C 	0.6474	0.37912	0.29618	0.037
Mof_H 	H 	0.6681	0.3819	0.2935	0.014
Mof_C 	C 	0.63454	0.33876	0.44792	0.059
Mof_H 	H 	0.632	0.3196	0.4472	0
Mof_C 	C 	0.64249	0.33271	0.47689	-0.099
Mof_H 	H 	0.647	0.3096	0.4946	0.067
Mof_C 	C 	0.64355	0.36145	0.47885	0.01
Mof_H 	H 	0.6478	0.3586	0.4986	0.037
Mof_C 	C 	0.63838	0.39424	0.45194	-0.055
Mof_C 	C 	0.63165	0.39697	0.42359	0.048
Mof_H 	H 	0.6278	0.4196	0.405	0.009
Mof_C 	C 	0.63873	0.42577	0.45285	0.135
Mof_C 	C 	0.57715	0.32373	0.42925	0.108
Mof_Co	Co	0.625	0.86714	0.125	1.121
Mof_Co	Co	0.86714	0.625	0.38286	1.121
Mof_Co	Co	0.125	0.38286	0.625	1.121
Mof_Co	Co	0.38286	0.125	0.86714	1.121
Mof_Co	Co	0.125	0.625	0.86714	1.121
Mof_Co	Co	0.38286	0.86714	0.625	1.121
Mof_Co	Co	0.625	0.125	0.38286	1.121
Mof_Co	Co	0.86714	0.38286	0.125	1.121
Mof_Co	Co	0.86714	0.125	0.625	1.121
Mof_Co	Co	0.625	0.38286	0.86714	1.121
Mof_Co	Co	0.38286	0.625	0.125	1.121
Mof_Co	Co	0.125	0.86714	0.38286	1.121
Mof_Co	Co	0.125	0.88286	0.625	1.121
Mof_Co	Co	0.88286	0.125	0.36714	1.121
Mof_Co	Co	0.625	0.36714	0.125	1.121
Mof_Co	Co	0.36714	0.625	0.88286	1.121
Mof_Co	Co	0.625	0.125	0.88286	1.121
Mof_Co	Co	0.36714	0.88286	0.125	1.121
Mof_Co	Co	0.125	0.625	0.36714	1.121
Mof_Co	Co	0.88286	0.36714	0.625	1.121
Mof_Co	Co	0.88286	0.625	0.125	1.121
Mof_Co	Co	0.125	0.36714	0.88286	1.121
Mof_Co	Co	0.36714	0.125	0.625	1.121
Mof_Co	Co	0.625	0.88286	0.36714	1.121
Mof_Co	Co	0.87356	0.87356	0.12644	1.123
Mof_Co	Co	0.12644	0.12644	0.87356	1.123
Mof_Co	Co	0.12644	0.87356	0.87356	1.123
Mof_Co	Co	0.87356	0.12644	0.12644	1.123
Mof_Co	Co	0.87356	0.12644	0.87356	1.123
Mof_Co	Co	0.12644	0.87356	0.12644	1.123
Mof_Co	Co	0.37644	0.37644	0.12356	1.123
Mof_Co	Co	0.12356	0.12356	0.37644	1.123
Mof_Co	Co	0.12356	0.37644	0.12356	1.123
Mof_Co	Co	0.37644	0.12356	0.37644	1.123
Mof_Co	Co	0.37644	0.12356	0.12356	1.123
Mof_Co	Co	0.12356	0.37644	0.37644	1.123
Mof_Co	Co	0.87644	0.87644	0.62356	1.123
Mof_Co	Co	0.62356	0.62356	0.87644	1.123
Mof_Co	Co	0.62356	0.87644	0.87644	1.123
Mof_Co	Co	0.87644	0.62356	0.62356	1.123
Mof_Co	Co	0.87644	0.62356	0.87644	1.123
Mof_Co	Co	0.62356	0.87644	0.62356	1.123
Mof_Co	Co	0.37356	0.37356	0.62644	1.123
Mof_Co	Co	0.62644	0.62644	0.37356	1.123
Mof_Co	Co	0.62644	0.37356	0.62644	1.123
Mof_Co	Co	0.37356	0.62644	0.37356	1.123
Mof_Co	Co	0.37356	0.62644	0.62644	1.123
Mof_Co	Co	0.62644	0.37356	0.37356	1.123
_end
