data_functionalizedCrystal
_audit_creation_method	'EQeq! by Chris Wilmer'
_symmetry_space_group_name_H-M	'P1'
_symmetry_Int_Tables_number	1
_symmetry_cell_setting	triclinic
loop_
_symmetry_equiv_pos_as_xyz
  x,y,z
_cell_length_a	21.8815
_cell_length_b	21.8815
_cell_length_c	75.31
_cell_angle_alpha	90
_cell_angle_beta	90
_cell_angle_gamma	120
loop_
_atom_site_label
_atom_site_type_symbol
_atom_site_fract_x
_atom_site_fract_y
_atom_site_fract_z
_atom_site_charge
Mof_Ag	Ag	0.43243	0.74044	0.00547	0.365
Mof_Ag	Ag	0.43175	0.69276	0.85749	0.332
Mof_Ca	Ca	0.63054	0.8675	0.90621	1.136
Mof_S 	S 	0.45857	0.75814	0.9613	-0.293
Mof_S 	S 	0.36471	0.79051	0.01944	-0.257
Mof_N 	N 	0.5342	0.8155	0.99093	-0.211
Mof_N 	N 	0.5348	0.7193	0.84314	-0.209
Mof_O 	O 	0.5813	0.8916	0.93484	-0.536
Mof_O 	O 	0.6288	0.826	0.93689	-0.443
Mof_O 	O 	0.6746	0.8938	0.87767	-0.46
Mof_O 	O 	0.7795	0.986	0.87929	-0.312
Mof_C 	C 	0.5354	0.8153	0.97354	0.145
Mof_C 	C 	0.5981	0.8594	0.9635	-0.205
Mof_C 	C 	0.6592	0.9051	0.97324	0.111
Mof_H 	H 	0.7009	0.9359	0.9674	-0.019
Mof_C 	C 	0.656	0.9033	0.99155	-0.183
Mof_H 	H 	0.6961	0.9319	0.9982	0.088
Mof_C 	C 	0.5929	0.8588	0.99986	0.107
Mof_H 	H 	0.5912	0.8589	0.0122	-0.021
Mof_C 	C 	0.6031	0.8594	0.94375	0.439
Mof_C 	C 	0.7299	0.9345	0.87096	0.403
Mof_C 	C 	0.7346	0.9293	0.8507	-0.174
Mof_C 	C 	0.798	0.9476	0.84114	0.135
Mof_C 	C 	0.5942	0.737	0.85192	0.12
Mof_H 	H 	0.593	0.7381	0.8643	-0.039
Mof_C 	C 	0.6569	0.7537	0.84397	-0.187
Mof_H 	H 	0.6965	0.7635	0.8507	0.087
Mof_C 	C 	0.6591	0.7552	0.82607	0.107
Mof_H 	H 	0.7015	0.7685	0.8203	0.002
Mof_Ag	Ag	0.0991	0.07377	0.3388	0.364
Mof_Ag	Ag	0.09842	0.02609	0.19083	0.331
Mof_Ca	Ca	0.29721	0.20083	0.23954	1.135
Mof_S 	S 	0.12524	0.09147	0.29463	-0.294
Mof_S 	S 	0.03138	0.12384	0.35277	-0.259
Mof_N 	N 	0.20087	0.14883	0.32426	-0.212
Mof_N 	N 	0.20147	0.05263	0.17647	-0.21
Mof_O 	O 	0.24797	0.22493	0.26817	-0.537
Mof_O 	O 	0.29547	0.15933	0.27022	-0.444
Mof_O 	O 	0.34127	0.22713	0.211	-0.461
Mof_O 	O 	0.44617	0.31933	0.21262	-0.313
Mof_C 	C 	0.20207	0.14863	0.30687	0.144
Mof_C 	C 	0.26477	0.19273	0.29683	-0.206
Mof_C 	C 	0.32587	0.23843	0.30657	0.11
Mof_H 	H 	0.36757	0.26923	0.30073	-0.02
Mof_C 	C 	0.32267	0.23663	0.32488	-0.184
Mof_H 	H 	0.36277	0.26523	0.33153	0.087
Mof_C 	C 	0.25957	0.19213	0.33319	0.106
Mof_H 	H 	0.25787	0.19223	0.34553	-0.022
Mof_C 	C 	0.26977	0.19273	0.27708	0.438
Mof_C 	C 	0.39657	0.26783	0.20429	0.402
Mof_C 	C 	0.40127	0.26263	0.18403	-0.175
Mof_C 	C 	0.46467	0.28093	0.17447	0.134
Mof_C 	C 	0.26087	0.07033	0.18525	0.119
Mof_H 	H 	0.25967	0.07143	0.19763	-0.04
Mof_C 	C 	0.32357	0.08703	0.1773	-0.188
Mof_H 	H 	0.36317	0.09683	0.18403	0.086
Mof_C 	C 	0.32577	0.08853	0.1594	0.106
Mof_H 	H 	0.36817	0.10183	0.15363	0.002
Mof_Ag	Ag	0.76576	0.40711	0.67213	0.364
Mof_Ag	Ag	0.76508	0.35943	0.52416	0.331
Mof_Ca	Ca	0.96387	0.53417	0.57288	1.135
Mof_S 	S 	0.7919	0.42481	0.62797	-0.294
Mof_S 	S 	0.69804	0.45718	0.68611	-0.258
Mof_N 	N 	0.86753	0.48217	0.6576	-0.212
Mof_N 	N 	0.86813	0.38597	0.50981	-0.21
Mof_O 	O 	0.91463	0.55827	0.60151	-0.537
Mof_O 	O 	0.96213	0.49267	0.60356	-0.444
Mof_O 	O 	0.00793	0.56047	0.54434	-0.461
Mof_O 	O 	0.11283	0.65267	0.54596	-0.313
Mof_C 	C 	0.86873	0.48197	0.64021	0.144
Mof_C 	C 	0.93143	0.52607	0.63017	-0.206
Mof_C 	C 	0.99253	0.57177	0.63991	0.11
Mof_H 	H 	0.03423	0.60257	0.63407	-0.02
Mof_C 	C 	0.98933	0.56997	0.65822	-0.185
Mof_H 	H 	0.02943	0.59857	0.66487	0.087
Mof_C 	C 	0.92623	0.52547	0.66653	0.106
Mof_H 	H 	0.92453	0.52557	0.67887	-0.022
Mof_C 	C 	0.93643	0.52607	0.61042	0.438
Mof_C 	C 	0.06323	0.60117	0.53763	0.402
Mof_C 	C 	0.06793	0.59597	0.51737	-0.175
Mof_C 	C 	0.13133	0.61427	0.50781	0.133
Mof_C 	C 	0.92753	0.40367	0.51859	0.119
Mof_H 	H 	0.92633	0.40477	0.53097	-0.04
Mof_C 	C 	0.99023	0.42037	0.51064	-0.188
Mof_H 	H 	0.02983	0.43017	0.51737	0.086
Mof_C 	C 	0.99243	0.42187	0.49274	0.106
Mof_H 	H 	0.03483	0.43517	0.48697	0.002
Mof_Ag	Ag	0.25956	0.69199	0.00547	0.364
Mof_Ag	Ag	0.30724	0.73899	0.85749	0.331
Mof_Ca	Ca	0.1325	0.76304	0.90621	1.135
Mof_S 	S 	0.24186	0.70043	0.9613	-0.294
Mof_S 	S 	0.20949	0.5742	0.01944	-0.258
Mof_N 	N 	0.1845	0.7187	0.99093	-0.212
Mof_N 	N 	0.2807	0.8155	0.84314	-0.21
Mof_O 	O 	0.1084	0.6897	0.93484	-0.537
Mof_O 	O 	0.174	0.8028	0.93689	-0.444
Mof_O 	O 	0.1062	0.7808	0.87767	-0.461
Mof_O 	O 	0.014	0.7935	0.87929	-0.313
Mof_C 	C 	0.1847	0.7201	0.97354	0.144
Mof_C 	C 	0.1406	0.7387	0.9635	-0.206
Mof_C 	C 	0.0949	0.7541	0.97324	0.11
Mof_H 	H 	0.0641	0.765	0.9674	-0.02
Mof_C 	C 	0.0967	0.7527	0.99155	-0.184
Mof_H 	H 	0.0681	0.7642	0.9982	0.087
Mof_C 	C 	0.1412	0.7341	0.99986	0.106
Mof_H 	H 	0.1411	0.7323	0.0122	-0.022
Mof_C 	C 	0.1406	0.7437	0.94375	0.438
Mof_C 	C 	0.0655	0.7954	0.87096	0.402
Mof_C 	C 	0.0707	0.8053	0.8507	-0.175
Mof_C 	C 	0.0524	0.8504	0.84114	0.134
Mof_C 	C 	0.263	0.8572	0.85192	0.119
Mof_H 	H 	0.2619	0.8549	0.8643	-0.04
Mof_C 	C 	0.2463	0.9032	0.84397	-0.188
Mof_H 	H 	0.2365	0.933	0.8507	0.086
Mof_C 	C 	0.2448	0.9039	0.82607	0.106
Mof_H 	H 	0.2315	0.933	0.8203	0.002
Mof_Ag	Ag	0.92623	0.02532	0.3388	0.364
Mof_Ag	Ag	0.97391	0.07232	0.19083	0.331
Mof_Ca	Ca	0.79917	0.09637	0.23954	1.135
Mof_S 	S 	0.90853	0.03376	0.29463	-0.294
Mof_S 	S 	0.87616	0.90753	0.35277	-0.259
Mof_N 	N 	0.85117	0.05203	0.32426	-0.212
Mof_N 	N 	0.94737	0.14883	0.17647	-0.21
Mof_O 	O 	0.77507	0.02303	0.26817	-0.537
Mof_O 	O 	0.84067	0.13613	0.27022	-0.444
Mof_O 	O 	0.77287	0.11413	0.211	-0.461
Mof_O 	O 	0.68067	0.12683	0.21262	-0.313
Mof_C 	C 	0.85137	0.05343	0.30687	0.144
Mof_C 	C 	0.80727	0.07203	0.29683	-0.206
Mof_C 	C 	0.76157	0.08743	0.30657	0.11
Mof_H 	H 	0.73077	0.09833	0.30073	-0.02
Mof_C 	C 	0.76337	0.08603	0.32488	-0.184
Mof_H 	H 	0.73477	0.09753	0.33153	0.087
Mof_C 	C 	0.80787	0.06743	0.33319	0.106
Mof_H 	H 	0.80777	0.06563	0.34553	-0.022
Mof_C 	C 	0.80727	0.07703	0.27708	0.438
Mof_C 	C 	0.73217	0.12873	0.20429	0.402
Mof_C 	C 	0.73737	0.13863	0.18403	-0.175
Mof_C 	C 	0.71907	0.18373	0.17447	0.134
Mof_C 	C 	0.92967	0.19053	0.18525	0.119
Mof_H 	H 	0.92857	0.18823	0.19763	-0.04
Mof_C 	C 	0.91297	0.23653	0.1773	-0.188
Mof_H 	H 	0.90317	0.26633	0.18403	0.086
Mof_C 	C 	0.91147	0.23723	0.1594	0.106
Mof_H 	H 	0.89817	0.26633	0.15363	0.002
Mof_Ag	Ag	0.59289	0.35866	0.67213	0.364
Mof_Ag	Ag	0.64057	0.40566	0.52416	0.331
Mof_Ca	Ca	0.46583	0.42971	0.57288	1.135
Mof_S 	S 	0.57519	0.3671	0.62797	-0.294
Mof_S 	S 	0.54282	0.24087	0.68611	-0.258
Mof_N 	N 	0.51783	0.38537	0.6576	-0.212
Mof_N 	N 	0.61403	0.48217	0.50981	-0.21
Mof_O 	O 	0.44173	0.35637	0.60151	-0.537
Mof_O 	O 	0.50733	0.46947	0.60356	-0.444
Mof_O 	O 	0.43953	0.44747	0.54434	-0.461
Mof_O 	O 	0.34733	0.46017	0.54596	-0.313
Mof_C 	C 	0.51803	0.38677	0.64021	0.144
Mof_C 	C 	0.47393	0.40537	0.63017	-0.206
Mof_C 	C 	0.42823	0.42077	0.63991	0.11
Mof_H 	H 	0.39743	0.43167	0.63407	-0.02
Mof_C 	C 	0.43003	0.41937	0.65822	-0.184
Mof_H 	H 	0.40143	0.43087	0.66487	0.087
Mof_C 	C 	0.47453	0.40077	0.66653	0.106
Mof_H 	H 	0.47443	0.39897	0.67887	-0.022
Mof_C 	C 	0.47393	0.41037	0.61042	0.438
Mof_C 	C 	0.39883	0.46207	0.53763	0.402
Mof_C 	C 	0.40403	0.47197	0.51737	-0.174
Mof_C 	C 	0.38573	0.51707	0.50781	0.133
Mof_C 	C 	0.59633	0.52387	0.51859	0.119
Mof_H 	H 	0.59523	0.52157	0.53097	-0.04
Mof_C 	C 	0.57963	0.56987	0.51064	-0.188
Mof_H 	H 	0.56983	0.59967	0.51737	0.086
Mof_C 	C 	0.57813	0.57057	0.49274	0.105
Mof_H 	H 	0.56483	0.59967	0.48697	0.002
Mof_Ag	Ag	0.30801	0.56757	0.00547	0.364
Mof_Ag	Ag	0.26101	0.56825	0.85749	0.331
Mof_Ca	Ca	0.23696	0.36946	0.90621	1.135
Mof_S 	S 	0.29957	0.54143	0.9613	-0.294
Mof_S 	S 	0.4258	0.63529	0.01944	-0.258
Mof_N 	N 	0.2813	0.4658	0.99093	-0.212
Mof_N 	N 	0.1845	0.4652	0.84314	-0.21
Mof_O 	O 	0.3103	0.4187	0.93484	-0.537
Mof_O 	O 	0.1972	0.3712	0.93689	-0.444
Mof_O 	O 	0.2192	0.3254	0.87767	-0.461
Mof_O 	O 	0.2065	0.2205	0.87929	-0.313
Mof_C 	C 	0.2799	0.4646	0.97354	0.144
Mof_C 	C 	0.2613	0.4019	0.9635	-0.206
Mof_C 	C 	0.2459	0.3408	0.97324	0.11
Mof_H 	H 	0.235	0.2991	0.9674	-0.02
Mof_C 	C 	0.2473	0.344	0.99155	-0.184
Mof_H 	H 	0.2358	0.3039	0.9982	0.087
Mof_C 	C 	0.2659	0.4071	0.99986	0.106
Mof_H 	H 	0.2677	0.4088	0.0122	-0.022
Mof_C 	C 	0.2563	0.3969	0.94375	0.438
Mof_C 	C 	0.2046	0.2701	0.87096	0.402
Mof_C 	C 	0.1947	0.2654	0.8507	-0.175
Mof_C 	C 	0.1496	0.202	0.84114	0.134
Mof_C 	C 	0.1428	0.4058	0.85192	0.119
Mof_H 	H 	0.1451	0.407	0.8643	-0.04
Mof_C 	C 	0.0968	0.3431	0.84397	-0.188
Mof_H 	H 	0.067	0.3035	0.8507	0.086
Mof_C 	C 	0.0961	0.3409	0.82607	0.106
Mof_H 	H 	0.067	0.2985	0.8203	0.002
Mof_Ag	Ag	0.97468	0.9009	0.3388	0.364
Mof_Ag	Ag	0.92768	0.90158	0.19083	0.331
Mof_Ca	Ca	0.90363	0.70279	0.23954	1.135
Mof_S 	S 	0.96624	0.87476	0.29463	-0.294
Mof_S 	S 	0.09247	0.96862	0.35277	-0.259
Mof_N 	N 	0.94797	0.79913	0.32426	-0.212
Mof_N 	N 	0.85117	0.79853	0.17647	-0.21
Mof_O 	O 	0.97697	0.75203	0.26817	-0.537
Mof_O 	O 	0.86387	0.70453	0.27022	-0.444
Mof_O 	O 	0.88587	0.65873	0.211	-0.461
Mof_O 	O 	0.87317	0.55383	0.21262	-0.313
Mof_C 	C 	0.94657	0.79793	0.30687	0.144
Mof_C 	C 	0.92797	0.73523	0.29683	-0.206
Mof_C 	C 	0.91257	0.67413	0.30657	0.11
Mof_H 	H 	0.90167	0.63243	0.30073	-0.02
Mof_C 	C 	0.91397	0.67733	0.32488	-0.184
Mof_H 	H 	0.90247	0.63723	0.33153	0.087
Mof_C 	C 	0.93257	0.74043	0.33319	0.106
Mof_H 	H 	0.93437	0.74213	0.34553	-0.022
Mof_C 	C 	0.92297	0.73023	0.27708	0.438
Mof_C 	C 	0.87127	0.60343	0.20429	0.402
Mof_C 	C 	0.86137	0.59873	0.18403	-0.175
Mof_C 	C 	0.81627	0.53533	0.17447	0.134
Mof_C 	C 	0.80947	0.73913	0.18525	0.119
Mof_H 	H 	0.81177	0.74033	0.19763	-0.04
Mof_C 	C 	0.76347	0.67643	0.1773	-0.188
Mof_H 	H 	0.73367	0.63683	0.18403	0.086
Mof_C 	C 	0.76277	0.67423	0.1594	0.106
Mof_H 	H 	0.73367	0.63183	0.15363	0.002
Mof_Ag	Ag	0.64134	0.23424	0.67213	0.364
Mof_Ag	Ag	0.59434	0.23492	0.52416	0.331
Mof_Ca	Ca	0.57029	0.03613	0.57288	1.135
Mof_S 	S 	0.6329	0.2081	0.62797	-0.294
Mof_S 	S 	0.75913	0.30196	0.68611	-0.258
Mof_N 	N 	0.61463	0.13247	0.6576	-0.212
Mof_N 	N 	0.51783	0.13187	0.50981	-0.21
Mof_O 	O 	0.64363	0.08537	0.60151	-0.537
Mof_O 	O 	0.53053	0.03787	0.60356	-0.444
Mof_O 	O 	0.55253	0.99207	0.54434	-0.461
Mof_O 	O 	0.53983	0.88717	0.54596	-0.313
Mof_C 	C 	0.61323	0.13127	0.64021	0.144
Mof_C 	C 	0.59463	0.06857	0.63017	-0.206
Mof_C 	C 	0.57923	0.00747	0.63991	0.11
Mof_H 	H 	0.56833	0.96577	0.63407	-0.02
Mof_C 	C 	0.58063	0.01067	0.65822	-0.185
Mof_H 	H 	0.56913	0.97057	0.66487	0.087
Mof_C 	C 	0.59923	0.07377	0.66653	0.106
Mof_H 	H 	0.60103	0.07547	0.67887	-0.022
Mof_C 	C 	0.58963	0.06357	0.61042	0.438
Mof_C 	C 	0.53793	0.93677	0.53763	0.402
Mof_C 	C 	0.52803	0.93207	0.51737	-0.174
Mof_C 	C 	0.48293	0.86867	0.50781	0.133
Mof_C 	C 	0.47613	0.07247	0.51859	0.119
Mof_H 	H 	0.47843	0.07367	0.53097	-0.04
Mof_C 	C 	0.43013	0.00977	0.51064	-0.188
Mof_H 	H 	0.40033	0.97017	0.51737	0.086
Mof_C 	C 	0.42943	0.00757	0.49274	0.106
Mof_H 	H 	0.40033	0.96517	0.48697	0.002
Mof_Ag	Ag	0.74044	0.43243	0.49453	0.364
Mof_Ag	Ag	0.69276	0.43175	0.64251	0.331
Mof_Ca	Ca	0.8675	0.63054	0.59379	1.135
Mof_S 	S 	0.75814	0.45857	0.5387	-0.294
Mof_S 	S 	0.79051	0.36471	0.48056	-0.258
Mof_N 	N 	0.8155	0.5342	0.50907	-0.212
Mof_N 	N 	0.7193	0.5348	0.65686	-0.21
Mof_O 	O 	0.8916	0.5813	0.56516	-0.537
Mof_O 	O 	0.826	0.6288	0.56311	-0.444
Mof_O 	O 	0.8938	0.6746	0.62233	-0.461
Mof_O 	O 	0.986	0.7795	0.62071	-0.313
Mof_C 	C 	0.8153	0.5354	0.52646	0.144
Mof_C 	C 	0.8594	0.5981	0.5365	-0.206
Mof_C 	C 	0.9051	0.6592	0.52676	0.11
Mof_H 	H 	0.9359	0.7009	0.5326	-0.02
Mof_C 	C 	0.9033	0.656	0.50845	-0.184
Mof_H 	H 	0.9319	0.6961	0.5018	0.087
Mof_C 	C 	0.8588	0.5929	0.50014	0.106
Mof_H 	H 	0.8589	0.5912	0.4878	-0.022
Mof_C 	C 	0.8594	0.6031	0.55625	0.438
Mof_C 	C 	0.9345	0.7299	0.62904	0.402
Mof_C 	C 	0.9293	0.7346	0.6493	-0.175
Mof_C 	C 	0.9476	0.798	0.65886	0.134
Mof_C 	C 	0.737	0.5942	0.64808	0.119
Mof_H 	H 	0.7381	0.593	0.6357	-0.04
Mof_C 	C 	0.7537	0.6569	0.65603	-0.188
Mof_H 	H 	0.7635	0.6965	0.6493	0.086
Mof_C 	C 	0.7552	0.6591	0.67393	0.106
Mof_H 	H 	0.7685	0.7015	0.6797	0.002
Mof_Ag	Ag	0.40711	0.76576	0.82787	0.364
Mof_Ag	Ag	0.35943	0.76508	0.97584	0.331
Mof_Ca	Ca	0.53417	0.96387	0.92712	1.135
Mof_S 	S 	0.42481	0.7919	0.87203	-0.294
Mof_S 	S 	0.45718	0.69804	0.81389	-0.258
Mof_N 	N 	0.48217	0.86753	0.8424	-0.212
Mof_N 	N 	0.38597	0.86813	0.99019	-0.21
Mof_O 	O 	0.55827	0.91463	0.89849	-0.537
Mof_O 	O 	0.49267	0.96213	0.89644	-0.444
Mof_O 	O 	0.56047	0.00793	0.95566	-0.461
Mof_O 	O 	0.65267	0.11283	0.95404	-0.313
Mof_C 	C 	0.48197	0.86873	0.85979	0.144
Mof_C 	C 	0.52607	0.93143	0.86983	-0.206
Mof_C 	C 	0.57177	0.99253	0.86009	0.11
Mof_H 	H 	0.60257	0.03423	0.86593	-0.02
Mof_C 	C 	0.56997	0.98933	0.84178	-0.185
Mof_H 	H 	0.59857	0.02943	0.83513	0.087
Mof_C 	C 	0.52547	0.92623	0.83347	0.106
Mof_H 	H 	0.52557	0.92453	0.82113	-0.022
Mof_C 	C 	0.52607	0.93643	0.88958	0.438
Mof_C 	C 	0.60117	0.06323	0.96237	0.402
Mof_C 	C 	0.59597	0.06793	0.98263	-0.175
Mof_C 	C 	0.61427	0.13133	0.99219	0.133
Mof_C 	C 	0.40367	0.92753	0.98141	0.119
Mof_H 	H 	0.40477	0.92633	0.96903	-0.04
Mof_C 	C 	0.42037	0.99023	0.98936	-0.188
Mof_H 	H 	0.43017	0.02983	0.98263	0.086
Mof_C 	C 	0.42187	0.99243	0.00726	0.106
Mof_H 	H 	0.43517	0.03483	0.01303	0.002
Mof_Ag	Ag	0.07377	0.0991	0.1612	0.364
Mof_Ag	Ag	0.02609	0.09842	0.30917	0.331
Mof_Ca	Ca	0.20083	0.29721	0.26046	1.135
Mof_S 	S 	0.09147	0.12524	0.20537	-0.294
Mof_S 	S 	0.12384	0.03138	0.14723	-0.259
Mof_N 	N 	0.14883	0.20087	0.17574	-0.212
Mof_N 	N 	0.05263	0.20147	0.32353	-0.21
Mof_O 	O 	0.22493	0.24797	0.23183	-0.537
Mof_O 	O 	0.15933	0.29547	0.22978	-0.444
Mof_O 	O 	0.22713	0.34127	0.289	-0.461
Mof_O 	O 	0.31933	0.44617	0.28738	-0.313
Mof_C 	C 	0.14863	0.20207	0.19313	0.144
Mof_C 	C 	0.19273	0.26477	0.20317	-0.206
Mof_C 	C 	0.23843	0.32587	0.19343	0.11
Mof_H 	H 	0.26923	0.36757	0.19927	-0.02
Mof_C 	C 	0.23663	0.32267	0.17512	-0.184
Mof_H 	H 	0.26523	0.36277	0.16847	0.087
Mof_C 	C 	0.19213	0.25957	0.16681	0.106
Mof_H 	H 	0.19223	0.25787	0.15447	-0.022
Mof_C 	C 	0.19273	0.26977	0.22292	0.438
Mof_C 	C 	0.26783	0.39657	0.29571	0.402
Mof_C 	C 	0.26263	0.40127	0.31597	-0.175
Mof_C 	C 	0.28093	0.46467	0.32553	0.134
Mof_C 	C 	0.07033	0.26087	0.31475	0.119
Mof_H 	H 	0.07143	0.25967	0.30237	-0.04
Mof_C 	C 	0.08703	0.32357	0.3227	-0.188
Mof_H 	H 	0.09683	0.36317	0.31597	0.086
Mof_C 	C 	0.08853	0.32577	0.3406	0.106
Mof_H 	H 	0.10183	0.36817	0.34637	0.002
Mof_Ag	Ag	0.69199	0.25956	0.49453	0.364
Mof_Ag	Ag	0.73899	0.30724	0.64251	0.331
Mof_Ca	Ca	0.76304	0.1325	0.59379	1.135
Mof_S 	S 	0.70043	0.24186	0.5387	-0.294
Mof_S 	S 	0.5742	0.20949	0.48056	-0.258
Mof_N 	N 	0.7187	0.1845	0.50907	-0.212
Mof_N 	N 	0.8155	0.2807	0.65686	-0.21
Mof_O 	O 	0.6897	0.1084	0.56516	-0.537
Mof_O 	O 	0.8028	0.174	0.56311	-0.444
Mof_O 	O 	0.7808	0.1062	0.62233	-0.461
Mof_O 	O 	0.7935	0.014	0.62071	-0.313
Mof_C 	C 	0.7201	0.1847	0.52646	0.144
Mof_C 	C 	0.7387	0.1406	0.5365	-0.206
Mof_C 	C 	0.7541	0.0949	0.52676	0.11
Mof_H 	H 	0.765	0.0641	0.5326	-0.02
Mof_C 	C 	0.7527	0.0967	0.50845	-0.184
Mof_H 	H 	0.7642	0.0681	0.5018	0.087
Mof_C 	C 	0.7341	0.1412	0.50014	0.106
Mof_H 	H 	0.7323	0.1411	0.4878	-0.022
Mof_C 	C 	0.7437	0.1406	0.55625	0.438
Mof_C 	C 	0.7954	0.0655	0.62904	0.402
Mof_C 	C 	0.8053	0.0707	0.6493	-0.175
Mof_C 	C 	0.8504	0.0524	0.65886	0.134
Mof_C 	C 	0.8572	0.263	0.64808	0.119
Mof_H 	H 	0.8549	0.2619	0.6357	-0.04
Mof_C 	C 	0.9032	0.2463	0.65603	-0.188
Mof_H 	H 	0.933	0.2365	0.6493	0.086
Mof_C 	C 	0.9039	0.2448	0.67393	0.106
Mof_H 	H 	0.933	0.2315	0.6797	0.002
Mof_Ag	Ag	0.35866	0.59289	0.82787	0.364
Mof_Ag	Ag	0.40566	0.64057	0.97584	0.331
Mof_Ca	Ca	0.42971	0.46583	0.92712	1.135
Mof_S 	S 	0.3671	0.57519	0.87203	-0.294
Mof_S 	S 	0.24087	0.54282	0.81389	-0.258
Mof_N 	N 	0.38537	0.51783	0.8424	-0.212
Mof_N 	N 	0.48217	0.61403	0.99019	-0.21
Mof_O 	O 	0.35637	0.44173	0.89849	-0.537
Mof_O 	O 	0.46947	0.50733	0.89644	-0.444
Mof_O 	O 	0.44747	0.43953	0.95566	-0.461
Mof_O 	O 	0.46017	0.34733	0.95404	-0.313
Mof_C 	C 	0.38677	0.51803	0.85979	0.144
Mof_C 	C 	0.40537	0.47393	0.86983	-0.206
Mof_C 	C 	0.42077	0.42823	0.86009	0.11
Mof_H 	H 	0.43167	0.39743	0.86593	-0.02
Mof_C 	C 	0.41937	0.43003	0.84178	-0.184
Mof_H 	H 	0.43087	0.40143	0.83513	0.087
Mof_C 	C 	0.40077	0.47453	0.83347	0.106
Mof_H 	H 	0.39897	0.47443	0.82113	-0.022
Mof_C 	C 	0.41037	0.47393	0.88958	0.438
Mof_C 	C 	0.46207	0.39883	0.96237	0.402
Mof_C 	C 	0.47197	0.40403	0.98263	-0.174
Mof_C 	C 	0.51707	0.38573	0.99219	0.133
Mof_C 	C 	0.52387	0.59633	0.98141	0.119
Mof_H 	H 	0.52157	0.59523	0.96903	-0.04
Mof_C 	C 	0.56987	0.57963	0.98936	-0.188
Mof_H 	H 	0.59967	0.56983	0.98263	0.086
Mof_C 	C 	0.57057	0.57813	0.00726	0.105
Mof_H 	H 	0.59967	0.56483	0.01303	0.002
Mof_Ag	Ag	0.02532	0.92623	0.1612	0.364
Mof_Ag	Ag	0.07232	0.97391	0.30917	0.331
Mof_Ca	Ca	0.09637	0.79917	0.26046	1.135
Mof_S 	S 	0.03376	0.90853	0.20537	-0.294
Mof_S 	S 	0.90753	0.87616	0.14723	-0.259
Mof_N 	N 	0.05203	0.85117	0.17574	-0.212
Mof_N 	N 	0.14883	0.94737	0.32353	-0.21
Mof_O 	O 	0.02303	0.77507	0.23183	-0.537
Mof_O 	O 	0.13613	0.84067	0.22978	-0.444
Mof_O 	O 	0.11413	0.77287	0.289	-0.461
Mof_O 	O 	0.12683	0.68067	0.28738	-0.313
Mof_C 	C 	0.05343	0.85137	0.19313	0.144
Mof_C 	C 	0.07203	0.80727	0.20317	-0.206
Mof_C 	C 	0.08743	0.76157	0.19343	0.11
Mof_H 	H 	0.09833	0.73077	0.19927	-0.02
Mof_C 	C 	0.08603	0.76337	0.17512	-0.184
Mof_H 	H 	0.09753	0.73477	0.16847	0.087
Mof_C 	C 	0.06743	0.80787	0.16681	0.106
Mof_H 	H 	0.06563	0.80777	0.15447	-0.022
Mof_C 	C 	0.07703	0.80727	0.22292	0.438
Mof_C 	C 	0.12873	0.73217	0.29571	0.402
Mof_C 	C 	0.13863	0.73737	0.31597	-0.175
Mof_C 	C 	0.18373	0.71907	0.32553	0.134
Mof_C 	C 	0.19053	0.92967	0.31475	0.119
Mof_H 	H 	0.18823	0.92857	0.30237	-0.04
Mof_C 	C 	0.23653	0.91297	0.3227	-0.188
Mof_H 	H 	0.26633	0.90317	0.31597	0.086
Mof_C 	C 	0.23723	0.91147	0.3406	0.106
Mof_H 	H 	0.26633	0.89817	0.34637	0.002
Mof_Ag	Ag	0.56757	0.30801	0.49453	0.364
Mof_Ag	Ag	0.56825	0.26101	0.64251	0.331
Mof_Ca	Ca	0.36946	0.23696	0.59379	1.135
Mof_S 	S 	0.54143	0.29957	0.5387	-0.294
Mof_S 	S 	0.63529	0.4258	0.48056	-0.258
Mof_N 	N 	0.4658	0.2813	0.50907	-0.212
Mof_N 	N 	0.4652	0.1845	0.65686	-0.21
Mof_O 	O 	0.4187	0.3103	0.56516	-0.537
Mof_O 	O 	0.3712	0.1972	0.56311	-0.444
Mof_O 	O 	0.3254	0.2192	0.62233	-0.461
Mof_O 	O 	0.2205	0.2065	0.62071	-0.313
Mof_C 	C 	0.4646	0.2799	0.52646	0.144
Mof_C 	C 	0.4019	0.2613	0.5365	-0.206
Mof_C 	C 	0.3408	0.2459	0.52676	0.11
Mof_H 	H 	0.2991	0.235	0.5326	-0.02
Mof_C 	C 	0.344	0.2473	0.50845	-0.184
Mof_H 	H 	0.3039	0.2358	0.5018	0.087
Mof_C 	C 	0.4071	0.2659	0.50014	0.106
Mof_H 	H 	0.4088	0.2677	0.4878	-0.022
Mof_C 	C 	0.3969	0.2563	0.55625	0.438
Mof_C 	C 	0.2701	0.2046	0.62904	0.402
Mof_C 	C 	0.2654	0.1947	0.6493	-0.175
Mof_C 	C 	0.202	0.1496	0.65886	0.134
Mof_C 	C 	0.4058	0.1428	0.64808	0.119
Mof_H 	H 	0.407	0.1451	0.6357	-0.04
Mof_C 	C 	0.3431	0.0968	0.65603	-0.188
Mof_H 	H 	0.3035	0.067	0.6493	0.086
Mof_C 	C 	0.3409	0.0961	0.67393	0.106
Mof_H 	H 	0.2985	0.067	0.6797	0.002
Mof_Ag	Ag	0.23424	0.64134	0.82787	0.364
Mof_Ag	Ag	0.23492	0.59434	0.97584	0.331
Mof_Ca	Ca	0.03613	0.57029	0.92712	1.135
Mof_S 	S 	0.2081	0.6329	0.87203	-0.294
Mof_S 	S 	0.30196	0.75913	0.81389	-0.258
Mof_N 	N 	0.13247	0.61463	0.8424	-0.212
Mof_N 	N 	0.13187	0.51783	0.99019	-0.21
Mof_O 	O 	0.08537	0.64363	0.89849	-0.537
Mof_O 	O 	0.03787	0.53053	0.89644	-0.444
Mof_O 	O 	0.99207	0.55253	0.95566	-0.461
Mof_O 	O 	0.88717	0.53983	0.95404	-0.313
Mof_C 	C 	0.13127	0.61323	0.85979	0.144
Mof_C 	C 	0.06857	0.59463	0.86983	-0.206
Mof_C 	C 	0.00747	0.57923	0.86009	0.11
Mof_H 	H 	0.96577	0.56833	0.86593	-0.02
Mof_C 	C 	0.01067	0.58063	0.84178	-0.185
Mof_H 	H 	0.97057	0.56913	0.83513	0.087
Mof_C 	C 	0.07377	0.59923	0.83347	0.106
Mof_H 	H 	0.07547	0.60103	0.82113	-0.022
Mof_C 	C 	0.06357	0.58963	0.88958	0.438
Mof_C 	C 	0.93677	0.53793	0.96237	0.402
Mof_C 	C 	0.93207	0.52803	0.98263	-0.174
Mof_C 	C 	0.86867	0.48293	0.99219	0.133
Mof_C 	C 	0.07247	0.47613	0.98141	0.119
Mof_H 	H 	0.07367	0.47843	0.96903	-0.04
Mof_C 	C 	0.00977	0.43013	0.98936	-0.188
Mof_H 	H 	0.97017	0.40033	0.98263	0.086
Mof_C 	C 	0.00757	0.42943	0.00726	0.106
Mof_H 	H 	0.96517	0.40033	0.01303	0.002
Mof_Ag	Ag	0.9009	0.97468	0.1612	0.364
Mof_Ag	Ag	0.90158	0.92768	0.30917	0.331
Mof_Ca	Ca	0.70279	0.90363	0.26046	1.135
Mof_S 	S 	0.87476	0.96624	0.20537	-0.294
Mof_S 	S 	0.96862	0.09247	0.14723	-0.259
Mof_N 	N 	0.79913	0.94797	0.17574	-0.212
Mof_N 	N 	0.79853	0.85117	0.32353	-0.21
Mof_O 	O 	0.75203	0.97697	0.23183	-0.537
Mof_O 	O 	0.70453	0.86387	0.22978	-0.444
Mof_O 	O 	0.65873	0.88587	0.289	-0.461
Mof_O 	O 	0.55383	0.87317	0.28738	-0.313
Mof_C 	C 	0.79793	0.94657	0.19313	0.144
Mof_C 	C 	0.73523	0.92797	0.20317	-0.206
Mof_C 	C 	0.67413	0.91257	0.19343	0.11
Mof_H 	H 	0.63243	0.90167	0.19927	-0.02
Mof_C 	C 	0.67733	0.91397	0.17512	-0.184
Mof_H 	H 	0.63723	0.90247	0.16847	0.087
Mof_C 	C 	0.74043	0.93257	0.16681	0.106
Mof_H 	H 	0.74213	0.93437	0.15447	-0.022
Mof_C 	C 	0.73023	0.92297	0.22292	0.438
Mof_C 	C 	0.60343	0.87127	0.29571	0.402
Mof_C 	C 	0.59873	0.86137	0.31597	-0.175
Mof_C 	C 	0.53533	0.81627	0.32553	0.134
Mof_C 	C 	0.73913	0.80947	0.31475	0.119
Mof_H 	H 	0.74033	0.81177	0.30237	-0.04
Mof_C 	C 	0.67643	0.76347	0.3227	-0.188
Mof_H 	H 	0.63683	0.73367	0.31597	0.086
Mof_C 	C 	0.67423	0.76277	0.3406	0.106
Mof_H 	H 	0.63183	0.73367	0.34637	0.002
Mof_Ag	Ag	0.56757	0.25956	0.99453	0.364
Mof_Ag	Ag	0.56825	0.30724	0.14251	0.331
Mof_Ca	Ca	0.36946	0.1325	0.09379	1.135
Mof_S 	S 	0.54143	0.24186	0.0387	-0.294
Mof_S 	S 	0.63529	0.20949	0.98056	-0.258
Mof_N 	N 	0.4658	0.1845	0.00907	-0.212
Mof_N 	N 	0.4652	0.2807	0.15686	-0.21
Mof_O 	O 	0.4187	0.1084	0.06516	-0.537
Mof_O 	O 	0.3712	0.174	0.06311	-0.444
Mof_O 	O 	0.3254	0.1062	0.12233	-0.461
Mof_O 	O 	0.2205	0.014	0.12071	-0.313
Mof_C 	C 	0.4646	0.1847	0.02646	0.144
Mof_C 	C 	0.4019	0.1406	0.0365	-0.206
Mof_C 	C 	0.3408	0.0949	0.02676	0.11
Mof_H 	H 	0.2991	0.0641	0.0326	-0.02
Mof_C 	C 	0.344	0.0967	0.00845	-0.184
Mof_H 	H 	0.3039	0.0681	0.0018	0.087
Mof_C 	C 	0.4071	0.1412	0.00014	0.106
Mof_H 	H 	0.4088	0.1411	0.9878	-0.022
Mof_C 	C 	0.3969	0.1406	0.05625	0.438
Mof_C 	C 	0.2701	0.0655	0.12904	0.402
Mof_C 	C 	0.2654	0.0707	0.1493	-0.175
Mof_C 	C 	0.202	0.0524	0.15886	0.134
Mof_C 	C 	0.4058	0.263	0.14808	0.119
Mof_H 	H 	0.407	0.2619	0.1357	-0.04
Mof_C 	C 	0.3431	0.2463	0.15603	-0.188
Mof_H 	H 	0.3035	0.2365	0.1493	0.086
Mof_C 	C 	0.3409	0.2448	0.17393	0.106
Mof_H 	H 	0.2985	0.2315	0.1797	0.002
Mof_Ag	Ag	0.23424	0.59289	0.32787	0.364
Mof_Ag	Ag	0.23492	0.64057	0.47584	0.331
Mof_Ca	Ca	0.03613	0.46583	0.42712	1.135
Mof_S 	S 	0.2081	0.57519	0.37203	-0.294
Mof_S 	S 	0.30196	0.54282	0.31389	-0.258
Mof_N 	N 	0.13247	0.51783	0.3424	-0.212
Mof_N 	N 	0.13187	0.61403	0.49019	-0.21
Mof_O 	O 	0.08537	0.44173	0.39849	-0.537
Mof_O 	O 	0.03787	0.50733	0.39644	-0.444
Mof_O 	O 	0.99207	0.43953	0.45566	-0.461
Mof_O 	O 	0.88717	0.34733	0.45404	-0.313
Mof_C 	C 	0.13127	0.51803	0.35979	0.144
Mof_C 	C 	0.06857	0.47393	0.36983	-0.206
Mof_C 	C 	0.00747	0.42823	0.36009	0.11
Mof_H 	H 	0.96577	0.39743	0.36593	-0.02
Mof_C 	C 	0.01067	0.43003	0.34178	-0.185
Mof_H 	H 	0.97057	0.40143	0.33513	0.087
Mof_C 	C 	0.07377	0.47453	0.33347	0.106
Mof_H 	H 	0.07547	0.47443	0.32113	-0.022
Mof_C 	C 	0.06357	0.47393	0.38958	0.438
Mof_C 	C 	0.93677	0.39883	0.46237	0.402
Mof_C 	C 	0.93207	0.40403	0.48263	-0.175
Mof_C 	C 	0.86867	0.38573	0.49219	0.133
Mof_C 	C 	0.07247	0.59633	0.48141	0.119
Mof_H 	H 	0.07367	0.59523	0.46903	-0.04
Mof_C 	C 	0.00977	0.57963	0.48936	-0.188
Mof_H 	H 	0.97017	0.56983	0.48263	0.086
Mof_C 	C 	0.00757	0.57813	0.50726	0.106
Mof_H 	H 	0.96517	0.56483	0.51303	0.002
Mof_Ag	Ag	0.9009	0.92623	0.6612	0.364
Mof_Ag	Ag	0.90158	0.97391	0.80917	0.331
Mof_Ca	Ca	0.70279	0.79917	0.76046	1.135
Mof_S 	S 	0.87476	0.90853	0.70537	-0.294
Mof_S 	S 	0.96862	0.87616	0.64723	-0.259
Mof_N 	N 	0.79913	0.85117	0.67574	-0.212
Mof_N 	N 	0.79853	0.94737	0.82353	-0.21
Mof_O 	O 	0.75203	0.77507	0.73183	-0.537
Mof_O 	O 	0.70453	0.84067	0.72978	-0.444
Mof_O 	O 	0.65873	0.77287	0.789	-0.461
Mof_O 	O 	0.55383	0.68067	0.78738	-0.313
Mof_C 	C 	0.79793	0.85137	0.69313	0.144
Mof_C 	C 	0.73523	0.80727	0.70317	-0.206
Mof_C 	C 	0.67413	0.76157	0.69343	0.11
Mof_H 	H 	0.63243	0.73077	0.69927	-0.02
Mof_C 	C 	0.67733	0.76337	0.67512	-0.184
Mof_H 	H 	0.63723	0.73477	0.66847	0.087
Mof_C 	C 	0.74043	0.80787	0.66681	0.106
Mof_H 	H 	0.74213	0.80777	0.65447	-0.022
Mof_C 	C 	0.73023	0.80727	0.72292	0.438
Mof_C 	C 	0.60343	0.73217	0.79571	0.402
Mof_C 	C 	0.59873	0.73737	0.81597	-0.175
Mof_C 	C 	0.53533	0.71907	0.82553	0.134
Mof_C 	C 	0.73913	0.92967	0.81475	0.119
Mof_H 	H 	0.74033	0.92857	0.80237	-0.04
Mof_C 	C 	0.67643	0.91297	0.8227	-0.188
Mof_H 	H 	0.63683	0.90317	0.81597	0.086
Mof_C 	C 	0.67423	0.91147	0.8406	0.106
Mof_H 	H 	0.63183	0.89817	0.84637	0.002
Mof_Ag	Ag	0.74044	0.30801	0.99453	0.364
Mof_Ag	Ag	0.69276	0.26101	0.14251	0.331
Mof_Ca	Ca	0.8675	0.23696	0.09379	1.135
Mof_S 	S 	0.75814	0.29957	0.0387	-0.294
Mof_S 	S 	0.79051	0.4258	0.98056	-0.258
Mof_N 	N 	0.8155	0.2813	0.00907	-0.212
Mof_N 	N 	0.7193	0.1845	0.15686	-0.21
Mof_O 	O 	0.8916	0.3103	0.06516	-0.537
Mof_O 	O 	0.826	0.1972	0.06311	-0.444
Mof_O 	O 	0.8938	0.2192	0.12233	-0.461
Mof_O 	O 	0.986	0.2065	0.12071	-0.313
Mof_C 	C 	0.8153	0.2799	0.02646	0.144
Mof_C 	C 	0.8594	0.2613	0.0365	-0.206
Mof_C 	C 	0.9051	0.2459	0.02676	0.11
Mof_H 	H 	0.9359	0.235	0.0326	-0.02
Mof_C 	C 	0.9033	0.2473	0.00845	-0.184
Mof_H 	H 	0.9319	0.2358	0.0018	0.087
Mof_C 	C 	0.8588	0.2659	0.00014	0.106
Mof_H 	H 	0.8589	0.2677	0.9878	-0.022
Mof_C 	C 	0.8594	0.2563	0.05625	0.438
Mof_C 	C 	0.9345	0.2046	0.12904	0.402
Mof_C 	C 	0.9293	0.1947	0.1493	-0.175
Mof_C 	C 	0.9476	0.1496	0.15886	0.134
Mof_C 	C 	0.737	0.1428	0.14808	0.119
Mof_H 	H 	0.7381	0.1451	0.1357	-0.04
Mof_C 	C 	0.7537	0.0968	0.15603	-0.188
Mof_H 	H 	0.7635	0.067	0.1493	0.086
Mof_C 	C 	0.7552	0.0961	0.17393	0.106
Mof_H 	H 	0.7685	0.067	0.1797	0.002
Mof_Ag	Ag	0.40711	0.64134	0.32787	0.364
Mof_Ag	Ag	0.35943	0.59434	0.47584	0.331
Mof_Ca	Ca	0.53417	0.57029	0.42712	1.135
Mof_S 	S 	0.42481	0.6329	0.37203	-0.294
Mof_S 	S 	0.45718	0.75913	0.31389	-0.258
Mof_N 	N 	0.48217	0.61463	0.3424	-0.212
Mof_N 	N 	0.38597	0.51783	0.49019	-0.21
Mof_O 	O 	0.55827	0.64363	0.39849	-0.537
Mof_O 	O 	0.49267	0.53053	0.39644	-0.444
Mof_O 	O 	0.56047	0.55253	0.45566	-0.461
Mof_O 	O 	0.65267	0.53983	0.45404	-0.313
Mof_C 	C 	0.48197	0.61323	0.35979	0.144
Mof_C 	C 	0.52607	0.59463	0.36983	-0.206
Mof_C 	C 	0.57177	0.57923	0.36009	0.11
Mof_H 	H 	0.60257	0.56833	0.36593	-0.02
Mof_C 	C 	0.56997	0.58063	0.34178	-0.184
Mof_H 	H 	0.59857	0.56913	0.33513	0.087
Mof_C 	C 	0.52547	0.59923	0.33347	0.106
Mof_H 	H 	0.52557	0.60103	0.32113	-0.022
Mof_C 	C 	0.52607	0.58963	0.38958	0.438
Mof_C 	C 	0.60117	0.53793	0.46237	0.402
Mof_C 	C 	0.59597	0.52803	0.48263	-0.174
Mof_C 	C 	0.61427	0.48293	0.49219	0.133
Mof_C 	C 	0.40367	0.47613	0.48141	0.119
Mof_H 	H 	0.40477	0.47843	0.46903	-0.04
Mof_C 	C 	0.42037	0.43013	0.48936	-0.188
Mof_H 	H 	0.43017	0.40033	0.48263	0.086
Mof_C 	C 	0.42187	0.42943	0.50726	0.105
Mof_H 	H 	0.43517	0.40033	0.51303	0.002
Mof_Ag	Ag	0.07377	0.97468	0.6612	0.364
Mof_Ag	Ag	0.02609	0.92768	0.80917	0.331
Mof_Ca	Ca	0.20083	0.90363	0.76046	1.135
Mof_S 	S 	0.09147	0.96624	0.70537	-0.294
Mof_S 	S 	0.12384	0.09247	0.64723	-0.259
Mof_N 	N 	0.14883	0.94797	0.67574	-0.212
Mof_N 	N 	0.05263	0.85117	0.82353	-0.21
Mof_O 	O 	0.22493	0.97697	0.73183	-0.537
Mof_O 	O 	0.15933	0.86387	0.72978	-0.444
Mof_O 	O 	0.22713	0.88587	0.789	-0.461
Mof_O 	O 	0.31933	0.87317	0.78738	-0.313
Mof_C 	C 	0.14863	0.94657	0.69313	0.144
Mof_C 	C 	0.19273	0.92797	0.70317	-0.206
Mof_C 	C 	0.23843	0.91257	0.69343	0.11
Mof_H 	H 	0.26923	0.90167	0.69927	-0.02
Mof_C 	C 	0.23663	0.91397	0.67512	-0.184
Mof_H 	H 	0.26523	0.90247	0.66847	0.087
Mof_C 	C 	0.19213	0.93257	0.66681	0.106
Mof_H 	H 	0.19223	0.93437	0.65447	-0.022
Mof_C 	C 	0.19273	0.92297	0.72292	0.438
Mof_C 	C 	0.26783	0.87127	0.79571	0.402
Mof_C 	C 	0.26263	0.86137	0.81597	-0.175
Mof_C 	C 	0.28093	0.81627	0.82553	0.134
Mof_C 	C 	0.07033	0.80947	0.81475	0.119
Mof_H 	H 	0.07143	0.81177	0.80237	-0.04
Mof_C 	C 	0.08703	0.76347	0.8227	-0.188
Mof_H 	H 	0.09683	0.73367	0.81597	0.086
Mof_C 	C 	0.08853	0.76277	0.8406	0.106
Mof_H 	H 	0.10183	0.73367	0.84637	0.002
Mof_Ag	Ag	0.69199	0.43243	0.99453	0.364
Mof_Ag	Ag	0.73899	0.43175	0.14251	0.331
Mof_Ca	Ca	0.76304	0.63054	0.09379	1.135
Mof_S 	S 	0.70043	0.45857	0.0387	-0.294
Mof_S 	S 	0.5742	0.36471	0.98056	-0.258
Mof_N 	N 	0.7187	0.5342	0.00907	-0.212
Mof_N 	N 	0.8155	0.5348	0.15686	-0.21
Mof_O 	O 	0.6897	0.5813	0.06516	-0.537
Mof_O 	O 	0.8028	0.6288	0.06311	-0.444
Mof_O 	O 	0.7808	0.6746	0.12233	-0.461
Mof_O 	O 	0.7935	0.7795	0.12071	-0.313
Mof_C 	C 	0.7201	0.5354	0.02646	0.144
Mof_C 	C 	0.7387	0.5981	0.0365	-0.206
Mof_C 	C 	0.7541	0.6592	0.02676	0.11
Mof_H 	H 	0.765	0.7009	0.0326	-0.02
Mof_C 	C 	0.7527	0.656	0.00845	-0.184
Mof_H 	H 	0.7642	0.6961	0.0018	0.087
Mof_C 	C 	0.7341	0.5929	0.00014	0.106
Mof_H 	H 	0.7323	0.5912	0.9878	-0.022
Mof_C 	C 	0.7437	0.6031	0.05625	0.438
Mof_C 	C 	0.7954	0.7299	0.12904	0.402
Mof_C 	C 	0.8053	0.7346	0.1493	-0.175
Mof_C 	C 	0.8504	0.798	0.15886	0.134
Mof_C 	C 	0.8572	0.5942	0.14808	0.119
Mof_H 	H 	0.8549	0.593	0.1357	-0.04
Mof_C 	C 	0.9032	0.6569	0.15603	-0.188
Mof_H 	H 	0.933	0.6965	0.1493	0.086
Mof_C 	C 	0.9039	0.6591	0.17393	0.106
Mof_H 	H 	0.933	0.7015	0.1797	0.002
Mof_Ag	Ag	0.35866	0.76576	0.32787	0.364
Mof_Ag	Ag	0.40566	0.76508	0.47584	0.331
Mof_Ca	Ca	0.42971	0.96387	0.42712	1.135
Mof_S 	S 	0.3671	0.7919	0.37203	-0.294
Mof_S 	S 	0.24087	0.69804	0.31389	-0.258
Mof_N 	N 	0.38537	0.86753	0.3424	-0.212
Mof_N 	N 	0.48217	0.86813	0.49019	-0.21
Mof_O 	O 	0.35637	0.91463	0.39849	-0.537
Mof_O 	O 	0.46947	0.96213	0.39644	-0.444
Mof_O 	O 	0.44747	0.00793	0.45566	-0.461
Mof_O 	O 	0.46017	0.11283	0.45404	-0.313
Mof_C 	C 	0.38677	0.86873	0.35979	0.144
Mof_C 	C 	0.40537	0.93143	0.36983	-0.206
Mof_C 	C 	0.42077	0.99253	0.36009	0.11
Mof_H 	H 	0.43167	0.03423	0.36593	-0.02
Mof_C 	C 	0.41937	0.98933	0.34178	-0.185
Mof_H 	H 	0.43087	0.02943	0.33513	0.087
Mof_C 	C 	0.40077	0.92623	0.33347	0.106
Mof_H 	H 	0.39897	0.92453	0.32113	-0.022
Mof_C 	C 	0.41037	0.93643	0.38958	0.438
Mof_C 	C 	0.46207	0.06323	0.46237	0.402
Mof_C 	C 	0.47197	0.06793	0.48263	-0.174
Mof_C 	C 	0.51707	0.13133	0.49219	0.133
Mof_C 	C 	0.52387	0.92753	0.48141	0.119
Mof_H 	H 	0.52157	0.92633	0.46903	-0.04
Mof_C 	C 	0.56987	0.99023	0.48936	-0.188
Mof_H 	H 	0.59967	0.02983	0.48263	0.086
Mof_C 	C 	0.57057	0.99243	0.50726	0.106
Mof_H 	H 	0.59967	0.03483	0.51303	0.002
Mof_Ag	Ag	0.02532	0.0991	0.6612	0.364
Mof_Ag	Ag	0.07232	0.09842	0.80917	0.331
Mof_Ca	Ca	0.09637	0.29721	0.76046	1.135
Mof_S 	S 	0.03376	0.12524	0.70537	-0.294
Mof_S 	S 	0.90753	0.03138	0.64723	-0.259
Mof_N 	N 	0.05203	0.20087	0.67574	-0.212
Mof_N 	N 	0.14883	0.20147	0.82353	-0.21
Mof_O 	O 	0.02303	0.24797	0.73183	-0.537
Mof_O 	O 	0.13613	0.29547	0.72978	-0.444
Mof_O 	O 	0.11413	0.34127	0.789	-0.461
Mof_O 	O 	0.12683	0.44617	0.78738	-0.313
Mof_C 	C 	0.05343	0.20207	0.69313	0.144
Mof_C 	C 	0.07203	0.26477	0.70317	-0.206
Mof_C 	C 	0.08743	0.32587	0.69343	0.11
Mof_H 	H 	0.09833	0.36757	0.69927	-0.02
Mof_C 	C 	0.08603	0.32267	0.67512	-0.184
Mof_H 	H 	0.09753	0.36277	0.66847	0.087
Mof_C 	C 	0.06743	0.25957	0.66681	0.106
Mof_H 	H 	0.06563	0.25787	0.65447	-0.022
Mof_C 	C 	0.07703	0.26977	0.72292	0.438
Mof_C 	C 	0.12873	0.39657	0.79571	0.402
Mof_C 	C 	0.13863	0.40127	0.81597	-0.175
Mof_C 	C 	0.18373	0.46467	0.82553	0.134
Mof_C 	C 	0.19053	0.26087	0.81475	0.119
Mof_H 	H 	0.18823	0.25967	0.80237	-0.04
Mof_C 	C 	0.23653	0.32357	0.8227	-0.188
Mof_H 	H 	0.26633	0.36317	0.81597	0.086
Mof_C 	C 	0.23723	0.32577	0.8406	0.106
Mof_H 	H 	0.26633	0.36817	0.84637	0.002
Mof_Ag	Ag	0.25956	0.56757	0.50547	0.364
Mof_Ag	Ag	0.30724	0.56825	0.35749	0.331
Mof_Ca	Ca	0.1325	0.36946	0.40621	1.135
Mof_S 	S 	0.24186	0.54143	0.4613	-0.294
Mof_S 	S 	0.20949	0.63529	0.51944	-0.258
Mof_N 	N 	0.1845	0.4658	0.49093	-0.212
Mof_N 	N 	0.2807	0.4652	0.34314	-0.21
Mof_O 	O 	0.1084	0.4187	0.43484	-0.537
Mof_O 	O 	0.174	0.3712	0.43689	-0.444
Mof_O 	O 	0.1062	0.3254	0.37767	-0.461
Mof_O 	O 	0.014	0.2205	0.37929	-0.313
Mof_C 	C 	0.1847	0.4646	0.47354	0.144
Mof_C 	C 	0.1406	0.4019	0.4635	-0.206
Mof_C 	C 	0.0949	0.3408	0.47324	0.11
Mof_H 	H 	0.0641	0.2991	0.4674	-0.02
Mof_C 	C 	0.0967	0.344	0.49155	-0.184
Mof_H 	H 	0.0681	0.3039	0.4982	0.087
Mof_C 	C 	0.1412	0.4071	0.49986	0.106
Mof_H 	H 	0.1411	0.4088	0.5122	-0.022
Mof_C 	C 	0.1406	0.3969	0.44375	0.438
Mof_C 	C 	0.0655	0.2701	0.37096	0.402
Mof_C 	C 	0.0707	0.2654	0.3507	-0.175
Mof_C 	C 	0.0524	0.202	0.34114	0.134
Mof_C 	C 	0.263	0.4058	0.35192	0.119
Mof_H 	H 	0.2619	0.407	0.3643	-0.04
Mof_C 	C 	0.2463	0.3431	0.34397	-0.188
Mof_H 	H 	0.2365	0.3035	0.3507	0.086
Mof_C 	C 	0.2448	0.3409	0.32607	0.106
Mof_H 	H 	0.2315	0.2985	0.3203	0.002
Mof_Ag	Ag	0.92623	0.9009	0.8388	0.364
Mof_Ag	Ag	0.97391	0.90158	0.69083	0.331
Mof_Ca	Ca	0.79917	0.70279	0.73954	1.135
Mof_S 	S 	0.90853	0.87476	0.79463	-0.294
Mof_S 	S 	0.87616	0.96862	0.85277	-0.259
Mof_N 	N 	0.85117	0.79913	0.82426	-0.212
Mof_N 	N 	0.94737	0.79853	0.67647	-0.21
Mof_O 	O 	0.77507	0.75203	0.76817	-0.537
Mof_O 	O 	0.84067	0.70453	0.77022	-0.444
Mof_O 	O 	0.77287	0.65873	0.711	-0.461
Mof_O 	O 	0.68067	0.55383	0.71262	-0.313
Mof_C 	C 	0.85137	0.79793	0.80687	0.144
Mof_C 	C 	0.80727	0.73523	0.79683	-0.206
Mof_C 	C 	0.76157	0.67413	0.80657	0.11
Mof_H 	H 	0.73077	0.63243	0.80073	-0.02
Mof_C 	C 	0.76337	0.67733	0.82488	-0.184
Mof_H 	H 	0.73477	0.63723	0.83153	0.087
Mof_C 	C 	0.80787	0.74043	0.83319	0.106
Mof_H 	H 	0.80777	0.74213	0.84553	-0.022
Mof_C 	C 	0.80727	0.73023	0.77708	0.438
Mof_C 	C 	0.73217	0.60343	0.70429	0.402
Mof_C 	C 	0.73737	0.59873	0.68403	-0.175
Mof_C 	C 	0.71907	0.53533	0.67447	0.134
Mof_C 	C 	0.92967	0.73913	0.68525	0.119
Mof_H 	H 	0.92857	0.74033	0.69763	-0.04
Mof_C 	C 	0.91297	0.67643	0.6773	-0.188
Mof_H 	H 	0.90317	0.63683	0.68403	0.086
Mof_C 	C 	0.91147	0.67423	0.6594	0.106
Mof_H 	H 	0.89817	0.63183	0.65363	0.002
Mof_Ag	Ag	0.59289	0.23424	0.17213	0.364
Mof_Ag	Ag	0.64057	0.23492	0.02416	0.331
Mof_Ca	Ca	0.46583	0.03613	0.07288	1.135
Mof_S 	S 	0.57519	0.2081	0.12797	-0.294
Mof_S 	S 	0.54282	0.30196	0.18611	-0.258
Mof_N 	N 	0.51783	0.13247	0.1576	-0.212
Mof_N 	N 	0.61403	0.13187	0.00981	-0.21
Mof_O 	O 	0.44173	0.08537	0.10151	-0.537
Mof_O 	O 	0.50733	0.03787	0.10356	-0.444
Mof_O 	O 	0.43953	0.99207	0.04434	-0.461
Mof_O 	O 	0.34733	0.88717	0.04596	-0.313
Mof_C 	C 	0.51803	0.13127	0.14021	0.144
Mof_C 	C 	0.47393	0.06857	0.13017	-0.206
Mof_C 	C 	0.42823	0.00747	0.13991	0.11
Mof_H 	H 	0.39743	0.96577	0.13407	-0.02
Mof_C 	C 	0.43003	0.01067	0.15822	-0.185
Mof_H 	H 	0.40143	0.97057	0.16487	0.087
Mof_C 	C 	0.47453	0.07377	0.16653	0.106
Mof_H 	H 	0.47443	0.07547	0.17887	-0.022
Mof_C 	C 	0.47393	0.06357	0.11042	0.438
Mof_C 	C 	0.39883	0.93677	0.03763	0.402
Mof_C 	C 	0.40403	0.93207	0.01737	-0.175
Mof_C 	C 	0.38573	0.86867	0.00781	0.133
Mof_C 	C 	0.59633	0.07247	0.01859	0.119
Mof_H 	H 	0.59523	0.07367	0.03097	-0.04
Mof_C 	C 	0.57963	0.00977	0.01064	-0.188
Mof_H 	H 	0.56983	0.97017	0.01737	0.086
Mof_C 	C 	0.57813	0.00757	0.99274	0.106
Mof_H 	H 	0.56483	0.96517	0.98697	0.002
Mof_Ag	Ag	0.30801	0.74044	0.50547	0.364
Mof_Ag	Ag	0.26101	0.69276	0.35749	0.331
Mof_Ca	Ca	0.23696	0.8675	0.40621	1.135
Mof_S 	S 	0.29957	0.75814	0.4613	-0.294
Mof_S 	S 	0.4258	0.79051	0.51944	-0.258
Mof_N 	N 	0.2813	0.8155	0.49093	-0.212
Mof_N 	N 	0.1845	0.7193	0.34314	-0.21
Mof_O 	O 	0.3103	0.8916	0.43484	-0.537
Mof_O 	O 	0.1972	0.826	0.43689	-0.444
Mof_O 	O 	0.2192	0.8938	0.37767	-0.461
Mof_O 	O 	0.2065	0.986	0.37929	-0.313
Mof_C 	C 	0.2799	0.8153	0.47354	0.144
Mof_C 	C 	0.2613	0.8594	0.4635	-0.206
Mof_C 	C 	0.2459	0.9051	0.47324	0.11
Mof_H 	H 	0.235	0.9359	0.4674	-0.02
Mof_C 	C 	0.2473	0.9033	0.49155	-0.184
Mof_H 	H 	0.2358	0.9319	0.4982	0.087
Mof_C 	C 	0.2659	0.8588	0.49986	0.106
Mof_H 	H 	0.2677	0.8589	0.5122	-0.022
Mof_C 	C 	0.2563	0.8594	0.44375	0.438
Mof_C 	C 	0.2046	0.9345	0.37096	0.402
Mof_C 	C 	0.1947	0.9293	0.3507	-0.175
Mof_C 	C 	0.1496	0.9476	0.34114	0.134
Mof_C 	C 	0.1428	0.737	0.35192	0.119
Mof_H 	H 	0.1451	0.7381	0.3643	-0.04
Mof_C 	C 	0.0968	0.7537	0.34397	-0.188
Mof_H 	H 	0.067	0.7635	0.3507	0.086
Mof_C 	C 	0.0961	0.7552	0.32607	0.106
Mof_H 	H 	0.067	0.7685	0.3203	0.002
Mof_Ag	Ag	0.97468	0.07377	0.8388	0.364
Mof_Ag	Ag	0.92768	0.02609	0.69083	0.331
Mof_Ca	Ca	0.90363	0.20083	0.73954	1.135
Mof_S 	S 	0.96624	0.09147	0.79463	-0.294
Mof_S 	S 	0.09247	0.12384	0.85277	-0.259
Mof_N 	N 	0.94797	0.14883	0.82426	-0.212
Mof_N 	N 	0.85117	0.05263	0.67647	-0.21
Mof_O 	O 	0.97697	0.22493	0.76817	-0.537
Mof_O 	O 	0.86387	0.15933	0.77022	-0.444
Mof_O 	O 	0.88587	0.22713	0.711	-0.461
Mof_O 	O 	0.87317	0.31933	0.71262	-0.313
Mof_C 	C 	0.94657	0.14863	0.80687	0.144
Mof_C 	C 	0.92797	0.19273	0.79683	-0.206
Mof_C 	C 	0.91257	0.23843	0.80657	0.11
Mof_H 	H 	0.90167	0.26923	0.80073	-0.02
Mof_C 	C 	0.91397	0.23663	0.82488	-0.184
Mof_H 	H 	0.90247	0.26523	0.83153	0.087
Mof_C 	C 	0.93257	0.19213	0.83319	0.106
Mof_H 	H 	0.93437	0.19223	0.84553	-0.022
Mof_C 	C 	0.92297	0.19273	0.77708	0.438
Mof_C 	C 	0.87127	0.26783	0.70429	0.402
Mof_C 	C 	0.86137	0.26263	0.68403	-0.175
Mof_C 	C 	0.81627	0.28093	0.67447	0.134
Mof_C 	C 	0.80947	0.07033	0.68525	0.119
Mof_H 	H 	0.81177	0.07143	0.69763	-0.04
Mof_C 	C 	0.76347	0.08703	0.6773	-0.188
Mof_H 	H 	0.73367	0.09683	0.68403	0.086
Mof_C 	C 	0.76277	0.08853	0.6594	0.106
Mof_H 	H 	0.73367	0.10183	0.65363	0.002
Mof_Ag	Ag	0.64134	0.40711	0.17213	0.364
Mof_Ag	Ag	0.59434	0.35943	0.02416	0.331
Mof_Ca	Ca	0.57029	0.53417	0.07288	1.135
Mof_S 	S 	0.6329	0.42481	0.12797	-0.294
Mof_S 	S 	0.75913	0.45718	0.18611	-0.258
Mof_N 	N 	0.61463	0.48217	0.1576	-0.212
Mof_N 	N 	0.51783	0.38597	0.00981	-0.21
Mof_O 	O 	0.64363	0.55827	0.10151	-0.537
Mof_O 	O 	0.53053	0.49267	0.10356	-0.444
Mof_O 	O 	0.55253	0.56047	0.04434	-0.461
Mof_O 	O 	0.53983	0.65267	0.04596	-0.313
Mof_C 	C 	0.61323	0.48197	0.14021	0.144
Mof_C 	C 	0.59463	0.52607	0.13017	-0.206
Mof_C 	C 	0.57923	0.57177	0.13991	0.11
Mof_H 	H 	0.56833	0.60257	0.13407	-0.02
Mof_C 	C 	0.58063	0.56997	0.15822	-0.184
Mof_H 	H 	0.56913	0.59857	0.16487	0.087
Mof_C 	C 	0.59923	0.52547	0.16653	0.106
Mof_H 	H 	0.60103	0.52557	0.17887	-0.022
Mof_C 	C 	0.58963	0.52607	0.11042	0.438
Mof_C 	C 	0.53793	0.60117	0.03763	0.402
Mof_C 	C 	0.52803	0.59597	0.01737	-0.174
Mof_C 	C 	0.48293	0.61427	0.00781	0.133
Mof_C 	C 	0.47613	0.40367	0.01859	0.119
Mof_H 	H 	0.47843	0.40477	0.03097	-0.04
Mof_C 	C 	0.43013	0.42037	0.01064	-0.188
Mof_H 	H 	0.40033	0.43017	0.01737	0.086
Mof_C 	C 	0.42943	0.42187	0.99274	0.105
Mof_H 	H 	0.40033	0.43517	0.98697	0.002
Mof_Ag	Ag	0.43243	0.69199	0.50547	0.364
Mof_Ag	Ag	0.43175	0.73899	0.35749	0.331
Mof_Ca	Ca	0.63054	0.76304	0.40621	1.135
Mof_S 	S 	0.45857	0.70043	0.4613	-0.294
Mof_S 	S 	0.36471	0.5742	0.51944	-0.258
Mof_N 	N 	0.5342	0.7187	0.49093	-0.212
Mof_N 	N 	0.5348	0.8155	0.34314	-0.21
Mof_O 	O 	0.5813	0.6897	0.43484	-0.537
Mof_O 	O 	0.6288	0.8028	0.43689	-0.444
Mof_O 	O 	0.6746	0.7808	0.37767	-0.461
Mof_O 	O 	0.7795	0.7935	0.37929	-0.313
Mof_C 	C 	0.5354	0.7201	0.47354	0.144
Mof_C 	C 	0.5981	0.7387	0.4635	-0.206
Mof_C 	C 	0.6592	0.7541	0.47324	0.11
Mof_H 	H 	0.7009	0.765	0.4674	-0.02
Mof_C 	C 	0.656	0.7527	0.49155	-0.184
Mof_H 	H 	0.6961	0.7642	0.4982	0.087
Mof_C 	C 	0.5929	0.7341	0.49986	0.106
Mof_H 	H 	0.5912	0.7323	0.5122	-0.022
Mof_C 	C 	0.6031	0.7437	0.44375	0.438
Mof_C 	C 	0.7299	0.7954	0.37096	0.402
Mof_C 	C 	0.7346	0.8053	0.3507	-0.175
Mof_C 	C 	0.798	0.8504	0.34114	0.134
Mof_C 	C 	0.5942	0.8572	0.35192	0.119
Mof_H 	H 	0.593	0.8549	0.3643	-0.04
Mof_C 	C 	0.6569	0.9032	0.34397	-0.188
Mof_H 	H 	0.6965	0.933	0.3507	0.086
Mof_C 	C 	0.6591	0.9039	0.32607	0.106
Mof_H 	H 	0.7015	0.933	0.3203	0.002
Mof_Ag	Ag	0.0991	0.02532	0.8388	0.364
Mof_Ag	Ag	0.09842	0.07232	0.69083	0.331
Mof_Ca	Ca	0.29721	0.09637	0.73954	1.135
Mof_S 	S 	0.12524	0.03376	0.79463	-0.294
Mof_S 	S 	0.03138	0.90753	0.85277	-0.259
Mof_N 	N 	0.20087	0.05203	0.82426	-0.212
Mof_N 	N 	0.20147	0.14883	0.67647	-0.21
Mof_O 	O 	0.24797	0.02303	0.76817	-0.537
Mof_O 	O 	0.29547	0.13613	0.77022	-0.444
Mof_O 	O 	0.34127	0.11413	0.711	-0.461
Mof_O 	O 	0.44617	0.12683	0.71262	-0.313
Mof_C 	C 	0.20207	0.05343	0.80687	0.144
Mof_C 	C 	0.26477	0.07203	0.79683	-0.206
Mof_C 	C 	0.32587	0.08743	0.80657	0.11
Mof_H 	H 	0.36757	0.09833	0.80073	-0.02
Mof_C 	C 	0.32267	0.08603	0.82488	-0.184
Mof_H 	H 	0.36277	0.09753	0.83153	0.087
Mof_C 	C 	0.25957	0.06743	0.83319	0.106
Mof_H 	H 	0.25787	0.06563	0.84553	-0.022
Mof_C 	C 	0.26977	0.07703	0.77708	0.438
Mof_C 	C 	0.39657	0.12873	0.70429	0.402
Mof_C 	C 	0.40127	0.13863	0.68403	-0.175
Mof_C 	C 	0.46467	0.18373	0.67447	0.134
Mof_C 	C 	0.26087	0.19053	0.68525	0.119
Mof_H 	H 	0.25967	0.18823	0.69763	-0.04
Mof_C 	C 	0.32357	0.23653	0.6773	-0.188
Mof_H 	H 	0.36317	0.26633	0.68403	0.086
Mof_C 	C 	0.32577	0.23723	0.6594	0.106
Mof_H 	H 	0.36817	0.26633	0.65363	0.002
Mof_Ag	Ag	0.76576	0.35866	0.17213	0.364
Mof_Ag	Ag	0.76508	0.40566	0.02416	0.331
Mof_Ca	Ca	0.96387	0.42971	0.07288	1.135
Mof_S 	S 	0.7919	0.3671	0.12797	-0.294
Mof_S 	S 	0.69804	0.24087	0.18611	-0.258
Mof_N 	N 	0.86753	0.38537	0.1576	-0.212
Mof_N 	N 	0.86813	0.48217	0.00981	-0.21
Mof_O 	O 	0.91463	0.35637	0.10151	-0.537
Mof_O 	O 	0.96213	0.46947	0.10356	-0.444
Mof_O 	O 	0.00793	0.44747	0.04434	-0.461
Mof_O 	O 	0.11283	0.46017	0.04596	-0.313
Mof_C 	C 	0.86873	0.38677	0.14021	0.144
Mof_C 	C 	0.93143	0.40537	0.13017	-0.206
Mof_C 	C 	0.99253	0.42077	0.13991	0.11
Mof_H 	H 	0.03423	0.43167	0.13407	-0.02
Mof_C 	C 	0.98933	0.41937	0.15822	-0.185
Mof_H 	H 	0.02943	0.43087	0.16487	0.087
Mof_C 	C 	0.92623	0.40077	0.16653	0.106
Mof_H 	H 	0.92453	0.39897	0.17887	-0.022
Mof_C 	C 	0.93643	0.41037	0.11042	0.438
Mof_C 	C 	0.06323	0.46207	0.03763	0.402
Mof_C 	C 	0.06793	0.47197	0.01737	-0.174
Mof_C 	C 	0.13133	0.51707	0.00781	0.133
Mof_C 	C 	0.92753	0.52387	0.01859	0.119
Mof_H 	H 	0.92633	0.52157	0.03097	-0.04
Mof_C 	C 	0.99023	0.56987	0.01064	-0.188
Mof_H 	H 	0.02983	0.59967	0.01737	0.086
Mof_C 	C 	0.99243	0.57057	0.99274	0.106
Mof_H 	H 	0.03483	0.59967	0.98697	0.002
_end
