data_functionalizedCrystal
_audit_creation_method	'EQeq! by Chris Wilmer'
_symmetry_space_group_name_H-M	'P1'
_symmetry_Int_Tables_number	1
_symmetry_cell_setting	triclinic
loop_
_symmetry_equiv_pos_as_xyz
  x,y,z
_cell_length_a	9.974
_cell_length_b	9.1804
_cell_length_c	27.5385
_cell_angle_alpha	90
_cell_angle_beta	90
_cell_angle_gamma	90
loop_
_atom_site_label
_atom_site_type_symbol
_atom_site_fract_x
_atom_site_fract_y
_atom_site_fract_z
_atom_site_charge
Mof_Zn	Zn	0.62128	0.3275	0.05796	1.246
Mof_Zn	Zn	0.43416	0.67979	0.96054	1.246
Mof_P 	P 	0.72228	0.57882	0.98473	0.578
Mof_P 	P 	0.32699	0.41845	0.03494	0.59
Mof_O 	O 	0.6216	0.6998	0.97481	-0.459
Mof_O 	O 	0.6992	0.5025	0.03279	-0.43
Mof_O 	O 	0.8648	0.6338	0.98406	-0.402
Mof_O 	O 	0.7069	0.4594	0.94419	-0.466
Mof_H 	H 	0.6647	0.4933	0.9212	0.29
Mof_O 	O 	0.4383	0.3056	0.04014	-0.457
Mof_O 	O 	0.1914	0.3513	0.02861	-0.413
Mof_O 	O 	0.3496	0.5213	0.99314	-0.434
Mof_O 	O 	0.3247	0.513	0.08314	-0.464
Mof_H 	H 	0.3126	0.4595	0.1066	0.293
Mof_O 	O 	0.6323	0.3605	0.12794	-0.445
Mof_O 	O 	0.6059	0.345	0.39213	-0.444
Mof_O 	O 	0.7798	0.1966	0.1526	-0.303
Mof_O 	O 	0.4238	0.4585	0.36508	-0.301
Mof_C 	C 	0.6955	0.2953	0.1601	0.362
Mof_C 	C 	0.6632	0.3349	0.2121	-0.066
Mof_C 	C 	0.7297	0.2706	0.2501	-0.009
Mof_H 	H 	0.8004	0.2076	0.2435	0.056
Mof_C 	C 	0.6947	0.2966	0.2974	-0.023
Mof_H 	H 	0.7445	0.2558	0.3226	0.068
Mof_C 	C 	0.5859	0.3834	0.3077	-0.055
Mof_C 	C 	0.5184	0.4519	0.2698	-0.026
Mof_H 	H 	0.447	0.5139	0.2765	0.064
Mof_C 	C 	0.5576	0.4279	0.2227	-0.01
Mof_H 	H 	0.5126	0.4746	0.1975	0.065
Mof_C 	C 	0.5339	0.3989	0.3589	0.349
Mof_Zn	Zn	0.37872	0.6725	0.55796	1.247
Mof_Zn	Zn	0.56584	0.32021	0.46054	1.247
Mof_P 	P 	0.27772	0.42118	0.48473	0.578
Mof_P 	P 	0.67301	0.58155	0.53494	0.591
Mof_O 	O 	0.3784	0.3002	0.47481	-0.459
Mof_O 	O 	0.3008	0.4975	0.53279	-0.43
Mof_O 	O 	0.1352	0.3662	0.48406	-0.402
Mof_O 	O 	0.2931	0.5406	0.44419	-0.466
Mof_H 	H 	0.3353	0.5067	0.4212	0.29
Mof_O 	O 	0.5617	0.6944	0.54014	-0.457
Mof_O 	O 	0.8086	0.6487	0.52861	-0.412
Mof_O 	O 	0.6504	0.4787	0.49314	-0.435
Mof_O 	O 	0.6753	0.487	0.58314	-0.464
Mof_H 	H 	0.6874	0.5405	0.6066	0.293
Mof_O 	O 	0.3677	0.6395	0.62794	-0.445
Mof_O 	O 	0.3941	0.655	0.89213	-0.444
Mof_O 	O 	0.2202	0.8034	0.6526	-0.303
Mof_O 	O 	0.5762	0.5415	0.86508	-0.301
Mof_C 	C 	0.3045	0.7047	0.6601	0.362
Mof_C 	C 	0.3368	0.6651	0.7121	-0.066
Mof_C 	C 	0.2703	0.7294	0.7501	-0.009
Mof_H 	H 	0.1996	0.7924	0.7435	0.056
Mof_C 	C 	0.3053	0.7034	0.7974	-0.023
Mof_H 	H 	0.2555	0.7442	0.8226	0.068
Mof_C 	C 	0.4141	0.6166	0.8077	-0.055
Mof_C 	C 	0.4816	0.5481	0.7698	-0.026
Mof_H 	H 	0.553	0.4861	0.7765	0.064
Mof_C 	C 	0.4424	0.5721	0.7227	-0.01
Mof_H 	H 	0.4874	0.5254	0.6975	0.065
Mof_C 	C 	0.4661	0.6011	0.8589	0.349
Mof_Zn	Zn	0.12128	0.1725	0.05796	1.246
Mof_Zn	Zn	0.93416	0.82021	0.96054	1.246
Mof_P 	P 	0.22228	0.92118	0.98473	0.58
Mof_P 	P 	0.82699	0.08155	0.03494	0.585
Mof_O 	O 	0.1216	0.8002	0.97481	-0.458
Mof_O 	O 	0.1992	0.9975	0.03279	-0.426
Mof_O 	O 	0.3648	0.8662	0.98406	-0.401
Mof_O 	O 	0.2069	0.0406	0.94419	-0.468
Mof_H 	H 	0.1647	0.0067	0.9212	0.289
Mof_O 	O 	0.9383	0.1944	0.04014	-0.455
Mof_O 	O 	0.6914	0.1487	0.02861	-0.413
Mof_O 	O 	0.8496	0.9787	0.99314	-0.433
Mof_O 	O 	0.8247	0.987	0.08314	-0.455
Mof_H 	H 	0.8126	0.0405	0.1066	0.288
Mof_O 	O 	0.1323	0.1395	0.12794	-0.448
Mof_O 	O 	0.1059	0.155	0.39213	-0.442
Mof_O 	O 	0.2798	0.3034	0.1526	-0.305
Mof_O 	O 	0.9238	0.0415	0.36508	-0.294
Mof_C 	C 	0.1955	0.2047	0.1601	0.365
Mof_C 	C 	0.1632	0.1651	0.2121	-0.074
Mof_C 	C 	0.2297	0.2294	0.2501	-0.001
Mof_H 	H 	0.3004	0.2924	0.2435	0.052
Mof_C 	C 	0.1947	0.2034	0.2974	-0.032
Mof_H 	H 	0.2445	0.2442	0.3226	0.07
Mof_C 	C 	0.0859	0.1166	0.3077	-0.045
Mof_C 	C 	0.0184	0.0481	0.2698	-0.044
Mof_H 	H 	0.947	0.9861	0.2765	0.072
Mof_C 	C 	0.0576	0.0721	0.2227	0.001
Mof_H 	H 	0.0126	0.0254	0.1975	0.059
Mof_C 	C 	0.0339	0.1011	0.3589	0.34
Mof_Zn	Zn	0.87872	0.8275	0.55796	1.246
Mof_Zn	Zn	0.06584	0.17979	0.46054	1.246
Mof_P 	P 	0.77772	0.07882	0.48473	0.581
Mof_P 	P 	0.17301	0.91845	0.53494	0.586
Mof_O 	O 	0.8784	0.1998	0.47481	-0.458
Mof_O 	O 	0.8008	0.0025	0.53279	-0.426
Mof_O 	O 	0.6352	0.1338	0.48406	-0.401
Mof_O 	O 	0.7931	0.9594	0.44419	-0.47
Mof_H 	H 	0.8353	0.9933	0.4212	0.289
Mof_O 	O 	0.0617	0.8056	0.54014	-0.455
Mof_O 	O 	0.3086	0.8513	0.52861	-0.412
Mof_O 	O 	0.1504	0.0213	0.49314	-0.433
Mof_O 	O 	0.1753	0.013	0.58314	-0.456
Mof_H 	H 	0.1874	0.9595	0.6066	0.288
Mof_O 	O 	0.8677	0.8605	0.62794	-0.448
Mof_O 	O 	0.8941	0.845	0.89213	-0.442
Mof_O 	O 	0.7202	0.6966	0.6526	-0.305
Mof_O 	O 	0.0762	0.9585	0.86508	-0.294
Mof_C 	C 	0.8045	0.7953	0.6601	0.365
Mof_C 	C 	0.8368	0.8349	0.7121	-0.075
Mof_C 	C 	0.7703	0.7706	0.7501	-0
Mof_H 	H 	0.6996	0.7076	0.7435	0.052
Mof_C 	C 	0.8053	0.7966	0.7974	-0.033
Mof_H 	H 	0.7555	0.7558	0.8226	0.07
Mof_C 	C 	0.9141	0.8834	0.8077	-0.045
Mof_C 	C 	0.9816	0.9519	0.7698	-0.045
Mof_H 	H 	0.053	0.0139	0.7765	0.072
Mof_C 	C 	0.9424	0.9279	0.7227	0.002
Mof_H 	H 	0.9874	0.9746	0.6975	0.059
Mof_C 	C 	0.9661	0.8989	0.8589	0.34
_end
