data_functionalizedCrystal
_audit_creation_method	'EQeq! by Chris Wilmer'
_symmetry_space_group_name_H-M	'P1'
_symmetry_Int_Tables_number	1
_symmetry_cell_setting	triclinic
loop_
_symmetry_equiv_pos_as_xyz
  x,y,z
_cell_length_a	27.286
_cell_length_b	13.6997
_cell_length_c	45.829
_cell_angle_alpha	90
_cell_angle_beta	90
_cell_angle_gamma	90
loop_
_atom_site_label
_atom_site_type_symbol
_atom_site_fract_x
_atom_site_fract_y
_atom_site_fract_z
_atom_site_charge
Mof_Zn	Zn	0.24633	0.8434	0.31144	1.165
Mof_Zn	Zn	0.03019	0.64159	0.40931	1.165
Mof_Zn	Zn	0.04882	0.8603	0.57199	1.164
Mof_I 	I 	0.33727	0.82887	0.32277	-0.374
Mof_I 	I 	0.19474	0.68953	0.30406	-0.368
Mof_I 	I 	0.0777	0.72549	0.36902	-0.365
Mof_I 	I 	0.01494	0.72111	0.45869	-0.386
Mof_I 	I 	0.04889	0.67661	0.56424	-0.379
Mof_I 	I 	0.98232	0.95544	0.59831	-0.366
Mof_C 	C 	0.0725	0.4503	0.39393	0.073
Mof_H 	H 	0.0681	0.4751	0.3748	-0.01
Mof_C 	C 	0.0899	0.3569	0.39746	-0.125
Mof_H 	H 	0.097	0.3176	0.3809	0.095
Mof_C 	C 	0.0689	0.4737	0.44364	0.074
Mof_H 	H 	0.0626	0.5152	0.4598	-0.007
Mof_C 	C 	0.0856	0.3796	0.44863	-0.119
Mof_H 	H 	0.0891	0.356	0.468	0.083
Mof_C 	C 	0.097	0.3205	0.4252	0.053
Mof_C 	C 	0.1132	0.2185	0.43015	0.098
Mof_C 	C 	0.0521	0.0227	0.52865	0.069
Mof_H 	H 	0.0325	0.0549	0.5428	-0.006
Mof_C 	C 	0.0673	0.0736	0.50472	-0.122
Mof_H 	H 	0.0581	0.14	0.5024	0.086
Mof_C 	C 	0.0905	0.8837	0.5122	0.065
Mof_H 	H 	0.0978	0.8164	0.5146	-0.006
Mof_C 	C 	0.1077	0.9311	0.48759	-0.112
Mof_H 	H 	0.1271	0.8974	0.4736	0.077
Mof_C 	C 	0.0961	0.0288	0.48373	0.049
Mof_C 	C 	0.1127	0.082	0.45729	0.101
Mof_C 	C 	0.1908	0.8761	0.36574	0.065
Mof_H 	H 	0.1896	0.8068	0.3657	-0.006
Mof_C 	C 	0.1703	0.9259	0.38881	-0.11
Mof_H 	H 	0.1561	0.8911	0.4046	0.081
Mof_C 	C 	0.2126	0.0197	0.34345	0.073
Mof_H 	H 	0.2277	0.053	0.3276	-0.015
Mof_C 	C 	0.1919	0.0739	0.36555	-0.119
Mof_H 	H 	0.1925	0.1432	0.3648	0.076
Mof_C 	C 	0.1704	0.0266	0.38878	0.058
Mof_C 	C 	0.1469	0.0809	0.41279	0.108
Mof_C 	C 	0.2771	0.9553	0.25895	0.061
Mof_H 	H 	0.3085	0.9533	0.2679	0.002
Mof_C 	C 	0.2734	0.9903	0.23072	-0.112
Mof_H 	H 	0.3018	0.0108	0.2204	0.081
Mof_C 	C 	0.194	0.9329	0.26227	0.064
Mof_H 	H 	0.1661	0.9144	0.2733	-0.011
Mof_C 	C 	0.1873	0.968	0.23412	-0.115
Mof_H 	H 	0.1552	0.9735	0.2262	0.08
Mof_C 	C 	0.2276	0.9948	0.21788	0.05
Mof_C 	C 	0.2225	0.0256	0.18712	0.102
Mof_C 	C 	0.0405	0.0891	0.13783	0.073
Mof_H 	H 	0.0118	0.0911	0.1496	-0.008
Mof_C 	C 	0.0852	0.0714	0.15126	-0.117
Mof_H 	H 	0.0869	0.0594	0.1717	0.081
Mof_C 	C 	0.0764	0.1	0.09298	0.065
Mof_H 	H 	0.0733	0.1078	0.0725	-0.008
Mof_C 	C 	0.1225	0.0858	0.10462	-0.113
Mof_H 	H 	0.1505	0.0858	0.0923	0.079
Mof_C 	C 	0.1274	0.0715	0.13435	0.052
Mof_C 	C 	0.1759	0.0592	0.14802	0.102
Mof_C 	C 	0.3434	0.117	0.08229	0.076
Mof_H 	H 	0.3415	0.1357	0.0624	-0.018
Mof_C 	C 	0.3006	0.1012	0.09723	-0.125
Mof_H 	H 	0.2699	0.1079	0.0877	0.081
Mof_C 	C 	0.3897	0.0805	0.12265	0.06
Mof_H 	H 	0.4209	0.0717	0.1314	-0.008
Mof_C 	C 	0.3486	0.0652	0.13932	-0.116
Mof_H 	H 	0.3513	0.0479	0.1593	0.08
Mof_C 	C 	0.303	0.0755	0.1263	0.054
Mof_C 	C 	0.2578	0.0607	0.14382	0.103
Mof_N 	N 	0.06156	0.5075	0.41682	-0.274
Mof_N 	N 	0.0639	0.9286	0.5328	-0.272
Mof_N 	N 	0.2124	0.9224	0.34329	-0.276
Mof_N 	N 	0.1011	0.1769	0.45537	-0.145
Mof_N 	N 	0.1365	0.0313	0.43727	-0.137
Mof_N 	N 	0.13583	0.1741	0.40826	-0.136
Mof_N 	N 	0.23825	0.9241	0.27432	-0.274
Mof_N 	N 	0.03584	0.1033	0.10947	-0.271
Mof_N 	N 	0.38773	0.1076	0.09434	-0.274
Mof_N 	N 	0.17727	0.0355	0.17627	-0.139
Mof_N 	N 	0.21491	0.0718	0.13059	-0.14
Mof_N 	N 	0.26412	0.0379	0.17191	-0.139
Mof_Zn	Zn	0.25367	0.1566	0.81144	1.165
Mof_Zn	Zn	0.46981	0.35841	0.90931	1.165
Mof_Zn	Zn	0.45118	0.1397	0.07199	1.164
Mof_I 	I 	0.16273	0.17113	0.82277	-0.374
Mof_I 	I 	0.30526	0.31047	0.80406	-0.368
Mof_I 	I 	0.4223	0.27451	0.86902	-0.364
Mof_I 	I 	0.48506	0.27889	0.95869	-0.386
Mof_I 	I 	0.45111	0.32339	0.06424	-0.379
Mof_I 	I 	0.51768	0.04456	0.09831	-0.367
Mof_C 	C 	0.4275	0.5497	0.89393	0.073
Mof_H 	H 	0.4319	0.5249	0.8748	-0.01
Mof_C 	C 	0.4101	0.6431	0.89746	-0.125
Mof_H 	H 	0.403	0.6824	0.8809	0.095
Mof_C 	C 	0.4311	0.5263	0.94364	0.074
Mof_H 	H 	0.4374	0.4848	0.9598	-0.007
Mof_C 	C 	0.4144	0.6204	0.94863	-0.119
Mof_H 	H 	0.4109	0.644	0.968	0.083
Mof_C 	C 	0.403	0.6795	0.9252	0.053
Mof_C 	C 	0.3868	0.7815	0.93015	0.098
Mof_C 	C 	0.4479	0.9773	0.02865	0.067
Mof_H 	H 	0.4675	0.9451	0.0428	-0.006
Mof_C 	C 	0.4327	0.9264	0.00472	-0.122
Mof_H 	H 	0.4419	0.86	0.0024	0.085
Mof_C 	C 	0.4095	0.1163	0.0122	0.065
Mof_H 	H 	0.4022	0.1836	0.0146	-0.006
Mof_C 	C 	0.3923	0.0689	0.98759	-0.11
Mof_H 	H 	0.3729	0.1026	0.9736	0.077
Mof_C 	C 	0.4039	0.9712	0.98373	0.048
Mof_C 	C 	0.3873	0.918	0.95729	0.101
Mof_C 	C 	0.3092	0.1239	0.86574	0.065
Mof_H 	H 	0.3104	0.1932	0.8657	-0.006
Mof_C 	C 	0.3297	0.0741	0.88881	-0.108
Mof_H 	H 	0.3439	0.1089	0.9046	0.081
Mof_C 	C 	0.2874	0.9803	0.84345	0.072
Mof_H 	H 	0.2723	0.947	0.8276	-0.015
Mof_C 	C 	0.3081	0.9261	0.86555	-0.118
Mof_H 	H 	0.3075	0.8568	0.8648	0.075
Mof_C 	C 	0.3296	0.9734	0.88878	0.057
Mof_C 	C 	0.3531	0.9191	0.91279	0.108
Mof_C 	C 	0.2229	0.0447	0.75895	0.061
Mof_H 	H 	0.1915	0.0467	0.7679	0.002
Mof_C 	C 	0.2266	0.0097	0.73072	-0.111
Mof_H 	H 	0.1982	0.9892	0.7204	0.08
Mof_C 	C 	0.306	0.0671	0.76227	0.064
Mof_H 	H 	0.3339	0.0856	0.7733	-0.01
Mof_C 	C 	0.3127	0.032	0.73412	-0.115
Mof_H 	H 	0.3448	0.0265	0.7262	0.08
Mof_C 	C 	0.2724	0.0052	0.71788	0.05
Mof_C 	C 	0.2775	0.9744	0.68712	0.101
Mof_C 	C 	0.4595	0.9109	0.63783	0.073
Mof_H 	H 	0.4882	0.9089	0.6496	-0.009
Mof_C 	C 	0.4148	0.9286	0.65126	-0.117
Mof_H 	H 	0.4131	0.9406	0.6717	0.081
Mof_C 	C 	0.4236	0.9	0.59298	0.065
Mof_H 	H 	0.4267	0.8922	0.5725	-0.008
Mof_C 	C 	0.3775	0.9142	0.60462	-0.113
Mof_H 	H 	0.3495	0.9142	0.5923	0.079
Mof_C 	C 	0.3726	0.9285	0.63435	0.052
Mof_C 	C 	0.3241	0.9408	0.64802	0.102
Mof_C 	C 	0.1566	0.883	0.58229	0.076
Mof_H 	H 	0.1585	0.8643	0.5624	-0.018
Mof_C 	C 	0.1994	0.8988	0.59723	-0.125
Mof_H 	H 	0.2301	0.8921	0.5877	0.081
Mof_C 	C 	0.1103	0.9195	0.62265	0.06
Mof_H 	H 	0.0791	0.9283	0.6314	-0.008
Mof_C 	C 	0.1514	0.9348	0.63932	-0.116
Mof_H 	H 	0.1487	0.9521	0.6593	0.08
Mof_C 	C 	0.197	0.9245	0.6263	0.054
Mof_C 	C 	0.2422	0.9393	0.64382	0.103
Mof_N 	N 	0.43844	0.4925	0.91682	-0.274
Mof_N 	N 	0.4361	0.0714	0.0328	-0.271
Mof_N 	N 	0.2876	0.0776	0.84329	-0.275
Mof_N 	N 	0.3989	0.8231	0.95537	-0.145
Mof_N 	N 	0.3635	0.9687	0.93727	-0.138
Mof_N 	N 	0.36417	0.8259	0.90826	-0.136
Mof_N 	N 	0.26175	0.0759	0.77432	-0.274
Mof_N 	N 	0.46416	0.8967	0.60947	-0.272
Mof_N 	N 	0.11227	0.8924	0.59434	-0.274
Mof_N 	N 	0.32273	0.9645	0.67627	-0.139
Mof_N 	N 	0.28509	0.9282	0.63059	-0.14
Mof_N 	N 	0.23588	0.9621	0.67191	-0.139
Mof_Zn	Zn	0.75367	0.3434	0.18856	1.165
Mof_Zn	Zn	0.96981	0.14159	0.09069	1.164
Mof_Zn	Zn	0.95118	0.3603	0.92801	1.164
Mof_I 	I 	0.66273	0.32887	0.17723	-0.374
Mof_I 	I 	0.80526	0.18953	0.19594	-0.368
Mof_I 	I 	0.9223	0.22549	0.13098	-0.365
Mof_I 	I 	0.98506	0.22111	0.04131	-0.386
Mof_I 	I 	0.95111	0.17661	0.93576	-0.379
Mof_I 	I 	0.01768	0.45544	0.90169	-0.366
Mof_C 	C 	0.9275	0.9503	0.10607	0.074
Mof_H 	H 	0.9319	0.9751	0.1252	-0.01
Mof_C 	C 	0.9101	0.8569	0.10254	-0.126
Mof_H 	H 	0.903	0.8176	0.1191	0.095
Mof_C 	C 	0.9311	0.9737	0.05636	0.076
Mof_H 	H 	0.9374	0.0152	0.0402	-0.008
Mof_C 	C 	0.9144	0.8796	0.05137	-0.12
Mof_H 	H 	0.9109	0.856	0.032	0.084
Mof_C 	C 	0.903	0.8205	0.0748	0.054
Mof_C 	C 	0.8868	0.7185	0.06985	0.097
Mof_C 	C 	0.9479	0.5227	0.97135	0.068
Mof_H 	H 	0.9675	0.5549	0.9572	-0.006
Mof_C 	C 	0.9327	0.5736	0.99528	-0.122
Mof_H 	H 	0.9419	0.64	0.9976	0.086
Mof_C 	C 	0.9095	0.3837	0.9878	0.065
Mof_H 	H 	0.9022	0.3164	0.9854	-0.006
Mof_C 	C 	0.8923	0.4311	0.01241	-0.111
Mof_H 	H 	0.8729	0.3974	0.0264	0.077
Mof_C 	C 	0.9039	0.5288	0.01627	0.048
Mof_C 	C 	0.8873	0.582	0.04271	0.101
Mof_C 	C 	0.8092	0.3761	0.13426	0.065
Mof_H 	H 	0.8104	0.3068	0.1343	-0.006
Mof_C 	C 	0.8297	0.4259	0.11119	-0.109
Mof_H 	H 	0.8439	0.3911	0.0954	0.081
Mof_C 	C 	0.7874	0.5197	0.15655	0.072
Mof_H 	H 	0.7723	0.553	0.1724	-0.015
Mof_C 	C 	0.8081	0.5739	0.13445	-0.118
Mof_H 	H 	0.8075	0.6432	0.1352	0.075
Mof_C 	C 	0.8296	0.5266	0.11122	0.058
Mof_C 	C 	0.8531	0.5809	0.08721	0.108
Mof_C 	C 	0.7229	0.4553	0.24105	0.061
Mof_H 	H 	0.6915	0.4533	0.2321	0.002
Mof_C 	C 	0.7266	0.4903	0.26928	-0.111
Mof_H 	H 	0.6982	0.5108	0.2796	0.08
Mof_C 	C 	0.806	0.4329	0.23773	0.065
Mof_H 	H 	0.8339	0.4144	0.2267	-0.011
Mof_C 	C 	0.8127	0.468	0.26588	-0.115
Mof_H 	H 	0.8448	0.4735	0.2738	0.08
Mof_C 	C 	0.7724	0.4948	0.28212	0.05
Mof_C 	C 	0.7775	0.5256	0.31288	0.101
Mof_C 	C 	0.9595	0.5891	0.36217	0.073
Mof_H 	H 	0.9882	0.5911	0.3504	-0.008
Mof_C 	C 	0.9148	0.5714	0.34874	-0.117
Mof_H 	H 	0.9131	0.5594	0.3283	0.081
Mof_C 	C 	0.9236	0.6	0.40702	0.065
Mof_H 	H 	0.9267	0.6078	0.4275	-0.008
Mof_C 	C 	0.8775	0.5858	0.39538	-0.113
Mof_H 	H 	0.8495	0.5858	0.4077	0.079
Mof_C 	C 	0.8726	0.5715	0.36565	0.052
Mof_C 	C 	0.8241	0.5592	0.35198	0.102
Mof_C 	C 	0.6566	0.617	0.41771	0.076
Mof_H 	H 	0.6585	0.6357	0.4376	-0.018
Mof_C 	C 	0.6994	0.6012	0.40277	-0.125
Mof_H 	H 	0.7301	0.6079	0.4123	0.081
Mof_C 	C 	0.6103	0.5805	0.37735	0.06
Mof_H 	H 	0.5791	0.5717	0.3686	-0.008
Mof_C 	C 	0.6514	0.5652	0.36068	-0.116
Mof_H 	H 	0.6487	0.5479	0.3407	0.08
Mof_C 	C 	0.697	0.5755	0.3737	0.054
Mof_C 	C 	0.7422	0.5607	0.35618	0.103
Mof_N 	N 	0.93844	0.0075	0.08318	-0.275
Mof_N 	N 	0.9361	0.4286	0.9672	-0.271
Mof_N 	N 	0.7876	0.4224	0.15671	-0.275
Mof_N 	N 	0.8989	0.6769	0.04463	-0.145
Mof_N 	N 	0.8635	0.5313	0.06273	-0.137
Mof_N 	N 	0.86417	0.6741	0.09174	-0.136
Mof_N 	N 	0.76175	0.4241	0.22568	-0.274
Mof_N 	N 	0.96416	0.6033	0.39053	-0.271
Mof_N 	N 	0.61227	0.6076	0.40566	-0.274
Mof_N 	N 	0.82273	0.5355	0.32373	-0.139
Mof_N 	N 	0.78509	0.5718	0.36941	-0.14
Mof_N 	N 	0.73588	0.5379	0.32809	-0.139
Mof_Zn	Zn	0.74633	0.6566	0.68856	1.165
Mof_Zn	Zn	0.53019	0.85841	0.59069	1.165
Mof_Zn	Zn	0.54882	0.6397	0.42801	1.164
Mof_I 	I 	0.83727	0.67113	0.67723	-0.374
Mof_I 	I 	0.69474	0.81047	0.69594	-0.367
Mof_I 	I 	0.5777	0.77451	0.63098	-0.364
Mof_I 	I 	0.51494	0.77889	0.54131	-0.386
Mof_I 	I 	0.54889	0.82339	0.43576	-0.379
Mof_I 	I 	0.48232	0.54456	0.40169	-0.366
Mof_C 	C 	0.5725	0.0497	0.60607	0.073
Mof_H 	H 	0.5681	0.0249	0.6252	-0.01
Mof_C 	C 	0.5899	0.1431	0.60254	-0.125
Mof_H 	H 	0.597	0.1824	0.6191	0.095
Mof_C 	C 	0.5689	0.0263	0.55636	0.073
Mof_H 	H 	0.5626	0.9848	0.5402	-0.007
Mof_C 	C 	0.5856	0.1204	0.55137	-0.119
Mof_H 	H 	0.5891	0.144	0.532	0.083
Mof_C 	C 	0.597	0.1795	0.5748	0.053
Mof_C 	C 	0.6132	0.2815	0.56985	0.098
Mof_C 	C 	0.5521	0.4773	0.47135	0.068
Mof_H 	H 	0.5325	0.4451	0.4572	-0.006
Mof_C 	C 	0.5673	0.4264	0.49528	-0.122
Mof_H 	H 	0.5581	0.36	0.4976	0.085
Mof_C 	C 	0.5905	0.6163	0.4878	0.065
Mof_H 	H 	0.5978	0.6836	0.4854	-0.006
Mof_C 	C 	0.6077	0.5689	0.51241	-0.111
Mof_H 	H 	0.6271	0.6026	0.5264	0.077
Mof_C 	C 	0.5961	0.4712	0.51627	0.048
Mof_C 	C 	0.6127	0.418	0.54271	0.101
Mof_C 	C 	0.6908	0.6239	0.63426	0.065
Mof_H 	H 	0.6896	0.6932	0.6343	-0.006
Mof_C 	C 	0.6703	0.5741	0.61119	-0.109
Mof_H 	H 	0.6561	0.6089	0.5954	0.081
Mof_C 	C 	0.7126	0.4803	0.65655	0.072
Mof_H 	H 	0.7277	0.447	0.6724	-0.015
Mof_C 	C 	0.6919	0.4261	0.63445	-0.118
Mof_H 	H 	0.6925	0.3568	0.6352	0.075
Mof_C 	C 	0.6704	0.4734	0.61122	0.058
Mof_C 	C 	0.6469	0.4191	0.58721	0.108
Mof_C 	C 	0.7771	0.5447	0.74105	0.061
Mof_H 	H 	0.8085	0.5467	0.7321	0.002
Mof_C 	C 	0.7734	0.5097	0.76928	-0.111
Mof_H 	H 	0.8018	0.4892	0.7796	0.08
Mof_C 	C 	0.694	0.5671	0.73773	0.065
Mof_H 	H 	0.6661	0.5856	0.7267	-0.011
Mof_C 	C 	0.6873	0.532	0.76588	-0.115
Mof_H 	H 	0.6552	0.5265	0.7738	0.08
Mof_C 	C 	0.7276	0.5052	0.78212	0.05
Mof_C 	C 	0.7225	0.4744	0.81288	0.101
Mof_C 	C 	0.5405	0.4109	0.86217	0.073
Mof_H 	H 	0.5118	0.4089	0.8504	-0.009
Mof_C 	C 	0.5852	0.4286	0.84874	-0.117
Mof_H 	H 	0.5869	0.4406	0.8283	0.081
Mof_C 	C 	0.5764	0.4	0.90702	0.065
Mof_H 	H 	0.5733	0.3922	0.9275	-0.008
Mof_C 	C 	0.6225	0.4142	0.89538	-0.113
Mof_H 	H 	0.6505	0.4142	0.9077	0.079
Mof_C 	C 	0.6274	0.4285	0.86565	0.052
Mof_C 	C 	0.6759	0.4408	0.85198	0.102
Mof_C 	C 	0.8434	0.383	0.91771	0.076
Mof_H 	H 	0.8415	0.3643	0.9376	-0.018
Mof_C 	C 	0.8006	0.3988	0.90277	-0.125
Mof_H 	H 	0.7699	0.3921	0.9123	0.081
Mof_C 	C 	0.8897	0.4195	0.87735	0.06
Mof_H 	H 	0.9209	0.4283	0.8686	-0.008
Mof_C 	C 	0.8486	0.4348	0.86068	-0.116
Mof_H 	H 	0.8513	0.4521	0.8407	0.08
Mof_C 	C 	0.803	0.4245	0.8737	0.054
Mof_C 	C 	0.7578	0.4393	0.85618	0.103
Mof_N 	N 	0.56156	0.9925	0.58318	-0.274
Mof_N 	N 	0.5639	0.5714	0.4672	-0.271
Mof_N 	N 	0.7124	0.5776	0.65671	-0.275
Mof_N 	N 	0.6011	0.3231	0.54463	-0.145
Mof_N 	N 	0.6365	0.4687	0.56273	-0.137
Mof_N 	N 	0.63583	0.3259	0.59174	-0.136
Mof_N 	N 	0.73825	0.5759	0.72568	-0.274
Mof_N 	N 	0.53584	0.3967	0.89053	-0.272
Mof_N 	N 	0.88773	0.3924	0.90566	-0.274
Mof_N 	N 	0.67727	0.4645	0.82373	-0.139
Mof_N 	N 	0.71491	0.4282	0.86941	-0.14
Mof_N 	N 	0.76412	0.4621	0.82809	-0.139
Mof_Zn	Zn	0.75367	0.1566	0.68856	1.165
Mof_Zn	Zn	0.96981	0.35841	0.59069	1.165
Mof_Zn	Zn	0.95118	0.1397	0.42801	1.164
Mof_I 	I 	0.66273	0.17113	0.67723	-0.374
Mof_I 	I 	0.80526	0.31047	0.69594	-0.368
Mof_I 	I 	0.9223	0.27451	0.63098	-0.365
Mof_I 	I 	0.98506	0.27889	0.54131	-0.386
Mof_I 	I 	0.95111	0.32339	0.43576	-0.379
Mof_I 	I 	0.01768	0.04456	0.40169	-0.366
Mof_C 	C 	0.9275	0.5497	0.60607	0.073
Mof_H 	H 	0.9319	0.5249	0.6252	-0.01
Mof_C 	C 	0.9101	0.6431	0.60254	-0.125
Mof_H 	H 	0.903	0.6824	0.6191	0.095
Mof_C 	C 	0.9311	0.5263	0.55636	0.074
Mof_H 	H 	0.9374	0.4848	0.5402	-0.007
Mof_C 	C 	0.9144	0.6204	0.55137	-0.119
Mof_H 	H 	0.9109	0.644	0.532	0.083
Mof_C 	C 	0.903	0.6795	0.5748	0.053
Mof_C 	C 	0.8868	0.7815	0.56985	0.098
Mof_C 	C 	0.9479	0.9773	0.47135	0.069
Mof_H 	H 	0.9675	0.9451	0.4572	-0.006
Mof_C 	C 	0.9327	0.9264	0.49528	-0.122
Mof_H 	H 	0.9419	0.86	0.4976	0.086
Mof_C 	C 	0.9095	0.1163	0.4878	0.065
Mof_H 	H 	0.9022	0.1836	0.4854	-0.006
Mof_C 	C 	0.8923	0.0689	0.51241	-0.112
Mof_H 	H 	0.8729	0.1026	0.5264	0.077
Mof_C 	C 	0.9039	0.9712	0.51627	0.049
Mof_C 	C 	0.8873	0.918	0.54271	0.101
Mof_C 	C 	0.8092	0.1239	0.63426	0.065
Mof_H 	H 	0.8104	0.1932	0.6343	-0.006
Mof_C 	C 	0.8297	0.0741	0.61119	-0.11
Mof_H 	H 	0.8439	0.1089	0.5954	0.081
Mof_C 	C 	0.7874	0.9803	0.65655	0.073
Mof_H 	H 	0.7723	0.947	0.6724	-0.015
Mof_C 	C 	0.8081	0.9261	0.63445	-0.119
Mof_H 	H 	0.8075	0.8568	0.6352	0.076
Mof_C 	C 	0.8296	0.9734	0.61122	0.058
Mof_C 	C 	0.8531	0.9191	0.58721	0.108
Mof_C 	C 	0.7229	0.0447	0.74105	0.061
Mof_H 	H 	0.6915	0.0467	0.7321	0.002
Mof_C 	C 	0.7266	0.0097	0.76928	-0.112
Mof_H 	H 	0.6982	0.9892	0.7796	0.081
Mof_C 	C 	0.806	0.0671	0.73773	0.064
Mof_H 	H 	0.8339	0.0856	0.7267	-0.011
Mof_C 	C 	0.8127	0.032	0.76588	-0.115
Mof_H 	H 	0.8448	0.0265	0.7738	0.08
Mof_C 	C 	0.7724	0.0052	0.78212	0.05
Mof_C 	C 	0.7775	0.9744	0.81288	0.102
Mof_C 	C 	0.9595	0.9109	0.86217	0.073
Mof_H 	H 	0.9882	0.9089	0.8504	-0.008
Mof_C 	C 	0.9148	0.9286	0.84874	-0.117
Mof_H 	H 	0.9131	0.9406	0.8283	0.081
Mof_C 	C 	0.9236	0.9	0.90702	0.065
Mof_H 	H 	0.9267	0.8922	0.9275	-0.008
Mof_C 	C 	0.8775	0.9142	0.89538	-0.113
Mof_H 	H 	0.8495	0.9142	0.9077	0.079
Mof_C 	C 	0.8726	0.9285	0.86565	0.052
Mof_C 	C 	0.8241	0.9408	0.85198	0.102
Mof_C 	C 	0.6566	0.883	0.91771	0.076
Mof_H 	H 	0.6585	0.8643	0.9376	-0.018
Mof_C 	C 	0.6994	0.8988	0.90277	-0.125
Mof_H 	H 	0.7301	0.8921	0.9123	0.081
Mof_C 	C 	0.6103	0.9195	0.87735	0.06
Mof_H 	H 	0.5791	0.9283	0.8686	-0.008
Mof_C 	C 	0.6514	0.9348	0.86068	-0.116
Mof_H 	H 	0.6487	0.9521	0.8407	0.08
Mof_C 	C 	0.697	0.9245	0.8737	0.054
Mof_C 	C 	0.7422	0.9393	0.85618	0.103
Mof_N 	N 	0.93844	0.4925	0.58318	-0.274
Mof_N 	N 	0.9361	0.0714	0.4672	-0.272
Mof_N 	N 	0.7876	0.0776	0.65671	-0.276
Mof_N 	N 	0.8989	0.8231	0.54463	-0.145
Mof_N 	N 	0.8635	0.9687	0.56273	-0.137
Mof_N 	N 	0.86417	0.8259	0.59174	-0.136
Mof_N 	N 	0.76175	0.0759	0.72568	-0.274
Mof_N 	N 	0.96416	0.8967	0.89053	-0.271
Mof_N 	N 	0.61227	0.8924	0.90566	-0.274
Mof_N 	N 	0.82273	0.9645	0.82373	-0.139
Mof_N 	N 	0.78509	0.9282	0.86941	-0.14
Mof_N 	N 	0.73588	0.9621	0.82809	-0.139
Mof_Zn	Zn	0.74633	0.8434	0.18856	1.165
Mof_Zn	Zn	0.53019	0.64159	0.09069	1.165
Mof_Zn	Zn	0.54882	0.8603	0.92801	1.164
Mof_I 	I 	0.83727	0.82887	0.17723	-0.374
Mof_I 	I 	0.69474	0.68953	0.19594	-0.368
Mof_I 	I 	0.5777	0.72549	0.13098	-0.364
Mof_I 	I 	0.51494	0.72111	0.04131	-0.386
Mof_I 	I 	0.54889	0.67661	0.93576	-0.379
Mof_I 	I 	0.48232	0.95544	0.90169	-0.367
Mof_C 	C 	0.5725	0.4503	0.10607	0.073
Mof_H 	H 	0.5681	0.4751	0.1252	-0.01
Mof_C 	C 	0.5899	0.3569	0.10254	-0.125
Mof_H 	H 	0.597	0.3176	0.1191	0.095
Mof_C 	C 	0.5689	0.4737	0.05636	0.074
Mof_H 	H 	0.5626	0.5152	0.0402	-0.007
Mof_C 	C 	0.5856	0.3796	0.05137	-0.119
Mof_H 	H 	0.5891	0.356	0.032	0.083
Mof_C 	C 	0.597	0.3205	0.0748	0.053
Mof_C 	C 	0.6132	0.2185	0.06985	0.098
Mof_C 	C 	0.5521	0.0227	0.97135	0.067
Mof_H 	H 	0.5325	0.0549	0.9572	-0.006
Mof_C 	C 	0.5673	0.0736	0.99528	-0.122
Mof_H 	H 	0.5581	0.14	0.9976	0.085
Mof_C 	C 	0.5905	0.8837	0.9878	0.065
Mof_H 	H 	0.5978	0.8164	0.9854	-0.006
Mof_C 	C 	0.6077	0.9311	0.01241	-0.11
Mof_H 	H 	0.6271	0.8974	0.0264	0.077
Mof_C 	C 	0.5961	0.0288	0.01627	0.048
Mof_C 	C 	0.6127	0.082	0.04271	0.101
Mof_C 	C 	0.6908	0.8761	0.13426	0.065
Mof_H 	H 	0.6896	0.8068	0.1343	-0.006
Mof_C 	C 	0.6703	0.9259	0.11119	-0.108
Mof_H 	H 	0.6561	0.8911	0.0954	0.081
Mof_C 	C 	0.7126	0.0197	0.15655	0.072
Mof_H 	H 	0.7277	0.053	0.1724	-0.015
Mof_C 	C 	0.6919	0.0739	0.13445	-0.118
Mof_H 	H 	0.6925	0.1432	0.1352	0.075
Mof_C 	C 	0.6704	0.0266	0.11122	0.057
Mof_C 	C 	0.6469	0.0809	0.08721	0.108
Mof_C 	C 	0.7771	0.9553	0.24105	0.061
Mof_H 	H 	0.8085	0.9533	0.2321	0.002
Mof_C 	C 	0.7734	0.9903	0.26928	-0.111
Mof_H 	H 	0.8018	0.0108	0.2796	0.08
Mof_C 	C 	0.694	0.9329	0.23773	0.064
Mof_H 	H 	0.6661	0.9144	0.2267	-0.01
Mof_C 	C 	0.6873	0.968	0.26588	-0.115
Mof_H 	H 	0.6552	0.9735	0.2738	0.08
Mof_C 	C 	0.7276	0.9948	0.28212	0.05
Mof_C 	C 	0.7225	0.0256	0.31288	0.101
Mof_C 	C 	0.5405	0.0891	0.36217	0.073
Mof_H 	H 	0.5118	0.0911	0.3504	-0.009
Mof_C 	C 	0.5852	0.0714	0.34874	-0.117
Mof_H 	H 	0.5869	0.0594	0.3283	0.081
Mof_C 	C 	0.5764	0.1	0.40702	0.065
Mof_H 	H 	0.5733	0.1078	0.4275	-0.008
Mof_C 	C 	0.6225	0.0858	0.39538	-0.113
Mof_H 	H 	0.6505	0.0858	0.4077	0.079
Mof_C 	C 	0.6274	0.0715	0.36565	0.052
Mof_C 	C 	0.6759	0.0592	0.35198	0.102
Mof_C 	C 	0.8434	0.117	0.41771	0.076
Mof_H 	H 	0.8415	0.1357	0.4376	-0.018
Mof_C 	C 	0.8006	0.1012	0.40277	-0.125
Mof_H 	H 	0.7699	0.1079	0.4123	0.081
Mof_C 	C 	0.8897	0.0805	0.37735	0.06
Mof_H 	H 	0.9209	0.0717	0.3686	-0.008
Mof_C 	C 	0.8486	0.0652	0.36068	-0.116
Mof_H 	H 	0.8513	0.0479	0.3407	0.08
Mof_C 	C 	0.803	0.0755	0.3737	0.054
Mof_C 	C 	0.7578	0.0607	0.35618	0.103
Mof_N 	N 	0.56156	0.5075	0.08318	-0.274
Mof_N 	N 	0.5639	0.9286	0.9672	-0.271
Mof_N 	N 	0.7124	0.9224	0.15671	-0.275
Mof_N 	N 	0.6011	0.1769	0.04463	-0.145
Mof_N 	N 	0.6365	0.0313	0.06273	-0.138
Mof_N 	N 	0.63583	0.1741	0.09174	-0.136
Mof_N 	N 	0.73825	0.9241	0.22568	-0.274
Mof_N 	N 	0.53584	0.1033	0.39053	-0.272
Mof_N 	N 	0.88773	0.1076	0.40566	-0.274
Mof_N 	N 	0.67727	0.0355	0.32373	-0.139
Mof_N 	N 	0.71491	0.0718	0.36941	-0.14
Mof_N 	N 	0.76412	0.0379	0.32809	-0.139
Mof_Zn	Zn	0.24633	0.6566	0.81144	1.165
Mof_Zn	Zn	0.03019	0.85841	0.90931	1.164
Mof_Zn	Zn	0.04882	0.6397	0.07199	1.164
Mof_I 	I 	0.33727	0.67113	0.82277	-0.374
Mof_I 	I 	0.19474	0.81047	0.80406	-0.368
Mof_I 	I 	0.0777	0.77451	0.86902	-0.365
Mof_I 	I 	0.01494	0.77889	0.95869	-0.386
Mof_I 	I 	0.04889	0.82339	0.06424	-0.379
Mof_I 	I 	0.98232	0.54456	0.09831	-0.366
Mof_C 	C 	0.0725	0.0497	0.89393	0.074
Mof_H 	H 	0.0681	0.0249	0.8748	-0.01
Mof_C 	C 	0.0899	0.1431	0.89746	-0.126
Mof_H 	H 	0.097	0.1824	0.8809	0.095
Mof_C 	C 	0.0689	0.0263	0.94364	0.076
Mof_H 	H 	0.0626	0.9848	0.9598	-0.008
Mof_C 	C 	0.0856	0.1204	0.94863	-0.12
Mof_H 	H 	0.0891	0.144	0.968	0.084
Mof_C 	C 	0.097	0.1795	0.9252	0.054
Mof_C 	C 	0.1132	0.2815	0.93015	0.097
Mof_C 	C 	0.0521	0.4773	0.02865	0.068
Mof_H 	H 	0.0325	0.4451	0.0428	-0.006
Mof_C 	C 	0.0673	0.4264	0.00472	-0.122
Mof_H 	H 	0.0581	0.36	0.0024	0.086
Mof_C 	C 	0.0905	0.6163	0.0122	0.065
Mof_H 	H 	0.0978	0.6836	0.0146	-0.006
Mof_C 	C 	0.1077	0.5689	0.98759	-0.111
Mof_H 	H 	0.1271	0.6026	0.9736	0.077
Mof_C 	C 	0.0961	0.4712	0.98373	0.048
Mof_C 	C 	0.1127	0.418	0.95729	0.101
Mof_C 	C 	0.1908	0.6239	0.86574	0.065
Mof_H 	H 	0.1896	0.6932	0.8657	-0.006
Mof_C 	C 	0.1703	0.5741	0.88881	-0.109
Mof_H 	H 	0.1561	0.6089	0.9046	0.081
Mof_C 	C 	0.2126	0.4803	0.84345	0.072
Mof_H 	H 	0.2277	0.447	0.8276	-0.015
Mof_C 	C 	0.1919	0.4261	0.86555	-0.118
Mof_H 	H 	0.1925	0.3568	0.8648	0.075
Mof_C 	C 	0.1704	0.4734	0.88878	0.058
Mof_C 	C 	0.1469	0.4191	0.91279	0.108
Mof_C 	C 	0.2771	0.5447	0.75895	0.061
Mof_H 	H 	0.3085	0.5467	0.7679	0.002
Mof_C 	C 	0.2734	0.5097	0.73072	-0.111
Mof_H 	H 	0.3018	0.4892	0.7204	0.08
Mof_C 	C 	0.194	0.5671	0.76227	0.065
Mof_H 	H 	0.1661	0.5856	0.7733	-0.011
Mof_C 	C 	0.1873	0.532	0.73412	-0.115
Mof_H 	H 	0.1552	0.5265	0.7262	0.08
Mof_C 	C 	0.2276	0.5052	0.71788	0.05
Mof_C 	C 	0.2225	0.4744	0.68712	0.101
Mof_C 	C 	0.0405	0.4109	0.63783	0.073
Mof_H 	H 	0.0118	0.4089	0.6496	-0.008
Mof_C 	C 	0.0852	0.4286	0.65126	-0.117
Mof_H 	H 	0.0869	0.4406	0.6717	0.081
Mof_C 	C 	0.0764	0.4	0.59298	0.065
Mof_H 	H 	0.0733	0.3922	0.5725	-0.008
Mof_C 	C 	0.1225	0.4142	0.60462	-0.113
Mof_H 	H 	0.1505	0.4142	0.5923	0.079
Mof_C 	C 	0.1274	0.4285	0.63435	0.052
Mof_C 	C 	0.1759	0.4408	0.64802	0.102
Mof_C 	C 	0.3434	0.383	0.58229	0.076
Mof_H 	H 	0.3415	0.3643	0.5624	-0.018
Mof_C 	C 	0.3006	0.3988	0.59723	-0.125
Mof_H 	H 	0.2699	0.3921	0.5877	0.081
Mof_C 	C 	0.3897	0.4195	0.62265	0.06
Mof_H 	H 	0.4209	0.4283	0.6314	-0.008
Mof_C 	C 	0.3486	0.4348	0.63932	-0.116
Mof_H 	H 	0.3513	0.4521	0.6593	0.08
Mof_C 	C 	0.303	0.4245	0.6263	0.054
Mof_C 	C 	0.2578	0.4393	0.64382	0.103
Mof_N 	N 	0.06156	0.9925	0.91682	-0.275
Mof_N 	N 	0.0639	0.5714	0.0328	-0.271
Mof_N 	N 	0.2124	0.5776	0.84329	-0.275
Mof_N 	N 	0.1011	0.3231	0.95537	-0.145
Mof_N 	N 	0.1365	0.4687	0.93727	-0.137
Mof_N 	N 	0.13583	0.3259	0.90826	-0.136
Mof_N 	N 	0.23825	0.5759	0.77432	-0.274
Mof_N 	N 	0.03584	0.3967	0.60947	-0.271
Mof_N 	N 	0.38773	0.3924	0.59434	-0.274
Mof_N 	N 	0.17727	0.4645	0.67627	-0.139
Mof_N 	N 	0.21491	0.4282	0.63059	-0.14
Mof_N 	N 	0.26412	0.4621	0.67191	-0.139
Mof_Zn	Zn	0.25367	0.3434	0.31144	1.165
Mof_Zn	Zn	0.46981	0.14159	0.40931	1.165
Mof_Zn	Zn	0.45118	0.3603	0.57199	1.164
Mof_I 	I 	0.16273	0.32887	0.32277	-0.374
Mof_I 	I 	0.30526	0.18953	0.30406	-0.367
Mof_I 	I 	0.4223	0.22549	0.36902	-0.364
Mof_I 	I 	0.48506	0.22111	0.45869	-0.386
Mof_I 	I 	0.45111	0.17661	0.56424	-0.379
Mof_I 	I 	0.51768	0.45544	0.59831	-0.366
Mof_C 	C 	0.4275	0.9503	0.39393	0.073
Mof_H 	H 	0.4319	0.9751	0.3748	-0.01
Mof_C 	C 	0.4101	0.8569	0.39746	-0.125
Mof_H 	H 	0.403	0.8176	0.3809	0.095
Mof_C 	C 	0.4311	0.9737	0.44364	0.073
Mof_H 	H 	0.4374	0.0152	0.4598	-0.007
Mof_C 	C 	0.4144	0.8796	0.44863	-0.119
Mof_H 	H 	0.4109	0.856	0.468	0.083
Mof_C 	C 	0.403	0.8205	0.4252	0.053
Mof_C 	C 	0.3868	0.7185	0.43015	0.098
Mof_C 	C 	0.4479	0.5227	0.52865	0.068
Mof_H 	H 	0.4675	0.5549	0.5428	-0.006
Mof_C 	C 	0.4327	0.5736	0.50472	-0.122
Mof_H 	H 	0.4419	0.64	0.5024	0.085
Mof_C 	C 	0.4095	0.3837	0.5122	0.065
Mof_H 	H 	0.4022	0.3164	0.5146	-0.006
Mof_C 	C 	0.3923	0.4311	0.48759	-0.111
Mof_H 	H 	0.3729	0.3974	0.4736	0.077
Mof_C 	C 	0.4039	0.5288	0.48373	0.048
Mof_C 	C 	0.3873	0.582	0.45729	0.101
Mof_C 	C 	0.3092	0.3761	0.36574	0.065
Mof_H 	H 	0.3104	0.3068	0.3657	-0.006
Mof_C 	C 	0.3297	0.4259	0.38881	-0.109
Mof_H 	H 	0.3439	0.3911	0.4046	0.081
Mof_C 	C 	0.2874	0.5197	0.34345	0.072
Mof_H 	H 	0.2723	0.553	0.3276	-0.015
Mof_C 	C 	0.3081	0.5739	0.36555	-0.118
Mof_H 	H 	0.3075	0.6432	0.3648	0.075
Mof_C 	C 	0.3296	0.5266	0.38878	0.058
Mof_C 	C 	0.3531	0.5809	0.41279	0.108
Mof_C 	C 	0.2229	0.4553	0.25895	0.061
Mof_H 	H 	0.1915	0.4533	0.2679	0.002
Mof_C 	C 	0.2266	0.4903	0.23072	-0.111
Mof_H 	H 	0.1982	0.5108	0.2204	0.08
Mof_C 	C 	0.306	0.4329	0.26227	0.065
Mof_H 	H 	0.3339	0.4144	0.2733	-0.011
Mof_C 	C 	0.3127	0.468	0.23412	-0.115
Mof_H 	H 	0.3448	0.4735	0.2262	0.08
Mof_C 	C 	0.2724	0.4948	0.21788	0.05
Mof_C 	C 	0.2775	0.5256	0.18712	0.101
Mof_C 	C 	0.4595	0.5891	0.13783	0.073
Mof_H 	H 	0.4882	0.5911	0.1496	-0.009
Mof_C 	C 	0.4148	0.5714	0.15126	-0.117
Mof_H 	H 	0.4131	0.5594	0.1717	0.081
Mof_C 	C 	0.4236	0.6	0.09298	0.065
Mof_H 	H 	0.4267	0.6078	0.0725	-0.008
Mof_C 	C 	0.3775	0.5858	0.10462	-0.113
Mof_H 	H 	0.3495	0.5858	0.0923	0.079
Mof_C 	C 	0.3726	0.5715	0.13435	0.052
Mof_C 	C 	0.3241	0.5592	0.14802	0.102
Mof_C 	C 	0.1566	0.617	0.08229	0.076
Mof_H 	H 	0.1585	0.6357	0.0624	-0.018
Mof_C 	C 	0.1994	0.6012	0.09723	-0.125
Mof_H 	H 	0.2301	0.6079	0.0877	0.081
Mof_C 	C 	0.1103	0.5805	0.12265	0.06
Mof_H 	H 	0.0791	0.5717	0.1314	-0.008
Mof_C 	C 	0.1514	0.5652	0.13932	-0.116
Mof_H 	H 	0.1487	0.5479	0.1593	0.08
Mof_C 	C 	0.197	0.5755	0.1263	0.054
Mof_C 	C 	0.2422	0.5607	0.14382	0.103
Mof_N 	N 	0.43844	0.0075	0.41682	-0.274
Mof_N 	N 	0.4361	0.4286	0.5328	-0.271
Mof_N 	N 	0.2876	0.4224	0.34329	-0.275
Mof_N 	N 	0.3989	0.6769	0.45537	-0.145
Mof_N 	N 	0.3635	0.5313	0.43727	-0.137
Mof_N 	N 	0.36417	0.6741	0.40826	-0.136
Mof_N 	N 	0.26175	0.4241	0.27432	-0.274
Mof_N 	N 	0.46416	0.6033	0.10947	-0.272
Mof_N 	N 	0.11227	0.6076	0.09434	-0.274
Mof_N 	N 	0.32273	0.5355	0.17627	-0.139
Mof_N 	N 	0.28509	0.5718	0.13059	-0.14
Mof_N 	N 	0.23588	0.5379	0.17191	-0.139
_end
