data_functionalizedCrystal
_audit_creation_method	'EQeq! by Chris Wilmer'
_symmetry_space_group_name_H-M	'P1'
_symmetry_Int_Tables_number	1
_symmetry_cell_setting	triclinic
loop_
_symmetry_equiv_pos_as_xyz
  x,y,z
_cell_length_a	8.9367
_cell_length_b	9.4944
_cell_length_c	11.9769
_cell_angle_alpha	83.967
_cell_angle_beta	73.74
_cell_angle_gamma	67.598
loop_
_atom_site_label
_atom_site_type_symbol
_atom_site_fract_x
_atom_site_fract_y
_atom_site_fract_z
_atom_site_charge
Mof_U 	U 	0.57955	0.71034	0.82113	-0.001
Mof_U 	U 	0.42045	0.28966	0.17887	-0.002
Mof_U 	U 	0.5	-2.46183e-19	0.5	0.019
Mof_H 	H 	0.7636	0.1258	0.96	0.088
Mof_H 	H 	0.0196	0.9445	0.363	0.082
Mof_H 	H 	0.2924	0.7366	0.2571	0.088
Mof_H 	H 	0.9825	0.081	0.1434	0.077
Mof_H 	H 	0.4258	0.7849	0.1569	0.081
Mof_H 	H 	0.2364	0.8742	0.04	0.088
Mof_H 	H 	0.9965	0.224	0.7842	0.083
Mof_H 	H 	0.9891	0.1205	0.3337	0.077
Mof_H 	H 	0.9743	0.8481	0.0928	0.069
Mof_H 	H 	0.0109	0.8795	0.6663	0.076
Mof_H 	H 	0.0175	0.919	0.8566	0.077
Mof_H 	H 	0.7076	0.2634	0.7429	0.088
Mof_H 	H 	0.9804	0.0555	0.637	0.08
Mof_H 	H 	0.5742	0.2151	0.8431	0.08
Mof_H 	H 	0.0257	0.1519	0.9072	0.069
Mof_H 	H 	0.7579	0.9527	0.8192	0.089
Mof_H 	H 	0.2421	0.0473	0.1808	0.087
Mof_H 	H 	0.0035	0.776	0.2158	0.083
Mof_C 	C 	0.3047	0.8109	0.1942	-0.076
Mof_C 	C 	0.0384	0.0169	0.2998	-0.061
Mof_C 	C 	0.3177	0.9859	0.3304	0.275
Mof_C 	C 	0.0274	0.8491	0.1548	-0.075
Mof_C 	C 	0.2956	0.6412	0.0538	0.288
Mof_C 	C 	0.2164	0.8023	0.1045	-0.092
Mof_C 	C 	0.7836	0.1977	0.8955	-0.092
Mof_C 	C 	0.2268	0.9749	0.246	-0.101
Mof_C 	C 	0.2334	0.9354	0.7529	0.288
Mof_C 	C 	0.7732	0.0251	0.754	-0.105
Mof_C 	C 	0.6953	0.1891	0.8058	-0.074
Mof_C 	C 	0.9726	0.1509	0.8452	-0.075
Mof_C 	C 	0.7044	0.3588	0.9462	0.288
Mof_C 	C 	0.9616	0.9831	0.7002	-0.056
Mof_C 	C 	0.0457	0.9885	0.7924	-0.098
Mof_C 	C 	0.6823	0.0141	0.6696	0.275
Mof_C 	C 	0.7666	0.0646	0.2471	0.288
Mof_C 	C 	0.9543	0.0115	0.2076	-0.097
Mof_O 	O 	0.3038	0.9263	0.6461	-0.172
Mof_O 	O 	0.3823	0.6187	0.9504	-0.181
Mof_O 	O 	0.6846	0.089	0.578	-0.186
Mof_O 	O 	0.6962	0.0737	0.3539	-0.172
Mof_O 	O 	0.6177	0.3813	0.0496	-0.181
Mof_O 	O 	0.3102	0.8985	0.8319	-0.195
Mof_O 	O 	0.6898	0.1015	0.1681	-0.195
Mof_O 	O 	0.4028	0.0731	0.3094	-0.164
Mof_O 	O 	0.2655	0.5373	0.1189	-0.192
Mof_O 	O 	0.5972	0.9269	0.6906	-0.163
Mof_O 	O 	0.7345	0.4627	0.8811	-0.192
Mof_O 	O 	0.3154	0.911	0.422	-0.185
_end
