data_functionalizedCrystal
_audit_creation_method	'EQeq! by Chris Wilmer'
_symmetry_space_group_name_H-M	'P1'
_symmetry_Int_Tables_number	1
_symmetry_cell_setting	triclinic
loop_
_symmetry_equiv_pos_as_xyz
  x,y,z
_cell_length_a	23.4897
_cell_length_b	23.4895
_cell_length_c	31.9645
_cell_angle_alpha	90
_cell_angle_beta	90
_cell_angle_gamma	90
loop_
_atom_site_label
_atom_site_type_symbol
_atom_site_fract_x
_atom_site_fract_y
_atom_site_fract_z
_atom_site_charge
Mof_O 	O 	0.46869	0.0908	0.7598	-0.487
Mof_O 	O 	0.48198	0.06052	0.69527	-0.477
Mof_O 	O 	0.09091	0.46929	0.75965	-0.486
Mof_O 	O 	0.06031	0.48235	0.69501	-0.477
Mof_C 	C 	0.46815	0.0986	0.721	0.3
Mof_C 	C 	0.42662	0.42644	0.57546	-0.142
Mof_C 	C 	0.44914	0.15638	0.70379	-0.054
Mof_C 	C 	0.4102	0.2607	0.67367	-0.002
Mof_C 	C 	0.41443	0.4148	0.53514	0.116
Mof_C 	C 	0.4286	0.1962	0.73131	-0.014
Mof_H 	H 	0.428	0.1887	0.7599	0.048
Mof_C 	C 	0.26051	0.4102	0.67362	-0.007
Mof_C 	C 	0.38833	0.31548	0.6572	0.095
Mof_C 	C 	0.39533	0.39491	0.60991	0.133
Mof_C 	C 	0.31543	0.3878	0.65686	0.097
Mof_C 	C 	0.33876	0.3388	0.67228	-0.167
Mof_H 	H 	0.3201	0.3203	0.6941	0.085
Mof_C 	C 	0.34408	0.41692	0.62515	-0.183
Mof_H 	H 	0.3293	0.4505	0.6143	0.096
Mof_C 	C 	0.1975	0.429	0.73225	-0.017
Mof_H 	H 	0.1906	0.4296	0.7609	0.049
Mof_C 	C 	0.46718	0.4676	0.58927	0.112
Mof_C 	C 	0.4083	0.2493	0.71568	-0.067
Mof_H 	H 	0.3936	0.2763	0.7341	0.051
Mof_C 	C 	0.2484	0.4079	0.7167	-0.063
Mof_H 	H 	0.2749	0.3922	0.735	0.049
Mof_C 	C 	0.4507	0.1674	0.66141	-0.01
Mof_H 	H 	0.4636	0.1397	0.6429	0.046
Mof_C 	C 	0.433	0.2198	0.64666	-0.069
Mof_H 	H 	0.4364	0.2281	0.6183	0.051
Mof_C 	C 	0.41758	0.34379	0.62541	-0.182
Mof_H 	H 	0.4513	0.329	0.6147	0.095
Mof_C 	C 	0.219	0.434	0.64644	-0.065
Mof_H 	H 	0.2267	0.4371	0.618	0.05
Mof_C 	C 	0.3743	0.3744	0.52101	-0.089
Mof_H 	H 	0.3516	0.3515	0.538	0.061
Mof_C 	C 	0.168	0.4524	0.66173	-0.014
Mof_H 	H 	0.1408	0.467	0.6435	0.048
Mof_C 	C 	0.4795	0.4798	0.63117	-0.089
Mof_H 	H 	0.4627	0.4632	0.6545	0.067
Mof_C 	C 	0.098	0.4683	0.7207	0.295
Mof_C 	C 	0.15644	0.4493	0.70381	-0.048
Mof_O 	O 	0.53131	0.9092	0.7598	-0.448
Mof_O 	O 	0.51802	0.93948	0.69527	-0.428
Mof_O 	O 	0.90909	0.53071	0.75965	-0.447
Mof_O 	O 	0.93969	0.51765	0.69501	-0.427
Mof_C 	C 	0.53185	0.9014	0.721	0.291
Mof_C 	C 	0.57338	0.57356	0.57546	-0.144
Mof_C 	C 	0.55086	0.84362	0.70379	-0.029
Mof_C 	C 	0.5898	0.7393	0.67367	-0.007
Mof_C 	C 	0.58557	0.5852	0.53514	0.119
Mof_C 	C 	0.5714	0.8038	0.73131	-0.022
Mof_H 	H 	0.572	0.8113	0.7599	0.065
Mof_C 	C 	0.73949	0.5898	0.67362	-0.011
Mof_C 	C 	0.61167	0.68452	0.6572	0.107
Mof_C 	C 	0.60467	0.60509	0.60991	0.14
Mof_C 	C 	0.68457	0.6122	0.65686	0.11
Mof_C 	C 	0.66124	0.6612	0.67228	-0.174
Mof_H 	H 	0.6799	0.6797	0.6941	0.098
Mof_C 	C 	0.65592	0.58308	0.62515	-0.189
Mof_H 	H 	0.6707	0.5495	0.6143	0.1
Mof_C 	C 	0.8025	0.571	0.73225	-0.024
Mof_H 	H 	0.8094	0.5704	0.7609	0.065
Mof_C 	C 	0.53282	0.5324	0.58927	0.114
Mof_C 	C 	0.5917	0.7507	0.71568	-0.051
Mof_H 	H 	0.6064	0.7237	0.7341	0.053
Mof_C 	C 	0.7516	0.5921	0.7167	-0.048
Mof_H 	H 	0.7251	0.6078	0.735	0.052
Mof_C 	C 	0.5493	0.8326	0.66141	-0.02
Mof_H 	H 	0.5364	0.8603	0.6429	0.065
Mof_C 	C 	0.567	0.7802	0.64666	-0.051
Mof_H 	H 	0.5636	0.7719	0.6183	0.054
Mof_C 	C 	0.58242	0.65621	0.62541	-0.187
Mof_H 	H 	0.5487	0.671	0.6147	0.099
Mof_C 	C 	0.781	0.566	0.64644	-0.048
Mof_H 	H 	0.7733	0.5629	0.618	0.053
Mof_C 	C 	0.6257	0.6256	0.52101	-0.087
Mof_H 	H 	0.6484	0.6485	0.538	0.07
Mof_C 	C 	0.832	0.5476	0.66173	-0.023
Mof_H 	H 	0.8592	0.533	0.6435	0.066
Mof_C 	C 	0.5205	0.5202	0.63117	-0.09
Mof_H 	H 	0.5373	0.5368	0.6545	0.067
Mof_C 	C 	0.902	0.5317	0.7207	0.287
Mof_C 	C 	0.84356	0.5507	0.70381	-0.024
Mof_O 	O 	0.03131	0.5908	0.7402	-0.487
Mof_O 	O 	0.01802	0.56052	0.80473	-0.478
Mof_O 	O 	0.40909	0.96929	0.74035	-0.448
Mof_O 	O 	0.43969	0.98235	0.80499	-0.427
Mof_C 	C 	0.03185	0.5986	0.779	0.299
Mof_C 	C 	0.07338	0.92644	0.92454	-0.154
Mof_C 	C 	0.05086	0.65638	0.79621	-0.053
Mof_C 	C 	0.0898	0.7607	0.82633	-0.003
Mof_C 	C 	0.08557	0.9148	0.96486	0.128
Mof_C 	C 	0.0714	0.6962	0.76869	-0.014
Mof_H 	H 	0.072	0.6887	0.7401	0.051
Mof_C 	C 	0.23949	0.9102	0.82638	-0.011
Mof_C 	C 	0.11167	0.81548	0.8428	0.101
Mof_C 	C 	0.10467	0.89491	0.89009	0.141
Mof_C 	C 	0.18457	0.8878	0.84314	0.108
Mof_C 	C 	0.16124	0.8388	0.82772	-0.173
Mof_H 	H 	0.1799	0.8203	0.8059	0.092
Mof_C 	C 	0.15592	0.91692	0.87485	-0.19
Mof_H 	H 	0.1707	0.9505	0.8857	0.104
Mof_C 	C 	0.3025	0.929	0.76775	-0.025
Mof_H 	H 	0.3094	0.9296	0.7391	0.063
Mof_C 	C 	0.03282	0.9676	0.91073	0.159
Mof_C 	C 	0.0917	0.7493	0.78432	-0.065
Mof_H 	H 	0.1064	0.7763	0.7659	0.053
Mof_C 	C 	0.2516	0.9079	0.7833	-0.048
Mof_H 	H 	0.2251	0.8922	0.765	0.05
Mof_C 	C 	0.0493	0.6674	0.83859	-0.011
Mof_H 	H 	0.0364	0.6397	0.8571	0.046
Mof_C 	C 	0.067	0.7198	0.85334	-0.067
Mof_H 	H 	0.0636	0.7281	0.8817	0.051
Mof_C 	C 	0.08242	0.84379	0.87459	-0.187
Mof_H 	H 	0.0487	0.829	0.8853	0.095
Mof_C 	C 	0.281	0.934	0.85356	-0.048
Mof_H 	H 	0.2733	0.9371	0.882	0.054
Mof_C 	C 	0.1257	0.8744	0.97899	-0.089
Mof_H 	H 	0.1484	0.8515	0.962	0.066
Mof_C 	C 	0.332	0.9524	0.83827	-0.023
Mof_H 	H 	0.3592	0.967	0.8565	0.068
Mof_C 	C 	0.0205	0.9798	0.86883	-0.1
Mof_H 	H 	0.0373	0.9632	0.8455	0.071
Mof_C 	C 	0.402	0.9683	0.7793	0.287
Mof_C 	C 	0.34356	0.9493	0.79619	-0.024
Mof_O 	O 	0.96869	0.4092	0.7402	-0.449
Mof_O 	O 	0.98198	0.43948	0.80473	-0.428
Mof_O 	O 	0.59091	0.03071	0.74035	-0.486
Mof_O 	O 	0.56031	0.01765	0.80499	-0.477
Mof_C 	C 	0.96815	0.4014	0.779	0.292
Mof_C 	C 	0.92662	0.07356	0.92454	-0.153
Mof_C 	C 	0.94914	0.34362	0.79621	-0.029
Mof_C 	C 	0.9102	0.2393	0.82633	-0.008
Mof_C 	C 	0.91443	0.0852	0.96486	0.128
Mof_C 	C 	0.9286	0.3038	0.76869	-0.023
Mof_H 	H 	0.928	0.3113	0.7401	0.063
Mof_C 	C 	0.76051	0.0898	0.82638	-0.008
Mof_C 	C 	0.88833	0.18452	0.8428	0.106
Mof_C 	C 	0.89533	0.10509	0.89009	0.142
Mof_C 	C 	0.81543	0.1122	0.84314	0.103
Mof_C 	C 	0.83876	0.1612	0.82772	-0.173
Mof_H 	H 	0.8201	0.1797	0.8059	0.092
Mof_C 	C 	0.84408	0.08308	0.87485	-0.189
Mof_H 	H 	0.8293	0.0495	0.8857	0.096
Mof_C 	C 	0.6975	0.071	0.76775	-0.017
Mof_H 	H 	0.6906	0.0704	0.7391	0.051
Mof_C 	C 	0.96718	0.0324	0.91073	0.159
Mof_C 	C 	0.9083	0.2507	0.78432	-0.052
Mof_H 	H 	0.8936	0.2237	0.7659	0.051
Mof_C 	C 	0.7484	0.0921	0.7833	-0.061
Mof_H 	H 	0.7749	0.1078	0.765	0.051
Mof_C 	C 	0.9507	0.3326	0.83859	-0.02
Mof_H 	H 	0.9636	0.3603	0.8571	0.066
Mof_C 	C 	0.933	0.2802	0.85334	-0.051
Mof_H 	H 	0.9364	0.2719	0.8817	0.055
Mof_C 	C 	0.91758	0.15621	0.87459	-0.189
Mof_H 	H 	0.9513	0.171	0.8853	0.104
Mof_C 	C 	0.719	0.066	0.85356	-0.063
Mof_H 	H 	0.7267	0.0629	0.882	0.05
Mof_C 	C 	0.8743	0.1256	0.97899	-0.089
Mof_H 	H 	0.8516	0.1485	0.962	0.066
Mof_C 	C 	0.668	0.0476	0.83827	-0.014
Mof_H 	H 	0.6408	0.033	0.8565	0.047
Mof_C 	C 	0.9795	0.0202	0.86883	-0.1
Mof_H 	H 	0.9627	0.0368	0.8455	0.071
Mof_C 	C 	0.598	0.0317	0.7793	0.295
Mof_C 	C 	0.65644	0.0507	0.79619	-0.047
Mof_O 	O 	0.53131	0.9092	0.2402	-0.448
Mof_O 	O 	0.51802	0.93948	0.30473	-0.428
Mof_O 	O 	0.90909	0.53071	0.24035	-0.447
Mof_O 	O 	0.93969	0.51765	0.30499	-0.427
Mof_C 	C 	0.53185	0.9014	0.279	0.291
Mof_C 	C 	0.57338	0.57356	0.42454	-0.144
Mof_C 	C 	0.55086	0.84362	0.29621	-0.029
Mof_C 	C 	0.5898	0.7393	0.32633	-0.007
Mof_C 	C 	0.58557	0.5852	0.46486	0.119
Mof_C 	C 	0.5714	0.8038	0.26869	-0.022
Mof_H 	H 	0.572	0.8113	0.2401	0.065
Mof_C 	C 	0.73949	0.5898	0.32638	-0.011
Mof_C 	C 	0.61167	0.68452	0.3428	0.107
Mof_C 	C 	0.60467	0.60509	0.39009	0.14
Mof_C 	C 	0.68457	0.6122	0.34314	0.11
Mof_C 	C 	0.66124	0.6612	0.32772	-0.174
Mof_H 	H 	0.6799	0.6797	0.3059	0.098
Mof_C 	C 	0.65592	0.58308	0.37485	-0.189
Mof_H 	H 	0.6707	0.5495	0.3857	0.1
Mof_C 	C 	0.8025	0.571	0.26775	-0.024
Mof_H 	H 	0.8094	0.5704	0.2391	0.065
Mof_C 	C 	0.53282	0.5324	0.41073	0.114
Mof_C 	C 	0.5917	0.7507	0.28432	-0.051
Mof_H 	H 	0.6064	0.7237	0.2659	0.053
Mof_C 	C 	0.7516	0.5921	0.2833	-0.048
Mof_H 	H 	0.7251	0.6078	0.265	0.052
Mof_C 	C 	0.5493	0.8326	0.33859	-0.02
Mof_H 	H 	0.5364	0.8603	0.3571	0.065
Mof_C 	C 	0.567	0.7802	0.35334	-0.051
Mof_H 	H 	0.5636	0.7719	0.3817	0.054
Mof_C 	C 	0.58242	0.65621	0.37459	-0.187
Mof_H 	H 	0.5487	0.671	0.3853	0.099
Mof_C 	C 	0.781	0.566	0.35356	-0.048
Mof_H 	H 	0.7733	0.5629	0.382	0.053
Mof_C 	C 	0.6257	0.6256	0.47899	-0.087
Mof_H 	H 	0.6484	0.6485	0.462	0.07
Mof_C 	C 	0.832	0.5476	0.33827	-0.023
Mof_H 	H 	0.8592	0.533	0.3565	0.066
Mof_C 	C 	0.5205	0.5202	0.36883	-0.09
Mof_H 	H 	0.5373	0.5368	0.3455	0.067
Mof_C 	C 	0.902	0.5317	0.2793	0.287
Mof_C 	C 	0.84356	0.5507	0.29619	-0.024
Mof_O 	O 	0.46869	0.0908	0.2402	-0.488
Mof_O 	O 	0.48198	0.06052	0.30473	-0.478
Mof_O 	O 	0.09091	0.46929	0.24035	-0.487
Mof_O 	O 	0.06031	0.48235	0.30499	-0.477
Mof_C 	C 	0.46815	0.0986	0.279	0.3
Mof_C 	C 	0.42662	0.42644	0.42454	-0.142
Mof_C 	C 	0.44914	0.15638	0.29621	-0.054
Mof_C 	C 	0.4102	0.2607	0.32633	-0.002
Mof_C 	C 	0.41443	0.4148	0.46486	0.116
Mof_C 	C 	0.4286	0.1962	0.26869	-0.014
Mof_H 	H 	0.428	0.1887	0.2401	0.048
Mof_C 	C 	0.26051	0.4102	0.32638	-0.007
Mof_C 	C 	0.38833	0.31548	0.3428	0.095
Mof_C 	C 	0.39533	0.39491	0.39009	0.133
Mof_C 	C 	0.31543	0.3878	0.34314	0.097
Mof_C 	C 	0.33876	0.3388	0.32772	-0.167
Mof_H 	H 	0.3201	0.3203	0.3059	0.085
Mof_C 	C 	0.34408	0.41692	0.37485	-0.183
Mof_H 	H 	0.3293	0.4505	0.3857	0.096
Mof_C 	C 	0.1975	0.429	0.26775	-0.017
Mof_H 	H 	0.1906	0.4296	0.2391	0.049
Mof_C 	C 	0.46718	0.4676	0.41073	0.112
Mof_C 	C 	0.4083	0.2493	0.28432	-0.067
Mof_H 	H 	0.3936	0.2763	0.2659	0.051
Mof_C 	C 	0.2484	0.4079	0.2833	-0.063
Mof_H 	H 	0.2749	0.3922	0.265	0.049
Mof_C 	C 	0.4507	0.1674	0.33859	-0.01
Mof_H 	H 	0.4636	0.1397	0.3571	0.046
Mof_C 	C 	0.433	0.2198	0.35334	-0.069
Mof_H 	H 	0.4364	0.2281	0.3817	0.051
Mof_C 	C 	0.41758	0.34379	0.37459	-0.182
Mof_H 	H 	0.4513	0.329	0.3853	0.095
Mof_C 	C 	0.219	0.434	0.35356	-0.065
Mof_H 	H 	0.2267	0.4371	0.382	0.05
Mof_C 	C 	0.3743	0.3744	0.47899	-0.089
Mof_H 	H 	0.3516	0.3515	0.462	0.061
Mof_C 	C 	0.168	0.4524	0.33827	-0.014
Mof_H 	H 	0.1408	0.467	0.3565	0.048
Mof_C 	C 	0.4795	0.4798	0.36883	-0.089
Mof_H 	H 	0.4627	0.4632	0.3455	0.067
Mof_C 	C 	0.098	0.4683	0.2793	0.295
Mof_C 	C 	0.15644	0.4493	0.29619	-0.048
Mof_O 	O 	0.96869	0.4092	0.2598	-0.449
Mof_O 	O 	0.98198	0.43948	0.19527	-0.428
Mof_O 	O 	0.59091	0.03071	0.25965	-0.486
Mof_O 	O 	0.56031	0.01765	0.19501	-0.477
Mof_C 	C 	0.96815	0.4014	0.221	0.292
Mof_C 	C 	0.92662	0.07356	0.07546	-0.154
Mof_C 	C 	0.94914	0.34362	0.20379	-0.029
Mof_C 	C 	0.9102	0.2393	0.17367	-0.008
Mof_C 	C 	0.91443	0.0852	0.03514	0.128
Mof_C 	C 	0.9286	0.3038	0.23131	-0.023
Mof_H 	H 	0.928	0.3113	0.2599	0.063
Mof_C 	C 	0.76051	0.0898	0.17362	-0.008
Mof_C 	C 	0.88833	0.18452	0.1572	0.106
Mof_C 	C 	0.89533	0.10509	0.10991	0.142
Mof_C 	C 	0.81543	0.1122	0.15686	0.103
Mof_C 	C 	0.83876	0.1612	0.17228	-0.173
Mof_H 	H 	0.8201	0.1797	0.1941	0.092
Mof_C 	C 	0.84408	0.08308	0.12515	-0.189
Mof_H 	H 	0.8293	0.0495	0.1143	0.096
Mof_C 	C 	0.6975	0.071	0.23225	-0.017
Mof_H 	H 	0.6906	0.0704	0.2609	0.051
Mof_C 	C 	0.96718	0.0324	0.08927	0.159
Mof_C 	C 	0.9083	0.2507	0.21568	-0.052
Mof_H 	H 	0.8936	0.2237	0.2341	0.051
Mof_C 	C 	0.7484	0.0921	0.2167	-0.061
Mof_H 	H 	0.7749	0.1078	0.235	0.051
Mof_C 	C 	0.9507	0.3326	0.16141	-0.02
Mof_H 	H 	0.9636	0.3603	0.1429	0.066
Mof_C 	C 	0.933	0.2802	0.14666	-0.051
Mof_H 	H 	0.9364	0.2719	0.1183	0.055
Mof_C 	C 	0.91758	0.15621	0.12541	-0.189
Mof_H 	H 	0.9513	0.171	0.1147	0.104
Mof_C 	C 	0.719	0.066	0.14644	-0.063
Mof_H 	H 	0.7267	0.0629	0.118	0.05
Mof_C 	C 	0.8743	0.1256	0.02101	-0.092
Mof_H 	H 	0.8516	0.1485	0.038	0.067
Mof_C 	C 	0.668	0.0476	0.16173	-0.014
Mof_H 	H 	0.6408	0.033	0.1435	0.047
Mof_C 	C 	0.9795	0.0202	0.13117	-0.1
Mof_H 	H 	0.9627	0.0368	0.1545	0.071
Mof_C 	C 	0.598	0.0317	0.2207	0.295
Mof_C 	C 	0.65644	0.0507	0.20381	-0.047
Mof_O 	O 	0.03131	0.5908	0.2598	-0.487
Mof_O 	O 	0.01802	0.56052	0.19527	-0.478
Mof_O 	O 	0.40909	0.96929	0.25965	-0.448
Mof_O 	O 	0.43969	0.98235	0.19501	-0.427
Mof_C 	C 	0.03185	0.5986	0.221	0.299
Mof_C 	C 	0.07338	0.92644	0.07546	-0.154
Mof_C 	C 	0.05086	0.65638	0.20379	-0.053
Mof_C 	C 	0.0898	0.7607	0.17367	-0.003
Mof_C 	C 	0.08557	0.9148	0.03514	0.128
Mof_C 	C 	0.0714	0.6962	0.23131	-0.014
Mof_H 	H 	0.072	0.6887	0.2599	0.051
Mof_C 	C 	0.23949	0.9102	0.17362	-0.011
Mof_C 	C 	0.11167	0.81548	0.1572	0.101
Mof_C 	C 	0.10467	0.89491	0.10991	0.142
Mof_C 	C 	0.18457	0.8878	0.15686	0.108
Mof_C 	C 	0.16124	0.8388	0.17228	-0.173
Mof_H 	H 	0.1799	0.8203	0.1941	0.092
Mof_C 	C 	0.15592	0.91692	0.12515	-0.19
Mof_H 	H 	0.1707	0.9505	0.1143	0.104
Mof_C 	C 	0.3025	0.929	0.23225	-0.025
Mof_H 	H 	0.3094	0.9296	0.2609	0.063
Mof_C 	C 	0.03282	0.9676	0.08927	0.159
Mof_C 	C 	0.0917	0.7493	0.21568	-0.065
Mof_H 	H 	0.1064	0.7763	0.2341	0.053
Mof_C 	C 	0.2516	0.9079	0.2167	-0.048
Mof_H 	H 	0.2251	0.8922	0.235	0.05
Mof_C 	C 	0.0493	0.6674	0.16141	-0.011
Mof_H 	H 	0.0364	0.6397	0.1429	0.046
Mof_C 	C 	0.067	0.7198	0.14666	-0.067
Mof_H 	H 	0.0636	0.7281	0.1183	0.051
Mof_C 	C 	0.08242	0.84379	0.12541	-0.187
Mof_H 	H 	0.0487	0.829	0.1147	0.095
Mof_C 	C 	0.281	0.934	0.14644	-0.048
Mof_H 	H 	0.2733	0.9371	0.118	0.054
Mof_C 	C 	0.1257	0.8744	0.02101	-0.092
Mof_H 	H 	0.1484	0.8515	0.038	0.067
Mof_C 	C 	0.332	0.9524	0.16173	-0.023
Mof_H 	H 	0.3592	0.967	0.1435	0.067
Mof_C 	C 	0.0205	0.9798	0.13117	-0.1
Mof_H 	H 	0.0373	0.9632	0.1545	0.071
Mof_C 	C 	0.402	0.9683	0.2207	0.287
Mof_C 	C 	0.34356	0.9493	0.20381	-0.024
Mof_In	In	0.5	0	0.75002	2.286
Mof_In	In	3.8265e-33	0.5	0.74998	2.286
Mof_In	In	0.5	-2.8626e-33	0.24998	2.285
Mof_In	In	1.27564e-33	0.5	0.25002	2.285
Mof_Fe	Fe	0.5	0.5	0.5	0.625
Mof_Fe	Fe	-0	0	-0	0.522
Mof_N 	N 	0.439	0.43932	0.5	-0.212
Mof_N 	N 	0.561	0.56068	0.5	-0.213
Mof_N 	N 	0.061	0.93932	-0	-0.194
Mof_N 	N 	0.939	0.06068	-0	-0.194
Mof_N 	N 	0.5	0.5	0.56278	-0.214
Mof_N 	N 	4.78183e-33	1.14504e-32	0.93722	-0.275
Mof_N 	N 	0.5	0.5	0.43722	-0.214
Mof_N 	N 	-3.95339e-34	0	0.06278	-0.275
_end
