data_functionalizedCrystal
_audit_creation_method	'EQeq! by Chris Wilmer'
_symmetry_space_group_name_H-M	'P1'
_symmetry_Int_Tables_number	1
_symmetry_cell_setting	triclinic
loop_
_symmetry_equiv_pos_as_xyz
  x,y,z
_cell_length_a	16.86
_cell_length_b	24.513
_cell_length_c	11.92
_cell_angle_alpha	90
_cell_angle_beta	109.392
_cell_angle_gamma	90
loop_
_atom_site_label
_atom_site_type_symbol
_atom_site_fract_x
_atom_site_fract_y
_atom_site_fract_z
_atom_site_charge
Mof_C 	C 	0.1783	0.17431	0.7935	0.328
Mof_C 	C 	0.2491	0.195	0.8975	-0.135
Mof_C 	C 	0.2336	0.22381	0.9869	0.077
Mof_H 	H 	0.1785	0.2301	0.9838	0.018
Mof_C 	C 	0.3003	0.24369	0.0824	-0.165
Mof_H 	H 	0.2894	0.2639	0.1417	0.101
Mof_C 	C 	0.3826	0.23359	0.0893	0.118
Mof_C 	C 	0.3969	0.20393	0.9993	-0.159
Mof_H 	H 	0.4518	0.1959	0.0038	0.083
Mof_C 	C 	0.331	0.18607	0.903	0.072
Mof_H 	H 	0.3419	0.1678	0.8412	0.013
Mof_C 	C 	0.4521	0.25459	0.1913	-0.088
Mof_H 	H 	0.437	0.2746	0.2473	0.062
Mof_C 	C 	0.5332	0.24821	0.2122	-0.081
Mof_H 	H 	0.5488	0.2272	0.158	0.06
Mof_C 	C 	0.6019	0.27113	0.3131	0.108
Mof_C 	C 	0.6853	0.25877	0.3269	-0.157
Mof_H 	H 	0.6973	0.2356	0.2728	0.095
Mof_C 	C 	0.7503	0.28054	0.4199	0.067
Mof_H 	H 	0.8056	0.2725	0.427	0.021
Mof_C 	C 	0.5868	0.30557	0.3956	-0.152
Mof_H 	H 	0.5317	0.3154	0.3867	0.081
Mof_C 	C 	0.8036	0.33827	0.6034	0.321
Mof_C 	C 	0.7338	0.31414	0.5024	-0.127
Mof_C 	C 	0.6514	0.32551	0.4907	0.064
Mof_H 	H 	0.6394	0.3468	0.5476	0.017
Mof_C 	C 	0.0503	0.9943	0.8115	0.099
Mof_H 	H 	0.0395	0.9792	0.8766	-0.012
Mof_C 	C 	0.0802	0.00303	0.6561	0.093
Mof_H 	H 	0.0947	0.9951	0.5891	-0.01
Mof_C 	C 	0.9525	0.25738	0.3315	0.11
Mof_H 	H 	0.9264	0.2645	0.251	-0.004
Mof_C 	C 	0.0129	0.26758	0.514	0.109
Mof_H 	H 	0.0378	0.2835	0.5883	-0.001
Mof_Cd	Cd	0.05252	0.13687	0.60016	0.338
Mof_Cd	Cd	0.00662	0.12004	0.86633	0.327
Mof_Cd	Cd	0.93377	0.12551	0.29091	0.349
Mof_N 	N 	0.06555	0.05234	0.6857	-0.129
Mof_N 	N 	0.04555	0.047	0.788	-0.135
Mof_N 	N 	0.07203	0.96493	0.7325	-0.169
Mof_N 	N 	0.96496	0.20822	0.3761	-0.133
Mof_N 	N 	0.00525	0.21495	0.4971	-0.132
Mof_N 	N 	0.98098	0.2965	0.4131	-0.164
Mof_O 	O 	0.78988	0.35169	0.6955	-0.287
Mof_O 	O 	0.87495	0.34399	0.5923	-0.288
Mof_O 	O 	0.1055	0.17158	0.8007	-0.309
Mof_O 	O 	0.19279	0.16085	0.7009	-0.29
Mof_C 	C 	0.8217	0.67431	0.7065	0.327
Mof_C 	C 	0.7509	0.695	0.6025	-0.136
Mof_C 	C 	0.7664	0.72381	0.5131	0.076
Mof_H 	H 	0.8215	0.7301	0.5162	0.016
Mof_C 	C 	0.6997	0.74369	0.4176	-0.165
Mof_H 	H 	0.7106	0.7639	0.3583	0.1
Mof_C 	C 	0.6174	0.73359	0.4107	0.118
Mof_C 	C 	0.6031	0.70393	0.5007	-0.161
Mof_H 	H 	0.5482	0.6959	0.4962	0.084
Mof_C 	C 	0.669	0.68607	0.597	0.073
Mof_H 	H 	0.6581	0.6678	0.6588	0.013
Mof_C 	C 	0.5479	0.75459	0.3087	-0.088
Mof_H 	H 	0.563	0.7746	0.2527	0.062
Mof_C 	C 	0.4668	0.74821	0.2878	-0.08
Mof_H 	H 	0.4512	0.7272	0.342	0.06
Mof_C 	C 	0.3981	0.77113	0.1869	0.107
Mof_C 	C 	0.3147	0.75877	0.1731	-0.155
Mof_H 	H 	0.3027	0.7356	0.2272	0.095
Mof_C 	C 	0.2497	0.78054	0.0801	0.066
Mof_H 	H 	0.1944	0.7725	0.073	0.021
Mof_C 	C 	0.4132	0.80557	0.1044	-0.151
Mof_H 	H 	0.4683	0.8154	0.1133	0.08
Mof_C 	C 	0.1964	0.83827	0.8966	0.321
Mof_C 	C 	0.2662	0.81414	0.9976	-0.125
Mof_C 	C 	0.3486	0.82551	0.0093	0.063
Mof_H 	H 	0.3606	0.8468	0.9524	0.018
Mof_C 	C 	0.9497	0.4943	0.6885	0.098
Mof_H 	H 	0.9605	0.4792	0.6234	-0.012
Mof_C 	C 	0.9198	0.50303	0.8439	0.095
Mof_H 	H 	0.9053	0.4951	0.9109	-0.011
Mof_C 	C 	0.0475	0.75738	0.1685	0.11
Mof_H 	H 	0.0736	0.7645	0.249	-0.004
Mof_C 	C 	0.9871	0.76758	0.986	0.107
Mof_H 	H 	0.9622	0.7835	0.9117	-0.001
Mof_Cd	Cd	0.94748	0.63687	0.89984	0.338
Mof_Cd	Cd	0.99338	0.62004	0.63367	0.327
Mof_Cd	Cd	0.06623	0.62551	0.20909	0.348
Mof_N 	N 	0.93445	0.55234	0.8143	-0.129
Mof_N 	N 	0.95445	0.547	0.712	-0.134
Mof_N 	N 	0.92797	0.46493	0.7675	-0.169
Mof_N 	N 	0.03504	0.70822	0.1239	-0.133
Mof_N 	N 	0.99475	0.71495	0.0029	-0.131
Mof_N 	N 	0.01902	0.7965	0.0869	-0.164
Mof_O 	O 	0.21012	0.85169	0.8045	-0.287
Mof_O 	O 	0.12505	0.84399	0.9077	-0.288
Mof_O 	O 	0.8945	0.67158	0.6993	-0.309
Mof_O 	O 	0.80721	0.66085	0.7991	-0.29
Mof_C 	C 	0.8217	0.82569	0.2065	0.327
Mof_C 	C 	0.7509	0.805	0.1025	-0.136
Mof_C 	C 	0.7664	0.77619	0.0131	0.076
Mof_H 	H 	0.8215	0.7699	0.0162	0.017
Mof_C 	C 	0.6997	0.75631	0.9176	-0.166
Mof_H 	H 	0.7106	0.7361	0.8583	0.1
Mof_C 	C 	0.6174	0.76641	0.9107	0.117
Mof_C 	C 	0.6031	0.79607	0.0007	-0.16
Mof_H 	H 	0.5482	0.8041	0.9962	0.083
Mof_C 	C 	0.669	0.81393	0.097	0.072
Mof_H 	H 	0.6581	0.8322	0.1588	0.013
Mof_C 	C 	0.5479	0.74541	0.8087	-0.088
Mof_H 	H 	0.563	0.7254	0.7527	0.062
Mof_C 	C 	0.4668	0.75179	0.7878	-0.081
Mof_H 	H 	0.4512	0.7728	0.842	0.06
Mof_C 	C 	0.3981	0.72887	0.6869	0.108
Mof_C 	C 	0.3147	0.74123	0.6731	-0.157
Mof_H 	H 	0.3027	0.7644	0.7272	0.095
Mof_C 	C 	0.2497	0.71946	0.5801	0.067
Mof_H 	H 	0.1944	0.7275	0.573	0.021
Mof_C 	C 	0.4132	0.69443	0.6044	-0.152
Mof_H 	H 	0.4683	0.6846	0.6133	0.081
Mof_C 	C 	0.1964	0.66173	0.3966	0.321
Mof_C 	C 	0.2662	0.68586	0.4976	-0.127
Mof_C 	C 	0.3486	0.67449	0.5093	0.064
Mof_H 	H 	0.3606	0.6532	0.4524	0.017
Mof_C 	C 	0.9497	0.0057	0.1885	0.099
Mof_H 	H 	0.9605	0.0208	0.1234	-0.012
Mof_C 	C 	0.9198	0.99697	0.3439	0.093
Mof_H 	H 	0.9053	0.0049	0.4109	-0.01
Mof_C 	C 	0.0475	0.74262	0.6685	0.11
Mof_H 	H 	0.0736	0.7355	0.749	-0.004
Mof_C 	C 	0.9871	0.73242	0.486	0.109
Mof_H 	H 	0.9622	0.7165	0.4117	-0.001
Mof_Cd	Cd	0.94748	0.86313	0.39984	0.338
Mof_Cd	Cd	0.99338	0.87996	0.13367	0.327
Mof_Cd	Cd	0.06623	0.87449	0.70909	0.349
Mof_N 	N 	0.93445	0.94766	0.3143	-0.129
Mof_N 	N 	0.95445	0.953	0.212	-0.135
Mof_N 	N 	0.92797	0.03507	0.2675	-0.169
Mof_N 	N 	0.03504	0.79178	0.6239	-0.133
Mof_N 	N 	0.99475	0.78505	0.5029	-0.132
Mof_N 	N 	0.01902	0.7035	0.5869	-0.164
Mof_O 	O 	0.21012	0.64831	0.3045	-0.287
Mof_O 	O 	0.12505	0.65601	0.4077	-0.288
Mof_O 	O 	0.8945	0.82842	0.1993	-0.309
Mof_O 	O 	0.80721	0.83915	0.2991	-0.29
Mof_C 	C 	0.1783	0.32569	0.2935	0.327
Mof_C 	C 	0.2491	0.305	0.3975	-0.136
Mof_C 	C 	0.2336	0.27619	0.4869	0.076
Mof_H 	H 	0.1785	0.2699	0.4838	0.016
Mof_C 	C 	0.3003	0.25631	0.5824	-0.165
Mof_H 	H 	0.2894	0.2361	0.6417	0.1
Mof_C 	C 	0.3826	0.26641	0.5893	0.118
Mof_C 	C 	0.3969	0.29607	0.4993	-0.161
Mof_H 	H 	0.4518	0.3041	0.5038	0.084
Mof_C 	C 	0.331	0.31393	0.403	0.073
Mof_H 	H 	0.3419	0.3322	0.3412	0.013
Mof_C 	C 	0.4521	0.24541	0.6913	-0.088
Mof_H 	H 	0.437	0.2254	0.7473	0.062
Mof_C 	C 	0.5332	0.25179	0.7122	-0.08
Mof_H 	H 	0.5488	0.2728	0.658	0.06
Mof_C 	C 	0.6019	0.22887	0.8131	0.107
Mof_C 	C 	0.6853	0.24123	0.8269	-0.155
Mof_H 	H 	0.6973	0.2644	0.7728	0.095
Mof_C 	C 	0.7503	0.21946	0.9199	0.066
Mof_H 	H 	0.8056	0.2275	0.927	0.021
Mof_C 	C 	0.5868	0.19443	0.8956	-0.151
Mof_H 	H 	0.5317	0.1846	0.8867	0.08
Mof_C 	C 	0.8036	0.16173	0.1034	0.321
Mof_C 	C 	0.7338	0.18586	0.0024	-0.125
Mof_C 	C 	0.6514	0.17449	0.9907	0.063
Mof_H 	H 	0.6394	0.1532	0.0476	0.018
Mof_C 	C 	0.0503	0.5057	0.3115	0.098
Mof_H 	H 	0.0395	0.5208	0.3766	-0.012
Mof_C 	C 	0.0802	0.49697	0.1561	0.095
Mof_H 	H 	0.0947	0.5049	0.0891	-0.011
Mof_C 	C 	0.9525	0.24262	0.8315	0.11
Mof_H 	H 	0.9264	0.2355	0.751	-0.004
Mof_C 	C 	0.0129	0.23242	0.014	0.107
Mof_H 	H 	0.0378	0.2165	0.0883	-0.001
Mof_Cd	Cd	0.05252	0.36313	0.10016	0.338
Mof_Cd	Cd	0.00662	0.37996	0.36633	0.327
Mof_Cd	Cd	0.93377	0.37449	0.79091	0.348
Mof_N 	N 	0.06555	0.44766	0.1857	-0.129
Mof_N 	N 	0.04555	0.453	0.288	-0.134
Mof_N 	N 	0.07203	0.53507	0.2325	-0.169
Mof_N 	N 	0.96496	0.29178	0.8761	-0.133
Mof_N 	N 	0.00525	0.28505	0.9971	-0.131
Mof_N 	N 	0.98098	0.2035	0.9131	-0.164
Mof_O 	O 	0.78988	0.14831	0.1955	-0.287
Mof_O 	O 	0.87495	0.15601	0.0923	-0.288
Mof_O 	O 	0.1055	0.32842	0.3007	-0.309
Mof_O 	O 	0.19279	0.33915	0.2009	-0.29
_end
