data_functionalizedCrystal
_audit_creation_method	'EQeq! by Chris Wilmer'
_symmetry_space_group_name_H-M	'P1'
_symmetry_Int_Tables_number	1
_symmetry_cell_setting	triclinic
loop_
_symmetry_equiv_pos_as_xyz
  x,y,z
_cell_length_a	10.971
_cell_length_b	10.971
_cell_length_c	35.517
_cell_angle_alpha	90
_cell_angle_beta	90
_cell_angle_gamma	120
loop_
_atom_site_label
_atom_site_type_symbol
_atom_site_fract_x
_atom_site_fract_y
_atom_site_fract_z
_atom_site_charge
Mof_N 	N 	0.1867	0.0841	0.03465	-0.142
Mof_N 	N 	0.2097	0.1752	0.06453	-0.096
Mof_N 	N 	0.3137	0.0553	0.07556	-0.109
Mof_N 	N 	0.3747	0.9918	0.09484	-0.085
Mof_N 	N 	0.5201	0.9234	0.1117	-0.076
Mof_N 	N 	0.3976	0.8522	0.13245	-0.147
Mof_C 	C 	0.2489	0.0132	0.0419	0.065
Mof_C 	C 	0.2849	0.1545	0.0887	0.091
Mof_C 	C 	0.5032	0.0056	0.0891	0.05
Mof_C 	C 	0.3129	0.8954	0.122	0.112
Mof_H 	H 	0.252	0.944	0.026	0.036
Mof_H 	H 	0.32	0.2	0.112	0.017
Mof_H 	H 	0.57	0.064	0.07	0.03
Mof_H 	H 	0.221	0.866	0.128	0.013
Mof_N 	N 	0.85337	0.41743	0.36798	-0.147
Mof_N 	N 	0.87637	0.50853	0.39786	-0.09
Mof_N 	N 	0.98037	0.38863	0.40889	-0.097
Mof_N 	N 	0.04137	0.32513	0.42817	-0.131
Mof_N 	N 	0.18677	0.25673	0.44503	-0.096
Mof_N 	N 	0.06427	0.18553	0.46578	-0.164
Mof_C 	C 	0.91557	0.34653	0.37523	0.109
Mof_C 	C 	0.95157	0.48783	0.42203	0.097
Mof_C 	C 	0.16987	0.33893	0.42243	0.091
Mof_C 	C 	0.97957	0.22873	0.45533	0.156
Mof_H 	H 	0.91867	0.27733	0.35933	0.014
Mof_H 	H 	0.98667	0.53333	0.44533	0.028
Mof_H 	H 	0.23667	0.39733	0.40333	0.019
Mof_H 	H 	0.88767	0.19933	0.46133	-0.004
Mof_N 	N 	0.52003	0.75077	0.70132	-0.147
Mof_N 	N 	0.54303	0.84187	0.7312	-0.09
Mof_N 	N 	0.64703	0.72197	0.74223	-0.105
Mof_N 	N 	0.70803	0.65847	0.76151	-0.106
Mof_N 	N 	0.85343	0.59007	0.77837	-0.091
Mof_N 	N 	0.73093	0.51887	0.79912	-0.147
Mof_C 	C 	0.58223	0.67987	0.70857	0.109
Mof_C 	C 	0.61823	0.82117	0.75537	0.097
Mof_C 	C 	0.83653	0.67227	0.75577	0.098
Mof_C 	C 	0.64623	0.56207	0.78867	0.111
Mof_H 	H 	0.58533	0.61067	0.69267	0.012
Mof_H 	H 	0.65333	0.86667	0.77867	0.026
Mof_H 	H 	0.90333	0.73067	0.73667	0.028
Mof_H 	H 	0.55433	0.53267	0.79467	0.012
Mof_N 	N 	0.9159	0.1026	0.03465	-0.148
Mof_N 	N 	0.8248	0.0345	0.06453	-0.097
Mof_N 	N 	0.9447	0.2584	0.07556	-0.104
Mof_N 	N 	0.0082	0.3829	0.09484	-0.128
Mof_N 	N 	0.0766	0.5967	0.1117	-0.111
Mof_N 	N 	0.1478	0.5454	0.13245	-0.149
Mof_C 	C 	0.9868	0.2357	0.0419	0.144
Mof_C 	C 	0.8455	0.1304	0.0887	0.095
Mof_C 	C 	0.9944	0.4976	0.0891	0.135
Mof_C 	C 	0.1046	0.4175	0.122	0.107
Mof_H 	H 	0.056	0.308	0.026	-0.014
Mof_H 	H 	0.8	0.12	0.112	0.019
Mof_H 	H 	0.936	0.506	0.07	0.011
Mof_H 	H 	0.134	0.355	0.128	0.008
Mof_N 	N 	0.58257	0.43593	0.36798	-0.148
Mof_N 	N 	0.49147	0.36783	0.39786	-0.094
Mof_N 	N 	0.61137	0.59173	0.40889	-0.105
Mof_N 	N 	0.67487	0.71623	0.42817	-0.107
Mof_N 	N 	0.74327	0.93003	0.44503	-0.086
Mof_N 	N 	0.81447	0.87873	0.46578	-0.135
Mof_C 	C 	0.65347	0.56903	0.37523	0.107
Mof_C 	C 	0.51217	0.46373	0.42203	0.095
Mof_C 	C 	0.66107	0.83093	0.42243	0.097
Mof_C 	C 	0.77127	0.75083	0.45533	0.112
Mof_H 	H 	0.72267	0.64133	0.35933	0.015
Mof_H 	H 	0.46667	0.45333	0.44533	0.02
Mof_H 	H 	0.60267	0.83933	0.40333	0.026
Mof_H 	H 	0.80067	0.68833	0.46133	0.017
Mof_N 	N 	0.24923	0.76927	0.70132	-0.148
Mof_N 	N 	0.15813	0.70117	0.7312	-0.096
Mof_N 	N 	0.27803	0.92507	0.74223	-0.098
Mof_N 	N 	0.34153	0.04957	0.76151	-0.117
Mof_N 	N 	0.40993	0.26337	0.77837	-0.095
Mof_N 	N 	0.48113	0.21207	0.79912	-0.149
Mof_C 	C 	0.32013	0.90237	0.70857	0.108
Mof_C 	C 	0.17883	0.79707	0.75537	0.093
Mof_C 	C 	0.32773	0.16427	0.75577	0.091
Mof_C 	C 	0.43793	0.08417	0.78867	0.108
Mof_H 	H 	0.38933	0.97467	0.69267	0.017
Mof_H 	H 	0.13333	0.78667	0.77867	0.018
Mof_H 	H 	0.26933	0.17267	0.73667	0.015
Mof_H 	H 	0.46733	0.02167	0.79467	0.006
Mof_N 	N 	0.8974	0.8133	0.03465	-0.135
Mof_N 	N 	0.9655	0.7903	0.06453	-0.083
Mof_N 	N 	0.7416	0.6863	0.07556	-0.106
Mof_N 	N 	0.6171	0.6253	0.09484	-0.107
Mof_N 	N 	0.4033	0.4799	0.1117	-0.095
Mof_N 	N 	0.4546	0.6024	0.13245	-0.147
Mof_C 	C 	0.7643	0.7511	0.0419	0.109
Mof_C 	C 	0.8696	0.7151	0.0887	0.098
Mof_C 	C 	0.5024	0.4968	0.0891	0.094
Mof_C 	C 	0.5825	0.6871	0.122	0.11
Mof_H 	H 	0.692	0.748	0.026	0.013
Mof_H 	H 	0.88	0.68	0.112	0.025
Mof_H 	H 	0.494	0.43	0.07	0.02
Mof_H 	H 	0.645	0.779	0.128	0.017
Mof_N 	N 	0.56407	0.14663	0.36798	-0.149
Mof_N 	N 	0.63217	0.12363	0.39786	-0.095
Mof_N 	N 	0.40827	0.01963	0.40889	-0.117
Mof_N 	N 	0.28377	0.95863	0.42817	-0.083
Mof_N 	N 	0.06997	0.81323	0.44503	-0.099
Mof_N 	N 	0.12127	0.93573	0.46578	-0.124
Mof_C 	C 	0.43097	0.08443	0.37523	0.105
Mof_C 	C 	0.53627	0.04843	0.42203	0.093
Mof_C 	C 	0.16907	0.83013	0.42243	0.095
Mof_C 	C 	0.24917	0.02043	0.45533	0.058
Mof_H 	H 	0.35867	0.08133	0.35933	0.005
Mof_H 	H 	0.54667	0.01333	0.44533	0.014
Mof_H 	H 	0.16067	0.76333	0.40333	0.018
Mof_H 	H 	0.31167	0.11233	0.46133	0.028
Mof_N 	N 	0.23073	0.47997	0.70132	-0.149
Mof_N 	N 	0.29883	0.45697	0.7312	-0.094
Mof_N 	N 	0.07493	0.35297	0.74223	-0.116
Mof_N 	N 	0.95043	0.29197	0.76151	-0.098
Mof_N 	N 	0.73663	0.14657	0.77837	-0.097
Mof_N 	N 	0.78793	0.26907	0.79912	-0.147
Mof_C 	C 	0.09763	0.41777	0.70857	0.105
Mof_C 	C 	0.20293	0.38177	0.75537	0.093
Mof_C 	C 	0.83573	0.16347	0.75577	0.095
Mof_C 	C 	0.91583	0.35377	0.78867	0.11
Mof_H 	H 	0.02533	0.41467	0.69267	0.004
Mof_H 	H 	0.21333	0.34667	0.77867	0.016
Mof_H 	H 	0.82733	0.09667	0.73667	0.019
Mof_H 	H 	0.97833	0.44567	0.79467	0.02
Mof_N 	N 	0.8133	0.9159	0.96535	-0.139
Mof_N 	N 	0.7903	0.8248	0.93547	-0.087
Mof_N 	N 	0.6863	0.9447	0.92444	-0.103
Mof_N 	N 	0.6253	0.0082	0.90516	-0.126
Mof_N 	N 	0.4799	0.0766	0.8883	-0.112
Mof_N 	N 	0.6024	0.1478	0.86755	-0.148
Mof_C 	C 	0.7511	0.9868	0.9581	0.144
Mof_C 	C 	0.7151	0.8455	0.9113	0.098
Mof_C 	C 	0.4968	0.9944	0.9109	0.135
Mof_C 	C 	0.6871	0.1046	0.878	0.107
Mof_H 	H 	0.748	0.056	0.974	-0.007
Mof_H 	H 	0.68	0.8	0.888	0.023
Mof_H 	H 	0.43	0.936	0.93	0.012
Mof_H 	H 	0.779	0.134	0.872	0.013
Mof_N 	N 	0.47997	0.24923	0.29868	-0.149
Mof_N 	N 	0.45697	0.15813	0.2688	-0.097
Mof_N 	N 	0.35297	0.27803	0.25777	-0.107
Mof_N 	N 	0.29197	0.34153	0.23849	-0.108
Mof_N 	N 	0.14657	0.40993	0.22163	-0.098
Mof_N 	N 	0.26907	0.48113	0.20088	-0.148
Mof_C 	C 	0.41777	0.32013	0.29143	0.105
Mof_C 	C 	0.38177	0.17883	0.24463	0.092
Mof_C 	C 	0.16347	0.32773	0.24423	0.091
Mof_C 	C 	0.35377	0.43793	0.21133	0.108
Mof_H 	H 	0.41467	0.38933	0.30733	0.011
Mof_H 	H 	0.34667	0.13333	0.22133	0.014
Mof_H 	H 	0.09667	0.26933	0.26333	0.013
Mof_H 	H 	0.44567	0.46733	0.20533	0.013
Mof_N 	N 	0.14663	0.58257	0.63202	-0.149
Mof_N 	N 	0.12363	0.49147	0.60214	-0.096
Mof_N 	N 	0.01963	0.61137	0.59111	-0.116
Mof_N 	N 	0.95863	0.67487	0.57183	-0.084
Mof_N 	N 	0.81323	0.74327	0.55497	-0.092
Mof_N 	N 	0.93573	0.81447	0.53422	-0.119
Mof_C 	C 	0.08443	0.65347	0.62477	0.106
Mof_C 	C 	0.04843	0.51217	0.57797	0.093
Mof_C 	C 	0.83013	0.66107	0.57757	0.098
Mof_C 	C 	0.02043	0.77127	0.54467	0.064
Mof_H 	H 	0.08133	0.72267	0.64067	0.009
Mof_H 	H 	0.01333	0.46667	0.55467	0.013
Mof_H 	H 	0.76333	0.60267	0.59667	0.023
Mof_H 	H 	0.11233	0.80067	0.53867	0.031
Mof_N 	N 	0.0841	0.8974	0.96535	-0.133
Mof_N 	N 	0.1752	0.9655	0.93547	-0.087
Mof_N 	N 	0.0553	0.7416	0.92444	-0.109
Mof_N 	N 	0.9918	0.6171	0.90516	-0.086
Mof_N 	N 	0.9234	0.4033	0.8883	-0.076
Mof_N 	N 	0.8522	0.4546	0.86755	-0.146
Mof_C 	C 	0.0132	0.7643	0.9581	0.072
Mof_C 	C 	0.1545	0.8696	0.9113	0.095
Mof_C 	C 	0.0056	0.5024	0.9109	0.051
Mof_C 	C 	0.8954	0.5825	0.878	0.112
Mof_H 	H 	0.944	0.692	0.974	0.038
Mof_H 	H 	0.2	0.88	0.888	0.022
Mof_H 	H 	0.064	0.494	0.93	0.031
Mof_H 	H 	0.866	0.645	0.872	0.016
Mof_N 	N 	0.75077	0.23073	0.29868	-0.148
Mof_N 	N 	0.84187	0.29883	0.2688	-0.09
Mof_N 	N 	0.72197	0.07493	0.25777	-0.115
Mof_N 	N 	0.65847	0.95043	0.23849	-0.097
Mof_N 	N 	0.59007	0.73663	0.22163	-0.094
Mof_N 	N 	0.51887	0.78793	0.20088	-0.147
Mof_C 	C 	0.67987	0.09763	0.29143	0.107
Mof_C 	C 	0.82117	0.20293	0.24463	0.096
Mof_C 	C 	0.67227	0.83573	0.24423	0.098
Mof_C 	C 	0.56207	0.91583	0.21133	0.111
Mof_H 	H 	0.61067	0.02533	0.30733	0.005
Mof_H 	H 	0.86667	0.21333	0.22133	0.022
Mof_H 	H 	0.73067	0.82733	0.26333	0.026
Mof_H 	H 	0.53267	0.97833	0.20533	0.019
Mof_N 	N 	0.41743	0.56407	0.63202	-0.148
Mof_N 	N 	0.50853	0.63217	0.60214	-0.092
Mof_N 	N 	0.38863	0.40827	0.59111	-0.107
Mof_N 	N 	0.32513	0.28377	0.57183	-0.108
Mof_N 	N 	0.25673	0.06997	0.55497	-0.101
Mof_N 	N 	0.18553	0.12127	0.53422	-0.148
Mof_C 	C 	0.34653	0.43097	0.62477	0.107
Mof_C 	C 	0.48783	0.53627	0.57797	0.095
Mof_C 	C 	0.33893	0.16907	0.57757	0.092
Mof_C 	C 	0.22873	0.24917	0.54467	0.107
Mof_H 	H 	0.27733	0.35867	0.64067	0.008
Mof_H 	H 	0.53333	0.54667	0.55467	0.021
Mof_H 	H 	0.39733	0.16067	0.59667	0.016
Mof_H 	H 	0.19933	0.31167	0.53867	0.01
Mof_N 	N 	0.1026	0.1867	0.96535	-0.147
Mof_N 	N 	0.0345	0.2097	0.93547	-0.101
Mof_N 	N 	0.2584	0.3137	0.92444	-0.106
Mof_N 	N 	0.3829	0.3747	0.90516	-0.108
Mof_N 	N 	0.5967	0.5201	0.8883	-0.094
Mof_N 	N 	0.5454	0.3976	0.86755	-0.148
Mof_C 	C 	0.2357	0.2489	0.9581	0.104
Mof_C 	C 	0.1304	0.2849	0.9113	0.092
Mof_C 	C 	0.4976	0.5032	0.9109	0.095
Mof_C 	C 	0.4175	0.3129	0.878	0.11
Mof_H 	H 	0.308	0.252	0.974	0.012
Mof_H 	H 	0.12	0.32	0.888	0.016
Mof_H 	H 	0.506	0.57	0.93	0.022
Mof_H 	H 	0.355	0.221	0.872	0.008
Mof_N 	N 	0.76927	0.52003	0.29868	-0.147
Mof_N 	N 	0.70117	0.54303	0.2688	-0.092
Mof_N 	N 	0.92507	0.64703	0.25777	-0.097
Mof_N 	N 	0.04957	0.70803	0.23849	-0.115
Mof_N 	N 	0.26337	0.85343	0.22163	-0.091
Mof_N 	N 	0.21207	0.73093	0.20088	-0.148
Mof_C 	C 	0.90237	0.58223	0.29143	0.109
Mof_C 	C 	0.79707	0.61823	0.24463	0.096
Mof_C 	C 	0.16427	0.83653	0.24423	0.095
Mof_C 	C 	0.08417	0.64623	0.21133	0.11
Mof_H 	H 	0.97467	0.58533	0.30733	0.017
Mof_H 	H 	0.78667	0.65333	0.22133	0.024
Mof_H 	H 	0.17267	0.90333	0.26333	0.024
Mof_H 	H 	0.02167	0.55433	0.20533	0.006
Mof_N 	N 	0.43593	0.85337	0.63202	-0.147
Mof_N 	N 	0.36783	0.87637	0.60214	-0.091
Mof_N 	N 	0.59173	0.98037	0.59111	-0.097
Mof_N 	N 	0.71623	0.04137	0.57183	-0.128
Mof_N 	N 	0.93003	0.18677	0.55497	-0.088
Mof_N 	N 	0.87873	0.06427	0.53422	-0.156
Mof_C 	C 	0.56903	0.91557	0.62477	0.109
Mof_C 	C 	0.46373	0.95157	0.57797	0.096
Mof_C 	C 	0.83093	0.16987	0.57757	0.094
Mof_C 	C 	0.75083	0.97957	0.54467	0.154
Mof_H 	H 	0.64133	0.91867	0.64067	0.017
Mof_H 	H 	0.45333	0.98667	0.55467	0.028
Mof_H 	H 	0.83933	0.23667	0.59667	0.024
Mof_H 	H 	0.68833	0.88767	0.53867	0.001
Mof_Fe	Fe	-0	0	-0	0.62
Mof_Fe	Fe	0.66667	0.33333	0.33333	0.679
Mof_Fe	Fe	0.33333	0.66667	0.66667	0.679
Mof_Fe	Fe	0.66667	0.33333	0.83333	0.677
Mof_Fe	Fe	0.33333	0.66667	0.16667	0.676
Mof_Fe	Fe	-0	-2.72741e-32	0.5	0.622
_end
