data_functionalizedCrystal
_audit_creation_method	'EQeq! by Chris Wilmer'
_symmetry_space_group_name_H-M	'P1'
_symmetry_Int_Tables_number	1
_symmetry_cell_setting	triclinic
loop_
_symmetry_equiv_pos_as_xyz
  x,y,z
_cell_length_a	15.6152
_cell_length_b	15.6152
_cell_length_c	7.4963
_cell_angle_alpha	90
_cell_angle_beta	90
_cell_angle_gamma	90
loop_
_atom_site_label
_atom_site_type_symbol
_atom_site_fract_x
_atom_site_fract_y
_atom_site_fract_z
_atom_site_charge
Mof_Zr	Zr	-4.13166e-34	0	0.25	3.172
Mof_Zr	Zr	-2.10265e-33	-3.45262e-33	0.75	3.168
Mof_N 	N 	0.45773	-8.63154e-34	0.1525	-0.082
Mof_C 	C 	0.27682	0	0.16058	-0.148
Mof_C 	C 	0.1878	0	0.16058	0.067
Mof_H 	H 	0.3066	0	0.26802	0.11
Mof_O 	O 	0.14618	0	0.31077	-0.523
Mof_N 	N 	0.54227	-8.63154e-34	0.1525	-0.079
Mof_C 	C 	0.72318	0	0.16058	-0.147
Mof_C 	C 	0.8122	0	0.16058	0.119
Mof_H 	H 	0.6934	0	0.26802	0.126
Mof_O 	O 	0.85382	0	0.31077	-0.422
Mof_N 	N 	-5.73076e-33	0.45773	0.6525	-0.086
Mof_C 	C 	-5.71622e-33	0.27682	0.66058	-0.146
Mof_C 	C 	-2.2636e-33	0.1878	0.66058	0.074
Mof_H 	H 	-5.52283e-33	0.3066	0.76802	0.099
Mof_O 	O 	1.45935e-33	0.14618	0.81077	-0.549
Mof_N 	N 	-5.73076e-33	0.54227	0.6525	-0.083
Mof_C 	C 	-2.2636e-33	0.72318	0.66058	-0.145
Mof_C 	C 	-1.60741e-32	0.8122	0.66058	0.127
Mof_H 	H 	-2.07022e-33	0.6934	0.76802	0.114
Mof_O 	O 	-1.23511e-32	0.85382	0.81077	-0.446
Mof_N 	N 	0.54227	0	0.8475	-0.108
Mof_C 	C 	0.72318	0	0.83942	-0.202
Mof_C 	C 	0.8122	0	0.83942	0.079
Mof_H 	H 	0.6934	0	0.73198	0.136
Mof_O 	O 	0.85382	0	0.68923	-0.423
Mof_N 	N 	0.45773	0	0.8475	-0.112
Mof_C 	C 	0.27682	0	0.83942	-0.203
Mof_C 	C 	0.1878	0	0.83942	0.027
Mof_H 	H 	0.3066	0	0.73198	0.121
Mof_O 	O 	0.14618	0	0.68923	-0.524
Mof_N 	N 	-4.55344e-33	0.45773	0.3475	-0.075
Mof_C 	C 	-1.11537e-33	0.27682	0.33942	-0.142
Mof_C 	C 	2.33725e-33	0.1878	0.33942	0.075
Mof_H 	H 	-4.45601e-34	0.3066	0.23198	0.119
Mof_O 	O 	-1.3857e-33	0.14618	0.18923	-0.512
Mof_N 	N 	-4.55344e-33	0.54227	0.3475	-0.071
Mof_C 	C 	-8.0206e-33	0.72318	0.33942	-0.141
Mof_C 	C 	-1.49258e-32	0.8122	0.33942	0.127
Mof_H 	H 	-4.45601e-34	0.6934	0.23198	0.134
Mof_O 	O 	-1.34699e-32	0.85382	0.18923	-0.41
Mof_C 	C 	0.41547	0	-0	0.128
Mof_C 	C 	0.32133	0	-0	0.113
Mof_C 	C 	0.1433	0	-0	0.224
Mof_O 	O 	0.06643	0	-0	-1.061
Mof_C 	C 	0.58453	0	-0	0.131
Mof_C 	C 	0.67867	0	-0	0.136
Mof_C 	C 	0.8567	0	-0	0.194
Mof_O 	O 	0.93357	0	-0	-0.815
Mof_C 	C 	-2.55264e-33	0.41547	0.5	0.093
Mof_C 	C 	-6.00526e-33	0.32133	0.5	0.058
Mof_C 	C 	-2.55264e-33	0.1433	0.5	0.161
Mof_O 	O 	-2.55264e-33	0.06643	0.5	-1.071
Mof_C 	C 	-2.55264e-33	0.58453	0.5	0.096
Mof_C 	C 	4.35259e-33	0.67867	0.5	0.083
Mof_C 	C 	-1.63631e-32	0.8567	0.5	0.132
Mof_O 	O 	4.35259e-33	0.93357	0.5	-0.817
_end
