data_functionalizedCrystal
_audit_creation_method	'EQeq! by Chris Wilmer'
_symmetry_space_group_name_H-M	'P1'
_symmetry_Int_Tables_number	1
_symmetry_cell_setting	triclinic
loop_
_symmetry_equiv_pos_as_xyz
  x,y,z
_cell_length_a	17.1065
_cell_length_b	17.1065
_cell_length_c	17.1065
_cell_angle_alpha	90
_cell_angle_beta	90
_cell_angle_gamma	90
loop_
_atom_site_label
_atom_site_type_symbol
_atom_site_fract_x
_atom_site_fract_y
_atom_site_fract_z
_atom_site_charge
Mof_N 	N 	0.938	0.3956	0.2294	-0.002
Mof_N 	N 	0.9207	0.4461	0.1738	-0.021
Mof_N 	N 	0.0108	0.367	0.2146	-0.185
Mof_N 	N 	0.9791	0.4504	0.1211	-0.092
Mof_C 	C 	0.0328	0.4034	0.1495	0.044
Mof_N 	N 	0.562	0.1044	0.2294	-0.037
Mof_N 	N 	0.5793	0.0539	0.1738	-0.041
Mof_N 	N 	0.4892	0.133	0.2146	-0.169
Mof_N 	N 	0.5209	0.0496	0.1211	-0.148
Mof_C 	C 	0.4672	0.0966	0.1495	0.088
Mof_N 	N 	0.562	0.3956	0.2706	-0.032
Mof_N 	N 	0.5793	0.4461	0.3262	-0.027
Mof_N 	N 	0.4892	0.367	0.2854	-0.171
Mof_N 	N 	0.5209	0.4504	0.3789	-0.145
Mof_C 	C 	0.4672	0.4034	0.3505	0.103
Mof_N 	N 	0.938	0.1044	0.2706	-0.007
Mof_N 	N 	0.9207	0.0539	0.3262	-0.03
Mof_N 	N 	0.0108	0.133	0.2854	-0.187
Mof_N 	N 	0.9791	0.0496	0.3789	-0.095
Mof_C 	C 	0.0328	0.0966	0.3505	0.04
Mof_N 	N 	0.2294	0.938	0.3956	-0.003
Mof_N 	N 	0.1738	0.9207	0.4461	-0.022
Mof_N 	N 	0.2146	0.0108	0.367	-0.186
Mof_N 	N 	0.1211	0.9791	0.4504	-0.093
Mof_C 	C 	0.1495	0.0328	0.4034	0.043
Mof_N 	N 	0.2294	0.562	0.1044	-0.038
Mof_N 	N 	0.1738	0.5793	0.0539	-0.041
Mof_N 	N 	0.2146	0.4892	0.133	-0.169
Mof_N 	N 	0.1211	0.5209	0.0496	-0.148
Mof_C 	C 	0.1495	0.4672	0.0966	0.088
Mof_N 	N 	0.2706	0.562	0.3956	-0.032
Mof_N 	N 	0.3262	0.5793	0.4461	-0.027
Mof_N 	N 	0.2854	0.4892	0.367	-0.171
Mof_N 	N 	0.3789	0.5209	0.4504	-0.145
Mof_C 	C 	0.3505	0.4672	0.4034	0.103
Mof_N 	N 	0.2706	0.938	0.1044	-0.007
Mof_N 	N 	0.3262	0.9207	0.0539	-0.03
Mof_N 	N 	0.2854	0.0108	0.133	-0.187
Mof_N 	N 	0.3789	0.9791	0.0496	-0.095
Mof_C 	C 	0.3505	0.0328	0.0966	0.04
Mof_N 	N 	0.3956	0.2294	0.938	-0.003
Mof_N 	N 	0.4461	0.1738	0.9207	-0.022
Mof_N 	N 	0.367	0.2146	0.0108	-0.186
Mof_N 	N 	0.4504	0.1211	0.9791	-0.093
Mof_C 	C 	0.4034	0.1495	0.0328	0.043
Mof_N 	N 	0.1044	0.2294	0.562	-0.038
Mof_N 	N 	0.0539	0.1738	0.5793	-0.041
Mof_N 	N 	0.133	0.2146	0.4892	-0.169
Mof_N 	N 	0.0496	0.1211	0.5209	-0.148
Mof_C 	C 	0.0966	0.1495	0.4672	0.088
Mof_N 	N 	0.3956	0.2706	0.562	-0.032
Mof_N 	N 	0.4461	0.3262	0.5793	-0.027
Mof_N 	N 	0.367	0.2854	0.4892	-0.171
Mof_N 	N 	0.4504	0.3789	0.5209	-0.145
Mof_C 	C 	0.4034	0.3505	0.4672	0.103
Mof_N 	N 	0.1044	0.2706	0.938	-0.007
Mof_N 	N 	0.0539	0.3262	0.9207	-0.03
Mof_N 	N 	0.133	0.2854	0.0108	-0.187
Mof_N 	N 	0.0496	0.3789	0.9791	-0.095
Mof_C 	C 	0.0966	0.3505	0.0328	0.04
Mof_N 	N 	0.3956	0.938	0.2706	-0.002
Mof_N 	N 	0.4461	0.9207	0.3262	-0.019
Mof_N 	N 	0.367	0.0108	0.2854	-0.187
Mof_N 	N 	0.4504	0.9791	0.3789	-0.095
Mof_C 	C 	0.4034	0.0328	0.3505	0.052
Mof_N 	N 	0.1044	0.562	0.2706	-0.037
Mof_N 	N 	0.0539	0.5793	0.3262	-0.038
Mof_N 	N 	0.133	0.4892	0.2854	-0.17
Mof_N 	N 	0.0496	0.5209	0.3789	-0.148
Mof_C 	C 	0.0966	0.4672	0.3505	0.095
Mof_N 	N 	0.3956	0.562	0.2294	-0.033
Mof_N 	N 	0.4461	0.5793	0.1738	-0.03
Mof_N 	N 	0.367	0.4892	0.2146	-0.17
Mof_N 	N 	0.4504	0.5209	0.1211	-0.145
Mof_C 	C 	0.4034	0.4672	0.1495	0.097
Mof_N 	N 	0.1044	0.938	0.2294	-0.007
Mof_N 	N 	0.0539	0.9207	0.1738	-0.033
Mof_N 	N 	0.133	0.0108	0.2146	-0.186
Mof_N 	N 	0.0496	0.9791	0.1211	-0.093
Mof_C 	C 	0.0966	0.0328	0.1495	0.031
Mof_N 	N 	0.938	0.2294	0.1044	-0.007
Mof_N 	N 	0.9207	0.1738	0.0539	-0.033
Mof_N 	N 	0.0108	0.2146	0.133	-0.186
Mof_N 	N 	0.9791	0.1211	0.0496	-0.093
Mof_C 	C 	0.0328	0.1495	0.0966	0.031
Mof_N 	N 	0.562	0.2294	0.3956	-0.033
Mof_N 	N 	0.5793	0.1738	0.4461	-0.03
Mof_N 	N 	0.4892	0.2146	0.367	-0.17
Mof_N 	N 	0.5209	0.1211	0.4504	-0.145
Mof_C 	C 	0.4672	0.1495	0.4034	0.097
Mof_N 	N 	0.562	0.2706	0.1044	-0.037
Mof_N 	N 	0.5793	0.3262	0.0539	-0.038
Mof_N 	N 	0.4892	0.2854	0.133	-0.17
Mof_N 	N 	0.5209	0.3789	0.0496	-0.148
Mof_C 	C 	0.4672	0.3505	0.0966	0.095
Mof_N 	N 	0.938	0.2706	0.3956	-0.002
Mof_N 	N 	0.9207	0.3262	0.4461	-0.019
Mof_N 	N 	0.0108	0.2854	0.367	-0.187
Mof_N 	N 	0.9791	0.3789	0.4504	-0.095
Mof_C 	C 	0.0328	0.3505	0.4034	0.052
Mof_N 	N 	0.2294	0.3956	0.562	-0.033
Mof_N 	N 	0.1738	0.4461	0.5793	-0.03
Mof_N 	N 	0.2146	0.367	0.4892	-0.17
Mof_N 	N 	0.1211	0.4504	0.5209	-0.145
Mof_C 	C 	0.1495	0.4034	0.4672	0.097
Mof_N 	N 	0.2294	0.1044	0.938	-0.007
Mof_N 	N 	0.1738	0.0539	0.9207	-0.033
Mof_N 	N 	0.2146	0.133	0.0108	-0.186
Mof_N 	N 	0.1211	0.0496	0.9791	-0.093
Mof_C 	C 	0.1495	0.0966	0.0328	0.031
Mof_N 	N 	0.2706	0.3956	0.938	-0.002
Mof_N 	N 	0.3262	0.4461	0.9207	-0.019
Mof_N 	N 	0.2854	0.367	0.0108	-0.187
Mof_N 	N 	0.3789	0.4504	0.9791	-0.095
Mof_C 	C 	0.3505	0.4034	0.0328	0.052
Mof_N 	N 	0.2706	0.1044	0.562	-0.037
Mof_N 	N 	0.3262	0.0539	0.5793	-0.038
Mof_N 	N 	0.2854	0.133	0.4892	-0.17
Mof_N 	N 	0.3789	0.0496	0.5209	-0.148
Mof_C 	C 	0.3505	0.0966	0.4672	0.095
Mof_N 	N 	0.062	0.6044	0.7706	-0.055
Mof_N 	N 	0.0793	0.5539	0.8262	-0.027
Mof_N 	N 	0.9892	0.633	0.7854	-0.157
Mof_N 	N 	0.0209	0.5496	0.8789	-0.158
Mof_C 	C 	0.9672	0.5966	0.8505	0.158
Mof_N 	N 	0.438	0.8956	0.7706	-0.023
Mof_N 	N 	0.4207	0.9461	0.8262	-0.009
Mof_N 	N 	0.5108	0.867	0.7854	-0.172
Mof_N 	N 	0.4791	0.9504	0.8789	-0.112
Mof_C 	C 	0.5328	0.9034	0.8505	0.119
Mof_N 	N 	0.438	0.6044	0.7294	-0.03
Mof_N 	N 	0.4207	0.5539	0.6738	-0.027
Mof_N 	N 	0.5108	0.633	0.7146	-0.171
Mof_N 	N 	0.4791	0.5496	0.6211	-0.145
Mof_C 	C 	0.5328	0.5966	0.6495	0.103
Mof_N 	N 	0.062	0.8956	0.7294	-0.047
Mof_N 	N 	0.0793	0.9461	0.6738	-0.018
Mof_N 	N 	0.9892	0.867	0.7146	-0.157
Mof_N 	N 	0.0209	0.9504	0.6211	-0.154
Mof_C 	C 	0.9672	0.9034	0.6495	0.158
Mof_N 	N 	0.7706	0.062	0.6044	-0.055
Mof_N 	N 	0.8262	0.0793	0.5539	-0.027
Mof_N 	N 	0.7854	0.9892	0.633	-0.157
Mof_N 	N 	0.8789	0.0209	0.5496	-0.158
Mof_C 	C 	0.8505	0.9672	0.5966	0.158
Mof_N 	N 	0.7706	0.438	0.8956	-0.023
Mof_N 	N 	0.8262	0.4207	0.9461	-0.009
Mof_N 	N 	0.7854	0.5108	0.867	-0.172
Mof_N 	N 	0.8789	0.4791	0.9504	-0.112
Mof_C 	C 	0.8505	0.5328	0.9034	0.119
Mof_N 	N 	0.7294	0.438	0.6044	-0.03
Mof_N 	N 	0.6738	0.4207	0.5539	-0.027
Mof_N 	N 	0.7146	0.5108	0.633	-0.171
Mof_N 	N 	0.6211	0.4791	0.5496	-0.145
Mof_C 	C 	0.6495	0.5328	0.5966	0.103
Mof_N 	N 	0.7294	0.062	0.8956	-0.047
Mof_N 	N 	0.6738	0.0793	0.9461	-0.018
Mof_N 	N 	0.7146	0.9892	0.867	-0.157
Mof_N 	N 	0.6211	0.0209	0.9504	-0.154
Mof_C 	C 	0.6495	0.9672	0.9034	0.158
Mof_N 	N 	0.6044	0.7706	0.062	-0.055
Mof_N 	N 	0.5539	0.8262	0.0793	-0.027
Mof_N 	N 	0.633	0.7854	0.9892	-0.157
Mof_N 	N 	0.5496	0.8789	0.0209	-0.158
Mof_C 	C 	0.5966	0.8505	0.9672	0.158
Mof_N 	N 	0.8956	0.7706	0.438	-0.023
Mof_N 	N 	0.9461	0.8262	0.4207	-0.009
Mof_N 	N 	0.867	0.7854	0.5108	-0.172
Mof_N 	N 	0.9504	0.8789	0.4791	-0.112
Mof_C 	C 	0.9034	0.8505	0.5328	0.119
Mof_N 	N 	0.6044	0.7294	0.438	-0.03
Mof_N 	N 	0.5539	0.6738	0.4207	-0.027
Mof_N 	N 	0.633	0.7146	0.5108	-0.171
Mof_N 	N 	0.5496	0.6211	0.4791	-0.145
Mof_C 	C 	0.5966	0.6495	0.5328	0.103
Mof_N 	N 	0.8956	0.7294	0.062	-0.047
Mof_N 	N 	0.9461	0.6738	0.0793	-0.018
Mof_N 	N 	0.867	0.7146	0.9892	-0.157
Mof_N 	N 	0.9504	0.6211	0.0209	-0.154
Mof_C 	C 	0.9034	0.6495	0.9672	0.158
Mof_N 	N 	0.6044	0.062	0.7294	-0.055
Mof_N 	N 	0.5539	0.0793	0.6738	-0.032
Mof_N 	N 	0.633	0.9892	0.7146	-0.156
Mof_N 	N 	0.5496	0.0209	0.6211	-0.176
Mof_C 	C 	0.5966	0.9672	0.6495	0.154
Mof_N 	N 	0.8956	0.438	0.7294	-0.023
Mof_N 	N 	0.9461	0.4207	0.6738	-0.013
Mof_N 	N 	0.867	0.5108	0.7146	-0.171
Mof_N 	N 	0.9504	0.4791	0.6211	-0.126
Mof_C 	C 	0.9034	0.5328	0.6495	0.113
Mof_N 	N 	0.6044	0.438	0.7706	-0.03
Mof_N 	N 	0.5539	0.4207	0.8262	-0.022
Mof_N 	N 	0.633	0.5108	0.7854	-0.171
Mof_N 	N 	0.5496	0.4791	0.8789	-0.13
Mof_C 	C 	0.5966	0.5328	0.8505	0.111
Mof_N 	N 	0.8956	0.062	0.7706	-0.047
Mof_N 	N 	0.9461	0.0793	0.8262	-0.013
Mof_N 	N 	0.867	0.9892	0.7854	-0.158
Mof_N 	N 	0.9504	0.0209	0.8789	-0.137
Mof_C 	C 	0.9034	0.9672	0.8505	0.162
Mof_N 	N 	0.062	0.7706	0.8956	-0.047
Mof_N 	N 	0.0793	0.8262	0.9461	-0.013
Mof_N 	N 	0.9892	0.7854	0.867	-0.158
Mof_N 	N 	0.0209	0.8789	0.9504	-0.137
Mof_C 	C 	0.9672	0.8505	0.9034	0.162
Mof_N 	N 	0.438	0.7706	0.6044	-0.03
Mof_N 	N 	0.4207	0.8262	0.5539	-0.022
Mof_N 	N 	0.5108	0.7854	0.633	-0.171
Mof_N 	N 	0.4791	0.8789	0.5496	-0.13
Mof_C 	C 	0.5328	0.8505	0.5966	0.111
Mof_N 	N 	0.438	0.7294	0.8956	-0.023
Mof_N 	N 	0.4207	0.6738	0.9461	-0.013
Mof_N 	N 	0.5108	0.7146	0.867	-0.171
Mof_N 	N 	0.4791	0.6211	0.9504	-0.126
Mof_C 	C 	0.5328	0.6495	0.9034	0.113
Mof_N 	N 	0.062	0.7294	0.6044	-0.055
Mof_N 	N 	0.0793	0.6738	0.5539	-0.032
Mof_N 	N 	0.9892	0.7146	0.633	-0.156
Mof_N 	N 	0.0209	0.6211	0.5496	-0.176
Mof_C 	C 	0.9672	0.6495	0.5966	0.154
Mof_N 	N 	0.7706	0.6044	0.438	-0.03
Mof_N 	N 	0.8262	0.5539	0.4207	-0.022
Mof_N 	N 	0.7854	0.633	0.5108	-0.171
Mof_N 	N 	0.8789	0.5496	0.4791	-0.13
Mof_C 	C 	0.8505	0.5966	0.5328	0.111
Mof_N 	N 	0.7706	0.8956	0.062	-0.047
Mof_N 	N 	0.8262	0.9461	0.0793	-0.013
Mof_N 	N 	0.7854	0.867	0.9892	-0.158
Mof_N 	N 	0.8789	0.9504	0.0209	-0.137
Mof_C 	C 	0.8505	0.9034	0.9672	0.162
Mof_N 	N 	0.7294	0.6044	0.062	-0.055
Mof_N 	N 	0.6738	0.5539	0.0793	-0.032
Mof_N 	N 	0.7146	0.633	0.9892	-0.156
Mof_N 	N 	0.6211	0.5496	0.0209	-0.176
Mof_C 	C 	0.6495	0.5966	0.9672	0.154
Mof_N 	N 	0.7294	0.8956	0.438	-0.023
Mof_N 	N 	0.6738	0.9461	0.4207	-0.013
Mof_N 	N 	0.7146	0.867	0.5108	-0.171
Mof_N 	N 	0.6211	0.9504	0.4791	-0.126
Mof_C 	C 	0.6495	0.9034	0.5328	0.113
Mof_Gd	Gd	0.09161	0.25	0.25	1.26
Mof_Gd	Gd	0.40839	0.25	0.25	1.276
Mof_Gd	Gd	0.25	0.09161	0.25	1.26
Mof_Gd	Gd	0.25	0.40839	0.25	1.276
Mof_Gd	Gd	0.25	0.25	0.09161	1.26
Mof_Gd	Gd	0.25	0.25	0.40839	1.276
Mof_Gd	Gd	0.90839	0.75	0.75	1.29
Mof_Gd	Gd	0.59161	0.75	0.75	1.275
Mof_Gd	Gd	0.75	0.90839	0.75	1.29
Mof_Gd	Gd	0.75	0.59161	0.75	1.275
Mof_Gd	Gd	0.75	0.75	0.90839	1.29
Mof_Gd	Gd	0.75	0.75	0.59161	1.275
Mof_C 	C 	0.1106	0.3894	0.1106	0.054
Mof_O 	O 	0.1576	0.3424	0.1576	-0.546
Mof_C 	C 	0.3894	0.1106	0.1106	0.054
Mof_O 	O 	0.3424	0.1576	0.1576	-0.546
Mof_C 	C 	0.3894	0.3894	0.3894	0.023
Mof_O 	O 	0.3424	0.3424	0.3424	-0.544
Mof_C 	C 	0.1106	0.1106	0.3894	0.054
Mof_O 	O 	0.1576	0.1576	0.3424	-0.546
Mof_C 	C 	0.3894	0.1106	0.3894	0.038
Mof_O 	O 	0.3424	0.1576	0.3424	-0.545
Mof_C 	C 	0.1106	0.3894	0.3894	0.038
Mof_O 	O 	0.1576	0.3424	0.3424	-0.545
Mof_C 	C 	0.3894	0.3894	0.1106	0.038
Mof_O 	O 	0.3424	0.3424	0.1576	-0.545
Mof_C 	C 	0.1106	0.1106	0.1106	0.072
Mof_O 	O 	0.1576	0.1576	0.1576	-0.547
Mof_C 	C 	0.8894	0.6106	0.8894	0.007
Mof_O 	O 	0.8424	0.6576	0.8424	-0.545
Mof_C 	C 	0.6106	0.8894	0.8894	0.007
Mof_O 	O 	0.6576	0.8424	0.8424	-0.545
Mof_C 	C 	0.6106	0.6106	0.6106	0.023
Mof_O 	O 	0.6576	0.6576	0.6576	-0.545
Mof_C 	C 	0.8894	0.8894	0.6106	0.007
Mof_O 	O 	0.8424	0.8424	0.6576	-0.545
Mof_C 	C 	0.6106	0.8894	0.6106	0.014
Mof_O 	O 	0.6576	0.8424	0.6576	-0.545
Mof_C 	C 	0.8894	0.6106	0.6106	0.014
Mof_O 	O 	0.8424	0.6576	0.6576	-0.545
Mof_C 	C 	0.6106	0.6106	0.8894	0.014
Mof_O 	O 	0.6576	0.6576	0.8424	-0.545
Mof_C 	C 	0.8894	0.8894	0.8894	0.002
Mof_O 	O 	0.8424	0.8424	0.8424	-0.546
Mof_Mn	Mn	-0	0.5	-0	0.612
Mof_Mn	Mn	0.5	0	-0	0.612
Mof_Mn	Mn	0.5	0.5	0.5	0.766
Mof_Mn	Mn	1.8747e-33	0	0.5	0.612
Mof_Mn	Mn	0.5	0	0.5	0.691
Mof_Mn	Mn	1.8747e-33	0.5	0.5	0.691
Mof_Mn	Mn	0.5	0.5	-0	0.691
Mof_Mn	Mn	-0	0	-0	0.528
_end
