data_functionalizedCrystal
_audit_creation_method	'EQeq! by Chris Wilmer'
_symmetry_space_group_name_H-M	'P1'
_symmetry_Int_Tables_number	1
_symmetry_cell_setting	triclinic
loop_
_symmetry_equiv_pos_as_xyz
  x,y,z
_cell_length_a	11.154
_cell_length_b	7.792
_cell_length_c	12.375
_cell_angle_alpha	90
_cell_angle_beta	90
_cell_angle_gamma	90
loop_
_atom_site_label
_atom_site_type_symbol
_atom_site_fract_x
_atom_site_fract_y
_atom_site_fract_z
_atom_site_charge
Mof_Ag	Ag	0.20124	0.85045	0.5	0.521
Mof_C 	C 	0.2738	0.5701	0.5343	-0.613
Mof_C 	C 	0.2855	0.5891	0.4265	0.217
Mof_C 	C 	0.4028	0.6326	0.3756	-0.245
Mof_C 	C 	0.5212	0.3546	0.3982	-0.082
Mof_C 	C 	0.6526	0.3802	0.4055	0.013
Mof_C 	C 	0.7205	0.4787	0.3392	-0.322
Mof_C 	C 	0.4358	0.4402	0.2281	0.106
Mof_N 	N 	0.4594	0.4789	0.3281	-0.117
Mof_N 	N 	0.4166	0.408	0.1384	-0.227
Mof_H 	H 	0.202	0.536	0.56	0.206
Mof_H 	H 	0.326	0.594	0.589	0.213
Mof_H 	H 	0.216	0.561	0.39	-0.084
Mof_H 	H 	0.382	0.712	0.322	0.072
Mof_H 	H 	0.482	0.647	0.406	0.079
Mof_H 	H 	0.485	0.356	0.472	0.039
Mof_H 	H 	0.493	0.223	0.368	0.025
Mof_H 	H 	0.685	0.309	0.459	-0.007
Mof_H 	H 	0.807	0.479	0.339	0.086
Mof_H 	H 	0.681	0.536	0.281	0.101
Mof_Ag	Ag	0.79876	0.14955	-0	0.491
Mof_C 	C 	0.7262	0.4299	0.0343	-0.758
Mof_C 	C 	0.7145	0.4109	0.9265	0.34
Mof_C 	C 	0.5972	0.3674	0.8756	-0.32
Mof_C 	C 	0.4788	0.6454	0.8982	-0.088
Mof_C 	C 	0.3474	0.6198	0.9055	0.022
Mof_C 	C 	0.2795	0.5213	0.8392	-0.318
Mof_C 	C 	0.5642	0.5598	0.7281	0.108
Mof_N 	N 	0.5406	0.5211	0.8281	-0.108
Mof_N 	N 	0.5834	0.592	0.6384	-0.225
Mof_H 	H 	0.798	0.464	0.06	0.253
Mof_H 	H 	0.674	0.406	0.089	0.261
Mof_H 	H 	0.784	0.439	0.89	-0.121
Mof_H 	H 	0.618	0.288	0.822	0.1
Mof_H 	H 	0.518	0.353	0.906	0.11
Mof_H 	H 	0.515	0.644	0.972	0.048
Mof_H 	H 	0.507	0.777	0.868	0.028
Mof_H 	H 	0.315	0.691	0.959	-0.003
Mof_H 	H 	0.193	0.521	0.839	0.089
Mof_H 	H 	0.319	0.464	0.781	0.103
Mof_Ag	Ag	0.70124	0.64955	0.5	0.529
Mof_C 	C 	0.7738	0.9299	0.5343	-0.617
Mof_C 	C 	0.7855	0.9109	0.4265	0.219
Mof_C 	C 	0.9028	0.8674	0.3756	-0.248
Mof_C 	C 	0.0212	0.1454	0.3982	-0.076
Mof_C 	C 	0.1526	0.1198	0.4055	0.004
Mof_C 	C 	0.2205	0.0213	0.3392	-0.303
Mof_C 	C 	0.9358	0.0598	0.2281	0.107
Mof_N 	N 	0.9594	0.0211	0.3281	-0.117
Mof_N 	N 	0.9166	0.092	0.1384	-0.226
Mof_H 	H 	0.702	0.964	0.56	0.207
Mof_H 	H 	0.826	0.906	0.589	0.215
Mof_H 	H 	0.716	0.939	0.39	-0.085
Mof_H 	H 	0.882	0.788	0.322	0.074
Mof_H 	H 	0.982	0.853	0.406	0.081
Mof_H 	H 	0.985	0.144	0.472	0.038
Mof_H 	H 	0.993	0.277	0.368	0.024
Mof_H 	H 	0.185	0.191	0.459	-0.004
Mof_H 	H 	0.307	0.021	0.339	0.082
Mof_H 	H 	0.181	0.964	0.281	0.092
Mof_Ag	Ag	0.29876	0.35045	-0	0.488
Mof_C 	C 	0.2262	0.0701	0.0343	-0.741
Mof_C 	C 	0.2145	0.0891	0.9265	0.328
Mof_C 	C 	0.0972	0.1326	0.8756	-0.308
Mof_C 	C 	0.9788	0.8546	0.8982	-0.073
Mof_C 	C 	0.8474	0.8802	0.9055	0.015
Mof_C 	C 	0.7795	0.9787	0.8392	-0.313
Mof_C 	C 	0.0642	0.9402	0.7281	0.106
Mof_N 	N 	0.0406	0.9789	0.8281	-0.113
Mof_N 	N 	0.0834	0.908	0.6384	-0.226
Mof_H 	H 	0.298	0.036	0.06	0.249
Mof_H 	H 	0.174	0.094	0.089	0.257
Mof_H 	H 	0.284	0.061	0.89	-0.116
Mof_H 	H 	0.118	0.212	0.822	0.097
Mof_H 	H 	0.018	0.147	0.906	0.107
Mof_H 	H 	0.015	0.856	0.972	0.041
Mof_H 	H 	0.007	0.723	0.868	0.024
Mof_H 	H 	0.815	0.809	0.959	0
Mof_H 	H 	0.693	0.979	0.839	0.087
Mof_H 	H 	0.819	0.036	0.781	0.102
_end
