data_functionalizedCrystal
_audit_creation_method	'EQeq! by Chris Wilmer'
_symmetry_space_group_name_H-M	'P1'
_symmetry_Int_Tables_number	1
_symmetry_cell_setting	triclinic
loop_
_symmetry_equiv_pos_as_xyz
  x,y,z
_cell_length_a	7.8733
_cell_length_b	10.1432
_cell_length_c	13.528
_cell_angle_alpha	68.355
_cell_angle_beta	79.645
_cell_angle_gamma	70.702
loop_
_atom_site_label
_atom_site_type_symbol
_atom_site_fract_x
_atom_site_fract_y
_atom_site_fract_z
_atom_site_charge
Mof_Cd	Cd	0.82667	0.6559	0.54336	0.475
Mof_Cd	Cd	0.17333	0.3441	0.45664	0.473
Mof_Cd	Cd	0.5	0	0.5	0.421
Mof_H 	H 	0.8533	0.1318	0.5565	0.061
Mof_H 	H 	0.7975	0.2229	0.8287	0.053
Mof_H 	H 	0.8303	0.8157	0.8419	0.047
Mof_H 	H 	0.6023	0.1668	0.9732	0.079
Mof_H 	H 	0.5509	0.1119	0.1566	0.042
Mof_H 	H 	0.8873	0.7039	0.1969	0.05
Mof_H 	H 	0.9357	0.7593	0.0127	0.083
Mof_H 	H 	0.1467	0.8682	0.4435	0.058
Mof_H 	H 	0.2025	0.7771	0.1713	0.067
Mof_H 	H 	0.1697	0.1843	0.1581	0.068
Mof_H 	H 	0.3977	0.8332	0.0268	0.079
Mof_H 	H 	0.4491	0.8881	0.8434	0.035
Mof_H 	H 	0.1127	0.2961	0.8031	0.048
Mof_H 	H 	0.0643	0.2407	0.9873	0.074
Mof_C 	C 	0.8398	0.9577	0.6907	-0.046
Mof_C 	C 	0.8423	0.1021	0.6305	-0.014
Mof_C 	C 	0.8279	0.2025	0.6826	-0.056
Mof_C 	C 	0.809	0.1558	0.7944	-0.014
Mof_C 	C 	0.8069	0.0123	0.8551	-0.048
Mof_C 	C 	0.8262	0.9134	0.8023	0.002
Mof_C 	C 	0.7763	0.9711	0.9742	0.096
Mof_C 	C 	0.6605	0.0734	0.0181	-0.124
Mof_C 	C 	0.6281	0.0408	0.1284	0.014
Mof_C 	C 	0.7126	0.9015	0.1945	-0.072
Mof_C 	C 	0.829	0.7971	0.1518	0.027
Mof_C 	C 	0.8598	0.8306	0.041	-0.116
Mof_C 	C 	0.8432	0.8498	0.6385	0.3
Mof_C 	C 	0.8379	0.3546	0.6241	0.282
Mof_C 	C 	0.6849	0.8677	0.3148	0.334
Mof_C 	C 	0.1602	0.0423	0.3093	-0.062
Mof_C 	C 	0.1577	0.8979	0.3695	0.014
Mof_C 	C 	0.1721	0.7975	0.3174	-0.048
Mof_C 	C 	0.191	0.8442	0.2056	-0.047
Mof_C 	C 	0.1931	0.9877	0.1449	0.038
Mof_C 	C 	0.1738	0.0866	0.1977	-0.061
Mof_C 	C 	0.2237	0.0289	0.0258	0.036
Mof_C 	C 	0.3395	0.9266	0.9819	-0.103
Mof_C 	C 	0.3719	0.9592	0.8716	0.054
Mof_C 	C 	0.2874	0.0985	0.8055	-0.111
Mof_C 	C 	0.171	0.2029	0.8482	0.031
Mof_C 	C 	0.1402	0.1694	0.959	-0.106
Mof_C 	C 	0.1568	0.1502	0.3615	0.299
Mof_C 	C 	0.1621	0.6454	0.3759	0.28
Mof_C 	C 	0.3151	0.1323	0.6852	0.344
Mof_O 	O 	0.8839	0.7161	0.6862	-0.263
Mof_O 	O 	0.7985	0.9004	0.5417	-0.286
Mof_O 	O 	0.8811	0.3967	0.5211	-0.259
Mof_O 	O 	0.7978	0.4467	0.6723	-0.263
Mof_O 	O 	0.5806	0.9714	0.3454	-0.289
Mof_O 	O 	0.7657	0.7436	0.372	-0.291
Mof_O 	O 	0.1161	0.2839	0.3138	-0.264
Mof_O 	O 	0.2015	0.0996	0.4583	-0.297
Mof_O 	O 	0.1189	0.6033	0.4789	-0.258
Mof_O 	O 	0.2022	0.5533	0.3277	-0.263
Mof_O 	O 	0.4194	0.0286	0.6546	-0.308
Mof_O 	O 	0.2343	0.2564	0.628	-0.295
_end
