data_functionalizedCrystal
_audit_creation_method	'EQeq! by Chris Wilmer'
_symmetry_space_group_name_H-M	'P1'
_symmetry_Int_Tables_number	1
_symmetry_cell_setting	triclinic
loop_
_symmetry_equiv_pos_as_xyz
  x,y,z
_cell_length_a	10.3371
_cell_length_b	31.939
_cell_length_c	31.988
_cell_angle_alpha	90
_cell_angle_beta	90
_cell_angle_gamma	91.937
loop_
_atom_site_label
_atom_site_type_symbol
_atom_site_fract_x
_atom_site_fract_y
_atom_site_fract_z
_atom_site_charge
Mof_Zn	Zn	0.46984	0.13249	0.8001	1.218
Mof_Zn	Zn	0.66805	0.78361	0.21775	1.22
Mof_Zn	Zn	0.37696	0.77836	0.21206	1.223
Mof_Zn	Zn	0.02576	0.29728	0.37133	1.218
Mof_Zn	Zn	0.97424	0.70272	0.62867	1.217
Mof_Zn	Zn	0.53016	0.86751	0.1999	1.217
Mof_Zn	Zn	0.87696	0.27836	0.28794	1.223
Mof_Zn	Zn	0.52576	0.79728	0.12867	1.217
Mof_Zn	Zn	0.83195	0.71639	0.71775	1.219
Mof_Zn	Zn	0.47424	0.20272	0.87133	1.217
Mof_Zn	Zn	0.33195	0.21639	0.78225	1.219
Mof_Zn	Zn	0.16805	0.28361	0.28225	1.219
Mof_Zn	Zn	0.03016	0.36751	0.3001	1.217
Mof_Zn	Zn	0.12304	0.72164	0.71206	1.223
Mof_Zn	Zn	0.62304	0.22164	0.78794	1.222
Mof_Zn	Zn	0.96984	0.63249	0.6999	1.217
Mof_H 	H 	0.9421	0.7447	0.9863	0.132
Mof_H 	H 	0.9809	0.4793	0.5672	0.074
Mof_H 	H 	0.2839	0.0885	0.2449	0.068
Mof_H 	H 	0.4421	0.2447	0.5137	0.133
Mof_H 	H 	0.5124	0.0687	0.0213	0.075
Mof_H 	H 	0.5366	0.9709	0.1166	0.026
Mof_H 	H 	0.3909	0.6381	0.2097	0.047
Mof_H 	H 	0.0124	0.5687	0.4787	0.074
Mof_H 	H 	0.0346	0.9902	0.746	0.135
Mof_H 	H 	0.9939	0.618	0.5276	0.025
Mof_H 	H 	0.8296	0.7534	0.0455	0.082
Mof_H 	H 	0.7656	0.0507	0.7557	0.108
Mof_H 	H 	0.2161	0.4115	0.7449	0.069
Mof_H 	H 	0.7699	0.2492	0.5923	0.071
Mof_H 	H 	0.2846	0.7507	0.5486	0.109
Mof_H 	H 	0.5302	0.3397	0.2703	0.066
Mof_H 	H 	0.6392	0.7861	0.3564	0.042
Mof_H 	H 	0.3458	0.4474	0.2527	0.083
Mof_H 	H 	0.0302	0.8397	0.2297	0.066
Mof_H 	H 	0.4939	0.118	0.9724	0.024
Mof_H 	H 	0.9152	0.0666	0.279	0.049
Mof_H 	H 	0.9698	0.1603	0.7703	0.066
Mof_H 	H 	0.4152	0.5666	0.221	0.049
Mof_H 	H 	0.0579	0.2553	0.0137	0.132
Mof_H 	H 	0.1392	0.2861	0.1436	0.043
Mof_H 	H 	0.763	0.6605	0.2417	0.054
Mof_H 	H 	0.4634	0.0291	0.8834	0.026
Mof_H 	H 	0.2301	0.7508	0.4077	0.071
Mof_H 	H 	0.762	0.2589	0.1639	0.048
Mof_H 	H 	0.737	0.8395	0.7417	0.054
Mof_H 	H 	0.7301	0.2508	0.0923	0.071
Mof_H 	H 	0.8458	0.9474	0.2473	0.083
Mof_H 	H 	0.5848	0.4334	0.779	0.049
Mof_H 	H 	0.3608	0.2139	0.6436	0.042
Mof_H 	H 	0.9807	0.2336	0.8446	0.064
Mof_H 	H 	0.0061	0.382	0.4724	0.025
Mof_H 	H 	0.8909	0.1381	0.2903	0.047
Mof_H 	H 	0.6704	0.7466	0.5455	0.082
Mof_H 	H 	0.8907	0.7224	0.9275	0.053
Mof_H 	H 	0.6093	0.7776	0.4275	0.052
Mof_H 	H 	0.9654	0.0098	0.254	0.135
Mof_H 	H 	0.5193	0.2664	0.3446	0.064
Mof_H 	H 	0.5579	0.7553	0.4863	0.133
Mof_H 	H 	0.7154	0.2493	0.4514	0.109
Mof_H 	H 	0.738	0.2411	0.6639	0.048
Mof_H 	H 	0.9876	0.4313	0.5213	0.074
Mof_H 	H 	0.1093	0.2776	0.0725	0.053
Mof_H 	H 	0.2699	0.7492	0.9077	0.071
Mof_H 	H 	0.4809	0.9793	0.9328	0.074
Mof_H 	H 	0.262	0.7589	0.3361	0.048
Mof_H 	H 	0.263	0.1605	0.2583	0.054
Mof_H 	H 	0.7161	0.9115	0.7551	0.068
Mof_H 	H 	0.0366	0.4709	0.3834	0.026
Mof_H 	H 	0.3296	0.2534	0.4545	0.082
Mof_H 	H 	0.6091	0.3619	0.7903	0.047
Mof_H 	H 	0.238	0.7411	0.8361	0.048
Mof_H 	H 	0.1091	0.8619	0.7097	0.047
Mof_H 	H 	0.0191	0.5207	0.4328	0.074
Mof_H 	H 	0.4876	0.9313	0.9787	0.075
Mof_H 	H 	0.0193	0.7664	0.1554	0.064
Mof_H 	H 	0.5061	0.882	0.0276	0.024
Mof_H 	H 	0.2154	0.7493	0.0486	0.108
Mof_H 	H 	0.9634	0.5291	0.6166	0.026
Mof_H 	H 	0.3907	0.2224	0.5725	0.052
Mof_H 	H 	0.237	0.3395	0.7583	0.054
Mof_H 	H 	0.6542	0.5526	0.7473	0.083
Mof_H 	H 	0.7839	0.5885	0.2551	0.069
Mof_H 	H 	0.7344	0.4493	0.2557	0.108
Mof_H 	H 	0.7846	0.2507	0.9514	0.108
Mof_H 	H 	0.2656	0.5507	0.7443	0.108
Mof_H 	H 	0.1704	0.2466	0.9545	0.082
Mof_H 	H 	0.5191	0.0207	0.0672	0.074
Mof_H 	H 	0.4698	0.6603	0.7297	0.066
Mof_H 	H 	0.0848	0.9334	0.721	0.049
Mof_H 	H 	0.2344	0.9493	0.2443	0.108
Mof_H 	H 	0.4654	0.5098	0.246	0.134
Mof_H 	H 	0.8608	0.7139	0.8564	0.043
Mof_H 	H 	0.4807	0.7336	0.6554	0.064
Mof_H 	H 	0.5346	0.4902	0.754	0.134
Mof_H 	H 	0.1542	0.0526	0.7527	0.083
Mof_C 	C 	0.03298	0.86863	0.23348	-0.008
Mof_C 	C 	0.0397	0.27383	0.09068	-0.065
Mof_C 	C 	0.9428	0.72092	0.86672	0.019
Mof_C 	C 	0.1927	0.14187	0.26181	0.003
Mof_C 	C 	0.13757	0.75293	0.06249	-0.099
Mof_C 	C 	0.9921	0.58988	0.53521	0.067
Mof_C 	C 	0.7058	0.59835	0.24544	-0.051
Mof_C 	C 	0.08069	0.10928	0.76313	-0.05
Mof_C 	C 	0.3947	0.4287	0.76164	-0.023
Mof_C 	C 	0.7745	0.3696	0.27312	0.382
Mof_C 	C 	0.688	0.24234	0.60269	-0.061
Mof_C 	C 	0.63757	0.25293	0.43751	-0.099
Mof_C 	C 	0.5384	0.45536	0.25267	0.139
Mof_C 	C 	0.5044	0.98299	0.01632	0.05
Mof_C 	C 	0.9766	0.24841	0.95961	0.142
Mof_C 	C 	0.86243	0.24707	0.93751	-0.099
Mof_C 	C 	0.9707	0.61218	0.61008	0.422
Mof_C 	C 	0.0727	0.15621	0.27426	-0.088
Mof_C 	C 	0.40647	0.25531	0.43936	-0.099
Mof_C 	C 	0.4032	0.26196	0.39568	-0.055
Mof_C 	C 	0.455	0.77404	0.33934	-0.104
Mof_C 	C 	0.5206	0.92136	0.07672	-0.14
Mof_C 	C 	0.331	0.76284	0.35455	0.019
Mof_C 	C 	0.4228	0.43343	0.25568	-0.102
Mof_C 	C 	0.8073	0.85813	0.73819	0.003
Mof_C 	C 	0.955	0.27404	0.16066	-0.103
Mof_C 	C 	0.9985	0.43934	0.49356	-0.121
Mof_C 	C 	0.9341	0.79722	0.71878	0.383
Mof_C 	C 	0.75942	0.26403	0.37024	0.386
Mof_C 	C 	0.7803	0.76946	0.12722	0.38
Mof_C 	C 	0.4794	0.07864	0.92328	-0.14
Mof_C 	C 	0.6376	0.2597	0.39459	-0.055
Mof_C 	C 	0.0015	0.56066	0.50644	-0.121
Mof_C 	C 	0.74058	0.23597	0.87024	0.386
Mof_C 	C 	0.0206	0.42136	0.42328	-0.139
Mof_C 	C 	0.2255	0.6304	0.72688	0.382
Mof_C 	C 	0.5659	0.70278	0.21878	0.385
Mof_C 	C 	0.1556	0.93445	0.24277	-0.095
Mof_C 	C 	0.5015	0.06066	0.99356	-0.123
Mof_C 	C 	0.9178	0.26294	0.07538	-0.015
Mof_C 	C 	0.045	0.72596	0.83934	-0.103
Mof_C 	C 	0.5397	0.77383	0.40932	-0.063
Mof_C 	C 	0.4956	0.01701	0.98368	0.05
Mof_C 	C 	0.25942	0.76403	0.12976	0.386
Mof_C 	C 	0.0293	0.38782	0.38992	0.422
Mof_C 	C 	0.8444	0.06555	0.75723	-0.095
Mof_C 	C 	0.9616	0.04464	0.75267	0.139
Mof_C 	C 	0.0772	0.06657	0.75568	-0.101
Mof_C 	C 	0.7255	0.1304	0.77312	0.382
Mof_C 	C 	0.1521	0.89131	0.23589	-0.053
Mof_C 	C 	0.5727	0.65621	0.22574	-0.086
Mof_C 	C 	0.0156	0.91452	0.72526	-0.053
Mof_C 	C 	0.4766	0.74841	0.54039	0.142
Mof_C 	C 	0.0572	0.27908	0.13328	0.019
Mof_C 	C 	0.5301	0.37167	0.78125	0.008
Mof_C 	C 	0.9273	0.84379	0.72574	-0.088
Mof_C 	C 	0.36243	0.74707	0.56249	-0.099
Mof_C 	C 	0.7052	0.63321	0.73238	0.366
Mof_C 	C 	0.8624	0.2403	0.89459	-0.056
Mof_C 	C 	0.1053	0.0713	0.26164	-0.025
Mof_C 	C 	0.0079	0.41012	0.46479	0.067
Mof_C 	C 	0.3861	0.75908	0.47004	0.212
Mof_C 	C 	0.59353	0.74469	0.56064	-0.099
Mof_C 	C 	0.6521	0.39131	0.26411	-0.052
Mof_C 	C 	0.9844	0.08548	0.27474	-0.053
Mof_C 	C 	0.2745	0.8696	0.22688	0.382
Mof_C 	C 	0.24058	0.73597	0.62976	0.386
Mof_C 	C 	0.3661	0.47431	0.75931	0.215
Mof_C 	C 	0.5572	0.77908	0.36672	0.02
Mof_C 	C 	0.09353	0.24469	0.93936	-0.1
Mof_C 	C 	0.0301	0.87167	0.71875	0.01
Mof_C 	C 	0.9228	0.93343	0.24432	-0.101
Mof_C 	C 	0.8479	0.10869	0.76411	-0.053
Mof_C 	C 	0.0384	0.95536	0.24733	0.139
Mof_C 	C 	0.4603	0.22617	0.59068	-0.063
Mof_C 	C 	0.41931	0.39072	0.26313	-0.05
Mof_C 	C 	0.4616	0.54464	0.74733	0.139
Mof_C 	C 	0.5171	0.99274	0.05915	-0.12
Mof_C 	C 	0.4273	0.34379	0.77426	-0.086
Mof_C 	C 	0.2942	0.40165	0.75456	-0.051
Mof_C 	C 	0.4428	0.22092	0.63328	0.02
Mof_C 	C 	0.5293	0.88782	0.11008	0.422
Mof_C 	C 	0.5199	0.26323	0.37354	-0.005
Mof_C 	C 	0.4341	0.29722	0.78122	0.385
Mof_C 	C 	0.9736	0.53656	0.58862	0.063
Mof_C 	C 	0.46702	0.63137	0.73348	-0.008
Mof_C 	C 	0.0171	0.49274	0.44085	-0.119
Mof_C 	C 	0.3444	0.56555	0.74277	-0.095
Mof_C 	C 	0.6927	0.64187	0.23819	0.003
Mof_C 	C 	0.5822	0.23706	0.57538	-0.017
Mof_C 	C 	0.3479	0.60869	0.73589	-0.052
Mof_C 	C 	0.6339	0.52569	0.24069	0.215
Mof_C 	C 	0.0822	0.73706	0.92462	-0.015
Mof_C 	C 	0.5269	0.22146	0.7071	0.417
Mof_C 	C 	0.5968	0.73804	0.60432	-0.055
Mof_C 	C 	0.5772	0.56657	0.74432	-0.102
Mof_C 	C 	0.2058	0.09835	0.25456	-0.05
Mof_C 	C 	0.4178	0.76294	0.42462	-0.017
Mof_C 	C 	0.188	0.74234	0.89731	-0.062
Mof_C 	C 	0.2197	0.23054	0.87278	0.38
Mof_C 	C 	0.2052	0.13321	0.76762	0.366
Mof_C 	C 	0.6053	0.5713	0.23836	-0.023
Mof_C 	C 	0.4707	0.11218	0.88992	0.422
Mof_C 	C 	0.5156	0.41452	0.77474	-0.055
Mof_C 	C 	0.4736	0.03656	0.91138	0.064
Mof_C 	C 	0.0264	0.46344	0.41138	0.063
Mof_C 	C 	0.9603	0.72617	0.90932	-0.065
Mof_C 	C 	0.0199	0.76323	0.12646	-0.004
Mof_C 	C 	0.831	0.26284	0.14545	0.019
Mof_C 	C 	0.9801	0.23677	0.87354	-0.004
Mof_C 	C 	0.4829	0.00726	0.94085	-0.12
Mof_C 	C 	0.4921	0.08988	0.96479	0.07
Mof_C 	C 	0.0659	0.20278	0.28122	0.383
Mof_C 	C 	0.4731	0.77854	0.2929	0.417
Mof_C 	C 	0.8661	0.97431	0.74069	0.215
Mof_C 	C 	0.91931	0.89072	0.23687	-0.05
Mof_C 	C 	0.4699	0.62833	0.21875	0.008
Mof_C 	C 	0.9829	0.50726	0.55915	-0.119
Mof_C 	C 	0.4801	0.73677	0.62646	-0.005
Mof_C 	C 	0.3073	0.35813	0.76181	0.003
Mof_C 	C 	0.9731	0.27854	0.2071	0.42
Mof_C 	C 	0.0044	0.48299	0.48368	0.049
Mof_C 	C 	0.545	0.22596	0.66066	-0.104
Mof_C 	C 	0.5234	0.25159	0.45961	0.142
Mof_C 	C 	0.9699	0.12833	0.28125	0.01
Mof_C 	C 	0.5264	0.96344	0.08862	0.064
Mof_C 	C 	0.169	0.73716	0.85455	0.019
Mof_C 	C 	0.0234	0.75159	0.04039	0.142
Mof_C 	C 	0.1339	0.02569	0.25931	0.215
Mof_C 	C 	0.7948	0.86679	0.23238	0.366
Mof_C 	C 	0.96702	0.13137	0.76652	-0.008
Mof_C 	C 	0.8947	0.9287	0.73836	-0.025
Mof_C 	C 	0.9956	0.51701	0.51632	0.049
Mof_C 	C 	0.669	0.23716	0.64545	0.019
Mof_C 	C 	0.7942	0.90165	0.74544	-0.05
Mof_C 	C 	0.0968	0.23804	0.89568	-0.055
Mof_C 	C 	0.2803	0.26946	0.37278	0.38
Mof_C 	C 	0.812	0.25766	0.10269	-0.062
Mof_C 	C 	0.4985	0.93934	0.00644	-0.123
Mof_C 	C 	0.1376	0.7597	0.10541	-0.056
Mof_C 	C 	0.312	0.75766	0.39731	-0.061
Mof_C 	C 	0.4844	0.58548	0.22526	-0.055
Mof_C 	C 	0.8861	0.25908	0.02996	0.212
Mof_C 	C 	0.6556	0.43445	0.25723	-0.095
Mof_C 	C 	0.90647	0.75531	0.06064	-0.1
Mof_C 	C 	0.9794	0.57864	0.57672	-0.139
Mof_C 	C 	0.58069	0.60928	0.73687	-0.05
Mof_C 	C 	0.1139	0.74092	0.97004	0.212
Mof_C 	C 	0.3624	0.7403	0.60541	-0.055
Mof_C 	C 	0.7197	0.73054	0.62722	0.38
Mof_C 	C 	0.2948	0.36679	0.26762	0.366
Mof_C 	C 	0.9032	0.76196	0.10432	-0.055
Mof_C 	C 	0.0269	0.72146	0.7929	0.42
Mof_C 	C 	0.5079	0.91012	0.03521	0.07
Mof_C 	C 	0.53298	0.36863	0.26652	-0.008
Mof_C 	C 	0.6139	0.24092	0.52996	0.212
Mof_N 	N 	0.54062	0.49916	0.24623	-0.249
Mof_N 	N 	0.9815	0.25445	0.00302	-0.242
Mof_N 	N 	0.04062	0.99916	0.25377	-0.249
Mof_N 	N 	0.4815	0.75445	0.49698	-0.243
Mof_N 	N 	0.0185	0.74555	0.99698	-0.242
Mof_N 	N 	0.95938	0.00084	0.74623	-0.249
Mof_N 	N 	0.45938	0.50084	0.75377	-0.249
Mof_N 	N 	0.5185	0.24555	0.50302	-0.243
Mof_O 	O 	0.7526	0.51517	0.24083	-0.215
Mof_O 	O 	0.78756	0.77309	0.16525	-0.463
Mof_O 	O 	0.82107	0.72866	0.60539	-0.476
Mof_O 	O 	0.57614	0.7915	0.27949	-0.47
Mof_O 	O 	0.69293	0.8873	0.22577	-0.475
Mof_O 	O 	0.62224	0.11025	0.77282	-0.481
Mof_O 	O 	0.2487	0.73874	0.66866	-0.471
Mof_O 	O 	0.5248	0.85083	0.09795	-0.499
Mof_O 	O 	0.32107	0.22866	0.89461	-0.475
Mof_O 	O 	0.03773	0.7836	0.70575	-0.449
Mof_O 	O 	0.4752	0.14917	0.90205	-0.499
Mof_O 	O 	0.63842	0.22937	0.89043	-0.483
Mof_O 	O 	0.2985	0.32775	0.26566	-0.463
Mof_O 	O 	0.46227	0.7164	0.20575	-0.452
Mof_O 	O 	0.67893	0.77134	0.10539	-0.475
Mof_O 	O 	0.22532	0.73489	0.98319	-0.219
Mof_O 	O 	0.16364	0.22343	0.27045	-0.471
Mof_O 	O 	0.92386	0.7085	0.77949	-0.473
Mof_O 	O 	0.7513	0.26126	0.33134	-0.471
Mof_O 	O 	0.62393	0.23212	0.72787	-0.481
Mof_O 	O 	0.07614	0.2915	0.22051	-0.473
Mof_O 	O 	0.71244	0.72691	0.66525	-0.463
Mof_O 	O 	0.0248	0.35083	0.40205	-0.499
Mof_O 	O 	0.19293	0.3873	0.27423	-0.475
Mof_O 	O 	0.13842	0.72937	0.60957	-0.482
Mof_O 	O 	0.2513	0.76126	0.16866	-0.472
Mof_O 	O 	0.73824	0.16929	0.77874	-0.456
Mof_O 	O 	0.17893	0.27134	0.39461	-0.476
Mof_O 	O 	0.23824	0.66929	0.72126	-0.455
Mof_O 	O 	0.7015	0.67225	0.73434	-0.463
Mof_O 	O 	0.7487	0.23874	0.83134	-0.472
Mof_O 	O 	0.37607	0.76788	0.27213	-0.481
Mof_O 	O 	0.42386	0.2085	0.72051	-0.47
Mof_O 	O 	0.03242	0.39955	0.35279	-0.498
Mof_O 	O 	0.96758	0.60045	0.64721	-0.498
Mof_O 	O 	0.87776	0.38975	0.27282	-0.48
Mof_O 	O 	0.53242	0.89955	0.14721	-0.497
Mof_O 	O 	0.21244	0.22691	0.83475	-0.463
Mof_O 	O 	0.86158	0.27063	0.39043	-0.482
Mof_O 	O 	0.2526	0.01517	0.25917	-0.216
Mof_O 	O 	0.28756	0.27309	0.33475	-0.463
Mof_O 	O 	0.97494	0.69148	0.68739	-0.94
Mof_O 	O 	0.7985	0.82775	0.23434	-0.463
Mof_O 	O 	0.76176	0.33071	0.27874	-0.455
Mof_O 	O 	0.66364	0.72343	0.22955	-0.472
Mof_O 	O 	0.9752	0.64917	0.59795	-0.499
Mof_O 	O 	0.26176	0.83071	0.22126	-0.456
Mof_O 	O 	0.87607	0.26788	0.22787	-0.481
Mof_O 	O 	0.46758	0.10045	0.85279	-0.497
Mof_O 	O 	0.02506	0.30852	0.31261	-0.94
Mof_O 	O 	0.30707	0.1127	0.77423	-0.475
Mof_O 	O 	0.2015	0.17225	0.76566	-0.463
Mof_O 	O 	0.52506	0.80852	0.18739	-0.939
Mof_O 	O 	0.77468	0.26511	0.01681	-0.219
Mof_O 	O 	0.37776	0.88975	0.22718	-0.481
Mof_O 	O 	0.36158	0.77063	0.10957	-0.483
Mof_O 	O 	0.12224	0.61025	0.72718	-0.48
Mof_O 	O 	0.72532	0.23489	0.51681	-0.219
Mof_O 	O 	0.12393	0.73212	0.77213	-0.481
Mof_O 	O 	0.83636	0.77657	0.72955	-0.471
Mof_O 	O 	0.2474	0.48483	0.75917	-0.215
Mof_O 	O 	0.33636	0.27657	0.77045	-0.472
Mof_O 	O 	0.7474	0.98483	0.74083	-0.216
Mof_O 	O 	0.96227	0.2164	0.29425	-0.449
Mof_O 	O 	0.53773	0.2836	0.79425	-0.452
Mof_O 	O 	0.47494	0.19148	0.81261	-0.939
Mof_O 	O 	0.80707	0.6127	0.72577	-0.475
Mof_O 	O 	0.27468	0.76511	0.48319	-0.219
_end
