data_functionalizedCrystal
_audit_creation_method	'EQeq! by Chris Wilmer'
_symmetry_space_group_name_H-M	'P1'
_symmetry_Int_Tables_number	1
_symmetry_cell_setting	triclinic
loop_
_symmetry_equiv_pos_as_xyz
  x,y,z
_cell_length_a	9.4299
_cell_length_b	22.3272
_cell_length_c	10.0874
_cell_angle_alpha	90
_cell_angle_beta	102.817
_cell_angle_gamma	90
loop_
_atom_site_label
_atom_site_type_symbol
_atom_site_fract_x
_atom_site_fract_y
_atom_site_fract_z
_atom_site_charge
Mof_Ho	Ho	0.24816	0.2763	0.05136	1.757
Mof_Ho	Ho	0.71783	0.43411	0.86187	1.924
Mof_N 	N 	0.5994	0.41501	0.6288	-0.236
Mof_N 	N 	0.533	0.41311	0.4068	-0.203
Mof_H 	H 	0.51086	0.42573	0.32514	0.158
Mof_N 	N 	0.776	0.50796	0.6493	-0.195
Mof_O 	O 	0.0668	0.33687	0.113	-0.424
Mof_O 	O 	0.0303	0.28609	0.8698	-0.406
Mof_O 	O 	0.8276	0.34113	0.7975	-0.385
Mof_O 	O 	0.8498	0.38077	0.051	-0.406
Mof_O 	O 	0.5234	0.36042	0.8246	-0.455
Mof_O 	O 	0.3799	0.29485	0.6964	-0.514
Mof_O 	O 	0.6017	0.43635	0.0526	-0.388
Mof_O 	O 	0.274	0.29305	0.3954	-0.537
Mof_O 	O 	0.3659	0.33549	0.2328	-0.482
Mof_O 	O 	0.4682	0.49163	0.1632	-0.427
Mof_O 	O 	0.9748	0.44747	0.8704	-0.423
Mof_O 	O 	0.1802	0.482	0.0016	-0.42
Mof_C 	C 	0.4548	0.36851	0.4523	-0.033
Mof_C 	C 	0.4981	0.37054	0.5928	-0.062
Mof_C 	C 	0.619	0.43976	0.5148	0.121
Mof_C 	C 	0.7221	0.48906	0.5197	0.047
Mof_C 	C 	0.7632	0.5122	0.4068	-0.118
Mof_H 	H 	0.72622	0.49687	0.32037	0.089
Mof_C 	C 	0.8631	0.5598	0.4276	0.048
Mof_H 	H 	0.89377	0.57708	0.35483	0.015
Mof_C 	C 	0.9144	0.5804	0.5579	-0.142
Mof_H 	H 	0.97848	0.61259	0.57395	0.083
Mof_C 	C 	0.8708	0.5534	0.6638	0.103
Mof_H 	H 	0.90938	0.56741	0.75116	0.008
Mof_C 	C 	0.357	0.3291	0.3537	0.433
Mof_C 	C 	0.4631	0.33827	0.7092	0.413
Mof_C 	C 	0.5203	0.47913	0.062	0.267
Mof_C 	C 	0.0442	0.47967	0.962	0.273
Mof_C 	C 	0.9523	0.34887	0.0304	0.276
Mof_C 	C 	0.9342	0.32279	0.8855	0.239
Mof_Ho	Ho	0.75184	0.7763	0.44864	1.764
Mof_Ho	Ho	0.28217	0.93411	0.63813	1.921
Mof_N 	N 	0.4006	0.91501	0.8712	-0.235
Mof_N 	N 	0.467	0.91311	0.0932	-0.202
Mof_H 	H 	0.48914	0.92573	0.17486	0.158
Mof_N 	N 	0.224	0.00796	0.8507	-0.19
Mof_O 	O 	0.9332	0.83687	0.387	-0.42
Mof_O 	O 	0.9697	0.78609	0.6302	-0.411
Mof_O 	O 	0.1724	0.84113	0.7025	-0.386
Mof_O 	O 	0.1502	0.88077	0.449	-0.405
Mof_O 	O 	0.4766	0.86042	0.6754	-0.456
Mof_O 	O 	0.6201	0.79485	0.8036	-0.515
Mof_O 	O 	0.3983	0.93635	0.4474	-0.388
Mof_O 	O 	0.726	0.79305	0.1046	-0.534
Mof_O 	O 	0.6341	0.83549	0.2672	-0.483
Mof_O 	O 	0.5318	0.99163	0.3368	-0.426
Mof_O 	O 	0.0252	0.94747	0.6296	-0.422
Mof_O 	O 	0.8198	0.982	0.4984	-0.417
Mof_C 	C 	0.5452	0.86851	0.0477	-0.029
Mof_C 	C 	0.5019	0.87054	0.9072	-0.065
Mof_C 	C 	0.381	0.93976	0.9852	0.12
Mof_C 	C 	0.2779	0.98906	0.9803	0.043
Mof_C 	C 	0.2368	0.0122	0.0932	-0.114
Mof_H 	H 	0.27378	0.99687	0.17963	0.088
Mof_C 	C 	0.1369	0.0598	0.0724	0.034
Mof_H 	H 	0.10623	0.07708	0.14517	0.018
Mof_C 	C 	0.0856	0.0804	0.9421	-0.126
Mof_H 	H 	0.02152	0.11259	0.92605	0.08
Mof_C 	C 	0.1292	0.0534	0.8362	0.097
Mof_H 	H 	0.09062	0.06741	0.74884	0.011
Mof_C 	C 	0.643	0.8291	0.1463	0.431
Mof_C 	C 	0.5369	0.83827	0.7908	0.413
Mof_C 	C 	0.4797	0.97913	0.438	0.266
Mof_C 	C 	0.9558	0.97967	0.538	0.268
Mof_C 	C 	0.0477	0.84887	0.4696	0.269
Mof_C 	C 	0.0658	0.82279	0.6145	0.244
Mof_Ho	Ho	0.75184	0.7237	0.94864	1.758
Mof_Ho	Ho	0.28217	0.56589	0.13813	1.925
Mof_N 	N 	0.4006	0.58499	0.3712	-0.236
Mof_N 	N 	0.467	0.58689	0.5932	-0.203
Mof_H 	H 	0.48914	0.57427	0.67486	0.158
Mof_N 	N 	0.224	0.49204	0.3507	-0.195
Mof_O 	O 	0.9332	0.66313	0.887	-0.424
Mof_O 	O 	0.9697	0.71391	0.1302	-0.406
Mof_O 	O 	0.1724	0.65887	0.2025	-0.385
Mof_O 	O 	0.1502	0.61923	0.949	-0.406
Mof_O 	O 	0.4766	0.63958	0.1754	-0.455
Mof_O 	O 	0.6201	0.70515	0.3036	-0.514
Mof_O 	O 	0.3983	0.56365	0.9474	-0.388
Mof_O 	O 	0.726	0.70695	0.6046	-0.537
Mof_O 	O 	0.6341	0.66451	0.7672	-0.482
Mof_O 	O 	0.5318	0.50837	0.8368	-0.427
Mof_O 	O 	0.0252	0.55253	0.1296	-0.423
Mof_O 	O 	0.8198	0.518	0.9984	-0.42
Mof_C 	C 	0.5452	0.63149	0.5477	-0.033
Mof_C 	C 	0.5019	0.62946	0.4072	-0.062
Mof_C 	C 	0.381	0.56024	0.4852	0.121
Mof_C 	C 	0.2779	0.51094	0.4803	0.047
Mof_C 	C 	0.2368	0.4878	0.5932	-0.118
Mof_H 	H 	0.27378	0.50313	0.67963	0.089
Mof_C 	C 	0.1369	0.4402	0.5724	0.048
Mof_H 	H 	0.10623	0.42292	0.64517	0.015
Mof_C 	C 	0.0856	0.4196	0.4421	-0.142
Mof_H 	H 	0.02152	0.38741	0.42605	0.083
Mof_C 	C 	0.1292	0.4466	0.3362	0.103
Mof_H 	H 	0.09062	0.43259	0.24884	0.008
Mof_C 	C 	0.643	0.6709	0.6463	0.433
Mof_C 	C 	0.5369	0.66173	0.2908	0.413
Mof_C 	C 	0.4797	0.52087	0.938	0.267
Mof_C 	C 	0.9558	0.52033	0.038	0.273
Mof_C 	C 	0.0477	0.65113	0.9696	0.276
Mof_C 	C 	0.0658	0.67721	0.1145	0.239
Mof_Ho	Ho	0.24816	0.2237	0.55136	1.764
Mof_Ho	Ho	0.71783	0.06589	0.36187	1.921
Mof_N 	N 	0.5994	0.08499	0.1288	-0.235
Mof_N 	N 	0.533	0.08689	0.9068	-0.202
Mof_H 	H 	0.51086	0.07427	0.82514	0.158
Mof_N 	N 	0.776	0.99204	0.1493	-0.19
Mof_O 	O 	0.0668	0.16313	0.613	-0.42
Mof_O 	O 	0.0303	0.21391	0.3698	-0.411
Mof_O 	O 	0.8276	0.15887	0.2975	-0.386
Mof_O 	O 	0.8498	0.11923	0.551	-0.405
Mof_O 	O 	0.5234	0.13958	0.3246	-0.456
Mof_O 	O 	0.3799	0.20515	0.1964	-0.515
Mof_O 	O 	0.6017	0.06365	0.5526	-0.388
Mof_O 	O 	0.274	0.20695	0.8954	-0.534
Mof_O 	O 	0.3659	0.16451	0.7328	-0.483
Mof_O 	O 	0.4682	0.00837	0.6632	-0.426
Mof_O 	O 	0.9748	0.05253	0.3704	-0.422
Mof_O 	O 	0.1802	0.018	0.5016	-0.417
Mof_C 	C 	0.4548	0.13149	0.9523	-0.029
Mof_C 	C 	0.4981	0.12946	0.0928	-0.065
Mof_C 	C 	0.619	0.06024	0.0148	0.12
Mof_C 	C 	0.7221	0.01094	0.0197	0.043
Mof_C 	C 	0.7632	0.9878	0.9068	-0.114
Mof_H 	H 	0.72622	0.00313	0.82037	0.088
Mof_C 	C 	0.8631	0.9402	0.9276	0.034
Mof_H 	H 	0.89377	0.92292	0.85483	0.018
Mof_C 	C 	0.9144	0.9196	0.0579	-0.126
Mof_H 	H 	0.97848	0.88741	0.07395	0.08
Mof_C 	C 	0.8708	0.9466	0.1638	0.097
Mof_H 	H 	0.90938	0.93259	0.25116	0.011
Mof_C 	C 	0.357	0.1709	0.8537	0.431
Mof_C 	C 	0.4631	0.16173	0.2092	0.413
Mof_C 	C 	0.5203	0.02087	0.562	0.266
Mof_C 	C 	0.0442	0.02033	0.462	0.268
Mof_C 	C 	0.9523	0.15113	0.5304	0.269
Mof_C 	C 	0.9342	0.17721	0.3855	0.244
_end
