data_functionalizedCrystal
_audit_creation_method	'EQeq! by Chris Wilmer'
_symmetry_space_group_name_H-M	'P1'
_symmetry_Int_Tables_number	1
_symmetry_cell_setting	triclinic
loop_
_symmetry_equiv_pos_as_xyz
  x,y,z
_cell_length_a	18.6342
_cell_length_b	18.6342
_cell_length_c	37.709
_cell_angle_alpha	90
_cell_angle_beta	90
_cell_angle_gamma	120
loop_
_atom_site_label
_atom_site_type_symbol
_atom_site_fract_x
_atom_site_fract_y
_atom_site_fract_z
_atom_site_charge
Mof_O 	O 	0.88984	0.63392	0.12274	-0.426
Mof_O 	O 	0.85093	0.55579	0.17124	-0.415
Mof_C 	C 	0.87865	0.57293	0.14039	0.394
Mof_C 	C 	0.89843	0.51311	0.12314	-0.137
Mof_C 	C 	0.9282	0.528	0.08868	0.027
Mof_H 	H 	0.9385	0.5764	0.0772	0.033
Mof_C 	C 	0.9513	0.5312	0.0124	0.118
Mof_H 	H 	0.922	0.5557	0.0211	-0.009
Mof_C 	C 	0.9797	0.5461	0.97769	-0.19
Mof_H 	H 	0.9078	0.54	0.0186	-0.004
Mof_H 	H 	0.9663	0.5773	0.9626	0.097
Mof_N 	N 	0.0203	0.5664	0.02231	-0.212
Mof_O 	O 	0.55651	0.96725	0.45607	-0.426
Mof_O 	O 	0.5176	0.88912	0.50457	-0.415
Mof_C 	C 	0.54532	0.90626	0.47372	0.394
Mof_C 	C 	0.5651	0.84644	0.45647	-0.137
Mof_C 	C 	0.59487	0.86133	0.42201	0.027
Mof_H 	H 	0.60517	0.90973	0.41053	0.033
Mof_C 	C 	0.61797	0.86453	0.34573	0.119
Mof_H 	H 	0.58867	0.88903	0.35443	-0.009
Mof_C 	C 	0.64637	0.87943	0.31102	-0.192
Mof_H 	H 	0.57447	0.87333	0.35193	-0.004
Mof_H 	H 	0.63297	0.91063	0.29593	0.097
Mof_N 	N 	0.68697	0.89973	0.35564	-0.213
Mof_O 	O 	0.22317	0.30059	0.78941	-0.426
Mof_O 	O 	0.18426	0.22246	0.83791	-0.415
Mof_C 	C 	0.21198	0.2396	0.80706	0.394
Mof_C 	C 	0.23176	0.17978	0.78981	-0.137
Mof_C 	C 	0.26153	0.19467	0.75535	0.027
Mof_H 	H 	0.27183	0.24307	0.74387	0.033
Mof_C 	C 	0.28463	0.19787	0.67907	0.119
Mof_H 	H 	0.25533	0.22237	0.68777	-0.009
Mof_C 	C 	0.31303	0.21277	0.64436	-0.192
Mof_H 	H 	0.24113	0.20667	0.68527	-0.004
Mof_H 	H 	0.29963	0.24397	0.62927	0.097
Mof_N 	N 	0.35363	0.23307	0.68898	-0.213
Mof_O 	O 	0.36608	0.25592	0.12274	-0.426
Mof_O 	O 	0.44421	0.29514	0.17124	-0.415
Mof_C 	C 	0.42707	0.30572	0.14039	0.394
Mof_C 	C 	0.48689	0.38532	0.12314	-0.137
Mof_C 	C 	0.472	0.4002	0.08868	0.027
Mof_H 	H 	0.4236	0.3621	0.0772	0.033
Mof_C 	C 	0.4688	0.4201	0.0124	0.119
Mof_H 	H 	0.4443	0.3663	0.0211	-0.009
Mof_C 	C 	0.4539	0.4336	0.97769	-0.192
Mof_H 	H 	0.46	0.3678	0.0186	-0.004
Mof_H 	H 	0.4227	0.389	0.9626	0.098
Mof_N 	N 	0.4336	0.4539	0.02231	-0.212
Mof_O 	O 	0.03275	0.58925	0.45607	-0.425
Mof_O 	O 	0.11088	0.62847	0.50457	-0.414
Mof_C 	C 	0.09374	0.63905	0.47372	0.395
Mof_C 	C 	0.15356	0.71865	0.45647	-0.136
Mof_C 	C 	0.13867	0.73353	0.42201	0.028
Mof_H 	H 	0.09027	0.69543	0.41053	0.034
Mof_C 	C 	0.13547	0.75343	0.34573	0.12
Mof_H 	H 	0.11097	0.69963	0.35443	-0.008
Mof_C 	C 	0.12057	0.76693	0.31102	-0.191
Mof_H 	H 	0.12667	0.70113	0.35193	-0.003
Mof_H 	H 	0.08937	0.72233	0.29593	0.098
Mof_N 	N 	0.10027	0.78723	0.35564	-0.212
Mof_O 	O 	0.69941	0.92259	0.78941	-0.425
Mof_O 	O 	0.77754	0.96181	0.83791	-0.414
Mof_C 	C 	0.7604	0.97239	0.80706	0.394
Mof_C 	C 	0.82022	0.05199	0.78981	-0.135
Mof_C 	C 	0.80533	0.06687	0.75535	0.027
Mof_H 	H 	0.75693	0.02877	0.74387	0.034
Mof_C 	C 	0.80213	0.08677	0.67907	0.12
Mof_H 	H 	0.77763	0.03297	0.68777	-0.008
Mof_C 	C 	0.78723	0.10027	0.64436	-0.191
Mof_H 	H 	0.79333	0.03447	0.68527	-0.003
Mof_H 	H 	0.75603	0.05567	0.62927	0.098
Mof_N 	N 	0.76693	0.12057	0.68898	-0.212
Mof_O 	O 	0.74408	0.11016	0.12274	-0.425
Mof_O 	O 	0.70486	0.14907	0.17124	-0.414
Mof_C 	C 	0.69428	0.12135	0.14039	0.395
Mof_C 	C 	0.61468	0.10157	0.12314	-0.136
Mof_C 	C 	0.5998	0.0718	0.08868	0.028
Mof_H 	H 	0.6379	0.0615	0.0772	0.034
Mof_C 	C 	0.5799	0.0487	0.0124	0.119
Mof_H 	H 	0.6337	0.078	0.0211	-0.008
Mof_C 	C 	0.5664	0.0203	0.97769	-0.189
Mof_H 	H 	0.6322	0.0922	0.0186	-0.003
Mof_H 	H 	0.611	0.0337	0.9626	0.098
Mof_N 	N 	0.5461	0.9797	0.02231	-0.211
Mof_O 	O 	0.41075	0.44349	0.45607	-0.425
Mof_O 	O 	0.37153	0.4824	0.50457	-0.414
Mof_C 	C 	0.36095	0.45468	0.47372	0.395
Mof_C 	C 	0.28135	0.4349	0.45647	-0.136
Mof_C 	C 	0.26647	0.40513	0.42201	0.028
Mof_H 	H 	0.30457	0.39483	0.41053	0.034
Mof_C 	C 	0.24657	0.38203	0.34573	0.12
Mof_H 	H 	0.30037	0.41133	0.35443	-0.008
Mof_C 	C 	0.23307	0.35363	0.31102	-0.191
Mof_H 	H 	0.29887	0.42553	0.35193	-0.003
Mof_H 	H 	0.27767	0.36703	0.29593	0.098
Mof_N 	N 	0.21277	0.31303	0.35564	-0.212
Mof_O 	O 	0.07741	0.77683	0.78941	-0.425
Mof_O 	O 	0.03819	0.81574	0.83791	-0.414
Mof_C 	C 	0.02761	0.78802	0.80706	0.394
Mof_C 	C 	0.94801	0.76824	0.78981	-0.135
Mof_C 	C 	0.93313	0.73847	0.75535	0.027
Mof_H 	H 	0.97123	0.72817	0.74387	0.034
Mof_C 	C 	0.91323	0.71537	0.67907	0.12
Mof_H 	H 	0.96703	0.74467	0.68777	-0.008
Mof_C 	C 	0.89973	0.68697	0.64436	-0.191
Mof_H 	H 	0.96553	0.75887	0.68527	-0.003
Mof_H 	H 	0.94433	0.70037	0.62927	0.098
Mof_N 	N 	0.87943	0.64637	0.68898	-0.212
Mof_O 	O 	0.63392	0.88984	0.87726	-0.425
Mof_O 	O 	0.55579	0.85093	0.82876	-0.414
Mof_C 	C 	0.57293	0.87865	0.85961	0.394
Mof_C 	C 	0.51311	0.89843	0.87686	-0.135
Mof_C 	C 	0.528	0.9282	0.91132	0.026
Mof_H 	H 	0.5764	0.9385	0.9228	0.034
Mof_C 	C 	0.5312	0.9513	0.9876	0.097
Mof_H 	H 	0.5557	0.922	0.9789	-0.005
Mof_H 	H 	0.54	0.9078	0.9814	0.003
Mof_H 	H 	0.5773	0.9663	0.0374	0.109
Mof_O 	O 	0.30059	0.22317	0.21059	-0.425
Mof_O 	O 	0.22246	0.18426	0.16209	-0.414
Mof_C 	C 	0.2396	0.21198	0.19294	0.394
Mof_C 	C 	0.17978	0.23176	0.21019	-0.135
Mof_C 	C 	0.19467	0.26153	0.24465	0.026
Mof_H 	H 	0.24307	0.27183	0.25613	0.034
Mof_C 	C 	0.19787	0.28463	0.32093	0.098
Mof_H 	H 	0.22237	0.25533	0.31223	-0.006
Mof_H 	H 	0.20667	0.24113	0.31473	0.003
Mof_H 	H 	0.24397	0.29963	0.37073	0.109
Mof_O 	O 	0.96725	0.55651	0.54393	-0.425
Mof_O 	O 	0.88912	0.5176	0.49543	-0.414
Mof_C 	C 	0.90626	0.54532	0.52628	0.394
Mof_C 	C 	0.84644	0.5651	0.54353	-0.135
Mof_C 	C 	0.86133	0.59487	0.57799	0.026
Mof_H 	H 	0.90973	0.60517	0.58947	0.034
Mof_C 	C 	0.86453	0.61797	0.65427	0.098
Mof_H 	H 	0.88903	0.58867	0.64557	-0.006
Mof_H 	H 	0.87333	0.57447	0.64807	0.003
Mof_H 	H 	0.91063	0.63297	0.70407	0.109
Mof_O 	O 	0.25592	0.36608	0.87726	-0.425
Mof_O 	O 	0.29514	0.44421	0.82876	-0.414
Mof_C 	C 	0.30572	0.42707	0.85961	0.394
Mof_C 	C 	0.38532	0.48689	0.87686	-0.135
Mof_C 	C 	0.4002	0.472	0.91132	0.026
Mof_H 	H 	0.3621	0.4236	0.9228	0.034
Mof_C 	C 	0.4201	0.4688	0.9876	0.098
Mof_H 	H 	0.3663	0.4443	0.9789	-0.006
Mof_H 	H 	0.3678	0.46	0.9814	0.003
Mof_H 	H 	0.389	0.4227	0.0374	0.109
Mof_O 	O 	0.92259	0.69941	0.21059	-0.425
Mof_O 	O 	0.96181	0.77754	0.16209	-0.414
Mof_C 	C 	0.97239	0.7604	0.19294	0.394
Mof_C 	C 	0.05199	0.82022	0.21019	-0.135
Mof_C 	C 	0.06687	0.80533	0.24465	0.026
Mof_H 	H 	0.02877	0.75693	0.25613	0.035
Mof_C 	C 	0.08677	0.80213	0.32093	0.098
Mof_H 	H 	0.03297	0.77763	0.31223	-0.005
Mof_H 	H 	0.03447	0.79333	0.31473	0.003
Mof_H 	H 	0.05567	0.75603	0.37073	0.109
Mof_O 	O 	0.58925	0.03275	0.54393	-0.425
Mof_O 	O 	0.62847	0.11088	0.49543	-0.414
Mof_C 	C 	0.63905	0.09374	0.52628	0.394
Mof_C 	C 	0.71865	0.15356	0.54353	-0.135
Mof_C 	C 	0.73353	0.13867	0.57799	0.026
Mof_H 	H 	0.69543	0.09027	0.58947	0.034
Mof_C 	C 	0.75343	0.13547	0.65427	0.098
Mof_H 	H 	0.69963	0.11097	0.64557	-0.006
Mof_H 	H 	0.70113	0.12667	0.64807	0.003
Mof_H 	H 	0.72233	0.08937	0.70407	0.109
Mof_O 	O 	0.11016	0.74408	0.87726	-0.425
Mof_O 	O 	0.14907	0.70486	0.82876	-0.414
Mof_C 	C 	0.12135	0.69428	0.85961	0.394
Mof_C 	C 	0.10157	0.61468	0.87686	-0.135
Mof_C 	C 	0.0718	0.5998	0.91132	0.026
Mof_H 	H 	0.0615	0.6379	0.9228	0.034
Mof_C 	C 	0.0487	0.5799	0.9876	0.097
Mof_H 	H 	0.078	0.6337	0.9789	-0.005
Mof_H 	H 	0.0922	0.6322	0.9814	0.003
Mof_H 	H 	0.0337	0.611	0.0374	0.109
Mof_O 	O 	0.77683	0.07741	0.21059	-0.425
Mof_O 	O 	0.81574	0.03819	0.16209	-0.414
Mof_C 	C 	0.78802	0.02761	0.19294	0.394
Mof_C 	C 	0.76824	0.94801	0.21019	-0.135
Mof_C 	C 	0.73847	0.93313	0.24465	0.026
Mof_H 	H 	0.72817	0.97123	0.25613	0.035
Mof_C 	C 	0.71537	0.91323	0.32093	0.098
Mof_H 	H 	0.74467	0.96703	0.31223	-0.006
Mof_H 	H 	0.75887	0.96553	0.31473	0.003
Mof_H 	H 	0.70037	0.94433	0.37073	0.109
Mof_O 	O 	0.44349	0.41075	0.54393	-0.425
Mof_O 	O 	0.4824	0.37153	0.49543	-0.414
Mof_C 	C 	0.45468	0.36095	0.52628	0.394
Mof_C 	C 	0.4349	0.28135	0.54353	-0.135
Mof_C 	C 	0.40513	0.26647	0.57799	0.026
Mof_H 	H 	0.39483	0.30457	0.58947	0.034
Mof_C 	C 	0.38203	0.24657	0.65427	0.098
Mof_H 	H 	0.41133	0.30037	0.64557	-0.006
Mof_H 	H 	0.42553	0.29887	0.64807	0.003
Mof_H 	H 	0.36703	0.27767	0.70407	0.109
Mof_O 	O 	0.11016	0.36608	0.87726	-0.425
Mof_O 	O 	0.14907	0.44421	0.82876	-0.414
Mof_C 	C 	0.12135	0.42707	0.85961	0.395
Mof_C 	C 	0.10157	0.48689	0.87686	-0.136
Mof_C 	C 	0.0718	0.472	0.91132	0.028
Mof_H 	H 	0.0615	0.4236	0.9228	0.034
Mof_C 	C 	0.0487	0.4688	0.9876	0.119
Mof_H 	H 	0.078	0.4443	0.9789	-0.008
Mof_C 	C 	0.0203	0.4539	0.02231	-0.189
Mof_H 	H 	0.0922	0.46	0.9814	-0.003
Mof_H 	H 	0.0337	0.4227	0.0374	0.098
Mof_N 	N 	0.9797	0.4336	0.97769	-0.211
Mof_O 	O 	0.77683	0.69941	0.21059	-0.425
Mof_O 	O 	0.81574	0.77754	0.16209	-0.414
Mof_C 	C 	0.78802	0.7604	0.19294	0.395
Mof_C 	C 	0.76824	0.82022	0.21019	-0.136
Mof_C 	C 	0.73847	0.80533	0.24465	0.028
Mof_H 	H 	0.72817	0.75693	0.25613	0.034
Mof_C 	C 	0.71537	0.80213	0.32093	0.12
Mof_H 	H 	0.74467	0.77763	0.31223	-0.008
Mof_C 	C 	0.68697	0.78723	0.35564	-0.191
Mof_H 	H 	0.75887	0.79333	0.31473	-0.003
Mof_H 	H 	0.70037	0.75603	0.37073	0.098
Mof_N 	N 	0.64637	0.76693	0.31102	-0.212
Mof_O 	O 	0.44349	0.03275	0.54393	-0.425
Mof_O 	O 	0.4824	0.11088	0.49543	-0.414
Mof_C 	C 	0.45468	0.09374	0.52628	0.395
Mof_C 	C 	0.4349	0.15356	0.54353	-0.136
Mof_C 	C 	0.40513	0.13867	0.57799	0.028
Mof_H 	H 	0.39483	0.09027	0.58947	0.034
Mof_C 	C 	0.38203	0.13547	0.65427	0.12
Mof_H 	H 	0.41133	0.11097	0.64557	-0.008
Mof_C 	C 	0.35363	0.12057	0.68898	-0.191
Mof_H 	H 	0.42553	0.12667	0.64807	-0.003
Mof_H 	H 	0.36703	0.08937	0.70407	0.098
Mof_N 	N 	0.31303	0.10027	0.64436	-0.212
Mof_O 	O 	0.63392	0.74408	0.87726	-0.425
Mof_O 	O 	0.55579	0.70486	0.82876	-0.414
Mof_C 	C 	0.57293	0.69428	0.85961	0.395
Mof_C 	C 	0.51311	0.61468	0.87686	-0.136
Mof_C 	C 	0.528	0.5998	0.91132	0.028
Mof_H 	H 	0.5764	0.6379	0.9228	0.034
Mof_C 	C 	0.5312	0.5799	0.9876	0.12
Mof_H 	H 	0.5557	0.6337	0.9789	-0.008
Mof_C 	C 	0.5461	0.5664	0.02231	-0.191
Mof_H 	H 	0.54	0.6322	0.9814	-0.003
Mof_H 	H 	0.5773	0.611	0.0374	0.098
Mof_N 	N 	0.5664	0.5461	0.97769	-0.212
Mof_O 	O 	0.30059	0.07741	0.21059	-0.425
Mof_O 	O 	0.22246	0.03819	0.16209	-0.414
Mof_C 	C 	0.2396	0.02761	0.19294	0.394
Mof_C 	C 	0.17978	0.94801	0.21019	-0.135
Mof_C 	C 	0.19467	0.93313	0.24465	0.027
Mof_H 	H 	0.24307	0.97123	0.25613	0.034
Mof_C 	C 	0.19787	0.91323	0.32093	0.12
Mof_H 	H 	0.22237	0.96703	0.31223	-0.008
Mof_C 	C 	0.21277	0.89973	0.35564	-0.191
Mof_H 	H 	0.20667	0.96553	0.31473	-0.003
Mof_H 	H 	0.24397	0.94433	0.37073	0.098
Mof_N 	N 	0.23307	0.87943	0.31102	-0.212
Mof_O 	O 	0.96725	0.41075	0.54393	-0.425
Mof_O 	O 	0.88912	0.37153	0.49543	-0.414
Mof_C 	C 	0.90626	0.36095	0.52628	0.395
Mof_C 	C 	0.84644	0.28135	0.54353	-0.136
Mof_C 	C 	0.86133	0.26647	0.57799	0.028
Mof_H 	H 	0.90973	0.30457	0.58947	0.034
Mof_C 	C 	0.86453	0.24657	0.65427	0.12
Mof_H 	H 	0.88903	0.30037	0.64557	-0.008
Mof_C 	C 	0.87943	0.23307	0.68898	-0.191
Mof_H 	H 	0.87333	0.29887	0.64807	-0.003
Mof_H 	H 	0.91063	0.27767	0.70407	0.098
Mof_N 	N 	0.89973	0.21277	0.64436	-0.212
Mof_O 	O 	0.25592	0.88984	0.87726	-0.425
Mof_O 	O 	0.29514	0.85093	0.82876	-0.414
Mof_C 	C 	0.30572	0.87865	0.85961	0.395
Mof_C 	C 	0.38532	0.89843	0.87686	-0.136
Mof_C 	C 	0.4002	0.9282	0.91132	0.028
Mof_H 	H 	0.3621	0.9385	0.9228	0.034
Mof_C 	C 	0.4201	0.9513	0.9876	0.119
Mof_H 	H 	0.3663	0.922	0.9789	-0.008
Mof_C 	C 	0.4336	0.9797	0.02231	-0.189
Mof_H 	H 	0.3678	0.9078	0.9814	-0.003
Mof_H 	H 	0.389	0.9663	0.0374	0.098
Mof_N 	N 	0.4539	0.0203	0.97769	-0.211
Mof_O 	O 	0.92259	0.22317	0.21059	-0.425
Mof_O 	O 	0.96181	0.18426	0.16209	-0.414
Mof_C 	C 	0.97239	0.21198	0.19294	0.394
Mof_C 	C 	0.05199	0.23176	0.21019	-0.135
Mof_C 	C 	0.06687	0.26153	0.24465	0.027
Mof_H 	H 	0.02877	0.27183	0.25613	0.034
Mof_C 	C 	0.08677	0.28463	0.32093	0.12
Mof_H 	H 	0.03297	0.25533	0.31223	-0.008
Mof_C 	C 	0.10027	0.31303	0.35564	-0.191
Mof_H 	H 	0.03447	0.24113	0.31473	-0.003
Mof_H 	H 	0.05567	0.29963	0.37073	0.098
Mof_N 	N 	0.12057	0.35363	0.31102	-0.212
Mof_O 	O 	0.58925	0.55651	0.54393	-0.425
Mof_O 	O 	0.62847	0.5176	0.49543	-0.414
Mof_C 	C 	0.63905	0.54532	0.52628	0.395
Mof_C 	C 	0.71865	0.5651	0.54353	-0.136
Mof_C 	C 	0.73353	0.59487	0.57799	0.028
Mof_H 	H 	0.69543	0.60517	0.58947	0.034
Mof_C 	C 	0.75343	0.61797	0.65427	0.12
Mof_H 	H 	0.69963	0.58867	0.64557	-0.008
Mof_C 	C 	0.76693	0.64637	0.68898	-0.191
Mof_H 	H 	0.70113	0.57447	0.64807	-0.003
Mof_H 	H 	0.72233	0.63297	0.70407	0.098
Mof_N 	N 	0.78723	0.68697	0.64436	-0.212
Mof_O 	O 	0.36608	0.11016	0.12274	-0.425
Mof_O 	O 	0.44421	0.14907	0.17124	-0.414
Mof_C 	C 	0.42707	0.12135	0.14039	0.394
Mof_C 	C 	0.48689	0.10157	0.12314	-0.135
Mof_C 	C 	0.472	0.0718	0.08868	0.026
Mof_H 	H 	0.4236	0.0615	0.0772	0.034
Mof_C 	C 	0.4688	0.0487	0.0124	0.097
Mof_H 	H 	0.4443	0.078	0.0211	-0.005
Mof_H 	H 	0.46	0.0922	0.0186	0.003
Mof_H 	H 	0.4227	0.0337	0.9626	0.109
Mof_O 	O 	0.03275	0.44349	0.45607	-0.425
Mof_O 	O 	0.11088	0.4824	0.50457	-0.414
Mof_C 	C 	0.09374	0.45468	0.47372	0.394
Mof_C 	C 	0.15356	0.4349	0.45647	-0.135
Mof_C 	C 	0.13867	0.40513	0.42201	0.026
Mof_H 	H 	0.09027	0.39483	0.41053	0.034
Mof_C 	C 	0.13547	0.38203	0.34573	0.098
Mof_H 	H 	0.11097	0.41133	0.35443	-0.006
Mof_H 	H 	0.12667	0.42553	0.35193	0.003
Mof_H 	H 	0.08937	0.36703	0.29593	0.109
Mof_O 	O 	0.69941	0.77683	0.78941	-0.425
Mof_O 	O 	0.77754	0.81574	0.83791	-0.414
Mof_C 	C 	0.7604	0.78802	0.80706	0.394
Mof_C 	C 	0.82022	0.76824	0.78981	-0.135
Mof_C 	C 	0.80533	0.73847	0.75535	0.026
Mof_H 	H 	0.75693	0.72817	0.74387	0.034
Mof_C 	C 	0.80213	0.71537	0.67907	0.098
Mof_H 	H 	0.77763	0.74467	0.68777	-0.006
Mof_H 	H 	0.79333	0.75887	0.68527	0.003
Mof_H 	H 	0.75603	0.70037	0.62927	0.109
Mof_O 	O 	0.74408	0.63392	0.12274	-0.425
Mof_O 	O 	0.70486	0.55579	0.17124	-0.414
Mof_C 	C 	0.69428	0.57293	0.14039	0.394
Mof_C 	C 	0.61468	0.51311	0.12314	-0.135
Mof_C 	C 	0.5998	0.528	0.08868	0.026
Mof_H 	H 	0.6379	0.5764	0.0772	0.034
Mof_C 	C 	0.5799	0.5312	0.0124	0.098
Mof_H 	H 	0.6337	0.5557	0.0211	-0.006
Mof_H 	H 	0.6322	0.54	0.0186	0.003
Mof_H 	H 	0.611	0.5773	0.9626	0.109
Mof_O 	O 	0.41075	0.96725	0.45607	-0.425
Mof_O 	O 	0.37153	0.88912	0.50457	-0.414
Mof_C 	C 	0.36095	0.90626	0.47372	0.394
Mof_C 	C 	0.28135	0.84644	0.45647	-0.135
Mof_C 	C 	0.26647	0.86133	0.42201	0.026
Mof_H 	H 	0.30457	0.90973	0.41053	0.034
Mof_C 	C 	0.24657	0.86453	0.34573	0.098
Mof_H 	H 	0.30037	0.88903	0.35443	-0.006
Mof_H 	H 	0.29887	0.87333	0.35193	0.003
Mof_H 	H 	0.27767	0.91063	0.29593	0.109
Mof_O 	O 	0.07741	0.30059	0.78941	-0.425
Mof_O 	O 	0.03819	0.22246	0.83791	-0.414
Mof_C 	C 	0.02761	0.2396	0.80706	0.394
Mof_C 	C 	0.94801	0.17978	0.78981	-0.135
Mof_C 	C 	0.93313	0.19467	0.75535	0.026
Mof_H 	H 	0.97123	0.24307	0.74387	0.035
Mof_C 	C 	0.91323	0.19787	0.67907	0.098
Mof_H 	H 	0.96703	0.22237	0.68777	-0.005
Mof_H 	H 	0.96553	0.20667	0.68527	0.003
Mof_H 	H 	0.94433	0.24397	0.62927	0.109
Mof_O 	O 	0.88984	0.25592	0.12274	-0.425
Mof_O 	O 	0.85093	0.29514	0.17124	-0.414
Mof_C 	C 	0.87865	0.30572	0.14039	0.394
Mof_C 	C 	0.89843	0.38532	0.12314	-0.135
Mof_C 	C 	0.9282	0.4002	0.08868	0.026
Mof_H 	H 	0.9385	0.3621	0.0772	0.034
Mof_C 	C 	0.9513	0.4201	0.0124	0.097
Mof_H 	H 	0.922	0.3663	0.0211	-0.005
Mof_H 	H 	0.9078	0.3678	0.0186	0.003
Mof_H 	H 	0.9663	0.389	0.9626	0.109
Mof_O 	O 	0.55651	0.58925	0.45607	-0.425
Mof_O 	O 	0.5176	0.62847	0.50457	-0.414
Mof_C 	C 	0.54532	0.63905	0.47372	0.394
Mof_C 	C 	0.5651	0.71865	0.45647	-0.135
Mof_C 	C 	0.59487	0.73353	0.42201	0.026
Mof_H 	H 	0.60517	0.69543	0.41053	0.034
Mof_C 	C 	0.61797	0.75343	0.34573	0.098
Mof_H 	H 	0.58867	0.69963	0.35443	-0.006
Mof_H 	H 	0.57447	0.70113	0.35193	0.003
Mof_H 	H 	0.63297	0.72233	0.29593	0.109
Mof_O 	O 	0.22317	0.92259	0.78941	-0.425
Mof_O 	O 	0.18426	0.96181	0.83791	-0.414
Mof_C 	C 	0.21198	0.97239	0.80706	0.394
Mof_C 	C 	0.23176	0.05199	0.78981	-0.135
Mof_C 	C 	0.26153	0.06687	0.75535	0.026
Mof_H 	H 	0.27183	0.02877	0.74387	0.035
Mof_C 	C 	0.28463	0.08677	0.67907	0.098
Mof_H 	H 	0.25533	0.03297	0.68777	-0.006
Mof_H 	H 	0.24113	0.03447	0.68527	0.003
Mof_H 	H 	0.29963	0.05567	0.62927	0.109
Mof_Cu	Cu	0.8562	0.71239	0.13782	0.91
Mof_Cu	Cu	0.52286	0.04572	0.47115	0.91
Mof_Cu	Cu	0.18953	0.37906	0.80449	0.91
Mof_Cu	Cu	0.28761	0.1438	0.13782	0.91
Mof_Cu	Cu	0.95428	0.47714	0.47115	0.91
Mof_Cu	Cu	0.62094	0.81047	0.80449	0.91
Mof_Cu	Cu	0.8562	0.1438	0.13782	0.91
Mof_Cu	Cu	0.52286	0.47714	0.47115	0.91
Mof_Cu	Cu	0.18953	0.81047	0.80449	0.91
Mof_Cu	Cu	0.71239	0.8562	0.86218	0.91
Mof_Cu	Cu	0.37906	0.18953	0.19551	0.91
Mof_Cu	Cu	0.04572	0.52286	0.52885	0.91
Mof_Cu	Cu	0.1438	0.28761	0.86218	0.91
Mof_Cu	Cu	0.81047	0.62094	0.19551	0.91
Mof_Cu	Cu	0.47714	0.95428	0.52885	0.91
Mof_Cu	Cu	0.1438	0.8562	0.86218	0.91
Mof_Cu	Cu	0.81047	0.18953	0.19551	0.91
Mof_Cu	Cu	0.47714	0.52286	0.52885	0.91
Mof_C 	C 	0.8841	0.44205	0.14077	0.114
Mof_C 	C 	0.9428	0.4714	0.07121	-0.048
Mof_C 	C 	0.9733	0.48665	0.03481	0.056
Mof_C 	C 	0.55077	0.77538	0.4741	0.114
Mof_C 	C 	0.60947	0.80473	0.40454	-0.048
Mof_C 	C 	0.63997	0.81998	0.36814	0.056
Mof_C 	C 	0.21743	0.10872	0.80744	0.114
Mof_C 	C 	0.27613	0.13807	0.73788	-0.048
Mof_C 	C 	0.30663	0.15332	0.70148	0.056
Mof_C 	C 	0.55795	0.44205	0.14077	0.114
Mof_C 	C 	0.5286	0.4714	0.07121	-0.048
Mof_C 	C 	0.51335	0.48665	0.03481	0.056
Mof_C 	C 	0.22462	0.77538	0.4741	0.114
Mof_C 	C 	0.19527	0.80473	0.40454	-0.048
Mof_C 	C 	0.18002	0.81998	0.36814	0.056
Mof_C 	C 	0.89128	0.10872	0.80744	0.114
Mof_C 	C 	0.86193	0.13807	0.73788	-0.048
Mof_C 	C 	0.84668	0.15332	0.70148	0.056
Mof_C 	C 	0.55795	0.1159	0.14077	0.114
Mof_C 	C 	0.5286	0.0572	0.07121	-0.048
Mof_C 	C 	0.51335	0.0267	0.03481	0.056
Mof_C 	C 	0.22462	0.44923	0.4741	0.114
Mof_C 	C 	0.19527	0.39053	0.40454	-0.048
Mof_C 	C 	0.18002	0.36003	0.36814	0.056
Mof_C 	C 	0.89128	0.78257	0.80744	0.114
Mof_C 	C 	0.86193	0.72387	0.73788	-0.048
Mof_C 	C 	0.84668	0.69337	0.70148	0.056
Mof_C 	C 	0.44205	0.8841	0.85923	0.114
Mof_C 	C 	0.4714	0.9428	0.92879	-0.048
Mof_C 	C 	0.48665	0.9733	0.96519	0.056
Mof_C 	C 	0.10872	0.21743	0.19256	0.114
Mof_C 	C 	0.13807	0.27613	0.26212	-0.048
Mof_C 	C 	0.15332	0.30663	0.29852	0.056
Mof_C 	C 	0.77538	0.55077	0.5259	0.114
Mof_C 	C 	0.80473	0.60947	0.59546	-0.048
Mof_C 	C 	0.81998	0.63997	0.63186	0.056
Mof_C 	C 	0.44205	0.55795	0.85923	0.114
Mof_C 	C 	0.4714	0.5286	0.92879	-0.048
Mof_C 	C 	0.48665	0.51335	0.96519	0.056
Mof_C 	C 	0.10872	0.89128	0.19256	0.114
Mof_C 	C 	0.13807	0.86193	0.26212	-0.048
Mof_C 	C 	0.15332	0.84668	0.29852	0.056
Mof_C 	C 	0.77538	0.22462	0.5259	0.114
Mof_C 	C 	0.80473	0.19527	0.59546	-0.048
Mof_C 	C 	0.81998	0.18002	0.63186	0.056
Mof_C 	C 	0.1159	0.55795	0.85923	0.114
Mof_C 	C 	0.0572	0.5286	0.92879	-0.048
Mof_C 	C 	0.0267	0.51335	0.96519	0.056
Mof_C 	C 	0.78257	0.89128	0.19256	0.114
Mof_C 	C 	0.72387	0.86193	0.26212	-0.048
Mof_C 	C 	0.69337	0.84668	0.29852	0.056
Mof_C 	C 	0.44923	0.22462	0.5259	0.114
Mof_C 	C 	0.39053	0.19527	0.59546	-0.048
Mof_C 	C 	0.36003	0.18002	0.63186	0.056
_end
