data_functionalizedCrystal
_audit_creation_method	'EQeq! by Chris Wilmer'
_symmetry_space_group_name_H-M	'P1'
_symmetry_Int_Tables_number	1
_symmetry_cell_setting	triclinic
loop_
_symmetry_equiv_pos_as_xyz
  x,y,z
_cell_length_a	10.204
_cell_length_b	10.204
_cell_length_c	13.0998
_cell_angle_alpha	90
_cell_angle_beta	90
_cell_angle_gamma	90
loop_
_atom_site_label
_atom_site_type_symbol
_atom_site_fract_x
_atom_site_fract_y
_atom_site_fract_z
_atom_site_charge
Mof_Zn	Zn	0.73031	0.73031	0.5	1.18
Mof_Zn	Zn	0.26969	0.26969	-0	1.161
Mof_Zn	Zn	0.76969	0.23031	0.75	1.181
Mof_Zn	Zn	0.23031	0.76969	0.25	1.179
Mof_H 	H 	0.6215	0.4532	0.4476	-0.029
Mof_H 	H 	0.8691	0.5115	0.7665	0.121
Mof_H 	H 	0.8579	0.6362	0.7081	0.136
Mof_H 	H 	0.3785	0.5468	0.9476	0.052
Mof_H 	H 	0.1309	0.4885	0.2665	0.114
Mof_H 	H 	0.1421	0.3638	0.2081	0.129
Mof_H 	H 	0.0468	0.1215	0.6976	-0.027
Mof_H 	H 	0.9885	0.3691	0.0165	0.056
Mof_H 	H 	0.8638	0.3579	0.9581	0.132
Mof_H 	H 	0.9532	0.8785	0.1976	-0.034
Mof_H 	H 	0.0115	0.6309	0.5165	0.117
Mof_H 	H 	0.1362	0.6421	0.4581	0.133
Mof_H 	H 	0.8785	0.9532	0.8024	-0.02
Mof_H 	H 	0.6309	0.0115	0.4835	0.114
Mof_H 	H 	0.6421	0.1362	0.5419	0.132
Mof_H 	H 	0.1215	0.0468	0.3024	-0.027
Mof_H 	H 	0.3691	0.9885	0.9835	0.17
Mof_H 	H 	0.3579	0.8638	0.0419	0.132
Mof_H 	H 	0.4532	0.6215	0.5524	-0.026
Mof_H 	H 	0.5115	0.8691	0.2335	0.11
Mof_H 	H 	0.6362	0.8579	0.2919	0.128
Mof_H 	H 	0.5468	0.3785	0.0524	-0.108
Mof_H 	H 	0.4885	0.1309	0.7335	0.118
Mof_H 	H 	0.3638	0.1421	0.7919	0.137
Mof_C 	C 	0.7713	0.491	0.6402	0.206
Mof_C 	C 	0.6649	0.446	0.5098	0.081
Mof_C 	C 	0.2287	0.509	0.1402	0.203
Mof_C 	C 	0.3351	0.554	0.0098	-0.036
Mof_C 	C 	0.009	0.2713	0.8902	0.208
Mof_C 	C 	0.054	0.1649	0.7598	0.085
Mof_C 	C 	0.991	0.7287	0.3902	0.199
Mof_C 	C 	0.946	0.8351	0.2598	0.077
Mof_C 	C 	0.7287	0.991	0.6098	0.202
Mof_C 	C 	0.8351	0.946	0.7402	0.08
Mof_C 	C 	0.2713	0.009	0.1098	0.194
Mof_C 	C 	0.1649	0.054	0.2402	0.073
Mof_C 	C 	0.491	0.7713	0.3598	0.202
Mof_C 	C 	0.446	0.6649	0.4902	0.081
Mof_C 	C 	0.509	0.2287	0.8598	0.207
Mof_C 	C 	0.554	0.3351	0.9902	0.203
Mof_N 	N 	0.7259	0.548	0.5577	-0.318
Mof_N 	N 	0.7474	0.3667	0.6504	-0.3
Mof_N 	N 	0.6743	0.337	0.5609	-0.139
Mof_N 	N 	0.8414	0.554	0.7141	-0.341
Mof_N 	N 	0.2741	0.452	0.0577	-0.31
Mof_N 	N 	0.2526	0.6333	0.1504	-0.302
Mof_N 	N 	0.3257	0.663	0.0609	-0.128
Mof_N 	N 	0.1586	0.446	0.2141	-0.339
Mof_N 	N 	0.952	0.2259	0.8077	-0.316
Mof_N 	N 	0.1333	0.2474	0.9004	-0.28
Mof_N 	N 	0.163	0.1743	0.8109	-0.135
Mof_N 	N 	0.946	0.3414	0.9641	-0.281
Mof_N 	N 	0.048	0.7741	0.3077	-0.315
Mof_N 	N 	0.8667	0.7526	0.4004	-0.3
Mof_N 	N 	0.837	0.8257	0.3109	-0.141
Mof_N 	N 	0.054	0.6586	0.4641	-0.338
Mof_N 	N 	0.7741	0.048	0.6923	-0.314
Mof_N 	N 	0.7526	0.8667	0.5996	-0.299
Mof_N 	N 	0.8257	0.837	0.6891	-0.136
Mof_N 	N 	0.6586	0.054	0.5359	-0.338
Mof_N 	N 	0.2259	0.952	0.1923	-0.314
Mof_N 	N 	0.2474	0.1333	0.0996	-0.312
Mof_N 	N 	0.1743	0.163	0.1891	-0.141
Mof_N 	N 	0.3414	0.946	0.0359	-0.389
Mof_N 	N 	0.548	0.7259	0.4423	-0.317
Mof_N 	N 	0.3667	0.7474	0.3496	-0.3
Mof_N 	N 	0.337	0.6743	0.4391	-0.139
Mof_N 	N 	0.554	0.8414	0.2859	-0.338
Mof_N 	N 	0.452	0.2741	0.9423	-0.32
Mof_N 	N 	0.6333	0.2526	0.8496	-0.297
Mof_N 	N 	0.663	0.3257	0.9391	-0.15
Mof_N 	N 	0.446	0.1586	0.7859	-0.339
_end
