data_functionalizedCrystal
_audit_creation_method	'EQeq! by Chris Wilmer'
_symmetry_space_group_name_H-M	'P1'
_symmetry_Int_Tables_number	1
_symmetry_cell_setting	triclinic
loop_
_symmetry_equiv_pos_as_xyz
  x,y,z
_cell_length_a	11.709
_cell_length_b	12.626
_cell_length_c	13.1949
_cell_angle_alpha	103.482
_cell_angle_beta	116.34
_cell_angle_gamma	90
loop_
_atom_site_label
_atom_site_type_symbol
_atom_site_fract_x
_atom_site_fract_y
_atom_site_fract_z
_atom_site_charge
Mof_Cu	Cu	0.98647	0.09456	0.97294	0.963
Mof_Cu	Cu	0.01353	0.90544	0.02706	0.898
Mof_Cu	Cu	-0	0.5	-0	0.837
Mof_H 	H 	0.9325	0.1569	0.731	0.216
Mof_H 	H 	0.7535	0.3015	0.641	0.006
Mof_H 	H 	0.8234	0.9562	0.2484	0.032
Mof_H 	H 	0.9458	0.0241	0.3582	0.029
Mof_H 	H 	0.9117	0.1764	0.2876	0.191
Mof_H 	H 	0.7759	0.123	0.1878	0.181
Mof_H 	H 	0.2015	0.8431	0.269	0.206
Mof_H 	H 	0.1125	0.6985	0.359	-0.007
Mof_H 	H 	0.575	0.0438	0.7516	0.02
Mof_H 	H 	0.5876	0.9759	0.6418	0.014
Mof_H 	H 	0.6241	0.8236	0.7124	0.197
Mof_H 	H 	0.5881	0.877	0.8122	0.201
Mof_H 	H 	0.0675	0.8431	0.269	0.195
Mof_H 	H 	0.2465	0.6985	0.359	-0.003
Mof_H 	H 	0.1766	0.0438	0.7516	0.022
Mof_H 	H 	0.0542	0.9759	0.6418	0.002
Mof_H 	H 	0.0883	0.8236	0.7124	0.186
Mof_H 	H 	0.2241	0.877	0.8122	0.198
Mof_H 	H 	0.7985	0.1569	0.731	0.209
Mof_H 	H 	0.8875	0.3015	0.641	0.01
Mof_H 	H 	0.425	0.9562	0.2484	0.014
Mof_H 	H 	0.4124	0.0241	0.3582	0.01
Mof_H 	H 	0.3759	0.1764	0.2876	0.189
Mof_H 	H 	0.4119	0.123	0.1878	0.187
Mof_C 	C 	0.84069	0.1364	0.47218	0.289
Mof_C 	C 	0.8591	0.0287	0.301	0.137
Mof_C 	C 	0.8628	0.1079	0.2326	-0.451
Mof_C 	C 	0.92008	0.0695	0.14996	0.469
Mof_C 	C 	0.36851	0.8636	0.52782	0.289
Mof_C 	C 	0.5581	0.9713	0.699	0.165
Mof_C 	C 	0.6302	0.8921	0.7674	-0.472
Mof_C 	C 	0.77012	0.9305	0.85004	0.49
Mof_C 	C 	0.15931	0.8636	0.52782	0.29
Mof_C 	C 	0.1409	0.9713	0.699	0.157
Mof_C 	C 	0.1372	0.8921	0.7674	-0.467
Mof_C 	C 	0.07992	0.9305	0.85004	0.475
Mof_C 	C 	0.63149	0.1364	0.47218	0.29
Mof_C 	C 	0.4419	0.0287	0.301	0.166
Mof_C 	C 	0.3698	0.1079	0.2326	-0.477
Mof_C 	C 	0.22988	0.0695	0.14996	0.491
Mof_C 	C 	0.927	0.2867	0.854	0.481
Mof_C 	C 	0.8683	0.2033	0.7366	-0.505
Mof_C 	C 	0.8181	0.2554	0.6362	0.186
Mof_C 	C 	0.6514	0.0291	0.3028	0.29
Mof_C 	C 	0.073	0.7133	0.146	0.485
Mof_C 	C 	0.1317	0.7967	0.2634	-0.513
Mof_C 	C 	0.1819	0.7446	0.3638	0.194
Mof_C 	C 	0.3486	0.9709	0.6972	0.287
Mof_N 	N 	0.78083	0.0648	0.36166	-0.207
Mof_N 	N 	0.41917	0.9352	0.63834	-0.211
Mof_N 	N 	0.21917	0.9352	0.63834	-0.212
Mof_N 	N 	0.58083	0.0648	0.36166	-0.212
Mof_N 	N 	0.7615	0.1712	0.523	-0.213
Mof_N 	N 	0.2385	0.8288	0.477	-0.217
Mof_O 	O 	0.95071	0.9742	0.14022	-0.407
Mof_O 	O 	0.92967	0.1334	0.09554	-0.439
Mof_O 	O 	0.95364	0.1662	0.52028	-0.235
Mof_O 	O 	0.81049	0.0258	0.85978	-0.424
Mof_O 	O 	0.83413	0.8666	0.90446	-0.398
Mof_O 	O 	0.43336	0.8338	0.47972	-0.249
Mof_O 	O 	0.04929	0.0258	0.85978	-0.433
Mof_O 	O 	0.07033	0.8666	0.90446	-0.418
Mof_O 	O 	0.04636	0.8338	0.47972	-0.266
Mof_O 	O 	0.18951	0.9742	0.14022	-0.454
Mof_O 	O 	0.16587	0.1334	0.09554	-0.475
Mof_O 	O 	0.56664	0.1662	0.52028	-0.25
Mof_O 	O 	0.97289	0.2526	0.94578	-0.38
Mof_O 	O 	0.9282	0.3856	0.8564	-0.43
Mof_O 	O 	0.6023	0.9724	0.2046	-0.252
Mof_O 	O 	0.02711	0.7474	0.05422	-0.446
Mof_O 	O 	0.0718	0.6144	0.1436	-0.485
Mof_O 	O 	0.3977	0.0276	0.7954	-0.236
_end
