data_functionalizedCrystal
_audit_creation_method	'EQeq! by Chris Wilmer'
_symmetry_space_group_name_H-M	'P1'
_symmetry_Int_Tables_number	1
_symmetry_cell_setting	triclinic
loop_
_symmetry_equiv_pos_as_xyz
  x,y,z
_cell_length_a	18.685
_cell_length_b	11.722
_cell_length_c	9.244
_cell_angle_alpha	90
_cell_angle_beta	91.771
_cell_angle_gamma	90
loop_
_atom_site_label
_atom_site_type_symbol
_atom_site_fract_x
_atom_site_fract_y
_atom_site_fract_z
_atom_site_charge
Mof_Ba	Ba	0.4779	0.69163	0.50773	1.544
Mof_O 	O 	0.3262	0.7837	0.5107	-0.514
Mof_O 	O 	0.5737	0.6639	0.2814	-0.532
Mof_C 	C 	0.634	0.6706	0.3423	0.329
Mof_C 	C 	0.6851	0.4943	0.2171	-0.043
Mof_O 	O 	0.6495	0.7437	0.4415	-0.483
Mof_N 	N 	0.7582	0.6239	0.3553	-0.197
Mof_C 	C 	0.6928	0.592	0.3002	-0.053
Mof_N 	N 	0.7443	0.4296	0.1847	-0.136
Mof_C 	C 	0.8092	0.4657	0.2346	-0.019
Mof_H 	H 	0.8504	0.4277	0.2076	-0.028
Mof_C 	C 	0.6135	0.4501	0.1644	0.366
Mof_O 	O 	0.5876	0.4897	0.0429	-0.513
Mof_O 	O 	0.5844	0.3756	0.2366	-0.527
Mof_H 	H 	0.3342	0.7607	0.4201	0.174
Mof_H 	H 	0.3581	0.8149	0.5597	0.153
Mof_C 	C 	0.8144	0.5611	0.3278	0.028
Mof_H 	H 	0.8586	0.5798	0.3706	-0.058
Mof_Ba	Ba	0.9779	0.19163	0.50773	1.561
Mof_O 	O 	0.8262	0.2837	0.5107	-0.515
Mof_O 	O 	0.0737	0.1639	0.2814	-0.534
Mof_C 	C 	0.134	0.1706	0.3423	0.329
Mof_C 	C 	0.1851	0.9943	0.2171	-0.041
Mof_O 	O 	0.1495	0.2437	0.4415	-0.484
Mof_N 	N 	0.2582	0.1239	0.3553	-0.196
Mof_C 	C 	0.1928	0.092	0.3002	-0.056
Mof_N 	N 	0.2443	0.9296	0.1847	-0.136
Mof_C 	C 	0.3092	0.9657	0.2346	-0.016
Mof_H 	H 	0.3504	0.9277	0.2076	-0.03
Mof_C 	C 	0.1135	0.9501	0.1644	0.364
Mof_O 	O 	0.0876	0.9897	0.0429	-0.51
Mof_O 	O 	0.0844	0.8756	0.2366	-0.526
Mof_H 	H 	0.8342	0.2607	0.4201	0.173
Mof_H 	H 	0.8581	0.3149	0.5597	0.153
Mof_C 	C 	0.3144	0.0611	0.3278	0.024
Mof_H 	H 	0.3586	0.0798	0.3706	-0.058
Mof_Ba	Ba	0.5221	0.69163	0.99227	1.661
Mof_O 	O 	0.6738	0.7837	0.9893	-0.428
Mof_O 	O 	0.4263	0.6639	0.2186	-0.535
Mof_C 	C 	0.366	0.6706	0.1577	0.325
Mof_C 	C 	0.3149	0.4943	0.2829	-0.037
Mof_O 	O 	0.3505	0.7437	0.0585	-0.505
Mof_N 	N 	0.2418	0.6239	0.1447	-0.201
Mof_C 	C 	0.3072	0.592	0.1998	-0.058
Mof_N 	N 	0.2557	0.4296	0.3153	-0.132
Mof_C 	C 	0.1908	0.4657	0.2654	-0.02
Mof_H 	H 	0.1496	0.4277	0.2924	-0.026
Mof_C 	C 	0.3865	0.4501	0.3356	0.359
Mof_O 	O 	0.4124	0.4897	0.4571	-0.483
Mof_O 	O 	0.4156	0.3756	0.2634	-0.523
Mof_H 	H 	0.6658	0.7607	0.0799	0.114
Mof_H 	H 	0.6419	0.8149	0.9403	0.125
Mof_C 	C 	0.1856	0.5611	0.1722	0.025
Mof_H 	H 	0.1414	0.5798	0.1294	-0.066
Mof_Ba	Ba	0.0221	0.19163	0.99227	1.637
Mof_O 	O 	0.1738	0.2837	0.9893	-0.437
Mof_O 	O 	0.9263	0.1639	0.2186	-0.533
Mof_C 	C 	0.866	0.1706	0.1577	0.325
Mof_C 	C 	0.8149	0.9943	0.2829	-0.035
Mof_O 	O 	0.8505	0.2437	0.0585	-0.505
Mof_N 	N 	0.7418	0.1239	0.1447	-0.201
Mof_C 	C 	0.8072	0.092	0.1998	-0.062
Mof_N 	N 	0.7557	0.9296	0.3153	-0.133
Mof_C 	C 	0.6908	0.9657	0.2654	-0.017
Mof_H 	H 	0.6496	0.9277	0.2924	-0.027
Mof_C 	C 	0.8865	0.9501	0.3356	0.359
Mof_O 	O 	0.9124	0.9897	0.4571	-0.482
Mof_O 	O 	0.9156	0.8756	0.2634	-0.522
Mof_H 	H 	0.1658	0.2607	0.0799	0.121
Mof_H 	H 	0.1419	0.3149	0.9403	0.128
Mof_C 	C 	0.6856	0.0611	0.1722	0.02
Mof_H 	H 	0.6414	0.0798	0.1294	-0.066
Mof_Ba	Ba	0.5221	0.30837	0.49227	1.548
Mof_O 	O 	0.6738	0.2163	0.4893	-0.515
Mof_O 	O 	0.4263	0.3361	0.7186	-0.505
Mof_C 	C 	0.366	0.3294	0.6577	0.322
Mof_C 	C 	0.3149	0.5057	0.7829	-0.029
Mof_O 	O 	0.3505	0.2563	0.5585	-0.48
Mof_N 	N 	0.2418	0.3761	0.6447	-0.197
Mof_C 	C 	0.3072	0.408	0.6998	-0.05
Mof_N 	N 	0.2557	0.5704	0.8153	-0.125
Mof_C 	C 	0.1908	0.5343	0.7654	-0.015
Mof_H 	H 	0.1496	0.5723	0.7924	-0.018
Mof_C 	C 	0.3865	0.5499	0.8356	0.361
Mof_O 	O 	0.4124	0.5103	0.9571	-0.456
Mof_O 	O 	0.4156	0.6244	0.7634	-0.526
Mof_H 	H 	0.6658	0.2393	0.5799	0.174
Mof_H 	H 	0.6419	0.1851	0.4403	0.152
Mof_C 	C 	0.1856	0.4389	0.6722	0.032
Mof_H 	H 	0.1414	0.4202	0.6294	-0.059
Mof_Ba	Ba	0.0221	0.80837	0.49227	1.542
Mof_O 	O 	0.1738	0.7163	0.4893	-0.515
Mof_O 	O 	0.9263	0.8361	0.7186	-0.5
Mof_C 	C 	0.866	0.8294	0.6577	0.32
Mof_C 	C 	0.8149	0.0057	0.7829	-0.034
Mof_O 	O 	0.8505	0.7563	0.5585	-0.478
Mof_N 	N 	0.7418	0.8761	0.6447	-0.198
Mof_C 	C 	0.8072	0.908	0.6998	-0.047
Mof_N 	N 	0.7557	0.0704	0.8153	-0.123
Mof_C 	C 	0.6908	0.0343	0.7654	-0.021
Mof_H 	H 	0.6496	0.0723	0.7924	-0.016
Mof_C 	C 	0.8865	0.0499	0.8356	0.362
Mof_O 	O 	0.9124	0.0103	0.9571	-0.454
Mof_O 	O 	0.9156	0.1244	0.7634	-0.523
Mof_H 	H 	0.1658	0.7393	0.5799	0.174
Mof_H 	H 	0.1419	0.6851	0.4403	0.153
Mof_C 	C 	0.6856	0.9389	0.6722	0.036
Mof_H 	H 	0.6414	0.9202	0.6294	-0.06
Mof_Ba	Ba	0.4779	0.30837	0.00773	1.436
Mof_O 	O 	0.3262	0.2163	0.0107	-0.595
Mof_O 	O 	0.5737	0.3361	0.7814	-0.502
Mof_C 	C 	0.634	0.3294	0.8423	0.325
Mof_C 	C 	0.6851	0.5057	0.7171	-0.036
Mof_O 	O 	0.6495	0.2563	0.9415	-0.449
Mof_N 	N 	0.7582	0.3761	0.8553	-0.187
Mof_C 	C 	0.6928	0.408	0.8002	-0.043
Mof_N 	N 	0.7443	0.5704	0.6847	-0.131
Mof_C 	C 	0.8092	0.5343	0.7346	-0.013
Mof_H 	H 	0.8504	0.5723	0.7076	-0.02
Mof_C 	C 	0.6135	0.5499	0.6644	0.367
Mof_O 	O 	0.5876	0.5103	0.5429	-0.485
Mof_O 	O 	0.5844	0.6244	0.7366	-0.529
Mof_H 	H 	0.3342	0.2393	0.9201	0.229
Mof_H 	H 	0.3581	0.1851	0.0597	0.178
Mof_C 	C 	0.8144	0.4389	0.8278	0.035
Mof_H 	H 	0.8586	0.4202	0.8706	-0.047
Mof_Ba	Ba	0.9779	0.80837	0.00773	1.448
Mof_O 	O 	0.8262	0.7163	0.0107	-0.603
Mof_O 	O 	0.0737	0.8361	0.7814	-0.505
Mof_C 	C 	0.134	0.8294	0.8423	0.324
Mof_C 	C 	0.1851	0.0057	0.7171	-0.041
Mof_O 	O 	0.1495	0.7563	0.9415	-0.452
Mof_N 	N 	0.2582	0.8761	0.8553	-0.189
Mof_C 	C 	0.1928	0.908	0.8002	-0.04
Mof_N 	N 	0.2443	0.0704	0.6847	-0.129
Mof_C 	C 	0.3092	0.0343	0.7346	-0.02
Mof_H 	H 	0.3504	0.0723	0.7076	-0.02
Mof_C 	C 	0.1135	0.0499	0.6644	0.368
Mof_O 	O 	0.0876	0.0103	0.5429	-0.489
Mof_O 	O 	0.0844	0.1244	0.7366	-0.532
Mof_H 	H 	0.8342	0.7393	0.9201	0.234
Mof_H 	H 	0.8581	0.6851	0.0597	0.181
Mof_C 	C 	0.3144	0.9389	0.8278	0.039
Mof_H 	H 	0.3586	0.9202	0.8706	-0.051
Mof_Cu	Cu	0.75	0.75	0.5	0.898
Mof_Cu	Cu	0.25	0.75	-0	0.88
Mof_Cu	Cu	0.25	0.25	0.5	0.898
Mof_Cu	Cu	0.75	0.25	-0	0.878
_end
