data_functionalizedCrystal
_audit_creation_method	'EQeq! by Chris Wilmer'
_symmetry_space_group_name_H-M	'P1'
_symmetry_Int_Tables_number	1
_symmetry_cell_setting	triclinic
loop_
_symmetry_equiv_pos_as_xyz
  x,y,z
_cell_length_a	34.471
_cell_length_b	34.471
_cell_length_c	8.463
_cell_angle_alpha	90
_cell_angle_beta	90
_cell_angle_gamma	120
loop_
_atom_site_label
_atom_site_type_symbol
_atom_site_fract_x
_atom_site_fract_y
_atom_site_fract_z
_atom_site_charge
Mof_Ag	Ag	0.1457	0.31847	0.50522	0.441
Mof_O 	O 	0.33385	0.3289	0.7573	-0.212
Mof_N 	N 	0.2049	0.33842	0.655	-0.196
Mof_N 	N 	0.27686	0.19766	0.607	-0.201
Mof_C 	C 	0.21891	0.37387	0.7508	0.066
Mof_H 	H 	0.2026	0.3887	0.7533	-0.021
Mof_C 	C 	0.2557	0.3894	0.8446	-0.136
Mof_H 	H 	0.2643	0.4142	0.9089	0.058
Mof_C 	C 	0.2802	0.3675	0.843	0.016
Mof_H 	H 	0.3057	0.3776	0.9054	0.039
Mof_C 	C 	0.26623	0.33015	0.7465	-0.074
Mof_C 	C 	0.22835	0.31697	0.6541	0.047
Mof_H 	H 	0.2188	0.2922	0.5887	-0.004
Mof_C 	C 	0.29322	0.30746	0.7381	0.177
Mof_C 	C 	0.27085	0.25862	0.7109	-0.081
Mof_C 	C 	0.229	0.2291	0.7719	0.03
Mof_H 	H 	0.2127	0.2394	0.8272	0.01
Mof_C 	C 	0.2123	0.1839	0.7484	-0.139
Mof_H 	H 	0.1845	0.1633	0.7897	0.065
Mof_C 	C 	0.2364	0.1698	0.6651	0.076
Mof_H 	H 	0.2241	0.1392	0.6477	-0.027
Mof_C 	C 	0.29337	0.24115	0.6316	0.061
Mof_H 	H 	0.3218	0.2609	0.5929	0.011
Mof_Ag	Ag	0.81237	0.6518	0.83855	0.44
Mof_O 	O 	0.00052	0.66223	0.09063	-0.213
Mof_N 	N 	0.87157	0.67175	0.98833	-0.197
Mof_N 	N 	0.94353	0.53099	0.94033	-0.202
Mof_C 	C 	0.88558	0.7072	0.08413	0.065
Mof_H 	H 	0.86927	0.72203	0.08663	-0.022
Mof_C 	C 	0.92237	0.72273	0.17793	-0.136
Mof_H 	H 	0.93097	0.74753	0.24223	0.057
Mof_C 	C 	0.94687	0.70083	0.17633	0.016
Mof_H 	H 	0.97237	0.71093	0.23873	0.039
Mof_C 	C 	0.9329	0.66348	0.07983	-0.073
Mof_C 	C 	0.89502	0.6503	0.98743	0.047
Mof_H 	H 	0.88547	0.62553	0.92203	-0.004
Mof_C 	C 	0.95989	0.64079	0.07143	0.177
Mof_C 	C 	0.93752	0.59195	0.04423	-0.08
Mof_C 	C 	0.89567	0.56243	0.10523	0.029
Mof_H 	H 	0.87937	0.57273	0.16053	0.01
Mof_C 	C 	0.87897	0.51723	0.08173	-0.137
Mof_H 	H 	0.85117	0.49663	0.12303	0.064
Mof_C 	C 	0.90307	0.50313	0.99843	0.075
Mof_H 	H 	0.89077	0.47253	0.98103	-0.026
Mof_C 	C 	0.96004	0.57448	0.96493	0.06
Mof_H 	H 	0.98847	0.59423	0.92623	0.011
Mof_Ag	Ag	0.47904	0.98513	0.17189	0.44
Mof_O 	O 	0.66718	0.99557	0.42397	-0.213
Mof_N 	N 	0.53823	0.00509	0.32167	-0.197
Mof_N 	N 	0.61019	0.86433	0.27367	-0.202
Mof_C 	C 	0.55224	0.04054	0.41747	0.065
Mof_H 	H 	0.53593	0.05537	0.41997	-0.022
Mof_C 	C 	0.58903	0.05607	0.51127	-0.136
Mof_H 	H 	0.59763	0.08087	0.57557	0.057
Mof_C 	C 	0.61353	0.03417	0.50967	0.016
Mof_H 	H 	0.63903	0.04427	0.57207	0.039
Mof_C 	C 	0.59956	0.99682	0.41317	-0.074
Mof_C 	C 	0.56168	0.98364	0.32077	0.047
Mof_H 	H 	0.55213	0.95887	0.25537	-0.004
Mof_C 	C 	0.62655	0.97413	0.40477	0.177
Mof_C 	C 	0.60418	0.92529	0.37757	-0.081
Mof_C 	C 	0.56233	0.89577	0.43857	0.03
Mof_H 	H 	0.54603	0.90607	0.49387	0.01
Mof_C 	C 	0.54563	0.85057	0.41507	-0.139
Mof_H 	H 	0.51783	0.82997	0.45637	0.065
Mof_C 	C 	0.56973	0.83647	0.33177	0.076
Mof_H 	H 	0.55743	0.80587	0.31437	-0.027
Mof_C 	C 	0.6267	0.90782	0.29827	0.061
Mof_H 	H 	0.65513	0.92757	0.25957	0.011
Mof_Ag	Ag	0.68153	0.82723	0.50522	0.44
Mof_O 	O 	0.6711	0.00495	0.7573	-0.213
Mof_N 	N 	0.66158	0.86648	0.655	-0.197
Mof_N 	N 	0.80234	0.0792	0.607	-0.202
Mof_C 	C 	0.62613	0.84504	0.7508	0.065
Mof_H 	H 	0.6113	0.8139	0.7533	-0.022
Mof_C 	C 	0.6106	0.8663	0.8446	-0.136
Mof_H 	H 	0.5858	0.8501	0.9089	0.058
Mof_C 	C 	0.6325	0.9127	0.843	0.016
Mof_H 	H 	0.6224	0.9281	0.9054	0.039
Mof_C 	C 	0.66985	0.93608	0.7465	-0.074
Mof_C 	C 	0.68303	0.91138	0.6541	0.047
Mof_H 	H 	0.7078	0.9266	0.5887	-0.004
Mof_C 	C 	0.69254	0.98576	0.7381	0.177
Mof_C 	C 	0.74138	0.01223	0.7109	-0.081
Mof_C 	C 	0.7709	0.9999	0.7719	0.03
Mof_H 	H 	0.7606	0.9733	0.8272	0.01
Mof_C 	C 	0.8161	0.0284	0.7484	-0.139
Mof_H 	H 	0.8367	0.0212	0.7897	0.065
Mof_C 	C 	0.8302	0.0666	0.6651	0.077
Mof_H 	H 	0.8608	0.0849	0.6477	-0.027
Mof_C 	C 	0.75885	0.05222	0.6316	0.061
Mof_H 	H 	0.7391	0.0609	0.5929	0.011
Mof_Ag	Ag	0.3482	0.16057	0.83855	0.44
Mof_O 	O 	0.33777	0.33828	0.09063	-0.213
Mof_N 	N 	0.32825	0.19981	0.98833	-0.197
Mof_N 	N 	0.46901	0.41253	0.94033	-0.202
Mof_C 	C 	0.2928	0.17837	0.08413	0.065
Mof_H 	H 	0.27797	0.14723	0.08663	-0.022
Mof_C 	C 	0.27727	0.19963	0.17793	-0.136
Mof_H 	H 	0.25247	0.18343	0.24223	0.057
Mof_C 	C 	0.29917	0.24603	0.17633	0.016
Mof_H 	H 	0.28907	0.26143	0.23873	0.039
Mof_C 	C 	0.33652	0.26941	0.07983	-0.073
Mof_C 	C 	0.3497	0.24471	0.98743	0.047
Mof_H 	H 	0.37447	0.25993	0.92203	-0.004
Mof_C 	C 	0.35921	0.31909	0.07143	0.177
Mof_C 	C 	0.40805	0.34556	0.04423	-0.08
Mof_C 	C 	0.43757	0.33323	0.10523	0.029
Mof_H 	H 	0.42727	0.30663	0.16053	0.01
Mof_C 	C 	0.48277	0.36173	0.08173	-0.137
Mof_H 	H 	0.50337	0.35453	0.12303	0.064
Mof_C 	C 	0.49687	0.39993	0.99843	0.075
Mof_H 	H 	0.52747	0.41823	0.98103	-0.026
Mof_C 	C 	0.42552	0.38555	0.96493	0.06
Mof_H 	H 	0.40577	0.39423	0.92623	0.011
Mof_Ag	Ag	0.01487	0.4939	0.17189	0.44
Mof_O 	O 	0.00443	0.67162	0.42397	-0.213
Mof_N 	N 	0.99491	0.53315	0.32167	-0.197
Mof_N 	N 	0.13567	0.74587	0.27367	-0.202
Mof_C 	C 	0.95946	0.51171	0.41747	0.065
Mof_H 	H 	0.94463	0.48057	0.41997	-0.022
Mof_C 	C 	0.94393	0.53297	0.51127	-0.136
Mof_H 	H 	0.91913	0.51677	0.57557	0.057
Mof_C 	C 	0.96583	0.57937	0.50967	0.016
Mof_H 	H 	0.95573	0.59477	0.57207	0.039
Mof_C 	C 	0.00318	0.60275	0.41317	-0.074
Mof_C 	C 	0.01636	0.57805	0.32077	0.047
Mof_H 	H 	0.04113	0.59327	0.25537	-0.004
Mof_C 	C 	0.02587	0.65243	0.40477	0.177
Mof_C 	C 	0.07471	0.6789	0.37757	-0.081
Mof_C 	C 	0.10423	0.66657	0.43857	0.03
Mof_H 	H 	0.09393	0.63997	0.49387	0.01
Mof_C 	C 	0.14943	0.69507	0.41507	-0.139
Mof_H 	H 	0.17003	0.68787	0.45637	0.065
Mof_C 	C 	0.16353	0.73327	0.33177	0.076
Mof_H 	H 	0.19413	0.75157	0.31437	-0.027
Mof_C 	C 	0.09218	0.71889	0.29827	0.061
Mof_H 	H 	0.07243	0.72757	0.25957	0.011
Mof_Ag	Ag	0.17277	0.8543	0.50522	0.44
Mof_O 	O 	0.99505	0.66615	0.7573	-0.213
Mof_N 	N 	0.13352	0.7951	0.655	-0.197
Mof_N 	N 	0.9208	0.72314	0.607	-0.202
Mof_C 	C 	0.15496	0.78109	0.7508	0.065
Mof_H 	H 	0.1861	0.7974	0.7533	-0.022
Mof_C 	C 	0.1337	0.7443	0.8446	-0.136
Mof_H 	H 	0.1499	0.7357	0.9089	0.058
Mof_C 	C 	0.0873	0.7198	0.843	0.016
Mof_H 	H 	0.0719	0.6943	0.9054	0.039
Mof_C 	C 	0.06392	0.73377	0.7465	-0.074
Mof_C 	C 	0.08862	0.77165	0.6541	0.047
Mof_H 	H 	0.0734	0.7812	0.5887	-0.004
Mof_C 	C 	0.01424	0.70678	0.7381	0.177
Mof_C 	C 	0.98777	0.72915	0.7109	-0.081
Mof_C 	C 	0.0001	0.771	0.7719	0.029
Mof_H 	H 	0.0267	0.7873	0.8272	0.01
Mof_C 	C 	0.9716	0.7877	0.7484	-0.139
Mof_H 	H 	0.9788	0.8155	0.7897	0.065
Mof_C 	C 	0.9334	0.7636	0.6651	0.076
Mof_H 	H 	0.9151	0.7759	0.6477	-0.027
Mof_C 	C 	0.94778	0.70663	0.6316	0.061
Mof_H 	H 	0.9391	0.6782	0.5929	0.011
Mof_Ag	Ag	0.83943	0.18763	0.83855	0.44
Mof_O 	O 	0.66172	0.99948	0.09063	-0.213
Mof_N 	N 	0.80019	0.12843	0.98833	-0.197
Mof_N 	N 	0.58747	0.05647	0.94033	-0.202
Mof_C 	C 	0.82163	0.11442	0.08413	0.065
Mof_H 	H 	0.85277	0.13073	0.08663	-0.022
Mof_C 	C 	0.80037	0.07763	0.17793	-0.136
Mof_H 	H 	0.81657	0.06903	0.24223	0.057
Mof_C 	C 	0.75397	0.05313	0.17633	0.016
Mof_H 	H 	0.73857	0.02763	0.23873	0.039
Mof_C 	C 	0.73059	0.0671	0.07983	-0.073
Mof_C 	C 	0.75529	0.10498	0.98743	0.047
Mof_H 	H 	0.74007	0.11453	0.92203	-0.004
Mof_C 	C 	0.68091	0.04011	0.07143	0.177
Mof_C 	C 	0.65444	0.06248	0.04423	-0.08
Mof_C 	C 	0.66677	0.10433	0.10523	0.029
Mof_H 	H 	0.69337	0.12063	0.16053	0.01
Mof_C 	C 	0.63827	0.12103	0.08173	-0.137
Mof_H 	H 	0.64547	0.14883	0.12303	0.064
Mof_C 	C 	0.60007	0.09693	0.99843	0.075
Mof_H 	H 	0.58177	0.10923	0.98103	-0.026
Mof_C 	C 	0.61445	0.03996	0.96493	0.06
Mof_H 	H 	0.60577	0.01153	0.92623	0.011
Mof_Ag	Ag	0.5061	0.52096	0.17189	0.44
Mof_O 	O 	0.32838	0.33282	0.42397	-0.213
Mof_N 	N 	0.46685	0.46177	0.32167	-0.197
Mof_N 	N 	0.25413	0.38981	0.27367	-0.202
Mof_C 	C 	0.48829	0.44776	0.41747	0.065
Mof_H 	H 	0.51943	0.46407	0.41997	-0.022
Mof_C 	C 	0.46703	0.41097	0.51127	-0.136
Mof_H 	H 	0.48323	0.40237	0.57557	0.057
Mof_C 	C 	0.42063	0.38647	0.50967	0.016
Mof_H 	H 	0.40523	0.36097	0.57207	0.039
Mof_C 	C 	0.39725	0.40044	0.41317	-0.074
Mof_C 	C 	0.42195	0.43832	0.32077	0.047
Mof_H 	H 	0.40673	0.44787	0.25537	-0.004
Mof_C 	C 	0.34757	0.37345	0.40477	0.177
Mof_C 	C 	0.3211	0.39582	0.37757	-0.081
Mof_C 	C 	0.33343	0.43767	0.43857	0.03
Mof_H 	H 	0.36003	0.45397	0.49387	0.01
Mof_C 	C 	0.30493	0.45437	0.41507	-0.139
Mof_H 	H 	0.31213	0.48217	0.45637	0.065
Mof_C 	C 	0.26673	0.43027	0.33177	0.076
Mof_H 	H 	0.24843	0.44257	0.31437	-0.027
Mof_C 	C 	0.28111	0.3733	0.29827	0.061
Mof_H 	H 	0.27243	0.34487	0.25957	0.011
Mof_Ag	Ag	0.8543	0.68153	0.49478	0.44
Mof_O 	O 	0.66615	0.6711	0.2427	-0.213
Mof_N 	N 	0.7951	0.66158	0.345	-0.197
Mof_N 	N 	0.72314	0.80234	0.393	-0.202
Mof_C 	C 	0.78109	0.62613	0.2492	0.065
Mof_H 	H 	0.7974	0.6113	0.2467	-0.022
Mof_C 	C 	0.7443	0.6106	0.1554	-0.136
Mof_H 	H 	0.7357	0.5858	0.0911	0.058
Mof_C 	C 	0.7198	0.6325	0.157	0.016
Mof_H 	H 	0.6943	0.6224	0.0946	0.039
Mof_C 	C 	0.73377	0.66985	0.2535	-0.074
Mof_C 	C 	0.77165	0.68303	0.3459	0.047
Mof_H 	H 	0.7812	0.7078	0.4113	-0.004
Mof_C 	C 	0.70678	0.69254	0.2619	0.177
Mof_C 	C 	0.72915	0.74138	0.2891	-0.081
Mof_C 	C 	0.771	0.7709	0.2281	0.03
Mof_H 	H 	0.7873	0.7606	0.1728	0.01
Mof_C 	C 	0.7877	0.8161	0.2516	-0.139
Mof_H 	H 	0.8155	0.8367	0.2103	0.065
Mof_C 	C 	0.7636	0.8302	0.3349	0.076
Mof_H 	H 	0.7759	0.8608	0.3523	-0.027
Mof_C 	C 	0.70663	0.75885	0.3684	0.061
Mof_H 	H 	0.6782	0.7391	0.4071	0.011
Mof_Ag	Ag	0.52096	0.01487	0.82811	0.44
Mof_O 	O 	0.33282	0.00443	0.57603	-0.213
Mof_N 	N 	0.46177	0.99491	0.67833	-0.197
Mof_N 	N 	0.38981	0.13567	0.72633	-0.202
Mof_C 	C 	0.44776	0.95946	0.58253	0.065
Mof_H 	H 	0.46407	0.94463	0.58003	-0.022
Mof_C 	C 	0.41097	0.94393	0.48873	-0.136
Mof_H 	H 	0.40237	0.91913	0.42443	0.057
Mof_C 	C 	0.38647	0.96583	0.49033	0.016
Mof_H 	H 	0.36097	0.95573	0.42793	0.039
Mof_C 	C 	0.40044	0.00318	0.58683	-0.074
Mof_C 	C 	0.43832	0.01636	0.67923	0.047
Mof_H 	H 	0.44787	0.04113	0.74463	-0.004
Mof_C 	C 	0.37345	0.02587	0.59523	0.177
Mof_C 	C 	0.39582	0.07471	0.62243	-0.081
Mof_C 	C 	0.43767	0.10423	0.56143	0.03
Mof_H 	H 	0.45397	0.09393	0.50613	0.01
Mof_C 	C 	0.45437	0.14943	0.58493	-0.139
Mof_H 	H 	0.48217	0.17003	0.54363	0.065
Mof_C 	C 	0.43027	0.16353	0.66823	0.076
Mof_H 	H 	0.44257	0.19413	0.68563	-0.027
Mof_C 	C 	0.3733	0.09218	0.70173	0.061
Mof_H 	H 	0.34487	0.07243	0.74043	0.011
Mof_Ag	Ag	0.18763	0.3482	0.16145	0.44
Mof_O 	O 	0.99948	0.33777	0.90937	-0.213
Mof_N 	N 	0.12843	0.32825	0.01167	-0.197
Mof_N 	N 	0.05647	0.46901	0.05967	-0.202
Mof_C 	C 	0.11442	0.2928	0.91587	0.065
Mof_H 	H 	0.13073	0.27797	0.91337	-0.022
Mof_C 	C 	0.07763	0.27727	0.82207	-0.136
Mof_H 	H 	0.06903	0.25247	0.75777	0.057
Mof_C 	C 	0.05313	0.29917	0.82367	0.016
Mof_H 	H 	0.02763	0.28907	0.76127	0.039
Mof_C 	C 	0.0671	0.33652	0.92017	-0.073
Mof_C 	C 	0.10498	0.3497	0.01257	0.047
Mof_H 	H 	0.11453	0.37447	0.07797	-0.004
Mof_C 	C 	0.04011	0.35921	0.92857	0.177
Mof_C 	C 	0.06248	0.40805	0.95577	-0.08
Mof_C 	C 	0.10433	0.43757	0.89477	0.029
Mof_H 	H 	0.12063	0.42727	0.83947	0.01
Mof_C 	C 	0.12103	0.48277	0.91827	-0.137
Mof_H 	H 	0.14883	0.50337	0.87697	0.064
Mof_C 	C 	0.09693	0.49687	0.00157	0.075
Mof_H 	H 	0.10923	0.52747	0.01897	-0.026
Mof_C 	C 	0.03996	0.42552	0.03507	0.06
Mof_H 	H 	0.01153	0.40577	0.07377	0.011
Mof_Ag	Ag	0.31847	0.17277	0.49478	0.44
Mof_O 	O 	0.3289	0.99505	0.2427	-0.213
Mof_N 	N 	0.33842	0.13352	0.345	-0.197
Mof_N 	N 	0.19766	0.9208	0.393	-0.202
Mof_C 	C 	0.37387	0.15496	0.2492	0.065
Mof_H 	H 	0.3887	0.1861	0.2467	-0.022
Mof_C 	C 	0.3894	0.1337	0.1554	-0.136
Mof_H 	H 	0.4142	0.1499	0.0911	0.058
Mof_C 	C 	0.3675	0.0873	0.157	0.016
Mof_H 	H 	0.3776	0.0719	0.0946	0.039
Mof_C 	C 	0.33015	0.06392	0.2535	-0.074
Mof_C 	C 	0.31697	0.08862	0.3459	0.047
Mof_H 	H 	0.2922	0.0734	0.4113	-0.004
Mof_C 	C 	0.30746	0.01424	0.2619	0.177
Mof_C 	C 	0.25862	0.98777	0.2891	-0.081
Mof_C 	C 	0.2291	0.0001	0.2281	0.03
Mof_H 	H 	0.2394	0.0267	0.1728	0.01
Mof_C 	C 	0.1839	0.9716	0.2516	-0.139
Mof_H 	H 	0.1633	0.9788	0.2103	0.065
Mof_C 	C 	0.1698	0.9334	0.3349	0.077
Mof_H 	H 	0.1392	0.9151	0.3523	-0.027
Mof_C 	C 	0.24115	0.94778	0.3684	0.061
Mof_H 	H 	0.2609	0.9391	0.4071	0.011
Mof_Ag	Ag	0.98513	0.5061	0.82811	0.44
Mof_O 	O 	0.99557	0.32838	0.57603	-0.213
Mof_N 	N 	0.00509	0.46685	0.67833	-0.197
Mof_N 	N 	0.86433	0.25413	0.72633	-0.202
Mof_C 	C 	0.04054	0.48829	0.58253	0.065
Mof_H 	H 	0.05537	0.51943	0.58003	-0.022
Mof_C 	C 	0.05607	0.46703	0.48873	-0.136
Mof_H 	H 	0.08087	0.48323	0.42443	0.057
Mof_C 	C 	0.03417	0.42063	0.49033	0.016
Mof_H 	H 	0.04427	0.40523	0.42793	0.039
Mof_C 	C 	0.99682	0.39725	0.58683	-0.074
Mof_C 	C 	0.98364	0.42195	0.67923	0.047
Mof_H 	H 	0.95887	0.40673	0.74463	-0.004
Mof_C 	C 	0.97413	0.34757	0.59523	0.177
Mof_C 	C 	0.92529	0.3211	0.62243	-0.081
Mof_C 	C 	0.89577	0.33343	0.56143	0.03
Mof_H 	H 	0.90607	0.36003	0.50613	0.01
Mof_C 	C 	0.85057	0.30493	0.58493	-0.139
Mof_H 	H 	0.82997	0.31213	0.54363	0.065
Mof_C 	C 	0.83647	0.26673	0.66823	0.076
Mof_H 	H 	0.80587	0.24843	0.68563	-0.027
Mof_C 	C 	0.90782	0.28111	0.70173	0.061
Mof_H 	H 	0.92757	0.27243	0.74043	0.011
Mof_Ag	Ag	0.6518	0.83943	0.16145	0.44
Mof_O 	O 	0.66223	0.66172	0.90937	-0.213
Mof_N 	N 	0.67175	0.80019	0.01167	-0.197
Mof_N 	N 	0.53099	0.58747	0.05967	-0.202
Mof_C 	C 	0.7072	0.82163	0.91587	0.065
Mof_H 	H 	0.72203	0.85277	0.91337	-0.022
Mof_C 	C 	0.72273	0.80037	0.82207	-0.136
Mof_H 	H 	0.74753	0.81657	0.75777	0.057
Mof_C 	C 	0.70083	0.75397	0.82367	0.016
Mof_H 	H 	0.71093	0.73857	0.76127	0.039
Mof_C 	C 	0.66348	0.73059	0.92017	-0.073
Mof_C 	C 	0.6503	0.75529	0.01257	0.047
Mof_H 	H 	0.62553	0.74007	0.07797	-0.004
Mof_C 	C 	0.64079	0.68091	0.92857	0.177
Mof_C 	C 	0.59195	0.65444	0.95577	-0.08
Mof_C 	C 	0.56243	0.66677	0.89477	0.029
Mof_H 	H 	0.57273	0.69337	0.83947	0.01
Mof_C 	C 	0.51723	0.63827	0.91827	-0.137
Mof_H 	H 	0.49663	0.64547	0.87697	0.064
Mof_C 	C 	0.50313	0.60007	0.00157	0.075
Mof_H 	H 	0.47253	0.58177	0.01897	-0.026
Mof_C 	C 	0.57448	0.61445	0.03507	0.06
Mof_H 	H 	0.59423	0.60577	0.07377	0.011
Mof_Ag	Ag	0.82723	0.1457	0.49478	0.44
Mof_O 	O 	0.00495	0.33385	0.2427	-0.213
Mof_N 	N 	0.86648	0.2049	0.345	-0.197
Mof_N 	N 	0.0792	0.27686	0.393	-0.202
Mof_C 	C 	0.84504	0.21891	0.2492	0.065
Mof_H 	H 	0.8139	0.2026	0.2467	-0.022
Mof_C 	C 	0.8663	0.2557	0.1554	-0.136
Mof_H 	H 	0.8501	0.2643	0.0911	0.058
Mof_C 	C 	0.9127	0.2802	0.157	0.016
Mof_H 	H 	0.9281	0.3057	0.0946	0.039
Mof_C 	C 	0.93608	0.26623	0.2535	-0.074
Mof_C 	C 	0.91138	0.22835	0.3459	0.047
Mof_H 	H 	0.9266	0.2188	0.4113	-0.004
Mof_C 	C 	0.98576	0.29322	0.2619	0.177
Mof_C 	C 	0.01223	0.27085	0.2891	-0.081
Mof_C 	C 	0.9999	0.229	0.2281	0.029
Mof_H 	H 	0.9733	0.2127	0.1728	0.01
Mof_C 	C 	0.0284	0.2123	0.2516	-0.139
Mof_H 	H 	0.0212	0.1845	0.2103	0.065
Mof_C 	C 	0.0666	0.2364	0.3349	0.076
Mof_H 	H 	0.0849	0.2241	0.3523	-0.027
Mof_C 	C 	0.05222	0.29337	0.3684	0.061
Mof_H 	H 	0.0609	0.3218	0.4071	0.011
Mof_Ag	Ag	0.4939	0.47904	0.82811	0.44
Mof_O 	O 	0.67162	0.66718	0.57603	-0.213
Mof_N 	N 	0.53315	0.53823	0.67833	-0.197
Mof_N 	N 	0.74587	0.61019	0.72633	-0.202
Mof_C 	C 	0.51171	0.55224	0.58253	0.065
Mof_H 	H 	0.48057	0.53593	0.58003	-0.022
Mof_C 	C 	0.53297	0.58903	0.48873	-0.136
Mof_H 	H 	0.51677	0.59763	0.42443	0.057
Mof_C 	C 	0.57937	0.61353	0.49033	0.016
Mof_H 	H 	0.59477	0.63903	0.42793	0.039
Mof_C 	C 	0.60275	0.59956	0.58683	-0.074
Mof_C 	C 	0.57805	0.56168	0.67923	0.047
Mof_H 	H 	0.59327	0.55213	0.74463	-0.004
Mof_C 	C 	0.65243	0.62655	0.59523	0.177
Mof_C 	C 	0.6789	0.60418	0.62243	-0.081
Mof_C 	C 	0.66657	0.56233	0.56143	0.03
Mof_H 	H 	0.63997	0.54603	0.50613	0.01
Mof_C 	C 	0.69507	0.54563	0.58493	-0.139
Mof_H 	H 	0.68787	0.51783	0.54363	0.065
Mof_C 	C 	0.73327	0.56973	0.66823	0.076
Mof_H 	H 	0.75157	0.55743	0.68563	-0.027
Mof_C 	C 	0.71889	0.6267	0.70173	0.061
Mof_H 	H 	0.72757	0.65513	0.74043	0.011
Mof_Ag	Ag	0.16057	0.81237	0.16145	0.44
Mof_O 	O 	0.33828	0.00052	0.90937	-0.213
Mof_N 	N 	0.19981	0.87157	0.01167	-0.197
Mof_N 	N 	0.41253	0.94353	0.05967	-0.202
Mof_C 	C 	0.17837	0.88558	0.91587	0.065
Mof_H 	H 	0.14723	0.86927	0.91337	-0.022
Mof_C 	C 	0.19963	0.92237	0.82207	-0.136
Mof_H 	H 	0.18343	0.93097	0.75777	0.057
Mof_C 	C 	0.24603	0.94687	0.82367	0.016
Mof_H 	H 	0.26143	0.97237	0.76127	0.039
Mof_C 	C 	0.26941	0.9329	0.92017	-0.073
Mof_C 	C 	0.24471	0.89502	0.01257	0.047
Mof_H 	H 	0.25993	0.88547	0.07797	-0.004
Mof_C 	C 	0.31909	0.95989	0.92857	0.177
Mof_C 	C 	0.34556	0.93752	0.95577	-0.08
Mof_C 	C 	0.33323	0.89567	0.89477	0.029
Mof_H 	H 	0.30663	0.87937	0.83947	0.01
Mof_C 	C 	0.36173	0.87897	0.91827	-0.137
Mof_H 	H 	0.35453	0.85117	0.87697	0.064
Mof_C 	C 	0.39993	0.90307	0.00157	0.075
Mof_H 	H 	0.41823	0.89077	0.01897	-0.026
Mof_C 	C 	0.38555	0.96004	0.03507	0.06
Mof_H 	H 	0.39423	0.98847	0.07377	0.011
_end
