data_functionalizedCrystal
_audit_creation_method	'EQeq! by Chris Wilmer'
_symmetry_space_group_name_H-M	'P1'
_symmetry_Int_Tables_number	1
_symmetry_cell_setting	triclinic
loop_
_symmetry_equiv_pos_as_xyz
  x,y,z
_cell_length_a	13.3819
_cell_length_b	13.3819
_cell_length_c	14.933
_cell_angle_alpha	90
_cell_angle_beta	90
_cell_angle_gamma	120
loop_
_atom_site_label
_atom_site_type_symbol
_atom_site_fract_x
_atom_site_fract_y
_atom_site_fract_z
_atom_site_charge
Mof_La	La	0.33333	0.66666	0.67018	2.332
Mof_La	La	0.66667	0.33334	0.82982	2.335
Mof_La	La	0.66667	0.33334	0.32982	2.325
Mof_La	La	0.33333	0.66666	0.17018	2.323
Mof_Cu	Cu	0.5	0.5	0.5	0.929
Mof_Cu	Cu	-1.92394e-17	0.5	0.5	0.9
Mof_Cu	Cu	0.5	0	0.5	0.901
Mof_Cu	Cu	-0	0.5	-0	0.872
Mof_Cu	Cu	0.5	0.5	-0	0.901
Mof_Cu	Cu	0.5	0	-0	0.873
Mof_H 	H 	0.1996	0.346	0.4638	0.125
Mof_H 	H 	0.2417	0.2836	0.5426	0.125
Mof_H 	H 	0.2722	0.4593	0.3798	0.159
Mof_H 	H 	0.3295	0.3948	0.3158	0.149
Mof_H 	H 	0.3531	0.327	0.4246	0.096
Mof_H 	H 	0.1464	0.8004	0.4638	0.139
Mof_H 	H 	0.0419	0.7583	0.5426	0.119
Mof_H 	H 	0.1871	0.7278	0.3798	0.159
Mof_H 	H 	0.0653	0.6705	0.3158	0.13
Mof_H 	H 	0.9739	0.6469	0.4246	0.165
Mof_H 	H 	0.654	0.8536	0.4638	0.153
Mof_H 	H 	0.7164	0.9581	0.5426	0.175
Mof_H 	H 	0.5407	0.8129	0.3798	0.171
Mof_H 	H 	0.6052	0.9347	0.3158	0.185
Mof_H 	H 	0.673	0.0261	0.4246	0.041
Mof_H 	H 	0.8536	0.654	0.0362	0.054
Mof_H 	H 	0.9581	0.7164	0.9574	0.123
Mof_H 	H 	0.8129	0.5407	0.1202	0.161
Mof_H 	H 	0.9347	0.6052	0.1842	0.181
Mof_H 	H 	0.0261	0.673	0.0754	0.039
Mof_H 	H 	0.346	0.1996	0.0362	0.02
Mof_H 	H 	0.2836	0.2417	0.9574	0.071
Mof_H 	H 	0.4593	0.2722	0.1202	0.149
Mof_H 	H 	0.3948	0.3295	0.1842	0.144
Mof_H 	H 	0.327	0.3531	0.0754	0.096
Mof_H 	H 	0.8004	0.1464	0.0362	0.037
Mof_H 	H 	0.7583	0.0419	0.9574	0.067
Mof_H 	H 	0.7278	0.1871	0.1202	0.149
Mof_H 	H 	0.6705	0.0653	0.1842	0.126
Mof_H 	H 	0.6469	0.9739	0.0754	0.164
Mof_H 	H 	0.8004	0.654	0.5362	0.154
Mof_H 	H 	0.7583	0.7164	0.4574	0.155
Mof_H 	H 	0.7278	0.5407	0.6202	0.168
Mof_H 	H 	0.6705	0.6052	0.6842	0.162
Mof_H 	H 	0.6469	0.673	0.5754	0.104
Mof_H 	H 	0.8536	0.1996	0.5362	0.14
Mof_H 	H 	0.9581	0.2417	0.4574	0.161
Mof_H 	H 	0.8129	0.2722	0.6202	0.167
Mof_H 	H 	0.9347	0.3295	0.6842	0.179
Mof_H 	H 	0.0261	0.3531	0.5754	0.036
Mof_H 	H 	0.346	0.1464	0.5362	0.125
Mof_H 	H 	0.2836	0.0419	0.4574	0.105
Mof_H 	H 	0.4593	0.1871	0.6202	0.156
Mof_H 	H 	0.3948	0.0653	0.6842	0.125
Mof_H 	H 	0.327	0.9739	0.5754	0.159
Mof_H 	H 	0.1464	0.346	0.9638	0.229
Mof_H 	H 	0.0419	0.2836	0.0426	0.159
Mof_H 	H 	0.1871	0.4593	0.8798	0.165
Mof_H 	H 	0.0653	0.3948	0.8158	0.128
Mof_H 	H 	0.9739	0.327	0.9246	0.16
Mof_H 	H 	0.654	0.8004	0.9638	0.253
Mof_H 	H 	0.7164	0.7583	0.0426	0.207
Mof_H 	H 	0.5407	0.7278	0.8798	0.178
Mof_H 	H 	0.6052	0.6705	0.8158	0.165
Mof_H 	H 	0.673	0.6469	0.9246	0.105
Mof_H 	H 	0.1996	0.8536	0.9638	0.238
Mof_H 	H 	0.2417	0.9581	0.0426	0.212
Mof_H 	H 	0.2722	0.8129	0.8798	0.176
Mof_H 	H 	0.3295	0.9347	0.8158	0.181
Mof_H 	H 	0.3531	0.0261	0.9246	0.041
Mof_C 	C 	0.2701	0.45	0.5671	0.396
Mof_C 	C 	0.2535	0.3493	0.5082	-0.319
Mof_C 	C 	0.3328	0.4444	0.3633	-0.411
Mof_C 	C 	0.4386	0.56	0.3437	0.502
Mof_C 	C 	0.1799	0.7299	0.5671	0.391
Mof_C 	C 	0.0958	0.7465	0.5082	-0.316
Mof_C 	C 	0.1116	0.6672	0.3633	-0.395
Mof_C 	C 	0.1214	0.5614	0.3437	0.493
Mof_C 	C 	0.55	0.8201	0.5671	0.411
Mof_C 	C 	0.6507	0.9042	0.5082	-0.344
Mof_C 	C 	0.5556	0.8884	0.3633	-0.43
Mof_C 	C 	0.44	0.8786	0.3437	0.513
Mof_C 	C 	0.8201	0.55	0.9329	0.366
Mof_C 	C 	0.9042	0.6507	0.9918	-0.14
Mof_C 	C 	0.8884	0.5556	0.1367	-0.417
Mof_C 	C 	0.8786	0.44	0.1563	0.506
Mof_C 	C 	0.45	0.2701	0.9329	0.348
Mof_C 	C 	0.3493	0.2535	0.9918	-0.103
Mof_C 	C 	0.4444	0.3328	0.1367	-0.397
Mof_C 	C 	0.56	0.4386	0.1563	0.494
Mof_C 	C 	0.7299	0.1799	0.9329	0.344
Mof_C 	C 	0.7465	0.0958	0.9918	-0.106
Mof_C 	C 	0.6672	0.1116	0.1367	-0.382
Mof_C 	C 	0.5614	0.1214	0.1563	0.486
Mof_C 	C 	0.7299	0.55	0.4329	0.403
Mof_C 	C 	0.7465	0.6507	0.4918	-0.336
Mof_C 	C 	0.6672	0.5556	0.6367	-0.417
Mof_C 	C 	0.5614	0.44	0.6563	0.505
Mof_C 	C 	0.8201	0.2701	0.4329	0.408
Mof_C 	C 	0.9042	0.2535	0.4918	-0.336
Mof_C 	C 	0.8884	0.3328	0.6367	-0.428
Mof_C 	C 	0.8786	0.4386	0.6563	0.512
Mof_C 	C 	0.45	0.1799	0.4329	0.387
Mof_C 	C 	0.3493	0.0958	0.4918	-0.308
Mof_C 	C 	0.4444	0.1116	0.6367	-0.394
Mof_C 	C 	0.56	0.1214	0.6563	0.493
Mof_C 	C 	0.1799	0.45	0.0671	0.435
Mof_C 	C 	0.0958	0.3493	0.0082	-0.52
Mof_C 	C 	0.1116	0.4444	0.8633	-0.403
Mof_C 	C 	0.1214	0.56	0.8437	0.499
Mof_C 	C 	0.55	0.7299	0.0671	0.449
Mof_C 	C 	0.6507	0.7465	0.0082	-0.539
Mof_C 	C 	0.5556	0.6672	0.8633	-0.426
Mof_C 	C 	0.44	0.5614	0.8437	0.511
Mof_C 	C 	0.2701	0.8201	0.0671	0.453
Mof_C 	C 	0.2535	0.9042	0.0082	-0.537
Mof_C 	C 	0.3328	0.8884	0.8633	-0.436
Mof_C 	C 	0.4386	0.8786	0.8437	0.518
Mof_N 	N 	0.3489	0.3876	0.443	-0.163
Mof_N 	N 	0.0387	0.6511	0.443	-0.219
Mof_N 	N 	0.6124	0.9613	0.443	-0.099
Mof_N 	N 	0.9613	0.6124	0.057	-0.143
Mof_N 	N 	0.3876	0.3489	0.057	-0.212
Mof_N 	N 	0.6511	0.0387	0.057	-0.266
Mof_N 	N 	0.6511	0.6124	0.557	-0.16
Mof_N 	N 	0.9613	0.3489	0.557	-0.098
Mof_N 	N 	0.3876	0.0387	0.557	-0.218
Mof_N 	N 	0.0387	0.3876	0.943	-0.163
Mof_N 	N 	0.6124	0.6511	0.943	-0.107
Mof_N 	N 	0.3489	0.9613	0.943	-0.05
Mof_O 	O 	0.3623	0.5445	0.5578	-0.536
Mof_O 	O 	0.1945	0.4344	0.623	-0.423
Mof_O 	O 	0.5225	0.5983	0.3964	-0.442
Mof_O 	O 	0.4372	0.6129	0.2759	-0.541
Mof_O 	O 	0.1822	0.6377	0.5578	-0.539
Mof_O 	O 	0.2399	0.8055	0.623	-0.409
Mof_O 	O 	0.0758	0.4775	0.3964	-0.465
Mof_O 	O 	0.1757	0.5628	0.2759	-0.551
Mof_O 	O 	0.4555	0.8178	0.5578	-0.527
Mof_O 	O 	0.5656	0.7601	0.623	-0.41
Mof_O 	O 	0.4017	0.9242	0.3964	-0.416
Mof_O 	O 	0.3871	0.8243	0.2759	-0.537
Mof_O 	O 	0.8178	0.4555	0.9422	-0.493
Mof_O 	O 	0.7601	0.5656	0.877	-0.389
Mof_O 	O 	0.9242	0.4017	0.1036	-0.422
Mof_O 	O 	0.8243	0.3871	0.2241	-0.537
Mof_O 	O 	0.5445	0.3623	0.9422	-0.5
Mof_O 	O 	0.4344	0.1945	0.877	-0.401
Mof_O 	O 	0.5983	0.5225	0.1036	-0.449
Mof_O 	O 	0.6129	0.4372	0.2241	-0.542
Mof_O 	O 	0.6377	0.1822	0.9422	-0.503
Mof_O 	O 	0.8055	0.2399	0.877	-0.388
Mof_O 	O 	0.4775	0.0758	0.1036	-0.472
Mof_O 	O 	0.5628	0.1757	0.2241	-0.551
Mof_O 	O 	0.6377	0.4555	0.4422	-0.536
Mof_O 	O 	0.8055	0.5656	0.377	-0.405
Mof_O 	O 	0.4775	0.4017	0.6036	-0.447
Mof_O 	O 	0.5628	0.3871	0.7241	-0.548
Mof_O 	O 	0.8178	0.3623	0.4422	-0.526
Mof_O 	O 	0.7601	0.1945	0.377	-0.419
Mof_O 	O 	0.9242	0.5225	0.6036	-0.413
Mof_O 	O 	0.8243	0.4372	0.7241	-0.538
Mof_O 	O 	0.5445	0.1822	0.4422	-0.538
Mof_O 	O 	0.4344	0.2399	0.377	-0.419
Mof_O 	O 	0.5983	0.0758	0.6036	-0.462
Mof_O 	O 	0.6129	0.1757	0.7241	-0.551
Mof_O 	O 	0.1822	0.5445	0.0578	-0.568
Mof_O 	O 	0.2399	0.4344	0.123	-0.44
Mof_O 	O 	0.0758	0.5983	0.8964	-0.444
Mof_O 	O 	0.1757	0.6129	0.7759	-0.551
Mof_O 	O 	0.4555	0.6377	0.0578	-0.564
Mof_O 	O 	0.5656	0.8055	0.123	-0.424
Mof_O 	O 	0.4017	0.4775	0.8964	-0.429
Mof_O 	O 	0.3871	0.5628	0.7759	-0.547
Mof_O 	O 	0.3623	0.8178	0.0578	-0.555
Mof_O 	O 	0.1945	0.7601	0.123	-0.439
Mof_O 	O 	0.5225	0.9242	0.8964	-0.398
Mof_O 	O 	0.4372	0.8243	0.7759	-0.537
_end
