data_functionalizedCrystal
_audit_creation_method	'EQeq! by Chris Wilmer'
_symmetry_space_group_name_H-M	'P1'
_symmetry_Int_Tables_number	1
_symmetry_cell_setting	triclinic
loop_
_symmetry_equiv_pos_as_xyz
  x,y,z
_cell_length_a	21.85
_cell_length_b	7.3551
_cell_length_c	14.223
_cell_angle_alpha	90
_cell_angle_beta	90
_cell_angle_gamma	90
loop_
_atom_site_label
_atom_site_type_symbol
_atom_site_fract_x
_atom_site_fract_y
_atom_site_fract_z
_atom_site_charge
Mof_N 	N 	0.4353	0.3448	0.5606	-0.192
Mof_C 	C 	0.3883	0.6019	0.3897	0.104
Mof_H 	H 	0.378	0.4814	0.3777	-0.005
Mof_C 	C 	0.2542	0.855	0.3319	-0.063
Mof_C 	C 	0.2999	0.854	0.2232	-0.063
Mof_H 	H 	0.2569	0.9203	0.3901	0.064
Mof_H 	H 	0.3344	0.9258	0.2043	0.061
Mof_N 	N 	0.9353	0.8448	0.0606	-0.198
Mof_C 	C 	0.8883	0.1019	0.8897	0.036
Mof_H 	H 	0.878	0.9814	0.8777	0.071
Mof_C 	C 	0.7542	0.355	0.8319	-0.062
Mof_C 	C 	0.7999	0.354	0.7232	-0.061
Mof_H 	H 	0.7569	0.4203	0.8901	0.072
Mof_H 	H 	0.8344	0.4258	0.7043	0.065
Mof_N 	N 	0.5647	0.1552	0.5606	-0.184
Mof_C 	C 	0.6117	0.8981	0.3897	0.186
Mof_H 	H 	0.622	0.0186	0.3777	-0.063
Mof_C 	C 	0.7458	0.645	0.3319	-0.067
Mof_C 	C 	0.7001	0.646	0.2232	-0.065
Mof_H 	H 	0.7431	0.5797	0.3901	0.055
Mof_H 	H 	0.6656	0.5742	0.2043	0.049
Mof_N 	N 	0.0647	0.6552	0.0606	-0.209
Mof_C 	C 	0.1117	0.3981	0.8897	0.111
Mof_H 	H 	0.122	0.5186	0.8777	0.012
Mof_C 	C 	0.2458	0.145	0.8319	-0.067
Mof_C 	C 	0.2001	0.146	0.7232	-0.063
Mof_H 	H 	0.2431	0.0797	0.8901	0.062
Mof_H 	H 	0.1656	0.0742	0.7043	0.047
Mof_N 	N 	0.5647	0.8448	0.4394	-0.197
Mof_C 	C 	0.6117	0.1019	0.6103	0.022
Mof_H 	H 	0.622	0.9814	0.6223	0.06
Mof_C 	C 	0.7458	0.355	0.6681	-0.055
Mof_C 	C 	0.7001	0.354	0.7768	-0.052
Mof_H 	H 	0.7431	0.4203	0.6099	0.053
Mof_H 	H 	0.6656	0.4258	0.7957	0.067
Mof_N 	N 	0.0647	0.3448	0.9394	-0.169
Mof_C 	C 	0.1117	0.6019	0.1103	0.092
Mof_H 	H 	0.122	0.4814	0.1223	-0.012
Mof_C 	C 	0.2458	0.855	0.1681	-0.057
Mof_C 	C 	0.2001	0.854	0.2768	-0.055
Mof_H 	H 	0.2431	0.9203	0.1099	0.045
Mof_H 	H 	0.1656	0.9258	0.2957	0.066
Mof_N 	N 	0.4353	0.6552	0.4394	-0.193
Mof_C 	C 	0.3883	0.3981	0.6103	0.104
Mof_H 	H 	0.378	0.5186	0.6223	0.002
Mof_C 	C 	0.2542	0.145	0.6681	-0.063
Mof_C 	C 	0.2999	0.146	0.7768	-0.056
Mof_H 	H 	0.2569	0.0797	0.6099	0.041
Mof_H 	H 	0.3344	0.0742	0.7957	0.056
Mof_N 	N 	0.9353	0.1552	0.9394	-0.149
Mof_C 	C 	0.8883	0.8981	0.1103	0.18
Mof_H 	H 	0.878	0.0186	0.1223	-0.065
Mof_C 	C 	0.7542	0.645	0.1681	-0.064
Mof_C 	C 	0.7999	0.646	0.2768	-0.06
Mof_H 	H 	0.7569	0.5797	0.1099	0.035
Mof_H 	H 	0.8344	0.5742	0.2957	0.061
Mof_N 	N 	0.5647	0.6552	0.4394	-0.193
Mof_C 	C 	0.6117	0.3981	0.6103	0.104
Mof_H 	H 	0.622	0.5186	0.6223	0.003
Mof_C 	C 	0.7458	0.145	0.6681	-0.061
Mof_C 	C 	0.7001	0.146	0.7768	-0.055
Mof_H 	H 	0.7431	0.0797	0.6099	0.042
Mof_H 	H 	0.6656	0.0742	0.7957	0.056
Mof_N 	N 	0.0647	0.1552	0.9394	-0.161
Mof_C 	C 	0.1117	0.8981	0.1103	0.177
Mof_H 	H 	0.122	0.0186	0.1223	-0.071
Mof_C 	C 	0.2458	0.645	0.1681	-0.063
Mof_C 	C 	0.2001	0.646	0.2768	-0.058
Mof_H 	H 	0.2431	0.5797	0.1099	0.034
Mof_H 	H 	0.1656	0.5742	0.2957	0.054
Mof_N 	N 	0.4353	0.8448	0.4394	-0.197
Mof_C 	C 	0.3883	0.1019	0.6103	0.021
Mof_H 	H 	0.378	0.9814	0.6223	0.06
Mof_C 	C 	0.2542	0.355	0.6681	-0.057
Mof_C 	C 	0.2999	0.354	0.7768	-0.053
Mof_H 	H 	0.2569	0.4203	0.6099	0.051
Mof_H 	H 	0.3344	0.4258	0.7957	0.068
Mof_N 	N 	0.9353	0.3448	0.9394	-0.157
Mof_C 	C 	0.8883	0.6019	0.1103	0.097
Mof_H 	H 	0.878	0.4814	0.1223	-0.007
Mof_C 	C 	0.7542	0.855	0.1681	-0.058
Mof_C 	C 	0.7999	0.854	0.2768	-0.056
Mof_H 	H 	0.7569	0.9203	0.1099	0.046
Mof_H 	H 	0.8344	0.9258	0.2957	0.073
Mof_N 	N 	0.4353	0.1552	0.5606	-0.184
Mof_C 	C 	0.3883	0.8981	0.3897	0.187
Mof_H 	H 	0.378	0.0186	0.3777	-0.063
Mof_C 	C 	0.2542	0.645	0.3319	-0.069
Mof_C 	C 	0.2999	0.646	0.2232	-0.067
Mof_H 	H 	0.2569	0.5797	0.3901	0.053
Mof_H 	H 	0.3344	0.5742	0.2043	0.049
Mof_N 	N 	0.9353	0.6552	0.0606	-0.194
Mof_C 	C 	0.8883	0.3981	0.8897	0.115
Mof_H 	H 	0.878	0.5186	0.8777	0.016
Mof_C 	C 	0.7542	0.145	0.8319	-0.068
Mof_C 	C 	0.7999	0.146	0.7232	-0.064
Mof_H 	H 	0.7569	0.0797	0.8901	0.062
Mof_H 	H 	0.8344	0.0742	0.7043	0.054
Mof_N 	N 	0.5647	0.3448	0.5606	-0.192
Mof_C 	C 	0.6117	0.6019	0.3897	0.103
Mof_H 	H 	0.622	0.4814	0.3777	-0.005
Mof_C 	C 	0.7458	0.855	0.3319	-0.061
Mof_C 	C 	0.7001	0.854	0.2232	-0.062
Mof_H 	H 	0.7431	0.9203	0.3901	0.065
Mof_H 	H 	0.6656	0.9258	0.2043	0.061
Mof_N 	N 	0.0647	0.8448	0.0606	-0.213
Mof_C 	C 	0.1117	0.1019	0.8897	0.03
Mof_H 	H 	0.122	0.9814	0.8777	0.069
Mof_C 	C 	0.2458	0.355	0.8319	-0.061
Mof_C 	C 	0.2001	0.354	0.7232	-0.06
Mof_H 	H 	0.2431	0.4203	0.8901	0.072
Mof_H 	H 	0.1656	0.4258	0.7043	0.058
Mof_Br	Br	0.5	0.25	0.34974	-0.444
Mof_Br	Br	-3.44801e-33	0.75	0.84974	-0.374
Mof_Br	Br	0.5	0.75	0.65026	-0.378
Mof_Br	Br	3.66729e-34	0.25	0.15026	-0.482
Mof_Cu	Cu	0.5	0.5	0.5	0.883
Mof_Cu	Cu	-0	0	-0	0.814
Mof_Cu	Cu	0.5	0	0.5	0.863
Mof_Cu	Cu	-0	0.5	-0	0.833
Mof_N 	N 	0.3567	0.75	0.358	-0.172
Mof_C 	C 	0.302	0.75	0.3037	0.136
Mof_N 	N 	0.8567	0.25	0.858	-0.144
Mof_C 	C 	0.802	0.25	0.8037	0.129
Mof_N 	N 	0.6433	0.75	0.358	-0.171
Mof_C 	C 	0.698	0.75	0.3037	0.134
Mof_N 	N 	0.1433	0.25	0.858	-0.144
Mof_C 	C 	0.198	0.25	0.8037	0.126
Mof_N 	N 	0.6433	0.25	0.642	-0.143
Mof_C 	C 	0.698	0.25	0.6963	0.113
Mof_N 	N 	0.1433	0.75	0.142	-0.171
Mof_C 	C 	0.198	0.75	0.1963	0.123
Mof_N 	N 	0.3567	0.25	0.642	-0.143
Mof_C 	C 	0.302	0.25	0.6963	0.115
Mof_N 	N 	0.8567	0.75	0.142	-0.17
Mof_C 	C 	0.802	0.75	0.1963	0.127
_end
