data_functionalizedCrystal
_audit_creation_method	'EQeq! by Chris Wilmer'
_symmetry_space_group_name_H-M	'P1'
_symmetry_Int_Tables_number	1
_symmetry_cell_setting	triclinic
loop_
_symmetry_equiv_pos_as_xyz
  x,y,z
_cell_length_a	9.8548
_cell_length_b	13.8138
_cell_length_c	33.7925
_cell_angle_alpha	90
_cell_angle_beta	90
_cell_angle_gamma	92.8627
loop_
_atom_site_label
_atom_site_type_symbol
_atom_site_fract_x
_atom_site_fract_y
_atom_site_fract_z
_atom_site_charge
Mof_La	La	0.26408	0.02019	0.75105	2.16
Mof_La	La	0.23592	0.97981	0.25105	2.154
Mof_La	La	0.73592	0.97981	0.24895	2.16
Mof_La	La	0.76408	0.02019	0.74895	2.154
Mof_H 	H 	0.2824	0.228	0.4585	0.062
Mof_H 	H 	0.3924	0.2383	0.5245	0.057
Mof_H 	H 	0.5124	0.5234	0.6262	0.066
Mof_H 	H 	0.5159	0.7013	0.6209	0.066
Mof_H 	H 	0.2593	0.9475	0.5287	0.054
Mof_H 	H 	0.0937	0.9298	0.4741	0.055
Mof_H 	H 	0.9299	0.6366	0.3795	0.062
Mof_H 	H 	0.9818	0.4645	0.3744	0.071
Mof_H 	H 	0.6074	0.3145	0.558	0.08
Mof_H 	H 	0.6816	0.1955	0.6012	0.036
Mof_H 	H 	0.5631	0.1594	0.6593	0.042
Mof_H 	H 	0.2954	0.3615	0.6327	0.067
Mof_H 	H 	0.5456	0.9019	0.5287	0.05
Mof_H 	H 	0.6989	0.006	0.5623	0.047
Mof_H 	H 	0.6851	0.0226	0.6308	0.02
Mof_H 	H 	0.3468	0.8443	0.6315	0.048
Mof_H 	H 	0.8333	0.8349	0.4596	0.057
Mof_H 	H 	0.7065	0.9323	0.4188	0.045
Mof_H 	H 	0.7778	0.9692	0.3544	0.015
Mof_H 	H 	0.1017	0.8039	0.3703	0.056
Mof_H 	H 	0.9748	0.2575	0.4462	0.078
Mof_H 	H 	0.9042	0.1232	0.4079	0.036
Mof_H 	H 	0.0099	0.0965	0.3473	0.04
Mof_H 	H 	0.2466	0.3416	0.3622	0.067
Mof_H 	H 	0.2176	0.772	0.9585	0.062
Mof_H 	H 	0.1076	0.7617	0.0245	0.056
Mof_H 	H 	0.9876	0.4766	0.1262	0.069
Mof_H 	H 	0.9841	0.2987	0.1209	0.067
Mof_H 	H 	0.2407	0.0525	0.0287	0.055
Mof_H 	H 	0.4063	0.0702	0.9741	0.055
Mof_H 	H 	0.5701	0.3634	0.8795	0.065
Mof_H 	H 	0.5182	0.5355	0.8744	0.065
Mof_H 	H 	0.8926	0.6855	0.058	0.077
Mof_H 	H 	0.8184	0.8045	0.1012	0.039
Mof_H 	H 	0.9369	0.8406	0.1593	0.039
Mof_H 	H 	0.2046	0.6385	0.1327	0.065
Mof_H 	H 	0.9544	0.0981	0.0287	0.05
Mof_H 	H 	0.8011	0.994	0.0623	0.048
Mof_H 	H 	0.8149	0.9774	0.1308	0.023
Mof_H 	H 	0.1532	0.1557	0.1315	0.049
Mof_H 	H 	0.6667	0.1651	0.9596	0.052
Mof_H 	H 	0.7935	0.0677	0.9188	0.049
Mof_H 	H 	0.7222	0.0308	0.8544	0.009
Mof_H 	H 	0.3983	0.1961	0.8703	0.049
Mof_H 	H 	0.5252	0.7425	0.9462	0.076
Mof_H 	H 	0.5958	0.8768	0.9079	0.039
Mof_H 	H 	0.4901	0.9035	0.8473	0.04
Mof_H 	H 	0.2534	0.6584	0.8622	0.066
Mof_H 	H 	0.7176	0.772	0.5415	0.062
Mof_H 	H 	0.6076	0.7617	0.4755	0.057
Mof_H 	H 	0.4876	0.4766	0.3738	0.066
Mof_H 	H 	0.4841	0.2987	0.3791	0.066
Mof_H 	H 	0.7407	0.0525	0.4713	0.054
Mof_H 	H 	0.9063	0.0702	0.5259	0.055
Mof_H 	H 	0.0701	0.3634	0.6205	0.062
Mof_H 	H 	0.0182	0.5355	0.6256	0.071
Mof_H 	H 	0.3926	0.6855	0.442	0.08
Mof_H 	H 	0.3184	0.8045	0.3988	0.036
Mof_H 	H 	0.4369	0.8406	0.3407	0.042
Mof_H 	H 	0.7046	0.6385	0.3673	0.067
Mof_H 	H 	0.4544	0.0981	0.4713	0.05
Mof_H 	H 	0.3011	0.994	0.4377	0.047
Mof_H 	H 	0.3149	0.9774	0.3692	0.02
Mof_H 	H 	0.6532	0.1557	0.3685	0.048
Mof_H 	H 	0.1667	0.1651	0.5404	0.057
Mof_H 	H 	0.2935	0.0677	0.5812	0.045
Mof_H 	H 	0.2222	0.0308	0.6456	0.015
Mof_H 	H 	0.8983	0.1961	0.6297	0.056
Mof_H 	H 	0.0252	0.7425	0.5538	0.078
Mof_H 	H 	0.0958	0.8768	0.5921	0.036
Mof_H 	H 	0.9901	0.9035	0.6527	0.04
Mof_H 	H 	0.7534	0.6584	0.6378	0.067
Mof_H 	H 	0.7824	0.228	0.0415	0.062
Mof_H 	H 	0.8924	0.2383	0.9755	0.056
Mof_H 	H 	0.0124	0.5234	0.8738	0.069
Mof_H 	H 	0.0159	0.7013	0.8791	0.067
Mof_H 	H 	0.7593	0.9475	0.9713	0.055
Mof_H 	H 	0.5937	0.9298	0.0259	0.055
Mof_H 	H 	0.4299	0.6366	0.1205	0.065
Mof_H 	H 	0.4818	0.4645	0.1256	0.065
Mof_H 	H 	0.1074	0.3145	0.942	0.077
Mof_H 	H 	0.1816	0.1955	0.8988	0.039
Mof_H 	H 	0.0631	0.1594	0.8407	0.039
Mof_H 	H 	0.7954	0.3615	0.8673	0.065
Mof_H 	H 	0.0456	0.9019	0.9713	0.05
Mof_H 	H 	0.1989	0.006	0.9377	0.048
Mof_H 	H 	0.1851	0.0226	0.8692	0.023
Mof_H 	H 	0.8468	0.8443	0.8685	0.049
Mof_H 	H 	0.3333	0.8349	0.0404	0.052
Mof_H 	H 	0.2065	0.9323	0.0812	0.049
Mof_H 	H 	0.2778	0.9692	0.1456	0.009
Mof_H 	H 	0.6017	0.8039	0.1297	0.049
Mof_H 	H 	0.4748	0.2575	0.0538	0.076
Mof_H 	H 	0.4042	0.1232	0.0921	0.039
Mof_H 	H 	0.5099	0.0965	0.1527	0.04
Mof_H 	H 	0.7466	0.3416	0.1378	0.066
Mof_C 	C 	0.2374	0.3775	0.4677	0.108
Mof_C 	C 	0.2895	0.2831	0.47532	-0.077
Mof_C 	C 	0.3499	0.2891	0.51101	-0.071
Mof_C 	C 	0.3378	0.3872	0.52505	0.107
Mof_C 	C 	0.3875	0.4211	0.56157	-0.082
Mof_C 	C 	0.3959	0.5188	0.57342	0.104
Mof_C 	C 	0.47	0.5591	0.60603	-0.073
Mof_C 	C 	0.4703	0.6565	0.60349	-0.07
Mof_C 	C 	0.3888	0.6809	0.56969	0.098
Mof_C 	C 	0.3622	0.7741	0.55657	-0.077
Mof_C 	C 	0.2755	0.7943	0.52508	0.092
Mof_C 	C 	0.2308	0.8887	0.51586	-0.077
Mof_C 	C 	0.1417	0.8794	0.48601	-0.078
Mof_C 	C 	0.1327	0.7785	0.4755	0.093
Mof_C 	C 	0.0581	0.7399	0.44355	-0.083
Mof_C 	C 	0.0583	0.6434	0.43059	0.095
Mof_C 	C 	0.987	0.6028	0.3968	-0.057
Mof_C 	C 	0.0154	0.5088	0.39405	-0.084
Mof_C 	C 	0.106	0.4869	0.42615	0.112
Mof_C 	C 	0.1575	0.3974	0.43458	-0.088
Mof_C 	C 	0.4407	0.3498	0.59038	0.061
Mof_C 	C 	0.5581	0.3	0.58162	-0.093
Mof_C 	C 	0.6027	0.2292	0.60743	-0.015
Mof_C 	C 	0.5323	0.208	0.642	-0.027
Mof_C 	C 	0.4181	0.2564	0.65163	-0.057
Mof_C 	C 	0.3735	0.3275	0.6259	-0.064
Mof_C 	C 	0.3349	0.2292	0.68859	0.343
Mof_C 	C 	0.4382	0.8553	0.57746	0.029
Mof_C 	C 	0.539	0.9087	0.55661	-0.06
Mof_C 	C 	0.6291	0.9712	0.5765	-0.057
Mof_C 	C 	0.6185	0.9835	0.61707	0.029
Mof_C 	C 	0.5114	0.9391	0.63747	-0.129
Mof_C 	C 	0.4209	0.8749	0.61754	-0.022
Mof_C 	C 	0.4937	0.9592	0.68086	0.47
Mof_C 	C 	0.9797	0.8078	0.41903	0.047
Mof_C 	C 	0.8625	0.8478	0.43324	-0.072
Mof_C 	C 	0.7876	0.9067	0.40898	-0.047
Mof_C 	C 	0.8292	0.9287	0.37076	0.012
Mof_C 	C 	0.947	0.8905	0.35679	-0.107
Mof_C 	C 	0.0215	0.8302	0.38049	-0.045
Mof_C 	C 	0.0004	0.9149	0.31609	0.434
Mof_C 	C 	0.1161	0.3133	0.40802	0.064
Mof_C 	C 	0.0161	0.2476	0.42121	-0.095
Mof_C 	C 	0.9745	0.1671	0.3987	-0.015
Mof_C 	C 	0.0371	0.1518	0.36254	-0.026
Mof_C 	C 	0.138	0.2153	0.34841	-0.063
Mof_C 	C 	0.1774	0.2971	0.37155	-0.066
Mof_C 	C 	0.2055	0.1963	0.30982	0.34
Mof_C 	C 	0.2626	0.6225	0.9677	0.107
Mof_C 	C 	0.2105	0.7169	0.97532	-0.076
Mof_C 	C 	0.1501	0.7109	0.01101	-0.071
Mof_C 	C 	0.1622	0.6128	0.02505	0.106
Mof_C 	C 	0.1125	0.5789	0.06157	-0.08
Mof_C 	C 	0.1041	0.4812	0.07342	0.105
Mof_C 	C 	0.03	0.4409	0.10603	-0.077
Mof_C 	C 	0.0297	0.3435	0.10349	-0.072
Mof_C 	C 	0.1112	0.3191	0.06969	0.099
Mof_C 	C 	0.1378	0.2259	0.05657	-0.078
Mof_C 	C 	0.2245	0.2057	0.02508	0.093
Mof_C 	C 	0.2692	0.1113	0.01586	-0.077
Mof_C 	C 	0.3583	0.1206	0.98601	-0.077
Mof_C 	C 	0.3673	0.2215	0.9755	0.091
Mof_C 	C 	0.4419	0.2601	0.94355	-0.076
Mof_C 	C 	0.4417	0.3566	0.93059	0.098
Mof_C 	C 	0.513	0.3972	0.8968	-0.069
Mof_C 	C 	0.4846	0.4912	0.89405	-0.07
Mof_C 	C 	0.394	0.5131	0.92615	0.108
Mof_C 	C 	0.3425	0.6026	0.93458	-0.085
Mof_C 	C 	0.0593	0.6502	0.09038	0.052
Mof_C 	C 	0.9419	0.7	0.08162	-0.082
Mof_C 	C 	0.8973	0.7708	0.10743	-0.024
Mof_C 	C 	0.9677	0.792	0.142	-0.014
Mof_C 	C 	0.0819	0.7436	0.15163	-0.067
Mof_C 	C 	0.1265	0.6725	0.1259	-0.057
Mof_C 	C 	0.1651	0.7708	0.18859	0.346
Mof_C 	C 	0.0618	0.1447	0.07746	0.031
Mof_C 	C 	0.961	0.0913	0.05661	-0.062
Mof_C 	C 	0.8709	0.0288	0.0765	-0.056
Mof_C 	C 	0.8815	0.0165	0.11707	0.022
Mof_C 	C 	0.9886	0.0609	0.13747	-0.122
Mof_C 	C 	0.0791	0.1251	0.11754	-0.027
Mof_C 	C 	0.0063	0.0408	0.18086	0.462
Mof_C 	C 	0.5203	0.1922	0.91903	0.03
Mof_C 	C 	0.6375	0.1522	0.93324	-0.058
Mof_C 	C 	0.7124	0.0933	0.90898	-0.061
Mof_C 	C 	0.6708	0.0713	0.87076	0.028
Mof_C 	C 	0.553	0.1095	0.85679	-0.129
Mof_C 	C 	0.4785	0.1698	0.88049	-0.021
Mof_C 	C 	0.4996	0.0851	0.81609	0.452
Mof_C 	C 	0.3839	0.6867	0.90802	0.06
Mof_C 	C 	0.4839	0.7524	0.92121	-0.089
Mof_C 	C 	0.5255	0.8329	0.8987	-0.021
Mof_C 	C 	0.4629	0.8482	0.86254	-0.021
Mof_C 	C 	0.362	0.7847	0.84841	-0.065
Mof_C 	C 	0.3226	0.7029	0.87155	-0.063
Mof_C 	C 	0.2945	0.8037	0.80982	0.341
Mof_C 	C 	0.7626	0.6225	0.5323	0.108
Mof_C 	C 	0.7105	0.7169	0.52468	-0.077
Mof_C 	C 	0.6501	0.7109	0.48899	-0.071
Mof_C 	C 	0.6622	0.6128	0.47495	0.107
Mof_C 	C 	0.6125	0.5789	0.43843	-0.082
Mof_C 	C 	0.6041	0.4812	0.42658	0.104
Mof_C 	C 	0.53	0.4409	0.39397	-0.073
Mof_C 	C 	0.5297	0.3435	0.39651	-0.07
Mof_C 	C 	0.6112	0.3191	0.43031	0.098
Mof_C 	C 	0.6378	0.2259	0.44343	-0.077
Mof_C 	C 	0.7245	0.2057	0.47492	0.092
Mof_C 	C 	0.7692	0.1113	0.48414	-0.077
Mof_C 	C 	0.8583	0.1206	0.51399	-0.078
Mof_C 	C 	0.8673	0.2215	0.5245	0.093
Mof_C 	C 	0.9419	0.2601	0.55645	-0.083
Mof_C 	C 	0.9417	0.3566	0.56941	0.095
Mof_C 	C 	0.013	0.3972	0.6032	-0.057
Mof_C 	C 	0.9846	0.4912	0.60595	-0.084
Mof_C 	C 	0.894	0.5131	0.57385	0.112
Mof_C 	C 	0.8425	0.6026	0.56542	-0.088
Mof_C 	C 	0.5593	0.6502	0.40962	0.061
Mof_C 	C 	0.4419	0.7	0.41838	-0.093
Mof_C 	C 	0.3973	0.7708	0.39257	-0.015
Mof_C 	C 	0.4677	0.792	0.358	-0.027
Mof_C 	C 	0.5819	0.7436	0.34837	-0.057
Mof_C 	C 	0.6265	0.6725	0.3741	-0.064
Mof_C 	C 	0.6651	0.7708	0.31141	0.343
Mof_C 	C 	0.5618	0.1447	0.42254	0.029
Mof_C 	C 	0.461	0.0913	0.44339	-0.06
Mof_C 	C 	0.3709	0.0288	0.4235	-0.057
Mof_C 	C 	0.3815	0.0165	0.38293	0.029
Mof_C 	C 	0.4886	0.0609	0.36253	-0.129
Mof_C 	C 	0.5791	0.1251	0.38246	-0.022
Mof_C 	C 	0.5063	0.0408	0.31914	0.47
Mof_C 	C 	0.0203	0.1922	0.58097	0.047
Mof_C 	C 	0.1375	0.1522	0.56676	-0.072
Mof_C 	C 	0.2124	0.0933	0.59102	-0.047
Mof_C 	C 	0.1708	0.0713	0.62924	0.012
Mof_C 	C 	0.053	0.1095	0.64321	-0.107
Mof_C 	C 	0.9785	0.1698	0.61951	-0.045
Mof_C 	C 	0.9996	0.0851	0.68391	0.434
Mof_C 	C 	0.8839	0.6867	0.59198	0.064
Mof_C 	C 	0.9839	0.7524	0.57879	-0.095
Mof_C 	C 	0.0255	0.8329	0.6013	-0.015
Mof_C 	C 	0.9629	0.8482	0.63746	-0.026
Mof_C 	C 	0.862	0.7847	0.65159	-0.063
Mof_C 	C 	0.8226	0.7029	0.62845	-0.066
Mof_C 	C 	0.7945	0.8037	0.69018	0.34
Mof_C 	C 	0.7374	0.3775	0.0323	0.107
Mof_C 	C 	0.7895	0.2831	0.02468	-0.076
Mof_C 	C 	0.8499	0.2891	0.98899	-0.071
Mof_C 	C 	0.8378	0.3872	0.97495	0.106
Mof_C 	C 	0.8875	0.4211	0.93843	-0.08
Mof_C 	C 	0.8959	0.5188	0.92658	0.105
Mof_C 	C 	0.97	0.5591	0.89397	-0.077
Mof_C 	C 	0.9703	0.6565	0.89651	-0.072
Mof_C 	C 	0.8888	0.6809	0.93031	0.099
Mof_C 	C 	0.8622	0.7741	0.94343	-0.078
Mof_C 	C 	0.7755	0.7943	0.97492	0.093
Mof_C 	C 	0.7308	0.8887	0.98414	-0.077
Mof_C 	C 	0.6417	0.8794	0.01399	-0.077
Mof_C 	C 	0.6327	0.7785	0.0245	0.091
Mof_C 	C 	0.5581	0.7399	0.05645	-0.076
Mof_C 	C 	0.5583	0.6434	0.06941	0.098
Mof_C 	C 	0.487	0.6028	0.1032	-0.069
Mof_C 	C 	0.5154	0.5088	0.10595	-0.07
Mof_C 	C 	0.606	0.4869	0.07385	0.108
Mof_C 	C 	0.6575	0.3974	0.06542	-0.085
Mof_C 	C 	0.9407	0.3498	0.90962	0.052
Mof_C 	C 	0.0581	0.3	0.91838	-0.082
Mof_C 	C 	0.1027	0.2292	0.89257	-0.024
Mof_C 	C 	0.0323	0.208	0.858	-0.014
Mof_C 	C 	0.9181	0.2564	0.84837	-0.067
Mof_C 	C 	0.8735	0.3275	0.8741	-0.057
Mof_C 	C 	0.8349	0.2292	0.81141	0.346
Mof_C 	C 	0.9382	0.8553	0.92254	0.031
Mof_C 	C 	0.039	0.9087	0.94339	-0.062
Mof_C 	C 	0.1291	0.9712	0.9235	-0.056
Mof_C 	C 	0.1185	0.9835	0.88293	0.022
Mof_C 	C 	0.0114	0.9391	0.86253	-0.122
Mof_C 	C 	0.9209	0.8749	0.88246	-0.027
Mof_C 	C 	0.9937	0.9592	0.81914	0.462
Mof_C 	C 	0.4797	0.8078	0.08097	0.03
Mof_C 	C 	0.3625	0.8478	0.06676	-0.058
Mof_C 	C 	0.2876	0.9067	0.09102	-0.061
Mof_C 	C 	0.3292	0.9287	0.12924	0.028
Mof_C 	C 	0.447	0.8905	0.14321	-0.129
Mof_C 	C 	0.5215	0.8302	0.11951	-0.021
Mof_C 	C 	0.5004	0.9149	0.18391	0.452
Mof_C 	C 	0.6161	0.3133	0.09198	0.06
Mof_C 	C 	0.5161	0.2476	0.07879	-0.089
Mof_C 	C 	0.4745	0.1671	0.1013	-0.021
Mof_C 	C 	0.5371	0.1518	0.13746	-0.021
Mof_C 	C 	0.638	0.2153	0.15159	-0.065
Mof_C 	C 	0.6774	0.2971	0.12845	-0.063
Mof_C 	C 	0.7055	0.1963	0.19018	0.341
Mof_N 	N 	0.2715	0.4404	0.49779	-0.117
Mof_N 	N 	0.3436	0.5949	0.5523	-0.115
Mof_N 	N 	0.2145	0.7271	0.50033	-0.12
Mof_N 	N 	0.1288	0.57	0.44775	-0.117
Mof_N 	N 	0.2285	0.5596	0.99779	-0.116
Mof_N 	N 	0.1564	0.4051	0.0523	-0.115
Mof_N 	N 	0.2855	0.2729	0.00033	-0.12
Mof_N 	N 	0.3712	0.43	0.94775	-0.117
Mof_N 	N 	0.7285	0.5596	0.50221	-0.117
Mof_N 	N 	0.6564	0.4051	0.4477	-0.115
Mof_N 	N 	0.7855	0.2729	0.49967	-0.12
Mof_N 	N 	0.8712	0.43	0.55225	-0.117
Mof_N 	N 	0.7715	0.4404	0.00221	-0.116
Mof_N 	N 	0.8436	0.5949	0.9477	-0.115
Mof_N 	N 	0.7145	0.7271	0.99967	-0.12
Mof_N 	N 	0.6288	0.57	0.05225	-0.117
Mof_O 	O 	0.235	0.2774	0.6968	-0.282
Mof_O 	O 	0.3744	0.1579	0.70888	-0.459
Mof_O 	O 	0.3802	0.9346	0.69657	-0.514
Mof_O 	O 	0.592	0.0015	0.69864	-0.567
Mof_O 	O 	0.9252	0.9613	0.29308	-0.575
Mof_O 	O 	0.1166	0.8903	0.30662	-0.501
Mof_O 	O 	0.1538	0.1235	0.28937	-0.451
Mof_O 	O 	0.3072	0.2464	0.29928	-0.278
Mof_O 	O 	0.265	0.7226	0.1968	-0.284
Mof_O 	O 	0.1256	0.8421	0.20888	-0.461
Mof_O 	O 	0.1198	0.0654	0.19657	-0.511
Mof_O 	O 	0.908	0.9985	0.19864	-0.563
Mof_O 	O 	0.5748	0.0387	0.79308	-0.582
Mof_O 	O 	0.3834	0.1097	0.80662	-0.505
Mof_O 	O 	0.3462	0.8765	0.78937	-0.452
Mof_O 	O 	0.1928	0.7536	0.79928	-0.278
Mof_O 	O 	0.765	0.7226	0.3032	-0.282
Mof_O 	O 	0.6256	0.8421	0.29112	-0.459
Mof_O 	O 	0.6198	0.0654	0.30343	-0.514
Mof_O 	O 	0.408	0.9985	0.30136	-0.567
Mof_O 	O 	0.0748	0.0387	0.70692	-0.575
Mof_O 	O 	0.8834	0.1097	0.69338	-0.501
Mof_O 	O 	0.8462	0.8765	0.71063	-0.451
Mof_O 	O 	0.6928	0.7536	0.70072	-0.278
Mof_O 	O 	0.735	0.2774	0.8032	-0.284
Mof_O 	O 	0.8744	0.1579	0.79112	-0.461
Mof_O 	O 	0.8802	0.9346	0.80343	-0.511
Mof_O 	O 	0.092	0.0015	0.80136	-0.563
Mof_O 	O 	0.4252	0.9613	0.20692	-0.582
Mof_O 	O 	0.6166	0.8903	0.19338	-0.505
Mof_O 	O 	0.6538	0.1235	0.21063	-0.452
Mof_O 	O 	0.8072	0.2464	0.20072	-0.278
_end
