data_functionalizedCrystal
_audit_creation_method	'EQeq! by Chris Wilmer'
_symmetry_space_group_name_H-M	'P1'
_symmetry_Int_Tables_number	1
_symmetry_cell_setting	triclinic
loop_
_symmetry_equiv_pos_as_xyz
  x,y,z
_cell_length_a	24.9329
_cell_length_b	24.9329
_cell_length_c	24.9329
_cell_angle_alpha	109.471
_cell_angle_beta	109.471
_cell_angle_gamma	109.471
loop_
_atom_site_label
_atom_site_type_symbol
_atom_site_fract_x
_atom_site_fract_y
_atom_site_fract_z
_atom_site_charge
Mof_Zn	Zn	0.94745	0.08192	0.07819	1.181
Mof_Zn	Zn	0.50373	0.86926	0.42181	1.181
Mof_Zn	Zn	0.99627	0.41808	0.36553	1.182
Mof_Zn	Zn	0.55255	0.63074	0.13447	1.181
Mof_Zn	Zn	0.86553	0.99627	0.91808	1.183
Mof_Zn	Zn	0.63447	0.55255	0.13074	1.181
Mof_Zn	Zn	0.57819	0.94745	0.58192	1.181
Mof_Zn	Zn	0.92181	0.50373	0.36926	1.182
Mof_Zn	Zn	0.86926	0.92181	0.00373	1.181
Mof_Zn	Zn	0.08192	0.57819	0.44745	1.181
Mof_Zn	Zn	0.63074	0.63447	0.05255	1.181
Mof_Zn	Zn	0.41808	0.86553	0.49627	1.181
Mof_Zn	Zn	0.36926	0.00373	0.92181	1.181
Mof_Zn	Zn	0.58192	0.44745	0.57819	1.181
Mof_Zn	Zn	0.13074	0.05255	0.63447	1.18
Mof_Zn	Zn	0.91808	0.49627	0.86553	1.182
Mof_Zn	Zn	0.44745	0.07819	0.08192	1.181
Mof_Zn	Zn	0.00373	0.42181	0.86926	1.18
Mof_Zn	Zn	0.49627	0.36553	0.41808	1.181
Mof_Zn	Zn	0.05255	0.13447	0.63074	1.18
Mof_Zn	Zn	0.36553	0.91808	0.99627	1.184
Mof_Zn	Zn	0.13447	0.13074	0.55255	1.182
Mof_Zn	Zn	0.07819	0.58192	0.94745	1.182
Mof_Zn	Zn	0.42181	0.36926	0.50373	1.182
Mof_Zn	Zn	0.99422	0	-0	1.21
Mof_Zn	Zn	0.5	0.99422	0.5	1.212
Mof_Zn	Zn	3.81127e-17	0.5	0.49422	1.21
Mof_Zn	Zn	0.50578	0.50578	0.00578	1.21
Mof_Zn	Zn	0.49422	0	-0	1.209
Mof_Zn	Zn	0.5	0.49422	0.5	1.211
Mof_Zn	Zn	0.00578	0.00578	0.50578	1.208
Mof_Zn	Zn	-1.90564e-17	0.5	0.99422	1.21
Mof_H 	H 	0.0867	0.0627	0.206	0.076
Mof_H 	H 	0.1238	0.0441	0.2909	0.034
Mof_H 	H 	0.2977	0.2029	0.3834	0.028
Mof_H 	H 	0.2267	0.1114	0.3741	0.043
Mof_H 	H 	0.3531	0.3298	0.2699	0.077
Mof_H 	H 	0.1473	0.1815	0.0858	0.061
Mof_H 	H 	0.2191	0.2618	0.0851	0.039
Mof_H 	H 	0.324	0.3368	0.1784	0.036
Mof_H 	H 	0.3567	0.8807	0.294	0.077
Mof_H 	H 	0.2532	0.8329	0.2091	0.036
Mof_H 	H 	0.3195	0.9143	0.1166	0.029
Mof_H 	H 	0.2373	0.8526	0.1259	0.044
Mof_H 	H 	0.5599	0.0832	0.2301	0.076
Mof_H 	H 	0.5957	0.0615	0.4142	0.06
Mof_H 	H 	0.6767	0.134	0.4149	0.039
Mof_H 	H 	0.6584	0.1456	0.3216	0.036
Mof_H 	H 	0.1433	0.4373	0.524	0.077
Mof_H 	H 	0.2468	0.4559	0.5797	0.036
Mof_H 	H 	0.1805	0.2971	0.5948	0.029
Mof_H 	H 	0.2627	0.3886	0.6153	0.044
Mof_H 	H 	0.9401	0.1702	0.5233	0.079
Mof_H 	H 	0.9043	0.3185	0.4658	0.063
Mof_H 	H 	0.8233	0.2382	0.4573	0.039
Mof_H 	H 	0.8416	0.1632	0.4872	0.035
Mof_H 	H 	0.4133	0.6193	0.976	0.079
Mof_H 	H 	0.3762	0.6671	0.9203	0.035
Mof_H 	H 	0.2023	0.5857	0.9052	0.028
Mof_H 	H 	0.2733	0.6474	0.8847	0.045
Mof_H 	H 	0.1469	0.4168	0.9767	0.072
Mof_H 	H 	0.3527	0.4385	0.0342	0.067
Mof_H 	H 	0.2809	0.366	0.0427	0.033
Mof_H 	H 	0.176	0.3544	0.0128	0.041
Mof_H 	H 	0.024	0.1433	0.9373	0.076
Mof_H 	H 	0.0797	0.2468	0.9559	0.037
Mof_H 	H 	0.0948	0.1805	0.7971	0.029
Mof_H 	H 	0.1153	0.2627	0.8886	0.044
Mof_H 	H 	0.0233	0.9401	0.6702	0.085
Mof_H 	H 	0.9658	0.9043	0.8185	0.056
Mof_H 	H 	0.9573	0.8233	0.7382	0.047
Mof_H 	H 	0.9872	0.8416	0.6632	0.028
Mof_H 	H 	0.476	0.4133	0.1193	0.078
Mof_H 	H 	0.4203	0.3762	0.1671	0.035
Mof_H 	H 	0.4052	0.2023	0.0857	0.028
Mof_H 	H 	0.3847	0.2733	0.1474	0.044
Mof_H 	H 	0.4767	0.1469	0.9168	0.078
Mof_H 	H 	0.5342	0.3527	0.9385	0.064
Mof_H 	H 	0.5427	0.2809	0.866	0.039
Mof_H 	H 	0.5128	0.176	0.8544	0.036
Mof_H 	H 	0.706	0.0867	0.5627	0.077
Mof_H 	H 	0.7909	0.1238	0.5441	0.035
Mof_H 	H 	0.8834	0.2977	0.7029	0.029
Mof_H 	H 	0.8741	0.2267	0.6114	0.045
Mof_H 	H 	0.7699	0.3531	0.8298	0.077
Mof_H 	H 	0.5858	0.1473	0.6815	0.062
Mof_H 	H 	0.5851	0.2191	0.7618	0.039
Mof_H 	H 	0.6784	0.324	0.8368	0.036
Mof_H 	H 	0.794	0.3567	0.3807	0.078
Mof_H 	H 	0.7091	0.2532	0.3329	0.036
Mof_H 	H 	0.6166	0.3195	0.4143	0.028
Mof_H 	H 	0.6259	0.2373	0.3526	0.044
Mof_H 	H 	0.7301	0.5599	0.5832	0.077
Mof_H 	H 	0.9142	0.5957	0.5615	0.063
Mof_H 	H 	0.9149	0.6767	0.634	0.04
Mof_H 	H 	0.8216	0.6584	0.6456	0.036
Mof_H 	H 	0.8807	0.794	0.8567	0.077
Mof_H 	H 	0.8329	0.7091	0.7532	0.036
Mof_H 	H 	0.9143	0.6166	0.8195	0.029
Mof_H 	H 	0.8526	0.6259	0.7373	0.044
Mof_H 	H 	0.0832	0.7301	0.0599	0.075
Mof_H 	H 	0.0615	0.9142	0.0957	0.061
Mof_H 	H 	0.134	0.9149	0.1767	0.04
Mof_H 	H 	0.1456	0.8216	0.1584	0.036
Mof_H 	H 	0.0627	0.706	0.5867	0.077
Mof_H 	H 	0.0441	0.7909	0.6238	0.035
Mof_H 	H 	0.2029	0.8834	0.7977	0.029
Mof_H 	H 	0.1114	0.8741	0.7267	0.044
Mof_H 	H 	0.3298	0.7699	0.8531	0.077
Mof_H 	H 	0.1815	0.5858	0.6473	0.062
Mof_H 	H 	0.2618	0.5851	0.7191	0.039
Mof_H 	H 	0.3368	0.6784	0.824	0.036
Mof_H 	H 	0.6193	0.476	0.9133	0.079
Mof_H 	H 	0.6671	0.4203	0.8762	0.036
Mof_H 	H 	0.5857	0.4052	0.7023	0.028
Mof_H 	H 	0.6474	0.3847	0.7733	0.044
Mof_H 	H 	0.4168	0.4767	0.6469	0.077
Mof_H 	H 	0.4385	0.5342	0.8527	0.062
Mof_H 	H 	0.366	0.5427	0.7809	0.039
Mof_H 	H 	0.3544	0.5128	0.676	0.036
Mof_H 	H 	0.4373	0.024	0.6433	0.076
Mof_H 	H 	0.4559	0.0797	0.7468	0.036
Mof_H 	H 	0.2971	0.0948	0.6805	0.029
Mof_H 	H 	0.3886	0.1153	0.7627	0.043
Mof_H 	H 	0.1702	0.0233	0.4401	0.084
Mof_H 	H 	0.3185	0.9658	0.4043	0.055
Mof_H 	H 	0.2382	0.9573	0.3233	0.047
Mof_H 	H 	0.1632	0.9872	0.3416	0.028
Mof_H 	H 	0.3807	0.8567	0.794	0.078
Mof_H 	H 	0.3329	0.7532	0.7091	0.035
Mof_H 	H 	0.4143	0.8195	0.6166	0.028
Mof_H 	H 	0.3526	0.7373	0.6259	0.044
Mof_H 	H 	0.5832	0.0599	0.7301	0.076
Mof_H 	H 	0.5615	0.0957	0.9142	0.062
Mof_H 	H 	0.634	0.1767	0.9149	0.04
Mof_H 	H 	0.6456	0.1584	0.8216	0.036
Mof_H 	H 	0.5627	0.5867	0.706	0.077
Mof_H 	H 	0.5441	0.6238	0.7909	0.036
Mof_H 	H 	0.7029	0.7977	0.8834	0.029
Mof_H 	H 	0.6114	0.7267	0.8741	0.045
Mof_H 	H 	0.8298	0.8531	0.7699	0.077
Mof_H 	H 	0.6815	0.6473	0.5858	0.062
Mof_H 	H 	0.7618	0.7191	0.5851	0.039
Mof_H 	H 	0.8368	0.824	0.6784	0.036
Mof_H 	H 	0.1193	0.9133	0.476	0.079
Mof_H 	H 	0.1671	0.8762	0.4203	0.036
Mof_H 	H 	0.0857	0.7023	0.4052	0.028
Mof_H 	H 	0.1474	0.7733	0.3847	0.044
Mof_H 	H 	0.9168	0.6469	0.4767	0.078
Mof_H 	H 	0.9385	0.8527	0.5342	0.063
Mof_H 	H 	0.866	0.7809	0.5427	0.039
Mof_H 	H 	0.8544	0.676	0.5128	0.036
Mof_H 	H 	0.9373	0.6433	0.024	0.076
Mof_H 	H 	0.9559	0.7468	0.0797	0.037
Mof_H 	H 	0.7971	0.6805	0.0948	0.029
Mof_H 	H 	0.8886	0.7627	0.1153	0.043
Mof_H 	H 	0.6702	0.4401	0.0233	0.085
Mof_H 	H 	0.8185	0.4043	0.9658	0.054
Mof_H 	H 	0.7382	0.3233	0.9573	0.049
Mof_H 	H 	0.6632	0.3416	0.9872	0.027
Mof_H 	H 	0.5867	0.206	0.0627	0.077
Mof_H 	H 	0.6238	0.2909	0.0441	0.034
Mof_H 	H 	0.7977	0.3834	0.2029	0.029
Mof_H 	H 	0.7267	0.3741	0.1114	0.043
Mof_H 	H 	0.8531	0.2699	0.3298	0.077
Mof_H 	H 	0.6473	0.0858	0.1815	0.061
Mof_H 	H 	0.7191	0.0851	0.2618	0.038
Mof_H 	H 	0.824	0.1784	0.3368	0.036
Mof_H 	H 	0.8567	0.294	0.8807	0.077
Mof_H 	H 	0.7532	0.2091	0.8329	0.036
Mof_H 	H 	0.8195	0.1166	0.9143	0.028
Mof_H 	H 	0.7373	0.1259	0.8526	0.044
Mof_H 	H 	0.0599	0.2301	0.0832	0.074
Mof_H 	H 	0.0957	0.4142	0.0615	0.06
Mof_H 	H 	0.1767	0.4149	0.134	0.039
Mof_H 	H 	0.1584	0.3216	0.1456	0.036
Mof_H 	H 	0.6433	0.524	0.4373	0.077
Mof_H 	H 	0.7468	0.5797	0.4559	0.036
Mof_H 	H 	0.6805	0.5948	0.2971	0.029
Mof_H 	H 	0.7627	0.6153	0.3886	0.044
Mof_H 	H 	0.4401	0.5233	0.1702	0.077
Mof_H 	H 	0.4043	0.4658	0.3185	0.062
Mof_H 	H 	0.3233	0.4573	0.2382	0.039
Mof_H 	H 	0.3416	0.4872	0.1632	0.035
Mof_H 	H 	0.9133	0.976	0.6193	0.08
Mof_H 	H 	0.8762	0.9203	0.6671	0.036
Mof_H 	H 	0.7023	0.9052	0.5857	0.028
Mof_H 	H 	0.7733	0.8847	0.6474	0.045
Mof_H 	H 	0.6469	0.9767	0.4168	0.071
Mof_H 	H 	0.8527	0.0342	0.4385	0.067
Mof_H 	H 	0.7809	0.0427	0.366	0.033
Mof_H 	H 	0.676	0.0128	0.3544	0.042
Mof_H 	H 	0.524	0.9373	0.1433	0.078
Mof_H 	H 	0.5797	0.9559	0.2468	0.037
Mof_H 	H 	0.5948	0.7971	0.1805	0.029
Mof_H 	H 	0.6153	0.8886	0.2627	0.044
Mof_H 	H 	0.5233	0.6702	0.9401	0.079
Mof_H 	H 	0.4658	0.8185	0.9043	0.062
Mof_H 	H 	0.4573	0.7382	0.8233	0.039
Mof_H 	H 	0.4872	0.6632	0.8416	0.035
Mof_H 	H 	0.976	0.1193	0.4133	0.079
Mof_H 	H 	0.9203	0.1671	0.3762	0.035
Mof_H 	H 	0.9052	0.0857	0.2023	0.028
Mof_H 	H 	0.8847	0.1474	0.2733	0.044
Mof_H 	H 	0.9767	0.9168	0.1469	0.074
Mof_H 	H 	0.0342	0.9385	0.3527	0.067
Mof_H 	H 	0.0427	0.866	0.2809	0.035
Mof_H 	H 	0.0128	0.8544	0.176	0.04
Mof_H 	H 	0.206	0.5627	0.0867	0.077
Mof_H 	H 	0.2909	0.5441	0.1238	0.035
Mof_H 	H 	0.3834	0.7029	0.2977	0.028
Mof_H 	H 	0.3741	0.6114	0.2267	0.044
Mof_H 	H 	0.2699	0.8298	0.3531	0.077
Mof_H 	H 	0.0858	0.6815	0.1473	0.061
Mof_H 	H 	0.0851	0.7618	0.2191	0.039
Mof_H 	H 	0.1784	0.8368	0.324	0.036
Mof_H 	H 	0.294	0.3807	0.3567	0.078
Mof_H 	H 	0.2091	0.3329	0.2532	0.035
Mof_H 	H 	0.1166	0.4143	0.3195	0.028
Mof_H 	H 	0.1259	0.3526	0.2373	0.044
Mof_H 	H 	0.2301	0.5832	0.5599	0.077
Mof_H 	H 	0.4142	0.5615	0.5957	0.062
Mof_H 	H 	0.4149	0.634	0.6767	0.039
Mof_H 	H 	0.3216	0.6456	0.6584	0.036
Mof_C 	C 	0.1751	0.1429	0.2362	0.063
Mof_C 	C 	0.2391	0.1886	0.2925	0.034
Mof_C 	C 	0.1302	0.0896	0.2394	-0.094
Mof_C 	C 	0.1518	0.0796	0.2906	-0.004
Mof_C 	C 	0.2566	0.1747	0.3457	-0.056
Mof_C 	C 	0.213	0.1206	0.3404	-0.052
Mof_C 	C 	0.0899	0.1074	0.1223	0.412
Mof_C 	C 	0.3113	0.2992	0.2335	-0.098
Mof_C 	C 	0.1884	0.2112	0.1232	-0.077
Mof_C 	C 	0.2681	0.2499	0.2366	0.052
Mof_C 	C 	0.1573	0.1521	0.1824	-0.129
Mof_C 	C 	0.2302	0.2577	0.1225	-0.034
Mof_C 	C 	0.2041	0.204	0.1813	0.042
Mof_C 	C 	0.2941	0.3034	0.1795	-0.019
Mof_C 	C 	0.285	0.2417	0.2937	-0.123
Mof_C 	C 	0.3507	0.2901	0.3546	0.375
Mof_C 	C 	0.4067	0.9389	0.2638	0.062
Mof_C 	C 	0.3961	0.9466	0.2075	0.035
Mof_C 	C 	0.3502	0.8908	0.2606	-0.092
Mof_C 	C 	0.289	0.8612	0.2094	-0.005
Mof_C 	C 	0.329	0.9109	0.1543	-0.056
Mof_C 	C 	0.2802	0.8726	0.1596	-0.05
Mof_C 	C 	0.4851	0.9676	0.3777	0.411
Mof_C 	C 	0.5657	0.0778	0.2665	-0.097
Mof_C 	C 	0.588	0.0652	0.3768	-0.075
Mof_C 	C 	0.5133	0.0315	0.2634	0.049
Mof_C 	C 	0.4697	0.9749	0.3176	-0.124
Mof_C 	C 	0.6352	0.1077	0.3775	-0.036
Mof_C 	C 	0.5227	0.0228	0.3187	0.037
Mof_C 	C 	0.6239	0.1146	0.3205	-0.019
Mof_C 	C 	0.448	0.9913	0.2063	-0.12
Mof_C 	C 	0.4355	0.9961	0.1454	0.38
Mof_C 	C 	0.0933	0.3571	0.5322	0.062
Mof_C 	C 	0.1039	0.3114	0.5505	0.036
Mof_C 	C 	0.1498	0.4104	0.5406	-0.093
Mof_C 	C 	0.211	0.4204	0.5722	-0.005
Mof_C 	C 	0.171	0.3253	0.5819	-0.057
Mof_C 	C 	0.2198	0.3794	0.5924	-0.05
Mof_C 	C 	0.0149	0.3926	0.4825	0.407
Mof_C 	C 	0.9343	0.2008	0.5121	-0.101
Mof_C 	C 	0.912	0.2888	0.4772	-0.076
Mof_C 	C 	0.9867	0.2501	0.5182	0.058
Mof_C 	C 	0.0303	0.3479	0.5052	-0.131
Mof_C 	C 	0.8648	0.2423	0.4725	-0.035
Mof_C 	C 	0.9773	0.296	0.5001	0.045
Mof_C 	C 	0.8761	0.1966	0.4907	-0.017
Mof_C 	C 	0.052	0.2583	0.5433	-0.128
Mof_C 	C 	0.0645	0.2099	0.5606	0.376
Mof_C 	C 	0.3249	0.5611	0.9678	0.064
Mof_C 	C 	0.2609	0.5534	0.9495	0.033
Mof_C 	C 	0.3698	0.6092	0.9594	-0.094
Mof_C 	C 	0.3482	0.6388	0.9278	-0.002
Mof_C 	C 	0.2434	0.5891	0.9181	-0.054
Mof_C 	C 	0.287	0.6274	0.9076	-0.053
Mof_C 	C 	0.4101	0.5324	0.0175	0.404
Mof_C 	C 	0.1887	0.4222	0.9879	-0.08
Mof_C 	C 	0.3116	0.4348	0.0228	-0.092
Mof_C 	C 	0.2319	0.4685	0.9818	0.044
Mof_C 	C 	0.3427	0.5251	0.9948	-0.127
Mof_C 	C 	0.2698	0.3923	0.0275	-0.018
Mof_C 	C 	0.2959	0.4772	0.9999	0.052
Mof_C 	C 	0.2059	0.3854	0.0093	-0.038
Mof_C 	C 	0.215	0.5087	0.9567	-0.119
Mof_C 	C 	0.1493	0.5039	0.9394	0.374
Mof_C 	C 	0.0322	0.0933	0.8571	0.062
Mof_C 	C 	0.0505	0.1039	0.8114	0.037
Mof_C 	C 	0.0406	0.1498	0.9104	-0.092
Mof_C 	C 	0.0722	0.211	0.9204	-0.006
Mof_C 	C 	0.0819	0.171	0.8253	-0.059
Mof_C 	C 	0.0924	0.2198	0.8794	-0.049
Mof_C 	C 	0.9825	0.0149	0.8926	0.422
Mof_C 	C 	0.0121	0.9343	0.7008	-0.122
Mof_C 	C 	0.9772	0.912	0.7888	-0.057
Mof_C 	C 	0.0182	0.9867	0.7501	0.068
Mof_C 	C 	0.0052	0.0303	0.8479	-0.135
Mof_C 	C 	0.9725	0.8648	0.7423	-0.054
Mof_C 	C 	0.0001	0.9773	0.796	0.033
Mof_C 	C 	0.9907	0.8761	0.6966	0.007
Mof_C 	C 	0.0433	0.052	0.7583	-0.132
Mof_C 	C 	0.0606	0.0645	0.7099	0.377
Mof_C 	C 	0.4678	0.3249	0.0611	0.064
Mof_C 	C 	0.4495	0.2609	0.0534	0.034
Mof_C 	C 	0.4594	0.3698	0.1092	-0.095
Mof_C 	C 	0.4278	0.3482	0.1388	-0.003
Mof_C 	C 	0.4181	0.2434	0.0891	-0.056
Mof_C 	C 	0.4076	0.287	0.1274	-0.052
Mof_C 	C 	0.5175	0.4101	0.0324	0.413
Mof_C 	C 	0.4879	0.1887	0.9222	-0.098
Mof_C 	C 	0.5228	0.3116	0.9348	-0.078
Mof_C 	C 	0.4818	0.2319	0.9685	0.056
Mof_C 	C 	0.4948	0.3427	0.0251	-0.134
Mof_C 	C 	0.5275	0.2698	0.8923	-0.032
Mof_C 	C 	0.4999	0.2959	0.9772	0.047
Mof_C 	C 	0.5093	0.2059	0.8854	-0.019
Mof_C 	C 	0.4567	0.215	0.0087	-0.125
Mof_C 	C 	0.4394	0.1493	0.0039	0.371
Mof_C 	C 	0.7362	0.1751	0.6429	0.063
Mof_C 	C 	0.7925	0.2391	0.6886	0.035
Mof_C 	C 	0.7394	0.1302	0.5896	-0.093
Mof_C 	C 	0.7906	0.1518	0.5796	-0.004
Mof_C 	C 	0.8457	0.2566	0.6747	-0.056
Mof_C 	C 	0.8404	0.213	0.6206	-0.051
Mof_C 	C 	0.6223	0.0899	0.6074	0.412
Mof_C 	C 	0.7335	0.3113	0.7992	-0.098
Mof_C 	C 	0.6232	0.1884	0.7112	-0.076
Mof_C 	C 	0.7366	0.2681	0.7499	0.052
Mof_C 	C 	0.6824	0.1573	0.6521	-0.129
Mof_C 	C 	0.6225	0.2302	0.7577	-0.034
Mof_C 	C 	0.6813	0.2041	0.704	0.042
Mof_C 	C 	0.6795	0.2941	0.8034	-0.019
Mof_C 	C 	0.7937	0.285	0.7417	-0.122
Mof_C 	C 	0.8546	0.3507	0.7901	0.375
Mof_C 	C 	0.7638	0.4067	0.4389	0.063
Mof_C 	C 	0.7075	0.3961	0.4466	0.035
Mof_C 	C 	0.7606	0.3502	0.3908	-0.093
Mof_C 	C 	0.7094	0.289	0.3612	-0.004
Mof_C 	C 	0.6543	0.329	0.4109	-0.056
Mof_C 	C 	0.6596	0.2802	0.3726	-0.051
Mof_C 	C 	0.8777	0.4851	0.4676	0.411
Mof_C 	C 	0.7665	0.5657	0.5778	-0.098
Mof_C 	C 	0.8768	0.588	0.5652	-0.076
Mof_C 	C 	0.7634	0.5133	0.5315	0.052
Mof_C 	C 	0.8176	0.4697	0.4749	-0.128
Mof_C 	C 	0.8775	0.6352	0.6077	-0.034
Mof_C 	C 	0.8187	0.5227	0.5228	0.042
Mof_C 	C 	0.8205	0.6239	0.6146	-0.019
Mof_C 	C 	0.7063	0.448	0.4913	-0.123
Mof_C 	C 	0.6454	0.4355	0.4961	0.375
Mof_C 	C 	0.9389	0.7638	0.9067	0.063
Mof_C 	C 	0.9466	0.7075	0.8961	0.035
Mof_C 	C 	0.8908	0.7606	0.8502	-0.092
Mof_C 	C 	0.8612	0.7094	0.789	-0.004
Mof_C 	C 	0.9109	0.6543	0.829	-0.055
Mof_C 	C 	0.8726	0.6596	0.7802	-0.051
Mof_C 	C 	0.9676	0.8777	0.9851	0.416
Mof_C 	C 	0.0778	0.7665	0.0657	-0.095
Mof_C 	C 	0.0652	0.8768	0.088	-0.075
Mof_C 	C 	0.0315	0.7634	0.0133	0.046
Mof_C 	C 	0.9749	0.8176	0.9697	-0.122
Mof_C 	C 	0.1077	0.8775	0.1352	-0.035
Mof_C 	C 	0.0228	0.8187	0.0227	0.037
Mof_C 	C 	0.1146	0.8205	0.1239	-0.02
Mof_C 	C 	0.9913	0.7063	0.948	-0.116
Mof_C 	C 	0.9961	0.6454	0.9355	0.381
Mof_C 	C 	0.1429	0.7362	0.6751	0.063
Mof_C 	C 	0.1886	0.7925	0.7391	0.035
Mof_C 	C 	0.0896	0.7394	0.6302	-0.094
Mof_C 	C 	0.0796	0.7906	0.6518	-0.004
Mof_C 	C 	0.1747	0.8457	0.7566	-0.056
Mof_C 	C 	0.1206	0.8404	0.713	-0.051
Mof_C 	C 	0.1074	0.6223	0.5899	0.412
Mof_C 	C 	0.2992	0.7335	0.8113	-0.098
Mof_C 	C 	0.2112	0.6232	0.6884	-0.077
Mof_C 	C 	0.2499	0.7366	0.7681	0.052
Mof_C 	C 	0.1521	0.6824	0.6573	-0.129
Mof_C 	C 	0.2577	0.6225	0.7302	-0.034
Mof_C 	C 	0.204	0.6813	0.7041	0.042
Mof_C 	C 	0.3034	0.6795	0.7941	-0.019
Mof_C 	C 	0.2417	0.7937	0.785	-0.122
Mof_C 	C 	0.2901	0.8546	0.8507	0.375
Mof_C 	C 	0.5611	0.4678	0.8249	0.063
Mof_C 	C 	0.5534	0.4495	0.7609	0.035
Mof_C 	C 	0.6092	0.4594	0.8698	-0.093
Mof_C 	C 	0.6388	0.4278	0.8482	-0.003
Mof_C 	C 	0.5891	0.4181	0.7434	-0.056
Mof_C 	C 	0.6274	0.4076	0.787	-0.051
Mof_C 	C 	0.5324	0.5175	0.9101	0.411
Mof_C 	C 	0.4222	0.4879	0.6887	-0.098
Mof_C 	C 	0.4348	0.5228	0.8116	-0.076
Mof_C 	C 	0.4685	0.4818	0.7319	0.052
Mof_C 	C 	0.5251	0.4948	0.8427	-0.128
Mof_C 	C 	0.3923	0.5275	0.7698	-0.034
Mof_C 	C 	0.4772	0.4999	0.7959	0.042
Mof_C 	C 	0.3854	0.5093	0.7059	-0.019
Mof_C 	C 	0.5087	0.4567	0.715	-0.123
Mof_C 	C 	0.5039	0.4394	0.6493	0.375
Mof_C 	C 	0.3571	0.0322	0.5933	0.061
Mof_C 	C 	0.3114	0.0505	0.6039	0.037
Mof_C 	C 	0.4104	0.0406	0.6498	-0.092
Mof_C 	C 	0.4204	0.0722	0.711	-0.006
Mof_C 	C 	0.3253	0.0819	0.671	-0.059
Mof_C 	C 	0.3794	0.0924	0.7198	-0.049
Mof_C 	C 	0.3926	0.9825	0.5149	0.419
Mof_C 	C 	0.2008	0.0121	0.4343	-0.121
Mof_C 	C 	0.2888	0.9772	0.412	-0.056
Mof_C 	C 	0.2501	0.0182	0.4867	0.064
Mof_C 	C 	0.3479	0.0052	0.5303	-0.129
Mof_C 	C 	0.2423	0.9725	0.3648	-0.055
Mof_C 	C 	0.296	0.0001	0.4773	0.029
Mof_C 	C 	0.1966	0.9907	0.3761	0.007
Mof_C 	C 	0.2583	0.0433	0.552	-0.128
Mof_C 	C 	0.2099	0.0606	0.5645	0.377
Mof_C 	C 	0.4389	0.9067	0.7638	0.063
Mof_C 	C 	0.4466	0.8961	0.7075	0.034
Mof_C 	C 	0.3908	0.8502	0.7606	-0.093
Mof_C 	C 	0.3612	0.789	0.7094	-0.003
Mof_C 	C 	0.4109	0.829	0.6543	-0.055
Mof_C 	C 	0.3726	0.7802	0.6596	-0.052
Mof_C 	C 	0.4676	0.9851	0.8777	0.415
Mof_C 	C 	0.5778	0.0657	0.7665	-0.096
Mof_C 	C 	0.5652	0.088	0.8768	-0.076
Mof_C 	C 	0.5315	0.0133	0.7634	0.049
Mof_C 	C 	0.4749	0.9697	0.8176	-0.126
Mof_C 	C 	0.6077	0.1352	0.8775	-0.033
Mof_C 	C 	0.5228	0.0227	0.8187	0.04
Mof_C 	C 	0.6146	0.1239	0.8205	-0.02
Mof_C 	C 	0.4913	0.948	0.7063	-0.119
Mof_C 	C 	0.4961	0.9355	0.6454	0.375
Mof_C 	C 	0.6429	0.6751	0.7362	0.063
Mof_C 	C 	0.6886	0.7391	0.7925	0.035
Mof_C 	C 	0.5896	0.6302	0.7394	-0.093
Mof_C 	C 	0.5796	0.6518	0.7906	-0.004
Mof_C 	C 	0.6747	0.7566	0.8457	-0.056
Mof_C 	C 	0.6206	0.713	0.8404	-0.051
Mof_C 	C 	0.6074	0.5899	0.6223	0.412
Mof_C 	C 	0.7992	0.8113	0.7335	-0.098
Mof_C 	C 	0.7112	0.6884	0.6232	-0.076
Mof_C 	C 	0.7499	0.7681	0.7366	0.052
Mof_C 	C 	0.6521	0.6573	0.6824	-0.129
Mof_C 	C 	0.7577	0.7302	0.6225	-0.034
Mof_C 	C 	0.704	0.7041	0.6813	0.042
Mof_C 	C 	0.8034	0.7941	0.6795	-0.019
Mof_C 	C 	0.7417	0.785	0.7937	-0.122
Mof_C 	C 	0.7901	0.8507	0.8546	0.375
Mof_C 	C 	0.0611	0.8249	0.4678	0.064
Mof_C 	C 	0.0534	0.7609	0.4495	0.034
Mof_C 	C 	0.1092	0.8698	0.4594	-0.094
Mof_C 	C 	0.1388	0.8482	0.4278	-0.003
Mof_C 	C 	0.0891	0.7434	0.4181	-0.055
Mof_C 	C 	0.1274	0.787	0.4076	-0.052
Mof_C 	C 	0.0324	0.9101	0.5175	0.412
Mof_C 	C 	0.9222	0.6887	0.4879	-0.098
Mof_C 	C 	0.9348	0.8116	0.5228	-0.078
Mof_C 	C 	0.9685	0.7319	0.4818	0.055
Mof_C 	C 	0.0251	0.8427	0.4948	-0.133
Mof_C 	C 	0.8923	0.7698	0.5275	-0.033
Mof_C 	C 	0.9772	0.7959	0.4999	0.046
Mof_C 	C 	0.8854	0.7059	0.5093	-0.019
Mof_C 	C 	0.0087	0.715	0.4567	-0.125
Mof_C 	C 	0.0039	0.6493	0.4394	0.371
Mof_C 	C 	0.8571	0.5933	0.0322	0.061
Mof_C 	C 	0.8114	0.6039	0.0505	0.038
Mof_C 	C 	0.9104	0.6498	0.0406	-0.092
Mof_C 	C 	0.9204	0.711	0.0722	-0.006
Mof_C 	C 	0.8253	0.671	0.0819	-0.059
Mof_C 	C 	0.8794	0.7198	0.0924	-0.049
Mof_C 	C 	0.8926	0.5149	0.9825	0.423
Mof_C 	C 	0.7008	0.4343	0.0121	-0.125
Mof_C 	C 	0.7888	0.412	0.9772	-0.051
Mof_C 	C 	0.7501	0.4867	0.0182	0.066
Mof_C 	C 	0.8479	0.5303	0.0052	-0.13
Mof_C 	C 	0.7423	0.3648	0.9725	-0.059
Mof_C 	C 	0.796	0.4773	0.0001	0.026
Mof_C 	C 	0.6966	0.3761	0.9907	0.011
Mof_C 	C 	0.7583	0.552	0.0433	-0.129
Mof_C 	C 	0.7099	0.5645	0.0606	0.377
Mof_C 	C 	0.6751	0.2362	0.1429	0.063
Mof_C 	C 	0.7391	0.2925	0.1886	0.034
Mof_C 	C 	0.6302	0.2394	0.0896	-0.094
Mof_C 	C 	0.6518	0.2906	0.0796	-0.004
Mof_C 	C 	0.7566	0.3457	0.1747	-0.056
Mof_C 	C 	0.713	0.3404	0.1206	-0.052
Mof_C 	C 	0.5899	0.1223	0.1074	0.412
Mof_C 	C 	0.8113	0.2335	0.2992	-0.098
Mof_C 	C 	0.6884	0.1232	0.2112	-0.076
Mof_C 	C 	0.7681	0.2366	0.2499	0.052
Mof_C 	C 	0.6573	0.1824	0.1521	-0.129
Mof_C 	C 	0.7302	0.1225	0.2577	-0.034
Mof_C 	C 	0.7041	0.1813	0.204	0.042
Mof_C 	C 	0.7941	0.1795	0.3034	-0.019
Mof_C 	C 	0.785	0.2937	0.2417	-0.123
Mof_C 	C 	0.8507	0.3546	0.2901	0.375
Mof_C 	C 	0.9067	0.2638	0.9389	0.062
Mof_C 	C 	0.8961	0.2075	0.9466	0.034
Mof_C 	C 	0.8502	0.2606	0.8908	-0.092
Mof_C 	C 	0.789	0.2094	0.8612	-0.004
Mof_C 	C 	0.829	0.1543	0.9109	-0.055
Mof_C 	C 	0.7802	0.1596	0.8726	-0.051
Mof_C 	C 	0.9851	0.3777	0.9676	0.417
Mof_C 	C 	0.0657	0.2665	0.0778	-0.095
Mof_C 	C 	0.088	0.3768	0.0652	-0.074
Mof_C 	C 	0.0133	0.2634	0.0315	0.045
Mof_C 	C 	0.9697	0.3176	0.9749	-0.12
Mof_C 	C 	0.1352	0.3775	0.1077	-0.035
Mof_C 	C 	0.0227	0.3187	0.0228	0.034
Mof_C 	C 	0.1239	0.3205	0.1146	-0.021
Mof_C 	C 	0.948	0.2063	0.9913	-0.114
Mof_C 	C 	0.9355	0.1454	0.9961	0.382
Mof_C 	C 	0.5933	0.5322	0.3571	0.063
Mof_C 	C 	0.6039	0.5505	0.3114	0.035
Mof_C 	C 	0.6498	0.5406	0.4104	-0.093
Mof_C 	C 	0.711	0.5722	0.4204	-0.004
Mof_C 	C 	0.671	0.5819	0.3253	-0.056
Mof_C 	C 	0.7198	0.5924	0.3794	-0.051
Mof_C 	C 	0.5149	0.4825	0.3926	0.412
Mof_C 	C 	0.4343	0.5121	0.2008	-0.098
Mof_C 	C 	0.412	0.4772	0.2888	-0.076
Mof_C 	C 	0.4867	0.5182	0.2501	0.052
Mof_C 	C 	0.5303	0.5052	0.3479	-0.129
Mof_C 	C 	0.3648	0.4725	0.2423	-0.034
Mof_C 	C 	0.4773	0.5001	0.296	0.042
Mof_C 	C 	0.3761	0.4907	0.1966	-0.019
Mof_C 	C 	0.552	0.5433	0.2583	-0.123
Mof_C 	C 	0.5645	0.5606	0.2099	0.375
Mof_C 	C 	0.8249	0.9678	0.5611	0.065
Mof_C 	C 	0.7609	0.9495	0.5534	0.032
Mof_C 	C 	0.8698	0.9594	0.6092	-0.095
Mof_C 	C 	0.8482	0.9278	0.6388	-0.001
Mof_C 	C 	0.7434	0.9181	0.5891	-0.053
Mof_C 	C 	0.787	0.9076	0.6274	-0.053
Mof_C 	C 	0.9101	0.0175	0.5324	0.405
Mof_C 	C 	0.6887	0.9879	0.4222	-0.079
Mof_C 	C 	0.8116	0.0228	0.4348	-0.093
Mof_C 	C 	0.7319	0.9818	0.4685	0.043
Mof_C 	C 	0.8427	0.9948	0.5251	-0.128
Mof_C 	C 	0.7698	0.0275	0.3923	-0.017
Mof_C 	C 	0.7959	0.9999	0.4772	0.053
Mof_C 	C 	0.7059	0.0093	0.3854	-0.04
Mof_C 	C 	0.715	0.9567	0.5087	-0.118
Mof_C 	C 	0.6493	0.9394	0.5039	0.374
Mof_C 	C 	0.5322	0.8571	0.0933	0.062
Mof_C 	C 	0.5505	0.8114	0.1039	0.036
Mof_C 	C 	0.5406	0.9104	0.1498	-0.092
Mof_C 	C 	0.5722	0.9204	0.211	-0.005
Mof_C 	C 	0.5819	0.8253	0.171	-0.057
Mof_C 	C 	0.5924	0.8794	0.2198	-0.05
Mof_C 	C 	0.4825	0.8926	0.0149	0.408
Mof_C 	C 	0.5121	0.7008	0.9343	-0.101
Mof_C 	C 	0.4772	0.7888	0.912	-0.076
Mof_C 	C 	0.5182	0.7501	0.9867	0.057
Mof_C 	C 	0.5052	0.8479	0.0303	-0.13
Mof_C 	C 	0.4725	0.7423	0.8648	-0.035
Mof_C 	C 	0.5001	0.796	0.9773	0.044
Mof_C 	C 	0.4907	0.6966	0.8761	-0.017
Mof_C 	C 	0.5433	0.7583	0.052	-0.127
Mof_C 	C 	0.5606	0.7099	0.0645	0.376
Mof_C 	C 	0.9678	0.0611	0.3249	0.064
Mof_C 	C 	0.9495	0.0534	0.2609	0.034
Mof_C 	C 	0.9594	0.1092	0.3698	-0.094
Mof_C 	C 	0.9278	0.1388	0.3482	-0.002
Mof_C 	C 	0.9181	0.0891	0.2434	-0.055
Mof_C 	C 	0.9076	0.1274	0.287	-0.052
Mof_C 	C 	0.0175	0.0324	0.4101	0.403
Mof_C 	C 	0.9879	0.9222	0.1887	-0.086
Mof_C 	C 	0.0228	0.9348	0.3116	-0.088
Mof_C 	C 	0.9818	0.9685	0.2319	0.05
Mof_C 	C 	0.9948	0.0251	0.3427	-0.129
Mof_C 	C 	0.0275	0.8923	0.2698	-0.022
Mof_C 	C 	0.9999	0.9772	0.2959	0.052
Mof_C 	C 	0.0093	0.8854	0.2059	-0.032
Mof_C 	C 	0.9567	0.0087	0.215	-0.122
Mof_C 	C 	0.9394	0.0039	0.1493	0.371
Mof_C 	C 	0.2362	0.6429	0.1751	0.063
Mof_C 	C 	0.2925	0.6886	0.2391	0.034
Mof_C 	C 	0.2394	0.5896	0.1302	-0.093
Mof_C 	C 	0.2906	0.5796	0.1518	-0.004
Mof_C 	C 	0.3457	0.6747	0.2566	-0.056
Mof_C 	C 	0.3404	0.6206	0.213	-0.051
Mof_C 	C 	0.1223	0.6074	0.0899	0.412
Mof_C 	C 	0.2335	0.7992	0.3113	-0.098
Mof_C 	C 	0.1232	0.7112	0.1884	-0.076
Mof_C 	C 	0.2366	0.7499	0.2681	0.052
Mof_C 	C 	0.1824	0.6521	0.1573	-0.129
Mof_C 	C 	0.1225	0.7577	0.2302	-0.034
Mof_C 	C 	0.1813	0.704	0.2041	0.042
Mof_C 	C 	0.1795	0.8034	0.2941	-0.019
Mof_C 	C 	0.2937	0.7417	0.285	-0.123
Mof_C 	C 	0.3546	0.7901	0.3507	0.375
Mof_C 	C 	0.2638	0.4389	0.4067	0.063
Mof_C 	C 	0.2075	0.4466	0.3961	0.034
Mof_C 	C 	0.2606	0.3908	0.3502	-0.093
Mof_C 	C 	0.2094	0.3612	0.289	-0.004
Mof_C 	C 	0.1543	0.4109	0.329	-0.056
Mof_C 	C 	0.1596	0.3726	0.2802	-0.051
Mof_C 	C 	0.3777	0.4676	0.4851	0.412
Mof_C 	C 	0.2665	0.5778	0.5657	-0.098
Mof_C 	C 	0.3768	0.5652	0.588	-0.076
Mof_C 	C 	0.2634	0.5315	0.5133	0.052
Mof_C 	C 	0.3176	0.4749	0.4697	-0.129
Mof_C 	C 	0.3775	0.6077	0.6352	-0.034
Mof_C 	C 	0.3187	0.5228	0.5227	0.042
Mof_C 	C 	0.3205	0.6146	0.6239	-0.019
Mof_C 	C 	0.2063	0.4913	0.448	-0.123
Mof_C 	C 	0.1454	0.4961	0.4355	0.375
Mof_O 	O 	0.05136	0.13005	0.11631	-0.469
Mof_O 	O 	0.40154	0.29745	0.35025	-0.505
Mof_O 	O 	0.3511	0.3196	0.4077	-0.495
Mof_O 	O 	0.07564	0.05189	0.08713	-0.497
Mof_O 	O 	0.51374	0.93505	0.38369	-0.466
Mof_O 	O 	0.4472	0.05129	0.14975	-0.509
Mof_O 	O 	0.4119	0.9434	0.0923	-0.497
Mof_O 	O 	0.46476	0.98851	0.41287	-0.492
Mof_O 	O 	0.98626	0.36995	0.42131	-0.463
Mof_O 	O 	0.0528	0.20255	0.60409	-0.506
Mof_O 	O 	0.0881	0.1804	0.5315	-0.497
Mof_O 	O 	0.03524	0.44811	0.52375	-0.494
Mof_O 	O 	0.44864	0.56495	0.07869	-0.466
Mof_O 	O 	0.09846	0.44871	0.89591	-0.505
Mof_O 	O 	0.1489	0.5566	0.9685	-0.494
Mof_O 	O 	0.42436	0.51149	0.97625	-0.489
Mof_O 	O 	0.92131	0.98626	0.86995	-0.466
Mof_O 	O 	0.10409	0.0528	0.70255	-0.507
Mof_O 	O 	0.0315	0.0881	0.6804	-0.498
Mof_O 	O 	0.02375	0.03524	0.94811	-0.5
Mof_O 	O 	0.57869	0.44864	0.06495	-0.469
Mof_O 	O 	0.39591	0.09846	0.94871	-0.501
Mof_O 	O 	0.4685	0.1489	0.0566	-0.495
Mof_O 	O 	0.47625	0.42436	0.01149	-0.496
Mof_O 	O 	0.61631	0.05136	0.63005	-0.469
Mof_O 	O 	0.85025	0.40154	0.79745	-0.503
Mof_O 	O 	0.9077	0.3511	0.8196	-0.493
Mof_O 	O 	0.58713	0.07564	0.55189	-0.496
Mof_O 	O 	0.88369	0.51374	0.43505	-0.467
Mof_O 	O 	0.64975	0.4472	0.55129	-0.504
Mof_O 	O 	0.5923	0.4119	0.4434	-0.495
Mof_O 	O 	0.91287	0.46476	0.48851	-0.492
Mof_O 	O 	0.93505	0.88369	0.01374	-0.471
Mof_O 	O 	0.05129	0.64975	0.9472	-0.508
Mof_O 	O 	0.9434	0.5923	0.9119	-0.494
Mof_O 	O 	0.98851	0.91287	0.96476	-0.49
Mof_O 	O 	0.13005	0.61631	0.55136	-0.468
Mof_O 	O 	0.29745	0.85025	0.90154	-0.503
Mof_O 	O 	0.3196	0.9077	0.8511	-0.494
Mof_O 	O 	0.05189	0.58713	0.57564	-0.495
Mof_O 	O 	0.56495	0.57869	0.94864	-0.465
Mof_O 	O 	0.44871	0.39591	0.59846	-0.505
Mof_O 	O 	0.5566	0.4685	0.6489	-0.495
Mof_O 	O 	0.51149	0.47625	0.92436	-0.492
Mof_O 	O 	0.36995	0.92131	0.48626	-0.469
Mof_O 	O 	0.20255	0.10409	0.5528	-0.505
Mof_O 	O 	0.1804	0.0315	0.5881	-0.497
Mof_O 	O 	0.44811	0.02375	0.53524	-0.499
Mof_O 	O 	0.43505	0.01374	0.88369	-0.469
Mof_O 	O 	0.55129	0.9472	0.64975	-0.503
Mof_O 	O 	0.4434	0.9119	0.5923	-0.494
Mof_O 	O 	0.48851	0.96476	0.91287	-0.492
Mof_O 	O 	0.63005	0.55136	0.61631	-0.467
Mof_O 	O 	0.79745	0.90154	0.85025	-0.503
Mof_O 	O 	0.8196	0.8511	0.9077	-0.493
Mof_O 	O 	0.55189	0.57564	0.58713	-0.494
Mof_O 	O 	0.06495	0.94864	0.57869	-0.466
Mof_O 	O 	0.94871	0.59846	0.39591	-0.501
Mof_O 	O 	0.0566	0.6489	0.4685	-0.495
Mof_O 	O 	0.01149	0.92436	0.47625	-0.494
Mof_O 	O 	0.86995	0.48626	0.92131	-0.468
Mof_O 	O 	0.70255	0.5528	0.10409	-0.505
Mof_O 	O 	0.6804	0.5881	0.0315	-0.497
Mof_O 	O 	0.94811	0.53524	0.02375	-0.5
Mof_O 	O 	0.55136	0.11631	0.13005	-0.468
Mof_O 	O 	0.90154	0.35025	0.29745	-0.504
Mof_O 	O 	0.8511	0.4077	0.3196	-0.495
Mof_O 	O 	0.57564	0.08713	0.05189	-0.496
Mof_O 	O 	0.01374	0.38369	0.93505	-0.472
Mof_O 	O 	0.9472	0.14975	0.05129	-0.509
Mof_O 	O 	0.9119	0.0923	0.9434	-0.495
Mof_O 	O 	0.96476	0.41287	0.98851	-0.491
Mof_O 	O 	0.48626	0.42131	0.36995	-0.467
Mof_O 	O 	0.5528	0.60409	0.20255	-0.505
Mof_O 	O 	0.5881	0.5315	0.1804	-0.495
Mof_O 	O 	0.53524	0.52375	0.44811	-0.494
Mof_O 	O 	0.94864	0.07869	0.56495	-0.464
Mof_O 	O 	0.59846	0.89591	0.44871	-0.504
Mof_O 	O 	0.6489	0.9685	0.5566	-0.494
Mof_O 	O 	0.92436	0.97625	0.51149	-0.488
Mof_O 	O 	0.42131	0.86995	0.98626	-0.463
Mof_O 	O 	0.60409	0.70255	0.0528	-0.506
Mof_O 	O 	0.5315	0.6804	0.0881	-0.496
Mof_O 	O 	0.52375	0.94811	0.03524	-0.492
Mof_O 	O 	0.07869	0.06495	0.44864	-0.467
Mof_O 	O 	0.89591	0.94871	0.09846	-0.501
Mof_O 	O 	0.9685	0.0566	0.1489	-0.494
Mof_O 	O 	0.97625	0.01149	0.42436	-0.489
Mof_O 	O 	0.11631	0.63005	0.05136	-0.469
Mof_O 	O 	0.35025	0.79745	0.40154	-0.504
Mof_O 	O 	0.4077	0.8196	0.3511	-0.495
Mof_O 	O 	0.08713	0.55189	0.07564	-0.496
Mof_O 	O 	0.38369	0.43505	0.51374	-0.467
Mof_O 	O 	0.14975	0.55129	0.4472	-0.505
Mof_O 	O 	0.0923	0.4434	0.4119	-0.497
Mof_O 	O 	0.41287	0.48851	0.46476	-0.494
Mof_O 	O 	0.91686	0	-0	-0.964
Mof_O 	O 	0.5	0.91686	0.5	-0.959
Mof_O 	O 	-9.52818e-18	0.5	0.41686	-0.962
Mof_O 	O 	0.58314	0.58314	0.08314	-0.96
Mof_O 	O 	0.41686	0	-0	-0.964
Mof_O 	O 	0.5	0.41686	0.5	-0.96
Mof_O 	O 	0.08314	0.08314	0.58314	-0.961
Mof_O 	O 	5.71691e-17	0.5	0.91686	-0.962
_end
