data_functionalizedCrystal
_audit_creation_method	'EQeq! by Chris Wilmer'
_symmetry_space_group_name_H-M	'P1'
_symmetry_Int_Tables_number	1
_symmetry_cell_setting	triclinic
loop_
_symmetry_equiv_pos_as_xyz
  x,y,z
_cell_length_a	8.575
_cell_length_b	8.575
_cell_length_c	52.52
_cell_angle_alpha	90
_cell_angle_beta	90
_cell_angle_gamma	90
loop_
_atom_site_label
_atom_site_type_symbol
_atom_site_fract_x
_atom_site_fract_y
_atom_site_fract_z
_atom_site_charge
Mof_Cu	Cu	0.09043	0.44568	0.73745	0.924
Mof_Cu	Cu	0.3653	0.66125	0.98453	0.921
Mof_Cu	Cu	0.40957	0.55432	0.23745	0.924
Mof_Cu	Cu	0.1347	0.33875	0.48453	0.918
Mof_Cu	Cu	0.90957	0.94568	0.76255	0.924
Mof_Cu	Cu	0.6347	0.16125	0.51547	0.92
Mof_Cu	Cu	0.59043	0.05432	0.26255	0.925
Mof_Cu	Cu	0.8653	0.83875	0.01547	0.915
Mof_H 	H 	0.6118	0.7577	0.7631	0.23
Mof_H 	H 	0.5899	0.7765	0.7109	0.228
Mof_H 	H 	0.2459	0.2467	0.7006	0.011
Mof_H 	H 	0.2624	0.1985	0.6582	0.077
Mof_H 	H 	0.9301	0.5267	0.6471	0.073
Mof_H 	H 	0.9138	0.5585	0.6913	0.015
Mof_H 	H 	0.9579	0.328	0.7859	0.005
Mof_H 	H 	0.9931	0.357	0.8293	0.074
Mof_H 	H 	0.2977	0.7037	0.8146	0.091
Mof_H 	H 	0.2588	0.6648	0.772	0.021
Mof_H 	H 	0.095	0.4937	0.8647	0.061
Mof_H 	H 	0.3252	0.7134	0.8562	0.059
Mof_H 	H 	0.1194	0.4983	0.9042	0.086
Mof_H 	H 	0.1636	0.5065	0.9477	0.025
Mof_H 	H 	0.4744	0.8409	0.938	0.01
Mof_H 	H 	0.4442	0.8339	0.8949	0.086
Mof_H 	H 	0.2574	0.1951	0.5304	-0.012
Mof_H 	H 	0.2327	0.2142	0.5742	0.098
Mof_H 	H 	0.9002	0.5341	0.5651	0.092
Mof_H 	H 	0.9269	0.5069	0.5213	0.017
Mof_H 	H 	0.9573	0.464	0.607	0.091
Mof_H 	H 	0.1963	0.2593	0.6143	0.041
Mof_H 	H 	0.5944	0.4587	0.7551	0.072
Mof_H 	H 	0.5807	0.4694	0.7122	0.055
Mof_H 	H 	0.3765	0.1553	0.004	0.064
Mof_H 	H 	0.3916	0.1626	0.9607	0.059
Mof_H 	H 	0.6836	0.1706	0.0081	0.231
Mof_H 	H 	0.6966	0.1652	0.9595	0.221
Mof_H 	H 	0.8882	0.2423	0.2631	0.23
Mof_H 	H 	0.9101	0.2235	0.2109	0.227
Mof_H 	H 	0.2541	0.7533	0.2006	0.008
Mof_H 	H 	0.2376	0.8015	0.1582	0.087
Mof_H 	H 	0.5699	0.4733	0.1471	0.08
Mof_H 	H 	0.5862	0.4415	0.1913	0.012
Mof_H 	H 	0.5421	0.672	0.2859	0.007
Mof_H 	H 	0.5069	0.643	0.3293	0.09
Mof_H 	H 	0.2023	0.2963	0.3146	0.092
Mof_H 	H 	0.2412	0.3352	0.272	0.02
Mof_H 	H 	0.405	0.5063	0.3647	0.06
Mof_H 	H 	0.1748	0.2866	0.3562	0.056
Mof_H 	H 	0.3806	0.5017	0.4042	0.081
Mof_H 	H 	0.3364	0.4935	0.4477	0.022
Mof_H 	H 	0.0256	0.1591	0.438	0.004
Mof_H 	H 	0.0558	0.1661	0.3949	0.081
Mof_H 	H 	0.2426	0.8049	0.0304	-0.009
Mof_H 	H 	0.2673	0.7858	0.0742	0.101
Mof_H 	H 	0.5998	0.4659	0.0651	0.094
Mof_H 	H 	0.5731	0.4931	0.0213	0.018
Mof_H 	H 	0.5427	0.536	0.107	0.064
Mof_H 	H 	0.3037	0.7407	0.1143	0.055
Mof_H 	H 	0.9056	0.5413	0.2551	0.072
Mof_H 	H 	0.9193	0.5306	0.2122	0.054
Mof_H 	H 	0.1235	0.8447	0.504	0.064
Mof_H 	H 	0.1084	0.8374	0.4607	0.061
Mof_H 	H 	0.8164	0.8294	0.5081	0.228
Mof_H 	H 	0.8034	0.8348	0.4595	0.22
Mof_H 	H 	0.3882	0.2577	0.7369	0.23
Mof_H 	H 	0.4101	0.2765	0.7891	0.227
Mof_H 	H 	0.7541	0.7467	0.7994	0.012
Mof_H 	H 	0.7376	0.6985	0.8418	0.078
Mof_H 	H 	0.0699	0.0267	0.8529	0.072
Mof_H 	H 	0.0862	0.0585	0.8087	0.01
Mof_H 	H 	0.0421	0.828	0.7141	0.008
Mof_H 	H 	0.0069	0.857	0.6707	0.072
Mof_H 	H 	0.7023	0.2037	0.6854	0.089
Mof_H 	H 	0.7412	0.1648	0.728	0.024
Mof_H 	H 	0.905	0.9937	0.6353	0.069
Mof_H 	H 	0.6748	0.2134	0.6438	0.06
Mof_H 	H 	0.8806	0.9983	0.5958	0.099
Mof_H 	H 	0.8364	0.0065	0.5523	0.018
Mof_H 	H 	0.5256	0.3409	0.562	0.01
Mof_H 	H 	0.5558	0.3339	0.6051	0.088
Mof_H 	H 	0.7426	0.6951	0.9696	-0.01
Mof_H 	H 	0.7673	0.7142	0.9258	0.099
Mof_H 	H 	0.0998	0.0341	0.9349	0.096
Mof_H 	H 	0.0731	0.0069	0.9787	0.025
Mof_H 	H 	0.0427	0.964	0.893	0.091
Mof_H 	H 	0.8037	0.7593	0.8857	0.041
Mof_H 	H 	0.4056	0.9587	0.7449	0.077
Mof_H 	H 	0.4193	0.9694	0.7878	0.058
Mof_H 	H 	0.6235	0.6553	0.496	0.066
Mof_H 	H 	0.6084	0.6626	0.5393	0.057
Mof_H 	H 	0.3164	0.6706	0.4919	0.229
Mof_H 	H 	0.3034	0.6652	0.5405	0.221
Mof_H 	H 	0.1118	0.7423	0.2369	0.23
Mof_H 	H 	0.0899	0.7235	0.2891	0.225
Mof_H 	H 	0.7459	0.2533	0.2994	0.009
Mof_H 	H 	0.7624	0.3015	0.3418	0.089
Mof_H 	H 	0.4301	0.9733	0.3529	0.079
Mof_H 	H 	0.4138	0.9415	0.3087	0.007
Mof_H 	H 	0.4579	0.172	0.2141	0.011
Mof_H 	H 	0.4931	0.143	0.1707	0.086
Mof_H 	H 	0.7977	0.7963	0.1854	0.088
Mof_H 	H 	0.7588	0.8352	0.228	0.023
Mof_H 	H 	0.595	0.0063	0.1353	0.07
Mof_H 	H 	0.8252	0.7866	0.1438	0.056
Mof_H 	H 	0.6194	0.0017	0.0958	0.099
Mof_H 	H 	0.6636	0.9935	0.0523	0.014
Mof_H 	H 	0.9744	0.6591	0.062	0.004
Mof_H 	H 	0.9442	0.6661	0.1051	0.083
Mof_H 	H 	0.7574	0.3049	0.4696	-0.007
Mof_H 	H 	0.7327	0.2858	0.4258	0.102
Mof_H 	H 	0.4002	0.9659	0.4349	0.097
Mof_H 	H 	0.4269	0.9931	0.4787	0.026
Mof_H 	H 	0.4573	0.036	0.393	0.063
Mof_H 	H 	0.6963	0.2407	0.3857	0.056
Mof_H 	H 	0.0944	0.0413	0.2449	0.078
Mof_H 	H 	0.0807	0.0306	0.2878	0.057
Mof_H 	H 	0.8765	0.3447	0.996	0.065
Mof_H 	H 	0.8916	0.3374	0.0393	0.06
Mof_H 	H 	0.1836	0.3294	0.9919	0.226
Mof_H 	H 	0.1966	0.3348	0.0405	0.22
Mof_C 	C 	0.1795	0.303	0.6894	0.079
Mof_C 	C 	0.1922	0.276	0.6641	-0.136
Mof_C 	C 	0.1049	0.3591	0.647	0.066
Mof_C 	C 	0.9962	0.4674	0.6579	-0.109
Mof_C 	C 	0.9866	0.4866	0.6844	0.083
Mof_C 	C 	0.0292	0.4043	0.79198	0.093
Mof_C 	C 	0.0471	0.4233	0.81778	-0.134
Mof_C 	C 	0.1434	0.5382	0.82687	0.113
Mof_C 	C 	0.2261	0.6263	0.8091	-0.149
Mof_C 	C 	0.2041	0.6009	0.78373	0.097
Mof_C 	C 	0.1611	0.5558	0.8543	-0.076
Mof_C 	C 	0.2599	0.6494	0.8664	-0.08
Mof_C 	C 	0.2772	0.663	0.89409	0.109
Mof_C 	C 	0.1949	0.5686	0.9107	-0.139
Mof_C 	C 	0.2204	0.5743	0.93685	0.076
Mof_C 	C 	0.4023	0.7683	0.93109	0.097
Mof_C 	C 	0.3842	0.7659	0.9053	-0.159
Mof_C 	C 	0.1844	0.2668	0.53734	0.126
Mof_C 	C 	0.1685	0.2772	0.5636	-0.182
Mof_C 	C 	0.0635	0.375	0.5746	0.128
Mof_C 	C 	0.9745	0.4629	0.5584	-0.142
Mof_C 	C 	0.9924	0.4486	0.53234	0.111
Mof_C 	C 	0.0394	0.3965	0.6019	-0.143
Mof_C 	C 	0.1193	0.3322	0.6195	-0.035
Mof_C 	C 	0.7989	0.5776	0.74699	0.342
Mof_C 	C 	0.6213	0.5631	0.74782	-0.013
Mof_C 	C 	0.3783	0.5875	0.72232	0.325
Mof_C 	C 	0.5572	0.5711	0.72073	0.014
Mof_C 	C 	0.4818	0.1282	0.9971	-0.001
Mof_C 	C 	0.4981	0.3712	0.9703	0.31
Mof_C 	C 	0.4915	0.1914	0.96936	0.012
Mof_C 	C 	0.4946	0.9502	0.99627	0.337
Mof_C 	C 	0.3205	0.697	0.1894	0.093
Mof_C 	C 	0.3078	0.724	0.1641	-0.155
Mof_C 	C 	0.3951	0.6409	0.147	0.104
Mof_C 	C 	0.5038	0.5326	0.1579	-0.139
Mof_C 	C 	0.5134	0.5134	0.1844	0.087
Mof_C 	C 	0.4708	0.5957	0.29198	0.096
Mof_C 	C 	0.4529	0.5767	0.31778	-0.158
Mof_C 	C 	0.3566	0.4618	0.32687	0.122
Mof_C 	C 	0.2739	0.3737	0.3091	-0.156
Mof_C 	C 	0.2959	0.3991	0.28373	0.1
Mof_C 	C 	0.3389	0.4442	0.3543	-0.085
Mof_C 	C 	0.2401	0.3506	0.3664	-0.077
Mof_C 	C 	0.2228	0.337	0.39409	0.103
Mof_C 	C 	0.3051	0.4314	0.4107	-0.139
Mof_C 	C 	0.2796	0.4257	0.43685	0.072
Mof_C 	C 	0.0977	0.2317	0.43109	0.093
Mof_C 	C 	0.1158	0.2341	0.4053	-0.159
Mof_C 	C 	0.3156	0.7332	0.03734	0.131
Mof_C 	C 	0.3315	0.7228	0.0636	-0.177
Mof_C 	C 	0.4365	0.625	0.0746	0.137
Mof_C 	C 	0.5255	0.5371	0.0584	-0.159
Mof_C 	C 	0.5076	0.5514	0.03234	0.091
Mof_C 	C 	0.4606	0.6035	0.1019	-0.092
Mof_C 	C 	0.3807	0.6678	0.1195	-0.068
Mof_C 	C 	0.7011	0.4224	0.24699	0.343
Mof_C 	C 	0.8787	0.4369	0.24782	-0.012
Mof_C 	C 	0.1217	0.4125	0.22232	0.329
Mof_C 	C 	0.9428	0.4289	0.22073	0.01
Mof_C 	C 	0.0182	0.8718	0.4971	-0.013
Mof_C 	C 	0.0019	0.6288	0.4703	0.281
Mof_C 	C 	0.0085	0.8086	0.46936	-0.003
Mof_C 	C 	0.0054	0.0498	0.49627	0.306
Mof_C 	C 	0.8205	0.803	0.8106	0.08
Mof_C 	C 	0.8078	0.776	0.8359	-0.136
Mof_C 	C 	0.8951	0.8591	0.853	0.066
Mof_C 	C 	0.0038	0.9674	0.8421	-0.111
Mof_C 	C 	0.0134	0.9866	0.8156	0.09
Mof_C 	C 	0.9708	0.9043	0.70802	0.088
Mof_C 	C 	0.9529	0.9233	0.68222	-0.121
Mof_C 	C 	0.8566	0.0382	0.67313	0.103
Mof_C 	C 	0.7739	0.1263	0.6909	-0.142
Mof_C 	C 	0.7959	0.1009	0.71627	0.087
Mof_C 	C 	0.8389	0.0558	0.6457	-0.086
Mof_C 	C 	0.7401	0.1494	0.6336	-0.081
Mof_C 	C 	0.7228	0.163	0.60591	0.116
Mof_C 	C 	0.8051	0.0686	0.5893	-0.16
Mof_C 	C 	0.7796	0.0743	0.56315	0.084
Mof_C 	C 	0.5977	0.2683	0.56891	0.099
Mof_C 	C 	0.6158	0.2659	0.5947	-0.164
Mof_C 	C 	0.8156	0.7668	0.96266	0.126
Mof_C 	C 	0.8315	0.7772	0.9364	-0.182
Mof_C 	C 	0.9365	0.875	0.9254	0.129
Mof_C 	C 	0.0255	0.9629	0.9416	-0.146
Mof_C 	C 	0.0076	0.9486	0.96766	0.1
Mof_C 	C 	0.9606	0.8965	0.8981	-0.145
Mof_C 	C 	0.8807	0.8322	0.8805	-0.034
Mof_C 	C 	0.2011	0.0776	0.75301	0.337
Mof_C 	C 	0.3787	0.0631	0.75218	-0.019
Mof_C 	C 	0.6217	0.0875	0.77768	0.321
Mof_C 	C 	0.4428	0.0711	0.77927	0.011
Mof_C 	C 	0.5182	0.6282	0.5029	-0.011
Mof_C 	C 	0.5019	0.8712	0.5297	0.309
Mof_C 	C 	0.5085	0.6914	0.53064	0.015
Mof_C 	C 	0.5054	0.4502	0.50373	0.347
Mof_C 	C 	0.6795	0.197	0.3106	0.095
Mof_C 	C 	0.6922	0.224	0.3359	-0.156
Mof_C 	C 	0.6049	0.1409	0.353	0.105
Mof_C 	C 	0.4962	0.0326	0.3421	-0.141
Mof_C 	C 	0.4866	0.0134	0.3156	0.094
Mof_C 	C 	0.5292	0.0957	0.20802	0.089
Mof_C 	C 	0.5471	0.0767	0.18222	-0.139
Mof_C 	C 	0.6434	0.9618	0.17313	0.107
Mof_C 	C 	0.7261	0.8737	0.1909	-0.146
Mof_C 	C 	0.7041	0.8991	0.21627	0.085
Mof_C 	C 	0.6611	0.9442	0.1457	-0.096
Mof_C 	C 	0.7599	0.8506	0.1336	-0.079
Mof_C 	C 	0.7772	0.837	0.10591	0.112
Mof_C 	C 	0.6949	0.9314	0.0893	-0.167
Mof_C 	C 	0.7204	0.9257	0.06315	0.083
Mof_C 	C 	0.9023	0.7317	0.06891	0.096
Mof_C 	C 	0.8842	0.7341	0.0947	-0.165
Mof_C 	C 	0.6844	0.2332	0.46266	0.13
Mof_C 	C 	0.6685	0.2228	0.4364	-0.176
Mof_C 	C 	0.5635	0.125	0.4254	0.138
Mof_C 	C 	0.4745	0.0371	0.4416	-0.162
Mof_C 	C 	0.4924	0.0514	0.46766	0.08
Mof_C 	C 	0.5394	0.1035	0.3981	-0.092
Mof_C 	C 	0.6193	0.1678	0.3805	-0.068
Mof_C 	C 	0.2989	0.9224	0.25301	0.337
Mof_C 	C 	0.1213	0.9369	0.25218	-0.019
Mof_C 	C 	0.8783	0.9125	0.27768	0.321
Mof_C 	C 	0.0572	0.9289	0.27927	0.009
Mof_C 	C 	0.9818	0.3718	0.0029	-0.022
Mof_C 	C 	0.9981	0.1288	0.0297	0.281
Mof_C 	C 	0.9915	0.3086	0.03064	-0.001
Mof_C 	C 	0.9946	0.5498	0.00373	0.315
Mof_N 	N 	0.0772	0.4062	0.69968	-0.214
Mof_N 	N 	0.1105	0.4917	0.77469	-0.214
Mof_N 	N 	0.3261	0.6763	0.94714	-0.213
Mof_N 	N 	0.103	0.3518	0.52219	-0.236
Mof_N 	N 	0.4228	0.5938	0.19968	-0.213
Mof_N 	N 	0.3895	0.5083	0.27469	-0.215
Mof_N 	N 	0.1739	0.3237	0.44714	-0.214
Mof_N 	N 	0.397	0.6482	0.02219	-0.223
Mof_N 	N 	0.9228	0.9062	0.80032	-0.215
Mof_N 	N 	0.8895	0.9917	0.72531	-0.208
Mof_N 	N 	0.6739	0.1763	0.55286	-0.215
Mof_N 	N 	0.897	0.8518	0.97781	-0.236
Mof_N 	N 	0.5772	0.0938	0.30032	-0.214
Mof_N 	N 	0.6105	0.0083	0.22531	-0.207
Mof_N 	N 	0.8261	0.8237	0.05286	-0.218
Mof_N 	N 	0.603	0.1482	0.47781	-0.222
Mof_O 	O 	0.8647	0.4491	0.73847	-0.378
Mof_O 	O 	0.3159	0.4686	0.73412	-0.387
Mof_O 	O 	0.5552	0.6777	0.7633	-0.331
Mof_O 	O 	0.6241	0.6896	0.70603	-0.33
Mof_O 	O 	0.3864	0.4307	0.98131	-0.388
Mof_O 	O 	0.3783	0.8861	0.98496	-0.391
Mof_O 	O 	0.6046	0.8851	0.00603	-0.366
Mof_O 	O 	0.8692	0.6902	0.75362	-0.383
Mof_O 	O 	0.6146	0.4366	0.96035	-0.271
Mof_O 	O 	0.312	0.6936	0.71348	-0.287
Mof_O 	O 	0.5941	0.1975	0.0129	-0.328
Mof_O 	O 	0.6114	0.1239	0.95544	-0.327
Mof_O 	O 	0.6353	0.5509	0.23847	-0.379
Mof_O 	O 	0.1841	0.5314	0.23412	-0.387
Mof_O 	O 	0.9448	0.3223	0.2633	-0.329
Mof_O 	O 	0.8759	0.3104	0.20603	-0.33
Mof_O 	O 	0.1136	0.5693	0.48131	-0.386
Mof_O 	O 	0.1217	0.1139	0.48496	-0.386
Mof_O 	O 	0.8954	0.1149	0.50603	-0.339
Mof_O 	O 	0.6308	0.3098	0.25362	-0.383
Mof_O 	O 	0.8854	0.5634	0.46035	-0.246
Mof_O 	O 	0.188	0.3064	0.21348	-0.286
Mof_O 	O 	0.9059	0.8025	0.5129	-0.31
Mof_O 	O 	0.8886	0.8761	0.45544	-0.305
Mof_O 	O 	0.1353	0.9491	0.76153	-0.373
Mof_O 	O 	0.6841	0.9686	0.76588	-0.383
Mof_O 	O 	0.4448	0.1777	0.7367	-0.331
Mof_O 	O 	0.3759	0.1896	0.79397	-0.33
Mof_O 	O 	0.6136	0.9307	0.51869	-0.384
Mof_O 	O 	0.6217	0.3861	0.51504	-0.39
Mof_O 	O 	0.3954	0.3851	0.49397	-0.366
Mof_O 	O 	0.1308	0.1902	0.74638	-0.383
Mof_O 	O 	0.3854	0.9366	0.53965	-0.267
Mof_O 	O 	0.688	0.1936	0.78652	-0.288
Mof_O 	O 	0.4059	0.6975	0.4871	-0.327
Mof_O 	O 	0.3886	0.6239	0.54456	-0.33
Mof_O 	O 	0.3647	0.0509	0.26153	-0.374
Mof_O 	O 	0.8159	0.0314	0.26588	-0.381
Mof_O 	O 	0.0552	0.8223	0.2367	-0.329
Mof_O 	O 	0.1241	0.8104	0.29397	-0.331
Mof_O 	O 	0.8864	0.0693	0.01869	-0.381
Mof_O 	O 	0.8783	0.6139	0.01504	-0.386
Mof_O 	O 	0.1046	0.6149	0.99397	-0.34
Mof_O 	O 	0.3692	0.8098	0.24638	-0.383
Mof_O 	O 	0.1146	0.0634	0.03965	-0.241
Mof_O 	O 	0.812	0.8064	0.28652	-0.285
Mof_O 	O 	0.0941	0.3025	0.9871	-0.308
Mof_O 	O 	0.1114	0.3761	0.04456	-0.306
_end
