data_functionalizedCrystal
_audit_creation_method	'EQeq! by Chris Wilmer'
_symmetry_space_group_name_H-M	'P1'
_symmetry_Int_Tables_number	1
_symmetry_cell_setting	triclinic
loop_
_symmetry_equiv_pos_as_xyz
  x,y,z
_cell_length_a	26.49
_cell_length_b	26.49
_cell_length_c	27.35
_cell_angle_alpha	90
_cell_angle_beta	90
_cell_angle_gamma	90
loop_
_atom_site_label
_atom_site_type_symbol
_atom_site_fract_x
_atom_site_fract_y
_atom_site_fract_z
_atom_site_charge
Mof_N 	N 	0.612	0.78927	0.19139	-0.208
Mof_O 	O 	0.52464	0.57054	0.13711	-0.418
Mof_O 	O 	0.52686	0.56814	0.21822	-0.417
Mof_O 	O 	0.48897	0.93501	0.05058	-0.418
Mof_O 	O 	0.5637	0.97477	0.05014	-0.407
Mof_C 	C 	0.53315	0.58951	0.17791	0.399
Mof_C 	C 	0.55325	0.6424	0.1805	-0.182
Mof_C 	C 	0.56378	0.66356	0.22536	0.126
Mof_H 	H 	0.5584	0.6449	0.2537	0.002
Mof_C 	C 	0.58236	0.71233	0.22884	-0.227
Mof_H 	H 	0.5888	0.7264	0.2594	0.112
Mof_C 	C 	0.59123	0.7398	0.18733	0.193
Mof_C 	C 	0.58106	0.71878	0.14217	-0.231
Mof_H 	H 	0.587	0.7373	0.1139	0.111
Mof_C 	C 	0.56212	0.67051	0.13881	0.128
Mof_H 	H 	0.5552	0.6567	0.1083	-0.007
Mof_C 	C 	0.53401	0.9405	0.06409	0.379
Mof_C 	C 	0.55476	0.90233	0.0993	-0.17
Mof_C 	C 	0.60531	0.90201	0.11143	0.116
Mof_H 	H 	0.6267	0.9265	0.0986	0.001
Mof_C 	C 	0.62441	0.8656	0.14255	-0.217
Mof_H 	H 	0.6585	0.8659	0.1506	0.107
Mof_C 	C 	0.59294	0.82843	0.16192	0.186
Mof_C 	C 	0.54189	0.83035	0.15071	-0.22
Mof_H 	H 	0.5201	0.8069	0.1646	0.11
Mof_C 	C 	0.52301	0.86615	0.11964	0.119
Mof_H 	H 	0.4888	0.8663	0.1121	-0.001
Mof_C 	C 	0.65613	0.79583	0.22112	0.234
Mof_C 	C 	0.69326	0.75935	0.22092	-0.29
Mof_H 	H 	0.69	0.731	0.2011	0.134
Mof_C 	C 	0.4809	0.5384	0.3293	0.094
Mof_H 	H 	0.4671	0.5656	0.3125	0.007
Mof_C 	C 	0.4808	0.5395	0.3793	-0.192
Mof_O 	O 	0.5155	0.4885	0.4523	-0.281
Mof_N 	N 	0.463	0.5818	0.4528	-0.205
Mof_C 	C 	0.4554	0.583	0.4048	0.098
Mof_H 	H 	0.4367	0.6077	0.3889	-0.002
Mof_C 	C 	0.4475	0.6299	0.4735	-0.083
Mof_H 	H 	0.4153	0.6415	0.462	0.051
Mof_H 	H 	0.4728	0.653	0.462	0.049
Mof_C 	C 	0.5353	0.4639	0.0283	-0.035
Mof_H 	H 	0.569	0.4719	0.04	0.047
Mof_H 	H 	0.5309	0.4322	0.0398	0.02
Mof_H 	H 	0.4113	0.8731	0.0285	0.052
Mof_H 	H 	0.3465	0.8305	0.9715	0.065
Mof_H 	H 	0.3418	0.9853	0.9714	0.079
Mof_H 	H 	0.273	0.9427	0.0285	0.049
Mof_C 	C 	0.3674	0.9243	0.9529	-0.006
Mof_H 	H 	0.3942	0.9106	0.9327	0.033
Mof_H 	H 	0.3569	0.9561	0.9385	0.032
Mof_C 	C 	0.3229	0.8879	0.9522	-0.01
Mof_H 	H 	0.298	0.9008	0.9294	0.033
Mof_H 	H 	0.3347	0.8558	0.9394	0.026
Mof_H 	H 	0.5266	0.4305	0.04	0.019
Mof_C 	C 	0.499	0.5505	0.0281	-0.036
Mof_N 	N 	0.388	0.21073	0.19139	-0.208
Mof_O 	O 	0.47536	0.42946	0.13711	-0.417
Mof_O 	O 	0.47314	0.43186	0.21822	-0.416
Mof_O 	O 	0.51103	0.06499	0.05058	-0.422
Mof_O 	O 	0.4363	0.02523	0.05014	-0.422
Mof_C 	C 	0.46685	0.41049	0.17791	0.399
Mof_C 	C 	0.44675	0.3576	0.1805	-0.182
Mof_C 	C 	0.43622	0.33644	0.22536	0.125
Mof_H 	H 	0.4416	0.3551	0.2537	0.002
Mof_C 	C 	0.41764	0.28767	0.22884	-0.227
Mof_H 	H 	0.4112	0.2736	0.2594	0.112
Mof_C 	C 	0.40877	0.2602	0.18733	0.192
Mof_C 	C 	0.41894	0.28122	0.14217	-0.231
Mof_H 	H 	0.413	0.2627	0.1139	0.11
Mof_C 	C 	0.43788	0.32949	0.13881	0.128
Mof_H 	H 	0.4448	0.3433	0.1083	-0.007
Mof_C 	C 	0.46599	0.0595	0.06409	0.381
Mof_C 	C 	0.44524	0.09767	0.0993	-0.176
Mof_C 	C 	0.39469	0.09799	0.11143	0.119
Mof_H 	H 	0.3733	0.0735	0.0986	-0.005
Mof_C 	C 	0.37559	0.1344	0.14255	-0.221
Mof_H 	H 	0.3415	0.1341	0.1506	0.106
Mof_C 	C 	0.40706	0.17157	0.16192	0.187
Mof_C 	C 	0.45811	0.16965	0.15071	-0.223
Mof_H 	H 	0.4799	0.1931	0.1646	0.111
Mof_C 	C 	0.47699	0.13385	0.11964	0.121
Mof_H 	H 	0.5112	0.1337	0.1121	-0.003
Mof_C 	C 	0.34387	0.20417	0.22112	0.233
Mof_C 	C 	0.30674	0.24065	0.22092	-0.289
Mof_H 	H 	0.31	0.269	0.2011	0.133
Mof_C 	C 	0.5191	0.4616	0.3293	0.094
Mof_H 	H 	0.5329	0.4344	0.3125	0.006
Mof_C 	C 	0.5192	0.4605	0.3793	-0.192
Mof_O 	O 	0.4845	0.5115	0.4523	-0.281
Mof_N 	N 	0.537	0.4182	0.4528	-0.205
Mof_C 	C 	0.5446	0.417	0.4048	0.098
Mof_H 	H 	0.5633	0.3923	0.3889	-0.002
Mof_C 	C 	0.5525	0.3701	0.4735	-0.082
Mof_H 	H 	0.5847	0.3585	0.462	0.05
Mof_H 	H 	0.5272	0.347	0.462	0.049
Mof_C 	C 	0.4647	0.5361	0.0283	-0.035
Mof_H 	H 	0.431	0.5281	0.04	0.047
Mof_H 	H 	0.4691	0.5678	0.0398	0.02
Mof_H 	H 	0.5887	0.1269	0.0285	0.052
Mof_H 	H 	0.6535	0.1695	0.9715	0.066
Mof_H 	H 	0.6582	0.0147	0.9714	0.07
Mof_H 	H 	0.727	0.0573	0.0285	0.046
Mof_C 	C 	0.6326	0.0757	0.9529	-0.004
Mof_H 	H 	0.6058	0.0894	0.9327	0.03
Mof_H 	H 	0.6431	0.0439	0.9385	0.027
Mof_C 	C 	0.6771	0.1121	0.9522	-0.01
Mof_H 	H 	0.702	0.0992	0.9294	0.031
Mof_H 	H 	0.6653	0.1442	0.9394	0.026
Mof_H 	H 	0.4734	0.5695	0.04	0.019
Mof_C 	C 	0.501	0.4495	0.0281	-0.036
Mof_N 	N 	0.21073	0.612	0.19139	-0.208
Mof_O 	O 	0.42946	0.52464	0.13711	-0.417
Mof_O 	O 	0.43186	0.52686	0.21822	-0.416
Mof_O 	O 	0.06499	0.48897	0.05058	-0.422
Mof_O 	O 	0.02523	0.5637	0.05014	-0.422
Mof_C 	C 	0.41049	0.53315	0.17791	0.399
Mof_C 	C 	0.3576	0.55325	0.1805	-0.182
Mof_C 	C 	0.33644	0.56378	0.22536	0.126
Mof_H 	H 	0.3551	0.5584	0.2537	0.002
Mof_C 	C 	0.28767	0.58236	0.22884	-0.227
Mof_H 	H 	0.2736	0.5888	0.2594	0.112
Mof_C 	C 	0.2602	0.59123	0.18733	0.193
Mof_C 	C 	0.28122	0.58106	0.14217	-0.231
Mof_H 	H 	0.2627	0.587	0.1139	0.11
Mof_C 	C 	0.32949	0.56212	0.13881	0.128
Mof_H 	H 	0.3433	0.5552	0.1083	-0.007
Mof_C 	C 	0.0595	0.53401	0.06409	0.381
Mof_C 	C 	0.09767	0.55476	0.0993	-0.176
Mof_C 	C 	0.09799	0.60531	0.11143	0.119
Mof_H 	H 	0.0735	0.6267	0.0986	-0.005
Mof_C 	C 	0.1344	0.62441	0.14255	-0.221
Mof_H 	H 	0.1341	0.6585	0.1506	0.106
Mof_C 	C 	0.17157	0.59294	0.16192	0.187
Mof_C 	C 	0.16965	0.54189	0.15071	-0.223
Mof_H 	H 	0.1931	0.5201	0.1646	0.111
Mof_C 	C 	0.13385	0.52301	0.11964	0.121
Mof_H 	H 	0.1337	0.4888	0.1121	-0.003
Mof_C 	C 	0.20417	0.65613	0.22112	0.233
Mof_C 	C 	0.24065	0.69326	0.22092	-0.289
Mof_H 	H 	0.269	0.69	0.2011	0.133
Mof_C 	C 	0.4616	0.4809	0.3293	0.094
Mof_H 	H 	0.4344	0.4671	0.3125	0.006
Mof_C 	C 	0.4605	0.4808	0.3793	-0.192
Mof_O 	O 	0.5115	0.5155	0.4523	-0.281
Mof_N 	N 	0.4182	0.463	0.4528	-0.205
Mof_C 	C 	0.417	0.4554	0.4048	0.098
Mof_H 	H 	0.3923	0.4367	0.3889	-0.002
Mof_C 	C 	0.3701	0.4475	0.4735	-0.082
Mof_H 	H 	0.3585	0.4153	0.462	0.05
Mof_H 	H 	0.347	0.4728	0.462	0.049
Mof_C 	C 	0.5361	0.5353	0.0283	-0.035
Mof_H 	H 	0.5281	0.569	0.04	0.047
Mof_H 	H 	0.5678	0.5309	0.0398	0.02
Mof_H 	H 	0.1269	0.4113	0.0285	0.051
Mof_H 	H 	0.1695	0.3465	0.9715	0.065
Mof_H 	H 	0.0147	0.3418	0.9714	0.07
Mof_H 	H 	0.0573	0.273	0.0285	0.046
Mof_C 	C 	0.0757	0.3674	0.9529	-0.004
Mof_H 	H 	0.0894	0.3942	0.9327	0.03
Mof_H 	H 	0.0439	0.3569	0.9385	0.027
Mof_C 	C 	0.1121	0.3229	0.9522	-0.009
Mof_H 	H 	0.0992	0.298	0.9294	0.031
Mof_H 	H 	0.1442	0.3347	0.9394	0.026
Mof_H 	H 	0.5695	0.5266	0.04	0.019
Mof_C 	C 	0.4495	0.499	0.0281	-0.036
Mof_N 	N 	0.78927	0.388	0.19139	-0.207
Mof_O 	O 	0.57054	0.47536	0.13711	-0.417
Mof_O 	O 	0.56814	0.47314	0.21822	-0.416
Mof_O 	O 	0.93501	0.51103	0.05058	-0.417
Mof_O 	O 	0.97477	0.4363	0.05014	-0.407
Mof_C 	C 	0.58951	0.46685	0.17791	0.399
Mof_C 	C 	0.6424	0.44675	0.1805	-0.182
Mof_C 	C 	0.66356	0.43622	0.22536	0.126
Mof_H 	H 	0.6449	0.4416	0.2537	0.002
Mof_C 	C 	0.71233	0.41764	0.22884	-0.227
Mof_H 	H 	0.7264	0.4112	0.2594	0.112
Mof_C 	C 	0.7398	0.40877	0.18733	0.193
Mof_C 	C 	0.71878	0.41894	0.14217	-0.231
Mof_H 	H 	0.7373	0.413	0.1139	0.111
Mof_C 	C 	0.67051	0.43788	0.13881	0.128
Mof_H 	H 	0.6567	0.4448	0.1083	-0.007
Mof_C 	C 	0.9405	0.46599	0.06409	0.379
Mof_C 	C 	0.90233	0.44524	0.0993	-0.17
Mof_C 	C 	0.90201	0.39469	0.11143	0.116
Mof_H 	H 	0.9265	0.3733	0.0986	0.001
Mof_C 	C 	0.8656	0.37559	0.14255	-0.217
Mof_H 	H 	0.8659	0.3415	0.1506	0.107
Mof_C 	C 	0.82843	0.40706	0.16192	0.186
Mof_C 	C 	0.83035	0.45811	0.15071	-0.22
Mof_H 	H 	0.8069	0.4799	0.1646	0.11
Mof_C 	C 	0.86615	0.47699	0.11964	0.119
Mof_H 	H 	0.8663	0.5112	0.1121	-0.001
Mof_C 	C 	0.79583	0.34387	0.22112	0.234
Mof_C 	C 	0.75935	0.30674	0.22092	-0.29
Mof_H 	H 	0.731	0.31	0.2011	0.133
Mof_C 	C 	0.5384	0.5191	0.3293	0.094
Mof_H 	H 	0.5656	0.5329	0.3125	0.007
Mof_C 	C 	0.5395	0.5192	0.3793	-0.192
Mof_O 	O 	0.4885	0.4845	0.4523	-0.281
Mof_N 	N 	0.5818	0.537	0.4528	-0.205
Mof_C 	C 	0.583	0.5446	0.4048	0.098
Mof_H 	H 	0.6077	0.5633	0.3889	-0.002
Mof_C 	C 	0.6299	0.5525	0.4735	-0.083
Mof_H 	H 	0.6415	0.5847	0.462	0.051
Mof_H 	H 	0.653	0.5272	0.462	0.049
Mof_C 	C 	0.4639	0.4647	0.0283	-0.035
Mof_H 	H 	0.4719	0.431	0.04	0.047
Mof_H 	H 	0.4322	0.4691	0.0398	0.02
Mof_H 	H 	0.8731	0.5887	0.0285	0.052
Mof_H 	H 	0.8305	0.6535	0.9715	0.066
Mof_H 	H 	0.9853	0.6582	0.9714	0.078
Mof_H 	H 	0.9427	0.727	0.0285	0.049
Mof_C 	C 	0.9243	0.6326	0.9529	-0.006
Mof_H 	H 	0.9106	0.6058	0.9327	0.033
Mof_H 	H 	0.9561	0.6431	0.9385	0.032
Mof_C 	C 	0.8879	0.6771	0.9522	-0.01
Mof_H 	H 	0.9008	0.702	0.9294	0.033
Mof_H 	H 	0.8558	0.6653	0.9394	0.027
Mof_H 	H 	0.4305	0.4734	0.04	0.019
Mof_C 	C 	0.5505	0.501	0.0281	-0.036
Mof_N 	N 	0.888	0.28927	0.30861	-0.21
Mof_O 	O 	0.97536	0.07054	0.36289	-0.41
Mof_O 	O 	0.97314	0.06814	0.28178	-0.411
Mof_O 	O 	0.01103	0.43501	0.44942	-0.431
Mof_O 	O 	0.9363	0.47477	0.44986	-0.414
Mof_C 	C 	0.96685	0.08951	0.32209	0.397
Mof_C 	C 	0.94675	0.1424	0.3195	-0.179
Mof_C 	C 	0.93622	0.16356	0.27464	0.124
Mof_H 	H 	0.9416	0.1449	0.2463	0.004
Mof_C 	C 	0.91764	0.21233	0.27116	-0.226
Mof_H 	H 	0.9112	0.2264	0.2406	0.112
Mof_C 	C 	0.90877	0.2398	0.31267	0.193
Mof_C 	C 	0.91894	0.21878	0.35783	-0.229
Mof_H 	H 	0.913	0.2373	0.3861	0.114
Mof_C 	C 	0.93788	0.17051	0.36119	0.128
Mof_H 	H 	0.9448	0.1567	0.3917	-0.001
Mof_C 	C 	0.96599	0.4405	0.43591	0.408
Mof_C 	C 	0.94524	0.40233	0.4007	-0.198
Mof_C 	C 	0.89469	0.40201	0.38857	0.141
Mof_H 	H 	0.8733	0.4265	0.4014	-0.007
Mof_C 	C 	0.87559	0.3656	0.35745	-0.236
Mof_H 	H 	0.8415	0.3659	0.3494	0.114
Mof_C 	C 	0.90706	0.32843	0.33808	0.205
Mof_C 	C 	0.95811	0.33035	0.34929	-0.253
Mof_H 	H 	0.9799	0.3069	0.3354	0.126
Mof_C 	C 	0.97699	0.36615	0.38036	0.175
Mof_H 	H 	0.0112	0.3663	0.3879	-0.028
Mof_C 	C 	0.84387	0.29583	0.27888	0.235
Mof_C 	C 	0.80674	0.25935	0.27908	-0.29
Mof_H 	H 	0.81	0.231	0.2989	0.134
Mof_C 	C 	0.0191	0.0384	0.1707	0.073
Mof_H 	H 	0.0329	0.0656	0.1875	0.009
Mof_C 	C 	0.0192	0.0395	0.1207	-0.179
Mof_O 	O 	0.9845	0.9885	0.0477	-0.235
Mof_N 	N 	0.037	0.0818	0.0472	-0.201
Mof_C 	C 	0.0446	0.083	0.0952	0.087
Mof_H 	H 	0.0633	0.1077	0.1111	-0.002
Mof_C 	C 	0.0525	0.1299	0.0265	-0.141
Mof_H 	H 	0.0847	0.1415	0.038	0.06
Mof_H 	H 	0.0272	0.153	0.038	0.058
Mof_C 	C 	0.9647	0.9639	0.4717	0.009
Mof_H 	H 	0.931	0.9719	0.46	0.225
Mof_H 	H 	0.9691	0.9322	0.4602	-0.08
Mof_H 	H 	0.0887	0.3731	0.4715	0.041
Mof_H 	H 	0.1535	0.3305	0.5285	0.03
Mof_H 	H 	0.1582	0.4853	0.5286	0.04
Mof_H 	H 	0.227	0.4427	0.4715	0.038
Mof_C 	C 	0.1326	0.4243	0.5471	-0.046
Mof_H 	H 	0.1058	0.4106	0.5673	0.042
Mof_H 	H 	0.1431	0.4561	0.5615	0.041
Mof_C 	C 	0.1771	0.3879	0.5478	-0.051
Mof_H 	H 	0.202	0.4008	0.5706	0.041
Mof_H 	H 	0.1653	0.3558	0.5606	0.038
Mof_H 	H 	0.9734	0.9305	0.46	-0.032
Mof_C 	C 	0.001	0.0505	0.4719	-0.429
Mof_N 	N 	0.112	0.71073	0.30861	-0.204
Mof_O 	O 	0.02464	0.92946	0.36289	-0.414
Mof_O 	O 	0.02686	0.93186	0.28178	-0.414
Mof_O 	O 	0.98897	0.56499	0.44942	-0.398
Mof_O 	O 	0.0637	0.52523	0.44986	-0.405
Mof_C 	C 	0.03315	0.91049	0.32209	0.398
Mof_C 	C 	0.05325	0.8576	0.3195	-0.182
Mof_C 	C 	0.06378	0.83644	0.27464	0.125
Mof_H 	H 	0.0584	0.8551	0.2463	0.001
Mof_C 	C 	0.08236	0.78767	0.27116	-0.227
Mof_H 	H 	0.0888	0.7736	0.2406	0.11
Mof_C 	C 	0.09123	0.7602	0.31267	0.192
Mof_C 	C 	0.08106	0.78122	0.35783	-0.23
Mof_H 	H 	0.087	0.7627	0.3861	0.113
Mof_C 	C 	0.06212	0.82949	0.36119	0.129
Mof_H 	H 	0.0552	0.8433	0.3917	-0.005
Mof_C 	C 	0.03401	0.5595	0.43591	0.355
Mof_C 	C 	0.05476	0.59767	0.4007	-0.143
Mof_C 	C 	0.10531	0.59799	0.38857	0.095
Mof_H 	H 	0.1267	0.5735	0.4014	0.008
Mof_C 	C 	0.12441	0.6344	0.35745	-0.198
Mof_H 	H 	0.1585	0.6341	0.3494	0.101
Mof_C 	C 	0.09294	0.67157	0.33808	0.169
Mof_C 	C 	0.04189	0.66965	0.34929	-0.189
Mof_H 	H 	0.0201	0.6931	0.3354	0.097
Mof_C 	C 	0.02301	0.63385	0.38036	0.068
Mof_H 	H 	0.9888	0.6337	0.3879	0.027
Mof_C 	C 	0.15613	0.70417	0.27888	0.233
Mof_C 	C 	0.19326	0.74065	0.27908	-0.289
Mof_H 	H 	0.19	0.769	0.2989	0.135
Mof_C 	C 	0.9809	0.9616	0.1707	0.105
Mof_H 	H 	0.9671	0.9344	0.1875	0.007
Mof_C 	C 	0.9808	0.9605	0.1207	-0.164
Mof_O 	O 	0.0155	0.0115	0.0477	-0.3
Mof_N 	N 	0.963	0.9182	0.0472	-0.199
Mof_C 	C 	0.9554	0.917	0.0952	0.088
Mof_H 	H 	0.9367	0.8923	0.1111	0.001
Mof_C 	C 	0.9475	0.8701	0.0265	-0.141
Mof_H 	H 	0.9153	0.8585	0.038	0.063
Mof_H 	H 	0.9728	0.847	0.038	0.063
Mof_C 	C 	0.0353	0.0361	0.4717	-0.047
Mof_H 	H 	0.069	0.0281	0.46	-0.139
Mof_H 	H 	0.0309	0.0678	0.4602	0.118
Mof_H 	H 	0.9113	0.6269	0.4715	0.043
Mof_H 	H 	0.8465	0.6695	0.5285	0.031
Mof_H 	H 	0.8418	0.5147	0.5286	0.041
Mof_H 	H 	0.773	0.5573	0.4715	0.038
Mof_C 	C 	0.8674	0.5757	0.5471	-0.046
Mof_H 	H 	0.8942	0.5894	0.5673	0.043
Mof_H 	H 	0.8569	0.5439	0.5615	0.041
Mof_C 	C 	0.8229	0.6121	0.5478	-0.051
Mof_H 	H 	0.798	0.5992	0.5706	0.042
Mof_H 	H 	0.8347	0.6442	0.5606	0.039
Mof_H 	H 	0.0266	0.0695	0.46	0.068
Mof_C 	C 	0.999	0.9495	0.4719	0.383
Mof_N 	N 	0.28927	0.112	0.30861	-0.204
Mof_O 	O 	0.07054	0.02464	0.36289	-0.419
Mof_O 	O 	0.06814	0.02686	0.28178	-0.421
Mof_O 	O 	0.43501	0.98897	0.44942	-0.398
Mof_O 	O 	0.47477	0.0637	0.44986	-0.404
Mof_C 	C 	0.08951	0.03315	0.32209	0.398
Mof_C 	C 	0.1424	0.05325	0.3195	-0.183
Mof_C 	C 	0.16356	0.06378	0.27464	0.124
Mof_H 	H 	0.1449	0.0584	0.2463	-0
Mof_C 	C 	0.21233	0.08236	0.27116	-0.227
Mof_H 	H 	0.2264	0.0888	0.2406	0.109
Mof_C 	C 	0.2398	0.09123	0.31267	0.192
Mof_C 	C 	0.21878	0.08106	0.35783	-0.23
Mof_H 	H 	0.2373	0.087	0.3861	0.113
Mof_C 	C 	0.17051	0.06212	0.36119	0.127
Mof_H 	H 	0.1567	0.0552	0.3917	-0.004
Mof_C 	C 	0.4405	0.03401	0.43591	0.354
Mof_C 	C 	0.40233	0.05476	0.4007	-0.142
Mof_C 	C 	0.40201	0.10531	0.38857	0.094
Mof_H 	H 	0.4265	0.1267	0.4014	0.009
Mof_C 	C 	0.3656	0.12441	0.35745	-0.198
Mof_H 	H 	0.3659	0.1585	0.3494	0.101
Mof_C 	C 	0.32843	0.09294	0.33808	0.168
Mof_C 	C 	0.33035	0.04189	0.34929	-0.187
Mof_H 	H 	0.3069	0.0201	0.3354	0.096
Mof_C 	C 	0.36615	0.02301	0.38036	0.066
Mof_H 	H 	0.3663	0.9888	0.3879	0.028
Mof_C 	C 	0.29583	0.15613	0.27888	0.233
Mof_C 	C 	0.25935	0.19326	0.27908	-0.289
Mof_H 	H 	0.231	0.19	0.2989	0.133
Mof_C 	C 	0.0384	0.9809	0.1707	0.093
Mof_H 	H 	0.0656	0.9671	0.1875	0.009
Mof_C 	C 	0.0395	0.9808	0.1207	-0.167
Mof_O 	O 	0.9885	0.0155	0.0477	-0.276
Mof_N 	N 	0.0818	0.963	0.0472	-0.197
Mof_C 	C 	0.083	0.9554	0.0952	0.087
Mof_H 	H 	0.1077	0.9367	0.1111	0
Mof_C 	C 	0.1299	0.9475	0.0265	-0.142
Mof_H 	H 	0.1415	0.9153	0.038	0.062
Mof_H 	H 	0.153	0.9728	0.038	0.064
Mof_C 	C 	0.9639	0.0353	0.4717	0.621
Mof_H 	H 	0.9719	0.069	0.46	-0.035
Mof_H 	H 	0.9322	0.0309	0.4602	0.07
Mof_H 	H 	0.3731	0.9113	0.4715	0.043
Mof_H 	H 	0.3305	0.8465	0.5285	0.031
Mof_H 	H 	0.4853	0.8418	0.5286	0.041
Mof_H 	H 	0.4427	0.773	0.4715	0.038
Mof_C 	C 	0.4243	0.8674	0.5471	-0.046
Mof_H 	H 	0.4106	0.8942	0.5673	0.043
Mof_H 	H 	0.4561	0.8569	0.5615	0.041
Mof_C 	C 	0.3879	0.8229	0.5478	-0.051
Mof_H 	H 	0.4008	0.798	0.5706	0.042
Mof_H 	H 	0.3558	0.8347	0.5606	0.039
Mof_H 	H 	0.9305	0.0266	0.46	-0.085
Mof_C 	C 	0.0505	0.999	0.4719	0.494
Mof_N 	N 	0.71073	0.888	0.30861	-0.21
Mof_O 	O 	0.92946	0.97536	0.36289	-0.407
Mof_O 	O 	0.93186	0.97314	0.28178	-0.405
Mof_O 	O 	0.56499	0.01103	0.44942	-0.43
Mof_O 	O 	0.52523	0.9363	0.44986	-0.414
Mof_C 	C 	0.91049	0.96685	0.32209	0.398
Mof_C 	C 	0.8576	0.94675	0.3195	-0.179
Mof_C 	C 	0.83644	0.93622	0.27464	0.125
Mof_H 	H 	0.8551	0.9416	0.2463	0.004
Mof_C 	C 	0.78767	0.91764	0.27116	-0.226
Mof_H 	H 	0.7736	0.9112	0.2406	0.112
Mof_C 	C 	0.7602	0.90877	0.31267	0.194
Mof_C 	C 	0.78122	0.91894	0.35783	-0.23
Mof_H 	H 	0.7627	0.913	0.3861	0.115
Mof_C 	C 	0.82949	0.93788	0.36119	0.13
Mof_H 	H 	0.8433	0.9448	0.3917	-0.003
Mof_C 	C 	0.5595	0.96599	0.43591	0.408
Mof_C 	C 	0.59767	0.94524	0.4007	-0.197
Mof_C 	C 	0.59799	0.89469	0.38857	0.14
Mof_H 	H 	0.5735	0.8733	0.4014	-0.007
Mof_C 	C 	0.6344	0.87559	0.35745	-0.235
Mof_H 	H 	0.6341	0.8415	0.3494	0.114
Mof_C 	C 	0.67157	0.90706	0.33808	0.204
Mof_C 	C 	0.66965	0.95811	0.34929	-0.252
Mof_H 	H 	0.6931	0.9799	0.3354	0.125
Mof_C 	C 	0.63385	0.97699	0.38036	0.172
Mof_H 	H 	0.6337	0.0112	0.3879	-0.027
Mof_C 	C 	0.70417	0.84387	0.27888	0.235
Mof_C 	C 	0.74065	0.80674	0.27908	-0.29
Mof_H 	H 	0.769	0.81	0.2989	0.135
Mof_C 	C 	0.9616	0.0191	0.1707	0.095
Mof_H 	H 	0.9344	0.0329	0.1875	0.005
Mof_C 	C 	0.9605	0.0192	0.1207	-0.173
Mof_O 	O 	0.0115	0.9845	0.0477	-0.288
Mof_N 	N 	0.9182	0.037	0.0472	-0.202
Mof_C 	C 	0.917	0.0446	0.0952	0.088
Mof_H 	H 	0.8923	0.0633	0.1111	-0.001
Mof_C 	C 	0.8701	0.0525	0.0265	-0.14
Mof_H 	H 	0.8585	0.0847	0.038	0.062
Mof_H 	H 	0.847	0.0272	0.038	0.058
Mof_C 	C 	0.0361	0.9647	0.4717	-0.657
Mof_H 	H 	0.0281	0.931	0.46	0.126
Mof_H 	H 	0.0678	0.9691	0.4602	-0.034
Mof_H 	H 	0.6269	0.0887	0.4715	0.041
Mof_H 	H 	0.6695	0.1535	0.5285	0.029
Mof_H 	H 	0.5147	0.1582	0.5286	0.04
Mof_H 	H 	0.5573	0.227	0.4715	0.038
Mof_C 	C 	0.5757	0.1326	0.5471	-0.046
Mof_H 	H 	0.5894	0.1058	0.5673	0.042
Mof_H 	H 	0.5439	0.1431	0.5615	0.04
Mof_C 	C 	0.6121	0.1771	0.5478	-0.051
Mof_H 	H 	0.5992	0.202	0.5706	0.041
Mof_H 	H 	0.6442	0.1653	0.5606	0.038
Mof_H 	H 	0.0695	0.9734	0.46	0.12
Mof_C 	C 	0.9495	0.001	0.4719	-0.529
Mof_N 	N 	0.388	0.21073	0.80861	-0.207
Mof_O 	O 	0.47536	0.42946	0.86289	-0.415
Mof_O 	O 	0.47314	0.43186	0.78178	-0.416
Mof_O 	O 	0.51103	0.06499	0.94942	-0.406
Mof_O 	O 	0.4363	0.02523	0.94986	-0.405
Mof_C 	C 	0.46685	0.41049	0.82209	0.399
Mof_C 	C 	0.44675	0.3576	0.8195	-0.181
Mof_C 	C 	0.43622	0.33644	0.77464	0.126
Mof_H 	H 	0.4416	0.3551	0.7463	0.002
Mof_C 	C 	0.41764	0.28767	0.77116	-0.227
Mof_H 	H 	0.4112	0.2736	0.7406	0.112
Mof_C 	C 	0.40877	0.2602	0.81267	0.194
Mof_C 	C 	0.41894	0.28122	0.85783	-0.23
Mof_H 	H 	0.413	0.2627	0.8861	0.117
Mof_C 	C 	0.43788	0.32949	0.86119	0.13
Mof_H 	H 	0.4448	0.3433	0.8917	-0
Mof_C 	C 	0.46599	0.0595	0.93591	0.381
Mof_C 	C 	0.44524	0.09767	0.9007	-0.169
Mof_C 	C 	0.39469	0.09799	0.88857	0.119
Mof_H 	H 	0.3733	0.0735	0.9014	0
Mof_C 	C 	0.37559	0.1344	0.85745	-0.217
Mof_H 	H 	0.3415	0.1341	0.8494	0.108
Mof_C 	C 	0.40706	0.17157	0.83808	0.187
Mof_C 	C 	0.45811	0.16965	0.84929	-0.22
Mof_H 	H 	0.4799	0.1931	0.8354	0.111
Mof_C 	C 	0.47699	0.13385	0.88036	0.121
Mof_H 	H 	0.5112	0.1337	0.8879	0
Mof_C 	C 	0.34387	0.20417	0.77888	0.234
Mof_C 	C 	0.30674	0.24065	0.77908	-0.289
Mof_H 	H 	0.31	0.269	0.7989	0.135
Mof_C 	C 	0.5191	0.4616	0.6707	0.094
Mof_H 	H 	0.5329	0.4344	0.6875	0.007
Mof_C 	C 	0.5192	0.4605	0.6207	-0.192
Mof_O 	O 	0.4845	0.5115	0.5477	-0.281
Mof_N 	N 	0.537	0.4182	0.5472	-0.205
Mof_C 	C 	0.5446	0.417	0.5952	0.098
Mof_H 	H 	0.5633	0.3923	0.6111	-0.002
Mof_C 	C 	0.5525	0.3701	0.5265	-0.083
Mof_H 	H 	0.5847	0.3585	0.538	0.051
Mof_H 	H 	0.5272	0.347	0.538	0.049
Mof_C 	C 	0.4647	0.5361	0.9717	-0.009
Mof_H 	H 	0.431	0.5281	0.96	0.044
Mof_H 	H 	0.4691	0.5678	0.9602	0.018
Mof_H 	H 	0.5887	0.1269	0.9715	0.072
Mof_H 	H 	0.6535	0.1695	0.0285	0.043
Mof_H 	H 	0.6582	0.0147	0.0286	0.049
Mof_H 	H 	0.727	0.0573	0.9715	0.068
Mof_C 	C 	0.6326	0.0757	0.0471	-0.027
Mof_H 	H 	0.6058	0.0894	0.0673	0.035
Mof_H 	H 	0.6431	0.0439	0.0615	0.032
Mof_C 	C 	0.6771	0.1121	0.0478	-0.03
Mof_H 	H 	0.702	0.0992	0.0706	0.033
Mof_H 	H 	0.6653	0.1442	0.0606	0.03
Mof_H 	H 	0.4734	0.5695	0.96	0.018
Mof_C 	C 	0.501	0.4495	0.9719	-0.012
Mof_N 	N 	0.612	0.78927	0.80861	-0.207
Mof_O 	O 	0.52464	0.57054	0.86289	-0.415
Mof_O 	O 	0.52686	0.56814	0.78178	-0.416
Mof_O 	O 	0.48897	0.93501	0.94942	-0.4
Mof_O 	O 	0.5637	0.97477	0.94986	-0.39
Mof_C 	C 	0.53315	0.58951	0.82209	0.399
Mof_C 	C 	0.55325	0.6424	0.8195	-0.181
Mof_C 	C 	0.56378	0.66356	0.77464	0.126
Mof_H 	H 	0.5584	0.6449	0.7463	0.002
Mof_C 	C 	0.58236	0.71233	0.77116	-0.227
Mof_H 	H 	0.5888	0.7264	0.7406	0.112
Mof_C 	C 	0.59123	0.7398	0.81267	0.194
Mof_C 	C 	0.58106	0.71878	0.85783	-0.23
Mof_H 	H 	0.587	0.7373	0.8861	0.117
Mof_C 	C 	0.56212	0.67051	0.86119	0.13
Mof_H 	H 	0.5552	0.6567	0.8917	-0
Mof_C 	C 	0.53401	0.9405	0.93591	0.379
Mof_C 	C 	0.55476	0.90233	0.9007	-0.163
Mof_C 	C 	0.60531	0.90201	0.88857	0.116
Mof_H 	H 	0.6267	0.9265	0.9014	0.006
Mof_C 	C 	0.62441	0.8656	0.85745	-0.213
Mof_H 	H 	0.6585	0.8659	0.8494	0.109
Mof_C 	C 	0.59294	0.82843	0.83808	0.186
Mof_C 	C 	0.54189	0.83035	0.84929	-0.217
Mof_H 	H 	0.5201	0.8069	0.8354	0.111
Mof_C 	C 	0.52301	0.86615	0.88036	0.119
Mof_H 	H 	0.4888	0.8663	0.8879	0.003
Mof_C 	C 	0.65613	0.79583	0.77888	0.236
Mof_C 	C 	0.69326	0.75935	0.77908	-0.29
Mof_H 	H 	0.69	0.731	0.7989	0.136
Mof_C 	C 	0.4809	0.5384	0.6707	0.094
Mof_H 	H 	0.4671	0.5656	0.6875	0.007
Mof_C 	C 	0.4808	0.5395	0.6207	-0.192
Mof_O 	O 	0.5155	0.4885	0.5477	-0.281
Mof_N 	N 	0.463	0.5818	0.5472	-0.205
Mof_C 	C 	0.4554	0.583	0.5952	0.098
Mof_H 	H 	0.4367	0.6077	0.6111	-0.002
Mof_C 	C 	0.4475	0.6299	0.5265	-0.083
Mof_H 	H 	0.4153	0.6415	0.538	0.051
Mof_H 	H 	0.4728	0.653	0.538	0.049
Mof_C 	C 	0.5353	0.4639	0.9717	-0.009
Mof_H 	H 	0.569	0.4719	0.96	0.044
Mof_H 	H 	0.5309	0.4322	0.9602	0.018
Mof_H 	H 	0.4113	0.8731	0.9715	0.073
Mof_H 	H 	0.3465	0.8305	0.0285	0.043
Mof_H 	H 	0.3418	0.9853	0.0286	0.057
Mof_H 	H 	0.273	0.9427	0.9715	0.071
Mof_C 	C 	0.3674	0.9243	0.0471	-0.029
Mof_H 	H 	0.3942	0.9106	0.0673	0.038
Mof_H 	H 	0.3569	0.9561	0.0615	0.037
Mof_C 	C 	0.3229	0.8879	0.0478	-0.031
Mof_H 	H 	0.298	0.9008	0.0706	0.035
Mof_H 	H 	0.3347	0.8558	0.0606	0.03
Mof_H 	H 	0.5266	0.4305	0.96	0.018
Mof_C 	C 	0.499	0.5505	0.9719	-0.012
Mof_N 	N 	0.78927	0.388	0.80861	-0.207
Mof_O 	O 	0.57054	0.47536	0.86289	-0.415
Mof_O 	O 	0.56814	0.47314	0.78178	-0.416
Mof_O 	O 	0.93501	0.51103	0.94942	-0.4
Mof_O 	O 	0.97477	0.4363	0.94986	-0.39
Mof_C 	C 	0.58951	0.46685	0.82209	0.399
Mof_C 	C 	0.6424	0.44675	0.8195	-0.181
Mof_C 	C 	0.66356	0.43622	0.77464	0.126
Mof_H 	H 	0.6449	0.4416	0.7463	0.002
Mof_C 	C 	0.71233	0.41764	0.77116	-0.227
Mof_H 	H 	0.7264	0.4112	0.7406	0.112
Mof_C 	C 	0.7398	0.40877	0.81267	0.194
Mof_C 	C 	0.71878	0.41894	0.85783	-0.23
Mof_H 	H 	0.7373	0.413	0.8861	0.117
Mof_C 	C 	0.67051	0.43788	0.86119	0.13
Mof_H 	H 	0.6567	0.4448	0.8917	-0
Mof_C 	C 	0.9405	0.46599	0.93591	0.379
Mof_C 	C 	0.90233	0.44524	0.9007	-0.163
Mof_C 	C 	0.90201	0.39469	0.88857	0.116
Mof_H 	H 	0.9265	0.3733	0.9014	0.006
Mof_C 	C 	0.8656	0.37559	0.85745	-0.213
Mof_H 	H 	0.8659	0.3415	0.8494	0.109
Mof_C 	C 	0.82843	0.40706	0.83808	0.186
Mof_C 	C 	0.83035	0.45811	0.84929	-0.217
Mof_H 	H 	0.8069	0.4799	0.8354	0.111
Mof_C 	C 	0.86615	0.47699	0.88036	0.119
Mof_H 	H 	0.8663	0.5112	0.8879	0.003
Mof_C 	C 	0.79583	0.34387	0.77888	0.236
Mof_C 	C 	0.75935	0.30674	0.77908	-0.29
Mof_H 	H 	0.731	0.31	0.7989	0.136
Mof_C 	C 	0.5384	0.5191	0.6707	0.094
Mof_H 	H 	0.5656	0.5329	0.6875	0.007
Mof_C 	C 	0.5395	0.5192	0.6207	-0.192
Mof_O 	O 	0.4885	0.4845	0.5477	-0.281
Mof_N 	N 	0.5818	0.537	0.5472	-0.205
Mof_C 	C 	0.583	0.5446	0.5952	0.098
Mof_H 	H 	0.6077	0.5633	0.6111	-0.002
Mof_C 	C 	0.6299	0.5525	0.5265	-0.083
Mof_H 	H 	0.6415	0.5847	0.538	0.051
Mof_H 	H 	0.653	0.5272	0.538	0.049
Mof_C 	C 	0.4639	0.4647	0.9717	-0.009
Mof_H 	H 	0.4719	0.431	0.96	0.044
Mof_H 	H 	0.4322	0.4691	0.9602	0.018
Mof_H 	H 	0.8731	0.5887	0.9715	0.073
Mof_H 	H 	0.8305	0.6535	0.0285	0.043
Mof_H 	H 	0.9853	0.6582	0.0286	0.057
Mof_H 	H 	0.9427	0.727	0.9715	0.071
Mof_C 	C 	0.9243	0.6326	0.0471	-0.029
Mof_H 	H 	0.9106	0.6058	0.0673	0.038
Mof_H 	H 	0.9561	0.6431	0.0615	0.037
Mof_C 	C 	0.8879	0.6771	0.0478	-0.031
Mof_H 	H 	0.9008	0.702	0.0706	0.035
Mof_H 	H 	0.8558	0.6653	0.0606	0.031
Mof_H 	H 	0.4305	0.4734	0.96	0.018
Mof_C 	C 	0.5505	0.501	0.9719	-0.012
Mof_N 	N 	0.21073	0.612	0.80861	-0.207
Mof_O 	O 	0.42946	0.52464	0.86289	-0.415
Mof_O 	O 	0.43186	0.52686	0.78178	-0.416
Mof_O 	O 	0.06499	0.48897	0.94942	-0.406
Mof_O 	O 	0.02523	0.5637	0.94986	-0.405
Mof_C 	C 	0.41049	0.53315	0.82209	0.399
Mof_C 	C 	0.3576	0.55325	0.8195	-0.181
Mof_C 	C 	0.33644	0.56378	0.77464	0.126
Mof_H 	H 	0.3551	0.5584	0.7463	0.002
Mof_C 	C 	0.28767	0.58236	0.77116	-0.227
Mof_H 	H 	0.2736	0.5888	0.7406	0.112
Mof_C 	C 	0.2602	0.59123	0.81267	0.194
Mof_C 	C 	0.28122	0.58106	0.85783	-0.23
Mof_H 	H 	0.2627	0.587	0.8861	0.117
Mof_C 	C 	0.32949	0.56212	0.86119	0.13
Mof_H 	H 	0.3433	0.5552	0.8917	-0
Mof_C 	C 	0.0595	0.53401	0.93591	0.381
Mof_C 	C 	0.09767	0.55476	0.9007	-0.169
Mof_C 	C 	0.09799	0.60531	0.88857	0.119
Mof_H 	H 	0.0735	0.6267	0.9014	0
Mof_C 	C 	0.1344	0.62441	0.85745	-0.217
Mof_H 	H 	0.1341	0.6585	0.8494	0.108
Mof_C 	C 	0.17157	0.59294	0.83808	0.187
Mof_C 	C 	0.16965	0.54189	0.84929	-0.22
Mof_H 	H 	0.1931	0.5201	0.8354	0.111
Mof_C 	C 	0.13385	0.52301	0.88036	0.121
Mof_H 	H 	0.1337	0.4888	0.8879	0
Mof_C 	C 	0.20417	0.65613	0.77888	0.234
Mof_C 	C 	0.24065	0.69326	0.77908	-0.289
Mof_H 	H 	0.269	0.69	0.7989	0.135
Mof_C 	C 	0.4616	0.4809	0.6707	0.094
Mof_H 	H 	0.4344	0.4671	0.6875	0.007
Mof_C 	C 	0.4605	0.4808	0.6207	-0.192
Mof_O 	O 	0.5115	0.5155	0.5477	-0.281
Mof_N 	N 	0.4182	0.463	0.5472	-0.205
Mof_C 	C 	0.417	0.4554	0.5952	0.098
Mof_H 	H 	0.3923	0.4367	0.6111	-0.002
Mof_C 	C 	0.3701	0.4475	0.5265	-0.083
Mof_H 	H 	0.3585	0.4153	0.538	0.051
Mof_H 	H 	0.347	0.4728	0.538	0.049
Mof_C 	C 	0.5361	0.5353	0.9717	-0.009
Mof_H 	H 	0.5281	0.569	0.96	0.044
Mof_H 	H 	0.5678	0.5309	0.9602	0.018
Mof_H 	H 	0.1269	0.4113	0.9715	0.072
Mof_H 	H 	0.1695	0.3465	0.0285	0.043
Mof_H 	H 	0.0147	0.3418	0.0286	0.049
Mof_H 	H 	0.0573	0.273	0.9715	0.068
Mof_C 	C 	0.0757	0.3674	0.0471	-0.027
Mof_H 	H 	0.0894	0.3942	0.0673	0.035
Mof_H 	H 	0.0439	0.3569	0.0615	0.032
Mof_C 	C 	0.1121	0.3229	0.0478	-0.03
Mof_H 	H 	0.0992	0.298	0.0706	0.032
Mof_H 	H 	0.1442	0.3347	0.0606	0.03
Mof_H 	H 	0.5695	0.5266	0.96	0.018
Mof_C 	C 	0.4495	0.499	0.9719	-0.012
Mof_N 	N 	0.112	0.71073	0.69139	-0.205
Mof_O 	O 	0.02464	0.92946	0.63711	-0.414
Mof_O 	O 	0.02686	0.93186	0.71822	-0.413
Mof_O 	O 	0.98897	0.56499	0.55058	-0.398
Mof_O 	O 	0.0637	0.52523	0.55014	-0.405
Mof_C 	C 	0.03315	0.91049	0.67791	0.398
Mof_C 	C 	0.05325	0.8576	0.6805	-0.182
Mof_C 	C 	0.06378	0.83644	0.72536	0.126
Mof_H 	H 	0.0584	0.8551	0.7537	0.001
Mof_C 	C 	0.08236	0.78767	0.72884	-0.228
Mof_H 	H 	0.0888	0.7736	0.7594	0.111
Mof_C 	C 	0.09123	0.7602	0.68733	0.193
Mof_C 	C 	0.08106	0.78122	0.64217	-0.231
Mof_H 	H 	0.087	0.7627	0.6139	0.113
Mof_C 	C 	0.06212	0.82949	0.63881	0.129
Mof_H 	H 	0.0552	0.8433	0.6083	-0.005
Mof_C 	C 	0.03401	0.5595	0.56409	0.355
Mof_C 	C 	0.05476	0.59767	0.5993	-0.143
Mof_C 	C 	0.10531	0.59799	0.61143	0.095
Mof_H 	H 	0.1267	0.5735	0.5986	0.008
Mof_C 	C 	0.12441	0.6344	0.64255	-0.199
Mof_H 	H 	0.1585	0.6341	0.6506	0.101
Mof_C 	C 	0.09294	0.67157	0.66192	0.169
Mof_C 	C 	0.04189	0.66965	0.65071	-0.189
Mof_H 	H 	0.0201	0.6931	0.6646	0.097
Mof_C 	C 	0.02301	0.63385	0.61964	0.069
Mof_H 	H 	0.9888	0.6337	0.6121	0.027
Mof_C 	C 	0.15613	0.70417	0.72112	0.234
Mof_C 	C 	0.19326	0.74065	0.72092	-0.289
Mof_H 	H 	0.19	0.769	0.7011	0.135
Mof_C 	C 	0.9809	0.9616	0.8293	0.103
Mof_H 	H 	0.9671	0.9344	0.8125	0.008
Mof_C 	C 	0.9808	0.9605	0.8793	-0.16
Mof_O 	O 	0.0155	0.0115	0.9523	-0.294
Mof_N 	N 	0.963	0.9182	0.9528	-0.202
Mof_C 	C 	0.9554	0.917	0.9048	0.09
Mof_H 	H 	0.9367	0.8923	0.8889	0.003
Mof_C 	C 	0.9475	0.8701	0.9735	-0.024
Mof_H 	H 	0.9153	0.8585	0.962	0.041
Mof_H 	H 	0.9728	0.847	0.962	0.04
Mof_C 	C 	0.0353	0.0361	0.5283	-0.047
Mof_H 	H 	0.069	0.0281	0.54	-0.139
Mof_H 	H 	0.0309	0.0678	0.5398	0.118
Mof_H 	H 	0.9113	0.6269	0.5285	0.043
Mof_H 	H 	0.8465	0.6695	0.4715	0.031
Mof_H 	H 	0.8418	0.5147	0.4714	0.041
Mof_H 	H 	0.773	0.5573	0.5285	0.038
Mof_C 	C 	0.8674	0.5757	0.4529	-0.046
Mof_H 	H 	0.8942	0.5894	0.4327	0.043
Mof_H 	H 	0.8569	0.5439	0.4385	0.041
Mof_C 	C 	0.8229	0.6121	0.4522	-0.051
Mof_H 	H 	0.798	0.5992	0.4294	0.042
Mof_H 	H 	0.8347	0.6442	0.4394	0.039
Mof_H 	H 	0.0266	0.0695	0.54	0.068
Mof_C 	C 	0.999	0.9495	0.5281	0.383
Mof_N 	N 	0.888	0.28927	0.69139	-0.21
Mof_O 	O 	0.97536	0.07054	0.63711	-0.41
Mof_O 	O 	0.97314	0.06814	0.71822	-0.41
Mof_O 	O 	0.01103	0.43501	0.55058	-0.431
Mof_O 	O 	0.9363	0.47477	0.55014	-0.414
Mof_C 	C 	0.96685	0.08951	0.67791	0.397
Mof_C 	C 	0.94675	0.1424	0.6805	-0.179
Mof_C 	C 	0.93622	0.16356	0.72536	0.125
Mof_H 	H 	0.9416	0.1449	0.7537	0.004
Mof_C 	C 	0.91764	0.21233	0.72884	-0.226
Mof_H 	H 	0.9112	0.2264	0.7594	0.113
Mof_C 	C 	0.90877	0.2398	0.68733	0.194
Mof_C 	C 	0.91894	0.21878	0.64217	-0.23
Mof_H 	H 	0.913	0.2373	0.6139	0.114
Mof_C 	C 	0.93788	0.17051	0.63881	0.128
Mof_H 	H 	0.9448	0.1567	0.6083	-0.001
Mof_C 	C 	0.96599	0.4405	0.56409	0.408
Mof_C 	C 	0.94524	0.40233	0.5993	-0.198
Mof_C 	C 	0.89469	0.40201	0.61143	0.141
Mof_H 	H 	0.8733	0.4265	0.5986	-0.007
Mof_C 	C 	0.87559	0.3656	0.64255	-0.236
Mof_H 	H 	0.8415	0.3659	0.6506	0.114
Mof_C 	C 	0.90706	0.32843	0.66192	0.205
Mof_C 	C 	0.95811	0.33035	0.65071	-0.253
Mof_H 	H 	0.9799	0.3069	0.6646	0.126
Mof_C 	C 	0.97699	0.36615	0.61964	0.175
Mof_H 	H 	0.0112	0.3663	0.6121	-0.028
Mof_C 	C 	0.84387	0.29583	0.72112	0.236
Mof_C 	C 	0.80674	0.25935	0.72092	-0.291
Mof_H 	H 	0.81	0.231	0.7011	0.134
Mof_C 	C 	0.0191	0.0384	0.8293	0.072
Mof_H 	H 	0.0329	0.0656	0.8125	0.01
Mof_C 	C 	0.0192	0.0395	0.8793	-0.175
Mof_O 	O 	0.9845	0.9885	0.9523	-0.228
Mof_N 	N 	0.037	0.0818	0.9528	-0.204
Mof_C 	C 	0.0446	0.083	0.9048	0.089
Mof_H 	H 	0.0633	0.1077	0.8889	-0
Mof_C 	C 	0.0525	0.1299	0.9735	-0.024
Mof_H 	H 	0.0847	0.1415	0.962	0.038
Mof_H 	H 	0.0272	0.153	0.962	0.036
Mof_C 	C 	0.9647	0.9639	0.5283	0.009
Mof_H 	H 	0.931	0.9719	0.54	0.225
Mof_H 	H 	0.9691	0.9322	0.5398	-0.08
Mof_H 	H 	0.0887	0.3731	0.5285	0.041
Mof_H 	H 	0.1535	0.3305	0.4715	0.03
Mof_H 	H 	0.1582	0.4853	0.4714	0.04
Mof_H 	H 	0.227	0.4427	0.5285	0.038
Mof_C 	C 	0.1326	0.4243	0.4529	-0.046
Mof_H 	H 	0.1058	0.4106	0.4327	0.042
Mof_H 	H 	0.1431	0.4561	0.4385	0.041
Mof_C 	C 	0.1771	0.3879	0.4522	-0.051
Mof_H 	H 	0.202	0.4008	0.4294	0.041
Mof_H 	H 	0.1653	0.3558	0.4394	0.038
Mof_H 	H 	0.9734	0.9305	0.54	-0.032
Mof_C 	C 	0.001	0.0505	0.5281	-0.429
Mof_N 	N 	0.71073	0.888	0.69139	-0.21
Mof_O 	O 	0.92946	0.97536	0.63711	-0.407
Mof_O 	O 	0.93186	0.97314	0.71822	-0.405
Mof_O 	O 	0.56499	0.01103	0.55058	-0.43
Mof_O 	O 	0.52523	0.9363	0.55014	-0.414
Mof_C 	C 	0.91049	0.96685	0.67791	0.398
Mof_C 	C 	0.8576	0.94675	0.6805	-0.179
Mof_C 	C 	0.83644	0.93622	0.72536	0.126
Mof_H 	H 	0.8551	0.9416	0.7537	0.005
Mof_C 	C 	0.78767	0.91764	0.72884	-0.226
Mof_H 	H 	0.7736	0.9112	0.7594	0.114
Mof_C 	C 	0.7602	0.90877	0.68733	0.194
Mof_C 	C 	0.78122	0.91894	0.64217	-0.23
Mof_H 	H 	0.7627	0.913	0.6139	0.115
Mof_C 	C 	0.82949	0.93788	0.63881	0.13
Mof_H 	H 	0.8433	0.9448	0.6083	-0.003
Mof_C 	C 	0.5595	0.96599	0.56409	0.408
Mof_C 	C 	0.59767	0.94524	0.5993	-0.197
Mof_C 	C 	0.59799	0.89469	0.61143	0.14
Mof_H 	H 	0.5735	0.8733	0.5986	-0.007
Mof_C 	C 	0.6344	0.87559	0.64255	-0.235
Mof_H 	H 	0.6341	0.8415	0.6506	0.114
Mof_C 	C 	0.67157	0.90706	0.66192	0.204
Mof_C 	C 	0.66965	0.95811	0.65071	-0.252
Mof_H 	H 	0.6931	0.9799	0.6646	0.125
Mof_C 	C 	0.63385	0.97699	0.61964	0.172
Mof_H 	H 	0.6337	0.0112	0.6121	-0.027
Mof_C 	C 	0.70417	0.84387	0.72112	0.236
Mof_C 	C 	0.74065	0.80674	0.72092	-0.29
Mof_H 	H 	0.769	0.81	0.7011	0.135
Mof_C 	C 	0.9616	0.0191	0.8293	0.093
Mof_H 	H 	0.9344	0.0329	0.8125	0.006
Mof_C 	C 	0.9605	0.0192	0.8793	-0.169
Mof_O 	O 	0.0115	0.9845	0.9523	-0.281
Mof_N 	N 	0.9182	0.037	0.9528	-0.204
Mof_C 	C 	0.917	0.0446	0.9048	0.09
Mof_H 	H 	0.8923	0.0633	0.8889	0.001
Mof_C 	C 	0.8701	0.0525	0.9735	-0.023
Mof_H 	H 	0.8585	0.0847	0.962	0.04
Mof_H 	H 	0.847	0.0272	0.962	0.035
Mof_C 	C 	0.0361	0.9647	0.5283	-0.657
Mof_H 	H 	0.0281	0.931	0.54	0.126
Mof_H 	H 	0.0678	0.9691	0.5398	-0.034
Mof_H 	H 	0.6269	0.0887	0.5285	0.041
Mof_H 	H 	0.6695	0.1535	0.4715	0.029
Mof_H 	H 	0.5147	0.1582	0.4714	0.04
Mof_H 	H 	0.5573	0.227	0.5285	0.038
Mof_C 	C 	0.5757	0.1326	0.4529	-0.046
Mof_H 	H 	0.5894	0.1058	0.4327	0.042
Mof_H 	H 	0.5439	0.1431	0.4385	0.04
Mof_C 	C 	0.6121	0.1771	0.4522	-0.051
Mof_H 	H 	0.5992	0.202	0.4294	0.041
Mof_H 	H 	0.6442	0.1653	0.4394	0.038
Mof_H 	H 	0.0695	0.9734	0.54	0.12
Mof_C 	C 	0.9495	0.001	0.5281	-0.529
Mof_N 	N 	0.28927	0.112	0.69139	-0.204
Mof_O 	O 	0.07054	0.02464	0.63711	-0.419
Mof_O 	O 	0.06814	0.02686	0.71822	-0.421
Mof_O 	O 	0.43501	0.98897	0.55058	-0.398
Mof_O 	O 	0.47477	0.0637	0.55014	-0.404
Mof_C 	C 	0.08951	0.03315	0.67791	0.398
Mof_C 	C 	0.1424	0.05325	0.6805	-0.183
Mof_C 	C 	0.16356	0.06378	0.72536	0.125
Mof_H 	H 	0.1449	0.0584	0.7537	0
Mof_C 	C 	0.21233	0.08236	0.72884	-0.228
Mof_H 	H 	0.2264	0.0888	0.7594	0.111
Mof_C 	C 	0.2398	0.09123	0.68733	0.192
Mof_C 	C 	0.21878	0.08106	0.64217	-0.23
Mof_H 	H 	0.2373	0.087	0.6139	0.113
Mof_C 	C 	0.17051	0.06212	0.63881	0.127
Mof_H 	H 	0.1567	0.0552	0.6083	-0.004
Mof_C 	C 	0.4405	0.03401	0.56409	0.354
Mof_C 	C 	0.40233	0.05476	0.5993	-0.142
Mof_C 	C 	0.40201	0.10531	0.61143	0.094
Mof_H 	H 	0.4265	0.1267	0.5986	0.009
Mof_C 	C 	0.3656	0.12441	0.64255	-0.198
Mof_H 	H 	0.3659	0.1585	0.6506	0.101
Mof_C 	C 	0.32843	0.09294	0.66192	0.168
Mof_C 	C 	0.33035	0.04189	0.65071	-0.187
Mof_H 	H 	0.3069	0.0201	0.6646	0.096
Mof_C 	C 	0.36615	0.02301	0.61964	0.066
Mof_H 	H 	0.3663	0.9888	0.6121	0.028
Mof_C 	C 	0.29583	0.15613	0.72112	0.233
Mof_C 	C 	0.25935	0.19326	0.72092	-0.289
Mof_H 	H 	0.231	0.19	0.7011	0.134
Mof_C 	C 	0.0384	0.9809	0.8293	0.091
Mof_H 	H 	0.0656	0.9671	0.8125	0.01
Mof_C 	C 	0.0395	0.9808	0.8793	-0.163
Mof_O 	O 	0.9885	0.0155	0.9523	-0.269
Mof_N 	N 	0.0818	0.963	0.9528	-0.2
Mof_C 	C 	0.083	0.9554	0.9048	0.09
Mof_H 	H 	0.1077	0.9367	0.8889	0.002
Mof_C 	C 	0.1299	0.9475	0.9735	-0.025
Mof_H 	H 	0.1415	0.9153	0.962	0.039
Mof_H 	H 	0.153	0.9728	0.962	0.041
Mof_C 	C 	0.9639	0.0353	0.5283	0.621
Mof_H 	H 	0.9719	0.069	0.54	-0.035
Mof_H 	H 	0.9322	0.0309	0.5398	0.07
Mof_H 	H 	0.3731	0.9113	0.5285	0.043
Mof_H 	H 	0.3305	0.8465	0.4715	0.031
Mof_H 	H 	0.4853	0.8418	0.4714	0.041
Mof_H 	H 	0.4427	0.773	0.5285	0.038
Mof_C 	C 	0.4243	0.8674	0.4529	-0.046
Mof_H 	H 	0.4106	0.8942	0.4327	0.043
Mof_H 	H 	0.4561	0.8569	0.4385	0.041
Mof_C 	C 	0.3879	0.8229	0.4522	-0.051
Mof_H 	H 	0.4008	0.798	0.4294	0.042
Mof_H 	H 	0.3558	0.8347	0.4394	0.039
Mof_H 	H 	0.9305	0.0266	0.54	-0.085
Mof_C 	C 	0.0505	0.999	0.5281	0.494
Mof_Cu	Cu	0.5	0.5	0.12851	0.91
Mof_Cu	Cu	0.5	0.5	0.22607	0.923
Mof_N 	N 	0.5	0.5	0.30365	-0.239
Mof_N 	N 	0.5	0.5	0.04787	-0.131
Mof_C 	C 	0.5	0.5	0.406	0.624
Mof_Cu	Cu	1.43808e-33	0	0.37149	0.899
Mof_Cu	Cu	-1.57021e-33	0	0.27393	0.912
Mof_N 	N 	7.60095e-34	0	0.19635	-0.252
Mof_N 	N 	-3.511e-33	0	0.45213	-0.159
Mof_C 	C 	1.6792e-33	0	0.094	0.553
Mof_Cu	Cu	0.5	0.5	0.87149	0.91
Mof_Cu	Cu	0.5	0.5	0.77393	0.923
Mof_N 	N 	0.5	0.5	0.69635	-0.239
Mof_N 	N 	0.5	0.5	0.95213	-0.15
Mof_C 	C 	0.5	0.5	0.594	0.624
Mof_Cu	Cu	2.43304e-33	-5.26125e-33	0.62851	0.899
Mof_Cu	Cu	-7.7118e-33	5.26125e-33	0.72607	0.912
Mof_N 	N 	3.11103e-33	0	0.80365	-0.251
Mof_N 	N 	-3.14038e-33	0	0.54787	-0.159
Mof_C 	C 	3.50724e-33	-1.05225e-32	0.906	0.543
Mof_Cu	Cu	0.45617	0.97601	-0	0.909
Mof_N 	N 	0.3867	0.93374	-0	-0.148
Mof_N 	N 	0.2966	0.8778	-0	-0.1
Mof_C 	C 	0.3917	0.8825	-0	-0.091
Mof_C 	C 	0.3454	0.8523	-0	-0.084
Mof_C 	C 	0.3415	0.9637	-0	-0.109
Mof_C 	C 	0.2924	0.9329	-0	-0.09
Mof_Cu	Cu	0.54383	0.02399	-0	0.899
Mof_N 	N 	0.6133	0.06626	-0	-0.151
Mof_N 	N 	0.7034	0.1222	-0	-0.099
Mof_C 	C 	0.6083	0.1175	-0	-0.09
Mof_C 	C 	0.6546	0.1477	-0	-0.084
Mof_C 	C 	0.6585	0.0363	-0	-0.103
Mof_C 	C 	0.7076	0.0671	-0	-0.091
Mof_Cu	Cu	0.02399	0.45617	-0	0.899
Mof_N 	N 	0.06626	0.3867	-0	-0.151
Mof_N 	N 	0.1222	0.2966	-0	-0.1
Mof_C 	C 	0.1175	0.3917	-0	-0.09
Mof_C 	C 	0.1477	0.3454	-0	-0.084
Mof_C 	C 	0.0363	0.3415	-0	-0.103
Mof_C 	C 	0.0671	0.2924	-0	-0.091
Mof_Cu	Cu	0.97601	0.54383	-0	0.909
Mof_N 	N 	0.93374	0.6133	-0	-0.148
Mof_N 	N 	0.8778	0.7034	-0	-0.099
Mof_C 	C 	0.8825	0.6083	-0	-0.091
Mof_C 	C 	0.8523	0.6546	-0	-0.084
Mof_C 	C 	0.9637	0.6585	-0	-0.108
Mof_C 	C 	0.9329	0.7076	-0	-0.09
Mof_Cu	Cu	0.04383	0.47601	0.5	0.914
Mof_N 	N 	0.1133	0.43374	0.5	-0.145
Mof_N 	N 	0.2034	0.3778	0.5	-0.094
Mof_C 	C 	0.1083	0.3825	0.5	-0.041
Mof_C 	C 	0.1546	0.3523	0.5	-0.027
Mof_C 	C 	0.1585	0.4637	0.5	-0.05
Mof_C 	C 	0.2076	0.4329	0.5	-0.044
Mof_Cu	Cu	0.95617	0.52399	0.5	0.917
Mof_N 	N 	0.8867	0.56626	0.5	-0.145
Mof_N 	N 	0.7966	0.6222	0.5	-0.094
Mof_C 	C 	0.8917	0.6175	0.5	-0.043
Mof_C 	C 	0.8454	0.6477	0.5	-0.027
Mof_C 	C 	0.8415	0.5363	0.5	-0.051
Mof_C 	C 	0.7924	0.5671	0.5	-0.043
Mof_Cu	Cu	0.47601	0.95617	0.5	0.917
Mof_N 	N 	0.43374	0.8867	0.5	-0.145
Mof_N 	N 	0.3778	0.7966	0.5	-0.093
Mof_C 	C 	0.3825	0.8917	0.5	-0.043
Mof_C 	C 	0.3523	0.8454	0.5	-0.028
Mof_C 	C 	0.4637	0.8415	0.5	-0.051
Mof_C 	C 	0.4329	0.7924	0.5	-0.043
Mof_Cu	Cu	0.52399	0.04383	0.5	0.914
Mof_N 	N 	0.56626	0.1133	0.5	-0.145
Mof_N 	N 	0.6222	0.2034	0.5	-0.094
Mof_C 	C 	0.6175	0.1083	0.5	-0.042
Mof_C 	C 	0.6477	0.1546	0.5	-0.027
Mof_C 	C 	0.5363	0.1585	0.5	-0.05
Mof_C 	C 	0.5671	0.2076	0.5	-0.044
Mof_C 	C 	0.73486	0.76514	0.25	0.203
Mof_H 	H 	0.7597	0.7403	0.25	-0.043
Mof_C 	C 	0.66179	0.83821	0.25	-0.304
Mof_H 	H 	0.637	0.863	0.25	0.143
Mof_C 	C 	0.26514	0.23486	0.25	0.201
Mof_H 	H 	0.2403	0.2597	0.25	-0.044
Mof_C 	C 	0.33821	0.16179	0.25	-0.302
Mof_H 	H 	0.363	0.137	0.25	0.141
Mof_C 	C 	0.23486	0.73486	0.25	0.201
Mof_H 	H 	0.2597	0.7597	0.25	-0.043
Mof_C 	C 	0.16179	0.66179	0.25	-0.302
Mof_H 	H 	0.137	0.637	0.25	0.141
Mof_C 	C 	0.76514	0.26514	0.25	0.203
Mof_H 	H 	0.7403	0.2403	0.25	-0.044
Mof_C 	C 	0.83821	0.33821	0.25	-0.304
Mof_H 	H 	0.863	0.363	0.25	0.143
Mof_C 	C 	0.26514	0.23486	0.75	0.202
Mof_H 	H 	0.2403	0.2597	0.75	-0.043
Mof_C 	C 	0.33821	0.16179	0.75	-0.302
Mof_H 	H 	0.363	0.137	0.75	0.141
Mof_C 	C 	0.73486	0.76514	0.75	0.205
Mof_H 	H 	0.7597	0.7403	0.75	-0.042
Mof_C 	C 	0.66179	0.83821	0.75	-0.304
Mof_H 	H 	0.637	0.863	0.75	0.143
Mof_C 	C 	0.76514	0.26514	0.75	0.204
Mof_H 	H 	0.7403	0.2403	0.75	-0.044
Mof_C 	C 	0.83821	0.33821	0.75	-0.304
Mof_H 	H 	0.863	0.363	0.75	0.143
Mof_C 	C 	0.23486	0.73486	0.75	0.203
Mof_H 	H 	0.2597	0.7597	0.75	-0.042
Mof_C 	C 	0.16179	0.66179	0.75	-0.302
Mof_H 	H 	0.137	0.637	0.75	0.141
Mof_Cu	Cu	0.4827	0.5324	0.5	0.735
Mof_Cu	Cu	0.5173	0.4676	0.5	0.735
Mof_Cu	Cu	0.4676	0.4827	0.5	0.735
Mof_Cu	Cu	0.5324	0.5173	0.5	0.735
Mof_Cu	Cu	0.0173	0.0324	-0	0.72
Mof_Cu	Cu	0.9827	0.9676	-0	0.722
Mof_Cu	Cu	0.0324	0.9827	-0	0.728
Mof_Cu	Cu	0.9676	0.0173	-0	0.719
_end
