data_functionalizedCrystal
_audit_creation_method	'EQeq! by Chris Wilmer'
_symmetry_space_group_name_H-M	'P1'
_symmetry_Int_Tables_number	1
_symmetry_cell_setting	triclinic
loop_
_symmetry_equiv_pos_as_xyz
  x,y,z
_cell_length_a	38.503
_cell_length_b	9.4511
_cell_length_c	9.8023
_cell_angle_alpha	90
_cell_angle_beta	100.578
_cell_angle_gamma	90
loop_
_atom_site_label
_atom_site_type_symbol
_atom_site_fract_x
_atom_site_fract_y
_atom_site_fract_z
_atom_site_charge
Mof_Zn	Zn	0.214	0.18806	0.09078	1.182
Mof_N 	N 	0.24843	0.3454	0.1536	-0.304
Mof_N 	N 	0.2763	0.384	0.0912	-0.309
Mof_N 	N 	0.27621	0.5261	0.2702	-0.363
Mof_O 	O 	0.1648	0.2266	0.0915	-0.547
Mof_O 	O 	0.167	0.394	0.9492	-0.402
Mof_C 	C 	0.24891	0.431	0.2583	0.256
Mof_C 	C 	0.2923	0.4922	0.1644	0.308
Mof_C 	C 	0.2232	0.4225	0.3562	-0.794
Mof_H 	H 	0.2007	0.3903	0.3068	0.241
Mof_H 	H 	0.2205	0.5144	0.3947	0.233
Mof_H 	H 	0.2319	0.3574	0.4297	0.225
Mof_C 	C 	0.3234	0.5633	0.1264	-0.913
Mof_H 	H 	0.3341	0.5023	0.0676	0.268
Mof_H 	H 	0.3402	0.5842	0.209	0.297
Mof_H 	H 	0.3161	0.6497	0.078	0.27
Mof_C 	C 	0.151	0.3251	0.0166	0.45
Mof_C 	C 	0.1124	0.3584	0.0188	-0.229
Mof_C 	C 	0.096	0.4622	0.9349	0.149
Mof_H 	H 	0.108	0.5087	0.8737	-0.012
Mof_C 	C 	0.0943	0.2815	0.0976	0.164
Mof_H 	H 	0.1053	0.2068	0.1504	-0.03
Mof_C 	C 	0.0589	0.3134	0.1006	-0.253
Mof_H 	H 	0.0466	0.2608	0.1562	0.119
Mof_C 	C 	0.0609	0.4993	0.941	-0.232
Mof_H 	H 	0.0501	0.5758	0.8906	0.122
Mof_C 	C 	0.0429	0.4201	0.023	0.209
Mof_N 	N 	0.0065	0.4466	0.0316	-0.107
Mof_Zn	Zn	0.714	0.68806	0.09078	1.183
Mof_N 	N 	0.74843	0.8454	0.1536	-0.303
Mof_N 	N 	0.7763	0.884	0.0912	-0.308
Mof_N 	N 	0.77621	0.0261	0.2702	-0.361
Mof_O 	O 	0.6648	0.7266	0.0915	-0.547
Mof_O 	O 	0.667	0.894	0.9492	-0.401
Mof_C 	C 	0.74891	0.931	0.2583	0.256
Mof_C 	C 	0.7923	0.9922	0.1644	0.306
Mof_C 	C 	0.7232	0.9225	0.3562	-0.795
Mof_H 	H 	0.7007	0.8903	0.3068	0.241
Mof_H 	H 	0.7205	0.0144	0.3947	0.234
Mof_H 	H 	0.7319	0.8574	0.4297	0.225
Mof_C 	C 	0.8234	0.0633	0.1264	-0.911
Mof_H 	H 	0.8341	0.0023	0.0676	0.268
Mof_H 	H 	0.8402	0.0842	0.209	0.296
Mof_H 	H 	0.8161	0.1497	0.078	0.27
Mof_C 	C 	0.651	0.8251	0.0166	0.449
Mof_C 	C 	0.6124	0.8584	0.0188	-0.23
Mof_C 	C 	0.596	0.9622	0.9349	0.151
Mof_H 	H 	0.608	0.0087	0.8737	-0.013
Mof_C 	C 	0.5943	0.7815	0.0976	0.164
Mof_H 	H 	0.6053	0.7068	0.1504	-0.03
Mof_C 	C 	0.5589	0.8134	0.1006	-0.252
Mof_H 	H 	0.5466	0.7608	0.1562	0.119
Mof_C 	C 	0.5609	0.9993	0.941	-0.23
Mof_H 	H 	0.5501	0.0758	0.8906	0.12
Mof_C 	C 	0.5429	0.9201	0.023	0.207
Mof_N 	N 	0.5065	0.9466	0.0316	-0.107
Mof_Zn	Zn	0.786	0.18806	0.40922	1.183
Mof_N 	N 	0.75157	0.3454	0.3464	-0.303
Mof_N 	N 	0.7237	0.384	0.4088	-0.308
Mof_N 	N 	0.72379	0.5261	0.2298	-0.362
Mof_O 	O 	0.8352	0.2266	0.4085	-0.547
Mof_O 	O 	0.833	0.394	0.5508	-0.402
Mof_C 	C 	0.75109	0.431	0.2417	0.256
Mof_C 	C 	0.7077	0.4922	0.3356	0.307
Mof_C 	C 	0.7768	0.4225	0.1438	-0.795
Mof_H 	H 	0.7993	0.3903	0.1932	0.241
Mof_H 	H 	0.7795	0.5144	0.1053	0.233
Mof_H 	H 	0.7681	0.3574	0.0703	0.225
Mof_C 	C 	0.6766	0.5633	0.3736	-0.913
Mof_H 	H 	0.6659	0.5023	0.4324	0.268
Mof_H 	H 	0.6598	0.5842	0.291	0.297
Mof_H 	H 	0.6839	0.6497	0.422	0.27
Mof_C 	C 	0.849	0.3251	0.4834	0.449
Mof_C 	C 	0.8876	0.3584	0.4812	-0.229
Mof_C 	C 	0.904	0.4622	0.5651	0.149
Mof_H 	H 	0.892	0.5087	0.6263	-0.012
Mof_C 	C 	0.9057	0.2815	0.4024	0.164
Mof_H 	H 	0.8947	0.2068	0.3496	-0.03
Mof_C 	C 	0.9411	0.3134	0.3994	-0.253
Mof_H 	H 	0.9534	0.2608	0.3438	0.119
Mof_C 	C 	0.9391	0.4993	0.559	-0.232
Mof_H 	H 	0.9499	0.5758	0.6094	0.122
Mof_C 	C 	0.9571	0.4201	0.477	0.209
Mof_N 	N 	0.9935	0.4466	0.4684	-0.107
Mof_Zn	Zn	0.286	0.68806	0.40922	1.183
Mof_N 	N 	0.25157	0.8454	0.3464	-0.303
Mof_N 	N 	0.2237	0.884	0.4088	-0.308
Mof_N 	N 	0.22379	0.0261	0.2298	-0.361
Mof_O 	O 	0.3352	0.7266	0.4085	-0.547
Mof_O 	O 	0.333	0.894	0.5508	-0.402
Mof_C 	C 	0.25109	0.931	0.2417	0.256
Mof_C 	C 	0.2077	0.9922	0.3356	0.307
Mof_C 	C 	0.2768	0.9225	0.1438	-0.797
Mof_H 	H 	0.2993	0.8903	0.1932	0.241
Mof_H 	H 	0.2795	0.0144	0.1053	0.234
Mof_H 	H 	0.2681	0.8574	0.0703	0.225
Mof_C 	C 	0.1766	0.0633	0.3736	-0.911
Mof_H 	H 	0.1659	0.0023	0.4324	0.267
Mof_H 	H 	0.1598	0.0842	0.291	0.297
Mof_H 	H 	0.1839	0.1497	0.422	0.27
Mof_C 	C 	0.349	0.8251	0.4834	0.45
Mof_C 	C 	0.3876	0.8584	0.4812	-0.229
Mof_C 	C 	0.404	0.9622	0.5651	0.149
Mof_H 	H 	0.392	0.0087	0.6263	-0.012
Mof_C 	C 	0.4057	0.7815	0.4024	0.164
Mof_H 	H 	0.3947	0.7068	0.3496	-0.03
Mof_C 	C 	0.4411	0.8134	0.3994	-0.253
Mof_H 	H 	0.4534	0.7608	0.3438	0.119
Mof_C 	C 	0.4391	0.9993	0.559	-0.233
Mof_H 	H 	0.4499	0.0758	0.6094	0.122
Mof_C 	C 	0.4571	0.9201	0.477	0.209
Mof_N 	N 	0.4935	0.9466	0.4684	-0.107
Mof_Zn	Zn	0.786	0.81194	0.90922	1.183
Mof_N 	N 	0.75157	0.6546	0.8464	-0.303
Mof_N 	N 	0.7237	0.616	0.9088	-0.308
Mof_N 	N 	0.72379	0.4739	0.7298	-0.362
Mof_O 	O 	0.8352	0.7734	0.9085	-0.547
Mof_O 	O 	0.833	0.606	0.0508	-0.402
Mof_C 	C 	0.75109	0.569	0.7417	0.256
Mof_C 	C 	0.7077	0.5078	0.8356	0.308
Mof_C 	C 	0.7768	0.5775	0.6438	-0.794
Mof_H 	H 	0.7993	0.6097	0.6932	0.241
Mof_H 	H 	0.7795	0.4856	0.6053	0.233
Mof_H 	H 	0.7681	0.6426	0.5703	0.225
Mof_C 	C 	0.6766	0.4367	0.8736	-0.913
Mof_H 	H 	0.6659	0.4977	0.9324	0.268
Mof_H 	H 	0.6598	0.4158	0.791	0.297
Mof_H 	H 	0.6839	0.3503	0.922	0.27
Mof_C 	C 	0.849	0.6749	0.9834	0.45
Mof_C 	C 	0.8876	0.6416	0.9812	-0.229
Mof_C 	C 	0.904	0.5378	0.0651	0.149
Mof_H 	H 	0.892	0.4913	0.1263	-0.012
Mof_C 	C 	0.9057	0.7185	0.9024	0.164
Mof_H 	H 	0.8947	0.7932	0.8496	-0.03
Mof_C 	C 	0.9411	0.6866	0.8994	-0.253
Mof_H 	H 	0.9534	0.7392	0.8438	0.119
Mof_C 	C 	0.9391	0.5007	0.059	-0.232
Mof_H 	H 	0.9499	0.4242	0.1094	0.122
Mof_C 	C 	0.9571	0.5799	0.977	0.209
Mof_N 	N 	0.9935	0.5534	0.9684	-0.107
Mof_Zn	Zn	0.286	0.31194	0.90922	1.183
Mof_N 	N 	0.25157	0.1546	0.8464	-0.303
Mof_N 	N 	0.2237	0.116	0.9088	-0.308
Mof_N 	N 	0.22379	0.9739	0.7298	-0.361
Mof_O 	O 	0.3352	0.2734	0.9085	-0.547
Mof_O 	O 	0.333	0.106	0.0508	-0.401
Mof_C 	C 	0.25109	0.069	0.7417	0.256
Mof_C 	C 	0.2077	0.0078	0.8356	0.306
Mof_C 	C 	0.2768	0.0775	0.6438	-0.795
Mof_H 	H 	0.2993	0.1097	0.6932	0.241
Mof_H 	H 	0.2795	0.9856	0.6053	0.234
Mof_H 	H 	0.2681	0.1426	0.5703	0.225
Mof_C 	C 	0.1766	0.9367	0.8736	-0.911
Mof_H 	H 	0.1659	0.9977	0.9324	0.268
Mof_H 	H 	0.1598	0.9158	0.791	0.296
Mof_H 	H 	0.1839	0.8503	0.922	0.27
Mof_C 	C 	0.349	0.1749	0.9834	0.449
Mof_C 	C 	0.3876	0.1416	0.9812	-0.23
Mof_C 	C 	0.404	0.0378	0.0651	0.151
Mof_H 	H 	0.392	0.9913	0.1263	-0.013
Mof_C 	C 	0.4057	0.2185	0.9024	0.164
Mof_H 	H 	0.3947	0.2932	0.8496	-0.03
Mof_C 	C 	0.4411	0.1866	0.8994	-0.252
Mof_H 	H 	0.4534	0.2392	0.8438	0.119
Mof_C 	C 	0.4391	0.0007	0.059	-0.23
Mof_H 	H 	0.4499	0.9242	0.1094	0.12
Mof_C 	C 	0.4571	0.0799	0.977	0.207
Mof_N 	N 	0.4935	0.0534	0.9684	-0.107
Mof_Zn	Zn	0.214	0.81194	0.59078	1.183
Mof_N 	N 	0.24843	0.6546	0.6536	-0.303
Mof_N 	N 	0.2763	0.616	0.5912	-0.308
Mof_N 	N 	0.27621	0.4739	0.7702	-0.362
Mof_O 	O 	0.1648	0.7734	0.5915	-0.547
Mof_O 	O 	0.167	0.606	0.4492	-0.402
Mof_C 	C 	0.24891	0.569	0.7583	0.256
Mof_C 	C 	0.2923	0.5078	0.6644	0.307
Mof_C 	C 	0.2232	0.5775	0.8562	-0.795
Mof_H 	H 	0.2007	0.6097	0.8068	0.241
Mof_H 	H 	0.2205	0.4856	0.8947	0.233
Mof_H 	H 	0.2319	0.6426	0.9297	0.225
Mof_C 	C 	0.3234	0.4367	0.6264	-0.913
Mof_H 	H 	0.3341	0.4977	0.5676	0.268
Mof_H 	H 	0.3402	0.4158	0.709	0.297
Mof_H 	H 	0.3161	0.3503	0.578	0.27
Mof_C 	C 	0.151	0.6749	0.5166	0.449
Mof_C 	C 	0.1124	0.6416	0.5188	-0.229
Mof_C 	C 	0.096	0.5378	0.4349	0.149
Mof_H 	H 	0.108	0.4913	0.3737	-0.012
Mof_C 	C 	0.0943	0.7185	0.5976	0.164
Mof_H 	H 	0.1053	0.7932	0.6504	-0.03
Mof_C 	C 	0.0589	0.6866	0.6006	-0.253
Mof_H 	H 	0.0466	0.7392	0.6562	0.119
Mof_C 	C 	0.0609	0.5007	0.441	-0.232
Mof_H 	H 	0.0501	0.4242	0.3906	0.122
Mof_C 	C 	0.0429	0.5799	0.523	0.209
Mof_N 	N 	0.0065	0.5534	0.5316	-0.107
Mof_Zn	Zn	0.714	0.31194	0.59078	1.183
Mof_N 	N 	0.74843	0.1546	0.6536	-0.303
Mof_N 	N 	0.7763	0.116	0.5912	-0.308
Mof_N 	N 	0.77621	0.9739	0.7702	-0.361
Mof_O 	O 	0.6648	0.2734	0.5915	-0.547
Mof_O 	O 	0.667	0.106	0.4492	-0.402
Mof_C 	C 	0.74891	0.069	0.7583	0.256
Mof_C 	C 	0.7923	0.0078	0.6644	0.307
Mof_C 	C 	0.7232	0.0775	0.8562	-0.797
Mof_H 	H 	0.7007	0.1097	0.8068	0.241
Mof_H 	H 	0.7205	0.9856	0.8947	0.234
Mof_H 	H 	0.7319	0.1426	0.9297	0.225
Mof_C 	C 	0.8234	0.9367	0.6264	-0.911
Mof_H 	H 	0.8341	0.9977	0.5676	0.267
Mof_H 	H 	0.8402	0.9158	0.709	0.297
Mof_H 	H 	0.8161	0.8503	0.578	0.27
Mof_C 	C 	0.651	0.1749	0.5166	0.45
Mof_C 	C 	0.6124	0.1416	0.5188	-0.229
Mof_C 	C 	0.596	0.0378	0.4349	0.149
Mof_H 	H 	0.608	0.9913	0.3737	-0.012
Mof_C 	C 	0.5943	0.2185	0.5976	0.164
Mof_H 	H 	0.6053	0.2932	0.6504	-0.03
Mof_C 	C 	0.5589	0.1866	0.6006	-0.253
Mof_H 	H 	0.5466	0.2392	0.6562	0.119
Mof_C 	C 	0.5609	0.0007	0.441	-0.233
Mof_H 	H 	0.5501	0.9242	0.3906	0.122
Mof_C 	C 	0.5429	0.0799	0.523	0.209
Mof_N 	N 	0.5065	0.0534	0.5316	-0.107
_end
