data_functionalizedCrystal
_audit_creation_method	'EQeq! by Chris Wilmer'
_symmetry_space_group_name_H-M	'P1'
_symmetry_Int_Tables_number	1
_symmetry_cell_setting	triclinic
loop_
_symmetry_equiv_pos_as_xyz
  x,y,z
_cell_length_a	12.721
_cell_length_b	12.855
_cell_length_c	17.454
_cell_angle_alpha	106.426
_cell_angle_beta	102.724
_cell_angle_gamma	99.862
loop_
_atom_site_label
_atom_site_type_symbol
_atom_site_fract_x
_atom_site_fract_y
_atom_site_fract_z
_atom_site_charge
Mof_C 	C 	0.3864	0.4897	0.1065	0.269
Mof_C 	C 	0.8953	0.7943	0.5661	-0.453
Mof_H 	H 	0.896	0.7371	0.5931	0.092
Mof_H 	H 	0.8438	0.7615	0.5098	0.076
Mof_H 	H 	0.8712	0.8565	0.5986	0.054
Mof_C 	C 	0.0954	0.8814	0.647	-0.495
Mof_H 	H 	0.0739	0.9425	0.6831	0.128
Mof_H 	H 	0.1699	0.9091	0.6428	0.111
Mof_H 	H 	0.0959	0.8208	0.6707	0.117
Mof_C 	C 	0.46	0.492	0.1884	-0.443
Mof_H 	H 	0.4165	0.4942	0.2285	0.085
Mof_H 	H 	0.5226	0.5586	0.2103	0.103
Mof_H 	H 	0.4884	0.4246	0.1794	0.072
Mof_C 	C 	0.0471	0.7426	0.5037	-0.401
Mof_H 	H 	0.0433	0.6795	0.5249	0.08
Mof_H 	H 	0.1234	0.7697	0.5026	0.055
Mof_H 	H 	0.9966	0.7179	0.4472	0.058
Mof_C 	C 	0.0126	0.8376	0.5609	0.283
Mof_C 	C 	0.2894	0.3863	0.0711	-0.405
Mof_H 	H 	0.3178	0.319	0.0633	0.048
Mof_H 	H 	0.2439	0.3846	0.0173	0.066
Mof_H 	H 	0.2438	0.3887	0.1098	0.074
Mof_C 	C 	0.3411	0.5956	0.12	-0.443
Mof_H 	H 	0.2961	0.597	0.159	0.098
Mof_H 	H 	0.2949	0.5943	0.0666	0.069
Mof_H 	H 	0.4034	0.6624	0.1429	0.064
Mof_N 	N 	0.0188	0.9329	0.5266	-0.278
Mof_N 	N 	0.4531	0.4847	0.0451	-0.275
Mof_Na	Na	0.15259	0.31854	0.7787	1.663
Mof_Na	Na	0.25476	0.0196	0.50634	2.263
Mof_P 	P 	0.41097	0.45432	0.94006	0.199
Mof_P 	P 	0.02871	0.07091	0.57387	0.175
Mof_S 	S 	0.36426	0.29159	0.87526	-0.687
Mof_S 	S 	0.92315	0.10155	0.6406	-0.619
Mof_Cl	Cl	0.30625	0.53938	0.90178	-0.899
Mof_Cl	Cl	0.18388	0.16049	0.63281	-0.913
Mof_C 	C 	0.7635	0.1564	0.074	-0.453
Mof_H 	H 	0.7439	0.1639	0.0186	0.065
Mof_H 	H 	0.7345	0.2086	0.1116	0.068
Mof_H 	H 	0.8446	0.1735	0.0957	0.1
Mof_C 	C 	0.7124	0.0357	0.0677	0.286
Mof_C 	C 	0.7623	0.9537	0.0122	-0.453
Mof_H 	H 	0.8436	0.9756	0.034	0.092
Mof_H 	H 	0.7342	0.8777	0.012	0.066
Mof_H 	H 	0.7407	0.9555	0.9552	0.096
Mof_C 	C 	0.7357	0.0264	0.1538	-0.448
Mof_H 	H 	0.7003	0.0762	0.1876	0.099
Mof_H 	H 	0.7056	0.949	0.1497	0.079
Mof_H 	H 	0.8162	0.0481	0.18	0.106
Mof_N 	N 	0.5888	0.0035	0.0297	-0.279
Mof_Na	Na	0.53377	0.2513	0.9904	2.242
Mof_P 	P 	0.51429	0.96429	0.92786	0.203
Mof_S 	S 	0.48806	0.80207	0.86646	-0.754
Mof_Cl	Cl	0.5635	0.06253	0.86674	-0.86
Mof_C 	C 	0.4156	0.8261	0.365	0.281
Mof_C 	C 	0.3506	0.7286	0.3837	-0.463
Mof_H 	H 	0.4004	0.7095	0.4261	0.11
Mof_H 	H 	0.2893	0.7508	0.4043	0.082
Mof_H 	H 	0.3206	0.6635	0.3326	0.1
Mof_C 	C 	0.516	0.7953	0.3376	-0.469
Mof_H 	H 	0.49	0.7306	0.2861	0.124
Mof_H 	H 	0.5585	0.859	0.3279	0.09
Mof_H 	H 	0.5637	0.7765	0.3814	0.065
Mof_C 	C 	0.3402	0.8528	0.2966	-0.406
Mof_H 	H 	0.2785	0.8769	0.3155	0.048
Mof_H 	H 	0.3829	0.913	0.2832	0.066
Mof_H 	H 	0.3106	0.7858	0.2468	0.089
Mof_N 	N 	0.4523	0.9257	0.4424	-0.284
Mof_P 	P 	0.50166	0.06427	0.45637	0.184
Mof_S 	S 	0.38421	0.14356	0.43277	-0.711
Mof_Cl	Cl	0.62326	0.09601	0.40517	-0.926
Mof_Na	Na	0.52686	0.8423	0.7172	1.774
Mof_C 	C 	0.6136	0.5103	0.8935	0.269
Mof_C 	C 	0.1047	0.2057	0.4339	-0.453
Mof_H 	H 	0.104	0.2629	0.4069	0.092
Mof_H 	H 	0.1562	0.2385	0.4902	0.076
Mof_H 	H 	0.1288	0.1435	0.4014	0.054
Mof_C 	C 	0.9046	0.1186	0.353	-0.495
Mof_H 	H 	0.9261	0.0575	0.3169	0.128
Mof_H 	H 	0.8301	0.0909	0.3572	0.111
Mof_H 	H 	0.9041	0.1792	0.3293	0.117
Mof_C 	C 	0.54	0.508	0.8116	-0.443
Mof_H 	H 	0.5835	0.5058	0.7715	0.085
Mof_H 	H 	0.4774	0.4414	0.7897	0.103
Mof_H 	H 	0.5116	0.5754	0.8206	0.072
Mof_C 	C 	0.9529	0.2574	0.4963	-0.401
Mof_H 	H 	0.9567	0.3205	0.4751	0.08
Mof_H 	H 	0.8766	0.2303	0.4974	0.055
Mof_H 	H 	0.0034	0.2821	0.5528	0.058
Mof_C 	C 	0.9874	0.1624	0.4391	0.283
Mof_C 	C 	0.7106	0.6137	0.9289	-0.405
Mof_H 	H 	0.6822	0.681	0.9367	0.048
Mof_H 	H 	0.7561	0.6154	0.9827	0.066
Mof_H 	H 	0.7562	0.6113	0.8902	0.074
Mof_C 	C 	0.6589	0.4044	0.88	-0.443
Mof_H 	H 	0.7039	0.403	0.841	0.098
Mof_H 	H 	0.7051	0.4057	0.9334	0.069
Mof_H 	H 	0.5966	0.3376	0.8571	0.064
Mof_N 	N 	0.9812	0.0671	0.4734	-0.278
Mof_N 	N 	0.5469	0.5153	0.9549	-0.275
Mof_Na	Na	0.84741	0.68146	0.2213	1.663
Mof_Na	Na	0.74524	0.9804	0.49366	2.263
Mof_P 	P 	0.58903	0.54568	0.05994	0.199
Mof_P 	P 	0.97129	0.92909	0.42613	0.175
Mof_S 	S 	0.63574	0.70841	0.12474	-0.687
Mof_S 	S 	0.07685	0.89845	0.3594	-0.619
Mof_Cl	Cl	0.69375	0.46062	0.09822	-0.899
Mof_Cl	Cl	0.81612	0.83951	0.36719	-0.913
Mof_C 	C 	0.2365	0.8436	0.926	-0.453
Mof_H 	H 	0.2561	0.8361	0.9814	0.065
Mof_H 	H 	0.2655	0.7914	0.8884	0.068
Mof_H 	H 	0.1554	0.8265	0.9043	0.1
Mof_C 	C 	0.2876	0.9643	0.9323	0.286
Mof_C 	C 	0.2377	0.0463	0.9878	-0.453
Mof_H 	H 	0.1564	0.0244	0.966	0.092
Mof_H 	H 	0.2658	0.1223	0.988	0.066
Mof_H 	H 	0.2593	0.0445	0.0448	0.096
Mof_C 	C 	0.2643	0.9736	0.8462	-0.448
Mof_H 	H 	0.2997	0.9238	0.8124	0.099
Mof_H 	H 	0.2944	0.051	0.8503	0.079
Mof_H 	H 	0.1838	0.9519	0.82	0.106
Mof_N 	N 	0.4112	0.9965	0.9703	-0.279
Mof_Na	Na	0.46623	0.7487	0.0096	2.242
Mof_P 	P 	0.48571	0.03571	0.07214	0.203
Mof_S 	S 	0.51194	0.19793	0.13354	-0.754
Mof_Cl	Cl	0.4365	0.93747	0.13326	-0.86
Mof_C 	C 	0.5844	0.1739	0.635	0.281
Mof_C 	C 	0.6494	0.2714	0.6163	-0.463
Mof_H 	H 	0.5996	0.2905	0.5739	0.11
Mof_H 	H 	0.7107	0.2492	0.5957	0.082
Mof_H 	H 	0.6794	0.3365	0.6674	0.1
Mof_C 	C 	0.484	0.2047	0.6624	-0.469
Mof_H 	H 	0.51	0.2694	0.7139	0.124
Mof_H 	H 	0.4415	0.141	0.6721	0.09
Mof_H 	H 	0.4363	0.2235	0.6186	0.065
Mof_C 	C 	0.6598	0.1472	0.7034	-0.406
Mof_H 	H 	0.7215	0.1231	0.6845	0.048
Mof_H 	H 	0.6171	0.087	0.7168	0.066
Mof_H 	H 	0.6894	0.2142	0.7532	0.089
Mof_N 	N 	0.5477	0.0743	0.5576	-0.284
Mof_P 	P 	0.49834	0.93573	0.54363	0.184
Mof_S 	S 	0.61579	0.85644	0.56723	-0.711
Mof_Cl	Cl	0.37674	0.90399	0.59483	-0.926
Mof_Na	Na	0.47314	0.1577	0.2828	1.774
_end
