data_functionalizedCrystal
_audit_creation_method	'EQeq! by Chris Wilmer'
_symmetry_space_group_name_H-M	'P1'
_symmetry_Int_Tables_number	1
_symmetry_cell_setting	triclinic
loop_
_symmetry_equiv_pos_as_xyz
  x,y,z
_cell_length_a	12.9591
_cell_length_b	13.7971
_cell_length_c	16.8153
_cell_angle_alpha	90
_cell_angle_beta	90
_cell_angle_gamma	90
loop_
_atom_site_label
_atom_site_type_symbol
_atom_site_fract_x
_atom_site_fract_y
_atom_site_fract_z
_atom_site_charge
Mof_Zn	Zn	0.42665	0.97754	0.40392	1.183
Mof_Zn	Zn	0.4766	0.90714	0.0761	1.185
Mof_Zn	Zn	0.57335	0.52246	0.90392	1.184
Mof_Zn	Zn	0.5234	0.59286	0.5761	1.185
Mof_Zn	Zn	0.92665	0.02246	0.09608	1.182
Mof_Zn	Zn	0.9766	0.09286	0.4239	1.182
Mof_Zn	Zn	0.07335	0.47754	0.59608	1.184
Mof_Zn	Zn	0.0234	0.40714	0.9239	1.184
Mof_Zn	Zn	0.57335	0.02246	0.59608	1.183
Mof_Zn	Zn	0.5234	0.09286	0.9239	1.185
Mof_Zn	Zn	0.42665	0.47754	0.09608	1.184
Mof_Zn	Zn	0.4766	0.40714	0.4239	1.185
Mof_Zn	Zn	0.07335	0.97754	0.90392	1.182
Mof_Zn	Zn	0.0234	0.90714	0.5761	1.182
Mof_Zn	Zn	0.92665	0.52246	0.40392	1.184
Mof_Zn	Zn	0.9766	0.59286	0.0761	1.184
Mof_H 	H 	0.2518	0.8634	0.5016	-0.047
Mof_H 	H 	0.4466	0.195	0.3529	-0.01
Mof_H 	H 	0.1725	0.1693	0.3563	0.136
Mof_H 	H 	0.2817	0.1325	0.341	0.144
Mof_H 	H 	0.5871	0.2378	0.6253	0.148
Mof_H 	H 	0.5642	0.3334	0.5835	0.132
Mof_H 	H 	0.7482	0.6366	0.0016	-0.051
Mof_H 	H 	0.5534	0.305	0.8529	-0.01
Mof_H 	H 	0.8275	0.3307	0.8563	0.135
Mof_H 	H 	0.7183	0.3675	0.841	0.143
Mof_H 	H 	0.4129	0.2622	0.1253	0.148
Mof_H 	H 	0.4358	0.1666	0.0835	0.133
Mof_H 	H 	0.7518	0.1366	0.9984	-0.043
Mof_H 	H 	0.9466	0.805	0.1471	-0.01
Mof_H 	H 	0.6725	0.8307	0.1437	0.135
Mof_H 	H 	0.7817	0.8675	0.159	0.144
Mof_H 	H 	0.0871	0.7622	0.8747	0.147
Mof_H 	H 	0.0642	0.6666	0.9165	0.13
Mof_H 	H 	0.2482	0.3634	0.4984	-0.046
Mof_H 	H 	0.0534	0.695	0.6471	-0.012
Mof_H 	H 	0.3275	0.6693	0.6437	0.135
Mof_H 	H 	0.2183	0.6325	0.659	0.143
Mof_H 	H 	0.9129	0.7378	0.3747	0.148
Mof_H 	H 	0.9358	0.8334	0.4165	0.134
Mof_H 	H 	0.7482	0.1366	0.4984	-0.047
Mof_H 	H 	0.5534	0.805	0.6471	-0.01
Mof_H 	H 	0.8275	0.8307	0.6437	0.136
Mof_H 	H 	0.7183	0.8675	0.659	0.144
Mof_H 	H 	0.4129	0.7622	0.3747	0.148
Mof_H 	H 	0.4358	0.6666	0.4165	0.132
Mof_H 	H 	0.2518	0.3634	0.9984	-0.051
Mof_H 	H 	0.4466	0.695	0.1471	-0.01
Mof_H 	H 	0.1725	0.6693	0.1437	0.135
Mof_H 	H 	0.2817	0.6325	0.159	0.143
Mof_H 	H 	0.5871	0.7378	0.8747	0.148
Mof_H 	H 	0.5642	0.8334	0.9165	0.133
Mof_H 	H 	0.2482	0.8634	0.0016	-0.043
Mof_H 	H 	0.0534	0.195	0.8529	-0.01
Mof_H 	H 	0.3275	0.1693	0.8563	0.135
Mof_H 	H 	0.2183	0.1325	0.841	0.144
Mof_H 	H 	0.9129	0.2378	0.1253	0.147
Mof_H 	H 	0.9358	0.3334	0.0835	0.13
Mof_H 	H 	0.7518	0.6366	0.5016	-0.046
Mof_H 	H 	0.9466	0.305	0.3529	-0.012
Mof_H 	H 	0.6725	0.3307	0.3563	0.135
Mof_H 	H 	0.7817	0.3675	0.341	0.143
Mof_H 	H 	0.0871	0.2622	0.6253	0.148
Mof_H 	H 	0.0642	0.1666	0.5835	0.134
Mof_C 	C 	0.4235	0.006	0.22305	0.203
Mof_C 	C 	0.4724	0.9091	0.24642	0.238
Mof_C 	C 	0.2023	0.0475	0.41099	0.191
Mof_C 	C 	0.2221	0.9195	0.47818	0.098
Mof_C 	C 	0.5269	0.2204	0.51992	0.189
Mof_C 	C 	0.4716	0.188	0.40569	0.091
Mof_C 	C 	0.5765	0.494	0.72305	0.202
Mof_C 	C 	0.5276	0.5909	0.74642	0.24
Mof_C 	C 	0.7977	0.4525	0.91099	0.187
Mof_C 	C 	0.7779	0.5805	0.97818	0.106
Mof_C 	C 	0.4731	0.2796	0.01992	0.19
Mof_C 	C 	0.5284	0.312	0.90569	0.091
Mof_C 	C 	0.9235	0.994	0.27695	0.214
Mof_C 	C 	0.9724	0.0909	0.25358	0.218
Mof_C 	C 	0.7023	0.9525	0.08901	0.19
Mof_C 	C 	0.7221	0.0805	0.02182	0.094
Mof_C 	C 	0.0269	0.7796	0.98008	0.183
Mof_C 	C 	0.9716	0.812	0.09431	0.092
Mof_C 	C 	0.0765	0.506	0.77695	0.202
Mof_C 	C 	0.0276	0.4091	0.75358	0.238
Mof_C 	C 	0.2977	0.5475	0.58901	0.186
Mof_C 	C 	0.2779	0.4195	0.52182	0.099
Mof_C 	C 	0.9731	0.7204	0.48008	0.194
Mof_C 	C 	0.0284	0.688	0.59431	0.09
Mof_C 	C 	0.5765	0.994	0.77695	0.203
Mof_C 	C 	0.5276	0.0909	0.75358	0.238
Mof_C 	C 	0.7977	0.9525	0.58901	0.191
Mof_C 	C 	0.7779	0.0805	0.52182	0.098
Mof_C 	C 	0.4731	0.7796	0.48008	0.189
Mof_C 	C 	0.5284	0.812	0.59431	0.091
Mof_C 	C 	0.4235	0.506	0.27695	0.202
Mof_C 	C 	0.4724	0.4091	0.25358	0.24
Mof_C 	C 	0.2023	0.5475	0.08901	0.187
Mof_C 	C 	0.2221	0.4195	0.02182	0.106
Mof_C 	C 	0.5269	0.7204	0.98008	0.19
Mof_C 	C 	0.4716	0.688	0.09431	0.091
Mof_C 	C 	0.0765	0.006	0.72305	0.214
Mof_C 	C 	0.0276	0.9091	0.74642	0.218
Mof_C 	C 	0.2977	0.0475	0.91099	0.19
Mof_C 	C 	0.2779	0.9195	0.97818	0.094
Mof_C 	C 	0.9731	0.2204	0.01992	0.183
Mof_C 	C 	0.0284	0.188	0.90569	0.092
Mof_C 	C 	0.9235	0.494	0.22305	0.202
Mof_C 	C 	0.9724	0.5909	0.24642	0.238
Mof_C 	C 	0.7023	0.4525	0.41099	0.186
Mof_C 	C 	0.7221	0.5805	0.47818	0.099
Mof_C 	C 	0.0269	0.2796	0.51992	0.194
Mof_C 	C 	0.9716	0.312	0.40569	0.09
Mof_N 	N 	0.2737	0.97853	0.428	-0.306
Mof_N 	N 	0.1271	0.94717	0.4914	-0.26
Mof_N 	N 	0.1136	0.0314	0.44764	-0.269
Mof_N 	N 	0.221	0.1256	0.3639	-0.324
Mof_N 	N 	0.5233	0.12399	0.51537	-0.265
Mof_N 	N 	0.4867	0.10408	0.4396	-0.264
Mof_N 	N 	0.4948	0.26318	0.45276	-0.293
Mof_N 	N 	0.5637	0.2696	0.58371	-0.32
Mof_N 	N 	0.7263	0.52147	0.928	-0.304
Mof_N 	N 	0.8729	0.55283	0.9914	-0.255
Mof_N 	N 	0.8864	0.4686	0.94764	-0.271
Mof_N 	N 	0.779	0.3744	0.8639	-0.323
Mof_N 	N 	0.4767	0.37601	0.01537	-0.265
Mof_N 	N 	0.5133	0.39592	0.9396	-0.264
Mof_N 	N 	0.5052	0.23682	0.95276	-0.293
Mof_N 	N 	0.4363	0.2304	0.08371	-0.32
Mof_N 	N 	0.7737	0.02147	0.072	-0.305
Mof_N 	N 	0.6271	0.05283	0.0086	-0.256
Mof_N 	N 	0.6136	0.9686	0.05236	-0.273
Mof_N 	N 	0.721	0.8744	0.1361	-0.324
Mof_N 	N 	0.0233	0.87601	0.98463	-0.268
Mof_N 	N 	0.9867	0.89592	0.0604	-0.26
Mof_N 	N 	0.9948	0.73682	0.04724	-0.291
Mof_N 	N 	0.0637	0.7304	0.91629	-0.319
Mof_N 	N 	0.2263	0.47853	0.572	-0.303
Mof_N 	N 	0.3729	0.44717	0.5086	-0.256
Mof_N 	N 	0.3864	0.5314	0.55236	-0.273
Mof_N 	N 	0.279	0.6256	0.6361	-0.323
Mof_N 	N 	0.9767	0.62399	0.48463	-0.265
Mof_N 	N 	0.0133	0.60408	0.5604	-0.265
Mof_N 	N 	0.0052	0.76318	0.54724	-0.297
Mof_N 	N 	0.9363	0.7696	0.41629	-0.321
Mof_N 	N 	0.7263	0.02147	0.572	-0.306
Mof_N 	N 	0.8729	0.05283	0.5086	-0.26
Mof_N 	N 	0.8864	0.9686	0.55236	-0.269
Mof_N 	N 	0.779	0.8744	0.6361	-0.324
Mof_N 	N 	0.4767	0.87601	0.48463	-0.265
Mof_N 	N 	0.5133	0.89592	0.5604	-0.264
Mof_N 	N 	0.5052	0.73682	0.54724	-0.293
Mof_N 	N 	0.4363	0.7304	0.41629	-0.32
Mof_N 	N 	0.2737	0.47853	0.072	-0.304
Mof_N 	N 	0.1271	0.44717	0.0086	-0.255
Mof_N 	N 	0.1136	0.5314	0.05236	-0.271
Mof_N 	N 	0.221	0.6256	0.1361	-0.323
Mof_N 	N 	0.5233	0.62399	0.98463	-0.265
Mof_N 	N 	0.4867	0.60408	0.0604	-0.264
Mof_N 	N 	0.4948	0.76318	0.04724	-0.293
Mof_N 	N 	0.5637	0.7696	0.91629	-0.32
Mof_N 	N 	0.2263	0.97853	0.928	-0.305
Mof_N 	N 	0.3729	0.94717	0.9914	-0.256
Mof_N 	N 	0.3864	0.0314	0.94764	-0.273
Mof_N 	N 	0.279	0.1256	0.8639	-0.324
Mof_N 	N 	0.9767	0.12399	0.01537	-0.268
Mof_N 	N 	0.0133	0.10408	0.9396	-0.26
Mof_N 	N 	0.0052	0.26318	0.95276	-0.291
Mof_N 	N 	0.9363	0.2696	0.08371	-0.319
Mof_N 	N 	0.7737	0.52147	0.428	-0.303
Mof_N 	N 	0.6271	0.55283	0.4914	-0.256
Mof_N 	N 	0.6136	0.4686	0.44764	-0.273
Mof_N 	N 	0.721	0.3744	0.3639	-0.323
Mof_N 	N 	0.0233	0.37601	0.51537	-0.265
Mof_N 	N 	0.9867	0.39592	0.4396	-0.265
Mof_N 	N 	0.9948	0.23682	0.45276	-0.297
Mof_N 	N 	0.0637	0.2304	0.58371	-0.321
Mof_O 	O 	0.3947	0.05825	0.27924	-0.346
Mof_O 	O 	0.4825	0.89053	0.31869	-0.434
Mof_O 	O 	0.4172	0.0229	0.14989	-0.395
Mof_O 	O 	0.5025	0.85484	0.19171	-0.403
Mof_O 	O 	0.6053	0.44175	0.77924	-0.347
Mof_O 	O 	0.5175	0.60947	0.81869	-0.434
Mof_O 	O 	0.5828	0.4771	0.64989	-0.396
Mof_O 	O 	0.4975	0.64516	0.69171	-0.404
Mof_O 	O 	0.8947	0.94175	0.22076	-0.348
Mof_O 	O 	0.9825	0.10947	0.18131	-0.433
Mof_O 	O 	0.9172	0.9771	0.35011	-0.396
Mof_O 	O 	0.0025	0.14516	0.30829	-0.388
Mof_O 	O 	0.1053	0.55825	0.72076	-0.348
Mof_O 	O 	0.0175	0.39053	0.68131	-0.434
Mof_O 	O 	0.0828	0.5229	0.85011	-0.398
Mof_O 	O 	0.9975	0.35484	0.80829	-0.402
Mof_O 	O 	0.6053	0.94175	0.72076	-0.346
Mof_O 	O 	0.5175	0.10947	0.68131	-0.434
Mof_O 	O 	0.5828	0.9771	0.85011	-0.395
Mof_O 	O 	0.4975	0.14516	0.80829	-0.403
Mof_O 	O 	0.3947	0.55825	0.22076	-0.347
Mof_O 	O 	0.4825	0.39053	0.18131	-0.434
Mof_O 	O 	0.4172	0.5229	0.35011	-0.396
Mof_O 	O 	0.5025	0.35484	0.30829	-0.404
Mof_O 	O 	0.1053	0.05825	0.77924	-0.348
Mof_O 	O 	0.0175	0.89053	0.81869	-0.433
Mof_O 	O 	0.0828	0.0229	0.64989	-0.396
Mof_O 	O 	0.9975	0.85484	0.69171	-0.388
Mof_O 	O 	0.8947	0.44175	0.27924	-0.348
Mof_O 	O 	0.9825	0.60947	0.31869	-0.434
Mof_O 	O 	0.9172	0.4771	0.14989	-0.398
Mof_O 	O 	0.0025	0.64516	0.19171	-0.402
_end
