data_functionalizedCrystal
_audit_creation_method	'EQeq! by Chris Wilmer'
_symmetry_space_group_name_H-M	'P1'
_symmetry_Int_Tables_number	1
_symmetry_cell_setting	triclinic
loop_
_symmetry_equiv_pos_as_xyz
  x,y,z
_cell_length_a	17.317
_cell_length_b	25.397
_cell_length_c	21.54
_cell_angle_alpha	90
_cell_angle_beta	94.431
_cell_angle_gamma	90
loop_
_atom_site_label
_atom_site_type_symbol
_atom_site_fract_x
_atom_site_fract_y
_atom_site_fract_z
_atom_site_charge
Mof_C 	C 	0.873	0.8103	0.5656	0.08
Mof_H 	H 	0.8282	0.7928	0.5477	0.005
Mof_C 	C 	0.9315	0.7812	0.596	-0.106
Mof_H 	H 	0.927	0.744	0.5986	0.091
Mof_C 	C 	0.9946	0.8056	0.6218	0.03
Mof_H 	H 	0.0348	0.7857	0.6432	0.049
Mof_C 	C 	0.0009	0.8592	0.6173	-0.072
Mof_H 	H 	0.0459	0.8767	0.6348	0.072
Mof_C 	C 	0.9413	0.8872	0.5873	0.014
Mof_C 	C 	0.9405	0.9456	0.5822	0.176
Mof_C 	C 	0.8657	0.01796	0.5461	0.176
Mof_C 	C 	0.8722	0.0464	0.4913	-0.201
Mof_H 	H 	0.89	0.0296	0.4557	0.11
Mof_C 	C 	0.8524	0.0994	0.4892	0.114
Mof_H 	H 	0.8579	0.1189	0.4522	0.005
Mof_C 	C 	0.825	0.12379	0.5395	-0.175
Mof_C 	C 	0.8194	0.0957	0.5942	0.112
Mof_H 	H 	0.8018	0.1128	0.6297	0.017
Mof_C 	C 	0.8391	0.043	0.5975	-0.195
Mof_H 	H 	0.8345	0.0239	0.635	0.106
Mof_C 	C 	0.8041	0.181	0.5356	0.4
Mof_C 	C 	0.07	0.0862	0.5722	0.074
Mof_H 	H 	0.0497	0.0566	0.5496	0.01
Mof_C 	C 	0.0299	0.1059	0.6204	-0.104
Mof_H 	H 	0.9822	0.0905	0.6298	0.083
Mof_C 	C 	0.0599	0.1477	0.6541	0.03
Mof_H 	H 	0.0332	0.1622	0.687	0.033
Mof_C 	C 	0.1304	0.1685	0.6393	-0.078
Mof_H 	H 	0.1531	0.1968	0.663	0.075
Mof_C 	C 	0.1669	0.1481	0.5906	0.018
Mof_C 	C 	0.2413	0.1683	0.5714	0.167
Mof_C 	C 	0.3392	0.1576	0.5026	0.179
Mof_C 	C 	0.4018	0.1289	0.5247	-0.193
Mof_H 	H 	0.3962	0.0997	0.5514	0.106
Mof_C 	C 	0.4768	0.1442	0.5064	0.096
Mof_H 	H 	0.5212	0.1252	0.5224	0.019
Mof_C 	C 	0.4857	0.1849	0.4668	-0.153
Mof_C 	C 	0.423	0.2123	0.4457	0.106
Mof_H 	H 	0.4284	0.2408	0.4179	0.015
Mof_C 	C 	0.3505	0.1993	0.4641	-0.205
Mof_H 	H 	0.3071	0.22	0.4494	0.111
Mof_C 	C 	0.5661	0.1999	0.4442	0.396
Mof_C 	C 	0.7412	0.0226	0.9136	0.065
Mof_H 	H 	0.7718	0.0413	0.8863	0.004
Mof_C 	C 	0.6978	0.9799	0.8916	-0.11
Mof_H 	H 	0.699	0.9694	0.8494	0.078
Mof_C 	C 	0.6537	0.9532	0.9299	0.029
Mof_H 	H 	0.6252	0.9231	0.9154	0.032
Mof_C 	C 	0.6509	0.9706	0.9907	-0.081
Mof_H 	H 	0.6193	0.9529	0.0184	0.078
Mof_C 	C 	0.6941	0.0134	0.0104	0.025
Mof_C 	C 	0.6943	0.0346	0.0737	0.159
Mof_C 	C 	0.7479	0.0999	0.1431	0.195
Mof_C 	C 	0.6842	0.1276	0.16	-0.203
Mof_H 	H 	0.638	0.1286	0.1331	0.115
Mof_C 	C 	0.688	0.1538	0.2164	0.118
Mof_H 	H 	0.6443	0.1729	0.2282	0.012
Mof_C 	C 	0.757	0.1526	0.2568	-0.181
Mof_C 	C 	0.8152	0.1227	0.2391	0.144
Mof_H 	H 	0.8615	0.1205	0.2657	-0.006
Mof_C 	C 	0.8107	0.095	0.1843	-0.229
Mof_H 	H 	0.8518	0.0722	0.1751	0.111
Mof_C 	C 	0.7613	0.1819	0.3168	0.406
Mof_Co	Co	0.80604	0.90982	0.51526	1.167
Mof_N 	N 	0.8778	0.86285	0.5607	-0.249
Mof_N 	N 	0.881	0.96279	0.5473	-0.289
Mof_N 	N 	0.1364	0.10754	0.5565	-0.246
Mof_N 	N 	0.2629	0.14523	0.5205	-0.287
Mof_N 	N 	0.7405	0.03795	0.9736	-0.252
Mof_N 	N 	0.7441	0.07455	0.0837	-0.291
Mof_O 	O 	0.9924	0.97257	0.6089	-0.226
Mof_O 	O 	0.7993	0.20202	0.4827	-0.492
Mof_O 	O 	0.7941	0.20535	0.585	-0.439
Mof_O 	O 	0.2777	0.203	0.6021	-0.215
Mof_O 	O 	0.5677	0.2296	0.4008	-0.354
Mof_O 	O 	0.6217	0.1828	0.4739	-0.45
Mof_O 	O 	0.653	0.0147	0.1125	-0.203
Mof_O 	O 	0.8179	0.2095	0.3298	-0.306
Mof_O 	O 	0.7046	0.1795	0.348	-0.457
Mof_Zn	Zn	0.70533	0.217	0.42708	1.241
Mof_C 	C 	0.373	0.3103	0.5656	0.078
Mof_H 	H 	0.3282	0.2928	0.5477	0.004
Mof_C 	C 	0.4315	0.2812	0.596	-0.106
Mof_H 	H 	0.427	0.244	0.5986	0.09
Mof_C 	C 	0.4946	0.3056	0.6218	0.028
Mof_H 	H 	0.5348	0.2857	0.6432	0.049
Mof_C 	C 	0.5009	0.3592	0.6173	-0.071
Mof_H 	H 	0.5459	0.3767	0.6348	0.071
Mof_C 	C 	0.4413	0.3872	0.5873	0.012
Mof_C 	C 	0.4405	0.4456	0.5822	0.175
Mof_C 	C 	0.3657	0.51796	0.5461	0.176
Mof_C 	C 	0.3722	0.5464	0.4913	-0.201
Mof_H 	H 	0.39	0.5296	0.4557	0.11
Mof_C 	C 	0.3524	0.5994	0.4892	0.114
Mof_H 	H 	0.3579	0.6189	0.4522	0.005
Mof_C 	C 	0.325	0.62379	0.5395	-0.175
Mof_C 	C 	0.3194	0.5957	0.5942	0.112
Mof_H 	H 	0.3018	0.6128	0.6297	0.017
Mof_C 	C 	0.3391	0.543	0.5975	-0.195
Mof_H 	H 	0.3345	0.5239	0.635	0.106
Mof_C 	C 	0.3041	0.681	0.5356	0.4
Mof_C 	C 	0.57	0.5862	0.5722	0.074
Mof_H 	H 	0.5497	0.5566	0.5496	0.01
Mof_C 	C 	0.5299	0.6059	0.6204	-0.104
Mof_H 	H 	0.4822	0.5905	0.6298	0.083
Mof_C 	C 	0.5599	0.6477	0.6541	0.03
Mof_H 	H 	0.5332	0.6622	0.687	0.033
Mof_C 	C 	0.6304	0.6685	0.6393	-0.078
Mof_H 	H 	0.6531	0.6968	0.663	0.075
Mof_C 	C 	0.6669	0.6481	0.5906	0.018
Mof_C 	C 	0.7413	0.6683	0.5714	0.167
Mof_C 	C 	0.8392	0.6576	0.5026	0.179
Mof_C 	C 	0.9018	0.6289	0.5247	-0.193
Mof_H 	H 	0.8962	0.5997	0.5514	0.106
Mof_C 	C 	0.9768	0.6442	0.5064	0.097
Mof_H 	H 	0.0212	0.6252	0.5224	0.019
Mof_C 	C 	0.9857	0.6849	0.4668	-0.153
Mof_C 	C 	0.923	0.7123	0.4457	0.107
Mof_H 	H 	0.9284	0.7408	0.4179	0.014
Mof_C 	C 	0.8505	0.6993	0.4641	-0.205
Mof_H 	H 	0.8071	0.72	0.4494	0.111
Mof_C 	C 	0.0661	0.6999	0.4442	0.396
Mof_C 	C 	0.2412	0.5226	0.9136	0.066
Mof_H 	H 	0.2718	0.5413	0.8863	0.004
Mof_C 	C 	0.1978	0.4799	0.8916	-0.111
Mof_H 	H 	0.199	0.4694	0.8494	0.079
Mof_C 	C 	0.1537	0.4532	0.9299	0.031
Mof_H 	H 	0.1252	0.4231	0.9154	0.031
Mof_C 	C 	0.1509	0.4706	0.9907	-0.085
Mof_H 	H 	0.1193	0.4529	0.0184	0.079
Mof_C 	C 	0.1941	0.5134	0.0104	0.027
Mof_C 	C 	0.1943	0.5346	0.0737	0.159
Mof_C 	C 	0.2479	0.5999	0.1431	0.195
Mof_C 	C 	0.1842	0.6276	0.16	-0.203
Mof_H 	H 	0.138	0.6286	0.1331	0.115
Mof_C 	C 	0.188	0.6538	0.2164	0.118
Mof_H 	H 	0.1443	0.6729	0.2282	0.012
Mof_C 	C 	0.257	0.6526	0.2568	-0.181
Mof_C 	C 	0.3152	0.6227	0.2391	0.144
Mof_H 	H 	0.3615	0.6205	0.2657	-0.006
Mof_C 	C 	0.3107	0.595	0.1843	-0.229
Mof_H 	H 	0.3518	0.5722	0.1751	0.111
Mof_C 	C 	0.2613	0.6819	0.3168	0.406
Mof_Co	Co	0.30604	0.40982	0.51526	1.167
Mof_N 	N 	0.3778	0.36285	0.5607	-0.249
Mof_N 	N 	0.381	0.46279	0.5473	-0.289
Mof_N 	N 	0.6364	0.60754	0.5565	-0.246
Mof_N 	N 	0.7629	0.64523	0.5205	-0.287
Mof_N 	N 	0.2405	0.53795	0.9736	-0.253
Mof_N 	N 	0.2441	0.57455	0.0837	-0.291
Mof_O 	O 	0.4924	0.47257	0.6089	-0.226
Mof_O 	O 	0.2993	0.70202	0.4827	-0.492
Mof_O 	O 	0.2941	0.70535	0.585	-0.439
Mof_O 	O 	0.7777	0.703	0.6021	-0.215
Mof_O 	O 	0.0677	0.7296	0.4008	-0.354
Mof_O 	O 	0.1217	0.6828	0.4739	-0.45
Mof_O 	O 	0.153	0.5147	0.1125	-0.202
Mof_O 	O 	0.3179	0.7095	0.3298	-0.306
Mof_O 	O 	0.2046	0.6795	0.348	-0.457
Mof_Zn	Zn	0.20533	0.717	0.42708	1.241
Mof_C 	C 	0.127	0.8103	0.9344	0.077
Mof_H 	H 	0.1718	0.7928	0.9523	0.005
Mof_C 	C 	0.0685	0.7812	0.904	-0.103
Mof_H 	H 	0.073	0.744	0.9014	0.089
Mof_C 	C 	0.0054	0.8056	0.8782	0.024
Mof_H 	H 	0.9652	0.7857	0.8568	0.05
Mof_C 	C 	0.9991	0.8592	0.8827	-0.068
Mof_H 	H 	0.9541	0.8767	0.8652	0.07
Mof_C 	C 	0.0587	0.8872	0.9127	0.01
Mof_C 	C 	0.0595	0.9456	0.9178	0.176
Mof_C 	C 	0.1343	0.01796	0.9539	0.175
Mof_C 	C 	0.1278	0.0464	0.0087	-0.2
Mof_H 	H 	0.11	0.0296	0.0443	0.11
Mof_C 	C 	0.1476	0.0994	0.0108	0.115
Mof_H 	H 	0.1421	0.1189	0.0478	0.005
Mof_C 	C 	0.175	0.12379	0.9605	-0.175
Mof_C 	C 	0.1806	0.0957	0.9058	0.112
Mof_H 	H 	0.1982	0.1128	0.8703	0.017
Mof_C 	C 	0.1609	0.043	0.9025	-0.195
Mof_H 	H 	0.1655	0.0239	0.865	0.106
Mof_C 	C 	0.1959	0.181	0.9644	0.399
Mof_C 	C 	0.93	0.0862	0.9278	0.073
Mof_H 	H 	0.9503	0.0566	0.9504	0.01
Mof_C 	C 	0.9701	0.1059	0.8796	-0.102
Mof_H 	H 	0.0178	0.0905	0.8702	0.082
Mof_C 	C 	0.9401	0.1477	0.8459	0.029
Mof_H 	H 	0.9668	0.1622	0.813	0.034
Mof_C 	C 	0.8696	0.1685	0.8607	-0.077
Mof_H 	H 	0.8469	0.1968	0.837	0.075
Mof_C 	C 	0.8331	0.1481	0.9094	0.018
Mof_C 	C 	0.7587	0.1683	0.9286	0.167
Mof_C 	C 	0.6608	0.1576	0.9974	0.18
Mof_C 	C 	0.5982	0.1289	0.9753	-0.193
Mof_H 	H 	0.6038	0.0997	0.9486	0.106
Mof_C 	C 	0.5232	0.1442	0.9936	0.097
Mof_H 	H 	0.4788	0.1252	0.9776	0.019
Mof_C 	C 	0.5143	0.1849	0.0332	-0.153
Mof_C 	C 	0.577	0.2123	0.0543	0.107
Mof_H 	H 	0.5716	0.2408	0.0821	0.014
Mof_C 	C 	0.6495	0.1993	0.0359	-0.205
Mof_H 	H 	0.6929	0.22	0.0506	0.111
Mof_C 	C 	0.4339	0.1999	0.0558	0.396
Mof_C 	C 	0.2588	0.0226	0.5864	0.065
Mof_H 	H 	0.2282	0.0413	0.6137	0.004
Mof_C 	C 	0.3022	0.9799	0.6084	-0.11
Mof_H 	H 	0.301	0.9694	0.6506	0.078
Mof_C 	C 	0.3463	0.9532	0.5701	0.03
Mof_H 	H 	0.3748	0.9231	0.5846	0.031
Mof_C 	C 	0.3491	0.9706	0.5093	-0.083
Mof_H 	H 	0.3807	0.9529	0.4816	0.078
Mof_C 	C 	0.3059	0.0134	0.4896	0.025
Mof_C 	C 	0.3057	0.0346	0.4263	0.159
Mof_C 	C 	0.2521	0.0999	0.3569	0.195
Mof_C 	C 	0.3158	0.1276	0.34	-0.203
Mof_H 	H 	0.362	0.1286	0.3669	0.115
Mof_C 	C 	0.312	0.1538	0.2836	0.118
Mof_H 	H 	0.3557	0.1729	0.2718	0.012
Mof_C 	C 	0.243	0.1526	0.2432	-0.181
Mof_C 	C 	0.1848	0.1227	0.2609	0.144
Mof_H 	H 	0.1385	0.1205	0.2343	-0.006
Mof_C 	C 	0.1893	0.095	0.3157	-0.229
Mof_H 	H 	0.1482	0.0722	0.3249	0.111
Mof_C 	C 	0.2387	0.1819	0.1832	0.406
Mof_Co	Co	0.19396	0.90982	0.98474	1.167
Mof_N 	N 	0.1222	0.86285	0.9393	-0.248
Mof_N 	N 	0.119	0.96279	0.9527	-0.289
Mof_N 	N 	0.8636	0.10754	0.9435	-0.245
Mof_N 	N 	0.7371	0.14523	0.9795	-0.287
Mof_N 	N 	0.2595	0.03795	0.5264	-0.252
Mof_N 	N 	0.2559	0.07455	0.4163	-0.291
Mof_O 	O 	0.0076	0.97257	0.8911	-0.226
Mof_O 	O 	0.2007	0.20202	0.0173	-0.492
Mof_O 	O 	0.2059	0.20535	0.915	-0.439
Mof_O 	O 	0.7223	0.203	0.8979	-0.215
Mof_O 	O 	0.4323	0.2296	0.0992	-0.354
Mof_O 	O 	0.3783	0.1828	0.0261	-0.45
Mof_O 	O 	0.347	0.0147	0.3875	-0.203
Mof_O 	O 	0.1821	0.2095	0.1702	-0.306
Mof_O 	O 	0.2954	0.1795	0.152	-0.457
Mof_Zn	Zn	0.29467	0.217	0.07292	1.241
Mof_C 	C 	0.627	0.3103	0.9344	0.078
Mof_H 	H 	0.6718	0.2928	0.9523	0.004
Mof_C 	C 	0.5685	0.2812	0.904	-0.106
Mof_H 	H 	0.573	0.244	0.9014	0.09
Mof_C 	C 	0.5054	0.3056	0.8782	0.028
Mof_H 	H 	0.4652	0.2857	0.8568	0.049
Mof_C 	C 	0.4991	0.3592	0.8827	-0.071
Mof_H 	H 	0.4541	0.3767	0.8652	0.071
Mof_C 	C 	0.5587	0.3872	0.9127	0.012
Mof_C 	C 	0.5595	0.4456	0.9178	0.175
Mof_C 	C 	0.6343	0.51796	0.9539	0.176
Mof_C 	C 	0.6278	0.5464	0.0087	-0.201
Mof_H 	H 	0.61	0.5296	0.0443	0.11
Mof_C 	C 	0.6476	0.5994	0.0108	0.114
Mof_H 	H 	0.6421	0.6189	0.0478	0.005
Mof_C 	C 	0.675	0.62379	0.9605	-0.174
Mof_C 	C 	0.6806	0.5957	0.9058	0.112
Mof_H 	H 	0.6982	0.6128	0.8703	0.017
Mof_C 	C 	0.6609	0.543	0.9025	-0.195
Mof_H 	H 	0.6655	0.5239	0.865	0.106
Mof_C 	C 	0.6959	0.681	0.9644	0.4
Mof_C 	C 	0.43	0.5862	0.9278	0.074
Mof_H 	H 	0.4503	0.5566	0.9504	0.01
Mof_C 	C 	0.4701	0.6059	0.8796	-0.104
Mof_H 	H 	0.5178	0.5905	0.8702	0.083
Mof_C 	C 	0.4401	0.6477	0.8459	0.03
Mof_H 	H 	0.4668	0.6622	0.813	0.033
Mof_C 	C 	0.3696	0.6685	0.8607	-0.078
Mof_H 	H 	0.3469	0.6968	0.837	0.075
Mof_C 	C 	0.3331	0.6481	0.9094	0.018
Mof_C 	C 	0.2587	0.6683	0.9286	0.167
Mof_C 	C 	0.1608	0.6576	0.9974	0.177
Mof_C 	C 	0.0982	0.6289	0.9753	-0.19
Mof_H 	H 	0.1038	0.5997	0.9486	0.105
Mof_C 	C 	0.0232	0.6442	0.9936	0.092
Mof_H 	H 	0.9788	0.6252	0.9776	0.02
Mof_C 	C 	0.0143	0.6849	0.0332	-0.149
Mof_C 	C 	0.077	0.7123	0.0543	0.104
Mof_H 	H 	0.0716	0.7408	0.0821	0.016
Mof_C 	C 	0.1495	0.6993	0.0359	-0.202
Mof_H 	H 	0.1929	0.72	0.0506	0.11
Mof_C 	C 	0.9339	0.6999	0.0558	0.395
Mof_C 	C 	0.7588	0.5226	0.5864	0.065
Mof_H 	H 	0.7282	0.5413	0.6137	0.004
Mof_C 	C 	0.8022	0.4799	0.6084	-0.11
Mof_H 	H 	0.801	0.4694	0.6506	0.078
Mof_C 	C 	0.8463	0.4532	0.5701	0.03
Mof_H 	H 	0.8748	0.4231	0.5846	0.031
Mof_C 	C 	0.8491	0.4706	0.5093	-0.083
Mof_H 	H 	0.8807	0.4529	0.4816	0.078
Mof_C 	C 	0.8059	0.5134	0.4896	0.025
Mof_C 	C 	0.8057	0.5346	0.4263	0.159
Mof_C 	C 	0.7521	0.5999	0.3569	0.195
Mof_C 	C 	0.8158	0.6276	0.34	-0.203
Mof_H 	H 	0.862	0.6286	0.3669	0.115
Mof_C 	C 	0.812	0.6538	0.2836	0.118
Mof_H 	H 	0.8557	0.6729	0.2718	0.012
Mof_C 	C 	0.743	0.6526	0.2432	-0.181
Mof_C 	C 	0.6848	0.6227	0.2609	0.144
Mof_H 	H 	0.6385	0.6205	0.2343	-0.006
Mof_C 	C 	0.6893	0.595	0.3157	-0.229
Mof_H 	H 	0.6482	0.5722	0.3249	0.111
Mof_C 	C 	0.7387	0.6819	0.1832	0.406
Mof_Co	Co	0.69396	0.40982	0.98474	1.168
Mof_N 	N 	0.6222	0.36285	0.9393	-0.249
Mof_N 	N 	0.619	0.46279	0.9527	-0.289
Mof_N 	N 	0.3636	0.60754	0.9435	-0.246
Mof_N 	N 	0.2371	0.64523	0.9795	-0.286
Mof_N 	N 	0.7595	0.53795	0.5264	-0.252
Mof_N 	N 	0.7559	0.57455	0.4163	-0.291
Mof_O 	O 	0.5076	0.47257	0.8911	-0.226
Mof_O 	O 	0.7007	0.70202	0.0173	-0.492
Mof_O 	O 	0.7059	0.70535	0.915	-0.439
Mof_O 	O 	0.2223	0.703	0.8979	-0.215
Mof_O 	O 	0.9323	0.7296	0.0992	-0.353
Mof_O 	O 	0.8783	0.6828	0.0261	-0.45
Mof_O 	O 	0.847	0.5147	0.3875	-0.203
Mof_O 	O 	0.6821	0.7095	0.1702	-0.306
Mof_O 	O 	0.7954	0.6795	0.152	-0.457
Mof_Zn	Zn	0.79467	0.717	0.07292	1.241
Mof_C 	C 	0.127	0.1897	0.4344	0.079
Mof_H 	H 	0.1718	0.2072	0.4523	0.004
Mof_C 	C 	0.0685	0.2188	0.404	-0.107
Mof_H 	H 	0.073	0.256	0.4014	0.09
Mof_C 	C 	0.0054	0.1944	0.3782	0.029
Mof_H 	H 	0.9652	0.2143	0.3568	0.048
Mof_C 	C 	0.9991	0.1408	0.3827	-0.073
Mof_H 	H 	0.9541	0.1233	0.3652	0.071
Mof_C 	C 	0.0587	0.1128	0.4127	0.013
Mof_C 	C 	0.0595	0.0544	0.4178	0.175
Mof_C 	C 	0.1343	0.98204	0.4539	0.176
Mof_C 	C 	0.1278	0.9536	0.5087	-0.201
Mof_H 	H 	0.11	0.9704	0.5443	0.11
Mof_C 	C 	0.1476	0.9006	0.5108	0.114
Mof_H 	H 	0.1421	0.8811	0.5478	0.005
Mof_C 	C 	0.175	0.87621	0.4605	-0.175
Mof_C 	C 	0.1806	0.9043	0.4058	0.112
Mof_H 	H 	0.1982	0.8872	0.3703	0.017
Mof_C 	C 	0.1609	0.957	0.4025	-0.195
Mof_H 	H 	0.1655	0.9761	0.365	0.106
Mof_C 	C 	0.1959	0.819	0.4644	0.4
Mof_C 	C 	0.93	0.9138	0.4278	0.074
Mof_H 	H 	0.9503	0.9434	0.4504	0.01
Mof_C 	C 	0.9701	0.8941	0.3796	-0.104
Mof_H 	H 	0.0178	0.9095	0.3702	0.083
Mof_C 	C 	0.9401	0.8523	0.3459	0.03
Mof_H 	H 	0.9668	0.8378	0.313	0.033
Mof_C 	C 	0.8696	0.8315	0.3607	-0.078
Mof_H 	H 	0.8469	0.8032	0.337	0.075
Mof_C 	C 	0.8331	0.8519	0.4094	0.018
Mof_C 	C 	0.7587	0.8317	0.4286	0.167
Mof_C 	C 	0.6608	0.8424	0.4974	0.179
Mof_C 	C 	0.5982	0.8711	0.4753	-0.193
Mof_H 	H 	0.6038	0.9003	0.4486	0.106
Mof_C 	C 	0.5232	0.8558	0.4936	0.096
Mof_H 	H 	0.4788	0.8748	0.4776	0.019
Mof_C 	C 	0.5143	0.8151	0.5332	-0.153
Mof_C 	C 	0.577	0.7877	0.5543	0.106
Mof_H 	H 	0.5716	0.7592	0.5821	0.015
Mof_C 	C 	0.6495	0.8007	0.5359	-0.205
Mof_H 	H 	0.6929	0.78	0.5506	0.111
Mof_C 	C 	0.4339	0.8001	0.5558	0.396
Mof_C 	C 	0.2588	0.9774	0.0864	0.065
Mof_H 	H 	0.2282	0.9587	0.1137	0.004
Mof_C 	C 	0.3022	0.0201	0.1084	-0.11
Mof_H 	H 	0.301	0.0306	0.1506	0.078
Mof_C 	C 	0.3463	0.0468	0.0701	0.029
Mof_H 	H 	0.3748	0.0769	0.0846	0.032
Mof_C 	C 	0.3491	0.0294	0.0093	-0.081
Mof_H 	H 	0.3807	0.0471	0.9816	0.078
Mof_C 	C 	0.3059	0.9866	0.9896	0.025
Mof_C 	C 	0.3057	0.9654	0.9263	0.159
Mof_C 	C 	0.2521	0.9001	0.8569	0.195
Mof_C 	C 	0.3158	0.8724	0.84	-0.203
Mof_H 	H 	0.362	0.8714	0.8669	0.115
Mof_C 	C 	0.312	0.8462	0.7836	0.118
Mof_H 	H 	0.3557	0.8271	0.7718	0.012
Mof_C 	C 	0.243	0.8474	0.7432	-0.181
Mof_C 	C 	0.1848	0.8773	0.7609	0.144
Mof_H 	H 	0.1385	0.8795	0.7343	-0.006
Mof_C 	C 	0.1893	0.905	0.8157	-0.229
Mof_H 	H 	0.1482	0.9278	0.8249	0.111
Mof_C 	C 	0.2387	0.8181	0.6832	0.406
Mof_Co	Co	0.19396	0.09018	0.48474	1.167
Mof_N 	N 	0.1222	0.13715	0.4393	-0.249
Mof_N 	N 	0.119	0.03721	0.4527	-0.289
Mof_N 	N 	0.8636	0.89246	0.4435	-0.246
Mof_N 	N 	0.7371	0.85477	0.4795	-0.287
Mof_N 	N 	0.2595	0.96205	0.0264	-0.252
Mof_N 	N 	0.2559	0.92545	0.9163	-0.291
Mof_O 	O 	0.0076	0.02743	0.3911	-0.226
Mof_O 	O 	0.2007	0.79798	0.5173	-0.492
Mof_O 	O 	0.2059	0.79465	0.415	-0.439
Mof_O 	O 	0.7223	0.797	0.3979	-0.215
Mof_O 	O 	0.4323	0.7704	0.5992	-0.354
Mof_O 	O 	0.3783	0.8172	0.5261	-0.45
Mof_O 	O 	0.347	0.9853	0.8875	-0.203
Mof_O 	O 	0.1821	0.7905	0.6702	-0.306
Mof_O 	O 	0.2954	0.8205	0.652	-0.457
Mof_Zn	Zn	0.29467	0.783	0.57292	1.241
Mof_C 	C 	0.627	0.6897	0.4344	0.078
Mof_H 	H 	0.6718	0.7072	0.4523	0.004
Mof_C 	C 	0.5685	0.7188	0.404	-0.106
Mof_H 	H 	0.573	0.756	0.4014	0.09
Mof_C 	C 	0.5054	0.6944	0.3782	0.028
Mof_H 	H 	0.4652	0.7143	0.3568	0.049
Mof_C 	C 	0.4991	0.6408	0.3827	-0.071
Mof_H 	H 	0.4541	0.6233	0.3652	0.071
Mof_C 	C 	0.5587	0.6128	0.4127	0.012
Mof_C 	C 	0.5595	0.5544	0.4178	0.175
Mof_C 	C 	0.6343	0.48204	0.4539	0.176
Mof_C 	C 	0.6278	0.4536	0.5087	-0.201
Mof_H 	H 	0.61	0.4704	0.5443	0.11
Mof_C 	C 	0.6476	0.4006	0.5108	0.114
Mof_H 	H 	0.6421	0.3811	0.5478	0.005
Mof_C 	C 	0.675	0.37621	0.4605	-0.175
Mof_C 	C 	0.6806	0.4043	0.4058	0.112
Mof_H 	H 	0.6982	0.3872	0.3703	0.017
Mof_C 	C 	0.6609	0.457	0.4025	-0.195
Mof_H 	H 	0.6655	0.4761	0.365	0.106
Mof_C 	C 	0.6959	0.319	0.4644	0.4
Mof_C 	C 	0.43	0.4138	0.4278	0.074
Mof_H 	H 	0.4503	0.4434	0.4504	0.01
Mof_C 	C 	0.4701	0.3941	0.3796	-0.104
Mof_H 	H 	0.5178	0.4095	0.3702	0.083
Mof_C 	C 	0.4401	0.3523	0.3459	0.03
Mof_H 	H 	0.4668	0.3378	0.313	0.033
Mof_C 	C 	0.3696	0.3315	0.3607	-0.078
Mof_H 	H 	0.3469	0.3032	0.337	0.075
Mof_C 	C 	0.3331	0.3519	0.4094	0.018
Mof_C 	C 	0.2587	0.3317	0.4286	0.167
Mof_C 	C 	0.1608	0.3424	0.4974	0.179
Mof_C 	C 	0.0982	0.3711	0.4753	-0.193
Mof_H 	H 	0.1038	0.4003	0.4486	0.106
Mof_C 	C 	0.0232	0.3558	0.4936	0.097
Mof_H 	H 	0.9788	0.3748	0.4776	0.019
Mof_C 	C 	0.0143	0.3151	0.5332	-0.153
Mof_C 	C 	0.077	0.2877	0.5543	0.107
Mof_H 	H 	0.0716	0.2592	0.5821	0.014
Mof_C 	C 	0.1495	0.3007	0.5359	-0.205
Mof_H 	H 	0.1929	0.28	0.5506	0.111
Mof_C 	C 	0.9339	0.3001	0.5558	0.396
Mof_C 	C 	0.7588	0.4774	0.0864	0.066
Mof_H 	H 	0.7282	0.4587	0.1137	0.004
Mof_C 	C 	0.8022	0.5201	0.1084	-0.111
Mof_H 	H 	0.801	0.5306	0.1506	0.079
Mof_C 	C 	0.8463	0.5468	0.0701	0.031
Mof_H 	H 	0.8748	0.5769	0.0846	0.031
Mof_C 	C 	0.8491	0.5294	0.0093	-0.085
Mof_H 	H 	0.8807	0.5471	0.9816	0.079
Mof_C 	C 	0.8059	0.4866	0.9896	0.027
Mof_C 	C 	0.8057	0.4654	0.9263	0.159
Mof_C 	C 	0.7521	0.4001	0.8569	0.195
Mof_C 	C 	0.8158	0.3724	0.84	-0.203
Mof_H 	H 	0.862	0.3714	0.8669	0.115
Mof_C 	C 	0.812	0.3462	0.7836	0.118
Mof_H 	H 	0.8557	0.3271	0.7718	0.012
Mof_C 	C 	0.743	0.3474	0.7432	-0.181
Mof_C 	C 	0.6848	0.3773	0.7609	0.144
Mof_H 	H 	0.6385	0.3795	0.7343	-0.006
Mof_C 	C 	0.6893	0.405	0.8157	-0.229
Mof_H 	H 	0.6482	0.4278	0.8249	0.111
Mof_C 	C 	0.7387	0.3181	0.6832	0.406
Mof_Co	Co	0.69396	0.59018	0.48474	1.167
Mof_N 	N 	0.6222	0.63715	0.4393	-0.249
Mof_N 	N 	0.619	0.53721	0.4527	-0.289
Mof_N 	N 	0.3636	0.39246	0.4435	-0.246
Mof_N 	N 	0.2371	0.35477	0.4795	-0.287
Mof_N 	N 	0.7595	0.46205	0.0264	-0.253
Mof_N 	N 	0.7559	0.42545	0.9163	-0.291
Mof_O 	O 	0.5076	0.52743	0.3911	-0.226
Mof_O 	O 	0.7007	0.29798	0.5173	-0.492
Mof_O 	O 	0.7059	0.29465	0.415	-0.439
Mof_O 	O 	0.2223	0.297	0.3979	-0.215
Mof_O 	O 	0.9323	0.2704	0.5992	-0.354
Mof_O 	O 	0.8783	0.3172	0.5261	-0.45
Mof_O 	O 	0.847	0.4853	0.8875	-0.202
Mof_O 	O 	0.6821	0.2905	0.6702	-0.306
Mof_O 	O 	0.7954	0.3205	0.652	-0.457
Mof_Zn	Zn	0.79467	0.283	0.57292	1.241
Mof_C 	C 	0.873	0.1897	0.0656	0.077
Mof_H 	H 	0.8282	0.2072	0.0477	0.005
Mof_C 	C 	0.9315	0.2188	0.096	-0.103
Mof_H 	H 	0.927	0.256	0.0986	0.089
Mof_C 	C 	0.9946	0.1944	0.1218	0.024
Mof_H 	H 	0.0348	0.2143	0.1432	0.05
Mof_C 	C 	0.0009	0.1408	0.1173	-0.068
Mof_H 	H 	0.0459	0.1233	0.1348	0.07
Mof_C 	C 	0.9413	0.1128	0.0873	0.01
Mof_C 	C 	0.9405	0.0544	0.0822	0.176
Mof_C 	C 	0.8657	0.98204	0.0461	0.175
Mof_C 	C 	0.8722	0.9536	0.9913	-0.2
Mof_H 	H 	0.89	0.9704	0.9557	0.11
Mof_C 	C 	0.8524	0.9006	0.9892	0.115
Mof_H 	H 	0.8579	0.8811	0.9522	0.005
Mof_C 	C 	0.825	0.87621	0.0395	-0.175
Mof_C 	C 	0.8194	0.9043	0.0942	0.112
Mof_H 	H 	0.8018	0.8872	0.1297	0.017
Mof_C 	C 	0.8391	0.957	0.0975	-0.195
Mof_H 	H 	0.8345	0.9761	0.135	0.106
Mof_C 	C 	0.8041	0.819	0.0356	0.399
Mof_C 	C 	0.07	0.9138	0.0722	0.073
Mof_H 	H 	0.0497	0.9434	0.0496	0.01
Mof_C 	C 	0.0299	0.8941	0.1204	-0.102
Mof_H 	H 	0.9822	0.9095	0.1298	0.082
Mof_C 	C 	0.0599	0.8523	0.1541	0.029
Mof_H 	H 	0.0332	0.8378	0.187	0.034
Mof_C 	C 	0.1304	0.8315	0.1393	-0.077
Mof_H 	H 	0.1531	0.8032	0.163	0.075
Mof_C 	C 	0.1669	0.8519	0.0906	0.018
Mof_C 	C 	0.2413	0.8317	0.0714	0.167
Mof_C 	C 	0.3392	0.8424	0.0026	0.18
Mof_C 	C 	0.4018	0.8711	0.0247	-0.193
Mof_H 	H 	0.3962	0.9003	0.0514	0.106
Mof_C 	C 	0.4768	0.8558	0.0064	0.097
Mof_H 	H 	0.5212	0.8748	0.0224	0.019
Mof_C 	C 	0.4857	0.8151	0.9668	-0.153
Mof_C 	C 	0.423	0.7877	0.9457	0.107
Mof_H 	H 	0.4284	0.7592	0.9179	0.014
Mof_C 	C 	0.3505	0.8007	0.9641	-0.205
Mof_H 	H 	0.3071	0.78	0.9494	0.111
Mof_C 	C 	0.5661	0.8001	0.9442	0.396
Mof_C 	C 	0.7412	0.9774	0.4136	0.065
Mof_H 	H 	0.7718	0.9587	0.3863	0.004
Mof_C 	C 	0.6978	0.0201	0.3916	-0.11
Mof_H 	H 	0.699	0.0306	0.3494	0.078
Mof_C 	C 	0.6537	0.0468	0.4299	0.03
Mof_H 	H 	0.6252	0.0769	0.4154	0.031
Mof_C 	C 	0.6509	0.0294	0.4907	-0.083
Mof_H 	H 	0.6193	0.0471	0.5184	0.078
Mof_C 	C 	0.6941	0.9866	0.5104	0.025
Mof_C 	C 	0.6943	0.9654	0.5737	0.159
Mof_C 	C 	0.7479	0.9001	0.6431	0.195
Mof_C 	C 	0.6842	0.8724	0.66	-0.203
Mof_H 	H 	0.638	0.8714	0.6331	0.115
Mof_C 	C 	0.688	0.8462	0.7164	0.118
Mof_H 	H 	0.6443	0.8271	0.7282	0.012
Mof_C 	C 	0.757	0.8474	0.7568	-0.181
Mof_C 	C 	0.8152	0.8773	0.7391	0.144
Mof_H 	H 	0.8615	0.8795	0.7657	-0.006
Mof_C 	C 	0.8107	0.905	0.6843	-0.229
Mof_H 	H 	0.8518	0.9278	0.6751	0.111
Mof_C 	C 	0.7613	0.8181	0.8168	0.406
Mof_Co	Co	0.80604	0.09018	0.01526	1.167
Mof_N 	N 	0.8778	0.13715	0.0607	-0.248
Mof_N 	N 	0.881	0.03721	0.0473	-0.289
Mof_N 	N 	0.1364	0.89246	0.0565	-0.245
Mof_N 	N 	0.2629	0.85477	0.0205	-0.287
Mof_N 	N 	0.7405	0.96205	0.4736	-0.252
Mof_N 	N 	0.7441	0.92545	0.5837	-0.291
Mof_O 	O 	0.9924	0.02743	0.1089	-0.226
Mof_O 	O 	0.7993	0.79798	0.9827	-0.492
Mof_O 	O 	0.7941	0.79465	0.085	-0.439
Mof_O 	O 	0.2777	0.797	0.1021	-0.215
Mof_O 	O 	0.5677	0.7704	0.9008	-0.354
Mof_O 	O 	0.6217	0.8172	0.9739	-0.45
Mof_O 	O 	0.653	0.9853	0.6125	-0.203
Mof_O 	O 	0.8179	0.7905	0.8298	-0.306
Mof_O 	O 	0.7046	0.8205	0.848	-0.457
Mof_Zn	Zn	0.70533	0.783	0.92708	1.241
Mof_C 	C 	0.373	0.6897	0.0656	0.078
Mof_H 	H 	0.3282	0.7072	0.0477	0.004
Mof_C 	C 	0.4315	0.7188	0.096	-0.106
Mof_H 	H 	0.427	0.756	0.0986	0.09
Mof_C 	C 	0.4946	0.6944	0.1218	0.028
Mof_H 	H 	0.5348	0.7143	0.1432	0.049
Mof_C 	C 	0.5009	0.6408	0.1173	-0.071
Mof_H 	H 	0.5459	0.6233	0.1348	0.071
Mof_C 	C 	0.4413	0.6128	0.0873	0.012
Mof_C 	C 	0.4405	0.5544	0.0822	0.175
Mof_C 	C 	0.3657	0.48204	0.0461	0.176
Mof_C 	C 	0.3722	0.4536	0.9913	-0.201
Mof_H 	H 	0.39	0.4704	0.9557	0.11
Mof_C 	C 	0.3524	0.4006	0.9892	0.114
Mof_H 	H 	0.3579	0.3811	0.9522	0.005
Mof_C 	C 	0.325	0.37621	0.0395	-0.174
Mof_C 	C 	0.3194	0.4043	0.0942	0.112
Mof_H 	H 	0.3018	0.3872	0.1297	0.017
Mof_C 	C 	0.3391	0.457	0.0975	-0.195
Mof_H 	H 	0.3345	0.4761	0.135	0.106
Mof_C 	C 	0.3041	0.319	0.0356	0.4
Mof_C 	C 	0.57	0.4138	0.0722	0.074
Mof_H 	H 	0.5497	0.4434	0.0496	0.01
Mof_C 	C 	0.5299	0.3941	0.1204	-0.104
Mof_H 	H 	0.4822	0.4095	0.1298	0.083
Mof_C 	C 	0.5599	0.3523	0.1541	0.03
Mof_H 	H 	0.5332	0.3378	0.187	0.033
Mof_C 	C 	0.6304	0.3315	0.1393	-0.078
Mof_H 	H 	0.6531	0.3032	0.163	0.075
Mof_C 	C 	0.6669	0.3519	0.0906	0.018
Mof_C 	C 	0.7413	0.3317	0.0714	0.167
Mof_C 	C 	0.8392	0.3424	0.0026	0.177
Mof_C 	C 	0.9018	0.3711	0.0247	-0.19
Mof_H 	H 	0.8962	0.4003	0.0514	0.105
Mof_C 	C 	0.9768	0.3558	0.0064	0.092
Mof_H 	H 	0.0212	0.3748	0.0224	0.02
Mof_C 	C 	0.9857	0.3151	0.9668	-0.149
Mof_C 	C 	0.923	0.2877	0.9457	0.104
Mof_H 	H 	0.9284	0.2592	0.9179	0.016
Mof_C 	C 	0.8505	0.3007	0.9641	-0.202
Mof_H 	H 	0.8071	0.28	0.9494	0.11
Mof_C 	C 	0.0661	0.3001	0.9442	0.395
Mof_C 	C 	0.2412	0.4774	0.4136	0.065
Mof_H 	H 	0.2718	0.4587	0.3863	0.004
Mof_C 	C 	0.1978	0.5201	0.3916	-0.11
Mof_H 	H 	0.199	0.5306	0.3494	0.078
Mof_C 	C 	0.1537	0.5468	0.4299	0.03
Mof_H 	H 	0.1252	0.5769	0.4154	0.031
Mof_C 	C 	0.1509	0.5294	0.4907	-0.083
Mof_H 	H 	0.1193	0.5471	0.5184	0.078
Mof_C 	C 	0.1941	0.4866	0.5104	0.025
Mof_C 	C 	0.1943	0.4654	0.5737	0.159
Mof_C 	C 	0.2479	0.4001	0.6431	0.195
Mof_C 	C 	0.1842	0.3724	0.66	-0.203
Mof_H 	H 	0.138	0.3714	0.6331	0.115
Mof_C 	C 	0.188	0.3462	0.7164	0.118
Mof_H 	H 	0.1443	0.3271	0.7282	0.012
Mof_C 	C 	0.257	0.3474	0.7568	-0.181
Mof_C 	C 	0.3152	0.3773	0.7391	0.144
Mof_H 	H 	0.3615	0.3795	0.7657	-0.006
Mof_C 	C 	0.3107	0.405	0.6843	-0.229
Mof_H 	H 	0.3518	0.4278	0.6751	0.111
Mof_C 	C 	0.2613	0.3181	0.8168	0.406
Mof_Co	Co	0.30604	0.59018	0.01526	1.168
Mof_N 	N 	0.3778	0.63715	0.0607	-0.249
Mof_N 	N 	0.381	0.53721	0.0473	-0.289
Mof_N 	N 	0.6364	0.39246	0.0565	-0.246
Mof_N 	N 	0.7629	0.35477	0.0205	-0.286
Mof_N 	N 	0.2405	0.46205	0.4736	-0.252
Mof_N 	N 	0.2441	0.42545	0.5837	-0.291
Mof_O 	O 	0.4924	0.52743	0.1089	-0.226
Mof_O 	O 	0.2993	0.29798	0.9827	-0.492
Mof_O 	O 	0.2941	0.29465	0.085	-0.439
Mof_O 	O 	0.7777	0.297	0.1021	-0.215
Mof_O 	O 	0.0677	0.2704	0.9008	-0.353
Mof_O 	O 	0.1217	0.3172	0.9739	-0.45
Mof_O 	O 	0.153	0.4853	0.6125	-0.203
Mof_O 	O 	0.3179	0.2905	0.8298	-0.306
Mof_O 	O 	0.2046	0.3205	0.848	-0.457
Mof_Zn	Zn	0.20533	0.283	0.92708	1.241
_end
