data_functionalizedCrystal
_audit_creation_method	'EQeq! by Chris Wilmer'
_symmetry_space_group_name_H-M	'P1'
_symmetry_Int_Tables_number	1
_symmetry_cell_setting	triclinic
loop_
_symmetry_equiv_pos_as_xyz
  x,y,z
_cell_length_a	13.565
_cell_length_b	13.565
_cell_length_c	15.503
_cell_angle_alpha	90
_cell_angle_beta	90
_cell_angle_gamma	90
loop_
_atom_site_label
_atom_site_type_symbol
_atom_site_fract_x
_atom_site_fract_y
_atom_site_fract_z
_atom_site_charge
Mof_S 	S 	0.22329	0.28493	0.10762	0.022
Mof_O 	O 	0.3071	0.1063	0.29	-0.513
Mof_O 	O 	0.352	0.1139	0.1556	-0.479
Mof_O 	O 	0.0263	0.4978	0.1228	-0.503
Mof_O 	O 	0.1209	0.4526	0.0153	-0.459
Mof_C 	C 	0.2304	0.2255	0.2044	-0.104
Mof_C 	C 	0.1668	0.2635	0.2625	-0.019
Mof_H 	H 	0.1581	0.2384	0.3178	0.04
Mof_C 	C 	0.1147	0.3462	0.2295	-0.03
Mof_H 	H 	0.0703	0.3834	0.2615	0.046
Mof_C 	C 	0.1371	0.3645	0.1466	-0.085
Mof_C 	C 	0.2984	0.1439	0.2167	0.333
Mof_C 	C 	0.0932	0.443	0.0903	0.314
Mof_S 	S 	0.77671	0.71507	0.60762	0.163
Mof_O 	O 	0.6929	0.8937	0.79	-0.386
Mof_O 	O 	0.648	0.8861	0.6556	-0.305
Mof_O 	O 	0.9737	0.5022	0.6228	-0.35
Mof_O 	O 	0.8791	0.5474	0.5153	-0.336
Mof_C 	C 	0.7696	0.7745	0.7044	-0.066
Mof_C 	C 	0.8332	0.7365	0.7625	0.014
Mof_H 	H 	0.8419	0.7616	0.8178	0.089
Mof_C 	C 	0.8853	0.6538	0.7295	-0.004
Mof_H 	H 	0.9297	0.6166	0.7615	0.101
Mof_C 	C 	0.8629	0.6355	0.6466	-0.046
Mof_C 	C 	0.7016	0.8561	0.7167	0.333
Mof_C 	C 	0.9068	0.557	0.5903	0.312
Mof_S 	S 	0.71507	0.22329	0.35762	0.102
Mof_O 	O 	0.8937	0.3071	0.54	-0.406
Mof_O 	O 	0.8861	0.352	0.4056	-0.319
Mof_O 	O 	0.5022	0.0263	0.3728	-0.508
Mof_O 	O 	0.5474	0.1209	0.2653	-0.445
Mof_C 	C 	0.7745	0.2304	0.4544	-0.068
Mof_C 	C 	0.7365	0.1668	0.5125	-0.024
Mof_H 	H 	0.7616	0.1581	0.5678	0.065
Mof_C 	C 	0.6538	0.1147	0.4795	-0.004
Mof_H 	H 	0.6166	0.0703	0.5115	0.044
Mof_C 	C 	0.6355	0.1371	0.3966	-0.092
Mof_C 	C 	0.8561	0.2984	0.4667	0.32
Mof_C 	C 	0.557	0.0932	0.3403	0.327
Mof_S 	S 	0.28493	0.77671	0.85762	0.098
Mof_O 	O 	0.1063	0.6929	0.04	-0.513
Mof_O 	O 	0.1139	0.648	0.9056	-0.449
Mof_O 	O 	0.4978	0.9737	0.8728	-0.35
Mof_O 	O 	0.4526	0.8791	0.7653	-0.348
Mof_C 	C 	0.2255	0.7696	0.9544	-0.023
Mof_C 	C 	0.2635	0.8332	0.0125	-0.158
Mof_H 	H 	0.2384	0.8419	0.0678	0.118
Mof_C 	C 	0.3462	0.8853	0.9795	0.162
Mof_H 	H 	0.3834	0.9297	0.0115	0.013
Mof_C 	C 	0.3645	0.8629	0.8966	-0.1
Mof_C 	C 	0.1439	0.7016	0.9667	0.359
Mof_C 	C 	0.443	0.9068	0.8403	0.328
Mof_S 	S 	0.77671	0.28493	0.89238	0.105
Mof_O 	O 	0.6929	0.1063	0.71	-0.5
Mof_O 	O 	0.648	0.1139	0.8444	-0.462
Mof_O 	O 	0.9737	0.4978	0.8772	-0.332
Mof_O 	O 	0.8791	0.4526	0.9847	-0.32
Mof_C 	C 	0.7696	0.2255	0.7956	-0.105
Mof_C 	C 	0.8332	0.2635	0.7375	0.023
Mof_H 	H 	0.8419	0.2384	0.6822	0.06
Mof_C 	C 	0.8853	0.3462	0.7705	-0.03
Mof_H 	H 	0.9297	0.3834	0.7385	0.103
Mof_C 	C 	0.8629	0.3645	0.8534	-0.037
Mof_C 	C 	0.7016	0.1439	0.7833	0.349
Mof_C 	C 	0.9068	0.443	0.9097	0.299
Mof_S 	S 	0.22329	0.71507	0.39238	0.109
Mof_O 	O 	0.3071	0.8937	0.21	-0.406
Mof_O 	O 	0.352	0.8861	0.3444	-0.313
Mof_O 	O 	0.0263	0.5022	0.3772	-0.508
Mof_O 	O 	0.1209	0.5474	0.4847	-0.442
Mof_C 	C 	0.2304	0.7745	0.2956	-0.071
Mof_C 	C 	0.1668	0.7365	0.2375	-0.021
Mof_H 	H 	0.1581	0.7616	0.1822	0.061
Mof_C 	C 	0.1147	0.6538	0.2705	-0.006
Mof_H 	H 	0.0703	0.6166	0.2385	0.046
Mof_C 	C 	0.1371	0.6355	0.3534	-0.091
Mof_C 	C 	0.2984	0.8561	0.2833	0.32
Mof_C 	C 	0.0932	0.557	0.4097	0.326
Mof_S 	S 	0.28493	0.22329	0.64238	0.042
Mof_O 	O 	0.1063	0.3071	0.46	-0.513
Mof_O 	O 	0.1139	0.352	0.5944	-0.473
Mof_O 	O 	0.4978	0.0263	0.6272	-0.509
Mof_O 	O 	0.4526	0.1209	0.7347	-0.45
Mof_C 	C 	0.2255	0.2304	0.5456	-0.105
Mof_C 	C 	0.2635	0.1668	0.4875	-0.017
Mof_H 	H 	0.2384	0.1581	0.4322	0.039
Mof_C 	C 	0.3462	0.1147	0.5205	-0.029
Mof_H 	H 	0.3834	0.0703	0.4885	0.046
Mof_C 	C 	0.3645	0.1371	0.6034	-0.084
Mof_C 	C 	0.1439	0.2984	0.5333	0.335
Mof_C 	C 	0.443	0.0932	0.6597	0.315
Mof_S 	S 	0.71507	0.77671	0.14238	0.157
Mof_O 	O 	0.8937	0.6929	0.96	-0.357
Mof_O 	O 	0.8861	0.648	0.0944	-0.304
Mof_O 	O 	0.5022	0.9737	0.1272	-0.343
Mof_O 	O 	0.5474	0.8791	0.2347	-0.326
Mof_C 	C 	0.7745	0.7696	0.0456	-0.146
Mof_C 	C 	0.7365	0.8332	0.9875	0.187
Mof_H 	H 	0.7616	0.8419	0.9322	0.031
Mof_C 	C 	0.6538	0.8853	0.0205	-0.192
Mof_H 	H 	0.6166	0.9297	0.9885	0.188
Mof_C 	C 	0.6355	0.8629	0.1034	0.015
Mof_C 	C 	0.8561	0.7016	0.0333	0.321
Mof_C 	C 	0.557	0.9068	0.1597	0.284
Mof_In	In	0.42366	0	0.25	1.892
Mof_In	In	0.57634	0	0.75	1.899
Mof_In	In	6.56704e-33	0.42366	0.5	1.913
Mof_In	In	-0	0.57634	-0	1.816
_end
