data_functionalizedCrystal
_audit_creation_method	'EQeq! by Chris Wilmer'
_symmetry_space_group_name_H-M	'P1'
_symmetry_Int_Tables_number	1
_symmetry_cell_setting	triclinic
loop_
_symmetry_equiv_pos_as_xyz
  x,y,z
_cell_length_a	12.106
_cell_length_b	12.118
_cell_length_c	13.7208
_cell_angle_alpha	98.9628
_cell_angle_beta	116.178
_cell_angle_gamma	69.32
loop_
_atom_site_label
_atom_site_type_symbol
_atom_site_fract_x
_atom_site_fract_y
_atom_site_fract_z
_atom_site_charge
Mof_Fe	Fe	-0	0	-0	0.588
Mof_Fe	Fe	0.10403	0.25705	-0	0.591
Mof_Fe	Fe	0.89597	0.74295	-0	0.611
Mof_H 	H 	0.9092	0.9126	0.572	0.044
Mof_H 	H 	0.1169	0.126	0.6046	0.046
Mof_H 	H 	0.6628	0.0874	0.572	0.081
Mof_H 	H 	0.4877	0.874	0.6046	0.083
Mof_H 	H 	0.0908	0.0874	0.428	0.081
Mof_H 	H 	0.8831	0.874	0.3954	0.08
Mof_H 	H 	0.3372	0.9126	0.428	0.046
Mof_H 	H 	0.5123	0.126	0.3954	0.044
Mof_H 	H 	0.5295	0.3018	-0	0.044
Mof_H 	H 	0.6629	0.5583	-0	0.045
Mof_H 	H 	0.4705	0.6982	-0	0.049
Mof_H 	H 	0.3371	0.4417	-0	0.044
Mof_C 	C 	0.9473	0.9477	0.5432	0.041
Mof_C 	C 	0.0179	0.0183	0.6088	-0.061
Mof_C 	C 	0.0701	0.0741	0.562	0.016
Mof_C 	C 	0.0393	0.0433	0.7222	0.124
Mof_C 	C 	0.5959	0.0523	0.5432	-0.095
Mof_C 	C 	0.5909	0.9817	0.6088	0.051
Mof_C 	C 	0.4919	0.9259	0.562	-0.077
Mof_C 	C 	0.6829	0.9567	0.7222	0.124
Mof_C 	C 	0.0527	0.0523	0.4568	-0.118
Mof_C 	C 	0.9821	0.9817	0.3912	0.063
Mof_C 	C 	0.9299	0.9259	0.438	-0.089
Mof_C 	C 	0.9607	0.9567	0.2778	0.111
Mof_C 	C 	0.4041	0.9477	0.4568	0.024
Mof_C 	C 	0.4091	0.0183	0.3912	-0.049
Mof_C 	C 	0.5081	0.0741	0.438	0.004
Mof_C 	C 	0.3171	0.0433	0.2778	0.112
Mof_C 	C 	0.5189	0.3833	-0	-0.043
Mof_C 	C 	0.6144	0.4146	-0	-0.009
Mof_C 	C 	0.5971	0.5329	-0	-0.041
Mof_C 	C 	0.7366	0.3324	-0	0.111
Mof_C 	C 	0.4811	0.6167	-0	-0.045
Mof_C 	C 	0.3856	0.5854	-0	-0.006
Mof_C 	C 	0.4029	0.4671	-0	-0.045
Mof_C 	C 	0.2634	0.6676	-0	0.111
Mof_C 	C 	0.9682	0.5	0.9364	0.316
Mof_C 	C 	0.0318	0.5	0.0636	0.146
Mof_N 	N 	0.0184	0.9799	0.7804	-0.058
Mof_N 	N 	0.04078	0.0358	0.87716	-0.078
Mof_N 	N 	0.077	0.1251	0.8756	-0.072
Mof_N 	N 	0.0746	0.1354	0.78	-0.082
Mof_N 	N 	0.762	0.0201	0.7804	-0.083
Mof_N 	N 	0.83638	0.9642	0.87716	-0.057
Mof_N 	N 	0.7986	0.8749	0.8756	-0.07
Mof_N 	N 	0.7054	0.8646	0.78	-0.077
Mof_N 	N 	0.9816	0.0201	0.2196	-0.091
Mof_N 	N 	0.95922	0.9642	0.12284	-0.09
Mof_N 	N 	0.923	0.8749	0.1244	-0.104
Mof_N 	N 	0.9254	0.8646	0.22	-0.087
Mof_N 	N 	0.238	0.9799	0.2196	-0.068
Mof_N 	N 	0.16362	0.0358	0.12284	-0.113
Mof_N 	N 	0.2014	0.1251	0.1244	-0.107
Mof_N 	N 	0.2946	0.1354	0.22	-0.092
Mof_N 	N 	0.7694	0.212	-0	-0.098
Mof_N 	N 	0.8876	0.1757	-0	-0.107
Mof_N 	N 	0.9214	0.2648	-0	-0.095
Mof_N 	N 	0.8296	0.3645	-0	-0.1
Mof_N 	N 	0.2306	0.788	-0	-0.093
Mof_N 	N 	0.1124	0.8243	-0	-0.105
Mof_N 	N 	0.0786	0.7352	-0	-0.101
Mof_N 	N 	0.1704	0.6355	-0	-0.101
Mof_O 	O 	0.99529	0.4028	0.88918	-0.245
Mof_O 	O 	0.89389	0.5972	0.88918	-0.249
Mof_O 	O 	0.00471	0.5972	0.11082	-0.266
Mof_O 	O 	0.10611	0.4028	0.11082	-0.264
_end
