data_functionalizedCrystal
_audit_creation_method	'EQeq! by Chris Wilmer'
_symmetry_space_group_name_H-M	'P1'
_symmetry_Int_Tables_number	1
_symmetry_cell_setting	triclinic
loop_
_symmetry_equiv_pos_as_xyz
  x,y,z
_cell_length_a	21.966
_cell_length_b	16.6288
_cell_length_c	25.5315
_cell_angle_alpha	90
_cell_angle_beta	115.158
_cell_angle_gamma	90
loop_
_atom_site_label
_atom_site_type_symbol
_atom_site_fract_x
_atom_site_fract_y
_atom_site_fract_z
_atom_site_charge
Mof_Ag	Ag	0.34423	0.95693	0.36706	0.525
Mof_Ag	Ag	0.32195	0.25558	0.86659	0.536
Mof_C 	C 	0.5976	0.471	0.9993	0.099
Mof_C 	C 	0.7771	0.6382	0.0085	-0.131
Mof_H 	H 	0.798	0.6346	0.0486	0.074
Mof_C 	C 	0.2974	0.0842	0.504	-0.136
Mof_H 	H 	0.3196	0.0884	0.544	0.087
Mof_C 	C 	0.1233	0.2565	0.5007	0.096
Mof_C 	C 	0.5034	0.3848	0.9948	-0.141
Mof_H 	H 	0.5229	0.3835	0.035	0.089
Mof_C 	C 	0.0328	0.3103	0.4096	-0.154
Mof_H 	H 	0.054	0.2886	0.3882	0.087
Mof_C 	C 	0.0596	0.3014	0.4682	0.071
Mof_C 	C 	0.6816	0.5524	0.0056	0.096
Mof_C 	C 	0.2094	0.226	0.586	0.1
Mof_C 	C 	0.4442	0.3444	0.9632	0.093
Mof_H 	H 	0.4246	0.3158	0.9834	-0.015
Mof_C 	C 	0.5333	0.4272	0.9654	0.071
Mof_C 	C 	0.2426	0.2366	0.6497	0.067
Mof_C 	C 	0.7199	0.6532	0.8907	0.063
Mof_H 	H 	0.7	0.6583	0.8507	-0.025
Mof_C 	C 	0.6793	0.4565	0.1798	-0.146
Mof_H 	H 	0.635	0.4395	0.1597	0.084
Mof_C 	C 	0.2355	0.1213	0.4737	0.068
Mof_C 	C 	0.2355	0.0644	0.3875	0.084
Mof_H 	H 	0.2142	0.0575	0.3475	-0.01
Mof_C 	C 	0.7145	0.6011	0.9764	0.05
Mof_C 	C 	0.0256	0.335	0.498	-0.159
Mof_H 	H 	0.0428	0.3308	0.5381	0.079
Mof_C 	C 	0.2048	0.1724	0.5033	0.103
Mof_C 	C 	0.6797	0.5021	0.0862	0.095
Mof_C 	C 	0.7122	0.4918	0.1506	0.064
Mof_C 	C 	0.2039	0.1095	0.4138	-0.133
Mof_H 	H 	0.1618	0.132	0.392	0.084
Mof_C 	C 	0.6861	0.61	0.9172	-0.131
Mof_H 	H 	0.6444	0.5872	0.8948	0.076
Mof_C 	C 	0.3252	0.0412	0.4733	0.093
Mof_H 	H 	0.3675	0.0187	0.4938	-0.015
Mof_C 	C 	0.9731	0.3526	0.3828	0.082
Mof_H 	H 	0.9559	0.3605	0.343	-0.024
Mof_C 	C 	0.9672	0.3738	0.4677	0.087
Mof_H 	H 	0.945	0.3961	0.4881	-0.026
Mof_C 	C 	0.8061	0.5048	0.241	0.086
Mof_H 	H 	0.8503	0.5216	0.2619	-0.029
Mof_C 	C 	0.8066	0.6806	0.9781	0.074
Mof_H 	H 	0.8477	0.7056	0.9992	-0.012
Mof_C 	C 	0.5022	0.428	0.9057	-0.144
Mof_H 	H 	0.5199	0.4577	0.8846	0.082
Mof_C 	C 	0.7779	0.5161	0.182	-0.155
Mof_H 	H 	0.8023	0.5395	0.1639	0.077
Mof_C 	C 	0.4443	0.3835	0.8782	0.088
Mof_H 	H 	0.4254	0.3808	0.838	-0.009
Mof_C 	C 	0.7118	0.4462	0.2388	0.084
Mof_H 	H 	0.6891	0.4208	0.2577	-0.017
Mof_C 	C 	0.245	0.2944	0.7356	0.078
Mof_H 	H 	0.2257	0.3289	0.753	-0.02
Mof_C 	C 	0.3021	0.199	0.6832	-0.151
Mof_H 	H 	0.3246	0.1679	0.6667	0.086
Mof_C 	C 	0.2146	0.2871	0.6765	-0.144
Mof_H 	H 	0.1757	0.3158	0.6547	0.073
Mof_C 	C 	0.3274	0.2092	0.7425	0.094
Mof_H 	H 	0.3666	0.1816	0.7653	-0.024
Mof_N 	N 	0.2955	0.03	0.4166	-0.194
Mof_N 	N 	0.9394	0.3823	0.4107	-0.219
Mof_N 	N 	0.3005	0.2547	0.7693	-0.203
Mof_N 	N 	0.2375	0.177	0.5613	-0.137
Mof_N 	N 	0.1478	0.2103	0.4711	-0.138
Mof_N 	N 	0.1525	0.2664	0.5578	-0.142
Mof_N 	N 	0.4134	0.3439	0.9058	-0.191
Mof_N 	N 	0.7753	0.4718	0.2701	-0.202
Mof_N 	N 	0.7796	0.6873	0.9207	-0.208
Mof_N 	N 	0.6254	0.5128	0.9716	-0.142
Mof_N 	N 	0.6226	0.4631	0.0573	-0.137
Mof_N 	N 	0.7111	0.5495	0.0634	-0.15
Mof_Ag	Ag	0.84423	0.45693	0.36706	0.523
Mof_Ag	Ag	0.82195	0.75558	0.86659	0.535
Mof_C 	C 	0.0976	0.971	0.9993	0.1
Mof_C 	C 	0.2771	0.1382	0.0085	-0.138
Mof_H 	H 	0.298	0.1346	0.0486	0.075
Mof_C 	C 	0.7974	0.5842	0.504	-0.137
Mof_H 	H 	0.8196	0.5884	0.544	0.086
Mof_C 	C 	0.6233	0.7565	0.5007	0.095
Mof_C 	C 	0.0034	0.8848	0.9948	-0.135
Mof_H 	H 	0.0229	0.8835	0.035	0.086
Mof_C 	C 	0.5328	0.8103	0.4096	-0.155
Mof_H 	H 	0.554	0.7886	0.3882	0.086
Mof_C 	C 	0.5596	0.8014	0.4682	0.07
Mof_C 	C 	0.1816	0.0524	0.0056	0.092
Mof_C 	C 	0.7094	0.726	0.586	0.1
Mof_C 	C 	0.9442	0.8444	0.9632	0.088
Mof_H 	H 	0.9246	0.8158	0.9834	-0.014
Mof_C 	C 	0.0333	0.9272	0.9654	0.068
Mof_C 	C 	0.7426	0.7366	0.6497	0.067
Mof_C 	C 	0.2199	0.1532	0.8907	0.065
Mof_H 	H 	0.2	0.1583	0.8507	-0.026
Mof_C 	C 	0.1793	0.9565	0.1798	-0.146
Mof_H 	H 	0.135	0.9395	0.1597	0.084
Mof_C 	C 	0.7355	0.6213	0.4737	0.068
Mof_C 	C 	0.7355	0.5644	0.3875	0.084
Mof_H 	H 	0.7142	0.5575	0.3475	-0.01
Mof_C 	C 	0.2145	0.1011	0.9764	0.055
Mof_C 	C 	0.5256	0.835	0.498	-0.159
Mof_H 	H 	0.5428	0.8308	0.5381	0.079
Mof_C 	C 	0.7048	0.6724	0.5033	0.103
Mof_C 	C 	0.1797	0.0021	0.0862	0.095
Mof_C 	C 	0.2122	0.9918	0.1506	0.064
Mof_C 	C 	0.7039	0.6095	0.4138	-0.133
Mof_H 	H 	0.6618	0.632	0.392	0.084
Mof_C 	C 	0.1861	0.11	0.9172	-0.134
Mof_H 	H 	0.1444	0.0872	0.8948	0.078
Mof_C 	C 	0.8252	0.5412	0.4733	0.093
Mof_H 	H 	0.8675	0.5187	0.4938	-0.015
Mof_C 	C 	0.4731	0.8526	0.3828	0.082
Mof_H 	H 	0.4559	0.8605	0.343	-0.024
Mof_C 	C 	0.4672	0.8738	0.4677	0.087
Mof_H 	H 	0.445	0.8961	0.4881	-0.026
Mof_C 	C 	0.3061	0.0048	0.241	0.086
Mof_H 	H 	0.3503	0.0216	0.2619	-0.029
Mof_C 	C 	0.3066	0.1806	0.9781	0.078
Mof_H 	H 	0.3477	0.2056	0.9992	-0.013
Mof_C 	C 	0.0022	0.928	0.9057	-0.141
Mof_H 	H 	0.0199	0.9577	0.8846	0.081
Mof_C 	C 	0.2779	0.0161	0.182	-0.155
Mof_H 	H 	0.3023	0.0395	0.1639	0.077
Mof_C 	C 	0.9443	0.8835	0.8782	0.085
Mof_H 	H 	0.9254	0.8808	0.838	-0.008
Mof_C 	C 	0.2118	0.9462	0.2388	0.084
Mof_H 	H 	0.1891	0.9208	0.2577	-0.017
Mof_C 	C 	0.745	0.7944	0.7356	0.078
Mof_H 	H 	0.7257	0.8289	0.753	-0.02
Mof_C 	C 	0.8021	0.699	0.6832	-0.151
Mof_H 	H 	0.8246	0.6679	0.6667	0.086
Mof_C 	C 	0.7146	0.7871	0.6765	-0.144
Mof_H 	H 	0.6757	0.8158	0.6547	0.073
Mof_C 	C 	0.8274	0.7092	0.7425	0.094
Mof_H 	H 	0.8666	0.6816	0.7653	-0.024
Mof_N 	N 	0.7955	0.53	0.4166	-0.194
Mof_N 	N 	0.4394	0.8823	0.4107	-0.218
Mof_N 	N 	0.8005	0.7547	0.7693	-0.203
Mof_N 	N 	0.7375	0.677	0.5613	-0.137
Mof_N 	N 	0.6478	0.7103	0.4711	-0.138
Mof_N 	N 	0.6525	0.7664	0.5578	-0.142
Mof_N 	N 	0.9134	0.8439	0.9058	-0.19
Mof_N 	N 	0.2753	0.9718	0.2701	-0.202
Mof_N 	N 	0.2796	0.1873	0.9207	-0.209
Mof_N 	N 	0.1254	0.0128	0.9716	-0.141
Mof_N 	N 	0.1226	0.9631	0.0573	-0.138
Mof_N 	N 	0.2111	0.0495	0.0634	-0.15
Mof_Ag	Ag	0.65577	0.95693	0.13294	0.524
Mof_Ag	Ag	0.67805	0.25558	0.63341	0.535
Mof_C 	C 	0.4024	0.471	0.5007	0.099
Mof_C 	C 	0.2229	0.6382	0.4915	-0.134
Mof_H 	H 	0.202	0.6346	0.4514	0.074
Mof_C 	C 	0.7026	0.0842	0.996	-0.14
Mof_H 	H 	0.6804	0.0884	0.956	0.087
Mof_C 	C 	0.8767	0.2565	0.9993	0.094
Mof_C 	C 	0.4966	0.3848	0.5052	-0.141
Mof_H 	H 	0.4771	0.3835	0.465	0.088
Mof_C 	C 	0.9672	0.3103	0.0904	-0.152
Mof_H 	H 	0.946	0.2886	0.1118	0.085
Mof_C 	C 	0.9404	0.3014	0.0318	0.069
Mof_C 	C 	0.3184	0.5524	0.4944	0.095
Mof_C 	C 	0.7906	0.226	0.914	0.099
Mof_C 	C 	0.5558	0.3444	0.5368	0.093
Mof_H 	H 	0.5754	0.3158	0.5166	-0.015
Mof_C 	C 	0.4667	0.4272	0.5346	0.071
Mof_C 	C 	0.7574	0.2366	0.8503	0.067
Mof_C 	C 	0.2801	0.6532	0.6093	0.064
Mof_H 	H 	0.3	0.6583	0.6493	-0.026
Mof_C 	C 	0.3207	0.4565	0.3202	-0.146
Mof_H 	H 	0.365	0.4395	0.3403	0.084
Mof_C 	C 	0.7645	0.1213	0.0263	0.071
Mof_C 	C 	0.7645	0.0644	0.1125	0.085
Mof_H 	H 	0.7858	0.0575	0.1525	-0.011
Mof_C 	C 	0.2855	0.6011	0.5236	0.052
Mof_C 	C 	0.9744	0.335	0.002	-0.153
Mof_H 	H 	0.9572	0.3308	0.9619	0.077
Mof_C 	C 	0.7952	0.1724	0.9967	0.101
Mof_C 	C 	0.3203	0.5021	0.4138	0.095
Mof_C 	C 	0.2878	0.4918	0.3494	0.064
Mof_C 	C 	0.7961	0.1095	0.0862	-0.135
Mof_H 	H 	0.8382	0.132	0.108	0.084
Mof_C 	C 	0.3139	0.61	0.5828	-0.132
Mof_H 	H 	0.3556	0.5872	0.6052	0.077
Mof_C 	C 	0.6748	0.0412	0.0267	0.094
Mof_H 	H 	0.6325	0.0187	0.0062	-0.016
Mof_C 	C 	0.0269	0.3526	0.1172	0.079
Mof_H 	H 	0.0441	0.3605	0.157	-0.023
Mof_C 	C 	0.0328	0.3738	0.0323	0.083
Mof_H 	H 	0.055	0.3961	0.0119	-0.025
Mof_C 	C 	0.1939	0.5048	0.259	0.086
Mof_H 	H 	0.1497	0.5216	0.2381	-0.029
Mof_C 	C 	0.1934	0.6806	0.5219	0.076
Mof_H 	H 	0.1523	0.7056	0.5008	-0.012
Mof_C 	C 	0.4978	0.428	0.5943	-0.144
Mof_H 	H 	0.4801	0.4577	0.6154	0.082
Mof_C 	C 	0.2221	0.5161	0.318	-0.155
Mof_H 	H 	0.1977	0.5395	0.3361	0.077
Mof_C 	C 	0.5557	0.3835	0.6218	0.088
Mof_H 	H 	0.5746	0.3808	0.662	-0.009
Mof_C 	C 	0.2882	0.4462	0.2612	0.084
Mof_H 	H 	0.3109	0.4208	0.2423	-0.017
Mof_C 	C 	0.755	0.2944	0.7644	0.078
Mof_H 	H 	0.7743	0.3289	0.747	-0.02
Mof_C 	C 	0.6979	0.199	0.8168	-0.151
Mof_H 	H 	0.6754	0.1679	0.8333	0.086
Mof_C 	C 	0.7854	0.2871	0.8235	-0.144
Mof_H 	H 	0.8243	0.3158	0.8453	0.073
Mof_C 	C 	0.6726	0.2092	0.7575	0.094
Mof_H 	H 	0.6334	0.1816	0.7347	-0.024
Mof_N 	N 	0.7045	0.03	0.0834	-0.195
Mof_N 	N 	0.0606	0.3823	0.0893	-0.217
Mof_N 	N 	0.6995	0.2547	0.7307	-0.203
Mof_N 	N 	0.7625	0.177	0.9387	-0.137
Mof_N 	N 	0.8522	0.2103	0.0289	-0.137
Mof_N 	N 	0.8475	0.2664	0.9422	-0.142
Mof_N 	N 	0.5866	0.3439	0.5942	-0.191
Mof_N 	N 	0.2247	0.4718	0.2299	-0.202
Mof_N 	N 	0.2204	0.6873	0.5793	-0.209
Mof_N 	N 	0.3746	0.5128	0.5284	-0.142
Mof_N 	N 	0.3774	0.4631	0.4427	-0.137
Mof_N 	N 	0.2889	0.5495	0.4366	-0.15
Mof_Ag	Ag	0.15577	0.45693	0.13294	0.523
Mof_Ag	Ag	0.17805	0.75558	0.63341	0.535
Mof_C 	C 	0.9024	0.971	0.5007	0.099
Mof_C 	C 	0.7229	0.1382	0.4915	-0.134
Mof_H 	H 	0.702	0.1346	0.4514	0.074
Mof_C 	C 	0.2026	0.5842	0.996	-0.134
Mof_H 	H 	0.1804	0.5884	0.956	0.085
Mof_C 	C 	0.3767	0.7565	0.9993	0.095
Mof_C 	C 	0.9966	0.8848	0.5052	-0.141
Mof_H 	H 	0.9771	0.8835	0.465	0.088
Mof_C 	C 	0.4672	0.8103	0.0904	-0.155
Mof_H 	H 	0.446	0.7886	0.1118	0.086
Mof_C 	C 	0.4404	0.8014	0.0318	0.07
Mof_C 	C 	0.8184	0.0524	0.4944	0.095
Mof_C 	C 	0.2906	0.726	0.914	0.1
Mof_C 	C 	0.0558	0.8444	0.5368	0.093
Mof_H 	H 	0.0754	0.8158	0.5166	-0.015
Mof_C 	C 	0.9667	0.9272	0.5346	0.071
Mof_C 	C 	0.2574	0.7366	0.8503	0.067
Mof_C 	C 	0.7801	0.1532	0.6093	0.064
Mof_H 	H 	0.8	0.1583	0.6493	-0.026
Mof_C 	C 	0.8207	0.9565	0.3202	-0.146
Mof_H 	H 	0.865	0.9395	0.3403	0.084
Mof_C 	C 	0.2645	0.6213	0.0263	0.066
Mof_C 	C 	0.2645	0.5644	0.1125	0.083
Mof_H 	H 	0.2858	0.5575	0.1525	-0.01
Mof_C 	C 	0.7855	0.1011	0.5236	0.052
Mof_C 	C 	0.4744	0.835	0.002	-0.159
Mof_H 	H 	0.4572	0.8308	0.9619	0.079
Mof_C 	C 	0.2952	0.6724	0.9967	0.104
Mof_C 	C 	0.8203	0.0021	0.4138	0.095
Mof_C 	C 	0.7878	0.9918	0.3494	0.064
Mof_C 	C 	0.2961	0.6095	0.0862	-0.132
Mof_H 	H 	0.3382	0.632	0.108	0.083
Mof_C 	C 	0.8139	0.11	0.5828	-0.132
Mof_H 	H 	0.8556	0.0872	0.6052	0.077
Mof_C 	C 	0.1748	0.5412	0.0267	0.091
Mof_H 	H 	0.1325	0.5187	0.0062	-0.015
Mof_C 	C 	0.5269	0.8526	0.1172	0.082
Mof_H 	H 	0.5441	0.8605	0.157	-0.024
Mof_C 	C 	0.5328	0.8738	0.0323	0.087
Mof_H 	H 	0.555	0.8961	0.0119	-0.026
Mof_C 	C 	0.6939	0.0048	0.259	0.086
Mof_H 	H 	0.6497	0.0216	0.2381	-0.029
Mof_C 	C 	0.6934	0.1806	0.5219	0.076
Mof_H 	H 	0.6523	0.2056	0.5008	-0.012
Mof_C 	C 	0.9978	0.928	0.5943	-0.145
Mof_H 	H 	0.9801	0.9577	0.6154	0.082
Mof_C 	C 	0.7221	0.0161	0.318	-0.155
Mof_H 	H 	0.6977	0.0395	0.3361	0.077
Mof_C 	C 	0.0557	0.8835	0.6218	0.089
Mof_H 	H 	0.0746	0.8808	0.662	-0.009
Mof_C 	C 	0.7882	0.9462	0.2612	0.084
Mof_H 	H 	0.8109	0.9208	0.2423	-0.017
Mof_C 	C 	0.255	0.7944	0.7644	0.078
Mof_H 	H 	0.2743	0.8289	0.747	-0.02
Mof_C 	C 	0.1979	0.699	0.8168	-0.151
Mof_H 	H 	0.1754	0.6679	0.8333	0.086
Mof_C 	C 	0.2854	0.7871	0.8235	-0.144
Mof_H 	H 	0.3243	0.8158	0.8453	0.073
Mof_C 	C 	0.1726	0.7092	0.7575	0.094
Mof_H 	H 	0.1334	0.6816	0.7347	-0.024
Mof_N 	N 	0.2045	0.53	0.0834	-0.194
Mof_N 	N 	0.5606	0.8823	0.0893	-0.218
Mof_N 	N 	0.1995	0.7547	0.7307	-0.203
Mof_N 	N 	0.2625	0.677	0.9387	-0.137
Mof_N 	N 	0.3522	0.7103	0.0289	-0.138
Mof_N 	N 	0.3475	0.7664	0.9422	-0.142
Mof_N 	N 	0.0866	0.8439	0.5942	-0.191
Mof_N 	N 	0.7247	0.9718	0.2299	-0.202
Mof_N 	N 	0.7204	0.1873	0.5793	-0.209
Mof_N 	N 	0.8746	0.0128	0.5284	-0.142
Mof_N 	N 	0.8774	0.9631	0.4427	-0.137
Mof_N 	N 	0.7889	0.0495	0.4366	-0.15
Mof_Ag	Ag	0.65577	0.04307	0.63294	0.524
Mof_Ag	Ag	0.67805	0.74442	0.13341	0.535
Mof_C 	C 	0.4024	0.529	0.0007	0.098
Mof_C 	C 	0.2229	0.3618	0.9915	-0.132
Mof_H 	H 	0.202	0.3654	0.9514	0.073
Mof_C 	C 	0.7026	0.9158	0.496	-0.137
Mof_H 	H 	0.6804	0.9116	0.456	0.086
Mof_C 	C 	0.8767	0.7435	0.4993	0.095
Mof_C 	C 	0.4966	0.6152	0.0052	-0.142
Mof_H 	H 	0.4771	0.6165	0.965	0.088
Mof_C 	C 	0.9672	0.6897	0.5904	-0.155
Mof_H 	H 	0.946	0.7114	0.6118	0.086
Mof_C 	C 	0.9404	0.6986	0.5318	0.071
Mof_C 	C 	0.3184	0.4476	0.9944	0.096
Mof_C 	C 	0.7906	0.774	0.414	0.1
Mof_C 	C 	0.5558	0.6556	0.0368	0.093
Mof_H 	H 	0.5754	0.6842	0.0166	-0.015
Mof_C 	C 	0.4667	0.5728	0.0346	0.071
Mof_C 	C 	0.7574	0.7634	0.3503	0.067
Mof_C 	C 	0.2801	0.3468	0.1093	0.063
Mof_H 	H 	0.3	0.3417	0.1493	-0.025
Mof_C 	C 	0.3207	0.5435	0.8202	-0.146
Mof_H 	H 	0.365	0.5605	0.8403	0.084
Mof_C 	C 	0.7645	0.8787	0.5263	0.068
Mof_C 	C 	0.7645	0.9356	0.6125	0.084
Mof_H 	H 	0.7858	0.9425	0.6525	-0.01
Mof_C 	C 	0.2855	0.3989	0.0236	0.05
Mof_C 	C 	0.9744	0.665	0.502	-0.159
Mof_H 	H 	0.9572	0.6692	0.4619	0.079
Mof_C 	C 	0.7952	0.8276	0.4967	0.103
Mof_C 	C 	0.3203	0.4979	0.9138	0.095
Mof_C 	C 	0.2878	0.5082	0.8494	0.064
Mof_C 	C 	0.7961	0.8905	0.5862	-0.133
Mof_H 	H 	0.8382	0.868	0.608	0.084
Mof_C 	C 	0.3139	0.39	0.0828	-0.131
Mof_H 	H 	0.3556	0.4128	0.1052	0.076
Mof_C 	C 	0.6748	0.9588	0.5267	0.093
Mof_H 	H 	0.6325	0.9813	0.5062	-0.015
Mof_C 	C 	0.0269	0.6474	0.6172	0.082
Mof_H 	H 	0.0441	0.6395	0.657	-0.024
Mof_C 	C 	0.0328	0.6262	0.5323	0.087
Mof_H 	H 	0.055	0.6039	0.5119	-0.026
Mof_C 	C 	0.1939	0.4952	0.759	0.086
Mof_H 	H 	0.1497	0.4784	0.7381	-0.029
Mof_C 	C 	0.1934	0.3194	0.0219	0.074
Mof_H 	H 	0.1523	0.2944	0.0008	-0.012
Mof_C 	C 	0.4978	0.572	0.0943	-0.144
Mof_H 	H 	0.4801	0.5423	0.1154	0.082
Mof_C 	C 	0.2221	0.4839	0.818	-0.155
Mof_H 	H 	0.1977	0.4605	0.8361	0.077
Mof_C 	C 	0.5557	0.6165	0.1218	0.088
Mof_H 	H 	0.5746	0.6192	0.162	-0.009
Mof_C 	C 	0.2882	0.5538	0.7612	0.084
Mof_H 	H 	0.3109	0.5792	0.7423	-0.017
Mof_C 	C 	0.755	0.7056	0.2644	0.078
Mof_H 	H 	0.7743	0.6711	0.247	-0.02
Mof_C 	C 	0.6979	0.801	0.3168	-0.151
Mof_H 	H 	0.6754	0.8321	0.3333	0.086
Mof_C 	C 	0.7854	0.7129	0.3235	-0.144
Mof_H 	H 	0.8243	0.6842	0.3453	0.073
Mof_C 	C 	0.6726	0.7908	0.2575	0.094
Mof_H 	H 	0.6334	0.8184	0.2347	-0.024
Mof_N 	N 	0.7045	0.97	0.5834	-0.194
Mof_N 	N 	0.0606	0.6177	0.5893	-0.219
Mof_N 	N 	0.6995	0.7453	0.2307	-0.203
Mof_N 	N 	0.7625	0.823	0.4387	-0.137
Mof_N 	N 	0.8522	0.7897	0.5289	-0.138
Mof_N 	N 	0.8475	0.7336	0.4422	-0.142
Mof_N 	N 	0.5866	0.6561	0.0942	-0.191
Mof_N 	N 	0.2247	0.5282	0.7299	-0.202
Mof_N 	N 	0.2204	0.3127	0.0793	-0.208
Mof_N 	N 	0.3746	0.4872	0.0284	-0.142
Mof_N 	N 	0.3774	0.5369	0.9427	-0.137
Mof_N 	N 	0.2889	0.4505	0.9366	-0.15
Mof_Ag	Ag	0.15577	0.54307	0.63294	0.523
Mof_Ag	Ag	0.17805	0.24442	0.13341	0.535
Mof_C 	C 	0.9024	0.029	0.0007	0.1
Mof_C 	C 	0.7229	0.8618	0.9915	-0.138
Mof_H 	H 	0.702	0.8654	0.9514	0.075
Mof_C 	C 	0.2026	0.4158	0.496	-0.137
Mof_H 	H 	0.1804	0.4116	0.456	0.086
Mof_C 	C 	0.3767	0.2435	0.4993	0.095
Mof_C 	C 	0.9966	0.1152	0.0052	-0.135
Mof_H 	H 	0.9771	0.1165	0.965	0.086
Mof_C 	C 	0.4672	0.1897	0.5904	-0.155
Mof_H 	H 	0.446	0.2114	0.6118	0.086
Mof_C 	C 	0.4404	0.1986	0.5318	0.07
Mof_C 	C 	0.8184	0.9476	0.9944	0.092
Mof_C 	C 	0.2906	0.274	0.414	0.1
Mof_C 	C 	0.0558	0.1556	0.0368	0.088
Mof_H 	H 	0.0754	0.1842	0.0166	-0.014
Mof_C 	C 	0.9667	0.0728	0.0346	0.068
Mof_C 	C 	0.2574	0.2634	0.3503	0.067
Mof_C 	C 	0.7801	0.8468	0.1093	0.065
Mof_H 	H 	0.8	0.8417	0.1493	-0.026
Mof_C 	C 	0.8207	0.0435	0.8202	-0.146
Mof_H 	H 	0.865	0.0605	0.8403	0.084
Mof_C 	C 	0.2645	0.3787	0.5263	0.068
Mof_C 	C 	0.2645	0.4356	0.6125	0.084
Mof_H 	H 	0.2858	0.4425	0.6525	-0.01
Mof_C 	C 	0.7855	0.8989	0.0236	0.055
Mof_C 	C 	0.4744	0.165	0.502	-0.159
Mof_H 	H 	0.4572	0.1692	0.4619	0.079
Mof_C 	C 	0.2952	0.3276	0.4967	0.103
Mof_C 	C 	0.8203	0.9979	0.9138	0.095
Mof_C 	C 	0.7878	0.0082	0.8494	0.064
Mof_C 	C 	0.2961	0.3905	0.5862	-0.133
Mof_H 	H 	0.3382	0.368	0.608	0.084
Mof_C 	C 	0.8139	0.89	0.0828	-0.134
Mof_H 	H 	0.8556	0.9128	0.1052	0.078
Mof_C 	C 	0.1748	0.4588	0.5267	0.093
Mof_H 	H 	0.1325	0.4813	0.5062	-0.015
Mof_C 	C 	0.5269	0.1474	0.6172	0.082
Mof_H 	H 	0.5441	0.1395	0.657	-0.024
Mof_C 	C 	0.5328	0.1262	0.5323	0.087
Mof_H 	H 	0.555	0.1039	0.5119	-0.026
Mof_C 	C 	0.6939	0.9952	0.759	0.086
Mof_H 	H 	0.6497	0.9784	0.7381	-0.029
Mof_C 	C 	0.6934	0.8194	0.0219	0.078
Mof_H 	H 	0.6523	0.7944	0.0008	-0.013
Mof_C 	C 	0.9978	0.072	0.0943	-0.141
Mof_H 	H 	0.9801	0.0423	0.1154	0.081
Mof_C 	C 	0.7221	0.9839	0.818	-0.155
Mof_H 	H 	0.6977	0.9605	0.8361	0.077
Mof_C 	C 	0.0557	0.1165	0.1218	0.085
Mof_H 	H 	0.0746	0.1192	0.162	-0.008
Mof_C 	C 	0.7882	0.0538	0.7612	0.084
Mof_H 	H 	0.8109	0.0792	0.7423	-0.017
Mof_C 	C 	0.255	0.2056	0.2644	0.078
Mof_H 	H 	0.2743	0.1711	0.247	-0.02
Mof_C 	C 	0.1979	0.301	0.3168	-0.151
Mof_H 	H 	0.1754	0.3321	0.3333	0.086
Mof_C 	C 	0.2854	0.2129	0.3235	-0.144
Mof_H 	H 	0.3243	0.1842	0.3453	0.073
Mof_C 	C 	0.1726	0.2908	0.2575	0.094
Mof_H 	H 	0.1334	0.3184	0.2347	-0.024
Mof_N 	N 	0.2045	0.47	0.5834	-0.194
Mof_N 	N 	0.5606	0.1177	0.5893	-0.218
Mof_N 	N 	0.1995	0.2453	0.2307	-0.203
Mof_N 	N 	0.2625	0.323	0.4387	-0.137
Mof_N 	N 	0.3522	0.2897	0.5289	-0.138
Mof_N 	N 	0.3475	0.2336	0.4422	-0.142
Mof_N 	N 	0.0866	0.1561	0.0942	-0.19
Mof_N 	N 	0.7247	0.0282	0.7299	-0.202
Mof_N 	N 	0.7204	0.8127	0.0793	-0.209
Mof_N 	N 	0.8746	0.9872	0.0284	-0.141
Mof_N 	N 	0.8774	0.0369	0.9427	-0.138
Mof_N 	N 	0.7889	0.9505	0.9366	-0.15
Mof_Ag	Ag	0.34423	0.04307	0.86706	0.524
Mof_Ag	Ag	0.32195	0.74442	0.36659	0.535
Mof_C 	C 	0.5976	0.529	0.4993	0.099
Mof_C 	C 	0.7771	0.3618	0.5085	-0.134
Mof_H 	H 	0.798	0.3654	0.5486	0.074
Mof_C 	C 	0.2974	0.9158	0.004	-0.14
Mof_H 	H 	0.3196	0.9116	0.044	0.087
Mof_C 	C 	0.1233	0.7435	0.0007	0.094
Mof_C 	C 	0.5034	0.6152	0.4948	-0.141
Mof_H 	H 	0.5229	0.6165	0.535	0.088
Mof_C 	C 	0.0328	0.6897	0.9096	-0.152
Mof_H 	H 	0.054	0.7114	0.8882	0.085
Mof_C 	C 	0.0596	0.6986	0.9682	0.069
Mof_C 	C 	0.6816	0.4476	0.5056	0.095
Mof_C 	C 	0.2094	0.774	0.086	0.099
Mof_C 	C 	0.4442	0.6556	0.4632	0.093
Mof_H 	H 	0.4246	0.6842	0.4834	-0.015
Mof_C 	C 	0.5333	0.5728	0.4654	0.071
Mof_C 	C 	0.2426	0.7634	0.1497	0.067
Mof_C 	C 	0.7199	0.3468	0.3907	0.064
Mof_H 	H 	0.7	0.3417	0.3507	-0.026
Mof_C 	C 	0.6793	0.5435	0.6798	-0.146
Mof_H 	H 	0.635	0.5605	0.6597	0.084
Mof_C 	C 	0.2355	0.8787	0.9737	0.071
Mof_C 	C 	0.2355	0.9356	0.8875	0.085
Mof_H 	H 	0.2142	0.9425	0.8475	-0.011
Mof_C 	C 	0.7145	0.3989	0.4764	0.052
Mof_C 	C 	0.0256	0.665	0.998	-0.153
Mof_H 	H 	0.0428	0.6692	0.0381	0.077
Mof_C 	C 	0.2048	0.8276	0.0033	0.101
Mof_C 	C 	0.6797	0.4979	0.5862	0.095
Mof_C 	C 	0.7122	0.5082	0.6506	0.064
Mof_C 	C 	0.2039	0.8905	0.9138	-0.135
Mof_H 	H 	0.1618	0.868	0.892	0.084
Mof_C 	C 	0.6861	0.39	0.4172	-0.132
Mof_H 	H 	0.6444	0.4128	0.3948	0.077
Mof_C 	C 	0.3252	0.9588	0.9733	0.094
Mof_H 	H 	0.3675	0.9813	0.9938	-0.016
Mof_C 	C 	0.9731	0.6474	0.8828	0.079
Mof_H 	H 	0.9559	0.6395	0.843	-0.023
Mof_C 	C 	0.9672	0.6262	0.9677	0.083
Mof_H 	H 	0.945	0.6039	0.9881	-0.025
Mof_C 	C 	0.8061	0.4952	0.741	0.086
Mof_H 	H 	0.8503	0.4784	0.7619	-0.029
Mof_C 	C 	0.8066	0.3194	0.4781	0.076
Mof_H 	H 	0.8477	0.2944	0.4992	-0.012
Mof_C 	C 	0.5022	0.572	0.4057	-0.144
Mof_H 	H 	0.5199	0.5423	0.3846	0.082
Mof_C 	C 	0.7779	0.4839	0.682	-0.155
Mof_H 	H 	0.8023	0.4605	0.6639	0.077
Mof_C 	C 	0.4443	0.6165	0.3782	0.088
Mof_H 	H 	0.4254	0.6192	0.338	-0.009
Mof_C 	C 	0.7118	0.5538	0.7388	0.084
Mof_H 	H 	0.6891	0.5792	0.7577	-0.017
Mof_C 	C 	0.245	0.7056	0.2356	0.078
Mof_H 	H 	0.2257	0.6711	0.253	-0.02
Mof_C 	C 	0.3021	0.801	0.1832	-0.151
Mof_H 	H 	0.3246	0.8321	0.1667	0.086
Mof_C 	C 	0.2146	0.7129	0.1765	-0.144
Mof_H 	H 	0.1757	0.6842	0.1547	0.073
Mof_C 	C 	0.3274	0.7908	0.2425	0.094
Mof_H 	H 	0.3666	0.8184	0.2653	-0.024
Mof_N 	N 	0.2955	0.97	0.9166	-0.195
Mof_N 	N 	0.9394	0.6177	0.9107	-0.217
Mof_N 	N 	0.3005	0.7453	0.2693	-0.203
Mof_N 	N 	0.2375	0.823	0.0613	-0.137
Mof_N 	N 	0.1478	0.7897	0.9711	-0.137
Mof_N 	N 	0.1525	0.7336	0.0578	-0.142
Mof_N 	N 	0.4134	0.6561	0.4058	-0.191
Mof_N 	N 	0.7753	0.5282	0.7701	-0.202
Mof_N 	N 	0.7796	0.3127	0.4207	-0.209
Mof_N 	N 	0.6254	0.4872	0.4716	-0.142
Mof_N 	N 	0.6226	0.5369	0.5573	-0.137
Mof_N 	N 	0.7111	0.4505	0.5634	-0.15
Mof_Ag	Ag	0.84423	0.54307	0.86706	0.523
Mof_Ag	Ag	0.82195	0.24442	0.36659	0.535
Mof_C 	C 	0.0976	0.029	0.4993	0.099
Mof_C 	C 	0.2771	0.8618	0.5085	-0.134
Mof_H 	H 	0.298	0.8654	0.5486	0.074
Mof_C 	C 	0.7974	0.4158	0.004	-0.134
Mof_H 	H 	0.8196	0.4116	0.044	0.085
Mof_C 	C 	0.6233	0.2435	0.0007	0.095
Mof_C 	C 	0.0034	0.1152	0.4948	-0.141
Mof_H 	H 	0.0229	0.1165	0.535	0.088
Mof_C 	C 	0.5328	0.1897	0.9096	-0.155
Mof_H 	H 	0.554	0.2114	0.8882	0.086
Mof_C 	C 	0.5596	0.1986	0.9682	0.07
Mof_C 	C 	0.1816	0.9476	0.5056	0.095
Mof_C 	C 	0.7094	0.274	0.086	0.1
Mof_C 	C 	0.9442	0.1556	0.4632	0.093
Mof_H 	H 	0.9246	0.1842	0.4834	-0.015
Mof_C 	C 	0.0333	0.0728	0.4654	0.071
Mof_C 	C 	0.7426	0.2634	0.1497	0.067
Mof_C 	C 	0.2199	0.8468	0.3907	0.064
Mof_H 	H 	0.2	0.8417	0.3507	-0.026
Mof_C 	C 	0.1793	0.0435	0.6798	-0.146
Mof_H 	H 	0.135	0.0605	0.6597	0.084
Mof_C 	C 	0.7355	0.3787	0.9737	0.066
Mof_C 	C 	0.7355	0.4356	0.8875	0.083
Mof_H 	H 	0.7142	0.4425	0.8475	-0.01
Mof_C 	C 	0.2145	0.8989	0.4764	0.052
Mof_C 	C 	0.5256	0.165	0.998	-0.159
Mof_H 	H 	0.5428	0.1692	0.0381	0.079
Mof_C 	C 	0.7048	0.3276	0.0033	0.104
Mof_C 	C 	0.1797	0.9979	0.5862	0.095
Mof_C 	C 	0.2122	0.0082	0.6506	0.064
Mof_C 	C 	0.7039	0.3905	0.9138	-0.132
Mof_H 	H 	0.6618	0.368	0.892	0.083
Mof_C 	C 	0.1861	0.89	0.4172	-0.132
Mof_H 	H 	0.1444	0.9128	0.3948	0.077
Mof_C 	C 	0.8252	0.4588	0.9733	0.091
Mof_H 	H 	0.8675	0.4813	0.9938	-0.015
Mof_C 	C 	0.4731	0.1474	0.8828	0.082
Mof_H 	H 	0.4559	0.1395	0.843	-0.024
Mof_C 	C 	0.4672	0.1262	0.9677	0.087
Mof_H 	H 	0.445	0.1039	0.9881	-0.026
Mof_C 	C 	0.3061	0.9952	0.741	0.086
Mof_H 	H 	0.3503	0.9784	0.7619	-0.029
Mof_C 	C 	0.3066	0.8194	0.4781	0.076
Mof_H 	H 	0.3477	0.7944	0.4992	-0.012
Mof_C 	C 	0.0022	0.072	0.4057	-0.145
Mof_H 	H 	0.0199	0.0423	0.3846	0.082
Mof_C 	C 	0.2779	0.9839	0.682	-0.155
Mof_H 	H 	0.3023	0.9605	0.6639	0.077
Mof_C 	C 	0.9443	0.1165	0.3782	0.089
Mof_H 	H 	0.9254	0.1192	0.338	-0.009
Mof_C 	C 	0.2118	0.0538	0.7388	0.084
Mof_H 	H 	0.1891	0.0792	0.7577	-0.017
Mof_C 	C 	0.745	0.2056	0.2356	0.078
Mof_H 	H 	0.7257	0.1711	0.253	-0.02
Mof_C 	C 	0.8021	0.301	0.1832	-0.151
Mof_H 	H 	0.8246	0.3321	0.1667	0.086
Mof_C 	C 	0.7146	0.2129	0.1765	-0.144
Mof_H 	H 	0.6757	0.1842	0.1547	0.073
Mof_C 	C 	0.8274	0.2908	0.2425	0.094
Mof_H 	H 	0.8666	0.3184	0.2653	-0.024
Mof_N 	N 	0.7955	0.47	0.9166	-0.194
Mof_N 	N 	0.4394	0.1177	0.9107	-0.218
Mof_N 	N 	0.8005	0.2453	0.2693	-0.203
Mof_N 	N 	0.7375	0.323	0.0613	-0.137
Mof_N 	N 	0.6478	0.2897	0.9711	-0.138
Mof_N 	N 	0.6525	0.2336	0.0578	-0.142
Mof_N 	N 	0.9134	0.1561	0.4058	-0.191
Mof_N 	N 	0.2753	0.0282	0.7701	-0.202
Mof_N 	N 	0.2796	0.8127	0.4207	-0.209
Mof_N 	N 	0.1254	0.9872	0.4716	-0.142
Mof_N 	N 	0.1226	0.0369	0.5573	-0.137
Mof_N 	N 	0.2111	0.9505	0.5634	-0.15
_end
