data_functionalizedCrystal
_audit_creation_method	'EQeq! by Chris Wilmer'
_symmetry_space_group_name_H-M	'P1'
_symmetry_Int_Tables_number	1
_symmetry_cell_setting	triclinic
loop_
_symmetry_equiv_pos_as_xyz
  x,y,z
_cell_length_a	9.605
_cell_length_b	21.278
_cell_length_c	16.747
_cell_angle_alpha	90
_cell_angle_beta	91.464
_cell_angle_gamma	90
loop_
_atom_site_label
_atom_site_type_symbol
_atom_site_fract_x
_atom_site_fract_y
_atom_site_fract_z
_atom_site_charge
Mof_U 	U 	0.78101	0.24148	0.9626	0.018
Mof_U 	U 	0.70895	0.2419	0.51626	0.018
Mof_U 	U 	0.24392	0.13977	0.74296	0.02
Mof_P 	P 	0.5318	0.3437	0.05641	0.421
Mof_P 	P 	0.9575	0.34748	0.4283	0.442
Mof_P 	P 	0.5	0.14147	0.57761	0.393
Mof_P 	P 	0.9897	0.1376	0.90717	0.41
Mof_O 	O 	0.6476	0.3242	0.0027	-0.17
Mof_O 	O 	0.4193	0.2927	0.0637	-0.153
Mof_O 	O 	0.588	0.3605	0.1392	-0.165
Mof_O 	O 	0.8413	0.3264	0.4813	-0.168
Mof_O 	O 	0.0667	0.296	0.417	-0.161
Mof_O 	O 	0.8998	0.3676	0.3472	-0.165
Mof_O 	O 	0.6565	0.1473	0.5885	-0.173
Mof_O 	O 	0.4595	0.1953	0.5199	-0.141
Mof_O 	O 	0.4259	0.1468	0.6562	-0.154
Mof_O 	O 	0.0313	0.1964	0.9552	-0.147
Mof_O 	O 	0.8341	0.1454	0.8922	-0.173
Mof_O 	O 	0.0677	0.1308	0.8304	-0.164
Mof_C 	C 	0.4469	0.413	0.0173	-0.262
Mof_H 	H 	0.4056	0.403	0.9654	0.139
Mof_H 	H 	0.3716	0.424	0.0523	0.14
Mof_C 	C 	0.5404	0.4706	0.0083	-0.054
Mof_H 	H 	0.596	0.4761	0.057	0.071
Mof_H 	H 	0.6036	0.4633	0.965	0.068
Mof_C 	C 	0.0444	0.4138	0.4722	-0.31
Mof_H 	H 	0.0885	0.4004	0.5221	0.149
Mof_H 	H 	0.118	0.4265	0.437	0.151
Mof_C 	C 	0.956	0.4715	0.4893	0.016
Mof_H 	H 	0.8981	0.4811	0.4426	0.051
Mof_H 	H 	0.895	0.4622	0.533	0.049
Mof_C 	C 	0.0284	0.0695	0.9651	-0.076
Mof_C 	C 	0.985	0.0106	0.9322	0.043
Mof_C 	C 	0.4556	0.0679	0.5331	-0.055
Mof_C 	C 	0.507	0.0119	0.5758	0.03
Mof_C 	C 	0.528	0.0557	0.4626	0.033
Mof_C 	C 	0.966	0.056	0.0339	0.054
Mof_U 	U 	0.71899	0.74148	0.5374	0.018
Mof_U 	U 	0.79105	0.7419	0.98374	0.019
Mof_U 	U 	0.25608	0.63977	0.75704	0.02
Mof_P 	P 	0.9682	0.8437	0.44359	0.44
Mof_P 	P 	0.5425	0.84748	0.0717	0.425
Mof_P 	P 	6.18404e-33	0.64147	0.92239	0.389
Mof_P 	P 	0.5103	0.6376	0.59283	0.396
Mof_O 	O 	0.8524	0.8242	0.4973	-0.17
Mof_O 	O 	0.0807	0.7927	0.4363	-0.16
Mof_O 	O 	0.912	0.8605	0.3608	-0.164
Mof_O 	O 	0.6587	0.8264	0.0187	-0.168
Mof_O 	O 	0.4333	0.796	0.083	-0.154
Mof_O 	O 	0.6002	0.8676	0.1528	-0.166
Mof_O 	O 	0.8435	0.6473	0.9115	-0.17
Mof_O 	O 	0.0405	0.6953	0.9801	-0.143
Mof_O 	O 	0.0741	0.6468	0.8438	-0.155
Mof_O 	O 	0.4687	0.6964	0.5448	-0.141
Mof_O 	O 	0.6659	0.6454	0.6078	-0.171
Mof_O 	O 	0.4323	0.6308	0.6696	-0.158
Mof_C 	C 	0.0531	0.913	0.4827	-0.306
Mof_H 	H 	0.0944	0.903	0.5346	0.149
Mof_H 	H 	0.1284	0.924	0.4477	0.151
Mof_C 	C 	0.9596	0.9706	0.4917	0.017
Mof_H 	H 	0.904	0.9761	0.443	0.053
Mof_H 	H 	0.8964	0.9633	0.535	0.049
Mof_C 	C 	0.4556	0.9138	0.0278	-0.266
Mof_H 	H 	0.4115	0.9004	0.9779	0.14
Mof_H 	H 	0.382	0.9265	0.063	0.14
Mof_C 	C 	0.544	0.9715	0.0107	-0.05
Mof_H 	H 	0.6019	0.9811	0.0574	0.069
Mof_H 	H 	0.605	0.9622	0.967	0.067
Mof_C 	C 	0.4716	0.5695	0.5349	-0.057
Mof_C 	C 	0.515	0.5106	0.5678	0.027
Mof_C 	C 	0.0444	0.5679	0.9669	-0.069
Mof_C 	C 	0.993	0.5119	0.9242	0.045
Mof_C 	C 	0.972	0.5557	0.0374	0.051
Mof_C 	C 	0.534	0.556	0.4661	0.038
Mof_U 	U 	0.21899	0.75852	0.0374	0.014
Mof_U 	U 	0.29105	0.7581	0.48374	0.017
Mof_U 	U 	0.75608	0.86023	0.25704	0.022
Mof_P 	P 	0.4682	0.6563	0.94359	0.423
Mof_P 	P 	0.0425	0.65252	0.5717	0.408
Mof_P 	P 	0.5	0.85853	0.42239	0.393
Mof_P 	P 	0.0103	0.8624	0.09283	0.373
Mof_O 	O 	0.3524	0.6758	0.9973	-0.169
Mof_O 	O 	0.5807	0.7073	0.9363	-0.151
Mof_O 	O 	0.412	0.6395	0.8608	-0.165
Mof_O 	O 	0.1587	0.6736	0.5187	-0.167
Mof_O 	O 	0.9333	0.704	0.583	-0.145
Mof_O 	O 	0.1002	0.6324	0.6528	-0.166
Mof_O 	O 	0.3435	0.8527	0.4115	-0.175
Mof_O 	O 	0.5405	0.8047	0.4801	-0.141
Mof_O 	O 	0.5741	0.8532	0.3438	-0.153
Mof_O 	O 	0.9687	0.8036	0.0448	-0.131
Mof_O 	O 	0.1659	0.8546	0.1078	-0.171
Mof_O 	O 	0.9323	0.8692	0.1696	-0.148
Mof_C 	C 	0.5531	0.587	0.9827	-0.265
Mof_H 	H 	0.5944	0.597	0.0346	0.138
Mof_H 	H 	0.6284	0.576	0.9477	0.141
Mof_C 	C 	0.4596	0.5294	0.9917	-0.035
Mof_H 	H 	0.404	0.5239	0.943	0.066
Mof_H 	H 	0.3964	0.5367	0.035	0.061
Mof_C 	C 	0.9556	0.5862	0.5278	-0.224
Mof_H 	H 	0.9115	0.5996	0.4779	0.129
Mof_H 	H 	0.882	0.5735	0.563	0.13
Mof_C 	C 	0.044	0.5285	0.5107	-0.103
Mof_H 	H 	0.1019	0.5189	0.5574	0.082
Mof_H 	H 	0.105	0.5378	0.467	0.08
Mof_C 	C 	0.9716	0.9305	0.0349	-0.027
Mof_C 	C 	0.015	0.9894	0.0678	0.004
Mof_C 	C 	0.5444	0.9321	0.4669	-0.053
Mof_C 	C 	0.493	0.9881	0.4242	0.029
Mof_C 	C 	0.472	0.9443	0.5374	0.032
Mof_C 	C 	0.034	0.944	0.9661	0.018
Mof_U 	U 	0.28101	0.25852	0.4626	0.017
Mof_U 	U 	0.20895	0.2581	0.01626	0.015
Mof_U 	U 	0.74392	0.36023	0.24296	0.022
Mof_P 	P 	0.0318	0.1563	0.55641	0.408
Mof_P 	P 	0.4575	0.15252	0.9283	0.425
Mof_P 	P 	-1.03833e-18	0.35853	0.07761	0.372
Mof_P 	P 	0.4897	0.3624	0.40717	0.396
Mof_O 	O 	0.1476	0.1758	0.5027	-0.169
Mof_O 	O 	0.9193	0.2073	0.5637	-0.144
Mof_O 	O 	0.088	0.1395	0.6392	-0.165
Mof_O 	O 	0.3413	0.1736	0.9813	-0.167
Mof_O 	O 	0.5667	0.204	0.917	-0.152
Mof_O 	O 	0.3998	0.1324	0.8472	-0.166
Mof_O 	O 	0.1565	0.3527	0.0885	-0.173
Mof_O 	O 	0.9595	0.3047	0.0199	-0.132
Mof_O 	O 	0.9259	0.3532	0.1562	-0.145
Mof_O 	O 	0.5313	0.3036	0.4552	-0.141
Mof_O 	O 	0.3341	0.3546	0.3922	-0.174
Mof_O 	O 	0.5677	0.3692	0.3304	-0.158
Mof_C 	C 	0.9469	0.087	0.5173	-0.222
Mof_H 	H 	0.9056	0.097	0.4654	0.128
Mof_H 	H 	0.8716	0.076	0.5523	0.13
Mof_C 	C 	0.0404	0.0294	0.5083	-0.105
Mof_H 	H 	0.096	0.0239	0.557	0.084
Mof_H 	H 	0.1036	0.0367	0.465	0.081
Mof_C 	C 	0.5444	0.0862	0.9722	-0.267
Mof_H 	H 	0.5885	0.0996	0.0221	0.138
Mof_H 	H 	0.618	0.0735	0.937	0.141
Mof_C 	C 	0.456	0.0285	0.9893	-0.034
Mof_H 	H 	0.3981	0.0189	0.9426	0.065
Mof_H 	H 	0.395	0.0378	0.033	0.06
Mof_C 	C 	0.5284	0.4305	0.4651	-0.055
Mof_C 	C 	0.485	0.4894	0.4322	0.025
Mof_C 	C 	0.9556	0.4321	0.0331	-0.029
Mof_C 	C 	0.007	0.4881	0.0758	0.008
Mof_C 	C 	0.028	0.4443	0.9626	0.017
Mof_C 	C 	0.466	0.444	0.5339	0.035
_end
