data_functionalizedCrystal
_audit_creation_method	'EQeq! by Chris Wilmer'
_symmetry_space_group_name_H-M	'P1'
_symmetry_Int_Tables_number	1
_symmetry_cell_setting	triclinic
loop_
_symmetry_equiv_pos_as_xyz
  x,y,z
_cell_length_a	7.6225
_cell_length_b	7.7814
_cell_length_c	12.728
_cell_angle_alpha	90
_cell_angle_beta	90
_cell_angle_gamma	90
loop_
_atom_site_label
_atom_site_type_symbol
_atom_site_fract_x
_atom_site_fract_y
_atom_site_fract_z
_atom_site_charge
Mof_Ni	Ni	0.54104	0.49249	0.08105	1.148
Mof_C 	C 	0.4465	0.2354	0.2431	0.43
Mof_H 	H 	0.5604	0.1964	0.2324	-0.089
Mof_C 	C 	0.2795	0.7698	0.0233	0.42
Mof_H 	H 	0.3557	0.7995	0.9692	-0.075
Mof_C 	C 	0.3171	0.2578	0.9645	0.427
Mof_H 	H 	0.2444	0.2787	0.0218	-0.085
Mof_O 	O 	0.3947	0.3605	0.19037	-0.366
Mof_O 	O 	0.353	0.1587	0.30999	-0.36
Mof_O 	O 	0.3145	0.6382	0.07638	-0.358
Mof_O 	O 	0.1487	0.8633	0.03855	-0.358
Mof_O 	O 	0.4569	0.3387	0.96014	-0.364
Mof_O 	O 	0.2651	0.1491	0.89765	-0.362
Mof_Ni	Ni	0.95896	0.50751	0.58105	1.147
Mof_C 	C 	0.0535	0.7646	0.7431	0.437
Mof_H 	H 	0.9396	0.8036	0.7324	-0.096
Mof_C 	C 	0.2205	0.2302	0.5233	0.426
Mof_H 	H 	0.1443	0.2005	0.4692	-0.079
Mof_C 	C 	0.1829	0.7422	0.4645	0.431
Mof_H 	H 	0.2556	0.7213	0.5218	-0.088
Mof_O 	O 	0.1053	0.6395	0.69037	-0.368
Mof_O 	O 	0.147	0.8413	0.80999	-0.361
Mof_O 	O 	0.1855	0.3618	0.57638	-0.36
Mof_O 	O 	0.3513	0.1367	0.53855	-0.36
Mof_O 	O 	0.0431	0.6613	0.46014	-0.364
Mof_O 	O 	0.2349	0.8509	0.39765	-0.362
Mof_Ni	Ni	0.45896	0.99249	0.41895	1.147
Mof_C 	C 	0.5535	0.7354	0.2569	0.429
Mof_H 	H 	0.4396	0.6964	0.2676	-0.091
Mof_C 	C 	0.7205	0.2698	0.4767	0.426
Mof_H 	H 	0.6443	0.2995	0.5308	-0.079
Mof_C 	C 	0.6829	0.7578	0.5355	0.432
Mof_H 	H 	0.7556	0.7787	0.4782	-0.09
Mof_O 	O 	0.6053	0.8605	0.30963	-0.369
Mof_O 	O 	0.647	0.6587	0.19001	-0.363
Mof_O 	O 	0.6855	0.1382	0.42362	-0.358
Mof_O 	O 	0.8513	0.3633	0.46145	-0.362
Mof_O 	O 	0.5431	0.8387	0.53986	-0.367
Mof_O 	O 	0.7349	0.6491	0.60235	-0.363
Mof_Ni	Ni	0.04104	0.00751	0.91895	1.146
Mof_C 	C 	0.9465	0.2646	0.7569	0.431
Mof_H 	H 	0.0604	0.3036	0.7676	-0.093
Mof_C 	C 	0.7795	0.7302	0.9767	0.438
Mof_H 	H 	0.8557	0.7005	0.0308	-0.088
Mof_C 	C 	0.8171	0.2422	0.0355	0.43
Mof_H 	H 	0.7444	0.2213	0.9782	-0.087
Mof_O 	O 	0.8947	0.1395	0.80963	-0.365
Mof_O 	O 	0.853	0.3413	0.69001	-0.362
Mof_O 	O 	0.8145	0.8618	0.92362	-0.363
Mof_O 	O 	0.6487	0.6367	0.96145	-0.364
Mof_O 	O 	0.9569	0.1613	0.03986	-0.364
Mof_O 	O 	0.7651	0.3509	0.10235	-0.362
_end
