data_functionalizedCrystal
_audit_creation_method	'EQeq! by Chris Wilmer'
_symmetry_space_group_name_H-M	'P1'
_symmetry_Int_Tables_number	1
_symmetry_cell_setting	triclinic
loop_
_symmetry_equiv_pos_as_xyz
  x,y,z
_cell_length_a	16.9858
_cell_length_b	16.9858
_cell_length_c	16.9858
_cell_angle_alpha	90
_cell_angle_beta	90
_cell_angle_gamma	90
loop_
_atom_site_label
_atom_site_type_symbol
_atom_site_fract_x
_atom_site_fract_y
_atom_site_fract_z
_atom_site_charge
Mof_N 	N 	0.02918	0.4106	0.31965	-0.421
Mof_C 	C 	0.10129	0.37646	0.3212	-0.03
Mof_H 	H 	0.1436	0.3895	0.289	-0.013
Mof_H 	H 	0.8957	0.3872	0.451	0.295
Mof_N 	N 	0.52918	0.9106	0.81965	-0.313
Mof_C 	C 	0.60129	0.87646	0.8212	-0.007
Mof_H 	H 	0.6436	0.8895	0.789	0.008
Mof_H 	H 	0.3957	0.8872	0.951	0.305
Mof_N 	N 	0.97082	0.5894	0.31965	-0.226
Mof_C 	C 	0.89871	0.62354	0.3212	-0.016
Mof_H 	H 	0.8564	0.6105	0.289	-0.01
Mof_H 	H 	0.1043	0.6128	0.451	0.131
Mof_N 	N 	0.47082	0.0894	0.81965	-0.342
Mof_C 	C 	0.39871	0.12354	0.8212	-0.031
Mof_H 	H 	0.3564	0.1105	0.789	-0.023
Mof_H 	H 	0.6043	0.1128	0.951	0.239
Mof_N 	N 	0.97082	0.4106	0.68035	-0.225
Mof_C 	C 	0.89871	0.37646	0.6788	-0.014
Mof_H 	H 	0.8564	0.3895	0.711	-0.01
Mof_H 	H 	0.1043	0.3872	0.549	0.133
Mof_N 	N 	0.47082	0.9106	0.18035	-0.305
Mof_C 	C 	0.39871	0.87646	0.1788	-0.014
Mof_H 	H 	0.3564	0.8895	0.211	-0.004
Mof_H 	H 	0.6043	0.8872	0.049	0.202
Mof_N 	N 	0.02918	0.5894	0.68035	-0.419
Mof_C 	C 	0.10129	0.62354	0.6788	-0.025
Mof_H 	H 	0.1436	0.6105	0.711	-0.011
Mof_H 	H 	0.8957	0.6128	0.549	0.296
Mof_N 	N 	0.52918	0.0894	0.18035	-0.331
Mof_C 	C 	0.60129	0.12354	0.1788	-0.034
Mof_H 	H 	0.6436	0.1105	0.211	-0.025
Mof_H 	H 	0.3957	0.1128	0.049	0.112
Mof_N 	N 	0.31965	0.02918	0.4106	-0.42
Mof_C 	C 	0.3212	0.10129	0.37646	-0.029
Mof_H 	H 	0.289	0.1436	0.3895	-0.012
Mof_H 	H 	0.451	0.8957	0.3872	0.296
Mof_N 	N 	0.81965	0.52918	0.9106	-0.312
Mof_C 	C 	0.8212	0.60129	0.87646	-0.006
Mof_H 	H 	0.789	0.6436	0.8895	0.009
Mof_H 	H 	0.951	0.3957	0.8872	0.306
Mof_N 	N 	0.31965	0.97082	0.5894	-0.225
Mof_C 	C 	0.3212	0.89871	0.62354	-0.015
Mof_H 	H 	0.289	0.8564	0.6105	-0.009
Mof_H 	H 	0.451	0.1043	0.6128	0.132
Mof_N 	N 	0.81965	0.47082	0.0894	-0.341
Mof_C 	C 	0.8212	0.39871	0.12354	-0.03
Mof_H 	H 	0.789	0.3564	0.1105	-0.022
Mof_H 	H 	0.951	0.6043	0.1128	0.239
Mof_N 	N 	0.68035	0.97082	0.4106	-0.225
Mof_C 	C 	0.6788	0.89871	0.37646	-0.014
Mof_H 	H 	0.711	0.8564	0.3895	-0.01
Mof_H 	H 	0.549	0.1043	0.3872	0.133
Mof_N 	N 	0.18035	0.47082	0.9106	-0.305
Mof_C 	C 	0.1788	0.39871	0.87646	-0.014
Mof_H 	H 	0.211	0.3564	0.8895	-0.004
Mof_H 	H 	0.049	0.6043	0.8872	0.202
Mof_N 	N 	0.68035	0.02918	0.5894	-0.419
Mof_C 	C 	0.6788	0.10129	0.62354	-0.025
Mof_H 	H 	0.711	0.1436	0.6105	-0.011
Mof_H 	H 	0.549	0.8957	0.6128	0.296
Mof_N 	N 	0.18035	0.52918	0.0894	-0.331
Mof_C 	C 	0.1788	0.60129	0.12354	-0.034
Mof_H 	H 	0.211	0.6436	0.1105	-0.025
Mof_H 	H 	0.049	0.3957	0.1128	0.112
Mof_N 	N 	0.4106	0.31965	0.02918	-0.42
Mof_C 	C 	0.37646	0.3212	0.10129	-0.029
Mof_H 	H 	0.3895	0.289	0.1436	-0.012
Mof_H 	H 	0.3872	0.451	0.8957	0.296
Mof_N 	N 	0.9106	0.81965	0.52918	-0.312
Mof_C 	C 	0.87646	0.8212	0.60129	-0.006
Mof_H 	H 	0.8895	0.789	0.6436	0.009
Mof_H 	H 	0.8872	0.951	0.3957	0.306
Mof_N 	N 	0.5894	0.31965	0.97082	-0.225
Mof_C 	C 	0.62354	0.3212	0.89871	-0.015
Mof_H 	H 	0.6105	0.289	0.8564	-0.009
Mof_H 	H 	0.6128	0.451	0.1043	0.132
Mof_N 	N 	0.0894	0.81965	0.47082	-0.341
Mof_C 	C 	0.12354	0.8212	0.39871	-0.03
Mof_H 	H 	0.1105	0.789	0.3564	-0.022
Mof_H 	H 	0.1128	0.951	0.6043	0.239
Mof_N 	N 	0.4106	0.68035	0.97082	-0.225
Mof_C 	C 	0.37646	0.6788	0.89871	-0.014
Mof_H 	H 	0.3895	0.711	0.8564	-0.01
Mof_H 	H 	0.3872	0.549	0.1043	0.133
Mof_N 	N 	0.9106	0.18035	0.47082	-0.305
Mof_C 	C 	0.87646	0.1788	0.39871	-0.014
Mof_H 	H 	0.8895	0.211	0.3564	-0.004
Mof_H 	H 	0.8872	0.049	0.6043	0.202
Mof_N 	N 	0.5894	0.68035	0.02918	-0.419
Mof_C 	C 	0.62354	0.6788	0.10129	-0.025
Mof_H 	H 	0.6105	0.711	0.1436	-0.011
Mof_H 	H 	0.6128	0.549	0.8957	0.296
Mof_N 	N 	0.0894	0.18035	0.52918	-0.331
Mof_C 	C 	0.12354	0.1788	0.60129	-0.034
Mof_H 	H 	0.1105	0.211	0.6436	-0.025
Mof_H 	H 	0.1128	0.049	0.3957	0.112
Mof_N 	N 	0.4106	0.02918	0.31965	-0.42
Mof_C 	C 	0.37646	0.10129	0.3212	-0.029
Mof_H 	H 	0.3895	0.1436	0.289	-0.012
Mof_H 	H 	0.3872	0.8957	0.451	0.296
Mof_N 	N 	0.9106	0.52918	0.81965	-0.312
Mof_C 	C 	0.87646	0.60129	0.8212	-0.006
Mof_H 	H 	0.8895	0.6436	0.789	0.009
Mof_H 	H 	0.8872	0.3957	0.951	0.306
Mof_N 	N 	0.5894	0.97082	0.31965	-0.225
Mof_C 	C 	0.62354	0.89871	0.3212	-0.015
Mof_H 	H 	0.6105	0.8564	0.289	-0.009
Mof_H 	H 	0.6128	0.1043	0.451	0.132
Mof_N 	N 	0.0894	0.47082	0.81965	-0.341
Mof_C 	C 	0.12354	0.39871	0.8212	-0.03
Mof_H 	H 	0.1105	0.3564	0.789	-0.022
Mof_H 	H 	0.1128	0.6043	0.951	0.239
Mof_N 	N 	0.4106	0.97082	0.68035	-0.225
Mof_C 	C 	0.37646	0.89871	0.6788	-0.014
Mof_H 	H 	0.3895	0.8564	0.711	-0.01
Mof_H 	H 	0.3872	0.1043	0.549	0.133
Mof_N 	N 	0.9106	0.47082	0.18035	-0.305
Mof_C 	C 	0.87646	0.39871	0.1788	-0.014
Mof_H 	H 	0.8895	0.3564	0.211	-0.004
Mof_H 	H 	0.8872	0.6043	0.049	0.202
Mof_N 	N 	0.5894	0.02918	0.68035	-0.419
Mof_C 	C 	0.62354	0.10129	0.6788	-0.025
Mof_H 	H 	0.6105	0.1436	0.711	-0.011
Mof_H 	H 	0.6128	0.8957	0.549	0.296
Mof_N 	N 	0.0894	0.52918	0.18035	-0.331
Mof_C 	C 	0.12354	0.60129	0.1788	-0.034
Mof_H 	H 	0.1105	0.6436	0.211	-0.025
Mof_H 	H 	0.1128	0.3957	0.049	0.112
Mof_N 	N 	0.02918	0.31965	0.4106	-0.42
Mof_C 	C 	0.10129	0.3212	0.37646	-0.029
Mof_H 	H 	0.1436	0.289	0.3895	-0.012
Mof_H 	H 	0.8957	0.451	0.3872	0.296
Mof_N 	N 	0.52918	0.81965	0.9106	-0.312
Mof_C 	C 	0.60129	0.8212	0.87646	-0.006
Mof_H 	H 	0.6436	0.789	0.8895	0.009
Mof_H 	H 	0.3957	0.951	0.8872	0.306
Mof_N 	N 	0.97082	0.31965	0.5894	-0.225
Mof_C 	C 	0.89871	0.3212	0.62354	-0.015
Mof_H 	H 	0.8564	0.289	0.6105	-0.009
Mof_H 	H 	0.1043	0.451	0.6128	0.132
Mof_N 	N 	0.47082	0.81965	0.0894	-0.341
Mof_C 	C 	0.39871	0.8212	0.12354	-0.03
Mof_H 	H 	0.3564	0.789	0.1105	-0.022
Mof_H 	H 	0.6043	0.951	0.1128	0.239
Mof_N 	N 	0.97082	0.68035	0.4106	-0.225
Mof_C 	C 	0.89871	0.6788	0.37646	-0.014
Mof_H 	H 	0.8564	0.711	0.3895	-0.01
Mof_H 	H 	0.1043	0.549	0.3872	0.133
Mof_N 	N 	0.47082	0.18035	0.9106	-0.305
Mof_C 	C 	0.39871	0.1788	0.87646	-0.014
Mof_H 	H 	0.3564	0.211	0.8895	-0.004
Mof_H 	H 	0.6043	0.049	0.8872	0.202
Mof_N 	N 	0.02918	0.68035	0.5894	-0.419
Mof_C 	C 	0.10129	0.6788	0.62354	-0.025
Mof_H 	H 	0.1436	0.711	0.6105	-0.011
Mof_H 	H 	0.8957	0.549	0.6128	0.296
Mof_N 	N 	0.52918	0.18035	0.0894	-0.331
Mof_C 	C 	0.60129	0.1788	0.12354	-0.034
Mof_H 	H 	0.6436	0.211	0.1105	-0.025
Mof_H 	H 	0.3957	0.049	0.1128	0.112
Mof_N 	N 	0.31965	0.4106	0.02918	-0.42
Mof_C 	C 	0.3212	0.37646	0.10129	-0.029
Mof_H 	H 	0.289	0.3895	0.1436	-0.012
Mof_H 	H 	0.451	0.3872	0.8957	0.296
Mof_N 	N 	0.81965	0.9106	0.52918	-0.312
Mof_C 	C 	0.8212	0.87646	0.60129	-0.006
Mof_H 	H 	0.789	0.8895	0.6436	0.009
Mof_H 	H 	0.951	0.8872	0.3957	0.306
Mof_N 	N 	0.31965	0.5894	0.97082	-0.225
Mof_C 	C 	0.3212	0.62354	0.89871	-0.015
Mof_H 	H 	0.289	0.6105	0.8564	-0.009
Mof_H 	H 	0.451	0.6128	0.1043	0.132
Mof_N 	N 	0.81965	0.0894	0.47082	-0.341
Mof_C 	C 	0.8212	0.12354	0.39871	-0.03
Mof_H 	H 	0.789	0.1105	0.3564	-0.022
Mof_H 	H 	0.951	0.1128	0.6043	0.239
Mof_N 	N 	0.68035	0.4106	0.97082	-0.225
Mof_C 	C 	0.6788	0.37646	0.89871	-0.014
Mof_H 	H 	0.711	0.3895	0.8564	-0.01
Mof_H 	H 	0.549	0.3872	0.1043	0.133
Mof_N 	N 	0.18035	0.9106	0.47082	-0.305
Mof_C 	C 	0.1788	0.87646	0.39871	-0.014
Mof_H 	H 	0.211	0.8895	0.3564	-0.004
Mof_H 	H 	0.049	0.8872	0.6043	0.202
Mof_N 	N 	0.68035	0.5894	0.02918	-0.419
Mof_C 	C 	0.6788	0.62354	0.10129	-0.025
Mof_H 	H 	0.711	0.6105	0.1436	-0.011
Mof_H 	H 	0.549	0.6128	0.8957	0.296
Mof_N 	N 	0.18035	0.0894	0.52918	-0.331
Mof_C 	C 	0.1788	0.12354	0.60129	-0.034
Mof_H 	H 	0.211	0.1105	0.6436	-0.025
Mof_H 	H 	0.049	0.1128	0.3957	0.112
Mof_Zn	Zn	9.3735e-34	0.5	0.25	1.137
Mof_Zn	Zn	-2.33896e-33	0.5	0.75	1.138
Mof_Zn	Zn	0.5	0	0.25	1.137
Mof_Zn	Zn	0.25	0	0.5	1.137
Mof_Zn	Zn	0.75	0	0.5	1.138
Mof_Zn	Zn	0.25	0.5	-0	1.137
Mof_Zn	Zn	0.5	0.25	-0	1.137
Mof_Zn	Zn	0.5	0.75	-0	1.138
Mof_Zn	Zn	1.8747e-33	0.25	0.5	1.137
Mof_Zn	Zn	0.5	0	0.75	1.138
Mof_Zn	Zn	-3.27631e-33	0.75	0.5	1.138
Mof_Zn	Zn	0.75	0.5	-0	1.138
Mof_C 	C 	0.9869	0.3755	0.3755	0.503
Mof_C 	C 	0.9042	0.3957	0.3957	-1.028
Mof_H 	H 	0.8679	0.3651	0.3651	0.306
Mof_C 	C 	0.4869	0.8755	0.8755	0.336
Mof_C 	C 	0.4042	0.8957	0.8957	-0.946
Mof_H 	H 	0.3679	0.8651	0.8651	0.293
Mof_C 	C 	0.0131	0.6245	0.3755	0.03
Mof_C 	C 	0.0958	0.6043	0.3957	-0.548
Mof_H 	H 	0.1321	0.6349	0.3651	0.156
Mof_C 	C 	0.5131	0.1245	0.8755	0.27
Mof_C 	C 	0.5958	0.1043	0.8957	-0.8
Mof_H 	H 	0.6321	0.1349	0.8651	0.238
Mof_C 	C 	0.0131	0.3755	0.6245	0.03
Mof_C 	C 	0.0958	0.3957	0.6043	-0.548
Mof_H 	H 	0.1321	0.3651	0.6349	0.156
Mof_C 	C 	0.5131	0.8755	0.1245	0.27
Mof_C 	C 	0.5958	0.8957	0.1043	-0.8
Mof_H 	H 	0.6321	0.8651	0.1349	0.238
Mof_C 	C 	0.9869	0.6245	0.6245	0.507
Mof_C 	C 	0.9042	0.6043	0.6043	-1.031
Mof_H 	H 	0.8679	0.6349	0.6349	0.308
Mof_C 	C 	0.4869	0.1245	0.1245	0.193
Mof_C 	C 	0.4042	0.1043	0.1043	-0.61
Mof_H 	H 	0.3679	0.1349	0.1349	0.158
Mof_C 	C 	0.3755	0.9869	0.3755	0.503
Mof_C 	C 	0.3957	0.9042	0.3957	-1.028
Mof_H 	H 	0.3651	0.8679	0.3651	0.306
Mof_C 	C 	0.8755	0.4869	0.8755	0.336
Mof_C 	C 	0.8957	0.4042	0.8957	-0.946
Mof_H 	H 	0.8651	0.3679	0.8651	0.293
Mof_C 	C 	0.3755	0.0131	0.6245	0.03
Mof_C 	C 	0.3957	0.0958	0.6043	-0.548
Mof_H 	H 	0.3651	0.1321	0.6349	0.156
Mof_C 	C 	0.8755	0.5131	0.1245	0.27
Mof_C 	C 	0.8957	0.5958	0.1043	-0.8
Mof_H 	H 	0.8651	0.6321	0.1349	0.238
Mof_C 	C 	0.6245	0.0131	0.3755	0.03
Mof_C 	C 	0.6043	0.0958	0.3957	-0.548
Mof_H 	H 	0.6349	0.1321	0.3651	0.156
Mof_C 	C 	0.1245	0.5131	0.8755	0.27
Mof_C 	C 	0.1043	0.5958	0.8957	-0.8
Mof_H 	H 	0.1349	0.6321	0.8651	0.238
Mof_C 	C 	0.6245	0.9869	0.6245	0.507
Mof_C 	C 	0.6043	0.9042	0.6043	-1.031
Mof_H 	H 	0.6349	0.8679	0.6349	0.308
Mof_C 	C 	0.1245	0.4869	0.1245	0.193
Mof_C 	C 	0.1043	0.4042	0.1043	-0.61
Mof_H 	H 	0.1349	0.3679	0.1349	0.158
Mof_C 	C 	0.3755	0.3755	0.9869	0.503
Mof_C 	C 	0.3957	0.3957	0.9042	-1.028
Mof_H 	H 	0.3651	0.3651	0.8679	0.306
Mof_C 	C 	0.8755	0.8755	0.4869	0.336
Mof_C 	C 	0.8957	0.8957	0.4042	-0.946
Mof_H 	H 	0.8651	0.8651	0.3679	0.293
Mof_C 	C 	0.6245	0.3755	0.0131	0.03
Mof_C 	C 	0.6043	0.3957	0.0958	-0.548
Mof_H 	H 	0.6349	0.3651	0.1321	0.156
Mof_C 	C 	0.1245	0.8755	0.5131	0.27
Mof_C 	C 	0.1043	0.8957	0.5958	-0.8
Mof_H 	H 	0.1349	0.8651	0.6321	0.238
Mof_C 	C 	0.3755	0.6245	0.0131	0.03
Mof_C 	C 	0.3957	0.6043	0.0958	-0.548
Mof_H 	H 	0.3651	0.6349	0.1321	0.156
Mof_C 	C 	0.8755	0.1245	0.5131	0.27
Mof_C 	C 	0.8957	0.1043	0.5958	-0.8
Mof_H 	H 	0.8651	0.1349	0.6321	0.238
Mof_C 	C 	0.6245	0.6245	0.9869	0.507
Mof_C 	C 	0.6043	0.6043	0.9042	-1.031
Mof_H 	H 	0.6349	0.6349	0.8679	0.308
Mof_C 	C 	0.1245	0.1245	0.4869	0.193
Mof_C 	C 	0.1043	0.1043	0.4042	-0.61
Mof_H 	H 	0.1349	0.1349	0.3679	0.158
_end
