data_functionalizedCrystal
_audit_creation_method	'EQeq! by Chris Wilmer'
_symmetry_space_group_name_H-M	'P1'
_symmetry_Int_Tables_number	1
_symmetry_cell_setting	triclinic
loop_
_symmetry_equiv_pos_as_xyz
  x,y,z
_cell_length_a	15.2265
_cell_length_b	15.2265
_cell_length_c	18.5799
_cell_angle_alpha	76.1765
_cell_angle_beta	76.1765
_cell_angle_gamma	68.3777
loop_
_atom_site_label
_atom_site_type_symbol
_atom_site_fract_x
_atom_site_fract_y
_atom_site_fract_z
_atom_site_charge
Mof_Y 	Y 	0.46193	0.54357	0.1046	1.604
Mof_Y 	Y 	0.45643	0.53807	0.3954	1.604
Mof_Y 	Y 	0.53807	0.45643	0.8954	1.603
Mof_Y 	Y 	0.54357	0.46193	0.6046	1.603
Mof_C 	C 	0.4766	0.9122	0.8074	-0.073
Mof_C 	C 	0.4689	0.9639	0.8611	0.028
Mof_C 	C 	0.465	0.0662	0.8417	0.023
Mof_C 	C 	0.5152	0.0976	0.7702	-0.074
Mof_C 	C 	0.5153	0.1905	0.7525	0.048
Mof_C 	C 	0.4736	0.2532	0.8036	-0.169
Mof_C 	C 	0.425	0.2218	0.8726	0.046
Mof_C 	C 	0.4208	0.1302	0.8903	-0.076
Mof_C 	C 	0.48251	0.35111	0.785	0.474
Mof_C 	C 	0.9543	0.4955	0.0003	0.023
Mof_C 	C 	0.8768	0.519	0.0585	-0.068
Mof_C 	C 	0.7899	0.5093	0.0582	0.043
Mof_C 	C 	0.7758	0.475	0.0021	-0.146
Mof_C 	C 	0.8547	0.4449	0.946	0.041
Mof_C 	C 	0.9398	0.4566	0.9452	-0.068
Mof_C 	C 	0.6805	0.4687	0.0002	0.453
Mof_C 	C 	0.4666	0.9178	0.935	-0.078
Mof_C 	C 	0.4707	0.8235	0.9549	0.051
Mof_C 	C 	0.4809	0.7697	0.9007	-0.165
Mof_C 	C 	0.4819	0.8161	0.8253	0.047
Mof_C 	C 	0.5089	0.3323	0.0796	0.463
Mof_C 	C 	0.0878	0.5234	0.6926	-0.072
Mof_C 	C 	0.0361	0.5311	0.6389	0.028
Mof_C 	C 	0.9338	0.535	0.6583	0.024
Mof_C 	C 	0.9024	0.4848	0.7298	-0.075
Mof_C 	C 	0.8095	0.4847	0.7475	0.048
Mof_C 	C 	0.7468	0.5264	0.6964	-0.169
Mof_C 	C 	0.7782	0.575	0.6274	0.046
Mof_C 	C 	0.8698	0.5792	0.6097	-0.076
Mof_C 	C 	0.64889	0.51749	0.715	0.474
Mof_C 	C 	0.5045	0.0457	0.4997	0.023
Mof_C 	C 	0.481	0.1232	0.4415	-0.068
Mof_C 	C 	0.4907	0.2101	0.4418	0.043
Mof_C 	C 	0.525	0.2242	0.4979	-0.146
Mof_C 	C 	0.5551	0.1453	0.554	0.042
Mof_C 	C 	0.5434	0.0602	0.5548	-0.069
Mof_C 	C 	0.5313	0.3195	0.4998	0.453
Mof_C 	C 	0.0822	0.5334	0.565	-0.078
Mof_C 	C 	0.1765	0.5293	0.5451	0.051
Mof_C 	C 	0.2303	0.5191	0.5993	-0.165
Mof_C 	C 	0.1839	0.5181	0.6747	0.047
Mof_C 	C 	0.6677	0.4911	0.4204	0.463
Mof_C 	C 	0.5234	0.0878	0.1926	-0.073
Mof_C 	C 	0.5311	0.0361	0.1389	0.029
Mof_C 	C 	0.535	0.9338	0.1583	0.023
Mof_C 	C 	0.4848	0.9024	0.2298	-0.074
Mof_C 	C 	0.4847	0.8095	0.2475	0.048
Mof_C 	C 	0.5264	0.7468	0.1964	-0.169
Mof_C 	C 	0.575	0.7782	0.1274	0.046
Mof_C 	C 	0.5792	0.8698	0.1097	-0.076
Mof_C 	C 	0.51749	0.64889	0.215	0.474
Mof_C 	C 	0.0457	0.5045	0.9997	0.023
Mof_C 	C 	0.1232	0.481	0.9415	-0.068
Mof_C 	C 	0.2101	0.4907	0.9418	0.043
Mof_C 	C 	0.2242	0.525	0.9979	-0.146
Mof_C 	C 	0.1453	0.5551	0.054	0.041
Mof_C 	C 	0.0602	0.5434	0.0548	-0.068
Mof_C 	C 	0.3195	0.5313	0.9998	0.453
Mof_C 	C 	0.5334	0.0822	0.065	-0.078
Mof_C 	C 	0.5293	0.1765	0.0451	0.051
Mof_C 	C 	0.5191	0.2303	0.0993	-0.165
Mof_C 	C 	0.5181	0.1839	0.1747	0.047
Mof_C 	C 	0.4911	0.6677	0.9204	0.463
Mof_C 	C 	0.9122	0.4766	0.3074	-0.072
Mof_C 	C 	0.9639	0.4689	0.3611	0.028
Mof_C 	C 	0.0662	0.465	0.3417	0.024
Mof_C 	C 	0.0976	0.5152	0.2702	-0.074
Mof_C 	C 	0.1905	0.5153	0.2525	0.048
Mof_C 	C 	0.2532	0.4736	0.3036	-0.169
Mof_C 	C 	0.2218	0.425	0.3726	0.046
Mof_C 	C 	0.1302	0.4208	0.3903	-0.076
Mof_C 	C 	0.35111	0.48251	0.285	0.474
Mof_C 	C 	0.4955	0.9543	0.5003	0.023
Mof_C 	C 	0.519	0.8768	0.5585	-0.068
Mof_C 	C 	0.5093	0.7899	0.5582	0.043
Mof_C 	C 	0.475	0.7758	0.5021	-0.146
Mof_C 	C 	0.4449	0.8547	0.446	0.041
Mof_C 	C 	0.4566	0.9398	0.4452	-0.069
Mof_C 	C 	0.4687	0.6805	0.5002	0.453
Mof_C 	C 	0.9178	0.4666	0.435	-0.078
Mof_C 	C 	0.8235	0.4707	0.4549	0.051
Mof_C 	C 	0.7697	0.4809	0.4007	-0.165
Mof_C 	C 	0.8161	0.4819	0.3253	0.047
Mof_C 	C 	0.3323	0.5089	0.5796	0.463
Mof_O 	O 	0.49107	0.37927	0.1307	-0.437
Mof_O 	O 	0.51761	0.37761	0.7193	-0.488
Mof_O 	O 	0.62145	0.47645	0.0588	-0.455
Mof_O 	O 	0.46034	0.39754	0.8376	-0.47
Mof_O 	O 	0.48455	0.63015	0.9887	-0.499
Mof_O 	O 	0.66828	0.45568	0.9391	-0.461
Mof_O 	O 	0.62073	0.50893	0.3693	-0.437
Mof_O 	O 	0.62239	0.48239	0.7807	-0.488
Mof_O 	O 	0.52355	0.37855	0.4412	-0.455
Mof_O 	O 	0.60246	0.53966	0.6624	-0.47
Mof_O 	O 	0.36985	0.51545	0.5113	-0.499
Mof_O 	O 	0.54432	0.33172	0.5609	-0.461
Mof_O 	O 	0.50893	0.62073	0.8693	-0.437
Mof_O 	O 	0.48239	0.62239	0.2807	-0.488
Mof_O 	O 	0.37855	0.52355	0.9412	-0.455
Mof_O 	O 	0.53966	0.60246	0.1624	-0.47
Mof_O 	O 	0.51545	0.36985	0.0113	-0.499
Mof_O 	O 	0.33172	0.54432	0.0609	-0.461
Mof_O 	O 	0.37927	0.49107	0.6307	-0.437
Mof_O 	O 	0.37761	0.51761	0.2193	-0.488
Mof_O 	O 	0.47645	0.62145	0.5588	-0.455
Mof_O 	O 	0.39754	0.46034	0.3376	-0.47
Mof_O 	O 	0.63015	0.48455	0.4887	-0.499
Mof_O 	O 	0.45568	0.66828	0.4391	-0.461
Mof_H 	H 	0.47886	0.94753	0.74584	0.042
Mof_H 	H 	0.55448	0.04565	0.72872	0.041
Mof_H 	H 	0.55041	0.21782	0.69434	0.021
Mof_H 	H 	0.38789	0.27219	0.91546	0.021
Mof_H 	H 	0.37964	0.10607	0.94676	0.043
Mof_H 	H 	0.88424	0.54688	0.10772	0.04
Mof_H 	H 	0.72751	0.53031	0.1059	0.037
Mof_H 	H 	0.8484	0.4102	0.90031	0.021
Mof_H 	H 	0.00258	0.43414	0.89807	0.038
Mof_H 	H 	0.46118	0.95801	0.98123	0.042
Mof_H 	H 	0.46572	0.78839	0.01656	0.006
Mof_H 	H 	0.487	0.77522	0.77961	0.031
Mof_H 	H 	0.05247	0.52114	0.75416	0.042
Mof_H 	H 	0.95435	0.44552	0.77128	0.041
Mof_H 	H 	0.78218	0.44959	0.80566	0.021
Mof_H 	H 	0.72781	0.61211	0.58454	0.021
Mof_H 	H 	0.89174	0.62092	0.5528	0.043
Mof_H 	H 	0.45312	0.11576	0.39228	0.04
Mof_H 	H 	0.46969	0.27249	0.3941	0.037
Mof_H 	H 	0.5898	0.1516	0.59969	0.021
Mof_H 	H 	0.56586	0.99742	0.60193	0.038
Mof_H 	H 	0.04199	0.53882	0.51877	0.041
Mof_H 	H 	0.21161	0.53428	0.48344	0.007
Mof_H 	H 	0.22403	0.51303	0.72088	0.031
Mof_H 	H 	0.52114	0.05247	0.25416	0.042
Mof_H 	H 	0.44552	0.95435	0.27128	0.04
Mof_H 	H 	0.44959	0.78218	0.30566	0.021
Mof_H 	H 	0.61211	0.72781	0.08454	0.021
Mof_H 	H 	0.62036	0.89393	0.05324	0.043
Mof_H 	H 	0.11576	0.45312	0.89228	0.04
Mof_H 	H 	0.27249	0.46969	0.8941	0.037
Mof_H 	H 	0.1516	0.5898	0.09969	0.021
Mof_H 	H 	0.99969	0.567	0.10315	0.038
Mof_H 	H 	0.53882	0.04199	0.01877	0.042
Mof_H 	H 	0.53428	0.21161	0.98344	0.006
Mof_H 	H 	0.51303	0.22403	0.22088	0.031
Mof_H 	H 	0.94753	0.47886	0.24584	0.042
Mof_H 	H 	0.04565	0.55448	0.22872	0.041
Mof_H 	H 	0.21782	0.55041	0.19434	0.021
Mof_H 	H 	0.27219	0.38789	0.41546	0.021
Mof_H 	H 	0.10826	0.37908	0.4472	0.043
Mof_H 	H 	0.54688	0.88424	0.60772	0.04
Mof_H 	H 	0.53031	0.72751	0.6059	0.037
Mof_H 	H 	0.4102	0.8484	0.40031	0.021
Mof_H 	H 	0.433	0.00031	0.39685	0.038
Mof_H 	H 	0.95801	0.46118	0.48123	0.041
Mof_H 	H 	0.78839	0.46572	0.51656	0.007
Mof_H 	H 	0.77597	0.48697	0.27912	0.031
_end
