data_functionalizedCrystal
_audit_creation_method	'EQeq! by Chris Wilmer'
_symmetry_space_group_name_H-M	'P1'
_symmetry_Int_Tables_number	1
_symmetry_cell_setting	triclinic
loop_
_symmetry_equiv_pos_as_xyz
  x,y,z
_cell_length_a	8.7809
_cell_length_b	28.2333
_cell_length_c	11.3833
_cell_angle_alpha	90
_cell_angle_beta	90
_cell_angle_gamma	90
loop_
_atom_site_label
_atom_site_type_symbol
_atom_site_fract_x
_atom_site_fract_y
_atom_site_fract_z
_atom_site_charge
Mof_Cd	Cd	0.68336	0.38328	0.50028	0.55
Mof_Cd	Cd	0.31656	0.61673	0.49958	0.55
Mof_Cd	Cd	0.18345	0.11675	0.99937	0.535
Mof_Cd	Cd	0.81664	0.88328	0.99937	0.54
Mof_Cd	Cd	0.50004	0.5	0.49995	0.501
Mof_Cd	Cd	0.00039	4e-05	0.99933	0.468
Mof_H 	H 	0.51861	0.34438	0.2539	0.019
Mof_H 	H 	0.29021	0.47513	0.25794	0.03
Mof_H 	H 	0.83393	0.43974	0.18431	0.045
Mof_H 	H 	0.18122	0.32545	0.19224	0.094
Mof_H 	H 	0.35273	0.31408	0.11193	0.084
Mof_H 	H 	0.14994	0.45568	0.10761	0.093
Mof_H 	H 	0.06747	0.40866	0.1912	0.109
Mof_H 	H 	0.93226	0.34246	0.07952	0.098
Mof_H 	H 	0.48213	0.65559	0.25392	0.019
Mof_H 	H 	0.71178	0.52505	0.25878	0.031
Mof_H 	H 	0.1664	0.56024	0.18347	0.039
Mof_H 	H 	0.81974	0.67464	0.19189	0.094
Mof_H 	H 	0.64782	0.68594	0.11205	0.078
Mof_H 	H 	0.8505	0.54435	0.10735	0.09
Mof_H 	H 	0.93345	0.59137	0.19067	0.112
Mof_H 	H 	0.06801	0.65755	0.07856	0.095
Mof_H 	H 	0.01875	0.1555	0.24578	0.009
Mof_H 	H 	0.78963	0.02487	0.24117	0.03
Mof_H 	H 	0.33371	0.06014	0.31571	0.043
Mof_H 	H 	0.68101	0.17448	0.30714	0.096
Mof_H 	H 	0.85264	0.18588	0.38727	0.079
Mof_H 	H 	0.64991	0.04428	0.39212	0.087
Mof_H 	H 	0.56726	0.09123	0.30847	0.112
Mof_H 	H 	0.43226	0.15753	0.42008	0.09
Mof_H 	H 	0.98097	0.84457	0.24588	0.032
Mof_H 	H 	0.21073	0.97509	0.24095	0.035
Mof_H 	H 	0.66623	0.93988	0.31572	0.047
Mof_H 	H 	0.31889	0.82558	0.30697	0.096
Mof_H 	H 	0.1473	0.81414	0.38712	0.076
Mof_H 	H 	0.34996	0.95575	0.39221	0.092
Mof_H 	H 	0.43263	0.90882	0.30845	0.113
Mof_H 	H 	0.5677	0.8425	0.41992	0.091
Mof_H 	H 	0.48131	0.65559	0.74608	0.017
Mof_H 	H 	0.70972	0.52484	0.742	0.031
Mof_H 	H 	0.16612	0.56027	0.81568	0.042
Mof_H 	H 	0.81867	0.67448	0.80757	0.095
Mof_H 	H 	0.64719	0.68588	0.8879	0.072
Mof_H 	H 	0.85003	0.54429	0.8924	0.086
Mof_H 	H 	0.93247	0.59129	0.80874	0.114
Mof_H 	H 	0.06771	0.65752	0.92032	0.082
Mof_H 	H 	0.51787	0.34443	0.74605	0.017
Mof_H 	H 	0.28829	0.47498	0.74119	0.029
Mof_H 	H 	0.83353	0.43976	0.81652	0.048
Mof_H 	H 	0.18028	0.32542	0.80791	0.095
Mof_H 	H 	0.35215	0.31409	0.88779	0.078
Mof_H 	H 	0.14952	0.45568	0.89267	0.089
Mof_H 	H 	0.06657	0.40868	0.80927	0.111
Mof_H 	H 	0.93192	0.34248	0.92129	0.086
Mof_H 	H 	0.98243	0.84422	0.75385	0.03
Mof_H 	H 	0.21093	0.97496	0.75778	0.033
Mof_H 	H 	0.666	0.93964	0.6835	0.045
Mof_H 	H 	0.31934	0.82527	0.69129	0.093
Mof_H 	H 	0.14753	0.81401	0.61125	0.075
Mof_H 	H 	0.35035	0.95558	0.6071	0.091
Mof_H 	H 	0.4331	0.9085	0.69036	0.112
Mof_H 	H 	0.56785	0.84241	0.57816	0.091
Mof_H 	H 	0.01743	0.15577	0.75386	0.005
Mof_H 	H 	0.78948	0.02494	0.75761	0.028
Mof_H 	H 	0.33388	0.06036	0.6835	0.042
Mof_H 	H 	0.68069	0.17466	0.69146	0.093
Mof_H 	H 	0.85245	0.18595	0.6114	0.078
Mof_H 	H 	0.64959	0.04439	0.60709	0.087
Mof_H 	H 	0.56689	0.09146	0.69041	0.11
Mof_H 	H 	0.4321	0.15757	0.57832	0.089
Mof_H 	H 	0.32637	0.23215	0.99977	0.03
Mof_H 	H 	0.8637	0.26905	0.99999	-0.005
Mof_H 	H 	0.48413	0.38183	0.99954	0.084
Mof_H 	H 	0.40079	0.43991	0.99965	0.099
Mof_H 	H 	0.6735	0.76785	0.99935	0.027
Mof_H 	H 	0.13618	0.73096	0.99967	0.016
Mof_H 	H 	0.51584	0.61815	0.00045	0.087
Mof_H 	H 	0.59919	0.56009	0.00041	0.102
Mof_H 	H 	0.82657	0.26785	0.49952	0.032
Mof_H 	H 	0.36387	0.23097	0.49976	0.017
Mof_H 	H 	0.98418	0.11816	0.49968	0.088
Mof_H 	H 	0.90085	0.06009	0.49978	0.101
Mof_H 	H 	0.17345	0.73213	0.49901	0.03
Mof_H 	H 	0.63612	0.76904	0.4992	0.02
Mof_H 	H 	0.01575	0.88182	0.49969	0.083
Mof_H 	H 	0.09907	0.9399	0.49987	0.1
Mof_C 	C 	0.48078	0.37978	0.27543	0.105
Mof_C 	C 	0.36449	0.44579	0.27773	0.108
Mof_C 	C 	0.80449	0.44496	0.09325	0.084
Mof_C 	C 	0.24551	0.335	0.11144	-0.194
Mof_C 	C 	0.28279	0.38948	0.11208	0.185
Mof_C 	C 	0.13001	0.41696	0.10947	-0.211
Mof_C 	C 	0.52047	0.62028	0.27578	0.104
Mof_C 	C 	0.63738	0.55438	0.27851	0.107
Mof_C 	C 	0.19566	0.55503	0.09236	0.095
Mof_C 	C 	0.75507	0.66504	0.11131	-0.168
Mof_C 	C 	0.7179	0.61057	0.11223	0.16
Mof_C 	C 	0.87053	0.58307	0.10913	-0.187
Mof_C 	C 	0.98071	0.12013	0.22408	0.124
Mof_C 	C 	0.86408	0.05419	0.22149	0.109
Mof_C 	C 	0.3044	0.05499	0.40682	0.077
Mof_C 	C 	0.74541	0.16496	0.38791	-0.187
Mof_C 	C 	0.78267	0.11048	0.38734	0.169
Mof_C 	C 	0.62992	0.08299	0.39017	-0.205
Mof_C 	C 	0.01919	0.87991	0.22411	0.086
Mof_C 	C 	0.13616	0.94579	0.22134	0.108
Mof_C 	C 	0.69554	0.94502	0.40683	0.082
Mof_C 	C 	0.25453	0.83506	0.38778	-0.186
Mof_C 	C 	0.21726	0.88953	0.38733	0.167
Mof_C 	C 	0.36999	0.91704	0.39018	-0.205
Mof_C 	C 	0.51914	0.62019	0.72454	0.103
Mof_C 	C 	0.63542	0.55418	0.72222	0.106
Mof_C 	C 	0.19553	0.55505	0.90675	0.075
Mof_C 	C 	0.75441	0.66496	0.88841	-0.179
Mof_C 	C 	0.71715	0.61049	0.88787	0.151
Mof_C 	C 	0.86994	0.58301	0.89049	-0.199
Mof_C 	C 	0.47954	0.37974	0.72418	0.104
Mof_C 	C 	0.36267	0.44565	0.72145	0.106
Mof_C 	C 	0.80429	0.44497	0.90763	0.066
Mof_C 	C 	0.2449	0.33499	0.88853	-0.206
Mof_C 	C 	0.28211	0.38946	0.88772	0.176
Mof_C 	C 	0.12947	0.41696	0.89083	-0.224
Mof_C 	C 	0.02046	0.8796	0.77546	0.082
Mof_C 	C 	0.13684	0.94559	0.77774	0.106
Mof_C 	C 	0.69541	0.94491	0.59244	0.082
Mof_C 	C 	0.2548	0.83491	0.61068	-0.186
Mof_C 	C 	0.21764	0.88937	0.61168	0.166
Mof_C 	C 	0.37031	0.91686	0.60879	-0.205
Mof_C 	C 	0.97963	0.12037	0.77538	0.124
Mof_C 	C 	0.86356	0.05432	0.77755	0.106
Mof_C 	C 	0.3045	0.05509	0.59243	0.077
Mof_C 	C 	0.74519	0.16505	0.61081	-0.187
Mof_C 	C 	0.78235	0.11058	0.61169	0.169
Mof_C 	C 	0.62966	0.08311	0.60882	-0.204
Mof_C 	C 	0.20322	0.23087	0.99996	0.077
Mof_C 	C 	0.97007	0.24982	2e-05	0.139
Mof_C 	C 	0.15047	0.32124	0.00011	0.176
Mof_C 	C 	0.03432	0.40442	0.00027	0.189
Mof_C 	C 	0.00121	0.35113	0.00032	-0.198
Mof_C 	C 	0.37431	0.40155	0.99972	-0.216
Mof_C 	C 	0.79665	0.76914	0.99952	0.095
Mof_C 	C 	0.0298	0.75019	0.99963	0.078
Mof_C 	C 	0.84946	0.67876	0.99968	0.14
Mof_C 	C 	0.96566	0.59558	0.99966	0.163
Mof_C 	C 	0.99874	0.64888	0.99952	-0.187
Mof_C 	C 	0.62566	0.59844	0.00027	-0.176
Mof_C 	C 	0.70342	0.26914	0.49945	0.098
Mof_C 	C 	0.47025	0.2502	0.49961	0.091
Mof_C 	C 	0.65059	0.17876	0.4993	0.157
Mof_C 	C 	0.53437	0.09559	0.49942	0.174
Mof_C 	C 	0.5013	0.14889	0.49926	-0.193
Mof_C 	C 	0.87437	0.09844	0.49963	-0.197
Mof_C 	C 	0.2966	0.73085	0.49922	0.098
Mof_C 	C 	0.52975	0.74981	0.49923	0.092
Mof_C 	C 	0.34938	0.82123	0.49911	0.157
Mof_C 	C 	0.46557	0.9044	0.49938	0.176
Mof_C 	C 	0.49866	0.85111	0.49911	-0.194
Mof_C 	C 	0.12556	0.90154	0.49966	-0.195
Mof_N 	N 	0.53425	0.40502	0.367	-0.111
Mof_N 	N 	0.46199	0.44628	0.36878	-0.106
Mof_N 	N 	0.37142	0.4041	0.21756	-0.155
Mof_N 	N 	0.67643	0.46692	0.05862	-0.08
Mof_N 	N 	0.46709	0.59506	0.36737	-0.11
Mof_N 	N 	0.53967	0.55386	0.36943	-0.106
Mof_N 	N 	0.63005	0.59601	0.21811	-0.153
Mof_N 	N 	0.32364	0.53307	0.0576	-0.083
Mof_N 	N 	0.03412	0.09493	0.13245	-0.113
Mof_N 	N 	0.96172	0.0537	0.13051	-0.094
Mof_N 	N 	0.87117	0.09584	0.2818	-0.156
Mof_N 	N 	0.17643	0.03303	0.44165	-0.092
Mof_N 	N 	0.96597	0.90509	0.13237	-0.093
Mof_N 	N 	0.03859	0.94628	0.13032	-0.1
Mof_N 	N 	0.12878	0.90418	0.2818	-0.151
Mof_N 	N 	0.82352	0.96697	0.44168	-0.084
Mof_N 	N 	0.46571	0.59497	0.63292	-0.11
Mof_N 	N 	0.53797	0.55371	0.63114	-0.106
Mof_N 	N 	0.62846	0.59586	0.78242	-0.153
Mof_N 	N 	0.32357	0.53308	0.94139	-0.097
Mof_N 	N 	0.53288	0.40495	0.63255	-0.111
Mof_N 	N 	0.46035	0.44615	0.6305	-0.106
Mof_N 	N 	0.37	0.40403	0.78187	-0.155
Mof_N 	N 	0.67632	0.46693	0.94242	-0.094
Mof_N 	N 	0.96707	0.90485	0.86701	-0.099
Mof_N 	N 	0.03943	0.94609	0.86883	-0.108
Mof_N 	N 	0.1297	0.90392	0.71753	-0.151
Mof_N 	N 	0.82343	0.96689	0.55789	-0.084
Mof_N 	N 	0.03323	0.09511	0.86684	-0.121
Mof_N 	N 	0.96111	0.05383	0.86857	-0.1
Mof_N 	N 	0.87043	0.09602	0.71745	-0.157
Mof_N 	N 	0.17649	0.0331	0.55786	-0.093
Mof_N 	N 	0.12059	0.19016	0.99991	-0.115
Mof_N 	N 	0.97544	0.20228	0.9999	-0.098
Mof_N 	N 	0.11109	0.26957	0.0001	-0.154
Mof_N 	N 	0.8891	0.43107	0.00039	-0.142
Mof_N 	N 	0.87928	0.80985	0.99966	-0.109
Mof_N 	N 	0.02443	0.79772	0.99969	-0.093
Mof_N 	N 	0.8888	0.73043	0.99955	-0.147
Mof_N 	N 	0.11089	0.56894	0.99959	-0.166
Mof_N 	N 	0.6208	0.30985	0.49971	-0.111
Mof_N 	N 	0.47565	0.29773	0.49987	-0.087
Mof_N 	N 	0.61125	0.23044	0.4993	-0.153
Mof_N 	N 	0.38914	0.06895	0.49954	-0.153
Mof_N 	N 	0.37925	0.69014	0.49967	-0.111
Mof_N 	N 	0.52439	0.70227	0.49962	-0.086
Mof_N 	N 	0.38874	0.76956	0.499	-0.153
Mof_N 	N 	0.61078	0.93105	0.49953	-0.153
Mof_Cl	Cl	0.88904	0.37131	0.36599	-0.317
Mof_Cl	Cl	0.24501	0.5325	0.49901	-0.343
Mof_Cl	Cl	0.11256	0.62912	0.36408	-0.324
Mof_Cl	Cl	0.38819	0.12876	0.13442	-0.307
Mof_Cl	Cl	0.61204	0.87134	0.13458	-0.305
Mof_Cl	Cl	0.11113	0.62878	0.63405	-0.326
Mof_Cl	Cl	0.75513	0.46749	0.50097	-0.338
Mof_Cl	Cl	0.88716	0.37079	0.63597	-0.319
Mof_Cl	Cl	0.74536	0.96754	0.99829	-0.338
Mof_Cl	Cl	0.61185	0.87091	0.86452	-0.324
Mof_Cl	Cl	0.25538	0.03256	0.99854	-0.356
Mof_Cl	Cl	0.38808	0.12928	0.86441	-0.327
_end
