data_functionalizedCrystal
_audit_creation_method	'EQeq! by Chris Wilmer'
_symmetry_space_group_name_H-M	'P1'
_symmetry_Int_Tables_number	1
_symmetry_cell_setting	triclinic
loop_
_symmetry_equiv_pos_as_xyz
  x,y,z
_cell_length_a	13.4721
_cell_length_b	14.8138
_cell_length_c	13.4131
_cell_angle_alpha	90
_cell_angle_beta	99.142
_cell_angle_gamma	90
loop_
_atom_site_label
_atom_site_type_symbol
_atom_site_fract_x
_atom_site_fract_y
_atom_site_fract_z
_atom_site_charge
Mof_Sm	Sm	0.13798	0.43833	0.50818	2.268
Mof_O 	O 	0.9527	0.4386	0.5759	-0.638
Mof_O 	O 	0.0671	0.3354	0.6184	-0.537
Mof_O 	O 	0.0091	0.1311	0.8927	-0.578
Mof_O 	O 	0.86	0.0606	0.8754	-0.54
Mof_N 	N 	0.4198	0.2679	0.5536	-0.166
Mof_C 	C 	0.9792	0.364	0.6154	0.49
Mof_C 	C 	0.9064	0.3058	0.6579	-0.203
Mof_C 	C 	0.9425	0.2437	0.7326	0.116
Mof_H 	H 	0.0127	0.2396	0.7559	0.001
Mof_C 	C 	0.8768	0.1877	0.7733	-0.194
Mof_C 	C 	0.7738	0.1916	0.7368	0.057
Mof_H 	H 	0.7293	0.1513	0.7627	0.043
Mof_C 	C 	0.7359	0.2539	0.6628	-0.097
Mof_C 	C 	0.8033	0.3112	0.6232	0.081
Mof_H 	H 	0.7785	0.3538	0.5724	-0.002
Mof_C 	C 	0.6259	0.2587	0.6235	0.13
Mof_C 	C 	0.5571	0.2444	0.6868	-0.162
Mof_H 	H 	0.5792	0.2307	0.7559	0.121
Mof_C 	C 	0.4551	0.25	0.6499	0.12
Mof_H 	H 	0.4085	0.2406	0.6952	0.013
Mof_C 	C 	0.4859	0.2804	0.4944	0.11
Mof_H 	H 	0.4619	0.2928	0.4252	0.03
Mof_C 	C 	0.5885	0.2771	0.5247	-0.169
Mof_H 	H 	0.6329	0.2874	0.4775	0.11
Mof_C 	C 	0.9182	0.1205	0.8531	0.51
Mof_O 	O 	0.2798	0.4228	0.6575	-0.432
Mof_O 	O 	0.3134	0.4942	0.5229	-0.608
Mof_O 	O 	0.6948	0.504	0.5161	0.295
Mof_O 	O 	0.7913	0.545	0.6581	-0.679
Mof_C 	C 	0.3377	0.468	0.6126	-0.151
Mof_C 	C 	0.4422	0.4849	0.6668	2.011
Mof_C 	C 	0.5222	0.4963	0.6141	-0.5
Mof_C 	C 	0.6183	0.5118	0.6662	-0.212
Mof_C 	C 	0.6345	0.5159	0.7711	-1.564
Mof_H 	H 	0.7019	0.5267	0.8077	0.541
Mof_C 	C 	0.5545	0.5045	0.8238	3.252
Mof_C 	C 	0.4583	0.489	0.7716	-4.064
Mof_H 	H 	0.4025	0.4811	0.8079	4.084
Mof_C 	C 	0.5731	0.512	0.9366	-0.454
Mof_C 	C 	0.659	0.5534	0.9871	-0.415
Mof_H 	H 	0.7109	0.575	0.9515	0.124
Mof_N 	N 	0.6079	0.5221	0.1501	-3.638
Mof_C 	C 	0.6746	0.5575	0.0947	1.289
Mof_H 	H 	0.7379	0.5814	0.1283	-0.404
Mof_C 	C 	0.5257	0.4825	0.0998	2.519
Mof_H 	H 	0.4757	0.4616	0.1384	-1.826
Mof_C 	C 	0.5063	0.4764	0.9955	-0.788
Mof_H 	H 	0.443	0.4515	0.9633	0.256
Mof_C 	C 	0.7069	0.5241	0.6092	0.077
Mof_O 	O 	0.2561	0.3985	0.6639	0.098
Mof_O 	O 	0.4301	0.5555	0.6569	-0.602
Mof_O 	O 	0.1842	0.0682	0.8468	0.304
Mof_O 	O 	0.3779	0	0.827	0.56
Mof_Sm	Sm	0.86202	0.93833	0.99182	2.253
Mof_O 	O 	0.0473	0.9386	0.9241	-0.63
Mof_O 	O 	0.9329	0.8354	0.8816	-0.544
Mof_O 	O 	0.9909	0.6311	0.6073	-0.584
Mof_O 	O 	0.14	0.5606	0.6246	-0.533
Mof_N 	N 	0.5802	0.7679	0.9464	-0.182
Mof_C 	C 	0.0208	0.864	0.8846	0.503
Mof_C 	C 	0.0936	0.8058	0.8421	-0.214
Mof_C 	C 	0.0575	0.7437	0.7674	0.141
Mof_H 	H 	0.9873	0.7396	0.7441	-0.011
Mof_C 	C 	0.1232	0.6877	0.7267	-0.205
Mof_C 	C 	0.2262	0.6916	0.7632	0.07
Mof_H 	H 	0.2707	0.6513	0.7373	0.041
Mof_C 	C 	0.2641	0.7539	0.8372	-0.112
Mof_C 	C 	0.1967	0.8112	0.8768	0.095
Mof_H 	H 	0.2215	0.8538	0.9276	-0.005
Mof_C 	C 	0.3741	0.7587	0.8765	0.158
Mof_C 	C 	0.4429	0.7444	0.8132	-0.18
Mof_H 	H 	0.4208	0.7307	0.7441	0.131
Mof_C 	C 	0.5449	0.75	0.8501	0.135
Mof_H 	H 	0.5915	0.7406	0.8048	0.01
Mof_C 	C 	0.5141	0.7804	0.0056	0.158
Mof_H 	H 	0.5381	0.7928	0.0748	0.02
Mof_C 	C 	0.4115	0.7771	0.9753	-0.223
Mof_H 	H 	0.3671	0.7874	0.0225	0.136
Mof_C 	C 	0.0818	0.6205	0.6469	0.524
Mof_O 	O 	0.7202	0.9228	0.8425	-0.434
Mof_O 	O 	0.6866	0.9942	0.9771	-0.489
Mof_O 	O 	0.3052	0.004	0.9839	0.361
Mof_O 	O 	0.2087	0.045	0.8419	-0.689
Mof_C 	C 	0.6623	0.968	0.8874	-0.145
Mof_C 	C 	0.5578	0.9849	0.8332	1.858
Mof_C 	C 	0.4778	0.9963	0.8859	-0.427
Mof_C 	C 	0.3817	0.0118	0.8338	-0.232
Mof_C 	C 	0.3655	0.0159	0.7289	-1.39
Mof_H 	H 	0.2981	0.0267	0.6923	0.484
Mof_C 	C 	0.4455	0.0045	0.6762	2.895
Mof_C 	C 	0.5417	0.989	0.7284	-3.677
Mof_H 	H 	0.5975	0.9811	0.6921	3.736
Mof_C 	C 	0.4269	0.012	0.5634	-0.332
Mof_C 	C 	0.341	0.0534	0.5129	-0.514
Mof_H 	H 	0.2891	0.075	0.5485	0.16
Mof_N 	N 	0.3921	0.0221	0.3499	-3.908
Mof_C 	C 	0.3254	0.0575	0.4053	1.408
Mof_H 	H 	0.2621	0.0814	0.3717	-0.45
Mof_C 	C 	0.4743	0.9825	0.4002	2.714
Mof_H 	H 	0.5243	0.9616	0.3616	-1.975
Mof_C 	C 	0.4937	0.9764	0.5045	-0.754
Mof_H 	H 	0.557	0.9515	0.5367	0.281
Mof_C 	C 	0.2931	0.0241	0.8908	0.061
Mof_O 	O 	0.7439	0.8985	0.8361	0.103
Mof_O 	O 	0.5699	0.0555	0.8431	-0.591
Mof_O 	O 	0.8158	0.5682	0.6532	0.294
Mof_O 	O 	0.6221	0.5	0.673	0.607
Mof_Sm	Sm	0.86202	0.56167	0.49182	2.269
Mof_O 	O 	0.0473	0.5614	0.4241	-0.637
Mof_O 	O 	0.9329	0.6646	0.3816	-0.534
Mof_O 	O 	0.9909	0.8689	0.1073	-0.564
Mof_O 	O 	0.14	0.9394	0.1246	-0.517
Mof_N 	N 	0.5802	0.7321	0.4464	-0.166
Mof_C 	C 	0.0208	0.636	0.3846	0.489
Mof_C 	C 	0.0936	0.6942	0.3421	-0.198
Mof_C 	C 	0.0575	0.7563	0.2674	0.113
Mof_H 	H 	0.9873	0.7604	0.2441	0.005
Mof_C 	C 	0.1232	0.8123	0.2267	-0.185
Mof_C 	C 	0.2262	0.8084	0.2632	0.053
Mof_H 	H 	0.2707	0.8487	0.2373	0.05
Mof_C 	C 	0.2641	0.7461	0.3372	-0.092
Mof_C 	C 	0.1967	0.6888	0.3768	0.079
Mof_H 	H 	0.2215	0.6462	0.4276	-0.001
Mof_C 	C 	0.3741	0.7413	0.3765	0.128
Mof_C 	C 	0.4429	0.7556	0.3132	-0.159
Mof_H 	H 	0.4208	0.7693	0.2441	0.125
Mof_C 	C 	0.5449	0.75	0.3501	0.122
Mof_H 	H 	0.5915	0.7594	0.3048	0.017
Mof_C 	C 	0.5141	0.7196	0.5056	0.108
Mof_H 	H 	0.5381	0.7072	0.5748	0.031
Mof_C 	C 	0.4115	0.7229	0.4753	-0.169
Mof_H 	H 	0.3671	0.7126	0.5225	0.111
Mof_C 	C 	0.0818	0.8795	0.1469	0.506
Mof_O 	O 	0.7202	0.5772	0.3425	-0.422
Mof_O 	O 	0.6866	0.5058	0.4771	-0.599
Mof_O 	O 	0.3052	0.496	0.4839	0.306
Mof_O 	O 	0.2087	0.455	0.3419	-0.68
Mof_C 	C 	0.6623	0.532	0.3874	-0.145
Mof_C 	C 	0.5578	0.5151	0.3332	1.965
Mof_C 	C 	0.4778	0.5037	0.3859	-0.484
Mof_C 	C 	0.3817	0.4882	0.3338	-0.217
Mof_C 	C 	0.3655	0.4841	0.2289	-1.519
Mof_H 	H 	0.2981	0.4733	0.1923	0.527
Mof_C 	C 	0.4455	0.4955	0.1762	3.16
Mof_C 	C 	0.5417	0.511	0.2284	-3.964
Mof_H 	H 	0.5975	0.5189	0.1921	3.996
Mof_C 	C 	0.4269	0.488	0.0634	-0.387
Mof_C 	C 	0.341	0.4466	0.0129	-0.43
Mof_H 	H 	0.2891	0.425	0.0485	0.133
Mof_N 	N 	0.3921	0.4779	0.8499	-3.716
Mof_C 	C 	0.3254	0.4425	0.9053	1.317
Mof_H 	H 	0.2621	0.4186	0.8717	-0.418
Mof_C 	C 	0.4743	0.5175	0.9002	2.594
Mof_H 	H 	0.5243	0.5384	0.8616	-1.87
Mof_C 	C 	0.4937	0.5236	0.0045	-0.912
Mof_H 	H 	0.557	0.5485	0.0367	0.305
Mof_C 	C 	0.2931	0.4759	0.3908	0.076
Mof_O 	O 	0.7439	0.6015	0.3361	0.089
Mof_O 	O 	0.5699	0.4445	0.3431	-0.593
Mof_O 	O 	0.8158	0.9318	0.1532	0.247
Mof_O 	O 	0.6221	0	0.173	0.665
Mof_Sm	Sm	0.13798	0.06167	0.00818	2.247
Mof_O 	O 	0.9527	0.0614	0.0759	-0.638
Mof_O 	O 	0.0671	0.1646	0.1184	-0.542
Mof_O 	O 	0.0091	0.3689	0.3927	-0.584
Mof_O 	O 	0.86	0.4394	0.3754	-0.533
Mof_N 	N 	0.4198	0.2321	0.0536	-0.152
Mof_C 	C 	0.9792	0.136	0.1154	0.502
Mof_C 	C 	0.9064	0.1942	0.1579	-0.209
Mof_C 	C 	0.9425	0.2563	0.2326	0.134
Mof_H 	H 	0.0127	0.2604	0.2559	-0.009
Mof_C 	C 	0.8768	0.3123	0.2733	-0.199
Mof_C 	C 	0.7738	0.3084	0.2368	0.056
Mof_H 	H 	0.7293	0.3487	0.2627	0.046
Mof_C 	C 	0.7359	0.2461	0.1628	-0.088
Mof_C 	C 	0.8033	0.1888	0.1232	0.08
Mof_H 	H 	0.7785	0.1462	0.0724	-0.001
Mof_C 	C 	0.6259	0.2413	0.1235	0.105
Mof_C 	C 	0.5571	0.2556	0.1868	-0.145
Mof_H 	H 	0.5792	0.2693	0.2559	0.117
Mof_C 	C 	0.4551	0.25	0.1499	0.111
Mof_H 	H 	0.4085	0.2594	0.1952	0.018
Mof_C 	C 	0.4859	0.2196	0.9944	0.065
Mof_H 	H 	0.4619	0.2072	0.9252	0.041
Mof_C 	C 	0.5885	0.2229	0.0247	-0.116
Mof_H 	H 	0.6329	0.2126	0.9775	0.084
Mof_C 	C 	0.9182	0.3795	0.3531	0.522
Mof_O 	O 	0.2798	0.0772	0.1575	-0.431
Mof_O 	O 	0.3134	0.0058	0.0229	-0.665
Mof_O 	O 	0.6948	0.996	0.0161	0.187
Mof_O 	O 	0.7913	0.955	0.1581	-0.628
Mof_C 	C 	0.3377	0.032	0.1126	-0.16
Mof_C 	C 	0.4422	0.0151	0.1668	2.089
Mof_C 	C 	0.5222	0.0037	0.1141	-0.535
Mof_C 	C 	0.6183	0.9882	0.1662	-0.255
Mof_C 	C 	0.6345	0.9841	0.2711	-1.651
Mof_H 	H 	0.7019	0.9733	0.3077	0.572
Mof_C 	C 	0.5545	0.9955	0.3238	3.464
Mof_C 	C 	0.4583	0.011	0.2716	-4.296
Mof_H 	H 	0.4025	0.0189	0.3079	4.294
Mof_C 	C 	0.5731	0.988	0.4366	-0.503
Mof_C 	C 	0.659	0.9466	0.4871	-0.322
Mof_H 	H 	0.7109	0.925	0.4515	0.096
Mof_N 	N 	0.6079	0.9779	0.6501	-3.402
Mof_C 	C 	0.6746	0.9425	0.5947	1.176
Mof_H 	H 	0.7379	0.9186	0.6283	-0.367
Mof_C 	C 	0.5257	0.0175	0.5998	2.365
Mof_H 	H 	0.4757	0.0384	0.6384	-1.691
Mof_C 	C 	0.5063	0.0236	0.4955	-0.935
Mof_H 	H 	0.443	0.0485	0.4633	0.277
Mof_C 	C 	0.7069	0.9759	0.1092	0.115
Mof_O 	O 	0.2561	0.1015	0.1639	0.097
Mof_O 	O 	0.4301	0.9445	0.1569	-0.597
Mof_O 	O 	0.1842	0.4318	0.3468	0.296
Mof_O 	O 	0.3779	0.5	0.327	0.596
_end
