data_functionalizedCrystal
_audit_creation_method	'EQeq! by Chris Wilmer'
_symmetry_space_group_name_H-M	'P1'
_symmetry_Int_Tables_number	1
_symmetry_cell_setting	triclinic
loop_
_symmetry_equiv_pos_as_xyz
  x,y,z
_cell_length_a	41.686
_cell_length_b	19.05
_cell_length_c	29.292
_cell_angle_alpha	90
_cell_angle_beta	120.028
_cell_angle_gamma	90
loop_
_atom_site_label
_atom_site_type_symbol
_atom_site_fract_x
_atom_site_fract_y
_atom_site_fract_z
_atom_site_charge
Mof_W 	W 	0.58233	0.12112	0.69432	0.529
Mof_W 	W 	0.57912	0.12796	0.42079	0.531
Mof_W 	W 	0.59495	0.77573	0.56688	0.532
Mof_Mn	Mn	0.56582	0.8502	0.36804	0.732
Mof_Mn	Mn	0.56861	0.8434	0.72745	0.741
Mof_Mn	Mn	0.54751	0.315	0.53544	0.637
Mof_Mn	Mn	0.67099	0.0269	0.61979	0.581
Mof_C 	C 	0.5732	0.1251	0.762	-0.013
Mof_N 	N 	0.5678	0.1263	0.7958	-0.171
Mof_C 	C 	0.6047	0.219	0.7278	-0.055
Mof_N 	N 	0.6162	0.275	0.7434	-0.093
Mof_C 	C 	0.635	0.0944	0.7625	-0.039
Mof_N 	N 	0.663	0.0827	0.7993	-0.099
Mof_C 	C 	0.5537	0.0677	0.6197	-0.023
Mof_N 	N 	0.5387	0.0419	0.5795	-0.164
Mof_C 	C 	0.5244	0.1372	0.668	-0.031
Mof_N 	N 	0.4942	0.1423	0.6577	-0.165
Mof_C 	C 	0.5779	0.0128	0.7065	-0.049
Mof_N 	N 	0.5748	0.9537	0.7155	-0.158
Mof_C 	C 	0.5657	0.1975	0.6322	-0.035
Mof_N 	N 	0.5574	0.2407	0.5976	-0.163
Mof_C 	C 	0.6218	0.0997	0.6695	-0.034
Mof_N 	N 	0.6425	0.084	0.6554	-0.164
Mof_C 	C 	0.5929	0.234	0.413	-0.055
Mof_N 	N 	0.6007	0.296	0.4104	-0.095
Mof_C 	C 	0.6334	0.112	0.4304	-0.047
Mof_N 	N 	0.6638	0.112	0.4379	-0.099
Mof_C 	C 	0.5737	0.1319	0.3431	-0.023
Mof_N 	N 	0.5683	0.1323	0.3006	-0.17
Mof_C 	C 	0.5474	0.0711	0.4473	-0.031
Mof_N 	N 	0.5327	0.0392	0.4656	-0.163
Mof_C 	C 	0.5793	0.0191	0.401	-0.034
Mof_C 	C 	0.5222	0.147	0.3634	-0.033
Mof_N 	N 	0.492	0.1546	0.3303	-0.163
Mof_C 	C 	0.5632	0.1951	0.4633	-0.041
Mof_N 	N 	0.554	0.2365	0.4859	-0.16
Mof_C 	C 	0.6181	0.101	0.5024	-0.03
Mof_N 	N 	0.6374	0.0806	0.5459	-0.169
Mof_C 	C 	0.6002	0.681	0.6099	-0.047
Mof_N 	N 	0.6011	0.626	0.6328	-0.097
Mof_C 	C 	0.6074	0.692	0.529	-0.041
Mof_N 	N 	0.626	0.662	0.516	-0.096
Mof_C 	C 	0.653	0.761	0.619	-0.057
Mof_N 	N 	0.684	0.764	0.666	-0.095
Mof_C 	C 	0.5525	0.8581	0.5378	-0.007
Mof_N 	N 	0.5313	0.8993	0.5221	-0.163
Mof_C 	C 	0.5837	0.8045	0.4895	-0.049
Mof_C 	C 	0.5855	0.803	0.6319	-0.021
Mof_N 	N 	0.5763	0.82	0.6608	-0.169
Mof_C 	C 	0.5422	0.7234	0.5241	-0.03
Mof_N 	N 	0.5131	0.7001	0.5022	-0.172
Mof_C 	C 	0.6218	0.8771	0.5873	-0.03
Mof_N 	N 	0.6369	0.9307	0.5975	-0.163
Mof_N 	N 	0.6276	0.8244	0.4052	-0.202
Mof_C 	C 	0.6503	0.8618	0.3952	0.117
Mof_H 	H 	0.6406	0.8985	0.3698	-0.003
Mof_C 	C 	0.687	0.848	0.4208	-0.184
Mof_H 	H 	0.7029	0.8785	0.4154	0.097
Mof_C 	C 	0.7021	0.792	0.4546	0.129
Mof_C 	C 	0.6778	0.75	0.4633	-0.178
Mof_H 	H 	0.6862	0.7113	0.4868	0.095
Mof_C 	C 	0.6411	0.769	0.4355	0.114
Mof_H 	H 	0.6239	0.7396	0.4386	-0.006
Mof_C 	C 	0.7406	0.776	0.4835	-0.091
Mof_H 	H 	0.7558	0.8078	0.478	0.061
Mof_N 	N 	0.5551	0.7351	0.3425	-0.199
Mof_C 	C 	0.5481	0.6861	0.3692	0.098
Mof_H 	H 	0.5443	0.7004	0.3972	-0.009
Mof_C 	C 	0.5464	0.6156	0.3573	-0.172
Mof_H 	H 	0.5409	0.5824	0.3768	0.081
Mof_C 	C 	0.5524	0.5925	0.3176	0.125
Mof_C 	C 	0.5515	0.6431	0.2834	-0.173
Mof_H 	H 	0.5491	0.631	0.2503	0.09
Mof_C 	C 	0.5543	0.7118	0.2991	0.105
Mof_H 	H 	0.5558	0.7461	0.2767	-0.006
Mof_C 	C 	0.5514	0.518	0.306	-0.091
Mof_H 	H 	0.5486	0.4853	0.3283	0.059
Mof_N 	N 	0.5627	0.2725	0.2406	-0.198
Mof_C 	C 	0.5617	0.3226	0.208	0.095
Mof_H 	H 	0.5627	0.3085	0.1776	-0.003
Mof_C 	C 	0.5593	0.3937	0.2155	-0.168
Mof_H 	H 	0.5596	0.427	0.1916	0.084
Mof_C 	C 	0.5565	0.4157	0.2583	0.114
Mof_C 	C 	0.5468	0.3636	0.282	-0.165
Mof_H 	H 	0.5362	0.3756	0.3031	0.088
Mof_C 	C 	0.5525	0.2941	0.275	0.097
Mof_H 	H 	0.549	0.2597	0.2954	-0.004
Mof_C 	C 	0.5543	0.492	0.265	-0.08
Mof_H 	H 	0.5549	0.5237	0.2403	0.053
Mof_N 	N 	0.6311	0.8338	0.7778	-0.202
Mof_C 	C 	0.6504	0.783	0.771	0.071
Mof_H 	H 	0.6374	0.7468	0.7456	0.005
Mof_C 	C 	0.6887	0.781	0.799	-0.127
Mof_H 	H 	0.7014	0.7413	0.7962	0.072
Mof_C 	C 	0.6888	0.886	0.842	-0.113
Mof_H 	H 	0.7012	0.9219	0.8672	0.074
Mof_C 	C 	0.6507	0.881	0.8149	0.06
Mof_H 	H 	0.6374	0.9145	0.8233	0.013
Mof_C 	C 	0.7086	0.836	0.8319	0.139
Mof_C 	C 	0.7528	0.843	0.864	-0.091
Mof_H 	H 	0.7644	0.8518	0.9008	0.059
Mof_N 	N 	0.8909	0.8317	0.9232	-0.2
Mof_C 	C 	0.8717	0.844	0.9478	0.091
Mof_H 	H 	0.8851	0.8498	0.985	-0.004
Mof_C 	C 	0.8334	0.848	0.9222	-0.159
Mof_H 	H 	0.8213	0.8583	0.9416	0.086
Mof_C 	C 	0.8131	0.837	0.8688	0.104
Mof_C 	C 	0.8327	0.835	0.8422	-0.16
Mof_H 	H 	0.82	0.8369	0.8047	0.084
Mof_C 	C 	0.8709	0.829	0.8703	0.088
Mof_H 	H 	0.8837	0.8225	0.8513	-0.003
Mof_C 	C 	0.772	0.839	0.845	-0.072
Mof_H 	H 	0.7585	0.8364	0.8077	0.052
Mof_N 	N 	0.5746	0.8436	0.4507	-0.151
Mof_N 	N 	0.5766	0.9628	0.3885	-0.156
Mof_C 	C 	0.65	0.871	0.76	0.044
Mof_C 	C 	0.688	0.865	0.782	-0.108
Mof_C 	C 	0.6892	0.812	0.8557	-0.091
Mof_C 	C 	0.6509	0.809	0.827	0.035
Mof_H 	H 	0.6368	0.902	0.7312	0.011
Mof_H 	H 	0.6998	0.8816	0.7637	0.063
Mof_H 	H 	0.7021	0.7972	0.8915	0.063
Mof_H 	H 	0.6382	0.788	0.8427	0.021
Mof_W 	W 	0.08233	0.62112	0.69432	0.527
Mof_W 	W 	0.07912	0.62796	0.42079	0.529
Mof_W 	W 	0.09495	0.27573	0.56688	0.531
Mof_Mn	Mn	0.06582	0.3502	0.36804	0.73
Mof_Mn	Mn	0.06861	0.3434	0.72745	0.738
Mof_Mn	Mn	0.04751	0.815	0.53544	0.636
Mof_Mn	Mn	0.17099	0.5269	0.61979	0.589
Mof_C 	C 	0.0732	0.6251	0.762	-0.013
Mof_N 	N 	0.0678	0.6263	0.7958	-0.171
Mof_C 	C 	0.1047	0.719	0.7278	-0.055
Mof_N 	N 	0.1162	0.775	0.7434	-0.092
Mof_C 	C 	0.135	0.5944	0.7625	-0.037
Mof_N 	N 	0.163	0.5827	0.7993	-0.097
Mof_C 	C 	0.0537	0.5677	0.6197	-0.022
Mof_N 	N 	0.0387	0.5419	0.5795	-0.163
Mof_C 	C 	0.0244	0.6372	0.668	-0.035
Mof_N 	N 	0.9942	0.6423	0.6577	-0.161
Mof_C 	C 	0.0779	0.5128	0.7065	-0.039
Mof_N 	N 	0.0748	0.4537	0.7155	-0.165
Mof_C 	C 	0.0657	0.6975	0.6322	-0.035
Mof_N 	N 	0.0574	0.7407	0.5976	-0.163
Mof_C 	C 	0.1218	0.5997	0.6695	-0.032
Mof_N 	N 	0.1425	0.584	0.6554	-0.164
Mof_C 	C 	0.0929	0.734	0.413	-0.055
Mof_N 	N 	0.1007	0.796	0.4104	-0.094
Mof_C 	C 	0.1334	0.612	0.4304	-0.046
Mof_N 	N 	0.1638	0.612	0.4379	-0.098
Mof_C 	C 	0.0737	0.6319	0.3431	-0.022
Mof_N 	N 	0.0683	0.6323	0.3006	-0.169
Mof_C 	C 	0.0474	0.5711	0.4473	-0.03
Mof_N 	N 	0.0327	0.5392	0.4656	-0.162
Mof_C 	C 	0.0793	0.5191	0.401	-0.024
Mof_C 	C 	0.0222	0.647	0.3634	-0.036
Mof_N 	N 	0.992	0.6546	0.3303	-0.159
Mof_C 	C 	0.0632	0.6951	0.4633	-0.041
Mof_N 	N 	0.054	0.7365	0.4859	-0.16
Mof_C 	C 	0.1181	0.601	0.5024	-0.029
Mof_N 	N 	0.1374	0.5806	0.5459	-0.169
Mof_C 	C 	0.1002	0.181	0.6099	-0.047
Mof_N 	N 	0.1011	0.126	0.6328	-0.098
Mof_C 	C 	0.1074	0.192	0.529	-0.042
Mof_N 	N 	0.126	0.162	0.516	-0.097
Mof_C 	C 	0.153	0.261	0.619	-0.058
Mof_N 	N 	0.184	0.264	0.666	-0.096
Mof_C 	C 	0.0525	0.3581	0.5378	-0.008
Mof_N 	N 	0.0313	0.3993	0.5221	-0.167
Mof_C 	C 	0.0837	0.3045	0.4895	-0.049
Mof_C 	C 	0.0855	0.303	0.6319	-0.022
Mof_N 	N 	0.0763	0.32	0.6608	-0.17
Mof_C 	C 	0.0422	0.2234	0.5241	-0.031
Mof_N 	N 	0.0131	0.2001	0.5022	-0.174
Mof_C 	C 	0.1218	0.3771	0.5873	-0.031
Mof_N 	N 	0.1369	0.4307	0.5975	-0.167
Mof_N 	N 	0.1276	0.3244	0.4052	-0.202
Mof_C 	C 	0.1503	0.3618	0.3952	0.116
Mof_H 	H 	0.1406	0.3985	0.3698	-0.005
Mof_C 	C 	0.187	0.348	0.4208	-0.184
Mof_H 	H 	0.2029	0.3785	0.4154	0.095
Mof_C 	C 	0.2021	0.292	0.4546	0.128
Mof_C 	C 	0.1778	0.25	0.4633	-0.178
Mof_H 	H 	0.1862	0.2113	0.4868	0.095
Mof_C 	C 	0.1411	0.269	0.4355	0.113
Mof_H 	H 	0.1239	0.2396	0.4386	-0.006
Mof_C 	C 	0.2406	0.276	0.4835	-0.091
Mof_H 	H 	0.2558	0.3078	0.478	0.061
Mof_N 	N 	0.0551	0.2351	0.3425	-0.202
Mof_C 	C 	0.0481	0.1861	0.3692	0.105
Mof_H 	H 	0.0443	0.2004	0.3972	-0.013
Mof_C 	C 	0.0464	0.1156	0.3573	-0.188
Mof_H 	H 	0.0409	0.0824	0.3768	0.084
Mof_C 	C 	0.0524	0.0925	0.3176	0.15
Mof_C 	C 	0.0515	0.1431	0.2834	-0.189
Mof_H 	H 	0.0491	0.131	0.2503	0.095
Mof_C 	C 	0.0543	0.2118	0.2991	0.112
Mof_H 	H 	0.0558	0.2461	0.2767	-0.009
Mof_C 	C 	0.0514	0.018	0.306	-0.147
Mof_H 	H 	0.0486	0.9853	0.3283	0.082
Mof_N 	N 	0.0627	0.7725	0.2406	-0.195
Mof_C 	C 	0.0617	0.8226	0.208	0.087
Mof_H 	H 	0.0627	0.8085	0.1776	-0
Mof_C 	C 	0.0593	0.8937	0.2155	-0.153
Mof_H 	H 	0.0596	0.927	0.1916	0.08
Mof_C 	C 	0.0565	0.9157	0.2583	0.09
Mof_C 	C 	0.0468	0.8636	0.282	-0.15
Mof_H 	H 	0.0362	0.8756	0.3031	0.082
Mof_C 	C 	0.0525	0.7941	0.275	0.089
Mof_H 	H 	0.049	0.7597	0.2954	-0.001
Mof_C 	C 	0.0543	0.992	0.265	-0.026
Mof_H 	H 	0.0549	0.0237	0.2403	0.029
Mof_N 	N 	0.1311	0.3338	0.7778	-0.202
Mof_C 	C 	0.1504	0.283	0.771	0.071
Mof_H 	H 	0.1374	0.2468	0.7456	0.005
Mof_C 	C 	0.1887	0.281	0.799	-0.127
Mof_H 	H 	0.2014	0.2413	0.7962	0.071
Mof_C 	C 	0.1888	0.386	0.842	-0.113
Mof_H 	H 	0.2012	0.4219	0.8672	0.072
Mof_C 	C 	0.1507	0.381	0.8149	0.06
Mof_H 	H 	0.1374	0.4145	0.8233	0.012
Mof_C 	C 	0.2086	0.336	0.8319	0.139
Mof_C 	C 	0.2528	0.343	0.864	-0.092
Mof_H 	H 	0.2644	0.3518	0.9008	0.059
Mof_N 	N 	0.3909	0.3317	0.9232	-0.2
Mof_C 	C 	0.3717	0.344	0.9478	0.09
Mof_H 	H 	0.3851	0.3498	0.985	-0.004
Mof_C 	C 	0.3334	0.348	0.9222	-0.159
Mof_H 	H 	0.3213	0.3583	0.9416	0.085
Mof_C 	C 	0.3131	0.337	0.8688	0.103
Mof_C 	C 	0.3327	0.335	0.8422	-0.16
Mof_H 	H 	0.32	0.3369	0.8047	0.083
Mof_C 	C 	0.3709	0.329	0.8703	0.087
Mof_H 	H 	0.3837	0.3225	0.8513	-0.004
Mof_C 	C 	0.272	0.339	0.845	-0.073
Mof_H 	H 	0.2585	0.3364	0.8077	0.052
Mof_N 	N 	0.0746	0.3436	0.4507	-0.152
Mof_N 	N 	0.0766	0.4628	0.3885	-0.164
Mof_C 	C 	0.15	0.371	0.76	0.045
Mof_C 	C 	0.188	0.365	0.782	-0.109
Mof_C 	C 	0.1892	0.312	0.8557	-0.092
Mof_C 	C 	0.1509	0.309	0.827	0.035
Mof_H 	H 	0.1368	0.402	0.7312	0.009
Mof_H 	H 	0.1998	0.3816	0.7637	0.062
Mof_H 	H 	0.2021	0.2972	0.8915	0.063
Mof_H 	H 	0.1382	0.288	0.8427	0.021
Mof_W 	W 	0.41767	0.12112	0.80568	0.528
Mof_W 	W 	0.42088	0.12796	0.07921	0.525
Mof_W 	W 	0.40505	0.77573	0.93312	0.536
Mof_Mn	Mn	0.43418	0.8502	0.13196	0.73
Mof_Mn	Mn	0.43139	0.8434	0.77255	0.74
Mof_Mn	Mn	0.45249	0.315	0.96456	0.648
Mof_Mn	Mn	0.32901	0.0269	0.88021	0.584
Mof_C 	C 	0.4268	0.1251	0.738	-0.014
Mof_N 	N 	0.4322	0.1263	0.7042	-0.171
Mof_C 	C 	0.3953	0.219	0.7722	-0.055
Mof_N 	N 	0.3838	0.275	0.7566	-0.093
Mof_C 	C 	0.365	0.0944	0.7375	-0.039
Mof_N 	N 	0.337	0.0827	0.7007	-0.099
Mof_C 	C 	0.4463	0.0677	0.8803	-0.022
Mof_N 	N 	0.4613	0.0419	0.9205	-0.16
Mof_C 	C 	0.4756	0.1372	0.832	-0.031
Mof_N 	N 	0.5058	0.1423	0.8423	-0.165
Mof_C 	C 	0.4221	0.0128	0.7935	-0.048
Mof_N 	N 	0.4252	0.9537	0.7845	-0.158
Mof_C 	C 	0.4343	0.1975	0.8678	-0.034
Mof_N 	N 	0.4426	0.2407	0.9024	-0.162
Mof_C 	C 	0.3782	0.0997	0.8305	-0.033
Mof_N 	N 	0.3575	0.084	0.8446	-0.164
Mof_C 	C 	0.4071	0.234	0.087	-0.057
Mof_N 	N 	0.3993	0.296	0.0896	-0.097
Mof_C 	C 	0.3666	0.112	0.0696	-0.05
Mof_N 	N 	0.3362	0.112	0.0621	-0.101
Mof_C 	C 	0.4263	0.1319	0.1569	-0.022
Mof_N 	N 	0.4317	0.1323	0.1994	-0.17
Mof_C 	C 	0.4526	0.0711	0.0527	-0.033
Mof_N 	N 	0.4673	0.0392	0.0344	-0.164
Mof_C 	C 	0.4207	0.0191	0.099	-0.035
Mof_C 	C 	0.4778	0.147	0.1366	-0.032
Mof_N 	N 	0.508	0.1546	0.1697	-0.163
Mof_C 	C 	0.4368	0.1951	0.0367	-0.043
Mof_N 	N 	0.446	0.2365	0.0141	-0.164
Mof_C 	C 	0.3819	0.101	0.9976	-0.019
Mof_N 	N 	0.3626	0.0806	0.9541	-0.17
Mof_C 	C 	0.3998	0.681	0.8901	-0.047
Mof_N 	N 	0.3989	0.626	0.8672	-0.096
Mof_C 	C 	0.3926	0.692	0.971	-0.037
Mof_N 	N 	0.374	0.662	0.984	-0.093
Mof_C 	C 	0.347	0.761	0.881	-0.056
Mof_N 	N 	0.316	0.764	0.834	-0.095
Mof_C 	C 	0.4475	0.8581	0.9622	-0.005
Mof_N 	N 	0.4687	0.8993	0.9779	-0.159
Mof_C 	C 	0.4163	0.8045	0.0105	-0.059
Mof_C 	C 	0.4145	0.803	0.8681	-0.021
Mof_N 	N 	0.4237	0.82	0.8392	-0.169
Mof_C 	C 	0.4578	0.7234	0.9759	-0.028
Mof_N 	N 	0.4869	0.7001	0.9978	-0.168
Mof_C 	C 	0.3782	0.8771	0.9127	-0.028
Mof_N 	N 	0.3631	0.9307	0.9025	-0.163
Mof_N 	N 	0.3724	0.8244	0.0948	-0.203
Mof_C 	C 	0.3497	0.8618	0.1048	0.12
Mof_H 	H 	0.3594	0.8985	0.1302	-0.005
Mof_C 	C 	0.313	0.848	0.0792	-0.193
Mof_H 	H 	0.2971	0.8785	0.0846	0.098
Mof_C 	C 	0.2979	0.792	0.0454	0.14
Mof_C 	C 	0.3222	0.75	0.0367	-0.185
Mof_H 	H 	0.3138	0.7113	0.0132	0.095
Mof_C 	C 	0.3589	0.769	0.0645	0.116
Mof_H 	H 	0.3761	0.7396	0.0614	-0.009
Mof_C 	C 	0.2594	0.776	0.0165	-0.118
Mof_H 	H 	0.2442	0.8078	0.022	0.067
Mof_N 	N 	0.4449	0.7351	0.1575	-0.199
Mof_C 	C 	0.4519	0.6861	0.1308	0.097
Mof_H 	H 	0.4557	0.7004	0.1028	-0.011
Mof_C 	C 	0.4536	0.6156	0.1427	-0.172
Mof_H 	H 	0.4591	0.5824	0.1232	0.08
Mof_C 	C 	0.4476	0.5925	0.1824	0.124
Mof_C 	C 	0.4485	0.6431	0.2166	-0.173
Mof_H 	H 	0.4509	0.631	0.2497	0.09
Mof_C 	C 	0.4457	0.7118	0.2009	0.105
Mof_H 	H 	0.4442	0.7461	0.2233	-0.006
Mof_C 	C 	0.4486	0.518	0.194	-0.091
Mof_H 	H 	0.4514	0.4853	0.1717	0.058
Mof_N 	N 	0.4373	0.2725	0.2594	-0.198
Mof_C 	C 	0.4383	0.3226	0.292	0.095
Mof_H 	H 	0.4373	0.3085	0.3224	-0.003
Mof_C 	C 	0.4407	0.3937	0.2845	-0.168
Mof_H 	H 	0.4404	0.427	0.3084	0.084
Mof_C 	C 	0.4435	0.4157	0.2417	0.114
Mof_C 	C 	0.4532	0.3636	0.218	-0.165
Mof_H 	H 	0.4638	0.3756	0.1969	0.088
Mof_C 	C 	0.4475	0.2941	0.225	0.096
Mof_H 	H 	0.451	0.2597	0.2046	-0.004
Mof_C 	C 	0.4457	0.492	0.235	-0.08
Mof_H 	H 	0.4451	0.5237	0.2597	0.053
Mof_N 	N 	0.3689	0.8338	0.7222	-0.202
Mof_C 	C 	0.3496	0.783	0.729	0.071
Mof_H 	H 	0.3626	0.7468	0.7544	0.005
Mof_C 	C 	0.3113	0.781	0.701	-0.127
Mof_H 	H 	0.2986	0.7413	0.7038	0.071
Mof_C 	C 	0.3112	0.886	0.658	-0.113
Mof_H 	H 	0.2988	0.9219	0.6328	0.073
Mof_C 	C 	0.3493	0.881	0.6851	0.06
Mof_H 	H 	0.3626	0.9145	0.6767	0.013
Mof_C 	C 	0.2914	0.836	0.6681	0.138
Mof_C 	C 	0.2472	0.843	0.636	-0.091
Mof_H 	H 	0.2356	0.8518	0.5992	0.058
Mof_N 	N 	0.1091	0.8317	0.5768	-0.2
Mof_C 	C 	0.1283	0.844	0.5522	0.091
Mof_H 	H 	0.1149	0.8498	0.515	-0.006
Mof_C 	C 	0.1666	0.848	0.5778	-0.159
Mof_H 	H 	0.1787	0.8583	0.5584	0.085
Mof_C 	C 	0.1869	0.837	0.6312	0.104
Mof_C 	C 	0.1673	0.835	0.6578	-0.161
Mof_H 	H 	0.18	0.8369	0.6953	0.084
Mof_C 	C 	0.1291	0.829	0.6297	0.088
Mof_H 	H 	0.1163	0.8225	0.6487	-0.003
Mof_C 	C 	0.228	0.839	0.655	-0.074
Mof_H 	H 	0.2415	0.8364	0.6923	0.053
Mof_N 	N 	0.4254	0.8436	0.0493	-0.151
Mof_N 	N 	0.4234	0.9628	0.1115	-0.156
Mof_C 	C 	0.35	0.871	0.74	0.044
Mof_C 	C 	0.312	0.865	0.718	-0.107
Mof_C 	C 	0.3108	0.812	0.6443	-0.091
Mof_C 	C 	0.3491	0.809	0.673	0.034
Mof_H 	H 	0.3632	0.902	0.7688	0.011
Mof_H 	H 	0.3002	0.8816	0.7363	0.063
Mof_H 	H 	0.2979	0.7972	0.6085	0.062
Mof_H 	H 	0.3618	0.788	0.6573	0.021
Mof_W 	W 	0.91767	0.62112	0.80568	0.526
Mof_W 	W 	0.92088	0.62796	0.07921	0.523
Mof_W 	W 	0.90505	0.27573	0.93312	0.536
Mof_Mn	Mn	0.93418	0.3502	0.13196	0.73
Mof_Mn	Mn	0.93139	0.3434	0.77255	0.739
Mof_Mn	Mn	0.95249	0.815	0.96456	0.652
Mof_Mn	Mn	0.82901	0.5269	0.88021	0.592
Mof_C 	C 	0.9268	0.6251	0.738	-0.012
Mof_N 	N 	0.9322	0.6263	0.7042	-0.171
Mof_C 	C 	0.8953	0.719	0.7722	-0.055
Mof_N 	N 	0.8838	0.775	0.7566	-0.092
Mof_C 	C 	0.865	0.5944	0.7375	-0.037
Mof_N 	N 	0.837	0.5827	0.7007	-0.098
Mof_C 	C 	0.9463	0.5677	0.8803	-0.02
Mof_N 	N 	0.9613	0.5419	0.9205	-0.158
Mof_C 	C 	0.9756	0.6372	0.832	-0.025
Mof_N 	N 	0.0058	0.6423	0.8423	-0.168
Mof_C 	C 	0.9221	0.5128	0.7935	-0.038
Mof_N 	N 	0.9252	0.4537	0.7845	-0.165
Mof_C 	C 	0.9343	0.6975	0.8678	-0.033
Mof_N 	N 	0.9426	0.7407	0.9024	-0.162
Mof_C 	C 	0.8782	0.5997	0.8305	-0.032
Mof_N 	N 	0.8575	0.584	0.8446	-0.164
Mof_C 	C 	0.9071	0.734	0.087	-0.056
Mof_N 	N 	0.8993	0.796	0.0896	-0.096
Mof_C 	C 	0.8666	0.612	0.0696	-0.049
Mof_N 	N 	0.8362	0.612	0.0621	-0.1
Mof_C 	C 	0.9263	0.6319	0.1569	-0.021
Mof_N 	N 	0.9317	0.6323	0.1994	-0.169
Mof_C 	C 	0.9526	0.5711	0.0527	-0.031
Mof_N 	N 	0.9673	0.5392	0.0344	-0.161
Mof_C 	C 	0.9207	0.5191	0.099	-0.024
Mof_C 	C 	0.9778	0.647	0.1366	-0.026
Mof_N 	N 	0.008	0.6546	0.1697	-0.167
Mof_C 	C 	0.9368	0.6951	0.0367	-0.043
Mof_N 	N 	0.946	0.7365	0.0141	-0.164
Mof_C 	C 	0.8819	0.601	0.9976	-0.019
Mof_N 	N 	0.8626	0.5806	0.9541	-0.17
Mof_C 	C 	0.8998	0.181	0.8901	-0.047
Mof_N 	N 	0.8989	0.126	0.8672	-0.097
Mof_C 	C 	0.8926	0.192	0.971	-0.038
Mof_N 	N 	0.874	0.162	0.984	-0.094
Mof_C 	C 	0.847	0.261	0.881	-0.057
Mof_N 	N 	0.816	0.264	0.834	-0.096
Mof_C 	C 	0.9475	0.3581	0.9622	-0.005
Mof_N 	N 	0.9687	0.3993	0.9779	-0.161
Mof_C 	C 	0.9163	0.3045	0.0105	-0.059
Mof_C 	C 	0.9145	0.303	0.8681	-0.022
Mof_N 	N 	0.9237	0.32	0.8392	-0.169
Mof_C 	C 	0.9578	0.2234	0.9759	-0.028
Mof_N 	N 	0.9869	0.2001	0.9978	-0.167
Mof_C 	C 	0.8782	0.3771	0.9127	-0.029
Mof_N 	N 	0.8631	0.4307	0.9025	-0.166
Mof_N 	N 	0.8724	0.3244	0.0948	-0.203
Mof_C 	C 	0.8497	0.3618	0.1048	0.119
Mof_H 	H 	0.8594	0.3985	0.1302	-0.006
Mof_C 	C 	0.813	0.348	0.0792	-0.193
Mof_H 	H 	0.7971	0.3785	0.0846	0.097
Mof_C 	C 	0.7979	0.292	0.0454	0.139
Mof_C 	C 	0.8222	0.25	0.0367	-0.185
Mof_H 	H 	0.8138	0.2113	0.0132	0.094
Mof_C 	C 	0.8589	0.269	0.0645	0.116
Mof_H 	H 	0.8761	0.2396	0.0614	-0.009
Mof_C 	C 	0.7594	0.276	0.0165	-0.118
Mof_H 	H 	0.7442	0.3078	0.022	0.066
Mof_N 	N 	0.9449	0.2351	0.1575	-0.202
Mof_C 	C 	0.9519	0.1861	0.1308	0.106
Mof_H 	H 	0.9557	0.2004	0.1028	-0.013
Mof_C 	C 	0.9536	0.1156	0.1427	-0.188
Mof_H 	H 	0.9591	0.0824	0.1232	0.084
Mof_C 	C 	0.9476	0.0925	0.1824	0.15
Mof_C 	C 	0.9485	0.1431	0.2166	-0.189
Mof_H 	H 	0.9509	0.131	0.2497	0.096
Mof_C 	C 	0.9457	0.2118	0.2009	0.113
Mof_H 	H 	0.9442	0.2461	0.2233	-0.008
Mof_C 	C 	0.9486	0.018	0.194	-0.146
Mof_H 	H 	0.9514	0.9853	0.1717	0.083
Mof_N 	N 	0.9373	0.7725	0.2594	-0.195
Mof_C 	C 	0.9383	0.8226	0.292	0.088
Mof_H 	H 	0.9373	0.8085	0.3224	0
Mof_C 	C 	0.9407	0.8937	0.2845	-0.153
Mof_H 	H 	0.9404	0.927	0.3084	0.082
Mof_C 	C 	0.9435	0.9157	0.2417	0.091
Mof_C 	C 	0.9532	0.8636	0.218	-0.15
Mof_H 	H 	0.9638	0.8756	0.1969	0.083
Mof_C 	C 	0.9475	0.7941	0.225	0.09
Mof_H 	H 	0.951	0.7597	0.2046	-0.001
Mof_C 	C 	0.9457	0.992	0.235	-0.025
Mof_H 	H 	0.9451	0.0237	0.2597	0.03
Mof_N 	N 	0.8689	0.3338	0.7222	-0.202
Mof_C 	C 	0.8496	0.283	0.729	0.07
Mof_H 	H 	0.8626	0.2468	0.7544	0.005
Mof_C 	C 	0.8113	0.281	0.701	-0.126
Mof_H 	H 	0.7986	0.2413	0.7038	0.071
Mof_C 	C 	0.8112	0.386	0.658	-0.113
Mof_H 	H 	0.7988	0.4219	0.6328	0.071
Mof_C 	C 	0.8493	0.381	0.6851	0.06
Mof_H 	H 	0.8626	0.4145	0.6767	0.012
Mof_C 	C 	0.7914	0.336	0.6681	0.138
Mof_C 	C 	0.7472	0.343	0.636	-0.091
Mof_H 	H 	0.7356	0.3518	0.5992	0.057
Mof_N 	N 	0.6091	0.3317	0.5768	-0.2
Mof_C 	C 	0.6283	0.344	0.5522	0.09
Mof_H 	H 	0.6149	0.3498	0.515	-0.007
Mof_C 	C 	0.6666	0.348	0.5778	-0.16
Mof_H 	H 	0.6787	0.3583	0.5584	0.084
Mof_C 	C 	0.6869	0.337	0.6312	0.103
Mof_C 	C 	0.6673	0.335	0.6578	-0.161
Mof_H 	H 	0.68	0.3369	0.6953	0.083
Mof_C 	C 	0.6291	0.329	0.6297	0.087
Mof_H 	H 	0.6163	0.3225	0.6487	-0.004
Mof_C 	C 	0.728	0.339	0.655	-0.074
Mof_H 	H 	0.7415	0.3364	0.6923	0.052
Mof_N 	N 	0.9254	0.3436	0.0493	-0.152
Mof_N 	N 	0.9234	0.4628	0.1115	-0.164
Mof_C 	C 	0.85	0.371	0.74	0.044
Mof_C 	C 	0.812	0.365	0.718	-0.108
Mof_C 	C 	0.8108	0.312	0.6443	-0.091
Mof_C 	C 	0.8491	0.309	0.673	0.035
Mof_H 	H 	0.8632	0.402	0.7688	0.009
Mof_H 	H 	0.8002	0.3816	0.7363	0.062
Mof_H 	H 	0.7979	0.2972	0.6085	0.061
Mof_H 	H 	0.8618	0.288	0.6573	0.021
Mof_W 	W 	0.41767	0.87888	0.30568	0.525
Mof_W 	W 	0.42088	0.87204	0.57921	0.527
Mof_W 	W 	0.40505	0.22427	0.43312	0.531
Mof_Mn	Mn	0.43418	0.1498	0.63196	0.729
Mof_Mn	Mn	0.43139	0.1566	0.27255	0.738
Mof_Mn	Mn	0.45249	0.685	0.46456	0.637
Mof_Mn	Mn	0.32901	0.9731	0.38021	0.597
Mof_C 	C 	0.4268	0.8749	0.238	-0.012
Mof_N 	N 	0.4322	0.8737	0.2042	-0.17
Mof_C 	C 	0.3953	0.781	0.2722	-0.055
Mof_N 	N 	0.3838	0.725	0.2566	-0.093
Mof_C 	C 	0.365	0.9056	0.2375	-0.036
Mof_N 	N 	0.337	0.9173	0.2007	-0.096
Mof_C 	C 	0.4463	0.9323	0.3803	-0.02
Mof_N 	N 	0.4613	0.9581	0.4205	-0.16
Mof_C 	C 	0.4756	0.8628	0.332	-0.029
Mof_N 	N 	0.5058	0.8577	0.3423	-0.164
Mof_C 	C 	0.4221	0.9872	0.2935	-0.028
Mof_N 	N 	0.4252	0.0463	0.2845	-0.172
Mof_C 	C 	0.4343	0.8025	0.3678	-0.034
Mof_N 	N 	0.4426	0.7593	0.4024	-0.163
Mof_C 	C 	0.3782	0.9003	0.3305	-0.031
Mof_N 	N 	0.3575	0.916	0.3446	-0.164
Mof_C 	C 	0.4071	0.766	0.587	-0.055
Mof_N 	N 	0.3993	0.704	0.5896	-0.095
Mof_C 	C 	0.3666	0.888	0.5696	-0.045
Mof_N 	N 	0.3362	0.888	0.5621	-0.097
Mof_C 	C 	0.4263	0.8681	0.6569	-0.021
Mof_N 	N 	0.4317	0.8677	0.6994	-0.169
Mof_C 	C 	0.4526	0.9289	0.5527	-0.028
Mof_N 	N 	0.4673	0.9608	0.5344	-0.158
Mof_C 	C 	0.4207	0.9809	0.599	-0.012
Mof_C 	C 	0.4778	0.853	0.6366	-0.031
Mof_N 	N 	0.508	0.8454	0.6697	-0.163
Mof_C 	C 	0.4368	0.8049	0.5367	-0.04
Mof_N 	N 	0.446	0.7635	0.5141	-0.16
Mof_C 	C 	0.3819	0.899	0.4976	-0.028
Mof_N 	N 	0.3626	0.9194	0.4541	-0.169
Mof_C 	C 	0.3998	0.319	0.3901	-0.046
Mof_N 	N 	0.3989	0.374	0.3672	-0.097
Mof_C 	C 	0.3926	0.308	0.471	-0.041
Mof_N 	N 	0.374	0.338	0.484	-0.096
Mof_C 	C 	0.347	0.239	0.381	-0.058
Mof_N 	N 	0.316	0.236	0.334	-0.096
Mof_C 	C 	0.4475	0.1419	0.4622	-0.009
Mof_N 	N 	0.4687	0.1007	0.4779	-0.166
Mof_C 	C 	0.4163	0.1955	0.5105	-0.05
Mof_C 	C 	0.4145	0.197	0.3681	-0.022
Mof_N 	N 	0.4237	0.18	0.3392	-0.17
Mof_C 	C 	0.4578	0.2766	0.4759	-0.03
Mof_N 	N 	0.4869	0.2999	0.4978	-0.172
Mof_C 	C 	0.3782	0.1229	0.4127	-0.032
Mof_N 	N 	0.3631	0.0693	0.4025	-0.171
Mof_N 	N 	0.3724	0.1756	0.5948	-0.202
Mof_C 	C 	0.3497	0.1382	0.6048	0.115
Mof_H 	H 	0.3594	0.1015	0.6302	-0.006
Mof_C 	C 	0.313	0.152	0.5792	-0.184
Mof_H 	H 	0.2971	0.1215	0.5846	0.094
Mof_C 	C 	0.2979	0.208	0.5454	0.127
Mof_C 	C 	0.3222	0.25	0.5367	-0.177
Mof_H 	H 	0.3138	0.2887	0.5132	0.095
Mof_C 	C 	0.3589	0.231	0.5645	0.113
Mof_H 	H 	0.3761	0.2604	0.5614	-0.006
Mof_C 	C 	0.2594	0.224	0.5165	-0.091
Mof_H 	H 	0.2442	0.1922	0.522	0.06
Mof_N 	N 	0.4449	0.2649	0.6575	-0.199
Mof_C 	C 	0.4519	0.3139	0.6308	0.098
Mof_H 	H 	0.4557	0.2996	0.6028	-0.009
Mof_C 	C 	0.4536	0.3844	0.6427	-0.172
Mof_H 	H 	0.4591	0.4176	0.6232	0.081
Mof_C 	C 	0.4476	0.4075	0.6824	0.125
Mof_C 	C 	0.4485	0.3569	0.7166	-0.173
Mof_H 	H 	0.4509	0.369	0.7497	0.09
Mof_C 	C 	0.4457	0.2882	0.7009	0.105
Mof_H 	H 	0.4442	0.2539	0.7233	-0.006
Mof_C 	C 	0.4486	0.482	0.694	-0.091
Mof_H 	H 	0.4514	0.5147	0.6717	0.059
Mof_N 	N 	0.4373	0.7275	0.7594	-0.198
Mof_C 	C 	0.4383	0.6774	0.792	0.095
Mof_H 	H 	0.4373	0.6915	0.8224	-0.002
Mof_C 	C 	0.4407	0.6063	0.7845	-0.168
Mof_H 	H 	0.4404	0.573	0.8084	0.085
Mof_C 	C 	0.4435	0.5843	0.7417	0.114
Mof_C 	C 	0.4532	0.6364	0.718	-0.165
Mof_H 	H 	0.4638	0.6244	0.6969	0.088
Mof_C 	C 	0.4475	0.7059	0.725	0.097
Mof_H 	H 	0.451	0.7403	0.7046	-0.004
Mof_C 	C 	0.4457	0.508	0.735	-0.08
Mof_H 	H 	0.4451	0.4763	0.7597	0.054
Mof_N 	N 	0.3689	0.1662	0.2222	-0.202
Mof_C 	C 	0.3496	0.217	0.229	0.07
Mof_H 	H 	0.3626	0.2532	0.2544	0.005
Mof_C 	C 	0.3113	0.219	0.201	-0.126
Mof_H 	H 	0.2986	0.2587	0.2038	0.071
Mof_C 	C 	0.3112	0.114	0.158	-0.113
Mof_H 	H 	0.2988	0.0781	0.1328	0.069
Mof_C 	C 	0.3493	0.119	0.1851	0.059
Mof_H 	H 	0.3626	0.0855	0.1767	0.011
Mof_C 	C 	0.2914	0.164	0.1681	0.137
Mof_C 	C 	0.2472	0.157	0.136	-0.091
Mof_H 	H 	0.2356	0.1482	0.0992	0.055
Mof_N 	N 	0.1091	0.1683	0.0768	-0.2
Mof_C 	C 	0.1283	0.156	0.0522	0.088
Mof_H 	H 	0.1149	0.1502	0.015	-0.01
Mof_C 	C 	0.1666	0.152	0.0778	-0.16
Mof_H 	H 	0.1787	0.1417	0.0584	0.081
Mof_C 	C 	0.1869	0.163	0.1312	0.102
Mof_C 	C 	0.1673	0.165	0.1578	-0.161
Mof_H 	H 	0.18	0.1631	0.1953	0.082
Mof_C 	C 	0.1291	0.171	0.1297	0.086
Mof_H 	H 	0.1163	0.1775	0.1487	-0.004
Mof_C 	C 	0.228	0.161	0.155	-0.075
Mof_H 	H 	0.2415	0.1636	0.1923	0.052
Mof_N 	N 	0.4254	0.1564	0.5493	-0.153
Mof_N 	N 	0.4234	0.0372	0.6115	-0.172
Mof_C 	C 	0.35	0.129	0.24	0.044
Mof_C 	C 	0.312	0.135	0.218	-0.108
Mof_C 	C 	0.3108	0.188	0.1443	-0.091
Mof_C 	C 	0.3491	0.191	0.173	0.034
Mof_H 	H 	0.3632	0.098	0.2688	0.008
Mof_H 	H 	0.3002	0.1184	0.2363	0.06
Mof_H 	H 	0.2979	0.2028	0.1085	0.06
Mof_H 	H 	0.3618	0.212	0.1573	0.021
Mof_W 	W 	0.91767	0.37888	0.30568	0.525
Mof_W 	W 	0.92088	0.37204	0.57921	0.528
Mof_W 	W 	0.90505	0.72427	0.43312	0.531
Mof_Mn	Mn	0.93418	0.6498	0.63196	0.731
Mof_Mn	Mn	0.93139	0.6566	0.27255	0.739
Mof_Mn	Mn	0.95249	0.185	0.46456	0.638
Mof_Mn	Mn	0.82901	0.4731	0.38021	0.588
Mof_C 	C 	0.9268	0.3749	0.238	-0.012
Mof_N 	N 	0.9322	0.3737	0.2042	-0.171
Mof_C 	C 	0.8953	0.281	0.2722	-0.055
Mof_N 	N 	0.8838	0.225	0.2566	-0.094
Mof_C 	C 	0.865	0.4056	0.2375	-0.038
Mof_N 	N 	0.837	0.4173	0.2007	-0.098
Mof_C 	C 	0.9463	0.4323	0.3803	-0.021
Mof_N 	N 	0.9613	0.4581	0.4205	-0.162
Mof_C 	C 	0.9756	0.3628	0.332	-0.026
Mof_N 	N 	0.0058	0.3577	0.3423	-0.168
Mof_C 	C 	0.9221	0.4872	0.2935	-0.038
Mof_N 	N 	0.9252	0.5463	0.2845	-0.165
Mof_C 	C 	0.9343	0.3025	0.3678	-0.034
Mof_N 	N 	0.9426	0.2593	0.4024	-0.163
Mof_C 	C 	0.8782	0.4003	0.3305	-0.032
Mof_N 	N 	0.8575	0.416	0.3446	-0.164
Mof_C 	C 	0.9071	0.266	0.587	-0.055
Mof_N 	N 	0.8993	0.204	0.5896	-0.095
Mof_C 	C 	0.8666	0.388	0.5696	-0.046
Mof_N 	N 	0.8362	0.388	0.5621	-0.098
Mof_C 	C 	0.9263	0.3681	0.6569	-0.022
Mof_N 	N 	0.9317	0.3677	0.6994	-0.169
Mof_C 	C 	0.9526	0.4289	0.5527	-0.029
Mof_N 	N 	0.9673	0.4608	0.5344	-0.16
Mof_C 	C 	0.9207	0.4809	0.599	-0.023
Mof_C 	C 	0.9778	0.353	0.6366	-0.027
Mof_N 	N 	0.008	0.3454	0.6697	-0.166
Mof_C 	C 	0.9368	0.3049	0.5367	-0.04
Mof_N 	N 	0.946	0.2635	0.5141	-0.16
Mof_C 	C 	0.8819	0.399	0.4976	-0.029
Mof_N 	N 	0.8626	0.4194	0.4541	-0.169
Mof_C 	C 	0.8998	0.819	0.3901	-0.046
Mof_N 	N 	0.8989	0.874	0.3672	-0.095
Mof_C 	C 	0.8926	0.808	0.471	-0.04
Mof_N 	N 	0.874	0.838	0.484	-0.095
Mof_C 	C 	0.847	0.739	0.381	-0.057
Mof_N 	N 	0.816	0.736	0.334	-0.095
Mof_C 	C 	0.9475	0.6419	0.4622	-0.007
Mof_N 	N 	0.9687	0.6007	0.4779	-0.165
Mof_C 	C 	0.9163	0.6955	0.5105	-0.049
Mof_C 	C 	0.9145	0.697	0.3681	-0.021
Mof_N 	N 	0.9237	0.68	0.3392	-0.17
Mof_C 	C 	0.9578	0.7766	0.4759	-0.029
Mof_N 	N 	0.9869	0.7999	0.4978	-0.17
Mof_C 	C 	0.8782	0.6229	0.4127	-0.031
Mof_N 	N 	0.8631	0.5693	0.4025	-0.167
Mof_N 	N 	0.8724	0.6756	0.5948	-0.202
Mof_C 	C 	0.8497	0.6382	0.6048	0.116
Mof_H 	H 	0.8594	0.6015	0.6302	-0.005
Mof_C 	C 	0.813	0.652	0.5792	-0.184
Mof_H 	H 	0.7971	0.6215	0.5846	0.095
Mof_C 	C 	0.7979	0.708	0.5454	0.129
Mof_C 	C 	0.8222	0.75	0.5367	-0.177
Mof_H 	H 	0.8138	0.7887	0.5132	0.096
Mof_C 	C 	0.8589	0.731	0.5645	0.113
Mof_H 	H 	0.8761	0.7604	0.5614	-0.006
Mof_C 	C 	0.7594	0.724	0.5165	-0.09
Mof_H 	H 	0.7442	0.6922	0.522	0.061
Mof_N 	N 	0.9449	0.7649	0.6575	-0.196
Mof_C 	C 	0.9519	0.8139	0.6308	0.091
Mof_H 	H 	0.9557	0.7996	0.6028	-0.006
Mof_C 	C 	0.9536	0.8844	0.6427	-0.156
Mof_H 	H 	0.9591	0.9176	0.6232	0.079
Mof_C 	C 	0.9476	0.9075	0.6824	0.101
Mof_C 	C 	0.9485	0.8569	0.7166	-0.157
Mof_H 	H 	0.9509	0.869	0.7497	0.085
Mof_C 	C 	0.9457	0.7882	0.7009	0.098
Mof_H 	H 	0.9442	0.7539	0.7233	-0.003
Mof_C 	C 	0.9486	0.982	0.694	-0.036
Mof_H 	H 	0.9514	0.0147	0.6717	0.036
Mof_N 	N 	0.9373	0.2275	0.7594	-0.201
Mof_C 	C 	0.9383	0.1774	0.792	0.102
Mof_H 	H 	0.9373	0.1915	0.8224	-0.005
Mof_C 	C 	0.9407	0.1063	0.7845	-0.183
Mof_H 	H 	0.9404	0.073	0.8084	0.088
Mof_C 	C 	0.9435	0.0843	0.7417	0.138
Mof_C 	C 	0.9532	0.1364	0.718	-0.18
Mof_H 	H 	0.9638	0.1244	0.6969	0.095
Mof_C 	C 	0.9475	0.2059	0.725	0.105
Mof_H 	H 	0.951	0.2403	0.7046	-0.006
Mof_C 	C 	0.9457	0.008	0.735	-0.134
Mof_H 	H 	0.9451	0.9763	0.7597	0.077
Mof_N 	N 	0.8689	0.6662	0.2222	-0.202
Mof_C 	C 	0.8496	0.717	0.229	0.071
Mof_H 	H 	0.8626	0.7532	0.2544	0.006
Mof_C 	C 	0.8113	0.719	0.201	-0.126
Mof_H 	H 	0.7986	0.7587	0.2038	0.071
Mof_C 	C 	0.8112	0.614	0.158	-0.113
Mof_H 	H 	0.7988	0.5781	0.1328	0.071
Mof_C 	C 	0.8493	0.619	0.1851	0.06
Mof_H 	H 	0.8626	0.5855	0.1767	0.012
Mof_C 	C 	0.7914	0.664	0.1681	0.137
Mof_C 	C 	0.7472	0.657	0.136	-0.09
Mof_H 	H 	0.7356	0.6482	0.0992	0.056
Mof_N 	N 	0.6091	0.6683	0.0768	-0.2
Mof_C 	C 	0.6283	0.656	0.0522	0.089
Mof_H 	H 	0.6149	0.6502	0.015	-0.01
Mof_C 	C 	0.6666	0.652	0.0778	-0.16
Mof_H 	H 	0.6787	0.6417	0.0584	0.082
Mof_C 	C 	0.6869	0.663	0.1312	0.103
Mof_C 	C 	0.6673	0.665	0.1578	-0.161
Mof_H 	H 	0.68	0.6631	0.1953	0.083
Mof_C 	C 	0.6291	0.671	0.1297	0.086
Mof_H 	H 	0.6163	0.6775	0.1487	-0.004
Mof_C 	C 	0.728	0.661	0.155	-0.075
Mof_H 	H 	0.7415	0.6636	0.1923	0.052
Mof_N 	N 	0.9254	0.6564	0.5493	-0.152
Mof_N 	N 	0.9234	0.5372	0.6115	-0.164
Mof_C 	C 	0.85	0.629	0.24	0.044
Mof_C 	C 	0.812	0.635	0.218	-0.108
Mof_C 	C 	0.8108	0.688	0.1443	-0.091
Mof_C 	C 	0.8491	0.691	0.173	0.034
Mof_H 	H 	0.8632	0.598	0.2688	0.009
Mof_H 	H 	0.8002	0.6184	0.2363	0.061
Mof_H 	H 	0.7979	0.7028	0.1085	0.06
Mof_H 	H 	0.8618	0.712	0.1573	0.021
Mof_W 	W 	0.58233	0.87888	0.19432	0.525
Mof_W 	W 	0.57912	0.87204	0.92079	0.532
Mof_W 	W 	0.59495	0.22427	0.06688	0.526
Mof_Mn	Mn	0.56582	0.1498	0.86804	0.73
Mof_Mn	Mn	0.56861	0.1566	0.22745	0.738
Mof_Mn	Mn	0.54751	0.685	0.03544	0.626
Mof_Mn	Mn	0.67099	0.9731	0.11979	0.594
Mof_C 	C 	0.5732	0.8749	0.262	-0.012
Mof_N 	N 	0.5678	0.8737	0.2958	-0.17
Mof_C 	C 	0.6047	0.781	0.2278	-0.055
Mof_N 	N 	0.6162	0.725	0.2434	-0.093
Mof_C 	C 	0.635	0.9056	0.2625	-0.036
Mof_N 	N 	0.663	0.9173	0.2993	-0.096
Mof_C 	C 	0.5537	0.9323	0.1197	-0.021
Mof_N 	N 	0.5387	0.9581	0.0795	-0.16
Mof_C 	C 	0.5244	0.8628	0.168	-0.03
Mof_N 	N 	0.4942	0.8577	0.1577	-0.164
Mof_C 	C 	0.5779	0.9872	0.2065	-0.028
Mof_N 	N 	0.5748	0.0463	0.2155	-0.172
Mof_C 	C 	0.5657	0.8025	0.1322	-0.035
Mof_N 	N 	0.5574	0.7593	0.0976	-0.164
Mof_C 	C 	0.6218	0.9003	0.1695	-0.031
Mof_N 	N 	0.6425	0.916	0.1554	-0.164
Mof_C 	C 	0.5929	0.766	0.913	-0.054
Mof_N 	N 	0.6007	0.704	0.9104	-0.093
Mof_C 	C 	0.6334	0.888	0.9304	-0.042
Mof_N 	N 	0.6638	0.888	0.9379	-0.096
Mof_C 	C 	0.5737	0.8681	0.8431	-0.022
Mof_N 	N 	0.5683	0.8677	0.8006	-0.169
Mof_C 	C 	0.5474	0.9289	0.9473	-0.026
Mof_N 	N 	0.5327	0.9608	0.9656	-0.154
Mof_C 	C 	0.5793	0.9809	0.901	-0.011
Mof_C 	C 	0.5222	0.853	0.8634	-0.031
Mof_N 	N 	0.492	0.8454	0.8303	-0.162
Mof_C 	C 	0.5632	0.8049	0.9633	-0.037
Mof_N 	N 	0.554	0.7635	0.9859	-0.156
Mof_C 	C 	0.6181	0.899	0.0024	-0.038
Mof_N 	N 	0.6374	0.9194	0.0459	-0.168
Mof_C 	C 	0.6002	0.319	0.1099	-0.046
Mof_N 	N 	0.6011	0.374	0.1328	-0.098
Mof_C 	C 	0.6074	0.308	0.029	-0.045
Mof_N 	N 	0.626	0.338	0.016	-0.099
Mof_C 	C 	0.653	0.239	0.119	-0.059
Mof_N 	N 	0.684	0.236	0.166	-0.097
Mof_C 	C 	0.5525	0.1419	0.0378	-0.012
Mof_N 	N 	0.5313	0.1007	0.0221	-0.167
Mof_C 	C 	0.5837	0.1955	0.9895	-0.04
Mof_C 	C 	0.5855	0.197	0.1319	-0.021
Mof_N 	N 	0.5763	0.18	0.1608	-0.17
Mof_C 	C 	0.5422	0.2766	0.0241	-0.032
Mof_N 	N 	0.5131	0.2999	0.0022	-0.177
Mof_C 	C 	0.6218	0.1229	0.0873	-0.034
Mof_N 	N 	0.6369	0.0693	0.0975	-0.171
Mof_N 	N 	0.6276	0.1756	0.9052	-0.2
Mof_C 	C 	0.6503	0.1382	0.8952	0.112
Mof_H 	H 	0.6406	0.1015	0.8698	-0.004
Mof_C 	C 	0.687	0.152	0.9208	-0.176
Mof_H 	H 	0.7029	0.1215	0.9154	0.092
Mof_C 	C 	0.7021	0.208	0.9546	0.117
Mof_C 	C 	0.6778	0.25	0.9633	-0.169
Mof_H 	H 	0.6862	0.2887	0.9868	0.095
Mof_C 	C 	0.6411	0.231	0.9355	0.11
Mof_H 	H 	0.6239	0.2604	0.9386	-0.004
Mof_C 	C 	0.7406	0.224	0.9835	-0.064
Mof_H 	H 	0.7558	0.1922	0.978	0.055
Mof_N 	N 	0.5551	0.2649	0.8425	-0.199
Mof_C 	C 	0.5481	0.3139	0.8692	0.098
Mof_H 	H 	0.5443	0.2996	0.8972	-0.008
Mof_C 	C 	0.5464	0.3844	0.8573	-0.172
Mof_H 	H 	0.5409	0.4176	0.8768	0.083
Mof_C 	C 	0.5524	0.4075	0.8176	0.126
Mof_C 	C 	0.5515	0.3569	0.7834	-0.173
Mof_H 	H 	0.5491	0.369	0.7503	0.09
Mof_C 	C 	0.5543	0.2882	0.7991	0.105
Mof_H 	H 	0.5558	0.2539	0.7767	-0.006
Mof_C 	C 	0.5514	0.482	0.806	-0.091
Mof_H 	H 	0.5486	0.5147	0.8283	0.06
Mof_N 	N 	0.5627	0.7275	0.7406	-0.198
Mof_C 	C 	0.5617	0.6774	0.708	0.095
Mof_H 	H 	0.5627	0.6915	0.6776	-0.003
Mof_C 	C 	0.5593	0.6063	0.7155	-0.168
Mof_H 	H 	0.5596	0.573	0.6916	0.084
Mof_C 	C 	0.5565	0.5843	0.7583	0.115
Mof_C 	C 	0.5468	0.6364	0.782	-0.165
Mof_H 	H 	0.5362	0.6244	0.8031	0.089
Mof_C 	C 	0.5525	0.7059	0.775	0.097
Mof_H 	H 	0.549	0.7403	0.7954	-0.004
Mof_C 	C 	0.5543	0.508	0.765	-0.08
Mof_H 	H 	0.5549	0.4763	0.7403	0.053
Mof_N 	N 	0.6311	0.1662	0.2778	-0.202
Mof_C 	C 	0.6504	0.217	0.271	0.07
Mof_H 	H 	0.6374	0.2532	0.2456	0.005
Mof_C 	C 	0.6887	0.219	0.299	-0.126
Mof_H 	H 	0.7014	0.2587	0.2962	0.071
Mof_C 	C 	0.6888	0.114	0.342	-0.113
Mof_H 	H 	0.7012	0.0781	0.3672	0.07
Mof_C 	C 	0.6507	0.119	0.3149	0.059
Mof_H 	H 	0.6374	0.0855	0.3233	0.011
Mof_C 	C 	0.7086	0.164	0.3319	0.138
Mof_C 	C 	0.7528	0.157	0.364	-0.092
Mof_H 	H 	0.7644	0.1482	0.4008	0.057
Mof_N 	N 	0.8909	0.1683	0.4232	-0.2
Mof_C 	C 	0.8717	0.156	0.4478	0.089
Mof_H 	H 	0.8851	0.1502	0.485	-0.007
Mof_C 	C 	0.8334	0.152	0.4222	-0.16
Mof_H 	H 	0.8213	0.1417	0.4416	0.083
Mof_C 	C 	0.8131	0.163	0.3688	0.102
Mof_C 	C 	0.8327	0.165	0.3422	-0.161
Mof_H 	H 	0.82	0.1631	0.3047	0.081
Mof_C 	C 	0.8709	0.171	0.3703	0.086
Mof_H 	H 	0.8837	0.1775	0.3513	-0.004
Mof_C 	C 	0.772	0.161	0.345	-0.074
Mof_H 	H 	0.7585	0.1636	0.3077	0.051
Mof_N 	N 	0.5746	0.1564	0.9507	-0.153
Mof_N 	N 	0.5766	0.0372	0.8885	-0.172
Mof_C 	C 	0.65	0.129	0.26	0.044
Mof_C 	C 	0.688	0.135	0.282	-0.109
Mof_C 	C 	0.6892	0.188	0.3557	-0.091
Mof_C 	C 	0.6509	0.191	0.327	0.035
Mof_H 	H 	0.6368	0.098	0.2312	0.008
Mof_H 	H 	0.6998	0.1184	0.2637	0.06
Mof_H 	H 	0.7021	0.2028	0.3915	0.061
Mof_H 	H 	0.6382	0.212	0.3427	0.021
Mof_W 	W 	0.08233	0.37888	0.19432	0.527
Mof_W 	W 	0.07912	0.37204	0.92079	0.534
Mof_W 	W 	0.09495	0.72427	0.06688	0.526
Mof_Mn	Mn	0.06582	0.6498	0.86804	0.73
Mof_Mn	Mn	0.06861	0.6566	0.22745	0.738
Mof_Mn	Mn	0.04751	0.185	0.03544	0.621
Mof_Mn	Mn	0.17099	0.4731	0.11979	0.586
Mof_C 	C 	0.0732	0.3749	0.262	-0.013
Mof_N 	N 	0.0678	0.3737	0.2958	-0.171
Mof_C 	C 	0.1047	0.281	0.2278	-0.055
Mof_N 	N 	0.1162	0.225	0.2434	-0.093
Mof_C 	C 	0.135	0.4056	0.2625	-0.038
Mof_N 	N 	0.163	0.4173	0.2993	-0.098
Mof_C 	C 	0.0537	0.4323	0.1197	-0.022
Mof_N 	N 	0.0387	0.4581	0.0795	-0.164
Mof_C 	C 	0.0244	0.3628	0.168	-0.036
Mof_N 	N 	0.9942	0.3577	0.1577	-0.161
Mof_C 	C 	0.0779	0.4872	0.2065	-0.039
Mof_N 	N 	0.0748	0.5463	0.2155	-0.165
Mof_C 	C 	0.0657	0.3025	0.1322	-0.036
Mof_N 	N 	0.0574	0.2593	0.0976	-0.164
Mof_C 	C 	0.1218	0.4003	0.1695	-0.033
Mof_N 	N 	0.1425	0.416	0.1554	-0.164
Mof_C 	C 	0.0929	0.266	0.913	-0.054
Mof_N 	N 	0.1007	0.204	0.9104	-0.094
Mof_C 	C 	0.1334	0.388	0.9304	-0.043
Mof_N 	N 	0.1638	0.388	0.9379	-0.097
Mof_C 	C 	0.0737	0.3681	0.8431	-0.023
Mof_N 	N 	0.0683	0.3677	0.8006	-0.169
Mof_C 	C 	0.0474	0.4289	0.9473	-0.028
Mof_N 	N 	0.0327	0.4608	0.9656	-0.158
Mof_C 	C 	0.0793	0.4809	0.901	-0.023
Mof_C 	C 	0.0222	0.353	0.8634	-0.037
Mof_N 	N 	0.992	0.3454	0.8303	-0.159
Mof_C 	C 	0.0632	0.3049	0.9633	-0.038
Mof_N 	N 	0.054	0.2635	0.9859	-0.156
Mof_C 	C 	0.1181	0.399	0.0024	-0.04
Mof_N 	N 	0.1374	0.4194	0.0459	-0.169
Mof_C 	C 	0.1002	0.819	0.1099	-0.046
Mof_N 	N 	0.1011	0.874	0.1328	-0.096
Mof_C 	C 	0.1074	0.808	0.029	-0.044
Mof_N 	N 	0.126	0.838	0.016	-0.098
Mof_C 	C 	0.153	0.739	0.119	-0.058
Mof_N 	N 	0.184	0.736	0.166	-0.096
Mof_C 	C 	0.0525	0.6419	0.0378	-0.011
Mof_N 	N 	0.0313	0.6007	0.0221	-0.167
Mof_C 	C 	0.0837	0.6955	0.9895	-0.039
Mof_C 	C 	0.0855	0.697	0.1319	-0.021
Mof_N 	N 	0.0763	0.68	0.1608	-0.17
Mof_C 	C 	0.0422	0.7766	0.0241	-0.032
Mof_N 	N 	0.0131	0.7999	0.0022	-0.178
Mof_C 	C 	0.1218	0.6229	0.0873	-0.033
Mof_N 	N 	0.1369	0.5693	0.0975	-0.167
Mof_N 	N 	0.1276	0.6756	0.9052	-0.2
Mof_C 	C 	0.1503	0.6382	0.8952	0.113
Mof_H 	H 	0.1406	0.6015	0.8698	-0.003
Mof_C 	C 	0.187	0.652	0.9208	-0.176
Mof_H 	H 	0.2029	0.6215	0.9154	0.094
Mof_C 	C 	0.2021	0.708	0.9546	0.118
Mof_C 	C 	0.1778	0.75	0.9633	-0.169
Mof_H 	H 	0.1862	0.7887	0.9868	0.096
Mof_C 	C 	0.1411	0.731	0.9355	0.111
Mof_H 	H 	0.1239	0.7604	0.9386	-0.003
Mof_C 	C 	0.2406	0.724	0.9835	-0.064
Mof_H 	H 	0.2558	0.6922	0.978	0.055
Mof_N 	N 	0.0551	0.7649	0.8425	-0.196
Mof_C 	C 	0.0481	0.8139	0.8692	0.09
Mof_H 	H 	0.0443	0.7996	0.8972	-0.006
Mof_C 	C 	0.0464	0.8844	0.8573	-0.156
Mof_H 	H 	0.0409	0.9176	0.8768	0.079
Mof_C 	C 	0.0524	0.9075	0.8176	0.101
Mof_C 	C 	0.0515	0.8569	0.7834	-0.157
Mof_H 	H 	0.0491	0.869	0.7503	0.084
Mof_C 	C 	0.0543	0.7882	0.7991	0.097
Mof_H 	H 	0.0558	0.7539	0.7767	-0.004
Mof_C 	C 	0.0514	0.982	0.806	-0.037
Mof_H 	H 	0.0486	0.0147	0.8283	0.036
Mof_N 	N 	0.0627	0.2275	0.7406	-0.201
Mof_C 	C 	0.0617	0.1774	0.708	0.101
Mof_H 	H 	0.0627	0.1915	0.6776	-0.005
Mof_C 	C 	0.0593	0.1063	0.7155	-0.183
Mof_H 	H 	0.0596	0.073	0.6916	0.087
Mof_C 	C 	0.0565	0.0843	0.7583	0.137
Mof_C 	C 	0.0468	0.1364	0.782	-0.181
Mof_H 	H 	0.0362	0.1244	0.8031	0.093
Mof_C 	C 	0.0525	0.2059	0.775	0.104
Mof_H 	H 	0.049	0.2403	0.7954	-0.007
Mof_C 	C 	0.0543	0.008	0.765	-0.134
Mof_H 	H 	0.0549	0.9763	0.7403	0.076
Mof_N 	N 	0.1311	0.6662	0.2778	-0.202
Mof_C 	C 	0.1504	0.717	0.271	0.071
Mof_H 	H 	0.1374	0.7532	0.2456	0.006
Mof_C 	C 	0.1887	0.719	0.299	-0.126
Mof_H 	H 	0.2014	0.7587	0.2962	0.072
Mof_C 	C 	0.1888	0.614	0.342	-0.113
Mof_H 	H 	0.2012	0.5781	0.3672	0.072
Mof_C 	C 	0.1507	0.619	0.3149	0.06
Mof_H 	H 	0.1374	0.5855	0.3233	0.012
Mof_C 	C 	0.2086	0.664	0.3319	0.138
Mof_C 	C 	0.2528	0.657	0.364	-0.091
Mof_H 	H 	0.2644	0.6482	0.4008	0.057
Mof_N 	N 	0.3909	0.6683	0.4232	-0.2
Mof_C 	C 	0.3717	0.656	0.4478	0.09
Mof_H 	H 	0.3851	0.6502	0.485	-0.007
Mof_C 	C 	0.3334	0.652	0.4222	-0.159
Mof_H 	H 	0.3213	0.6417	0.4416	0.084
Mof_C 	C 	0.3131	0.663	0.3688	0.103
Mof_C 	C 	0.3327	0.665	0.3422	-0.161
Mof_H 	H 	0.32	0.6631	0.3047	0.083
Mof_C 	C 	0.3709	0.671	0.3703	0.087
Mof_H 	H 	0.3837	0.6775	0.3513	-0.004
Mof_C 	C 	0.272	0.661	0.345	-0.074
Mof_H 	H 	0.2585	0.6636	0.3077	0.052
Mof_N 	N 	0.0746	0.6564	0.9507	-0.152
Mof_N 	N 	0.0766	0.5372	0.8885	-0.164
Mof_C 	C 	0.15	0.629	0.26	0.044
Mof_C 	C 	0.188	0.635	0.282	-0.108
Mof_C 	C 	0.1892	0.688	0.3557	-0.091
Mof_C 	C 	0.1509	0.691	0.327	0.035
Mof_H 	H 	0.1368	0.598	0.2312	0.01
Mof_H 	H 	0.1998	0.6184	0.2637	0.061
Mof_H 	H 	0.2021	0.7028	0.3915	0.062
Mof_H 	H 	0.1382	0.712	0.3427	0.021
Mof_Mn	Mn	0.5	-1.00276e-32	0.5	0.74
Mof_Mn	Mn	-2.25802e-17	0.5	0.5	0.746
Mof_Mn	Mn	0.5	0	-0	0.726
Mof_Mn	Mn	2.50691e-33	0.5	-0	0.733
_end
