data_functionalizedCrystal
_audit_creation_method	'EQeq! by Chris Wilmer'
_symmetry_space_group_name_H-M	'P1'
_symmetry_Int_Tables_number	1
_symmetry_cell_setting	triclinic
loop_
_symmetry_equiv_pos_as_xyz
  x,y,z
_cell_length_a	12.8708
_cell_length_b	12.8708
_cell_length_c	17.2433
_cell_angle_alpha	90
_cell_angle_beta	90
_cell_angle_gamma	120
loop_
_atom_site_label
_atom_site_type_symbol
_atom_site_fract_x
_atom_site_fract_y
_atom_site_fract_z
_atom_site_charge
Mof_O 	O 	0.6808	0.8195	0.0105	-0.464
Mof_O 	O 	0.4923	0.6964	0.9849	-0.387
Mof_O 	O 	0.3402	0.9837	0.1995	-0.42
Mof_O 	O 	0.5135	0.024	0.2456	-0.541
Mof_C 	C 	0.5446	0.8996	0.0124	0.068
Mof_C 	C 	0.4631	0.8738	0.0851	0.479
Mof_C 	C 	0.4887	0.0013	0.1065	-0.447
Mof_H 	H 	0.448	0.0269	0.0696	0.117
Mof_C 	C 	0.6254	0.0786	0.0958	0.312
Mof_H 	H 	0.6476	0.1602	0.082	-0.111
Mof_H 	H 	0.6669	0.0803	0.1432	-0.074
Mof_C 	C 	0.6551	0.0216	0.0334	-0.579
Mof_H 	H 	0.7205	0.0095	0.0496	0.179
Mof_H 	H 	0.6812	0.0734	0.9882	0.224
Mof_C 	C 	0.4861	0.9071	0.938	-0.471
Mof_H 	H 	0.5397	0.9226	0.8953	0.187
Mof_H 	H 	0.4682	0.9709	0.942	0.196
Mof_H 	H 	0.4132	0.8326	0.9296	0.179
Mof_C 	C 	0.3223	0.7906	0.0659	-0.832
Mof_H 	H 	0.2764	0.7777	0.1124	0.274
Mof_H 	H 	0.3076	0.7148	0.0459	0.246
Mof_H 	H 	0.299	0.8297	0.028	0.25
Mof_C 	C 	0.4933	0.8132	0.1494	-0.96
Mof_H 	H 	0.577	0.8605	0.1619	0.344
Mof_H 	H 	0.4757	0.7349	0.1327	0.303
Mof_H 	H 	0.4464	0.8058	0.1945	0.333
Mof_C 	C 	0.5746	0.7995	0.0013	0.167
Mof_C 	C 	0.446	0.0045	0.1893	0.326
Mof_O 	O 	0.1805	0.8613	0.34383	-0.487
Mof_O 	O 	0.3036	0.7959	0.31823	-0.474
Mof_O 	O 	0.0163	0.3565	0.53283	-0.572
Mof_O 	O 	0.976	0.4895	0.57893	-0.509
Mof_C 	C 	0.1004	0.645	0.34573	-0.148
Mof_C 	C 	0.1262	0.5893	0.41843	0.381
Mof_C 	C 	0.9987	0.4874	0.43983	-0.266
Mof_H 	H 	0.9731	0.4211	0.40293	0.13
Mof_C 	C 	0.9214	0.5468	0.42913	0.001
Mof_H 	H 	0.8398	0.4874	0.41533	0.008
Mof_H 	H 	0.9197	0.5866	0.47653	0.044
Mof_C 	C 	0.9784	0.6335	0.36673	-0.057
Mof_H 	H 	0.9905	0.711	0.38293	0.085
Mof_H 	H 	0.9266	0.6078	0.32153	0.052
Mof_C 	C 	0.0929	0.579	0.27133	-0.251
Mof_H 	H 	0.0774	0.6171	0.22863	0.067
Mof_H 	H 	0.0291	0.4973	0.27533	0.053
Mof_H 	H 	0.1674	0.5806	0.26293	0.086
Mof_C 	C 	0.2094	0.5317	0.39923	-0.798
Mof_H 	H 	0.2223	0.4987	0.44573	0.258
Mof_H 	H 	0.2852	0.5928	0.37923	0.267
Mof_H 	H 	0.1703	0.4693	0.36133	0.244
Mof_C 	C 	0.1868	0.6801	0.48273	-0.857
Mof_H 	H 	0.1395	0.7165	0.49523	0.275
Mof_H 	H 	0.2651	0.7408	0.46603	0.281
Mof_H 	H 	0.1942	0.6406	0.52783	0.277
Mof_C 	C 	0.2005	0.7751	0.33463	0.319
Mof_C 	C 	0.9955	0.4415	0.52263	0.462
Mof_O 	O 	0.1387	0.3192	0.67717	-0.519
Mof_O 	O 	0.2041	0.5077	0.65157	-0.494
Mof_O 	O 	0.6435	0.6598	0.86617	-0.459
Mof_O 	O 	0.5105	0.4865	0.91227	-0.507
Mof_C 	C 	0.355	0.4554	0.67907	-0.06
Mof_C 	C 	0.4107	0.5369	0.75177	0.453
Mof_C 	C 	0.5126	0.5113	0.77317	-0.34
Mof_H 	H 	0.5789	0.552	0.73627	0.133
Mof_C 	C 	0.4532	0.3746	0.76247	0.084
Mof_H 	H 	0.5126	0.3524	0.74867	-0.02
Mof_H 	H 	0.4134	0.3331	0.80987	0
Mof_C 	C 	0.3665	0.3449	0.70007	-0.192
Mof_H 	H 	0.289	0.2795	0.71627	0.082
Mof_H 	H 	0.3922	0.3188	0.65487	0.07
Mof_C 	C 	0.421	0.5139	0.60467	-0.384
Mof_H 	H 	0.3829	0.4603	0.56197	0.128
Mof_H 	H 	0.5027	0.5318	0.60867	0.127
Mof_H 	H 	0.4194	0.5868	0.59627	0.133
Mof_C 	C 	0.4683	0.6777	0.73257	-0.878
Mof_H 	H 	0.5013	0.7236	0.77907	0.299
Mof_H 	H 	0.4072	0.6924	0.71257	0.291
Mof_H 	H 	0.5307	0.701	0.69467	0.288
Mof_C 	C 	0.3199	0.5067	0.81607	-0.924
Mof_H 	H 	0.2835	0.423	0.82857	0.303
Mof_H 	H 	0.2592	0.5243	0.79937	0.296
Mof_H 	H 	0.3594	0.5536	0.86117	0.311
Mof_C 	C 	0.2249	0.4254	0.66797	0.307
Mof_C 	C 	0.5585	0.554	0.85597	0.378
Mof_O 	O 	0.8195	0.6808	0.9895	-0.444
Mof_O 	O 	0.6964	0.4923	0.0151	-0.567
Mof_O 	O 	0.9837	0.3402	0.8005	-0.401
Mof_O 	O 	0.024	0.5135	0.7544	-0.536
Mof_C 	C 	0.8996	0.5446	0.9876	0.044
Mof_C 	C 	0.8738	0.4631	0.9149	0.527
Mof_C 	C 	0.0013	0.4887	0.8935	-0.389
Mof_H 	H 	0.0269	0.448	0.9304	0.127
Mof_C 	C 	0.0786	0.6254	0.9042	0.067
Mof_H 	H 	0.1602	0.6476	0.918	0.002
Mof_H 	H 	0.0803	0.6669	0.8568	0.004
Mof_C 	C 	0.0216	0.6551	0.9666	-0.157
Mof_H 	H 	0.0095	0.7205	0.9504	0.075
Mof_H 	H 	0.0734	0.6812	0.0118	0.001
Mof_C 	C 	0.9071	0.4861	0.062	-0.587
Mof_H 	H 	0.9226	0.5397	0.1047	0.202
Mof_H 	H 	0.9709	0.4682	0.058	0.187
Mof_H 	H 	0.8326	0.4132	0.0704	0.177
Mof_C 	C 	0.7906	0.3223	0.9341	-0.94
Mof_H 	H 	0.7777	0.2764	0.8876	0.311
Mof_H 	H 	0.7148	0.3076	0.9541	0.321
Mof_H 	H 	0.8297	0.299	0.972	0.326
Mof_C 	C 	0.8132	0.4933	0.8506	-1.024
Mof_H 	H 	0.8605	0.577	0.8381	0.361
Mof_H 	H 	0.7349	0.4757	0.8673	0.333
Mof_H 	H 	0.8058	0.4464	0.8055	0.353
Mof_C 	C 	0.7995	0.5746	0.9987	0.372
Mof_C 	C 	0.0045	0.446	0.8107	0.302
Mof_O 	O 	0.8613	0.1805	0.65617	-0.481
Mof_O 	O 	0.7959	0.3036	0.68177	-0.472
Mof_O 	O 	0.3565	0.0163	0.46717	-0.57
Mof_O 	O 	0.4895	0.976	0.42107	-0.511
Mof_C 	C 	0.645	0.1004	0.65427	-0.137
Mof_C 	C 	0.5893	0.1262	0.58157	0.382
Mof_C 	C 	0.4874	0.9987	0.56017	-0.269
Mof_H 	H 	0.4211	0.9731	0.59707	0.131
Mof_C 	C 	0.5468	0.9214	0.57087	0.009
Mof_H 	H 	0.4874	0.8398	0.58467	0.006
Mof_H 	H 	0.5866	0.9197	0.52347	0.041
Mof_C 	C 	0.6335	0.9784	0.63327	-0.07
Mof_H 	H 	0.711	0.9905	0.61707	0.09
Mof_H 	H 	0.6078	0.9266	0.67847	0.057
Mof_C 	C 	0.579	0.0929	0.72867	-0.273
Mof_H 	H 	0.6171	0.0774	0.77137	0.079
Mof_H 	H 	0.4973	0.0291	0.72467	0.063
Mof_H 	H 	0.5806	0.1674	0.73707	0.096
Mof_C 	C 	0.5317	0.2094	0.60077	-0.801
Mof_H 	H 	0.4987	0.2223	0.55427	0.259
Mof_H 	H 	0.5928	0.2852	0.62077	0.267
Mof_H 	H 	0.4693	0.1703	0.63867	0.247
Mof_C 	C 	0.6801	0.1868	0.51727	-0.857
Mof_H 	H 	0.7165	0.1395	0.50477	0.276
Mof_H 	H 	0.7408	0.2651	0.53397	0.282
Mof_H 	H 	0.6406	0.1942	0.47217	0.278
Mof_C 	C 	0.7751	0.2005	0.66537	0.316
Mof_C 	C 	0.4415	0.9955	0.47737	0.461
Mof_O 	O 	0.3192	0.1387	0.32283	-0.522
Mof_O 	O 	0.5077	0.2041	0.34843	-0.494
Mof_O 	O 	0.6598	0.6435	0.13383	-0.49
Mof_O 	O 	0.4865	0.5105	0.08773	-0.56
Mof_C 	C 	0.4554	0.355	0.32093	-0.052
Mof_C 	C 	0.5369	0.4107	0.24823	0.438
Mof_C 	C 	0.5113	0.5126	0.22683	-0.348
Mof_H 	H 	0.552	0.5789	0.26373	0.135
Mof_C 	C 	0.3746	0.4532	0.23753	0.099
Mof_H 	H 	0.3524	0.5126	0.25133	-0.028
Mof_H 	H 	0.3331	0.4134	0.19013	-0.016
Mof_C 	C 	0.3449	0.3665	0.29993	-0.202
Mof_H 	H 	0.2795	0.289	0.28373	0.081
Mof_H 	H 	0.3188	0.3922	0.34513	0.072
Mof_C 	C 	0.5139	0.421	0.39533	-0.392
Mof_H 	H 	0.4603	0.3829	0.43803	0.13
Mof_H 	H 	0.5318	0.5027	0.39133	0.13
Mof_H 	H 	0.5868	0.4194	0.40373	0.136
Mof_C 	C 	0.6777	0.4683	0.26743	-0.857
Mof_H 	H 	0.7236	0.5013	0.22093	0.287
Mof_H 	H 	0.6924	0.4072	0.28743	0.284
Mof_H 	H 	0.701	0.5307	0.30533	0.28
Mof_C 	C 	0.5067	0.3199	0.18393	-0.882
Mof_H 	H 	0.423	0.2835	0.17143	0.28
Mof_H 	H 	0.5243	0.2592	0.20063	0.28
Mof_H 	H 	0.5536	0.3594	0.13883	0.288
Mof_C 	C 	0.4254	0.2249	0.33203	0.305
Mof_C 	C 	0.554	0.5585	0.14403	0.396
Mof_In	In	0.6247	0.6247	-0	2.202
Mof_In	In	0.3753	0	0.33333	2.204
Mof_In	In	5.51188e-18	0.3753	0.66667	2.195
_end
