data_functionalizedCrystal
_audit_creation_method	'EQeq! by Chris Wilmer'
_symmetry_space_group_name_H-M	'P1'
_symmetry_Int_Tables_number	1
_symmetry_cell_setting	triclinic
loop_
_symmetry_equiv_pos_as_xyz
  x,y,z
_cell_length_a	17.8048
_cell_length_b	17.8048
_cell_length_c	17.8048
_cell_angle_alpha	90
_cell_angle_beta	90
_cell_angle_gamma	90
loop_
_atom_site_label
_atom_site_type_symbol
_atom_site_fract_x
_atom_site_fract_y
_atom_site_fract_z
_atom_site_charge
Mof_O 	O 	0.26327	0.29289	0.62666	-0.267
Mof_O 	O 	0.19218	0.41758	0.59307	-0.359
Mof_O 	O 	0.0956	0.4618	0.4643	-0.358
Mof_C 	C 	0.2872	0.3304	0.5648	0.114
Mof_C 	C 	0.2472	0.3964	0.5456	0.158
Mof_S 	S 	0.0563	0.4775	0.4058	0.6
Mof_C 	C 	0.3474	0.3084	0.5219	-0.104
Mof_C 	C 	0.2663	0.4354	0.4813	-0.135
Mof_O 	O 	0.0972	0.4542	0.3392	-0.242
Mof_C 	C 	0.3697	0.3496	0.4563	0.015
Mof_H 	H 	0.3749	0.2648	0.5359	0.109
Mof_H 	H 	0.2374	0.478	0.4672	0.112
Mof_C 	C 	0.3281	0.4132	0.4357	0.04
Mof_O 	O 	0.0653	0.4171	0.4474	-0.294
Mof_O 	O 	0.23673	0.70711	0.12666	-0.268
Mof_O 	O 	0.30782	0.58242	0.09307	-0.359
Mof_O 	O 	0.4044	0.5382	0.9643	-0.36
Mof_C 	C 	0.2128	0.6696	0.0648	0.115
Mof_C 	C 	0.2528	0.6036	0.0456	0.156
Mof_S 	S 	0.4437	0.5225	0.9058	0.601
Mof_C 	C 	0.1526	0.6916	0.0219	-0.107
Mof_C 	C 	0.2337	0.5646	0.9813	-0.132
Mof_O 	O 	0.4028	0.5458	0.8392	-0.242
Mof_C 	C 	0.1303	0.6504	0.9563	0.018
Mof_H 	H 	0.1251	0.7352	0.0359	0.11
Mof_H 	H 	0.2626	0.522	0.9672	0.111
Mof_C 	C 	0.1719	0.5868	0.9357	0.038
Mof_O 	O 	0.4347	0.5829	0.9474	-0.293
Mof_O 	O 	0.73673	0.79289	0.87334	-0.269
Mof_O 	O 	0.80782	0.91758	0.90693	-0.359
Mof_O 	O 	0.9044	0.9618	0.0357	-0.358
Mof_C 	C 	0.7128	0.8304	0.9352	0.116
Mof_C 	C 	0.7528	0.8964	0.9544	0.152
Mof_S 	S 	0.9437	0.9775	0.0942	0.6
Mof_C 	C 	0.6526	0.8084	0.9781	-0.11
Mof_C 	C 	0.7337	0.9354	0.0187	-0.127
Mof_O 	O 	0.9028	0.9542	0.1608	-0.242
Mof_C 	C 	0.6303	0.8496	0.0437	0.02
Mof_H 	H 	0.6251	0.7648	0.9641	0.11
Mof_H 	H 	0.7626	0.978	0.0328	0.11
Mof_C 	C 	0.6719	0.9132	0.0643	0.036
Mof_O 	O 	0.9347	0.9171	0.0526	-0.292
Mof_O 	O 	0.76327	0.20711	0.37334	-0.268
Mof_O 	O 	0.69218	0.08242	0.40693	-0.359
Mof_O 	O 	0.5956	0.0382	0.5357	-0.359
Mof_C 	C 	0.7872	0.1696	0.4352	0.114
Mof_C 	C 	0.7472	0.1036	0.4544	0.158
Mof_S 	S 	0.5563	0.0225	0.5942	0.602
Mof_C 	C 	0.8474	0.1916	0.4781	-0.105
Mof_C 	C 	0.7663	0.0646	0.5187	-0.133
Mof_O 	O 	0.5972	0.0458	0.6608	-0.242
Mof_C 	C 	0.8697	0.1504	0.5437	0.017
Mof_H 	H 	0.8749	0.2352	0.4641	0.109
Mof_H 	H 	0.7374	0.022	0.5328	0.112
Mof_C 	C 	0.8281	0.0868	0.5643	0.038
Mof_O 	O 	0.5653	0.0829	0.5526	-0.293
Mof_O 	O 	0.62666	0.26327	0.29289	-0.268
Mof_O 	O 	0.59307	0.19218	0.41758	-0.36
Mof_O 	O 	0.4643	0.0956	0.4618	-0.359
Mof_C 	C 	0.5648	0.2872	0.3304	0.113
Mof_C 	C 	0.5456	0.2472	0.3964	0.158
Mof_S 	S 	0.4058	0.0563	0.4775	0.6
Mof_C 	C 	0.5219	0.3474	0.3084	-0.104
Mof_C 	C 	0.4813	0.2663	0.4354	-0.135
Mof_O 	O 	0.3392	0.0972	0.4542	-0.242
Mof_C 	C 	0.4563	0.3697	0.3496	0.015
Mof_H 	H 	0.5359	0.3749	0.2648	0.109
Mof_H 	H 	0.4672	0.2374	0.478	0.112
Mof_C 	C 	0.4357	0.3281	0.4132	0.04
Mof_O 	O 	0.4474	0.0653	0.4171	-0.294
Mof_O 	O 	0.12666	0.23673	0.70711	-0.268
Mof_O 	O 	0.09307	0.30782	0.58242	-0.359
Mof_O 	O 	0.9643	0.4044	0.5382	-0.36
Mof_C 	C 	0.0648	0.2128	0.6696	0.115
Mof_C 	C 	0.0456	0.2528	0.6036	0.156
Mof_S 	S 	0.9058	0.4437	0.5225	0.601
Mof_C 	C 	0.0219	0.1526	0.6916	-0.107
Mof_C 	C 	0.9813	0.2337	0.5646	-0.132
Mof_O 	O 	0.8392	0.4028	0.5458	-0.242
Mof_C 	C 	0.9563	0.1303	0.6504	0.018
Mof_H 	H 	0.0359	0.1251	0.7352	0.11
Mof_H 	H 	0.9672	0.2626	0.522	0.111
Mof_C 	C 	0.9357	0.1719	0.5868	0.038
Mof_O 	O 	0.9474	0.4347	0.5829	-0.293
Mof_O 	O 	0.87334	0.73673	0.79289	-0.269
Mof_O 	O 	0.90693	0.80782	0.91758	-0.359
Mof_O 	O 	0.0357	0.9044	0.9618	-0.358
Mof_C 	C 	0.9352	0.7128	0.8304	0.116
Mof_C 	C 	0.9544	0.7528	0.8964	0.152
Mof_S 	S 	0.0942	0.9437	0.9775	0.6
Mof_C 	C 	0.9781	0.6526	0.8084	-0.11
Mof_C 	C 	0.0187	0.7337	0.9354	-0.127
Mof_O 	O 	0.1608	0.9028	0.9542	-0.242
Mof_C 	C 	0.0437	0.6303	0.8496	0.02
Mof_H 	H 	0.9641	0.6251	0.7648	0.11
Mof_H 	H 	0.0328	0.7626	0.978	0.11
Mof_C 	C 	0.0643	0.6719	0.9132	0.036
Mof_O 	O 	0.0526	0.9347	0.9171	-0.292
Mof_O 	O 	0.37334	0.76327	0.20711	-0.268
Mof_O 	O 	0.40693	0.69218	0.08242	-0.359
Mof_O 	O 	0.5357	0.5956	0.0382	-0.359
Mof_C 	C 	0.4352	0.7872	0.1696	0.114
Mof_C 	C 	0.4544	0.7472	0.1036	0.158
Mof_S 	S 	0.5942	0.5563	0.0225	0.602
Mof_C 	C 	0.4781	0.8474	0.1916	-0.105
Mof_C 	C 	0.5187	0.7663	0.0646	-0.133
Mof_O 	O 	0.6608	0.5972	0.0458	-0.242
Mof_C 	C 	0.5437	0.8697	0.1504	0.017
Mof_H 	H 	0.4641	0.8749	0.2352	0.109
Mof_H 	H 	0.5328	0.7374	0.022	0.112
Mof_C 	C 	0.5643	0.8281	0.0868	0.038
Mof_O 	O 	0.5526	0.5653	0.0829	-0.293
Mof_O 	O 	0.29289	0.62666	0.26327	-0.268
Mof_O 	O 	0.41758	0.59307	0.19218	-0.36
Mof_O 	O 	0.4618	0.4643	0.0956	-0.359
Mof_C 	C 	0.3304	0.5648	0.2872	0.113
Mof_C 	C 	0.3964	0.5456	0.2472	0.158
Mof_S 	S 	0.4775	0.4058	0.0563	0.6
Mof_C 	C 	0.3084	0.5219	0.3474	-0.104
Mof_C 	C 	0.4354	0.4813	0.2663	-0.135
Mof_O 	O 	0.4542	0.3392	0.0972	-0.242
Mof_C 	C 	0.3496	0.4563	0.3697	0.015
Mof_H 	H 	0.2648	0.5359	0.3749	0.109
Mof_H 	H 	0.478	0.4672	0.2374	0.112
Mof_C 	C 	0.4132	0.4357	0.3281	0.04
Mof_O 	O 	0.4171	0.4474	0.0653	-0.294
Mof_O 	O 	0.70711	0.12666	0.23673	-0.268
Mof_O 	O 	0.58242	0.09307	0.30782	-0.359
Mof_O 	O 	0.5382	0.9643	0.4044	-0.36
Mof_C 	C 	0.6696	0.0648	0.2128	0.115
Mof_C 	C 	0.6036	0.0456	0.2528	0.156
Mof_S 	S 	0.5225	0.9058	0.4437	0.601
Mof_C 	C 	0.6916	0.0219	0.1526	-0.107
Mof_C 	C 	0.5646	0.9813	0.2337	-0.132
Mof_O 	O 	0.5458	0.8392	0.4028	-0.242
Mof_C 	C 	0.6504	0.9563	0.1303	0.018
Mof_H 	H 	0.7352	0.0359	0.1251	0.11
Mof_H 	H 	0.522	0.9672	0.2626	0.111
Mof_C 	C 	0.5868	0.9357	0.1719	0.038
Mof_O 	O 	0.5829	0.9474	0.4347	-0.293
Mof_O 	O 	0.79289	0.87334	0.73673	-0.269
Mof_O 	O 	0.91758	0.90693	0.80782	-0.359
Mof_O 	O 	0.9618	0.0357	0.9044	-0.358
Mof_C 	C 	0.8304	0.9352	0.7128	0.116
Mof_C 	C 	0.8964	0.9544	0.7528	0.152
Mof_S 	S 	0.9775	0.0942	0.9437	0.6
Mof_C 	C 	0.8084	0.9781	0.6526	-0.11
Mof_C 	C 	0.9354	0.0187	0.7337	-0.127
Mof_O 	O 	0.9542	0.1608	0.9028	-0.242
Mof_C 	C 	0.8496	0.0437	0.6303	0.02
Mof_H 	H 	0.7648	0.9641	0.6251	0.11
Mof_H 	H 	0.978	0.0328	0.7626	0.11
Mof_C 	C 	0.9132	0.0643	0.6719	0.036
Mof_O 	O 	0.9171	0.0526	0.9347	-0.292
Mof_O 	O 	0.20711	0.37334	0.76327	-0.268
Mof_O 	O 	0.08242	0.40693	0.69218	-0.359
Mof_O 	O 	0.0382	0.5357	0.5956	-0.359
Mof_C 	C 	0.1696	0.4352	0.7872	0.114
Mof_C 	C 	0.1036	0.4544	0.7472	0.158
Mof_S 	S 	0.0225	0.5942	0.5563	0.602
Mof_C 	C 	0.1916	0.4781	0.8474	-0.105
Mof_C 	C 	0.0646	0.5187	0.7663	-0.133
Mof_O 	O 	0.0458	0.6608	0.5972	-0.242
Mof_C 	C 	0.1504	0.5437	0.8697	0.017
Mof_H 	H 	0.2352	0.4641	0.8749	0.109
Mof_H 	H 	0.022	0.5328	0.7374	0.112
Mof_C 	C 	0.0868	0.5643	0.8281	0.038
Mof_O 	O 	0.0829	0.5526	0.5653	-0.293
Mof_O 	O 	0.73673	0.70711	0.37334	-0.268
Mof_O 	O 	0.80782	0.58242	0.40693	-0.36
Mof_O 	O 	0.9044	0.5382	0.5357	-0.359
Mof_C 	C 	0.7128	0.6696	0.4352	0.113
Mof_C 	C 	0.7528	0.6036	0.4544	0.158
Mof_S 	S 	0.9437	0.5225	0.5942	0.6
Mof_C 	C 	0.6526	0.6916	0.4781	-0.104
Mof_C 	C 	0.7337	0.5646	0.5187	-0.135
Mof_O 	O 	0.9028	0.5458	0.6608	-0.242
Mof_C 	C 	0.6303	0.6504	0.5437	0.015
Mof_H 	H 	0.6251	0.7352	0.4641	0.109
Mof_H 	H 	0.7626	0.522	0.5328	0.112
Mof_C 	C 	0.6719	0.5868	0.5643	0.04
Mof_O 	O 	0.9347	0.5829	0.5526	-0.294
Mof_O 	O 	0.76327	0.29289	0.87334	-0.268
Mof_O 	O 	0.69218	0.41758	0.90693	-0.359
Mof_O 	O 	0.5956	0.4618	0.0357	-0.36
Mof_C 	C 	0.7872	0.3304	0.9352	0.115
Mof_C 	C 	0.7472	0.3964	0.9544	0.156
Mof_S 	S 	0.5563	0.4775	0.0942	0.601
Mof_C 	C 	0.8474	0.3084	0.9781	-0.107
Mof_C 	C 	0.7663	0.4354	0.0187	-0.132
Mof_O 	O 	0.5972	0.4542	0.1608	-0.242
Mof_C 	C 	0.8697	0.3496	0.0437	0.018
Mof_H 	H 	0.8749	0.2648	0.9641	0.11
Mof_H 	H 	0.7374	0.478	0.0328	0.111
Mof_C 	C 	0.8281	0.4132	0.0643	0.038
Mof_O 	O 	0.5653	0.4171	0.0526	-0.293
Mof_O 	O 	0.26327	0.20711	0.12666	-0.269
Mof_O 	O 	0.19218	0.08242	0.09307	-0.359
Mof_O 	O 	0.0956	0.0382	0.9643	-0.358
Mof_C 	C 	0.2872	0.1696	0.0648	0.116
Mof_C 	C 	0.2472	0.1036	0.0456	0.152
Mof_S 	S 	0.0563	0.0225	0.9058	0.6
Mof_C 	C 	0.3474	0.1916	0.0219	-0.11
Mof_C 	C 	0.2663	0.0646	0.9813	-0.127
Mof_O 	O 	0.0972	0.0458	0.8392	-0.242
Mof_C 	C 	0.3697	0.1504	0.9563	0.02
Mof_H 	H 	0.3749	0.2352	0.0359	0.11
Mof_H 	H 	0.2374	0.022	0.9672	0.11
Mof_C 	C 	0.3281	0.0868	0.9357	0.036
Mof_O 	O 	0.0653	0.0829	0.9474	-0.292
Mof_O 	O 	0.23673	0.79289	0.62666	-0.268
Mof_O 	O 	0.30782	0.91758	0.59307	-0.359
Mof_O 	O 	0.4044	0.9618	0.4643	-0.359
Mof_C 	C 	0.2128	0.8304	0.5648	0.114
Mof_C 	C 	0.2528	0.8964	0.5456	0.158
Mof_S 	S 	0.4437	0.9775	0.4058	0.602
Mof_C 	C 	0.1526	0.8084	0.5219	-0.105
Mof_C 	C 	0.2337	0.9354	0.4813	-0.133
Mof_O 	O 	0.4028	0.9542	0.3392	-0.242
Mof_C 	C 	0.1303	0.8496	0.4563	0.017
Mof_H 	H 	0.1251	0.7648	0.5359	0.109
Mof_H 	H 	0.2626	0.978	0.4672	0.112
Mof_C 	C 	0.1719	0.9132	0.4357	0.038
Mof_O 	O 	0.4347	0.9171	0.4474	-0.293
Mof_O 	O 	0.37334	0.73673	0.70711	-0.268
Mof_O 	O 	0.40693	0.80782	0.58242	-0.36
Mof_O 	O 	0.5357	0.9044	0.5382	-0.359
Mof_C 	C 	0.4352	0.7128	0.6696	0.113
Mof_C 	C 	0.4544	0.7528	0.6036	0.158
Mof_S 	S 	0.5942	0.9437	0.5225	0.6
Mof_C 	C 	0.4781	0.6526	0.6916	-0.104
Mof_C 	C 	0.5187	0.7337	0.5646	-0.135
Mof_O 	O 	0.6608	0.9028	0.5458	-0.242
Mof_C 	C 	0.5437	0.6303	0.6504	0.015
Mof_H 	H 	0.4641	0.6251	0.7352	0.109
Mof_H 	H 	0.5328	0.7626	0.522	0.112
Mof_C 	C 	0.5643	0.6719	0.5868	0.04
Mof_O 	O 	0.5526	0.9347	0.5829	-0.294
Mof_O 	O 	0.87334	0.76327	0.29289	-0.268
Mof_O 	O 	0.90693	0.69218	0.41758	-0.359
Mof_O 	O 	0.0357	0.5956	0.4618	-0.36
Mof_C 	C 	0.9352	0.7872	0.3304	0.115
Mof_C 	C 	0.9544	0.7472	0.3964	0.156
Mof_S 	S 	0.0942	0.5563	0.4775	0.601
Mof_C 	C 	0.9781	0.8474	0.3084	-0.107
Mof_C 	C 	0.0187	0.7663	0.4354	-0.132
Mof_O 	O 	0.1608	0.5972	0.4542	-0.242
Mof_C 	C 	0.0437	0.8697	0.3496	0.018
Mof_H 	H 	0.9641	0.8749	0.2648	0.11
Mof_H 	H 	0.0328	0.7374	0.478	0.111
Mof_C 	C 	0.0643	0.8281	0.4132	0.038
Mof_O 	O 	0.0526	0.5653	0.4171	-0.293
Mof_O 	O 	0.12666	0.26327	0.20711	-0.269
Mof_O 	O 	0.09307	0.19218	0.08242	-0.359
Mof_O 	O 	0.9643	0.0956	0.0382	-0.358
Mof_C 	C 	0.0648	0.2872	0.1696	0.116
Mof_C 	C 	0.0456	0.2472	0.1036	0.152
Mof_S 	S 	0.9058	0.0563	0.0225	0.6
Mof_C 	C 	0.0219	0.3474	0.1916	-0.11
Mof_C 	C 	0.9813	0.2663	0.0646	-0.127
Mof_O 	O 	0.8392	0.0972	0.0458	-0.242
Mof_C 	C 	0.9563	0.3697	0.1504	0.02
Mof_H 	H 	0.0359	0.3749	0.2352	0.11
Mof_H 	H 	0.9672	0.2374	0.022	0.11
Mof_C 	C 	0.9357	0.3281	0.0868	0.036
Mof_O 	O 	0.9474	0.0653	0.0829	-0.292
Mof_O 	O 	0.62666	0.23673	0.79289	-0.268
Mof_O 	O 	0.59307	0.30782	0.91758	-0.359
Mof_O 	O 	0.4643	0.4044	0.9618	-0.359
Mof_C 	C 	0.5648	0.2128	0.8304	0.114
Mof_C 	C 	0.5456	0.2528	0.8964	0.158
Mof_S 	S 	0.4058	0.4437	0.9775	0.602
Mof_C 	C 	0.5219	0.1526	0.8084	-0.105
Mof_C 	C 	0.4813	0.2337	0.9354	-0.133
Mof_O 	O 	0.3392	0.4028	0.9542	-0.242
Mof_C 	C 	0.4563	0.1303	0.8496	0.017
Mof_H 	H 	0.5359	0.1251	0.7648	0.109
Mof_H 	H 	0.4672	0.2626	0.978	0.112
Mof_C 	C 	0.4357	0.1719	0.9132	0.038
Mof_O 	O 	0.4474	0.4347	0.9171	-0.293
Mof_O 	O 	0.70711	0.37334	0.73673	-0.268
Mof_O 	O 	0.58242	0.40693	0.80782	-0.36
Mof_O 	O 	0.5382	0.5357	0.9044	-0.359
Mof_C 	C 	0.6696	0.4352	0.7128	0.113
Mof_C 	C 	0.6036	0.4544	0.7528	0.158
Mof_S 	S 	0.5225	0.5942	0.9437	0.6
Mof_C 	C 	0.6916	0.4781	0.6526	-0.104
Mof_C 	C 	0.5646	0.5187	0.7337	-0.135
Mof_O 	O 	0.5458	0.6608	0.9028	-0.242
Mof_C 	C 	0.6504	0.5437	0.6303	0.015
Mof_H 	H 	0.7352	0.4641	0.6251	0.109
Mof_H 	H 	0.522	0.5328	0.7626	0.112
Mof_C 	C 	0.5868	0.5643	0.6719	0.04
Mof_O 	O 	0.5829	0.5526	0.9347	-0.294
Mof_O 	O 	0.29289	0.87334	0.76327	-0.268
Mof_O 	O 	0.41758	0.90693	0.69218	-0.359
Mof_O 	O 	0.4618	0.0357	0.5956	-0.36
Mof_C 	C 	0.3304	0.9352	0.7872	0.115
Mof_C 	C 	0.3964	0.9544	0.7472	0.156
Mof_S 	S 	0.4775	0.0942	0.5563	0.601
Mof_C 	C 	0.3084	0.9781	0.8474	-0.107
Mof_C 	C 	0.4354	0.0187	0.7663	-0.132
Mof_O 	O 	0.4542	0.1608	0.5972	-0.242
Mof_C 	C 	0.3496	0.0437	0.8697	0.018
Mof_H 	H 	0.2648	0.9641	0.8749	0.11
Mof_H 	H 	0.478	0.0328	0.7374	0.111
Mof_C 	C 	0.4132	0.0643	0.8281	0.038
Mof_O 	O 	0.4171	0.0526	0.5653	-0.293
Mof_O 	O 	0.20711	0.12666	0.26327	-0.269
Mof_O 	O 	0.08242	0.09307	0.19218	-0.359
Mof_O 	O 	0.0382	0.9643	0.0956	-0.358
Mof_C 	C 	0.1696	0.0648	0.2872	0.116
Mof_C 	C 	0.1036	0.0456	0.2472	0.152
Mof_S 	S 	0.0225	0.9058	0.0563	0.6
Mof_C 	C 	0.1916	0.0219	0.3474	-0.11
Mof_C 	C 	0.0646	0.9813	0.2663	-0.127
Mof_O 	O 	0.0458	0.8392	0.0972	-0.242
Mof_C 	C 	0.1504	0.9563	0.3697	0.02
Mof_H 	H 	0.2352	0.0359	0.3749	0.11
Mof_H 	H 	0.022	0.9672	0.2374	0.11
Mof_C 	C 	0.0868	0.9357	0.3281	0.036
Mof_O 	O 	0.0829	0.9474	0.0653	-0.292
Mof_O 	O 	0.79289	0.62666	0.23673	-0.268
Mof_O 	O 	0.91758	0.59307	0.30782	-0.359
Mof_O 	O 	0.9618	0.4643	0.4044	-0.359
Mof_C 	C 	0.8304	0.5648	0.2128	0.114
Mof_C 	C 	0.8964	0.5456	0.2528	0.158
Mof_S 	S 	0.9775	0.4058	0.4437	0.602
Mof_C 	C 	0.8084	0.5219	0.1526	-0.105
Mof_C 	C 	0.9354	0.4813	0.2337	-0.133
Mof_O 	O 	0.9542	0.3392	0.4028	-0.242
Mof_C 	C 	0.8496	0.4563	0.1303	0.017
Mof_H 	H 	0.7648	0.5359	0.1251	0.109
Mof_H 	H 	0.978	0.4672	0.2626	0.112
Mof_C 	C 	0.9132	0.4357	0.1719	0.038
Mof_O 	O 	0.9171	0.4474	0.4347	-0.293
Mof_Fe	Fe	0.16756	0.33244	0.66756	0.913
Mof_Fe	Fe	0.07385	0.42615	0.57385	0.925
Mof_Fe	Fe	0.33244	0.66756	0.16756	0.913
Mof_Fe	Fe	0.42615	0.57385	0.07385	0.925
Mof_Fe	Fe	0.83244	0.83244	0.83244	0.913
Mof_Fe	Fe	0.92615	0.92615	0.92615	0.918
Mof_Fe	Fe	0.66756	0.16756	0.33244	0.913
Mof_Fe	Fe	0.57385	0.07385	0.42615	0.925
Mof_Fe	Fe	0.83244	0.66756	0.33244	0.913
Mof_Fe	Fe	0.92615	0.57385	0.42615	0.925
Mof_Fe	Fe	0.66756	0.33244	0.83244	0.913
Mof_Fe	Fe	0.57385	0.42615	0.92615	0.925
Mof_Fe	Fe	0.16756	0.16756	0.16756	0.913
Mof_Fe	Fe	0.07385	0.07385	0.07385	0.918
Mof_Fe	Fe	0.33244	0.83244	0.66756	0.913
Mof_Fe	Fe	0.42615	0.92615	0.57385	0.925
_end
