data_functionalizedCrystal
_audit_creation_method	'EQeq! by Chris Wilmer'
_symmetry_space_group_name_H-M	'P1'
_symmetry_Int_Tables_number	1
_symmetry_cell_setting	triclinic
loop_
_symmetry_equiv_pos_as_xyz
  x,y,z
_cell_length_a	22.4704
_cell_length_b	22.4704
_cell_length_c	22.4704
_cell_angle_alpha	90
_cell_angle_beta	90
_cell_angle_gamma	90
loop_
_atom_site_label
_atom_site_type_symbol
_atom_site_fract_x
_atom_site_fract_y
_atom_site_fract_z
_atom_site_charge
Mof_Mn	Mn	0.17635	0.3104	0.24086	0.935
Mof_C 	C 	0.20605	0.2909	0.8783	0.364
Mof_C 	C 	0.19578	0.27895	0.10461	0.377
Mof_C 	C 	0.16608	0.2811	0.04265	-0.061
Mof_C 	C 	0.19937	0.28291	0.99068	0.007
Mof_H 	H 	0.2407	0.2812	0.9929	0.049
Mof_C 	C 	0.17226	0.28722	0.93568	-0.068
Mof_C 	C 	0.10583	0.2821	0.03929	-0.069
Mof_H 	H 	0.0835	0.2816	0.0741	0.081
Mof_C 	C 	0.11052	0.2869	0.93278	-0.067
Mof_H 	H 	0.0915	0.2888	0.8961	0.076
Mof_C 	C 	0.07702	0.2838	0.98504	0.093
Mof_O 	O 	0.17509	0.30077	0.83191	-0.377
Mof_O 	O 	0.162	0.28884	0.14726	-0.376
Mof_O 	O 	0.24985	0.26695	0.10513	-0.378
Mof_O 	O 	0.26109	0.28213	0.88058	-0.374
Mof_N 	N 	0.01373	0.2829	0.97732	-0.085
Mof_Mn	Mn	0.82365	0.6896	0.24086	0.935
Mof_C 	C 	0.79395	0.7091	0.8783	0.364
Mof_C 	C 	0.80422	0.72105	0.10461	0.377
Mof_C 	C 	0.83392	0.7189	0.04265	-0.061
Mof_C 	C 	0.80063	0.71709	0.99068	0.007
Mof_H 	H 	0.7593	0.7188	0.9929	0.049
Mof_C 	C 	0.82774	0.71278	0.93568	-0.068
Mof_C 	C 	0.89417	0.7179	0.03929	-0.069
Mof_H 	H 	0.9165	0.7184	0.0741	0.081
Mof_C 	C 	0.88948	0.7131	0.93278	-0.067
Mof_H 	H 	0.9085	0.7112	0.8961	0.076
Mof_C 	C 	0.92298	0.7162	0.98504	0.093
Mof_O 	O 	0.82491	0.69923	0.83191	-0.377
Mof_O 	O 	0.838	0.71116	0.14726	-0.376
Mof_O 	O 	0.75015	0.73305	0.10513	-0.378
Mof_O 	O 	0.73891	0.71787	0.88058	-0.373
Mof_N 	N 	0.98627	0.7171	0.97732	-0.084
Mof_Mn	Mn	0.82365	0.3104	0.75914	0.936
Mof_C 	C 	0.79395	0.2909	0.1217	0.365
Mof_C 	C 	0.80422	0.27895	0.89539	0.378
Mof_C 	C 	0.83392	0.2811	0.95735	-0.06
Mof_C 	C 	0.80063	0.28291	0.00932	0.008
Mof_H 	H 	0.7593	0.2812	0.0071	0.05
Mof_C 	C 	0.82774	0.28722	0.06432	-0.067
Mof_C 	C 	0.89417	0.2821	0.96071	-0.068
Mof_H 	H 	0.9165	0.2816	0.9259	0.082
Mof_C 	C 	0.88948	0.2869	0.06722	-0.066
Mof_H 	H 	0.9085	0.2888	0.1039	0.077
Mof_C 	C 	0.92298	0.2838	0.01496	0.094
Mof_O 	O 	0.82491	0.30077	0.16809	-0.376
Mof_O 	O 	0.838	0.28884	0.85274	-0.375
Mof_O 	O 	0.75015	0.26695	0.89487	-0.377
Mof_O 	O 	0.73891	0.28213	0.11942	-0.373
Mof_N 	N 	0.98627	0.2829	0.02268	-0.084
Mof_Mn	Mn	0.17635	0.6896	0.75914	0.936
Mof_C 	C 	0.20605	0.7091	0.1217	0.365
Mof_C 	C 	0.19578	0.72105	0.89539	0.378
Mof_C 	C 	0.16608	0.7189	0.95735	-0.06
Mof_C 	C 	0.19937	0.71709	0.00932	0.008
Mof_H 	H 	0.2407	0.7188	0.0071	0.05
Mof_C 	C 	0.17226	0.71278	0.06432	-0.067
Mof_C 	C 	0.10583	0.7179	0.96071	-0.068
Mof_H 	H 	0.0835	0.7184	0.9259	0.082
Mof_C 	C 	0.11052	0.7131	0.06722	-0.066
Mof_H 	H 	0.0915	0.7112	0.1039	0.077
Mof_C 	C 	0.07702	0.7162	0.01496	0.094
Mof_O 	O 	0.17509	0.69923	0.16809	-0.376
Mof_O 	O 	0.162	0.71116	0.85274	-0.375
Mof_O 	O 	0.24985	0.73305	0.89487	-0.377
Mof_O 	O 	0.26109	0.71787	0.11942	-0.373
Mof_N 	N 	0.01373	0.7171	0.02268	-0.084
Mof_Mn	Mn	0.24086	0.17635	0.3104	0.936
Mof_C 	C 	0.8783	0.20605	0.2909	0.365
Mof_C 	C 	0.10461	0.19578	0.27895	0.378
Mof_C 	C 	0.04265	0.16608	0.2811	-0.06
Mof_C 	C 	0.99068	0.19937	0.28291	0.008
Mof_H 	H 	0.9929	0.2407	0.2812	0.05
Mof_C 	C 	0.93568	0.17226	0.28722	-0.067
Mof_C 	C 	0.03929	0.10583	0.2821	-0.068
Mof_H 	H 	0.0741	0.0835	0.2816	0.082
Mof_C 	C 	0.93278	0.11052	0.2869	-0.066
Mof_H 	H 	0.8961	0.0915	0.2888	0.077
Mof_C 	C 	0.98504	0.07702	0.2838	0.094
Mof_O 	O 	0.83191	0.17509	0.30077	-0.376
Mof_O 	O 	0.14726	0.162	0.28884	-0.375
Mof_O 	O 	0.10513	0.24985	0.26695	-0.377
Mof_O 	O 	0.88058	0.26109	0.28213	-0.373
Mof_N 	N 	0.97732	0.01373	0.2829	-0.084
Mof_Mn	Mn	0.24086	0.82365	0.6896	0.936
Mof_C 	C 	0.8783	0.79395	0.7091	0.365
Mof_C 	C 	0.10461	0.80422	0.72105	0.378
Mof_C 	C 	0.04265	0.83392	0.7189	-0.06
Mof_C 	C 	0.99068	0.80063	0.71709	0.008
Mof_H 	H 	0.9929	0.7593	0.7188	0.05
Mof_C 	C 	0.93568	0.82774	0.71278	-0.067
Mof_C 	C 	0.03929	0.89417	0.7179	-0.068
Mof_H 	H 	0.0741	0.9165	0.7184	0.082
Mof_C 	C 	0.93278	0.88948	0.7131	-0.066
Mof_H 	H 	0.8961	0.9085	0.7112	0.077
Mof_C 	C 	0.98504	0.92298	0.7162	0.094
Mof_O 	O 	0.83191	0.82491	0.69923	-0.376
Mof_O 	O 	0.14726	0.838	0.71116	-0.375
Mof_O 	O 	0.10513	0.75015	0.73305	-0.377
Mof_O 	O 	0.88058	0.73891	0.71787	-0.373
Mof_N 	N 	0.97732	0.98627	0.7171	-0.084
Mof_Mn	Mn	0.75914	0.82365	0.3104	0.936
Mof_C 	C 	0.1217	0.79395	0.2909	0.365
Mof_C 	C 	0.89539	0.80422	0.27895	0.378
Mof_C 	C 	0.95735	0.83392	0.2811	-0.06
Mof_C 	C 	0.00932	0.80063	0.28291	0.008
Mof_H 	H 	0.0071	0.7593	0.2812	0.05
Mof_C 	C 	0.06432	0.82774	0.28722	-0.067
Mof_C 	C 	0.96071	0.89417	0.2821	-0.068
Mof_H 	H 	0.9259	0.9165	0.2816	0.082
Mof_C 	C 	0.06722	0.88948	0.2869	-0.066
Mof_H 	H 	0.1039	0.9085	0.2888	0.077
Mof_C 	C 	0.01496	0.92298	0.2838	0.094
Mof_O 	O 	0.16809	0.82491	0.30077	-0.376
Mof_O 	O 	0.85274	0.838	0.28884	-0.375
Mof_O 	O 	0.89487	0.75015	0.26695	-0.377
Mof_O 	O 	0.11942	0.73891	0.28213	-0.373
Mof_N 	N 	0.02268	0.98627	0.2829	-0.084
Mof_Mn	Mn	0.75914	0.17635	0.6896	0.936
Mof_C 	C 	0.1217	0.20605	0.7091	0.365
Mof_C 	C 	0.89539	0.19578	0.72105	0.378
Mof_C 	C 	0.95735	0.16608	0.7189	-0.06
Mof_C 	C 	0.00932	0.19937	0.71709	0.008
Mof_H 	H 	0.0071	0.2407	0.7188	0.05
Mof_C 	C 	0.06432	0.17226	0.71278	-0.067
Mof_C 	C 	0.96071	0.10583	0.7179	-0.068
Mof_H 	H 	0.9259	0.0835	0.7184	0.082
Mof_C 	C 	0.06722	0.11052	0.7131	-0.066
Mof_H 	H 	0.1039	0.0915	0.7112	0.077
Mof_C 	C 	0.01496	0.07702	0.7162	0.094
Mof_O 	O 	0.16809	0.17509	0.69923	-0.376
Mof_O 	O 	0.85274	0.162	0.71116	-0.375
Mof_O 	O 	0.89487	0.24985	0.73305	-0.377
Mof_O 	O 	0.11942	0.26109	0.71787	-0.373
Mof_N 	N 	0.02268	0.01373	0.7171	-0.084
Mof_Mn	Mn	0.3104	0.24086	0.17635	0.936
Mof_C 	C 	0.2909	0.8783	0.20605	0.365
Mof_C 	C 	0.27895	0.10461	0.19578	0.378
Mof_C 	C 	0.2811	0.04265	0.16608	-0.06
Mof_C 	C 	0.28291	0.99068	0.19937	0.008
Mof_H 	H 	0.2812	0.9929	0.2407	0.05
Mof_C 	C 	0.28722	0.93568	0.17226	-0.067
Mof_C 	C 	0.2821	0.03929	0.10583	-0.068
Mof_H 	H 	0.2816	0.0741	0.0835	0.082
Mof_C 	C 	0.2869	0.93278	0.11052	-0.066
Mof_H 	H 	0.2888	0.8961	0.0915	0.077
Mof_C 	C 	0.2838	0.98504	0.07702	0.094
Mof_O 	O 	0.30077	0.83191	0.17509	-0.376
Mof_O 	O 	0.28884	0.14726	0.162	-0.375
Mof_O 	O 	0.26695	0.10513	0.24985	-0.377
Mof_O 	O 	0.28213	0.88058	0.26109	-0.373
Mof_N 	N 	0.2829	0.97732	0.01373	-0.084
Mof_Mn	Mn	0.6896	0.24086	0.82365	0.936
Mof_C 	C 	0.7091	0.8783	0.79395	0.365
Mof_C 	C 	0.72105	0.10461	0.80422	0.378
Mof_C 	C 	0.7189	0.04265	0.83392	-0.06
Mof_C 	C 	0.71709	0.99068	0.80063	0.008
Mof_H 	H 	0.7188	0.9929	0.7593	0.05
Mof_C 	C 	0.71278	0.93568	0.82774	-0.067
Mof_C 	C 	0.7179	0.03929	0.89417	-0.068
Mof_H 	H 	0.7184	0.0741	0.9165	0.082
Mof_C 	C 	0.7131	0.93278	0.88948	-0.066
Mof_H 	H 	0.7112	0.8961	0.9085	0.077
Mof_C 	C 	0.7162	0.98504	0.92298	0.094
Mof_O 	O 	0.69923	0.83191	0.82491	-0.376
Mof_O 	O 	0.71116	0.14726	0.838	-0.375
Mof_O 	O 	0.73305	0.10513	0.75015	-0.377
Mof_O 	O 	0.71787	0.88058	0.73891	-0.373
Mof_N 	N 	0.7171	0.97732	0.98627	-0.084
Mof_Mn	Mn	0.3104	0.75914	0.82365	0.936
Mof_C 	C 	0.2909	0.1217	0.79395	0.365
Mof_C 	C 	0.27895	0.89539	0.80422	0.378
Mof_C 	C 	0.2811	0.95735	0.83392	-0.06
Mof_C 	C 	0.28291	0.00932	0.80063	0.008
Mof_H 	H 	0.2812	0.0071	0.7593	0.05
Mof_C 	C 	0.28722	0.06432	0.82774	-0.067
Mof_C 	C 	0.2821	0.96071	0.89417	-0.068
Mof_H 	H 	0.2816	0.9259	0.9165	0.082
Mof_C 	C 	0.2869	0.06722	0.88948	-0.066
Mof_H 	H 	0.2888	0.1039	0.9085	0.077
Mof_C 	C 	0.2838	0.01496	0.92298	0.094
Mof_O 	O 	0.30077	0.16809	0.82491	-0.376
Mof_O 	O 	0.28884	0.85274	0.838	-0.375
Mof_O 	O 	0.26695	0.89487	0.75015	-0.377
Mof_O 	O 	0.28213	0.11942	0.73891	-0.373
Mof_N 	N 	0.2829	0.02268	0.98627	-0.084
Mof_Mn	Mn	0.6896	0.75914	0.17635	0.936
Mof_C 	C 	0.7091	0.1217	0.20605	0.365
Mof_C 	C 	0.72105	0.89539	0.19578	0.378
Mof_C 	C 	0.7189	0.95735	0.16608	-0.06
Mof_C 	C 	0.71709	0.00932	0.19937	0.008
Mof_H 	H 	0.7188	0.0071	0.2407	0.05
Mof_C 	C 	0.71278	0.06432	0.17226	-0.067
Mof_C 	C 	0.7179	0.96071	0.10583	-0.068
Mof_H 	H 	0.7184	0.9259	0.0835	0.082
Mof_C 	C 	0.7131	0.06722	0.11052	-0.066
Mof_H 	H 	0.7112	0.1039	0.0915	0.077
Mof_C 	C 	0.7162	0.01496	0.07702	0.094
Mof_O 	O 	0.69923	0.16809	0.17509	-0.376
Mof_O 	O 	0.71116	0.85274	0.162	-0.375
Mof_O 	O 	0.73305	0.89487	0.24985	-0.377
Mof_O 	O 	0.71787	0.11942	0.26109	-0.373
Mof_N 	N 	0.7171	0.02268	0.01373	-0.084
Mof_Mn	Mn	0.8104	0.67635	0.74086	0.936
Mof_C 	C 	0.7909	0.70605	0.3783	0.365
Mof_C 	C 	0.77895	0.69578	0.60461	0.378
Mof_C 	C 	0.7811	0.66608	0.54265	-0.06
Mof_C 	C 	0.78291	0.69937	0.49068	0.008
Mof_H 	H 	0.7812	0.7407	0.4929	0.05
Mof_C 	C 	0.78722	0.67226	0.43568	-0.067
Mof_C 	C 	0.7821	0.60583	0.53929	-0.068
Mof_H 	H 	0.7816	0.5835	0.5741	0.082
Mof_C 	C 	0.7869	0.61052	0.43278	-0.066
Mof_H 	H 	0.7888	0.5915	0.3961	0.077
Mof_C 	C 	0.7838	0.57702	0.48504	0.094
Mof_O 	O 	0.80077	0.67509	0.33191	-0.376
Mof_O 	O 	0.78884	0.662	0.64726	-0.375
Mof_O 	O 	0.76695	0.74985	0.60513	-0.377
Mof_O 	O 	0.78213	0.76109	0.38058	-0.373
Mof_N 	N 	0.7829	0.51373	0.47732	-0.084
Mof_Mn	Mn	0.1896	0.32365	0.74086	0.936
Mof_C 	C 	0.2091	0.29395	0.3783	0.365
Mof_C 	C 	0.22105	0.30422	0.60461	0.378
Mof_C 	C 	0.2189	0.33392	0.54265	-0.06
Mof_C 	C 	0.21709	0.30063	0.49068	0.008
Mof_H 	H 	0.2188	0.2593	0.4929	0.05
Mof_C 	C 	0.21278	0.32774	0.43568	-0.067
Mof_C 	C 	0.2179	0.39417	0.53929	-0.068
Mof_H 	H 	0.2184	0.4165	0.5741	0.082
Mof_C 	C 	0.2131	0.38948	0.43278	-0.066
Mof_H 	H 	0.2112	0.4085	0.3961	0.077
Mof_C 	C 	0.2162	0.42298	0.48504	0.094
Mof_O 	O 	0.19923	0.32491	0.33191	-0.376
Mof_O 	O 	0.21116	0.338	0.64726	-0.375
Mof_O 	O 	0.23305	0.25015	0.60513	-0.377
Mof_O 	O 	0.21787	0.23891	0.38058	-0.373
Mof_N 	N 	0.2171	0.48627	0.47732	-0.084
Mof_Mn	Mn	0.8104	0.32365	0.25914	0.936
Mof_C 	C 	0.7909	0.29395	0.6217	0.365
Mof_C 	C 	0.77895	0.30422	0.39539	0.378
Mof_C 	C 	0.7811	0.33392	0.45735	-0.06
Mof_C 	C 	0.78291	0.30063	0.50932	0.008
Mof_H 	H 	0.7812	0.2593	0.5071	0.05
Mof_C 	C 	0.78722	0.32774	0.56432	-0.067
Mof_C 	C 	0.7821	0.39417	0.46071	-0.068
Mof_H 	H 	0.7816	0.4165	0.4259	0.082
Mof_C 	C 	0.7869	0.38948	0.56722	-0.066
Mof_H 	H 	0.7888	0.4085	0.6039	0.077
Mof_C 	C 	0.7838	0.42298	0.51496	0.094
Mof_O 	O 	0.80077	0.32491	0.66809	-0.376
Mof_O 	O 	0.78884	0.338	0.35274	-0.375
Mof_O 	O 	0.76695	0.25015	0.39487	-0.377
Mof_O 	O 	0.78213	0.23891	0.61942	-0.373
Mof_N 	N 	0.7829	0.48627	0.52268	-0.084
Mof_Mn	Mn	0.1896	0.67635	0.25914	0.936
Mof_C 	C 	0.2091	0.70605	0.6217	0.365
Mof_C 	C 	0.22105	0.69578	0.39539	0.378
Mof_C 	C 	0.2189	0.66608	0.45735	-0.06
Mof_C 	C 	0.21709	0.69937	0.50932	0.008
Mof_H 	H 	0.2188	0.7407	0.5071	0.05
Mof_C 	C 	0.21278	0.67226	0.56432	-0.067
Mof_C 	C 	0.2179	0.60583	0.46071	-0.068
Mof_H 	H 	0.2184	0.5835	0.4259	0.082
Mof_C 	C 	0.2131	0.61052	0.56722	-0.066
Mof_H 	H 	0.2112	0.5915	0.6039	0.077
Mof_C 	C 	0.2162	0.57702	0.51496	0.094
Mof_O 	O 	0.19923	0.67509	0.66809	-0.376
Mof_O 	O 	0.21116	0.662	0.35274	-0.375
Mof_O 	O 	0.23305	0.74985	0.39487	-0.377
Mof_O 	O 	0.21787	0.76109	0.61942	-0.373
Mof_N 	N 	0.2171	0.51373	0.52268	-0.084
Mof_Mn	Mn	0.67635	0.74086	0.8104	0.936
Mof_C 	C 	0.70605	0.3783	0.7909	0.365
Mof_C 	C 	0.69578	0.60461	0.77895	0.378
Mof_C 	C 	0.66608	0.54265	0.7811	-0.06
Mof_C 	C 	0.69937	0.49068	0.78291	0.008
Mof_H 	H 	0.7407	0.4929	0.7812	0.05
Mof_C 	C 	0.67226	0.43568	0.78722	-0.067
Mof_C 	C 	0.60583	0.53929	0.7821	-0.068
Mof_H 	H 	0.5835	0.5741	0.7816	0.082
Mof_C 	C 	0.61052	0.43278	0.7869	-0.066
Mof_H 	H 	0.5915	0.3961	0.7888	0.077
Mof_C 	C 	0.57702	0.48504	0.7838	0.094
Mof_O 	O 	0.67509	0.33191	0.80077	-0.376
Mof_O 	O 	0.662	0.64726	0.78884	-0.375
Mof_O 	O 	0.74985	0.60513	0.76695	-0.377
Mof_O 	O 	0.76109	0.38058	0.78213	-0.373
Mof_N 	N 	0.51373	0.47732	0.7829	-0.084
Mof_Mn	Mn	0.32365	0.74086	0.1896	0.936
Mof_C 	C 	0.29395	0.3783	0.2091	0.365
Mof_C 	C 	0.30422	0.60461	0.22105	0.378
Mof_C 	C 	0.33392	0.54265	0.2189	-0.06
Mof_C 	C 	0.30063	0.49068	0.21709	0.008
Mof_H 	H 	0.2593	0.4929	0.2188	0.05
Mof_C 	C 	0.32774	0.43568	0.21278	-0.067
Mof_C 	C 	0.39417	0.53929	0.2179	-0.068
Mof_H 	H 	0.4165	0.5741	0.2184	0.082
Mof_C 	C 	0.38948	0.43278	0.2131	-0.066
Mof_H 	H 	0.4085	0.3961	0.2112	0.077
Mof_C 	C 	0.42298	0.48504	0.2162	0.094
Mof_O 	O 	0.32491	0.33191	0.19923	-0.376
Mof_O 	O 	0.338	0.64726	0.21116	-0.375
Mof_O 	O 	0.25015	0.60513	0.23305	-0.377
Mof_O 	O 	0.23891	0.38058	0.21787	-0.373
Mof_N 	N 	0.48627	0.47732	0.2171	-0.084
Mof_Mn	Mn	0.32365	0.25914	0.8104	0.936
Mof_C 	C 	0.29395	0.6217	0.7909	0.365
Mof_C 	C 	0.30422	0.39539	0.77895	0.378
Mof_C 	C 	0.33392	0.45735	0.7811	-0.06
Mof_C 	C 	0.30063	0.50932	0.78291	0.008
Mof_H 	H 	0.2593	0.5071	0.7812	0.05
Mof_C 	C 	0.32774	0.56432	0.78722	-0.067
Mof_C 	C 	0.39417	0.46071	0.7821	-0.068
Mof_H 	H 	0.4165	0.4259	0.7816	0.082
Mof_C 	C 	0.38948	0.56722	0.7869	-0.066
Mof_H 	H 	0.4085	0.6039	0.7888	0.077
Mof_C 	C 	0.42298	0.51496	0.7838	0.094
Mof_O 	O 	0.32491	0.66809	0.80077	-0.376
Mof_O 	O 	0.338	0.35274	0.78884	-0.375
Mof_O 	O 	0.25015	0.39487	0.76695	-0.377
Mof_O 	O 	0.23891	0.61942	0.78213	-0.373
Mof_N 	N 	0.48627	0.52268	0.7829	-0.084
Mof_Mn	Mn	0.67635	0.25914	0.1896	0.936
Mof_C 	C 	0.70605	0.6217	0.2091	0.365
Mof_C 	C 	0.69578	0.39539	0.22105	0.378
Mof_C 	C 	0.66608	0.45735	0.2189	-0.06
Mof_C 	C 	0.69937	0.50932	0.21709	0.008
Mof_H 	H 	0.7407	0.5071	0.2188	0.05
Mof_C 	C 	0.67226	0.56432	0.21278	-0.067
Mof_C 	C 	0.60583	0.46071	0.2179	-0.068
Mof_H 	H 	0.5835	0.4259	0.2184	0.082
Mof_C 	C 	0.61052	0.56722	0.2131	-0.066
Mof_H 	H 	0.5915	0.6039	0.2112	0.077
Mof_C 	C 	0.57702	0.51496	0.2162	0.094
Mof_O 	O 	0.67509	0.66809	0.19923	-0.376
Mof_O 	O 	0.662	0.35274	0.21116	-0.375
Mof_O 	O 	0.74985	0.39487	0.23305	-0.377
Mof_O 	O 	0.76109	0.61942	0.21787	-0.373
Mof_N 	N 	0.51373	0.52268	0.2171	-0.084
Mof_Mn	Mn	0.74086	0.8104	0.67635	0.936
Mof_C 	C 	0.3783	0.7909	0.70605	0.365
Mof_C 	C 	0.60461	0.77895	0.69578	0.378
Mof_C 	C 	0.54265	0.7811	0.66608	-0.06
Mof_C 	C 	0.49068	0.78291	0.69937	0.008
Mof_H 	H 	0.4929	0.7812	0.7407	0.05
Mof_C 	C 	0.43568	0.78722	0.67226	-0.067
Mof_C 	C 	0.53929	0.7821	0.60583	-0.068
Mof_H 	H 	0.5741	0.7816	0.5835	0.082
Mof_C 	C 	0.43278	0.7869	0.61052	-0.066
Mof_H 	H 	0.3961	0.7888	0.5915	0.077
Mof_C 	C 	0.48504	0.7838	0.57702	0.094
Mof_O 	O 	0.33191	0.80077	0.67509	-0.376
Mof_O 	O 	0.64726	0.78884	0.662	-0.375
Mof_O 	O 	0.60513	0.76695	0.74985	-0.377
Mof_O 	O 	0.38058	0.78213	0.76109	-0.373
Mof_N 	N 	0.47732	0.7829	0.51373	-0.084
Mof_Mn	Mn	0.74086	0.1896	0.32365	0.936
Mof_C 	C 	0.3783	0.2091	0.29395	0.365
Mof_C 	C 	0.60461	0.22105	0.30422	0.378
Mof_C 	C 	0.54265	0.2189	0.33392	-0.06
Mof_C 	C 	0.49068	0.21709	0.30063	0.008
Mof_H 	H 	0.4929	0.2188	0.2593	0.05
Mof_C 	C 	0.43568	0.21278	0.32774	-0.067
Mof_C 	C 	0.53929	0.2179	0.39417	-0.068
Mof_H 	H 	0.5741	0.2184	0.4165	0.082
Mof_C 	C 	0.43278	0.2131	0.38948	-0.066
Mof_H 	H 	0.3961	0.2112	0.4085	0.077
Mof_C 	C 	0.48504	0.2162	0.42298	0.094
Mof_O 	O 	0.33191	0.19923	0.32491	-0.376
Mof_O 	O 	0.64726	0.21116	0.338	-0.375
Mof_O 	O 	0.60513	0.23305	0.25015	-0.377
Mof_O 	O 	0.38058	0.21787	0.23891	-0.373
Mof_N 	N 	0.47732	0.2171	0.48627	-0.084
Mof_Mn	Mn	0.25914	0.8104	0.32365	0.936
Mof_C 	C 	0.6217	0.7909	0.29395	0.365
Mof_C 	C 	0.39539	0.77895	0.30422	0.378
Mof_C 	C 	0.45735	0.7811	0.33392	-0.06
Mof_C 	C 	0.50932	0.78291	0.30063	0.008
Mof_H 	H 	0.5071	0.7812	0.2593	0.05
Mof_C 	C 	0.56432	0.78722	0.32774	-0.067
Mof_C 	C 	0.46071	0.7821	0.39417	-0.068
Mof_H 	H 	0.4259	0.7816	0.4165	0.082
Mof_C 	C 	0.56722	0.7869	0.38948	-0.066
Mof_H 	H 	0.6039	0.7888	0.4085	0.077
Mof_C 	C 	0.51496	0.7838	0.42298	0.094
Mof_O 	O 	0.66809	0.80077	0.32491	-0.376
Mof_O 	O 	0.35274	0.78884	0.338	-0.375
Mof_O 	O 	0.39487	0.76695	0.25015	-0.377
Mof_O 	O 	0.61942	0.78213	0.23891	-0.373
Mof_N 	N 	0.52268	0.7829	0.48627	-0.084
Mof_Mn	Mn	0.25914	0.1896	0.67635	0.936
Mof_C 	C 	0.6217	0.2091	0.70605	0.365
Mof_C 	C 	0.39539	0.22105	0.69578	0.378
Mof_C 	C 	0.45735	0.2189	0.66608	-0.06
Mof_C 	C 	0.50932	0.21709	0.69937	0.008
Mof_H 	H 	0.5071	0.2188	0.7407	0.05
Mof_C 	C 	0.56432	0.21278	0.67226	-0.067
Mof_C 	C 	0.46071	0.2179	0.60583	-0.068
Mof_H 	H 	0.4259	0.2184	0.5835	0.082
Mof_C 	C 	0.56722	0.2131	0.61052	-0.066
Mof_H 	H 	0.6039	0.2112	0.5915	0.077
Mof_C 	C 	0.51496	0.2162	0.57702	0.094
Mof_O 	O 	0.66809	0.19923	0.67509	-0.376
Mof_O 	O 	0.35274	0.21116	0.662	-0.375
Mof_O 	O 	0.39487	0.23305	0.74985	-0.377
Mof_O 	O 	0.61942	0.21787	0.76109	-0.373
Mof_N 	N 	0.52268	0.2171	0.51373	-0.084
Mof_O 	O 	0.23817	0.23817	0.23817	-0.428
Mof_O 	O 	0.76183	0.76183	0.23817	-0.428
Mof_O 	O 	0.76183	0.23817	0.76183	-0.428
Mof_O 	O 	0.23817	0.76183	0.76183	-0.428
Mof_O 	O 	0.73817	0.73817	0.73817	-0.428
Mof_O 	O 	0.26183	0.26183	0.73817	-0.428
Mof_O 	O 	0.73817	0.26183	0.26183	-0.428
Mof_O 	O 	0.26183	0.73817	0.26183	-0.428
_end
