data_functionalizedCrystal
_audit_creation_method	'EQeq! by Chris Wilmer'
_symmetry_space_group_name_H-M	'P1'
_symmetry_Int_Tables_number	1
_symmetry_cell_setting	triclinic
loop_
_symmetry_equiv_pos_as_xyz
  x,y,z
_cell_length_a	8.0495
_cell_length_b	11.8852
_cell_length_c	11.9209
_cell_angle_alpha	79.881
_cell_angle_beta	86.231
_cell_angle_gamma	81.912
loop_
_atom_site_label
_atom_site_type_symbol
_atom_site_fract_x
_atom_site_fract_y
_atom_site_fract_z
_atom_site_charge
Mof_U 	U 	0.04212	0.56392	0.70208	0.026
Mof_U 	U 	0.77696	0.50507	0.97635	0.033
Mof_U 	U 	0.6082	0.8485	0.9904	0.027
Mof_U 	U 	0.3168	0.0625	0.7186	0.006
Mof_U 	U 	0.95788	0.43608	0.29792	0.026
Mof_U 	U 	0.22304	0.49493	0.02365	0.033
Mof_U 	U 	0.3918	0.1515	0.0096	0.027
Mof_U 	U 	0.6832	0.9375	0.2814	0.006
Mof_H 	H 	0.51993	0.49741	0.59988	0.221
Mof_H 	H 	0.63879	0.41715	0.67835	0.239
Mof_H 	H 	0.48367	0.71651	0.60203	0.226
Mof_H 	H 	0.667	0.7275	0.60022	0.239
Mof_H 	H 	0.48007	0.50259	0.40012	0.221
Mof_H 	H 	0.36121	0.58285	0.32165	0.239
Mof_H 	H 	0.51633	0.28349	0.39797	0.226
Mof_H 	H 	0.333	0.2725	0.39978	0.239
Mof_C 	C 	0.537	0.7996	0.7291	0.446
Mof_C 	C 	0.6106	0.5819	0.7146	0.315
Mof_C 	C 	0.625	0.4935	0.6345	-0.539
Mof_C 	C 	0.763	0.5034	0.5433	0.427
Mof_C 	C 	0.574	0.7095	0.6522	-0.511
Mof_C 	C 	0.4631	0.5555	0.7945	0.169
Mof_C 	C 	0.463	0.2004	0.2709	0.446
Mof_C 	C 	0.3894	0.4181	0.2854	0.315
Mof_C 	C 	0.375	0.5065	0.3655	-0.539
Mof_C 	C 	0.237	0.4966	0.4567	0.427
Mof_C 	C 	0.426	0.2905	0.3478	-0.511
Mof_C 	C 	0.5369	0.4445	0.2055	0.169
Mof_O 	O 	0.7575	0.5663	0.7764	-0.139
Mof_O 	O 	0.3192	0.5718	0.7578	-0.135
Mof_O 	O 	0.7363	0.6523	0.0054	-0.022
Mof_O 	O 	0.0269	0.5398	0.8934	-0.021
Mof_O 	O 	0.5202	0.7661	0.8352	-0.19
Mof_O 	O 	0.8676	0.5748	0.5466	-0.203
Mof_O 	O 	0.786	0.812	0.1512	-0.037
Mof_O 	O 	0.4875	0.5203	0.8996	-0.1
Mof_O 	O 	0.406	0.993	0.908	-0.027
Mof_O 	O 	0.7708	0.4394	0.4696	-0.232
Mof_O 	O 	0.524	0.9019	0.6831	-0.218
Mof_O 	O 	0.2425	0.4337	0.2236	-0.139
Mof_O 	O 	0.6808	0.4282	0.2422	-0.135
Mof_O 	O 	0.2637	0.3477	0.9946	-0.022
Mof_O 	O 	0.9731	0.4602	0.1066	-0.021
Mof_O 	O 	0.4798	0.2339	0.1648	-0.19
Mof_O 	O 	0.1324	0.4252	0.4534	-0.203
Mof_O 	O 	0.214	0.188	0.8488	-0.037
Mof_O 	O 	0.5125	0.4797	0.1004	-0.1
Mof_O 	O 	0.594	0.007	0.092	-0.027
Mof_O 	O 	0.2292	0.5606	0.5304	-0.232
Mof_O 	O 	0.476	0.0981	0.3169	-0.218
_end
