data_functionalizedCrystal
_audit_creation_method	'EQeq! by Chris Wilmer'
_symmetry_space_group_name_H-M	'P1'
_symmetry_Int_Tables_number	1
_symmetry_cell_setting	triclinic
loop_
_symmetry_equiv_pos_as_xyz
  x,y,z
_cell_length_a	13.0884
_cell_length_b	26.6186
_cell_length_c	26.6186
_cell_angle_alpha	65.2779
_cell_angle_beta	75.7679
_cell_angle_gamma	75.768
loop_
_atom_site_label
_atom_site_type_symbol
_atom_site_fract_x
_atom_site_fract_y
_atom_site_fract_z
_atom_site_charge
Mof_Zn	Zn	0.15882	0.48896	0.36284	1.224
Mof_Zn	Zn	0.97858	0.57644	0.28738	1.188
Mof_Zn	Zn	0.98938	0.86284	0.98896	1.21
Mof_Zn	Zn	0.1576	0.78738	0.07644	1.189
Mof_Zn	Zn	0.34118	0.63716	0.51104	1.223
Mof_Zn	Zn	0.52142	0.71262	0.42356	1.188
Mof_Zn	Zn	0.51062	0.01104	0.13716	1.211
Mof_Zn	Zn	0.3424	0.92356	0.21262	1.189
Mof_H 	H 	0.0268	0.2717	0.3669	0.081
Mof_H 	H 	0.0719	0.3511	0.3677	0.014
Mof_H 	H 	0.8528	0.4481	0.2677	0.013
Mof_H 	H 	0.7989	0.3666	0.2782	0.083
Mof_H 	H 	0.0105	0.2099	0.3281	0.034
Mof_H 	H 	0.7172	0.2945	0.3355	0.048
Mof_H 	H 	0.9518	0.1301	0.3385	0.056
Mof_H 	H 	0.5422	0.3177	0.2915	0.052
Mof_H 	H 	0.4138	0.3866	0.3146	0.032
Mof_H 	H 	0.3546	0.2756	0.4744	0.034
Mof_H 	H 	0.4829	0.2068	0.4514	0.06
Mof_H 	H 	0.4967	0.1614	0.376	0.09
Mof_H 	H 	0.8059	0.9408	0.1138	0.051
Mof_H 	H 	0.7708	0.9836	0.1794	0.074
Mof_H 	H 	0.0763	0.9298	0.2062	0.026
Mof_H 	H 	0.1161	0.889	0.1412	0.007
Mof_H 	H 	0.7894	0.0536	0.2048	0.083
Mof_H 	H 	0.7593	0.0951	0.2683	0.017
Mof_H 	H 	0.9908	0.9252	0.294	0.074
Mof_H 	H 	0.9675	0.958	0.4544	0.069
Mof_H 	H 	0.1674	0.9363	0.3261	0.084
Mof_H 	H 	0.9686	0.8541	0.4611	0.099
Mof_H 	H 	0.2984	0.8577	0.3479	-0.009
Mof_H 	H 	0.0968	0.7774	0.4794	0.007
Mof_H 	H 	0.4845	0.0286	0.3894	-0.064
Mof_H 	H 	0.4526	0.0904	0.3904	-0.064
Mof_H 	H 	0.4152	0.0917	0.3075	0.198
Mof_H 	H 	0.5056	0.1292	0.292	0.206
Mof_H 	H 	0.5376	0.0676	0.291	0.206
Mof_H 	H 	0.8806	0.9822	0.518	-0.08
Mof_H 	H 	0.8323	0.036	0.5348	-0.121
Mof_H 	H 	0.0119	0.0176	0.5256	0.287
Mof_H 	H 	0.0186	0.0248	0.4622	0.297
Mof_H 	H 	0.9712	0.0773	0.4803	0.304
Mof_H 	H 	0.3346	0.8669	0.7717	0.076
Mof_H 	H 	0.2093	0.8677	0.8511	0.025
Mof_H 	H 	0.4314	0.7677	0.9481	0.008
Mof_H 	H 	0.5563	0.7782	0.8666	0.077
Mof_H 	H 	0.4515	0.8281	0.7099	0.037
Mof_H 	H 	0.6528	0.8355	0.7945	0.051
Mof_H 	H 	0.5796	0.8385	0.6301	0.058
Mof_H 	H 	0.8486	0.7915	0.8177	0.055
Mof_H 	H 	0.885	0.8146	0.8866	0.027
Mof_H 	H 	0.8954	0.9744	0.7756	0.039
Mof_H 	H 	0.8589	0.9514	0.7068	0.069
Mof_H 	H 	0.9659	0.876	0.6614	0.089
Mof_H 	H 	0.1395	0.6138	0.4408	0.043
Mof_H 	H 	0.0662	0.6794	0.4836	0.073
Mof_H 	H 	0.7877	0.7062	0.4298	0.032
Mof_H 	H 	0.8537	0.6412	0.389	0.001
Mof_H 	H 	0.9522	0.7048	0.5536	0.051
Mof_H 	H 	0.8773	0.7683	0.5951	0.048
Mof_H 	H 	0.79	0.794	0.4252	0.049
Mof_H 	H 	0.6201	0.9544	0.458	0.106
Mof_H 	H 	0.5702	0.8261	0.4363	0.069
Mof_H 	H 	0.7162	0.9611	0.3541	0.103
Mof_H 	H 	0.496	0.8479	0.3577	-0.001
Mof_H 	H 	0.6464	0.9794	0.2774	0.022
Mof_H 	H 	0.0975	0.8894	0.5286	-0.047
Mof_H 	H 	0.0666	0.8904	0.5904	-0.057
Mof_H 	H 	0.1856	0.8075	0.5917	0.206
Mof_H 	H 	0.0732	0.792	0.6292	0.21
Mof_H 	H 	0.1038	0.791	0.5676	0.217
Mof_H 	H 	0.6192	0.018	0.4822	-0.019
Mof_H 	H 	0.5969	0.0348	0.536	-0.025
Mof_H 	H 	0.4449	0.0256	0.5176	0.129
Mof_H 	H 	0.4944	0.9622	0.5248	0.169
Mof_H 	H 	0.4712	0.9803	0.5773	0.173
Mof_H 	H 	0.4732	0.6331	0.7283	0.074
Mof_H 	H 	0.4281	0.6323	0.6489	0.019
Mof_H 	H 	0.6472	0.7323	0.5519	0.017
Mof_H 	H 	0.7011	0.7218	0.6334	0.08
Mof_H 	H 	0.4895	0.6719	0.7901	0.032
Mof_H 	H 	0.7828	0.6645	0.7055	0.049
Mof_H 	H 	0.5482	0.6615	0.8699	0.057
Mof_H 	H 	0.9578	0.7085	0.6823	0.053
Mof_H 	H 	0.0862	0.6854	0.6134	0.031
Mof_H 	H 	0.1454	0.5256	0.7244	0.035
Mof_H 	H 	0.0171	0.5486	0.7932	0.06
Mof_H 	H 	0.0033	0.624	0.8386	0.096
Mof_H 	H 	0.6941	0.8862	0.0592	0.051
Mof_H 	H 	0.7292	0.8206	0.0164	0.074
Mof_H 	H 	0.4237	0.7938	0.0702	0.026
Mof_H 	H 	0.3839	0.8588	0.111	0.007
Mof_H 	H 	0.7106	0.7952	0.9464	0.084
Mof_H 	H 	0.7407	0.7317	0.9049	0.017
Mof_H 	H 	0.5092	0.706	0.0748	0.076
Mof_H 	H 	0.5325	0.5456	0.042	0.069
Mof_H 	H 	0.3326	0.6739	0.0637	0.084
Mof_H 	H 	0.5314	0.5389	0.1459	0.105
Mof_H 	H 	0.2016	0.6521	0.1423	-0.01
Mof_H 	H 	0.4032	0.5206	0.2226	0.004
Mof_H 	H 	0.0155	0.6106	0.9714	-0.042
Mof_H 	H 	0.0474	0.6096	0.9096	-0.044
Mof_H 	H 	0.0848	0.6925	0.9083	0.174
Mof_H 	H 	0.9944	0.708	0.8708	0.178
Mof_H 	H 	0.9624	0.709	0.9324	0.179
Mof_H 	H 	0.6194	0.482	0.0178	-0.073
Mof_H 	H 	0.6677	0.4652	0.964	-0.114
Mof_H 	H 	0.4881	0.4744	0.9824	0.277
Mof_H 	H 	0.4814	0.5378	0.9752	0.287
Mof_H 	H 	0.5288	0.5197	0.9227	0.296
Mof_H 	H 	0.1654	0.2283	0.1331	0.076
Mof_H 	H 	0.2907	0.1489	0.1323	0.024
Mof_H 	H 	0.0686	0.0519	0.2323	0.009
Mof_H 	H 	0.9437	0.1334	0.2218	0.076
Mof_H 	H 	0.0485	0.2901	0.1719	0.04
Mof_H 	H 	0.8472	0.2055	0.1645	0.051
Mof_H 	H 	0.9204	0.3699	0.1615	0.057
Mof_H 	H 	0.6514	0.1823	0.2085	0.055
Mof_H 	H 	0.615	0.1134	0.1854	0.026
Mof_H 	H 	0.6046	0.2244	0.0256	0.039
Mof_H 	H 	0.6411	0.2932	0.0486	0.069
Mof_H 	H 	0.5341	0.3386	0.124	0.09
Mof_H 	H 	0.3605	0.5592	0.3862	0.04
Mof_H 	H 	0.4338	0.5164	0.3206	0.076
Mof_H 	H 	0.7123	0.5702	0.2938	0.035
Mof_H 	H 	0.6463	0.611	0.3588	-0.002
Mof_H 	H 	0.5478	0.4464	0.2952	0.052
Mof_H 	H 	0.6227	0.4049	0.2317	0.049
Mof_H 	H 	0.71	0.5748	0.206	0.048
Mof_H 	H 	0.8799	0.542	0.0456	0.105
Mof_H 	H 	0.9298	0.5637	0.1739	0.066
Mof_H 	H 	0.7838	0.6459	0.0389	0.101
Mof_H 	H 	0.004	0.6423	0.1521	0.005
Mof_H 	H 	0.8536	0.7226	0.0206	0.025
Mof_H 	H 	0.4025	0.4714	0.1106	-0.046
Mof_H 	H 	0.4334	0.4096	0.1096	-0.056
Mof_H 	H 	0.3144	0.4083	0.1925	0.204
Mof_H 	H 	0.4268	0.3708	0.208	0.206
Mof_H 	H 	0.3962	0.4324	0.209	0.214
Mof_H 	H 	0.8808	0.5178	0.982	-0.02
Mof_H 	H 	0.9031	0.464	0.9652	-0.026
Mof_H 	H 	0.0551	0.4824	0.9744	0.132
Mof_H 	H 	0.0056	0.4752	0.0378	0.17
Mof_H 	H 	0.0288	0.4227	0.0197	0.175
Mof_C 	C 	0.90743	0.31107	0.32387	0.097
Mof_C 	C 	0.9881	0.3076	0.3484	-0.162
Mof_C 	C 	0.0175	0.3552	0.3476	0.093
Mof_C 	C 	0.96708	0.40792	0.31812	-0.182
Mof_C 	C 	0.88675	0.41245	0.29005	0.088
Mof_C 	C 	0.85711	0.36349	0.29529	-0.153
Mof_C 	C 	0.86961	0.26029	0.32989	-0.022
Mof_C 	C 	0.93597	0.21093	0.33193	-0.028
Mof_C 	C 	0.76487	0.26083	0.33703	-0.047
Mof_C 	C 	0.72173	0.21237	0.34697	-0.025
Mof_C 	C 	0.90192	0.16248	0.33928	-0.078
Mof_C 	C 	0.79096	0.16264	0.34804	0.056
Mof_C 	C 	0.60362	0.20788	0.36108	0.043
Mof_C 	C 	0.52456	0.25574	0.36934	0.028
Mof_C 	C 	0.50409	0.30921	0.32861	-0.092
Mof_C 	C 	0.4279	0.3501	0.3423	0.008
Mof_C 	C 	0.37218	0.33762	0.39662	-0.081
Mof_C 	C 	0.39265	0.28415	0.43735	0.014
Mof_C 	C 	0.4688	0.2433	0.4237	-0.091
Mof_C 	C 	0.5712	0.1623	0.3683	-0.178
Mof_C 	C 	0.64616	0.11294	0.36494	0.195
Mof_C 	C 	0.75321	0.11299	0.35699	-0.078
Mof_C 	C 	0.86083	0.93897	0.13237	0.01
Mof_C 	C 	0.96346	0.91114	0.12154	-0.094
Mof_C 	C 	0.84033	0.96427	0.17147	-0.072
Mof_C 	C 	0.92028	0.96132	0.19872	0.002
Mof_C 	C 	0.02197	0.93233	0.18693	-0.066
Mof_C 	C 	0.04595	0.90785	0.14905	0.006
Mof_C 	C 	0.89847	0.98593	0.24293	0.115
Mof_C 	C 	0.8253	0.0363	0.2363	-0.18
Mof_C 	C 	0.80543	0.06017	0.27477	0.037
Mof_C 	C 	0.945	0.9601	0.2889	-0.155
Mof_C 	C 	0.92751	0.98369	0.33089	0.1
Mof_C 	C 	0.8507	0.0348	0.3232	-0.084
Mof_C 	C 	0.82484	0.05766	0.36506	0.021
Mof_C 	C 	0.87373	0.02847	0.41347	0.093
Mof_C 	C 	0.94122	0.97838	0.41998	-0.068
Mof_C 	C 	0.97211	0.95679	0.37959	-0.056
Mof_C 	C 	0.05329	0.90471	0.39011	0.118
Mof_C 	C 	0.15179	0.90381	0.35821	-0.186
Mof_C 	C 	0.03568	0.85542	0.43702	-0.168
Mof_C 	C 	0.23056	0.85654	0.37134	0.1
Mof_C 	C 	0.11166	0.81054	0.44814	0.097
Mof_C 	C 	0.21413	0.81087	0.41467	-0.179
Mof_C 	C 	0.5023	0.067	0.371	0.29
Mof_C 	C 	0.489	0.091	0.31	-0.619
Mof_C 	C 	0.87739	0.02321	0.50521	0.516
Mof_C 	C 	0.9767	0.0366	0.4924	-0.96
Mof_C 	C 	0.30042	0.75948	0.43088	0.421
Mof_C 	C 	0.9893	0.8863	0.0755	0.34
Mof_C 	C 	0.00113	0.45857	0.31597	0.46
Mof_C 	C 	0.3007	0.39	0.4078	0.339
Mof_C 	C 	0.45763	0.82387	0.81107	0.082
Mof_C 	C 	0.3559	0.8484	0.8076	-0.137
Mof_C 	C 	0.2797	0.8476	0.8552	0.065
Mof_C 	C 	0.30688	0.81812	0.90792	-0.154
Mof_C 	C 	0.41075	0.79005	0.91245	0.066
Mof_C 	C 	0.48411	0.79529	0.86349	-0.139
Mof_C 	C 	0.54021	0.82989	0.76029	-0.011
Mof_C 	C 	0.52117	0.83193	0.71093	-0.03
Mof_C 	C 	0.63727	0.83703	0.76083	-0.053
Mof_C 	C 	0.71893	0.84697	0.71237	-0.016
Mof_C 	C 	0.59632	0.83928	0.66248	-0.07
Mof_C 	C 	0.69836	0.84804	0.66264	0.046
Mof_C 	C 	0.82742	0.86108	0.70788	0.038
Mof_C 	C 	0.85036	0.86934	0.75574	0.034
Mof_C 	C 	0.85809	0.82861	0.80921	-0.097
Mof_C 	C 	0.8797	0.8423	0.8501	0.013
Mof_C 	C 	0.89358	0.89662	0.83762	-0.086
Mof_C 	C 	0.88585	0.93735	0.78415	0.019
Mof_C 	C 	0.8642	0.9237	0.7433	-0.094
Mof_C 	C 	0.8982	0.8683	0.6623	-0.17
Mof_C 	C 	0.87596	0.86494	0.61294	0.186
Mof_C 	C 	0.77681	0.85699	0.61299	-0.058
Mof_C 	C 	0.06783	0.63237	0.43897	0.018
Mof_C 	C 	0.00386	0.62154	0.41114	-0.1
Mof_C 	C 	0.02393	0.67147	0.46427	-0.093
Mof_C 	C 	0.91968	0.69872	0.46132	0.035
Mof_C 	C 	0.85877	0.68693	0.43233	-0.094
Mof_C 	C 	0.89715	0.64905	0.40785	0.01
Mof_C 	C 	0.87267	0.74293	0.48593	0.015
Mof_C 	C 	0.9021	0.7363	0.5363	-0.06
Mof_C 	C 	0.85963	0.77477	0.56017	-0.053
Mof_C 	C 	0.806	0.7889	0.4601	-0.078
Mof_C 	C 	0.75791	0.83089	0.48369	-0.003
Mof_C 	C 	0.7913	0.8232	0.5348	0.019
Mof_C 	C 	0.75244	0.86506	0.55766	-0.025
Mof_C 	C 	0.68433	0.91347	0.52847	0.161
Mof_C 	C 	0.66042	0.91998	0.47838	-0.159
Mof_C 	C 	0.69151	0.87959	0.45679	0.016
Mof_C 	C 	0.65189	0.89011	0.40471	0.079
Mof_C 	C 	0.58619	0.85821	0.40381	-0.155
Mof_C 	C 	0.67188	0.93702	0.35542	-0.146
Mof_C 	C 	0.54156	0.87134	0.35654	0.077
Mof_C 	C 	0.62966	0.94814	0.31054	0.081
Mof_C 	C 	0.56033	0.91467	0.31087	-0.159
Mof_C 	C 	0.0597	0.871	0.567	0.29
Mof_C 	C 	0.11	0.81	0.591	-0.626
Mof_C 	C 	0.59419	0.00521	0.52321	0.195
Mof_C 	C 	0.4943	0.9924	0.5366	-0.45
Mof_C 	C 	0.50922	0.93088	0.25948	0.414
Mof_C 	C 	0.0489	0.5755	0.3863	0.348
Mof_C 	C 	0.22433	0.81597	0.95857	0.4
Mof_C 	C 	0.9015	0.9078	0.89	0.342
Mof_C 	C 	0.59257	0.67613	0.68893	0.087
Mof_C 	C 	0.5119	0.6516	0.6924	-0.144
Mof_C 	C 	0.4825	0.6524	0.6448	0.075
Mof_C 	C 	0.53292	0.68188	0.59208	-0.168
Mof_C 	C 	0.61325	0.70995	0.58755	0.078
Mof_C 	C 	0.64289	0.70471	0.63651	-0.144
Mof_C 	C 	0.63039	0.67011	0.73971	-0.019
Mof_C 	C 	0.56403	0.66807	0.78907	-0.026
Mof_C 	C 	0.73513	0.66297	0.73917	-0.048
Mof_C 	C 	0.77827	0.65303	0.78763	-0.026
Mof_C 	C 	0.59808	0.66072	0.83752	-0.079
Mof_C 	C 	0.70904	0.65196	0.83736	0.057
Mof_C 	C 	0.89638	0.63892	0.79212	0.046
Mof_C 	C 	0.97544	0.63066	0.74426	0.022
Mof_C 	C 	0.99591	0.67139	0.69079	-0.096
Mof_C 	C 	0.0721	0.6577	0.6499	0.014
Mof_C 	C 	0.12782	0.60338	0.66238	-0.082
Mof_C 	C 	0.10735	0.56265	0.71585	0.013
Mof_C 	C 	0.0312	0.5763	0.7567	-0.085
Mof_C 	C 	0.9288	0.6317	0.8377	-0.187
Mof_C 	C 	0.85384	0.63506	0.88706	0.194
Mof_C 	C 	0.74679	0.64301	0.88701	-0.078
Mof_C 	C 	0.63917	0.86763	0.06103	0.009
Mof_C 	C 	0.53654	0.87846	0.08886	-0.09
Mof_C 	C 	0.65967	0.82853	0.03573	-0.072
Mof_C 	C 	0.57972	0.80128	0.03868	0.005
Mof_C 	C 	0.47803	0.81307	0.06767	-0.069
Mof_C 	C 	0.45405	0.85095	0.09215	0.003
Mof_C 	C 	0.60153	0.75707	0.01407	0.117
Mof_C 	C 	0.6747	0.7637	0.9637	-0.183
Mof_C 	C 	0.69457	0.72523	0.93983	0.039
Mof_C 	C 	0.555	0.7111	0.0399	-0.156
Mof_C 	C 	0.57249	0.66911	0.01631	0.103
Mof_C 	C 	0.6493	0.6768	0.9652	-0.087
Mof_C 	C 	0.67516	0.63494	0.94234	0.023
Mof_C 	C 	0.62627	0.58653	0.97153	0.09
Mof_C 	C 	0.55878	0.58002	0.02162	-0.065
Mof_C 	C 	0.52789	0.62041	0.04321	-0.055
Mof_C 	C 	0.44671	0.60989	0.09529	0.118
Mof_C 	C 	0.34821	0.64179	0.09619	-0.187
Mof_C 	C 	0.46432	0.56298	0.14458	-0.178
Mof_C 	C 	0.26944	0.62866	0.14346	0.102
Mof_C 	C 	0.38834	0.55186	0.18946	0.103
Mof_C 	C 	0.28587	0.58533	0.18913	-0.182
Mof_C 	C 	0.9977	0.629	0.933	0.229
Mof_C 	C 	0.011	0.69	0.909	-0.533
Mof_C 	C 	0.62261	0.49479	0.97679	0.494
Mof_C 	C 	0.5233	0.5076	0.9634	-0.929
Mof_C 	C 	0.19958	0.56912	0.24052	0.422
Mof_C 	C 	0.5107	0.9245	0.1137	0.343
Mof_C 	C 	0.49887	0.68403	0.54143	0.45
Mof_C 	C 	0.1993	0.5922	0.61	0.34
Mof_C 	C 	0.04237	0.18893	0.17613	0.081
Mof_C 	C 	0.1441	0.1924	0.1516	-0.136
Mof_C 	C 	0.2203	0.1448	0.1524	0.064
Mof_C 	C 	0.19312	0.09208	0.18188	-0.154
Mof_C 	C 	0.08925	0.08755	0.20995	0.064
Mof_C 	C 	0.01589	0.13651	0.20471	-0.136
Mof_C 	C 	0.95979	0.23971	0.17011	-0.011
Mof_C 	C 	0.97883	0.28907	0.16807	-0.035
Mof_C 	C 	0.86273	0.23917	0.16297	-0.054
Mof_C 	C 	0.78107	0.28763	0.15303	-0.015
Mof_C 	C 	0.90368	0.33752	0.16072	-0.067
Mof_C 	C 	0.80164	0.33736	0.15196	0.045
Mof_C 	C 	0.67258	0.29212	0.13892	0.037
Mof_C 	C 	0.64964	0.24426	0.13066	0.034
Mof_C 	C 	0.64191	0.19079	0.17139	-0.097
Mof_C 	C 	0.6203	0.1499	0.1577	0.013
Mof_C 	C 	0.60642	0.16238	0.10338	-0.085
Mof_C 	C 	0.61415	0.21585	0.06265	0.019
Mof_C 	C 	0.6358	0.2567	0.0763	-0.094
Mof_C 	C 	0.6018	0.3377	0.1317	-0.169
Mof_C 	C 	0.62404	0.38706	0.13506	0.185
Mof_C 	C 	0.72319	0.38701	0.14301	-0.057
Mof_C 	C 	0.43217	0.56103	0.36763	0.025
Mof_C 	C 	0.49614	0.58886	0.37846	-0.108
Mof_C 	C 	0.47607	0.53573	0.32853	-0.104
Mof_C 	C 	0.58032	0.53868	0.30128	0.044
Mof_C 	C 	0.64123	0.56767	0.31307	-0.102
Mof_C 	C 	0.60285	0.59215	0.35095	0.021
Mof_C 	C 	0.62733	0.51407	0.25707	0.011
Mof_C 	C 	0.5979	0.4637	0.2637	-0.057
Mof_C 	C 	0.64037	0.43983	0.22523	-0.055
Mof_C 	C 	0.694	0.5399	0.2111	-0.074
Mof_C 	C 	0.74209	0.51631	0.16911	-0.005
Mof_C 	C 	0.7087	0.4652	0.1768	0.021
Mof_C 	C 	0.74756	0.44234	0.13494	-0.027
Mof_C 	C 	0.81567	0.47153	0.08653	0.161
Mof_C 	C 	0.83958	0.52162	0.08002	-0.161
Mof_C 	C 	0.80849	0.54321	0.12041	0.019
Mof_C 	C 	0.84811	0.59529	0.10989	0.073
Mof_C 	C 	0.91381	0.59619	0.14179	-0.147
Mof_C 	C 	0.82812	0.64458	0.06298	-0.14
Mof_C 	C 	0.95844	0.64346	0.12866	0.063
Mof_C 	C 	0.87034	0.68946	0.05186	0.075
Mof_C 	C 	0.93967	0.68913	0.08533	-0.152
Mof_C 	C 	0.4403	0.433	0.129	0.283
Mof_C 	C 	0.39	0.409	0.19	-0.619
Mof_C 	C 	0.90581	0.47679	0.99479	0.195
Mof_C 	C 	0.0057	0.4634	0.0076	-0.454
Mof_C 	C 	0.99078	0.74052	0.06912	0.407
Mof_C 	C 	0.4511	0.6137	0.4245	0.347
Mof_C 	C 	0.27567	0.04143	0.18403	0.397
Mof_C 	C 	0.5985	0.11	0.0922	0.342
Mof_O 	O 	0.83707	0.05303	0.45243	-0.291
Mof_O 	O 	0.61202	0.06538	0.37578	-0.287
Mof_O 	O 	0.39415	0.76692	0.40658	-0.533
Mof_O 	O 	0.27069	0.71501	0.46661	-0.482
Mof_O 	O 	0.94942	0.50478	0.29138	-0.526
Mof_O 	O 	0.07596	0.45084	0.34084	-0.521
Mof_O 	O 	0.917	0.8919	0.0501	-0.445
Mof_O 	O 	0.08642	0.86128	0.06888	-0.549
Mof_O 	O 	0.2903	0.434	0.373	-0.468
Mof_O 	O 	0.2184	0.3701	0.4517	-0.268
Mof_O 	O 	0.65747	0.95243	0.55303	-0.224
Mof_O 	O 	0.94682	0.87578	0.56538	-0.275
Mof_O 	O 	0.43235	0.90658	0.26692	-0.528
Mof_O 	O 	0.54769	0.96661	0.21501	-0.465
Mof_O 	O 	0.25442	0.79138	0.00478	-0.48
Mof_O 	O 	0.13236	0.84084	0.95084	-0.514
Mof_O 	O 	0.141	0.5501	0.3919	-0.461
Mof_O 	O 	0.98342	0.56888	0.36128	-0.566
Mof_O 	O 	0.9027	0.873	0.934	-0.483
Mof_O 	O 	0.9598	0.9517	0.8701	-0.269
Mof_O 	O 	0.66293	0.54757	0.94697	-0.286
Mof_O 	O 	0.88798	0.62422	0.93462	-0.278
Mof_O 	O 	0.10585	0.59342	0.23308	-0.533
Mof_O 	O 	0.22931	0.53339	0.28499	-0.482
Mof_O 	O 	0.55058	0.70862	0.49522	-0.521
Mof_O 	O 	0.42404	0.65916	0.54916	-0.519
Mof_O 	O 	0.583	0.9499	0.1081	-0.446
Mof_O 	O 	0.41358	0.93112	0.13872	-0.552
Mof_O 	O 	0.2097	0.627	0.566	-0.468
Mof_O 	O 	0.2816	0.5483	0.6299	-0.269
Mof_O 	O 	0.84253	0.44697	0.04757	-0.225
Mof_O 	O 	0.55318	0.43462	0.12422	-0.271
Mof_O 	O 	0.06765	0.73308	0.09342	-0.525
Mof_O 	O 	0.95231	0.78499	0.03339	-0.464
Mof_O 	O 	0.24558	0.99522	0.20862	-0.478
Mof_O 	O 	0.36764	0.04916	0.15916	-0.516
Mof_O 	O 	0.359	0.6081	0.4499	-0.461
Mof_O 	O 	0.51658	0.63872	0.43112	-0.563
Mof_O 	O 	0.5973	0.066	0.127	-0.482
Mof_O 	O 	0.5402	0.1299	0.0483	-0.267
_end
