data_functionalizedCrystal
_audit_creation_method	'EQeq! by Chris Wilmer'
_symmetry_space_group_name_H-M	'P1'
_symmetry_Int_Tables_number	1
_symmetry_cell_setting	triclinic
loop_
_symmetry_equiv_pos_as_xyz
  x,y,z
_cell_length_a	52.349
_cell_length_b	20.421
_cell_length_c	9.9111
_cell_angle_alpha	90
_cell_angle_beta	90
_cell_angle_gamma	90
loop_
_atom_site_label
_atom_site_type_symbol
_atom_site_fract_x
_atom_site_fract_y
_atom_site_fract_z
_atom_site_charge
Mof_Co	Co	0.46179	0.33956	0.16536	1.154
Mof_O 	O 	0.45939	0.4159	0.30966	-0.389
Mof_O 	O 	0.46488	0.32349	0.4159	-0.343
Mof_O 	O 	0.45887	0.4197	0.02899	-0.368
Mof_O 	O 	0.46125	0.32708	0.9258	-0.364
Mof_N 	N 	0.46447	0.73447	0.6633	-0.237
Mof_N 	N 	0.50245	0.35057	0.1577	-0.237
Mof_N 	N 	0.67086	0.42118	0.9297	-0.259
Mof_C 	C 	0.46417	0.52428	0.6659	-0.033
Mof_C 	C 	0.46423	0.48859	0.5451	-0.01
Mof_H 	H 	0.465	0.5109	0.4612	0.047
Mof_C 	C 	0.46317	0.4207	0.5478	-0.08
Mof_C 	C 	0.46226	0.38771	0.6687	0.016
Mof_H 	H 	0.4618	0.3412	0.6699	0.046
Mof_C 	C 	0.46204	0.42282	0.79	-0.082
Mof_C 	C 	0.46314	0.49027	0.7876	-0.013
Mof_H 	H 	0.4632	0.5139	0.8702	0.039
Mof_C 	C 	0.45481	0.69967	0.5606	0.077
Mof_H 	H 	0.4479	0.7226	0.4857	0.007
Mof_C 	C 	0.45444	0.63236	0.5586	-0.143
Mof_H 	H 	0.4471	0.6101	0.4837	0.079
Mof_C 	C 	0.46458	0.59674	0.6645	0.087
Mof_C 	C 	0.47466	0.63277	0.7708	-0.142
Mof_H 	H 	0.4817	0.611	0.8469	0.081
Mof_C 	C 	0.47438	0.70063	0.7656	0.079
Mof_H 	H 	0.4817	0.7242	0.8387	0.006
Mof_C 	C 	0.46248	0.38401	0.4165	0.313
Mof_C 	C 	0.46058	0.38675	0.9219	0.294
Mof_C 	C 	0.58331	0.38646	0.1143	-0.088
Mof_H 	H 	0.5899	0.4096	0.1949	0.056
Mof_H 	H 	0.5922	0.3439	0.1079	0.061
Mof_C 	C 	0.51239	0.41039	0.1766	0.099
Mof_H 	H 	0.5011	0.4451	0.1997	0.004
Mof_C 	C 	0.53805	0.42423	0.1643	-0.17
Mof_H 	H 	0.5441	0.4676	0.1777	0.108
Mof_C 	C 	0.55503	0.37428	0.1322	0.115
Mof_C 	C 	0.54484	0.31281	0.1116	-0.162
Mof_H 	H 	0.5557	0.2772	0.0892	0.099
Mof_C 	C 	0.51879	0.30309	0.1236	0.099
Mof_H 	H 	0.5122	0.2605	0.1067	0.006
Mof_C 	C 	0.58925	0.42629	0.991	-0.256
Mof_H 	H 	0.583	0.4716	0.0037	0.122
Mof_H 	H 	0.5803	0.4073	0.912	0.1
Mof_C 	C 	0.66043	0.45726	0.0256	0.129
Mof_H 	H 	0.6714	0.4818	0.0827	-0.018
Mof_C 	C 	0.63421	0.46122	0.0474	-0.183
Mof_H 	H 	0.6277	0.4872	0.1192	0.092
Mof_C 	C 	0.61766	0.42742	0.9649	0.152
Mof_C 	C 	0.62842	0.39156	0.864	-0.207
Mof_H 	H 	0.6179	0.3681	0.8029	0.097
Mof_C 	C 	0.6548	0.38918	0.8501	0.11
Mof_H 	H 	0.6617	0.3632	0.7796	-0.011
Mof_Co	Co	0.46179	0.83956	0.66536	1.152
Mof_O 	O 	0.45939	0.9159	0.80966	-0.386
Mof_O 	O 	0.46488	0.82349	0.9159	-0.346
Mof_O 	O 	0.45887	0.9197	0.52899	-0.387
Mof_O 	O 	0.46125	0.82708	0.4258	-0.361
Mof_N 	N 	0.46447	0.23447	0.1633	-0.238
Mof_N 	N 	0.50245	0.85057	0.6577	-0.24
Mof_N 	N 	0.67086	0.92118	0.4297	-0.243
Mof_C 	C 	0.46417	0.02428	0.1659	-0.04
Mof_C 	C 	0.46423	0.98859	0.0451	0.027
Mof_H 	H 	0.465	0.0109	0.9612	0.024
Mof_C 	C 	0.46317	0.9207	0.0478	-0.071
Mof_C 	C 	0.46226	0.88771	0.1687	0.021
Mof_H 	H 	0.4618	0.8412	0.1699	0.05
Mof_C 	C 	0.46204	0.92282	0.29	-0.087
Mof_C 	C 	0.46314	0.99027	0.2876	-0.003
Mof_H 	H 	0.4632	0.0139	0.3702	0.044
Mof_C 	C 	0.45481	0.19967	0.0606	0.103
Mof_H 	H 	0.4479	0.2226	0.9857	-0.014
Mof_C 	C 	0.45444	0.13236	0.0586	-0.118
Mof_H 	H 	0.4471	0.1101	0.9837	0.059
Mof_C 	C 	0.46458	0.09674	0.1645	0.088
Mof_C 	C 	0.47466	0.13277	0.2708	-0.141
Mof_H 	H 	0.4817	0.111	0.3469	0.085
Mof_C 	C 	0.47438	0.20063	0.2656	0.08
Mof_H 	H 	0.4817	0.2242	0.3387	0.01
Mof_C 	C 	0.46248	0.88401	0.9165	0.298
Mof_C 	C 	0.46058	0.88675	0.4219	0.321
Mof_C 	C 	0.58331	0.88646	0.6143	-0.144
Mof_H 	H 	0.5899	0.9096	0.6949	0.068
Mof_H 	H 	0.5922	0.8439	0.6079	0.069
Mof_C 	C 	0.51239	0.91039	0.6766	0.101
Mof_H 	H 	0.5011	0.9451	0.6997	0.002
Mof_C 	C 	0.53805	0.92423	0.6643	-0.184
Mof_H 	H 	0.5441	0.9676	0.6777	0.111
Mof_C 	C 	0.55503	0.87428	0.6322	0.132
Mof_C 	C 	0.54484	0.81281	0.6116	-0.176
Mof_H 	H 	0.5557	0.7772	0.5892	0.098
Mof_C 	C 	0.51879	0.80309	0.6236	0.1
Mof_H 	H 	0.5122	0.7605	0.6067	0.001
Mof_C 	C 	0.58925	0.92629	0.491	-0.177
Mof_H 	H 	0.583	0.9716	0.5037	0.086
Mof_H 	H 	0.5803	0.9073	0.412	0.082
Mof_C 	C 	0.66043	0.95726	0.5256	0.107
Mof_H 	H 	0.6714	0.9818	0.5827	-0.014
Mof_C 	C 	0.63421	0.96122	0.5474	-0.193
Mof_H 	H 	0.6277	0.9872	0.6192	0.092
Mof_C 	C 	0.61766	0.92742	0.4649	0.153
Mof_C 	C 	0.62842	0.89156	0.364	-0.198
Mof_H 	H 	0.6179	0.8681	0.3029	0.096
Mof_C 	C 	0.6548	0.88918	0.3501	0.111
Mof_H 	H 	0.6617	0.8632	0.2796	-0.009
Mof_Co	Co	0.96179	0.33956	0.66536	1.152
Mof_O 	O 	0.95939	0.4159	0.80966	-0.386
Mof_O 	O 	0.96488	0.32349	0.9159	-0.346
Mof_O 	O 	0.95887	0.4197	0.52899	-0.387
Mof_O 	O 	0.96125	0.32708	0.4258	-0.361
Mof_N 	N 	0.96447	0.73447	0.1633	-0.238
Mof_N 	N 	0.00245	0.35057	0.6577	-0.24
Mof_N 	N 	0.17086	0.42118	0.4297	-0.243
Mof_C 	C 	0.96417	0.52428	0.1659	-0.04
Mof_C 	C 	0.96423	0.48859	0.0451	0.027
Mof_H 	H 	0.965	0.5109	0.9612	0.023
Mof_C 	C 	0.96317	0.4207	0.0478	-0.071
Mof_C 	C 	0.96226	0.38771	0.1687	0.021
Mof_H 	H 	0.9618	0.3412	0.1699	0.05
Mof_C 	C 	0.96204	0.42282	0.29	-0.087
Mof_C 	C 	0.96314	0.49027	0.2876	-0.003
Mof_H 	H 	0.9632	0.5139	0.3702	0.044
Mof_C 	C 	0.95481	0.69967	0.0606	0.103
Mof_H 	H 	0.9479	0.7226	0.9857	-0.014
Mof_C 	C 	0.95444	0.63236	0.0586	-0.118
Mof_H 	H 	0.9471	0.6101	0.9837	0.059
Mof_C 	C 	0.96458	0.59674	0.1645	0.088
Mof_C 	C 	0.97466	0.63277	0.2708	-0.141
Mof_H 	H 	0.9817	0.611	0.3469	0.085
Mof_C 	C 	0.97438	0.70063	0.2656	0.08
Mof_H 	H 	0.9817	0.7242	0.3387	0.01
Mof_C 	C 	0.96248	0.38401	0.9165	0.298
Mof_C 	C 	0.96058	0.38675	0.4219	0.321
Mof_C 	C 	0.08331	0.38646	0.6143	-0.144
Mof_H 	H 	0.0899	0.4096	0.6949	0.068
Mof_H 	H 	0.0922	0.3439	0.6079	0.069
Mof_C 	C 	0.01239	0.41039	0.6766	0.101
Mof_H 	H 	0.0011	0.4451	0.6997	0.002
Mof_C 	C 	0.03805	0.42423	0.6643	-0.184
Mof_H 	H 	0.0441	0.4676	0.6777	0.111
Mof_C 	C 	0.05503	0.37428	0.6322	0.132
Mof_C 	C 	0.04484	0.31281	0.6116	-0.176
Mof_H 	H 	0.0557	0.2772	0.5892	0.098
Mof_C 	C 	0.01879	0.30309	0.6236	0.1
Mof_H 	H 	0.0122	0.2605	0.6067	0.001
Mof_C 	C 	0.08925	0.42629	0.491	-0.177
Mof_H 	H 	0.083	0.4716	0.5037	0.086
Mof_H 	H 	0.0803	0.4073	0.412	0.082
Mof_C 	C 	0.16043	0.45726	0.5256	0.107
Mof_H 	H 	0.1714	0.4818	0.5827	-0.014
Mof_C 	C 	0.13421	0.46122	0.5474	-0.193
Mof_H 	H 	0.1277	0.4872	0.6192	0.092
Mof_C 	C 	0.11766	0.42742	0.4649	0.153
Mof_C 	C 	0.12842	0.39156	0.364	-0.198
Mof_H 	H 	0.1179	0.3681	0.3029	0.096
Mof_C 	C 	0.1548	0.38918	0.3501	0.111
Mof_H 	H 	0.1617	0.3632	0.2796	-0.009
Mof_Co	Co	0.96179	0.83956	0.16536	1.155
Mof_O 	O 	0.95939	0.9159	0.30966	-0.388
Mof_O 	O 	0.96488	0.82349	0.4159	-0.342
Mof_O 	O 	0.95887	0.9197	0.02899	-0.367
Mof_O 	O 	0.96125	0.82708	0.9258	-0.363
Mof_N 	N 	0.96447	0.23447	0.6633	-0.236
Mof_N 	N 	0.00245	0.85057	0.1577	-0.236
Mof_N 	N 	0.17086	0.92118	0.9297	-0.257
Mof_C 	C 	0.96417	0.02428	0.6659	-0.032
Mof_C 	C 	0.96423	0.98859	0.5451	-0.009
Mof_H 	H 	0.965	0.0109	0.4612	0.048
Mof_C 	C 	0.96317	0.9207	0.5478	-0.079
Mof_C 	C 	0.96226	0.88771	0.6687	0.017
Mof_H 	H 	0.9618	0.8412	0.6699	0.047
Mof_C 	C 	0.96204	0.92282	0.79	-0.081
Mof_C 	C 	0.96314	0.99027	0.7876	-0.012
Mof_H 	H 	0.9632	0.0139	0.8702	0.04
Mof_C 	C 	0.95481	0.19967	0.5606	0.078
Mof_H 	H 	0.9479	0.2226	0.4857	0.008
Mof_C 	C 	0.95444	0.13236	0.5586	-0.142
Mof_H 	H 	0.9471	0.1101	0.4837	0.08
Mof_C 	C 	0.96458	0.09674	0.6645	0.088
Mof_C 	C 	0.97466	0.13277	0.7708	-0.142
Mof_H 	H 	0.9817	0.111	0.8469	0.081
Mof_C 	C 	0.97438	0.20063	0.7656	0.079
Mof_H 	H 	0.9817	0.2242	0.8387	0.006
Mof_C 	C 	0.96248	0.88401	0.4165	0.313
Mof_C 	C 	0.96058	0.88675	0.9219	0.294
Mof_C 	C 	0.08331	0.88646	0.1143	-0.088
Mof_H 	H 	0.0899	0.9096	0.1949	0.056
Mof_H 	H 	0.0922	0.8439	0.1079	0.061
Mof_C 	C 	0.01239	0.91039	0.1766	0.099
Mof_H 	H 	0.0011	0.9451	0.1997	0.004
Mof_C 	C 	0.03805	0.92423	0.1643	-0.17
Mof_H 	H 	0.0441	0.9676	0.1777	0.108
Mof_C 	C 	0.05503	0.87428	0.1322	0.115
Mof_C 	C 	0.04484	0.81281	0.1116	-0.162
Mof_H 	H 	0.0557	0.7772	0.0892	0.099
Mof_C 	C 	0.01879	0.80309	0.1236	0.099
Mof_H 	H 	0.0122	0.7605	0.1067	0.006
Mof_C 	C 	0.08925	0.92629	0.991	-0.255
Mof_H 	H 	0.083	0.9716	0.0037	0.121
Mof_H 	H 	0.0803	0.9073	0.912	0.099
Mof_C 	C 	0.16043	0.95726	0.0256	0.129
Mof_H 	H 	0.1714	0.9818	0.0827	-0.018
Mof_C 	C 	0.13421	0.96122	0.0474	-0.183
Mof_H 	H 	0.1277	0.9872	0.1192	0.092
Mof_C 	C 	0.11766	0.92742	0.9649	0.152
Mof_C 	C 	0.12842	0.89156	0.864	-0.207
Mof_H 	H 	0.1179	0.8681	0.8029	0.097
Mof_C 	C 	0.1548	0.88918	0.8501	0.11
Mof_H 	H 	0.1617	0.8632	0.7796	-0.011
Mof_Co	Co	0.71179	0.91044	0.41536	1.152
Mof_O 	O 	0.70939	0.8341	0.55966	-0.387
Mof_O 	O 	0.71488	0.92651	0.6659	-0.342
Mof_O 	O 	0.70887	0.8303	0.27899	-0.385
Mof_O 	O 	0.71125	0.92292	0.1758	-0.354
Mof_N 	N 	0.71447	0.51553	0.9133	-0.246
Mof_N 	N 	0.75245	0.89943	0.4077	-0.24
Mof_N 	N 	0.92086	0.82882	0.1797	-0.242
Mof_C 	C 	0.71417	0.72572	0.9159	-0.048
Mof_C 	C 	0.71423	0.76141	0.7951	-0.011
Mof_H 	H 	0.715	0.7391	0.7112	0.048
Mof_C 	C 	0.71317	0.8293	0.7978	-0.073
Mof_C 	C 	0.71226	0.86229	0.9187	-0.011
Mof_H 	H 	0.7118	0.9088	0.9199	0.051
Mof_C 	C 	0.71204	0.82718	0.04	-0.063
Mof_C 	C 	0.71314	0.75973	0.0376	0.01
Mof_H 	H 	0.7132	0.7361	0.1202	0.042
Mof_C 	C 	0.70481	0.55033	0.8106	0.07
Mof_H 	H 	0.6979	0.5274	0.7357	0.009
Mof_C 	C 	0.70444	0.61764	0.8086	-0.135
Mof_H 	H 	0.6971	0.6399	0.7337	0.076
Mof_C 	C 	0.71458	0.65326	0.9145	0.065
Mof_C 	C 	0.72466	0.61723	0.0208	-0.115
Mof_H 	H 	0.7317	0.639	0.0969	0.079
Mof_C 	C 	0.72438	0.54937	0.0156	0.095
Mof_H 	H 	0.7317	0.5258	0.0887	0.009
Mof_C 	C 	0.71248	0.86599	0.6665	0.31
Mof_C 	C 	0.71058	0.86325	0.1719	0.315
Mof_C 	C 	0.83331	0.86354	0.3643	-0.145
Mof_H 	H 	0.8399	0.8404	0.4449	0.069
Mof_H 	H 	0.8422	0.9061	0.3579	0.07
Mof_C 	C 	0.76239	0.83961	0.4266	0.103
Mof_H 	H 	0.7511	0.8049	0.4497	0.002
Mof_C 	C 	0.78805	0.82577	0.4143	-0.184
Mof_H 	H 	0.7941	0.7824	0.4277	0.112
Mof_C 	C 	0.80503	0.87572	0.3822	0.133
Mof_C 	C 	0.79484	0.93719	0.3616	-0.176
Mof_H 	H 	0.8057	0.9728	0.3392	0.099
Mof_C 	C 	0.76879	0.94691	0.3736	0.102
Mof_H 	H 	0.7622	0.9895	0.3567	0.002
Mof_C 	C 	0.83925	0.82371	0.241	-0.178
Mof_H 	H 	0.833	0.7784	0.2537	0.087
Mof_H 	H 	0.8303	0.8427	0.162	0.085
Mof_C 	C 	0.91043	0.79274	0.2756	0.108
Mof_H 	H 	0.9214	0.7682	0.3327	-0.014
Mof_C 	C 	0.88421	0.78878	0.2974	-0.193
Mof_H 	H 	0.8777	0.7628	0.3692	0.093
Mof_C 	C 	0.86766	0.82258	0.2149	0.155
Mof_C 	C 	0.87842	0.85844	0.114	-0.198
Mof_H 	H 	0.8679	0.8819	0.0529	0.099
Mof_C 	C 	0.9048	0.86082	0.1001	0.113
Mof_H 	H 	0.9117	0.8868	0.0296	-0.006
Mof_Co	Co	0.71179	0.41044	0.91536	1.147
Mof_O 	O 	0.70939	0.3341	0.05966	-0.373
Mof_O 	O 	0.71488	0.42651	0.1659	-0.336
Mof_O 	O 	0.70887	0.3303	0.77899	-0.39
Mof_O 	O 	0.71125	0.42292	0.6758	-0.362
Mof_N 	N 	0.71447	0.01553	0.4133	-0.235
Mof_N 	N 	0.75245	0.39943	0.9077	-0.242
Mof_N 	N 	0.92086	0.32882	0.6797	-0.244
Mof_C 	C 	0.71417	0.22572	0.4159	-0.031
Mof_C 	C 	0.71423	0.26141	0.2951	-0.01
Mof_H 	H 	0.715	0.2391	0.2112	0.052
Mof_C 	C 	0.71317	0.3293	0.2978	-0.077
Mof_C 	C 	0.71226	0.36229	0.4187	0.02
Mof_H 	H 	0.7118	0.4088	0.4199	0.047
Mof_C 	C 	0.71204	0.32718	0.54	-0.085
Mof_C 	C 	0.71314	0.25973	0.5376	-0.008
Mof_H 	H 	0.7132	0.2361	0.6202	0.045
Mof_C 	C 	0.70481	0.05033	0.3106	0.079
Mof_H 	H 	0.6979	0.0274	0.2357	0.011
Mof_C 	C 	0.70444	0.11764	0.3086	-0.142
Mof_H 	H 	0.6971	0.1399	0.2337	0.084
Mof_C 	C 	0.71458	0.15326	0.4145	0.09
Mof_C 	C 	0.72466	0.11723	0.5208	-0.141
Mof_H 	H 	0.7317	0.139	0.5969	0.085
Mof_C 	C 	0.72438	0.04937	0.5156	0.081
Mof_H 	H 	0.7317	0.0258	0.5887	0.009
Mof_C 	C 	0.71248	0.36599	0.1665	0.312
Mof_C 	C 	0.71058	0.36325	0.6719	0.321
Mof_C 	C 	0.83331	0.36354	0.8643	-0.141
Mof_H 	H 	0.8399	0.3404	0.9449	0.064
Mof_H 	H 	0.8422	0.4061	0.8579	0.067
Mof_C 	C 	0.76239	0.33961	0.9266	0.098
Mof_H 	H 	0.7511	0.3049	0.9497	-0.002
Mof_C 	C 	0.78805	0.32577	0.9143	-0.184
Mof_H 	H 	0.7941	0.2824	0.9277	0.107
Mof_C 	C 	0.80503	0.37572	0.8822	0.128
Mof_C 	C 	0.79484	0.43719	0.8616	-0.176
Mof_H 	H 	0.8057	0.4728	0.8392	0.096
Mof_C 	C 	0.76879	0.44691	0.8736	0.098
Mof_H 	H 	0.7622	0.4895	0.8567	-0.001
Mof_C 	C 	0.83925	0.32371	0.741	-0.178
Mof_H 	H 	0.833	0.2784	0.7537	0.086
Mof_H 	H 	0.8303	0.3427	0.662	0.083
Mof_C 	C 	0.91043	0.29274	0.7756	0.106
Mof_H 	H 	0.9214	0.2682	0.8327	-0.017
Mof_C 	C 	0.88421	0.28878	0.7974	-0.194
Mof_H 	H 	0.8777	0.2628	0.8692	0.09
Mof_C 	C 	0.86766	0.32258	0.7149	0.152
Mof_C 	C 	0.87842	0.35844	0.614	-0.199
Mof_H 	H 	0.8679	0.3819	0.5529	0.096
Mof_C 	C 	0.9048	0.36082	0.6001	0.111
Mof_H 	H 	0.9117	0.3868	0.5296	-0.01
Mof_Co	Co	0.21179	0.91044	0.91536	1.147
Mof_O 	O 	0.20939	0.8341	0.05966	-0.373
Mof_O 	O 	0.21488	0.92651	0.1659	-0.336
Mof_O 	O 	0.20887	0.8303	0.77899	-0.39
Mof_O 	O 	0.21125	0.92292	0.6758	-0.362
Mof_N 	N 	0.21447	0.51553	0.4133	-0.235
Mof_N 	N 	0.25245	0.89943	0.9077	-0.242
Mof_N 	N 	0.42086	0.82882	0.6797	-0.244
Mof_C 	C 	0.21417	0.72572	0.4159	-0.031
Mof_C 	C 	0.21423	0.76141	0.2951	-0.01
Mof_H 	H 	0.215	0.7391	0.2112	0.052
Mof_C 	C 	0.21317	0.8293	0.2978	-0.077
Mof_C 	C 	0.21226	0.86229	0.4187	0.02
Mof_H 	H 	0.2118	0.9088	0.4199	0.047
Mof_C 	C 	0.21204	0.82718	0.54	-0.085
Mof_C 	C 	0.21314	0.75973	0.5376	-0.008
Mof_H 	H 	0.2132	0.7361	0.6202	0.045
Mof_C 	C 	0.20481	0.55033	0.3106	0.079
Mof_H 	H 	0.1979	0.5274	0.2357	0.011
Mof_C 	C 	0.20444	0.61764	0.3086	-0.142
Mof_H 	H 	0.1971	0.6399	0.2337	0.084
Mof_C 	C 	0.21458	0.65326	0.4145	0.09
Mof_C 	C 	0.22466	0.61723	0.5208	-0.141
Mof_H 	H 	0.2317	0.639	0.5969	0.085
Mof_C 	C 	0.22438	0.54937	0.5156	0.081
Mof_H 	H 	0.2317	0.5258	0.5887	0.009
Mof_C 	C 	0.21248	0.86599	0.1665	0.312
Mof_C 	C 	0.21058	0.86325	0.6719	0.321
Mof_C 	C 	0.33331	0.86354	0.8643	-0.141
Mof_H 	H 	0.3399	0.8404	0.9449	0.064
Mof_H 	H 	0.3422	0.9061	0.8579	0.067
Mof_C 	C 	0.26239	0.83961	0.9266	0.098
Mof_H 	H 	0.2511	0.8049	0.9497	-0.002
Mof_C 	C 	0.28805	0.82577	0.9143	-0.184
Mof_H 	H 	0.2941	0.7824	0.9277	0.107
Mof_C 	C 	0.30503	0.87572	0.8822	0.128
Mof_C 	C 	0.29484	0.93719	0.8616	-0.176
Mof_H 	H 	0.3057	0.9728	0.8392	0.096
Mof_C 	C 	0.26879	0.94691	0.8736	0.098
Mof_H 	H 	0.2622	0.9895	0.8567	-0.001
Mof_C 	C 	0.33925	0.82371	0.741	-0.178
Mof_H 	H 	0.333	0.7784	0.7537	0.086
Mof_H 	H 	0.3303	0.8427	0.662	0.083
Mof_C 	C 	0.41043	0.79274	0.7756	0.106
Mof_H 	H 	0.4214	0.7682	0.8327	-0.017
Mof_C 	C 	0.38421	0.78878	0.7974	-0.194
Mof_H 	H 	0.3777	0.7628	0.8692	0.09
Mof_C 	C 	0.36766	0.82258	0.7149	0.152
Mof_C 	C 	0.37842	0.85844	0.614	-0.199
Mof_H 	H 	0.3679	0.8819	0.5529	0.096
Mof_C 	C 	0.4048	0.86082	0.6001	0.111
Mof_H 	H 	0.4117	0.8868	0.5296	-0.01
Mof_Co	Co	0.21179	0.41044	0.41536	1.152
Mof_O 	O 	0.20939	0.3341	0.55966	-0.387
Mof_O 	O 	0.21488	0.42651	0.6659	-0.342
Mof_O 	O 	0.20887	0.3303	0.27899	-0.385
Mof_O 	O 	0.21125	0.42292	0.1758	-0.354
Mof_N 	N 	0.21447	0.01553	0.9133	-0.246
Mof_N 	N 	0.25245	0.39943	0.4077	-0.24
Mof_N 	N 	0.42086	0.32882	0.1797	-0.242
Mof_C 	C 	0.21417	0.22572	0.9159	-0.048
Mof_C 	C 	0.21423	0.26141	0.7951	-0.011
Mof_H 	H 	0.215	0.2391	0.7112	0.048
Mof_C 	C 	0.21317	0.3293	0.7978	-0.073
Mof_C 	C 	0.21226	0.36229	0.9187	-0.011
Mof_H 	H 	0.2118	0.4088	0.9199	0.051
Mof_C 	C 	0.21204	0.32718	0.04	-0.062
Mof_C 	C 	0.21314	0.25973	0.0376	0.01
Mof_H 	H 	0.2132	0.2361	0.1202	0.042
Mof_C 	C 	0.20481	0.05033	0.8106	0.07
Mof_H 	H 	0.1979	0.0274	0.7357	0.009
Mof_C 	C 	0.20444	0.11764	0.8086	-0.135
Mof_H 	H 	0.1971	0.1399	0.7337	0.076
Mof_C 	C 	0.21458	0.15326	0.9145	0.065
Mof_C 	C 	0.22466	0.11723	0.0208	-0.115
Mof_H 	H 	0.2317	0.139	0.0969	0.079
Mof_C 	C 	0.22438	0.04937	0.0156	0.094
Mof_H 	H 	0.2317	0.0258	0.0887	0.009
Mof_C 	C 	0.21248	0.36599	0.6665	0.31
Mof_C 	C 	0.21058	0.36325	0.1719	0.315
Mof_C 	C 	0.33331	0.36354	0.3643	-0.145
Mof_H 	H 	0.3399	0.3404	0.4449	0.069
Mof_H 	H 	0.3422	0.4061	0.3579	0.07
Mof_C 	C 	0.26239	0.33961	0.4266	0.103
Mof_H 	H 	0.2511	0.3049	0.4497	0.002
Mof_C 	C 	0.28805	0.32577	0.4143	-0.184
Mof_H 	H 	0.2941	0.2824	0.4277	0.112
Mof_C 	C 	0.30503	0.37572	0.3822	0.133
Mof_C 	C 	0.29484	0.43719	0.3616	-0.176
Mof_H 	H 	0.3057	0.4728	0.3392	0.099
Mof_C 	C 	0.26879	0.44691	0.3736	0.102
Mof_H 	H 	0.2622	0.4895	0.3567	0.002
Mof_C 	C 	0.33925	0.32371	0.241	-0.178
Mof_H 	H 	0.333	0.2784	0.2537	0.087
Mof_H 	H 	0.3303	0.3427	0.162	0.085
Mof_C 	C 	0.41043	0.29274	0.2756	0.108
Mof_H 	H 	0.4214	0.2682	0.3327	-0.014
Mof_C 	C 	0.38421	0.28878	0.2974	-0.193
Mof_H 	H 	0.3777	0.2628	0.3692	0.093
Mof_C 	C 	0.36766	0.32258	0.2149	0.155
Mof_C 	C 	0.37842	0.35844	0.114	-0.198
Mof_H 	H 	0.3679	0.3819	0.0529	0.099
Mof_C 	C 	0.4048	0.36082	0.1001	0.113
Mof_H 	H 	0.4117	0.3868	0.0296	-0.006
Mof_Co	Co	0.53821	0.66044	0.16536	1.155
Mof_O 	O 	0.54061	0.5841	0.30966	-0.388
Mof_O 	O 	0.53512	0.67651	0.4159	-0.342
Mof_O 	O 	0.54113	0.5803	0.02899	-0.367
Mof_O 	O 	0.53875	0.67292	0.9258	-0.363
Mof_N 	N 	0.53553	0.26553	0.6633	-0.236
Mof_N 	N 	0.49755	0.64943	0.1577	-0.236
Mof_N 	N 	0.32914	0.57882	0.9297	-0.258
Mof_C 	C 	0.53583	0.47572	0.6659	-0.032
Mof_C 	C 	0.53577	0.51141	0.5451	-0.009
Mof_H 	H 	0.535	0.4891	0.4612	0.048
Mof_C 	C 	0.53683	0.5793	0.5478	-0.079
Mof_C 	C 	0.53774	0.61229	0.6687	0.017
Mof_H 	H 	0.5382	0.6588	0.6699	0.047
Mof_C 	C 	0.53796	0.57718	0.79	-0.081
Mof_C 	C 	0.53686	0.50973	0.7876	-0.012
Mof_H 	H 	0.5368	0.4861	0.8702	0.04
Mof_C 	C 	0.54519	0.30033	0.5606	0.078
Mof_H 	H 	0.5521	0.2774	0.4857	0.008
Mof_C 	C 	0.54556	0.36764	0.5586	-0.142
Mof_H 	H 	0.5529	0.3899	0.4837	0.08
Mof_C 	C 	0.53542	0.40326	0.6645	0.088
Mof_C 	C 	0.52534	0.36723	0.7708	-0.142
Mof_H 	H 	0.5183	0.389	0.8469	0.081
Mof_C 	C 	0.52562	0.29937	0.7656	0.079
Mof_H 	H 	0.5183	0.2758	0.8387	0.006
Mof_C 	C 	0.53752	0.61599	0.4165	0.313
Mof_C 	C 	0.53942	0.61325	0.9219	0.294
Mof_C 	C 	0.41669	0.61354	0.1143	-0.088
Mof_H 	H 	0.4101	0.5904	0.1949	0.056
Mof_H 	H 	0.4078	0.6561	0.1079	0.061
Mof_C 	C 	0.48761	0.58961	0.1766	0.099
Mof_H 	H 	0.4989	0.5549	0.1997	0.004
Mof_C 	C 	0.46195	0.57577	0.1643	-0.17
Mof_H 	H 	0.4559	0.5324	0.1777	0.108
Mof_C 	C 	0.44497	0.62572	0.1322	0.115
Mof_C 	C 	0.45516	0.68719	0.1116	-0.162
Mof_H 	H 	0.4443	0.7228	0.0892	0.099
Mof_C 	C 	0.48121	0.69691	0.1236	0.099
Mof_H 	H 	0.4878	0.7395	0.1067	0.006
Mof_C 	C 	0.41075	0.57371	0.991	-0.256
Mof_H 	H 	0.417	0.5284	0.0037	0.122
Mof_H 	H 	0.4197	0.5927	0.912	0.1
Mof_C 	C 	0.33957	0.54274	0.0256	0.129
Mof_H 	H 	0.3286	0.5182	0.0827	-0.018
Mof_C 	C 	0.36579	0.53878	0.0474	-0.183
Mof_H 	H 	0.3723	0.5128	0.1192	0.092
Mof_C 	C 	0.38234	0.57258	0.9649	0.152
Mof_C 	C 	0.37158	0.60844	0.864	-0.207
Mof_H 	H 	0.3821	0.6319	0.8029	0.097
Mof_C 	C 	0.3452	0.61082	0.8501	0.11
Mof_H 	H 	0.3383	0.6368	0.7796	-0.011
Mof_Co	Co	0.53821	0.16044	0.66536	1.152
Mof_O 	O 	0.54061	0.0841	0.80966	-0.386
Mof_O 	O 	0.53512	0.17651	0.9159	-0.346
Mof_O 	O 	0.54113	0.0803	0.52899	-0.387
Mof_O 	O 	0.53875	0.17292	0.4258	-0.361
Mof_N 	N 	0.53553	0.76553	0.1633	-0.238
Mof_N 	N 	0.49755	0.14943	0.6577	-0.24
Mof_N 	N 	0.32914	0.07882	0.4297	-0.243
Mof_C 	C 	0.53583	0.97572	0.1659	-0.04
Mof_C 	C 	0.53577	0.01141	0.0451	0.027
Mof_H 	H 	0.535	0.9891	0.9612	0.024
Mof_C 	C 	0.53683	0.0793	0.0478	-0.071
Mof_C 	C 	0.53774	0.11229	0.1687	0.021
Mof_H 	H 	0.5382	0.1588	0.1699	0.05
Mof_C 	C 	0.53796	0.07718	0.29	-0.087
Mof_C 	C 	0.53686	0.00973	0.2876	-0.003
Mof_H 	H 	0.5368	0.9861	0.3702	0.044
Mof_C 	C 	0.54519	0.80033	0.0606	0.103
Mof_H 	H 	0.5521	0.7774	0.9857	-0.014
Mof_C 	C 	0.54556	0.86764	0.0586	-0.118
Mof_H 	H 	0.5529	0.8899	0.9837	0.059
Mof_C 	C 	0.53542	0.90326	0.1645	0.088
Mof_C 	C 	0.52534	0.86723	0.2708	-0.141
Mof_H 	H 	0.5183	0.889	0.3469	0.085
Mof_C 	C 	0.52562	0.79937	0.2656	0.08
Mof_H 	H 	0.5183	0.7758	0.3387	0.01
Mof_C 	C 	0.53752	0.11599	0.9165	0.298
Mof_C 	C 	0.53942	0.11325	0.4219	0.321
Mof_C 	C 	0.41669	0.11354	0.6143	-0.144
Mof_H 	H 	0.4101	0.0904	0.6949	0.068
Mof_H 	H 	0.4078	0.1561	0.6079	0.069
Mof_C 	C 	0.48761	0.08961	0.6766	0.101
Mof_H 	H 	0.4989	0.0549	0.6997	0.002
Mof_C 	C 	0.46195	0.07577	0.6643	-0.184
Mof_H 	H 	0.4559	0.0324	0.6777	0.111
Mof_C 	C 	0.44497	0.12572	0.6322	0.132
Mof_C 	C 	0.45516	0.18719	0.6116	-0.176
Mof_H 	H 	0.4443	0.2228	0.5892	0.098
Mof_C 	C 	0.48121	0.19691	0.6236	0.1
Mof_H 	H 	0.4878	0.2395	0.6067	0.001
Mof_C 	C 	0.41075	0.07371	0.491	-0.177
Mof_H 	H 	0.417	0.0284	0.5037	0.086
Mof_H 	H 	0.4197	0.0927	0.412	0.082
Mof_C 	C 	0.33957	0.04274	0.5256	0.107
Mof_H 	H 	0.3286	0.0182	0.5827	-0.014
Mof_C 	C 	0.36579	0.03878	0.5474	-0.193
Mof_H 	H 	0.3723	0.0128	0.6192	0.092
Mof_C 	C 	0.38234	0.07258	0.4649	0.153
Mof_C 	C 	0.37158	0.10844	0.364	-0.198
Mof_H 	H 	0.3821	0.1319	0.3029	0.096
Mof_C 	C 	0.3452	0.11082	0.3501	0.111
Mof_H 	H 	0.3383	0.1368	0.2796	-0.009
Mof_Co	Co	0.03821	0.66044	0.66536	1.152
Mof_O 	O 	0.04061	0.5841	0.80966	-0.386
Mof_O 	O 	0.03512	0.67651	0.9159	-0.346
Mof_O 	O 	0.04113	0.5803	0.52899	-0.387
Mof_O 	O 	0.03875	0.67292	0.4258	-0.361
Mof_N 	N 	0.03553	0.26553	0.1633	-0.238
Mof_N 	N 	0.99755	0.64943	0.6577	-0.24
Mof_N 	N 	0.82914	0.57882	0.4297	-0.243
Mof_C 	C 	0.03583	0.47572	0.1659	-0.04
Mof_C 	C 	0.03577	0.51141	0.0451	0.027
Mof_H 	H 	0.035	0.4891	0.9612	0.023
Mof_C 	C 	0.03683	0.5793	0.0478	-0.071
Mof_C 	C 	0.03774	0.61229	0.1687	0.021
Mof_H 	H 	0.0382	0.6588	0.1699	0.05
Mof_C 	C 	0.03796	0.57718	0.29	-0.087
Mof_C 	C 	0.03686	0.50973	0.2876	-0.003
Mof_H 	H 	0.0368	0.4861	0.3702	0.044
Mof_C 	C 	0.04519	0.30033	0.0606	0.103
Mof_H 	H 	0.0521	0.2774	0.9857	-0.014
Mof_C 	C 	0.04556	0.36764	0.0586	-0.118
Mof_H 	H 	0.0529	0.3899	0.9837	0.059
Mof_C 	C 	0.03542	0.40326	0.1645	0.088
Mof_C 	C 	0.02534	0.36723	0.2708	-0.141
Mof_H 	H 	0.0183	0.389	0.3469	0.085
Mof_C 	C 	0.02562	0.29937	0.2656	0.08
Mof_H 	H 	0.0183	0.2758	0.3387	0.01
Mof_C 	C 	0.03752	0.61599	0.9165	0.298
Mof_C 	C 	0.03942	0.61325	0.4219	0.321
Mof_C 	C 	0.91669	0.61354	0.6143	-0.144
Mof_H 	H 	0.9101	0.5904	0.6949	0.068
Mof_H 	H 	0.9078	0.6561	0.6079	0.069
Mof_C 	C 	0.98761	0.58961	0.6766	0.101
Mof_H 	H 	0.9989	0.5549	0.6997	0.002
Mof_C 	C 	0.96195	0.57577	0.6643	-0.184
Mof_H 	H 	0.9559	0.5324	0.6777	0.111
Mof_C 	C 	0.94497	0.62572	0.6322	0.132
Mof_C 	C 	0.95516	0.68719	0.6116	-0.176
Mof_H 	H 	0.9443	0.7228	0.5892	0.098
Mof_C 	C 	0.98121	0.69691	0.6236	0.1
Mof_H 	H 	0.9878	0.7395	0.6067	0.001
Mof_C 	C 	0.91075	0.57371	0.491	-0.177
Mof_H 	H 	0.917	0.5284	0.5037	0.086
Mof_H 	H 	0.9197	0.5927	0.412	0.082
Mof_C 	C 	0.83957	0.54274	0.5256	0.107
Mof_H 	H 	0.8286	0.5182	0.5827	-0.014
Mof_C 	C 	0.86579	0.53878	0.5474	-0.193
Mof_H 	H 	0.8723	0.5128	0.6192	0.092
Mof_C 	C 	0.88234	0.57258	0.4649	0.153
Mof_C 	C 	0.87158	0.60844	0.364	-0.198
Mof_H 	H 	0.8821	0.6319	0.3029	0.096
Mof_C 	C 	0.8452	0.61082	0.3501	0.111
Mof_H 	H 	0.8383	0.6368	0.2796	-0.009
Mof_Co	Co	0.03821	0.16044	0.16536	1.155
Mof_O 	O 	0.04061	0.0841	0.30966	-0.388
Mof_O 	O 	0.03512	0.17651	0.4159	-0.342
Mof_O 	O 	0.04113	0.0803	0.02899	-0.367
Mof_O 	O 	0.03875	0.17292	0.9258	-0.363
Mof_N 	N 	0.03553	0.76553	0.6633	-0.236
Mof_N 	N 	0.99755	0.14943	0.1577	-0.236
Mof_N 	N 	0.82914	0.07882	0.9297	-0.257
Mof_C 	C 	0.03583	0.97572	0.6659	-0.032
Mof_C 	C 	0.03577	0.01141	0.5451	-0.009
Mof_H 	H 	0.035	0.9891	0.4612	0.048
Mof_C 	C 	0.03683	0.0793	0.5478	-0.079
Mof_C 	C 	0.03774	0.11229	0.6687	0.017
Mof_H 	H 	0.0382	0.1588	0.6699	0.047
Mof_C 	C 	0.03796	0.07718	0.79	-0.081
Mof_C 	C 	0.03686	0.00973	0.7876	-0.012
Mof_H 	H 	0.0368	0.9861	0.8702	0.04
Mof_C 	C 	0.04519	0.80033	0.5606	0.078
Mof_H 	H 	0.0521	0.7774	0.4857	0.008
Mof_C 	C 	0.04556	0.86764	0.5586	-0.142
Mof_H 	H 	0.0529	0.8899	0.4837	0.08
Mof_C 	C 	0.03542	0.90326	0.6645	0.088
Mof_C 	C 	0.02534	0.86723	0.7708	-0.142
Mof_H 	H 	0.0183	0.889	0.8469	0.081
Mof_C 	C 	0.02562	0.79937	0.7656	0.079
Mof_H 	H 	0.0183	0.7758	0.8387	0.006
Mof_C 	C 	0.03752	0.11599	0.4165	0.313
Mof_C 	C 	0.03942	0.11325	0.9219	0.294
Mof_C 	C 	0.91669	0.11354	0.1143	-0.088
Mof_H 	H 	0.9101	0.0904	0.1949	0.056
Mof_H 	H 	0.9078	0.1561	0.1079	0.061
Mof_C 	C 	0.98761	0.08961	0.1766	0.099
Mof_H 	H 	0.9989	0.0549	0.1997	0.004
Mof_C 	C 	0.96195	0.07577	0.1643	-0.17
Mof_H 	H 	0.9559	0.0324	0.1777	0.108
Mof_C 	C 	0.94497	0.12572	0.1322	0.115
Mof_C 	C 	0.95516	0.18719	0.1116	-0.162
Mof_H 	H 	0.9443	0.2228	0.0892	0.099
Mof_C 	C 	0.98121	0.19691	0.1236	0.099
Mof_H 	H 	0.9878	0.2395	0.1067	0.006
Mof_C 	C 	0.91075	0.07371	0.991	-0.255
Mof_H 	H 	0.917	0.0284	0.0037	0.121
Mof_H 	H 	0.9197	0.0927	0.912	0.099
Mof_C 	C 	0.83957	0.04274	0.0256	0.129
Mof_H 	H 	0.8286	0.0182	0.0827	-0.018
Mof_C 	C 	0.86579	0.03878	0.0474	-0.183
Mof_H 	H 	0.8723	0.0128	0.1192	0.092
Mof_C 	C 	0.88234	0.07258	0.9649	0.152
Mof_C 	C 	0.87158	0.10844	0.864	-0.207
Mof_H 	H 	0.8821	0.1319	0.8029	0.097
Mof_C 	C 	0.8452	0.11082	0.8501	0.11
Mof_H 	H 	0.8383	0.1368	0.7796	-0.011
Mof_Co	Co	0.78821	0.58956	0.41536	1.152
Mof_O 	O 	0.79061	0.6659	0.55966	-0.387
Mof_O 	O 	0.78512	0.57349	0.6659	-0.342
Mof_O 	O 	0.79113	0.6697	0.27899	-0.385
Mof_O 	O 	0.78875	0.57708	0.1758	-0.354
Mof_N 	N 	0.78553	0.98447	0.9133	-0.246
Mof_N 	N 	0.74755	0.60057	0.4077	-0.24
Mof_N 	N 	0.57914	0.67118	0.1797	-0.242
Mof_C 	C 	0.78583	0.77428	0.9159	-0.048
Mof_C 	C 	0.78577	0.73859	0.7951	-0.011
Mof_H 	H 	0.785	0.7609	0.7112	0.048
Mof_C 	C 	0.78683	0.6707	0.7978	-0.073
Mof_C 	C 	0.78774	0.63771	0.9187	-0.011
Mof_H 	H 	0.7882	0.5912	0.9199	0.051
Mof_C 	C 	0.78796	0.67282	0.04	-0.062
Mof_C 	C 	0.78686	0.74027	0.0376	0.01
Mof_H 	H 	0.7868	0.7639	0.1202	0.042
Mof_C 	C 	0.79519	0.94967	0.8106	0.07
Mof_H 	H 	0.8021	0.9726	0.7357	0.009
Mof_C 	C 	0.79556	0.88236	0.8086	-0.135
Mof_H 	H 	0.8029	0.8601	0.7337	0.076
Mof_C 	C 	0.78542	0.84674	0.9145	0.065
Mof_C 	C 	0.77534	0.88277	0.0208	-0.115
Mof_H 	H 	0.7683	0.861	0.0969	0.079
Mof_C 	C 	0.77562	0.95063	0.0156	0.094
Mof_H 	H 	0.7683	0.9742	0.0887	0.009
Mof_C 	C 	0.78752	0.63401	0.6665	0.31
Mof_C 	C 	0.78942	0.63675	0.1719	0.315
Mof_C 	C 	0.66669	0.63646	0.3643	-0.145
Mof_H 	H 	0.6601	0.6596	0.4449	0.069
Mof_H 	H 	0.6578	0.5939	0.3579	0.07
Mof_C 	C 	0.73761	0.66039	0.4266	0.103
Mof_H 	H 	0.7489	0.6951	0.4497	0.002
Mof_C 	C 	0.71195	0.67423	0.4143	-0.184
Mof_H 	H 	0.7059	0.7176	0.4277	0.112
Mof_C 	C 	0.69497	0.62428	0.3822	0.133
Mof_C 	C 	0.70516	0.56281	0.3616	-0.176
Mof_H 	H 	0.6943	0.5272	0.3392	0.099
Mof_C 	C 	0.73121	0.55309	0.3736	0.102
Mof_H 	H 	0.7378	0.5105	0.3567	0.002
Mof_C 	C 	0.66075	0.67629	0.241	-0.178
Mof_H 	H 	0.667	0.7216	0.2537	0.087
Mof_H 	H 	0.6697	0.6573	0.162	0.085
Mof_C 	C 	0.58957	0.70726	0.2756	0.108
Mof_H 	H 	0.5786	0.7318	0.3327	-0.014
Mof_C 	C 	0.61579	0.71122	0.2974	-0.193
Mof_H 	H 	0.6223	0.7372	0.3692	0.093
Mof_C 	C 	0.63234	0.67742	0.2149	0.155
Mof_C 	C 	0.62158	0.64156	0.114	-0.198
Mof_H 	H 	0.6321	0.6181	0.0529	0.099
Mof_C 	C 	0.5952	0.63918	0.1001	0.113
Mof_H 	H 	0.5883	0.6132	0.0296	-0.006
Mof_Co	Co	0.78821	0.08956	0.91536	1.147
Mof_O 	O 	0.79061	0.1659	0.05966	-0.373
Mof_O 	O 	0.78512	0.07349	0.1659	-0.336
Mof_O 	O 	0.79113	0.1697	0.77899	-0.39
Mof_O 	O 	0.78875	0.07708	0.6758	-0.362
Mof_N 	N 	0.78553	0.48447	0.4133	-0.235
Mof_N 	N 	0.74755	0.10057	0.9077	-0.242
Mof_N 	N 	0.57914	0.17118	0.6797	-0.244
Mof_C 	C 	0.78583	0.27428	0.4159	-0.031
Mof_C 	C 	0.78577	0.23859	0.2951	-0.01
Mof_H 	H 	0.785	0.2609	0.2112	0.052
Mof_C 	C 	0.78683	0.1707	0.2978	-0.077
Mof_C 	C 	0.78774	0.13771	0.4187	0.02
Mof_H 	H 	0.7882	0.0912	0.4199	0.047
Mof_C 	C 	0.78796	0.17282	0.54	-0.085
Mof_C 	C 	0.78686	0.24027	0.5376	-0.008
Mof_H 	H 	0.7868	0.2639	0.6202	0.045
Mof_C 	C 	0.79519	0.44967	0.3106	0.079
Mof_H 	H 	0.8021	0.4726	0.2357	0.011
Mof_C 	C 	0.79556	0.38236	0.3086	-0.142
Mof_H 	H 	0.8029	0.3601	0.2337	0.084
Mof_C 	C 	0.78542	0.34674	0.4145	0.09
Mof_C 	C 	0.77534	0.38277	0.5208	-0.141
Mof_H 	H 	0.7683	0.361	0.5969	0.085
Mof_C 	C 	0.77562	0.45063	0.5156	0.081
Mof_H 	H 	0.7683	0.4742	0.5887	0.009
Mof_C 	C 	0.78752	0.13401	0.1665	0.312
Mof_C 	C 	0.78942	0.13675	0.6719	0.321
Mof_C 	C 	0.66669	0.13646	0.8643	-0.141
Mof_H 	H 	0.6601	0.1596	0.9449	0.064
Mof_H 	H 	0.6578	0.0939	0.8579	0.067
Mof_C 	C 	0.73761	0.16039	0.9266	0.098
Mof_H 	H 	0.7489	0.1951	0.9497	-0.002
Mof_C 	C 	0.71195	0.17423	0.9143	-0.184
Mof_H 	H 	0.7059	0.2176	0.9277	0.107
Mof_C 	C 	0.69497	0.12428	0.8822	0.128
Mof_C 	C 	0.70516	0.06281	0.8616	-0.176
Mof_H 	H 	0.6943	0.0272	0.8392	0.096
Mof_C 	C 	0.73121	0.05309	0.8736	0.098
Mof_H 	H 	0.7378	0.0105	0.8567	-0.001
Mof_C 	C 	0.66075	0.17629	0.741	-0.178
Mof_H 	H 	0.667	0.2216	0.7537	0.086
Mof_H 	H 	0.6697	0.1573	0.662	0.083
Mof_C 	C 	0.58957	0.20726	0.7756	0.106
Mof_H 	H 	0.5786	0.2318	0.8327	-0.017
Mof_C 	C 	0.61579	0.21122	0.7974	-0.194
Mof_H 	H 	0.6223	0.2372	0.8692	0.09
Mof_C 	C 	0.63234	0.17742	0.7149	0.152
Mof_C 	C 	0.62158	0.14156	0.614	-0.199
Mof_H 	H 	0.6321	0.1181	0.5529	0.096
Mof_C 	C 	0.5952	0.13918	0.6001	0.111
Mof_H 	H 	0.5883	0.1132	0.5296	-0.01
Mof_Co	Co	0.28821	0.58956	0.91536	1.147
Mof_O 	O 	0.29061	0.6659	0.05966	-0.373
Mof_O 	O 	0.28512	0.57349	0.1659	-0.336
Mof_O 	O 	0.29113	0.6697	0.77899	-0.39
Mof_O 	O 	0.28875	0.57708	0.6758	-0.362
Mof_N 	N 	0.28553	0.98447	0.4133	-0.235
Mof_N 	N 	0.24755	0.60057	0.9077	-0.242
Mof_N 	N 	0.07914	0.67118	0.6797	-0.244
Mof_C 	C 	0.28583	0.77428	0.4159	-0.031
Mof_C 	C 	0.28577	0.73859	0.2951	-0.01
Mof_H 	H 	0.285	0.7609	0.2112	0.052
Mof_C 	C 	0.28683	0.6707	0.2978	-0.077
Mof_C 	C 	0.28774	0.63771	0.4187	0.02
Mof_H 	H 	0.2882	0.5912	0.4199	0.047
Mof_C 	C 	0.28796	0.67282	0.54	-0.085
Mof_C 	C 	0.28686	0.74027	0.5376	-0.008
Mof_H 	H 	0.2868	0.7639	0.6202	0.045
Mof_C 	C 	0.29519	0.94967	0.3106	0.079
Mof_H 	H 	0.3021	0.9726	0.2357	0.011
Mof_C 	C 	0.29556	0.88236	0.3086	-0.142
Mof_H 	H 	0.3029	0.8601	0.2337	0.084
Mof_C 	C 	0.28542	0.84674	0.4145	0.09
Mof_C 	C 	0.27534	0.88277	0.5208	-0.141
Mof_H 	H 	0.2683	0.861	0.5969	0.085
Mof_C 	C 	0.27562	0.95063	0.5156	0.081
Mof_H 	H 	0.2683	0.9742	0.5887	0.009
Mof_C 	C 	0.28752	0.63401	0.1665	0.312
Mof_C 	C 	0.28942	0.63675	0.6719	0.321
Mof_C 	C 	0.16669	0.63646	0.8643	-0.141
Mof_H 	H 	0.1601	0.6596	0.9449	0.064
Mof_H 	H 	0.1578	0.5939	0.8579	0.067
Mof_C 	C 	0.23761	0.66039	0.9266	0.098
Mof_H 	H 	0.2489	0.6951	0.9497	-0.002
Mof_C 	C 	0.21195	0.67423	0.9143	-0.184
Mof_H 	H 	0.2059	0.7176	0.9277	0.107
Mof_C 	C 	0.19497	0.62428	0.8822	0.128
Mof_C 	C 	0.20516	0.56281	0.8616	-0.176
Mof_H 	H 	0.1943	0.5272	0.8392	0.096
Mof_C 	C 	0.23121	0.55309	0.8736	0.098
Mof_H 	H 	0.2378	0.5105	0.8567	-0.001
Mof_C 	C 	0.16075	0.67629	0.741	-0.178
Mof_H 	H 	0.167	0.7216	0.7537	0.086
Mof_H 	H 	0.1697	0.6573	0.662	0.083
Mof_C 	C 	0.08957	0.70726	0.7756	0.106
Mof_H 	H 	0.0786	0.7318	0.8327	-0.017
Mof_C 	C 	0.11579	0.71122	0.7974	-0.194
Mof_H 	H 	0.1223	0.7372	0.8692	0.09
Mof_C 	C 	0.13234	0.67742	0.7149	0.152
Mof_C 	C 	0.12158	0.64156	0.614	-0.199
Mof_H 	H 	0.1321	0.6181	0.5529	0.096
Mof_C 	C 	0.0952	0.63918	0.6001	0.111
Mof_H 	H 	0.0883	0.6132	0.5296	-0.01
Mof_Co	Co	0.28821	0.08956	0.41536	1.152
Mof_O 	O 	0.29061	0.1659	0.55966	-0.387
Mof_O 	O 	0.28512	0.07349	0.6659	-0.342
Mof_O 	O 	0.29113	0.1697	0.27899	-0.385
Mof_O 	O 	0.28875	0.07708	0.1758	-0.354
Mof_N 	N 	0.28553	0.48447	0.9133	-0.246
Mof_N 	N 	0.24755	0.10057	0.4077	-0.24
Mof_N 	N 	0.07914	0.17118	0.1797	-0.242
Mof_C 	C 	0.28583	0.27428	0.9159	-0.048
Mof_C 	C 	0.28577	0.23859	0.7951	-0.011
Mof_H 	H 	0.285	0.2609	0.7112	0.048
Mof_C 	C 	0.28683	0.1707	0.7978	-0.073
Mof_C 	C 	0.28774	0.13771	0.9187	-0.011
Mof_H 	H 	0.2882	0.0912	0.9199	0.051
Mof_C 	C 	0.28796	0.17282	0.04	-0.063
Mof_C 	C 	0.28686	0.24027	0.0376	0.01
Mof_H 	H 	0.2868	0.2639	0.1202	0.042
Mof_C 	C 	0.29519	0.44967	0.8106	0.07
Mof_H 	H 	0.3021	0.4726	0.7357	0.009
Mof_C 	C 	0.29556	0.38236	0.8086	-0.135
Mof_H 	H 	0.3029	0.3601	0.7337	0.076
Mof_C 	C 	0.28542	0.34674	0.9145	0.065
Mof_C 	C 	0.27534	0.38277	0.0208	-0.115
Mof_H 	H 	0.2683	0.361	0.0969	0.079
Mof_C 	C 	0.27562	0.45063	0.0156	0.095
Mof_H 	H 	0.2683	0.4742	0.0887	0.009
Mof_C 	C 	0.28752	0.13401	0.6665	0.31
Mof_C 	C 	0.28942	0.13675	0.1719	0.315
Mof_C 	C 	0.16669	0.13646	0.3643	-0.145
Mof_H 	H 	0.1601	0.1596	0.4449	0.069
Mof_H 	H 	0.1578	0.0939	0.3579	0.07
Mof_C 	C 	0.23761	0.16039	0.4266	0.103
Mof_H 	H 	0.2489	0.1951	0.4497	0.002
Mof_C 	C 	0.21195	0.17423	0.4143	-0.184
Mof_H 	H 	0.2059	0.2176	0.4277	0.112
Mof_C 	C 	0.19497	0.12428	0.3822	0.133
Mof_C 	C 	0.20516	0.06281	0.3616	-0.176
Mof_H 	H 	0.1943	0.0272	0.3392	0.099
Mof_C 	C 	0.23121	0.05309	0.3736	0.102
Mof_H 	H 	0.2378	0.0105	0.3567	0.002
Mof_C 	C 	0.16075	0.17629	0.241	-0.178
Mof_H 	H 	0.167	0.2216	0.2537	0.087
Mof_H 	H 	0.1697	0.1573	0.162	0.085
Mof_C 	C 	0.08957	0.20726	0.2756	0.108
Mof_H 	H 	0.0786	0.2318	0.3327	-0.014
Mof_C 	C 	0.11579	0.21122	0.2974	-0.193
Mof_H 	H 	0.1223	0.2372	0.3692	0.093
Mof_C 	C 	0.13234	0.17742	0.2149	0.155
Mof_C 	C 	0.12158	0.14156	0.114	-0.198
Mof_H 	H 	0.1321	0.1181	0.0529	0.099
Mof_C 	C 	0.0952	0.13918	0.1001	0.113
Mof_H 	H 	0.0883	0.1132	0.0296	-0.006
_end
