data_functionalizedCrystal
_audit_creation_method	'EQeq! by Chris Wilmer'
_symmetry_space_group_name_H-M	'P1'
_symmetry_Int_Tables_number	1
_symmetry_cell_setting	triclinic
loop_
_symmetry_equiv_pos_as_xyz
  x,y,z
_cell_length_a	35.8341
_cell_length_b	35.8341
_cell_length_c	15.5903
_cell_angle_alpha	90
_cell_angle_beta	90
_cell_angle_gamma	120
loop_
_atom_site_label
_atom_site_type_symbol
_atom_site_fract_x
_atom_site_fract_y
_atom_site_fract_z
_atom_site_charge
Mof_O 	O 	0.55765	0.03806	0.57693	-0.41
Mof_O 	O 	0.56402	0.05072	0.43508	-0.408
Mof_C 	C 	0.57845	0.05705	0.5093	0.373
Mof_C 	C 	0.62543	0.08913	0.5235	-0.135
Mof_C 	C 	0.65272	0.10926	0.4568	0.078
Mof_H 	H 	0.6419	0.1036	0.3998	0.02
Mof_C 	C 	0.69621	0.13801	0.4709	-0.15
Mof_H 	H 	0.7144	0.1526	0.4236	0.096
Mof_C 	C 	0.71323	0.14557	0.5522	0.114
Mof_C 	C 	0.68536	0.12635	0.6196	-0.151
Mof_H 	H 	0.6961	0.1321	0.6767	0.083
Mof_C 	C 	0.6417	0.09858	0.6056	0.073
Mof_H 	H 	0.6229	0.086	0.6531	0.022
Mof_C 	C 	0.76038	0.17238	0.5698	-0.067
Mof_C 	C 	0.78002	0.15395	0.6171	-0.044
Mof_H 	H 	0.7633	0.1245	0.6331	0.046
Mof_H 	H 	0.7698	0.2749	0.5956	0.087
Mof_O 	O 	0.22432	0.37139	0.91026	-0.411
Mof_O 	O 	0.23069	0.38405	0.76841	-0.409
Mof_C 	C 	0.24512	0.39038	0.84263	0.372
Mof_C 	C 	0.2921	0.42246	0.85683	-0.136
Mof_C 	C 	0.31939	0.44259	0.79013	0.077
Mof_H 	H 	0.30857	0.43693	0.73313	0.019
Mof_C 	C 	0.36288	0.47134	0.80423	-0.151
Mof_H 	H 	0.38107	0.48593	0.75693	0.095
Mof_C 	C 	0.3799	0.4789	0.88553	0.113
Mof_C 	C 	0.35203	0.45968	0.95293	-0.152
Mof_H 	H 	0.36277	0.46543	0.01003	0.082
Mof_C 	C 	0.30837	0.43191	0.93893	0.072
Mof_H 	H 	0.28957	0.41933	0.98643	0.021
Mof_C 	C 	0.42705	0.50571	0.90313	-0.068
Mof_C 	C 	0.44669	0.48728	0.95043	-0.044
Mof_H 	H 	0.42997	0.45783	0.96643	0.046
Mof_H 	H 	0.43647	0.60823	0.92893	0.087
Mof_O 	O 	0.89098	0.70473	0.2436	-0.411
Mof_O 	O 	0.89735	0.71739	0.10175	-0.409
Mof_C 	C 	0.91178	0.72372	0.17597	0.372
Mof_C 	C 	0.95876	0.7558	0.19017	-0.136
Mof_C 	C 	0.98605	0.77593	0.12347	0.077
Mof_H 	H 	0.97523	0.77027	0.06647	0.019
Mof_C 	C 	0.02954	0.80468	0.13757	-0.151
Mof_H 	H 	0.04773	0.81927	0.09027	0.095
Mof_C 	C 	0.04656	0.81224	0.21887	0.113
Mof_C 	C 	0.01869	0.79302	0.28627	-0.152
Mof_H 	H 	0.02943	0.79877	0.34337	0.082
Mof_C 	C 	0.97503	0.76525	0.27227	0.072
Mof_H 	H 	0.95623	0.75267	0.31977	0.021
Mof_C 	C 	0.09371	0.83905	0.23647	-0.068
Mof_C 	C 	0.11335	0.82062	0.28377	-0.044
Mof_H 	H 	0.09663	0.79117	0.29977	0.046
Mof_H 	H 	0.10313	0.94157	0.26227	0.087
Mof_O 	O 	0.96194	0.51959	0.57693	-0.411
Mof_O 	O 	0.94928	0.5133	0.43508	-0.409
Mof_C 	C 	0.94295	0.5214	0.5093	0.372
Mof_C 	C 	0.91087	0.5363	0.5235	-0.136
Mof_C 	C 	0.89074	0.54346	0.4568	0.077
Mof_H 	H 	0.8964	0.5383	0.3998	0.019
Mof_C 	C 	0.86199	0.5582	0.4709	-0.151
Mof_H 	H 	0.8474	0.5618	0.4236	0.095
Mof_C 	C 	0.85443	0.56766	0.5522	0.113
Mof_C 	C 	0.87365	0.55901	0.6196	-0.152
Mof_H 	H 	0.8679	0.564	0.6767	0.082
Mof_C 	C 	0.90142	0.54312	0.6056	0.072
Mof_H 	H 	0.914	0.5369	0.6531	0.021
Mof_C 	C 	0.82762	0.588	0.5698	-0.068
Mof_C 	C 	0.84605	0.62607	0.6171	-0.044
Mof_H 	H 	0.8755	0.6388	0.6331	0.046
Mof_H 	H 	0.7251	0.4949	0.5956	0.087
Mof_O 	O 	0.62861	0.85292	0.91026	-0.411
Mof_O 	O 	0.61595	0.84663	0.76841	-0.409
Mof_C 	C 	0.60962	0.85473	0.84263	0.372
Mof_C 	C 	0.57754	0.86963	0.85683	-0.136
Mof_C 	C 	0.55741	0.87679	0.79013	0.077
Mof_H 	H 	0.56307	0.87163	0.73313	0.019
Mof_C 	C 	0.52866	0.89153	0.80423	-0.151
Mof_H 	H 	0.51407	0.89513	0.75693	0.095
Mof_C 	C 	0.5211	0.90099	0.88553	0.113
Mof_C 	C 	0.54032	0.89234	0.95293	-0.152
Mof_H 	H 	0.53457	0.89733	0.01003	0.082
Mof_C 	C 	0.56809	0.87645	0.93893	0.072
Mof_H 	H 	0.58067	0.87023	0.98643	0.021
Mof_C 	C 	0.49429	0.92133	0.90313	-0.068
Mof_C 	C 	0.51272	0.9594	0.95043	-0.044
Mof_H 	H 	0.54217	0.97213	0.96643	0.046
Mof_H 	H 	0.39177	0.82823	0.92893	0.087
Mof_O 	O 	0.29527	0.18626	0.2436	-0.411
Mof_O 	O 	0.28261	0.17997	0.10175	-0.409
Mof_C 	C 	0.27628	0.18807	0.17597	0.372
Mof_C 	C 	0.2442	0.20297	0.19017	-0.136
Mof_C 	C 	0.22407	0.21013	0.12347	0.077
Mof_H 	H 	0.22973	0.20497	0.06647	0.019
Mof_C 	C 	0.19532	0.22487	0.13757	-0.151
Mof_H 	H 	0.18073	0.22847	0.09027	0.095
Mof_C 	C 	0.18776	0.23433	0.21887	0.113
Mof_C 	C 	0.20698	0.22568	0.28627	-0.152
Mof_H 	H 	0.20123	0.23067	0.34337	0.082
Mof_C 	C 	0.23475	0.20979	0.27227	0.072
Mof_H 	H 	0.24733	0.20357	0.31977	0.021
Mof_C 	C 	0.16095	0.25467	0.23647	-0.068
Mof_C 	C 	0.17938	0.29274	0.28377	-0.044
Mof_H 	H 	0.20883	0.30547	0.29977	0.046
Mof_H 	H 	0.05843	0.16157	0.26227	0.087
Mof_O 	O 	0.48041	0.44235	0.57693	-0.411
Mof_O 	O 	0.4867	0.43598	0.43508	-0.409
Mof_C 	C 	0.4786	0.42155	0.5093	0.372
Mof_C 	C 	0.4637	0.37457	0.5235	-0.136
Mof_C 	C 	0.45654	0.34728	0.4568	0.077
Mof_H 	H 	0.4617	0.3581	0.3998	0.019
Mof_C 	C 	0.4418	0.30379	0.4709	-0.151
Mof_H 	H 	0.4382	0.2856	0.4236	0.095
Mof_C 	C 	0.43234	0.28677	0.5522	0.113
Mof_C 	C 	0.44099	0.31464	0.6196	-0.152
Mof_H 	H 	0.436	0.3039	0.6767	0.082
Mof_C 	C 	0.45688	0.3583	0.6056	0.072
Mof_H 	H 	0.4631	0.3771	0.6531	0.021
Mof_C 	C 	0.412	0.23962	0.5698	-0.068
Mof_C 	C 	0.37393	0.21998	0.6171	-0.044
Mof_H 	H 	0.3612	0.2367	0.6331	0.046
Mof_H 	H 	0.5051	0.2302	0.5956	0.087
Mof_O 	O 	0.14708	0.77568	0.91026	-0.411
Mof_O 	O 	0.15337	0.76931	0.76841	-0.409
Mof_C 	C 	0.14527	0.75488	0.84263	0.372
Mof_C 	C 	0.13037	0.7079	0.85683	-0.136
Mof_C 	C 	0.12321	0.68061	0.79013	0.077
Mof_H 	H 	0.12837	0.69143	0.73313	0.019
Mof_C 	C 	0.10847	0.63712	0.80423	-0.151
Mof_H 	H 	0.10487	0.61893	0.75693	0.095
Mof_C 	C 	0.09901	0.6201	0.88553	0.113
Mof_C 	C 	0.10766	0.64797	0.95293	-0.152
Mof_H 	H 	0.10267	0.63723	0.01003	0.082
Mof_C 	C 	0.12355	0.69163	0.93893	0.072
Mof_H 	H 	0.12977	0.71043	0.98643	0.021
Mof_C 	C 	0.07867	0.57295	0.90313	-0.068
Mof_C 	C 	0.0406	0.55331	0.95043	-0.044
Mof_H 	H 	0.02787	0.57003	0.96643	0.046
Mof_H 	H 	0.17177	0.56353	0.92893	0.087
Mof_O 	O 	0.81374	0.10902	0.2436	-0.411
Mof_O 	O 	0.82003	0.10265	0.10175	-0.409
Mof_C 	C 	0.81193	0.08822	0.17597	0.372
Mof_C 	C 	0.79703	0.04124	0.19017	-0.136
Mof_C 	C 	0.78987	0.01395	0.12347	0.077
Mof_H 	H 	0.79503	0.02477	0.06647	0.019
Mof_C 	C 	0.77513	0.97046	0.13757	-0.151
Mof_H 	H 	0.77153	0.95227	0.09027	0.095
Mof_C 	C 	0.76567	0.95344	0.21887	0.114
Mof_C 	C 	0.77432	0.98131	0.28627	-0.152
Mof_H 	H 	0.76933	0.97057	0.34337	0.082
Mof_C 	C 	0.79021	0.02497	0.27227	0.072
Mof_H 	H 	0.79643	0.04377	0.31977	0.021
Mof_C 	C 	0.74533	0.90629	0.23647	-0.068
Mof_C 	C 	0.70726	0.88665	0.28377	-0.044
Mof_H 	H 	0.69453	0.90337	0.29977	0.046
Mof_H 	H 	0.83843	0.89687	0.26227	0.087
Mof_O 	O 	0.03806	0.55765	0.42307	-0.411
Mof_O 	O 	0.05072	0.56402	0.56492	-0.409
Mof_C 	C 	0.05705	0.57845	0.4907	0.372
Mof_C 	C 	0.08913	0.62543	0.4765	-0.136
Mof_C 	C 	0.10926	0.65272	0.5432	0.077
Mof_H 	H 	0.1036	0.6419	0.6002	0.019
Mof_C 	C 	0.13801	0.69621	0.5291	-0.151
Mof_H 	H 	0.1526	0.7144	0.5764	0.095
Mof_C 	C 	0.14557	0.71323	0.4478	0.113
Mof_C 	C 	0.12635	0.68536	0.3804	-0.152
Mof_H 	H 	0.1321	0.6961	0.3233	0.082
Mof_C 	C 	0.09858	0.6417	0.3944	0.072
Mof_H 	H 	0.086	0.6229	0.3469	0.021
Mof_C 	C 	0.17238	0.76038	0.4302	-0.068
Mof_C 	C 	0.15395	0.78002	0.3829	-0.044
Mof_H 	H 	0.1245	0.7633	0.3669	0.046
Mof_H 	H 	0.2749	0.7698	0.4044	0.087
Mof_O 	O 	0.70473	0.89098	0.7564	-0.411
Mof_O 	O 	0.71739	0.89735	0.89825	-0.409
Mof_C 	C 	0.72372	0.91178	0.82403	0.372
Mof_C 	C 	0.7558	0.95876	0.80983	-0.136
Mof_C 	C 	0.77593	0.98605	0.87653	0.077
Mof_H 	H 	0.77027	0.97523	0.93353	0.019
Mof_C 	C 	0.80468	0.02954	0.86243	-0.151
Mof_H 	H 	0.81927	0.04773	0.90973	0.095
Mof_C 	C 	0.81224	0.04656	0.78113	0.113
Mof_C 	C 	0.79302	0.01869	0.71373	-0.152
Mof_H 	H 	0.79877	0.02943	0.65663	0.082
Mof_C 	C 	0.76525	0.97503	0.72773	0.072
Mof_H 	H 	0.75267	0.95623	0.68023	0.021
Mof_C 	C 	0.83905	0.09371	0.76353	-0.068
Mof_C 	C 	0.82062	0.11335	0.71623	-0.044
Mof_H 	H 	0.79117	0.09663	0.70023	0.046
Mof_H 	H 	0.94157	0.10313	0.73773	0.087
Mof_O 	O 	0.37139	0.22432	0.08974	-0.411
Mof_O 	O 	0.38405	0.23069	0.23159	-0.409
Mof_C 	C 	0.39038	0.24512	0.15737	0.372
Mof_C 	C 	0.42246	0.2921	0.14317	-0.136
Mof_C 	C 	0.44259	0.31939	0.20987	0.077
Mof_H 	H 	0.43693	0.30857	0.26687	0.019
Mof_C 	C 	0.47134	0.36288	0.19577	-0.151
Mof_H 	H 	0.48593	0.38107	0.24307	0.095
Mof_C 	C 	0.4789	0.3799	0.11447	0.113
Mof_C 	C 	0.45968	0.35203	0.04707	-0.152
Mof_H 	H 	0.46543	0.36277	0.98997	0.082
Mof_C 	C 	0.43191	0.30837	0.06107	0.072
Mof_H 	H 	0.41933	0.28957	0.01357	0.021
Mof_C 	C 	0.50571	0.42705	0.09687	-0.068
Mof_C 	C 	0.48728	0.44669	0.04957	-0.044
Mof_H 	H 	0.45783	0.42997	0.03357	0.046
Mof_H 	H 	0.60823	0.43647	0.07107	0.087
Mof_O 	O 	0.51959	0.96194	0.42307	-0.411
Mof_O 	O 	0.5133	0.94928	0.56492	-0.409
Mof_C 	C 	0.5214	0.94295	0.4907	0.372
Mof_C 	C 	0.5363	0.91087	0.4765	-0.136
Mof_C 	C 	0.54346	0.89074	0.5432	0.077
Mof_H 	H 	0.5383	0.8964	0.6002	0.019
Mof_C 	C 	0.5582	0.86199	0.5291	-0.151
Mof_H 	H 	0.5618	0.8474	0.5764	0.095
Mof_C 	C 	0.56766	0.85443	0.4478	0.113
Mof_C 	C 	0.55901	0.87365	0.3804	-0.152
Mof_H 	H 	0.564	0.8679	0.3233	0.082
Mof_C 	C 	0.54312	0.90142	0.3944	0.072
Mof_H 	H 	0.5369	0.914	0.3469	0.021
Mof_C 	C 	0.588	0.82762	0.4302	-0.068
Mof_C 	C 	0.62607	0.84605	0.3829	-0.044
Mof_H 	H 	0.6388	0.8755	0.3669	0.046
Mof_H 	H 	0.4949	0.7251	0.4044	0.087
Mof_O 	O 	0.18626	0.29527	0.7564	-0.411
Mof_O 	O 	0.17997	0.28261	0.89825	-0.409
Mof_C 	C 	0.18807	0.27628	0.82403	0.372
Mof_C 	C 	0.20297	0.2442	0.80983	-0.136
Mof_C 	C 	0.21013	0.22407	0.87653	0.077
Mof_H 	H 	0.20497	0.22973	0.93353	0.019
Mof_C 	C 	0.22487	0.19532	0.86243	-0.151
Mof_H 	H 	0.22847	0.18073	0.90973	0.095
Mof_C 	C 	0.23433	0.18776	0.78113	0.113
Mof_C 	C 	0.22568	0.20698	0.71373	-0.152
Mof_H 	H 	0.23067	0.20123	0.65663	0.082
Mof_C 	C 	0.20979	0.23475	0.72773	0.072
Mof_H 	H 	0.20357	0.24733	0.68023	0.021
Mof_C 	C 	0.25467	0.16095	0.76353	-0.068
Mof_C 	C 	0.29274	0.17938	0.71623	-0.044
Mof_H 	H 	0.30547	0.20883	0.70023	0.046
Mof_H 	H 	0.16157	0.05843	0.73773	0.087
Mof_O 	O 	0.85292	0.62861	0.08974	-0.411
Mof_O 	O 	0.84663	0.61595	0.23159	-0.409
Mof_C 	C 	0.85473	0.60962	0.15737	0.372
Mof_C 	C 	0.86963	0.57754	0.14317	-0.136
Mof_C 	C 	0.87679	0.55741	0.20987	0.077
Mof_H 	H 	0.87163	0.56307	0.26687	0.019
Mof_C 	C 	0.89153	0.52866	0.19577	-0.151
Mof_H 	H 	0.89513	0.51407	0.24307	0.095
Mof_C 	C 	0.90099	0.5211	0.11447	0.113
Mof_C 	C 	0.89234	0.54032	0.04707	-0.152
Mof_H 	H 	0.89733	0.53457	0.98997	0.082
Mof_C 	C 	0.87645	0.56809	0.06107	0.072
Mof_H 	H 	0.87023	0.58067	0.01357	0.021
Mof_C 	C 	0.92133	0.49429	0.09687	-0.068
Mof_C 	C 	0.9594	0.51272	0.04957	-0.044
Mof_H 	H 	0.97213	0.54217	0.03357	0.046
Mof_H 	H 	0.82823	0.39177	0.07107	0.087
Mof_O 	O 	0.44235	0.48041	0.42307	-0.411
Mof_O 	O 	0.43598	0.4867	0.56492	-0.409
Mof_C 	C 	0.42155	0.4786	0.4907	0.372
Mof_C 	C 	0.37457	0.4637	0.4765	-0.136
Mof_C 	C 	0.34728	0.45654	0.5432	0.077
Mof_H 	H 	0.3581	0.4617	0.6002	0.019
Mof_C 	C 	0.30379	0.4418	0.5291	-0.151
Mof_H 	H 	0.2856	0.4382	0.5764	0.095
Mof_C 	C 	0.28677	0.43234	0.4478	0.113
Mof_C 	C 	0.31464	0.44099	0.3804	-0.152
Mof_H 	H 	0.3039	0.436	0.3233	0.082
Mof_C 	C 	0.3583	0.45688	0.3944	0.072
Mof_H 	H 	0.3771	0.4631	0.3469	0.021
Mof_C 	C 	0.23962	0.412	0.4302	-0.068
Mof_C 	C 	0.21998	0.37393	0.3829	-0.044
Mof_H 	H 	0.2367	0.3612	0.3669	0.046
Mof_H 	H 	0.2302	0.5051	0.4044	0.087
Mof_O 	O 	0.10902	0.81374	0.7564	-0.411
Mof_O 	O 	0.10265	0.82003	0.89825	-0.409
Mof_C 	C 	0.08822	0.81193	0.82403	0.372
Mof_C 	C 	0.04124	0.79703	0.80983	-0.136
Mof_C 	C 	0.01395	0.78987	0.87653	0.077
Mof_H 	H 	0.02477	0.79503	0.93353	0.019
Mof_C 	C 	0.97046	0.77513	0.86243	-0.151
Mof_H 	H 	0.95227	0.77153	0.90973	0.095
Mof_C 	C 	0.95344	0.76567	0.78113	0.114
Mof_C 	C 	0.98131	0.77432	0.71373	-0.152
Mof_H 	H 	0.97057	0.76933	0.65663	0.082
Mof_C 	C 	0.02497	0.79021	0.72773	0.072
Mof_H 	H 	0.04377	0.79643	0.68023	0.021
Mof_C 	C 	0.90629	0.74533	0.76353	-0.068
Mof_C 	C 	0.88665	0.70726	0.71623	-0.044
Mof_H 	H 	0.90337	0.69453	0.70023	0.046
Mof_H 	H 	0.89687	0.83843	0.73773	0.087
Mof_O 	O 	0.77568	0.14708	0.08974	-0.411
Mof_O 	O 	0.76931	0.15337	0.23159	-0.409
Mof_C 	C 	0.75488	0.14527	0.15737	0.372
Mof_C 	C 	0.7079	0.13037	0.14317	-0.136
Mof_C 	C 	0.68061	0.12321	0.20987	0.077
Mof_H 	H 	0.69143	0.12837	0.26687	0.019
Mof_C 	C 	0.63712	0.10847	0.19577	-0.151
Mof_H 	H 	0.61893	0.10487	0.24307	0.095
Mof_C 	C 	0.6201	0.09901	0.11447	0.113
Mof_C 	C 	0.64797	0.10766	0.04707	-0.152
Mof_H 	H 	0.63723	0.10267	0.98997	0.082
Mof_C 	C 	0.69163	0.12355	0.06107	0.072
Mof_H 	H 	0.71043	0.12977	0.01357	0.021
Mof_C 	C 	0.57295	0.07867	0.09687	-0.068
Mof_C 	C 	0.55331	0.0406	0.04957	-0.044
Mof_H 	H 	0.57003	0.02787	0.03357	0.046
Mof_H 	H 	0.56353	0.17177	0.07107	0.087
Mof_O 	O 	0.44235	0.96194	0.42307	-0.411
Mof_O 	O 	0.43598	0.94928	0.56492	-0.409
Mof_C 	C 	0.42155	0.94295	0.4907	0.372
Mof_C 	C 	0.37457	0.91087	0.4765	-0.136
Mof_C 	C 	0.34728	0.89074	0.5432	0.077
Mof_H 	H 	0.3581	0.8964	0.6002	0.019
Mof_C 	C 	0.30379	0.86199	0.5291	-0.151
Mof_H 	H 	0.2856	0.8474	0.5764	0.095
Mof_C 	C 	0.28677	0.85443	0.4478	0.113
Mof_C 	C 	0.31464	0.87365	0.3804	-0.152
Mof_H 	H 	0.3039	0.8679	0.3233	0.082
Mof_C 	C 	0.3583	0.90142	0.3944	0.072
Mof_H 	H 	0.3771	0.914	0.3469	0.021
Mof_C 	C 	0.23962	0.82762	0.4302	-0.068
Mof_C 	C 	0.21998	0.84605	0.3829	-0.044
Mof_H 	H 	0.2367	0.8755	0.3669	0.046
Mof_H 	H 	0.2302	0.7251	0.4044	0.087
Mof_O 	O 	0.10902	0.29527	0.7564	-0.411
Mof_O 	O 	0.10265	0.28261	0.89825	-0.409
Mof_C 	C 	0.08822	0.27628	0.82403	0.372
Mof_C 	C 	0.04124	0.2442	0.80983	-0.136
Mof_C 	C 	0.01395	0.22407	0.87653	0.077
Mof_H 	H 	0.02477	0.22973	0.93353	0.019
Mof_C 	C 	0.97046	0.19532	0.86243	-0.151
Mof_H 	H 	0.95227	0.18073	0.90973	0.095
Mof_C 	C 	0.95344	0.18776	0.78113	0.113
Mof_C 	C 	0.98131	0.20698	0.71373	-0.152
Mof_H 	H 	0.97057	0.20123	0.65663	0.082
Mof_C 	C 	0.02497	0.23475	0.72773	0.072
Mof_H 	H 	0.04377	0.24733	0.68023	0.021
Mof_C 	C 	0.90629	0.16095	0.76353	-0.068
Mof_C 	C 	0.88665	0.17938	0.71623	-0.044
Mof_H 	H 	0.90337	0.20883	0.70023	0.046
Mof_H 	H 	0.89687	0.05843	0.73773	0.087
Mof_O 	O 	0.77568	0.62861	0.08974	-0.411
Mof_O 	O 	0.76931	0.61595	0.23159	-0.409
Mof_C 	C 	0.75488	0.60962	0.15737	0.372
Mof_C 	C 	0.7079	0.57754	0.14317	-0.136
Mof_C 	C 	0.68061	0.55741	0.20987	0.077
Mof_H 	H 	0.69143	0.56307	0.26687	0.019
Mof_C 	C 	0.63712	0.52866	0.19577	-0.151
Mof_H 	H 	0.61893	0.51407	0.24307	0.095
Mof_C 	C 	0.6201	0.5211	0.11447	0.113
Mof_C 	C 	0.64797	0.54032	0.04707	-0.152
Mof_H 	H 	0.63723	0.53457	0.98997	0.082
Mof_C 	C 	0.69163	0.56809	0.06107	0.072
Mof_H 	H 	0.71043	0.58067	0.01357	0.021
Mof_C 	C 	0.57295	0.49429	0.09687	-0.068
Mof_C 	C 	0.55331	0.51272	0.04957	-0.044
Mof_H 	H 	0.57003	0.54217	0.03357	0.046
Mof_H 	H 	0.56353	0.39177	0.07107	0.087
Mof_O 	O 	0.03806	0.48041	0.42307	-0.411
Mof_O 	O 	0.05072	0.4867	0.56492	-0.409
Mof_C 	C 	0.05705	0.4786	0.4907	0.372
Mof_C 	C 	0.08913	0.4637	0.4765	-0.136
Mof_C 	C 	0.10926	0.45654	0.5432	0.077
Mof_H 	H 	0.1036	0.4617	0.6002	0.019
Mof_C 	C 	0.13801	0.4418	0.5291	-0.151
Mof_H 	H 	0.1526	0.4382	0.5764	0.095
Mof_C 	C 	0.14557	0.43234	0.4478	0.113
Mof_C 	C 	0.12635	0.44099	0.3804	-0.152
Mof_H 	H 	0.1321	0.436	0.3233	0.082
Mof_C 	C 	0.09858	0.45688	0.3944	0.072
Mof_H 	H 	0.086	0.4631	0.3469	0.021
Mof_C 	C 	0.17238	0.412	0.4302	-0.068
Mof_C 	C 	0.15395	0.37393	0.3829	-0.044
Mof_H 	H 	0.1245	0.3612	0.3669	0.046
Mof_H 	H 	0.2749	0.5051	0.4044	0.087
Mof_O 	O 	0.70473	0.81374	0.7564	-0.411
Mof_O 	O 	0.71739	0.82003	0.89825	-0.409
Mof_C 	C 	0.72372	0.81193	0.82403	0.372
Mof_C 	C 	0.7558	0.79703	0.80983	-0.136
Mof_C 	C 	0.77593	0.78987	0.87653	0.077
Mof_H 	H 	0.77027	0.79503	0.93353	0.019
Mof_C 	C 	0.80468	0.77513	0.86243	-0.151
Mof_H 	H 	0.81927	0.77153	0.90973	0.095
Mof_C 	C 	0.81224	0.76567	0.78113	0.113
Mof_C 	C 	0.79302	0.77432	0.71373	-0.152
Mof_H 	H 	0.79877	0.76933	0.65663	0.082
Mof_C 	C 	0.76525	0.79021	0.72773	0.072
Mof_H 	H 	0.75267	0.79643	0.68023	0.021
Mof_C 	C 	0.83905	0.74533	0.76353	-0.068
Mof_C 	C 	0.82062	0.70726	0.71623	-0.044
Mof_H 	H 	0.79117	0.69453	0.70023	0.046
Mof_H 	H 	0.94157	0.83843	0.73773	0.087
Mof_O 	O 	0.37139	0.14708	0.08974	-0.411
Mof_O 	O 	0.38405	0.15337	0.23159	-0.409
Mof_C 	C 	0.39038	0.14527	0.15737	0.372
Mof_C 	C 	0.42246	0.13037	0.14317	-0.136
Mof_C 	C 	0.44259	0.12321	0.20987	0.077
Mof_H 	H 	0.43693	0.12837	0.26687	0.019
Mof_C 	C 	0.47134	0.10847	0.19577	-0.151
Mof_H 	H 	0.48593	0.10487	0.24307	0.095
Mof_C 	C 	0.4789	0.09901	0.11447	0.113
Mof_C 	C 	0.45968	0.10766	0.04707	-0.152
Mof_H 	H 	0.46543	0.10267	0.98997	0.082
Mof_C 	C 	0.43191	0.12355	0.06107	0.072
Mof_H 	H 	0.41933	0.12977	0.01357	0.021
Mof_C 	C 	0.50571	0.07867	0.09687	-0.068
Mof_C 	C 	0.48728	0.0406	0.04957	-0.044
Mof_H 	H 	0.45783	0.02787	0.03357	0.046
Mof_H 	H 	0.60823	0.17177	0.07107	0.087
Mof_O 	O 	0.51959	0.55765	0.42307	-0.411
Mof_O 	O 	0.5133	0.56402	0.56492	-0.409
Mof_C 	C 	0.5214	0.57845	0.4907	0.372
Mof_C 	C 	0.5363	0.62543	0.4765	-0.136
Mof_C 	C 	0.54346	0.65272	0.5432	0.077
Mof_H 	H 	0.5383	0.6419	0.6002	0.019
Mof_C 	C 	0.5582	0.69621	0.5291	-0.151
Mof_H 	H 	0.5618	0.7144	0.5764	0.095
Mof_C 	C 	0.56766	0.71323	0.4478	0.113
Mof_C 	C 	0.55901	0.68536	0.3804	-0.152
Mof_H 	H 	0.564	0.6961	0.3233	0.082
Mof_C 	C 	0.54312	0.6417	0.3944	0.072
Mof_H 	H 	0.5369	0.6229	0.3469	0.021
Mof_C 	C 	0.588	0.76038	0.4302	-0.068
Mof_C 	C 	0.62607	0.78002	0.3829	-0.044
Mof_H 	H 	0.6388	0.7633	0.3669	0.046
Mof_H 	H 	0.4949	0.7698	0.4044	0.087
Mof_O 	O 	0.18626	0.89098	0.7564	-0.411
Mof_O 	O 	0.17997	0.89735	0.89825	-0.409
Mof_C 	C 	0.18807	0.91178	0.82403	0.372
Mof_C 	C 	0.20297	0.95876	0.80983	-0.136
Mof_C 	C 	0.21013	0.98605	0.87653	0.077
Mof_H 	H 	0.20497	0.97523	0.93353	0.019
Mof_C 	C 	0.22487	0.02954	0.86243	-0.151
Mof_H 	H 	0.22847	0.04773	0.90973	0.095
Mof_C 	C 	0.23433	0.04656	0.78113	0.114
Mof_C 	C 	0.22568	0.01869	0.71373	-0.152
Mof_H 	H 	0.23067	0.02943	0.65663	0.082
Mof_C 	C 	0.20979	0.97503	0.72773	0.072
Mof_H 	H 	0.20357	0.95623	0.68023	0.021
Mof_C 	C 	0.25467	0.09371	0.76353	-0.068
Mof_C 	C 	0.29274	0.11335	0.71623	-0.044
Mof_H 	H 	0.30547	0.09663	0.70023	0.046
Mof_H 	H 	0.16157	0.10313	0.73773	0.087
Mof_O 	O 	0.85292	0.22432	0.08974	-0.411
Mof_O 	O 	0.84663	0.23069	0.23159	-0.409
Mof_C 	C 	0.85473	0.24512	0.15737	0.372
Mof_C 	C 	0.86963	0.2921	0.14317	-0.136
Mof_C 	C 	0.87679	0.31939	0.20987	0.077
Mof_H 	H 	0.87163	0.30857	0.26687	0.019
Mof_C 	C 	0.89153	0.36288	0.19577	-0.151
Mof_H 	H 	0.89513	0.38107	0.24307	0.095
Mof_C 	C 	0.90099	0.3799	0.11447	0.113
Mof_C 	C 	0.89234	0.35203	0.04707	-0.152
Mof_H 	H 	0.89733	0.36277	0.98997	0.082
Mof_C 	C 	0.87645	0.30837	0.06107	0.072
Mof_H 	H 	0.87023	0.28957	0.01357	0.021
Mof_C 	C 	0.92133	0.42705	0.09687	-0.068
Mof_C 	C 	0.9594	0.44669	0.04957	-0.044
Mof_H 	H 	0.97213	0.42997	0.03357	0.046
Mof_H 	H 	0.82823	0.43647	0.07107	0.087
Mof_O 	O 	0.96194	0.44235	0.57693	-0.411
Mof_O 	O 	0.94928	0.43598	0.43508	-0.409
Mof_C 	C 	0.94295	0.42155	0.5093	0.372
Mof_C 	C 	0.91087	0.37457	0.5235	-0.136
Mof_C 	C 	0.89074	0.34728	0.4568	0.077
Mof_H 	H 	0.8964	0.3581	0.3998	0.019
Mof_C 	C 	0.86199	0.30379	0.4709	-0.151
Mof_H 	H 	0.8474	0.2856	0.4236	0.095
Mof_C 	C 	0.85443	0.28677	0.5522	0.113
Mof_C 	C 	0.87365	0.31464	0.6196	-0.152
Mof_H 	H 	0.8679	0.3039	0.6767	0.082
Mof_C 	C 	0.90142	0.3583	0.6056	0.072
Mof_H 	H 	0.914	0.3771	0.6531	0.021
Mof_C 	C 	0.82762	0.23962	0.5698	-0.068
Mof_C 	C 	0.84605	0.21998	0.6171	-0.044
Mof_H 	H 	0.8755	0.2367	0.6331	0.046
Mof_H 	H 	0.7251	0.2302	0.5956	0.087
Mof_O 	O 	0.62861	0.77568	0.91026	-0.411
Mof_O 	O 	0.61595	0.76931	0.76841	-0.409
Mof_C 	C 	0.60962	0.75488	0.84263	0.372
Mof_C 	C 	0.57754	0.7079	0.85683	-0.136
Mof_C 	C 	0.55741	0.68061	0.79013	0.077
Mof_H 	H 	0.56307	0.69143	0.73313	0.019
Mof_C 	C 	0.52866	0.63712	0.80423	-0.151
Mof_H 	H 	0.51407	0.61893	0.75693	0.095
Mof_C 	C 	0.5211	0.6201	0.88553	0.113
Mof_C 	C 	0.54032	0.64797	0.95293	-0.152
Mof_H 	H 	0.53457	0.63723	0.01003	0.082
Mof_C 	C 	0.56809	0.69163	0.93893	0.072
Mof_H 	H 	0.58067	0.71043	0.98643	0.021
Mof_C 	C 	0.49429	0.57295	0.90313	-0.068
Mof_C 	C 	0.51272	0.55331	0.95043	-0.044
Mof_H 	H 	0.54217	0.57003	0.96643	0.046
Mof_H 	H 	0.39177	0.56353	0.92893	0.087
Mof_O 	O 	0.29527	0.10902	0.2436	-0.411
Mof_O 	O 	0.28261	0.10265	0.10175	-0.409
Mof_C 	C 	0.27628	0.08822	0.17597	0.372
Mof_C 	C 	0.2442	0.04124	0.19017	-0.136
Mof_C 	C 	0.22407	0.01395	0.12347	0.077
Mof_H 	H 	0.22973	0.02477	0.06647	0.019
Mof_C 	C 	0.19532	0.97046	0.13757	-0.151
Mof_H 	H 	0.18073	0.95227	0.09027	0.095
Mof_C 	C 	0.18776	0.95344	0.21887	0.113
Mof_C 	C 	0.20698	0.98131	0.28627	-0.152
Mof_H 	H 	0.20123	0.97057	0.34337	0.082
Mof_C 	C 	0.23475	0.02497	0.27227	0.072
Mof_H 	H 	0.24733	0.04377	0.31977	0.021
Mof_C 	C 	0.16095	0.90629	0.23647	-0.068
Mof_C 	C 	0.17938	0.88665	0.28377	-0.044
Mof_H 	H 	0.20883	0.90337	0.29977	0.046
Mof_H 	H 	0.05843	0.89687	0.26227	0.087
Mof_O 	O 	0.48041	0.03806	0.57693	-0.411
Mof_O 	O 	0.4867	0.05072	0.43508	-0.409
Mof_C 	C 	0.4786	0.05705	0.5093	0.372
Mof_C 	C 	0.4637	0.08913	0.5235	-0.136
Mof_C 	C 	0.45654	0.10926	0.4568	0.077
Mof_H 	H 	0.4617	0.1036	0.3998	0.019
Mof_C 	C 	0.4418	0.13801	0.4709	-0.151
Mof_H 	H 	0.4382	0.1526	0.4236	0.095
Mof_C 	C 	0.43234	0.14557	0.5522	0.113
Mof_C 	C 	0.44099	0.12635	0.6196	-0.152
Mof_H 	H 	0.436	0.1321	0.6767	0.082
Mof_C 	C 	0.45688	0.09858	0.6056	0.072
Mof_H 	H 	0.4631	0.086	0.6531	0.021
Mof_C 	C 	0.412	0.17238	0.5698	-0.068
Mof_C 	C 	0.37393	0.15395	0.6171	-0.044
Mof_H 	H 	0.3612	0.1245	0.6331	0.046
Mof_H 	H 	0.5051	0.2749	0.5956	0.087
Mof_O 	O 	0.14708	0.37139	0.91026	-0.411
Mof_O 	O 	0.15337	0.38405	0.76841	-0.409
Mof_C 	C 	0.14527	0.39038	0.84263	0.372
Mof_C 	C 	0.13037	0.42246	0.85683	-0.136
Mof_C 	C 	0.12321	0.44259	0.79013	0.077
Mof_H 	H 	0.12837	0.43693	0.73313	0.019
Mof_C 	C 	0.10847	0.47134	0.80423	-0.151
Mof_H 	H 	0.10487	0.48593	0.75693	0.095
Mof_C 	C 	0.09901	0.4789	0.88553	0.113
Mof_C 	C 	0.10766	0.45968	0.95293	-0.152
Mof_H 	H 	0.10267	0.46543	0.01003	0.082
Mof_C 	C 	0.12355	0.43191	0.93893	0.072
Mof_H 	H 	0.12977	0.41933	0.98643	0.021
Mof_C 	C 	0.07867	0.50571	0.90313	-0.068
Mof_C 	C 	0.0406	0.48728	0.95043	-0.044
Mof_H 	H 	0.02787	0.45783	0.96643	0.046
Mof_H 	H 	0.17177	0.60823	0.92893	0.087
Mof_O 	O 	0.81374	0.70473	0.2436	-0.411
Mof_O 	O 	0.82003	0.71739	0.10175	-0.409
Mof_C 	C 	0.81193	0.72372	0.17597	0.372
Mof_C 	C 	0.79703	0.7558	0.19017	-0.136
Mof_C 	C 	0.78987	0.77593	0.12347	0.077
Mof_H 	H 	0.79503	0.77027	0.06647	0.019
Mof_C 	C 	0.77513	0.80468	0.13757	-0.151
Mof_H 	H 	0.77153	0.81927	0.09027	0.095
Mof_C 	C 	0.76567	0.81224	0.21887	0.113
Mof_C 	C 	0.77432	0.79302	0.28627	-0.152
Mof_H 	H 	0.76933	0.79877	0.34337	0.082
Mof_C 	C 	0.79021	0.76525	0.27227	0.072
Mof_H 	H 	0.79643	0.75267	0.31977	0.021
Mof_C 	C 	0.74533	0.83905	0.23647	-0.068
Mof_C 	C 	0.70726	0.82062	0.28377	-0.044
Mof_H 	H 	0.69453	0.79117	0.29977	0.046
Mof_H 	H 	0.83843	0.94157	0.26227	0.087
Mof_O 	O 	0.55765	0.51959	0.57693	-0.411
Mof_O 	O 	0.56402	0.5133	0.43508	-0.409
Mof_C 	C 	0.57845	0.5214	0.5093	0.372
Mof_C 	C 	0.62543	0.5363	0.5235	-0.136
Mof_C 	C 	0.65272	0.54346	0.4568	0.077
Mof_H 	H 	0.6419	0.5383	0.3998	0.019
Mof_C 	C 	0.69621	0.5582	0.4709	-0.151
Mof_H 	H 	0.7144	0.5618	0.4236	0.095
Mof_C 	C 	0.71323	0.56766	0.5522	0.113
Mof_C 	C 	0.68536	0.55901	0.6196	-0.152
Mof_H 	H 	0.6961	0.564	0.6767	0.082
Mof_C 	C 	0.6417	0.54312	0.6056	0.072
Mof_H 	H 	0.6229	0.5369	0.6531	0.021
Mof_C 	C 	0.76038	0.588	0.5698	-0.068
Mof_C 	C 	0.78002	0.62607	0.6171	-0.044
Mof_H 	H 	0.7633	0.6388	0.6331	0.046
Mof_H 	H 	0.7698	0.4949	0.5956	0.087
Mof_O 	O 	0.22432	0.85292	0.91026	-0.411
Mof_O 	O 	0.23069	0.84663	0.76841	-0.409
Mof_C 	C 	0.24512	0.85473	0.84263	0.372
Mof_C 	C 	0.2921	0.86963	0.85683	-0.136
Mof_C 	C 	0.31939	0.87679	0.79013	0.077
Mof_H 	H 	0.30857	0.87163	0.73313	0.019
Mof_C 	C 	0.36288	0.89153	0.80423	-0.151
Mof_H 	H 	0.38107	0.89513	0.75693	0.095
Mof_C 	C 	0.3799	0.90099	0.88553	0.113
Mof_C 	C 	0.35203	0.89234	0.95293	-0.152
Mof_H 	H 	0.36277	0.89733	0.01003	0.082
Mof_C 	C 	0.30837	0.87645	0.93893	0.072
Mof_H 	H 	0.28957	0.87023	0.98643	0.021
Mof_C 	C 	0.42705	0.92133	0.90313	-0.068
Mof_C 	C 	0.44669	0.9594	0.95043	-0.044
Mof_H 	H 	0.42997	0.97213	0.96643	0.046
Mof_H 	H 	0.43647	0.82823	0.92893	0.087
Mof_O 	O 	0.89098	0.18626	0.2436	-0.411
Mof_O 	O 	0.89735	0.17997	0.10175	-0.409
Mof_C 	C 	0.91178	0.18807	0.17597	0.372
Mof_C 	C 	0.95876	0.20297	0.19017	-0.136
Mof_C 	C 	0.98605	0.21013	0.12347	0.077
Mof_H 	H 	0.97523	0.20497	0.06647	0.019
Mof_C 	C 	0.02954	0.22487	0.13757	-0.151
Mof_H 	H 	0.04773	0.22847	0.09027	0.095
Mof_C 	C 	0.04656	0.23433	0.21887	0.114
Mof_C 	C 	0.01869	0.22568	0.28627	-0.152
Mof_H 	H 	0.02943	0.23067	0.34337	0.082
Mof_C 	C 	0.97503	0.20979	0.27227	0.072
Mof_H 	H 	0.95623	0.20357	0.31977	0.021
Mof_C 	C 	0.09371	0.25467	0.23647	-0.068
Mof_C 	C 	0.11335	0.29274	0.28377	-0.044
Mof_H 	H 	0.09663	0.30547	0.29977	0.046
Mof_H 	H 	0.10313	0.16157	0.26227	0.087
Mof_Cu	Cu	0.5035	0.00699	0.41616	0.904
Mof_Cu	Cu	0.17016	0.34032	0.74949	0.904
Mof_Cu	Cu	0.83683	0.67366	0.08283	0.904
Mof_Cu	Cu	0.99301	0.4965	0.41616	0.904
Mof_Cu	Cu	0.65968	0.82984	0.74949	0.904
Mof_Cu	Cu	0.32634	0.16317	0.08283	0.904
Mof_Cu	Cu	0.5035	0.4965	0.41616	0.904
Mof_Cu	Cu	0.17016	0.82984	0.74949	0.904
Mof_Cu	Cu	0.83683	0.16317	0.08283	0.904
Mof_Cu	Cu	0.00699	0.5035	0.58384	0.904
Mof_Cu	Cu	0.67366	0.83683	0.91717	0.904
Mof_Cu	Cu	0.34032	0.17016	0.25051	0.904
Mof_Cu	Cu	0.4965	0.99301	0.58384	0.904
Mof_Cu	Cu	0.16317	0.32634	0.91717	0.904
Mof_Cu	Cu	0.82984	0.65968	0.25051	0.904
Mof_Cu	Cu	0.4965	0.5035	0.58384	0.904
Mof_Cu	Cu	0.16317	0.83683	0.91717	0.904
Mof_Cu	Cu	0.82984	0.17016	0.25051	0.904
Mof_O 	O 	0.76563	0.23437	0.5003	-0.175
Mof_C 	C 	0.82311	0.17689	0.642	0.005
Mof_C 	C 	0.78477	0.21523	0.5451	0.123
Mof_C 	C 	0.74695	0.25305	0.5593	-0.175
Mof_H 	H 	0.7336	0.2664	0.5259	0.091
Mof_O 	O 	0.4323	0.5677	0.83363	-0.175
Mof_C 	C 	0.48978	0.51022	0.97533	0.005
Mof_C 	C 	0.45144	0.54856	0.87843	0.123
Mof_C 	C 	0.41362	0.58638	0.89263	-0.175
Mof_H 	H 	0.40027	0.59973	0.85923	0.091
Mof_O 	O 	0.09896	0.90104	0.16697	-0.175
Mof_C 	C 	0.15644	0.84356	0.30867	0.005
Mof_C 	C 	0.1181	0.8819	0.21177	0.123
Mof_C 	C 	0.08028	0.91972	0.22597	-0.175
Mof_H 	H 	0.06693	0.93307	0.19257	0.091
Mof_O 	O 	0.76563	0.53126	0.5003	-0.175
Mof_C 	C 	0.82311	0.64622	0.642	0.005
Mof_C 	C 	0.78477	0.56954	0.5451	0.123
Mof_C 	C 	0.74695	0.4939	0.5593	-0.175
Mof_H 	H 	0.7336	0.4672	0.5259	0.091
Mof_O 	O 	0.4323	0.86459	0.83363	-0.175
Mof_C 	C 	0.48978	0.97955	0.97533	0.005
Mof_C 	C 	0.45144	0.90287	0.87843	0.123
Mof_C 	C 	0.41362	0.82723	0.89263	-0.175
Mof_H 	H 	0.40027	0.80053	0.85923	0.091
Mof_O 	O 	0.09896	0.19793	0.16697	-0.175
Mof_C 	C 	0.15644	0.31289	0.30867	0.005
Mof_C 	C 	0.1181	0.23621	0.21177	0.123
Mof_C 	C 	0.08028	0.16057	0.22597	-0.175
Mof_H 	H 	0.06693	0.13387	0.19257	0.091
Mof_O 	O 	0.46874	0.23437	0.5003	-0.175
Mof_C 	C 	0.35378	0.17689	0.642	0.005
Mof_C 	C 	0.43046	0.21523	0.5451	0.123
Mof_C 	C 	0.5061	0.25305	0.5593	-0.175
Mof_H 	H 	0.5328	0.2664	0.5259	0.091
Mof_O 	O 	0.13541	0.5677	0.83363	-0.175
Mof_C 	C 	0.02045	0.51022	0.97533	0.005
Mof_C 	C 	0.09713	0.54856	0.87843	0.123
Mof_C 	C 	0.17277	0.58638	0.89263	-0.175
Mof_H 	H 	0.19947	0.59973	0.85923	0.091
Mof_O 	O 	0.80207	0.90104	0.16697	-0.175
Mof_C 	C 	0.68711	0.84356	0.30867	0.005
Mof_C 	C 	0.76379	0.8819	0.21177	0.123
Mof_C 	C 	0.83943	0.91972	0.22597	-0.175
Mof_H 	H 	0.86613	0.93307	0.19257	0.091
Mof_O 	O 	0.23437	0.76563	0.4997	-0.175
Mof_C 	C 	0.17689	0.82311	0.358	0.005
Mof_C 	C 	0.21523	0.78477	0.4549	0.123
Mof_C 	C 	0.25305	0.74695	0.4407	-0.175
Mof_H 	H 	0.2664	0.7336	0.4741	0.091
Mof_O 	O 	0.90104	0.09896	0.83303	-0.175
Mof_C 	C 	0.84356	0.15644	0.69133	0.005
Mof_C 	C 	0.8819	0.1181	0.78823	0.123
Mof_C 	C 	0.91972	0.08028	0.77403	-0.175
Mof_H 	H 	0.93307	0.06693	0.80743	0.091
Mof_O 	O 	0.5677	0.4323	0.16637	-0.175
Mof_C 	C 	0.51022	0.48978	0.02467	0.005
Mof_C 	C 	0.54856	0.45144	0.12157	0.123
Mof_C 	C 	0.58638	0.41362	0.10737	-0.175
Mof_H 	H 	0.59973	0.40027	0.14077	0.091
Mof_O 	O 	0.53126	0.76563	0.4997	-0.175
Mof_C 	C 	0.64622	0.82311	0.358	0.005
Mof_C 	C 	0.56954	0.78477	0.4549	0.123
Mof_C 	C 	0.4939	0.74695	0.4407	-0.175
Mof_H 	H 	0.4672	0.7336	0.4741	0.091
Mof_O 	O 	0.19793	0.09896	0.83303	-0.175
Mof_C 	C 	0.31289	0.15644	0.69133	0.005
Mof_C 	C 	0.23621	0.1181	0.78823	0.123
Mof_C 	C 	0.16057	0.08028	0.77403	-0.175
Mof_H 	H 	0.13387	0.06693	0.80743	0.091
Mof_O 	O 	0.86459	0.4323	0.16637	-0.175
Mof_C 	C 	0.97955	0.48978	0.02467	0.005
Mof_C 	C 	0.90287	0.45144	0.12157	0.123
Mof_C 	C 	0.82723	0.41362	0.10737	-0.175
Mof_H 	H 	0.80053	0.40027	0.14077	0.091
Mof_O 	O 	0.23437	0.46874	0.4997	-0.175
Mof_C 	C 	0.17689	0.35378	0.358	0.005
Mof_C 	C 	0.21523	0.43046	0.4549	0.123
Mof_C 	C 	0.25305	0.5061	0.4407	-0.175
Mof_H 	H 	0.2664	0.5328	0.4741	0.091
Mof_O 	O 	0.90104	0.80207	0.83303	-0.175
Mof_C 	C 	0.84356	0.68711	0.69133	0.005
Mof_C 	C 	0.8819	0.76379	0.78823	0.123
Mof_C 	C 	0.91972	0.83943	0.77403	-0.175
Mof_H 	H 	0.93307	0.86613	0.80743	0.091
Mof_O 	O 	0.5677	0.13541	0.16637	-0.175
Mof_C 	C 	0.51022	0.02045	0.02467	0.005
Mof_C 	C 	0.54856	0.09713	0.12157	0.123
Mof_C 	C 	0.58638	0.17277	0.10737	-0.175
Mof_H 	H 	0.59973	0.19947	0.14077	0.091
_end
