data_functionalizedCrystal
_audit_creation_method	'EQeq! by Chris Wilmer'
_symmetry_space_group_name_H-M	'P1'
_symmetry_Int_Tables_number	1
_symmetry_cell_setting	triclinic
loop_
_symmetry_equiv_pos_as_xyz
  x,y,z
_cell_length_a	5.396
_cell_length_b	18.7159
_cell_length_c	18.7159
_cell_angle_alpha	88.8093
_cell_angle_beta	81.7119
_cell_angle_gamma	81.7116
loop_
_atom_site_label
_atom_site_type_symbol
_atom_site_fract_x
_atom_site_fract_y
_atom_site_fract_z
_atom_site_charge
Mof_Zn	Zn	0.66126	0.94231	0.48865	1.217
Mof_Zn	Zn	0.09222	0.05769	0.51135	1.213
Mof_Zn	Zn	0.85009	0.48865	0.05769	1.217
Mof_Zn	Zn	0.39643	0.51135	0.94231	1.213
Mof_H 	H 	0.7447	0.8454	0.1664	0.07
Mof_H 	H 	0.4233	0.9053	0.0929	0.048
Mof_H 	H 	0.0037	0.0424	0.2938	0.059
Mof_H 	H 	0.1958	0.651	0.129	0.005
Mof_H 	H 	0.659	0.6675	0.2769	0.029
Mof_H 	H 	0.04	0.8166	0.4012	-0.038
Mof_H 	H 	0.8456	0.0526	0.1844	0.022
Mof_H 	H 	0.3286	0.9877	0.3681	0.035
Mof_H 	H 	0.9072	0.7452	0.1844	0.103
Mof_H 	H 	0.3799	0.7655	0.3303	0.09
Mof_H 	H 	0.0609	0.9847	0.0835	0.044
Mof_H 	H 	0.7565	0.1546	0.8336	0.076
Mof_H 	H 	0.4215	0.0947	0.9071	0.058
Mof_H 	H 	0.3399	0.9576	0.7062	0.047
Mof_H 	H 	0.9758	0.349	0.871	0.046
Mof_H 	H 	0.6034	0.3325	0.7231	0.041
Mof_H 	H 	0.2578	0.1834	0.5988	-0.016
Mof_H 	H 	0.0826	0.9474	0.8156	0.038
Mof_H 	H 	0.6844	0.0123	0.6319	0.032
Mof_H 	H 	0.8368	0.2548	0.8156	0.066
Mof_H 	H 	0.4757	0.2345	0.6697	0.081
Mof_H 	H 	0.1291	0.0153	0.9165	0.027
Mof_H 	H 	0.0889	0.1664	0.1546	0.078
Mof_H 	H 	0.4838	0.0929	0.0947	0.064
Mof_H 	H 	0.7025	0.2938	0.9576	0.037
Mof_H 	H 	0.6752	0.129	0.349	0.019
Mof_H 	H 	0.0641	0.2769	0.3325	0.023
Mof_H 	H 	0.5588	0.4012	0.1834	-0.014
Mof_H 	H 	0.97	0.1844	0.9474	0.05
Mof_H 	H 	0.3033	0.3681	0.0123	0.019
Mof_H 	H 	0.9084	0.1844	0.2548	0.094
Mof_H 	H 	0.2898	0.3303	0.2345	0.091
Mof_H 	H 	0.8556	0.0835	0.0153	0.029
Mof_H 	H 	0.4099	0.8336	0.8454	0.072
Mof_H 	H 	0.6714	0.9071	0.9053	0.058
Mof_H 	H 	0.9539	0.7062	0.0424	0.048
Mof_H 	H 	0.1532	0.871	0.651	0.02
Mof_H 	H 	0.6735	0.7231	0.6675	0.036
Mof_H 	H 	0.1434	0.5988	0.8166	-0.015
Mof_H 	H 	0.1018	0.8156	0.0526	0.026
Mof_H 	H 	0.6837	0.6319	0.9877	0.029
Mof_H 	H 	0.3476	0.8156	0.7452	0.081
Mof_H 	H 	0.8546	0.6697	0.7655	0.084
Mof_H 	H 	0.9544	0.9165	0.9847	0.039
Mof_C 	C 	0.11323	0.76328	0.26406	0.151
Mof_C 	C 	0.6584	0.87321	0.20679	-0.109
Mof_C 	C 	0.63176	0.58523	0.16445	0.349
Mof_C 	C 	0.74178	0.86545	0.27279	0.069
Mof_C 	C 	0.44181	0.92333	0.20045	0.021
Mof_C 	C 	0.33999	0.93242	0.134	-0.053
Mof_C 	C 	0.08987	0.0143	0.25356	-0.124
Mof_C 	C 	0.61923	0.90928	0.33226	0.05
Mof_C 	C 	0.31388	0.96615	0.26109	0.058
Mof_C 	C 	0.23094	0.67282	0.1711	0.098
Mof_C 	C 	0.44974	0.64758	0.19854	-0.138
Mof_C 	C 	0.50574	0.68312	0.2582	0.071
Mof_C 	C 	0.92648	0.83933	0.37051	0.129
Mof_C 	C 	0.99637	0.02062	0.18864	0.029
Mof_C 	C 	0.40839	0.95896	0.32766	-0.133
Mof_C 	C 	0.05984	0.7295	0.20342	-0.191
Mof_C 	C 	0.33888	0.74122	0.29042	-0.163
Mof_C 	C 	0.12478	0.97951	0.12833	-0.071
Mof_C 	C 	0.14057	0.23672	0.73594	0.109
Mof_C 	C 	0.7384	0.12679	0.79321	-0.125
Mof_C 	C 	0.38144	0.41477	0.83555	0.331
Mof_C 	C 	0.88002	0.13455	0.72721	0.085
Mof_C 	C 	0.56559	0.07667	0.79955	0.046
Mof_C 	C 	0.40641	0.06758	0.866	-0.086
Mof_C 	C 	0.35773	0.9857	0.74644	-0.067
Mof_C 	C 	0.86077	0.09072	0.66774	0.055
Mof_C 	C 	0.54112	0.03385	0.73891	0.028
Mof_C 	C 	0.07486	0.32718	0.8289	0.009
Mof_C 	C 	0.29586	0.35242	0.80146	-0.094
Mof_C 	C 	0.44706	0.31688	0.7418	0.035
Mof_C 	C 	0.13632	0.16067	0.62949	0.097
Mof_C 	C 	0.20563	0.97938	0.81136	-0.036
Mof_C 	C 	0.69501	0.04104	0.67234	-0.118
Mof_C 	C 	0.99276	0.2705	0.79658	-0.092
Mof_C 	C 	0.37052	0.25878	0.70958	-0.127
Mof_C 	C 	0.23262	0.02049	0.87167	-0.024
Mof_C 	C 	0.62271	0.26406	0.23672	0.155
Mof_C 	C 	0.13481	0.20679	0.12679	-0.154
Mof_C 	C 	0.20379	0.16445	0.41477	0.327
Mof_C 	C 	0.98543	0.27279	0.13455	0.107
Mof_C 	C 	0.35774	0.20045	0.07667	0.062
Mof_C 	C 	0.52601	0.134	0.06758	-0.099
Mof_C 	C 	0.65657	0.25356	0.9857	-0.052
Mof_C 	C 	0.04851	0.33226	0.09072	0.012
Mof_C 	C 	0.42503	0.26109	0.03385	0.009
Mof_C 	C 	0.59796	0.1711	0.32718	0.082
Mof_C 	C 	0.35172	0.19854	0.35242	-0.128
Mof_C 	C 	0.23606	0.2582	0.31688	0.065
Mof_C 	C 	0.70301	0.37051	0.16067	0.103
Mof_C 	C 	0.81499	0.18864	0.97938	-0.05
Mof_C 	C 	0.26395	0.32766	0.04104	-0.096
Mof_C 	C 	0.73674	0.20342	0.2705	-0.165
Mof_C 	C 	0.3707	0.29042	0.25878	-0.161
Mof_C 	C 	0.74689	0.12833	0.02049	-0.006
Mof_C 	C 	0.12349	0.73594	0.76328	0.123
Mof_C 	C 	0.46839	0.79321	0.87321	-0.12
Mof_C 	C 	0.78301	0.83555	0.58523	0.344
Mof_C 	C 	0.39277	0.72721	0.86545	0.072
Mof_C 	C 	0.63486	0.79955	0.92333	0.04
Mof_C 	C 	0.72759	0.866	0.93242	-0.076
Mof_C 	C 	0.89583	0.74644	0.0143	-0.08
Mof_C 	C 	0.47149	0.66774	0.90928	0.041
Mof_C 	C 	0.71997	0.73891	0.96615	0.035
Mof_C 	C 	0.09624	0.8289	0.67282	0.044
Mof_C 	C 	0.90268	0.80146	0.64758	-0.101
Mof_C 	C 	0.81114	0.7418	0.68312	0.044
Mof_C 	C 	0.23419	0.62949	0.83933	0.1
Mof_C 	C 	0.98301	0.81136	0.02062	-0.011
Mof_C 	C 	0.63265	0.67234	0.95896	-0.118
Mof_C 	C 	0.21066	0.79658	0.7295	-0.141
Mof_C 	C 	0.9199	0.70958	0.74122	-0.124
Mof_C 	C 	0.89571	0.87167	0.97951	-0.032
Mof_N 	N 	0.74333	0.89115	0.39199	-0.28
Mof_N 	N 	0.93944	0.82075	0.29957	-0.156
Mof_N 	N 	0.02647	0.10885	0.60801	-0.285
Mof_N 	N 	0.05976	0.17925	0.70043	-0.159
Mof_N 	N 	0.86468	0.39199	0.10885	-0.268
Mof_N 	N 	0.76099	0.29957	0.17925	-0.162
Mof_N 	N 	0.36552	0.60801	0.89115	-0.276
Mof_N 	N 	0.23981	0.70043	0.82075	-0.154
Mof_O 	O 	0.30616	0.96558	0.5211	-0.751
Mof_O 	O 	0.57727	0.55894	0.10772	-0.473
Mof_O 	O 	0.82538	0.56457	0.19207	-0.304
Mof_O 	O 	0.79284	0.03442	0.4789	-0.621
Mof_O 	O 	0.24393	0.44106	0.89228	-0.47
Mof_O 	O 	0.58202	0.43543	0.80793	-0.301
Mof_O 	O 	0.17274	0.5211	0.03442	-0.65
Mof_O 	O 	0.31501	0.10772	0.44106	-0.478
Mof_O 	O 	0.98255	0.19207	0.43543	-0.291
Mof_O 	O 	0.72826	0.4789	0.96558	-0.641
Mof_O 	O 	0.86379	0.89228	0.55894	-0.485
Mof_O 	O 	0.61005	0.80793	0.56457	-0.316
Mof_H 	H 	0.72826	0.42546	0.96669	0.121
Mof_H 	H 	0.64147	0.08334	0.48417	0.117
Mof_H 	H 	0.23047	0.92591	0.52507	0.244
Mof_H 	H 	0.17274	0.57454	0.03331	0.128
_end
