data_functionalizedCrystal
_audit_creation_method	'EQeq! by Chris Wilmer'
_symmetry_space_group_name_H-M	'P1'
_symmetry_Int_Tables_number	1
_symmetry_cell_setting	triclinic
loop_
_symmetry_equiv_pos_as_xyz
  x,y,z
_cell_length_a	33.3586
_cell_length_b	33.3586
_cell_length_c	67.839
_cell_angle_alpha	90
_cell_angle_beta	90
_cell_angle_gamma	120
loop_
_atom_site_label
_atom_site_type_symbol
_atom_site_fract_x
_atom_site_fract_y
_atom_site_fract_z
_atom_site_charge
Mof_Zn	Zn	0.83283	0.66915	0.02259	1.217
Mof_Zn	Zn	0.74215	0.67146	0.53211	1.169
Mof_Zn	Zn	0.74719	0.07895	0.80351	1.187
Mof_Zn	Zn	0.83283	0.16368	0.52259	1.217
Mof_Zn	Zn	0.83789	0.23019	0.55687	1.206
Mof_Zn	Zn	0.82717	0.66893	0.81264	1.214
Mof_Zn	Zn	0.88991	0.17564	0.56277	1.199
Mof_Zn	Zn	0.39506	0.22513	0.77878	1.208
Mof_Zn	Zn	0.92105	0.25281	0.30351	1.187
Mof_Zn	Zn	0.82436	0.11009	0.06277	1.199
Mof_Zn	Zn	0.82436	0.71427	0.56277	1.199
Mof_Zn	Zn	0.92931	0.25785	0.53211	1.169
Mof_Zn	Zn	0.77487	0.16993	0.77878	1.208
Mof_Zn	Zn	0.33176	0.25281	0.80351	1.187
Mof_Zn	Zn	0.83029	0.11709	0.77256	1.201
Mof_Zn	Zn	0.39506	0.16993	0.27878	1.208
Mof_Zn	Zn	0.33085	0.16717	0.52259	1.217
Mof_Zn	Zn	0.3923	0.23019	0.05687	1.206
Mof_Zn	Zn	0.76981	0.16211	0.05687	1.206
Mof_Zn	Zn	0.3923	0.16211	0.55687	1.206
Mof_Zn	Zn	0.84176	0.17283	0.81264	1.214
Mof_Zn	Zn	0.83789	0.6077	0.05687	1.206
Mof_Zn	Zn	0.83007	0.22513	0.27878	1.208
Mof_Zn	Zn	0.77487	0.60494	0.27878	1.208
Mof_Zn	Zn	0.88291	0.16971	0.27256	1.201
Mof_Zn	Zn	0.28573	0.17564	0.06277	1.199
Mof_Zn	Zn	0.32854	0.25785	0.03211	1.169
Mof_Zn	Zn	0.33107	0.17283	0.31264	1.214
Mof_Zn	Zn	0.2868	0.16971	0.77256	1.201
Mof_Zn	Zn	0.83007	0.60494	0.77878	1.208
Mof_Zn	Zn	0.74215	0.07069	0.03211	1.169
Mof_Zn	Zn	0.2868	0.11709	0.27256	1.201
Mof_Zn	Zn	0.76981	0.6077	0.55687	1.207
Mof_Zn	Zn	0.83632	0.16717	0.02259	1.218
Mof_Zn	Zn	0.28573	0.11009	0.56277	1.2
Mof_Zn	Zn	0.92105	0.66824	0.80351	1.188
Mof_Zn	Zn	0.92931	0.67146	0.03211	1.17
Mof_Zn	Zn	0.88991	0.71427	0.06277	1.2
Mof_Zn	Zn	0.84176	0.66893	0.31264	1.215
Mof_Zn	Zn	0.74719	0.66824	0.30351	1.188
Mof_Zn	Zn	0.33176	0.07895	0.30351	1.188
Mof_Zn	Zn	0.33085	0.16368	0.02259	1.218
Mof_Zn	Zn	0.83632	0.66915	0.52259	1.218
Mof_Zn	Zn	0.32854	0.07069	0.53211	1.17
Mof_Zn	Zn	0.88291	0.7132	0.77256	1.202
Mof_Zn	Zn	0.82717	0.15824	0.31264	1.215
Mof_Zn	Zn	0.83029	0.7132	0.27256	1.202
Mof_Zn	Zn	0.33107	0.15824	0.81264	1.215
Mof_H 	H 	0.5824	0.384	0.559	0.093
Mof_H 	H 	0.7109	0.052	0.8636	0.035
Mof_H 	H 	0.621	0.119	0.4961	0.05
Mof_H 	H 	0.7547	0.5565	0.1858	0.05
Mof_H 	H 	0.0926	0.1548	0.2608	0.098
Mof_H 	H 	0.8275	0.8503	0.5704	0.06
Mof_H 	H 	0.2102	0.0332	0.8272	0.038
Mof_H 	H 	0.0307	0.7972	0.0177	0.028
Mof_H 	H 	0.5571	0.1539	0.7639	0.092
Mof_H 	H 	0.6953	0.182	0.5563	0.071
Mof_H 	H 	0.8647	0.9538	0.5708	0.1
Mof_H 	H 	0.4493	0.3845	0.8188	0.031
Mof_H 	H 	0.1841	0.0272	0.0683	0.071
Mof_H 	H 	0.6989	0.0344	0.9373	0.054
Mof_H 	H 	0.0228	0.8503	0.0704	0.06
Mof_H 	H 	0.2913	0.1271	0.6266	0.062
Mof_H 	H 	0.1841	0.1569	0.5683	0.071
Mof_H 	H 	0.814	0.9317	0.5796	0.098
Mof_H 	H 	0.839	0.1569	0.875	0.061
Mof_H 	H 	0.8387	0.6833	0.4597	0.062
Mof_H 	H 	0.684	0.5866	0.8224	0.036
Mof_H 	H 	0.802	0.2283	0.2207	0.044
Mof_H 	H 	0.7547	0.1982	0.6858	0.05
Mof_H 	H 	0.823	0.7898	0.8272	0.038
Mof_H 	H 	0.4867	0.182	0.0563	0.071
Mof_H 	H 	0.3179	0.1569	0.375	0.061
Mof_H 	H 	0.3367	0.2883	0.9708	0.04
Mof_H 	H 	0.8263	0.7157	0.6692	0.101
Mof_H 	H 	0.5487	0.1503	0.069	0.091
Mof_H 	H 	0.814	0.8823	0.0796	0.098
Mof_H 	H 	0.5657	0.4688	0.4966	0.053
Mof_H 	H 	0.8461	0.4429	0.2639	0.092
Mof_H 	H 	0.9352	0.3845	0.3188	0.031
Mof_H 	H 	0.7906	0.9153	0.2601	0.101
Mof_H 	H 	0.8894	0.7157	0.1692	0.101
Mof_H 	H 	0.5968	0.1539	0.2639	0.092
Mof_H 	H 	0.4134	0.316	0.3224	0.036
Mof_H 	H 	0.4978	0.1872	0.7815	0.045
Mof_H 	H 	0.9656	0.6645	0.9373	0.054
Mof_H 	H 	0.8358	0.1271	0.1266	0.062
Mof_H 	H 	0.6155	0.5507	0.3188	0.031
Mof_H 	H 	0.9777	0.2127	0.0143	0.049
Mof_H 	H 	0.4406	0.3061	0.5002	0.04
Mof_H 	H 	0.2102	0.177	0.3272	0.038
Mof_H 	H 	0.6431	0.4841	0.2762	0.06
Mof_H 	H 	0.0926	0.9378	0.7608	0.098
Mof_H 	H 	0.8107	0.8786	0.3308	0.055
Mof_H 	H 	0.8461	0.4032	0.7639	0.092
Mof_H 	H 	0.7653	0.2077	0.6476	0.052
Mof_H 	H 	0.0537	0.2323	0.0107	0.054
Mof_H 	H 	0.0293	0.8384	0.7643	0.064
Mof_H 	H 	0.4302	0.2259	0.1156	0.043
Mof_H 	H 	0.4619	0.377	0.0077	0.04
Mof_H 	H 	0.3407	0.0382	0.3971	0.058
Mof_H 	H 	0.6975	0.6593	0.3971	0.058
Mof_H 	H 	0.8016	0.384	0.059	0.093
Mof_H 	H 	0.3401	0.1854	0.4185	0.086
Mof_H 	H 	0.8485	0.7143	0.9178	0.088
Mof_H 	H 	0.8092	0.9598	0.3322	0.053
Mof_H 	H 	0.8658	0.1515	0.9178	0.088
Mof_H 	H 	0.6397	0.1524	0.0592	0.067
Mof_H 	H 	0.6397	0.4873	0.5592	0.067
Mof_H 	H 	0.8485	0.1342	0.4178	0.088
Mof_H 	H 	0.839	0.6821	0.375	0.061
Mof_H 	H 	0.8482	0.123	0.6651	0.099
Mof_H 	H 	0.8091	0.8384	0.2643	0.064
Mof_H 	H 	0.0891	0.9538	0.0708	0.1
Mof_H 	H 	0.818	0.3047	0.0563	0.071
Mof_H 	H 	0.4302	0.2043	0.6156	0.043
Mof_H 	H 	0.6894	0.1872	0.2815	0.045
Mof_H 	H 	0.6431	0.159	0.7762	0.06
Mof_H 	H 	0.4424	0.2347	0.6476	0.052
Mof_H 	H 	0.7617	0.8992	0.0121	0.067
Mof_H 	H 	0.1375	0.2383	0.0121	0.067
Mof_H 	H 	0.1506	0.9598	0.8322	0.053
Mof_H 	H 	0.8467	0.1378	0.7094	0.07
Mof_H 	H 	0.7117	0.0484	0.9708	0.04
Mof_H 	H 	0.4406	0.1345	0.0002	0.04
Mof_H 	H 	0.8128	0.3106	0.7815	0.045
Mof_H 	H 	0.8729	0.7087	0.1266	0.062
Mof_H 	H 	0.7873	0.765	0.0143	0.049
Mof_H 	H 	0.1616	0.9707	0.2643	0.064
Mof_H 	H 	0.8482	0.7252	0.1651	0.099
Mof_H 	H 	0.7717	0.5737	0.2207	0.044
Mof_H 	H 	0.7923	0.2347	0.1476	0.052
Mof_H 	H 	0.5426	0.4864	0.3229	0.054
Mof_H 	H 	0.9618	0.3025	0.3971	0.058
Mof_H 	H 	0.684	0.0974	0.3224	0.036
Mof_H 	H 	0.8446	0.6833	0.9597	0.062
Mof_H 	H 	0.8092	0.8494	0.8322	0.053
Mof_H 	H 	0.9777	0.765	0.5143	0.049
Mof_H 	H 	0.8263	0.1106	0.1692	0.101
Mof_H 	H 	0.9668	0.177	0.8272	0.038
Mof_H 	H 	0.1247	0.2094	0.2601	0.101
Mof_H 	H 	0.7617	0.8625	0.5121	0.067
Mof_H 	H 	0.8016	0.4176	0.559	0.093
Mof_H 	H 	0.4263	0.2283	0.7207	0.044
Mof_H 	H 	0.1247	0.9153	0.7601	0.101
Mof_H 	H 	0.3407	0.3025	0.8971	0.058
Mof_H 	H 	0.0891	0.1353	0.5708	0.1
Mof_H 	H 	0.5571	0.4032	0.2639	0.092
Mof_H 	H 	0.0679	0.1893	0.3308	0.055
Mof_H 	H 	0.5136	0.4574	0.8229	0.054
Mof_H 	H 	0.1008	0.8625	0.0121	0.067
Mof_H 	H 	0.0228	0.1725	0.5704	0.06
Mof_H 	H 	0.8658	0.7143	0.4178	0.088
Mof_H 	H 	0.1177	0.186	0.5796	0.098
Mof_H 	H 	0.8319	0.018	0.268	0.058
Mof_H 	H 	0.0622	0.1548	0.7608	0.098
Mof_H 	H 	0.9151	0.5381	0.0077	0.04
Mof_H 	H 	0.2028	0.9693	0.5177	0.028
Mof_H 	H 	0.2857	0.1342	0.9178	0.088
Mof_H 	H 	0.8894	0.1737	0.6692	0.101
Mof_H 	H 	0.8476	0.4873	0.0592	0.067
Mof_H 	H 	0.4493	0.0648	0.3188	0.031
Mof_H 	H 	0.0847	0.2094	0.7601	0.101
Mof_H 	H 	0.4867	0.3047	0.5563	0.071
Mof_H 	H 	0.9438	0.4864	0.8229	0.054
Mof_H 	H 	0.7653	0.5576	0.1476	0.052
Mof_H 	H 	0.5879	0.1956	0.7786	0.092
Mof_H 	H 	0.0847	0.8753	0.2601	0.101
Mof_H 	H 	0.5159	0.159	0.2762	0.06
Mof_H 	H 	0.1908	0.2011	0.8227	0.035
Mof_H 	H 	0.881	0.379	0.9961	0.05
Mof_H 	H 	0.7989	0.8092	0.3227	0.035
Mof_H 	H 	0.7117	0.6633	0.4708	0.04
Mof_H 	H 	0.7665	0.9693	0.0177	0.028
Mof_H 	H 	0.9668	0.7898	0.3272	0.038
Mof_H 	H 	0.8275	0.9772	0.0704	0.06
Mof_H 	H 	0.982	0.8139	0.268	0.058
Mof_H 	H 	0.4631	0.3952	0.3257	0.056
Mof_H 	H 	0.1214	0.9321	0.3308	0.055
Mof_H 	H 	0.9656	0.3011	0.4373	0.054
Mof_H 	H 	0.5312	0.0969	0.4966	0.053
Mof_H 	H 	0.1375	0.8992	0.5121	0.067
Mof_H 	H 	0.4424	0.2077	0.1476	0.052
Mof_H 	H 	0.7665	0.7972	0.5177	0.028
Mof_H 	H 	0.7873	0.0223	0.5143	0.049
Mof_H 	H 	0.2028	0.2335	0.0177	0.028
Mof_H 	H 	0.4978	0.3106	0.2815	0.045
Mof_H 	H 	0.8431	0.0272	0.5683	0.071
Mof_H 	H 	0.3367	0.0484	0.4708	0.04
Mof_H 	H 	0.2911	0.1533	0.7094	0.07
Mof_H 	H 	0.7989	0.9897	0.8227	0.035
Mof_H 	H 	0.4263	0.198	0.2207	0.044
Mof_H 	H 	0.9321	0.3952	0.8257	0.056
Mof_H 	H 	0.5879	0.3923	0.2786	0.092
Mof_H 	H 	0.9026	0.5866	0.3224	0.036
Mof_H 	H 	0.1497	0.1725	0.0704	0.06
Mof_H 	H 	0.8497	0.4513	0.569	0.091
Mof_H 	H 	0.0462	0.1353	0.0708	0.1
Mof_H 	H 	0.623	0.5381	0.5077	0.04
Mof_H 	H 	0.823	0.0332	0.3272	0.038
Mof_H 	H 	0.8453	0.6599	0.4185	0.086
Mof_H 	H 	0.6939	0.1345	0.5002	0.04
Mof_H 	H 	0.9151	0.377	0.5077	0.04
Mof_H 	H 	0.6939	0.5594	0.0002	0.04
Mof_H 	H 	0.7741	0.2043	0.1156	0.043
Mof_H 	H 	0.1177	0.9317	0.0796	0.098
Mof_H 	H 	0.5127	0.1524	0.5592	0.067
Mof_H 	H 	0.7677	0.9463	0.5107	0.054
Mof_H 	H 	0.982	0.1681	0.768	0.058
Mof_H 	H 	0.9026	0.316	0.8224	0.036
Mof_H 	H 	0.8476	0.3603	0.5592	0.067
Mof_H 	H 	0.3401	0.1547	0.9185	0.086
Mof_H 	H 	0.8018	0.5565	0.6858	0.05
Mof_H 	H 	0.3167	0.1613	0.9597	0.062
Mof_H 	H 	0.6048	0.0679	0.3257	0.056
Mof_H 	H 	0.8091	0.9707	0.7643	0.064
Mof_H 	H 	0.0683	0.186	0.0796	0.098
Mof_H 	H 	0.7957	0.5698	0.1156	0.043
Mof_H 	H 	0.8655	0.3061	0.0002	0.04
Mof_H 	H 	0.841	0.4841	0.7762	0.06
Mof_H 	H 	0.8128	0.5022	0.2815	0.045
Mof_H 	H 	0.1497	0.9772	0.5704	0.06
Mof_H 	H 	0.1861	0.1681	0.268	0.058
Mof_H 	H 	0.621	0.502	0.9961	0.05
Mof_H 	H 	0.8622	0.7089	0.7094	0.07
Mof_H 	H 	0.616	0.1984	0.559	0.093
Mof_H 	H 	0.235	0.2127	0.5143	0.049
Mof_H 	H 	0.3355	0.3011	0.9373	0.055
Mof_H 	H 	0.7677	0.8214	0.0107	0.054
Mof_H 	H 	0.498	0.119	0.9961	0.05
Mof_H 	H 	0.5136	0.0562	0.3229	0.054
Mof_H 	H 	0.877	0.1518	0.1651	0.099
Mof_H 	H 	0.9516	0.6633	0.9708	0.04
Mof_H 	H 	0.1861	0.018	0.768	0.058
Mof_H 	H 	0.0462	0.9109	0.5708	0.1
Mof_H 	H 	0.5159	0.3569	0.7762	0.06
Mof_H 	H 	0.8647	0.9109	0.0708	0.1
Mof_H 	H 	0.0622	0.9074	0.2608	0.098
Mof_H 	H 	0.8044	0.4121	0.2786	0.092
Mof_H 	H 	0.3179	0.161	0.875	0.061
Mof_H 	H 	0.6016	0.1503	0.569	0.091
Mof_H 	H 	0.6975	0.0382	0.8971	0.058
Mof_H 	H 	0.235	0.0223	0.0143	0.049
Mof_H 	H 	0.4631	0.0679	0.8257	0.056
Mof_H 	H 	0.6989	0.6645	0.4373	0.055
Mof_H 	H 	0.7109	0.6589	0.3636	0.035
Mof_H 	H 	0.7717	0.198	0.7207	0.044
Mof_H 	H 	0.6894	0.5022	0.7815	0.045
Mof_H 	H 	0.8358	0.7087	0.6266	0.062
Mof_H 	H 	0.2913	0.1642	0.1266	0.062
Mof_H 	H 	0.0679	0.8786	0.8308	0.055
Mof_H 	H 	0.6155	0.0648	0.8188	0.031
Mof_H 	H 	0.8387	0.1554	0.9597	0.062
Mof_H 	H 	0.8319	0.8139	0.768	0.058
Mof_H 	H 	0.498	0.379	0.4961	0.05
Mof_H 	H 	0.8044	0.3923	0.7786	0.092
Mof_H 	H 	0.0402	0.1908	0.8322	0.053
Mof_H 	H 	0.881	0.502	0.4961	0.05
Mof_H 	H 	0.2857	0.1515	0.4178	0.088
Mof_H 	H 	0.5127	0.3603	0.0592	0.067
Mof_H 	H 	0.7906	0.8753	0.7601	0.101
Mof_H 	H 	0.8467	0.7089	0.2094	0.07
Mof_H 	H 	0.8497	0.3984	0.069	0.091
Mof_H 	H 	0.5657	0.0969	0.9966	0.053
Mof_H 	H 	0.8452	0.9378	0.2608	0.098
Mof_H 	H 	0.6016	0.4513	0.069	0.091
Mof_H 	H 	0.2843	0.1737	0.1692	0.101
Mof_H 	H 	0.948	0.6589	0.8636	0.035
Mof_H 	H 	0.6077	0.1956	0.2786	0.092
Mof_H 	H 	0.8107	0.9321	0.8308	0.055
Mof_H 	H 	0.2748	0.1518	0.6651	0.099
Mof_H 	H 	0.7957	0.2259	0.6156	0.043
Mof_H 	H 	0.1908	0.9897	0.3227	0.035
Mof_H 	H 	0.9031	0.4688	0.9966	0.053
Mof_H 	H 	0.9438	0.4574	0.3229	0.054
Mof_H 	H 	0.1786	0.2323	0.5107	0.054
Mof_H 	H 	0.6048	0.5369	0.8257	0.056
Mof_H 	H 	0.0537	0.8214	0.5107	0.054
Mof_H 	H 	0.1008	0.2383	0.5121	0.067
Mof_H 	H 	0.8622	0.1533	0.2094	0.07
Mof_H 	H 	0.0402	0.8494	0.3322	0.053
Mof_H 	H 	0.5312	0.4343	0.9966	0.053
Mof_H 	H 	0.1506	0.1908	0.3322	0.053
Mof_H 	H 	0.948	0.2891	0.3636	0.035
Mof_H 	H 	0.0103	0.2011	0.3227	0.035
Mof_H 	H 	0.2843	0.1106	0.6692	0.101
Mof_H 	H 	0.1786	0.9463	0.0107	0.054
Mof_H 	H 	0.8146	0.6599	0.9185	0.086
Mof_H 	H 	0.8431	0.8159	0.0683	0.071
Mof_H 	H 	0.877	0.7252	0.6651	0.099
Mof_H 	H 	0.3167	0.1554	0.4597	0.062
Mof_H 	H 	0.818	0.5133	0.5563	0.071
Mof_H 	H 	0.6077	0.4121	0.7786	0.092
Mof_H 	H 	0.9516	0.2883	0.4708	0.04
Mof_H 	H 	0.2911	0.1378	0.2094	0.07
Mof_H 	H 	0.5426	0.0562	0.8229	0.054
Mof_H 	H 	0.4435	0.1982	0.1858	0.05
Mof_H 	H 	0.3411	0.052	0.3636	0.035
Mof_H 	H 	0.802	0.5737	0.7207	0.044
Mof_H 	H 	0.5824	0.1984	0.059	0.093
Mof_H 	H 	0.8729	0.1642	0.6266	0.062
Mof_H 	H 	0.8018	0.2453	0.1858	0.05
Mof_H 	H 	0.0683	0.8823	0.5796	0.098
Mof_H 	H 	0.9728	0.1569	0.0683	0.071
Mof_H 	H 	0.8446	0.1613	0.4597	0.062
Mof_H 	H 	0.8452	0.9074	0.7608	0.098
Mof_H 	H 	0.0307	0.2335	0.5177	0.028
Mof_H 	H 	0.623	0.0849	0.0077	0.04
Mof_H 	H 	0.7923	0.5576	0.6476	0.052
Mof_H 	H 	0.8146	0.1547	0.4185	0.086
Mof_H 	H 	0.0293	0.1909	0.2643	0.064
Mof_H 	H 	0.9321	0.5369	0.3257	0.056
Mof_H 	H 	0.9618	0.6593	0.8971	0.058
Mof_H 	H 	0.9728	0.8159	0.5683	0.071
Mof_H 	H 	0.3355	0.0344	0.4373	0.054
Mof_H 	H 	0.8431	0.161	0.375	0.061
Mof_H 	H 	0.616	0.4176	0.059	0.093
Mof_H 	H 	0.841	0.3569	0.2762	0.06
Mof_H 	H 	0.2748	0.123	0.1651	0.099
Mof_H 	H 	0.6953	0.5133	0.0563	0.071
Mof_H 	H 	0.3411	0.2891	0.8636	0.035
Mof_H 	H 	0.1214	0.1893	0.8308	0.055
Mof_H 	H 	0.8453	0.1854	0.9185	0.086
Mof_H 	H 	0.4435	0.2453	0.6858	0.05
Mof_H 	H 	0.4134	0.0974	0.8224	0.036
Mof_H 	H 	0.1616	0.1909	0.7643	0.064
Mof_H 	H 	0.5487	0.3984	0.569	0.091
Mof_H 	H 	0.8655	0.5594	0.5002	0.04
Mof_H 	H 	0.5968	0.4429	0.7639	0.092
Mof_H 	H 	0.9352	0.5507	0.8188	0.031
Mof_H 	H 	0.9031	0.4343	0.4966	0.053
Mof_H 	H 	0.8431	0.6821	0.875	0.061
Mof_H 	H 	0.0103	0.8092	0.8227	0.035
Mof_H 	H 	0.4619	0.0849	0.5077	0.04
Mof_H 	H 	0.7741	0.5698	0.6156	0.043
Mof_C 	C 	0.7391	0.1518	0.3019	0.389
Mof_C 	C 	0.0424	0.221	0.5268	0.014
Mof_C 	C 	0.6692	0.5597	0.8149	0.01
Mof_C 	C 	0.5627	0.4859	0.3136	-0.073
Mof_C 	C 	0.8408	0.173	0.64998	0.061
Mof_C 	C 	0.845	0.7013	0.66713	-0.232
Mof_C 	C 	0.8905	0.5597	0.3149	0.01
Mof_C 	C 	0.9232	0.4859	0.8136	-0.073
Mof_C 	C 	0.9232	0.4373	0.3136	-0.073
Mof_C 	C 	0.0763	0.8884	0.78313	0.058
Mof_C 	C 	0.1008	0.2038	0.0365	0.01
Mof_C 	C 	0.0564	0.1859	0.80304	-0.005
Mof_C 	C 	0.5207	0.1588	0.0418	0.063
Mof_C 	C 	0.1819	0.1698	0.55652	-0.079
Mof_C 	C 	0.5141	0.4373	0.8136	-0.073
Mof_C 	C 	0.329	0.2127	0.84447	0.395
Mof_C 	C 	0.256	0.0858	0.0421	0.368
Mof_C 	C 	0.7954	0.7873	0.024	-0.021
Mof_C 	C 	0.8107	0.1311	0.95519	-0.053
Mof_C 	C 	0.4943	0.3642	0.5081	-0.065
Mof_C 	C 	0.2304	0.0284	0.28892	0.393
Mof_C 	C 	0.8193	0.0345	0.5416	-0.049
Mof_C 	C 	0.7269	0.0586	0.94175	-0.069
Mof_C 	C 	0.8229	0.5769	0.5311	0.342
Mof_C 	C 	0.8837	0.2127	0.34447	0.395
Mof_C 	C 	0.0617	0.1918	0.31759	-0.082
Mof_C 	C 	0.8061	0.1823	0.67839	-0.01
Mof_C 	C 	0.0139	0.815	0.7925	-0.095
Mof_C 	C 	0.4127	0.1518	0.8019	0.389
Mof_C 	C 	0.8548	0.5493	0.30163	-0.123
Mof_C 	C 	0.1451	0.1788	0.5534	0.076
Mof_C 	C 	0.9849	0.8059	0.31642	0.007
Mof_C 	C 	0.8324	0.753	0.79458	0.372
Mof_C 	C 	0.561	0.3951	0.5565	-0.214
Mof_C 	C 	0.8482	0.5873	0.3019	0.389
Mof_C 	C 	0.625	0.4794	0.7923	0.028
Mof_C 	C 	0.8158	0.8935	0.55403	0.045
Mof_C 	C 	0.3291	0.0892	0.40616	0.005
Mof_C 	C 	0.3364	0.0703	0.3726	0.011
Mof_C 	C 	0.8166	0.8537	0.5583	-0.053
Mof_C 	C 	0.4231	0.246	0.5311	0.342
Mof_C 	C 	0.8077	0.9621	0.77743	-0.056
Mof_C 	C 	0.4135	0.2029	0.1438	-0.07
Mof_C 	C 	0.918	0.3936	0.3111	0.006
Mof_C 	C 	0.0379	0.8456	0.77743	-0.056
Mof_C 	C 	0.1544	0.1923	0.77743	-0.056
Mof_C 	C 	0.1295	0.9436	0.80304	-0.005
Mof_C 	C 	0.4618	0.3213	0.5103	-0.013
Mof_C 	C 	0.8024	0.8297	0.31268	0.011
Mof_C 	C 	0.8107	0.9107	0.80246	-0.005
Mof_C 	C 	0.5102	0.1099	0.8056	0.008
Mof_C 	C 	0.7035	0.162	0.5291	-0.059
Mof_C 	C 	0.8099	0.1883	0.65709	-0.003
Mof_C 	C 	0.829	0.1596	0.68442	0.062
Mof_C 	C 	0.779	0.9576	0.0268	0.014
Mof_C 	C 	0.0555	0.8564	0.53613	-0.018
Mof_C 	C 	0.6138	0.1016	0.0156	-0.01
Mof_C 	C 	0.2248	0.1973	0.0481	0.391
Mof_C 	C 	0.7766	0.8608	0.5234	-0.084
Mof_C 	C 	0.4127	0.2609	0.3019	0.389
Mof_C 	C 	0.847	0.6522	0.73982	0.388
Mof_C 	C 	0.4891	0.1695	0.0444	-0.081
Mof_C 	C 	0.8305	0.3196	0.0444	-0.081
Mof_C 	C 	0.5155	0.3771	0.7856	-0.061
Mof_C 	C 	0.6787	0.1405	0.5103	-0.013
Mof_C 	C 	0.8368	0.6426	0.11714	-0.083
Mof_C 	C 	0.1301	0.1918	0.81759	-0.082
Mof_C 	C 	0.8563	0.7013	0.16713	-0.232
Mof_C 	C 	0.8372	0.4345	0.2776	-0.215
Mof_C 	C 	0.6808	0.1135	0.038	0.334
Mof_C 	C 	0.8901	0.4898	0.3056	0.008
Mof_C 	C 	0.8107	0.6796	0.45519	-0.053
Mof_C 	C 	0.4144	0.1904	0.1906	-0.065
Mof_C 	C 	0.802	0.1528	0.09588	0.384
Mof_C 	C 	0.103	0.2038	0.5365	0.01
Mof_C 	C 	0.8058	0.6426	0.61714	-0.083
Mof_C 	C 	0.9135	0.2388	0.42836	-0.003
Mof_C 	C 	0.8031	0.1228	0.93508	0.046
Mof_C 	C 	0.9414	0.6683	0.94175	-0.069
Mof_C 	C 	0.4585	0.2965	0.5291	-0.059
Mof_C 	C 	0.8096	0.5856	0.6906	-0.065
Mof_C 	C 	0.9108	0.6709	0.90616	0.005
Mof_C 	C 	0.8911	0.2165	0.49025	0.366
Mof_C 	C 	0.8984	0.5122	0.0156	-0.01
Mof_C 	C 	0.8472	0.198	0.59588	0.384
Mof_C 	C 	0.9716	0.202	0.28892	0.393
Mof_C 	C 	0.827	0.1592	0.14998	0.061
Mof_C 	C 	0.4878	0.3862	0.0156	-0.01
Mof_C 	C 	0.894	0.4211	0.5091	-0.071
Mof_C 	C 	0.8025	0.6777	0.39954	0.035
Mof_C 	C 	0.5789	0.4729	0.5091	-0.071
Mof_C 	C 	0.6358	0.5057	0.0081	-0.065
Mof_C 	C 	0.3204	0.1311	0.45519	-0.053
Mof_C 	C 	0.8177	0.1939	0.17839	-0.01
Mof_C 	C 	0.8865	0.5673	0.038	0.334
Mof_C 	C 	0.143	0.1796	0.28416	0.053
Mof_C 	C 	0.8535	0.6783	0.13054	-0.063
Mof_C 	C 	0.9667	0.1749	0.79689	-0.095
Mof_C 	C 	0.4144	0.224	0.6906	-0.065
Mof_C 	C 	0.2987	0.1437	0.66713	-0.232
Mof_C 	C 	0.0555	0.1991	0.03613	-0.018
Mof_C 	C 	0.2152	0.1807	0.5416	-0.049
Mof_C 	C 	0.798	0.7696	0.28892	0.393
Mof_C 	C 	0.6724	0.5091	0.7904	-0.018
Mof_C 	C 	0.776	0.1904	0.6906	-0.065
Mof_C 	C 	0.8467	0.1623	0.41797	-0.2
Mof_C 	C 	0.9414	0.2731	0.44175	-0.069
Mof_C 	C 	0.8077	0.8456	0.27743	-0.056
Mof_C 	C 	0.6836	0.5635	0.2945	0.377
Mof_C 	C 	0.5102	0.4003	0.3056	0.008
Mof_C 	C 	0.4618	0.1405	0.0103	-0.013
Mof_C 	C 	0.5271	0.4211	0.0091	-0.071
Mof_C 	C 	0.8302	0.0121	0.55652	-0.079
Mof_C 	C 	0.247	0.0794	0.79458	0.372
Mof_C 	C 	0.7269	0.6683	0.44175	-0.069
Mof_C 	C 	0.9725	0.7752	0.0481	0.391
Mof_C 	C 	0.6945	0.5493	0.80163	-0.123
Mof_C 	C 	0.8051	0.2105	0.6242	-0.008
Mof_C 	C 	0.7391	0.5873	0.8019	0.389
Mof_C 	C 	0.3574	0.1942	0.11714	-0.083
Mof_C 	C 	0.3508	0.198	0.09588	0.384
Mof_C 	C 	0.7847	0.8211	0.02148	-0.048
Mof_C 	C 	0.8482	0.2609	0.8019	0.389
Mof_C 	C 	0.3223	0.1975	0.89954	0.035
Mof_C 	C 	0.1392	0.9158	0.5234	-0.084
Mof_C 	C 	0.256	0.1702	0.5421	0.368
Mof_C 	C 	0.5235	0.3878	0.5237	-0.007
Mof_C 	C 	0.0777	0.1842	0.55403	0.045
Mof_C 	C 	0.8148	0.2176	0.21136	-0.016
Mof_C 	C 	0.9082	0.3782	0.8168	-0.08
Mof_C 	C 	0.1786	0.9576	0.5268	0.014
Mof_C 	C 	0.6365	0.1127	0.7971	-0.097
Mof_C 	C 	0.481	0.1205	0.534	-0.065
Mof_C 	C 	0.7971	0.5865	0.6438	-0.07
Mof_C 	C 	0.6787	0.5382	0.0103	-0.013
Mof_C 	C 	0.7258	0.0619	0.89269	-0.081
Mof_C 	C 	0.6229	0.1384	0.7856	-0.061
Mof_C 	C 	0.8873	0.5238	0.7971	-0.097
Mof_C 	C 	0.7835	0.1089	0.99025	0.366
Mof_C 	C 	0.8141	0.9717	0.31947	-0.075
Mof_C 	C 	0.1941	0.0151	0.81642	0.007
Mof_C 	C 	0.8467	0.6844	0.91797	-0.2
Mof_C 	C 	0.6804	0.5109	0.0444	-0.081
Mof_C 	C 	0.3197	0.1969	0.93508	0.046
Mof_C 	C 	0.5168	0.3766	0.0476	-0.073
Mof_C 	C 	0.7873	0.671	0.34447	0.395
Mof_C 	C 	0.4327	0.1135	0.538	0.334
Mof_C 	C 	0.1463	0.9629	0.5583	-0.053
Mof_C 	C 	0.7339	0.0703	0.8726	0.011
Mof_C 	C 	0.2248	0.0275	0.5481	0.391
Mof_C 	C 	0.1116	0.1879	0.78313	0.058
Mof_C 	C 	0.8248	0.1465	0.13054	-0.063
Mof_C 	C 	0.8052	0.153	0.73982	0.388
Mof_C 	C 	0.4403	0.3308	0.3149	0.01
Mof_C 	C 	0.185	0.9861	0.2925	-0.095
Mof_C 	C 	0.754	0.1771	0.5311	0.342
Mof_C 	C 	0.4891	0.3196	0.5444	-0.081
Mof_C 	C 	0.3296	0.2237	0.86598	-0.086
Mof_C 	C 	0.0174	0.8179	0.04413	-0.098
Mof_C 	C 	0.6218	0.0918	0.3168	-0.08
Mof_C 	C 	0.5641	0.1268	0.0238	-0
Mof_C 	C 	0.5534	0.1025	0.3021	-0.013
Mof_C 	C 	0.5655	0.1628	0.7776	-0.215
Mof_C 	C 	0.4135	0.2106	0.6438	-0.07
Mof_C 	C 	0.3296	0.1059	0.36598	-0.086
Mof_C 	C 	0.1703	0.1976	0.81268	0.011
Mof_C 	C 	0.4507	0.3055	0.30163	-0.123
Mof_C 	C 	0.838	0.2965	0.0291	-0.059
Mof_C 	C 	0.845	0.1437	0.16713	-0.232
Mof_C 	C 	0.8404	0.171	0.18442	0.062
Mof_C 	C 	0.103	0.8992	0.0365	0.01
Mof_C 	C 	0.8052	0.6522	0.23982	0.388
Mof_C 	C 	0.6945	0.1452	0.30163	-0.123
Mof_C 	C 	0.8045	0.644	0.21748	-0.072
Mof_C 	C 	0.5206	0.375	0.2923	0.028
Mof_C 	C 	0.4054	0.2105	0.1242	-0.008
Mof_C 	C 	0.3225	0.1331	0.37945	-0.048
Mof_C 	C 	0.0842	0.2234	0.5234	-0.084
Mof_C 	C 	0.9655	0.1807	0.0416	-0.049
Mof_C 	C 	0.1008	0.897	0.5365	0.01
Mof_C 	C 	0.8166	0.9629	0.0583	-0.053
Mof_C 	C 	0.8669	0.1894	0.37945	-0.048
Mof_C 	C 	0.9297	0.2661	0.3726	0.011
Mof_C 	C 	0.3478	0.153	0.23982	0.388
Mof_C 	C 	0.4507	0.1452	0.80163	-0.123
Mof_C 	C 	0.8367	0.3276	0.7904	-0.018
Mof_C 	C 	0.7346	0.067	0.96186	-0
Mof_C 	C 	0.8967	0.6732	0.96858	-0.077
Mof_C 	C 	0.5627	0.4359	0.0238	-0
Mof_C 	C 	0.6049	0.439	0.0565	-0.214
Mof_C 	C 	0.8535	0.1752	0.63054	-0.063
Mof_C 	C 	0.8367	0.5091	0.2904	-0.018
Mof_C 	C 	0.9725	0.1973	0.5481	0.391
Mof_C 	C 	0.0366	0.857	0.28416	0.053
Mof_C 	C 	0.8669	0.6775	0.87945	-0.048
Mof_C 	C 	0.0613	0.168	0.0676	-0.229
Mof_C 	C 	0.5207	0.3619	0.5418	0.063
Mof_C 	C 	0.0777	0.8935	0.05403	0.045
Mof_C 	C 	0.8941	0.6704	0.86598	-0.086
Mof_C 	C 	0.3784	0.1901	0.65709	-0.003
Mof_C 	C 	0.821	0.0151	0.31642	0.007
Mof_C 	C 	0.8563	0.155	0.66713	-0.232
Mof_C 	C 	0.6724	0.1633	0.2904	-0.018
Mof_C 	C 	0.6229	0.4845	0.2856	-0.061
Mof_C 	C 	0.8699	0.5057	0.5081	-0.065
Mof_C 	C 	0.8494	0.1707	0.20474	-0.068
Mof_C 	C 	0.779	0.8214	0.5268	0.014
Mof_C 	C 	0.8668	0.4461	0.7881	0.065
Mof_C 	C 	0.4909	0.1633	0.7904	-0.018
Mof_C 	C 	0.5539	0.4207	0.7881	0.065
Mof_C 	C 	0.8643	0.4765	0.5237	-0.007
Mof_C 	C 	0.8011	0.815	0.2925	-0.094
Mof_C 	C 	0.5168	0.1402	0.5476	-0.073
Mof_C 	C 	0.6395	0.1205	0.034	-0.065
Mof_C 	C 	0.1088	0.9261	0.76871	-0.222
Mof_C 	C 	0.7873	0.1163	0.84447	0.395
Mof_C 	C 	0.8298	0.0858	0.5421	0.368
Mof_C 	C 	0.8266	0.8204	0.78073	-0.054
Mof_C 	C 	0.3317	0.0586	0.44175	-0.069
Mof_C 	C 	0.7895	0.5946	0.6242	-0.008
Mof_C 	C 	0.858	0.4145	0.5442	0.05
Mof_C 	C 	0.1796	0.0062	0.78073	-0.054
Mof_C 	C 	0.8027	0.0275	0.0481	0.391
Mof_C 	C 	0.8377	0.1533	0.91797	-0.2
Mof_C 	C 	0.8212	0.8549	0.0534	0.076
Mof_C 	C 	0.6836	0.1201	0.7945	0.377
Mof_C 	C 	0.561	0.1659	0.0565	-0.214
Mof_C 	C 	0.8051	0.5946	0.1242	-0.008
Mof_C 	C 	0.8772	0.6803	0.93508	0.046
Mof_C 	C 	0.8107	0.9	0.30246	-0.005
Mof_C 	C 	0.3156	0.1623	0.91797	-0.2
Mof_C 	C 	0.9381	0.6639	0.89269	-0.081
Mof_C 	C 	0.9082	0.53	0.3168	-0.08
Mof_C 	C 	0.8204	0.857	0.78416	0.053
Mof_C 	C 	0.5973	0.1628	0.2776	-0.215
Mof_C 	C 	0.6122	0.1357	0.5237	-0.007
Mof_C 	C 	0.8795	0.519	0.034	-0.065
Mof_C 	C 	0.0366	0.1796	0.78416	0.053
Mof_C 	C 	0.8799	0.5635	0.7945	0.377
Mof_C 	C 	0.8117	0.1901	0.15709	-0.003
Mof_C 	C 	0.1295	0.1859	0.30304	-0.005
Mof_C 	C 	0.7847	0.9636	0.52148	-0.048
Mof_C 	C 	0.0283	0.1859	0.81947	-0.075
Mof_C 	C 	0.9716	0.7696	0.78892	0.393
Mof_C 	C 	0.4231	0.1771	0.0311	0.342
Mof_C 	C 	0.7346	0.6676	0.46186	-0
Mof_C 	C 	0.754	0.5769	0.0311	0.342
Mof_C 	C 	0.8251	0.7918	0.79689	-0.095
Mof_C 	C 	0.1065	0.9223	0.55403	0.045
Mof_C 	C 	0.8395	0.644	0.71748	-0.072
Mof_C 	C 	0.0337	0.8549	0.5534	0.075
Mof_C 	C 	0.0893	0.1893	0.30246	-0.005
Mof_C 	C 	0.7339	0.6636	0.3726	0.011
Mof_C 	C 	0.7612	0.6747	0.42836	-0.003
Mof_C 	C 	0.5997	0.4898	0.8056	0.008
Mof_C 	C 	0.7894	0.5865	0.1438	-0.07
Mof_C 	C 	0.8911	0.6746	0.99025	0.366
Mof_C 	C 	0.847	0.1948	0.23982	0.388
Mof_C 	C 	0.7601	0.6709	0.40616	0.005
Mof_C 	C 	0.8732	0.4373	0.0238	-0
Mof_C 	C 	0.4943	0.1301	0.0081	-0.065
Mof_C 	C 	0.3322	0.1592	0.64998	0.061
Mof_C 	C 	0.8061	0.6238	0.17839	-0.01
Mof_C 	C 	0.8975	0.4509	0.3021	-0.013
Mof_C 	C 	0.9381	0.2742	0.39269	-0.081
Mof_C 	C 	0.5793	0.4461	0.2881	0.065
Mof_C 	C 	0.6064	0.082	0.8111	0.006
Mof_C 	C 	0.3156	0.1533	0.41797	-0.2
Mof_C 	C 	0.4762	0.3635	0.7971	-0.097
Mof_C 	C 	0.8158	0.9223	0.05403	0.045
Mof_C 	C 	0.0617	0.8699	0.81759	-0.082
Mof_C 	C 	0.5627	0.0768	0.8136	-0.073
Mof_C 	C 	0.7765	0.1033	0.96858	-0.077
Mof_C 	C 	0.143	0.9634	0.78416	0.053
Mof_C 	C 	0.356	0.1955	0.71748	-0.072
Mof_C 	C 	0.3306	0.171	0.68442	0.062
Mof_C 	C 	0.1116	0.9237	0.28313	0.058
Mof_C 	C 	0.6381	0.1588	0.5418	0.063
Mof_C 	C 	0.7612	0.0865	0.92836	-0.003
Mof_C 	C 	0.1821	0.9826	0.54413	-0.098
Mof_C 	C 	0.6122	0.4765	0.0237	-0.007
Mof_C 	C 	0.8732	0.4359	0.5238	-0
Mof_C 	C 	0.918	0.5244	0.8111	0.006
Mof_C 	C 	0.5641	0.4373	0.5238	-0
Mof_C 	C 	0.8772	0.1969	0.43508	0.046
Mof_C 	C 	0.8025	0.1248	0.89954	0.035
Mof_C 	C 	0.8117	0.6216	0.65709	-0.003
Mof_C 	C 	0.5155	0.1384	0.2856	-0.061
Mof_C 	C 	0.8298	0.744	0.0421	0.368
Mof_C 	C 	0.6692	0.1095	0.3149	0.01
Mof_C 	C 	0.47	0.3782	0.3168	-0.08
Mof_C 	C 	0.0739	0.1827	0.76871	-0.222
Mof_C 	C 	0.7765	0.6732	0.46858	-0.077
Mof_C 	C 	0.7766	0.9158	0.0234	-0.084
Mof_C 	C 	0.8941	0.2237	0.36598	-0.086
Mof_C 	C 	0.5565	0.142	0.5442	0.05
Mof_C 	C 	0.1451	0.9663	0.0534	0.075
Mof_C 	C 	0.3306	0.1596	0.18442	0.062
Mof_C 	C 	0.2987	0.155	0.16713	-0.232
Mof_C 	C 	0.1392	0.2234	0.0234	-0.084
Mof_C 	C 	0.8395	0.1955	0.21748	-0.072
Mof_C 	C 	0.8173	0.8912	0.76871	-0.222
Mof_C 	C 	0.3225	0.1894	0.87945	-0.048
Mof_C 	C 	0.8045	0.1605	0.71748	-0.072
Mof_C 	C 	0.7258	0.6639	0.39269	-0.081
Mof_C 	C 	0.1819	0.0121	0.05652	-0.078
Mof_C 	C 	0.0273	0.1976	0.31268	0.011
Mof_C 	C 	0.3268	0.1033	0.46858	-0.077
Mof_C 	C 	0.3784	0.1883	0.15709	-0.003
Mof_C 	C 	0.8009	0.8564	0.03613	-0.018
Mof_C 	C 	0.8643	0.3878	0.0237	-0.007
Mof_C 	C 	0.9667	0.7918	0.29689	-0.095
Mof_C 	C 	0.1436	0.9445	0.03613	-0.018
Mof_C 	C 	0.5627	0.1268	0.5238	-0
Mof_C 	C 	0.1	0.1893	0.80246	-0.005
Mof_C 	C 	0.8412	0.4793	0.5418	0.063
Mof_C 	C 	0.3762	0.1939	0.67839	-0.01
Mof_C 	C 	0.8121	0.8884	0.28313	0.058
Mof_C 	C 	0.7763	0.1059	0.86598	-0.086
Mof_C 	C 	0.6234	0.4832	0.5476	-0.073
Mof_C 	C 	0.8595	0.3213	0.0103	-0.013
Mof_C 	C 	0.776	0.5856	0.1906	-0.065
Mof_C 	C 	0.0893	0.9	0.80246	-0.005
Mof_C 	C 	0.3197	0.1228	0.43508	0.046
Mof_C 	C 	0.8595	0.5382	0.5103	-0.013
Mof_C 	C 	0.838	0.5415	0.5291	-0.059
Mof_C 	C 	0.8106	0.6775	0.37945	-0.048
Mof_C 	C 	0.4403	0.1095	0.8149	0.01
Mof_C 	C 	0.829	0.6694	0.18442	0.062
Mof_C 	C 	0.4327	0.3192	0.038	0.334
Mof_C 	C 	0.9108	0.2399	0.40616	0.005
Mof_C 	C 	0.6049	0.1659	0.5565	-0.214
Mof_C 	C 	0.7954	0.0081	0.524	-0.021
Mof_C 	C 	0.3213	0.1506	0.20474	-0.068
Mof_C 	C 	0.8324	0.0794	0.29458	0.372
Mof_C 	C 	0.5141	0.0768	0.3136	-0.073
Mof_C 	C 	0.9938	0.1734	0.78073	-0.054
Mof_C 	C 	0.0379	0.1923	0.27743	-0.056
Mof_C 	C 	0.6138	0.5122	0.5156	-0.01
Mof_C 	C 	0.8096	0.224	0.1906	-0.065
Mof_C 	C 	0.2304	0.202	0.78892	0.393
Mof_C 	C 	0.5789	0.106	0.0091	-0.071
Mof_C 	C 	0.7035	0.5415	0.0291	-0.059
Mof_C 	C 	0.8865	0.3192	0.538	0.334
Mof_C 	C 	0.3762	0.1823	0.17839	-0.01
Mof_C 	C 	0.9849	0.179	0.81642	0.007
Mof_C 	C 	0.3291	0.2399	0.90616	0.005
Mof_C 	C 	0.3254	0.1089	0.49025	0.366
Mof_C 	C 	0.5235	0.1357	0.0237	-0.007
Mof_C 	C 	0.8141	0.8424	0.81947	-0.075
Mof_C 	C 	0.7763	0.6704	0.36598	-0.086
Mof_C 	C 	0.9135	0.6747	0.92836	-0.003
Mof_C 	C 	0.0564	0.8705	0.30304	-0.005
Mof_C 	C 	0.3217	0.1752	0.13054	-0.063
Mof_C 	C 	0.8173	0.9261	0.26871	-0.222
Mof_C 	C 	0.6804	0.1695	0.5444	-0.081
Mof_C 	C 	0.3361	0.2742	0.89269	-0.081
Mof_C 	C 	0.8266	0.0062	0.28073	-0.054
Mof_C 	C 	0.3204	0.1893	0.95519	-0.053
Mof_C 	C 	0.356	0.1605	0.21748	-0.072
Mof_C 	C 	0.8494	0.6787	0.70474	-0.068
Mof_C 	C 	0.4762	0.1127	0.2971	-0.097
Mof_C 	C 	0.8141	0.9436	0.30304	-0.005
Mof_C 	C 	0.832	0.8933	0.0676	-0.229
Mof_C 	C 	0.4909	0.3276	0.2904	-0.018
Mof_C 	C 	0.1789	0.9636	0.02148	-0.048
Mof_C 	C 	0.9938	0.8204	0.28073	-0.054
Mof_C 	C 	0.8372	0.4027	0.7776	-0.215
Mof_C 	C 	0.0613	0.8933	0.5676	-0.229
Mof_C 	C 	0.0371	0.8537	0.0583	-0.053
Mof_C 	C 	0.8082	0.9383	0.81759	-0.082
Mof_C 	C 	0.8984	0.3862	0.5156	-0.01
Mof_C 	C 	0.8368	0.1942	0.61714	-0.083
Mof_C 	C 	0.4756	0.082	0.3111	0.006
Mof_C 	C 	0.9879	0.8181	0.55652	-0.078
Mof_C 	C 	0.8967	0.2235	0.46858	-0.077
Mof_C 	C 	0.8699	0.3642	0.0081	-0.065
Mof_C 	C 	0.5565	0.4145	0.0442	0.05
Mof_C 	C 	0.2082	0.1749	0.29689	-0.095
Mof_C 	C 	0.3268	0.2235	0.96858	-0.077
Mof_C 	C 	0.4365	0.3164	0.7945	0.377
Mof_C 	C 	0.1786	0.221	0.0268	0.014
Mof_C 	C 	0.8027	0.7752	0.5481	0.391
Mof_C 	C 	0.9879	0.1698	0.05652	-0.079
Mof_C 	C 	0.9142	0.744	0.5421	0.368
Mof_C 	C 	0.8341	0.439	0.5565	-0.214
Mof_C 	C 	0.0364	0.8211	0.52148	-0.048
Mof_C 	C 	0.5491	0.1025	0.8021	-0.013
Mof_C 	C 	0.8148	0.5972	0.71136	-0.016
Mof_C 	C 	0.8752	0.6777	0.89954	0.035
Mof_C 	C 	0.7895	0.1949	0.1242	-0.008
Mof_C 	C 	0.8141	0.8705	0.80304	-0.005
Mof_C 	C 	0.185	0.1989	0.7925	-0.094
Mof_C 	C 	0.8009	0.9445	0.53613	-0.018
Mof_C 	C 	0.0371	0.1834	0.5583	-0.053
Mof_C 	C 	0.8106	0.1331	0.87945	-0.048
Mof_C 	C 	0.7894	0.2029	0.6438	-0.07
Mof_C 	C 	0.6234	0.1402	0.0476	-0.073
Mof_C 	C 	0.8099	0.6216	0.15709	-0.003
Mof_C 	C 	0.8548	0.3055	0.80163	-0.123
Mof_C 	C 	0.3324	0.067	0.46186	-0
Mof_C 	C 	0.47	0.0918	0.8168	-0.08
Mof_C 	C 	0.5973	0.4345	0.7776	-0.215
Mof_C 	C 	0.5534	0.4509	0.8021	-0.013
Mof_C 	C 	0.5539	0.1332	0.2881	0.065
Mof_C 	C 	0.1463	0.1834	0.0583	-0.053
Mof_C 	C 	0.0842	0.8608	0.0234	-0.084
Mof_C 	C 	0.3254	0.2165	0.99025	0.366
Mof_C 	C 	0.8177	0.6238	0.67839	-0.01
Mof_C 	C 	0.5855	0.142	0.0442	0.05
Mof_C 	C 	0.8341	0.3951	0.0565	-0.214
Mof_C 	C 	0.8799	0.3164	0.2945	0.377
Mof_C 	C 	0.9206	0.753	0.29458	0.372
Mof_C 	C 	0.329	0.1163	0.34447	0.395
Mof_C 	C 	0.933	0.6676	0.96186	-0
Mof_C 	C 	0.802	0.6492	0.59588	0.384
Mof_C 	C 	0.1941	0.179	0.31642	0.007
Mof_C 	C 	0.625	0.1456	0.2923	0.028
Mof_C 	C 	0.2152	0.0345	0.0416	-0.049
Mof_C 	C 	0.9142	0.1702	0.0421	0.368
Mof_C 	C 	0.0763	0.1879	0.28313	0.058
Mof_C 	C 	0.3508	0.1528	0.59588	0.384
Mof_C 	C 	0.9919	0.7873	0.524	-0.021
Mof_C 	C 	0.9655	0.7848	0.5416	-0.049
Mof_C 	C 	0.0174	0.1995	0.54413	-0.098
Mof_C 	C 	0.3478	0.1948	0.73982	0.388
Mof_C 	C 	0.3324	0.2654	0.96186	-0
Mof_C 	C 	0.7971	0.2106	0.1438	-0.07
Mof_C 	C 	0.832	0.9387	0.5676	-0.229
Mof_C 	C 	0.6358	0.1301	0.5081	-0.065
Mof_C 	C 	0.247	0.1676	0.29458	0.372
Mof_C 	C 	0.8204	0.9634	0.28416	0.053
Mof_C 	C 	0.4028	0.1852	0.21136	-0.016
Mof_C 	C 	0.1436	0.1991	0.53613	-0.018
Mof_C 	C 	0.0273	0.8297	0.81268	0.011
Mof_C 	C 	0.8472	0.6492	0.09588	0.384
Mof_C 	C 	0.933	0.2654	0.46186	-0
Mof_C 	C 	0.1067	0.9387	0.0676	-0.229
Mof_C 	C 	0.3322	0.173	0.14998	0.061
Mof_C 	C 	0.3361	0.0619	0.39269	-0.081
Mof_C 	C 	0.0139	0.1989	0.2925	-0.094
Mof_C 	C 	0.5997	0.1099	0.3056	0.008
Mof_C 	C 	0.4028	0.2176	0.71136	-0.016
Mof_C 	C 	0.0283	0.8424	0.31947	-0.076
Mof_C 	C 	0.7962	0.8992	0.5365	0.01
Mof_C 	C 	0.1703	0.9727	0.31268	0.011
Mof_C 	C 	0.6381	0.4793	0.0418	0.063
Mof_C 	C 	0.1301	0.9383	0.31759	-0.082
Mof_C 	C 	0.8873	0.3635	0.2971	-0.097
Mof_C 	C 	0.8598	0.4832	0.0476	-0.073
Mof_C 	C 	0.6395	0.519	0.534	-0.065
Mof_C 	C 	0.1576	0.9717	0.81947	-0.076
Mof_C 	C 	0.821	0.8059	0.81642	0.007
Mof_C 	C 	0.8905	0.3308	0.8149	0.01
Mof_C 	C 	0.0424	0.8214	0.0268	0.014
Mof_C 	C 	0.6218	0.53	0.8168	-0.08
Mof_C 	C 	0.4878	0.1016	0.5156	-0.01
Mof_C 	C 	0.6808	0.5673	0.538	0.334
Mof_C 	C 	0.8024	0.9727	0.81268	0.011
Mof_C 	C 	0.8212	0.9663	0.5534	0.076
Mof_C 	C 	0.4365	0.1201	0.2945	0.377
Mof_C 	C 	0.8975	0.4466	0.8021	-0.013
Mof_C 	C 	0.827	0.6678	0.64998	0.061
Mof_C 	C 	0.2127	0.0081	0.024	-0.021
Mof_C 	C 	0.8293	0.6787	0.20474	-0.068
Mof_C 	C 	0.798	0.0284	0.78892	0.393
Mof_C 	C 	0.858	0.4435	0.0442	0.05
Mof_C 	C 	0.1544	0.9621	0.27743	-0.056
Mof_C 	C 	0.8193	0.7848	0.0416	-0.049
Mof_C 	C 	0.8229	0.246	0.0311	0.342
Mof_C 	C 	0.3213	0.1707	0.70474	-0.068
Mof_C 	C 	0.5206	0.1456	0.7923	0.028
Mof_C 	C 	0.8031	0.6803	0.43508	0.046
Mof_C 	C 	0.7601	0.0892	0.90616	0.005
Mof_C 	C 	0.8305	0.5109	0.5444	-0.081
Mof_C 	C 	0.0337	0.1788	0.0534	0.076
Mof_C 	C 	0.1065	0.1842	0.05403	0.045
Mof_C 	C 	0.7835	0.6746	0.49025	0.366
Mof_C 	C 	0.9206	0.1676	0.79458	0.372
Mof_C 	C 	0.1067	0.168	0.5676	-0.229
Mof_C 	C 	0.8082	0.8699	0.31759	-0.082
Mof_C 	C 	0.0739	0.8912	0.26871	-0.222
Mof_C 	C 	0.8837	0.671	0.84447	0.395
Mof_C 	C 	0.8689	0.6796	0.95519	-0.053
Mof_C 	C 	0.1821	0.1995	0.04413	-0.098
Mof_C 	C 	0.4054	0.1949	0.6242	-0.008
Mof_C 	C 	0.8011	0.9861	0.7925	-0.094
Mof_C 	C 	0.2082	0.0333	0.79689	-0.095
Mof_C 	C 	0.3574	0.1632	0.61714	-0.083
Mof_C 	C 	0.3317	0.2731	0.94175	-0.069
Mof_C 	C 	0.1088	0.1827	0.26871	-0.222
Mof_C 	C 	0.8251	0.0333	0.29689	-0.095
Mof_C 	C 	0.6365	0.5238	0.2971	-0.097
Mof_C 	C 	0.8377	0.6844	0.41797	-0.2
Mof_C 	C 	0.4756	0.3936	0.8111	0.006
Mof_C 	C 	0.3364	0.2661	0.8726	0.011
Mof_C 	C 	0.8616	0.3771	0.2856	-0.061
Mof_C 	C 	0.8412	0.3619	0.0418	0.063
Mof_C 	C 	0.481	0.3605	0.034	-0.065
Mof_C 	C 	0.8121	0.9237	0.78313	0.058
Mof_C 	C 	0.8408	0.6678	0.14998	0.061
Mof_C 	C 	0.8689	0.1893	0.45519	-0.053
Mof_C 	C 	0.3223	0.1248	0.39954	0.035
Mof_C 	C 	0.3253	0.0865	0.42836	-0.003
Mof_C 	C 	0.0364	0.2153	0.02148	-0.048
Mof_C 	C 	0.894	0.4729	0.0091	-0.071
Mof_C 	C 	0.8293	0.1506	0.70474	-0.068
Mof_C 	C 	0.7824	0.5972	0.21136	-0.016
Mof_C 	C 	0.8598	0.3766	0.5476	-0.073
Mof_C 	C 	0.3253	0.2388	0.92836	-0.003
Mof_C 	C 	0.5271	0.106	0.5091	-0.071
Mof_C 	C 	0.8005	0.9826	0.04413	-0.098
Mof_C 	C 	0.2127	0.2046	0.524	-0.021
Mof_C 	C 	0.9919	0.2046	0.024	-0.021
Mof_C 	C 	0.1	0.9107	0.30246	-0.005
Mof_C 	C 	0.3217	0.1465	0.63054	-0.063
Mof_C 	C 	0.9297	0.6636	0.8726	0.011
Mof_C 	C 	0.1796	0.1734	0.28073	-0.054
Mof_C 	C 	0.8752	0.1975	0.39954	0.035
Mof_C 	C 	0.7824	0.1852	0.71136	-0.016
Mof_C 	C 	0.4585	0.162	0.0291	-0.059
Mof_C 	C 	0.8544	0.4794	0.2923	0.028
Mof_C 	C 	0.1789	0.2153	0.52148	-0.048
Mof_C 	C 	0.8302	0.8181	0.05652	-0.079
Mof_C 	C 	0.8058	0.1632	0.11714	-0.083
Mof_C 	C 	0.8616	0.4845	0.7856	-0.061
Mof_C 	C 	0.8901	0.4003	0.8056	0.008
Mof_C 	C 	0.6064	0.5244	0.3111	0.006
Mof_C 	C 	0.8005	0.8179	0.54413	-0.098
Mof_C 	C 	0.8668	0.4207	0.2881	0.065
Mof_C 	C 	0.5855	0.4435	0.5442	0.05
Mof_C 	C 	0.8544	0.375	0.7923	0.028
Mof_C 	C 	0.1576	0.1859	0.31947	-0.075
Mof_C 	C 	0.8404	0.6694	0.68442	0.062
Mof_C 	C 	0.5793	0.1332	0.7881	0.065
Mof_C 	C 	0.5655	0.4027	0.2776	-0.215
Mof_C 	C 	0.8248	0.6783	0.63054	-0.063
Mof_C 	C 	0.8795	0.3605	0.534	-0.065
Mof_C 	C 	0.5491	0.4466	0.3021	-0.013
Mof_C 	C 	0.7962	0.897	0.0365	0.01
Mof_O 	O 	0.707	0.1409	0.05423	-0.487
Mof_O 	O 	0.8217	0.6776	0.49531	-0.473
Mof_O 	O 	0.3264	0.2467	0.00168	-0.471
Mof_O 	O 	0.8995	0.1535	0.77805	-0.471
Mof_O 	O 	0.8652	0.2012	0.29199	-0.953
Mof_O 	O 	0.254	0.1535	0.27805	-0.471
Mof_O 	O 	0.9138	0.2433	0.3331	-0.485
Mof_O 	O 	0.9508	0.1805	0.56344	-0.503
Mof_O 	O 	0.7533	0.0797	0.00168	-0.471
Mof_O 	O 	0.8481	0.6707	0.83992	-0.498
Mof_O 	O 	0.7567	0.0862	0.8331	-0.485
Mof_O 	O 	0.7567	0.6705	0.3331	-0.485
Mof_O 	O 	0.7633	0.1828	0.2877	-0.472
Mof_O 	O 	0.3793	0.2374	0.31267	-0.505
Mof_O 	O 	0.8307	0.6136	0.08478	-0.511
Mof_O 	O 	0.8176	0.052	0.77319	-0.486
Mof_O 	O 	0.8209	0.7191	0.02726	-0.505
Mof_O 	O 	0.2809	0.1018	0.02726	-0.505
Mof_O 	O 	0.7988	0.1348	0.79199	-0.953
Mof_O 	O 	0.7892	0.7482	0.53421	-0.512
Mof_O 	O 	0.336	0.2012	0.79199	-0.953
Mof_O 	O 	0.8502	0.7435	0.05773	-0.473
Mof_O 	O 	0.3103	0.1294	0.59015	-0.507
Mof_O 	O 	0.3793	0.1419	0.81267	-0.505
Mof_O 	O 	0.8347	0.617	0.75078	-0.524
Mof_O 	O 	0.3293	0.1519	0.33992	-0.498
Mof_O 	O 	0.7823	0.1653	0.75078	-0.524
Mof_O 	O 	0.4339	0.1409	0.55423	-0.487
Mof_O 	O 	0.8265	0.6925	0.24535	-0.517
Mof_O 	O 	0.8719	0.2056	0.54278	-0.958
Mof_O 	O 	0.7732	0.1599	0.51985	-0.478
Mof_O 	O 	0.9138	0.6705	0.8331	-0.485
Mof_O 	O 	0.336	0.1348	0.29199	-0.953
Mof_O 	O 	0.254	0.1005	0.77805	-0.471
Mof_O 	O 	0.2726	0.1715	0.30932	-0.492
Mof_O 	O 	0.9044	0.3029	0.304	-0.512
Mof_O 	O 	0.6938	0.0927	0.02852	-0.509
Mof_O 	O 	0.8401	0.2268	0.01985	-0.478
Mof_O 	O 	0.8347	0.2177	0.25078	-0.524
Mof_O 	O 	0.2809	0.1791	0.52726	-0.505
Mof_O 	O 	0.7109	0.1481	0.7817	-0.516
Mof_O 	O 	0.8933	0.7435	0.55773	-0.473
Mof_O 	O 	0.8285	0.1011	0.30932	-0.492
Mof_O 	O 	0.7818	0.7411	0.30155	-0.526
Mof_O 	O 	0.8307	0.2171	0.58478	-0.511
Mof_O 	O 	0.2297	0.1805	0.06344	-0.503
Mof_O 	O 	0.8191	0.1294	0.09015	-0.507
Mof_O 	O 	0.8989	0.7274	0.30932	-0.492
Mof_O 	O 	0.8706	0.1809	0.59015	-0.507
Mof_O 	O 	0.802	0.5748	0.54706	-0.478
Mof_O 	O 	0.7988	0.664	0.29199	-0.953
Mof_O 	O 	0.8401	0.6133	0.51985	-0.478
Mof_O 	O 	0.2297	0.0492	0.56344	-0.503
Mof_O 	O 	0.3864	0.1693	0.58478	-0.511
Mof_O 	O 	0.7533	0.6736	0.50168	-0.471
Mof_O 	O 	0.8226	0.6707	0.33992	-0.498
Mof_O 	O 	0.8652	0.664	0.79199	-0.953
Mof_O 	O 	0.8217	0.1441	0.99531	-0.473
Mof_O 	O 	0.9508	0.7703	0.06344	-0.503
Mof_O 	O 	0.4372	0.2891	0.7817	-0.516
Mof_O 	O 	0.8209	0.1018	0.52726	-0.505
Mof_O 	O 	0.3989	0.0927	0.52852	-0.509
Mof_O 	O 	0.8591	0.293	0.55423	-0.487
Mof_O 	O 	0.2565	0.1498	0.55773	-0.473
Mof_O 	O 	0.9203	0.2467	0.50168	-0.471
Mof_O 	O 	0.8559	0.1783	0.49531	-0.473
Mof_O 	O 	0.7626	0.1419	0.31267	-0.505
Mof_O 	O 	0.7823	0.617	0.25078	-0.524
Mof_O 	O 	0.8265	0.134	0.74535	-0.517
Mof_O 	O 	0.3867	0.1599	0.01985	-0.478
Mof_O 	O 	0.3985	0.3029	0.804	-0.512
Mof_O 	O 	0.8933	0.1498	0.05773	-0.473
Mof_O 	O 	0.8995	0.746	0.27805	-0.471
Mof_O 	O 	0.7944	0.1281	0.04278	-0.958
Mof_O 	O 	0.8519	0.5628	0.7817	-0.516
Mof_O 	O 	0.2344	0.1824	0.77319	-0.486
Mof_O 	O 	0.8226	0.1519	0.83992	-0.498
Mof_O 	O 	0.4195	0.2367	0.2877	-0.472
Mof_O 	O 	0.959	0.7482	0.03421	-0.512
Mof_O 	O 	0.2344	0.052	0.27319	-0.486
Mof_O 	O 	0.8502	0.1067	0.55773	-0.473
Mof_O 	O 	0.8982	0.1791	0.02726	-0.505
Mof_O 	O 	0.8285	0.7274	0.80932	-0.492
Mof_O 	O 	0.8581	0.2374	0.81267	-0.505
Mof_O 	O 	0.7944	0.6663	0.54278	-0.958
Mof_O 	O 	0.4195	0.1828	0.7877	-0.472
Mof_O 	O 	0.9593	0.2182	0.30155	-0.526
Mof_O 	O 	0.4339	0.293	0.05423	-0.487
Mof_O 	O 	0.7732	0.6133	0.01985	-0.478
Mof_O 	O 	0.3295	0.0862	0.3331	-0.485
Mof_O 	O 	0.8195	0.0492	0.06344	-0.503
Mof_O 	O 	0.4252	0.198	0.04706	-0.478
Mof_O 	O 	0.7818	0.0407	0.80155	-0.526
Mof_O 	O 	0.8581	0.6207	0.31267	-0.505
Mof_O 	O 	0.3293	0.1774	0.83992	-0.498
Mof_O 	O 	0.383	0.1653	0.25078	-0.524
Mof_O 	O 	0.707	0.5661	0.55423	-0.487
Mof_O 	O 	0.8481	0.1774	0.33992	-0.498
Mof_O 	O 	0.8191	0.6897	0.59015	-0.507
Mof_O 	O 	0.2726	0.1011	0.80932	-0.492
Mof_O 	O 	0.3295	0.2433	0.8331	-0.485
Mof_O 	O 	0.7892	0.041	0.03421	-0.512
Mof_O 	O 	0.2565	0.1067	0.05773	-0.473
Mof_O 	O 	0.8519	0.2891	0.2817	-0.516
Mof_O 	O 	0.3224	0.1441	0.49531	-0.473
Mof_O 	O 	0.8172	0.2367	0.7877	-0.472
Mof_O 	O 	0.4252	0.2272	0.54706	-0.478
Mof_O 	O 	0.3075	0.1735	0.74535	-0.517
Mof_O 	O 	0.7626	0.6207	0.81267	-0.505
Mof_O 	O 	0.866	0.1735	0.24535	-0.517
Mof_O 	O 	0.6938	0.6011	0.52852	-0.509
Mof_O 	O 	0.8195	0.7703	0.56344	-0.503
Mof_O 	O 	0.6971	0.6015	0.304	-0.512
Mof_O 	O 	0.3867	0.2268	0.51985	-0.478
Mof_O 	O 	0.383	0.2177	0.75078	-0.524
Mof_O 	O 	0.2589	0.0407	0.30155	-0.526
Mof_O 	O 	0.7633	0.5805	0.7877	-0.472
Mof_O 	O 	0.8982	0.7191	0.52726	-0.505
Mof_O 	O 	0.9044	0.6015	0.804	-0.512
Mof_O 	O 	0.9203	0.6736	0.00168	-0.471
Mof_O 	O 	0.6971	0.0956	0.804	-0.512
Mof_O 	O 	0.8706	0.6897	0.09015	-0.507
Mof_O 	O 	0.7829	0.1693	0.08478	-0.511
Mof_O 	O 	0.2589	0.2182	0.80155	-0.526
Mof_O 	O 	0.7829	0.6136	0.58478	-0.511
Mof_O 	O 	0.2518	0.2108	0.03421	-0.512
Mof_O 	O 	0.2518	0.041	0.53421	-0.512
Mof_O 	O 	0.8559	0.6776	0.99531	-0.473
Mof_O 	O 	0.3103	0.1809	0.09015	-0.507
Mof_O 	O 	0.948	0.1824	0.27319	-0.486
Mof_O 	O 	0.7109	0.5628	0.2817	-0.516
Mof_O 	O 	0.948	0.7656	0.77319	-0.486
Mof_O 	O 	0.8176	0.7656	0.27319	-0.486
Mof_O 	O 	0.802	0.2272	0.04706	-0.478
Mof_O 	O 	0.3264	0.0797	0.50168	-0.471
Mof_O 	O 	0.8989	0.1715	0.80932	-0.492
Mof_O 	O 	0.3337	0.2056	0.04278	-0.958
Mof_O 	O 	0.9073	0.3062	0.52852	-0.509
Mof_O 	O 	0.866	0.6925	0.74535	-0.517
Mof_O 	O 	0.8465	0.746	0.77805	-0.471
Mof_O 	O 	0.3989	0.3062	0.02852	-0.509
Mof_O 	O 	0.8591	0.5661	0.05423	-0.487
Mof_O 	O 	0.3224	0.1783	0.99531	-0.473
Mof_O 	O 	0.959	0.2108	0.53421	-0.512
Mof_O 	O 	0.7728	0.198	0.54706	-0.478
Mof_O 	O 	0.8172	0.5805	0.2877	-0.472
Mof_O 	O 	0.3337	0.1281	0.54278	-0.958
Mof_O 	O 	0.3864	0.2171	0.08478	-0.511
Mof_O 	O 	0.4372	0.1481	0.2817	-0.516
Mof_O 	O 	0.9073	0.6011	0.02852	-0.509
Mof_O 	O 	0.3075	0.134	0.24535	-0.517
Mof_O 	O 	0.8719	0.6663	0.04278	-0.958
Mof_O 	O 	0.3985	0.0956	0.304	-0.512
Mof_O 	O 	0.7728	0.5748	0.04706	-0.478
Mof_O 	O 	0.9593	0.7411	0.80155	-0.526
Mof_O 	O 	0.8465	0.1005	0.27805	-0.471
Mof_Zn	Zn	0.66893	0.82717	0.68736	1.215
Mof_Zn	Zn	0.6077	0.83789	0.44313	1.207
Mof_Zn	Zn	0.16971	0.2868	0.72744	1.202
Mof_Zn	Zn	0.16368	0.33085	0.47741	1.218
Mof_Zn	Zn	0.22513	0.83007	0.22122	1.209
Mof_Zn	Zn	0.60494	0.83007	0.72122	1.209
Mof_Zn	Zn	0.22513	0.39506	0.72122	1.209
Mof_Zn	Zn	0.17564	0.28573	0.43723	1.2
Mof_Zn	Zn	0.71427	0.82436	0.93723	1.2
Mof_Zn	Zn	0.16211	0.76981	0.44313	1.207
Mof_Zn	Zn	0.66915	0.83632	0.97741	1.218
Mof_Zn	Zn	0.16717	0.33085	0.97741	1.218
Mof_Zn	Zn	0.66915	0.83283	0.47741	1.218
Mof_Zn	Zn	0.7132	0.83029	0.22744	1.202
Mof_Zn	Zn	0.23019	0.3923	0.44313	1.207
Mof_Zn	Zn	0.11709	0.2868	0.22744	1.202
Mof_Zn	Zn	0.16993	0.77487	0.72122	1.209
Mof_Zn	Zn	0.07895	0.33176	0.19649	1.188
Mof_Zn	Zn	0.17564	0.88991	0.93723	1.2
Mof_Zn	Zn	0.07069	0.74215	0.46789	1.17
Mof_Zn	Zn	0.66824	0.92105	0.69649	1.188
Mof_Zn	Zn	0.25785	0.32854	0.46789	1.17
Mof_Zn	Zn	0.25785	0.92931	0.96789	1.17
Mof_Zn	Zn	0.11009	0.28573	0.93723	1.2
Mof_Zn	Zn	0.11709	0.83029	0.72744	1.202
Mof_Zn	Zn	0.15824	0.33107	0.68736	1.215
Mof_Zn	Zn	0.11009	0.82436	0.43723	1.2
Mof_Zn	Zn	0.60494	0.77487	0.22122	1.209
Mof_Zn	Zn	0.7132	0.88291	0.72744	1.202
Mof_Zn	Zn	0.07895	0.74719	0.69649	1.188
Mof_Zn	Zn	0.17283	0.33107	0.18736	1.215
Mof_Zn	Zn	0.25281	0.92105	0.19649	1.188
Mof_Zn	Zn	0.6077	0.76981	0.94313	1.207
Mof_Zn	Zn	0.23019	0.83789	0.94313	1.207
Mof_Zn	Zn	0.66893	0.84176	0.18736	1.215
Mof_Zn	Zn	0.16993	0.39506	0.22122	1.209
Mof_Zn	Zn	0.66824	0.74719	0.19649	1.188
Mof_Zn	Zn	0.67146	0.74215	0.96789	1.17
Mof_Zn	Zn	0.16971	0.88291	0.22744	1.202
Mof_Zn	Zn	0.07069	0.32854	0.96789	1.17
Mof_Zn	Zn	0.17283	0.84176	0.68736	1.215
Mof_Zn	Zn	0.71427	0.88991	0.43723	1.2
Mof_Zn	Zn	0.16717	0.83632	0.47741	1.218
Mof_Zn	Zn	0.67146	0.92931	0.46789	1.17
Mof_Zn	Zn	0.25281	0.33176	0.69649	1.188
Mof_Zn	Zn	0.16211	0.3923	0.94313	1.207
Mof_Zn	Zn	0.15824	0.82717	0.18736	1.215
Mof_Zn	Zn	0.16368	0.83283	0.97741	1.218
Mof_H 	H 	0.1982	0.7547	0.8142	0.05
Mof_H 	H 	0.7972	0.7665	0.9823	0.028
Mof_H 	H 	0.9897	0.7989	0.6773	0.035
Mof_H 	H 	0.4343	0.9031	0.0034	0.053
Mof_H 	H 	0.1908	0.0402	0.6678	0.053
Mof_H 	H 	0.5594	0.8655	0.9998	0.04
Mof_H 	H 	0.5737	0.7717	0.2793	0.044
Mof_H 	H 	0.2891	0.948	0.1364	0.035
Mof_H 	H 	0.4873	0.6397	0.9408	0.067
Mof_H 	H 	0.2127	0.235	0.9857	0.049
Mof_H 	H 	0.4873	0.8476	0.4408	0.067
Mof_H 	H 	0.123	0.8482	0.8349	0.099
Mof_H 	H 	0.2383	0.1008	0.9879	0.067
Mof_H 	H 	0.2323	0.0537	0.4893	0.054
Mof_H 	H 	0.1503	0.5487	0.431	0.091
Mof_H 	H 	0.1533	0.8622	0.2906	0.07
Mof_H 	H 	0.186	0.0683	0.4204	0.098
Mof_H 	H 	0.7143	0.8485	0.5822	0.088
Mof_H 	H 	0.3047	0.4867	0.9437	0.071
Mof_H 	H 	0.502	0.881	0.0039	0.05
Mof_H 	H 	0.2011	0.1908	0.6773	0.035
Mof_H 	H 	0.3061	0.4406	0.9998	0.04
Mof_H 	H 	0.1984	0.5824	0.441	0.093
Mof_H 	H 	0.1342	0.8485	0.0822	0.088
Mof_H 	H 	0.2883	0.9516	0.0292	0.04
Mof_H 	H 	0.159	0.5159	0.2238	0.06
Mof_H 	H 	0.2127	0.9777	0.4857	0.049
Mof_H 	H 	0.0223	0.235	0.4857	0.049
Mof_H 	H 	0.0679	0.6048	0.1743	0.056
Mof_H 	H 	0.9074	0.0622	0.2392	0.098
Mof_H 	H 	0.1613	0.8446	0.0403	0.062
Mof_H 	H 	0.9317	0.814	0.9204	0.098
Mof_H 	H 	0.2094	0.0847	0.7399	0.101
Mof_H 	H 	0.8092	0.7989	0.1773	0.035
Mof_H 	H 	0.9598	0.1506	0.6678	0.053
Mof_H 	H 	0.1554	0.3167	0.0403	0.062
Mof_H 	H 	0.3952	0.9321	0.6743	0.056
Mof_H 	H 	0.9153	0.1247	0.7399	0.101
Mof_H 	H 	0.123	0.2748	0.3349	0.099
Mof_H 	H 	0.3984	0.8497	0.431	0.091
Mof_H 	H 	0.9707	0.1616	0.2357	0.064
Mof_H 	H 	0.2323	0.1786	0.9893	0.054
Mof_H 	H 	0.2335	0.2028	0.4823	0.028
Mof_H 	H 	0.0974	0.4134	0.6776	0.036
Mof_H 	H 	0.3025	0.3407	0.6029	0.058
Mof_H 	H 	0.1524	0.5127	0.9408	0.067
Mof_H 	H 	0.6821	0.839	0.125	0.061
Mof_H 	H 	0.0484	0.3367	0.0292	0.04
Mof_H 	H 	0.119	0.621	0.0039	0.05
Mof_H 	H 	0.0648	0.6155	0.6812	0.031
Mof_H 	H 	0.8384	0.8091	0.2357	0.064
Mof_H 	H 	0.7898	0.823	0.6728	0.038
Mof_H 	H 	0.2043	0.7741	0.3844	0.043
Mof_H 	H 	0.5381	0.623	0.9923	0.04
Mof_H 	H 	0.4864	0.9438	0.6771	0.054
Mof_H 	H 	0.5507	0.6155	0.1812	0.031
Mof_H 	H 	0.1569	0.839	0.625	0.061
Mof_H 	H 	0.8786	0.0679	0.6692	0.055
Mof_H 	H 	0.0648	0.4493	0.1812	0.031
Mof_H 	H 	0.0974	0.684	0.1776	0.036
Mof_H 	H 	0.177	0.9668	0.6728	0.038
Mof_H 	H 	0.4121	0.6077	0.7214	0.092
Mof_H 	H 	0.9772	0.8275	0.4296	0.06
Mof_H 	H 	0.1681	0.982	0.732	0.058
Mof_H 	H 	0.8753	0.7906	0.7399	0.101
Mof_H 	H 	0.1956	0.5879	0.7214	0.092
Mof_H 	H 	0.1539	0.5968	0.2361	0.092
Mof_H 	H 	0.4343	0.5312	0.5034	0.053
Mof_H 	H 	0.7089	0.8467	0.2906	0.07
Mof_H 	H 	0.379	0.498	0.0039	0.05
Mof_H 	H 	0.8139	0.982	0.232	0.058
Mof_H 	H 	0.316	0.9026	0.6776	0.036
Mof_H 	H 	0.9321	0.8107	0.6692	0.055
Mof_H 	H 	0.8992	0.7617	0.4879	0.067
Mof_H 	H 	0.8214	0.0537	0.9893	0.054
Mof_H 	H 	0.9074	0.8452	0.7392	0.098
Mof_H 	H 	0.3923	0.8044	0.7214	0.092
Mof_H 	H 	0.9598	0.8092	0.1678	0.053
Mof_H 	H 	0.5866	0.9026	0.1776	0.036
Mof_H 	H 	0.9772	0.1497	0.9296	0.06
Mof_H 	H 	0.2043	0.4302	0.8844	0.043
Mof_H 	H 	0.2347	0.4424	0.8524	0.052
Mof_H 	H 	0.8092	0.0103	0.6773	0.035
Mof_H 	H 	0.1503	0.6016	0.931	0.091
Mof_H 	H 	0.161	0.3179	0.625	0.061
Mof_H 	H 	0.1518	0.2748	0.8349	0.099
Mof_H 	H 	0.1569	0.1841	0.9317	0.071
Mof_H 	H 	0.3025	0.9618	0.1029	0.058
Mof_H 	H 	0.5022	0.6894	0.7185	0.045
Mof_H 	H 	0.182	0.6953	0.9437	0.071
Mof_H 	H 	0.1984	0.616	0.941	0.093
Mof_H 	H 	0.9378	0.8452	0.2392	0.098
Mof_H 	H 	0.052	0.7109	0.6364	0.035
Mof_H 	H 	0.1515	0.2857	0.0822	0.088
Mof_H 	H 	0.0382	0.6975	0.6029	0.058
Mof_H 	H 	0.5022	0.8128	0.2185	0.045
Mof_H 	H 	0.1547	0.3401	0.5815	0.086
Mof_H 	H 	0.1737	0.8894	0.8308	0.101
Mof_H 	H 	0.6599	0.8453	0.0815	0.086
Mof_H 	H 	0.7252	0.877	0.8349	0.099
Mof_H 	H 	0.159	0.6431	0.7238	0.06
Mof_H 	H 	0.4864	0.5426	0.1771	0.054
Mof_H 	H 	0.1518	0.877	0.3349	0.099
Mof_H 	H 	0.1909	0.0293	0.2357	0.064
Mof_H 	H 	0.1909	0.1616	0.7357	0.064
Mof_H 	H 	0.9109	0.0462	0.9292	0.1
Mof_H 	H 	0.3603	0.8476	0.9408	0.067
Mof_H 	H 	0.6633	0.7117	0.0292	0.04
Mof_H 	H 	0.1893	0.0679	0.1692	0.055
Mof_H 	H 	0.9378	0.0926	0.7392	0.098
Mof_H 	H 	0.2259	0.4302	0.3844	0.043
Mof_H 	H 	0.177	0.2102	0.1728	0.038
Mof_H 	H 	0.3106	0.4978	0.2185	0.045
Mof_H 	H 	0.8786	0.8107	0.1692	0.055
Mof_H 	H 	0.7972	0.0307	0.4823	0.028
Mof_H 	H 	0.0484	0.7117	0.5292	0.04
Mof_H 	H 	0.3106	0.8128	0.7185	0.045
Mof_H 	H 	0.0332	0.2102	0.6728	0.038
Mof_H 	H 	0.6833	0.8387	0.0403	0.062
Mof_H 	H 	0.9538	0.8647	0.9292	0.1
Mof_H 	H 	0.1271	0.8358	0.3734	0.062
Mof_H 	H 	0.765	0.9777	0.9857	0.049
Mof_H 	H 	0.5507	0.9352	0.6812	0.031
Mof_H 	H 	0.8823	0.0683	0.9204	0.098
Mof_H 	H 	0.161	0.8431	0.125	0.061
Mof_H 	H 	0.3061	0.8655	0.4998	0.04
Mof_H 	H 	0.5698	0.7957	0.3844	0.043
Mof_H 	H 	0.6833	0.8446	0.5403	0.062
Mof_H 	H 	0.8992	0.1375	0.9879	0.067
Mof_H 	H 	0.5565	0.8018	0.8142	0.05
Mof_H 	H 	0.8494	0.0402	0.1678	0.053
Mof_H 	H 	0.4574	0.5136	0.6771	0.054
Mof_H 	H 	0.7089	0.8622	0.7906	0.07
Mof_H 	H 	0.1548	0.0926	0.2392	0.098
Mof_H 	H 	0.2383	0.1375	0.4879	0.067
Mof_H 	H 	0.8494	0.8092	0.6678	0.053
Mof_H 	H 	0.8214	0.7677	0.4893	0.054
Mof_H 	H 	0.2453	0.4435	0.8142	0.05
Mof_H 	H 	0.6821	0.8431	0.625	0.061
Mof_H 	H 	0.5576	0.7923	0.8524	0.052
Mof_H 	H 	0.8503	0.0228	0.4296	0.06
Mof_H 	H 	0.1353	0.0462	0.4292	0.1
Mof_H 	H 	0.182	0.4867	0.4437	0.071
Mof_H 	H 	0.1554	0.8387	0.5403	0.062
Mof_H 	H 	0.6589	0.7109	0.1364	0.035
Mof_H 	H 	0.9463	0.1786	0.4893	0.054
Mof_H 	H 	0.0382	0.3407	0.1029	0.058
Mof_H 	H 	0.6593	0.6975	0.1029	0.058
Mof_H 	H 	0.2891	0.3411	0.6364	0.035
Mof_H 	H 	0.3845	0.9352	0.1812	0.031
Mof_H 	H 	0.0969	0.5312	0.0034	0.053
Mof_H 	H 	0.1956	0.6077	0.2214	0.092
Mof_H 	H 	0.1547	0.8146	0.0815	0.086
Mof_H 	H 	0.0344	0.6989	0.5627	0.054
Mof_H 	H 	0.7252	0.8482	0.3349	0.099
Mof_H 	H 	0.2347	0.7923	0.3524	0.052
Mof_H 	H 	0.5698	0.7741	0.8844	0.043
Mof_H 	H 	0.6645	0.9656	0.5627	0.054
Mof_H 	H 	0.2011	0.0103	0.1773	0.035
Mof_H 	H 	0.1681	0.1861	0.232	0.058
Mof_H 	H 	0.1642	0.2913	0.3734	0.062
Mof_H 	H 	0.8384	0.0293	0.7357	0.064
Mof_H 	H 	0.1725	0.0228	0.9296	0.06
Mof_H 	H 	0.8139	0.8319	0.732	0.058
Mof_H 	H 	0.8625	0.7617	0.9879	0.067
Mof_H 	H 	0.384	0.5824	0.941	0.093
Mof_H 	H 	0.1893	0.1214	0.6692	0.055
Mof_H 	H 	0.1548	0.0622	0.7392	0.098
Mof_H 	H 	0.4688	0.5657	0.0034	0.053
Mof_H 	H 	0.9317	0.1177	0.4204	0.098
Mof_H 	H 	0.7143	0.8658	0.0822	0.088
Mof_H 	H 	0.5737	0.802	0.7793	0.044
Mof_H 	H 	0.2335	0.0307	0.9823	0.028
Mof_H 	H 	0.7157	0.8263	0.8308	0.101
Mof_H 	H 	0.4841	0.841	0.7238	0.06
Mof_H 	H 	0.1854	0.3401	0.0815	0.086
Mof_H 	H 	0.8753	0.0847	0.2399	0.101
Mof_H 	H 	0.3984	0.5487	0.931	0.091
Mof_H 	H 	0.8823	0.814	0.4204	0.098
Mof_H 	H 	0.6633	0.9516	0.5292	0.04
Mof_H 	H 	0.1642	0.8729	0.8734	0.062
Mof_H 	H 	0.7087	0.8358	0.8734	0.062
Mof_H 	H 	0.8159	0.9728	0.9317	0.071
Mof_H 	H 	0.2077	0.7653	0.8524	0.052
Mof_H 	H 	0.4176	0.616	0.441	0.093
Mof_H 	H 	0.4574	0.9438	0.1771	0.054
Mof_H 	H 	0.3569	0.5159	0.7238	0.06
Mof_H 	H 	0.0272	0.1841	0.4317	0.071
Mof_H 	H 	0.1539	0.5571	0.7361	0.092
Mof_H 	H 	0.0562	0.5136	0.1771	0.054
Mof_H 	H 	0.9109	0.8647	0.4292	0.1
Mof_H 	H 	0.7898	0.9668	0.1728	0.038
Mof_H 	H 	0.1345	0.6939	0.9998	0.04
Mof_H 	H 	0.3952	0.4631	0.1743	0.056
Mof_H 	H 	0.4032	0.8461	0.7361	0.092
Mof_H 	H 	0.1353	0.0891	0.9292	0.1
Mof_H 	H 	0.1533	0.2911	0.7906	0.07
Mof_H 	H 	0.5866	0.684	0.6776	0.036
Mof_H 	H 	0.0969	0.5657	0.5034	0.053
Mof_H 	H 	0.4429	0.8461	0.2361	0.092
Mof_H 	H 	0.3845	0.4493	0.6812	0.031
Mof_H 	H 	0.1378	0.2911	0.2906	0.07
Mof_H 	H 	0.1524	0.6397	0.4408	0.067
Mof_H 	H 	0.5576	0.7653	0.3524	0.052
Mof_H 	H 	0.4513	0.8497	0.931	0.091
Mof_H 	H 	0.502	0.621	0.5039	0.05
Mof_H 	H 	0.9707	0.8091	0.7357	0.064
Mof_H 	H 	0.0679	0.4631	0.6743	0.056
Mof_H 	H 	0.9153	0.7906	0.2399	0.101
Mof_H 	H 	0.4121	0.8044	0.2214	0.092
Mof_H 	H 	0.1515	0.8658	0.5822	0.088
Mof_H 	H 	0.9693	0.7665	0.4823	0.028
Mof_H 	H 	0.0344	0.3355	0.0627	0.054
Mof_H 	H 	0.5369	0.9321	0.1743	0.056
Mof_H 	H 	0.5369	0.6048	0.6743	0.056
Mof_H 	H 	0.1613	0.3167	0.5403	0.062
Mof_H 	H 	0.2259	0.7957	0.8844	0.043
Mof_H 	H 	0.018	0.8319	0.232	0.058
Mof_H 	H 	0.8503	0.8275	0.9296	0.06
Mof_H 	H 	0.9897	0.1908	0.1773	0.035
Mof_H 	H 	0.1737	0.2843	0.3308	0.101
Mof_H 	H 	0.379	0.881	0.5039	0.05
Mof_H 	H 	0.0849	0.623	0.4923	0.04
Mof_H 	H 	0.377	0.9151	0.9923	0.04
Mof_H 	H 	0.052	0.3411	0.1364	0.035
Mof_H 	H 	0.4688	0.9031	0.5034	0.053
Mof_H 	H 	0.4176	0.8016	0.941	0.093
Mof_H 	H 	0.5381	0.9151	0.4923	0.04
Mof_H 	H 	0.316	0.4134	0.1776	0.036
Mof_H 	H 	0.765	0.7873	0.4857	0.049
Mof_H 	H 	0.1725	0.1497	0.4296	0.06
Mof_H 	H 	0.0332	0.823	0.1728	0.038
Mof_H 	H 	0.8159	0.8431	0.4317	0.071
Mof_H 	H 	0.0849	0.4619	0.9923	0.04
Mof_H 	H 	0.1342	0.2857	0.5822	0.088
Mof_H 	H 	0.6645	0.6989	0.0627	0.055
Mof_H 	H 	0.5133	0.6953	0.4437	0.071
Mof_H 	H 	0.4429	0.5968	0.7361	0.092
Mof_H 	H 	0.3011	0.3355	0.5627	0.055
Mof_H 	H 	0.2883	0.3367	0.5292	0.04
Mof_H 	H 	0.1569	0.9728	0.4317	0.071
Mof_H 	H 	0.1106	0.8263	0.3308	0.101
Mof_H 	H 	0.6593	0.9618	0.6029	0.058
Mof_H 	H 	0.6589	0.948	0.6364	0.035
Mof_H 	H 	0.4032	0.5571	0.2361	0.092
Mof_H 	H 	0.2453	0.8018	0.3142	0.05
Mof_H 	H 	0.2094	0.1247	0.2399	0.101
Mof_H 	H 	0.1872	0.6894	0.2185	0.045
Mof_H 	H 	0.9538	0.0891	0.4292	0.1
Mof_H 	H 	0.5565	0.7547	0.3142	0.05
Mof_H 	H 	0.384	0.8016	0.441	0.093
Mof_H 	H 	0.3923	0.5879	0.2214	0.092
Mof_H 	H 	0.1982	0.4435	0.3142	0.05
Mof_H 	H 	0.3047	0.818	0.4437	0.071
Mof_H 	H 	0.1106	0.2843	0.8308	0.101
Mof_H 	H 	0.2283	0.802	0.2793	0.044
Mof_H 	H 	0.4513	0.6016	0.431	0.091
Mof_H 	H 	0.1345	0.4406	0.4998	0.04
Mof_H 	H 	0.1271	0.2913	0.8734	0.062
Mof_H 	H 	0.9463	0.7677	0.9893	0.054
Mof_H 	H 	0.2077	0.4424	0.3524	0.052
Mof_H 	H 	0.3569	0.841	0.2238	0.06
Mof_H 	H 	0.186	0.1177	0.9204	0.098
Mof_H 	H 	0.3011	0.9656	0.0627	0.054
Mof_H 	H 	0.9693	0.2028	0.9823	0.028
Mof_H 	H 	0.1908	0.1506	0.1678	0.053
Mof_H 	H 	0.1378	0.8467	0.7906	0.07
Mof_H 	H 	0.0562	0.5426	0.6771	0.054
Mof_H 	H 	0.377	0.4619	0.4923	0.04
Mof_H 	H 	0.119	0.498	0.5039	0.05
Mof_H 	H 	0.1854	0.8453	0.5815	0.086
Mof_H 	H 	0.0223	0.7873	0.9857	0.049
Mof_H 	H 	0.7157	0.8894	0.3308	0.101
Mof_H 	H 	0.0272	0.8431	0.9317	0.071
Mof_H 	H 	0.2283	0.4263	0.7793	0.044
Mof_H 	H 	0.198	0.4263	0.2793	0.044
Mof_H 	H 	0.018	0.1861	0.732	0.058
Mof_H 	H 	0.5594	0.6939	0.4998	0.04
Mof_H 	H 	0.1872	0.4978	0.7185	0.045
Mof_H 	H 	0.1569	0.3179	0.125	0.061
Mof_H 	H 	0.4841	0.6431	0.2238	0.06
Mof_H 	H 	0.198	0.7717	0.7793	0.044
Mof_H 	H 	0.9321	0.1214	0.1692	0.055
Mof_H 	H 	0.7087	0.8729	0.3734	0.062
Mof_H 	H 	0.5133	0.818	0.9437	0.071
Mof_H 	H 	0.6599	0.8146	0.5815	0.086
Mof_H 	H 	0.3603	0.5127	0.4408	0.067
Mof_H 	H 	0.8625	0.1008	0.4879	0.067
Mof_C 	C 	0.6787	0.8494	0.79526	-0.068
Mof_C 	C 	0.202	0.2304	0.71108	0.393
Mof_C 	C 	0.1135	0.4327	0.962	0.334
Mof_C 	C 	0.6844	0.8467	0.58203	-0.2
Mof_C 	C 	0.3766	0.5168	0.4524	-0.073
Mof_C 	C 	0.3642	0.8699	0.4919	-0.065
Mof_C 	C 	0.0586	0.7269	0.55825	-0.069
Mof_C 	C 	0.1883	0.8099	0.84291	-0.003
Mof_C 	C 	0.2127	0.329	0.65553	0.395
Mof_C 	C 	0.1632	0.8058	0.38286	-0.083
Mof_C 	C 	0.1893	0.1	0.69754	-0.005
Mof_C 	C 	0.0703	0.7339	0.6274	0.011
Mof_C 	C 	0.1301	0.4943	0.4919	-0.065
Mof_C 	C 	0.0062	0.8266	0.21927	-0.054
Mof_C 	C 	0.1228	0.3197	0.06492	0.046
Mof_C 	C 	0.7873	0.9919	0.976	-0.021
Mof_C 	C 	0.8608	0.7766	0.9766	-0.084
Mof_C 	C 	0.9576	0.779	0.4732	0.014
Mof_C 	C 	0.375	0.5206	0.2077	0.028
Mof_C 	C 	0.8424	0.8141	0.68053	-0.075
Mof_C 	C 	0.4359	0.8732	0.9762	-0
Mof_C 	C 	0.6639	0.7258	0.10731	-0.081
Mof_C 	C 	0.1248	0.8025	0.60046	0.035
Mof_C 	C 	0.6522	0.847	0.76018	0.388
Mof_C 	C 	0.9387	0.832	0.9324	-0.229
Mof_C 	C 	0.1402	0.5168	0.9524	-0.073
Mof_C 	C 	0.6783	0.8248	0.86946	-0.063
Mof_C 	C 	0.6683	0.7269	0.05825	-0.069
Mof_C 	C 	0.1095	0.6692	0.1851	0.01
Mof_C 	C 	0.4373	0.8732	0.4762	-0
Mof_C 	C 	0.1707	0.3213	0.79526	-0.068
Mof_C 	C 	0.8059	0.9849	0.18358	0.007
Mof_C 	C 	0.3276	0.4909	0.2096	-0.018
Mof_C 	C 	0.8214	0.779	0.9732	0.014
Mof_C 	C 	0.179	0.9849	0.68358	0.007
Mof_C 	C 	0.2388	0.9135	0.07164	-0.003
Mof_C 	C 	0.1771	0.4231	0.4689	0.342
Mof_C 	C 	0.1402	0.6234	0.4524	-0.073
Mof_C 	C 	0.2742	0.9381	0.10731	-0.081
Mof_C 	C 	0.202	0.9716	0.21108	0.393
Mof_C 	C 	0.4003	0.5102	0.1944	0.008
Mof_C 	C 	0.6492	0.802	0.90412	0.384
Mof_C 	C 	0.2235	0.8967	0.03142	-0.077
Mof_C 	C 	0.6704	0.8941	0.63402	-0.086
Mof_C 	C 	0.1879	0.0763	0.21687	0.058
Mof_C 	C 	0.9436	0.8141	0.19696	-0.005
Mof_C 	C 	0.1939	0.3762	0.82161	-0.01
Mof_C 	C 	0.6426	0.8058	0.88286	-0.083
Mof_C 	C 	0.1518	0.7391	0.1981	0.389
Mof_C 	C 	0.519	0.8795	0.466	-0.065
Mof_C 	C 	0.1465	0.8248	0.36946	-0.063
Mof_C 	C 	0.1893	0.8689	0.04481	-0.053
Mof_C 	C 	0.5865	0.7971	0.8562	-0.07
Mof_C 	C 	0.3055	0.8548	0.69837	-0.123
Mof_C 	C 	0.1025	0.5491	0.6979	-0.013
Mof_C 	C 	0.1095	0.4403	0.6851	0.01
Mof_C 	C 	0.173	0.3322	0.35002	0.061
Mof_C 	C 	0.7752	0.8027	0.9519	0.391
Mof_C 	C 	0.5109	0.8305	0.9556	-0.081
Mof_C 	C 	0.8564	0.0555	0.96387	-0.018
Mof_C 	C 	0.5972	0.8148	0.78864	-0.016
Mof_C 	C 	0.1752	0.3217	0.36946	-0.063
Mof_C 	C 	0.8179	0.0174	0.45587	-0.098
Mof_C 	C 	0.7752	0.9725	0.4519	0.391
Mof_C 	C 	0.753	0.9206	0.20542	0.372
Mof_C 	C 	0.1955	0.8395	0.28252	-0.072
Mof_C 	C 	0.6844	0.8377	0.08203	-0.2
Mof_C 	C 	0.6238	0.8177	0.82161	-0.01
Mof_C 	C 	0.644	0.8395	0.78252	-0.072
Mof_C 	C 	0.1033	0.3268	0.03142	-0.077
Mof_C 	C 	0.6796	0.8107	0.04481	-0.053
Mof_C 	C 	0.1605	0.356	0.28252	-0.072
Mof_C 	C 	0.7013	0.845	0.83287	-0.232
Mof_C 	C 	0.6783	0.8535	0.36946	-0.063
Mof_C 	C 	0.6522	0.8052	0.26018	0.388
Mof_C 	C 	0.2234	0.1392	0.4766	-0.084
Mof_C 	C 	0.9636	0.7847	0.97852	-0.048
Mof_C 	C 	0.9629	0.8166	0.4417	-0.053
Mof_C 	C 	0.9	0.0893	0.69754	-0.005
Mof_C 	C 	0.1588	0.5207	0.4582	0.063
Mof_C 	C 	0.1942	0.8368	0.88286	-0.083
Mof_C 	C 	0.5415	0.7035	0.4709	-0.059
Mof_C 	C 	0.1099	0.5102	0.6944	0.008
Mof_C 	C 	0.6704	0.7763	0.13402	-0.086
Mof_C 	C 	0.3308	0.4403	0.1851	0.01
Mof_C 	C 	0.9261	0.8173	0.23129	-0.222
Mof_C 	C 	0.1405	0.4618	0.4897	-0.013
Mof_C 	C 	0.173	0.8408	0.85002	0.061
Mof_C 	C 	0.6694	0.8404	0.81558	0.062
Mof_C 	C 	0.0794	0.8324	0.20542	0.372
Mof_C 	C 	0.7873	0.7954	0.476	-0.021
Mof_C 	C 	0.3619	0.8412	0.4582	0.063
Mof_C 	C 	0.1605	0.8045	0.78252	-0.072
Mof_C 	C 	0.3878	0.8643	0.4763	-0.007
Mof_C 	C 	0.4832	0.6234	0.9524	-0.073
Mof_C 	C 	0.9621	0.8077	0.72257	-0.056
Mof_C 	C 	0.1807	0.9655	0.4584	-0.049
Mof_C 	C 	0.8884	0.8121	0.21687	0.058
Mof_C 	C 	0.221	0.0424	0.9732	0.014
Mof_C 	C 	0.8699	0.0617	0.68241	-0.082
Mof_C 	C 	0.4345	0.8372	0.2224	-0.215
Mof_C 	C 	0.1939	0.8177	0.32161	-0.01
Mof_C 	C 	0.9629	0.1463	0.9417	-0.053
Mof_C 	C 	0.5382	0.8595	0.9897	-0.013
Mof_C 	C 	0.3196	0.4891	0.9556	-0.081
Mof_C 	C 	0.8912	0.8173	0.73129	-0.222
Mof_C 	C 	0.168	0.1067	0.9324	-0.229
Mof_C 	C 	0.1033	0.7765	0.53142	-0.077
Mof_C 	C 	0.1452	0.4507	0.69837	-0.123
Mof_C 	C 	0.4003	0.8901	0.6944	0.008
Mof_C 	C 	0.1969	0.3197	0.56492	0.046
Mof_C 	C 	0.439	0.8341	0.9435	-0.214
Mof_C 	C 	0.1059	0.7763	0.63402	-0.086
Mof_C 	C 	0.1852	0.4028	0.28864	-0.016
Mof_C 	C 	0.4207	0.8668	0.2119	0.065
Mof_C 	C 	0.153	0.3478	0.26018	0.388
Mof_C 	C 	0.2654	0.3324	0.53814	-0
Mof_C 	C 	0.1676	0.247	0.20542	0.372
Mof_C 	C 	0.5635	0.6836	0.2055	0.377
Mof_C 	C 	0.9717	0.1576	0.68053	-0.076
Mof_C 	C 	0.1099	0.5997	0.1944	0.008
Mof_C 	C 	0.0892	0.3291	0.09384	0.005
Mof_C 	C 	0.0865	0.7612	0.57164	-0.003
Mof_C 	C 	0.0333	0.2082	0.70311	-0.095
Mof_C 	C 	0.155	0.2987	0.33287	-0.232
Mof_C 	C 	0.106	0.5789	0.4909	-0.071
Mof_C 	C 	0.1016	0.6138	0.4844	-0.01
Mof_C 	C 	0.1734	0.1796	0.21927	-0.054
Mof_C 	C 	0.1384	0.5155	0.2144	-0.061
Mof_C 	C 	0.1749	0.9667	0.70311	-0.095
Mof_C 	C 	0.1976	0.0273	0.18732	0.011
Mof_C 	C 	0.2029	0.7894	0.8562	-0.07
Mof_C 	C 	0.1827	0.0739	0.73129	-0.222
Mof_C 	C 	0.5597	0.6692	0.6851	0.01
Mof_C 	C 	0.198	0.8472	0.90412	0.384
Mof_C 	C 	0.5122	0.8984	0.4844	-0.01
Mof_C 	C 	0.1623	0.3156	0.58203	-0.2
Mof_C 	C 	0.4373	0.5141	0.6864	-0.073
Mof_C 	C 	0.1883	0.3784	0.34291	-0.003
Mof_C 	C 	0.4466	0.8975	0.6979	-0.013
Mof_C 	C 	0.1859	0.0564	0.69696	-0.005
Mof_C 	C 	0.1796	0.0366	0.71584	0.053
Mof_C 	C 	0.9158	0.1392	0.9766	-0.084
Mof_C 	C 	0.5873	0.8482	0.1981	0.389
Mof_C 	C 	0.9237	0.8121	0.71687	0.058
Mof_C 	C 	0.9717	0.8141	0.18053	-0.075
Mof_C 	C 	0.8912	0.0739	0.23129	-0.222
Mof_C 	C 	0.5109	0.6804	0.4556	-0.081
Mof_C 	C 	0.2742	0.3361	0.60731	-0.081
Mof_C 	C 	0.9621	0.1544	0.22257	-0.056
Mof_C 	C 	0.3782	0.47	0.1832	-0.08
Mof_C 	C 	0.9636	0.1789	0.47852	-0.048
Mof_C 	C 	0.2046	0.9919	0.476	-0.021
Mof_C 	C 	0.3308	0.8905	0.6851	0.01
Mof_C 	C 	0.5946	0.8051	0.3758	-0.008
Mof_C 	C 	0.9436	0.1295	0.69696	-0.005
Mof_C 	C 	0.5673	0.6808	0.962	0.334
Mof_C 	C 	0.1955	0.356	0.78252	-0.072
Mof_C 	C 	0.9727	0.8024	0.68732	0.011
Mof_C 	C 	0.1456	0.5206	0.7077	0.028
Mof_C 	C 	0.5972	0.7824	0.28864	-0.016
Mof_C 	C 	0.224	0.4144	0.8094	-0.065
Mof_C 	C 	0.4211	0.894	0.9909	-0.071
Mof_C 	C 	0.1228	0.8031	0.56492	0.046
Mof_C 	C 	0.8204	0.8266	0.71927	-0.054
Mof_C 	C 	0.744	0.9142	0.9579	0.368
Mof_C 	C 	0.5493	0.8548	0.19837	-0.123
Mof_C 	C 	0.1331	0.8106	0.62055	-0.048
Mof_C 	C 	0.0892	0.7601	0.59384	0.005
Mof_C 	C 	0.1859	0.0283	0.68053	-0.075
Mof_C 	C 	0.6796	0.8689	0.54481	-0.053
Mof_C 	C 	0.1991	0.1436	0.96387	-0.018
Mof_C 	C 	0.155	0.8563	0.83287	-0.232
Mof_C 	C 	0.4729	0.5789	0.9909	-0.071
Mof_C 	C 	0.1632	0.3574	0.88286	-0.083
Mof_C 	C 	0.1989	0.185	0.7075	-0.094
Mof_C 	C 	0.1894	0.8669	0.12055	-0.048
Mof_C 	C 	0.5415	0.838	0.9709	-0.059
Mof_C 	C 	0.3771	0.5155	0.7144	-0.061
Mof_C 	C 	0.5946	0.7895	0.8758	-0.008
Mof_C 	C 	0.1834	0.1463	0.4417	-0.053
Mof_C 	C 	0.519	0.6395	0.966	-0.065
Mof_C 	C 	0.0121	0.8302	0.94348	-0.079
Mof_C 	C 	0.4461	0.8668	0.7119	0.065
Mof_C 	C 	0.8935	0.8158	0.94597	0.045
Mof_C 	C 	0.1859	0.1295	0.19696	-0.005
Mof_C 	C 	0.0768	0.5627	0.6864	-0.073
Mof_C 	C 	0.6676	0.933	0.53814	-0
Mof_C 	C 	0.6492	0.8472	0.40412	0.384
Mof_C 	C 	0.8211	0.7847	0.47852	-0.048
Mof_C 	C 	0.9826	0.1821	0.95587	-0.098
Mof_C 	C 	0.0275	0.2248	0.9519	0.391
Mof_C 	C 	0.171	0.8404	0.31558	0.062
Mof_C 	C 	0.2038	0.1008	0.4635	0.01
Mof_C 	C 	0.2661	0.3364	0.6274	0.011
Mof_C 	C 	0.1465	0.3217	0.86946	-0.063
Mof_C 	C 	0.1894	0.3225	0.62055	-0.048
Mof_C 	C 	0.5493	0.6945	0.69837	-0.123
Mof_C 	C 	0.0586	0.3317	0.05825	-0.069
Mof_C 	C 	0.2176	0.8148	0.28864	-0.016
Mof_C 	C 	0.4765	0.6122	0.4763	-0.007
Mof_C 	C 	0.082	0.6064	0.6889	0.006
Mof_C 	C 	0.2609	0.8482	0.6981	0.389
Mof_C 	C 	0.375	0.8544	0.7077	0.028
Mof_C 	C 	0.5122	0.6138	0.9844	-0.01
Mof_C 	C 	0.5635	0.8799	0.7055	0.377
Mof_C 	C 	0.8608	0.0842	0.4766	-0.084
Mof_C 	C 	0.1823	0.8061	0.82161	-0.01
Mof_C 	C 	0.4845	0.6229	0.2144	-0.061
Mof_C 	C 	0.1089	0.7835	0.50975	0.366
Mof_C 	C 	0.0768	0.5141	0.1864	-0.073
Mof_C 	C 	0.1949	0.7895	0.3758	-0.008
Mof_C 	C 	0.3936	0.4756	0.6889	0.006
Mof_C 	C 	0.246	0.8229	0.4689	0.342
Mof_C 	C 	0.5091	0.8367	0.2096	-0.018
Mof_C 	C 	0.8705	0.8141	0.69696	-0.005
Mof_C 	C 	0.2654	0.933	0.03814	-0
Mof_C 	C 	0.9387	0.1067	0.4324	-0.229
Mof_C 	C 	0.9861	0.8011	0.7075	-0.094
Mof_C 	C 	0.1588	0.6381	0.9582	0.063
Mof_C 	C 	0.1268	0.5641	0.4762	-0
Mof_C 	C 	0.9445	0.8009	0.96387	-0.018
Mof_C 	C 	0.7696	0.9716	0.71108	0.393
Mof_C 	C 	0.6216	0.8099	0.34291	-0.003
Mof_C 	C 	0.9237	0.1116	0.21687	0.058
Mof_C 	C 	0.8933	0.832	0.4324	-0.229
Mof_C 	C 	0.0794	0.247	0.70542	0.372
Mof_C 	C 	0.1989	0.0139	0.2075	-0.094
Mof_C 	C 	0.9	0.8107	0.19754	-0.005
Mof_C 	C 	0.2106	0.7971	0.3562	-0.07
Mof_C 	C 	0.3771	0.8616	0.2144	-0.061
Mof_C 	C 	0.0345	0.2152	0.4584	-0.049
Mof_C 	C 	0.162	0.4585	0.4709	-0.059
Mof_C 	C 	0.1893	0.0893	0.19754	-0.005
Mof_C 	C 	0.1659	0.6049	0.9435	-0.214
Mof_C 	C 	0.1995	0.0174	0.95587	-0.098
Mof_C 	C 	0.1695	0.4891	0.4556	-0.081
Mof_C 	C 	0.1975	0.8752	0.10046	0.035
Mof_C 	C 	0.1311	0.8107	0.54481	-0.053
Mof_C 	C 	0.2153	0.1789	0.97852	-0.048
Mof_C 	C 	0.1301	0.6358	0.9919	-0.065
Mof_C 	C 	0.1633	0.6724	0.2096	-0.018
Mof_C 	C 	0.106	0.5271	0.9909	-0.071
Mof_C 	C 	0.2237	0.3296	0.63402	-0.086
Mof_C 	C 	0.4359	0.5627	0.4762	-0
Mof_C 	C 	0.1384	0.6229	0.7144	-0.061
Mof_C 	C 	0.8992	0.7962	0.9635	0.01
Mof_C 	C 	0.2235	0.3268	0.53142	-0.077
Mof_C 	C 	0.9261	0.1088	0.73129	-0.222
Mof_C 	C 	0.1807	0.2152	0.9584	-0.049
Mof_C 	C 	0.9223	0.8158	0.44597	0.045
Mof_C 	C 	0.0703	0.3364	0.1274	0.011
Mof_C 	C 	0.1827	0.1088	0.23129	-0.222
Mof_C 	C 	0.1596	0.3306	0.31558	0.062
Mof_C 	C 	0.8179	0.8005	0.95587	-0.098
Mof_C 	C 	0.4461	0.5793	0.2119	0.065
Mof_C 	C 	0.2038	0.103	0.9635	0.01
Mof_C 	C 	0.9634	0.8204	0.21584	0.053
Mof_C 	C 	0.9223	0.1065	0.94597	0.045
Mof_C 	C 	0.8424	0.0283	0.18053	-0.076
Mof_C 	C 	0.142	0.5855	0.4558	0.05
Mof_C 	C 	0.3619	0.5207	0.9582	0.063
Mof_C 	C 	0.6803	0.8031	0.06492	0.046
Mof_C 	C 	0.5382	0.6787	0.4897	-0.013
Mof_C 	C 	0.6639	0.9381	0.60731	-0.081
Mof_C 	C 	0.1879	0.1116	0.71687	0.058
Mof_C 	C 	0.6775	0.8669	0.62055	-0.048
Mof_C 	C 	0.6747	0.7612	0.07164	-0.003
Mof_C 	C 	0.8297	0.8024	0.18732	0.011
Mof_C 	C 	0.815	0.8011	0.2075	-0.094
Mof_C 	C 	0.1975	0.3223	0.60046	0.035
Mof_C 	C 	0.1734	0.9938	0.71927	-0.054
Mof_C 	C 	0.857	0.8204	0.71584	0.053
Mof_C 	C 	0.2176	0.4028	0.78864	-0.016
Mof_C 	C 	0.1973	0.9725	0.9519	0.391
Mof_C 	C 	0.2965	0.4585	0.9709	-0.059
Mof_C 	C 	0.1592	0.3322	0.85002	0.061
Mof_C 	C 	0.3196	0.8305	0.4556	-0.081
Mof_C 	C 	0.5856	0.8096	0.8094	-0.065
Mof_C 	C 	0.1405	0.6787	0.9897	-0.013
Mof_C 	C 	0.1528	0.3508	0.90412	0.384
Mof_C 	C 	0.067	0.7346	0.53814	-0
Mof_C 	C 	0.6238	0.8061	0.32161	-0.01
Mof_C 	C 	0.1201	0.4365	0.2055	0.377
Mof_C 	C 	0.9663	0.1451	0.4466	0.075
Mof_C 	C 	0.1796	0.143	0.21584	0.053
Mof_C 	C 	0.0858	0.8298	0.9579	0.368
Mof_C 	C 	0.1695	0.6804	0.9556	-0.081
Mof_C 	C 	0.8933	0.0613	0.9324	-0.229
Mof_C 	C 	0.1823	0.3762	0.32161	-0.01
Mof_C 	C 	0.1127	0.4762	0.2029	-0.097
Mof_C 	C 	0.2046	0.2127	0.976	-0.021
Mof_C 	C 	0.7848	0.9655	0.9584	-0.049
Mof_C 	C 	0.1506	0.3213	0.29526	-0.068
Mof_C 	C 	0.3192	0.8865	0.962	0.334
Mof_C 	C 	0.53	0.6218	0.6832	-0.08
Mof_C 	C 	0.4765	0.8643	0.9763	-0.007
Mof_C 	C 	0.5091	0.6724	0.7096	-0.018
Mof_C 	C 	0.1628	0.5973	0.2224	-0.215
Mof_C 	C 	0.3192	0.4327	0.462	0.334
Mof_C 	C 	0.4794	0.625	0.7077	0.028
Mof_C 	C 	0.3862	0.8984	0.9844	-0.01
Mof_C 	C 	0.4898	0.5997	0.6944	0.008
Mof_C 	C 	0.3635	0.8873	0.2029	-0.097
Mof_C 	C 	0.8181	0.8302	0.44348	-0.079
Mof_C 	C 	0.1331	0.3225	0.12055	-0.048
Mof_C 	C 	0.7918	0.9667	0.20311	-0.095
Mof_C 	C 	0.1248	0.3223	0.10046	0.035
Mof_C 	C 	0.168	0.0613	0.4324	-0.229
Mof_C 	C 	0.8059	0.821	0.68358	0.007
Mof_C 	C 	0.8181	0.9879	0.94348	-0.078
Mof_C 	C 	0.1949	0.4054	0.8758	-0.008
Mof_C 	C 	0.2029	0.4135	0.3562	-0.07
Mof_C 	C 	0.7918	0.8251	0.70311	-0.095
Mof_C 	C 	0.0918	0.6218	0.1832	-0.08
Mof_C 	C 	0.4373	0.9232	0.1864	-0.073
Mof_C 	C 	0.1969	0.8772	0.06492	0.046
Mof_C 	C 	0.6777	0.8752	0.60046	0.035
Mof_C 	C 	0.4509	0.5534	0.6979	-0.013
Mof_C 	C 	0.0345	0.8193	0.9584	-0.049
Mof_C 	C 	0.1268	0.5627	0.9762	-0
Mof_C 	C 	0.0062	0.1796	0.71927	-0.054
Mof_C 	C 	0.5244	0.6064	0.1889	0.006
Mof_C 	C 	0.5057	0.8699	0.9919	-0.065
Mof_C 	C 	0.1749	0.2082	0.20311	-0.095
Mof_C 	C 	0.0151	0.821	0.18358	0.007
Mof_C 	C 	0.1852	0.7824	0.78864	-0.016
Mof_C 	C 	0.3213	0.4618	0.9897	-0.013
Mof_C 	C 	0.4466	0.5491	0.1979	-0.013
Mof_C 	C 	0.1135	0.6808	0.462	0.334
Mof_C 	C 	0.1332	0.5793	0.7119	0.065
Mof_C 	C 	0.1893	0.3204	0.54481	-0.053
Mof_C 	C 	0.8935	0.0777	0.44597	0.045
Mof_C 	C 	0.2399	0.3291	0.59384	0.005
Mof_C 	C 	0.4845	0.8616	0.7144	-0.061
Mof_C 	C 	0.1918	0.1301	0.68241	-0.082
Mof_C 	C 	0.3605	0.481	0.466	-0.065
Mof_C 	C 	0.1506	0.8293	0.79526	-0.068
Mof_C 	C 	0.0151	0.1941	0.68358	0.007
Mof_C 	C 	0.4793	0.6381	0.4582	0.063
Mof_C 	C 	0.9158	0.7766	0.4766	-0.084
Mof_C 	C 	0.0619	0.3361	0.10731	-0.081
Mof_C 	C 	0.4345	0.5973	0.7224	-0.215
Mof_C 	C 	0.7696	0.798	0.21108	0.393
Mof_C 	C 	0.8549	0.8212	0.4466	0.076
Mof_C 	C 	0.1205	0.481	0.966	-0.065
Mof_C 	C 	0.9727	0.1703	0.18732	0.011
Mof_C 	C 	0.5769	0.8229	0.9689	0.342
Mof_C 	C 	0.8705	0.0564	0.19696	-0.005
Mof_C 	C 	0.1901	0.8117	0.34291	-0.003
Mof_C 	C 	0.5865	0.7894	0.3562	-0.07
Mof_C 	C 	0.9107	0.1	0.19754	-0.005
Mof_C 	C 	0.1788	0.1451	0.9466	0.076
Mof_C 	C 	0.0275	0.8027	0.4519	0.391
Mof_C 	C 	0.4729	0.894	0.4909	-0.071
Mof_C 	C 	0.4898	0.8901	0.1944	0.008
Mof_C 	C 	0.4859	0.9232	0.6864	-0.073
Mof_C 	C 	0.162	0.7035	0.9709	-0.059
Mof_C 	C 	0.5873	0.7391	0.6981	0.389
Mof_C 	C 	0.2731	0.9414	0.05825	-0.069
Mof_C 	C 	0.171	0.3306	0.81558	0.062
Mof_C 	C 	0.2661	0.9297	0.1274	0.011
Mof_C 	C 	0.6683	0.9414	0.55825	-0.069
Mof_C 	C 	0.1025	0.5534	0.1979	-0.013
Mof_C 	C 	0.1089	0.3254	0.00975	0.366
Mof_C 	C 	0.9383	0.1301	0.18241	-0.082
Mof_C 	C 	0.1859	0.1576	0.18053	-0.075
Mof_C 	C 	0.1456	0.625	0.2077	0.028
Mof_C 	C 	0.1592	0.827	0.35002	0.061
Mof_C 	C 	0.8699	0.8082	0.18241	-0.082
Mof_C 	C 	0.1518	0.4127	0.6981	0.389
Mof_C 	C 	0.4027	0.8372	0.7224	-0.215
Mof_C 	C 	0.7848	0.8193	0.4584	-0.049
Mof_C 	C 	0.1437	0.2987	0.83287	-0.232
Mof_C 	C 	0.3164	0.8799	0.2055	0.377
Mof_C 	C 	0.4435	0.5855	0.9558	0.05
Mof_C 	C 	0.1698	0.1819	0.94348	-0.079
Mof_C 	C 	0.1633	0.4909	0.7096	-0.018
Mof_C 	C 	0.1948	0.3478	0.76018	0.388
Mof_C 	C 	0.4794	0.8544	0.2077	0.028
Mof_C 	C 	0.153	0.8052	0.76018	0.388
Mof_C 	C 	0.4793	0.8412	0.9582	0.063
Mof_C 	C 	0.5769	0.754	0.4689	0.342
Mof_C 	C 	0.3951	0.561	0.9435	-0.214
Mof_C 	C 	0.4373	0.5641	0.9762	-0
Mof_C 	C 	0.5673	0.8865	0.462	0.334
Mof_C 	C 	0.2106	0.4135	0.8562	-0.07
Mof_C 	C 	0.644	0.8045	0.28252	-0.072
Mof_C 	C 	0.2153	0.0364	0.47852	-0.048
Mof_C 	C 	0.1976	0.1703	0.68732	0.011
Mof_C 	C 	0.1842	0.0777	0.94597	0.045
Mof_C 	C 	0.6787	0.8293	0.29526	-0.068
Mof_C 	C 	0.1904	0.776	0.8094	-0.065
Mof_C 	C 	0.6732	0.7765	0.03142	-0.077
Mof_C 	C 	0.857	0.0366	0.21584	0.053
Mof_C 	C 	0.8456	0.0379	0.72257	-0.056
Mof_C 	C 	0.5057	0.6358	0.4919	-0.065
Mof_C 	C 	0.1623	0.8467	0.08203	-0.2
Mof_C 	C 	0.1016	0.4878	0.9844	-0.01
Mof_C 	C 	0.6746	0.7835	0.00975	0.366
Mof_C 	C 	0.4211	0.5271	0.4909	-0.071
Mof_C 	C 	0.1698	0.9879	0.44348	-0.079
Mof_C 	C 	0.142	0.5565	0.9558	0.05
Mof_C 	C 	0.2165	0.3254	0.50975	0.366
Mof_C 	C 	0.1942	0.3574	0.38286	-0.083
Mof_C 	C 	0.2731	0.3317	0.55825	-0.069
Mof_C 	C 	0.8211	0.0364	0.97852	-0.048
Mof_C 	C 	0.3936	0.918	0.1889	0.006
Mof_C 	C 	0.1437	0.845	0.33287	-0.232
Mof_C 	C 	0.8549	0.0337	0.9466	0.075
Mof_C 	C 	0.3951	0.8341	0.4435	-0.214
Mof_C 	C 	0.2165	0.8911	0.00975	0.366
Mof_C 	C 	0.897	0.7962	0.4635	0.01
Mof_C 	C 	0.1752	0.8535	0.86946	-0.063
Mof_C 	C 	0.0284	0.798	0.71108	0.393
Mof_C 	C 	0.4832	0.8598	0.4524	-0.073
Mof_C 	C 	0.6709	0.7601	0.09384	0.005
Mof_C 	C 	0.067	0.3324	0.03814	-0
Mof_C 	C 	0.7013	0.8563	0.33287	-0.232
Mof_C 	C 	0.1702	0.256	0.9579	0.368
Mof_C 	C 	0.2388	0.3253	0.57164	-0.003
Mof_C 	C 	0.1332	0.5539	0.2119	0.065
Mof_C 	C 	0.1357	0.6122	0.9763	-0.007
Mof_C 	C 	0.1842	0.1065	0.44597	0.045
Mof_C 	C 	0.1311	0.3204	0.04481	-0.053
Mof_C 	C 	0.9861	0.185	0.2075	-0.095
Mof_C 	C 	0.3878	0.5235	0.9763	-0.007
Mof_C 	C 	0.221	0.1786	0.4732	0.014
Mof_C 	C 	0.3213	0.8595	0.4897	-0.013
Mof_C 	C 	0.1059	0.3296	0.13402	-0.086
Mof_C 	C 	0.3766	0.8598	0.9524	-0.073
Mof_C 	C 	0.2609	0.4127	0.1981	0.389
Mof_C 	C 	0.9826	0.8005	0.45587	-0.098
Mof_C 	C 	0.4859	0.5627	0.1864	-0.073
Mof_C 	C 	0.1357	0.5235	0.4763	-0.007
Mof_C 	C 	0.4207	0.5539	0.7119	0.065
Mof_C 	C 	0.6676	0.7346	0.03814	-0
Mof_C 	C 	0.3862	0.4878	0.4844	-0.01
Mof_C 	C 	0.179	0.1941	0.18358	0.007
Mof_C 	C 	0.671	0.8837	0.65553	0.395
Mof_C 	C 	0.6694	0.829	0.31558	0.062
Mof_C 	C 	0.1205	0.6395	0.466	-0.065
Mof_C 	C 	0.8214	0.0424	0.4732	0.014
Mof_C 	C 	0.4145	0.858	0.9558	0.05
Mof_C 	C 	0.1995	0.1821	0.45587	-0.098
Mof_C 	C 	0.3164	0.4365	0.7055	0.377
Mof_C 	C 	0.8992	0.103	0.4635	0.01
Mof_C 	C 	0.6709	0.9108	0.59384	0.005
Mof_C 	C 	0.1702	0.9142	0.4579	0.368
Mof_C 	C 	0.1991	0.0555	0.46387	-0.018
Mof_C 	C 	0.5238	0.6365	0.2029	-0.097
Mof_C 	C 	0.4027	0.5655	0.2224	-0.215
Mof_C 	C 	0.6746	0.8911	0.50975	0.366
Mof_C 	C 	0.3642	0.4943	0.9919	-0.065
Mof_C 	C 	0.4145	0.5565	0.4558	0.05
Mof_C 	C 	0.4435	0.858	0.4558	0.05
Mof_C 	C 	0.0918	0.47	0.6832	-0.08
Mof_C 	C 	0.0333	0.8251	0.20311	-0.095
Mof_C 	C 	0.6777	0.8025	0.10046	0.035
Mof_C 	C 	0.8204	0.9938	0.21927	-0.054
Mof_C 	C 	0.9576	0.1786	0.9732	0.014
Mof_C 	C 	0.2105	0.4054	0.3758	-0.008
Mof_C 	C 	0.1163	0.329	0.15553	0.395
Mof_C 	C 	0.8537	0.0371	0.4417	-0.053
Mof_C 	C 	0.9634	0.143	0.71584	0.053
Mof_C 	C 	0.5597	0.8905	0.1851	0.01
Mof_C 	C 	0.6747	0.9135	0.57164	-0.003
Mof_C 	C 	0.744	0.8298	0.4579	0.368
Mof_C 	C 	0.1628	0.5655	0.7224	-0.215
Mof_C 	C 	0.671	0.7873	0.15553	0.395
Mof_C 	C 	0.897	0.1008	0.9635	0.01
Mof_C 	C 	0.2234	0.0842	0.9766	-0.084
Mof_C 	C 	0.9663	0.8212	0.9466	0.076
Mof_C 	C 	0.6426	0.8368	0.38286	-0.083
Mof_C 	C 	0.2105	0.8051	0.8758	-0.008
Mof_C 	C 	0.5238	0.8873	0.7029	-0.097
Mof_C 	C 	0.1452	0.6945	0.19837	-0.123
Mof_C 	C 	0.0865	0.3253	0.07164	-0.003
Mof_C 	C 	0.53	0.9082	0.1832	-0.08
Mof_C 	C 	0.082	0.4756	0.1889	0.006
Mof_C 	C 	0.1973	0.2248	0.4519	0.391
Mof_C 	C 	0.1533	0.3156	0.08203	-0.2
Mof_C 	C 	0.246	0.4231	0.9689	0.342
Mof_C 	C 	0.1163	0.7873	0.65553	0.395
Mof_C 	C 	0.9107	0.8107	0.69754	-0.005
Mof_C 	C 	0.1771	0.754	0.9689	0.342
Mof_C 	C 	0.1528	0.802	0.40412	0.384
Mof_C 	C 	0.3055	0.4507	0.19837	-0.123
Mof_C 	C 	0.2237	0.8941	0.13402	-0.086
Mof_C 	C 	0.1533	0.8377	0.58203	-0.2
Mof_C 	C 	0.0284	0.2304	0.21108	0.393
Mof_C 	C 	0.815	0.0139	0.7075	-0.095
Mof_C 	C 	0.1923	0.1544	0.72257	-0.056
Mof_C 	C 	0.1676	0.9206	0.70542	0.372
Mof_C 	C 	0.4509	0.8975	0.1979	-0.013
Mof_C 	C 	0.1923	0.0379	0.22257	-0.056
Mof_C 	C 	0.8884	0.0763	0.71687	0.058
Mof_C 	C 	0.6803	0.8772	0.56492	0.046
Mof_C 	C 	0.8564	0.8009	0.46387	-0.018
Mof_C 	C 	0.6636	0.9297	0.6274	0.011
Mof_C 	C 	0.1201	0.6836	0.7055	0.377
Mof_C 	C 	0.6775	0.8106	0.12055	-0.048
Mof_C 	C 	0.1948	0.847	0.26018	0.388
Mof_C 	C 	0.1659	0.561	0.4435	-0.214
Mof_C 	C 	0.753	0.8324	0.70542	0.372
Mof_C 	C 	0.8297	0.0273	0.68732	0.011
Mof_C 	C 	0.1788	0.0337	0.4466	0.076
Mof_C 	C 	0.8456	0.8077	0.22257	-0.056
Mof_C 	C 	0.1834	0.0371	0.9417	-0.053
Mof_C 	C 	0.1596	0.829	0.81558	0.062
Mof_C 	C 	0.9383	0.8082	0.68241	-0.082
Mof_C 	C 	0.1707	0.8494	0.29526	-0.068
Mof_C 	C 	0.1901	0.3784	0.84291	-0.003
Mof_C 	C 	0.2399	0.9108	0.09384	0.005
Mof_C 	C 	0.0858	0.256	0.4579	0.368
Mof_C 	C 	0.0081	0.2127	0.476	-0.021
Mof_C 	C 	0.6216	0.8117	0.84291	-0.003
Mof_C 	C 	0.198	0.3508	0.40412	0.384
Mof_C 	C 	0.224	0.8096	0.3094	-0.065
Mof_C 	C 	0.3276	0.8367	0.7096	-0.018
Mof_C 	C 	0.6636	0.7339	0.1274	0.011
Mof_C 	C 	0.0081	0.7954	0.976	-0.021
Mof_C 	C 	0.6732	0.8967	0.53142	-0.077
Mof_C 	C 	0.2965	0.838	0.4709	-0.059
Mof_C 	C 	0.1904	0.4144	0.3094	-0.065
Mof_C 	C 	0.8537	0.8166	0.9417	-0.053
Mof_C 	C 	0.3635	0.4762	0.7029	-0.097
Mof_C 	C 	0.6678	0.8408	0.35002	0.061
Mof_C 	C 	0.9445	0.1436	0.46387	-0.018
Mof_C 	C 	0.0121	0.1819	0.44348	-0.078
Mof_C 	C 	0.3605	0.8795	0.966	-0.065
Mof_C 	C 	0.439	0.6049	0.4435	-0.214
Mof_C 	C 	0.0619	0.7258	0.60731	-0.081
Mof_C 	C 	0.1918	0.0617	0.18241	-0.082
Mof_C 	C 	0.3782	0.9082	0.6832	-0.08
Mof_C 	C 	0.5856	0.776	0.3094	-0.065
Mof_C 	C 	0.6678	0.827	0.85002	0.061
Mof_C 	C 	0.1127	0.6365	0.7029	-0.097
Mof_C 	C 	0.2127	0.8837	0.15553	0.395
Mof_C 	C 	0.5244	0.918	0.6889	0.006
Mof_O 	O 	0.2433	0.9138	0.1669	-0.485
Mof_O 	O 	0.2012	0.8652	0.20801	-0.953
Mof_O 	O 	0.1805	0.9508	0.93656	-0.503
Mof_O 	O 	0.2108	0.2518	0.46579	-0.512
Mof_O 	O 	0.6207	0.8581	0.18733	-0.505
Mof_O 	O 	0.1783	0.3224	0.50469	-0.473
Mof_O 	O 	0.2108	0.959	0.96579	-0.512
Mof_O 	O 	0.5805	0.8172	0.2123	-0.472
Mof_O 	O 	0.2374	0.8581	0.68733	-0.505
Mof_O 	O 	0.1791	0.8982	0.47274	-0.505
Mof_O 	O 	0.3029	0.3985	0.696	-0.512
Mof_O 	O 	0.6925	0.866	0.75465	-0.517
Mof_O 	O 	0.6776	0.8217	0.00469	-0.473
Mof_O 	O 	0.1735	0.866	0.25465	-0.517
Mof_O 	O 	0.1005	0.8465	0.22195	-0.471
Mof_O 	O 	0.7435	0.8933	0.94227	-0.473
Mof_O 	O 	0.1011	0.2726	0.69068	-0.492
Mof_O 	O 	0.1774	0.8481	0.16008	-0.498
Mof_O 	O 	0.6897	0.8191	0.90985	-0.507
Mof_O 	O 	0.1067	0.8502	0.94227	-0.473
Mof_O 	O 	0.1498	0.8933	0.44227	-0.473
Mof_O 	O 	0.6136	0.7829	0.91522	-0.511
Mof_O 	O 	0.6133	0.7732	0.48015	-0.478
Mof_O 	O 	0.746	0.8995	0.22195	-0.471
Mof_O 	O 	0.1067	0.2565	0.44227	-0.473
Mof_O 	O 	0.5628	0.8519	0.7183	-0.516
Mof_O 	O 	0.5661	0.707	0.94577	-0.487
Mof_O 	O 	0.198	0.7728	0.95294	-0.478
Mof_O 	O 	0.1535	0.254	0.22195	-0.471
Mof_O 	O 	0.1419	0.7626	0.18733	-0.505
Mof_O 	O 	0.2367	0.8172	0.7123	-0.472
Mof_O 	O 	0.5748	0.802	0.95294	-0.478
Mof_O 	O 	0.6207	0.7626	0.68733	-0.505
Mof_O 	O 	0.2891	0.4372	0.7183	-0.516
Mof_O 	O 	0.1791	0.2809	0.97274	-0.505
Mof_O 	O 	0.6015	0.6971	0.196	-0.512
Mof_O 	O 	0.6925	0.8265	0.25465	-0.517
Mof_O 	O 	0.7411	0.9593	0.69845	-0.526
Mof_O 	O 	0.2171	0.3864	0.41522	-0.511
Mof_O 	O 	0.0407	0.2589	0.19845	-0.526
Mof_O 	O 	0.293	0.8591	0.94577	-0.487
Mof_O 	O 	0.1599	0.3867	0.48015	-0.478
Mof_O 	O 	0.1824	0.2344	0.72681	-0.486
Mof_O 	O 	0.5628	0.7109	0.2183	-0.516
Mof_O 	O 	0.134	0.3075	0.25465	-0.517
Mof_O 	O 	0.7703	0.8195	0.93656	-0.503
Mof_O 	O 	0.1018	0.2809	0.47274	-0.505
Mof_O 	O 	0.7656	0.8176	0.22681	-0.486
Mof_O 	O 	0.6707	0.8481	0.66008	-0.498
Mof_O 	O 	0.617	0.8347	0.74922	-0.524
Mof_O 	O 	0.6705	0.9138	0.6669	-0.485
Mof_O 	O 	0.6011	0.6938	0.97148	-0.509
Mof_O 	O 	0.3062	0.9073	0.97148	-0.509
Mof_O 	O 	0.0492	0.8195	0.43656	-0.503
Mof_O 	O 	0.2268	0.8401	0.48015	-0.478
Mof_O 	O 	0.1281	0.7944	0.45722	-0.958
Mof_O 	O 	0.1774	0.3293	0.66008	-0.498
Mof_O 	O 	0.7656	0.948	0.72681	-0.486
Mof_O 	O 	0.1348	0.7988	0.70801	-0.953
Mof_O 	O 	0.0492	0.2297	0.93656	-0.503
Mof_O 	O 	0.6736	0.7533	0.99832	-0.471
Mof_O 	O 	0.1535	0.8995	0.72195	-0.471
Mof_O 	O 	0.1519	0.8226	0.66008	-0.498
Mof_O 	O 	0.198	0.4252	0.45294	-0.478
Mof_O 	O 	0.1783	0.8559	0.00469	-0.473
Mof_O 	O 	0.6663	0.7944	0.95722	-0.958
Mof_O 	O 	0.1809	0.3103	0.40985	-0.507
Mof_O 	O 	0.7274	0.8989	0.19068	-0.492
Mof_O 	O 	0.1653	0.7823	0.74922	-0.524
Mof_O 	O 	0.6133	0.8401	0.98015	-0.478
Mof_O 	O 	0.7482	0.959	0.46579	-0.512
Mof_O 	O 	0.2182	0.2589	0.69845	-0.526
Mof_O 	O 	0.1828	0.7633	0.2123	-0.472
Mof_O 	O 	0.052	0.8176	0.72681	-0.486
Mof_O 	O 	0.1294	0.3103	0.90985	-0.507
Mof_O 	O 	0.1011	0.8285	0.19068	-0.492
Mof_O 	O 	0.0797	0.3264	0.99832	-0.471
Mof_O 	O 	0.052	0.2344	0.22681	-0.486
Mof_O 	O 	0.134	0.8265	0.75465	-0.517
Mof_O 	O 	0.1824	0.948	0.22681	-0.486
Mof_O 	O 	0.0407	0.7818	0.69845	-0.526
Mof_O 	O 	0.1419	0.3793	0.68733	-0.505
Mof_O 	O 	0.5748	0.7728	0.45294	-0.478
Mof_O 	O 	0.6136	0.8307	0.41522	-0.511
Mof_O 	O 	0.1693	0.7829	0.41522	-0.511
Mof_O 	O 	0.1348	0.336	0.20801	-0.953
Mof_O 	O 	0.7274	0.8285	0.69068	-0.492
Mof_O 	O 	0.2177	0.383	0.74922	-0.524
Mof_O 	O 	0.1599	0.7732	0.98015	-0.478
Mof_O 	O 	0.2272	0.802	0.45294	-0.478
Mof_O 	O 	0.2171	0.8307	0.91522	-0.511
Mof_O 	O 	0.2272	0.4252	0.95294	-0.478
Mof_O 	O 	0.1441	0.3224	0.00469	-0.473
Mof_O 	O 	0.5805	0.7633	0.7123	-0.472
Mof_O 	O 	0.6897	0.8706	0.40985	-0.507
Mof_O 	O 	0.2467	0.9203	0.99832	-0.471
Mof_O 	O 	0.1481	0.4372	0.2183	-0.516
Mof_O 	O 	0.2891	0.8519	0.2183	-0.516
Mof_O 	O 	0.1294	0.8191	0.40985	-0.507
Mof_O 	O 	0.1653	0.383	0.24922	-0.524
Mof_O 	O 	0.2374	0.3793	0.18733	-0.505
Mof_O 	O 	0.664	0.7988	0.20801	-0.953
Mof_O 	O 	0.2268	0.3867	0.98015	-0.478
Mof_O 	O 	0.2177	0.8347	0.24922	-0.524
Mof_O 	O 	0.1805	0.2297	0.43656	-0.503
Mof_O 	O 	0.7191	0.8209	0.47274	-0.505
Mof_O 	O 	0.6015	0.9044	0.696	-0.512
Mof_O 	O 	0.041	0.2518	0.96579	-0.512
Mof_O 	O 	0.1693	0.3864	0.91522	-0.511
Mof_O 	O 	0.0862	0.3295	0.1669	-0.485
Mof_O 	O 	0.6011	0.9073	0.47148	-0.509
Mof_O 	O 	0.7703	0.9508	0.43656	-0.503
Mof_O 	O 	0.6663	0.8719	0.45722	-0.958
Mof_O 	O 	0.1005	0.254	0.72195	-0.471
Mof_O 	O 	0.1409	0.4339	0.94577	-0.487
Mof_O 	O 	0.2182	0.9593	0.19845	-0.526
Mof_O 	O 	0.2433	0.3295	0.6669	-0.485
Mof_O 	O 	0.2467	0.3264	0.49832	-0.471
Mof_O 	O 	0.7435	0.8502	0.44227	-0.473
Mof_O 	O 	0.1498	0.2565	0.94227	-0.473
Mof_O 	O 	0.6705	0.7567	0.1669	-0.485
Mof_O 	O 	0.6707	0.8226	0.16008	-0.498
Mof_O 	O 	0.2056	0.8719	0.95722	-0.958
Mof_O 	O 	0.7411	0.7818	0.19845	-0.526
Mof_O 	O 	0.6736	0.9203	0.49832	-0.471
Mof_O 	O 	0.1715	0.2726	0.19068	-0.492
Mof_O 	O 	0.3062	0.3989	0.47148	-0.509
Mof_O 	O 	0.293	0.4339	0.44577	-0.487
Mof_O 	O 	0.0797	0.7533	0.49832	-0.471
Mof_O 	O 	0.1409	0.707	0.44577	-0.487
Mof_O 	O 	0.1519	0.3293	0.16008	-0.498
Mof_O 	O 	0.041	0.7892	0.46579	-0.512
Mof_O 	O 	0.1018	0.8209	0.97274	-0.505
Mof_O 	O 	0.7191	0.8982	0.97274	-0.505
Mof_O 	O 	0.746	0.8465	0.72195	-0.471
Mof_O 	O 	0.1481	0.7109	0.7183	-0.516
Mof_O 	O 	0.2056	0.3337	0.45722	-0.958
Mof_O 	O 	0.3029	0.9044	0.196	-0.512
Mof_O 	O 	0.2012	0.336	0.70801	-0.953
Mof_O 	O 	0.1809	0.8706	0.90985	-0.507
Mof_O 	O 	0.1441	0.8217	0.50469	-0.473
Mof_O 	O 	0.0927	0.3989	0.97148	-0.509
Mof_O 	O 	0.6776	0.8559	0.50469	-0.473
Mof_O 	O 	0.664	0.8652	0.70801	-0.953
Mof_O 	O 	0.0956	0.3985	0.196	-0.512
Mof_O 	O 	0.0927	0.6938	0.47148	-0.509
Mof_O 	O 	0.1281	0.3337	0.95722	-0.958
Mof_O 	O 	0.2367	0.4195	0.2123	-0.472
Mof_O 	O 	0.1828	0.4195	0.7123	-0.472
Mof_O 	O 	0.0956	0.6971	0.696	-0.512
Mof_O 	O 	0.0862	0.7567	0.6669	-0.485
Mof_O 	O 	0.617	0.7823	0.24922	-0.524
Mof_O 	O 	0.7482	0.7892	0.96579	-0.512
Mof_O 	O 	0.5661	0.8591	0.44577	-0.487
Mof_O 	O 	0.1715	0.8989	0.69068	-0.492
Mof_O 	O 	0.1735	0.3075	0.75465	-0.517
_end
