data_functionalizedCrystal
_audit_creation_method	'EQeq! by Chris Wilmer'
_symmetry_space_group_name_H-M	'P1'
_symmetry_Int_Tables_number	1
_symmetry_cell_setting	triclinic
loop_
_symmetry_equiv_pos_as_xyz
  x,y,z
_cell_length_a	26.179
_cell_length_b	26.179
_cell_length_c	26.179
_cell_angle_alpha	90
_cell_angle_beta	90
_cell_angle_gamma	90
loop_
_atom_site_label
_atom_site_type_symbol
_atom_site_fract_x
_atom_site_fract_y
_atom_site_fract_z
_atom_site_charge
Mof_C 	C 	0.0095	0.3741	0.999	0.539
Mof_C 	C 	0.0034	0.3677	0.0546	-0.49
Mof_H 	H 	0.0323	0.3826	0.0722	0.174
Mof_H 	H 	0.9727	0.3851	0.0659	0.241
Mof_O 	O 	0.0141	0.4174	0.9791	-0.308
Mof_O 	O 	0.0087	0.3354	0.9703	-0.4
Mof_C 	C 	0.0095	0.8741	0.499	0.429
Mof_C 	C 	0.0034	0.8677	0.5546	-0.353
Mof_H 	H 	0.0323	0.8826	0.5722	0.144
Mof_H 	H 	0.9727	0.8851	0.5659	0.211
Mof_O 	O 	0.0141	0.9174	0.4791	-0.293
Mof_O 	O 	0.0087	0.8354	0.4703	-0.421
Mof_C 	C 	0.5095	0.3741	0.499	0.402
Mof_C 	C 	0.5034	0.3677	0.5546	-0.221
Mof_H 	H 	0.5323	0.3826	0.5722	0.109
Mof_H 	H 	0.4727	0.3851	0.5659	0.114
Mof_O 	O 	0.5141	0.4174	0.4791	-0.296
Mof_O 	O 	0.5087	0.3354	0.4703	-0.412
Mof_C 	C 	0.5095	0.8741	0.999	0.495
Mof_C 	C 	0.5034	0.8677	0.0546	-0.341
Mof_H 	H 	0.5323	0.8826	0.0722	0.142
Mof_H 	H 	0.4727	0.8851	0.0659	0.148
Mof_O 	O 	0.5141	0.9174	0.9791	-0.247
Mof_O 	O 	0.5087	0.8354	0.9703	-0.38
Mof_C 	C 	0.2405	0.3759	0.499	0.403
Mof_C 	C 	0.2466	0.3823	0.5546	-0.219
Mof_H 	H 	0.2177	0.3674	0.5722	0.109
Mof_H 	H 	0.2773	0.3649	0.5659	0.114
Mof_O 	O 	0.2359	0.3326	0.4791	-0.295
Mof_O 	O 	0.2413	0.4146	0.4703	-0.411
Mof_C 	C 	0.2405	0.8759	0.999	0.492
Mof_C 	C 	0.2466	0.8823	0.0546	-0.334
Mof_H 	H 	0.2177	0.8674	0.0722	0.138
Mof_H 	H 	0.2773	0.8649	0.0659	0.143
Mof_O 	O 	0.2359	0.8326	0.9791	-0.272
Mof_O 	O 	0.2413	0.9146	0.9703	-0.34
Mof_C 	C 	0.7405	0.3759	0.999	0.504
Mof_C 	C 	0.7466	0.3823	0.0546	-0.347
Mof_H 	H 	0.7177	0.3674	0.0722	0.14
Mof_H 	H 	0.7773	0.3649	0.0659	0.145
Mof_O 	O 	0.7359	0.3326	0.9791	-0.277
Mof_O 	O 	0.7413	0.4146	0.9703	-0.384
Mof_C 	C 	0.7405	0.8759	0.499	0.394
Mof_C 	C 	0.7466	0.8823	0.5546	-0.211
Mof_H 	H 	0.7177	0.8674	0.5722	0.108
Mof_H 	H 	0.7773	0.8649	0.5659	0.115
Mof_O 	O 	0.7359	0.8326	0.4791	-0.288
Mof_O 	O 	0.7413	0.9146	0.4703	-0.365
Mof_C 	C 	0.7405	0.8741	0.251	0.398
Mof_C 	C 	0.7466	0.8677	0.1954	-0.218
Mof_H 	H 	0.7177	0.8826	0.1778	0.112
Mof_H 	H 	0.7773	0.8851	0.1841	0.12
Mof_O 	O 	0.7359	0.9174	0.2709	-0.263
Mof_O 	O 	0.7413	0.8354	0.2797	-0.404
Mof_C 	C 	0.7405	0.3741	0.751	0.404
Mof_C 	C 	0.7466	0.3677	0.6954	-0.221
Mof_H 	H 	0.7177	0.3826	0.6778	0.11
Mof_H 	H 	0.7773	0.3851	0.6841	0.116
Mof_O 	O 	0.7359	0.4174	0.7709	-0.292
Mof_O 	O 	0.7413	0.3354	0.7797	-0.407
Mof_C 	C 	0.2405	0.8741	0.751	0.397
Mof_C 	C 	0.2466	0.8677	0.6954	-0.217
Mof_H 	H 	0.2177	0.8826	0.6778	0.112
Mof_H 	H 	0.2773	0.8851	0.6841	0.119
Mof_O 	O 	0.2359	0.9174	0.7709	-0.262
Mof_O 	O 	0.2413	0.8354	0.7797	-0.403
Mof_C 	C 	0.2405	0.3741	0.251	0.402
Mof_C 	C 	0.2466	0.3677	0.1954	-0.219
Mof_H 	H 	0.2177	0.3826	0.1778	0.109
Mof_H 	H 	0.2773	0.3851	0.1841	0.114
Mof_O 	O 	0.2359	0.4174	0.2709	-0.295
Mof_O 	O 	0.2413	0.3354	0.2797	-0.41
Mof_C 	C 	0.5095	0.8759	0.751	0.393
Mof_C 	C 	0.5034	0.8823	0.6954	-0.21
Mof_H 	H 	0.5323	0.8674	0.6778	0.108
Mof_H 	H 	0.4727	0.8649	0.6841	0.114
Mof_O 	O 	0.5141	0.8326	0.7709	-0.287
Mof_O 	O 	0.5087	0.9146	0.7797	-0.364
Mof_C 	C 	0.5095	0.3759	0.251	0.403
Mof_C 	C 	0.5034	0.3823	0.1954	-0.219
Mof_H 	H 	0.5323	0.3674	0.1778	0.109
Mof_H 	H 	0.4727	0.3649	0.1841	0.114
Mof_O 	O 	0.5141	0.3326	0.2709	-0.295
Mof_O 	O 	0.5087	0.4146	0.2797	-0.41
Mof_C 	C 	0.0095	0.8759	0.251	0.426
Mof_C 	C 	0.0034	0.8823	0.1954	-0.347
Mof_H 	H 	0.0323	0.8674	0.1778	0.141
Mof_H 	H 	0.9727	0.8649	0.1841	0.208
Mof_O 	O 	0.0141	0.8326	0.2709	-0.318
Mof_O 	O 	0.0087	0.9146	0.2797	-0.38
Mof_C 	C 	0.0095	0.3759	0.751	0.436
Mof_C 	C 	0.0034	0.3823	0.6954	-0.357
Mof_H 	H 	0.0323	0.3674	0.6778	0.143
Mof_H 	H 	0.9727	0.3649	0.6841	0.21
Mof_O 	O 	0.0141	0.3326	0.7709	-0.322
Mof_O 	O 	0.0087	0.4146	0.7797	-0.423
Mof_C 	C 	0.999	0.0095	0.3741	0.54
Mof_C 	C 	0.0546	0.0034	0.3677	-0.489
Mof_H 	H 	0.0722	0.0323	0.3826	0.175
Mof_H 	H 	0.0659	0.9727	0.3851	0.242
Mof_O 	O 	0.9791	0.0141	0.4174	-0.307
Mof_O 	O 	0.9703	0.0087	0.3354	-0.399
Mof_C 	C 	0.999	0.5095	0.8741	0.496
Mof_C 	C 	0.0546	0.5034	0.8677	-0.341
Mof_H 	H 	0.0722	0.5323	0.8826	0.142
Mof_H 	H 	0.0659	0.4727	0.8851	0.148
Mof_O 	O 	0.9791	0.5141	0.9174	-0.247
Mof_O 	O 	0.9703	0.5087	0.8354	-0.38
Mof_C 	C 	0.499	0.0095	0.8741	0.43
Mof_C 	C 	0.5546	0.0034	0.8677	-0.352
Mof_H 	H 	0.5722	0.0323	0.8826	0.145
Mof_H 	H 	0.5659	0.9727	0.8851	0.212
Mof_O 	O 	0.4791	0.0141	0.9174	-0.292
Mof_O 	O 	0.4703	0.0087	0.8354	-0.42
Mof_C 	C 	0.499	0.5095	0.3741	0.403
Mof_C 	C 	0.5546	0.5034	0.3677	-0.22
Mof_H 	H 	0.5722	0.5323	0.3826	0.11
Mof_H 	H 	0.5659	0.4727	0.3851	0.115
Mof_O 	O 	0.4791	0.5141	0.4174	-0.295
Mof_O 	O 	0.4703	0.5087	0.3354	-0.411
Mof_C 	C 	0.499	0.2405	0.3759	0.403
Mof_C 	C 	0.5546	0.2466	0.3823	-0.219
Mof_H 	H 	0.5722	0.2177	0.3674	0.109
Mof_H 	H 	0.5659	0.2773	0.3649	0.114
Mof_O 	O 	0.4791	0.2359	0.3326	-0.295
Mof_O 	O 	0.4703	0.2413	0.4146	-0.411
Mof_C 	C 	0.499	0.7405	0.8759	0.394
Mof_C 	C 	0.5546	0.7466	0.8823	-0.211
Mof_H 	H 	0.5722	0.7177	0.8674	0.108
Mof_H 	H 	0.5659	0.7773	0.8649	0.115
Mof_O 	O 	0.4791	0.7359	0.8326	-0.288
Mof_O 	O 	0.4703	0.7413	0.9146	-0.365
Mof_C 	C 	0.999	0.2405	0.8759	0.492
Mof_C 	C 	0.0546	0.2466	0.8823	-0.334
Mof_H 	H 	0.0722	0.2177	0.8674	0.138
Mof_H 	H 	0.0659	0.2773	0.8649	0.143
Mof_O 	O 	0.9791	0.2359	0.8326	-0.272
Mof_O 	O 	0.9703	0.2413	0.9146	-0.34
Mof_C 	C 	0.999	0.7405	0.3759	0.504
Mof_C 	C 	0.0546	0.7466	0.3823	-0.347
Mof_H 	H 	0.0722	0.7177	0.3674	0.14
Mof_H 	H 	0.0659	0.7773	0.3649	0.145
Mof_O 	O 	0.9791	0.7359	0.3326	-0.277
Mof_O 	O 	0.9703	0.7413	0.4146	-0.384
Mof_C 	C 	0.251	0.7405	0.8741	0.398
Mof_C 	C 	0.1954	0.7466	0.8677	-0.218
Mof_H 	H 	0.1778	0.7177	0.8826	0.112
Mof_H 	H 	0.1841	0.7773	0.8851	0.12
Mof_O 	O 	0.2709	0.7359	0.9174	-0.263
Mof_O 	O 	0.2797	0.7413	0.8354	-0.404
Mof_C 	C 	0.251	0.2405	0.3741	0.402
Mof_C 	C 	0.1954	0.2466	0.3677	-0.219
Mof_H 	H 	0.1778	0.2177	0.3826	0.109
Mof_H 	H 	0.1841	0.2773	0.3851	0.114
Mof_O 	O 	0.2709	0.2359	0.4174	-0.295
Mof_O 	O 	0.2797	0.2413	0.3354	-0.41
Mof_C 	C 	0.751	0.7405	0.3741	0.404
Mof_C 	C 	0.6954	0.7466	0.3677	-0.221
Mof_H 	H 	0.6778	0.7177	0.3826	0.11
Mof_H 	H 	0.6841	0.7773	0.3851	0.116
Mof_O 	O 	0.7709	0.7359	0.4174	-0.292
Mof_O 	O 	0.7797	0.7413	0.3354	-0.407
Mof_C 	C 	0.751	0.2405	0.8741	0.397
Mof_C 	C 	0.6954	0.2466	0.8677	-0.217
Mof_H 	H 	0.6778	0.2177	0.8826	0.112
Mof_H 	H 	0.6841	0.2773	0.8851	0.119
Mof_O 	O 	0.7709	0.2359	0.9174	-0.262
Mof_O 	O 	0.7797	0.2413	0.8354	-0.403
Mof_C 	C 	0.751	0.5095	0.8759	0.393
Mof_C 	C 	0.6954	0.5034	0.8823	-0.21
Mof_H 	H 	0.6778	0.5323	0.8674	0.108
Mof_H 	H 	0.6841	0.4727	0.8649	0.114
Mof_O 	O 	0.7709	0.5141	0.8326	-0.287
Mof_O 	O 	0.7797	0.5087	0.9146	-0.364
Mof_C 	C 	0.751	0.0095	0.3759	0.436
Mof_C 	C 	0.6954	0.0034	0.3823	-0.357
Mof_H 	H 	0.6778	0.0323	0.3674	0.143
Mof_H 	H 	0.6841	0.9727	0.3649	0.21
Mof_O 	O 	0.7709	0.0141	0.3326	-0.322
Mof_O 	O 	0.7797	0.0087	0.4146	-0.423
Mof_C 	C 	0.251	0.5095	0.3759	0.403
Mof_C 	C 	0.1954	0.5034	0.3823	-0.219
Mof_H 	H 	0.1778	0.5323	0.3674	0.109
Mof_H 	H 	0.1841	0.4727	0.3649	0.114
Mof_O 	O 	0.2709	0.5141	0.3326	-0.295
Mof_O 	O 	0.2797	0.5087	0.4146	-0.41
Mof_C 	C 	0.251	0.0095	0.8759	0.426
Mof_C 	C 	0.1954	0.0034	0.8823	-0.347
Mof_H 	H 	0.1778	0.0323	0.8674	0.141
Mof_H 	H 	0.1841	0.9727	0.8649	0.208
Mof_O 	O 	0.2709	0.0141	0.8326	-0.318
Mof_O 	O 	0.2797	0.0087	0.9146	-0.38
Mof_C 	C 	0.3741	0.999	0.0095	0.54
Mof_C 	C 	0.3677	0.0546	0.0034	-0.489
Mof_H 	H 	0.3826	0.0722	0.0323	0.175
Mof_H 	H 	0.3851	0.0659	0.9727	0.242
Mof_O 	O 	0.4174	0.9791	0.0141	-0.307
Mof_O 	O 	0.3354	0.9703	0.0087	-0.399
Mof_C 	C 	0.3741	0.499	0.5095	0.403
Mof_C 	C 	0.3677	0.5546	0.5034	-0.22
Mof_H 	H 	0.3826	0.5722	0.5323	0.11
Mof_H 	H 	0.3851	0.5659	0.4727	0.115
Mof_O 	O 	0.4174	0.4791	0.5141	-0.295
Mof_O 	O 	0.3354	0.4703	0.5087	-0.411
Mof_C 	C 	0.8741	0.999	0.5095	0.496
Mof_C 	C 	0.8677	0.0546	0.5034	-0.341
Mof_H 	H 	0.8826	0.0722	0.5323	0.142
Mof_H 	H 	0.8851	0.0659	0.4727	0.148
Mof_O 	O 	0.9174	0.9791	0.5141	-0.247
Mof_O 	O 	0.8354	0.9703	0.5087	-0.38
Mof_C 	C 	0.8741	0.499	0.0095	0.43
Mof_C 	C 	0.8677	0.5546	0.0034	-0.352
Mof_H 	H 	0.8826	0.5722	0.0323	0.145
Mof_H 	H 	0.8851	0.5659	0.9727	0.212
Mof_O 	O 	0.9174	0.4791	0.0141	-0.292
Mof_O 	O 	0.8354	0.4703	0.0087	-0.42
Mof_C 	C 	0.3759	0.499	0.2405	0.403
Mof_C 	C 	0.3823	0.5546	0.2466	-0.219
Mof_H 	H 	0.3674	0.5722	0.2177	0.109
Mof_H 	H 	0.3649	0.5659	0.2773	0.114
Mof_O 	O 	0.3326	0.4791	0.2359	-0.295
Mof_O 	O 	0.4146	0.4703	0.2413	-0.411
Mof_C 	C 	0.3759	0.999	0.7405	0.504
Mof_C 	C 	0.3823	0.0546	0.7466	-0.347
Mof_H 	H 	0.3674	0.0722	0.7177	0.14
Mof_H 	H 	0.3649	0.0659	0.7773	0.145
Mof_O 	O 	0.3326	0.9791	0.7359	-0.277
Mof_O 	O 	0.4146	0.9703	0.7413	-0.384
Mof_C 	C 	0.8759	0.499	0.7405	0.394
Mof_C 	C 	0.8823	0.5546	0.7466	-0.211
Mof_H 	H 	0.8674	0.5722	0.7177	0.108
Mof_H 	H 	0.8649	0.5659	0.7773	0.115
Mof_O 	O 	0.8326	0.4791	0.7359	-0.288
Mof_O 	O 	0.9146	0.4703	0.7413	-0.365
Mof_C 	C 	0.8759	0.999	0.2405	0.492
Mof_C 	C 	0.8823	0.0546	0.2466	-0.334
Mof_H 	H 	0.8674	0.0722	0.2177	0.138
Mof_H 	H 	0.8649	0.0659	0.2773	0.143
Mof_O 	O 	0.8326	0.9791	0.2359	-0.272
Mof_O 	O 	0.9146	0.9703	0.2413	-0.34
Mof_C 	C 	0.8741	0.251	0.7405	0.398
Mof_C 	C 	0.8677	0.1954	0.7466	-0.218
Mof_H 	H 	0.8826	0.1778	0.7177	0.112
Mof_H 	H 	0.8851	0.1841	0.7773	0.12
Mof_O 	O 	0.9174	0.2709	0.7359	-0.263
Mof_O 	O 	0.8354	0.2797	0.7413	-0.404
Mof_C 	C 	0.8741	0.751	0.2405	0.397
Mof_C 	C 	0.8677	0.6954	0.2466	-0.217
Mof_H 	H 	0.8826	0.6778	0.2177	0.112
Mof_H 	H 	0.8851	0.6841	0.2773	0.119
Mof_O 	O 	0.9174	0.7709	0.2359	-0.262
Mof_O 	O 	0.8354	0.7797	0.2413	-0.403
Mof_C 	C 	0.3741	0.251	0.2405	0.402
Mof_C 	C 	0.3677	0.1954	0.2466	-0.219
Mof_H 	H 	0.3826	0.1778	0.2177	0.109
Mof_H 	H 	0.3851	0.1841	0.2773	0.114
Mof_O 	O 	0.4174	0.2709	0.2359	-0.295
Mof_O 	O 	0.3354	0.2797	0.2413	-0.41
Mof_C 	C 	0.3741	0.751	0.7405	0.404
Mof_C 	C 	0.3677	0.6954	0.7466	-0.221
Mof_H 	H 	0.3826	0.6778	0.7177	0.11
Mof_H 	H 	0.3851	0.6841	0.7773	0.116
Mof_O 	O 	0.4174	0.7709	0.7359	-0.292
Mof_O 	O 	0.3354	0.7797	0.7413	-0.407
Mof_C 	C 	0.8759	0.751	0.5095	0.393
Mof_C 	C 	0.8823	0.6954	0.5034	-0.21
Mof_H 	H 	0.8674	0.6778	0.5323	0.108
Mof_H 	H 	0.8649	0.6841	0.4727	0.114
Mof_O 	O 	0.8326	0.7709	0.5141	-0.287
Mof_O 	O 	0.9146	0.7797	0.5087	-0.364
Mof_C 	C 	0.8759	0.251	0.0095	0.426
Mof_C 	C 	0.8823	0.1954	0.0034	-0.347
Mof_H 	H 	0.8674	0.1778	0.0323	0.141
Mof_H 	H 	0.8649	0.1841	0.9727	0.208
Mof_O 	O 	0.8326	0.2709	0.0141	-0.318
Mof_O 	O 	0.9146	0.2797	0.0087	-0.38
Mof_C 	C 	0.3759	0.751	0.0095	0.436
Mof_C 	C 	0.3823	0.6954	0.0034	-0.357
Mof_H 	H 	0.3674	0.6778	0.0323	0.143
Mof_H 	H 	0.3649	0.6841	0.9727	0.21
Mof_O 	O 	0.3326	0.7709	0.0141	-0.322
Mof_O 	O 	0.4146	0.7797	0.0087	-0.423
Mof_C 	C 	0.3759	0.251	0.5095	0.403
Mof_C 	C 	0.3823	0.1954	0.5034	-0.219
Mof_H 	H 	0.3674	0.1778	0.5323	0.109
Mof_H 	H 	0.3649	0.1841	0.4727	0.114
Mof_O 	O 	0.3326	0.2709	0.5141	-0.295
Mof_O 	O 	0.4146	0.2797	0.5087	-0.41
Mof_C 	C 	0.1241	0.2595	0.001	0.296
Mof_C 	C 	0.1177	0.2534	0.9454	-0.115
Mof_H 	H 	0.1326	0.2823	0.9278	0.091
Mof_H 	H 	0.1351	0.2227	0.9341	0.095
Mof_O 	O 	0.1674	0.2641	0.0209	-0.289
Mof_O 	O 	0.0854	0.2587	0.0297	-0.388
Mof_C 	C 	0.1241	0.7595	0.501	0.407
Mof_C 	C 	0.1177	0.7534	0.4454	-0.239
Mof_H 	H 	0.1326	0.7823	0.4278	0.117
Mof_H 	H 	0.1351	0.7227	0.4341	0.12
Mof_O 	O 	0.1674	0.7641	0.5209	-0.297
Mof_O 	O 	0.0854	0.7587	0.5297	-0.406
Mof_C 	C 	0.6241	0.2595	0.501	0.403
Mof_C 	C 	0.6177	0.2534	0.4454	-0.22
Mof_H 	H 	0.6326	0.2823	0.4278	0.11
Mof_H 	H 	0.6351	0.2227	0.4341	0.114
Mof_O 	O 	0.6674	0.2641	0.5209	-0.295
Mof_O 	O 	0.5854	0.2587	0.5297	-0.411
Mof_C 	C 	0.6241	0.7595	0.001	0.297
Mof_C 	C 	0.6177	0.7534	0.9454	-0.104
Mof_H 	H 	0.6326	0.7823	0.9278	0.087
Mof_H 	H 	0.6351	0.7227	0.9341	0.092
Mof_O 	O 	0.6674	0.7641	0.0209	-0.286
Mof_O 	O 	0.5854	0.7587	0.0297	-0.393
Mof_C 	C 	0.1259	0.4905	0.501	0.403
Mof_C 	C 	0.1323	0.4966	0.4454	-0.22
Mof_H 	H 	0.1174	0.4677	0.4278	0.108
Mof_H 	H 	0.1149	0.5273	0.4341	0.114
Mof_O 	O 	0.0826	0.4859	0.5209	-0.303
Mof_O 	O 	0.1646	0.4913	0.5297	-0.413
Mof_C 	C 	0.1259	0.9905	0.001	0.205
Mof_C 	C 	0.1323	0.9966	0.9454	0.196
Mof_H 	H 	0.1174	0.9677	0.9278	0.012
Mof_H 	H 	0.1149	0.0273	0.9341	-0.041
Mof_O 	O 	0.0826	0.9859	0.0209	-0.225
Mof_O 	O 	0.1646	0.9913	0.0297	-0.314
Mof_C 	C 	0.6259	0.4905	0.001	0.295
Mof_C 	C 	0.6323	0.4966	0.9454	-0.101
Mof_H 	H 	0.6174	0.4677	0.9278	0.086
Mof_H 	H 	0.6149	0.5273	0.9341	0.091
Mof_O 	O 	0.5826	0.4859	0.0209	-0.286
Mof_O 	O 	0.6646	0.4913	0.0297	-0.393
Mof_C 	C 	0.6259	0.9905	0.501	0.31
Mof_C 	C 	0.6323	0.9966	0.4454	0.085
Mof_H 	H 	0.6174	0.9677	0.4278	0.035
Mof_H 	H 	0.6149	0.0273	0.4341	-0.021
Mof_O 	O 	0.5826	0.9859	0.5209	-0.226
Mof_O 	O 	0.6646	0.9913	0.5297	-0.331
Mof_C 	C 	0.6241	0.9905	0.749	0.312
Mof_C 	C 	0.6177	0.9966	0.8046	0.076
Mof_H 	H 	0.6326	0.9677	0.8222	0.038
Mof_H 	H 	0.6351	0.0273	0.8159	-0.016
Mof_O 	O 	0.6674	0.9859	0.7291	-0.227
Mof_O 	O 	0.5854	0.9913	0.7203	-0.331
Mof_C 	C 	0.6241	0.4905	0.249	0.403
Mof_C 	C 	0.6177	0.4966	0.3046	-0.22
Mof_H 	H 	0.6326	0.4677	0.3222	0.11
Mof_H 	H 	0.6351	0.5273	0.3159	0.114
Mof_O 	O 	0.6674	0.4859	0.2291	-0.296
Mof_O 	O 	0.5854	0.4913	0.2203	-0.412
Mof_C 	C 	0.1241	0.9905	0.249	0.311
Mof_C 	C 	0.1177	0.9966	0.3046	0.073
Mof_H 	H 	0.1326	0.9677	0.3222	0.039
Mof_H 	H 	0.1351	0.0273	0.3159	-0.019
Mof_O 	O 	0.1674	0.9859	0.2291	-0.227
Mof_O 	O 	0.0854	0.9913	0.2203	-0.324
Mof_C 	C 	0.1241	0.4905	0.749	0.407
Mof_C 	C 	0.1177	0.4966	0.8046	-0.239
Mof_H 	H 	0.1326	0.4677	0.8222	0.117
Mof_H 	H 	0.1351	0.5273	0.8159	0.121
Mof_O 	O 	0.1674	0.4859	0.7291	-0.297
Mof_O 	O 	0.0854	0.4913	0.7203	-0.406
Mof_C 	C 	0.6259	0.7595	0.249	0.404
Mof_C 	C 	0.6323	0.7534	0.3046	-0.221
Mof_H 	H 	0.6174	0.7823	0.3222	0.111
Mof_H 	H 	0.6149	0.7227	0.3159	0.115
Mof_O 	O 	0.5826	0.7641	0.2291	-0.296
Mof_O 	O 	0.6646	0.7587	0.2203	-0.412
Mof_C 	C 	0.6259	0.2595	0.749	0.403
Mof_C 	C 	0.6323	0.2534	0.8046	-0.222
Mof_H 	H 	0.6174	0.2823	0.8222	0.112
Mof_H 	H 	0.6149	0.2227	0.8159	0.115
Mof_O 	O 	0.5826	0.2641	0.7291	-0.296
Mof_O 	O 	0.6646	0.2587	0.7203	-0.412
Mof_C 	C 	0.1259	0.7595	0.749	0.404
Mof_C 	C 	0.1323	0.7534	0.8046	-0.222
Mof_H 	H 	0.1174	0.7823	0.8222	0.112
Mof_H 	H 	0.1149	0.7227	0.8159	0.115
Mof_O 	O 	0.0826	0.7641	0.7291	-0.303
Mof_O 	O 	0.1646	0.7587	0.7203	-0.413
Mof_C 	C 	0.1259	0.2595	0.249	0.403
Mof_C 	C 	0.1323	0.2534	0.3046	-0.219
Mof_H 	H 	0.1174	0.2823	0.3222	0.108
Mof_H 	H 	0.1149	0.2227	0.3159	0.113
Mof_O 	O 	0.0826	0.2641	0.2291	-0.304
Mof_O 	O 	0.1646	0.2587	0.2203	-0.415
Mof_C 	C 	0.7595	0.249	0.6259	0.404
Mof_C 	C 	0.7534	0.3046	0.6323	-0.221
Mof_H 	H 	0.7823	0.3222	0.6174	0.111
Mof_H 	H 	0.7227	0.3159	0.6149	0.115
Mof_O 	O 	0.7641	0.2291	0.5826	-0.296
Mof_O 	O 	0.7587	0.2203	0.6646	-0.412
Mof_C 	C 	0.7595	0.749	0.1259	0.404
Mof_C 	C 	0.7534	0.8046	0.1323	-0.222
Mof_H 	H 	0.7823	0.8222	0.1174	0.112
Mof_H 	H 	0.7227	0.8159	0.1149	0.115
Mof_O 	O 	0.7641	0.7291	0.0826	-0.303
Mof_O 	O 	0.7587	0.7203	0.1646	-0.413
Mof_C 	C 	0.2595	0.249	0.1259	0.403
Mof_C 	C 	0.2534	0.3046	0.1323	-0.219
Mof_H 	H 	0.2823	0.3222	0.1174	0.108
Mof_H 	H 	0.2227	0.3159	0.1149	0.113
Mof_O 	O 	0.2641	0.2291	0.0826	-0.304
Mof_O 	O 	0.2587	0.2203	0.1646	-0.415
Mof_C 	C 	0.2595	0.749	0.6259	0.403
Mof_C 	C 	0.2534	0.8046	0.6323	-0.222
Mof_H 	H 	0.2823	0.8222	0.6174	0.112
Mof_H 	H 	0.2227	0.8159	0.6149	0.115
Mof_O 	O 	0.2641	0.7291	0.5826	-0.296
Mof_O 	O 	0.2587	0.7203	0.6646	-0.412
Mof_C 	C 	0.9905	0.749	0.6241	0.312
Mof_C 	C 	0.9966	0.8046	0.6177	0.076
Mof_H 	H 	0.9677	0.8222	0.6326	0.038
Mof_H 	H 	0.0273	0.8159	0.6351	-0.016
Mof_O 	O 	0.9859	0.7291	0.6674	-0.227
Mof_O 	O 	0.9913	0.7203	0.5854	-0.331
Mof_C 	C 	0.9905	0.249	0.1241	0.311
Mof_C 	C 	0.9966	0.3046	0.1177	0.073
Mof_H 	H 	0.9677	0.3222	0.1326	0.039
Mof_H 	H 	0.0273	0.3159	0.1351	-0.019
Mof_O 	O 	0.9859	0.2291	0.1674	-0.227
Mof_O 	O 	0.9913	0.2203	0.0854	-0.324
Mof_C 	C 	0.4905	0.749	0.1241	0.407
Mof_C 	C 	0.4966	0.8046	0.1177	-0.239
Mof_H 	H 	0.4677	0.8222	0.1326	0.117
Mof_H 	H 	0.5273	0.8159	0.1351	0.121
Mof_O 	O 	0.4859	0.7291	0.1674	-0.297
Mof_O 	O 	0.4913	0.7203	0.0854	-0.406
Mof_C 	C 	0.4905	0.249	0.6241	0.403
Mof_C 	C 	0.4966	0.3046	0.6177	-0.22
Mof_H 	H 	0.4677	0.3222	0.6326	0.11
Mof_H 	H 	0.5273	0.3159	0.6351	0.114
Mof_O 	O 	0.4859	0.2291	0.6674	-0.296
Mof_O 	O 	0.4913	0.2203	0.5854	-0.412
Mof_C 	C 	0.4905	0.501	0.1259	0.403
Mof_C 	C 	0.4966	0.4454	0.1323	-0.22
Mof_H 	H 	0.4677	0.4278	0.1174	0.108
Mof_H 	H 	0.5273	0.4341	0.1149	0.114
Mof_O 	O 	0.4859	0.5209	0.0826	-0.303
Mof_O 	O 	0.4913	0.5297	0.1646	-0.413
Mof_C 	C 	0.4905	0.001	0.6259	0.295
Mof_C 	C 	0.4966	0.9454	0.6323	-0.101
Mof_H 	H 	0.4677	0.9278	0.6174	0.086
Mof_H 	H 	0.5273	0.9341	0.6149	0.091
Mof_O 	O 	0.4859	0.0209	0.5826	-0.286
Mof_O 	O 	0.4913	0.0297	0.6646	-0.393
Mof_C 	C 	0.9905	0.501	0.6259	0.31
Mof_C 	C 	0.9966	0.4454	0.6323	0.085
Mof_H 	H 	0.9677	0.4278	0.6174	0.035
Mof_H 	H 	0.0273	0.4341	0.6149	-0.021
Mof_O 	O 	0.9859	0.5209	0.5826	-0.226
Mof_O 	O 	0.9913	0.5297	0.6646	-0.331
Mof_C 	C 	0.9905	0.001	0.1259	0.205
Mof_C 	C 	0.9966	0.9454	0.1323	0.196
Mof_H 	H 	0.9677	0.9278	0.1174	0.012
Mof_H 	H 	0.0273	0.9341	0.1149	-0.041
Mof_O 	O 	0.9859	0.0209	0.0826	-0.225
Mof_O 	O 	0.9913	0.0297	0.1646	-0.314
Mof_C 	C 	0.2595	0.001	0.1241	0.296
Mof_C 	C 	0.2534	0.9454	0.1177	-0.115
Mof_H 	H 	0.2823	0.9278	0.1326	0.091
Mof_H 	H 	0.2227	0.9341	0.1351	0.095
Mof_O 	O 	0.2641	0.0209	0.1674	-0.289
Mof_O 	O 	0.2587	0.0297	0.0854	-0.388
Mof_C 	C 	0.2595	0.501	0.6241	0.403
Mof_C 	C 	0.2534	0.4454	0.6177	-0.22
Mof_H 	H 	0.2823	0.4278	0.6326	0.11
Mof_H 	H 	0.2227	0.4341	0.6351	0.114
Mof_O 	O 	0.2641	0.5209	0.6674	-0.295
Mof_O 	O 	0.2587	0.5297	0.5854	-0.411
Mof_C 	C 	0.7595	0.001	0.6241	0.297
Mof_C 	C 	0.7534	0.9454	0.6177	-0.104
Mof_H 	H 	0.7823	0.9278	0.6326	0.087
Mof_H 	H 	0.7227	0.9341	0.6351	0.092
Mof_O 	O 	0.7641	0.0209	0.6674	-0.286
Mof_O 	O 	0.7587	0.0297	0.5854	-0.393
Mof_C 	C 	0.7595	0.501	0.1241	0.407
Mof_C 	C 	0.7534	0.4454	0.1177	-0.239
Mof_H 	H 	0.7823	0.4278	0.1326	0.117
Mof_H 	H 	0.7227	0.4341	0.1351	0.12
Mof_O 	O 	0.7641	0.5209	0.1674	-0.297
Mof_O 	O 	0.7587	0.5297	0.0854	-0.406
Mof_C 	C 	0.749	0.6241	0.9905	0.312
Mof_C 	C 	0.8046	0.6177	0.9966	0.076
Mof_H 	H 	0.8222	0.6326	0.9677	0.038
Mof_H 	H 	0.8159	0.6351	0.0273	-0.016
Mof_O 	O 	0.7291	0.6674	0.9859	-0.227
Mof_O 	O 	0.7203	0.5854	0.9913	-0.331
Mof_C 	C 	0.749	0.1241	0.4905	0.407
Mof_C 	C 	0.8046	0.1177	0.4966	-0.239
Mof_H 	H 	0.8222	0.1326	0.4677	0.117
Mof_H 	H 	0.8159	0.1351	0.5273	0.121
Mof_O 	O 	0.7291	0.1674	0.4859	-0.297
Mof_O 	O 	0.7203	0.0854	0.4913	-0.406
Mof_C 	C 	0.249	0.6241	0.4905	0.403
Mof_C 	C 	0.3046	0.6177	0.4966	-0.22
Mof_H 	H 	0.3222	0.6326	0.4677	0.11
Mof_H 	H 	0.3159	0.6351	0.5273	0.114
Mof_O 	O 	0.2291	0.6674	0.4859	-0.296
Mof_O 	O 	0.2203	0.5854	0.4913	-0.412
Mof_C 	C 	0.249	0.1241	0.9905	0.311
Mof_C 	C 	0.3046	0.1177	0.9966	0.073
Mof_H 	H 	0.3222	0.1326	0.9677	0.039
Mof_H 	H 	0.3159	0.1351	0.0273	-0.019
Mof_O 	O 	0.2291	0.1674	0.9859	-0.227
Mof_O 	O 	0.2203	0.0854	0.9913	-0.324
Mof_C 	C 	0.249	0.6259	0.7595	0.404
Mof_C 	C 	0.3046	0.6323	0.7534	-0.221
Mof_H 	H 	0.3222	0.6174	0.7823	0.111
Mof_H 	H 	0.3159	0.6149	0.7227	0.115
Mof_O 	O 	0.2291	0.5826	0.7641	-0.296
Mof_O 	O 	0.2203	0.6646	0.7587	-0.412
Mof_C 	C 	0.249	0.1259	0.2595	0.403
Mof_C 	C 	0.3046	0.1323	0.2534	-0.219
Mof_H 	H 	0.3222	0.1174	0.2823	0.108
Mof_H 	H 	0.3159	0.1149	0.2227	0.113
Mof_O 	O 	0.2291	0.0826	0.2641	-0.304
Mof_O 	O 	0.2203	0.1646	0.2587	-0.415
Mof_C 	C 	0.749	0.6259	0.2595	0.403
Mof_C 	C 	0.8046	0.6323	0.2534	-0.222
Mof_H 	H 	0.8222	0.6174	0.2823	0.112
Mof_H 	H 	0.8159	0.6149	0.2227	0.115
Mof_O 	O 	0.7291	0.5826	0.2641	-0.296
Mof_O 	O 	0.7203	0.6646	0.2587	-0.412
Mof_C 	C 	0.749	0.1259	0.7595	0.404
Mof_C 	C 	0.8046	0.1323	0.7534	-0.222
Mof_H 	H 	0.8222	0.1174	0.7823	0.112
Mof_H 	H 	0.8159	0.1149	0.7227	0.115
Mof_O 	O 	0.7291	0.0826	0.7641	-0.303
Mof_O 	O 	0.7203	0.1646	0.7587	-0.413
Mof_C 	C 	0.001	0.1241	0.2595	0.296
Mof_C 	C 	0.9454	0.1177	0.2534	-0.115
Mof_H 	H 	0.9278	0.1326	0.2823	0.091
Mof_H 	H 	0.9341	0.1351	0.2227	0.095
Mof_O 	O 	0.0209	0.1674	0.2641	-0.289
Mof_O 	O 	0.0297	0.0854	0.2587	-0.388
Mof_C 	C 	0.001	0.6241	0.7595	0.297
Mof_C 	C 	0.9454	0.6177	0.7534	-0.104
Mof_H 	H 	0.9278	0.6326	0.7823	0.087
Mof_H 	H 	0.9341	0.6351	0.7227	0.092
Mof_O 	O 	0.0209	0.6674	0.7641	-0.286
Mof_O 	O 	0.0297	0.5854	0.7587	-0.393
Mof_C 	C 	0.501	0.1241	0.7595	0.407
Mof_C 	C 	0.4454	0.1177	0.7534	-0.239
Mof_H 	H 	0.4278	0.1326	0.7823	0.117
Mof_H 	H 	0.4341	0.1351	0.7227	0.12
Mof_O 	O 	0.5209	0.1674	0.7641	-0.297
Mof_O 	O 	0.5297	0.0854	0.7587	-0.406
Mof_C 	C 	0.501	0.6241	0.2595	0.403
Mof_C 	C 	0.4454	0.6177	0.2534	-0.22
Mof_H 	H 	0.4278	0.6326	0.2823	0.11
Mof_H 	H 	0.4341	0.6351	0.2227	0.114
Mof_O 	O 	0.5209	0.6674	0.2641	-0.295
Mof_O 	O 	0.5297	0.5854	0.2587	-0.411
Mof_C 	C 	0.501	0.1259	0.4905	0.403
Mof_C 	C 	0.4454	0.1323	0.4966	-0.22
Mof_H 	H 	0.4278	0.1174	0.4677	0.108
Mof_H 	H 	0.4341	0.1149	0.5273	0.114
Mof_O 	O 	0.5209	0.0826	0.4859	-0.303
Mof_O 	O 	0.5297	0.1646	0.4913	-0.413
Mof_C 	C 	0.501	0.6259	0.9905	0.31
Mof_C 	C 	0.4454	0.6323	0.9966	0.085
Mof_H 	H 	0.4278	0.6174	0.9677	0.035
Mof_H 	H 	0.4341	0.6149	0.0273	-0.021
Mof_O 	O 	0.5209	0.5826	0.9859	-0.226
Mof_O 	O 	0.5297	0.6646	0.9913	-0.331
Mof_C 	C 	0.001	0.1259	0.9905	0.205
Mof_C 	C 	0.9454	0.1323	0.9966	0.196
Mof_H 	H 	0.9278	0.1174	0.9677	0.012
Mof_H 	H 	0.9341	0.1149	0.0273	-0.041
Mof_O 	O 	0.0209	0.0826	0.9859	-0.225
Mof_O 	O 	0.0297	0.1646	0.9913	-0.314
Mof_C 	C 	0.001	0.6259	0.4905	0.295
Mof_C 	C 	0.9454	0.6323	0.4966	-0.101
Mof_H 	H 	0.9278	0.6174	0.4677	0.086
Mof_H 	H 	0.9341	0.6149	0.5273	0.091
Mof_O 	O 	0.0209	0.5826	0.4859	-0.286
Mof_O 	O 	0.0297	0.6646	0.4913	-0.393
Mof_C 	C 	0.9905	0.6259	0.001	0.208
Mof_C 	C 	0.9966	0.6323	0.9454	0.188
Mof_H 	H 	0.9677	0.6174	0.9278	0.015
Mof_H 	H 	0.0273	0.6149	0.9341	-0.038
Mof_O 	O 	0.9859	0.5826	0.0209	-0.218
Mof_O 	O 	0.9913	0.6646	0.0297	-0.314
Mof_C 	C 	0.9905	0.1259	0.501	0.308
Mof_C 	C 	0.9966	0.1323	0.4454	0.09
Mof_H 	H 	0.9677	0.1174	0.4278	0.032
Mof_H 	H 	0.0273	0.1149	0.4341	-0.024
Mof_O 	O 	0.9859	0.0826	0.5209	-0.232
Mof_O 	O 	0.9913	0.1646	0.5297	-0.331
Mof_C 	C 	0.4905	0.6259	0.501	0.403
Mof_C 	C 	0.4966	0.6323	0.4454	-0.22
Mof_H 	H 	0.4677	0.6174	0.4278	0.11
Mof_H 	H 	0.5273	0.6149	0.4341	0.114
Mof_O 	O 	0.4859	0.5826	0.5209	-0.295
Mof_O 	O 	0.4913	0.6646	0.5297	-0.411
Mof_C 	C 	0.4905	0.1259	0.001	0.294
Mof_C 	C 	0.4966	0.1323	0.9454	-0.098
Mof_H 	H 	0.4677	0.1174	0.9278	0.084
Mof_H 	H 	0.5273	0.1149	0.9341	0.09
Mof_O 	O 	0.4859	0.0826	0.0209	-0.294
Mof_O 	O 	0.4913	0.1646	0.0297	-0.395
Mof_C 	C 	0.7595	0.6241	0.501	0.404
Mof_C 	C 	0.7534	0.6177	0.4454	-0.221
Mof_H 	H 	0.7823	0.6326	0.4278	0.111
Mof_H 	H 	0.7227	0.6351	0.4341	0.115
Mof_O 	O 	0.7641	0.6674	0.5209	-0.295
Mof_O 	O 	0.7587	0.5854	0.5297	-0.411
Mof_C 	C 	0.7595	0.1241	0.001	0.299
Mof_C 	C 	0.7534	0.1177	0.9454	-0.119
Mof_H 	H 	0.7823	0.1326	0.9278	0.093
Mof_H 	H 	0.7227	0.1351	0.9341	0.096
Mof_O 	O 	0.7641	0.1674	0.0209	-0.288
Mof_O 	O 	0.7587	0.0854	0.0297	-0.388
Mof_C 	C 	0.2595	0.6241	0.001	0.294
Mof_C 	C 	0.2534	0.6177	0.9454	-0.1
Mof_H 	H 	0.2823	0.6326	0.9278	0.086
Mof_H 	H 	0.2227	0.6351	0.9341	0.09
Mof_O 	O 	0.2641	0.6674	0.0209	-0.287
Mof_O 	O 	0.2587	0.5854	0.0297	-0.393
Mof_C 	C 	0.2595	0.1241	0.501	0.406
Mof_C 	C 	0.2534	0.1177	0.4454	-0.238
Mof_H 	H 	0.2823	0.1326	0.4278	0.115
Mof_H 	H 	0.2227	0.1351	0.4341	0.119
Mof_O 	O 	0.2641	0.1674	0.5209	-0.297
Mof_O 	O 	0.2587	0.0854	0.5297	-0.406
Mof_C 	C 	0.2595	0.1259	0.749	0.404
Mof_C 	C 	0.2534	0.1323	0.8046	-0.221
Mof_H 	H 	0.2823	0.1174	0.8222	0.111
Mof_H 	H 	0.2227	0.1149	0.8159	0.115
Mof_O 	O 	0.2641	0.0826	0.7291	-0.303
Mof_O 	O 	0.2587	0.1646	0.7203	-0.414
Mof_C 	C 	0.2595	0.6259	0.249	0.403
Mof_C 	C 	0.2534	0.6323	0.3046	-0.22
Mof_H 	H 	0.2823	0.6174	0.3222	0.11
Mof_H 	H 	0.2227	0.6149	0.3159	0.114
Mof_O 	O 	0.2641	0.5826	0.2291	-0.296
Mof_O 	O 	0.2587	0.6646	0.2203	-0.413
Mof_C 	C 	0.7595	0.1259	0.249	0.404
Mof_C 	C 	0.7534	0.1323	0.3046	-0.221
Mof_H 	H 	0.7823	0.1174	0.3222	0.11
Mof_H 	H 	0.7227	0.1149	0.3159	0.114
Mof_O 	O 	0.7641	0.0826	0.2291	-0.303
Mof_O 	O 	0.7587	0.1646	0.2203	-0.414
Mof_C 	C 	0.7595	0.6259	0.749	0.404
Mof_C 	C 	0.7534	0.6323	0.8046	-0.223
Mof_H 	H 	0.7823	0.6174	0.8222	0.113
Mof_H 	H 	0.7227	0.6149	0.8159	0.116
Mof_O 	O 	0.7641	0.5826	0.7291	-0.295
Mof_O 	O 	0.7587	0.6646	0.7203	-0.411
Mof_C 	C 	0.4905	0.1241	0.249	0.407
Mof_C 	C 	0.4966	0.1177	0.3046	-0.238
Mof_H 	H 	0.4677	0.1326	0.3222	0.115
Mof_H 	H 	0.5273	0.1351	0.3159	0.119
Mof_O 	O 	0.4859	0.1674	0.2291	-0.298
Mof_O 	O 	0.4913	0.0854	0.2203	-0.407
Mof_C 	C 	0.4905	0.6241	0.749	0.404
Mof_C 	C 	0.4966	0.6177	0.8046	-0.222
Mof_H 	H 	0.4677	0.6326	0.8222	0.112
Mof_H 	H 	0.5273	0.6351	0.8159	0.116
Mof_O 	O 	0.4859	0.6674	0.7291	-0.295
Mof_O 	O 	0.4913	0.5854	0.7203	-0.411
Mof_C 	C 	0.9905	0.1241	0.749	0.314
Mof_C 	C 	0.9966	0.1177	0.8046	0.064
Mof_H 	H 	0.9677	0.1326	0.8222	0.043
Mof_H 	H 	0.0273	0.1351	0.8159	-0.014
Mof_O 	O 	0.9859	0.1674	0.7291	-0.228
Mof_O 	O 	0.9913	0.0854	0.7203	-0.326
Mof_C 	C 	0.9905	0.6241	0.249	0.309
Mof_C 	C 	0.9966	0.6177	0.3046	0.086
Mof_H 	H 	0.9677	0.6326	0.3222	0.034
Mof_H 	H 	0.0273	0.6351	0.3159	-0.021
Mof_O 	O 	0.9859	0.6674	0.2291	-0.226
Mof_O 	O 	0.9913	0.5854	0.2203	-0.33
Mof_C 	C 	0.001	0.9905	0.6259	0.208
Mof_C 	C 	0.9454	0.9966	0.6323	0.188
Mof_H 	H 	0.9278	0.9677	0.6174	0.015
Mof_H 	H 	0.9341	0.0273	0.6149	-0.038
Mof_O 	O 	0.0209	0.9859	0.5826	-0.218
Mof_O 	O 	0.0297	0.9913	0.6646	-0.314
Mof_C 	C 	0.001	0.4905	0.1259	0.294
Mof_C 	C 	0.9454	0.4966	0.1323	-0.098
Mof_H 	H 	0.9278	0.4677	0.1174	0.084
Mof_H 	H 	0.9341	0.5273	0.1149	0.09
Mof_O 	O 	0.0209	0.4859	0.0826	-0.294
Mof_O 	O 	0.0297	0.4913	0.1646	-0.395
Mof_C 	C 	0.501	0.9905	0.1259	0.308
Mof_C 	C 	0.4454	0.9966	0.1323	0.09
Mof_H 	H 	0.4278	0.9677	0.1174	0.032
Mof_H 	H 	0.4341	0.0273	0.1149	-0.024
Mof_O 	O 	0.5209	0.9859	0.0826	-0.232
Mof_O 	O 	0.5297	0.9913	0.1646	-0.331
Mof_C 	C 	0.501	0.4905	0.6259	0.403
Mof_C 	C 	0.4454	0.4966	0.6323	-0.22
Mof_H 	H 	0.4278	0.4677	0.6174	0.11
Mof_H 	H 	0.4341	0.5273	0.6149	0.114
Mof_O 	O 	0.5209	0.4859	0.5826	-0.295
Mof_O 	O 	0.5297	0.4913	0.6646	-0.411
Mof_C 	C 	0.501	0.7595	0.6241	0.404
Mof_C 	C 	0.4454	0.7534	0.6177	-0.221
Mof_H 	H 	0.4278	0.7823	0.6326	0.111
Mof_H 	H 	0.4341	0.7227	0.6351	0.115
Mof_O 	O 	0.5209	0.7641	0.6674	-0.295
Mof_O 	O 	0.5297	0.7587	0.5854	-0.411
Mof_C 	C 	0.501	0.2595	0.1241	0.406
Mof_C 	C 	0.4454	0.2534	0.1177	-0.238
Mof_H 	H 	0.4278	0.2823	0.1326	0.115
Mof_H 	H 	0.4341	0.2227	0.1351	0.119
Mof_O 	O 	0.5209	0.2641	0.1674	-0.297
Mof_O 	O 	0.5297	0.2587	0.0854	-0.406
Mof_C 	C 	0.001	0.7595	0.1241	0.299
Mof_C 	C 	0.9454	0.7534	0.1177	-0.119
Mof_H 	H 	0.9278	0.7823	0.1326	0.093
Mof_H 	H 	0.9341	0.7227	0.1351	0.096
Mof_O 	O 	0.0209	0.7641	0.1674	-0.288
Mof_O 	O 	0.0297	0.7587	0.0854	-0.388
Mof_C 	C 	0.001	0.2595	0.6241	0.294
Mof_C 	C 	0.9454	0.2534	0.6177	-0.1
Mof_H 	H 	0.9278	0.2823	0.6326	0.086
Mof_H 	H 	0.9341	0.2227	0.6351	0.09
Mof_O 	O 	0.0209	0.2641	0.6674	-0.287
Mof_O 	O 	0.0297	0.2587	0.5854	-0.393
Mof_C 	C 	0.749	0.2595	0.1259	0.404
Mof_C 	C 	0.8046	0.2534	0.1323	-0.221
Mof_H 	H 	0.8222	0.2823	0.1174	0.111
Mof_H 	H 	0.8159	0.2227	0.1149	0.115
Mof_O 	O 	0.7291	0.2641	0.0826	-0.303
Mof_O 	O 	0.7203	0.2587	0.1646	-0.414
Mof_C 	C 	0.749	0.7595	0.6259	0.404
Mof_C 	C 	0.8046	0.7534	0.6323	-0.223
Mof_H 	H 	0.8222	0.7823	0.6174	0.113
Mof_H 	H 	0.8159	0.7227	0.6149	0.116
Mof_O 	O 	0.7291	0.7641	0.5826	-0.295
Mof_O 	O 	0.7203	0.7587	0.6646	-0.411
Mof_C 	C 	0.249	0.2595	0.6259	0.403
Mof_C 	C 	0.3046	0.2534	0.6323	-0.22
Mof_H 	H 	0.3222	0.2823	0.6174	0.11
Mof_H 	H 	0.3159	0.2227	0.6149	0.114
Mof_O 	O 	0.2291	0.2641	0.5826	-0.296
Mof_O 	O 	0.2203	0.2587	0.6646	-0.413
Mof_C 	C 	0.249	0.7595	0.1259	0.404
Mof_C 	C 	0.3046	0.7534	0.1323	-0.221
Mof_H 	H 	0.3222	0.7823	0.1174	0.11
Mof_H 	H 	0.3159	0.7227	0.1149	0.114
Mof_O 	O 	0.2291	0.7641	0.0826	-0.303
Mof_O 	O 	0.2203	0.7587	0.1646	-0.414
Mof_C 	C 	0.249	0.4905	0.1241	0.407
Mof_C 	C 	0.3046	0.4966	0.1177	-0.238
Mof_H 	H 	0.3222	0.4677	0.1326	0.115
Mof_H 	H 	0.3159	0.5273	0.1351	0.119
Mof_O 	O 	0.2291	0.4859	0.1674	-0.298
Mof_O 	O 	0.2203	0.4913	0.0854	-0.407
Mof_C 	C 	0.249	0.9905	0.6241	0.309
Mof_C 	C 	0.3046	0.9966	0.6177	0.086
Mof_H 	H 	0.3222	0.9677	0.6326	0.034
Mof_H 	H 	0.3159	0.0273	0.6351	-0.021
Mof_O 	O 	0.2291	0.9859	0.6674	-0.226
Mof_O 	O 	0.2203	0.9913	0.5854	-0.33
Mof_C 	C 	0.749	0.4905	0.6241	0.404
Mof_C 	C 	0.8046	0.4966	0.6177	-0.222
Mof_H 	H 	0.8222	0.4677	0.6326	0.112
Mof_H 	H 	0.8159	0.5273	0.6351	0.116
Mof_O 	O 	0.7291	0.4859	0.6674	-0.295
Mof_O 	O 	0.7203	0.4913	0.5854	-0.411
Mof_C 	C 	0.749	0.9905	0.1241	0.314
Mof_C 	C 	0.8046	0.9966	0.1177	0.064
Mof_H 	H 	0.8222	0.9677	0.1326	0.043
Mof_H 	H 	0.8159	0.0273	0.1351	-0.014
Mof_O 	O 	0.7291	0.9859	0.1674	-0.228
Mof_O 	O 	0.7203	0.9913	0.0854	-0.326
Mof_C 	C 	0.6259	0.001	0.9905	0.208
Mof_C 	C 	0.6323	0.9454	0.9966	0.188
Mof_H 	H 	0.6174	0.9278	0.9677	0.015
Mof_H 	H 	0.6149	0.9341	0.0273	-0.038
Mof_O 	O 	0.5826	0.0209	0.9859	-0.218
Mof_O 	O 	0.6646	0.0297	0.9913	-0.314
Mof_C 	C 	0.6259	0.501	0.4905	0.403
Mof_C 	C 	0.6323	0.4454	0.4966	-0.22
Mof_H 	H 	0.6174	0.4278	0.4677	0.11
Mof_H 	H 	0.6149	0.4341	0.5273	0.114
Mof_O 	O 	0.5826	0.5209	0.4859	-0.295
Mof_O 	O 	0.6646	0.5297	0.4913	-0.411
Mof_C 	C 	0.1259	0.001	0.4905	0.294
Mof_C 	C 	0.1323	0.9454	0.4966	-0.098
Mof_H 	H 	0.1174	0.9278	0.4677	0.084
Mof_H 	H 	0.1149	0.9341	0.5273	0.09
Mof_O 	O 	0.0826	0.0209	0.4859	-0.294
Mof_O 	O 	0.1646	0.0297	0.4913	-0.395
Mof_C 	C 	0.1259	0.501	0.9905	0.308
Mof_C 	C 	0.1323	0.4454	0.9966	0.09
Mof_H 	H 	0.1174	0.4278	0.9677	0.032
Mof_H 	H 	0.1149	0.4341	0.0273	-0.024
Mof_O 	O 	0.0826	0.5209	0.9859	-0.232
Mof_O 	O 	0.1646	0.5297	0.9913	-0.331
Mof_C 	C 	0.6241	0.501	0.7595	0.404
Mof_C 	C 	0.6177	0.4454	0.7534	-0.221
Mof_H 	H 	0.6326	0.4278	0.7823	0.111
Mof_H 	H 	0.6351	0.4341	0.7227	0.115
Mof_O 	O 	0.6674	0.5209	0.7641	-0.295
Mof_O 	O 	0.5854	0.5297	0.7587	-0.411
Mof_C 	C 	0.6241	0.001	0.2595	0.294
Mof_C 	C 	0.6177	0.9454	0.2534	-0.1
Mof_H 	H 	0.6326	0.9278	0.2823	0.086
Mof_H 	H 	0.6351	0.9341	0.2227	0.09
Mof_O 	O 	0.6674	0.0209	0.2641	-0.287
Mof_O 	O 	0.5854	0.0297	0.2587	-0.393
Mof_C 	C 	0.1241	0.501	0.2595	0.406
Mof_C 	C 	0.1177	0.4454	0.2534	-0.238
Mof_H 	H 	0.1326	0.4278	0.2823	0.115
Mof_H 	H 	0.1351	0.4341	0.2227	0.119
Mof_O 	O 	0.1674	0.5209	0.2641	-0.297
Mof_O 	O 	0.0854	0.5297	0.2587	-0.406
Mof_C 	C 	0.1241	0.001	0.7595	0.299
Mof_C 	C 	0.1177	0.9454	0.7534	-0.119
Mof_H 	H 	0.1326	0.9278	0.7823	0.093
Mof_H 	H 	0.1351	0.9341	0.7227	0.096
Mof_O 	O 	0.1674	0.0209	0.7641	-0.288
Mof_O 	O 	0.0854	0.0297	0.7587	-0.388
Mof_C 	C 	0.1259	0.749	0.2595	0.404
Mof_C 	C 	0.1323	0.8046	0.2534	-0.221
Mof_H 	H 	0.1174	0.8222	0.2823	0.111
Mof_H 	H 	0.1149	0.8159	0.2227	0.115
Mof_O 	O 	0.0826	0.7291	0.2641	-0.303
Mof_O 	O 	0.1646	0.7203	0.2587	-0.414
Mof_C 	C 	0.1259	0.249	0.7595	0.404
Mof_C 	C 	0.1323	0.3046	0.7534	-0.221
Mof_H 	H 	0.1174	0.3222	0.7823	0.11
Mof_H 	H 	0.1149	0.3159	0.7227	0.114
Mof_O 	O 	0.0826	0.2291	0.7641	-0.303
Mof_O 	O 	0.1646	0.2203	0.7587	-0.414
Mof_C 	C 	0.6259	0.749	0.7595	0.404
Mof_C 	C 	0.6323	0.8046	0.7534	-0.223
Mof_H 	H 	0.6174	0.8222	0.7823	0.113
Mof_H 	H 	0.6149	0.8159	0.7227	0.116
Mof_O 	O 	0.5826	0.7291	0.7641	-0.295
Mof_O 	O 	0.6646	0.7203	0.7587	-0.411
Mof_C 	C 	0.6259	0.249	0.2595	0.403
Mof_C 	C 	0.6323	0.3046	0.2534	-0.22
Mof_H 	H 	0.6174	0.3222	0.2823	0.11
Mof_H 	H 	0.6149	0.3159	0.2227	0.114
Mof_O 	O 	0.5826	0.2291	0.2641	-0.296
Mof_O 	O 	0.6646	0.2203	0.2587	-0.413
Mof_C 	C 	0.1241	0.249	0.4905	0.407
Mof_C 	C 	0.1177	0.3046	0.4966	-0.238
Mof_H 	H 	0.1326	0.3222	0.4677	0.115
Mof_H 	H 	0.1351	0.3159	0.5273	0.119
Mof_O 	O 	0.1674	0.2291	0.4859	-0.298
Mof_O 	O 	0.0854	0.2203	0.4913	-0.407
Mof_C 	C 	0.1241	0.749	0.9905	0.314
Mof_C 	C 	0.1177	0.8046	0.9966	0.064
Mof_H 	H 	0.1326	0.8222	0.9677	0.043
Mof_H 	H 	0.1351	0.8159	0.0273	-0.014
Mof_O 	O 	0.1674	0.7291	0.9859	-0.228
Mof_O 	O 	0.0854	0.7203	0.9913	-0.326
Mof_C 	C 	0.6241	0.249	0.9905	0.309
Mof_C 	C 	0.6177	0.3046	0.9966	0.086
Mof_H 	H 	0.6326	0.3222	0.9677	0.034
Mof_H 	H 	0.6351	0.3159	0.0273	-0.021
Mof_O 	O 	0.6674	0.2291	0.9859	-0.226
Mof_O 	O 	0.5854	0.2203	0.9913	-0.33
Mof_C 	C 	0.6241	0.749	0.4905	0.404
Mof_C 	C 	0.6177	0.8046	0.4966	-0.222
Mof_H 	H 	0.6326	0.8222	0.4677	0.112
Mof_H 	H 	0.6351	0.8159	0.5273	0.116
Mof_O 	O 	0.6674	0.7291	0.4859	-0.295
Mof_O 	O 	0.5854	0.7203	0.4913	-0.411
Mof_C 	C 	0.8759	0.7405	0.999	0.491
Mof_C 	C 	0.8823	0.7466	0.0546	-0.333
Mof_H 	H 	0.8674	0.7177	0.0722	0.138
Mof_H 	H 	0.8649	0.7773	0.0659	0.144
Mof_O 	O 	0.8326	0.7359	0.9791	-0.272
Mof_O 	O 	0.9146	0.7413	0.9703	-0.341
Mof_C 	C 	0.8759	0.2405	0.499	0.392
Mof_C 	C 	0.8823	0.2466	0.5546	-0.209
Mof_H 	H 	0.8674	0.2177	0.5722	0.107
Mof_H 	H 	0.8649	0.2773	0.5659	0.114
Mof_O 	O 	0.8326	0.2359	0.4791	-0.289
Mof_O 	O 	0.9146	0.2413	0.4703	-0.365
Mof_C 	C 	0.3759	0.7405	0.499	0.404
Mof_C 	C 	0.3823	0.7466	0.5546	-0.221
Mof_H 	H 	0.3674	0.7177	0.5722	0.11
Mof_H 	H 	0.3649	0.7773	0.5659	0.116
Mof_O 	O 	0.3326	0.7359	0.4791	-0.294
Mof_O 	O 	0.4146	0.7413	0.4703	-0.41
Mof_C 	C 	0.3759	0.2405	0.999	0.505
Mof_C 	C 	0.3823	0.2466	0.0546	-0.348
Mof_H 	H 	0.3674	0.2177	0.0722	0.14
Mof_H 	H 	0.3649	0.2773	0.0659	0.144
Mof_O 	O 	0.3326	0.2359	0.9791	-0.277
Mof_O 	O 	0.4146	0.2413	0.9703	-0.385
Mof_C 	C 	0.8741	0.5095	0.499	0.398
Mof_C 	C 	0.8677	0.5034	0.5546	-0.218
Mof_H 	H 	0.8826	0.5323	0.5722	0.112
Mof_H 	H 	0.8851	0.4727	0.5659	0.119
Mof_O 	O 	0.9174	0.5141	0.4791	-0.263
Mof_O 	O 	0.8354	0.5087	0.4703	-0.405
Mof_C 	C 	0.8741	0.0095	0.999	0.53
Mof_C 	C 	0.8677	0.0034	0.0546	-0.478
Mof_H 	H 	0.8826	0.0323	0.0722	0.176
Mof_H 	H 	0.8851	0.9727	0.0659	0.242
Mof_O 	O 	0.9174	0.0141	0.9791	-0.275
Mof_O 	O 	0.8354	0.0087	0.9703	-0.394
Mof_C 	C 	0.3741	0.5095	0.999	0.505
Mof_C 	C 	0.3677	0.5034	0.0546	-0.348
Mof_H 	H 	0.3826	0.5323	0.0722	0.141
Mof_H 	H 	0.3851	0.4727	0.0659	0.144
Mof_O 	O 	0.4174	0.5141	0.9791	-0.278
Mof_O 	O 	0.3354	0.5087	0.9703	-0.385
Mof_C 	C 	0.3741	0.0095	0.499	0.437
Mof_C 	C 	0.3677	0.0034	0.5546	-0.358
Mof_H 	H 	0.3826	0.0323	0.5722	0.143
Mof_H 	H 	0.3851	0.9727	0.5659	0.211
Mof_O 	O 	0.4174	0.0141	0.4791	-0.324
Mof_O 	O 	0.3354	0.0087	0.4703	-0.426
Mof_C 	C 	0.3759	0.0095	0.251	0.437
Mof_C 	C 	0.3823	0.0034	0.1954	-0.36
Mof_H 	H 	0.3674	0.0323	0.1778	0.144
Mof_H 	H 	0.3649	0.9727	0.1841	0.211
Mof_O 	O 	0.3326	0.0141	0.2709	-0.324
Mof_O 	O 	0.4146	0.0087	0.2797	-0.426
Mof_C 	C 	0.3759	0.5095	0.751	0.403
Mof_C 	C 	0.3823	0.5034	0.6954	-0.22
Mof_H 	H 	0.3674	0.5323	0.6778	0.109
Mof_H 	H 	0.3649	0.4727	0.6841	0.115
Mof_O 	O 	0.3326	0.5141	0.7709	-0.293
Mof_O 	O 	0.4146	0.5087	0.7797	-0.408
Mof_C 	C 	0.8759	0.0095	0.751	0.425
Mof_C 	C 	0.8823	0.0034	0.6954	-0.344
Mof_H 	H 	0.8674	0.0323	0.6778	0.141
Mof_H 	H 	0.8649	0.9727	0.6841	0.207
Mof_O 	O 	0.8326	0.0141	0.7709	-0.316
Mof_O 	O 	0.9146	0.0087	0.7797	-0.379
Mof_C 	C 	0.8759	0.5095	0.251	0.393
Mof_C 	C 	0.8823	0.5034	0.1954	-0.21
Mof_H 	H 	0.8674	0.5323	0.1778	0.108
Mof_H 	H 	0.8649	0.4727	0.1841	0.114
Mof_O 	O 	0.8326	0.5141	0.2709	-0.289
Mof_O 	O 	0.9146	0.5087	0.2797	-0.365
Mof_C 	C 	0.3741	0.2405	0.751	0.402
Mof_C 	C 	0.3677	0.2466	0.6954	-0.219
Mof_H 	H 	0.3826	0.2177	0.6778	0.109
Mof_H 	H 	0.3851	0.2773	0.6841	0.115
Mof_O 	O 	0.4174	0.2359	0.7709	-0.293
Mof_O 	O 	0.3354	0.2413	0.7797	-0.408
Mof_C 	C 	0.3741	0.7405	0.251	0.404
Mof_C 	C 	0.3677	0.7466	0.1954	-0.22
Mof_H 	H 	0.3826	0.7177	0.1778	0.11
Mof_H 	H 	0.3851	0.7773	0.1841	0.116
Mof_O 	O 	0.4174	0.7359	0.2709	-0.294
Mof_O 	O 	0.3354	0.7413	0.2797	-0.409
Mof_C 	C 	0.8741	0.2405	0.251	0.397
Mof_C 	C 	0.8677	0.2466	0.1954	-0.217
Mof_H 	H 	0.8826	0.2177	0.1778	0.112
Mof_H 	H 	0.8851	0.2773	0.1841	0.119
Mof_O 	O 	0.9174	0.2359	0.2709	-0.263
Mof_O 	O 	0.8354	0.2413	0.2797	-0.405
Mof_C 	C 	0.8741	0.7405	0.751	0.398
Mof_C 	C 	0.8677	0.7466	0.6954	-0.218
Mof_H 	H 	0.8826	0.7177	0.6778	0.112
Mof_H 	H 	0.8851	0.7773	0.6841	0.121
Mof_O 	O 	0.9174	0.7359	0.7709	-0.262
Mof_O 	O 	0.8354	0.7413	0.7797	-0.403
Mof_C 	C 	0.2405	0.751	0.3741	0.402
Mof_C 	C 	0.2466	0.6954	0.3677	-0.219
Mof_H 	H 	0.2177	0.6778	0.3826	0.109
Mof_H 	H 	0.2773	0.6841	0.3851	0.115
Mof_O 	O 	0.2359	0.7709	0.4174	-0.293
Mof_O 	O 	0.2413	0.7797	0.3354	-0.408
Mof_C 	C 	0.2405	0.251	0.8741	0.397
Mof_C 	C 	0.2466	0.1954	0.8677	-0.217
Mof_H 	H 	0.2177	0.1778	0.8826	0.112
Mof_H 	H 	0.2773	0.1841	0.8851	0.119
Mof_O 	O 	0.2359	0.2709	0.9174	-0.263
Mof_O 	O 	0.2413	0.2797	0.8354	-0.405
Mof_C 	C 	0.7405	0.751	0.8741	0.398
Mof_C 	C 	0.7466	0.6954	0.8677	-0.218
Mof_H 	H 	0.7177	0.6778	0.8826	0.112
Mof_H 	H 	0.7773	0.6841	0.8851	0.121
Mof_O 	O 	0.7359	0.7709	0.9174	-0.262
Mof_O 	O 	0.7413	0.7797	0.8354	-0.403
Mof_C 	C 	0.7405	0.251	0.3741	0.404
Mof_C 	C 	0.7466	0.1954	0.3677	-0.22
Mof_H 	H 	0.7177	0.1778	0.3826	0.11
Mof_H 	H 	0.7773	0.1841	0.3851	0.116
Mof_O 	O 	0.7359	0.2709	0.4174	-0.294
Mof_O 	O 	0.7413	0.2797	0.3354	-0.409
Mof_C 	C 	0.0095	0.251	0.3759	0.437
Mof_C 	C 	0.0034	0.1954	0.3823	-0.36
Mof_H 	H 	0.0323	0.1778	0.3674	0.144
Mof_H 	H 	0.9727	0.1841	0.3649	0.211
Mof_O 	O 	0.0141	0.2709	0.3326	-0.324
Mof_O 	O 	0.0087	0.2797	0.4146	-0.426
Mof_C 	C 	0.0095	0.751	0.8759	0.425
Mof_C 	C 	0.0034	0.6954	0.8823	-0.344
Mof_H 	H 	0.0323	0.6778	0.8674	0.141
Mof_H 	H 	0.9727	0.6841	0.8649	0.207
Mof_O 	O 	0.0141	0.7709	0.8326	-0.316
Mof_O 	O 	0.0087	0.7797	0.9146	-0.379
Mof_C 	C 	0.5095	0.251	0.8759	0.393
Mof_C 	C 	0.5034	0.1954	0.8823	-0.21
Mof_H 	H 	0.5323	0.1778	0.8674	0.108
Mof_H 	H 	0.4727	0.1841	0.8649	0.114
Mof_O 	O 	0.5141	0.2709	0.8326	-0.289
Mof_O 	O 	0.5087	0.2797	0.9146	-0.365
Mof_C 	C 	0.5095	0.751	0.3759	0.403
Mof_C 	C 	0.5034	0.6954	0.3823	-0.22
Mof_H 	H 	0.5323	0.6778	0.3674	0.109
Mof_H 	H 	0.4727	0.6841	0.3649	0.115
Mof_O 	O 	0.5141	0.7709	0.3326	-0.293
Mof_O 	O 	0.5087	0.7797	0.4146	-0.408
Mof_C 	C 	0.5095	0.499	0.8741	0.398
Mof_C 	C 	0.5034	0.5546	0.8677	-0.218
Mof_H 	H 	0.5323	0.5722	0.8826	0.112
Mof_H 	H 	0.4727	0.5659	0.8851	0.119
Mof_O 	O 	0.5141	0.4791	0.9174	-0.263
Mof_O 	O 	0.5087	0.4703	0.8354	-0.405
Mof_C 	C 	0.5095	0.999	0.3741	0.505
Mof_C 	C 	0.5034	0.0546	0.3677	-0.348
Mof_H 	H 	0.5323	0.0722	0.3826	0.141
Mof_H 	H 	0.4727	0.0659	0.3851	0.144
Mof_O 	O 	0.5141	0.9791	0.4174	-0.278
Mof_O 	O 	0.5087	0.9703	0.3354	-0.385
Mof_C 	C 	0.0095	0.499	0.3741	0.437
Mof_C 	C 	0.0034	0.5546	0.3677	-0.358
Mof_H 	H 	0.0323	0.5722	0.3826	0.143
Mof_H 	H 	0.9727	0.5659	0.3851	0.211
Mof_O 	O 	0.0141	0.4791	0.4174	-0.324
Mof_O 	O 	0.0087	0.4703	0.3354	-0.426
Mof_C 	C 	0.0095	0.999	0.8741	0.53
Mof_C 	C 	0.0034	0.0546	0.8677	-0.478
Mof_H 	H 	0.0323	0.0722	0.8826	0.176
Mof_H 	H 	0.9727	0.0659	0.8851	0.242
Mof_O 	O 	0.0141	0.9791	0.9174	-0.275
Mof_O 	O 	0.0087	0.9703	0.8354	-0.394
Mof_C 	C 	0.7405	0.999	0.8759	0.491
Mof_C 	C 	0.7466	0.0546	0.8823	-0.333
Mof_H 	H 	0.7177	0.0722	0.8674	0.138
Mof_H 	H 	0.7773	0.0659	0.8649	0.144
Mof_O 	O 	0.7359	0.9791	0.8326	-0.272
Mof_O 	O 	0.7413	0.9703	0.9146	-0.341
Mof_C 	C 	0.7405	0.499	0.3759	0.404
Mof_C 	C 	0.7466	0.5546	0.3823	-0.221
Mof_H 	H 	0.7177	0.5722	0.3674	0.11
Mof_H 	H 	0.7773	0.5659	0.3649	0.116
Mof_O 	O 	0.7359	0.4791	0.3326	-0.294
Mof_O 	O 	0.7413	0.4703	0.4146	-0.41
Mof_C 	C 	0.2405	0.999	0.3759	0.505
Mof_C 	C 	0.2466	0.0546	0.3823	-0.348
Mof_H 	H 	0.2177	0.0722	0.3674	0.14
Mof_H 	H 	0.2773	0.0659	0.3649	0.144
Mof_O 	O 	0.2359	0.9791	0.3326	-0.277
Mof_O 	O 	0.2413	0.9703	0.4146	-0.385
Mof_C 	C 	0.2405	0.499	0.8759	0.392
Mof_C 	C 	0.2466	0.5546	0.8823	-0.209
Mof_H 	H 	0.2177	0.5722	0.8674	0.107
Mof_H 	H 	0.2773	0.5659	0.8649	0.114
Mof_O 	O 	0.2359	0.4791	0.8326	-0.289
Mof_O 	O 	0.2413	0.4703	0.9146	-0.365
Mof_C 	C 	0.251	0.3759	0.0095	0.437
Mof_C 	C 	0.1954	0.3823	0.0034	-0.36
Mof_H 	H 	0.1778	0.3674	0.0323	0.144
Mof_H 	H 	0.1841	0.3649	0.9727	0.211
Mof_O 	O 	0.2709	0.3326	0.0141	-0.324
Mof_O 	O 	0.2797	0.4146	0.0087	-0.426
Mof_C 	C 	0.251	0.8759	0.5095	0.393
Mof_C 	C 	0.1954	0.8823	0.5034	-0.21
Mof_H 	H 	0.1778	0.8674	0.5323	0.108
Mof_H 	H 	0.1841	0.8649	0.4727	0.114
Mof_O 	O 	0.2709	0.8326	0.5141	-0.289
Mof_O 	O 	0.2797	0.9146	0.5087	-0.365
Mof_C 	C 	0.751	0.3759	0.5095	0.403
Mof_C 	C 	0.6954	0.3823	0.5034	-0.22
Mof_H 	H 	0.6778	0.3674	0.5323	0.109
Mof_H 	H 	0.6841	0.3649	0.4727	0.115
Mof_O 	O 	0.7709	0.3326	0.5141	-0.293
Mof_O 	O 	0.7797	0.4146	0.5087	-0.408
Mof_C 	C 	0.751	0.8759	0.0095	0.425
Mof_C 	C 	0.6954	0.8823	0.0034	-0.344
Mof_H 	H 	0.6778	0.8674	0.0323	0.141
Mof_H 	H 	0.6841	0.8649	0.9727	0.207
Mof_O 	O 	0.7709	0.8326	0.0141	-0.316
Mof_O 	O 	0.7797	0.9146	0.0087	-0.379
Mof_C 	C 	0.751	0.3741	0.2405	0.402
Mof_C 	C 	0.6954	0.3677	0.2466	-0.219
Mof_H 	H 	0.6778	0.3826	0.2177	0.109
Mof_H 	H 	0.6841	0.3851	0.2773	0.115
Mof_O 	O 	0.7709	0.4174	0.2359	-0.293
Mof_O 	O 	0.7797	0.3354	0.2413	-0.408
Mof_C 	C 	0.751	0.8741	0.7405	0.398
Mof_C 	C 	0.6954	0.8677	0.7466	-0.218
Mof_H 	H 	0.6778	0.8826	0.7177	0.112
Mof_H 	H 	0.6841	0.8851	0.7773	0.121
Mof_O 	O 	0.7709	0.9174	0.7359	-0.262
Mof_O 	O 	0.7797	0.8354	0.7413	-0.403
Mof_C 	C 	0.251	0.3741	0.7405	0.404
Mof_C 	C 	0.1954	0.3677	0.7466	-0.22
Mof_H 	H 	0.1778	0.3826	0.7177	0.11
Mof_H 	H 	0.1841	0.3851	0.7773	0.116
Mof_O 	O 	0.2709	0.4174	0.7359	-0.294
Mof_O 	O 	0.2797	0.3354	0.7413	-0.409
Mof_C 	C 	0.251	0.8741	0.2405	0.397
Mof_C 	C 	0.1954	0.8677	0.2466	-0.217
Mof_H 	H 	0.1778	0.8826	0.2177	0.112
Mof_H 	H 	0.1841	0.8851	0.2773	0.119
Mof_O 	O 	0.2709	0.9174	0.2359	-0.263
Mof_O 	O 	0.2797	0.8354	0.2413	-0.405
Mof_C 	C 	0.999	0.8759	0.7405	0.491
Mof_C 	C 	0.0546	0.8823	0.7466	-0.333
Mof_H 	H 	0.0722	0.8674	0.7177	0.138
Mof_H 	H 	0.0659	0.8649	0.7773	0.144
Mof_O 	O 	0.9791	0.8326	0.7359	-0.272
Mof_O 	O 	0.9703	0.9146	0.7413	-0.341
Mof_C 	C 	0.999	0.3759	0.2405	0.505
Mof_C 	C 	0.0546	0.3823	0.2466	-0.348
Mof_H 	H 	0.0722	0.3674	0.2177	0.14
Mof_H 	H 	0.0659	0.3649	0.2773	0.144
Mof_O 	O 	0.9791	0.3326	0.2359	-0.277
Mof_O 	O 	0.9703	0.4146	0.2413	-0.385
Mof_C 	C 	0.499	0.8759	0.2405	0.392
Mof_C 	C 	0.5546	0.8823	0.2466	-0.209
Mof_H 	H 	0.5722	0.8674	0.2177	0.107
Mof_H 	H 	0.5659	0.8649	0.2773	0.114
Mof_O 	O 	0.4791	0.8326	0.2359	-0.289
Mof_O 	O 	0.4703	0.9146	0.2413	-0.365
Mof_C 	C 	0.499	0.3759	0.7405	0.404
Mof_C 	C 	0.5546	0.3823	0.7466	-0.221
Mof_H 	H 	0.5722	0.3674	0.7177	0.11
Mof_H 	H 	0.5659	0.3649	0.7773	0.116
Mof_O 	O 	0.4791	0.3326	0.7359	-0.294
Mof_O 	O 	0.4703	0.4146	0.7413	-0.41
Mof_C 	C 	0.499	0.8741	0.5095	0.398
Mof_C 	C 	0.5546	0.8677	0.5034	-0.218
Mof_H 	H 	0.5722	0.8826	0.5323	0.112
Mof_H 	H 	0.5659	0.8851	0.4727	0.119
Mof_O 	O 	0.4791	0.9174	0.5141	-0.263
Mof_O 	O 	0.4703	0.8354	0.5087	-0.405
Mof_C 	C 	0.499	0.3741	0.0095	0.437
Mof_C 	C 	0.5546	0.3677	0.0034	-0.358
Mof_H 	H 	0.5722	0.3826	0.0323	0.143
Mof_H 	H 	0.5659	0.3851	0.9727	0.211
Mof_O 	O 	0.4791	0.4174	0.0141	-0.324
Mof_O 	O 	0.4703	0.3354	0.0087	-0.426
Mof_C 	C 	0.999	0.8741	0.0095	0.53
Mof_C 	C 	0.0546	0.8677	0.0034	-0.478
Mof_H 	H 	0.0722	0.8826	0.0323	0.176
Mof_H 	H 	0.0659	0.8851	0.9727	0.242
Mof_O 	O 	0.9791	0.9174	0.0141	-0.275
Mof_O 	O 	0.9703	0.8354	0.0087	-0.394
Mof_C 	C 	0.999	0.3741	0.5095	0.505
Mof_C 	C 	0.0546	0.3677	0.5034	-0.348
Mof_H 	H 	0.0722	0.3826	0.5323	0.141
Mof_H 	H 	0.0659	0.3851	0.4727	0.144
Mof_O 	O 	0.9791	0.4174	0.5141	-0.278
Mof_O 	O 	0.9703	0.3354	0.5087	-0.385
Mof_Gd	Gd	-0	0.25	-0	1.583
Mof_Gd	Gd	1.31306e-32	0.75	0.5	1.76
Mof_Gd	Gd	0.5	0.25	0.5	1.929
Mof_Gd	Gd	0.25	0.5	0.5	1.929
Mof_Gd	Gd	0.75	0	0.5	1.761
Mof_Gd	Gd	0.75	0.75	0.25	1.93
Mof_Gd	Gd	0.5	5.62796e-33	0.75	1.76
Mof_Gd	Gd	9.3735e-34	0	0.25	1.583
Mof_Gd	Gd	8.44001e-33	0.5	0.75	1.761
Mof_Gd	Gd	0.5	0.5	0.25	1.929
Mof_Gd	Gd	0.5	0.75	-0	1.761
Mof_Gd	Gd	0.25	0.75	0.75	1.93
Mof_Gd	Gd	0.25	0.25	0.25	1.929
Mof_Gd	Gd	0.75	0.5	-0	1.76
Mof_Gd	Gd	0.25	0	-0	1.583
Mof_Gd	Gd	0.75	0.25	0.75	1.93
Mof_Gd	Gd	5.62796e-33	0.75	-0	1.59
Mof_Gd	Gd	0.75	0.5	0.5	1.93
Mof_Gd	Gd	0.25	0.25	0.75	1.929
Mof_Gd	Gd	0.75	0.75	0.75	1.931
Mof_Gd	Gd	0.5	0	0.25	1.756
Mof_Gd	Gd	8.44001e-33	5.62796e-33	0.75	1.59
Mof_Gd	Gd	3.75133e-33	0.5	0.25	1.756
Mof_Gd	Gd	0.5	0.75	0.5	1.93
Mof_Gd	Gd	0.5	0.25	-0	1.756
Mof_Gd	Gd	0.75	0.25	0.25	1.929
Mof_Gd	Gd	0.25	0.5	-0	1.756
Mof_Gd	Gd	0.25	0	0.5	1.756
Mof_Gd	Gd	0.75	0	-0	1.59
Mof_Gd	Gd	0.5	0.5	0.75	1.93
Mof_Gd	Gd	0.25	0.75	0.25	1.929
Mof_Gd	Gd	1.8747e-33	0.25	0.5	1.756
Mof_Cd	Cd	-0	0.5	-0	0.375
Mof_Cd	Cd	0.5	0.5	0.5	0.529
Mof_Cd	Cd	0.25	0.25	0.5	0.529
Mof_Cd	Cd	0.25	0.75	-0	0.453
Mof_Cd	Cd	0.75	0	0.25	0.453
Mof_Cd	Cd	0.5	0.75	0.75	0.53
Mof_Cd	Cd	2.81205e-33	0.25	0.75	0.453
Mof_Cd	Cd	1.8747e-33	0	0.5	0.375
Mof_Cd	Cd	0.5	0.25	0.25	0.529
Mof_Cd	Cd	0.75	0.5	0.75	0.53
Mof_Cd	Cd	0.5	0	-0	0.375
Mof_Cd	Cd	0.25	0.5	0.25	0.529
Mof_Cd	Cd	0.75	0.75	0.5	0.53
Mof_Cd	Cd	0.25	0.25	-0	0.451
Mof_Cd	Cd	1.8747e-33	0.5	0.5	0.452
Mof_Cd	Cd	-0	0	-0	0.298
Mof_Cd	Cd	0.75	5.62796e-33	0.75	0.455
Mof_Cd	Cd	0.5	0.75	0.25	0.53
Mof_Cd	Cd	1.4068e-32	0.75	0.75	0.455
Mof_Cd	Cd	9.3735e-34	0.25	0.25	0.451
Mof_Cd	Cd	0.75	0.25	0.5	0.53
Mof_Cd	Cd	0.75	0.75	-0	0.455
Mof_Cd	Cd	0.5	0.5	-0	0.452
Mof_Cd	Cd	0.25	0	0.25	0.451
Mof_Cd	Cd	0.25	0.5	0.75	0.53
Mof_Cd	Cd	0.5	0	0.5	0.452
Mof_Cd	Cd	0.25	5.62796e-33	0.75	0.453
Mof_Cd	Cd	0.75	0.25	-0	0.453
Mof_Cd	Cd	3.75133e-33	0.75	0.25	0.453
Mof_Cd	Cd	0.25	0.75	0.5	0.53
Mof_Cd	Cd	0.75	0.5	0.25	0.53
Mof_Cd	Cd	0.5	0.25	0.75	0.53
Mof_O 	O 	3.06144e-33	0.316	0.066	-0.265
Mof_O 	O 	7.75012e-33	0.816	0.566	-0.292
Mof_O 	O 	0.5	0.316	0.566	-0.224
Mof_O 	O 	0.25	0.434	0.566	-0.224
Mof_O 	O 	0.75	0.434	0.066	-0.193
Mof_O 	O 	0.75	0.816	0.184	-0.223
Mof_O 	O 	0.25	0.816	0.684	-0.224
Mof_O 	O 	0.5	0.934	0.684	-0.216
Mof_O 	O 	-7.75206e-33	0.934	0.184	-0.283
Mof_O 	O 	-8.69134e-33	0.434	0.684	-0.294
Mof_O 	O 	0.066	0	0.316	-0.265
Mof_O 	O 	0.066	0.5	0.816	-0.194
Mof_O 	O 	0.566	5.62796e-33	0.816	-0.292
Mof_O 	O 	0.566	0.25	0.434	-0.224
Mof_O 	O 	0.566	0.75	0.934	-0.215
Mof_O 	O 	0.066	0.75	0.434	-0.193
Mof_O 	O 	0.184	0.75	0.816	-0.223
Mof_O 	O 	0.184	0.25	0.316	-0.224
Mof_O 	O 	0.684	0.5	0.934	-0.216
Mof_O 	O 	0.684	0	0.434	-0.294
Mof_O 	O 	0.316	0.066	-0	-0.265
Mof_O 	O 	0.316	0.566	0.5	-0.224
Mof_O 	O 	0.816	0.566	-0	-0.292
Mof_O 	O 	0.434	0.566	0.25	-0.224
Mof_O 	O 	0.434	0.066	0.75	-0.193
Mof_O 	O 	0.816	0.184	0.75	-0.223
Mof_O 	O 	0.816	0.684	0.25	-0.224
Mof_O 	O 	0.934	0.684	0.5	-0.216
Mof_O 	O 	0.934	0.184	-0	-0.283
Mof_O 	O 	0.434	0.684	-0	-0.294
Mof_O 	O 	0.066	0.25	0.934	-0.185
Mof_O 	O 	0.184	0.5	0.434	-0.224
Mof_O 	O 	0.184	0	0.934	-0.283
Mof_O 	O 	0.566	0.5	0.316	-0.224
Mof_O 	O 	0.684	0.75	0.316	-0.223
Mof_O 	O 	0.684	0.25	0.816	-0.224
Mof_O 	O 	0.75	0.316	0.684	-0.223
Mof_O 	O 	0.25	0.316	0.184	-0.224
Mof_O 	O 	0.5	0.816	0.066	-0.194
Mof_O 	O 	0.5	0.434	0.184	-0.224
Mof_O 	O 	0.25	0.934	0.066	-0.185
Mof_O 	O 	0.75	0.934	0.566	-0.215
Mof_O 	O 	0.816	0.066	0.5	-0.194
Mof_O 	O 	0.316	0.684	0.75	-0.223
Mof_O 	O 	0.316	0.184	0.25	-0.224
Mof_O 	O 	0.934	0.066	0.25	-0.185
Mof_O 	O 	0.934	0.566	0.75	-0.215
Mof_O 	O 	0.434	0.184	0.5	-0.224
Mof_O 	O 	1.47579e-32	0.684	0.934	-0.282
Mof_O 	O 	1.62724e-33	0.184	0.434	-0.295
Mof_O 	O 	0.5	0.684	0.434	-0.224
Mof_O 	O 	0.75	0.566	0.434	-0.223
Mof_O 	O 	0.25	0.566	0.934	-0.216
Mof_O 	O 	0.25	0.184	0.816	-0.224
Mof_O 	O 	0.75	0.184	0.316	-0.223
Mof_O 	O 	0.75	0.684	0.816	-0.223
Mof_O 	O 	0.5	0.066	0.316	-0.193
Mof_O 	O 	3.05951e-33	0.066	0.816	-0.263
Mof_O 	O 	0.934	0	0.684	-0.282
Mof_O 	O 	0.934	0.5	0.184	-0.216
Mof_O 	O 	0.434	0	0.184	-0.295
Mof_O 	O 	0.434	0.75	0.566	-0.223
Mof_O 	O 	0.434	0.25	0.066	-0.194
Mof_O 	O 	0.816	0.25	0.184	-0.224
Mof_O 	O 	0.816	0.75	0.684	-0.223
Mof_O 	O 	0.316	0.5	0.066	-0.193
Mof_O 	O 	0.316	5.62796e-33	0.566	-0.294
Mof_O 	O 	0.816	0	0.066	-0.263
Mof_O 	O 	0.684	0.934	-0	-0.282
Mof_O 	O 	0.684	0.434	0.5	-0.224
Mof_O 	O 	0.184	0.434	-0	-0.295
Mof_O 	O 	0.566	0.434	0.75	-0.223
Mof_O 	O 	0.566	0.934	0.25	-0.216
Mof_O 	O 	0.184	0.816	0.25	-0.224
Mof_O 	O 	0.184	0.316	0.75	-0.223
Mof_O 	O 	0.684	0.816	0.75	-0.223
Mof_O 	O 	0.066	0.316	0.5	-0.193
Mof_O 	O 	0.066	0.816	-0	-0.263
Mof_O 	O 	0.934	0.75	0.066	-0.185
Mof_O 	O 	0.934	0.25	0.566	-0.216
Mof_O 	O 	0.816	0.5	0.566	-0.223
Mof_O 	O 	0.434	0.5	0.684	-0.224
Mof_O 	O 	0.316	0.25	0.684	-0.224
Mof_O 	O 	0.316	0.75	0.184	-0.223
Mof_O 	O 	0.25	0.684	0.316	-0.224
Mof_O 	O 	0.5	0.184	0.934	-0.216
Mof_O 	O 	0.5	0.566	0.816	-0.223
Mof_O 	O 	9.62675e-33	0.566	0.316	-0.294
Mof_O 	O 	0.75	0.066	0.934	-0.185
Mof_O 	O 	0.25	0.066	0.434	-0.194
Mof_O 	O 	0.184	0.934	0.5	-0.216
Mof_O 	O 	0.684	0.316	0.25	-0.224
Mof_O 	O 	0.066	0.934	0.75	-0.185
Mof_O 	O 	0.066	0.434	0.25	-0.194
Mof_O 	O 	0.566	0.816	0.5	-0.223
Mof_O 	O 	0.566	0.316	-0	-0.294
_end
