data_functionalizedCrystal
_audit_creation_method	'EQeq! by Chris Wilmer'
_symmetry_space_group_name_H-M	'P1'
_symmetry_Int_Tables_number	1
_symmetry_cell_setting	triclinic
loop_
_symmetry_equiv_pos_as_xyz
  x,y,z
_cell_length_a	13.758
_cell_length_b	25.2156
_cell_length_c	14.9205
_cell_angle_alpha	90
_cell_angle_beta	111.399
_cell_angle_gamma	90
loop_
_atom_site_label
_atom_site_type_symbol
_atom_site_fract_x
_atom_site_fract_y
_atom_site_fract_z
_atom_site_charge
Mof_N 	N 	0.4214	0.01529	0.1693	-0.21
Mof_O 	O 	0.3761	0.07082	0.9592	-0.353
Mof_O 	O 	0.2426	0.08881	0.002	-0.414
Mof_C 	C 	0.1761	0.3129	0.6836	0.095
Mof_C 	C 	0.3601	0.1695	0.8693	-0.098
Mof_H 	H 	0.4134	0.1467	0.8698	0.103
Mof_C 	C 	0.3503	0.218	0.8242	0.109
Mof_C 	C 	0.3059	0.1002	0.9609	0.288
Mof_C 	C 	0.2604	0.3043	0.7668	-0.012
Mof_C 	C 	0.2156	0.1888	0.9121	-0.096
Mof_H 	H 	0.1701	0.1795	0.9427	0.121
Mof_C 	C 	0.1742	0.3594	0.6301	-0.091
Mof_H 	H 	0.1181	0.3652	0.5728	0.104
Mof_C 	C 	0.2934	0.1544	0.9132	0.027
Mof_C 	C 	0.2044	0.2378	0.8651	0.108
Mof_C 	C 	0.2726	0.2536	0.8204	-0.016
Mof_O 	O 	0.1778	0.4471	0.5209	-0.452
Mof_O 	O 	0.3168	0.4799	0.6306	-0.332
Mof_C 	C 	0.2522	0.3961	0.6602	0.006
Mof_C 	C 	0.3387	0.3439	0.7956	0.103
Mof_C 	C 	0.3344	0.3888	0.7433	-0.103
Mof_H 	H 	0.3873	0.414	0.7645	0.104
Mof_C 	C 	0.2478	0.4461	0.5986	0.32
Mof_C 	C 	0.3988	0.986	0.2496	-0.072
Mof_H 	H 	0.3365	0.0005	0.2563	0.064
Mof_H 	H 	0.3866	0.9487	0.2333	0.042
Mof_C 	C 	0.5097	0.9918	0.1568	0.019
Mof_H 	H 	0.5304	0.0136	0.1131	0.084
Mof_H 	H 	0.4904	0.9572	0.1275	-0.046
Mof_C 	C 	0.4484	0.07	0.207	0.02
Mof_H 	H 	0.3934	0.084	0.2265	-0.068
Mof_H 	H 	0.4543	0.0927	0.1568	0.009
Mof_N 	N 	0.4344	0.3461	0.8857	-0.01
Mof_N 	N 	0.109	0.2668	0.8699	-0.006
Mof_O 	O 	0.0409	0.2457	0.8869	-0.042
Mof_O 	O 	0.1081	0.3134	0.854	-0.088
Mof_O 	O 	0.4357	0.3149	0.948	-0.087
Mof_O 	O 	0.5115	0.3756	0.8967	-0.107
Mof_Zn	Zn	0.29612	0.01403	0.03865	1.192
Mof_C 	C 	0.4605	0.9592	0.2013	-0.06
Mof_H 	H 	0.4023	0.937	0.1996	0.017
Mof_H 	H 	0.4902	0.9444	0.157	0.096
Mof_C 	C 	0.5161	0.0442	0.1625	-0.065
Mof_H 	H 	0.4986	0.081	0.1457	0.061
Mof_H 	H 	0.5359	0.0281	0.1126	-0.037
Mof_C 	C 	0.3918	0.0408	0.2398	-0.015
Mof_H 	H 	0.3348	0.0214	0.2481	-0.032
Mof_H 	H 	0.3672	0.0763	0.2181	0.096
Mof_N 	N 	0.9343	0.2836	0.8539	-0.006
Mof_N 	N 	0.434	0.2178	0.7771	-0.028
Mof_O 	O 	0.4682	0.2608	0.7636	-0.046
Mof_O 	O 	0.9343	0.2367	0.8361	-0.068
Mof_O 	O 	0.0207	0.3057	0.9012	-0.066
Mof_N 	N 	0.9214	0.51529	0.1693	-0.213
Mof_O 	O 	0.8761	0.57082	0.9592	-0.355
Mof_O 	O 	0.7426	0.58881	0.002	-0.415
Mof_C 	C 	0.6761	0.8129	0.6836	0.095
Mof_C 	C 	0.8601	0.6695	0.8693	-0.098
Mof_H 	H 	0.9134	0.6467	0.8698	0.103
Mof_C 	C 	0.8503	0.718	0.8242	0.108
Mof_C 	C 	0.8059	0.6002	0.9609	0.288
Mof_C 	C 	0.7604	0.8043	0.7668	-0.012
Mof_C 	C 	0.7156	0.6888	0.9121	-0.096
Mof_H 	H 	0.6701	0.6795	0.9427	0.12
Mof_C 	C 	0.6742	0.8594	0.6301	-0.091
Mof_H 	H 	0.6181	0.8652	0.5728	0.104
Mof_C 	C 	0.7934	0.6544	0.9132	0.026
Mof_C 	C 	0.7044	0.7378	0.8651	0.108
Mof_C 	C 	0.7726	0.7536	0.8204	-0.016
Mof_O 	O 	0.6778	0.9471	0.5209	-0.452
Mof_O 	O 	0.8168	0.9799	0.6306	-0.333
Mof_C 	C 	0.7522	0.8961	0.6602	0.006
Mof_C 	C 	0.8387	0.8439	0.7956	0.103
Mof_C 	C 	0.8344	0.8888	0.7433	-0.103
Mof_H 	H 	0.8873	0.914	0.7645	0.104
Mof_C 	C 	0.7478	0.9461	0.5986	0.32
Mof_C 	C 	0.8988	0.486	0.2496	-0.083
Mof_H 	H 	0.8365	0.5005	0.2563	0.083
Mof_H 	H 	0.8866	0.4487	0.2333	0.044
Mof_C 	C 	0.0097	0.4918	0.1568	0.026
Mof_H 	H 	0.0304	0.5136	0.1131	0.08
Mof_H 	H 	0.9904	0.4572	0.1275	-0.058
Mof_C 	C 	0.9484	0.57	0.207	0.011
Mof_H 	H 	0.8934	0.584	0.2265	-0.089
Mof_H 	H 	0.9543	0.5927	0.1568	0.015
Mof_N 	N 	0.9344	0.8461	0.8857	-0.011
Mof_N 	N 	0.609	0.7668	0.8699	-0.006
Mof_O 	O 	0.5409	0.7457	0.8869	-0.043
Mof_O 	O 	0.6081	0.8134	0.854	-0.088
Mof_O 	O 	0.9357	0.8149	0.948	-0.087
Mof_O 	O 	0.0115	0.8756	0.8967	-0.107
Mof_Zn	Zn	0.79612	0.51403	0.03865	1.192
Mof_C 	C 	0.9605	0.4592	0.2013	-0.075
Mof_H 	H 	0.9023	0.437	0.1996	0.02
Mof_H 	H 	0.9902	0.4444	0.157	0.107
Mof_C 	C 	0.0161	0.5442	0.1625	-0.051
Mof_H 	H 	0.9986	0.581	0.1457	0.052
Mof_H 	H 	0.0359	0.5281	0.1126	-0.037
Mof_C 	C 	0.8918	0.5408	0.2398	0.005
Mof_H 	H 	0.8348	0.5214	0.2481	-0.055
Mof_H 	H 	0.8672	0.5763	0.2181	0.113
Mof_N 	N 	0.4343	0.7836	0.8539	-0.005
Mof_N 	N 	0.934	0.7178	0.7771	-0.029
Mof_O 	O 	0.9682	0.7608	0.7636	-0.047
Mof_O 	O 	0.4343	0.7367	0.8361	-0.068
Mof_O 	O 	0.5207	0.8057	0.9012	-0.066
Mof_N 	N 	0.5786	0.01529	0.3307	-0.211
Mof_O 	O 	0.6239	0.07082	0.5408	-0.354
Mof_O 	O 	0.7574	0.08881	0.498	-0.414
Mof_C 	C 	0.8239	0.3129	0.8164	0.094
Mof_C 	C 	0.6399	0.1695	0.6307	-0.098
Mof_H 	H 	0.5866	0.1467	0.6302	0.103
Mof_C 	C 	0.6497	0.218	0.6758	0.108
Mof_C 	C 	0.6941	0.1002	0.5391	0.288
Mof_C 	C 	0.7396	0.3043	0.7332	-0.012
Mof_C 	C 	0.7844	0.1888	0.5879	-0.096
Mof_H 	H 	0.8299	0.1795	0.5573	0.12
Mof_C 	C 	0.8258	0.3594	0.8699	-0.091
Mof_H 	H 	0.8819	0.3652	0.9272	0.103
Mof_C 	C 	0.7066	0.1544	0.5868	0.027
Mof_C 	C 	0.7956	0.2378	0.6349	0.108
Mof_C 	C 	0.7274	0.2536	0.6796	-0.016
Mof_O 	O 	0.8222	0.4471	0.9791	-0.452
Mof_O 	O 	0.6832	0.4799	0.8694	-0.333
Mof_C 	C 	0.7478	0.3961	0.8398	0.006
Mof_C 	C 	0.6613	0.3439	0.7044	0.103
Mof_C 	C 	0.6656	0.3888	0.7567	-0.103
Mof_H 	H 	0.6127	0.414	0.7355	0.104
Mof_C 	C 	0.7522	0.4461	0.9014	0.32
Mof_C 	C 	0.6012	0.986	0.2504	-0.072
Mof_H 	H 	0.6635	0.0005	0.2437	0.062
Mof_H 	H 	0.6134	0.9487	0.2667	0.042
Mof_C 	C 	0.4903	0.9918	0.3432	0.018
Mof_H 	H 	0.4696	0.0136	0.3869	0.084
Mof_H 	H 	0.5096	0.9572	0.3725	-0.046
Mof_C 	C 	0.5516	0.07	0.293	0.021
Mof_H 	H 	0.6066	0.084	0.2735	-0.067
Mof_H 	H 	0.5457	0.0927	0.3432	0.008
Mof_N 	N 	0.5656	0.3461	0.6143	-0.01
Mof_N 	N 	0.891	0.2668	0.6301	-0.005
Mof_O 	O 	0.9591	0.2457	0.6131	-0.044
Mof_O 	O 	0.8919	0.3134	0.646	-0.088
Mof_O 	O 	0.5643	0.3149	0.552	-0.087
Mof_O 	O 	0.4885	0.3756	0.6033	-0.107
Mof_Zn	Zn	0.70388	0.01403	0.46135	1.192
Mof_C 	C 	0.5395	0.9592	0.2987	-0.059
Mof_H 	H 	0.5977	0.937	0.3004	0.016
Mof_H 	H 	0.5098	0.9444	0.343	0.095
Mof_C 	C 	0.4839	0.0442	0.3375	-0.066
Mof_H 	H 	0.5014	0.081	0.3543	0.061
Mof_H 	H 	0.4641	0.0281	0.3874	-0.036
Mof_C 	C 	0.6082	0.0408	0.2602	-0.016
Mof_H 	H 	0.6652	0.0214	0.2519	-0.03
Mof_H 	H 	0.6328	0.0763	0.2819	0.095
Mof_N 	N 	0.0657	0.2836	0.6461	-0.004
Mof_N 	N 	0.566	0.2178	0.7229	-0.028
Mof_O 	O 	0.5318	0.2608	0.7364	-0.046
Mof_O 	O 	0.0657	0.2367	0.6639	-0.067
Mof_O 	O 	0.9793	0.3057	0.5988	-0.068
Mof_N 	N 	0.0786	0.51529	0.3307	-0.208
Mof_O 	O 	0.1239	0.57082	0.5408	-0.354
Mof_O 	O 	0.2574	0.58881	0.498	-0.414
Mof_C 	C 	0.3239	0.8129	0.8164	0.095
Mof_C 	C 	0.1399	0.6695	0.6307	-0.098
Mof_H 	H 	0.0866	0.6467	0.6302	0.103
Mof_C 	C 	0.1497	0.718	0.6758	0.109
Mof_C 	C 	0.1941	0.6002	0.5391	0.288
Mof_C 	C 	0.2396	0.8043	0.7332	-0.012
Mof_C 	C 	0.2844	0.6888	0.5879	-0.097
Mof_H 	H 	0.3299	0.6795	0.5573	0.121
Mof_C 	C 	0.3258	0.8594	0.8699	-0.091
Mof_H 	H 	0.3819	0.8652	0.9272	0.104
Mof_C 	C 	0.2066	0.6544	0.5868	0.027
Mof_C 	C 	0.2956	0.7378	0.6349	0.108
Mof_C 	C 	0.2274	0.7536	0.6796	-0.016
Mof_O 	O 	0.3222	0.9471	0.9791	-0.452
Mof_O 	O 	0.1832	0.9799	0.8694	-0.332
Mof_C 	C 	0.2478	0.8961	0.8398	0.006
Mof_C 	C 	0.1613	0.8439	0.7044	0.103
Mof_C 	C 	0.1656	0.8888	0.7567	-0.103
Mof_H 	H 	0.1127	0.914	0.7355	0.104
Mof_C 	C 	0.2522	0.9461	0.9014	0.32
Mof_C 	C 	0.1012	0.486	0.2504	-0.058
Mof_H 	H 	0.1635	0.5005	0.2437	0.039
Mof_H 	H 	0.1134	0.4487	0.2667	0.038
Mof_C 	C 	0.9903	0.4918	0.3432	0.009
Mof_H 	H 	0.9696	0.5136	0.3869	0.086
Mof_H 	H 	0.0096	0.4572	0.3725	-0.035
Mof_C 	C 	0.0516	0.57	0.293	0.029
Mof_H 	H 	0.1066	0.584	0.2735	-0.044
Mof_H 	H 	0.0457	0.5927	0.3432	0.002
Mof_N 	N 	0.0656	0.8461	0.6143	-0.009
Mof_N 	N 	0.391	0.7668	0.6301	-0.006
Mof_O 	O 	0.4591	0.7457	0.6131	-0.043
Mof_O 	O 	0.3919	0.8134	0.646	-0.088
Mof_O 	O 	0.0643	0.8149	0.552	-0.087
Mof_O 	O 	0.9885	0.8756	0.6033	-0.109
Mof_Zn	Zn	0.20388	0.51403	0.46135	1.192
Mof_C 	C 	0.0395	0.4592	0.2987	-0.046
Mof_H 	H 	0.0977	0.437	0.3004	0.014
Mof_H 	H 	0.0098	0.4444	0.343	0.084
Mof_C 	C 	0.9839	0.5442	0.3375	-0.078
Mof_H 	H 	0.0014	0.581	0.3543	0.069
Mof_H 	H 	0.9641	0.5281	0.3874	-0.034
Mof_C 	C 	0.1082	0.5408	0.2602	-0.04
Mof_H 	H 	0.1652	0.5214	0.2519	-0.004
Mof_H 	H 	0.1328	0.5763	0.2819	0.076
Mof_N 	N 	0.5657	0.7836	0.6461	-0.005
Mof_N 	N 	0.066	0.7178	0.7229	-0.029
Mof_O 	O 	0.0318	0.7608	0.7364	-0.044
Mof_O 	O 	0.5657	0.7367	0.6639	-0.068
Mof_O 	O 	0.4793	0.8057	0.5988	-0.066
Mof_O 	O 	0.5	0.1737	0.75	-0.105
Mof_O 	O 	-4.71795e-17	0.6737	0.75	-0.104
Mof_N 	N 	0.5786	0.98471	0.8307	-0.211
Mof_O 	O 	0.6239	0.92918	0.0408	-0.354
Mof_O 	O 	0.7574	0.91119	0.998	-0.414
Mof_C 	C 	0.8239	0.6871	0.3164	0.094
Mof_C 	C 	0.6399	0.8305	0.1307	-0.098
Mof_H 	H 	0.5866	0.8533	0.1302	0.103
Mof_C 	C 	0.6497	0.782	0.1758	0.108
Mof_C 	C 	0.6941	0.8998	0.0391	0.288
Mof_C 	C 	0.7396	0.6957	0.2332	-0.012
Mof_C 	C 	0.7844	0.8112	0.0879	-0.096
Mof_H 	H 	0.8299	0.8205	0.0573	0.12
Mof_C 	C 	0.8258	0.6406	0.3699	-0.091
Mof_H 	H 	0.8819	0.6348	0.4272	0.103
Mof_C 	C 	0.7066	0.8456	0.0868	0.027
Mof_C 	C 	0.7956	0.7622	0.1349	0.108
Mof_C 	C 	0.7274	0.7464	0.1796	-0.016
Mof_O 	O 	0.8222	0.5529	0.4791	-0.452
Mof_O 	O 	0.6832	0.5201	0.3694	-0.333
Mof_C 	C 	0.7478	0.6039	0.3398	0.006
Mof_C 	C 	0.6613	0.6561	0.2044	0.103
Mof_C 	C 	0.6656	0.6112	0.2567	-0.103
Mof_H 	H 	0.6127	0.586	0.2355	0.104
Mof_C 	C 	0.7522	0.5539	0.4014	0.32
Mof_C 	C 	0.6012	0.014	0.7504	-0.072
Mof_H 	H 	0.6635	0.9995	0.7437	0.063
Mof_H 	H 	0.6134	0.0513	0.7667	0.042
Mof_C 	C 	0.4903	0.0082	0.8432	0.018
Mof_H 	H 	0.4696	0.9864	0.8869	0.084
Mof_H 	H 	0.5096	0.0428	0.8725	-0.046
Mof_C 	C 	0.5516	0.93	0.793	0.02
Mof_H 	H 	0.6066	0.916	0.7735	-0.067
Mof_H 	H 	0.5457	0.9073	0.8432	0.008
Mof_N 	N 	0.5656	0.6539	0.1143	-0.01
Mof_N 	N 	0.891	0.7332	0.1301	-0.005
Mof_O 	O 	0.9591	0.7543	0.1131	-0.045
Mof_O 	O 	0.8919	0.6866	0.146	-0.088
Mof_O 	O 	0.5643	0.6851	0.052	-0.087
Mof_O 	O 	0.4885	0.6244	0.1033	-0.107
Mof_Zn	Zn	0.70388	0.98597	0.96135	1.192
Mof_C 	C 	0.5395	0.0408	0.7987	-0.06
Mof_H 	H 	0.5977	0.063	0.8004	0.017
Mof_H 	H 	0.5098	0.0556	0.843	0.095
Mof_C 	C 	0.4839	0.9558	0.8375	-0.065
Mof_H 	H 	0.5014	0.919	0.8543	0.061
Mof_H 	H 	0.4641	0.9719	0.8874	-0.037
Mof_C 	C 	0.6082	0.9592	0.7602	-0.015
Mof_H 	H 	0.6652	0.9786	0.7519	-0.032
Mof_H 	H 	0.6328	0.9237	0.7819	0.095
Mof_N 	N 	0.0657	0.7164	0.1461	-0.004
Mof_N 	N 	0.566	0.7822	0.2229	-0.028
Mof_O 	O 	0.5318	0.7392	0.2364	-0.046
Mof_O 	O 	0.0657	0.7633	0.1639	-0.066
Mof_O 	O 	0.9793	0.6943	0.0988	-0.068
Mof_N 	N 	0.0786	0.48471	0.8307	-0.209
Mof_O 	O 	0.1239	0.42918	0.0408	-0.353
Mof_O 	O 	0.2574	0.41119	0.998	-0.414
Mof_C 	C 	0.3239	0.1871	0.3164	0.095
Mof_C 	C 	0.1399	0.3305	0.1307	-0.098
Mof_H 	H 	0.0866	0.3533	0.1302	0.104
Mof_C 	C 	0.1497	0.282	0.1758	0.109
Mof_C 	C 	0.1941	0.3998	0.0391	0.288
Mof_C 	C 	0.2396	0.1957	0.2332	-0.012
Mof_C 	C 	0.2844	0.3112	0.0879	-0.097
Mof_H 	H 	0.3299	0.3205	0.0573	0.121
Mof_C 	C 	0.3258	0.1406	0.3699	-0.091
Mof_H 	H 	0.3819	0.1348	0.4272	0.104
Mof_C 	C 	0.2066	0.3456	0.0868	0.027
Mof_C 	C 	0.2956	0.2622	0.1349	0.108
Mof_C 	C 	0.2274	0.2464	0.1796	-0.016
Mof_O 	O 	0.3222	0.0529	0.4791	-0.452
Mof_O 	O 	0.1832	0.0201	0.3694	-0.332
Mof_C 	C 	0.2478	0.1039	0.3398	0.006
Mof_C 	C 	0.1613	0.1561	0.2044	0.104
Mof_C 	C 	0.1656	0.1112	0.2567	-0.103
Mof_H 	H 	0.1127	0.086	0.2355	0.105
Mof_C 	C 	0.2522	0.0539	0.4014	0.32
Mof_C 	C 	0.1012	0.514	0.7504	-0.063
Mof_H 	H 	0.1635	0.4995	0.7437	0.047
Mof_H 	H 	0.1134	0.5513	0.7667	0.039
Mof_C 	C 	0.9903	0.5082	0.8432	0.012
Mof_H 	H 	0.9696	0.4864	0.8869	0.085
Mof_H 	H 	0.0096	0.5428	0.8725	-0.039
Mof_C 	C 	0.0516	0.43	0.793	0.026
Mof_H 	H 	0.1066	0.416	0.7735	-0.052
Mof_H 	H 	0.0457	0.4073	0.8432	0.004
Mof_N 	N 	0.0656	0.1539	0.1143	-0.009
Mof_N 	N 	0.391	0.2332	0.1301	-0.006
Mof_O 	O 	0.4591	0.2543	0.1131	-0.043
Mof_O 	O 	0.3919	0.1866	0.146	-0.088
Mof_O 	O 	0.0643	0.1851	0.052	-0.087
Mof_O 	O 	0.9885	0.1244	0.1033	-0.11
Mof_Zn	Zn	0.20388	0.48597	0.96135	1.192
Mof_C 	C 	0.0395	0.5408	0.7987	-0.051
Mof_H 	H 	0.0977	0.563	0.8004	0.015
Mof_H 	H 	0.0098	0.5556	0.843	0.088
Mof_C 	C 	0.9839	0.4558	0.8375	-0.073
Mof_H 	H 	0.0014	0.419	0.8543	0.066
Mof_H 	H 	0.9641	0.4719	0.8874	-0.035
Mof_C 	C 	0.1082	0.4592	0.7602	-0.032
Mof_H 	H 	0.1652	0.4786	0.7519	-0.013
Mof_H 	H 	0.1328	0.4237	0.7819	0.082
Mof_N 	N 	0.5657	0.2164	0.1461	-0.005
Mof_N 	N 	0.066	0.2822	0.2229	-0.029
Mof_O 	O 	0.0318	0.2392	0.2364	-0.043
Mof_O 	O 	0.5657	0.2633	0.1639	-0.068
Mof_O 	O 	0.4793	0.1943	0.0988	-0.067
Mof_N 	N 	0.4214	0.98471	0.6693	-0.211
Mof_O 	O 	0.3761	0.92918	0.4592	-0.354
Mof_O 	O 	0.2426	0.91119	0.502	-0.414
Mof_C 	C 	0.1761	0.6871	0.1836	0.095
Mof_C 	C 	0.3601	0.8305	0.3693	-0.098
Mof_H 	H 	0.4134	0.8533	0.3698	0.103
Mof_C 	C 	0.3503	0.782	0.3242	0.108
Mof_C 	C 	0.3059	0.8998	0.4609	0.288
Mof_C 	C 	0.2604	0.6957	0.2668	-0.012
Mof_C 	C 	0.2156	0.8112	0.4121	-0.096
Mof_H 	H 	0.1701	0.8205	0.4427	0.121
Mof_C 	C 	0.1742	0.6406	0.1301	-0.091
Mof_H 	H 	0.1181	0.6348	0.0728	0.104
Mof_C 	C 	0.2934	0.8456	0.4132	0.027
Mof_C 	C 	0.2044	0.7622	0.3651	0.108
Mof_C 	C 	0.2726	0.7464	0.3204	-0.016
Mof_O 	O 	0.1778	0.5529	0.0209	-0.451
Mof_O 	O 	0.3168	0.5201	0.1306	-0.332
Mof_C 	C 	0.2522	0.6039	0.1602	0.006
Mof_C 	C 	0.3387	0.6561	0.2956	0.104
Mof_C 	C 	0.3344	0.6112	0.2433	-0.103
Mof_H 	H 	0.3873	0.586	0.2645	0.104
Mof_C 	C 	0.2478	0.5539	0.0986	0.32
Mof_C 	C 	0.3988	0.014	0.7496	-0.072
Mof_H 	H 	0.3365	0.9995	0.7563	0.063
Mof_H 	H 	0.3866	0.0513	0.7333	0.042
Mof_C 	C 	0.5097	0.0082	0.6568	0.018
Mof_H 	H 	0.5304	0.9864	0.6131	0.084
Mof_H 	H 	0.4904	0.0428	0.6275	-0.046
Mof_C 	C 	0.4484	0.93	0.707	0.02
Mof_H 	H 	0.3934	0.916	0.7265	-0.067
Mof_H 	H 	0.4543	0.9073	0.6568	0.008
Mof_N 	N 	0.4344	0.6539	0.3857	-0.01
Mof_N 	N 	0.109	0.7332	0.3699	-0.006
Mof_O 	O 	0.0409	0.7543	0.3869	-0.042
Mof_O 	O 	0.1081	0.6866	0.354	-0.088
Mof_O 	O 	0.4357	0.6851	0.448	-0.087
Mof_O 	O 	0.5115	0.6244	0.3967	-0.107
Mof_Zn	Zn	0.29612	0.98597	0.53865	1.192
Mof_C 	C 	0.4605	0.0408	0.7013	-0.059
Mof_H 	H 	0.4023	0.063	0.6996	0.016
Mof_H 	H 	0.4902	0.0556	0.657	0.095
Mof_C 	C 	0.5161	0.9558	0.6625	-0.066
Mof_H 	H 	0.4986	0.919	0.6457	0.061
Mof_H 	H 	0.5359	0.9719	0.6126	-0.036
Mof_C 	C 	0.3918	0.9592	0.7398	-0.016
Mof_H 	H 	0.3348	0.9786	0.7481	-0.031
Mof_H 	H 	0.3672	0.9237	0.7181	0.095
Mof_N 	N 	0.9343	0.7164	0.3539	-0.006
Mof_N 	N 	0.434	0.7822	0.2771	-0.028
Mof_O 	O 	0.4682	0.7392	0.2636	-0.046
Mof_O 	O 	0.9343	0.7633	0.3361	-0.069
Mof_O 	O 	0.0207	0.6943	0.4012	-0.065
Mof_N 	N 	0.9214	0.48471	0.6693	-0.212
Mof_O 	O 	0.8761	0.42918	0.4592	-0.355
Mof_O 	O 	0.7426	0.41119	0.502	-0.415
Mof_C 	C 	0.6761	0.1871	0.1836	0.094
Mof_C 	C 	0.8601	0.3305	0.3693	-0.098
Mof_H 	H 	0.9134	0.3533	0.3698	0.102
Mof_C 	C 	0.8503	0.282	0.3242	0.108
Mof_C 	C 	0.8059	0.3998	0.4609	0.288
Mof_C 	C 	0.7604	0.1957	0.2668	-0.012
Mof_C 	C 	0.7156	0.3112	0.4121	-0.096
Mof_H 	H 	0.6701	0.3205	0.4427	0.12
Mof_C 	C 	0.6742	0.1406	0.1301	-0.091
Mof_H 	H 	0.6181	0.1348	0.0728	0.103
Mof_C 	C 	0.7934	0.3456	0.4132	0.026
Mof_C 	C 	0.7044	0.2622	0.3651	0.108
Mof_C 	C 	0.7726	0.2464	0.3204	-0.016
Mof_O 	O 	0.6778	0.0529	0.0209	-0.452
Mof_O 	O 	0.8168	0.0201	0.1306	-0.333
Mof_C 	C 	0.7522	0.1039	0.1602	0.006
Mof_C 	C 	0.8387	0.1561	0.2956	0.103
Mof_C 	C 	0.8344	0.1112	0.2433	-0.103
Mof_H 	H 	0.8873	0.086	0.2645	0.103
Mof_C 	C 	0.7478	0.0539	0.0986	0.32
Mof_C 	C 	0.8988	0.514	0.7496	-0.079
Mof_H 	H 	0.8365	0.4995	0.7563	0.076
Mof_H 	H 	0.8866	0.5513	0.7333	0.043
Mof_C 	C 	0.0097	0.5082	0.6568	0.023
Mof_H 	H 	0.0304	0.4864	0.6131	0.081
Mof_H 	H 	0.9904	0.5428	0.6275	-0.054
Mof_C 	C 	0.9484	0.43	0.707	0.014
Mof_H 	H 	0.8934	0.416	0.7265	-0.081
Mof_H 	H 	0.9543	0.4073	0.6568	0.013
Mof_N 	N 	0.9344	0.1539	0.3857	-0.011
Mof_N 	N 	0.609	0.2332	0.3699	-0.006
Mof_O 	O 	0.5409	0.2543	0.3869	-0.043
Mof_O 	O 	0.6081	0.1866	0.354	-0.088
Mof_O 	O 	0.9357	0.1851	0.448	-0.088
Mof_O 	O 	0.0115	0.1244	0.3967	-0.106
Mof_Zn	Zn	0.79612	0.48597	0.53865	1.192
Mof_C 	C 	0.9605	0.5408	0.7013	-0.07
Mof_H 	H 	0.9023	0.563	0.6996	0.019
Mof_H 	H 	0.9902	0.5556	0.657	0.103
Mof_C 	C 	0.0161	0.4558	0.6625	-0.056
Mof_H 	H 	0.9986	0.419	0.6457	0.055
Mof_H 	H 	0.0359	0.4719	0.6126	-0.037
Mof_C 	C 	0.8918	0.4592	0.7398	-0.003
Mof_H 	H 	0.8348	0.4786	0.7481	-0.046
Mof_H 	H 	0.8672	0.4237	0.7181	0.107
Mof_N 	N 	0.4343	0.2164	0.3539	-0.005
Mof_N 	N 	0.934	0.2822	0.2771	-0.029
Mof_O 	O 	0.9682	0.2392	0.2636	-0.049
Mof_O 	O 	0.4343	0.2633	0.3361	-0.068
Mof_O 	O 	0.5207	0.1943	0.4012	-0.066
Mof_O 	O 	0.5	0.8263	0.25	-0.105
Mof_O 	O 	-2.35898e-17	0.3263	0.25	-0.104
_end
