data_functionalizedCrystal
_audit_creation_method	'EQeq! by Chris Wilmer'
_symmetry_space_group_name_H-M	'P1'
_symmetry_Int_Tables_number	1
_symmetry_cell_setting	triclinic
loop_
_symmetry_equiv_pos_as_xyz
  x,y,z
_cell_length_a	58.2688
_cell_length_b	58.2688
_cell_length_c	58.2688
_cell_angle_alpha	109.471
_cell_angle_beta	109.471
_cell_angle_gamma	109.471
loop_
_atom_site_label
_atom_site_type_symbol
_atom_site_fract_x
_atom_site_fract_y
_atom_site_fract_z
_atom_site_charge
Mof_O 	O 	0.62717	0.40953	0.8241	-0.419
Mof_O 	O 	0.60227	0.40898	0.84667	-0.42
Mof_O 	O 	0.79475	0.35194	0.97089	-0.405
Mof_O 	O 	0.77469	0.31231	0.971	-0.412
Mof_O 	O 	0.62828	0.49511	0.65685	-0.414
Mof_O 	O 	0.66875	0.51487	0.69728	-0.412
Mof_O 	O 	0.61606	0.46742	0.81162	-0.416
Mof_O 	O 	0.59187	0.4665	0.83449	-0.413
Mof_C 	C 	0.61714	0.40221	0.83857	0.355
Mof_C 	C 	0.62213	0.37965	0.8435	-0.086
Mof_C 	C 	0.64433	0.37556	0.84293	0.01
Mof_H 	H 	0.6567	0.3869	0.839	0.041
Mof_C 	C 	0.64853	0.35569	0.84798	-0.067
Mof_H 	H 	0.6638	0.3534	0.8474	0.051
Mof_C 	C 	0.63079	0.33853	0.85396	-0.005
Mof_C 	C 	0.60895	0.3422	0.85337	-0.069
Mof_H 	H 	0.5958	0.33	0.856	0.052
Mof_C 	C 	0.60472	0.36252	0.84926	0.009
Mof_H 	H 	0.5897	0.3649	0.8504	0.039
Mof_C 	C 	0.63549	0.31589	0.85874	0.127
Mof_C 	C 	0.66198	0.32183	0.87675	-0.189
Mof_H 	H 	0.6775	0.3403	0.8864	0.093
Mof_C 	C 	0.66611	0.30081	0.88082	0.148
Mof_C 	C 	0.64369	0.27562	0.86623	-0.269
Mof_H 	H 	0.6466	0.2613	0.8687	0.113
Mof_C 	C 	0.61564	0.26723	0.84723	0.302
Mof_C 	C 	0.61235	0.28781	0.84422	-0.268
Mof_H 	H 	0.5941	0.2838	0.8321	0.115
Mof_C 	C 	0.69389	0.30834	0.90077	-0.014
Mof_C 	C 	0.71819	0.33068	0.90853	-0.066
Mof_H 	H 	0.7173	0.3423	0.9004	0.049
Mof_C 	C 	0.74385	0.33681	0.9277	0.021
Mof_H 	H 	0.7605	0.3522	0.9323	0.038
Mof_C 	C 	0.74561	0.3204	0.94057	-0.113
Mof_C 	C 	0.72189	0.29914	0.93331	0.035
Mof_H 	H 	0.7224	0.2878	0.9418	0.032
Mof_C 	C 	0.69675	0.29316	0.91401	-0.074
Mof_H 	H 	0.6802	0.2776	0.9094	0.049
Mof_C 	C 	0.77343	0.32896	0.96231	0.372
Mof_C 	C 	0.64625	0.51329	0.68206	0.358
Mof_C 	C 	0.63964	0.53424	0.69688	-0.098
Mof_C 	C 	0.61359	0.5322	0.68325	0.019
Mof_H 	H 	0.6003	0.5173	0.6646	0.04
Mof_C 	C 	0.60672	0.55144	0.69634	-0.077
Mof_H 	H 	0.5889	0.5496	0.6867	0.055
Mof_C 	C 	0.626	0.57341	0.72357	0.007
Mof_C 	C 	0.65156	0.57512	0.73754	-0.079
Mof_H 	H 	0.6647	0.5896	0.7565	0.053
Mof_C 	C 	0.658	0.55543	0.72371	0.022
Mof_H 	H 	0.6756	0.557	0.7334	0.037
Mof_C 	C 	0.61982	0.59457	0.73997	0.106
Mof_C 	C 	0.63113	0.60654	0.76913	-0.219
Mof_H 	H 	0.6439	0.602	0.7791	0.098
Mof_H 	H 	0.6363	0.6531	0.8234	0.131
Mof_C 	C 	0.61592	0.59108	0.81804	-0.233
Mof_H 	H 	0.631	0.5889	0.8169	0.105
Mof_C 	C 	0.59638	0.57099	0.81931	0.131
Mof_C 	C 	0.59898	0.5479	0.81996	-0.015
Mof_C 	C 	0.58972	0.5367	0.83442	-0.062
Mof_H 	H 	0.5824	0.5452	0.8448	0.049
Mof_C 	C 	0.59071	0.51334	0.83437	0.008
Mof_H 	H 	0.5834	0.5057	0.8441	0.043
Mof_C 	C 	0.60226	0.50068	0.82022	-0.091
Mof_C 	C 	0.61225	0.51187	0.80652	0.015
Mof_H 	H 	0.6205	0.5042	0.7969	0.04
Mof_C 	C 	0.61031	0.5352	0.80697	-0.062
Mof_H 	H 	0.6176	0.5429	0.7973	0.05
Mof_C 	C 	0.60296	0.4756	0.82172	0.368
Mof_O 	O 	0.58543	0.80307	0.1759	-0.418
Mof_O 	O 	0.56231	0.7556	0.15333	-0.42
Mof_O 	O 	0.38105	0.82386	0.02911	-0.404
Mof_O 	O 	0.34131	0.80369	0.029	-0.413
Mof_O 	O 	0.83826	0.97143	0.34315	-0.413
Mof_O 	O 	0.81759	0.97147	0.30272	-0.411
Mof_O 	O 	0.6558	0.80444	0.18838	-0.416
Mof_O 	O 	0.63201	0.75738	0.16551	-0.413
Mof_C 	C 	0.56364	0.77857	0.16143	0.355
Mof_C 	C 	0.53615	0.77863	0.1565	-0.086
Mof_C 	C 	0.53263	0.8014	0.15707	0.01
Mof_H 	H 	0.5479	0.8177	0.161	0.041
Mof_C 	C 	0.50771	0.80055	0.15202	-0.067
Mof_H 	H 	0.506	0.8164	0.1526	0.051
Mof_C 	C 	0.48457	0.77683	0.14604	-0.005
Mof_C 	C 	0.48883	0.75558	0.14663	-0.069
Mof_H 	H 	0.474	0.7398	0.144	0.051
Mof_C 	C 	0.51326	0.75546	0.15074	0.009
Mof_H 	H 	0.5145	0.7393	0.1496	0.039
Mof_C 	C 	0.45715	0.77675	0.14126	0.127
Mof_C 	C 	0.44508	0.78523	0.12325	-0.189
Mof_H 	H 	0.4539	0.7911	0.1136	0.093
Mof_C 	C 	0.41999	0.78529	0.11918	0.148
Mof_C 	C 	0.40939	0.77746	0.13377	-0.269
Mof_H 	H 	0.3926	0.7779	0.1313	0.113
Mof_C 	C 	0.42	0.76841	0.15277	0.301
Mof_C 	C 	0.44359	0.76813	0.15578	-0.268
Mof_H 	H 	0.4517	0.762	0.1679	0.115
Mof_C 	C 	0.40757	0.79312	0.09923	-0.014
Mof_C 	C 	0.42215	0.80966	0.09147	-0.067
Mof_H 	H 	0.4419	0.8169	0.0996	0.049
Mof_C 	C 	0.40911	0.81615	0.0723	0.021
Mof_H 	H 	0.4199	0.8282	0.0677	0.038
Mof_C 	C 	0.37983	0.80504	0.05943	-0.114
Mof_C 	C 	0.36583	0.78858	0.06669	0.035
Mof_H 	H 	0.346	0.7806	0.0582	0.031
Mof_C 	C 	0.37915	0.78274	0.08599	-0.074
Mof_H 	H 	0.3682	0.7708	0.0906	0.049
Mof_C 	C 	0.36665	0.81112	0.03769	0.372
Mof_C 	C 	0.83123	0.96419	0.31794	0.358
Mof_C 	C 	0.83736	0.94276	0.30312	-0.098
Mof_C 	C 	0.84895	0.93034	0.31675	0.019
Mof_H 	H 	0.8527	0.9357	0.3354	0.04
Mof_C 	C 	0.8551	0.91038	0.30366	-0.077
Mof_H 	H 	0.8629	0.9022	0.3133	0.055
Mof_C 	C 	0.84984	0.90243	0.27643	0.007
Mof_C 	C 	0.83758	0.91402	0.26246	-0.079
Mof_H 	H 	0.8331	0.9082	0.2435	0.053
Mof_C 	C 	0.83172	0.93429	0.27629	0.022
Mof_H 	H 	0.8236	0.9422	0.2666	0.037
Mof_C 	C 	0.8546	0.87985	0.26003	0.106
Mof_C 	C 	0.83741	0.862	0.23087	-0.219
Mof_H 	H 	0.8229	0.8648	0.2209	0.098
Mof_H 	H 	0.8297	0.8129	0.1766	0.131
Mof_C 	C 	0.77304	0.79788	0.18196	-0.233
Mof_H 	H 	0.772	0.8141	0.1831	0.105
Mof_C 	C 	0.75168	0.77707	0.18069	0.131
Mof_C 	C 	0.72794	0.77902	0.18004	-0.015
Mof_C 	C 	0.70228	0.7553	0.16558	-0.062
Mof_H 	H 	0.7004	0.7376	0.1552	0.049
Mof_C 	C 	0.67897	0.75634	0.16563	0.008
Mof_H 	H 	0.6616	0.7393	0.1559	0.043
Mof_C 	C 	0.68046	0.78204	0.17978	-0.091
Mof_C 	C 	0.70535	0.80573	0.19348	0.015
Mof_H 	H 	0.7073	0.8236	0.2031	0.04
Mof_C 	C 	0.72823	0.80334	0.19303	-0.062
Mof_H 	H 	0.7456	0.8203	0.2027	0.05
Mof_C 	C 	0.65388	0.78124	0.17828	0.368
Mof_O 	O 	0.41457	0.59047	0.21764	-0.418
Mof_O 	O 	0.43769	0.59102	0.19329	-0.419
Mof_O 	O 	0.61895	0.64806	0.44281	-0.404
Mof_O 	O 	0.65869	0.68769	0.46238	-0.413
Mof_O 	O 	0.16174	0.50489	0.13317	-0.414
Mof_O 	O 	0.18241	0.48513	0.15388	-0.412
Mof_O 	O 	0.3442	0.53258	0.14864	-0.416
Mof_O 	O 	0.36799	0.5335	0.12537	-0.413
Mof_C 	C 	0.43636	0.59779	0.21493	0.355
Mof_C 	C 	0.46385	0.62035	0.24248	-0.086
Mof_C 	C 	0.46737	0.62444	0.26877	0.01
Mof_H 	H 	0.4521	0.6131	0.2698	0.041
Mof_C 	C 	0.49229	0.64431	0.29284	-0.067
Mof_H 	H 	0.494	0.6466	0.3104	0.051
Mof_C 	C 	0.51543	0.66147	0.29226	-0.005
Mof_C 	C 	0.51117	0.6578	0.26675	-0.069
Mof_H 	H 	0.526	0.67	0.2658	0.051
Mof_C 	C 	0.48674	0.63748	0.2422	0.009
Mof_H 	H 	0.4855	0.6351	0.2248	0.039
Mof_C 	C 	0.54285	0.68411	0.3196	0.127
Mof_C 	C 	0.55492	0.67817	0.34015	-0.189
Mof_H 	H 	0.5461	0.6597	0.3372	0.093
Mof_C 	C 	0.58001	0.69919	0.3653	0.148
Mof_C 	C 	0.59061	0.72438	0.36807	-0.269
Mof_H 	H 	0.6074	0.7387	0.3853	0.113
Mof_C 	C 	0.58	0.73277	0.34841	0.301
Mof_C 	C 	0.55641	0.71219	0.32454	-0.268
Mof_H 	H 	0.5483	0.7162	0.3103	0.115
Mof_C 	C 	0.59243	0.69166	0.38555	-0.014
Mof_C 	C 	0.57785	0.66932	0.38751	-0.066
Mof_H 	H 	0.5581	0.6577	0.375	0.049
Mof_C 	C 	0.59089	0.66319	0.40704	0.021
Mof_H 	H 	0.5801	0.6478	0.4083	0.038
Mof_C 	C 	0.62017	0.6796	0.42521	-0.113
Mof_C 	C 	0.63417	0.70086	0.42275	0.035
Mof_H 	H 	0.654	0.7122	0.4346	0.032
Mof_C 	C 	0.62085	0.70684	0.40359	-0.074
Mof_H 	H 	0.6318	0.7224	0.4026	0.049
Mof_C 	C 	0.63335	0.67104	0.44447	0.372
Mof_C 	C 	0.16877	0.48671	0.13296	0.358
Mof_C 	C 	0.16264	0.46576	0.1054	-0.098
Mof_C 	C 	0.15105	0.4678	0.08139	0.019
Mof_H 	H 	0.1473	0.4827	0.083	0.04
Mof_C 	C 	0.1449	0.44856	0.05528	-0.077
Mof_H 	H 	0.1371	0.4504	0.0393	0.055
Mof_C 	C 	0.15016	0.42659	0.05259	0.007
Mof_C 	C 	0.16242	0.42488	0.07644	-0.079
Mof_H 	H 	0.1669	0.4104	0.0751	0.052
Mof_C 	C 	0.16828	0.44457	0.10257	0.022
Mof_H 	H 	0.1764	0.443	0.1186	0.037
Mof_C 	C 	0.1454	0.40543	0.02525	0.106
Mof_C 	C 	0.16259	0.39346	0.02459	-0.219
Mof_H 	H 	0.1771	0.398	0.0419	0.098
Mof_H 	H 	0.1703	0.3469	0.9832	0.132
Mof_C 	C 	0.22696	0.40892	0.02484	-0.234
Mof_H 	H 	0.228	0.4111	0.0421	0.105
Mof_C 	C 	0.24832	0.42901	0.02539	0.131
Mof_C 	C 	0.27206	0.4521	0.05108	-0.016
Mof_C 	C 	0.29772	0.4633	0.05302	-0.062
Mof_H 	H 	0.2996	0.4548	0.0372	0.049
Mof_C 	C 	0.32103	0.48666	0.07737	0.008
Mof_H 	H 	0.3384	0.4943	0.0777	0.043
Mof_C 	C 	0.31954	0.49932	0.10158	-0.091
Mof_C 	C 	0.29465	0.48813	0.10038	0.014
Mof_H 	H 	0.2927	0.4958	0.1163	0.04
Mof_C 	C 	0.27177	0.4648	0.07511	-0.062
Mof_H 	H 	0.2544	0.4571	0.0747	0.05
Mof_C 	C 	0.34612	0.5244	0.12736	0.368
Mof_O 	O 	0.37283	0.19693	0.78236	-0.418
Mof_O 	O 	0.39773	0.2444	0.80671	-0.419
Mof_O 	O 	0.20525	0.17614	0.55719	-0.404
Mof_O 	O 	0.22531	0.19631	0.53762	-0.413
Mof_O 	O 	0.37172	0.02857	0.86683	-0.414
Mof_O 	O 	0.33125	0.02853	0.84612	-0.412
Mof_O 	O 	0.38394	0.19556	0.85136	-0.416
Mof_O 	O 	0.40813	0.24262	0.87463	-0.413
Mof_C 	C 	0.38286	0.22143	0.78507	0.355
Mof_C 	C 	0.37787	0.22137	0.75752	-0.086
Mof_C 	C 	0.35567	0.1986	0.73123	0.01
Mof_H 	H 	0.3433	0.1823	0.7302	0.041
Mof_C 	C 	0.35147	0.19945	0.70716	-0.067
Mof_H 	H 	0.3362	0.1836	0.6896	0.051
Mof_C 	C 	0.36921	0.22317	0.70774	-0.005
Mof_C 	C 	0.39105	0.24442	0.73325	-0.069
Mof_H 	H 	0.4042	0.2602	0.7342	0.051
Mof_C 	C 	0.39528	0.24454	0.7578	0.009
Mof_H 	H 	0.4103	0.2607	0.7752	0.039
Mof_C 	C 	0.36451	0.22325	0.6804	0.127
Mof_C 	C 	0.33802	0.21477	0.65985	-0.189
Mof_H 	H 	0.3225	0.2089	0.6628	0.093
Mof_C 	C 	0.33389	0.21471	0.6347	0.148
Mof_C 	C 	0.35631	0.22254	0.63193	-0.269
Mof_H 	H 	0.3534	0.2221	0.6147	0.113
Mof_C 	C 	0.38436	0.23159	0.65159	0.301
Mof_C 	C 	0.38765	0.23187	0.67546	-0.268
Mof_H 	H 	0.4059	0.238	0.6897	0.115
Mof_C 	C 	0.30611	0.20688	0.61445	-0.014
Mof_C 	C 	0.28181	0.19034	0.61249	-0.067
Mof_H 	H 	0.2827	0.1831	0.625	0.049
Mof_C 	C 	0.25615	0.18385	0.59296	0.021
Mof_H 	H 	0.2395	0.1718	0.5917	0.038
Mof_C 	C 	0.25439	0.19496	0.57479	-0.113
Mof_C 	C 	0.27811	0.21142	0.57725	0.035
Mof_H 	H 	0.2776	0.2194	0.5654	0.031
Mof_C 	C 	0.30325	0.21726	0.59641	-0.074
Mof_H 	H 	0.3198	0.2292	0.5974	0.049
Mof_C 	C 	0.22657	0.18888	0.55553	0.372
Mof_C 	C 	0.35375	0.03581	0.86704	0.358
Mof_C 	C 	0.36036	0.05724	0.8946	-0.098
Mof_C 	C 	0.38641	0.06966	0.91861	0.019
Mof_H 	H 	0.3997	0.0643	0.917	0.04
Mof_C 	C 	0.39328	0.08962	0.94472	-0.077
Mof_H 	H 	0.4111	0.0978	0.9607	0.055
Mof_C 	C 	0.374	0.09757	0.94741	0.007
Mof_C 	C 	0.34844	0.08598	0.92356	-0.079
Mof_H 	H 	0.3353	0.0918	0.9249	0.052
Mof_C 	C 	0.342	0.06571	0.89743	0.022
Mof_H 	H 	0.3244	0.0578	0.8814	0.037
Mof_C 	C 	0.38018	0.12015	0.97475	0.107
Mof_C 	C 	0.36887	0.138	0.97541	-0.219
Mof_H 	H 	0.3561	0.1352	0.9581	0.098
Mof_H 	H 	0.3637	0.1871	0.0168	0.131
Mof_C 	C 	0.38408	0.20212	0.97516	-0.233
Mof_H 	H 	0.369	0.1859	0.9579	0.105
Mof_C 	C 	0.40362	0.22293	0.97461	0.132
Mof_C 	C 	0.40102	0.22098	0.94892	-0.016
Mof_C 	C 	0.41028	0.2447	0.94698	-0.062
Mof_H 	H 	0.4176	0.2624	0.9628	0.049
Mof_C 	C 	0.40929	0.24366	0.92263	0.008
Mof_H 	H 	0.4166	0.2607	0.9223	0.043
Mof_C 	C 	0.39774	0.21796	0.89842	-0.091
Mof_C 	C 	0.38775	0.19427	0.89962	0.014
Mof_H 	H 	0.3795	0.1764	0.8837	0.04
Mof_C 	C 	0.38969	0.19666	0.92489	-0.062
Mof_H 	H 	0.3824	0.1797	0.9253	0.05
Mof_C 	C 	0.39704	0.21876	0.87264	0.368
Mof_O 	O 	0.8241	0.62717	0.40953	-0.418
Mof_O 	O 	0.84667	0.60227	0.40898	-0.419
Mof_O 	O 	0.97089	0.79475	0.35194	-0.404
Mof_O 	O 	0.971	0.77469	0.31231	-0.412
Mof_O 	O 	0.65685	0.62828	0.49511	-0.414
Mof_O 	O 	0.69728	0.66875	0.51487	-0.412
Mof_O 	O 	0.81162	0.61606	0.46742	-0.416
Mof_O 	O 	0.83449	0.59187	0.4665	-0.413
Mof_C 	C 	0.83857	0.61714	0.40221	0.355
Mof_C 	C 	0.8435	0.62213	0.37965	-0.086
Mof_C 	C 	0.84293	0.64433	0.37556	0.01
Mof_H 	H 	0.839	0.6567	0.3869	0.041
Mof_C 	C 	0.84798	0.64853	0.35569	-0.067
Mof_H 	H 	0.8474	0.6638	0.3534	0.051
Mof_C 	C 	0.85396	0.63079	0.33853	-0.005
Mof_C 	C 	0.85337	0.60895	0.3422	-0.069
Mof_H 	H 	0.856	0.5958	0.33	0.052
Mof_C 	C 	0.84926	0.60472	0.36252	0.009
Mof_H 	H 	0.8504	0.5897	0.3649	0.039
Mof_C 	C 	0.85874	0.63549	0.31589	0.127
Mof_C 	C 	0.87675	0.66198	0.32183	-0.189
Mof_H 	H 	0.8864	0.6775	0.3403	0.093
Mof_C 	C 	0.88082	0.66611	0.30081	0.148
Mof_C 	C 	0.86623	0.64369	0.27562	-0.269
Mof_H 	H 	0.8687	0.6466	0.2613	0.113
Mof_C 	C 	0.84723	0.61564	0.26723	0.302
Mof_C 	C 	0.84422	0.61235	0.28781	-0.268
Mof_H 	H 	0.8321	0.5941	0.2838	0.115
Mof_C 	C 	0.90077	0.69389	0.30834	-0.014
Mof_C 	C 	0.90853	0.71819	0.33068	-0.066
Mof_H 	H 	0.9004	0.7173	0.3423	0.049
Mof_C 	C 	0.9277	0.74385	0.33681	0.021
Mof_H 	H 	0.9323	0.7605	0.3522	0.038
Mof_C 	C 	0.94057	0.74561	0.3204	-0.113
Mof_C 	C 	0.93331	0.72189	0.29914	0.035
Mof_H 	H 	0.9418	0.7224	0.2878	0.032
Mof_C 	C 	0.91401	0.69675	0.29316	-0.074
Mof_H 	H 	0.9094	0.6802	0.2776	0.049
Mof_C 	C 	0.96231	0.77343	0.32896	0.372
Mof_C 	C 	0.68206	0.64625	0.51329	0.358
Mof_C 	C 	0.69688	0.63964	0.53424	-0.098
Mof_C 	C 	0.68325	0.61359	0.5322	0.019
Mof_H 	H 	0.6646	0.6003	0.5173	0.04
Mof_C 	C 	0.69634	0.60672	0.55144	-0.077
Mof_H 	H 	0.6867	0.5889	0.5496	0.055
Mof_C 	C 	0.72357	0.626	0.57341	0.007
Mof_C 	C 	0.73754	0.65156	0.57512	-0.079
Mof_H 	H 	0.7565	0.6647	0.5896	0.053
Mof_C 	C 	0.72371	0.658	0.55543	0.022
Mof_H 	H 	0.7334	0.6756	0.557	0.037
Mof_C 	C 	0.73997	0.61982	0.59457	0.106
Mof_C 	C 	0.76913	0.63113	0.60654	-0.219
Mof_H 	H 	0.7791	0.6439	0.602	0.098
Mof_H 	H 	0.8234	0.6363	0.6531	0.131
Mof_C 	C 	0.81804	0.61592	0.59108	-0.233
Mof_H 	H 	0.8169	0.631	0.5889	0.105
Mof_C 	C 	0.81931	0.59638	0.57099	0.131
Mof_C 	C 	0.81996	0.59898	0.5479	-0.015
Mof_C 	C 	0.83442	0.58972	0.5367	-0.062
Mof_H 	H 	0.8448	0.5824	0.5452	0.049
Mof_C 	C 	0.83437	0.59071	0.51334	0.008
Mof_H 	H 	0.8441	0.5834	0.5057	0.043
Mof_C 	C 	0.82022	0.60226	0.50068	-0.091
Mof_C 	C 	0.80652	0.61225	0.51187	0.015
Mof_H 	H 	0.7969	0.6205	0.5042	0.04
Mof_C 	C 	0.80697	0.61031	0.5352	-0.062
Mof_H 	H 	0.7973	0.6176	0.5429	0.05
Mof_C 	C 	0.82172	0.60296	0.4756	0.368
Mof_O 	O 	0.1759	0.58543	0.80307	-0.418
Mof_O 	O 	0.15333	0.56231	0.7556	-0.42
Mof_O 	O 	0.02911	0.38105	0.82386	-0.404
Mof_O 	O 	0.029	0.34131	0.80369	-0.413
Mof_O 	O 	0.34315	0.83826	0.97143	-0.413
Mof_O 	O 	0.30272	0.81759	0.97147	-0.411
Mof_O 	O 	0.18838	0.6558	0.80444	-0.416
Mof_O 	O 	0.16551	0.63201	0.75738	-0.413
Mof_C 	C 	0.16143	0.56364	0.77857	0.355
Mof_C 	C 	0.1565	0.53615	0.77863	-0.086
Mof_C 	C 	0.15707	0.53263	0.8014	0.01
Mof_H 	H 	0.161	0.5479	0.8177	0.041
Mof_C 	C 	0.15202	0.50771	0.80055	-0.067
Mof_H 	H 	0.1526	0.506	0.8164	0.051
Mof_C 	C 	0.14604	0.48457	0.77683	-0.005
Mof_C 	C 	0.14663	0.48883	0.75558	-0.069
Mof_H 	H 	0.144	0.474	0.7398	0.051
Mof_C 	C 	0.15074	0.51326	0.75546	0.009
Mof_H 	H 	0.1496	0.5145	0.7393	0.039
Mof_C 	C 	0.14126	0.45715	0.77675	0.127
Mof_C 	C 	0.12325	0.44508	0.78523	-0.189
Mof_H 	H 	0.1136	0.4539	0.7911	0.093
Mof_C 	C 	0.11918	0.41999	0.78529	0.148
Mof_C 	C 	0.13377	0.40939	0.77746	-0.269
Mof_H 	H 	0.1313	0.3926	0.7779	0.113
Mof_C 	C 	0.15277	0.42	0.76841	0.301
Mof_C 	C 	0.15578	0.44359	0.76813	-0.268
Mof_H 	H 	0.1679	0.4517	0.762	0.115
Mof_C 	C 	0.09923	0.40757	0.79312	-0.014
Mof_C 	C 	0.09147	0.42215	0.80966	-0.067
Mof_H 	H 	0.0996	0.4419	0.8169	0.049
Mof_C 	C 	0.0723	0.40911	0.81615	0.021
Mof_H 	H 	0.0677	0.4199	0.8282	0.038
Mof_C 	C 	0.05943	0.37983	0.80504	-0.114
Mof_C 	C 	0.06669	0.36583	0.78858	0.035
Mof_H 	H 	0.0582	0.346	0.7806	0.031
Mof_C 	C 	0.08599	0.37915	0.78274	-0.074
Mof_H 	H 	0.0906	0.3682	0.7708	0.049
Mof_C 	C 	0.03769	0.36665	0.81112	0.372
Mof_C 	C 	0.31794	0.83123	0.96419	0.358
Mof_C 	C 	0.30312	0.83736	0.94276	-0.098
Mof_C 	C 	0.31675	0.84895	0.93034	0.019
Mof_H 	H 	0.3354	0.8527	0.9357	0.04
Mof_C 	C 	0.30366	0.8551	0.91038	-0.077
Mof_H 	H 	0.3133	0.8629	0.9022	0.055
Mof_C 	C 	0.27643	0.84984	0.90243	0.007
Mof_C 	C 	0.26246	0.83758	0.91402	-0.079
Mof_H 	H 	0.2435	0.8331	0.9082	0.053
Mof_C 	C 	0.27629	0.83172	0.93429	0.022
Mof_H 	H 	0.2666	0.8236	0.9422	0.037
Mof_C 	C 	0.26003	0.8546	0.87985	0.106
Mof_C 	C 	0.23087	0.83741	0.862	-0.219
Mof_H 	H 	0.2209	0.8229	0.8648	0.098
Mof_H 	H 	0.1766	0.8297	0.8129	0.131
Mof_C 	C 	0.18196	0.77304	0.79788	-0.233
Mof_H 	H 	0.1831	0.772	0.8141	0.105
Mof_C 	C 	0.18069	0.75168	0.77707	0.131
Mof_C 	C 	0.18004	0.72794	0.77902	-0.015
Mof_C 	C 	0.16558	0.70228	0.7553	-0.062
Mof_H 	H 	0.1552	0.7004	0.7376	0.049
Mof_C 	C 	0.16563	0.67897	0.75634	0.008
Mof_H 	H 	0.1559	0.6616	0.7393	0.043
Mof_C 	C 	0.17978	0.68046	0.78204	-0.091
Mof_C 	C 	0.19348	0.70535	0.80573	0.015
Mof_H 	H 	0.2031	0.7073	0.8236	0.04
Mof_C 	C 	0.19303	0.72823	0.80334	-0.062
Mof_H 	H 	0.2027	0.7456	0.8203	0.05
Mof_C 	C 	0.17828	0.65388	0.78124	0.368
Mof_O 	O 	0.21764	0.41457	0.59047	-0.418
Mof_O 	O 	0.19329	0.43769	0.59102	-0.419
Mof_O 	O 	0.44281	0.61895	0.64806	-0.404
Mof_O 	O 	0.46238	0.65869	0.68769	-0.413
Mof_O 	O 	0.13317	0.16174	0.50489	-0.414
Mof_O 	O 	0.15388	0.18241	0.48513	-0.412
Mof_O 	O 	0.14864	0.3442	0.53258	-0.416
Mof_O 	O 	0.12537	0.36799	0.5335	-0.413
Mof_C 	C 	0.21493	0.43636	0.59779	0.355
Mof_C 	C 	0.24248	0.46385	0.62035	-0.086
Mof_C 	C 	0.26877	0.46737	0.62444	0.01
Mof_H 	H 	0.2698	0.4521	0.6131	0.041
Mof_C 	C 	0.29284	0.49229	0.64431	-0.067
Mof_H 	H 	0.3104	0.494	0.6466	0.051
Mof_C 	C 	0.29226	0.51543	0.66147	-0.005
Mof_C 	C 	0.26675	0.51117	0.6578	-0.069
Mof_H 	H 	0.2658	0.526	0.67	0.051
Mof_C 	C 	0.2422	0.48674	0.63748	0.009
Mof_H 	H 	0.2248	0.4855	0.6351	0.039
Mof_C 	C 	0.3196	0.54285	0.68411	0.127
Mof_C 	C 	0.34015	0.55492	0.67817	-0.189
Mof_H 	H 	0.3372	0.5461	0.6597	0.093
Mof_C 	C 	0.3653	0.58001	0.69919	0.148
Mof_C 	C 	0.36807	0.59061	0.72438	-0.269
Mof_H 	H 	0.3853	0.6074	0.7387	0.113
Mof_C 	C 	0.34841	0.58	0.73277	0.301
Mof_C 	C 	0.32454	0.55641	0.71219	-0.268
Mof_H 	H 	0.3103	0.5483	0.7162	0.115
Mof_C 	C 	0.38555	0.59243	0.69166	-0.014
Mof_C 	C 	0.38751	0.57785	0.66932	-0.066
Mof_H 	H 	0.375	0.5581	0.6577	0.049
Mof_C 	C 	0.40704	0.59089	0.66319	0.021
Mof_H 	H 	0.4083	0.5801	0.6478	0.038
Mof_C 	C 	0.42521	0.62017	0.6796	-0.113
Mof_C 	C 	0.42275	0.63417	0.70086	0.035
Mof_H 	H 	0.4346	0.654	0.7122	0.032
Mof_C 	C 	0.40359	0.62085	0.70684	-0.074
Mof_H 	H 	0.4026	0.6318	0.7224	0.049
Mof_C 	C 	0.44447	0.63335	0.67104	0.372
Mof_C 	C 	0.13296	0.16877	0.48671	0.358
Mof_C 	C 	0.1054	0.16264	0.46576	-0.098
Mof_C 	C 	0.08139	0.15105	0.4678	0.019
Mof_H 	H 	0.083	0.1473	0.4827	0.04
Mof_C 	C 	0.05528	0.1449	0.44856	-0.077
Mof_H 	H 	0.0393	0.1371	0.4504	0.055
Mof_C 	C 	0.05259	0.15016	0.42659	0.007
Mof_C 	C 	0.07644	0.16242	0.42488	-0.079
Mof_H 	H 	0.0751	0.1669	0.4104	0.052
Mof_C 	C 	0.10257	0.16828	0.44457	0.022
Mof_H 	H 	0.1186	0.1764	0.443	0.037
Mof_C 	C 	0.02525	0.1454	0.40543	0.106
Mof_C 	C 	0.02459	0.16259	0.39346	-0.219
Mof_H 	H 	0.0419	0.1771	0.398	0.098
Mof_H 	H 	0.9832	0.1703	0.3469	0.132
Mof_C 	C 	0.02484	0.22696	0.40892	-0.234
Mof_H 	H 	0.0421	0.228	0.4111	0.105
Mof_C 	C 	0.02539	0.24832	0.42901	0.131
Mof_C 	C 	0.05108	0.27206	0.4521	-0.016
Mof_C 	C 	0.05302	0.29772	0.4633	-0.062
Mof_H 	H 	0.0372	0.2996	0.4548	0.049
Mof_C 	C 	0.07737	0.32103	0.48666	0.008
Mof_H 	H 	0.0777	0.3384	0.4943	0.043
Mof_C 	C 	0.10158	0.31954	0.49932	-0.091
Mof_C 	C 	0.10038	0.29465	0.48813	0.014
Mof_H 	H 	0.1163	0.2927	0.4958	0.04
Mof_C 	C 	0.07511	0.27177	0.4648	-0.062
Mof_H 	H 	0.0747	0.2544	0.4571	0.05
Mof_C 	C 	0.12736	0.34612	0.5244	0.368
Mof_O 	O 	0.78236	0.37283	0.19693	-0.418
Mof_O 	O 	0.80671	0.39773	0.2444	-0.419
Mof_O 	O 	0.55719	0.20525	0.17614	-0.404
Mof_O 	O 	0.53762	0.22531	0.19631	-0.413
Mof_O 	O 	0.86683	0.37172	0.02857	-0.414
Mof_O 	O 	0.84612	0.33125	0.02853	-0.412
Mof_O 	O 	0.85136	0.38394	0.19556	-0.416
Mof_O 	O 	0.87463	0.40813	0.24262	-0.413
Mof_C 	C 	0.78507	0.38286	0.22143	0.355
Mof_C 	C 	0.75752	0.37787	0.22137	-0.086
Mof_C 	C 	0.73123	0.35567	0.1986	0.01
Mof_H 	H 	0.7302	0.3433	0.1823	0.041
Mof_C 	C 	0.70716	0.35147	0.19945	-0.067
Mof_H 	H 	0.6896	0.3362	0.1836	0.051
Mof_C 	C 	0.70774	0.36921	0.22317	-0.005
Mof_C 	C 	0.73325	0.39105	0.24442	-0.069
Mof_H 	H 	0.7342	0.4042	0.2602	0.051
Mof_C 	C 	0.7578	0.39528	0.24454	0.009
Mof_H 	H 	0.7752	0.4103	0.2607	0.039
Mof_C 	C 	0.6804	0.36451	0.22325	0.127
Mof_C 	C 	0.65985	0.33802	0.21477	-0.189
Mof_H 	H 	0.6628	0.3225	0.2089	0.093
Mof_C 	C 	0.6347	0.33389	0.21471	0.148
Mof_C 	C 	0.63193	0.35631	0.22254	-0.269
Mof_H 	H 	0.6147	0.3534	0.2221	0.113
Mof_C 	C 	0.65159	0.38436	0.23159	0.301
Mof_C 	C 	0.67546	0.38765	0.23187	-0.268
Mof_H 	H 	0.6897	0.4059	0.238	0.115
Mof_C 	C 	0.61445	0.30611	0.20688	-0.014
Mof_C 	C 	0.61249	0.28181	0.19034	-0.067
Mof_H 	H 	0.625	0.2827	0.1831	0.049
Mof_C 	C 	0.59296	0.25615	0.18385	0.021
Mof_H 	H 	0.5917	0.2395	0.1718	0.038
Mof_C 	C 	0.57479	0.25439	0.19496	-0.113
Mof_C 	C 	0.57725	0.27811	0.21142	0.035
Mof_H 	H 	0.5654	0.2776	0.2194	0.031
Mof_C 	C 	0.59641	0.30325	0.21726	-0.074
Mof_H 	H 	0.5974	0.3198	0.2292	0.049
Mof_C 	C 	0.55553	0.22657	0.18888	0.372
Mof_C 	C 	0.86704	0.35375	0.03581	0.358
Mof_C 	C 	0.8946	0.36036	0.05724	-0.098
Mof_C 	C 	0.91861	0.38641	0.06966	0.019
Mof_H 	H 	0.917	0.3997	0.0643	0.04
Mof_C 	C 	0.94472	0.39328	0.08962	-0.077
Mof_H 	H 	0.9607	0.4111	0.0978	0.055
Mof_C 	C 	0.94741	0.374	0.09757	0.007
Mof_C 	C 	0.92356	0.34844	0.08598	-0.079
Mof_H 	H 	0.9249	0.3353	0.0918	0.052
Mof_C 	C 	0.89743	0.342	0.06571	0.022
Mof_H 	H 	0.8814	0.3244	0.0578	0.037
Mof_C 	C 	0.97475	0.38018	0.12015	0.107
Mof_C 	C 	0.97541	0.36887	0.138	-0.219
Mof_H 	H 	0.9581	0.3561	0.1352	0.098
Mof_H 	H 	0.0168	0.3637	0.1871	0.131
Mof_C 	C 	0.97516	0.38408	0.20212	-0.233
Mof_H 	H 	0.9579	0.369	0.1859	0.105
Mof_C 	C 	0.97461	0.40362	0.22293	0.132
Mof_C 	C 	0.94892	0.40102	0.22098	-0.016
Mof_C 	C 	0.94698	0.41028	0.2447	-0.062
Mof_H 	H 	0.9628	0.4176	0.2624	0.049
Mof_C 	C 	0.92263	0.40929	0.24366	0.008
Mof_H 	H 	0.9223	0.4166	0.2607	0.043
Mof_C 	C 	0.89842	0.39774	0.21796	-0.091
Mof_C 	C 	0.89962	0.38775	0.19427	0.014
Mof_H 	H 	0.8837	0.3795	0.1764	0.04
Mof_C 	C 	0.92489	0.38969	0.19666	-0.062
Mof_H 	H 	0.9253	0.3824	0.1797	0.05
Mof_C 	C 	0.87264	0.39704	0.21876	0.368
Mof_O 	O 	0.40953	0.8241	0.62717	-0.418
Mof_O 	O 	0.40898	0.84667	0.60227	-0.419
Mof_O 	O 	0.35194	0.97089	0.79475	-0.404
Mof_O 	O 	0.31231	0.971	0.77469	-0.412
Mof_O 	O 	0.49511	0.65685	0.62828	-0.414
Mof_O 	O 	0.51487	0.69728	0.66875	-0.412
Mof_O 	O 	0.46742	0.81162	0.61606	-0.416
Mof_O 	O 	0.4665	0.83449	0.59187	-0.413
Mof_C 	C 	0.40221	0.83857	0.61714	0.355
Mof_C 	C 	0.37965	0.8435	0.62213	-0.086
Mof_C 	C 	0.37556	0.84293	0.64433	0.01
Mof_H 	H 	0.3869	0.839	0.6567	0.041
Mof_C 	C 	0.35569	0.84798	0.64853	-0.067
Mof_H 	H 	0.3534	0.8474	0.6638	0.051
Mof_C 	C 	0.33853	0.85396	0.63079	-0.005
Mof_C 	C 	0.3422	0.85337	0.60895	-0.069
Mof_H 	H 	0.33	0.856	0.5958	0.052
Mof_C 	C 	0.36252	0.84926	0.60472	0.009
Mof_H 	H 	0.3649	0.8504	0.5897	0.039
Mof_C 	C 	0.31589	0.85874	0.63549	0.127
Mof_C 	C 	0.32183	0.87675	0.66198	-0.189
Mof_H 	H 	0.3403	0.8864	0.6775	0.093
Mof_C 	C 	0.30081	0.88082	0.66611	0.148
Mof_C 	C 	0.27562	0.86623	0.64369	-0.269
Mof_H 	H 	0.2613	0.8687	0.6466	0.113
Mof_C 	C 	0.26723	0.84723	0.61564	0.302
Mof_C 	C 	0.28781	0.84422	0.61235	-0.268
Mof_H 	H 	0.2838	0.8321	0.5941	0.115
Mof_C 	C 	0.30834	0.90077	0.69389	-0.014
Mof_C 	C 	0.33068	0.90853	0.71819	-0.066
Mof_H 	H 	0.3423	0.9004	0.7173	0.049
Mof_C 	C 	0.33681	0.9277	0.74385	0.021
Mof_H 	H 	0.3522	0.9323	0.7605	0.038
Mof_C 	C 	0.3204	0.94057	0.74561	-0.113
Mof_C 	C 	0.29914	0.93331	0.72189	0.035
Mof_H 	H 	0.2878	0.9418	0.7224	0.032
Mof_C 	C 	0.29316	0.91401	0.69675	-0.074
Mof_H 	H 	0.2776	0.9094	0.6802	0.049
Mof_C 	C 	0.32896	0.96231	0.77343	0.372
Mof_C 	C 	0.51329	0.68206	0.64625	0.358
Mof_C 	C 	0.53424	0.69688	0.63964	-0.098
Mof_C 	C 	0.5322	0.68325	0.61359	0.019
Mof_H 	H 	0.5173	0.6646	0.6003	0.04
Mof_C 	C 	0.55144	0.69634	0.60672	-0.077
Mof_H 	H 	0.5496	0.6867	0.5889	0.055
Mof_C 	C 	0.57341	0.72357	0.626	0.007
Mof_C 	C 	0.57512	0.73754	0.65156	-0.079
Mof_H 	H 	0.5896	0.7565	0.6647	0.053
Mof_C 	C 	0.55543	0.72371	0.658	0.022
Mof_H 	H 	0.557	0.7334	0.6756	0.037
Mof_C 	C 	0.59457	0.73997	0.61982	0.106
Mof_C 	C 	0.60654	0.76913	0.63113	-0.219
Mof_H 	H 	0.602	0.7791	0.6439	0.098
Mof_H 	H 	0.6531	0.8234	0.6363	0.131
Mof_C 	C 	0.59108	0.81804	0.61592	-0.233
Mof_H 	H 	0.5889	0.8169	0.631	0.105
Mof_C 	C 	0.57099	0.81931	0.59638	0.131
Mof_C 	C 	0.5479	0.81996	0.59898	-0.015
Mof_C 	C 	0.5367	0.83442	0.58972	-0.062
Mof_H 	H 	0.5452	0.8448	0.5824	0.049
Mof_C 	C 	0.51334	0.83437	0.59071	0.008
Mof_H 	H 	0.5057	0.8441	0.5834	0.043
Mof_C 	C 	0.50068	0.82022	0.60226	-0.091
Mof_C 	C 	0.51187	0.80652	0.61225	0.015
Mof_H 	H 	0.5042	0.7969	0.6205	0.04
Mof_C 	C 	0.5352	0.80697	0.61031	-0.062
Mof_H 	H 	0.5429	0.7973	0.6176	0.05
Mof_C 	C 	0.4756	0.82172	0.60296	0.368
Mof_O 	O 	0.80307	0.1759	0.58543	-0.418
Mof_O 	O 	0.7556	0.15333	0.56231	-0.42
Mof_O 	O 	0.82386	0.02911	0.38105	-0.404
Mof_O 	O 	0.80369	0.029	0.34131	-0.413
Mof_O 	O 	0.97143	0.34315	0.83826	-0.413
Mof_O 	O 	0.97147	0.30272	0.81759	-0.411
Mof_O 	O 	0.80444	0.18838	0.6558	-0.416
Mof_O 	O 	0.75738	0.16551	0.63201	-0.413
Mof_C 	C 	0.77857	0.16143	0.56364	0.355
Mof_C 	C 	0.77863	0.1565	0.53615	-0.086
Mof_C 	C 	0.8014	0.15707	0.53263	0.01
Mof_H 	H 	0.8177	0.161	0.5479	0.041
Mof_C 	C 	0.80055	0.15202	0.50771	-0.067
Mof_H 	H 	0.8164	0.1526	0.506	0.051
Mof_C 	C 	0.77683	0.14604	0.48457	-0.005
Mof_C 	C 	0.75558	0.14663	0.48883	-0.069
Mof_H 	H 	0.7398	0.144	0.474	0.051
Mof_C 	C 	0.75546	0.15074	0.51326	0.009
Mof_H 	H 	0.7393	0.1496	0.5145	0.039
Mof_C 	C 	0.77675	0.14126	0.45715	0.127
Mof_C 	C 	0.78523	0.12325	0.44508	-0.189
Mof_H 	H 	0.7911	0.1136	0.4539	0.093
Mof_C 	C 	0.78529	0.11918	0.41999	0.148
Mof_C 	C 	0.77746	0.13377	0.40939	-0.269
Mof_H 	H 	0.7779	0.1313	0.3926	0.113
Mof_C 	C 	0.76841	0.15277	0.42	0.301
Mof_C 	C 	0.76813	0.15578	0.44359	-0.268
Mof_H 	H 	0.762	0.1679	0.4517	0.115
Mof_C 	C 	0.79312	0.09923	0.40757	-0.014
Mof_C 	C 	0.80966	0.09147	0.42215	-0.067
Mof_H 	H 	0.8169	0.0996	0.4419	0.049
Mof_C 	C 	0.81615	0.0723	0.40911	0.021
Mof_H 	H 	0.8282	0.0677	0.4199	0.038
Mof_C 	C 	0.80504	0.05943	0.37983	-0.114
Mof_C 	C 	0.78858	0.06669	0.36583	0.035
Mof_H 	H 	0.7806	0.0582	0.346	0.031
Mof_C 	C 	0.78274	0.08599	0.37915	-0.074
Mof_H 	H 	0.7708	0.0906	0.3682	0.049
Mof_C 	C 	0.81112	0.03769	0.36665	0.372
Mof_C 	C 	0.96419	0.31794	0.83123	0.358
Mof_C 	C 	0.94276	0.30312	0.83736	-0.098
Mof_C 	C 	0.93034	0.31675	0.84895	0.019
Mof_H 	H 	0.9357	0.3354	0.8527	0.04
Mof_C 	C 	0.91038	0.30366	0.8551	-0.077
Mof_H 	H 	0.9022	0.3133	0.8629	0.055
Mof_C 	C 	0.90243	0.27643	0.84984	0.007
Mof_C 	C 	0.91402	0.26246	0.83758	-0.079
Mof_H 	H 	0.9082	0.2435	0.8331	0.053
Mof_C 	C 	0.93429	0.27629	0.83172	0.022
Mof_H 	H 	0.9422	0.2666	0.8236	0.037
Mof_C 	C 	0.87985	0.26003	0.8546	0.106
Mof_C 	C 	0.862	0.23087	0.83741	-0.219
Mof_H 	H 	0.8648	0.2209	0.8229	0.098
Mof_H 	H 	0.8129	0.1766	0.8297	0.131
Mof_C 	C 	0.79788	0.18196	0.77304	-0.233
Mof_H 	H 	0.8141	0.1831	0.772	0.105
Mof_C 	C 	0.77707	0.18069	0.75168	0.131
Mof_C 	C 	0.77902	0.18004	0.72794	-0.015
Mof_C 	C 	0.7553	0.16558	0.70228	-0.062
Mof_H 	H 	0.7376	0.1552	0.7004	0.049
Mof_C 	C 	0.75634	0.16563	0.67897	0.008
Mof_H 	H 	0.7393	0.1559	0.6616	0.043
Mof_C 	C 	0.78204	0.17978	0.68046	-0.091
Mof_C 	C 	0.80573	0.19348	0.70535	0.015
Mof_H 	H 	0.8236	0.2031	0.7073	0.04
Mof_C 	C 	0.80334	0.19303	0.72823	-0.062
Mof_H 	H 	0.8203	0.2027	0.7456	0.05
Mof_C 	C 	0.78124	0.17828	0.65388	0.368
Mof_O 	O 	0.59047	0.21764	0.41457	-0.418
Mof_O 	O 	0.59102	0.19329	0.43769	-0.419
Mof_O 	O 	0.64806	0.44281	0.61895	-0.404
Mof_O 	O 	0.68769	0.46238	0.65869	-0.413
Mof_O 	O 	0.50489	0.13317	0.16174	-0.414
Mof_O 	O 	0.48513	0.15388	0.18241	-0.412
Mof_O 	O 	0.53258	0.14864	0.3442	-0.416
Mof_O 	O 	0.5335	0.12537	0.36799	-0.413
Mof_C 	C 	0.59779	0.21493	0.43636	0.355
Mof_C 	C 	0.62035	0.24248	0.46385	-0.086
Mof_C 	C 	0.62444	0.26877	0.46737	0.01
Mof_H 	H 	0.6131	0.2698	0.4521	0.041
Mof_C 	C 	0.64431	0.29284	0.49229	-0.067
Mof_H 	H 	0.6466	0.3104	0.494	0.051
Mof_C 	C 	0.66147	0.29226	0.51543	-0.005
Mof_C 	C 	0.6578	0.26675	0.51117	-0.069
Mof_H 	H 	0.67	0.2658	0.526	0.051
Mof_C 	C 	0.63748	0.2422	0.48674	0.009
Mof_H 	H 	0.6351	0.2248	0.4855	0.039
Mof_C 	C 	0.68411	0.3196	0.54285	0.127
Mof_C 	C 	0.67817	0.34015	0.55492	-0.189
Mof_H 	H 	0.6597	0.3372	0.5461	0.093
Mof_C 	C 	0.69919	0.3653	0.58001	0.148
Mof_C 	C 	0.72438	0.36807	0.59061	-0.269
Mof_H 	H 	0.7387	0.3853	0.6074	0.113
Mof_C 	C 	0.73277	0.34841	0.58	0.301
Mof_C 	C 	0.71219	0.32454	0.55641	-0.268
Mof_H 	H 	0.7162	0.3103	0.5483	0.115
Mof_C 	C 	0.69166	0.38555	0.59243	-0.014
Mof_C 	C 	0.66932	0.38751	0.57785	-0.066
Mof_H 	H 	0.6577	0.375	0.5581	0.049
Mof_C 	C 	0.66319	0.40704	0.59089	0.021
Mof_H 	H 	0.6478	0.4083	0.5801	0.038
Mof_C 	C 	0.6796	0.42521	0.62017	-0.113
Mof_C 	C 	0.70086	0.42275	0.63417	0.035
Mof_H 	H 	0.7122	0.4346	0.654	0.032
Mof_C 	C 	0.70684	0.40359	0.62085	-0.074
Mof_H 	H 	0.7224	0.4026	0.6318	0.049
Mof_C 	C 	0.67104	0.44447	0.63335	0.372
Mof_C 	C 	0.48671	0.13296	0.16877	0.358
Mof_C 	C 	0.46576	0.1054	0.16264	-0.098
Mof_C 	C 	0.4678	0.08139	0.15105	0.019
Mof_H 	H 	0.4827	0.083	0.1473	0.04
Mof_C 	C 	0.44856	0.05528	0.1449	-0.077
Mof_H 	H 	0.4504	0.0393	0.1371	0.055
Mof_C 	C 	0.42659	0.05259	0.15016	0.007
Mof_C 	C 	0.42488	0.07644	0.16242	-0.079
Mof_H 	H 	0.4104	0.0751	0.1669	0.052
Mof_C 	C 	0.44457	0.10257	0.16828	0.022
Mof_H 	H 	0.443	0.1186	0.1764	0.037
Mof_C 	C 	0.40543	0.02525	0.1454	0.106
Mof_C 	C 	0.39346	0.02459	0.16259	-0.219
Mof_H 	H 	0.398	0.0419	0.1771	0.098
Mof_H 	H 	0.3469	0.9832	0.1703	0.132
Mof_C 	C 	0.40892	0.02484	0.22696	-0.234
Mof_H 	H 	0.4111	0.0421	0.228	0.105
Mof_C 	C 	0.42901	0.02539	0.24832	0.131
Mof_C 	C 	0.4521	0.05108	0.27206	-0.016
Mof_C 	C 	0.4633	0.05302	0.29772	-0.062
Mof_H 	H 	0.4548	0.0372	0.2996	0.049
Mof_C 	C 	0.48666	0.07737	0.32103	0.008
Mof_H 	H 	0.4943	0.0777	0.3384	0.043
Mof_C 	C 	0.49932	0.10158	0.31954	-0.091
Mof_C 	C 	0.48813	0.10038	0.29465	0.014
Mof_H 	H 	0.4958	0.1163	0.2927	0.04
Mof_C 	C 	0.4648	0.07511	0.27177	-0.062
Mof_H 	H 	0.4571	0.0747	0.2544	0.05
Mof_C 	C 	0.5244	0.12736	0.34612	0.368
Mof_O 	O 	0.19693	0.78236	0.37283	-0.418
Mof_O 	O 	0.2444	0.80671	0.39773	-0.419
Mof_O 	O 	0.17614	0.55719	0.20525	-0.404
Mof_O 	O 	0.19631	0.53762	0.22531	-0.413
Mof_O 	O 	0.02857	0.86683	0.37172	-0.414
Mof_O 	O 	0.02853	0.84612	0.33125	-0.412
Mof_O 	O 	0.19556	0.85136	0.38394	-0.416
Mof_O 	O 	0.24262	0.87463	0.40813	-0.413
Mof_C 	C 	0.22143	0.78507	0.38286	0.355
Mof_C 	C 	0.22137	0.75752	0.37787	-0.086
Mof_C 	C 	0.1986	0.73123	0.35567	0.01
Mof_H 	H 	0.1823	0.7302	0.3433	0.041
Mof_C 	C 	0.19945	0.70716	0.35147	-0.067
Mof_H 	H 	0.1836	0.6896	0.3362	0.051
Mof_C 	C 	0.22317	0.70774	0.36921	-0.005
Mof_C 	C 	0.24442	0.73325	0.39105	-0.069
Mof_H 	H 	0.2602	0.7342	0.4042	0.051
Mof_C 	C 	0.24454	0.7578	0.39528	0.009
Mof_H 	H 	0.2607	0.7752	0.4103	0.039
Mof_C 	C 	0.22325	0.6804	0.36451	0.127
Mof_C 	C 	0.21477	0.65985	0.33802	-0.189
Mof_H 	H 	0.2089	0.6628	0.3225	0.093
Mof_C 	C 	0.21471	0.6347	0.33389	0.148
Mof_C 	C 	0.22254	0.63193	0.35631	-0.269
Mof_H 	H 	0.2221	0.6147	0.3534	0.113
Mof_C 	C 	0.23159	0.65159	0.38436	0.301
Mof_C 	C 	0.23187	0.67546	0.38765	-0.268
Mof_H 	H 	0.238	0.6897	0.4059	0.115
Mof_C 	C 	0.20688	0.61445	0.30611	-0.014
Mof_C 	C 	0.19034	0.61249	0.28181	-0.067
Mof_H 	H 	0.1831	0.625	0.2827	0.049
Mof_C 	C 	0.18385	0.59296	0.25615	0.021
Mof_H 	H 	0.1718	0.5917	0.2395	0.038
Mof_C 	C 	0.19496	0.57479	0.25439	-0.113
Mof_C 	C 	0.21142	0.57725	0.27811	0.035
Mof_H 	H 	0.2194	0.5654	0.2776	0.031
Mof_C 	C 	0.21726	0.59641	0.30325	-0.074
Mof_H 	H 	0.2292	0.5974	0.3198	0.049
Mof_C 	C 	0.18888	0.55553	0.22657	0.372
Mof_C 	C 	0.03581	0.86704	0.35375	0.358
Mof_C 	C 	0.05724	0.8946	0.36036	-0.098
Mof_C 	C 	0.06966	0.91861	0.38641	0.019
Mof_H 	H 	0.0643	0.917	0.3997	0.04
Mof_C 	C 	0.08962	0.94472	0.39328	-0.077
Mof_H 	H 	0.0978	0.9607	0.4111	0.055
Mof_C 	C 	0.09757	0.94741	0.374	0.007
Mof_C 	C 	0.08598	0.92356	0.34844	-0.079
Mof_H 	H 	0.0918	0.9249	0.3353	0.052
Mof_C 	C 	0.06571	0.89743	0.342	0.022
Mof_H 	H 	0.0578	0.8814	0.3244	0.037
Mof_C 	C 	0.12015	0.97475	0.38018	0.107
Mof_C 	C 	0.138	0.97541	0.36887	-0.219
Mof_H 	H 	0.1352	0.9581	0.3561	0.098
Mof_H 	H 	0.1871	0.0168	0.3637	0.131
Mof_C 	C 	0.20212	0.97516	0.38408	-0.233
Mof_H 	H 	0.1859	0.9579	0.369	0.105
Mof_C 	C 	0.22293	0.97461	0.40362	0.132
Mof_C 	C 	0.22098	0.94892	0.40102	-0.016
Mof_C 	C 	0.2447	0.94698	0.41028	-0.062
Mof_H 	H 	0.2624	0.9628	0.4176	0.049
Mof_C 	C 	0.24366	0.92263	0.40929	0.008
Mof_H 	H 	0.2607	0.9223	0.4166	0.043
Mof_C 	C 	0.21796	0.89842	0.39774	-0.091
Mof_C 	C 	0.19427	0.89962	0.38775	0.014
Mof_H 	H 	0.1764	0.8837	0.3795	0.04
Mof_C 	C 	0.19666	0.92489	0.38969	-0.062
Mof_H 	H 	0.1797	0.9253	0.3824	0.05
Mof_C 	C 	0.21876	0.87264	0.39704	0.368
Mof_O 	O 	0.19693	0.41457	0.8241	-0.418
Mof_O 	O 	0.2444	0.43769	0.84667	-0.419
Mof_O 	O 	0.17614	0.61895	0.97089	-0.404
Mof_O 	O 	0.19631	0.65869	0.971	-0.412
Mof_O 	O 	0.02857	0.16174	0.65685	-0.414
Mof_O 	O 	0.02853	0.18241	0.69728	-0.412
Mof_O 	O 	0.19556	0.3442	0.81162	-0.416
Mof_O 	O 	0.24262	0.36799	0.83449	-0.413
Mof_C 	C 	0.22143	0.43636	0.83857	0.355
Mof_C 	C 	0.22137	0.46385	0.8435	-0.086
Mof_C 	C 	0.1986	0.46737	0.84293	0.01
Mof_H 	H 	0.1823	0.4521	0.839	0.041
Mof_C 	C 	0.19945	0.49229	0.84798	-0.067
Mof_H 	H 	0.1836	0.494	0.8474	0.051
Mof_C 	C 	0.22317	0.51543	0.85396	-0.005
Mof_C 	C 	0.24442	0.51117	0.85337	-0.069
Mof_H 	H 	0.2602	0.526	0.856	0.052
Mof_C 	C 	0.24454	0.48674	0.84926	0.009
Mof_H 	H 	0.2607	0.4855	0.8504	0.039
Mof_C 	C 	0.22325	0.54285	0.85874	0.127
Mof_C 	C 	0.21477	0.55492	0.87675	-0.189
Mof_H 	H 	0.2089	0.5461	0.8864	0.093
Mof_C 	C 	0.21471	0.58001	0.88082	0.148
Mof_C 	C 	0.22254	0.59061	0.86623	-0.269
Mof_H 	H 	0.2221	0.6074	0.8687	0.113
Mof_C 	C 	0.23159	0.58	0.84723	0.302
Mof_C 	C 	0.23187	0.55641	0.84422	-0.268
Mof_H 	H 	0.238	0.5483	0.8321	0.115
Mof_C 	C 	0.20688	0.59243	0.90077	-0.014
Mof_C 	C 	0.19034	0.57785	0.90853	-0.066
Mof_H 	H 	0.1831	0.5581	0.9004	0.049
Mof_C 	C 	0.18385	0.59089	0.9277	0.021
Mof_H 	H 	0.1718	0.5801	0.9323	0.038
Mof_C 	C 	0.19496	0.62017	0.94057	-0.113
Mof_C 	C 	0.21142	0.63417	0.93331	0.035
Mof_H 	H 	0.2194	0.654	0.9418	0.032
Mof_C 	C 	0.21726	0.62085	0.91401	-0.074
Mof_H 	H 	0.2292	0.6318	0.9094	0.049
Mof_C 	C 	0.18888	0.63335	0.96231	0.372
Mof_C 	C 	0.03581	0.16877	0.68206	0.358
Mof_C 	C 	0.05724	0.16264	0.69688	-0.098
Mof_C 	C 	0.06966	0.15105	0.68325	0.019
Mof_H 	H 	0.0643	0.1473	0.6646	0.039
Mof_C 	C 	0.08962	0.1449	0.69634	-0.077
Mof_H 	H 	0.0978	0.1371	0.6867	0.055
Mof_C 	C 	0.09757	0.15016	0.72357	0.007
Mof_C 	C 	0.08598	0.16242	0.73754	-0.079
Mof_H 	H 	0.0918	0.1669	0.7565	0.052
Mof_C 	C 	0.06571	0.16828	0.72371	0.022
Mof_H 	H 	0.0578	0.1764	0.7334	0.037
Mof_C 	C 	0.12015	0.1454	0.73997	0.106
Mof_C 	C 	0.138	0.16259	0.76913	-0.219
Mof_H 	H 	0.1352	0.1771	0.7791	0.098
Mof_H 	H 	0.1871	0.1703	0.8234	0.131
Mof_C 	C 	0.20212	0.22696	0.81804	-0.233
Mof_H 	H 	0.1859	0.228	0.8169	0.105
Mof_C 	C 	0.22293	0.24832	0.81931	0.131
Mof_C 	C 	0.22098	0.27206	0.81996	-0.015
Mof_C 	C 	0.2447	0.29772	0.83442	-0.062
Mof_H 	H 	0.2624	0.2996	0.8448	0.049
Mof_C 	C 	0.24366	0.32103	0.83437	0.008
Mof_H 	H 	0.2607	0.3384	0.8441	0.043
Mof_C 	C 	0.21796	0.31954	0.82022	-0.091
Mof_C 	C 	0.19427	0.29465	0.80652	0.015
Mof_H 	H 	0.1764	0.2927	0.7969	0.04
Mof_C 	C 	0.19666	0.27177	0.80697	-0.062
Mof_H 	H 	0.1797	0.2544	0.7973	0.05
Mof_C 	C 	0.21876	0.34612	0.82172	0.368
Mof_O 	O 	0.59047	0.37283	0.1759	-0.418
Mof_O 	O 	0.59102	0.39773	0.15333	-0.42
Mof_O 	O 	0.64806	0.20525	0.02911	-0.404
Mof_O 	O 	0.68769	0.22531	0.029	-0.413
Mof_O 	O 	0.50489	0.37172	0.34315	-0.414
Mof_O 	O 	0.48513	0.33125	0.30272	-0.412
Mof_O 	O 	0.53258	0.38394	0.18838	-0.416
Mof_O 	O 	0.5335	0.40813	0.16551	-0.413
Mof_C 	C 	0.59779	0.38286	0.16143	0.355
Mof_C 	C 	0.62035	0.37787	0.1565	-0.086
Mof_C 	C 	0.62444	0.35567	0.15707	0.01
Mof_H 	H 	0.6131	0.3433	0.161	0.041
Mof_C 	C 	0.64431	0.35147	0.15202	-0.067
Mof_H 	H 	0.6466	0.3362	0.1526	0.051
Mof_C 	C 	0.66147	0.36921	0.14604	-0.005
Mof_C 	C 	0.6578	0.39105	0.14663	-0.069
Mof_H 	H 	0.67	0.4042	0.144	0.051
Mof_C 	C 	0.63748	0.39528	0.15074	0.009
Mof_H 	H 	0.6351	0.4103	0.1496	0.039
Mof_C 	C 	0.68411	0.36451	0.14126	0.127
Mof_C 	C 	0.67817	0.33802	0.12325	-0.189
Mof_H 	H 	0.6597	0.3225	0.1136	0.093
Mof_C 	C 	0.69919	0.33389	0.11918	0.148
Mof_C 	C 	0.72438	0.35631	0.13377	-0.269
Mof_H 	H 	0.7387	0.3534	0.1313	0.113
Mof_C 	C 	0.73277	0.38436	0.15277	0.301
Mof_C 	C 	0.71219	0.38765	0.15578	-0.268
Mof_H 	H 	0.7162	0.4059	0.1679	0.115
Mof_C 	C 	0.69166	0.30611	0.09923	-0.014
Mof_C 	C 	0.66932	0.28181	0.09147	-0.067
Mof_H 	H 	0.6577	0.2827	0.0996	0.049
Mof_C 	C 	0.66319	0.25615	0.0723	0.021
Mof_H 	H 	0.6478	0.2395	0.0677	0.038
Mof_C 	C 	0.6796	0.25439	0.05943	-0.114
Mof_C 	C 	0.70086	0.27811	0.06669	0.035
Mof_H 	H 	0.7122	0.2776	0.0582	0.031
Mof_C 	C 	0.70684	0.30325	0.08599	-0.074
Mof_H 	H 	0.7224	0.3198	0.0906	0.049
Mof_C 	C 	0.67104	0.22657	0.03769	0.372
Mof_C 	C 	0.48671	0.35375	0.31794	0.358
Mof_C 	C 	0.46576	0.36036	0.30312	-0.098
Mof_C 	C 	0.4678	0.38641	0.31675	0.019
Mof_H 	H 	0.4827	0.3997	0.3354	0.04
Mof_C 	C 	0.44856	0.39328	0.30366	-0.077
Mof_H 	H 	0.4504	0.4111	0.3133	0.055
Mof_C 	C 	0.42659	0.374	0.27643	0.007
Mof_C 	C 	0.42488	0.34844	0.26246	-0.079
Mof_H 	H 	0.4104	0.3353	0.2435	0.052
Mof_C 	C 	0.44457	0.342	0.27629	0.022
Mof_H 	H 	0.443	0.3244	0.2666	0.037
Mof_C 	C 	0.40543	0.38018	0.26003	0.106
Mof_C 	C 	0.39346	0.36887	0.23087	-0.219
Mof_H 	H 	0.398	0.3561	0.2209	0.098
Mof_H 	H 	0.3469	0.3637	0.1766	0.131
Mof_C 	C 	0.40892	0.38408	0.18196	-0.233
Mof_H 	H 	0.4111	0.369	0.1831	0.105
Mof_C 	C 	0.42901	0.40362	0.18069	0.131
Mof_C 	C 	0.4521	0.40102	0.18004	-0.015
Mof_C 	C 	0.4633	0.41028	0.16558	-0.062
Mof_H 	H 	0.4548	0.4176	0.1552	0.049
Mof_C 	C 	0.48666	0.40929	0.16563	0.008
Mof_H 	H 	0.4943	0.4166	0.1559	0.043
Mof_C 	C 	0.49932	0.39774	0.17978	-0.091
Mof_C 	C 	0.48813	0.38775	0.19348	0.015
Mof_H 	H 	0.4958	0.3795	0.2031	0.04
Mof_C 	C 	0.4648	0.38969	0.19303	-0.063
Mof_H 	H 	0.4571	0.3824	0.2027	0.05
Mof_C 	C 	0.5244	0.39704	0.17828	0.368
Mof_O 	O 	0.80307	0.62717	0.21764	-0.418
Mof_O 	O 	0.7556	0.60227	0.19329	-0.419
Mof_O 	O 	0.82386	0.79475	0.44281	-0.404
Mof_O 	O 	0.80369	0.77469	0.46238	-0.413
Mof_O 	O 	0.97143	0.62828	0.13317	-0.413
Mof_O 	O 	0.97147	0.66875	0.15388	-0.411
Mof_O 	O 	0.80444	0.61606	0.14864	-0.416
Mof_O 	O 	0.75738	0.59187	0.12537	-0.413
Mof_C 	C 	0.77857	0.61714	0.21493	0.355
Mof_C 	C 	0.77863	0.62213	0.24248	-0.086
Mof_C 	C 	0.8014	0.64433	0.26877	0.01
Mof_H 	H 	0.8177	0.6567	0.2698	0.041
Mof_C 	C 	0.80055	0.64853	0.29284	-0.067
Mof_H 	H 	0.8164	0.6638	0.3104	0.051
Mof_C 	C 	0.77683	0.63079	0.29226	-0.005
Mof_C 	C 	0.75558	0.60895	0.26675	-0.069
Mof_H 	H 	0.7398	0.5958	0.2658	0.051
Mof_C 	C 	0.75546	0.60472	0.2422	0.009
Mof_H 	H 	0.7393	0.5897	0.2248	0.039
Mof_C 	C 	0.77675	0.63549	0.3196	0.127
Mof_C 	C 	0.78523	0.66198	0.34015	-0.189
Mof_H 	H 	0.7911	0.6775	0.3372	0.093
Mof_C 	C 	0.78529	0.66611	0.3653	0.148
Mof_C 	C 	0.77746	0.64369	0.36807	-0.269
Mof_H 	H 	0.7779	0.6466	0.3853	0.113
Mof_C 	C 	0.76841	0.61564	0.34841	0.301
Mof_C 	C 	0.76813	0.61235	0.32454	-0.268
Mof_H 	H 	0.762	0.5941	0.3103	0.115
Mof_C 	C 	0.79312	0.69389	0.38555	-0.014
Mof_C 	C 	0.80966	0.71819	0.38751	-0.066
Mof_H 	H 	0.8169	0.7173	0.375	0.049
Mof_C 	C 	0.81615	0.74385	0.40704	0.021
Mof_H 	H 	0.8282	0.7605	0.4083	0.038
Mof_C 	C 	0.80504	0.74561	0.42521	-0.113
Mof_C 	C 	0.78858	0.72189	0.42275	0.035
Mof_H 	H 	0.7806	0.7224	0.4346	0.032
Mof_C 	C 	0.78274	0.69675	0.40359	-0.074
Mof_H 	H 	0.7708	0.6802	0.4026	0.049
Mof_C 	C 	0.81112	0.77343	0.44447	0.372
Mof_C 	C 	0.96419	0.64625	0.13296	0.358
Mof_C 	C 	0.94276	0.63964	0.1054	-0.098
Mof_C 	C 	0.93034	0.61359	0.08139	0.019
Mof_H 	H 	0.9357	0.6003	0.083	0.04
Mof_C 	C 	0.91038	0.60672	0.05528	-0.077
Mof_H 	H 	0.9022	0.5889	0.0393	0.055
Mof_C 	C 	0.90243	0.626	0.05259	0.007
Mof_C 	C 	0.91402	0.65156	0.07644	-0.078
Mof_H 	H 	0.9082	0.6647	0.0751	0.052
Mof_C 	C 	0.93429	0.658	0.10257	0.022
Mof_H 	H 	0.9422	0.6756	0.1186	0.037
Mof_C 	C 	0.87985	0.61982	0.02525	0.106
Mof_C 	C 	0.862	0.63113	0.02459	-0.219
Mof_H 	H 	0.8648	0.6439	0.0419	0.098
Mof_H 	H 	0.8129	0.6363	0.9832	0.132
Mof_C 	C 	0.79788	0.61592	0.02484	-0.234
Mof_H 	H 	0.8141	0.631	0.0421	0.105
Mof_C 	C 	0.77707	0.59638	0.02539	0.131
Mof_C 	C 	0.77902	0.59898	0.05108	-0.016
Mof_C 	C 	0.7553	0.58972	0.05302	-0.062
Mof_H 	H 	0.7376	0.5824	0.0372	0.049
Mof_C 	C 	0.75634	0.59071	0.07737	0.008
Mof_H 	H 	0.7393	0.5834	0.0777	0.043
Mof_C 	C 	0.78204	0.60226	0.10158	-0.091
Mof_C 	C 	0.80573	0.61225	0.10038	0.014
Mof_H 	H 	0.8236	0.6205	0.1163	0.04
Mof_C 	C 	0.80334	0.61031	0.07511	-0.062
Mof_H 	H 	0.8203	0.6176	0.0747	0.05
Mof_C 	C 	0.78124	0.60296	0.12736	0.368
Mof_O 	O 	0.40953	0.58543	0.78236	-0.418
Mof_O 	O 	0.40898	0.56231	0.80671	-0.419
Mof_O 	O 	0.35194	0.38105	0.55719	-0.404
Mof_O 	O 	0.31231	0.34131	0.53762	-0.413
Mof_O 	O 	0.49511	0.83826	0.86683	-0.414
Mof_O 	O 	0.51487	0.81759	0.84612	-0.412
Mof_O 	O 	0.46742	0.6558	0.85136	-0.416
Mof_O 	O 	0.4665	0.63201	0.87463	-0.413
Mof_C 	C 	0.40221	0.56364	0.78507	0.355
Mof_C 	C 	0.37965	0.53615	0.75752	-0.086
Mof_C 	C 	0.37556	0.53263	0.73123	0.01
Mof_H 	H 	0.3869	0.5479	0.7302	0.041
Mof_C 	C 	0.35569	0.50771	0.70716	-0.067
Mof_H 	H 	0.3534	0.506	0.6896	0.051
Mof_C 	C 	0.33853	0.48457	0.70774	-0.005
Mof_C 	C 	0.3422	0.48883	0.73325	-0.069
Mof_H 	H 	0.33	0.474	0.7342	0.051
Mof_C 	C 	0.36252	0.51326	0.7578	0.009
Mof_H 	H 	0.3649	0.5145	0.7752	0.039
Mof_C 	C 	0.31589	0.45715	0.6804	0.127
Mof_C 	C 	0.32183	0.44508	0.65985	-0.189
Mof_H 	H 	0.3403	0.4539	0.6628	0.093
Mof_C 	C 	0.30081	0.41999	0.6347	0.148
Mof_C 	C 	0.27562	0.40939	0.63193	-0.269
Mof_H 	H 	0.2613	0.3926	0.6147	0.113
Mof_C 	C 	0.26723	0.42	0.65159	0.301
Mof_C 	C 	0.28781	0.44359	0.67546	-0.268
Mof_H 	H 	0.2838	0.4517	0.6897	0.115
Mof_C 	C 	0.30834	0.40757	0.61445	-0.014
Mof_C 	C 	0.33068	0.42215	0.61249	-0.066
Mof_H 	H 	0.3423	0.4419	0.625	0.049
Mof_C 	C 	0.33681	0.40911	0.59296	0.021
Mof_H 	H 	0.3522	0.4199	0.5917	0.038
Mof_C 	C 	0.3204	0.37983	0.57479	-0.113
Mof_C 	C 	0.29914	0.36583	0.57725	0.035
Mof_H 	H 	0.2878	0.346	0.5654	0.032
Mof_C 	C 	0.29316	0.37915	0.59641	-0.074
Mof_H 	H 	0.2776	0.3682	0.5974	0.049
Mof_C 	C 	0.32896	0.36665	0.55553	0.372
Mof_C 	C 	0.51329	0.83123	0.86704	0.358
Mof_C 	C 	0.53424	0.83736	0.8946	-0.098
Mof_C 	C 	0.5322	0.84895	0.91861	0.019
Mof_H 	H 	0.5173	0.8527	0.917	0.04
Mof_C 	C 	0.55144	0.8551	0.94472	-0.077
Mof_H 	H 	0.5496	0.8629	0.9607	0.055
Mof_C 	C 	0.57341	0.84984	0.94741	0.007
Mof_C 	C 	0.57512	0.83758	0.92356	-0.079
Mof_H 	H 	0.5896	0.8331	0.9249	0.053
Mof_C 	C 	0.55543	0.83172	0.89743	0.022
Mof_H 	H 	0.557	0.8236	0.8814	0.037
Mof_C 	C 	0.59457	0.8546	0.97475	0.107
Mof_C 	C 	0.60654	0.83741	0.97541	-0.219
Mof_H 	H 	0.602	0.8229	0.9581	0.098
Mof_H 	H 	0.6531	0.8297	0.0168	0.131
Mof_C 	C 	0.59108	0.77304	0.97516	-0.233
Mof_H 	H 	0.5889	0.772	0.9579	0.105
Mof_C 	C 	0.57099	0.75168	0.97461	0.132
Mof_C 	C 	0.5479	0.72794	0.94892	-0.016
Mof_C 	C 	0.5367	0.70228	0.94698	-0.062
Mof_H 	H 	0.5452	0.7004	0.9628	0.049
Mof_C 	C 	0.51334	0.67897	0.92263	0.008
Mof_H 	H 	0.5057	0.6616	0.9223	0.043
Mof_C 	C 	0.50068	0.68046	0.89842	-0.091
Mof_C 	C 	0.51187	0.70535	0.89962	0.014
Mof_H 	H 	0.5042	0.7073	0.8837	0.04
Mof_C 	C 	0.5352	0.72823	0.92489	-0.062
Mof_H 	H 	0.5429	0.7456	0.9253	0.05
Mof_C 	C 	0.4756	0.65388	0.87264	0.368
Mof_O 	O 	0.58543	0.78236	0.40953	-0.418
Mof_O 	O 	0.56231	0.80671	0.40898	-0.419
Mof_O 	O 	0.38105	0.55719	0.35194	-0.404
Mof_O 	O 	0.34131	0.53762	0.31231	-0.413
Mof_O 	O 	0.83826	0.86683	0.49511	-0.414
Mof_O 	O 	0.81759	0.84612	0.51487	-0.412
Mof_O 	O 	0.6558	0.85136	0.46742	-0.416
Mof_O 	O 	0.63201	0.87463	0.4665	-0.413
Mof_C 	C 	0.56364	0.78507	0.40221	0.355
Mof_C 	C 	0.53615	0.75752	0.37965	-0.086
Mof_C 	C 	0.53263	0.73123	0.37556	0.01
Mof_H 	H 	0.5479	0.7302	0.3869	0.041
Mof_C 	C 	0.50771	0.70716	0.35569	-0.067
Mof_H 	H 	0.506	0.6896	0.3534	0.051
Mof_C 	C 	0.48457	0.70774	0.33853	-0.005
Mof_C 	C 	0.48883	0.73325	0.3422	-0.069
Mof_H 	H 	0.474	0.7342	0.33	0.051
Mof_C 	C 	0.51326	0.7578	0.36252	0.009
Mof_H 	H 	0.5145	0.7752	0.3649	0.039
Mof_C 	C 	0.45715	0.6804	0.31589	0.127
Mof_C 	C 	0.44508	0.65985	0.32183	-0.189
Mof_H 	H 	0.4539	0.6628	0.3403	0.093
Mof_C 	C 	0.41999	0.6347	0.30081	0.148
Mof_C 	C 	0.40939	0.63193	0.27562	-0.269
Mof_H 	H 	0.3926	0.6147	0.2613	0.113
Mof_C 	C 	0.42	0.65159	0.26723	0.301
Mof_C 	C 	0.44359	0.67546	0.28781	-0.268
Mof_H 	H 	0.4517	0.6897	0.2838	0.115
Mof_C 	C 	0.40757	0.61445	0.30834	-0.014
Mof_C 	C 	0.42215	0.61249	0.33068	-0.066
Mof_H 	H 	0.4419	0.625	0.3423	0.049
Mof_C 	C 	0.40911	0.59296	0.33681	0.021
Mof_H 	H 	0.4199	0.5917	0.3522	0.038
Mof_C 	C 	0.37983	0.57479	0.3204	-0.113
Mof_C 	C 	0.36583	0.57725	0.29914	0.035
Mof_H 	H 	0.346	0.5654	0.2878	0.032
Mof_C 	C 	0.37915	0.59641	0.29316	-0.074
Mof_H 	H 	0.3682	0.5974	0.2776	0.049
Mof_C 	C 	0.36665	0.55553	0.32896	0.372
Mof_C 	C 	0.83123	0.86704	0.51329	0.358
Mof_C 	C 	0.83736	0.8946	0.53424	-0.098
Mof_C 	C 	0.84895	0.91861	0.5322	0.019
Mof_H 	H 	0.8527	0.917	0.5173	0.04
Mof_C 	C 	0.8551	0.94472	0.55144	-0.077
Mof_H 	H 	0.8629	0.9607	0.5496	0.055
Mof_C 	C 	0.84984	0.94741	0.57341	0.007
Mof_C 	C 	0.83758	0.92356	0.57512	-0.079
Mof_H 	H 	0.8331	0.9249	0.5896	0.053
Mof_C 	C 	0.83172	0.89743	0.55543	0.022
Mof_H 	H 	0.8236	0.8814	0.557	0.037
Mof_C 	C 	0.8546	0.97475	0.59457	0.107
Mof_C 	C 	0.83741	0.97541	0.60654	-0.219
Mof_H 	H 	0.8229	0.9581	0.602	0.098
Mof_H 	H 	0.8297	0.0168	0.6531	0.131
Mof_C 	C 	0.77304	0.97516	0.59108	-0.233
Mof_H 	H 	0.772	0.9579	0.5889	0.105
Mof_C 	C 	0.75168	0.97461	0.57099	0.132
Mof_C 	C 	0.72794	0.94892	0.5479	-0.016
Mof_C 	C 	0.70228	0.94698	0.5367	-0.062
Mof_H 	H 	0.7004	0.9628	0.5452	0.049
Mof_C 	C 	0.67897	0.92263	0.51334	0.008
Mof_H 	H 	0.6616	0.9223	0.5057	0.043
Mof_C 	C 	0.68046	0.89842	0.50068	-0.091
Mof_C 	C 	0.70535	0.89962	0.51187	0.014
Mof_H 	H 	0.7073	0.8837	0.5042	0.04
Mof_C 	C 	0.72823	0.92489	0.5352	-0.062
Mof_H 	H 	0.7456	0.9253	0.5429	0.05
Mof_C 	C 	0.65388	0.87264	0.4756	0.368
Mof_O 	O 	0.62717	0.21764	0.80307	-0.418
Mof_O 	O 	0.60227	0.19329	0.7556	-0.419
Mof_O 	O 	0.79475	0.44281	0.82386	-0.404
Mof_O 	O 	0.77469	0.46238	0.80369	-0.413
Mof_O 	O 	0.62828	0.13317	0.97143	-0.413
Mof_O 	O 	0.66875	0.15388	0.97147	-0.411
Mof_O 	O 	0.61606	0.14864	0.80444	-0.416
Mof_O 	O 	0.59187	0.12537	0.75738	-0.413
Mof_C 	C 	0.61714	0.21493	0.77857	0.355
Mof_C 	C 	0.62213	0.24248	0.77863	-0.086
Mof_C 	C 	0.64433	0.26877	0.8014	0.01
Mof_H 	H 	0.6567	0.2698	0.8177	0.041
Mof_C 	C 	0.64853	0.29284	0.80055	-0.067
Mof_H 	H 	0.6638	0.3104	0.8164	0.051
Mof_C 	C 	0.63079	0.29226	0.77683	-0.005
Mof_C 	C 	0.60895	0.26675	0.75558	-0.069
Mof_H 	H 	0.5958	0.2658	0.7398	0.051
Mof_C 	C 	0.60472	0.2422	0.75546	0.009
Mof_H 	H 	0.5897	0.2248	0.7393	0.039
Mof_C 	C 	0.63549	0.3196	0.77675	0.127
Mof_C 	C 	0.66198	0.34015	0.78523	-0.189
Mof_H 	H 	0.6775	0.3372	0.7911	0.093
Mof_C 	C 	0.66611	0.3653	0.78529	0.148
Mof_C 	C 	0.64369	0.36807	0.77746	-0.269
Mof_H 	H 	0.6466	0.3853	0.7779	0.113
Mof_C 	C 	0.61564	0.34841	0.76841	0.301
Mof_C 	C 	0.61235	0.32454	0.76813	-0.268
Mof_H 	H 	0.5941	0.3103	0.762	0.115
Mof_C 	C 	0.69389	0.38555	0.79312	-0.014
Mof_C 	C 	0.71819	0.38751	0.80966	-0.066
Mof_H 	H 	0.7173	0.375	0.8169	0.049
Mof_C 	C 	0.74385	0.40704	0.81615	0.021
Mof_H 	H 	0.7605	0.4083	0.8282	0.038
Mof_C 	C 	0.74561	0.42521	0.80504	-0.113
Mof_C 	C 	0.72189	0.42275	0.78858	0.035
Mof_H 	H 	0.7224	0.4346	0.7806	0.032
Mof_C 	C 	0.69675	0.40359	0.78274	-0.074
Mof_H 	H 	0.6802	0.4026	0.7708	0.049
Mof_C 	C 	0.77343	0.44447	0.81112	0.372
Mof_C 	C 	0.64625	0.13296	0.96419	0.358
Mof_C 	C 	0.63964	0.1054	0.94276	-0.098
Mof_C 	C 	0.61359	0.08139	0.93034	0.019
Mof_H 	H 	0.6003	0.083	0.9357	0.04
Mof_C 	C 	0.60672	0.05528	0.91038	-0.077
Mof_H 	H 	0.5889	0.0393	0.9022	0.055
Mof_C 	C 	0.626	0.05259	0.90243	0.007
Mof_C 	C 	0.65156	0.07644	0.91402	-0.078
Mof_H 	H 	0.6647	0.0751	0.9082	0.052
Mof_C 	C 	0.658	0.10257	0.93429	0.022
Mof_H 	H 	0.6756	0.1186	0.9422	0.037
Mof_C 	C 	0.61982	0.02525	0.87985	0.106
Mof_C 	C 	0.63113	0.02459	0.862	-0.219
Mof_H 	H 	0.6439	0.0419	0.8648	0.098
Mof_H 	H 	0.6363	0.9832	0.8129	0.132
Mof_C 	C 	0.61592	0.02484	0.79788	-0.234
Mof_H 	H 	0.631	0.0421	0.8141	0.105
Mof_C 	C 	0.59638	0.02539	0.77707	0.131
Mof_C 	C 	0.59898	0.05108	0.77902	-0.016
Mof_C 	C 	0.58972	0.05302	0.7553	-0.062
Mof_H 	H 	0.5824	0.0372	0.7376	0.049
Mof_C 	C 	0.59071	0.07737	0.75634	0.008
Mof_H 	H 	0.5834	0.0777	0.7393	0.043
Mof_C 	C 	0.60226	0.10158	0.78204	-0.091
Mof_C 	C 	0.61225	0.10038	0.80573	0.014
Mof_H 	H 	0.6205	0.1163	0.8236	0.04
Mof_C 	C 	0.61031	0.07511	0.80334	-0.062
Mof_H 	H 	0.6176	0.0747	0.8203	0.05
Mof_C 	C 	0.60296	0.12736	0.78124	0.368
Mof_O 	O 	0.37283	0.1759	0.59047	-0.418
Mof_O 	O 	0.39773	0.15333	0.59102	-0.42
Mof_O 	O 	0.20525	0.02911	0.64806	-0.404
Mof_O 	O 	0.22531	0.029	0.68769	-0.413
Mof_O 	O 	0.37172	0.34315	0.50489	-0.414
Mof_O 	O 	0.33125	0.30272	0.48513	-0.412
Mof_O 	O 	0.38394	0.18838	0.53258	-0.416
Mof_O 	O 	0.40813	0.16551	0.5335	-0.413
Mof_C 	C 	0.38286	0.16143	0.59779	0.355
Mof_C 	C 	0.37787	0.1565	0.62035	-0.086
Mof_C 	C 	0.35567	0.15707	0.62444	0.01
Mof_H 	H 	0.3433	0.161	0.6131	0.041
Mof_C 	C 	0.35147	0.15202	0.64431	-0.067
Mof_H 	H 	0.3362	0.1526	0.6466	0.051
Mof_C 	C 	0.36921	0.14604	0.66147	-0.005
Mof_C 	C 	0.39105	0.14663	0.6578	-0.069
Mof_H 	H 	0.4042	0.144	0.67	0.051
Mof_C 	C 	0.39528	0.15074	0.63748	0.009
Mof_H 	H 	0.4103	0.1496	0.6351	0.039
Mof_C 	C 	0.36451	0.14126	0.68411	0.127
Mof_C 	C 	0.33802	0.12325	0.67817	-0.189
Mof_H 	H 	0.3225	0.1136	0.6597	0.093
Mof_C 	C 	0.33389	0.11918	0.69919	0.148
Mof_C 	C 	0.35631	0.13377	0.72438	-0.269
Mof_H 	H 	0.3534	0.1313	0.7387	0.113
Mof_C 	C 	0.38436	0.15277	0.73277	0.301
Mof_C 	C 	0.38765	0.15578	0.71219	-0.268
Mof_H 	H 	0.4059	0.1679	0.7162	0.115
Mof_C 	C 	0.30611	0.09923	0.69166	-0.014
Mof_C 	C 	0.28181	0.09147	0.66932	-0.067
Mof_H 	H 	0.2827	0.0996	0.6577	0.049
Mof_C 	C 	0.25615	0.0723	0.66319	0.021
Mof_H 	H 	0.2395	0.0677	0.6478	0.038
Mof_C 	C 	0.25439	0.05943	0.6796	-0.114
Mof_C 	C 	0.27811	0.06669	0.70086	0.035
Mof_H 	H 	0.2776	0.0582	0.7122	0.031
Mof_C 	C 	0.30325	0.08599	0.70684	-0.074
Mof_H 	H 	0.3198	0.0906	0.7224	0.049
Mof_C 	C 	0.22657	0.03769	0.67104	0.372
Mof_C 	C 	0.35375	0.31794	0.48671	0.358
Mof_C 	C 	0.36036	0.30312	0.46576	-0.098
Mof_C 	C 	0.38641	0.31675	0.4678	0.019
Mof_H 	H 	0.3997	0.3354	0.4827	0.04
Mof_C 	C 	0.39328	0.30366	0.44856	-0.077
Mof_H 	H 	0.4111	0.3133	0.4504	0.055
Mof_C 	C 	0.374	0.27643	0.42659	0.007
Mof_C 	C 	0.34844	0.26246	0.42488	-0.079
Mof_H 	H 	0.3353	0.2435	0.4104	0.052
Mof_C 	C 	0.342	0.27629	0.44457	0.022
Mof_H 	H 	0.3244	0.2666	0.443	0.037
Mof_C 	C 	0.38018	0.26003	0.40543	0.106
Mof_C 	C 	0.36887	0.23087	0.39346	-0.219
Mof_H 	H 	0.3561	0.2209	0.398	0.098
Mof_H 	H 	0.3637	0.1766	0.3469	0.131
Mof_C 	C 	0.38408	0.18196	0.40892	-0.233
Mof_H 	H 	0.369	0.1831	0.4111	0.105
Mof_C 	C 	0.40362	0.18069	0.42901	0.131
Mof_C 	C 	0.40102	0.18004	0.4521	-0.015
Mof_C 	C 	0.41028	0.16558	0.4633	-0.062
Mof_H 	H 	0.4176	0.1552	0.4548	0.049
Mof_C 	C 	0.40929	0.16563	0.48666	0.008
Mof_H 	H 	0.4166	0.1559	0.4943	0.043
Mof_C 	C 	0.39774	0.17978	0.49932	-0.091
Mof_C 	C 	0.38775	0.19348	0.48813	0.015
Mof_H 	H 	0.3795	0.2031	0.4958	0.04
Mof_C 	C 	0.38969	0.19303	0.4648	-0.063
Mof_H 	H 	0.3824	0.2027	0.4571	0.05
Mof_C 	C 	0.39704	0.17828	0.5244	0.368
Mof_O 	O 	0.41457	0.8241	0.19693	-0.418
Mof_O 	O 	0.43769	0.84667	0.2444	-0.419
Mof_O 	O 	0.61895	0.97089	0.17614	-0.404
Mof_O 	O 	0.65869	0.971	0.19631	-0.412
Mof_O 	O 	0.16174	0.65685	0.02857	-0.414
Mof_O 	O 	0.18241	0.69728	0.02853	-0.412
Mof_O 	O 	0.3442	0.81162	0.19556	-0.416
Mof_O 	O 	0.36799	0.83449	0.24262	-0.413
Mof_C 	C 	0.43636	0.83857	0.22143	0.355
Mof_C 	C 	0.46385	0.8435	0.22137	-0.086
Mof_C 	C 	0.46737	0.84293	0.1986	0.01
Mof_H 	H 	0.4521	0.839	0.1823	0.041
Mof_C 	C 	0.49229	0.84798	0.19945	-0.067
Mof_H 	H 	0.494	0.8474	0.1836	0.051
Mof_C 	C 	0.51543	0.85396	0.22317	-0.005
Mof_C 	C 	0.51117	0.85337	0.24442	-0.069
Mof_H 	H 	0.526	0.856	0.2602	0.052
Mof_C 	C 	0.48674	0.84926	0.24454	0.009
Mof_H 	H 	0.4855	0.8504	0.2607	0.039
Mof_C 	C 	0.54285	0.85874	0.22325	0.127
Mof_C 	C 	0.55492	0.87675	0.21477	-0.189
Mof_H 	H 	0.5461	0.8864	0.2089	0.093
Mof_C 	C 	0.58001	0.88082	0.21471	0.148
Mof_C 	C 	0.59061	0.86623	0.22254	-0.269
Mof_H 	H 	0.6074	0.8687	0.2221	0.113
Mof_C 	C 	0.58	0.84723	0.23159	0.302
Mof_C 	C 	0.55641	0.84422	0.23187	-0.268
Mof_H 	H 	0.5483	0.8321	0.238	0.115
Mof_C 	C 	0.59243	0.90077	0.20688	-0.014
Mof_C 	C 	0.57785	0.90853	0.19034	-0.066
Mof_H 	H 	0.5581	0.9004	0.1831	0.049
Mof_C 	C 	0.59089	0.9277	0.18385	0.021
Mof_H 	H 	0.5801	0.9323	0.1718	0.038
Mof_C 	C 	0.62017	0.94057	0.19496	-0.113
Mof_C 	C 	0.63417	0.93331	0.21142	0.035
Mof_H 	H 	0.654	0.9418	0.2194	0.032
Mof_C 	C 	0.62085	0.91401	0.21726	-0.074
Mof_H 	H 	0.6318	0.9094	0.2292	0.049
Mof_C 	C 	0.63335	0.96231	0.18888	0.372
Mof_C 	C 	0.16877	0.68206	0.03581	0.358
Mof_C 	C 	0.16264	0.69688	0.05724	-0.098
Mof_C 	C 	0.15105	0.68325	0.06966	0.019
Mof_H 	H 	0.1473	0.6646	0.0643	0.039
Mof_C 	C 	0.1449	0.69634	0.08962	-0.077
Mof_H 	H 	0.1371	0.6867	0.0978	0.055
Mof_C 	C 	0.15016	0.72357	0.09757	0.007
Mof_C 	C 	0.16242	0.73754	0.08598	-0.079
Mof_H 	H 	0.1669	0.7565	0.0918	0.052
Mof_C 	C 	0.16828	0.72371	0.06571	0.022
Mof_H 	H 	0.1764	0.7334	0.0578	0.037
Mof_C 	C 	0.1454	0.73997	0.12015	0.106
Mof_C 	C 	0.16259	0.76913	0.138	-0.219
Mof_H 	H 	0.1771	0.7791	0.1352	0.098
Mof_H 	H 	0.1703	0.8234	0.1871	0.131
Mof_C 	C 	0.22696	0.81804	0.20212	-0.233
Mof_H 	H 	0.228	0.8169	0.1859	0.105
Mof_C 	C 	0.24832	0.81931	0.22293	0.131
Mof_C 	C 	0.27206	0.81996	0.22098	-0.015
Mof_C 	C 	0.29772	0.83442	0.2447	-0.062
Mof_H 	H 	0.2996	0.8448	0.2624	0.049
Mof_C 	C 	0.32103	0.83437	0.24366	0.008
Mof_H 	H 	0.3384	0.8441	0.2607	0.043
Mof_C 	C 	0.31954	0.82022	0.21796	-0.091
Mof_C 	C 	0.29465	0.80652	0.19427	0.015
Mof_H 	H 	0.2927	0.7969	0.1764	0.04
Mof_C 	C 	0.27177	0.80697	0.19666	-0.062
Mof_H 	H 	0.2544	0.7973	0.1797	0.05
Mof_C 	C 	0.34612	0.82172	0.21876	0.368
Mof_O 	O 	0.21764	0.80307	0.62717	-0.418
Mof_O 	O 	0.19329	0.7556	0.60227	-0.419
Mof_O 	O 	0.44281	0.82386	0.79475	-0.404
Mof_O 	O 	0.46238	0.80369	0.77469	-0.413
Mof_O 	O 	0.13317	0.97143	0.62828	-0.413
Mof_O 	O 	0.15388	0.97147	0.66875	-0.411
Mof_O 	O 	0.14864	0.80444	0.61606	-0.416
Mof_O 	O 	0.12537	0.75738	0.59187	-0.413
Mof_C 	C 	0.21493	0.77857	0.61714	0.355
Mof_C 	C 	0.24248	0.77863	0.62213	-0.086
Mof_C 	C 	0.26877	0.8014	0.64433	0.01
Mof_H 	H 	0.2698	0.8177	0.6567	0.041
Mof_C 	C 	0.29284	0.80055	0.64853	-0.067
Mof_H 	H 	0.3104	0.8164	0.6638	0.051
Mof_C 	C 	0.29226	0.77683	0.63079	-0.005
Mof_C 	C 	0.26675	0.75558	0.60895	-0.069
Mof_H 	H 	0.2658	0.7398	0.5958	0.051
Mof_C 	C 	0.2422	0.75546	0.60472	0.009
Mof_H 	H 	0.2248	0.7393	0.5897	0.039
Mof_C 	C 	0.3196	0.77675	0.63549	0.127
Mof_C 	C 	0.34015	0.78523	0.66198	-0.189
Mof_H 	H 	0.3372	0.7911	0.6775	0.093
Mof_C 	C 	0.3653	0.78529	0.66611	0.148
Mof_C 	C 	0.36807	0.77746	0.64369	-0.269
Mof_H 	H 	0.3853	0.7779	0.6466	0.113
Mof_C 	C 	0.34841	0.76841	0.61564	0.301
Mof_C 	C 	0.32454	0.76813	0.61235	-0.268
Mof_H 	H 	0.3103	0.762	0.5941	0.115
Mof_C 	C 	0.38555	0.79312	0.69389	-0.014
Mof_C 	C 	0.38751	0.80966	0.71819	-0.066
Mof_H 	H 	0.375	0.8169	0.7173	0.049
Mof_C 	C 	0.40704	0.81615	0.74385	0.021
Mof_H 	H 	0.4083	0.8282	0.7605	0.038
Mof_C 	C 	0.42521	0.80504	0.74561	-0.113
Mof_C 	C 	0.42275	0.78858	0.72189	0.035
Mof_H 	H 	0.4346	0.7806	0.7224	0.032
Mof_C 	C 	0.40359	0.78274	0.69675	-0.074
Mof_H 	H 	0.4026	0.7708	0.6802	0.049
Mof_C 	C 	0.44447	0.81112	0.77343	0.372
Mof_C 	C 	0.13296	0.96419	0.64625	0.358
Mof_C 	C 	0.1054	0.94276	0.63964	-0.098
Mof_C 	C 	0.08139	0.93034	0.61359	0.019
Mof_H 	H 	0.083	0.9357	0.6003	0.04
Mof_C 	C 	0.05528	0.91038	0.60672	-0.077
Mof_H 	H 	0.0393	0.9022	0.5889	0.055
Mof_C 	C 	0.05259	0.90243	0.626	0.007
Mof_C 	C 	0.07644	0.91402	0.65156	-0.078
Mof_H 	H 	0.0751	0.9082	0.6647	0.052
Mof_C 	C 	0.10257	0.93429	0.658	0.022
Mof_H 	H 	0.1186	0.9422	0.6756	0.037
Mof_C 	C 	0.02525	0.87985	0.61982	0.106
Mof_C 	C 	0.02459	0.862	0.63113	-0.219
Mof_H 	H 	0.0419	0.8648	0.6439	0.098
Mof_H 	H 	0.9832	0.8129	0.6363	0.132
Mof_C 	C 	0.02484	0.79788	0.61592	-0.234
Mof_H 	H 	0.0421	0.8141	0.631	0.105
Mof_C 	C 	0.02539	0.77707	0.59638	0.131
Mof_C 	C 	0.05108	0.77902	0.59898	-0.016
Mof_C 	C 	0.05302	0.7553	0.58972	-0.062
Mof_H 	H 	0.0372	0.7376	0.5824	0.049
Mof_C 	C 	0.07737	0.75634	0.59071	0.008
Mof_H 	H 	0.0777	0.7393	0.5834	0.043
Mof_C 	C 	0.10158	0.78204	0.60226	-0.091
Mof_C 	C 	0.10038	0.80573	0.61225	0.014
Mof_H 	H 	0.1163	0.8236	0.6205	0.04
Mof_C 	C 	0.07511	0.80334	0.61031	-0.062
Mof_H 	H 	0.0747	0.8203	0.6176	0.05
Mof_C 	C 	0.12736	0.78124	0.60296	0.368
Mof_O 	O 	0.78236	0.40953	0.58543	-0.418
Mof_O 	O 	0.80671	0.40898	0.56231	-0.419
Mof_O 	O 	0.55719	0.35194	0.38105	-0.404
Mof_O 	O 	0.53762	0.31231	0.34131	-0.413
Mof_O 	O 	0.86683	0.49511	0.83826	-0.414
Mof_O 	O 	0.84612	0.51487	0.81759	-0.412
Mof_O 	O 	0.85136	0.46742	0.6558	-0.416
Mof_O 	O 	0.87463	0.4665	0.63201	-0.413
Mof_C 	C 	0.78507	0.40221	0.56364	0.355
Mof_C 	C 	0.75752	0.37965	0.53615	-0.086
Mof_C 	C 	0.73123	0.37556	0.53263	0.01
Mof_H 	H 	0.7302	0.3869	0.5479	0.041
Mof_C 	C 	0.70716	0.35569	0.50771	-0.067
Mof_H 	H 	0.6896	0.3534	0.506	0.051
Mof_C 	C 	0.70774	0.33853	0.48457	-0.005
Mof_C 	C 	0.73325	0.3422	0.48883	-0.069
Mof_H 	H 	0.7342	0.33	0.474	0.051
Mof_C 	C 	0.7578	0.36252	0.51326	0.009
Mof_H 	H 	0.7752	0.3649	0.5145	0.039
Mof_C 	C 	0.6804	0.31589	0.45715	0.127
Mof_C 	C 	0.65985	0.32183	0.44508	-0.189
Mof_H 	H 	0.6628	0.3403	0.4539	0.093
Mof_C 	C 	0.6347	0.30081	0.41999	0.148
Mof_C 	C 	0.63193	0.27562	0.40939	-0.269
Mof_H 	H 	0.6147	0.2613	0.3926	0.113
Mof_C 	C 	0.65159	0.26723	0.42	0.301
Mof_C 	C 	0.67546	0.28781	0.44359	-0.268
Mof_H 	H 	0.6897	0.2838	0.4517	0.115
Mof_C 	C 	0.61445	0.30834	0.40757	-0.014
Mof_C 	C 	0.61249	0.33068	0.42215	-0.066
Mof_H 	H 	0.625	0.3423	0.4419	0.049
Mof_C 	C 	0.59296	0.33681	0.40911	0.021
Mof_H 	H 	0.5917	0.3522	0.4199	0.038
Mof_C 	C 	0.57479	0.3204	0.37983	-0.113
Mof_C 	C 	0.57725	0.29914	0.36583	0.035
Mof_H 	H 	0.5654	0.2878	0.346	0.032
Mof_C 	C 	0.59641	0.29316	0.37915	-0.074
Mof_H 	H 	0.5974	0.2776	0.3682	0.049
Mof_C 	C 	0.55553	0.32896	0.36665	0.372
Mof_C 	C 	0.86704	0.51329	0.83123	0.358
Mof_C 	C 	0.8946	0.53424	0.83736	-0.098
Mof_C 	C 	0.91861	0.5322	0.84895	0.019
Mof_H 	H 	0.917	0.5173	0.8527	0.04
Mof_C 	C 	0.94472	0.55144	0.8551	-0.077
Mof_H 	H 	0.9607	0.5496	0.8629	0.055
Mof_C 	C 	0.94741	0.57341	0.84984	0.007
Mof_C 	C 	0.92356	0.57512	0.83758	-0.079
Mof_H 	H 	0.9249	0.5896	0.8331	0.053
Mof_C 	C 	0.89743	0.55543	0.83172	0.022
Mof_H 	H 	0.8814	0.557	0.8236	0.037
Mof_C 	C 	0.97475	0.59457	0.8546	0.107
Mof_C 	C 	0.97541	0.60654	0.83741	-0.219
Mof_H 	H 	0.9581	0.602	0.8229	0.098
Mof_H 	H 	0.0168	0.6531	0.8297	0.131
Mof_C 	C 	0.97516	0.59108	0.77304	-0.233
Mof_H 	H 	0.9579	0.5889	0.772	0.105
Mof_C 	C 	0.97461	0.57099	0.75168	0.132
Mof_C 	C 	0.94892	0.5479	0.72794	-0.016
Mof_C 	C 	0.94698	0.5367	0.70228	-0.062
Mof_H 	H 	0.9628	0.5452	0.7004	0.049
Mof_C 	C 	0.92263	0.51334	0.67897	0.008
Mof_H 	H 	0.9223	0.5057	0.6616	0.043
Mof_C 	C 	0.89842	0.50068	0.68046	-0.091
Mof_C 	C 	0.89962	0.51187	0.70535	0.014
Mof_H 	H 	0.8837	0.5042	0.7073	0.04
Mof_C 	C 	0.92489	0.5352	0.72823	-0.062
Mof_H 	H 	0.9253	0.5429	0.7456	0.05
Mof_C 	C 	0.87264	0.4756	0.65388	0.368
Mof_O 	O 	0.8241	0.19693	0.41457	-0.418
Mof_O 	O 	0.84667	0.2444	0.43769	-0.419
Mof_O 	O 	0.97089	0.17614	0.61895	-0.404
Mof_O 	O 	0.971	0.19631	0.65869	-0.412
Mof_O 	O 	0.65685	0.02857	0.16174	-0.414
Mof_O 	O 	0.69728	0.02853	0.18241	-0.412
Mof_O 	O 	0.81162	0.19556	0.3442	-0.416
Mof_O 	O 	0.83449	0.24262	0.36799	-0.413
Mof_C 	C 	0.83857	0.22143	0.43636	0.355
Mof_C 	C 	0.8435	0.22137	0.46385	-0.086
Mof_C 	C 	0.84293	0.1986	0.46737	0.01
Mof_H 	H 	0.839	0.1823	0.4521	0.041
Mof_C 	C 	0.84798	0.19945	0.49229	-0.067
Mof_H 	H 	0.8474	0.1836	0.494	0.051
Mof_C 	C 	0.85396	0.22317	0.51543	-0.005
Mof_C 	C 	0.85337	0.24442	0.51117	-0.069
Mof_H 	H 	0.856	0.2602	0.526	0.052
Mof_C 	C 	0.84926	0.24454	0.48674	0.009
Mof_H 	H 	0.8504	0.2607	0.4855	0.039
Mof_C 	C 	0.85874	0.22325	0.54285	0.127
Mof_C 	C 	0.87675	0.21477	0.55492	-0.189
Mof_H 	H 	0.8864	0.2089	0.5461	0.093
Mof_C 	C 	0.88082	0.21471	0.58001	0.148
Mof_C 	C 	0.86623	0.22254	0.59061	-0.269
Mof_H 	H 	0.8687	0.2221	0.6074	0.113
Mof_C 	C 	0.84723	0.23159	0.58	0.302
Mof_C 	C 	0.84422	0.23187	0.55641	-0.268
Mof_H 	H 	0.8321	0.238	0.5483	0.115
Mof_C 	C 	0.90077	0.20688	0.59243	-0.014
Mof_C 	C 	0.90853	0.19034	0.57785	-0.066
Mof_H 	H 	0.9004	0.1831	0.5581	0.049
Mof_C 	C 	0.9277	0.18385	0.59089	0.021
Mof_H 	H 	0.9323	0.1718	0.5801	0.038
Mof_C 	C 	0.94057	0.19496	0.62017	-0.113
Mof_C 	C 	0.93331	0.21142	0.63417	0.035
Mof_H 	H 	0.9418	0.2194	0.654	0.032
Mof_C 	C 	0.91401	0.21726	0.62085	-0.074
Mof_H 	H 	0.9094	0.2292	0.6318	0.049
Mof_C 	C 	0.96231	0.18888	0.63335	0.372
Mof_C 	C 	0.68206	0.03581	0.16877	0.358
Mof_C 	C 	0.69688	0.05724	0.16264	-0.098
Mof_C 	C 	0.68325	0.06966	0.15105	0.019
Mof_H 	H 	0.6646	0.0643	0.1473	0.039
Mof_C 	C 	0.69634	0.08962	0.1449	-0.077
Mof_H 	H 	0.6867	0.0978	0.1371	0.055
Mof_C 	C 	0.72357	0.09757	0.15016	0.007
Mof_C 	C 	0.73754	0.08598	0.16242	-0.079
Mof_H 	H 	0.7565	0.0918	0.1669	0.052
Mof_C 	C 	0.72371	0.06571	0.16828	0.022
Mof_H 	H 	0.7334	0.0578	0.1764	0.037
Mof_C 	C 	0.73997	0.12015	0.1454	0.106
Mof_C 	C 	0.76913	0.138	0.16259	-0.219
Mof_H 	H 	0.7791	0.1352	0.1771	0.098
Mof_H 	H 	0.8234	0.1871	0.1703	0.131
Mof_C 	C 	0.81804	0.20212	0.22696	-0.233
Mof_H 	H 	0.8169	0.1859	0.228	0.105
Mof_C 	C 	0.81931	0.22293	0.24832	0.131
Mof_C 	C 	0.81996	0.22098	0.27206	-0.015
Mof_C 	C 	0.83442	0.2447	0.29772	-0.062
Mof_H 	H 	0.8448	0.2624	0.2996	0.049
Mof_C 	C 	0.83437	0.24366	0.32103	0.008
Mof_H 	H 	0.8441	0.2607	0.3384	0.043
Mof_C 	C 	0.82022	0.21796	0.31954	-0.091
Mof_C 	C 	0.80652	0.19427	0.29465	0.015
Mof_H 	H 	0.7969	0.1764	0.2927	0.04
Mof_C 	C 	0.80697	0.19666	0.27177	-0.062
Mof_H 	H 	0.7973	0.1797	0.2544	0.05
Mof_C 	C 	0.82172	0.21876	0.34612	0.368
Mof_O 	O 	0.1759	0.59047	0.37283	-0.418
Mof_O 	O 	0.15333	0.59102	0.39773	-0.42
Mof_O 	O 	0.02911	0.64806	0.20525	-0.404
Mof_O 	O 	0.029	0.68769	0.22531	-0.413
Mof_O 	O 	0.34315	0.50489	0.37172	-0.414
Mof_O 	O 	0.30272	0.48513	0.33125	-0.412
Mof_O 	O 	0.18838	0.53258	0.38394	-0.416
Mof_O 	O 	0.16551	0.5335	0.40813	-0.413
Mof_C 	C 	0.16143	0.59779	0.38286	0.355
Mof_C 	C 	0.1565	0.62035	0.37787	-0.086
Mof_C 	C 	0.15707	0.62444	0.35567	0.01
Mof_H 	H 	0.161	0.6131	0.3433	0.041
Mof_C 	C 	0.15202	0.64431	0.35147	-0.067
Mof_H 	H 	0.1526	0.6466	0.3362	0.051
Mof_C 	C 	0.14604	0.66147	0.36921	-0.005
Mof_C 	C 	0.14663	0.6578	0.39105	-0.069
Mof_H 	H 	0.144	0.67	0.4042	0.051
Mof_C 	C 	0.15074	0.63748	0.39528	0.009
Mof_H 	H 	0.1496	0.6351	0.4103	0.039
Mof_C 	C 	0.14126	0.68411	0.36451	0.127
Mof_C 	C 	0.12325	0.67817	0.33802	-0.189
Mof_H 	H 	0.1136	0.6597	0.3225	0.093
Mof_C 	C 	0.11918	0.69919	0.33389	0.148
Mof_C 	C 	0.13377	0.72438	0.35631	-0.269
Mof_H 	H 	0.1313	0.7387	0.3534	0.113
Mof_C 	C 	0.15277	0.73277	0.38436	0.301
Mof_C 	C 	0.15578	0.71219	0.38765	-0.268
Mof_H 	H 	0.1679	0.7162	0.4059	0.115
Mof_C 	C 	0.09923	0.69166	0.30611	-0.014
Mof_C 	C 	0.09147	0.66932	0.28181	-0.067
Mof_H 	H 	0.0996	0.6577	0.2827	0.049
Mof_C 	C 	0.0723	0.66319	0.25615	0.021
Mof_H 	H 	0.0677	0.6478	0.2395	0.038
Mof_C 	C 	0.05943	0.6796	0.25439	-0.114
Mof_C 	C 	0.06669	0.70086	0.27811	0.035
Mof_H 	H 	0.0582	0.7122	0.2776	0.031
Mof_C 	C 	0.08599	0.70684	0.30325	-0.074
Mof_H 	H 	0.0906	0.7224	0.3198	0.049
Mof_C 	C 	0.03769	0.67104	0.22657	0.372
Mof_C 	C 	0.31794	0.48671	0.35375	0.358
Mof_C 	C 	0.30312	0.46576	0.36036	-0.098
Mof_C 	C 	0.31675	0.4678	0.38641	0.019
Mof_H 	H 	0.3354	0.4827	0.3997	0.04
Mof_C 	C 	0.30366	0.44856	0.39328	-0.077
Mof_H 	H 	0.3133	0.4504	0.4111	0.055
Mof_C 	C 	0.27643	0.42659	0.374	0.007
Mof_C 	C 	0.26246	0.42488	0.34844	-0.079
Mof_H 	H 	0.2435	0.4104	0.3353	0.052
Mof_C 	C 	0.27629	0.44457	0.342	0.022
Mof_H 	H 	0.2666	0.443	0.3244	0.037
Mof_C 	C 	0.26003	0.40543	0.38018	0.106
Mof_C 	C 	0.23087	0.39346	0.36887	-0.219
Mof_H 	H 	0.2209	0.398	0.3561	0.098
Mof_H 	H 	0.1766	0.3469	0.3637	0.131
Mof_C 	C 	0.18196	0.40892	0.38408	-0.233
Mof_H 	H 	0.1831	0.4111	0.369	0.105
Mof_C 	C 	0.18069	0.42901	0.40362	0.131
Mof_C 	C 	0.18004	0.4521	0.40102	-0.015
Mof_C 	C 	0.16558	0.4633	0.41028	-0.062
Mof_H 	H 	0.1552	0.4548	0.4176	0.049
Mof_C 	C 	0.16563	0.48666	0.40929	0.008
Mof_H 	H 	0.1559	0.4943	0.4166	0.043
Mof_C 	C 	0.17978	0.49932	0.39774	-0.091
Mof_C 	C 	0.19348	0.48813	0.38775	0.015
Mof_H 	H 	0.2031	0.4958	0.3795	0.04
Mof_C 	C 	0.19303	0.4648	0.38969	-0.063
Mof_H 	H 	0.2027	0.4571	0.3824	0.05
Mof_C 	C 	0.17828	0.5244	0.39704	0.368
Mof_O 	O 	0.37283	0.59047	0.1759	-0.418
Mof_O 	O 	0.39773	0.59102	0.15333	-0.42
Mof_O 	O 	0.20525	0.64806	0.02911	-0.404
Mof_O 	O 	0.22531	0.68769	0.029	-0.413
Mof_O 	O 	0.37172	0.50489	0.34315	-0.414
Mof_O 	O 	0.33125	0.48513	0.30272	-0.412
Mof_O 	O 	0.38394	0.53258	0.18838	-0.416
Mof_O 	O 	0.40813	0.5335	0.16551	-0.413
Mof_C 	C 	0.38286	0.59779	0.16143	0.355
Mof_C 	C 	0.37787	0.62035	0.1565	-0.086
Mof_C 	C 	0.35567	0.62444	0.15707	0.01
Mof_H 	H 	0.3433	0.6131	0.161	0.041
Mof_C 	C 	0.35147	0.64431	0.15202	-0.067
Mof_H 	H 	0.3362	0.6466	0.1526	0.051
Mof_C 	C 	0.36921	0.66147	0.14604	-0.005
Mof_C 	C 	0.39105	0.6578	0.14663	-0.069
Mof_H 	H 	0.4042	0.67	0.144	0.051
Mof_C 	C 	0.39528	0.63748	0.15074	0.009
Mof_H 	H 	0.4103	0.6351	0.1496	0.039
Mof_C 	C 	0.36451	0.68411	0.14126	0.127
Mof_C 	C 	0.33802	0.67817	0.12325	-0.189
Mof_H 	H 	0.3225	0.6597	0.1136	0.093
Mof_C 	C 	0.33389	0.69919	0.11918	0.148
Mof_C 	C 	0.35631	0.72438	0.13377	-0.269
Mof_H 	H 	0.3534	0.7387	0.1313	0.113
Mof_C 	C 	0.38436	0.73277	0.15277	0.301
Mof_C 	C 	0.38765	0.71219	0.15578	-0.268
Mof_H 	H 	0.4059	0.7162	0.1679	0.115
Mof_C 	C 	0.30611	0.69166	0.09923	-0.014
Mof_C 	C 	0.28181	0.66932	0.09147	-0.067
Mof_H 	H 	0.2827	0.6577	0.0996	0.049
Mof_C 	C 	0.25615	0.66319	0.0723	0.021
Mof_H 	H 	0.2395	0.6478	0.0677	0.038
Mof_C 	C 	0.25439	0.6796	0.05943	-0.114
Mof_C 	C 	0.27811	0.70086	0.06669	0.035
Mof_H 	H 	0.2776	0.7122	0.0582	0.031
Mof_C 	C 	0.30325	0.70684	0.08599	-0.074
Mof_H 	H 	0.3198	0.7224	0.0906	0.049
Mof_C 	C 	0.22657	0.67104	0.03769	0.372
Mof_C 	C 	0.35375	0.48671	0.31794	0.358
Mof_C 	C 	0.36036	0.46576	0.30312	-0.098
Mof_C 	C 	0.38641	0.4678	0.31675	0.019
Mof_H 	H 	0.3997	0.4827	0.3354	0.04
Mof_C 	C 	0.39328	0.44856	0.30366	-0.077
Mof_H 	H 	0.4111	0.4504	0.3133	0.055
Mof_C 	C 	0.374	0.42659	0.27643	0.007
Mof_C 	C 	0.34844	0.42488	0.26246	-0.079
Mof_H 	H 	0.3353	0.4104	0.2435	0.052
Mof_C 	C 	0.342	0.44457	0.27629	0.022
Mof_H 	H 	0.3244	0.443	0.2666	0.037
Mof_C 	C 	0.38018	0.40543	0.26003	0.106
Mof_C 	C 	0.36887	0.39346	0.23087	-0.219
Mof_H 	H 	0.3561	0.398	0.2209	0.098
Mof_H 	H 	0.3637	0.3469	0.1766	0.131
Mof_C 	C 	0.38408	0.40892	0.18196	-0.233
Mof_H 	H 	0.369	0.4111	0.1831	0.105
Mof_C 	C 	0.40362	0.42901	0.18069	0.131
Mof_C 	C 	0.40102	0.4521	0.18004	-0.015
Mof_C 	C 	0.41028	0.4633	0.16558	-0.062
Mof_H 	H 	0.4176	0.4548	0.1552	0.049
Mof_C 	C 	0.40929	0.48666	0.16563	0.008
Mof_H 	H 	0.4166	0.4943	0.1559	0.043
Mof_C 	C 	0.39774	0.49932	0.17978	-0.091
Mof_C 	C 	0.38775	0.48813	0.19348	0.015
Mof_H 	H 	0.3795	0.4958	0.2031	0.04
Mof_C 	C 	0.38969	0.4648	0.19303	-0.063
Mof_H 	H 	0.3824	0.4571	0.2027	0.05
Mof_C 	C 	0.39704	0.5244	0.17828	0.368
Mof_O 	O 	0.41457	0.19693	0.8241	-0.418
Mof_O 	O 	0.43769	0.2444	0.84667	-0.419
Mof_O 	O 	0.61895	0.17614	0.97089	-0.404
Mof_O 	O 	0.65869	0.19631	0.971	-0.412
Mof_O 	O 	0.16174	0.02857	0.65685	-0.414
Mof_O 	O 	0.18241	0.02853	0.69728	-0.412
Mof_O 	O 	0.3442	0.19556	0.81162	-0.416
Mof_O 	O 	0.36799	0.24262	0.83449	-0.413
Mof_C 	C 	0.43636	0.22143	0.83857	0.355
Mof_C 	C 	0.46385	0.22137	0.8435	-0.086
Mof_C 	C 	0.46737	0.1986	0.84293	0.01
Mof_H 	H 	0.4521	0.1823	0.839	0.041
Mof_C 	C 	0.49229	0.19945	0.84798	-0.067
Mof_H 	H 	0.494	0.1836	0.8474	0.051
Mof_C 	C 	0.51543	0.22317	0.85396	-0.005
Mof_C 	C 	0.51117	0.24442	0.85337	-0.069
Mof_H 	H 	0.526	0.2602	0.856	0.052
Mof_C 	C 	0.48674	0.24454	0.84926	0.009
Mof_H 	H 	0.4855	0.2607	0.8504	0.039
Mof_C 	C 	0.54285	0.22325	0.85874	0.127
Mof_C 	C 	0.55492	0.21477	0.87675	-0.189
Mof_H 	H 	0.5461	0.2089	0.8864	0.093
Mof_C 	C 	0.58001	0.21471	0.88082	0.148
Mof_C 	C 	0.59061	0.22254	0.86623	-0.269
Mof_H 	H 	0.6074	0.2221	0.8687	0.113
Mof_C 	C 	0.58	0.23159	0.84723	0.302
Mof_C 	C 	0.55641	0.23187	0.84422	-0.268
Mof_H 	H 	0.5483	0.238	0.8321	0.115
Mof_C 	C 	0.59243	0.20688	0.90077	-0.014
Mof_C 	C 	0.57785	0.19034	0.90853	-0.066
Mof_H 	H 	0.5581	0.1831	0.9004	0.049
Mof_C 	C 	0.59089	0.18385	0.9277	0.021
Mof_H 	H 	0.5801	0.1718	0.9323	0.038
Mof_C 	C 	0.62017	0.19496	0.94057	-0.113
Mof_C 	C 	0.63417	0.21142	0.93331	0.035
Mof_H 	H 	0.654	0.2194	0.9418	0.032
Mof_C 	C 	0.62085	0.21726	0.91401	-0.074
Mof_H 	H 	0.6318	0.2292	0.9094	0.049
Mof_C 	C 	0.63335	0.18888	0.96231	0.372
Mof_C 	C 	0.16877	0.03581	0.68206	0.358
Mof_C 	C 	0.16264	0.05724	0.69688	-0.098
Mof_C 	C 	0.15105	0.06966	0.68325	0.019
Mof_H 	H 	0.1473	0.0643	0.6646	0.039
Mof_C 	C 	0.1449	0.08962	0.69634	-0.077
Mof_H 	H 	0.1371	0.0978	0.6867	0.055
Mof_C 	C 	0.15016	0.09757	0.72357	0.007
Mof_C 	C 	0.16242	0.08598	0.73754	-0.079
Mof_H 	H 	0.1669	0.0918	0.7565	0.052
Mof_C 	C 	0.16828	0.06571	0.72371	0.022
Mof_H 	H 	0.1764	0.0578	0.7334	0.037
Mof_C 	C 	0.1454	0.12015	0.73997	0.106
Mof_C 	C 	0.16259	0.138	0.76913	-0.219
Mof_H 	H 	0.1771	0.1352	0.7791	0.098
Mof_H 	H 	0.1703	0.1871	0.8234	0.131
Mof_C 	C 	0.22696	0.20212	0.81804	-0.233
Mof_H 	H 	0.228	0.1859	0.8169	0.105
Mof_C 	C 	0.24832	0.22293	0.81931	0.131
Mof_C 	C 	0.27206	0.22098	0.81996	-0.015
Mof_C 	C 	0.29772	0.2447	0.83442	-0.062
Mof_H 	H 	0.2996	0.2624	0.8448	0.049
Mof_C 	C 	0.32103	0.24366	0.83437	0.008
Mof_H 	H 	0.3384	0.2607	0.8441	0.043
Mof_C 	C 	0.31954	0.21796	0.82022	-0.091
Mof_C 	C 	0.29465	0.19427	0.80652	0.015
Mof_H 	H 	0.2927	0.1764	0.7969	0.04
Mof_C 	C 	0.27177	0.19666	0.80697	-0.062
Mof_H 	H 	0.2544	0.1797	0.7973	0.05
Mof_C 	C 	0.34612	0.21876	0.82172	0.368
Mof_O 	O 	0.58543	0.40953	0.78236	-0.418
Mof_O 	O 	0.56231	0.40898	0.80671	-0.419
Mof_O 	O 	0.38105	0.35194	0.55719	-0.404
Mof_O 	O 	0.34131	0.31231	0.53762	-0.413
Mof_O 	O 	0.83826	0.49511	0.86683	-0.414
Mof_O 	O 	0.81759	0.51487	0.84612	-0.412
Mof_O 	O 	0.6558	0.46742	0.85136	-0.416
Mof_O 	O 	0.63201	0.4665	0.87463	-0.413
Mof_C 	C 	0.56364	0.40221	0.78507	0.355
Mof_C 	C 	0.53615	0.37965	0.75752	-0.086
Mof_C 	C 	0.53263	0.37556	0.73123	0.01
Mof_H 	H 	0.5479	0.3869	0.7302	0.041
Mof_C 	C 	0.50771	0.35569	0.70716	-0.067
Mof_H 	H 	0.506	0.3534	0.6896	0.051
Mof_C 	C 	0.48457	0.33853	0.70774	-0.005
Mof_C 	C 	0.48883	0.3422	0.73325	-0.069
Mof_H 	H 	0.474	0.33	0.7342	0.051
Mof_C 	C 	0.51326	0.36252	0.7578	0.009
Mof_H 	H 	0.5145	0.3649	0.7752	0.039
Mof_C 	C 	0.45715	0.31589	0.6804	0.127
Mof_C 	C 	0.44508	0.32183	0.65985	-0.189
Mof_H 	H 	0.4539	0.3403	0.6628	0.093
Mof_C 	C 	0.41999	0.30081	0.6347	0.148
Mof_C 	C 	0.40939	0.27562	0.63193	-0.269
Mof_H 	H 	0.3926	0.2613	0.6147	0.113
Mof_C 	C 	0.42	0.26723	0.65159	0.301
Mof_C 	C 	0.44359	0.28781	0.67546	-0.268
Mof_H 	H 	0.4517	0.2838	0.6897	0.115
Mof_C 	C 	0.40757	0.30834	0.61445	-0.014
Mof_C 	C 	0.42215	0.33068	0.61249	-0.066
Mof_H 	H 	0.4419	0.3423	0.625	0.049
Mof_C 	C 	0.40911	0.33681	0.59296	0.021
Mof_H 	H 	0.4199	0.3522	0.5917	0.038
Mof_C 	C 	0.37983	0.3204	0.57479	-0.113
Mof_C 	C 	0.36583	0.29914	0.57725	0.035
Mof_H 	H 	0.346	0.2878	0.5654	0.032
Mof_C 	C 	0.37915	0.29316	0.59641	-0.074
Mof_H 	H 	0.3682	0.2776	0.5974	0.049
Mof_C 	C 	0.36665	0.32896	0.55553	0.372
Mof_C 	C 	0.83123	0.51329	0.86704	0.358
Mof_C 	C 	0.83736	0.53424	0.8946	-0.098
Mof_C 	C 	0.84895	0.5322	0.91861	0.019
Mof_H 	H 	0.8527	0.5173	0.917	0.04
Mof_C 	C 	0.8551	0.55144	0.94472	-0.077
Mof_H 	H 	0.8629	0.5496	0.9607	0.055
Mof_C 	C 	0.84984	0.57341	0.94741	0.007
Mof_C 	C 	0.83758	0.57512	0.92356	-0.079
Mof_H 	H 	0.8331	0.5896	0.9249	0.053
Mof_C 	C 	0.83172	0.55543	0.89743	0.022
Mof_H 	H 	0.8236	0.557	0.8814	0.037
Mof_C 	C 	0.8546	0.59457	0.97475	0.107
Mof_C 	C 	0.83741	0.60654	0.97541	-0.219
Mof_H 	H 	0.8229	0.602	0.9581	0.098
Mof_H 	H 	0.8297	0.6531	0.0168	0.131
Mof_C 	C 	0.77304	0.59108	0.97516	-0.233
Mof_H 	H 	0.772	0.5889	0.9579	0.105
Mof_C 	C 	0.75168	0.57099	0.97461	0.132
Mof_C 	C 	0.72794	0.5479	0.94892	-0.016
Mof_C 	C 	0.70228	0.5367	0.94698	-0.062
Mof_H 	H 	0.7004	0.5452	0.9628	0.049
Mof_C 	C 	0.67897	0.51334	0.92263	0.008
Mof_H 	H 	0.6616	0.5057	0.9223	0.043
Mof_C 	C 	0.68046	0.50068	0.89842	-0.091
Mof_C 	C 	0.70535	0.51187	0.89962	0.014
Mof_H 	H 	0.7073	0.5042	0.8837	0.04
Mof_C 	C 	0.72823	0.5352	0.92489	-0.062
Mof_H 	H 	0.7456	0.5429	0.9253	0.05
Mof_C 	C 	0.65388	0.4756	0.87264	0.368
Mof_O 	O 	0.62717	0.80307	0.21764	-0.418
Mof_O 	O 	0.60227	0.7556	0.19329	-0.419
Mof_O 	O 	0.79475	0.82386	0.44281	-0.404
Mof_O 	O 	0.77469	0.80369	0.46238	-0.413
Mof_O 	O 	0.62828	0.97143	0.13317	-0.413
Mof_O 	O 	0.66875	0.97147	0.15388	-0.411
Mof_O 	O 	0.61606	0.80444	0.14864	-0.416
Mof_O 	O 	0.59187	0.75738	0.12537	-0.413
Mof_C 	C 	0.61714	0.77857	0.21493	0.355
Mof_C 	C 	0.62213	0.77863	0.24248	-0.086
Mof_C 	C 	0.64433	0.8014	0.26877	0.01
Mof_H 	H 	0.6567	0.8177	0.2698	0.041
Mof_C 	C 	0.64853	0.80055	0.29284	-0.067
Mof_H 	H 	0.6638	0.8164	0.3104	0.051
Mof_C 	C 	0.63079	0.77683	0.29226	-0.005
Mof_C 	C 	0.60895	0.75558	0.26675	-0.069
Mof_H 	H 	0.5958	0.7398	0.2658	0.051
Mof_C 	C 	0.60472	0.75546	0.2422	0.009
Mof_H 	H 	0.5897	0.7393	0.2248	0.039
Mof_C 	C 	0.63549	0.77675	0.3196	0.127
Mof_C 	C 	0.66198	0.78523	0.34015	-0.189
Mof_H 	H 	0.6775	0.7911	0.3372	0.093
Mof_C 	C 	0.66611	0.78529	0.3653	0.148
Mof_C 	C 	0.64369	0.77746	0.36807	-0.269
Mof_H 	H 	0.6466	0.7779	0.3853	0.113
Mof_C 	C 	0.61564	0.76841	0.34841	0.301
Mof_C 	C 	0.61235	0.76813	0.32454	-0.268
Mof_H 	H 	0.5941	0.762	0.3103	0.115
Mof_C 	C 	0.69389	0.79312	0.38555	-0.014
Mof_C 	C 	0.71819	0.80966	0.38751	-0.066
Mof_H 	H 	0.7173	0.8169	0.375	0.049
Mof_C 	C 	0.74385	0.81615	0.40704	0.021
Mof_H 	H 	0.7605	0.8282	0.4083	0.038
Mof_C 	C 	0.74561	0.80504	0.42521	-0.113
Mof_C 	C 	0.72189	0.78858	0.42275	0.035
Mof_H 	H 	0.7224	0.7806	0.4346	0.032
Mof_C 	C 	0.69675	0.78274	0.40359	-0.074
Mof_H 	H 	0.6802	0.7708	0.4026	0.049
Mof_C 	C 	0.77343	0.81112	0.44447	0.372
Mof_C 	C 	0.64625	0.96419	0.13296	0.358
Mof_C 	C 	0.63964	0.94276	0.1054	-0.098
Mof_C 	C 	0.61359	0.93034	0.08139	0.019
Mof_H 	H 	0.6003	0.9357	0.083	0.04
Mof_C 	C 	0.60672	0.91038	0.05528	-0.077
Mof_H 	H 	0.5889	0.9022	0.0393	0.055
Mof_C 	C 	0.626	0.90243	0.05259	0.007
Mof_C 	C 	0.65156	0.91402	0.07644	-0.078
Mof_H 	H 	0.6647	0.9082	0.0751	0.052
Mof_C 	C 	0.658	0.93429	0.10257	0.022
Mof_H 	H 	0.6756	0.9422	0.1186	0.037
Mof_C 	C 	0.61982	0.87985	0.02525	0.106
Mof_C 	C 	0.63113	0.862	0.02459	-0.219
Mof_H 	H 	0.6439	0.8648	0.0419	0.098
Mof_H 	H 	0.6363	0.8129	0.9832	0.132
Mof_C 	C 	0.61592	0.79788	0.02484	-0.234
Mof_H 	H 	0.631	0.8141	0.0421	0.105
Mof_C 	C 	0.59638	0.77707	0.02539	0.131
Mof_C 	C 	0.59898	0.77902	0.05108	-0.016
Mof_C 	C 	0.58972	0.7553	0.05302	-0.062
Mof_H 	H 	0.5824	0.7376	0.0372	0.049
Mof_C 	C 	0.59071	0.75634	0.07737	0.008
Mof_H 	H 	0.5834	0.7393	0.0777	0.043
Mof_C 	C 	0.60226	0.78204	0.10158	-0.091
Mof_C 	C 	0.61225	0.80573	0.10038	0.014
Mof_H 	H 	0.6205	0.8236	0.1163	0.04
Mof_C 	C 	0.61031	0.80334	0.07511	-0.062
Mof_H 	H 	0.6176	0.8203	0.0747	0.05
Mof_C 	C 	0.60296	0.78124	0.12736	0.368
Mof_O 	O 	0.1759	0.37283	0.59047	-0.418
Mof_O 	O 	0.15333	0.39773	0.59102	-0.42
Mof_O 	O 	0.02911	0.20525	0.64806	-0.404
Mof_O 	O 	0.029	0.22531	0.68769	-0.413
Mof_O 	O 	0.34315	0.37172	0.50489	-0.414
Mof_O 	O 	0.30272	0.33125	0.48513	-0.412
Mof_O 	O 	0.18838	0.38394	0.53258	-0.416
Mof_O 	O 	0.16551	0.40813	0.5335	-0.413
Mof_C 	C 	0.16143	0.38286	0.59779	0.355
Mof_C 	C 	0.1565	0.37787	0.62035	-0.086
Mof_C 	C 	0.15707	0.35567	0.62444	0.01
Mof_H 	H 	0.161	0.3433	0.6131	0.041
Mof_C 	C 	0.15202	0.35147	0.64431	-0.067
Mof_H 	H 	0.1526	0.3362	0.6466	0.051
Mof_C 	C 	0.14604	0.36921	0.66147	-0.005
Mof_C 	C 	0.14663	0.39105	0.6578	-0.069
Mof_H 	H 	0.144	0.4042	0.67	0.051
Mof_C 	C 	0.15074	0.39528	0.63748	0.009
Mof_H 	H 	0.1496	0.4103	0.6351	0.039
Mof_C 	C 	0.14126	0.36451	0.68411	0.127
Mof_C 	C 	0.12325	0.33802	0.67817	-0.189
Mof_H 	H 	0.1136	0.3225	0.6597	0.093
Mof_C 	C 	0.11918	0.33389	0.69919	0.148
Mof_C 	C 	0.13377	0.35631	0.72438	-0.269
Mof_H 	H 	0.1313	0.3534	0.7387	0.113
Mof_C 	C 	0.15277	0.38436	0.73277	0.301
Mof_C 	C 	0.15578	0.38765	0.71219	-0.268
Mof_H 	H 	0.1679	0.4059	0.7162	0.115
Mof_C 	C 	0.09923	0.30611	0.69166	-0.014
Mof_C 	C 	0.09147	0.28181	0.66932	-0.067
Mof_H 	H 	0.0996	0.2827	0.6577	0.049
Mof_C 	C 	0.0723	0.25615	0.66319	0.021
Mof_H 	H 	0.0677	0.2395	0.6478	0.038
Mof_C 	C 	0.05943	0.25439	0.6796	-0.114
Mof_C 	C 	0.06669	0.27811	0.70086	0.035
Mof_H 	H 	0.0582	0.2776	0.7122	0.031
Mof_C 	C 	0.08599	0.30325	0.70684	-0.074
Mof_H 	H 	0.0906	0.3198	0.7224	0.049
Mof_C 	C 	0.03769	0.22657	0.67104	0.372
Mof_C 	C 	0.31794	0.35375	0.48671	0.358
Mof_C 	C 	0.30312	0.36036	0.46576	-0.098
Mof_C 	C 	0.31675	0.38641	0.4678	0.019
Mof_H 	H 	0.3354	0.3997	0.4827	0.04
Mof_C 	C 	0.30366	0.39328	0.44856	-0.077
Mof_H 	H 	0.3133	0.4111	0.4504	0.055
Mof_C 	C 	0.27643	0.374	0.42659	0.007
Mof_C 	C 	0.26246	0.34844	0.42488	-0.079
Mof_H 	H 	0.2435	0.3353	0.4104	0.052
Mof_C 	C 	0.27629	0.342	0.44457	0.022
Mof_H 	H 	0.2666	0.3244	0.443	0.037
Mof_C 	C 	0.26003	0.38018	0.40543	0.106
Mof_C 	C 	0.23087	0.36887	0.39346	-0.219
Mof_H 	H 	0.2209	0.3561	0.398	0.098
Mof_H 	H 	0.1766	0.3637	0.3469	0.131
Mof_C 	C 	0.18196	0.38408	0.40892	-0.233
Mof_H 	H 	0.1831	0.369	0.4111	0.105
Mof_C 	C 	0.18069	0.40362	0.42901	0.131
Mof_C 	C 	0.18004	0.40102	0.4521	-0.015
Mof_C 	C 	0.16558	0.41028	0.4633	-0.062
Mof_H 	H 	0.1552	0.4176	0.4548	0.049
Mof_C 	C 	0.16563	0.40929	0.48666	0.008
Mof_H 	H 	0.1559	0.4166	0.4943	0.043
Mof_C 	C 	0.17978	0.39774	0.49932	-0.091
Mof_C 	C 	0.19348	0.38775	0.48813	0.015
Mof_H 	H 	0.2031	0.3795	0.4958	0.04
Mof_C 	C 	0.19303	0.38969	0.4648	-0.063
Mof_H 	H 	0.2027	0.3824	0.4571	0.05
Mof_C 	C 	0.17828	0.39704	0.5244	0.368
Mof_O 	O 	0.8241	0.41457	0.19693	-0.418
Mof_O 	O 	0.84667	0.43769	0.2444	-0.419
Mof_O 	O 	0.97089	0.61895	0.17614	-0.404
Mof_O 	O 	0.971	0.65869	0.19631	-0.412
Mof_O 	O 	0.65685	0.16174	0.02857	-0.414
Mof_O 	O 	0.69728	0.18241	0.02853	-0.412
Mof_O 	O 	0.81162	0.3442	0.19556	-0.416
Mof_O 	O 	0.83449	0.36799	0.24262	-0.413
Mof_C 	C 	0.83857	0.43636	0.22143	0.355
Mof_C 	C 	0.8435	0.46385	0.22137	-0.086
Mof_C 	C 	0.84293	0.46737	0.1986	0.01
Mof_H 	H 	0.839	0.4521	0.1823	0.041
Mof_C 	C 	0.84798	0.49229	0.19945	-0.067
Mof_H 	H 	0.8474	0.494	0.1836	0.051
Mof_C 	C 	0.85396	0.51543	0.22317	-0.005
Mof_C 	C 	0.85337	0.51117	0.24442	-0.069
Mof_H 	H 	0.856	0.526	0.2602	0.052
Mof_C 	C 	0.84926	0.48674	0.24454	0.009
Mof_H 	H 	0.8504	0.4855	0.2607	0.039
Mof_C 	C 	0.85874	0.54285	0.22325	0.127
Mof_C 	C 	0.87675	0.55492	0.21477	-0.189
Mof_H 	H 	0.8864	0.5461	0.2089	0.093
Mof_C 	C 	0.88082	0.58001	0.21471	0.148
Mof_C 	C 	0.86623	0.59061	0.22254	-0.269
Mof_H 	H 	0.8687	0.6074	0.2221	0.113
Mof_C 	C 	0.84723	0.58	0.23159	0.302
Mof_C 	C 	0.84422	0.55641	0.23187	-0.268
Mof_H 	H 	0.8321	0.5483	0.238	0.115
Mof_C 	C 	0.90077	0.59243	0.20688	-0.014
Mof_C 	C 	0.90853	0.57785	0.19034	-0.066
Mof_H 	H 	0.9004	0.5581	0.1831	0.049
Mof_C 	C 	0.9277	0.59089	0.18385	0.021
Mof_H 	H 	0.9323	0.5801	0.1718	0.038
Mof_C 	C 	0.94057	0.62017	0.19496	-0.113
Mof_C 	C 	0.93331	0.63417	0.21142	0.035
Mof_H 	H 	0.9418	0.654	0.2194	0.032
Mof_C 	C 	0.91401	0.62085	0.21726	-0.074
Mof_H 	H 	0.9094	0.6318	0.2292	0.049
Mof_C 	C 	0.96231	0.63335	0.18888	0.372
Mof_C 	C 	0.68206	0.16877	0.03581	0.358
Mof_C 	C 	0.69688	0.16264	0.05724	-0.098
Mof_C 	C 	0.68325	0.15105	0.06966	0.019
Mof_H 	H 	0.6646	0.1473	0.0643	0.039
Mof_C 	C 	0.69634	0.1449	0.08962	-0.077
Mof_H 	H 	0.6867	0.1371	0.0978	0.055
Mof_C 	C 	0.72357	0.15016	0.09757	0.007
Mof_C 	C 	0.73754	0.16242	0.08598	-0.079
Mof_H 	H 	0.7565	0.1669	0.0918	0.052
Mof_C 	C 	0.72371	0.16828	0.06571	0.022
Mof_H 	H 	0.7334	0.1764	0.0578	0.037
Mof_C 	C 	0.73997	0.1454	0.12015	0.106
Mof_C 	C 	0.76913	0.16259	0.138	-0.219
Mof_H 	H 	0.7791	0.1771	0.1352	0.098
Mof_H 	H 	0.8234	0.1703	0.1871	0.131
Mof_C 	C 	0.81804	0.22696	0.20212	-0.233
Mof_H 	H 	0.8169	0.228	0.1859	0.105
Mof_C 	C 	0.81931	0.24832	0.22293	0.131
Mof_C 	C 	0.81996	0.27206	0.22098	-0.015
Mof_C 	C 	0.83442	0.29772	0.2447	-0.062
Mof_H 	H 	0.8448	0.2996	0.2624	0.049
Mof_C 	C 	0.83437	0.32103	0.24366	0.008
Mof_H 	H 	0.8441	0.3384	0.2607	0.043
Mof_C 	C 	0.82022	0.31954	0.21796	-0.091
Mof_C 	C 	0.80652	0.29465	0.19427	0.015
Mof_H 	H 	0.7969	0.2927	0.1764	0.04
Mof_C 	C 	0.80697	0.27177	0.19666	-0.062
Mof_H 	H 	0.7973	0.2544	0.1797	0.05
Mof_C 	C 	0.82172	0.34612	0.21876	0.368
Mof_O 	O 	0.78236	0.58543	0.40953	-0.418
Mof_O 	O 	0.80671	0.56231	0.40898	-0.419
Mof_O 	O 	0.55719	0.38105	0.35194	-0.404
Mof_O 	O 	0.53762	0.34131	0.31231	-0.413
Mof_O 	O 	0.86683	0.83826	0.49511	-0.414
Mof_O 	O 	0.84612	0.81759	0.51487	-0.412
Mof_O 	O 	0.85136	0.6558	0.46742	-0.416
Mof_O 	O 	0.87463	0.63201	0.4665	-0.413
Mof_C 	C 	0.78507	0.56364	0.40221	0.355
Mof_C 	C 	0.75752	0.53615	0.37965	-0.086
Mof_C 	C 	0.73123	0.53263	0.37556	0.01
Mof_H 	H 	0.7302	0.5479	0.3869	0.041
Mof_C 	C 	0.70716	0.50771	0.35569	-0.067
Mof_H 	H 	0.6896	0.506	0.3534	0.051
Mof_C 	C 	0.70774	0.48457	0.33853	-0.005
Mof_C 	C 	0.73325	0.48883	0.3422	-0.069
Mof_H 	H 	0.7342	0.474	0.33	0.051
Mof_C 	C 	0.7578	0.51326	0.36252	0.009
Mof_H 	H 	0.7752	0.5145	0.3649	0.039
Mof_C 	C 	0.6804	0.45715	0.31589	0.127
Mof_C 	C 	0.65985	0.44508	0.32183	-0.189
Mof_H 	H 	0.6628	0.4539	0.3403	0.093
Mof_C 	C 	0.6347	0.41999	0.30081	0.148
Mof_C 	C 	0.63193	0.40939	0.27562	-0.269
Mof_H 	H 	0.6147	0.3926	0.2613	0.113
Mof_C 	C 	0.65159	0.42	0.26723	0.301
Mof_C 	C 	0.67546	0.44359	0.28781	-0.268
Mof_H 	H 	0.6897	0.4517	0.2838	0.115
Mof_C 	C 	0.61445	0.40757	0.30834	-0.014
Mof_C 	C 	0.61249	0.42215	0.33068	-0.066
Mof_H 	H 	0.625	0.4419	0.3423	0.049
Mof_C 	C 	0.59296	0.40911	0.33681	0.021
Mof_H 	H 	0.5917	0.4199	0.3522	0.038
Mof_C 	C 	0.57479	0.37983	0.3204	-0.113
Mof_C 	C 	0.57725	0.36583	0.29914	0.035
Mof_H 	H 	0.5654	0.346	0.2878	0.032
Mof_C 	C 	0.59641	0.37915	0.29316	-0.074
Mof_H 	H 	0.5974	0.3682	0.2776	0.049
Mof_C 	C 	0.55553	0.36665	0.32896	0.372
Mof_C 	C 	0.86704	0.83123	0.51329	0.358
Mof_C 	C 	0.8946	0.83736	0.53424	-0.098
Mof_C 	C 	0.91861	0.84895	0.5322	0.019
Mof_H 	H 	0.917	0.8527	0.5173	0.04
Mof_C 	C 	0.94472	0.8551	0.55144	-0.077
Mof_H 	H 	0.9607	0.8629	0.5496	0.055
Mof_C 	C 	0.94741	0.84984	0.57341	0.007
Mof_C 	C 	0.92356	0.83758	0.57512	-0.079
Mof_H 	H 	0.9249	0.8331	0.5896	0.053
Mof_C 	C 	0.89743	0.83172	0.55543	0.022
Mof_H 	H 	0.8814	0.8236	0.557	0.037
Mof_C 	C 	0.97475	0.8546	0.59457	0.107
Mof_C 	C 	0.97541	0.83741	0.60654	-0.219
Mof_H 	H 	0.9581	0.8229	0.602	0.098
Mof_H 	H 	0.0168	0.8297	0.6531	0.131
Mof_C 	C 	0.97516	0.77304	0.59108	-0.233
Mof_H 	H 	0.9579	0.772	0.5889	0.105
Mof_C 	C 	0.97461	0.75168	0.57099	0.132
Mof_C 	C 	0.94892	0.72794	0.5479	-0.016
Mof_C 	C 	0.94698	0.70228	0.5367	-0.062
Mof_H 	H 	0.9628	0.7004	0.5452	0.049
Mof_C 	C 	0.92263	0.67897	0.51334	0.008
Mof_H 	H 	0.9223	0.6616	0.5057	0.043
Mof_C 	C 	0.89842	0.68046	0.50068	-0.091
Mof_C 	C 	0.89962	0.70535	0.51187	0.014
Mof_H 	H 	0.8837	0.7073	0.5042	0.04
Mof_C 	C 	0.92489	0.72823	0.5352	-0.062
Mof_H 	H 	0.9253	0.7456	0.5429	0.05
Mof_C 	C 	0.87264	0.65388	0.4756	0.368
Mof_O 	O 	0.21764	0.62717	0.80307	-0.418
Mof_O 	O 	0.19329	0.60227	0.7556	-0.419
Mof_O 	O 	0.44281	0.79475	0.82386	-0.404
Mof_O 	O 	0.46238	0.77469	0.80369	-0.413
Mof_O 	O 	0.13317	0.62828	0.97143	-0.413
Mof_O 	O 	0.15388	0.66875	0.97147	-0.411
Mof_O 	O 	0.14864	0.61606	0.80444	-0.416
Mof_O 	O 	0.12537	0.59187	0.75738	-0.413
Mof_C 	C 	0.21493	0.61714	0.77857	0.355
Mof_C 	C 	0.24248	0.62213	0.77863	-0.086
Mof_C 	C 	0.26877	0.64433	0.8014	0.01
Mof_H 	H 	0.2698	0.6567	0.8177	0.041
Mof_C 	C 	0.29284	0.64853	0.80055	-0.067
Mof_H 	H 	0.3104	0.6638	0.8164	0.051
Mof_C 	C 	0.29226	0.63079	0.77683	-0.005
Mof_C 	C 	0.26675	0.60895	0.75558	-0.069
Mof_H 	H 	0.2658	0.5958	0.7398	0.051
Mof_C 	C 	0.2422	0.60472	0.75546	0.009
Mof_H 	H 	0.2248	0.5897	0.7393	0.039
Mof_C 	C 	0.3196	0.63549	0.77675	0.127
Mof_C 	C 	0.34015	0.66198	0.78523	-0.189
Mof_H 	H 	0.3372	0.6775	0.7911	0.093
Mof_C 	C 	0.3653	0.66611	0.78529	0.148
Mof_C 	C 	0.36807	0.64369	0.77746	-0.269
Mof_H 	H 	0.3853	0.6466	0.7779	0.113
Mof_C 	C 	0.34841	0.61564	0.76841	0.301
Mof_C 	C 	0.32454	0.61235	0.76813	-0.268
Mof_H 	H 	0.3103	0.5941	0.762	0.115
Mof_C 	C 	0.38555	0.69389	0.79312	-0.014
Mof_C 	C 	0.38751	0.71819	0.80966	-0.066
Mof_H 	H 	0.375	0.7173	0.8169	0.049
Mof_C 	C 	0.40704	0.74385	0.81615	0.021
Mof_H 	H 	0.4083	0.7605	0.8282	0.038
Mof_C 	C 	0.42521	0.74561	0.80504	-0.113
Mof_C 	C 	0.42275	0.72189	0.78858	0.035
Mof_H 	H 	0.4346	0.7224	0.7806	0.032
Mof_C 	C 	0.40359	0.69675	0.78274	-0.074
Mof_H 	H 	0.4026	0.6802	0.7708	0.049
Mof_C 	C 	0.44447	0.77343	0.81112	0.372
Mof_C 	C 	0.13296	0.64625	0.96419	0.358
Mof_C 	C 	0.1054	0.63964	0.94276	-0.098
Mof_C 	C 	0.08139	0.61359	0.93034	0.019
Mof_H 	H 	0.083	0.6003	0.9357	0.04
Mof_C 	C 	0.05528	0.60672	0.91038	-0.077
Mof_H 	H 	0.0393	0.5889	0.9022	0.055
Mof_C 	C 	0.05259	0.626	0.90243	0.007
Mof_C 	C 	0.07644	0.65156	0.91402	-0.078
Mof_H 	H 	0.0751	0.6647	0.9082	0.052
Mof_C 	C 	0.10257	0.658	0.93429	0.022
Mof_H 	H 	0.1186	0.6756	0.9422	0.037
Mof_C 	C 	0.02525	0.61982	0.87985	0.106
Mof_C 	C 	0.02459	0.63113	0.862	-0.219
Mof_H 	H 	0.0419	0.6439	0.8648	0.098
Mof_H 	H 	0.9832	0.6363	0.8129	0.132
Mof_C 	C 	0.02484	0.61592	0.79788	-0.234
Mof_H 	H 	0.0421	0.631	0.8141	0.105
Mof_C 	C 	0.02539	0.59638	0.77707	0.131
Mof_C 	C 	0.05108	0.59898	0.77902	-0.016
Mof_C 	C 	0.05302	0.58972	0.7553	-0.062
Mof_H 	H 	0.0372	0.5824	0.7376	0.049
Mof_C 	C 	0.07737	0.59071	0.75634	0.008
Mof_H 	H 	0.0777	0.5834	0.7393	0.043
Mof_C 	C 	0.10158	0.60226	0.78204	-0.091
Mof_C 	C 	0.10038	0.61225	0.80573	0.014
Mof_H 	H 	0.1163	0.6205	0.8236	0.04
Mof_C 	C 	0.07511	0.61031	0.80334	-0.062
Mof_H 	H 	0.0747	0.6176	0.8203	0.05
Mof_C 	C 	0.12736	0.60296	0.78124	0.368
Mof_O 	O 	0.59047	0.1759	0.37283	-0.418
Mof_O 	O 	0.59102	0.15333	0.39773	-0.42
Mof_O 	O 	0.64806	0.02911	0.20525	-0.404
Mof_O 	O 	0.68769	0.029	0.22531	-0.413
Mof_O 	O 	0.50489	0.34315	0.37172	-0.414
Mof_O 	O 	0.48513	0.30272	0.33125	-0.412
Mof_O 	O 	0.53258	0.18838	0.38394	-0.416
Mof_O 	O 	0.5335	0.16551	0.40813	-0.413
Mof_C 	C 	0.59779	0.16143	0.38286	0.355
Mof_C 	C 	0.62035	0.1565	0.37787	-0.086
Mof_C 	C 	0.62444	0.15707	0.35567	0.01
Mof_H 	H 	0.6131	0.161	0.3433	0.041
Mof_C 	C 	0.64431	0.15202	0.35147	-0.067
Mof_H 	H 	0.6466	0.1526	0.3362	0.051
Mof_C 	C 	0.66147	0.14604	0.36921	-0.005
Mof_C 	C 	0.6578	0.14663	0.39105	-0.069
Mof_H 	H 	0.67	0.144	0.4042	0.051
Mof_C 	C 	0.63748	0.15074	0.39528	0.009
Mof_H 	H 	0.6351	0.1496	0.4103	0.039
Mof_C 	C 	0.68411	0.14126	0.36451	0.127
Mof_C 	C 	0.67817	0.12325	0.33802	-0.189
Mof_H 	H 	0.6597	0.1136	0.3225	0.093
Mof_C 	C 	0.69919	0.11918	0.33389	0.148
Mof_C 	C 	0.72438	0.13377	0.35631	-0.269
Mof_H 	H 	0.7387	0.1313	0.3534	0.113
Mof_C 	C 	0.73277	0.15277	0.38436	0.301
Mof_C 	C 	0.71219	0.15578	0.38765	-0.268
Mof_H 	H 	0.7162	0.1679	0.4059	0.115
Mof_C 	C 	0.69166	0.09923	0.30611	-0.014
Mof_C 	C 	0.66932	0.09147	0.28181	-0.067
Mof_H 	H 	0.6577	0.0996	0.2827	0.049
Mof_C 	C 	0.66319	0.0723	0.25615	0.021
Mof_H 	H 	0.6478	0.0677	0.2395	0.038
Mof_C 	C 	0.6796	0.05943	0.25439	-0.114
Mof_C 	C 	0.70086	0.06669	0.27811	0.035
Mof_H 	H 	0.7122	0.0582	0.2776	0.031
Mof_C 	C 	0.70684	0.08599	0.30325	-0.074
Mof_H 	H 	0.7224	0.0906	0.3198	0.049
Mof_C 	C 	0.67104	0.03769	0.22657	0.372
Mof_C 	C 	0.48671	0.31794	0.35375	0.358
Mof_C 	C 	0.46576	0.30312	0.36036	-0.098
Mof_C 	C 	0.4678	0.31675	0.38641	0.019
Mof_H 	H 	0.4827	0.3354	0.3997	0.04
Mof_C 	C 	0.44856	0.30366	0.39328	-0.077
Mof_H 	H 	0.4504	0.3133	0.4111	0.055
Mof_C 	C 	0.42659	0.27643	0.374	0.007
Mof_C 	C 	0.42488	0.26246	0.34844	-0.079
Mof_H 	H 	0.4104	0.2435	0.3353	0.052
Mof_C 	C 	0.44457	0.27629	0.342	0.022
Mof_H 	H 	0.443	0.2666	0.3244	0.037
Mof_C 	C 	0.40543	0.26003	0.38018	0.106
Mof_C 	C 	0.39346	0.23087	0.36887	-0.219
Mof_H 	H 	0.398	0.2209	0.3561	0.098
Mof_H 	H 	0.3469	0.1766	0.3637	0.131
Mof_C 	C 	0.40892	0.18196	0.38408	-0.233
Mof_H 	H 	0.4111	0.1831	0.369	0.105
Mof_C 	C 	0.42901	0.18069	0.40362	0.131
Mof_C 	C 	0.4521	0.18004	0.40102	-0.015
Mof_C 	C 	0.4633	0.16558	0.41028	-0.062
Mof_H 	H 	0.4548	0.1552	0.4176	0.049
Mof_C 	C 	0.48666	0.16563	0.40929	0.008
Mof_H 	H 	0.4943	0.1559	0.4166	0.043
Mof_C 	C 	0.49932	0.17978	0.39774	-0.091
Mof_C 	C 	0.48813	0.19348	0.38775	0.015
Mof_H 	H 	0.4958	0.2031	0.3795	0.04
Mof_C 	C 	0.4648	0.19303	0.38969	-0.063
Mof_H 	H 	0.4571	0.2027	0.3824	0.05
Mof_C 	C 	0.5244	0.17828	0.39704	0.368
Mof_O 	O 	0.19693	0.8241	0.41457	-0.418
Mof_O 	O 	0.2444	0.84667	0.43769	-0.419
Mof_O 	O 	0.17614	0.97089	0.61895	-0.404
Mof_O 	O 	0.19631	0.971	0.65869	-0.412
Mof_O 	O 	0.02857	0.65685	0.16174	-0.414
Mof_O 	O 	0.02853	0.69728	0.18241	-0.412
Mof_O 	O 	0.19556	0.81162	0.3442	-0.416
Mof_O 	O 	0.24262	0.83449	0.36799	-0.413
Mof_C 	C 	0.22143	0.83857	0.43636	0.355
Mof_C 	C 	0.22137	0.8435	0.46385	-0.086
Mof_C 	C 	0.1986	0.84293	0.46737	0.01
Mof_H 	H 	0.1823	0.839	0.4521	0.041
Mof_C 	C 	0.19945	0.84798	0.49229	-0.067
Mof_H 	H 	0.1836	0.8474	0.494	0.051
Mof_C 	C 	0.22317	0.85396	0.51543	-0.005
Mof_C 	C 	0.24442	0.85337	0.51117	-0.069
Mof_H 	H 	0.2602	0.856	0.526	0.052
Mof_C 	C 	0.24454	0.84926	0.48674	0.009
Mof_H 	H 	0.2607	0.8504	0.4855	0.039
Mof_C 	C 	0.22325	0.85874	0.54285	0.127
Mof_C 	C 	0.21477	0.87675	0.55492	-0.189
Mof_H 	H 	0.2089	0.8864	0.5461	0.093
Mof_C 	C 	0.21471	0.88082	0.58001	0.148
Mof_C 	C 	0.22254	0.86623	0.59061	-0.269
Mof_H 	H 	0.2221	0.8687	0.6074	0.113
Mof_C 	C 	0.23159	0.84723	0.58	0.302
Mof_C 	C 	0.23187	0.84422	0.55641	-0.268
Mof_H 	H 	0.238	0.8321	0.5483	0.115
Mof_C 	C 	0.20688	0.90077	0.59243	-0.014
Mof_C 	C 	0.19034	0.90853	0.57785	-0.066
Mof_H 	H 	0.1831	0.9004	0.5581	0.049
Mof_C 	C 	0.18385	0.9277	0.59089	0.021
Mof_H 	H 	0.1718	0.9323	0.5801	0.038
Mof_C 	C 	0.19496	0.94057	0.62017	-0.113
Mof_C 	C 	0.21142	0.93331	0.63417	0.035
Mof_H 	H 	0.2194	0.9418	0.654	0.032
Mof_C 	C 	0.21726	0.91401	0.62085	-0.074
Mof_H 	H 	0.2292	0.9094	0.6318	0.049
Mof_C 	C 	0.18888	0.96231	0.63335	0.372
Mof_C 	C 	0.03581	0.68206	0.16877	0.358
Mof_C 	C 	0.05724	0.69688	0.16264	-0.098
Mof_C 	C 	0.06966	0.68325	0.15105	0.019
Mof_H 	H 	0.0643	0.6646	0.1473	0.039
Mof_C 	C 	0.08962	0.69634	0.1449	-0.077
Mof_H 	H 	0.0978	0.6867	0.1371	0.055
Mof_C 	C 	0.09757	0.72357	0.15016	0.007
Mof_C 	C 	0.08598	0.73754	0.16242	-0.079
Mof_H 	H 	0.0918	0.7565	0.1669	0.052
Mof_C 	C 	0.06571	0.72371	0.16828	0.022
Mof_H 	H 	0.0578	0.7334	0.1764	0.037
Mof_C 	C 	0.12015	0.73997	0.1454	0.106
Mof_C 	C 	0.138	0.76913	0.16259	-0.219
Mof_H 	H 	0.1352	0.7791	0.1771	0.098
Mof_H 	H 	0.1871	0.8234	0.1703	0.131
Mof_C 	C 	0.20212	0.81804	0.22696	-0.233
Mof_H 	H 	0.1859	0.8169	0.228	0.105
Mof_C 	C 	0.22293	0.81931	0.24832	0.131
Mof_C 	C 	0.22098	0.81996	0.27206	-0.015
Mof_C 	C 	0.2447	0.83442	0.29772	-0.062
Mof_H 	H 	0.2624	0.8448	0.2996	0.049
Mof_C 	C 	0.24366	0.83437	0.32103	0.008
Mof_H 	H 	0.2607	0.8441	0.3384	0.043
Mof_C 	C 	0.21796	0.82022	0.31954	-0.091
Mof_C 	C 	0.19427	0.80652	0.29465	0.015
Mof_H 	H 	0.1764	0.7969	0.2927	0.04
Mof_C 	C 	0.19666	0.80697	0.27177	-0.062
Mof_H 	H 	0.1797	0.7973	0.2544	0.05
Mof_C 	C 	0.21876	0.82172	0.34612	0.368
Mof_O 	O 	0.40953	0.78236	0.58543	-0.418
Mof_O 	O 	0.40898	0.80671	0.56231	-0.419
Mof_O 	O 	0.35194	0.55719	0.38105	-0.404
Mof_O 	O 	0.31231	0.53762	0.34131	-0.413
Mof_O 	O 	0.49511	0.86683	0.83826	-0.414
Mof_O 	O 	0.51487	0.84612	0.81759	-0.412
Mof_O 	O 	0.46742	0.85136	0.6558	-0.416
Mof_O 	O 	0.4665	0.87463	0.63201	-0.413
Mof_C 	C 	0.40221	0.78507	0.56364	0.355
Mof_C 	C 	0.37965	0.75752	0.53615	-0.086
Mof_C 	C 	0.37556	0.73123	0.53263	0.01
Mof_H 	H 	0.3869	0.7302	0.5479	0.041
Mof_C 	C 	0.35569	0.70716	0.50771	-0.067
Mof_H 	H 	0.3534	0.6896	0.506	0.051
Mof_C 	C 	0.33853	0.70774	0.48457	-0.005
Mof_C 	C 	0.3422	0.73325	0.48883	-0.069
Mof_H 	H 	0.33	0.7342	0.474	0.051
Mof_C 	C 	0.36252	0.7578	0.51326	0.009
Mof_H 	H 	0.3649	0.7752	0.5145	0.039
Mof_C 	C 	0.31589	0.6804	0.45715	0.127
Mof_C 	C 	0.32183	0.65985	0.44508	-0.189
Mof_H 	H 	0.3403	0.6628	0.4539	0.093
Mof_C 	C 	0.30081	0.6347	0.41999	0.148
Mof_C 	C 	0.27562	0.63193	0.40939	-0.269
Mof_H 	H 	0.2613	0.6147	0.3926	0.113
Mof_C 	C 	0.26723	0.65159	0.42	0.301
Mof_C 	C 	0.28781	0.67546	0.44359	-0.268
Mof_H 	H 	0.2838	0.6897	0.4517	0.115
Mof_C 	C 	0.30834	0.61445	0.40757	-0.014
Mof_C 	C 	0.33068	0.61249	0.42215	-0.066
Mof_H 	H 	0.3423	0.625	0.4419	0.049
Mof_C 	C 	0.33681	0.59296	0.40911	0.021
Mof_H 	H 	0.3522	0.5917	0.4199	0.038
Mof_C 	C 	0.3204	0.57479	0.37983	-0.113
Mof_C 	C 	0.29914	0.57725	0.36583	0.035
Mof_H 	H 	0.2878	0.5654	0.346	0.032
Mof_C 	C 	0.29316	0.59641	0.37915	-0.074
Mof_H 	H 	0.2776	0.5974	0.3682	0.049
Mof_C 	C 	0.32896	0.55553	0.36665	0.372
Mof_C 	C 	0.51329	0.86704	0.83123	0.358
Mof_C 	C 	0.53424	0.8946	0.83736	-0.098
Mof_C 	C 	0.5322	0.91861	0.84895	0.019
Mof_H 	H 	0.5173	0.917	0.8527	0.04
Mof_C 	C 	0.55144	0.94472	0.8551	-0.077
Mof_H 	H 	0.5496	0.9607	0.8629	0.055
Mof_C 	C 	0.57341	0.94741	0.84984	0.007
Mof_C 	C 	0.57512	0.92356	0.83758	-0.079
Mof_H 	H 	0.5896	0.9249	0.8331	0.053
Mof_C 	C 	0.55543	0.89743	0.83172	0.022
Mof_H 	H 	0.557	0.8814	0.8236	0.037
Mof_C 	C 	0.59457	0.97475	0.8546	0.107
Mof_C 	C 	0.60654	0.97541	0.83741	-0.219
Mof_H 	H 	0.602	0.9581	0.8229	0.098
Mof_H 	H 	0.6531	0.0168	0.8297	0.131
Mof_C 	C 	0.59108	0.97516	0.77304	-0.233
Mof_H 	H 	0.5889	0.9579	0.772	0.105
Mof_C 	C 	0.57099	0.97461	0.75168	0.132
Mof_C 	C 	0.5479	0.94892	0.72794	-0.016
Mof_C 	C 	0.5367	0.94698	0.70228	-0.062
Mof_H 	H 	0.5452	0.9628	0.7004	0.049
Mof_C 	C 	0.51334	0.92263	0.67897	0.008
Mof_H 	H 	0.5057	0.9223	0.6616	0.043
Mof_C 	C 	0.50068	0.89842	0.68046	-0.091
Mof_C 	C 	0.51187	0.89962	0.70535	0.014
Mof_H 	H 	0.5042	0.8837	0.7073	0.04
Mof_C 	C 	0.5352	0.92489	0.72823	-0.062
Mof_H 	H 	0.5429	0.9253	0.7456	0.05
Mof_C 	C 	0.4756	0.87264	0.65388	0.368
Mof_O 	O 	0.80307	0.21764	0.62717	-0.418
Mof_O 	O 	0.7556	0.19329	0.60227	-0.419
Mof_O 	O 	0.82386	0.44281	0.79475	-0.404
Mof_O 	O 	0.80369	0.46238	0.77469	-0.413
Mof_O 	O 	0.97143	0.13317	0.62828	-0.413
Mof_O 	O 	0.97147	0.15388	0.66875	-0.411
Mof_O 	O 	0.80444	0.14864	0.61606	-0.416
Mof_O 	O 	0.75738	0.12537	0.59187	-0.413
Mof_C 	C 	0.77857	0.21493	0.61714	0.355
Mof_C 	C 	0.77863	0.24248	0.62213	-0.086
Mof_C 	C 	0.8014	0.26877	0.64433	0.01
Mof_H 	H 	0.8177	0.2698	0.6567	0.041
Mof_C 	C 	0.80055	0.29284	0.64853	-0.067
Mof_H 	H 	0.8164	0.3104	0.6638	0.051
Mof_C 	C 	0.77683	0.29226	0.63079	-0.005
Mof_C 	C 	0.75558	0.26675	0.60895	-0.069
Mof_H 	H 	0.7398	0.2658	0.5958	0.051
Mof_C 	C 	0.75546	0.2422	0.60472	0.009
Mof_H 	H 	0.7393	0.2248	0.5897	0.039
Mof_C 	C 	0.77675	0.3196	0.63549	0.127
Mof_C 	C 	0.78523	0.34015	0.66198	-0.189
Mof_H 	H 	0.7911	0.3372	0.6775	0.093
Mof_C 	C 	0.78529	0.3653	0.66611	0.148
Mof_C 	C 	0.77746	0.36807	0.64369	-0.269
Mof_H 	H 	0.7779	0.3853	0.6466	0.113
Mof_C 	C 	0.76841	0.34841	0.61564	0.301
Mof_C 	C 	0.76813	0.32454	0.61235	-0.268
Mof_H 	H 	0.762	0.3103	0.5941	0.115
Mof_C 	C 	0.79312	0.38555	0.69389	-0.014
Mof_C 	C 	0.80966	0.38751	0.71819	-0.066
Mof_H 	H 	0.8169	0.375	0.7173	0.049
Mof_C 	C 	0.81615	0.40704	0.74385	0.021
Mof_H 	H 	0.8282	0.4083	0.7605	0.038
Mof_C 	C 	0.80504	0.42521	0.74561	-0.113
Mof_C 	C 	0.78858	0.42275	0.72189	0.035
Mof_H 	H 	0.7806	0.4346	0.7224	0.032
Mof_C 	C 	0.78274	0.40359	0.69675	-0.074
Mof_H 	H 	0.7708	0.4026	0.6802	0.049
Mof_C 	C 	0.81112	0.44447	0.77343	0.372
Mof_C 	C 	0.96419	0.13296	0.64625	0.358
Mof_C 	C 	0.94276	0.1054	0.63964	-0.098
Mof_C 	C 	0.93034	0.08139	0.61359	0.019
Mof_H 	H 	0.9357	0.083	0.6003	0.04
Mof_C 	C 	0.91038	0.05528	0.60672	-0.077
Mof_H 	H 	0.9022	0.0393	0.5889	0.055
Mof_C 	C 	0.90243	0.05259	0.626	0.007
Mof_C 	C 	0.91402	0.07644	0.65156	-0.078
Mof_H 	H 	0.9082	0.0751	0.6647	0.052
Mof_C 	C 	0.93429	0.10257	0.658	0.022
Mof_H 	H 	0.9422	0.1186	0.6756	0.037
Mof_C 	C 	0.87985	0.02525	0.61982	0.106
Mof_C 	C 	0.862	0.02459	0.63113	-0.219
Mof_H 	H 	0.8648	0.0419	0.6439	0.098
Mof_H 	H 	0.8129	0.9832	0.6363	0.132
Mof_C 	C 	0.79788	0.02484	0.61592	-0.234
Mof_H 	H 	0.8141	0.0421	0.631	0.105
Mof_C 	C 	0.77707	0.02539	0.59638	0.131
Mof_C 	C 	0.77902	0.05108	0.59898	-0.016
Mof_C 	C 	0.7553	0.05302	0.58972	-0.062
Mof_H 	H 	0.7376	0.0372	0.5824	0.049
Mof_C 	C 	0.75634	0.07737	0.59071	0.008
Mof_H 	H 	0.7393	0.0777	0.5834	0.043
Mof_C 	C 	0.78204	0.10158	0.60226	-0.091
Mof_C 	C 	0.80573	0.10038	0.61225	0.014
Mof_H 	H 	0.8236	0.1163	0.6205	0.04
Mof_C 	C 	0.80334	0.07511	0.61031	-0.062
Mof_H 	H 	0.8203	0.0747	0.6176	0.05
Mof_C 	C 	0.78124	0.12736	0.60296	0.368
Mof_O 	O 	0.80307	0.58543	0.1759	-0.418
Mof_O 	O 	0.7556	0.56231	0.15333	-0.42
Mof_O 	O 	0.82386	0.38105	0.02911	-0.404
Mof_O 	O 	0.80369	0.34131	0.029	-0.413
Mof_O 	O 	0.97143	0.83826	0.34315	-0.413
Mof_O 	O 	0.97147	0.81759	0.30272	-0.411
Mof_O 	O 	0.80444	0.6558	0.18838	-0.416
Mof_O 	O 	0.75738	0.63201	0.16551	-0.413
Mof_C 	C 	0.77857	0.56364	0.16143	0.355
Mof_C 	C 	0.77863	0.53615	0.1565	-0.086
Mof_C 	C 	0.8014	0.53263	0.15707	0.01
Mof_H 	H 	0.8177	0.5479	0.161	0.041
Mof_C 	C 	0.80055	0.50771	0.15202	-0.067
Mof_H 	H 	0.8164	0.506	0.1526	0.051
Mof_C 	C 	0.77683	0.48457	0.14604	-0.005
Mof_C 	C 	0.75558	0.48883	0.14663	-0.069
Mof_H 	H 	0.7398	0.474	0.144	0.051
Mof_C 	C 	0.75546	0.51326	0.15074	0.009
Mof_H 	H 	0.7393	0.5145	0.1496	0.039
Mof_C 	C 	0.77675	0.45715	0.14126	0.127
Mof_C 	C 	0.78523	0.44508	0.12325	-0.189
Mof_H 	H 	0.7911	0.4539	0.1136	0.093
Mof_C 	C 	0.78529	0.41999	0.11918	0.148
Mof_C 	C 	0.77746	0.40939	0.13377	-0.269
Mof_H 	H 	0.7779	0.3926	0.1313	0.113
Mof_C 	C 	0.76841	0.42	0.15277	0.301
Mof_C 	C 	0.76813	0.44359	0.15578	-0.268
Mof_H 	H 	0.762	0.4517	0.1679	0.115
Mof_C 	C 	0.79312	0.40757	0.09923	-0.014
Mof_C 	C 	0.80966	0.42215	0.09147	-0.067
Mof_H 	H 	0.8169	0.4419	0.0996	0.049
Mof_C 	C 	0.81615	0.40911	0.0723	0.021
Mof_H 	H 	0.8282	0.4199	0.0677	0.038
Mof_C 	C 	0.80504	0.37983	0.05943	-0.114
Mof_C 	C 	0.78858	0.36583	0.06669	0.035
Mof_H 	H 	0.7806	0.346	0.0582	0.031
Mof_C 	C 	0.78274	0.37915	0.08599	-0.074
Mof_H 	H 	0.7708	0.3682	0.0906	0.049
Mof_C 	C 	0.81112	0.36665	0.03769	0.372
Mof_C 	C 	0.96419	0.83123	0.31794	0.358
Mof_C 	C 	0.94276	0.83736	0.30312	-0.098
Mof_C 	C 	0.93034	0.84895	0.31675	0.019
Mof_H 	H 	0.9357	0.8527	0.3354	0.04
Mof_C 	C 	0.91038	0.8551	0.30366	-0.077
Mof_H 	H 	0.9022	0.8629	0.3133	0.055
Mof_C 	C 	0.90243	0.84984	0.27643	0.007
Mof_C 	C 	0.91402	0.83758	0.26246	-0.079
Mof_H 	H 	0.9082	0.8331	0.2435	0.053
Mof_C 	C 	0.93429	0.83172	0.27629	0.022
Mof_H 	H 	0.9422	0.8236	0.2666	0.037
Mof_C 	C 	0.87985	0.8546	0.26003	0.106
Mof_C 	C 	0.862	0.83741	0.23087	-0.219
Mof_H 	H 	0.8648	0.8229	0.2209	0.098
Mof_H 	H 	0.8129	0.8297	0.1766	0.131
Mof_C 	C 	0.79788	0.77304	0.18196	-0.233
Mof_H 	H 	0.8141	0.772	0.1831	0.105
Mof_C 	C 	0.77707	0.75168	0.18069	0.131
Mof_C 	C 	0.77902	0.72794	0.18004	-0.015
Mof_C 	C 	0.7553	0.70228	0.16558	-0.062
Mof_H 	H 	0.7376	0.7004	0.1552	0.049
Mof_C 	C 	0.75634	0.67897	0.16563	0.008
Mof_H 	H 	0.7393	0.6616	0.1559	0.043
Mof_C 	C 	0.78204	0.68046	0.17978	-0.091
Mof_C 	C 	0.80573	0.70535	0.19348	0.015
Mof_H 	H 	0.8236	0.7073	0.2031	0.04
Mof_C 	C 	0.80334	0.72823	0.19303	-0.062
Mof_H 	H 	0.8203	0.7456	0.2027	0.05
Mof_C 	C 	0.78124	0.65388	0.17828	0.368
Mof_O 	O 	0.40953	0.62717	0.8241	-0.418
Mof_O 	O 	0.40898	0.60227	0.84667	-0.419
Mof_O 	O 	0.35194	0.79475	0.97089	-0.404
Mof_O 	O 	0.31231	0.77469	0.971	-0.412
Mof_O 	O 	0.49511	0.62828	0.65685	-0.414
Mof_O 	O 	0.51487	0.66875	0.69728	-0.412
Mof_O 	O 	0.46742	0.61606	0.81162	-0.416
Mof_O 	O 	0.4665	0.59187	0.83449	-0.413
Mof_C 	C 	0.40221	0.61714	0.83857	0.355
Mof_C 	C 	0.37965	0.62213	0.8435	-0.086
Mof_C 	C 	0.37556	0.64433	0.84293	0.01
Mof_H 	H 	0.3869	0.6567	0.839	0.041
Mof_C 	C 	0.35569	0.64853	0.84798	-0.067
Mof_H 	H 	0.3534	0.6638	0.8474	0.051
Mof_C 	C 	0.33853	0.63079	0.85396	-0.005
Mof_C 	C 	0.3422	0.60895	0.85337	-0.069
Mof_H 	H 	0.33	0.5958	0.856	0.052
Mof_C 	C 	0.36252	0.60472	0.84926	0.009
Mof_H 	H 	0.3649	0.5897	0.8504	0.039
Mof_C 	C 	0.31589	0.63549	0.85874	0.127
Mof_C 	C 	0.32183	0.66198	0.87675	-0.189
Mof_H 	H 	0.3403	0.6775	0.8864	0.093
Mof_C 	C 	0.30081	0.66611	0.88082	0.148
Mof_C 	C 	0.27562	0.64369	0.86623	-0.269
Mof_H 	H 	0.2613	0.6466	0.8687	0.113
Mof_C 	C 	0.26723	0.61564	0.84723	0.302
Mof_C 	C 	0.28781	0.61235	0.84422	-0.268
Mof_H 	H 	0.2838	0.5941	0.8321	0.115
Mof_C 	C 	0.30834	0.69389	0.90077	-0.014
Mof_C 	C 	0.33068	0.71819	0.90853	-0.066
Mof_H 	H 	0.3423	0.7173	0.9004	0.049
Mof_C 	C 	0.33681	0.74385	0.9277	0.021
Mof_H 	H 	0.3522	0.7605	0.9323	0.038
Mof_C 	C 	0.3204	0.74561	0.94057	-0.113
Mof_C 	C 	0.29914	0.72189	0.93331	0.035
Mof_H 	H 	0.2878	0.7224	0.9418	0.032
Mof_C 	C 	0.29316	0.69675	0.91401	-0.074
Mof_H 	H 	0.2776	0.6802	0.9094	0.049
Mof_C 	C 	0.32896	0.77343	0.96231	0.372
Mof_C 	C 	0.51329	0.64625	0.68206	0.358
Mof_C 	C 	0.53424	0.63964	0.69688	-0.098
Mof_C 	C 	0.5322	0.61359	0.68325	0.019
Mof_H 	H 	0.5173	0.6003	0.6646	0.04
Mof_C 	C 	0.55144	0.60672	0.69634	-0.077
Mof_H 	H 	0.5496	0.5889	0.6867	0.055
Mof_C 	C 	0.57341	0.626	0.72357	0.007
Mof_C 	C 	0.57512	0.65156	0.73754	-0.079
Mof_H 	H 	0.5896	0.6647	0.7565	0.053
Mof_C 	C 	0.55543	0.658	0.72371	0.022
Mof_H 	H 	0.557	0.6756	0.7334	0.037
Mof_C 	C 	0.59457	0.61982	0.73997	0.106
Mof_C 	C 	0.60654	0.63113	0.76913	-0.219
Mof_H 	H 	0.602	0.6439	0.7791	0.098
Mof_H 	H 	0.6531	0.6363	0.8234	0.131
Mof_C 	C 	0.59108	0.61592	0.81804	-0.233
Mof_H 	H 	0.5889	0.631	0.8169	0.105
Mof_C 	C 	0.57099	0.59638	0.81931	0.131
Mof_C 	C 	0.5479	0.59898	0.81996	-0.015
Mof_C 	C 	0.5367	0.58972	0.83442	-0.062
Mof_H 	H 	0.5452	0.5824	0.8448	0.049
Mof_C 	C 	0.51334	0.59071	0.83437	0.008
Mof_H 	H 	0.5057	0.5834	0.8441	0.043
Mof_C 	C 	0.50068	0.60226	0.82022	-0.091
Mof_C 	C 	0.51187	0.61225	0.80652	0.015
Mof_H 	H 	0.5042	0.6205	0.7969	0.04
Mof_C 	C 	0.5352	0.61031	0.80697	-0.062
Mof_H 	H 	0.5429	0.6176	0.7973	0.05
Mof_C 	C 	0.4756	0.60296	0.82172	0.368
Mof_O 	O 	0.19693	0.37283	0.78236	-0.418
Mof_O 	O 	0.2444	0.39773	0.80671	-0.419
Mof_O 	O 	0.17614	0.20525	0.55719	-0.404
Mof_O 	O 	0.19631	0.22531	0.53762	-0.413
Mof_O 	O 	0.02857	0.37172	0.86683	-0.414
Mof_O 	O 	0.02853	0.33125	0.84612	-0.412
Mof_O 	O 	0.19556	0.38394	0.85136	-0.416
Mof_O 	O 	0.24262	0.40813	0.87463	-0.413
Mof_C 	C 	0.22143	0.38286	0.78507	0.355
Mof_C 	C 	0.22137	0.37787	0.75752	-0.086
Mof_C 	C 	0.1986	0.35567	0.73123	0.01
Mof_H 	H 	0.1823	0.3433	0.7302	0.041
Mof_C 	C 	0.19945	0.35147	0.70716	-0.067
Mof_H 	H 	0.1836	0.3362	0.6896	0.051
Mof_C 	C 	0.22317	0.36921	0.70774	-0.005
Mof_C 	C 	0.24442	0.39105	0.73325	-0.069
Mof_H 	H 	0.2602	0.4042	0.7342	0.051
Mof_C 	C 	0.24454	0.39528	0.7578	0.009
Mof_H 	H 	0.2607	0.4103	0.7752	0.039
Mof_C 	C 	0.22325	0.36451	0.6804	0.127
Mof_C 	C 	0.21477	0.33802	0.65985	-0.189
Mof_H 	H 	0.2089	0.3225	0.6628	0.093
Mof_C 	C 	0.21471	0.33389	0.6347	0.148
Mof_C 	C 	0.22254	0.35631	0.63193	-0.269
Mof_H 	H 	0.2221	0.3534	0.6147	0.113
Mof_C 	C 	0.23159	0.38436	0.65159	0.301
Mof_C 	C 	0.23187	0.38765	0.67546	-0.268
Mof_H 	H 	0.238	0.4059	0.6897	0.115
Mof_C 	C 	0.20688	0.30611	0.61445	-0.014
Mof_C 	C 	0.19034	0.28181	0.61249	-0.067
Mof_H 	H 	0.1831	0.2827	0.625	0.049
Mof_C 	C 	0.18385	0.25615	0.59296	0.021
Mof_H 	H 	0.1718	0.2395	0.5917	0.038
Mof_C 	C 	0.19496	0.25439	0.57479	-0.113
Mof_C 	C 	0.21142	0.27811	0.57725	0.035
Mof_H 	H 	0.2194	0.2776	0.5654	0.031
Mof_C 	C 	0.21726	0.30325	0.59641	-0.074
Mof_H 	H 	0.2292	0.3198	0.5974	0.049
Mof_C 	C 	0.18888	0.22657	0.55553	0.372
Mof_C 	C 	0.03581	0.35375	0.86704	0.358
Mof_C 	C 	0.05724	0.36036	0.8946	-0.098
Mof_C 	C 	0.06966	0.38641	0.91861	0.019
Mof_H 	H 	0.0643	0.3997	0.917	0.04
Mof_C 	C 	0.08962	0.39328	0.94472	-0.077
Mof_H 	H 	0.0978	0.4111	0.9607	0.055
Mof_C 	C 	0.09757	0.374	0.94741	0.007
Mof_C 	C 	0.08598	0.34844	0.92356	-0.079
Mof_H 	H 	0.0918	0.3353	0.9249	0.052
Mof_C 	C 	0.06571	0.342	0.89743	0.022
Mof_H 	H 	0.0578	0.3244	0.8814	0.037
Mof_C 	C 	0.12015	0.38018	0.97475	0.107
Mof_C 	C 	0.138	0.36887	0.97541	-0.219
Mof_H 	H 	0.1352	0.3561	0.9581	0.098
Mof_H 	H 	0.1871	0.3637	0.0168	0.131
Mof_C 	C 	0.20212	0.38408	0.97516	-0.233
Mof_H 	H 	0.1859	0.369	0.9579	0.105
Mof_C 	C 	0.22293	0.40362	0.97461	0.132
Mof_C 	C 	0.22098	0.40102	0.94892	-0.016
Mof_C 	C 	0.2447	0.41028	0.94698	-0.062
Mof_H 	H 	0.2624	0.4176	0.9628	0.049
Mof_C 	C 	0.24366	0.40929	0.92263	0.008
Mof_H 	H 	0.2607	0.4166	0.9223	0.043
Mof_C 	C 	0.21796	0.39774	0.89842	-0.091
Mof_C 	C 	0.19427	0.38775	0.89962	0.014
Mof_H 	H 	0.1764	0.3795	0.8837	0.04
Mof_C 	C 	0.19666	0.38969	0.92489	-0.062
Mof_H 	H 	0.1797	0.3824	0.9253	0.05
Mof_C 	C 	0.21876	0.39704	0.87264	0.368
Mof_O 	O 	0.59047	0.41457	0.21764	-0.418
Mof_O 	O 	0.59102	0.43769	0.19329	-0.419
Mof_O 	O 	0.64806	0.61895	0.44281	-0.404
Mof_O 	O 	0.68769	0.65869	0.46238	-0.413
Mof_O 	O 	0.50489	0.16174	0.13317	-0.414
Mof_O 	O 	0.48513	0.18241	0.15388	-0.412
Mof_O 	O 	0.53258	0.3442	0.14864	-0.416
Mof_O 	O 	0.5335	0.36799	0.12537	-0.413
Mof_C 	C 	0.59779	0.43636	0.21493	0.355
Mof_C 	C 	0.62035	0.46385	0.24248	-0.086
Mof_C 	C 	0.62444	0.46737	0.26877	0.01
Mof_H 	H 	0.6131	0.4521	0.2698	0.041
Mof_C 	C 	0.64431	0.49229	0.29284	-0.067
Mof_H 	H 	0.6466	0.494	0.3104	0.051
Mof_C 	C 	0.66147	0.51543	0.29226	-0.005
Mof_C 	C 	0.6578	0.51117	0.26675	-0.069
Mof_H 	H 	0.67	0.526	0.2658	0.051
Mof_C 	C 	0.63748	0.48674	0.2422	0.009
Mof_H 	H 	0.6351	0.4855	0.2248	0.039
Mof_C 	C 	0.68411	0.54285	0.3196	0.127
Mof_C 	C 	0.67817	0.55492	0.34015	-0.189
Mof_H 	H 	0.6597	0.5461	0.3372	0.093
Mof_C 	C 	0.69919	0.58001	0.3653	0.148
Mof_C 	C 	0.72438	0.59061	0.36807	-0.269
Mof_H 	H 	0.7387	0.6074	0.3853	0.113
Mof_C 	C 	0.73277	0.58	0.34841	0.301
Mof_C 	C 	0.71219	0.55641	0.32454	-0.268
Mof_H 	H 	0.7162	0.5483	0.3103	0.115
Mof_C 	C 	0.69166	0.59243	0.38555	-0.014
Mof_C 	C 	0.66932	0.57785	0.38751	-0.066
Mof_H 	H 	0.6577	0.5581	0.375	0.049
Mof_C 	C 	0.66319	0.59089	0.40704	0.021
Mof_H 	H 	0.6478	0.5801	0.4083	0.038
Mof_C 	C 	0.6796	0.62017	0.42521	-0.113
Mof_C 	C 	0.70086	0.63417	0.42275	0.035
Mof_H 	H 	0.7122	0.654	0.4346	0.032
Mof_C 	C 	0.70684	0.62085	0.40359	-0.074
Mof_H 	H 	0.7224	0.6318	0.4026	0.049
Mof_C 	C 	0.67104	0.63335	0.44447	0.372
Mof_C 	C 	0.48671	0.16877	0.13296	0.358
Mof_C 	C 	0.46576	0.16264	0.1054	-0.098
Mof_C 	C 	0.4678	0.15105	0.08139	0.019
Mof_H 	H 	0.4827	0.1473	0.083	0.04
Mof_C 	C 	0.44856	0.1449	0.05528	-0.077
Mof_H 	H 	0.4504	0.1371	0.0393	0.055
Mof_C 	C 	0.42659	0.15016	0.05259	0.007
Mof_C 	C 	0.42488	0.16242	0.07644	-0.079
Mof_H 	H 	0.4104	0.1669	0.0751	0.052
Mof_C 	C 	0.44457	0.16828	0.10257	0.022
Mof_H 	H 	0.443	0.1764	0.1186	0.037
Mof_C 	C 	0.40543	0.1454	0.02525	0.106
Mof_C 	C 	0.39346	0.16259	0.02459	-0.219
Mof_H 	H 	0.398	0.1771	0.0419	0.098
Mof_H 	H 	0.3469	0.1703	0.9832	0.132
Mof_C 	C 	0.40892	0.22696	0.02484	-0.234
Mof_H 	H 	0.4111	0.228	0.0421	0.105
Mof_C 	C 	0.42901	0.24832	0.02539	0.131
Mof_C 	C 	0.4521	0.27206	0.05108	-0.016
Mof_C 	C 	0.4633	0.29772	0.05302	-0.062
Mof_H 	H 	0.4548	0.2996	0.0372	0.049
Mof_C 	C 	0.48666	0.32103	0.07737	0.008
Mof_H 	H 	0.4943	0.3384	0.0777	0.043
Mof_C 	C 	0.49932	0.31954	0.10158	-0.091
Mof_C 	C 	0.48813	0.29465	0.10038	0.014
Mof_H 	H 	0.4958	0.2927	0.1163	0.04
Mof_C 	C 	0.4648	0.27177	0.07511	-0.062
Mof_H 	H 	0.4571	0.2544	0.0747	0.05
Mof_C 	C 	0.5244	0.34612	0.12736	0.368
Mof_O 	O 	0.41457	0.21764	0.59047	-0.418
Mof_O 	O 	0.43769	0.19329	0.59102	-0.419
Mof_O 	O 	0.61895	0.44281	0.64806	-0.404
Mof_O 	O 	0.65869	0.46238	0.68769	-0.413
Mof_O 	O 	0.16174	0.13317	0.50489	-0.414
Mof_O 	O 	0.18241	0.15388	0.48513	-0.412
Mof_O 	O 	0.3442	0.14864	0.53258	-0.416
Mof_O 	O 	0.36799	0.12537	0.5335	-0.413
Mof_C 	C 	0.43636	0.21493	0.59779	0.355
Mof_C 	C 	0.46385	0.24248	0.62035	-0.086
Mof_C 	C 	0.46737	0.26877	0.62444	0.01
Mof_H 	H 	0.4521	0.2698	0.6131	0.041
Mof_C 	C 	0.49229	0.29284	0.64431	-0.067
Mof_H 	H 	0.494	0.3104	0.6466	0.051
Mof_C 	C 	0.51543	0.29226	0.66147	-0.005
Mof_C 	C 	0.51117	0.26675	0.6578	-0.069
Mof_H 	H 	0.526	0.2658	0.67	0.051
Mof_C 	C 	0.48674	0.2422	0.63748	0.009
Mof_H 	H 	0.4855	0.2248	0.6351	0.039
Mof_C 	C 	0.54285	0.3196	0.68411	0.127
Mof_C 	C 	0.55492	0.34015	0.67817	-0.189
Mof_H 	H 	0.5461	0.3372	0.6597	0.093
Mof_C 	C 	0.58001	0.3653	0.69919	0.148
Mof_C 	C 	0.59061	0.36807	0.72438	-0.269
Mof_H 	H 	0.6074	0.3853	0.7387	0.113
Mof_C 	C 	0.58	0.34841	0.73277	0.301
Mof_C 	C 	0.55641	0.32454	0.71219	-0.268
Mof_H 	H 	0.5483	0.3103	0.7162	0.115
Mof_C 	C 	0.59243	0.38555	0.69166	-0.014
Mof_C 	C 	0.57785	0.38751	0.66932	-0.066
Mof_H 	H 	0.5581	0.375	0.6577	0.049
Mof_C 	C 	0.59089	0.40704	0.66319	0.021
Mof_H 	H 	0.5801	0.4083	0.6478	0.038
Mof_C 	C 	0.62017	0.42521	0.6796	-0.113
Mof_C 	C 	0.63417	0.42275	0.70086	0.035
Mof_H 	H 	0.654	0.4346	0.7122	0.032
Mof_C 	C 	0.62085	0.40359	0.70684	-0.074
Mof_H 	H 	0.6318	0.4026	0.7224	0.049
Mof_C 	C 	0.63335	0.44447	0.67104	0.372
Mof_C 	C 	0.16877	0.13296	0.48671	0.358
Mof_C 	C 	0.16264	0.1054	0.46576	-0.098
Mof_C 	C 	0.15105	0.08139	0.4678	0.019
Mof_H 	H 	0.1473	0.083	0.4827	0.04
Mof_C 	C 	0.1449	0.05528	0.44856	-0.077
Mof_H 	H 	0.1371	0.0393	0.4504	0.055
Mof_C 	C 	0.15016	0.05259	0.42659	0.007
Mof_C 	C 	0.16242	0.07644	0.42488	-0.079
Mof_H 	H 	0.1669	0.0751	0.4104	0.052
Mof_C 	C 	0.16828	0.10257	0.44457	0.022
Mof_H 	H 	0.1764	0.1186	0.443	0.037
Mof_C 	C 	0.1454	0.02525	0.40543	0.106
Mof_C 	C 	0.16259	0.02459	0.39346	-0.219
Mof_H 	H 	0.1771	0.0419	0.398	0.098
Mof_H 	H 	0.1703	0.9832	0.3469	0.132
Mof_C 	C 	0.22696	0.02484	0.40892	-0.234
Mof_H 	H 	0.228	0.0421	0.4111	0.105
Mof_C 	C 	0.24832	0.02539	0.42901	0.131
Mof_C 	C 	0.27206	0.05108	0.4521	-0.016
Mof_C 	C 	0.29772	0.05302	0.4633	-0.062
Mof_H 	H 	0.2996	0.0372	0.4548	0.049
Mof_C 	C 	0.32103	0.07737	0.48666	0.008
Mof_H 	H 	0.3384	0.0777	0.4943	0.043
Mof_C 	C 	0.31954	0.10158	0.49932	-0.091
Mof_C 	C 	0.29465	0.10038	0.48813	0.014
Mof_H 	H 	0.2927	0.1163	0.4958	0.04
Mof_C 	C 	0.27177	0.07511	0.4648	-0.062
Mof_H 	H 	0.2544	0.0747	0.4571	0.05
Mof_C 	C 	0.34612	0.12736	0.5244	0.368
Mof_O 	O 	0.37283	0.78236	0.19693	-0.418
Mof_O 	O 	0.39773	0.80671	0.2444	-0.419
Mof_O 	O 	0.20525	0.55719	0.17614	-0.404
Mof_O 	O 	0.22531	0.53762	0.19631	-0.413
Mof_O 	O 	0.37172	0.86683	0.02857	-0.414
Mof_O 	O 	0.33125	0.84612	0.02853	-0.412
Mof_O 	O 	0.38394	0.85136	0.19556	-0.416
Mof_O 	O 	0.40813	0.87463	0.24262	-0.413
Mof_C 	C 	0.38286	0.78507	0.22143	0.355
Mof_C 	C 	0.37787	0.75752	0.22137	-0.086
Mof_C 	C 	0.35567	0.73123	0.1986	0.01
Mof_H 	H 	0.3433	0.7302	0.1823	0.041
Mof_C 	C 	0.35147	0.70716	0.19945	-0.067
Mof_H 	H 	0.3362	0.6896	0.1836	0.051
Mof_C 	C 	0.36921	0.70774	0.22317	-0.005
Mof_C 	C 	0.39105	0.73325	0.24442	-0.069
Mof_H 	H 	0.4042	0.7342	0.2602	0.051
Mof_C 	C 	0.39528	0.7578	0.24454	0.009
Mof_H 	H 	0.4103	0.7752	0.2607	0.039
Mof_C 	C 	0.36451	0.6804	0.22325	0.127
Mof_C 	C 	0.33802	0.65985	0.21477	-0.189
Mof_H 	H 	0.3225	0.6628	0.2089	0.093
Mof_C 	C 	0.33389	0.6347	0.21471	0.148
Mof_C 	C 	0.35631	0.63193	0.22254	-0.269
Mof_H 	H 	0.3534	0.6147	0.2221	0.113
Mof_C 	C 	0.38436	0.65159	0.23159	0.301
Mof_C 	C 	0.38765	0.67546	0.23187	-0.268
Mof_H 	H 	0.4059	0.6897	0.238	0.115
Mof_C 	C 	0.30611	0.61445	0.20688	-0.014
Mof_C 	C 	0.28181	0.61249	0.19034	-0.067
Mof_H 	H 	0.2827	0.625	0.1831	0.049
Mof_C 	C 	0.25615	0.59296	0.18385	0.021
Mof_H 	H 	0.2395	0.5917	0.1718	0.038
Mof_C 	C 	0.25439	0.57479	0.19496	-0.113
Mof_C 	C 	0.27811	0.57725	0.21142	0.035
Mof_H 	H 	0.2776	0.5654	0.2194	0.031
Mof_C 	C 	0.30325	0.59641	0.21726	-0.074
Mof_H 	H 	0.3198	0.5974	0.2292	0.049
Mof_C 	C 	0.22657	0.55553	0.18888	0.372
Mof_C 	C 	0.35375	0.86704	0.03581	0.358
Mof_C 	C 	0.36036	0.8946	0.05724	-0.098
Mof_C 	C 	0.38641	0.91861	0.06966	0.019
Mof_H 	H 	0.3997	0.917	0.0643	0.04
Mof_C 	C 	0.39328	0.94472	0.08962	-0.077
Mof_H 	H 	0.4111	0.9607	0.0978	0.055
Mof_C 	C 	0.374	0.94741	0.09757	0.007
Mof_C 	C 	0.34844	0.92356	0.08598	-0.079
Mof_H 	H 	0.3353	0.9249	0.0918	0.052
Mof_C 	C 	0.342	0.89743	0.06571	0.022
Mof_H 	H 	0.3244	0.8814	0.0578	0.037
Mof_C 	C 	0.38018	0.97475	0.12015	0.107
Mof_C 	C 	0.36887	0.97541	0.138	-0.219
Mof_H 	H 	0.3561	0.9581	0.1352	0.098
Mof_H 	H 	0.3637	0.0168	0.1871	0.131
Mof_C 	C 	0.38408	0.97516	0.20212	-0.233
Mof_H 	H 	0.369	0.9579	0.1859	0.105
Mof_C 	C 	0.40362	0.97461	0.22293	0.132
Mof_C 	C 	0.40102	0.94892	0.22098	-0.016
Mof_C 	C 	0.41028	0.94698	0.2447	-0.062
Mof_H 	H 	0.4176	0.9628	0.2624	0.049
Mof_C 	C 	0.40929	0.92263	0.24366	0.008
Mof_H 	H 	0.4166	0.9223	0.2607	0.043
Mof_C 	C 	0.39774	0.89842	0.21796	-0.091
Mof_C 	C 	0.38775	0.89962	0.19427	0.014
Mof_H 	H 	0.3795	0.8837	0.1764	0.04
Mof_C 	C 	0.38969	0.92489	0.19666	-0.062
Mof_H 	H 	0.3824	0.9253	0.1797	0.05
Mof_C 	C 	0.39704	0.87264	0.21876	0.368
Mof_O 	O 	0.62717	0.8241	0.40953	-0.418
Mof_O 	O 	0.60227	0.84667	0.40898	-0.419
Mof_O 	O 	0.79475	0.97089	0.35194	-0.404
Mof_O 	O 	0.77469	0.971	0.31231	-0.412
Mof_O 	O 	0.62828	0.65685	0.49511	-0.414
Mof_O 	O 	0.66875	0.69728	0.51487	-0.412
Mof_O 	O 	0.61606	0.81162	0.46742	-0.416
Mof_O 	O 	0.59187	0.83449	0.4665	-0.413
Mof_C 	C 	0.61714	0.83857	0.40221	0.355
Mof_C 	C 	0.62213	0.8435	0.37965	-0.086
Mof_C 	C 	0.64433	0.84293	0.37556	0.01
Mof_H 	H 	0.6567	0.839	0.3869	0.041
Mof_C 	C 	0.64853	0.84798	0.35569	-0.067
Mof_H 	H 	0.6638	0.8474	0.3534	0.051
Mof_C 	C 	0.63079	0.85396	0.33853	-0.005
Mof_C 	C 	0.60895	0.85337	0.3422	-0.069
Mof_H 	H 	0.5958	0.856	0.33	0.052
Mof_C 	C 	0.60472	0.84926	0.36252	0.009
Mof_H 	H 	0.5897	0.8504	0.3649	0.039
Mof_C 	C 	0.63549	0.85874	0.31589	0.127
Mof_C 	C 	0.66198	0.87675	0.32183	-0.189
Mof_H 	H 	0.6775	0.8864	0.3403	0.093
Mof_C 	C 	0.66611	0.88082	0.30081	0.148
Mof_C 	C 	0.64369	0.86623	0.27562	-0.269
Mof_H 	H 	0.6466	0.8687	0.2613	0.113
Mof_C 	C 	0.61564	0.84723	0.26723	0.302
Mof_C 	C 	0.61235	0.84422	0.28781	-0.268
Mof_H 	H 	0.5941	0.8321	0.2838	0.115
Mof_C 	C 	0.69389	0.90077	0.30834	-0.014
Mof_C 	C 	0.71819	0.90853	0.33068	-0.066
Mof_H 	H 	0.7173	0.9004	0.3423	0.049
Mof_C 	C 	0.74385	0.9277	0.33681	0.021
Mof_H 	H 	0.7605	0.9323	0.3522	0.038
Mof_C 	C 	0.74561	0.94057	0.3204	-0.113
Mof_C 	C 	0.72189	0.93331	0.29914	0.035
Mof_H 	H 	0.7224	0.9418	0.2878	0.032
Mof_C 	C 	0.69675	0.91401	0.29316	-0.074
Mof_H 	H 	0.6802	0.9094	0.2776	0.049
Mof_C 	C 	0.77343	0.96231	0.32896	0.372
Mof_C 	C 	0.64625	0.68206	0.51329	0.358
Mof_C 	C 	0.63964	0.69688	0.53424	-0.098
Mof_C 	C 	0.61359	0.68325	0.5322	0.019
Mof_H 	H 	0.6003	0.6646	0.5173	0.04
Mof_C 	C 	0.60672	0.69634	0.55144	-0.077
Mof_H 	H 	0.5889	0.6867	0.5496	0.055
Mof_C 	C 	0.626	0.72357	0.57341	0.007
Mof_C 	C 	0.65156	0.73754	0.57512	-0.079
Mof_H 	H 	0.6647	0.7565	0.5896	0.053
Mof_C 	C 	0.658	0.72371	0.55543	0.022
Mof_H 	H 	0.6756	0.7334	0.557	0.037
Mof_C 	C 	0.61982	0.73997	0.59457	0.106
Mof_C 	C 	0.63113	0.76913	0.60654	-0.219
Mof_H 	H 	0.6439	0.7791	0.602	0.098
Mof_H 	H 	0.6363	0.8234	0.6531	0.131
Mof_C 	C 	0.61592	0.81804	0.59108	-0.233
Mof_H 	H 	0.631	0.8169	0.5889	0.105
Mof_C 	C 	0.59638	0.81931	0.57099	0.131
Mof_C 	C 	0.59898	0.81996	0.5479	-0.015
Mof_C 	C 	0.58972	0.83442	0.5367	-0.062
Mof_H 	H 	0.5824	0.8448	0.5452	0.049
Mof_C 	C 	0.59071	0.83437	0.51334	0.008
Mof_H 	H 	0.5834	0.8441	0.5057	0.043
Mof_C 	C 	0.60226	0.82022	0.50068	-0.091
Mof_C 	C 	0.61225	0.80652	0.51187	0.015
Mof_H 	H 	0.6205	0.7969	0.5042	0.04
Mof_C 	C 	0.61031	0.80697	0.5352	-0.062
Mof_H 	H 	0.6176	0.7973	0.5429	0.05
Mof_C 	C 	0.60296	0.82172	0.4756	0.368
Mof_O 	O 	0.58543	0.1759	0.80307	-0.418
Mof_O 	O 	0.56231	0.15333	0.7556	-0.42
Mof_O 	O 	0.38105	0.02911	0.82386	-0.404
Mof_O 	O 	0.34131	0.029	0.80369	-0.413
Mof_O 	O 	0.83826	0.34315	0.97143	-0.413
Mof_O 	O 	0.81759	0.30272	0.97147	-0.411
Mof_O 	O 	0.6558	0.18838	0.80444	-0.416
Mof_O 	O 	0.63201	0.16551	0.75738	-0.413
Mof_C 	C 	0.56364	0.16143	0.77857	0.355
Mof_C 	C 	0.53615	0.1565	0.77863	-0.086
Mof_C 	C 	0.53263	0.15707	0.8014	0.01
Mof_H 	H 	0.5479	0.161	0.8177	0.041
Mof_C 	C 	0.50771	0.15202	0.80055	-0.067
Mof_H 	H 	0.506	0.1526	0.8164	0.051
Mof_C 	C 	0.48457	0.14604	0.77683	-0.005
Mof_C 	C 	0.48883	0.14663	0.75558	-0.069
Mof_H 	H 	0.474	0.144	0.7398	0.051
Mof_C 	C 	0.51326	0.15074	0.75546	0.009
Mof_H 	H 	0.5145	0.1496	0.7393	0.039
Mof_C 	C 	0.45715	0.14126	0.77675	0.127
Mof_C 	C 	0.44508	0.12325	0.78523	-0.189
Mof_H 	H 	0.4539	0.1136	0.7911	0.093
Mof_C 	C 	0.41999	0.11918	0.78529	0.148
Mof_C 	C 	0.40939	0.13377	0.77746	-0.269
Mof_H 	H 	0.3926	0.1313	0.7779	0.113
Mof_C 	C 	0.42	0.15277	0.76841	0.301
Mof_C 	C 	0.44359	0.15578	0.76813	-0.268
Mof_H 	H 	0.4517	0.1679	0.762	0.115
Mof_C 	C 	0.40757	0.09923	0.79312	-0.014
Mof_C 	C 	0.42215	0.09147	0.80966	-0.067
Mof_H 	H 	0.4419	0.0996	0.8169	0.049
Mof_C 	C 	0.40911	0.0723	0.81615	0.021
Mof_H 	H 	0.4199	0.0677	0.8282	0.038
Mof_C 	C 	0.37983	0.05943	0.80504	-0.114
Mof_C 	C 	0.36583	0.06669	0.78858	0.035
Mof_H 	H 	0.346	0.0582	0.7806	0.031
Mof_C 	C 	0.37915	0.08599	0.78274	-0.074
Mof_H 	H 	0.3682	0.0906	0.7708	0.049
Mof_C 	C 	0.36665	0.03769	0.81112	0.372
Mof_C 	C 	0.83123	0.31794	0.96419	0.358
Mof_C 	C 	0.83736	0.30312	0.94276	-0.098
Mof_C 	C 	0.84895	0.31675	0.93034	0.019
Mof_H 	H 	0.8527	0.3354	0.9357	0.04
Mof_C 	C 	0.8551	0.30366	0.91038	-0.077
Mof_H 	H 	0.8629	0.3133	0.9022	0.055
Mof_C 	C 	0.84984	0.27643	0.90243	0.007
Mof_C 	C 	0.83758	0.26246	0.91402	-0.079
Mof_H 	H 	0.8331	0.2435	0.9082	0.053
Mof_C 	C 	0.83172	0.27629	0.93429	0.022
Mof_H 	H 	0.8236	0.2666	0.9422	0.037
Mof_C 	C 	0.8546	0.26003	0.87985	0.106
Mof_C 	C 	0.83741	0.23087	0.862	-0.219
Mof_H 	H 	0.8229	0.2209	0.8648	0.098
Mof_H 	H 	0.8297	0.1766	0.8129	0.131
Mof_C 	C 	0.77304	0.18196	0.79788	-0.233
Mof_H 	H 	0.772	0.1831	0.8141	0.105
Mof_C 	C 	0.75168	0.18069	0.77707	0.131
Mof_C 	C 	0.72794	0.18004	0.77902	-0.015
Mof_C 	C 	0.70228	0.16558	0.7553	-0.062
Mof_H 	H 	0.7004	0.1552	0.7376	0.049
Mof_C 	C 	0.67897	0.16563	0.75634	0.008
Mof_H 	H 	0.6616	0.1559	0.7393	0.043
Mof_C 	C 	0.68046	0.17978	0.78204	-0.091
Mof_C 	C 	0.70535	0.19348	0.80573	0.015
Mof_H 	H 	0.7073	0.2031	0.8236	0.04
Mof_C 	C 	0.72823	0.19303	0.80334	-0.062
Mof_H 	H 	0.7456	0.2027	0.8203	0.05
Mof_C 	C 	0.65388	0.17828	0.78124	0.368
Mof_O 	O 	0.78236	0.19693	0.37283	-0.418
Mof_O 	O 	0.80671	0.2444	0.39773	-0.419
Mof_O 	O 	0.55719	0.17614	0.20525	-0.404
Mof_O 	O 	0.53762	0.19631	0.22531	-0.413
Mof_O 	O 	0.86683	0.02857	0.37172	-0.414
Mof_O 	O 	0.84612	0.02853	0.33125	-0.412
Mof_O 	O 	0.85136	0.19556	0.38394	-0.416
Mof_O 	O 	0.87463	0.24262	0.40813	-0.413
Mof_C 	C 	0.78507	0.22143	0.38286	0.355
Mof_C 	C 	0.75752	0.22137	0.37787	-0.086
Mof_C 	C 	0.73123	0.1986	0.35567	0.01
Mof_H 	H 	0.7302	0.1823	0.3433	0.041
Mof_C 	C 	0.70716	0.19945	0.35147	-0.067
Mof_H 	H 	0.6896	0.1836	0.3362	0.051
Mof_C 	C 	0.70774	0.22317	0.36921	-0.005
Mof_C 	C 	0.73325	0.24442	0.39105	-0.069
Mof_H 	H 	0.7342	0.2602	0.4042	0.051
Mof_C 	C 	0.7578	0.24454	0.39528	0.009
Mof_H 	H 	0.7752	0.2607	0.4103	0.039
Mof_C 	C 	0.6804	0.22325	0.36451	0.127
Mof_C 	C 	0.65985	0.21477	0.33802	-0.189
Mof_H 	H 	0.6628	0.2089	0.3225	0.093
Mof_C 	C 	0.6347	0.21471	0.33389	0.148
Mof_C 	C 	0.63193	0.22254	0.35631	-0.269
Mof_H 	H 	0.6147	0.2221	0.3534	0.113
Mof_C 	C 	0.65159	0.23159	0.38436	0.301
Mof_C 	C 	0.67546	0.23187	0.38765	-0.268
Mof_H 	H 	0.6897	0.238	0.4059	0.115
Mof_C 	C 	0.61445	0.20688	0.30611	-0.014
Mof_C 	C 	0.61249	0.19034	0.28181	-0.067
Mof_H 	H 	0.625	0.1831	0.2827	0.049
Mof_C 	C 	0.59296	0.18385	0.25615	0.021
Mof_H 	H 	0.5917	0.1718	0.2395	0.038
Mof_C 	C 	0.57479	0.19496	0.25439	-0.113
Mof_C 	C 	0.57725	0.21142	0.27811	0.035
Mof_H 	H 	0.5654	0.2194	0.2776	0.031
Mof_C 	C 	0.59641	0.21726	0.30325	-0.074
Mof_H 	H 	0.5974	0.2292	0.3198	0.049
Mof_C 	C 	0.55553	0.18888	0.22657	0.372
Mof_C 	C 	0.86704	0.03581	0.35375	0.358
Mof_C 	C 	0.8946	0.05724	0.36036	-0.098
Mof_C 	C 	0.91861	0.06966	0.38641	0.019
Mof_H 	H 	0.917	0.0643	0.3997	0.04
Mof_C 	C 	0.94472	0.08962	0.39328	-0.077
Mof_H 	H 	0.9607	0.0978	0.4111	0.055
Mof_C 	C 	0.94741	0.09757	0.374	0.007
Mof_C 	C 	0.92356	0.08598	0.34844	-0.079
Mof_H 	H 	0.9249	0.0918	0.3353	0.052
Mof_C 	C 	0.89743	0.06571	0.342	0.022
Mof_H 	H 	0.8814	0.0578	0.3244	0.037
Mof_C 	C 	0.97475	0.12015	0.38018	0.107
Mof_C 	C 	0.97541	0.138	0.36887	-0.219
Mof_H 	H 	0.9581	0.1352	0.3561	0.098
Mof_H 	H 	0.0168	0.1871	0.3637	0.131
Mof_C 	C 	0.97516	0.20212	0.38408	-0.233
Mof_H 	H 	0.9579	0.1859	0.369	0.105
Mof_C 	C 	0.97461	0.22293	0.40362	0.132
Mof_C 	C 	0.94892	0.22098	0.40102	-0.016
Mof_C 	C 	0.94698	0.2447	0.41028	-0.062
Mof_H 	H 	0.9628	0.2624	0.4176	0.049
Mof_C 	C 	0.92263	0.24366	0.40929	0.008
Mof_H 	H 	0.9223	0.2607	0.4166	0.043
Mof_C 	C 	0.89842	0.21796	0.39774	-0.091
Mof_C 	C 	0.89962	0.19427	0.38775	0.014
Mof_H 	H 	0.8837	0.1764	0.3795	0.04
Mof_C 	C 	0.92489	0.19666	0.38969	-0.062
Mof_H 	H 	0.9253	0.1797	0.3824	0.05
Mof_C 	C 	0.87264	0.21876	0.39704	0.368
Mof_O 	O 	0.21764	0.59047	0.41457	-0.418
Mof_O 	O 	0.19329	0.59102	0.43769	-0.419
Mof_O 	O 	0.44281	0.64806	0.61895	-0.404
Mof_O 	O 	0.46238	0.68769	0.65869	-0.413
Mof_O 	O 	0.13317	0.50489	0.16174	-0.414
Mof_O 	O 	0.15388	0.48513	0.18241	-0.412
Mof_O 	O 	0.14864	0.53258	0.3442	-0.416
Mof_O 	O 	0.12537	0.5335	0.36799	-0.413
Mof_C 	C 	0.21493	0.59779	0.43636	0.355
Mof_C 	C 	0.24248	0.62035	0.46385	-0.086
Mof_C 	C 	0.26877	0.62444	0.46737	0.01
Mof_H 	H 	0.2698	0.6131	0.4521	0.041
Mof_C 	C 	0.29284	0.64431	0.49229	-0.067
Mof_H 	H 	0.3104	0.6466	0.494	0.051
Mof_C 	C 	0.29226	0.66147	0.51543	-0.005
Mof_C 	C 	0.26675	0.6578	0.51117	-0.069
Mof_H 	H 	0.2658	0.67	0.526	0.051
Mof_C 	C 	0.2422	0.63748	0.48674	0.009
Mof_H 	H 	0.2248	0.6351	0.4855	0.039
Mof_C 	C 	0.3196	0.68411	0.54285	0.127
Mof_C 	C 	0.34015	0.67817	0.55492	-0.189
Mof_H 	H 	0.3372	0.6597	0.5461	0.093
Mof_C 	C 	0.3653	0.69919	0.58001	0.148
Mof_C 	C 	0.36807	0.72438	0.59061	-0.269
Mof_H 	H 	0.3853	0.7387	0.6074	0.113
Mof_C 	C 	0.34841	0.73277	0.58	0.301
Mof_C 	C 	0.32454	0.71219	0.55641	-0.268
Mof_H 	H 	0.3103	0.7162	0.5483	0.115
Mof_C 	C 	0.38555	0.69166	0.59243	-0.014
Mof_C 	C 	0.38751	0.66932	0.57785	-0.066
Mof_H 	H 	0.375	0.6577	0.5581	0.049
Mof_C 	C 	0.40704	0.66319	0.59089	0.021
Mof_H 	H 	0.4083	0.6478	0.5801	0.038
Mof_C 	C 	0.42521	0.6796	0.62017	-0.113
Mof_C 	C 	0.42275	0.70086	0.63417	0.035
Mof_H 	H 	0.4346	0.7122	0.654	0.032
Mof_C 	C 	0.40359	0.70684	0.62085	-0.074
Mof_H 	H 	0.4026	0.7224	0.6318	0.049
Mof_C 	C 	0.44447	0.67104	0.63335	0.372
Mof_C 	C 	0.13296	0.48671	0.16877	0.358
Mof_C 	C 	0.1054	0.46576	0.16264	-0.098
Mof_C 	C 	0.08139	0.4678	0.15105	0.019
Mof_H 	H 	0.083	0.4827	0.1473	0.04
Mof_C 	C 	0.05528	0.44856	0.1449	-0.077
Mof_H 	H 	0.0393	0.4504	0.1371	0.055
Mof_C 	C 	0.05259	0.42659	0.15016	0.007
Mof_C 	C 	0.07644	0.42488	0.16242	-0.079
Mof_H 	H 	0.0751	0.4104	0.1669	0.052
Mof_C 	C 	0.10257	0.44457	0.16828	0.022
Mof_H 	H 	0.1186	0.443	0.1764	0.037
Mof_C 	C 	0.02525	0.40543	0.1454	0.106
Mof_C 	C 	0.02459	0.39346	0.16259	-0.219
Mof_H 	H 	0.0419	0.398	0.1771	0.098
Mof_H 	H 	0.9832	0.3469	0.1703	0.132
Mof_C 	C 	0.02484	0.40892	0.22696	-0.234
Mof_H 	H 	0.0421	0.4111	0.228	0.105
Mof_C 	C 	0.02539	0.42901	0.24832	0.131
Mof_C 	C 	0.05108	0.4521	0.27206	-0.016
Mof_C 	C 	0.05302	0.4633	0.29772	-0.062
Mof_H 	H 	0.0372	0.4548	0.2996	0.049
Mof_C 	C 	0.07737	0.48666	0.32103	0.008
Mof_H 	H 	0.0777	0.4943	0.3384	0.043
Mof_C 	C 	0.10158	0.49932	0.31954	-0.091
Mof_C 	C 	0.10038	0.48813	0.29465	0.014
Mof_H 	H 	0.1163	0.4958	0.2927	0.04
Mof_C 	C 	0.07511	0.4648	0.27177	-0.062
Mof_H 	H 	0.0747	0.4571	0.2544	0.05
Mof_C 	C 	0.12736	0.5244	0.34612	0.368
Mof_O 	O 	0.1759	0.80307	0.58543	-0.418
Mof_O 	O 	0.15333	0.7556	0.56231	-0.42
Mof_O 	O 	0.02911	0.82386	0.38105	-0.404
Mof_O 	O 	0.029	0.80369	0.34131	-0.413
Mof_O 	O 	0.34315	0.97143	0.83826	-0.413
Mof_O 	O 	0.30272	0.97147	0.81759	-0.411
Mof_O 	O 	0.18838	0.80444	0.6558	-0.416
Mof_O 	O 	0.16551	0.75738	0.63201	-0.413
Mof_C 	C 	0.16143	0.77857	0.56364	0.355
Mof_C 	C 	0.1565	0.77863	0.53615	-0.086
Mof_C 	C 	0.15707	0.8014	0.53263	0.01
Mof_H 	H 	0.161	0.8177	0.5479	0.041
Mof_C 	C 	0.15202	0.80055	0.50771	-0.067
Mof_H 	H 	0.1526	0.8164	0.506	0.051
Mof_C 	C 	0.14604	0.77683	0.48457	-0.005
Mof_C 	C 	0.14663	0.75558	0.48883	-0.069
Mof_H 	H 	0.144	0.7398	0.474	0.051
Mof_C 	C 	0.15074	0.75546	0.51326	0.009
Mof_H 	H 	0.1496	0.7393	0.5145	0.039
Mof_C 	C 	0.14126	0.77675	0.45715	0.127
Mof_C 	C 	0.12325	0.78523	0.44508	-0.189
Mof_H 	H 	0.1136	0.7911	0.4539	0.093
Mof_C 	C 	0.11918	0.78529	0.41999	0.148
Mof_C 	C 	0.13377	0.77746	0.40939	-0.269
Mof_H 	H 	0.1313	0.7779	0.3926	0.113
Mof_C 	C 	0.15277	0.76841	0.42	0.301
Mof_C 	C 	0.15578	0.76813	0.44359	-0.268
Mof_H 	H 	0.1679	0.762	0.4517	0.115
Mof_C 	C 	0.09923	0.79312	0.40757	-0.014
Mof_C 	C 	0.09147	0.80966	0.42215	-0.067
Mof_H 	H 	0.0996	0.8169	0.4419	0.049
Mof_C 	C 	0.0723	0.81615	0.40911	0.021
Mof_H 	H 	0.0677	0.8282	0.4199	0.038
Mof_C 	C 	0.05943	0.80504	0.37983	-0.114
Mof_C 	C 	0.06669	0.78858	0.36583	0.035
Mof_H 	H 	0.0582	0.7806	0.346	0.031
Mof_C 	C 	0.08599	0.78274	0.37915	-0.074
Mof_H 	H 	0.0906	0.7708	0.3682	0.049
Mof_C 	C 	0.03769	0.81112	0.36665	0.372
Mof_C 	C 	0.31794	0.96419	0.83123	0.358
Mof_C 	C 	0.30312	0.94276	0.83736	-0.098
Mof_C 	C 	0.31675	0.93034	0.84895	0.019
Mof_H 	H 	0.3354	0.9357	0.8527	0.04
Mof_C 	C 	0.30366	0.91038	0.8551	-0.077
Mof_H 	H 	0.3133	0.9022	0.8629	0.055
Mof_C 	C 	0.27643	0.90243	0.84984	0.007
Mof_C 	C 	0.26246	0.91402	0.83758	-0.079
Mof_H 	H 	0.2435	0.9082	0.8331	0.053
Mof_C 	C 	0.27629	0.93429	0.83172	0.022
Mof_H 	H 	0.2666	0.9422	0.8236	0.037
Mof_C 	C 	0.26003	0.87985	0.8546	0.106
Mof_C 	C 	0.23087	0.862	0.83741	-0.219
Mof_H 	H 	0.2209	0.8648	0.8229	0.098
Mof_H 	H 	0.1766	0.8129	0.8297	0.131
Mof_C 	C 	0.18196	0.79788	0.77304	-0.233
Mof_H 	H 	0.1831	0.8141	0.772	0.105
Mof_C 	C 	0.18069	0.77707	0.75168	0.131
Mof_C 	C 	0.18004	0.77902	0.72794	-0.015
Mof_C 	C 	0.16558	0.7553	0.70228	-0.062
Mof_H 	H 	0.1552	0.7376	0.7004	0.049
Mof_C 	C 	0.16563	0.75634	0.67897	0.008
Mof_H 	H 	0.1559	0.7393	0.6616	0.043
Mof_C 	C 	0.17978	0.78204	0.68046	-0.091
Mof_C 	C 	0.19348	0.80573	0.70535	0.015
Mof_H 	H 	0.2031	0.8236	0.7073	0.04
Mof_C 	C 	0.19303	0.80334	0.72823	-0.062
Mof_H 	H 	0.2027	0.8203	0.7456	0.05
Mof_C 	C 	0.17828	0.78124	0.65388	0.368
Mof_O 	O 	0.8241	0.40953	0.62717	-0.418
Mof_O 	O 	0.84667	0.40898	0.60227	-0.419
Mof_O 	O 	0.97089	0.35194	0.79475	-0.404
Mof_O 	O 	0.971	0.31231	0.77469	-0.412
Mof_O 	O 	0.65685	0.49511	0.62828	-0.414
Mof_O 	O 	0.69728	0.51487	0.66875	-0.412
Mof_O 	O 	0.81162	0.46742	0.61606	-0.416
Mof_O 	O 	0.83449	0.4665	0.59187	-0.413
Mof_C 	C 	0.83857	0.40221	0.61714	0.355
Mof_C 	C 	0.8435	0.37965	0.62213	-0.086
Mof_C 	C 	0.84293	0.37556	0.64433	0.01
Mof_H 	H 	0.839	0.3869	0.6567	0.041
Mof_C 	C 	0.84798	0.35569	0.64853	-0.067
Mof_H 	H 	0.8474	0.3534	0.6638	0.051
Mof_C 	C 	0.85396	0.33853	0.63079	-0.005
Mof_C 	C 	0.85337	0.3422	0.60895	-0.069
Mof_H 	H 	0.856	0.33	0.5958	0.052
Mof_C 	C 	0.84926	0.36252	0.60472	0.009
Mof_H 	H 	0.8504	0.3649	0.5897	0.039
Mof_C 	C 	0.85874	0.31589	0.63549	0.127
Mof_C 	C 	0.87675	0.32183	0.66198	-0.189
Mof_H 	H 	0.8864	0.3403	0.6775	0.093
Mof_C 	C 	0.88082	0.30081	0.66611	0.148
Mof_C 	C 	0.86623	0.27562	0.64369	-0.269
Mof_H 	H 	0.8687	0.2613	0.6466	0.113
Mof_C 	C 	0.84723	0.26723	0.61564	0.302
Mof_C 	C 	0.84422	0.28781	0.61235	-0.268
Mof_H 	H 	0.8321	0.2838	0.5941	0.115
Mof_C 	C 	0.90077	0.30834	0.69389	-0.014
Mof_C 	C 	0.90853	0.33068	0.71819	-0.066
Mof_H 	H 	0.9004	0.3423	0.7173	0.049
Mof_C 	C 	0.9277	0.33681	0.74385	0.021
Mof_H 	H 	0.9323	0.3522	0.7605	0.038
Mof_C 	C 	0.94057	0.3204	0.74561	-0.113
Mof_C 	C 	0.93331	0.29914	0.72189	0.035
Mof_H 	H 	0.9418	0.2878	0.7224	0.032
Mof_C 	C 	0.91401	0.29316	0.69675	-0.074
Mof_H 	H 	0.9094	0.2776	0.6802	0.049
Mof_C 	C 	0.96231	0.32896	0.77343	0.372
Mof_C 	C 	0.68206	0.51329	0.64625	0.358
Mof_C 	C 	0.69688	0.53424	0.63964	-0.098
Mof_C 	C 	0.68325	0.5322	0.61359	0.019
Mof_H 	H 	0.6646	0.5173	0.6003	0.04
Mof_C 	C 	0.69634	0.55144	0.60672	-0.077
Mof_H 	H 	0.6867	0.5496	0.5889	0.055
Mof_C 	C 	0.72357	0.57341	0.626	0.007
Mof_C 	C 	0.73754	0.57512	0.65156	-0.079
Mof_H 	H 	0.7565	0.5896	0.6647	0.053
Mof_C 	C 	0.72371	0.55543	0.658	0.022
Mof_H 	H 	0.7334	0.557	0.6756	0.037
Mof_C 	C 	0.73997	0.59457	0.61982	0.106
Mof_C 	C 	0.76913	0.60654	0.63113	-0.219
Mof_H 	H 	0.7791	0.602	0.6439	0.098
Mof_H 	H 	0.8234	0.6531	0.6363	0.131
Mof_C 	C 	0.81804	0.59108	0.61592	-0.233
Mof_H 	H 	0.8169	0.5889	0.631	0.105
Mof_C 	C 	0.81931	0.57099	0.59638	0.131
Mof_C 	C 	0.81996	0.5479	0.59898	-0.015
Mof_C 	C 	0.83442	0.5367	0.58972	-0.062
Mof_H 	H 	0.8448	0.5452	0.5824	0.049
Mof_C 	C 	0.83437	0.51334	0.59071	0.008
Mof_H 	H 	0.8441	0.5057	0.5834	0.043
Mof_C 	C 	0.82022	0.50068	0.60226	-0.091
Mof_C 	C 	0.80652	0.51187	0.61225	0.015
Mof_H 	H 	0.7969	0.5042	0.6205	0.04
Mof_C 	C 	0.80697	0.5352	0.61031	-0.062
Mof_H 	H 	0.7973	0.5429	0.6176	0.05
Mof_C 	C 	0.82172	0.4756	0.60296	0.368
Mof_Cu	Cu	0.62288	0.43772	0.81484	0.901
Mof_Cu	Cu	0.59525	0.43768	0.84243	0.911
Mof_Cu	Cu	0.62288	0.80804	0.18516	0.901
Mof_Cu	Cu	0.59525	0.75282	0.15757	0.911
Mof_Cu	Cu	0.37712	0.56228	0.18516	0.901
Mof_Cu	Cu	0.40475	0.56232	0.15757	0.911
Mof_Cu	Cu	0.37712	0.19196	0.81484	0.901
Mof_Cu	Cu	0.40475	0.24718	0.84243	0.911
Mof_Cu	Cu	0.81484	0.62288	0.43772	0.901
Mof_Cu	Cu	0.84243	0.59525	0.43768	0.911
Mof_Cu	Cu	0.18516	0.62288	0.80804	0.901
Mof_Cu	Cu	0.15757	0.59525	0.75282	0.911
Mof_Cu	Cu	0.18516	0.37712	0.56228	0.901
Mof_Cu	Cu	0.15757	0.40475	0.56232	0.911
Mof_Cu	Cu	0.81484	0.37712	0.19196	0.901
Mof_Cu	Cu	0.84243	0.40475	0.24718	0.911
Mof_Cu	Cu	0.43772	0.81484	0.62288	0.901
Mof_Cu	Cu	0.43768	0.84243	0.59525	0.911
Mof_Cu	Cu	0.80804	0.18516	0.62288	0.901
Mof_Cu	Cu	0.75282	0.15757	0.59525	0.911
Mof_Cu	Cu	0.56228	0.18516	0.37712	0.901
Mof_Cu	Cu	0.56232	0.15757	0.40475	0.911
Mof_Cu	Cu	0.19196	0.81484	0.37712	0.901
Mof_Cu	Cu	0.24718	0.84243	0.40475	0.911
Mof_Cu	Cu	0.19196	0.37712	0.81484	0.901
Mof_Cu	Cu	0.24718	0.40475	0.84243	0.911
Mof_Cu	Cu	0.56228	0.37712	0.18516	0.901
Mof_Cu	Cu	0.56232	0.40475	0.15757	0.911
Mof_Cu	Cu	0.80804	0.62288	0.18516	0.901
Mof_Cu	Cu	0.75282	0.59525	0.15757	0.911
Mof_Cu	Cu	0.43772	0.62288	0.81484	0.901
Mof_Cu	Cu	0.43768	0.59525	0.84243	0.911
Mof_Cu	Cu	0.62288	0.81484	0.43772	0.901
Mof_Cu	Cu	0.59525	0.84243	0.43768	0.911
Mof_Cu	Cu	0.62288	0.18516	0.80804	0.901
Mof_Cu	Cu	0.59525	0.15757	0.75282	0.911
Mof_Cu	Cu	0.37712	0.18516	0.56228	0.901
Mof_Cu	Cu	0.40475	0.15757	0.56232	0.911
Mof_Cu	Cu	0.37712	0.81484	0.19196	0.901
Mof_Cu	Cu	0.40475	0.84243	0.24718	0.911
Mof_Cu	Cu	0.18516	0.80804	0.62288	0.901
Mof_Cu	Cu	0.15757	0.75282	0.59525	0.911
Mof_Cu	Cu	0.81484	0.43772	0.62288	0.901
Mof_Cu	Cu	0.84243	0.43768	0.59525	0.911
Mof_Cu	Cu	0.81484	0.19196	0.37712	0.901
Mof_Cu	Cu	0.84243	0.24718	0.40475	0.911
Mof_Cu	Cu	0.18516	0.56228	0.37712	0.901
Mof_Cu	Cu	0.15757	0.56232	0.40475	0.911
Mof_Cu	Cu	0.83294	0.36535	-0	0.906
Mof_Cu	Cu	0.80883	0.31824	-0	0.907
Mof_Cu	Cu	0.36535	0.83294	-0	0.906
Mof_Cu	Cu	0.31824	0.80883	-0	0.907
Mof_Cu	Cu	0.63465	0.63465	0.46759	0.907
Mof_Cu	Cu	0.68176	0.68176	0.49059	0.907
Mof_Cu	Cu	0.16706	0.16706	0.53241	0.907
Mof_Cu	Cu	0.19117	0.19117	0.50941	0.907
Mof_Cu	Cu	-3.58312e-17	0.83294	0.36535	0.906
Mof_Cu	Cu	1.79156e-17	0.80883	0.31824	0.907
Mof_Cu	Cu	-2.38875e-17	0.36535	0.83294	0.906
Mof_Cu	Cu	4.7775e-17	0.31824	0.80883	0.907
Mof_Cu	Cu	0.46759	0.63465	0.63465	0.907
Mof_Cu	Cu	0.49059	0.68176	0.68176	0.907
Mof_Cu	Cu	0.53241	0.16706	0.16706	0.907
Mof_Cu	Cu	0.50941	0.19117	0.19117	0.907
Mof_Cu	Cu	0.36535	-4.7775e-17	0.83294	0.906
Mof_Cu	Cu	0.31824	0	0.80883	0.907
Mof_Cu	Cu	0.83294	2.38875e-17	0.36535	0.906
Mof_Cu	Cu	0.80883	0	0.31824	0.907
Mof_Cu	Cu	0.63465	0.46759	0.63465	0.907
Mof_Cu	Cu	0.68176	0.49059	0.68176	0.907
Mof_Cu	Cu	0.16706	0.53241	0.16706	0.907
Mof_Cu	Cu	0.19117	0.50941	0.19117	0.907
Mof_Cu	Cu	0.16706	0.63465	-0	0.906
Mof_Cu	Cu	0.19117	0.68176	-0	0.907
Mof_Cu	Cu	0.63465	0.16706	-0	0.906
Mof_Cu	Cu	0.68176	0.19117	-0	0.907
Mof_Cu	Cu	0.83294	0.83294	0.46759	0.907
Mof_Cu	Cu	0.80883	0.80883	0.49059	0.907
Mof_Cu	Cu	0.36535	0.36535	0.53241	0.907
Mof_Cu	Cu	0.31824	0.31824	0.50941	0.907
Mof_Cu	Cu	0.36535	0.53241	0.36535	0.907
Mof_Cu	Cu	0.31824	0.50941	0.31824	0.907
Mof_Cu	Cu	0.83294	0.46759	0.83294	0.907
Mof_Cu	Cu	0.80883	0.49059	0.80883	0.907
Mof_Cu	Cu	0.16706	-4.7775e-17	0.63465	0.906
Mof_Cu	Cu	0.19117	0	0.68176	0.907
Mof_Cu	Cu	0.63465	0	0.16706	0.906
Mof_Cu	Cu	0.68176	0	0.19117	0.907
Mof_Cu	Cu	0.46759	0.83294	0.83294	0.907
Mof_Cu	Cu	0.49059	0.80883	0.80883	0.907
Mof_Cu	Cu	0.53241	0.36535	0.36535	0.907
Mof_Cu	Cu	0.50941	0.31824	0.31824	0.907
Mof_Cu	Cu	2.38875e-17	0.16706	0.63465	0.906
Mof_Cu	Cu	-0	0.19117	0.68176	0.907
Mof_Cu	Cu	5.97187e-18	0.63465	0.16706	0.906
Mof_Cu	Cu	-2.38875e-17	0.68176	0.19117	0.907
Mof_C 	C 	0.59172	0.23945	0.83117	-0.509
Mof_H 	H 	0.5973	0.2258	0.8231	0.185
Mof_H 	H 	0.5771	0.2383	0.8154	0.174
Mof_C 	C 	0.40828	0.76055	0.16883	-0.509
Mof_H 	H 	0.4027	0.7742	0.1769	0.185
Mof_H 	H 	0.4229	0.7617	0.1846	0.174
Mof_C 	C 	0.59172	0.76055	0.35227	-0.509
Mof_H 	H 	0.5973	0.7742	0.3715	0.185
Mof_H 	H 	0.5771	0.7617	0.3388	0.174
Mof_C 	C 	0.40828	0.23945	0.64773	-0.509
Mof_H 	H 	0.4027	0.2258	0.6285	0.185
Mof_H 	H 	0.4229	0.2383	0.6612	0.174
Mof_C 	C 	0.83117	0.59172	0.23945	-0.509
Mof_H 	H 	0.8231	0.5973	0.2258	0.185
Mof_H 	H 	0.8154	0.5771	0.2383	0.174
Mof_C 	C 	0.16883	0.40828	0.76055	-0.509
Mof_H 	H 	0.1769	0.4027	0.7742	0.185
Mof_H 	H 	0.1846	0.4229	0.7617	0.174
Mof_C 	C 	0.35227	0.59172	0.76055	-0.509
Mof_H 	H 	0.3715	0.5973	0.7742	0.185
Mof_H 	H 	0.3388	0.5771	0.7617	0.174
Mof_C 	C 	0.64773	0.40828	0.23945	-0.509
Mof_H 	H 	0.6285	0.4027	0.2258	0.185
Mof_H 	H 	0.6612	0.4229	0.2383	0.174
Mof_C 	C 	0.23945	0.83117	0.59172	-0.509
Mof_H 	H 	0.2258	0.8231	0.5973	0.185
Mof_H 	H 	0.2383	0.8154	0.5771	0.174
Mof_C 	C 	0.76055	0.16883	0.40828	-0.509
Mof_H 	H 	0.7742	0.1769	0.4027	0.185
Mof_H 	H 	0.7617	0.1846	0.4229	0.174
Mof_C 	C 	0.76055	0.35227	0.59172	-0.509
Mof_H 	H 	0.7742	0.3715	0.5973	0.185
Mof_H 	H 	0.7617	0.3388	0.5771	0.174
Mof_C 	C 	0.23945	0.64773	0.40828	-0.509
Mof_H 	H 	0.2258	0.6285	0.4027	0.185
Mof_H 	H 	0.2383	0.6612	0.4229	0.174
Mof_C 	C 	0.23945	0.59172	0.83117	-0.509
Mof_H 	H 	0.2258	0.5973	0.8231	0.185
Mof_H 	H 	0.2383	0.5771	0.8154	0.174
Mof_C 	C 	0.76055	0.40828	0.16883	-0.509
Mof_H 	H 	0.7742	0.4027	0.1769	0.185
Mof_H 	H 	0.7617	0.4229	0.1846	0.174
Mof_C 	C 	0.76055	0.59172	0.35227	-0.509
Mof_H 	H 	0.7742	0.5973	0.3715	0.185
Mof_H 	H 	0.7617	0.5771	0.3388	0.174
Mof_C 	C 	0.23945	0.40828	0.64773	-0.509
Mof_H 	H 	0.2258	0.4027	0.6285	0.185
Mof_H 	H 	0.2383	0.4229	0.6612	0.174
Mof_C 	C 	0.40828	0.64773	0.23945	-0.509
Mof_H 	H 	0.4027	0.6285	0.2258	0.185
Mof_H 	H 	0.4229	0.6612	0.2383	0.174
Mof_C 	C 	0.59172	0.35227	0.76055	-0.509
Mof_H 	H 	0.5973	0.3715	0.7742	0.185
Mof_H 	H 	0.5771	0.3388	0.7617	0.174
Mof_C 	C 	0.40828	0.16883	0.76055	-0.509
Mof_H 	H 	0.4027	0.1769	0.7742	0.185
Mof_H 	H 	0.4229	0.1846	0.7617	0.174
Mof_C 	C 	0.59172	0.83117	0.23945	-0.509
Mof_H 	H 	0.5973	0.8231	0.2258	0.185
Mof_H 	H 	0.5771	0.8154	0.2383	0.174
Mof_C 	C 	0.35227	0.76055	0.59172	-0.509
Mof_H 	H 	0.3715	0.7742	0.5973	0.185
Mof_H 	H 	0.3388	0.7617	0.5771	0.174
Mof_C 	C 	0.64773	0.23945	0.40828	-0.509
Mof_H 	H 	0.6285	0.2258	0.4027	0.185
Mof_H 	H 	0.6612	0.2383	0.4229	0.174
Mof_C 	C 	0.83117	0.23945	0.59172	-0.509
Mof_H 	H 	0.8231	0.2258	0.5973	0.185
Mof_H 	H 	0.8154	0.2383	0.5771	0.174
Mof_C 	C 	0.16883	0.76055	0.40828	-0.509
Mof_H 	H 	0.1769	0.7742	0.4027	0.185
Mof_H 	H 	0.1846	0.7617	0.4229	0.174
Mof_C 	C 	0.60132	0.60132	0.72586	-0.164
Mof_H 	H 	0.593	0.593	0.706	0.084
Mof_C 	C 	0.62449	0.62449	0.78384	0.222
Mof_C 	C 	0.63437	0.63437	0.81426	-0.382
Mof_C 	C 	0.61427	0.61427	0.8183	0.226
Mof_C 	C 	0.57404	0.57404	0.81918	-0.188
Mof_H 	H 	0.5598	0.5598	0.819	0.093
Mof_C 	C 	0.87546	0.87546	0.27414	-0.164
Mof_H 	H 	0.887	0.887	0.294	0.084
Mof_C 	C 	0.84065	0.84065	0.21616	0.222
Mof_C 	C 	0.82011	0.82011	0.18574	-0.381
Mof_C 	C 	0.79597	0.79597	0.1817	0.226
Mof_C 	C 	0.75486	0.75486	0.18082	-0.188
Mof_H 	H 	0.7408	0.7408	0.181	0.093
Mof_C 	C 	0.12454	0.39868	-0	-0.165
Mof_H 	H 	0.113	0.407	-0	0.084
Mof_C 	C 	0.15935	0.37551	-0	0.221
Mof_C 	C 	0.17989	0.36563	-0	-0.382
Mof_C 	C 	0.20403	0.38573	-0	0.225
Mof_C 	C 	0.24514	0.42596	-0	-0.189
Mof_H 	H 	0.2592	0.4402	-0	0.093
Mof_C 	C 	0.39868	0.12454	-0	-0.165
Mof_H 	H 	0.407	0.113	-0	0.084
Mof_C 	C 	0.37551	0.15935	-0	0.221
Mof_C 	C 	0.36563	0.17989	-0	-0.382
Mof_C 	C 	0.38573	0.20403	-0	0.225
Mof_C 	C 	0.42596	0.24514	-0	-0.189
Mof_H 	H 	0.4402	0.2592	-0	0.093
Mof_C 	C 	0.72586	0.60132	0.60132	-0.164
Mof_H 	H 	0.706	0.593	0.593	0.084
Mof_C 	C 	0.78384	0.62449	0.62449	0.222
Mof_C 	C 	0.81426	0.63437	0.63437	-0.382
Mof_C 	C 	0.8183	0.61427	0.61427	0.226
Mof_C 	C 	0.81918	0.57404	0.57404	-0.188
Mof_H 	H 	0.819	0.5598	0.5598	0.093
Mof_C 	C 	0.27414	0.87546	0.87546	-0.164
Mof_H 	H 	0.294	0.887	0.887	0.084
Mof_C 	C 	0.21616	0.84065	0.84065	0.222
Mof_C 	C 	0.18574	0.82011	0.82011	-0.381
Mof_C 	C 	0.1817	0.79597	0.79597	0.226
Mof_C 	C 	0.18082	0.75486	0.75486	-0.188
Mof_H 	H 	0.181	0.7408	0.7408	0.093
Mof_C 	C 	2.38875e-17	0.12454	0.39868	-0.165
Mof_H 	H 	-2.38875e-17	0.113	0.407	0.084
Mof_C 	C 	-3.58312e-17	0.15935	0.37551	0.221
Mof_C 	C 	1.19437e-17	0.17989	0.36563	-0.382
Mof_C 	C 	1.19437e-17	0.20403	0.38573	0.225
Mof_C 	C 	-1.19437e-17	0.24514	0.42596	-0.189
Mof_H 	H 	2.38875e-17	0.2592	0.4402	0.093
Mof_C 	C 	1.19437e-17	0.39868	0.12454	-0.165
Mof_H 	H 	-3.28453e-17	0.407	0.113	0.084
Mof_C 	C 	-3.58312e-17	0.37551	0.15935	0.221
Mof_C 	C 	5.97187e-18	0.36563	0.17989	-0.382
Mof_C 	C 	-1.79156e-17	0.38573	0.20403	0.225
Mof_C 	C 	-2.38875e-17	0.42596	0.24514	-0.189
Mof_H 	H 	-1.19437e-17	0.4402	0.2592	0.093
Mof_C 	C 	0.60132	0.72586	0.60132	-0.164
Mof_H 	H 	0.593	0.706	0.593	0.084
Mof_C 	C 	0.62449	0.78384	0.62449	0.222
Mof_C 	C 	0.63437	0.81426	0.63437	-0.382
Mof_C 	C 	0.61427	0.8183	0.61427	0.226
Mof_C 	C 	0.57404	0.81918	0.57404	-0.188
Mof_H 	H 	0.5598	0.819	0.5598	0.093
Mof_C 	C 	0.87546	0.27414	0.87546	-0.164
Mof_H 	H 	0.887	0.294	0.887	0.084
Mof_C 	C 	0.84065	0.21616	0.84065	0.222
Mof_C 	C 	0.82011	0.18574	0.82011	-0.381
Mof_C 	C 	0.79597	0.1817	0.79597	0.226
Mof_C 	C 	0.75486	0.18082	0.75486	-0.188
Mof_H 	H 	0.7408	0.181	0.7408	0.093
Mof_C 	C 	0.39868	-1.19437e-17	0.12454	-0.165
Mof_H 	H 	0.407	0	0.113	0.084
Mof_C 	C 	0.37551	-1.19437e-17	0.15935	0.221
Mof_C 	C 	0.36563	-1.19437e-17	0.17989	-0.382
Mof_C 	C 	0.38573	0	0.20403	0.225
Mof_C 	C 	0.42596	0	0.24514	-0.189
Mof_H 	H 	0.4402	-2.38875e-17	0.2592	0.093
Mof_C 	C 	0.12454	2.38875e-17	0.39868	-0.165
Mof_H 	H 	0.113	0	0.407	0.084
Mof_C 	C 	0.15935	0	0.37551	0.221
Mof_C 	C 	0.17989	-2.38875e-17	0.36563	-0.382
Mof_C 	C 	0.20403	0	0.38573	0.225
Mof_C 	C 	0.24514	0	0.42596	-0.189
Mof_H 	H 	0.2592	0	0.4402	0.093
Mof_C 	C 	0.12454	0.12454	0.72586	-0.164
Mof_H 	H 	0.113	0.113	0.706	0.084
Mof_C 	C 	0.15935	0.15935	0.78384	0.222
Mof_C 	C 	0.17989	0.17989	0.81426	-0.381
Mof_C 	C 	0.20403	0.20403	0.8183	0.226
Mof_C 	C 	0.24514	0.24514	0.81918	-0.188
Mof_H 	H 	0.2592	0.2592	0.819	0.093
Mof_C 	C 	0.39868	0.39868	0.27414	-0.164
Mof_H 	H 	0.407	0.407	0.294	0.084
Mof_C 	C 	0.37551	0.37551	0.21616	0.222
Mof_C 	C 	0.36563	0.36563	0.18574	-0.381
Mof_C 	C 	0.38573	0.38573	0.1817	0.226
Mof_C 	C 	0.42596	0.42596	0.18082	-0.188
Mof_H 	H 	0.4402	0.4402	0.181	0.093
Mof_C 	C 	0.87546	0.60132	-0	-0.165
Mof_H 	H 	0.887	0.593	-0	0.084
Mof_C 	C 	0.84065	0.62449	-0	0.221
Mof_C 	C 	0.82011	0.63437	-0	-0.383
Mof_C 	C 	0.79597	0.61427	-0	0.225
Mof_C 	C 	0.75486	0.57404	-0	-0.189
Mof_H 	H 	0.7408	0.5598	-0	0.093
Mof_C 	C 	0.60132	0.87546	-0	-0.165
Mof_H 	H 	0.593	0.887	-0	0.084
Mof_C 	C 	0.62449	0.84065	-0	0.221
Mof_C 	C 	0.63437	0.82011	-0	-0.383
Mof_C 	C 	0.61427	0.79597	-0	0.225
Mof_C 	C 	0.57404	0.75486	-0	-0.189
Mof_H 	H 	0.5598	0.7408	-0	0.093
Mof_C 	C 	0.87546	0	0.60132	-0.165
Mof_H 	H 	0.887	0	0.593	0.084
Mof_C 	C 	0.84065	0	0.62449	0.221
Mof_C 	C 	0.82011	0	0.63437	-0.383
Mof_C 	C 	0.79597	-4.7775e-17	0.61427	0.225
Mof_C 	C 	0.75486	0	0.57404	-0.189
Mof_H 	H 	0.7408	0	0.5598	0.093
Mof_C 	C 	0.60132	-9.55499e-17	0.87546	-0.165
Mof_H 	H 	0.593	-9.55499e-17	0.887	0.084
Mof_C 	C 	0.62449	4.7775e-17	0.84065	0.221
Mof_C 	C 	0.63437	0	0.82011	-0.383
Mof_C 	C 	0.61427	0	0.79597	0.225
Mof_C 	C 	0.57404	-4.7775e-17	0.75486	-0.189
Mof_H 	H 	0.5598	0	0.7408	0.093
Mof_C 	C 	0.39868	0.27414	0.39868	-0.164
Mof_H 	H 	0.407	0.294	0.407	0.084
Mof_C 	C 	0.37551	0.21616	0.37551	0.222
Mof_C 	C 	0.36563	0.18574	0.36563	-0.381
Mof_C 	C 	0.38573	0.1817	0.38573	0.226
Mof_C 	C 	0.42596	0.18082	0.42596	-0.188
Mof_H 	H 	0.4402	0.181	0.4402	0.093
Mof_C 	C 	0.12454	0.72586	0.12454	-0.164
Mof_H 	H 	0.113	0.706	0.113	0.084
Mof_C 	C 	0.15935	0.78384	0.15935	0.222
Mof_C 	C 	0.17989	0.81426	0.17989	-0.381
Mof_C 	C 	0.20403	0.8183	0.20403	0.226
Mof_C 	C 	0.24514	0.81918	0.24514	-0.188
Mof_H 	H 	0.2592	0.819	0.2592	0.093
Mof_C 	C 	-1.19437e-17	0.87546	0.60132	-0.165
Mof_H 	H 	-8.36062e-17	0.887	0.593	0.084
Mof_C 	C 	5.97187e-17	0.84065	0.62449	0.221
Mof_C 	C 	5.97187e-17	0.82011	0.63437	-0.383
Mof_C 	C 	1.19437e-17	0.79597	0.61427	0.225
Mof_C 	C 	-1.19437e-17	0.75486	0.57404	-0.189
Mof_H 	H 	1.19437e-17	0.7408	0.5598	0.093
Mof_C 	C 	9.55499e-17	0.60132	0.87546	-0.165
Mof_H 	H 	-1.19437e-16	0.593	0.887	0.084
Mof_C 	C 	1.19437e-16	0.62449	0.84065	0.221
Mof_C 	C 	4.7775e-17	0.63437	0.82011	-0.383
Mof_C 	C 	7.16624e-17	0.61427	0.79597	0.225
Mof_C 	C 	2.38875e-17	0.57404	0.75486	-0.189
Mof_H 	H 	2.38875e-17	0.5598	0.7408	0.093
Mof_C 	C 	0.72586	0.12454	0.12454	-0.164
Mof_H 	H 	0.706	0.113	0.113	0.084
Mof_C 	C 	0.78384	0.15935	0.15935	0.222
Mof_C 	C 	0.81426	0.17989	0.17989	-0.381
Mof_C 	C 	0.8183	0.20403	0.20403	0.226
Mof_C 	C 	0.81918	0.24514	0.24514	-0.188
Mof_H 	H 	0.819	0.2592	0.2592	0.093
Mof_C 	C 	0.27414	0.39868	0.39868	-0.164
Mof_H 	H 	0.294	0.407	0.407	0.084
Mof_C 	C 	0.21616	0.37551	0.37551	0.222
Mof_C 	C 	0.18574	0.36563	0.36563	-0.381
Mof_C 	C 	0.1817	0.38573	0.38573	0.226
Mof_C 	C 	0.18082	0.42596	0.42596	-0.188
Mof_H 	H 	0.181	0.4402	0.4402	0.093
_end
