data_functionalizedCrystal
_audit_creation_method	'EQeq! by Chris Wilmer'
_symmetry_space_group_name_H-M	'P1'
_symmetry_Int_Tables_number	1
_symmetry_cell_setting	triclinic
loop_
_symmetry_equiv_pos_as_xyz
  x,y,z
_cell_length_a	30.5539
_cell_length_b	30.5539
_cell_length_c	30.5539
_cell_angle_alpha	90
_cell_angle_beta	90
_cell_angle_gamma	90
loop_
_atom_site_label
_atom_site_type_symbol
_atom_site_fract_x
_atom_site_fract_y
_atom_site_fract_z
_atom_site_charge
Mof_N 	N 	0.7287	0.5375	0.1168	-0.212
Mof_N 	N 	0.8089	0.6199	0.1376	-0.153
Mof_C 	C 	0.6935	0.5231	0.1397	-0.014
Mof_H 	H 	0.6722	0.5412	0.1534	0.023
Mof_C 	C 	0.8518	0.6112	0.1138	-0.034
Mof_H 	H 	0.8557	0.6066	0.0833	0.017
Mof_C 	C 	0.8324	0.6629	0.1306	-0.013
Mof_H 	H 	0.8265	0.6848	0.1093	0.025
Mof_H 	H 	0.8049	0.4698	0.0838	0.181
Mof_H 	H 	0.814	0.5154	0.1078	0.18
Mof_H 	H 	0.7954	0.5148	0.0589	0.175
Mof_N 	N 	0.2287	0.0375	0.6168	-0.21
Mof_N 	N 	0.3089	0.1199	0.6376	-0.153
Mof_C 	C 	0.1935	0.0231	0.6397	0.017
Mof_H 	H 	0.1722	0.0412	0.6534	0.016
Mof_C 	C 	0.3518	0.1112	0.6138	-0.031
Mof_H 	H 	0.3557	0.1066	0.5833	0.019
Mof_C 	C 	0.3324	0.1629	0.6306	-0.014
Mof_H 	H 	0.3265	0.1848	0.6093	0.025
Mof_H 	H 	0.3049	0.9698	0.5838	0.152
Mof_H 	H 	0.314	0.0154	0.6078	0.162
Mof_H 	H 	0.2954	0.0148	0.5589	0.156
Mof_N 	N 	0.2713	0.4625	0.1168	-0.212
Mof_N 	N 	0.1911	0.3801	0.1376	-0.153
Mof_C 	C 	0.3065	0.4769	0.1397	-0.014
Mof_H 	H 	0.3278	0.4588	0.1534	0.023
Mof_C 	C 	0.1482	0.3888	0.1138	-0.033
Mof_H 	H 	0.1443	0.3934	0.0833	0.019
Mof_C 	C 	0.1676	0.3371	0.1306	-0.012
Mof_H 	H 	0.1735	0.3152	0.1093	0.028
Mof_H 	H 	0.1951	0.5302	0.0838	0.183
Mof_H 	H 	0.186	0.4846	0.1078	0.181
Mof_H 	H 	0.2046	0.4852	0.0589	0.176
Mof_N 	N 	0.7713	0.9625	0.6168	-0.209
Mof_N 	N 	0.6911	0.8801	0.6376	-0.152
Mof_C 	C 	0.8065	0.9769	0.6397	-0.048
Mof_H 	H 	0.8278	0.9588	0.6534	0.028
Mof_C 	C 	0.6482	0.8888	0.6138	-0.032
Mof_H 	H 	0.6443	0.8934	0.5833	0.017
Mof_C 	C 	0.6676	0.8371	0.6306	-0.014
Mof_H 	H 	0.6735	0.8152	0.6093	0.025
Mof_H 	H 	0.6951	0.0302	0.5838	0.141
Mof_H 	H 	0.686	0.9846	0.6078	0.13
Mof_H 	H 	0.7046	0.9852	0.5589	0.122
Mof_N 	N 	0.2713	0.5375	0.8832	-0.209
Mof_N 	N 	0.1911	0.6199	0.8624	-0.152
Mof_C 	C 	0.3065	0.5231	0.8603	-0.014
Mof_H 	H 	0.3278	0.5412	0.8466	0.023
Mof_C 	C 	0.1482	0.6112	0.8862	-0.032
Mof_H 	H 	0.1443	0.6066	0.9167	0.016
Mof_C 	C 	0.1676	0.6629	0.8694	-0.012
Mof_H 	H 	0.1735	0.6848	0.8907	0.024
Mof_H 	H 	0.1951	0.4698	0.9162	0.176
Mof_H 	H 	0.186	0.5154	0.8922	0.175
Mof_H 	H 	0.2046	0.5148	0.9411	0.166
Mof_N 	N 	0.7713	0.0375	0.3832	-0.209
Mof_N 	N 	0.6911	0.1199	0.3624	-0.152
Mof_C 	C 	0.8065	0.0231	0.3603	0.018
Mof_H 	H 	0.8278	0.0412	0.3466	0.016
Mof_C 	C 	0.6482	0.1112	0.3862	-0.03
Mof_H 	H 	0.6443	0.1066	0.4167	0.02
Mof_C 	C 	0.6676	0.1629	0.3694	-0.013
Mof_H 	H 	0.6735	0.1848	0.3907	0.026
Mof_H 	H 	0.6951	0.9698	0.4162	0.153
Mof_H 	H 	0.686	0.0154	0.3922	0.163
Mof_H 	H 	0.7046	0.0148	0.4411	0.157
Mof_N 	N 	0.7287	0.4625	0.8832	-0.209
Mof_N 	N 	0.8089	0.3801	0.8624	-0.152
Mof_C 	C 	0.6935	0.4769	0.8603	-0.014
Mof_H 	H 	0.6722	0.4588	0.8466	0.023
Mof_C 	C 	0.8518	0.3888	0.8862	-0.033
Mof_H 	H 	0.8557	0.3934	0.9167	0.014
Mof_C 	C 	0.8324	0.3371	0.8694	-0.013
Mof_H 	H 	0.8265	0.3152	0.8907	0.023
Mof_H 	H 	0.8049	0.5302	0.9162	0.175
Mof_H 	H 	0.814	0.4846	0.8922	0.174
Mof_H 	H 	0.7954	0.4852	0.9411	0.165
Mof_N 	N 	0.2287	0.9625	0.3832	-0.208
Mof_N 	N 	0.3089	0.8801	0.3624	-0.151
Mof_C 	C 	0.1935	0.9769	0.3603	-0.046
Mof_H 	H 	0.1722	0.9588	0.3466	0.031
Mof_C 	C 	0.3518	0.8888	0.3862	-0.031
Mof_H 	H 	0.3557	0.8934	0.4167	0.018
Mof_C 	C 	0.3324	0.8371	0.3694	-0.013
Mof_H 	H 	0.3265	0.8152	0.3907	0.026
Mof_H 	H 	0.3049	0.0302	0.4162	0.142
Mof_H 	H 	0.314	0.9846	0.3922	0.13
Mof_H 	H 	0.2954	0.9852	0.4411	0.122
Mof_N 	N 	0.1168	0.7287	0.5375	-0.211
Mof_N 	N 	0.1376	0.8089	0.6199	-0.152
Mof_C 	C 	0.1397	0.6935	0.5231	-0.013
Mof_H 	H 	0.1534	0.6722	0.5412	0.024
Mof_C 	C 	0.1138	0.8518	0.6112	-0.033
Mof_H 	H 	0.0833	0.8557	0.6066	0.018
Mof_C 	C 	0.1306	0.8324	0.6629	-0.012
Mof_H 	H 	0.1093	0.8265	0.6848	0.026
Mof_H 	H 	0.0838	0.8049	0.4698	0.182
Mof_H 	H 	0.1078	0.814	0.5154	0.181
Mof_H 	H 	0.0589	0.7954	0.5148	0.176
Mof_N 	N 	0.6168	0.2287	0.0375	-0.209
Mof_N 	N 	0.6376	0.3089	0.1199	-0.152
Mof_C 	C 	0.6397	0.1935	0.0231	0.018
Mof_H 	H 	0.6534	0.1722	0.0412	0.017
Mof_C 	C 	0.6138	0.3518	0.1112	-0.03
Mof_H 	H 	0.5833	0.3557	0.1066	0.02
Mof_C 	C 	0.6306	0.3324	0.1629	-0.013
Mof_H 	H 	0.6093	0.3265	0.1848	0.026
Mof_H 	H 	0.5838	0.3049	0.9698	0.153
Mof_H 	H 	0.6078	0.314	0.0154	0.163
Mof_H 	H 	0.5589	0.2954	0.0148	0.157
Mof_N 	N 	0.1168	0.2713	0.4625	-0.211
Mof_N 	N 	0.1376	0.1911	0.3801	-0.152
Mof_C 	C 	0.1397	0.3065	0.4769	-0.013
Mof_H 	H 	0.1534	0.3278	0.4588	0.024
Mof_C 	C 	0.1138	0.1482	0.3888	-0.032
Mof_H 	H 	0.0833	0.1443	0.3934	0.02
Mof_C 	C 	0.1306	0.1676	0.3371	-0.011
Mof_H 	H 	0.1093	0.1735	0.3152	0.029
Mof_H 	H 	0.0838	0.1951	0.5302	0.184
Mof_H 	H 	0.1078	0.186	0.4846	0.182
Mof_H 	H 	0.0589	0.2046	0.4852	0.177
Mof_N 	N 	0.6168	0.7713	0.9625	-0.208
Mof_N 	N 	0.6376	0.6911	0.8801	-0.151
Mof_C 	C 	0.6397	0.8065	0.9769	-0.047
Mof_H 	H 	0.6534	0.8278	0.9588	0.029
Mof_C 	C 	0.6138	0.6482	0.8888	-0.031
Mof_H 	H 	0.5833	0.6443	0.8934	0.018
Mof_C 	C 	0.6306	0.6676	0.8371	-0.013
Mof_H 	H 	0.6093	0.6735	0.8152	0.026
Mof_H 	H 	0.5838	0.6951	0.0302	0.142
Mof_H 	H 	0.6078	0.686	0.9846	0.13
Mof_H 	H 	0.5589	0.7046	0.9852	0.122
Mof_N 	N 	0.8832	0.2713	0.5375	-0.209
Mof_N 	N 	0.8624	0.1911	0.6199	-0.152
Mof_C 	C 	0.8603	0.3065	0.5231	-0.014
Mof_H 	H 	0.8466	0.3278	0.5412	0.023
Mof_C 	C 	0.8862	0.1482	0.6112	-0.032
Mof_H 	H 	0.9167	0.1443	0.6066	0.016
Mof_C 	C 	0.8694	0.1676	0.6629	-0.012
Mof_H 	H 	0.8907	0.1735	0.6848	0.024
Mof_H 	H 	0.9162	0.1951	0.4698	0.176
Mof_H 	H 	0.8922	0.186	0.5154	0.175
Mof_H 	H 	0.9411	0.2046	0.5148	0.166
Mof_N 	N 	0.3832	0.7713	0.0375	-0.209
Mof_N 	N 	0.3624	0.6911	0.1199	-0.152
Mof_C 	C 	0.3603	0.8065	0.0231	0.018
Mof_H 	H 	0.3466	0.8278	0.0412	0.016
Mof_C 	C 	0.3862	0.6482	0.1112	-0.03
Mof_H 	H 	0.4167	0.6443	0.1066	0.02
Mof_C 	C 	0.3694	0.6676	0.1629	-0.013
Mof_H 	H 	0.3907	0.6735	0.1848	0.026
Mof_H 	H 	0.4162	0.6951	0.9698	0.153
Mof_H 	H 	0.3922	0.686	0.0154	0.163
Mof_H 	H 	0.4411	0.7046	0.0148	0.157
Mof_N 	N 	0.8832	0.7287	0.4625	-0.209
Mof_N 	N 	0.8624	0.8089	0.3801	-0.152
Mof_C 	C 	0.8603	0.6935	0.4769	-0.014
Mof_H 	H 	0.8466	0.6722	0.4588	0.023
Mof_C 	C 	0.8862	0.8518	0.3888	-0.033
Mof_H 	H 	0.9167	0.8557	0.3934	0.014
Mof_C 	C 	0.8694	0.8324	0.3371	-0.013
Mof_H 	H 	0.8907	0.8265	0.3152	0.023
Mof_H 	H 	0.9162	0.8049	0.5302	0.175
Mof_H 	H 	0.8922	0.814	0.4846	0.174
Mof_H 	H 	0.9411	0.7954	0.4852	0.165
Mof_N 	N 	0.3832	0.2287	0.9625	-0.208
Mof_N 	N 	0.3624	0.3089	0.8801	-0.151
Mof_C 	C 	0.3603	0.1935	0.9769	-0.046
Mof_H 	H 	0.3466	0.1722	0.9588	0.031
Mof_C 	C 	0.3862	0.3518	0.8888	-0.031
Mof_H 	H 	0.4167	0.3557	0.8934	0.018
Mof_C 	C 	0.3694	0.3324	0.8371	-0.013
Mof_H 	H 	0.3907	0.3265	0.8152	0.026
Mof_H 	H 	0.4162	0.3049	0.0302	0.142
Mof_H 	H 	0.3922	0.314	0.9846	0.13
Mof_H 	H 	0.4411	0.2954	0.9852	0.122
Mof_N 	N 	0.5375	0.1168	0.7287	-0.211
Mof_N 	N 	0.6199	0.1376	0.8089	-0.152
Mof_C 	C 	0.5231	0.1397	0.6935	-0.013
Mof_H 	H 	0.5412	0.1534	0.6722	0.024
Mof_C 	C 	0.6112	0.1138	0.8518	-0.033
Mof_H 	H 	0.6066	0.0833	0.8557	0.018
Mof_C 	C 	0.6629	0.1306	0.8324	-0.012
Mof_H 	H 	0.6848	0.1093	0.8265	0.026
Mof_H 	H 	0.4698	0.0838	0.8049	0.182
Mof_H 	H 	0.5154	0.1078	0.814	0.181
Mof_H 	H 	0.5148	0.0589	0.7954	0.176
Mof_N 	N 	0.0375	0.6168	0.2287	-0.209
Mof_N 	N 	0.1199	0.6376	0.3089	-0.152
Mof_C 	C 	0.0231	0.6397	0.1935	0.018
Mof_H 	H 	0.0412	0.6534	0.1722	0.017
Mof_C 	C 	0.1112	0.6138	0.3518	-0.03
Mof_H 	H 	0.1066	0.5833	0.3557	0.02
Mof_C 	C 	0.1629	0.6306	0.3324	-0.013
Mof_H 	H 	0.1848	0.6093	0.3265	0.026
Mof_H 	H 	0.9698	0.5838	0.3049	0.153
Mof_H 	H 	0.0154	0.6078	0.314	0.163
Mof_H 	H 	0.0148	0.5589	0.2954	0.157
Mof_N 	N 	0.4625	0.1168	0.2713	-0.211
Mof_N 	N 	0.3801	0.1376	0.1911	-0.152
Mof_C 	C 	0.4769	0.1397	0.3065	-0.013
Mof_H 	H 	0.4588	0.1534	0.3278	0.024
Mof_C 	C 	0.3888	0.1138	0.1482	-0.032
Mof_H 	H 	0.3934	0.0833	0.1443	0.02
Mof_C 	C 	0.3371	0.1306	0.1676	-0.011
Mof_H 	H 	0.3152	0.1093	0.1735	0.029
Mof_H 	H 	0.5302	0.0838	0.1951	0.184
Mof_H 	H 	0.4846	0.1078	0.186	0.182
Mof_H 	H 	0.4852	0.0589	0.2046	0.177
Mof_N 	N 	0.9625	0.6168	0.7713	-0.208
Mof_N 	N 	0.8801	0.6376	0.6911	-0.151
Mof_C 	C 	0.9769	0.6397	0.8065	-0.047
Mof_H 	H 	0.9588	0.6534	0.8278	0.029
Mof_C 	C 	0.8888	0.6138	0.6482	-0.031
Mof_H 	H 	0.8934	0.5833	0.6443	0.018
Mof_C 	C 	0.8371	0.6306	0.6676	-0.013
Mof_H 	H 	0.8152	0.6093	0.6735	0.026
Mof_H 	H 	0.0302	0.5838	0.6951	0.142
Mof_H 	H 	0.9846	0.6078	0.686	0.13
Mof_H 	H 	0.9852	0.5589	0.7046	0.122
Mof_N 	N 	0.5375	0.8832	0.2713	-0.209
Mof_N 	N 	0.6199	0.8624	0.1911	-0.152
Mof_C 	C 	0.5231	0.8603	0.3065	-0.014
Mof_H 	H 	0.5412	0.8466	0.3278	0.023
Mof_C 	C 	0.6112	0.8862	0.1482	-0.032
Mof_H 	H 	0.6066	0.9167	0.1443	0.016
Mof_C 	C 	0.6629	0.8694	0.1676	-0.012
Mof_H 	H 	0.6848	0.8907	0.1735	0.024
Mof_H 	H 	0.4698	0.9162	0.1951	0.176
Mof_H 	H 	0.5154	0.8922	0.186	0.175
Mof_H 	H 	0.5148	0.9411	0.2046	0.166
Mof_N 	N 	0.0375	0.3832	0.7713	-0.209
Mof_N 	N 	0.1199	0.3624	0.6911	-0.152
Mof_C 	C 	0.0231	0.3603	0.8065	0.018
Mof_H 	H 	0.0412	0.3466	0.8278	0.016
Mof_C 	C 	0.1112	0.3862	0.6482	-0.03
Mof_H 	H 	0.1066	0.4167	0.6443	0.02
Mof_C 	C 	0.1629	0.3694	0.6676	-0.013
Mof_H 	H 	0.1848	0.3907	0.6735	0.026
Mof_H 	H 	0.9698	0.4162	0.6951	0.153
Mof_H 	H 	0.0154	0.3922	0.686	0.163
Mof_H 	H 	0.0148	0.4411	0.7046	0.157
Mof_N 	N 	0.4625	0.8832	0.7287	-0.209
Mof_N 	N 	0.3801	0.8624	0.8089	-0.152
Mof_C 	C 	0.4769	0.8603	0.6935	-0.014
Mof_H 	H 	0.4588	0.8466	0.6722	0.023
Mof_C 	C 	0.3888	0.8862	0.8518	-0.033
Mof_H 	H 	0.3934	0.9167	0.8557	0.014
Mof_C 	C 	0.3371	0.8694	0.8324	-0.013
Mof_H 	H 	0.3152	0.8907	0.8265	0.023
Mof_H 	H 	0.5302	0.9162	0.8049	0.175
Mof_H 	H 	0.4846	0.8922	0.814	0.174
Mof_H 	H 	0.4852	0.9411	0.7954	0.165
Mof_N 	N 	0.9625	0.3832	0.2287	-0.208
Mof_N 	N 	0.8801	0.3624	0.3089	-0.151
Mof_C 	C 	0.9769	0.3603	0.1935	-0.046
Mof_H 	H 	0.9588	0.3466	0.1722	0.031
Mof_C 	C 	0.8888	0.3862	0.3518	-0.031
Mof_H 	H 	0.8934	0.4167	0.3557	0.018
Mof_C 	C 	0.8371	0.3694	0.3324	-0.013
Mof_H 	H 	0.8152	0.3907	0.3265	0.026
Mof_H 	H 	0.0302	0.4162	0.3049	0.142
Mof_H 	H 	0.9846	0.3922	0.314	0.13
Mof_H 	H 	0.9852	0.4411	0.2954	0.122
Mof_N 	N 	0.5375	0.7287	0.8832	-0.209
Mof_N 	N 	0.6199	0.8089	0.8624	-0.152
Mof_C 	C 	0.5231	0.6935	0.8603	-0.014
Mof_H 	H 	0.5412	0.6722	0.8466	0.023
Mof_C 	C 	0.6112	0.8518	0.8862	-0.033
Mof_H 	H 	0.6066	0.8557	0.9167	0.014
Mof_C 	C 	0.6629	0.8324	0.8694	-0.013
Mof_H 	H 	0.6848	0.8265	0.8907	0.022
Mof_H 	H 	0.4698	0.8049	0.9162	0.175
Mof_H 	H 	0.5154	0.814	0.8922	0.174
Mof_H 	H 	0.5148	0.7954	0.9411	0.165
Mof_N 	N 	0.0375	0.2287	0.3832	-0.209
Mof_N 	N 	0.1199	0.3089	0.3624	-0.152
Mof_C 	C 	0.0231	0.1935	0.3603	0.018
Mof_H 	H 	0.0412	0.1722	0.3466	0.018
Mof_C 	C 	0.1112	0.3518	0.3862	-0.03
Mof_H 	H 	0.1066	0.3557	0.4167	0.02
Mof_C 	C 	0.1629	0.3324	0.3694	-0.013
Mof_H 	H 	0.1848	0.3265	0.3907	0.026
Mof_H 	H 	0.9698	0.3049	0.4162	0.153
Mof_H 	H 	0.0154	0.314	0.3922	0.163
Mof_H 	H 	0.0148	0.2954	0.4411	0.157
Mof_N 	N 	0.4625	0.2713	0.8832	-0.209
Mof_N 	N 	0.3801	0.1911	0.8624	-0.152
Mof_C 	C 	0.4769	0.3065	0.8603	-0.014
Mof_H 	H 	0.4588	0.3278	0.8466	0.023
Mof_C 	C 	0.3888	0.1482	0.8862	-0.032
Mof_H 	H 	0.3934	0.1443	0.9167	0.016
Mof_C 	C 	0.3371	0.1676	0.8694	-0.012
Mof_H 	H 	0.3152	0.1735	0.8907	0.025
Mof_H 	H 	0.5302	0.1951	0.9162	0.176
Mof_H 	H 	0.4846	0.186	0.8922	0.175
Mof_H 	H 	0.4852	0.2046	0.9411	0.166
Mof_N 	N 	0.9625	0.7713	0.3832	-0.208
Mof_N 	N 	0.8801	0.6911	0.3624	-0.151
Mof_C 	C 	0.9769	0.8065	0.3603	-0.046
Mof_H 	H 	0.9588	0.8278	0.3466	0.03
Mof_C 	C 	0.8888	0.6482	0.3862	-0.031
Mof_H 	H 	0.8934	0.6443	0.4167	0.018
Mof_C 	C 	0.8371	0.6676	0.3694	-0.013
Mof_H 	H 	0.8152	0.6735	0.3907	0.026
Mof_H 	H 	0.0302	0.6951	0.4162	0.142
Mof_H 	H 	0.9846	0.686	0.3922	0.13
Mof_H 	H 	0.9852	0.7046	0.4411	0.122
Mof_N 	N 	0.5375	0.2713	0.1168	-0.211
Mof_N 	N 	0.6199	0.1911	0.1376	-0.152
Mof_C 	C 	0.5231	0.3065	0.1397	-0.013
Mof_H 	H 	0.5412	0.3278	0.1534	0.024
Mof_C 	C 	0.6112	0.1482	0.1138	-0.032
Mof_H 	H 	0.6066	0.1443	0.0833	0.02
Mof_C 	C 	0.6629	0.1676	0.1306	-0.011
Mof_H 	H 	0.6848	0.1735	0.1093	0.028
Mof_H 	H 	0.4698	0.1951	0.0838	0.184
Mof_H 	H 	0.5154	0.186	0.1078	0.182
Mof_H 	H 	0.5148	0.2046	0.0589	0.177
Mof_N 	N 	0.0375	0.7713	0.6168	-0.209
Mof_N 	N 	0.1199	0.6911	0.6376	-0.152
Mof_C 	C 	0.0231	0.8065	0.6397	0.017
Mof_H 	H 	0.0412	0.8278	0.6534	0.015
Mof_C 	C 	0.1112	0.6482	0.6138	-0.03
Mof_H 	H 	0.1066	0.6443	0.5833	0.02
Mof_C 	C 	0.1629	0.6676	0.6306	-0.013
Mof_H 	H 	0.1848	0.6735	0.6093	0.026
Mof_H 	H 	0.9698	0.6951	0.5838	0.153
Mof_H 	H 	0.0154	0.686	0.6078	0.163
Mof_H 	H 	0.0148	0.7046	0.5589	0.157
Mof_N 	N 	0.4625	0.7287	0.1168	-0.211
Mof_N 	N 	0.3801	0.8089	0.1376	-0.152
Mof_C 	C 	0.4769	0.6935	0.1397	-0.013
Mof_H 	H 	0.4588	0.6722	0.1534	0.024
Mof_C 	C 	0.3888	0.8518	0.1138	-0.033
Mof_H 	H 	0.3934	0.8557	0.0833	0.018
Mof_C 	C 	0.3371	0.8324	0.1306	-0.012
Mof_H 	H 	0.3152	0.8265	0.1093	0.027
Mof_H 	H 	0.5302	0.8049	0.0838	0.182
Mof_H 	H 	0.4846	0.814	0.1078	0.181
Mof_H 	H 	0.4852	0.7954	0.0589	0.176
Mof_N 	N 	0.9625	0.2287	0.6168	-0.208
Mof_N 	N 	0.8801	0.3089	0.6376	-0.151
Mof_C 	C 	0.9769	0.1935	0.6397	-0.046
Mof_H 	H 	0.9588	0.1722	0.6534	0.031
Mof_C 	C 	0.8888	0.3518	0.6138	-0.031
Mof_H 	H 	0.8934	0.3557	0.5833	0.018
Mof_C 	C 	0.8371	0.3324	0.6306	-0.013
Mof_H 	H 	0.8152	0.3265	0.6093	0.026
Mof_H 	H 	0.0302	0.3049	0.5838	0.142
Mof_H 	H 	0.9846	0.314	0.6078	0.13
Mof_H 	H 	0.9852	0.2954	0.5589	0.122
Mof_N 	N 	0.7287	0.1168	0.4625	-0.211
Mof_N 	N 	0.8089	0.1376	0.3801	-0.152
Mof_C 	C 	0.6935	0.1397	0.4769	-0.013
Mof_H 	H 	0.6722	0.1534	0.4588	0.024
Mof_C 	C 	0.8518	0.1138	0.3888	-0.033
Mof_H 	H 	0.8557	0.0833	0.3934	0.018
Mof_C 	C 	0.8324	0.1306	0.3371	-0.012
Mof_H 	H 	0.8265	0.1093	0.3152	0.027
Mof_H 	H 	0.8049	0.0838	0.5302	0.182
Mof_H 	H 	0.814	0.1078	0.4846	0.181
Mof_H 	H 	0.7954	0.0589	0.4852	0.176
Mof_N 	N 	0.2287	0.6168	0.9625	-0.208
Mof_N 	N 	0.3089	0.6376	0.8801	-0.151
Mof_C 	C 	0.1935	0.6397	0.9769	-0.046
Mof_H 	H 	0.1722	0.6534	0.9588	0.031
Mof_C 	C 	0.3518	0.6138	0.8888	-0.031
Mof_H 	H 	0.3557	0.5833	0.8934	0.018
Mof_C 	C 	0.3324	0.6306	0.8371	-0.013
Mof_H 	H 	0.3265	0.6093	0.8152	0.026
Mof_H 	H 	0.3049	0.5838	0.0302	0.142
Mof_H 	H 	0.314	0.6078	0.9846	0.13
Mof_H 	H 	0.2954	0.5589	0.9852	0.122
Mof_N 	N 	0.2713	0.1168	0.5375	-0.211
Mof_N 	N 	0.1911	0.1376	0.6199	-0.152
Mof_C 	C 	0.3065	0.1397	0.5231	-0.013
Mof_H 	H 	0.3278	0.1534	0.5412	0.024
Mof_C 	C 	0.1482	0.1138	0.6112	-0.032
Mof_H 	H 	0.1443	0.0833	0.6066	0.02
Mof_C 	C 	0.1676	0.1306	0.6629	-0.011
Mof_H 	H 	0.1735	0.1093	0.6848	0.028
Mof_H 	H 	0.1951	0.0838	0.4698	0.184
Mof_H 	H 	0.186	0.1078	0.5154	0.182
Mof_H 	H 	0.2046	0.0589	0.5148	0.177
Mof_N 	N 	0.7713	0.6168	0.0375	-0.209
Mof_N 	N 	0.6911	0.6376	0.1199	-0.152
Mof_C 	C 	0.8065	0.6397	0.0231	0.017
Mof_H 	H 	0.8278	0.6534	0.0412	0.015
Mof_C 	C 	0.6482	0.6138	0.1112	-0.03
Mof_H 	H 	0.6443	0.5833	0.1066	0.02
Mof_C 	C 	0.6676	0.6306	0.1629	-0.013
Mof_H 	H 	0.6735	0.6093	0.1848	0.026
Mof_H 	H 	0.6951	0.5838	0.9698	0.153
Mof_H 	H 	0.686	0.6078	0.0154	0.163
Mof_H 	H 	0.7046	0.5589	0.0148	0.157
Mof_N 	N 	0.2713	0.8832	0.4625	-0.209
Mof_N 	N 	0.1911	0.8624	0.3801	-0.152
Mof_C 	C 	0.3065	0.8603	0.4769	-0.014
Mof_H 	H 	0.3278	0.8466	0.4588	0.023
Mof_C 	C 	0.1482	0.8862	0.3888	-0.032
Mof_H 	H 	0.1443	0.9167	0.3934	0.016
Mof_C 	C 	0.1676	0.8694	0.3371	-0.012
Mof_H 	H 	0.1735	0.8907	0.3152	0.025
Mof_H 	H 	0.1951	0.9162	0.5302	0.176
Mof_H 	H 	0.186	0.8922	0.4846	0.175
Mof_H 	H 	0.2046	0.9411	0.4852	0.166
Mof_N 	N 	0.7713	0.3832	0.9625	-0.208
Mof_N 	N 	0.6911	0.3624	0.8801	-0.151
Mof_C 	C 	0.8065	0.3603	0.9769	-0.046
Mof_H 	H 	0.8278	0.3466	0.9588	0.03
Mof_C 	C 	0.6482	0.3862	0.8888	-0.031
Mof_H 	H 	0.6443	0.4167	0.8934	0.018
Mof_C 	C 	0.6676	0.3694	0.8371	-0.013
Mof_H 	H 	0.6735	0.3907	0.8152	0.026
Mof_H 	H 	0.6951	0.4162	0.0302	0.142
Mof_H 	H 	0.686	0.3922	0.9846	0.13
Mof_H 	H 	0.7046	0.4411	0.9852	0.122
Mof_N 	N 	0.7287	0.8832	0.5375	-0.209
Mof_N 	N 	0.8089	0.8624	0.6199	-0.152
Mof_C 	C 	0.6935	0.8603	0.5231	-0.014
Mof_H 	H 	0.6722	0.8466	0.5412	0.023
Mof_C 	C 	0.8518	0.8862	0.6112	-0.033
Mof_H 	H 	0.8557	0.9167	0.6066	0.014
Mof_C 	C 	0.8324	0.8694	0.6629	-0.013
Mof_H 	H 	0.8265	0.8907	0.6848	0.022
Mof_H 	H 	0.8049	0.9162	0.4698	0.175
Mof_H 	H 	0.814	0.8922	0.5154	0.174
Mof_H 	H 	0.7954	0.9411	0.5148	0.165
Mof_N 	N 	0.2287	0.3832	0.0375	-0.209
Mof_N 	N 	0.3089	0.3624	0.1199	-0.152
Mof_C 	C 	0.1935	0.3603	0.0231	0.018
Mof_H 	H 	0.1722	0.3466	0.0412	0.018
Mof_C 	C 	0.3518	0.3862	0.1112	-0.03
Mof_H 	H 	0.3557	0.4167	0.1066	0.02
Mof_C 	C 	0.3324	0.3694	0.1629	-0.013
Mof_H 	H 	0.3265	0.3907	0.1848	0.026
Mof_H 	H 	0.3049	0.4162	0.9698	0.153
Mof_H 	H 	0.314	0.3922	0.0154	0.163
Mof_H 	H 	0.2954	0.4411	0.0148	0.157
Mof_N 	N 	0.1168	0.5375	0.2713	-0.211
Mof_N 	N 	0.1376	0.6199	0.1911	-0.152
Mof_C 	C 	0.1397	0.5231	0.3065	-0.013
Mof_H 	H 	0.1534	0.5412	0.3278	0.024
Mof_C 	C 	0.1138	0.6112	0.1482	-0.032
Mof_H 	H 	0.0833	0.6066	0.1443	0.02
Mof_C 	C 	0.1306	0.6629	0.1676	-0.011
Mof_H 	H 	0.1093	0.6848	0.1735	0.028
Mof_H 	H 	0.0838	0.4698	0.1951	0.184
Mof_H 	H 	0.1078	0.5154	0.186	0.182
Mof_H 	H 	0.0589	0.5148	0.2046	0.177
Mof_N 	N 	0.6168	0.0375	0.7713	-0.209
Mof_N 	N 	0.6376	0.1199	0.6911	-0.152
Mof_C 	C 	0.6397	0.0231	0.8065	0.017
Mof_H 	H 	0.6534	0.0412	0.8278	0.015
Mof_C 	C 	0.6138	0.1112	0.6482	-0.03
Mof_H 	H 	0.5833	0.1066	0.6443	0.02
Mof_C 	C 	0.6306	0.1629	0.6676	-0.013
Mof_H 	H 	0.6093	0.1848	0.6735	0.026
Mof_H 	H 	0.5838	0.9698	0.6951	0.153
Mof_H 	H 	0.6078	0.0154	0.686	0.163
Mof_H 	H 	0.5589	0.0148	0.7046	0.157
Mof_N 	N 	0.1168	0.4625	0.7287	-0.211
Mof_N 	N 	0.1376	0.3801	0.8089	-0.152
Mof_C 	C 	0.1397	0.4769	0.6935	-0.013
Mof_H 	H 	0.1534	0.4588	0.6722	0.024
Mof_C 	C 	0.1138	0.3888	0.8518	-0.033
Mof_H 	H 	0.0833	0.3934	0.8557	0.018
Mof_C 	C 	0.1306	0.3371	0.8324	-0.012
Mof_H 	H 	0.1093	0.3152	0.8265	0.027
Mof_H 	H 	0.0838	0.5302	0.8049	0.182
Mof_H 	H 	0.1078	0.4846	0.814	0.181
Mof_H 	H 	0.0589	0.4852	0.7954	0.176
Mof_N 	N 	0.6168	0.9625	0.2287	-0.208
Mof_N 	N 	0.6376	0.8801	0.3089	-0.151
Mof_C 	C 	0.6397	0.9769	0.1935	-0.046
Mof_H 	H 	0.6534	0.9588	0.1722	0.031
Mof_C 	C 	0.6138	0.8888	0.3518	-0.031
Mof_H 	H 	0.5833	0.8934	0.3557	0.018
Mof_C 	C 	0.6306	0.8371	0.3324	-0.013
Mof_H 	H 	0.6093	0.8152	0.3265	0.026
Mof_H 	H 	0.5838	0.0302	0.3049	0.142
Mof_H 	H 	0.6078	0.9846	0.314	0.13
Mof_H 	H 	0.5589	0.9852	0.2954	0.122
Mof_N 	N 	0.8832	0.5375	0.7287	-0.209
Mof_N 	N 	0.8624	0.6199	0.8089	-0.152
Mof_C 	C 	0.8603	0.5231	0.6935	-0.014
Mof_H 	H 	0.8466	0.5412	0.6722	0.023
Mof_C 	C 	0.8862	0.6112	0.8518	-0.033
Mof_H 	H 	0.9167	0.6066	0.8557	0.014
Mof_C 	C 	0.8694	0.6629	0.8324	-0.013
Mof_H 	H 	0.8907	0.6848	0.8265	0.022
Mof_H 	H 	0.9162	0.4698	0.8049	0.175
Mof_H 	H 	0.8922	0.5154	0.814	0.174
Mof_H 	H 	0.9411	0.5148	0.7954	0.165
Mof_N 	N 	0.3832	0.0375	0.2287	-0.209
Mof_N 	N 	0.3624	0.1199	0.3089	-0.152
Mof_C 	C 	0.3603	0.0231	0.1935	0.018
Mof_H 	H 	0.3466	0.0412	0.1722	0.018
Mof_C 	C 	0.3862	0.1112	0.3518	-0.03
Mof_H 	H 	0.4167	0.1066	0.3557	0.02
Mof_C 	C 	0.3694	0.1629	0.3324	-0.013
Mof_H 	H 	0.3907	0.1848	0.3265	0.026
Mof_H 	H 	0.4162	0.9698	0.3049	0.153
Mof_H 	H 	0.3922	0.0154	0.314	0.163
Mof_H 	H 	0.4411	0.0148	0.2954	0.157
Mof_N 	N 	0.8832	0.4625	0.2713	-0.209
Mof_N 	N 	0.8624	0.3801	0.1911	-0.152
Mof_C 	C 	0.8603	0.4769	0.3065	-0.014
Mof_H 	H 	0.8466	0.4588	0.3278	0.023
Mof_C 	C 	0.8862	0.3888	0.1482	-0.032
Mof_H 	H 	0.9167	0.3934	0.1443	0.016
Mof_C 	C 	0.8694	0.3371	0.1676	-0.012
Mof_H 	H 	0.8907	0.3152	0.1735	0.025
Mof_H 	H 	0.9162	0.5302	0.1951	0.176
Mof_H 	H 	0.8922	0.4846	0.186	0.175
Mof_H 	H 	0.9411	0.4852	0.2046	0.166
Mof_N 	N 	0.3832	0.9625	0.7713	-0.208
Mof_N 	N 	0.3624	0.8801	0.6911	-0.151
Mof_C 	C 	0.3603	0.9769	0.8065	-0.046
Mof_H 	H 	0.3466	0.9588	0.8278	0.03
Mof_C 	C 	0.3862	0.8888	0.6482	-0.031
Mof_H 	H 	0.4167	0.8934	0.6443	0.018
Mof_C 	C 	0.3694	0.8371	0.6676	-0.013
Mof_H 	H 	0.3907	0.8152	0.6735	0.026
Mof_H 	H 	0.4162	0.0302	0.6951	0.142
Mof_H 	H 	0.3922	0.9846	0.686	0.13
Mof_H 	H 	0.4411	0.9852	0.7046	0.122
Mof_N 	N 	0.2713	0.4625	0.8832	-0.209
Mof_N 	N 	0.1911	0.3801	0.8624	-0.152
Mof_C 	C 	0.3065	0.4769	0.8603	-0.014
Mof_H 	H 	0.3278	0.4588	0.8466	0.023
Mof_C 	C 	0.1482	0.3888	0.8862	-0.032
Mof_H 	H 	0.1443	0.3934	0.9167	0.016
Mof_C 	C 	0.1676	0.3371	0.8694	-0.012
Mof_H 	H 	0.1735	0.3152	0.8907	0.025
Mof_H 	H 	0.1951	0.5302	0.9162	0.176
Mof_H 	H 	0.186	0.4846	0.8922	0.175
Mof_H 	H 	0.2046	0.4852	0.9411	0.166
Mof_N 	N 	0.7713	0.9625	0.3832	-0.208
Mof_N 	N 	0.6911	0.8801	0.3624	-0.151
Mof_C 	C 	0.8065	0.9769	0.3603	-0.046
Mof_H 	H 	0.8278	0.9588	0.3466	0.03
Mof_C 	C 	0.6482	0.8888	0.3862	-0.031
Mof_H 	H 	0.6443	0.8934	0.4167	0.018
Mof_C 	C 	0.6676	0.8371	0.3694	-0.013
Mof_H 	H 	0.6735	0.8152	0.3907	0.026
Mof_H 	H 	0.6951	0.0302	0.4162	0.142
Mof_H 	H 	0.686	0.9846	0.3922	0.13
Mof_H 	H 	0.7046	0.9852	0.4411	0.122
Mof_N 	N 	0.7287	0.5375	0.8832	-0.209
Mof_N 	N 	0.8089	0.6199	0.8624	-0.152
Mof_C 	C 	0.6935	0.5231	0.8603	-0.014
Mof_H 	H 	0.6722	0.5412	0.8466	0.023
Mof_C 	C 	0.8518	0.6112	0.8862	-0.033
Mof_H 	H 	0.8557	0.6066	0.9167	0.014
Mof_C 	C 	0.8324	0.6629	0.8694	-0.013
Mof_H 	H 	0.8265	0.6848	0.8907	0.022
Mof_H 	H 	0.8049	0.4698	0.9162	0.175
Mof_H 	H 	0.814	0.5154	0.8922	0.174
Mof_H 	H 	0.7954	0.5148	0.9411	0.165
Mof_N 	N 	0.2287	0.0375	0.3832	-0.209
Mof_N 	N 	0.3089	0.1199	0.3624	-0.152
Mof_C 	C 	0.1935	0.0231	0.3603	0.018
Mof_H 	H 	0.1722	0.0412	0.3466	0.018
Mof_C 	C 	0.3518	0.1112	0.3862	-0.03
Mof_H 	H 	0.3557	0.1066	0.4167	0.02
Mof_C 	C 	0.3324	0.1629	0.3694	-0.013
Mof_H 	H 	0.3265	0.1848	0.3907	0.026
Mof_H 	H 	0.3049	0.9698	0.4162	0.153
Mof_H 	H 	0.314	0.0154	0.3922	0.163
Mof_H 	H 	0.2954	0.0148	0.4411	0.157
Mof_N 	N 	0.7287	0.4625	0.1168	-0.211
Mof_N 	N 	0.8089	0.3801	0.1376	-0.152
Mof_C 	C 	0.6935	0.4769	0.1397	-0.013
Mof_H 	H 	0.6722	0.4588	0.1534	0.024
Mof_C 	C 	0.8518	0.3888	0.1138	-0.033
Mof_H 	H 	0.8557	0.3934	0.0833	0.018
Mof_C 	C 	0.8324	0.3371	0.1306	-0.012
Mof_H 	H 	0.8265	0.3152	0.1093	0.027
Mof_H 	H 	0.8049	0.5302	0.0838	0.182
Mof_H 	H 	0.814	0.4846	0.1078	0.181
Mof_H 	H 	0.7954	0.4852	0.0589	0.176
Mof_N 	N 	0.2287	0.9625	0.6168	-0.208
Mof_N 	N 	0.3089	0.8801	0.6376	-0.151
Mof_C 	C 	0.1935	0.9769	0.6397	-0.046
Mof_H 	H 	0.1722	0.9588	0.6534	0.031
Mof_C 	C 	0.3518	0.8888	0.6138	-0.031
Mof_H 	H 	0.3557	0.8934	0.5833	0.018
Mof_C 	C 	0.3324	0.8371	0.6306	-0.013
Mof_H 	H 	0.3265	0.8152	0.6093	0.026
Mof_H 	H 	0.3049	0.0302	0.5838	0.142
Mof_H 	H 	0.314	0.9846	0.6078	0.13
Mof_H 	H 	0.2954	0.9852	0.5589	0.122
Mof_N 	N 	0.2713	0.5375	0.1168	-0.211
Mof_N 	N 	0.1911	0.6199	0.1376	-0.152
Mof_C 	C 	0.3065	0.5231	0.1397	-0.013
Mof_H 	H 	0.3278	0.5412	0.1534	0.024
Mof_C 	C 	0.1482	0.6112	0.1138	-0.032
Mof_H 	H 	0.1443	0.6066	0.0833	0.02
Mof_C 	C 	0.1676	0.6629	0.1306	-0.011
Mof_H 	H 	0.1735	0.6848	0.1093	0.028
Mof_H 	H 	0.1951	0.4698	0.0838	0.184
Mof_H 	H 	0.186	0.5154	0.1078	0.182
Mof_H 	H 	0.2046	0.5148	0.0589	0.177
Mof_N 	N 	0.7713	0.0375	0.6168	-0.209
Mof_N 	N 	0.6911	0.1199	0.6376	-0.152
Mof_C 	C 	0.8065	0.0231	0.6397	0.017
Mof_H 	H 	0.8278	0.0412	0.6534	0.015
Mof_C 	C 	0.6482	0.1112	0.6138	-0.03
Mof_H 	H 	0.6443	0.1066	0.5833	0.02
Mof_C 	C 	0.6676	0.1629	0.6306	-0.013
Mof_H 	H 	0.6735	0.1848	0.6093	0.026
Mof_H 	H 	0.6951	0.9698	0.5838	0.153
Mof_H 	H 	0.686	0.0154	0.6078	0.163
Mof_H 	H 	0.7046	0.0148	0.5589	0.157
Mof_N 	N 	0.8832	0.2713	0.4625	-0.209
Mof_N 	N 	0.8624	0.1911	0.3801	-0.152
Mof_C 	C 	0.8603	0.3065	0.4769	-0.014
Mof_H 	H 	0.8466	0.3278	0.4588	0.023
Mof_C 	C 	0.8862	0.1482	0.3888	-0.032
Mof_H 	H 	0.9167	0.1443	0.3934	0.016
Mof_C 	C 	0.8694	0.1676	0.3371	-0.012
Mof_H 	H 	0.8907	0.1735	0.3152	0.025
Mof_H 	H 	0.9162	0.1951	0.5302	0.176
Mof_H 	H 	0.8922	0.186	0.4846	0.175
Mof_H 	H 	0.9411	0.2046	0.4852	0.166
Mof_N 	N 	0.3832	0.7713	0.9625	-0.208
Mof_N 	N 	0.3624	0.6911	0.8801	-0.151
Mof_C 	C 	0.3603	0.8065	0.9769	-0.046
Mof_H 	H 	0.3466	0.8278	0.9588	0.03
Mof_C 	C 	0.3862	0.6482	0.8888	-0.031
Mof_H 	H 	0.4167	0.6443	0.8934	0.018
Mof_C 	C 	0.3694	0.6676	0.8371	-0.013
Mof_H 	H 	0.3907	0.6735	0.8152	0.026
Mof_H 	H 	0.4162	0.6951	0.0302	0.142
Mof_H 	H 	0.3922	0.686	0.9846	0.13
Mof_H 	H 	0.4411	0.7046	0.9852	0.122
Mof_N 	N 	0.8832	0.7287	0.5375	-0.209
Mof_N 	N 	0.8624	0.8089	0.6199	-0.152
Mof_C 	C 	0.8603	0.6935	0.5231	-0.014
Mof_H 	H 	0.8466	0.6722	0.5412	0.023
Mof_C 	C 	0.8862	0.8518	0.6112	-0.033
Mof_H 	H 	0.9167	0.8557	0.6066	0.014
Mof_C 	C 	0.8694	0.8324	0.6629	-0.013
Mof_H 	H 	0.8907	0.8265	0.6848	0.022
Mof_H 	H 	0.9162	0.8049	0.4698	0.175
Mof_H 	H 	0.8922	0.814	0.5154	0.174
Mof_H 	H 	0.9411	0.7954	0.5148	0.165
Mof_N 	N 	0.3832	0.2287	0.0375	-0.209
Mof_N 	N 	0.3624	0.3089	0.1199	-0.152
Mof_C 	C 	0.3603	0.1935	0.0231	0.018
Mof_H 	H 	0.3466	0.1722	0.0412	0.018
Mof_C 	C 	0.3862	0.3518	0.1112	-0.03
Mof_H 	H 	0.4167	0.3557	0.1066	0.02
Mof_C 	C 	0.3694	0.3324	0.1629	-0.013
Mof_H 	H 	0.3907	0.3265	0.1848	0.026
Mof_H 	H 	0.4162	0.3049	0.9698	0.153
Mof_H 	H 	0.3922	0.314	0.0154	0.163
Mof_H 	H 	0.4411	0.2954	0.0148	0.157
Mof_N 	N 	0.1168	0.7287	0.4625	-0.211
Mof_N 	N 	0.1376	0.8089	0.3801	-0.152
Mof_C 	C 	0.1397	0.6935	0.4769	-0.013
Mof_H 	H 	0.1534	0.6722	0.4588	0.024
Mof_C 	C 	0.1138	0.8518	0.3888	-0.033
Mof_H 	H 	0.0833	0.8557	0.3934	0.018
Mof_C 	C 	0.1306	0.8324	0.3371	-0.012
Mof_H 	H 	0.1093	0.8265	0.3152	0.027
Mof_H 	H 	0.0838	0.8049	0.5302	0.182
Mof_H 	H 	0.1078	0.814	0.4846	0.181
Mof_H 	H 	0.0589	0.7954	0.4852	0.176
Mof_N 	N 	0.6168	0.2287	0.9625	-0.208
Mof_N 	N 	0.6376	0.3089	0.8801	-0.151
Mof_C 	C 	0.6397	0.1935	0.9769	-0.046
Mof_H 	H 	0.6534	0.1722	0.9588	0.031
Mof_C 	C 	0.6138	0.3518	0.8888	-0.031
Mof_H 	H 	0.5833	0.3557	0.8934	0.018
Mof_C 	C 	0.6306	0.3324	0.8371	-0.013
Mof_H 	H 	0.6093	0.3265	0.8152	0.026
Mof_H 	H 	0.5838	0.3049	0.0302	0.142
Mof_H 	H 	0.6078	0.314	0.9846	0.13
Mof_H 	H 	0.5589	0.2954	0.9852	0.122
Mof_N 	N 	0.1168	0.2713	0.5375	-0.211
Mof_N 	N 	0.1376	0.1911	0.6199	-0.152
Mof_C 	C 	0.1397	0.3065	0.5231	-0.013
Mof_H 	H 	0.1534	0.3278	0.5412	0.024
Mof_C 	C 	0.1138	0.1482	0.6112	-0.032
Mof_H 	H 	0.0833	0.1443	0.6066	0.02
Mof_C 	C 	0.1306	0.1676	0.6629	-0.011
Mof_H 	H 	0.1093	0.1735	0.6848	0.028
Mof_H 	H 	0.0838	0.1951	0.4698	0.184
Mof_H 	H 	0.1078	0.186	0.5154	0.182
Mof_H 	H 	0.0589	0.2046	0.5148	0.177
Mof_N 	N 	0.6168	0.7713	0.0375	-0.209
Mof_N 	N 	0.6376	0.6911	0.1199	-0.152
Mof_C 	C 	0.6397	0.8065	0.0231	0.017
Mof_H 	H 	0.6534	0.8278	0.0412	0.015
Mof_C 	C 	0.6138	0.6482	0.1112	-0.03
Mof_H 	H 	0.5833	0.6443	0.1066	0.02
Mof_C 	C 	0.6306	0.6676	0.1629	-0.013
Mof_H 	H 	0.6093	0.6735	0.1848	0.026
Mof_H 	H 	0.5838	0.6951	0.9698	0.153
Mof_H 	H 	0.6078	0.686	0.0154	0.163
Mof_H 	H 	0.5589	0.7046	0.0148	0.157
Mof_N 	N 	0.4625	0.8832	0.2713	-0.209
Mof_N 	N 	0.3801	0.8624	0.1911	-0.152
Mof_C 	C 	0.4769	0.8603	0.3065	-0.014
Mof_H 	H 	0.4588	0.8466	0.3278	0.023
Mof_C 	C 	0.3888	0.8862	0.1482	-0.032
Mof_H 	H 	0.3934	0.9167	0.1443	0.016
Mof_C 	C 	0.3371	0.8694	0.1676	-0.012
Mof_H 	H 	0.3152	0.8907	0.1735	0.025
Mof_H 	H 	0.5302	0.9162	0.1951	0.176
Mof_H 	H 	0.4846	0.8922	0.186	0.175
Mof_H 	H 	0.4852	0.9411	0.2046	0.166
Mof_N 	N 	0.9625	0.3832	0.7713	-0.208
Mof_N 	N 	0.8801	0.3624	0.6911	-0.151
Mof_C 	C 	0.9769	0.3603	0.8065	-0.046
Mof_H 	H 	0.9588	0.3466	0.8278	0.03
Mof_C 	C 	0.8888	0.3862	0.6482	-0.031
Mof_H 	H 	0.8934	0.4167	0.6443	0.018
Mof_C 	C 	0.8371	0.3694	0.6676	-0.013
Mof_H 	H 	0.8152	0.3907	0.6735	0.026
Mof_H 	H 	0.0302	0.4162	0.6951	0.142
Mof_H 	H 	0.9846	0.3922	0.686	0.13
Mof_H 	H 	0.9852	0.4411	0.7046	0.122
Mof_N 	N 	0.5375	0.8832	0.7287	-0.209
Mof_N 	N 	0.6199	0.8624	0.8089	-0.152
Mof_C 	C 	0.5231	0.8603	0.6935	-0.014
Mof_H 	H 	0.5412	0.8466	0.6722	0.023
Mof_C 	C 	0.6112	0.8862	0.8518	-0.033
Mof_H 	H 	0.6066	0.9167	0.8557	0.014
Mof_C 	C 	0.6629	0.8694	0.8324	-0.013
Mof_H 	H 	0.6848	0.8907	0.8265	0.022
Mof_H 	H 	0.4698	0.9162	0.8049	0.175
Mof_H 	H 	0.5154	0.8922	0.814	0.174
Mof_H 	H 	0.5148	0.9411	0.7954	0.165
Mof_N 	N 	0.0375	0.3832	0.2287	-0.209
Mof_N 	N 	0.1199	0.3624	0.3089	-0.152
Mof_C 	C 	0.0231	0.3603	0.1935	0.018
Mof_H 	H 	0.0412	0.3466	0.1722	0.018
Mof_C 	C 	0.1112	0.3862	0.3518	-0.03
Mof_H 	H 	0.1066	0.4167	0.3557	0.02
Mof_C 	C 	0.1629	0.3694	0.3324	-0.013
Mof_H 	H 	0.1848	0.3907	0.3265	0.026
Mof_H 	H 	0.9698	0.4162	0.3049	0.153
Mof_H 	H 	0.0154	0.3922	0.314	0.163
Mof_H 	H 	0.0148	0.4411	0.2954	0.157
Mof_N 	N 	0.4625	0.1168	0.7287	-0.211
Mof_N 	N 	0.3801	0.1376	0.8089	-0.152
Mof_C 	C 	0.4769	0.1397	0.6935	-0.013
Mof_H 	H 	0.4588	0.1534	0.6722	0.024
Mof_C 	C 	0.3888	0.1138	0.8518	-0.033
Mof_H 	H 	0.3934	0.0833	0.8557	0.018
Mof_C 	C 	0.3371	0.1306	0.8324	-0.012
Mof_H 	H 	0.3152	0.1093	0.8265	0.027
Mof_H 	H 	0.5302	0.0838	0.8049	0.182
Mof_H 	H 	0.4846	0.1078	0.814	0.181
Mof_H 	H 	0.4852	0.0589	0.7954	0.176
Mof_N 	N 	0.9625	0.6168	0.2287	-0.208
Mof_N 	N 	0.8801	0.6376	0.3089	-0.151
Mof_C 	C 	0.9769	0.6397	0.1935	-0.046
Mof_H 	H 	0.9588	0.6534	0.1722	0.031
Mof_C 	C 	0.8888	0.6138	0.3518	-0.031
Mof_H 	H 	0.8934	0.5833	0.3557	0.018
Mof_C 	C 	0.8371	0.6306	0.3324	-0.013
Mof_H 	H 	0.8152	0.6093	0.3265	0.026
Mof_H 	H 	0.0302	0.5838	0.3049	0.142
Mof_H 	H 	0.9846	0.6078	0.314	0.13
Mof_H 	H 	0.9852	0.5589	0.2954	0.122
Mof_N 	N 	0.5375	0.1168	0.2713	-0.211
Mof_N 	N 	0.6199	0.1376	0.1911	-0.152
Mof_C 	C 	0.5231	0.1397	0.3065	-0.013
Mof_H 	H 	0.5412	0.1534	0.3278	0.024
Mof_C 	C 	0.6112	0.1138	0.1482	-0.032
Mof_H 	H 	0.6066	0.0833	0.1443	0.02
Mof_C 	C 	0.6629	0.1306	0.1676	-0.011
Mof_H 	H 	0.6848	0.1093	0.1735	0.028
Mof_H 	H 	0.4698	0.0838	0.1951	0.184
Mof_H 	H 	0.5154	0.1078	0.186	0.182
Mof_H 	H 	0.5148	0.0589	0.2046	0.177
Mof_N 	N 	0.0375	0.6168	0.7713	-0.209
Mof_N 	N 	0.1199	0.6376	0.6911	-0.152
Mof_C 	C 	0.0231	0.6397	0.8065	0.017
Mof_H 	H 	0.0412	0.6534	0.8278	0.015
Mof_C 	C 	0.1112	0.6138	0.6482	-0.03
Mof_H 	H 	0.1066	0.5833	0.6443	0.02
Mof_C 	C 	0.1629	0.6306	0.6676	-0.013
Mof_H 	H 	0.1848	0.6093	0.6735	0.026
Mof_H 	H 	0.9698	0.5838	0.6951	0.153
Mof_H 	H 	0.0154	0.6078	0.686	0.163
Mof_H 	H 	0.0148	0.5589	0.7046	0.157
Mof_N 	N 	0.4625	0.2713	0.1168	-0.211
Mof_N 	N 	0.3801	0.1911	0.1376	-0.152
Mof_C 	C 	0.4769	0.3065	0.1397	-0.013
Mof_H 	H 	0.4588	0.3278	0.1534	0.024
Mof_C 	C 	0.3888	0.1482	0.1138	-0.032
Mof_H 	H 	0.3934	0.1443	0.0833	0.02
Mof_C 	C 	0.3371	0.1676	0.1306	-0.011
Mof_H 	H 	0.3152	0.1735	0.1093	0.029
Mof_H 	H 	0.5302	0.1951	0.0838	0.184
Mof_H 	H 	0.4846	0.186	0.1078	0.182
Mof_H 	H 	0.4852	0.2046	0.0589	0.177
Mof_N 	N 	0.9625	0.7713	0.6168	-0.208
Mof_N 	N 	0.8801	0.6911	0.6376	-0.151
Mof_C 	C 	0.9769	0.8065	0.6397	-0.047
Mof_H 	H 	0.9588	0.8278	0.6534	0.029
Mof_C 	C 	0.8888	0.6482	0.6138	-0.031
Mof_H 	H 	0.8934	0.6443	0.5833	0.018
Mof_C 	C 	0.8371	0.6676	0.6306	-0.013
Mof_H 	H 	0.8152	0.6735	0.6093	0.026
Mof_H 	H 	0.0302	0.6951	0.5838	0.142
Mof_H 	H 	0.9846	0.686	0.6078	0.13
Mof_H 	H 	0.9852	0.7046	0.5589	0.122
Mof_N 	N 	0.5375	0.7287	0.1168	-0.211
Mof_N 	N 	0.6199	0.8089	0.1376	-0.152
Mof_C 	C 	0.5231	0.6935	0.1397	-0.013
Mof_H 	H 	0.5412	0.6722	0.1534	0.024
Mof_C 	C 	0.6112	0.8518	0.1138	-0.033
Mof_H 	H 	0.6066	0.8557	0.0833	0.018
Mof_C 	C 	0.6629	0.8324	0.1306	-0.012
Mof_H 	H 	0.6848	0.8265	0.1093	0.026
Mof_H 	H 	0.4698	0.8049	0.0838	0.182
Mof_H 	H 	0.5154	0.814	0.1078	0.181
Mof_H 	H 	0.5148	0.7954	0.0589	0.176
Mof_N 	N 	0.0375	0.2287	0.6168	-0.209
Mof_N 	N 	0.1199	0.3089	0.6376	-0.152
Mof_C 	C 	0.0231	0.1935	0.6397	0.018
Mof_H 	H 	0.0412	0.1722	0.6534	0.017
Mof_C 	C 	0.1112	0.3518	0.6138	-0.03
Mof_H 	H 	0.1066	0.3557	0.5833	0.02
Mof_C 	C 	0.1629	0.3324	0.6306	-0.013
Mof_H 	H 	0.1848	0.3265	0.6093	0.026
Mof_H 	H 	0.9698	0.3049	0.5838	0.153
Mof_H 	H 	0.0154	0.314	0.6078	0.163
Mof_H 	H 	0.0148	0.2954	0.5589	0.157
Mof_N 	N 	0.4625	0.7287	0.8832	-0.209
Mof_N 	N 	0.3801	0.8089	0.8624	-0.152
Mof_C 	C 	0.4769	0.6935	0.8603	-0.014
Mof_H 	H 	0.4588	0.6722	0.8466	0.023
Mof_C 	C 	0.3888	0.8518	0.8862	-0.033
Mof_H 	H 	0.3934	0.8557	0.9167	0.014
Mof_C 	C 	0.3371	0.8324	0.8694	-0.013
Mof_H 	H 	0.3152	0.8265	0.8907	0.023
Mof_H 	H 	0.5302	0.8049	0.9162	0.175
Mof_H 	H 	0.4846	0.814	0.8922	0.174
Mof_H 	H 	0.4852	0.7954	0.9411	0.165
Mof_N 	N 	0.9625	0.2287	0.3832	-0.208
Mof_N 	N 	0.8801	0.3089	0.3624	-0.151
Mof_C 	C 	0.9769	0.1935	0.3603	-0.046
Mof_H 	H 	0.9588	0.1722	0.3466	0.031
Mof_C 	C 	0.8888	0.3518	0.3862	-0.031
Mof_H 	H 	0.8934	0.3557	0.4167	0.018
Mof_C 	C 	0.8371	0.3324	0.3694	-0.013
Mof_H 	H 	0.8152	0.3265	0.3907	0.026
Mof_H 	H 	0.0302	0.3049	0.4162	0.142
Mof_H 	H 	0.9846	0.314	0.3922	0.13
Mof_H 	H 	0.9852	0.2954	0.4411	0.122
Mof_N 	N 	0.5375	0.2713	0.8832	-0.209
Mof_N 	N 	0.6199	0.1911	0.8624	-0.152
Mof_C 	C 	0.5231	0.3065	0.8603	-0.014
Mof_H 	H 	0.5412	0.3278	0.8466	0.023
Mof_C 	C 	0.6112	0.1482	0.8862	-0.032
Mof_H 	H 	0.6066	0.1443	0.9167	0.016
Mof_C 	C 	0.6629	0.1676	0.8694	-0.012
Mof_H 	H 	0.6848	0.1735	0.8907	0.024
Mof_H 	H 	0.4698	0.1951	0.9162	0.176
Mof_H 	H 	0.5154	0.186	0.8922	0.175
Mof_H 	H 	0.5148	0.2046	0.9411	0.166
Mof_N 	N 	0.0375	0.7713	0.3832	-0.209
Mof_N 	N 	0.1199	0.6911	0.3624	-0.152
Mof_C 	C 	0.0231	0.8065	0.3603	0.018
Mof_H 	H 	0.0412	0.8278	0.3466	0.016
Mof_C 	C 	0.1112	0.6482	0.3862	-0.03
Mof_H 	H 	0.1066	0.6443	0.4167	0.02
Mof_C 	C 	0.1629	0.6676	0.3694	-0.013
Mof_H 	H 	0.1848	0.6735	0.3907	0.026
Mof_H 	H 	0.9698	0.6951	0.4162	0.153
Mof_H 	H 	0.0154	0.686	0.3922	0.163
Mof_H 	H 	0.0148	0.7046	0.4411	0.157
Mof_N 	N 	0.2713	0.8832	0.5375	-0.209
Mof_N 	N 	0.1911	0.8624	0.6199	-0.152
Mof_C 	C 	0.3065	0.8603	0.5231	-0.014
Mof_H 	H 	0.3278	0.8466	0.5412	0.023
Mof_C 	C 	0.1482	0.8862	0.6112	-0.032
Mof_H 	H 	0.1443	0.9167	0.6066	0.016
Mof_C 	C 	0.1676	0.8694	0.6629	-0.012
Mof_H 	H 	0.1735	0.8907	0.6848	0.024
Mof_H 	H 	0.1951	0.9162	0.4698	0.176
Mof_H 	H 	0.186	0.8922	0.5154	0.175
Mof_H 	H 	0.2046	0.9411	0.5148	0.166
Mof_N 	N 	0.7713	0.3832	0.0375	-0.209
Mof_N 	N 	0.6911	0.3624	0.1199	-0.152
Mof_C 	C 	0.8065	0.3603	0.0231	0.018
Mof_H 	H 	0.8278	0.3466	0.0412	0.016
Mof_C 	C 	0.6482	0.3862	0.1112	-0.03
Mof_H 	H 	0.6443	0.4167	0.1066	0.02
Mof_C 	C 	0.6676	0.3694	0.1629	-0.013
Mof_H 	H 	0.6735	0.3907	0.1848	0.026
Mof_H 	H 	0.6951	0.4162	0.9698	0.153
Mof_H 	H 	0.686	0.3922	0.0154	0.163
Mof_H 	H 	0.7046	0.4411	0.0148	0.157
Mof_N 	N 	0.7287	0.8832	0.4625	-0.209
Mof_N 	N 	0.8089	0.8624	0.3801	-0.152
Mof_C 	C 	0.6935	0.8603	0.4769	-0.014
Mof_H 	H 	0.6722	0.8466	0.4588	0.023
Mof_C 	C 	0.8518	0.8862	0.3888	-0.033
Mof_H 	H 	0.8557	0.9167	0.3934	0.014
Mof_C 	C 	0.8324	0.8694	0.3371	-0.013
Mof_H 	H 	0.8265	0.8907	0.3152	0.023
Mof_H 	H 	0.8049	0.9162	0.5302	0.175
Mof_H 	H 	0.814	0.8922	0.4846	0.174
Mof_H 	H 	0.7954	0.9411	0.4852	0.165
Mof_N 	N 	0.2287	0.3832	0.9625	-0.208
Mof_N 	N 	0.3089	0.3624	0.8801	-0.151
Mof_C 	C 	0.1935	0.3603	0.9769	-0.046
Mof_H 	H 	0.1722	0.3466	0.9588	0.031
Mof_C 	C 	0.3518	0.3862	0.8888	-0.031
Mof_H 	H 	0.3557	0.4167	0.8934	0.018
Mof_C 	C 	0.3324	0.3694	0.8371	-0.013
Mof_H 	H 	0.3265	0.3907	0.8152	0.026
Mof_H 	H 	0.3049	0.4162	0.0302	0.142
Mof_H 	H 	0.314	0.3922	0.9846	0.13
Mof_H 	H 	0.2954	0.4411	0.9852	0.122
Mof_N 	N 	0.7287	0.1168	0.5375	-0.211
Mof_N 	N 	0.8089	0.1376	0.6199	-0.152
Mof_C 	C 	0.6935	0.1397	0.5231	-0.013
Mof_H 	H 	0.6722	0.1534	0.5412	0.024
Mof_C 	C 	0.8518	0.1138	0.6112	-0.033
Mof_H 	H 	0.8557	0.0833	0.6066	0.018
Mof_C 	C 	0.8324	0.1306	0.6629	-0.012
Mof_H 	H 	0.8265	0.1093	0.6848	0.026
Mof_H 	H 	0.8049	0.0838	0.4698	0.182
Mof_H 	H 	0.814	0.1078	0.5154	0.181
Mof_H 	H 	0.7954	0.0589	0.5148	0.176
Mof_N 	N 	0.2287	0.6168	0.0375	-0.209
Mof_N 	N 	0.3089	0.6376	0.1199	-0.152
Mof_C 	C 	0.1935	0.6397	0.0231	0.018
Mof_H 	H 	0.1722	0.6534	0.0412	0.017
Mof_C 	C 	0.3518	0.6138	0.1112	-0.03
Mof_H 	H 	0.3557	0.5833	0.1066	0.02
Mof_C 	C 	0.3324	0.6306	0.1629	-0.013
Mof_H 	H 	0.3265	0.6093	0.1848	0.026
Mof_H 	H 	0.3049	0.5838	0.9698	0.153
Mof_H 	H 	0.314	0.6078	0.0154	0.163
Mof_H 	H 	0.2954	0.5589	0.0148	0.157
Mof_N 	N 	0.2713	0.1168	0.4625	-0.211
Mof_N 	N 	0.1911	0.1376	0.3801	-0.152
Mof_C 	C 	0.3065	0.1397	0.4769	-0.013
Mof_H 	H 	0.3278	0.1534	0.4588	0.024
Mof_C 	C 	0.1482	0.1138	0.3888	-0.032
Mof_H 	H 	0.1443	0.0833	0.3934	0.02
Mof_C 	C 	0.1676	0.1306	0.3371	-0.011
Mof_H 	H 	0.1735	0.1093	0.3152	0.029
Mof_H 	H 	0.1951	0.0838	0.5302	0.184
Mof_H 	H 	0.186	0.1078	0.4846	0.182
Mof_H 	H 	0.2046	0.0589	0.4852	0.177
Mof_N 	N 	0.7713	0.6168	0.9625	-0.208
Mof_N 	N 	0.6911	0.6376	0.8801	-0.151
Mof_C 	C 	0.8065	0.6397	0.9769	-0.047
Mof_H 	H 	0.8278	0.6534	0.9588	0.029
Mof_C 	C 	0.6482	0.6138	0.8888	-0.031
Mof_H 	H 	0.6443	0.5833	0.8934	0.018
Mof_C 	C 	0.6676	0.6306	0.8371	-0.013
Mof_H 	H 	0.6735	0.6093	0.8152	0.026
Mof_H 	H 	0.6951	0.5838	0.0302	0.142
Mof_H 	H 	0.686	0.6078	0.9846	0.13
Mof_H 	H 	0.7046	0.5589	0.9852	0.122
Mof_N 	N 	0.8832	0.4625	0.7287	-0.209
Mof_N 	N 	0.8624	0.3801	0.8089	-0.152
Mof_C 	C 	0.8603	0.4769	0.6935	-0.014
Mof_H 	H 	0.8466	0.4588	0.6722	0.023
Mof_C 	C 	0.8862	0.3888	0.8518	-0.033
Mof_H 	H 	0.9167	0.3934	0.8557	0.014
Mof_C 	C 	0.8694	0.3371	0.8324	-0.013
Mof_H 	H 	0.8907	0.3152	0.8265	0.023
Mof_H 	H 	0.9162	0.5302	0.8049	0.175
Mof_H 	H 	0.8922	0.4846	0.814	0.174
Mof_H 	H 	0.9411	0.4852	0.7954	0.165
Mof_N 	N 	0.3832	0.9625	0.2287	-0.208
Mof_N 	N 	0.3624	0.8801	0.3089	-0.151
Mof_C 	C 	0.3603	0.9769	0.1935	-0.046
Mof_H 	H 	0.3466	0.9588	0.1722	0.031
Mof_C 	C 	0.3862	0.8888	0.3518	-0.031
Mof_H 	H 	0.4167	0.8934	0.3557	0.018
Mof_C 	C 	0.3694	0.8371	0.3324	-0.013
Mof_H 	H 	0.3907	0.8152	0.3265	0.026
Mof_H 	H 	0.4162	0.0302	0.3049	0.142
Mof_H 	H 	0.3922	0.9846	0.314	0.13
Mof_H 	H 	0.4411	0.9852	0.2954	0.122
Mof_N 	N 	0.8832	0.5375	0.2713	-0.209
Mof_N 	N 	0.8624	0.6199	0.1911	-0.152
Mof_C 	C 	0.8603	0.5231	0.3065	-0.014
Mof_H 	H 	0.8466	0.5412	0.3278	0.023
Mof_C 	C 	0.8862	0.6112	0.1482	-0.032
Mof_H 	H 	0.9167	0.6066	0.1443	0.016
Mof_C 	C 	0.8694	0.6629	0.1676	-0.012
Mof_H 	H 	0.8907	0.6848	0.1735	0.024
Mof_H 	H 	0.9162	0.4698	0.1951	0.176
Mof_H 	H 	0.8922	0.5154	0.186	0.175
Mof_H 	H 	0.9411	0.5148	0.2046	0.166
Mof_N 	N 	0.3832	0.0375	0.7713	-0.209
Mof_N 	N 	0.3624	0.1199	0.6911	-0.152
Mof_C 	C 	0.3603	0.0231	0.8065	0.018
Mof_H 	H 	0.3466	0.0412	0.8278	0.016
Mof_C 	C 	0.3862	0.1112	0.6482	-0.03
Mof_H 	H 	0.4167	0.1066	0.6443	0.02
Mof_C 	C 	0.3694	0.1629	0.6676	-0.013
Mof_H 	H 	0.3907	0.1848	0.6735	0.026
Mof_H 	H 	0.4162	0.9698	0.6951	0.153
Mof_H 	H 	0.3922	0.0154	0.686	0.163
Mof_H 	H 	0.4411	0.0148	0.7046	0.157
Mof_N 	N 	0.1168	0.4625	0.2713	-0.211
Mof_N 	N 	0.1376	0.3801	0.1911	-0.152
Mof_C 	C 	0.1397	0.4769	0.3065	-0.013
Mof_H 	H 	0.1534	0.4588	0.3278	0.024
Mof_C 	C 	0.1138	0.3888	0.1482	-0.032
Mof_H 	H 	0.0833	0.3934	0.1443	0.02
Mof_C 	C 	0.1306	0.3371	0.1676	-0.011
Mof_H 	H 	0.1093	0.3152	0.1735	0.029
Mof_H 	H 	0.0838	0.5302	0.1951	0.184
Mof_H 	H 	0.1078	0.4846	0.186	0.182
Mof_H 	H 	0.0589	0.4852	0.2046	0.177
Mof_N 	N 	0.6168	0.9625	0.7713	-0.208
Mof_N 	N 	0.6376	0.8801	0.6911	-0.151
Mof_C 	C 	0.6397	0.9769	0.8065	-0.047
Mof_H 	H 	0.6534	0.9588	0.8278	0.029
Mof_C 	C 	0.6138	0.8888	0.6482	-0.031
Mof_H 	H 	0.5833	0.8934	0.6443	0.018
Mof_C 	C 	0.6306	0.8371	0.6676	-0.013
Mof_H 	H 	0.6093	0.8152	0.6735	0.026
Mof_H 	H 	0.5838	0.0302	0.6951	0.142
Mof_H 	H 	0.6078	0.9846	0.686	0.13
Mof_H 	H 	0.5589	0.9852	0.7046	0.122
Mof_N 	N 	0.1168	0.5375	0.7287	-0.211
Mof_N 	N 	0.1376	0.6199	0.8089	-0.152
Mof_C 	C 	0.1397	0.5231	0.6935	-0.013
Mof_H 	H 	0.1534	0.5412	0.6722	0.024
Mof_C 	C 	0.1138	0.6112	0.8518	-0.033
Mof_H 	H 	0.0833	0.6066	0.8557	0.018
Mof_C 	C 	0.1306	0.6629	0.8324	-0.012
Mof_H 	H 	0.1093	0.6848	0.8265	0.026
Mof_H 	H 	0.0838	0.4698	0.8049	0.182
Mof_H 	H 	0.1078	0.5154	0.814	0.181
Mof_H 	H 	0.0589	0.5148	0.7954	0.176
Mof_N 	N 	0.6168	0.0375	0.2287	-0.209
Mof_N 	N 	0.6376	0.1199	0.3089	-0.152
Mof_C 	C 	0.6397	0.0231	0.1935	0.018
Mof_H 	H 	0.6534	0.0412	0.1722	0.017
Mof_C 	C 	0.6138	0.1112	0.3518	-0.03
Mof_H 	H 	0.5833	0.1066	0.3557	0.02
Mof_C 	C 	0.6306	0.1629	0.3324	-0.013
Mof_H 	H 	0.6093	0.1848	0.3265	0.026
Mof_H 	H 	0.5838	0.9698	0.3049	0.153
Mof_H 	H 	0.6078	0.0154	0.314	0.163
Mof_H 	H 	0.5589	0.0148	0.2954	0.157
Mof_Cd	Cd	0.75	0.60413	0.10413	0.334
Mof_Cd	Cd	0.25	0.39587	0.10413	0.334
Mof_Cd	Cd	0.25	0.60413	0.89587	0.331
Mof_Cd	Cd	0.75	0.39587	0.89587	0.331
Mof_Cd	Cd	0.10413	0.75	0.60413	0.334
Mof_Cd	Cd	0.10413	0.25	0.39587	0.334
Mof_Cd	Cd	0.89587	0.25	0.60413	0.331
Mof_Cd	Cd	0.89587	0.75	0.39587	0.331
Mof_Cd	Cd	0.60413	0.10413	0.75	0.334
Mof_Cd	Cd	0.39587	0.10413	0.25	0.334
Mof_Cd	Cd	0.60413	0.89587	0.25	0.331
Mof_Cd	Cd	0.39587	0.89587	0.75	0.331
Mof_Cd	Cd	0.60413	0.75	0.89587	0.331
Mof_Cd	Cd	0.39587	0.25	0.89587	0.332
Mof_Cd	Cd	0.60413	0.25	0.10413	0.334
Mof_Cd	Cd	0.39587	0.75	0.10413	0.334
Mof_Cd	Cd	0.75	0.10413	0.39587	0.334
Mof_Cd	Cd	0.25	0.10413	0.60413	0.334
Mof_Cd	Cd	0.25	0.89587	0.39587	0.332
Mof_Cd	Cd	0.75	0.89587	0.60413	0.331
Mof_Cd	Cd	0.10413	0.60413	0.25	0.334
Mof_Cd	Cd	0.10413	0.39587	0.75	0.334
Mof_Cd	Cd	0.89587	0.60413	0.75	0.331
Mof_Cd	Cd	0.89587	0.39587	0.25	0.332
Mof_Cd	Cd	0.25	0.39587	0.89587	0.332
Mof_Cd	Cd	0.75	0.60413	0.89587	0.331
Mof_Cd	Cd	0.75	0.39587	0.10413	0.334
Mof_Cd	Cd	0.25	0.60413	0.10413	0.334
Mof_Cd	Cd	0.89587	0.25	0.39587	0.332
Mof_Cd	Cd	0.89587	0.75	0.60413	0.331
Mof_Cd	Cd	0.10413	0.75	0.39587	0.334
Mof_Cd	Cd	0.10413	0.25	0.60413	0.334
Mof_Cd	Cd	0.39587	0.89587	0.25	0.332
Mof_Cd	Cd	0.60413	0.89587	0.75	0.331
Mof_Cd	Cd	0.39587	0.10413	0.75	0.334
Mof_Cd	Cd	0.60413	0.10413	0.25	0.334
Mof_Cd	Cd	0.39587	0.25	0.10413	0.334
Mof_Cd	Cd	0.60413	0.75	0.10413	0.334
Mof_Cd	Cd	0.39587	0.75	0.89587	0.331
Mof_Cd	Cd	0.60413	0.25	0.89587	0.331
Mof_Cd	Cd	0.25	0.89587	0.60413	0.331
Mof_Cd	Cd	0.75	0.89587	0.39587	0.331
Mof_Cd	Cd	0.75	0.10413	0.60413	0.334
Mof_Cd	Cd	0.25	0.10413	0.39587	0.334
Mof_Cd	Cd	0.89587	0.39587	0.75	0.331
Mof_Cd	Cd	0.89587	0.60413	0.25	0.331
Mof_Cd	Cd	0.10413	0.39587	0.25	0.334
Mof_Cd	Cd	0.10413	0.60413	0.75	0.334
Mof_C 	C 	0.748	0.5	0.1052	0.327
Mof_C 	C 	0.7948	0.5	0.0873	-1.078
Mof_C 	C 	0.248	0	0.6052	0.298
Mof_C 	C 	0.2948	7.08012e-33	0.5873	-0.876
Mof_C 	C 	0.252	0.5	0.1052	0.328
Mof_C 	C 	0.2052	0.5	0.0873	-1.084
Mof_C 	C 	0.752	0	0.6052	0.298
Mof_C 	C 	0.7052	7.08012e-33	0.5873	-0.876
Mof_C 	C 	0.252	0.5	0.8948	0.317
Mof_C 	C 	0.2052	0.5	0.9127	-1.046
Mof_C 	C 	0.752	0	0.3948	0.298
Mof_C 	C 	0.7052	0	0.4127	-0.876
Mof_C 	C 	0.748	0.5	0.8948	0.316
Mof_C 	C 	0.7948	0.5	0.9127	-1.04
Mof_C 	C 	0.248	0	0.3948	0.298
Mof_C 	C 	0.2948	0	0.4127	-0.876
Mof_C 	C 	0.1052	0.748	0.5	0.327
Mof_C 	C 	0.0873	0.7948	0.5	-1.078
Mof_C 	C 	0.6052	0.248	-0	0.298
Mof_C 	C 	0.5873	0.2948	-0	-0.876
Mof_C 	C 	0.1052	0.252	0.5	0.328
Mof_C 	C 	0.0873	0.2052	0.5	-1.084
Mof_C 	C 	0.6052	0.752	-0	0.298
Mof_C 	C 	0.5873	0.7052	-0	-0.876
Mof_C 	C 	0.8948	0.252	0.5	0.317
Mof_C 	C 	0.9127	0.2052	0.5	-1.046
Mof_C 	C 	0.3948	0.752	-0	0.298
Mof_C 	C 	0.4127	0.7052	-0	-0.876
Mof_C 	C 	0.8948	0.748	0.5	0.316
Mof_C 	C 	0.9127	0.7948	0.5	-1.04
Mof_C 	C 	0.3948	0.248	-0	0.298
Mof_C 	C 	0.4127	0.2948	-0	-0.876
Mof_C 	C 	0.5	0.1052	0.748	0.327
Mof_C 	C 	0.5	0.0873	0.7948	-1.078
Mof_C 	C 	8.00997e-33	0.6052	0.248	0.298
Mof_C 	C 	8.18544e-33	0.5873	0.2948	-0.876
Mof_C 	C 	0.5	0.1052	0.252	0.328
Mof_C 	C 	0.5	0.0873	0.2052	-1.084
Mof_C 	C 	2.81955e-33	0.6052	0.752	0.298
Mof_C 	C 	9.72419e-33	0.5873	0.7052	-0.876
Mof_C 	C 	0.5	0.8948	0.252	0.317
Mof_C 	C 	0.5	0.9127	0.2052	-1.046
Mof_C 	C 	2.81955e-33	0.3948	0.752	0.298
Mof_C 	C 	-4.43604e-33	0.4127	0.7052	-0.876
Mof_C 	C 	0.5	0.8948	0.748	0.316
Mof_C 	C 	0.5	0.9127	0.7948	-1.04
Mof_C 	C 	4.46991e-33	0.3948	0.248	0.298
Mof_C 	C 	8.18544e-33	0.4127	0.2948	-0.876
Mof_C 	C 	0.5	0.748	0.8948	0.316
Mof_C 	C 	0.5	0.7948	0.9127	-1.04
Mof_C 	C 	5.02032e-33	0.248	0.3948	0.298
Mof_C 	C 	8.62749e-33	0.2948	0.4127	-0.876
Mof_C 	C 	0.5	0.252	0.8948	0.317
Mof_C 	C 	0.5	0.2052	0.9127	-1.046
Mof_C 	C 	5.02032e-33	0.752	0.3948	0.298
Mof_C 	C 	-5.53274e-33	0.7052	0.4127	-0.876
Mof_C 	C 	0.5	0.252	0.1052	0.328
Mof_C 	C 	0.5	0.2052	0.0873	-1.084
Mof_C 	C 	2.26914e-33	0.752	0.6052	0.298
Mof_C 	C 	9.28214e-33	0.7052	0.5873	-0.876
Mof_C 	C 	0.5	0.748	0.1052	0.327
Mof_C 	C 	0.5	0.7948	0.0873	-1.078
Mof_C 	C 	9.34925e-33	0.248	0.6052	0.298
Mof_C 	C 	2.20202e-33	0.2948	0.5873	-0.876
Mof_C 	C 	0.748	0.1052	0.5	0.327
Mof_C 	C 	0.7948	0.0873	0.5	-1.078
Mof_C 	C 	0.248	0.6052	-0	0.298
Mof_C 	C 	0.2948	0.5873	-0	-0.876
Mof_C 	C 	0.252	0.1052	0.5	0.328
Mof_C 	C 	0.2052	0.0873	0.5	-1.084
Mof_C 	C 	0.752	0.6052	-0	0.298
Mof_C 	C 	0.7052	0.5873	-0	-0.876
Mof_C 	C 	0.252	0.8948	0.5	0.317
Mof_C 	C 	0.2052	0.9127	0.5	-1.046
Mof_C 	C 	0.752	0.3948	-0	0.298
Mof_C 	C 	0.7052	0.4127	-0	-0.876
Mof_C 	C 	0.748	0.8948	0.5	0.316
Mof_C 	C 	0.7948	0.9127	0.5	-1.04
Mof_C 	C 	0.248	0.3948	-0	0.298
Mof_C 	C 	0.2948	0.4127	-0	-0.876
Mof_C 	C 	0.1052	0.5	0.252	0.328
Mof_C 	C 	0.0873	0.5	0.2052	-1.084
Mof_C 	C 	0.6052	7.08012e-33	0.752	0.298
Mof_C 	C 	0.5873	0	0.7052	-0.876
Mof_C 	C 	0.1052	0.5	0.748	0.327
Mof_C 	C 	0.0873	0.5	0.7948	-1.078
Mof_C 	C 	0.6052	0	0.248	0.298
Mof_C 	C 	0.5873	0	0.2948	-0.876
Mof_C 	C 	0.8948	0.5	0.748	0.316
Mof_C 	C 	0.9127	0.5	0.7948	-1.04
Mof_C 	C 	0.3948	0	0.248	0.298
Mof_C 	C 	0.4127	0	0.2948	-0.876
Mof_C 	C 	0.8948	0.5	0.252	0.317
Mof_C 	C 	0.9127	0.5	0.2052	-1.046
Mof_C 	C 	0.3948	7.08012e-33	0.752	0.298
Mof_C 	C 	0.4127	0	0.7052	-0.876
Mof_C 	C 	0.8216	0.6087	0.1784	0.068
Mof_C 	C 	0.3216	0.1087	0.6784	0.072
Mof_C 	C 	0.1784	0.3913	0.1784	0.068
Mof_C 	C 	0.6784	0.8913	0.6784	0.067
Mof_C 	C 	0.1784	0.6087	0.8216	0.068
Mof_C 	C 	0.6784	0.1087	0.3216	0.072
Mof_C 	C 	0.8216	0.3913	0.8216	0.068
Mof_C 	C 	0.3216	0.8913	0.3216	0.068
Mof_C 	C 	0.1784	0.8216	0.6087	0.068
Mof_C 	C 	0.6784	0.3216	0.1087	0.072
Mof_C 	C 	0.1784	0.1784	0.3913	0.068
Mof_C 	C 	0.6784	0.6784	0.8913	0.067
Mof_C 	C 	0.8216	0.1784	0.6087	0.068
Mof_C 	C 	0.3216	0.6784	0.1087	0.072
Mof_C 	C 	0.8216	0.8216	0.3913	0.068
Mof_C 	C 	0.3216	0.3216	0.8913	0.068
Mof_C 	C 	0.6087	0.1784	0.8216	0.068
Mof_C 	C 	0.1087	0.6784	0.3216	0.072
Mof_C 	C 	0.3913	0.1784	0.1784	0.068
Mof_C 	C 	0.8913	0.6784	0.6784	0.067
Mof_C 	C 	0.6087	0.8216	0.1784	0.068
Mof_C 	C 	0.1087	0.3216	0.6784	0.072
Mof_C 	C 	0.3913	0.8216	0.8216	0.068
Mof_C 	C 	0.8913	0.3216	0.3216	0.068
Mof_C 	C 	0.6087	0.8216	0.8216	0.068
Mof_C 	C 	0.1087	0.3216	0.3216	0.072
Mof_C 	C 	0.3913	0.1784	0.8216	0.068
Mof_C 	C 	0.8913	0.6784	0.3216	0.068
Mof_C 	C 	0.6087	0.1784	0.1784	0.068
Mof_C 	C 	0.1087	0.6784	0.6784	0.071
Mof_C 	C 	0.3913	0.8216	0.1784	0.068
Mof_C 	C 	0.8913	0.3216	0.6784	0.068
Mof_C 	C 	0.8216	0.1784	0.3913	0.068
Mof_C 	C 	0.3216	0.6784	0.8913	0.068
Mof_C 	C 	0.1784	0.1784	0.6087	0.068
Mof_C 	C 	0.6784	0.6784	0.1087	0.071
Mof_C 	C 	0.1784	0.8216	0.3913	0.068
Mof_C 	C 	0.6784	0.3216	0.8913	0.068
Mof_C 	C 	0.8216	0.8216	0.6087	0.068
Mof_C 	C 	0.3216	0.3216	0.1087	0.072
Mof_C 	C 	0.1784	0.6087	0.1784	0.068
Mof_C 	C 	0.6784	0.1087	0.6784	0.071
Mof_C 	C 	0.1784	0.3913	0.8216	0.068
Mof_C 	C 	0.6784	0.8913	0.3216	0.068
Mof_C 	C 	0.8216	0.6087	0.8216	0.068
Mof_C 	C 	0.3216	0.1087	0.3216	0.072
Mof_C 	C 	0.8216	0.3913	0.1784	0.068
Mof_C 	C 	0.3216	0.8913	0.6784	0.068
_end
