data_functionalizedCrystal
_audit_creation_method	'EQeq! by Chris Wilmer'
_symmetry_space_group_name_H-M	'P1'
_symmetry_Int_Tables_number	1
_symmetry_cell_setting	triclinic
loop_
_symmetry_equiv_pos_as_xyz
  x,y,z
_cell_length_a	25.8592
_cell_length_b	25.8592
_cell_length_c	6.2696
_cell_angle_alpha	90
_cell_angle_beta	90
_cell_angle_gamma	120
loop_
_atom_site_label
_atom_site_type_symbol
_atom_site_fract_x
_atom_site_fract_y
_atom_site_fract_z
_atom_site_charge
Mof_Cu	Cu	0.9459	0.6295	0.986	0.925
Mof_C 	C 	0.005	0.5873	0.71	0.422
Mof_C 	C 	0.0223	0.5019	0.792	-0.045
Mof_C 	C 	0.0072	0.5432	0.856	-0.165
Mof_C 	C 	0.9876	0.5451	0.072	0.159
Mof_H 	H 	0.0349	0.507	0.634	0.067
Mof_O 	O 	0.0387	0.5977	0.549	-0.407
Mof_O 	O 	0.9816	0.6171	0.738	-0.514
Mof_O 	O 	0.97	0.583	0.152	-0.439
Mof_Cu	Cu	0.61257	0.96283	0.31933	0.925
Mof_C 	C 	0.67167	0.92063	0.04333	0.418
Mof_C 	C 	0.68897	0.83523	0.12533	-0.05
Mof_C 	C 	0.67387	0.87653	0.18933	-0.164
Mof_C 	C 	0.65427	0.87843	0.40533	0.157
Mof_H 	H 	0.70157	0.84033	0.96733	0.069
Mof_O 	O 	0.70537	0.93103	0.88233	-0.405
Mof_O 	O 	0.64827	0.95043	0.07133	-0.512
Mof_O 	O 	0.63667	0.91633	0.48533	-0.44
Mof_Cu	Cu	0.27923	0.29617	0.65267	0.925
Mof_C 	C 	0.33833	0.25397	0.37667	0.42
Mof_C 	C 	0.35563	0.16857	0.45867	-0.046
Mof_C 	C 	0.34053	0.20987	0.52267	-0.166
Mof_C 	C 	0.32093	0.21177	0.73867	0.159
Mof_H 	H 	0.36823	0.17367	0.30067	0.068
Mof_O 	O 	0.37203	0.26437	0.21567	-0.406
Mof_O 	O 	0.31493	0.28377	0.40467	-0.513
Mof_O 	O 	0.30333	0.24967	0.81867	-0.44
Mof_Cu	Cu	0.3705	0.3164	0.986	0.924
Mof_C 	C 	0.4127	0.4177	0.71	0.421
Mof_C 	C 	0.4981	0.5204	0.792	-0.046
Mof_C 	C 	0.4568	0.464	0.856	-0.166
Mof_C 	C 	0.4549	0.4425	0.072	0.158
Mof_H 	H 	0.493	0.5279	0.634	0.067
Mof_O 	O 	0.4023	0.441	0.549	-0.407
Mof_O 	O 	0.3829	0.3645	0.738	-0.513
Mof_O 	O 	0.417	0.387	0.152	-0.439
Mof_Cu	Cu	0.03717	0.64973	0.31933	0.925
Mof_C 	C 	0.07937	0.75103	0.04333	0.417
Mof_C 	C 	0.16477	0.85373	0.12533	-0.051
Mof_C 	C 	0.12347	0.79733	0.18933	-0.163
Mof_C 	C 	0.12157	0.77583	0.40533	0.157
Mof_H 	H 	0.15967	0.86123	0.96733	0.07
Mof_O 	O 	0.06897	0.77433	0.88233	-0.405
Mof_O 	O 	0.04957	0.69783	0.07133	-0.512
Mof_O 	O 	0.08367	0.72033	0.48533	-0.439
Mof_Cu	Cu	0.70383	0.98307	0.65267	0.925
Mof_C 	C 	0.74603	0.08437	0.37667	0.42
Mof_C 	C 	0.83143	0.18707	0.45867	-0.046
Mof_C 	C 	0.79013	0.13067	0.52267	-0.166
Mof_C 	C 	0.78823	0.10917	0.73867	0.16
Mof_H 	H 	0.82633	0.19457	0.30067	0.068
Mof_O 	O 	0.73563	0.10767	0.21567	-0.405
Mof_O 	O 	0.71623	0.03117	0.40467	-0.512
Mof_O 	O 	0.75033	0.05367	0.81867	-0.441
Mof_Cu	Cu	0.6836	0.0541	0.986	0.924
Mof_C 	C 	0.5823	0.995	0.71	0.421
Mof_C 	C 	0.4796	0.9777	0.792	-0.046
Mof_C 	C 	0.536	0.9928	0.856	-0.166
Mof_C 	C 	0.5575	0.0124	0.072	0.159
Mof_H 	H 	0.4721	0.9651	0.634	0.067
Mof_O 	O 	0.559	0.9613	0.549	-0.407
Mof_O 	O 	0.6355	0.0184	0.738	-0.514
Mof_O 	O 	0.613	0.03	0.152	-0.439
Mof_Cu	Cu	0.35027	0.38743	0.31933	0.925
Mof_C 	C 	0.24897	0.32833	0.04333	0.419
Mof_C 	C 	0.14627	0.31103	0.12533	-0.05
Mof_C 	C 	0.20267	0.32613	0.18933	-0.164
Mof_C 	C 	0.22417	0.34573	0.40533	0.158
Mof_H 	H 	0.13877	0.29843	0.96733	0.069
Mof_O 	O 	0.22567	0.29463	0.88233	-0.406
Mof_O 	O 	0.30217	0.35173	0.07133	-0.512
Mof_O 	O 	0.27967	0.36333	0.48533	-0.44
Mof_Cu	Cu	0.01693	0.72077	0.65267	0.925
Mof_C 	C 	0.91563	0.66167	0.37667	0.42
Mof_C 	C 	0.81293	0.64437	0.45867	-0.046
Mof_C 	C 	0.86933	0.65947	0.52267	-0.166
Mof_C 	C 	0.89083	0.67907	0.73867	0.159
Mof_H 	H 	0.80543	0.63177	0.30067	0.068
Mof_O 	O 	0.89233	0.62797	0.21567	-0.405
Mof_O 	O 	0.96883	0.68507	0.40467	-0.513
Mof_O 	O 	0.94633	0.69667	0.81867	-0.441
Mof_Cu	Cu	0.0541	0.3705	0.014	0.924
Mof_C 	C 	0.995	0.4127	0.29	0.421
Mof_C 	C 	0.9777	0.4981	0.208	-0.046
Mof_C 	C 	0.9928	0.4568	0.144	-0.166
Mof_C 	C 	0.0124	0.4549	0.928	0.159
Mof_H 	H 	0.9651	0.493	0.366	0.067
Mof_O 	O 	0.9613	0.4023	0.451	-0.407
Mof_O 	O 	0.0184	0.3829	0.262	-0.514
Mof_O 	O 	0.03	0.417	0.848	-0.439
Mof_Cu	Cu	0.72077	0.70383	0.34733	0.925
Mof_C 	C 	0.66167	0.74603	0.62333	0.42
Mof_C 	C 	0.64437	0.83143	0.54133	-0.046
Mof_C 	C 	0.65947	0.79013	0.47733	-0.166
Mof_C 	C 	0.67907	0.78823	0.26133	0.159
Mof_H 	H 	0.63177	0.82633	0.69933	0.068
Mof_O 	O 	0.62797	0.73563	0.78433	-0.406
Mof_O 	O 	0.68507	0.71623	0.59533	-0.513
Mof_O 	O 	0.69667	0.75033	0.18133	-0.44
Mof_Cu	Cu	0.38743	0.03717	0.68067	0.925
Mof_C 	C 	0.32833	0.07937	0.95667	0.418
Mof_C 	C 	0.31103	0.16477	0.87467	-0.05
Mof_C 	C 	0.32613	0.12347	0.81067	-0.164
Mof_C 	C 	0.34573	0.12157	0.59467	0.157
Mof_H 	H 	0.29843	0.15967	0.03267	0.069
Mof_O 	O 	0.29463	0.06897	0.11767	-0.405
Mof_O 	O 	0.35173	0.04957	0.92867	-0.512
Mof_O 	O 	0.36333	0.08367	0.51467	-0.44
Mof_Cu	Cu	0.6295	0.6836	0.014	0.924
Mof_C 	C 	0.5873	0.5823	0.29	0.421
Mof_C 	C 	0.5019	0.4796	0.208	-0.046
Mof_C 	C 	0.5432	0.536	0.144	-0.166
Mof_C 	C 	0.5451	0.5575	0.928	0.158
Mof_H 	H 	0.507	0.4721	0.366	0.067
Mof_O 	O 	0.5977	0.559	0.451	-0.407
Mof_O 	O 	0.6171	0.6355	0.262	-0.513
Mof_O 	O 	0.583	0.613	0.848	-0.439
Mof_Cu	Cu	0.29617	0.01693	0.34733	0.925
Mof_C 	C 	0.25397	0.91563	0.62333	0.42
Mof_C 	C 	0.16857	0.81293	0.54133	-0.046
Mof_C 	C 	0.20987	0.86933	0.47733	-0.166
Mof_C 	C 	0.21177	0.89083	0.26133	0.16
Mof_H 	H 	0.17367	0.80543	0.69933	0.068
Mof_O 	O 	0.26437	0.89233	0.78433	-0.405
Mof_O 	O 	0.28377	0.96883	0.59533	-0.512
Mof_O 	O 	0.24967	0.94633	0.18133	-0.441
Mof_Cu	Cu	0.96283	0.35027	0.68067	0.925
Mof_C 	C 	0.92063	0.24897	0.95667	0.417
Mof_C 	C 	0.83523	0.14627	0.87467	-0.051
Mof_C 	C 	0.87653	0.20267	0.81067	-0.163
Mof_C 	C 	0.87843	0.22417	0.59467	0.157
Mof_H 	H 	0.84033	0.13877	0.03267	0.07
Mof_O 	O 	0.93103	0.22567	0.11767	-0.405
Mof_O 	O 	0.95043	0.30217	0.92867	-0.512
Mof_O 	O 	0.91633	0.27967	0.51467	-0.439
Mof_Cu	Cu	0.3164	0.9459	0.014	0.924
Mof_C 	C 	0.4177	0.005	0.29	0.421
Mof_C 	C 	0.5204	0.0223	0.208	-0.046
Mof_C 	C 	0.464	0.0072	0.144	-0.166
Mof_C 	C 	0.4425	0.9876	0.928	0.159
Mof_H 	H 	0.5279	0.0349	0.366	0.067
Mof_O 	O 	0.441	0.0387	0.451	-0.407
Mof_O 	O 	0.3645	0.9816	0.262	-0.514
Mof_O 	O 	0.387	0.97	0.848	-0.439
Mof_Cu	Cu	0.98307	0.27923	0.34733	0.925
Mof_C 	C 	0.08437	0.33833	0.62333	0.42
Mof_C 	C 	0.18707	0.35563	0.54133	-0.046
Mof_C 	C 	0.13067	0.34053	0.47733	-0.166
Mof_C 	C 	0.10917	0.32093	0.26133	0.159
Mof_H 	H 	0.19457	0.36823	0.69933	0.068
Mof_O 	O 	0.10767	0.37203	0.78433	-0.405
Mof_O 	O 	0.03117	0.31493	0.59533	-0.513
Mof_O 	O 	0.05367	0.30333	0.18133	-0.441
Mof_Cu	Cu	0.64973	0.61257	0.68067	0.925
Mof_C 	C 	0.75103	0.67167	0.95667	0.419
Mof_C 	C 	0.85373	0.68897	0.87467	-0.05
Mof_C 	C 	0.79733	0.67387	0.81067	-0.164
Mof_C 	C 	0.77583	0.65427	0.59467	0.158
Mof_H 	H 	0.86123	0.70157	0.03267	0.069
Mof_O 	O 	0.77433	0.70537	0.11767	-0.406
Mof_O 	O 	0.69783	0.64827	0.92867	-0.512
Mof_O 	O 	0.72033	0.63667	0.51467	-0.44
_end
