data_functionalizedCrystal
_audit_creation_method	'EQeq! by Chris Wilmer'
_symmetry_space_group_name_H-M	'P1'
_symmetry_Int_Tables_number	1
_symmetry_cell_setting	triclinic
loop_
_symmetry_equiv_pos_as_xyz
  x,y,z
_cell_length_a	9.0384
_cell_length_b	16.3407
_cell_length_c	18.505
_cell_angle_alpha	73.394
_cell_angle_beta	76.394
_cell_angle_gamma	86.298
loop_
_atom_site_label
_atom_site_type_symbol
_atom_site_fract_x
_atom_site_fract_y
_atom_site_fract_z
_atom_site_charge
Mof_Co	Co	0.74533	0.03266	0.17712	1.153
Mof_Co	Co	0.84788	0.27939	0.60876	1.131
Mof_Co	Co	0.25467	0.96734	0.82288	1.153
Mof_Co	Co	0.15212	0.72061	0.39124	1.131
Mof_H 	H 	0.8696	0.461	0.0255	0.044
Mof_H 	H 	0.6926	0.4758	0.0442	0.034
Mof_H 	H 	0.843	0.2825	0.1529	0.04
Mof_H 	H 	0.878	0.3208	0.2161	0.036
Mof_H 	H 	0.9189	0.5038	0.1306	0.037
Mof_H 	H 	0.8199	0.4692	0.2153	0.04
Mof_H 	H 	0.5832	0.3271	0.1743	0.033
Mof_H 	H 	0.5366	0.4215	0.1746	0.038
Mof_H 	H 	0.9191	0.601	0.202	0.143
Mof_H 	H 	0.7477	0.2424	0.9728	0.161
Mof_H 	H 	0.7605	0.2456	0.8483	-0.029
Mof_H 	H 	0.7711	0.5014	0.7883	-0.022
Mof_H 	H 	0.7591	0.4994	0.9124	0.15
Mof_H 	H 	0.0179	0.2131	0.2251	0.129
Mof_H 	H 	0.2173	0.1187	0.2459	-0.001
Mof_H 	H 	0.4976	0.2717	0.0645	0.003
Mof_H 	H 	0.2982	0.3637	0.0421	0.134
Mof_H 	H 	0.9371	0.1864	0.0475	0.033
Mof_H 	H 	0.0881	0.9539	0.12	0.001
Mof_H 	H 	0.2058	0.1856	0.9838	0.04
Mof_H 	H 	0.2959	0.9098	0.0257	0.055
Mof_H 	H 	0.4584	0.1369	0.0118	0.067
Mof_H 	H 	0.9164	0.7289	0.2338	-0.015
Mof_H 	H 	0.5487	0.8022	0.149	-0.01
Mof_H 	H 	0.5398	0.6724	0.1255	0.152
Mof_H 	H 	0.1257	0.2934	0.3591	0.007
Mof_H 	H 	0.6644	0.1751	0.2741	0.031
Mof_H 	H 	0.7709	0.1759	0.3819	0.041
Mof_H 	H 	0.9121	0.9688	0.317	-0.005
Mof_H 	H 	0.6201	0.9659	0.6026	0.075
Mof_H 	H 	0.3415	0.3185	0.2535	0.128
Mof_H 	H 	0.5805	0.3658	0.3975	0.133
Mof_H 	H 	0.3641	0.3487	0.4986	-0.011
Mof_H 	H 	0.7564	0.1267	0.5615	-0.02
Mof_H 	H 	0.4672	0.2717	0.6474	0.014
Mof_H 	H 	0.3228	0.1727	0.6133	0.05
Mof_H 	H 	0.4043	0.1371	0.4606	0.068
Mof_H 	H 	0.1304	0.539	0.9745	0.044
Mof_H 	H 	0.3074	0.5242	0.9558	0.034
Mof_H 	H 	0.157	0.7175	0.8471	0.04
Mof_H 	H 	0.122	0.6792	0.7839	0.036
Mof_H 	H 	0.0811	0.4962	0.8694	0.037
Mof_H 	H 	0.1801	0.5308	0.7847	0.04
Mof_H 	H 	0.4168	0.6729	0.8257	0.033
Mof_H 	H 	0.4634	0.5785	0.8254	0.038
Mof_H 	H 	0.0809	0.399	0.798	0.143
Mof_H 	H 	0.2523	0.7576	0.0272	0.161
Mof_H 	H 	0.2395	0.7544	0.1517	-0.029
Mof_H 	H 	0.2289	0.4986	0.2117	-0.022
Mof_H 	H 	0.2409	0.5006	0.0876	0.15
Mof_H 	H 	0.9821	0.7869	0.7749	0.129
Mof_H 	H 	0.7827	0.8813	0.7541	-0.001
Mof_H 	H 	0.5024	0.7283	0.9355	0.003
Mof_H 	H 	0.7018	0.6363	0.9579	0.134
Mof_H 	H 	0.0629	0.8136	0.9525	0.033
Mof_H 	H 	0.9119	0.0461	0.88	0.001
Mof_H 	H 	0.7942	0.8144	0.0162	0.04
Mof_H 	H 	0.7041	0.0902	0.9743	0.055
Mof_H 	H 	0.5416	0.8631	0.9882	0.067
Mof_H 	H 	0.0836	0.2711	0.7662	-0.015
Mof_H 	H 	0.4513	0.1978	0.851	-0.01
Mof_H 	H 	0.4602	0.3276	0.8745	0.152
Mof_H 	H 	0.8743	0.7066	0.6409	0.007
Mof_H 	H 	0.3356	0.8249	0.7259	0.031
Mof_H 	H 	0.2291	0.8241	0.6181	0.041
Mof_H 	H 	0.0879	0.0312	0.683	-0.005
Mof_H 	H 	0.3799	0.0341	0.3974	0.075
Mof_H 	H 	0.6585	0.6815	0.7465	0.128
Mof_H 	H 	0.4195	0.6342	0.6025	0.133
Mof_H 	H 	0.6359	0.6513	0.5014	-0.011
Mof_H 	H 	0.2436	0.8733	0.4385	-0.02
Mof_H 	H 	0.5328	0.7283	0.3526	0.014
Mof_H 	H 	0.6772	0.8273	0.3867	0.05
Mof_H 	H 	0.5957	0.8629	0.5394	0.068
Mof_C 	C 	0.7693	0.4077	0.1397	-0.002
Mof_C 	C 	0.7725	0.4345	0.0546	0.029
Mof_C 	C 	0.8773	0.3332	0.1616	0.024
Mof_C 	C 	0.818	0.4847	0.1609	0.03
Mof_C 	C 	0.6106	0.377	0.1869	0.042
Mof_C 	C 	0.4812	0.3446	0.3181	0.289
Mof_C 	C 	0.7238	0.6235	0.1637	0.309
Mof_C 	C 	0.8422	0.6407	0.1932	-0.292
Mof_C 	C 	0.7552	0.3687	0.9554	0.315
Mof_C 	C 	0.7539	0.2946	0.9351	-0.332
Mof_C 	C 	0.7613	0.2964	0.8613	0.206
Mof_C 	C 	0.7701	0.3737	0.8043	-0.237
Mof_C 	C 	0.7835	0.3768	0.722	0.397
Mof_C 	C 	0.7677	0.4493	0.8259	0.2
Mof_C 	C 	0.7605	0.4487	0.899	-0.32
Mof_C 	C 	0.1377	0.2979	0.1317	0.28
Mof_C 	C 	0.1139	0.2249	0.1923	-0.271
Mof_C 	C 	0.2341	0.1681	0.2047	0.136
Mof_C 	C 	0.378	0.1847	0.1563	-0.175
Mof_C 	C 	0.4011	0.2588	0.0965	0.133
Mof_C 	C 	0.2816	0.3146	0.0835	-0.265
Mof_C 	C 	0.5043	0.1238	0.1734	0.329
Mof_C 	C 	0.0006	0.1391	0.0541	-0.006
Mof_C 	C 	0.0823	0.0114	0.0941	0.095
Mof_C 	C 	0.1494	0.1393	0.0186	0.01
Mof_C 	C 	0.3538	0.029	0.0206	0.09
Mof_C 	C 	0.378	0.9462	0.015	-0.072
Mof_C 	C 	0.475	0.0818	0.0067	-0.075
Mof_C 	C 	0.7569	0.8685	0.1975	0.347
Mof_C 	C 	0.7402	0.7802	0.1904	-0.203
Mof_C 	C 	0.8433	0.7188	0.2094	0.172
Mof_C 	C 	0.6232	0.7616	0.1601	0.172
Mof_C 	C 	0.6173	0.6839	0.1466	-0.302
Mof_C 	C 	0.0895	0.2988	0.5062	0.368
Mof_C 	C 	0.2324	0.3178	0.4396	-0.172
Mof_C 	C 	0.2187	0.3087	0.3649	0.122
Mof_C 	C 	0.5151	0.0602	0.5372	0.101
Mof_C 	C 	0.9471	0.9424	0.4696	-0.025
Mof_C 	C 	0.0078	0.9123	0.5339	-0.011
Mof_C 	C 	0.9381	0.029	0.4371	0.048
Mof_C 	C 	0.7288	0.1337	0.2961	0.003
Mof_C 	C 	0.7852	0.1341	0.3558	0.004
Mof_C 	C 	0.8633	0.0202	0.3192	0.094
Mof_C 	C 	0.572	0.9797	0.5615	-0.079
Mof_C 	C 	0.3461	0.323	0.3019	-0.248
Mof_C 	C 	0.4879	0.3524	0.3899	-0.264
Mof_C 	C 	0.3596	0.3406	0.4514	0.153
Mof_C 	C 	0.6635	0.1514	0.5777	0.126
Mof_C 	C 	0.5101	0.2297	0.624	0.037
Mof_C 	C 	0.428	0.1749	0.6061	-0.025
Mof_C 	C 	0.4427	0.0823	0.4764	-0.076
Mof_C 	C 	0.2307	0.5923	0.8603	-0.002
Mof_C 	C 	0.2275	0.5655	0.9454	0.029
Mof_C 	C 	0.1227	0.6668	0.8384	0.024
Mof_C 	C 	0.182	0.5153	0.8391	0.03
Mof_C 	C 	0.3894	0.623	0.8131	0.042
Mof_C 	C 	0.5188	0.6554	0.6819	0.289
Mof_C 	C 	0.2762	0.3765	0.8363	0.309
Mof_C 	C 	0.1578	0.3593	0.8068	-0.292
Mof_C 	C 	0.2448	0.6313	0.0446	0.315
Mof_C 	C 	0.2461	0.7054	0.0649	-0.332
Mof_C 	C 	0.2387	0.7036	0.1387	0.206
Mof_C 	C 	0.2299	0.6263	0.1957	-0.237
Mof_C 	C 	0.2165	0.6232	0.278	0.397
Mof_C 	C 	0.2323	0.5507	0.1741	0.2
Mof_C 	C 	0.2395	0.5513	0.101	-0.32
Mof_C 	C 	0.8623	0.7021	0.8683	0.28
Mof_C 	C 	0.8861	0.7751	0.8077	-0.271
Mof_C 	C 	0.7659	0.8319	0.7953	0.136
Mof_C 	C 	0.622	0.8153	0.8437	-0.175
Mof_C 	C 	0.5989	0.7412	0.9035	0.133
Mof_C 	C 	0.7184	0.6854	0.9165	-0.265
Mof_C 	C 	0.4957	0.8762	0.8266	0.329
Mof_C 	C 	0.9994	0.8609	0.9459	-0.006
Mof_C 	C 	0.9177	0.9886	0.9059	0.095
Mof_C 	C 	0.8506	0.8607	0.9814	0.01
Mof_C 	C 	0.6462	0.971	0.9794	0.09
Mof_C 	C 	0.622	0.0538	0.985	-0.072
Mof_C 	C 	0.525	0.9182	0.9933	-0.075
Mof_C 	C 	0.2431	0.1315	0.8025	0.347
Mof_C 	C 	0.2598	0.2198	0.8096	-0.203
Mof_C 	C 	0.1567	0.2812	0.7906	0.172
Mof_C 	C 	0.3768	0.2384	0.8399	0.172
Mof_C 	C 	0.3827	0.3161	0.8534	-0.302
Mof_C 	C 	0.9105	0.7012	0.4938	0.368
Mof_C 	C 	0.7676	0.6822	0.5604	-0.172
Mof_C 	C 	0.7813	0.6913	0.6351	0.122
Mof_C 	C 	0.4849	0.9398	0.4628	0.101
Mof_C 	C 	0.0529	0.0576	0.5304	-0.025
Mof_C 	C 	0.9922	0.0877	0.4661	-0.011
Mof_C 	C 	0.0619	0.971	0.5629	0.048
Mof_C 	C 	0.2712	0.8663	0.7039	0.003
Mof_C 	C 	0.2148	0.8659	0.6442	0.004
Mof_C 	C 	0.1367	0.9798	0.6808	0.094
Mof_C 	C 	0.428	0.0203	0.4385	-0.079
Mof_C 	C 	0.6539	0.677	0.6981	-0.248
Mof_C 	C 	0.5121	0.6476	0.6101	-0.264
Mof_C 	C 	0.6404	0.6594	0.5486	0.153
Mof_C 	C 	0.3365	0.8486	0.4223	0.126
Mof_C 	C 	0.4899	0.7703	0.376	0.037
Mof_C 	C 	0.572	0.8251	0.3939	-0.025
Mof_C 	C 	0.5573	0.9177	0.5236	-0.076
Mof_N 	N 	0.956	0.0585	0.1017	-0.239
Mof_N 	N 	0.2003	0.0583	0.0437	-0.136
Mof_N 	N 	0.8679	0.0618	0.3714	-0.127
Mof_N 	N 	0.7795	0.0628	0.2714	-0.242
Mof_N 	N 	0.5392	0.1215	0.5735	-0.144
Mof_N 	N 	0.6577	0.2167	0.6047	-0.26
Mof_N 	N 	0.044	0.9415	0.8983	-0.239
Mof_N 	N 	0.7997	0.9417	0.9563	-0.136
Mof_N 	N 	0.1321	0.9382	0.6286	-0.127
Mof_N 	N 	0.2205	0.9372	0.7286	-0.242
Mof_N 	N 	0.4608	0.8785	0.4265	-0.144
Mof_N 	N 	0.3423	0.7833	0.3953	-0.26
Mof_O 	O 	0.028	0.3559	0.1151	-0.252
Mof_O 	O 	0.7501	0.3608	0.0316	-0.254
Mof_O 	O 	0.7104	0.5499	0.1446	-0.256
Mof_O 	O 	0.6102	0.3566	0.2653	-0.265
Mof_O 	O 	0.7967	0.4482	0.6731	-0.3
Mof_O 	O 	0.6371	0.1409	0.1273	-0.41
Mof_O 	O 	0.4802	0.058	0.2281	-0.343
Mof_O 	O 	0.6688	0.9259	0.1676	-0.419
Mof_O 	O 	0.8553	0.8845	0.2285	-0.351
Mof_O 	O 	0.0859	0.3189	0.5642	-0.414
Mof_O 	O 	0.9725	0.2694	0.4972	-0.415
Mof_O 	O 	0.7844	0.3056	0.7075	-0.47
Mof_O 	O 	0.972	0.6441	0.8849	-0.252
Mof_O 	O 	0.2499	0.6392	0.9684	-0.254
Mof_O 	O 	0.2896	0.4501	0.8554	-0.256
Mof_O 	O 	0.3898	0.6434	0.7347	-0.265
Mof_O 	O 	0.2033	0.5518	0.3269	-0.3
Mof_O 	O 	0.3629	0.8591	0.8727	-0.41
Mof_O 	O 	0.5198	0.942	0.7719	-0.343
Mof_O 	O 	0.3312	0.0741	0.8324	-0.419
Mof_O 	O 	0.1447	0.1155	0.7715	-0.351
Mof_O 	O 	0.9141	0.6811	0.4358	-0.414
Mof_O 	O 	0.0275	0.7306	0.5028	-0.415
Mof_O 	O 	0.2156	0.6944	0.2925	-0.47
_end
