data_functionalizedCrystal
_audit_creation_method	'EQeq! by Chris Wilmer'
_symmetry_space_group_name_H-M	'P1'
_symmetry_Int_Tables_number	1
_symmetry_cell_setting	triclinic
loop_
_symmetry_equiv_pos_as_xyz
  x,y,z
_cell_length_a	35.2593
_cell_length_b	14.8434
_cell_length_c	31.0697
_cell_angle_alpha	90
_cell_angle_beta	101.611
_cell_angle_gamma	90
loop_
_atom_site_label
_atom_site_type_symbol
_atom_site_fract_x
_atom_site_fract_y
_atom_site_fract_z
_atom_site_charge
Mof_Zn	Zn	0.66945	0.8606	0.51781	0.582
Mof_I 	I 	0.72951	0.76499	0.54022	-0.032
Mof_I 	I 	0.62295	0.8449	0.44411	-0.299
Mof_Zn	Zn	0.37539	0.0993	0.68722	0.548
Mof_I 	I 	0.39534	0.23668	0.64821	-0.31
Mof_I 	I 	0.35685	0.1	0.76158	-0.057
Mof_Zn	Zn	0.08444	0.12647	0.34226	1.157
Mof_I 	I 	0.02536	0.1494	0.37835	-0.208
Mof_I 	I 	0.11819	0.2407	0.30478	-0.128
Mof_Zn	Zn	0.875	0.395	0.1853	0.567
Mof_I 	I 	0.89659	0.2594	0.14607	-0.259
Mof_I 	I 	0.85241	0.4077	0.2596	-0.191
Mof_Zn	Zn	0.1704	0.63923	0.02075	1.157
Mof_I 	I 	0.23061	0.73579	0.04307	-0.152
Mof_I 	I 	0.12364	0.6554	0.94639	-0.232
Mof_Zn	Zn	0.0821	0.87673	0.84176	1.156
Mof_I 	I 	0.11534	0.75706	0.80376	-0.171
Mof_I 	I 	0.02356	0.8557	0.87689	-0.16
Mof_N 	N 	0.6385	0.8439	0.5674	-0.292
Mof_N 	N 	0.5706	0.4845	0.7979	-0.27
Mof_N 	N 	0.42099	0.0121	0.6904	-0.272
Mof_N 	N 	0.57569	0.7276	0.6872	-0.136
Mof_N 	N 	0.52442	0.7734	0.7211	-0.147
Mof_N 	N 	0.53937	0.8573	0.6614	-0.136
Mof_N 	N 	0.33178	0.0354	0.6437	-0.267
Mof_N 	N 	0.1839	0.4975	0.5253	-0.279
Mof_N 	N 	0.124	0.059	0.3897	-0.273
Mof_N 	N 	0.234	0.8154	0.5613	-0.141
Mof_N 	N 	0.1816	0.8283	0.5002	-0.135
Mof_N 	N 	0.22092	0.9551	0.523	-0.144
Mof_N 	N 	0.0702	0.0201	0.2984	-0.271
Mof_N 	N 	0.92001	0.4927	0.1916	-0.269
Mof_N 	N 	0.1391	0.6564	0.069	-0.282
Mof_N 	N 	0.02349	0.7282	0.22247	-0.151
Mof_N 	N 	0.03711	0.6466	0.1621	-0.136
Mof_N 	N 	0.07445	0.7768	0.1878	-0.137
Mof_N 	N 	0.1836	0.5028	0.0266	-0.274
Mof_N 	N 	0.33282	0.9654	0.1412	-0.27
Mof_N 	N 	0.1222	0.9412	0.8904	-0.277
Mof_N 	N 	0.2354	0.1851	0.0589	-0.141
Mof_N 	N 	0.222	0.0466	0.0211	-0.141
Mof_N 	N 	0.18252	0.1746	0.9984	-0.136
Mof_C 	C 	0.6057	0.8839	0.5641	0.108
Mof_H 	H 	0.5974	0.9226	0.5397	-0.031
Mof_C 	C 	0.5823	0.8746	0.5933	-0.145
Mof_H 	H 	0.5588	0.9076	0.5895	0.09
Mof_C 	C 	0.5926	0.8165	0.6288	0.073
Mof_C 	C 	0.6283	0.774	0.6321	-0.133
Mof_H 	H 	0.6375	0.7342	0.6559	0.088
Mof_C 	C 	0.6494	0.7893	0.602	0.082
Mof_H 	H 	0.6737	0.7598	0.6052	-0.022
Mof_C 	C 	0.5977	0.5112	0.7763	0.068
Mof_H 	H 	0.621	0.4775	0.7795	-0.016
Mof_C 	C 	0.5932	0.5857	0.7496	-0.117
Mof_H 	H 	0.6131	0.6033	0.7348	0.077
Mof_C 	C 	0.5589	0.6354	0.7445	0.047
Mof_C 	C 	0.5313	0.6096	0.7675	-0.112
Mof_H 	H 	0.5082	0.6435	0.7656	0.067
Mof_C 	C 	0.5378	0.5335	0.7935	0.06
Mof_H 	H 	0.5184	0.5149	0.8089	-0.009
Mof_C 	C 	0.4355	0.999	0.6558	0.094
Mof_H 	H 	0.423	0.0266	0.6292	-0.017
Mof_C 	C 	0.4678	0.9478	0.655	-0.136
Mof_H 	H 	0.4788	0.945	0.6295	0.089
Mof_C 	C 	0.4838	0.9	0.693	0.056
Mof_C 	C 	0.4677	0.9082	0.7289	-0.13
Mof_H 	H 	0.4782	0.8763	0.7551	0.078
Mof_C 	C 	0.4367	0.9624	0.7269	0.065
Mof_H 	H 	0.4252	0.9664	0.752	-0.008
Mof_C 	C 	0.5677	0.8001	0.6609	0.102
Mof_C 	C 	0.553	0.7172	0.716	0.092
Mof_C 	C 	0.5184	0.8417	0.6919	0.088
Mof_C 	C 	0.3102	0.0799	0.6104	0.067
Mof_H 	H 	0.3154	0.1417	0.6061	-0.001
Mof_C 	C 	0.2799	0.0375	0.5817	-0.123
Mof_H 	H 	0.2643	0.0711	0.5588	0.089
Mof_C 	C 	0.2728	0.9485	0.5863	0.046
Mof_C 	C 	0.2955	0.9028	0.6213	-0.118
Mof_H 	H 	0.2911	0.8407	0.6259	0.081
Mof_C 	C 	0.3243	0.9481	0.649	0.066
Mof_H 	H 	0.3395	0.9164	0.6729	-0.004
Mof_C 	C 	0.2153	0.5281	0.551	0.068
Mof_H 	H 	0.2338	0.4868	0.5664	-0.016
Mof_C 	C 	0.222	0.6227	0.5564	-0.121
Mof_H 	H 	0.2433	0.6444	0.5776	0.078
Mof_C 	C 	0.1975	0.6818	0.5308	0.065
Mof_C 	C 	0.1654	0.6481	0.505	-0.128
Mof_H 	H 	0.1468	0.6875	0.4884	0.086
Mof_C 	C 	0.1593	0.5548	0.5027	0.076
Mof_H 	H 	0.1366	0.5322	0.484	-0.017
Mof_C 	C 	0.1175	0.9727	0.3966	0.066
Mof_H 	H 	0.0973	0.9431	0.3767	-0.004
Mof_C 	C 	0.139	0.9225	0.4316	-0.116
Mof_H 	H 	0.1332	0.861	0.4359	0.091
Mof_C 	C 	0.1688	0.9662	0.4596	0.057
Mof_C 	C 	0.1745	0.0556	0.4532	-0.129
Mof_H 	H 	0.1938	0.0876	0.4731	0.074
Mof_C 	C 	0.1521	0.0998	0.4178	0.07
Mof_H 	H 	0.1571	0.1617	0.4134	-0.018
Mof_C 	C 	0.2401	0.9034	0.555	0.087
Mof_C 	C 	0.2049	0.7811	0.5317	0.099
Mof_C 	C 	0.1921	0.9137	0.4964	0.102
Mof_C 	C 	0.0941	0.9979	0.2723	0.066
Mof_H 	H 	0.1158	0.0359	0.2719	-0.015
Mof_C 	C 	0.0893	0.9215	0.2452	-0.116
Mof_H 	H 	0.1074	0.9077	0.2272	0.077
Mof_C 	C 	0.0579	0.8672	0.2453	0.048
Mof_C 	C 	0.0323	0.8912	0.2712	-0.112
Mof_H 	H 	0.0098	0.8557	0.271	0.068
Mof_C 	C 	0.039	0.9674	0.2978	0.06
Mof_H 	H 	0.0213	0.9825	0.3159	-0.007
Mof_C 	C 	0.9374	0.5295	0.2287	0.073
Mof_H 	H 	0.9285	0.5165	0.2549	-0.009
Mof_C 	C 	0.9691	0.5881	0.2305	-0.118
Mof_H 	H 	0.9804	0.617	0.2573	0.076
Mof_C 	C 	0.9836	0.6031	0.1928	0.044
Mof_C 	C 	0.9638	0.5643	0.1539	-0.121
Mof_H 	H 	0.9716	0.576	0.1269	0.083
Mof_C 	C 	0.9329	0.509	0.155	0.072
Mof_H 	H 	0.9201	0.4811	0.1285	-0.017
Mof_C 	C 	0.1491	0.7153	0.1016	0.071
Mof_H 	H 	0.1729	0.7468	0.1043	-0.012
Mof_C 	C 	0.1255	0.7325	0.1326	-0.125
Mof_H 	H 	0.1332	0.7755	0.1553	0.084
Mof_C 	C 	0.0921	0.6874	0.1294	0.077
Mof_C 	C 	0.0827	0.6235	0.0978	-0.135
Mof_H 	H 	0.0596	0.5894	0.0956	0.087
Mof_C 	C 	0.107	0.6087	0.0693	0.084
Mof_H 	H 	0.1006	0.5615	0.0484	-0.022
Mof_C 	C 	0.0516	0.7852	0.2172	0.086
Mof_C 	C 	0.0168	0.6635	0.193	0.093
Mof_C 	C 	0.0665	0.7044	0.1621	0.096
Mof_C 	C 	0.1582	0.4442	0.0042	0.065
Mof_H 	H 	0.1349	0.4671	0.987	-0.017
Mof_C 	C 	0.164	0.3528	0.0047	-0.119
Mof_H 	H 	0.1457	0.3142	0.9872	0.082
Mof_C 	C 	0.1973	0.3177	0.0313	0.053
Mof_C 	C 	0.2245	0.3784	0.0546	-0.121
Mof_H 	H 	0.2482	0.3577	0.0718	0.077
Mof_C 	C 	0.2157	0.4686	0.0516	0.073
Mof_H 	H 	0.2335	0.5093	0.0685	-0.012
Mof_C 	C 	0.3121	0.9226	0.1062	0.07
Mof_H 	H 	0.318	0.8613	0.1016	-0.007
Mof_C 	C 	0.2831	0.9624	0.077	-0.126
Mof_H 	H 	0.2694	0.9299	0.0524	0.089
Mof_C 	C 	0.2738	0.0531	0.0839	0.043
Mof_C 	C 	0.2961	0.0978	0.1192	-0.123
Mof_H 	H 	0.2919	0.1599	0.124	0.081
Mof_C 	C 	0.3244	0.0509	0.147	0.073
Mof_H 	H 	0.3387	0.0815	0.1719	-0.007
Mof_C 	C 	0.117	0.0293	0.8973	0.081
Mof_H 	H 	0.0968	0.06	0.8779	-0.009
Mof_C 	C 	0.1386	0.0754	0.9298	-0.138
Mof_H 	H 	0.1335	0.1376	0.9331	0.097
Mof_C 	C 	0.1678	0.0355	0.9583	0.068
Mof_C 	C 	0.1742	0.9439	0.9524	-0.137
Mof_H 	H 	0.1941	0.9122	0.9717	0.078
Mof_C 	C 	0.1504	0.9006	0.9175	0.08
Mof_H 	H 	0.1548	0.8384	0.9131	-0.021
Mof_C 	C 	0.2056	0.2195	0.0296	0.105
Mof_C 	C 	0.2417	0.0973	0.0531	0.088
Mof_C 	C 	0.1918	0.0871	0.9955	0.094
Mof_Zn	Zn	0.677	0.8593	0.5259	0.593
Mof_I 	I 	0.7402	0.7767	0.552	-0.331
Mof_I 	I 	0.6328	0.8344	0.4491	-0.073
Mof_Zn	Zn	0.3727	0.0953	0.6947	0.588
Mof_I 	I 	0.384	0.2475	0.6608	-0.044
Mof_I 	I 	0.3493	0.0795	0.7647	-0.291
Mof_I 	I 	0.0289	0.165	0.3761	-0.117
Mof_I 	I 	0.1267	0.233	0.30529	-0.216
Mof_Zn	Zn	0.8745	0.4089	0.189	0.546
Mof_I 	I 	0.8946	0.2685	0.1527	-0.079
Mof_I 	I 	0.85024	0.387	0.25642	-0.142
Mof_I 	I 	0.2334	0.727	0.0497	-0.185
Mof_I 	I 	0.1244	0.6702	0.9518	-0.141
Mof_I 	I 	0.1208	0.7703	0.8032	-0.171
Mof_I 	I 	0.025	0.8498	0.8786	-0.158
Mof_Zn	Zn	0.16945	0.3606	0.51781	0.583
Mof_I 	I 	0.22951	0.26499	0.54022	-0.031
Mof_I 	I 	0.12295	0.3449	0.44411	-0.298
Mof_Zn	Zn	0.87539	0.5993	0.68722	0.549
Mof_I 	I 	0.89534	0.73668	0.64821	-0.309
Mof_I 	I 	0.85685	0.6	0.76158	-0.055
Mof_Zn	Zn	0.58444	0.62647	0.34226	1.158
Mof_I 	I 	0.52536	0.6494	0.37835	-0.207
Mof_I 	I 	0.61819	0.7407	0.30478	-0.127
Mof_Zn	Zn	0.375	0.895	0.1853	0.568
Mof_I 	I 	0.39659	0.7594	0.14607	-0.258
Mof_I 	I 	0.35241	0.9077	0.2596	-0.19
Mof_Zn	Zn	0.6704	0.13923	0.02075	1.158
Mof_I 	I 	0.73061	0.23579	0.04307	-0.151
Mof_I 	I 	0.62364	0.1554	0.94639	-0.231
Mof_Zn	Zn	0.5821	0.37673	0.84176	1.157
Mof_I 	I 	0.61534	0.25706	0.80376	-0.17
Mof_I 	I 	0.52356	0.3557	0.87689	-0.159
Mof_N 	N 	0.1385	0.3439	0.5674	-0.292
Mof_N 	N 	0.0706	0.9845	0.7979	-0.27
Mof_N 	N 	0.92099	0.5121	0.6904	-0.272
Mof_N 	N 	0.07569	0.2276	0.6872	-0.136
Mof_N 	N 	0.02442	0.2734	0.7211	-0.147
Mof_N 	N 	0.03937	0.3573	0.6614	-0.136
Mof_N 	N 	0.83178	0.5354	0.6437	-0.267
Mof_N 	N 	0.6839	0.9975	0.5253	-0.279
Mof_N 	N 	0.624	0.559	0.3897	-0.273
Mof_N 	N 	0.734	0.3154	0.5613	-0.141
Mof_N 	N 	0.6816	0.3283	0.5002	-0.135
Mof_N 	N 	0.72092	0.4551	0.523	-0.144
Mof_N 	N 	0.5702	0.5201	0.2984	-0.271
Mof_N 	N 	0.42001	0.9927	0.1916	-0.269
Mof_N 	N 	0.6391	0.1564	0.069	-0.282
Mof_N 	N 	0.52349	0.2282	0.22247	-0.151
Mof_N 	N 	0.53711	0.1466	0.1621	-0.136
Mof_N 	N 	0.57445	0.2768	0.1878	-0.137
Mof_N 	N 	0.6836	0.0028	0.0266	-0.274
Mof_N 	N 	0.83282	0.4654	0.1412	-0.27
Mof_N 	N 	0.6222	0.4412	0.8904	-0.277
Mof_N 	N 	0.7354	0.6851	0.0589	-0.141
Mof_N 	N 	0.722	0.5466	0.0211	-0.141
Mof_N 	N 	0.68252	0.6746	0.9984	-0.136
Mof_C 	C 	0.1057	0.3839	0.5641	0.108
Mof_H 	H 	0.0974	0.4226	0.5397	-0.031
Mof_C 	C 	0.0823	0.3746	0.5933	-0.145
Mof_H 	H 	0.0588	0.4076	0.5895	0.09
Mof_C 	C 	0.0926	0.3165	0.6288	0.073
Mof_C 	C 	0.1283	0.274	0.6321	-0.133
Mof_H 	H 	0.1375	0.2342	0.6559	0.088
Mof_C 	C 	0.1494	0.2893	0.602	0.082
Mof_H 	H 	0.1737	0.2598	0.6052	-0.022
Mof_C 	C 	0.0977	0.0112	0.7763	0.068
Mof_H 	H 	0.121	0.9775	0.7795	-0.016
Mof_C 	C 	0.0932	0.0857	0.7496	-0.117
Mof_H 	H 	0.1131	0.1033	0.7348	0.077
Mof_C 	C 	0.0589	0.1354	0.7445	0.046
Mof_C 	C 	0.0313	0.1096	0.7675	-0.112
Mof_H 	H 	0.0082	0.1435	0.7656	0.067
Mof_C 	C 	0.0378	0.0335	0.7935	0.06
Mof_H 	H 	0.0184	0.0149	0.8089	-0.009
Mof_C 	C 	0.9355	0.499	0.6558	0.094
Mof_H 	H 	0.923	0.5266	0.6292	-0.017
Mof_C 	C 	0.9678	0.4478	0.655	-0.136
Mof_H 	H 	0.9788	0.445	0.6295	0.089
Mof_C 	C 	0.9838	0.4	0.693	0.056
Mof_C 	C 	0.9677	0.4082	0.7289	-0.13
Mof_H 	H 	0.9782	0.3763	0.7551	0.078
Mof_C 	C 	0.9367	0.4624	0.7269	0.065
Mof_H 	H 	0.9252	0.4664	0.752	-0.008
Mof_C 	C 	0.0677	0.3001	0.6609	0.102
Mof_C 	C 	0.053	0.2172	0.716	0.092
Mof_C 	C 	0.0184	0.3417	0.6919	0.088
Mof_C 	C 	0.8102	0.5799	0.6104	0.067
Mof_H 	H 	0.8154	0.6417	0.6061	-0.001
Mof_C 	C 	0.7799	0.5375	0.5817	-0.123
Mof_H 	H 	0.7643	0.5711	0.5588	0.089
Mof_C 	C 	0.7728	0.4485	0.5863	0.046
Mof_C 	C 	0.7955	0.4028	0.6213	-0.118
Mof_H 	H 	0.7911	0.3407	0.6259	0.081
Mof_C 	C 	0.8243	0.4481	0.649	0.066
Mof_H 	H 	0.8395	0.4164	0.6729	-0.004
Mof_C 	C 	0.7153	0.0281	0.551	0.068
Mof_H 	H 	0.7338	0.9868	0.5664	-0.016
Mof_C 	C 	0.722	0.1227	0.5564	-0.121
Mof_H 	H 	0.7433	0.1444	0.5776	0.077
Mof_C 	C 	0.6975	0.1818	0.5308	0.065
Mof_C 	C 	0.6654	0.1481	0.505	-0.127
Mof_H 	H 	0.6468	0.1875	0.4884	0.086
Mof_C 	C 	0.6593	0.0548	0.5027	0.076
Mof_H 	H 	0.6366	0.0322	0.484	-0.017
Mof_C 	C 	0.6175	0.4727	0.3966	0.066
Mof_H 	H 	0.5973	0.4431	0.3767	-0.004
Mof_C 	C 	0.639	0.4225	0.4316	-0.116
Mof_H 	H 	0.6332	0.361	0.4359	0.091
Mof_C 	C 	0.6688	0.4662	0.4596	0.057
Mof_C 	C 	0.6745	0.5556	0.4532	-0.129
Mof_H 	H 	0.6938	0.5876	0.4731	0.074
Mof_C 	C 	0.6521	0.5998	0.4178	0.07
Mof_H 	H 	0.6571	0.6617	0.4134	-0.018
Mof_C 	C 	0.7401	0.4034	0.555	0.087
Mof_C 	C 	0.7049	0.2811	0.5317	0.099
Mof_C 	C 	0.6921	0.4137	0.4964	0.102
Mof_C 	C 	0.5941	0.4979	0.2723	0.066
Mof_H 	H 	0.6158	0.5359	0.2719	-0.015
Mof_C 	C 	0.5893	0.4215	0.2452	-0.116
Mof_H 	H 	0.6074	0.4077	0.2272	0.077
Mof_C 	C 	0.5579	0.3672	0.2453	0.048
Mof_C 	C 	0.5323	0.3912	0.2712	-0.112
Mof_H 	H 	0.5098	0.3557	0.271	0.068
Mof_C 	C 	0.539	0.4674	0.2978	0.06
Mof_H 	H 	0.5213	0.4825	0.3159	-0.007
Mof_C 	C 	0.4374	0.0295	0.2287	0.073
Mof_H 	H 	0.4285	0.0165	0.2549	-0.009
Mof_C 	C 	0.4691	0.0881	0.2305	-0.118
Mof_H 	H 	0.4804	0.117	0.2573	0.076
Mof_C 	C 	0.4836	0.1031	0.1928	0.044
Mof_C 	C 	0.4638	0.0643	0.1539	-0.121
Mof_H 	H 	0.4716	0.076	0.1269	0.083
Mof_C 	C 	0.4329	0.009	0.155	0.072
Mof_H 	H 	0.4201	0.9811	0.1285	-0.017
Mof_C 	C 	0.6491	0.2153	0.1016	0.071
Mof_H 	H 	0.6729	0.2468	0.1043	-0.012
Mof_C 	C 	0.6255	0.2325	0.1326	-0.125
Mof_H 	H 	0.6332	0.2755	0.1553	0.084
Mof_C 	C 	0.5921	0.1874	0.1294	0.077
Mof_C 	C 	0.5827	0.1235	0.0978	-0.135
Mof_H 	H 	0.5596	0.0894	0.0956	0.087
Mof_C 	C 	0.607	0.1087	0.0693	0.084
Mof_H 	H 	0.6006	0.0615	0.0484	-0.022
Mof_C 	C 	0.5516	0.2852	0.2172	0.086
Mof_C 	C 	0.5168	0.1635	0.193	0.093
Mof_C 	C 	0.5665	0.2044	0.1621	0.096
Mof_C 	C 	0.6582	0.9442	0.0042	0.065
Mof_H 	H 	0.6349	0.9671	0.987	-0.017
Mof_C 	C 	0.664	0.8528	0.0047	-0.118
Mof_H 	H 	0.6457	0.8142	0.9872	0.081
Mof_C 	C 	0.6973	0.8177	0.0313	0.053
Mof_C 	C 	0.7245	0.8784	0.0546	-0.121
Mof_H 	H 	0.7482	0.8577	0.0718	0.077
Mof_C 	C 	0.7157	0.9686	0.0516	0.073
Mof_H 	H 	0.7335	0.0093	0.0685	-0.013
Mof_C 	C 	0.8121	0.4226	0.1062	0.07
Mof_H 	H 	0.818	0.3613	0.1016	-0.007
Mof_C 	C 	0.7831	0.4624	0.077	-0.126
Mof_H 	H 	0.7694	0.4299	0.0524	0.089
Mof_C 	C 	0.7738	0.5531	0.0839	0.043
Mof_C 	C 	0.7961	0.5978	0.1192	-0.123
Mof_H 	H 	0.7919	0.6599	0.124	0.081
Mof_C 	C 	0.8244	0.5509	0.147	0.073
Mof_H 	H 	0.8387	0.5815	0.1719	-0.007
Mof_C 	C 	0.617	0.5293	0.8973	0.081
Mof_H 	H 	0.5968	0.56	0.8779	-0.009
Mof_C 	C 	0.6386	0.5754	0.9298	-0.139
Mof_H 	H 	0.6335	0.6376	0.9331	0.097
Mof_C 	C 	0.6678	0.5355	0.9583	0.068
Mof_C 	C 	0.6742	0.4439	0.9524	-0.137
Mof_H 	H 	0.6941	0.4122	0.9717	0.078
Mof_C 	C 	0.6504	0.4006	0.9175	0.08
Mof_H 	H 	0.6548	0.3384	0.9131	-0.021
Mof_C 	C 	0.7056	0.7195	0.0296	0.105
Mof_C 	C 	0.7417	0.5973	0.0531	0.088
Mof_C 	C 	0.6918	0.5871	0.9955	0.094
Mof_Zn	Zn	0.177	0.3593	0.5259	0.593
Mof_I 	I 	0.2402	0.2767	0.552	-0.331
Mof_I 	I 	0.1328	0.3344	0.4491	-0.073
Mof_Zn	Zn	0.8727	0.5953	0.6947	0.588
Mof_I 	I 	0.884	0.7475	0.6608	-0.044
Mof_I 	I 	0.8493	0.5795	0.7647	-0.291
Mof_I 	I 	0.5289	0.665	0.3761	-0.116
Mof_I 	I 	0.6267	0.733	0.30529	-0.216
Mof_Zn	Zn	0.3745	0.9089	0.189	0.546
Mof_I 	I 	0.3946	0.7685	0.1527	-0.079
Mof_I 	I 	0.35024	0.887	0.25642	-0.142
Mof_I 	I 	0.7334	0.227	0.0497	-0.185
Mof_I 	I 	0.6244	0.1702	0.9518	-0.141
Mof_I 	I 	0.6208	0.2703	0.8032	-0.171
Mof_I 	I 	0.525	0.3498	0.8786	-0.158
Mof_Zn	Zn	0.33055	0.8606	0.48219	0.583
Mof_I 	I 	0.27049	0.76499	0.45978	-0.031
Mof_I 	I 	0.37705	0.8449	0.55589	-0.298
Mof_Zn	Zn	0.62461	0.0993	0.31278	0.549
Mof_I 	I 	0.60466	0.23668	0.35179	-0.309
Mof_I 	I 	0.64315	0.1	0.23842	-0.056
Mof_Zn	Zn	0.91556	0.12647	0.65774	1.158
Mof_I 	I 	0.97464	0.1494	0.62165	-0.207
Mof_I 	I 	0.88181	0.2407	0.69522	-0.127
Mof_Zn	Zn	0.125	0.395	0.8147	0.568
Mof_I 	I 	0.10341	0.2594	0.85393	-0.258
Mof_I 	I 	0.14759	0.4077	0.7404	-0.19
Mof_Zn	Zn	0.8296	0.63923	0.97925	1.158
Mof_I 	I 	0.76939	0.73579	0.95693	-0.151
Mof_I 	I 	0.87636	0.6554	0.05361	-0.231
Mof_Zn	Zn	0.9179	0.87673	0.15824	1.157
Mof_I 	I 	0.88466	0.75706	0.19624	-0.17
Mof_I 	I 	0.97644	0.8557	0.12311	-0.159
Mof_N 	N 	0.3615	0.8439	0.4326	-0.292
Mof_N 	N 	0.4294	0.4845	0.2021	-0.27
Mof_N 	N 	0.57901	0.0121	0.3096	-0.272
Mof_N 	N 	0.42431	0.7276	0.3128	-0.136
Mof_N 	N 	0.47558	0.7734	0.2789	-0.147
Mof_N 	N 	0.46063	0.8573	0.3386	-0.136
Mof_N 	N 	0.66822	0.0354	0.3563	-0.267
Mof_N 	N 	0.8161	0.4975	0.4747	-0.279
Mof_N 	N 	0.876	0.059	0.6103	-0.273
Mof_N 	N 	0.766	0.8154	0.4387	-0.141
Mof_N 	N 	0.8184	0.8283	0.4998	-0.135
Mof_N 	N 	0.77908	0.9551	0.477	-0.144
Mof_N 	N 	0.9298	0.0201	0.7016	-0.271
Mof_N 	N 	0.07999	0.4927	0.8084	-0.269
Mof_N 	N 	0.8609	0.6564	0.931	-0.282
Mof_N 	N 	0.97651	0.7282	0.77753	-0.151
Mof_N 	N 	0.96289	0.6466	0.8379	-0.136
Mof_N 	N 	0.92555	0.7768	0.8122	-0.137
Mof_N 	N 	0.8164	0.5028	0.9734	-0.274
Mof_N 	N 	0.66718	0.9654	0.8588	-0.27
Mof_N 	N 	0.8778	0.9412	0.1096	-0.277
Mof_N 	N 	0.7646	0.1851	0.9411	-0.141
Mof_N 	N 	0.778	0.0466	0.9789	-0.141
Mof_N 	N 	0.81748	0.1746	0.0016	-0.136
Mof_C 	C 	0.3943	0.8839	0.4359	0.108
Mof_H 	H 	0.4026	0.9226	0.4603	-0.031
Mof_C 	C 	0.4177	0.8746	0.4067	-0.145
Mof_H 	H 	0.4412	0.9076	0.4105	0.09
Mof_C 	C 	0.4074	0.8165	0.3712	0.073
Mof_C 	C 	0.3717	0.774	0.3679	-0.133
Mof_H 	H 	0.3625	0.7342	0.3441	0.088
Mof_C 	C 	0.3506	0.7893	0.398	0.082
Mof_H 	H 	0.3263	0.7598	0.3948	-0.022
Mof_C 	C 	0.4023	0.5112	0.2237	0.068
Mof_H 	H 	0.379	0.4775	0.2205	-0.016
Mof_C 	C 	0.4068	0.5857	0.2504	-0.117
Mof_H 	H 	0.3869	0.6033	0.2652	0.077
Mof_C 	C 	0.4411	0.6354	0.2555	0.047
Mof_C 	C 	0.4687	0.6096	0.2325	-0.112
Mof_H 	H 	0.4918	0.6435	0.2344	0.067
Mof_C 	C 	0.4622	0.5335	0.2065	0.06
Mof_H 	H 	0.4816	0.5149	0.1911	-0.009
Mof_C 	C 	0.5645	0.999	0.3442	0.094
Mof_H 	H 	0.577	0.0266	0.3708	-0.017
Mof_C 	C 	0.5322	0.9478	0.345	-0.136
Mof_H 	H 	0.5212	0.945	0.3705	0.089
Mof_C 	C 	0.5162	0.9	0.307	0.056
Mof_C 	C 	0.5323	0.9082	0.2711	-0.13
Mof_H 	H 	0.5218	0.8763	0.2449	0.078
Mof_C 	C 	0.5633	0.9624	0.2731	0.065
Mof_H 	H 	0.5748	0.9664	0.248	-0.008
Mof_C 	C 	0.4323	0.8001	0.3391	0.102
Mof_C 	C 	0.447	0.7172	0.284	0.092
Mof_C 	C 	0.4816	0.8417	0.3081	0.088
Mof_C 	C 	0.6898	0.0799	0.3896	0.067
Mof_H 	H 	0.6846	0.1417	0.3939	-0.001
Mof_C 	C 	0.7201	0.0375	0.4183	-0.123
Mof_H 	H 	0.7357	0.0711	0.4412	0.089
Mof_C 	C 	0.7272	0.9485	0.4137	0.046
Mof_C 	C 	0.7045	0.9028	0.3787	-0.118
Mof_H 	H 	0.7089	0.8407	0.3741	0.081
Mof_C 	C 	0.6757	0.9481	0.351	0.066
Mof_H 	H 	0.6605	0.9164	0.3271	-0.004
Mof_C 	C 	0.7847	0.5281	0.449	0.068
Mof_H 	H 	0.7662	0.4868	0.4336	-0.016
Mof_C 	C 	0.778	0.6227	0.4436	-0.121
Mof_H 	H 	0.7567	0.6444	0.4224	0.078
Mof_C 	C 	0.8025	0.6818	0.4692	0.065
Mof_C 	C 	0.8346	0.6481	0.495	-0.128
Mof_H 	H 	0.8532	0.6875	0.5116	0.086
Mof_C 	C 	0.8407	0.5548	0.4973	0.076
Mof_H 	H 	0.8634	0.5322	0.516	-0.017
Mof_C 	C 	0.8825	0.9727	0.6034	0.066
Mof_H 	H 	0.9027	0.9431	0.6233	-0.004
Mof_C 	C 	0.861	0.9225	0.5684	-0.116
Mof_H 	H 	0.8668	0.861	0.5641	0.091
Mof_C 	C 	0.8312	0.9662	0.5404	0.057
Mof_C 	C 	0.8255	0.0556	0.5468	-0.129
Mof_H 	H 	0.8062	0.0876	0.5269	0.074
Mof_C 	C 	0.8479	0.0998	0.5822	0.07
Mof_H 	H 	0.8429	0.1617	0.5866	-0.018
Mof_C 	C 	0.7599	0.9034	0.445	0.087
Mof_C 	C 	0.7951	0.7811	0.4683	0.099
Mof_C 	C 	0.8079	0.9137	0.5036	0.102
Mof_C 	C 	0.9059	0.9979	0.7277	0.066
Mof_H 	H 	0.8842	0.0359	0.7281	-0.015
Mof_C 	C 	0.9107	0.9215	0.7548	-0.116
Mof_H 	H 	0.8926	0.9077	0.7728	0.077
Mof_C 	C 	0.9421	0.8672	0.7547	0.048
Mof_C 	C 	0.9677	0.8912	0.7288	-0.112
Mof_H 	H 	0.9902	0.8557	0.729	0.068
Mof_C 	C 	0.961	0.9674	0.7022	0.06
Mof_H 	H 	0.9787	0.9825	0.6841	-0.007
Mof_C 	C 	0.0626	0.5295	0.7713	0.073
Mof_H 	H 	0.0715	0.5165	0.7451	-0.009
Mof_C 	C 	0.0309	0.5881	0.7695	-0.118
Mof_H 	H 	0.0196	0.617	0.7427	0.076
Mof_C 	C 	0.0164	0.6031	0.8072	0.044
Mof_C 	C 	0.0362	0.5643	0.8461	-0.121
Mof_H 	H 	0.0284	0.576	0.8731	0.083
Mof_C 	C 	0.0671	0.509	0.845	0.072
Mof_H 	H 	0.0799	0.4811	0.8715	-0.017
Mof_C 	C 	0.8509	0.7153	0.8984	0.071
Mof_H 	H 	0.8271	0.7468	0.8957	-0.012
Mof_C 	C 	0.8745	0.7325	0.8674	-0.125
Mof_H 	H 	0.8668	0.7755	0.8447	0.084
Mof_C 	C 	0.9079	0.6874	0.8706	0.077
Mof_C 	C 	0.9173	0.6235	0.9022	-0.135
Mof_H 	H 	0.9404	0.5894	0.9044	0.087
Mof_C 	C 	0.893	0.6087	0.9307	0.084
Mof_H 	H 	0.8994	0.5615	0.9516	-0.022
Mof_C 	C 	0.9484	0.7852	0.7828	0.086
Mof_C 	C 	0.9832	0.6635	0.807	0.093
Mof_C 	C 	0.9335	0.7044	0.8379	0.096
Mof_C 	C 	0.8418	0.4442	0.9958	0.065
Mof_H 	H 	0.8651	0.4671	0.013	-0.017
Mof_C 	C 	0.836	0.3528	0.9953	-0.119
Mof_H 	H 	0.8543	0.3142	0.0128	0.082
Mof_C 	C 	0.8027	0.3177	0.9687	0.053
Mof_C 	C 	0.7755	0.3784	0.9454	-0.121
Mof_H 	H 	0.7518	0.3577	0.9282	0.077
Mof_C 	C 	0.7843	0.4686	0.9484	0.073
Mof_H 	H 	0.7665	0.5093	0.9315	-0.012
Mof_C 	C 	0.6879	0.9226	0.8938	0.07
Mof_H 	H 	0.682	0.8613	0.8984	-0.007
Mof_C 	C 	0.7169	0.9624	0.923	-0.126
Mof_H 	H 	0.7306	0.9299	0.9476	0.089
Mof_C 	C 	0.7262	0.0531	0.9161	0.043
Mof_C 	C 	0.7039	0.0978	0.8808	-0.123
Mof_H 	H 	0.7081	0.1599	0.876	0.081
Mof_C 	C 	0.6756	0.0509	0.853	0.073
Mof_H 	H 	0.6613	0.0815	0.8281	-0.007
Mof_C 	C 	0.883	0.0293	0.1027	0.081
Mof_H 	H 	0.9032	0.06	0.1221	-0.009
Mof_C 	C 	0.8614	0.0754	0.0702	-0.138
Mof_H 	H 	0.8665	0.1376	0.0669	0.097
Mof_C 	C 	0.8322	0.0355	0.0417	0.068
Mof_C 	C 	0.8258	0.9439	0.0476	-0.137
Mof_H 	H 	0.8059	0.9122	0.0283	0.078
Mof_C 	C 	0.8496	0.9006	0.0825	0.08
Mof_H 	H 	0.8452	0.8384	0.0869	-0.021
Mof_C 	C 	0.7944	0.2195	0.9704	0.105
Mof_C 	C 	0.7583	0.0973	0.9469	0.088
Mof_C 	C 	0.8082	0.0871	0.0045	0.094
Mof_Zn	Zn	0.323	0.8593	0.4741	0.593
Mof_I 	I 	0.2598	0.7767	0.448	-0.331
Mof_I 	I 	0.3672	0.8344	0.5509	-0.073
Mof_Zn	Zn	0.6273	0.0953	0.3053	0.588
Mof_I 	I 	0.616	0.2475	0.3392	-0.044
Mof_I 	I 	0.6507	0.0795	0.2353	-0.291
Mof_I 	I 	0.9711	0.165	0.6239	-0.117
Mof_I 	I 	0.8733	0.233	0.69471	-0.216
Mof_Zn	Zn	0.1255	0.4089	0.811	0.546
Mof_I 	I 	0.1054	0.2685	0.8473	-0.079
Mof_I 	I 	0.14976	0.387	0.74358	-0.142
Mof_I 	I 	0.7666	0.727	0.9503	-0.185
Mof_I 	I 	0.8756	0.6702	0.0482	-0.141
Mof_I 	I 	0.8792	0.7703	0.1968	-0.171
Mof_I 	I 	0.975	0.8498	0.1214	-0.158
Mof_Zn	Zn	0.83055	0.3606	0.48219	0.583
Mof_I 	I 	0.77049	0.26499	0.45978	-0.031
Mof_I 	I 	0.87705	0.3449	0.55589	-0.298
Mof_Zn	Zn	0.12461	0.5993	0.31278	0.549
Mof_I 	I 	0.10466	0.73668	0.35179	-0.309
Mof_I 	I 	0.14315	0.6	0.23842	-0.055
Mof_Zn	Zn	0.41556	0.62647	0.65774	1.158
Mof_I 	I 	0.47464	0.6494	0.62165	-0.207
Mof_I 	I 	0.38181	0.7407	0.69522	-0.127
Mof_Zn	Zn	0.625	0.895	0.8147	0.568
Mof_I 	I 	0.60341	0.7594	0.85393	-0.258
Mof_I 	I 	0.64759	0.9077	0.7404	-0.19
Mof_Zn	Zn	0.3296	0.13923	0.97925	1.158
Mof_I 	I 	0.26939	0.23579	0.95693	-0.151
Mof_I 	I 	0.37636	0.1554	0.05361	-0.231
Mof_Zn	Zn	0.4179	0.37673	0.15824	1.157
Mof_I 	I 	0.38466	0.25706	0.19624	-0.17
Mof_I 	I 	0.47644	0.3557	0.12311	-0.159
Mof_N 	N 	0.8615	0.3439	0.4326	-0.292
Mof_N 	N 	0.9294	0.9845	0.2021	-0.27
Mof_N 	N 	0.07901	0.5121	0.3096	-0.272
Mof_N 	N 	0.92431	0.2276	0.3128	-0.136
Mof_N 	N 	0.97558	0.2734	0.2789	-0.147
Mof_N 	N 	0.96063	0.3573	0.3386	-0.136
Mof_N 	N 	0.16822	0.5354	0.3563	-0.267
Mof_N 	N 	0.3161	0.9975	0.4747	-0.279
Mof_N 	N 	0.376	0.559	0.6103	-0.273
Mof_N 	N 	0.266	0.3154	0.4387	-0.141
Mof_N 	N 	0.3184	0.3283	0.4998	-0.135
Mof_N 	N 	0.27908	0.4551	0.477	-0.144
Mof_N 	N 	0.4298	0.5201	0.7016	-0.271
Mof_N 	N 	0.57999	0.9927	0.8084	-0.269
Mof_N 	N 	0.3609	0.1564	0.931	-0.282
Mof_N 	N 	0.47651	0.2282	0.77753	-0.151
Mof_N 	N 	0.46289	0.1466	0.8379	-0.136
Mof_N 	N 	0.42555	0.2768	0.8122	-0.137
Mof_N 	N 	0.3164	0.0028	0.9734	-0.274
Mof_N 	N 	0.16718	0.4654	0.8588	-0.27
Mof_N 	N 	0.3778	0.4412	0.1096	-0.277
Mof_N 	N 	0.2646	0.6851	0.9411	-0.141
Mof_N 	N 	0.278	0.5466	0.9789	-0.141
Mof_N 	N 	0.31748	0.6746	0.0016	-0.136
Mof_C 	C 	0.8943	0.3839	0.4359	0.108
Mof_H 	H 	0.9026	0.4226	0.4603	-0.031
Mof_C 	C 	0.9177	0.3746	0.4067	-0.145
Mof_H 	H 	0.9412	0.4076	0.4105	0.09
Mof_C 	C 	0.9074	0.3165	0.3712	0.073
Mof_C 	C 	0.8717	0.274	0.3679	-0.133
Mof_H 	H 	0.8625	0.2342	0.3441	0.088
Mof_C 	C 	0.8506	0.2893	0.398	0.082
Mof_H 	H 	0.8263	0.2598	0.3948	-0.022
Mof_C 	C 	0.9023	0.0112	0.2237	0.068
Mof_H 	H 	0.879	0.9775	0.2205	-0.016
Mof_C 	C 	0.9068	0.0857	0.2504	-0.117
Mof_H 	H 	0.8869	0.1033	0.2652	0.077
Mof_C 	C 	0.9411	0.1354	0.2555	0.046
Mof_C 	C 	0.9687	0.1096	0.2325	-0.112
Mof_H 	H 	0.9918	0.1435	0.2344	0.067
Mof_C 	C 	0.9622	0.0335	0.2065	0.06
Mof_H 	H 	0.9816	0.0149	0.1911	-0.009
Mof_C 	C 	0.0645	0.499	0.3442	0.094
Mof_H 	H 	0.077	0.5266	0.3708	-0.017
Mof_C 	C 	0.0322	0.4478	0.345	-0.136
Mof_H 	H 	0.0212	0.445	0.3705	0.089
Mof_C 	C 	0.0162	0.4	0.307	0.056
Mof_C 	C 	0.0323	0.4082	0.2711	-0.13
Mof_H 	H 	0.0218	0.3763	0.2449	0.078
Mof_C 	C 	0.0633	0.4624	0.2731	0.065
Mof_H 	H 	0.0748	0.4664	0.248	-0.008
Mof_C 	C 	0.9323	0.3001	0.3391	0.102
Mof_C 	C 	0.947	0.2172	0.284	0.092
Mof_C 	C 	0.9816	0.3417	0.3081	0.088
Mof_C 	C 	0.1898	0.5799	0.3896	0.067
Mof_H 	H 	0.1846	0.6417	0.3939	-0.001
Mof_C 	C 	0.2201	0.5375	0.4183	-0.123
Mof_H 	H 	0.2357	0.5711	0.4412	0.089
Mof_C 	C 	0.2272	0.4485	0.4137	0.046
Mof_C 	C 	0.2045	0.4028	0.3787	-0.118
Mof_H 	H 	0.2089	0.3407	0.3741	0.081
Mof_C 	C 	0.1757	0.4481	0.351	0.066
Mof_H 	H 	0.1605	0.4164	0.3271	-0.004
Mof_C 	C 	0.2847	0.0281	0.449	0.068
Mof_H 	H 	0.2662	0.9868	0.4336	-0.016
Mof_C 	C 	0.278	0.1227	0.4436	-0.121
Mof_H 	H 	0.2567	0.1444	0.4224	0.077
Mof_C 	C 	0.3025	0.1818	0.4692	0.065
Mof_C 	C 	0.3346	0.1481	0.495	-0.127
Mof_H 	H 	0.3532	0.1875	0.5116	0.086
Mof_C 	C 	0.3407	0.0548	0.4973	0.076
Mof_H 	H 	0.3634	0.0322	0.516	-0.017
Mof_C 	C 	0.3825	0.4727	0.6034	0.066
Mof_H 	H 	0.4027	0.4431	0.6233	-0.004
Mof_C 	C 	0.361	0.4225	0.5684	-0.116
Mof_H 	H 	0.3668	0.361	0.5641	0.091
Mof_C 	C 	0.3312	0.4662	0.5404	0.057
Mof_C 	C 	0.3255	0.5556	0.5468	-0.129
Mof_H 	H 	0.3062	0.5876	0.5269	0.074
Mof_C 	C 	0.3479	0.5998	0.5822	0.07
Mof_H 	H 	0.3429	0.6617	0.5866	-0.018
Mof_C 	C 	0.2599	0.4034	0.445	0.087
Mof_C 	C 	0.2951	0.2811	0.4683	0.099
Mof_C 	C 	0.3079	0.4137	0.5036	0.102
Mof_C 	C 	0.4059	0.4979	0.7277	0.066
Mof_H 	H 	0.3842	0.5359	0.7281	-0.015
Mof_C 	C 	0.4107	0.4215	0.7548	-0.116
Mof_H 	H 	0.3926	0.4077	0.7728	0.077
Mof_C 	C 	0.4421	0.3672	0.7547	0.048
Mof_C 	C 	0.4677	0.3912	0.7288	-0.112
Mof_H 	H 	0.4902	0.3557	0.729	0.068
Mof_C 	C 	0.461	0.4674	0.7022	0.06
Mof_H 	H 	0.4787	0.4825	0.6841	-0.007
Mof_C 	C 	0.5626	0.0295	0.7713	0.073
Mof_H 	H 	0.5715	0.0165	0.7451	-0.009
Mof_C 	C 	0.5309	0.0881	0.7695	-0.118
Mof_H 	H 	0.5196	0.117	0.7427	0.076
Mof_C 	C 	0.5164	0.1031	0.8072	0.044
Mof_C 	C 	0.5362	0.0643	0.8461	-0.121
Mof_H 	H 	0.5284	0.076	0.8731	0.083
Mof_C 	C 	0.5671	0.009	0.845	0.072
Mof_H 	H 	0.5799	0.9811	0.8715	-0.017
Mof_C 	C 	0.3509	0.2153	0.8984	0.071
Mof_H 	H 	0.3271	0.2468	0.8957	-0.012
Mof_C 	C 	0.3745	0.2325	0.8674	-0.125
Mof_H 	H 	0.3668	0.2755	0.8447	0.084
Mof_C 	C 	0.4079	0.1874	0.8706	0.077
Mof_C 	C 	0.4173	0.1235	0.9022	-0.135
Mof_H 	H 	0.4404	0.0894	0.9044	0.087
Mof_C 	C 	0.393	0.1087	0.9307	0.084
Mof_H 	H 	0.3994	0.0615	0.9516	-0.022
Mof_C 	C 	0.4484	0.2852	0.7828	0.086
Mof_C 	C 	0.4832	0.1635	0.807	0.093
Mof_C 	C 	0.4335	0.2044	0.8379	0.096
Mof_C 	C 	0.3418	0.9442	0.9958	0.065
Mof_H 	H 	0.3651	0.9671	0.013	-0.017
Mof_C 	C 	0.336	0.8528	0.9953	-0.118
Mof_H 	H 	0.3543	0.8142	0.0128	0.081
Mof_C 	C 	0.3027	0.8177	0.9687	0.053
Mof_C 	C 	0.2755	0.8784	0.9454	-0.121
Mof_H 	H 	0.2518	0.8577	0.9282	0.077
Mof_C 	C 	0.2843	0.9686	0.9484	0.073
Mof_H 	H 	0.2665	0.0093	0.9315	-0.013
Mof_C 	C 	0.1879	0.4226	0.8938	0.07
Mof_H 	H 	0.182	0.3613	0.8984	-0.007
Mof_C 	C 	0.2169	0.4624	0.923	-0.126
Mof_H 	H 	0.2306	0.4299	0.9476	0.089
Mof_C 	C 	0.2262	0.5531	0.9161	0.043
Mof_C 	C 	0.2039	0.5978	0.8808	-0.123
Mof_H 	H 	0.2081	0.6599	0.876	0.081
Mof_C 	C 	0.1756	0.5509	0.853	0.073
Mof_H 	H 	0.1613	0.5815	0.8281	-0.007
Mof_C 	C 	0.383	0.5293	0.1027	0.081
Mof_H 	H 	0.4032	0.56	0.1221	-0.009
Mof_C 	C 	0.3614	0.5754	0.0702	-0.139
Mof_H 	H 	0.3665	0.6376	0.0669	0.097
Mof_C 	C 	0.3322	0.5355	0.0417	0.068
Mof_C 	C 	0.3258	0.4439	0.0476	-0.137
Mof_H 	H 	0.3059	0.4122	0.0283	0.078
Mof_C 	C 	0.3496	0.4006	0.0825	0.08
Mof_H 	H 	0.3452	0.3384	0.0869	-0.021
Mof_C 	C 	0.2944	0.7195	0.9704	0.105
Mof_C 	C 	0.2583	0.5973	0.9469	0.088
Mof_C 	C 	0.3082	0.5871	0.0045	0.094
Mof_Zn	Zn	0.823	0.3593	0.4741	0.593
Mof_I 	I 	0.7598	0.2767	0.448	-0.331
Mof_I 	I 	0.8672	0.3344	0.5509	-0.073
Mof_Zn	Zn	0.1273	0.5953	0.3053	0.588
Mof_I 	I 	0.116	0.7475	0.3392	-0.044
Mof_I 	I 	0.1507	0.5795	0.2353	-0.291
Mof_I 	I 	0.4711	0.665	0.6239	-0.116
Mof_I 	I 	0.3733	0.733	0.69471	-0.216
Mof_Zn	Zn	0.6255	0.9089	0.811	0.546
Mof_I 	I 	0.6054	0.7685	0.8473	-0.079
Mof_I 	I 	0.64976	0.887	0.74358	-0.142
Mof_I 	I 	0.2666	0.227	0.9503	-0.185
Mof_I 	I 	0.3756	0.1702	0.0482	-0.141
Mof_I 	I 	0.3792	0.2703	0.1968	-0.171
Mof_I 	I 	0.475	0.3498	0.1214	-0.158
_end
