data_functionalizedCrystal
_audit_creation_method	'EQeq! by Chris Wilmer'
_symmetry_space_group_name_H-M	'P1'
_symmetry_Int_Tables_number	1
_symmetry_cell_setting	triclinic
loop_
_symmetry_equiv_pos_as_xyz
  x,y,z
_cell_length_a	11.201
_cell_length_b	14.943
_cell_length_c	21.483
_cell_angle_alpha	90
_cell_angle_beta	92.096
_cell_angle_gamma	90
loop_
_atom_site_label
_atom_site_type_symbol
_atom_site_fract_x
_atom_site_fract_y
_atom_site_fract_z
_atom_site_charge
Mof_Ni	Ni	0.9017	0.2374	0.69967	1.031
Mof_N 	N 	0.0755	0.1549	0.5471	-0.089
Mof_N 	N 	0.018	0.2137	0.6326	-0.263
Mof_N 	N 	0.773	0.2575	0.7612	-0.275
Mof_N 	N 	0.643	0.0778	0.6149	-0.103
Mof_N 	N 	0.6194	0.2266	0.8176	-0.1
Mof_N 	N 	0.4875	0.8258	0.7612	-0.273
Mof_N 	N 	0.7914	0.1493	0.6582	-0.277
Mof_N 	N 	0.408	0.927	0.6939	-0.096
Mof_N 	N 	0.381	0.9492	0.7529	-0.092
Mof_N 	N 	0.631	0.3202	0.8158	-0.1
Mof_N 	N 	0.717	0.0124	0.6358	-0.096
Mof_N 	N 	0.162	0.1401	0.5879	-0.098
Mof_C 	C 	0.989	0.1983	0.5721	0.078
Mof_H 	H 	0.9185	0.2159	0.5515	-0.018
Mof_C 	C 	0.7085	0.1952	0.7863	0.101
Mof_H 	H 	0.7245	0.1344	0.7824	-0.027
Mof_C 	C 	0.428	0.885	0.7918	0.083
Mof_H 	H 	0.4182	0.8832	0.8346	-0.021
Mof_C 	C 	0.487	0.1	0.8321	-0.089
Mof_H 	H 	0.4509	0.0674	0.8654	0.046
Mof_H 	H 	0.5523	0.0642	0.8172	0.055
Mof_C 	C 	0.538	0.186	0.8585	-0.049
Mof_H 	H 	0.4738	0.2275	0.866	0.049
Mof_H 	H 	0.5795	0.1738	0.8981	0.041
Mof_C 	C 	0.805	0.0593	0.6623	0.084
Mof_H 	H 	0.871	0.0328	0.6822	-0.022
Mof_C 	C 	0.687	0.1533	0.6278	0.114
Mof_H 	H 	0.649	0.2069	0.6169	-0.028
Mof_C 	C 	0.533	0.055	0.5777	-0.051
Mof_H 	H 	0.483	0.1074	0.5737	0.048
Mof_H 	H 	0.4891	0.0096	0.6	0.061
Mof_C 	C 	0.078	0.118	0.4829	-0.061
Mof_H 	H 	0.1553	0.1309	0.4653	0.058
Mof_H 	H 	0.0168	0.1465	0.4566	0.051
Mof_C 	C 	0.473	0.854	0.6987	0.075
Mof_H 	H 	0.5049	0.8243	0.6651	-0.008
Mof_C 	C 	0.057	0.014	0.4858	-0.087
Mof_H 	H 	0.0578	0.99	0.4438	0.061
Mof_H 	H 	0.123	0.9867	0.5094	0.062
Mof_C 	C 	0.725	0.334	0.7804	0.09
Mof_H 	H 	0.7536	0.3908	0.7704	-0.014
Mof_C 	C 	0.557	0.0198	0.5136	-0.103
Mof_H 	H 	0.6194	0.9745	0.5161	0.068
Mof_H 	H 	0.5842	0.0682	0.4874	0.06
Mof_C 	C 	0.396	0.1124	0.7796	-0.109
Mof_H 	H 	0.4357	0.1231	0.741	0.072
Mof_H 	H 	0.3463	0.1641	0.7879	0.057
Mof_C 	C 	0.131	0.1738	0.639	0.082
Mof_H 	H 	0.1764	0.1721	0.6759	-0.015
Mof_C 	C 	0.315	0.0276	0.7726	-0.044
Mof_H 	H 	0.2801	0.015	0.8123	0.037
Mof_H 	H 	0.2509	0.0397	0.7424	0.043
Mof_Ni	Ni	0.5983	0.7374	0.80033	1.032
Mof_N 	N 	0.4245	0.6549	0.9529	-0.091
Mof_N 	N 	0.482	0.7137	0.8674	-0.265
Mof_N 	N 	0.727	0.7575	0.7388	-0.275
Mof_N 	N 	0.857	0.5778	0.8851	-0.103
Mof_N 	N 	0.8806	0.7266	0.6824	-0.1
Mof_N 	N 	0.0125	0.3258	0.7388	-0.273
Mof_N 	N 	0.7086	0.6493	0.8418	-0.277
Mof_N 	N 	0.092	0.427	0.8061	-0.096
Mof_N 	N 	0.119	0.4492	0.7471	-0.092
Mof_N 	N 	0.869	0.8202	0.6842	-0.1
Mof_N 	N 	0.783	0.5124	0.8642	-0.096
Mof_N 	N 	0.338	0.6401	0.9121	-0.098
Mof_C 	C 	0.511	0.6983	0.9279	0.082
Mof_H 	H 	0.5815	0.7159	0.9485	-0.019
Mof_C 	C 	0.7915	0.6952	0.7137	0.102
Mof_H 	H 	0.7755	0.6344	0.7176	-0.027
Mof_C 	C 	0.072	0.385	0.7082	0.083
Mof_H 	H 	0.0818	0.3832	0.6654	-0.021
Mof_C 	C 	0.013	0.6	0.6679	-0.093
Mof_H 	H 	0.0491	0.5674	0.6346	0.047
Mof_H 	H 	0.9477	0.5642	0.6828	0.056
Mof_C 	C 	0.962	0.686	0.6415	-0.045
Mof_H 	H 	0.0262	0.7275	0.634	0.047
Mof_H 	H 	0.9205	0.6738	0.6019	0.04
Mof_C 	C 	0.695	0.5593	0.8377	0.084
Mof_H 	H 	0.629	0.5328	0.8178	-0.021
Mof_C 	C 	0.813	0.6533	0.8722	0.114
Mof_H 	H 	0.851	0.7069	0.8831	-0.028
Mof_C 	C 	0.967	0.555	0.9223	-0.051
Mof_H 	H 	0.017	0.6074	0.9263	0.048
Mof_H 	H 	0.0109	0.5096	0.9	0.061
Mof_C 	C 	0.422	0.618	0.0171	-0.058
Mof_H 	H 	0.3447	0.6309	0.0347	0.057
Mof_H 	H 	0.4832	0.6465	0.0434	0.049
Mof_C 	C 	0.027	0.354	0.8013	0.078
Mof_H 	H 	0.9951	0.3243	0.8349	-0.01
Mof_C 	C 	0.443	0.514	0.0142	-0.094
Mof_H 	H 	0.4422	0.49	0.0562	0.065
Mof_H 	H 	0.377	0.4867	0.9906	0.066
Mof_C 	C 	0.775	0.834	0.7196	0.09
Mof_H 	H 	0.7464	0.8908	0.7296	-0.013
Mof_C 	C 	0.943	0.5198	0.9864	-0.102
Mof_H 	H 	0.8806	0.4745	0.9839	0.067
Mof_H 	H 	0.9158	0.5682	0.0126	0.06
Mof_C 	C 	0.104	0.6124	0.7204	-0.106
Mof_H 	H 	0.0643	0.6231	0.759	0.071
Mof_H 	H 	0.1537	0.6641	0.7121	0.056
Mof_C 	C 	0.369	0.6738	0.861	0.081
Mof_H 	H 	0.3236	0.6721	0.8241	-0.015
Mof_C 	C 	0.185	0.5276	0.7274	-0.046
Mof_H 	H 	0.2199	0.515	0.6877	0.037
Mof_H 	H 	0.2491	0.5397	0.7576	0.043
Mof_Ni	Ni	0.0983	0.7626	0.30033	1.031
Mof_N 	N 	0.9245	0.8451	0.4529	-0.089
Mof_N 	N 	0.982	0.7863	0.3674	-0.263
Mof_N 	N 	0.227	0.7425	0.2388	-0.275
Mof_N 	N 	0.357	0.9222	0.3851	-0.103
Mof_N 	N 	0.3806	0.7734	0.1824	-0.1
Mof_N 	N 	0.5125	0.1742	0.2388	-0.273
Mof_N 	N 	0.2086	0.8507	0.3418	-0.277
Mof_N 	N 	0.592	0.073	0.3061	-0.096
Mof_N 	N 	0.619	0.0508	0.2471	-0.092
Mof_N 	N 	0.369	0.6798	0.1842	-0.1
Mof_N 	N 	0.283	0.9876	0.3642	-0.096
Mof_N 	N 	0.838	0.8599	0.4121	-0.098
Mof_C 	C 	0.011	0.8017	0.4279	0.078
Mof_H 	H 	0.0815	0.7841	0.4485	-0.018
Mof_C 	C 	0.2915	0.8048	0.2137	0.101
Mof_H 	H 	0.2755	0.8656	0.2176	-0.027
Mof_C 	C 	0.572	0.115	0.2082	0.083
Mof_H 	H 	0.5818	0.1168	0.1654	-0.021
Mof_C 	C 	0.513	0.9	0.1679	-0.089
Mof_H 	H 	0.5491	0.9326	0.1346	0.046
Mof_H 	H 	0.4477	0.9358	0.1828	0.055
Mof_C 	C 	0.462	0.814	0.1415	-0.049
Mof_H 	H 	0.5262	0.7725	0.134	0.049
Mof_H 	H 	0.4205	0.8262	0.1019	0.041
Mof_C 	C 	0.195	0.9407	0.3377	0.084
Mof_H 	H 	0.129	0.9672	0.3178	-0.022
Mof_C 	C 	0.313	0.8467	0.3722	0.114
Mof_H 	H 	0.351	0.7931	0.3831	-0.028
Mof_C 	C 	0.467	0.945	0.4223	-0.051
Mof_H 	H 	0.517	0.8926	0.4263	0.048
Mof_H 	H 	0.5109	0.9904	0.4	0.061
Mof_C 	C 	0.922	0.882	0.5171	-0.061
Mof_H 	H 	0.8447	0.8691	0.5347	0.058
Mof_H 	H 	0.9832	0.8535	0.5434	0.051
Mof_C 	C 	0.527	0.146	0.3013	0.075
Mof_H 	H 	0.4951	0.1757	0.3349	-0.008
Mof_C 	C 	0.943	0.986	0.5142	-0.087
Mof_H 	H 	0.9422	0.01	0.5562	0.061
Mof_H 	H 	0.877	0.0133	0.4906	0.062
Mof_C 	C 	0.275	0.666	0.2196	0.09
Mof_H 	H 	0.2464	0.6092	0.2296	-0.014
Mof_C 	C 	0.443	0.9802	0.4864	-0.103
Mof_H 	H 	0.3806	0.0255	0.4839	0.068
Mof_H 	H 	0.4158	0.9318	0.5126	0.06
Mof_C 	C 	0.604	0.8876	0.2204	-0.109
Mof_H 	H 	0.5643	0.8769	0.259	0.072
Mof_H 	H 	0.6537	0.8359	0.2121	0.057
Mof_C 	C 	0.869	0.8262	0.361	0.082
Mof_H 	H 	0.8236	0.8279	0.3241	-0.015
Mof_C 	C 	0.685	0.9724	0.2274	-0.044
Mof_H 	H 	0.7199	0.985	0.1877	0.037
Mof_H 	H 	0.7491	0.9603	0.2576	0.043
Mof_Ni	Ni	0.4017	0.2626	0.19967	1.032
Mof_N 	N 	0.5755	0.3451	0.0471	-0.091
Mof_N 	N 	0.518	0.2863	0.1326	-0.265
Mof_N 	N 	0.273	0.2425	0.2612	-0.275
Mof_N 	N 	0.143	0.4222	0.1149	-0.103
Mof_N 	N 	0.1194	0.2734	0.3176	-0.1
Mof_N 	N 	0.9875	0.6742	0.2612	-0.273
Mof_N 	N 	0.2914	0.3507	0.1582	-0.277
Mof_N 	N 	0.908	0.573	0.1939	-0.096
Mof_N 	N 	0.881	0.5508	0.2529	-0.092
Mof_N 	N 	0.131	0.1798	0.3158	-0.1
Mof_N 	N 	0.217	0.4876	0.1358	-0.096
Mof_N 	N 	0.662	0.3599	0.0879	-0.098
Mof_C 	C 	0.489	0.3017	0.0721	0.082
Mof_H 	H 	0.4185	0.2841	0.0515	-0.019
Mof_C 	C 	0.2085	0.3048	0.2863	0.102
Mof_H 	H 	0.2245	0.3656	0.2824	-0.027
Mof_C 	C 	0.928	0.615	0.2918	0.083
Mof_H 	H 	0.9182	0.6168	0.3346	-0.021
Mof_C 	C 	0.987	0.4	0.3321	-0.093
Mof_H 	H 	0.9509	0.4326	0.3654	0.047
Mof_H 	H 	0.0523	0.4358	0.3172	0.056
Mof_C 	C 	0.038	0.314	0.3585	-0.045
Mof_H 	H 	0.9738	0.2725	0.366	0.047
Mof_H 	H 	0.0795	0.3262	0.3981	0.04
Mof_C 	C 	0.305	0.4407	0.1623	0.084
Mof_H 	H 	0.371	0.4672	0.1822	-0.021
Mof_C 	C 	0.187	0.3467	0.1278	0.114
Mof_H 	H 	0.149	0.2931	0.1169	-0.028
Mof_C 	C 	0.033	0.445	0.0777	-0.051
Mof_H 	H 	0.983	0.3926	0.0737	0.048
Mof_H 	H 	0.9891	0.4904	0.1	0.061
Mof_C 	C 	0.578	0.382	0.9829	-0.058
Mof_H 	H 	0.6553	0.3691	0.9653	0.057
Mof_H 	H 	0.5168	0.3535	0.9566	0.049
Mof_C 	C 	0.973	0.646	0.1987	0.078
Mof_H 	H 	0.0049	0.6757	0.1651	-0.01
Mof_C 	C 	0.557	0.486	0.9858	-0.094
Mof_H 	H 	0.5578	0.51	0.9438	0.065
Mof_H 	H 	0.623	0.5133	0.0094	0.066
Mof_C 	C 	0.225	0.166	0.2804	0.09
Mof_H 	H 	0.2536	0.1092	0.2704	-0.013
Mof_C 	C 	0.057	0.4802	0.0136	-0.102
Mof_H 	H 	0.1194	0.5255	0.0161	0.067
Mof_H 	H 	0.0842	0.4318	0.9874	0.06
Mof_C 	C 	0.896	0.3876	0.2796	-0.106
Mof_H 	H 	0.9357	0.3769	0.241	0.071
Mof_H 	H 	0.8463	0.3359	0.2879	0.056
Mof_C 	C 	0.631	0.3262	0.139	0.081
Mof_H 	H 	0.6764	0.3279	0.1759	-0.015
Mof_C 	C 	0.815	0.4724	0.2726	-0.046
Mof_H 	H 	0.7801	0.485	0.3123	0.037
Mof_H 	H 	0.7509	0.4603	0.2424	0.043
_end
