data_functionalizedCrystal
_audit_creation_method	'EQeq! by Chris Wilmer'
_symmetry_space_group_name_H-M	'P1'
_symmetry_Int_Tables_number	1
_symmetry_cell_setting	triclinic
loop_
_symmetry_equiv_pos_as_xyz
  x,y,z
_cell_length_a	27.662
_cell_length_b	27.662
_cell_length_c	27.662
_cell_angle_alpha	60
_cell_angle_beta	60
_cell_angle_gamma	60
loop_
_atom_site_label
_atom_site_type_symbol
_atom_site_fract_x
_atom_site_fract_y
_atom_site_fract_z
_atom_site_charge
Mof_Zr	Zr	0.45476	0.45475	0.98152	3.196
Mof_Zr	Zr	0.45476	0.45475	0.10897	3.172
Mof_Zr	Zr	0.98153	0.10897	0.45475	3.195
Mof_Zr	Zr	0.10898	0.98152	0.45475	3.195
Mof_Zr	Zr	0.45476	0.98152	0.10897	3.195
Mof_Zr	Zr	0.45476	0.10897	0.98152	3.195
Mof_Zr	Zr	0.98153	0.45475	0.45475	3.196
Mof_Zr	Zr	0.10898	0.45475	0.45475	3.172
Mof_Zr	Zr	0.45476	0.10897	0.45475	3.172
Mof_Zr	Zr	0.45476	0.98152	0.45475	3.196
Mof_Zr	Zr	0.98153	0.45475	0.10897	3.196
Mof_Zr	Zr	0.10898	0.45475	0.98152	3.196
Mof_Zr	Zr	0.54524	0.54525	0.01848	3.153
Mof_Zr	Zr	0.54524	0.54525	0.89103	3.176
Mof_Zr	Zr	0.89102	0.01848	0.54525	3.153
Mof_Zr	Zr	0.01847	0.89103	0.54525	3.153
Mof_Zr	Zr	0.01847	0.54525	0.89103	3.153
Mof_Zr	Zr	0.89102	0.54525	0.01848	3.153
Mof_Zr	Zr	0.54524	0.01848	0.54525	3.153
Mof_Zr	Zr	0.54524	0.89103	0.54525	3.176
Mof_Zr	Zr	0.89102	0.54525	0.54525	3.176
Mof_Zr	Zr	0.01847	0.54525	0.54525	3.153
Mof_Zr	Zr	0.54524	0.01848	0.89103	3.153
Mof_Zr	Zr	0.54524	0.89103	0.01848	3.153
Mof_Zr	Zr	0.58911	0.41089	-0	3.178
Mof_Zr	Zr	0.41089	0.58911	-0	3.178
Mof_Zr	Zr	-3.03833e-17	0	0.58911	3.142
Mof_Zr	Zr	-4.55749e-17	-3.03833e-17	0.41089	3.142
Mof_Zr	Zr	0.58911	0	-0	3.142
Mof_Zr	Zr	0.41089	0	-0	3.142
Mof_Zr	Zr	1.51916e-17	0.58911	0.41089	3.178
Mof_Zr	Zr	-3.03833e-17	0.41089	0.58911	3.178
Mof_Zr	Zr	0.58911	-3.03833e-17	0.41089	3.178
Mof_Zr	Zr	0.41089	0	0.58911	3.178
Mof_Zr	Zr	-3.03833e-17	0.41089	-0	3.142
Mof_Zr	Zr	-0	0.58911	-0	3.142
Mof_H 	H 	0.6559	0.2199	0.1321	-0.014
Mof_H 	H 	0.2199	0.6559	0.9921	0.085
Mof_H 	H 	0.1321	0.9921	0.6559	0.051
Mof_H 	H 	0.9921	0.1321	0.2199	0.031
Mof_H 	H 	0.6559	0.1321	0.9921	0.051
Mof_H 	H 	0.2199	0.9921	0.1321	0.031
Mof_H 	H 	0.1321	0.6559	0.2199	-0.014
Mof_H 	H 	0.9921	0.2199	0.6559	0.085
Mof_H 	H 	0.6559	0.9921	0.2199	0.085
Mof_H 	H 	0.2199	0.1321	0.6559	-0.014
Mof_H 	H 	0.1321	0.2199	0.9921	0.031
Mof_H 	H 	0.9921	0.6559	0.1321	0.051
Mof_H 	H 	0.7801	0.3441	0.8679	0.088
Mof_H 	H 	0.3441	0.7801	0.0079	-0.011
Mof_H 	H 	0.0079	0.8679	0.3441	0.024
Mof_H 	H 	0.8679	0.0079	0.7801	0.044
Mof_H 	H 	0.8679	0.3441	0.0079	0.024
Mof_H 	H 	0.0079	0.7801	0.8679	0.044
Mof_H 	H 	0.3441	0.8679	0.7801	0.088
Mof_H 	H 	0.7801	0.0079	0.3441	-0.011
Mof_H 	H 	0.0079	0.3441	0.7801	-0.011
Mof_H 	H 	0.8679	0.7801	0.3441	0.088
Mof_H 	H 	0.7801	0.8679	0.0079	0.044
Mof_H 	H 	0.3441	0.0079	0.8679	0.024
Mof_H 	H 	0.3441	0.7801	0.8679	0.088
Mof_H 	H 	0.7801	0.3441	0.0079	-0.011
Mof_H 	H 	0.8679	0.0079	0.3441	0.024
Mof_H 	H 	0.0079	0.8679	0.7801	0.044
Mof_H 	H 	0.3441	0.8679	0.0079	0.024
Mof_H 	H 	0.7801	0.0079	0.8679	0.044
Mof_H 	H 	0.8679	0.3441	0.7801	0.088
Mof_H 	H 	0.0079	0.7801	0.3441	-0.011
Mof_H 	H 	0.3441	0.0079	0.7801	-0.011
Mof_H 	H 	0.7801	0.8679	0.3441	0.088
Mof_H 	H 	0.8679	0.7801	0.0079	0.044
Mof_H 	H 	0.0079	0.3441	0.8679	0.024
Mof_H 	H 	0.2199	0.6559	0.1321	-0.014
Mof_H 	H 	0.6559	0.2199	0.9921	0.085
Mof_H 	H 	0.9921	0.1321	0.6559	0.051
Mof_H 	H 	0.1321	0.9921	0.2199	0.031
Mof_H 	H 	0.1321	0.6559	0.9921	0.051
Mof_H 	H 	0.9921	0.2199	0.1321	0.031
Mof_H 	H 	0.6559	0.1321	0.2199	-0.014
Mof_H 	H 	0.2199	0.9921	0.6559	0.085
Mof_H 	H 	0.9921	0.6559	0.2199	0.085
Mof_H 	H 	0.1321	0.2199	0.6559	-0.014
Mof_H 	H 	0.2199	0.1321	0.9921	0.031
Mof_H 	H 	0.6559	0.9921	0.1321	0.051
Mof_C 	C 	0.55955	0.32625	0.13441	0.536
Mof_C 	C 	0.57598	0.26642	0.1777	-0.18
Mof_C 	C 	0.62539	0.21881	0.16839	-0.012
Mof_C 	C 	0.32625	0.55955	0.97979	0.53
Mof_C 	C 	0.26642	0.57598	0.9799	-0.122
Mof_C 	C 	0.21881	0.62539	0.98741	0.004
Mof_C 	C 	0.13441	0.97979	0.55955	0.541
Mof_C 	C 	0.1777	0.9799	0.57598	-0.15
Mof_C 	C 	0.16839	0.98741	0.62539	0.029
Mof_C 	C 	0.97979	0.13441	0.32625	0.538
Mof_C 	C 	0.9799	0.1777	0.26642	-0.152
Mof_C 	C 	0.98741	0.16839	0.21881	0.007
Mof_C 	C 	0.55955	0.13441	0.97979	0.541
Mof_C 	C 	0.57598	0.1777	0.9799	-0.15
Mof_C 	C 	0.62539	0.16839	0.98741	0.029
Mof_C 	C 	0.32625	0.97979	0.13441	0.538
Mof_C 	C 	0.26642	0.9799	0.1777	-0.152
Mof_C 	C 	0.21881	0.98741	0.16839	0.007
Mof_C 	C 	0.13441	0.55955	0.32625	0.536
Mof_C 	C 	0.1777	0.57598	0.26642	-0.18
Mof_C 	C 	0.16839	0.62539	0.21881	-0.012
Mof_C 	C 	0.97979	0.32625	0.55955	0.53
Mof_C 	C 	0.9799	0.26642	0.57598	-0.122
Mof_C 	C 	0.98741	0.21881	0.62539	0.004
Mof_C 	C 	0.55955	0.97979	0.32625	0.53
Mof_C 	C 	0.57598	0.9799	0.26642	-0.122
Mof_C 	C 	0.62539	0.98741	0.21881	0.004
Mof_C 	C 	0.32625	0.13441	0.55955	0.536
Mof_C 	C 	0.26642	0.1777	0.57598	-0.18
Mof_C 	C 	0.21881	0.16839	0.62539	-0.012
Mof_C 	C 	0.13441	0.32625	0.97979	0.538
Mof_C 	C 	0.1777	0.26642	0.9799	-0.152
Mof_C 	C 	0.16839	0.21881	0.98741	0.007
Mof_C 	C 	0.97979	0.55955	0.13441	0.541
Mof_C 	C 	0.9799	0.57598	0.1777	-0.15
Mof_C 	C 	0.98741	0.62539	0.16839	0.029
Mof_C 	C 	0.67375	0.44045	0.86559	0.529
Mof_C 	C 	0.73358	0.42402	0.8223	-0.126
Mof_C 	C 	0.78119	0.37461	0.83161	0.021
Mof_C 	C 	0.44045	0.67375	0.02021	0.535
Mof_C 	C 	0.42402	0.73358	0.0201	-0.183
Mof_C 	C 	0.37461	0.78119	0.01259	0.006
Mof_C 	C 	0.02021	0.86559	0.44045	0.52
Mof_C 	C 	0.0201	0.8223	0.42402	-0.154
Mof_C 	C 	0.01259	0.83161	0.37461	-0.02
Mof_C 	C 	0.86559	0.02021	0.67375	0.524
Mof_C 	C 	0.8223	0.0201	0.73358	-0.152
Mof_C 	C 	0.83161	0.01259	0.78119	0.003
Mof_C 	C 	0.86559	0.44045	0.02021	0.52
Mof_C 	C 	0.8223	0.42402	0.0201	-0.154
Mof_C 	C 	0.83161	0.37461	0.01259	-0.02
Mof_C 	C 	0.02021	0.67375	0.86559	0.524
Mof_C 	C 	0.0201	0.73358	0.8223	-0.152
Mof_C 	C 	0.01259	0.78119	0.83161	0.003
Mof_C 	C 	0.44045	0.86559	0.67375	0.529
Mof_C 	C 	0.42402	0.8223	0.73358	-0.126
Mof_C 	C 	0.37461	0.83161	0.78119	0.021
Mof_C 	C 	0.67375	0.02021	0.44045	0.535
Mof_C 	C 	0.73358	0.0201	0.42402	-0.183
Mof_C 	C 	0.78119	0.01259	0.37461	0.006
Mof_C 	C 	0.02021	0.44045	0.67375	0.535
Mof_C 	C 	0.0201	0.42402	0.73358	-0.183
Mof_C 	C 	0.01259	0.37461	0.78119	0.006
Mof_C 	C 	0.86559	0.67375	0.44045	0.529
Mof_C 	C 	0.8223	0.73358	0.42402	-0.126
Mof_C 	C 	0.83161	0.78119	0.37461	0.021
Mof_C 	C 	0.67375	0.86559	0.02021	0.524
Mof_C 	C 	0.73358	0.8223	0.0201	-0.152
Mof_C 	C 	0.78119	0.83161	0.01259	0.003
Mof_C 	C 	0.44045	0.02021	0.86559	0.52
Mof_C 	C 	0.42402	0.0201	0.8223	-0.154
Mof_C 	C 	0.37461	0.01259	0.83161	-0.02
Mof_C 	C 	0.44045	0.67375	0.86559	0.529
Mof_C 	C 	0.42402	0.73358	0.8223	-0.126
Mof_C 	C 	0.37461	0.78119	0.83161	0.021
Mof_C 	C 	0.67375	0.44045	0.02021	0.535
Mof_C 	C 	0.73358	0.42402	0.0201	-0.183
Mof_C 	C 	0.78119	0.37461	0.01259	0.006
Mof_C 	C 	0.86559	0.02021	0.44045	0.52
Mof_C 	C 	0.8223	0.0201	0.42402	-0.154
Mof_C 	C 	0.83161	0.01259	0.37461	-0.02
Mof_C 	C 	0.02021	0.86559	0.67375	0.524
Mof_C 	C 	0.0201	0.8223	0.73358	-0.152
Mof_C 	C 	0.01259	0.83161	0.78119	0.003
Mof_C 	C 	0.44045	0.86559	0.02021	0.52
Mof_C 	C 	0.42402	0.8223	0.0201	-0.154
Mof_C 	C 	0.37461	0.83161	0.01259	-0.02
Mof_C 	C 	0.67375	0.02021	0.86559	0.524
Mof_C 	C 	0.73358	0.0201	0.8223	-0.152
Mof_C 	C 	0.78119	0.01259	0.83161	0.003
Mof_C 	C 	0.86559	0.44045	0.67375	0.529
Mof_C 	C 	0.8223	0.42402	0.73358	-0.126
Mof_C 	C 	0.83161	0.37461	0.78119	0.021
Mof_C 	C 	0.02021	0.67375	0.44045	0.535
Mof_C 	C 	0.0201	0.73358	0.42402	-0.183
Mof_C 	C 	0.01259	0.78119	0.37461	0.006
Mof_C 	C 	0.44045	0.02021	0.67375	0.535
Mof_C 	C 	0.42402	0.0201	0.73358	-0.183
Mof_C 	C 	0.37461	0.01259	0.78119	0.006
Mof_C 	C 	0.67375	0.86559	0.44045	0.529
Mof_C 	C 	0.73358	0.8223	0.42402	-0.126
Mof_C 	C 	0.78119	0.83161	0.37461	0.021
Mof_C 	C 	0.86559	0.67375	0.02021	0.524
Mof_C 	C 	0.8223	0.73358	0.0201	-0.152
Mof_C 	C 	0.83161	0.78119	0.01259	0.003
Mof_C 	C 	0.02021	0.44045	0.86559	0.52
Mof_C 	C 	0.0201	0.42402	0.8223	-0.154
Mof_C 	C 	0.01259	0.37461	0.83161	-0.02
Mof_C 	C 	0.32625	0.55955	0.13441	0.536
Mof_C 	C 	0.26642	0.57598	0.1777	-0.18
Mof_C 	C 	0.21881	0.62539	0.16839	-0.012
Mof_C 	C 	0.55955	0.32625	0.97979	0.53
Mof_C 	C 	0.57598	0.26642	0.9799	-0.122
Mof_C 	C 	0.62539	0.21881	0.98741	0.004
Mof_C 	C 	0.97979	0.13441	0.55955	0.541
Mof_C 	C 	0.9799	0.1777	0.57598	-0.15
Mof_C 	C 	0.98741	0.16839	0.62539	0.029
Mof_C 	C 	0.13441	0.97979	0.32625	0.538
Mof_C 	C 	0.1777	0.9799	0.26642	-0.152
Mof_C 	C 	0.16839	0.98741	0.21881	0.007
Mof_C 	C 	0.13441	0.55955	0.97979	0.541
Mof_C 	C 	0.1777	0.57598	0.9799	-0.15
Mof_C 	C 	0.16839	0.62539	0.98741	0.029
Mof_C 	C 	0.97979	0.32625	0.13441	0.538
Mof_C 	C 	0.9799	0.26642	0.1777	-0.152
Mof_C 	C 	0.98741	0.21881	0.16839	0.007
Mof_C 	C 	0.55955	0.13441	0.32625	0.536
Mof_C 	C 	0.57598	0.1777	0.26642	-0.18
Mof_C 	C 	0.62539	0.16839	0.21881	-0.012
Mof_C 	C 	0.32625	0.97979	0.55955	0.53
Mof_C 	C 	0.26642	0.9799	0.57598	-0.122
Mof_C 	C 	0.21881	0.98741	0.62539	0.004
Mof_C 	C 	0.97979	0.55955	0.32625	0.53
Mof_C 	C 	0.9799	0.57598	0.26642	-0.122
Mof_C 	C 	0.98741	0.62539	0.21881	0.004
Mof_C 	C 	0.13441	0.32625	0.55955	0.536
Mof_C 	C 	0.1777	0.26642	0.57598	-0.18
Mof_C 	C 	0.16839	0.21881	0.62539	-0.012
Mof_C 	C 	0.32625	0.13441	0.97979	0.538
Mof_C 	C 	0.26642	0.1777	0.9799	-0.152
Mof_C 	C 	0.21881	0.16839	0.98741	0.007
Mof_C 	C 	0.55955	0.97979	0.13441	0.541
Mof_C 	C 	0.57598	0.9799	0.1777	-0.15
Mof_C 	C 	0.62539	0.98741	0.16839	0.029
Mof_S 	S 	0.52858	0.24878	0.24878	-0.078
Mof_S 	S 	0.24878	0.52858	0.97386	0.005
Mof_S 	S 	0.24878	0.97386	0.52858	0.005
Mof_S 	S 	0.97386	0.24878	0.24878	-0.008
Mof_S 	S 	0.52858	0.24878	0.97386	0.005
Mof_S 	S 	0.24878	0.97386	0.24878	-0.008
Mof_S 	S 	0.24878	0.52858	0.24878	-0.078
Mof_S 	S 	0.97386	0.24878	0.52858	0.005
Mof_S 	S 	0.52858	0.97386	0.24878	0.005
Mof_S 	S 	0.24878	0.24878	0.52858	-0.078
Mof_S 	S 	0.24878	0.24878	0.97386	-0.008
Mof_S 	S 	0.97386	0.52858	0.24878	0.005
Mof_S 	S 	0.75122	0.47142	0.75122	0.009
Mof_S 	S 	0.47142	0.75122	0.02614	-0.072
Mof_S 	S 	0.02614	0.75122	0.47142	-0.072
Mof_S 	S 	0.75122	0.02614	0.75122	-0.06
Mof_S 	S 	0.75122	0.47142	0.02614	-0.072
Mof_S 	S 	0.02614	0.75122	0.75122	-0.06
Mof_S 	S 	0.47142	0.75122	0.75122	0.009
Mof_S 	S 	0.75122	0.02614	0.47142	-0.072
Mof_S 	S 	0.02614	0.47142	0.75122	-0.072
Mof_S 	S 	0.75122	0.75122	0.47142	0.009
Mof_S 	S 	0.75122	0.75122	0.02614	-0.06
Mof_S 	S 	0.47142	0.02614	0.75122	-0.072
Mof_O 	O 	0.59627	0.33529	0.08271	-0.74
Mof_O 	O 	0.5097	0.36218	0.15278	-0.811
Mof_O 	O 	0.33529	0.59627	0.98573	-0.556
Mof_O 	O 	0.36218	0.5097	0.97534	-0.723
Mof_O 	O 	0.08271	0.98573	0.59627	-0.626
Mof_O 	O 	0.15278	0.97534	0.5097	-0.737
Mof_O 	O 	0.98573	0.08271	0.33529	-0.633
Mof_O 	O 	0.97534	0.15278	0.36218	-0.739
Mof_O 	O 	0.59627	0.08271	0.98573	-0.626
Mof_O 	O 	0.5097	0.15278	0.97534	-0.737
Mof_O 	O 	0.33529	0.98573	0.08271	-0.633
Mof_O 	O 	0.36218	0.97534	0.15278	-0.739
Mof_O 	O 	0.08271	0.59627	0.33529	-0.74
Mof_O 	O 	0.15278	0.5097	0.36218	-0.811
Mof_O 	O 	0.98573	0.33529	0.59627	-0.556
Mof_O 	O 	0.97534	0.36218	0.5097	-0.723
Mof_O 	O 	0.59627	0.98573	0.33529	-0.556
Mof_O 	O 	0.5097	0.97534	0.36218	-0.723
Mof_O 	O 	0.33529	0.08271	0.59627	-0.74
Mof_O 	O 	0.36218	0.15278	0.5097	-0.811
Mof_O 	O 	0.08271	0.33529	0.98573	-0.633
Mof_O 	O 	0.15278	0.36218	0.97534	-0.739
Mof_O 	O 	0.98573	0.59627	0.08271	-0.626
Mof_O 	O 	0.97534	0.5097	0.15278	-0.737
Mof_O 	O 	0.66471	0.40373	0.91729	-0.577
Mof_O 	O 	0.63782	0.4903	0.84722	-0.759
Mof_O 	O 	0.40373	0.66471	0.01427	-0.761
Mof_O 	O 	0.4903	0.63782	0.02466	-0.846
Mof_O 	O 	0.01427	0.91729	0.40373	-0.681
Mof_O 	O 	0.02466	0.84722	0.4903	-0.83
Mof_O 	O 	0.91729	0.01427	0.66471	-0.674
Mof_O 	O 	0.84722	0.02466	0.63782	-0.829
Mof_O 	O 	0.91729	0.40373	0.01427	-0.681
Mof_O 	O 	0.84722	0.4903	0.02466	-0.83
Mof_O 	O 	0.01427	0.66471	0.91729	-0.674
Mof_O 	O 	0.02466	0.63782	0.84722	-0.828
Mof_O 	O 	0.40373	0.91729	0.66471	-0.577
Mof_O 	O 	0.4903	0.84722	0.63782	-0.759
Mof_O 	O 	0.66471	0.01427	0.40373	-0.761
Mof_O 	O 	0.63782	0.02466	0.4903	-0.846
Mof_O 	O 	0.01427	0.40373	0.66471	-0.761
Mof_O 	O 	0.02466	0.4903	0.63782	-0.846
Mof_O 	O 	0.91729	0.66471	0.40373	-0.577
Mof_O 	O 	0.84722	0.63782	0.4903	-0.759
Mof_O 	O 	0.66471	0.91729	0.01427	-0.674
Mof_O 	O 	0.63782	0.84722	0.02466	-0.828
Mof_O 	O 	0.40373	0.01427	0.91729	-0.681
Mof_O 	O 	0.4903	0.02466	0.84722	-0.83
Mof_O 	O 	0.40373	0.66471	0.91729	-0.577
Mof_O 	O 	0.4903	0.63782	0.84722	-0.759
Mof_O 	O 	0.66471	0.40373	0.01427	-0.761
Mof_O 	O 	0.63782	0.4903	0.02466	-0.846
Mof_O 	O 	0.91729	0.01427	0.40373	-0.681
Mof_O 	O 	0.84722	0.02466	0.4903	-0.83
Mof_O 	O 	0.01427	0.91729	0.66471	-0.674
Mof_O 	O 	0.02466	0.84722	0.63782	-0.828
Mof_O 	O 	0.40373	0.91729	0.01427	-0.681
Mof_O 	O 	0.4903	0.84722	0.02466	-0.83
Mof_O 	O 	0.66471	0.01427	0.91729	-0.674
Mof_O 	O 	0.63782	0.02466	0.84722	-0.828
Mof_O 	O 	0.91729	0.40373	0.66471	-0.577
Mof_O 	O 	0.84722	0.4903	0.63782	-0.759
Mof_O 	O 	0.01427	0.66471	0.40373	-0.761
Mof_O 	O 	0.02466	0.63782	0.4903	-0.846
Mof_O 	O 	0.40373	0.01427	0.66471	-0.761
Mof_O 	O 	0.4903	0.02466	0.63782	-0.846
Mof_O 	O 	0.66471	0.91729	0.40373	-0.577
Mof_O 	O 	0.63782	0.84722	0.4903	-0.759
Mof_O 	O 	0.91729	0.66471	0.01427	-0.674
Mof_O 	O 	0.84722	0.63782	0.02466	-0.829
Mof_O 	O 	0.01427	0.40373	0.91729	-0.681
Mof_O 	O 	0.02466	0.4903	0.84722	-0.83
Mof_O 	O 	0.33529	0.59627	0.08271	-0.74
Mof_O 	O 	0.36218	0.5097	0.15278	-0.811
Mof_O 	O 	0.59627	0.33529	0.98573	-0.556
Mof_O 	O 	0.5097	0.36218	0.97534	-0.723
Mof_O 	O 	0.98573	0.08271	0.59627	-0.626
Mof_O 	O 	0.97534	0.15278	0.5097	-0.737
Mof_O 	O 	0.08271	0.98573	0.33529	-0.633
Mof_O 	O 	0.15278	0.97534	0.36218	-0.739
Mof_O 	O 	0.08271	0.59627	0.98573	-0.626
Mof_O 	O 	0.15278	0.5097	0.97534	-0.737
Mof_O 	O 	0.98573	0.33529	0.08271	-0.633
Mof_O 	O 	0.97534	0.36218	0.15278	-0.739
Mof_O 	O 	0.59627	0.08271	0.33529	-0.74
Mof_O 	O 	0.5097	0.15278	0.36218	-0.811
Mof_O 	O 	0.33529	0.98573	0.59627	-0.556
Mof_O 	O 	0.36218	0.97534	0.5097	-0.723
Mof_O 	O 	0.98573	0.59627	0.33529	-0.556
Mof_O 	O 	0.97534	0.5097	0.36218	-0.723
Mof_O 	O 	0.08271	0.33529	0.59627	-0.74
Mof_O 	O 	0.15278	0.36218	0.5097	-0.811
Mof_O 	O 	0.33529	0.08271	0.98573	-0.633
Mof_O 	O 	0.36218	0.15278	0.97534	-0.739
Mof_O 	O 	0.59627	0.98573	0.08271	-0.626
Mof_O 	O 	0.5097	0.97534	0.15278	-0.737
Mof_O 	O 	0.49854	0.41186	0.0448	-1.505
Mof_O 	O 	0.41186	0.49854	0.0448	-1.504
Mof_O 	O 	0.0448	0.0448	0.49854	-1.642
Mof_O 	O 	0.0448	0.0448	0.41186	-1.643
Mof_O 	O 	0.49854	0.0448	0.0448	-1.642
Mof_O 	O 	0.41186	0.0448	0.0448	-1.643
Mof_O 	O 	0.0448	0.49854	0.41186	-1.505
Mof_O 	O 	0.0448	0.41186	0.49854	-1.505
Mof_O 	O 	0.49854	0.0448	0.41186	-1.505
Mof_O 	O 	0.41186	0.0448	0.49854	-1.504
Mof_O 	O 	0.0448	0.41186	0.0448	-1.643
Mof_O 	O 	0.0448	0.49854	0.0448	-1.642
Mof_O 	O 	0.58814	0.50146	0.9552	-1.194
Mof_O 	O 	0.50146	0.58814	0.9552	-1.194
Mof_O 	O 	0.9552	0.9552	0.50146	-1.047
Mof_O 	O 	0.9552	0.9552	0.58814	-1.046
Mof_O 	O 	0.9552	0.50146	0.9552	-1.047
Mof_O 	O 	0.9552	0.58814	0.9552	-1.046
Mof_O 	O 	0.50146	0.9552	0.58814	-1.194
Mof_O 	O 	0.58814	0.9552	0.50146	-1.194
Mof_O 	O 	0.9552	0.50146	0.58814	-1.194
Mof_O 	O 	0.9552	0.58814	0.50146	-1.194
Mof_O 	O 	0.58814	0.9552	0.9552	-1.046
Mof_O 	O 	0.50146	0.9552	0.9552	-1.047
Mof_O 	O 	0.45654	0.54346	0.93626	-1.278
Mof_O 	O 	0.54346	0.45654	0.06374	-1.398
Mof_O 	O 	0.93626	0.06374	0.45654	-1.333
Mof_O 	O 	0.06374	0.93626	0.54346	-1.333
Mof_O 	O 	0.45654	0.93626	0.06374	-1.334
Mof_O 	O 	0.54346	0.06374	0.93626	-1.333
Mof_O 	O 	0.93626	0.45654	0.54346	-1.278
Mof_O 	O 	0.06374	0.54346	0.45654	-1.398
Mof_O 	O 	0.45654	0.06374	0.54346	-1.398
Mof_O 	O 	0.54346	0.93626	0.45654	-1.278
Mof_O 	O 	0.93626	0.54346	0.06374	-1.333
Mof_O 	O 	0.06374	0.45654	0.93626	-1.333
Mof_O 	O 	0.45654	0.54346	0.06374	-1.398
Mof_O 	O 	0.54346	0.45654	0.93626	-1.278
Mof_O 	O 	0.93626	0.06374	0.54346	-1.333
Mof_O 	O 	0.06374	0.93626	0.45654	-1.333
Mof_O 	O 	0.06374	0.54346	0.93626	-1.333
Mof_O 	O 	0.93626	0.45654	0.06374	-1.333
Mof_O 	O 	0.54346	0.06374	0.45654	-1.398
Mof_O 	O 	0.45654	0.93626	0.54346	-1.278
Mof_O 	O 	0.93626	0.54346	0.45654	-1.278
Mof_O 	O 	0.06374	0.45654	0.54346	-1.398
Mof_O 	O 	0.45654	0.06374	0.93626	-1.334
Mof_O 	O 	0.54346	0.93626	0.06374	-1.333
_end
