data_functionalizedCrystal
_audit_creation_method	'EQeq! by Chris Wilmer'
_symmetry_space_group_name_H-M	'P1'
_symmetry_Int_Tables_number	1
_symmetry_cell_setting	triclinic
loop_
_symmetry_equiv_pos_as_xyz
  x,y,z
_cell_length_a	23.316
_cell_length_b	28.011
_cell_length_c	36.079
_cell_angle_alpha	90
_cell_angle_beta	90
_cell_angle_gamma	90
loop_
_atom_site_label
_atom_site_type_symbol
_atom_site_fract_x
_atom_site_fract_y
_atom_site_fract_z
_atom_site_charge
Mof_O 	O 	0.809	0.16687	0.10009	-0.433
Mof_O 	O 	0.83164	0.18695	0.15779	-0.416
Mof_O 	O 	0.75033	0.32028	0.2945	-0.27
Mof_O 	O 	0.67843	0.36933	0.31201	-0.549
Mof_O 	O 	0.83431	0.5317	0.10511	-0.38
Mof_O 	O 	0.7657	0.57019	0.13513	-0.436
Mof_N 	N 	0.68206	0.30733	0.1218	-0.253
Mof_N 	N 	0.64359	0.35555	0.17735	-0.241
Mof_N 	N 	0.6798	0.40881	0.1203	-0.25
Mof_C 	C 	0.69934	0.28449	0.09088	0.084
Mof_C 	C 	0.73809	0.24715	0.09209	-0.12
Mof_C 	C 	0.75981	0.23266	0.12613	0.017
Mof_C 	C 	0.7425	0.25633	0.1581	-0.082
Mof_C 	C 	0.70388	0.29379	0.15503	0.051
Mof_C 	C 	0.684	0.32263	0.18632	0.03
Mof_C 	C 	0.70518	0.31858	0.22204	-0.043
Mof_C 	C 	0.68331	0.34848	0.24933	-0.058
Mof_C 	C 	0.64074	0.3811	0.24011	-0.041
Mof_C 	C 	0.62247	0.38429	0.20401	0.042
Mof_C 	C 	0.80299	0.19254	0.12843	0.289
Mof_C 	C 	0.7063	0.34531	0.28885	0.412
Mof_C 	C 	0.73677	0.40475	0.11608	0.068
Mof_C 	C 	0.77212	0.44451	0.11492	-0.1
Mof_C 	C 	0.7484	0.48953	0.11923	0.019
Mof_C 	C 	0.6897	0.49394	0.12322	-0.083
Mof_C 	C 	0.65593	0.45297	0.12328	0.046
Mof_C 	C 	0.7858	0.53404	0.12043	0.3
Mof_H 	H 	0.68	0.2968	0.0703	-0.004
Mof_H 	H 	0.7562	0.2339	0.0732	0.1
Mof_H 	H 	0.7359	0.2975	0.2276	0.062
Mof_H 	H 	0.7569	0.247	0.1817	0.076
Mof_H 	H 	0.6249	0.4019	0.258	0.062
Mof_H 	H 	0.5942	0.4031	0.1941	0.012
Mof_H 	H 	0.7515	0.3715	0.1178	0.004
Mof_H 	H 	0.8102	0.4382	0.1157	0.083
Mof_H 	H 	0.6692	0.5211	0.1256	0.086
Mof_O 	O 	0.809	0.66687	0.60009	-0.433
Mof_O 	O 	0.83164	0.68695	0.65779	-0.416
Mof_O 	O 	0.75033	0.82028	0.7945	-0.27
Mof_O 	O 	0.67843	0.86933	0.81201	-0.549
Mof_O 	O 	0.83431	0.0317	0.60511	-0.38
Mof_O 	O 	0.7657	0.07019	0.63513	-0.436
Mof_N 	N 	0.68206	0.80733	0.6218	-0.253
Mof_N 	N 	0.64359	0.85555	0.67735	-0.241
Mof_N 	N 	0.6798	0.90881	0.6203	-0.25
Mof_C 	C 	0.69934	0.78449	0.59088	0.084
Mof_C 	C 	0.73809	0.74715	0.59209	-0.12
Mof_C 	C 	0.75981	0.73266	0.62613	0.017
Mof_C 	C 	0.7425	0.75633	0.6581	-0.082
Mof_C 	C 	0.70388	0.79379	0.65503	0.051
Mof_C 	C 	0.684	0.82263	0.68632	0.03
Mof_C 	C 	0.70518	0.81858	0.72204	-0.043
Mof_C 	C 	0.68331	0.84848	0.74933	-0.058
Mof_C 	C 	0.64074	0.8811	0.74011	-0.041
Mof_C 	C 	0.62247	0.88429	0.70401	0.042
Mof_C 	C 	0.80299	0.69254	0.62843	0.289
Mof_C 	C 	0.7063	0.84531	0.78885	0.412
Mof_C 	C 	0.73677	0.90475	0.61608	0.068
Mof_C 	C 	0.77212	0.94451	0.61492	-0.1
Mof_C 	C 	0.7484	0.98953	0.61923	0.019
Mof_C 	C 	0.6897	0.99394	0.62322	-0.083
Mof_C 	C 	0.65593	0.95297	0.62328	0.046
Mof_C 	C 	0.7858	0.03404	0.62043	0.299
Mof_H 	H 	0.68	0.7968	0.5703	-0.004
Mof_H 	H 	0.7562	0.7339	0.5732	0.1
Mof_H 	H 	0.7359	0.7975	0.7276	0.062
Mof_H 	H 	0.7569	0.747	0.6817	0.075
Mof_H 	H 	0.6249	0.9019	0.758	0.061
Mof_H 	H 	0.5942	0.9031	0.6941	0.011
Mof_H 	H 	0.7515	0.8715	0.6178	0.003
Mof_H 	H 	0.8102	0.9382	0.6157	0.083
Mof_H 	H 	0.6692	0.0211	0.6256	0.085
Mof_O 	O 	0.309	0.16687	0.60009	-0.434
Mof_O 	O 	0.33164	0.18695	0.65779	-0.417
Mof_O 	O 	0.25033	0.32028	0.7945	-0.271
Mof_O 	O 	0.17843	0.36933	0.81201	-0.55
Mof_O 	O 	0.33431	0.5317	0.60511	-0.381
Mof_O 	O 	0.2657	0.57019	0.63513	-0.437
Mof_N 	N 	0.18206	0.30733	0.6218	-0.254
Mof_N 	N 	0.14359	0.35555	0.67735	-0.242
Mof_N 	N 	0.1798	0.40881	0.6203	-0.251
Mof_C 	C 	0.19934	0.28449	0.59088	0.083
Mof_C 	C 	0.23809	0.24715	0.59209	-0.121
Mof_C 	C 	0.25981	0.23266	0.62613	0.016
Mof_C 	C 	0.2425	0.25633	0.6581	-0.083
Mof_C 	C 	0.20388	0.29379	0.65503	0.05
Mof_C 	C 	0.184	0.32263	0.68632	0.029
Mof_C 	C 	0.20518	0.31858	0.72204	-0.044
Mof_C 	C 	0.18331	0.34848	0.74933	-0.059
Mof_C 	C 	0.14074	0.3811	0.74011	-0.042
Mof_C 	C 	0.12247	0.38429	0.70401	0.041
Mof_C 	C 	0.30299	0.19254	0.62843	0.288
Mof_C 	C 	0.2063	0.34531	0.78885	0.411
Mof_C 	C 	0.23677	0.40475	0.61608	0.067
Mof_C 	C 	0.27212	0.44451	0.61492	-0.101
Mof_C 	C 	0.2484	0.48953	0.61923	0.018
Mof_C 	C 	0.1897	0.49394	0.62322	-0.085
Mof_C 	C 	0.15593	0.45297	0.62328	0.045
Mof_C 	C 	0.2858	0.53404	0.62043	0.298
Mof_H 	H 	0.18	0.2968	0.5703	-0.005
Mof_H 	H 	0.2562	0.2339	0.5732	0.099
Mof_H 	H 	0.2359	0.2975	0.7276	0.061
Mof_H 	H 	0.2569	0.247	0.6817	0.075
Mof_H 	H 	0.1249	0.4019	0.758	0.061
Mof_H 	H 	0.0942	0.4031	0.6941	0.011
Mof_H 	H 	0.2515	0.3715	0.6178	0.003
Mof_H 	H 	0.3102	0.4382	0.6157	0.082
Mof_H 	H 	0.1692	0.5211	0.6256	0.085
Mof_O 	O 	0.309	0.66687	0.10009	-0.434
Mof_O 	O 	0.33164	0.68695	0.15779	-0.417
Mof_O 	O 	0.25033	0.82028	0.2945	-0.271
Mof_O 	O 	0.17843	0.86933	0.31201	-0.55
Mof_O 	O 	0.33431	0.0317	0.10511	-0.381
Mof_O 	O 	0.2657	0.07019	0.13513	-0.437
Mof_N 	N 	0.18206	0.80733	0.1218	-0.254
Mof_N 	N 	0.14359	0.85555	0.17735	-0.242
Mof_N 	N 	0.1798	0.90881	0.1203	-0.251
Mof_C 	C 	0.19934	0.78449	0.09088	0.083
Mof_C 	C 	0.23809	0.74715	0.09209	-0.121
Mof_C 	C 	0.25981	0.73266	0.12613	0.016
Mof_C 	C 	0.2425	0.75633	0.1581	-0.083
Mof_C 	C 	0.20388	0.79379	0.15503	0.05
Mof_C 	C 	0.184	0.82263	0.18632	0.029
Mof_C 	C 	0.20518	0.81858	0.22204	-0.044
Mof_C 	C 	0.18331	0.84848	0.24933	-0.059
Mof_C 	C 	0.14074	0.8811	0.24011	-0.042
Mof_C 	C 	0.12247	0.88429	0.20401	0.041
Mof_C 	C 	0.30299	0.69254	0.12843	0.288
Mof_C 	C 	0.2063	0.84531	0.28885	0.411
Mof_C 	C 	0.23677	0.90475	0.11608	0.067
Mof_C 	C 	0.27212	0.94451	0.11492	-0.101
Mof_C 	C 	0.2484	0.98953	0.11923	0.018
Mof_C 	C 	0.1897	0.99394	0.12322	-0.085
Mof_C 	C 	0.15593	0.95297	0.12328	0.045
Mof_C 	C 	0.2858	0.03404	0.12043	0.299
Mof_H 	H 	0.18	0.7968	0.0703	-0.005
Mof_H 	H 	0.2562	0.7339	0.0732	0.099
Mof_H 	H 	0.2359	0.7975	0.2276	0.061
Mof_H 	H 	0.2569	0.747	0.1817	0.075
Mof_H 	H 	0.1249	0.9019	0.258	0.061
Mof_H 	H 	0.0942	0.9031	0.1941	0.011
Mof_H 	H 	0.2515	0.8715	0.1178	0.003
Mof_H 	H 	0.3102	0.9382	0.1157	0.082
Mof_H 	H 	0.1692	0.0211	0.1256	0.086
Mof_O 	O 	0.941	0.58313	0.10009	-0.434
Mof_O 	O 	0.91836	0.56305	0.15779	-0.417
Mof_O 	O 	0.99967	0.42972	0.2945	-0.272
Mof_O 	O 	0.07157	0.38067	0.31201	-0.55
Mof_O 	O 	0.91569	0.2183	0.10511	-0.381
Mof_O 	O 	0.9843	0.17981	0.13513	-0.437
Mof_N 	N 	0.06794	0.44267	0.1218	-0.254
Mof_N 	N 	0.10641	0.39445	0.17735	-0.242
Mof_N 	N 	0.0702	0.34119	0.1203	-0.251
Mof_C 	C 	0.05066	0.46551	0.09088	0.082
Mof_C 	C 	0.01191	0.50285	0.09209	-0.12
Mof_C 	C 	0.99019	0.51734	0.12613	0.015
Mof_C 	C 	0.0075	0.49367	0.1581	-0.083
Mof_C 	C 	0.04612	0.45621	0.15503	0.05
Mof_C 	C 	0.066	0.42737	0.18632	0.029
Mof_C 	C 	0.04482	0.43142	0.22204	-0.044
Mof_C 	C 	0.06669	0.40152	0.24933	-0.059
Mof_C 	C 	0.10926	0.3689	0.24011	-0.042
Mof_C 	C 	0.12753	0.36571	0.20401	0.041
Mof_C 	C 	0.94701	0.55746	0.12843	0.288
Mof_C 	C 	0.0437	0.40469	0.28885	0.412
Mof_C 	C 	0.01323	0.34525	0.11608	0.068
Mof_C 	C 	0.97788	0.30549	0.11492	-0.102
Mof_C 	C 	0.0016	0.26047	0.11923	0.019
Mof_C 	C 	0.0603	0.25606	0.12322	-0.085
Mof_C 	C 	0.09407	0.29703	0.12328	0.045
Mof_C 	C 	0.9642	0.21596	0.12043	0.298
Mof_H 	H 	0.07	0.4532	0.0703	-0.005
Mof_H 	H 	0.9938	0.5161	0.0732	0.098
Mof_H 	H 	0.0141	0.4525	0.2276	0.061
Mof_H 	H 	0.9931	0.503	0.1817	0.075
Mof_H 	H 	0.1251	0.3481	0.258	0.061
Mof_H 	H 	0.1558	0.3469	0.1941	0.011
Mof_H 	H 	0.9985	0.3785	0.1178	0.002
Mof_H 	H 	0.9398	0.3118	0.1157	0.083
Mof_H 	H 	0.0808	0.2289	0.1256	0.086
Mof_O 	O 	0.941	0.08313	0.60009	-0.434
Mof_O 	O 	0.91836	0.06305	0.65779	-0.417
Mof_O 	O 	0.99967	0.92972	0.7945	-0.271
Mof_O 	O 	0.07157	0.88067	0.81201	-0.55
Mof_O 	O 	0.91569	0.7183	0.60511	-0.381
Mof_O 	O 	0.9843	0.67981	0.63513	-0.437
Mof_N 	N 	0.06794	0.94267	0.6218	-0.254
Mof_N 	N 	0.10641	0.89445	0.67735	-0.243
Mof_N 	N 	0.0702	0.84119	0.6203	-0.251
Mof_C 	C 	0.05066	0.96551	0.59088	0.081
Mof_C 	C 	0.01191	0.00285	0.59209	-0.119
Mof_C 	C 	0.99019	0.01734	0.62613	0.014
Mof_C 	C 	0.0075	0.99367	0.6581	-0.083
Mof_C 	C 	0.04612	0.95621	0.65503	0.05
Mof_C 	C 	0.066	0.92737	0.68632	0.029
Mof_C 	C 	0.04482	0.93142	0.72204	-0.044
Mof_C 	C 	0.06669	0.90152	0.74933	-0.059
Mof_C 	C 	0.10926	0.8689	0.74011	-0.042
Mof_C 	C 	0.12753	0.86571	0.70401	0.041
Mof_C 	C 	0.94701	0.05746	0.62843	0.288
Mof_C 	C 	0.0437	0.90469	0.78885	0.411
Mof_C 	C 	0.01323	0.84525	0.61608	0.065
Mof_C 	C 	0.97788	0.80549	0.61492	-0.099
Mof_C 	C 	0.0016	0.76047	0.61923	0.017
Mof_C 	C 	0.0603	0.75606	0.62322	-0.084
Mof_C 	C 	0.09407	0.79703	0.62328	0.045
Mof_C 	C 	0.9642	0.71596	0.62043	0.299
Mof_H 	H 	0.07	0.9532	0.5703	-0.004
Mof_H 	H 	0.9938	0.0161	0.5732	0.097
Mof_H 	H 	0.0141	0.9525	0.7276	0.061
Mof_H 	H 	0.9931	0.003	0.6817	0.075
Mof_H 	H 	0.1251	0.8481	0.758	0.061
Mof_H 	H 	0.1558	0.8469	0.6941	0.011
Mof_H 	H 	0.9985	0.8785	0.6178	0.003
Mof_H 	H 	0.9398	0.8118	0.6157	0.082
Mof_H 	H 	0.0808	0.7289	0.6256	0.085
Mof_O 	O 	0.441	0.58313	0.60009	-0.434
Mof_O 	O 	0.41836	0.56305	0.65779	-0.417
Mof_O 	O 	0.49967	0.42972	0.7945	-0.271
Mof_O 	O 	0.57157	0.38067	0.81201	-0.55
Mof_O 	O 	0.41569	0.2183	0.60511	-0.381
Mof_O 	O 	0.4843	0.17981	0.63513	-0.437
Mof_N 	N 	0.56794	0.44267	0.6218	-0.254
Mof_N 	N 	0.60641	0.39445	0.67735	-0.242
Mof_N 	N 	0.5702	0.34119	0.6203	-0.251
Mof_C 	C 	0.55066	0.46551	0.59088	0.083
Mof_C 	C 	0.51191	0.50285	0.59209	-0.121
Mof_C 	C 	0.49019	0.51734	0.62613	0.016
Mof_C 	C 	0.5075	0.49367	0.6581	-0.083
Mof_C 	C 	0.54612	0.45621	0.65503	0.05
Mof_C 	C 	0.566	0.42737	0.68632	0.029
Mof_C 	C 	0.54482	0.43142	0.72204	-0.044
Mof_C 	C 	0.56669	0.40152	0.74933	-0.059
Mof_C 	C 	0.60926	0.3689	0.74011	-0.042
Mof_C 	C 	0.62753	0.36571	0.70401	0.041
Mof_C 	C 	0.44701	0.55746	0.62843	0.288
Mof_C 	C 	0.5437	0.40469	0.78885	0.411
Mof_C 	C 	0.51323	0.34525	0.61608	0.067
Mof_C 	C 	0.47788	0.30549	0.61492	-0.101
Mof_C 	C 	0.5016	0.26047	0.61923	0.018
Mof_C 	C 	0.5603	0.25606	0.62322	-0.085
Mof_C 	C 	0.59407	0.29703	0.62328	0.045
Mof_C 	C 	0.4642	0.21596	0.62043	0.299
Mof_H 	H 	0.57	0.4532	0.5703	-0.005
Mof_H 	H 	0.4938	0.5161	0.5732	0.099
Mof_H 	H 	0.5141	0.4525	0.7276	0.061
Mof_H 	H 	0.4931	0.503	0.6817	0.075
Mof_H 	H 	0.6251	0.3481	0.758	0.061
Mof_H 	H 	0.6558	0.3469	0.6941	0.011
Mof_H 	H 	0.4985	0.3785	0.6178	0.003
Mof_H 	H 	0.4398	0.3118	0.6157	0.082
Mof_H 	H 	0.5808	0.2289	0.6256	0.085
Mof_O 	O 	0.441	0.08313	0.10009	-0.434
Mof_O 	O 	0.41836	0.06305	0.15779	-0.417
Mof_O 	O 	0.49967	0.92972	0.2945	-0.271
Mof_O 	O 	0.57157	0.88067	0.31201	-0.55
Mof_O 	O 	0.41569	0.7183	0.10511	-0.381
Mof_O 	O 	0.4843	0.67981	0.13513	-0.437
Mof_N 	N 	0.56794	0.94267	0.1218	-0.254
Mof_N 	N 	0.60641	0.89445	0.17735	-0.242
Mof_N 	N 	0.5702	0.84119	0.1203	-0.251
Mof_C 	C 	0.55066	0.96551	0.09088	0.083
Mof_C 	C 	0.51191	0.00285	0.09209	-0.121
Mof_C 	C 	0.49019	0.01734	0.12613	0.016
Mof_C 	C 	0.5075	0.99367	0.1581	-0.083
Mof_C 	C 	0.54612	0.95621	0.15503	0.05
Mof_C 	C 	0.566	0.92737	0.18632	0.029
Mof_C 	C 	0.54482	0.93142	0.22204	-0.044
Mof_C 	C 	0.56669	0.90152	0.24933	-0.059
Mof_C 	C 	0.60926	0.8689	0.24011	-0.042
Mof_C 	C 	0.62753	0.86571	0.20401	0.041
Mof_C 	C 	0.44701	0.05746	0.12843	0.288
Mof_C 	C 	0.5437	0.90469	0.28885	0.411
Mof_C 	C 	0.51323	0.84525	0.11608	0.067
Mof_C 	C 	0.47788	0.80549	0.11492	-0.101
Mof_C 	C 	0.5016	0.76047	0.11923	0.018
Mof_C 	C 	0.5603	0.75606	0.12322	-0.085
Mof_C 	C 	0.59407	0.79703	0.12328	0.045
Mof_C 	C 	0.4642	0.71596	0.12043	0.298
Mof_H 	H 	0.57	0.9532	0.0703	-0.005
Mof_H 	H 	0.4938	0.0161	0.0732	0.099
Mof_H 	H 	0.5141	0.9525	0.2276	0.061
Mof_H 	H 	0.4931	0.003	0.1817	0.075
Mof_H 	H 	0.6251	0.8481	0.258	0.061
Mof_H 	H 	0.6558	0.8469	0.1941	0.011
Mof_H 	H 	0.4985	0.8785	0.1178	0.003
Mof_H 	H 	0.4398	0.8118	0.1157	0.082
Mof_H 	H 	0.5808	0.7289	0.1256	0.085
Mof_O 	O 	0.941	0.16687	0.64991	-0.434
Mof_O 	O 	0.91836	0.18695	0.59221	-0.417
Mof_O 	O 	0.99967	0.32028	0.4555	-0.272
Mof_O 	O 	0.07157	0.36933	0.43799	-0.55
Mof_O 	O 	0.91569	0.5317	0.64489	-0.381
Mof_O 	O 	0.9843	0.57019	0.61487	-0.437
Mof_N 	N 	0.06794	0.30733	0.6282	-0.254
Mof_N 	N 	0.10641	0.35555	0.57265	-0.242
Mof_N 	N 	0.0702	0.40881	0.6297	-0.251
Mof_C 	C 	0.05066	0.28449	0.65912	0.082
Mof_C 	C 	0.01191	0.24715	0.65791	-0.12
Mof_C 	C 	0.99019	0.23266	0.62387	0.015
Mof_C 	C 	0.0075	0.25633	0.5919	-0.082
Mof_C 	C 	0.04612	0.29379	0.59497	0.05
Mof_C 	C 	0.066	0.32263	0.56368	0.029
Mof_C 	C 	0.04482	0.31858	0.52796	-0.044
Mof_C 	C 	0.06669	0.34848	0.50067	-0.059
Mof_C 	C 	0.10926	0.3811	0.50989	-0.042
Mof_C 	C 	0.12753	0.38429	0.54599	0.041
Mof_C 	C 	0.94701	0.19254	0.62157	0.288
Mof_C 	C 	0.0437	0.34531	0.46115	0.412
Mof_C 	C 	0.01323	0.40475	0.63392	0.067
Mof_C 	C 	0.97788	0.44451	0.63508	-0.101
Mof_C 	C 	0.0016	0.48953	0.63077	0.018
Mof_C 	C 	0.0603	0.49394	0.62678	-0.084
Mof_C 	C 	0.09407	0.45297	0.62672	0.045
Mof_C 	C 	0.9642	0.53404	0.62957	0.299
Mof_H 	H 	0.07	0.2968	0.6797	-0.005
Mof_H 	H 	0.9938	0.2339	0.6768	0.098
Mof_H 	H 	0.0141	0.2975	0.5224	0.061
Mof_H 	H 	0.9931	0.247	0.5683	0.075
Mof_H 	H 	0.1251	0.4019	0.492	0.061
Mof_H 	H 	0.1558	0.4031	0.5559	0.011
Mof_H 	H 	0.9985	0.3715	0.6322	0.003
Mof_H 	H 	0.9398	0.4382	0.6343	0.082
Mof_H 	H 	0.0808	0.5211	0.6244	0.085
Mof_O 	O 	0.941	0.66687	0.14991	-0.434
Mof_O 	O 	0.91836	0.68695	0.09221	-0.417
Mof_O 	O 	0.99967	0.82028	0.9555	-0.271
Mof_O 	O 	0.07157	0.86933	0.93799	-0.55
Mof_O 	O 	0.91569	0.0317	0.14489	-0.381
Mof_O 	O 	0.9843	0.07019	0.11487	-0.437
Mof_N 	N 	0.06794	0.80733	0.1282	-0.254
Mof_N 	N 	0.10641	0.85555	0.07265	-0.242
Mof_N 	N 	0.0702	0.90881	0.1297	-0.251
Mof_C 	C 	0.05066	0.78449	0.15912	0.083
Mof_C 	C 	0.01191	0.74715	0.15791	-0.121
Mof_C 	C 	0.99019	0.73266	0.12387	0.016
Mof_C 	C 	0.0075	0.75633	0.0919	-0.083
Mof_C 	C 	0.04612	0.79379	0.09497	0.05
Mof_C 	C 	0.066	0.82263	0.06368	0.029
Mof_C 	C 	0.04482	0.81858	0.02796	-0.044
Mof_C 	C 	0.06669	0.84848	0.00067	-0.059
Mof_C 	C 	0.10926	0.8811	0.00989	-0.041
Mof_C 	C 	0.12753	0.88429	0.04599	0.041
Mof_C 	C 	0.94701	0.69254	0.12157	0.288
Mof_C 	C 	0.0437	0.84531	0.96115	0.411
Mof_C 	C 	0.01323	0.90475	0.13392	0.066
Mof_C 	C 	0.97788	0.94451	0.13508	-0.1
Mof_C 	C 	0.0016	0.98953	0.13077	0.018
Mof_C 	C 	0.0603	0.99394	0.12678	-0.085
Mof_C 	C 	0.09407	0.95297	0.12672	0.045
Mof_C 	C 	0.9642	0.03404	0.12957	0.298
Mof_H 	H 	0.07	0.7968	0.1797	-0.005
Mof_H 	H 	0.9938	0.7339	0.1768	0.099
Mof_H 	H 	0.0141	0.7975	0.0224	0.061
Mof_H 	H 	0.9931	0.747	0.0683	0.075
Mof_H 	H 	0.1251	0.9019	0.992	0.061
Mof_H 	H 	0.1558	0.9031	0.0559	0.011
Mof_H 	H 	0.9985	0.8715	0.1322	0.003
Mof_H 	H 	0.9398	0.9382	0.1343	0.082
Mof_H 	H 	0.0808	0.0211	0.1244	0.086
Mof_O 	O 	0.441	0.16687	0.14991	-0.434
Mof_O 	O 	0.41836	0.18695	0.09221	-0.417
Mof_O 	O 	0.49967	0.32028	0.9555	-0.271
Mof_O 	O 	0.57157	0.36933	0.93799	-0.55
Mof_O 	O 	0.41569	0.5317	0.14489	-0.381
Mof_O 	O 	0.4843	0.57019	0.11487	-0.437
Mof_N 	N 	0.56794	0.30733	0.1282	-0.254
Mof_N 	N 	0.60641	0.35555	0.07265	-0.242
Mof_N 	N 	0.5702	0.40881	0.1297	-0.251
Mof_C 	C 	0.55066	0.28449	0.15912	0.083
Mof_C 	C 	0.51191	0.24715	0.15791	-0.121
Mof_C 	C 	0.49019	0.23266	0.12387	0.016
Mof_C 	C 	0.5075	0.25633	0.0919	-0.083
Mof_C 	C 	0.54612	0.29379	0.09497	0.05
Mof_C 	C 	0.566	0.32263	0.06368	0.029
Mof_C 	C 	0.54482	0.31858	0.02796	-0.044
Mof_C 	C 	0.56669	0.34848	0.00067	-0.059
Mof_C 	C 	0.60926	0.3811	0.00989	-0.042
Mof_C 	C 	0.62753	0.38429	0.04599	0.041
Mof_C 	C 	0.44701	0.19254	0.12157	0.288
Mof_C 	C 	0.5437	0.34531	0.96115	0.411
Mof_C 	C 	0.51323	0.40475	0.13392	0.067
Mof_C 	C 	0.47788	0.44451	0.13508	-0.101
Mof_C 	C 	0.5016	0.48953	0.13077	0.018
Mof_C 	C 	0.5603	0.49394	0.12678	-0.085
Mof_C 	C 	0.59407	0.45297	0.12672	0.045
Mof_C 	C 	0.4642	0.53404	0.12957	0.298
Mof_H 	H 	0.57	0.2968	0.1797	-0.005
Mof_H 	H 	0.4938	0.2339	0.1768	0.099
Mof_H 	H 	0.5141	0.2975	0.0224	0.061
Mof_H 	H 	0.4931	0.247	0.0683	0.075
Mof_H 	H 	0.6251	0.4019	0.992	0.062
Mof_H 	H 	0.6558	0.4031	0.0559	0.011
Mof_H 	H 	0.4985	0.3715	0.1322	0.003
Mof_H 	H 	0.4398	0.4382	0.1343	0.082
Mof_H 	H 	0.5808	0.5211	0.1244	0.085
Mof_O 	O 	0.441	0.66687	0.64991	-0.434
Mof_O 	O 	0.41836	0.68695	0.59221	-0.417
Mof_O 	O 	0.49967	0.82028	0.4555	-0.271
Mof_O 	O 	0.57157	0.86933	0.43799	-0.55
Mof_O 	O 	0.41569	0.0317	0.64489	-0.381
Mof_O 	O 	0.4843	0.07019	0.61487	-0.437
Mof_N 	N 	0.56794	0.80733	0.6282	-0.254
Mof_N 	N 	0.60641	0.85555	0.57265	-0.242
Mof_N 	N 	0.5702	0.90881	0.6297	-0.251
Mof_C 	C 	0.55066	0.78449	0.65912	0.083
Mof_C 	C 	0.51191	0.74715	0.65791	-0.121
Mof_C 	C 	0.49019	0.73266	0.62387	0.016
Mof_C 	C 	0.5075	0.75633	0.5919	-0.083
Mof_C 	C 	0.54612	0.79379	0.59497	0.05
Mof_C 	C 	0.566	0.82263	0.56368	0.029
Mof_C 	C 	0.54482	0.81858	0.52796	-0.044
Mof_C 	C 	0.56669	0.84848	0.50067	-0.059
Mof_C 	C 	0.60926	0.8811	0.50989	-0.042
Mof_C 	C 	0.62753	0.88429	0.54599	0.041
Mof_C 	C 	0.44701	0.69254	0.62157	0.288
Mof_C 	C 	0.5437	0.84531	0.46115	0.411
Mof_C 	C 	0.51323	0.90475	0.63392	0.067
Mof_C 	C 	0.47788	0.94451	0.63508	-0.101
Mof_C 	C 	0.5016	0.98953	0.63077	0.018
Mof_C 	C 	0.5603	0.99394	0.62678	-0.084
Mof_C 	C 	0.59407	0.95297	0.62672	0.045
Mof_C 	C 	0.4642	0.03404	0.62957	0.299
Mof_H 	H 	0.57	0.7968	0.6797	-0.005
Mof_H 	H 	0.4938	0.7339	0.6768	0.099
Mof_H 	H 	0.5141	0.7975	0.5224	0.061
Mof_H 	H 	0.4931	0.747	0.5683	0.075
Mof_H 	H 	0.6251	0.9019	0.492	0.061
Mof_H 	H 	0.6558	0.9031	0.5559	0.011
Mof_H 	H 	0.4985	0.8715	0.6322	0.003
Mof_H 	H 	0.4398	0.9382	0.6343	0.082
Mof_H 	H 	0.5808	0.0211	0.6244	0.085
Mof_O 	O 	0.809	0.58313	0.64991	-0.434
Mof_O 	O 	0.83164	0.56305	0.59221	-0.417
Mof_O 	O 	0.75033	0.42972	0.4555	-0.271
Mof_O 	O 	0.67843	0.38067	0.43799	-0.55
Mof_O 	O 	0.83431	0.2183	0.64489	-0.381
Mof_O 	O 	0.7657	0.17981	0.61487	-0.437
Mof_N 	N 	0.68206	0.44267	0.6282	-0.254
Mof_N 	N 	0.64359	0.39445	0.57265	-0.242
Mof_N 	N 	0.6798	0.34119	0.6297	-0.251
Mof_C 	C 	0.69934	0.46551	0.65912	0.083
Mof_C 	C 	0.73809	0.50285	0.65791	-0.121
Mof_C 	C 	0.75981	0.51734	0.62387	0.016
Mof_C 	C 	0.7425	0.49367	0.5919	-0.083
Mof_C 	C 	0.70388	0.45621	0.59497	0.05
Mof_C 	C 	0.684	0.42737	0.56368	0.029
Mof_C 	C 	0.70518	0.43142	0.52796	-0.044
Mof_C 	C 	0.68331	0.40152	0.50067	-0.059
Mof_C 	C 	0.64074	0.3689	0.50989	-0.042
Mof_C 	C 	0.62247	0.36571	0.54599	0.041
Mof_C 	C 	0.80299	0.55746	0.62157	0.288
Mof_C 	C 	0.7063	0.40469	0.46115	0.411
Mof_C 	C 	0.73677	0.34525	0.63392	0.067
Mof_C 	C 	0.77212	0.30549	0.63508	-0.101
Mof_C 	C 	0.7484	0.26047	0.63077	0.018
Mof_C 	C 	0.6897	0.25606	0.62678	-0.084
Mof_C 	C 	0.65593	0.29703	0.62672	0.045
Mof_C 	C 	0.7858	0.21596	0.62957	0.299
Mof_H 	H 	0.68	0.4532	0.6797	-0.005
Mof_H 	H 	0.7562	0.5161	0.6768	0.099
Mof_H 	H 	0.7359	0.4525	0.5224	0.061
Mof_H 	H 	0.7569	0.503	0.5683	0.075
Mof_H 	H 	0.6249	0.3481	0.492	0.061
Mof_H 	H 	0.5942	0.3469	0.5559	0.011
Mof_H 	H 	0.7515	0.3785	0.6322	0.003
Mof_H 	H 	0.8102	0.3118	0.6343	0.082
Mof_H 	H 	0.6692	0.2289	0.6244	0.085
Mof_O 	O 	0.809	0.08313	0.14991	-0.434
Mof_O 	O 	0.83164	0.06305	0.09221	-0.417
Mof_O 	O 	0.75033	0.92972	0.9555	-0.271
Mof_O 	O 	0.67843	0.88067	0.93799	-0.55
Mof_O 	O 	0.83431	0.7183	0.14489	-0.381
Mof_O 	O 	0.7657	0.67981	0.11487	-0.437
Mof_N 	N 	0.68206	0.94267	0.1282	-0.254
Mof_N 	N 	0.64359	0.89445	0.07265	-0.242
Mof_N 	N 	0.6798	0.84119	0.1297	-0.251
Mof_C 	C 	0.69934	0.96551	0.15912	0.083
Mof_C 	C 	0.73809	0.00285	0.15791	-0.121
Mof_C 	C 	0.75981	0.01734	0.12387	0.015
Mof_C 	C 	0.7425	0.99367	0.0919	-0.082
Mof_C 	C 	0.70388	0.95621	0.09497	0.05
Mof_C 	C 	0.684	0.92737	0.06368	0.029
Mof_C 	C 	0.70518	0.93142	0.02796	-0.044
Mof_C 	C 	0.68331	0.90152	0.00067	-0.059
Mof_C 	C 	0.64074	0.8689	0.00989	-0.042
Mof_C 	C 	0.62247	0.86571	0.04599	0.041
Mof_C 	C 	0.80299	0.05746	0.12157	0.288
Mof_C 	C 	0.7063	0.90469	0.96115	0.411
Mof_C 	C 	0.73677	0.84525	0.13392	0.067
Mof_C 	C 	0.77212	0.80549	0.13508	-0.101
Mof_C 	C 	0.7484	0.76047	0.13077	0.018
Mof_C 	C 	0.6897	0.75606	0.12678	-0.085
Mof_C 	C 	0.65593	0.79703	0.12672	0.045
Mof_C 	C 	0.7858	0.71596	0.12957	0.298
Mof_H 	H 	0.68	0.9532	0.1797	-0.005
Mof_H 	H 	0.7562	0.0161	0.1768	0.099
Mof_H 	H 	0.7359	0.9525	0.0224	0.061
Mof_H 	H 	0.7569	0.003	0.0683	0.075
Mof_H 	H 	0.6249	0.8481	0.992	0.061
Mof_H 	H 	0.5942	0.8469	0.0559	0.011
Mof_H 	H 	0.7515	0.8785	0.1322	0.003
Mof_H 	H 	0.8102	0.8118	0.1343	0.082
Mof_H 	H 	0.6692	0.7289	0.1244	0.085
Mof_O 	O 	0.309	0.58313	0.14991	-0.434
Mof_O 	O 	0.33164	0.56305	0.09221	-0.417
Mof_O 	O 	0.25033	0.42972	0.9555	-0.271
Mof_O 	O 	0.17843	0.38067	0.93799	-0.55
Mof_O 	O 	0.33431	0.2183	0.14489	-0.381
Mof_O 	O 	0.2657	0.17981	0.11487	-0.437
Mof_N 	N 	0.18206	0.44267	0.1282	-0.254
Mof_N 	N 	0.14359	0.39445	0.07265	-0.242
Mof_N 	N 	0.1798	0.34119	0.1297	-0.251
Mof_C 	C 	0.19934	0.46551	0.15912	0.083
Mof_C 	C 	0.23809	0.50285	0.15791	-0.121
Mof_C 	C 	0.25981	0.51734	0.12387	0.016
Mof_C 	C 	0.2425	0.49367	0.0919	-0.083
Mof_C 	C 	0.20388	0.45621	0.09497	0.05
Mof_C 	C 	0.184	0.42737	0.06368	0.029
Mof_C 	C 	0.20518	0.43142	0.02796	-0.044
Mof_C 	C 	0.18331	0.40152	0.00067	-0.059
Mof_C 	C 	0.14074	0.3689	0.00989	-0.041
Mof_C 	C 	0.12247	0.36571	0.04599	0.041
Mof_C 	C 	0.30299	0.55746	0.12157	0.288
Mof_C 	C 	0.2063	0.40469	0.96115	0.411
Mof_C 	C 	0.23677	0.34525	0.13392	0.067
Mof_C 	C 	0.27212	0.30549	0.13508	-0.101
Mof_C 	C 	0.2484	0.26047	0.13077	0.018
Mof_C 	C 	0.1897	0.25606	0.12678	-0.084
Mof_C 	C 	0.15593	0.29703	0.12672	0.045
Mof_C 	C 	0.2858	0.21596	0.12957	0.299
Mof_H 	H 	0.18	0.4532	0.1797	-0.005
Mof_H 	H 	0.2562	0.5161	0.1768	0.099
Mof_H 	H 	0.2359	0.4525	0.0224	0.061
Mof_H 	H 	0.2569	0.503	0.0683	0.075
Mof_H 	H 	0.1249	0.3481	0.992	0.061
Mof_H 	H 	0.0942	0.3469	0.0559	0.011
Mof_H 	H 	0.2515	0.3785	0.1322	0.003
Mof_H 	H 	0.3102	0.3118	0.1343	0.082
Mof_H 	H 	0.1692	0.2289	0.1244	0.085
Mof_O 	O 	0.309	0.08313	0.64991	-0.434
Mof_O 	O 	0.33164	0.06305	0.59221	-0.417
Mof_O 	O 	0.25033	0.92972	0.4555	-0.271
Mof_O 	O 	0.17843	0.88067	0.43799	-0.55
Mof_O 	O 	0.33431	0.7183	0.64489	-0.381
Mof_O 	O 	0.2657	0.67981	0.61487	-0.437
Mof_N 	N 	0.18206	0.94267	0.6282	-0.254
Mof_N 	N 	0.14359	0.89445	0.57265	-0.242
Mof_N 	N 	0.1798	0.84119	0.6297	-0.251
Mof_C 	C 	0.19934	0.96551	0.65912	0.083
Mof_C 	C 	0.23809	0.00285	0.65791	-0.121
Mof_C 	C 	0.25981	0.01734	0.62387	0.016
Mof_C 	C 	0.2425	0.99367	0.5919	-0.084
Mof_C 	C 	0.20388	0.95621	0.59497	0.05
Mof_C 	C 	0.184	0.92737	0.56368	0.029
Mof_C 	C 	0.20518	0.93142	0.52796	-0.044
Mof_C 	C 	0.18331	0.90152	0.50067	-0.059
Mof_C 	C 	0.14074	0.8689	0.50989	-0.042
Mof_C 	C 	0.12247	0.86571	0.54599	0.041
Mof_C 	C 	0.30299	0.05746	0.62157	0.288
Mof_C 	C 	0.2063	0.90469	0.46115	0.411
Mof_C 	C 	0.23677	0.84525	0.63392	0.067
Mof_C 	C 	0.27212	0.80549	0.63508	-0.101
Mof_C 	C 	0.2484	0.76047	0.63077	0.018
Mof_C 	C 	0.1897	0.75606	0.62678	-0.085
Mof_C 	C 	0.15593	0.79703	0.62672	0.045
Mof_C 	C 	0.2858	0.71596	0.62957	0.298
Mof_H 	H 	0.18	0.9532	0.6797	-0.005
Mof_H 	H 	0.2562	0.0161	0.6768	0.099
Mof_H 	H 	0.2359	0.9525	0.5224	0.061
Mof_H 	H 	0.2569	0.003	0.5683	0.076
Mof_H 	H 	0.1249	0.8481	0.492	0.061
Mof_H 	H 	0.0942	0.8469	0.5559	0.011
Mof_H 	H 	0.2515	0.8785	0.6322	0.003
Mof_H 	H 	0.3102	0.8118	0.6343	0.082
Mof_H 	H 	0.1692	0.7289	0.6244	0.085
Mof_O 	O 	0.191	0.83313	0.89991	-0.434
Mof_O 	O 	0.16836	0.81305	0.84221	-0.417
Mof_O 	O 	0.24967	0.67972	0.7055	-0.271
Mof_O 	O 	0.32157	0.63067	0.68799	-0.55
Mof_O 	O 	0.16569	0.4683	0.89489	-0.381
Mof_O 	O 	0.2343	0.42981	0.86487	-0.437
Mof_N 	N 	0.31794	0.69267	0.8782	-0.254
Mof_N 	N 	0.35641	0.64445	0.82265	-0.242
Mof_N 	N 	0.3202	0.59119	0.8797	-0.251
Mof_C 	C 	0.30066	0.71551	0.90912	0.083
Mof_C 	C 	0.26191	0.75285	0.90791	-0.121
Mof_C 	C 	0.24019	0.76734	0.87387	0.016
Mof_C 	C 	0.2575	0.74367	0.8419	-0.083
Mof_C 	C 	0.29612	0.70621	0.84497	0.05
Mof_C 	C 	0.316	0.67737	0.81368	0.029
Mof_C 	C 	0.29482	0.68142	0.77796	-0.044
Mof_C 	C 	0.31669	0.65152	0.75067	-0.059
Mof_C 	C 	0.35926	0.6189	0.75989	-0.042
Mof_C 	C 	0.37753	0.61571	0.79599	0.041
Mof_C 	C 	0.19701	0.80746	0.87157	0.288
Mof_C 	C 	0.2937	0.65469	0.71115	0.411
Mof_C 	C 	0.26323	0.59525	0.88392	0.067
Mof_C 	C 	0.22788	0.55549	0.88508	-0.101
Mof_C 	C 	0.2516	0.51047	0.88077	0.018
Mof_C 	C 	0.3103	0.50606	0.87678	-0.084
Mof_C 	C 	0.34407	0.54703	0.87672	0.045
Mof_C 	C 	0.2142	0.46596	0.87957	0.299
Mof_H 	H 	0.32	0.7032	0.9297	-0.005
Mof_H 	H 	0.2438	0.7661	0.9268	0.099
Mof_H 	H 	0.2641	0.7025	0.7724	0.061
Mof_H 	H 	0.2431	0.753	0.8183	0.075
Mof_H 	H 	0.3751	0.5981	0.742	0.061
Mof_H 	H 	0.4058	0.5969	0.8059	0.011
Mof_H 	H 	0.2485	0.6285	0.8822	0.003
Mof_H 	H 	0.1898	0.5618	0.8843	0.082
Mof_H 	H 	0.3308	0.4789	0.8744	0.085
Mof_O 	O 	0.191	0.33313	0.39991	-0.434
Mof_O 	O 	0.16836	0.31305	0.34221	-0.417
Mof_O 	O 	0.24967	0.17972	0.2055	-0.271
Mof_O 	O 	0.32157	0.13067	0.18799	-0.55
Mof_O 	O 	0.16569	0.9683	0.39489	-0.381
Mof_O 	O 	0.2343	0.92981	0.36487	-0.437
Mof_N 	N 	0.31794	0.19267	0.3782	-0.254
Mof_N 	N 	0.35641	0.14445	0.32265	-0.242
Mof_N 	N 	0.3202	0.09119	0.3797	-0.251
Mof_C 	C 	0.30066	0.21551	0.40912	0.083
Mof_C 	C 	0.26191	0.25285	0.40791	-0.121
Mof_C 	C 	0.24019	0.26734	0.37387	0.016
Mof_C 	C 	0.2575	0.24367	0.3419	-0.083
Mof_C 	C 	0.29612	0.20621	0.34497	0.05
Mof_C 	C 	0.316	0.17737	0.31368	0.029
Mof_C 	C 	0.29482	0.18142	0.27796	-0.044
Mof_C 	C 	0.31669	0.15152	0.25067	-0.059
Mof_C 	C 	0.35926	0.1189	0.25989	-0.042
Mof_C 	C 	0.37753	0.11571	0.29599	0.041
Mof_C 	C 	0.19701	0.30746	0.37157	0.288
Mof_C 	C 	0.2937	0.15469	0.21115	0.411
Mof_C 	C 	0.26323	0.09525	0.38392	0.067
Mof_C 	C 	0.22788	0.05549	0.38508	-0.101
Mof_C 	C 	0.2516	0.01047	0.38077	0.018
Mof_C 	C 	0.3103	0.00606	0.37678	-0.084
Mof_C 	C 	0.34407	0.04703	0.37672	0.045
Mof_C 	C 	0.2142	0.96596	0.37957	0.298
Mof_H 	H 	0.32	0.2032	0.4297	-0.005
Mof_H 	H 	0.2438	0.2661	0.4268	0.099
Mof_H 	H 	0.2641	0.2025	0.2724	0.061
Mof_H 	H 	0.2431	0.253	0.3183	0.075
Mof_H 	H 	0.3751	0.0981	0.242	0.061
Mof_H 	H 	0.4058	0.0969	0.3059	0.011
Mof_H 	H 	0.2485	0.1285	0.3822	0.003
Mof_H 	H 	0.1898	0.0618	0.3843	0.083
Mof_H 	H 	0.3308	0.9789	0.3744	0.085
Mof_O 	O 	0.691	0.83313	0.39991	-0.434
Mof_O 	O 	0.66836	0.81305	0.34221	-0.417
Mof_O 	O 	0.74967	0.67972	0.2055	-0.271
Mof_O 	O 	0.82157	0.63067	0.18799	-0.55
Mof_O 	O 	0.66569	0.4683	0.39489	-0.381
Mof_O 	O 	0.7343	0.42981	0.36487	-0.437
Mof_N 	N 	0.81794	0.69267	0.3782	-0.254
Mof_N 	N 	0.85641	0.64445	0.32265	-0.242
Mof_N 	N 	0.8202	0.59119	0.3797	-0.251
Mof_C 	C 	0.80066	0.71551	0.40912	0.083
Mof_C 	C 	0.76191	0.75285	0.40791	-0.121
Mof_C 	C 	0.74019	0.76734	0.37387	0.016
Mof_C 	C 	0.7575	0.74367	0.3419	-0.083
Mof_C 	C 	0.79612	0.70621	0.34497	0.05
Mof_C 	C 	0.816	0.67737	0.31368	0.029
Mof_C 	C 	0.79482	0.68142	0.27796	-0.044
Mof_C 	C 	0.81669	0.65152	0.25067	-0.059
Mof_C 	C 	0.85926	0.6189	0.25989	-0.042
Mof_C 	C 	0.87753	0.61571	0.29599	0.041
Mof_C 	C 	0.69701	0.80746	0.37157	0.288
Mof_C 	C 	0.7937	0.65469	0.21115	0.411
Mof_C 	C 	0.76323	0.59525	0.38392	0.067
Mof_C 	C 	0.72788	0.55549	0.38508	-0.101
Mof_C 	C 	0.7516	0.51047	0.38077	0.018
Mof_C 	C 	0.8103	0.50606	0.37678	-0.085
Mof_C 	C 	0.84407	0.54703	0.37672	0.045
Mof_C 	C 	0.7142	0.46596	0.37957	0.298
Mof_H 	H 	0.82	0.7032	0.4297	-0.005
Mof_H 	H 	0.7438	0.7661	0.4268	0.099
Mof_H 	H 	0.7641	0.7025	0.2724	0.061
Mof_H 	H 	0.7431	0.753	0.3183	0.075
Mof_H 	H 	0.8751	0.5981	0.242	0.061
Mof_H 	H 	0.9058	0.5969	0.3059	0.011
Mof_H 	H 	0.7485	0.6285	0.3822	0.003
Mof_H 	H 	0.6898	0.5618	0.3843	0.082
Mof_H 	H 	0.8308	0.4789	0.3744	0.085
Mof_O 	O 	0.691	0.33313	0.89991	-0.434
Mof_O 	O 	0.66836	0.31305	0.84221	-0.417
Mof_O 	O 	0.74967	0.17972	0.7055	-0.271
Mof_O 	O 	0.82157	0.13067	0.68799	-0.55
Mof_O 	O 	0.66569	0.9683	0.89489	-0.381
Mof_O 	O 	0.7343	0.92981	0.86487	-0.437
Mof_N 	N 	0.81794	0.19267	0.8782	-0.254
Mof_N 	N 	0.85641	0.14445	0.82265	-0.242
Mof_N 	N 	0.8202	0.09119	0.8797	-0.251
Mof_C 	C 	0.80066	0.21551	0.90912	0.083
Mof_C 	C 	0.76191	0.25285	0.90791	-0.121
Mof_C 	C 	0.74019	0.26734	0.87387	0.016
Mof_C 	C 	0.7575	0.24367	0.8419	-0.083
Mof_C 	C 	0.79612	0.20621	0.84497	0.05
Mof_C 	C 	0.816	0.17737	0.81368	0.029
Mof_C 	C 	0.79482	0.18142	0.77796	-0.044
Mof_C 	C 	0.81669	0.15152	0.75067	-0.059
Mof_C 	C 	0.85926	0.1189	0.75989	-0.042
Mof_C 	C 	0.87753	0.11571	0.79599	0.041
Mof_C 	C 	0.69701	0.30746	0.87157	0.288
Mof_C 	C 	0.7937	0.15469	0.71115	0.411
Mof_C 	C 	0.76323	0.09525	0.88392	0.067
Mof_C 	C 	0.72788	0.05549	0.88508	-0.101
Mof_C 	C 	0.7516	0.01047	0.88077	0.018
Mof_C 	C 	0.8103	0.00606	0.87678	-0.085
Mof_C 	C 	0.84407	0.04703	0.87672	0.045
Mof_C 	C 	0.7142	0.96596	0.87957	0.299
Mof_H 	H 	0.82	0.2032	0.9297	-0.005
Mof_H 	H 	0.7438	0.2661	0.9268	0.099
Mof_H 	H 	0.7641	0.2025	0.7724	0.061
Mof_H 	H 	0.7431	0.253	0.8183	0.075
Mof_H 	H 	0.8751	0.0981	0.742	0.061
Mof_H 	H 	0.9058	0.0969	0.8059	0.011
Mof_H 	H 	0.7485	0.1285	0.8822	0.003
Mof_H 	H 	0.6898	0.0618	0.8843	0.082
Mof_H 	H 	0.8308	0.9789	0.8744	0.086
Mof_O 	O 	0.059	0.41687	0.89991	-0.434
Mof_O 	O 	0.08164	0.43695	0.84221	-0.417
Mof_O 	O 	0.00033	0.57028	0.7055	-0.272
Mof_O 	O 	0.92843	0.61933	0.68799	-0.55
Mof_O 	O 	0.08431	0.7817	0.89489	-0.381
Mof_O 	O 	0.0157	0.82019	0.86487	-0.437
Mof_N 	N 	0.93206	0.55733	0.8782	-0.254
Mof_N 	N 	0.89359	0.60555	0.82265	-0.242
Mof_N 	N 	0.9298	0.65881	0.8797	-0.251
Mof_C 	C 	0.94934	0.53449	0.90912	0.082
Mof_C 	C 	0.98809	0.49715	0.90791	-0.12
Mof_C 	C 	0.00981	0.48266	0.87387	0.015
Mof_C 	C 	0.9925	0.50633	0.8419	-0.083
Mof_C 	C 	0.95388	0.54379	0.84497	0.05
Mof_C 	C 	0.934	0.57263	0.81368	0.029
Mof_C 	C 	0.95518	0.56858	0.77796	-0.044
Mof_C 	C 	0.93331	0.59848	0.75067	-0.059
Mof_C 	C 	0.89074	0.6311	0.75989	-0.042
Mof_C 	C 	0.87247	0.63429	0.79599	0.041
Mof_C 	C 	0.05299	0.44254	0.87157	0.288
Mof_C 	C 	0.9563	0.59531	0.71115	0.412
Mof_C 	C 	0.98677	0.65475	0.88392	0.068
Mof_C 	C 	0.02212	0.69451	0.88508	-0.102
Mof_C 	C 	0.9984	0.73953	0.88077	0.019
Mof_C 	C 	0.9397	0.74394	0.87678	-0.085
Mof_C 	C 	0.90593	0.70297	0.87672	0.045
Mof_C 	C 	0.0358	0.78404	0.87957	0.298
Mof_H 	H 	0.93	0.5468	0.9297	-0.005
Mof_H 	H 	0.0062	0.4839	0.9268	0.098
Mof_H 	H 	0.9859	0.5475	0.7724	0.061
Mof_H 	H 	0.0069	0.497	0.8183	0.075
Mof_H 	H 	0.8749	0.6519	0.742	0.061
Mof_H 	H 	0.8442	0.6531	0.8059	0.011
Mof_H 	H 	0.0015	0.6215	0.8822	0.002
Mof_H 	H 	0.0602	0.6882	0.8843	0.083
Mof_H 	H 	0.9192	0.7711	0.8744	0.086
Mof_O 	O 	0.059	0.91687	0.39991	-0.434
Mof_O 	O 	0.08164	0.93695	0.34221	-0.417
Mof_O 	O 	0.00033	0.07028	0.2055	-0.271
Mof_O 	O 	0.92843	0.11933	0.18799	-0.55
Mof_O 	O 	0.08431	0.2817	0.39489	-0.381
Mof_O 	O 	0.0157	0.32019	0.36487	-0.437
Mof_N 	N 	0.93206	0.05733	0.3782	-0.254
Mof_N 	N 	0.89359	0.10555	0.32265	-0.243
Mof_N 	N 	0.9298	0.15881	0.3797	-0.251
Mof_C 	C 	0.94934	0.03449	0.40912	0.081
Mof_C 	C 	0.98809	0.99715	0.40791	-0.119
Mof_C 	C 	0.00981	0.98266	0.37387	0.014
Mof_C 	C 	0.9925	0.00633	0.3419	-0.083
Mof_C 	C 	0.95388	0.04379	0.34497	0.05
Mof_C 	C 	0.934	0.07263	0.31368	0.029
Mof_C 	C 	0.95518	0.06858	0.27796	-0.044
Mof_C 	C 	0.93331	0.09848	0.25067	-0.059
Mof_C 	C 	0.89074	0.1311	0.25989	-0.042
Mof_C 	C 	0.87247	0.13429	0.29599	0.041
Mof_C 	C 	0.05299	0.94254	0.37157	0.288
Mof_C 	C 	0.9563	0.09531	0.21115	0.411
Mof_C 	C 	0.98677	0.15475	0.38392	0.065
Mof_C 	C 	0.02212	0.19451	0.38508	-0.099
Mof_C 	C 	0.9984	0.23953	0.38077	0.017
Mof_C 	C 	0.9397	0.24394	0.37678	-0.084
Mof_C 	C 	0.90593	0.20297	0.37672	0.045
Mof_C 	C 	0.0358	0.28404	0.37957	0.299
Mof_H 	H 	0.93	0.0468	0.4297	-0.004
Mof_H 	H 	0.0062	0.9839	0.4268	0.097
Mof_H 	H 	0.9859	0.0475	0.2724	0.061
Mof_H 	H 	0.0069	0.997	0.3183	0.075
Mof_H 	H 	0.8749	0.1519	0.242	0.061
Mof_H 	H 	0.8442	0.1531	0.3059	0.011
Mof_H 	H 	0.0015	0.1215	0.3822	0.003
Mof_H 	H 	0.0602	0.1882	0.3843	0.082
Mof_H 	H 	0.9192	0.2711	0.3744	0.085
Mof_O 	O 	0.559	0.41687	0.39991	-0.434
Mof_O 	O 	0.58164	0.43695	0.34221	-0.417
Mof_O 	O 	0.50033	0.57028	0.2055	-0.271
Mof_O 	O 	0.42843	0.61933	0.18799	-0.55
Mof_O 	O 	0.58431	0.7817	0.39489	-0.381
Mof_O 	O 	0.5157	0.82019	0.36487	-0.437
Mof_N 	N 	0.43206	0.55733	0.3782	-0.254
Mof_N 	N 	0.39359	0.60555	0.32265	-0.242
Mof_N 	N 	0.4298	0.65881	0.3797	-0.251
Mof_C 	C 	0.44934	0.53449	0.40912	0.083
Mof_C 	C 	0.48809	0.49715	0.40791	-0.121
Mof_C 	C 	0.50981	0.48266	0.37387	0.016
Mof_C 	C 	0.4925	0.50633	0.3419	-0.083
Mof_C 	C 	0.45388	0.54379	0.34497	0.05
Mof_C 	C 	0.434	0.57263	0.31368	0.029
Mof_C 	C 	0.45518	0.56858	0.27796	-0.044
Mof_C 	C 	0.43331	0.59848	0.25067	-0.059
Mof_C 	C 	0.39074	0.6311	0.25989	-0.042
Mof_C 	C 	0.37247	0.63429	0.29599	0.041
Mof_C 	C 	0.55299	0.44254	0.37157	0.288
Mof_C 	C 	0.4563	0.59531	0.21115	0.411
Mof_C 	C 	0.48677	0.65475	0.38392	0.067
Mof_C 	C 	0.52212	0.69451	0.38508	-0.101
Mof_C 	C 	0.4984	0.73953	0.38077	0.018
Mof_C 	C 	0.4397	0.74394	0.37678	-0.085
Mof_C 	C 	0.40593	0.70297	0.37672	0.045
Mof_C 	C 	0.5358	0.78404	0.37957	0.299
Mof_H 	H 	0.43	0.5468	0.4297	-0.005
Mof_H 	H 	0.5062	0.4839	0.4268	0.099
Mof_H 	H 	0.4859	0.5475	0.2724	0.061
Mof_H 	H 	0.5069	0.497	0.3183	0.075
Mof_H 	H 	0.3749	0.6519	0.242	0.061
Mof_H 	H 	0.3442	0.6531	0.3059	0.011
Mof_H 	H 	0.5015	0.6215	0.3822	0.003
Mof_H 	H 	0.5602	0.6882	0.3843	0.082
Mof_H 	H 	0.4192	0.7711	0.3744	0.085
Mof_O 	O 	0.559	0.91687	0.89991	-0.434
Mof_O 	O 	0.58164	0.93695	0.84221	-0.417
Mof_O 	O 	0.50033	0.07028	0.7055	-0.271
Mof_O 	O 	0.42843	0.11933	0.68799	-0.55
Mof_O 	O 	0.58431	0.2817	0.89489	-0.381
Mof_O 	O 	0.5157	0.32019	0.86487	-0.437
Mof_N 	N 	0.43206	0.05733	0.8782	-0.254
Mof_N 	N 	0.39359	0.10555	0.82265	-0.242
Mof_N 	N 	0.4298	0.15881	0.8797	-0.251
Mof_C 	C 	0.44934	0.03449	0.90912	0.083
Mof_C 	C 	0.48809	0.99715	0.90791	-0.121
Mof_C 	C 	0.50981	0.98266	0.87387	0.016
Mof_C 	C 	0.4925	0.00633	0.8419	-0.083
Mof_C 	C 	0.45388	0.04379	0.84497	0.05
Mof_C 	C 	0.434	0.07263	0.81368	0.029
Mof_C 	C 	0.45518	0.06858	0.77796	-0.044
Mof_C 	C 	0.43331	0.09848	0.75067	-0.059
Mof_C 	C 	0.39074	0.1311	0.75989	-0.042
Mof_C 	C 	0.37247	0.13429	0.79599	0.041
Mof_C 	C 	0.55299	0.94254	0.87157	0.288
Mof_C 	C 	0.4563	0.09531	0.71115	0.411
Mof_C 	C 	0.48677	0.15475	0.88392	0.067
Mof_C 	C 	0.52212	0.19451	0.88508	-0.101
Mof_C 	C 	0.4984	0.23953	0.88077	0.018
Mof_C 	C 	0.4397	0.24394	0.87678	-0.085
Mof_C 	C 	0.40593	0.20297	0.87672	0.045
Mof_C 	C 	0.5358	0.28404	0.87957	0.298
Mof_H 	H 	0.43	0.0468	0.9297	-0.005
Mof_H 	H 	0.5062	0.9839	0.9268	0.099
Mof_H 	H 	0.4859	0.0475	0.7724	0.061
Mof_H 	H 	0.5069	0.997	0.8183	0.075
Mof_H 	H 	0.3749	0.1519	0.742	0.061
Mof_H 	H 	0.3442	0.1531	0.8059	0.011
Mof_H 	H 	0.5015	0.1215	0.8822	0.003
Mof_H 	H 	0.5602	0.1882	0.8843	0.082
Mof_H 	H 	0.4192	0.2711	0.8744	0.085
Mof_O 	O 	0.059	0.83313	0.35009	-0.434
Mof_O 	O 	0.08164	0.81305	0.40779	-0.417
Mof_O 	O 	0.00033	0.67972	0.5445	-0.272
Mof_O 	O 	0.92843	0.63067	0.56201	-0.55
Mof_O 	O 	0.08431	0.4683	0.35511	-0.381
Mof_O 	O 	0.0157	0.42981	0.38513	-0.437
Mof_N 	N 	0.93206	0.69267	0.3718	-0.254
Mof_N 	N 	0.89359	0.64445	0.42735	-0.242
Mof_N 	N 	0.9298	0.59119	0.3703	-0.251
Mof_C 	C 	0.94934	0.71551	0.34088	0.082
Mof_C 	C 	0.98809	0.75285	0.34209	-0.12
Mof_C 	C 	0.00981	0.76734	0.37613	0.015
Mof_C 	C 	0.9925	0.74367	0.4081	-0.082
Mof_C 	C 	0.95388	0.70621	0.40503	0.05
Mof_C 	C 	0.934	0.67737	0.43632	0.029
Mof_C 	C 	0.95518	0.68142	0.47204	-0.044
Mof_C 	C 	0.93331	0.65152	0.49933	-0.059
Mof_C 	C 	0.89074	0.6189	0.49011	-0.042
Mof_C 	C 	0.87247	0.61571	0.45401	0.041
Mof_C 	C 	0.05299	0.80746	0.37843	0.288
Mof_C 	C 	0.9563	0.65469	0.53885	0.412
Mof_C 	C 	0.98677	0.59525	0.36608	0.067
Mof_C 	C 	0.02212	0.55549	0.36492	-0.101
Mof_C 	C 	0.9984	0.51047	0.36923	0.018
Mof_C 	C 	0.9397	0.50606	0.37322	-0.084
Mof_C 	C 	0.90593	0.54703	0.37328	0.045
Mof_C 	C 	0.0358	0.46596	0.37043	0.299
Mof_H 	H 	0.93	0.7032	0.3203	-0.005
Mof_H 	H 	0.0062	0.7661	0.3232	0.098
Mof_H 	H 	0.9859	0.7025	0.4776	0.061
Mof_H 	H 	0.0069	0.753	0.4317	0.075
Mof_H 	H 	0.8749	0.5981	0.508	0.061
Mof_H 	H 	0.8442	0.5969	0.4441	0.011
Mof_H 	H 	0.0015	0.6285	0.3678	0.003
Mof_H 	H 	0.0602	0.5618	0.3657	0.082
Mof_H 	H 	0.9192	0.4789	0.3756	0.085
Mof_O 	O 	0.059	0.33313	0.85009	-0.434
Mof_O 	O 	0.08164	0.31305	0.90779	-0.417
Mof_O 	O 	0.00033	0.17972	0.0445	-0.271
Mof_O 	O 	0.92843	0.13067	0.06201	-0.55
Mof_O 	O 	0.08431	0.9683	0.85511	-0.381
Mof_O 	O 	0.0157	0.92981	0.88513	-0.437
Mof_N 	N 	0.93206	0.19267	0.8718	-0.254
Mof_N 	N 	0.89359	0.14445	0.92735	-0.242
Mof_N 	N 	0.9298	0.09119	0.8703	-0.251
Mof_C 	C 	0.94934	0.21551	0.84088	0.083
Mof_C 	C 	0.98809	0.25285	0.84209	-0.121
Mof_C 	C 	0.00981	0.26734	0.87613	0.016
Mof_C 	C 	0.9925	0.24367	0.9081	-0.083
Mof_C 	C 	0.95388	0.20621	0.90503	0.05
Mof_C 	C 	0.934	0.17737	0.93632	0.029
Mof_C 	C 	0.95518	0.18142	0.97204	-0.044
Mof_C 	C 	0.93331	0.15152	0.99933	-0.059
Mof_C 	C 	0.89074	0.1189	0.99011	-0.041
Mof_C 	C 	0.87247	0.11571	0.95401	0.041
Mof_C 	C 	0.05299	0.30746	0.87843	0.288
Mof_C 	C 	0.9563	0.15469	0.03885	0.411
Mof_C 	C 	0.98677	0.09525	0.86608	0.066
Mof_C 	C 	0.02212	0.05549	0.86492	-0.1
Mof_C 	C 	0.9984	0.01047	0.86923	0.018
Mof_C 	C 	0.9397	0.00606	0.87322	-0.085
Mof_C 	C 	0.90593	0.04703	0.87328	0.045
Mof_C 	C 	0.0358	0.96596	0.87043	0.298
Mof_H 	H 	0.93	0.2032	0.8203	-0.005
Mof_H 	H 	0.0062	0.2661	0.8232	0.099
Mof_H 	H 	0.9859	0.2025	0.9776	0.061
Mof_H 	H 	0.0069	0.253	0.9317	0.075
Mof_H 	H 	0.8749	0.0981	0.008	0.061
Mof_H 	H 	0.8442	0.0969	0.9441	0.011
Mof_H 	H 	0.0015	0.1285	0.8678	0.003
Mof_H 	H 	0.0602	0.0618	0.8657	0.082
Mof_H 	H 	0.9192	0.9789	0.8756	0.086
Mof_O 	O 	0.559	0.83313	0.85009	-0.434
Mof_O 	O 	0.58164	0.81305	0.90779	-0.417
Mof_O 	O 	0.50033	0.67972	0.0445	-0.271
Mof_O 	O 	0.42843	0.63067	0.06201	-0.55
Mof_O 	O 	0.58431	0.4683	0.85511	-0.381
Mof_O 	O 	0.5157	0.42981	0.88513	-0.437
Mof_N 	N 	0.43206	0.69267	0.8718	-0.254
Mof_N 	N 	0.39359	0.64445	0.92735	-0.242
Mof_N 	N 	0.4298	0.59119	0.8703	-0.251
Mof_C 	C 	0.44934	0.71551	0.84088	0.083
Mof_C 	C 	0.48809	0.75285	0.84209	-0.121
Mof_C 	C 	0.50981	0.76734	0.87613	0.016
Mof_C 	C 	0.4925	0.74367	0.9081	-0.083
Mof_C 	C 	0.45388	0.70621	0.90503	0.05
Mof_C 	C 	0.434	0.67737	0.93632	0.029
Mof_C 	C 	0.45518	0.68142	0.97204	-0.044
Mof_C 	C 	0.43331	0.65152	0.99933	-0.059
Mof_C 	C 	0.39074	0.6189	0.99011	-0.042
Mof_C 	C 	0.37247	0.61571	0.95401	0.041
Mof_C 	C 	0.55299	0.80746	0.87843	0.288
Mof_C 	C 	0.4563	0.65469	0.03885	0.411
Mof_C 	C 	0.48677	0.59525	0.86608	0.067
Mof_C 	C 	0.52212	0.55549	0.86492	-0.101
Mof_C 	C 	0.4984	0.51047	0.86923	0.018
Mof_C 	C 	0.4397	0.50606	0.87322	-0.085
Mof_C 	C 	0.40593	0.54703	0.87328	0.045
Mof_C 	C 	0.5358	0.46596	0.87043	0.298
Mof_H 	H 	0.43	0.7032	0.8203	-0.005
Mof_H 	H 	0.5062	0.7661	0.8232	0.099
Mof_H 	H 	0.4859	0.7025	0.9776	0.061
Mof_H 	H 	0.5069	0.753	0.9317	0.075
Mof_H 	H 	0.3749	0.5981	0.008	0.062
Mof_H 	H 	0.3442	0.5969	0.9441	0.011
Mof_H 	H 	0.5015	0.6285	0.8678	0.003
Mof_H 	H 	0.5602	0.5618	0.8657	0.082
Mof_H 	H 	0.4192	0.4789	0.8756	0.085
Mof_O 	O 	0.559	0.33313	0.35009	-0.434
Mof_O 	O 	0.58164	0.31305	0.40779	-0.417
Mof_O 	O 	0.50033	0.17972	0.5445	-0.271
Mof_O 	O 	0.42843	0.13067	0.56201	-0.55
Mof_O 	O 	0.58431	0.9683	0.35511	-0.381
Mof_O 	O 	0.5157	0.92981	0.38513	-0.437
Mof_N 	N 	0.43206	0.19267	0.3718	-0.254
Mof_N 	N 	0.39359	0.14445	0.42735	-0.242
Mof_N 	N 	0.4298	0.09119	0.3703	-0.251
Mof_C 	C 	0.44934	0.21551	0.34088	0.083
Mof_C 	C 	0.48809	0.25285	0.34209	-0.121
Mof_C 	C 	0.50981	0.26734	0.37613	0.016
Mof_C 	C 	0.4925	0.24367	0.4081	-0.083
Mof_C 	C 	0.45388	0.20621	0.40503	0.05
Mof_C 	C 	0.434	0.17737	0.43632	0.029
Mof_C 	C 	0.45518	0.18142	0.47204	-0.044
Mof_C 	C 	0.43331	0.15152	0.49933	-0.059
Mof_C 	C 	0.39074	0.1189	0.49011	-0.042
Mof_C 	C 	0.37247	0.11571	0.45401	0.041
Mof_C 	C 	0.55299	0.30746	0.37843	0.288
Mof_C 	C 	0.4563	0.15469	0.53885	0.411
Mof_C 	C 	0.48677	0.09525	0.36608	0.067
Mof_C 	C 	0.52212	0.05549	0.36492	-0.101
Mof_C 	C 	0.4984	0.01047	0.36923	0.018
Mof_C 	C 	0.4397	0.00606	0.37322	-0.084
Mof_C 	C 	0.40593	0.04703	0.37328	0.045
Mof_C 	C 	0.5358	0.96596	0.37043	0.299
Mof_H 	H 	0.43	0.2032	0.3203	-0.005
Mof_H 	H 	0.5062	0.2661	0.3232	0.099
Mof_H 	H 	0.4859	0.2025	0.4776	0.061
Mof_H 	H 	0.5069	0.253	0.4317	0.075
Mof_H 	H 	0.3749	0.0981	0.508	0.061
Mof_H 	H 	0.3442	0.0969	0.4441	0.011
Mof_H 	H 	0.5015	0.1285	0.3678	0.003
Mof_H 	H 	0.5602	0.0618	0.3657	0.082
Mof_H 	H 	0.4192	0.9789	0.3756	0.085
Mof_O 	O 	0.191	0.41687	0.35009	-0.434
Mof_O 	O 	0.16836	0.43695	0.40779	-0.417
Mof_O 	O 	0.24967	0.57028	0.5445	-0.271
Mof_O 	O 	0.32157	0.61933	0.56201	-0.55
Mof_O 	O 	0.16569	0.7817	0.35511	-0.381
Mof_O 	O 	0.2343	0.82019	0.38513	-0.437
Mof_N 	N 	0.31794	0.55733	0.3718	-0.254
Mof_N 	N 	0.35641	0.60555	0.42735	-0.242
Mof_N 	N 	0.3202	0.65881	0.3703	-0.251
Mof_C 	C 	0.30066	0.53449	0.34088	0.083
Mof_C 	C 	0.26191	0.49715	0.34209	-0.121
Mof_C 	C 	0.24019	0.48266	0.37613	0.016
Mof_C 	C 	0.2575	0.50633	0.4081	-0.083
Mof_C 	C 	0.29612	0.54379	0.40503	0.05
Mof_C 	C 	0.316	0.57263	0.43632	0.029
Mof_C 	C 	0.29482	0.56858	0.47204	-0.044
Mof_C 	C 	0.31669	0.59848	0.49933	-0.059
Mof_C 	C 	0.35926	0.6311	0.49011	-0.042
Mof_C 	C 	0.37753	0.63429	0.45401	0.041
Mof_C 	C 	0.19701	0.44254	0.37843	0.288
Mof_C 	C 	0.2937	0.59531	0.53885	0.411
Mof_C 	C 	0.26323	0.65475	0.36608	0.067
Mof_C 	C 	0.22788	0.69451	0.36492	-0.101
Mof_C 	C 	0.2516	0.73953	0.36923	0.018
Mof_C 	C 	0.3103	0.74394	0.37322	-0.084
Mof_C 	C 	0.34407	0.70297	0.37328	0.045
Mof_C 	C 	0.2142	0.78404	0.37043	0.299
Mof_H 	H 	0.32	0.5468	0.3203	-0.005
Mof_H 	H 	0.2438	0.4839	0.3232	0.099
Mof_H 	H 	0.2641	0.5475	0.4776	0.061
Mof_H 	H 	0.2431	0.497	0.4317	0.075
Mof_H 	H 	0.3751	0.6519	0.508	0.061
Mof_H 	H 	0.4058	0.6531	0.4441	0.011
Mof_H 	H 	0.2485	0.6215	0.3678	0.003
Mof_H 	H 	0.1898	0.6882	0.3657	0.082
Mof_H 	H 	0.3308	0.7711	0.3756	0.085
Mof_O 	O 	0.191	0.91687	0.85009	-0.434
Mof_O 	O 	0.16836	0.93695	0.90779	-0.417
Mof_O 	O 	0.24967	0.07028	0.0445	-0.271
Mof_O 	O 	0.32157	0.11933	0.06201	-0.55
Mof_O 	O 	0.16569	0.2817	0.85511	-0.381
Mof_O 	O 	0.2343	0.32019	0.88513	-0.437
Mof_N 	N 	0.31794	0.05733	0.8718	-0.254
Mof_N 	N 	0.35641	0.10555	0.92735	-0.242
Mof_N 	N 	0.3202	0.15881	0.8703	-0.251
Mof_C 	C 	0.30066	0.03449	0.84088	0.083
Mof_C 	C 	0.26191	0.99715	0.84209	-0.121
Mof_C 	C 	0.24019	0.98266	0.87613	0.015
Mof_C 	C 	0.2575	0.00633	0.9081	-0.082
Mof_C 	C 	0.29612	0.04379	0.90503	0.05
Mof_C 	C 	0.316	0.07263	0.93632	0.029
Mof_C 	C 	0.29482	0.06858	0.97204	-0.044
Mof_C 	C 	0.31669	0.09848	0.99933	-0.059
Mof_C 	C 	0.35926	0.1311	0.99011	-0.042
Mof_C 	C 	0.37753	0.13429	0.95401	0.041
Mof_C 	C 	0.19701	0.94254	0.87843	0.288
Mof_C 	C 	0.2937	0.09531	0.03885	0.411
Mof_C 	C 	0.26323	0.15475	0.86608	0.067
Mof_C 	C 	0.22788	0.19451	0.86492	-0.101
Mof_C 	C 	0.2516	0.23953	0.86923	0.018
Mof_C 	C 	0.3103	0.24394	0.87322	-0.085
Mof_C 	C 	0.34407	0.20297	0.87328	0.045
Mof_C 	C 	0.2142	0.28404	0.87043	0.298
Mof_H 	H 	0.32	0.0468	0.8203	-0.005
Mof_H 	H 	0.2438	0.9839	0.8232	0.099
Mof_H 	H 	0.2641	0.0475	0.9776	0.061
Mof_H 	H 	0.2431	0.997	0.9317	0.075
Mof_H 	H 	0.3751	0.1519	0.008	0.061
Mof_H 	H 	0.4058	0.1531	0.9441	0.011
Mof_H 	H 	0.2485	0.1215	0.8678	0.003
Mof_H 	H 	0.1898	0.1882	0.8657	0.082
Mof_H 	H 	0.3308	0.2711	0.8756	0.085
Mof_O 	O 	0.691	0.41687	0.85009	-0.434
Mof_O 	O 	0.66836	0.43695	0.90779	-0.417
Mof_O 	O 	0.74967	0.57028	0.0445	-0.271
Mof_O 	O 	0.82157	0.61933	0.06201	-0.55
Mof_O 	O 	0.66569	0.7817	0.85511	-0.381
Mof_O 	O 	0.7343	0.82019	0.88513	-0.437
Mof_N 	N 	0.81794	0.55733	0.8718	-0.254
Mof_N 	N 	0.85641	0.60555	0.92735	-0.242
Mof_N 	N 	0.8202	0.65881	0.8703	-0.251
Mof_C 	C 	0.80066	0.53449	0.84088	0.083
Mof_C 	C 	0.76191	0.49715	0.84209	-0.121
Mof_C 	C 	0.74019	0.48266	0.87613	0.016
Mof_C 	C 	0.7575	0.50633	0.9081	-0.083
Mof_C 	C 	0.79612	0.54379	0.90503	0.05
Mof_C 	C 	0.816	0.57263	0.93632	0.029
Mof_C 	C 	0.79482	0.56858	0.97204	-0.044
Mof_C 	C 	0.81669	0.59848	0.99933	-0.059
Mof_C 	C 	0.85926	0.6311	0.99011	-0.041
Mof_C 	C 	0.87753	0.63429	0.95401	0.041
Mof_C 	C 	0.69701	0.44254	0.87843	0.288
Mof_C 	C 	0.7937	0.59531	0.03885	0.411
Mof_C 	C 	0.76323	0.65475	0.86608	0.067
Mof_C 	C 	0.72788	0.69451	0.86492	-0.101
Mof_C 	C 	0.7516	0.73953	0.86923	0.018
Mof_C 	C 	0.8103	0.74394	0.87322	-0.084
Mof_C 	C 	0.84407	0.70297	0.87328	0.045
Mof_C 	C 	0.7142	0.78404	0.87043	0.299
Mof_H 	H 	0.82	0.5468	0.8203	-0.005
Mof_H 	H 	0.7438	0.4839	0.8232	0.099
Mof_H 	H 	0.7641	0.5475	0.9776	0.061
Mof_H 	H 	0.7431	0.497	0.9317	0.075
Mof_H 	H 	0.8751	0.6519	0.008	0.061
Mof_H 	H 	0.9058	0.6531	0.9441	0.011
Mof_H 	H 	0.7485	0.6215	0.8678	0.003
Mof_H 	H 	0.6898	0.6882	0.8657	0.082
Mof_H 	H 	0.8308	0.7711	0.8756	0.085
Mof_O 	O 	0.691	0.91687	0.35009	-0.434
Mof_O 	O 	0.66836	0.93695	0.40779	-0.417
Mof_O 	O 	0.74967	0.07028	0.5445	-0.271
Mof_O 	O 	0.82157	0.11933	0.56201	-0.55
Mof_O 	O 	0.66569	0.2817	0.35511	-0.381
Mof_O 	O 	0.7343	0.32019	0.38513	-0.437
Mof_N 	N 	0.81794	0.05733	0.3718	-0.254
Mof_N 	N 	0.85641	0.10555	0.42735	-0.242
Mof_N 	N 	0.8202	0.15881	0.3703	-0.251
Mof_C 	C 	0.80066	0.03449	0.34088	0.083
Mof_C 	C 	0.76191	0.99715	0.34209	-0.121
Mof_C 	C 	0.74019	0.98266	0.37613	0.016
Mof_C 	C 	0.7575	0.00633	0.4081	-0.084
Mof_C 	C 	0.79612	0.04379	0.40503	0.05
Mof_C 	C 	0.816	0.07263	0.43632	0.029
Mof_C 	C 	0.79482	0.06858	0.47204	-0.044
Mof_C 	C 	0.81669	0.09848	0.49933	-0.059
Mof_C 	C 	0.85926	0.1311	0.49011	-0.042
Mof_C 	C 	0.87753	0.13429	0.45401	0.041
Mof_C 	C 	0.69701	0.94254	0.37843	0.288
Mof_C 	C 	0.7937	0.09531	0.53885	0.411
Mof_C 	C 	0.76323	0.15475	0.36608	0.067
Mof_C 	C 	0.72788	0.19451	0.36492	-0.101
Mof_C 	C 	0.7516	0.23953	0.36923	0.018
Mof_C 	C 	0.8103	0.24394	0.37322	-0.085
Mof_C 	C 	0.84407	0.20297	0.37328	0.045
Mof_C 	C 	0.7142	0.28404	0.37043	0.298
Mof_H 	H 	0.82	0.0468	0.3203	-0.005
Mof_H 	H 	0.7438	0.9839	0.3232	0.099
Mof_H 	H 	0.7641	0.0475	0.4776	0.061
Mof_H 	H 	0.7431	0.997	0.4317	0.076
Mof_H 	H 	0.8751	0.1519	0.508	0.061
Mof_H 	H 	0.9058	0.1531	0.4441	0.011
Mof_H 	H 	0.7485	0.1215	0.3678	0.003
Mof_H 	H 	0.6898	0.1882	0.3657	0.082
Mof_H 	H 	0.8308	0.2711	0.3756	0.085
Mof_Pr	Pr	0.89838	0.125	0.125	2.732
Mof_Pr	Pr	0.89838	0.625	0.625	2.732
Mof_Pr	Pr	0.39838	0.125	0.625	2.732
Mof_Pr	Pr	0.85162	0.625	0.125	2.732
Mof_Pr	Pr	0.35162	0.625	0.625	2.732
Mof_Pr	Pr	0.85162	0.125	0.625	2.732
Mof_Pr	Pr	0.35162	0.125	0.125	2.732
Mof_Pr	Pr	0.39838	0.625	0.125	2.732
Mof_Pr	Pr	0.10162	0.875	0.875	2.732
Mof_Pr	Pr	0.10162	0.375	0.375	2.732
Mof_Pr	Pr	0.60162	0.875	0.375	2.732
Mof_Pr	Pr	0.14838	0.375	0.875	2.732
Mof_Pr	Pr	0.64838	0.375	0.375	2.732
Mof_Pr	Pr	0.14838	0.875	0.375	2.732
Mof_Pr	Pr	0.64838	0.875	0.875	2.732
Mof_Pr	Pr	0.60162	0.375	0.875	2.732
Mof_Co	Co	0.625	0.3574	0.125	1.17
Mof_Co	Co	0.625	0.8574	0.625	1.17
Mof_Co	Co	0.125	0.3926	0.125	1.17
Mof_Co	Co	0.125	0.8926	0.625	1.17
Mof_Co	Co	0.625	0.3926	0.625	1.17
Mof_Co	Co	0.125	0.3574	0.625	1.17
Mof_Co	Co	0.125	0.8574	0.125	1.17
Mof_Co	Co	0.625	0.8926	0.125	1.17
Mof_Co	Co	0.375	0.6426	0.875	1.17
Mof_Co	Co	0.375	0.1426	0.375	1.17
Mof_Co	Co	0.875	0.6074	0.875	1.17
Mof_Co	Co	0.875	0.1074	0.375	1.17
Mof_Co	Co	0.875	0.6426	0.375	1.17
Mof_Co	Co	0.875	0.1426	0.875	1.17
Mof_Co	Co	0.375	0.6074	0.375	1.17
Mof_Co	Co	0.375	0.1074	0.875	1.17
_end
