data_functionalizedCrystal
_audit_creation_method	'EQeq! by Chris Wilmer'
_symmetry_space_group_name_H-M	'P1'
_symmetry_Int_Tables_number	1
_symmetry_cell_setting	triclinic
loop_
_symmetry_equiv_pos_as_xyz
  x,y,z
_cell_length_a	26.846
_cell_length_b	27.178
_cell_length_c	9.766
_cell_angle_alpha	90
_cell_angle_beta	90
_cell_angle_gamma	90
loop_
_atom_site_label
_atom_site_type_symbol
_atom_site_fract_x
_atom_site_fract_y
_atom_site_fract_z
_atom_site_charge
Mof_O 	O 	0.901	0.3109	0.9699	-0.55
Mof_C 	C 	0.9283	0.3312	0.876	0.471
Mof_O 	O 	0.9614	0.31057	0.8158	-0.527
Mof_C 	C 	0.9154	0.3831	0.8354	-0.207
Mof_C 	C 	0.8772	0.4085	0.8985	0.205
Mof_C 	C 	0.944	0.4055	0.737	0.05
Mof_H 	H 	0.8582	0.3929	0.968	-0.022
Mof_C 	C 	0.8671	0.4543	0.863	-0.287
Mof_C 	C 	0.9353	0.4533	0.6966	-0.037
Mof_H 	H 	0.9704	0.3876	0.6957	0.031
Mof_C 	C 	0.8975	0.4782	0.7563	0.027
Mof_C 	C 	0.8242	0.4767	0.9399	-0.062
Mof_C 	C 	0.9675	0.4763	0.5947	-0.012
Mof_C 	C 	0.2232	0.2949	0.2822	0.009
Mof_H 	H 	0.8905	0.5111	0.7294	0.021
Mof_O 	O 	0.8064	0.5142	0.9071	-0.48
Mof_O 	O 	0.8053	0.4597	0.037	-0.182
Mof_C 	C 	0.0155	0.4927	0.6343	0.005
Mof_C 	C 	0.9524	0.4855	0.46	0.012
Mof_C 	C 	0.1975	0.3392	0.2787	-0.058
Mof_C 	C 	0.0327	0.4857	0.7743	-0.055
Mof_C 	C 	0.9046	0.4683	0.4116	-0.074
Mof_H 	H 	0.1622	0.3401	0.2825	0.057
Mof_C 	C 	0.2247	0.3813	0.27	-0.04
Mof_H 	H 	0.0114	0.4709	0.8401	0.052
Mof_C 	C 	0.0794	0.5004	0.8109	-0.044
Mof_H 	H 	0.8831	0.4509	0.4718	0.049
Mof_C 	C 	0.8906	0.4767	0.2826	-0.023
Mof_H 	H 	0.2077	0.4119	0.2631	0.072
Mof_H 	H 	0.0911	0.4948	0.9013	0.034
Mof_H 	H 	0.8583	0.4663	0.2545	0.007
Mof_O 	O 	0.832	0.5389	0.8621	-0.265
Mof_O 	O 	0.8078	0.4814	0.9793	-0.226
Mof_C 	C 	0.8353	0.498	0.898	0.811
Mof_O 	O 	0.599	0.1891	0.9699	-0.552
Mof_C 	C 	0.5717	0.1688	0.876	0.47
Mof_O 	O 	0.5386	0.18943	0.8158	-0.528
Mof_C 	C 	0.5846	0.1169	0.8354	-0.207
Mof_C 	C 	0.6228	0.0915	0.8985	0.203
Mof_C 	C 	0.556	0.0945	0.737	0.048
Mof_H 	H 	0.6418	0.1071	0.968	-0.023
Mof_C 	C 	0.6329	0.0457	0.863	-0.287
Mof_C 	C 	0.5647	0.0467	0.6966	-0.037
Mof_H 	H 	0.5296	0.1124	0.6957	0.03
Mof_C 	C 	0.6025	0.0218	0.7563	0.025
Mof_C 	C 	0.6758	0.0233	0.9399	-0.066
Mof_C 	C 	0.5325	0.0237	0.5947	-0.013
Mof_C 	C 	0.2768	0.2051	0.2822	0.009
Mof_H 	H 	0.6095	0.9889	0.7294	0.022
Mof_O 	O 	0.6936	0.9858	0.9071	-0.478
Mof_O 	O 	0.6947	0.0403	0.037	-0.18
Mof_C 	C 	0.4845	0.0073	0.6343	0.006
Mof_C 	C 	0.5476	0.0145	0.46	0.011
Mof_C 	C 	0.3025	0.1608	0.2787	-0.058
Mof_C 	C 	0.4673	0.0143	0.7743	-0.058
Mof_C 	C 	0.5954	0.0317	0.4116	-0.072
Mof_H 	H 	0.3378	0.1599	0.2825	0.057
Mof_C 	C 	0.2753	0.1187	0.27	-0.04
Mof_H 	H 	0.4886	0.0291	0.8401	0.053
Mof_C 	C 	0.4206	0.9996	0.8109	-0.04
Mof_H 	H 	0.6169	0.0491	0.4718	0.049
Mof_C 	C 	0.6094	0.0233	0.2826	-0.025
Mof_H 	H 	0.2923	0.0881	0.2631	0.072
Mof_H 	H 	0.4089	0.0052	0.9013	0.032
Mof_H 	H 	0.6417	0.0337	0.2545	0.007
Mof_O 	O 	0.668	0.9611	0.8621	-0.265
Mof_O 	O 	0.6922	0.0186	0.9793	-0.226
Mof_C 	C 	0.6647	0.002	0.898	0.812
Mof_O 	O 	0.099	0.8109	0.0301	-0.551
Mof_C 	C 	0.0717	0.8312	0.124	0.47
Mof_O 	O 	0.0386	0.81057	0.1842	-0.528
Mof_C 	C 	0.0846	0.8831	0.1646	-0.207
Mof_C 	C 	0.1228	0.9085	0.1015	0.202
Mof_C 	C 	0.056	0.9055	0.263	0.047
Mof_H 	H 	0.1418	0.8929	0.032	-0.022
Mof_C 	C 	0.1329	0.9543	0.137	-0.286
Mof_C 	C 	0.0647	0.9533	0.3034	-0.036
Mof_H 	H 	0.0296	0.8876	0.3043	0.03
Mof_C 	C 	0.1025	0.9782	0.2437	0.024
Mof_C 	C 	0.1758	0.9767	0.0601	-0.066
Mof_C 	C 	0.0325	0.9763	0.4053	-0.014
Mof_C 	C 	0.7768	0.7949	0.7178	0.009
Mof_H 	H 	0.1095	0.0111	0.2706	0.023
Mof_O 	O 	0.1936	0.0142	0.0929	-0.477
Mof_O 	O 	0.1947	0.9597	0.963	-0.18
Mof_C 	C 	0.9845	0.9927	0.3657	0.007
Mof_C 	C 	0.0476	0.9855	0.54	0.011
Mof_C 	C 	0.8025	0.8392	0.7213	-0.058
Mof_C 	C 	0.9673	0.9857	0.2257	-0.057
Mof_C 	C 	0.0954	0.9683	0.5884	-0.073
Mof_H 	H 	0.8378	0.8401	0.7175	0.057
Mof_C 	C 	0.7753	0.8813	0.73	-0.04
Mof_H 	H 	0.9886	0.9709	0.1599	0.053
Mof_C 	C 	0.9206	0.0004	0.1891	-0.042
Mof_H 	H 	0.1169	0.9509	0.5282	0.049
Mof_C 	C 	0.1094	0.9767	0.7174	-0.024
Mof_H 	H 	0.7923	0.9119	0.7369	0.072
Mof_H 	H 	0.9089	0.9948	0.0987	0.033
Mof_H 	H 	0.1417	0.9663	0.7455	0.007
Mof_O 	O 	0.168	0.0389	0.1379	-0.265
Mof_O 	O 	0.1922	0.9814	0.0207	-0.225
Mof_C 	C 	0.1647	0.998	0.102	0.811
Mof_O 	O 	0.401	0.6891	0.0301	-0.552
Mof_C 	C 	0.4283	0.6688	0.124	0.47
Mof_O 	O 	0.4614	0.68943	0.1842	-0.528
Mof_C 	C 	0.4154	0.6169	0.1646	-0.208
Mof_C 	C 	0.3772	0.5915	0.1015	0.204
Mof_C 	C 	0.444	0.5945	0.263	0.049
Mof_H 	H 	0.3582	0.6071	0.032	-0.023
Mof_C 	C 	0.3671	0.5457	0.137	-0.288
Mof_C 	C 	0.4353	0.5467	0.3034	-0.038
Mof_H 	H 	0.4704	0.6124	0.3043	0.03
Mof_C 	C 	0.3975	0.5218	0.2437	0.027
Mof_C 	C 	0.3242	0.5233	0.0601	-0.062
Mof_C 	C 	0.4675	0.5237	0.4053	-0.013
Mof_C 	C 	0.7232	0.7051	0.7178	0.009
Mof_H 	H 	0.3905	0.4889	0.2706	0.021
Mof_O 	O 	0.3064	0.4858	0.0929	-0.48
Mof_O 	O 	0.3053	0.5403	0.963	-0.181
Mof_C 	C 	0.5155	0.5073	0.3657	0.005
Mof_C 	C 	0.4524	0.5145	0.54	0.012
Mof_C 	C 	0.6975	0.6608	0.7213	-0.058
Mof_C 	C 	0.5327	0.5143	0.2257	-0.055
Mof_C 	C 	0.4046	0.5317	0.5884	-0.074
Mof_H 	H 	0.6622	0.6599	0.7175	0.057
Mof_C 	C 	0.7247	0.6187	0.73	-0.04
Mof_H 	H 	0.5114	0.5291	0.1599	0.052
Mof_C 	C 	0.5794	0.4996	0.1891	-0.044
Mof_H 	H 	0.3831	0.5491	0.5282	0.049
Mof_C 	C 	0.3906	0.5233	0.7174	-0.023
Mof_H 	H 	0.7077	0.5881	0.7369	0.072
Mof_H 	H 	0.5911	0.5052	0.0987	0.034
Mof_H 	H 	0.3583	0.5337	0.7455	0.007
Mof_O 	O 	0.332	0.4611	0.1379	-0.265
Mof_O 	O 	0.3078	0.5186	0.0207	-0.226
Mof_C 	C 	0.3353	0.502	0.102	0.812
Mof_O 	O 	0.099	0.6891	0.0301	-0.551
Mof_C 	C 	0.0717	0.6688	0.124	0.47
Mof_O 	O 	0.0386	0.68943	0.1842	-0.528
Mof_C 	C 	0.0846	0.6169	0.1646	-0.208
Mof_C 	C 	0.1228	0.5915	0.1015	0.204
Mof_C 	C 	0.056	0.5945	0.263	0.049
Mof_H 	H 	0.1418	0.6071	0.032	-0.023
Mof_C 	C 	0.1329	0.5457	0.137	-0.288
Mof_C 	C 	0.0647	0.5467	0.3034	-0.038
Mof_H 	H 	0.0296	0.6124	0.3043	0.03
Mof_C 	C 	0.1025	0.5218	0.2437	0.027
Mof_C 	C 	0.1758	0.5233	0.0601	-0.062
Mof_C 	C 	0.0325	0.5237	0.4053	-0.012
Mof_C 	C 	0.7768	0.7051	0.7178	0.009
Mof_H 	H 	0.1095	0.4889	0.2706	0.021
Mof_O 	O 	0.1936	0.4858	0.0929	-0.48
Mof_O 	O 	0.1947	0.5403	0.963	-0.182
Mof_C 	C 	0.9845	0.5073	0.3657	0.005
Mof_C 	C 	0.0476	0.5145	0.54	0.012
Mof_C 	C 	0.8025	0.6608	0.7213	-0.058
Mof_C 	C 	0.9673	0.5143	0.2257	-0.055
Mof_C 	C 	0.0954	0.5317	0.5884	-0.074
Mof_H 	H 	0.8378	0.6599	0.7175	0.057
Mof_C 	C 	0.7753	0.6187	0.73	-0.04
Mof_H 	H 	0.9886	0.5291	0.1599	0.052
Mof_C 	C 	0.9206	0.4996	0.1891	-0.044
Mof_H 	H 	0.1169	0.5491	0.5282	0.049
Mof_C 	C 	0.1094	0.5233	0.7174	-0.023
Mof_H 	H 	0.7923	0.5881	0.7369	0.072
Mof_H 	H 	0.9089	0.5052	0.0987	0.034
Mof_H 	H 	0.1417	0.5337	0.7455	0.007
Mof_O 	O 	0.168	0.4611	0.1379	-0.265
Mof_O 	O 	0.1922	0.5186	0.0207	-0.226
Mof_C 	C 	0.1647	0.502	0.102	0.811
Mof_O 	O 	0.401	0.8109	0.0301	-0.552
Mof_C 	C 	0.4283	0.8312	0.124	0.47
Mof_O 	O 	0.4614	0.81057	0.1842	-0.528
Mof_C 	C 	0.4154	0.8831	0.1646	-0.207
Mof_C 	C 	0.3772	0.9085	0.1015	0.203
Mof_C 	C 	0.444	0.9055	0.263	0.048
Mof_H 	H 	0.3582	0.8929	0.032	-0.023
Mof_C 	C 	0.3671	0.9543	0.137	-0.287
Mof_C 	C 	0.4353	0.9533	0.3034	-0.037
Mof_H 	H 	0.4704	0.8876	0.3043	0.03
Mof_C 	C 	0.3975	0.9782	0.2437	0.025
Mof_C 	C 	0.3242	0.9767	0.0601	-0.066
Mof_C 	C 	0.4675	0.9763	0.4053	-0.013
Mof_C 	C 	0.7232	0.7949	0.7178	0.009
Mof_H 	H 	0.3905	0.0111	0.2706	0.022
Mof_O 	O 	0.3064	0.0142	0.0929	-0.478
Mof_O 	O 	0.3053	0.9597	0.963	-0.18
Mof_C 	C 	0.5155	0.9927	0.3657	0.006
Mof_C 	C 	0.4524	0.9855	0.54	0.011
Mof_C 	C 	0.6975	0.8392	0.7213	-0.058
Mof_C 	C 	0.5327	0.9857	0.2257	-0.058
Mof_C 	C 	0.4046	0.9683	0.5884	-0.072
Mof_H 	H 	0.6622	0.8401	0.7175	0.057
Mof_C 	C 	0.7247	0.8813	0.73	-0.04
Mof_H 	H 	0.5114	0.9709	0.1599	0.053
Mof_C 	C 	0.5794	0.0004	0.1891	-0.04
Mof_H 	H 	0.3831	0.9509	0.5282	0.049
Mof_C 	C 	0.3906	0.9767	0.7174	-0.025
Mof_H 	H 	0.7077	0.9119	0.7369	0.072
Mof_H 	H 	0.5911	0.9948	0.0987	0.032
Mof_H 	H 	0.3583	0.9663	0.7455	0.007
Mof_O 	O 	0.332	0.0389	0.1379	-0.265
Mof_O 	O 	0.3078	0.9814	0.0207	-0.226
Mof_C 	C 	0.3353	0.998	0.102	0.812
Mof_O 	O 	0.901	0.1891	0.9699	-0.551
Mof_C 	C 	0.9283	0.1688	0.876	0.47
Mof_O 	O 	0.9614	0.18943	0.8158	-0.528
Mof_C 	C 	0.9154	0.1169	0.8354	-0.207
Mof_C 	C 	0.8772	0.0915	0.8985	0.202
Mof_C 	C 	0.944	0.0945	0.737	0.047
Mof_H 	H 	0.8582	0.1071	0.968	-0.022
Mof_C 	C 	0.8671	0.0457	0.863	-0.286
Mof_C 	C 	0.9353	0.0467	0.6966	-0.036
Mof_H 	H 	0.9704	0.1124	0.6957	0.03
Mof_C 	C 	0.8975	0.0218	0.7563	0.024
Mof_C 	C 	0.8242	0.0233	0.9399	-0.066
Mof_C 	C 	0.9675	0.0237	0.5947	-0.014
Mof_C 	C 	0.2232	0.2051	0.2822	0.009
Mof_H 	H 	0.8905	0.9889	0.7294	0.023
Mof_O 	O 	0.8064	0.9858	0.9071	-0.477
Mof_O 	O 	0.8053	0.0403	0.037	-0.18
Mof_C 	C 	0.0155	0.0073	0.6343	0.007
Mof_C 	C 	0.9524	0.0145	0.46	0.011
Mof_C 	C 	0.1975	0.1608	0.2787	-0.058
Mof_C 	C 	0.0327	0.0143	0.7743	-0.057
Mof_C 	C 	0.9046	0.0317	0.4116	-0.073
Mof_H 	H 	0.1622	0.1599	0.2825	0.057
Mof_C 	C 	0.2247	0.1187	0.27	-0.04
Mof_H 	H 	0.0114	0.0291	0.8401	0.053
Mof_C 	C 	0.0794	0.9996	0.8109	-0.042
Mof_H 	H 	0.8831	0.0491	0.4718	0.049
Mof_C 	C 	0.8906	0.0233	0.2826	-0.024
Mof_H 	H 	0.2077	0.0881	0.2631	0.072
Mof_H 	H 	0.0911	0.0052	0.9013	0.033
Mof_H 	H 	0.8583	0.0337	0.2545	0.007
Mof_O 	O 	0.832	0.9611	0.8621	-0.265
Mof_O 	O 	0.8078	0.0186	0.9793	-0.225
Mof_C 	C 	0.8353	0.002	0.898	0.811
Mof_O 	O 	0.599	0.3109	0.9699	-0.552
Mof_C 	C 	0.5717	0.3312	0.876	0.47
Mof_O 	O 	0.5386	0.31057	0.8158	-0.528
Mof_C 	C 	0.5846	0.3831	0.8354	-0.208
Mof_C 	C 	0.6228	0.4085	0.8985	0.204
Mof_C 	C 	0.556	0.4055	0.737	0.049
Mof_H 	H 	0.6418	0.3929	0.968	-0.023
Mof_C 	C 	0.6329	0.4543	0.863	-0.288
Mof_C 	C 	0.5647	0.4533	0.6966	-0.038
Mof_H 	H 	0.5296	0.3876	0.6957	0.03
Mof_C 	C 	0.6025	0.4782	0.7563	0.027
Mof_C 	C 	0.6758	0.4767	0.9399	-0.062
Mof_C 	C 	0.5325	0.4763	0.5947	-0.013
Mof_C 	C 	0.2768	0.2949	0.2822	0.009
Mof_H 	H 	0.6095	0.5111	0.7294	0.021
Mof_O 	O 	0.6936	0.5142	0.9071	-0.48
Mof_O 	O 	0.6947	0.4597	0.037	-0.181
Mof_C 	C 	0.4845	0.4927	0.6343	0.005
Mof_C 	C 	0.5476	0.4855	0.46	0.012
Mof_C 	C 	0.3025	0.3392	0.2787	-0.058
Mof_C 	C 	0.4673	0.4857	0.7743	-0.055
Mof_C 	C 	0.5954	0.4683	0.4116	-0.074
Mof_H 	H 	0.3378	0.3401	0.2825	0.057
Mof_C 	C 	0.2753	0.3813	0.27	-0.04
Mof_H 	H 	0.4886	0.4709	0.8401	0.052
Mof_C 	C 	0.4206	0.5004	0.8109	-0.044
Mof_H 	H 	0.6169	0.4509	0.4718	0.049
Mof_C 	C 	0.6094	0.4767	0.2826	-0.023
Mof_H 	H 	0.2923	0.4119	0.2631	0.072
Mof_H 	H 	0.4089	0.4948	0.9013	0.034
Mof_H 	H 	0.6417	0.4663	0.2545	0.007
Mof_O 	O 	0.668	0.5389	0.8621	-0.265
Mof_O 	O 	0.6922	0.4814	0.9793	-0.226
Mof_C 	C 	0.6647	0.498	0.898	0.812
Mof_Zn	Zn	0.90436	0.25	0.05862	1.19
Mof_O 	O 	0.9786	0.25	0.1177	-0.529
Mof_C 	C 	0.0233	0.25	0.0947	0.456
Mof_O 	O 	0.0422	0.25	0.9772	-0.478
Mof_C 	C 	0.0583	0.25	0.2088	-0.166
Mof_Zn	Zn	0.99961	0.25	0.81392	1.245
Mof_C 	C 	0.0408	0.25	0.3462	0.099
Mof_C 	C 	0.1099	0.25	0.1905	0.027
Mof_O 	O 	0.006	0.25	0.611	-0.478
Mof_O 	O 	0.0747	0.25	0.6902	-0.425
Mof_H 	H 	0.0059	0.25	0.3625	0.013
Mof_C 	C 	0.0721	0.25	0.4538	-0.172
Mof_C 	C 	0.1427	0.25	0.2968	-0.032
Mof_H 	H 	0.1227	0.25	0.0998	0.041
Mof_C 	C 	0.1208	0.25	0.4311	0.037
Mof_C 	C 	0.05	0.25	0.5962	0.483
Mof_C 	C 	0.1968	0.25	0.2829	-0.015
Mof_H 	H 	0.1424	0.25	0.5081	0.033
Mof_Zn	Zn	0.59564	0.25	0.05862	1.191
Mof_O 	O 	0.5214	0.25	0.1177	-0.528
Mof_C 	C 	0.4767	0.25	0.0947	0.454
Mof_O 	O 	0.4578	0.25	0.9772	-0.477
Mof_C 	C 	0.4417	0.25	0.2088	-0.165
Mof_Zn	Zn	0.50039	0.25	0.81392	1.245
Mof_C 	C 	0.4592	0.25	0.3462	0.098
Mof_C 	C 	0.3901	0.25	0.1905	0.026
Mof_O 	O 	0.494	0.25	0.611	-0.478
Mof_O 	O 	0.4253	0.25	0.6902	-0.425
Mof_H 	H 	0.4941	0.25	0.3625	0.013
Mof_C 	C 	0.4279	0.25	0.4538	-0.172
Mof_C 	C 	0.3573	0.25	0.2968	-0.032
Mof_H 	H 	0.3773	0.25	0.0998	0.042
Mof_C 	C 	0.3792	0.25	0.4311	0.036
Mof_C 	C 	0.45	0.25	0.5962	0.483
Mof_C 	C 	0.3032	0.25	0.2829	-0.015
Mof_H 	H 	0.3576	0.25	0.5081	0.033
Mof_Zn	Zn	0.09564	0.75	0.94138	1.19
Mof_O 	O 	0.0214	0.75	0.8823	-0.529
Mof_C 	C 	0.9767	0.75	0.9053	0.456
Mof_O 	O 	0.9578	0.75	0.0228	-0.478
Mof_C 	C 	0.9417	0.75	0.7912	-0.166
Mof_Zn	Zn	0.00039	0.75	0.18608	1.245
Mof_C 	C 	0.9592	0.75	0.6538	0.099
Mof_C 	C 	0.8901	0.75	0.8095	0.027
Mof_O 	O 	0.994	0.75	0.389	-0.478
Mof_O 	O 	0.9253	0.75	0.3098	-0.425
Mof_H 	H 	0.9941	0.75	0.6375	0.013
Mof_C 	C 	0.9279	0.75	0.5462	-0.172
Mof_C 	C 	0.8573	0.75	0.7032	-0.032
Mof_H 	H 	0.8773	0.75	0.9002	0.041
Mof_C 	C 	0.8792	0.75	0.5689	0.037
Mof_C 	C 	0.95	0.75	0.4038	0.483
Mof_C 	C 	0.8032	0.75	0.7171	-0.015
Mof_H 	H 	0.8576	0.75	0.4919	0.033
Mof_Zn	Zn	0.40436	0.75	0.94138	1.191
Mof_O 	O 	0.4786	0.75	0.8823	-0.528
Mof_C 	C 	0.5233	0.75	0.9053	0.454
Mof_O 	O 	0.5422	0.75	0.0228	-0.477
Mof_C 	C 	0.5583	0.75	0.7912	-0.165
Mof_Zn	Zn	0.49961	0.75	0.18608	1.245
Mof_C 	C 	0.5408	0.75	0.6538	0.098
Mof_C 	C 	0.6099	0.75	0.8095	0.026
Mof_O 	O 	0.506	0.75	0.389	-0.478
Mof_O 	O 	0.5747	0.75	0.3098	-0.425
Mof_H 	H 	0.5059	0.75	0.6375	0.013
Mof_C 	C 	0.5721	0.75	0.5462	-0.172
Mof_C 	C 	0.6427	0.75	0.7032	-0.032
Mof_H 	H 	0.6227	0.75	0.9002	0.042
Mof_C 	C 	0.6208	0.75	0.5689	0.036
Mof_C 	C 	0.55	0.75	0.4038	0.483
Mof_C 	C 	0.6968	0.75	0.7171	-0.015
Mof_H 	H 	0.6424	0.75	0.4919	0.033
Mof_Zn	Zn	0.75	0.5117	0.09632	1.164
Mof_Zn	Zn	0.75	0.9883	0.09632	1.164
Mof_Zn	Zn	0.25	0.0117	0.90368	1.164
Mof_Zn	Zn	0.25	0.4883	0.90368	1.164
_end
