data_functionalizedCrystal
_audit_creation_method	'EQeq! by Chris Wilmer'
_symmetry_space_group_name_H-M	'P1'
_symmetry_Int_Tables_number	1
_symmetry_cell_setting	triclinic
loop_
_symmetry_equiv_pos_as_xyz
  x,y,z
_cell_length_a	28.9058
_cell_length_b	28.9058
_cell_length_c	28.9058
_cell_angle_alpha	90
_cell_angle_beta	90
_cell_angle_gamma	90
loop_
_atom_site_label
_atom_site_type_symbol
_atom_site_fract_x
_atom_site_fract_y
_atom_site_fract_z
_atom_site_charge
Mof_O 	O 	0.3585	0.9201	0.5472	-0.209
Mof_N 	N 	0.4294	0.807	0.496	-0.235
Mof_N 	N 	0.2939	0.8766	0.5584	-0.213
Mof_H 	H 	0.2781	0.8527	0.5504	0.124
Mof_C 	C 	0.4056	0.7754	0.4723	0.077
Mof_H 	H 	0.4215	0.7525	0.4562	-0.023
Mof_C 	C 	0.3576	0.7759	0.471	-0.142
Mof_H 	H 	0.3418	0.7529	0.455	0.074
Mof_C 	C 	0.334	0.8092	0.4927	0.051
Mof_H 	H 	0.3019	0.8098	0.4917	0.007
Mof_C 	C 	0.3585	0.8429	0.5168	-0.102
Mof_C 	C 	0.4055	0.8405	0.5178	0.066
Mof_H 	H 	0.4217	0.863	0.5342	0.01
Mof_C 	C 	0.3369	0.8831	0.5411	0.222
Mof_C 	C 	0.2746	0.9106	0.5902	-0.047
Mof_H 	H 	0.2853	0.904	0.6213	0.054
Mof_H 	H 	0.2854	0.9412	0.5818	0.074
Mof_O 	O 	0.8585	0.4201	0.0472	-0.215
Mof_N 	N 	0.9294	0.307	0.996	-0.221
Mof_N 	N 	0.7939	0.3766	0.0584	-0.214
Mof_H 	H 	0.7781	0.3527	0.0504	0.121
Mof_C 	C 	0.9056	0.2754	0.9723	0.092
Mof_H 	H 	0.9215	0.2525	0.9562	-0.019
Mof_C 	C 	0.8576	0.2759	0.971	-0.158
Mof_H 	H 	0.8418	0.2529	0.955	0.084
Mof_C 	C 	0.834	0.3092	0.9927	0.09
Mof_H 	H 	0.8019	0.3098	0.9917	0.001
Mof_C 	C 	0.8585	0.3429	0.0168	-0.126
Mof_C 	C 	0.9055	0.3405	0.0178	0.058
Mof_H 	H 	0.9217	0.363	0.0342	0.012
Mof_C 	C 	0.8369	0.3831	0.0411	0.226
Mof_C 	C 	0.7746	0.4106	0.0902	-0.047
Mof_H 	H 	0.7853	0.404	0.1213	0.053
Mof_H 	H 	0.7854	0.4412	0.0818	0.069
Mof_O 	O 	0.6415	0.0799	0.5472	-0.217
Mof_N 	N 	0.5706	0.193	0.496	-0.235
Mof_N 	N 	0.7061	0.1234	0.5584	-0.214
Mof_H 	H 	0.7219	0.1473	0.5504	0.125
Mof_C 	C 	0.5944	0.2246	0.4723	0.079
Mof_H 	H 	0.5785	0.2475	0.4562	-0.022
Mof_C 	C 	0.6424	0.2241	0.471	-0.142
Mof_H 	H 	0.6582	0.2471	0.455	0.075
Mof_C 	C 	0.666	0.1908	0.4927	0.053
Mof_H 	H 	0.6981	0.1902	0.4917	0.007
Mof_C 	C 	0.6415	0.1571	0.5168	-0.104
Mof_C 	C 	0.5945	0.1595	0.5178	0.068
Mof_H 	H 	0.5783	0.137	0.5342	0.007
Mof_C 	C 	0.6631	0.1169	0.5411	0.222
Mof_C 	C 	0.7254	0.0894	0.5902	-0.041
Mof_H 	H 	0.7147	0.096	0.6213	0.05
Mof_H 	H 	0.7146	0.0588	0.5818	0.066
Mof_O 	O 	0.1415	0.5799	0.0472	-0.22
Mof_N 	N 	0.0706	0.693	0.996	-0.226
Mof_N 	N 	0.2061	0.6234	0.0584	-0.215
Mof_H 	H 	0.2219	0.6473	0.0504	0.121
Mof_C 	C 	0.0944	0.7246	0.9723	0.093
Mof_H 	H 	0.0785	0.7475	0.9562	-0.026
Mof_C 	C 	0.1424	0.7241	0.971	-0.162
Mof_H 	H 	0.1582	0.7471	0.955	0.085
Mof_C 	C 	0.166	0.6908	0.9927	0.092
Mof_H 	H 	0.1981	0.6902	0.9917	0
Mof_C 	C 	0.1415	0.6571	0.0168	-0.13
Mof_C 	C 	0.0945	0.6595	0.0178	0.059
Mof_H 	H 	0.0783	0.637	0.0342	0.006
Mof_C 	C 	0.1631	0.6169	0.0411	0.226
Mof_C 	C 	0.2254	0.5894	0.0902	-0.045
Mof_H 	H 	0.2147	0.596	0.1213	0.051
Mof_H 	H 	0.2146	0.5588	0.0818	0.068
Mof_O 	O 	0.6415	0.9201	0.4528	-0.208
Mof_N 	N 	0.5706	0.807	0.504	-0.234
Mof_N 	N 	0.7061	0.8766	0.4416	-0.213
Mof_H 	H 	0.7219	0.8527	0.4496	0.125
Mof_C 	C 	0.5944	0.7754	0.5277	0.078
Mof_H 	H 	0.5785	0.7525	0.5438	-0.021
Mof_C 	C 	0.6424	0.7759	0.529	-0.141
Mof_H 	H 	0.6582	0.7529	0.545	0.075
Mof_C 	C 	0.666	0.8092	0.5073	0.052
Mof_H 	H 	0.6981	0.8098	0.5083	0.008
Mof_C 	C 	0.6415	0.8429	0.4832	-0.101
Mof_C 	C 	0.5945	0.8405	0.4822	0.067
Mof_H 	H 	0.5783	0.863	0.4658	0.01
Mof_C 	C 	0.6631	0.8831	0.4589	0.222
Mof_C 	C 	0.7254	0.9106	0.4098	-0.046
Mof_H 	H 	0.7147	0.904	0.3787	0.054
Mof_H 	H 	0.7146	0.9412	0.4182	0.074
Mof_O 	O 	0.1415	0.4201	0.9528	-0.209
Mof_N 	N 	0.0706	0.307	0.004	-0.244
Mof_N 	N 	0.2061	0.3766	0.9416	-0.212
Mof_H 	H 	0.2219	0.3527	0.9496	0.128
Mof_C 	C 	0.0944	0.2754	0.0277	0.064
Mof_H 	H 	0.0785	0.2525	0.0438	-0.024
Mof_C 	C 	0.1424	0.2759	0.029	-0.124
Mof_H 	H 	0.1582	0.2529	0.045	0.064
Mof_C 	C 	0.166	0.3092	0.0073	0.014
Mof_H 	H 	0.1981	0.3098	0.0083	0.013
Mof_C 	C 	0.1415	0.3429	0.9832	-0.078
Mof_C 	C 	0.0945	0.3405	0.9822	0.077
Mof_H 	H 	0.0783	0.363	0.9658	0.006
Mof_C 	C 	0.1631	0.3831	0.9589	0.218
Mof_C 	C 	0.2254	0.4106	0.9098	-0.042
Mof_H 	H 	0.2147	0.404	0.8787	0.051
Mof_H 	H 	0.2146	0.4412	0.9182	0.071
Mof_O 	O 	0.3585	0.0799	0.4528	-0.217
Mof_N 	N 	0.4294	0.193	0.504	-0.235
Mof_N 	N 	0.2939	0.1234	0.4416	-0.214
Mof_H 	H 	0.2781	0.1473	0.4496	0.124
Mof_C 	C 	0.4056	0.2246	0.5277	0.079
Mof_H 	H 	0.4215	0.2475	0.5438	-0.022
Mof_C 	C 	0.3576	0.2241	0.529	-0.142
Mof_H 	H 	0.3418	0.2471	0.545	0.075
Mof_C 	C 	0.334	0.1908	0.5073	0.053
Mof_H 	H 	0.3019	0.1902	0.5083	0.006
Mof_C 	C 	0.3585	0.1571	0.4832	-0.104
Mof_C 	C 	0.4055	0.1595	0.4822	0.068
Mof_H 	H 	0.4217	0.137	0.4658	0.007
Mof_C 	C 	0.3369	0.1169	0.4589	0.222
Mof_C 	C 	0.2746	0.0894	0.4098	-0.042
Mof_H 	H 	0.2853	0.096	0.3787	0.05
Mof_H 	H 	0.2854	0.0588	0.4182	0.066
Mof_O 	O 	0.8585	0.5799	0.9528	-0.205
Mof_N 	N 	0.9294	0.693	0.004	-0.238
Mof_N 	N 	0.7939	0.6234	0.9416	-0.212
Mof_H 	H 	0.7781	0.6473	0.9496	0.128
Mof_C 	C 	0.9056	0.7246	0.0277	0.065
Mof_H 	H 	0.9215	0.7475	0.0438	-0.015
Mof_C 	C 	0.8576	0.7241	0.029	-0.121
Mof_H 	H 	0.8418	0.7471	0.045	0.066
Mof_C 	C 	0.834	0.6908	0.0073	0.014
Mof_H 	H 	0.8019	0.6902	0.0083	0.015
Mof_C 	C 	0.8585	0.6571	0.9832	-0.075
Mof_C 	C 	0.9055	0.6595	0.9822	0.075
Mof_H 	H 	0.9217	0.637	0.9658	0.013
Mof_C 	C 	0.8369	0.6169	0.9589	0.217
Mof_C 	C 	0.7746	0.5894	0.9098	-0.043
Mof_H 	H 	0.7853	0.596	0.8787	0.053
Mof_H 	H 	0.7854	0.5588	0.9182	0.072
Mof_O 	O 	0.5472	0.3585	0.9201	-0.208
Mof_N 	N 	0.496	0.4294	0.807	-0.234
Mof_N 	N 	0.5584	0.2939	0.8766	-0.212
Mof_H 	H 	0.5504	0.2781	0.8527	0.125
Mof_C 	C 	0.4723	0.4056	0.7754	0.078
Mof_H 	H 	0.4562	0.4215	0.7525	-0.022
Mof_C 	C 	0.471	0.3576	0.7759	-0.141
Mof_H 	H 	0.455	0.3418	0.7529	0.075
Mof_C 	C 	0.4927	0.334	0.8092	0.052
Mof_H 	H 	0.4917	0.3019	0.8098	0.008
Mof_C 	C 	0.5168	0.3585	0.8429	-0.101
Mof_C 	C 	0.5178	0.4055	0.8405	0.067
Mof_H 	H 	0.5342	0.4217	0.863	0.01
Mof_C 	C 	0.5411	0.3369	0.8831	0.222
Mof_C 	C 	0.5902	0.2746	0.9106	-0.047
Mof_H 	H 	0.6213	0.2853	0.904	0.054
Mof_H 	H 	0.5818	0.2854	0.9412	0.074
Mof_O 	O 	0.0472	0.8585	0.4201	-0.215
Mof_N 	N 	0.996	0.9294	0.307	-0.221
Mof_N 	N 	0.0584	0.7939	0.3766	-0.214
Mof_H 	H 	0.0504	0.7781	0.3527	0.121
Mof_C 	C 	0.9723	0.9056	0.2754	0.092
Mof_H 	H 	0.9562	0.9215	0.2525	-0.019
Mof_C 	C 	0.971	0.8576	0.2759	-0.158
Mof_H 	H 	0.955	0.8418	0.2529	0.084
Mof_C 	C 	0.9927	0.834	0.3092	0.09
Mof_H 	H 	0.9917	0.8019	0.3098	0.001
Mof_C 	C 	0.0168	0.8585	0.3429	-0.126
Mof_C 	C 	0.0178	0.9055	0.3405	0.058
Mof_H 	H 	0.0342	0.9217	0.363	0.012
Mof_C 	C 	0.0411	0.8369	0.3831	0.226
Mof_C 	C 	0.0902	0.7746	0.4106	-0.047
Mof_H 	H 	0.1213	0.7853	0.404	0.053
Mof_H 	H 	0.0818	0.7854	0.4412	0.069
Mof_O 	O 	0.5472	0.6415	0.0799	-0.217
Mof_N 	N 	0.496	0.5706	0.193	-0.235
Mof_N 	N 	0.5584	0.7061	0.1234	-0.214
Mof_H 	H 	0.5504	0.7219	0.1473	0.125
Mof_C 	C 	0.4723	0.5944	0.2246	0.079
Mof_H 	H 	0.4562	0.5785	0.2475	-0.022
Mof_C 	C 	0.471	0.6424	0.2241	-0.142
Mof_H 	H 	0.455	0.6582	0.2471	0.075
Mof_C 	C 	0.4927	0.666	0.1908	0.053
Mof_H 	H 	0.4917	0.6981	0.1902	0.007
Mof_C 	C 	0.5168	0.6415	0.1571	-0.104
Mof_C 	C 	0.5178	0.5945	0.1595	0.068
Mof_H 	H 	0.5342	0.5783	0.137	0.007
Mof_C 	C 	0.5411	0.6631	0.1169	0.222
Mof_C 	C 	0.5902	0.7254	0.0894	-0.041
Mof_H 	H 	0.6213	0.7147	0.096	0.05
Mof_H 	H 	0.5818	0.7146	0.0588	0.066
Mof_O 	O 	0.0472	0.1415	0.5799	-0.22
Mof_N 	N 	0.996	0.0706	0.693	-0.226
Mof_N 	N 	0.0584	0.2061	0.6234	-0.215
Mof_H 	H 	0.0504	0.2219	0.6473	0.121
Mof_C 	C 	0.9723	0.0944	0.7246	0.093
Mof_H 	H 	0.9562	0.0785	0.7475	-0.026
Mof_C 	C 	0.971	0.1424	0.7241	-0.162
Mof_H 	H 	0.955	0.1582	0.7471	0.085
Mof_C 	C 	0.9927	0.166	0.6908	0.092
Mof_H 	H 	0.9917	0.1981	0.6902	0
Mof_C 	C 	0.0168	0.1415	0.6571	-0.13
Mof_C 	C 	0.0178	0.0945	0.6595	0.059
Mof_H 	H 	0.0342	0.0783	0.637	0.006
Mof_C 	C 	0.0411	0.1631	0.6169	0.226
Mof_C 	C 	0.0902	0.2254	0.5894	-0.045
Mof_H 	H 	0.1213	0.2147	0.596	0.051
Mof_H 	H 	0.0818	0.2146	0.5588	0.068
Mof_O 	O 	0.4528	0.6415	0.9201	-0.208
Mof_N 	N 	0.504	0.5706	0.807	-0.234
Mof_N 	N 	0.4416	0.7061	0.8766	-0.213
Mof_H 	H 	0.4496	0.7219	0.8527	0.125
Mof_C 	C 	0.5277	0.5944	0.7754	0.078
Mof_H 	H 	0.5438	0.5785	0.7525	-0.021
Mof_C 	C 	0.529	0.6424	0.7759	-0.141
Mof_H 	H 	0.545	0.6582	0.7529	0.075
Mof_C 	C 	0.5073	0.666	0.8092	0.052
Mof_H 	H 	0.5083	0.6981	0.8098	0.008
Mof_C 	C 	0.4832	0.6415	0.8429	-0.101
Mof_C 	C 	0.4822	0.5945	0.8405	0.067
Mof_H 	H 	0.4658	0.5783	0.863	0.01
Mof_C 	C 	0.4589	0.6631	0.8831	0.222
Mof_C 	C 	0.4098	0.7254	0.9106	-0.046
Mof_H 	H 	0.3787	0.7147	0.904	0.054
Mof_H 	H 	0.4182	0.7146	0.9412	0.074
Mof_O 	O 	0.9528	0.1415	0.4201	-0.209
Mof_N 	N 	0.004	0.0706	0.307	-0.244
Mof_N 	N 	0.9416	0.2061	0.3766	-0.212
Mof_H 	H 	0.9496	0.2219	0.3527	0.128
Mof_C 	C 	0.0277	0.0944	0.2754	0.064
Mof_H 	H 	0.0438	0.0785	0.2525	-0.024
Mof_C 	C 	0.029	0.1424	0.2759	-0.124
Mof_H 	H 	0.045	0.1582	0.2529	0.064
Mof_C 	C 	0.0073	0.166	0.3092	0.014
Mof_H 	H 	0.0083	0.1981	0.3098	0.013
Mof_C 	C 	0.9832	0.1415	0.3429	-0.078
Mof_C 	C 	0.9822	0.0945	0.3405	0.077
Mof_H 	H 	0.9658	0.0783	0.363	0.006
Mof_C 	C 	0.9589	0.1631	0.3831	0.218
Mof_C 	C 	0.9098	0.2254	0.4106	-0.042
Mof_H 	H 	0.8787	0.2147	0.404	0.051
Mof_H 	H 	0.9182	0.2146	0.4412	0.071
Mof_O 	O 	0.4528	0.3585	0.0799	-0.217
Mof_N 	N 	0.504	0.4294	0.193	-0.235
Mof_N 	N 	0.4416	0.2939	0.1234	-0.214
Mof_H 	H 	0.4496	0.2781	0.1473	0.124
Mof_C 	C 	0.5277	0.4056	0.2246	0.079
Mof_H 	H 	0.5438	0.4215	0.2475	-0.022
Mof_C 	C 	0.529	0.3576	0.2241	-0.142
Mof_H 	H 	0.545	0.3418	0.2471	0.075
Mof_C 	C 	0.5073	0.334	0.1908	0.053
Mof_H 	H 	0.5083	0.3019	0.1902	0.006
Mof_C 	C 	0.4832	0.3585	0.1571	-0.104
Mof_C 	C 	0.4822	0.4055	0.1595	0.068
Mof_H 	H 	0.4658	0.4217	0.137	0.007
Mof_C 	C 	0.4589	0.3369	0.1169	0.222
Mof_C 	C 	0.4098	0.2746	0.0894	-0.042
Mof_H 	H 	0.3787	0.2853	0.096	0.05
Mof_H 	H 	0.4182	0.2854	0.0588	0.066
Mof_O 	O 	0.9528	0.8585	0.5799	-0.205
Mof_N 	N 	0.004	0.9294	0.693	-0.238
Mof_N 	N 	0.9416	0.7939	0.6234	-0.212
Mof_H 	H 	0.9496	0.7781	0.6473	0.128
Mof_C 	C 	0.0277	0.9056	0.7246	0.065
Mof_H 	H 	0.0438	0.9215	0.7475	-0.015
Mof_C 	C 	0.029	0.8576	0.7241	-0.121
Mof_H 	H 	0.045	0.8418	0.7471	0.066
Mof_C 	C 	0.0073	0.834	0.6908	0.014
Mof_H 	H 	0.0083	0.8019	0.6902	0.015
Mof_C 	C 	0.9832	0.8585	0.6571	-0.075
Mof_C 	C 	0.9822	0.9055	0.6595	0.075
Mof_H 	H 	0.9658	0.9217	0.637	0.013
Mof_C 	C 	0.9589	0.8369	0.6169	0.217
Mof_C 	C 	0.9098	0.7746	0.5894	-0.043
Mof_H 	H 	0.8787	0.7853	0.596	0.053
Mof_H 	H 	0.9182	0.7854	0.5588	0.072
Mof_O 	O 	0.9201	0.5472	0.3585	-0.208
Mof_N 	N 	0.807	0.496	0.4294	-0.234
Mof_N 	N 	0.8766	0.5584	0.2939	-0.212
Mof_H 	H 	0.8527	0.5504	0.2781	0.125
Mof_C 	C 	0.7754	0.4723	0.4056	0.078
Mof_H 	H 	0.7525	0.4562	0.4215	-0.022
Mof_C 	C 	0.7759	0.471	0.3576	-0.141
Mof_H 	H 	0.7529	0.455	0.3418	0.075
Mof_C 	C 	0.8092	0.4927	0.334	0.052
Mof_H 	H 	0.8098	0.4917	0.3019	0.008
Mof_C 	C 	0.8429	0.5168	0.3585	-0.101
Mof_C 	C 	0.8405	0.5178	0.4055	0.067
Mof_H 	H 	0.863	0.5342	0.4217	0.01
Mof_C 	C 	0.8831	0.5411	0.3369	0.222
Mof_C 	C 	0.9106	0.5902	0.2746	-0.047
Mof_H 	H 	0.904	0.6213	0.2853	0.054
Mof_H 	H 	0.9412	0.5818	0.2854	0.074
Mof_O 	O 	0.4201	0.0472	0.8585	-0.215
Mof_N 	N 	0.307	0.996	0.9294	-0.221
Mof_N 	N 	0.3766	0.0584	0.7939	-0.214
Mof_H 	H 	0.3527	0.0504	0.7781	0.121
Mof_C 	C 	0.2754	0.9723	0.9056	0.092
Mof_H 	H 	0.2525	0.9562	0.9215	-0.019
Mof_C 	C 	0.2759	0.971	0.8576	-0.158
Mof_H 	H 	0.2529	0.955	0.8418	0.084
Mof_C 	C 	0.3092	0.9927	0.834	0.09
Mof_H 	H 	0.3098	0.9917	0.8019	0.001
Mof_C 	C 	0.3429	0.0168	0.8585	-0.126
Mof_C 	C 	0.3405	0.0178	0.9055	0.058
Mof_H 	H 	0.363	0.0342	0.9217	0.012
Mof_C 	C 	0.3831	0.0411	0.8369	0.226
Mof_C 	C 	0.4106	0.0902	0.7746	-0.047
Mof_H 	H 	0.404	0.1213	0.7853	0.053
Mof_H 	H 	0.4412	0.0818	0.7854	0.069
Mof_O 	O 	0.0799	0.5472	0.6415	-0.217
Mof_N 	N 	0.193	0.496	0.5706	-0.235
Mof_N 	N 	0.1234	0.5584	0.7061	-0.214
Mof_H 	H 	0.1473	0.5504	0.7219	0.125
Mof_C 	C 	0.2246	0.4723	0.5944	0.079
Mof_H 	H 	0.2475	0.4562	0.5785	-0.022
Mof_C 	C 	0.2241	0.471	0.6424	-0.142
Mof_H 	H 	0.2471	0.455	0.6582	0.075
Mof_C 	C 	0.1908	0.4927	0.666	0.053
Mof_H 	H 	0.1902	0.4917	0.6981	0.007
Mof_C 	C 	0.1571	0.5168	0.6415	-0.104
Mof_C 	C 	0.1595	0.5178	0.5945	0.068
Mof_H 	H 	0.137	0.5342	0.5783	0.007
Mof_C 	C 	0.1169	0.5411	0.6631	0.222
Mof_C 	C 	0.0894	0.5902	0.7254	-0.041
Mof_H 	H 	0.096	0.6213	0.7147	0.05
Mof_H 	H 	0.0588	0.5818	0.7146	0.066
Mof_O 	O 	0.5799	0.0472	0.1415	-0.22
Mof_N 	N 	0.693	0.996	0.0706	-0.226
Mof_N 	N 	0.6234	0.0584	0.2061	-0.215
Mof_H 	H 	0.6473	0.0504	0.2219	0.121
Mof_C 	C 	0.7246	0.9723	0.0944	0.093
Mof_H 	H 	0.7475	0.9562	0.0785	-0.026
Mof_C 	C 	0.7241	0.971	0.1424	-0.162
Mof_H 	H 	0.7471	0.955	0.1582	0.085
Mof_C 	C 	0.6908	0.9927	0.166	0.092
Mof_H 	H 	0.6902	0.9917	0.1981	0
Mof_C 	C 	0.6571	0.0168	0.1415	-0.13
Mof_C 	C 	0.6595	0.0178	0.0945	0.059
Mof_H 	H 	0.637	0.0342	0.0783	0.006
Mof_C 	C 	0.6169	0.0411	0.1631	0.226
Mof_C 	C 	0.5894	0.0902	0.2254	-0.045
Mof_H 	H 	0.596	0.1213	0.2147	0.051
Mof_H 	H 	0.5588	0.0818	0.2146	0.068
Mof_O 	O 	0.9201	0.4528	0.6415	-0.208
Mof_N 	N 	0.807	0.504	0.5706	-0.234
Mof_N 	N 	0.8766	0.4416	0.7061	-0.213
Mof_H 	H 	0.8527	0.4496	0.7219	0.125
Mof_C 	C 	0.7754	0.5277	0.5944	0.078
Mof_H 	H 	0.7525	0.5438	0.5785	-0.021
Mof_C 	C 	0.7759	0.529	0.6424	-0.141
Mof_H 	H 	0.7529	0.545	0.6582	0.075
Mof_C 	C 	0.8092	0.5073	0.666	0.052
Mof_H 	H 	0.8098	0.5083	0.6981	0.008
Mof_C 	C 	0.8429	0.4832	0.6415	-0.101
Mof_C 	C 	0.8405	0.4822	0.5945	0.067
Mof_H 	H 	0.863	0.4658	0.5783	0.01
Mof_C 	C 	0.8831	0.4589	0.6631	0.222
Mof_C 	C 	0.9106	0.4098	0.7254	-0.046
Mof_H 	H 	0.904	0.3787	0.7147	0.054
Mof_H 	H 	0.9412	0.4182	0.7146	0.074
Mof_O 	O 	0.4201	0.9528	0.1415	-0.209
Mof_N 	N 	0.307	0.004	0.0706	-0.244
Mof_N 	N 	0.3766	0.9416	0.2061	-0.212
Mof_H 	H 	0.3527	0.9496	0.2219	0.128
Mof_C 	C 	0.2754	0.0277	0.0944	0.064
Mof_H 	H 	0.2525	0.0438	0.0785	-0.024
Mof_C 	C 	0.2759	0.029	0.1424	-0.124
Mof_H 	H 	0.2529	0.045	0.1582	0.064
Mof_C 	C 	0.3092	0.0073	0.166	0.014
Mof_H 	H 	0.3098	0.0083	0.1981	0.013
Mof_C 	C 	0.3429	0.9832	0.1415	-0.078
Mof_C 	C 	0.3405	0.9822	0.0945	0.077
Mof_H 	H 	0.363	0.9658	0.0783	0.006
Mof_C 	C 	0.3831	0.9589	0.1631	0.218
Mof_C 	C 	0.4106	0.9098	0.2254	-0.042
Mof_H 	H 	0.404	0.8787	0.2147	0.051
Mof_H 	H 	0.4412	0.9182	0.2146	0.071
Mof_O 	O 	0.0799	0.4528	0.3585	-0.217
Mof_N 	N 	0.193	0.504	0.4294	-0.235
Mof_N 	N 	0.1234	0.4416	0.2939	-0.214
Mof_H 	H 	0.1473	0.4496	0.2781	0.124
Mof_C 	C 	0.2246	0.5277	0.4056	0.079
Mof_H 	H 	0.2475	0.5438	0.4215	-0.022
Mof_C 	C 	0.2241	0.529	0.3576	-0.142
Mof_H 	H 	0.2471	0.545	0.3418	0.075
Mof_C 	C 	0.1908	0.5073	0.334	0.053
Mof_H 	H 	0.1902	0.5083	0.3019	0.006
Mof_C 	C 	0.1571	0.4832	0.3585	-0.104
Mof_C 	C 	0.1595	0.4822	0.4055	0.068
Mof_H 	H 	0.137	0.4658	0.4217	0.007
Mof_C 	C 	0.1169	0.4589	0.3369	0.222
Mof_C 	C 	0.0894	0.4098	0.2746	-0.042
Mof_H 	H 	0.096	0.3787	0.2853	0.05
Mof_H 	H 	0.0588	0.4182	0.2854	0.066
Mof_O 	O 	0.5799	0.9528	0.8585	-0.205
Mof_N 	N 	0.693	0.004	0.9294	-0.238
Mof_N 	N 	0.6234	0.9416	0.7939	-0.212
Mof_H 	H 	0.6473	0.9496	0.7781	0.128
Mof_C 	C 	0.7246	0.0277	0.9056	0.065
Mof_H 	H 	0.7475	0.0438	0.9215	-0.015
Mof_C 	C 	0.7241	0.029	0.8576	-0.121
Mof_H 	H 	0.7471	0.045	0.8418	0.066
Mof_C 	C 	0.6908	0.0073	0.834	0.014
Mof_H 	H 	0.6902	0.0083	0.8019	0.015
Mof_C 	C 	0.6571	0.9832	0.8585	-0.075
Mof_C 	C 	0.6595	0.9822	0.9055	0.075
Mof_H 	H 	0.637	0.9658	0.9217	0.013
Mof_C 	C 	0.6169	0.9589	0.8369	0.217
Mof_C 	C 	0.5894	0.9098	0.7746	-0.043
Mof_H 	H 	0.596	0.8787	0.7853	0.053
Mof_H 	H 	0.5588	0.9182	0.7854	0.072
Mof_O 	O 	0.9201	0.3585	0.4528	-0.208
Mof_N 	N 	0.807	0.4294	0.504	-0.234
Mof_N 	N 	0.8766	0.2939	0.4416	-0.212
Mof_H 	H 	0.8527	0.2781	0.4496	0.125
Mof_C 	C 	0.7754	0.4056	0.5277	0.078
Mof_H 	H 	0.7525	0.4215	0.5438	-0.021
Mof_C 	C 	0.7759	0.3576	0.529	-0.141
Mof_H 	H 	0.7529	0.3418	0.545	0.075
Mof_C 	C 	0.8092	0.334	0.5073	0.052
Mof_H 	H 	0.8098	0.3019	0.5083	0.008
Mof_C 	C 	0.8429	0.3585	0.4832	-0.101
Mof_C 	C 	0.8405	0.4055	0.4822	0.067
Mof_H 	H 	0.863	0.4217	0.4658	0.01
Mof_C 	C 	0.8831	0.3369	0.4589	0.222
Mof_C 	C 	0.9106	0.2746	0.4098	-0.047
Mof_H 	H 	0.904	0.2853	0.3787	0.054
Mof_H 	H 	0.9412	0.2854	0.4182	0.074
Mof_O 	O 	0.4201	0.8585	0.9528	-0.205
Mof_N 	N 	0.307	0.9294	0.004	-0.238
Mof_N 	N 	0.3766	0.7939	0.9416	-0.212
Mof_H 	H 	0.3527	0.7781	0.9496	0.128
Mof_C 	C 	0.2754	0.9056	0.0277	0.064
Mof_H 	H 	0.2525	0.9215	0.0438	-0.016
Mof_C 	C 	0.2759	0.8576	0.029	-0.121
Mof_H 	H 	0.2529	0.8418	0.045	0.065
Mof_C 	C 	0.3092	0.834	0.0073	0.013
Mof_H 	H 	0.3098	0.8019	0.0083	0.014
Mof_C 	C 	0.3429	0.8585	0.9832	-0.075
Mof_C 	C 	0.3405	0.9055	0.9822	0.075
Mof_H 	H 	0.363	0.9217	0.9658	0.013
Mof_C 	C 	0.3831	0.8369	0.9589	0.217
Mof_C 	C 	0.4106	0.7746	0.9098	-0.043
Mof_H 	H 	0.404	0.7853	0.8787	0.053
Mof_H 	H 	0.4412	0.7854	0.9182	0.072
Mof_O 	O 	0.0799	0.6415	0.4528	-0.217
Mof_N 	N 	0.193	0.5706	0.504	-0.235
Mof_N 	N 	0.1234	0.7061	0.4416	-0.215
Mof_H 	H 	0.1473	0.7219	0.4496	0.125
Mof_C 	C 	0.2246	0.5944	0.5277	0.079
Mof_H 	H 	0.2475	0.5785	0.5438	-0.022
Mof_C 	C 	0.2241	0.6424	0.529	-0.142
Mof_H 	H 	0.2471	0.6582	0.545	0.075
Mof_C 	C 	0.1908	0.666	0.5073	0.053
Mof_H 	H 	0.1902	0.6981	0.5083	0.007
Mof_C 	C 	0.1571	0.6415	0.4832	-0.104
Mof_C 	C 	0.1595	0.5945	0.4822	0.068
Mof_H 	H 	0.137	0.5783	0.4658	0.007
Mof_C 	C 	0.1169	0.6631	0.4589	0.222
Mof_C 	C 	0.0894	0.7254	0.4098	-0.041
Mof_H 	H 	0.096	0.7147	0.3787	0.05
Mof_H 	H 	0.0588	0.7146	0.4182	0.066
Mof_O 	O 	0.5799	0.1415	0.9528	-0.209
Mof_N 	N 	0.693	0.0706	0.004	-0.244
Mof_N 	N 	0.6234	0.2061	0.9416	-0.212
Mof_H 	H 	0.6473	0.2219	0.9496	0.128
Mof_C 	C 	0.7246	0.0944	0.0277	0.065
Mof_H 	H 	0.7475	0.0785	0.0438	-0.022
Mof_C 	C 	0.7241	0.1424	0.029	-0.124
Mof_H 	H 	0.7471	0.1582	0.045	0.065
Mof_C 	C 	0.6908	0.166	0.0073	0.015
Mof_H 	H 	0.6902	0.1981	0.0083	0.014
Mof_C 	C 	0.6571	0.1415	0.9832	-0.078
Mof_C 	C 	0.6595	0.0945	0.9822	0.077
Mof_H 	H 	0.637	0.0783	0.9658	0.006
Mof_C 	C 	0.6169	0.1631	0.9589	0.218
Mof_C 	C 	0.5894	0.2254	0.9098	-0.042
Mof_H 	H 	0.596	0.2147	0.8787	0.051
Mof_H 	H 	0.5588	0.2146	0.9182	0.071
Mof_O 	O 	0.9201	0.6415	0.5472	-0.208
Mof_N 	N 	0.807	0.5706	0.496	-0.234
Mof_N 	N 	0.8766	0.7061	0.5584	-0.213
Mof_H 	H 	0.8527	0.7219	0.5504	0.125
Mof_C 	C 	0.7754	0.5944	0.4723	0.078
Mof_H 	H 	0.7525	0.5785	0.4562	-0.021
Mof_C 	C 	0.7759	0.6424	0.471	-0.141
Mof_H 	H 	0.7529	0.6582	0.455	0.075
Mof_C 	C 	0.8092	0.666	0.4927	0.052
Mof_H 	H 	0.8098	0.6981	0.4917	0.008
Mof_C 	C 	0.8429	0.6415	0.5168	-0.101
Mof_C 	C 	0.8405	0.5945	0.5178	0.067
Mof_H 	H 	0.863	0.5783	0.5342	0.01
Mof_C 	C 	0.8831	0.6631	0.5411	0.222
Mof_C 	C 	0.9106	0.7254	0.5902	-0.046
Mof_H 	H 	0.904	0.7147	0.6213	0.054
Mof_H 	H 	0.9412	0.7146	0.5818	0.074
Mof_O 	O 	0.4201	0.1415	0.0472	-0.22
Mof_N 	N 	0.307	0.0706	0.996	-0.227
Mof_N 	N 	0.3766	0.2061	0.0584	-0.215
Mof_H 	H 	0.3527	0.2219	0.0504	0.121
Mof_C 	C 	0.2754	0.0944	0.9723	0.093
Mof_H 	H 	0.2525	0.0785	0.9562	-0.027
Mof_C 	C 	0.2759	0.1424	0.971	-0.162
Mof_H 	H 	0.2529	0.1582	0.955	0.084
Mof_C 	C 	0.3092	0.166	0.9927	0.092
Mof_H 	H 	0.3098	0.1981	0.9917	-0
Mof_C 	C 	0.3429	0.1415	0.0168	-0.13
Mof_C 	C 	0.3405	0.0945	0.0178	0.059
Mof_H 	H 	0.363	0.0783	0.0342	0.006
Mof_C 	C 	0.3831	0.1631	0.0411	0.226
Mof_C 	C 	0.4106	0.2254	0.0902	-0.045
Mof_H 	H 	0.404	0.2147	0.1213	0.051
Mof_H 	H 	0.4412	0.2146	0.0818	0.068
Mof_O 	O 	0.0799	0.3585	0.5472	-0.217
Mof_N 	N 	0.193	0.4294	0.496	-0.235
Mof_N 	N 	0.1234	0.2939	0.5584	-0.214
Mof_H 	H 	0.1473	0.2781	0.5504	0.124
Mof_C 	C 	0.2246	0.4056	0.4723	0.079
Mof_H 	H 	0.2475	0.4215	0.4562	-0.022
Mof_C 	C 	0.2241	0.3576	0.471	-0.142
Mof_H 	H 	0.2471	0.3418	0.455	0.075
Mof_C 	C 	0.1908	0.334	0.4927	0.053
Mof_H 	H 	0.1902	0.3019	0.4917	0.006
Mof_C 	C 	0.1571	0.3585	0.5168	-0.104
Mof_C 	C 	0.1595	0.4055	0.5178	0.068
Mof_H 	H 	0.137	0.4217	0.5342	0.007
Mof_C 	C 	0.1169	0.3369	0.5411	0.222
Mof_C 	C 	0.0894	0.2746	0.5902	-0.042
Mof_H 	H 	0.096	0.2853	0.6213	0.05
Mof_H 	H 	0.0588	0.2854	0.5818	0.066
Mof_O 	O 	0.5799	0.8585	0.0472	-0.215
Mof_N 	N 	0.693	0.9294	0.996	-0.221
Mof_N 	N 	0.6234	0.7939	0.0584	-0.214
Mof_H 	H 	0.6473	0.7781	0.0504	0.121
Mof_C 	C 	0.7246	0.9056	0.9723	0.092
Mof_H 	H 	0.7475	0.9215	0.9562	-0.018
Mof_C 	C 	0.7241	0.8576	0.971	-0.158
Mof_H 	H 	0.7471	0.8418	0.955	0.085
Mof_C 	C 	0.6908	0.834	0.9927	0.089
Mof_H 	H 	0.6902	0.8019	0.9917	0.002
Mof_C 	C 	0.6571	0.8585	0.0168	-0.126
Mof_C 	C 	0.6595	0.9055	0.0178	0.058
Mof_H 	H 	0.637	0.9217	0.0342	0.012
Mof_C 	C 	0.6169	0.8369	0.0411	0.226
Mof_C 	C 	0.5894	0.7746	0.0902	-0.046
Mof_H 	H 	0.596	0.7853	0.1213	0.053
Mof_H 	H 	0.5588	0.7854	0.0818	0.069
Mof_O 	O 	0.3585	0.5472	0.0799	-0.217
Mof_N 	N 	0.4294	0.496	0.193	-0.235
Mof_N 	N 	0.2939	0.5584	0.1234	-0.214
Mof_H 	H 	0.2781	0.5504	0.1473	0.124
Mof_C 	C 	0.4056	0.4723	0.2246	0.079
Mof_H 	H 	0.4215	0.4562	0.2475	-0.022
Mof_C 	C 	0.3576	0.471	0.2241	-0.142
Mof_H 	H 	0.3418	0.455	0.2471	0.075
Mof_C 	C 	0.334	0.4927	0.1908	0.053
Mof_H 	H 	0.3019	0.4917	0.1902	0.006
Mof_C 	C 	0.3585	0.5168	0.1571	-0.104
Mof_C 	C 	0.4055	0.5178	0.1595	0.068
Mof_H 	H 	0.4217	0.5342	0.137	0.007
Mof_C 	C 	0.3369	0.5411	0.1169	0.222
Mof_C 	C 	0.2746	0.5902	0.0894	-0.042
Mof_H 	H 	0.2853	0.6213	0.096	0.05
Mof_H 	H 	0.2854	0.5818	0.0588	0.066
Mof_O 	O 	0.8585	0.0472	0.5799	-0.215
Mof_N 	N 	0.9294	0.996	0.693	-0.221
Mof_N 	N 	0.7939	0.0584	0.6234	-0.214
Mof_H 	H 	0.7781	0.0504	0.6473	0.121
Mof_C 	C 	0.9056	0.9723	0.7246	0.092
Mof_H 	H 	0.9215	0.9562	0.7475	-0.018
Mof_C 	C 	0.8576	0.971	0.7241	-0.158
Mof_H 	H 	0.8418	0.955	0.7471	0.085
Mof_C 	C 	0.834	0.9927	0.6908	0.089
Mof_H 	H 	0.8019	0.9917	0.6902	0.002
Mof_C 	C 	0.8585	0.0168	0.6571	-0.126
Mof_C 	C 	0.9055	0.0178	0.6595	0.058
Mof_H 	H 	0.9217	0.0342	0.637	0.012
Mof_C 	C 	0.8369	0.0411	0.6169	0.226
Mof_C 	C 	0.7746	0.0902	0.5894	-0.046
Mof_H 	H 	0.7853	0.1213	0.596	0.053
Mof_H 	H 	0.7854	0.0818	0.5588	0.069
Mof_O 	O 	0.6415	0.5472	0.9201	-0.208
Mof_N 	N 	0.5706	0.496	0.807	-0.234
Mof_N 	N 	0.7061	0.5584	0.8766	-0.213
Mof_H 	H 	0.7219	0.5504	0.8527	0.125
Mof_C 	C 	0.5944	0.4723	0.7754	0.078
Mof_H 	H 	0.5785	0.4562	0.7525	-0.021
Mof_C 	C 	0.6424	0.471	0.7759	-0.141
Mof_H 	H 	0.6582	0.455	0.7529	0.075
Mof_C 	C 	0.666	0.4927	0.8092	0.052
Mof_H 	H 	0.6981	0.4917	0.8098	0.008
Mof_C 	C 	0.6415	0.5168	0.8429	-0.101
Mof_C 	C 	0.5945	0.5178	0.8405	0.067
Mof_H 	H 	0.5783	0.5342	0.863	0.01
Mof_C 	C 	0.6631	0.5411	0.8831	0.222
Mof_C 	C 	0.7254	0.5902	0.9106	-0.046
Mof_H 	H 	0.7147	0.6213	0.904	0.054
Mof_H 	H 	0.7146	0.5818	0.9412	0.074
Mof_O 	O 	0.1415	0.0472	0.4201	-0.22
Mof_N 	N 	0.0706	0.996	0.307	-0.227
Mof_N 	N 	0.2061	0.0584	0.3766	-0.215
Mof_H 	H 	0.2219	0.0504	0.3527	0.121
Mof_C 	C 	0.0944	0.9723	0.2754	0.093
Mof_H 	H 	0.0785	0.9562	0.2525	-0.027
Mof_C 	C 	0.1424	0.971	0.2759	-0.162
Mof_H 	H 	0.1582	0.955	0.2529	0.084
Mof_C 	C 	0.166	0.9927	0.3092	0.092
Mof_H 	H 	0.1981	0.9917	0.3098	-0
Mof_C 	C 	0.1415	0.0168	0.3429	-0.13
Mof_C 	C 	0.0945	0.0178	0.3405	0.059
Mof_H 	H 	0.0783	0.0342	0.363	0.006
Mof_C 	C 	0.1631	0.0411	0.3831	0.226
Mof_C 	C 	0.2254	0.0902	0.4106	-0.045
Mof_H 	H 	0.2147	0.1213	0.404	0.051
Mof_H 	H 	0.2146	0.0818	0.4412	0.068
Mof_O 	O 	0.6415	0.4528	0.0799	-0.217
Mof_N 	N 	0.5706	0.504	0.193	-0.235
Mof_N 	N 	0.7061	0.4416	0.1234	-0.215
Mof_H 	H 	0.7219	0.4496	0.1473	0.125
Mof_C 	C 	0.5944	0.5277	0.2246	0.079
Mof_H 	H 	0.5785	0.5438	0.2475	-0.022
Mof_C 	C 	0.6424	0.529	0.2241	-0.142
Mof_H 	H 	0.6582	0.545	0.2471	0.075
Mof_C 	C 	0.666	0.5073	0.1908	0.053
Mof_H 	H 	0.6981	0.5083	0.1902	0.007
Mof_C 	C 	0.6415	0.4832	0.1571	-0.104
Mof_C 	C 	0.5945	0.4822	0.1595	0.068
Mof_H 	H 	0.5783	0.4658	0.137	0.007
Mof_C 	C 	0.6631	0.4589	0.1169	0.222
Mof_C 	C 	0.7254	0.4098	0.0894	-0.041
Mof_H 	H 	0.7147	0.3787	0.096	0.05
Mof_H 	H 	0.7146	0.4182	0.0588	0.066
Mof_O 	O 	0.1415	0.9528	0.5799	-0.209
Mof_N 	N 	0.0706	0.004	0.693	-0.244
Mof_N 	N 	0.2061	0.9416	0.6234	-0.212
Mof_H 	H 	0.2219	0.9496	0.6473	0.128
Mof_C 	C 	0.0944	0.0277	0.7246	0.065
Mof_H 	H 	0.0785	0.0438	0.7475	-0.022
Mof_C 	C 	0.1424	0.029	0.7241	-0.124
Mof_H 	H 	0.1582	0.045	0.7471	0.065
Mof_C 	C 	0.166	0.0073	0.6908	0.015
Mof_H 	H 	0.1981	0.0083	0.6902	0.014
Mof_C 	C 	0.1415	0.9832	0.6571	-0.078
Mof_C 	C 	0.0945	0.9822	0.6595	0.077
Mof_H 	H 	0.0783	0.9658	0.637	0.006
Mof_C 	C 	0.1631	0.9589	0.6169	0.218
Mof_C 	C 	0.2254	0.9098	0.5894	-0.042
Mof_H 	H 	0.2147	0.8787	0.596	0.051
Mof_H 	H 	0.2146	0.9182	0.5588	0.071
Mof_O 	O 	0.3585	0.4528	0.9201	-0.208
Mof_N 	N 	0.4294	0.504	0.807	-0.234
Mof_N 	N 	0.2939	0.4416	0.8766	-0.212
Mof_H 	H 	0.2781	0.4496	0.8527	0.125
Mof_C 	C 	0.4056	0.5277	0.7754	0.078
Mof_H 	H 	0.4215	0.5438	0.7525	-0.021
Mof_C 	C 	0.3576	0.529	0.7759	-0.141
Mof_H 	H 	0.3418	0.545	0.7529	0.075
Mof_C 	C 	0.334	0.5073	0.8092	0.052
Mof_H 	H 	0.3019	0.5083	0.8098	0.008
Mof_C 	C 	0.3585	0.4832	0.8429	-0.101
Mof_C 	C 	0.4055	0.4822	0.8405	0.067
Mof_H 	H 	0.4217	0.4658	0.863	0.01
Mof_C 	C 	0.3369	0.4589	0.8831	0.222
Mof_C 	C 	0.2746	0.4098	0.9106	-0.047
Mof_H 	H 	0.2853	0.3787	0.904	0.054
Mof_H 	H 	0.2854	0.4182	0.9412	0.074
Mof_O 	O 	0.8585	0.9528	0.4201	-0.205
Mof_N 	N 	0.9294	0.004	0.307	-0.238
Mof_N 	N 	0.7939	0.9416	0.3766	-0.212
Mof_H 	H 	0.7781	0.9496	0.3527	0.128
Mof_C 	C 	0.9056	0.0277	0.2754	0.064
Mof_H 	H 	0.9215	0.0438	0.2525	-0.016
Mof_C 	C 	0.8576	0.029	0.2759	-0.121
Mof_H 	H 	0.8418	0.045	0.2529	0.065
Mof_C 	C 	0.834	0.0073	0.3092	0.013
Mof_H 	H 	0.8019	0.0083	0.3098	0.014
Mof_C 	C 	0.8585	0.9832	0.3429	-0.075
Mof_C 	C 	0.9055	0.9822	0.3405	0.075
Mof_H 	H 	0.9217	0.9658	0.363	0.013
Mof_C 	C 	0.8369	0.9589	0.3831	0.217
Mof_C 	C 	0.7746	0.9098	0.4106	-0.043
Mof_H 	H 	0.7853	0.8787	0.404	0.053
Mof_H 	H 	0.7854	0.9182	0.4412	0.072
Mof_O 	O 	0.5472	0.9201	0.6415	-0.208
Mof_N 	N 	0.496	0.807	0.5706	-0.234
Mof_N 	N 	0.5584	0.8766	0.7061	-0.213
Mof_H 	H 	0.5504	0.8527	0.7219	0.125
Mof_C 	C 	0.4723	0.7754	0.5944	0.078
Mof_H 	H 	0.4562	0.7525	0.5785	-0.021
Mof_C 	C 	0.471	0.7759	0.6424	-0.141
Mof_H 	H 	0.455	0.7529	0.6582	0.075
Mof_C 	C 	0.4927	0.8092	0.666	0.052
Mof_H 	H 	0.4917	0.8098	0.6981	0.008
Mof_C 	C 	0.5168	0.8429	0.6415	-0.101
Mof_C 	C 	0.5178	0.8405	0.5945	0.067
Mof_H 	H 	0.5342	0.863	0.5783	0.01
Mof_C 	C 	0.5411	0.8831	0.6631	0.222
Mof_C 	C 	0.5902	0.9106	0.7254	-0.046
Mof_H 	H 	0.6213	0.904	0.7147	0.054
Mof_H 	H 	0.5818	0.9412	0.7146	0.074
Mof_O 	O 	0.0472	0.4201	0.1415	-0.22
Mof_N 	N 	0.996	0.307	0.0706	-0.227
Mof_N 	N 	0.0584	0.3766	0.2061	-0.215
Mof_H 	H 	0.0504	0.3527	0.2219	0.121
Mof_C 	C 	0.9723	0.2754	0.0944	0.093
Mof_H 	H 	0.9562	0.2525	0.0785	-0.027
Mof_C 	C 	0.971	0.2759	0.1424	-0.162
Mof_H 	H 	0.955	0.2529	0.1582	0.084
Mof_C 	C 	0.9927	0.3092	0.166	0.092
Mof_H 	H 	0.9917	0.3098	0.1981	-0
Mof_C 	C 	0.0168	0.3429	0.1415	-0.13
Mof_C 	C 	0.0178	0.3405	0.0945	0.059
Mof_H 	H 	0.0342	0.363	0.0783	0.006
Mof_C 	C 	0.0411	0.3831	0.1631	0.226
Mof_C 	C 	0.0902	0.4106	0.2254	-0.045
Mof_H 	H 	0.1213	0.404	0.2147	0.051
Mof_H 	H 	0.0818	0.4412	0.2146	0.068
Mof_O 	O 	0.5472	0.0799	0.3585	-0.217
Mof_N 	N 	0.496	0.193	0.4294	-0.235
Mof_N 	N 	0.5584	0.1234	0.2939	-0.214
Mof_H 	H 	0.5504	0.1473	0.2781	0.124
Mof_C 	C 	0.4723	0.2246	0.4056	0.079
Mof_H 	H 	0.4562	0.2475	0.4215	-0.022
Mof_C 	C 	0.471	0.2241	0.3576	-0.142
Mof_H 	H 	0.455	0.2471	0.3418	0.075
Mof_C 	C 	0.4927	0.1908	0.334	0.053
Mof_H 	H 	0.4917	0.1902	0.3019	0.006
Mof_C 	C 	0.5168	0.1571	0.3585	-0.104
Mof_C 	C 	0.5178	0.1595	0.4055	0.068
Mof_H 	H 	0.5342	0.137	0.4217	0.007
Mof_C 	C 	0.5411	0.1169	0.3369	0.222
Mof_C 	C 	0.5902	0.0894	0.2746	-0.042
Mof_H 	H 	0.6213	0.096	0.2853	0.05
Mof_H 	H 	0.5818	0.0588	0.2854	0.066
Mof_O 	O 	0.0472	0.5799	0.8585	-0.215
Mof_N 	N 	0.996	0.693	0.9294	-0.221
Mof_N 	N 	0.0584	0.6234	0.7939	-0.214
Mof_H 	H 	0.0504	0.6473	0.7781	0.121
Mof_C 	C 	0.9723	0.7246	0.9056	0.092
Mof_H 	H 	0.9562	0.7475	0.9215	-0.018
Mof_C 	C 	0.971	0.7241	0.8576	-0.158
Mof_H 	H 	0.955	0.7471	0.8418	0.085
Mof_C 	C 	0.9927	0.6908	0.834	0.089
Mof_H 	H 	0.9917	0.6902	0.8019	0.002
Mof_C 	C 	0.0168	0.6571	0.8585	-0.126
Mof_C 	C 	0.0178	0.6595	0.9055	0.058
Mof_H 	H 	0.0342	0.637	0.9217	0.012
Mof_C 	C 	0.0411	0.6169	0.8369	0.226
Mof_C 	C 	0.0902	0.5894	0.7746	-0.046
Mof_H 	H 	0.1213	0.596	0.7853	0.053
Mof_H 	H 	0.0818	0.5588	0.7854	0.069
Mof_O 	O 	0.4528	0.9201	0.3585	-0.208
Mof_N 	N 	0.504	0.807	0.4294	-0.234
Mof_N 	N 	0.4416	0.8766	0.2939	-0.212
Mof_H 	H 	0.4496	0.8527	0.2781	0.125
Mof_C 	C 	0.5277	0.7754	0.4056	0.078
Mof_H 	H 	0.5438	0.7525	0.4215	-0.021
Mof_C 	C 	0.529	0.7759	0.3576	-0.141
Mof_H 	H 	0.545	0.7529	0.3418	0.075
Mof_C 	C 	0.5073	0.8092	0.334	0.052
Mof_H 	H 	0.5083	0.8098	0.3019	0.008
Mof_C 	C 	0.4832	0.8429	0.3585	-0.101
Mof_C 	C 	0.4822	0.8405	0.4055	0.067
Mof_H 	H 	0.4658	0.863	0.4217	0.01
Mof_C 	C 	0.4589	0.8831	0.3369	0.222
Mof_C 	C 	0.4098	0.9106	0.2746	-0.047
Mof_H 	H 	0.3787	0.904	0.2853	0.054
Mof_H 	H 	0.4182	0.9412	0.2854	0.074
Mof_O 	O 	0.9528	0.4201	0.8585	-0.205
Mof_N 	N 	0.004	0.307	0.9294	-0.238
Mof_N 	N 	0.9416	0.3766	0.7939	-0.212
Mof_H 	H 	0.9496	0.3527	0.7781	0.128
Mof_C 	C 	0.0277	0.2754	0.9056	0.064
Mof_H 	H 	0.0438	0.2525	0.9215	-0.016
Mof_C 	C 	0.029	0.2759	0.8576	-0.121
Mof_H 	H 	0.045	0.2529	0.8418	0.065
Mof_C 	C 	0.0073	0.3092	0.834	0.013
Mof_H 	H 	0.0083	0.3098	0.8019	0.014
Mof_C 	C 	0.9832	0.3429	0.8585	-0.075
Mof_C 	C 	0.9822	0.3405	0.9055	0.075
Mof_H 	H 	0.9658	0.363	0.9217	0.013
Mof_C 	C 	0.9589	0.3831	0.8369	0.217
Mof_C 	C 	0.9098	0.4106	0.7746	-0.043
Mof_H 	H 	0.8787	0.404	0.7853	0.053
Mof_H 	H 	0.9182	0.4412	0.7854	0.072
Mof_O 	O 	0.4528	0.0799	0.6415	-0.217
Mof_N 	N 	0.504	0.193	0.5706	-0.235
Mof_N 	N 	0.4416	0.1234	0.7061	-0.215
Mof_H 	H 	0.4496	0.1473	0.7219	0.125
Mof_C 	C 	0.5277	0.2246	0.5944	0.079
Mof_H 	H 	0.5438	0.2475	0.5785	-0.022
Mof_C 	C 	0.529	0.2241	0.6424	-0.142
Mof_H 	H 	0.545	0.2471	0.6582	0.075
Mof_C 	C 	0.5073	0.1908	0.666	0.053
Mof_H 	H 	0.5083	0.1902	0.6981	0.007
Mof_C 	C 	0.4832	0.1571	0.6415	-0.104
Mof_C 	C 	0.4822	0.1595	0.5945	0.068
Mof_H 	H 	0.4658	0.137	0.5783	0.007
Mof_C 	C 	0.4589	0.1169	0.6631	0.222
Mof_C 	C 	0.4098	0.0894	0.7254	-0.041
Mof_H 	H 	0.3787	0.096	0.7147	0.05
Mof_H 	H 	0.4182	0.0588	0.7146	0.066
Mof_O 	O 	0.9528	0.5799	0.1415	-0.209
Mof_N 	N 	0.004	0.693	0.0706	-0.244
Mof_N 	N 	0.9416	0.6234	0.2061	-0.212
Mof_H 	H 	0.9496	0.6473	0.2219	0.128
Mof_C 	C 	0.0277	0.7246	0.0944	0.065
Mof_H 	H 	0.0438	0.7475	0.0785	-0.022
Mof_C 	C 	0.029	0.7241	0.1424	-0.124
Mof_H 	H 	0.045	0.7471	0.1582	0.065
Mof_C 	C 	0.0073	0.6908	0.166	0.015
Mof_H 	H 	0.0083	0.6902	0.1981	0.014
Mof_C 	C 	0.9832	0.6571	0.1415	-0.078
Mof_C 	C 	0.9822	0.6595	0.0945	0.077
Mof_H 	H 	0.9658	0.637	0.0783	0.006
Mof_C 	C 	0.9589	0.6169	0.1631	0.218
Mof_C 	C 	0.9098	0.5894	0.2254	-0.042
Mof_H 	H 	0.8787	0.596	0.2147	0.051
Mof_H 	H 	0.9182	0.5588	0.2146	0.071
Mof_Cu	Cu	0.5	0.80544	0.5	0.85
Mof_Cu	Cu	-0	0.30544	-0	0.834
Mof_Cu	Cu	0.5	0.19456	0.5	0.85
Mof_Cu	Cu	-0	0.69456	-0	0.835
Mof_Cu	Cu	0.5	0.5	0.80544	0.85
Mof_Cu	Cu	-9.45164e-34	0	0.30544	0.834
Mof_Cu	Cu	0.5	0.5	0.19456	0.85
Mof_Cu	Cu	2.60418e-33	0	0.69456	0.835
Mof_Cu	Cu	0.80544	0.5	0.5	0.85
Mof_Cu	Cu	0.30544	0	-0	0.834
Mof_Cu	Cu	0.19456	0.5	0.5	0.85
Mof_Cu	Cu	0.69456	0	-0	0.835
_end
