data_functionalizedCrystal
_audit_creation_method	'EQeq! by Chris Wilmer'
_symmetry_space_group_name_H-M	'P1'
_symmetry_Int_Tables_number	1
_symmetry_cell_setting	triclinic
loop_
_symmetry_equiv_pos_as_xyz
  x,y,z
_cell_length_a	26.9377
_cell_length_b	26.9377
_cell_length_c	26.9377
_cell_angle_alpha	109.471
_cell_angle_beta	109.471
_cell_angle_gamma	109.471
loop_
_atom_site_label
_atom_site_type_symbol
_atom_site_fract_x
_atom_site_fract_y
_atom_site_fract_z
_atom_site_charge
Mof_Cu	Cu	0.81944	0.18056	-0	0.885
Mof_Cu	Cu	0.18056	0.81944	-0	0.885
Mof_Cu	Cu	0.81944	0.81944	0.63888	0.904
Mof_Cu	Cu	0.18056	0.18056	0.36112	0.897
Mof_Cu	Cu	0.63888	0.81944	0.81944	0.904
Mof_Cu	Cu	0.36112	0.18056	0.18056	0.897
Mof_Cu	Cu	8.6885e-17	0.81944	0.18056	0.885
Mof_Cu	Cu	-0	0.18056	0.81944	0.885
Mof_Cu	Cu	0.81944	1.51104e-17	0.18056	0.885
Mof_Cu	Cu	0.18056	0	0.81944	0.885
Mof_Cu	Cu	0.18056	0.36112	0.18056	0.897
Mof_Cu	Cu	0.81944	0.63888	0.81944	0.904
Mof_Cu	Cu	0.48103	0.24052	0.24052	0.917
Mof_Cu	Cu	1.51104e-17	0.24051	0.75949	0.904
Mof_Cu	Cu	-1.51104e-17	0.75949	0.24051	0.904
Mof_Cu	Cu	0.51897	0.75948	0.75948	0.918
Mof_Cu	Cu	0.24051	0	0.75948	0.905
Mof_Cu	Cu	0.75949	0.51898	0.75949	0.918
Mof_Cu	Cu	0.24051	0.48102	0.24051	0.918
Mof_Cu	Cu	0.75949	1.51104e-17	0.24052	0.905
Mof_Cu	Cu	0.24051	0.75948	-0	0.905
Mof_Cu	Cu	0.24051	0.24051	0.48102	0.918
Mof_Cu	Cu	0.75949	0.75949	0.51898	0.918
Mof_Cu	Cu	0.75949	0.24052	-0	0.905
Mof_H 	H 	0.7398	0.2473	0.1571	0.071
Mof_H 	H 	0.0902	0.5827	0.8429	0.073
Mof_H 	H 	0.9098	0.7527	0.4925	0.066
Mof_H 	H 	0.2602	0.4173	0.5075	0.07
Mof_H 	H 	0.4925	0.9098	0.7527	0.066
Mof_H 	H 	0.5075	0.2602	0.4173	0.07
Mof_H 	H 	0.1571	0.7398	0.2473	0.071
Mof_H 	H 	0.8429	0.0902	0.5827	0.073
Mof_H 	H 	0.5827	0.8429	0.0902	0.073
Mof_H 	H 	0.2473	0.1571	0.7398	0.071
Mof_H 	H 	0.4173	0.5075	0.2602	0.07
Mof_H 	H 	0.7527	0.4925	0.9098	0.066
Mof_H 	H 	0.7527	0.2602	0.8429	0.078
Mof_H 	H 	0.4173	0.9098	0.1571	0.063
Mof_H 	H 	0.2473	0.0902	0.5075	0.066
Mof_H 	H 	0.5827	0.7398	0.4925	0.073
Mof_H 	H 	0.0902	0.5075	0.2473	0.066
Mof_H 	H 	0.7398	0.4925	0.5827	0.073
Mof_H 	H 	0.2602	0.8429	0.7527	0.078
Mof_H 	H 	0.9098	0.1571	0.4173	0.063
Mof_H 	H 	0.1571	0.4173	0.9098	0.063
Mof_H 	H 	0.8429	0.7527	0.2602	0.078
Mof_H 	H 	0.4925	0.5827	0.7398	0.073
Mof_H 	H 	0.5075	0.2473	0.0902	0.066
Mof_H 	H 	0.2602	0.7527	0.8429	0.078
Mof_H 	H 	0.9098	0.4173	0.1571	0.063
Mof_H 	H 	0.0902	0.2473	0.5075	0.066
Mof_H 	H 	0.7398	0.5827	0.4925	0.073
Mof_H 	H 	0.5075	0.0902	0.2473	0.066
Mof_H 	H 	0.4925	0.7398	0.5827	0.073
Mof_H 	H 	0.8429	0.2602	0.7527	0.078
Mof_H 	H 	0.1571	0.9098	0.4173	0.063
Mof_H 	H 	0.4173	0.1571	0.9098	0.063
Mof_H 	H 	0.7527	0.8429	0.2602	0.078
Mof_H 	H 	0.5827	0.4925	0.7398	0.073
Mof_H 	H 	0.2473	0.5075	0.0902	0.066
Mof_H 	H 	0.2473	0.7398	0.1571	0.071
Mof_H 	H 	0.5827	0.0902	0.8429	0.073
Mof_H 	H 	0.7527	0.9098	0.4925	0.066
Mof_H 	H 	0.4173	0.2602	0.5075	0.07
Mof_H 	H 	0.9098	0.4925	0.7527	0.066
Mof_H 	H 	0.2602	0.5075	0.4173	0.07
Mof_H 	H 	0.7398	0.1571	0.2473	0.071
Mof_H 	H 	0.0902	0.8429	0.5827	0.073
Mof_H 	H 	0.8429	0.5827	0.0902	0.073
Mof_H 	H 	0.1571	0.2473	0.7398	0.071
Mof_H 	H 	0.5075	0.4173	0.2602	0.07
Mof_H 	H 	0.4925	0.7527	0.9098	0.066
Mof_H 	H 	0.746	0.373	0.373	0.08
Mof_H 	H 	1.51104e-17	0.373	0.627	0.073
Mof_H 	H 	7.55522e-18	0.627	0.373	0.073
Mof_H 	H 	0.254	0.627	0.627	0.075
Mof_H 	H 	0.373	6.04417e-17	0.627	0.073
Mof_H 	H 	0.627	0.254	0.627	0.075
Mof_H 	H 	0.373	0.746	0.373	0.08
Mof_H 	H 	0.627	0	0.373	0.073
Mof_H 	H 	0.373	0.627	-0	0.073
Mof_H 	H 	0.373	0.373	0.746	0.08
Mof_H 	H 	0.627	0.627	0.254	0.075
Mof_H 	H 	0.627	0.373	-0	0.073
Mof_H 	H 	0.7888	0.1198	0.1198	0.055
Mof_H 	H 	0.5882	0.231	0.231	0.047
Mof_H 	H 	-0	0.669	0.8802	0.077
Mof_H 	H 	-6.04417e-17	0.3572	0.769	0.045
Mof_H 	H 	7.55522e-17	0.8802	0.669	0.077
Mof_H 	H 	7.55522e-18	0.769	0.3572	0.045
Mof_H 	H 	0.2112	0.331	0.331	0.057
Mof_H 	H 	0.4118	0.6428	0.6428	0.048
Mof_H 	H 	0.669	6.04417e-17	0.8802	0.077
Mof_H 	H 	0.3572	6.04417e-17	0.769	0.045
Mof_H 	H 	0.331	0.2112	0.331	0.057
Mof_H 	H 	0.6428	0.4118	0.6428	0.049
Mof_H 	H 	0.1198	0.7888	0.1198	0.055
Mof_H 	H 	0.231	0.5882	0.231	0.047
Mof_H 	H 	0.8802	0	0.669	0.077
Mof_H 	H 	0.769	3.02209e-17	0.3572	0.045
Mof_H 	H 	0.669	0.8802	-0	0.077
Mof_H 	H 	0.3572	0.769	-0	0.045
Mof_H 	H 	0.1198	0.1198	0.7888	0.055
Mof_H 	H 	0.231	0.231	0.5882	0.047
Mof_H 	H 	0.331	0.331	0.2112	0.057
Mof_H 	H 	0.6428	0.6428	0.4118	0.049
Mof_H 	H 	0.8802	0.669	-0	0.077
Mof_H 	H 	0.769	0.3572	-0	0.045
Mof_H 	H 	0.8802	0.2112	0.8802	0.071
Mof_H 	H 	0.769	0.4118	0.769	0.052
Mof_H 	H 	0.331	7.55522e-18	0.1198	0.065
Mof_H 	H 	0.6428	1.51104e-17	0.231	0.042
Mof_H 	H 	0.1198	0	0.331	0.065
Mof_H 	H 	0.231	6.04417e-17	0.6428	0.042
Mof_H 	H 	0.669	0.7888	0.669	0.066
Mof_H 	H 	0.3572	0.5882	0.3572	0.049
Mof_H 	H 	3.77761e-18	0.331	0.1198	0.065
Mof_H 	H 	-1.51104e-17	0.6428	0.231	0.042
Mof_H 	H 	0.7888	0.669	0.669	0.066
Mof_H 	H 	0.5882	0.3572	0.3572	0.049
Mof_H 	H 	0.2112	0.8802	0.8802	0.071
Mof_H 	H 	0.4118	0.769	0.769	0.052
Mof_H 	H 	7.55522e-18	0.1198	0.331	0.065
Mof_H 	H 	-1.51104e-17	0.231	0.6428	0.042
Mof_H 	H 	0.1198	0.331	-0	0.065
Mof_H 	H 	0.231	0.6428	-0	0.042
Mof_H 	H 	0.8802	0.8802	0.2112	0.071
Mof_H 	H 	0.769	0.769	0.4118	0.052
Mof_H 	H 	0.669	0.669	0.7888	0.066
Mof_H 	H 	0.3572	0.3572	0.5882	0.049
Mof_H 	H 	0.331	0.1198	-0	0.065
Mof_H 	H 	0.6428	0.231	-0	0.042
Mof_C 	C 	0.76487	0.18295	0.13168	-0.056
Mof_C 	C 	0.7459	0.21792	0.16482	-0.053
Mof_C 	C 	0.773	0.19392	0.08192	0.344
Mof_C 	C 	0.05127	0.63319	0.86832	-0.032
Mof_C 	C 	0.0531	0.58108	0.83518	-0.051
Mof_C 	C 	0.112	0.69108	0.91808	0.334
Mof_C 	C 	0.94873	0.81705	0.58192	-0.003
Mof_C 	C 	0.9469	0.78208	0.52798	-0.013
Mof_C 	C 	0.888	0.80608	0.57908	0.334
Mof_C 	C 	0.23513	0.36681	0.41808	-0.056
Mof_C 	C 	0.2541	0.41892	0.47202	-0.053
Mof_C 	C 	0.227	0.30892	0.42092	0.345
Mof_C 	C 	0.58192	0.94873	0.81705	-0.003
Mof_C 	C 	0.52798	0.9469	0.78208	-0.013
Mof_C 	C 	0.57908	0.888	0.80608	0.334
Mof_C 	C 	0.41808	0.23513	0.36681	-0.056
Mof_C 	C 	0.47202	0.2541	0.41892	-0.053
Mof_C 	C 	0.42092	0.227	0.30892	0.345
Mof_C 	C 	0.13168	0.76487	0.18295	-0.056
Mof_C 	C 	0.16482	0.7459	0.21792	-0.053
Mof_C 	C 	0.08192	0.773	0.19392	0.344
Mof_C 	C 	0.86832	0.05127	0.63319	-0.032
Mof_C 	C 	0.83518	0.0531	0.58108	-0.051
Mof_C 	C 	0.91808	0.112	0.69108	0.334
Mof_C 	C 	0.63319	0.86832	0.05127	-0.032
Mof_C 	C 	0.58108	0.83518	0.0531	-0.051
Mof_C 	C 	0.69108	0.91808	0.112	0.334
Mof_C 	C 	0.18295	0.13168	0.76487	-0.056
Mof_C 	C 	0.21792	0.16482	0.7459	-0.053
Mof_C 	C 	0.19392	0.08192	0.773	0.344
Mof_C 	C 	0.36681	0.41808	0.23513	-0.056
Mof_C 	C 	0.41892	0.47202	0.2541	-0.053
Mof_C 	C 	0.30892	0.42092	0.227	0.345
Mof_C 	C 	0.81705	0.58192	0.94873	-0.003
Mof_C 	C 	0.78208	0.52798	0.9469	-0.013
Mof_C 	C 	0.80608	0.57908	0.888	0.334
Mof_C 	C 	0.81705	0.23513	0.86832	-0.039
Mof_C 	C 	0.78208	0.2541	0.83518	-0.061
Mof_C 	C 	0.80608	0.227	0.91808	0.339
Mof_C 	C 	0.36681	0.94873	0.13168	-0.015
Mof_C 	C 	0.41892	0.9469	0.16482	-0.008
Mof_C 	C 	0.30892	0.888	0.08192	0.336
Mof_C 	C 	0.18295	0.05127	0.41808	-0.047
Mof_C 	C 	0.21792	0.0531	0.47202	-0.045
Mof_C 	C 	0.19392	0.112	0.42092	0.34
Mof_C 	C 	0.63319	0.76487	0.58192	-0.047
Mof_C 	C 	0.58108	0.7459	0.52798	-0.056
Mof_C 	C 	0.69108	0.773	0.57908	0.343
Mof_C 	C 	0.05127	0.41808	0.18295	-0.047
Mof_C 	C 	0.0531	0.47202	0.21792	-0.045
Mof_C 	C 	0.112	0.42092	0.19392	0.34
Mof_C 	C 	0.76487	0.58192	0.63319	-0.047
Mof_C 	C 	0.7459	0.52798	0.58108	-0.056
Mof_C 	C 	0.773	0.57908	0.69108	0.343
Mof_C 	C 	0.23513	0.86832	0.81705	-0.039
Mof_C 	C 	0.2541	0.83518	0.78208	-0.061
Mof_C 	C 	0.227	0.91808	0.80608	0.339
Mof_C 	C 	0.94873	0.13168	0.36681	-0.015
Mof_C 	C 	0.9469	0.16482	0.41892	-0.008
Mof_C 	C 	0.888	0.08192	0.30892	0.336
Mof_C 	C 	0.13168	0.36681	0.94873	-0.015
Mof_C 	C 	0.16482	0.41892	0.9469	-0.008
Mof_C 	C 	0.08192	0.30892	0.888	0.336
Mof_C 	C 	0.86832	0.81705	0.23513	-0.039
Mof_C 	C 	0.83518	0.78208	0.2541	-0.061
Mof_C 	C 	0.91808	0.80608	0.227	0.339
Mof_C 	C 	0.58192	0.63319	0.76487	-0.047
Mof_C 	C 	0.52798	0.58108	0.7459	-0.056
Mof_C 	C 	0.57908	0.69108	0.773	0.343
Mof_C 	C 	0.41808	0.18295	0.05127	-0.047
Mof_C 	C 	0.47202	0.21792	0.0531	-0.045
Mof_C 	C 	0.42092	0.19392	0.112	0.34
Mof_C 	C 	0.23513	0.81705	0.86832	-0.039
Mof_C 	C 	0.2541	0.78208	0.83518	-0.061
Mof_C 	C 	0.227	0.80608	0.91808	0.339
Mof_C 	C 	0.94873	0.36681	0.13168	-0.015
Mof_C 	C 	0.9469	0.41892	0.16482	-0.008
Mof_C 	C 	0.888	0.30892	0.08192	0.336
Mof_C 	C 	0.05127	0.18295	0.41808	-0.047
Mof_C 	C 	0.0531	0.21792	0.47202	-0.045
Mof_C 	C 	0.112	0.19392	0.42092	0.34
Mof_C 	C 	0.76487	0.63319	0.58192	-0.047
Mof_C 	C 	0.7459	0.58108	0.52798	-0.056
Mof_C 	C 	0.773	0.69108	0.57908	0.343
Mof_C 	C 	0.41808	0.05127	0.18295	-0.047
Mof_C 	C 	0.47202	0.0531	0.21792	-0.045
Mof_C 	C 	0.42092	0.112	0.19392	0.34
Mof_C 	C 	0.58192	0.76487	0.63319	-0.047
Mof_C 	C 	0.52798	0.7459	0.58108	-0.056
Mof_C 	C 	0.57908	0.773	0.69108	0.343
Mof_C 	C 	0.86832	0.23513	0.81705	-0.039
Mof_C 	C 	0.83518	0.2541	0.78208	-0.061
Mof_C 	C 	0.91808	0.227	0.80608	0.339
Mof_C 	C 	0.13168	0.94873	0.36681	-0.015
Mof_C 	C 	0.16482	0.9469	0.41892	-0.008
Mof_C 	C 	0.08192	0.888	0.30892	0.336
Mof_C 	C 	0.36681	0.13168	0.94873	-0.015
Mof_C 	C 	0.41892	0.16482	0.9469	-0.008
Mof_C 	C 	0.30892	0.08192	0.888	0.336
Mof_C 	C 	0.81705	0.86832	0.23513	-0.039
Mof_C 	C 	0.78208	0.83518	0.2541	-0.061
Mof_C 	C 	0.80608	0.91808	0.227	0.339
Mof_C 	C 	0.63319	0.58192	0.76487	-0.047
Mof_C 	C 	0.58108	0.52798	0.7459	-0.056
Mof_C 	C 	0.69108	0.57908	0.773	0.343
Mof_C 	C 	0.18295	0.41808	0.05127	-0.047
Mof_C 	C 	0.21792	0.47202	0.0531	-0.045
Mof_C 	C 	0.19392	0.42092	0.112	0.34
Mof_C 	C 	0.18295	0.76487	0.13168	-0.056
Mof_C 	C 	0.21792	0.7459	0.16482	-0.053
Mof_C 	C 	0.19392	0.773	0.08192	0.344
Mof_C 	C 	0.63319	0.05127	0.86832	-0.032
Mof_C 	C 	0.58108	0.0531	0.83518	-0.051
Mof_C 	C 	0.69108	0.112	0.91808	0.334
Mof_C 	C 	0.81705	0.94873	0.58192	-0.003
Mof_C 	C 	0.78208	0.9469	0.52798	-0.013
Mof_C 	C 	0.80608	0.888	0.57908	0.334
Mof_C 	C 	0.36681	0.23513	0.41808	-0.056
Mof_C 	C 	0.41892	0.2541	0.47202	-0.053
Mof_C 	C 	0.30892	0.227	0.42092	0.345
Mof_C 	C 	0.94873	0.58192	0.81705	-0.003
Mof_C 	C 	0.9469	0.52798	0.78208	-0.013
Mof_C 	C 	0.888	0.57908	0.80608	0.334
Mof_C 	C 	0.23513	0.41808	0.36681	-0.056
Mof_C 	C 	0.2541	0.47202	0.41892	-0.053
Mof_C 	C 	0.227	0.42092	0.30892	0.345
Mof_C 	C 	0.76487	0.13168	0.18295	-0.056
Mof_C 	C 	0.7459	0.16482	0.21792	-0.053
Mof_C 	C 	0.773	0.08192	0.19392	0.344
Mof_C 	C 	0.05127	0.86832	0.63319	-0.032
Mof_C 	C 	0.0531	0.83518	0.58108	-0.051
Mof_C 	C 	0.112	0.91808	0.69108	0.334
Mof_C 	C 	0.86832	0.63319	0.05127	-0.032
Mof_C 	C 	0.83518	0.58108	0.0531	-0.051
Mof_C 	C 	0.91808	0.69108	0.112	0.334
Mof_C 	C 	0.13168	0.18295	0.76487	-0.056
Mof_C 	C 	0.16482	0.21792	0.7459	-0.053
Mof_C 	C 	0.08192	0.19392	0.773	0.344
Mof_C 	C 	0.41808	0.36681	0.23513	-0.056
Mof_C 	C 	0.47202	0.41892	0.2541	-0.053
Mof_C 	C 	0.42092	0.30892	0.227	0.345
Mof_C 	C 	0.58192	0.81705	0.94873	-0.003
Mof_C 	C 	0.52798	0.78208	0.9469	-0.013
Mof_C 	C 	0.57908	0.80608	0.888	0.334
Mof_C 	C 	0.7036	0.3518	0.3518	-0.099
Mof_C 	C 	-0	0.3518	0.6482	-0.106
Mof_C 	C 	-7.55522e-18	0.6482	0.3518	-0.106
Mof_C 	C 	0.2964	0.6482	0.6482	-0.099
Mof_C 	C 	0.3518	6.04417e-17	0.6482	-0.106
Mof_C 	C 	0.6482	0.2964	0.6482	-0.099
Mof_C 	C 	0.3518	0.7036	0.3518	-0.099
Mof_C 	C 	0.6482	3.02209e-17	0.3518	-0.106
Mof_C 	C 	0.3518	0.6482	-0	-0.106
Mof_C 	C 	0.3518	0.3518	0.7036	-0.099
Mof_C 	C 	0.6482	0.6482	0.2964	-0.099
Mof_C 	C 	0.6482	0.3518	-0	-0.106
Mof_C 	C 	0.7368	0.2077	0.2077	0.041
Mof_C 	C 	0.77516	0.14128	0.14128	0.005
Mof_C 	C 	0.67182	0.29831	0.29831	0.04
Mof_C 	C 	0.7017	0.27085	0.27085	-0.013
Mof_C 	C 	0.60934	0.26747	0.26747	-0.008
Mof_C 	C 	0.7166	0.2411	0.2411	-0.016
Mof_C 	C 	-1.05773e-16	0.5291	0.7923	-0.001
Mof_C 	C 	3.02209e-17	0.63388	0.85872	-0.065
Mof_C 	C 	4.53313e-17	0.37351	0.70169	0.041
Mof_C 	C 	-4.53313e-17	0.43085	0.72915	-0.027
Mof_C 	C 	-6.04417e-17	0.34187	0.73253	-0.014
Mof_C 	C 	3.02209e-17	0.4755	0.7589	-0.009
Mof_C 	C 	-7.55522e-17	0.7923	0.5291	-0.001
Mof_C 	C 	4.53313e-17	0.85872	0.63388	-0.065
Mof_C 	C 	5.28865e-17	0.70169	0.37351	0.041
Mof_C 	C 	-3.02209e-17	0.72915	0.43085	-0.027
Mof_C 	C 	6.04417e-17	0.73253	0.34187	-0.014
Mof_C 	C 	-0	0.7589	0.4755	-0.009
Mof_C 	C 	0.2632	0.4709	0.4709	0.04
Mof_C 	C 	0.22484	0.36612	0.36612	0.005
Mof_C 	C 	0.32818	0.62649	0.62649	0.039
Mof_C 	C 	0.2983	0.56915	0.56915	-0.015
Mof_C 	C 	0.39066	0.65813	0.65813	-0.008
Mof_C 	C 	0.2834	0.5245	0.5245	-0.017
Mof_C 	C 	0.5291	0	0.7923	-0.001
Mof_C 	C 	0.63388	0	0.85872	-0.065
Mof_C 	C 	0.37351	6.04417e-17	0.70169	0.041
Mof_C 	C 	0.43085	0	0.72915	-0.027
Mof_C 	C 	0.34187	-6.04417e-17	0.73253	-0.014
Mof_C 	C 	0.4755	1.20883e-16	0.7589	-0.009
Mof_C 	C 	0.4709	0.2632	0.4709	0.04
Mof_C 	C 	0.36612	0.22484	0.36612	0.005
Mof_C 	C 	0.62649	0.32818	0.62649	0.039
Mof_C 	C 	0.56915	0.2983	0.56915	-0.015
Mof_C 	C 	0.65813	0.39066	0.65813	-0.008
Mof_C 	C 	0.5245	0.2834	0.5245	-0.017
Mof_C 	C 	0.2077	0.7368	0.2077	0.041
Mof_C 	C 	0.14128	0.77516	0.14128	0.005
Mof_C 	C 	0.29831	0.67182	0.29831	0.04
Mof_C 	C 	0.27085	0.7017	0.27085	-0.013
Mof_C 	C 	0.26747	0.60934	0.26747	-0.008
Mof_C 	C 	0.2411	0.7166	0.2411	-0.016
Mof_C 	C 	0.7923	3.02209e-17	0.5291	-0.001
Mof_C 	C 	0.85872	6.04417e-17	0.63388	-0.065
Mof_C 	C 	0.70169	0	0.37351	0.041
Mof_C 	C 	0.72915	0	0.43085	-0.027
Mof_C 	C 	0.73253	0	0.34187	-0.014
Mof_C 	C 	0.7589	3.02209e-17	0.4755	-0.009
Mof_C 	C 	0.5291	0.7923	-0	-0.001
Mof_C 	C 	0.63388	0.85872	-0	-0.065
Mof_C 	C 	0.37351	0.70169	-0	0.041
Mof_C 	C 	0.43085	0.72915	-0	-0.027
Mof_C 	C 	0.34187	0.73253	-0	-0.014
Mof_C 	C 	0.4755	0.7589	-0	-0.009
Mof_C 	C 	0.2077	0.2077	0.7368	0.041
Mof_C 	C 	0.14128	0.14128	0.77516	0.005
Mof_C 	C 	0.29831	0.29831	0.67182	0.04
Mof_C 	C 	0.27085	0.27085	0.7017	-0.013
Mof_C 	C 	0.26747	0.26747	0.60934	-0.008
Mof_C 	C 	0.2411	0.2411	0.7166	-0.016
Mof_C 	C 	0.4709	0.4709	0.2632	0.04
Mof_C 	C 	0.36612	0.36612	0.22484	0.005
Mof_C 	C 	0.62649	0.62649	0.32818	0.039
Mof_C 	C 	0.56915	0.56915	0.2983	-0.015
Mof_C 	C 	0.65813	0.65813	0.39066	-0.008
Mof_C 	C 	0.5245	0.5245	0.2834	-0.017
Mof_C 	C 	0.7923	0.5291	-0	-0.001
Mof_C 	C 	0.85872	0.63388	-0	-0.065
Mof_C 	C 	0.70169	0.37351	-0	0.041
Mof_C 	C 	0.72915	0.43085	-0	-0.027
Mof_C 	C 	0.73253	0.34187	-0	-0.014
Mof_C 	C 	0.7589	0.4755	-0	-0.009
Mof_C 	C 	0.7923	0.2632	0.7923	0.051
Mof_C 	C 	0.85872	0.22484	0.85872	-0.007
Mof_C 	C 	0.70169	0.32818	0.70169	0.04
Mof_C 	C 	0.72915	0.2983	0.72915	-0.011
Mof_C 	C 	0.73253	0.39066	0.73253	-0.008
Mof_C 	C 	0.7589	0.2834	0.7589	-0.016
Mof_C 	C 	0.4709	0	0.2077	-0.009
Mof_C 	C 	0.36612	0	0.14128	-0.056
Mof_C 	C 	0.62649	3.02209e-17	0.29831	0.041
Mof_C 	C 	0.56915	1.51104e-17	0.27085	-0.03
Mof_C 	C 	0.65813	0	0.26747	-0.014
Mof_C 	C 	0.5245	0	0.2411	-0.009
Mof_C 	C 	0.2077	3.02209e-17	0.4709	-0.009
Mof_C 	C 	0.14128	3.02209e-17	0.36612	-0.056
Mof_C 	C 	0.29831	6.04417e-17	0.62649	0.041
Mof_C 	C 	0.27085	6.04417e-17	0.56915	-0.03
Mof_C 	C 	0.26747	0	0.65813	-0.014
Mof_C 	C 	0.2411	3.02209e-17	0.5245	-0.009
Mof_C 	C 	0.5291	0.7368	0.5291	0.046
Mof_C 	C 	0.63388	0.77516	0.63388	-0.001
Mof_C 	C 	0.37351	0.67182	0.37351	0.04
Mof_C 	C 	0.43085	0.7017	0.43085	-0.011
Mof_C 	C 	0.34187	0.60934	0.34187	-0.009
Mof_C 	C 	0.4755	0.7166	0.4755	-0.016
Mof_C 	C 	2.26657e-17	0.4709	0.2077	-0.009
Mof_C 	C 	-1.13328e-17	0.36612	0.14128	-0.056
Mof_C 	C 	-7.55522e-18	0.62649	0.29831	0.041
Mof_C 	C 	-2.26657e-17	0.56915	0.27085	-0.03
Mof_C 	C 	6.04417e-17	0.65813	0.26747	-0.014
Mof_C 	C 	7.55522e-18	0.5245	0.2411	-0.009
Mof_C 	C 	0.7368	0.5291	0.5291	0.046
Mof_C 	C 	0.77516	0.63388	0.63388	-0.001
Mof_C 	C 	0.67182	0.37351	0.37351	0.04
Mof_C 	C 	0.7017	0.43085	0.43085	-0.011
Mof_C 	C 	0.60934	0.34187	0.34187	-0.009
Mof_C 	C 	0.7166	0.4755	0.4755	-0.016
Mof_C 	C 	0.2632	0.7923	0.7923	0.051
Mof_C 	C 	0.22484	0.85872	0.85872	-0.007
Mof_C 	C 	0.32818	0.70169	0.70169	0.04
Mof_C 	C 	0.2983	0.72915	0.72915	-0.011
Mof_C 	C 	0.39066	0.73253	0.73253	-0.008
Mof_C 	C 	0.2834	0.7589	0.7589	-0.016
Mof_C 	C 	3.02209e-17	0.2077	0.4709	-0.009
Mof_C 	C 	7.55522e-18	0.14128	0.36612	-0.056
Mof_C 	C 	-0	0.29831	0.62649	0.041
Mof_C 	C 	-0	0.27085	0.56915	-0.03
Mof_C 	C 	4.53313e-17	0.26747	0.65813	-0.014
Mof_C 	C 	1.51104e-17	0.2411	0.5245	-0.009
Mof_C 	C 	0.2077	0.4709	-0	-0.009
Mof_C 	C 	0.14128	0.36612	-0	-0.056
Mof_C 	C 	0.29831	0.62649	-0	0.041
Mof_C 	C 	0.27085	0.56915	-0	-0.03
Mof_C 	C 	0.26747	0.65813	-0	-0.014
Mof_C 	C 	0.2411	0.5245	-0	-0.009
Mof_C 	C 	0.7923	0.7923	0.2632	0.051
Mof_C 	C 	0.85872	0.85872	0.22484	-0.007
Mof_C 	C 	0.70169	0.70169	0.32818	0.04
Mof_C 	C 	0.72915	0.72915	0.2983	-0.011
Mof_C 	C 	0.73253	0.73253	0.39066	-0.008
Mof_C 	C 	0.7589	0.7589	0.2834	-0.016
Mof_C 	C 	0.5291	0.5291	0.7368	0.046
Mof_C 	C 	0.63388	0.63388	0.77516	-0.001
Mof_C 	C 	0.37351	0.37351	0.67182	0.04
Mof_C 	C 	0.43085	0.43085	0.7017	-0.011
Mof_C 	C 	0.34187	0.34187	0.60934	-0.009
Mof_C 	C 	0.4755	0.4755	0.7166	-0.016
Mof_C 	C 	0.4709	0.2077	-0	-0.009
Mof_C 	C 	0.36612	0.14128	-0	-0.056
Mof_C 	C 	0.62649	0.29831	-0	0.041
Mof_C 	C 	0.56915	0.27085	-0	-0.03
Mof_C 	C 	0.65813	0.26747	-0	-0.014
Mof_C 	C 	0.5245	0.2411	-0	-0.009
Mof_N 	N 	0.578	0.289	0.289	-0.158
Mof_N 	N 	-1.51104e-17	0.289	0.711	-0.162
Mof_N 	N 	-7.55522e-18	0.711	0.289	-0.162
Mof_N 	N 	0.422	0.711	0.711	-0.157
Mof_N 	N 	0.289	0	0.711	-0.162
Mof_N 	N 	0.711	0.422	0.711	-0.157
Mof_N 	N 	0.289	0.578	0.289	-0.158
Mof_N 	N 	0.711	3.02209e-17	0.289	-0.162
Mof_N 	N 	0.289	0.711	-0	-0.162
Mof_N 	N 	0.289	0.289	0.578	-0.158
Mof_N 	N 	0.711	0.711	0.422	-0.157
Mof_N 	N 	0.711	0.289	-0	-0.162
Mof_O 	O 	0.80142	0.17279	0.06317	-0.413
Mof_O 	O 	0.75112	0.2238	0.06322	-0.393
Mof_O 	O 	0.10962	0.73825	0.93683	-0.391
Mof_O 	O 	0.16058	0.6879	0.93678	-0.368
Mof_O 	O 	0.89038	0.82721	0.62863	-0.389
Mof_O 	O 	0.83942	0.7762	0.52732	-0.382
Mof_O 	O 	0.19858	0.26175	0.37137	-0.41
Mof_O 	O 	0.24888	0.3121	0.47268	-0.389
Mof_O 	O 	0.62863	0.89038	0.82721	-0.389
Mof_O 	O 	0.52732	0.83942	0.7762	-0.382
Mof_O 	O 	0.37137	0.19858	0.26175	-0.41
Mof_O 	O 	0.47268	0.24888	0.3121	-0.389
Mof_O 	O 	0.06317	0.80142	0.17279	-0.413
Mof_O 	O 	0.06322	0.75112	0.2238	-0.393
Mof_O 	O 	0.93683	0.10962	0.73825	-0.391
Mof_O 	O 	0.93678	0.16058	0.6879	-0.368
Mof_O 	O 	0.73825	0.93683	0.10962	-0.391
Mof_O 	O 	0.6879	0.93678	0.16058	-0.368
Mof_O 	O 	0.17279	0.06317	0.80142	-0.413
Mof_O 	O 	0.2238	0.06322	0.75112	-0.393
Mof_O 	O 	0.26175	0.37137	0.19858	-0.41
Mof_O 	O 	0.3121	0.47268	0.24888	-0.389
Mof_O 	O 	0.82721	0.62863	0.89038	-0.389
Mof_O 	O 	0.7762	0.52732	0.83942	-0.382
Mof_O 	O 	0.82721	0.19858	0.93683	-0.388
Mof_O 	O 	0.7762	0.24888	0.93678	-0.367
Mof_O 	O 	0.26175	0.89038	0.06317	-0.402
Mof_O 	O 	0.3121	0.83942	0.06322	-0.389
Mof_O 	O 	0.17279	0.10962	0.37137	-0.412
Mof_O 	O 	0.2238	0.16058	0.47268	-0.389
Mof_O 	O 	0.73825	0.80142	0.62863	-0.4
Mof_O 	O 	0.6879	0.75112	0.52732	-0.387
Mof_O 	O 	0.10962	0.37137	0.17279	-0.412
Mof_O 	O 	0.16058	0.47268	0.2238	-0.389
Mof_O 	O 	0.80142	0.62863	0.73825	-0.4
Mof_O 	O 	0.75112	0.52732	0.6879	-0.387
Mof_O 	O 	0.19858	0.93683	0.82721	-0.388
Mof_O 	O 	0.24888	0.93678	0.7762	-0.367
Mof_O 	O 	0.89038	0.06317	0.26175	-0.402
Mof_O 	O 	0.83942	0.06322	0.3121	-0.389
Mof_O 	O 	0.06317	0.26175	0.89038	-0.403
Mof_O 	O 	0.06322	0.3121	0.83942	-0.389
Mof_O 	O 	0.93683	0.82721	0.19858	-0.388
Mof_O 	O 	0.93678	0.7762	0.24888	-0.367
Mof_O 	O 	0.62863	0.73825	0.80142	-0.4
Mof_O 	O 	0.52732	0.6879	0.75112	-0.387
Mof_O 	O 	0.37137	0.17279	0.10962	-0.412
Mof_O 	O 	0.47268	0.2238	0.16058	-0.389
Mof_O 	O 	0.19858	0.82721	0.93683	-0.388
Mof_O 	O 	0.24888	0.7762	0.93678	-0.367
Mof_O 	O 	0.89038	0.26175	0.06317	-0.402
Mof_O 	O 	0.83942	0.3121	0.06322	-0.389
Mof_O 	O 	0.10962	0.17279	0.37137	-0.412
Mof_O 	O 	0.16058	0.2238	0.47268	-0.389
Mof_O 	O 	0.80142	0.73825	0.62863	-0.4
Mof_O 	O 	0.75112	0.6879	0.52732	-0.387
Mof_O 	O 	0.37137	0.10962	0.17279	-0.412
Mof_O 	O 	0.47268	0.16058	0.2238	-0.389
Mof_O 	O 	0.62863	0.80142	0.73825	-0.4
Mof_O 	O 	0.52732	0.75112	0.6879	-0.387
Mof_O 	O 	0.93683	0.19858	0.82721	-0.388
Mof_O 	O 	0.93678	0.24888	0.7762	-0.367
Mof_O 	O 	0.06317	0.89038	0.26175	-0.403
Mof_O 	O 	0.06322	0.83942	0.3121	-0.389
Mof_O 	O 	0.26175	0.06317	0.89038	-0.402
Mof_O 	O 	0.3121	0.06322	0.83942	-0.389
Mof_O 	O 	0.82721	0.93683	0.19858	-0.388
Mof_O 	O 	0.7762	0.93678	0.24888	-0.367
Mof_O 	O 	0.73825	0.62863	0.80142	-0.4
Mof_O 	O 	0.6879	0.52732	0.75112	-0.387
Mof_O 	O 	0.17279	0.37137	0.10962	-0.412
Mof_O 	O 	0.2238	0.47268	0.16058	-0.389
Mof_O 	O 	0.17279	0.80142	0.06317	-0.413
Mof_O 	O 	0.2238	0.75112	0.06322	-0.393
Mof_O 	O 	0.73825	0.10962	0.93683	-0.391
Mof_O 	O 	0.6879	0.16058	0.93678	-0.368
Mof_O 	O 	0.82721	0.89038	0.62863	-0.389
Mof_O 	O 	0.7762	0.83942	0.52732	-0.382
Mof_O 	O 	0.26175	0.19858	0.37137	-0.41
Mof_O 	O 	0.3121	0.24888	0.47268	-0.389
Mof_O 	O 	0.89038	0.62863	0.82721	-0.389
Mof_O 	O 	0.83942	0.52732	0.7762	-0.382
Mof_O 	O 	0.19858	0.37137	0.26175	-0.41
Mof_O 	O 	0.24888	0.47268	0.3121	-0.389
Mof_O 	O 	0.80142	0.06317	0.17279	-0.413
Mof_O 	O 	0.75112	0.06322	0.2238	-0.393
Mof_O 	O 	0.10962	0.93683	0.73825	-0.391
Mof_O 	O 	0.16058	0.93678	0.6879	-0.368
Mof_O 	O 	0.93683	0.73825	0.10962	-0.391
Mof_O 	O 	0.93678	0.6879	0.16058	-0.368
Mof_O 	O 	0.06317	0.17279	0.80142	-0.413
Mof_O 	O 	0.06322	0.2238	0.75112	-0.393
Mof_O 	O 	0.37137	0.26175	0.19858	-0.41
Mof_O 	O 	0.47268	0.3121	0.24888	-0.389
Mof_O 	O 	0.62863	0.82721	0.89038	-0.389
Mof_O 	O 	0.52732	0.7762	0.83942	-0.382
_end
