data_functionalizedCrystal
_audit_creation_method	'EQeq! by Chris Wilmer'
_symmetry_space_group_name_H-M	'P1'
_symmetry_Int_Tables_number	1
_symmetry_cell_setting	triclinic
loop_
_symmetry_equiv_pos_as_xyz
  x,y,z
_cell_length_a	9.295
_cell_length_b	9.295
_cell_length_c	17.689
_cell_angle_alpha	90
_cell_angle_beta	90
_cell_angle_gamma	120
loop_
_atom_site_label
_atom_site_type_symbol
_atom_site_fract_x
_atom_site_fract_y
_atom_site_fract_z
_atom_site_charge
Mof_Eu	Eu	-0	0	-0	1.7
Mof_Eu	Eu	-0	0	0.5	1.795
Mof_La	La	0.33333	0.66666	0.75	2.123
Mof_La	La	0.66667	0.33334	0.25	2.119
Mof_H 	H 	0.573	0.5984	0.9172	0.105
Mof_H 	H 	0.509	0.6763	0.9756	0.112
Mof_H 	H 	0.0254	0.427	0.9172	0.031
Mof_H 	H 	0.1673	0.491	0.9756	0.069
Mof_H 	H 	0.4016	0.9746	0.9172	0.089
Mof_H 	H 	0.3237	0.8327	0.9756	0.068
Mof_H 	H 	0.573	0.5984	0.5828	0.115
Mof_H 	H 	0.509	0.6763	0.5244	0.115
Mof_H 	H 	0.0254	0.427	0.5828	0.042
Mof_H 	H 	0.1673	0.491	0.5244	0.074
Mof_H 	H 	0.4016	0.9746	0.5828	0.1
Mof_H 	H 	0.3237	0.8327	0.5244	0.072
Mof_H 	H 	0.9746	0.4016	0.0828	0.084
Mof_H 	H 	0.8327	0.3237	0.0244	0.052
Mof_H 	H 	0.5984	0.573	0.0828	0.101
Mof_H 	H 	0.6763	0.509	0.0244	0.1
Mof_H 	H 	0.427	0.0254	0.0828	0.034
Mof_H 	H 	0.491	0.1673	0.0244	0.062
Mof_H 	H 	0.9746	0.4016	0.4172	0.098
Mof_H 	H 	0.8327	0.3237	0.4756	0.07
Mof_H 	H 	0.5984	0.573	0.4172	0.113
Mof_H 	H 	0.6763	0.509	0.4756	0.117
Mof_H 	H 	0.427	0.0254	0.4172	0.046
Mof_H 	H 	0.491	0.1673	0.4756	0.079
Mof_C 	C 	0.6556	0.8398	0.895	0.478
Mof_C 	C 	0.6028	0.6944	0.9469	-0.215
Mof_C 	C 	0.1842	0.3444	0.895	0.448
Mof_C 	C 	0.0916	0.3972	0.9469	-0.14
Mof_C 	C 	0.1602	0.8158	0.895	0.452
Mof_C 	C 	0.3056	0.9084	0.9469	-0.041
Mof_C 	C 	0.6556	0.8398	0.605	0.495
Mof_C 	C 	0.6028	0.6944	0.5531	-0.277
Mof_C 	C 	0.1842	0.3444	0.605	0.467
Mof_C 	C 	0.0916	0.3972	0.5531	-0.21
Mof_C 	C 	0.1602	0.8158	0.605	0.469
Mof_C 	C 	0.3056	0.9084	0.5531	-0.105
Mof_C 	C 	0.8158	0.1602	0.105	0.451
Mof_C 	C 	0.9084	0.3056	0.0531	-0.058
Mof_C 	C 	0.8398	0.6556	0.105	0.482
Mof_C 	C 	0.6944	0.6028	0.0531	-0.252
Mof_C 	C 	0.3444	0.1842	0.105	0.457
Mof_C 	C 	0.3972	0.0916	0.0531	-0.193
Mof_C 	C 	0.8158	0.1602	0.395	0.465
Mof_C 	C 	0.9084	0.3056	0.4469	-0.086
Mof_C 	C 	0.8398	0.6556	0.395	0.495
Mof_C 	C 	0.6944	0.6028	0.4469	-0.277
Mof_C 	C 	0.3444	0.1842	0.395	0.47
Mof_C 	C 	0.3972	0.0916	0.4469	-0.218
Mof_O 	O 	0.5584	0.8267	0.8443	-0.492
Mof_O 	O 	0.7938	0.9665	0.9068	-0.303
Mof_O 	O 	0.2683	0.4416	0.8443	-0.535
Mof_O 	O 	0.1727	0.2062	0.9068	-0.471
Mof_O 	O 	0.1733	0.7317	0.8443	-0.529
Mof_O 	O 	0.0335	0.8273	0.9068	-0.435
Mof_O 	O 	0.5584	0.8267	0.6557	-0.5
Mof_O 	O 	0.7938	0.9665	0.5932	-0.333
Mof_O 	O 	0.2683	0.4416	0.6557	-0.543
Mof_O 	O 	0.1727	0.2062	0.5932	-0.505
Mof_O 	O 	0.1733	0.7317	0.6557	-0.537
Mof_O 	O 	0.0335	0.8273	0.5932	-0.467
Mof_O 	O 	0.7317	0.1733	0.1557	-0.531
Mof_O 	O 	0.8273	0.0335	0.0932	-0.449
Mof_O 	O 	0.8267	0.5584	0.1557	-0.496
Mof_O 	O 	0.9665	0.7938	0.0932	-0.325
Mof_O 	O 	0.4416	0.2683	0.1557	-0.542
Mof_O 	O 	0.2062	0.1727	0.0932	-0.501
Mof_O 	O 	0.7317	0.1733	0.3443	-0.534
Mof_O 	O 	0.8273	0.0335	0.4068	-0.458
Mof_O 	O 	0.8267	0.5584	0.3443	-0.499
Mof_O 	O 	0.9665	0.7938	0.4068	-0.333
Mof_O 	O 	0.4416	0.2683	0.3443	-0.545
Mof_O 	O 	0.2062	0.1727	0.4068	-0.509
Mof_O 	O 	0.7323	0.7323	-0	-0.196
Mof_O 	O 	2.14742e-17	0.2677	-0	-0.405
Mof_O 	O 	0.2677	0	-0	-0.391
Mof_O 	O 	0.7323	0.7323	0.5	-0.159
Mof_O 	O 	-9.15807e-18	0.2677	0.5	-0.365
Mof_O 	O 	0.2677	0	0.5	-0.354
_end
