data_functionalizedCrystal
_audit_creation_method	'EQeq! by Chris Wilmer'
_symmetry_space_group_name_H-M	'P1'
_symmetry_Int_Tables_number	1
_symmetry_cell_setting	triclinic
loop_
_symmetry_equiv_pos_as_xyz
  x,y,z
_cell_length_a	28.4774
_cell_length_b	9.4694
_cell_length_c	18.8921
_cell_angle_alpha	90
_cell_angle_beta	90
_cell_angle_gamma	90
loop_
_atom_site_label
_atom_site_type_symbol
_atom_site_fract_x
_atom_site_fract_y
_atom_site_fract_z
_atom_site_charge
Mof_Cu	Cu	0.06547	0.1078	0.92551	0.894
Mof_P 	P 	0.0965	0.0484	0.76	0.37
Mof_O 	O 	0.9555	0.3276	0.5207	-0.418
Mof_O 	O 	0.0845	0.0145	0.8391	-0.354
Mof_O 	O 	0.1134	0.9097	0.7207	-0.191
Mof_O 	O 	0.135	0.1656	0.7496	-0.185
Mof_N 	N 	0.1344	0.1527	0.9514	-0.218
Mof_C 	C 	0.0429	0.1103	0.7242	-0.066
Mof_C 	C 	0.0426	0.2002	0.665	0.006
Mof_C 	C 	0.2257	0.2315	0.9886	0.05
Mof_C 	C 	0.1865	0.2915	0.0228	-0.107
Mof_C 	C 	0.1415	0.2489	0.0009	0.065
Mof_C 	C 	0.1703	0.092	0.9195	0.082
Mof_C 	C 	0.2178	0.1336	0.9362	-0.116
Mof_H 	H 	0.0711	0.213	0.639	0.054
Mof_H 	H 	0.1899	0.381	0.045	0.074
Mof_H 	H 	0.1157	0.305	0.015	0.008
Mof_H 	H 	0.1657	0.001	0.901	0.019
Mof_H 	H 	0.242	0.076	0.922	0.085
Mof_Cu	Cu	0.56547	0.6078	0.92551	0.894
Mof_P 	P 	0.5965	0.5484	0.76	0.37
Mof_O 	O 	0.4555	0.8276	0.5207	-0.415
Mof_O 	O 	0.5845	0.5145	0.8391	-0.354
Mof_O 	O 	0.6134	0.4097	0.7207	-0.191
Mof_O 	O 	0.635	0.6656	0.7496	-0.185
Mof_N 	N 	0.6344	0.6527	0.9514	-0.218
Mof_C 	C 	0.5429	0.6103	0.7242	-0.066
Mof_C 	C 	0.5426	0.7002	0.665	0.006
Mof_C 	C 	0.7257	0.7315	0.9886	0.055
Mof_C 	C 	0.6865	0.7915	0.0228	-0.11
Mof_C 	C 	0.6415	0.7489	0.0009	0.064
Mof_C 	C 	0.6703	0.592	0.9195	0.083
Mof_C 	C 	0.7178	0.6336	0.9362	-0.12
Mof_H 	H 	0.5711	0.713	0.639	0.053
Mof_H 	H 	0.6899	0.881	0.045	0.074
Mof_H 	H 	0.6157	0.805	0.015	0.007
Mof_H 	H 	0.6657	0.501	0.901	0.018
Mof_H 	H 	0.742	0.576	0.922	0.085
Mof_Cu	Cu	0.93453	0.3922	0.42551	0.892
Mof_P 	P 	0.9035	0.4516	0.26	0.369
Mof_O 	O 	0.0445	0.1724	0.0207	-0.415
Mof_O 	O 	0.9155	0.4855	0.3391	-0.356
Mof_O 	O 	0.8866	0.5903	0.2207	-0.193
Mof_O 	O 	0.865	0.3344	0.2496	-0.186
Mof_N 	N 	0.8656	0.3473	0.4514	-0.219
Mof_C 	C 	0.9571	0.3897	0.2242	-0.071
Mof_C 	C 	0.9574	0.2998	0.165	0.001
Mof_C 	C 	0.7743	0.2685	0.4886	0.051
Mof_C 	C 	0.8135	0.2085	0.5228	-0.109
Mof_C 	C 	0.8585	0.2511	0.5009	0.064
Mof_C 	C 	0.8297	0.408	0.4195	0.082
Mof_C 	C 	0.7822	0.3664	0.4362	-0.118
Mof_H 	H 	0.9289	0.287	0.139	0.054
Mof_H 	H 	0.8101	0.119	0.545	0.074
Mof_H 	H 	0.8843	0.195	0.515	0.007
Mof_H 	H 	0.8343	0.499	0.401	0.018
Mof_H 	H 	0.758	0.424	0.422	0.085
Mof_Cu	Cu	0.43453	0.8922	0.42551	0.893
Mof_P 	P 	0.4035	0.9516	0.26	0.369
Mof_O 	O 	0.5445	0.6724	0.0207	-0.416
Mof_O 	O 	0.4155	0.9855	0.3391	-0.355
Mof_O 	O 	0.3866	0.0903	0.2207	-0.192
Mof_O 	O 	0.365	0.8344	0.2496	-0.186
Mof_N 	N 	0.3656	0.8473	0.4514	-0.219
Mof_C 	C 	0.4571	0.8897	0.2242	-0.067
Mof_C 	C 	0.4574	0.7998	0.165	0.005
Mof_C 	C 	0.2743	0.7685	0.4886	0.051
Mof_C 	C 	0.3135	0.7085	0.5228	-0.109
Mof_C 	C 	0.3585	0.7511	0.5009	0.064
Mof_C 	C 	0.3297	0.908	0.4195	0.082
Mof_C 	C 	0.2822	0.8664	0.4362	-0.118
Mof_H 	H 	0.4289	0.787	0.139	0.053
Mof_H 	H 	0.3101	0.619	0.545	0.074
Mof_H 	H 	0.3843	0.695	0.515	0.007
Mof_H 	H 	0.3343	0.999	0.401	0.018
Mof_H 	H 	0.258	0.924	0.422	0.085
Mof_Cu	Cu	0.93453	0.6078	0.57449	0.892
Mof_P 	P 	0.9035	0.5484	0.74	0.369
Mof_O 	O 	0.0445	0.8276	0.9793	-0.415
Mof_O 	O 	0.9155	0.5145	0.6609	-0.356
Mof_O 	O 	0.8866	0.4097	0.7793	-0.193
Mof_O 	O 	0.865	0.6656	0.7504	-0.186
Mof_N 	N 	0.8656	0.6527	0.5486	-0.219
Mof_C 	C 	0.9571	0.6103	0.7758	-0.071
Mof_C 	C 	0.9574	0.7002	0.835	0.001
Mof_C 	C 	0.7743	0.7315	0.5114	0.051
Mof_C 	C 	0.8135	0.7915	0.4772	-0.109
Mof_C 	C 	0.8585	0.7489	0.4991	0.064
Mof_C 	C 	0.8297	0.592	0.5805	0.082
Mof_C 	C 	0.7822	0.6336	0.5638	-0.118
Mof_H 	H 	0.9289	0.713	0.861	0.054
Mof_H 	H 	0.8101	0.881	0.455	0.074
Mof_H 	H 	0.8843	0.805	0.485	0.007
Mof_H 	H 	0.8343	0.501	0.599	0.018
Mof_H 	H 	0.758	0.576	0.578	0.085
Mof_Cu	Cu	0.43453	0.1078	0.57449	0.893
Mof_P 	P 	0.4035	0.0484	0.74	0.369
Mof_O 	O 	0.5445	0.3276	0.9793	-0.416
Mof_O 	O 	0.4155	0.0145	0.6609	-0.355
Mof_O 	O 	0.3866	0.9097	0.7793	-0.192
Mof_O 	O 	0.365	0.1656	0.7504	-0.186
Mof_N 	N 	0.3656	0.1527	0.5486	-0.219
Mof_C 	C 	0.4571	0.1103	0.7758	-0.067
Mof_C 	C 	0.4574	0.2002	0.835	0.005
Mof_C 	C 	0.2743	0.2315	0.5114	0.051
Mof_C 	C 	0.3135	0.2915	0.4772	-0.109
Mof_C 	C 	0.3585	0.2489	0.4991	0.064
Mof_C 	C 	0.3297	0.092	0.5805	0.082
Mof_C 	C 	0.2822	0.1336	0.5638	-0.118
Mof_H 	H 	0.4289	0.213	0.861	0.053
Mof_H 	H 	0.3101	0.381	0.455	0.074
Mof_H 	H 	0.3843	0.305	0.485	0.007
Mof_H 	H 	0.3343	0.001	0.599	0.018
Mof_H 	H 	0.258	0.076	0.578	0.085
Mof_Cu	Cu	0.06547	0.8922	0.07449	0.893
Mof_P 	P 	0.0965	0.9516	0.24	0.369
Mof_O 	O 	0.9555	0.6724	0.4793	-0.419
Mof_O 	O 	0.0845	0.9855	0.1609	-0.355
Mof_O 	O 	0.1134	0.0903	0.2793	-0.192
Mof_O 	O 	0.135	0.8344	0.2504	-0.186
Mof_N 	N 	0.1344	0.8473	0.0486	-0.219
Mof_C 	C 	0.0429	0.8897	0.2758	-0.067
Mof_C 	C 	0.0426	0.7998	0.335	0.005
Mof_C 	C 	0.2257	0.7685	0.0114	0.049
Mof_C 	C 	0.1865	0.7085	0.9772	-0.108
Mof_C 	C 	0.1415	0.7511	0.9991	0.064
Mof_C 	C 	0.1703	0.908	0.0805	0.081
Mof_C 	C 	0.2178	0.8664	0.0638	-0.117
Mof_H 	H 	0.0711	0.787	0.361	0.053
Mof_H 	H 	0.1899	0.619	0.955	0.073
Mof_H 	H 	0.1157	0.695	0.985	0.007
Mof_H 	H 	0.1657	0.999	0.099	0.018
Mof_H 	H 	0.242	0.924	0.078	0.084
Mof_Cu	Cu	0.56547	0.3922	0.07449	0.893
Mof_P 	P 	0.5965	0.4516	0.24	0.369
Mof_O 	O 	0.4555	0.1724	0.4793	-0.416
Mof_O 	O 	0.5845	0.4855	0.1609	-0.355
Mof_O 	O 	0.6134	0.5903	0.2793	-0.192
Mof_O 	O 	0.635	0.3344	0.2504	-0.186
Mof_N 	N 	0.6344	0.3473	0.0486	-0.219
Mof_C 	C 	0.5429	0.3897	0.2758	-0.067
Mof_C 	C 	0.5426	0.2998	0.335	0.005
Mof_C 	C 	0.7257	0.2685	0.0114	0.054
Mof_C 	C 	0.6865	0.2085	0.9772	-0.111
Mof_C 	C 	0.6415	0.2511	0.9991	0.064
Mof_C 	C 	0.6703	0.408	0.0805	0.083
Mof_C 	C 	0.7178	0.3664	0.0638	-0.12
Mof_H 	H 	0.5711	0.287	0.361	0.053
Mof_H 	H 	0.6899	0.119	0.955	0.074
Mof_H 	H 	0.6157	0.195	0.985	0.007
Mof_H 	H 	0.6657	0.499	0.099	0.018
Mof_H 	H 	0.742	0.424	0.078	0.085
Mof_Cu	Cu	0.93453	0.8922	0.07449	0.892
Mof_P 	P 	0.9035	0.9516	0.24	0.369
Mof_O 	O 	0.0445	0.6724	0.4793	-0.416
Mof_O 	O 	0.9155	0.9855	0.1609	-0.356
Mof_O 	O 	0.8866	0.0903	0.2793	-0.192
Mof_O 	O 	0.865	0.8344	0.2504	-0.186
Mof_N 	N 	0.8656	0.8473	0.0486	-0.219
Mof_C 	C 	0.9571	0.8897	0.2758	-0.071
Mof_C 	C 	0.9574	0.7998	0.335	0.001
Mof_C 	C 	0.7743	0.7685	0.0114	0.049
Mof_C 	C 	0.8135	0.7085	0.9772	-0.108
Mof_C 	C 	0.8585	0.7511	0.9991	0.065
Mof_C 	C 	0.8297	0.908	0.0805	0.081
Mof_C 	C 	0.7822	0.8664	0.0638	-0.117
Mof_H 	H 	0.9289	0.787	0.361	0.054
Mof_H 	H 	0.8101	0.619	0.955	0.073
Mof_H 	H 	0.8843	0.695	0.985	0.007
Mof_H 	H 	0.8343	0.999	0.099	0.018
Mof_H 	H 	0.758	0.924	0.078	0.084
Mof_Cu	Cu	0.43453	0.3922	0.07449	0.893
Mof_P 	P 	0.4035	0.4516	0.24	0.369
Mof_O 	O 	0.5445	0.1724	0.4793	-0.416
Mof_O 	O 	0.4155	0.4855	0.1609	-0.355
Mof_O 	O 	0.3866	0.5903	0.2793	-0.192
Mof_O 	O 	0.365	0.3344	0.2504	-0.186
Mof_N 	N 	0.3656	0.3473	0.0486	-0.219
Mof_C 	C 	0.4571	0.3897	0.2758	-0.067
Mof_C 	C 	0.4574	0.2998	0.335	0.005
Mof_C 	C 	0.2743	0.2685	0.0114	0.054
Mof_C 	C 	0.3135	0.2085	0.9772	-0.111
Mof_C 	C 	0.3585	0.2511	0.9991	0.064
Mof_C 	C 	0.3297	0.408	0.0805	0.083
Mof_C 	C 	0.2822	0.3664	0.0638	-0.12
Mof_H 	H 	0.4289	0.287	0.361	0.053
Mof_H 	H 	0.3101	0.119	0.955	0.074
Mof_H 	H 	0.3843	0.195	0.985	0.007
Mof_H 	H 	0.3343	0.499	0.099	0.018
Mof_H 	H 	0.258	0.424	0.078	0.085
Mof_Cu	Cu	0.06547	0.6078	0.57449	0.893
Mof_P 	P 	0.0965	0.5484	0.74	0.369
Mof_O 	O 	0.9555	0.8276	0.9793	-0.418
Mof_O 	O 	0.0845	0.5145	0.6609	-0.355
Mof_O 	O 	0.1134	0.4097	0.7793	-0.192
Mof_O 	O 	0.135	0.6656	0.7504	-0.186
Mof_N 	N 	0.1344	0.6527	0.5486	-0.219
Mof_C 	C 	0.0429	0.6103	0.7758	-0.067
Mof_C 	C 	0.0426	0.7002	0.835	0.005
Mof_C 	C 	0.2257	0.7315	0.5114	0.051
Mof_C 	C 	0.1865	0.7915	0.4772	-0.109
Mof_C 	C 	0.1415	0.7489	0.4991	0.064
Mof_C 	C 	0.1703	0.592	0.5805	0.082
Mof_C 	C 	0.2178	0.6336	0.5638	-0.118
Mof_H 	H 	0.0711	0.713	0.861	0.054
Mof_H 	H 	0.1899	0.881	0.455	0.074
Mof_H 	H 	0.1157	0.805	0.485	0.007
Mof_H 	H 	0.1657	0.501	0.599	0.018
Mof_H 	H 	0.242	0.576	0.578	0.085
Mof_Cu	Cu	0.56547	0.1078	0.57449	0.893
Mof_P 	P 	0.5965	0.0484	0.74	0.369
Mof_O 	O 	0.4555	0.3276	0.9793	-0.416
Mof_O 	O 	0.5845	0.0145	0.6609	-0.355
Mof_O 	O 	0.6134	0.9097	0.7793	-0.192
Mof_O 	O 	0.635	0.1656	0.7504	-0.186
Mof_N 	N 	0.6344	0.1527	0.5486	-0.219
Mof_C 	C 	0.5429	0.1103	0.7758	-0.067
Mof_C 	C 	0.5426	0.2002	0.835	0.005
Mof_C 	C 	0.7257	0.2315	0.5114	0.051
Mof_C 	C 	0.6865	0.2915	0.4772	-0.109
Mof_C 	C 	0.6415	0.2489	0.4991	0.064
Mof_C 	C 	0.6703	0.092	0.5805	0.082
Mof_C 	C 	0.7178	0.1336	0.5638	-0.118
Mof_H 	H 	0.5711	0.213	0.861	0.053
Mof_H 	H 	0.6899	0.381	0.455	0.074
Mof_H 	H 	0.6157	0.305	0.485	0.007
Mof_H 	H 	0.6657	0.001	0.599	0.018
Mof_H 	H 	0.742	0.076	0.578	0.085
Mof_Cu	Cu	0.06547	0.3922	0.42551	0.893
Mof_P 	P 	0.0965	0.4516	0.26	0.369
Mof_O 	O 	0.9555	0.1724	0.0207	-0.418
Mof_O 	O 	0.0845	0.4855	0.3391	-0.355
Mof_O 	O 	0.1134	0.5903	0.2207	-0.192
Mof_O 	O 	0.135	0.3344	0.2496	-0.186
Mof_N 	N 	0.1344	0.3473	0.4514	-0.219
Mof_C 	C 	0.0429	0.3897	0.2242	-0.067
Mof_C 	C 	0.0426	0.2998	0.165	0.005
Mof_C 	C 	0.2257	0.2685	0.4886	0.051
Mof_C 	C 	0.1865	0.2085	0.5228	-0.109
Mof_C 	C 	0.1415	0.2511	0.5009	0.064
Mof_C 	C 	0.1703	0.408	0.4195	0.082
Mof_C 	C 	0.2178	0.3664	0.4362	-0.118
Mof_H 	H 	0.0711	0.287	0.139	0.054
Mof_H 	H 	0.1899	0.119	0.545	0.074
Mof_H 	H 	0.1157	0.195	0.515	0.007
Mof_H 	H 	0.1657	0.499	0.401	0.018
Mof_H 	H 	0.242	0.424	0.422	0.085
Mof_Cu	Cu	0.56547	0.8922	0.42551	0.893
Mof_P 	P 	0.5965	0.9516	0.26	0.369
Mof_O 	O 	0.4555	0.6724	0.0207	-0.416
Mof_O 	O 	0.5845	0.9855	0.3391	-0.355
Mof_O 	O 	0.6134	0.0903	0.2207	-0.192
Mof_O 	O 	0.635	0.8344	0.2496	-0.186
Mof_N 	N 	0.6344	0.8473	0.4514	-0.219
Mof_C 	C 	0.5429	0.8897	0.2242	-0.067
Mof_C 	C 	0.5426	0.7998	0.165	0.005
Mof_C 	C 	0.7257	0.7685	0.4886	0.051
Mof_C 	C 	0.6865	0.7085	0.5228	-0.109
Mof_C 	C 	0.6415	0.7511	0.5009	0.064
Mof_C 	C 	0.6703	0.908	0.4195	0.082
Mof_C 	C 	0.7178	0.8664	0.4362	-0.118
Mof_H 	H 	0.5711	0.787	0.139	0.053
Mof_H 	H 	0.6899	0.619	0.545	0.074
Mof_H 	H 	0.6157	0.695	0.515	0.007
Mof_H 	H 	0.6657	0.999	0.401	0.018
Mof_H 	H 	0.742	0.924	0.422	0.085
Mof_Cu	Cu	0.93453	0.1078	0.92551	0.892
Mof_P 	P 	0.9035	0.0484	0.76	0.369
Mof_O 	O 	0.0445	0.3276	0.5207	-0.416
Mof_O 	O 	0.9155	0.0145	0.8391	-0.356
Mof_O 	O 	0.8866	0.9097	0.7207	-0.192
Mof_O 	O 	0.865	0.1656	0.7496	-0.186
Mof_N 	N 	0.8656	0.1527	0.9514	-0.219
Mof_C 	C 	0.9571	0.1103	0.7242	-0.071
Mof_C 	C 	0.9574	0.2002	0.665	0.001
Mof_C 	C 	0.7743	0.2315	0.9886	0.049
Mof_C 	C 	0.8135	0.2915	0.0228	-0.108
Mof_C 	C 	0.8585	0.2489	0.0009	0.065
Mof_C 	C 	0.8297	0.092	0.9195	0.081
Mof_C 	C 	0.7822	0.1336	0.9362	-0.117
Mof_H 	H 	0.9289	0.213	0.639	0.054
Mof_H 	H 	0.8101	0.381	0.045	0.073
Mof_H 	H 	0.8843	0.305	0.015	0.007
Mof_H 	H 	0.8343	0.001	0.901	0.018
Mof_H 	H 	0.758	0.076	0.922	0.084
Mof_Cu	Cu	0.43453	0.6078	0.92551	0.893
Mof_P 	P 	0.4035	0.5484	0.76	0.369
Mof_O 	O 	0.5445	0.8276	0.5207	-0.416
Mof_O 	O 	0.4155	0.5145	0.8391	-0.355
Mof_O 	O 	0.3866	0.4097	0.7207	-0.192
Mof_O 	O 	0.365	0.6656	0.7496	-0.186
Mof_N 	N 	0.3656	0.6527	0.9514	-0.219
Mof_C 	C 	0.4571	0.6103	0.7242	-0.067
Mof_C 	C 	0.4574	0.7002	0.665	0.005
Mof_C 	C 	0.2743	0.7315	0.9886	0.054
Mof_C 	C 	0.3135	0.7915	0.0228	-0.111
Mof_C 	C 	0.3585	0.7489	0.0009	0.064
Mof_C 	C 	0.3297	0.592	0.9195	0.083
Mof_C 	C 	0.2822	0.6336	0.9362	-0.12
Mof_H 	H 	0.4289	0.713	0.639	0.053
Mof_H 	H 	0.3101	0.881	0.045	0.074
Mof_H 	H 	0.3843	0.805	0.015	0.007
Mof_H 	H 	0.3343	0.501	0.901	0.018
Mof_H 	H 	0.258	0.576	0.922	0.085
Mof_P 	P 	1.39069e-33	0.3615	0.5591	0.428
Mof_O 	O 	-8.46019e-33	0.5188	0.5829	-0.468
Mof_C 	C 	-3.3778e-33	0.2441	0.6341	-0.062
Mof_C 	C 	-3.08354e-33	0.0644	0.7524	-0.01
Mof_H 	H 	-2.9726e-33	0.019	0.797	0.043
Mof_P 	P 	0.5	0.8615	0.5591	0.426
Mof_O 	O 	0.5	0.0188	0.5829	-0.469
Mof_C 	C 	0.5	0.7441	0.6341	-0.066
Mof_C 	C 	0.5	0.5644	0.7524	-0.016
Mof_H 	H 	0.5	0.519	0.797	0.044
Mof_P 	P 	-1.09176e-33	0.1385	0.0591	0.429
Mof_O 	O 	-2.8907e-33	0.9812	0.0829	-0.468
Mof_C 	C 	3.33557e-34	0.2559	0.1341	-0.062
Mof_C 	C 	-5.56599e-33	0.4356	0.2524	-0.01
Mof_H 	H 	-1.73877e-33	0.481	0.297	0.043
Mof_P 	P 	0.5	0.6385	0.0591	0.425
Mof_O 	O 	0.5	0.4812	0.0829	-0.469
Mof_C 	C 	0.5	0.7559	0.1341	-0.066
Mof_C 	C 	0.5	0.9356	0.2524	-0.016
Mof_H 	H 	0.5	0.981	0.297	0.044
Mof_P 	P 	-1.25248e-32	0.8615	0.9409	0.429
Mof_O 	O 	-7.62891e-33	0.0188	0.9171	-0.468
Mof_C 	C 	-2.80122e-33	0.7441	0.8659	-0.062
Mof_C 	C 	-3.09548e-33	0.5644	0.7476	-0.01
Mof_H 	H 	-3.20642e-33	0.519	0.703	0.043
Mof_P 	P 	0.5	0.3615	0.9409	0.425
Mof_O 	O 	0.5	0.5188	0.9171	-0.469
Mof_C 	C 	0.5	0.2441	0.8659	-0.066
Mof_C 	C 	0.5	0.0644	0.7476	-0.016
Mof_H 	H 	0.5	0.019	0.703	0.044
Mof_P 	P 	-3.85836e-33	0.6385	0.4409	0.428
Mof_O 	O 	1.03748e-33	0.4812	0.4171	-0.468
Mof_C 	C 	9.10131e-34	0.7559	0.3659	-0.062
Mof_C 	C 	3.0934e-33	0.9356	0.2476	-0.01
Mof_H 	H 	-1.97258e-33	0.981	0.203	0.043
Mof_P 	P 	0.5	0.1385	0.4409	0.426
Mof_O 	O 	0.5	0.9812	0.4171	-0.469
Mof_C 	C 	0.5	0.2559	0.3659	-0.066
Mof_C 	C 	0.5	0.4356	0.2476	-0.016
Mof_H 	H 	0.5	0.481	0.203	0.044
_end
