data_functionalizedCrystal
_audit_creation_method	'EQeq! by Chris Wilmer'
_symmetry_space_group_name_H-M	'P1'
_symmetry_Int_Tables_number	1
_symmetry_cell_setting	triclinic
loop_
_symmetry_equiv_pos_as_xyz
  x,y,z
_cell_length_a	9.753
_cell_length_b	12.751
_cell_length_c	14.174
_cell_angle_alpha	90
_cell_angle_beta	109.41
_cell_angle_gamma	90
loop_
_atom_site_label
_atom_site_type_symbol
_atom_site_fract_x
_atom_site_fract_y
_atom_site_fract_z
_atom_site_charge
Mof_Mn	Mn	0.55674	0.72422	0.14858	0.931
Mof_O 	O 	0.6716	0.5852	0.1173	-0.432
Mof_O 	O 	0.8034	0.7282	0.148	-0.312
Mof_O 	O 	0.3508	0.6921	0.1852	-0.432
Mof_O 	O 	0.3768	0.5675	0.0861	-0.433
Mof_O 	O 	0.1311	0.2333	0.1201	-0.353
Mof_O 	O 	0.903	0.2395	0.1145	-0.266
Mof_C 	C 	0.9196	0.5679	0.129	-0.149
Mof_C 	C 	0.0502	0.6169	0.1358	0.084
Mof_C 	C 	0.1688	0.5573	0.135	-0.168
Mof_C 	C 	0.1578	0.4485	0.1289	0.084
Mof_C 	C 	0.03	0.3995	0.1254	-0.139
Mof_C 	C 	0.9094	0.4603	0.1249	0.07
Mof_C 	C 	0.7927	0.6314	0.1307	0.345
Mof_C 	C 	0.3072	0.6081	0.1356	0.405
Mof_C 	C 	0.0143	0.2841	0.1192	0.36
Mof_O 	O 	0.451	0.8824	0.3112	-0.366
Mof_O 	O 	0.5134	0.2194	0.0007	-0.4
Mof_O 	O 	0.5294	0.3667	0.0888	-0.405
Mof_C 	C 	0.5123	0.0992	0.168	0.089
Mof_C 	C 	0.5111	0.2084	0.168	-0.143
Mof_C 	C 	0.5197	0.2697	0.0795	0.411
Mof_H 	H 	0.1279	0.155	0.1234	0.184
Mof_H 	H 	0.0584	0.695	0.1413	0.031
Mof_H 	H 	0.2428	0.4057	0.1271	0.026
Mof_H 	H 	0.8162	0.4253	0.1217	0.029
Mof_H 	H 	0.5218	0.0599	0.1094	0.035
Mof_Mn	Mn	0.44326	0.72422	0.35142	0.965
Mof_O 	O 	0.3284	0.5852	0.3827	-0.434
Mof_O 	O 	0.1966	0.7282	0.352	-0.303
Mof_O 	O 	0.6492	0.6921	0.3148	-0.427
Mof_O 	O 	0.6232	0.5675	0.4139	-0.427
Mof_O 	O 	0.8689	0.2333	0.3799	-0.344
Mof_O 	O 	0.097	0.2395	0.3855	-0.25
Mof_C 	C 	0.0804	0.5679	0.371	-0.136
Mof_C 	C 	0.9498	0.6169	0.3642	0.082
Mof_C 	C 	0.8312	0.5573	0.365	-0.158
Mof_C 	C 	0.8422	0.4485	0.3711	0.088
Mof_C 	C 	0.97	0.3995	0.3746	-0.134
Mof_C 	C 	0.0906	0.4603	0.3751	0.08
Mof_C 	C 	0.2073	0.6314	0.3693	0.352
Mof_C 	C 	0.6928	0.6081	0.3644	0.41
Mof_C 	C 	0.9857	0.2841	0.3808	0.358
Mof_O 	O 	0.549	0.8824	0.1888	-0.373
Mof_O 	O 	0.4866	0.2194	0.4993	-0.364
Mof_O 	O 	0.4706	0.3667	0.4112	-0.403
Mof_C 	C 	0.4877	0.0992	0.332	0.089
Mof_C 	C 	0.4889	0.2084	0.332	-0.138
Mof_C 	C 	0.4803	0.2697	0.4205	0.412
Mof_H 	H 	0.8721	0.155	0.3766	0.189
Mof_H 	H 	0.9416	0.695	0.3587	0.038
Mof_H 	H 	0.7572	0.4057	0.3729	0.03
Mof_H 	H 	0.1838	0.4253	0.3783	0.031
Mof_H 	H 	0.4782	0.0599	0.3906	0.046
Mof_Mn	Mn	0.44326	0.27578	0.85142	1.002
Mof_O 	O 	0.3284	0.4148	0.8827	-0.41
Mof_O 	O 	0.1966	0.2718	0.852	-0.289
Mof_O 	O 	0.6492	0.3079	0.8148	-0.424
Mof_O 	O 	0.6232	0.4325	0.9139	-0.393
Mof_O 	O 	0.8689	0.7667	0.8799	-0.336
Mof_O 	O 	0.097	0.7605	0.8855	-0.235
Mof_C 	C 	0.0804	0.4321	0.871	-0.119
Mof_C 	C 	0.9498	0.3831	0.8642	0.077
Mof_C 	C 	0.8312	0.4427	0.865	-0.143
Mof_C 	C 	0.8422	0.5515	0.8711	0.087
Mof_C 	C 	0.97	0.6005	0.8746	-0.123
Mof_C 	C 	0.0906	0.5397	0.8751	0.08
Mof_C 	C 	0.2073	0.3686	0.8693	0.349
Mof_C 	C 	0.6928	0.3919	0.8644	0.404
Mof_C 	C 	0.9857	0.7159	0.8808	0.358
Mof_O 	O 	0.549	0.1176	0.6888	-0.363
Mof_O 	O 	0.4866	0.7806	0.9993	-0.322
Mof_O 	O 	0.4706	0.6333	0.9112	-0.369
Mof_C 	C 	0.4877	0.9008	0.832	0.085
Mof_C 	C 	0.4889	0.7916	0.832	-0.126
Mof_C 	C 	0.4803	0.7303	0.9205	0.4
Mof_H 	H 	0.8721	0.845	0.8766	0.196
Mof_H 	H 	0.9416	0.305	0.8587	0.048
Mof_H 	H 	0.7572	0.5943	0.8729	0.038
Mof_H 	H 	0.1838	0.5747	0.8783	0.04
Mof_H 	H 	0.4782	0.9401	0.8906	0.057
Mof_Mn	Mn	0.55674	0.27578	0.64858	0.966
Mof_O 	O 	0.6716	0.4148	0.6173	-0.435
Mof_O 	O 	0.8034	0.2718	0.648	-0.302
Mof_O 	O 	0.3508	0.3079	0.6852	-0.434
Mof_O 	O 	0.3768	0.4325	0.5861	-0.428
Mof_O 	O 	0.1311	0.7667	0.6201	-0.346
Mof_O 	O 	0.903	0.7605	0.6145	-0.257
Mof_C 	C 	0.9196	0.4321	0.629	-0.144
Mof_C 	C 	0.0502	0.3831	0.6358	0.091
Mof_C 	C 	0.1688	0.4427	0.635	-0.163
Mof_C 	C 	0.1578	0.5515	0.6289	0.089
Mof_C 	C 	0.03	0.6005	0.6254	-0.131
Mof_C 	C 	0.9094	0.5397	0.6249	0.074
Mof_C 	C 	0.7927	0.3686	0.6307	0.352
Mof_C 	C 	0.3072	0.3919	0.6356	0.413
Mof_C 	C 	0.0143	0.7159	0.6192	0.366
Mof_O 	O 	0.451	0.1176	0.8112	-0.357
Mof_O 	O 	0.5134	0.7806	0.5007	-0.364
Mof_O 	O 	0.5294	0.6333	0.5888	-0.403
Mof_C 	C 	0.5123	0.9008	0.668	0.086
Mof_C 	C 	0.5111	0.7916	0.668	-0.135
Mof_C 	C 	0.5197	0.7303	0.5795	0.411
Mof_H 	H 	0.1279	0.845	0.6234	0.192
Mof_H 	H 	0.0584	0.305	0.6413	0.038
Mof_H 	H 	0.2428	0.5943	0.6271	0.03
Mof_H 	H 	0.8162	0.5747	0.6217	0.032
Mof_H 	H 	0.5218	0.9401	0.6094	0.045
Mof_Mn	Mn	0.5	0.5	-0	0.955
Mof_Mn	Mn	0.5	0.5	0.5	1.046
Mof_C 	C 	0.5	0.0451	0.25	-0.137
Mof_C 	C 	0.5	0.2617	0.25	0.099
Mof_C 	C 	0.5	0.9278	0.25	0.392
Mof_H 	H 	0.5	0.3402	0.25	0.032
Mof_C 	C 	0.5	0.9549	0.75	-0.133
Mof_C 	C 	0.5	0.7383	0.75	0.093
Mof_C 	C 	0.5	0.0722	0.75	0.399
Mof_H 	H 	0.5	0.6598	0.75	0.034
_end
