data_functionalizedCrystal
_audit_creation_method	'EQeq! by Chris Wilmer'
_symmetry_space_group_name_H-M	'P1'
_symmetry_Int_Tables_number	1
_symmetry_cell_setting	triclinic
loop_
_symmetry_equiv_pos_as_xyz
  x,y,z
_cell_length_a	27.165
_cell_length_b	13.745
_cell_length_c	46.162
_cell_angle_alpha	90
_cell_angle_beta	90
_cell_angle_gamma	90
loop_
_atom_site_label
_atom_site_type_symbol
_atom_site_fract_x
_atom_site_fract_y
_atom_site_fract_z
_atom_site_charge
Mof_Zn	Zn	0.75044	0.14559	0.19256	1.164
Mof_Zn	Zn	0.46429	0.84555	0.4043	1.163
Mof_Zn	Zn	0.95086	0.85653	0.43566	1.163
Mof_I 	I 	0.69729	0.29735	0.20088	-0.365
Mof_I 	I 	0.84194	0.16188	0.18123	-0.374
Mof_I 	I 	0.47429	0.75766	0.45262	-0.378
Mof_I 	I 	0.41986	0.77142	0.36105	-0.361
Mof_I 	I 	0.01784	0.94634	0.40815	-0.367
Mof_I 	I 	0.95903	0.6795	0.45157	-0.37
Mof_C 	C 	0.6985	0.0568	0.24182	0.063
Mof_H 	H 	0.6708	0.0796	0.2313	-0.009
Mof_C 	C 	0.6912	0.0195	0.26916	-0.114
Mof_H 	H 	0.6591	0.0153	0.2771	0.081
Mof_C 	C 	0.7318	0.9879	0.28489	0.05
Mof_C 	C 	0.7779	0.9913	0.27175	-0.111
Mof_H 	H 	0.8062	0.9682	0.2817	0.082
Mof_C 	C 	0.7818	0.0285	0.24424	0.067
Mof_H 	H 	0.8133	0.0302	0.2353	0.002
Mof_C 	C 	0.5725	0.8853	0.4057	0.062
Mof_H 	H 	0.5676	0.8778	0.426	-0.006
Mof_C 	C 	0.6199	0.8978	0.39561	-0.112
Mof_H 	H 	0.647	0.8984	0.4086	0.078
Mof_C 	C 	0.6271	0.9093	0.36605	0.05
Mof_C 	C 	0.5865	0.9105	0.34776	-0.112
Mof_H 	H 	0.5903	0.9213	0.3276	0.08
Mof_C 	C 	0.5403	0.8957	0.35968	0.061
Mof_H 	H 	0.5126	0.8942	0.3471	-0.004
Mof_C 	C 	0.8914	0.8987	0.38258	0.062
Mof_H 	H 	0.9232	0.905	0.3743	-0.009
Mof_C 	C 	0.8508	0.913	0.36509	-0.116
Mof_H 	H 	0.8548	0.9284	0.3452	0.08
Mof_C 	C 	0.804	0.9046	0.37702	0.052
Mof_C 	C 	0.8	0.8815	0.40594	-0.118
Mof_H 	H 	0.7685	0.8757	0.4147	0.078
Mof_C 	C 	0.8422	0.8668	0.42208	0.065
Mof_H 	H 	0.8391	0.8495	0.4419	-0.015
Mof_C 	C 	0.7261	0.9563	0.31553	0.103
Mof_C 	C 	0.6776	0.9226	0.35386	0.104
Mof_C 	C 	0.7598	0.9191	0.35861	0.101
Mof_C 	C 	0.6013	0.1054	0.99129	0.064
Mof_H 	H 	0.6121	0.1703	0.9882	-0.009
Mof_C 	C 	0.6195	0.0548	0.01496	-0.108
Mof_H 	H 	0.6425	0.0842	0.0277	0.077
Mof_C 	C 	0.6033	0.9596	0.01964	0.046
Mof_C 	C 	0.5695	0.9196	0.00059	-0.115
Mof_H 	H 	0.5578	0.8552	0.0034	0.077
Mof_C 	C 	0.5531	0.9748	0.97726	0.056
Mof_H 	H 	0.5299	0.9472	0.9642	0.001
Mof_C 	C 	0.7131	0.97	0.16159	0.062
Mof_H 	H 	0.7265	0.9372	0.1779	-0.012
Mof_C 	C 	0.6924	0.9152	0.13939	-0.11
Mof_H 	H 	0.6917	0.8462	0.1405	0.071
Mof_C 	C 	0.6727	0.963	0.11558	0.051
Mof_C 	C 	0.6734	0.0644	0.11515	-0.106
Mof_H 	H 	0.6596	0.0991	0.0993	0.077
Mof_C 	C 	0.6947	0.1138	0.13818	0.063
Mof_H 	H 	0.695	0.1829	0.1379	-0.008
Mof_C 	C 	0.5761	0.5121	0.06066	0.068
Mof_H 	H 	0.5716	0.4686	0.0449	-0.004
Mof_C 	C 	0.593	0.6063	0.05496	-0.113
Mof_H 	H 	0.5988	0.6273	0.0356	0.082
Mof_C 	C 	0.6011	0.6686	0.07827	0.052
Mof_C 	C 	0.5916	0.6352	0.10601	-0.125
Mof_H 	H 	0.5972	0.676	0.1223	0.095
Mof_C 	C 	0.5742	0.5426	0.10965	0.07
Mof_H 	H 	0.5674	0.5205	0.1287	-0.01
Mof_C 	C 	0.6201	0.9054	0.0458	0.101
Mof_C 	C 	0.6502	0.9078	0.09118	0.11
Mof_C 	C 	0.6173	0.7703	0.07351	0.097
Mof_N 	N 	0.7431	0.0624	0.22945	-0.271
Mof_N 	N 	0.5329	0.8833	0.3882	-0.269
Mof_N 	N 	0.88773	0.8762	0.41066	-0.27
Mof_N 	N 	0.6804	0.947	0.32578	-0.14
Mof_N 	N 	0.7157	0.9079	0.37133	-0.14
Mof_N 	N 	0.76726	0.9423	0.33087	-0.139
Mof_N 	N 	0.56905	0.0663	0.97261	-0.266
Mof_N 	N 	0.7148	0.0675	0.16079	-0.271
Mof_N 	N 	0.5662	0.4812	0.08736	-0.271
Mof_N 	N 	0.6429	0.9569	0.06646	-0.136
Mof_N 	N 	0.6382	0.8156	0.09597	-0.136
Mof_N 	N 	0.6081	0.8107	0.04746	-0.141
Mof_Zn	Zn	0.74956	0.85441	0.69256	1.163
Mof_Zn	Zn	0.03571	0.15445	0.9043	1.162
Mof_Zn	Zn	0.54914	0.14347	0.93566	1.162
Mof_I 	I 	0.80271	0.70265	0.70088	-0.366
Mof_I 	I 	0.65806	0.83812	0.68123	-0.375
Mof_I 	I 	0.02571	0.24234	0.95262	-0.38
Mof_I 	I 	0.08014	0.22858	0.86105	-0.362
Mof_I 	I 	0.48216	0.05366	0.90815	-0.368
Mof_I 	I 	0.54097	0.3205	0.95157	-0.371
Mof_C 	C 	0.8015	0.9432	0.74182	0.062
Mof_H 	H 	0.8292	0.9204	0.7313	-0.01
Mof_C 	C 	0.8088	0.9805	0.76916	-0.116
Mof_H 	H 	0.8409	0.9847	0.7771	0.08
Mof_C 	C 	0.7682	0.0121	0.78489	0.05
Mof_C 	C 	0.7221	0.0087	0.77175	-0.112
Mof_H 	H 	0.6938	0.0318	0.7817	0.081
Mof_C 	C 	0.7182	0.9715	0.74424	0.065
Mof_H 	H 	0.6867	0.9698	0.7353	0.001
Mof_C 	C 	0.9275	0.1147	0.9057	0.061
Mof_H 	H 	0.9324	0.1222	0.926	-0.007
Mof_C 	C 	0.8801	0.1022	0.89561	-0.113
Mof_H 	H 	0.853	0.1016	0.9086	0.078
Mof_C 	C 	0.8729	0.0907	0.86605	0.049
Mof_C 	C 	0.9135	0.0895	0.84776	-0.113
Mof_H 	H 	0.9097	0.0787	0.8276	0.08
Mof_C 	C 	0.9597	0.1043	0.85968	0.061
Mof_H 	H 	0.9874	0.1058	0.8471	-0.004
Mof_C 	C 	0.6086	0.1013	0.88258	0.062
Mof_H 	H 	0.5768	0.095	0.8743	-0.009
Mof_C 	C 	0.6492	0.087	0.86509	-0.116
Mof_H 	H 	0.6452	0.0716	0.8452	0.08
Mof_C 	C 	0.696	0.0954	0.87702	0.052
Mof_C 	C 	0.7	0.1185	0.90594	-0.118
Mof_H 	H 	0.7315	0.1243	0.9147	0.078
Mof_C 	C 	0.6578	0.1332	0.92208	0.065
Mof_H 	H 	0.6609	0.1505	0.9419	-0.015
Mof_C 	C 	0.7739	0.0437	0.81553	0.103
Mof_C 	C 	0.8224	0.0774	0.85386	0.104
Mof_C 	C 	0.7402	0.0809	0.85861	0.101
Mof_C 	C 	0.8987	0.8946	0.49129	0.064
Mof_H 	H 	0.8879	0.8297	0.4882	-0.009
Mof_C 	C 	0.8805	0.9452	0.51496	-0.109
Mof_H 	H 	0.8575	0.9158	0.5277	0.077
Mof_C 	C 	0.8967	0.0404	0.51964	0.047
Mof_C 	C 	0.9305	0.0804	0.50059	-0.115
Mof_H 	H 	0.9422	0.1448	0.5034	0.077
Mof_C 	C 	0.9469	0.0252	0.47726	0.057
Mof_H 	H 	0.9701	0.0528	0.4642	0.001
Mof_C 	C 	0.7869	0.03	0.66159	0.063
Mof_H 	H 	0.7735	0.0628	0.6779	-0.012
Mof_C 	C 	0.8076	0.0848	0.63939	-0.111
Mof_H 	H 	0.8083	0.1538	0.6405	0.072
Mof_C 	C 	0.8273	0.037	0.61558	0.053
Mof_C 	C 	0.8266	0.9356	0.61515	-0.107
Mof_H 	H 	0.8404	0.9009	0.5993	0.078
Mof_C 	C 	0.8053	0.8862	0.63818	0.064
Mof_H 	H 	0.805	0.8171	0.6379	-0.008
Mof_C 	C 	0.9239	0.4879	0.56066	0.068
Mof_H 	H 	0.9284	0.5314	0.5449	-0.004
Mof_C 	C 	0.907	0.3937	0.55496	-0.113
Mof_H 	H 	0.9012	0.3727	0.5356	0.082
Mof_C 	C 	0.8989	0.3314	0.57827	0.052
Mof_C 	C 	0.9084	0.3648	0.60601	-0.125
Mof_H 	H 	0.9028	0.324	0.6223	0.095
Mof_C 	C 	0.9258	0.4574	0.60965	0.07
Mof_H 	H 	0.9326	0.4795	0.6287	-0.01
Mof_C 	C 	0.8799	0.0946	0.5458	0.101
Mof_C 	C 	0.8498	0.0922	0.59118	0.11
Mof_C 	C 	0.8827	0.2297	0.57351	0.097
Mof_N 	N 	0.7569	0.9376	0.72945	-0.271
Mof_N 	N 	0.9671	0.1167	0.8882	-0.269
Mof_N 	N 	0.61227	0.1238	0.91066	-0.27
Mof_N 	N 	0.8196	0.053	0.82578	-0.14
Mof_N 	N 	0.7843	0.0921	0.87133	-0.14
Mof_N 	N 	0.73274	0.0577	0.83087	-0.139
Mof_N 	N 	0.93095	0.9337	0.47261	-0.267
Mof_N 	N 	0.7852	0.9325	0.66079	-0.271
Mof_N 	N 	0.9338	0.5188	0.58736	-0.271
Mof_N 	N 	0.8571	0.0431	0.56646	-0.136
Mof_N 	N 	0.8618	0.1844	0.59597	-0.136
Mof_N 	N 	0.8919	0.1893	0.54746	-0.141
Mof_Zn	Zn	0.24956	0.64559	0.30744	1.163
Mof_Zn	Zn	0.53571	0.34555	0.0957	1.162
Mof_Zn	Zn	0.04914	0.35653	0.06434	1.162
Mof_I 	I 	0.30271	0.79735	0.29912	-0.366
Mof_I 	I 	0.15806	0.66188	0.31877	-0.375
Mof_I 	I 	0.52571	0.25766	0.04738	-0.38
Mof_I 	I 	0.58014	0.27142	0.13895	-0.362
Mof_I 	I 	0.98216	0.44634	0.09185	-0.368
Mof_I 	I 	0.04097	0.1795	0.04843	-0.371
Mof_C 	C 	0.3015	0.5568	0.25818	0.062
Mof_H 	H 	0.3292	0.5796	0.2687	-0.01
Mof_C 	C 	0.3088	0.5195	0.23084	-0.114
Mof_H 	H 	0.3409	0.5153	0.2229	0.08
Mof_C 	C 	0.2682	0.4879	0.21511	0.049
Mof_C 	C 	0.2221	0.4913	0.22825	-0.113
Mof_H 	H 	0.1938	0.4682	0.2183	0.081
Mof_C 	C 	0.2182	0.5285	0.25576	0.066
Mof_H 	H 	0.1867	0.5302	0.2647	0.001
Mof_C 	C 	0.4275	0.3853	0.0943	0.061
Mof_H 	H 	0.4324	0.3778	0.074	-0.007
Mof_C 	C 	0.3801	0.3978	0.10439	-0.113
Mof_H 	H 	0.353	0.3984	0.0914	0.077
Mof_C 	C 	0.3729	0.4093	0.13395	0.048
Mof_C 	C 	0.4135	0.4105	0.15224	-0.113
Mof_H 	H 	0.4097	0.4213	0.1724	0.08
Mof_C 	C 	0.4597	0.3957	0.14032	0.061
Mof_H 	H 	0.4874	0.3942	0.1529	-0.004
Mof_C 	C 	0.1086	0.3987	0.11742	0.062
Mof_H 	H 	0.0768	0.405	0.1257	-0.009
Mof_C 	C 	0.1492	0.413	0.13491	-0.116
Mof_H 	H 	0.1452	0.4284	0.1548	0.08
Mof_C 	C 	0.196	0.4046	0.12298	0.052
Mof_C 	C 	0.2	0.3815	0.09406	-0.118
Mof_H 	H 	0.2315	0.3757	0.0853	0.078
Mof_C 	C 	0.1578	0.3668	0.07792	0.065
Mof_H 	H 	0.1609	0.3495	0.0581	-0.015
Mof_C 	C 	0.2739	0.4563	0.18447	0.103
Mof_C 	C 	0.3224	0.4226	0.14614	0.104
Mof_C 	C 	0.2402	0.4191	0.14139	0.101
Mof_C 	C 	0.3987	0.6054	0.50871	0.064
Mof_H 	H 	0.3879	0.6703	0.5118	-0.009
Mof_C 	C 	0.3805	0.5548	0.48504	-0.108
Mof_H 	H 	0.3575	0.5842	0.4723	0.077
Mof_C 	C 	0.3967	0.4596	0.48036	0.047
Mof_C 	C 	0.4305	0.4196	0.49941	-0.115
Mof_H 	H 	0.4422	0.3552	0.4966	0.077
Mof_C 	C 	0.4469	0.4748	0.52274	0.057
Mof_H 	H 	0.4701	0.4472	0.5358	0.001
Mof_C 	C 	0.2869	0.47	0.33841	0.062
Mof_H 	H 	0.2735	0.4372	0.3221	-0.012
Mof_C 	C 	0.3076	0.4152	0.36061	-0.11
Mof_H 	H 	0.3083	0.3462	0.3595	0.071
Mof_C 	C 	0.3273	0.463	0.38442	0.051
Mof_C 	C 	0.3266	0.5644	0.38485	-0.105
Mof_H 	H 	0.3404	0.5991	0.4007	0.077
Mof_C 	C 	0.3053	0.6138	0.36182	0.063
Mof_H 	H 	0.305	0.6829	0.3621	-0.008
Mof_C 	C 	0.4239	0.0121	0.43934	0.067
Mof_H 	H 	0.4284	0.9686	0.4551	-0.003
Mof_C 	C 	0.407	0.1063	0.44504	-0.112
Mof_H 	H 	0.4012	0.1273	0.4644	0.081
Mof_C 	C 	0.3989	0.1686	0.42173	0.052
Mof_C 	C 	0.4084	0.1352	0.39399	-0.124
Mof_H 	H 	0.4028	0.176	0.3777	0.094
Mof_C 	C 	0.4258	0.0426	0.39035	0.069
Mof_H 	H 	0.4326	0.0205	0.3713	-0.01
Mof_C 	C 	0.3799	0.4054	0.4542	0.101
Mof_C 	C 	0.3498	0.4078	0.40882	0.11
Mof_C 	C 	0.3827	0.2703	0.42649	0.097
Mof_N 	N 	0.2569	0.5624	0.27055	-0.271
Mof_N 	N 	0.4671	0.3833	0.1118	-0.269
Mof_N 	N 	0.11227	0.3762	0.08934	-0.27
Mof_N 	N 	0.3196	0.447	0.17422	-0.14
Mof_N 	N 	0.2843	0.4079	0.12867	-0.14
Mof_N 	N 	0.23274	0.4423	0.16913	-0.139
Mof_N 	N 	0.43095	0.5663	0.52739	-0.266
Mof_N 	N 	0.2852	0.5675	0.33921	-0.27
Mof_N 	N 	0.4338	0.9812	0.41264	-0.271
Mof_N 	N 	0.3571	0.4569	0.43354	-0.136
Mof_N 	N 	0.3618	0.3156	0.40403	-0.136
Mof_N 	N 	0.3919	0.3107	0.45254	-0.141
Mof_Zn	Zn	0.25044	0.35441	0.80744	1.163
Mof_Zn	Zn	0.96429	0.65445	0.5957	1.162
Mof_Zn	Zn	0.45086	0.64347	0.56434	1.162
Mof_I 	I 	0.19729	0.20265	0.79912	-0.366
Mof_I 	I 	0.34194	0.33812	0.81877	-0.375
Mof_I 	I 	0.97429	0.74234	0.54738	-0.38
Mof_I 	I 	0.91986	0.72858	0.63895	-0.363
Mof_I 	I 	0.51784	0.55366	0.59185	-0.369
Mof_I 	I 	0.45903	0.8205	0.54843	-0.371
Mof_C 	C 	0.1985	0.4432	0.75818	0.062
Mof_H 	H 	0.1708	0.4204	0.7687	-0.01
Mof_C 	C 	0.1912	0.4805	0.73084	-0.114
Mof_H 	H 	0.1591	0.4847	0.7229	0.08
Mof_C 	C 	0.2318	0.5121	0.71511	0.049
Mof_C 	C 	0.2779	0.5087	0.72825	-0.113
Mof_H 	H 	0.3062	0.5318	0.7183	0.081
Mof_C 	C 	0.2818	0.4715	0.75576	0.066
Mof_H 	H 	0.3133	0.4698	0.7647	0.001
Mof_C 	C 	0.0725	0.6147	0.5943	0.061
Mof_H 	H 	0.0676	0.6222	0.574	-0.007
Mof_C 	C 	0.1199	0.6022	0.60439	-0.113
Mof_H 	H 	0.147	0.6016	0.5914	0.077
Mof_C 	C 	0.1271	0.5907	0.63395	0.048
Mof_C 	C 	0.0865	0.5895	0.65224	-0.113
Mof_H 	H 	0.0903	0.5787	0.6724	0.08
Mof_C 	C 	0.0403	0.6043	0.64032	0.061
Mof_H 	H 	0.0126	0.6058	0.6529	-0.004
Mof_C 	C 	0.3914	0.6013	0.61742	0.062
Mof_H 	H 	0.4232	0.595	0.6257	-0.009
Mof_C 	C 	0.3508	0.587	0.63491	-0.116
Mof_H 	H 	0.3548	0.5716	0.6548	0.08
Mof_C 	C 	0.304	0.5954	0.62298	0.052
Mof_C 	C 	0.3	0.6185	0.59406	-0.118
Mof_H 	H 	0.2685	0.6243	0.5853	0.078
Mof_C 	C 	0.3422	0.6332	0.57792	0.065
Mof_H 	H 	0.3391	0.6505	0.5581	-0.015
Mof_C 	C 	0.2261	0.5437	0.68447	0.103
Mof_C 	C 	0.1776	0.5774	0.64614	0.104
Mof_C 	C 	0.2598	0.5809	0.64139	0.101
Mof_C 	C 	0.1013	0.3946	0.00871	0.064
Mof_H 	H 	0.1121	0.3297	0.0118	-0.009
Mof_C 	C 	0.1195	0.4452	0.98504	-0.108
Mof_H 	H 	0.1425	0.4158	0.9723	0.077
Mof_C 	C 	0.1033	0.5404	0.98036	0.047
Mof_C 	C 	0.0695	0.5804	0.99941	-0.115
Mof_H 	H 	0.0578	0.6448	0.9966	0.077
Mof_C 	C 	0.0531	0.5252	0.02274	0.057
Mof_H 	H 	0.0299	0.5528	0.0358	0.001
Mof_C 	C 	0.2131	0.53	0.83841	0.062
Mof_H 	H 	0.2265	0.5628	0.8221	-0.012
Mof_C 	C 	0.1924	0.5848	0.86061	-0.11
Mof_H 	H 	0.1917	0.6538	0.8595	0.071
Mof_C 	C 	0.1727	0.537	0.88442	0.051
Mof_C 	C 	0.1734	0.4356	0.88485	-0.105
Mof_H 	H 	0.1596	0.4009	0.9007	0.077
Mof_C 	C 	0.1947	0.3862	0.86182	0.063
Mof_H 	H 	0.195	0.3171	0.8621	-0.008
Mof_C 	C 	0.0761	0.9879	0.93934	0.069
Mof_H 	H 	0.0716	0.0314	0.9551	-0.004
Mof_C 	C 	0.093	0.8937	0.94504	-0.113
Mof_H 	H 	0.0988	0.8727	0.9644	0.082
Mof_C 	C 	0.1011	0.8314	0.92173	0.052
Mof_C 	C 	0.0916	0.8648	0.89399	-0.125
Mof_H 	H 	0.0972	0.824	0.8777	0.095
Mof_C 	C 	0.0742	0.9574	0.89035	0.07
Mof_H 	H 	0.0674	0.9795	0.8713	-0.01
Mof_C 	C 	0.1201	0.5946	0.9542	0.101
Mof_C 	C 	0.1502	0.5922	0.90882	0.11
Mof_C 	C 	0.1173	0.7297	0.92649	0.097
Mof_N 	N 	0.2431	0.4376	0.77055	-0.271
Mof_N 	N 	0.0329	0.6167	0.6118	-0.269
Mof_N 	N 	0.38773	0.6238	0.58934	-0.27
Mof_N 	N 	0.1804	0.553	0.67422	-0.14
Mof_N 	N 	0.2157	0.5921	0.62867	-0.14
Mof_N 	N 	0.26726	0.5577	0.66913	-0.139
Mof_N 	N 	0.06905	0.4337	0.02739	-0.266
Mof_N 	N 	0.2148	0.4325	0.83921	-0.27
Mof_N 	N 	0.0662	0.0188	0.91264	-0.272
Mof_N 	N 	0.1429	0.5431	0.93354	-0.136
Mof_N 	N 	0.1382	0.6844	0.90403	-0.136
Mof_N 	N 	0.1081	0.6893	0.95254	-0.141
Mof_Zn	Zn	0.24956	0.85441	0.80744	1.163
Mof_Zn	Zn	0.53571	0.15445	0.5957	1.162
Mof_Zn	Zn	0.04914	0.14347	0.56434	1.162
Mof_I 	I 	0.30271	0.70265	0.79912	-0.366
Mof_I 	I 	0.15806	0.83812	0.81877	-0.375
Mof_I 	I 	0.52571	0.24234	0.54738	-0.379
Mof_I 	I 	0.58014	0.22858	0.63895	-0.362
Mof_I 	I 	0.98216	0.05366	0.59185	-0.368
Mof_I 	I 	0.04097	0.3205	0.54843	-0.371
Mof_C 	C 	0.3015	0.9432	0.75818	0.062
Mof_H 	H 	0.3292	0.9204	0.7687	-0.01
Mof_C 	C 	0.3088	0.9805	0.73084	-0.115
Mof_H 	H 	0.3409	0.9847	0.7229	0.08
Mof_C 	C 	0.2682	0.0121	0.71511	0.049
Mof_C 	C 	0.2221	0.0087	0.72825	-0.112
Mof_H 	H 	0.1938	0.0318	0.7183	0.081
Mof_C 	C 	0.2182	0.9715	0.75576	0.066
Mof_H 	H 	0.1867	0.9698	0.7647	0.001
Mof_C 	C 	0.4275	0.1147	0.5943	0.061
Mof_H 	H 	0.4324	0.1222	0.574	-0.007
Mof_C 	C 	0.3801	0.1022	0.60439	-0.113
Mof_H 	H 	0.353	0.1016	0.5914	0.077
Mof_C 	C 	0.3729	0.0907	0.63395	0.049
Mof_C 	C 	0.4135	0.0895	0.65224	-0.113
Mof_H 	H 	0.4097	0.0787	0.6724	0.08
Mof_C 	C 	0.4597	0.1043	0.64032	0.061
Mof_H 	H 	0.4874	0.1058	0.6529	-0.004
Mof_C 	C 	0.1086	0.1013	0.61742	0.062
Mof_H 	H 	0.0768	0.095	0.6257	-0.009
Mof_C 	C 	0.1492	0.087	0.63491	-0.116
Mof_H 	H 	0.1452	0.0716	0.6548	0.08
Mof_C 	C 	0.196	0.0954	0.62298	0.052
Mof_C 	C 	0.2	0.1185	0.59406	-0.118
Mof_H 	H 	0.2315	0.1243	0.5853	0.078
Mof_C 	C 	0.1578	0.1332	0.57792	0.065
Mof_H 	H 	0.1609	0.1505	0.5581	-0.015
Mof_C 	C 	0.2739	0.0437	0.68447	0.103
Mof_C 	C 	0.3224	0.0774	0.64614	0.104
Mof_C 	C 	0.2402	0.0809	0.64139	0.101
Mof_C 	C 	0.3987	0.8946	0.00871	0.064
Mof_H 	H 	0.3879	0.8297	0.0118	-0.009
Mof_C 	C 	0.3805	0.9452	0.98504	-0.108
Mof_H 	H 	0.3575	0.9158	0.9723	0.077
Mof_C 	C 	0.3967	0.0404	0.98036	0.046
Mof_C 	C 	0.4305	0.0804	0.99941	-0.115
Mof_H 	H 	0.4422	0.1448	0.9966	0.077
Mof_C 	C 	0.4469	0.0252	0.02274	0.056
Mof_H 	H 	0.4701	0.0528	0.0358	0.001
Mof_C 	C 	0.2869	0.03	0.83841	0.062
Mof_H 	H 	0.2735	0.0628	0.8221	-0.012
Mof_C 	C 	0.3076	0.0848	0.86061	-0.11
Mof_H 	H 	0.3083	0.1538	0.8595	0.071
Mof_C 	C 	0.3273	0.037	0.88442	0.051
Mof_C 	C 	0.3266	0.9356	0.88485	-0.106
Mof_H 	H 	0.3404	0.9009	0.9007	0.077
Mof_C 	C 	0.3053	0.8862	0.86182	0.063
Mof_H 	H 	0.305	0.8171	0.8621	-0.008
Mof_C 	C 	0.4239	0.4879	0.93934	0.068
Mof_H 	H 	0.4284	0.5314	0.9551	-0.004
Mof_C 	C 	0.407	0.3937	0.94504	-0.113
Mof_H 	H 	0.4012	0.3727	0.9644	0.082
Mof_C 	C 	0.3989	0.3314	0.92173	0.052
Mof_C 	C 	0.4084	0.3648	0.89399	-0.125
Mof_H 	H 	0.4028	0.324	0.8777	0.095
Mof_C 	C 	0.4258	0.4574	0.89035	0.07
Mof_H 	H 	0.4326	0.4795	0.8713	-0.01
Mof_C 	C 	0.3799	0.0946	0.9542	0.101
Mof_C 	C 	0.3498	0.0922	0.90882	0.11
Mof_C 	C 	0.3827	0.2297	0.92649	0.097
Mof_N 	N 	0.2569	0.9376	0.77055	-0.271
Mof_N 	N 	0.4671	0.1167	0.6118	-0.269
Mof_N 	N 	0.11227	0.1238	0.58934	-0.27
Mof_N 	N 	0.3196	0.053	0.67422	-0.14
Mof_N 	N 	0.2843	0.0921	0.62867	-0.14
Mof_N 	N 	0.23274	0.0577	0.66913	-0.139
Mof_N 	N 	0.43095	0.9337	0.02739	-0.266
Mof_N 	N 	0.2852	0.9325	0.83921	-0.271
Mof_N 	N 	0.4338	0.5188	0.91264	-0.271
Mof_N 	N 	0.3571	0.0431	0.93354	-0.136
Mof_N 	N 	0.3618	0.1844	0.90403	-0.136
Mof_N 	N 	0.3919	0.1893	0.95254	-0.141
Mof_Zn	Zn	0.25044	0.14559	0.30744	1.163
Mof_Zn	Zn	0.96429	0.84555	0.0957	1.162
Mof_Zn	Zn	0.45086	0.85653	0.06434	1.162
Mof_I 	I 	0.19729	0.29735	0.29912	-0.366
Mof_I 	I 	0.34194	0.16188	0.31877	-0.375
Mof_I 	I 	0.97429	0.75766	0.04738	-0.38
Mof_I 	I 	0.91986	0.77142	0.13895	-0.362
Mof_I 	I 	0.51784	0.94634	0.09185	-0.368
Mof_I 	I 	0.45903	0.6795	0.04843	-0.371
Mof_C 	C 	0.1985	0.0568	0.25818	0.062
Mof_H 	H 	0.1708	0.0796	0.2687	-0.01
Mof_C 	C 	0.1912	0.0195	0.23084	-0.116
Mof_H 	H 	0.1591	0.0153	0.2229	0.08
Mof_C 	C 	0.2318	0.9879	0.21511	0.05
Mof_C 	C 	0.2779	0.9913	0.22825	-0.112
Mof_H 	H 	0.3062	0.9682	0.2183	0.081
Mof_C 	C 	0.2818	0.0285	0.25576	0.065
Mof_H 	H 	0.3133	0.0302	0.2647	0.001
Mof_C 	C 	0.0725	0.8853	0.0943	0.061
Mof_H 	H 	0.0676	0.8778	0.074	-0.007
Mof_C 	C 	0.1199	0.8978	0.10439	-0.113
Mof_H 	H 	0.147	0.8984	0.0914	0.078
Mof_C 	C 	0.1271	0.9093	0.13395	0.049
Mof_C 	C 	0.0865	0.9105	0.15224	-0.113
Mof_H 	H 	0.0903	0.9213	0.1724	0.08
Mof_C 	C 	0.0403	0.8957	0.14032	0.061
Mof_H 	H 	0.0126	0.8942	0.1529	-0.004
Mof_C 	C 	0.3914	0.8987	0.11742	0.062
Mof_H 	H 	0.4232	0.905	0.1257	-0.009
Mof_C 	C 	0.3508	0.913	0.13491	-0.116
Mof_H 	H 	0.3548	0.9284	0.1548	0.08
Mof_C 	C 	0.304	0.9046	0.12298	0.052
Mof_C 	C 	0.3	0.8815	0.09406	-0.118
Mof_H 	H 	0.2685	0.8757	0.0853	0.078
Mof_C 	C 	0.3422	0.8668	0.07792	0.065
Mof_H 	H 	0.3391	0.8495	0.0581	-0.015
Mof_C 	C 	0.2261	0.9563	0.18447	0.103
Mof_C 	C 	0.1776	0.9226	0.14614	0.104
Mof_C 	C 	0.2598	0.9191	0.14139	0.101
Mof_C 	C 	0.1013	0.1054	0.50871	0.064
Mof_H 	H 	0.1121	0.1703	0.5118	-0.009
Mof_C 	C 	0.1195	0.0548	0.48504	-0.109
Mof_H 	H 	0.1425	0.0842	0.4723	0.077
Mof_C 	C 	0.1033	0.9596	0.48036	0.047
Mof_C 	C 	0.0695	0.9196	0.49941	-0.115
Mof_H 	H 	0.0578	0.8552	0.4966	0.077
Mof_C 	C 	0.0531	0.9748	0.52274	0.057
Mof_H 	H 	0.0299	0.9472	0.5358	0.001
Mof_C 	C 	0.2131	0.97	0.33841	0.063
Mof_H 	H 	0.2265	0.9372	0.3221	-0.012
Mof_C 	C 	0.1924	0.9152	0.36061	-0.111
Mof_H 	H 	0.1917	0.8462	0.3595	0.072
Mof_C 	C 	0.1727	0.963	0.38442	0.053
Mof_C 	C 	0.1734	0.0644	0.38485	-0.107
Mof_H 	H 	0.1596	0.0991	0.4007	0.078
Mof_C 	C 	0.1947	0.1138	0.36182	0.064
Mof_H 	H 	0.195	0.1829	0.3621	-0.008
Mof_C 	C 	0.0761	0.5121	0.43934	0.068
Mof_H 	H 	0.0716	0.4686	0.4551	-0.004
Mof_C 	C 	0.093	0.6063	0.44504	-0.113
Mof_H 	H 	0.0988	0.6273	0.4644	0.082
Mof_C 	C 	0.1011	0.6686	0.42173	0.052
Mof_C 	C 	0.0916	0.6352	0.39399	-0.125
Mof_H 	H 	0.0972	0.676	0.3777	0.095
Mof_C 	C 	0.0742	0.5426	0.39035	0.07
Mof_H 	H 	0.0674	0.5205	0.3713	-0.01
Mof_C 	C 	0.1201	0.9054	0.4542	0.101
Mof_C 	C 	0.1502	0.9078	0.40882	0.11
Mof_C 	C 	0.1173	0.7703	0.42649	0.097
Mof_N 	N 	0.2431	0.0624	0.27055	-0.271
Mof_N 	N 	0.0329	0.8833	0.1118	-0.269
Mof_N 	N 	0.38773	0.8762	0.08934	-0.27
Mof_N 	N 	0.1804	0.947	0.17422	-0.14
Mof_N 	N 	0.2157	0.9079	0.12867	-0.14
Mof_N 	N 	0.26726	0.9423	0.16913	-0.139
Mof_N 	N 	0.06905	0.0663	0.52739	-0.267
Mof_N 	N 	0.2148	0.0675	0.33921	-0.271
Mof_N 	N 	0.0662	0.4812	0.41264	-0.271
Mof_N 	N 	0.1429	0.9569	0.43354	-0.136
Mof_N 	N 	0.1382	0.8156	0.40403	-0.136
Mof_N 	N 	0.1081	0.8107	0.45254	-0.141
Mof_Zn	Zn	0.75044	0.35441	0.69256	1.163
Mof_Zn	Zn	0.46429	0.65445	0.9043	1.162
Mof_Zn	Zn	0.95086	0.64347	0.93566	1.162
Mof_I 	I 	0.69729	0.20265	0.70088	-0.366
Mof_I 	I 	0.84194	0.33812	0.68123	-0.375
Mof_I 	I 	0.47429	0.74234	0.95262	-0.38
Mof_I 	I 	0.41986	0.72858	0.86105	-0.362
Mof_I 	I 	0.01784	0.55366	0.90815	-0.368
Mof_I 	I 	0.95903	0.8205	0.95157	-0.371
Mof_C 	C 	0.6985	0.4432	0.74182	0.062
Mof_H 	H 	0.6708	0.4204	0.7313	-0.01
Mof_C 	C 	0.6912	0.4805	0.76916	-0.114
Mof_H 	H 	0.6591	0.4847	0.7771	0.08
Mof_C 	C 	0.7318	0.5121	0.78489	0.049
Mof_C 	C 	0.7779	0.5087	0.77175	-0.113
Mof_H 	H 	0.8062	0.5318	0.7817	0.081
Mof_C 	C 	0.7818	0.4715	0.74424	0.066
Mof_H 	H 	0.8133	0.4698	0.7353	0.001
Mof_C 	C 	0.5725	0.6147	0.9057	0.061
Mof_H 	H 	0.5676	0.6222	0.926	-0.007
Mof_C 	C 	0.6199	0.6022	0.89561	-0.113
Mof_H 	H 	0.647	0.6016	0.9086	0.077
Mof_C 	C 	0.6271	0.5907	0.86605	0.048
Mof_C 	C 	0.5865	0.5895	0.84776	-0.113
Mof_H 	H 	0.5903	0.5787	0.8276	0.08
Mof_C 	C 	0.5403	0.6043	0.85968	0.061
Mof_H 	H 	0.5126	0.6058	0.8471	-0.004
Mof_C 	C 	0.8914	0.6013	0.88258	0.062
Mof_H 	H 	0.9232	0.595	0.8743	-0.009
Mof_C 	C 	0.8508	0.587	0.86509	-0.116
Mof_H 	H 	0.8548	0.5716	0.8452	0.08
Mof_C 	C 	0.804	0.5954	0.87702	0.052
Mof_C 	C 	0.8	0.6185	0.90594	-0.118
Mof_H 	H 	0.7685	0.6243	0.9147	0.078
Mof_C 	C 	0.8422	0.6332	0.92208	0.065
Mof_H 	H 	0.8391	0.6505	0.9419	-0.015
Mof_C 	C 	0.7261	0.5437	0.81553	0.103
Mof_C 	C 	0.6776	0.5774	0.85386	0.104
Mof_C 	C 	0.7598	0.5809	0.85861	0.101
Mof_C 	C 	0.6013	0.3946	0.49129	0.064
Mof_H 	H 	0.6121	0.3297	0.4882	-0.009
Mof_C 	C 	0.6195	0.4452	0.51496	-0.108
Mof_H 	H 	0.6425	0.4158	0.5277	0.077
Mof_C 	C 	0.6033	0.5404	0.51964	0.047
Mof_C 	C 	0.5695	0.5804	0.50059	-0.115
Mof_H 	H 	0.5578	0.6448	0.5034	0.077
Mof_C 	C 	0.5531	0.5252	0.47726	0.057
Mof_H 	H 	0.5299	0.5528	0.4642	0.001
Mof_C 	C 	0.7131	0.53	0.66159	0.062
Mof_H 	H 	0.7265	0.5628	0.6779	-0.012
Mof_C 	C 	0.6924	0.5848	0.63939	-0.11
Mof_H 	H 	0.6917	0.6538	0.6405	0.071
Mof_C 	C 	0.6727	0.537	0.61558	0.051
Mof_C 	C 	0.6734	0.4356	0.61515	-0.105
Mof_H 	H 	0.6596	0.4009	0.5993	0.077
Mof_C 	C 	0.6947	0.3862	0.63818	0.063
Mof_H 	H 	0.695	0.3171	0.6379	-0.008
Mof_C 	C 	0.5761	0.9879	0.56066	0.067
Mof_H 	H 	0.5716	0.0314	0.5449	-0.003
Mof_C 	C 	0.593	0.8937	0.55496	-0.112
Mof_H 	H 	0.5988	0.8727	0.5356	0.081
Mof_C 	C 	0.6011	0.8314	0.57827	0.052
Mof_C 	C 	0.5916	0.8648	0.60601	-0.124
Mof_H 	H 	0.5972	0.824	0.6223	0.094
Mof_C 	C 	0.5742	0.9574	0.60965	0.069
Mof_H 	H 	0.5674	0.9795	0.6287	-0.01
Mof_C 	C 	0.6201	0.5946	0.5458	0.101
Mof_C 	C 	0.6502	0.5922	0.59118	0.11
Mof_C 	C 	0.6173	0.7297	0.57351	0.097
Mof_N 	N 	0.7431	0.4376	0.72945	-0.271
Mof_N 	N 	0.5329	0.6167	0.8882	-0.269
Mof_N 	N 	0.88773	0.6238	0.91066	-0.27
Mof_N 	N 	0.6804	0.553	0.82578	-0.14
Mof_N 	N 	0.7157	0.5921	0.87133	-0.14
Mof_N 	N 	0.76726	0.5577	0.83087	-0.139
Mof_N 	N 	0.56905	0.4337	0.47261	-0.266
Mof_N 	N 	0.7148	0.4325	0.66079	-0.27
Mof_N 	N 	0.5662	0.0188	0.58736	-0.271
Mof_N 	N 	0.6429	0.5431	0.56646	-0.136
Mof_N 	N 	0.6382	0.6844	0.59597	-0.136
Mof_N 	N 	0.6081	0.6893	0.54746	-0.141
Mof_Zn	Zn	0.74956	0.64559	0.19256	1.163
Mof_Zn	Zn	0.03571	0.34555	0.4043	1.162
Mof_Zn	Zn	0.54914	0.35653	0.43566	1.162
Mof_I 	I 	0.80271	0.79735	0.20088	-0.366
Mof_I 	I 	0.65806	0.66188	0.18123	-0.375
Mof_I 	I 	0.02571	0.25766	0.45262	-0.38
Mof_I 	I 	0.08014	0.27142	0.36105	-0.363
Mof_I 	I 	0.48216	0.44634	0.40815	-0.369
Mof_I 	I 	0.54097	0.1795	0.45157	-0.371
Mof_C 	C 	0.8015	0.5568	0.24182	0.062
Mof_H 	H 	0.8292	0.5796	0.2313	-0.01
Mof_C 	C 	0.8088	0.5195	0.26916	-0.114
Mof_H 	H 	0.8409	0.5153	0.2771	0.08
Mof_C 	C 	0.7682	0.4879	0.28489	0.049
Mof_C 	C 	0.7221	0.4913	0.27175	-0.113
Mof_H 	H 	0.6938	0.4682	0.2817	0.081
Mof_C 	C 	0.7182	0.5285	0.24424	0.066
Mof_H 	H 	0.6867	0.5302	0.2353	0.001
Mof_C 	C 	0.9275	0.3853	0.4057	0.061
Mof_H 	H 	0.9324	0.3778	0.426	-0.007
Mof_C 	C 	0.8801	0.3978	0.39561	-0.113
Mof_H 	H 	0.853	0.3984	0.4086	0.077
Mof_C 	C 	0.8729	0.4093	0.36605	0.048
Mof_C 	C 	0.9135	0.4105	0.34776	-0.113
Mof_H 	H 	0.9097	0.4213	0.3276	0.08
Mof_C 	C 	0.9597	0.3957	0.35968	0.061
Mof_H 	H 	0.9874	0.3942	0.3471	-0.004
Mof_C 	C 	0.6086	0.3987	0.38258	0.062
Mof_H 	H 	0.5768	0.405	0.3743	-0.009
Mof_C 	C 	0.6492	0.413	0.36509	-0.116
Mof_H 	H 	0.6452	0.4284	0.3452	0.08
Mof_C 	C 	0.696	0.4046	0.37702	0.052
Mof_C 	C 	0.7	0.3815	0.40594	-0.118
Mof_H 	H 	0.7315	0.3757	0.4147	0.078
Mof_C 	C 	0.6578	0.3668	0.42208	0.065
Mof_H 	H 	0.6609	0.3495	0.4419	-0.015
Mof_C 	C 	0.7739	0.4563	0.31553	0.103
Mof_C 	C 	0.8224	0.4226	0.35386	0.104
Mof_C 	C 	0.7402	0.4191	0.35861	0.101
Mof_C 	C 	0.8987	0.6054	0.99129	0.064
Mof_H 	H 	0.8879	0.6703	0.9882	-0.009
Mof_C 	C 	0.8805	0.5548	0.01496	-0.108
Mof_H 	H 	0.8575	0.5842	0.0277	0.077
Mof_C 	C 	0.8967	0.4596	0.01964	0.047
Mof_C 	C 	0.9305	0.4196	0.00059	-0.115
Mof_H 	H 	0.9422	0.3552	0.0034	0.077
Mof_C 	C 	0.9469	0.4748	0.97726	0.057
Mof_H 	H 	0.9701	0.4472	0.9642	0.001
Mof_C 	C 	0.7869	0.47	0.16159	0.062
Mof_H 	H 	0.7735	0.4372	0.1779	-0.012
Mof_C 	C 	0.8076	0.4152	0.13939	-0.11
Mof_H 	H 	0.8083	0.3462	0.1405	0.071
Mof_C 	C 	0.8273	0.463	0.11558	0.051
Mof_C 	C 	0.8266	0.5644	0.11515	-0.105
Mof_H 	H 	0.8404	0.5991	0.0993	0.077
Mof_C 	C 	0.8053	0.6138	0.13818	0.063
Mof_H 	H 	0.805	0.6829	0.1379	-0.008
Mof_C 	C 	0.9239	0.0121	0.06066	0.069
Mof_H 	H 	0.9284	0.9686	0.0449	-0.004
Mof_C 	C 	0.907	0.1063	0.05496	-0.113
Mof_H 	H 	0.9012	0.1273	0.0356	0.082
Mof_C 	C 	0.8989	0.1686	0.07827	0.052
Mof_C 	C 	0.9084	0.1352	0.10601	-0.125
Mof_H 	H 	0.9028	0.176	0.1223	0.095
Mof_C 	C 	0.9258	0.0426	0.10965	0.07
Mof_H 	H 	0.9326	0.0205	0.1287	-0.01
Mof_C 	C 	0.8799	0.4054	0.0458	0.101
Mof_C 	C 	0.8498	0.4078	0.09118	0.11
Mof_C 	C 	0.8827	0.2703	0.07351	0.097
Mof_N 	N 	0.7569	0.5624	0.22945	-0.271
Mof_N 	N 	0.9671	0.3833	0.3882	-0.269
Mof_N 	N 	0.61227	0.3762	0.41066	-0.27
Mof_N 	N 	0.8196	0.447	0.32578	-0.14
Mof_N 	N 	0.7843	0.4079	0.37133	-0.14
Mof_N 	N 	0.73274	0.4423	0.33087	-0.139
Mof_N 	N 	0.93095	0.5663	0.97261	-0.266
Mof_N 	N 	0.7852	0.5675	0.16079	-0.27
Mof_N 	N 	0.9338	0.9812	0.08736	-0.272
Mof_N 	N 	0.8571	0.4569	0.06646	-0.136
Mof_N 	N 	0.8618	0.3156	0.09597	-0.136
Mof_N 	N 	0.8919	0.3107	0.04746	-0.141
_end
