data_functionalizedCrystal
_audit_creation_method	'EQeq! by Chris Wilmer'
_symmetry_space_group_name_H-M	'P1'
_symmetry_Int_Tables_number	1
_symmetry_cell_setting	triclinic
loop_
_symmetry_equiv_pos_as_xyz
  x,y,z
_cell_length_a	35.488
_cell_length_b	35.488
_cell_length_c	19.106
_cell_angle_alpha	90
_cell_angle_beta	90
_cell_angle_gamma	120
loop_
_atom_site_label
_atom_site_type_symbol
_atom_site_fract_x
_atom_site_fract_y
_atom_site_fract_z
_atom_site_charge
Mof_O 	O 	0.30225	0.18972	0.74378	-0.406
Mof_O 	O 	0.27834	0.17794	0.63272	-0.412
Mof_C 	C 	0.27794	0.18899	0.6937	0.372
Mof_C 	C 	0.2454	0.20258	0.7134	-0.126
Mof_C 	C 	0.21824	0.20382	0.6622	0.063
Mof_H 	H 	0.2196	0.1951	0.6157	0.029
Mof_C 	C 	0.18879	0.21804	0.6792	-0.14
Mof_H 	H 	0.1695	0.2177	0.6445	0.094
Mof_C 	C 	0.18767	0.23227	0.7448	0.109
Mof_C 	C 	0.21475	0.23065	0.7969	-0.139
Mof_H 	H 	0.2134	0.2391	0.8436	0.083
Mof_C 	C 	0.24393	0.21628	0.7786	0.066
Mof_H 	H 	0.2631	0.2162	0.8132	0.027
Mof_C 	C 	0.16008	0.2517	0.7635	-0.064
Mof_C 	C 	0.17868	0.2906	0.7972	-0.04
Mof_H 	H 	0.2086	0.3039	0.8095	0.045
Mof_O 	O 	0.96892	0.52305	0.07711	-0.407
Mof_O 	O 	0.94501	0.51127	0.96605	-0.413
Mof_C 	C 	0.94461	0.52232	0.02703	0.372
Mof_C 	C 	0.91207	0.53591	0.04673	-0.125
Mof_C 	C 	0.88491	0.53715	0.99553	0.062
Mof_H 	H 	0.88627	0.52843	0.94903	0.029
Mof_C 	C 	0.85546	0.55137	0.01253	-0.138
Mof_H 	H 	0.83617	0.55103	0.97783	0.093
Mof_C 	C 	0.85434	0.5656	0.07813	0.108
Mof_C 	C 	0.88142	0.56398	0.13023	-0.138
Mof_H 	H 	0.88007	0.57243	0.17693	0.082
Mof_C 	C 	0.9106	0.54961	0.11193	0.065
Mof_H 	H 	0.92977	0.54953	0.14653	0.027
Mof_C 	C 	0.82675	0.58503	0.09683	-0.063
Mof_C 	C 	0.84535	0.62393	0.13053	-0.041
Mof_H 	H 	0.87527	0.63723	0.14283	0.045
Mof_O 	O 	0.63558	0.85639	0.41045	-0.407
Mof_O 	O 	0.61167	0.84461	0.29939	-0.413
Mof_C 	C 	0.61127	0.85566	0.36037	0.372
Mof_C 	C 	0.57873	0.86925	0.38007	-0.126
Mof_C 	C 	0.55157	0.87049	0.32887	0.063
Mof_H 	H 	0.55293	0.86177	0.28237	0.029
Mof_C 	C 	0.52212	0.88471	0.34587	-0.14
Mof_H 	H 	0.50283	0.88437	0.31117	0.094
Mof_C 	C 	0.521	0.89894	0.41147	0.109
Mof_C 	C 	0.54808	0.89732	0.46357	-0.139
Mof_H 	H 	0.54673	0.90577	0.51027	0.083
Mof_C 	C 	0.57726	0.88295	0.44527	0.066
Mof_H 	H 	0.59643	0.88287	0.47987	0.027
Mof_C 	C 	0.49341	0.91837	0.43017	-0.064
Mof_C 	C 	0.51201	0.95727	0.46387	-0.04
Mof_H 	H 	0.54193	0.97057	0.47617	0.045
Mof_O 	O 	0.81028	0.11253	0.74378	-0.407
Mof_O 	O 	0.82206	0.1004	0.63272	-0.413
Mof_C 	C 	0.81101	0.08895	0.6937	0.372
Mof_C 	C 	0.79742	0.04282	0.7134	-0.126
Mof_C 	C 	0.79618	0.01442	0.6622	0.063
Mof_H 	H 	0.8049	0.0245	0.6157	0.029
Mof_C 	C 	0.78196	0.97075	0.6792	-0.139
Mof_H 	H 	0.7823	0.9518	0.6445	0.094
Mof_C 	C 	0.76773	0.9554	0.7448	0.109
Mof_C 	C 	0.76935	0.9841	0.7969	-0.139
Mof_H 	H 	0.7609	0.9743	0.8436	0.082
Mof_C 	C 	0.78372	0.02765	0.7786	0.066
Mof_H 	H 	0.7838	0.0469	0.8132	0.027
Mof_C 	C 	0.7483	0.90838	0.7635	-0.064
Mof_C 	C 	0.7094	0.88808	0.7972	-0.04
Mof_H 	H 	0.6961	0.9047	0.8095	0.045
Mof_O 	O 	0.47695	0.44586	0.07711	-0.407
Mof_O 	O 	0.48873	0.43373	0.96605	-0.413
Mof_C 	C 	0.47768	0.42228	0.02703	0.372
Mof_C 	C 	0.46409	0.37615	0.04673	-0.126
Mof_C 	C 	0.46285	0.34775	0.99553	0.063
Mof_H 	H 	0.47157	0.35783	0.94903	0.029
Mof_C 	C 	0.44863	0.30408	0.01253	-0.139
Mof_H 	H 	0.44897	0.28513	0.97783	0.094
Mof_C 	C 	0.4344	0.28873	0.07813	0.109
Mof_C 	C 	0.43602	0.31743	0.13023	-0.139
Mof_H 	H 	0.42757	0.30763	0.17693	0.082
Mof_C 	C 	0.45039	0.36098	0.11193	0.066
Mof_H 	H 	0.45047	0.38023	0.14653	0.027
Mof_C 	C 	0.41497	0.24171	0.09683	-0.064
Mof_C 	C 	0.37607	0.22141	0.13053	-0.041
Mof_H 	H 	0.36277	0.23803	0.14283	0.045
Mof_O 	O 	0.14361	0.7792	0.41045	-0.407
Mof_O 	O 	0.15539	0.76707	0.29939	-0.413
Mof_C 	C 	0.14434	0.75562	0.36037	0.372
Mof_C 	C 	0.13075	0.70949	0.38007	-0.126
Mof_C 	C 	0.12951	0.68109	0.32887	0.063
Mof_H 	H 	0.13823	0.69117	0.28237	0.029
Mof_C 	C 	0.11529	0.63742	0.34587	-0.14
Mof_H 	H 	0.11563	0.61847	0.31117	0.094
Mof_C 	C 	0.10106	0.62207	0.41147	0.109
Mof_C 	C 	0.10268	0.65077	0.46357	-0.139
Mof_H 	H 	0.09423	0.64097	0.51027	0.083
Mof_C 	C 	0.11705	0.69432	0.44527	0.066
Mof_H 	H 	0.11713	0.71357	0.47987	0.027
Mof_C 	C 	0.08163	0.57505	0.43017	-0.064
Mof_C 	C 	0.04273	0.55475	0.46387	-0.04
Mof_H 	H 	0.02943	0.57137	0.47617	0.045
Mof_O 	O 	0.88747	0.69775	0.74378	-0.407
Mof_O 	O 	0.8996	0.72166	0.63272	-0.413
Mof_C 	C 	0.91105	0.72206	0.6937	0.372
Mof_C 	C 	0.95718	0.7546	0.7134	-0.126
Mof_C 	C 	0.98558	0.78176	0.6622	0.063
Mof_H 	H 	0.9755	0.7804	0.6157	0.029
Mof_C 	C 	0.02925	0.81121	0.6792	-0.139
Mof_H 	H 	0.0482	0.8305	0.6445	0.094
Mof_C 	C 	0.0446	0.81233	0.7448	0.109
Mof_C 	C 	0.0159	0.78525	0.7969	-0.139
Mof_H 	H 	0.0257	0.7866	0.8436	0.082
Mof_C 	C 	0.97235	0.75607	0.7786	0.066
Mof_H 	H 	0.9531	0.7369	0.8132	0.027
Mof_C 	C 	0.09162	0.83992	0.7635	-0.064
Mof_C 	C 	0.11192	0.82132	0.7972	-0.04
Mof_H 	H 	0.0953	0.7914	0.8095	0.045
Mof_O 	O 	0.55414	0.03108	0.07711	-0.407
Mof_O 	O 	0.56627	0.05499	0.96605	-0.413
Mof_C 	C 	0.57772	0.05539	0.02703	0.372
Mof_C 	C 	0.62385	0.08793	0.04673	-0.125
Mof_C 	C 	0.65225	0.11509	0.99553	0.061
Mof_H 	H 	0.64217	0.11373	0.94903	0.029
Mof_C 	C 	0.69592	0.14454	0.01253	-0.137
Mof_H 	H 	0.71487	0.16383	0.97783	0.093
Mof_C 	C 	0.71127	0.14566	0.07813	0.108
Mof_C 	C 	0.68257	0.11858	0.13023	-0.138
Mof_H 	H 	0.69237	0.11993	0.17693	0.082
Mof_C 	C 	0.63902	0.0894	0.11193	0.065
Mof_H 	H 	0.61977	0.07023	0.14653	0.027
Mof_C 	C 	0.75829	0.17325	0.09683	-0.063
Mof_C 	C 	0.77859	0.15465	0.13053	-0.041
Mof_H 	H 	0.76197	0.12473	0.14283	0.046
Mof_O 	O 	0.2208	0.36442	0.41045	-0.407
Mof_O 	O 	0.23293	0.38833	0.29939	-0.413
Mof_C 	C 	0.24438	0.38873	0.36037	0.372
Mof_C 	C 	0.29051	0.42127	0.38007	-0.126
Mof_C 	C 	0.31891	0.44843	0.32887	0.063
Mof_H 	H 	0.30883	0.44707	0.28237	0.029
Mof_C 	C 	0.36258	0.47788	0.34587	-0.14
Mof_H 	H 	0.38153	0.49717	0.31117	0.094
Mof_C 	C 	0.37793	0.479	0.41147	0.109
Mof_C 	C 	0.34923	0.45192	0.46357	-0.139
Mof_H 	H 	0.35903	0.45327	0.51027	0.083
Mof_C 	C 	0.30568	0.42274	0.44527	0.066
Mof_H 	H 	0.28643	0.40357	0.47987	0.027
Mof_C 	C 	0.42495	0.50659	0.43017	-0.064
Mof_C 	C 	0.44525	0.48799	0.46387	-0.04
Mof_H 	H 	0.42863	0.45807	0.47617	0.045
Mof_O 	O 	0.18972	0.30225	0.25622	-0.407
Mof_O 	O 	0.17794	0.27834	0.36728	-0.413
Mof_C 	C 	0.18899	0.27794	0.3063	0.372
Mof_C 	C 	0.20258	0.2454	0.2866	-0.126
Mof_C 	C 	0.20382	0.21824	0.3378	0.063
Mof_H 	H 	0.1951	0.2196	0.3843	0.029
Mof_C 	C 	0.21804	0.18879	0.3208	-0.14
Mof_H 	H 	0.2177	0.1695	0.3555	0.094
Mof_C 	C 	0.23227	0.18767	0.2552	0.109
Mof_C 	C 	0.23065	0.21475	0.2031	-0.139
Mof_H 	H 	0.2391	0.2134	0.1564	0.083
Mof_C 	C 	0.21628	0.24393	0.2214	0.066
Mof_H 	H 	0.2162	0.2631	0.1868	0.027
Mof_C 	C 	0.2517	0.16008	0.2365	-0.064
Mof_C 	C 	0.2906	0.17868	0.2028	-0.04
Mof_H 	H 	0.3039	0.2086	0.1905	0.045
Mof_O 	O 	0.85639	0.63558	0.58955	-0.407
Mof_O 	O 	0.84461	0.61167	0.70061	-0.413
Mof_C 	C 	0.85566	0.61127	0.63963	0.372
Mof_C 	C 	0.86925	0.57873	0.61993	-0.126
Mof_C 	C 	0.87049	0.55157	0.67113	0.063
Mof_H 	H 	0.86177	0.55293	0.71763	0.029
Mof_C 	C 	0.88471	0.52212	0.65413	-0.14
Mof_H 	H 	0.88437	0.50283	0.68883	0.094
Mof_C 	C 	0.89894	0.521	0.58853	0.109
Mof_C 	C 	0.89732	0.54808	0.53643	-0.139
Mof_H 	H 	0.90577	0.54673	0.48973	0.083
Mof_C 	C 	0.88295	0.57726	0.55473	0.066
Mof_H 	H 	0.88287	0.59643	0.52013	0.027
Mof_C 	C 	0.91837	0.49341	0.56983	-0.064
Mof_C 	C 	0.95727	0.51201	0.53613	-0.04
Mof_H 	H 	0.97057	0.54193	0.52383	0.045
Mof_O 	O 	0.52305	0.96892	0.92289	-0.407
Mof_O 	O 	0.51127	0.94501	0.03395	-0.413
Mof_C 	C 	0.52232	0.94461	0.97297	0.372
Mof_C 	C 	0.53591	0.91207	0.95327	-0.125
Mof_C 	C 	0.53715	0.88491	0.00447	0.062
Mof_H 	H 	0.52843	0.88627	0.05097	0.029
Mof_C 	C 	0.55137	0.85546	0.98747	-0.138
Mof_H 	H 	0.55103	0.83617	0.02217	0.093
Mof_C 	C 	0.5656	0.85434	0.92187	0.108
Mof_C 	C 	0.56398	0.88142	0.86977	-0.138
Mof_H 	H 	0.57243	0.88007	0.82307	0.082
Mof_C 	C 	0.54961	0.9106	0.88807	0.065
Mof_H 	H 	0.54953	0.92977	0.85347	0.027
Mof_C 	C 	0.58503	0.82675	0.90317	-0.063
Mof_C 	C 	0.62393	0.84535	0.86947	-0.041
Mof_H 	H 	0.63723	0.87527	0.85717	0.045
Mof_O 	O 	0.11253	0.81028	0.25622	-0.407
Mof_O 	O 	0.1004	0.82206	0.36728	-0.413
Mof_C 	C 	0.08895	0.81101	0.3063	0.372
Mof_C 	C 	0.04282	0.79742	0.2866	-0.126
Mof_C 	C 	0.01442	0.79618	0.3378	0.063
Mof_H 	H 	0.0245	0.8049	0.3843	0.029
Mof_C 	C 	0.97075	0.78196	0.3208	-0.139
Mof_H 	H 	0.9518	0.7823	0.3555	0.094
Mof_C 	C 	0.9554	0.76773	0.2552	0.109
Mof_C 	C 	0.9841	0.76935	0.2031	-0.139
Mof_H 	H 	0.9743	0.7609	0.1564	0.082
Mof_C 	C 	0.02765	0.78372	0.2214	0.066
Mof_H 	H 	0.0469	0.7838	0.1868	0.027
Mof_C 	C 	0.90838	0.7483	0.2365	-0.064
Mof_C 	C 	0.88808	0.7094	0.2028	-0.04
Mof_H 	H 	0.9047	0.6961	0.1905	0.045
Mof_O 	O 	0.7792	0.14361	0.58955	-0.407
Mof_O 	O 	0.76707	0.15539	0.70061	-0.413
Mof_C 	C 	0.75562	0.14434	0.63963	0.372
Mof_C 	C 	0.70949	0.13075	0.61993	-0.126
Mof_C 	C 	0.68109	0.12951	0.67113	0.063
Mof_H 	H 	0.69117	0.13823	0.71763	0.029
Mof_C 	C 	0.63742	0.11529	0.65413	-0.14
Mof_H 	H 	0.61847	0.11563	0.68883	0.094
Mof_C 	C 	0.62207	0.10106	0.58853	0.109
Mof_C 	C 	0.65077	0.10268	0.53643	-0.139
Mof_H 	H 	0.64097	0.09423	0.48973	0.083
Mof_C 	C 	0.69432	0.11705	0.55473	0.066
Mof_H 	H 	0.71357	0.11713	0.52013	0.027
Mof_C 	C 	0.57505	0.08163	0.56983	-0.064
Mof_C 	C 	0.55475	0.04273	0.53613	-0.04
Mof_H 	H 	0.57137	0.02943	0.52383	0.045
Mof_O 	O 	0.44586	0.47695	0.92289	-0.407
Mof_O 	O 	0.43373	0.48873	0.03395	-0.413
Mof_C 	C 	0.42228	0.47768	0.97297	0.372
Mof_C 	C 	0.37615	0.46409	0.95327	-0.126
Mof_C 	C 	0.34775	0.46285	0.00447	0.063
Mof_H 	H 	0.35783	0.47157	0.05097	0.029
Mof_C 	C 	0.30408	0.44863	0.98747	-0.139
Mof_H 	H 	0.28513	0.44897	0.02217	0.094
Mof_C 	C 	0.28873	0.4344	0.92187	0.109
Mof_C 	C 	0.31743	0.43602	0.86977	-0.139
Mof_H 	H 	0.30763	0.42757	0.82307	0.082
Mof_C 	C 	0.36098	0.45039	0.88807	0.066
Mof_H 	H 	0.38023	0.45047	0.85347	0.027
Mof_C 	C 	0.24171	0.41497	0.90317	-0.064
Mof_C 	C 	0.22141	0.37607	0.86947	-0.041
Mof_H 	H 	0.23803	0.36277	0.85717	0.045
Mof_O 	O 	0.69775	0.88747	0.25622	-0.407
Mof_O 	O 	0.72166	0.8996	0.36728	-0.413
Mof_C 	C 	0.72206	0.91105	0.3063	0.372
Mof_C 	C 	0.7546	0.95718	0.2866	-0.126
Mof_C 	C 	0.78176	0.98558	0.3378	0.063
Mof_H 	H 	0.7804	0.9755	0.3843	0.029
Mof_C 	C 	0.81121	0.02925	0.3208	-0.139
Mof_H 	H 	0.8305	0.0482	0.3555	0.094
Mof_C 	C 	0.81233	0.0446	0.2552	0.109
Mof_C 	C 	0.78525	0.0159	0.2031	-0.139
Mof_H 	H 	0.7866	0.0257	0.1564	0.082
Mof_C 	C 	0.75607	0.97235	0.2214	0.066
Mof_H 	H 	0.7369	0.9531	0.1868	0.027
Mof_C 	C 	0.83992	0.09162	0.2365	-0.064
Mof_C 	C 	0.82132	0.11192	0.2028	-0.04
Mof_H 	H 	0.7914	0.0953	0.1905	0.045
Mof_O 	O 	0.36442	0.2208	0.58955	-0.407
Mof_O 	O 	0.38833	0.23293	0.70061	-0.413
Mof_C 	C 	0.38873	0.24438	0.63963	0.372
Mof_C 	C 	0.42127	0.29051	0.61993	-0.126
Mof_C 	C 	0.44843	0.31891	0.67113	0.063
Mof_H 	H 	0.44707	0.30883	0.71763	0.029
Mof_C 	C 	0.47788	0.36258	0.65413	-0.14
Mof_H 	H 	0.49717	0.38153	0.68883	0.094
Mof_C 	C 	0.479	0.37793	0.58853	0.109
Mof_C 	C 	0.45192	0.34923	0.53643	-0.139
Mof_H 	H 	0.45327	0.35903	0.48973	0.083
Mof_C 	C 	0.42274	0.30568	0.55473	0.066
Mof_H 	H 	0.40357	0.28643	0.52013	0.027
Mof_C 	C 	0.50659	0.42495	0.56983	-0.064
Mof_C 	C 	0.48799	0.44525	0.53613	-0.04
Mof_H 	H 	0.45807	0.42863	0.52383	0.045
Mof_O 	O 	0.03108	0.55414	0.92289	-0.407
Mof_O 	O 	0.05499	0.56627	0.03395	-0.413
Mof_C 	C 	0.05539	0.57772	0.97297	0.372
Mof_C 	C 	0.08793	0.62385	0.95327	-0.125
Mof_C 	C 	0.11509	0.65225	0.00447	0.061
Mof_H 	H 	0.11373	0.64217	0.05097	0.029
Mof_C 	C 	0.14454	0.69592	0.98747	-0.137
Mof_H 	H 	0.16383	0.71487	0.02217	0.093
Mof_C 	C 	0.14566	0.71127	0.92187	0.108
Mof_C 	C 	0.11858	0.68257	0.86977	-0.138
Mof_H 	H 	0.11993	0.69237	0.82307	0.082
Mof_C 	C 	0.0894	0.63902	0.88807	0.065
Mof_H 	H 	0.07023	0.61977	0.85347	0.027
Mof_C 	C 	0.17325	0.75829	0.90317	-0.063
Mof_C 	C 	0.15465	0.77859	0.86947	-0.041
Mof_H 	H 	0.12473	0.76197	0.85717	0.046
Mof_O 	O 	0.69775	0.81028	0.25622	-0.407
Mof_O 	O 	0.72166	0.82206	0.36728	-0.413
Mof_C 	C 	0.72206	0.81101	0.3063	0.372
Mof_C 	C 	0.7546	0.79742	0.2866	-0.126
Mof_C 	C 	0.78176	0.79618	0.3378	0.063
Mof_H 	H 	0.7804	0.8049	0.3843	0.029
Mof_C 	C 	0.81121	0.78196	0.3208	-0.14
Mof_H 	H 	0.8305	0.7823	0.3555	0.094
Mof_C 	C 	0.81233	0.76773	0.2552	0.109
Mof_C 	C 	0.78525	0.76935	0.2031	-0.139
Mof_H 	H 	0.7866	0.7609	0.1564	0.083
Mof_C 	C 	0.75607	0.78372	0.2214	0.066
Mof_H 	H 	0.7369	0.7838	0.1868	0.027
Mof_C 	C 	0.83992	0.7483	0.2365	-0.064
Mof_C 	C 	0.82132	0.7094	0.2028	-0.04
Mof_H 	H 	0.7914	0.6961	0.1905	0.045
Mof_O 	O 	0.36442	0.14361	0.58955	-0.407
Mof_O 	O 	0.38833	0.15539	0.70061	-0.413
Mof_C 	C 	0.38873	0.14434	0.63963	0.372
Mof_C 	C 	0.42127	0.13075	0.61993	-0.126
Mof_C 	C 	0.44843	0.12951	0.67113	0.063
Mof_H 	H 	0.44707	0.13823	0.71763	0.029
Mof_C 	C 	0.47788	0.11529	0.65413	-0.14
Mof_H 	H 	0.49717	0.11563	0.68883	0.094
Mof_C 	C 	0.479	0.10106	0.58853	0.109
Mof_C 	C 	0.45192	0.10268	0.53643	-0.139
Mof_H 	H 	0.45327	0.09423	0.48973	0.083
Mof_C 	C 	0.42274	0.11705	0.55473	0.066
Mof_H 	H 	0.40357	0.11713	0.52013	0.027
Mof_C 	C 	0.50659	0.08163	0.56983	-0.064
Mof_C 	C 	0.48799	0.04273	0.53613	-0.04
Mof_H 	H 	0.45807	0.02943	0.52383	0.045
Mof_O 	O 	0.03108	0.47695	0.92289	-0.407
Mof_O 	O 	0.05499	0.48873	0.03395	-0.413
Mof_C 	C 	0.05539	0.47768	0.97297	0.372
Mof_C 	C 	0.08793	0.46409	0.95327	-0.125
Mof_C 	C 	0.11509	0.46285	0.00447	0.062
Mof_H 	H 	0.11373	0.47157	0.05097	0.029
Mof_C 	C 	0.14454	0.44863	0.98747	-0.138
Mof_H 	H 	0.16383	0.44897	0.02217	0.093
Mof_C 	C 	0.14566	0.4344	0.92187	0.108
Mof_C 	C 	0.11858	0.43602	0.86977	-0.138
Mof_H 	H 	0.11993	0.42757	0.82307	0.082
Mof_C 	C 	0.0894	0.45039	0.88807	0.065
Mof_H 	H 	0.07023	0.45047	0.85347	0.027
Mof_C 	C 	0.17325	0.41497	0.90317	-0.063
Mof_C 	C 	0.15465	0.37607	0.86947	-0.041
Mof_H 	H 	0.12473	0.36277	0.85717	0.045
Mof_O 	O 	0.18972	0.88747	0.25622	-0.407
Mof_O 	O 	0.17794	0.8996	0.36728	-0.413
Mof_C 	C 	0.18899	0.91105	0.3063	0.372
Mof_C 	C 	0.20258	0.95718	0.2866	-0.126
Mof_C 	C 	0.20382	0.98558	0.3378	0.063
Mof_H 	H 	0.1951	0.9755	0.3843	0.029
Mof_C 	C 	0.21804	0.02925	0.3208	-0.139
Mof_H 	H 	0.2177	0.0482	0.3555	0.094
Mof_C 	C 	0.23227	0.0446	0.2552	0.109
Mof_C 	C 	0.23065	0.0159	0.2031	-0.139
Mof_H 	H 	0.2391	0.0257	0.1564	0.082
Mof_C 	C 	0.21628	0.97235	0.2214	0.066
Mof_H 	H 	0.2162	0.9531	0.1868	0.027
Mof_C 	C 	0.2517	0.09162	0.2365	-0.064
Mof_C 	C 	0.2906	0.11192	0.2028	-0.04
Mof_H 	H 	0.3039	0.0953	0.1905	0.045
Mof_O 	O 	0.85639	0.2208	0.58955	-0.407
Mof_O 	O 	0.84461	0.23293	0.70061	-0.413
Mof_C 	C 	0.85566	0.24438	0.63963	0.372
Mof_C 	C 	0.86925	0.29051	0.61993	-0.126
Mof_C 	C 	0.87049	0.31891	0.67113	0.063
Mof_H 	H 	0.86177	0.30883	0.71763	0.029
Mof_C 	C 	0.88471	0.36258	0.65413	-0.14
Mof_H 	H 	0.88437	0.38153	0.68883	0.094
Mof_C 	C 	0.89894	0.37793	0.58853	0.109
Mof_C 	C 	0.89732	0.34923	0.53643	-0.139
Mof_H 	H 	0.90577	0.35903	0.48973	0.083
Mof_C 	C 	0.88295	0.30568	0.55473	0.066
Mof_H 	H 	0.88287	0.28643	0.52013	0.027
Mof_C 	C 	0.91837	0.42495	0.56983	-0.064
Mof_C 	C 	0.95727	0.44525	0.53613	-0.04
Mof_H 	H 	0.97057	0.42863	0.52383	0.045
Mof_O 	O 	0.52305	0.55414	0.92289	-0.407
Mof_O 	O 	0.51127	0.56627	0.03395	-0.413
Mof_C 	C 	0.52232	0.57772	0.97297	0.372
Mof_C 	C 	0.53591	0.62385	0.95327	-0.126
Mof_C 	C 	0.53715	0.65225	0.00447	0.063
Mof_H 	H 	0.52843	0.64217	0.05097	0.029
Mof_C 	C 	0.55137	0.69592	0.98747	-0.139
Mof_H 	H 	0.55103	0.71487	0.02217	0.094
Mof_C 	C 	0.5656	0.71127	0.92187	0.109
Mof_C 	C 	0.56398	0.68257	0.86977	-0.139
Mof_H 	H 	0.57243	0.69237	0.82307	0.082
Mof_C 	C 	0.54961	0.63902	0.88807	0.066
Mof_H 	H 	0.54953	0.61977	0.85347	0.027
Mof_C 	C 	0.58503	0.75829	0.90317	-0.064
Mof_C 	C 	0.62393	0.77859	0.86947	-0.041
Mof_H 	H 	0.63723	0.76197	0.85717	0.045
Mof_O 	O 	0.11253	0.30225	0.25622	-0.407
Mof_O 	O 	0.1004	0.27834	0.36728	-0.413
Mof_C 	C 	0.08895	0.27794	0.3063	0.372
Mof_C 	C 	0.04282	0.2454	0.2866	-0.126
Mof_C 	C 	0.01442	0.21824	0.3378	0.063
Mof_H 	H 	0.0245	0.2196	0.3843	0.029
Mof_C 	C 	0.97075	0.18879	0.3208	-0.139
Mof_H 	H 	0.9518	0.1695	0.3555	0.094
Mof_C 	C 	0.9554	0.18767	0.2552	0.109
Mof_C 	C 	0.9841	0.21475	0.2031	-0.139
Mof_H 	H 	0.9743	0.2134	0.1564	0.082
Mof_C 	C 	0.02765	0.24393	0.2214	0.066
Mof_H 	H 	0.0469	0.2631	0.1868	0.027
Mof_C 	C 	0.90838	0.16008	0.2365	-0.064
Mof_C 	C 	0.88808	0.17868	0.2028	-0.04
Mof_H 	H 	0.9047	0.2086	0.1905	0.045
Mof_O 	O 	0.7792	0.63558	0.58955	-0.407
Mof_O 	O 	0.76707	0.61167	0.70061	-0.413
Mof_C 	C 	0.75562	0.61127	0.63963	0.372
Mof_C 	C 	0.70949	0.57873	0.61993	-0.126
Mof_C 	C 	0.68109	0.55157	0.67113	0.063
Mof_H 	H 	0.69117	0.55293	0.71763	0.029
Mof_C 	C 	0.63742	0.52212	0.65413	-0.14
Mof_H 	H 	0.61847	0.50283	0.68883	0.094
Mof_C 	C 	0.62207	0.521	0.58853	0.109
Mof_C 	C 	0.65077	0.54808	0.53643	-0.139
Mof_H 	H 	0.64097	0.54673	0.48973	0.083
Mof_C 	C 	0.69432	0.57726	0.55473	0.066
Mof_H 	H 	0.71357	0.59643	0.52013	0.027
Mof_C 	C 	0.57505	0.49341	0.56983	-0.064
Mof_C 	C 	0.55475	0.51201	0.53613	-0.04
Mof_H 	H 	0.57137	0.54193	0.52383	0.045
Mof_O 	O 	0.44586	0.96892	0.92289	-0.407
Mof_O 	O 	0.43373	0.94501	0.03395	-0.413
Mof_C 	C 	0.42228	0.94461	0.97297	0.372
Mof_C 	C 	0.37615	0.91207	0.95327	-0.125
Mof_C 	C 	0.34775	0.88491	0.00447	0.061
Mof_H 	H 	0.35783	0.88627	0.05097	0.029
Mof_C 	C 	0.30408	0.85546	0.98747	-0.137
Mof_H 	H 	0.28513	0.83617	0.02217	0.093
Mof_C 	C 	0.28873	0.85434	0.92187	0.108
Mof_C 	C 	0.31743	0.88142	0.86977	-0.138
Mof_H 	H 	0.30763	0.88007	0.82307	0.082
Mof_C 	C 	0.36098	0.9106	0.88807	0.065
Mof_H 	H 	0.38023	0.92977	0.85347	0.027
Mof_C 	C 	0.24171	0.82675	0.90317	-0.063
Mof_C 	C 	0.22141	0.84535	0.86947	-0.041
Mof_H 	H 	0.23803	0.87527	0.85717	0.046
Mof_O 	O 	0.81028	0.69775	0.74378	-0.407
Mof_O 	O 	0.82206	0.72166	0.63272	-0.413
Mof_C 	C 	0.81101	0.72206	0.6937	0.372
Mof_C 	C 	0.79742	0.7546	0.7134	-0.126
Mof_C 	C 	0.79618	0.78176	0.6622	0.063
Mof_H 	H 	0.8049	0.7804	0.6157	0.029
Mof_C 	C 	0.78196	0.81121	0.6792	-0.14
Mof_H 	H 	0.7823	0.8305	0.6445	0.094
Mof_C 	C 	0.76773	0.81233	0.7448	0.109
Mof_C 	C 	0.76935	0.78525	0.7969	-0.139
Mof_H 	H 	0.7609	0.7866	0.8436	0.083
Mof_C 	C 	0.78372	0.75607	0.7786	0.066
Mof_H 	H 	0.7838	0.7369	0.8132	0.027
Mof_C 	C 	0.7483	0.83992	0.7635	-0.064
Mof_C 	C 	0.7094	0.82132	0.7972	-0.04
Mof_H 	H 	0.6961	0.7914	0.8095	0.045
Mof_O 	O 	0.47695	0.03108	0.07711	-0.407
Mof_O 	O 	0.48873	0.05499	0.96605	-0.413
Mof_C 	C 	0.47768	0.05539	0.02703	0.372
Mof_C 	C 	0.46409	0.08793	0.04673	-0.125
Mof_C 	C 	0.46285	0.11509	0.99553	0.062
Mof_H 	H 	0.47157	0.11373	0.94903	0.029
Mof_C 	C 	0.44863	0.14454	0.01253	-0.138
Mof_H 	H 	0.44897	0.16383	0.97783	0.093
Mof_C 	C 	0.4344	0.14566	0.07813	0.108
Mof_C 	C 	0.43602	0.11858	0.13023	-0.138
Mof_H 	H 	0.42757	0.11993	0.17693	0.082
Mof_C 	C 	0.45039	0.0894	0.11193	0.065
Mof_H 	H 	0.45047	0.07023	0.14653	0.027
Mof_C 	C 	0.41497	0.17325	0.09683	-0.063
Mof_C 	C 	0.37607	0.15465	0.13053	-0.041
Mof_H 	H 	0.36277	0.12473	0.14283	0.045
Mof_O 	O 	0.14361	0.36442	0.41045	-0.407
Mof_O 	O 	0.15539	0.38833	0.29939	-0.413
Mof_C 	C 	0.14434	0.38873	0.36037	0.372
Mof_C 	C 	0.13075	0.42127	0.38007	-0.126
Mof_C 	C 	0.12951	0.44843	0.32887	0.063
Mof_H 	H 	0.13823	0.44707	0.28237	0.029
Mof_C 	C 	0.11529	0.47788	0.34587	-0.14
Mof_H 	H 	0.11563	0.49717	0.31117	0.094
Mof_C 	C 	0.10106	0.479	0.41147	0.109
Mof_C 	C 	0.10268	0.45192	0.46357	-0.139
Mof_H 	H 	0.09423	0.45327	0.51027	0.083
Mof_C 	C 	0.11705	0.42274	0.44527	0.066
Mof_H 	H 	0.11713	0.40357	0.47987	0.027
Mof_C 	C 	0.08163	0.50659	0.43017	-0.064
Mof_C 	C 	0.04273	0.48799	0.46387	-0.04
Mof_H 	H 	0.02943	0.45807	0.47617	0.045
Mof_O 	O 	0.88747	0.18972	0.74378	-0.407
Mof_O 	O 	0.8996	0.17794	0.63272	-0.413
Mof_C 	C 	0.91105	0.18899	0.6937	0.372
Mof_C 	C 	0.95718	0.20258	0.7134	-0.126
Mof_C 	C 	0.98558	0.20382	0.6622	0.063
Mof_H 	H 	0.9755	0.1951	0.6157	0.029
Mof_C 	C 	0.02925	0.21804	0.6792	-0.139
Mof_H 	H 	0.0482	0.2177	0.6445	0.094
Mof_C 	C 	0.0446	0.23227	0.7448	0.109
Mof_C 	C 	0.0159	0.23065	0.7969	-0.139
Mof_H 	H 	0.0257	0.2391	0.8436	0.082
Mof_C 	C 	0.97235	0.21628	0.7786	0.066
Mof_H 	H 	0.9531	0.2162	0.8132	0.027
Mof_C 	C 	0.09162	0.2517	0.7635	-0.064
Mof_C 	C 	0.11192	0.2906	0.7972	-0.04
Mof_H 	H 	0.0953	0.3039	0.8095	0.045
Mof_O 	O 	0.55414	0.52305	0.07711	-0.407
Mof_O 	O 	0.56627	0.51127	0.96605	-0.413
Mof_C 	C 	0.57772	0.52232	0.02703	0.372
Mof_C 	C 	0.62385	0.53591	0.04673	-0.126
Mof_C 	C 	0.65225	0.53715	0.99553	0.063
Mof_H 	H 	0.64217	0.52843	0.94903	0.029
Mof_C 	C 	0.69592	0.55137	0.01253	-0.139
Mof_H 	H 	0.71487	0.55103	0.97783	0.094
Mof_C 	C 	0.71127	0.5656	0.07813	0.109
Mof_C 	C 	0.68257	0.56398	0.13023	-0.139
Mof_H 	H 	0.69237	0.57243	0.17693	0.082
Mof_C 	C 	0.63902	0.54961	0.11193	0.066
Mof_H 	H 	0.61977	0.54953	0.14653	0.027
Mof_C 	C 	0.75829	0.58503	0.09683	-0.064
Mof_C 	C 	0.77859	0.62393	0.13053	-0.041
Mof_H 	H 	0.76197	0.63723	0.14283	0.045
Mof_O 	O 	0.2208	0.85639	0.41045	-0.407
Mof_O 	O 	0.23293	0.84461	0.29939	-0.413
Mof_C 	C 	0.24438	0.85566	0.36037	0.372
Mof_C 	C 	0.29051	0.86925	0.38007	-0.126
Mof_C 	C 	0.31891	0.87049	0.32887	0.063
Mof_H 	H 	0.30883	0.86177	0.28237	0.029
Mof_C 	C 	0.36258	0.88471	0.34587	-0.14
Mof_H 	H 	0.38153	0.88437	0.31117	0.094
Mof_C 	C 	0.37793	0.89894	0.41147	0.109
Mof_C 	C 	0.34923	0.89732	0.46357	-0.139
Mof_H 	H 	0.35903	0.90577	0.51027	0.083
Mof_C 	C 	0.30568	0.88295	0.44527	0.066
Mof_H 	H 	0.28643	0.88287	0.47987	0.027
Mof_C 	C 	0.42495	0.91837	0.43017	-0.064
Mof_C 	C 	0.44525	0.95727	0.46387	-0.04
Mof_H 	H 	0.42863	0.97057	0.47617	0.045
Mof_O 	O 	0.30225	0.11253	0.74378	-0.407
Mof_O 	O 	0.27834	0.1004	0.63272	-0.413
Mof_C 	C 	0.27794	0.08895	0.6937	0.372
Mof_C 	C 	0.2454	0.04282	0.7134	-0.126
Mof_C 	C 	0.21824	0.01442	0.6622	0.063
Mof_H 	H 	0.2196	0.0245	0.6157	0.029
Mof_C 	C 	0.18879	0.97075	0.6792	-0.139
Mof_H 	H 	0.1695	0.9518	0.6445	0.094
Mof_C 	C 	0.18767	0.9554	0.7448	0.109
Mof_C 	C 	0.21475	0.9841	0.7969	-0.139
Mof_H 	H 	0.2134	0.9743	0.8436	0.082
Mof_C 	C 	0.24393	0.02765	0.7786	0.066
Mof_H 	H 	0.2631	0.0469	0.8132	0.027
Mof_C 	C 	0.16008	0.90838	0.7635	-0.064
Mof_C 	C 	0.17868	0.88808	0.7972	-0.04
Mof_H 	H 	0.2086	0.9047	0.8095	0.045
Mof_O 	O 	0.96892	0.44586	0.07711	-0.407
Mof_O 	O 	0.94501	0.43373	0.96605	-0.413
Mof_C 	C 	0.94461	0.42228	0.02703	0.372
Mof_C 	C 	0.91207	0.37615	0.04673	-0.125
Mof_C 	C 	0.88491	0.34775	0.99553	0.061
Mof_H 	H 	0.88627	0.35783	0.94903	0.029
Mof_C 	C 	0.85546	0.30408	0.01253	-0.137
Mof_H 	H 	0.83617	0.28513	0.97783	0.093
Mof_C 	C 	0.85434	0.28873	0.07813	0.108
Mof_C 	C 	0.88142	0.31743	0.13023	-0.138
Mof_H 	H 	0.88007	0.30763	0.17693	0.082
Mof_C 	C 	0.9106	0.36098	0.11193	0.065
Mof_H 	H 	0.92977	0.38023	0.14653	0.027
Mof_C 	C 	0.82675	0.24171	0.09683	-0.063
Mof_C 	C 	0.84535	0.22141	0.13053	-0.041
Mof_H 	H 	0.87527	0.23803	0.14283	0.046
Mof_O 	O 	0.63558	0.7792	0.41045	-0.407
Mof_O 	O 	0.61167	0.76707	0.29939	-0.413
Mof_C 	C 	0.61127	0.75562	0.36037	0.372
Mof_C 	C 	0.57873	0.70949	0.38007	-0.126
Mof_C 	C 	0.55157	0.68109	0.32887	0.063
Mof_H 	H 	0.55293	0.69117	0.28237	0.029
Mof_C 	C 	0.52212	0.63742	0.34587	-0.14
Mof_H 	H 	0.50283	0.61847	0.31117	0.094
Mof_C 	C 	0.521	0.62207	0.41147	0.109
Mof_C 	C 	0.54808	0.65077	0.46357	-0.139
Mof_H 	H 	0.54673	0.64097	0.51027	0.083
Mof_C 	C 	0.57726	0.69432	0.44527	0.066
Mof_H 	H 	0.59643	0.71357	0.47987	0.027
Mof_C 	C 	0.49341	0.57505	0.43017	-0.064
Mof_C 	C 	0.51201	0.55475	0.46387	-0.04
Mof_H 	H 	0.54193	0.57137	0.47617	0.045
Mof_Cu	Cu	0.31972	0.15986	0.60169	0.904
Mof_Cu	Cu	0.98639	0.49319	0.93502	0.904
Mof_Cu	Cu	0.65305	0.82653	0.26836	0.904
Mof_Cu	Cu	0.84014	0.15986	0.60169	0.904
Mof_Cu	Cu	0.50681	0.49319	0.93502	0.904
Mof_Cu	Cu	0.17347	0.82653	0.26836	0.904
Mof_Cu	Cu	0.84014	0.68028	0.60169	0.904
Mof_Cu	Cu	0.50681	0.01361	0.93502	0.904
Mof_Cu	Cu	0.17347	0.34695	0.26836	0.904
Mof_Cu	Cu	0.15986	0.31972	0.39831	0.904
Mof_Cu	Cu	0.82653	0.65305	0.73164	0.904
Mof_Cu	Cu	0.49319	0.98639	0.06498	0.904
Mof_Cu	Cu	0.15986	0.84014	0.39831	0.904
Mof_Cu	Cu	0.82653	0.17347	0.73164	0.904
Mof_Cu	Cu	0.49319	0.50681	0.06498	0.904
Mof_Cu	Cu	0.68028	0.84014	0.39831	0.904
Mof_Cu	Cu	0.34695	0.17347	0.73164	0.904
Mof_Cu	Cu	0.01361	0.50681	0.06498	0.904
Mof_O 	O 	0.09614	0.19228	0.7082	-0.237
Mof_C 	C 	0.15589	0.31178	0.8146	0.007
Mof_C 	C 	0.11583	0.23166	0.7461	0.135
Mof_C 	C 	0.0721	0.1442	0.8013	-0.096
Mof_C 	C 	0.0778	0.1556	0.7528	0.169
Mof_O 	O 	0.76281	0.52561	0.04153	-0.236
Mof_C 	C 	0.82256	0.64511	0.14793	0.007
Mof_C 	C 	0.7825	0.56499	0.07943	0.135
Mof_C 	C 	0.73877	0.47753	0.13463	-0.096
Mof_C 	C 	0.74447	0.48893	0.08613	0.169
Mof_O 	O 	0.42947	0.85895	0.37487	-0.237
Mof_C 	C 	0.48922	0.97845	0.48127	0.007
Mof_C 	C 	0.44916	0.89833	0.41277	0.135
Mof_C 	C 	0.40543	0.81087	0.46797	-0.096
Mof_C 	C 	0.41113	0.82227	0.41947	0.169
Mof_O 	O 	0.80772	0.90386	0.7082	-0.237
Mof_C 	C 	0.68822	0.84411	0.8146	0.007
Mof_C 	C 	0.76834	0.88417	0.7461	0.135
Mof_C 	C 	0.8558	0.9279	0.8013	-0.096
Mof_C 	C 	0.8444	0.9222	0.7528	0.169
Mof_O 	O 	0.47439	0.23719	0.04153	-0.236
Mof_C 	C 	0.35489	0.17744	0.14793	0.007
Mof_C 	C 	0.43501	0.2175	0.07943	0.135
Mof_C 	C 	0.52247	0.26123	0.13463	-0.096
Mof_C 	C 	0.51107	0.25553	0.08613	0.169
Mof_O 	O 	0.14105	0.57053	0.37487	-0.237
Mof_C 	C 	0.02155	0.51078	0.48127	0.007
Mof_C 	C 	0.10167	0.55084	0.41277	0.135
Mof_C 	C 	0.18913	0.59457	0.46797	-0.096
Mof_C 	C 	0.17773	0.58887	0.41947	0.169
Mof_O 	O 	0.09614	0.90386	0.7082	-0.237
Mof_C 	C 	0.15589	0.84411	0.8146	0.007
Mof_C 	C 	0.11583	0.88417	0.7461	0.135
Mof_C 	C 	0.0721	0.9279	0.8013	-0.096
Mof_C 	C 	0.0778	0.9222	0.7528	0.169
Mof_O 	O 	0.76281	0.23719	0.04153	-0.236
Mof_C 	C 	0.82256	0.17744	0.14793	0.007
Mof_C 	C 	0.7825	0.2175	0.07943	0.135
Mof_C 	C 	0.73877	0.26123	0.13463	-0.096
Mof_C 	C 	0.74447	0.25553	0.08613	0.169
Mof_O 	O 	0.42947	0.57053	0.37487	-0.237
Mof_C 	C 	0.48922	0.51078	0.48127	0.007
Mof_C 	C 	0.44916	0.55084	0.41277	0.135
Mof_C 	C 	0.40543	0.59457	0.46797	-0.096
Mof_C 	C 	0.41113	0.58887	0.41947	0.169
Mof_O 	O 	0.19228	0.09614	0.2918	-0.237
Mof_C 	C 	0.31178	0.15589	0.1854	0.007
Mof_C 	C 	0.23166	0.11583	0.2539	0.135
Mof_C 	C 	0.1442	0.0721	0.1987	-0.096
Mof_C 	C 	0.1556	0.0778	0.2472	0.169
Mof_O 	O 	0.85895	0.42947	0.62513	-0.237
Mof_C 	C 	0.97845	0.48922	0.51873	0.007
Mof_C 	C 	0.89833	0.44916	0.58723	0.135
Mof_C 	C 	0.81087	0.40543	0.53203	-0.096
Mof_C 	C 	0.82227	0.41113	0.58053	0.169
Mof_O 	O 	0.52561	0.76281	0.95847	-0.236
Mof_C 	C 	0.64511	0.82256	0.85207	0.007
Mof_C 	C 	0.56499	0.7825	0.92057	0.135
Mof_C 	C 	0.47753	0.73877	0.86537	-0.096
Mof_C 	C 	0.48893	0.74447	0.91387	0.169
Mof_O 	O 	0.90386	0.80772	0.2918	-0.237
Mof_C 	C 	0.84411	0.68822	0.1854	0.007
Mof_C 	C 	0.88417	0.76834	0.2539	0.135
Mof_C 	C 	0.9279	0.8558	0.1987	-0.096
Mof_C 	C 	0.9222	0.8444	0.2472	0.169
Mof_O 	O 	0.57053	0.14105	0.62513	-0.237
Mof_C 	C 	0.51078	0.02155	0.51873	0.007
Mof_C 	C 	0.55084	0.10167	0.58723	0.135
Mof_C 	C 	0.59457	0.18913	0.53203	-0.096
Mof_C 	C 	0.58887	0.17773	0.58053	0.169
Mof_O 	O 	0.23719	0.47439	0.95847	-0.236
Mof_C 	C 	0.17744	0.35489	0.85207	0.007
Mof_C 	C 	0.2175	0.43501	0.92057	0.135
Mof_C 	C 	0.26123	0.52247	0.86537	-0.096
Mof_C 	C 	0.25553	0.51107	0.91387	0.169
Mof_O 	O 	0.90386	0.09614	0.2918	-0.237
Mof_C 	C 	0.84411	0.15589	0.1854	0.007
Mof_C 	C 	0.88417	0.11583	0.2539	0.135
Mof_C 	C 	0.9279	0.0721	0.1987	-0.096
Mof_C 	C 	0.9222	0.0778	0.2472	0.169
Mof_O 	O 	0.57053	0.42947	0.62513	-0.237
Mof_C 	C 	0.51078	0.48922	0.51873	0.007
Mof_C 	C 	0.55084	0.44916	0.58723	0.135
Mof_C 	C 	0.59457	0.40543	0.53203	-0.096
Mof_C 	C 	0.58887	0.41113	0.58053	0.169
Mof_O 	O 	0.23719	0.76281	0.95847	-0.236
Mof_C 	C 	0.17744	0.82256	0.85207	0.007
Mof_C 	C 	0.2175	0.7825	0.92057	0.135
Mof_C 	C 	0.26123	0.73877	0.86537	-0.096
Mof_C 	C 	0.25553	0.74447	0.91387	0.169
_end
