data_functionalizedCrystal
_audit_creation_method	'EQeq! by Chris Wilmer'
_symmetry_space_group_name_H-M	'P1'
_symmetry_Int_Tables_number	1
_symmetry_cell_setting	triclinic
loop_
_symmetry_equiv_pos_as_xyz
  x,y,z
_cell_length_a	7.2782
_cell_length_b	7.5613
_cell_length_c	7.482
_cell_angle_alpha	90
_cell_angle_beta	101.494
_cell_angle_gamma	90
loop_
_atom_site_label
_atom_site_type_symbol
_atom_site_fract_x
_atom_site_fract_y
_atom_site_fract_z
_atom_site_charge
Mof_N 	N 	0.2903	0.2994	0.9719	-0.14
Mof_C 	C 	0.1847	0.1876	0.981	0.156
Mof_N 	N 	0.7097	0.2994	0.0281	-0.171
Mof_C 	C 	0.8153	0.1876	0.019	0.07
Mof_N 	N 	0.7097	0.7006	0.0281	-0.171
Mof_C 	C 	0.8153	0.8124	0.019	0.068
Mof_N 	N 	0.2903	0.7006	0.9719	-0.14
Mof_C 	C 	0.1847	0.8124	0.981	0.154
Mof_Pt	Pt	-0	0	-0	-0.012
Mof_Fe	Fe	0.5	0.5	-0	0.635
Mof_N 	N 	0.5046	0.5	0.2915	-0.164
Mof_C 	C 	0.343	0.5	0.377	-0.14
Mof_H 	H 	0.2266	0.5	0.2989	0.123
Mof_C 	C 	0.658	0.5	0.442	0.319
Mof_F 	F 	0.848	0.5	0.403	-0.395
Mof_N 	N 	0.4954	0.5	0.7085	-0.136
Mof_C 	C 	0.657	0.5	0.623	-0.133
Mof_H 	H 	0.7734	0.5	0.7011	0.155
Mof_C 	C 	0.342	0.5	0.558	0.319
Mof_F 	F 	0.152	0.5	0.597	-0.397
_end
