data_functionalizedCrystal
_audit_creation_method	'EQeq! by Chris Wilmer'
_symmetry_space_group_name_H-M	'P1'
_symmetry_Int_Tables_number	1
_symmetry_cell_setting	triclinic
loop_
_symmetry_equiv_pos_as_xyz
  x,y,z
_cell_length_a	11.838
_cell_length_b	24.772
_cell_length_c	15.773
_cell_angle_alpha	90
_cell_angle_beta	96.834
_cell_angle_gamma	90
loop_
_atom_site_label
_atom_site_type_symbol
_atom_site_fract_x
_atom_site_fract_y
_atom_site_fract_z
_atom_site_charge
Mof_Co	Co	0.91188	0.33503	0.00753	1.199
Mof_C 	C 	0.0185	0.37432	0.1741	0.403
Mof_C 	C 	0.9797	0.3723	0.2593	-0.226
Mof_H 	H 	0.9283	0.4024	0.2637	0.108
Mof_H 	H 	0.9357	0.3395	0.2627	0.119
Mof_C 	C 	0.1242	0.60863	0.1516	0.368
Mof_C 	C 	0.1054	0.55709	0.2009	-0.178
Mof_H 	H 	0.0245	0.5502	0.1989	0.097
Mof_H 	H 	0.1394	0.5268	0.1743	0.093
Mof_C 	C 	0.1032	0.46775	0.305	-0.242
Mof_H 	H 	0.0699	0.4653	0.2487	0.126
Mof_C 	C 	0.15	0.51561	0.3357	0.174
Mof_C 	C 	0.1994	0.52077	0.4197	-0.069
Mof_C 	C 	0.202	0.47474	0.4706	-0.017
Mof_H 	H 	0.236	0.477	0.5267	0.046
Mof_C 	C 	0.1562	0.42554	0.4414	-0.069
Mof_C 	C 	0.1058	0.4231	0.3582	0.181
Mof_C 	C 	0.1591	0.37479	0.4978	0.028
Mof_H 	H 	0.1842	0.3451	0.4634	0.055
Mof_C 	C 	0.2477	0.37969	0.5757	-0.139
Mof_C 	C 	0.2287	0.4074	0.6475	0.182
Mof_H 	H 	0.1561	0.4204	0.6525	-0.024
Mof_C 	C 	0.3154	0.4165	0.7129	-0.392
Mof_H 	H 	0.3004	0.4358	0.761	0.165
Mof_C 	C 	0.4236	0.3973	0.7078	0.464
Mof_C 	C 	0.5206	0.4106	0.7792	-0.984
Mof_H 	H 	0.5898	0.394	0.7662	0.337
Mof_H 	H 	0.5015	0.3969	0.8326	0.324
Mof_H 	H 	0.5308	0.449	0.783	0.311
Mof_C 	C 	0.4414	0.3682	0.6374	-0.415
Mof_H 	H 	0.5133	0.3541	0.6331	0.195
Mof_C 	C 	0.3557	0.3593	0.5729	0.202
Mof_H 	H 	0.3705	0.3389	0.5259	-0.025
Mof_C 	C 	0.182	0.1809	0.5267	0.405
Mof_C 	C 	0.0779	0.21357	0.5344	-0.211
Mof_H 	H 	0.0172	0.2023	0.4912	0.101
Mof_H 	H 	0.0529	0.2077	0.59	0.102
Mof_C 	C 	0.5722	0.24638	0.5343	0.368
Mof_C 	C 	0.6525	0.28639	0.5034	-0.203
Mof_H 	H 	0.7031	0.268	0.4688	0.107
Mof_H 	H 	0.6097	0.313	0.4677	0.111
Mof_C 	C 	0.9074	0.28979	0.5479	-0.223
Mof_H 	H 	0.8902	0.2535	0.5547	0.12
Mof_C 	C 	0.8259	0.3289	0.5549	0.176
Mof_C 	C 	0.8483	0.38333	0.5456	-0.052
Mof_C 	C 	0.9571	0.39709	0.5279	-0.014
Mof_H 	H 	0.9739	0.4334	0.5214	0.049
Mof_C 	C 	0.0418	0.35945	0.5194	-0.048
Mof_C 	C 	0.015	0.30492	0.5308	0.174
Mof_C 	C 	0.7544	0.42462	0.5488	0.029
Mof_H 	H 	0.7075	0.4116	0.5917	0.042
Mof_C 	C 	0.6762	0.42654	0.4642	-0.136
Mof_C 	C 	0.7141	0.4144	0.388	0.168
Mof_H 	H 	0.7905	0.4064	0.3863	-0.022
Mof_C 	C 	0.6386	0.4141	0.3118	-0.392
Mof_H 	H 	0.6659	0.4057	0.2605	0.166
Mof_C 	C 	0.526	0.4259	0.3122	0.464
Mof_C 	C 	0.4447	0.4243	0.2287	-0.999
Mof_H 	H 	0.4864	0.4146	0.1823	0.324
Mof_H 	H 	0.4109	0.4592	0.218	0.315
Mof_H 	H 	0.3861	0.3981	0.2335	0.339
Mof_C 	C 	0.4894	0.4386	0.3881	-0.404
Mof_H 	H 	0.4132	0.4474	0.3894	0.175
Mof_C 	C 	0.5625	0.4388	0.464	0.177
Mof_H 	H 	0.5345	0.4473	0.515	-0.027
Mof_O 	O 	0.9358	0.37417	0.1149	-0.447
Mof_O 	O 	0.1199	0.37619	0.1658	-0.289
Mof_O 	O 	0.0893	0.60358	0.07156	-0.425
Mof_O 	O 	0.1648	0.64871	0.1849	-0.287
Mof_O 	O 	0.2699	0.20397	0.5113	-0.433
Mof_O 	O 	0.1705	0.13173	0.5342	-0.325
Mof_O 	O 	0.5164	0.21949	0.47367	-0.43
Mof_O 	O 	0.5606	0.24159	0.61	-0.287
Mof_O 	O 	0.0624	0.37378	0.33085	-0.162
Mof_O 	O 	0.1534	0.56147	0.28561	-0.177
Mof_O 	O 	0.7178	0.31279	0.57245	-0.163
Mof_O 	O 	0.1013	0.269	0.52395	-0.159
Mof_Co	Co	0.58812	0.83503	0.49247	1.201
Mof_C 	C 	0.4815	0.87432	0.3259	0.399
Mof_C 	C 	0.5203	0.8723	0.2407	-0.219
Mof_H 	H 	0.5717	0.9024	0.2363	0.108
Mof_H 	H 	0.5643	0.8395	0.2373	0.119
Mof_C 	C 	0.3758	0.10863	0.3484	0.369
Mof_C 	C 	0.3946	0.05709	0.2991	-0.177
Mof_H 	H 	0.4755	0.0502	0.3011	0.098
Mof_H 	H 	0.3606	0.0268	0.3257	0.093
Mof_C 	C 	0.3968	0.96775	0.195	-0.241
Mof_H 	H 	0.4301	0.9653	0.2513	0.126
Mof_C 	C 	0.35	0.01561	0.1643	0.174
Mof_C 	C 	0.3006	0.02077	0.0803	-0.07
Mof_C 	C 	0.298	0.97474	0.0294	-0.012
Mof_H 	H 	0.264	0.977	0.9733	0.043
Mof_C 	C 	0.3438	0.92554	0.0586	-0.072
Mof_C 	C 	0.3942	0.9231	0.1418	0.182
Mof_C 	C 	0.3409	0.87479	0.0022	0.034
Mof_H 	H 	0.3158	0.8451	0.0366	0.054
Mof_C 	C 	0.2523	0.87969	0.9243	-0.145
Mof_C 	C 	0.2713	0.9074	0.8525	0.187
Mof_H 	H 	0.3439	0.9204	0.8475	-0.026
Mof_C 	C 	0.1846	0.9165	0.7871	-0.396
Mof_H 	H 	0.1996	0.9358	0.739	0.167
Mof_C 	C 	0.0764	0.8973	0.7922	0.468
Mof_C 	C 	0.9794	0.9106	0.7208	-0.988
Mof_H 	H 	0.9102	0.894	0.7338	0.338
Mof_H 	H 	0.9985	0.8969	0.6674	0.325
Mof_H 	H 	0.9692	0.949	0.717	0.312
Mof_C 	C 	0.0586	0.8682	0.8626	-0.423
Mof_H 	H 	0.9867	0.8541	0.8669	0.199
Mof_C 	C 	0.1443	0.8593	0.9271	0.209
Mof_H 	H 	0.1295	0.8389	0.9741	-0.028
Mof_C 	C 	0.318	0.6809	0.9733	0.405
Mof_C 	C 	0.4221	0.71357	0.9656	-0.212
Mof_H 	H 	0.4828	0.7023	0.0088	0.102
Mof_H 	H 	0.4471	0.7077	0.91	0.103
Mof_C 	C 	0.9278	0.74638	0.9657	0.369
Mof_C 	C 	0.8475	0.78639	0.9966	-0.196
Mof_H 	H 	0.7969	0.768	0.0312	0.104
Mof_H 	H 	0.8903	0.813	0.0323	0.107
Mof_C 	C 	0.5926	0.78979	0.9521	-0.224
Mof_H 	H 	0.6098	0.7535	0.9453	0.121
Mof_C 	C 	0.6741	0.8289	0.9451	0.177
Mof_C 	C 	0.6517	0.88333	0.9544	-0.052
Mof_C 	C 	0.5429	0.89709	0.9721	-0.013
Mof_H 	H 	0.5261	0.9334	0.9786	0.048
Mof_C 	C 	0.4582	0.85945	0.9806	-0.05
Mof_C 	C 	0.485	0.80492	0.9692	0.175
Mof_C 	C 	0.7456	0.92462	0.9512	0.025
Mof_H 	H 	0.7925	0.9116	0.9083	0.043
Mof_C 	C 	0.8238	0.92654	0.0358	-0.123
Mof_C 	C 	0.7859	0.9144	0.112	0.152
Mof_H 	H 	0.7095	0.9064	0.1137	-0.016
Mof_C 	C 	0.8614	0.9141	0.1882	-0.372
Mof_H 	H 	0.8341	0.9057	0.2395	0.159
Mof_C 	C 	0.974	0.9259	0.1878	0.439
Mof_C 	C 	0.0553	0.9243	0.2713	-0.97
Mof_H 	H 	0.0136	0.9146	0.3177	0.316
Mof_H 	H 	0.0891	0.9592	0.282	0.307
Mof_H 	H 	0.1139	0.8981	0.2665	0.331
Mof_C 	C 	0.0106	0.9386	0.1119	-0.374
Mof_H 	H 	0.0868	0.9474	0.1106	0.165
Mof_C 	C 	0.9375	0.9388	0.036	0.151
Mof_H 	H 	0.9655	0.9473	0.985	-0.017
Mof_O 	O 	0.5642	0.87417	0.3851	-0.444
Mof_O 	O 	0.3801	0.87619	0.3342	-0.287
Mof_O 	O 	0.4107	0.10358	0.42844	-0.427
Mof_O 	O 	0.3352	0.14871	0.3151	-0.288
Mof_O 	O 	0.2301	0.70397	0.9887	-0.433
Mof_O 	O 	0.3295	0.63173	0.9658	-0.326
Mof_O 	O 	0.9836	0.71949	0.02633	-0.432
Mof_O 	O 	0.9394	0.74159	0.89	-0.287
Mof_O 	O 	0.4376	0.87378	0.16915	-0.163
Mof_O 	O 	0.3466	0.06147	0.21439	-0.177
Mof_O 	O 	0.7822	0.81279	0.92755	-0.164
Mof_O 	O 	0.3987	0.769	0.97605	-0.159
Mof_Co	Co	0.08812	0.66497	0.99247	1.2
Mof_C 	C 	0.9815	0.62568	0.8259	0.404
Mof_C 	C 	0.0203	0.6277	0.7407	-0.225
Mof_H 	H 	0.0717	0.5976	0.7363	0.109
Mof_H 	H 	0.0643	0.6605	0.7373	0.12
Mof_C 	C 	0.8758	0.39137	0.8484	0.369
Mof_C 	C 	0.8946	0.44291	0.7991	-0.177
Mof_H 	H 	0.9755	0.4498	0.8011	0.098
Mof_H 	H 	0.8606	0.4732	0.8257	0.094
Mof_C 	C 	0.8968	0.53225	0.695	-0.241
Mof_H 	H 	0.9301	0.5347	0.7513	0.126
Mof_C 	C 	0.85	0.48439	0.6643	0.174
Mof_C 	C 	0.8006	0.47923	0.5803	-0.069
Mof_C 	C 	0.798	0.52526	0.5294	-0.017
Mof_H 	H 	0.764	0.523	0.4733	0.046
Mof_C 	C 	0.8438	0.57446	0.5586	-0.069
Mof_C 	C 	0.8942	0.5769	0.6418	0.181
Mof_C 	C 	0.8409	0.62521	0.5022	0.028
Mof_H 	H 	0.8158	0.6549	0.5366	0.055
Mof_C 	C 	0.7523	0.62031	0.4243	-0.139
Mof_C 	C 	0.7713	0.5926	0.3525	0.182
Mof_H 	H 	0.8439	0.5796	0.3475	-0.024
Mof_C 	C 	0.6846	0.5835	0.2871	-0.392
Mof_H 	H 	0.6996	0.5642	0.239	0.165
Mof_C 	C 	0.5764	0.6027	0.2922	0.464
Mof_C 	C 	0.4794	0.5894	0.2208	-0.984
Mof_H 	H 	0.4102	0.606	0.2338	0.337
Mof_H 	H 	0.4985	0.6031	0.1674	0.324
Mof_H 	H 	0.4692	0.551	0.217	0.311
Mof_C 	C 	0.5586	0.6318	0.3626	-0.415
Mof_H 	H 	0.4867	0.6459	0.3669	0.195
Mof_C 	C 	0.6443	0.6407	0.4271	0.202
Mof_H 	H 	0.6295	0.6611	0.4741	-0.025
Mof_C 	C 	0.818	0.8191	0.4733	0.405
Mof_C 	C 	0.9221	0.78643	0.4656	-0.211
Mof_H 	H 	0.9828	0.7977	0.5088	0.101
Mof_H 	H 	0.9471	0.7923	0.41	0.102
Mof_C 	C 	0.4278	0.75362	0.4657	0.368
Mof_C 	C 	0.3475	0.71361	0.4966	-0.203
Mof_H 	H 	0.2969	0.732	0.5312	0.107
Mof_H 	H 	0.3903	0.687	0.5323	0.111
Mof_C 	C 	0.0926	0.71021	0.4521	-0.223
Mof_H 	H 	0.1098	0.7465	0.4453	0.12
Mof_C 	C 	0.1741	0.6711	0.4451	0.176
Mof_C 	C 	0.1517	0.61667	0.4544	-0.052
Mof_C 	C 	0.0429	0.60291	0.4721	-0.014
Mof_H 	H 	0.0261	0.5666	0.4786	0.049
Mof_C 	C 	0.9582	0.64055	0.4806	-0.048
Mof_C 	C 	0.985	0.69508	0.4692	0.174
Mof_C 	C 	0.2456	0.57538	0.4512	0.029
Mof_H 	H 	0.2925	0.5884	0.4083	0.042
Mof_C 	C 	0.3238	0.57346	0.5358	-0.136
Mof_C 	C 	0.2859	0.5856	0.612	0.168
Mof_H 	H 	0.2095	0.5936	0.6137	-0.022
Mof_C 	C 	0.3614	0.5859	0.6882	-0.392
Mof_H 	H 	0.3341	0.5943	0.7395	0.166
Mof_C 	C 	0.474	0.5741	0.6878	0.464
Mof_C 	C 	0.5553	0.5757	0.7713	-0.999
Mof_H 	H 	0.5136	0.5854	0.8177	0.324
Mof_H 	H 	0.5891	0.5408	0.782	0.315
Mof_H 	H 	0.6139	0.6019	0.7665	0.339
Mof_C 	C 	0.5106	0.5614	0.6119	-0.404
Mof_H 	H 	0.5868	0.5526	0.6106	0.175
Mof_C 	C 	0.4375	0.5612	0.536	0.177
Mof_H 	H 	0.4655	0.5527	0.485	-0.027
Mof_O 	O 	0.0642	0.62583	0.8851	-0.447
Mof_O 	O 	0.8801	0.62381	0.8342	-0.289
Mof_O 	O 	0.9107	0.39642	0.92844	-0.425
Mof_O 	O 	0.8352	0.35129	0.8151	-0.287
Mof_O 	O 	0.7301	0.79603	0.4887	-0.433
Mof_O 	O 	0.8295	0.86827	0.4658	-0.325
Mof_O 	O 	0.4836	0.78051	0.52633	-0.43
Mof_O 	O 	0.4394	0.75841	0.39	-0.287
Mof_O 	O 	0.9376	0.62622	0.66915	-0.162
Mof_O 	O 	0.8466	0.43853	0.71439	-0.177
Mof_O 	O 	0.2822	0.68721	0.42755	-0.163
Mof_O 	O 	0.8987	0.731	0.47605	-0.159
Mof_Co	Co	0.41188	0.16497	0.50753	1.201
Mof_C 	C 	0.5185	0.12568	0.6741	0.399
Mof_C 	C 	0.4797	0.1277	0.7593	-0.219
Mof_H 	H 	0.4283	0.0976	0.7637	0.108
Mof_H 	H 	0.4357	0.1605	0.7627	0.119
Mof_C 	C 	0.6242	0.89137	0.6516	0.369
Mof_C 	C 	0.6054	0.94291	0.7009	-0.177
Mof_H 	H 	0.5245	0.9498	0.6989	0.098
Mof_H 	H 	0.6394	0.9732	0.6743	0.093
Mof_C 	C 	0.6032	0.03225	0.805	-0.241
Mof_H 	H 	0.5699	0.0347	0.7487	0.126
Mof_C 	C 	0.65	0.98439	0.8357	0.174
Mof_C 	C 	0.6994	0.97923	0.9197	-0.07
Mof_C 	C 	0.702	0.02526	0.9706	-0.012
Mof_H 	H 	0.736	0.023	0.0267	0.043
Mof_C 	C 	0.6562	0.07446	0.9414	-0.072
Mof_C 	C 	0.6058	0.0769	0.8582	0.182
Mof_C 	C 	0.6591	0.12521	0.9978	0.034
Mof_H 	H 	0.6842	0.1549	0.9634	0.054
Mof_C 	C 	0.7477	0.12031	0.0757	-0.145
Mof_C 	C 	0.7287	0.0926	0.1475	0.187
Mof_H 	H 	0.6561	0.0796	0.1525	-0.026
Mof_C 	C 	0.8154	0.0835	0.2129	-0.396
Mof_H 	H 	0.8004	0.0642	0.261	0.167
Mof_C 	C 	0.9236	0.1027	0.2078	0.468
Mof_C 	C 	0.0206	0.0894	0.2792	-0.988
Mof_H 	H 	0.0898	0.106	0.2662	0.338
Mof_H 	H 	0.0015	0.1031	0.3326	0.325
Mof_H 	H 	0.0308	0.051	0.283	0.312
Mof_C 	C 	0.9414	0.1318	0.1374	-0.423
Mof_H 	H 	0.0133	0.1459	0.1331	0.199
Mof_C 	C 	0.8557	0.1407	0.0729	0.209
Mof_H 	H 	0.8705	0.1611	0.0259	-0.028
Mof_C 	C 	0.682	0.3191	0.0267	0.405
Mof_C 	C 	0.5779	0.28643	0.0344	-0.212
Mof_H 	H 	0.5172	0.2977	0.9912	0.102
Mof_H 	H 	0.5529	0.2923	0.09	0.103
Mof_C 	C 	0.0722	0.25362	0.0343	0.369
Mof_C 	C 	0.1525	0.21361	0.0034	-0.196
Mof_H 	H 	0.2031	0.232	0.9688	0.104
Mof_H 	H 	0.1097	0.187	0.9677	0.107
Mof_C 	C 	0.4074	0.21021	0.0479	-0.224
Mof_H 	H 	0.3902	0.2465	0.0547	0.121
Mof_C 	C 	0.3259	0.1711	0.0549	0.177
Mof_C 	C 	0.3483	0.11667	0.0456	-0.052
Mof_C 	C 	0.4571	0.10291	0.0279	-0.013
Mof_H 	H 	0.4739	0.0666	0.0214	0.048
Mof_C 	C 	0.5418	0.14055	0.0194	-0.05
Mof_C 	C 	0.515	0.19508	0.0308	0.175
Mof_C 	C 	0.2544	0.07538	0.0488	0.025
Mof_H 	H 	0.2075	0.0884	0.0917	0.043
Mof_C 	C 	0.1762	0.07346	0.9642	-0.123
Mof_C 	C 	0.2141	0.0856	0.888	0.152
Mof_H 	H 	0.2905	0.0936	0.8863	-0.016
Mof_C 	C 	0.1386	0.0859	0.8118	-0.372
Mof_H 	H 	0.1659	0.0943	0.7605	0.159
Mof_C 	C 	0.026	0.0741	0.8122	0.439
Mof_C 	C 	0.9447	0.0757	0.7287	-0.97
Mof_H 	H 	0.9864	0.0854	0.6823	0.316
Mof_H 	H 	0.9109	0.0408	0.718	0.307
Mof_H 	H 	0.8861	0.1019	0.7335	0.331
Mof_C 	C 	0.9894	0.0614	0.8881	-0.374
Mof_H 	H 	0.9132	0.0526	0.8894	0.165
Mof_C 	C 	0.0625	0.0612	0.964	0.151
Mof_H 	H 	0.0345	0.0527	0.015	-0.017
Mof_O 	O 	0.4358	0.12583	0.6149	-0.444
Mof_O 	O 	0.6199	0.12381	0.6658	-0.287
Mof_O 	O 	0.5893	0.89642	0.57156	-0.427
Mof_O 	O 	0.6648	0.85129	0.6849	-0.288
Mof_O 	O 	0.7699	0.29603	0.0113	-0.433
Mof_O 	O 	0.6705	0.36827	0.0342	-0.326
Mof_O 	O 	0.0164	0.28051	0.97367	-0.432
Mof_O 	O 	0.0606	0.25841	0.11	-0.287
Mof_O 	O 	0.5624	0.12622	0.83085	-0.163
Mof_O 	O 	0.6534	0.93853	0.78561	-0.177
Mof_O 	O 	0.2178	0.18721	0.07245	-0.164
Mof_O 	O 	0.6013	0.231	0.02395	-0.159
_end
