data_functionalizedCrystal
_audit_creation_method	'EQeq! by Chris Wilmer'
_symmetry_space_group_name_H-M	'P1'
_symmetry_Int_Tables_number	1
_symmetry_cell_setting	triclinic
loop_
_symmetry_equiv_pos_as_xyz
  x,y,z
_cell_length_a	9.8054
_cell_length_b	17.9814
_cell_length_c	11.9775
_cell_angle_alpha	90
_cell_angle_beta	97.881
_cell_angle_gamma	90
loop_
_atom_site_label
_atom_site_type_symbol
_atom_site_fract_x
_atom_site_fract_y
_atom_site_fract_z
_atom_site_charge
Mof_C 	C 	0.3221	0.0912	0.189	0.287
Mof_C 	C 	0.8363	0.1394	0.2049	0.293
Mof_C 	C 	0.5792	0.1157	0.2008	-0.029
Mof_H 	H 	0.589	0.0688	0.1661	0.072
Mof_C 	C 	0.4493	0.1382	0.2235	-0.021
Mof_C 	C 	0.696	0.1612	0.2284	-0.029
Mof_C 	C 	0.4352	0.2059	0.2791	-0.094
Mof_H 	H 	0.3482	0.2211	0.2976	0.091
Mof_C 	C 	0.6795	0.2305	0.2807	-0.092
Mof_H 	H 	0.7557	0.2631	0.2979	0.084
Mof_C 	C 	0.551	0.2502	0.3064	0.104
Mof_C 	C 	0.563	0.3339	0.4746	0.105
Mof_H 	H 	0.5972	0.2977	0.5291	0.011
Mof_C 	C 	0.4885	0.3875	0.3157	0.083
Mof_C 	C 	0.4423	0.4073	0.1963	0.051
Mof_C 	C 	0.4394	0.3601	0.105	-0.102
Mof_H 	H 	0.4733	0.3107	0.1142	0.076
Mof_C 	C 	0.3854	0.3871	0.9991	0.038
Mof_H 	H 	0.3845	0.3564	0.9345	0.026
Mof_C 	C 	0.3339	0.4572	0.9882	-0.108
Mof_H 	H 	0.2917	0.4749	0.9169	0.079
Mof_C 	C 	0.344	0.5031	0.0831	0.063
Mof_H 	H 	0.312	0.5529	0.075	0.013
Mof_N 	N 	0.5347	0.32135	0.3621	-0.144
Mof_N 	N 	0.5359	0.40396	0.4973	-0.208
Mof_N 	N 	0.4889	0.43771	0.3956	-0.214
Mof_N 	N 	0.3984	0.4782	0.1867	-0.22
Mof_O 	O 	0.3293	0.0333	0.1322	-0.3
Mof_O 	O 	0.2095	0.11575	0.2183	-0.419
Mof_O 	O 	0.8602	0.07042	0.1922	-0.418
Mof_O 	O 	0.9244	0.1894	0.1978	-0.276
Mof_Zn	Zn	0.44553	0.54772	0.33909	1.206
Mof_C 	C 	0.1779	0.5912	0.311	0.286
Mof_C 	C 	0.6637	0.6394	0.2951	0.292
Mof_C 	C 	0.9208	0.6157	0.2992	-0.029
Mof_H 	H 	0.911	0.5688	0.3339	0.071
Mof_C 	C 	0.0507	0.6382	0.2765	-0.022
Mof_C 	C 	0.804	0.6612	0.2716	-0.03
Mof_C 	C 	0.0648	0.7059	0.2209	-0.095
Mof_H 	H 	0.1518	0.7211	0.2024	0.09
Mof_C 	C 	0.8205	0.7305	0.2193	-0.093
Mof_H 	H 	0.7443	0.7631	0.2021	0.083
Mof_C 	C 	0.949	0.7502	0.1936	0.104
Mof_C 	C 	0.937	0.8339	0.0254	0.113
Mof_H 	H 	0.9028	0.7977	0.9709	0.003
Mof_C 	C 	0.0115	0.8875	0.1843	0.084
Mof_C 	C 	0.0577	0.9073	0.3037	0.049
Mof_C 	C 	0.0606	0.8601	0.395	-0.095
Mof_H 	H 	0.0267	0.8107	0.3858	0.074
Mof_C 	C 	0.1146	0.8871	0.5009	0.03
Mof_H 	H 	0.1155	0.8564	0.5655	0.029
Mof_C 	C 	0.1661	0.9572	0.5118	-0.098
Mof_H 	H 	0.2083	0.9749	0.5831	0.076
Mof_C 	C 	0.156	0.0031	0.4169	0.052
Mof_H 	H 	0.188	0.0529	0.425	0.016
Mof_N 	N 	0.9653	0.82135	0.1379	-0.146
Mof_N 	N 	0.9641	0.90396	0.0027	-0.208
Mof_N 	N 	0.0111	0.93771	0.1044	-0.213
Mof_N 	N 	0.1016	0.9782	0.3133	-0.215
Mof_O 	O 	0.1707	0.5333	0.3678	-0.298
Mof_O 	O 	0.2905	0.61575	0.2817	-0.417
Mof_O 	O 	0.6398	0.57042	0.3078	-0.42
Mof_O 	O 	0.5756	0.6894	0.3022	-0.279
Mof_Zn	Zn	0.05447	0.04772	0.16091	1.204
Mof_C 	C 	0.6779	0.9088	0.811	0.286
Mof_C 	C 	0.1637	0.8606	0.7951	0.292
Mof_C 	C 	0.4208	0.8843	0.7992	-0.03
Mof_H 	H 	0.411	0.9312	0.8339	0.071
Mof_C 	C 	0.5507	0.8618	0.7765	-0.022
Mof_C 	C 	0.304	0.8388	0.7716	-0.03
Mof_C 	C 	0.5648	0.7941	0.7209	-0.095
Mof_H 	H 	0.6518	0.7789	0.7024	0.09
Mof_C 	C 	0.3205	0.7695	0.7193	-0.093
Mof_H 	H 	0.2443	0.7369	0.7021	0.083
Mof_C 	C 	0.449	0.7498	0.6936	0.103
Mof_C 	C 	0.437	0.6661	0.5254	0.104
Mof_H 	H 	0.4028	0.7023	0.4709	0.011
Mof_C 	C 	0.5115	0.6125	0.6843	0.083
Mof_C 	C 	0.5577	0.5927	0.8037	0.051
Mof_C 	C 	0.5606	0.6399	0.895	-0.102
Mof_H 	H 	0.5267	0.6893	0.8858	0.076
Mof_C 	C 	0.6146	0.6129	0.0009	0.038
Mof_H 	H 	0.6155	0.6436	0.0655	0.026
Mof_C 	C 	0.6661	0.5428	0.0118	-0.108
Mof_H 	H 	0.7083	0.5251	0.0831	0.079
Mof_C 	C 	0.656	0.4969	0.9169	0.063
Mof_H 	H 	0.688	0.4471	0.925	0.013
Mof_N 	N 	0.4653	0.67865	0.6379	-0.144
Mof_N 	N 	0.4641	0.59604	0.5027	-0.208
Mof_N 	N 	0.5111	0.56229	0.6044	-0.214
Mof_N 	N 	0.6016	0.5218	0.8133	-0.22
Mof_O 	O 	0.6707	0.9667	0.8678	-0.3
Mof_O 	O 	0.7905	0.88425	0.7817	-0.419
Mof_O 	O 	0.1398	0.92958	0.8078	-0.418
Mof_O 	O 	0.0756	0.8106	0.8022	-0.276
Mof_Zn	Zn	0.55447	0.45228	0.66091	1.206
Mof_C 	C 	0.8221	0.4088	0.689	0.286
Mof_C 	C 	0.3363	0.3606	0.7049	0.292
Mof_C 	C 	0.0792	0.3843	0.7008	-0.029
Mof_H 	H 	0.089	0.4312	0.6661	0.071
Mof_C 	C 	0.9493	0.3618	0.7235	-0.022
Mof_C 	C 	0.196	0.3388	0.7284	-0.03
Mof_C 	C 	0.9352	0.2941	0.7791	-0.095
Mof_H 	H 	0.8482	0.2789	0.7976	0.09
Mof_C 	C 	0.1795	0.2695	0.7807	-0.093
Mof_H 	H 	0.2557	0.2369	0.7979	0.083
Mof_C 	C 	0.051	0.2498	0.8064	0.104
Mof_C 	C 	0.063	0.1661	0.9746	0.113
Mof_H 	H 	0.0972	0.2023	0.0291	0.003
Mof_C 	C 	0.9885	0.1125	0.8157	0.084
Mof_C 	C 	0.9423	0.0927	0.6963	0.049
Mof_C 	C 	0.9394	0.1399	0.605	-0.095
Mof_H 	H 	0.9733	0.1893	0.6142	0.074
Mof_C 	C 	0.8854	0.1129	0.4991	0.03
Mof_H 	H 	0.8845	0.1436	0.4345	0.029
Mof_C 	C 	0.8339	0.0428	0.4882	-0.098
Mof_H 	H 	0.7917	0.0251	0.4169	0.076
Mof_C 	C 	0.844	0.9969	0.5831	0.052
Mof_H 	H 	0.812	0.9471	0.575	0.016
Mof_N 	N 	0.0347	0.17865	0.8621	-0.146
Mof_N 	N 	0.0359	0.09604	0.9973	-0.208
Mof_N 	N 	0.9889	0.06229	0.8956	-0.213
Mof_N 	N 	0.8984	0.0218	0.6867	-0.215
Mof_O 	O 	0.8293	0.4667	0.6322	-0.298
Mof_O 	O 	0.7095	0.38425	0.7183	-0.417
Mof_O 	O 	0.3602	0.42958	0.6922	-0.42
Mof_O 	O 	0.4244	0.3106	0.6978	-0.279
Mof_Zn	Zn	0.94553	0.95228	0.83909	1.204
_end
