data_functionalizedCrystal
_audit_creation_method	'EQeq! by Chris Wilmer'
_symmetry_space_group_name_H-M	'P1'
_symmetry_Int_Tables_number	1
_symmetry_cell_setting	triclinic
loop_
_symmetry_equiv_pos_as_xyz
  x,y,z
_cell_length_a	17.508
_cell_length_b	17.508
_cell_length_c	20.7888
_cell_angle_alpha	90
_cell_angle_beta	90
_cell_angle_gamma	120
loop_
_atom_site_label
_atom_site_type_symbol
_atom_site_fract_x
_atom_site_fract_y
_atom_site_fract_z
_atom_site_charge
Mof_N 	N 	0.8007	0.5669	0.43744	-0.089
Mof_N 	N 	0.7401	0.57668	0.47032	-0.043
Mof_N 	N 	0.6872	0.50933	0.50554	-0.059
Mof_N 	N 	0.71242	0.44997	0.49577	-0.206
Mof_C 	C 	0.7799	0.4853	0.45398	0.098
Mof_H 	H 	0.8091	0.4558	0.4382	0.004
Mof_N 	N 	0.9517	0.7685	0.61567	-0.063
Mof_N 	N 	0.8788	0.7738	0.61355	-0.042
Mof_N 	N 	0.8838	0.8427	0.6437	-0.058
Mof_N 	N 	0.96408	0.8847	0.66727	-0.167
Mof_C 	C 	0.0043	0.8394	0.64927	0.037
Mof_H 	H 	0.0636	0.8567	0.6597	0.029
Mof_N 	N 	0.5627	0.7712	0.01104	-0.088
Mof_N 	N 	0.57472	0.8392	0.9757	-0.043
Mof_N 	N 	0.50812	0.82215	0.93688	-0.057
Mof_N 	N 	0.44858	0.73893	0.94836	-0.205
Mof_C 	C 	0.4832	0.7094	0.99284	0.09
Mof_H 	H 	0.4539	0.6509	0.0093	0.007
Mof_N 	N 	0.7806	0.8054	0.8386	-0.092
Mof_N 	N 	0.7695	0.8743	0.83586	-0.044
Mof_N 	N 	0.8301	0.9418	0.80387	-0.05
Mof_N 	N 	0.88576	0.91725	0.78382	-0.19
Mof_C 	C 	0.8553	0.8349	0.8052	0.107
Mof_H 	H 	0.8835	0.8014	0.7975	0.013
Mof_C 	C 	0.6579	0.9236	0.97355	-0.066
Mof_H 	H 	0.678	0.9447	0.0179	0.077
Mof_H 	H 	0.6485	0.9682	0.9512	0.077
Mof_C 	C 	0.7278	0.913	0.9386	-0.095
Mof_H 	H 	0.7399	0.8714	0.9627	0.081
Mof_H 	H 	0.7831	0.9706	0.9368	0.079
Mof_C 	C 	0.6987	0.8785	0.8704	-0.05
Mof_H 	H 	0.6458	0.8189	0.8721	0.071
Mof_H 	H 	0.6828	0.9178	0.847	0.067
Mof_C 	C 	0.7363	0.6585	0.4672	-0.049
Mof_H 	H 	0.6794	0.6482	0.4849	0.064
Mof_H 	H 	0.7404	0.6776	0.4219	0.064
Mof_C 	C 	0.8124	0.7304	0.506	-0.108
Mof_H 	H 	0.8685	0.7346	0.4922	0.092
Mof_H 	H 	0.8164	0.7879	0.4974	0.077
Mof_C 	C 	0.7998	0.7113	0.5778	-0.043
Mof_H 	H 	0.7486	0.7156	0.593	0.06
Mof_H 	H 	0.7875	0.6504	0.5859	0.069
Mof_N 	N 	0.46737	0.90023	0.77077	-0.086
Mof_N 	N 	0.40677	0.91001	0.80365	-0.054
Mof_N 	N 	0.35387	0.84266	0.83887	-0.057
Mof_N 	N 	0.37909	0.7833	0.8291	-0.206
Mof_C 	C 	0.44657	0.81863	0.78731	0.098
Mof_H 	H 	0.47577	0.78913	0.77153	0.002
Mof_N 	N 	0.61837	0.10183	0.949	-0.103
Mof_N 	N 	0.54547	0.10713	0.94688	-0.045
Mof_N 	N 	0.55047	0.17603	0.97703	-0.067
Mof_N 	N 	0.63075	0.21803	0.0006	-0.204
Mof_C 	C 	0.67097	0.17273	0.9826	0.101
Mof_H 	H 	0.73027	0.19003	0.99303	0.003
Mof_N 	N 	0.22937	0.10453	0.34437	-0.086
Mof_N 	N 	0.24139	0.17253	0.30903	-0.045
Mof_N 	N 	0.17479	0.15548	0.27021	-0.061
Mof_N 	N 	0.11525	0.07226	0.28169	-0.207
Mof_C 	C 	0.14987	0.04273	0.32617	0.023
Mof_H 	H 	0.12057	0.98423	0.34263	0.046
Mof_N 	N 	0.44727	0.13873	0.17193	-0.102
Mof_N 	N 	0.43617	0.20763	0.16919	-0.047
Mof_N 	N 	0.49677	0.27513	0.1372	-0.061
Mof_N 	N 	0.55243	0.25058	0.11715	-0.205
Mof_C 	C 	0.52197	0.16823	0.13853	0.101
Mof_H 	H 	0.55017	0.13473	0.13083	-0.002
Mof_C 	C 	0.32457	0.25693	0.30688	-0.054
Mof_H 	H 	0.34467	0.27803	0.35123	0.062
Mof_H 	H 	0.31517	0.30153	0.28453	0.064
Mof_C 	C 	0.39447	0.24633	0.27193	-0.098
Mof_H 	H 	0.40657	0.20473	0.29603	0.076
Mof_H 	H 	0.44977	0.30393	0.27013	0.068
Mof_C 	C 	0.36537	0.21183	0.20373	-0.05
Mof_H 	H 	0.31247	0.15223	0.20543	0.063
Mof_H 	H 	0.34947	0.25113	0.18033	0.06
Mof_C 	C 	0.40297	0.99183	0.80053	0.07
Mof_H 	H 	0.34607	0.98153	0.81823	0.041
Mof_H 	H 	0.40707	0.01093	0.75523	0.003
Mof_C 	C 	0.47907	0.06373	0.83933	-0.169
Mof_H 	H 	0.53517	0.06793	0.82553	0.093
Mof_H 	H 	0.48307	0.12123	0.83073	0.085
Mof_C 	C 	0.46647	0.04463	0.91113	-0.084
Mof_H 	H 	0.41527	0.04893	0.92633	0.056
Mof_H 	H 	0.45417	0.98373	0.91923	0.101
Mof_N 	N 	0.13403	0.23357	0.10411	-0.094
Mof_N 	N 	0.07343	0.24335	0.13699	-0.048
Mof_N 	N 	0.02053	0.176	0.17221	-0.071
Mof_N 	N 	0.04575	0.11664	0.16244	-0.218
Mof_C 	C 	0.11323	0.15197	0.12065	0.092
Mof_H 	H 	0.14243	0.12247	0.10487	-0.008
Mof_N 	N 	0.28503	0.43517	0.28234	-0.095
Mof_N 	N 	0.21213	0.44047	0.28022	-0.047
Mof_N 	N 	0.21713	0.50937	0.31037	-0.066
Mof_N 	N 	0.29741	0.55137	0.33394	-0.207
Mof_C 	C 	0.33763	0.50607	0.31594	0.106
Mof_H 	H 	0.39693	0.52337	0.32637	0.004
Mof_N 	N 	0.89603	0.43787	0.67771	-0.087
Mof_N 	N 	0.90805	0.50587	0.64237	-0.054
Mof_N 	N 	0.84145	0.48882	0.60355	-0.055
Mof_N 	N 	0.78191	0.4056	0.61503	-0.207
Mof_C 	C 	0.81653	0.37607	0.65951	0.1
Mof_H 	H 	0.78723	0.31757	0.67597	0.002
Mof_N 	N 	0.11393	0.47207	0.50527	-0.104
Mof_N 	N 	0.10283	0.54097	0.50253	-0.045
Mof_N 	N 	0.16343	0.60847	0.47054	-0.062
Mof_N 	N 	0.21909	0.58392	0.45049	-0.205
Mof_C 	C 	0.18863	0.50157	0.47187	0.1
Mof_H 	H 	0.21683	0.46807	0.46417	0.001
Mof_C 	C 	0.99123	0.59027	0.64022	0.07
Mof_H 	H 	0.01133	0.61137	0.68457	0.004
Mof_H 	H 	0.98183	0.63487	0.61787	0.043
Mof_C 	C 	0.06113	0.57967	0.60527	-0.168
Mof_H 	H 	0.07323	0.53807	0.62937	0.089
Mof_H 	H 	0.11643	0.63727	0.60347	0.087
Mof_C 	C 	0.03203	0.54517	0.53707	-0.086
Mof_H 	H 	0.97913	0.48557	0.53877	0.103
Mof_H 	H 	0.01613	0.58447	0.51367	0.058
Mof_C 	C 	0.06963	0.32517	0.13387	-0.046
Mof_H 	H 	0.01273	0.31487	0.15157	0.05
Mof_H 	H 	0.07373	0.34427	0.08857	0.055
Mof_C 	C 	0.14573	0.39707	0.17267	-0.108
Mof_H 	H 	0.20183	0.40127	0.15887	0.086
Mof_H 	H 	0.14973	0.45457	0.16407	0.068
Mof_C 	C 	0.13313	0.37797	0.24447	-0.042
Mof_H 	H 	0.08193	0.38227	0.25967	0.049
Mof_H 	H 	0.12083	0.31707	0.25257	0.063
Mof_N 	N 	0.4331	0.2338	0.43744	-0.094
Mof_N 	N 	0.42332	0.16342	0.47032	-0.045
Mof_N 	N 	0.49067	0.17787	0.50554	-0.061
Mof_N 	N 	0.55003	0.26245	0.49577	-0.206
Mof_C 	C 	0.5147	0.2946	0.45398	0.097
Mof_H 	H 	0.5442	0.3533	0.4382	0.001
Mof_N 	N 	0.2315	0.1832	0.61567	-0.097
Mof_N 	N 	0.2262	0.105	0.61355	-0.047
Mof_N 	N 	0.1573	0.0411	0.6437	-0.076
Mof_N 	N 	0.1153	0.07938	0.66727	-0.217
Mof_C 	C 	0.1606	0.1649	0.64927	0.102
Mof_H 	H 	0.1433	0.2069	0.6597	-0.004
Mof_N 	N 	0.2288	0.7915	0.01104	-0.088
Mof_N 	N 	0.1608	0.73552	0.9757	-0.046
Mof_N 	N 	0.17785	0.68597	0.93688	-0.06
Mof_N 	N 	0.26107	0.70965	0.94836	-0.206
Mof_C 	C 	0.2906	0.7738	0.99284	0.089
Mof_H 	H 	0.3491	0.803	0.0093	0.01
Mof_N 	N 	0.1946	0.9752	0.8386	-0.061
Mof_N 	N 	0.1257	0.8952	0.83586	-0.044
Mof_N 	N 	0.0582	0.8883	0.80387	-0.065
Mof_N 	N 	0.08275	0.96851	0.78382	-0.173
Mof_C 	C 	0.1651	0.0204	0.8052	0.021
Mof_H 	H 	0.1986	0.0821	0.7975	0.023
Mof_C 	C 	0.0764	0.7343	0.97355	-0.053
Mof_H 	H 	0.0553	0.7333	0.0179	0.058
Mof_H 	H 	0.0318	0.6803	0.9512	0.055
Mof_C 	C 	0.087	0.8148	0.9386	-0.1
Mof_H 	H 	0.1286	0.8685	0.9627	0.082
Mof_H 	H 	0.0294	0.8125	0.9368	0.062
Mof_C 	C 	0.1215	0.8202	0.8704	-0.049
Mof_H 	H 	0.1811	0.8269	0.8721	0.072
Mof_H 	H 	0.0822	0.765	0.847	0.057
Mof_C 	C 	0.3415	0.0778	0.4672	-0.05
Mof_H 	H 	0.3518	0.0312	0.4849	0.053
Mof_H 	H 	0.3224	0.0628	0.4219	0.054
Mof_C 	C 	0.2696	0.082	0.506	-0.099
Mof_H 	H 	0.2654	0.1339	0.4922	0.079
Mof_H 	H 	0.2121	0.0285	0.4974	0.055
Mof_C 	C 	0.2887	0.0885	0.5778	-0.051
Mof_H 	H 	0.2844	0.033	0.593	0.051
Mof_H 	H 	0.3496	0.1371	0.5859	0.068
Mof_N 	N 	0.09977	0.56713	0.77077	-0.099
Mof_N 	N 	0.08999	0.49675	0.80365	-0.034
Mof_N 	N 	0.15734	0.5112	0.83887	-0.062
Mof_N 	N 	0.2167	0.59578	0.8291	-0.206
Mof_C 	C 	0.18137	0.62793	0.78731	0.096
Mof_H 	H 	0.21087	0.68663	0.77153	0.002
Mof_N 	N 	0.89817	0.51653	0.949	-0.085
Mof_N 	N 	0.89287	0.43833	0.94688	-0.046
Mof_N 	N 	0.82397	0.37443	0.97703	-0.064
Mof_N 	N 	0.78197	0.41271	0.0006	-0.203
Mof_C 	C 	0.82727	0.49823	0.9826	0.106
Mof_H 	H 	0.80997	0.54023	0.99303	0.008
Mof_N 	N 	0.89547	0.12483	0.34437	-0.103
Mof_N 	N 	0.82747	0.06885	0.30903	-0.047
Mof_N 	N 	0.84452	0.0193	0.27021	-0.066
Mof_N 	N 	0.92774	0.04298	0.28169	-0.215
Mof_C 	C 	0.95727	0.10713	0.32617	0.17
Mof_H 	H 	0.01577	0.13633	0.34263	-0.051
Mof_N 	N 	0.86127	0.30853	0.17193	-0.086
Mof_N 	N 	0.79237	0.22853	0.16919	-0.045
Mof_N 	N 	0.72487	0.22163	0.1372	-0.062
Mof_N 	N 	0.74942	0.30184	0.11715	-0.204
Mof_C 	C 	0.83177	0.35373	0.13853	0.105
Mof_H 	H 	0.86527	0.41543	0.13083	0.01
Mof_C 	C 	0.74307	0.06763	0.30688	-0.044
Mof_H 	H 	0.72197	0.06663	0.35123	0.054
Mof_H 	H 	0.69847	0.01363	0.28453	0.051
Mof_C 	C 	0.75367	0.14813	0.27193	-0.105
Mof_H 	H 	0.79527	0.20183	0.29603	0.084
Mof_H 	H 	0.69607	0.14583	0.27013	0.067
Mof_C 	C 	0.78817	0.15353	0.20373	-0.046
Mof_H 	H 	0.84777	0.16023	0.20543	0.075
Mof_H 	H 	0.74887	0.09833	0.18033	0.055
Mof_C 	C 	0.00817	0.41113	0.80053	-0.177
Mof_H 	H 	0.01847	0.36453	0.81823	0.086
Mof_H 	H 	0.98907	0.39613	0.75523	0.124
Mof_C 	C 	0.93627	0.41533	0.83933	-0.031
Mof_H 	H 	0.93207	0.46723	0.82553	0.074
Mof_H 	H 	0.87877	0.36183	0.83073	0.05
Mof_C 	C 	0.95537	0.42183	0.91113	-0.013
Mof_H 	H 	0.95107	0.36633	0.92633	0.06
Mof_H 	H 	0.01627	0.47043	0.91923	0.036
Mof_N 	N 	0.76643	0.90047	0.10411	-0.097
Mof_N 	N 	0.75665	0.83009	0.13699	-0.043
Mof_N 	N 	0.824	0.84454	0.17221	-0.056
Mof_N 	N 	0.88336	0.92912	0.16244	-0.199
Mof_C 	C 	0.84803	0.96127	0.12065	0.164
Mof_H 	H 	0.87753	0.01997	0.10487	-0.033
Mof_N 	N 	0.56483	0.84987	0.28234	-0.087
Mof_N 	N 	0.55953	0.77167	0.28022	-0.044
Mof_N 	N 	0.49063	0.70777	0.31037	-0.063
Mof_N 	N 	0.44863	0.74605	0.33394	-0.206
Mof_C 	C 	0.49393	0.83157	0.31594	0.109
Mof_H 	H 	0.47663	0.87357	0.32637	0.01
Mof_N 	N 	0.56213	0.45817	0.67771	-0.093
Mof_N 	N 	0.49413	0.40219	0.64237	-0.044
Mof_N 	N 	0.51118	0.35264	0.60355	-0.058
Mof_N 	N 	0.5944	0.37632	0.61503	-0.207
Mof_C 	C 	0.62393	0.44047	0.65951	0.098
Mof_H 	H 	0.68243	0.46967	0.67597	0.003
Mof_N 	N 	0.52793	0.64187	0.50527	-0.093
Mof_N 	N 	0.45903	0.56187	0.50253	-0.046
Mof_N 	N 	0.39153	0.55497	0.47054	-0.061
Mof_N 	N 	0.41608	0.63518	0.45049	-0.204
Mof_C 	C 	0.49843	0.68707	0.47187	0.103
Mof_H 	H 	0.53193	0.74877	0.46417	0.007
Mof_C 	C 	0.40973	0.40097	0.64022	-0.052
Mof_H 	H 	0.38863	0.39997	0.68457	0.062
Mof_H 	H 	0.36513	0.34697	0.61787	0.063
Mof_C 	C 	0.42033	0.48147	0.60527	-0.098
Mof_H 	H 	0.46193	0.53517	0.62937	0.08
Mof_H 	H 	0.36273	0.47917	0.60347	0.067
Mof_C 	C 	0.45483	0.48687	0.53707	-0.05
Mof_H 	H 	0.51443	0.49357	0.53877	0.07
Mof_H 	H 	0.41553	0.43167	0.51367	0.061
Mof_C 	C 	0.67483	0.74447	0.13387	-0.052
Mof_H 	H 	0.68513	0.69787	0.15157	0.065
Mof_H 	H 	0.65573	0.72947	0.08857	0.065
Mof_C 	C 	0.60293	0.74867	0.17267	-0.101
Mof_H 	H 	0.59873	0.80057	0.15887	0.087
Mof_H 	H 	0.54543	0.69517	0.16407	0.069
Mof_C 	C 	0.62203	0.75517	0.24447	-0.048
Mof_H 	H 	0.61773	0.69967	0.25967	0.06
Mof_H 	H 	0.68293	0.80377	0.25257	0.073
Mof_N 	N 	0.7662	0.1993	0.43744	-0.094
Mof_N 	N 	0.83658	0.2599	0.47032	-0.042
Mof_N 	N 	0.82213	0.3128	0.50554	-0.058
Mof_N 	N 	0.73755	0.28758	0.49577	-0.206
Mof_C 	C 	0.7054	0.2201	0.45398	0.097
Mof_H 	H 	0.6467	0.1909	0.4382	-0.001
Mof_N 	N 	0.8168	0.0483	0.61567	-0.124
Mof_N 	N 	0.895	0.1212	0.61355	-0.045
Mof_N 	N 	0.9589	0.1162	0.6437	-0.056
Mof_N 	N 	0.92062	0.03592	0.66727	-0.227
Mof_C 	C 	0.8351	0.9957	0.64927	0.18
Mof_H 	H 	0.7931	0.9364	0.6597	-0.012
Mof_N 	N 	0.2085	0.4373	0.01104	-0.091
Mof_N 	N 	0.26448	0.42528	0.9757	-0.044
Mof_N 	N 	0.31403	0.49188	0.93688	-0.059
Mof_N 	N 	0.29035	0.55142	0.94836	-0.206
Mof_C 	C 	0.2262	0.5168	0.99284	0.089
Mof_H 	H 	0.197	0.5461	0.0093	0.005
Mof_N 	N 	0.0248	0.2194	0.8386	-0.13
Mof_N 	N 	0.1048	0.2305	0.83586	-0.048
Mof_N 	N 	0.1117	0.1699	0.80387	-0.065
Mof_N 	N 	0.03149	0.11424	0.78382	-0.243
Mof_C 	C 	0.9796	0.1447	0.8052	0.182
Mof_H 	H 	0.9179	0.1165	0.7975	-0.024
Mof_C 	C 	0.2657	0.3421	0.97355	-0.064
Mof_H 	H 	0.2667	0.322	0.0179	0.067
Mof_H 	H 	0.3197	0.3515	0.9512	0.066
Mof_C 	C 	0.1852	0.2722	0.9386	-0.086
Mof_H 	H 	0.1315	0.2601	0.9627	0.069
Mof_H 	H 	0.1875	0.2169	0.9368	0.058
Mof_C 	C 	0.1798	0.3013	0.8704	-0.059
Mof_H 	H 	0.1731	0.3542	0.8721	0.07
Mof_H 	H 	0.235	0.3172	0.847	0.062
Mof_C 	C 	0.9222	0.2637	0.4672	-0.062
Mof_H 	H 	0.9688	0.3206	0.4849	0.076
Mof_H 	H 	0.9372	0.2596	0.4219	0.073
Mof_C 	C 	0.918	0.1876	0.506	-0.092
Mof_H 	H 	0.8661	0.1315	0.4922	0.079
Mof_H 	H 	0.9715	0.1836	0.4974	0.073
Mof_C 	C 	0.9115	0.2002	0.5778	-0.054
Mof_H 	H 	0.967	0.2514	0.593	0.068
Mof_H 	H 	0.8629	0.2125	0.5859	0.071
Mof_N 	N 	0.43287	0.53263	0.77077	-0.093
Mof_N 	N 	0.50325	0.59323	0.80365	-0.044
Mof_N 	N 	0.4888	0.64613	0.83887	-0.059
Mof_N 	N 	0.40422	0.62091	0.8291	-0.206
Mof_C 	C 	0.37207	0.55343	0.78731	0.097
Mof_H 	H 	0.31337	0.52423	0.77153	0
Mof_N 	N 	0.48347	0.38163	0.949	-0.096
Mof_N 	N 	0.56167	0.45453	0.94688	-0.045
Mof_N 	N 	0.62557	0.44953	0.97703	-0.065
Mof_N 	N 	0.58729	0.36925	0.0006	-0.204
Mof_C 	C 	0.50177	0.32903	0.9826	0.104
Mof_H 	H 	0.45977	0.26973	0.99303	0.001
Mof_N 	N 	0.87517	0.77063	0.34437	-0.091
Mof_N 	N 	0.93115	0.75861	0.30903	-0.04
Mof_N 	N 	0.9807	0.82521	0.27021	-0.047
Mof_N 	N 	0.95702	0.88475	0.28169	-0.19
Mof_C 	C 	0.89287	0.85013	0.32617	0.104
Mof_H 	H 	0.86367	0.87943	0.34263	0.012
Mof_N 	N 	0.69147	0.55273	0.17193	-0.094
Mof_N 	N 	0.77147	0.56383	0.16919	-0.044
Mof_N 	N 	0.77837	0.50323	0.1372	-0.058
Mof_N 	N 	0.69816	0.44757	0.11715	-0.204
Mof_C 	C 	0.64627	0.47803	0.13853	0.104
Mof_H 	H 	0.58457	0.44983	0.13083	0.004
Mof_C 	C 	0.93237	0.67543	0.30688	-0.061
Mof_H 	H 	0.93337	0.65533	0.35123	0.072
Mof_H 	H 	0.98637	0.68483	0.28453	0.078
Mof_C 	C 	0.85187	0.60553	0.27193	-0.091
Mof_H 	H 	0.79817	0.59343	0.29603	0.078
Mof_H 	H 	0.85417	0.55023	0.27013	0.069
Mof_C 	C 	0.84647	0.63463	0.20373	-0.056
Mof_H 	H 	0.83977	0.68753	0.20543	0.074
Mof_H 	H 	0.90167	0.65053	0.18033	0.07
Mof_C 	C 	0.58887	0.59703	0.80053	-0.055
Mof_H 	H 	0.63547	0.65393	0.81823	0.065
Mof_H 	H 	0.60387	0.59293	0.75523	0.065
Mof_C 	C 	0.58467	0.52093	0.83933	-0.099
Mof_H 	H 	0.53277	0.46483	0.82553	0.083
Mof_H 	H 	0.63817	0.51693	0.83073	0.069
Mof_C 	C 	0.57817	0.53353	0.91113	-0.05
Mof_H 	H 	0.63367	0.58473	0.92633	0.061
Mof_H 	H 	0.52957	0.54583	0.91923	0.069
Mof_N 	N 	0.09953	0.86597	0.10411	-0.085
Mof_N 	N 	0.16991	0.92657	0.13699	-0.04
Mof_N 	N 	0.15546	0.97947	0.17221	-0.049
Mof_N 	N 	0.07088	0.95425	0.16244	-0.192
Mof_C 	C 	0.03873	0.88677	0.12065	0.036
Mof_H 	H 	0.98003	0.85757	0.10487	0.049
Mof_N 	N 	0.15013	0.71497	0.28234	-0.102
Mof_N 	N 	0.22833	0.78787	0.28022	-0.044
Mof_N 	N 	0.29223	0.78287	0.31037	-0.062
Mof_N 	N 	0.25395	0.70259	0.33394	-0.207
Mof_C 	C 	0.16843	0.66237	0.31594	0.106
Mof_H 	H 	0.12643	0.60307	0.32637	-0.003
Mof_N 	N 	0.54183	0.10397	0.67771	-0.1
Mof_N 	N 	0.59781	0.09195	0.64237	-0.034
Mof_N 	N 	0.64736	0.15855	0.60355	-0.061
Mof_N 	N 	0.62368	0.21809	0.61503	-0.207
Mof_C 	C 	0.55953	0.18347	0.65951	0.098
Mof_H 	H 	0.53033	0.21277	0.67597	0.001
Mof_N 	N 	0.35813	0.88607	0.50527	-0.085
Mof_N 	N 	0.43813	0.89717	0.50253	-0.046
Mof_N 	N 	0.44503	0.83657	0.47054	-0.058
Mof_N 	N 	0.36482	0.78091	0.45049	-0.204
Mof_C 	C 	0.31293	0.81137	0.47187	0.105
Mof_H 	H 	0.25123	0.78317	0.46417	0.004
Mof_C 	C 	0.59903	0.00877	0.64022	-0.176
Mof_H 	H 	0.60003	0.98867	0.68457	0.123
Mof_H 	H 	0.65303	0.01817	0.61787	0.087
Mof_C 	C 	0.51853	0.93887	0.60527	-0.028
Mof_H 	H 	0.46483	0.92677	0.62937	0.069
Mof_H 	H 	0.52083	0.88357	0.60347	0.051
Mof_C 	C 	0.51313	0.96797	0.53707	-0.015
Mof_H 	H 	0.50643	0.02087	0.53877	0.038
Mof_H 	H 	0.56833	0.98387	0.51367	0.066
Mof_C 	C 	0.25553	0.93037	0.13387	-0.064
Mof_H 	H 	0.30213	0.98727	0.15157	0.08
Mof_H 	H 	0.27053	0.92627	0.08857	0.073
Mof_C 	C 	0.25133	0.85427	0.17267	-0.089
Mof_H 	H 	0.19943	0.79817	0.15887	0.077
Mof_H 	H 	0.30483	0.85027	0.16407	0.068
Mof_C 	C 	0.24483	0.86687	0.24447	-0.058
Mof_H 	H 	0.30033	0.91807	0.25967	0.07
Mof_H 	H 	0.19623	0.87917	0.25257	0.072
Mof_Zn	Zn	-1.82969e-32	0	0.72463	1.164
Mof_Zn	Zn	0.66667	0.33333	0.05796	1.188
Mof_Zn	Zn	0.33333	0.66667	0.3913	1.187
Mof_Zn	Zn	0.66667	0.33333	0.55502	1.186
Mof_Zn	Zn	0.33333	0.66667	0.88835	1.186
Mof_Zn	Zn	-4.57422e-33	0	0.22169	1.162
_end
