data_functionalizedCrystal
_audit_creation_method	'EQeq! by Chris Wilmer'
_symmetry_space_group_name_H-M	'P1'
_symmetry_Int_Tables_number	1
_symmetry_cell_setting	triclinic
loop_
_symmetry_equiv_pos_as_xyz
  x,y,z
_cell_length_a	16.965
_cell_length_b	15.5171
_cell_length_c	14.0726
_cell_angle_alpha	90
_cell_angle_beta	108.119
_cell_angle_gamma	90
loop_
_atom_site_label
_atom_site_type_symbol
_atom_site_fract_x
_atom_site_fract_y
_atom_site_fract_z
_atom_site_charge
Mof_Zn	Zn	0.51225	0.70437	0.63636	1.242
Mof_O 	O 	0.4806	0.3193	0.4933	-0.459
Mof_O 	O 	0.4988	0.1947	0.5677	-0.279
Mof_O 	O 	0.5101	0.5848	0.6762	-0.498
Mof_O 	O 	0.4054	0.754	0.6249	-0.507
Mof_O 	O 	0.3954	0.7663	0.7779	-0.512
Mof_O 	O 	0.0556	0.8836	0.3628	-0.469
Mof_O 	O 	0.1709	0.8407	0.3316	-0.27
Mof_O 	O 	0.0658	0.9785	0.6875	-0.48
Mof_O 	O 	0.1538	0.9227	0.8251	-0.293
Mof_C 	C 	0.4973	0.4069	0.6641	0.107
Mof_H 	H 	0.4963	0.437	0.6065	0.033
Mof_C 	C 	0.4959	0.3183	0.662	-0.151
Mof_C 	C 	0.4912	0.2723	0.5685	0.409
Mof_C 	C 	0.1339	0.8918	0.5631	0.11
Mof_H 	H 	0.0833	0.9196	0.536	0.015
Mof_C 	C 	0.17	0.8546	0.4999	-0.165
Mof_C 	C 	0.2456	0.8164	0.5396	0.112
Mof_H 	H 	0.2709	0.7914	0.4965	0.027
Mof_C 	C 	0.2868	0.8136	0.643	-0.179
Mof_C 	C 	0.2438	0.8502	0.7055	0.101
Mof_H 	H 	0.267	0.8469	0.7746	0.031
Mof_C 	C 	0.1684	0.8906	0.6652	-0.156
Mof_C 	C 	0.3679	0.7746	0.685	0.46
Mof_C 	C 	0.1313	0.8598	0.3911	0.368
Mof_C 	C 	0.1296	0.9343	0.7335	0.375
Mof_Zn	Zn	0.48775	0.70437	0.86364	1.243
Mof_O 	O 	0.5194	0.3193	0.0067	-0.453
Mof_O 	O 	0.5012	0.1947	0.9323	-0.279
Mof_O 	O 	0.4899	0.5848	0.8238	-0.5
Mof_O 	O 	0.5946	0.754	0.8751	-0.499
Mof_O 	O 	0.6046	0.7663	0.7221	-0.503
Mof_O 	O 	0.9444	0.8836	0.1372	-0.362
Mof_O 	O 	0.8291	0.8407	0.1684	-0.224
Mof_O 	O 	0.9342	0.9785	0.8125	-0.379
Mof_O 	O 	0.8462	0.9227	0.6749	-0.244
Mof_C 	C 	0.5027	0.4069	0.8359	0.106
Mof_H 	H 	0.5037	0.437	0.8935	0.033
Mof_C 	C 	0.5041	0.3183	0.838	-0.15
Mof_C 	C 	0.5088	0.2723	0.9315	0.405
Mof_C 	C 	0.8661	0.8918	0.9369	0.062
Mof_H 	H 	0.9167	0.9196	0.964	0.074
Mof_C 	C 	0.83	0.8546	0.0001	-0.098
Mof_C 	C 	0.7544	0.8164	0.9604	0.075
Mof_H 	H 	0.7291	0.7914	0.0035	0.05
Mof_C 	C 	0.7132	0.8136	0.857	-0.142
Mof_C 	C 	0.7562	0.8502	0.7945	0.071
Mof_H 	H 	0.733	0.8469	0.7254	0.05
Mof_C 	C 	0.8316	0.8906	0.8348	-0.094
Mof_C 	C 	0.6321	0.7746	0.815	0.451
Mof_C 	C 	0.8687	0.8598	0.1089	0.339
Mof_C 	C 	0.8704	0.9343	0.7665	0.35
Mof_Zn	Zn	0.48775	0.29563	0.36364	1.243
Mof_O 	O 	0.5194	0.6807	0.5067	-0.456
Mof_O 	O 	0.5012	0.8053	0.4323	-0.278
Mof_O 	O 	0.4899	0.4152	0.3238	-0.499
Mof_O 	O 	0.5946	0.246	0.3751	-0.499
Mof_O 	O 	0.6046	0.2337	0.2221	-0.503
Mof_O 	O 	0.9444	0.1164	0.6372	-0.363
Mof_O 	O 	0.8291	0.1593	0.6684	-0.226
Mof_O 	O 	0.9342	0.0215	0.3125	-0.378
Mof_O 	O 	0.8462	0.0773	0.1749	-0.243
Mof_C 	C 	0.5027	0.5931	0.3359	0.107
Mof_H 	H 	0.5037	0.563	0.3935	0.034
Mof_C 	C 	0.5041	0.6817	0.338	-0.151
Mof_C 	C 	0.5088	0.7277	0.4315	0.409
Mof_C 	C 	0.8661	0.1082	0.4369	0.068
Mof_H 	H 	0.9167	0.0804	0.464	0.074
Mof_C 	C 	0.83	0.1454	0.5001	-0.105
Mof_C 	C 	0.7544	0.1836	0.4604	0.084
Mof_H 	H 	0.7291	0.2086	0.5035	0.046
Mof_C 	C 	0.7132	0.1864	0.357	-0.146
Mof_C 	C 	0.7562	0.1498	0.2945	0.074
Mof_H 	H 	0.733	0.1531	0.2254	0.05
Mof_C 	C 	0.8316	0.1094	0.3348	-0.096
Mof_C 	C 	0.6321	0.2254	0.315	0.453
Mof_C 	C 	0.8687	0.1402	0.6089	0.342
Mof_C 	C 	0.8704	0.0657	0.2665	0.351
Mof_Zn	Zn	0.51225	0.29563	0.13636	1.243
Mof_O 	O 	0.4806	0.6807	0.9933	-0.461
Mof_O 	O 	0.4988	0.8053	0.0677	-0.279
Mof_O 	O 	0.5101	0.4152	0.1762	-0.497
Mof_O 	O 	0.4054	0.246	0.1249	-0.507
Mof_O 	O 	0.3954	0.2337	0.2779	-0.513
Mof_O 	O 	0.0556	0.1164	0.8628	-0.471
Mof_O 	O 	0.1709	0.1593	0.8316	-0.272
Mof_O 	O 	0.0658	0.0215	0.1875	-0.48
Mof_O 	O 	0.1538	0.0773	0.3251	-0.294
Mof_C 	C 	0.4973	0.5931	0.1641	0.108
Mof_H 	H 	0.4963	0.563	0.1065	0.034
Mof_C 	C 	0.4959	0.6817	0.162	-0.152
Mof_C 	C 	0.4912	0.7277	0.0685	0.411
Mof_C 	C 	0.1339	0.1082	0.0631	0.125
Mof_H 	H 	0.0833	0.0804	0.036	0.011
Mof_C 	C 	0.17	0.1454	0.9999	-0.183
Mof_C 	C 	0.2456	0.1836	0.0396	0.133
Mof_H 	H 	0.2709	0.2086	0.9965	0.018
Mof_C 	C 	0.2868	0.1864	0.143	-0.188
Mof_C 	C 	0.2438	0.1498	0.2055	0.11
Mof_H 	H 	0.267	0.1531	0.2746	0.028
Mof_C 	C 	0.1684	0.1094	0.1652	-0.164
Mof_C 	C 	0.3679	0.2254	0.185	0.465
Mof_C 	C 	0.1313	0.1402	0.8911	0.374
Mof_C 	C 	0.1296	0.0657	0.2335	0.378
Mof_Zn	Zn	-1.61447e-17	0.9565	0.25	1.215
Mof_Zn	Zn	-3.22893e-17	0.0435	0.75	1.215
Mof_C 	C 	0.5	0.274	0.75	0.096
Mof_H 	H 	0.5	0.214	0.75	0.039
Mof_C 	C 	0.5	0.4526	0.75	-0.169
Mof_C 	C 	0.5	0.5484	0.75	0.457
Mof_C 	C 	0.5	0.726	0.25	0.097
Mof_H 	H 	0.5	0.786	0.25	0.039
Mof_C 	C 	0.5	0.5474	0.25	-0.17
Mof_C 	C 	0.5	0.4516	0.25	0.458
_end
