data_functionalizedCrystal
_audit_creation_method	'EQeq! by Chris Wilmer'
_symmetry_space_group_name_H-M	'P1'
_symmetry_Int_Tables_number	1
_symmetry_cell_setting	triclinic
loop_
_symmetry_equiv_pos_as_xyz
  x,y,z
_cell_length_a	21.1288
_cell_length_b	21.1288
_cell_length_c	21.1288
_cell_angle_alpha	90
_cell_angle_beta	90
_cell_angle_gamma	90
loop_
_atom_site_label
_atom_site_type_symbol
_atom_site_fract_x
_atom_site_fract_y
_atom_site_fract_z
_atom_site_charge
Mof_O 	O 	0.97755	0.79765	0.5595	-1.466
Mof_O 	O 	0.0918	0.60847	0.3605	-1.122
Mof_O 	O 	0.0779	0.65757	0.26842	-1.042
Mof_C 	C 	0.0706	0.6518	0.3271	0.701
Mof_C 	C 	0.033	0.7044	0.4276	0.222
Mof_C 	C 	0.0337	0.7038	0.3613	-0.352
Mof_Li	Li	0.0282	0.842	0.6277	2.789
Mof_H 	H 	0.059	0.666	0.454	-0.082
Mof_O 	O 	0.47755	0.29765	0.0595	-1.503
Mof_O 	O 	0.5918	0.10847	0.8605	-1.093
Mof_O 	O 	0.5779	0.15757	0.76842	-1.032
Mof_C 	C 	0.5706	0.1518	0.8271	0.693
Mof_C 	C 	0.533	0.2044	0.9276	0.214
Mof_C 	C 	0.5337	0.2038	0.8613	-0.345
Mof_Li	Li	0.5282	0.342	0.1277	2.911
Mof_H 	H 	0.559	0.166	0.954	-0.072
Mof_O 	O 	0.52245	0.20235	0.0595	-1.501
Mof_O 	O 	0.4082	0.39153	0.8605	-1.121
Mof_O 	O 	0.4221	0.34243	0.76842	-1.039
Mof_C 	C 	0.4294	0.3482	0.8271	0.704
Mof_C 	C 	0.467	0.2956	0.9276	0.215
Mof_C 	C 	0.4663	0.2962	0.8613	-0.347
Mof_Li	Li	0.4718	0.158	0.1277	2.901
Mof_H 	H 	0.441	0.334	0.954	-0.071
Mof_O 	O 	0.02245	0.70235	0.5595	-1.524
Mof_O 	O 	0.9082	0.89153	0.3605	-1.146
Mof_O 	O 	0.9221	0.84243	0.26842	-1.041
Mof_C 	C 	0.9294	0.8482	0.3271	0.712
Mof_C 	C 	0.967	0.7956	0.4276	0.242
Mof_C 	C 	0.9663	0.7962	0.3613	-0.334
Mof_Li	Li	0.9718	0.658	0.6277	3.052
Mof_H 	H 	0.941	0.834	0.454	-0.079
Mof_O 	O 	0.02245	0.29765	0.9405	-1.527
Mof_O 	O 	0.9082	0.10847	0.1395	-1.093
Mof_O 	O 	0.9221	0.15757	0.23158	-1.027
Mof_C 	C 	0.9294	0.1518	0.1729	0.693
Mof_C 	C 	0.967	0.2044	0.0724	0.242
Mof_C 	C 	0.9663	0.2038	0.1387	-0.335
Mof_Li	Li	0.9718	0.342	0.8723	3.06
Mof_H 	H 	0.941	0.166	0.046	-0.086
Mof_O 	O 	0.52245	0.79765	0.4405	-1.507
Mof_O 	O 	0.4082	0.60847	0.6395	-1.122
Mof_O 	O 	0.4221	0.65757	0.73158	-1.04
Mof_C 	C 	0.4294	0.6518	0.6729	0.705
Mof_C 	C 	0.467	0.7044	0.5724	0.224
Mof_C 	C 	0.4663	0.7038	0.6387	-0.354
Mof_Li	Li	0.4718	0.842	0.3723	2.932
Mof_H 	H 	0.441	0.666	0.546	-0.079
Mof_O 	O 	0.47755	0.70235	0.4405	-1.505
Mof_O 	O 	0.5918	0.89153	0.6395	-1.148
Mof_O 	O 	0.5779	0.84243	0.73158	-1.048
Mof_C 	C 	0.5706	0.8482	0.6729	0.716
Mof_C 	C 	0.533	0.7956	0.5724	0.225
Mof_C 	C 	0.5337	0.7962	0.6387	-0.356
Mof_Li	Li	0.5282	0.658	0.3723	2.921
Mof_H 	H 	0.559	0.834	0.546	-0.079
Mof_O 	O 	0.97755	0.20235	0.9405	-1.465
Mof_O 	O 	0.0918	0.39153	0.1395	-1.121
Mof_O 	O 	0.0779	0.34243	0.23158	-1.042
Mof_C 	C 	0.0706	0.3482	0.1729	0.702
Mof_C 	C 	0.033	0.2956	0.0724	0.228
Mof_C 	C 	0.0337	0.2962	0.1387	-0.354
Mof_Li	Li	0.0282	0.158	0.8723	2.786
Mof_H 	H 	0.059	0.334	0.046	-0.088
Mof_O 	O 	0.5595	0.97755	0.79765	-1.465
Mof_O 	O 	0.3605	0.0918	0.60847	-1.121
Mof_O 	O 	0.26842	0.0779	0.65757	-1.041
Mof_C 	C 	0.3271	0.0706	0.6518	0.702
Mof_C 	C 	0.4276	0.033	0.7044	0.223
Mof_C 	C 	0.3613	0.0337	0.7038	-0.351
Mof_Li	Li	0.6277	0.0282	0.842	2.79
Mof_H 	H 	0.454	0.059	0.666	-0.081
Mof_O 	O 	0.0595	0.47755	0.29765	-1.502
Mof_O 	O 	0.8605	0.5918	0.10847	-1.092
Mof_O 	O 	0.76842	0.5779	0.15757	-1.031
Mof_C 	C 	0.8271	0.5706	0.1518	0.694
Mof_C 	C 	0.9276	0.533	0.2044	0.214
Mof_C 	C 	0.8613	0.5337	0.2038	-0.345
Mof_Li	Li	0.1277	0.5282	0.342	2.911
Mof_H 	H 	0.954	0.559	0.166	-0.072
Mof_O 	O 	0.0595	0.52245	0.20235	-1.501
Mof_O 	O 	0.8605	0.4082	0.39153	-1.121
Mof_O 	O 	0.76842	0.4221	0.34243	-1.039
Mof_C 	C 	0.8271	0.4294	0.3482	0.704
Mof_C 	C 	0.9276	0.467	0.2956	0.215
Mof_C 	C 	0.8613	0.4663	0.2962	-0.347
Mof_Li	Li	0.1277	0.4718	0.158	2.901
Mof_H 	H 	0.954	0.441	0.334	-0.071
Mof_O 	O 	0.5595	0.02245	0.70235	-1.524
Mof_O 	O 	0.3605	0.9082	0.89153	-1.146
Mof_O 	O 	0.26842	0.9221	0.84243	-1.041
Mof_C 	C 	0.3271	0.9294	0.8482	0.712
Mof_C 	C 	0.4276	0.967	0.7956	0.242
Mof_C 	C 	0.3613	0.9663	0.7962	-0.334
Mof_Li	Li	0.6277	0.9718	0.658	3.052
Mof_H 	H 	0.454	0.941	0.834	-0.079
Mof_O 	O 	0.9405	0.02245	0.29765	-1.527
Mof_O 	O 	0.1395	0.9082	0.10847	-1.093
Mof_O 	O 	0.23158	0.9221	0.15757	-1.027
Mof_C 	C 	0.1729	0.9294	0.1518	0.693
Mof_C 	C 	0.0724	0.967	0.2044	0.242
Mof_C 	C 	0.1387	0.9663	0.2038	-0.335
Mof_Li	Li	0.8723	0.9718	0.342	3.06
Mof_H 	H 	0.046	0.941	0.166	-0.086
Mof_O 	O 	0.4405	0.52245	0.79765	-1.507
Mof_O 	O 	0.6395	0.4082	0.60847	-1.122
Mof_O 	O 	0.73158	0.4221	0.65757	-1.04
Mof_C 	C 	0.6729	0.4294	0.6518	0.705
Mof_C 	C 	0.5724	0.467	0.7044	0.224
Mof_C 	C 	0.6387	0.4663	0.7038	-0.354
Mof_Li	Li	0.3723	0.4718	0.842	2.932
Mof_H 	H 	0.546	0.441	0.666	-0.079
Mof_O 	O 	0.4405	0.47755	0.70235	-1.505
Mof_O 	O 	0.6395	0.5918	0.89153	-1.148
Mof_O 	O 	0.73158	0.5779	0.84243	-1.048
Mof_C 	C 	0.6729	0.5706	0.8482	0.716
Mof_C 	C 	0.5724	0.533	0.7956	0.225
Mof_C 	C 	0.6387	0.5337	0.7962	-0.356
Mof_Li	Li	0.3723	0.5282	0.658	2.921
Mof_H 	H 	0.546	0.559	0.834	-0.079
Mof_O 	O 	0.9405	0.97755	0.20235	-1.465
Mof_O 	O 	0.1395	0.0918	0.39153	-1.121
Mof_O 	O 	0.23158	0.0779	0.34243	-1.042
Mof_C 	C 	0.1729	0.0706	0.3482	0.702
Mof_C 	C 	0.0724	0.033	0.2956	0.228
Mof_C 	C 	0.1387	0.0337	0.2962	-0.354
Mof_Li	Li	0.8723	0.0282	0.158	2.786
Mof_H 	H 	0.046	0.059	0.334	-0.088
Mof_O 	O 	0.79765	0.5595	0.97755	-1.465
Mof_O 	O 	0.60847	0.3605	0.0918	-1.121
Mof_O 	O 	0.65757	0.26842	0.0779	-1.041
Mof_C 	C 	0.6518	0.3271	0.0706	0.702
Mof_C 	C 	0.7044	0.4276	0.033	0.223
Mof_C 	C 	0.7038	0.3613	0.0337	-0.351
Mof_Li	Li	0.842	0.6277	0.0282	2.79
Mof_H 	H 	0.666	0.454	0.059	-0.081
Mof_O 	O 	0.29765	0.0595	0.47755	-1.502
Mof_O 	O 	0.10847	0.8605	0.5918	-1.092
Mof_O 	O 	0.15757	0.76842	0.5779	-1.031
Mof_C 	C 	0.1518	0.8271	0.5706	0.694
Mof_C 	C 	0.2044	0.9276	0.533	0.214
Mof_C 	C 	0.2038	0.8613	0.5337	-0.345
Mof_Li	Li	0.342	0.1277	0.5282	2.911
Mof_H 	H 	0.166	0.954	0.559	-0.072
Mof_O 	O 	0.20235	0.0595	0.52245	-1.501
Mof_O 	O 	0.39153	0.8605	0.4082	-1.121
Mof_O 	O 	0.34243	0.76842	0.4221	-1.039
Mof_C 	C 	0.3482	0.8271	0.4294	0.704
Mof_C 	C 	0.2956	0.9276	0.467	0.215
Mof_C 	C 	0.2962	0.8613	0.4663	-0.347
Mof_Li	Li	0.158	0.1277	0.4718	2.901
Mof_H 	H 	0.334	0.954	0.441	-0.071
Mof_O 	O 	0.70235	0.5595	0.02245	-1.524
Mof_O 	O 	0.89153	0.3605	0.9082	-1.146
Mof_O 	O 	0.84243	0.26842	0.9221	-1.041
Mof_C 	C 	0.8482	0.3271	0.9294	0.712
Mof_C 	C 	0.7956	0.4276	0.967	0.242
Mof_C 	C 	0.7962	0.3613	0.9663	-0.334
Mof_Li	Li	0.658	0.6277	0.9718	3.052
Mof_H 	H 	0.834	0.454	0.941	-0.079
Mof_O 	O 	0.29765	0.9405	0.02245	-1.527
Mof_O 	O 	0.10847	0.1395	0.9082	-1.093
Mof_O 	O 	0.15757	0.23158	0.9221	-1.027
Mof_C 	C 	0.1518	0.1729	0.9294	0.693
Mof_C 	C 	0.2044	0.0724	0.967	0.242
Mof_C 	C 	0.2038	0.1387	0.9663	-0.335
Mof_Li	Li	0.342	0.8723	0.9718	3.06
Mof_H 	H 	0.166	0.046	0.941	-0.086
Mof_O 	O 	0.79765	0.4405	0.52245	-1.507
Mof_O 	O 	0.60847	0.6395	0.4082	-1.122
Mof_O 	O 	0.65757	0.73158	0.4221	-1.04
Mof_C 	C 	0.6518	0.6729	0.4294	0.705
Mof_C 	C 	0.7044	0.5724	0.467	0.224
Mof_C 	C 	0.7038	0.6387	0.4663	-0.354
Mof_Li	Li	0.842	0.3723	0.4718	2.932
Mof_H 	H 	0.666	0.546	0.441	-0.079
Mof_O 	O 	0.70235	0.4405	0.47755	-1.505
Mof_O 	O 	0.89153	0.6395	0.5918	-1.148
Mof_O 	O 	0.84243	0.73158	0.5779	-1.048
Mof_C 	C 	0.8482	0.6729	0.5706	0.716
Mof_C 	C 	0.7956	0.5724	0.533	0.225
Mof_C 	C 	0.7962	0.6387	0.5337	-0.356
Mof_Li	Li	0.658	0.3723	0.5282	2.921
Mof_H 	H 	0.834	0.546	0.559	-0.079
Mof_O 	O 	0.20235	0.9405	0.97755	-1.465
Mof_O 	O 	0.39153	0.1395	0.0918	-1.121
Mof_O 	O 	0.34243	0.23158	0.0779	-1.042
Mof_C 	C 	0.3482	0.1729	0.0706	0.702
Mof_C 	C 	0.2956	0.0724	0.033	0.228
Mof_C 	C 	0.2962	0.1387	0.0337	-0.354
Mof_Li	Li	0.158	0.8723	0.0282	2.786
Mof_H 	H 	0.334	0.046	0.059	-0.088
Mof_O 	O 	0.04765	0.22755	0.8095	-1.483
Mof_O 	O 	0.85847	0.3418	0.6105	-1.12
Mof_O 	O 	0.90757	0.3279	0.51842	-1.036
Mof_C 	C 	0.9018	0.3206	0.5771	0.702
Mof_C 	C 	0.9544	0.283	0.6776	0.24
Mof_C 	C 	0.9538	0.2837	0.6113	-0.334
Mof_Li	Li	0.092	0.2782	0.8777	2.908
Mof_H 	H 	0.916	0.309	0.704	-0.081
Mof_O 	O 	0.54765	0.72755	0.3095	-1.506
Mof_O 	O 	0.35847	0.8418	0.1105	-1.125
Mof_O 	O 	0.40757	0.8279	0.01842	-1.078
Mof_C 	C 	0.4018	0.8206	0.0771	0.713
Mof_C 	C 	0.4544	0.783	0.1776	0.225
Mof_C 	C 	0.4538	0.7837	0.1113	-0.357
Mof_Li	Li	0.592	0.7782	0.3777	2.921
Mof_H 	H 	0.416	0.809	0.204	-0.079
Mof_O 	O 	0.45235	0.77245	0.3095	-1.506
Mof_O 	O 	0.64153	0.6582	0.1105	-1.125
Mof_O 	O 	0.59243	0.6721	0.01842	-1.078
Mof_C 	C 	0.5982	0.6794	0.0771	0.711
Mof_C 	C 	0.5456	0.717	0.1776	0.225
Mof_C 	C 	0.5462	0.7163	0.1113	-0.358
Mof_Li	Li	0.408	0.7218	0.3777	2.917
Mof_H 	H 	0.584	0.691	0.204	-0.08
Mof_O 	O 	0.95235	0.27245	0.8095	-1.51
Mof_O 	O 	0.14153	0.1582	0.6105	-1.121
Mof_O 	O 	0.09243	0.1721	0.51842	-1.04
Mof_C 	C 	0.0982	0.1794	0.5771	0.701
Mof_C 	C 	0.0456	0.217	0.6776	0.221
Mof_C 	C 	0.0462	0.2163	0.6113	-0.35
Mof_Li	Li	0.908	0.2218	0.8777	2.939
Mof_H 	H 	0.084	0.191	0.704	-0.08
Mof_O 	O 	0.54765	0.27245	0.1905	-1.502
Mof_O 	O 	0.35847	0.1582	0.3895	-1.122
Mof_O 	O 	0.40757	0.1721	0.48158	-1.04
Mof_C 	C 	0.4018	0.1794	0.4229	0.704
Mof_C 	C 	0.4544	0.217	0.3224	0.223
Mof_C 	C 	0.4538	0.2163	0.3887	-0.354
Mof_Li	Li	0.592	0.2218	0.1223	2.916
Mof_H 	H 	0.416	0.191	0.296	-0.08
Mof_O 	O 	0.04765	0.77245	0.6905	-1.48
Mof_O 	O 	0.85847	0.6582	0.8895	-1.115
Mof_O 	O 	0.90757	0.6721	0.98158	-0.995
Mof_C 	C 	0.9018	0.6794	0.9229	0.696
Mof_C 	C 	0.9544	0.717	0.8224	0.24
Mof_C 	C 	0.9538	0.7163	0.8887	-0.326
Mof_Li	Li	0.092	0.7218	0.6223	2.899
Mof_H 	H 	0.916	0.691	0.796	-0.081
Mof_O 	O 	0.95235	0.72755	0.6905	-1.508
Mof_O 	O 	0.14153	0.8418	0.8895	-1.115
Mof_O 	O 	0.09243	0.8279	0.98158	-1.002
Mof_C 	C 	0.0982	0.8206	0.9229	0.697
Mof_C 	C 	0.0456	0.783	0.8224	0.221
Mof_C 	C 	0.0462	0.7837	0.8887	-0.343
Mof_Li	Li	0.908	0.7782	0.6223	2.938
Mof_H 	H 	0.084	0.809	0.796	-0.077
Mof_O 	O 	0.45235	0.22755	0.1905	-1.501
Mof_O 	O 	0.64153	0.3418	0.3895	-1.121
Mof_O 	O 	0.59243	0.3279	0.48158	-1.04
Mof_C 	C 	0.5982	0.3206	0.4229	0.705
Mof_C 	C 	0.5456	0.283	0.3224	0.223
Mof_C 	C 	0.5462	0.2837	0.3887	-0.353
Mof_Li	Li	0.408	0.2782	0.1223	2.918
Mof_H 	H 	0.584	0.309	0.296	-0.079
Mof_O 	O 	0.22755	0.8095	0.04765	-1.483
Mof_O 	O 	0.3418	0.6105	0.85847	-1.12
Mof_O 	O 	0.3279	0.51842	0.90757	-1.036
Mof_C 	C 	0.3206	0.5771	0.9018	0.702
Mof_C 	C 	0.283	0.6776	0.9544	0.24
Mof_C 	C 	0.2837	0.6113	0.9538	-0.334
Mof_Li	Li	0.2782	0.8777	0.092	2.908
Mof_H 	H 	0.309	0.704	0.916	-0.081
Mof_O 	O 	0.72755	0.3095	0.54765	-1.506
Mof_O 	O 	0.8418	0.1105	0.35847	-1.125
Mof_O 	O 	0.8279	0.01842	0.40757	-1.078
Mof_C 	C 	0.8206	0.0771	0.4018	0.713
Mof_C 	C 	0.783	0.1776	0.4544	0.225
Mof_C 	C 	0.7837	0.1113	0.4538	-0.357
Mof_Li	Li	0.7782	0.3777	0.592	2.921
Mof_H 	H 	0.809	0.204	0.416	-0.079
Mof_O 	O 	0.77245	0.3095	0.45235	-1.506
Mof_O 	O 	0.6582	0.1105	0.64153	-1.125
Mof_O 	O 	0.6721	0.01842	0.59243	-1.078
Mof_C 	C 	0.6794	0.0771	0.5982	0.711
Mof_C 	C 	0.717	0.1776	0.5456	0.225
Mof_C 	C 	0.7163	0.1113	0.5462	-0.358
Mof_Li	Li	0.7218	0.3777	0.408	2.917
Mof_H 	H 	0.691	0.204	0.584	-0.08
Mof_O 	O 	0.27245	0.8095	0.95235	-1.51
Mof_O 	O 	0.1582	0.6105	0.14153	-1.121
Mof_O 	O 	0.1721	0.51842	0.09243	-1.04
Mof_C 	C 	0.1794	0.5771	0.0982	0.701
Mof_C 	C 	0.217	0.6776	0.0456	0.221
Mof_C 	C 	0.2163	0.6113	0.0462	-0.35
Mof_Li	Li	0.2218	0.8777	0.908	2.939
Mof_H 	H 	0.191	0.704	0.084	-0.08
Mof_O 	O 	0.27245	0.1905	0.54765	-1.502
Mof_O 	O 	0.1582	0.3895	0.35847	-1.122
Mof_O 	O 	0.1721	0.48158	0.40757	-1.04
Mof_C 	C 	0.1794	0.4229	0.4018	0.704
Mof_C 	C 	0.217	0.3224	0.4544	0.223
Mof_C 	C 	0.2163	0.3887	0.4538	-0.354
Mof_Li	Li	0.2218	0.1223	0.592	2.916
Mof_H 	H 	0.191	0.296	0.416	-0.08
Mof_O 	O 	0.77245	0.6905	0.04765	-1.48
Mof_O 	O 	0.6582	0.8895	0.85847	-1.115
Mof_O 	O 	0.6721	0.98158	0.90757	-0.995
Mof_C 	C 	0.6794	0.9229	0.9018	0.696
Mof_C 	C 	0.717	0.8224	0.9544	0.24
Mof_C 	C 	0.7163	0.8887	0.9538	-0.326
Mof_Li	Li	0.7218	0.6223	0.092	2.899
Mof_H 	H 	0.691	0.796	0.916	-0.081
Mof_O 	O 	0.72755	0.6905	0.95235	-1.508
Mof_O 	O 	0.8418	0.8895	0.14153	-1.115
Mof_O 	O 	0.8279	0.98158	0.09243	-1.002
Mof_C 	C 	0.8206	0.9229	0.0982	0.697
Mof_C 	C 	0.783	0.8224	0.0456	0.221
Mof_C 	C 	0.7837	0.8887	0.0462	-0.343
Mof_Li	Li	0.7782	0.6223	0.908	2.938
Mof_H 	H 	0.809	0.796	0.084	-0.077
Mof_O 	O 	0.22755	0.1905	0.45235	-1.501
Mof_O 	O 	0.3418	0.3895	0.64153	-1.121
Mof_O 	O 	0.3279	0.48158	0.59243	-1.04
Mof_C 	C 	0.3206	0.4229	0.5982	0.705
Mof_C 	C 	0.283	0.3224	0.5456	0.223
Mof_C 	C 	0.2837	0.3887	0.5462	-0.353
Mof_Li	Li	0.2782	0.1223	0.408	2.918
Mof_H 	H 	0.309	0.296	0.584	-0.079
Mof_O 	O 	0.8095	0.04765	0.22755	-1.483
Mof_O 	O 	0.6105	0.85847	0.3418	-1.12
Mof_O 	O 	0.51842	0.90757	0.3279	-1.036
Mof_C 	C 	0.5771	0.9018	0.3206	0.702
Mof_C 	C 	0.6776	0.9544	0.283	0.24
Mof_C 	C 	0.6113	0.9538	0.2837	-0.334
Mof_Li	Li	0.8777	0.092	0.2782	2.908
Mof_H 	H 	0.704	0.916	0.309	-0.081
Mof_O 	O 	0.3095	0.54765	0.72755	-1.506
Mof_O 	O 	0.1105	0.35847	0.8418	-1.125
Mof_O 	O 	0.01842	0.40757	0.8279	-1.078
Mof_C 	C 	0.0771	0.4018	0.8206	0.713
Mof_C 	C 	0.1776	0.4544	0.783	0.225
Mof_C 	C 	0.1113	0.4538	0.7837	-0.357
Mof_Li	Li	0.3777	0.592	0.7782	2.921
Mof_H 	H 	0.204	0.416	0.809	-0.079
Mof_O 	O 	0.3095	0.45235	0.77245	-1.506
Mof_O 	O 	0.1105	0.64153	0.6582	-1.125
Mof_O 	O 	0.01842	0.59243	0.6721	-1.078
Mof_C 	C 	0.0771	0.5982	0.6794	0.711
Mof_C 	C 	0.1776	0.5456	0.717	0.225
Mof_C 	C 	0.1113	0.5462	0.7163	-0.358
Mof_Li	Li	0.3777	0.408	0.7218	2.917
Mof_H 	H 	0.204	0.584	0.691	-0.08
Mof_O 	O 	0.8095	0.95235	0.27245	-1.51
Mof_O 	O 	0.6105	0.14153	0.1582	-1.121
Mof_O 	O 	0.51842	0.09243	0.1721	-1.04
Mof_C 	C 	0.5771	0.0982	0.1794	0.701
Mof_C 	C 	0.6776	0.0456	0.217	0.221
Mof_C 	C 	0.6113	0.0462	0.2163	-0.35
Mof_Li	Li	0.8777	0.908	0.2218	2.939
Mof_H 	H 	0.704	0.084	0.191	-0.08
Mof_O 	O 	0.1905	0.54765	0.27245	-1.502
Mof_O 	O 	0.3895	0.35847	0.1582	-1.122
Mof_O 	O 	0.48158	0.40757	0.1721	-1.04
Mof_C 	C 	0.4229	0.4018	0.1794	0.704
Mof_C 	C 	0.3224	0.4544	0.217	0.223
Mof_C 	C 	0.3887	0.4538	0.2163	-0.354
Mof_Li	Li	0.1223	0.592	0.2218	2.916
Mof_H 	H 	0.296	0.416	0.191	-0.08
Mof_O 	O 	0.6905	0.04765	0.77245	-1.48
Mof_O 	O 	0.8895	0.85847	0.6582	-1.115
Mof_O 	O 	0.98158	0.90757	0.6721	-0.995
Mof_C 	C 	0.9229	0.9018	0.6794	0.696
Mof_C 	C 	0.8224	0.9544	0.717	0.24
Mof_C 	C 	0.8887	0.9538	0.7163	-0.326
Mof_Li	Li	0.6223	0.092	0.7218	2.899
Mof_H 	H 	0.796	0.916	0.691	-0.081
Mof_O 	O 	0.6905	0.95235	0.72755	-1.508
Mof_O 	O 	0.8895	0.14153	0.8418	-1.115
Mof_O 	O 	0.98158	0.09243	0.8279	-1.002
Mof_C 	C 	0.9229	0.0982	0.8206	0.697
Mof_C 	C 	0.8224	0.0456	0.783	0.221
Mof_C 	C 	0.8887	0.0462	0.7837	-0.343
Mof_Li	Li	0.6223	0.908	0.7782	2.938
Mof_H 	H 	0.796	0.084	0.809	-0.077
Mof_O 	O 	0.1905	0.45235	0.22755	-1.501
Mof_O 	O 	0.3895	0.64153	0.3418	-1.121
Mof_O 	O 	0.48158	0.59243	0.3279	-1.04
Mof_C 	C 	0.4229	0.5982	0.3206	0.705
Mof_C 	C 	0.3224	0.5456	0.283	0.223
Mof_C 	C 	0.3887	0.5462	0.2837	-0.353
Mof_Li	Li	0.1223	0.408	0.2782	2.918
Mof_H 	H 	0.296	0.584	0.309	-0.079
Mof_C 	C 	-3.62552e-33	0.75	0.4606	-0.409
Mof_C 	C 	-6.79181e-33	0.75	0.3299	0.183
Mof_C 	C 	-1.40635e-32	0.75	0.5318	0.707
Mof_H 	H 	1.03108e-33	0.75	0.275	-0.043
Mof_C 	C 	0.5	0.25	0.9606	-0.365
Mof_C 	C 	0.5	0.25	0.8299	0.203
Mof_C 	C 	0.5	0.25	0.0318	0.705
Mof_H 	H 	0.5	0.25	0.775	-0.04
Mof_C 	C 	-5.21335e-34	0.25	0.0394	-0.428
Mof_C 	C 	-7.0035e-34	0.25	0.1701	0.185
Mof_C 	C 	-7.07481e-33	0.25	0.9682	0.727
Mof_H 	H 	3.51986e-33	0.25	0.225	-0.043
Mof_C 	C 	0.5	0.75	0.5394	-0.392
Mof_C 	C 	0.5	0.75	0.6701	0.209
Mof_C 	C 	0.5	0.75	0.4682	0.729
Mof_H 	H 	0.5	0.75	0.725	-0.042
Mof_C 	C 	0.4606	0	0.75	-0.409
Mof_C 	C 	0.3299	0	0.75	0.183
Mof_C 	C 	0.5318	0	0.75	0.707
Mof_H 	H 	0.275	0	0.75	-0.043
Mof_C 	C 	0.9606	0.5	0.25	-0.365
Mof_C 	C 	0.8299	0.5	0.25	0.203
Mof_C 	C 	0.0318	0.5	0.25	0.705
Mof_H 	H 	0.775	0.5	0.25	-0.04
Mof_C 	C 	0.0394	0	0.25	-0.428
Mof_C 	C 	0.1701	0	0.25	0.185
Mof_C 	C 	0.9682	0	0.25	0.727
Mof_H 	H 	0.225	0	0.25	-0.043
Mof_C 	C 	0.5394	0.5	0.75	-0.392
Mof_C 	C 	0.6701	0.5	0.75	0.209
Mof_C 	C 	0.4682	0.5	0.75	0.729
Mof_H 	H 	0.725	0.5	0.75	-0.042
Mof_C 	C 	0.75	0.4606	-0	-0.409
Mof_C 	C 	0.75	0.3299	-0	0.183
Mof_C 	C 	0.75	0.5318	-0	0.707
Mof_H 	H 	0.75	0.275	-0	-0.043
Mof_C 	C 	0.25	0.9606	0.5	-0.365
Mof_C 	C 	0.25	0.8299	0.5	0.203
Mof_C 	C 	0.25	0.0318	0.5	0.705
Mof_H 	H 	0.25	0.775	0.5	-0.04
Mof_C 	C 	0.25	0.0394	-0	-0.428
Mof_C 	C 	0.25	0.1701	-0	0.185
Mof_C 	C 	0.25	0.9682	-0	0.727
Mof_H 	H 	0.25	0.225	-0	-0.043
Mof_C 	C 	0.75	0.5394	0.5	-0.392
Mof_C 	C 	0.75	0.6701	0.5	0.209
Mof_C 	C 	0.75	0.4682	0.5	0.729
Mof_H 	H 	0.75	0.725	0.5	-0.042
Mof_C 	C 	-1.33931e-32	0.25	0.7106	-0.408
Mof_C 	C 	-3.17821e-33	0.25	0.5799	0.182
Mof_C 	C 	-2.42121e-33	0.25	0.7818	0.707
Mof_H 	H 	-3.38406e-33	0.25	0.525	-0.043
Mof_C 	C 	0.5	0.75	0.2106	-0.393
Mof_C 	C 	0.5	0.75	0.0799	0.21
Mof_C 	C 	0.5	0.75	0.2818	0.729
Mof_H 	H 	0.5	0.75	0.025	-0.047
Mof_C 	C 	0.5	0.25	0.2894	-0.391
Mof_C 	C 	0.5	0.25	0.4201	0.207
Mof_C 	C 	0.5	0.25	0.2182	0.728
Mof_H 	H 	0.5	0.25	0.475	-0.042
Mof_C 	C 	-7.74521e-33	0.75	0.7894	-0.406
Mof_C 	C 	-7.25516e-33	0.75	0.9201	0.179
Mof_C 	C 	-1.33647e-32	0.75	0.7182	0.706
Mof_H 	H 	-7.04932e-33	0.75	0.975	-0.036
Mof_C 	C 	0.25	0.7106	-0	-0.408
Mof_C 	C 	0.25	0.5799	-0	0.182
Mof_C 	C 	0.25	0.7818	-0	0.707
Mof_H 	H 	0.25	0.525	-0	-0.043
Mof_C 	C 	0.75	0.2106	0.5	-0.393
Mof_C 	C 	0.75	0.0799	0.5	0.21
Mof_C 	C 	0.75	0.2818	0.5	0.729
Mof_H 	H 	0.75	0.025	0.5	-0.047
Mof_C 	C 	0.25	0.2894	0.5	-0.391
Mof_C 	C 	0.25	0.4201	0.5	0.207
Mof_C 	C 	0.25	0.2182	0.5	0.728
Mof_H 	H 	0.25	0.475	0.5	-0.042
Mof_C 	C 	0.75	0.7894	-0	-0.406
Mof_C 	C 	0.75	0.9201	-0	0.179
Mof_C 	C 	0.75	0.7182	-0	0.706
Mof_H 	H 	0.75	0.975	-0	-0.036
Mof_C 	C 	0.7106	0	0.25	-0.408
Mof_C 	C 	0.5799	0	0.25	0.182
Mof_C 	C 	0.7818	0	0.25	0.707
Mof_H 	H 	0.525	0	0.25	-0.043
Mof_C 	C 	0.2106	0.5	0.75	-0.393
Mof_C 	C 	0.0799	0.5	0.75	0.21
Mof_C 	C 	0.2818	0.5	0.75	0.729
Mof_H 	H 	0.025	0.5	0.75	-0.047
Mof_C 	C 	0.2894	0.5	0.25	-0.391
Mof_C 	C 	0.4201	0.5	0.25	0.207
Mof_C 	C 	0.2182	0.5	0.25	0.728
Mof_H 	H 	0.475	0.5	0.25	-0.042
Mof_C 	C 	0.7894	0	0.75	-0.406
Mof_C 	C 	0.9201	0	0.75	0.179
Mof_C 	C 	0.7182	0	0.75	0.706
Mof_H 	H 	0.975	0	0.75	-0.036
_end
