data_functionalizedCrystal
_audit_creation_method	'EQeq! by Chris Wilmer'
_symmetry_space_group_name_H-M	'P1'
_symmetry_Int_Tables_number	1
_symmetry_cell_setting	triclinic
loop_
_symmetry_equiv_pos_as_xyz
  x,y,z
_cell_length_a	12.3428
_cell_length_b	14.963
_cell_length_c	16.137
_cell_angle_alpha	116.589
_cell_angle_beta	90
_cell_angle_gamma	90
loop_
_atom_site_label
_atom_site_type_symbol
_atom_site_fract_x
_atom_site_fract_y
_atom_site_fract_z
_atom_site_charge
Mof_Co	Co	0.17757	0.74925	0.02502	1.084
Mof_Co	Co	0.54833	0.52142	0.99389	1.192
Mof_Co	Co	0.67757	0.25075	0.97498	1.105
Mof_Co	Co	0.04833	0.47858	0.00611	1.167
Mof_P 	P 	0.1859	0.64064	0.16028	0.404
Mof_P 	P 	0.3919	0.63237	0.91124	0.43
Mof_P 	P 	0.51096	0.43012	0.1207	0.379
Mof_P 	P 	0.2476	0.32009	0.91663	0.421
Mof_P 	P 	0.6859	0.35936	0.83972	0.406
Mof_P 	P 	0.8919	0.36763	0.08876	0.411
Mof_P 	P 	0.01096	0.56988	0.8793	0.346
Mof_P 	P 	0.7476	0.67991	0.08337	0.421
Mof_H 	H 	0.7802	0.568	0.7563	0.06
Mof_H 	H 	0.8747	0.5749	0.6353	0.106
Mof_H 	H 	0.6126	0.5936	0.8455	0.045
Mof_H 	H 	0.337	0.6746	0.7575	0.029
Mof_H 	H 	0.4283	0.7869	0.3925	0.057
Mof_H 	H 	0.0911	0.8328	0.282	-0.001
Mof_H 	H 	0.4306	0.682	0.6392	0.074
Mof_H 	H 	0.2012	0.6943	0.6266	0.098
Mof_H 	H 	0.242	0.6123	0.3164	0.052
Mof_H 	H 	0.7882	0.054	0.6313	0.096
Mof_H 	H 	0.9034	0.5169	0.4711	-0.021
Mof_H 	H 	0.9583	0.6236	0.5338	-0.017
Mof_H 	H 	0.8695	0.189	0.7528	0.018
Mof_H 	H 	0.2528	0.6215	0.4734	0.027
Mof_H 	H 	0.0303	0.2727	0.8438	0.01
Mof_H 	H 	0.4612	0.8863	0.5489	0.031
Mof_H 	H 	0.9967	0.7416	0.7026	-0.33
Mof_H 	H 	0.9885	0.8356	0.801	-0.334
Mof_H 	H 	0.8138	0.7837	0.3573	0.247
Mof_H 	H 	0.6861	0.7998	0.3742	0.236
Mof_H 	H 	0.752	0.7382	0.4171	0.246
Mof_H 	H 	0.0525	0.9166	0.4376	0.051
Mof_H 	H 	0.6337	0.491	0.4251	0.058
Mof_H 	H 	0.2365	0.9837	0.6756	0.043
Mof_H 	H 	0.8749	0.567	0.3522	0.183
Mof_H 	H 	0.0013	0.5667	0.3744	0.136
Mof_H 	H 	0.9359	0.67	0.4141	0.187
Mof_H 	H 	0.5625	0.9885	0.7279	0.31
Mof_H 	H 	0.4565	0.9325	0.6727	0.332
Mof_H 	H 	0.7776	0.9485	0.4751	-0.073
Mof_H 	H 	0.7182	0.9018	0.5355	-0.073
Mof_H 	H 	0.3168	0.1244	0.7869	0.037
Mof_H 	H 	0.6153	0.3977	0.2677	0.044
Mof_H 	H 	0.4538	0.6258	0.2523	0.07
Mof_H 	H 	0.3974	0.9329	0.7751	-0.326
Mof_H 	H 	0.4953	0.0039	0.8323	-0.325
Mof_H 	H 	0.5035	0.8857	0.7968	-0.294
Mof_H 	H 	0.8361	0.7998	0.7302	0.612
Mof_H 	H 	0.8861	0.8134	0.6451	0.62
Mof_H 	H 	0.877	0.9074	0.745	0.592
Mof_H 	H 	0.2802	0.432	0.2437	0.079
Mof_H 	H 	0.3747	0.4251	0.3647	0.081
Mof_H 	H 	0.1126	0.4064	0.1545	0.079
Mof_H 	H 	0.837	0.3254	0.2425	0.065
Mof_H 	H 	0.9283	0.2131	0.6075	0.008
Mof_H 	H 	0.5911	0.1672	0.718	0.007
Mof_H 	H 	0.9306	0.318	0.3608	0.031
Mof_H 	H 	0.7012	0.3057	0.3734	0.1
Mof_H 	H 	0.742	0.3877	0.6836	0.053
Mof_H 	H 	0.2882	0.946	0.3687	0.083
Mof_H 	H 	0.4034	0.4831	0.5289	-0.064
Mof_H 	H 	0.4583	0.3764	0.4662	-0.065
Mof_H 	H 	0.3695	0.811	0.2472	0.035
Mof_H 	H 	0.7528	0.3785	0.5266	0.029
Mof_H 	H 	0.5303	0.7273	0.1562	0.033
Mof_H 	H 	0.9612	0.1137	0.4511	0.096
Mof_H 	H 	0.4967	0.2584	0.2974	-0.3
Mof_H 	H 	0.4885	0.1644	0.199	-0.297
Mof_H 	H 	0.3138	0.2163	0.6427	0.232
Mof_H 	H 	0.1861	0.2002	0.6258	0.223
Mof_H 	H 	0.252	0.2618	0.5829	0.235
Mof_H 	H 	0.5525	0.0834	0.5624	0.078
Mof_H 	H 	0.1337	0.509	0.5749	0.086
Mof_H 	H 	0.7365	0.0163	0.3244	0.109
Mof_H 	H 	0.3749	0.433	0.6478	0.245
Mof_H 	H 	0.5013	0.4333	0.6256	0.238
Mof_H 	H 	0.4359	0.33	0.5859	0.242
Mof_H 	H 	0.0625	0.0115	0.2721	-0.044
Mof_H 	H 	0.9565	0.0675	0.3273	0.003
Mof_H 	H 	0.2776	0.0515	0.5249	-0.052
Mof_H 	H 	0.2182	0.0982	0.4645	-0.057
Mof_H 	H 	0.8168	0.8756	0.2131	0.017
Mof_H 	H 	0.1153	0.6023	0.7323	0.009
Mof_H 	H 	0.9538	0.3742	0.7477	0.009
Mof_H 	H 	0.8974	0.0671	0.2249	0.156
Mof_H 	H 	0.9953	0.9961	0.1677	0.11
Mof_H 	H 	0.0035	0.1143	0.2032	0.116
Mof_H 	H 	0.3361	0.2002	0.2698	0.565
Mof_H 	H 	0.3861	0.1866	0.3549	0.57
Mof_H 	H 	0.377	0.0926	0.255	0.551
Mof_C 	C 	0.1706	0.7122	0.2838	-0.069
Mof_C 	C 	0.5782	0.6398	0.6654	0.054
Mof_C 	C 	0.5623	0.621	0.4359	0
Mof_C 	C 	0.4636	0.6327	0.8154	-0.074
Mof_C 	C 	0.5485	0.7807	0.5688	0.042
Mof_C 	C 	0.744	0.5875	0.7151	-0.003
Mof_C 	C 	0.0814	0.0416	0.6867	0.099
Mof_C 	C 	0.7461	0.6199	0.5825	0.163
Mof_C 	C 	0.0217	0.1304	0.7387	-0.111
Mof_C 	C 	0.1829	0.7236	0.4384	-0.033
Mof_C 	C 	0.6322	0.6125	0.728	-0.024
Mof_C 	C 	0.1197	0.8105	0.6222	0.217
Mof_C 	C 	0.0306	0.9568	0.6167	-0.141
Mof_C 	C 	0.7998	0.5914	0.6436	-0.164
Mof_C 	C 	0.9241	0.9631	0.5954	0.193
Mof_C 	C 	0.5753	0.6103	0.8028	-0.023
Mof_C 	C 	0.4122	0.6592	0.7509	0.016
Mof_C 	C 	0.4676	0.7604	0.4271	-0.071
Mof_C 	C 	0.583	0.6833	0.5321	0.007
Mof_C 	C 	0.1135	0.805	0.3218	0.001
Mof_C 	C 	0.4679	0.6629	0.6803	-0.092
Mof_C 	C 	0.6373	0.6458	0.593	-0.076
Mof_C 	C 	0.0903	0.8595	0.5695	-0.07
Mof_C 	C 	0.1809	0.7237	0.5876	-0.183
Mof_C 	C 	0.2038	0.674	0.3414	-0.029
Mof_C 	C 	0.8621	0.0508	0.6461	-0.176
Mof_C 	C 	0.9043	0.5882	0.4845	0.223
Mof_C 	C 	0.5048	0.6588	0.3822	0.026
Mof_C 	C 	0.9114	0.1311	0.7172	0.078
Mof_C 	C 	0.121	0.817	0.4761	0.042
Mof_C 	C 	0.2113	0.6813	0.4973	0.014
Mof_C 	C 	0.0717	0.2144	0.8086	0.011
Mof_C 	C 	0.4878	0.8198	0.5192	-0.051
Mof_C 	C 	0.9897	0.8153	0.7336	1.332
Mof_C 	C 	0.7551	0.7946	0.4017	-0.687
Mof_C 	C 	0.0903	0.8548	0.4146	-0.102
Mof_C 	C 	0.5994	0.5197	0.39	-0.056
Mof_C 	C 	0.1943	0.0422	0.7083	-0.056
Mof_C 	C 	0.9315	0.5989	0.3989	-0.458
Mof_C 	C 	0.5154	0.9298	0.7132	-1.063
Mof_C 	C 	0.7759	0.8907	0.4893	0.338
Mof_C 	C 	0.1795	0.2127	0.8262	-0.08
Mof_C 	C 	0.2416	0.1249	0.7746	-0.001
Mof_C 	C 	0.5866	0.4636	0.2969	-0.019
Mof_C 	C 	0.4914	0.5992	0.2877	-0.067
Mof_C 	C 	0.5309	0.5024	0.243	-0.028
Mof_C 	C 	0.476	0.9384	0.7821	1.199
Mof_C 	C 	0.8906	0.8353	0.712	-1.964
Mof_C 	C 	0.6706	0.2878	0.7162	-0.067
Mof_C 	C 	0.0782	0.3602	0.3346	-0.086
Mof_C 	C 	0.0623	0.379	0.5641	0.106
Mof_C 	C 	0.9636	0.3673	0.1846	0.041
Mof_C 	C 	0.0485	0.2193	0.4312	0.136
Mof_C 	C 	0.244	0.4125	0.2849	-0.07
Mof_C 	C 	0.5814	0.9584	0.3133	0.032
Mof_C 	C 	0.2461	0.3801	0.4175	0.125
Mof_C 	C 	0.5217	0.8696	0.2613	-0.03
Mof_C 	C 	0.6829	0.2764	0.5616	-0.037
Mof_C 	C 	0.1322	0.3875	0.272	0.07
Mof_C 	C 	0.6197	0.1895	0.3778	0.224
Mof_C 	C 	0.5306	0.0432	0.3833	-0.029
Mof_C 	C 	0.2998	0.4086	0.3564	-0.114
Mof_C 	C 	0.4241	0.0369	0.4046	0.172
Mof_C 	C 	0.0753	0.3897	0.1972	-0.161
Mof_C 	C 	0.9122	0.3408	0.2491	-0.095
Mof_C 	C 	0.9676	0.2396	0.5729	0.106
Mof_C 	C 	0.083	0.3167	0.4679	-0.089
Mof_C 	C 	0.6135	0.195	0.6782	0.015
Mof_C 	C 	0.9679	0.3371	0.3197	0.063
Mof_C 	C 	0.1373	0.3542	0.407	0.004
Mof_C 	C 	0.5903	0.1405	0.4305	-0.086
Mof_C 	C 	0.6809	0.2763	0.4124	-0.179
Mof_C 	C 	0.7038	0.326	0.6586	-0.023
Mof_C 	C 	0.3621	0.9492	0.3539	-0.193
Mof_C 	C 	0.4043	0.4118	0.5155	0.338
Mof_C 	C 	0.0048	0.3412	0.6178	-0.188
Mof_C 	C 	0.4114	0.8689	0.2828	-0.008
Mof_C 	C 	0.621	0.183	0.5239	0.066
Mof_C 	C 	0.7113	0.3187	0.5027	0.022
Mof_C 	C 	0.5717	0.7856	0.1914	-0.02
Mof_C 	C 	0.9878	0.1802	0.4808	-0.134
Mof_C 	C 	0.4897	0.1847	0.2664	1.18
Mof_C 	C 	0.2551	0.2054	0.5983	-0.659
Mof_C 	C 	0.5903	0.1452	0.5854	-0.109
Mof_C 	C 	0.0994	0.4803	0.61	-0.158
Mof_C 	C 	0.6943	0.9578	0.2917	-0.145
Mof_C 	C 	0.4315	0.4011	0.6011	-0.696
Mof_C 	C 	0.0154	0.0702	0.2868	0.19
Mof_C 	C 	0.2759	0.1093	0.5107	0.316
Mof_C 	C 	0.6795	0.7873	0.1738	-0.076
Mof_C 	C 	0.7416	0.8751	0.2254	0.03
Mof_C 	C 	0.0866	0.5364	0.7031	0.068
Mof_C 	C 	0.9914	0.4008	0.7123	0.157
Mof_C 	C 	0.0309	0.4976	0.757	-0.155
Mof_C 	C 	0.976	0.0616	0.2179	-0.391
Mof_C 	C 	0.3906	0.1647	0.288	-1.8
Mof_O 	O 	0.32	0.7223	0.9503	-0.403
Mof_O 	O 	0.4712	0.6247	0.9772	-0.414
Mof_O 	O 	0.7994	0.6316	0.5129	-0.275
Mof_O 	O 	0.2623	0.5526	0.1515	-0.221
Mof_O 	O 	0.5794	0.8398	0.6599	-0.001
Mof_O 	O 	0.0755	0.5969	0.1211	-0.442
Mof_O 	O 	0.8784	0.8789	0.5244	-0.3
Mof_O 	O 	0.3185	0.5325	0.8687	-0.216
Mof_O 	O 	0.0879	0.8529	0.7163	-0.516
Mof_O 	O 	0.2352	0.7034	0.1196	-0.422
Mof_O 	O 	0.432	0.343	0.1096	-0.22
Mof_O 	O 	0.6211	0.3899	0.0761	-0.404
Mof_O 	O 	0.2821	0.2902	0.9889	-0.22
Mof_O 	O 	0.3539	0.337	0.8694	-0.214
Mof_O 	O 	0.4582	0.4961	0.0823	-0.37
Mof_O 	O 	0.1807	0.4106	0.9435	-0.399
Mof_O 	O 	0.82	0.2777	0.0497	-0.395
Mof_O 	O 	0.9712	0.3753	0.0228	-0.384
Mof_O 	O 	0.2994	0.3684	0.4871	-0.286
Mof_O 	O 	0.7623	0.4474	0.8485	-0.213
Mof_O 	O 	0.0794	0.1602	0.3401	-0.264
Mof_O 	O 	0.5755	0.4031	0.8789	-0.421
Mof_O 	O 	0.3784	0.1211	0.4756	-0.297
Mof_O 	O 	0.8185	0.4675	0.1313	-0.208
Mof_O 	O 	0.5879	0.1471	0.2837	-0.458
Mof_O 	O 	0.7352	0.2966	0.8804	-0.41
Mof_O 	O 	0.932	0.657	0.8904	-0.191
Mof_O 	O 	0.1211	0.6101	0.9239	-0.402
Mof_O 	O 	0.7821	0.7098	0.0111	-0.224
Mof_O 	O 	0.8539	0.663	0.1306	-0.202
Mof_O 	O 	0.9582	0.5039	0.9177	-0.33
Mof_O 	O 	0.6807	0.5894	0.0565	-0.398
_end
