data_functionalizedCrystal
_audit_creation_method	'EQeq! by Chris Wilmer'
_symmetry_space_group_name_H-M	'P1'
_symmetry_Int_Tables_number	1
_symmetry_cell_setting	triclinic
loop_
_symmetry_equiv_pos_as_xyz
  x,y,z
_cell_length_a	15.4974
_cell_length_b	15.4974
_cell_length_c	16.723
_cell_angle_alpha	78.8202
_cell_angle_beta	78.8202
_cell_angle_gamma	66.6183
loop_
_atom_site_label
_atom_site_type_symbol
_atom_site_fract_x
_atom_site_fract_y
_atom_site_fract_z
_atom_site_charge
Mof_U 	U 	0.61614	0.57008	0.5519	0.026
Mof_U 	U 	0.62752	0.1027	0.6261	0.041
Mof_U 	U 	0.9242	0.87272	0.46879	0.028
Mof_U 	U 	0.74442	0.7414	0.76944	0.036
Mof_U 	U 	0.42992	0.38386	0.9481	0.026
Mof_U 	U 	0.8973	0.37248	0.8739	0.04
Mof_U 	U 	0.12728	0.0758	0.03121	0.026
Mof_U 	U 	0.2586	0.25558	0.73056	0.036
Mof_U 	U 	0.38386	0.42992	0.4481	0.026
Mof_U 	U 	0.37248	0.8973	0.3739	0.041
Mof_U 	U 	0.0758	0.12728	0.53121	0.028
Mof_U 	U 	0.25558	0.2586	0.23056	0.036
Mof_U 	U 	0.57008	0.61614	0.0519	0.026
Mof_U 	U 	0.1027	0.62752	0.1261	0.04
Mof_U 	U 	0.87272	0.9242	0.96879	0.026
Mof_U 	U 	0.7414	0.74442	0.26944	0.036
Mof_P 	P 	0.46784	0.28492	0.75682	0.439
Mof_P 	P 	0.71191	0.86407	0.56484	0.449
Mof_P 	P 	0.78771	0.95153	0.77492	0.442
Mof_P 	P 	0.55851	0.36135	0.59454	0.438
Mof_P 	P 	0.88192	0.03792	0.61701	0.436
Mof_P 	P 	0.59869	0.80637	0.46541	0.45
Mof_P 	P 	0.71508	0.53216	0.74318	0.439
Mof_P 	P 	0.13593	0.28809	0.93516	0.448
Mof_P 	P 	0.04847	0.21229	0.72508	0.443
Mof_P 	P 	0.63865	0.44149	0.90546	0.438
Mof_P 	P 	0.96208	0.11808	0.88299	0.432
Mof_P 	P 	0.19363	0.40131	0.03459	0.446
Mof_P 	P 	0.53216	0.71508	0.24318	0.439
Mof_P 	P 	0.28809	0.13593	0.43516	0.449
Mof_P 	P 	0.21229	0.04847	0.22508	0.442
Mof_P 	P 	0.44149	0.63865	0.40546	0.438
Mof_P 	P 	0.11808	0.96208	0.38299	0.436
Mof_P 	P 	0.40131	0.19363	0.53459	0.45
Mof_P 	P 	0.28492	0.46784	0.25682	0.439
Mof_P 	P 	0.86407	0.71191	0.06484	0.448
Mof_P 	P 	0.95153	0.78771	0.27492	0.443
Mof_P 	P 	0.36135	0.55851	0.09454	0.438
Mof_P 	P 	0.03792	0.88192	0.11701	0.432
Mof_P 	P 	0.80637	0.59869	0.96541	0.446
Mof_H 	H 	0.5791	0.3533	0.7289	0.167
Mof_H 	H 	0.4798	0.4298	0.7117	0.177
Mof_H 	H 	0.9403	0.9453	0.7326	0.179
Mof_H 	H 	0.8744	0.047	0.7527	0.169
Mof_H 	H 	0.617	0.945	0.4655	0.182
Mof_H 	H 	0.5563	0.9225	0.5467	0.179
Mof_H 	H 	0.6467	0.4209	0.7711	0.167
Mof_H 	H 	0.5702	0.5202	0.7883	0.177
Mof_H 	H 	0.0547	0.0597	0.7674	0.178
Mof_H 	H 	0.953	0.1256	0.7473	0.166
Mof_H 	H 	0.055	0.383	0.0345	0.177
Mof_H 	H 	0.0775	0.4437	0.9533	0.177
Mof_H 	H 	0.4209	0.6467	0.2711	0.167
Mof_H 	H 	0.5202	0.5702	0.2883	0.177
Mof_H 	H 	0.0597	0.0547	0.2674	0.179
Mof_H 	H 	0.1256	0.953	0.2473	0.169
Mof_H 	H 	0.383	0.055	0.5345	0.182
Mof_H 	H 	0.4437	0.0775	0.4533	0.179
Mof_H 	H 	0.3533	0.5791	0.2289	0.167
Mof_H 	H 	0.4298	0.4798	0.2117	0.177
Mof_H 	H 	0.9453	0.9403	0.2326	0.178
Mof_H 	H 	0.047	0.8744	0.2527	0.166
Mof_H 	H 	0.945	0.617	0.9655	0.177
Mof_H 	H 	0.9225	0.5563	0.0467	0.177
Mof_C 	C 	0.5232	0.3658	0.7036	-0.366
Mof_C 	C 	0.8796	0.9958	0.7244	-0.367
Mof_C 	C 	0.6136	0.8952	0.5097	-0.383
Mof_C 	C 	0.6342	0.4768	0.7964	-0.366
Mof_C 	C 	0.0042	0.1204	0.7756	-0.361
Mof_C 	C 	0.1048	0.3864	0.9903	-0.375
Mof_C 	C 	0.4768	0.6342	0.2964	-0.366
Mof_C 	C 	0.1204	0.0042	0.2756	-0.367
Mof_C 	C 	0.3864	0.1048	0.4903	-0.383
Mof_C 	C 	0.3658	0.5232	0.2036	-0.366
Mof_C 	C 	0.9958	0.8796	0.2244	-0.361
Mof_C 	C 	0.8952	0.6136	0.0097	-0.375
Mof_O 	O 	0.8165	0.8501	0.7576	-0.153
Mof_O 	O 	0.6947	0.0185	0.7442	-0.142
Mof_O 	O 	0.9465	0.0945	0.5965	-0.173
Mof_O 	O 	0.6982	0.7996	0.6434	-0.148
Mof_O 	O 	0.6247	0.4169	0.567	-0.158
Mof_O 	O 	0.5296	0.1864	0.7341	-0.142
Mof_O 	O 	0.6134	0.2578	0.5829	-0.146
Mof_O 	O 	0.3683	0.3203	0.7323	-0.147
Mof_O 	O 	0.8043	0.8141	0.5121	-0.144
Mof_O 	O 	0.4659	0.2855	0.8497	-0.148
Mof_O 	O 	0.7818	0.956	0.8671	-0.146
Mof_O 	O 	0.7798	0.1034	0.6027	-0.143
Mof_O 	O 	0.47	0.4052	0.551	-0.152
Mof_O 	O 	0.7119	0.9573	0.5821	-0.157
Mof_O 	O 	0.6836	0.7702	0.4019	-0.15
Mof_O 	O 	0.5916	0.7276	0.5331	-0.153
Mof_O 	O 	0.5064	0.8566	0.4269	-0.168
Mof_O 	O 	0.9212	0.9522	0.5702	-0.151
Mof_O 	O 	0.1499	0.1835	0.7424	-0.152
Mof_O 	O 	0.9815	0.3053	0.7558	-0.144
Mof_O 	O 	0.9055	0.0535	0.9035	-0.173
Mof_O 	O 	0.2004	0.3018	0.8566	-0.147
Mof_O 	O 	0.5831	0.3753	0.933	-0.158
Mof_O 	O 	0.8136	0.4704	0.7659	-0.142
Mof_O 	O 	0.7422	0.3866	0.9171	-0.147
Mof_O 	O 	0.6797	0.6317	0.7677	-0.147
Mof_O 	O 	0.1859	0.1957	0.9879	-0.142
Mof_O 	O 	0.7145	0.5341	0.6503	-0.149
Mof_O 	O 	0.044	0.2182	0.6329	-0.145
Mof_O 	O 	0.8966	0.2202	0.8973	-0.144
Mof_O 	O 	0.5948	0.53	0.949	-0.152
Mof_O 	O 	0.0427	0.2881	0.9179	-0.156
Mof_O 	O 	0.2298	0.3164	0.0981	-0.15
Mof_O 	O 	0.2724	0.4084	0.9669	-0.151
Mof_O 	O 	0.1434	0.4936	0.0731	-0.168
Mof_O 	O 	0.0478	0.0788	0.9298	-0.148
Mof_O 	O 	0.1835	0.1499	0.2424	-0.153
Mof_O 	O 	0.3053	0.9815	0.2558	-0.142
Mof_O 	O 	0.0535	0.9055	0.4035	-0.173
Mof_O 	O 	0.3018	0.2004	0.3566	-0.148
Mof_O 	O 	0.3753	0.5831	0.433	-0.158
Mof_O 	O 	0.4704	0.8136	0.2659	-0.142
Mof_O 	O 	0.3866	0.7422	0.4171	-0.146
Mof_O 	O 	0.6317	0.6797	0.2677	-0.147
Mof_O 	O 	0.1957	0.1859	0.4879	-0.144
Mof_O 	O 	0.5341	0.7145	0.1503	-0.148
Mof_O 	O 	0.2182	0.044	0.1329	-0.146
Mof_O 	O 	0.2202	0.8966	0.3973	-0.143
Mof_O 	O 	0.53	0.5948	0.449	-0.152
Mof_O 	O 	0.2881	0.0427	0.4179	-0.157
Mof_O 	O 	0.3164	0.2298	0.5981	-0.15
Mof_O 	O 	0.4084	0.2724	0.4669	-0.153
Mof_O 	O 	0.4936	0.1434	0.5731	-0.168
Mof_O 	O 	0.0788	0.0478	0.4298	-0.151
Mof_O 	O 	0.8501	0.8165	0.2576	-0.152
Mof_O 	O 	0.0185	0.6947	0.2442	-0.144
Mof_O 	O 	0.0945	0.9465	0.0965	-0.173
Mof_O 	O 	0.7996	0.6982	0.1434	-0.147
Mof_O 	O 	0.4169	0.6247	0.067	-0.158
Mof_O 	O 	0.1864	0.5296	0.2341	-0.142
Mof_O 	O 	0.2578	0.6134	0.0829	-0.147
Mof_O 	O 	0.3203	0.3683	0.2323	-0.147
Mof_O 	O 	0.8141	0.8043	0.0121	-0.142
Mof_O 	O 	0.2855	0.4659	0.3497	-0.149
Mof_O 	O 	0.956	0.7818	0.3671	-0.145
Mof_O 	O 	0.1034	0.7798	0.1027	-0.144
Mof_O 	O 	0.4052	0.47	0.051	-0.152
Mof_O 	O 	0.9573	0.7119	0.0821	-0.156
Mof_O 	O 	0.7702	0.6836	0.9019	-0.15
Mof_O 	O 	0.7276	0.5916	0.0331	-0.151
Mof_O 	O 	0.8566	0.5064	0.9269	-0.168
Mof_O 	O 	0.9522	0.9212	0.0702	-0.148
_end
