data_functionalizedCrystal
_audit_creation_method	'EQeq! by Chris Wilmer'
_symmetry_space_group_name_H-M	'P1'
_symmetry_Int_Tables_number	1
_symmetry_cell_setting	triclinic
loop_
_symmetry_equiv_pos_as_xyz
  x,y,z
_cell_length_a	7.8958
_cell_length_b	9.6083
_cell_length_c	15.514
_cell_angle_alpha	101.85
_cell_angle_beta	90
_cell_angle_gamma	90
loop_
_atom_site_label
_atom_site_type_symbol
_atom_site_fract_x
_atom_site_fract_y
_atom_site_fract_z
_atom_site_charge
Mof_Sm	Sm	0.39843	0.51074	0.54203	2.65
Mof_Sm	Sm	0.38659	0.01618	0.5369	2.623
Mof_Sm	Sm	0.89843	0.48926	0.45797	2.326
Mof_Sm	Sm	0.88659	0.98382	0.4631	2.36
Mof_Cu	Cu	0.5438	0.74651	0.00557	0.917
Mof_Cu	Cu	0.0438	0.25349	0.99443	0.957
Mof_H 	H 	0.5834	0.6304	0.8074	-0.005
Mof_H 	H 	0.062	0.8928	0.893	0.227
Mof_H 	H 	0.0207	0.7834	0.7415	0.136
Mof_H 	H 	0.0252	0.598	0.1117	0.133
Mof_H 	H 	0.0051	0.7558	0.2447	-0.004
Mof_H 	H 	0.4701	0.8976	0.2002	-0.017
Mof_H 	H 	0.0834	0.3696	0.1926	0.015
Mof_H 	H 	0.562	0.1072	0.107	0.08
Mof_H 	H 	0.5207	0.2166	0.2585	-0.028
Mof_H 	H 	0.5252	0.402	0.8883	0.092
Mof_H 	H 	0.5051	0.2442	0.7553	-0.041
Mof_H 	H 	0.9701	0.1024	0.7998	-0.054
Mof_C 	C 	0.7485	0.6336	0.6634	0.517
Mof_C 	C 	0.7991	0.7019	0.7615	-0.144
Mof_C 	C 	0.6795	0.685	0.8246	0.101
Mof_C 	C 	0.8413	0.8251	0.9333	0.041
Mof_C 	C 	0.9645	0.8408	0.8747	-0.278
Mof_C 	C 	0.9398	0.7749	0.7837	-0.079
Mof_C 	C 	0.8342	0.9014	0.0289	0.272
Mof_C 	C 	0.2541	0.5857	0.98	0.281
Mof_C 	C 	0.2416	0.673	0.0743	0.048
Mof_C 	C 	0.11	0.6651	0.129	-0.141
Mof_C 	C 	0.1005	0.7546	0.2094	0.134
Mof_C 	C 	0.2373	0.8442	0.2372	-0.194
Mof_C 	C 	0.3758	0.8415	0.1814	0.122
Mof_C 	C 	0.2288	0.9446	0.3265	0.479
Mof_C 	C 	0.1816	0.2668	0.5452	0.713
Mof_C 	C 	0.706	0.244	0.481	0.696
Mof_C 	C 	0.2485	0.3664	0.3366	0.522
Mof_C 	C 	0.2991	0.2981	0.2385	-0.195
Mof_C 	C 	0.1795	0.315	0.1754	0.129
Mof_C 	C 	0.3413	0.1749	0.0667	0.024
Mof_C 	C 	0.4645	0.1592	0.1253	-0.124
Mof_C 	C 	0.4398	0.2251	0.2163	0.103
Mof_C 	C 	0.3342	0.0986	0.9711	0.279
Mof_C 	C 	0.7541	0.4143	0.02	0.295
Mof_C 	C 	0.7416	0.327	0.9257	0.003
Mof_C 	C 	0.61	0.3349	0.871	-0.142
Mof_C 	C 	0.6005	0.2454	0.7906	0.127
Mof_C 	C 	0.7373	0.1558	0.7628	-0.228
Mof_C 	C 	0.8758	0.1585	0.8186	0.12
Mof_C 	C 	0.7288	0.0554	0.6735	0.503
Mof_C 	C 	0.6816	0.7332	0.4548	0.746
Mof_C 	C 	0.206	0.756	0.519	0.671
Mof_N 	N 	0.7009	0.746	0.9089	-0.221
Mof_N 	N 	0.374	0.7574	0.0994	-0.221
Mof_N 	N 	0.2009	0.254	0.0911	-0.206
Mof_N 	N 	0.874	0.2426	0.9006	-0.249
Mof_O 	O 	0.5991	0.6066	0.6511	-0.645
Mof_O 	O 	0.8733	0.6193	0.61	-0.616
Mof_O 	O 	0.7149	0.8665	0.0737	-0.394
Mof_O 	O 	0.9442	0.9918	0.0565	-0.337
Mof_O 	O 	0.3757	0.6249	0.9352	-0.367
Mof_O 	O 	0.1552	0.4886	0.9535	-0.268
Mof_O 	O 	0.3635	0.9789	0.3691	-0.532
Mof_O 	O 	0.0799	0.9857	0.3492	-0.528
Mof_O 	O 	0.3358	0.272	0.5679	-0.847
Mof_O 	O 	0.1098	0.1451	0.5301	-0.74
Mof_O 	O 	0.1048	0.382	0.5385	-0.709
Mof_O 	O 	0.6561	0.3719	0.5132	-0.806
Mof_O 	O 	0.8349	0.2266	0.4302	-0.782
Mof_O 	O 	0.6373	0.1339	0.5017	-0.83
Mof_O 	O 	0.0991	0.3934	0.3489	-0.569
Mof_O 	O 	0.3733	0.3807	0.39	-0.595
Mof_O 	O 	0.2149	0.1335	0.9263	-0.358
Mof_O 	O 	0.4442	0.0082	0.9435	-0.279
Mof_O 	O 	0.8757	0.3751	0.0648	-0.449
Mof_O 	O 	0.6552	0.5114	0.0465	-0.326
Mof_O 	O 	0.8635	0.0211	0.6309	-0.571
Mof_O 	O 	0.5799	0.0143	0.6508	-0.623
Mof_O 	O 	0.8358	0.728	0.4321	-0.859
Mof_O 	O 	0.6098	0.8549	0.4699	-0.797
Mof_O 	O 	0.6048	0.618	0.4615	-0.786
Mof_O 	O 	0.1561	0.6281	0.4868	-0.747
Mof_O 	O 	0.3349	0.7734	0.5698	-0.754
Mof_O 	O 	0.1373	0.8661	0.4983	-0.757
_end
