data_functionalizedCrystal
_audit_creation_method	'EQeq! by Chris Wilmer'
_symmetry_space_group_name_H-M	'P1'
_symmetry_Int_Tables_number	1
_symmetry_cell_setting	triclinic
loop_
_symmetry_equiv_pos_as_xyz
  x,y,z
_cell_length_a	12.232
_cell_length_b	12.268
_cell_length_c	16.392
_cell_angle_alpha	90
_cell_angle_beta	90
_cell_angle_gamma	90
loop_
_atom_site_label
_atom_site_type_symbol
_atom_site_fract_x
_atom_site_fract_y
_atom_site_fract_z
_atom_site_charge
Mof_Ga	Ga	0.17248	0.47635	0.25406	4.421
Mof_Ga	Ga	0.13311	0.45979	0.90095	3.851
Mof_P 	P 	0.12554	0.56249	0.07852	1.132
Mof_P 	P 	0.41065	0.55761	0.23754	0.963
Mof_F 	F 	0.2127	0.4949	0.3671	-1.383
Mof_F 	F 	0.1828	0.6415	0.2585	-1.403
Mof_O 	O 	0.3872	0.6691	0.1994	-0.997
Mof_O 	O 	0.1918	0.6636	0.0972	-1.076
Mof_O 	O 	0.1745	0.5138	-0	-0.917
Mof_O 	O 	0.5208	0.5152	0.2039	-0.903
Mof_O 	O 	0.3249	0.3171	0.378	-1.145
Mof_O 	O 	0.4151	0.5702	0.3313	-1.167
Mof_O 	O 	0.1306	0.4758	0.1443	-1.161
Mof_O 	O 	0.3249	0.4722	0.2179	-1.084
Mof_O 	O 	0.1765	0.3212	0.2684	-1.061
Mof_O 	O 	0.0056	0.597	0.0633	-1.042
Mof_Ga	Ga	0.32752	0.02365	0.25406	4.439
Mof_Ga	Ga	0.36689	0.04021	0.90095	3.898
Mof_P 	P 	0.37446	0.93751	0.07852	1.123
Mof_P 	P 	0.08935	0.94239	0.23754	0.984
Mof_F 	F 	0.2873	0.0051	0.3671	-1.378
Mof_F 	F 	0.3172	0.8585	0.2585	-1.409
Mof_O 	O 	0.1128	0.8309	0.1994	-0.995
Mof_O 	O 	0.3082	0.8364	0.0972	-1.077
Mof_O 	O 	0.3255	0.9862	-0	-0.931
Mof_O 	O 	0.9792	0.9848	0.2039	-0.93
Mof_O 	O 	0.1751	0.1829	0.378	-1.141
Mof_O 	O 	0.0849	0.9298	0.3313	-1.156
Mof_O 	O 	0.3694	0.0242	0.1443	-1.152
Mof_O 	O 	0.1751	0.0278	0.2179	-1.086
Mof_O 	O 	0.3235	0.1788	0.2684	-1.063
Mof_O 	O 	0.4944	0.903	0.0633	-1.042
Mof_Ga	Ga	0.82752	0.97635	0.24594	4.394
Mof_Ga	Ga	0.86689	0.95979	0.59905	4.17
Mof_P 	P 	0.87446	0.06249	0.42148	1.171
Mof_P 	P 	0.58935	0.05761	0.26246	0.979
Mof_F 	F 	0.7873	0.9949	0.1329	-1.363
Mof_F 	F 	0.8172	0.1415	0.2415	-1.378
Mof_O 	O 	0.6128	0.1691	0.3006	-1.004
Mof_O 	O 	0.8082	0.1636	0.4028	-1.109
Mof_O 	O 	0.8255	0.0138	0.5	-1.086
Mof_O 	O 	0.4792	0.0152	0.2961	-0.914
Mof_O 	O 	0.6751	0.8171	0.122	-1.11
Mof_O 	O 	0.5849	0.0702	0.1687	-1.118
Mof_O 	O 	0.8694	0.9758	0.3557	-1.209
Mof_O 	O 	0.6751	0.9722	0.2821	-1.109
Mof_O 	O 	0.8235	0.8212	0.2316	-1.068
Mof_O 	O 	0.9944	0.097	0.4367	-1.087
Mof_Ga	Ga	0.67248	0.52365	0.24594	4.431
Mof_Ga	Ga	0.63311	0.54021	0.59905	4.319
Mof_P 	P 	0.62554	0.43751	0.42148	1.155
Mof_P 	P 	0.91065	0.44239	0.26246	0.958
Mof_F 	F 	0.7127	0.5051	0.1329	-1.36
Mof_F 	F 	0.6828	0.3585	0.2415	-1.396
Mof_O 	O 	0.8872	0.3309	0.3006	-1.003
Mof_O 	O 	0.6918	0.3364	0.4028	-1.111
Mof_O 	O 	0.6745	0.4862	0.5	-1.133
Mof_O 	O 	0.0208	0.4848	0.2961	-0.916
Mof_O 	O 	0.8249	0.6829	0.122	-1.127
Mof_O 	O 	0.9151	0.4298	0.1687	-1.145
Mof_O 	O 	0.6306	0.5242	0.3557	-1.189
Mof_O 	O 	0.8249	0.5278	0.2821	-1.101
Mof_O 	O 	0.6765	0.6788	0.2316	-1.07
Mof_O 	O 	0.5056	0.403	0.4367	-1.105
Mof_Ga	Ga	0.82752	0.52365	0.74594	4.394
Mof_Ga	Ga	0.86689	0.54021	0.09905	4.31
Mof_P 	P 	0.87446	0.43751	0.92148	1.004
Mof_P 	P 	0.58935	0.44239	0.76246	0.959
Mof_F 	F 	0.7873	0.5051	0.6329	-1.377
Mof_F 	F 	0.8172	0.3585	0.7415	-1.389
Mof_O 	O 	0.6128	0.3309	0.8006	-1.01
Mof_O 	O 	0.8082	0.3364	0.9028	-1.125
Mof_O 	O 	0.8255	0.4862	-0	-0.978
Mof_O 	O 	0.4792	0.4848	0.7961	-0.942
Mof_O 	O 	0.6751	0.6829	0.622	-1.145
Mof_O 	O 	0.5849	0.4298	0.6687	-1.162
Mof_O 	O 	0.8694	0.5242	0.8557	-1.19
Mof_O 	O 	0.6751	0.5278	0.7821	-1.113
Mof_O 	O 	0.8235	0.6788	0.7316	-1.081
Mof_O 	O 	0.9944	0.403	0.9367	-1.078
Mof_Ga	Ga	0.67248	0.97635	0.74594	4.385
Mof_Ga	Ga	0.63311	0.95979	0.09905	4.233
Mof_P 	P 	0.62554	0.06249	0.92148	1.005
Mof_P 	P 	0.91065	0.05761	0.76246	0.993
Mof_F 	F 	0.7127	0.9949	0.6329	-1.368
Mof_F 	F 	0.6828	0.1415	0.7415	-1.382
Mof_O 	O 	0.8872	0.1691	0.8006	-1.008
Mof_O 	O 	0.6918	0.1636	0.9028	-1.124
Mof_O 	O 	0.6745	0.0138	-0	-0.936
Mof_O 	O 	0.0208	0.0152	0.7961	-0.958
Mof_O 	O 	0.8249	0.8171	0.622	-1.124
Mof_O 	O 	0.9151	0.0702	0.6687	-1.124
Mof_O 	O 	0.6306	0.9758	0.8557	-1.194
Mof_O 	O 	0.8249	0.9722	0.7821	-1.127
Mof_O 	O 	0.6765	0.8212	0.7316	-1.077
Mof_O 	O 	0.5056	0.097	0.9367	-1.088
Mof_Ga	Ga	0.17248	0.02365	0.75406	4.413
Mof_Ga	Ga	0.13311	0.04021	0.40095	4.289
Mof_P 	P 	0.12554	0.93751	0.57852	1.152
Mof_P 	P 	0.41065	0.94239	0.73754	0.954
Mof_F 	F 	0.2127	0.0051	0.8671	-1.38
Mof_F 	F 	0.1828	0.8585	0.7585	-1.406
Mof_O 	O 	0.3872	0.8309	0.6994	-1.006
Mof_O 	O 	0.1918	0.8364	0.5972	-1.102
Mof_O 	O 	0.1745	0.9862	0.5	-1.124
Mof_O 	O 	0.5208	0.9848	0.7039	-0.91
Mof_O 	O 	0.3249	0.1829	0.878	-1.099
Mof_O 	O 	0.4151	0.9298	0.8313	-1.118
Mof_O 	O 	0.1306	0.0242	0.6443	-1.189
Mof_O 	O 	0.3249	0.0278	0.7179	-1.078
Mof_O 	O 	0.1765	0.1788	0.7684	-1.065
Mof_O 	O 	0.0056	0.903	0.5633	-1.073
Mof_Ga	Ga	0.32752	0.47635	0.75406	4.42
Mof_Ga	Ga	0.36689	0.45979	0.40095	4.328
Mof_P 	P 	0.37446	0.56249	0.57852	1.152
Mof_P 	P 	0.08935	0.55761	0.73754	0.953
Mof_F 	F 	0.2873	0.4949	0.8671	-1.376
Mof_F 	F 	0.3172	0.6415	0.7585	-1.411
Mof_O 	O 	0.1128	0.6691	0.6994	-1.004
Mof_O 	O 	0.3082	0.6636	0.5972	-1.104
Mof_O 	O 	0.3255	0.5138	0.5	-1.134
Mof_O 	O 	0.9792	0.5152	0.7039	-0.911
Mof_O 	O 	0.1751	0.3171	0.878	-1.095
Mof_O 	O 	0.0849	0.5702	0.8313	-1.112
Mof_O 	O 	0.3694	0.4758	0.6443	-1.185
Mof_O 	O 	0.1751	0.4722	0.7179	-1.083
Mof_O 	O 	0.3235	0.3212	0.7684	-1.063
Mof_O 	O 	0.4944	0.597	0.5633	-1.105
Mof_Ga	Ga	0.25	0.75	0.18389	4.602
Mof_Ga	Ga	0.75	0.25	0.31611	4.62
Mof_Ga	Ga	0.75	0.25	0.81611	4.56
Mof_Ga	Ga	0.25	0.75	0.68389	4.572
Mof_P 	P 	0.25	0.25	0.32105	1.126
Mof_P 	P 	0.75	0.75	0.17895	1.122
Mof_P 	P 	0.75	0.75	0.67895	1.118
Mof_P 	P 	0.25	0.25	0.82105	1.091
_end
