data_functionalizedCrystal
_audit_creation_method	'EQeq! by Chris Wilmer'
_symmetry_space_group_name_H-M	'P1'
_symmetry_Int_Tables_number	1
_symmetry_cell_setting	triclinic
loop_
_symmetry_equiv_pos_as_xyz
  x,y,z
_cell_length_a	12.716
_cell_length_b	12.716
_cell_length_c	62.078
_cell_angle_alpha	90
_cell_angle_beta	90
_cell_angle_gamma	90
loop_
_atom_site_label
_atom_site_type_symbol
_atom_site_fract_x
_atom_site_fract_y
_atom_site_fract_z
_atom_site_charge
Mof_I 	I 	0.8018	0.94362	0.90087	-0.464
Mof_I 	I 	0.1622	0.95407	0.90979	-0.448
Mof_Cu	Cu	0.97011	0.94923	0.92531	0.789
Mof_Cu	Cu	0.99524	0.94477	0.88466	0.787
Mof_O 	O 	0.7579	0.4689	0.04154	-0.177
Mof_O 	O 	0.1311	0.4446	0.04215	-0.176
Mof_O 	O 	0.9502	0.2631	0.01923	-0.18
Mof_O 	O 	0.941	0.6402	0.01689	-0.191
Mof_N 	N 	0.5729	0.5024	0.11434	-0.251
Mof_N 	N 	0.3169	0.4861	0.11505	-0.251
Mof_N 	N 	0.9516	0.0749	0.94607	-0.243
Mof_N 	N 	0.9602	0.818	0.94408	-0.257
Mof_C 	C 	0.9455	0.4568	0.04227	-0.062
Mof_C 	C 	0.8506	0.469	0.05372	0.137
Mof_C 	C 	0.8514	0.4773	0.07568	-0.095
Mof_C 	C 	0.9443	0.4777	0.08605	0.02
Mof_H 	H 	0.9436	0.4857	0.1013	0.032
Mof_C 	C 	0.0414	0.467	0.07592	-0.09
Mof_C 	C 	0.037	0.4534	0.05359	0.148
Mof_C 	C 	0.7516	0.4858	0.0887	0.137
Mof_C 	C 	0.7405	0.5656	0.10422	-0.189
Mof_H 	H 	0.7942	0.6167	0.1061	0.108
Mof_C 	C 	0.6521	0.5689	0.11642	0.103
Mof_H 	H 	0.6468	0.6222	0.1271	-0.024
Mof_C 	C 	0.5821	0.4269	0.09926	0.097
Mof_H 	H 	0.5264	0.3778	0.0977	-0.021
Mof_C 	C 	0.6672	0.4174	0.08616	-0.178
Mof_H 	H 	0.669	0.3646	0.0754	0.1
Mof_C 	C 	0.1383	0.4714	0.08856	0.142
Mof_C 	C 	0.1516	0.4107	0.10703	-0.181
Mof_H 	H 	0.0995	0.3605	0.1108	0.102
Mof_C 	C 	0.2389	0.4224	0.11991	0.099
Mof_H 	H 	0.2431	0.3828	0.1329	-0.024
Mof_C 	C 	0.3079	0.5435	0.09686	0.094
Mof_H 	H 	0.362	0.5919	0.0933	-0.02
Mof_C 	C 	0.2228	0.5339	0.08335	-0.174
Mof_H 	H 	0.2224	0.5713	0.0701	0.098
Mof_C 	C 	0.7077	0.5689	0.03944	-0.164
Mof_H 	H 	0.6773	0.5894	0.0533	0.085
Mof_H 	H 	0.6518	0.5643	0.0286	0.085
Mof_H 	H 	0.7595	0.6215	0.035	0.093
Mof_C 	C 	0.177	0.3399	0.04378	-0.177
Mof_H 	H 	0.1833	0.3202	0.059	0.092
Mof_H 	H 	0.2469	0.3399	0.0371	0.089
Mof_H 	H 	0.1318	0.2891	0.0363	0.101
Mof_C 	C 	0.9448	0.4514	0.01806	-0.044
Mof_C 	C 	0.944	0.3564	0.00746	0.124
Mof_C 	C 	0.9399	0.3517	0.98477	-0.086
Mof_C 	C 	0.9422	0.4437	0.97359	0.003
Mof_H 	H 	0.9425	0.4407	0.9583	0.025
Mof_C 	C 	0.944	0.5424	0.98349	-0.089
Mof_C 	C 	0.942	0.5446	0.00594	0.126
Mof_C 	C 	0.9422	0.2513	0.97273	0.106
Mof_C 	C 	0.0148	0.1733	0.97657	-0.144
Mof_H 	H 	0.062	0.1777	0.9884	0.09
Mof_C 	C 	0.017	0.0862	0.96238	0.086
Mof_H 	H 	0.0683	0.0332	0.9647	-0.007
Mof_C 	C 	0.8798	0.1485	0.94262	0.074
Mof_H 	H 	0.8324	0.1405	0.9309	-0.011
Mof_C 	C 	0.872	0.2365	0.95556	-0.159
Mof_H 	H 	0.8189	0.2873	0.9528	0.081
Mof_C 	C 	0.948	0.6405	0.97042	0.107
Mof_C 	C 	0.0167	0.6439	0.95309	-0.152
Mof_H 	H 	0.0599	0.5851	0.9498	0.083
Mof_C 	C 	0.0214	0.7336	0.94075	0.092
Mof_H 	H 	0.0706	0.7359	0.9293	-0.023
Mof_C 	C 	0.8918	0.8119	0.96057	0.083
Mof_H 	H 	0.846	0.8697	0.963	-0.014
Mof_C 	C 	0.8847	0.7273	0.97398	-0.165
Mof_H 	H 	0.8366	0.7279	0.9857	0.093
Mof_C 	C 	0.8486	0.2217	0.0255	-0.164
Mof_H 	H 	0.8107	0.2746	0.034	0.096
Mof_H 	H 	0.8585	0.1581	0.0342	0.082
Mof_H 	H 	0.8078	0.2044	0.0126	0.084
Mof_C 	C 	0.0417	0.6823	0.02135	-0.13
Mof_H 	H 	0.0869	0.627	0.0273	0.087
Mof_H 	H 	0.035	0.7395	0.0318	0.078
Mof_H 	H 	0.0728	0.7095	0.008	0.076
Mof_I 	I 	0.1982	0.05638	0.40087	-0.465
Mof_I 	I 	0.8378	0.04593	0.40979	-0.449
Mof_Cu	Cu	0.02989	0.05077	0.42531	0.788
Mof_Cu	Cu	0.00476	0.05523	0.38466	0.787
Mof_O 	O 	0.2421	0.5311	0.54154	-0.177
Mof_O 	O 	0.8689	0.5554	0.54215	-0.176
Mof_O 	O 	0.0498	0.7369	0.51923	-0.18
Mof_O 	O 	0.059	0.3598	0.51689	-0.191
Mof_N 	N 	0.4271	0.4976	0.61434	-0.251
Mof_N 	N 	0.6831	0.5139	0.61505	-0.251
Mof_N 	N 	0.0484	0.9251	0.44607	-0.243
Mof_N 	N 	0.0398	0.182	0.44408	-0.257
Mof_C 	C 	0.0545	0.5432	0.54227	-0.062
Mof_C 	C 	0.1494	0.531	0.55372	0.137
Mof_C 	C 	0.1486	0.5227	0.57568	-0.095
Mof_C 	C 	0.0557	0.5223	0.58605	0.02
Mof_H 	H 	0.0564	0.5143	0.6013	0.032
Mof_C 	C 	0.9586	0.533	0.57592	-0.09
Mof_C 	C 	0.963	0.5466	0.55359	0.148
Mof_C 	C 	0.2484	0.5142	0.5887	0.137
Mof_C 	C 	0.2595	0.4344	0.60422	-0.189
Mof_H 	H 	0.2058	0.3833	0.6061	0.108
Mof_C 	C 	0.3479	0.4311	0.61642	0.103
Mof_H 	H 	0.3532	0.3778	0.6271	-0.024
Mof_C 	C 	0.4179	0.5731	0.59926	0.097
Mof_H 	H 	0.4736	0.6222	0.5977	-0.021
Mof_C 	C 	0.3328	0.5826	0.58616	-0.178
Mof_H 	H 	0.331	0.6354	0.5754	0.1
Mof_C 	C 	0.8617	0.5286	0.58856	0.142
Mof_C 	C 	0.8484	0.5893	0.60703	-0.181
Mof_H 	H 	0.9005	0.6395	0.6108	0.102
Mof_C 	C 	0.7611	0.5776	0.61991	0.099
Mof_H 	H 	0.7569	0.6172	0.6329	-0.024
Mof_C 	C 	0.6921	0.4565	0.59686	0.094
Mof_H 	H 	0.638	0.4081	0.5933	-0.02
Mof_C 	C 	0.7772	0.4661	0.58335	-0.174
Mof_H 	H 	0.7776	0.4287	0.5701	0.098
Mof_C 	C 	0.2923	0.4311	0.53944	-0.164
Mof_H 	H 	0.3227	0.4106	0.5533	0.085
Mof_H 	H 	0.3482	0.4357	0.5286	0.085
Mof_H 	H 	0.2405	0.3785	0.535	0.093
Mof_C 	C 	0.823	0.6601	0.54378	-0.177
Mof_H 	H 	0.8167	0.6798	0.559	0.092
Mof_H 	H 	0.7531	0.6601	0.5371	0.089
Mof_H 	H 	0.8682	0.7109	0.5363	0.101
Mof_C 	C 	0.0552	0.5486	0.51806	-0.044
Mof_C 	C 	0.056	0.6436	0.50746	0.124
Mof_C 	C 	0.0601	0.6483	0.48477	-0.086
Mof_C 	C 	0.0578	0.5563	0.47359	0.003
Mof_H 	H 	0.0575	0.5593	0.4583	0.025
Mof_C 	C 	0.056	0.4576	0.48349	-0.089
Mof_C 	C 	0.058	0.4554	0.50594	0.126
Mof_C 	C 	0.0578	0.7487	0.47273	0.106
Mof_C 	C 	0.9852	0.8267	0.47657	-0.144
Mof_H 	H 	0.938	0.8223	0.4884	0.09
Mof_C 	C 	0.983	0.9138	0.46238	0.086
Mof_H 	H 	0.9317	0.9668	0.4647	-0.007
Mof_C 	C 	0.1202	0.8515	0.44262	0.074
Mof_H 	H 	0.1676	0.8595	0.4309	-0.011
Mof_C 	C 	0.128	0.7635	0.45556	-0.159
Mof_H 	H 	0.1811	0.7127	0.4528	0.081
Mof_C 	C 	0.052	0.3595	0.47042	0.107
Mof_C 	C 	0.9833	0.3561	0.45309	-0.152
Mof_H 	H 	0.9401	0.4149	0.4498	0.083
Mof_C 	C 	0.9786	0.2664	0.44075	0.092
Mof_H 	H 	0.9294	0.2641	0.4293	-0.023
Mof_C 	C 	0.1082	0.1881	0.46057	0.083
Mof_H 	H 	0.154	0.1303	0.463	-0.014
Mof_C 	C 	0.1153	0.2727	0.47398	-0.165
Mof_H 	H 	0.1634	0.2721	0.4857	0.093
Mof_C 	C 	0.1514	0.7783	0.5255	-0.164
Mof_H 	H 	0.1893	0.7254	0.534	0.096
Mof_H 	H 	0.1415	0.8419	0.5342	0.082
Mof_H 	H 	0.1922	0.7956	0.5126	0.084
Mof_C 	C 	0.9583	0.3177	0.52135	-0.13
Mof_H 	H 	0.9131	0.373	0.5273	0.087
Mof_H 	H 	0.965	0.2605	0.5318	0.078
Mof_H 	H 	0.9272	0.2905	0.508	0.076
Mof_I 	I 	0.55638	0.3018	0.65087	-0.456
Mof_I 	I 	0.54593	0.6622	0.65979	-0.454
Mof_Cu	Cu	0.55077	0.47011	0.67531	0.796
Mof_Cu	Cu	0.55523	0.49524	0.63466	0.795
Mof_O 	O 	0.0311	0.2579	0.79154	-0.176
Mof_O 	O 	0.0554	0.6311	0.79215	-0.175
Mof_O 	O 	0.2369	0.4502	0.76923	-0.178
Mof_O 	O 	0.8598	0.441	0.76689	-0.181
Mof_N 	N 	0.9976	0.0729	0.86434	-0.255
Mof_N 	N 	0.0139	0.8169	0.86505	-0.242
Mof_N 	N 	0.4251	0.4516	0.69607	-0.244
Mof_N 	N 	0.682	0.4602	0.69408	-0.248
Mof_C 	C 	0.0432	0.4455	0.79227	-0.053
Mof_C 	C 	0.031	0.3506	0.80372	0.14
Mof_C 	C 	0.0227	0.3514	0.82568	-0.104
Mof_C 	C 	0.0223	0.4443	0.83605	0.04
Mof_H 	H 	0.0143	0.4436	0.8513	0.03
Mof_C 	C 	0.033	0.5414	0.82592	-0.104
Mof_C 	C 	0.0466	0.537	0.80359	0.143
Mof_C 	C 	0.0142	0.2516	0.8387	0.155
Mof_C 	C 	0.9344	0.2405	0.85422	-0.206
Mof_H 	H 	0.8833	0.2942	0.8561	0.112
Mof_C 	C 	0.9311	0.1521	0.86642	0.11
Mof_H 	H 	0.8778	0.1468	0.8771	-0.025
Mof_C 	C 	0.0731	0.0821	0.84926	0.111
Mof_H 	H 	0.1222	0.0264	0.8477	-0.024
Mof_C 	C 	0.0826	0.1672	0.83616	-0.19
Mof_H 	H 	0.1354	0.169	0.8254	0.104
Mof_C 	C 	0.0286	0.6383	0.83856	0.162
Mof_C 	C 	0.0893	0.6516	0.85703	-0.19
Mof_H 	H 	0.1395	0.5995	0.8608	0.104
Mof_C 	C 	0.0776	0.7389	0.86991	0.106
Mof_H 	H 	0.1172	0.7431	0.8829	-0.024
Mof_C 	C 	0.9565	0.8079	0.84686	0.085
Mof_H 	H 	0.9081	0.862	0.8433	-0.02
Mof_C 	C 	0.9661	0.7228	0.83335	-0.193
Mof_H 	H 	0.9287	0.7224	0.8201	0.101
Mof_C 	C 	0.9311	0.2077	0.78944	-0.171
Mof_H 	H 	0.9106	0.1773	0.8033	0.086
Mof_H 	H 	0.9357	0.1518	0.7786	0.086
Mof_H 	H 	0.8785	0.2595	0.785	0.094
Mof_C 	C 	0.1601	0.677	0.79378	-0.176
Mof_H 	H 	0.1798	0.6833	0.809	0.092
Mof_H 	H 	0.1601	0.7469	0.7871	0.09
Mof_H 	H 	0.2109	0.6318	0.7863	0.099
Mof_C 	C 	0.0486	0.4448	0.76806	-0.041
Mof_C 	C 	0.1436	0.444	0.75746	0.128
Mof_C 	C 	0.1483	0.4399	0.73477	-0.091
Mof_C 	C 	0.0563	0.4422	0.72359	0.013
Mof_H 	H 	0.0593	0.4425	0.7083	0.025
Mof_C 	C 	0.9576	0.444	0.73349	-0.094
Mof_C 	C 	0.9554	0.442	0.75594	0.124
Mof_C 	C 	0.2487	0.4422	0.72273	0.121
Mof_C 	C 	0.3267	0.5148	0.72657	-0.161
Mof_H 	H 	0.3223	0.562	0.7384	0.092
Mof_C 	C 	0.4138	0.517	0.71238	0.082
Mof_H 	H 	0.4668	0.5683	0.7147	-0.01
Mof_C 	C 	0.3515	0.3798	0.69262	0.078
Mof_H 	H 	0.3595	0.3324	0.6809	-0.016
Mof_C 	C 	0.2635	0.372	0.70556	-0.166
Mof_H 	H 	0.2127	0.3189	0.7028	0.083
Mof_C 	C 	0.8595	0.448	0.72042	0.128
Mof_C 	C 	0.8561	0.5167	0.70309	-0.172
Mof_H 	H 	0.9149	0.5599	0.6998	0.086
Mof_C 	C 	0.7664	0.5214	0.69075	0.082
Mof_H 	H 	0.7641	0.5706	0.6793	-0.023
Mof_C 	C 	0.6881	0.3918	0.71057	0.091
Mof_H 	H 	0.6303	0.346	0.713	-0.013
Mof_C 	C 	0.7727	0.3847	0.72398	-0.172
Mof_H 	H 	0.7721	0.3366	0.7357	0.096
Mof_C 	C 	0.2783	0.3486	0.7755	-0.162
Mof_H 	H 	0.2254	0.3107	0.784	0.095
Mof_H 	H 	0.3419	0.3585	0.7842	0.08
Mof_H 	H 	0.2956	0.3078	0.7626	0.082
Mof_C 	C 	0.8177	0.5417	0.77135	-0.151
Mof_H 	H 	0.873	0.5869	0.7773	0.088
Mof_H 	H 	0.7605	0.535	0.7818	0.08
Mof_H 	H 	0.7905	0.5728	0.758	0.079
Mof_I 	I 	0.44362	0.6982	0.15087	-0.456
Mof_I 	I 	0.45407	0.3378	0.15979	-0.454
Mof_Cu	Cu	0.44923	0.52989	0.17531	0.796
Mof_Cu	Cu	0.44477	0.50476	0.13466	0.795
Mof_O 	O 	0.9689	0.7421	0.29154	-0.176
Mof_O 	O 	0.9446	0.3689	0.29215	-0.175
Mof_O 	O 	0.7631	0.5498	0.26923	-0.178
Mof_O 	O 	0.1402	0.559	0.26689	-0.181
Mof_N 	N 	0.0024	0.9271	0.36434	-0.255
Mof_N 	N 	0.9861	0.1831	0.36505	-0.242
Mof_N 	N 	0.5749	0.5484	0.19607	-0.244
Mof_N 	N 	0.318	0.5398	0.19408	-0.248
Mof_C 	C 	0.9568	0.5545	0.29227	-0.053
Mof_C 	C 	0.969	0.6494	0.30372	0.14
Mof_C 	C 	0.9773	0.6486	0.32568	-0.104
Mof_C 	C 	0.9777	0.5557	0.33605	0.04
Mof_H 	H 	0.9857	0.5564	0.3513	0.03
Mof_C 	C 	0.967	0.4586	0.32592	-0.104
Mof_C 	C 	0.9534	0.463	0.30359	0.143
Mof_C 	C 	0.9858	0.7484	0.3387	0.155
Mof_C 	C 	0.0656	0.7595	0.35422	-0.206
Mof_H 	H 	0.1167	0.7058	0.3561	0.112
Mof_C 	C 	0.0689	0.8479	0.36642	0.11
Mof_H 	H 	0.1222	0.8532	0.3771	-0.025
Mof_C 	C 	0.9269	0.9179	0.34926	0.111
Mof_H 	H 	0.8778	0.9736	0.3477	-0.024
Mof_C 	C 	0.9174	0.8328	0.33616	-0.19
Mof_H 	H 	0.8646	0.831	0.3254	0.104
Mof_C 	C 	0.9714	0.3617	0.33856	0.162
Mof_C 	C 	0.9107	0.3484	0.35703	-0.19
Mof_H 	H 	0.8605	0.4005	0.3608	0.104
Mof_C 	C 	0.9224	0.2611	0.36991	0.106
Mof_H 	H 	0.8828	0.2569	0.3829	-0.024
Mof_C 	C 	0.0435	0.1921	0.34686	0.085
Mof_H 	H 	0.0919	0.138	0.3433	-0.02
Mof_C 	C 	0.0339	0.2772	0.33335	-0.193
Mof_H 	H 	0.0713	0.2776	0.3201	0.101
Mof_C 	C 	0.0689	0.7923	0.28944	-0.171
Mof_H 	H 	0.0894	0.8227	0.3033	0.086
Mof_H 	H 	0.0643	0.8482	0.2786	0.086
Mof_H 	H 	0.1215	0.7405	0.285	0.094
Mof_C 	C 	0.8399	0.323	0.29378	-0.176
Mof_H 	H 	0.8202	0.3167	0.309	0.092
Mof_H 	H 	0.8399	0.2531	0.2871	0.09
Mof_H 	H 	0.7891	0.3682	0.2863	0.099
Mof_C 	C 	0.9514	0.5552	0.26806	-0.041
Mof_C 	C 	0.8564	0.556	0.25746	0.128
Mof_C 	C 	0.8517	0.5601	0.23477	-0.091
Mof_C 	C 	0.9437	0.5578	0.22359	0.013
Mof_H 	H 	0.9407	0.5575	0.2083	0.025
Mof_C 	C 	0.0424	0.556	0.23349	-0.094
Mof_C 	C 	0.0446	0.558	0.25594	0.124
Mof_C 	C 	0.7513	0.5578	0.22273	0.121
Mof_C 	C 	0.6733	0.4852	0.22657	-0.161
Mof_H 	H 	0.6777	0.438	0.2384	0.092
Mof_C 	C 	0.5862	0.483	0.21238	0.082
Mof_H 	H 	0.5332	0.4317	0.2147	-0.01
Mof_C 	C 	0.6485	0.6202	0.19262	0.078
Mof_H 	H 	0.6405	0.6676	0.1809	-0.016
Mof_C 	C 	0.7365	0.628	0.20556	-0.166
Mof_H 	H 	0.7873	0.6811	0.2028	0.083
Mof_C 	C 	0.1405	0.552	0.22042	0.128
Mof_C 	C 	0.1439	0.4833	0.20309	-0.172
Mof_H 	H 	0.0851	0.4401	0.1998	0.086
Mof_C 	C 	0.2336	0.4786	0.19075	0.082
Mof_H 	H 	0.2359	0.4294	0.1793	-0.023
Mof_C 	C 	0.3119	0.6082	0.21057	0.091
Mof_H 	H 	0.3697	0.654	0.213	-0.013
Mof_C 	C 	0.2273	0.6153	0.22398	-0.172
Mof_H 	H 	0.2279	0.6634	0.2357	0.096
Mof_C 	C 	0.7217	0.6514	0.2755	-0.162
Mof_H 	H 	0.7746	0.6893	0.284	0.095
Mof_H 	H 	0.6581	0.6415	0.2842	0.08
Mof_H 	H 	0.7044	0.6922	0.2626	0.082
Mof_C 	C 	0.1823	0.4583	0.27135	-0.151
Mof_H 	H 	0.127	0.4131	0.2773	0.088
Mof_H 	H 	0.2395	0.465	0.2818	0.08
Mof_H 	H 	0.2095	0.4272	0.258	0.079
Mof_I 	I 	0.6982	0.44362	0.84913	-0.456
Mof_I 	I 	0.3378	0.45407	0.84021	-0.454
Mof_Cu	Cu	0.52989	0.44923	0.8247	0.796
Mof_Cu	Cu	0.50476	0.44477	0.86534	0.795
Mof_O 	O 	0.7421	0.9689	0.70846	-0.176
Mof_O 	O 	0.3689	0.9446	0.70785	-0.175
Mof_O 	O 	0.5498	0.7631	0.73077	-0.178
Mof_O 	O 	0.559	0.1402	0.73311	-0.181
Mof_N 	N 	0.9271	0.0024	0.63566	-0.255
Mof_N 	N 	0.1831	0.9861	0.63495	-0.242
Mof_N 	N 	0.5484	0.5749	0.80393	-0.244
Mof_N 	N 	0.5398	0.318	0.80592	-0.248
Mof_C 	C 	0.5545	0.9568	0.70773	-0.053
Mof_C 	C 	0.6494	0.969	0.69628	0.14
Mof_C 	C 	0.6486	0.9773	0.67432	-0.104
Mof_C 	C 	0.5557	0.9777	0.66395	0.04
Mof_H 	H 	0.5564	0.9857	0.6487	0.03
Mof_C 	C 	0.4586	0.967	0.67408	-0.104
Mof_C 	C 	0.463	0.9534	0.69641	0.143
Mof_C 	C 	0.7484	0.9858	0.6613	0.155
Mof_C 	C 	0.7595	0.0656	0.64578	-0.206
Mof_H 	H 	0.7058	0.1167	0.6439	0.112
Mof_C 	C 	0.8479	0.0689	0.63358	0.11
Mof_H 	H 	0.8532	0.1222	0.6229	-0.025
Mof_C 	C 	0.9179	0.9269	0.65074	0.111
Mof_H 	H 	0.9736	0.8778	0.6523	-0.024
Mof_C 	C 	0.8328	0.9174	0.66384	-0.19
Mof_H 	H 	0.831	0.8646	0.6746	0.104
Mof_C 	C 	0.3617	0.9714	0.66144	0.162
Mof_C 	C 	0.3484	0.9107	0.64297	-0.19
Mof_H 	H 	0.4005	0.8605	0.6392	0.104
Mof_C 	C 	0.2611	0.9224	0.63009	0.106
Mof_H 	H 	0.2569	0.8828	0.6171	-0.024
Mof_C 	C 	0.1921	0.0435	0.65314	0.085
Mof_H 	H 	0.138	0.0919	0.6567	-0.02
Mof_C 	C 	0.2772	0.0339	0.66665	-0.193
Mof_H 	H 	0.2776	0.0713	0.6799	0.101
Mof_C 	C 	0.7923	0.0689	0.71056	-0.171
Mof_H 	H 	0.8227	0.0894	0.6967	0.086
Mof_H 	H 	0.8482	0.0643	0.7214	0.086
Mof_H 	H 	0.7405	0.1215	0.715	0.094
Mof_C 	C 	0.323	0.8399	0.70622	-0.176
Mof_H 	H 	0.3167	0.8202	0.691	0.092
Mof_H 	H 	0.2531	0.8399	0.7129	0.09
Mof_H 	H 	0.3682	0.7891	0.7137	0.099
Mof_C 	C 	0.5552	0.9514	0.73194	-0.041
Mof_C 	C 	0.556	0.8564	0.74254	0.128
Mof_C 	C 	0.5601	0.8517	0.76523	-0.091
Mof_C 	C 	0.5578	0.9437	0.77641	0.013
Mof_H 	H 	0.5575	0.9407	0.7917	0.025
Mof_C 	C 	0.556	0.0424	0.76651	-0.094
Mof_C 	C 	0.558	0.0446	0.74406	0.124
Mof_C 	C 	0.5578	0.7513	0.77727	0.121
Mof_C 	C 	0.4852	0.6733	0.77343	-0.161
Mof_H 	H 	0.438	0.6777	0.7616	0.092
Mof_C 	C 	0.483	0.5862	0.78762	0.082
Mof_H 	H 	0.4317	0.5332	0.7853	-0.01
Mof_C 	C 	0.6202	0.6485	0.80738	0.078
Mof_H 	H 	0.6676	0.6405	0.8191	-0.016
Mof_C 	C 	0.628	0.7365	0.79444	-0.166
Mof_H 	H 	0.6811	0.7873	0.7972	0.083
Mof_C 	C 	0.552	0.1405	0.77958	0.128
Mof_C 	C 	0.4833	0.1439	0.79691	-0.172
Mof_H 	H 	0.4401	0.0851	0.8002	0.086
Mof_C 	C 	0.4786	0.2336	0.80925	0.082
Mof_H 	H 	0.4294	0.2359	0.8207	-0.023
Mof_C 	C 	0.6082	0.3119	0.78943	0.091
Mof_H 	H 	0.654	0.3697	0.787	-0.013
Mof_C 	C 	0.6153	0.2273	0.77602	-0.172
Mof_H 	H 	0.6634	0.2279	0.7643	0.096
Mof_C 	C 	0.6514	0.7217	0.7245	-0.162
Mof_H 	H 	0.6893	0.7746	0.716	0.095
Mof_H 	H 	0.6415	0.6581	0.7158	0.08
Mof_H 	H 	0.6922	0.7044	0.7374	0.082
Mof_C 	C 	0.4583	0.1823	0.72865	-0.151
Mof_H 	H 	0.4131	0.127	0.7227	0.088
Mof_H 	H 	0.465	0.2395	0.7182	0.08
Mof_H 	H 	0.4272	0.2095	0.742	0.079
Mof_I 	I 	0.3018	0.55638	0.34913	-0.456
Mof_I 	I 	0.6622	0.54593	0.34021	-0.454
Mof_Cu	Cu	0.47011	0.55077	0.3247	0.796
Mof_Cu	Cu	0.49524	0.55523	0.36534	0.795
Mof_O 	O 	0.2579	0.0311	0.20846	-0.176
Mof_O 	O 	0.6311	0.0554	0.20785	-0.175
Mof_O 	O 	0.4502	0.2369	0.23077	-0.178
Mof_O 	O 	0.441	0.8598	0.23311	-0.181
Mof_N 	N 	0.0729	0.9976	0.13566	-0.255
Mof_N 	N 	0.8169	0.0139	0.13495	-0.242
Mof_N 	N 	0.4516	0.4251	0.30393	-0.244
Mof_N 	N 	0.4602	0.682	0.30592	-0.248
Mof_C 	C 	0.4455	0.0432	0.20773	-0.053
Mof_C 	C 	0.3506	0.031	0.19628	0.14
Mof_C 	C 	0.3514	0.0227	0.17432	-0.104
Mof_C 	C 	0.4443	0.0223	0.16395	0.04
Mof_H 	H 	0.4436	0.0143	0.1487	0.03
Mof_C 	C 	0.5414	0.033	0.17408	-0.104
Mof_C 	C 	0.537	0.0466	0.19641	0.143
Mof_C 	C 	0.2516	0.0142	0.1613	0.155
Mof_C 	C 	0.2405	0.9344	0.14578	-0.206
Mof_H 	H 	0.2942	0.8833	0.1439	0.112
Mof_C 	C 	0.1521	0.9311	0.13358	0.11
Mof_H 	H 	0.1468	0.8778	0.1229	-0.025
Mof_C 	C 	0.0821	0.0731	0.15074	0.111
Mof_H 	H 	0.0264	0.1222	0.1523	-0.024
Mof_C 	C 	0.1672	0.0826	0.16384	-0.19
Mof_H 	H 	0.169	0.1354	0.1746	0.104
Mof_C 	C 	0.6383	0.0286	0.16144	0.162
Mof_C 	C 	0.6516	0.0893	0.14297	-0.19
Mof_H 	H 	0.5995	0.1395	0.1392	0.104
Mof_C 	C 	0.7389	0.0776	0.13009	0.106
Mof_H 	H 	0.7431	0.1172	0.1171	-0.024
Mof_C 	C 	0.8079	0.9565	0.15314	0.085
Mof_H 	H 	0.862	0.9081	0.1567	-0.02
Mof_C 	C 	0.7228	0.9661	0.16665	-0.193
Mof_H 	H 	0.7224	0.9287	0.1799	0.101
Mof_C 	C 	0.2077	0.9311	0.21056	-0.171
Mof_H 	H 	0.1773	0.9106	0.1967	0.086
Mof_H 	H 	0.1518	0.9357	0.2214	0.086
Mof_H 	H 	0.2595	0.8785	0.215	0.094
Mof_C 	C 	0.677	0.1601	0.20622	-0.176
Mof_H 	H 	0.6833	0.1798	0.191	0.092
Mof_H 	H 	0.7469	0.1601	0.2129	0.09
Mof_H 	H 	0.6318	0.2109	0.2137	0.099
Mof_C 	C 	0.4448	0.0486	0.23194	-0.041
Mof_C 	C 	0.444	0.1436	0.24254	0.128
Mof_C 	C 	0.4399	0.1483	0.26523	-0.091
Mof_C 	C 	0.4422	0.0563	0.27641	0.013
Mof_H 	H 	0.4425	0.0593	0.2917	0.025
Mof_C 	C 	0.444	0.9576	0.26651	-0.094
Mof_C 	C 	0.442	0.9554	0.24406	0.124
Mof_C 	C 	0.4422	0.2487	0.27727	0.121
Mof_C 	C 	0.5148	0.3267	0.27343	-0.161
Mof_H 	H 	0.562	0.3223	0.2616	0.092
Mof_C 	C 	0.517	0.4138	0.28762	0.082
Mof_H 	H 	0.5683	0.4668	0.2853	-0.01
Mof_C 	C 	0.3798	0.3515	0.30738	0.078
Mof_H 	H 	0.3324	0.3595	0.3191	-0.016
Mof_C 	C 	0.372	0.2635	0.29444	-0.166
Mof_H 	H 	0.3189	0.2127	0.2972	0.083
Mof_C 	C 	0.448	0.8595	0.27958	0.128
Mof_C 	C 	0.5167	0.8561	0.29691	-0.172
Mof_H 	H 	0.5599	0.9149	0.3002	0.086
Mof_C 	C 	0.5214	0.7664	0.30925	0.082
Mof_H 	H 	0.5706	0.7641	0.3207	-0.023
Mof_C 	C 	0.3918	0.6881	0.28943	0.091
Mof_H 	H 	0.346	0.6303	0.287	-0.013
Mof_C 	C 	0.3847	0.7727	0.27602	-0.172
Mof_H 	H 	0.3366	0.7721	0.2643	0.096
Mof_C 	C 	0.3486	0.2783	0.2245	-0.162
Mof_H 	H 	0.3107	0.2254	0.216	0.095
Mof_H 	H 	0.3585	0.3419	0.2158	0.08
Mof_H 	H 	0.3078	0.2956	0.2374	0.082
Mof_C 	C 	0.5417	0.8177	0.22865	-0.151
Mof_H 	H 	0.5869	0.873	0.2227	0.088
Mof_H 	H 	0.535	0.7605	0.2182	0.08
Mof_H 	H 	0.5728	0.7905	0.242	0.079
Mof_I 	I 	0.94362	0.8018	0.09913	-0.465
Mof_I 	I 	0.95407	0.1622	0.09021	-0.449
Mof_Cu	Cu	0.94923	0.97011	0.0747	0.788
Mof_Cu	Cu	0.94477	0.99524	0.11534	0.787
Mof_O 	O 	0.4689	0.7579	0.95846	-0.177
Mof_O 	O 	0.4446	0.1311	0.95785	-0.176
Mof_O 	O 	0.2631	0.9502	0.98077	-0.18
Mof_O 	O 	0.6402	0.941	0.98311	-0.191
Mof_N 	N 	0.5024	0.5729	0.88566	-0.251
Mof_N 	N 	0.4861	0.3169	0.88495	-0.251
Mof_N 	N 	0.0749	0.9516	0.05393	-0.243
Mof_N 	N 	0.818	0.9602	0.05592	-0.257
Mof_C 	C 	0.4568	0.9455	0.95773	-0.062
Mof_C 	C 	0.469	0.8506	0.94628	0.137
Mof_C 	C 	0.4773	0.8514	0.92432	-0.095
Mof_C 	C 	0.4777	0.9443	0.91395	0.02
Mof_H 	H 	0.4857	0.9436	0.8987	0.032
Mof_C 	C 	0.467	0.0414	0.92408	-0.09
Mof_C 	C 	0.4534	0.037	0.94641	0.148
Mof_C 	C 	0.4858	0.7516	0.9113	0.137
Mof_C 	C 	0.5656	0.7405	0.89578	-0.189
Mof_H 	H 	0.6167	0.7942	0.8939	0.108
Mof_C 	C 	0.5689	0.6521	0.88358	0.103
Mof_H 	H 	0.6222	0.6468	0.8729	-0.024
Mof_C 	C 	0.4269	0.5821	0.90074	0.097
Mof_H 	H 	0.3778	0.5264	0.9023	-0.021
Mof_C 	C 	0.4174	0.6672	0.91384	-0.178
Mof_H 	H 	0.3646	0.669	0.9246	0.1
Mof_C 	C 	0.4714	0.1383	0.91144	0.142
Mof_C 	C 	0.4107	0.1516	0.89297	-0.181
Mof_H 	H 	0.3605	0.0995	0.8892	0.102
Mof_C 	C 	0.4224	0.2389	0.88009	0.099
Mof_H 	H 	0.3828	0.2431	0.8671	-0.024
Mof_C 	C 	0.5435	0.3079	0.90314	0.094
Mof_H 	H 	0.5919	0.362	0.9067	-0.02
Mof_C 	C 	0.5339	0.2228	0.91665	-0.174
Mof_H 	H 	0.5713	0.2224	0.9299	0.098
Mof_C 	C 	0.5689	0.7077	0.96056	-0.164
Mof_H 	H 	0.5894	0.6773	0.9467	0.085
Mof_H 	H 	0.5643	0.6518	0.9714	0.085
Mof_H 	H 	0.6215	0.7595	0.965	0.093
Mof_C 	C 	0.3399	0.177	0.95622	-0.177
Mof_H 	H 	0.3202	0.1833	0.941	0.092
Mof_H 	H 	0.3399	0.2469	0.9629	0.089
Mof_H 	H 	0.2891	0.1318	0.9637	0.101
Mof_C 	C 	0.4514	0.9448	0.98194	-0.044
Mof_C 	C 	0.3564	0.944	0.99254	0.124
Mof_C 	C 	0.3517	0.9399	0.01523	-0.086
Mof_C 	C 	0.4437	0.9422	0.02641	0.003
Mof_H 	H 	0.4407	0.9425	0.0417	0.025
Mof_C 	C 	0.5424	0.944	0.01651	-0.089
Mof_C 	C 	0.5446	0.942	0.99406	0.126
Mof_C 	C 	0.2513	0.9422	0.02727	0.106
Mof_C 	C 	0.1733	0.0148	0.02343	-0.144
Mof_H 	H 	0.1777	0.062	0.0116	0.09
Mof_C 	C 	0.0862	0.017	0.03762	0.086
Mof_H 	H 	0.0332	0.0683	0.0353	-0.007
Mof_C 	C 	0.1485	0.8798	0.05738	0.074
Mof_H 	H 	0.1405	0.8324	0.0691	-0.011
Mof_C 	C 	0.2365	0.872	0.04444	-0.159
Mof_H 	H 	0.2873	0.8189	0.0472	0.081
Mof_C 	C 	0.6405	0.948	0.02958	0.107
Mof_C 	C 	0.6439	0.0167	0.04691	-0.152
Mof_H 	H 	0.5851	0.0599	0.0502	0.083
Mof_C 	C 	0.7336	0.0214	0.05925	0.092
Mof_H 	H 	0.7359	0.0706	0.0707	-0.023
Mof_C 	C 	0.8119	0.8918	0.03943	0.083
Mof_H 	H 	0.8697	0.846	0.037	-0.014
Mof_C 	C 	0.7273	0.8847	0.02602	-0.165
Mof_H 	H 	0.7279	0.8366	0.0143	0.093
Mof_C 	C 	0.2217	0.8486	0.9745	-0.164
Mof_H 	H 	0.2746	0.8107	0.966	0.096
Mof_H 	H 	0.1581	0.8585	0.9658	0.082
Mof_H 	H 	0.2044	0.8078	0.9874	0.084
Mof_C 	C 	0.6823	0.0417	0.97865	-0.13
Mof_H 	H 	0.627	0.0869	0.9727	0.087
Mof_H 	H 	0.7395	0.035	0.9682	0.078
Mof_H 	H 	0.7095	0.0728	0.992	0.076
Mof_I 	I 	0.05638	0.1982	0.59913	-0.465
Mof_I 	I 	0.04593	0.8378	0.59021	-0.449
Mof_Cu	Cu	0.05077	0.02989	0.5747	0.788
Mof_Cu	Cu	0.05523	0.00476	0.61534	0.787
Mof_O 	O 	0.5311	0.2421	0.45846	-0.177
Mof_O 	O 	0.5554	0.8689	0.45785	-0.176
Mof_O 	O 	0.7369	0.0498	0.48077	-0.18
Mof_O 	O 	0.3598	0.059	0.48311	-0.191
Mof_N 	N 	0.4976	0.4271	0.38566	-0.251
Mof_N 	N 	0.5139	0.6831	0.38495	-0.251
Mof_N 	N 	0.9251	0.0484	0.55393	-0.243
Mof_N 	N 	0.182	0.0398	0.55592	-0.257
Mof_C 	C 	0.5432	0.0545	0.45773	-0.062
Mof_C 	C 	0.531	0.1494	0.44628	0.137
Mof_C 	C 	0.5227	0.1486	0.42432	-0.095
Mof_C 	C 	0.5223	0.0557	0.41395	0.02
Mof_H 	H 	0.5143	0.0564	0.3987	0.032
Mof_C 	C 	0.533	0.9586	0.42408	-0.09
Mof_C 	C 	0.5466	0.963	0.44641	0.148
Mof_C 	C 	0.5142	0.2484	0.4113	0.137
Mof_C 	C 	0.4344	0.2595	0.39578	-0.189
Mof_H 	H 	0.3833	0.2058	0.3939	0.108
Mof_C 	C 	0.4311	0.3479	0.38358	0.103
Mof_H 	H 	0.3778	0.3532	0.3729	-0.024
Mof_C 	C 	0.5731	0.4179	0.40074	0.097
Mof_H 	H 	0.6222	0.4736	0.4023	-0.021
Mof_C 	C 	0.5826	0.3328	0.41384	-0.178
Mof_H 	H 	0.6354	0.331	0.4246	0.1
Mof_C 	C 	0.5286	0.8617	0.41144	0.142
Mof_C 	C 	0.5893	0.8484	0.39297	-0.181
Mof_H 	H 	0.6395	0.9005	0.3892	0.102
Mof_C 	C 	0.5776	0.7611	0.38009	0.099
Mof_H 	H 	0.6172	0.7569	0.3671	-0.024
Mof_C 	C 	0.4565	0.6921	0.40314	0.094
Mof_H 	H 	0.4081	0.638	0.4067	-0.02
Mof_C 	C 	0.4661	0.7772	0.41665	-0.174
Mof_H 	H 	0.4287	0.7776	0.4299	0.098
Mof_C 	C 	0.4311	0.2923	0.46056	-0.164
Mof_H 	H 	0.4106	0.3227	0.4467	0.085
Mof_H 	H 	0.4357	0.3482	0.4714	0.085
Mof_H 	H 	0.3785	0.2405	0.465	0.093
Mof_C 	C 	0.6601	0.823	0.45622	-0.177
Mof_H 	H 	0.6798	0.8167	0.441	0.092
Mof_H 	H 	0.6601	0.7531	0.4629	0.089
Mof_H 	H 	0.7109	0.8682	0.4637	0.101
Mof_C 	C 	0.5486	0.0552	0.48194	-0.044
Mof_C 	C 	0.6436	0.056	0.49254	0.124
Mof_C 	C 	0.6483	0.0601	0.51523	-0.086
Mof_C 	C 	0.5563	0.0578	0.52641	0.003
Mof_H 	H 	0.5593	0.0575	0.5417	0.026
Mof_C 	C 	0.4576	0.056	0.51651	-0.089
Mof_C 	C 	0.4554	0.058	0.49406	0.126
Mof_C 	C 	0.7487	0.0578	0.52727	0.106
Mof_C 	C 	0.8267	0.9852	0.52343	-0.144
Mof_H 	H 	0.8223	0.938	0.5116	0.09
Mof_C 	C 	0.9138	0.983	0.53762	0.086
Mof_H 	H 	0.9668	0.9317	0.5353	-0.007
Mof_C 	C 	0.8515	0.1202	0.55738	0.074
Mof_H 	H 	0.8595	0.1676	0.5691	-0.011
Mof_C 	C 	0.7635	0.128	0.54444	-0.159
Mof_H 	H 	0.7127	0.1811	0.5472	0.081
Mof_C 	C 	0.3595	0.052	0.52958	0.107
Mof_C 	C 	0.3561	0.9833	0.54691	-0.152
Mof_H 	H 	0.4149	0.9401	0.5502	0.083
Mof_C 	C 	0.2664	0.9786	0.55925	0.092
Mof_H 	H 	0.2641	0.9294	0.5707	-0.023
Mof_C 	C 	0.1881	0.1082	0.53943	0.083
Mof_H 	H 	0.1303	0.154	0.537	-0.014
Mof_C 	C 	0.2727	0.1153	0.52602	-0.165
Mof_H 	H 	0.2721	0.1634	0.5143	0.093
Mof_C 	C 	0.7783	0.1514	0.4745	-0.164
Mof_H 	H 	0.7254	0.1893	0.466	0.096
Mof_H 	H 	0.8419	0.1415	0.4658	0.082
Mof_H 	H 	0.7956	0.1922	0.4874	0.084
Mof_C 	C 	0.3177	0.9583	0.47865	-0.13
Mof_H 	H 	0.373	0.9131	0.4727	0.087
Mof_H 	H 	0.2605	0.965	0.4682	0.078
Mof_H 	H 	0.2905	0.9272	0.492	0.076
_end
