data_functionalizedCrystal
_audit_creation_method	'EQeq! by Chris Wilmer'
_symmetry_space_group_name_H-M	'P1'
_symmetry_Int_Tables_number	1
_symmetry_cell_setting	triclinic
loop_
_symmetry_equiv_pos_as_xyz
  x,y,z
_cell_length_a	9.214
_cell_length_b	13.0259
_cell_length_c	18.5959
_cell_angle_alpha	72.3464
_cell_angle_beta	75.656
_cell_angle_gamma	69.2875
loop_
_atom_site_label
_atom_site_type_symbol
_atom_site_fract_x
_atom_site_fract_y
_atom_site_fract_z
_atom_site_charge
Mof_Tb	Tb	0.76279	0.08921	0.99369	1.892
Mof_Tb	Tb	0.23721	0.91079	0.00631	1.892
Mof_Tb	Tb	0.84569	0.41079	0.50631	1.914
Mof_Tb	Tb	0.15431	0.58921	0.49369	1.914
Mof_Zn	Zn	0.774	0.08895	0.33443	1.202
Mof_Zn	Zn	0.226	0.91105	0.66557	1.202
Mof_Zn	Zn	0.19738	0.41105	0.16557	1.203
Mof_Zn	Zn	0.80262	0.58895	0.83443	1.203
Mof_H 	H 	0.6206	0.5778	0.6942	0.238
Mof_H 	H 	0.6437	0.9572	0.6466	0.275
Mof_H 	H 	0.2873	0.0136	0.4404	0.29
Mof_H 	H 	0.1117	0.6067	0.9085	0.272
Mof_H 	H 	0.9917	0.8195	0.8615	0.244
Mof_H 	H 	0.0083	0.1805	0.1385	0.244
Mof_H 	H 	0.504	0.6738	0.643	0.251
Mof_H 	H 	0.1792	0.1738	0.143	0.254
Mof_H 	H 	0.496	0.3262	0.357	0.251
Mof_H 	H 	0.2587	0.5136	0.9404	0.292
Mof_H 	H 	0.3731	0.1067	0.4085	0.27
Mof_H 	H 	0.3273	0.3195	0.3615	0.241
Mof_H 	H 	0.7127	0.9864	0.5596	0.29
Mof_H 	H 	0.263	0.3075	0.9653	0.154
Mof_H 	H 	0.3794	0.4222	0.3058	0.238
Mof_H 	H 	0.7413	0.4864	0.0596	0.292
Mof_H 	H 	0.6269	0.8933	0.5915	0.27
Mof_H 	H 	0.737	0.6925	0.0347	0.154
Mof_H 	H 	0.8208	0.8262	0.857	0.254
Mof_H 	H 	0.8883	0.3933	0.0915	0.272
Mof_H 	H 	0.5358	0.1925	0.5347	0.153
Mof_H 	H 	0.6727	0.6805	0.6385	0.241
Mof_H 	H 	0.3563	0.0428	0.3534	0.275
Mof_H 	H 	0.8926	0.9222	0.8058	0.243
Mof_H 	H 	0.7525	0.4572	0.1466	0.276
Mof_H 	H 	0.1074	0.0778	0.1942	0.243
Mof_H 	H 	0.4642	0.8075	0.4653	0.153
Mof_H 	H 	0.2475	0.5428	0.8534	0.276
Mof_C 	C 	0.06282	0.13966	0.5815	0.416
Mof_C 	C 	0.89176	0.55218	0.0803	0.339
Mof_C 	C 	0.77116	0.86098	0.4277	-0.096
Mof_C 	C 	0.08467	0.15746	0.1718	-0.816
Mof_C 	C 	0.88329	0.84492	0.0201	0.351
Mof_C 	C 	0.58607	0.65746	0.6718	-0.808
Mof_C 	C 	0.30459	0.21982	0.5432	-0.019
Mof_C 	C 	0.24736	0.94078	0.8147	0.362
Mof_C 	C 	0.50431	0.76828	0.8381	-0.076
Mof_C 	C 	0.75264	0.05922	0.1853	0.362
Mof_C 	C 	0.47448	0.28004	0.2666	0.293
Mof_C 	C 	0.05984	0.63902	0.0723	-0.103
Mof_C 	C 	0.97888	0.78004	0.7666	0.297
Mof_C 	C 	0.94016	0.36098	0.9277	-0.103
Mof_C 	C 	0.93239	0.71982	0.0432	-0.013
Mof_C 	C 	0.44144	0.24012	0.091	0.367
Mof_C 	C 	0.6284	0.9645	0.5959	-0.87
Mof_C 	C 	0.88931	0.26828	0.3381	-0.077
Mof_C 	C 	0.69541	0.78018	0.4568	-0.019
Mof_C 	C 	0.41393	0.34254	0.3282	-0.808
Mof_C 	C 	0.47576	0.05218	0.5803	0.333
Mof_C 	C 	0.02112	0.21996	0.2334	0.297
Mof_C 	C 	0.11671	0.15508	0.9799	0.351
Mof_C 	C 	0.3716	0.0355	0.4041	-0.87
Mof_C 	C 	0.91533	0.84254	0.8282	-0.816
Mof_C 	C 	0.3824	0.8417	0.7999	-0.075
Mof_C 	C 	0.8112	0.4645	0.0959	-0.877
Mof_C 	C 	0.1888	0.5355	0.9041	-0.877
Mof_C 	C 	0.22884	0.13902	0.5723	-0.096
Mof_C 	C 	0.99716	0.44078	0.3147	0.365
Mof_C 	C 	0.024	0.6583	0.7001	-0.076
Mof_C 	C 	0.25169	0.34492	0.5201	0.354
Mof_C 	C 	0.976	0.3417	0.2999	-0.076
Mof_C 	C 	0.22744	0.74012	0.591	0.368
Mof_C 	C 	0.52552	0.71996	0.7334	0.293
Mof_C 	C 	0.74831	0.65508	0.4799	0.354
Mof_C 	C 	0.55856	0.75988	0.909	0.367
Mof_C 	C 	0.93718	0.86034	0.4185	0.416
Mof_C 	C 	0.6176	0.1583	0.2001	-0.075
Mof_C 	C 	0.11069	0.73172	0.6619	-0.077
Mof_C 	C 	0.21602	0.63966	0.0815	0.412
Mof_C 	C 	0.06761	0.28018	0.9568	-0.013
Mof_C 	C 	0.49569	0.23172	0.1619	-0.076
Mof_C 	C 	0.52424	0.94782	0.4197	0.333
Mof_C 	C 	0.77256	0.25988	0.409	0.368
Mof_C 	C 	0.78398	0.36034	0.9185	0.412
Mof_C 	C 	0.00284	0.55922	0.6853	0.365
Mof_C 	C 	0.10824	0.44782	0.9197	0.339
Mof_N 	N 	0.03265	0.53494	0.09636	-0.27
Mof_N 	N 	0.94194	0.68852	0.7668	-0.285
Mof_N 	N 	0.17204	0.33742	0.9511	-0.254
Mof_N 	N 	0.53944	0.83742	0.4511	-0.253
Mof_N 	N 	0.08102	0.80859	0.70497	-0.279
Mof_N 	N 	0.96735	0.46506	0.90364	-0.27
Mof_N 	N 	0.46056	0.16258	0.5489	-0.253
Mof_N 	N 	0.40542	0.30859	0.20497	-0.277
Mof_N 	N 	0.33605	0.03494	0.59636	-0.268
Mof_N 	N 	0.59458	0.69141	0.79503	-0.277
Mof_N 	N 	0.05806	0.31148	0.2332	-0.285
Mof_N 	N 	0.39726	0.81148	0.7332	-0.285
Mof_N 	N 	0.82796	0.66258	0.0489	-0.254
Mof_N 	N 	0.66395	0.96506	0.40364	-0.268
Mof_N 	N 	0.60274	0.18852	0.2668	-0.285
Mof_N 	N 	0.91898	0.19141	0.29503	-0.279
Mof_O 	O 	0.65394	0.60265	0.48367	-0.473
Mof_O 	O 	0.01883	0.10054	0.9952	-0.588
Mof_O 	O 	0.68232	0.68102	0.92514	-0.436
Mof_O 	O 	0.88543	0.60054	0.4952	-0.595
Mof_O 	O 	0.03168	0.05151	0.62133	-0.439
Mof_O 	O 	0.34606	0.39735	0.51633	-0.473
Mof_O 	O 	0.21299	0.96587	0.87895	-0.498
Mof_O 	O 	0.16696	0.99562	0.76246	-0.426
Mof_O 	O 	0.98117	0.89946	0.0048	-0.588
Mof_O 	O 	0.92504	0.50438	0.73754	-0.427
Mof_O 	O 	0.78701	0.03413	0.12105	-0.498
Mof_O 	O 	0.83304	0.00438	0.23754	-0.426
Mof_O 	O 	0.51359	0.16741	0.05221	-0.505
Mof_O 	O 	0.74026	0.89735	0.01633	-0.47
Mof_O 	O 	0.73862	0.27509	0.95187	-0.545
Mof_O 	O 	0.29548	0.55151	0.12133	-0.441
Mof_O 	O 	0.11457	0.39946	0.5048	-0.595
Mof_O 	O 	0.31768	0.31898	0.07486	-0.436
Mof_O 	O 	0.07496	0.49562	0.26246	-0.427
Mof_O 	O 	0.26679	0.66741	0.55221	-0.511
Mof_O 	O 	0.05781	0.53413	0.62105	-0.502
Mof_O 	O 	0.96558	0.22491	0.54813	-0.551
Mof_O 	O 	0.71152	0.18102	0.42514	-0.437
Mof_O 	O 	0.03442	0.77509	0.45187	-0.551
Mof_O 	O 	0.48641	0.83259	0.94779	-0.505
Mof_O 	O 	0.96832	0.94849	0.37867	-0.439
Mof_O 	O 	0.73321	0.33259	0.44779	-0.511
Mof_O 	O 	0.26138	0.72491	0.04813	-0.545
Mof_O 	O 	0.94219	0.46587	0.37895	-0.502
Mof_O 	O 	0.25974	0.10265	0.98367	-0.47
Mof_O 	O 	0.70452	0.44849	0.87867	-0.441
Mof_O 	O 	0.28848	0.81898	0.57486	-0.437
_end
