data_functionalizedCrystal
_audit_creation_method	'EQeq! by Chris Wilmer'
_symmetry_space_group_name_H-M	'P1'
_symmetry_Int_Tables_number	1
_symmetry_cell_setting	triclinic
loop_
_symmetry_equiv_pos_as_xyz
  x,y,z
_cell_length_a	24.348
_cell_length_b	24.348
_cell_length_c	14.918
_cell_angle_alpha	90
_cell_angle_beta	90
_cell_angle_gamma	90
loop_
_atom_site_label
_atom_site_type_symbol
_atom_site_fract_x
_atom_site_fract_y
_atom_site_fract_z
_atom_site_charge
Mof_O 	O 	0.07714	0.09999	0.16382	-0.592
Mof_O 	O 	0.13882	0.05018	0.08021	-0.566
Mof_C 	C 	0.12729	0.08849	0.13887	0.419
Mof_O 	O 	0.92318	0.8949	0.15608	-0.667
Mof_O 	O 	0.86062	0.94759	0.0796	-0.652
Mof_C 	C 	0.87281	0.90703	0.13372	0.436
Mof_O 	O 	0.07668	0.89976	0.16456	-0.61
Mof_O 	O 	0.13873	0.94913	0.08127	-0.647
Mof_C 	C 	0.1269	0.911	0.14015	0.414
Mof_O 	O 	0.92248	0.10469	0.15551	-0.649
Mof_O 	O 	0.86036	0.05169	0.07852	-0.572
Mof_C 	C 	0.87223	0.09241	0.13247	0.439
Mof_Zr	Zr	0.99943	0.06919	0.1177	3.191
Mof_O 	O 	0.99422	0.06659	0.25933	-0.81
Mof_O 	O 	0.00161	0.15603	0.11439	-0.506
Mof_Zr	Zr	0.99952	0.93226	0.12061	3.182
Mof_O 	O 	0.99424	0.94417	0.26099	-0.858
Mof_O 	O 	0.00216	0.8465	0.14165	-0.474
Mof_O 	O 	0.05016	0.00074	0.13626	-1.209
Mof_O 	O 	0.94997	0.00069	0.13499	-1.616
Mof_O 	O 	0.92253	0.10341	0.85278	-0.622
Mof_O 	O 	0.86036	0.05136	0.9315	-0.543
Mof_C 	C 	0.87227	0.09144	0.87627	0.442
Mof_O 	O 	0.07601	0.89824	0.84723	-0.589
Mof_O 	O 	0.13823	0.9498	0.92646	-0.606
Mof_C 	C 	0.1263	0.91051	0.8697	0.419
Mof_O 	O 	0.9227	0.89509	0.85449	-0.647
Mof_O 	O 	0.86029	0.94722	0.93229	-0.608
Mof_C 	C 	0.87242	0.90698	0.87747	0.442
Mof_O 	O 	0.07653	0.09948	0.84531	-0.565
Mof_O 	O 	0.13861	0.04998	0.92856	-0.536
Mof_C 	C 	0.1268	0.08821	0.86981	0.417
Mof_Zr	Zr	0.9993	0.06759	0.89045	3.199
Mof_O 	O 	0.99408	0.05967	0.74934	-0.776
Mof_O 	O 	0.00213	0.15413	0.88055	-0.331
Mof_Zr	Zr	0.99931	0.93078	0.89223	3.192
Mof_O 	O 	0.99398	0.93831	0.75104	-0.823
Mof_O 	O 	0.00314	0.84424	0.88186	-0.342
Mof_Zr	Zr	0.08334	0.99958	0.00509	3.177
Mof_Zr	Zr	0.91556	0.99954	0.00543	3.174
Mof_O 	O 	0.94978	0.99908	0.87573	-1.699
Mof_O 	O 	0.04997	0.99908	0.87407	-1.327
Mof_O 	O 	0.95055	0.07883	0.00404	-1.386
Mof_O 	O 	0.0466	0.92108	0.00638	-1.593
Mof_O 	O 	0.0469	0.07822	0.00397	-1.542
Mof_O 	O 	0.951	0.92034	0.00665	-1.438
Mof_H 	H 	0.92387	0.00098	0.18598	0.431
Mof_H 	H 	0.06941	0.88744	0.00629	0.372
Mof_H 	H 	0.9237	0.99893	0.82473	0.38
Mof_H 	H 	0.06975	0.11184	0.00384	0.377
Mof_H 	H 	0.00275	0.8294	0.08161	0.201
Mof_H 	H 	0.98341	0.82919	0.93432	0.004
Mof_H 	H 	0.03075	0.94886	0.7286	0.339
Mof_H 	H 	0.03074	0.04844	0.72727	0.381
Mof_H 	H 	0.99152	0.16851	0.94014	0.008
Mof_H 	H 	0.00155	0.16859	0.17764	0.241
Mof_H 	H 	0.02864	0.04991	0.28178	0.383
Mof_H 	H 	0.03201	0.94975	0.2838	0.331
Mof_O 	O 	0.39851	0.42183	0.34671	-0.631
Mof_O 	O 	0.44771	0.35975	0.4305	-0.594
Mof_C 	C 	0.40973	0.37159	0.37135	0.428
Mof_O 	O 	0.60341	0.57474	0.35395	-0.605
Mof_O 	O 	0.55148	0.63769	0.43096	-0.595
Mof_C 	C 	0.59163	0.62519	0.37611	0.428
Mof_O 	O 	0.59849	0.42149	0.3464	-0.627
Mof_O 	O 	0.54902	0.35955	0.42974	-0.597
Mof_C 	C 	0.58718	0.3713	0.37087	0.421
Mof_O 	O 	0.39398	0.57627	0.35557	-0.608
Mof_O 	O 	0.44715	0.63829	0.43247	-0.597
Mof_C 	C 	0.40636	0.62648	0.37858	0.436
Mof_Zr	Zr	0.4293	0.49927	0.39338	3.214
Mof_O 	O 	0.4317	0.50466	0.25175	-0.614
Mof_O 	O 	0.34246	0.49723	0.39704	-0.594
Mof_Zr	Zr	0.56617	0.49867	0.3904	3.214
Mof_O 	O 	0.55433	0.5038	0.24997	-0.611
Mof_O 	O 	0.65198	0.49591	0.3699	-0.571
Mof_O 	O 	0.49755	0.44828	0.37476	-1.349
Mof_O 	O 	0.49792	0.54849	0.37603	-1.623
Mof_O 	O 	0.39525	0.57616	0.65809	-0.597
Mof_O 	O 	0.44742	0.63826	0.57939	-0.593
Mof_C 	C 	0.40729	0.6264	0.63459	0.431
Mof_O 	O 	0.60007	0.42224	0.66374	-0.62
Mof_O 	O 	0.5484	0.3601	0.5845	-0.592
Mof_C 	C 	0.58774	0.37198	0.64123	0.422
Mof_O 	O 	0.60307	0.57552	0.65768	-0.612
Mof_O 	O 	0.55153	0.63806	0.57903	-0.596
Mof_C 	C 	0.59134	0.62583	0.63465	0.43
Mof_O 	O 	0.3991	0.4222	0.66625	-0.614
Mof_O 	O 	0.44823	0.35995	0.58271	-0.591
Mof_C 	C 	0.4103	0.37188	0.64191	0.422
Mof_Zr	Zr	0.43092	0.49933	0.62052	3.214
Mof_O 	O 	0.43874	0.50473	0.76164	-0.598
Mof_O 	O 	0.34436	0.49656	0.63021	-0.571
Mof_Zr	Zr	0.56771	0.49899	0.61871	3.214
Mof_O 	O 	0.56047	0.5041	0.75996	-0.599
Mof_O 	O 	0.65431	0.49503	0.62805	-0.586
Mof_Zr	Zr	0.49863	0.41506	0.50589	3.194
Mof_Zr	Zr	0.49922	0.58296	0.50552	3.193
Mof_O 	O 	0.49953	0.54867	0.63519	-1.625
Mof_O 	O 	0.49929	0.44849	0.63687	-1.348
Mof_O 	O 	0.41983	0.54816	0.507	-1.329
Mof_O 	O 	0.57722	0.45161	0.50461	-1.627
Mof_O 	O 	0.42011	0.45172	0.50705	-1.624
Mof_O 	O 	0.57831	0.54729	0.50428	-1.341
Mof_H 	H 	0.49767	0.57453	0.32497	0.395
Mof_H 	H 	0.61081	0.42873	0.50467	0.377
Mof_H 	H 	0.49967	0.57468	0.68628	0.399
Mof_H 	H 	0.38649	0.42885	0.50724	0.391
Mof_H 	H 	0.66894	0.49518	0.43003	0.157
Mof_H 	H 	0.66921	0.51612	0.57688	0.174
Mof_H 	H 	0.54943	0.46745	0.78227	0.205
Mof_H 	H 	0.45022	0.46818	0.78383	0.205
Mof_H 	H 	0.33003	0.50759	0.57081	0.201
Mof_H 	H 	0.32981	0.49736	0.33384	0.198
Mof_H 	H 	0.44867	0.47042	0.22913	0.2
Mof_H 	H 	0.54852	0.46604	0.22728	0.199
Mof_C 	C 	0.25728	0.19991	0.23668	-0.007
Mof_C 	C 	0.26743	0.16295	0.16453	0.042
Mof_C 	C 	0.22597	0.1256	0.13586	-0.022
Mof_C 	C 	0.17345	0.12414	0.17604	-0.069
Mof_C 	C 	0.16422	0.16063	0.24804	0.015
Mof_C 	C 	0.20527	0.19738	0.2779	-0.041
Mof_C 	C 	0.29841	0.24338	0.26692	-0.005
Mof_C 	C 	0.33349	0.2332	0.34044	-0.051
Mof_C 	C 	0.37082	0.27342	0.37218	0.014
Mof_C 	C 	0.37413	0.3259	0.33242	-0.086
Mof_C 	C 	0.33951	0.33586	0.25812	-0.019
Mof_C 	C 	0.3024	0.29566	0.2249	0.037
Mof_H 	H 	0.23449	0.09856	0.07992	0.063
Mof_H 	H 	0.12461	0.16144	0.28101	0.068
Mof_H 	H 	0.39618	0.26378	0.42963	0.048
Mof_H 	H 	0.34086	0.37564	0.22561	0.053
Mof_H 	H 	0.19585	0.22507	0.33259	0.057
Mof_H 	H 	0.33166	0.19386	0.37418	0.054
Mof_C 	C 	0.32123	0.16263	0.11481	-0.182
Mof_C 	C 	0.2676	0.31084	0.14512	-0.181
Mof_H 	H 	0.31393	0.17308	0.04333	0.061
Mof_H 	H 	0.33981	0.12105	0.11867	0.079
Mof_H 	H 	0.35127	0.1924	0.14232	0.072
Mof_H 	H 	0.29466	0.32125	0.08767	0.061
Mof_H 	H 	0.24204	0.3472	0.16179	0.078
Mof_H 	H 	0.23976	0.27735	0.12355	0.072
Mof_C 	C 	0.74366	0.79562	0.23518	-0.007
Mof_C 	C 	0.7309	0.83724	0.17131	0.017
Mof_C 	C 	0.77239	0.87409	0.14067	-0.02
Mof_C 	C 	0.82726	0.87055	0.1709	-0.108
Mof_C 	C 	0.83905	0.82938	0.23474	0.009
Mof_C 	C 	0.79825	0.79297	0.26615	-0.065
Mof_C 	C 	0.70257	0.75247	0.26684	-0.014
Mof_C 	C 	0.66312	0.76529	0.33317	-0.054
Mof_C 	C 	0.62643	0.72511	0.36726	0.007
Mof_C 	C 	0.628	0.67023	0.33692	-0.082
Mof_C 	C 	0.66699	0.65768	0.26972	-0.024
Mof_C 	C 	0.70352	0.69761	0.23433	0.032
Mof_H 	H 	0.76178	0.90493	0.09129	0.033
Mof_H 	H 	0.88042	0.82467	0.2602	0.025
Mof_H 	H 	0.59742	0.73692	0.41873	0.043
Mof_H 	H 	0.66932	0.61612	0.24402	0.06
Mof_H 	H 	0.8097	0.76165	0.3142	0.033
Mof_H 	H 	0.66115	0.80664	0.35966	0.032
Mof_C 	C 	0.67431	0.84294	0.1318	-0.166
Mof_C 	C 	0.74247	0.67956	0.16151	-0.173
Mof_H 	H 	0.67661	0.83802	0.05788	0.046
Mof_H 	H 	0.65781	0.88437	0.14735	0.039
Mof_H 	H 	0.64502	0.81199	0.15791	0.057
Mof_H 	H 	0.71871	0.66178	0.10497	0.054
Mof_H 	H 	0.77067	0.6477	0.18829	0.053
Mof_H 	H 	0.76755	0.71365	0.13421	0.057
Mof_C 	C 	0.74258	0.20119	0.77168	-0.005
Mof_C 	C 	0.79611	0.20021	0.73338	0.032
Mof_C 	C 	0.83693	0.1642	0.7675	-0.018
Mof_C 	C 	0.82644	0.12732	0.83854	-0.079
Mof_C 	C 	0.77283	0.12746	0.87455	0.018
Mof_C 	C 	0.73194	0.16392	0.84222	-0.049
Mof_C 	C 	0.69908	0.24265	0.7423	-0.01
Mof_C 	C 	0.70762	0.29874	0.76062	-0.049
Mof_C 	C 	0.67095	0.33953	0.73036	0.007
Mof_C 	C 	0.62374	0.32642	0.67968	-0.081
Mof_C 	C 	0.61409	0.27015	0.66273	-0.024
Mof_C 	C 	0.65071	0.22844	0.69356	0.041
Mof_H 	H 	0.87747	0.16506	0.73754	0.047
Mof_H 	H 	0.76269	0.10018	0.92937	0.062
Mof_H 	H 	0.68058	0.38196	0.7453	0.053
Mof_H 	H 	0.57828	0.25844	0.62407	0.059
Mof_H 	H 	0.69179	0.16353	0.87346	0.051
Mof_H 	H 	0.74379	0.31128	0.79763	0.041
Mof_C 	C 	0.81171	0.2363	0.65533	-0.174
Mof_C 	C 	0.6369	0.16975	0.67129	-0.186
Mof_H 	H 	0.82852	0.21052	0.60038	0.059
Mof_H 	H 	0.84367	0.26602	0.67683	0.05
Mof_H 	H 	0.77649	0.25949	0.62741	0.064
Mof_H 	H 	0.63051	0.16551	0.59802	0.071
Mof_H 	H 	0.59839	0.15795	0.70616	0.08
Mof_H 	H 	0.66961	0.14055	0.69109	0.081
Mof_C 	C 	0.25573	0.79938	0.76833	-0.005
Mof_C 	C 	0.26988	0.84766	0.81736	0.032
Mof_C 	C 	0.22812	0.8842	0.84826	-0.021
Mof_C 	C 	0.17186	0.87456	0.83116	-0.082
Mof_C 	C 	0.15882	0.82744	0.78021	0.013
Mof_C 	C 	0.19965	0.79084	0.74984	-0.047
Mof_C 	C 	0.29725	0.75593	0.73895	-0.011
Mof_C 	C 	0.33464	0.76667	0.66858	-0.048
Mof_C 	C 	0.3712	0.72585	0.63635	0.01
Mof_C 	C 	0.37136	0.67222	0.67227	-0.074
Mof_C 	C 	0.33439	0.66165	0.74316	-0.023
Mof_C 	C 	0.29826	0.70239	0.77719	0.05
Mof_H 	H 	0.23979	0.91993	0.88713	0.046
Mof_H 	H 	0.1164	0.81782	0.76514	0.075
Mof_H 	H 	0.39857	0.73606	0.58168	0.046
Mof_H 	H 	0.33353	0.6211	0.77307	0.072
Mof_H 	H 	0.18717	0.75473	0.71264	0.061
Mof_H 	H 	0.33502	0.80684	0.63742	0.036
Mof_C 	C 	0.32853	0.86144	0.83991	-0.175
Mof_C 	C 	0.26208	0.6867	0.85506	-0.193
Mof_H 	H 	0.3327	0.86749	0.91326	0.063
Mof_H 	H 	0.34032	0.90012	0.80553	0.05
Mof_H 	H 	0.35779	0.82886	0.81978	0.066
Mof_H 	H 	0.2878	0.6699	0.9101	0.085
Mof_H 	H 	0.23244	0.65468	0.8334	0.093
Mof_H 	H 	0.23878	0.72186	0.88293	0.087
Mof_C 	C 	0.25546	0.2007	0.76997	-0.012
Mof_C 	C 	0.20074	0.20308	0.73683	0.057
Mof_C 	C 	0.16046	0.16549	0.76799	-0.026
Mof_C 	C 	0.17246	0.12429	0.8318	-0.058
Mof_C 	C 	0.22726	0.12125	0.86237	0.01
Mof_C 	C 	0.26785	0.1587	0.83208	-0.039
Mof_C 	C 	0.29858	0.24342	0.7446	-0.006
Mof_C 	C 	0.33911	0.23128	0.67983	-0.049
Mof_C 	C 	0.37642	0.27175	0.64877	0.012
Mof_C 	C 	0.3746	0.32625	0.68095	-0.078
Mof_C 	C 	0.33502	0.33796	0.7476	-0.022
Mof_C 	C 	0.29771	0.2977	0.77982	0.044
Mof_H 	H 	0.11894	0.16921	0.74255	0.087
Mof_H 	H 	0.23867	0.09058	0.91145	0.067
Mof_H 	H 	0.4059	0.26057	0.59765	0.05
Mof_H 	H 	0.33241	0.3792	0.77453	0.068
Mof_H 	H 	0.30902	0.15565	0.85907	0.051
Mof_H 	H 	0.34101	0.19044	0.65128	0.054
Mof_C 	C 	0.18303	0.2453	0.66885	-0.196
Mof_C 	C 	0.25739	0.31492	0.85113	-0.189
Mof_H 	H 	0.15135	0.27244	0.69891	0.097
Mof_H 	H 	0.16516	0.22428	0.60958	0.095
Mof_H 	H 	0.21733	0.27134	0.64482	0.084
Mof_H 	H 	0.22974	0.34712	0.8239	0.087
Mof_H 	H 	0.28005	0.33198	0.90942	0.08
Mof_H 	H 	0.23179	0.2805	0.87592	0.083
Mof_C 	C 	0.74462	0.79564	0.77175	-0.006
Mof_C 	C 	0.79965	0.79348	0.7402	0.023
Mof_C 	C 	0.83967	0.83036	0.77409	-0.02
Mof_C 	C 	0.82712	0.87067	0.83912	-0.099
Mof_C 	C 	0.77208	0.87343	0.86849	0.013
Mof_C 	C 	0.73171	0.83657	0.83553	-0.059
Mof_C 	C 	0.70185	0.75335	0.74343	-0.013
Mof_C 	C 	0.66268	0.76599	0.67666	-0.051
Mof_C 	C 	0.62596	0.72576	0.64289	0.008
Mof_C 	C 	0.62721	0.67109	0.6742	-0.081
Mof_C 	C 	0.66557	0.65887	0.74248	-0.024
Mof_C 	C 	0.70217	0.69882	0.77744	0.039
Mof_H 	H 	0.88137	0.82698	0.74936	0.039
Mof_H 	H 	0.76031	0.90343	0.91846	0.04
Mof_H 	H 	0.59739	0.73728	0.59059	0.044
Mof_H 	H 	0.66759	0.61748	0.76898	0.064
Mof_H 	H 	0.69029	0.83926	0.86158	0.041
Mof_H 	H 	0.66138	0.80704	0.64881	0.034
Mof_C 	C 	0.81798	0.75225	0.67103	-0.17
Mof_C 	C 	0.74114	0.68101	0.85037	-0.181
Mof_H 	H 	0.84923	0.72453	0.70091	0.047
Mof_H 	H 	0.8366	0.77412	0.6132	0.048
Mof_H 	H 	0.7839	0.72671	0.64488	0.063
Mof_H 	H 	0.76914	0.64887	0.82396	0.061
Mof_H 	H 	0.71739	0.6637	0.90731	0.072
Mof_H 	H 	0.76646	0.71515	0.87693	0.07
Mof_C 	C 	0.25536	0.79993	0.24476	-0.006
Mof_C 	C 	0.26802	0.83969	0.17769	0.024
Mof_C 	C 	0.22686	0.8766	0.1461	-0.023
Mof_C 	C 	0.17245	0.87515	0.17891	-0.091
Mof_C 	C 	0.16074	0.83572	0.24568	0.012
Mof_C 	C 	0.20115	0.79904	0.27758	-0.049
Mof_C 	C 	0.29639	0.75738	0.27888	-0.006
Mof_C 	C 	0.28997	0.70208	0.2533	-0.05
Mof_C 	C 	0.32584	0.66064	0.28409	0.017
Mof_C 	C 	0.37004	0.67241	0.34231	-0.083
Mof_C 	C 	0.3769	0.72782	0.36799	-0.019
Mof_C 	C 	0.34072	0.77	0.33785	0.031
Mof_H 	H 	0.23727	0.90571	0.09384	0.036
Mof_H 	H 	0.11966	0.83248	0.27294	0.069
Mof_H 	H 	0.31841	0.61885	0.26249	0.052
Mof_H 	H 	0.41013	0.73846	0.41303	0.053
Mof_H 	H 	0.18976	0.76921	0.32813	0.06
Mof_H 	H 	0.25659	0.69073	0.20901	0.051
Mof_C 	C 	0.32411	0.84315	0.13572	-0.169
Mof_C 	C 	0.35044	0.82735	0.372	-0.173
Mof_H 	H 	0.34134	0.88486	0.14637	0.041
Mof_H 	H 	0.32061	0.83531	0.06273	0.047
Mof_H 	H 	0.35343	0.81287	0.16363	0.059
Mof_H 	H 	0.39146	0.84177	0.34961	0.05
Mof_H 	H 	0.34928	0.82729	0.44643	0.058
Mof_H 	H 	0.31924	0.85706	0.34805	0.059
Mof_C 	C 	0.74121	0.20215	0.23241	-0.009
Mof_C 	C 	0.7286	0.15758	0.17392	0.036
Mof_C 	C 	0.77084	0.12154	0.14363	-0.019
Mof_C 	C 	0.82631	0.12872	0.16878	-0.087
Mof_C 	C 	0.83808	0.17314	0.22655	0.012
Mof_C 	C 	0.79657	0.20891	0.25743	-0.057
Mof_C 	C 	0.69856	0.24305	0.26655	-0.012
Mof_C 	C 	0.69863	0.29697	0.2325	-0.052
Mof_C 	C 	0.66182	0.33728	0.26431	0.007
Mof_C 	C 	0.62304	0.32574	0.33218	-0.084
Mof_C 	C 	0.6224	0.27161	0.36622	-0.025
Mof_C 	C 	0.65947	0.23056	0.33474	0.038
Mof_H 	H 	0.7602	0.08813	0.09894	0.065
Mof_H 	H 	0.87991	0.18081	0.24773	0.024
Mof_H 	H 	0.66443	0.37816	0.2361	0.047
Mof_H 	H 	0.59384	0.26135	0.41937	0.058
Mof_H 	H 	0.8079	0.24248	0.30135	0.033
Mof_H 	H 	0.72793	0.30823	0.18105	0.036
Mof_C 	C 	0.67115	0.14742	0.14054	-0.182
Mof_C 	C 	0.65696	0.1748	0.37805	-0.185
Mof_H 	H 	0.65711	0.10634	0.16328	0.079
Mof_H 	H 	0.67085	0.14847	0.06611	0.066
Mof_H 	H 	0.64134	0.17845	0.16476	0.072
Mof_H 	H 	0.61525	0.15718	0.36923	0.074
Mof_H 	H 	0.66574	0.17898	0.45066	0.069
Mof_H 	H 	0.68708	0.14546	0.3497	0.078
_end
