data_functionalizedCrystal
_audit_creation_method	'EQeq! by Chris Wilmer'
_symmetry_space_group_name_H-M	'P1'
_symmetry_Int_Tables_number	1
_symmetry_cell_setting	triclinic
loop_
_symmetry_equiv_pos_as_xyz
  x,y,z
_cell_length_a	9.1699
_cell_length_b	15.6055
_cell_length_c	13.5026
_cell_angle_alpha	90
_cell_angle_beta	107.162
_cell_angle_gamma	90
loop_
_atom_site_label
_atom_site_type_symbol
_atom_site_fract_x
_atom_site_fract_y
_atom_site_fract_z
_atom_site_charge
Mof_Zn	Zn	0.61984	0.449	0.75077	1.239
Mof_Zn	Zn	0.87283	0.25382	0.74873	1.239
Mof_O 	O 	0.9695	0.35912	0.81819	-0.466
Mof_O 	O 	0.80844	0.4474	0.86333	-0.472
Mof_C 	C 	0.0692	0.4854	0.9074	-0.113
Mof_C 	C 	0.0595	0.5453	0.9809	0.046
Mof_H 	H 	0.9717	0.5494	0.0017	0.059
Mof_C 	C 	0.1833	0.5996	0.0235	-0.081
Mof_C 	C 	0.3134	0.5936	0.9907	0.034
Mof_H 	H 	0.3946	0.6307	0.0182	0.059
Mof_C 	C 	0.3241	0.5334	0.9178	-0.087
Mof_C 	C 	0.2013	0.4786	0.8768	0.051
Mof_H 	H 	0.2075	0.4371	0.8287	0.058
Mof_C 	C 	0.9388	0.42587	0.8587	0.418
Mof_O 	O 	0.0583	0.66637	0.1351	-0.39
Mof_C 	C 	0.1772	0.6635	0.1051	0.31
Mof_O 	O 	0.2884	0.71132	0.1436	-0.333
Mof_O 	O 	0.5681	0.5794	0.9103	-0.262
Mof_C 	C 	0.4645	0.5264	0.8821	0.34
Mof_O 	O 	0.4632	0.46345	0.82116	-0.411
Mof_O 	O 	0.5228	0.3439	0.68143	-0.464
Mof_O 	O 	0.68321	0.2545	0.63565	-0.469
Mof_C 	C 	0.4206	0.2209	0.588	-0.116
Mof_C 	C 	0.4301	0.1592	0.5158	0.047
Mof_H 	H 	0.5182	0.1548	0.4954	0.058
Mof_C 	C 	0.3077	0.1042	0.474	-0.082
Mof_C 	C 	0.1769	0.1097	0.5063	0.034
Mof_H 	H 	0.0967	0.0716	0.4802	0.058
Mof_C 	C 	0.166	0.1719	0.5775	-0.09
Mof_C 	C 	0.2884	0.2273	0.6175	0.054
Mof_H 	H 	0.2813	0.2693	0.6648	0.057
Mof_C 	C 	0.5533	0.27725	0.6388	0.415
Mof_O 	O 	0.4344	0.03677	0.36263	-0.395
Mof_C 	C 	0.3143	0.0381	0.3947	0.307
Mof_O 	O 	0.2065	0.98908	0.3583	-0.323
Mof_O 	O 	0.9241	0.12458	0.5891	-0.267
Mof_C 	C 	0.027	0.1776	0.6152	0.348
Mof_O 	O 	0.0275	0.24032	0.67582	-0.412
Mof_Zn	Zn	0.38016	0.949	0.24923	1.24
Mof_Zn	Zn	0.12717	0.75382	0.25127	1.24
Mof_O 	O 	0.0305	0.85912	0.18181	-0.466
Mof_O 	O 	0.19156	0.9474	0.13667	-0.471
Mof_C 	C 	0.9308	0.9854	0.0926	-0.111
Mof_C 	C 	0.9405	0.0453	0.0191	0.043
Mof_H 	H 	0.0283	0.0494	0.9983	0.059
Mof_C 	C 	0.8167	0.0996	0.9765	-0.081
Mof_C 	C 	0.6866	0.0936	0.0093	0.034
Mof_H 	H 	0.6054	0.1307	0.9818	0.059
Mof_C 	C 	0.6759	0.0334	0.0822	-0.088
Mof_C 	C 	0.7987	0.9786	0.1232	0.052
Mof_H 	H 	0.7925	0.9371	0.1713	0.058
Mof_C 	C 	0.0612	0.92587	0.1413	0.417
Mof_O 	O 	0.9417	0.16637	0.8649	-0.39
Mof_C 	C 	0.8228	0.1635	0.8949	0.31
Mof_O 	O 	0.7116	0.21132	0.8564	-0.333
Mof_O 	O 	0.4319	0.0794	0.0897	-0.262
Mof_C 	C 	0.5355	0.0264	0.1179	0.339
Mof_O 	O 	0.5368	0.96345	0.17884	-0.41
Mof_O 	O 	0.4772	0.8439	0.31857	-0.463
Mof_O 	O 	0.31679	0.7545	0.36435	-0.469
Mof_C 	C 	0.5794	0.7209	0.412	-0.116
Mof_C 	C 	0.5699	0.6592	0.4842	0.047
Mof_H 	H 	0.4818	0.6548	0.5046	0.058
Mof_C 	C 	0.6923	0.6042	0.526	-0.082
Mof_C 	C 	0.8231	0.6097	0.4937	0.035
Mof_H 	H 	0.9033	0.5716	0.5198	0.058
Mof_C 	C 	0.834	0.6719	0.4225	-0.09
Mof_C 	C 	0.7116	0.7273	0.3825	0.054
Mof_H 	H 	0.7187	0.7693	0.3352	0.057
Mof_C 	C 	0.4467	0.77725	0.3612	0.415
Mof_O 	O 	0.5656	0.53677	0.63737	-0.394
Mof_C 	C 	0.6857	0.5381	0.6053	0.309
Mof_O 	O 	0.7935	0.48908	0.6417	-0.325
Mof_O 	O 	0.0759	0.62458	0.4109	-0.266
Mof_C 	C 	0.973	0.6776	0.3848	0.347
Mof_O 	O 	0.9725	0.74032	0.32418	-0.412
_end
