data_functionalizedCrystal
_audit_creation_method	'EQeq! by Chris Wilmer'
_symmetry_space_group_name_H-M	'P1'
_symmetry_Int_Tables_number	1
_symmetry_cell_setting	triclinic
loop_
_symmetry_equiv_pos_as_xyz
  x,y,z
_cell_length_a	21.7544
_cell_length_b	21.7544
_cell_length_c	21.956
_cell_angle_alpha	90
_cell_angle_beta	90
_cell_angle_gamma	111.117
loop_
_atom_site_label
_atom_site_type_symbol
_atom_site_fract_x
_atom_site_fract_y
_atom_site_fract_z
_atom_site_charge
Mof_Zn	Zn	0.9262	0.07278	0.005	1.225
Mof_Zn	Zn	0.0738	0.92722	0.505	1.238
Mof_Zn	Zn	0.92722	0.0738	0.505	1.238
Mof_Zn	Zn	0.07278	0.9262	0.005	1.225
Mof_Zn	Zn	0.9786	0.9786	0.2569	1.211
Mof_Zn	Zn	0.0214	0.0214	0.7569	1.211
Mof_H 	H 	0.9246	0.1824	0.9678	0.252
Mof_H 	H 	0.8645	0.1855	0.8939	0.041
Mof_H 	H 	0.8417	0.1069	0.891	0.026
Mof_H 	H 	0.8252	0.1416	0.9498	0.033
Mof_H 	H 	0.841	0.055	0.0781	0.251
Mof_H 	H 	0.8209	0.1215	0.127	0.036
Mof_H 	H 	0.8925	0.1181	0.137	0.015
Mof_H 	H 	0.8841	0.1755	0.0963	0.026
Mof_H 	H 	0.82	0.0118	0.9559	0.204
Mof_H 	H 	0.878	0.0054	0.9144	0.202
Mof_H 	H 	0.858	0.9478	0.1672	0.01
Mof_H 	H 	0.7522	0.9378	0.1659	0.095
Mof_H 	H 	0.755	0.963	0.3483	0.081
Mof_H 	H 	0.8668	0.9788	0.3463	0.043
Mof_H 	H 	0.6557	0.9453	0.1617	0.094
Mof_H 	H 	0.553	0.9546	0.167	0.048
Mof_H 	H 	0.5667	0.9639	0.35	0.048
Mof_H 	H 	0.6685	0.9557	0.3441	0.094
Mof_H 	H 	0.4579	0.9439	0.2243	0.054
Mof_H 	H 	0.4632	0.9414	0.297	0.057
Mof_H 	H 	0.5173	0.0653	0.2296	0.126
Mof_H 	H 	0.5122	0.0598	0.3026	0.13
Mof_H 	H 	0.4104	0.0538	0.1644	0.102
Mof_H 	H 	0.3072	0.0506	0.1685	0.011
Mof_H 	H 	0.2985	0.0253	0.3472	0.013
Mof_H 	H 	0.4078	0.0326	0.3474	0.108
Mof_H 	H 	0.2183	0.0733	0.1847	0.122
Mof_H 	H 	0.1047	0.0451	0.18	-0.004
Mof_H 	H 	0.0869	0.9539	0.3358	-0.021
Mof_H 	H 	0.1984	0.98	0.3361	0.104
Mof_H 	H 	0.0754	0.8176	0.4678	0.245
Mof_H 	H 	0.1355	0.8145	0.3939	0.037
Mof_H 	H 	0.1583	0.8931	0.391	0.023
Mof_H 	H 	0.1748	0.8584	0.4498	0.024
Mof_H 	H 	0.159	0.945	0.5781	0.249
Mof_H 	H 	0.1791	0.8785	0.627	0.042
Mof_H 	H 	0.1075	0.8819	0.637	0.02
Mof_H 	H 	0.1159	0.8245	0.5963	0.036
Mof_H 	H 	0.18	0.9882	0.4559	0.201
Mof_H 	H 	0.122	0.9946	0.4144	0.204
Mof_H 	H 	0.142	0.0522	0.6672	0.013
Mof_H 	H 	0.2478	0.0622	0.6659	0.098
Mof_H 	H 	0.245	0.037	0.8483	0.082
Mof_H 	H 	0.1332	0.0212	0.8463	0.044
Mof_H 	H 	0.3443	0.0547	0.6617	0.096
Mof_H 	H 	0.447	0.0454	0.667	0.049
Mof_H 	H 	0.4333	0.0361	0.85	0.05
Mof_H 	H 	0.3315	0.0443	0.8441	0.095
Mof_H 	H 	0.5421	0.0561	0.7243	0.054
Mof_H 	H 	0.5368	0.0586	0.797	0.056
Mof_H 	H 	0.4827	0.9347	0.7296	0.126
Mof_H 	H 	0.4878	0.9402	0.8026	0.131
Mof_H 	H 	0.5896	0.9462	0.6644	0.101
Mof_H 	H 	0.6928	0.9494	0.6685	0.013
Mof_H 	H 	0.7015	0.9747	0.8472	0.015
Mof_H 	H 	0.5922	0.9674	0.8474	0.107
Mof_H 	H 	0.7817	0.9267	0.6847	0.123
Mof_H 	H 	0.8953	0.9549	0.68	-0.003
Mof_H 	H 	0.9131	0.0461	0.8358	-0.02
Mof_H 	H 	0.8016	0.02	0.8361	0.102
Mof_H 	H 	0.8176	0.0754	0.4678	0.245
Mof_H 	H 	0.8145	0.1355	0.3939	0.037
Mof_H 	H 	0.8931	0.1583	0.391	0.023
Mof_H 	H 	0.8584	0.1748	0.4498	0.024
Mof_H 	H 	0.945	0.159	0.5781	0.249
Mof_H 	H 	0.8785	0.1791	0.627	0.042
Mof_H 	H 	0.8819	0.1075	0.637	0.02
Mof_H 	H 	0.8245	0.1159	0.5963	0.036
Mof_H 	H 	0.9882	0.18	0.4559	0.201
Mof_H 	H 	0.9946	0.122	0.4144	0.204
Mof_H 	H 	0.0522	0.142	0.6672	0.013
Mof_H 	H 	0.0622	0.2478	0.6659	0.098
Mof_H 	H 	0.037	0.245	0.8483	0.082
Mof_H 	H 	0.0212	0.1332	0.8463	0.044
Mof_H 	H 	0.0547	0.3443	0.6617	0.096
Mof_H 	H 	0.0454	0.447	0.667	0.049
Mof_H 	H 	0.0361	0.4333	0.85	0.05
Mof_H 	H 	0.0443	0.3315	0.8441	0.095
Mof_H 	H 	0.0561	0.5421	0.7243	0.054
Mof_H 	H 	0.0586	0.5368	0.797	0.056
Mof_H 	H 	0.9347	0.4827	0.7296	0.126
Mof_H 	H 	0.9402	0.4878	0.8026	0.131
Mof_H 	H 	0.9462	0.5896	0.6644	0.101
Mof_H 	H 	0.9494	0.6928	0.6685	0.013
Mof_H 	H 	0.9747	0.7015	0.8472	0.015
Mof_H 	H 	0.9674	0.5922	0.8474	0.107
Mof_H 	H 	0.9267	0.7817	0.6847	0.123
Mof_H 	H 	0.9549	0.8953	0.68	-0.003
Mof_H 	H 	0.0461	0.9131	0.8358	-0.02
Mof_H 	H 	0.02	0.8016	0.8361	0.102
Mof_H 	H 	0.1824	0.9246	0.9678	0.252
Mof_H 	H 	0.1855	0.8645	0.8939	0.041
Mof_H 	H 	0.1069	0.8417	0.891	0.026
Mof_H 	H 	0.1416	0.8252	0.9498	0.033
Mof_H 	H 	0.055	0.841	0.0781	0.251
Mof_H 	H 	0.1215	0.8209	0.127	0.036
Mof_H 	H 	0.1181	0.8925	0.137	0.015
Mof_H 	H 	0.1755	0.8841	0.0963	0.026
Mof_H 	H 	0.0118	0.82	0.9559	0.204
Mof_H 	H 	0.0054	0.878	0.9144	0.202
Mof_H 	H 	0.9478	0.858	0.1672	0.01
Mof_H 	H 	0.9378	0.7522	0.1659	0.095
Mof_H 	H 	0.963	0.755	0.3483	0.081
Mof_H 	H 	0.9788	0.8668	0.3463	0.043
Mof_H 	H 	0.9453	0.6557	0.1617	0.094
Mof_H 	H 	0.9546	0.553	0.167	0.048
Mof_H 	H 	0.9639	0.5667	0.35	0.048
Mof_H 	H 	0.9557	0.6685	0.3441	0.094
Mof_H 	H 	0.9439	0.4579	0.2243	0.054
Mof_H 	H 	0.9414	0.4632	0.297	0.057
Mof_H 	H 	0.0653	0.5173	0.2296	0.126
Mof_H 	H 	0.0598	0.5122	0.3026	0.13
Mof_H 	H 	0.0538	0.4104	0.1644	0.102
Mof_H 	H 	0.0506	0.3072	0.1685	0.011
Mof_H 	H 	0.0253	0.2985	0.3472	0.013
Mof_H 	H 	0.0326	0.4078	0.3474	0.108
Mof_H 	H 	0.0733	0.2183	0.1847	0.122
Mof_H 	H 	0.0451	0.1047	0.18	-0.004
Mof_H 	H 	0.9539	0.0869	0.3358	-0.021
Mof_H 	H 	0.98	0.1984	0.3361	0.104
Mof_C 	C 	0.8577	0.1455	0.9178	0
Mof_C 	C 	0.8639	0.1291	0.108	-0.003
Mof_C 	C 	0.8384	0.9516	0.205	0.102
Mof_C 	C 	0.7756	0.947	0.2034	-0.139
Mof_C 	C 	0.7433	0.9559	0.2565	0.05
Mof_C 	C 	0.7766	0.9626	0.3107	-0.095
Mof_C 	C 	0.8421	0.9689	0.3096	0.028
Mof_C 	C 	0.6744	0.9572	0.2599	0.074
Mof_C 	C 	0.6373	0.9513	0.1996	-0.116
Mof_C 	C 	0.5764	0.9552	0.2036	0.093
Mof_C 	C 	0.5854	0.961	0.3115	0.068
Mof_C 	C 	0.6463	0.9577	0.3072	-0.134
Mof_C 	C 	0.4853	0.9651	0.2599	0.018
Mof_C 	C 	0.4909	0.0397	0.2639	-0.246
Mof_C 	C 	0.4191	0.0391	0.261	0.17
Mof_C 	C 	0.3872	0.0468	0.202	-0.182
Mof_C 	C 	0.3265	0.0433	0.2053	0.092
Mof_C 	C 	0.2883	0.0305	0.2544	-0.126
Mof_C 	C 	0.3213	0.0293	0.3097	0.078
Mof_C 	C 	0.3868	0.0336	0.3096	-0.203
Mof_C 	C 	0.2155	0.0171	0.2527	0.2
Mof_C 	C 	0.1909	0.0439	0.2139	-0.237
Mof_C 	C 	0.1225	0.0301	0.2139	0.127
Mof_C 	C 	0.1122	0.9778	0.3024	0.128
Mof_C 	C 	0.1782	0.9904	0.3012	-0.22
Mof_C 	C 	0.1423	0.8545	0.4178	0.008
Mof_C 	C 	0.1361	0.8709	0.608	-0.017
Mof_C 	C 	0.1616	0.0484	0.705	0.103
Mof_C 	C 	0.2244	0.053	0.7034	-0.138
Mof_C 	C 	0.2567	0.0441	0.7565	0.051
Mof_C 	C 	0.2234	0.0374	0.8107	-0.095
Mof_C 	C 	0.1579	0.0311	0.8096	0.029
Mof_C 	C 	0.3256	0.0428	0.7599	0.074
Mof_C 	C 	0.3627	0.0487	0.6996	-0.115
Mof_C 	C 	0.4236	0.0448	0.7036	0.093
Mof_C 	C 	0.4146	0.039	0.8115	0.068
Mof_C 	C 	0.3537	0.0423	0.8072	-0.133
Mof_C 	C 	0.5147	0.0349	0.7599	0.02
Mof_C 	C 	0.5091	0.9603	0.7639	-0.247
Mof_C 	C 	0.5809	0.9609	0.761	0.169
Mof_C 	C 	0.6128	0.9532	0.702	-0.18
Mof_C 	C 	0.6735	0.9567	0.7053	0.09
Mof_C 	C 	0.7117	0.9695	0.7544	-0.123
Mof_C 	C 	0.6787	0.9707	0.8097	0.077
Mof_C 	C 	0.6132	0.9664	0.8096	-0.2
Mof_C 	C 	0.7845	0.9829	0.7527	0.195
Mof_C 	C 	0.8091	0.9561	0.7139	-0.233
Mof_C 	C 	0.8775	0.9699	0.7139	0.123
Mof_C 	C 	0.8878	0.0222	0.8024	0.126
Mof_C 	C 	0.8218	0.0096	0.8012	-0.215
Mof_C 	C 	0.8545	0.1423	0.4178	0.008
Mof_C 	C 	0.8709	0.1361	0.608	-0.017
Mof_C 	C 	0.0484	0.1616	0.705	0.103
Mof_C 	C 	0.053	0.2244	0.7034	-0.138
Mof_C 	C 	0.0441	0.2567	0.7565	0.051
Mof_C 	C 	0.0374	0.2234	0.8107	-0.095
Mof_C 	C 	0.0311	0.1579	0.8096	0.029
Mof_C 	C 	0.0428	0.3256	0.7599	0.074
Mof_C 	C 	0.0487	0.3627	0.6996	-0.115
Mof_C 	C 	0.0448	0.4236	0.7036	0.093
Mof_C 	C 	0.039	0.4146	0.8115	0.068
Mof_C 	C 	0.0423	0.3537	0.8072	-0.133
Mof_C 	C 	0.0349	0.5147	0.7599	0.02
Mof_C 	C 	0.9603	0.5091	0.7639	-0.247
Mof_C 	C 	0.9609	0.5809	0.761	0.169
Mof_C 	C 	0.9532	0.6128	0.702	-0.18
Mof_C 	C 	0.9567	0.6735	0.7053	0.09
Mof_C 	C 	0.9695	0.7117	0.7544	-0.123
Mof_C 	C 	0.9707	0.6787	0.8097	0.077
Mof_C 	C 	0.9664	0.6132	0.8096	-0.2
Mof_C 	C 	0.9829	0.7845	0.7527	0.195
Mof_C 	C 	0.9561	0.8091	0.7139	-0.233
Mof_C 	C 	0.9699	0.8775	0.7139	0.123
Mof_C 	C 	0.0222	0.8878	0.8024	0.126
Mof_C 	C 	0.0096	0.8218	0.8012	-0.215
Mof_C 	C 	0.1455	0.8577	0.9178	0
Mof_C 	C 	0.1291	0.8639	0.108	-0.003
Mof_C 	C 	0.9516	0.8384	0.205	0.102
Mof_C 	C 	0.947	0.7756	0.2034	-0.139
Mof_C 	C 	0.9559	0.7433	0.2565	0.05
Mof_C 	C 	0.9626	0.7766	0.3107	-0.095
Mof_C 	C 	0.9689	0.8421	0.3096	0.028
Mof_C 	C 	0.9572	0.6744	0.2599	0.074
Mof_C 	C 	0.9513	0.6373	0.1996	-0.116
Mof_C 	C 	0.9552	0.5764	0.2036	0.093
Mof_C 	C 	0.961	0.5854	0.3115	0.068
Mof_C 	C 	0.9577	0.6463	0.3072	-0.134
Mof_C 	C 	0.9651	0.4853	0.2599	0.018
Mof_C 	C 	0.0397	0.4909	0.2639	-0.246
Mof_C 	C 	0.0391	0.4191	0.261	0.17
Mof_C 	C 	0.0468	0.3872	0.202	-0.182
Mof_C 	C 	0.0433	0.3265	0.2053	0.092
Mof_C 	C 	0.0305	0.2883	0.2544	-0.126
Mof_C 	C 	0.0293	0.3213	0.3097	0.078
Mof_C 	C 	0.0336	0.3868	0.3096	-0.203
Mof_C 	C 	0.0171	0.2155	0.2527	0.2
Mof_C 	C 	0.0439	0.1909	0.2139	-0.237
Mof_C 	C 	0.0301	0.1225	0.2139	0.127
Mof_C 	C 	0.9778	0.1122	0.3024	0.128
Mof_C 	C 	0.9904	0.1782	0.3012	-0.22
Mof_S 	S 	0.9946	0.9946	0.0937	0.58
Mof_S 	S 	0.9916	0.9916	0.4154	1.022
Mof_S 	S 	0.0054	0.0054	0.5937	0.598
Mof_S 	S 	0.0084	0.0084	0.9154	1.011
Mof_N 	N 	0.8749	0.9607	0.2523	-0.231
Mof_N 	N 	0.5489	0.9597	0.2542	-0.119
Mof_N 	N 	0.08151	0.99809	0.2572	-0.26
Mof_N 	N 	0.1251	0.0393	0.7523	-0.231
Mof_N 	N 	0.4511	0.0403	0.7542	-0.119
Mof_N 	N 	0.91849	0.00191	0.7572	-0.258
Mof_N 	N 	0.0393	0.1251	0.7523	-0.231
Mof_N 	N 	0.0403	0.4511	0.7542	-0.119
Mof_N 	N 	0.00191	0.91849	0.7572	-0.258
Mof_N 	N 	0.9607	0.8749	0.2523	-0.231
Mof_N 	N 	0.9597	0.5489	0.2542	-0.119
Mof_N 	N 	0.99809	0.08151	0.2572	-0.26
Mof_O 	O 	0.9322	0.0048	0.0653	-0.404
Mof_O 	O 	0.0018	0.9386	0.445	-0.509
Mof_O 	O 	0.9187	0.1491	0.9449	-0.463
Mof_O 	O 	0.855	0.0886	0.055	-0.529
Mof_O 	O 	0.8615	0.0035	0.9562	-0.508
Mof_O 	O 	0.0678	0.9952	0.5653	-0.397
Mof_O 	O 	0.9982	0.0614	0.945	-0.494
Mof_O 	O 	0.0813	0.8509	0.4449	-0.47
Mof_O 	O 	0.145	0.9114	0.555	-0.51
Mof_O 	O 	0.1385	0.9965	0.4562	-0.522
Mof_O 	O 	0.9952	0.0678	0.5653	-0.397
Mof_O 	O 	0.0614	0.9982	0.945	-0.494
Mof_O 	O 	0.8509	0.0813	0.4449	-0.47
Mof_O 	O 	0.9114	0.145	0.555	-0.51
Mof_O 	O 	0.9965	0.1385	0.4562	-0.522
Mof_O 	O 	0.0048	0.9322	0.0653	-0.404
Mof_O 	O 	0.9386	0.0018	0.445	-0.509
Mof_O 	O 	0.1491	0.9187	0.9449	-0.463
Mof_O 	O 	0.0886	0.855	0.055	-0.529
Mof_O 	O 	0.0035	0.8615	0.9562	-0.508
Mof_O 	O 	0.9769	0.9769	0.1607	-0.417
Mof_O 	O 	0.0533	0.0533	0.0902	-0.319
Mof_O 	O 	0.0474	0.0474	0.4217	-0.401
Mof_O 	O 	0.9733	0.9733	0.3548	-0.541
Mof_O 	O 	0.0231	0.0231	0.6607	-0.418
Mof_O 	O 	0.9467	0.9467	0.5902	-0.319
Mof_O 	O 	0.9526	0.9526	0.9217	-0.39
Mof_O 	O 	0.0267	0.0267	0.8548	-0.538
Mof_H 	H 	0.9388	0.3594	0.0441	0.035
Mof_H 	H 	0.1362	0.4274	0.0156	0.019
Mof_H 	H 	0.1451	0.5289	0.0579	0.081
Mof_H 	H 	0.1444	0.6008	0.1335	0.024
Mof_H 	H 	0.1271	0.6255	0.0691	0.013
Mof_H 	H 	0.0588	0.6738	0.1253	0.072
Mof_H 	H 	0.1366	0.71	0.135	0.04
Mof_H 	H 	0.1704	0.6378	0.232	0.046
Mof_H 	H 	0.183	0.7146	0.2225	0.033
Mof_H 	H 	0.1021	0.6953	0.3094	0.054
Mof_H 	H 	0.1784	0.7102	0.3239	0.033
Mof_H 	H 	0.1672	0.6422	0.4121	0.035
Mof_H 	H 	0.0933	0.6419	0.4115	0.059
Mof_H 	H 	0.1105	0.5495	0.4648	0.039
Mof_H 	H 	0.1161	0.5217	0.3982	0.043
Mof_H 	H 	0.0807	0.4387	0.4781	0.062
Mof_H 	H 	0.9111	0.2797	0.4864	0.021
Mof_H 	H 	0.8549	0.3399	0.4384	0.083
Mof_H 	H 	0.8138	0.388	0.3889	0.03
Mof_H 	H 	0.8156	0.4324	0.4477	0.022
Mof_H 	H 	0.8314	0.524	0.3777	0.065
Mof_H 	H 	0.7594	0.4676	0.3758	0.044
Mof_H 	H 	0.746	0.5018	0.2837	0.038
Mof_H 	H 	0.8168	0.5434	0.2556	0.057
Mof_H 	H 	0.7457	0.4811	0.1784	0.034
Mof_H 	H 	0.7356	0.4146	0.2154	0.041
Mof_H 	H 	0.7744	0.4066	0.1078	0.03
Mof_H 	H 	0.8207	0.4811	0.0926	0.051
Mof_H 	H 	0.8645	0.4027	0.0531	0.017
Mof_H 	H 	0.8713	0.3801	0.1216	0.039
Mof_C 	C 	0.986	0.4542	0.072	0.025
Mof_C 	C 	0.9807	0.3939	0.0469	-0.016
Mof_C 	C 	0.0366	0.3838	0.0258	-0.124
Mof_C 	C 	0.098	0.4342	0.0299	0.059
Mof_C 	C 	0.1032	0.4946	0.0551	-0.162
Mof_C 	C 	0.0473	0.5045	0.0761	0.152
Mof_C 	C 	0.1106	0.6124	0.1109	0.039
Mof_C 	C 	0.0989	0.6685	0.1421	-0.036
Mof_C 	C 	0.1512	0.6724	0.238	-0.007
Mof_C 	C 	0.1385	0.6785	0.3044	-0.003
Mof_C 	C 	0.1218	0.6182	0.3972	-0.011
Mof_C 	C 	0.097	0.5492	0.4218	-0.003
Mof_C 	C 	0.0015	0.4545	0.4415	0.033
Mof_C 	C 	0.0349	0.4187	0.47	-0.035
Mof_C 	C 	0.0011	0.3535	0.4868	-0.088
Mof_C 	C 	0.934	0.3242	0.475	0.046
Mof_C 	C 	0.9008	0.36	0.4464	-0.156
Mof_C 	C 	0.9345	0.4251	0.4297	0.154
Mof_C 	C 	0.8311	0.4335	0.4052	0.036
Mof_C 	C 	0.8067	0.4773	0.3673	-0.032
Mof_C 	C 	0.7857	0.4983	0.2645	-0.011
Mof_C 	C 	0.7672	0.4596	0.2066	0.001
Mof_C 	C 	0.818	0.4412	0.1159	-0.014
Mof_C 	C 	0.8718	0.4178	0.096	0.01
Mof_S 	S 	0.03977	0.31043	0.9932	0.579
Mof_S 	S 	0.05213	0.31367	0.5196	0.529
Mof_O 	O 	0.0507	0.5573	0.1088	-0.21
Mof_O 	O 	0.0909	0.6555	0.2056	-0.157
Mof_O 	O 	0.1216	0.6158	0.3325	-0.175
Mof_O 	O 	0.0272	0.5228	0.4173	-0.166
Mof_O 	O 	0.9012	0.458	0.4039	-0.209
Mof_O 	O 	0.8155	0.4663	0.3047	-0.154
Mof_O 	O 	0.8248	0.4558	0.1791	-0.16
Mof_O 	O 	0.9334	0.4702	0.1016	-0.17
Mof_O 	O 	0.9779	0.2807	0.9642	-0.291
Mof_O 	O 	0.0956	0.3354	0.9553	-0.268
Mof_O 	O 	0.0492	0.2702	0.0442	-0.298
Mof_O 	O 	0.0688	0.2766	0.4733	-0.256
Mof_O 	O 	0.0106	0.2746	0.5638	-0.29
Mof_O 	O 	0.1106	0.3632	0.544	-0.254
Mof_H 	H 	0.0612	0.6406	0.5441	0.051
Mof_H 	H 	0.8638	0.5726	0.5156	0.039
Mof_H 	H 	0.8549	0.4711	0.5579	0.081
Mof_H 	H 	0.8556	0.3992	0.6335	0.028
Mof_H 	H 	0.8729	0.3745	0.5691	0.025
Mof_H 	H 	0.9412	0.3262	0.6253	0.074
Mof_H 	H 	0.8634	0.29	0.635	0.043
Mof_H 	H 	0.8296	0.3622	0.732	0.047
Mof_H 	H 	0.817	0.2854	0.7225	0.034
Mof_H 	H 	0.8979	0.3047	0.8094	0.055
Mof_H 	H 	0.8216	0.2898	0.8239	0.035
Mof_H 	H 	0.8328	0.3578	0.9121	0.041
Mof_H 	H 	0.9067	0.3581	0.9115	0.064
Mof_H 	H 	0.8895	0.4505	0.9648	0.052
Mof_H 	H 	0.8839	0.4783	0.8982	0.046
Mof_H 	H 	0.9193	0.5613	0.9781	0.085
Mof_H 	H 	0.0889	0.7203	0.9864	0.044
Mof_H 	H 	0.1451	0.6601	0.9384	0.078
Mof_H 	H 	0.1862	0.612	0.8889	0.034
Mof_H 	H 	0.1844	0.5676	0.9477	0.034
Mof_H 	H 	0.1686	0.476	0.8777	0.069
Mof_H 	H 	0.2406	0.5324	0.8758	0.049
Mof_H 	H 	0.254	0.4982	0.7837	0.041
Mof_H 	H 	0.1832	0.4566	0.7556	0.058
Mof_H 	H 	0.2543	0.5189	0.6784	0.039
Mof_H 	H 	0.2644	0.5854	0.7154	0.045
Mof_H 	H 	0.2256	0.5934	0.6078	0.037
Mof_H 	H 	0.1793	0.5189	0.5926	0.059
Mof_H 	H 	0.1355	0.5973	0.5531	0.028
Mof_H 	H 	0.1287	0.6199	0.6216	0.04
Mof_C 	C 	0.014	0.5458	0.572	0.046
Mof_C 	C 	0.0193	0.6061	0.5469	-0.033
Mof_C 	C 	0.9634	0.6162	0.5258	-0.076
Mof_C 	C 	0.902	0.5658	0.5299	0.037
Mof_C 	C 	0.8968	0.5054	0.5551	-0.14
Mof_C 	C 	0.9527	0.4955	0.5761	0.141
Mof_C 	C 	0.8894	0.3876	0.6109	0.033
Mof_C 	C 	0.9011	0.3315	0.6421	-0.034
Mof_C 	C 	0.8488	0.3276	0.738	-0.007
Mof_C 	C 	0.8615	0.3215	0.8044	-0.003
Mof_C 	C 	0.8782	0.3818	0.8972	-0.011
Mof_C 	C 	0.903	0.4508	0.9218	-0.006
Mof_C 	C 	0.9985	0.5455	0.9415	0.056
Mof_C 	C 	0.9651	0.5813	0.97	-0.065
Mof_C 	C 	0.9989	0.6465	0.9868	-0.019
Mof_C 	C 	0.066	0.6758	0.975	0.011
Mof_C 	C 	0.0992	0.64	0.9464	-0.125
Mof_C 	C 	0.0655	0.5749	0.9297	0.14
Mof_C 	C 	0.1689	0.5665	0.9052	0.03
Mof_C 	C 	0.1933	0.5227	0.8673	-0.03
Mof_C 	C 	0.2143	0.5017	0.7645	-0.011
Mof_C 	C 	0.2328	0.5404	0.7066	-0.001
Mof_C 	C 	0.182	0.5588	0.6159	-0.017
Mof_C 	C 	0.1282	0.5822	0.596	0.01
Mof_S 	S 	0.96023	0.68957	0.4932	0.5
Mof_S 	S 	0.94787	0.68633	0.0196	0.421
Mof_O 	O 	0.9493	0.4427	0.6088	-0.203
Mof_O 	O 	0.9091	0.3445	0.7056	-0.158
Mof_O 	O 	0.8784	0.3842	0.8325	-0.173
Mof_O 	O 	0.9728	0.4772	0.9173	-0.164
Mof_O 	O 	0.0988	0.542	0.9039	-0.2
Mof_O 	O 	0.1845	0.5337	0.8047	-0.154
Mof_O 	O 	0.1752	0.5442	0.6791	-0.158
Mof_O 	O 	0.0666	0.5298	0.6016	-0.168
Mof_O 	O 	0.0221	0.7193	0.4642	-0.286
Mof_O 	O 	0.9044	0.6646	0.4553	-0.265
Mof_O 	O 	0.9508	0.7298	0.5442	-0.261
Mof_O 	O 	0.9312	0.7234	0.9733	-0.207
Mof_O 	O 	0.9894	0.7254	0.0638	-0.279
Mof_O 	O 	0.8894	0.6368	0.044	-0.248
Mof_H 	H 	0.6406	0.0612	0.5441	0.051
Mof_H 	H 	0.5726	0.8638	0.5156	0.039
Mof_H 	H 	0.4711	0.8549	0.5579	0.081
Mof_H 	H 	0.3992	0.8556	0.6335	0.028
Mof_H 	H 	0.3745	0.8729	0.5691	0.025
Mof_H 	H 	0.3262	0.9412	0.6253	0.074
Mof_H 	H 	0.29	0.8634	0.635	0.043
Mof_H 	H 	0.3622	0.8296	0.732	0.047
Mof_H 	H 	0.2854	0.817	0.7225	0.034
Mof_H 	H 	0.3047	0.8979	0.8094	0.055
Mof_H 	H 	0.2898	0.8216	0.8239	0.035
Mof_H 	H 	0.3578	0.8328	0.9121	0.041
Mof_H 	H 	0.3581	0.9067	0.9115	0.064
Mof_H 	H 	0.4505	0.8895	0.9648	0.052
Mof_H 	H 	0.4783	0.8839	0.8982	0.046
Mof_H 	H 	0.5613	0.9193	0.9781	0.085
Mof_H 	H 	0.7203	0.0889	0.9864	0.044
Mof_H 	H 	0.6601	0.1451	0.9384	0.078
Mof_H 	H 	0.612	0.1862	0.8889	0.034
Mof_H 	H 	0.5676	0.1844	0.9477	0.034
Mof_H 	H 	0.476	0.1686	0.8777	0.069
Mof_H 	H 	0.5324	0.2406	0.8758	0.049
Mof_H 	H 	0.4982	0.254	0.7837	0.041
Mof_H 	H 	0.4566	0.1832	0.7556	0.058
Mof_H 	H 	0.5189	0.2543	0.6784	0.039
Mof_H 	H 	0.5854	0.2644	0.7154	0.045
Mof_H 	H 	0.5934	0.2256	0.6078	0.037
Mof_H 	H 	0.5189	0.1793	0.5926	0.059
Mof_H 	H 	0.5973	0.1355	0.5531	0.028
Mof_H 	H 	0.6199	0.1287	0.6216	0.04
Mof_C 	C 	0.5458	0.014	0.572	0.046
Mof_C 	C 	0.6061	0.0193	0.5469	-0.033
Mof_C 	C 	0.6162	0.9634	0.5258	-0.076
Mof_C 	C 	0.5658	0.902	0.5299	0.037
Mof_C 	C 	0.5054	0.8968	0.5551	-0.14
Mof_C 	C 	0.4955	0.9527	0.5761	0.141
Mof_C 	C 	0.3876	0.8894	0.6109	0.033
Mof_C 	C 	0.3315	0.9011	0.6421	-0.034
Mof_C 	C 	0.3276	0.8488	0.738	-0.007
Mof_C 	C 	0.3215	0.8615	0.8044	-0.003
Mof_C 	C 	0.3818	0.8782	0.8972	-0.011
Mof_C 	C 	0.4508	0.903	0.9218	-0.006
Mof_C 	C 	0.5455	0.9985	0.9415	0.056
Mof_C 	C 	0.5813	0.9651	0.97	-0.065
Mof_C 	C 	0.6465	0.9989	0.9868	-0.019
Mof_C 	C 	0.6758	0.066	0.975	0.011
Mof_C 	C 	0.64	0.0992	0.9464	-0.125
Mof_C 	C 	0.5749	0.0655	0.9297	0.14
Mof_C 	C 	0.5665	0.1689	0.9052	0.03
Mof_C 	C 	0.5227	0.1933	0.8673	-0.03
Mof_C 	C 	0.5017	0.2143	0.7645	-0.011
Mof_C 	C 	0.5404	0.2328	0.7066	-0.001
Mof_C 	C 	0.5588	0.182	0.6159	-0.017
Mof_C 	C 	0.5822	0.1282	0.596	0.01
Mof_S 	S 	0.68957	0.96023	0.4932	0.5
Mof_S 	S 	0.68633	0.94787	0.0196	0.421
Mof_O 	O 	0.4427	0.9493	0.6088	-0.203
Mof_O 	O 	0.3445	0.9091	0.7056	-0.158
Mof_O 	O 	0.3842	0.8784	0.8325	-0.173
Mof_O 	O 	0.4772	0.9728	0.9173	-0.164
Mof_O 	O 	0.542	0.0988	0.9039	-0.2
Mof_O 	O 	0.5337	0.1845	0.8047	-0.154
Mof_O 	O 	0.5442	0.1752	0.6791	-0.158
Mof_O 	O 	0.5298	0.0666	0.6016	-0.168
Mof_O 	O 	0.7193	0.0221	0.4642	-0.286
Mof_O 	O 	0.6646	0.9044	0.4553	-0.265
Mof_O 	O 	0.7298	0.9508	0.5442	-0.261
Mof_O 	O 	0.7234	0.9312	0.9733	-0.207
Mof_O 	O 	0.7254	0.9894	0.0638	-0.279
Mof_O 	O 	0.6368	0.8894	0.044	-0.248
Mof_H 	H 	0.3594	0.9388	0.0441	0.035
Mof_H 	H 	0.4274	0.1362	0.0156	0.019
Mof_H 	H 	0.5289	0.1451	0.0579	0.081
Mof_H 	H 	0.6008	0.1444	0.1335	0.024
Mof_H 	H 	0.6255	0.1271	0.0691	0.013
Mof_H 	H 	0.6738	0.0588	0.1253	0.072
Mof_H 	H 	0.71	0.1366	0.135	0.04
Mof_H 	H 	0.6378	0.1704	0.232	0.046
Mof_H 	H 	0.7146	0.183	0.2225	0.033
Mof_H 	H 	0.6953	0.1021	0.3094	0.054
Mof_H 	H 	0.7102	0.1784	0.3239	0.033
Mof_H 	H 	0.6422	0.1672	0.4121	0.035
Mof_H 	H 	0.6419	0.0933	0.4115	0.059
Mof_H 	H 	0.5495	0.1105	0.4648	0.039
Mof_H 	H 	0.5217	0.1161	0.3982	0.043
Mof_H 	H 	0.4387	0.0807	0.4781	0.062
Mof_H 	H 	0.2797	0.9111	0.4864	0.021
Mof_H 	H 	0.3399	0.8549	0.4384	0.083
Mof_H 	H 	0.388	0.8138	0.3889	0.03
Mof_H 	H 	0.4324	0.8156	0.4477	0.022
Mof_H 	H 	0.524	0.8314	0.3777	0.065
Mof_H 	H 	0.4676	0.7594	0.3758	0.044
Mof_H 	H 	0.5018	0.746	0.2837	0.038
Mof_H 	H 	0.5434	0.8168	0.2556	0.057
Mof_H 	H 	0.4811	0.7457	0.1784	0.034
Mof_H 	H 	0.4146	0.7356	0.2154	0.041
Mof_H 	H 	0.4066	0.7744	0.1078	0.03
Mof_H 	H 	0.4811	0.8207	0.0926	0.051
Mof_H 	H 	0.4027	0.8645	0.0531	0.017
Mof_H 	H 	0.3801	0.8713	0.1216	0.039
Mof_C 	C 	0.4542	0.986	0.072	0.025
Mof_C 	C 	0.3939	0.9807	0.0469	-0.016
Mof_C 	C 	0.3838	0.0366	0.0258	-0.124
Mof_C 	C 	0.4342	0.098	0.0299	0.059
Mof_C 	C 	0.4946	0.1032	0.0551	-0.162
Mof_C 	C 	0.5045	0.0473	0.0761	0.152
Mof_C 	C 	0.6124	0.1106	0.1109	0.039
Mof_C 	C 	0.6685	0.0989	0.1421	-0.036
Mof_C 	C 	0.6724	0.1512	0.238	-0.007
Mof_C 	C 	0.6785	0.1385	0.3044	-0.003
Mof_C 	C 	0.6182	0.1218	0.3972	-0.011
Mof_C 	C 	0.5492	0.097	0.4218	-0.003
Mof_C 	C 	0.4545	0.0015	0.4415	0.033
Mof_C 	C 	0.4187	0.0349	0.47	-0.035
Mof_C 	C 	0.3535	0.0011	0.4868	-0.088
Mof_C 	C 	0.3242	0.934	0.475	0.046
Mof_C 	C 	0.36	0.9008	0.4464	-0.156
Mof_C 	C 	0.4251	0.9345	0.4297	0.154
Mof_C 	C 	0.4335	0.8311	0.4052	0.036
Mof_C 	C 	0.4773	0.8067	0.3673	-0.032
Mof_C 	C 	0.4983	0.7857	0.2645	-0.011
Mof_C 	C 	0.4596	0.7672	0.2066	0.001
Mof_C 	C 	0.4412	0.818	0.1159	-0.014
Mof_C 	C 	0.4178	0.8718	0.096	0.01
Mof_S 	S 	0.31043	0.03977	0.9932	0.579
Mof_S 	S 	0.31367	0.05213	0.5196	0.529
Mof_O 	O 	0.5573	0.0507	0.1088	-0.21
Mof_O 	O 	0.6555	0.0909	0.2056	-0.157
Mof_O 	O 	0.6158	0.1216	0.3325	-0.175
Mof_O 	O 	0.5228	0.0272	0.4173	-0.166
Mof_O 	O 	0.458	0.9012	0.4039	-0.209
Mof_O 	O 	0.4663	0.8155	0.3047	-0.154
Mof_O 	O 	0.4558	0.8248	0.1791	-0.16
Mof_O 	O 	0.4702	0.9334	0.1016	-0.17
Mof_O 	O 	0.2807	0.9779	0.9642	-0.291
Mof_O 	O 	0.3354	0.0956	0.9553	-0.268
Mof_O 	O 	0.2702	0.0492	0.0442	-0.298
Mof_O 	O 	0.2766	0.0688	0.4733	-0.256
Mof_O 	O 	0.2746	0.0106	0.5638	-0.29
Mof_O 	O 	0.3632	0.1106	0.544	-0.254
_end
