data_functionalizedCrystal
_audit_creation_method	'EQeq! by Chris Wilmer'
_symmetry_space_group_name_H-M	'P1'
_symmetry_Int_Tables_number	1
_symmetry_cell_setting	triclinic
loop_
_symmetry_equiv_pos_as_xyz
  x,y,z
_cell_length_a	17.3655
_cell_length_b	17.3655
_cell_length_c	11.5508
_cell_angle_alpha	90
_cell_angle_beta	90
_cell_angle_gamma	90
loop_
_atom_site_label
_atom_site_type_symbol
_atom_site_fract_x
_atom_site_fract_y
_atom_site_fract_z
_atom_site_charge
Mof_N 	N 	0.16724	0.32986	0.1408	-0.115
Mof_N 	N 	0.1045	0.42141	0.0388	-0.179
Mof_N 	N 	0.17912	0.41082	0.862	-0.222
Mof_N 	N 	0.19738	0.33576	0.0314	-0.182
Mof_O 	O 	0.29064	0.24463	0.0572	-0.322
Mof_C 	C 	0.11265	0.38225	0.1389	0.092
Mof_H 	H 	0.0815	0.3918	0.2028	-0.004
Mof_C 	C 	0.2388	0.3702	0.818	0.421
Mof_C 	C 	0.2781	0.3134	0.8768	-0.468
Mof_H 	H 	0.3179	0.2874	0.8395	0.191
Mof_C 	C 	0.25981	0.29375	0.9907	0.372
Mof_C 	C 	0.2621	0.392	0.6965	-0.966
Mof_H 	H 	0.2233	0.3749	0.6431	0.32
Mof_H 	H 	0.3103	0.3679	0.6779	0.316
Mof_H 	H 	0.2674	0.4469	0.6913	0.319
Mof_C 	C 	0.16039	0.39193	0.9695	0.207
Mof_N 	N 	0.66724	0.82986	0.6408	-0.112
Mof_N 	N 	0.6045	0.92141	0.5388	-0.166
Mof_N 	N 	0.67912	0.91082	0.362	-0.216
Mof_N 	N 	0.69738	0.83576	0.5314	-0.166
Mof_O 	O 	0.79064	0.74463	0.5572	-0.305
Mof_C 	C 	0.61265	0.88225	0.6389	0.095
Mof_H 	H 	0.5815	0.8918	0.7028	0.003
Mof_C 	C 	0.7388	0.8702	0.318	0.411
Mof_C 	C 	0.7781	0.8134	0.3768	-0.453
Mof_H 	H 	0.8179	0.7874	0.3395	0.186
Mof_C 	C 	0.75981	0.79375	0.4907	0.346
Mof_C 	C 	0.7621	0.892	0.1965	-0.954
Mof_H 	H 	0.7233	0.8749	0.1431	0.315
Mof_H 	H 	0.8103	0.8679	0.1779	0.311
Mof_H 	H 	0.7674	0.9469	0.1913	0.315
Mof_C 	C 	0.66039	0.89193	0.4695	0.189
Mof_N 	N 	0.33276	0.67014	0.6408	-0.112
Mof_N 	N 	0.3955	0.57859	0.5388	-0.168
Mof_N 	N 	0.32088	0.58918	0.362	-0.216
Mof_N 	N 	0.30262	0.66424	0.5314	-0.166
Mof_O 	O 	0.20936	0.75537	0.5572	-0.307
Mof_C 	C 	0.38735	0.61775	0.6389	0.095
Mof_H 	H 	0.4185	0.6082	0.7028	0.001
Mof_C 	C 	0.2612	0.6298	0.318	0.408
Mof_C 	C 	0.2219	0.6866	0.3768	-0.45
Mof_H 	H 	0.1821	0.7126	0.3395	0.182
Mof_C 	C 	0.24019	0.70625	0.4907	0.344
Mof_C 	C 	0.2379	0.608	0.1965	-0.945
Mof_H 	H 	0.2767	0.6251	0.1431	0.312
Mof_H 	H 	0.1897	0.6321	0.1779	0.306
Mof_H 	H 	0.2326	0.5531	0.1913	0.31
Mof_C 	C 	0.33961	0.60807	0.4695	0.188
Mof_N 	N 	0.83276	0.17014	0.1408	-0.112
Mof_N 	N 	0.8955	0.07859	0.0388	-0.168
Mof_N 	N 	0.82088	0.08918	0.862	-0.22
Mof_N 	N 	0.80262	0.16424	0.0314	-0.178
Mof_O 	O 	0.70936	0.25537	0.0572	-0.319
Mof_C 	C 	0.88735	0.11775	0.1389	0.095
Mof_H 	H 	0.9185	0.1082	0.2028	0.005
Mof_C 	C 	0.7612	0.1298	0.818	0.419
Mof_C 	C 	0.7219	0.1866	0.8768	-0.464
Mof_H 	H 	0.6821	0.2126	0.8395	0.19
Mof_C 	C 	0.74019	0.20625	0.9907	0.368
Mof_C 	C 	0.7379	0.108	0.6965	-0.96
Mof_H 	H 	0.7767	0.1251	0.6431	0.319
Mof_H 	H 	0.6897	0.1321	0.6779	0.314
Mof_H 	H 	0.7326	0.0531	0.6913	0.314
Mof_C 	C 	0.83961	0.10807	0.9695	0.203
Mof_N 	N 	0.42014	0.41724	0.3908	-0.113
Mof_N 	N 	0.32859	0.3545	0.2888	-0.169
Mof_N 	N 	0.33918	0.42912	0.112	-0.216
Mof_N 	N 	0.41424	0.44738	0.2814	-0.165
Mof_O 	O 	0.50537	0.54064	0.3072	-0.306
Mof_C 	C 	0.36775	0.36265	0.3889	0.095
Mof_H 	H 	0.3582	0.3315	0.4528	0
Mof_C 	C 	0.3798	0.4888	0.068	0.39
Mof_C 	C 	0.4366	0.5281	0.1268	-0.442
Mof_H 	H 	0.4626	0.5679	0.0895	0.177
Mof_C 	C 	0.45625	0.50981	0.2407	0.34
Mof_C 	C 	0.358	0.5121	0.9465	-0.919
Mof_H 	H 	0.3751	0.4733	0.8931	0.309
Mof_H 	H 	0.3821	0.5603	0.9279	0.305
Mof_H 	H 	0.3031	0.5174	0.9413	0.308
Mof_C 	C 	0.35807	0.41039	0.2195	0.187
Mof_N 	N 	0.92014	0.91724	0.8908	-0.1
Mof_N 	N 	0.82859	0.8545	0.7888	-0.168
Mof_N 	N 	0.83918	0.92912	0.612	-0.224
Mof_N 	N 	0.91424	0.94738	0.7814	-0.166
Mof_O 	O 	0.00537	0.04064	0.8072	-0.331
Mof_C 	C 	0.86775	0.86265	0.8889	0.097
Mof_H 	H 	0.8582	0.8315	0.9528	0.007
Mof_C 	C 	0.8798	0.9888	0.568	0.461
Mof_C 	C 	0.9366	0.0281	0.6268	-0.497
Mof_H 	H 	0.9626	0.0679	0.5895	0.207
Mof_C 	C 	0.95625	0.00981	0.7407	0.383
Mof_C 	C 	0.858	0.0121	0.4465	-1.043
Mof_H 	H 	0.8751	0.9733	0.3931	0.35
Mof_H 	H 	0.8821	0.0603	0.4279	0.34
Mof_H 	H 	0.8031	0.0174	0.4413	0.338
Mof_C 	C 	0.85807	0.91039	0.7195	0.194
Mof_N 	N 	0.07986	0.58276	0.8908	-0.111
Mof_N 	N 	0.17141	0.6455	0.7888	-0.168
Mof_N 	N 	0.16082	0.57088	0.612	-0.215
Mof_N 	N 	0.08576	0.55262	0.7814	-0.162
Mof_O 	O 	0.99463	0.45936	0.8072	-0.272
Mof_C 	C 	0.13225	0.63735	0.8889	0.093
Mof_H 	H 	0.1418	0.6685	0.9528	0.004
Mof_C 	C 	0.1202	0.5112	0.568	0.397
Mof_C 	C 	0.0634	0.4719	0.6268	-0.434
Mof_H 	H 	0.0374	0.4321	0.5895	0.171
Mof_C 	C 	0.04375	0.49019	0.7407	0.31
Mof_C 	C 	0.142	0.4879	0.4465	-0.937
Mof_H 	H 	0.1249	0.5267	0.3931	0.309
Mof_H 	H 	0.1179	0.4397	0.4279	0.304
Mof_H 	H 	0.1969	0.4826	0.4413	0.309
Mof_C 	C 	0.14193	0.58961	0.7195	0.185
Mof_N 	N 	0.57986	0.08276	0.3908	-0.113
Mof_N 	N 	0.67141	0.1455	0.2888	-0.169
Mof_N 	N 	0.66082	0.07088	0.112	-0.21
Mof_N 	N 	0.58576	0.05262	0.2814	-0.167
Mof_O 	O 	0.49463	0.95936	0.3072	-0.302
Mof_C 	C 	0.63225	0.13735	0.3889	0.094
Mof_H 	H 	0.6418	0.1685	0.4528	0
Mof_C 	C 	0.6202	0.0112	0.068	0.356
Mof_C 	C 	0.5634	0.9719	0.1268	-0.418
Mof_H 	H 	0.5374	0.9321	0.0895	0.169
Mof_C 	C 	0.54375	0.99019	0.2407	0.336
Mof_C 	C 	0.642	0.9879	0.9465	-0.833
Mof_H 	H 	0.6249	0.0267	0.8931	0.277
Mof_H 	H 	0.6179	0.9397	0.9279	0.282
Mof_H 	H 	0.6969	0.9826	0.9413	0.286
Mof_C 	C 	0.64193	0.08961	0.2195	0.185
Mof_N 	N 	0.83276	0.67014	0.8592	-0.112
Mof_N 	N 	0.8955	0.57859	0.9612	-0.152
Mof_N 	N 	0.82088	0.58918	0.138	-0.212
Mof_N 	N 	0.80262	0.66424	0.9686	-0.15
Mof_O 	O 	0.70936	0.75537	0.9428	-0.288
Mof_C 	C 	0.88735	0.61775	0.8611	0.097
Mof_H 	H 	0.9185	0.6082	0.7972	0.006
Mof_C 	C 	0.7612	0.6298	0.182	0.403
Mof_C 	C 	0.7219	0.6866	0.1232	-0.437
Mof_H 	H 	0.6821	0.7126	0.1605	0.177
Mof_C 	C 	0.74019	0.70625	0.0093	0.314
Mof_C 	C 	0.7379	0.608	0.3035	-0.946
Mof_H 	H 	0.7767	0.6251	0.3569	0.316
Mof_H 	H 	0.6897	0.6321	0.3221	0.309
Mof_H 	H 	0.7326	0.5531	0.3087	0.312
Mof_C 	C 	0.83961	0.60807	0.0305	0.17
Mof_N 	N 	0.33276	0.17014	0.3592	-0.113
Mof_N 	N 	0.3955	0.07859	0.4612	-0.169
Mof_N 	N 	0.32088	0.08918	0.638	-0.218
Mof_N 	N 	0.30262	0.16424	0.4686	-0.166
Mof_O 	O 	0.20936	0.25537	0.4428	-0.308
Mof_C 	C 	0.38735	0.11775	0.3611	0.094
Mof_H 	H 	0.4185	0.1082	0.2972	-0.002
Mof_C 	C 	0.2612	0.1298	0.682	0.412
Mof_C 	C 	0.2219	0.1866	0.6232	-0.453
Mof_H 	H 	0.1821	0.2126	0.6605	0.183
Mof_C 	C 	0.24019	0.20625	0.5093	0.344
Mof_C 	C 	0.2379	0.108	0.8035	-0.956
Mof_H 	H 	0.2767	0.1251	0.8569	0.319
Mof_H 	H 	0.1897	0.1321	0.8221	0.313
Mof_H 	H 	0.2326	0.0531	0.8087	0.313
Mof_C 	C 	0.33961	0.10807	0.5305	0.187
Mof_N 	N 	0.66724	0.32986	0.3592	-0.113
Mof_N 	N 	0.6045	0.42141	0.4612	-0.169
Mof_N 	N 	0.67912	0.41082	0.638	-0.218
Mof_N 	N 	0.69738	0.33576	0.4686	-0.167
Mof_O 	O 	0.79064	0.24463	0.4428	-0.306
Mof_C 	C 	0.61265	0.38225	0.3611	0.095
Mof_H 	H 	0.5815	0.3918	0.2972	-0.001
Mof_C 	C 	0.7388	0.3702	0.682	0.417
Mof_C 	C 	0.7781	0.3134	0.6232	-0.456
Mof_H 	H 	0.8179	0.2874	0.6605	0.188
Mof_C 	C 	0.75981	0.29375	0.5093	0.347
Mof_C 	C 	0.7621	0.392	0.8035	-0.969
Mof_H 	H 	0.7233	0.3749	0.8569	0.324
Mof_H 	H 	0.8103	0.3679	0.8221	0.32
Mof_H 	H 	0.7674	0.4469	0.8087	0.32
Mof_C 	C 	0.66039	0.39193	0.5305	0.188
Mof_N 	N 	0.16724	0.82986	0.8592	-0.113
Mof_N 	N 	0.1045	0.92141	0.9612	-0.153
Mof_N 	N 	0.17912	0.91082	0.138	-0.212
Mof_N 	N 	0.19738	0.83576	0.9686	-0.146
Mof_O 	O 	0.29064	0.74463	0.9428	-0.286
Mof_C 	C 	0.11265	0.88225	0.8611	0.096
Mof_H 	H 	0.0815	0.8918	0.7972	-0.001
Mof_C 	C 	0.2388	0.8702	0.182	0.401
Mof_C 	C 	0.2781	0.8134	0.1232	-0.435
Mof_H 	H 	0.3179	0.7874	0.1605	0.177
Mof_C 	C 	0.25981	0.79375	0.0093	0.309
Mof_C 	C 	0.2621	0.892	0.3035	-0.949
Mof_H 	H 	0.2233	0.8749	0.3569	0.316
Mof_H 	H 	0.3103	0.8679	0.3221	0.31
Mof_H 	H 	0.2674	0.9469	0.3087	0.315
Mof_C 	C 	0.16039	0.89193	0.0305	0.161
Mof_N 	N 	0.57986	0.58276	0.6092	-0.113
Mof_N 	N 	0.67141	0.6455	0.7112	-0.168
Mof_N 	N 	0.66082	0.57088	0.888	-0.218
Mof_N 	N 	0.58576	0.55262	0.7186	-0.167
Mof_O 	O 	0.49463	0.45936	0.6928	-0.307
Mof_C 	C 	0.63225	0.63735	0.6111	0.095
Mof_H 	H 	0.6418	0.6685	0.5472	0
Mof_C 	C 	0.6202	0.5112	0.932	0.434
Mof_C 	C 	0.5634	0.4719	0.8732	-0.464
Mof_H 	H 	0.5374	0.4321	0.9105	0.192
Mof_C 	C 	0.54375	0.49019	0.7593	0.35
Mof_C 	C 	0.642	0.4879	0.0535	-0.994
Mof_H 	H 	0.6249	0.5267	0.1069	0.327
Mof_H 	H 	0.6179	0.4397	0.0721	0.321
Mof_H 	H 	0.6969	0.4826	0.0587	0.323
Mof_C 	C 	0.64193	0.58961	0.7805	0.189
Mof_N 	N 	0.07986	0.08276	0.1092	-0.117
Mof_N 	N 	0.17141	0.1455	0.2112	-0.169
Mof_N 	N 	0.16082	0.07088	0.388	-0.208
Mof_N 	N 	0.08576	0.05262	0.2186	-0.164
Mof_O 	O 	0.99463	0.95936	0.1928	-0.273
Mof_C 	C 	0.13225	0.13735	0.1111	0.092
Mof_H 	H 	0.1418	0.1685	0.0472	-0.004
Mof_C 	C 	0.1202	0.0112	0.432	0.354
Mof_C 	C 	0.0634	0.9719	0.3732	-0.402
Mof_H 	H 	0.0374	0.9321	0.4105	0.161
Mof_C 	C 	0.04375	0.99019	0.2593	0.304
Mof_C 	C 	0.142	0.9879	0.5535	-0.847
Mof_H 	H 	0.1249	0.0267	0.6069	0.277
Mof_H 	H 	0.1179	0.9397	0.5721	0.28
Mof_H 	H 	0.1969	0.9826	0.5587	0.286
Mof_C 	C 	0.14193	0.08961	0.2805	0.181
Mof_N 	N 	0.92014	0.41724	0.1092	-0.106
Mof_N 	N 	0.82859	0.3545	0.2112	-0.169
Mof_N 	N 	0.83918	0.42912	0.388	-0.22
Mof_N 	N 	0.91424	0.44738	0.2186	-0.169
Mof_O 	O 	0.00537	0.54064	0.1928	-0.334
Mof_C 	C 	0.86775	0.36265	0.1111	0.095
Mof_H 	H 	0.8582	0.3315	0.0472	-0
Mof_C 	C 	0.8798	0.4888	0.432	0.428
Mof_C 	C 	0.9366	0.5281	0.3732	-0.473
Mof_H 	H 	0.9626	0.5679	0.4105	0.199
Mof_C 	C 	0.95625	0.50981	0.2593	0.383
Mof_C 	C 	0.858	0.5121	0.5535	-0.977
Mof_H 	H 	0.8751	0.4733	0.6069	0.327
Mof_H 	H 	0.8821	0.5603	0.5721	0.322
Mof_H 	H 	0.8031	0.5174	0.5587	0.321
Mof_C 	C 	0.85807	0.41039	0.2805	0.191
Mof_N 	N 	0.42014	0.91724	0.6092	-0.11
Mof_N 	N 	0.32859	0.8545	0.7112	-0.168
Mof_N 	N 	0.33918	0.92912	0.888	-0.223
Mof_N 	N 	0.41424	0.94738	0.7186	-0.164
Mof_O 	O 	0.50537	0.04064	0.6928	-0.31
Mof_C 	C 	0.36775	0.86265	0.6111	0.096
Mof_H 	H 	0.3582	0.8315	0.5472	0.001
Mof_C 	C 	0.3798	0.9888	0.932	0.477
Mof_C 	C 	0.4366	0.0281	0.8732	-0.499
Mof_H 	H 	0.4626	0.0679	0.9105	0.202
Mof_C 	C 	0.45625	0.00981	0.7593	0.354
Mof_C 	C 	0.358	0.0121	0.0535	-1.066
Mof_H 	H 	0.3751	0.9733	0.1069	0.351
Mof_H 	H 	0.3821	0.0603	0.0721	0.341
Mof_H 	H 	0.3031	0.0174	0.0587	0.343
Mof_C 	C 	0.35807	0.91039	0.7805	0.193
Mof_Cd	Cd	-3.62355e-33	0.5	-0	0.385
Mof_Cd	Cd	0.5	0	0.5	0.413
Mof_Cd	Cd	0.5	0.5	0.5	0.421
Mof_Cd	Cd	-0	0	-0	0.381
Mof_Cd	Cd	0.25	0.25	0.25	0.419
Mof_Cd	Cd	0.25	0.75	0.75	0.421
Mof_Cd	Cd	0.75	0.75	0.75	0.423
Mof_Cd	Cd	0.75	0.25	0.25	0.421
_end
