data_functionalizedCrystal
_audit_creation_method	'EQeq! by Chris Wilmer'
_symmetry_space_group_name_H-M	'P1'
_symmetry_Int_Tables_number	1
_symmetry_cell_setting	triclinic
loop_
_symmetry_equiv_pos_as_xyz
  x,y,z
_cell_length_a	33.32
_cell_length_b	33.32
_cell_length_c	9.2856
_cell_angle_alpha	90
_cell_angle_beta	90
_cell_angle_gamma	120
loop_
_atom_site_label
_atom_site_type_symbol
_atom_site_fract_x
_atom_site_fract_y
_atom_site_fract_z
_atom_site_charge
Mof_C 	C 	0.46959	0.92887	0.197	-0.144
Mof_C 	C 	0.43439	0.91839	0.2993	0.114
Mof_C 	C 	0.39775	0.92248	0.4916	0.114
Mof_C 	C 	0.38881	0.93767	0.6226	-0.148
Mof_C 	C 	0.38591	0.88376	0.2836	-0.085
Mof_H 	H 	0.3726	0.8636	0.2063	0.062
Mof_C 	C 	0.51606	0.966	0.2049	0.107
Mof_C 	C 	0.58041	0.02628	0.2874	0.11
Mof_C 	C 	0.45694	0.89724	0.0706	0.152
Mof_C 	C 	0.36355	0.88609	0.4015	-0.088
Mof_H 	H 	0.3321	0.8677	0.4211	0.067
Mof_C 	C 	0.55346	0.97201	0.1113	-0.077
Mof_H 	H 	0.5511	0.954	0.0317	0.058
Mof_C 	C 	0.45762	0.91253	0.9317	-0.209
Mof_H 	H 	0.4671	0.9435	0.9146	0.105
Mof_C 	C 	0.59282	0.00934	0.1629	-0.1
Mof_H 	H 	0.6224	0.0216	0.1243	0.063
Mof_C 	C 	0.44291	0.8507	0.0876	-0.204
Mof_H 	H 	0.4417	0.8387	0.1789	0.101
Mof_C 	C 	0.43082	0.82253	0.9687	0.107
Mof_H 	H 	0.4219	0.7915	0.9821	-0.001
Mof_C 	C 	0.44442	0.88216	0.8202	0.113
Mof_H 	H 	0.4445	0.8932	0.7281	-0.005
Mof_C 	C 	0.33819	0.91307	0.6659	0.161
Mof_C 	C 	0.30726	0.92385	0.6029	-0.219
Mof_H 	H 	0.3173	0.9471	0.5337	0.105
Mof_C 	C 	0.32136	0.8787	0.7693	-0.216
Mof_H 	H 	0.3409	0.8705	0.8161	0.111
Mof_C 	C 	0.26138	0.89992	0.6432	0.125
Mof_H 	H 	0.241	0.9075	0.599	-0.017
Mof_C 	C 	0.27463	0.85679	0.8011	0.13
Mof_H 	H 	0.2634	0.8333	0.8698	-0.017
Mof_N 	N 	0.44029	0.94077	0.4266	-0.215
Mof_N 	N 	0.53341	0.99965	0.3081	-0.211
Mof_N 	N 	0.24479	0.8667	0.7414	-0.202
Mof_N 	N 	0.43125	0.83725	0.8352	-0.145
Mof_C 	C 	0.53041	0.07113	0.803	-0.147
Mof_C 	C 	0.56561	0.08161	0.7007	0.114
Mof_C 	C 	0.60225	0.07752	0.5084	0.113
Mof_C 	C 	0.61119	0.06233	0.3774	-0.148
Mof_C 	C 	0.61409	0.11624	0.7164	-0.085
Mof_H 	H 	0.6274	0.1364	0.7937	0.063
Mof_C 	C 	0.48394	0.034	0.7951	0.112
Mof_C 	C 	0.41959	0.97372	0.7126	0.115
Mof_C 	C 	0.54306	0.10276	0.9294	0.153
Mof_C 	C 	0.63645	0.11391	0.5985	-0.087
Mof_H 	H 	0.6679	0.1323	0.5789	0.068
Mof_C 	C 	0.44654	0.02799	0.8887	-0.098
Mof_H 	H 	0.4489	0.046	0.9683	0.065
Mof_C 	C 	0.54238	0.08747	0.0683	-0.208
Mof_H 	H 	0.5329	0.0565	0.0854	0.104
Mof_C 	C 	0.40718	0.99066	0.8371	-0.079
Mof_H 	H 	0.3776	0.9784	0.8757	0.06
Mof_C 	C 	0.55709	0.1493	0.9124	-0.203
Mof_H 	H 	0.5583	0.1613	0.8211	0.102
Mof_C 	C 	0.56918	0.17747	0.0313	0.108
Mof_H 	H 	0.5781	0.2085	0.0179	0
Mof_C 	C 	0.55558	0.11784	0.1798	0.114
Mof_H 	H 	0.5555	0.1068	0.2719	-0.004
Mof_C 	C 	0.66181	0.08693	0.3341	0.161
Mof_C 	C 	0.69274	0.07615	0.3971	-0.218
Mof_H 	H 	0.6827	0.0529	0.4663	0.104
Mof_C 	C 	0.67864	0.1213	0.2307	-0.216
Mof_H 	H 	0.6591	0.1295	0.1839	0.11
Mof_C 	C 	0.73862	0.10008	0.3568	0.124
Mof_H 	H 	0.759	0.0925	0.401	-0.018
Mof_C 	C 	0.72537	0.14321	0.1989	0.129
Mof_H 	H 	0.7366	0.1667	0.1302	-0.017
Mof_N 	N 	0.55971	0.05923	0.5734	-0.217
Mof_N 	N 	0.46659	0.00035	0.6919	-0.219
Mof_N 	N 	0.75521	0.1333	0.2586	-0.202
Mof_N 	N 	0.56875	0.16275	0.1648	-0.145
Mof_Mn	Mn	0.5	2.82748e-33	0.5	0.764
Mof_C 	C 	0.13626	0.2622	0.53033	-0.144
Mof_C 	C 	0.10106	0.25172	0.63263	0.112
Mof_C 	C 	0.06442	0.25581	0.82493	0.115
Mof_C 	C 	0.05548	0.271	0.95593	-0.141
Mof_C 	C 	0.05258	0.21709	0.61693	-0.078
Mof_H 	H 	0.03927	0.19693	0.53963	0.059
Mof_C 	C 	0.18273	0.29933	0.53823	0.11
Mof_C 	C 	0.24708	0.35961	0.62073	0.113
Mof_C 	C 	0.12361	0.23057	0.40393	0.153
Mof_C 	C 	0.03022	0.21942	0.73483	-0.101
Mof_H 	H 	0.99877	0.20103	0.75443	0.077
Mof_C 	C 	0.22013	0.30534	0.44463	-0.087
Mof_H 	H 	0.21777	0.28733	0.36503	0.062
Mof_C 	C 	0.12429	0.24586	0.26503	-0.208
Mof_H 	H 	0.13377	0.27683	0.24793	0.105
Mof_C 	C 	0.25949	0.34267	0.49623	-0.089
Mof_H 	H 	0.28907	0.35493	0.45763	0.062
Mof_C 	C 	0.10958	0.18403	0.42093	-0.203
Mof_H 	H 	0.10837	0.17203	0.51223	0.101
Mof_C 	C 	0.09749	0.15586	0.30203	0.108
Mof_H 	H 	0.08857	0.12483	0.31543	-0.001
Mof_C 	C 	0.11109	0.21549	0.15353	0.114
Mof_H 	H 	0.11117	0.22653	0.06143	-0.004
Mof_C 	C 	0.00486	0.2464	0.99923	0.135
Mof_C 	C 	0.97393	0.25718	0.93623	-0.197
Mof_H 	H 	0.98397	0.28043	0.86703	0.1
Mof_C 	C 	0.98803	0.21203	0.10263	-0.183
Mof_H 	H 	0.00757	0.20383	0.14943	0.095
Mof_C 	C 	0.92805	0.23325	0.97653	0.114
Mof_H 	H 	0.90767	0.24083	0.93233	-0.013
Mof_C 	C 	0.9413	0.19012	0.13443	0.113
Mof_H 	H 	0.93007	0.16663	0.20313	-0.011
Mof_N 	N 	0.10696	0.2741	0.75993	-0.217
Mof_N 	N 	0.20008	0.33298	0.64143	-0.216
Mof_N 	N 	0.91146	0.20003	0.07473	-0.196
Mof_N 	N 	0.09792	0.17058	0.16853	-0.146
Mof_C 	C 	0.19708	0.40446	0.13633	-0.145
Mof_C 	C 	0.23228	0.41494	0.03403	0.115
Mof_C 	C 	0.26892	0.41085	0.84173	0.114
Mof_C 	C 	0.27786	0.39566	0.71073	-0.148
Mof_C 	C 	0.28076	0.44957	0.04973	-0.085
Mof_H 	H 	0.29407	0.46973	0.12703	0.063
Mof_C 	C 	0.15061	0.36733	0.12843	0.111
Mof_C 	C 	0.08626	0.30705	0.04593	0.11
Mof_C 	C 	0.20973	0.43609	0.26273	0.153
Mof_C 	C 	0.30312	0.44724	0.93183	-0.087
Mof_H 	H 	0.33457	0.46563	0.91223	0.068
Mof_C 	C 	0.11321	0.36132	0.22203	-0.089
Mof_H 	H 	0.11557	0.37933	0.30163	0.062
Mof_C 	C 	0.20905	0.4208	0.40163	-0.208
Mof_H 	H 	0.19957	0.38983	0.41873	0.105
Mof_C 	C 	0.07385	0.32399	0.17043	-0.087
Mof_H 	H 	0.04427	0.31173	0.20903	0.06
Mof_C 	C 	0.22376	0.48263	0.24573	-0.203
Mof_H 	H 	0.22497	0.49463	0.15443	0.102
Mof_C 	C 	0.23585	0.5108	0.36463	0.108
Mof_H 	H 	0.24477	0.54183	0.35123	0
Mof_C 	C 	0.22225	0.45117	0.51313	0.114
Mof_H 	H 	0.22217	0.44013	0.60523	-0.004
Mof_C 	C 	0.32848	0.42026	0.66743	0.161
Mof_C 	C 	0.35941	0.40948	0.73043	-0.218
Mof_H 	H 	0.34937	0.38623	0.79963	0.105
Mof_C 	C 	0.34531	0.45463	0.56403	-0.216
Mof_H 	H 	0.32577	0.46283	0.51723	0.111
Mof_C 	C 	0.40529	0.43341	0.69013	0.125
Mof_H 	H 	0.42567	0.42583	0.73433	-0.017
Mof_C 	C 	0.39204	0.47654	0.53223	0.13
Mof_H 	H 	0.40327	0.50003	0.46353	-0.017
Mof_N 	N 	0.22638	0.39256	0.90673	-0.217
Mof_N 	N 	0.13326	0.33368	0.02523	-0.216
Mof_N 	N 	0.42188	0.46663	0.59193	-0.202
Mof_N 	N 	0.23542	0.49608	0.49813	-0.145
Mof_Mn	Mn	0.16667	0.33333	0.83333	0.772
Mof_C 	C 	0.80292	0.59554	0.86367	-0.145
Mof_C 	C 	0.76772	0.58506	0.96597	0.115
Mof_C 	C 	0.73108	0.58915	0.15827	0.114
Mof_C 	C 	0.72214	0.60434	0.28927	-0.148
Mof_C 	C 	0.71924	0.55043	0.95027	-0.085
Mof_H 	H 	0.70593	0.53027	0.87297	0.063
Mof_C 	C 	0.84939	0.63267	0.87157	0.11
Mof_C 	C 	0.91374	0.69295	0.95407	0.116
Mof_C 	C 	0.79027	0.56391	0.73727	0.153
Mof_C 	C 	0.69688	0.55276	0.06817	-0.087
Mof_H 	H 	0.66543	0.53437	0.08777	0.068
Mof_C 	C 	0.88679	0.63868	0.77797	-0.086
Mof_H 	H 	0.88443	0.62067	0.69837	0.062
Mof_C 	C 	0.79095	0.5792	0.59837	-0.208
Mof_H 	H 	0.80043	0.61017	0.58127	0.105
Mof_C 	C 	0.92615	0.67601	0.82957	-0.091
Mof_H 	H 	0.95573	0.68827	0.79097	0.064
Mof_C 	C 	0.77624	0.51737	0.75427	-0.203
Mof_H 	H 	0.77503	0.50537	0.84557	0.102
Mof_C 	C 	0.76415	0.4892	0.63537	0.108
Mof_H 	H 	0.75523	0.45817	0.64877	0
Mof_C 	C 	0.77775	0.54883	0.48687	0.114
Mof_H 	H 	0.77783	0.55987	0.39477	-0.004
Mof_C 	C 	0.67152	0.57974	0.33257	0.161
Mof_C 	C 	0.64059	0.59052	0.26957	-0.218
Mof_H 	H 	0.65063	0.61377	0.20037	0.105
Mof_C 	C 	0.65469	0.54537	0.43597	-0.216
Mof_H 	H 	0.67423	0.53717	0.48277	0.111
Mof_C 	C 	0.59471	0.56659	0.30987	0.125
Mof_H 	H 	0.57433	0.57417	0.26567	-0.017
Mof_C 	C 	0.60796	0.52346	0.46777	0.13
Mof_H 	H 	0.59673	0.49997	0.53647	-0.017
Mof_N 	N 	0.77362	0.60744	0.09327	-0.217
Mof_N 	N 	0.86674	0.66632	0.97477	-0.217
Mof_N 	N 	0.57812	0.53337	0.40807	-0.202
Mof_N 	N 	0.76458	0.50392	0.50187	-0.145
Mof_C 	C 	0.86374	0.7378	0.46967	-0.146
Mof_C 	C 	0.89894	0.74828	0.36737	0.117
Mof_C 	C 	0.93558	0.74419	0.17507	0.113
Mof_C 	C 	0.94452	0.729	0.04407	-0.154
Mof_C 	C 	0.94742	0.78291	0.38307	-0.091
Mof_H 	H 	0.96073	0.80307	0.46037	0.067
Mof_C 	C 	0.81727	0.70067	0.46177	0.11
Mof_C 	C 	0.75292	0.64039	0.37927	0.113
Mof_C 	C 	0.87639	0.76943	0.59607	0.154
Mof_C 	C 	0.96978	0.78058	0.26517	-0.074
Mof_H 	H 	0.00123	0.79897	0.24557	0.06
Mof_C 	C 	0.77987	0.69466	0.55537	-0.088
Mof_H 	H 	0.78223	0.71267	0.63497	0.062
Mof_C 	C 	0.87571	0.75414	0.73497	-0.209
Mof_H 	H 	0.86623	0.72317	0.75207	0.105
Mof_C 	C 	0.74051	0.65733	0.50377	-0.089
Mof_H 	H 	0.71093	0.64507	0.54237	0.062
Mof_C 	C 	0.89042	0.81597	0.57907	-0.203
Mof_H 	H 	0.89163	0.82797	0.48777	0.103
Mof_C 	C 	0.90251	0.84414	0.69797	0.108
Mof_H 	H 	0.91143	0.87517	0.68457	0.001
Mof_C 	C 	0.88891	0.78451	0.84647	0.114
Mof_H 	H 	0.88883	0.77347	0.93857	-0.004
Mof_C 	C 	0.99514	0.7536	0.00077	0.187
Mof_C 	C 	0.02607	0.74282	0.06377	-0.24
Mof_H 	H 	0.01603	0.71957	0.13297	0.111
Mof_C 	C 	0.01197	0.78797	0.89737	-0.249
Mof_H 	H 	0.99243	0.79617	0.85057	0.126
Mof_C 	C 	0.07195	0.76675	0.02347	0.136
Mof_H 	H 	0.09233	0.75917	0.06767	-0.021
Mof_C 	C 	0.0587	0.80988	0.86557	0.146
Mof_H 	H 	0.06993	0.83337	0.79687	-0.023
Mof_N 	N 	0.89304	0.7259	0.24007	-0.218
Mof_N 	N 	0.79992	0.66702	0.35857	-0.216
Mof_N 	N 	0.08854	0.79997	0.92527	-0.207
Mof_N 	N 	0.90208	0.82942	0.83147	-0.144
Mof_Mn	Mn	0.83333	0.66667	0.16667	0.772
Mof_C 	C 	0.07113	0.54072	0.197	-0.147
Mof_C 	C 	0.08161	0.516	0.2993	0.114
Mof_C 	C 	0.07752	0.47527	0.4916	0.113
Mof_C 	C 	0.06233	0.45114	0.6226	-0.148
Mof_C 	C 	0.11624	0.50215	0.2836	-0.085
Mof_H 	H 	0.1364	0.509	0.2063	0.063
Mof_C 	C 	0.034	0.55006	0.2049	0.112
Mof_C 	C 	0.97372	0.55413	0.2874	0.115
Mof_C 	C 	0.10276	0.5597	0.0706	0.153
Mof_C 	C 	0.11391	0.47746	0.4015	-0.087
Mof_H 	H 	0.1323	0.4644	0.4211	0.068
Mof_C 	C 	0.02799	0.58145	0.1113	-0.098
Mof_H 	H 	0.046	0.5971	0.0317	0.065
Mof_C 	C 	0.08747	0.54509	0.9317	-0.208
Mof_H 	H 	0.0565	0.5236	0.9146	0.104
Mof_C 	C 	0.99066	0.58348	0.1629	-0.079
Mof_H 	H 	0.9784	0.6008	0.1243	0.06
Mof_C 	C 	0.1493	0.59221	0.0876	-0.203
Mof_H 	H 	0.1613	0.603	0.1789	0.102
Mof_C 	C 	0.17747	0.60829	0.9687	0.108
Mof_H 	H 	0.2085	0.6304	0.9821	0
Mof_C 	C 	0.11784	0.56226	0.8202	0.114
Mof_H 	H 	0.1068	0.5513	0.7281	-0.004
Mof_C 	C 	0.08693	0.42512	0.6659	0.161
Mof_C 	C 	0.07615	0.38341	0.6029	-0.218
Mof_H 	H 	0.0529	0.3702	0.5337	0.104
Mof_C 	C 	0.1213	0.44266	0.7693	-0.216
Mof_H 	H 	0.1295	0.4704	0.8161	0.11
Mof_C 	C 	0.10008	0.36146	0.6432	0.124
Mof_H 	H 	0.0925	0.3335	0.599	-0.018
Mof_C 	C 	0.14321	0.41784	0.8011	0.129
Mof_H 	H 	0.1667	0.4301	0.8698	-0.017
Mof_N 	N 	0.05923	0.49952	0.4266	-0.217
Mof_N 	N 	0.00035	0.53376	0.3081	-0.219
Mof_N 	N 	0.1333	0.37809	0.7414	-0.202
Mof_N 	N 	0.16275	0.594	0.8352	-0.145
Mof_C 	C 	0.92887	0.45928	0.803	-0.143
Mof_C 	C 	0.91839	0.484	0.7007	0.115
Mof_C 	C 	0.92248	0.52473	0.5084	0.115
Mof_C 	C 	0.93767	0.54886	0.3774	-0.147
Mof_C 	C 	0.88376	0.49785	0.7164	-0.084
Mof_H 	H 	0.8636	0.491	0.7937	0.063
Mof_C 	C 	0.966	0.44994	0.7951	0.108
Mof_C 	C 	0.02628	0.44587	0.7126	0.111
Mof_C 	C 	0.89724	0.4403	0.9294	0.153
Mof_C 	C 	0.88609	0.52254	0.5985	-0.087
Mof_H 	H 	0.8677	0.5356	0.5789	0.068
Mof_C 	C 	0.97201	0.41855	0.8887	-0.076
Mof_H 	H 	0.954	0.4029	0.9683	0.059
Mof_C 	C 	0.91253	0.45491	0.0683	-0.208
Mof_H 	H 	0.9435	0.4764	0.0854	0.106
Mof_C 	C 	0.00934	0.41652	0.8371	-0.099
Mof_H 	H 	0.0216	0.3992	0.8757	0.064
Mof_C 	C 	0.8507	0.40779	0.9124	-0.203
Mof_H 	H 	0.8387	0.397	0.8211	0.102
Mof_C 	C 	0.82253	0.39171	0.0313	0.108
Mof_H 	H 	0.7915	0.3696	0.0179	0
Mof_C 	C 	0.88216	0.43774	0.1798	0.114
Mof_H 	H 	0.8932	0.4487	0.2719	-0.004
Mof_C 	C 	0.91307	0.57488	0.3341	0.162
Mof_C 	C 	0.92385	0.61659	0.3971	-0.218
Mof_H 	H 	0.9471	0.6298	0.4663	0.106
Mof_C 	C 	0.8787	0.55734	0.2307	-0.216
Mof_H 	H 	0.8705	0.5296	0.1839	0.111
Mof_C 	C 	0.89992	0.63854	0.3568	0.125
Mof_H 	H 	0.9075	0.6665	0.401	-0.017
Mof_C 	C 	0.85679	0.58216	0.1989	0.13
Mof_H 	H 	0.8333	0.5699	0.1302	-0.017
Mof_N 	N 	0.94077	0.50048	0.5734	-0.215
Mof_N 	N 	0.99965	0.46624	0.6919	-0.211
Mof_N 	N 	0.8667	0.62191	0.2586	-0.202
Mof_N 	N 	0.83725	0.406	0.1648	-0.145
Mof_Mn	Mn	-1.70642e-17	0.5	0.5	0.764
Mof_C 	C 	0.7378	0.87405	0.53033	-0.145
Mof_C 	C 	0.74828	0.84933	0.63263	0.115
Mof_C 	C 	0.74419	0.8086	0.82493	0.114
Mof_C 	C 	0.729	0.78447	0.95593	-0.148
Mof_C 	C 	0.78291	0.83548	0.61693	-0.085
Mof_H 	H 	0.80307	0.84233	0.53963	0.063
Mof_C 	C 	0.70067	0.88339	0.53823	0.11
Mof_C 	C 	0.64039	0.88746	0.62073	0.113
Mof_C 	C 	0.76943	0.89303	0.40393	0.153
Mof_C 	C 	0.78058	0.81079	0.73483	-0.087
Mof_H 	H 	0.79897	0.79773	0.75443	0.068
Mof_C 	C 	0.69466	0.91478	0.44463	-0.087
Mof_H 	H 	0.71267	0.93043	0.36503	0.062
Mof_C 	C 	0.75414	0.87842	0.26503	-0.208
Mof_H 	H 	0.72317	0.85693	0.24793	0.105
Mof_C 	C 	0.65733	0.91681	0.49623	-0.089
Mof_H 	H 	0.64507	0.93413	0.45763	0.063
Mof_C 	C 	0.81597	0.92554	0.42093	-0.202
Mof_H 	H 	0.82797	0.93633	0.51223	0.103
Mof_C 	C 	0.84414	0.94162	0.30203	0.108
Mof_H 	H 	0.87517	0.96373	0.31543	0.002
Mof_C 	C 	0.78451	0.89559	0.15353	0.114
Mof_H 	H 	0.77347	0.88463	0.06143	-0.004
Mof_C 	C 	0.7536	0.75845	0.99923	0.161
Mof_C 	C 	0.74282	0.71674	0.93623	-0.218
Mof_H 	H 	0.71957	0.70353	0.86703	0.105
Mof_C 	C 	0.78797	0.77599	0.10263	-0.216
Mof_H 	H 	0.79617	0.80373	0.14943	0.111
Mof_C 	C 	0.76675	0.69479	0.97653	0.125
Mof_H 	H 	0.75917	0.66683	0.93233	-0.017
Mof_C 	C 	0.80988	0.75117	0.13443	0.13
Mof_H 	H 	0.83337	0.76343	0.20313	-0.017
Mof_N 	N 	0.7259	0.83285	0.75993	-0.217
Mof_N 	N 	0.66702	0.86709	0.64143	-0.216
Mof_N 	N 	0.79997	0.71142	0.07473	-0.202
Mof_N 	N 	0.82942	0.92733	0.16853	-0.144
Mof_C 	C 	0.59554	0.79261	0.13633	-0.145
Mof_C 	C 	0.58506	0.81733	0.03403	0.115
Mof_C 	C 	0.58915	0.85806	0.84173	0.114
Mof_C 	C 	0.60434	0.88219	0.71073	-0.148
Mof_C 	C 	0.55043	0.83118	0.04973	-0.084
Mof_H 	H 	0.53027	0.82433	0.12703	0.063
Mof_C 	C 	0.63267	0.78327	0.12843	0.11
Mof_C 	C 	0.69295	0.7792	0.04593	0.113
Mof_C 	C 	0.56391	0.77363	0.26273	0.153
Mof_C 	C 	0.55276	0.85587	0.93183	-0.087
Mof_H 	H 	0.53437	0.86893	0.91223	0.068
Mof_C 	C 	0.63868	0.75188	0.22203	-0.087
Mof_H 	H 	0.62067	0.73623	0.30163	0.062
Mof_C 	C 	0.5792	0.78824	0.40163	-0.208
Mof_H 	H 	0.61017	0.80973	0.41873	0.105
Mof_C 	C 	0.67601	0.74985	0.17043	-0.089
Mof_H 	H 	0.68827	0.73253	0.20903	0.062
Mof_C 	C 	0.51737	0.74112	0.24573	-0.203
Mof_H 	H 	0.50537	0.73033	0.15443	0.102
Mof_C 	C 	0.4892	0.72504	0.36463	0.108
Mof_H 	H 	0.45817	0.70293	0.35123	0
Mof_C 	C 	0.54883	0.77107	0.51313	0.114
Mof_H 	H 	0.55987	0.78203	0.60523	-0.004
Mof_C 	C 	0.57974	0.90821	0.66743	0.161
Mof_C 	C 	0.59052	0.94992	0.73043	-0.218
Mof_H 	H 	0.61377	0.96313	0.79963	0.106
Mof_C 	C 	0.54537	0.89067	0.56403	-0.216
Mof_H 	H 	0.53717	0.86293	0.51723	0.111
Mof_C 	C 	0.56659	0.97187	0.69013	0.125
Mof_H 	H 	0.57417	0.99983	0.73433	-0.015
Mof_C 	C 	0.52346	0.91549	0.53223	0.13
Mof_H 	H 	0.49997	0.90323	0.46353	-0.017
Mof_N 	N 	0.60744	0.83381	0.90673	-0.217
Mof_N 	N 	0.66632	0.79957	0.02523	-0.216
Mof_N 	N 	0.53337	0.95524	0.59193	-0.2
Mof_N 	N 	0.50392	0.73933	0.49813	-0.145
Mof_Mn	Mn	0.66667	0.83333	0.83333	0.772
Mof_C 	C 	0.40446	0.20739	0.86367	-0.145
Mof_C 	C 	0.41494	0.18267	0.96597	0.115
Mof_C 	C 	0.41085	0.14194	0.15827	0.114
Mof_C 	C 	0.39566	0.11781	0.28927	-0.148
Mof_C 	C 	0.44957	0.16882	0.95027	-0.085
Mof_H 	H 	0.46973	0.17567	0.87297	0.063
Mof_C 	C 	0.36733	0.21673	0.87157	0.11
Mof_C 	C 	0.30705	0.2208	0.95407	0.113
Mof_C 	C 	0.43609	0.22637	0.73727	0.153
Mof_C 	C 	0.44724	0.14413	0.06817	-0.087
Mof_H 	H 	0.46563	0.13107	0.08777	0.068
Mof_C 	C 	0.36132	0.24812	0.77797	-0.087
Mof_H 	H 	0.37933	0.26377	0.69837	0.062
Mof_C 	C 	0.4208	0.21176	0.59837	-0.208
Mof_H 	H 	0.38983	0.19027	0.58127	0.105
Mof_C 	C 	0.32399	0.25015	0.82957	-0.089
Mof_H 	H 	0.31173	0.26747	0.79097	0.062
Mof_C 	C 	0.48263	0.25888	0.75427	-0.203
Mof_H 	H 	0.49463	0.26967	0.84557	0.102
Mof_C 	C 	0.5108	0.27496	0.63537	0.108
Mof_H 	H 	0.54183	0.29707	0.64877	0
Mof_C 	C 	0.45117	0.22893	0.48687	0.114
Mof_H 	H 	0.44013	0.21797	0.39477	-0.004
Mof_C 	C 	0.42026	0.09179	0.33257	0.161
Mof_C 	C 	0.40948	0.05008	0.26957	-0.218
Mof_H 	H 	0.38623	0.03687	0.20037	0.104
Mof_C 	C 	0.45463	0.10933	0.43597	-0.216
Mof_H 	H 	0.46283	0.13707	0.48277	0.11
Mof_C 	C 	0.43341	0.02813	0.30987	0.124
Mof_H 	H 	0.42583	0.00017	0.26567	-0.019
Mof_C 	C 	0.47654	0.08451	0.46777	0.129
Mof_H 	H 	0.50003	0.09677	0.53647	-0.017
Mof_N 	N 	0.39256	0.16619	0.09327	-0.217
Mof_N 	N 	0.33368	0.20043	0.97477	-0.216
Mof_N 	N 	0.46663	0.04476	0.40807	-0.202
Mof_N 	N 	0.49608	0.26067	0.50187	-0.145
Mof_C 	C 	0.2622	0.12595	0.46967	-0.145
Mof_C 	C 	0.25172	0.15067	0.36737	0.115
Mof_C 	C 	0.25581	0.1914	0.17507	0.114
Mof_C 	C 	0.271	0.21553	0.04407	-0.148
Mof_C 	C 	0.21709	0.16452	0.38307	-0.085
Mof_H 	H 	0.19693	0.15767	0.46037	0.062
Mof_C 	C 	0.29933	0.11661	0.46177	0.11
Mof_C 	C 	0.35961	0.11254	0.37927	0.112
Mof_C 	C 	0.23057	0.10697	0.59607	0.153
Mof_C 	C 	0.21942	0.18921	0.26517	-0.087
Mof_H 	H 	0.20103	0.20227	0.24557	0.068
Mof_C 	C 	0.30534	0.08522	0.55537	-0.088
Mof_H 	H 	0.28733	0.06957	0.63497	0.062
Mof_C 	C 	0.24586	0.12158	0.73497	-0.208
Mof_H 	H 	0.27683	0.14307	0.75207	0.105
Mof_C 	C 	0.34267	0.08319	0.50377	-0.089
Mof_H 	H 	0.35493	0.06587	0.54237	0.061
Mof_C 	C 	0.18403	0.07446	0.57907	-0.203
Mof_H 	H 	0.17203	0.06367	0.48777	0.101
Mof_C 	C 	0.15586	0.05838	0.69797	0.108
Mof_H 	H 	0.12483	0.03627	0.68457	-0.002
Mof_C 	C 	0.21549	0.10441	0.84647	0.114
Mof_H 	H 	0.22653	0.11537	0.93857	-0.005
Mof_C 	C 	0.2464	0.24155	0.00077	0.161
Mof_C 	C 	0.25718	0.28326	0.06377	-0.218
Mof_H 	H 	0.28043	0.29647	0.13297	0.105
Mof_C 	C 	0.21203	0.22401	0.89737	-0.216
Mof_H 	H 	0.20383	0.19627	0.85057	0.11
Mof_C 	C 	0.23325	0.30521	0.02347	0.125
Mof_H 	H 	0.24083	0.33317	0.06767	-0.017
Mof_C 	C 	0.19012	0.24883	0.86557	0.13
Mof_H 	H 	0.16663	0.23657	0.79687	-0.017
Mof_N 	N 	0.2741	0.16715	0.24007	-0.217
Mof_N 	N 	0.33298	0.13291	0.35857	-0.216
Mof_N 	N 	0.20003	0.28858	0.92527	-0.202
Mof_N 	N 	0.17058	0.07267	0.83147	-0.146
Mof_Mn	Mn	0.33333	0.16667	0.16667	0.772
Mof_C 	C 	0.45928	0.53041	0.197	-0.145
Mof_C 	C 	0.484	0.56561	0.2993	0.115
Mof_C 	C 	0.52473	0.60225	0.4916	0.114
Mof_C 	C 	0.54886	0.61119	0.6226	-0.148
Mof_C 	C 	0.49785	0.61409	0.2836	-0.085
Mof_H 	H 	0.491	0.6274	0.2063	0.063
Mof_C 	C 	0.44994	0.48394	0.2049	0.11
Mof_C 	C 	0.44587	0.41959	0.2874	0.113
Mof_C 	C 	0.4403	0.54306	0.0706	0.153
Mof_C 	C 	0.52254	0.63645	0.4015	-0.087
Mof_H 	H 	0.5356	0.6679	0.4211	0.068
Mof_C 	C 	0.41855	0.44654	0.1113	-0.087
Mof_H 	H 	0.4029	0.4489	0.0317	0.062
Mof_C 	C 	0.45491	0.54238	0.9317	-0.208
Mof_H 	H 	0.4764	0.5329	0.9146	0.105
Mof_C 	C 	0.41652	0.40718	0.1629	-0.089
Mof_H 	H 	0.3992	0.3776	0.1243	0.062
Mof_C 	C 	0.40779	0.55709	0.0876	-0.203
Mof_H 	H 	0.397	0.5583	0.1789	0.102
Mof_C 	C 	0.39171	0.56918	0.9687	0.108
Mof_H 	H 	0.3696	0.5781	0.9821	0
Mof_C 	C 	0.43774	0.55558	0.8202	0.114
Mof_H 	H 	0.4487	0.5555	0.7281	-0.004
Mof_C 	C 	0.57488	0.66181	0.6659	0.161
Mof_C 	C 	0.61659	0.69274	0.6029	-0.218
Mof_H 	H 	0.6298	0.6827	0.5337	0.105
Mof_C 	C 	0.55734	0.67864	0.7693	-0.216
Mof_H 	H 	0.5296	0.6591	0.8161	0.111
Mof_C 	C 	0.63854	0.73862	0.6432	0.125
Mof_H 	H 	0.6665	0.759	0.599	-0.018
Mof_C 	C 	0.58216	0.72537	0.8011	0.13
Mof_H 	H 	0.5699	0.7366	0.8698	-0.017
Mof_N 	N 	0.50048	0.55971	0.4266	-0.217
Mof_N 	N 	0.46624	0.46659	0.3081	-0.216
Mof_N 	N 	0.62191	0.75521	0.7414	-0.202
Mof_N 	N 	0.406	0.56875	0.8352	-0.145
Mof_C 	C 	0.54072	0.46959	0.803	-0.145
Mof_C 	C 	0.516	0.43439	0.7007	0.115
Mof_C 	C 	0.47527	0.39775	0.5084	0.114
Mof_C 	C 	0.45114	0.38881	0.3774	-0.148
Mof_C 	C 	0.50215	0.38591	0.7164	-0.085
Mof_H 	H 	0.509	0.3726	0.7937	0.063
Mof_C 	C 	0.55006	0.51606	0.7951	0.11
Mof_C 	C 	0.55413	0.58041	0.7126	0.113
Mof_C 	C 	0.5597	0.45694	0.9294	0.153
Mof_C 	C 	0.47746	0.36355	0.5985	-0.087
Mof_H 	H 	0.4644	0.3321	0.5789	0.068
Mof_C 	C 	0.58145	0.55346	0.8887	-0.087
Mof_H 	H 	0.5971	0.5511	0.9683	0.062
Mof_C 	C 	0.54509	0.45762	0.0683	-0.208
Mof_H 	H 	0.5236	0.4671	0.0854	0.105
Mof_C 	C 	0.58348	0.59282	0.8371	-0.089
Mof_H 	H 	0.6008	0.6224	0.8757	0.062
Mof_C 	C 	0.59221	0.44291	0.9124	-0.203
Mof_H 	H 	0.603	0.4417	0.8211	0.102
Mof_C 	C 	0.60829	0.43082	0.0313	0.108
Mof_H 	H 	0.6304	0.4219	0.0179	0
Mof_C 	C 	0.56226	0.44442	0.1798	0.114
Mof_H 	H 	0.5513	0.4445	0.2719	-0.004
Mof_C 	C 	0.42512	0.33819	0.3341	0.161
Mof_C 	C 	0.38341	0.30726	0.3971	-0.218
Mof_H 	H 	0.3702	0.3173	0.4663	0.105
Mof_C 	C 	0.44266	0.32136	0.2307	-0.216
Mof_H 	H 	0.4704	0.3409	0.1839	0.111
Mof_C 	C 	0.36146	0.26138	0.3568	0.125
Mof_H 	H 	0.3335	0.241	0.401	-0.017
Mof_C 	C 	0.41784	0.27463	0.1989	0.13
Mof_H 	H 	0.4301	0.2634	0.1302	-0.017
Mof_N 	N 	0.49952	0.44029	0.5734	-0.217
Mof_N 	N 	0.53376	0.53341	0.6919	-0.216
Mof_N 	N 	0.37809	0.24479	0.2586	-0.202
Mof_N 	N 	0.594	0.43125	0.1648	-0.145
Mof_Mn	Mn	0.5	0.5	0.5	0.772
Mof_C 	C 	0.12595	0.86374	0.53033	-0.146
Mof_C 	C 	0.15067	0.89894	0.63263	0.117
Mof_C 	C 	0.1914	0.93558	0.82493	0.113
Mof_C 	C 	0.21553	0.94452	0.95593	-0.154
Mof_C 	C 	0.16452	0.94742	0.61693	-0.092
Mof_H 	H 	0.15767	0.96073	0.53963	0.066
Mof_C 	C 	0.11661	0.81727	0.53823	0.11
Mof_C 	C 	0.11254	0.75292	0.62073	0.112
Mof_C 	C 	0.10697	0.87639	0.40393	0.154
Mof_C 	C 	0.18921	0.96978	0.73483	-0.074
Mof_H 	H 	0.20227	0.00123	0.75443	0.06
Mof_C 	C 	0.08522	0.77987	0.44463	-0.088
Mof_H 	H 	0.06957	0.78223	0.36503	0.062
Mof_C 	C 	0.12158	0.87571	0.26503	-0.209
Mof_H 	H 	0.14307	0.86623	0.24793	0.105
Mof_C 	C 	0.08319	0.74051	0.49623	-0.089
Mof_H 	H 	0.06587	0.71093	0.45763	0.061
Mof_C 	C 	0.07446	0.89042	0.42093	-0.204
Mof_H 	H 	0.06367	0.89163	0.51223	0.102
Mof_C 	C 	0.05838	0.90251	0.30203	0.108
Mof_H 	H 	0.03627	0.91143	0.31543	-0.001
Mof_C 	C 	0.10441	0.88891	0.15353	0.114
Mof_H 	H 	0.11537	0.88883	0.06143	-0.004
Mof_C 	C 	0.24155	0.99514	0.99923	0.187
Mof_C 	C 	0.28326	0.02607	0.93623	-0.24
Mof_H 	H 	0.29647	0.01603	0.86703	0.111
Mof_C 	C 	0.22401	0.01197	0.10263	-0.25
Mof_H 	H 	0.19627	0.99243	0.14943	0.125
Mof_C 	C 	0.30521	0.07195	0.97653	0.136
Mof_H 	H 	0.33317	0.09233	0.93233	-0.021
Mof_C 	C 	0.24883	0.0587	0.13443	0.146
Mof_H 	H 	0.23657	0.06993	0.20313	-0.024
Mof_N 	N 	0.16715	0.89304	0.75993	-0.218
Mof_N 	N 	0.13291	0.79992	0.64143	-0.216
Mof_N 	N 	0.28858	0.08854	0.07473	-0.207
Mof_N 	N 	0.07267	0.90208	0.16853	-0.145
Mof_C 	C 	0.20739	0.80292	0.13633	-0.145
Mof_C 	C 	0.18267	0.76772	0.03403	0.115
Mof_C 	C 	0.14194	0.73108	0.84173	0.114
Mof_C 	C 	0.11781	0.72214	0.71073	-0.148
Mof_C 	C 	0.16882	0.71924	0.04973	-0.085
Mof_H 	H 	0.17567	0.70593	0.12703	0.063
Mof_C 	C 	0.21673	0.84939	0.12843	0.11
Mof_C 	C 	0.2208	0.91374	0.04593	0.116
Mof_C 	C 	0.22637	0.79027	0.26273	0.153
Mof_C 	C 	0.14413	0.69688	0.93183	-0.087
Mof_H 	H 	0.13107	0.66543	0.91223	0.068
Mof_C 	C 	0.24812	0.88679	0.22203	-0.086
Mof_H 	H 	0.26377	0.88443	0.30163	0.062
Mof_C 	C 	0.21176	0.79095	0.40163	-0.208
Mof_H 	H 	0.19027	0.80043	0.41873	0.105
Mof_C 	C 	0.25015	0.92615	0.17043	-0.091
Mof_H 	H 	0.26747	0.95573	0.20903	0.064
Mof_C 	C 	0.25888	0.77624	0.24573	-0.203
Mof_H 	H 	0.26967	0.77503	0.15443	0.102
Mof_C 	C 	0.27496	0.76415	0.36463	0.108
Mof_H 	H 	0.29707	0.75523	0.35123	0
Mof_C 	C 	0.22893	0.77775	0.51313	0.114
Mof_H 	H 	0.21797	0.77783	0.60523	-0.004
Mof_C 	C 	0.09179	0.67152	0.66743	0.161
Mof_C 	C 	0.05008	0.64059	0.73043	-0.218
Mof_H 	H 	0.03687	0.65063	0.79963	0.104
Mof_C 	C 	0.10933	0.65469	0.56403	-0.216
Mof_H 	H 	0.13707	0.67423	0.51723	0.11
Mof_C 	C 	0.02813	0.59471	0.69013	0.124
Mof_H 	H 	0.00017	0.57433	0.73433	-0.019
Mof_C 	C 	0.08451	0.60796	0.53223	0.129
Mof_H 	H 	0.09677	0.59673	0.46353	-0.017
Mof_N 	N 	0.16619	0.77362	0.90673	-0.217
Mof_N 	N 	0.20043	0.86674	0.02523	-0.217
Mof_N 	N 	0.04476	0.57812	0.59193	-0.202
Mof_N 	N 	0.26067	0.76458	0.49813	-0.145
Mof_Mn	Mn	0.16667	0.83333	0.83333	0.772
Mof_C 	C 	0.79261	0.19708	0.86367	-0.145
Mof_C 	C 	0.81733	0.23228	0.96597	0.115
Mof_C 	C 	0.85806	0.26892	0.15827	0.114
Mof_C 	C 	0.88219	0.27786	0.28927	-0.148
Mof_C 	C 	0.83118	0.28076	0.95027	-0.084
Mof_H 	H 	0.82433	0.29407	0.87297	0.063
Mof_C 	C 	0.78327	0.15061	0.87157	0.11
Mof_C 	C 	0.7792	0.08626	0.95407	0.11
Mof_C 	C 	0.77363	0.20973	0.73727	0.153
Mof_C 	C 	0.85587	0.30312	0.06817	-0.087
Mof_H 	H 	0.86893	0.33457	0.08777	0.068
Mof_C 	C 	0.75188	0.11321	0.77797	-0.089
Mof_H 	H 	0.73623	0.11557	0.69837	0.062
Mof_C 	C 	0.78824	0.20905	0.59837	-0.208
Mof_H 	H 	0.80973	0.19957	0.58127	0.105
Mof_C 	C 	0.74985	0.07385	0.82957	-0.087
Mof_H 	H 	0.73253	0.04427	0.79097	0.06
Mof_C 	C 	0.74112	0.22376	0.75427	-0.203
Mof_H 	H 	0.73033	0.22497	0.84557	0.102
Mof_C 	C 	0.72504	0.23585	0.63537	0.108
Mof_H 	H 	0.70293	0.24477	0.64877	0
Mof_C 	C 	0.77107	0.22225	0.48687	0.114
Mof_H 	H 	0.78203	0.22217	0.39477	-0.004
Mof_C 	C 	0.90821	0.32848	0.33257	0.161
Mof_C 	C 	0.94992	0.35941	0.26957	-0.218
Mof_H 	H 	0.96313	0.34937	0.20037	0.106
Mof_C 	C 	0.89067	0.34531	0.43597	-0.216
Mof_H 	H 	0.86293	0.32577	0.48277	0.111
Mof_C 	C 	0.97187	0.40529	0.30987	0.125
Mof_H 	H 	0.99983	0.42567	0.26567	-0.015
Mof_C 	C 	0.91549	0.39204	0.46777	0.13
Mof_H 	H 	0.90323	0.40327	0.53647	-0.017
Mof_N 	N 	0.83381	0.22638	0.09327	-0.217
Mof_N 	N 	0.79957	0.13326	0.97477	-0.216
Mof_N 	N 	0.95524	0.42188	0.40807	-0.2
Mof_N 	N 	0.73933	0.23542	0.50187	-0.145
Mof_C 	C 	0.87405	0.13626	0.46967	-0.144
Mof_C 	C 	0.84933	0.10106	0.36737	0.112
Mof_C 	C 	0.8086	0.06442	0.17507	0.115
Mof_C 	C 	0.78447	0.05548	0.04407	-0.141
Mof_C 	C 	0.83548	0.05258	0.38307	-0.078
Mof_H 	H 	0.84233	0.03927	0.46037	0.059
Mof_C 	C 	0.88339	0.18273	0.46177	0.11
Mof_C 	C 	0.88746	0.24708	0.37927	0.113
Mof_C 	C 	0.89303	0.12361	0.59607	0.153
Mof_C 	C 	0.81079	0.03022	0.26517	-0.1
Mof_H 	H 	0.79773	0.99877	0.24557	0.077
Mof_C 	C 	0.91478	0.22013	0.55537	-0.086
Mof_H 	H 	0.93043	0.21777	0.63497	0.062
Mof_C 	C 	0.87842	0.12429	0.73497	-0.208
Mof_H 	H 	0.85693	0.13377	0.75207	0.105
Mof_C 	C 	0.91681	0.25949	0.50377	-0.089
Mof_H 	H 	0.93413	0.28907	0.54237	0.063
Mof_C 	C 	0.92554	0.10958	0.57907	-0.202
Mof_H 	H 	0.93633	0.10837	0.48777	0.102
Mof_C 	C 	0.94162	0.09749	0.69797	0.108
Mof_H 	H 	0.96373	0.08857	0.68457	0.001
Mof_C 	C 	0.89559	0.11109	0.84647	0.114
Mof_H 	H 	0.88463	0.11117	0.93857	-0.004
Mof_C 	C 	0.75845	0.00486	0.00077	0.135
Mof_C 	C 	0.71674	0.97393	0.06377	-0.197
Mof_H 	H 	0.70353	0.98397	0.13297	0.1
Mof_C 	C 	0.77599	0.98803	0.89737	-0.183
Mof_H 	H 	0.80373	0.00757	0.85057	0.096
Mof_C 	C 	0.69479	0.92805	0.02347	0.114
Mof_H 	H 	0.66683	0.90767	0.06767	-0.014
Mof_C 	C 	0.75117	0.9413	0.86557	0.114
Mof_H 	H 	0.76343	0.93007	0.79687	-0.011
Mof_N 	N 	0.83285	0.10696	0.24007	-0.217
Mof_N 	N 	0.86709	0.20008	0.35857	-0.216
Mof_N 	N 	0.71142	0.91146	0.92527	-0.196
Mof_N 	N 	0.92733	0.09792	0.83147	-0.145
Mof_Mn	Mn	0.83333	0.16667	0.16667	0.771
_end
