data_functionalizedCrystal
_audit_creation_method	'EQeq! by Chris Wilmer'
_symmetry_space_group_name_H-M	'P1'
_symmetry_Int_Tables_number	1
_symmetry_cell_setting	triclinic
loop_
_symmetry_equiv_pos_as_xyz
  x,y,z
_cell_length_a	34.1709
_cell_length_b	34.1709
_cell_length_c	34.1709
_cell_angle_alpha	60
_cell_angle_beta	60
_cell_angle_gamma	60
loop_
_atom_site_label
_atom_site_type_symbol
_atom_site_fract_x
_atom_site_fract_y
_atom_site_fract_z
_atom_site_charge
Mof_Cd	Cd	0.57506	0.97804	0.02196	0.494
Mof_Cd	Cd	0.97804	0.57506	0.42494	0.494
Mof_Cd	Cd	0.02196	0.42494	0.57506	0.494
Mof_Cd	Cd	0.42494	0.02196	0.97804	0.494
Mof_Cd	Cd	0.57506	0.02196	0.42494	0.494
Mof_Cd	Cd	0.97804	0.42494	0.02196	0.494
Mof_Cd	Cd	0.02196	0.57506	0.97804	0.494
Mof_Cd	Cd	0.42494	0.97804	0.57506	0.494
Mof_Cd	Cd	0.57506	0.42494	0.97804	0.494
Mof_Cd	Cd	0.97804	0.02196	0.57506	0.494
Mof_Cd	Cd	0.02196	0.97804	0.42494	0.494
Mof_Cd	Cd	0.42494	0.57506	0.02196	0.494
Mof_Cd	Cd	0.52196	0.92494	0.47804	0.494
Mof_Cd	Cd	0.92494	0.52196	0.07506	0.494
Mof_Cd	Cd	0.07506	0.47804	0.92494	0.494
Mof_Cd	Cd	0.47804	0.07506	0.52196	0.494
Mof_Cd	Cd	0.47804	0.92494	0.07506	0.494
Mof_Cd	Cd	0.07506	0.52196	0.47804	0.494
Mof_Cd	Cd	0.92494	0.47804	0.52196	0.494
Mof_Cd	Cd	0.52196	0.07506	0.92494	0.494
Mof_Cd	Cd	0.07506	0.92494	0.52196	0.494
Mof_Cd	Cd	0.47804	0.52196	0.92494	0.494
Mof_Cd	Cd	0.52196	0.47804	0.07506	0.494
Mof_Cd	Cd	0.92494	0.07506	0.47804	0.494
Mof_H 	H 	0.541	0.0532	0.0714	0.064
Mof_H 	H 	0.5592	0.2032	0.006	0.05
Mof_H 	H 	0.5526	0.1758	0.9604	0.038
Mof_H 	H 	0.5952	0.0068	0.1676	0.019
Mof_H 	H 	0.5927	0.0075	0.1219	0.034
Mof_H 	H 	0.6474	0.0494	0.07	0.142
Mof_H 	H 	0.6703	0.0039	0.1089	0.133
Mof_H 	H 	0.6465	0.0559	0.1137	0.138
Mof_H 	H 	0.4985	0.0435	0.1575	0.025
Mof_H 	H 	0.503	0.0444	0.2014	0.019
Mof_H 	H 	0.4588	0.1266	0.1836	0.127
Mof_H 	H 	0.4286	0.0992	0.1894	0.123
Mof_H 	H 	0.4567	0.1281	0.1371	0.133
Mof_H 	H 	0.0532	0.541	0.3344	0.064
Mof_H 	H 	0.2032	0.5592	0.2316	0.051
Mof_H 	H 	0.1758	0.5526	0.3112	0.037
Mof_H 	H 	0.0068	0.5952	0.2304	0.019
Mof_H 	H 	0.0075	0.5927	0.2779	0.034
Mof_H 	H 	0.0494	0.6474	0.2332	0.142
Mof_H 	H 	0.0039	0.6703	0.2169	0.133
Mof_H 	H 	0.0559	0.6465	0.1839	0.138
Mof_H 	H 	0.0435	0.4985	0.3005	0.025
Mof_H 	H 	0.0444	0.503	0.2512	0.019
Mof_H 	H 	0.1266	0.4588	0.231	0.127
Mof_H 	H 	0.0992	0.4286	0.2828	0.123
Mof_H 	H 	0.1281	0.4567	0.2781	0.132
Mof_H 	H 	0.0714	0.3344	0.541	0.064
Mof_H 	H 	0.006	0.2316	0.5592	0.051
Mof_H 	H 	0.9604	0.3112	0.5526	0.038
Mof_H 	H 	0.1676	0.2304	0.5952	0.019
Mof_H 	H 	0.1219	0.2779	0.5927	0.034
Mof_H 	H 	0.07	0.2332	0.6474	0.142
Mof_H 	H 	0.1089	0.2169	0.6703	0.133
Mof_H 	H 	0.1137	0.1839	0.6465	0.138
Mof_H 	H 	0.1575	0.3005	0.4985	0.025
Mof_H 	H 	0.2014	0.2512	0.503	0.018
Mof_H 	H 	0.1836	0.231	0.4588	0.127
Mof_H 	H 	0.1894	0.2828	0.4286	0.123
Mof_H 	H 	0.1371	0.2781	0.4567	0.133
Mof_H 	H 	0.3344	0.0714	0.0532	0.064
Mof_H 	H 	0.2316	0.006	0.2032	0.05
Mof_H 	H 	0.3112	0.9604	0.1758	0.038
Mof_H 	H 	0.2304	0.1676	0.0068	0.019
Mof_H 	H 	0.2779	0.1219	0.0075	0.034
Mof_H 	H 	0.2332	0.07	0.0494	0.142
Mof_H 	H 	0.2169	0.1089	0.0039	0.133
Mof_H 	H 	0.1839	0.1137	0.0559	0.138
Mof_H 	H 	0.3005	0.1575	0.0435	0.025
Mof_H 	H 	0.2512	0.2014	0.0444	0.019
Mof_H 	H 	0.231	0.1836	0.1266	0.127
Mof_H 	H 	0.2828	0.1894	0.0992	0.123
Mof_H 	H 	0.2781	0.1371	0.1281	0.133
Mof_H 	H 	0.541	0.0714	0.3344	0.064
Mof_H 	H 	0.5592	0.006	0.2316	0.051
Mof_H 	H 	0.5526	0.9604	0.3112	0.038
Mof_H 	H 	0.5952	0.1676	0.2304	0.019
Mof_H 	H 	0.5927	0.1219	0.2779	0.034
Mof_H 	H 	0.6474	0.07	0.2332	0.142
Mof_H 	H 	0.6703	0.1089	0.2169	0.133
Mof_H 	H 	0.6465	0.1137	0.1839	0.138
Mof_H 	H 	0.4985	0.1575	0.3005	0.025
Mof_H 	H 	0.503	0.2014	0.2512	0.018
Mof_H 	H 	0.4588	0.1836	0.231	0.127
Mof_H 	H 	0.4286	0.1894	0.2828	0.123
Mof_H 	H 	0.4567	0.1371	0.2781	0.133
Mof_H 	H 	0.0532	0.3344	0.0714	0.064
Mof_H 	H 	0.2032	0.2316	0.006	0.05
Mof_H 	H 	0.1758	0.3112	0.9604	0.038
Mof_H 	H 	0.0068	0.2304	0.1676	0.019
Mof_H 	H 	0.0075	0.2779	0.1219	0.034
Mof_H 	H 	0.0494	0.2332	0.07	0.142
Mof_H 	H 	0.0039	0.2169	0.1089	0.133
Mof_H 	H 	0.0559	0.1839	0.1137	0.139
Mof_H 	H 	0.0435	0.3005	0.1575	0.026
Mof_H 	H 	0.0444	0.2512	0.2014	0.02
Mof_H 	H 	0.1266	0.231	0.1836	0.128
Mof_H 	H 	0.0992	0.2828	0.1894	0.124
Mof_H 	H 	0.1281	0.2781	0.1371	0.134
Mof_H 	H 	0.0714	0.541	0.0532	0.065
Mof_H 	H 	0.006	0.5592	0.2032	0.051
Mof_H 	H 	0.9604	0.5526	0.1758	0.039
Mof_H 	H 	0.1676	0.5952	0.0068	0.02
Mof_H 	H 	0.1219	0.5927	0.0075	0.035
Mof_H 	H 	0.07	0.6474	0.0494	0.143
Mof_H 	H 	0.1089	0.6703	0.0039	0.134
Mof_H 	H 	0.1137	0.6465	0.0559	0.139
Mof_H 	H 	0.1575	0.4985	0.0435	0.026
Mof_H 	H 	0.2014	0.503	0.0444	0.02
Mof_H 	H 	0.1836	0.4588	0.1266	0.128
Mof_H 	H 	0.1894	0.4286	0.0992	0.124
Mof_H 	H 	0.1371	0.4567	0.1281	0.134
Mof_H 	H 	0.3344	0.0532	0.541	0.065
Mof_H 	H 	0.2316	0.2032	0.5592	0.052
Mof_H 	H 	0.3112	0.1758	0.5526	0.038
Mof_H 	H 	0.2304	0.0068	0.5952	0.02
Mof_H 	H 	0.2779	0.0075	0.5927	0.035
Mof_H 	H 	0.2332	0.0494	0.6474	0.143
Mof_H 	H 	0.2169	0.0039	0.6703	0.134
Mof_H 	H 	0.1839	0.0559	0.6465	0.139
Mof_H 	H 	0.3005	0.0435	0.4985	0.026
Mof_H 	H 	0.2512	0.0444	0.503	0.02
Mof_H 	H 	0.231	0.1266	0.4588	0.128
Mof_H 	H 	0.2828	0.0992	0.4286	0.124
Mof_H 	H 	0.2781	0.1281	0.4567	0.133
Mof_H 	H 	0.541	0.3344	0.0532	0.065
Mof_H 	H 	0.5592	0.2316	0.2032	0.052
Mof_H 	H 	0.5526	0.3112	0.1758	0.038
Mof_H 	H 	0.5952	0.2304	0.0068	0.02
Mof_H 	H 	0.5927	0.2779	0.0075	0.035
Mof_H 	H 	0.6474	0.2332	0.0494	0.143
Mof_H 	H 	0.6703	0.2169	0.0039	0.134
Mof_H 	H 	0.6465	0.1839	0.0559	0.139
Mof_H 	H 	0.4985	0.3005	0.0435	0.026
Mof_H 	H 	0.503	0.2512	0.0444	0.02
Mof_H 	H 	0.4588	0.231	0.1266	0.128
Mof_H 	H 	0.4286	0.2828	0.0992	0.124
Mof_H 	H 	0.4567	0.2781	0.1281	0.133
Mof_H 	H 	0.0532	0.0714	0.541	0.065
Mof_H 	H 	0.2032	0.006	0.5592	0.051
Mof_H 	H 	0.1758	0.9604	0.5526	0.039
Mof_H 	H 	0.0068	0.1676	0.5952	0.02
Mof_H 	H 	0.0075	0.1219	0.5927	0.035
Mof_H 	H 	0.0494	0.07	0.6474	0.143
Mof_H 	H 	0.0039	0.1089	0.6703	0.134
Mof_H 	H 	0.0559	0.1137	0.6465	0.139
Mof_H 	H 	0.0435	0.1575	0.4985	0.026
Mof_H 	H 	0.0444	0.2014	0.503	0.02
Mof_H 	H 	0.1266	0.1836	0.4588	0.128
Mof_H 	H 	0.0992	0.1894	0.4286	0.124
Mof_H 	H 	0.1281	0.1371	0.4567	0.134
Mof_H 	H 	0.0714	0.0532	0.3344	0.065
Mof_H 	H 	0.006	0.2032	0.2316	0.051
Mof_H 	H 	0.9604	0.1758	0.3112	0.039
Mof_H 	H 	0.1676	0.0068	0.2304	0.02
Mof_H 	H 	0.1219	0.0075	0.2779	0.035
Mof_H 	H 	0.07	0.0494	0.2332	0.143
Mof_H 	H 	0.1089	0.0039	0.2169	0.134
Mof_H 	H 	0.1137	0.0559	0.1839	0.139
Mof_H 	H 	0.1575	0.0435	0.3005	0.026
Mof_H 	H 	0.2014	0.0444	0.2512	0.02
Mof_H 	H 	0.1836	0.1266	0.231	0.128
Mof_H 	H 	0.1894	0.0992	0.2828	0.124
Mof_H 	H 	0.1371	0.1281	0.2781	0.134
Mof_H 	H 	0.3344	0.541	0.0714	0.065
Mof_H 	H 	0.2316	0.5592	0.006	0.052
Mof_H 	H 	0.3112	0.5526	0.9604	0.039
Mof_H 	H 	0.2304	0.5952	0.1676	0.02
Mof_H 	H 	0.2779	0.5927	0.1219	0.035
Mof_H 	H 	0.2332	0.6474	0.07	0.143
Mof_H 	H 	0.2169	0.6703	0.1089	0.134
Mof_H 	H 	0.1839	0.6465	0.1137	0.139
Mof_H 	H 	0.3005	0.4985	0.1575	0.026
Mof_H 	H 	0.2512	0.503	0.2014	0.019
Mof_H 	H 	0.231	0.4588	0.1836	0.128
Mof_H 	H 	0.2828	0.4286	0.1894	0.124
Mof_H 	H 	0.2781	0.4567	0.1371	0.134
Mof_H 	H 	0.4468	0.959	0.4286	0.065
Mof_H 	H 	0.2968	0.9408	0.494	0.052
Mof_H 	H 	0.3242	0.9474	0.5396	0.038
Mof_H 	H 	0.4932	0.9048	0.3324	0.02
Mof_H 	H 	0.4925	0.9073	0.3781	0.035
Mof_H 	H 	0.4506	0.8526	0.43	0.143
Mof_H 	H 	0.4961	0.8297	0.3911	0.134
Mof_H 	H 	0.4441	0.8535	0.3863	0.139
Mof_H 	H 	0.4565	0.0015	0.3425	0.026
Mof_H 	H 	0.4556	0.997	0.2986	0.02
Mof_H 	H 	0.3734	0.0412	0.3164	0.128
Mof_H 	H 	0.4008	0.0714	0.3106	0.124
Mof_H 	H 	0.3719	0.0433	0.3629	0.133
Mof_H 	H 	0.959	0.4468	0.1656	0.065
Mof_H 	H 	0.9408	0.2968	0.2684	0.052
Mof_H 	H 	0.9474	0.3242	0.1888	0.038
Mof_H 	H 	0.9048	0.4932	0.2696	0.02
Mof_H 	H 	0.9073	0.4925	0.2221	0.035
Mof_H 	H 	0.8526	0.4506	0.2668	0.143
Mof_H 	H 	0.8297	0.4961	0.2831	0.134
Mof_H 	H 	0.8535	0.4441	0.3161	0.139
Mof_H 	H 	0.0015	0.4565	0.1995	0.027
Mof_H 	H 	0.997	0.4556	0.2488	0.02
Mof_H 	H 	0.0412	0.3734	0.269	0.128
Mof_H 	H 	0.0714	0.4008	0.2172	0.124
Mof_H 	H 	0.0433	0.3719	0.2219	0.133
Mof_H 	H 	0.1656	0.4286	0.959	0.065
Mof_H 	H 	0.2684	0.494	0.9408	0.052
Mof_H 	H 	0.1888	0.5396	0.9474	0.038
Mof_H 	H 	0.2696	0.3324	0.9048	0.02
Mof_H 	H 	0.2221	0.3781	0.9073	0.035
Mof_H 	H 	0.2668	0.43	0.8526	0.143
Mof_H 	H 	0.2831	0.3911	0.8297	0.134
Mof_H 	H 	0.3161	0.3863	0.8535	0.139
Mof_H 	H 	0.1995	0.3425	0.0015	0.027
Mof_H 	H 	0.2488	0.2986	0.997	0.02
Mof_H 	H 	0.269	0.3164	0.0412	0.128
Mof_H 	H 	0.2172	0.3106	0.0714	0.123
Mof_H 	H 	0.2219	0.3629	0.0433	0.133
Mof_H 	H 	0.4286	0.1656	0.4468	0.065
Mof_H 	H 	0.494	0.2684	0.2968	0.052
Mof_H 	H 	0.5396	0.1888	0.3242	0.038
Mof_H 	H 	0.3324	0.2696	0.4932	0.02
Mof_H 	H 	0.3781	0.2221	0.4925	0.035
Mof_H 	H 	0.43	0.2668	0.4506	0.143
Mof_H 	H 	0.3911	0.2831	0.4961	0.134
Mof_H 	H 	0.3863	0.3161	0.4441	0.139
Mof_H 	H 	0.3425	0.1995	0.4565	0.026
Mof_H 	H 	0.2986	0.2488	0.4556	0.019
Mof_H 	H 	0.3164	0.269	0.3734	0.128
Mof_H 	H 	0.3106	0.2172	0.4008	0.124
Mof_H 	H 	0.3629	0.2219	0.3719	0.133
Mof_H 	H 	0.4286	0.959	0.1656	0.065
Mof_H 	H 	0.494	0.9408	0.2684	0.052
Mof_H 	H 	0.5396	0.9474	0.1888	0.038
Mof_H 	H 	0.3324	0.9048	0.2696	0.02
Mof_H 	H 	0.3781	0.9073	0.2221	0.035
Mof_H 	H 	0.43	0.8526	0.2668	0.143
Mof_H 	H 	0.3911	0.8297	0.2831	0.134
Mof_H 	H 	0.3863	0.8535	0.3161	0.139
Mof_H 	H 	0.3425	0.0015	0.1995	0.027
Mof_H 	H 	0.2986	0.997	0.2488	0.02
Mof_H 	H 	0.3164	0.0412	0.269	0.128
Mof_H 	H 	0.3106	0.0714	0.2172	0.123
Mof_H 	H 	0.3629	0.0433	0.2219	0.133
Mof_H 	H 	0.1656	0.4468	0.4286	0.065
Mof_H 	H 	0.2684	0.2968	0.494	0.052
Mof_H 	H 	0.1888	0.3242	0.5396	0.038
Mof_H 	H 	0.2696	0.4932	0.3324	0.02
Mof_H 	H 	0.2221	0.4925	0.3781	0.035
Mof_H 	H 	0.2668	0.4506	0.43	0.143
Mof_H 	H 	0.2831	0.4961	0.3911	0.134
Mof_H 	H 	0.3161	0.4441	0.3863	0.139
Mof_H 	H 	0.1995	0.4565	0.3425	0.026
Mof_H 	H 	0.2488	0.4556	0.2986	0.019
Mof_H 	H 	0.269	0.3734	0.3164	0.128
Mof_H 	H 	0.2172	0.4008	0.3106	0.124
Mof_H 	H 	0.2219	0.3719	0.3629	0.133
Mof_H 	H 	0.959	0.4286	0.4468	0.065
Mof_H 	H 	0.9408	0.494	0.2968	0.052
Mof_H 	H 	0.9474	0.5396	0.3242	0.038
Mof_H 	H 	0.9048	0.3324	0.4932	0.02
Mof_H 	H 	0.9073	0.3781	0.4925	0.035
Mof_H 	H 	0.8526	0.43	0.4506	0.143
Mof_H 	H 	0.8297	0.3911	0.4961	0.134
Mof_H 	H 	0.8535	0.3863	0.4441	0.139
Mof_H 	H 	0.0015	0.3425	0.4565	0.026
Mof_H 	H 	0.997	0.2986	0.4556	0.02
Mof_H 	H 	0.0412	0.3164	0.3734	0.128
Mof_H 	H 	0.0714	0.3106	0.4008	0.124
Mof_H 	H 	0.0433	0.3629	0.3719	0.133
Mof_H 	H 	0.4468	0.1656	0.959	0.065
Mof_H 	H 	0.2968	0.2684	0.9408	0.052
Mof_H 	H 	0.3242	0.1888	0.9474	0.038
Mof_H 	H 	0.4932	0.2696	0.9048	0.02
Mof_H 	H 	0.4925	0.2221	0.9073	0.035
Mof_H 	H 	0.4506	0.2668	0.8526	0.143
Mof_H 	H 	0.4961	0.2831	0.8297	0.134
Mof_H 	H 	0.4441	0.3161	0.8535	0.139
Mof_H 	H 	0.4565	0.1995	0.0015	0.027
Mof_H 	H 	0.4556	0.2488	0.997	0.02
Mof_H 	H 	0.3734	0.269	0.0412	0.128
Mof_H 	H 	0.4008	0.2172	0.0714	0.124
Mof_H 	H 	0.3719	0.2219	0.0433	0.133
Mof_H 	H 	0.1656	0.959	0.4468	0.065
Mof_H 	H 	0.2684	0.9408	0.2968	0.052
Mof_H 	H 	0.1888	0.9474	0.3242	0.038
Mof_H 	H 	0.2696	0.9048	0.4932	0.02
Mof_H 	H 	0.2221	0.9073	0.4925	0.035
Mof_H 	H 	0.2668	0.8526	0.4506	0.143
Mof_H 	H 	0.2831	0.8297	0.4961	0.134
Mof_H 	H 	0.3161	0.8535	0.4441	0.139
Mof_H 	H 	0.1995	0.0015	0.4565	0.027
Mof_H 	H 	0.2488	0.997	0.4556	0.02
Mof_H 	H 	0.269	0.0412	0.3734	0.128
Mof_H 	H 	0.2172	0.0714	0.4008	0.124
Mof_H 	H 	0.2219	0.0433	0.3719	0.133
Mof_H 	H 	0.4286	0.4468	0.959	0.065
Mof_H 	H 	0.494	0.2968	0.9408	0.052
Mof_H 	H 	0.5396	0.3242	0.9474	0.038
Mof_H 	H 	0.3324	0.4932	0.9048	0.02
Mof_H 	H 	0.3781	0.4925	0.9073	0.035
Mof_H 	H 	0.43	0.4506	0.8526	0.143
Mof_H 	H 	0.3911	0.4961	0.8297	0.134
Mof_H 	H 	0.3863	0.4441	0.8535	0.139
Mof_H 	H 	0.3425	0.4565	0.0015	0.026
Mof_H 	H 	0.2986	0.4556	0.997	0.02
Mof_H 	H 	0.3164	0.3734	0.0412	0.128
Mof_H 	H 	0.3106	0.4008	0.0714	0.124
Mof_H 	H 	0.3629	0.3719	0.0433	0.133
Mof_H 	H 	0.4468	0.4286	0.1656	0.065
Mof_H 	H 	0.2968	0.494	0.2684	0.052
Mof_H 	H 	0.3242	0.5396	0.1888	0.038
Mof_H 	H 	0.4932	0.3324	0.2696	0.02
Mof_H 	H 	0.4925	0.3781	0.2221	0.035
Mof_H 	H 	0.4506	0.43	0.2668	0.143
Mof_H 	H 	0.4961	0.3911	0.2831	0.134
Mof_H 	H 	0.4441	0.3863	0.3161	0.139
Mof_H 	H 	0.4565	0.3425	0.1995	0.026
Mof_H 	H 	0.4556	0.2986	0.2488	0.019
Mof_H 	H 	0.3734	0.3164	0.269	0.128
Mof_H 	H 	0.4008	0.3106	0.2172	0.124
Mof_H 	H 	0.3719	0.3629	0.2219	0.133
Mof_H 	H 	0.959	0.1656	0.4286	0.065
Mof_H 	H 	0.9408	0.2684	0.494	0.052
Mof_H 	H 	0.9474	0.1888	0.5396	0.038
Mof_H 	H 	0.9048	0.2696	0.3324	0.02
Mof_H 	H 	0.9073	0.2221	0.3781	0.035
Mof_H 	H 	0.8526	0.2668	0.43	0.143
Mof_H 	H 	0.8297	0.2831	0.3911	0.134
Mof_H 	H 	0.8535	0.3161	0.3863	0.139
Mof_H 	H 	0.0015	0.1995	0.3425	0.027
Mof_H 	H 	0.997	0.2488	0.2986	0.02
Mof_H 	H 	0.0412	0.269	0.3164	0.128
Mof_H 	H 	0.0714	0.2172	0.3106	0.123
Mof_H 	H 	0.0433	0.2219	0.3629	0.133
Mof_H 	H 	0.459	0.9468	0.9286	0.065
Mof_H 	H 	0.4408	0.7968	0.994	0.051
Mof_H 	H 	0.4474	0.8242	0.0396	0.039
Mof_H 	H 	0.4048	0.9932	0.8324	0.02
Mof_H 	H 	0.4073	0.9925	0.8781	0.035
Mof_H 	H 	0.3526	0.9506	0.93	0.143
Mof_H 	H 	0.3297	0.9961	0.8911	0.134
Mof_H 	H 	0.3535	0.9441	0.8863	0.139
Mof_H 	H 	0.5015	0.9565	0.8425	0.026
Mof_H 	H 	0.497	0.9556	0.7986	0.02
Mof_H 	H 	0.5412	0.8734	0.8164	0.128
Mof_H 	H 	0.5714	0.9008	0.8106	0.124
Mof_H 	H 	0.5433	0.8719	0.8629	0.134
Mof_H 	H 	0.9468	0.459	0.6656	0.065
Mof_H 	H 	0.7968	0.4408	0.7684	0.052
Mof_H 	H 	0.8242	0.4474	0.6888	0.038
Mof_H 	H 	0.9932	0.4048	0.7696	0.02
Mof_H 	H 	0.9925	0.4073	0.7221	0.035
Mof_H 	H 	0.9506	0.3526	0.7668	0.143
Mof_H 	H 	0.9961	0.3297	0.7831	0.134
Mof_H 	H 	0.9441	0.3535	0.8161	0.139
Mof_H 	H 	0.9565	0.5015	0.6995	0.026
Mof_H 	H 	0.9556	0.497	0.7488	0.02
Mof_H 	H 	0.8734	0.5412	0.769	0.128
Mof_H 	H 	0.9008	0.5714	0.7172	0.124
Mof_H 	H 	0.8719	0.5433	0.7219	0.133
Mof_H 	H 	0.9286	0.6656	0.459	0.065
Mof_H 	H 	0.994	0.7684	0.4408	0.052
Mof_H 	H 	0.0396	0.6888	0.4474	0.039
Mof_H 	H 	0.8324	0.7696	0.4048	0.02
Mof_H 	H 	0.8781	0.7221	0.4073	0.035
Mof_H 	H 	0.93	0.7668	0.3526	0.143
Mof_H 	H 	0.8911	0.7831	0.3297	0.134
Mof_H 	H 	0.8863	0.8161	0.3535	0.139
Mof_H 	H 	0.8425	0.6995	0.5015	0.026
Mof_H 	H 	0.7986	0.7488	0.497	0.019
Mof_H 	H 	0.8164	0.769	0.5412	0.128
Mof_H 	H 	0.8106	0.7172	0.5714	0.124
Mof_H 	H 	0.8629	0.7219	0.5433	0.134
Mof_H 	H 	0.6656	0.9286	0.9468	0.065
Mof_H 	H 	0.7684	0.994	0.7968	0.051
Mof_H 	H 	0.6888	0.0396	0.8242	0.039
Mof_H 	H 	0.7696	0.8324	0.9932	0.02
Mof_H 	H 	0.7221	0.8781	0.9925	0.035
Mof_H 	H 	0.7668	0.93	0.9506	0.143
Mof_H 	H 	0.7831	0.8911	0.9961	0.134
Mof_H 	H 	0.8161	0.8863	0.9441	0.139
Mof_H 	H 	0.6995	0.8425	0.9565	0.026
Mof_H 	H 	0.7488	0.7986	0.9556	0.02
Mof_H 	H 	0.769	0.8164	0.8734	0.128
Mof_H 	H 	0.7172	0.8106	0.9008	0.124
Mof_H 	H 	0.7219	0.8629	0.8719	0.134
Mof_H 	H 	0.459	0.9286	0.6656	0.065
Mof_H 	H 	0.4408	0.994	0.7684	0.052
Mof_H 	H 	0.4474	0.0396	0.6888	0.039
Mof_H 	H 	0.4048	0.8324	0.7696	0.02
Mof_H 	H 	0.4073	0.8781	0.7221	0.035
Mof_H 	H 	0.3526	0.93	0.7668	0.143
Mof_H 	H 	0.3297	0.8911	0.7831	0.134
Mof_H 	H 	0.3535	0.8863	0.8161	0.139
Mof_H 	H 	0.5015	0.8425	0.6995	0.026
Mof_H 	H 	0.497	0.7986	0.7488	0.019
Mof_H 	H 	0.5412	0.8164	0.769	0.128
Mof_H 	H 	0.5714	0.8106	0.7172	0.124
Mof_H 	H 	0.5433	0.8629	0.7219	0.134
Mof_H 	H 	0.9468	0.6656	0.9286	0.065
Mof_H 	H 	0.7968	0.7684	0.994	0.051
Mof_H 	H 	0.8242	0.6888	0.0396	0.039
Mof_H 	H 	0.9932	0.7696	0.8324	0.02
Mof_H 	H 	0.9925	0.7221	0.8781	0.035
Mof_H 	H 	0.9506	0.7668	0.93	0.143
Mof_H 	H 	0.9961	0.7831	0.8911	0.134
Mof_H 	H 	0.9441	0.8161	0.8863	0.139
Mof_H 	H 	0.9565	0.6995	0.8425	0.026
Mof_H 	H 	0.9556	0.7488	0.7986	0.02
Mof_H 	H 	0.8734	0.769	0.8164	0.128
Mof_H 	H 	0.9008	0.7172	0.8106	0.124
Mof_H 	H 	0.8719	0.7219	0.8629	0.134
Mof_H 	H 	0.9286	0.459	0.9468	0.065
Mof_H 	H 	0.994	0.4408	0.7968	0.051
Mof_H 	H 	0.0396	0.4474	0.8242	0.039
Mof_H 	H 	0.8324	0.4048	0.9932	0.02
Mof_H 	H 	0.8781	0.4073	0.9925	0.035
Mof_H 	H 	0.93	0.3526	0.9506	0.143
Mof_H 	H 	0.8911	0.3297	0.9961	0.134
Mof_H 	H 	0.8863	0.3535	0.9441	0.139
Mof_H 	H 	0.8425	0.5015	0.9565	0.026
Mof_H 	H 	0.7986	0.497	0.9556	0.02
Mof_H 	H 	0.8164	0.5412	0.8734	0.128
Mof_H 	H 	0.8106	0.5714	0.9008	0.124
Mof_H 	H 	0.8629	0.5433	0.8719	0.134
Mof_H 	H 	0.6656	0.9468	0.459	0.065
Mof_H 	H 	0.7684	0.7968	0.4408	0.052
Mof_H 	H 	0.6888	0.8242	0.4474	0.038
Mof_H 	H 	0.7696	0.9932	0.4048	0.02
Mof_H 	H 	0.7221	0.9925	0.4073	0.035
Mof_H 	H 	0.7668	0.9506	0.3526	0.143
Mof_H 	H 	0.7831	0.9961	0.3297	0.134
Mof_H 	H 	0.8161	0.9441	0.3535	0.139
Mof_H 	H 	0.6995	0.9565	0.5015	0.026
Mof_H 	H 	0.7488	0.9556	0.497	0.02
Mof_H 	H 	0.769	0.8734	0.5412	0.128
Mof_H 	H 	0.7172	0.9008	0.5714	0.124
Mof_H 	H 	0.7219	0.8719	0.5433	0.133
Mof_H 	H 	0.459	0.6656	0.9468	0.065
Mof_H 	H 	0.4408	0.7684	0.7968	0.052
Mof_H 	H 	0.4474	0.6888	0.8242	0.038
Mof_H 	H 	0.4048	0.7696	0.9932	0.02
Mof_H 	H 	0.4073	0.7221	0.9925	0.035
Mof_H 	H 	0.3526	0.7668	0.9506	0.143
Mof_H 	H 	0.3297	0.7831	0.9961	0.134
Mof_H 	H 	0.3535	0.8161	0.9441	0.139
Mof_H 	H 	0.5015	0.6995	0.9565	0.026
Mof_H 	H 	0.497	0.7488	0.9556	0.02
Mof_H 	H 	0.5412	0.769	0.8734	0.128
Mof_H 	H 	0.5714	0.7172	0.9008	0.124
Mof_H 	H 	0.5433	0.7219	0.8719	0.133
Mof_H 	H 	0.9468	0.9286	0.459	0.065
Mof_H 	H 	0.7968	0.994	0.4408	0.051
Mof_H 	H 	0.8242	0.0396	0.4474	0.039
Mof_H 	H 	0.9932	0.8324	0.4048	0.02
Mof_H 	H 	0.9925	0.8781	0.4073	0.035
Mof_H 	H 	0.9506	0.93	0.3526	0.143
Mof_H 	H 	0.9961	0.8911	0.3297	0.134
Mof_H 	H 	0.9441	0.8863	0.3535	0.139
Mof_H 	H 	0.9565	0.8425	0.5015	0.026
Mof_H 	H 	0.9556	0.7986	0.497	0.02
Mof_H 	H 	0.8734	0.8164	0.5412	0.128
Mof_H 	H 	0.9008	0.8106	0.5714	0.124
Mof_H 	H 	0.8719	0.8629	0.5433	0.134
Mof_H 	H 	0.9286	0.9468	0.6656	0.065
Mof_H 	H 	0.994	0.7968	0.7684	0.051
Mof_H 	H 	0.0396	0.8242	0.6888	0.039
Mof_H 	H 	0.8324	0.9932	0.7696	0.02
Mof_H 	H 	0.8781	0.9925	0.7221	0.035
Mof_H 	H 	0.93	0.9506	0.7668	0.143
Mof_H 	H 	0.8911	0.9961	0.7831	0.134
Mof_H 	H 	0.8863	0.9441	0.8161	0.139
Mof_H 	H 	0.8425	0.9565	0.6995	0.026
Mof_H 	H 	0.7986	0.9556	0.7488	0.02
Mof_H 	H 	0.8164	0.8734	0.769	0.128
Mof_H 	H 	0.8106	0.9008	0.7172	0.124
Mof_H 	H 	0.8629	0.8719	0.7219	0.134
Mof_H 	H 	0.6656	0.459	0.9286	0.065
Mof_H 	H 	0.7684	0.4408	0.994	0.052
Mof_H 	H 	0.6888	0.4474	0.0396	0.039
Mof_H 	H 	0.7696	0.4048	0.8324	0.02
Mof_H 	H 	0.7221	0.4073	0.8781	0.035
Mof_H 	H 	0.7668	0.3526	0.93	0.143
Mof_H 	H 	0.7831	0.3297	0.8911	0.134
Mof_H 	H 	0.8161	0.3535	0.8863	0.139
Mof_H 	H 	0.6995	0.5015	0.8425	0.026
Mof_H 	H 	0.7488	0.497	0.7986	0.019
Mof_H 	H 	0.769	0.5412	0.8164	0.128
Mof_H 	H 	0.7172	0.5714	0.8106	0.124
Mof_H 	H 	0.7219	0.5433	0.8629	0.134
Mof_H 	H 	0.5532	0.041	0.5714	0.065
Mof_H 	H 	0.7032	0.0592	0.506	0.052
Mof_H 	H 	0.6758	0.0526	0.4604	0.038
Mof_H 	H 	0.5068	0.0952	0.6676	0.02
Mof_H 	H 	0.5075	0.0927	0.6219	0.035
Mof_H 	H 	0.5494	0.1474	0.57	0.143
Mof_H 	H 	0.5039	0.1703	0.6089	0.134
Mof_H 	H 	0.5559	0.1465	0.6137	0.139
Mof_H 	H 	0.5435	0.9985	0.6575	0.026
Mof_H 	H 	0.5444	0.003	0.7014	0.02
Mof_H 	H 	0.6266	0.9588	0.6836	0.128
Mof_H 	H 	0.5992	0.9286	0.6894	0.124
Mof_H 	H 	0.6281	0.9567	0.6371	0.133
Mof_H 	H 	0.041	0.5532	0.8344	0.065
Mof_H 	H 	0.0592	0.7032	0.7316	0.052
Mof_H 	H 	0.0526	0.6758	0.8112	0.038
Mof_H 	H 	0.0952	0.5068	0.7304	0.02
Mof_H 	H 	0.0927	0.5075	0.7779	0.035
Mof_H 	H 	0.1474	0.5494	0.7332	0.143
Mof_H 	H 	0.1703	0.5039	0.7169	0.134
Mof_H 	H 	0.1465	0.5559	0.6839	0.139
Mof_H 	H 	0.9985	0.5435	0.8005	0.027
Mof_H 	H 	0.003	0.5444	0.7512	0.02
Mof_H 	H 	0.9588	0.6266	0.731	0.128
Mof_H 	H 	0.9286	0.5992	0.7828	0.124
Mof_H 	H 	0.9567	0.6281	0.7781	0.133
Mof_H 	H 	0.8344	0.5714	0.041	0.065
Mof_H 	H 	0.7316	0.506	0.0592	0.052
Mof_H 	H 	0.8112	0.4604	0.0526	0.038
Mof_H 	H 	0.7304	0.6676	0.0952	0.02
Mof_H 	H 	0.7779	0.6219	0.0927	0.035
Mof_H 	H 	0.7332	0.57	0.1474	0.143
Mof_H 	H 	0.7169	0.6089	0.1703	0.134
Mof_H 	H 	0.6839	0.6137	0.1465	0.139
Mof_H 	H 	0.8005	0.6575	0.9985	0.027
Mof_H 	H 	0.7512	0.7014	0.003	0.02
Mof_H 	H 	0.731	0.6836	0.9588	0.128
Mof_H 	H 	0.7828	0.6894	0.9286	0.123
Mof_H 	H 	0.7781	0.6371	0.9567	0.133
Mof_H 	H 	0.5714	0.8344	0.5532	0.065
Mof_H 	H 	0.506	0.7316	0.7032	0.052
Mof_H 	H 	0.4604	0.8112	0.6758	0.038
Mof_H 	H 	0.6676	0.7304	0.5068	0.02
Mof_H 	H 	0.6219	0.7779	0.5075	0.035
Mof_H 	H 	0.57	0.7332	0.5494	0.143
Mof_H 	H 	0.6089	0.7169	0.5039	0.134
Mof_H 	H 	0.6137	0.6839	0.5559	0.139
Mof_H 	H 	0.6575	0.8005	0.5435	0.026
Mof_H 	H 	0.7014	0.7512	0.5444	0.019
Mof_H 	H 	0.6836	0.731	0.6266	0.128
Mof_H 	H 	0.6894	0.7828	0.5992	0.124
Mof_H 	H 	0.6371	0.7781	0.6281	0.133
Mof_H 	H 	0.5714	0.041	0.8344	0.065
Mof_H 	H 	0.506	0.0592	0.7316	0.052
Mof_H 	H 	0.4604	0.0526	0.8112	0.038
Mof_H 	H 	0.6676	0.0952	0.7304	0.02
Mof_H 	H 	0.6219	0.0927	0.7779	0.035
Mof_H 	H 	0.57	0.1474	0.7332	0.143
Mof_H 	H 	0.6089	0.1703	0.7169	0.134
Mof_H 	H 	0.6137	0.1465	0.6839	0.139
Mof_H 	H 	0.6575	0.9985	0.8005	0.027
Mof_H 	H 	0.7014	0.003	0.7512	0.02
Mof_H 	H 	0.6836	0.9588	0.731	0.128
Mof_H 	H 	0.6894	0.9286	0.7828	0.123
Mof_H 	H 	0.6371	0.9567	0.7781	0.133
Mof_H 	H 	0.8344	0.5532	0.5714	0.065
Mof_H 	H 	0.7316	0.7032	0.506	0.052
Mof_H 	H 	0.8112	0.6758	0.4604	0.038
Mof_H 	H 	0.7304	0.5068	0.6676	0.02
Mof_H 	H 	0.7779	0.5075	0.6219	0.035
Mof_H 	H 	0.7332	0.5494	0.57	0.143
Mof_H 	H 	0.7169	0.5039	0.6089	0.134
Mof_H 	H 	0.6839	0.5559	0.6137	0.139
Mof_H 	H 	0.8005	0.5435	0.6575	0.026
Mof_H 	H 	0.7512	0.5444	0.7014	0.019
Mof_H 	H 	0.731	0.6266	0.6836	0.128
Mof_H 	H 	0.7828	0.5992	0.6894	0.124
Mof_H 	H 	0.7781	0.6281	0.6371	0.133
Mof_H 	H 	0.041	0.5714	0.5532	0.065
Mof_H 	H 	0.0592	0.506	0.7032	0.052
Mof_H 	H 	0.0526	0.4604	0.6758	0.038
Mof_H 	H 	0.0952	0.6676	0.5068	0.02
Mof_H 	H 	0.0927	0.6219	0.5075	0.035
Mof_H 	H 	0.1474	0.57	0.5494	0.143
Mof_H 	H 	0.1703	0.6089	0.5039	0.134
Mof_H 	H 	0.1465	0.6137	0.5559	0.139
Mof_H 	H 	0.9985	0.6575	0.5435	0.026
Mof_H 	H 	0.003	0.7014	0.5444	0.02
Mof_H 	H 	0.9588	0.6836	0.6266	0.128
Mof_H 	H 	0.9286	0.6894	0.5992	0.124
Mof_H 	H 	0.9567	0.6371	0.6281	0.133
Mof_H 	H 	0.5532	0.8344	0.041	0.065
Mof_H 	H 	0.7032	0.7316	0.0592	0.052
Mof_H 	H 	0.6758	0.8112	0.0526	0.038
Mof_H 	H 	0.5068	0.7304	0.0952	0.02
Mof_H 	H 	0.5075	0.7779	0.0927	0.035
Mof_H 	H 	0.5494	0.7332	0.1474	0.143
Mof_H 	H 	0.5039	0.7169	0.1703	0.134
Mof_H 	H 	0.5559	0.6839	0.1465	0.139
Mof_H 	H 	0.5435	0.8005	0.9985	0.027
Mof_H 	H 	0.5444	0.7512	0.003	0.02
Mof_H 	H 	0.6266	0.731	0.9588	0.128
Mof_H 	H 	0.5992	0.7828	0.9286	0.124
Mof_H 	H 	0.6281	0.7781	0.9567	0.133
Mof_H 	H 	0.8344	0.041	0.5532	0.065
Mof_H 	H 	0.7316	0.0592	0.7032	0.052
Mof_H 	H 	0.8112	0.0526	0.6758	0.038
Mof_H 	H 	0.7304	0.0952	0.5068	0.02
Mof_H 	H 	0.7779	0.0927	0.5075	0.035
Mof_H 	H 	0.7332	0.1474	0.5494	0.143
Mof_H 	H 	0.7169	0.1703	0.5039	0.134
Mof_H 	H 	0.6839	0.1465	0.5559	0.139
Mof_H 	H 	0.8005	0.9985	0.5435	0.027
Mof_H 	H 	0.7512	0.003	0.5444	0.02
Mof_H 	H 	0.731	0.9588	0.6266	0.128
Mof_H 	H 	0.7828	0.9286	0.5992	0.124
Mof_H 	H 	0.7781	0.9567	0.6281	0.133
Mof_H 	H 	0.5714	0.5532	0.041	0.065
Mof_H 	H 	0.506	0.7032	0.0592	0.052
Mof_H 	H 	0.4604	0.6758	0.0526	0.038
Mof_H 	H 	0.6676	0.5068	0.0952	0.02
Mof_H 	H 	0.6219	0.5075	0.0927	0.035
Mof_H 	H 	0.57	0.5494	0.1474	0.143
Mof_H 	H 	0.6089	0.5039	0.1703	0.134
Mof_H 	H 	0.6137	0.5559	0.1465	0.139
Mof_H 	H 	0.6575	0.5435	0.9985	0.026
Mof_H 	H 	0.7014	0.5444	0.003	0.02
Mof_H 	H 	0.6836	0.6266	0.9588	0.128
Mof_H 	H 	0.6894	0.5992	0.9286	0.124
Mof_H 	H 	0.6371	0.6281	0.9567	0.133
Mof_H 	H 	0.5532	0.5714	0.8344	0.065
Mof_H 	H 	0.7032	0.506	0.7316	0.052
Mof_H 	H 	0.6758	0.4604	0.8112	0.038
Mof_H 	H 	0.5068	0.6676	0.7304	0.02
Mof_H 	H 	0.5075	0.6219	0.7779	0.035
Mof_H 	H 	0.5494	0.57	0.7332	0.143
Mof_H 	H 	0.5039	0.6089	0.7169	0.134
Mof_H 	H 	0.5559	0.6137	0.6839	0.139
Mof_H 	H 	0.5435	0.6575	0.8005	0.026
Mof_H 	H 	0.5444	0.7014	0.7512	0.019
Mof_H 	H 	0.6266	0.6836	0.731	0.128
Mof_H 	H 	0.5992	0.6894	0.7828	0.124
Mof_H 	H 	0.6281	0.6371	0.7781	0.133
Mof_H 	H 	0.041	0.8344	0.5714	0.065
Mof_H 	H 	0.0592	0.7316	0.506	0.052
Mof_H 	H 	0.0526	0.8112	0.4604	0.038
Mof_H 	H 	0.0952	0.7304	0.6676	0.02
Mof_H 	H 	0.0927	0.7779	0.6219	0.035
Mof_H 	H 	0.1474	0.7332	0.57	0.143
Mof_H 	H 	0.1703	0.7169	0.6089	0.134
Mof_H 	H 	0.1465	0.6839	0.6137	0.139
Mof_H 	H 	0.9985	0.8005	0.6575	0.027
Mof_H 	H 	0.003	0.7512	0.7014	0.02
Mof_H 	H 	0.9588	0.731	0.6836	0.128
Mof_H 	H 	0.9286	0.7828	0.6894	0.123
Mof_H 	H 	0.9567	0.7781	0.6371	0.133
Mof_C 	C 	0.53688	0.09816	0.98204	0.297
Mof_C 	C 	0.54511	0.11247	0.01155	-0.061
Mof_C 	C 	0.54441	0.08363	0.05817	-0.043
Mof_C 	C 	0.54878	0.09998	0.08492	0.003
Mof_C 	C 	0.55343	0.14451	0.06709	0.014
Mof_C 	C 	0.55523	0.17297	0.01947	-0.08
Mof_C 	C 	0.55119	0.15659	0.99265	-0.007
Mof_C 	C 	0.55007	0.07287	0.13547	-0.034
Mof_C 	C 	0.55573	0.15149	0.10543	-0.033
Mof_C 	C 	0.55493	0.10863	0.14575	0.006
Mof_C 	C 	0.59539	0.02641	0.13437	0.013
Mof_C 	C 	0.6445	0.0347	0.1039	-0.396
Mof_C 	C 	0.50183	0.06329	0.16845	0.018
Mof_C 	C 	0.45743	0.10837	0.16977	-0.385
Mof_C 	C 	0.09816	0.53688	0.38292	0.298
Mof_C 	C 	0.11247	0.54511	0.33087	-0.063
Mof_C 	C 	0.08363	0.54441	0.31379	-0.042
Mof_C 	C 	0.09998	0.54878	0.26632	0.003
Mof_C 	C 	0.14451	0.55343	0.23497	0.014
Mof_C 	C 	0.17297	0.55523	0.25233	-0.081
Mof_C 	C 	0.15659	0.55119	0.29957	-0.006
Mof_C 	C 	0.07287	0.55007	0.24159	-0.034
Mof_C 	C 	0.15149	0.55573	0.18735	-0.033
Mof_C 	C 	0.10863	0.55493	0.19069	0.006
Mof_C 	C 	0.02641	0.59539	0.24383	0.013
Mof_C 	C 	0.0347	0.6445	0.2169	-0.396
Mof_C 	C 	0.06329	0.50183	0.26643	0.018
Mof_C 	C 	0.10837	0.45743	0.26443	-0.385
Mof_C 	C 	0.98204	0.38292	0.53688	0.298
Mof_C 	C 	0.01155	0.33087	0.54511	-0.062
Mof_C 	C 	0.05817	0.31379	0.54441	-0.042
Mof_C 	C 	0.08492	0.26632	0.54878	0.003
Mof_C 	C 	0.06709	0.23497	0.55343	0.014
Mof_C 	C 	0.01947	0.25233	0.55523	-0.081
Mof_C 	C 	0.99265	0.29957	0.55119	-0.006
Mof_C 	C 	0.13547	0.24159	0.55007	-0.034
Mof_C 	C 	0.10543	0.18735	0.55573	-0.033
Mof_C 	C 	0.14575	0.19069	0.55493	0.006
Mof_C 	C 	0.13437	0.24383	0.59539	0.013
Mof_C 	C 	0.1039	0.2169	0.6445	-0.396
Mof_C 	C 	0.16845	0.26643	0.50183	0.018
Mof_C 	C 	0.16977	0.26443	0.45743	-0.385
Mof_C 	C 	0.38292	0.98204	0.09816	0.296
Mof_C 	C 	0.33087	0.01155	0.11247	-0.061
Mof_C 	C 	0.31379	0.05817	0.08363	-0.043
Mof_C 	C 	0.26632	0.08492	0.09998	0.004
Mof_C 	C 	0.23497	0.06709	0.14451	0.013
Mof_C 	C 	0.25233	0.01947	0.17297	-0.079
Mof_C 	C 	0.29957	0.99265	0.15659	-0.008
Mof_C 	C 	0.24159	0.13547	0.07287	-0.034
Mof_C 	C 	0.18735	0.10543	0.15149	-0.033
Mof_C 	C 	0.19069	0.14575	0.10863	0.006
Mof_C 	C 	0.24383	0.13437	0.02641	0.013
Mof_C 	C 	0.2169	0.1039	0.0347	-0.396
Mof_C 	C 	0.26643	0.16845	0.06329	0.018
Mof_C 	C 	0.26443	0.16977	0.10837	-0.385
Mof_C 	C 	0.53688	0.98204	0.38292	0.298
Mof_C 	C 	0.54511	0.01155	0.33087	-0.062
Mof_C 	C 	0.54441	0.05817	0.31379	-0.042
Mof_C 	C 	0.54878	0.08492	0.26632	0.003
Mof_C 	C 	0.55343	0.06709	0.23497	0.014
Mof_C 	C 	0.55523	0.01947	0.25233	-0.081
Mof_C 	C 	0.55119	0.99265	0.29957	-0.006
Mof_C 	C 	0.55007	0.13547	0.24159	-0.034
Mof_C 	C 	0.55573	0.10543	0.18735	-0.033
Mof_C 	C 	0.55493	0.14575	0.19069	0.006
Mof_C 	C 	0.59539	0.13437	0.24383	0.013
Mof_C 	C 	0.6445	0.1039	0.2169	-0.396
Mof_C 	C 	0.50183	0.16845	0.26643	0.018
Mof_C 	C 	0.45743	0.16977	0.26443	-0.385
Mof_C 	C 	0.09816	0.38292	0.98204	0.296
Mof_C 	C 	0.11247	0.33087	0.01155	-0.061
Mof_C 	C 	0.08363	0.31379	0.05817	-0.043
Mof_C 	C 	0.09998	0.26632	0.08492	0.004
Mof_C 	C 	0.14451	0.23497	0.06709	0.013
Mof_C 	C 	0.17297	0.25233	0.01947	-0.079
Mof_C 	C 	0.15659	0.29957	0.99265	-0.008
Mof_C 	C 	0.07287	0.24159	0.13547	-0.034
Mof_C 	C 	0.15149	0.18735	0.10543	-0.033
Mof_C 	C 	0.10863	0.19069	0.14575	0.006
Mof_C 	C 	0.02641	0.24383	0.13437	0.013
Mof_C 	C 	0.0347	0.2169	0.1039	-0.396
Mof_C 	C 	0.06329	0.26643	0.16845	0.018
Mof_C 	C 	0.10837	0.26443	0.16977	-0.385
Mof_C 	C 	0.98204	0.53688	0.09816	0.297
Mof_C 	C 	0.01155	0.54511	0.11247	-0.061
Mof_C 	C 	0.05817	0.54441	0.08363	-0.043
Mof_C 	C 	0.08492	0.54878	0.09998	0.003
Mof_C 	C 	0.06709	0.55343	0.14451	0.014
Mof_C 	C 	0.01947	0.55523	0.17297	-0.08
Mof_C 	C 	0.99265	0.55119	0.15659	-0.007
Mof_C 	C 	0.13547	0.55007	0.07287	-0.034
Mof_C 	C 	0.10543	0.55573	0.15149	-0.033
Mof_C 	C 	0.14575	0.55493	0.10863	0.006
Mof_C 	C 	0.13437	0.59539	0.02641	0.013
Mof_C 	C 	0.1039	0.6445	0.0347	-0.396
Mof_C 	C 	0.16845	0.50183	0.06329	0.018
Mof_C 	C 	0.16977	0.45743	0.10837	-0.385
Mof_C 	C 	0.38292	0.09816	0.53688	0.298
Mof_C 	C 	0.33087	0.11247	0.54511	-0.063
Mof_C 	C 	0.31379	0.08363	0.54441	-0.042
Mof_C 	C 	0.26632	0.09998	0.54878	0.003
Mof_C 	C 	0.23497	0.14451	0.55343	0.014
Mof_C 	C 	0.25233	0.17297	0.55523	-0.081
Mof_C 	C 	0.29957	0.15659	0.55119	-0.006
Mof_C 	C 	0.24159	0.07287	0.55007	-0.034
Mof_C 	C 	0.18735	0.15149	0.55573	-0.033
Mof_C 	C 	0.19069	0.10863	0.55493	0.006
Mof_C 	C 	0.24383	0.02641	0.59539	0.013
Mof_C 	C 	0.2169	0.0347	0.6445	-0.396
Mof_C 	C 	0.26643	0.06329	0.50183	0.018
Mof_C 	C 	0.26443	0.10837	0.45743	-0.385
Mof_C 	C 	0.53688	0.38292	0.09816	0.298
Mof_C 	C 	0.54511	0.33087	0.11247	-0.063
Mof_C 	C 	0.54441	0.31379	0.08363	-0.042
Mof_C 	C 	0.54878	0.26632	0.09998	0.003
Mof_C 	C 	0.55343	0.23497	0.14451	0.014
Mof_C 	C 	0.55523	0.25233	0.17297	-0.081
Mof_C 	C 	0.55119	0.29957	0.15659	-0.006
Mof_C 	C 	0.55007	0.24159	0.07287	-0.034
Mof_C 	C 	0.55573	0.18735	0.15149	-0.033
Mof_C 	C 	0.55493	0.19069	0.10863	0.006
Mof_C 	C 	0.59539	0.24383	0.02641	0.013
Mof_C 	C 	0.6445	0.2169	0.0347	-0.396
Mof_C 	C 	0.50183	0.26643	0.06329	0.018
Mof_C 	C 	0.45743	0.26443	0.10837	-0.385
Mof_C 	C 	0.09816	0.98204	0.53688	0.297
Mof_C 	C 	0.11247	0.01155	0.54511	-0.061
Mof_C 	C 	0.08363	0.05817	0.54441	-0.043
Mof_C 	C 	0.09998	0.08492	0.54878	0.003
Mof_C 	C 	0.14451	0.06709	0.55343	0.014
Mof_C 	C 	0.17297	0.01947	0.55523	-0.08
Mof_C 	C 	0.15659	0.99265	0.55119	-0.007
Mof_C 	C 	0.07287	0.13547	0.55007	-0.034
Mof_C 	C 	0.15149	0.10543	0.55573	-0.033
Mof_C 	C 	0.10863	0.14575	0.55493	0.006
Mof_C 	C 	0.02641	0.13437	0.59539	0.013
Mof_C 	C 	0.0347	0.1039	0.6445	-0.396
Mof_C 	C 	0.06329	0.16845	0.50183	0.018
Mof_C 	C 	0.10837	0.16977	0.45743	-0.385
Mof_C 	C 	0.98204	0.09816	0.38292	0.296
Mof_C 	C 	0.01155	0.11247	0.33087	-0.061
Mof_C 	C 	0.05817	0.08363	0.31379	-0.043
Mof_C 	C 	0.08492	0.09998	0.26632	0.004
Mof_C 	C 	0.06709	0.14451	0.23497	0.013
Mof_C 	C 	0.01947	0.17297	0.25233	-0.079
Mof_C 	C 	0.99265	0.15659	0.29957	-0.008
Mof_C 	C 	0.13547	0.07287	0.24159	-0.034
Mof_C 	C 	0.10543	0.15149	0.18735	-0.033
Mof_C 	C 	0.14575	0.10863	0.19069	0.006
Mof_C 	C 	0.13437	0.02641	0.24383	0.013
Mof_C 	C 	0.1039	0.0347	0.2169	-0.396
Mof_C 	C 	0.16845	0.06329	0.26643	0.018
Mof_C 	C 	0.16977	0.10837	0.26443	-0.385
Mof_C 	C 	0.38292	0.53688	0.98204	0.298
Mof_C 	C 	0.33087	0.54511	0.01155	-0.062
Mof_C 	C 	0.31379	0.54441	0.05817	-0.042
Mof_C 	C 	0.26632	0.54878	0.08492	0.003
Mof_C 	C 	0.23497	0.55343	0.06709	0.014
Mof_C 	C 	0.25233	0.55523	0.01947	-0.081
Mof_C 	C 	0.29957	0.55119	0.99265	-0.006
Mof_C 	C 	0.24159	0.55007	0.13547	-0.034
Mof_C 	C 	0.18735	0.55573	0.10543	-0.033
Mof_C 	C 	0.19069	0.55493	0.14575	0.006
Mof_C 	C 	0.24383	0.59539	0.13437	0.013
Mof_C 	C 	0.2169	0.6445	0.1039	-0.396
Mof_C 	C 	0.26643	0.50183	0.16845	0.018
Mof_C 	C 	0.26443	0.45743	0.16977	-0.385
Mof_C 	C 	0.40184	0.96312	0.51796	0.298
Mof_C 	C 	0.38753	0.95489	0.48845	-0.063
Mof_C 	C 	0.41637	0.95559	0.44183	-0.042
Mof_C 	C 	0.40002	0.95122	0.41508	0.003
Mof_C 	C 	0.35549	0.94657	0.43291	0.014
Mof_C 	C 	0.32703	0.94477	0.48053	-0.081
Mof_C 	C 	0.34341	0.94881	0.50735	-0.006
Mof_C 	C 	0.42713	0.94993	0.36453	-0.034
Mof_C 	C 	0.34851	0.94427	0.39457	-0.033
Mof_C 	C 	0.39137	0.94507	0.35425	0.006
Mof_C 	C 	0.47359	0.90461	0.36563	0.013
Mof_C 	C 	0.4653	0.8555	0.3961	-0.396
Mof_C 	C 	0.43671	0.99817	0.33155	0.017
Mof_C 	C 	0.39163	0.04257	0.33023	-0.384
Mof_C 	C 	0.96312	0.40184	0.11708	0.298
Mof_C 	C 	0.95489	0.38753	0.16913	-0.063
Mof_C 	C 	0.95559	0.41637	0.18621	-0.042
Mof_C 	C 	0.95122	0.40002	0.23368	0.003
Mof_C 	C 	0.94657	0.35549	0.26503	0.014
Mof_C 	C 	0.94477	0.32703	0.24767	-0.081
Mof_C 	C 	0.94881	0.34341	0.20043	-0.005
Mof_C 	C 	0.94993	0.42713	0.25841	-0.034
Mof_C 	C 	0.94427	0.34851	0.31265	-0.033
Mof_C 	C 	0.94507	0.39137	0.30931	0.006
Mof_C 	C 	0.90461	0.47359	0.25617	0.012
Mof_C 	C 	0.8555	0.4653	0.2831	-0.396
Mof_C 	C 	0.99817	0.43671	0.23357	0.016
Mof_C 	C 	0.04257	0.39163	0.23557	-0.384
Mof_C 	C 	0.11708	0.51796	0.96312	0.298
Mof_C 	C 	0.16913	0.48845	0.95489	-0.063
Mof_C 	C 	0.18621	0.44183	0.95559	-0.042
Mof_C 	C 	0.23368	0.41508	0.95122	0.003
Mof_C 	C 	0.26503	0.43291	0.94657	0.014
Mof_C 	C 	0.24767	0.48053	0.94477	-0.081
Mof_C 	C 	0.20043	0.50735	0.94881	-0.005
Mof_C 	C 	0.25841	0.36453	0.94993	-0.033
Mof_C 	C 	0.31265	0.39457	0.94427	-0.033
Mof_C 	C 	0.30931	0.35425	0.94507	0.006
Mof_C 	C 	0.25617	0.36563	0.90461	0.012
Mof_C 	C 	0.2831	0.3961	0.8555	-0.396
Mof_C 	C 	0.23357	0.33155	0.99817	0.016
Mof_C 	C 	0.23557	0.33023	0.04257	-0.383
Mof_C 	C 	0.51796	0.11708	0.40184	0.298
Mof_C 	C 	0.48845	0.16913	0.38753	-0.063
Mof_C 	C 	0.44183	0.18621	0.41637	-0.042
Mof_C 	C 	0.41508	0.23368	0.40002	0.003
Mof_C 	C 	0.43291	0.26503	0.35549	0.014
Mof_C 	C 	0.48053	0.24767	0.32703	-0.081
Mof_C 	C 	0.50735	0.20043	0.34341	-0.006
Mof_C 	C 	0.36453	0.25841	0.42713	-0.034
Mof_C 	C 	0.39457	0.31265	0.34851	-0.033
Mof_C 	C 	0.35425	0.30931	0.39137	0.006
Mof_C 	C 	0.36563	0.25617	0.47359	0.013
Mof_C 	C 	0.3961	0.2831	0.4653	-0.396
Mof_C 	C 	0.33155	0.23357	0.43671	0.018
Mof_C 	C 	0.33023	0.23557	0.39163	-0.385
Mof_C 	C 	0.51796	0.96312	0.11708	0.298
Mof_C 	C 	0.48845	0.95489	0.16913	-0.063
Mof_C 	C 	0.44183	0.95559	0.18621	-0.042
Mof_C 	C 	0.41508	0.95122	0.23368	0.003
Mof_C 	C 	0.43291	0.94657	0.26503	0.014
Mof_C 	C 	0.48053	0.94477	0.24767	-0.081
Mof_C 	C 	0.50735	0.94881	0.20043	-0.005
Mof_C 	C 	0.36453	0.94993	0.25841	-0.033
Mof_C 	C 	0.39457	0.94427	0.31265	-0.033
Mof_C 	C 	0.35425	0.94507	0.30931	0.006
Mof_C 	C 	0.36563	0.90461	0.25617	0.012
Mof_C 	C 	0.3961	0.8555	0.2831	-0.396
Mof_C 	C 	0.33155	0.99817	0.23357	0.016
Mof_C 	C 	0.33023	0.04257	0.23557	-0.383
Mof_C 	C 	0.11708	0.40184	0.51796	0.298
Mof_C 	C 	0.16913	0.38753	0.48845	-0.063
Mof_C 	C 	0.18621	0.41637	0.44183	-0.042
Mof_C 	C 	0.23368	0.40002	0.41508	0.003
Mof_C 	C 	0.26503	0.35549	0.43291	0.014
Mof_C 	C 	0.24767	0.32703	0.48053	-0.081
Mof_C 	C 	0.20043	0.34341	0.50735	-0.006
Mof_C 	C 	0.25841	0.42713	0.36453	-0.034
Mof_C 	C 	0.31265	0.34851	0.39457	-0.033
Mof_C 	C 	0.30931	0.39137	0.35425	0.006
Mof_C 	C 	0.25617	0.47359	0.36563	0.013
Mof_C 	C 	0.2831	0.4653	0.3961	-0.396
Mof_C 	C 	0.23357	0.43671	0.33155	0.018
Mof_C 	C 	0.23557	0.39163	0.33023	-0.385
Mof_C 	C 	0.96312	0.51796	0.40184	0.298
Mof_C 	C 	0.95489	0.48845	0.38753	-0.063
Mof_C 	C 	0.95559	0.44183	0.41637	-0.042
Mof_C 	C 	0.95122	0.41508	0.40002	0.003
Mof_C 	C 	0.94657	0.43291	0.35549	0.014
Mof_C 	C 	0.94477	0.48053	0.32703	-0.081
Mof_C 	C 	0.94881	0.50735	0.34341	-0.006
Mof_C 	C 	0.94993	0.36453	0.42713	-0.034
Mof_C 	C 	0.94427	0.39457	0.34851	-0.033
Mof_C 	C 	0.94507	0.35425	0.39137	0.006
Mof_C 	C 	0.90461	0.36563	0.47359	0.013
Mof_C 	C 	0.8555	0.3961	0.4653	-0.396
Mof_C 	C 	0.99817	0.33155	0.43671	0.017
Mof_C 	C 	0.04257	0.33023	0.39163	-0.384
Mof_C 	C 	0.40184	0.11708	0.96312	0.298
Mof_C 	C 	0.38753	0.16913	0.95489	-0.063
Mof_C 	C 	0.41637	0.18621	0.95559	-0.042
Mof_C 	C 	0.40002	0.23368	0.95122	0.003
Mof_C 	C 	0.35549	0.26503	0.94657	0.014
Mof_C 	C 	0.32703	0.24767	0.94477	-0.081
Mof_C 	C 	0.34341	0.20043	0.94881	-0.005
Mof_C 	C 	0.42713	0.25841	0.94993	-0.034
Mof_C 	C 	0.34851	0.31265	0.94427	-0.033
Mof_C 	C 	0.39137	0.30931	0.94507	0.006
Mof_C 	C 	0.47359	0.25617	0.90461	0.012
Mof_C 	C 	0.4653	0.2831	0.8555	-0.396
Mof_C 	C 	0.43671	0.23357	0.99817	0.016
Mof_C 	C 	0.39163	0.23557	0.04257	-0.384
Mof_C 	C 	0.11708	0.96312	0.40184	0.298
Mof_C 	C 	0.16913	0.95489	0.38753	-0.063
Mof_C 	C 	0.18621	0.95559	0.41637	-0.042
Mof_C 	C 	0.23368	0.95122	0.40002	0.003
Mof_C 	C 	0.26503	0.94657	0.35549	0.014
Mof_C 	C 	0.24767	0.94477	0.32703	-0.081
Mof_C 	C 	0.20043	0.94881	0.34341	-0.005
Mof_C 	C 	0.25841	0.94993	0.42713	-0.034
Mof_C 	C 	0.31265	0.94427	0.34851	-0.033
Mof_C 	C 	0.30931	0.94507	0.39137	0.006
Mof_C 	C 	0.25617	0.90461	0.47359	0.012
Mof_C 	C 	0.2831	0.8555	0.4653	-0.396
Mof_C 	C 	0.23357	0.99817	0.43671	0.016
Mof_C 	C 	0.23557	0.04257	0.39163	-0.384
Mof_C 	C 	0.51796	0.40184	0.96312	0.298
Mof_C 	C 	0.48845	0.38753	0.95489	-0.063
Mof_C 	C 	0.44183	0.41637	0.95559	-0.042
Mof_C 	C 	0.41508	0.40002	0.95122	0.003
Mof_C 	C 	0.43291	0.35549	0.94657	0.014
Mof_C 	C 	0.48053	0.32703	0.94477	-0.081
Mof_C 	C 	0.50735	0.34341	0.94881	-0.006
Mof_C 	C 	0.36453	0.42713	0.94993	-0.034
Mof_C 	C 	0.39457	0.34851	0.94427	-0.033
Mof_C 	C 	0.35425	0.39137	0.94507	0.006
Mof_C 	C 	0.36563	0.47359	0.90461	0.013
Mof_C 	C 	0.3961	0.4653	0.8555	-0.396
Mof_C 	C 	0.33155	0.43671	0.99817	0.017
Mof_C 	C 	0.33023	0.39163	0.04257	-0.384
Mof_C 	C 	0.40184	0.51796	0.11708	0.298
Mof_C 	C 	0.38753	0.48845	0.16913	-0.063
Mof_C 	C 	0.41637	0.44183	0.18621	-0.042
Mof_C 	C 	0.40002	0.41508	0.23368	0.003
Mof_C 	C 	0.35549	0.43291	0.26503	0.014
Mof_C 	C 	0.32703	0.48053	0.24767	-0.081
Mof_C 	C 	0.34341	0.50735	0.20043	-0.006
Mof_C 	C 	0.42713	0.36453	0.25841	-0.034
Mof_C 	C 	0.34851	0.39457	0.31265	-0.033
Mof_C 	C 	0.39137	0.35425	0.30931	0.006
Mof_C 	C 	0.47359	0.36563	0.25617	0.013
Mof_C 	C 	0.4653	0.3961	0.2831	-0.396
Mof_C 	C 	0.43671	0.33155	0.23357	0.018
Mof_C 	C 	0.39163	0.33023	0.23557	-0.385
Mof_C 	C 	0.96312	0.11708	0.51796	0.298
Mof_C 	C 	0.95489	0.16913	0.48845	-0.063
Mof_C 	C 	0.95559	0.18621	0.44183	-0.042
Mof_C 	C 	0.95122	0.23368	0.41508	0.003
Mof_C 	C 	0.94657	0.26503	0.43291	0.014
Mof_C 	C 	0.94477	0.24767	0.48053	-0.081
Mof_C 	C 	0.94881	0.20043	0.50735	-0.005
Mof_C 	C 	0.94993	0.25841	0.36453	-0.033
Mof_C 	C 	0.94427	0.31265	0.39457	-0.033
Mof_C 	C 	0.94507	0.30931	0.35425	0.006
Mof_C 	C 	0.90461	0.25617	0.36563	0.012
Mof_C 	C 	0.8555	0.2831	0.3961	-0.396
Mof_C 	C 	0.99817	0.23357	0.33155	0.016
Mof_C 	C 	0.04257	0.23557	0.33023	-0.383
Mof_C 	C 	0.46312	0.90184	0.01796	0.297
Mof_C 	C 	0.45489	0.88753	0.98845	-0.061
Mof_C 	C 	0.45559	0.91637	0.94183	-0.043
Mof_C 	C 	0.45122	0.90002	0.91508	0.003
Mof_C 	C 	0.44657	0.85549	0.93291	0.014
Mof_C 	C 	0.44477	0.82703	0.98053	-0.08
Mof_C 	C 	0.44881	0.84341	0.00735	-0.007
Mof_C 	C 	0.44993	0.92713	0.86453	-0.034
Mof_C 	C 	0.44427	0.84851	0.89457	-0.033
Mof_C 	C 	0.44507	0.89137	0.85425	0.006
Mof_C 	C 	0.40461	0.97359	0.86563	0.013
Mof_C 	C 	0.3555	0.9653	0.8961	-0.396
Mof_C 	C 	0.49817	0.93671	0.83155	0.018
Mof_C 	C 	0.54257	0.89163	0.83023	-0.385
Mof_C 	C 	0.90184	0.46312	0.61708	0.298
Mof_C 	C 	0.88753	0.45489	0.66913	-0.063
Mof_C 	C 	0.91637	0.45559	0.68621	-0.042
Mof_C 	C 	0.90002	0.45122	0.73368	0.003
Mof_C 	C 	0.85549	0.44657	0.76503	0.014
Mof_C 	C 	0.82703	0.44477	0.74767	-0.081
Mof_C 	C 	0.84341	0.44881	0.70043	-0.006
Mof_C 	C 	0.92713	0.44993	0.75841	-0.034
Mof_C 	C 	0.84851	0.44427	0.81265	-0.033
Mof_C 	C 	0.89137	0.44507	0.80931	0.006
Mof_C 	C 	0.97359	0.40461	0.75617	0.013
Mof_C 	C 	0.9653	0.3555	0.7831	-0.396
Mof_C 	C 	0.93671	0.49817	0.73357	0.018
Mof_C 	C 	0.89163	0.54257	0.73557	-0.385
Mof_C 	C 	0.01796	0.61708	0.46312	0.298
Mof_C 	C 	0.98845	0.66913	0.45489	-0.062
Mof_C 	C 	0.94183	0.68621	0.45559	-0.042
Mof_C 	C 	0.91508	0.73368	0.45122	0.003
Mof_C 	C 	0.93291	0.76503	0.44657	0.014
Mof_C 	C 	0.98053	0.74767	0.44477	-0.081
Mof_C 	C 	0.00735	0.70043	0.44881	-0.006
Mof_C 	C 	0.86453	0.75841	0.44993	-0.034
Mof_C 	C 	0.89457	0.81265	0.44427	-0.033
Mof_C 	C 	0.85425	0.80931	0.44507	0.006
Mof_C 	C 	0.86563	0.75617	0.40461	0.013
Mof_C 	C 	0.8961	0.7831	0.3555	-0.396
Mof_C 	C 	0.83155	0.73357	0.49817	0.018
Mof_C 	C 	0.83023	0.73557	0.54257	-0.385
Mof_C 	C 	0.61708	0.01796	0.90184	0.296
Mof_C 	C 	0.66913	0.98845	0.88753	-0.061
Mof_C 	C 	0.68621	0.94183	0.91637	-0.043
Mof_C 	C 	0.73368	0.91508	0.90002	0.004
Mof_C 	C 	0.76503	0.93291	0.85549	0.013
Mof_C 	C 	0.74767	0.98053	0.82703	-0.079
Mof_C 	C 	0.70043	0.00735	0.84341	-0.008
Mof_C 	C 	0.75841	0.86453	0.92713	-0.034
Mof_C 	C 	0.81265	0.89457	0.84851	-0.033
Mof_C 	C 	0.80931	0.85425	0.89137	0.006
Mof_C 	C 	0.75617	0.86563	0.97359	0.013
Mof_C 	C 	0.7831	0.8961	0.9653	-0.396
Mof_C 	C 	0.73357	0.83155	0.93671	0.018
Mof_C 	C 	0.73557	0.83023	0.89163	-0.385
Mof_C 	C 	0.46312	0.01796	0.61708	0.298
Mof_C 	C 	0.45489	0.98845	0.66913	-0.062
Mof_C 	C 	0.45559	0.94183	0.68621	-0.042
Mof_C 	C 	0.45122	0.91508	0.73368	0.003
Mof_C 	C 	0.44657	0.93291	0.76503	0.014
Mof_C 	C 	0.44477	0.98053	0.74767	-0.081
Mof_C 	C 	0.44881	0.00735	0.70043	-0.006
Mof_C 	C 	0.44993	0.86453	0.75841	-0.034
Mof_C 	C 	0.44427	0.89457	0.81265	-0.033
Mof_C 	C 	0.44507	0.85425	0.80931	0.006
Mof_C 	C 	0.40461	0.86563	0.75617	0.013
Mof_C 	C 	0.3555	0.8961	0.7831	-0.396
Mof_C 	C 	0.49817	0.83155	0.73357	0.018
Mof_C 	C 	0.54257	0.83023	0.73557	-0.385
Mof_C 	C 	0.90184	0.61708	0.01796	0.296
Mof_C 	C 	0.88753	0.66913	0.98845	-0.061
Mof_C 	C 	0.91637	0.68621	0.94183	-0.043
Mof_C 	C 	0.90002	0.73368	0.91508	0.004
Mof_C 	C 	0.85549	0.76503	0.93291	0.013
Mof_C 	C 	0.82703	0.74767	0.98053	-0.079
Mof_C 	C 	0.84341	0.70043	0.00735	-0.008
Mof_C 	C 	0.92713	0.75841	0.86453	-0.034
Mof_C 	C 	0.84851	0.81265	0.89457	-0.033
Mof_C 	C 	0.89137	0.80931	0.85425	0.006
Mof_C 	C 	0.97359	0.75617	0.86563	0.013
Mof_C 	C 	0.9653	0.7831	0.8961	-0.396
Mof_C 	C 	0.93671	0.73357	0.83155	0.018
Mof_C 	C 	0.89163	0.73557	0.83023	-0.385
Mof_C 	C 	0.01796	0.46312	0.90184	0.297
Mof_C 	C 	0.98845	0.45489	0.88753	-0.061
Mof_C 	C 	0.94183	0.45559	0.91637	-0.043
Mof_C 	C 	0.91508	0.45122	0.90002	0.003
Mof_C 	C 	0.93291	0.44657	0.85549	0.014
Mof_C 	C 	0.98053	0.44477	0.82703	-0.08
Mof_C 	C 	0.00735	0.44881	0.84341	-0.007
Mof_C 	C 	0.86453	0.44993	0.92713	-0.034
Mof_C 	C 	0.89457	0.44427	0.84851	-0.033
Mof_C 	C 	0.85425	0.44507	0.89137	0.006
Mof_C 	C 	0.86563	0.40461	0.97359	0.013
Mof_C 	C 	0.8961	0.3555	0.9653	-0.396
Mof_C 	C 	0.83155	0.49817	0.93671	0.018
Mof_C 	C 	0.83023	0.54257	0.89163	-0.385
Mof_C 	C 	0.61708	0.90184	0.46312	0.298
Mof_C 	C 	0.66913	0.88753	0.45489	-0.063
Mof_C 	C 	0.68621	0.91637	0.45559	-0.042
Mof_C 	C 	0.73368	0.90002	0.45122	0.003
Mof_C 	C 	0.76503	0.85549	0.44657	0.014
Mof_C 	C 	0.74767	0.82703	0.44477	-0.081
Mof_C 	C 	0.70043	0.84341	0.44881	-0.006
Mof_C 	C 	0.75841	0.92713	0.44993	-0.034
Mof_C 	C 	0.81265	0.84851	0.44427	-0.033
Mof_C 	C 	0.80931	0.89137	0.44507	0.006
Mof_C 	C 	0.75617	0.97359	0.40461	0.013
Mof_C 	C 	0.7831	0.9653	0.3555	-0.396
Mof_C 	C 	0.73357	0.93671	0.49817	0.018
Mof_C 	C 	0.73557	0.89163	0.54257	-0.385
Mof_C 	C 	0.46312	0.61708	0.90184	0.298
Mof_C 	C 	0.45489	0.66913	0.88753	-0.063
Mof_C 	C 	0.45559	0.68621	0.91637	-0.042
Mof_C 	C 	0.45122	0.73368	0.90002	0.003
Mof_C 	C 	0.44657	0.76503	0.85549	0.014
Mof_C 	C 	0.44477	0.74767	0.82703	-0.081
Mof_C 	C 	0.44881	0.70043	0.84341	-0.006
Mof_C 	C 	0.44993	0.75841	0.92713	-0.034
Mof_C 	C 	0.44427	0.81265	0.84851	-0.033
Mof_C 	C 	0.44507	0.80931	0.89137	0.006
Mof_C 	C 	0.40461	0.75617	0.97359	0.013
Mof_C 	C 	0.3555	0.7831	0.9653	-0.396
Mof_C 	C 	0.49817	0.73357	0.93671	0.018
Mof_C 	C 	0.54257	0.73557	0.89163	-0.385
Mof_C 	C 	0.90184	0.01796	0.46312	0.297
Mof_C 	C 	0.88753	0.98845	0.45489	-0.061
Mof_C 	C 	0.91637	0.94183	0.45559	-0.043
Mof_C 	C 	0.90002	0.91508	0.45122	0.003
Mof_C 	C 	0.85549	0.93291	0.44657	0.014
Mof_C 	C 	0.82703	0.98053	0.44477	-0.08
Mof_C 	C 	0.84341	0.00735	0.44881	-0.007
Mof_C 	C 	0.92713	0.86453	0.44993	-0.034
Mof_C 	C 	0.84851	0.89457	0.44427	-0.033
Mof_C 	C 	0.89137	0.85425	0.44507	0.006
Mof_C 	C 	0.97359	0.86563	0.40461	0.013
Mof_C 	C 	0.9653	0.8961	0.3555	-0.396
Mof_C 	C 	0.93671	0.83155	0.49817	0.018
Mof_C 	C 	0.89163	0.83023	0.54257	-0.385
Mof_C 	C 	0.01796	0.90184	0.61708	0.296
Mof_C 	C 	0.98845	0.88753	0.66913	-0.061
Mof_C 	C 	0.94183	0.91637	0.68621	-0.043
Mof_C 	C 	0.91508	0.90002	0.73368	0.004
Mof_C 	C 	0.93291	0.85549	0.76503	0.013
Mof_C 	C 	0.98053	0.82703	0.74767	-0.079
Mof_C 	C 	0.00735	0.84341	0.70043	-0.008
Mof_C 	C 	0.86453	0.92713	0.75841	-0.034
Mof_C 	C 	0.89457	0.84851	0.81265	-0.033
Mof_C 	C 	0.85425	0.89137	0.80931	0.006
Mof_C 	C 	0.86563	0.97359	0.75617	0.013
Mof_C 	C 	0.8961	0.9653	0.7831	-0.396
Mof_C 	C 	0.83155	0.93671	0.73357	0.018
Mof_C 	C 	0.83023	0.89163	0.73557	-0.385
Mof_C 	C 	0.61708	0.46312	0.01796	0.298
Mof_C 	C 	0.66913	0.45489	0.98845	-0.062
Mof_C 	C 	0.68621	0.45559	0.94183	-0.042
Mof_C 	C 	0.73368	0.45122	0.91508	0.003
Mof_C 	C 	0.76503	0.44657	0.93291	0.014
Mof_C 	C 	0.74767	0.44477	0.98053	-0.081
Mof_C 	C 	0.70043	0.44881	0.00735	-0.006
Mof_C 	C 	0.75841	0.44993	0.86453	-0.034
Mof_C 	C 	0.81265	0.44427	0.89457	-0.033
Mof_C 	C 	0.80931	0.44507	0.85425	0.006
Mof_C 	C 	0.75617	0.40461	0.86563	0.013
Mof_C 	C 	0.7831	0.3555	0.8961	-0.396
Mof_C 	C 	0.73357	0.49817	0.83155	0.018
Mof_C 	C 	0.73557	0.54257	0.83023	-0.385
Mof_C 	C 	0.59816	0.03688	0.48204	0.298
Mof_C 	C 	0.61247	0.04511	0.51155	-0.063
Mof_C 	C 	0.58363	0.04441	0.55817	-0.042
Mof_C 	C 	0.59998	0.04878	0.58492	0.003
Mof_C 	C 	0.64451	0.05343	0.56709	0.014
Mof_C 	C 	0.67297	0.05523	0.51947	-0.081
Mof_C 	C 	0.65659	0.05119	0.49265	-0.006
Mof_C 	C 	0.57287	0.05007	0.63547	-0.034
Mof_C 	C 	0.65149	0.05573	0.60543	-0.033
Mof_C 	C 	0.60863	0.05493	0.64575	0.006
Mof_C 	C 	0.52641	0.09539	0.63437	0.013
Mof_C 	C 	0.5347	0.1445	0.6039	-0.396
Mof_C 	C 	0.56329	0.00183	0.66845	0.017
Mof_C 	C 	0.60837	0.95743	0.66977	-0.384
Mof_C 	C 	0.03688	0.59816	0.88292	0.298
Mof_C 	C 	0.04511	0.61247	0.83087	-0.063
Mof_C 	C 	0.04441	0.58363	0.81379	-0.042
Mof_C 	C 	0.04878	0.59998	0.76632	0.003
Mof_C 	C 	0.05343	0.64451	0.73497	0.014
Mof_C 	C 	0.05523	0.67297	0.75233	-0.081
Mof_C 	C 	0.05119	0.65659	0.79957	-0.005
Mof_C 	C 	0.05007	0.57287	0.74159	-0.034
Mof_C 	C 	0.05573	0.65149	0.68735	-0.033
Mof_C 	C 	0.05493	0.60863	0.69069	0.006
Mof_C 	C 	0.09539	0.52641	0.74383	0.012
Mof_C 	C 	0.1445	0.5347	0.7169	-0.396
Mof_C 	C 	0.00183	0.56329	0.76643	0.016
Mof_C 	C 	0.95743	0.60837	0.76443	-0.384
Mof_C 	C 	0.88292	0.48204	0.03688	0.298
Mof_C 	C 	0.83087	0.51155	0.04511	-0.063
Mof_C 	C 	0.81379	0.55817	0.04441	-0.042
Mof_C 	C 	0.76632	0.58492	0.04878	0.003
Mof_C 	C 	0.73497	0.56709	0.05343	0.014
Mof_C 	C 	0.75233	0.51947	0.05523	-0.081
Mof_C 	C 	0.79957	0.49265	0.05119	-0.005
Mof_C 	C 	0.74159	0.63547	0.05007	-0.033
Mof_C 	C 	0.68735	0.60543	0.05573	-0.033
Mof_C 	C 	0.69069	0.64575	0.05493	0.006
Mof_C 	C 	0.74383	0.63437	0.09539	0.012
Mof_C 	C 	0.7169	0.6039	0.1445	-0.396
Mof_C 	C 	0.76643	0.66845	0.00183	0.016
Mof_C 	C 	0.76443	0.66977	0.95743	-0.383
Mof_C 	C 	0.48204	0.88292	0.59816	0.298
Mof_C 	C 	0.51155	0.83087	0.61247	-0.063
Mof_C 	C 	0.55817	0.81379	0.58363	-0.042
Mof_C 	C 	0.58492	0.76632	0.59998	0.003
Mof_C 	C 	0.56709	0.73497	0.64451	0.014
Mof_C 	C 	0.51947	0.75233	0.67297	-0.081
Mof_C 	C 	0.49265	0.79957	0.65659	-0.006
Mof_C 	C 	0.63547	0.74159	0.57287	-0.034
Mof_C 	C 	0.60543	0.68735	0.65149	-0.033
Mof_C 	C 	0.64575	0.69069	0.60863	0.006
Mof_C 	C 	0.63437	0.74383	0.52641	0.013
Mof_C 	C 	0.6039	0.7169	0.5347	-0.396
Mof_C 	C 	0.66845	0.76643	0.56329	0.018
Mof_C 	C 	0.66977	0.76443	0.60837	-0.385
Mof_C 	C 	0.48204	0.03688	0.88292	0.298
Mof_C 	C 	0.51155	0.04511	0.83087	-0.063
Mof_C 	C 	0.55817	0.04441	0.81379	-0.042
Mof_C 	C 	0.58492	0.04878	0.76632	0.003
Mof_C 	C 	0.56709	0.05343	0.73497	0.014
Mof_C 	C 	0.51947	0.05523	0.75233	-0.081
Mof_C 	C 	0.49265	0.05119	0.79957	-0.005
Mof_C 	C 	0.63547	0.05007	0.74159	-0.033
Mof_C 	C 	0.60543	0.05573	0.68735	-0.033
Mof_C 	C 	0.64575	0.05493	0.69069	0.006
Mof_C 	C 	0.63437	0.09539	0.74383	0.012
Mof_C 	C 	0.6039	0.1445	0.7169	-0.396
Mof_C 	C 	0.66845	0.00183	0.76643	0.016
Mof_C 	C 	0.66977	0.95743	0.76443	-0.383
Mof_C 	C 	0.88292	0.59816	0.48204	0.298
Mof_C 	C 	0.83087	0.61247	0.51155	-0.063
Mof_C 	C 	0.81379	0.58363	0.55817	-0.042
Mof_C 	C 	0.76632	0.59998	0.58492	0.003
Mof_C 	C 	0.73497	0.64451	0.56709	0.014
Mof_C 	C 	0.75233	0.67297	0.51947	-0.081
Mof_C 	C 	0.79957	0.65659	0.49265	-0.006
Mof_C 	C 	0.74159	0.57287	0.63547	-0.034
Mof_C 	C 	0.68735	0.65149	0.60543	-0.033
Mof_C 	C 	0.69069	0.60863	0.64575	0.006
Mof_C 	C 	0.74383	0.52641	0.63437	0.013
Mof_C 	C 	0.7169	0.5347	0.6039	-0.396
Mof_C 	C 	0.76643	0.56329	0.66845	0.018
Mof_C 	C 	0.76443	0.60837	0.66977	-0.385
Mof_C 	C 	0.03688	0.48204	0.59816	0.298
Mof_C 	C 	0.04511	0.51155	0.61247	-0.063
Mof_C 	C 	0.04441	0.55817	0.58363	-0.042
Mof_C 	C 	0.04878	0.58492	0.59998	0.003
Mof_C 	C 	0.05343	0.56709	0.64451	0.014
Mof_C 	C 	0.05523	0.51947	0.67297	-0.081
Mof_C 	C 	0.05119	0.49265	0.65659	-0.006
Mof_C 	C 	0.05007	0.63547	0.57287	-0.034
Mof_C 	C 	0.05573	0.60543	0.65149	-0.033
Mof_C 	C 	0.05493	0.64575	0.60863	0.006
Mof_C 	C 	0.09539	0.63437	0.52641	0.013
Mof_C 	C 	0.1445	0.6039	0.5347	-0.396
Mof_C 	C 	0.00183	0.66845	0.56329	0.017
Mof_C 	C 	0.95743	0.66977	0.60837	-0.384
Mof_C 	C 	0.59816	0.88292	0.03688	0.298
Mof_C 	C 	0.61247	0.83087	0.04511	-0.063
Mof_C 	C 	0.58363	0.81379	0.04441	-0.042
Mof_C 	C 	0.59998	0.76632	0.04878	0.003
Mof_C 	C 	0.64451	0.73497	0.05343	0.014
Mof_C 	C 	0.67297	0.75233	0.05523	-0.081
Mof_C 	C 	0.65659	0.79957	0.05119	-0.005
Mof_C 	C 	0.57287	0.74159	0.05007	-0.034
Mof_C 	C 	0.65149	0.68735	0.05573	-0.033
Mof_C 	C 	0.60863	0.69069	0.05493	0.006
Mof_C 	C 	0.52641	0.74383	0.09539	0.012
Mof_C 	C 	0.5347	0.7169	0.1445	-0.396
Mof_C 	C 	0.56329	0.76643	0.00183	0.016
Mof_C 	C 	0.60837	0.76443	0.95743	-0.384
Mof_C 	C 	0.88292	0.03688	0.59816	0.298
Mof_C 	C 	0.83087	0.04511	0.61247	-0.063
Mof_C 	C 	0.81379	0.04441	0.58363	-0.042
Mof_C 	C 	0.76632	0.04878	0.59998	0.003
Mof_C 	C 	0.73497	0.05343	0.64451	0.014
Mof_C 	C 	0.75233	0.05523	0.67297	-0.081
Mof_C 	C 	0.79957	0.05119	0.65659	-0.005
Mof_C 	C 	0.74159	0.05007	0.57287	-0.034
Mof_C 	C 	0.68735	0.05573	0.65149	-0.033
Mof_C 	C 	0.69069	0.05493	0.60863	0.006
Mof_C 	C 	0.74383	0.09539	0.52641	0.012
Mof_C 	C 	0.7169	0.1445	0.5347	-0.396
Mof_C 	C 	0.76643	0.00183	0.56329	0.016
Mof_C 	C 	0.76443	0.95743	0.60837	-0.384
Mof_C 	C 	0.48204	0.59816	0.03688	0.298
Mof_C 	C 	0.51155	0.61247	0.04511	-0.063
Mof_C 	C 	0.55817	0.58363	0.04441	-0.042
Mof_C 	C 	0.58492	0.59998	0.04878	0.003
Mof_C 	C 	0.56709	0.64451	0.05343	0.014
Mof_C 	C 	0.51947	0.67297	0.05523	-0.081
Mof_C 	C 	0.49265	0.65659	0.05119	-0.006
Mof_C 	C 	0.63547	0.57287	0.05007	-0.034
Mof_C 	C 	0.60543	0.65149	0.05573	-0.033
Mof_C 	C 	0.64575	0.60863	0.05493	0.006
Mof_C 	C 	0.63437	0.52641	0.09539	0.013
Mof_C 	C 	0.6039	0.5347	0.1445	-0.396
Mof_C 	C 	0.66845	0.56329	0.00183	0.017
Mof_C 	C 	0.66977	0.60837	0.95743	-0.384
Mof_C 	C 	0.59816	0.48204	0.88292	0.298
Mof_C 	C 	0.61247	0.51155	0.83087	-0.063
Mof_C 	C 	0.58363	0.55817	0.81379	-0.042
Mof_C 	C 	0.59998	0.58492	0.76632	0.003
Mof_C 	C 	0.64451	0.56709	0.73497	0.014
Mof_C 	C 	0.67297	0.51947	0.75233	-0.081
Mof_C 	C 	0.65659	0.49265	0.79957	-0.006
Mof_C 	C 	0.57287	0.63547	0.74159	-0.034
Mof_C 	C 	0.65149	0.60543	0.68735	-0.033
Mof_C 	C 	0.60863	0.64575	0.69069	0.006
Mof_C 	C 	0.52641	0.63437	0.74383	0.013
Mof_C 	C 	0.5347	0.6039	0.7169	-0.396
Mof_C 	C 	0.56329	0.66845	0.76643	0.018
Mof_C 	C 	0.60837	0.66977	0.76443	-0.385
Mof_C 	C 	0.03688	0.88292	0.48204	0.298
Mof_C 	C 	0.04511	0.83087	0.51155	-0.063
Mof_C 	C 	0.04441	0.81379	0.55817	-0.042
Mof_C 	C 	0.04878	0.76632	0.58492	0.003
Mof_C 	C 	0.05343	0.73497	0.56709	0.014
Mof_C 	C 	0.05523	0.75233	0.51947	-0.081
Mof_C 	C 	0.05119	0.79957	0.49265	-0.005
Mof_C 	C 	0.05007	0.74159	0.63547	-0.033
Mof_C 	C 	0.05573	0.68735	0.60543	-0.033
Mof_C 	C 	0.05493	0.69069	0.64575	0.006
Mof_C 	C 	0.09539	0.74383	0.63437	0.012
Mof_C 	C 	0.1445	0.7169	0.6039	-0.396
Mof_C 	C 	0.00183	0.76643	0.66845	0.016
Mof_C 	C 	0.95743	0.76443	0.66977	-0.383
Mof_C 	C 	0.6659	0.9823	0.0177	0.126
Mof_C 	C 	0.9823	0.6659	0.3341	0.126
Mof_C 	C 	0.0177	0.3341	0.6659	0.126
Mof_C 	C 	0.3341	0.0177	0.9823	0.126
Mof_C 	C 	0.6659	0.0177	0.3341	0.126
Mof_C 	C 	0.9823	0.3341	0.0177	0.126
Mof_C 	C 	0.0177	0.6659	0.9823	0.126
Mof_C 	C 	0.3341	0.9823	0.6659	0.126
Mof_C 	C 	0.6659	0.3341	0.9823	0.126
Mof_C 	C 	0.9823	0.0177	0.6659	0.126
Mof_C 	C 	0.0177	0.9823	0.3341	0.126
Mof_C 	C 	0.3341	0.6659	0.0177	0.126
Mof_C 	C 	0.5177	0.8341	0.4823	0.126
Mof_C 	C 	0.8341	0.5177	0.1659	0.126
Mof_C 	C 	0.1659	0.4823	0.8341	0.126
Mof_C 	C 	0.4823	0.1659	0.5177	0.126
Mof_C 	C 	0.4823	0.8341	0.1659	0.126
Mof_C 	C 	0.1659	0.5177	0.4823	0.126
Mof_C 	C 	0.8341	0.4823	0.5177	0.126
Mof_C 	C 	0.5177	0.1659	0.8341	0.126
Mof_C 	C 	0.1659	0.8341	0.5177	0.126
Mof_C 	C 	0.4823	0.5177	0.8341	0.126
Mof_C 	C 	0.5177	0.4823	0.1659	0.126
Mof_C 	C 	0.8341	0.1659	0.4823	0.126
Mof_O 	O 	0.52911	0.05819	0.00117	-0.276
Mof_O 	O 	0.62481	0.89809	0.03575	-0.279
Mof_O 	O 	0.05819	0.52911	0.41153	-0.276
Mof_O 	O 	0.89809	0.62481	0.44135	-0.279
Mof_O 	O 	0.00117	0.41153	0.52911	-0.276
Mof_O 	O 	0.03575	0.44135	0.62481	-0.279
Mof_O 	O 	0.41153	0.00117	0.05819	-0.275
Mof_O 	O 	0.44135	0.03575	0.89809	-0.279
Mof_O 	O 	0.52911	0.00117	0.41153	-0.276
Mof_O 	O 	0.62481	0.03575	0.44135	-0.279
Mof_O 	O 	0.05819	0.41153	0.00117	-0.275
Mof_O 	O 	0.89809	0.44135	0.03575	-0.279
Mof_O 	O 	0.00117	0.52911	0.05819	-0.276
Mof_O 	O 	0.03575	0.62481	0.89809	-0.279
Mof_O 	O 	0.41153	0.05819	0.52911	-0.276
Mof_O 	O 	0.44135	0.89809	0.62481	-0.279
Mof_O 	O 	0.52911	0.41153	0.05819	-0.276
Mof_O 	O 	0.62481	0.44135	0.89809	-0.279
Mof_O 	O 	0.05819	0.00117	0.52911	-0.276
Mof_O 	O 	0.89809	0.03575	0.62481	-0.279
Mof_O 	O 	0.00117	0.05819	0.41153	-0.275
Mof_O 	O 	0.03575	0.89809	0.44135	-0.279
Mof_O 	O 	0.41153	0.52911	0.00117	-0.276
Mof_O 	O 	0.44135	0.62481	0.03575	-0.279
Mof_O 	O 	0.44181	0.97089	0.49883	-0.276
Mof_O 	O 	0.60191	0.87519	0.46425	-0.279
Mof_O 	O 	0.97089	0.44181	0.08847	-0.276
Mof_O 	O 	0.87519	0.60191	0.05865	-0.279
Mof_O 	O 	0.08847	0.49883	0.97089	-0.276
Mof_O 	O 	0.05865	0.46425	0.87519	-0.279
Mof_O 	O 	0.49883	0.08847	0.44181	-0.276
Mof_O 	O 	0.46425	0.05865	0.60191	-0.279
Mof_O 	O 	0.49883	0.97089	0.08847	-0.276
Mof_O 	O 	0.46425	0.87519	0.05865	-0.279
Mof_O 	O 	0.08847	0.44181	0.49883	-0.276
Mof_O 	O 	0.05865	0.60191	0.46425	-0.279
Mof_O 	O 	0.97089	0.49883	0.44181	-0.276
Mof_O 	O 	0.87519	0.46425	0.60191	-0.279
Mof_O 	O 	0.44181	0.08847	0.97089	-0.276
Mof_O 	O 	0.60191	0.05865	0.87519	-0.279
Mof_O 	O 	0.08847	0.97089	0.44181	-0.276
Mof_O 	O 	0.05865	0.87519	0.60191	-0.279
Mof_O 	O 	0.49883	0.44181	0.97089	-0.276
Mof_O 	O 	0.46425	0.60191	0.87519	-0.279
Mof_O 	O 	0.44181	0.49883	0.08847	-0.276
Mof_O 	O 	0.60191	0.46425	0.05865	-0.279
Mof_O 	O 	0.97089	0.08847	0.49883	-0.276
Mof_O 	O 	0.87519	0.05865	0.46425	-0.279
Mof_O 	O 	0.47089	0.94181	0.99883	-0.276
Mof_O 	O 	0.37519	0.10191	0.96425	-0.279
Mof_O 	O 	0.94181	0.47089	0.58847	-0.276
Mof_O 	O 	0.10191	0.37519	0.55865	-0.279
Mof_O 	O 	0.99883	0.58847	0.47089	-0.276
Mof_O 	O 	0.96425	0.55865	0.37519	-0.279
Mof_O 	O 	0.58847	0.99883	0.94181	-0.275
Mof_O 	O 	0.55865	0.96425	0.10191	-0.279
Mof_O 	O 	0.47089	0.99883	0.58847	-0.276
Mof_O 	O 	0.37519	0.96425	0.55865	-0.279
Mof_O 	O 	0.94181	0.58847	0.99883	-0.275
Mof_O 	O 	0.10191	0.55865	0.96425	-0.279
Mof_O 	O 	0.99883	0.47089	0.94181	-0.276
Mof_O 	O 	0.96425	0.37519	0.10191	-0.279
Mof_O 	O 	0.58847	0.94181	0.47089	-0.276
Mof_O 	O 	0.55865	0.10191	0.37519	-0.279
Mof_O 	O 	0.47089	0.58847	0.94181	-0.276
Mof_O 	O 	0.37519	0.55865	0.10191	-0.279
Mof_O 	O 	0.94181	0.99883	0.47089	-0.276
Mof_O 	O 	0.10191	0.96425	0.37519	-0.279
Mof_O 	O 	0.99883	0.94181	0.58847	-0.275
Mof_O 	O 	0.96425	0.10191	0.55865	-0.279
Mof_O 	O 	0.58847	0.47089	0.99883	-0.276
Mof_O 	O 	0.55865	0.37519	0.96425	-0.279
Mof_O 	O 	0.55819	0.02911	0.50117	-0.276
Mof_O 	O 	0.39809	0.12481	0.53575	-0.279
Mof_O 	O 	0.02911	0.55819	0.91153	-0.276
Mof_O 	O 	0.12481	0.39809	0.94135	-0.279
Mof_O 	O 	0.91153	0.50117	0.02911	-0.276
Mof_O 	O 	0.94135	0.53575	0.12481	-0.279
Mof_O 	O 	0.50117	0.91153	0.55819	-0.276
Mof_O 	O 	0.53575	0.94135	0.39809	-0.279
Mof_O 	O 	0.50117	0.02911	0.91153	-0.276
Mof_O 	O 	0.53575	0.12481	0.94135	-0.279
Mof_O 	O 	0.91153	0.55819	0.50117	-0.276
Mof_O 	O 	0.94135	0.39809	0.53575	-0.279
Mof_O 	O 	0.02911	0.50117	0.55819	-0.276
Mof_O 	O 	0.12481	0.53575	0.39809	-0.279
Mof_O 	O 	0.55819	0.91153	0.02911	-0.276
Mof_O 	O 	0.39809	0.94135	0.12481	-0.279
Mof_O 	O 	0.91153	0.02911	0.55819	-0.276
Mof_O 	O 	0.94135	0.12481	0.39809	-0.279
Mof_O 	O 	0.50117	0.55819	0.02911	-0.276
Mof_O 	O 	0.53575	0.39809	0.12481	-0.279
Mof_O 	O 	0.55819	0.50117	0.91153	-0.276
Mof_O 	O 	0.39809	0.53575	0.94135	-0.279
Mof_O 	O 	0.02911	0.91153	0.50117	-0.276
Mof_O 	O 	0.12481	0.94135	0.53575	-0.279
Mof_O 	O 	0.63749	0.99955	0.00045	-0.246
Mof_O 	O 	0.99955	0.63749	0.36251	-0.246
Mof_O 	O 	0.00045	0.36251	0.63749	-0.246
Mof_O 	O 	0.36251	0.00045	0.99955	-0.246
Mof_O 	O 	0.63749	0.00045	0.36251	-0.246
Mof_O 	O 	0.99955	0.36251	0.00045	-0.246
Mof_O 	O 	0.00045	0.63749	0.99955	-0.246
Mof_O 	O 	0.36251	0.99955	0.63749	-0.246
Mof_O 	O 	0.63749	0.36251	0.99955	-0.246
Mof_O 	O 	0.99955	0.00045	0.63749	-0.246
Mof_O 	O 	0.00045	0.99955	0.36251	-0.246
Mof_O 	O 	0.36251	0.63749	0.00045	-0.246
Mof_O 	O 	0.50045	0.86251	0.49955	-0.246
Mof_O 	O 	0.86251	0.50045	0.13749	-0.246
Mof_O 	O 	0.13749	0.49955	0.86251	-0.246
Mof_O 	O 	0.49955	0.13749	0.50045	-0.246
Mof_O 	O 	0.49955	0.86251	0.13749	-0.246
Mof_O 	O 	0.13749	0.50045	0.49955	-0.246
Mof_O 	O 	0.86251	0.49955	0.50045	-0.246
Mof_O 	O 	0.50045	0.13749	0.86251	-0.246
Mof_O 	O 	0.13749	0.86251	0.50045	-0.246
Mof_O 	O 	0.49955	0.50045	0.86251	-0.246
Mof_O 	O 	0.50045	0.49955	0.13749	-0.246
Mof_O 	O 	0.86251	0.13749	0.49955	-0.246
_end
