data_functionalizedCrystal
_audit_creation_method	'EQeq! by Chris Wilmer'
_symmetry_space_group_name_H-M	'P1'
_symmetry_Int_Tables_number	1
_symmetry_cell_setting	triclinic
loop_
_symmetry_equiv_pos_as_xyz
  x,y,z
_cell_length_a	17.204
_cell_length_b	30.0292
_cell_length_c	30.0292
_cell_angle_alpha	85.2932
_cell_angle_beta	73.3542
_cell_angle_gamma	73.3542
loop_
_atom_site_label
_atom_site_type_symbol
_atom_site_fract_x
_atom_site_fract_y
_atom_site_fract_z
_atom_site_charge
Mof_Mn	Mn	0.39403	0.96405	0.38061	1.007
Mof_Mn	Mn	0.21502	0.07791	0.49996	1.047
Mof_Mn	Mn	0.64085	0.85684	0.41604	1.052
Mof_Mn	Mn	0.23869	0.53595	0.11939	1.008
Mof_Mn	Mn	0.2929	0.42209	4e-05	1.047
Mof_Mn	Mn	0.41373	0.64316	0.08396	1.052
Mof_Mn	Mn	0.77464	0.61939	0.46405	1.008
Mof_Mn	Mn	0.71499	0.50004	0.5779	1.047
Mof_Mn	Mn	0.05689	0.58396	0.35684	1.052
Mof_Mn	Mn	0.35808	0.88061	0.03595	1.007
Mof_Mn	Mn	0.29293	0.99996	0.9221	1.047
Mof_Mn	Mn	0.49769	0.91604	0.14316	1.052
Mof_Mn	Mn	0.60597	0.03595	0.61939	1.007
Mof_Mn	Mn	0.78498	0.92209	0.50004	1.047
Mof_Mn	Mn	0.35915	0.14316	0.58396	1.052
Mof_Mn	Mn	0.76131	0.46405	0.88061	1.008
Mof_Mn	Mn	0.7071	0.57791	0.99996	1.047
Mof_Mn	Mn	0.58627	0.35684	0.91604	1.052
Mof_Mn	Mn	0.22536	0.38061	0.53595	1.008
Mof_Mn	Mn	0.28501	0.49996	0.4221	1.047
Mof_Mn	Mn	0.94311	0.41604	0.64316	1.052
Mof_Mn	Mn	0.64192	0.11939	0.96405	1.007
Mof_Mn	Mn	0.70707	4e-05	0.0779	1.047
Mof_Mn	Mn	0.50231	0.08396	0.85684	1.052
Mof_H 	H 	0.2738	0.8507	0.4023	0.126
Mof_H 	H 	0.1407	0.8476	0.4468	-0.036
Mof_H 	H 	0.046	0.9121	0.4865	0.109
Mof_H 	H 	0.0871	0.9788	0.49	-0.004
Mof_H 	H 	0.3809	0.1084	0.4414	0.123
Mof_H 	H 	0.4763	0.0767	0.4247	0.127
Mof_H 	H 	0.465	0.1397	0.3751	-0.021
Mof_H 	H 	0.4747	0.0953	0.3457	-0.011
Mof_H 	H 	0.3289	0.1172	0.354	0.127
Mof_H 	H 	0.3155	0.1598	0.3866	0.127
Mof_H 	H 	0.4067	0.1528	0.2902	-0.053
Mof_H 	H 	0.3948	0.1952	0.3228	-0.056
Mof_H 	H 	0.2476	0.2146	0.3332	0.191
Mof_H 	H 	0.298	0.2174	0.2796	0.182
Mof_H 	H 	0.2623	0.1736	0.2982	0.188
Mof_H 	H 	0.0845	0.1926	0.4262	0.13
Mof_H 	H 	0.0688	0.2708	0.4268	-0.035
Mof_H 	H 	0.1265	0.3022	0.4742	0.11
Mof_H 	H 	0.2119	0.2516	0.5158	0.004
Mof_H 	H 	0.3784	0.9904	0.584	0.126
Mof_H 	H 	0.3732	0.0353	0.6113	0.124
Mof_H 	H 	0.2955	0.9842	0.6594	-0.028
Mof_H 	H 	0.2324	0.9967	0.6271	-0.022
Mof_H 	H 	0.1896	0.0758	0.65	0.145
Mof_H 	H 	0.2548	0.0646	0.6808	0.143
Mof_H 	H 	0.1754	0.0159	0.7295	-0.086
Mof_H 	H 	0.108	0.0316	0.7	-0.089
Mof_H 	H 	0.1246	0.1086	0.7282	0.24
Mof_H 	H 	0.0434	0.0892	0.7446	0.235
Mof_H 	H 	0.1137	0.0749	0.7723	0.24
Mof_H 	H 	0.0584	0.1539	0.5673	-0.018
Mof_H 	H 	0.9508	0.1572	0.6336	0.085
Mof_H 	H 	0.1134	0.0182	0.5668	-0.005
Mof_H 	H 	0.0094	0.0195	0.6365	0.083
Mof_H 	H 	0.8985	0.1168	0.7086	0.054
Mof_H 	H 	0.9165	0.0615	0.7067	0.057
Mof_H 	H 	0.8226	0.808	0.285	0.125
Mof_H 	H 	0.81	0.8157	0.2097	-0.029
Mof_H 	H 	0.6876	0.8636	0.1938	0.102
Mof_H 	H 	0.577	0.9022	0.2544	0.012
Mof_H 	H 	0.3717	0.9546	0.4914	0.122
Mof_H 	H 	0.4279	0.9357	0.5269	0.12
Mof_H 	H 	0.3399	0.8811	0.4947	-0.002
Mof_H 	H 	0.3991	0.8606	0.5282	0.001
Mof_H 	H 	0.3073	0.9087	0.5881	0.117
Mof_H 	H 	0.2527	0.937	0.5548	0.129
Mof_H 	H 	0.263	0.8457	0.5819	-0.033
Mof_H 	H 	0.2047	0.8762	0.5506	-0.027
Mof_H 	H 	0.1368	0.936	0.6142	0.161
Mof_H 	H 	0.193	0.9045	0.6455	0.158
Mof_H 	H 	0.1208	0.8874	0.6342	0.158
Mof_H 	H 	0.6927	0.0844	0.8356	-0.004
Mof_H 	H 	0.8081	0.0927	0.7767	0.085
Mof_H 	H 	0.5605	0.0953	0.7465	-0.006
Mof_H 	H 	0.6698	0.1017	0.6861	0.108
Mof_H 	H 	0.8168	0.1259	0.6667	0.066
Mof_H 	H 	0.8375	0.0713	0.6609	0.069
Mof_H 	H 	0.0268	0.6493	0.0977	0.125
Mof_H 	H 	0.9351	0.6524	0.0532	-0.037
Mof_H 	H 	0.9446	0.5879	0.0135	0.108
Mof_H 	H 	0.0559	0.5212	0.01	-0.004
Mof_H 	H 	0.4307	0.3916	0.0586	0.122
Mof_H 	H 	0.4777	0.4233	0.0753	0.126
Mof_H 	H 	0.4798	0.3603	0.1249	-0.022
Mof_H 	H 	0.4157	0.4047	0.1543	-0.012
Mof_H 	H 	0.3001	0.3828	0.146	0.126
Mof_H 	H 	0.3619	0.3402	0.1134	0.126
Mof_H 	H 	0.3497	0.3472	0.2098	-0.054
Mof_H 	H 	0.4128	0.3048	0.1772	-0.057
Mof_H 	H 	0.2954	0.2854	0.1668	0.191
Mof_H 	H 	0.295	0.2826	0.2204	0.182
Mof_H 	H 	0.2341	0.3264	0.2018	0.188
Mof_H 	H 	0.2033	0.3074	0.0738	0.129
Mof_H 	H 	0.2664	0.2292	0.0732	-0.035
Mof_H 	H 	0.4029	0.1978	0.0258	0.111
Mof_H 	H 	0.4793	0.2484	0.9842	0.004
Mof_H 	H 	0.4528	0.5096	0.916	0.126
Mof_H 	H 	0.5198	0.4647	0.8887	0.124
Mof_H 	H 	0.4391	0.5158	0.8406	-0.027
Mof_H 	H 	0.3562	0.5033	0.8729	-0.021
Mof_H 	H 	0.4154	0.4242	0.85	0.145
Mof_H 	H 	0.5002	0.4354	0.8192	0.143
Mof_H 	H 	0.4208	0.4841	0.7705	-0.086
Mof_H 	H 	0.3396	0.4684	0.8	-0.089
Mof_H 	H 	0.4614	0.3914	0.7718	0.239
Mof_H 	H 	0.3772	0.4108	0.7554	0.235
Mof_H 	H 	0.4609	0.4251	0.7277	0.239
Mof_H 	H 	0.2796	0.3461	0.9327	-0.018
Mof_H 	H 	0.2416	0.3428	0.8664	0.085
Mof_H 	H 	0.1984	0.4818	0.9332	-0.006
Mof_H 	H 	0.1654	0.4805	0.8635	0.083
Mof_H 	H 	0.2239	0.3832	0.7914	0.054
Mof_H 	H 	0.1847	0.4385	0.7933	0.058
Mof_H 	H 	0.4156	0.692	0.215	0.125
Mof_H 	H 	0.3354	0.6843	0.2903	-0.029
Mof_H 	H 	0.245	0.6364	0.3062	0.102
Mof_H 	H 	0.2336	0.5978	0.2456	0.012
Mof_H 	H 	0.3177	0.5454	0.0086	0.122
Mof_H 	H 	0.3905	0.5643	0.9731	0.12
Mof_H 	H 	0.2157	0.6189	0.0053	-0.003
Mof_H 	H 	0.2879	0.6394	0.9718	0.001
Mof_H 	H 	0.3041	0.5913	0.9119	0.118
Mof_H 	H 	0.2445	0.563	0.9452	0.13
Mof_H 	H 	0.1906	0.6543	0.9181	-0.033
Mof_H 	H 	0.1315	0.6238	0.9494	-0.027
Mof_H 	H 	0.187	0.564	0.8858	0.162
Mof_H 	H 	0.243	0.5955	0.8545	0.158
Mof_H 	H 	0.1424	0.6126	0.8658	0.159
Mof_H 	H 	0.1127	0.4156	0.6644	-0.004
Mof_H 	H 	0.1775	0.4073	0.7233	0.085
Mof_H 	H 	0.9023	0.4047	0.7535	-0.007
Mof_H 	H 	0.9576	0.3983	0.8139	0.108
Mof_H 	H 	0.1094	0.3741	0.8333	0.066
Mof_H 	H 	0.0697	0.4287	0.8391	0.069
Mof_H 	H 	0.6761	0.5977	0.3507	0.125
Mof_H 	H 	0.5875	0.5532	0.3476	-0.037
Mof_H 	H 	0.5325	0.5135	0.4121	0.108
Mof_H 	H 	0.5771	0.51	0.4788	-0.005
Mof_H 	H 	0.8223	0.5586	0.6084	0.122
Mof_H 	H 	0.901	0.5753	0.5767	0.126
Mof_H 	H 	0.8401	0.6249	0.6397	-0.022
Mof_H 	H 	0.8204	0.6543	0.5953	-0.012
Mof_H 	H 	0.6829	0.646	0.6172	0.126
Mof_H 	H 	0.7021	0.6134	0.6598	0.126
Mof_H 	H 	0.6969	0.7098	0.6528	-0.054
Mof_H 	H 	0.7176	0.6772	0.6952	-0.057
Mof_H 	H 	0.5808	0.6668	0.7146	0.191
Mof_H 	H 	0.5776	0.7204	0.7174	0.182
Mof_H 	H 	0.5605	0.7018	0.6736	0.188
Mof_H 	H 	0.5107	0.5738	0.6926	0.129
Mof_H 	H 	0.4956	0.5732	0.7708	-0.035
Mof_H 	H 	0.6007	0.5258	0.8022	0.11
Mof_H 	H 	0.7277	0.4842	0.7516	0.004
Mof_H 	H 	0.9624	0.416	0.4904	0.126
Mof_H 	H 	0.9845	0.3887	0.5353	0.124
Mof_H 	H 	0.9549	0.3406	0.4842	-0.027
Mof_H 	H 	0.8595	0.3729	0.4967	-0.021
Mof_H 	H 	0.8396	0.35	0.5758	0.145
Mof_H 	H 	0.9356	0.3192	0.5646	0.143
Mof_H 	H 	0.9049	0.2705	0.5159	-0.086
Mof_H 	H 	0.808	0.3	0.5316	-0.089
Mof_H 	H 	0.8528	0.2718	0.6086	0.239
Mof_H 	H 	0.788	0.2554	0.5892	0.235
Mof_H 	H 	0.886	0.2277	0.5749	0.239
Mof_H 	H 	0.6257	0.4327	0.6539	-0.018
Mof_H 	H 	0.5844	0.3664	0.6572	0.086
Mof_H 	H 	0.6802	0.4332	0.5182	-0.006
Mof_H 	H 	0.6459	0.3635	0.5195	0.083
Mof_H 	H 	0.6071	0.2914	0.6168	0.054
Mof_H 	H 	0.6232	0.2933	0.5615	0.058
Mof_H 	H 	0.1076	0.715	0.308	0.125
Mof_H 	H 	0.0197	0.7903	0.3157	-0.03
Mof_H 	H 	0.8814	0.8062	0.3636	0.102
Mof_H 	H 	0.8314	0.7456	0.4022	0.012
Mof_H 	H 	0.8631	0.5086	0.4546	0.122
Mof_H 	H 	0.9548	0.4731	0.4357	0.12
Mof_H 	H 	0.8346	0.5053	0.3811	-0.002
Mof_H 	H 	0.9273	0.4718	0.3606	0.001
Mof_H 	H 	0.8954	0.4119	0.4087	0.118
Mof_H 	H 	0.8075	0.4452	0.437	0.129
Mof_H 	H 	0.8449	0.4181	0.3457	-0.033
Mof_H 	H 	0.7553	0.4494	0.3762	-0.027
Mof_H 	H 	0.751	0.3858	0.436	0.162
Mof_H 	H 	0.8385	0.3545	0.4045	0.158
Mof_H 	H 	0.755	0.3658	0.3874	0.159
Mof_H 	H 	0.5283	0.1644	0.5844	-0.004
Mof_H 	H 	0.5848	0.2233	0.5927	0.084
Mof_H 	H 	0.307	0.2535	0.5953	-0.006
Mof_H 	H 	0.3559	0.3139	0.6017	0.108
Mof_H 	H 	0.4835	0.3333	0.6259	0.066
Mof_H 	H 	0.4984	0.3391	0.5713	0.069
Mof_H 	H 	0.1245	0.9023	0.1493	0.125
Mof_H 	H 	0.9883	0.9468	0.1524	-0.036
Mof_H 	H 	0.9581	0.9865	0.0879	0.109
Mof_H 	H 	0.0659	0.99	0.0212	-0.005
Mof_H 	H 	0.4893	0.9414	0.8916	0.122
Mof_H 	H 	0.553	0.9247	0.9233	0.126
Mof_H 	H 	0.6047	0.8751	0.8603	-0.022
Mof_H 	H 	0.57	0.8457	0.9047	-0.012
Mof_H 	H 	0.4461	0.854	0.8828	0.126
Mof_H 	H 	0.4753	0.8866	0.8402	0.126
Mof_H 	H 	0.5595	0.7902	0.8472	-0.054
Mof_H 	H 	0.59	0.8228	0.8048	-0.057
Mof_H 	H 	0.4622	0.8332	0.7854	0.191
Mof_H 	H 	0.5154	0.7796	0.7826	0.182
Mof_H 	H 	0.4359	0.7982	0.8264	0.188
Mof_H 	H 	0.2771	0.9262	0.8074	0.129
Mof_H 	H 	0.3396	0.9268	0.7292	-0.035
Mof_H 	H 	0.4287	0.9742	0.6978	0.11
Mof_H 	H 	0.4635	0.0158	0.7484	0.004
Mof_H 	H 	0.3688	0.084	0.0096	0.126
Mof_H 	H 	0.4085	0.1113	0.9647	0.124
Mof_H 	H 	0.2797	0.1594	0.0158	-0.027
Mof_H 	H 	0.2291	0.1271	0.0033	-0.021
Mof_H 	H 	0.2654	0.15	0.9242	0.145
Mof_H 	H 	0.3194	0.1808	0.9354	0.143
Mof_H 	H 	0.1913	0.2295	0.9841	-0.086
Mof_H 	H 	0.1396	0.2	0.9684	-0.089
Mof_H 	H 	0.2332	0.2282	0.8914	0.239
Mof_H 	H 	0.1326	0.2446	0.9108	0.235
Mof_H 	H 	0.1886	0.2723	0.9251	0.239
Mof_H 	H 	0.2123	0.0673	0.8461	-0.019
Mof_H 	H 	0.108	0.1336	0.8428	0.087
Mof_H 	H 	0.1316	0.0668	0.9818	-0.006
Mof_H 	H 	0.0289	0.1365	0.9805	0.085
Mof_H 	H 	0.0153	0.2086	0.8832	0.058
Mof_H 	H 	0.978	0.2067	0.9385	0.061
Mof_H 	H 	0.6306	0.785	0.192	0.125
Mof_H 	H 	0.6257	0.7097	0.1843	-0.029
Mof_H 	H 	0.5512	0.6938	0.1364	0.102
Mof_H 	H 	0.4792	0.7544	0.0978	0.012
Mof_H 	H 	0.3263	0.9914	0.0454	0.122
Mof_H 	H 	0.3636	0.0269	0.0643	0.12
Mof_H 	H 	0.221	0.9947	0.1189	-0.003
Mof_H 	H 	0.2597	0.0282	0.1394	0.001
Mof_H 	H 	0.216	0.0881	0.0913	0.118
Mof_H 	H 	0.1897	0.0548	0.063	0.13
Mof_H 	H 	0.1087	0.0819	0.1543	-0.033
Mof_H 	H 	0.0809	0.0506	0.1238	-0.027
Mof_H 	H 	0.0728	0.1142	0.064	0.162
Mof_H 	H 	0.0975	0.1455	0.0955	0.158
Mof_H 	H 	0.0082	0.1342	0.1126	0.159
Mof_H 	H 	0.7771	0.3356	0.9156	-0.004
Mof_H 	H 	0.9008	0.2767	0.9073	0.083
Mof_H 	H 	0.6558	0.2465	0.9047	-0.006
Mof_H 	H 	0.7715	0.1861	0.8983	0.107
Mof_H 	H 	0.9427	0.1667	0.8741	0.063
Mof_H 	H 	0.9088	0.1609	0.9287	0.066
Mof_H 	H 	0.7262	0.1493	0.5977	0.125
Mof_H 	H 	0.8593	0.1524	0.5532	-0.037
Mof_H 	H 	0.954	0.0879	0.5135	0.108
Mof_H 	H 	0.9129	0.0212	0.51	-0.005
Mof_H 	H 	0.6191	0.8916	0.5586	0.122
Mof_H 	H 	0.5237	0.9233	0.5753	0.126
Mof_H 	H 	0.535	0.8603	0.6249	-0.022
Mof_H 	H 	0.5253	0.9047	0.6543	-0.012
Mof_H 	H 	0.6711	0.8828	0.646	0.126
Mof_H 	H 	0.6845	0.8402	0.6134	0.126
Mof_H 	H 	0.5933	0.8472	0.7098	-0.054
Mof_H 	H 	0.6052	0.8048	0.6772	-0.057
Mof_H 	H 	0.7524	0.7854	0.6668	0.191
Mof_H 	H 	0.702	0.7826	0.7204	0.182
Mof_H 	H 	0.7377	0.8264	0.7018	0.188
Mof_H 	H 	0.9155	0.8074	0.5738	0.13
Mof_H 	H 	0.9312	0.7292	0.5732	-0.035
Mof_H 	H 	0.8735	0.6978	0.5258	0.11
Mof_H 	H 	0.7881	0.7484	0.4842	0.004
Mof_H 	H 	0.6216	0.0096	0.416	0.126
Mof_H 	H 	0.6268	0.9647	0.3887	0.124
Mof_H 	H 	0.7045	0.0158	0.3406	-0.028
Mof_H 	H 	0.7676	0.0033	0.3729	-0.022
Mof_H 	H 	0.8104	0.9242	0.35	0.145
Mof_H 	H 	0.7452	0.9354	0.3192	0.143
Mof_H 	H 	0.8246	0.9841	0.2705	-0.086
Mof_H 	H 	0.892	0.9684	0.3	-0.089
Mof_H 	H 	0.8754	0.8914	0.2718	0.24
Mof_H 	H 	0.9566	0.9108	0.2554	0.235
Mof_H 	H 	0.8863	0.9251	0.2277	0.24
Mof_H 	H 	0.9416	0.8461	0.4327	-0.018
Mof_H 	H 	0.0492	0.8428	0.3664	0.085
Mof_H 	H 	0.8866	0.9818	0.4332	-0.005
Mof_H 	H 	0.9906	0.9805	0.3635	0.083
Mof_H 	H 	0.1015	0.8832	0.2914	0.054
Mof_H 	H 	0.0835	0.9385	0.2933	0.057
Mof_H 	H 	0.1774	0.192	0.715	0.125
Mof_H 	H 	0.19	0.1843	0.7903	-0.029
Mof_H 	H 	0.3124	0.1364	0.8062	0.102
Mof_H 	H 	0.423	0.0978	0.7456	0.012
Mof_H 	H 	0.6283	0.0454	0.5086	0.122
Mof_H 	H 	0.5721	0.0643	0.4731	0.12
Mof_H 	H 	0.6601	0.1189	0.5053	-0.002
Mof_H 	H 	0.6009	0.1394	0.4718	0.001
Mof_H 	H 	0.6927	0.0913	0.4119	0.117
Mof_H 	H 	0.7473	0.063	0.4452	0.129
Mof_H 	H 	0.737	0.1543	0.4181	-0.033
Mof_H 	H 	0.7953	0.1238	0.4494	-0.027
Mof_H 	H 	0.8632	0.064	0.3858	0.161
Mof_H 	H 	0.807	0.0955	0.3545	0.158
Mof_H 	H 	0.8792	0.1126	0.3658	0.158
Mof_H 	H 	0.3073	0.9156	0.1644	-0.004
Mof_H 	H 	0.1919	0.9073	0.2233	0.085
Mof_H 	H 	0.4395	0.9047	0.2535	-0.006
Mof_H 	H 	0.3302	0.8983	0.3139	0.108
Mof_H 	H 	0.1832	0.8741	0.3333	0.066
Mof_H 	H 	0.1625	0.9287	0.3391	0.069
Mof_H 	H 	0.9732	0.3507	0.9023	0.125
Mof_H 	H 	0.0649	0.3476	0.9468	-0.037
Mof_H 	H 	0.0554	0.4121	0.9865	0.108
Mof_H 	H 	0.9441	0.4788	0.99	-0.004
Mof_H 	H 	0.5693	0.6084	0.9414	0.122
Mof_H 	H 	0.5223	0.5767	0.9247	0.126
Mof_H 	H 	0.5202	0.6397	0.8751	-0.022
Mof_H 	H 	0.5843	0.5953	0.8457	-0.012
Mof_H 	H 	0.6999	0.6172	0.854	0.126
Mof_H 	H 	0.6381	0.6598	0.8866	0.126
Mof_H 	H 	0.6503	0.6528	0.7902	-0.054
Mof_H 	H 	0.5872	0.6952	0.8228	-0.057
Mof_H 	H 	0.7046	0.7146	0.8332	0.191
Mof_H 	H 	0.705	0.7174	0.7796	0.182
Mof_H 	H 	0.7659	0.6736	0.7982	0.188
Mof_H 	H 	0.7967	0.6926	0.9262	0.129
Mof_H 	H 	0.7336	0.7708	0.9268	-0.035
Mof_H 	H 	0.5971	0.8022	0.9742	0.111
Mof_H 	H 	0.5207	0.7516	0.0158	0.004
Mof_H 	H 	0.5472	0.4904	0.084	0.126
Mof_H 	H 	0.4802	0.5353	0.1113	0.124
Mof_H 	H 	0.5609	0.4842	0.1594	-0.027
Mof_H 	H 	0.6438	0.4967	0.1271	-0.021
Mof_H 	H 	0.5846	0.5758	0.15	0.145
Mof_H 	H 	0.4998	0.5646	0.1808	0.143
Mof_H 	H 	0.5792	0.5159	0.2295	-0.086
Mof_H 	H 	0.6604	0.5316	0.2	-0.089
Mof_H 	H 	0.5386	0.6086	0.2282	0.239
Mof_H 	H 	0.6228	0.5892	0.2446	0.235
Mof_H 	H 	0.5391	0.5749	0.2723	0.239
Mof_H 	H 	0.7204	0.6539	0.0673	-0.018
Mof_H 	H 	0.7584	0.6572	0.1336	0.085
Mof_H 	H 	0.8016	0.5182	0.0668	-0.006
Mof_H 	H 	0.8346	0.5195	0.1365	0.083
Mof_H 	H 	0.7761	0.6168	0.2086	0.054
Mof_H 	H 	0.8153	0.5615	0.2067	0.058
Mof_H 	H 	0.5844	0.308	0.785	0.125
Mof_H 	H 	0.6646	0.3157	0.7097	-0.029
Mof_H 	H 	0.755	0.3636	0.6938	0.102
Mof_H 	H 	0.7664	0.4022	0.7544	0.012
Mof_H 	H 	0.6823	0.4546	0.9914	0.122
Mof_H 	H 	0.6095	0.4357	0.0269	0.12
Mof_H 	H 	0.7843	0.3811	0.9947	-0.003
Mof_H 	H 	0.7121	0.3606	0.0282	0.001
Mof_H 	H 	0.6959	0.4087	0.0881	0.118
Mof_H 	H 	0.7555	0.437	0.0548	0.13
Mof_H 	H 	0.8094	0.3457	0.0819	-0.033
Mof_H 	H 	0.8685	0.3762	0.0506	-0.027
Mof_H 	H 	0.813	0.436	0.1142	0.162
Mof_H 	H 	0.757	0.4045	0.1455	0.158
Mof_H 	H 	0.8576	0.3874	0.1342	0.159
Mof_H 	H 	0.8873	0.5844	0.3356	-0.004
Mof_H 	H 	0.8225	0.5927	0.2767	0.085
Mof_H 	H 	0.0977	0.5953	0.2465	-0.007
Mof_H 	H 	0.0424	0.6017	0.1861	0.108
Mof_H 	H 	0.8906	0.6259	0.1667	0.066
Mof_H 	H 	0.9303	0.5713	0.1609	0.069
Mof_H 	H 	0.3239	0.4023	0.6493	0.125
Mof_H 	H 	0.4125	0.4468	0.6524	-0.037
Mof_H 	H 	0.4675	0.4865	0.5879	0.108
Mof_H 	H 	0.4229	0.49	0.5212	-0.005
Mof_H 	H 	0.1777	0.4414	0.3916	0.122
Mof_H 	H 	0.099	0.4247	0.4233	0.126
Mof_H 	H 	0.1599	0.3751	0.3603	-0.022
Mof_H 	H 	0.1796	0.3457	0.4047	-0.012
Mof_H 	H 	0.3171	0.354	0.3828	0.126
Mof_H 	H 	0.2979	0.3866	0.3402	0.126
Mof_H 	H 	0.3031	0.2902	0.3472	-0.054
Mof_H 	H 	0.2824	0.3228	0.3048	-0.057
Mof_H 	H 	0.4192	0.3332	0.2854	0.191
Mof_H 	H 	0.4224	0.2796	0.2826	0.182
Mof_H 	H 	0.4395	0.2982	0.3264	0.188
Mof_H 	H 	0.4893	0.4262	0.3074	0.129
Mof_H 	H 	0.5044	0.4268	0.2292	-0.035
Mof_H 	H 	0.3993	0.4742	0.1978	0.11
Mof_H 	H 	0.2723	0.5158	0.2484	0.004
Mof_H 	H 	0.0376	0.584	0.5096	0.126
Mof_H 	H 	0.0155	0.6113	0.4647	0.124
Mof_H 	H 	0.0451	0.6594	0.5158	-0.027
Mof_H 	H 	0.1405	0.6271	0.5033	-0.021
Mof_H 	H 	0.1604	0.65	0.4242	0.145
Mof_H 	H 	0.0644	0.6808	0.4354	0.143
Mof_H 	H 	0.0951	0.7295	0.4841	-0.086
Mof_H 	H 	0.192	0.7	0.4684	-0.089
Mof_H 	H 	0.1472	0.7282	0.3914	0.239
Mof_H 	H 	0.212	0.7446	0.4108	0.235
Mof_H 	H 	0.114	0.7723	0.4251	0.239
Mof_H 	H 	0.3743	0.5673	0.3461	-0.018
Mof_H 	H 	0.4156	0.6336	0.3428	0.086
Mof_H 	H 	0.3198	0.5668	0.4818	-0.006
Mof_H 	H 	0.3541	0.6365	0.4805	0.083
Mof_H 	H 	0.3929	0.7086	0.3832	0.054
Mof_H 	H 	0.3768	0.7067	0.4385	0.058
Mof_H 	H 	0.8924	0.285	0.692	0.125
Mof_H 	H 	0.9803	0.2097	0.6843	-0.03
Mof_H 	H 	0.1186	0.1938	0.6364	0.102
Mof_H 	H 	0.1686	0.2544	0.5978	0.012
Mof_H 	H 	0.1369	0.4914	0.5454	0.122
Mof_H 	H 	0.0452	0.5269	0.5643	0.12
Mof_H 	H 	0.1654	0.4947	0.6189	-0.002
Mof_H 	H 	0.0727	0.5282	0.6394	0.001
Mof_H 	H 	0.1046	0.5881	0.5913	0.118
Mof_H 	H 	0.1925	0.5548	0.563	0.129
Mof_H 	H 	0.1551	0.5819	0.6543	-0.033
Mof_H 	H 	0.2447	0.5506	0.6238	-0.027
Mof_H 	H 	0.249	0.6142	0.564	0.162
Mof_H 	H 	0.1615	0.6455	0.5955	0.158
Mof_H 	H 	0.245	0.6342	0.6126	0.159
Mof_H 	H 	0.4717	0.8356	0.4156	-0.004
Mof_H 	H 	0.4152	0.7767	0.4073	0.084
Mof_H 	H 	0.693	0.7465	0.4047	-0.006
Mof_H 	H 	0.6441	0.6861	0.3983	0.108
Mof_H 	H 	0.5165	0.6667	0.3741	0.066
Mof_H 	H 	0.5016	0.6609	0.4287	0.069
Mof_H 	H 	0.8755	0.0977	0.8507	0.125
Mof_H 	H 	0.0117	0.0532	0.8476	-0.036
Mof_H 	H 	0.0419	0.0135	0.9121	0.109
Mof_H 	H 	0.9341	0.01	0.9788	-0.005
Mof_H 	H 	0.5107	0.0586	0.1084	0.122
Mof_H 	H 	0.447	0.0753	0.0767	0.126
Mof_H 	H 	0.3953	0.1249	0.1397	-0.022
Mof_H 	H 	0.43	0.1543	0.0953	-0.012
Mof_H 	H 	0.5539	0.146	0.1172	0.126
Mof_H 	H 	0.5247	0.1134	0.1598	0.126
Mof_H 	H 	0.4405	0.2098	0.1528	-0.054
Mof_H 	H 	0.41	0.1772	0.1952	-0.057
Mof_H 	H 	0.5378	0.1668	0.2146	0.191
Mof_H 	H 	0.4846	0.2204	0.2174	0.182
Mof_H 	H 	0.5641	0.2018	0.1736	0.188
Mof_H 	H 	0.7229	0.0738	0.1926	0.129
Mof_H 	H 	0.6604	0.0732	0.2708	-0.035
Mof_H 	H 	0.5713	0.0258	0.3022	0.11
Mof_H 	H 	0.5365	0.9842	0.2516	0.004
Mof_H 	H 	0.6312	0.916	0.9904	0.126
Mof_H 	H 	0.5915	0.8887	0.0353	0.124
Mof_H 	H 	0.7203	0.8406	0.9842	-0.027
Mof_H 	H 	0.7709	0.8729	0.9967	-0.021
Mof_H 	H 	0.7346	0.85	0.0758	0.145
Mof_H 	H 	0.6806	0.8192	0.0646	0.143
Mof_H 	H 	0.8087	0.7705	0.0159	-0.086
Mof_H 	H 	0.8604	0.8	0.0316	-0.089
Mof_H 	H 	0.7668	0.7718	0.1086	0.239
Mof_H 	H 	0.8674	0.7554	0.0892	0.235
Mof_H 	H 	0.8114	0.7277	0.0749	0.239
Mof_H 	H 	0.7877	0.9327	0.1539	-0.019
Mof_H 	H 	0.892	0.8664	0.1572	0.087
Mof_H 	H 	0.8684	0.9332	0.0182	-0.006
Mof_H 	H 	0.9711	0.8635	0.0195	0.085
Mof_H 	H 	0.9847	0.7914	0.1168	0.058
Mof_H 	H 	0.022	0.7933	0.0615	0.061
Mof_H 	H 	0.3694	0.215	0.808	0.125
Mof_H 	H 	0.3743	0.2903	0.8157	-0.029
Mof_H 	H 	0.4488	0.3062	0.8636	0.102
Mof_H 	H 	0.5208	0.2456	0.9022	0.012
Mof_H 	H 	0.6737	0.0086	0.9546	0.122
Mof_H 	H 	0.6364	0.9731	0.9357	0.12
Mof_H 	H 	0.779	0.0053	0.8811	-0.003
Mof_H 	H 	0.7403	0.9718	0.8606	0.001
Mof_H 	H 	0.784	0.9119	0.9087	0.118
Mof_H 	H 	0.8103	0.9452	0.937	0.13
Mof_H 	H 	0.8913	0.9181	0.8457	-0.033
Mof_H 	H 	0.9191	0.9494	0.8762	-0.027
Mof_H 	H 	0.9272	0.8858	0.936	0.162
Mof_H 	H 	0.9025	0.8545	0.9045	0.158
Mof_H 	H 	0.9918	0.8658	0.8874	0.159
Mof_H 	H 	0.2229	0.6644	0.0844	-0.004
Mof_H 	H 	0.0992	0.7233	0.0927	0.083
Mof_H 	H 	0.3442	0.7535	0.0953	-0.006
Mof_H 	H 	0.2285	0.8139	0.1017	0.107
Mof_H 	H 	0.0573	0.8333	0.1259	0.063
Mof_H 	H 	0.0912	0.8391	0.0713	0.066
Mof_C 	C 	0.2607	0.91816	0.41804	0.311
Mof_C 	C 	0.23593	0.87726	0.41948	-0.286
Mof_C 	C 	0.1568	0.8755	0.4457	0.163
Mof_C 	C 	0.1016	0.9132	0.4702	-0.222
Mof_C 	C 	0.12535	0.9532	0.4715	0.142
Mof_C 	C 	0.20569	0.95622	0.4456	-0.254
Mof_C 	C 	0.22736	0.99857	0.45111	0.306
Mof_C 	C 	0.39176	0.04779	0.41069	0.289
Mof_C 	C 	0.42265	0.08813	0.41597	-0.356
Mof_C 	C 	0.43674	0.11628	0.37164	0.151
Mof_C 	C 	0.3551	0.14073	0.35967	-0.347
Mof_C 	C 	0.3679	0.1719	0.3173	0.255
Mof_C 	C 	0.287	0.1965	0.3061	-0.595
Mof_C 	C 	0.16004	0.17318	0.47014	0.316
Mof_C 	C 	0.1111	0.20434	0.44446	-0.292
Mof_C 	C 	0.10077	0.25081	0.44525	0.161
Mof_C 	C 	0.13596	0.26951	0.47257	-0.218
Mof_C 	C 	0.1857	0.23931	0.49769	0.137
Mof_C 	C 	0.19787	0.19164	0.49702	-0.248
Mof_C 	C 	0.2505	0.16284	0.52616	0.295
Mof_C 	C 	0.30372	0.05078	0.56358	0.298
Mof_C 	C 	0.33988	0.01974	0.5991	-0.359
Mof_C 	C 	0.2698	0.00873	0.63967	0.167
Mof_C 	C 	0.2168	0.05178	0.66962	-0.404
Mof_C 	C 	0.149	0.0417	0.7113	0.377
Mof_C 	C 	0.104	0.0819	0.7415	-0.75
Mof_C 	C 	0.04848	0.12575	0.58109	0.115
Mof_C 	C 	0.98512	0.12778	0.62118	-0.204
Mof_C 	C 	0.08091	0.04734	0.58104	0.112
Mof_C 	C 	0.0183	0.0479	0.6227	-0.188
Mof_C 	C 	0.9699	0.0893	0.6437	0.134
Mof_C 	C 	0.9014	0.0908	0.6894	-0.133
Mof_C 	C 	0.70619	0.85008	0.31674	0.304
Mof_C 	C 	0.7718	0.82724	0.27936	-0.275
Mof_C 	C 	0.76471	0.83194	0.23424	0.133
Mof_C 	C 	0.69217	0.8601	0.22476	-0.201
Mof_C 	C 	0.62678	0.88282	0.26082	0.125
Mof_C 	C 	0.63135	0.87828	0.30702	-0.235
Mof_C 	C 	0.55677	0.90398	0.34368	0.292
Mof_C 	C 	0.48532	0.90791	0.46145	0.296
Mof_C 	C 	0.40957	0.92655	0.50151	-0.333
Mof_C 	C 	0.3601	0.8891	0.5199	0.114
Mof_C 	C 	0.2858	0.9056	0.5616	-0.326
Mof_C 	C 	0.2325	0.8777	0.5749	0.184
Mof_C 	C 	0.1638	0.904	0.622	-0.488
Mof_C 	C 	0.6886	0.0883	0.8045	0.107
Mof_C 	C 	0.7578	0.0921	0.7699	-0.185
Mof_C 	C 	0.61211	0.09441	0.75277	0.138
Mof_C 	C 	0.67643	0.09768	0.71666	-0.219
Mof_C 	C 	0.7523	0.0952	0.724	0.134
Mof_C 	C 	0.8307	0.0959	0.6829	-0.144
Mof_C 	C 	0.0969	0.58184	0.08196	0.312
Mof_C 	C 	0.03267	0.62274	0.08052	-0.287
Mof_C 	C 	0.978	0.6245	0.0543	0.164
Mof_C 	C 	0.985	0.5868	0.0298	-0.221
Mof_C 	C 	0.05005	0.5468	0.0285	0.141
Mof_C 	C 	0.10751	0.54378	0.0544	-0.254
Mof_C 	C 	0.17704	0.50143	0.04889	0.307
Mof_C 	C 	0.35024	0.45221	0.08931	0.289
Mof_C 	C 	0.42675	0.41187	0.08403	-0.356
Mof_C 	C 	0.42466	0.38372	0.12836	0.151
Mof_C 	C 	0.3555	0.35927	0.14033	-0.347
Mof_C 	C 	0.3571	0.3281	0.1827	0.255
Mof_C 	C 	0.2896	0.3035	0.1939	-0.595
Mof_C 	C 	0.30336	0.32682	0.02986	0.316
Mof_C 	C 	0.2599	0.29566	0.05554	-0.292
Mof_C 	C 	0.29683	0.24919	0.05475	0.161
Mof_C 	C 	0.37804	0.23049	0.02743	-0.218
Mof_C 	C 	0.4227	0.26069	0.00231	0.138
Mof_C 	C 	0.38653	0.30836	0.00298	-0.249
Mof_C 	C 	0.4395	0.33716	0.97384	0.296
Mof_C 	C 	0.41808	0.44922	0.93642	0.298
Mof_C 	C 	0.45872	0.48026	0.9009	-0.359
Mof_C 	C 	0.4182	0.49127	0.86033	0.166
Mof_C 	C 	0.4382	0.44822	0.83038	-0.403
Mof_C 	C 	0.402	0.4583	0.7887	0.376
Mof_C 	C 	0.4274	0.4181	0.7585	-0.749
Mof_C 	C 	0.25532	0.37425	0.91891	0.114
Mof_C 	C 	0.23408	0.37222	0.87882	-0.204
Mof_C 	C 	0.20929	0.45266	0.91896	0.112
Mof_C 	C 	0.1889	0.4521	0.8773	-0.189
Mof_C 	C 	0.2029	0.4107	0.8563	0.134
Mof_C 	C 	0.1816	0.4092	0.8106	-0.133
Mof_C 	C 	0.37301	0.64992	0.18326	0.304
Mof_C 	C 	0.3784	0.67276	0.22064	-0.275
Mof_C 	C 	0.33089	0.66806	0.26576	0.133
Mof_C 	C 	0.27703	0.6399	0.27524	-0.201
Mof_C 	C 	0.27042	0.61718	0.23918	0.125
Mof_C 	C 	0.31665	0.62172	0.19298	-0.235
Mof_C 	C 	0.30443	0.59602	0.15632	0.292
Mof_C 	C 	0.35468	0.59209	0.03855	0.296
Mof_C 	C 	0.33763	0.57345	0.99849	-0.333
Mof_C 	C 	0.2691	0.6109	0.9801	0.115
Mof_C 	C 	0.253	0.5944	0.9384	-0.326
Mof_C 	C 	0.1851	0.6223	0.9251	0.184
Mof_C 	C 	0.1898	0.596	0.878	-0.488
Mof_C 	C 	0.0814	0.4117	0.6955	0.107
Mof_C 	C 	0.1198	0.4079	0.7301	-0.185
Mof_C 	C 	0.95929	0.40559	0.74723	0.138
Mof_C 	C 	0.99077	0.40232	0.78334	-0.219
Mof_C 	C 	0.0715	0.4048	0.776	0.135
Mof_C 	C 	0.1095	0.4041	0.8171	-0.145
Mof_C 	C 	0.67874	0.58196	0.41816	0.312
Mof_C 	C 	0.65541	0.58052	0.37726	-0.286
Mof_C 	C 	0.6025	0.5543	0.3755	0.163
Mof_C 	C 	0.5718	0.5298	0.4132	-0.222
Mof_C 	C 	0.59685	0.5285	0.4532	0.142
Mof_C 	C 	0.65129	0.5544	0.45622	-0.254
Mof_C 	C 	0.67847	0.54889	0.49857	0.307
Mof_C 	C 	0.80245	0.58931	0.54779	0.289
Mof_C 	C 	0.83862	0.58403	0.58813	-0.356
Mof_C 	C 	0.80838	0.62836	0.61628	0.151
Mof_C 	C 	0.71477	0.64033	0.64073	-0.347
Mof_C 	C 	0.6852	0.6827	0.6719	0.255
Mof_C 	C 	0.5931	0.6939	0.6965	-0.595
Mof_C 	C 	0.63018	0.52986	0.67318	0.316
Mof_C 	C 	0.55556	0.55554	0.70434	-0.292
Mof_C 	C 	0.54602	0.55475	0.75081	0.161
Mof_C 	C 	0.60853	0.52743	0.76951	-0.218
Mof_C 	C 	0.68339	0.50231	0.73931	0.137
Mof_C 	C 	0.69489	0.50298	0.69164	-0.248
Mof_C 	C 	0.77666	0.47384	0.66284	0.295
Mof_C 	C 	0.8673	0.43642	0.55078	0.298
Mof_C 	C 	0.93898	0.4009	0.51974	-0.359
Mof_C 	C 	0.90947	0.36033	0.50873	0.166
Mof_C 	C 	0.88642	0.33038	0.55178	-0.403
Mof_C 	C 	0.8603	0.2887	0.5417	0.376
Mof_C 	C 	0.8455	0.2585	0.5819	-0.749
Mof_C 	C 	0.62957	0.41891	0.62575	0.114
Mof_C 	C 	0.6063	0.37882	0.62778	-0.204
Mof_C 	C 	0.66195	0.41896	0.54734	0.112
Mof_C 	C 	0.641	0.3773	0.5479	-0.189
Mof_C 	C 	0.6136	0.3563	0.5893	0.135
Mof_C 	C 	0.5908	0.3106	0.5908	-0.134
Mof_C 	C 	0.02293	0.68326	0.35008	0.305
Mof_C 	C 	0.05116	0.72064	0.32724	-0.277
Mof_C 	C 	0.99895	0.76576	0.33194	0.136
Mof_C 	C 	0.91693	0.77524	0.3601	-0.203
Mof_C 	C 	0.8876	0.73918	0.38282	0.126
Mof_C 	C 	0.93837	0.69298	0.37828	-0.235
Mof_C 	C 	0.90045	0.65632	0.40398	0.292
Mof_C 	C 	0.94677	0.53855	0.40791	0.296
Mof_C 	C 	0.91108	0.49849	0.42655	-0.333
Mof_C 	C 	0.88	0.4801	0.3891	0.115
Mof_C 	C 	0.8474	0.4384	0.4056	-0.326
Mof_C 	C 	0.8074	0.4251	0.3777	0.184
Mof_C 	C 	0.7858	0.378	0.404	-0.488
Mof_C 	C 	0.4931	0.1955	0.5883	0.107
Mof_C 	C 	0.5277	0.2301	0.5921	-0.185
Mof_C 	C 	0.36488	0.24723	0.59441	0.138
Mof_C 	C 	0.39309	0.28334	0.59768	-0.219
Mof_C 	C 	0.4763	0.276	0.5952	0.134
Mof_C 	C 	0.5136	0.3171	0.5959	-0.143
Mof_C 	C 	0.17886	0.91804	0.08184	0.311
Mof_C 	C 	0.11319	0.91948	0.12274	-0.286
Mof_C 	C 	0.0323	0.9457	0.1245	0.162
Mof_C 	C 	0.0148	0.9702	0.0868	-0.223
Mof_C 	C 	0.07855	0.9715	0.0468	0.142
Mof_C 	C 	0.16191	0.9456	0.04378	-0.254
Mof_C 	C 	0.22593	0.95111	0.00143	0.306
Mof_C 	C 	0.43955	0.91069	0.95221	0.289
Mof_C 	C 	0.51078	0.91597	0.91187	-0.356
Mof_C 	C 	0.55302	0.87164	0.88372	0.151
Mof_C 	C 	0.49583	0.85967	0.85927	-0.347
Mof_C 	C 	0.5398	0.8173	0.8281	0.255
Mof_C 	C 	0.4835	0.8061	0.8035	-0.595
Mof_C 	C 	0.33322	0.97014	0.82682	0.316
Mof_C 	C 	0.31544	0.94446	0.79566	-0.292
Mof_C 	C 	0.35158	0.94525	0.74919	0.161
Mof_C 	C 	0.40547	0.97257	0.73049	-0.218
Mof_C 	C 	0.42501	0.99769	0.76069	0.137
Mof_C 	C 	0.38951	0.99702	0.80836	-0.248
Mof_C 	C 	0.41334	0.02616	0.83716	0.295
Mof_C 	C 	0.3545	0.06358	0.94922	0.298
Mof_C 	C 	0.35962	0.0991	0.98026	-0.359
Mof_C 	C 	0.27853	0.13967	0.99127	0.166
Mof_C 	C 	0.26858	0.16962	0.94822	-0.404
Mof_C 	C 	0.1907	0.2113	0.9583	0.376
Mof_C 	C 	0.1859	0.2415	0.9181	-0.749
Mof_C 	C 	0.17423	0.08109	0.87425	0.116
Mof_C 	C 	0.1129	0.12118	0.87222	-0.207
Mof_C 	C 	0.12825	0.08104	0.95266	0.114
Mof_C 	C 	0.0662	0.1227	0.9521	-0.192
Mof_C 	C 	0.0592	0.1437	0.9107	0.14
Mof_C 	C 	0.9922	0.1894	0.9092	-0.145
Mof_C 	C 	0.55627	0.81674	0.14992	0.304
Mof_C 	C 	0.59904	0.77936	0.17276	-0.275
Mof_C 	C 	0.59665	0.73424	0.16806	0.133
Mof_C 	C 	0.55227	0.72476	0.1399	-0.201
Mof_C 	C 	0.5096	0.76082	0.11718	0.125
Mof_C 	C 	0.50963	0.80702	0.12172	-0.235
Mof_C 	C 	0.46075	0.84368	0.09602	0.292
Mof_C 	C 	0.39323	0.96145	0.09209	0.295
Mof_C 	C 	0.33612	0.00151	0.07345	-0.332
Mof_C 	C 	0.2492	0.0199	0.1109	0.115
Mof_C 	C 	0.1914	0.0616	0.0944	-0.327
Mof_C 	C 	0.1102	0.0749	0.1223	0.184
Mof_C 	C 	0.0678	0.122	0.096	-0.488
Mof_C 	C 	0.7769	0.3045	0.9117	0.105
Mof_C 	C 	0.8499	0.2699	0.9079	-0.183
Mof_C 	C 	0.70652	0.25277	0.90559	0.136
Mof_C 	C 	0.77411	0.21666	0.90232	-0.216
Mof_C 	C 	0.8475	0.224	0.9048	0.13
Mof_C 	C 	0.9266	0.1829	0.9041	-0.134
Mof_C 	C 	0.7393	0.08184	0.58196	0.311
Mof_C 	C 	0.76407	0.12274	0.58052	-0.286
Mof_C 	C 	0.8432	0.1245	0.5543	0.163
Mof_C 	C 	0.8984	0.0868	0.5298	-0.222
Mof_C 	C 	0.87465	0.0468	0.5285	0.142
Mof_C 	C 	0.79431	0.04378	0.5544	-0.254
Mof_C 	C 	0.77264	0.00143	0.54889	0.306
Mof_C 	C 	0.60824	0.95221	0.58931	0.289
Mof_C 	C 	0.57735	0.91187	0.58403	-0.356
Mof_C 	C 	0.56326	0.88372	0.62836	0.151
Mof_C 	C 	0.6449	0.85927	0.64033	-0.347
Mof_C 	C 	0.6321	0.8281	0.6827	0.255
Mof_C 	C 	0.713	0.8035	0.6939	-0.595
Mof_C 	C 	0.83996	0.82682	0.52986	0.316
Mof_C 	C 	0.8889	0.79566	0.55554	-0.292
Mof_C 	C 	0.89923	0.74919	0.55475	0.161
Mof_C 	C 	0.86404	0.73049	0.52743	-0.218
Mof_C 	C 	0.8143	0.76069	0.50231	0.137
Mof_C 	C 	0.80213	0.80836	0.50298	-0.248
Mof_C 	C 	0.7495	0.83716	0.47384	0.295
Mof_C 	C 	0.69628	0.94922	0.43642	0.298
Mof_C 	C 	0.66012	0.98026	0.4009	-0.359
Mof_C 	C 	0.7302	0.99127	0.36033	0.167
Mof_C 	C 	0.7832	0.94822	0.33038	-0.404
Mof_C 	C 	0.851	0.9583	0.2887	0.377
Mof_C 	C 	0.896	0.9181	0.2585	-0.75
Mof_C 	C 	0.95152	0.87425	0.41891	0.115
Mof_C 	C 	0.01488	0.87222	0.37882	-0.204
Mof_C 	C 	0.91909	0.95266	0.41896	0.112
Mof_C 	C 	0.9817	0.9521	0.3773	-0.188
Mof_C 	C 	0.0301	0.9107	0.3563	0.134
Mof_C 	C 	0.0986	0.9092	0.3106	-0.133
Mof_C 	C 	0.29381	0.14992	0.68326	0.304
Mof_C 	C 	0.2282	0.17276	0.72064	-0.275
Mof_C 	C 	0.23529	0.16806	0.76576	0.133
Mof_C 	C 	0.30783	0.1399	0.77524	-0.201
Mof_C 	C 	0.37322	0.11718	0.73918	0.125
Mof_C 	C 	0.36865	0.12172	0.69298	-0.235
Mof_C 	C 	0.44323	0.09602	0.65632	0.292
Mof_C 	C 	0.51468	0.09209	0.53855	0.296
Mof_C 	C 	0.59043	0.07345	0.49849	-0.333
Mof_C 	C 	0.6399	0.1109	0.4801	0.114
Mof_C 	C 	0.7142	0.0944	0.4384	-0.326
Mof_C 	C 	0.7675	0.1223	0.4251	0.184
Mof_C 	C 	0.8362	0.096	0.378	-0.488
Mof_C 	C 	0.3114	0.9117	0.1955	0.107
Mof_C 	C 	0.2422	0.9079	0.2301	-0.185
Mof_C 	C 	0.38789	0.90559	0.24723	0.138
Mof_C 	C 	0.32357	0.90232	0.28334	-0.219
Mof_C 	C 	0.2477	0.9048	0.276	0.134
Mof_C 	C 	0.1693	0.9041	0.3171	-0.144
Mof_C 	C 	0.9031	0.41816	0.91804	0.312
Mof_C 	C 	0.96733	0.37726	0.91948	-0.287
Mof_C 	C 	0.022	0.3755	0.9457	0.164
Mof_C 	C 	0.015	0.4132	0.9702	-0.221
Mof_C 	C 	0.94995	0.4532	0.9715	0.141
Mof_C 	C 	0.89249	0.45622	0.9456	-0.254
Mof_C 	C 	0.82296	0.49857	0.95111	0.307
Mof_C 	C 	0.64976	0.54779	0.91069	0.289
Mof_C 	C 	0.57325	0.58813	0.91597	-0.356
Mof_C 	C 	0.57534	0.61628	0.87164	0.151
Mof_C 	C 	0.6445	0.64073	0.85967	-0.347
Mof_C 	C 	0.6429	0.6719	0.8173	0.255
Mof_C 	C 	0.7104	0.6965	0.8061	-0.595
Mof_C 	C 	0.69664	0.67318	0.97014	0.316
Mof_C 	C 	0.7401	0.70434	0.94446	-0.292
Mof_C 	C 	0.70317	0.75081	0.94525	0.161
Mof_C 	C 	0.62196	0.76951	0.97257	-0.218
Mof_C 	C 	0.5773	0.73931	0.99769	0.138
Mof_C 	C 	0.61347	0.69164	0.99702	-0.249
Mof_C 	C 	0.5605	0.66284	0.02616	0.296
Mof_C 	C 	0.58192	0.55078	0.06358	0.298
Mof_C 	C 	0.54128	0.51974	0.0991	-0.359
Mof_C 	C 	0.5818	0.50873	0.13967	0.166
Mof_C 	C 	0.5618	0.55178	0.16962	-0.403
Mof_C 	C 	0.598	0.5417	0.2113	0.376
Mof_C 	C 	0.5726	0.5819	0.2415	-0.749
Mof_C 	C 	0.74468	0.62575	0.08109	0.114
Mof_C 	C 	0.76592	0.62778	0.12118	-0.204
Mof_C 	C 	0.79071	0.54734	0.08104	0.112
Mof_C 	C 	0.8111	0.5479	0.1227	-0.189
Mof_C 	C 	0.7971	0.5893	0.1437	0.134
Mof_C 	C 	0.8184	0.5908	0.1894	-0.133
Mof_C 	C 	0.62699	0.35008	0.81674	0.304
Mof_C 	C 	0.6216	0.32724	0.77936	-0.275
Mof_C 	C 	0.66911	0.33194	0.73424	0.133
Mof_C 	C 	0.72297	0.3601	0.72476	-0.201
Mof_C 	C 	0.72958	0.38282	0.76082	0.125
Mof_C 	C 	0.68335	0.37828	0.80702	-0.235
Mof_C 	C 	0.69557	0.40398	0.84368	0.292
Mof_C 	C 	0.64532	0.40791	0.96145	0.296
Mof_C 	C 	0.66237	0.42655	0.00151	-0.333
Mof_C 	C 	0.7309	0.3891	0.0199	0.115
Mof_C 	C 	0.747	0.4056	0.0616	-0.326
Mof_C 	C 	0.8149	0.3777	0.0749	0.184
Mof_C 	C 	0.8102	0.404	0.122	-0.488
Mof_C 	C 	0.9186	0.5883	0.3045	0.107
Mof_C 	C 	0.8802	0.5921	0.2699	-0.185
Mof_C 	C 	0.04071	0.59441	0.25277	0.138
Mof_C 	C 	0.00923	0.59768	0.21666	-0.219
Mof_C 	C 	0.9285	0.5952	0.224	0.135
Mof_C 	C 	0.8905	0.5959	0.1829	-0.145
Mof_C 	C 	0.32126	0.41804	0.58184	0.312
Mof_C 	C 	0.34459	0.41948	0.62274	-0.286
Mof_C 	C 	0.3975	0.4457	0.6245	0.163
Mof_C 	C 	0.4282	0.4702	0.5868	-0.222
Mof_C 	C 	0.40315	0.4715	0.5468	0.142
Mof_C 	C 	0.34871	0.4456	0.54378	-0.254
Mof_C 	C 	0.32153	0.45111	0.50143	0.307
Mof_C 	C 	0.19755	0.41069	0.45221	0.289
Mof_C 	C 	0.16138	0.41597	0.41187	-0.356
Mof_C 	C 	0.19162	0.37164	0.38372	0.151
Mof_C 	C 	0.28523	0.35967	0.35927	-0.347
Mof_C 	C 	0.3148	0.3173	0.3281	0.255
Mof_C 	C 	0.4069	0.3061	0.3035	-0.595
Mof_C 	C 	0.36982	0.47014	0.32682	0.316
Mof_C 	C 	0.44444	0.44446	0.29566	-0.292
Mof_C 	C 	0.45398	0.44525	0.24919	0.161
Mof_C 	C 	0.39147	0.47257	0.23049	-0.218
Mof_C 	C 	0.31661	0.49769	0.26069	0.137
Mof_C 	C 	0.30511	0.49702	0.30836	-0.248
Mof_C 	C 	0.22334	0.52616	0.33716	0.295
Mof_C 	C 	0.1327	0.56358	0.44922	0.298
Mof_C 	C 	0.06102	0.5991	0.48026	-0.359
Mof_C 	C 	0.09053	0.63967	0.49127	0.166
Mof_C 	C 	0.11358	0.66962	0.44822	-0.403
Mof_C 	C 	0.1397	0.7113	0.4583	0.376
Mof_C 	C 	0.1545	0.7415	0.4181	-0.749
Mof_C 	C 	0.37043	0.58109	0.37425	0.114
Mof_C 	C 	0.3937	0.62118	0.37222	-0.204
Mof_C 	C 	0.33805	0.58104	0.45266	0.112
Mof_C 	C 	0.359	0.6227	0.4521	-0.189
Mof_C 	C 	0.3864	0.6437	0.4107	0.135
Mof_C 	C 	0.4092	0.6894	0.4092	-0.134
Mof_C 	C 	0.97707	0.31674	0.64992	0.305
Mof_C 	C 	0.94884	0.27936	0.67276	-0.277
Mof_C 	C 	0.00105	0.23424	0.66806	0.136
Mof_C 	C 	0.08307	0.22476	0.6399	-0.203
Mof_C 	C 	0.1124	0.26082	0.61718	0.126
Mof_C 	C 	0.06163	0.30702	0.62172	-0.235
Mof_C 	C 	0.09955	0.34368	0.59602	0.292
Mof_C 	C 	0.05323	0.46145	0.59209	0.296
Mof_C 	C 	0.08892	0.50151	0.57345	-0.333
Mof_C 	C 	0.12	0.5199	0.6109	0.115
Mof_C 	C 	0.1526	0.5616	0.5944	-0.326
Mof_C 	C 	0.1926	0.5749	0.6223	0.184
Mof_C 	C 	0.2142	0.622	0.596	-0.488
Mof_C 	C 	0.5069	0.8045	0.4117	0.107
Mof_C 	C 	0.4723	0.7699	0.4079	-0.185
Mof_C 	C 	0.63512	0.75277	0.40559	0.138
Mof_C 	C 	0.60691	0.71666	0.40232	-0.219
Mof_C 	C 	0.5237	0.724	0.4048	0.134
Mof_C 	C 	0.4864	0.6829	0.4041	-0.143
Mof_C 	C 	0.82114	0.08196	0.91816	0.311
Mof_C 	C 	0.88681	0.08052	0.87726	-0.286
Mof_C 	C 	0.9677	0.0543	0.8755	0.162
Mof_C 	C 	0.9852	0.0298	0.9132	-0.223
Mof_C 	C 	0.92145	0.0285	0.9532	0.142
Mof_C 	C 	0.83809	0.0544	0.95622	-0.254
Mof_C 	C 	0.77407	0.04889	0.99857	0.306
Mof_C 	C 	0.56045	0.08931	0.04779	0.289
Mof_C 	C 	0.48922	0.08403	0.08813	-0.356
Mof_C 	C 	0.44698	0.12836	0.11628	0.151
Mof_C 	C 	0.50417	0.14033	0.14073	-0.347
Mof_C 	C 	0.4602	0.1827	0.1719	0.255
Mof_C 	C 	0.5165	0.1939	0.1965	-0.595
Mof_C 	C 	0.66678	0.02986	0.17318	0.316
Mof_C 	C 	0.68456	0.05554	0.20434	-0.292
Mof_C 	C 	0.64842	0.05475	0.25081	0.161
Mof_C 	C 	0.59453	0.02743	0.26951	-0.218
Mof_C 	C 	0.57499	0.00231	0.23931	0.137
Mof_C 	C 	0.61049	0.00298	0.19164	-0.248
Mof_C 	C 	0.58666	0.97384	0.16284	0.295
Mof_C 	C 	0.6455	0.93642	0.05078	0.298
Mof_C 	C 	0.64038	0.9009	0.01974	-0.359
Mof_C 	C 	0.72147	0.86033	0.00873	0.166
Mof_C 	C 	0.73142	0.83038	0.05178	-0.404
Mof_C 	C 	0.8093	0.7887	0.0417	0.376
Mof_C 	C 	0.8141	0.7585	0.0819	-0.749
Mof_C 	C 	0.82577	0.91891	0.12575	0.116
Mof_C 	C 	0.8871	0.87882	0.12778	-0.207
Mof_C 	C 	0.87175	0.91896	0.04734	0.114
Mof_C 	C 	0.9338	0.8773	0.0479	-0.192
Mof_C 	C 	0.9408	0.8563	0.0893	0.14
Mof_C 	C 	0.0078	0.8106	0.0908	-0.145
Mof_C 	C 	0.44373	0.18326	0.85008	0.304
Mof_C 	C 	0.40096	0.22064	0.82724	-0.275
Mof_C 	C 	0.40335	0.26576	0.83194	0.133
Mof_C 	C 	0.44773	0.27524	0.8601	-0.201
Mof_C 	C 	0.4904	0.23918	0.88282	0.125
Mof_C 	C 	0.49037	0.19298	0.87828	-0.235
Mof_C 	C 	0.53925	0.15632	0.90398	0.292
Mof_C 	C 	0.60677	0.03855	0.90791	0.295
Mof_C 	C 	0.66388	0.99849	0.92655	-0.332
Mof_C 	C 	0.7508	0.9801	0.8891	0.115
Mof_C 	C 	0.8086	0.9384	0.9056	-0.327
Mof_C 	C 	0.8898	0.9251	0.8777	0.184
Mof_C 	C 	0.9322	0.878	0.904	-0.488
Mof_C 	C 	0.2231	0.6955	0.0883	0.105
Mof_C 	C 	0.1501	0.7301	0.0921	-0.183
Mof_C 	C 	0.29348	0.74723	0.09441	0.136
Mof_C 	C 	0.22589	0.78334	0.09768	-0.216
Mof_C 	C 	0.1525	0.776	0.0952	0.13
Mof_C 	C 	0.0734	0.8171	0.0959	-0.134
Mof_N 	N 	0.30369	0.00234	0.42768	-0.254
Mof_N 	N 	0.31883	0.04418	0.43776	-0.205
Mof_N 	N 	0.25687	0.11763	0.52883	-0.253
Mof_N 	N 	0.30151	0.09443	0.56135	-0.21
Mof_N 	N 	0.09693	0.08554	0.5606	-0.203
Mof_N 	N 	0.55958	0.89857	0.38747	-0.25
Mof_N 	N 	0.48377	0.92226	0.42	-0.205
Mof_N 	N 	0.61399	0.09001	0.79661	-0.206
Mof_N 	N 	0.23371	0.49766	0.07232	-0.254
Mof_N 	N 	0.30077	0.45582	0.06224	-0.205
Mof_N 	N 	0.40333	0.38237	0.97117	-0.253
Mof_N 	N 	0.45729	0.40557	0.93865	-0.21
Mof_N 	N 	0.24307	0.41446	0.9394	-0.203
Mof_N 	N 	0.34562	0.60143	0.11253	-0.25
Mof_N 	N 	0.32603	0.57774	0.08	-0.205
Mof_N 	N 	0.00061	0.40999	0.70339	-0.206
Mof_N 	N 	0.73137	0.57232	0.50234	-0.254
Mof_N 	N 	0.75659	0.56224	0.54418	-0.205
Mof_N 	N 	0.7857	0.47117	0.61763	-0.253
Mof_N 	N 	0.86286	0.43865	0.59443	-0.21
Mof_N 	N 	0.65753	0.4394	0.58554	-0.203
Mof_N 	N 	0.94705	0.61253	0.39857	-0.25
Mof_N 	N 	0.90377	0.58	0.42226	-0.205
Mof_N 	N 	0.4106	0.20339	0.59001	-0.206
Mof_N 	N 	0.30603	0.92768	0.99766	-0.254
Mof_N 	N 	0.36301	0.93776	0.95582	-0.205
Mof_N 	N 	0.3745	0.02883	0.88237	-0.253
Mof_N 	N 	0.39594	0.06135	0.90557	-0.21
Mof_N 	N 	0.18247	0.0606	0.91446	-0.203
Mof_N 	N 	0.45815	0.88747	0.10143	-0.25
Mof_N 	N 	0.40603	0.92	0.07774	-0.205
Mof_N 	N 	0.704	0.29661	0.90999	-0.205
Mof_N 	N 	0.69631	0.99766	0.57232	-0.254
Mof_N 	N 	0.68117	0.95582	0.56224	-0.205
Mof_N 	N 	0.74313	0.88237	0.47117	-0.253
Mof_N 	N 	0.69849	0.90557	0.43865	-0.21
Mof_N 	N 	0.90307	0.91446	0.4394	-0.203
Mof_N 	N 	0.44042	0.10143	0.61253	-0.25
Mof_N 	N 	0.51623	0.07774	0.58	-0.205
Mof_N 	N 	0.38601	0.90999	0.20339	-0.206
Mof_N 	N 	0.76629	0.50234	0.92768	-0.254
Mof_N 	N 	0.69923	0.54418	0.93776	-0.205
Mof_N 	N 	0.59667	0.61763	0.02883	-0.253
Mof_N 	N 	0.54271	0.59443	0.06135	-0.21
Mof_N 	N 	0.75693	0.58554	0.0606	-0.203
Mof_N 	N 	0.65438	0.39857	0.88747	-0.25
Mof_N 	N 	0.67397	0.42226	0.92	-0.205
Mof_N 	N 	0.99939	0.59001	0.29661	-0.206
Mof_N 	N 	0.26863	0.42768	0.49766	-0.254
Mof_N 	N 	0.24341	0.43776	0.45582	-0.205
Mof_N 	N 	0.2143	0.52883	0.38237	-0.253
Mof_N 	N 	0.13714	0.56135	0.40557	-0.21
Mof_N 	N 	0.34247	0.5606	0.41446	-0.203
Mof_N 	N 	0.05295	0.38747	0.60143	-0.25
Mof_N 	N 	0.09623	0.42	0.57774	-0.205
Mof_N 	N 	0.5894	0.79661	0.40999	-0.206
Mof_N 	N 	0.69397	0.07232	0.00234	-0.254
Mof_N 	N 	0.63699	0.06224	0.04418	-0.205
Mof_N 	N 	0.6255	0.97117	0.11763	-0.253
Mof_N 	N 	0.60406	0.93865	0.09443	-0.21
Mof_N 	N 	0.81753	0.9394	0.08554	-0.203
Mof_N 	N 	0.54185	0.11253	0.89857	-0.25
Mof_N 	N 	0.59397	0.08	0.92226	-0.205
Mof_N 	N 	0.296	0.70339	0.09001	-0.205
Mof_O 	O 	0.33754	0.91804	0.39068	-0.427
Mof_O 	O 	0.17431	0.03034	0.47792	-0.384
Mof_O 	O 	0.43876	0.01692	0.37936	-0.403
Mof_O 	O 	0.16574	0.12849	0.46723	-0.431
Mof_O 	O 	0.2846	0.1829	0.54818	-0.38
Mof_O 	O 	0.2717	0.03256	0.53828	-0.407
Mof_O 	O 	0.7193	0.84304	0.35836	-0.433
Mof_O 	O 	0.4921	0.92986	0.33194	-0.384
Mof_O 	O 	0.54736	0.877	0.47108	-0.401
Mof_O 	O 	0.14626	0.58196	0.10932	-0.428
Mof_O 	O 	0.18257	0.46966	0.02208	-0.384
Mof_O 	O 	0.33504	0.48308	0.12064	-0.403
Mof_O 	O 	0.26146	0.37151	0.03277	-0.431
Mof_O 	O 	0.51568	0.3171	0.95182	-0.38
Mof_O 	O 	0.34254	0.46744	0.96172	-0.407
Mof_O 	O 	0.4207	0.65696	0.14164	-0.433
Mof_O 	O 	0.2539	0.57014	0.16806	-0.384
Mof_O 	O 	0.39544	0.623	0.02892	-0.401
Mof_O 	O 	0.72822	0.60932	0.41804	-0.427
Mof_O 	O 	0.65223	0.52208	0.53034	-0.384
Mof_O 	O 	0.81812	0.62064	0.51692	-0.403
Mof_O 	O 	0.63297	0.53277	0.62849	-0.431
Mof_O 	O 	0.83278	0.45182	0.6829	-0.38
Mof_O 	O 	0.80998	0.46172	0.53256	-0.407
Mof_O 	O 	0.07766	0.64164	0.34304	-0.434
Mof_O 	O 	0.82404	0.66806	0.42986	-0.384
Mof_O 	O 	0.01844	0.52892	0.377	-0.401
Mof_O 	O 	0.25558	0.89068	0.08196	-0.427
Mof_O 	O 	0.20465	0.97792	0.96966	-0.384
Mof_O 	O 	0.45568	0.87936	0.98308	-0.402
Mof_O 	O 	0.29423	0.96723	0.87151	-0.431
Mof_O 	O 	0.4675	0.04818	0.8171	-0.38
Mof_O 	O 	0.30426	0.03828	0.96744	-0.407
Mof_O 	O 	0.56234	0.85836	0.15696	-0.433
Mof_O 	O 	0.42196	0.83194	0.07014	-0.384
Mof_O 	O 	0.42436	0.97108	0.123	-0.401
Mof_O 	O 	0.66246	0.08196	0.60932	-0.427
Mof_O 	O 	0.82569	0.96966	0.52208	-0.384
Mof_O 	O 	0.56124	0.98308	0.62064	-0.403
Mof_O 	O 	0.83426	0.87151	0.53277	-0.431
Mof_O 	O 	0.7154	0.8171	0.45182	-0.38
Mof_O 	O 	0.7283	0.96744	0.46172	-0.407
Mof_O 	O 	0.2807	0.15696	0.64164	-0.433
Mof_O 	O 	0.5079	0.07014	0.66806	-0.384
Mof_O 	O 	0.45264	0.123	0.52892	-0.401
Mof_O 	O 	0.85374	0.41804	0.89068	-0.428
Mof_O 	O 	0.81743	0.53034	0.97792	-0.384
Mof_O 	O 	0.66496	0.51692	0.87936	-0.403
Mof_O 	O 	0.73854	0.62849	0.96723	-0.431
Mof_O 	O 	0.48432	0.6829	0.04818	-0.38
Mof_O 	O 	0.65746	0.53256	0.03828	-0.407
Mof_O 	O 	0.5793	0.34304	0.85836	-0.433
Mof_O 	O 	0.7461	0.42986	0.83194	-0.384
Mof_O 	O 	0.60456	0.377	0.97108	-0.401
Mof_O 	O 	0.27178	0.39068	0.58196	-0.427
Mof_O 	O 	0.34777	0.47792	0.46966	-0.384
Mof_O 	O 	0.18188	0.37936	0.48308	-0.403
Mof_O 	O 	0.36703	0.46723	0.37151	-0.431
Mof_O 	O 	0.16722	0.54818	0.3171	-0.38
Mof_O 	O 	0.19002	0.53828	0.46744	-0.407
Mof_O 	O 	0.92234	0.35836	0.65696	-0.434
Mof_O 	O 	0.17596	0.33194	0.57014	-0.384
Mof_O 	O 	0.98156	0.47108	0.623	-0.401
Mof_O 	O 	0.74442	0.10932	0.91804	-0.427
Mof_O 	O 	0.79535	0.02208	0.03034	-0.384
Mof_O 	O 	0.54432	0.12064	0.01692	-0.402
Mof_O 	O 	0.70577	0.03277	0.12849	-0.431
Mof_O 	O 	0.5325	0.95182	0.1829	-0.38
Mof_O 	O 	0.69574	0.96172	0.03256	-0.407
Mof_O 	O 	0.43766	0.14164	0.84304	-0.433
Mof_O 	O 	0.57804	0.16806	0.92986	-0.384
Mof_O 	O 	0.57564	0.02892	0.877	-0.401
_end
