data_functionalizedCrystal
_audit_creation_method	'EQeq! by Chris Wilmer'
_symmetry_space_group_name_H-M	'P1'
_symmetry_Int_Tables_number	1
_symmetry_cell_setting	triclinic
loop_
_symmetry_equiv_pos_as_xyz
  x,y,z
_cell_length_a	20.57
_cell_length_b	35.815
_cell_length_c	10.106
_cell_angle_alpha	90
_cell_angle_beta	114.694
_cell_angle_gamma	90
loop_
_atom_site_label
_atom_site_type_symbol
_atom_site_fract_x
_atom_site_fract_y
_atom_site_fract_z
_atom_site_charge
Mof_Nd	Nd	0.75752	0.19259	0.50891	2.924
Mof_Nd	Nd	0.63752	0.03095	0.47923	3.049
Mof_S 	S 	0.75292	0.97379	0.3719	1.161
Mof_S 	S 	0.55838	0.03571	0.1381	0.954
Mof_S 	S 	0.70632	0.11088	0.5164	0.704
Mof_S 	S 	0.90493	0.15756	0.5379	0.698
Mof_S 	S 	0.86778	0.26784	0.44287	0.963
Mof_S 	S 	0.84407	0.25263	0.82236	1.016
Mof_O 	O 	0.775	0.9368	0.405	-0.356
Mof_O 	O 	0.7141	0.9799	0.2222	-0.756
Mof_O 	O 	0.8207	0.9955	0.4209	-0.283
Mof_O 	O 	0.7159	0.9873	0.4546	-0.714
Mof_O 	O 	0.5867	0.02752	0.0304	-0.587
Mof_O 	O 	0.5653	0.00294	0.2291	-0.629
Mof_O 	O 	0.4843	0.04825	0.0607	-0.627
Mof_O 	O 	0.5999	0.06512	0.2391	-0.561
Mof_O 	O 	0.7387	0.07541	0.5017	-0.475
Mof_O 	O 	0.6409	0.10047	0.5323	-0.493
Mof_O 	O 	0.6904	0.13518	0.3898	-0.496
Mof_O 	O 	0.7568	0.13249	0.643	-0.455
Mof_O 	O 	0.9187	0.11812	0.5658	-0.204
Mof_O 	O 	0.9663	0.17704	0.5334	-0.422
Mof_O 	O 	0.8384	0.16375	0.4078	-0.489
Mof_O 	O 	0.8934	0.17602	0.6598	-0.648
Mof_O 	O 	0.8165	0.24802	0.4884	-0.847
Mof_O 	O 	0.8606	0.25577	0.3025	-0.296
Mof_O 	O 	0.8499	0.3076	0.444	-0.552
Mof_O 	O 	0.9404	0.26143	0.5537	-0.564
Mof_O 	O 	0.7996	0.21945	0.7524	-0.609
Mof_O 	O 	0.9165	0.24664	0.8316	-0.574
Mof_O 	O 	0.813	0.28661	0.7368	-0.625
Mof_O 	O 	0.8473	0.2566	0.9677	-0.269
Mof_Nd	Nd	0.25752	0.69259	0.50891	2.916
Mof_Nd	Nd	0.13752	0.53095	0.47923	3.024
Mof_S 	S 	0.25292	0.47379	0.3719	1.162
Mof_S 	S 	0.05838	0.53571	0.1381	0.824
Mof_S 	S 	0.20632	0.61088	0.5164	0.707
Mof_S 	S 	0.40493	0.65756	0.5379	0.712
Mof_S 	S 	0.36778	0.76784	0.44287	0.988
Mof_S 	S 	0.34407	0.75263	0.82236	1.042
Mof_O 	O 	0.275	0.4368	0.405	-0.371
Mof_O 	O 	0.2141	0.4799	0.2222	-0.756
Mof_O 	O 	0.3207	0.4955	0.4209	-0.301
Mof_O 	O 	0.2159	0.4873	0.4546	-0.717
Mof_O 	O 	0.0867	0.52752	0.0304	-0.58
Mof_O 	O 	0.0653	0.50294	0.2291	-0.629
Mof_O 	O 	0.9843	0.54825	0.0607	-0.534
Mof_O 	O 	0.0999	0.56512	0.2391	-0.552
Mof_O 	O 	0.2387	0.57541	0.5017	-0.479
Mof_O 	O 	0.1409	0.60047	0.5323	-0.505
Mof_O 	O 	0.1904	0.63518	0.3898	-0.505
Mof_O 	O 	0.2568	0.63249	0.643	-0.463
Mof_O 	O 	0.4187	0.61812	0.5658	-0.241
Mof_O 	O 	0.4663	0.67704	0.5334	-0.504
Mof_O 	O 	0.3384	0.66375	0.4078	-0.5
Mof_O 	O 	0.3934	0.67602	0.6598	-0.704
Mof_O 	O 	0.3165	0.74802	0.4884	-0.857
Mof_O 	O 	0.3606	0.75577	0.3025	-0.319
Mof_O 	O 	0.3499	0.8076	0.444	-0.57
Mof_O 	O 	0.4404	0.76143	0.5537	-0.65
Mof_O 	O 	0.2996	0.71945	0.7524	-0.622
Mof_O 	O 	0.4165	0.74664	0.8316	-0.658
Mof_O 	O 	0.313	0.78661	0.7368	-0.64
Mof_O 	O 	0.3473	0.7566	0.9677	-0.295
Mof_Nd	Nd	0.24248	0.19259	0.99109	2.904
Mof_Nd	Nd	0.36248	0.03095	0.02077	3.058
Mof_S 	S 	0.24708	0.97379	0.1281	1.172
Mof_S 	S 	0.44162	0.03571	0.3619	0.953
Mof_S 	S 	0.29368	0.11088	0.9836	0.701
Mof_S 	S 	0.09507	0.15756	0.9621	0.708
Mof_S 	S 	0.13222	0.26784	0.05713	0.984
Mof_S 	S 	0.15593	0.25263	0.67764	1.029
Mof_O 	O 	0.225	0.9368	0.095	-0.379
Mof_O 	O 	0.2859	0.9799	0.2778	-0.765
Mof_O 	O 	0.1793	0.9955	0.0791	-0.319
Mof_O 	O 	0.2841	0.9873	0.0454	-0.721
Mof_O 	O 	0.4133	0.02752	0.4696	-0.59
Mof_O 	O 	0.4347	0.00294	0.2709	-0.63
Mof_O 	O 	0.5157	0.04825	0.4393	-0.627
Mof_O 	O 	0.4001	0.06512	0.2609	-0.563
Mof_O 	O 	0.2613	0.07541	0.9983	-0.487
Mof_O 	O 	0.3591	0.10047	0.9677	-0.496
Mof_O 	O 	0.3096	0.13518	0.1102	-0.493
Mof_O 	O 	0.2432	0.13249	0.857	-0.465
Mof_O 	O 	0.0813	0.11812	0.9342	-0.27
Mof_O 	O 	0.0337	0.17704	0.9666	-0.514
Mof_O 	O 	0.1616	0.16375	0.0922	-0.499
Mof_O 	O 	0.1066	0.17602	0.8402	-0.691
Mof_O 	O 	0.1835	0.24802	0.0116	-0.849
Mof_O 	O 	0.1394	0.25577	0.1975	-0.33
Mof_O 	O 	0.1501	0.3076	0.056	-0.579
Mof_O 	O 	0.0596	0.26143	0.9463	-0.647
Mof_O 	O 	0.2004	0.21945	0.7476	-0.619
Mof_O 	O 	0.0835	0.24664	0.6684	-0.65
Mof_O 	O 	0.187	0.28661	0.7632	-0.643
Mof_O 	O 	0.1527	0.2566	0.5323	-0.304
Mof_Nd	Nd	0.74248	0.69259	0.99109	2.913
Mof_Nd	Nd	0.86248	0.53095	0.02077	3.079
Mof_S 	S 	0.74708	0.47379	0.1281	1.171
Mof_S 	S 	0.94162	0.53571	0.3619	1.084
Mof_S 	S 	0.79368	0.61088	0.9836	0.698
Mof_S 	S 	0.59507	0.65756	0.9621	0.707
Mof_S 	S 	0.63222	0.76784	0.05713	0.991
Mof_S 	S 	0.65593	0.75263	0.67764	1.042
Mof_O 	O 	0.725	0.4368	0.095	-0.367
Mof_O 	O 	0.7859	0.4799	0.2778	-0.765
Mof_O 	O 	0.6793	0.4955	0.0791	-0.302
Mof_O 	O 	0.7841	0.4873	0.0454	-0.719
Mof_O 	O 	0.9133	0.52752	0.4696	-0.595
Mof_O 	O 	0.9347	0.50294	0.2709	-0.629
Mof_O 	O 	0.0157	0.54825	0.4393	-0.721
Mof_O 	O 	0.9001	0.56512	0.2609	-0.571
Mof_O 	O 	0.7613	0.57541	0.9983	-0.483
Mof_O 	O 	0.8591	0.60047	0.9677	-0.483
Mof_O 	O 	0.8096	0.63518	0.1102	-0.483
Mof_O 	O 	0.7432	0.63249	0.857	-0.457
Mof_O 	O 	0.5813	0.61812	0.9342	-0.24
Mof_O 	O 	0.5337	0.67704	0.9666	-0.504
Mof_O 	O 	0.6616	0.66375	0.0922	-0.495
Mof_O 	O 	0.6066	0.67602	0.8402	-0.704
Mof_O 	O 	0.6835	0.74802	0.0116	-0.857
Mof_O 	O 	0.6394	0.75577	0.1975	-0.319
Mof_O 	O 	0.6501	0.8076	0.056	-0.57
Mof_O 	O 	0.5596	0.76143	0.9463	-0.653
Mof_O 	O 	0.7004	0.71945	0.7476	-0.62
Mof_O 	O 	0.5835	0.74664	0.6684	-0.658
Mof_O 	O 	0.687	0.78661	0.7632	-0.64
Mof_O 	O 	0.6527	0.7566	0.5323	-0.29
Mof_Nd	Nd	0.24248	0.80741	0.49109	2.916
Mof_Nd	Nd	0.36248	0.96905	0.52077	3.045
Mof_S 	S 	0.24708	0.02621	0.6281	1.174
Mof_S 	S 	0.44162	0.96429	0.8619	0.954
Mof_S 	S 	0.29368	0.88912	0.4836	0.706
Mof_S 	S 	0.09507	0.84244	0.4621	0.714
Mof_S 	S 	0.13222	0.73216	0.55713	0.979
Mof_S 	S 	0.15593	0.74737	0.17764	1.029
Mof_O 	O 	0.225	0.0632	0.595	-0.381
Mof_O 	O 	0.2859	0.0201	0.7778	-0.769
Mof_O 	O 	0.1793	0.0045	0.5791	-0.322
Mof_O 	O 	0.2841	0.0127	0.5454	-0.722
Mof_O 	O 	0.4133	0.97248	0.9696	-0.593
Mof_O 	O 	0.4347	0.99706	0.7709	-0.63
Mof_O 	O 	0.5157	0.95175	0.9393	-0.628
Mof_O 	O 	0.4001	0.93488	0.7609	-0.563
Mof_O 	O 	0.2613	0.92459	0.4983	-0.485
Mof_O 	O 	0.3591	0.89953	0.4677	-0.494
Mof_O 	O 	0.3096	0.86482	0.6102	-0.499
Mof_O 	O 	0.2432	0.86751	0.357	-0.466
Mof_O 	O 	0.0813	0.88188	0.4342	-0.27
Mof_O 	O 	0.0337	0.82296	0.4666	-0.515
Mof_O 	O 	0.1616	0.83625	0.5922	-0.506
Mof_O 	O 	0.1066	0.82398	0.3402	-0.692
Mof_O 	O 	0.1835	0.75198	0.5116	-0.851
Mof_O 	O 	0.1394	0.74423	0.6975	-0.331
Mof_O 	O 	0.1501	0.6924	0.556	-0.578
Mof_O 	O 	0.0596	0.73857	0.4463	-0.644
Mof_O 	O 	0.2004	0.78055	0.2476	-0.619
Mof_O 	O 	0.0835	0.75336	0.1684	-0.649
Mof_O 	O 	0.187	0.71339	0.2632	-0.64
Mof_O 	O 	0.1527	0.7434	0.0323	-0.301
Mof_Nd	Nd	0.74248	0.30741	0.49109	2.924
Mof_Nd	Nd	0.86248	0.46905	0.52077	3.069
Mof_S 	S 	0.74708	0.52621	0.6281	1.172
Mof_S 	S 	0.94162	0.46429	0.8619	1.085
Mof_S 	S 	0.79368	0.38912	0.4836	0.703
Mof_S 	S 	0.59507	0.34244	0.4621	0.711
Mof_S 	S 	0.63222	0.23216	0.55713	0.988
Mof_S 	S 	0.65593	0.24737	0.17764	1.042
Mof_O 	O 	0.725	0.5632	0.595	-0.368
Mof_O 	O 	0.7859	0.5201	0.7778	-0.767
Mof_O 	O 	0.6793	0.5045	0.5791	-0.304
Mof_O 	O 	0.7841	0.5127	0.5454	-0.72
Mof_O 	O 	0.9133	0.47248	0.9696	-0.598
Mof_O 	O 	0.9347	0.49706	0.7709	-0.629
Mof_O 	O 	0.0157	0.45175	0.9393	-0.722
Mof_O 	O 	0.9001	0.43488	0.7609	-0.571
Mof_O 	O 	0.7613	0.42459	0.4983	-0.481
Mof_O 	O 	0.8591	0.39953	0.4677	-0.481
Mof_O 	O 	0.8096	0.36482	0.6102	-0.488
Mof_O 	O 	0.7432	0.36751	0.357	-0.459
Mof_O 	O 	0.5813	0.38188	0.4342	-0.241
Mof_O 	O 	0.5337	0.32296	0.4666	-0.504
Mof_O 	O 	0.6616	0.33625	0.5922	-0.5
Mof_O 	O 	0.6066	0.32398	0.3402	-0.705
Mof_O 	O 	0.6835	0.25198	0.5116	-0.859
Mof_O 	O 	0.6394	0.24423	0.6975	-0.32
Mof_O 	O 	0.6501	0.1924	0.556	-0.57
Mof_O 	O 	0.5596	0.23857	0.4463	-0.651
Mof_O 	O 	0.7004	0.28055	0.2476	-0.621
Mof_O 	O 	0.5835	0.25336	0.1684	-0.657
Mof_O 	O 	0.687	0.21339	0.2632	-0.638
Mof_O 	O 	0.6527	0.2434	0.0323	-0.289
Mof_Nd	Nd	0.75752	0.80741	0.00891	2.933
Mof_Nd	Nd	0.63752	0.96905	0.97923	3.038
Mof_S 	S 	0.75292	0.02621	0.8719	1.161
Mof_S 	S 	0.55838	0.96429	0.6381	0.953
Mof_S 	S 	0.70632	0.88912	0.0164	0.706
Mof_S 	S 	0.90493	0.84244	0.0379	0.702
Mof_S 	S 	0.86778	0.73216	0.94287	0.958
Mof_S 	S 	0.84407	0.74737	0.32236	1.016
Mof_O 	O 	0.775	0.0632	0.905	-0.357
Mof_O 	O 	0.7141	0.0201	0.7222	-0.758
Mof_O 	O 	0.8207	0.0045	0.9209	-0.284
Mof_O 	O 	0.7159	0.0127	0.9546	-0.714
Mof_O 	O 	0.5867	0.97248	0.5304	-0.589
Mof_O 	O 	0.5653	0.99706	0.7291	-0.629
Mof_O 	O 	0.4843	0.95175	0.5607	-0.627
Mof_O 	O 	0.5999	0.93488	0.7391	-0.561
Mof_O 	O 	0.7387	0.92459	0.0017	-0.473
Mof_O 	O 	0.6409	0.89953	0.0323	-0.491
Mof_O 	O 	0.6904	0.86482	0.8898	-0.5
Mof_O 	O 	0.7568	0.86751	0.143	-0.456
Mof_O 	O 	0.9187	0.88188	0.0658	-0.204
Mof_O 	O 	0.9663	0.82296	0.0334	-0.423
Mof_O 	O 	0.8384	0.83625	0.9078	-0.494
Mof_O 	O 	0.8934	0.82398	0.1598	-0.65
Mof_O 	O 	0.8165	0.75198	0.9884	-0.848
Mof_O 	O 	0.8606	0.74423	0.8025	-0.297
Mof_O 	O 	0.8499	0.6924	0.944	-0.552
Mof_O 	O 	0.9404	0.73857	0.0537	-0.562
Mof_O 	O 	0.7996	0.78055	0.2524	-0.609
Mof_O 	O 	0.9165	0.75336	0.3316	-0.574
Mof_O 	O 	0.813	0.71339	0.2368	-0.623
Mof_O 	O 	0.8473	0.7434	0.4677	-0.268
Mof_Nd	Nd	0.25752	0.30741	0.00891	2.929
Mof_Nd	Nd	0.13752	0.46905	0.97923	3.011
Mof_S 	S 	0.25292	0.52621	0.8719	1.163
Mof_S 	S 	0.05838	0.46429	0.6381	0.822
Mof_S 	S 	0.20632	0.38912	0.0164	0.712
Mof_S 	S 	0.40493	0.34244	0.0379	0.717
Mof_S 	S 	0.36778	0.23216	0.94287	0.984
Mof_S 	S 	0.34407	0.24737	0.32236	1.042
Mof_O 	O 	0.275	0.5632	0.905	-0.372
Mof_O 	O 	0.2141	0.5201	0.7222	-0.759
Mof_O 	O 	0.3207	0.5045	0.9209	-0.302
Mof_O 	O 	0.2159	0.5127	0.9546	-0.717
Mof_O 	O 	0.0867	0.47248	0.5304	-0.584
Mof_O 	O 	0.0653	0.49706	0.7291	-0.63
Mof_O 	O 	0.9843	0.45175	0.5607	-0.533
Mof_O 	O 	0.0999	0.43488	0.7391	-0.552
Mof_O 	O 	0.2387	0.42459	0.0017	-0.477
Mof_O 	O 	0.1409	0.39953	0.0323	-0.502
Mof_O 	O 	0.1904	0.36482	0.8898	-0.511
Mof_O 	O 	0.2568	0.36751	0.143	-0.464
Mof_O 	O 	0.4187	0.38188	0.0658	-0.241
Mof_O 	O 	0.4663	0.32296	0.0334	-0.504
Mof_O 	O 	0.3384	0.33625	0.9078	-0.506
Mof_O 	O 	0.3934	0.32398	0.1598	-0.706
Mof_O 	O 	0.3165	0.25198	0.9884	-0.859
Mof_O 	O 	0.3606	0.24423	0.8025	-0.32
Mof_O 	O 	0.3499	0.1924	0.944	-0.569
Mof_O 	O 	0.4404	0.23857	0.0537	-0.647
Mof_O 	O 	0.2996	0.28055	0.2524	-0.623
Mof_O 	O 	0.4165	0.25336	0.3316	-0.658
Mof_O 	O 	0.313	0.21339	0.2368	-0.637
Mof_O 	O 	0.3473	0.2434	0.4677	-0.294
Mof_Nd	Nd	1.95873e-33	0.22002	0.75	2.687
Mof_Nd	Nd	0.5	0.72002	0.75	3.03
Mof_Nd	Nd	6.5291e-34	0.77998	0.25	2.696
Mof_Nd	Nd	0.5	0.27998	0.25	3.03
_end
