data_functionalizedCrystal
_audit_creation_method	'EQeq! by Chris Wilmer'
_symmetry_space_group_name_H-M	'P1'
_symmetry_Int_Tables_number	1
_symmetry_cell_setting	triclinic
loop_
_symmetry_equiv_pos_as_xyz
  x,y,z
_cell_length_a	6.654
_cell_length_b	16.448
_cell_length_c	13.375
_cell_angle_alpha	90
_cell_angle_beta	90
_cell_angle_gamma	90
loop_
_atom_site_label
_atom_site_type_symbol
_atom_site_fract_x
_atom_site_fract_y
_atom_site_fract_z
_atom_site_charge
Mof_O 	O 	0.16735	0.17417	0.83647	-4.112
Mof_C 	C 	0.81541	0.03664	0.96825	0.144
Mof_H 	H 	0.67291	0.06165	0.94464	-0.073
Mof_O 	O 	0.66743	0.67392	0.33614	-4.037
Mof_C 	C 	0.31543	0.53626	0.46768	0.14
Mof_H 	H 	0.17298	0.56126	0.44398	-0.113
Mof_O 	O 	0.82541	0.33109	0.83651	-4.06
Mof_C 	C 	0.1773	0.46815	0.96911	0.035
Mof_H 	H 	0.3198	0.44308	0.94563	-0.06
Mof_O 	O 	0.3251	0.831	0.33667	-4.025
Mof_C 	C 	0.67722	0.96767	0.46974	0.155
Mof_H 	H 	0.81968	0.94247	0.44641	-0.045
Mof_O 	O 	0.82513	0.6742	0.1644	-4.062
Mof_C 	C 	0.17722	0.53692	0.03234	0.036
Mof_H 	H 	0.31966	0.562	0.05592	-0.06
Mof_O 	O 	0.32533	0.17411	0.66451	-4.026
Mof_C 	C 	0.6773	0.03643	0.53298	0.156
Mof_H 	H 	0.81978	0.0614	0.55667	-0.044
Mof_O 	O 	0.16741	0.83104	0.16436	-4.111
Mof_C 	C 	0.81542	0.96785	0.03145	0.146
Mof_H 	H 	0.67296	0.94268	0.05483	-0.075
Mof_O 	O 	0.66723	0.33095	0.66427	-4.037
Mof_C 	C 	0.3154	0.46754	0.53097	0.142
Mof_H 	H 	0.17289	0.4424	0.55436	-0.114
Mof_O 	O 	0.82533	0.831	0.1643	-4.061
Mof_C 	C 	0.17726	0.96785	0.03143	0.037
Mof_H 	H 	0.31976	0.94269	0.05478	-0.061
Mof_O 	O 	0.32524	0.33093	0.66418	-4.026
Mof_C 	C 	0.67724	0.46754	0.531	0.157
Mof_H 	H 	0.81969	0.44239	0.55442	-0.044
Mof_O 	O 	0.1672	0.67425	0.16437	-4.114
Mof_C 	C 	0.81538	0.53676	0.03249	0.146
Mof_H 	H 	0.6729	0.56173	0.05619	-0.073
Mof_O 	O 	0.66751	0.17402	0.66465	-4.036
Mof_C 	C 	0.31546	0.03657	0.53284	0.14
Mof_H 	H 	0.17303	0.06166	0.5564	-0.113
Mof_O 	O 	0.16744	0.33118	0.83638	-4.112
Mof_C 	C 	0.81546	0.468	0.96926	0.146
Mof_H 	H 	0.67301	0.44281	0.94591	-0.074
Mof_O 	O 	0.66723	0.83094	0.3367	-4.037
Mof_C 	C 	0.31538	0.96782	0.46961	0.14
Mof_H 	H 	0.17288	0.94273	0.44615	-0.114
Mof_O 	O 	0.82512	0.17419	0.83656	-4.059
Mof_C 	C 	0.17724	0.03664	0.96823	0.035
Mof_H 	H 	0.31967	0.06167	0.94458	-0.06
Mof_O 	O 	0.32531	0.67396	0.33621	-4.028
Mof_C 	C 	0.67726	0.53626	0.4677	0.155
Mof_H 	H 	0.81973	0.56125	0.44404	-0.043
Mof_Al	Al	0.24614	0.25262	0.75041	17.413
Mof_Al	Al	0.74628	0.25263	0.75048	17.691
Mof_Al	Al	0.74603	0.75263	0.25041	17.698
Mof_Al	Al	0.24611	0.75261	0.25049	17.413
Mof_O 	O 	0.99621	0.25268	0.69682	-7.719
Mof_O 	O 	0.49605	0.75281	0.19687	-7.779
Mof_O 	O 	0.99604	0.75271	0.30409	-7.711
Mof_O 	O 	0.4962	0.25278	0.80404	-7.769
Mof_C 	C 	0.9963	0.07259	0.9356	-0.655
Mof_C 	C 	0.99625	0.14506	0.86573	2.778
Mof_C 	C 	0.49635	0.57221	0.43504	-0.77
Mof_C 	C 	0.49637	0.64475	0.3653	2.663
Mof_C 	C 	0.99642	0.43233	0.9362	-0.657
Mof_C 	C 	0.99643	0.36016	0.86586	2.783
Mof_C 	C 	0.49625	0.932	0.43667	-0.771
Mof_C 	C 	0.49618	0.85994	0.36617	2.661
Mof_C 	C 	0.99625	0.57273	0.06514	-0.657
Mof_C 	C 	0.99618	0.64511	0.13512	2.785
Mof_C 	C 	0.49641	0.07245	0.56556	-0.77
Mof_C 	C 	0.49643	0.14491	0.63541	2.663
Mof_C 	C 	0.99636	0.9321	0.06443	-0.659
Mof_C 	C 	0.99636	0.86001	0.13487	2.783
Mof_C 	C 	0.49631	0.43186	0.56408	-0.773
Mof_C 	C 	0.49625	0.35989	0.6347	2.667
Mof_H 	H 	0.49601	0.75308	0.13241	2.211
Mof_H 	H 	0.4962	0.25299	0.86849	2.209
Mof_H 	H 	0.9962	0.25278	0.63237	2.237
Mof_H 	H 	0.996	0.75284	0.36854	2.234
_end
