data_functionalizedCrystal
_audit_creation_method	'EQeq! by Chris Wilmer'
_symmetry_space_group_name_H-M	'P1'
_symmetry_Int_Tables_number	1
_symmetry_cell_setting	triclinic
loop_
_symmetry_equiv_pos_as_xyz
  x,y,z
_cell_length_a	6.5909
_cell_length_b	10.3821
_cell_length_c	17.6921
_cell_angle_alpha	92.2787
_cell_angle_beta	100.735
_cell_angle_gamma	77.6749
loop_
_atom_site_label
_atom_site_type_symbol
_atom_site_fract_x
_atom_site_fract_y
_atom_site_fract_z
_atom_site_charge
Mof_Li	Li	0.37707	0.75	0.75414	7.508
Mof_Li	Li	0.62293	0.25	0.24586	7.508
Mof_Cd	Cd	0.87992	0.75	0.75984	0.234
Mof_Cd	Cd	0.12008	0.25	0.24016	0.234
Mof_H 	H 	0.2934	0.6054	0.5806	-0.145
Mof_H 	H 	0.8753	0.4709	0.534	0.008
Mof_H 	H 	0.3142	0.8848	0.9058	-0.178
Mof_H 	H 	0.8268	0.0398	0.9886	0.012
Mof_H 	H 	0.2872	0.8946	0.5806	-0.144
Mof_H 	H 	0.6587	0.0291	0.534	0.008
Mof_H 	H 	0.5916	0.6152	0.9058	-0.179
Mof_H 	H 	0.1618	0.4602	0.9886	0.011
Mof_H 	H 	0.7066	0.3946	0.4194	-0.145
Mof_H 	H 	0.1247	0.5291	0.466	0.008
Mof_H 	H 	0.6858	0.1152	0.0942	-0.178
Mof_H 	H 	0.1732	0.9602	0.0114	0.012
Mof_H 	H 	0.7128	0.1054	0.4194	-0.144
Mof_H 	H 	0.3413	0.9709	0.466	0.008
Mof_H 	H 	0.4084	0.3848	0.0942	-0.179
Mof_H 	H 	0.8382	0.5398	0.0114	0.011
Mof_C 	C 	0.68094	0.6024	0.64608	1.095
Mof_C 	C 	0.58503	0.5489	0.57026	-0.392
Mof_C 	C 	0.36858	0.565	0.54876	0.192
Mof_C 	C 	0.71689	0.4839	0.52098	-0.007
Mof_C 	C 	0.68802	0.8953	0.86924	1.017
Mof_C 	C 	0.58831	0.95071	0.93622	-0.393
Mof_C 	C 	0.39415	0.9272	0.9447	0.157
Mof_C 	C 	0.69272	0.0245	0.99184	0.01
Mof_C 	C 	0.96514	0.8976	0.64608	1.096
Mof_C 	C 	0.98523	0.9511	0.57026	-0.391
Mof_C 	C 	0.18018	0.935	0.54876	0.191
Mof_C 	C 	0.80409	0.0161	0.52098	-0.007
Mof_C 	C 	0.18122	0.6047	0.86924	1.016
Mof_C 	C 	0.34791	0.54929	0.93622	-0.392
Mof_C 	C 	0.55055	0.5728	0.9447	0.159
Mof_C 	C 	0.29912	0.4755	0.99184	0.008
Mof_C 	C 	0.31906	0.3976	0.35392	1.095
Mof_C 	C 	0.41497	0.4511	0.42974	-0.392
Mof_C 	C 	0.63142	0.435	0.45124	0.192
Mof_C 	C 	0.28311	0.5161	0.47902	-0.007
Mof_C 	C 	0.31198	0.1047	0.13076	1.017
Mof_C 	C 	0.41169	0.04929	0.06378	-0.393
Mof_C 	C 	0.60585	0.0728	0.0553	0.157
Mof_C 	C 	0.30728	0.9755	0.00816	0.01
Mof_C 	C 	0.03486	0.1024	0.35392	1.096
Mof_C 	C 	0.01477	0.0489	0.42974	-0.391
Mof_C 	C 	0.81982	0.065	0.45124	0.191
Mof_C 	C 	0.19591	0.9839	0.47902	-0.007
Mof_C 	C 	0.81878	0.3953	0.13076	1.016
Mof_C 	C 	0.65209	0.45071	0.06378	-0.392
Mof_C 	C 	0.44945	0.4272	0.0553	0.159
Mof_C 	C 	0.70088	0.5245	0.00816	0.008
Mof_O 	O 	0.87581	0.5975	0.66002	-0.584
Mof_O 	O 	0.56186	0.6508	0.69132	-2.008
Mof_O 	O 	0.58572	0.83297	0.81824	-1.909
Mof_O 	O 	0.8685	0.90992	0.865	-0.529
Mof_O 	O 	0.78421	0.9025	0.66002	-0.584
Mof_O 	O 	0.12946	0.8492	0.69132	-2.009
Mof_O 	O 	0.23252	0.66703	0.81824	-1.909
Mof_O 	O 	0.9965	0.59008	0.865	-0.528
Mof_O 	O 	0.12419	0.4025	0.33998	-0.584
Mof_O 	O 	0.43814	0.3492	0.30868	-2.008
Mof_O 	O 	0.41428	0.16703	0.18176	-1.909
Mof_O 	O 	0.1315	0.09008	0.135	-0.529
Mof_O 	O 	0.21579	0.0975	0.33998	-0.584
Mof_O 	O 	0.87054	0.1508	0.30868	-2.009
Mof_O 	O 	0.76748	0.33297	0.18176	-1.909
Mof_O 	O 	0.0035	0.40992	0.135	-0.528
Mof_H 	H 	0.737	0.8826	0.2396	-0.123
Mof_H 	H 	0.6017	0.9334	0.303	-0.128
Mof_H 	H 	0.4917	0.8942	0.2214	-0.09
Mof_H 	H 	0.5026	0.6174	0.2396	-0.123
Mof_H 	H 	0.7013	0.5666	0.303	-0.129
Mof_H 	H 	0.7297	0.6058	0.2214	-0.091
Mof_C 	C 	0.6162	0.8738	0.2604	0.23
Mof_C 	C 	0.6442	0.6262	0.2604	0.23
Mof_N 	N 	0.64238	0.75	0.28476	-0.21
Mof_H 	H 	0.263	0.1174	0.7604	-0.123
Mof_H 	H 	0.3983	0.0666	0.697	-0.128
Mof_H 	H 	0.5083	0.1058	0.7786	-0.09
Mof_H 	H 	0.4974	0.3826	0.7604	-0.123
Mof_H 	H 	0.2987	0.4334	0.697	-0.129
Mof_H 	H 	0.2703	0.3942	0.7786	-0.091
Mof_C 	C 	0.3838	0.1262	0.7396	0.23
Mof_C 	C 	0.3558	0.3738	0.7396	0.23
Mof_N 	N 	0.35762	0.25	0.71524	-0.21
_end
