data_functionalizedCrystal
_audit_creation_method	'EQeq! by Chris Wilmer'
_symmetry_space_group_name_H-M	'P1'
_symmetry_Int_Tables_number	1
_symmetry_cell_setting	triclinic
loop_
_symmetry_equiv_pos_as_xyz
  x,y,z
_cell_length_a	8.6482
_cell_length_b	10.3263
_cell_length_c	12.9197
_cell_angle_alpha	112.248
_cell_angle_beta	108.035
_cell_angle_gamma	93.5997
loop_
_atom_site_label
_atom_site_type_symbol
_atom_site_fract_x
_atom_site_fract_y
_atom_site_fract_z
_atom_site_charge
Mof_Cd	Cd	0.95596	0.47052	0.21379	0.406
Mof_Cd	Cd	0.30865	0.2898	0.31237	0.37
Mof_Cd	Cd	0.24217	0.25673	0.78621	0.453
Mof_Cd	Cd	0.49628	0.97743	0.68763	0.298
Mof_H 	H 	0.1559	0.7909	0.458	0.012
Mof_H 	H 	0.5037	0.6108	0.5782	-0.005
Mof_H 	H 	0.0767	0.4597	0.9838	0.033
Mof_H 	H 	0.4002	0.237	0.0572	0.01
Mof_H 	H 	0.8806	0.1643	0.395	0.102
Mof_H 	H 	0.7156	0.1109	0.2832	0.115
Mof_H 	H 	0.0073	0.004	0.2792	0.154
Mof_H 	H 	0.8402	0.9493	0.1682	0.06
Mof_H 	H 	0.8741	0.9268	0.3828	0.097
Mof_H 	H 	0.7097	0.8697	0.2706	0.112
Mof_H 	H 	0.1979	0.3329	0.542	0.014
Mof_H 	H 	0.4255	0.0326	0.4218	0.011
Mof_H 	H 	0.5929	0.4759	0.0162	0.005
Mof_H 	H 	0.843	0.1798	0.9428	0.002
Mof_H 	H 	0.9856	0.7693	0.605	0.021
Mof_H 	H 	0.9324	0.8277	0.7168	0.014
Mof_H 	H 	0.2281	0.7248	0.7208	0.066
Mof_H 	H 	0.172	0.7811	0.8318	0.061
Mof_H 	H 	0.9913	0.544	0.6172	0.04
Mof_H 	H 	0.9391	0.5991	0.7294	0.039
Mof_C 	C 	0.21788	0.72268	0.46656	0.103
Mof_C 	C 	0.40648	0.62568	0.53176	0.098
Mof_C 	C 	0.14632	0.41372	0.02224	0.097
Mof_C 	C 	0.32081	0.29351	0.06202	0.104
Mof_C 	C 	0.89031	0.24341	0.27442	0.287
Mof_C 	C 	0.83572	0.12872	0.30824	-0.229
Mof_C 	C 	0.88731	0.98801	0.25502	-0.142
Mof_C 	C 	0.82977	0.88397	0.29574	-0.278
Mof_C 	C 	0.87489	0.73899	0.25258	0.344
Mof_C 	C 	0.25132	0.25612	0.53344	0.106
Mof_C 	C 	0.37472	0.09392	0.46824	0.103
Mof_C 	C 	0.62408	0.39148	0.97776	0.118
Mof_C 	C 	0.75879	0.23149	0.93798	0.105
Mof_C 	C 	0.11589	0.96899	0.72558	0.174
Mof_C 	C 	0.02748	0.82048	0.69176	-0.054
Mof_C 	C 	0.13229	0.73299	0.74498	-0.072
Mof_C 	C 	0.03403	0.58823	0.70426	-0.104
Mof_C 	C 	0.12231	0.48641	0.74742	0.305
Mof_N 	N 	0.2942	0.5221	0.4356	-0.116
Mof_N 	N 	0.16997	0.58637	0.39354	-0.101
Mof_N 	N 	0.36624	0.75374	0.55528	-0.169
Mof_N 	N 	0.27108	0.33978	0.15336	-0.118
Mof_N 	N 	0.15652	0.41892	0.12724	-0.1
Mof_N 	N 	0.24565	0.33595	0.9763	-0.147
Mof_N 	N 	0.3586	0.0865	0.5644	-0.102
Mof_N 	N 	0.27643	0.19283	0.60646	-0.109
Mof_N 	N 	0.31096	0.19846	0.44472	-0.163
Mof_N 	N 	0.61772	0.18642	0.84664	-0.112
Mof_N 	N 	0.52928	0.29168	0.87276	-0.116
Mof_N 	N 	0.76935	0.35965	0.0237	-0.165
Mof_O 	O 	0.00407	0.23507	0.23214	-0.243
Mof_O 	O 	0.81894	0.34674	0.29068	-0.279
Mof_O 	O 	0.978	0.7144	0.2012	-0.306
Mof_O 	O 	0.80946	0.64656	0.27532	-0.293
Mof_O 	O 	0.27193	0.00293	0.76786	-0.21
Mof_O 	O 	0.02826	0.05606	0.70932	-0.185
Mof_O 	O 	0.2768	0.5132	0.7988	-0.267
Mof_O 	O 	0.03414	0.37124	0.72468	-0.254
_end
