data_functionalizedCrystal
_audit_creation_method	'EQeq! by Chris Wilmer'
_symmetry_space_group_name_H-M	'P1'
_symmetry_Int_Tables_number	1
_symmetry_cell_setting	triclinic
loop_
_symmetry_equiv_pos_as_xyz
  x,y,z
_cell_length_a	26.0818
_cell_length_b	26.0818
_cell_length_c	6.8783
_cell_angle_alpha	90
_cell_angle_beta	90
_cell_angle_gamma	120
loop_
_atom_site_label
_atom_site_type_symbol
_atom_site_fract_x
_atom_site_fract_y
_atom_site_fract_z
_atom_site_charge
Mof_Fe	Fe	0.3862	0.3557	0.1342	0.771
Mof_O 	O 	0.3256	0.2966	0.3697	-0.457
Mof_O 	O 	0.3573	0.2668	0.0098	-0.359
Mof_O 	O 	0.4373	0.4073	0.9237	-0.399
Mof_C 	C 	0.3206	0.2494	0.4203	0.422
Mof_C 	C 	0.341	0.2164	0.1172	0.177
Mof_C 	C 	0.3157	0.1994	0.3003	-0.17
Mof_C 	C 	0.3451	0.1818	0.9755	-0.059
Mof_H 	H 	0.3613	0.1928	0.8382	0.075
Mof_Fe	Fe	0.05287	0.68903	0.46753	0.77
Mof_O 	O 	0.99227	0.62993	0.70303	-0.458
Mof_O 	O 	0.02397	0.60013	0.34313	-0.358
Mof_O 	O 	0.10397	0.74063	0.25703	-0.399
Mof_C 	C 	0.98727	0.58273	0.75363	0.423
Mof_C 	C 	0.00767	0.54973	0.45053	0.177
Mof_C 	C 	0.98237	0.53273	0.63363	-0.17
Mof_C 	C 	0.01177	0.51513	0.30883	-0.059
Mof_H 	H 	0.02797	0.52613	0.17153	0.075
Mof_Fe	Fe	0.71953	0.02237	0.80087	0.771
Mof_O 	O 	0.65893	0.96327	0.03637	-0.458
Mof_O 	O 	0.69063	0.93347	0.67647	-0.359
Mof_O 	O 	0.77063	0.07397	0.59037	-0.399
Mof_C 	C 	0.65393	0.91607	0.08697	0.423
Mof_C 	C 	0.67433	0.88307	0.78387	0.177
Mof_C 	C 	0.64903	0.86607	0.96697	-0.17
Mof_C 	C 	0.67843	0.84847	0.64217	-0.059
Mof_H 	H 	0.69463	0.85947	0.50487	0.075
Mof_Fe	Fe	0.6443	0.0305	0.1342	0.77
Mof_O 	O 	0.7034	0.029	0.3697	-0.458
Mof_O 	O 	0.7332	0.0905	0.0098	-0.359
Mof_O 	O 	0.5927	0.03	0.9237	-0.399
Mof_C 	C 	0.7506	0.0712	0.4203	0.422
Mof_C 	C 	0.7836	0.1246	0.1172	0.176
Mof_C 	C 	0.8006	0.1163	0.3003	-0.169
Mof_C 	C 	0.8182	0.1633	0.9755	-0.058
Mof_H 	H 	0.8072	0.1685	0.8382	0.075
Mof_Fe	Fe	0.31097	0.36383	0.46753	0.77
Mof_O 	O 	0.37007	0.36233	0.70303	-0.458
Mof_O 	O 	0.39987	0.42383	0.34313	-0.359
Mof_O 	O 	0.25937	0.36333	0.25703	-0.399
Mof_C 	C 	0.41727	0.40453	0.75363	0.423
Mof_C 	C 	0.45027	0.45793	0.45053	0.177
Mof_C 	C 	0.46727	0.44963	0.63363	-0.17
Mof_C 	C 	0.48487	0.49663	0.30883	-0.059
Mof_H 	H 	0.47387	0.50183	0.17153	0.075
Mof_Fe	Fe	0.97763	0.69717	0.80087	0.77
Mof_O 	O 	0.03673	0.69567	0.03637	-0.458
Mof_O 	O 	0.06653	0.75717	0.67647	-0.359
Mof_O 	O 	0.92603	0.69667	0.59037	-0.399
Mof_C 	C 	0.08393	0.73787	0.08697	0.423
Mof_C 	C 	0.11693	0.79127	0.78387	0.177
Mof_C 	C 	0.13393	0.78297	0.96697	-0.17
Mof_C 	C 	0.15153	0.82997	0.64217	-0.059
Mof_H 	H 	0.14053	0.83517	0.50487	0.075
Mof_Fe	Fe	0.9695	0.6138	0.1342	0.77
Mof_O 	O 	0.971	0.6744	0.3697	-0.458
Mof_O 	O 	0.9095	0.6427	0.0098	-0.359
Mof_O 	O 	0.97	0.5627	0.9237	-0.399
Mof_C 	C 	0.9288	0.6794	0.4203	0.422
Mof_C 	C 	0.8754	0.659	0.1172	0.177
Mof_C 	C 	0.8837	0.6843	0.3003	-0.17
Mof_C 	C 	0.8367	0.6549	0.9755	-0.059
Mof_H 	H 	0.8315	0.6387	0.8382	0.075
Mof_Fe	Fe	0.63617	0.94713	0.46753	0.77
Mof_O 	O 	0.63767	0.00773	0.70303	-0.458
Mof_O 	O 	0.57617	0.97603	0.34313	-0.359
Mof_O 	O 	0.63667	0.89603	0.25703	-0.399
Mof_C 	C 	0.59547	0.01273	0.75363	0.422
Mof_C 	C 	0.54207	0.99233	0.45053	0.177
Mof_C 	C 	0.55037	0.01763	0.63363	-0.17
Mof_C 	C 	0.50337	0.98823	0.30883	-0.059
Mof_H 	H 	0.49817	0.97203	0.17153	0.075
Mof_Fe	Fe	0.30283	0.28047	0.80087	0.77
Mof_O 	O 	0.30433	0.34107	0.03637	-0.458
Mof_O 	O 	0.24283	0.30937	0.67647	-0.359
Mof_O 	O 	0.30333	0.22937	0.59037	-0.399
Mof_C 	C 	0.26213	0.34607	0.08697	0.423
Mof_C 	C 	0.20873	0.32567	0.78387	0.177
Mof_C 	C 	0.21703	0.35097	0.96697	-0.17
Mof_C 	C 	0.17003	0.32157	0.64217	-0.059
Mof_H 	H 	0.16483	0.30537	0.50487	0.075
Mof_Fe	Fe	0.6138	0.6443	0.8658	0.77
Mof_O 	O 	0.6744	0.7034	0.6303	-0.458
Mof_O 	O 	0.6427	0.7332	0.9902	-0.359
Mof_O 	O 	0.5627	0.5927	0.0763	-0.399
Mof_C 	C 	0.6794	0.7506	0.5797	0.422
Mof_C 	C 	0.659	0.7836	0.8828	0.177
Mof_C 	C 	0.6843	0.8006	0.6997	-0.17
Mof_C 	C 	0.6549	0.8182	0.0245	-0.059
Mof_H 	H 	0.6387	0.8072	0.1618	0.075
Mof_Fe	Fe	0.28047	0.97763	0.19913	0.771
Mof_O 	O 	0.34107	0.03673	0.96363	-0.458
Mof_O 	O 	0.30937	0.06653	0.32353	-0.359
Mof_O 	O 	0.22937	0.92603	0.40963	-0.399
Mof_C 	C 	0.34607	0.08393	0.91303	0.423
Mof_C 	C 	0.32567	0.11693	0.21613	0.177
Mof_C 	C 	0.35097	0.13393	0.03303	-0.17
Mof_C 	C 	0.32157	0.15153	0.35783	-0.059
Mof_H 	H 	0.30537	0.14053	0.49513	0.075
Mof_Fe	Fe	0.94713	0.31097	0.53247	0.77
Mof_O 	O 	0.00773	0.37007	0.29697	-0.458
Mof_O 	O 	0.97603	0.39987	0.65687	-0.358
Mof_O 	O 	0.89603	0.25937	0.74297	-0.399
Mof_C 	C 	0.01273	0.41727	0.24637	0.423
Mof_C 	C 	0.99233	0.45027	0.54947	0.177
Mof_C 	C 	0.01763	0.46727	0.36637	-0.17
Mof_C 	C 	0.98823	0.48487	0.69117	-0.059
Mof_H 	H 	0.97203	0.47387	0.82847	0.075
Mof_Fe	Fe	0.3557	0.9695	0.8658	0.77
Mof_O 	O 	0.2966	0.971	0.6303	-0.458
Mof_O 	O 	0.2668	0.9095	0.9902	-0.359
Mof_O 	O 	0.4073	0.97	0.0763	-0.399
Mof_C 	C 	0.2494	0.9288	0.5797	0.422
Mof_C 	C 	0.2164	0.8754	0.8828	0.176
Mof_C 	C 	0.1994	0.8837	0.6997	-0.169
Mof_C 	C 	0.1818	0.8367	0.0245	-0.058
Mof_H 	H 	0.1928	0.8315	0.1618	0.075
Mof_Fe	Fe	0.02237	0.30283	0.19913	0.77
Mof_O 	O 	0.96327	0.30433	0.96363	-0.458
Mof_O 	O 	0.93347	0.24283	0.32353	-0.359
Mof_O 	O 	0.07397	0.30333	0.40963	-0.399
Mof_C 	C 	0.91607	0.26213	0.91303	0.423
Mof_C 	C 	0.88307	0.20873	0.21613	0.177
Mof_C 	C 	0.86607	0.21703	0.03303	-0.17
Mof_C 	C 	0.84847	0.17003	0.35783	-0.059
Mof_H 	H 	0.85947	0.16483	0.49513	0.075
Mof_Fe	Fe	0.68903	0.63617	0.53247	0.77
Mof_O 	O 	0.62993	0.63767	0.29697	-0.458
Mof_O 	O 	0.60013	0.57617	0.65687	-0.359
Mof_O 	O 	0.74063	0.63667	0.74297	-0.399
Mof_C 	C 	0.58273	0.59547	0.24637	0.423
Mof_C 	C 	0.54973	0.54207	0.54947	0.177
Mof_C 	C 	0.53273	0.55037	0.36637	-0.17
Mof_C 	C 	0.51513	0.50337	0.69117	-0.059
Mof_H 	H 	0.52613	0.49817	0.82847	0.075
Mof_Fe	Fe	0.0305	0.3862	0.8658	0.77
Mof_O 	O 	0.029	0.3256	0.6303	-0.458
Mof_O 	O 	0.0905	0.3573	0.9902	-0.359
Mof_O 	O 	0.03	0.4373	0.0763	-0.399
Mof_C 	C 	0.0712	0.3206	0.5797	0.422
Mof_C 	C 	0.1246	0.341	0.8828	0.177
Mof_C 	C 	0.1163	0.3157	0.6997	-0.17
Mof_C 	C 	0.1633	0.3451	0.0245	-0.059
Mof_H 	H 	0.1685	0.3613	0.1618	0.075
Mof_Fe	Fe	0.69717	0.71953	0.19913	0.77
Mof_O 	O 	0.69567	0.65893	0.96363	-0.458
Mof_O 	O 	0.75717	0.69063	0.32353	-0.359
Mof_O 	O 	0.69667	0.77063	0.40963	-0.399
Mof_C 	C 	0.73787	0.65393	0.91303	0.423
Mof_C 	C 	0.79127	0.67433	0.21613	0.177
Mof_C 	C 	0.78297	0.64903	0.03303	-0.17
Mof_C 	C 	0.82997	0.67843	0.35783	-0.059
Mof_H 	H 	0.83517	0.69463	0.49513	0.075
Mof_Fe	Fe	0.36383	0.05287	0.53247	0.77
Mof_O 	O 	0.36233	0.99227	0.29697	-0.458
Mof_O 	O 	0.42383	0.02397	0.65687	-0.359
Mof_O 	O 	0.36333	0.10397	0.74297	-0.399
Mof_C 	C 	0.40453	0.98727	0.24637	0.422
Mof_C 	C 	0.45793	0.00767	0.54947	0.177
Mof_C 	C 	0.44963	0.98237	0.36637	-0.17
Mof_C 	C 	0.49663	0.01177	0.69117	-0.059
Mof_H 	H 	0.50183	0.02797	0.82847	0.075
_end
