data_functionalizedCrystal
_audit_creation_method	'EQeq! by Chris Wilmer'
_symmetry_space_group_name_H-M	'P1'
_symmetry_Int_Tables_number	1
_symmetry_cell_setting	triclinic
loop_
_symmetry_equiv_pos_as_xyz
  x,y,z
_cell_length_a	9.7932
_cell_length_b	10.6592
_cell_length_c	17.5643
_cell_angle_alpha	83.846
_cell_angle_beta	86.318
_cell_angle_gamma	65.184
loop_
_atom_site_label
_atom_site_type_symbol
_atom_site_fract_x
_atom_site_fract_y
_atom_site_fract_z
_atom_site_charge
Mof_U 	U 	0.9428	0.18545	0.7511	0.013
Mof_U 	U 	0.31303	0.28899	0.74961	0.011
Mof_U 	U 	0.6249	0.73917	0.75104	0.019
Mof_P 	P 	0.6863	0.0206	0.81288	0.385
Mof_P 	P 	0.0065	0.5038	0.68074	0.385
Mof_P 	P 	0.7547	0.0266	0.17183	0.378
Mof_P 	P 	0.5755	0.4517	0.67835	0.382
Mof_O 	O 	0.7939	0.0676	0.7657	-0.153
Mof_O 	O 	0.7221	0.8691	0.8043	-0.16
Mof_O 	O 	0.5235	0.1123	0.7933	-0.163
Mof_O 	O 	0.0353	0.3589	0.7203	-0.147
Mof_O 	O 	0.1454	0.5239	0.6994	-0.167
Mof_O 	O 	0.8621	0.6173	0.705	-0.163
Mof_O 	O 	0.7874	0.8779	0.2092	-0.143
Mof_O 	O 	0.8983	0.0427	0.1864	-0.167
Mof_O 	O 	0.6127	0.1383	0.2024	-0.16
Mof_O 	O 	0.7405	0.3519	0.6884	-0.162
Mof_O 	O 	0.4718	0.399	0.7249	-0.156
Mof_O 	O 	0.5467	0.5981	0.6988	-0.153
Mof_C 	C 	0.5879	0.1092	0.9575	-0.029
Mof_H 	H 	0.493	0.1638	0.9349	0.076
Mof_C 	C 	0.7054	0.0319	0.9124	-0.014
Mof_C 	C 	0.8397	0.955	0.9485	-0.029
Mof_H 	H 	0.9265	0.9045	0.919	0.08
Mof_C 	C 	0.9289	0.6224	0.5332	-0.026
Mof_H 	H 	0.88	0.7075	0.556	0.075
Mof_C 	C 	0.9993	0.4997	0.5811	-0.028
Mof_C 	C 	0.0727	0.3752	0.5454	-0.028
Mof_H 	H 	0.123	0.2899	0.5754	0.079
Mof_C 	C 	0.8506	0.951	0.026	-0.021
Mof_H 	H 	0.9434	0.8913	0.0491	0.069
Mof_C 	C 	0.736	0.0282	0.0714	-0.024
Mof_C 	C 	0.6028	0.1103	0.0343	-0.022
Mof_H 	H 	0.5193	0.1692	0.0631	0.076
Mof_C 	C 	0.388	0.5101	0.5541	-0.025
Mof_H 	H 	0.3104	0.5178	0.5911	0.08
Mof_C 	C 	0.5349	0.4712	0.5791	-0.014
Mof_C 	C 	0.6472	0.4626	0.5228	-0.019
Mof_H 	H 	0.7474	0.4379	0.5377	0.066
Mof_U 	U 	0.0572	0.81455	0.2489	0.012
Mof_U 	U 	0.68697	0.71101	0.25039	0.01
Mof_U 	U 	0.3751	0.26083	0.24896	0.019
Mof_P 	P 	0.3137	0.9794	0.18712	0.385
Mof_P 	P 	0.9935	0.4962	0.31926	0.385
Mof_P 	P 	0.2453	0.9734	0.82817	0.378
Mof_P 	P 	0.4245	0.5483	0.32165	0.382
Mof_O 	O 	0.2061	0.9324	0.2343	-0.153
Mof_O 	O 	0.2779	0.1309	0.1957	-0.16
Mof_O 	O 	0.4765	0.8877	0.2067	-0.163
Mof_O 	O 	0.9647	0.6411	0.2797	-0.147
Mof_O 	O 	0.8546	0.4761	0.3006	-0.167
Mof_O 	O 	0.1379	0.3827	0.295	-0.163
Mof_O 	O 	0.2126	0.1221	0.7908	-0.143
Mof_O 	O 	0.1017	0.9573	0.8136	-0.167
Mof_O 	O 	0.3873	0.8617	0.7976	-0.16
Mof_O 	O 	0.2595	0.6481	0.3116	-0.162
Mof_O 	O 	0.5282	0.601	0.2751	-0.156
Mof_O 	O 	0.4533	0.4019	0.3012	-0.153
Mof_C 	C 	0.4121	0.8908	0.0425	-0.029
Mof_H 	H 	0.507	0.8362	0.0651	0.076
Mof_C 	C 	0.2946	0.9681	0.0876	-0.014
Mof_C 	C 	0.1603	0.045	0.0515	-0.029
Mof_H 	H 	0.0735	0.0955	0.081	0.08
Mof_C 	C 	0.0711	0.3776	0.4668	-0.026
Mof_H 	H 	0.12	0.2925	0.444	0.075
Mof_C 	C 	0.0007	0.5003	0.4189	-0.028
Mof_C 	C 	0.9273	0.6248	0.4546	-0.028
Mof_H 	H 	0.877	0.7101	0.4246	0.079
Mof_C 	C 	0.1494	0.049	0.974	-0.021
Mof_H 	H 	0.0566	0.1087	0.9509	0.069
Mof_C 	C 	0.264	0.9718	0.9286	-0.024
Mof_C 	C 	0.3972	0.8897	0.9657	-0.022
Mof_H 	H 	0.4807	0.8308	0.9369	0.076
Mof_C 	C 	0.612	0.4899	0.4459	-0.025
Mof_H 	H 	0.6896	0.4822	0.4089	0.08
Mof_C 	C 	0.4651	0.5288	0.4209	-0.014
Mof_C 	C 	0.3528	0.5374	0.4772	-0.019
Mof_H 	H 	0.2526	0.5621	0.4623	0.066
_end
