data_functionalizedCrystal
_audit_creation_method	'EQeq! by Chris Wilmer'
_symmetry_space_group_name_H-M	'P1'
_symmetry_Int_Tables_number	1
_symmetry_cell_setting	triclinic
loop_
_symmetry_equiv_pos_as_xyz
  x,y,z
_cell_length_a	8.9147
_cell_length_b	9.7297
_cell_length_c	9.5179
_cell_angle_alpha	90
_cell_angle_beta	115.745
_cell_angle_gamma	90
loop_
_atom_site_label
_atom_site_type_symbol
_atom_site_fract_x
_atom_site_fract_y
_atom_site_fract_z
_atom_site_charge
Mof_Zn	Zn	0.82463	0.05862	0.0633	1.181
Mof_O 	O 	0.6745	0.9714	0.1731	-0.375
Mof_O 	O 	0.4094	0.9227	0.1086	-0.414
Mof_N 	N 	0.8983	0.212	0.2233	-0.29
Mof_N 	N 	0.0274	0.392	0.3643	-0.253
Mof_N 	N 	0.9069	0.3531	0.4084	-0.241
Mof_C 	C 	0.5241	0.9687	0.0816	0.228
Mof_C 	C 	0.0177	0.3056	0.2539	0.109
Mof_H 	H 	0.0862	0.3095	0.2031	-0.032
Mof_C 	C 	0.8347	0.2449	0.3237	0.101
Mof_H 	H 	0.7492	0.1964	0.3322	-0.022
Mof_Zn	Zn	0.17537	0.55862	0.4367	1.19
Mof_O 	O 	0.3255	0.4714	0.3269	-0.378
Mof_O 	O 	0.5906	0.4227	0.3914	-0.418
Mof_N 	N 	0.1017	0.712	0.2767	-0.283
Mof_N 	N 	0.9726	0.892	0.1357	-0.249
Mof_N 	N 	0.0931	0.8531	0.0916	-0.237
Mof_C 	C 	0.4759	0.4687	0.4184	0.225
Mof_C 	C 	0.9823	0.8056	0.2461	0.101
Mof_H 	H 	0.9138	0.8095	0.2969	-0.028
Mof_C 	C 	0.1653	0.7449	0.1763	0.103
Mof_H 	H 	0.2508	0.6964	0.1678	-0.019
Mof_Zn	Zn	0.17537	0.94138	0.9367	1.182
Mof_O 	O 	0.3255	0.0286	0.8269	-0.374
Mof_O 	O 	0.5906	0.0773	0.8914	-0.414
Mof_N 	N 	0.1017	0.788	0.7767	-0.29
Mof_N 	N 	0.9726	0.608	0.6357	-0.253
Mof_N 	N 	0.0931	0.6469	0.5916	-0.241
Mof_C 	C 	0.4759	0.0313	0.9184	0.228
Mof_C 	C 	0.9823	0.6944	0.7461	0.109
Mof_H 	H 	0.9138	0.6905	0.7969	-0.032
Mof_C 	C 	0.1653	0.7551	0.6763	0.101
Mof_H 	H 	0.2508	0.8036	0.6678	-0.022
Mof_Zn	Zn	0.82463	0.44138	0.5633	1.19
Mof_O 	O 	0.6745	0.5286	0.6731	-0.378
Mof_O 	O 	0.4094	0.5773	0.6086	-0.418
Mof_N 	N 	0.8983	0.288	0.7233	-0.283
Mof_N 	N 	0.0274	0.108	0.8643	-0.249
Mof_N 	N 	0.9069	0.1469	0.9084	-0.237
Mof_C 	C 	0.5241	0.5313	0.5816	0.225
Mof_C 	C 	0.0177	0.1944	0.7539	0.101
Mof_H 	H 	0.0862	0.1905	0.7031	-0.028
Mof_C 	C 	0.8347	0.2551	0.8237	0.103
Mof_H 	H 	0.7492	0.3036	0.8322	-0.019
_end
