data_functionalizedCrystal
_audit_creation_method	'EQeq! by Chris Wilmer'
_symmetry_space_group_name_H-M	'P1'
_symmetry_Int_Tables_number	1
_symmetry_cell_setting	triclinic
loop_
_symmetry_equiv_pos_as_xyz
  x,y,z
_cell_length_a	29.929
_cell_length_b	15.4982
_cell_length_c	9.6833
_cell_angle_alpha	90
_cell_angle_beta	90
_cell_angle_gamma	90
loop_
_atom_site_label
_atom_site_type_symbol
_atom_site_fract_x
_atom_site_fract_y
_atom_site_fract_z
_atom_site_charge
Mof_N 	N 	0.6873	0.1835	0.8546	-0.2
Mof_N 	N 	0.77542	0.2527	0.1419	-0.221
Mof_C 	C 	0.6772	0.2384	0.7351	0.037
Mof_C 	C 	0.6671	0.1065	0.8415	0.007
Mof_H 	H 	0.6933	0.2893	0.7249	0.011
Mof_C 	C 	0.6456	0.2195	0.6377	-0.095
Mof_C 	C 	0.6351	0.0883	0.753	-0.053
Mof_H 	H 	0.6764	0.0625	0.8999	0.026
Mof_C 	C 	0.6199	0.1423	0.6616	0.106
Mof_H 	H 	0.641	0.2543	0.5608	0.052
Mof_H 	H 	0.6226	0.0334	0.756	0.046
Mof_C 	C 	0.5833	0.125	0.5669	-0.031
Mof_S 	S 	0.53108	0.10103	0.65198	-0.002
Mof_S 	S 	0.42317	0.11959	0.65219	-0.007
Mof_C 	C 	0.375	0.1629	0.5686	-0.047
Mof_C 	C 	0.3394	0.19	0.6629	0.143
Mof_C 	C 	0.2959	0.1716	0.6508	-0.068
Mof_C 	C 	0.35	0.2482	0.7811	-0.074
Mof_H 	H 	0.2868	0.1404	0.5739	0.045
Mof_C 	C 	0.263	0.1966	0.7477	-0.01
Mof_C 	C 	0.3187	0.2749	0.8665	0.01
Mof_H 	H 	0.3793	0.266	0.7948	0.061
Mof_H 	H 	0.2334	0.1792	0.737	0.029
Mof_H 	H 	0.3263	0.314	0.9353	0.034
Mof_C 	C 	0.643	0.2146	0.1162	0.102
Mof_H 	H 	0.6371	0.2448	0.0353	-0.085
Mof_C 	C 	0.6103	0.199	0.2085	-0.139
Mof_H 	H 	0.582	0.2221	0.1948	0.077
Mof_C 	C 	0.6605	0.109	0.335	-0.054
Mof_H 	H 	0.6676	0.0675	0.4008	0.042
Mof_C 	C 	0.6935	0.1317	0.2396	0.024
Mof_H 	H 	0.7215	0.1064	0.2478	0.013
Mof_C 	C 	0.3163	0.2668	0.3498	-0.195
Mof_H 	H 	0.3217	0.3013	0.4265	0.087
Mof_C 	C 	0.2884	0.2916	0.2628	0.143
Mof_H 	H 	0.2748	0.3446	0.2791	-0.027
Mof_C 	C 	0.2977	0.1687	0.1374	0.13
Mof_H 	H 	0.289	0.1324	0.0659	-0.031
Mof_C 	C 	0.329	0.1374	0.2174	-0.189
Mof_H 	H 	0.3434	0.0856	0.199	0.089
Mof_N 	N 	0.3127	0.8165	0.8546	-0.199
Mof_N 	N 	0.22458	0.7473	0.1419	-0.22
Mof_C 	C 	0.3228	0.7616	0.7351	0.038
Mof_C 	C 	0.3329	0.8935	0.8415	0.008
Mof_H 	H 	0.3067	0.7107	0.7249	0.011
Mof_C 	C 	0.3544	0.7805	0.6377	-0.095
Mof_C 	C 	0.3649	0.9117	0.753	-0.053
Mof_H 	H 	0.3236	0.9375	0.8999	0.026
Mof_C 	C 	0.3801	0.8577	0.6616	0.106
Mof_H 	H 	0.359	0.7457	0.5608	0.052
Mof_H 	H 	0.3774	0.9666	0.756	0.046
Mof_C 	C 	0.4167	0.875	0.5669	-0.031
Mof_S 	S 	0.46892	0.89897	0.65198	-0.002
Mof_S 	S 	0.57683	0.88041	0.65219	-0.007
Mof_C 	C 	0.625	0.8371	0.5686	-0.047
Mof_C 	C 	0.6606	0.81	0.6629	0.143
Mof_C 	C 	0.7041	0.8284	0.6508	-0.068
Mof_C 	C 	0.65	0.7518	0.7811	-0.074
Mof_H 	H 	0.7132	0.8596	0.5739	0.045
Mof_C 	C 	0.737	0.8034	0.7477	-0.01
Mof_C 	C 	0.6813	0.7251	0.8665	0.01
Mof_H 	H 	0.6207	0.734	0.7948	0.061
Mof_H 	H 	0.7666	0.8208	0.737	0.029
Mof_H 	H 	0.6737	0.686	0.9353	0.034
Mof_C 	C 	0.357	0.7854	0.1162	0.102
Mof_H 	H 	0.3629	0.7552	0.0353	-0.085
Mof_C 	C 	0.3897	0.801	0.2085	-0.139
Mof_H 	H 	0.418	0.7779	0.1948	0.077
Mof_C 	C 	0.3395	0.891	0.335	-0.054
Mof_H 	H 	0.3324	0.9325	0.4008	0.042
Mof_C 	C 	0.3065	0.8683	0.2396	0.024
Mof_H 	H 	0.2785	0.8936	0.2478	0.013
Mof_C 	C 	0.6837	0.7332	0.3498	-0.195
Mof_H 	H 	0.6783	0.6987	0.4265	0.087
Mof_C 	C 	0.7116	0.7084	0.2628	0.143
Mof_H 	H 	0.7252	0.6554	0.2791	-0.027
Mof_C 	C 	0.7023	0.8313	0.1374	0.13
Mof_H 	H 	0.711	0.8676	0.0659	-0.031
Mof_C 	C 	0.671	0.8626	0.2174	-0.189
Mof_H 	H 	0.6566	0.9144	0.199	0.089
Mof_N 	N 	0.8127	0.6835	0.1454	-0.223
Mof_N 	N 	0.72458	0.7527	0.8581	-0.209
Mof_C 	C 	0.8228	0.7384	0.2649	0.051
Mof_C 	C 	0.8329	0.6065	0.1585	0.095
Mof_H 	H 	0.8067	0.7893	0.2751	0.003
Mof_C 	C 	0.8544	0.7195	0.3623	-0.129
Mof_C 	C 	0.8649	0.5883	0.247	-0.17
Mof_H 	H 	0.8236	0.5625	0.1001	-0.02
Mof_C 	C 	0.8801	0.6423	0.3384	0.15
Mof_H 	H 	0.859	0.7543	0.4392	0.066
Mof_H 	H 	0.8774	0.5334	0.244	0.083
Mof_C 	C 	0.9167	0.625	0.4331	-0.051
Mof_S 	S 	0.96892	0.60103	0.34802	-0.009
Mof_S 	S 	0.07683	0.61959	0.34781	-0.018
Mof_C 	C 	0.125	0.6629	0.4314	-0.048
Mof_C 	C 	0.1606	0.69	0.3371	0.149
Mof_C 	C 	0.2041	0.6716	0.3492	-0.059
Mof_C 	C 	0.15	0.7482	0.2189	-0.071
Mof_H 	H 	0.2132	0.6404	0.4261	0.041
Mof_C 	C 	0.237	0.6966	0.2523	-0.022
Mof_C 	C 	0.1813	0.7749	0.1335	-0.001
Mof_H 	H 	0.1207	0.766	0.2052	0.051
Mof_H 	H 	0.2666	0.6792	0.263	0.031
Mof_H 	H 	0.1737	0.814	0.0647	0.012
Mof_C 	C 	0.857	0.7146	0.8838	-0.005
Mof_H 	H 	0.8629	0.7448	0.9647	0.094
Mof_C 	C 	0.8897	0.699	0.7915	-0.081
Mof_H 	H 	0.918	0.7221	0.8052	0.064
Mof_C 	C 	0.8395	0.609	0.665	-0.134
Mof_H 	H 	0.8324	0.5675	0.5992	0.071
Mof_C 	C 	0.8065	0.6317	0.7604	0.102
Mof_H 	H 	0.7785	0.6064	0.7522	-0.011
Mof_C 	C 	0.1837	0.7668	0.6502	-0.178
Mof_H 	H 	0.1783	0.8013	0.5735	0.081
Mof_C 	C 	0.2116	0.7916	0.7372	0.126
Mof_H 	H 	0.2252	0.8446	0.7209	-0.017
Mof_C 	C 	0.2023	0.6687	0.8626	0.114
Mof_H 	H 	0.211	0.6324	0.9341	0
Mof_C 	C 	0.171	0.6374	0.7826	-0.17
Mof_H 	H 	0.1566	0.5856	0.801	0.089
Mof_N 	N 	0.1873	0.3165	0.1454	-0.223
Mof_N 	N 	0.27542	0.2473	0.8581	-0.209
Mof_C 	C 	0.1772	0.2616	0.2649	0.051
Mof_C 	C 	0.1671	0.3935	0.1585	0.095
Mof_H 	H 	0.1933	0.2107	0.2751	0.003
Mof_C 	C 	0.1456	0.2805	0.3623	-0.129
Mof_C 	C 	0.1351	0.4117	0.247	-0.17
Mof_H 	H 	0.1764	0.4375	0.1001	-0.02
Mof_C 	C 	0.1199	0.3577	0.3384	0.15
Mof_H 	H 	0.141	0.2457	0.4392	0.066
Mof_H 	H 	0.1226	0.4666	0.244	0.083
Mof_C 	C 	0.0833	0.375	0.4331	-0.051
Mof_S 	S 	0.03108	0.39897	0.34802	-0.009
Mof_S 	S 	0.92317	0.38041	0.34781	-0.018
Mof_C 	C 	0.875	0.3371	0.4314	-0.048
Mof_C 	C 	0.8394	0.31	0.3371	0.149
Mof_C 	C 	0.7959	0.3284	0.3492	-0.059
Mof_C 	C 	0.85	0.2518	0.2189	-0.071
Mof_H 	H 	0.7868	0.3596	0.4261	0.041
Mof_C 	C 	0.763	0.3034	0.2523	-0.022
Mof_C 	C 	0.8187	0.2251	0.1335	-0.001
Mof_H 	H 	0.8793	0.234	0.2052	0.051
Mof_H 	H 	0.7334	0.3208	0.263	0.031
Mof_H 	H 	0.8263	0.186	0.0647	0.012
Mof_C 	C 	0.143	0.2854	0.8838	-0.005
Mof_H 	H 	0.1371	0.2552	0.9647	0.094
Mof_C 	C 	0.1103	0.301	0.7915	-0.081
Mof_H 	H 	0.082	0.2779	0.8052	0.064
Mof_C 	C 	0.1605	0.391	0.665	-0.134
Mof_H 	H 	0.1676	0.4325	0.5992	0.071
Mof_C 	C 	0.1935	0.3683	0.7604	0.102
Mof_H 	H 	0.2215	0.3936	0.7522	-0.011
Mof_C 	C 	0.8163	0.2332	0.6502	-0.178
Mof_H 	H 	0.8217	0.1987	0.5735	0.081
Mof_C 	C 	0.7884	0.2084	0.7372	0.126
Mof_H 	H 	0.7748	0.1554	0.7209	-0.017
Mof_C 	C 	0.7977	0.3313	0.8626	0.114
Mof_H 	H 	0.789	0.3676	0.9341	0
Mof_C 	C 	0.829	0.3626	0.7826	-0.17
Mof_H 	H 	0.8434	0.4144	0.801	0.089
Mof_N 	N 	0.3127	0.8165	0.1454	-0.223
Mof_N 	N 	0.22458	0.7473	0.8581	-0.209
Mof_C 	C 	0.3228	0.7616	0.2649	0.052
Mof_C 	C 	0.3329	0.8935	0.1585	0.095
Mof_H 	H 	0.3067	0.7107	0.2751	0.003
Mof_C 	C 	0.3544	0.7805	0.3623	-0.129
Mof_C 	C 	0.3649	0.9117	0.247	-0.171
Mof_H 	H 	0.3236	0.9375	0.1001	-0.02
Mof_C 	C 	0.3801	0.8577	0.3384	0.15
Mof_H 	H 	0.359	0.7457	0.4392	0.066
Mof_H 	H 	0.3774	0.9666	0.244	0.083
Mof_C 	C 	0.4167	0.875	0.4331	-0.051
Mof_S 	S 	0.46892	0.89897	0.34802	-0.009
Mof_S 	S 	0.57683	0.88041	0.34781	-0.018
Mof_C 	C 	0.625	0.8371	0.4314	-0.048
Mof_C 	C 	0.6606	0.81	0.3371	0.149
Mof_C 	C 	0.7041	0.8284	0.3492	-0.059
Mof_C 	C 	0.65	0.7518	0.2189	-0.071
Mof_H 	H 	0.7132	0.8596	0.4261	0.041
Mof_C 	C 	0.737	0.8034	0.2523	-0.022
Mof_C 	C 	0.6813	0.7251	0.1335	-0
Mof_H 	H 	0.6207	0.734	0.2052	0.051
Mof_H 	H 	0.7666	0.8208	0.263	0.031
Mof_H 	H 	0.6737	0.686	0.0647	0.012
Mof_C 	C 	0.357	0.7854	0.8838	-0.006
Mof_H 	H 	0.3629	0.7552	0.9647	0.094
Mof_C 	C 	0.3897	0.801	0.7915	-0.081
Mof_H 	H 	0.418	0.7779	0.8052	0.064
Mof_C 	C 	0.3395	0.891	0.665	-0.134
Mof_H 	H 	0.3324	0.9325	0.5992	0.071
Mof_C 	C 	0.3065	0.8683	0.7604	0.102
Mof_H 	H 	0.2785	0.8936	0.7522	-0.011
Mof_C 	C 	0.6837	0.7332	0.6502	-0.178
Mof_H 	H 	0.6783	0.6987	0.5735	0.081
Mof_C 	C 	0.7116	0.7084	0.7372	0.126
Mof_H 	H 	0.7252	0.6554	0.7209	-0.017
Mof_C 	C 	0.7023	0.8313	0.8626	0.114
Mof_H 	H 	0.711	0.8676	0.9341	-0
Mof_C 	C 	0.671	0.8626	0.7826	-0.171
Mof_H 	H 	0.6566	0.9144	0.801	0.089
Mof_N 	N 	0.6873	0.1835	0.1454	-0.223
Mof_N 	N 	0.77542	0.2527	0.8581	-0.209
Mof_C 	C 	0.6772	0.2384	0.2649	0.052
Mof_C 	C 	0.6671	0.1065	0.1585	0.095
Mof_H 	H 	0.6933	0.2893	0.2751	0.003
Mof_C 	C 	0.6456	0.2195	0.3623	-0.129
Mof_C 	C 	0.6351	0.0883	0.247	-0.171
Mof_H 	H 	0.6764	0.0625	0.1001	-0.02
Mof_C 	C 	0.6199	0.1423	0.3384	0.15
Mof_H 	H 	0.641	0.2543	0.4392	0.066
Mof_H 	H 	0.6226	0.0334	0.244	0.083
Mof_C 	C 	0.5833	0.125	0.4331	-0.051
Mof_S 	S 	0.53108	0.10103	0.34802	-0.009
Mof_S 	S 	0.42317	0.11959	0.34781	-0.018
Mof_C 	C 	0.375	0.1629	0.4314	-0.048
Mof_C 	C 	0.3394	0.19	0.3371	0.149
Mof_C 	C 	0.2959	0.1716	0.3492	-0.059
Mof_C 	C 	0.35	0.2482	0.2189	-0.071
Mof_H 	H 	0.2868	0.1404	0.4261	0.041
Mof_C 	C 	0.263	0.1966	0.2523	-0.022
Mof_C 	C 	0.3187	0.2749	0.1335	-0
Mof_H 	H 	0.3793	0.266	0.2052	0.051
Mof_H 	H 	0.2334	0.1792	0.263	0.031
Mof_H 	H 	0.3263	0.314	0.0647	0.012
Mof_C 	C 	0.643	0.2146	0.8838	-0.006
Mof_H 	H 	0.6371	0.2448	0.9647	0.094
Mof_C 	C 	0.6103	0.199	0.7915	-0.081
Mof_H 	H 	0.582	0.2221	0.8052	0.064
Mof_C 	C 	0.6605	0.109	0.665	-0.134
Mof_H 	H 	0.6676	0.0675	0.5992	0.071
Mof_C 	C 	0.6935	0.1317	0.7604	0.102
Mof_H 	H 	0.7215	0.1064	0.7522	-0.011
Mof_C 	C 	0.3163	0.2668	0.6502	-0.178
Mof_H 	H 	0.3217	0.3013	0.5735	0.081
Mof_C 	C 	0.2884	0.2916	0.7372	0.126
Mof_H 	H 	0.2748	0.3446	0.7209	-0.017
Mof_C 	C 	0.2977	0.1687	0.8626	0.114
Mof_H 	H 	0.289	0.1324	0.9341	-0
Mof_C 	C 	0.329	0.1374	0.7826	-0.171
Mof_H 	H 	0.3434	0.0856	0.801	0.089
Mof_N 	N 	0.1873	0.3165	0.8546	-0.199
Mof_N 	N 	0.27542	0.2473	0.1419	-0.22
Mof_C 	C 	0.1772	0.2616	0.7351	0.038
Mof_C 	C 	0.1671	0.3935	0.8415	0.008
Mof_H 	H 	0.1933	0.2107	0.7249	0.011
Mof_C 	C 	0.1456	0.2805	0.6377	-0.095
Mof_C 	C 	0.1351	0.4117	0.753	-0.053
Mof_H 	H 	0.1764	0.4375	0.8999	0.027
Mof_C 	C 	0.1199	0.3577	0.6616	0.106
Mof_H 	H 	0.141	0.2457	0.5608	0.052
Mof_H 	H 	0.1226	0.4666	0.756	0.047
Mof_C 	C 	0.0833	0.375	0.5669	-0.031
Mof_S 	S 	0.03108	0.39897	0.65198	-0.002
Mof_S 	S 	0.92317	0.38041	0.65219	-0.007
Mof_C 	C 	0.875	0.3371	0.5686	-0.047
Mof_C 	C 	0.8394	0.31	0.6629	0.143
Mof_C 	C 	0.7959	0.3284	0.6508	-0.068
Mof_C 	C 	0.85	0.2518	0.7811	-0.074
Mof_H 	H 	0.7868	0.3596	0.5739	0.045
Mof_C 	C 	0.763	0.3034	0.7477	-0.01
Mof_C 	C 	0.8187	0.2251	0.8665	0.01
Mof_H 	H 	0.8793	0.234	0.7948	0.061
Mof_H 	H 	0.7334	0.3208	0.737	0.029
Mof_H 	H 	0.8263	0.186	0.9353	0.034
Mof_C 	C 	0.143	0.2854	0.1162	0.102
Mof_H 	H 	0.1371	0.2552	0.0353	-0.084
Mof_C 	C 	0.1103	0.301	0.2085	-0.139
Mof_H 	H 	0.082	0.2779	0.1948	0.077
Mof_C 	C 	0.1605	0.391	0.335	-0.054
Mof_H 	H 	0.1676	0.4325	0.4008	0.042
Mof_C 	C 	0.1935	0.3683	0.2396	0.024
Mof_H 	H 	0.2215	0.3936	0.2478	0.013
Mof_C 	C 	0.8163	0.2332	0.3498	-0.195
Mof_H 	H 	0.8217	0.1987	0.4265	0.087
Mof_C 	C 	0.7884	0.2084	0.2628	0.143
Mof_H 	H 	0.7748	0.1554	0.2791	-0.027
Mof_C 	C 	0.7977	0.3313	0.1374	0.13
Mof_H 	H 	0.789	0.3676	0.0659	-0.032
Mof_C 	C 	0.829	0.3626	0.2174	-0.189
Mof_H 	H 	0.8434	0.4144	0.199	0.089
Mof_N 	N 	0.8127	0.6835	0.8546	-0.199
Mof_N 	N 	0.72458	0.7527	0.1419	-0.22
Mof_C 	C 	0.8228	0.7384	0.7351	0.038
Mof_C 	C 	0.8329	0.6065	0.8415	0.008
Mof_H 	H 	0.8067	0.7893	0.7249	0.011
Mof_C 	C 	0.8544	0.7195	0.6377	-0.095
Mof_C 	C 	0.8649	0.5883	0.753	-0.053
Mof_H 	H 	0.8236	0.5625	0.8999	0.027
Mof_C 	C 	0.8801	0.6423	0.6616	0.106
Mof_H 	H 	0.859	0.7543	0.5608	0.052
Mof_H 	H 	0.8774	0.5334	0.756	0.047
Mof_C 	C 	0.9167	0.625	0.5669	-0.031
Mof_S 	S 	0.96892	0.60103	0.65198	-0.002
Mof_S 	S 	0.07683	0.61959	0.65219	-0.007
Mof_C 	C 	0.125	0.6629	0.5686	-0.047
Mof_C 	C 	0.1606	0.69	0.6629	0.143
Mof_C 	C 	0.2041	0.6716	0.6508	-0.068
Mof_C 	C 	0.15	0.7482	0.7811	-0.074
Mof_H 	H 	0.2132	0.6404	0.5739	0.045
Mof_C 	C 	0.237	0.6966	0.7477	-0.01
Mof_C 	C 	0.1813	0.7749	0.8665	0.01
Mof_H 	H 	0.1207	0.766	0.7948	0.061
Mof_H 	H 	0.2666	0.6792	0.737	0.029
Mof_H 	H 	0.1737	0.814	0.9353	0.034
Mof_C 	C 	0.857	0.7146	0.1162	0.102
Mof_H 	H 	0.8629	0.7448	0.0353	-0.084
Mof_C 	C 	0.8897	0.699	0.2085	-0.139
Mof_H 	H 	0.918	0.7221	0.1948	0.077
Mof_C 	C 	0.8395	0.609	0.335	-0.054
Mof_H 	H 	0.8324	0.5675	0.4008	0.042
Mof_C 	C 	0.8065	0.6317	0.2396	0.024
Mof_H 	H 	0.7785	0.6064	0.2478	0.013
Mof_C 	C 	0.1837	0.7668	0.3498	-0.195
Mof_H 	H 	0.1783	0.8013	0.4265	0.087
Mof_C 	C 	0.2116	0.7916	0.2628	0.143
Mof_H 	H 	0.2252	0.8446	0.2791	-0.027
Mof_C 	C 	0.2023	0.6687	0.1374	0.13
Mof_H 	H 	0.211	0.6324	0.0659	-0.032
Mof_C 	C 	0.171	0.6374	0.2174	-0.189
Mof_H 	H 	0.1566	0.5856	0.199	0.089
Mof_Fe	Fe	0.73149	0.21713	-0	0.736
Mof_N 	N 	0.7578	0.1036	-0	-0.247
Mof_N 	N 	0.7079	0.3334	-0	-0.249
Mof_C 	C 	0.781	0.0455	-0	0.15
Mof_N 	N 	0.8128	0.984	-0	-0.188
Mof_C 	C 	0.7994	0.9049	-0	0.168
Mof_Fe	Fe	0.26851	0.78287	-0	0.736
Mof_N 	N 	0.2422	0.8964	-0	-0.247
Mof_N 	N 	0.2921	0.6666	-0	-0.249
Mof_C 	C 	0.219	0.9545	-0	0.15
Mof_N 	N 	0.1872	0.016	-0	-0.188
Mof_C 	C 	0.2006	0.0951	-0	0.168
Mof_Fe	Fe	0.76851	0.71713	-0	0.736
Mof_N 	N 	0.7422	0.6036	-0	-0.247
Mof_N 	N 	0.7921	0.8334	-0	-0.249
Mof_C 	C 	0.719	0.5455	-0	0.15
Mof_N 	N 	0.6872	0.484	-0	-0.189
Mof_C 	C 	0.7006	0.4049	-0	0.168
Mof_Fe	Fe	0.23149	0.28287	-0	0.736
Mof_N 	N 	0.2578	0.3964	-0	-0.247
Mof_N 	N 	0.2079	0.1666	-0	-0.249
Mof_C 	C 	0.281	0.4545	-0	0.15
Mof_N 	N 	0.3128	0.516	-0	-0.189
Mof_C 	C 	0.2994	0.5951	-0	0.168
Mof_C 	C 	0.5006	0.106	0.5	-0.004
Mof_C 	C 	0.4543	0.1124	0.5	-0.002
Mof_C 	C 	0.4994	0.894	0.5	-0.004
Mof_C 	C 	0.5457	0.8876	0.5	-0.002
Mof_C 	C 	0.9994	0.606	0.5	-0.004
Mof_C 	C 	0.0457	0.6124	0.5	-0.002
Mof_C 	C 	0.0006	0.394	0.5	-0.004
Mof_C 	C 	0.9543	0.3876	0.5	-0.002
_end
