data_functionalizedCrystal
_audit_creation_method	'EQeq! by Chris Wilmer'
_symmetry_space_group_name_H-M	'P1'
_symmetry_Int_Tables_number	1
_symmetry_cell_setting	triclinic
loop_
_symmetry_equiv_pos_as_xyz
  x,y,z
_cell_length_a	5.0139
_cell_length_b	9.309
_cell_length_c	20.923
_cell_angle_alpha	90
_cell_angle_beta	110.294
_cell_angle_gamma	90
loop_
_atom_site_label
_atom_site_type_symbol
_atom_site_fract_x
_atom_site_fract_y
_atom_site_fract_z
_atom_site_charge
Mof_Fe	Fe	0.40093	0.68831	0.78393	1.152
Mof_P 	P 	0.7816	0.85277	0.7103	0.805
Mof_P 	P 	0.6197	0.39334	0.58376	0.721
Mof_B 	B 	0.4622	0.6345	0.6378	2.65
Mof_O 	O 	0.4604	0.5851	0.70421	-1.395
Mof_O 	O 	0.5597	0.7857	0.64487	-0.854
Mof_O 	O 	0.8678	0.3651	0.55927	-0.303
Mof_O 	O 	0.66	0.5474	0.61555	-0.906
Mof_O 	O 	0.7913	0.0144	0.69724	-0.396
Mof_O 	O 	0.1757	0.6293	0.58539	-1.78
Mof_O 	O 	0.34	0.3855	0.52461	-0.424
Mof_O 	O 	0.6753	0.8302	0.77017	-0.45
Mof_O 	O 	0.6254	0.2828	0.63765	-0.425
Mof_O 	O 	0.0687	0.7846	0.72135	-0.506
Mof_H 	H 	0.068	0.64	0.599	0.943
Mof_H 	H 	0.429	0.499	0.707	0.595
Mof_Fe	Fe	0.59907	0.18831	0.71607	1.117
Mof_P 	P 	0.2184	0.35277	0.7897	0.627
Mof_P 	P 	0.3803	0.89334	0.91624	0.746
Mof_B 	B 	0.5378	0.1345	0.8622	2.674
Mof_O 	O 	0.5396	0.0851	0.79579	-1.478
Mof_O 	O 	0.4403	0.2857	0.85513	-0.848
Mof_O 	O 	0.1322	0.8651	0.94073	-0.339
Mof_O 	O 	0.34	0.0474	0.88445	-0.985
Mof_O 	O 	0.2087	0.5144	0.80276	-0.391
Mof_O 	O 	0.8243	0.1293	0.91461	-1.732
Mof_O 	O 	0.66	0.8855	0.97539	-0.286
Mof_O 	O 	0.3247	0.3302	0.72983	-0.472
Mof_O 	O 	0.3746	0.7828	0.86235	-0.43
Mof_O 	O 	0.9313	0.2846	0.77865	-0.35
Mof_H 	H 	0.932	0.14	0.901	1.004
Mof_H 	H 	0.571	0.999	0.793	0.666
Mof_Fe	Fe	0.59907	0.31169	0.21607	1.112
Mof_P 	P 	0.2184	0.14723	0.2897	0.585
Mof_P 	P 	0.3803	0.60666	0.41624	0.721
Mof_B 	B 	0.5378	0.3655	0.3622	2.661
Mof_O 	O 	0.5396	0.4149	0.29579	-1.409
Mof_O 	O 	0.4403	0.2143	0.35513	-0.861
Mof_O 	O 	0.1322	0.6349	0.44073	-0.389
Mof_O 	O 	0.34	0.4526	0.38445	-0.964
Mof_O 	O 	0.2087	0.9856	0.30276	-0.348
Mof_O 	O 	0.8243	0.3707	0.41461	-1.768
Mof_O 	O 	0.66	0.6145	0.47539	-0.35
Mof_O 	O 	0.3247	0.1698	0.22983	-0.469
Mof_O 	O 	0.3746	0.7172	0.36235	-0.429
Mof_O 	O 	0.9313	0.2154	0.27865	-0.352
Mof_H 	H 	0.932	0.36	0.401	1.013
Mof_H 	H 	0.571	0.501	0.293	0.604
Mof_Fe	Fe	0.40093	0.81169	0.28393	1.145
Mof_P 	P 	0.7816	0.64723	0.2103	0.77
Mof_P 	P 	0.6197	0.10666	0.08376	0.672
Mof_B 	B 	0.4622	0.8655	0.1378	2.589
Mof_O 	O 	0.4604	0.9149	0.20421	-1.296
Mof_O 	O 	0.5597	0.7143	0.14487	-0.854
Mof_O 	O 	0.8678	0.1349	0.05927	-0.3
Mof_O 	O 	0.66	0.9526	0.11555	-0.854
Mof_O 	O 	0.7913	0.4856	0.19724	-0.362
Mof_O 	O 	0.1757	0.8707	0.08539	-1.722
Mof_O 	O 	0.34	0.1145	0.02461	-0.426
Mof_O 	O 	0.6753	0.6698	0.27017	-0.449
Mof_O 	O 	0.6254	0.2172	0.13765	-0.42
Mof_O 	O 	0.0687	0.7154	0.22135	-0.509
Mof_H 	H 	0.068	0.86	0.099	0.92
Mof_H 	H 	0.429	0.001	0.207	0.515
Mof_Fe	Fe	1.05365e-32	0.5	0.5	1.223
Mof_Fe	Fe	-0	0	-0	1.051
_end
