data_functionalizedCrystal
_audit_creation_method	'EQeq! by Chris Wilmer'
_symmetry_space_group_name_H-M	'P1'
_symmetry_Int_Tables_number	1
_symmetry_cell_setting	triclinic
loop_
_symmetry_equiv_pos_as_xyz
  x,y,z
_cell_length_a	13.1676
_cell_length_b	13.1676
_cell_length_c	13.1676
_cell_angle_alpha	90
_cell_angle_beta	90
_cell_angle_gamma	90
loop_
_atom_site_label
_atom_site_type_symbol
_atom_site_fract_x
_atom_site_fract_y
_atom_site_fract_z
_atom_site_charge
Mof_N 	N 	0.63696	0.93517	0.95472	-0.008
Mof_N 	N 	0.71536	0.97992	0.96006	0.103
Mof_N 	N 	0.79265	0.02143	0.96375	-0.197
Mof_N 	N 	0.86304	0.06483	0.45472	-0.083
Mof_N 	N 	0.78464	0.02008	0.46006	-0.15
Mof_N 	N 	0.70735	0.97857	0.46375	-0.141
Mof_N 	N 	0.36304	0.43517	0.54528	-0.168
Mof_N 	N 	0.28464	0.47992	0.53994	-0.052
Mof_N 	N 	0.20735	0.52143	0.53625	-0.305
Mof_N 	N 	0.13696	0.56483	0.04528	-0.193
Mof_N 	N 	0.21536	0.52008	0.03994	-0.072
Mof_N 	N 	0.29265	0.47857	0.03625	-0.332
Mof_N 	N 	0.95472	0.63696	0.93517	-0.007
Mof_N 	N 	0.96006	0.71536	0.97992	0.104
Mof_N 	N 	0.96375	0.79265	0.02143	-0.196
Mof_N 	N 	0.45472	0.86304	0.06483	-0.082
Mof_N 	N 	0.46006	0.78464	0.02008	-0.149
Mof_N 	N 	0.46375	0.70735	0.97857	-0.14
Mof_N 	N 	0.54528	0.36304	0.43517	-0.168
Mof_N 	N 	0.53994	0.28464	0.47992	-0.052
Mof_N 	N 	0.53625	0.20735	0.52143	-0.305
Mof_N 	N 	0.04528	0.13696	0.56483	-0.193
Mof_N 	N 	0.03994	0.21536	0.52008	-0.072
Mof_N 	N 	0.03625	0.29265	0.47857	-0.332
Mof_N 	N 	0.93517	0.95472	0.63696	-0.007
Mof_N 	N 	0.97992	0.96006	0.71536	0.104
Mof_N 	N 	0.02143	0.96375	0.79265	-0.196
Mof_N 	N 	0.06483	0.45472	0.86304	-0.082
Mof_N 	N 	0.02008	0.46006	0.78464	-0.149
Mof_N 	N 	0.97857	0.46375	0.70735	-0.14
Mof_N 	N 	0.43517	0.54528	0.36304	-0.168
Mof_N 	N 	0.47992	0.53994	0.28464	-0.052
Mof_N 	N 	0.52143	0.53625	0.20735	-0.305
Mof_N 	N 	0.56483	0.04528	0.13696	-0.193
Mof_N 	N 	0.52008	0.03994	0.21536	-0.072
Mof_N 	N 	0.47857	0.03625	0.29265	-0.332
Mof_N 	N 	0.36304	0.06483	0.04528	-0.179
Mof_N 	N 	0.28464	0.02008	0.03994	-0.183
Mof_N 	N 	0.20735	0.97857	0.03625	-0.103
Mof_N 	N 	0.13696	0.93517	0.54528	-0.116
Mof_N 	N 	0.21536	0.97992	0.53994	0.073
Mof_N 	N 	0.29265	0.02143	0.53625	-0.405
Mof_N 	N 	0.63696	0.56483	0.45472	-0.154
Mof_N 	N 	0.71536	0.52008	0.46006	-0.043
Mof_N 	N 	0.79265	0.47857	0.46375	-0.251
Mof_N 	N 	0.86304	0.43517	0.95472	-0.002
Mof_N 	N 	0.78464	0.47992	0.96006	-0.01
Mof_N 	N 	0.70735	0.52143	0.96375	-0.213
Mof_N 	N 	0.04528	0.36304	0.06483	-0.179
Mof_N 	N 	0.03994	0.28464	0.02008	-0.183
Mof_N 	N 	0.03625	0.20735	0.97857	-0.103
Mof_N 	N 	0.54528	0.13696	0.93517	-0.116
Mof_N 	N 	0.53994	0.21536	0.97992	0.073
Mof_N 	N 	0.53625	0.29265	0.02143	-0.405
Mof_N 	N 	0.45472	0.63696	0.56483	-0.154
Mof_N 	N 	0.46006	0.71536	0.52008	-0.043
Mof_N 	N 	0.46375	0.79265	0.47857	-0.251
Mof_N 	N 	0.95472	0.86304	0.43517	-0.002
Mof_N 	N 	0.96006	0.78464	0.47992	-0.01
Mof_N 	N 	0.96375	0.70735	0.52143	-0.213
Mof_N 	N 	0.06483	0.04528	0.36304	-0.179
Mof_N 	N 	0.02008	0.03994	0.28464	-0.183
Mof_N 	N 	0.97857	0.03625	0.20735	-0.103
Mof_N 	N 	0.93517	0.54528	0.13696	-0.116
Mof_N 	N 	0.97992	0.53994	0.21536	0.073
Mof_N 	N 	0.02143	0.53625	0.29265	-0.405
Mof_N 	N 	0.56483	0.45472	0.63696	-0.154
Mof_N 	N 	0.52008	0.46006	0.71536	-0.043
Mof_N 	N 	0.47857	0.46375	0.79265	-0.251
Mof_N 	N 	0.43517	0.95472	0.86304	-0.002
Mof_N 	N 	0.47992	0.96006	0.78464	-0.01
Mof_N 	N 	0.52143	0.96375	0.70735	-0.213
Mof_Fe	Fe	0.5	0	-0	0.244
Mof_Fe	Fe	1.8747e-33	0	0.5	0.244
Mof_Fe	Fe	0.5	0.5	0.5	0.696
Mof_Fe	Fe	-0	0.5	-0	0.244
Mof_K 	K 	-0	0	-0	1.059
Mof_K 	K 	0.5	0	0.5	2.351
Mof_K 	K 	1.8747e-33	0.5	0.5	2.351
Mof_K 	K 	0.5	0.5	-0	2.351
_end
