data_functionalizedCrystal
_audit_creation_method	'EQeq! by Chris Wilmer'
_symmetry_space_group_name_H-M	'P1'
_symmetry_Int_Tables_number	1
_symmetry_cell_setting	triclinic
loop_
_symmetry_equiv_pos_as_xyz
  x,y,z
_cell_length_a	5.8478
_cell_length_b	9.108
_cell_length_c	11.0349
_cell_angle_alpha	91.713
_cell_angle_beta	93.054
_cell_angle_gamma	97.672
loop_
_atom_site_label
_atom_site_type_symbol
_atom_site_fract_x
_atom_site_fract_y
_atom_site_fract_z
_atom_site_charge
Mof_K 	K 	0.1779	0.9542	0.5748	2.541
Mof_Mn	Mn	0.5568	0.85471	0.84498	0.775
Mof_H 	H 	0.166	0.937	0.865	-0.07
Mof_H 	H 	0.116	0.297	0.658	0.273
Mof_H 	H 	0.752	0.593	0.781	0.321
Mof_H 	H 	0.9	0.626	0.561	0.308
Mof_H 	H 	0.025	0.937	0.302	0.092
Mof_H 	H 	0.377	0.844	0.072	0.283
Mof_H 	H 	0.565	0.855	0.638	0.086
Mof_H 	H 	0.704	0.991	0.632	0.021
Mof_H 	H 	0.2687	0.1544	0.9689	0.129
Mof_H 	H 	0.055	0.2887	0.8517	-0.064
Mof_H 	H 	0.3663	0.449	0.9235	0.058
Mof_H 	H 	0.4661	0.4683	0.6751	0.011
Mof_H 	H 	0.7424	0.5505	0.3933	0.065
Mof_H 	H 	0.0049	0.6876	0.2808	-0.162
Mof_H 	H 	0.6828	0.9482	0.1715	-0.026
Mof_H 	H 	0.6644	0.6396	0.1622	0.086
Mof_C 	C 	0.5582	0.19	0.8737	0.312
Mof_C 	C 	0.3034	0.1496	0.8849	-0.163
Mof_C 	C 	0.2009	0.2699	0.8184	0.267
Mof_C 	C 	0.3938	0.4011	0.8479	-0.06
Mof_C 	C 	0.4351	0.5168	0.7519	0.062
Mof_C 	C 	0.2217	0.5989	0.7343	0.337
Mof_C 	C 	0.5138	0.7021	0.3932	0.341
Mof_C 	C 	0.7517	0.6578	0.4083	-0.087
Mof_C 	C 	0.8784	0.7389	0.3077	0.364
Mof_C 	C 	0.6881	0.8585	0.1245	0.041
Mof_C 	C 	0.6789	0.7308	0.2096	-0.06
Mof_C 	C 	0.9107	0.875	0.0551	0.452
Mof_O 	O 	0.7017	0.1076	0.8697	-0.191
Mof_O 	O 	0.6094	0.3331	0.8596	-0.208
Mof_O 	O 	0.2496	0.0051	0.8369	-0.143
Mof_O 	O 	0.1731	0.2316	0.6947	-0.667
Mof_O 	O 	0.6282	0.6231	0.7906	-0.457
Mof_O 	O 	0.0363	0.5197	0.6947	-0.41
Mof_O 	O 	0.2435	0.7332	0.7607	-0.566
Mof_O 	O 	0.3806	0.716	0.4718	-0.532
Mof_O 	O 	0.4707	0.7362	0.2782	-0.295
Mof_O 	O 	0.8472	0.696	0.5282	-0.527
Mof_O 	O 	0.9584	0.8855	0.352	-0.557
Mof_O 	O 	0.4951	0.8339	0.0372	-0.488
Mof_O 	O 	0.892	0.8608	0.9412	-0.359
Mof_O 	O 	0.0969	0.9026	0.1176	-0.475
Mof_O 	O 	0.6867	0.9092	0.6676	-0.658
_end
