data_functionalizedCrystal
_audit_creation_method	'EQeq! by Chris Wilmer'
_symmetry_space_group_name_H-M	'P1'
_symmetry_Int_Tables_number	1
_symmetry_cell_setting	triclinic
loop_
_symmetry_equiv_pos_as_xyz
  x,y,z
_cell_length_a	42.7645
_cell_length_b	42.7645
_cell_length_c	16.7556
_cell_angle_alpha	90
_cell_angle_beta	90
_cell_angle_gamma	120
loop_
_atom_site_label
_atom_site_type_symbol
_atom_site_fract_x
_atom_site_fract_y
_atom_site_fract_z
_atom_site_charge
Mof_O 	O 	0.48198	0.57901	0.5806	-0.39
Mof_O 	O 	0.53115	0.58538	0.6446	-0.396
Mof_C 	C 	0.5064	0.594	0.6304	0.407
Mof_C 	C 	0.507	0.6227	0.6848	-0.161
Mof_C 	C 	0.4762	0.625	0.6908	0.091
Mof_H 	H 	0.4558	0.61	0.6597	0.018
Mof_C 	C 	0.4753	0.6498	0.7434	-0.172
Mof_H 	H 	0.4548	0.6525	0.7462	0.099
Mof_C 	C 	0.5052	0.6706	0.7916	0.129
Mof_C 	C 	0.5354	0.6659	0.7876	-0.179
Mof_H 	H 	0.5553	0.6793	0.8214	0.086
Mof_C 	C 	0.5361	0.642	0.7353	0.095
Mof_H 	H 	0.5562	0.6386	0.7333	0.002
Mof_C 	C 	0.5038	0.6957	0.856	-0.143
Mof_C 	C 	0.5042	0.727	0.8303	0.124
Mof_C 	C 	0.5064	0.7381	0.7484	-0.083
Mof_H 	H 	0.5076	0.7257	0.7033	0.065
Mof_C 	C 	0.5019	0.6534	0.9594	-0.16
Mof_C 	C 	0.5022	0.6849	0.9341	0.137
Mof_H 	H 	0.5233	0.6532	0.9392	0.071
Mof_H 	H 	0.4803	0.632	0.9392	0.079
Mof_O 	O 	0.42099	0.90297	0.5806	-0.39
Mof_O 	O 	0.41462	0.94577	0.6446	-0.391
Mof_C 	C 	0.406	0.9124	0.6304	0.404
Mof_C 	C 	0.3773	0.8843	0.6848	-0.161
Mof_C 	C 	0.375	0.8512	0.6908	0.089
Mof_H 	H 	0.39	0.8458	0.6597	0.017
Mof_C 	C 	0.3502	0.8255	0.7434	-0.172
Mof_H 	H 	0.3475	0.8023	0.7462	0.098
Mof_C 	C 	0.3294	0.8346	0.7916	0.127
Mof_C 	C 	0.3341	0.8695	0.7876	-0.179
Mof_H 	H 	0.3207	0.876	0.8214	0.085
Mof_C 	C 	0.358	0.8941	0.7353	0.093
Mof_H 	H 	0.3614	0.9176	0.7333	0.002
Mof_C 	C 	0.3043	0.8081	0.856	-0.144
Mof_C 	C 	0.273	0.7772	0.8303	0.123
Mof_C 	C 	0.2619	0.7683	0.7484	-0.084
Mof_H 	H 	0.2743	0.7819	0.7033	0.064
Mof_C 	C 	0.3466	0.8485	0.9594	-0.161
Mof_C 	C 	0.3151	0.8173	0.9341	0.136
Mof_H 	H 	0.3468	0.8701	0.9392	0.07
Mof_H 	H 	0.368	0.8483	0.9392	0.079
Mof_O 	O 	0.09703	0.51802	0.5806	-0.391
Mof_O 	O 	0.05423	0.46885	0.6446	-0.397
Mof_C 	C 	0.0876	0.4936	0.6304	0.405
Mof_C 	C 	0.1157	0.493	0.6848	-0.163
Mof_C 	C 	0.1488	0.5238	0.6908	0.089
Mof_H 	H 	0.1542	0.5442	0.6597	0.017
Mof_C 	C 	0.1745	0.5247	0.7434	-0.173
Mof_H 	H 	0.1977	0.5452	0.7462	0.098
Mof_C 	C 	0.1654	0.4948	0.7916	0.127
Mof_C 	C 	0.1305	0.4646	0.7876	-0.18
Mof_H 	H 	0.124	0.4447	0.8214	0.084
Mof_C 	C 	0.1059	0.4639	0.7353	0.093
Mof_H 	H 	0.0824	0.4438	0.7333	-0.001
Mof_C 	C 	0.1919	0.4962	0.856	-0.144
Mof_C 	C 	0.2228	0.4958	0.8303	0.122
Mof_C 	C 	0.2317	0.4936	0.7484	-0.084
Mof_H 	H 	0.2181	0.4924	0.7033	0.063
Mof_C 	C 	0.1515	0.4981	0.9594	-0.161
Mof_C 	C 	0.1827	0.4978	0.9341	0.136
Mof_H 	H 	0.1299	0.4767	0.9392	0.069
Mof_H 	H 	0.1517	0.5197	0.9392	0.078
Mof_O 	O 	0.51802	0.42099	0.5806	-0.391
Mof_O 	O 	0.46885	0.41462	0.6446	-0.397
Mof_C 	C 	0.4936	0.406	0.6304	0.405
Mof_C 	C 	0.493	0.3773	0.6848	-0.163
Mof_C 	C 	0.5238	0.375	0.6908	0.089
Mof_H 	H 	0.5442	0.39	0.6597	0.017
Mof_C 	C 	0.5247	0.3502	0.7434	-0.173
Mof_H 	H 	0.5452	0.3475	0.7462	0.098
Mof_C 	C 	0.4948	0.3294	0.7916	0.127
Mof_C 	C 	0.4646	0.3341	0.7876	-0.18
Mof_H 	H 	0.4447	0.3207	0.8214	0.084
Mof_C 	C 	0.4639	0.358	0.7353	0.093
Mof_H 	H 	0.4438	0.3614	0.7333	0
Mof_C 	C 	0.4962	0.3043	0.856	-0.144
Mof_C 	C 	0.4958	0.273	0.8303	0.122
Mof_C 	C 	0.4936	0.2619	0.7484	-0.084
Mof_H 	H 	0.4924	0.2743	0.7033	0.063
Mof_C 	C 	0.4981	0.3466	0.9594	-0.161
Mof_C 	C 	0.4978	0.3151	0.9341	0.136
Mof_H 	H 	0.4767	0.3468	0.9392	0.069
Mof_H 	H 	0.5197	0.368	0.9392	0.078
Mof_O 	O 	0.57901	0.09703	0.5806	-0.391
Mof_O 	O 	0.58538	0.05423	0.6446	-0.397
Mof_C 	C 	0.594	0.0876	0.6304	0.405
Mof_C 	C 	0.6227	0.1157	0.6848	-0.163
Mof_C 	C 	0.625	0.1488	0.6908	0.09
Mof_H 	H 	0.61	0.1542	0.6597	0.017
Mof_C 	C 	0.6498	0.1745	0.7434	-0.173
Mof_H 	H 	0.6525	0.1977	0.7462	0.098
Mof_C 	C 	0.6706	0.1654	0.7916	0.128
Mof_C 	C 	0.6659	0.1305	0.7876	-0.18
Mof_H 	H 	0.6793	0.124	0.8214	0.084
Mof_C 	C 	0.642	0.1059	0.7353	0.093
Mof_H 	H 	0.6386	0.0824	0.7333	-0.001
Mof_C 	C 	0.6957	0.1919	0.856	-0.144
Mof_C 	C 	0.727	0.2228	0.8303	0.123
Mof_C 	C 	0.7381	0.2317	0.7484	-0.084
Mof_H 	H 	0.7257	0.2181	0.7033	0.063
Mof_C 	C 	0.6534	0.1515	0.9594	-0.161
Mof_C 	C 	0.6849	0.1827	0.9341	0.136
Mof_H 	H 	0.6532	0.1299	0.9392	0.069
Mof_H 	H 	0.632	0.1517	0.9392	0.078
Mof_O 	O 	0.90297	0.48198	0.5806	-0.39
Mof_O 	O 	0.94577	0.53115	0.6446	-0.391
Mof_C 	C 	0.9124	0.5064	0.6304	0.404
Mof_C 	C 	0.8843	0.507	0.6848	-0.161
Mof_C 	C 	0.8512	0.4762	0.6908	0.089
Mof_H 	H 	0.8458	0.4558	0.6597	0.017
Mof_C 	C 	0.8255	0.4753	0.7434	-0.172
Mof_H 	H 	0.8023	0.4548	0.7462	0.098
Mof_C 	C 	0.8346	0.5052	0.7916	0.127
Mof_C 	C 	0.8695	0.5354	0.7876	-0.179
Mof_H 	H 	0.876	0.5553	0.8214	0.085
Mof_C 	C 	0.8941	0.5361	0.7353	0.093
Mof_H 	H 	0.9176	0.5562	0.7333	0.003
Mof_C 	C 	0.8081	0.5038	0.856	-0.144
Mof_C 	C 	0.7772	0.5042	0.8303	0.123
Mof_C 	C 	0.7683	0.5064	0.7484	-0.084
Mof_H 	H 	0.7819	0.5076	0.7033	0.064
Mof_C 	C 	0.8485	0.5019	0.9594	-0.161
Mof_C 	C 	0.8173	0.5022	0.9341	0.136
Mof_H 	H 	0.8701	0.5233	0.9392	0.071
Mof_H 	H 	0.8483	0.4803	0.9392	0.079
Mof_O 	O 	0.57901	0.48198	0.4194	-0.391
Mof_O 	O 	0.58538	0.53115	0.3554	-0.397
Mof_C 	C 	0.594	0.5064	0.3696	0.406
Mof_C 	C 	0.6227	0.507	0.3152	-0.162
Mof_C 	C 	0.625	0.4762	0.3092	0.089
Mof_H 	H 	0.61	0.4558	0.3403	0.017
Mof_C 	C 	0.6498	0.4753	0.2566	-0.173
Mof_H 	H 	0.6525	0.4548	0.2538	0.098
Mof_C 	C 	0.6706	0.5052	0.2084	0.127
Mof_C 	C 	0.6659	0.5354	0.2124	-0.179
Mof_H 	H 	0.6793	0.5553	0.1786	0.086
Mof_C 	C 	0.642	0.5361	0.2647	0.094
Mof_H 	H 	0.6386	0.5562	0.2667	0.001
Mof_C 	C 	0.6957	0.5038	0.144	-0.142
Mof_C 	C 	0.727	0.5042	0.1697	0.123
Mof_C 	C 	0.7381	0.5064	0.2516	-0.084
Mof_H 	H 	0.7257	0.5076	0.2967	0.064
Mof_C 	C 	0.6534	0.5019	0.0406	-0.144
Mof_C 	C 	0.6849	0.5022	0.0659	0.133
Mof_H 	H 	0.6532	0.5233	0.0608	0.066
Mof_H 	H 	0.632	0.4803	0.0608	0.075
Mof_O 	O 	0.90297	0.42099	0.4194	-0.39
Mof_O 	O 	0.94577	0.41462	0.3554	-0.391
Mof_C 	C 	0.9124	0.406	0.3696	0.404
Mof_C 	C 	0.8843	0.3773	0.3152	-0.161
Mof_C 	C 	0.8512	0.375	0.3092	0.089
Mof_H 	H 	0.8458	0.39	0.3403	0.018
Mof_C 	C 	0.8255	0.3502	0.2566	-0.172
Mof_H 	H 	0.8023	0.3475	0.2538	0.098
Mof_C 	C 	0.8346	0.3294	0.2084	0.127
Mof_C 	C 	0.8695	0.3341	0.2124	-0.178
Mof_H 	H 	0.876	0.3207	0.1786	0.086
Mof_C 	C 	0.8941	0.358	0.2647	0.093
Mof_H 	H 	0.9176	0.3614	0.2667	0.003
Mof_C 	C 	0.8081	0.3043	0.144	-0.141
Mof_C 	C 	0.7772	0.273	0.1697	0.122
Mof_C 	C 	0.7683	0.2619	0.2516	-0.084
Mof_H 	H 	0.7819	0.2743	0.2967	0.064
Mof_C 	C 	0.8485	0.3466	0.0406	-0.144
Mof_C 	C 	0.8173	0.3151	0.0659	0.133
Mof_H 	H 	0.8701	0.3468	0.0608	0.067
Mof_H 	H 	0.8483	0.368	0.0608	0.075
Mof_O 	O 	0.51802	0.09703	0.4194	-0.391
Mof_O 	O 	0.46885	0.05423	0.3554	-0.397
Mof_C 	C 	0.4936	0.0876	0.3696	0.405
Mof_C 	C 	0.493	0.1157	0.3152	-0.163
Mof_C 	C 	0.5238	0.1488	0.3092	0.089
Mof_H 	H 	0.5442	0.1542	0.3403	0.017
Mof_C 	C 	0.5247	0.1745	0.2566	-0.173
Mof_H 	H 	0.5452	0.1977	0.2538	0.098
Mof_C 	C 	0.4948	0.1654	0.2084	0.127
Mof_C 	C 	0.4646	0.1305	0.2124	-0.179
Mof_H 	H 	0.4447	0.124	0.1786	0.084
Mof_C 	C 	0.4639	0.1059	0.2647	0.093
Mof_H 	H 	0.4438	0.0824	0.2667	-0
Mof_C 	C 	0.4962	0.1919	0.144	-0.142
Mof_C 	C 	0.4958	0.2228	0.1697	0.122
Mof_C 	C 	0.4936	0.2317	0.2516	-0.084
Mof_H 	H 	0.4924	0.2181	0.2967	0.063
Mof_C 	C 	0.4981	0.1515	0.0406	-0.143
Mof_C 	C 	0.4978	0.1827	0.0659	0.133
Mof_H 	H 	0.4767	0.1299	0.0608	0.065
Mof_H 	H 	0.5197	0.1517	0.0608	0.074
Mof_O 	O 	0.42099	0.51802	0.4194	-0.391
Mof_O 	O 	0.41462	0.46885	0.3554	-0.397
Mof_C 	C 	0.406	0.4936	0.3696	0.405
Mof_C 	C 	0.3773	0.493	0.3152	-0.162
Mof_C 	C 	0.375	0.5238	0.3092	0.089
Mof_H 	H 	0.39	0.5442	0.3403	0.017
Mof_C 	C 	0.3502	0.5247	0.2566	-0.173
Mof_H 	H 	0.3475	0.5452	0.2538	0.098
Mof_C 	C 	0.3294	0.4948	0.2084	0.127
Mof_C 	C 	0.3341	0.4646	0.2124	-0.179
Mof_H 	H 	0.3207	0.4447	0.1786	0.085
Mof_C 	C 	0.358	0.4639	0.2647	0.093
Mof_H 	H 	0.3614	0.4438	0.2667	0.001
Mof_C 	C 	0.3043	0.4962	0.144	-0.142
Mof_C 	C 	0.273	0.4958	0.1697	0.122
Mof_C 	C 	0.2619	0.4936	0.2516	-0.084
Mof_H 	H 	0.2743	0.4924	0.2967	0.063
Mof_C 	C 	0.3466	0.4981	0.0406	-0.143
Mof_C 	C 	0.3151	0.4978	0.0659	0.133
Mof_H 	H 	0.3468	0.4767	0.0608	0.066
Mof_H 	H 	0.368	0.5197	0.0608	0.075
Mof_O 	O 	0.09703	0.57901	0.4194	-0.391
Mof_O 	O 	0.05423	0.58538	0.3554	-0.396
Mof_C 	C 	0.0876	0.594	0.3696	0.405
Mof_C 	C 	0.1157	0.6227	0.3152	-0.162
Mof_C 	C 	0.1488	0.625	0.3092	0.089
Mof_H 	H 	0.1542	0.61	0.3403	0.017
Mof_C 	C 	0.1745	0.6498	0.2566	-0.173
Mof_H 	H 	0.1977	0.6525	0.2538	0.098
Mof_C 	C 	0.1654	0.6706	0.2084	0.127
Mof_C 	C 	0.1305	0.6659	0.2124	-0.179
Mof_H 	H 	0.124	0.6793	0.1786	0.085
Mof_C 	C 	0.1059	0.642	0.2647	0.093
Mof_H 	H 	0.0824	0.6386	0.2667	-0
Mof_C 	C 	0.1919	0.6957	0.144	-0.142
Mof_C 	C 	0.2228	0.727	0.1697	0.122
Mof_C 	C 	0.2317	0.7381	0.2516	-0.084
Mof_H 	H 	0.2181	0.7257	0.2967	0.063
Mof_C 	C 	0.1515	0.6534	0.0406	-0.143
Mof_C 	C 	0.1827	0.6849	0.0659	0.133
Mof_H 	H 	0.1299	0.6532	0.0608	0.065
Mof_H 	H 	0.1517	0.632	0.0608	0.074
Mof_O 	O 	0.48198	0.90297	0.4194	-0.39
Mof_O 	O 	0.53115	0.94577	0.3554	-0.391
Mof_C 	C 	0.5064	0.9124	0.3696	0.404
Mof_C 	C 	0.507	0.8843	0.3152	-0.16
Mof_C 	C 	0.4762	0.8512	0.3092	0.089
Mof_H 	H 	0.4558	0.8458	0.3403	0.018
Mof_C 	C 	0.4753	0.8255	0.2566	-0.172
Mof_H 	H 	0.4548	0.8023	0.2538	0.098
Mof_C 	C 	0.5052	0.8346	0.2084	0.127
Mof_C 	C 	0.5354	0.8695	0.2124	-0.178
Mof_H 	H 	0.5553	0.876	0.1786	0.086
Mof_C 	C 	0.5361	0.8941	0.2647	0.093
Mof_H 	H 	0.5562	0.9176	0.2667	0.003
Mof_C 	C 	0.5038	0.8081	0.144	-0.141
Mof_C 	C 	0.5042	0.7772	0.1697	0.123
Mof_C 	C 	0.5064	0.7683	0.2516	-0.084
Mof_H 	H 	0.5076	0.7819	0.2967	0.064
Mof_C 	C 	0.5019	0.8485	0.0406	-0.144
Mof_C 	C 	0.5022	0.8173	0.0659	0.133
Mof_H 	H 	0.5233	0.8701	0.0608	0.067
Mof_H 	H 	0.4803	0.8483	0.0608	0.075
Mof_O 	O 	0.51802	0.42099	0.4194	-0.391
Mof_O 	O 	0.46885	0.41462	0.3554	-0.397
Mof_C 	C 	0.4936	0.406	0.3696	0.405
Mof_C 	C 	0.493	0.3773	0.3152	-0.162
Mof_C 	C 	0.5238	0.375	0.3092	0.089
Mof_H 	H 	0.5442	0.39	0.3403	0.017
Mof_C 	C 	0.5247	0.3502	0.2566	-0.173
Mof_H 	H 	0.5452	0.3475	0.2538	0.098
Mof_C 	C 	0.4948	0.3294	0.2084	0.127
Mof_C 	C 	0.4646	0.3341	0.2124	-0.179
Mof_H 	H 	0.4447	0.3207	0.1786	0.085
Mof_C 	C 	0.4639	0.358	0.2647	0.093
Mof_H 	H 	0.4438	0.3614	0.2667	0.001
Mof_C 	C 	0.4962	0.3043	0.144	-0.142
Mof_C 	C 	0.4958	0.273	0.1697	0.122
Mof_C 	C 	0.4936	0.2619	0.2516	-0.084
Mof_H 	H 	0.4924	0.2743	0.2967	0.063
Mof_C 	C 	0.4981	0.3466	0.0406	-0.143
Mof_C 	C 	0.4978	0.3151	0.0659	0.133
Mof_H 	H 	0.4767	0.3468	0.0608	0.066
Mof_H 	H 	0.5197	0.368	0.0608	0.075
Mof_O 	O 	0.57901	0.09703	0.4194	-0.391
Mof_O 	O 	0.58538	0.05423	0.3554	-0.396
Mof_C 	C 	0.594	0.0876	0.3696	0.405
Mof_C 	C 	0.6227	0.1157	0.3152	-0.162
Mof_C 	C 	0.625	0.1488	0.3092	0.089
Mof_H 	H 	0.61	0.1542	0.3403	0.017
Mof_C 	C 	0.6498	0.1745	0.2566	-0.173
Mof_H 	H 	0.6525	0.1977	0.2538	0.098
Mof_C 	C 	0.6706	0.1654	0.2084	0.127
Mof_C 	C 	0.6659	0.1305	0.2124	-0.179
Mof_H 	H 	0.6793	0.124	0.1786	0.085
Mof_C 	C 	0.642	0.1059	0.2647	0.093
Mof_H 	H 	0.6386	0.0824	0.2667	-0
Mof_C 	C 	0.6957	0.1919	0.144	-0.142
Mof_C 	C 	0.727	0.2228	0.1697	0.122
Mof_C 	C 	0.7381	0.2317	0.2516	-0.084
Mof_H 	H 	0.7257	0.2181	0.2967	0.063
Mof_C 	C 	0.6534	0.1515	0.0406	-0.143
Mof_C 	C 	0.6849	0.1827	0.0659	0.133
Mof_H 	H 	0.6532	0.1299	0.0608	0.065
Mof_H 	H 	0.632	0.1517	0.0608	0.074
Mof_O 	O 	0.90297	0.48198	0.4194	-0.39
Mof_O 	O 	0.94577	0.53115	0.3554	-0.391
Mof_C 	C 	0.9124	0.5064	0.3696	0.404
Mof_C 	C 	0.8843	0.507	0.3152	-0.16
Mof_C 	C 	0.8512	0.4762	0.3092	0.089
Mof_H 	H 	0.8458	0.4558	0.3403	0.018
Mof_C 	C 	0.8255	0.4753	0.2566	-0.172
Mof_H 	H 	0.8023	0.4548	0.2538	0.098
Mof_C 	C 	0.8346	0.5052	0.2084	0.127
Mof_C 	C 	0.8695	0.5354	0.2124	-0.178
Mof_H 	H 	0.876	0.5553	0.1786	0.086
Mof_C 	C 	0.8941	0.5361	0.2647	0.093
Mof_H 	H 	0.9176	0.5562	0.2667	0.003
Mof_C 	C 	0.8081	0.5038	0.144	-0.141
Mof_C 	C 	0.7772	0.5042	0.1697	0.123
Mof_C 	C 	0.7683	0.5064	0.2516	-0.084
Mof_H 	H 	0.7819	0.5076	0.2967	0.064
Mof_C 	C 	0.8485	0.5019	0.0406	-0.144
Mof_C 	C 	0.8173	0.5022	0.0659	0.133
Mof_H 	H 	0.8701	0.5233	0.0608	0.067
Mof_H 	H 	0.8483	0.4803	0.0608	0.075
Mof_O 	O 	0.48198	0.57901	0.4194	-0.391
Mof_O 	O 	0.53115	0.58538	0.3554	-0.397
Mof_C 	C 	0.5064	0.594	0.3696	0.406
Mof_C 	C 	0.507	0.6227	0.3152	-0.162
Mof_C 	C 	0.4762	0.625	0.3092	0.089
Mof_H 	H 	0.4558	0.61	0.3403	0.017
Mof_C 	C 	0.4753	0.6498	0.2566	-0.173
Mof_H 	H 	0.4548	0.6525	0.2538	0.098
Mof_C 	C 	0.5052	0.6706	0.2084	0.127
Mof_C 	C 	0.5354	0.6659	0.2124	-0.179
Mof_H 	H 	0.5553	0.6793	0.1786	0.086
Mof_C 	C 	0.5361	0.642	0.2647	0.094
Mof_H 	H 	0.5562	0.6386	0.2667	0.001
Mof_C 	C 	0.5038	0.6957	0.144	-0.142
Mof_C 	C 	0.5042	0.727	0.1697	0.123
Mof_C 	C 	0.5064	0.7381	0.2516	-0.084
Mof_H 	H 	0.5076	0.7257	0.2967	0.064
Mof_C 	C 	0.5019	0.6534	0.0406	-0.144
Mof_C 	C 	0.5022	0.6849	0.0659	0.133
Mof_H 	H 	0.5233	0.6532	0.0608	0.066
Mof_H 	H 	0.4803	0.632	0.0608	0.075
Mof_O 	O 	0.42099	0.90297	0.4194	-0.39
Mof_O 	O 	0.41462	0.94577	0.3554	-0.391
Mof_C 	C 	0.406	0.9124	0.3696	0.404
Mof_C 	C 	0.3773	0.8843	0.3152	-0.161
Mof_C 	C 	0.375	0.8512	0.3092	0.089
Mof_H 	H 	0.39	0.8458	0.3403	0.018
Mof_C 	C 	0.3502	0.8255	0.2566	-0.172
Mof_H 	H 	0.3475	0.8023	0.2538	0.098
Mof_C 	C 	0.3294	0.8346	0.2084	0.127
Mof_C 	C 	0.3341	0.8695	0.2124	-0.178
Mof_H 	H 	0.3207	0.876	0.1786	0.086
Mof_C 	C 	0.358	0.8941	0.2647	0.093
Mof_H 	H 	0.3614	0.9176	0.2667	0.003
Mof_C 	C 	0.3043	0.8081	0.144	-0.141
Mof_C 	C 	0.273	0.7772	0.1697	0.122
Mof_C 	C 	0.2619	0.7683	0.2516	-0.084
Mof_H 	H 	0.2743	0.7819	0.2967	0.064
Mof_C 	C 	0.3466	0.8485	0.0406	-0.144
Mof_C 	C 	0.3151	0.8173	0.0659	0.133
Mof_H 	H 	0.3468	0.8701	0.0608	0.067
Mof_H 	H 	0.368	0.8483	0.0608	0.075
Mof_O 	O 	0.09703	0.51802	0.4194	-0.391
Mof_O 	O 	0.05423	0.46885	0.3554	-0.397
Mof_C 	C 	0.0876	0.4936	0.3696	0.405
Mof_C 	C 	0.1157	0.493	0.3152	-0.163
Mof_C 	C 	0.1488	0.5238	0.3092	0.089
Mof_H 	H 	0.1542	0.5442	0.3403	0.017
Mof_C 	C 	0.1745	0.5247	0.2566	-0.173
Mof_H 	H 	0.1977	0.5452	0.2538	0.098
Mof_C 	C 	0.1654	0.4948	0.2084	0.127
Mof_C 	C 	0.1305	0.4646	0.2124	-0.179
Mof_H 	H 	0.124	0.4447	0.1786	0.084
Mof_C 	C 	0.1059	0.4639	0.2647	0.093
Mof_H 	H 	0.0824	0.4438	0.2667	-0
Mof_C 	C 	0.1919	0.4962	0.144	-0.142
Mof_C 	C 	0.2228	0.4958	0.1697	0.122
Mof_C 	C 	0.2317	0.4936	0.2516	-0.084
Mof_H 	H 	0.2181	0.4924	0.2967	0.063
Mof_C 	C 	0.1515	0.4981	0.0406	-0.143
Mof_C 	C 	0.1827	0.4978	0.0659	0.133
Mof_H 	H 	0.1299	0.4767	0.0608	0.065
Mof_H 	H 	0.1517	0.5197	0.0608	0.074
Mof_O 	O 	0.42099	0.51802	0.5806	-0.391
Mof_O 	O 	0.41462	0.46885	0.6446	-0.397
Mof_C 	C 	0.406	0.4936	0.6304	0.405
Mof_C 	C 	0.3773	0.493	0.6848	-0.163
Mof_C 	C 	0.375	0.5238	0.6908	0.089
Mof_H 	H 	0.39	0.5442	0.6597	0.017
Mof_C 	C 	0.3502	0.5247	0.7434	-0.173
Mof_H 	H 	0.3475	0.5452	0.7462	0.098
Mof_C 	C 	0.3294	0.4948	0.7916	0.127
Mof_C 	C 	0.3341	0.4646	0.7876	-0.18
Mof_H 	H 	0.3207	0.4447	0.8214	0.084
Mof_C 	C 	0.358	0.4639	0.7353	0.093
Mof_H 	H 	0.3614	0.4438	0.7333	0
Mof_C 	C 	0.3043	0.4962	0.856	-0.144
Mof_C 	C 	0.273	0.4958	0.8303	0.122
Mof_C 	C 	0.2619	0.4936	0.7484	-0.084
Mof_H 	H 	0.2743	0.4924	0.7033	0.063
Mof_C 	C 	0.3466	0.4981	0.9594	-0.161
Mof_C 	C 	0.3151	0.4978	0.9341	0.136
Mof_H 	H 	0.3468	0.4767	0.9392	0.069
Mof_H 	H 	0.368	0.5197	0.9392	0.078
Mof_O 	O 	0.09703	0.57901	0.5806	-0.391
Mof_O 	O 	0.05423	0.58538	0.6446	-0.397
Mof_C 	C 	0.0876	0.594	0.6304	0.405
Mof_C 	C 	0.1157	0.6227	0.6848	-0.163
Mof_C 	C 	0.1488	0.625	0.6908	0.09
Mof_H 	H 	0.1542	0.61	0.6597	0.017
Mof_C 	C 	0.1745	0.6498	0.7434	-0.173
Mof_H 	H 	0.1977	0.6525	0.7462	0.098
Mof_C 	C 	0.1654	0.6706	0.7916	0.128
Mof_C 	C 	0.1305	0.6659	0.7876	-0.18
Mof_H 	H 	0.124	0.6793	0.8214	0.084
Mof_C 	C 	0.1059	0.642	0.7353	0.093
Mof_H 	H 	0.0824	0.6386	0.7333	-0.001
Mof_C 	C 	0.1919	0.6957	0.856	-0.144
Mof_C 	C 	0.2228	0.727	0.8303	0.123
Mof_C 	C 	0.2317	0.7381	0.7484	-0.084
Mof_H 	H 	0.2181	0.7257	0.7033	0.063
Mof_C 	C 	0.1515	0.6534	0.9594	-0.161
Mof_C 	C 	0.1827	0.6849	0.9341	0.136
Mof_H 	H 	0.1299	0.6532	0.9392	0.069
Mof_H 	H 	0.1517	0.632	0.9392	0.078
Mof_O 	O 	0.48198	0.90297	0.5806	-0.39
Mof_O 	O 	0.53115	0.94577	0.6446	-0.391
Mof_C 	C 	0.5064	0.9124	0.6304	0.404
Mof_C 	C 	0.507	0.8843	0.6848	-0.161
Mof_C 	C 	0.4762	0.8512	0.6908	0.089
Mof_H 	H 	0.4558	0.8458	0.6597	0.017
Mof_C 	C 	0.4753	0.8255	0.7434	-0.172
Mof_H 	H 	0.4548	0.8023	0.7462	0.098
Mof_C 	C 	0.5052	0.8346	0.7916	0.127
Mof_C 	C 	0.5354	0.8695	0.7876	-0.179
Mof_H 	H 	0.5553	0.876	0.8214	0.085
Mof_C 	C 	0.5361	0.8941	0.7353	0.093
Mof_H 	H 	0.5562	0.9176	0.7333	0.003
Mof_C 	C 	0.5038	0.8081	0.856	-0.144
Mof_C 	C 	0.5042	0.7772	0.8303	0.123
Mof_C 	C 	0.5064	0.7683	0.7484	-0.084
Mof_H 	H 	0.5076	0.7819	0.7033	0.064
Mof_C 	C 	0.5019	0.8485	0.9594	-0.161
Mof_C 	C 	0.5022	0.8173	0.9341	0.136
Mof_H 	H 	0.5233	0.8701	0.9392	0.071
Mof_H 	H 	0.4803	0.8483	0.9392	0.079
Mof_O 	O 	0.57901	0.48198	0.5806	-0.391
Mof_O 	O 	0.58538	0.53115	0.6446	-0.397
Mof_C 	C 	0.594	0.5064	0.6304	0.406
Mof_C 	C 	0.6227	0.507	0.6848	-0.162
Mof_C 	C 	0.625	0.4762	0.6908	0.09
Mof_H 	H 	0.61	0.4558	0.6597	0.017
Mof_C 	C 	0.6498	0.4753	0.7434	-0.173
Mof_H 	H 	0.6525	0.4548	0.7462	0.098
Mof_C 	C 	0.6706	0.5052	0.7916	0.128
Mof_C 	C 	0.6659	0.5354	0.7876	-0.18
Mof_H 	H 	0.6793	0.5553	0.8214	0.085
Mof_C 	C 	0.642	0.5361	0.7353	0.094
Mof_H 	H 	0.6386	0.5562	0.7333	0.001
Mof_C 	C 	0.6957	0.5038	0.856	-0.144
Mof_C 	C 	0.727	0.5042	0.8303	0.123
Mof_C 	C 	0.7381	0.5064	0.7484	-0.084
Mof_H 	H 	0.7257	0.5076	0.7033	0.064
Mof_C 	C 	0.6534	0.5019	0.9594	-0.161
Mof_C 	C 	0.6849	0.5022	0.9341	0.136
Mof_H 	H 	0.6532	0.5233	0.9392	0.07
Mof_H 	H 	0.632	0.4803	0.9392	0.078
Mof_O 	O 	0.90297	0.42099	0.5806	-0.39
Mof_O 	O 	0.94577	0.41462	0.6446	-0.391
Mof_C 	C 	0.9124	0.406	0.6304	0.404
Mof_C 	C 	0.8843	0.3773	0.6848	-0.161
Mof_C 	C 	0.8512	0.375	0.6908	0.089
Mof_H 	H 	0.8458	0.39	0.6597	0.017
Mof_C 	C 	0.8255	0.3502	0.7434	-0.172
Mof_H 	H 	0.8023	0.3475	0.7462	0.098
Mof_C 	C 	0.8346	0.3294	0.7916	0.127
Mof_C 	C 	0.8695	0.3341	0.7876	-0.179
Mof_H 	H 	0.876	0.3207	0.8214	0.085
Mof_C 	C 	0.8941	0.358	0.7353	0.093
Mof_H 	H 	0.9176	0.3614	0.7333	0.002
Mof_C 	C 	0.8081	0.3043	0.856	-0.144
Mof_C 	C 	0.7772	0.273	0.8303	0.123
Mof_C 	C 	0.7683	0.2619	0.7484	-0.084
Mof_H 	H 	0.7819	0.2743	0.7033	0.064
Mof_C 	C 	0.8485	0.3466	0.9594	-0.161
Mof_C 	C 	0.8173	0.3151	0.9341	0.136
Mof_H 	H 	0.8701	0.3468	0.9392	0.07
Mof_H 	H 	0.8483	0.368	0.9392	0.079
Mof_O 	O 	0.51802	0.09703	0.5806	-0.391
Mof_O 	O 	0.46885	0.05423	0.6446	-0.397
Mof_C 	C 	0.4936	0.0876	0.6304	0.405
Mof_C 	C 	0.493	0.1157	0.6848	-0.163
Mof_C 	C 	0.5238	0.1488	0.6908	0.089
Mof_H 	H 	0.5442	0.1542	0.6597	0.017
Mof_C 	C 	0.5247	0.1745	0.7434	-0.173
Mof_H 	H 	0.5452	0.1977	0.7462	0.098
Mof_C 	C 	0.4948	0.1654	0.7916	0.127
Mof_C 	C 	0.4646	0.1305	0.7876	-0.18
Mof_H 	H 	0.4447	0.124	0.8214	0.084
Mof_C 	C 	0.4639	0.1059	0.7353	0.093
Mof_H 	H 	0.4438	0.0824	0.7333	-0.001
Mof_C 	C 	0.4962	0.1919	0.856	-0.144
Mof_C 	C 	0.4958	0.2228	0.8303	0.122
Mof_C 	C 	0.4936	0.2317	0.7484	-0.084
Mof_H 	H 	0.4924	0.2181	0.7033	0.063
Mof_C 	C 	0.4981	0.1515	0.9594	-0.161
Mof_C 	C 	0.4978	0.1827	0.9341	0.136
Mof_H 	H 	0.4767	0.1299	0.9392	0.069
Mof_H 	H 	0.5197	0.1517	0.9392	0.078
Mof_Hf	Hf	0.46655	0.53345	0.5	1.426
Mof_Hf	Hf	0.46655	0.9331	0.5	1.424
Mof_Hf	Hf	0.0669	0.53345	0.5	1.425
Mof_Hf	Hf	0.53345	0.46655	0.5	1.426
Mof_Hf	Hf	0.53345	0.0669	0.5	1.425
Mof_Hf	Hf	0.9331	0.46655	0.5	1.424
Mof_Hf	Hf	0.4592	0.4592	0.60321	1.181
Mof_Hf	Hf	0.5408	0	0.60321	1.164
Mof_Hf	Hf	-2.89438e-17	0.5408	0.60321	1.164
Mof_Hf	Hf	0.5408	0.5408	0.60321	1.181
Mof_Hf	Hf	0.4592	0	0.60321	1.163
Mof_Hf	Hf	-2.89438e-17	0.4592	0.60321	1.163
Mof_Hf	Hf	0.4592	0.4592	0.39679	1.181
Mof_Hf	Hf	-1.90392e-17	0.5408	0.39679	1.164
Mof_Hf	Hf	0.5408	0	0.39679	1.164
Mof_Hf	Hf	0.5408	0.5408	0.39679	1.182
Mof_Hf	Hf	-1.90392e-17	0.4592	0.39679	1.164
Mof_Hf	Hf	0.4592	0	0.39679	1.164
Mof_Fe	Fe	0.49574	0.74787	-0	0.732
Mof_Cl	Cl	0.4299	0.71495	-0	-0.358
Mof_Fe	Fe	0.25213	0.74787	-0	0.732
Mof_Cl	Cl	0.28505	0.71495	-0	-0.358
Mof_Fe	Fe	0.25213	0.50426	-0	0.731
Mof_Cl	Cl	0.28505	0.5701	-0	-0.358
Mof_Fe	Fe	0.50426	0.25213	-0	0.731
Mof_Cl	Cl	0.5701	0.28505	-0	-0.358
Mof_Fe	Fe	0.74787	0.25213	-0	0.732
Mof_Cl	Cl	0.71495	0.28505	-0	-0.358
Mof_Fe	Fe	0.74787	0.49574	-0	0.732
Mof_Cl	Cl	0.71495	0.4299	-0	-0.358
Mof_O 	O 	0.48399	0.51601	0.6056	-0.519
Mof_O 	O 	0.48399	0.96798	0.6056	-0.51
Mof_O 	O 	0.03202	0.51601	0.6056	-0.518
Mof_O 	O 	0.51601	0.48399	0.6056	-0.519
Mof_O 	O 	0.51601	0.03202	0.6056	-0.518
Mof_O 	O 	0.96798	0.48399	0.6056	-0.51
Mof_O 	O 	0.51601	0.48399	0.3944	-0.519
Mof_O 	O 	0.96798	0.48399	0.3944	-0.51
Mof_O 	O 	0.51601	0.03202	0.3944	-0.517
Mof_O 	O 	0.48399	0.51601	0.3944	-0.519
Mof_O 	O 	0.03202	0.51601	0.3944	-0.517
Mof_O 	O 	0.48399	0.96798	0.3944	-0.51
Mof_O 	O 	0.4439	0.47688	0.5	-0.537
Mof_O 	O 	0.52312	0.96702	0.5	-0.528
Mof_O 	O 	0.03298	0.5561	0.5	-0.535
Mof_O 	O 	0.5561	0.52312	0.5	-0.537
Mof_O 	O 	0.47688	0.03298	0.5	-0.535
Mof_O 	O 	0.96702	0.4439	0.5	-0.528
Mof_O 	O 	0.47688	0.4439	0.5	-0.537
Mof_O 	O 	0.96702	0.52312	0.5	-0.528
Mof_O 	O 	0.5561	0.03298	0.5	-0.535
Mof_O 	O 	0.52312	0.5561	0.5	-0.537
Mof_O 	O 	0.03298	0.47688	0.5	-0.535
Mof_O 	O 	0.4439	0.96702	0.5	-0.528
Mof_N 	N 	0.5013	0.75065	0.8792	-0.211
Mof_N 	N 	0.24935	0.75065	0.8792	-0.211
Mof_N 	N 	0.24935	0.4987	0.8792	-0.211
Mof_N 	N 	0.4987	0.24935	0.8792	-0.211
Mof_N 	N 	0.75065	0.24935	0.8792	-0.211
Mof_N 	N 	0.75065	0.5013	0.8792	-0.211
Mof_N 	N 	0.75065	0.5013	0.1208	-0.21
Mof_N 	N 	0.75065	0.24935	0.1208	-0.21
Mof_N 	N 	0.4987	0.24935	0.1208	-0.21
Mof_N 	N 	0.24935	0.4987	0.1208	-0.21
Mof_N 	N 	0.24935	0.75065	0.1208	-0.21
Mof_N 	N 	0.5013	0.75065	0.1208	-0.21
Mof_N 	N 	0.5027	0.7051	-0	-0.215
Mof_N 	N 	0.2949	0.7976	-0	-0.215
Mof_N 	N 	0.2024	0.4973	-0	-0.215
Mof_N 	N 	0.4973	0.2949	-0	-0.215
Mof_N 	N 	0.7051	0.2024	-0	-0.215
Mof_N 	N 	0.7976	0.5027	-0	-0.215
Mof_N 	N 	0.7051	0.5027	-0	-0.215
Mof_N 	N 	0.7976	0.2949	-0	-0.215
Mof_N 	N 	0.4973	0.2024	-0	-0.215
Mof_N 	N 	0.2949	0.4973	-0	-0.215
Mof_N 	N 	0.2024	0.7051	-0	-0.215
Mof_N 	N 	0.5027	0.7976	-0	-0.215
_end
