data_functionalizedCrystal
_audit_creation_method	'EQeq! by Chris Wilmer'
_symmetry_space_group_name_H-M	'P1'
_symmetry_Int_Tables_number	1
_symmetry_cell_setting	triclinic
loop_
_symmetry_equiv_pos_as_xyz
  x,y,z
_cell_length_a	24.958
_cell_length_b	24.958
_cell_length_c	13.8496
_cell_angle_alpha	90
_cell_angle_beta	90
_cell_angle_gamma	90
loop_
_atom_site_label
_atom_site_type_symbol
_atom_site_fract_x
_atom_site_fract_y
_atom_site_fract_z
_atom_site_charge
Mof_S 	S 	0.3427	0.46965	0.4927	-0.101
Mof_C 	C 	0.3937	0.4276	0.4472	0.005
Mof_C 	C 	0.4376	0.4082	0.498	-0.019
Mof_C 	C 	0.4728	0.3725	0.454	0.002
Mof_C 	C 	0.4641	0.3563	0.3593	-0.009
Mof_H 	H 	0.4881	0.332	0.3293	0.017
Mof_C 	C 	0.4201	0.3758	0.3085	-0.159
Mof_C 	C 	0.3849	0.4114	0.3525	-0.014
Mof_H 	H 	0.3549	0.4247	0.3177	0.014
Mof_S 	S 	0.45034	0.42611	0.623	0.003
Mof_C 	C 	0.3928	0.3984	0.6854	-0.15
Mof_H 	H 	0.3875	0.418	0.7468	0.058
Mof_H 	H 	0.3605	0.4036	0.6452	0.064
Mof_C 	C 	0.3992	0.3411	0.7063	0.003
Mof_H 	H 	0.3645	0.3271	0.7297	0.01
Mof_H 	H 	0.4076	0.3224	0.645	0.004
Mof_N 	N 	0.44	0.3273	0.7761	-0.107
Mof_N 	N 	0.4777	0.2901	0.762	-0.168
Mof_C 	C 	0.5054	0.2857	0.8405	0.071
Mof_H 	H 	0.5357	0.2632	0.8492	-0.025
Mof_C 	C 	0.4837	0.3194	0.91	-0.159
Mof_H 	H 	0.4954	0.3244	0.9747	0.044
Mof_C 	C 	0.4416	0.3439	0.8645	0.064
Mof_H 	H 	0.4176	0.3688	0.893	-0.017
Mof_C 	C 	0.413	0.3635	0.1982	0.534
Mof_C 	C 	0.429	0.4116	0.139	-0.847
Mof_H 	H 	0.4558	0.4009	0.0911	0.255
Mof_H 	H 	0.4442	0.4391	0.1815	0.264
Mof_H 	H 	0.3974	0.426	0.106	0.256
Mof_C 	C 	0.353	0.3481	0.1799	-0.778
Mof_H 	H 	0.3513	0.3183	0.134	0.23
Mof_H 	H 	0.3339	0.3791	0.1534	0.232
Mof_H 	H 	0.3364	0.3374	0.241	0.236
Mof_C 	C 	0.4469	0.3154	0.1657	-0.803
Mof_H 	H 	0.4418	0.2856	0.2109	0.24
Mof_H 	H 	0.4848	0.3256	0.1645	0.24
Mof_H 	H 	0.4357	0.3042	0.1009	0.234
Mof_S 	S 	0.8427	0.96965	0.9927	-0.101
Mof_C 	C 	0.8937	0.9276	0.9472	0.005
Mof_C 	C 	0.9376	0.9082	0.998	-0.019
Mof_C 	C 	0.9728	0.8725	0.954	0.002
Mof_C 	C 	0.9641	0.8563	0.8593	-0.009
Mof_H 	H 	0.9881	0.832	0.8293	0.017
Mof_C 	C 	0.9201	0.8758	0.8085	-0.159
Mof_C 	C 	0.8849	0.9114	0.8525	-0.014
Mof_H 	H 	0.8549	0.9247	0.8177	0.014
Mof_S 	S 	0.95034	0.92611	0.123	0.003
Mof_C 	C 	0.8928	0.8984	0.1854	-0.15
Mof_H 	H 	0.8875	0.918	0.2468	0.058
Mof_H 	H 	0.8605	0.9036	0.1452	0.064
Mof_C 	C 	0.8992	0.8411	0.2063	0.003
Mof_H 	H 	0.8645	0.8271	0.2297	0.01
Mof_H 	H 	0.9076	0.8224	0.145	0.004
Mof_N 	N 	0.94	0.8273	0.2761	-0.107
Mof_N 	N 	0.9777	0.7901	0.262	-0.168
Mof_C 	C 	0.0054	0.7857	0.3405	0.071
Mof_H 	H 	0.0357	0.7632	0.3492	-0.025
Mof_C 	C 	0.9837	0.8194	0.41	-0.16
Mof_H 	H 	0.9954	0.8244	0.4747	0.044
Mof_C 	C 	0.9416	0.8439	0.3645	0.064
Mof_H 	H 	0.9176	0.8688	0.393	-0.017
Mof_C 	C 	0.913	0.8635	0.6982	0.534
Mof_C 	C 	0.929	0.9116	0.639	-0.847
Mof_H 	H 	0.9558	0.9009	0.5911	0.255
Mof_H 	H 	0.9442	0.9391	0.6815	0.264
Mof_H 	H 	0.8974	0.926	0.606	0.256
Mof_C 	C 	0.853	0.8481	0.6799	-0.778
Mof_H 	H 	0.8513	0.8183	0.634	0.23
Mof_H 	H 	0.8339	0.8791	0.6534	0.232
Mof_H 	H 	0.8364	0.8374	0.741	0.236
Mof_C 	C 	0.9469	0.8154	0.6657	-0.803
Mof_H 	H 	0.9418	0.7856	0.7109	0.24
Mof_H 	H 	0.9848	0.8256	0.6645	0.24
Mof_H 	H 	0.9357	0.8042	0.6009	0.234
Mof_S 	S 	0.6573	0.53035	0.4927	-0.101
Mof_C 	C 	0.6063	0.5724	0.4472	0.005
Mof_C 	C 	0.5624	0.5918	0.498	-0.019
Mof_C 	C 	0.5272	0.6275	0.454	0.002
Mof_C 	C 	0.5359	0.6437	0.3593	-0.009
Mof_H 	H 	0.5119	0.668	0.3293	0.017
Mof_C 	C 	0.5799	0.6242	0.3085	-0.159
Mof_C 	C 	0.6151	0.5886	0.3525	-0.014
Mof_H 	H 	0.6451	0.5753	0.3177	0.014
Mof_S 	S 	0.54966	0.57389	0.623	0.003
Mof_C 	C 	0.6072	0.6016	0.6854	-0.15
Mof_H 	H 	0.6125	0.582	0.7468	0.058
Mof_H 	H 	0.6395	0.5964	0.6452	0.064
Mof_C 	C 	0.6008	0.6589	0.7063	0.003
Mof_H 	H 	0.6355	0.6729	0.7297	0.01
Mof_H 	H 	0.5924	0.6776	0.645	0.004
Mof_N 	N 	0.56	0.6727	0.7761	-0.107
Mof_N 	N 	0.5223	0.7099	0.762	-0.168
Mof_C 	C 	0.4946	0.7143	0.8405	0.071
Mof_H 	H 	0.4643	0.7368	0.8492	-0.025
Mof_C 	C 	0.5163	0.6806	0.91	-0.159
Mof_H 	H 	0.5046	0.6756	0.9747	0.044
Mof_C 	C 	0.5584	0.6561	0.8645	0.064
Mof_H 	H 	0.5824	0.6312	0.893	-0.017
Mof_C 	C 	0.587	0.6365	0.1982	0.534
Mof_C 	C 	0.571	0.5884	0.139	-0.847
Mof_H 	H 	0.5442	0.5991	0.0911	0.255
Mof_H 	H 	0.5558	0.5609	0.1815	0.264
Mof_H 	H 	0.6026	0.574	0.106	0.256
Mof_C 	C 	0.647	0.6519	0.1799	-0.778
Mof_H 	H 	0.6487	0.6817	0.134	0.23
Mof_H 	H 	0.6661	0.6209	0.1534	0.232
Mof_H 	H 	0.6636	0.6626	0.241	0.236
Mof_C 	C 	0.5531	0.6846	0.1657	-0.803
Mof_H 	H 	0.5582	0.7144	0.2109	0.24
Mof_H 	H 	0.5152	0.6744	0.1645	0.24
Mof_H 	H 	0.5643	0.6958	0.1009	0.234
Mof_S 	S 	0.1573	0.03035	0.9927	-0.101
Mof_C 	C 	0.1063	0.0724	0.9472	0.005
Mof_C 	C 	0.0624	0.0918	0.998	-0.019
Mof_C 	C 	0.0272	0.1275	0.954	0.002
Mof_C 	C 	0.0359	0.1437	0.8593	-0.009
Mof_H 	H 	0.0119	0.168	0.8293	0.017
Mof_C 	C 	0.0799	0.1242	0.8085	-0.159
Mof_C 	C 	0.1151	0.0886	0.8525	-0.014
Mof_H 	H 	0.1451	0.0753	0.8177	0.014
Mof_S 	S 	0.04966	0.07389	0.123	0.003
Mof_C 	C 	0.1072	0.1016	0.1854	-0.15
Mof_H 	H 	0.1125	0.082	0.2468	0.058
Mof_H 	H 	0.1395	0.0964	0.1452	0.064
Mof_C 	C 	0.1008	0.1589	0.2063	0.003
Mof_H 	H 	0.1355	0.1729	0.2297	0.01
Mof_H 	H 	0.0924	0.1776	0.145	0.004
Mof_N 	N 	0.06	0.1727	0.2761	-0.107
Mof_N 	N 	0.0223	0.2099	0.262	-0.168
Mof_C 	C 	0.9946	0.2143	0.3405	0.071
Mof_H 	H 	0.9643	0.2368	0.3492	-0.025
Mof_C 	C 	0.0163	0.1806	0.41	-0.16
Mof_H 	H 	0.0046	0.1756	0.4747	0.044
Mof_C 	C 	0.0584	0.1561	0.3645	0.064
Mof_H 	H 	0.0824	0.1312	0.393	-0.017
Mof_C 	C 	0.087	0.1365	0.6982	0.534
Mof_C 	C 	0.071	0.0884	0.639	-0.847
Mof_H 	H 	0.0442	0.0991	0.5911	0.255
Mof_H 	H 	0.0558	0.0609	0.6815	0.264
Mof_H 	H 	0.1026	0.074	0.606	0.256
Mof_C 	C 	0.147	0.1519	0.6799	-0.778
Mof_H 	H 	0.1487	0.1817	0.634	0.23
Mof_H 	H 	0.1661	0.1209	0.6534	0.232
Mof_H 	H 	0.1636	0.1626	0.741	0.236
Mof_C 	C 	0.0531	0.1846	0.6657	-0.803
Mof_H 	H 	0.0582	0.2144	0.7109	0.24
Mof_H 	H 	0.0152	0.1744	0.6645	0.24
Mof_H 	H 	0.0643	0.1958	0.6009	0.234
Mof_S 	S 	0.46965	0.6573	0.5073	-0.101
Mof_C 	C 	0.4276	0.6063	0.5528	0.005
Mof_C 	C 	0.4082	0.5624	0.502	-0.019
Mof_C 	C 	0.3725	0.5272	0.546	0.002
Mof_C 	C 	0.3563	0.5359	0.6407	-0.009
Mof_H 	H 	0.332	0.5119	0.6707	0.017
Mof_C 	C 	0.3758	0.5799	0.6915	-0.159
Mof_C 	C 	0.4114	0.6151	0.6475	-0.014
Mof_H 	H 	0.4247	0.6451	0.6823	0.014
Mof_S 	S 	0.42611	0.54966	0.377	0.003
Mof_C 	C 	0.3984	0.6072	0.3146	-0.15
Mof_H 	H 	0.418	0.6125	0.2532	0.058
Mof_H 	H 	0.4036	0.6395	0.3548	0.064
Mof_C 	C 	0.3411	0.6008	0.2937	0.003
Mof_H 	H 	0.3271	0.6355	0.2703	0.01
Mof_H 	H 	0.3224	0.5924	0.355	0.004
Mof_N 	N 	0.3273	0.56	0.2239	-0.107
Mof_N 	N 	0.2901	0.5223	0.238	-0.168
Mof_C 	C 	0.2857	0.4946	0.1595	0.071
Mof_H 	H 	0.2632	0.4643	0.1508	-0.025
Mof_C 	C 	0.3194	0.5163	0.09	-0.159
Mof_H 	H 	0.3244	0.5046	0.0253	0.044
Mof_C 	C 	0.3439	0.5584	0.1355	0.064
Mof_H 	H 	0.3688	0.5824	0.107	-0.017
Mof_C 	C 	0.3635	0.587	0.8018	0.534
Mof_C 	C 	0.4116	0.571	0.861	-0.847
Mof_H 	H 	0.4009	0.5442	0.9089	0.255
Mof_H 	H 	0.4391	0.5558	0.8185	0.264
Mof_H 	H 	0.426	0.6026	0.894	0.256
Mof_C 	C 	0.3481	0.647	0.8201	-0.778
Mof_H 	H 	0.3183	0.6487	0.866	0.23
Mof_H 	H 	0.3791	0.6661	0.8466	0.232
Mof_H 	H 	0.3374	0.6636	0.759	0.236
Mof_C 	C 	0.3154	0.5531	0.8343	-0.803
Mof_H 	H 	0.2856	0.5582	0.7891	0.24
Mof_H 	H 	0.3256	0.5152	0.8355	0.24
Mof_H 	H 	0.3042	0.5643	0.8991	0.234
Mof_S 	S 	0.96965	0.1573	0.0073	-0.101
Mof_C 	C 	0.9276	0.1063	0.0528	0.005
Mof_C 	C 	0.9082	0.0624	0.002	-0.019
Mof_C 	C 	0.8725	0.0272	0.046	0.002
Mof_C 	C 	0.8563	0.0359	0.1407	-0.009
Mof_H 	H 	0.832	0.0119	0.1707	0.017
Mof_C 	C 	0.8758	0.0799	0.1915	-0.159
Mof_C 	C 	0.9114	0.1151	0.1475	-0.014
Mof_H 	H 	0.9247	0.1451	0.1823	0.014
Mof_S 	S 	0.92611	0.04966	0.877	0.003
Mof_C 	C 	0.8984	0.1072	0.8146	-0.15
Mof_H 	H 	0.918	0.1125	0.7532	0.058
Mof_H 	H 	0.9036	0.1395	0.8548	0.064
Mof_C 	C 	0.8411	0.1008	0.7937	0.003
Mof_H 	H 	0.8271	0.1355	0.7703	0.01
Mof_H 	H 	0.8224	0.0924	0.855	0.004
Mof_N 	N 	0.8273	0.06	0.7239	-0.107
Mof_N 	N 	0.7901	0.0223	0.738	-0.168
Mof_C 	C 	0.7857	0.9946	0.6595	0.071
Mof_H 	H 	0.7632	0.9643	0.6508	-0.025
Mof_C 	C 	0.8194	0.0163	0.59	-0.16
Mof_H 	H 	0.8244	0.0046	0.5253	0.044
Mof_C 	C 	0.8439	0.0584	0.6355	0.064
Mof_H 	H 	0.8688	0.0824	0.607	-0.017
Mof_C 	C 	0.8635	0.087	0.3018	0.534
Mof_C 	C 	0.9116	0.071	0.361	-0.847
Mof_H 	H 	0.9009	0.0442	0.4089	0.255
Mof_H 	H 	0.9391	0.0558	0.3185	0.264
Mof_H 	H 	0.926	0.1026	0.394	0.256
Mof_C 	C 	0.8481	0.147	0.3201	-0.778
Mof_H 	H 	0.8183	0.1487	0.366	0.23
Mof_H 	H 	0.8791	0.1661	0.3466	0.232
Mof_H 	H 	0.8374	0.1636	0.259	0.236
Mof_C 	C 	0.8154	0.0531	0.3343	-0.803
Mof_H 	H 	0.7856	0.0582	0.2891	0.24
Mof_H 	H 	0.8256	0.0152	0.3355	0.24
Mof_H 	H 	0.8042	0.0643	0.3991	0.234
Mof_S 	S 	0.53035	0.3427	0.5073	-0.101
Mof_C 	C 	0.5724	0.3937	0.5528	0.005
Mof_C 	C 	0.5918	0.4376	0.502	-0.019
Mof_C 	C 	0.6275	0.4728	0.546	0.002
Mof_C 	C 	0.6437	0.4641	0.6407	-0.009
Mof_H 	H 	0.668	0.4881	0.6707	0.017
Mof_C 	C 	0.6242	0.4201	0.6915	-0.159
Mof_C 	C 	0.5886	0.3849	0.6475	-0.014
Mof_H 	H 	0.5753	0.3549	0.6823	0.014
Mof_S 	S 	0.57389	0.45034	0.377	0.003
Mof_C 	C 	0.6016	0.3928	0.3146	-0.15
Mof_H 	H 	0.582	0.3875	0.2532	0.058
Mof_H 	H 	0.5964	0.3605	0.3548	0.064
Mof_C 	C 	0.6589	0.3992	0.2937	0.003
Mof_H 	H 	0.6729	0.3645	0.2703	0.01
Mof_H 	H 	0.6776	0.4076	0.355	0.004
Mof_N 	N 	0.6727	0.44	0.2239	-0.107
Mof_N 	N 	0.7099	0.4777	0.238	-0.168
Mof_C 	C 	0.7143	0.5054	0.1595	0.071
Mof_H 	H 	0.7368	0.5357	0.1508	-0.025
Mof_C 	C 	0.6806	0.4837	0.09	-0.159
Mof_H 	H 	0.6756	0.4954	0.0253	0.044
Mof_C 	C 	0.6561	0.4416	0.1355	0.064
Mof_H 	H 	0.6312	0.4176	0.107	-0.017
Mof_C 	C 	0.6365	0.413	0.8018	0.534
Mof_C 	C 	0.5884	0.429	0.861	-0.847
Mof_H 	H 	0.5991	0.4558	0.9089	0.255
Mof_H 	H 	0.5609	0.4442	0.8185	0.264
Mof_H 	H 	0.574	0.3974	0.894	0.256
Mof_C 	C 	0.6519	0.353	0.8201	-0.778
Mof_H 	H 	0.6817	0.3513	0.866	0.23
Mof_H 	H 	0.6209	0.3339	0.8466	0.232
Mof_H 	H 	0.6626	0.3364	0.759	0.236
Mof_C 	C 	0.6846	0.4469	0.8343	-0.803
Mof_H 	H 	0.7144	0.4418	0.7891	0.24
Mof_H 	H 	0.6744	0.4848	0.8355	0.24
Mof_H 	H 	0.6958	0.4357	0.8991	0.234
Mof_S 	S 	0.03035	0.8427	0.0073	-0.101
Mof_C 	C 	0.0724	0.8937	0.0528	0.005
Mof_C 	C 	0.0918	0.9376	0.002	-0.019
Mof_C 	C 	0.1275	0.9728	0.046	0.002
Mof_C 	C 	0.1437	0.9641	0.1407	-0.009
Mof_H 	H 	0.168	0.9881	0.1707	0.017
Mof_C 	C 	0.1242	0.9201	0.1915	-0.159
Mof_C 	C 	0.0886	0.8849	0.1475	-0.014
Mof_H 	H 	0.0753	0.8549	0.1823	0.014
Mof_S 	S 	0.07389	0.95034	0.877	0.003
Mof_C 	C 	0.1016	0.8928	0.8146	-0.15
Mof_H 	H 	0.082	0.8875	0.7532	0.058
Mof_H 	H 	0.0964	0.8605	0.8548	0.064
Mof_C 	C 	0.1589	0.8992	0.7937	0.003
Mof_H 	H 	0.1729	0.8645	0.7703	0.01
Mof_H 	H 	0.1776	0.9076	0.855	0.004
Mof_N 	N 	0.1727	0.94	0.7239	-0.107
Mof_N 	N 	0.2099	0.9777	0.738	-0.168
Mof_C 	C 	0.2143	0.0054	0.6595	0.071
Mof_H 	H 	0.2368	0.0357	0.6508	-0.025
Mof_C 	C 	0.1806	0.9837	0.59	-0.16
Mof_H 	H 	0.1756	0.9954	0.5253	0.044
Mof_C 	C 	0.1561	0.9416	0.6355	0.064
Mof_H 	H 	0.1312	0.9176	0.607	-0.017
Mof_C 	C 	0.1365	0.913	0.3018	0.534
Mof_C 	C 	0.0884	0.929	0.361	-0.847
Mof_H 	H 	0.0991	0.9558	0.4089	0.255
Mof_H 	H 	0.0609	0.9442	0.3185	0.264
Mof_H 	H 	0.074	0.8974	0.394	0.256
Mof_C 	C 	0.1519	0.853	0.3201	-0.778
Mof_H 	H 	0.1817	0.8513	0.366	0.23
Mof_H 	H 	0.1209	0.8339	0.3466	0.232
Mof_H 	H 	0.1626	0.8364	0.259	0.236
Mof_C 	C 	0.1846	0.9469	0.3343	-0.803
Mof_H 	H 	0.2144	0.9418	0.2891	0.24
Mof_H 	H 	0.1744	0.9848	0.3355	0.24
Mof_H 	H 	0.1958	0.9357	0.3991	0.234
Mof_S 	S 	0.1573	0.46965	0.2573	-0.101
Mof_C 	C 	0.1063	0.4276	0.3028	0.005
Mof_C 	C 	0.0624	0.4082	0.252	-0.019
Mof_C 	C 	0.0272	0.3725	0.296	0.002
Mof_C 	C 	0.0359	0.3563	0.3907	-0.009
Mof_H 	H 	0.0119	0.332	0.4207	0.017
Mof_C 	C 	0.0799	0.3758	0.4415	-0.159
Mof_C 	C 	0.1151	0.4114	0.3975	-0.014
Mof_H 	H 	0.1451	0.4247	0.4323	0.014
Mof_S 	S 	0.04966	0.42611	0.127	0.003
Mof_C 	C 	0.1072	0.3984	0.0646	-0.15
Mof_H 	H 	0.1125	0.418	0.0032	0.058
Mof_H 	H 	0.1395	0.4036	0.1048	0.064
Mof_C 	C 	0.1008	0.3411	0.0437	0.003
Mof_H 	H 	0.1355	0.3271	0.0203	0.01
Mof_H 	H 	0.0924	0.3224	0.105	0.004
Mof_N 	N 	0.06	0.3273	0.9739	-0.107
Mof_N 	N 	0.0223	0.2901	0.988	-0.168
Mof_C 	C 	0.9946	0.2857	0.9095	0.071
Mof_H 	H 	0.9643	0.2632	0.9008	-0.025
Mof_C 	C 	0.0163	0.3194	0.84	-0.159
Mof_H 	H 	0.0046	0.3244	0.7753	0.044
Mof_C 	C 	0.0584	0.3439	0.8855	0.064
Mof_H 	H 	0.0824	0.3688	0.857	-0.017
Mof_C 	C 	0.087	0.3635	0.5518	0.534
Mof_C 	C 	0.071	0.4116	0.611	-0.847
Mof_H 	H 	0.0442	0.4009	0.6589	0.255
Mof_H 	H 	0.0558	0.4391	0.5685	0.264
Mof_H 	H 	0.1026	0.426	0.644	0.256
Mof_C 	C 	0.147	0.3481	0.5701	-0.778
Mof_H 	H 	0.1487	0.3183	0.616	0.23
Mof_H 	H 	0.1661	0.3791	0.5966	0.232
Mof_H 	H 	0.1636	0.3374	0.509	0.236
Mof_C 	C 	0.0531	0.3154	0.5843	-0.803
Mof_H 	H 	0.0582	0.2856	0.5391	0.24
Mof_H 	H 	0.0152	0.3256	0.5855	0.24
Mof_H 	H 	0.0643	0.3042	0.6491	0.234
Mof_S 	S 	0.6573	0.96965	0.7573	-0.101
Mof_C 	C 	0.6063	0.9276	0.8028	0.005
Mof_C 	C 	0.5624	0.9082	0.752	-0.019
Mof_C 	C 	0.5272	0.8725	0.796	0.002
Mof_C 	C 	0.5359	0.8563	0.8907	-0.009
Mof_H 	H 	0.5119	0.832	0.9207	0.017
Mof_C 	C 	0.5799	0.8758	0.9415	-0.159
Mof_C 	C 	0.6151	0.9114	0.8975	-0.014
Mof_H 	H 	0.6451	0.9247	0.9323	0.014
Mof_S 	S 	0.54966	0.92611	0.627	0.003
Mof_C 	C 	0.6072	0.8984	0.5646	-0.15
Mof_H 	H 	0.6125	0.918	0.5032	0.058
Mof_H 	H 	0.6395	0.9036	0.6048	0.064
Mof_C 	C 	0.6008	0.8411	0.5437	0.003
Mof_H 	H 	0.6355	0.8271	0.5203	0.01
Mof_H 	H 	0.5924	0.8224	0.605	0.004
Mof_N 	N 	0.56	0.8273	0.4739	-0.107
Mof_N 	N 	0.5223	0.7901	0.488	-0.168
Mof_C 	C 	0.4946	0.7857	0.4095	0.071
Mof_H 	H 	0.4643	0.7632	0.4008	-0.025
Mof_C 	C 	0.5163	0.8194	0.34	-0.159
Mof_H 	H 	0.5046	0.8244	0.2753	0.044
Mof_C 	C 	0.5584	0.8439	0.3855	0.064
Mof_H 	H 	0.5824	0.8688	0.357	-0.017
Mof_C 	C 	0.587	0.8635	0.0518	0.534
Mof_C 	C 	0.571	0.9116	0.111	-0.847
Mof_H 	H 	0.5442	0.9009	0.1589	0.255
Mof_H 	H 	0.5558	0.9391	0.0685	0.264
Mof_H 	H 	0.6026	0.926	0.144	0.256
Mof_C 	C 	0.647	0.8481	0.0701	-0.778
Mof_H 	H 	0.6487	0.8183	0.116	0.229
Mof_H 	H 	0.6661	0.8791	0.0966	0.232
Mof_H 	H 	0.6636	0.8374	0.009	0.236
Mof_C 	C 	0.5531	0.8154	0.0843	-0.803
Mof_H 	H 	0.5582	0.7856	0.0391	0.24
Mof_H 	H 	0.5152	0.8256	0.0855	0.24
Mof_H 	H 	0.5643	0.8042	0.1491	0.234
Mof_S 	S 	0.8427	0.53035	0.2573	-0.101
Mof_C 	C 	0.8937	0.5724	0.3028	0.005
Mof_C 	C 	0.9376	0.5918	0.252	-0.019
Mof_C 	C 	0.9728	0.6275	0.296	0.002
Mof_C 	C 	0.9641	0.6437	0.3907	-0.009
Mof_H 	H 	0.9881	0.668	0.4207	0.017
Mof_C 	C 	0.9201	0.6242	0.4415	-0.159
Mof_C 	C 	0.8849	0.5886	0.3975	-0.014
Mof_H 	H 	0.8549	0.5753	0.4323	0.014
Mof_S 	S 	0.95034	0.57389	0.127	0.003
Mof_C 	C 	0.8928	0.6016	0.0646	-0.15
Mof_H 	H 	0.8875	0.582	0.0032	0.058
Mof_H 	H 	0.8605	0.5964	0.1048	0.064
Mof_C 	C 	0.8992	0.6589	0.0437	0.003
Mof_H 	H 	0.8645	0.6729	0.0203	0.01
Mof_H 	H 	0.9076	0.6776	0.105	0.004
Mof_N 	N 	0.94	0.6727	0.9739	-0.107
Mof_N 	N 	0.9777	0.7099	0.988	-0.168
Mof_C 	C 	0.0054	0.7143	0.9095	0.071
Mof_H 	H 	0.0357	0.7368	0.9008	-0.025
Mof_C 	C 	0.9837	0.6806	0.84	-0.159
Mof_H 	H 	0.9954	0.6756	0.7753	0.044
Mof_C 	C 	0.9416	0.6561	0.8855	0.064
Mof_H 	H 	0.9176	0.6312	0.857	-0.017
Mof_C 	C 	0.913	0.6365	0.5518	0.534
Mof_C 	C 	0.929	0.5884	0.611	-0.847
Mof_H 	H 	0.9558	0.5991	0.6589	0.255
Mof_H 	H 	0.9442	0.5609	0.5685	0.264
Mof_H 	H 	0.8974	0.574	0.644	0.256
Mof_C 	C 	0.853	0.6519	0.5701	-0.778
Mof_H 	H 	0.8513	0.6817	0.616	0.23
Mof_H 	H 	0.8339	0.6209	0.5966	0.232
Mof_H 	H 	0.8364	0.6626	0.509	0.236
Mof_C 	C 	0.9469	0.6846	0.5843	-0.803
Mof_H 	H 	0.9418	0.7144	0.5391	0.24
Mof_H 	H 	0.9848	0.6744	0.5855	0.24
Mof_H 	H 	0.9357	0.6958	0.6491	0.234
Mof_S 	S 	0.3427	0.03035	0.7573	-0.101
Mof_C 	C 	0.3937	0.0724	0.8028	0.005
Mof_C 	C 	0.4376	0.0918	0.752	-0.019
Mof_C 	C 	0.4728	0.1275	0.796	0.002
Mof_C 	C 	0.4641	0.1437	0.8907	-0.009
Mof_H 	H 	0.4881	0.168	0.9207	0.017
Mof_C 	C 	0.4201	0.1242	0.9415	-0.159
Mof_C 	C 	0.3849	0.0886	0.8975	-0.014
Mof_H 	H 	0.3549	0.0753	0.9323	0.014
Mof_S 	S 	0.45034	0.07389	0.627	0.003
Mof_C 	C 	0.3928	0.1016	0.5646	-0.15
Mof_H 	H 	0.3875	0.082	0.5032	0.058
Mof_H 	H 	0.3605	0.0964	0.6048	0.064
Mof_C 	C 	0.3992	0.1589	0.5437	0.003
Mof_H 	H 	0.3645	0.1729	0.5203	0.01
Mof_H 	H 	0.4076	0.1776	0.605	0.004
Mof_N 	N 	0.44	0.1727	0.4739	-0.107
Mof_N 	N 	0.4777	0.2099	0.488	-0.168
Mof_C 	C 	0.5054	0.2143	0.4095	0.071
Mof_H 	H 	0.5357	0.2368	0.4008	-0.025
Mof_C 	C 	0.4837	0.1806	0.34	-0.159
Mof_H 	H 	0.4954	0.1756	0.2753	0.044
Mof_C 	C 	0.4416	0.1561	0.3855	0.064
Mof_H 	H 	0.4176	0.1312	0.357	-0.017
Mof_C 	C 	0.413	0.1365	0.0518	0.534
Mof_C 	C 	0.429	0.0884	0.111	-0.847
Mof_H 	H 	0.4558	0.0991	0.1589	0.255
Mof_H 	H 	0.4442	0.0609	0.0685	0.264
Mof_H 	H 	0.3974	0.074	0.144	0.256
Mof_C 	C 	0.353	0.1519	0.0701	-0.778
Mof_H 	H 	0.3513	0.1817	0.116	0.229
Mof_H 	H 	0.3339	0.1209	0.0966	0.232
Mof_H 	H 	0.3364	0.1626	0.009	0.236
Mof_C 	C 	0.4469	0.1846	0.0843	-0.803
Mof_H 	H 	0.4418	0.2144	0.0391	0.24
Mof_H 	H 	0.4848	0.1744	0.0855	0.24
Mof_H 	H 	0.4357	0.1958	0.1491	0.234
Mof_S 	S 	0.03035	0.6573	0.2427	-0.101
Mof_C 	C 	0.0724	0.6063	0.1972	0.005
Mof_C 	C 	0.0918	0.5624	0.248	-0.019
Mof_C 	C 	0.1275	0.5272	0.204	0.002
Mof_C 	C 	0.1437	0.5359	0.1093	-0.009
Mof_H 	H 	0.168	0.5119	0.0793	0.017
Mof_C 	C 	0.1242	0.5799	0.0585	-0.159
Mof_C 	C 	0.0886	0.6151	0.1025	-0.014
Mof_H 	H 	0.0753	0.6451	0.0677	0.014
Mof_S 	S 	0.07389	0.54966	0.373	0.003
Mof_C 	C 	0.1016	0.6072	0.4354	-0.15
Mof_H 	H 	0.082	0.6125	0.4968	0.058
Mof_H 	H 	0.0964	0.6395	0.3952	0.064
Mof_C 	C 	0.1589	0.6008	0.4563	0.003
Mof_H 	H 	0.1729	0.6355	0.4797	0.01
Mof_H 	H 	0.1776	0.5924	0.395	0.004
Mof_N 	N 	0.1727	0.56	0.5261	-0.107
Mof_N 	N 	0.2099	0.5223	0.512	-0.168
Mof_C 	C 	0.2143	0.4946	0.5905	0.071
Mof_H 	H 	0.2368	0.4643	0.5992	-0.025
Mof_C 	C 	0.1806	0.5163	0.66	-0.159
Mof_H 	H 	0.1756	0.5046	0.7247	0.044
Mof_C 	C 	0.1561	0.5584	0.6145	0.064
Mof_H 	H 	0.1312	0.5824	0.643	-0.017
Mof_C 	C 	0.1365	0.587	0.9482	0.534
Mof_C 	C 	0.0884	0.571	0.889	-0.847
Mof_H 	H 	0.0991	0.5442	0.8411	0.255
Mof_H 	H 	0.0609	0.5558	0.9315	0.264
Mof_H 	H 	0.074	0.6026	0.856	0.256
Mof_C 	C 	0.1519	0.647	0.9299	-0.778
Mof_H 	H 	0.1817	0.6487	0.884	0.229
Mof_H 	H 	0.1209	0.6661	0.9034	0.232
Mof_H 	H 	0.1626	0.6636	0.991	0.236
Mof_C 	C 	0.1846	0.5531	0.9157	-0.803
Mof_H 	H 	0.2144	0.5582	0.9609	0.24
Mof_H 	H 	0.1744	0.5152	0.9145	0.24
Mof_H 	H 	0.1958	0.5643	0.8509	0.234
Mof_S 	S 	0.53035	0.1573	0.7427	-0.101
Mof_C 	C 	0.5724	0.1063	0.6972	0.005
Mof_C 	C 	0.5918	0.0624	0.748	-0.019
Mof_C 	C 	0.6275	0.0272	0.704	0.002
Mof_C 	C 	0.6437	0.0359	0.6093	-0.009
Mof_H 	H 	0.668	0.0119	0.5793	0.017
Mof_C 	C 	0.6242	0.0799	0.5585	-0.159
Mof_C 	C 	0.5886	0.1151	0.6025	-0.014
Mof_H 	H 	0.5753	0.1451	0.5677	0.014
Mof_S 	S 	0.57389	0.04966	0.873	0.003
Mof_C 	C 	0.6016	0.1072	0.9354	-0.15
Mof_H 	H 	0.582	0.1125	0.9968	0.058
Mof_H 	H 	0.5964	0.1395	0.8952	0.064
Mof_C 	C 	0.6589	0.1008	0.9563	0.003
Mof_H 	H 	0.6729	0.1355	0.9797	0.01
Mof_H 	H 	0.6776	0.0924	0.895	0.004
Mof_N 	N 	0.6727	0.06	0.0261	-0.107
Mof_N 	N 	0.7099	0.0223	0.012	-0.168
Mof_C 	C 	0.7143	0.9946	0.0905	0.071
Mof_H 	H 	0.7368	0.9643	0.0992	-0.025
Mof_C 	C 	0.6806	0.0163	0.16	-0.159
Mof_H 	H 	0.6756	0.0046	0.2247	0.044
Mof_C 	C 	0.6561	0.0584	0.1145	0.064
Mof_H 	H 	0.6312	0.0824	0.143	-0.017
Mof_C 	C 	0.6365	0.087	0.4482	0.534
Mof_C 	C 	0.5884	0.071	0.389	-0.847
Mof_H 	H 	0.5991	0.0442	0.3411	0.255
Mof_H 	H 	0.5609	0.0558	0.4315	0.264
Mof_H 	H 	0.574	0.1026	0.356	0.256
Mof_C 	C 	0.6519	0.147	0.4299	-0.778
Mof_H 	H 	0.6817	0.1487	0.384	0.23
Mof_H 	H 	0.6209	0.1661	0.4034	0.232
Mof_H 	H 	0.6626	0.1636	0.491	0.236
Mof_C 	C 	0.6846	0.0531	0.4157	-0.803
Mof_H 	H 	0.7144	0.0582	0.4609	0.24
Mof_H 	H 	0.6744	0.0152	0.4145	0.24
Mof_H 	H 	0.6958	0.0643	0.3509	0.234
Mof_S 	S 	0.96965	0.3427	0.2427	-0.101
Mof_C 	C 	0.9276	0.3937	0.1972	0.005
Mof_C 	C 	0.9082	0.4376	0.248	-0.019
Mof_C 	C 	0.8725	0.4728	0.204	0.002
Mof_C 	C 	0.8563	0.4641	0.1093	-0.009
Mof_H 	H 	0.832	0.4881	0.0793	0.017
Mof_C 	C 	0.8758	0.4201	0.0585	-0.159
Mof_C 	C 	0.9114	0.3849	0.1025	-0.014
Mof_H 	H 	0.9247	0.3549	0.0677	0.014
Mof_S 	S 	0.92611	0.45034	0.373	0.003
Mof_C 	C 	0.8984	0.3928	0.4354	-0.15
Mof_H 	H 	0.918	0.3875	0.4968	0.058
Mof_H 	H 	0.9036	0.3605	0.3952	0.064
Mof_C 	C 	0.8411	0.3992	0.4563	0.003
Mof_H 	H 	0.8271	0.3645	0.4797	0.01
Mof_H 	H 	0.8224	0.4076	0.395	0.004
Mof_N 	N 	0.8273	0.44	0.5261	-0.107
Mof_N 	N 	0.7901	0.4777	0.512	-0.168
Mof_C 	C 	0.7857	0.5054	0.5905	0.071
Mof_H 	H 	0.7632	0.5357	0.5992	-0.025
Mof_C 	C 	0.8194	0.4837	0.66	-0.159
Mof_H 	H 	0.8244	0.4954	0.7247	0.044
Mof_C 	C 	0.8439	0.4416	0.6145	0.064
Mof_H 	H 	0.8688	0.4176	0.643	-0.017
Mof_C 	C 	0.8635	0.413	0.9482	0.534
Mof_C 	C 	0.9116	0.429	0.889	-0.847
Mof_H 	H 	0.9009	0.4558	0.8411	0.255
Mof_H 	H 	0.9391	0.4442	0.9315	0.264
Mof_H 	H 	0.926	0.3974	0.856	0.256
Mof_C 	C 	0.8481	0.353	0.9299	-0.778
Mof_H 	H 	0.8183	0.3513	0.884	0.229
Mof_H 	H 	0.8791	0.3339	0.9034	0.232
Mof_H 	H 	0.8374	0.3364	0.991	0.236
Mof_C 	C 	0.8154	0.4469	0.9157	-0.803
Mof_H 	H 	0.7856	0.4418	0.9609	0.24
Mof_H 	H 	0.8256	0.4848	0.9145	0.24
Mof_H 	H 	0.8042	0.4357	0.8509	0.234
Mof_S 	S 	0.46965	0.8427	0.7427	-0.101
Mof_C 	C 	0.4276	0.8937	0.6972	0.005
Mof_C 	C 	0.4082	0.9376	0.748	-0.019
Mof_C 	C 	0.3725	0.9728	0.704	0.002
Mof_C 	C 	0.3563	0.9641	0.6093	-0.009
Mof_H 	H 	0.332	0.9881	0.5793	0.017
Mof_C 	C 	0.3758	0.9201	0.5585	-0.159
Mof_C 	C 	0.4114	0.8849	0.6025	-0.014
Mof_H 	H 	0.4247	0.8549	0.5677	0.014
Mof_S 	S 	0.42611	0.95034	0.873	0.003
Mof_C 	C 	0.3984	0.8928	0.9354	-0.15
Mof_H 	H 	0.418	0.8875	0.9968	0.058
Mof_H 	H 	0.4036	0.8605	0.8952	0.064
Mof_C 	C 	0.3411	0.8992	0.9563	0.003
Mof_H 	H 	0.3271	0.8645	0.9797	0.01
Mof_H 	H 	0.3224	0.9076	0.895	0.004
Mof_N 	N 	0.3273	0.94	0.0261	-0.107
Mof_N 	N 	0.2901	0.9777	0.012	-0.168
Mof_C 	C 	0.2857	0.0054	0.0905	0.071
Mof_H 	H 	0.2632	0.0357	0.0992	-0.025
Mof_C 	C 	0.3194	0.9837	0.16	-0.159
Mof_H 	H 	0.3244	0.9954	0.2247	0.044
Mof_C 	C 	0.3439	0.9416	0.1145	0.064
Mof_H 	H 	0.3688	0.9176	0.143	-0.017
Mof_C 	C 	0.3635	0.913	0.4482	0.534
Mof_C 	C 	0.4116	0.929	0.389	-0.847
Mof_H 	H 	0.4009	0.9558	0.3411	0.255
Mof_H 	H 	0.4391	0.9442	0.4315	0.264
Mof_H 	H 	0.426	0.8974	0.356	0.256
Mof_C 	C 	0.3481	0.853	0.4299	-0.778
Mof_H 	H 	0.3183	0.8513	0.384	0.23
Mof_H 	H 	0.3791	0.8339	0.4034	0.232
Mof_H 	H 	0.3374	0.8364	0.491	0.236
Mof_C 	C 	0.3154	0.9469	0.4157	-0.803
Mof_H 	H 	0.2856	0.9418	0.4609	0.24
Mof_H 	H 	0.3256	0.9848	0.4145	0.24
Mof_H 	H 	0.3042	0.9357	0.3509	0.234
Mof_Ag	Ag	0.48877	0.25	0.625	0.553
Mof_Ag	Ag	0.51123	0.75	0.625	0.553
Mof_Ag	Ag	0.25	0.51123	0.375	0.553
Mof_Ag	Ag	0.75	0.01123	0.875	0.553
Mof_Ag	Ag	0.75	0.48877	0.375	0.553
Mof_Ag	Ag	0.25	0.98877	0.875	0.553
Mof_Ag	Ag	0.01123	0.25	0.125	0.553
Mof_Ag	Ag	0.98877	0.75	0.125	0.553
_end
