data_functionalizedCrystal
_audit_creation_method	'EQeq! by Chris Wilmer'
_symmetry_space_group_name_H-M	'P1'
_symmetry_Int_Tables_number	1
_symmetry_cell_setting	triclinic
loop_
_symmetry_equiv_pos_as_xyz
  x,y,z
_cell_length_a	11.629
_cell_length_b	12.38
_cell_length_c	17.902
_cell_angle_alpha	90
_cell_angle_beta	90
_cell_angle_gamma	109.051
loop_
_atom_site_label
_atom_site_type_symbol
_atom_site_fract_x
_atom_site_fract_y
_atom_site_fract_z
_atom_site_charge
Mof_Cd	Cd	0.5	0.5	0.5	0.384
Mof_Cd	Cd	-0	0	-0	0.349
Mof_H 	H 	0.7256	0.5414	0.3579	0.007
Mof_H 	H 	0.5361	0.0979	0.4179	0.031
Mof_H 	H 	0.2612	0.5745	0.4448	0.016
Mof_H 	H 	0.5281	0.7687	0.9993	0.052
Mof_H 	H 	0.7948	0.3277	0.7923	0.171
Mof_H 	H 	0.2686	0.1855	0.9451	0.028
Mof_H 	H 	0.0361	0.5979	0.0821	0.026
Mof_H 	H 	0.999	0.8756	0.1726	0.017
Mof_H 	H 	0.8738	0.1391	0.2647	0.054
Mof_H 	H 	0.6201	0.8089	0.7686	0.15
Mof_H 	H 	0.2948	0.8277	0.7077	0.172
Mof_H 	H 	0.5913	0.1062	0.079	0.164
Mof_H 	H 	0.7388	0.4255	0.5552	0.016
Mof_H 	H 	0.975	0.9144	0.8073	0.045
Mof_H 	H 	0.525	0.5856	0.3073	0.033
Mof_H 	H 	0.0038	0.7206	0.9829	0.06
Mof_H 	H 	0.3738	0.6391	0.2353	0.05
Mof_H 	H 	0.2052	0.6723	0.2077	0.169
Mof_H 	H 	0.4719	0.2313	0.0007	0.061
Mof_H 	H 	0.3799	0.1911	0.2314	0.145
Mof_H 	H 	0.501	0.6244	0.6726	-0.001
Mof_H 	H 	0.2388	0.9255	0.9448	0.022
Mof_H 	H 	0.9639	0.4021	0.9179	0.043
Mof_H 	H 	0.2744	0.4586	0.6421	0.007
Mof_H 	H 	0.1262	0.8609	0.7353	0.048
Mof_H 	H 	0.7314	0.8145	0.0549	0.049
Mof_H 	H 	0.8799	0.6911	0.2686	0.147
Mof_H 	H 	0.6262	0.3609	0.7647	0.05
Mof_H 	H 	0.0913	0.6062	0.421	0.171
Mof_H 	H 	0.9719	0.7313	0.4993	0.059
Mof_H 	H 	0.4087	0.8938	0.921	0.174
Mof_H 	H 	0.2314	0.3145	0.4451	0.037
Mof_H 	H 	0.7052	0.1723	0.2923	0.168
Mof_H 	H 	0.5038	0.2206	0.5171	0.04
Mof_H 	H 	0.001	0.1244	0.8274	-0.017
Mof_H 	H 	0.0281	0.2687	0.5007	0.052
Mof_H 	H 	0.4962	0.7794	0.4829	0.044
Mof_H 	H 	0.9087	0.3938	0.579	0.168
Mof_H 	H 	0.025	0.0856	0.1927	0.017
Mof_H 	H 	0.7612	0.0745	0.0552	0.012
Mof_H 	H 	0.499	0.3756	0.3274	-0.001
Mof_H 	H 	0.4639	0.9021	0.5821	0.038
Mof_H 	H 	0.9962	0.2794	0.0171	0.029
Mof_H 	H 	0.7744	0.9586	0.8579	0.012
Mof_H 	H 	0.7686	0.6855	0.5549	0.041
Mof_H 	H 	0.1201	0.3089	0.7314	0.148
Mof_H 	H 	0.2256	0.0414	0.1421	0.003
Mof_H 	H 	0.475	0.4144	0.6927	0.032
Mof_C 	C 	0.5279	0.8523	0.85288	0.265
Mof_C 	C 	0.952	0.09	0.17405	0.03
Mof_C 	C 	0.4604	0.8135	0.72775	0.262
Mof_C 	C 	0.2392	0.4171	0.59996	0.116
Mof_C 	C 	0.9517	0.6775	0.28082	-0.294
Mof_C 	C 	0.6015	0.8116	0.97761	0.036
Mof_C 	C 	0.507	0.2367	0.46621	0.002
Mof_C 	C 	0.7392	0.9171	0.90004	0.12
Mof_C 	C 	0.1467	0.6661	0.24435	-0.299
Mof_C 	C 	0.9752	0.3317	0.91175	0.015
Mof_C 	C 	0.5396	0.1865	0.27225	0.255
Mof_C 	C 	0.808	0.0836	0.09836	0.102
Mof_C 	C 	0.692	0.4164	0.59836	0.104
Mof_C 	C 	0.7856	0.6619	0.50809	0.011
Mof_C 	C 	0.6467	0.1661	0.25565	-0.3
Mof_C 	C 	0.1648	0.6363	0.31686	0.256
Mof_C 	C 	0.3692	0.6198	0.28571	0.008
Mof_C 	C 	0.3533	0.8339	0.74435	-0.303
Mof_C 	C 	0.4721	0.1477	0.14712	0.254
Mof_C 	C 	0.8692	0.1198	0.21429	-0.004
Mof_C 	C 	0.6308	0.3802	0.71429	0.007
Mof_C 	C 	0.192	0.9164	0.90164	0.107
Mof_C 	C 	0.4959	0.6777	0.63729	0.115
Mof_C 	C 	0.5248	0.1683	0.41175	0.026
Mof_C 	C 	0.1015	0.3116	0.52239	0.012
Mof_C 	C 	0.9721	0.6477	0.35288	0.267
Mof_C 	C 	0.4752	0.8317	0.58825	0.028
Mof_C 	C 	0.7608	0.5829	0.40004	0.118
Mof_C 	C 	0.0396	0.6865	0.22775	0.25
Mof_C 	C 	0.3352	0.8637	0.81686	0.259
Mof_C 	C 	0.493	0.7633	0.53379	0.004
Mof_C 	C 	0.0041	0.8223	0.13729	0.094
Mof_C 	C 	0.5785	0.1264	0.12757	-0.293
Mof_C 	C 	0.007	0.7367	0.03379	-0.03
Mof_C 	C 	0.452	0.59	0.32595	0.011
Mof_C 	C 	0.5041	0.3223	0.36271	0.113
Mof_C 	C 	0.9959	0.1777	0.86271	0.133
Mof_C 	C 	0.0785	0.6264	0.37243	-0.304
Mof_C 	C 	0.4215	0.8736	0.87243	-0.297
Mof_C 	C 	0.5483	0.8225	0.78082	-0.305
Mof_C 	C 	0.2856	0.1619	0.99191	0.043
Mof_C 	C 	0.8352	0.3637	0.68314	0.254
Mof_C 	C 	0.8533	0.3339	0.75565	-0.304
Mof_C 	C 	0.3985	0.1884	0.02239	-0.014
Mof_C 	C 	0.0248	0.6683	0.08825	0.041
Mof_C 	C 	0.548	0.41	0.67405	0.011
Mof_C 	C 	0.4517	0.1775	0.21918	-0.301
Mof_C 	C 	0.7144	0.8381	0.00809	-0.012
Mof_C 	C 	0.993	0.2633	0.96621	0.033
Mof_C 	C 	0.8985	0.6884	0.47761	0.016
Mof_C 	C 	0.048	0.91	0.82595	-0
Mof_C 	C 	0.1308	0.8802	0.78571	0.016
Mof_C 	C 	0.2144	0.3381	0.49191	0.01
Mof_C 	C 	0.308	0.5836	0.40164	0.105
Mof_C 	C 	0.0483	0.3225	0.71918	-0.312
Mof_C 	C 	0.6648	0.1363	0.18314	0.251
Mof_C 	C 	0.2608	0.0829	0.09996	0.112
Mof_C 	C 	0.0279	0.3523	0.64712	0.253
Mof_C 	C 	0.9604	0.3135	0.77225	0.266
Mof_C 	C 	0.9215	0.3736	0.62757	-0.286
Mof_N 	N 	0.72432	0.38416	0.66531	-0.157
Mof_N 	N 	0.88147	0.63861	0.40821	-0.157
Mof_N 	N 	0.0058	0.16596	0.9349	-0.154
Mof_N 	N 	0.61853	0.86139	0.90821	-0.159
Mof_N 	N 	0.58662	0.43304	0.60189	-0.144
Mof_N 	N 	0.5058	0.66596	0.5651	-0.143
Mof_N 	N 	0.97721	0.27677	0.84606	-0.164
Mof_N 	N 	0.52279	0.22323	0.34606	-0.163
Mof_N 	N 	0.08662	0.93304	0.89811	-0.135
Mof_N 	N 	0.29999	0.40484	0.54058	-0.144
Mof_N 	N 	0.47721	0.77677	0.65394	-0.162
Mof_N 	N 	0.11853	0.36139	0.59179	-0.157
Mof_N 	N 	0.27568	0.61584	0.33469	-0.157
Mof_N 	N 	0.79999	0.90484	0.95942	-0.129
Mof_N 	N 	0.4942	0.33404	0.4349	-0.143
Mof_N 	N 	0.41338	0.56696	0.39811	-0.144
Mof_N 	N 	0.38147	0.13861	0.09179	-0.154
Mof_N 	N 	0.22432	0.88416	0.83469	-0.157
Mof_N 	N 	0.91338	0.06696	0.10189	-0.147
Mof_N 	N 	0.02279	0.72323	0.15394	-0.161
Mof_N 	N 	0.70001	0.59516	0.45942	-0.144
Mof_N 	N 	0.77568	0.11584	0.16531	-0.155
Mof_N 	N 	0.20001	0.09516	0.04058	-0.156
Mof_N 	N 	0.9942	0.83404	0.0651	-0.124
Mof_N 	N 	0.139	0.6743	0.60778	0.053
Mof_O 	O 	0.1202	0.7681	0.61094	-0.132
Mof_O 	O 	0.1437	0.6292	0.54741	-0.13
Mof_O 	O 	0.1531	0.6274	0.66652	-0.122
Mof_N 	N 	0.639	0.1743	0.89222	0.053
Mof_O 	O 	0.6202	0.2681	0.88906	-0.131
Mof_O 	O 	0.6437	0.1292	0.95259	-0.128
Mof_O 	O 	0.6531	0.1274	0.83348	-0.127
Mof_N 	N 	0.861	0.3257	0.39222	0.053
Mof_O 	O 	0.8563	0.3708	0.45259	-0.128
Mof_O 	O 	0.8469	0.3726	0.33348	-0.12
Mof_O 	O 	0.8798	0.2319	0.38906	-0.132
Mof_N 	N 	0.361	0.8257	0.10778	0.053
Mof_O 	O 	0.3469	0.8726	0.16652	-0.114
Mof_O 	O 	0.3563	0.8708	0.04741	-0.129
Mof_O 	O 	0.3798	0.7319	0.11094	-0.134
_end
