data_functionalizedCrystal
_audit_creation_method	'EQeq! by Chris Wilmer'
_symmetry_space_group_name_H-M	'P1'
_symmetry_Int_Tables_number	1
_symmetry_cell_setting	triclinic
loop_
_symmetry_equiv_pos_as_xyz
  x,y,z
_cell_length_a	11.6416
_cell_length_b	14.9517
_cell_length_c	16.6108
_cell_angle_alpha	90
_cell_angle_beta	93.893
_cell_angle_gamma	90
loop_
_atom_site_label
_atom_site_type_symbol
_atom_site_fract_x
_atom_site_fract_y
_atom_site_fract_z
_atom_site_charge
Mof_Cu	Cu	0.39677	0.0363	0.00865	0.872
Mof_Cu	Cu	0.10323	0.5363	0.49135	0.903
Mof_Cu	Cu	0.60323	0.9637	0.99135	0.931
Mof_Cu	Cu	0.89677	0.4637	0.50865	0.908
Mof_Cu	Cu	0.5	0.5	-0	0.892
Mof_Cu	Cu	9.8528e-18	0	0.5	0.888
Mof_H 	H 	0.2546	0.4947	0.736	0.065
Mof_H 	H 	0.9522	0.3623	0.7443	0.092
Mof_H 	H 	0.1833	0.3568	0.9373	0.072
Mof_H 	H 	0.008	0.2679	0.9387	0.023
Mof_H 	H 	0.9295	0.2541	0.8559	0.035
Mof_H 	H 	0.7927	0.204	0.9299	0.083
Mof_H 	H 	0.4829	0.3041	0.9824	0.04
Mof_H 	H 	0.7373	0.4712	0.9497	0.077
Mof_H 	H 	0.2454	0.9947	0.764	0.068
Mof_H 	H 	0.5478	0.8623	0.7557	0.072
Mof_H 	H 	0.3167	0.8568	0.5627	0.068
Mof_H 	H 	0.492	0.7679	0.5613	0.051
Mof_H 	H 	0.5705	0.7541	0.6441	0.05
Mof_H 	H 	0.7073	0.704	0.5701	0.075
Mof_H 	H 	0.0171	0.8041	0.5176	0.01
Mof_H 	H 	0.7627	0.9712	0.5503	0.074
Mof_H 	H 	0.7454	0.5053	0.264	0.057
Mof_H 	H 	0.0478	0.6377	0.2557	0.047
Mof_H 	H 	0.8167	0.6432	0.0627	0.067
Mof_H 	H 	0.992	0.7321	0.0613	0.075
Mof_H 	H 	0.0705	0.7459	0.1441	0.06
Mof_H 	H 	0.2073	0.796	0.0701	0.075
Mof_H 	H 	0.5171	0.6959	0.0176	0.03
Mof_H 	H 	0.2627	0.5288	0.0503	0.049
Mof_H 	H 	0.7546	0.0053	0.236	0.053
Mof_H 	H 	0.4522	0.1377	0.2443	0.066
Mof_H 	H 	0.6833	0.1432	0.4373	0.07
Mof_H 	H 	0.508	0.2321	0.4387	0.047
Mof_H 	H 	0.4295	0.2459	0.3559	0.044
Mof_H 	H 	0.2927	0.296	0.4299	0.082
Mof_H 	H 	0.9829	0.1959	0.4824	0.062
Mof_H 	H 	0.2373	0.0288	0.4497	0.052
Mof_C 	C 	0.3452	0.46327	0.8846	0.296
Mof_C 	C 	0.2345	0.43068	0.84303	-0.041
Mof_C 	C 	0.2036	0.4587	0.76439	-0.007
Mof_C 	C 	0.0974	0.43333	0.72785	-0.042
Mof_C 	C 	0.0246	0.37948	0.76961	-0.073
Mof_C 	C 	0.0549	0.35027	0.84704	0.027
Mof_C 	C 	0.1612	0.37629	0.88406	-0.041
Mof_C 	C 	0.0614	0.46167	0.64356	0.317
Mof_C 	C 	0.9698	0.29892	0.8915	0.031
Mof_C 	C 	0.7836	0.34097	0.9352	0.152
Mof_C 	C 	0.744	0.25337	0.93913	-0.082
Mof_C 	C 	0.6293	0.24109	0.95725	-0.058
Mof_C 	C 	0.5609	0.31377	0.9712	0.051
Mof_C 	C 	0.7093	0.41159	0.95152	-0.036
Mof_C 	C 	0.5821	0.14888	0.96552	0.355
Mof_C 	C 	0.1548	0.96327	0.6154	0.344
Mof_C 	C 	0.2655	0.93068	0.65697	-0.058
Mof_C 	C 	0.2964	0.9587	0.73561	0.018
Mof_C 	C 	0.4026	0.93333	0.77215	-0.066
Mof_C 	C 	0.4754	0.87948	0.73039	-0.03
Mof_C 	C 	0.4451	0.85027	0.65296	0.044
Mof_C 	C 	0.3388	0.87629	0.61594	-0.036
Mof_C 	C 	0.4386	0.96167	0.85644	0.383
Mof_C 	C 	0.5302	0.79892	0.6085	-0.029
Mof_C 	C 	0.7164	0.84097	0.5648	0.139
Mof_C 	C 	0.756	0.75337	0.56087	-0.067
Mof_C 	C 	0.8707	0.74109	0.54275	-0.085
Mof_C 	C 	0.9391	0.81377	0.5288	0.094
Mof_C 	C 	0.7907	0.91159	0.54848	-0.029
Mof_C 	C 	0.9179	0.64888	0.53448	0.388
Mof_C 	C 	0.6548	0.53673	0.1154	0.3
Mof_C 	C 	0.7655	0.56932	0.15697	-0.051
Mof_C 	C 	0.7964	0.5413	0.23561	0.011
Mof_C 	C 	0.9026	0.56667	0.27215	-0.077
Mof_C 	C 	0.9754	0.62052	0.23039	-0.006
Mof_C 	C 	0.9451	0.64973	0.15296	0.063
Mof_C 	C 	0.8388	0.62371	0.11594	-0.053
Mof_C 	C 	0.9386	0.53833	0.35644	0.378
Mof_C 	C 	0.0302	0.70108	0.1085	-0.088
Mof_C 	C 	0.2164	0.65903	0.0648	0.133
Mof_C 	C 	0.256	0.74663	0.06087	-0.081
Mof_C 	C 	0.3707	0.75891	0.04275	-0.069
Mof_C 	C 	0.4391	0.68623	0.0288	0.046
Mof_C 	C 	0.2907	0.58841	0.04848	-0.04
Mof_C 	C 	0.4179	0.85112	0.03448	0.355
Mof_C 	C 	0.8452	0.03673	0.3846	0.25
Mof_C 	C 	0.7345	0.06932	0.34303	-0.032
Mof_C 	C 	0.7036	0.0413	0.26439	-0.018
Mof_C 	C 	0.5974	0.06667	0.22785	-0.05
Mof_C 	C 	0.5246	0.12052	0.26961	-0.05
Mof_C 	C 	0.5549	0.14973	0.34704	0.047
Mof_C 	C 	0.6612	0.12371	0.38406	-0.059
Mof_C 	C 	0.5614	0.03833	0.14356	0.297
Mof_C 	C 	0.4698	0.20108	0.3915	-0.028
Mof_C 	C 	0.2836	0.15903	0.4352	0.146
Mof_C 	C 	0.244	0.24663	0.43913	-0.097
Mof_C 	C 	0.1293	0.25891	0.45725	-0.043
Mof_C 	C 	0.0609	0.18623	0.4712	-0.001
Mof_C 	C 	0.2093	0.08841	0.45152	-0.047
Mof_C 	C 	0.0821	0.35112	0.46552	0.32
Mof_N 	N 	0.60092	0.39788	0.96949	-0.176
Mof_N 	N 	0.89908	0.89788	0.53051	-0.182
Mof_N 	N 	0.39908	0.60212	0.03051	-0.193
Mof_N 	N 	0.10092	0.10212	0.46949	-0.186
Mof_O 	O 	0.36413	0.43605	0.95785	-0.359
Mof_O 	O 	0.4101	0.51411	0.85084	-0.283
Mof_O 	O 	0.95938	0.44263	0.61906	-0.38
Mof_O 	O 	0.13442	0.50216	0.60473	-0.394
Mof_O 	O 	0.89008	0.3665	0.91687	-0.196
Mof_O 	O 	0.4763	0.14515	0.97754	-0.39
Mof_O 	O 	0.6502	0.08518	0.96175	-0.401
Mof_O 	O 	0.13587	0.93605	0.54215	-0.377
Mof_O 	O 	0.0899	0.01411	0.64916	-0.338
Mof_O 	O 	0.54062	0.94263	0.88094	-0.393
Mof_O 	O 	0.36558	0.00216	0.89527	-0.418
Mof_O 	O 	0.60992	0.8665	0.58313	-0.19
Mof_O 	O 	0.0237	0.64515	0.52246	-0.425
Mof_O 	O 	0.8498	0.58518	0.53825	-0.407
Mof_O 	O 	0.63587	0.56395	0.04215	-0.392
Mof_O 	O 	0.5899	0.48589	0.14916	-0.303
Mof_O 	O 	0.04062	0.55737	0.38094	-0.423
Mof_O 	O 	0.86558	0.49784	0.39527	-0.406
Mof_O 	O 	0.10992	0.6335	0.08313	-0.198
Mof_O 	O 	0.5237	0.85485	0.02246	-0.414
Mof_O 	O 	0.3498	0.91482	0.03825	-0.396
Mof_O 	O 	0.86413	0.06395	0.45785	-0.37
Mof_O 	O 	0.9101	0.98589	0.35084	-0.244
Mof_O 	O 	0.45938	0.05737	0.11906	-0.412
Mof_O 	O 	0.63442	0.99784	0.10473	-0.368
Mof_O 	O 	0.39008	0.1335	0.41687	-0.205
Mof_O 	O 	0.9763	0.35485	0.47754	-0.384
Mof_O 	O 	0.1502	0.41482	0.46175	-0.397
_end
