data_functionalizedCrystal
_audit_creation_method	'EQeq! by Chris Wilmer'
_symmetry_space_group_name_H-M	'P1'
_symmetry_Int_Tables_number	1
_symmetry_cell_setting	triclinic
loop_
_symmetry_equiv_pos_as_xyz
  x,y,z
_cell_length_a	8.5692
_cell_length_b	8.5692
_cell_length_c	14.621
_cell_angle_alpha	90.687
_cell_angle_beta	90.687
_cell_angle_gamma	90.5248
loop_
_atom_site_label
_atom_site_type_symbol
_atom_site_fract_x
_atom_site_fract_y
_atom_site_fract_z
_atom_site_charge
Mof_Cd	Cd	0.49348	0.50652	0.75	0.27
Mof_Cd	Cd	0.50652	0.49348	0.25	0.264
Mof_Cd	Cd	-0	0.5	-0	0.317
Mof_Cd	Cd	0.5	0	0.5	0.339
Mof_H 	H 	0.09964	0.1867	0.95058	0.049
Mof_H 	H 	0.89203	0.18879	0.94639	0.071
Mof_H 	H 	0.9915	0.174	0.05344	0.052
Mof_H 	H 	0.8133	0.90036	0.54942	0.09
Mof_H 	H 	0.81121	0.10797	0.55361	0.069
Mof_H 	H 	0.826	0.0085	0.44656	0.065
Mof_H 	H 	0.90036	0.8133	0.04942	0.084
Mof_H 	H 	0.10797	0.81121	0.05361	0.065
Mof_H 	H 	0.0085	0.826	0.94656	0.082
Mof_H 	H 	0.1867	0.09964	0.45058	0.043
Mof_H 	H 	0.18879	0.89203	0.44639	0.066
Mof_H 	H 	0.174	0.9915	0.55344	0.069
Mof_C 	C 	0.2859	0.5071	0.8364	-0.011
Mof_C 	C 	0.4916	0.301	0.6586	-0.015
Mof_C 	C 	0.4929	0.7141	0.6636	-0.006
Mof_C 	C 	0.699	0.5084	0.8414	-0.003
Mof_C 	C 	0.7141	0.4929	0.1636	-0.012
Mof_C 	C 	0.5084	0.699	0.3414	-0.008
Mof_C 	C 	0.5071	0.2859	0.3364	-0.016
Mof_C 	C 	0.301	0.4916	0.1586	-0.02
Mof_N 	N 	0.1835	0.5115	0.8839	-0.132
Mof_N 	N 	0.1996	0.4902	0.1085	-0.142
Mof_N 	N 	0.9951	0.2255	0.9857	-0.18
Mof_N 	N 	0.4885	0.8165	0.6161	-0.128
Mof_N 	N 	0.5098	0.8004	0.3915	-0.128
Mof_N 	N 	0.7745	0.0049	0.5143	-0.229
Mof_N 	N 	0.8165	0.4885	0.1161	-0.131
Mof_N 	N 	0.8004	0.5098	0.8915	-0.121
Mof_N 	N 	0.0049	0.7745	0.0143	-0.239
Mof_N 	N 	0.5115	0.1835	0.3839	-0.139
Mof_N 	N 	0.4902	0.1996	0.6085	-0.14
Mof_N 	N 	0.2255	0.9951	0.4857	-0.195
_end
