data_functionalizedCrystal
_audit_creation_method	'EQeq! by Chris Wilmer'
_symmetry_space_group_name_H-M	'P1'
_symmetry_Int_Tables_number	1
_symmetry_cell_setting	triclinic
loop_
_symmetry_equiv_pos_as_xyz
  x,y,z
_cell_length_a	9.3755
_cell_length_b	7.4746
_cell_length_c	15.431
_cell_angle_alpha	90
_cell_angle_beta	100.119
_cell_angle_gamma	90
loop_
_atom_site_label
_atom_site_type_symbol
_atom_site_fract_x
_atom_site_fract_y
_atom_site_fract_z
_atom_site_charge
Mof_Mg	Mg	0.78015	0.46719	0.59849	1.477
Mof_P 	P 	0.65247	0.59715	0.77434	0.632
Mof_O 	O 	0.74348	0.6146	0.70399	-0.456
Mof_O 	O 	0.7154	0.4526	0.84425	-0.436
Mof_H 	H 	0.7271	0.3583	0.8192	0.302
Mof_O 	O 	0.63442	0.7639	0.82407	-0.45
Mof_O 	O 	0.5016	0.5246	0.72507	-0.462
Mof_H 	H 	0.4394	0.5433	0.7553	0.304
Mof_O 	O 	0.63731	0.6579	0.52095	-0.34
Mof_O 	O 	0.41185	0.6855	0.44644	-0.338
Mof_O 	O 	0.96788	0.6176	0.59181	-0.367
Mof_O 	O 	0.14943	0.6404	0.51497	-0.355
Mof_C 	C 	0.5143	0.5995	0.49047	0.245
Mof_C 	C 	0.0348	0.5757	0.53153	0.243
Mof_Mg	Mg	0.71985	0.96719	0.90151	1.475
Mof_P 	P 	0.84753	0.09715	0.72566	0.633
Mof_O 	O 	0.75652	0.1146	0.79601	-0.455
Mof_O 	O 	0.7846	0.9526	0.65575	-0.44
Mof_H 	H 	0.7729	0.8583	0.6808	0.301
Mof_O 	O 	0.86558	0.2639	0.67593	-0.448
Mof_O 	O 	0.9984	0.0246	0.77493	-0.45
Mof_H 	H 	0.0606	0.0433	0.7447	0.297
Mof_O 	O 	0.86269	0.1579	0.97905	-0.33
Mof_O 	O 	0.08815	0.1855	0.05356	-0.338
Mof_O 	O 	0.53212	0.1176	0.90819	-0.365
Mof_O 	O 	0.35057	0.1404	0.98503	-0.355
Mof_C 	C 	0.9857	0.0995	0.00953	0.234
Mof_C 	C 	0.4652	0.0757	0.96847	0.245
Mof_Mg	Mg	0.21985	0.53281	0.40151	1.476
Mof_P 	P 	0.34753	0.40285	0.22566	0.631
Mof_O 	O 	0.25652	0.3854	0.29601	-0.457
Mof_O 	O 	0.2846	0.5474	0.15575	-0.437
Mof_H 	H 	0.2729	0.6417	0.1808	0.301
Mof_O 	O 	0.36558	0.2361	0.17593	-0.451
Mof_O 	O 	0.4984	0.4754	0.27493	-0.462
Mof_H 	H 	0.5606	0.4567	0.2447	0.304
Mof_O 	O 	0.36269	0.3421	0.47905	-0.34
Mof_O 	O 	0.58815	0.3145	0.55356	-0.338
Mof_O 	O 	0.03212	0.3824	0.40819	-0.367
Mof_O 	O 	0.85057	0.3596	0.48503	-0.355
Mof_C 	C 	0.4857	0.4005	0.50953	0.245
Mof_C 	C 	0.9652	0.4243	0.46847	0.243
Mof_Mg	Mg	0.28015	0.03281	0.09849	1.475
Mof_P 	P 	0.15247	0.90285	0.27434	0.633
Mof_O 	O 	0.24348	0.8854	0.20399	-0.455
Mof_O 	O 	0.2154	0.0474	0.34425	-0.44
Mof_H 	H 	0.2271	0.1417	0.3192	0.301
Mof_O 	O 	0.13442	0.7361	0.32407	-0.448
Mof_O 	O 	0.0016	0.9754	0.22507	-0.45
Mof_H 	H 	0.9394	0.9567	0.2553	0.297
Mof_O 	O 	0.13731	0.8421	0.02095	-0.33
Mof_O 	O 	0.91185	0.8145	0.94644	-0.338
Mof_O 	O 	0.46788	0.8824	0.09181	-0.365
Mof_O 	O 	0.64943	0.8596	0.01497	-0.355
Mof_C 	C 	0.0143	0.9005	0.99047	0.234
Mof_C 	C 	0.5348	0.9243	0.03153	0.245
_end
