data_functionalizedCrystal
_audit_creation_method	'EQeq! by Chris Wilmer'
_symmetry_space_group_name_H-M	'P1'
_symmetry_Int_Tables_number	1
_symmetry_cell_setting	triclinic
loop_
_symmetry_equiv_pos_as_xyz
  x,y,z
_cell_length_a	10.0327
_cell_length_b	25.651
_cell_length_c	9.5121
_cell_angle_alpha	90
_cell_angle_beta	90
_cell_angle_gamma	90
loop_
_atom_site_label
_atom_site_type_symbol
_atom_site_fract_x
_atom_site_fract_y
_atom_site_fract_z
_atom_site_charge
Mof_Zn	Zn	0.39245	0.45186	0.07823	1.182
Mof_C 	C 	0.1391	0.4492	0.2448	0.12
Mof_H 	H 	0.104	0.4245	0.1836	-0.032
Mof_C 	C 	0.2678	0.5023	0.3398	0.107
Mof_H 	H 	0.3423	0.5225	0.3606	-0.049
Mof_C 	C 	0.3546	0.3485	0.1003	0.354
Mof_C 	C 	0.2854	0.2972	0.0721	-0.112
Mof_C 	C 	0.1639	0.2963	0.0057	0.052
Mof_H 	H 	0.1234	0.3276	0.981	0.026
Mof_N 	N 	0.2615	0.4691	0.2307	-0.297
Mof_N 	N 	0.0738	0.4674	0.351	-0.279
Mof_N 	N 	0.1568	0.50316	0.414	-0.272
Mof_O 	O 	0.3233	0.38481	0.0178	-0.484
Mof_O 	O 	0.433	0.3532	0.1985	-0.332
Mof_Zn	Zn	0.10755	0.54814	0.57823	1.181
Mof_C 	C 	0.3609	0.5508	0.7448	0.119
Mof_H 	H 	0.396	0.5755	0.6836	-0.033
Mof_C 	C 	0.2322	0.4977	0.8398	0.106
Mof_H 	H 	0.1577	0.4775	0.8606	-0.05
Mof_C 	C 	0.1454	0.6515	0.6003	0.353
Mof_C 	C 	0.2146	0.7028	0.5721	-0.114
Mof_C 	C 	0.3361	0.7037	0.5057	0.054
Mof_H 	H 	0.3766	0.6724	0.481	0.025
Mof_N 	N 	0.2385	0.5309	0.7307	-0.297
Mof_N 	N 	0.4262	0.5326	0.851	-0.279
Mof_N 	N 	0.3432	0.49684	0.914	-0.272
Mof_O 	O 	0.1767	0.61519	0.5178	-0.484
Mof_O 	O 	0.067	0.6468	0.6985	-0.332
Mof_Zn	Zn	0.60755	0.95186	0.92177	1.181
Mof_C 	C 	0.8609	0.9492	0.7552	0.119
Mof_H 	H 	0.896	0.9245	0.8164	-0.033
Mof_C 	C 	0.7322	0.0023	0.6602	0.106
Mof_H 	H 	0.6577	0.0225	0.6394	-0.05
Mof_C 	C 	0.6454	0.8485	0.8997	0.353
Mof_C 	C 	0.7146	0.7972	0.9279	-0.113
Mof_C 	C 	0.8361	0.7963	0.9943	0.051
Mof_H 	H 	0.8766	0.8276	0.019	0.026
Mof_N 	N 	0.7385	0.9691	0.7693	-0.297
Mof_N 	N 	0.9262	0.9674	0.649	-0.279
Mof_N 	N 	0.8432	0.00316	0.586	-0.272
Mof_O 	O 	0.6767	0.88481	0.9822	-0.484
Mof_O 	O 	0.567	0.8532	0.8015	-0.332
Mof_Zn	Zn	0.89245	0.04814	0.42177	1.181
Mof_C 	C 	0.6391	0.0508	0.2552	0.119
Mof_H 	H 	0.604	0.0755	0.3164	-0.033
Mof_C 	C 	0.7678	0.9977	0.1602	0.107
Mof_H 	H 	0.8423	0.9775	0.1394	-0.05
Mof_C 	C 	0.8546	0.1515	0.3997	0.353
Mof_C 	C 	0.7854	0.2028	0.4279	-0.114
Mof_C 	C 	0.6639	0.2037	0.4943	0.054
Mof_H 	H 	0.6234	0.1724	0.519	0.025
Mof_N 	N 	0.7615	0.0309	0.2693	-0.298
Mof_N 	N 	0.5738	0.0326	0.149	-0.28
Mof_N 	N 	0.6568	0.99684	0.086	-0.271
Mof_O 	O 	0.8233	0.11519	0.4822	-0.484
Mof_O 	O 	0.933	0.1468	0.3015	-0.332
Mof_Zn	Zn	0.60755	0.54814	0.92177	1.181
Mof_C 	C 	0.8609	0.5508	0.7552	0.119
Mof_H 	H 	0.896	0.5755	0.8164	-0.033
Mof_C 	C 	0.7322	0.4977	0.6602	0.106
Mof_H 	H 	0.6577	0.4775	0.6394	-0.05
Mof_C 	C 	0.6454	0.6515	0.8997	0.353
Mof_C 	C 	0.7146	0.7028	0.9279	-0.113
Mof_C 	C 	0.8361	0.7037	0.9943	0.051
Mof_H 	H 	0.8766	0.6724	0.019	0.026
Mof_N 	N 	0.7385	0.5309	0.7693	-0.297
Mof_N 	N 	0.9262	0.5326	0.649	-0.279
Mof_N 	N 	0.8432	0.49684	0.586	-0.272
Mof_O 	O 	0.6767	0.61519	0.9822	-0.484
Mof_O 	O 	0.567	0.6468	0.8015	-0.332
Mof_Zn	Zn	0.89245	0.45186	0.42177	1.181
Mof_C 	C 	0.6391	0.4492	0.2552	0.119
Mof_H 	H 	0.604	0.4245	0.3164	-0.033
Mof_C 	C 	0.7678	0.5023	0.1602	0.106
Mof_H 	H 	0.8423	0.5225	0.1394	-0.05
Mof_C 	C 	0.8546	0.3485	0.3997	0.353
Mof_C 	C 	0.7854	0.2972	0.4279	-0.114
Mof_C 	C 	0.6639	0.2963	0.4943	0.054
Mof_H 	H 	0.6234	0.3276	0.519	0.025
Mof_N 	N 	0.7615	0.4691	0.2693	-0.297
Mof_N 	N 	0.5738	0.4674	0.149	-0.279
Mof_N 	N 	0.6568	0.50316	0.086	-0.272
Mof_O 	O 	0.8233	0.38481	0.4822	-0.484
Mof_O 	O 	0.933	0.3532	0.3015	-0.332
Mof_Zn	Zn	0.39245	0.04814	0.07823	1.181
Mof_C 	C 	0.1391	0.0508	0.2448	0.119
Mof_H 	H 	0.104	0.0755	0.1836	-0.033
Mof_C 	C 	0.2678	0.9977	0.3398	0.106
Mof_H 	H 	0.3423	0.9775	0.3606	-0.05
Mof_C 	C 	0.3546	0.1515	0.1003	0.353
Mof_C 	C 	0.2854	0.2028	0.0721	-0.113
Mof_C 	C 	0.1639	0.2037	0.0057	0.051
Mof_H 	H 	0.1234	0.1724	0.981	0.026
Mof_N 	N 	0.2615	0.0309	0.2307	-0.297
Mof_N 	N 	0.0738	0.0326	0.351	-0.279
Mof_N 	N 	0.1568	0.99684	0.414	-0.272
Mof_O 	O 	0.3233	0.11519	0.0178	-0.484
Mof_O 	O 	0.433	0.1468	0.1985	-0.332
Mof_Zn	Zn	0.10755	0.95186	0.57823	1.181
Mof_C 	C 	0.3609	0.9492	0.7448	0.119
Mof_H 	H 	0.396	0.9245	0.6836	-0.033
Mof_C 	C 	0.2322	0.0023	0.8398	0.107
Mof_H 	H 	0.1577	0.0225	0.8606	-0.05
Mof_C 	C 	0.1454	0.8485	0.6003	0.353
Mof_C 	C 	0.2146	0.7972	0.5721	-0.114
Mof_C 	C 	0.3361	0.7963	0.5057	0.054
Mof_H 	H 	0.3766	0.8276	0.481	0.025
Mof_N 	N 	0.2385	0.9691	0.7307	-0.298
Mof_N 	N 	0.4262	0.9674	0.851	-0.28
Mof_N 	N 	0.3432	0.00316	0.914	-0.271
Mof_O 	O 	0.1767	0.88481	0.5178	-0.484
Mof_O 	O 	0.067	0.8532	0.6985	-0.332
Mof_C 	C 	0.3456	0.25	0.1085	0.048
Mof_H 	H 	0.4261	0.25	0.1571	0.038
Mof_C 	C 	0.1008	0.25	0.975	-0.114
Mof_H 	H 	0.0166	0.25	0.9341	0.074
Mof_C 	C 	0.1544	0.75	0.6085	0.05
Mof_H 	H 	0.0739	0.75	0.6571	0.037
Mof_C 	C 	0.3992	0.75	0.475	-0.118
Mof_H 	H 	0.4834	0.75	0.4341	0.075
Mof_C 	C 	0.6544	0.75	0.8915	0.048
Mof_H 	H 	0.5739	0.75	0.8429	0.038
Mof_C 	C 	0.8992	0.75	0.025	-0.114
Mof_H 	H 	0.9834	0.75	0.0659	0.074
Mof_C 	C 	0.8456	0.25	0.3915	0.05
Mof_H 	H 	0.9261	0.25	0.3429	0.037
Mof_C 	C 	0.6008	0.25	0.525	-0.118
Mof_H 	H 	0.5166	0.25	0.5659	0.075
_end
