data_functionalizedCrystal
_audit_creation_method	'EQeq! by Chris Wilmer'
_symmetry_space_group_name_H-M	'P1'
_symmetry_Int_Tables_number	1
_symmetry_cell_setting	triclinic
loop_
_symmetry_equiv_pos_as_xyz
  x,y,z
_cell_length_a	5.1601
_cell_length_b	25.075
_cell_length_c	14.986
_cell_angle_alpha	90
_cell_angle_beta	92.61
_cell_angle_gamma	90
loop_
_atom_site_label
_atom_site_type_symbol
_atom_site_fract_x
_atom_site_fract_y
_atom_site_fract_z
_atom_site_charge
Mof_Zn	Zn	0.35124	0.21944	0.6989	1.214
Mof_Zn	Zn	0.75148	0.20978	0.87726	1.221
Mof_Zn	Zn	0.84345	0.25596	0.5731	1.217
Mof_Zn	Zn	0.8091	0.04202	0.58568	1.236
Mof_Zn	Zn	0.15862	0.38402	0.75142	1.075
Mof_Zn	Zn	0.4142	0.38427	0.7563	1.087
Mof_P 	P 	0.3242	0.32527	0.57902	0.558
Mof_P 	P 	0.8526	0.15391	0.69447	0.538
Mof_P 	P 	0.2684	0.2798	0.87534	0.596
Mof_P 	P 	0.31	0.97525	0.61578	0.535
Mof_O 	O 	0.1317	0.16014	0.666	-0.478
Mof_O 	O 	0.7006	0.20523	0.6603	-0.663
Mof_O 	O 	0.398	0.23136	0.8274	-0.653
Mof_O 	O 	0.1931	0.27648	0.6243	-0.681
Mof_O 	O 	0.9789	0.27056	0.8804	-0.535
Mof_O 	O 	0.1982	0.33018	0.4857	-0.477
Mof_O 	O 	0.8393	0.15308	0.796	-0.476
Mof_O 	O 	0.406	0.28296	0.9671	-0.511
Mof_O 	O 	0.6143	0.31531	0.5773	-0.532
Mof_O 	O 	0.606	0.98265	0.6252	-0.46
Mof_O 	O 	0.1776	0.02901	0.5969	-0.474
Mof_O 	O 	0.7242	0.10522	0.654	-0.435
Mof_O 	O 	0.2508	0.93562	0.5393	-0.471
Mof_O 	O 	0.327	0.32947	0.8228	-0.683
Mof_O 	O 	0.2702	0.37565	0.6312	-0.592
Mof_O 	O 	0.2156	0.95177	0.7034	-0.595
Mof_O 	O 	0.7774	0.3865	0.7591	-0.56
Mof_Zn	Zn	0.14876	0.71944	0.8011	1.212
Mof_Zn	Zn	0.74852	0.70978	0.62274	1.224
Mof_Zn	Zn	0.65655	0.75596	0.9269	1.22
Mof_Zn	Zn	0.6909	0.54202	0.91432	1.238
Mof_Zn	Zn	0.34138	0.88402	0.74858	1.075
Mof_Zn	Zn	0.0858	0.88427	0.7437	1.086
Mof_P 	P 	0.1758	0.82527	0.92098	0.549
Mof_P 	P 	0.6474	0.65391	0.80553	0.543
Mof_P 	P 	0.2316	0.7798	0.62466	0.591
Mof_P 	P 	0.19	0.47525	0.88422	0.534
Mof_O 	O 	0.3683	0.66014	0.834	-0.487
Mof_O 	O 	0.7994	0.70523	0.8397	-0.659
Mof_O 	O 	0.102	0.73136	0.6726	-0.658
Mof_O 	O 	0.3069	0.77648	0.8757	-0.685
Mof_O 	O 	0.5211	0.77056	0.6196	-0.528
Mof_O 	O 	0.3018	0.83018	0.0143	-0.478
Mof_O 	O 	0.6607	0.65308	0.704	-0.474
Mof_O 	O 	0.094	0.78296	0.5329	-0.514
Mof_O 	O 	0.8857	0.81531	0.9227	-0.523
Mof_O 	O 	0.894	0.48265	0.8748	-0.46
Mof_O 	O 	0.3224	0.52901	0.9031	-0.478
Mof_O 	O 	0.7758	0.60522	0.846	-0.434
Mof_O 	O 	0.2492	0.43562	0.9607	-0.471
Mof_O 	O 	0.173	0.82947	0.6772	-0.685
Mof_O 	O 	0.2298	0.87565	0.8688	-0.593
Mof_O 	O 	0.2844	0.45177	0.7966	-0.595
Mof_O 	O 	0.7226	0.8865	0.7409	-0.554
Mof_Zn	Zn	0.64876	0.78056	0.3011	1.215
Mof_Zn	Zn	0.24852	0.79022	0.12274	1.222
Mof_Zn	Zn	0.15655	0.74404	0.4269	1.218
Mof_Zn	Zn	0.1909	0.95798	0.41432	1.237
Mof_Zn	Zn	0.84138	0.61598	0.24858	1.076
Mof_Zn	Zn	0.5858	0.61573	0.2437	1.088
Mof_P 	P 	0.6758	0.67473	0.42098	0.558
Mof_P 	P 	0.1474	0.84609	0.30553	0.538
Mof_P 	P 	0.7316	0.7202	0.12466	0.596
Mof_P 	P 	0.69	0.02475	0.38422	0.535
Mof_O 	O 	0.8683	0.83986	0.334	-0.478
Mof_O 	O 	0.2994	0.79477	0.3397	-0.663
Mof_O 	O 	0.602	0.76864	0.1726	-0.653
Mof_O 	O 	0.8069	0.72352	0.3757	-0.681
Mof_O 	O 	0.0211	0.72944	0.1196	-0.535
Mof_O 	O 	0.8018	0.66982	0.5143	-0.477
Mof_O 	O 	0.1607	0.84692	0.204	-0.476
Mof_O 	O 	0.594	0.71704	0.0329	-0.511
Mof_O 	O 	0.3857	0.68469	0.4227	-0.532
Mof_O 	O 	0.394	0.01735	0.3748	-0.46
Mof_O 	O 	0.8224	0.97099	0.4031	-0.474
Mof_O 	O 	0.2758	0.89478	0.346	-0.435
Mof_O 	O 	0.7492	0.06438	0.4607	-0.471
Mof_O 	O 	0.673	0.67053	0.1772	-0.683
Mof_O 	O 	0.7298	0.62435	0.3688	-0.592
Mof_O 	O 	0.7844	0.04823	0.2966	-0.595
Mof_O 	O 	0.2226	0.6135	0.2409	-0.56
Mof_Zn	Zn	0.85124	0.28056	0.1989	1.212
Mof_Zn	Zn	0.25148	0.29022	0.37726	1.224
Mof_Zn	Zn	0.34345	0.24404	0.0731	1.22
Mof_Zn	Zn	0.3091	0.45798	0.08568	1.238
Mof_Zn	Zn	0.65862	0.11598	0.25142	1.075
Mof_Zn	Zn	0.9142	0.11573	0.2563	1.086
Mof_P 	P 	0.8242	0.17473	0.07902	0.549
Mof_P 	P 	0.3526	0.34609	0.19447	0.543
Mof_P 	P 	0.7684	0.2202	0.37534	0.591
Mof_P 	P 	0.81	0.52475	0.11578	0.534
Mof_O 	O 	0.6317	0.33986	0.166	-0.487
Mof_O 	O 	0.2006	0.29477	0.1603	-0.659
Mof_O 	O 	0.898	0.26864	0.3274	-0.658
Mof_O 	O 	0.6931	0.22352	0.1243	-0.685
Mof_O 	O 	0.4789	0.22944	0.3804	-0.528
Mof_O 	O 	0.6982	0.16982	0.9857	-0.478
Mof_O 	O 	0.3393	0.34692	0.296	-0.474
Mof_O 	O 	0.906	0.21704	0.4671	-0.514
Mof_O 	O 	0.1143	0.18469	0.0773	-0.523
Mof_O 	O 	0.106	0.51735	0.1252	-0.46
Mof_O 	O 	0.6776	0.47099	0.0969	-0.478
Mof_O 	O 	0.2242	0.39478	0.154	-0.434
Mof_O 	O 	0.7508	0.56438	0.0393	-0.471
Mof_O 	O 	0.827	0.17053	0.3228	-0.685
Mof_O 	O 	0.7702	0.12435	0.1312	-0.593
Mof_O 	O 	0.7156	0.54823	0.2034	-0.595
Mof_O 	O 	0.2774	0.1135	0.2591	-0.554
_end
