data_functionalizedCrystal
_audit_creation_method	'EQeq! by Chris Wilmer'
_symmetry_space_group_name_H-M	'P1'
_symmetry_Int_Tables_number	1
_symmetry_cell_setting	triclinic
loop_
_symmetry_equiv_pos_as_xyz
  x,y,z
_cell_length_a	8.5989
_cell_length_b	17.044
_cell_length_c	10.165
_cell_angle_alpha	90
_cell_angle_beta	108.434
_cell_angle_gamma	90
loop_
_atom_site_label
_atom_site_type_symbol
_atom_site_fract_x
_atom_site_fract_y
_atom_site_fract_z
_atom_site_charge
Mof_Zn	Zn	0.10572	0.17166	0.92118	1.224
Mof_Zn	Zn	0.12258	0.83164	0.82182	1.225
Mof_P 	P 	0.24102	0.99648	0.99165	0.501
Mof_P 	P 	0.76414	0.24774	0.89456	0.427
Mof_P 	P 	0.22444	0.26095	0.71489	0.435
Mof_O 	O 	0.275	0.9569	0.1369	-0.449
Mof_H 	H 	0.2269	0.9147	0.1277	0.278
Mof_O 	O 	0.1878	0.9379	0.876	-0.455
Mof_O 	O 	0.1245	0.0638	0.9754	-0.449
Mof_O 	O 	0.8172	0.32653	0.8498	-0.414
Mof_O 	O 	0.8658	0.18014	0.8633	-0.494
Mof_O 	O 	0.773	0.2496	0.0467	-0.45
Mof_O 	O 	0.1138	0.32357	0.7437	-0.481
Mof_O 	O 	0.1881	0.17902	0.7627	-0.427
Mof_O 	O 	0.2157	0.2546	0.5633	-0.448
Mof_C 	C 	0.4374	0.033	0.997	-0.211
Mof_H 	H 	0.4254	0.065	0.9154	0.096
Mof_H 	H 	0.4793	0.0664	0.0778	0.09
Mof_C 	C 	0.5558	0.2288	0.7913	-0.211
Mof_H 	H 	0.5486	0.2306	0.6942	0.101
Mof_H 	H 	0.5268	0.1761	0.8111	0.105
Mof_C 	C 	0.4303	0.2861	0.815	-0.21
Mof_H 	H 	0.4546	0.3387	0.7902	0.106
Mof_H 	H 	0.4397	0.2863	0.9126	0.106
Mof_Zn	Zn	0.89428	0.67166	0.57882	1.226
Mof_Zn	Zn	0.87742	0.33164	0.67818	1.227
Mof_P 	P 	0.75898	0.49648	0.50835	0.509
Mof_P 	P 	0.23586	0.74774	0.60544	0.424
Mof_P 	P 	0.77556	0.76095	0.78511	0.435
Mof_O 	O 	0.725	0.4569	0.3631	-0.454
Mof_H 	H 	0.7731	0.4147	0.3723	0.278
Mof_O 	O 	0.8122	0.4379	0.624	-0.453
Mof_O 	O 	0.8755	0.5638	0.5246	-0.45
Mof_O 	O 	0.1828	0.82653	0.6502	-0.416
Mof_O 	O 	0.1342	0.68014	0.6367	-0.496
Mof_O 	O 	0.227	0.7496	0.4533	-0.447
Mof_O 	O 	0.8862	0.82357	0.7563	-0.478
Mof_O 	O 	0.8119	0.67902	0.7373	-0.426
Mof_O 	O 	0.7843	0.7546	0.9367	-0.447
Mof_C 	C 	0.5626	0.533	0.503	-0.216
Mof_H 	H 	0.5746	0.565	0.5846	0.097
Mof_H 	H 	0.5207	0.5664	0.4222	0.093
Mof_C 	C 	0.4442	0.7288	0.7087	-0.21
Mof_H 	H 	0.4514	0.7306	0.8058	0.101
Mof_H 	H 	0.4732	0.6761	0.6889	0.105
Mof_C 	C 	0.5697	0.7861	0.685	-0.21
Mof_H 	H 	0.5454	0.8387	0.7098	0.106
Mof_H 	H 	0.5603	0.7863	0.5874	0.106
Mof_Zn	Zn	0.89428	0.82834	0.07882	1.225
Mof_Zn	Zn	0.87742	0.16836	0.17818	1.226
Mof_P 	P 	0.75898	0.00352	0.00835	0.501
Mof_P 	P 	0.23586	0.75226	0.10544	0.427
Mof_P 	P 	0.77556	0.73905	0.28511	0.435
Mof_O 	O 	0.725	0.0431	0.8631	-0.449
Mof_H 	H 	0.7731	0.0853	0.8723	0.278
Mof_O 	O 	0.8122	0.0621	0.124	-0.455
Mof_O 	O 	0.8755	0.9362	0.0246	-0.449
Mof_O 	O 	0.1828	0.67347	0.1502	-0.414
Mof_O 	O 	0.1342	0.81986	0.1367	-0.494
Mof_O 	O 	0.227	0.7504	0.9533	-0.45
Mof_O 	O 	0.8862	0.67643	0.2563	-0.481
Mof_O 	O 	0.8119	0.82098	0.2373	-0.427
Mof_O 	O 	0.7843	0.7454	0.4367	-0.448
Mof_C 	C 	0.5626	0.967	0.003	-0.211
Mof_H 	H 	0.5746	0.935	0.0846	0.096
Mof_H 	H 	0.5207	0.9336	0.9222	0.09
Mof_C 	C 	0.4442	0.7712	0.2087	-0.211
Mof_H 	H 	0.4514	0.7694	0.3058	0.101
Mof_H 	H 	0.4732	0.8239	0.1889	0.105
Mof_C 	C 	0.5697	0.7139	0.185	-0.21
Mof_H 	H 	0.5454	0.6613	0.2098	0.106
Mof_H 	H 	0.5603	0.7137	0.0874	0.106
Mof_Zn	Zn	0.10572	0.32834	0.42118	1.226
Mof_Zn	Zn	0.12258	0.66836	0.32182	1.227
Mof_P 	P 	0.24102	0.50352	0.49165	0.509
Mof_P 	P 	0.76414	0.25226	0.39456	0.424
Mof_P 	P 	0.22444	0.23905	0.21489	0.435
Mof_O 	O 	0.275	0.5431	0.6369	-0.454
Mof_H 	H 	0.2269	0.5853	0.6277	0.278
Mof_O 	O 	0.1878	0.5621	0.376	-0.453
Mof_O 	O 	0.1245	0.4362	0.4754	-0.45
Mof_O 	O 	0.8172	0.17347	0.3498	-0.416
Mof_O 	O 	0.8658	0.31986	0.3633	-0.496
Mof_O 	O 	0.773	0.2504	0.5467	-0.447
Mof_O 	O 	0.1138	0.17643	0.2437	-0.478
Mof_O 	O 	0.1881	0.32098	0.2627	-0.426
Mof_O 	O 	0.2157	0.2454	0.0633	-0.447
Mof_C 	C 	0.4374	0.467	0.497	-0.216
Mof_H 	H 	0.4254	0.435	0.4154	0.097
Mof_H 	H 	0.4793	0.4336	0.5778	0.093
Mof_C 	C 	0.5558	0.2712	0.2913	-0.21
Mof_H 	H 	0.5486	0.2694	0.1942	0.101
Mof_H 	H 	0.5268	0.3239	0.3111	0.105
Mof_C 	C 	0.4303	0.2139	0.315	-0.21
Mof_H 	H 	0.4546	0.1613	0.2902	0.106
Mof_H 	H 	0.4397	0.2137	0.4126	0.106
_end
