data_functionalizedCrystal
_audit_creation_method	'EQeq! by Chris Wilmer'
_symmetry_space_group_name_H-M	'P1'
_symmetry_Int_Tables_number	1
_symmetry_cell_setting	triclinic
loop_
_symmetry_equiv_pos_as_xyz
  x,y,z
_cell_length_a	27.005
_cell_length_b	18.564
_cell_length_c	36.389
_cell_angle_alpha	90
_cell_angle_beta	98.848
_cell_angle_gamma	90
loop_
_atom_site_label
_atom_site_type_symbol
_atom_site_fract_x
_atom_site_fract_y
_atom_site_fract_z
_atom_site_charge
Mof_Fe	Fe	0.23886	0.09177	0.2015	0.965
Mof_Fe	Fe	0.29651	0.14902	0.13329	0.959
Mof_Fe	Fe	0.19052	0.2239	0.14685	0.981
Mof_O 	O 	0.31175	0.10645	0.22492	-0.405
Mof_O 	O 	0.34884	0.15148	0.17945	-0.401
Mof_O 	O 	0.69497	0.75712	0.37106	-0.397
Mof_O 	O 	0.76343	0.80742	0.35516	-0.406
Mof_O 	O 	0.69661	0.5389	0.36717	-0.399
Mof_O 	O 	0.74107	0.50245	0.32468	-0.41
Mof_O 	O 	0.16591	0.0636	0.1847	-0.396
Mof_O 	O 	0.13409	0.15207	0.14703	-0.401
Mof_O 	O 	0.81642	0.75488	0.30075	-0.395
Mof_O 	O 	0.78198	0.66665	0.26399	-0.405
Mof_O 	O 	0.81395	0.79366	0.90824	-0.402
Mof_O 	O 	0.74736	0.85702	0.9176	-0.388
Mof_O 	O 	0.24164	0.15525	0.16039	-0.541
Mof_N 	N 	0.53913	0.277	0.30815	-0.288
Mof_H 	H 	0.5539	0.3186	0.3142	0.14
Mof_H 	H 	0.508	0.2761	0.2966	0.14
Mof_N 	N 	0.94854	0.9497	0.05866	-0.283
Mof_H 	H 	0.9766	0.9743	0.0638	0.137
Mof_H 	H 	0.9347	0.9434	0.0354	0.138
Mof_C 	C 	0.34819	0.12996	0.21219	0.431
Mof_C 	C 	0.39689	0.13548	0.23797	-0.168
Mof_C 	C 	0.40347	0.10541	0.27215	0.092
Mof_H 	H 	0.3763	0.0812	0.2806	0.013
Mof_C 	C 	0.45	0.1095	0.29538	-0.163
Mof_H 	H 	0.4538	0.0877	0.3193	0.086
Mof_C 	C 	0.48978	0.14385	0.28454	0.113
Mof_C 	C 	0.48259	0.1767	0.25029	-0.161
Mof_H 	H 	0.5093	0.2032	0.2426	0.085
Mof_C 	C 	0.43665	0.1719	0.22655	0.084
Mof_H 	H 	0.4328	0.1935	0.2026	0.016
Mof_C 	C 	0.54131	0.14574	0.30764	-0.077
Mof_C 	C 	0.56601	0.08175	0.31746	-0.021
Mof_H 	H 	0.5496	0.0371	0.3114	0.038
Mof_C 	C 	0.61551	0.08256	0.3365	-0.034
Mof_C 	C 	0.63845	0.14953	0.34475	-0.011
Mof_H 	H 	0.6719	0.1508	0.3575	0.035
Mof_C 	C 	0.61455	0.21278	0.33509	-0.095
Mof_C 	C 	0.56558	0.21156	0.31696	0.115
Mof_C 	C 	0.64163	0.0138	0.34538	0.086
Mof_C 	C 	0.61776	0.9524	0.3551	-0.141
Mof_H 	H 	0.5832	0.9548	0.3574	0.077
Mof_C 	C 	0.64278	0.88769	0.36152	0.077
Mof_H 	H 	0.6253	0.8472	0.3691	0.018
Mof_C 	C 	0.69184	0.8803	0.35728	-0.15
Mof_C 	C 	0.7169	0.9418	0.34812	0.067
Mof_H 	H 	0.7514	0.9391	0.3457	0.023
Mof_C 	C 	0.69162	0.0073	0.34245	-0.135
Mof_H 	H 	0.7094	0.0487	0.3364	0.076
Mof_C 	C 	0.71947	0.8096	0.36154	0.422
Mof_C 	C 	0.64112	0.28367	0.34192	0.156
Mof_C 	C 	0.68088	0.29786	0.32459	-0.202
Mof_H 	H 	0.6933	0.261	0.3103	0.099
Mof_C 	C 	0.70435	0.36557	0.3271	0.135
Mof_H 	H 	0.7316	0.3737	0.314	-0.001
Mof_C 	C 	0.68938	0.41892	0.34743	-0.219
Mof_C 	C 	0.65168	0.40227	0.3665	0.142
Mof_H 	H 	0.6412	0.4373	0.3827	-0.004
Mof_C 	C 	0.62783	0.3364	0.36331	-0.217
Mof_H 	H 	0.6009	0.3283	0.3768	0.102
Mof_C 	C 	0.71057	0.49194	0.34626	0.452
Mof_C 	C 	0.13143	0.0923	0.16265	0.424
Mof_C 	C 	0.08397	0.0511	0.15306	-0.168
Mof_C 	C 	0.04479	0.0798	0.12974	0.089
Mof_H 	H 	0.0472	0.127	0.1201	0.013
Mof_C 	C 	0.00118	0.04	0.11994	-0.16
Mof_H 	H 	0.9746	0.0598	0.1028	0.082
Mof_C 	C 	0.99564	0.9722	0.13453	0.107
Mof_C 	C 	0.03575	0.944	0.15867	-0.156
Mof_H 	H 	0.0333	0.8973	0.1689	0.085
Mof_C 	C 	0.07965	0.984	0.16789	0.086
Mof_H 	H 	0.1068	0.9645	0.1846	0.017
Mof_C 	C 	0.94769	0.93034	0.12512	-0.072
Mof_C 	C 	0.92589	0.89898	0.15298	-0.021
Mof_H 	H 	0.942	0.905	0.1779	0.038
Mof_C 	C 	0.88191	0.8591	0.14703	-0.036
Mof_C 	C 	0.86004	0.85004	0.10959	-0.019
Mof_H 	H 	0.8298	0.8233	0.1042	0.038
Mof_C 	C 	0.88129	0.87898	0.0802	-0.08
Mof_C 	C 	0.92493	0.9195	0.08871	0.103
Mof_C 	C 	0.86073	0.8252	0.17742	0.099
Mof_C 	C 	0.83834	0.7606	0.17445	-0.153
Mof_H 	H 	0.8354	0.7361	0.1513	0.082
Mof_C 	C 	0.81921	0.7279	0.20362	0.084
Mof_H 	H 	0.8033	0.6822	0.2001	0.015
Mof_C 	C 	0.82332	0.7619	0.23767	-0.165
Mof_C 	C 	0.84533	0.827	0.24121	0.09
Mof_H 	H 	0.8489	0.8511	0.2645	0.015
Mof_C 	C 	0.86289	0.8597	0.21141	-0.152
Mof_H 	H 	0.8767	0.9068	0.2144	0.082
Mof_C 	C 	0.80587	0.7237	0.26958	0.423
Mof_C 	C 	0.85747	0.86655	0.041	0.129
Mof_C 	C 	0.88135	0.831	0.01636	-0.184
Mof_H 	H 	0.9143	0.8137	0.0246	0.092
Mof_C 	C 	0.86054	0.81865	0.98005	0.11
Mof_H 	H 	0.879	0.7938	0.9638	0.006
Mof_C 	C 	0.81281	0.84247	0.96751	-0.187
Mof_C 	C 	0.78811	0.87952	0.99138	0.108
Mof_H 	H 	0.7554	0.8976	0.9829	0.01
Mof_C 	C 	0.81019	0.89132	0.02806	-0.176
Mof_H 	H 	0.7922	0.9169	0.0444	0.092
Mof_C 	C 	0.79007	0.82976	0.92876	0.426
Mof_Fe	Fe	0.76114	0.59177	0.2985	0.964
Mof_Fe	Fe	0.70349	0.64902	0.36671	0.958
Mof_Fe	Fe	0.80948	0.7239	0.35315	0.98
Mof_O 	O 	0.68825	0.60645	0.27508	-0.406
Mof_O 	O 	0.65116	0.65148	0.32055	-0.401
Mof_O 	O 	0.30503	0.25712	0.12894	-0.397
Mof_O 	O 	0.23657	0.30742	0.14484	-0.406
Mof_O 	O 	0.30339	0.0389	0.13283	-0.399
Mof_O 	O 	0.25893	0.00245	0.17532	-0.409
Mof_O 	O 	0.83409	0.5636	0.3153	-0.396
Mof_O 	O 	0.86591	0.65207	0.35297	-0.401
Mof_O 	O 	0.18358	0.25488	0.19925	-0.395
Mof_O 	O 	0.21802	0.16665	0.23601	-0.405
Mof_O 	O 	0.18605	0.29366	0.59176	-0.402
Mof_O 	O 	0.25264	0.35702	0.5824	-0.388
Mof_O 	O 	0.75836	0.65525	0.33961	-0.541
Mof_N 	N 	0.46087	0.777	0.19185	-0.288
Mof_H 	H 	0.4461	0.8186	0.1858	0.14
Mof_H 	H 	0.492	0.7761	0.2034	0.14
Mof_N 	N 	0.05146	0.4497	0.44134	-0.283
Mof_H 	H 	0.0234	0.4743	0.4362	0.137
Mof_H 	H 	0.0653	0.4434	0.4646	0.138
Mof_C 	C 	0.65181	0.62996	0.28781	0.431
Mof_C 	C 	0.60311	0.63548	0.26203	-0.168
Mof_C 	C 	0.59653	0.60541	0.22785	0.092
Mof_H 	H 	0.6237	0.5812	0.2194	0.013
Mof_C 	C 	0.55	0.6095	0.20462	-0.163
Mof_H 	H 	0.5462	0.5877	0.1807	0.086
Mof_C 	C 	0.51022	0.64385	0.21546	0.113
Mof_C 	C 	0.51741	0.6767	0.24971	-0.161
Mof_H 	H 	0.4907	0.7032	0.2574	0.085
Mof_C 	C 	0.56335	0.6719	0.27345	0.084
Mof_H 	H 	0.5672	0.6935	0.2974	0.016
Mof_C 	C 	0.45869	0.64574	0.19236	-0.077
Mof_C 	C 	0.43399	0.58175	0.18254	-0.021
Mof_H 	H 	0.4504	0.5371	0.1886	0.038
Mof_C 	C 	0.38449	0.58256	0.1635	-0.034
Mof_C 	C 	0.36155	0.64953	0.15525	-0.011
Mof_H 	H 	0.3281	0.6508	0.1425	0.035
Mof_C 	C 	0.38545	0.71278	0.16491	-0.095
Mof_C 	C 	0.43442	0.71156	0.18304	0.115
Mof_C 	C 	0.35837	0.5138	0.15462	0.086
Mof_C 	C 	0.38224	0.4524	0.1449	-0.141
Mof_H 	H 	0.4168	0.4548	0.1426	0.077
Mof_C 	C 	0.35722	0.38769	0.13848	0.077
Mof_H 	H 	0.3747	0.3472	0.1309	0.018
Mof_C 	C 	0.30816	0.3803	0.14272	-0.15
Mof_C 	C 	0.2831	0.4418	0.15188	0.067
Mof_H 	H 	0.2486	0.4391	0.1543	0.023
Mof_C 	C 	0.30838	0.5073	0.15755	-0.135
Mof_H 	H 	0.2906	0.5487	0.1636	0.076
Mof_C 	C 	0.28053	0.3096	0.13846	0.422
Mof_C 	C 	0.35888	0.78367	0.15808	0.156
Mof_C 	C 	0.31912	0.79786	0.17541	-0.202
Mof_H 	H 	0.3067	0.761	0.1897	0.099
Mof_C 	C 	0.29565	0.86557	0.1729	0.135
Mof_H 	H 	0.2684	0.8737	0.186	-0.001
Mof_C 	C 	0.31062	0.91892	0.15257	-0.218
Mof_C 	C 	0.34832	0.90227	0.1335	0.142
Mof_H 	H 	0.3588	0.9373	0.1173	-0.004
Mof_C 	C 	0.37217	0.8364	0.13669	-0.216
Mof_H 	H 	0.3991	0.8283	0.1232	0.102
Mof_C 	C 	0.28943	0.99194	0.15374	0.451
Mof_C 	C 	0.86857	0.5923	0.33735	0.425
Mof_C 	C 	0.91603	0.5511	0.34694	-0.169
Mof_C 	C 	0.95521	0.5798	0.37026	0.091
Mof_H 	H 	0.9528	0.627	0.3799	0.013
Mof_C 	C 	0.99882	0.54	0.38006	-0.162
Mof_H 	H 	0.0254	0.5598	0.3972	0.083
Mof_C 	C 	0.00436	0.4722	0.36547	0.108
Mof_C 	C 	0.96425	0.444	0.34133	-0.156
Mof_H 	H 	0.9667	0.3973	0.3311	0.085
Mof_C 	C 	0.92035	0.484	0.33211	0.088
Mof_H 	H 	0.8932	0.4645	0.3154	0.016
Mof_C 	C 	0.05231	0.43034	0.37488	-0.073
Mof_C 	C 	0.07411	0.39898	0.34702	-0.02
Mof_H 	H 	0.058	0.405	0.3221	0.038
Mof_C 	C 	0.11809	0.3591	0.35297	-0.036
Mof_C 	C 	0.13996	0.35004	0.39041	-0.019
Mof_H 	H 	0.1702	0.3233	0.3958	0.038
Mof_C 	C 	0.11871	0.37898	0.4198	-0.08
Mof_C 	C 	0.07507	0.4195	0.41129	0.104
Mof_C 	C 	0.13927	0.3252	0.32258	0.099
Mof_C 	C 	0.16166	0.2606	0.32555	-0.153
Mof_H 	H 	0.1646	0.2361	0.3487	0.083
Mof_C 	C 	0.18079	0.2279	0.29638	0.084
Mof_H 	H 	0.1967	0.1822	0.2999	0.015
Mof_C 	C 	0.17668	0.2619	0.26233	-0.165
Mof_C 	C 	0.15467	0.327	0.25879	0.09
Mof_H 	H 	0.1511	0.3511	0.2355	0.015
Mof_C 	C 	0.13711	0.3597	0.28859	-0.152
Mof_H 	H 	0.1233	0.4068	0.2856	0.082
Mof_C 	C 	0.19413	0.2237	0.23042	0.423
Mof_C 	C 	0.14253	0.36655	0.459	0.129
Mof_C 	C 	0.11865	0.331	0.48364	-0.184
Mof_H 	H 	0.0857	0.3137	0.4754	0.092
Mof_C 	C 	0.13946	0.31865	0.51995	0.11
Mof_H 	H 	0.121	0.2938	0.5362	0.006
Mof_C 	C 	0.18719	0.34247	0.53249	-0.187
Mof_C 	C 	0.21189	0.37952	0.50862	0.107
Mof_H 	H 	0.2446	0.3976	0.5171	0.01
Mof_C 	C 	0.18981	0.39132	0.47194	-0.176
Mof_H 	H 	0.2078	0.4169	0.4556	0.092
Mof_C 	C 	0.20993	0.32976	0.57124	0.426
Mof_Fe	Fe	0.76114	0.90823	0.7985	0.964
Mof_Fe	Fe	0.70349	0.85098	0.86671	0.958
Mof_Fe	Fe	0.80948	0.7761	0.85315	0.98
Mof_O 	O 	0.68825	0.89355	0.77508	-0.406
Mof_O 	O 	0.65116	0.84852	0.82055	-0.401
Mof_O 	O 	0.30503	0.24288	0.62894	-0.397
Mof_O 	O 	0.23657	0.19258	0.64484	-0.406
Mof_O 	O 	0.30339	0.4611	0.63283	-0.399
Mof_O 	O 	0.25893	0.49755	0.67532	-0.41
Mof_O 	O 	0.83409	0.9364	0.8153	-0.396
Mof_O 	O 	0.86591	0.84793	0.85297	-0.401
Mof_O 	O 	0.18358	0.24512	0.69925	-0.395
Mof_O 	O 	0.21802	0.33335	0.73601	-0.405
Mof_O 	O 	0.18605	0.20634	0.09176	-0.402
Mof_O 	O 	0.25264	0.14298	0.0824	-0.388
Mof_O 	O 	0.75836	0.84475	0.83961	-0.541
Mof_N 	N 	0.46087	0.723	0.69185	-0.288
Mof_H 	H 	0.4461	0.6814	0.6858	0.14
Mof_H 	H 	0.492	0.7239	0.7034	0.14
Mof_N 	N 	0.05146	0.0503	0.94134	-0.283
Mof_H 	H 	0.0234	0.0257	0.9362	0.137
Mof_H 	H 	0.0653	0.0566	0.9646	0.138
Mof_C 	C 	0.65181	0.87004	0.78781	0.431
Mof_C 	C 	0.60311	0.86452	0.76203	-0.168
Mof_C 	C 	0.59653	0.89459	0.72785	0.092
Mof_H 	H 	0.6237	0.9188	0.7194	0.013
Mof_C 	C 	0.55	0.8905	0.70462	-0.163
Mof_H 	H 	0.5462	0.9123	0.6807	0.086
Mof_C 	C 	0.51022	0.85615	0.71546	0.113
Mof_C 	C 	0.51741	0.8233	0.74971	-0.161
Mof_H 	H 	0.4907	0.7968	0.7574	0.085
Mof_C 	C 	0.56335	0.8281	0.77345	0.084
Mof_H 	H 	0.5672	0.8065	0.7974	0.016
Mof_C 	C 	0.45869	0.85426	0.69236	-0.077
Mof_C 	C 	0.43399	0.91825	0.68254	-0.021
Mof_H 	H 	0.4504	0.9629	0.6886	0.038
Mof_C 	C 	0.38449	0.91744	0.6635	-0.034
Mof_C 	C 	0.36155	0.85047	0.65525	-0.011
Mof_H 	H 	0.3281	0.8492	0.6425	0.035
Mof_C 	C 	0.38545	0.78722	0.66491	-0.095
Mof_C 	C 	0.43442	0.78844	0.68304	0.115
Mof_C 	C 	0.35837	0.9862	0.65462	0.086
Mof_C 	C 	0.38224	0.0476	0.6449	-0.141
Mof_H 	H 	0.4168	0.0452	0.6426	0.077
Mof_C 	C 	0.35722	0.11231	0.63848	0.077
Mof_H 	H 	0.3747	0.1528	0.6309	0.018
Mof_C 	C 	0.30816	0.1197	0.64272	-0.15
Mof_C 	C 	0.2831	0.0582	0.65188	0.067
Mof_H 	H 	0.2486	0.0609	0.6543	0.023
Mof_C 	C 	0.30838	0.9927	0.65755	-0.135
Mof_H 	H 	0.2906	0.9513	0.6636	0.076
Mof_C 	C 	0.28053	0.1904	0.63846	0.422
Mof_C 	C 	0.35888	0.71633	0.65808	0.156
Mof_C 	C 	0.31912	0.70214	0.67541	-0.202
Mof_H 	H 	0.3067	0.739	0.6897	0.099
Mof_C 	C 	0.29565	0.63443	0.6729	0.135
Mof_H 	H 	0.2684	0.6263	0.686	-0.001
Mof_C 	C 	0.31062	0.58108	0.65257	-0.219
Mof_C 	C 	0.34832	0.59773	0.6335	0.142
Mof_H 	H 	0.3588	0.5627	0.6173	-0.004
Mof_C 	C 	0.37217	0.6636	0.63669	-0.217
Mof_H 	H 	0.3991	0.6717	0.6232	0.102
Mof_C 	C 	0.28943	0.50806	0.65374	0.452
Mof_C 	C 	0.86857	0.9077	0.83735	0.424
Mof_C 	C 	0.91603	0.9489	0.84694	-0.168
Mof_C 	C 	0.95521	0.9202	0.87026	0.089
Mof_H 	H 	0.9528	0.873	0.8799	0.013
Mof_C 	C 	0.99882	0.96	0.88006	-0.16
Mof_H 	H 	0.0254	0.9402	0.8972	0.082
Mof_C 	C 	0.00436	0.0278	0.86547	0.107
Mof_C 	C 	0.96425	0.056	0.84133	-0.156
Mof_H 	H 	0.9667	0.1027	0.8311	0.085
Mof_C 	C 	0.92035	0.016	0.83211	0.086
Mof_H 	H 	0.8932	0.0355	0.8154	0.017
Mof_C 	C 	0.05231	0.06966	0.87488	-0.072
Mof_C 	C 	0.07411	0.10102	0.84702	-0.021
Mof_H 	H 	0.058	0.095	0.8221	0.038
Mof_C 	C 	0.11809	0.1409	0.85297	-0.036
Mof_C 	C 	0.13996	0.14996	0.89041	-0.019
Mof_H 	H 	0.1702	0.1767	0.8958	0.038
Mof_C 	C 	0.11871	0.12102	0.9198	-0.08
Mof_C 	C 	0.07507	0.0805	0.91129	0.103
Mof_C 	C 	0.13927	0.1748	0.82258	0.099
Mof_C 	C 	0.16166	0.2394	0.82555	-0.153
Mof_H 	H 	0.1646	0.2639	0.8487	0.082
Mof_C 	C 	0.18079	0.2721	0.79638	0.084
Mof_H 	H 	0.1967	0.3178	0.7999	0.015
Mof_C 	C 	0.17668	0.2381	0.76233	-0.165
Mof_C 	C 	0.15467	0.173	0.75879	0.09
Mof_H 	H 	0.1511	0.1489	0.7355	0.015
Mof_C 	C 	0.13711	0.1403	0.78859	-0.152
Mof_H 	H 	0.1233	0.0932	0.7856	0.082
Mof_C 	C 	0.19413	0.2763	0.73042	0.423
Mof_C 	C 	0.14253	0.13345	0.959	0.129
Mof_C 	C 	0.11865	0.169	0.98364	-0.184
Mof_H 	H 	0.0857	0.1863	0.9754	0.092
Mof_C 	C 	0.13946	0.18135	0.01995	0.11
Mof_H 	H 	0.121	0.2062	0.0362	0.006
Mof_C 	C 	0.18719	0.15753	0.03249	-0.187
Mof_C 	C 	0.21189	0.12048	0.00862	0.108
Mof_H 	H 	0.2446	0.1024	0.0171	0.01
Mof_C 	C 	0.18981	0.10868	0.97194	-0.176
Mof_H 	H 	0.2078	0.0831	0.9556	0.092
Mof_C 	C 	0.20993	0.17024	0.07124	0.426
Mof_Fe	Fe	0.23886	0.40823	0.7015	0.964
Mof_Fe	Fe	0.29651	0.35098	0.63329	0.958
Mof_Fe	Fe	0.19052	0.2761	0.64685	0.98
Mof_O 	O 	0.31175	0.39355	0.72492	-0.406
Mof_O 	O 	0.34884	0.34852	0.67945	-0.401
Mof_O 	O 	0.69497	0.74288	0.87106	-0.397
Mof_O 	O 	0.76343	0.69258	0.85516	-0.406
Mof_O 	O 	0.69661	0.9611	0.86717	-0.399
Mof_O 	O 	0.74107	0.99755	0.82468	-0.409
Mof_O 	O 	0.16591	0.4364	0.6847	-0.396
Mof_O 	O 	0.13409	0.34793	0.64703	-0.401
Mof_O 	O 	0.81642	0.74512	0.80075	-0.395
Mof_O 	O 	0.78198	0.83335	0.76399	-0.405
Mof_O 	O 	0.81395	0.70634	0.40824	-0.402
Mof_O 	O 	0.74736	0.64298	0.4176	-0.388
Mof_O 	O 	0.24164	0.34475	0.66039	-0.541
Mof_N 	N 	0.53913	0.223	0.80815	-0.288
Mof_H 	H 	0.5539	0.1814	0.8142	0.14
Mof_H 	H 	0.508	0.2239	0.7966	0.14
Mof_N 	N 	0.94854	0.5503	0.55866	-0.283
Mof_H 	H 	0.9766	0.5257	0.5638	0.137
Mof_H 	H 	0.9347	0.5566	0.5354	0.138
Mof_C 	C 	0.34819	0.37004	0.71219	0.431
Mof_C 	C 	0.39689	0.36452	0.73797	-0.168
Mof_C 	C 	0.40347	0.39459	0.77215	0.092
Mof_H 	H 	0.3763	0.4188	0.7806	0.013
Mof_C 	C 	0.45	0.3905	0.79538	-0.163
Mof_H 	H 	0.4538	0.4123	0.8193	0.086
Mof_C 	C 	0.48978	0.35615	0.78454	0.113
Mof_C 	C 	0.48259	0.3233	0.75029	-0.161
Mof_H 	H 	0.5093	0.2968	0.7426	0.085
Mof_C 	C 	0.43665	0.3281	0.72655	0.084
Mof_H 	H 	0.4328	0.3065	0.7026	0.016
Mof_C 	C 	0.54131	0.35426	0.80764	-0.077
Mof_C 	C 	0.56601	0.41825	0.81746	-0.021
Mof_H 	H 	0.5496	0.4629	0.8114	0.038
Mof_C 	C 	0.61551	0.41744	0.8365	-0.034
Mof_C 	C 	0.63845	0.35047	0.84475	-0.011
Mof_H 	H 	0.6719	0.3492	0.8575	0.035
Mof_C 	C 	0.61455	0.28722	0.83509	-0.095
Mof_C 	C 	0.56558	0.28844	0.81696	0.115
Mof_C 	C 	0.64163	0.4862	0.84538	0.086
Mof_C 	C 	0.61776	0.5476	0.8551	-0.141
Mof_H 	H 	0.5832	0.5452	0.8574	0.077
Mof_C 	C 	0.64278	0.61231	0.86152	0.077
Mof_H 	H 	0.6253	0.6528	0.8691	0.018
Mof_C 	C 	0.69184	0.6197	0.85728	-0.15
Mof_C 	C 	0.7169	0.5582	0.84812	0.067
Mof_H 	H 	0.7514	0.5609	0.8457	0.023
Mof_C 	C 	0.69162	0.4927	0.84245	-0.135
Mof_H 	H 	0.7094	0.4513	0.8364	0.076
Mof_C 	C 	0.71947	0.6904	0.86154	0.422
Mof_C 	C 	0.64112	0.21633	0.84192	0.156
Mof_C 	C 	0.68088	0.20214	0.82459	-0.202
Mof_H 	H 	0.6933	0.239	0.8103	0.099
Mof_C 	C 	0.70435	0.13443	0.8271	0.135
Mof_H 	H 	0.7316	0.1263	0.814	-0.001
Mof_C 	C 	0.68938	0.08108	0.84743	-0.218
Mof_C 	C 	0.65168	0.09773	0.8665	0.142
Mof_H 	H 	0.6412	0.0627	0.8827	-0.004
Mof_C 	C 	0.62783	0.1636	0.86331	-0.216
Mof_H 	H 	0.6009	0.1717	0.8768	0.102
Mof_C 	C 	0.71057	0.00806	0.84626	0.451
Mof_C 	C 	0.13143	0.4077	0.66265	0.425
Mof_C 	C 	0.08397	0.4489	0.65306	-0.169
Mof_C 	C 	0.04479	0.4202	0.62974	0.091
Mof_H 	H 	0.0472	0.373	0.6201	0.013
Mof_C 	C 	0.00118	0.46	0.61994	-0.162
Mof_H 	H 	0.9746	0.4402	0.6028	0.083
Mof_C 	C 	0.99564	0.5278	0.63453	0.108
Mof_C 	C 	0.03575	0.556	0.65867	-0.156
Mof_H 	H 	0.0333	0.6027	0.6689	0.085
Mof_C 	C 	0.07965	0.516	0.66789	0.088
Mof_H 	H 	0.1068	0.5355	0.6846	0.016
Mof_C 	C 	0.94769	0.56966	0.62512	-0.073
Mof_C 	C 	0.92589	0.60102	0.65298	-0.02
Mof_H 	H 	0.942	0.595	0.6779	0.038
Mof_C 	C 	0.88191	0.6409	0.64703	-0.036
Mof_C 	C 	0.86004	0.64996	0.60959	-0.019
Mof_H 	H 	0.8298	0.6767	0.6042	0.038
Mof_C 	C 	0.88129	0.62102	0.5802	-0.08
Mof_C 	C 	0.92493	0.5805	0.58871	0.104
Mof_C 	C 	0.86073	0.6748	0.67742	0.099
Mof_C 	C 	0.83834	0.7394	0.67445	-0.153
Mof_H 	H 	0.8354	0.7639	0.6513	0.083
Mof_C 	C 	0.81921	0.7721	0.70362	0.084
Mof_H 	H 	0.8033	0.8178	0.7001	0.015
Mof_C 	C 	0.82332	0.7381	0.73767	-0.165
Mof_C 	C 	0.84533	0.673	0.74121	0.09
Mof_H 	H 	0.8489	0.6489	0.7645	0.015
Mof_C 	C 	0.86289	0.6403	0.71141	-0.152
Mof_H 	H 	0.8767	0.5932	0.7144	0.082
Mof_C 	C 	0.80587	0.7763	0.76958	0.423
Mof_C 	C 	0.85747	0.63345	0.541	0.129
Mof_C 	C 	0.88135	0.669	0.51636	-0.184
Mof_H 	H 	0.9143	0.6863	0.5246	0.092
Mof_C 	C 	0.86054	0.68135	0.48005	0.11
Mof_H 	H 	0.879	0.7062	0.4638	0.006
Mof_C 	C 	0.81281	0.65753	0.46751	-0.187
Mof_C 	C 	0.78811	0.62048	0.49138	0.107
Mof_H 	H 	0.7554	0.6024	0.4829	0.01
Mof_C 	C 	0.81019	0.60868	0.52806	-0.176
Mof_H 	H 	0.7922	0.5831	0.5444	0.092
Mof_C 	C 	0.79007	0.67024	0.42876	0.426
_end
