data_functionalizedCrystal
_audit_creation_method	'EQeq! by Chris Wilmer'
_symmetry_space_group_name_H-M	'P1'
_symmetry_Int_Tables_number	1
_symmetry_cell_setting	triclinic
loop_
_symmetry_equiv_pos_as_xyz
  x,y,z
_cell_length_a	9.489
_cell_length_b	12.76
_cell_length_c	13.117
_cell_angle_alpha	75.88
_cell_angle_beta	72.93
_cell_angle_gamma	69.65
loop_
_atom_site_label
_atom_site_type_symbol
_atom_site_fract_x
_atom_site_fract_y
_atom_site_fract_z
_atom_site_charge
Mof_Cu	Cu	0.74626	0.46285	0.05426	0.843
Mof_N 	N 	0.3416	0.5241	0.7773	-0.234
Mof_C 	C 	0.2541	0.5628	0.7057	0.078
Mof_H 	H 	0.1491	0.5976	0.7296	-0.022
Mof_C 	C 	0.3119	0.5539	0.5969	-0.146
Mof_H 	H 	0.2458	0.5821	0.5498	0.07
Mof_C 	C 	0.4655	0.5039	0.5589	0.059
Mof_C 	C 	0.5554	0.4643	0.6317	-0.149
Mof_H 	H 	0.661	0.4299	0.6097	0.071
Mof_C 	C 	0.489	0.4754	0.7387	0.079
Mof_H 	H 	0.553	0.4463	0.7871	-0.026
Mof_C 	C 	0.9645	0.0573	0.0148	0.045
Mof_C 	C 	0.0359	0.1058	0.0594	-0.129
Mof_H 	H 	0.8694	0.9353	0.9236	0.064
Mof_C 	C 	0.9658	0.2166	0.0788	0.062
Mof_H 	H 	0.983	0.7522	0.8916	-0.015
Mof_N 	N 	0.83	0.281	0.0579	-0.224
Mof_C 	C 	0.2387	0.7666	0.9848	0.061
Mof_H 	H 	0.3346	0.7244	0.9993	-0.019
Mof_C 	C 	0.1754	0.8757	0.0088	-0.13
Mof_H 	H 	0.2271	0.9039	0.0408	0.064
Mof_C 	C 	0.5565	0.4969	0.0091	-0.195
Mof_N 	N 	0.0612	0.5037	0.9876	-0.206
Mof_Cu	Cu	0.25374	0.53715	0.94574	0.842
Mof_N 	N 	0.6584	0.4759	0.2227	-0.235
Mof_C 	C 	0.7459	0.4372	0.2943	0.078
Mof_H 	H 	0.8509	0.4024	0.2704	-0.022
Mof_C 	C 	0.6881	0.4461	0.4031	-0.146
Mof_H 	H 	0.7542	0.4179	0.4502	0.07
Mof_C 	C 	0.5345	0.4961	0.4411	0.059
Mof_C 	C 	0.4446	0.5357	0.3683	-0.149
Mof_H 	H 	0.339	0.5701	0.3903	0.071
Mof_C 	C 	0.511	0.5246	0.2613	0.079
Mof_H 	H 	0.447	0.5537	0.2129	-0.026
Mof_C 	C 	0.0355	0.9427	0.9852	0.045
Mof_C 	C 	0.9641	0.8942	0.9406	-0.129
Mof_H 	H 	0.1306	0.0647	0.0764	0.064
Mof_C 	C 	0.0342	0.7834	0.9212	0.062
Mof_H 	H 	0.017	0.2478	0.1084	-0.015
Mof_N 	N 	0.17	0.719	0.9421	-0.224
Mof_C 	C 	0.7613	0.2334	0.0152	0.061
Mof_H 	H 	0.6654	0.2756	0.0007	-0.019
Mof_C 	C 	0.8246	0.1243	0.9912	-0.13
Mof_H 	H 	0.7729	0.0961	0.9592	0.064
Mof_C 	C 	0.4435	0.5031	0.9909	-0.195
Mof_N 	N 	0.9388	0.4963	0.0124	-0.206
_end
