data_functionalizedCrystal
_audit_creation_method	'EQeq! by Chris Wilmer'
_symmetry_space_group_name_H-M	'P1'
_symmetry_Int_Tables_number	1
_symmetry_cell_setting	triclinic
loop_
_symmetry_equiv_pos_as_xyz
  x,y,z
_cell_length_a	35.4945
_cell_length_b	35.4945
_cell_length_c	35.4945
_cell_angle_alpha	109.471
_cell_angle_beta	109.471
_cell_angle_gamma	109.471
loop_
_atom_site_label
_atom_site_type_symbol
_atom_site_fract_x
_atom_site_fract_y
_atom_site_fract_z
_atom_site_charge
Mof_Zn	Zn	0.40606	0.60185	0.65532	1.169
Mof_Zn	Zn	0.44654	0.75075	0.84468	1.169
Mof_Zn	Zn	0.05346	0.89814	0.3042	1.168
Mof_Zn	Zn	0.09394	0.74926	0.1958	1.168
Mof_Zn	Zn	0.80421	0.05347	0.39815	1.168
Mof_Zn	Zn	0.69579	0.09393	0.24925	1.168
Mof_Zn	Zn	0.15532	0.40606	0.10186	1.168
Mof_Zn	Zn	0.34468	0.44654	0.25074	1.168
Mof_Zn	Zn	0.75074	0.34468	0.94653	1.169
Mof_Zn	Zn	0.60186	0.15532	0.90607	1.169
Mof_Zn	Zn	0.74926	0.6958	0.59394	1.168
Mof_Zn	Zn	0.89814	0.8042	0.55346	1.169
Mof_Zn	Zn	0.25074	0.94653	0.34468	1.169
Mof_Zn	Zn	0.10186	0.90607	0.15532	1.168
Mof_Zn	Zn	0.24926	0.59394	0.6958	1.168
Mof_Zn	Zn	0.39814	0.55346	0.8042	1.169
Mof_Zn	Zn	0.90606	0.65532	0.60185	1.169
Mof_Zn	Zn	0.94654	0.84468	0.75075	1.17
Mof_Zn	Zn	0.55346	0.3042	0.89814	1.169
Mof_Zn	Zn	0.59394	0.1958	0.74926	1.168
Mof_Zn	Zn	0.30421	0.39815	0.05347	1.168
Mof_Zn	Zn	0.19579	0.24925	0.09393	1.168
Mof_Zn	Zn	0.65532	0.10186	0.40606	1.168
Mof_Zn	Zn	0.84468	0.25074	0.44654	1.169
Mof_Zn	Zn	0.5	0.64852	0.5	1.122
Mof_Zn	Zn	0.5	0.48022	0.5	1.123
Mof_Zn	Zn	0.64852	0	-0	1.114
Mof_Zn	Zn	0.48022	0	-0	1.116
Mof_Zn	Zn	0.85148	0.85148	0.35148	1.122
Mof_Zn	Zn	0.01978	0.01978	0.51978	1.117
Mof_Zn	Zn	-9.90756e-18	0.5	0.14852	1.118
Mof_Zn	Zn	7.92605e-17	0.5	0.98022	1.122
Mof_Zn	Zn	0.5	0.14852	0.5	1.121
Mof_Zn	Zn	0.5	0.98022	0.5	1.126
Mof_Zn	Zn	0.14852	0	-0	1.114
Mof_Zn	Zn	0.98022	0	-0	1.118
Mof_Zn	Zn	-3.96302e-17	0.5	0.64852	1.117
Mof_Zn	Zn	1.32101e-17	0.5	0.48022	1.118
Mof_Zn	Zn	0.35148	0.35148	0.85148	1.122
Mof_Zn	Zn	0.51978	0.51978	0.01978	1.12
Mof_Fe	Fe	0.37912	0.52198	0.49922	0.651
Mof_Fe	Fe	0.28227	0.46736	0.63745	0.649
Mof_Fe	Fe	0.52276	0.8799	0.00078	0.623
Mof_Fe	Fe	0.32991	0.64482	0.86255	0.65
Mof_Fe	Fe	0.97724	0.97802	0.35714	0.682
Mof_Fe	Fe	0.17009	0.03264	0.31491	0.634
Mof_Fe	Fe	0.12088	0.6201	0.14286	0.651
Mof_Fe	Fe	0.21773	0.85518	0.18509	0.649
Mof_Fe	Fe	0.85714	0.97724	0.47802	0.673
Mof_Fe	Fe	0.81491	0.17009	0.53264	0.649
Mof_Fe	Fe	0.64286	0.12088	0.1201	0.651
Mof_Fe	Fe	0.68509	0.21773	0.35518	0.649
Mof_Fe	Fe	0.99922	0.37912	0.02198	0.67
Mof_Fe	Fe	0.13745	0.28227	0.96736	0.661
Mof_Fe	Fe	0.50078	0.52276	0.3799	0.651
Mof_Fe	Fe	0.36255	0.32991	0.14482	0.649
Mof_Fe	Fe	0.8799	0.50078	0.02276	0.627
Mof_Fe	Fe	0.64482	0.36255	0.82991	0.649
Mof_Fe	Fe	0.52198	0.99922	0.87912	0.679
Mof_Fe	Fe	0.46736	0.13745	0.78227	0.648
Mof_Fe	Fe	0.6201	0.64286	0.62088	0.651
Mof_Fe	Fe	0.85518	0.68509	0.71773	0.649
Mof_Fe	Fe	0.97802	0.85714	0.47724	0.661
Mof_Fe	Fe	0.03264	0.81491	0.67009	0.635
Mof_Fe	Fe	0.3799	0.02276	0.50078	0.628
Mof_Fe	Fe	0.14482	0.82991	0.36255	0.649
Mof_Fe	Fe	0.02198	0.87912	0.99922	0.666
Mof_Fe	Fe	0.96736	0.78227	0.13745	0.66
Mof_Fe	Fe	0.1201	0.62088	0.64286	0.651
Mof_Fe	Fe	0.35518	0.71773	0.68509	0.649
Mof_Fe	Fe	0.47802	0.47724	0.85714	0.652
Mof_Fe	Fe	0.53264	0.67009	0.81491	0.649
Mof_Fe	Fe	0.87912	0.49922	0.52198	0.652
Mof_Fe	Fe	0.78227	0.63745	0.46736	0.649
Mof_Fe	Fe	0.02276	0.00078	0.8799	0.6
Mof_Fe	Fe	0.82991	0.86255	0.64482	0.65
Mof_Fe	Fe	0.47724	0.35714	0.97802	0.662
Mof_Fe	Fe	0.67009	0.31491	0.03264	0.634
Mof_Fe	Fe	0.62088	0.14286	0.6201	0.651
Mof_Fe	Fe	0.71773	0.18509	0.85518	0.649
Mof_Fe	Fe	0.35714	0.47802	0.97724	0.674
Mof_Fe	Fe	0.31491	0.53264	0.17009	0.649
Mof_Fe	Fe	0.14286	0.1201	0.12088	0.651
Mof_Fe	Fe	0.18509	0.35518	0.21773	0.649
Mof_Fe	Fe	0.49922	0.02198	0.37912	0.641
Mof_Fe	Fe	0.63745	0.96736	0.28227	0.663
Mof_Fe	Fe	0.00078	0.3799	0.52276	0.619
Mof_Fe	Fe	0.86255	0.14482	0.32991	0.65
Mof_B 	B 	0.2175	0.3633	0.5648	1.495
Mof_B 	B 	0.2762	0.4543	0.4297	1.516
Mof_B 	B 	0.2985	0.6527	0.9352	1.502
Mof_B 	B 	0.5246	0.8465	0.0703	1.511
Mof_B 	B 	0.2015	0.1367	0.3542	1.495
Mof_B 	B 	0.9754	0.0457	0.3219	1.516
Mof_B 	B 	0.2825	0.8473	0.1458	1.494
Mof_B 	B 	0.2238	0.6535	0.1781	1.515
Mof_B 	B 	0.8542	0.2015	0.6367	1.496
Mof_B 	B 	0.8219	0.9754	0.5457	1.534
Mof_B 	B 	0.6458	0.2825	0.3473	1.495
Mof_B 	B 	0.6781	0.2238	0.1535	1.517
Mof_B 	B 	0.0648	0.2175	0.8633	1.487
Mof_B 	B 	0.9297	0.2762	0.9543	1.544
Mof_B 	B 	0.4352	0.2985	0.1527	1.496
Mof_B 	B 	0.5703	0.5246	0.3465	1.516
Mof_B 	B 	0.6527	0.4352	0.7985	1.495
Mof_B 	B 	0.8465	0.5703	0.0246	1.495
Mof_B 	B 	0.3633	0.0648	0.7175	1.488
Mof_B 	B 	0.4543	0.9297	0.7762	1.52
Mof_B 	B 	0.8473	0.6458	0.7825	1.494
Mof_B 	B 	0.6535	0.6781	0.7238	1.516
Mof_B 	B 	0.1367	0.8542	0.7015	1.496
Mof_B 	B 	0.0457	0.8219	0.4754	1.495
Mof_B 	B 	0.1527	0.7985	0.4352	1.496
Mof_B 	B 	0.3465	0.0246	0.5703	1.497
Mof_B 	B 	0.8633	0.7175	0.0648	1.487
Mof_B 	B 	0.9543	0.7762	0.9297	1.543
Mof_B 	B 	0.3473	0.7825	0.6458	1.495
Mof_B 	B 	0.1535	0.7238	0.6781	1.517
Mof_B 	B 	0.6367	0.7015	0.8542	1.496
Mof_B 	B 	0.5457	0.4754	0.8219	1.516
Mof_B 	B 	0.7175	0.5648	0.3633	1.495
Mof_B 	B 	0.7762	0.4297	0.4543	1.516
Mof_B 	B 	0.7985	0.9352	0.6527	1.502
Mof_B 	B 	0.0246	0.0703	0.8465	1.491
Mof_B 	B 	0.7015	0.3542	0.1367	1.496
Mof_B 	B 	0.4754	0.3219	0.0457	1.494
Mof_B 	B 	0.7825	0.1458	0.8473	1.494
Mof_B 	B 	0.7238	0.1781	0.6535	1.515
Mof_B 	B 	0.3542	0.6367	0.2015	1.495
Mof_B 	B 	0.3219	0.5457	0.9754	1.534
Mof_B 	B 	0.1458	0.3473	0.2825	1.495
Mof_B 	B 	0.1781	0.1535	0.2238	1.517
Mof_B 	B 	0.5648	0.8633	0.2175	1.495
Mof_B 	B 	0.4297	0.9543	0.2762	1.537
Mof_B 	B 	0.9352	0.1527	0.2985	1.504
Mof_B 	B 	0.0703	0.3465	0.5246	1.511
Mof_H 	H 	0.1967	0.3302	0.5415	-0.553
Mof_H 	H 	0.274	0.3197	0.5555	-0.059
Mof_H 	H 	0.3581	0.3718	0.6061	0.089
Mof_H 	H 	0.371	0.4507	0.6507	-0.031
Mof_H 	H 	0.157	0.3205	0.5959	-0.061
Mof_H 	H 	0.1641	0.3737	0.6674	0.089
Mof_H 	H 	0.2282	0.4515	0.6947	-0.038
Mof_H 	H 	0.1642	0.3542	0.4758	-0.051
Mof_H 	H 	0.1816	0.4278	0.4744	0.087
Mof_H 	H 	0.2434	0.4906	0.5548	-0.032
Mof_H 	H 	0.2431	0.4324	0.4071	-0.562
Mof_H 	H 	0.3511	0.607	0.5211	-0.007
Mof_H 	H 	0.244	0.3821	0.4541	-0.071
Mof_H 	H 	0.2993	0.3926	0.5235	0.115
Mof_H 	H 	0.3726	0.4645	0.5551	-0.044
Mof_H 	H 	0.2647	0.4112	0.3361	-0.047
Mof_H 	H 	0.3373	0.4376	0.3333	0.069
Mof_H 	H 	0.4006	0.4913	0.4135	-0.03
Mof_H 	H 	0.2887	0.6552	0.9585	-0.553
Mof_H 	H 	0.2642	0.7185	0.9445	-0.057
Mof_H 	H 	0.2657	0.752	0.8939	0.091
Mof_H 	H 	0.3	0.7203	0.8493	-0.031
Mof_H 	H 	0.2246	0.5611	0.9041	-0.06
Mof_H 	H 	0.2063	0.4967	0.8326	0.09
Mof_H 	H 	0.2568	0.5335	0.8053	-0.038
Mof_H 	H 	0.3784	0.6884	0.0242	-0.08
Mof_H 	H 	0.4534	0.7072	0.0256	0.108
Mof_H 	H 	0.4358	0.6886	0.9452	-0.043
Mof_H 	H 	0.5253	0.836	0.0929	-0.561
Mof_H 	H 	0.5859	0.83	0.9789	-0.014
Mof_H 	H 	0.428	0.7899	0.0459	-0.063
Mof_H 	H 	0.3691	0.7758	0.9765	0.105
Mof_H 	H 	0.4094	0.8175	0.9449	-0.038
Mof_H 	H 	0.5751	0.9286	0.1639	-0.038
Mof_H 	H 	0.6043	0.004	0.1667	0.045
Mof_H 	H 	0.5778	0.9871	0.0865	-0.02
Mof_H 	H 	0.2113	0.1698	0.3665	-0.553
Mof_H 	H 	0.2358	0.1803	0.4543	-0.059
Mof_H 	H 	0.2343	0.1282	0.4863	0.088
Mof_H 	H 	0.2	0.0493	0.4203	-0.034
Mof_H 	H 	0.2754	0.1795	0.3365	-0.061
Mof_H 	H 	0.2937	0.1263	0.2904	0.089
Mof_H 	H 	0.2432	0.0485	0.2767	-0.041
Mof_H 	H 	0.1216	0.1458	0.31	-0.051
Mof_H 	H 	0.0466	0.0722	0.2538	0.083
Mof_H 	H 	0.0642	0.0094	0.2528	-0.039
Mof_H 	H 	0.9747	0.0676	0.3107	-0.561
Mof_H 	H 	0.9141	0.893	0.2441	-0.007
Mof_H 	H 	0.072	0.1179	0.3619	-0.073
Mof_H 	H 	0.1309	0.1074	0.4067	0.115
Mof_H 	H 	0.0906	0.0355	0.4081	-0.049
Mof_H 	H 	0.9249	0.0888	0.3535	-0.047
Mof_H 	H 	0.8957	0.0624	0.3997	0.069
Mof_H 	H 	0.9222	0.0087	0.4093	-0.032
Mof_H 	H 	0.3033	0.8448	0.1335	-0.552
Mof_H 	H 	0.226	0.7815	0.0457	-0.061
Mof_H 	H 	0.1419	0.748	0.0137	0.086
Mof_H 	H 	0.129	0.7797	0.0797	-0.033
Mof_H 	H 	0.343	0.9389	0.1635	-0.052
Mof_H 	H 	0.3359	0.0033	0.2096	0.067
Mof_H 	H 	0.2718	0.9665	0.2233	-0.029
Mof_H 	H 	0.3358	0.8116	0.19	-0.051
Mof_H 	H 	0.3184	0.7928	0.2462	0.088
Mof_H 	H 	0.2566	0.8114	0.2472	-0.032
Mof_H 	H 	0.2569	0.664	0.1893	-0.562
Mof_H 	H 	0.1489	0.67	0.2559	-0.008
Mof_H 	H 	0.256	0.7101	0.1381	-0.072
Mof_H 	H 	0.2007	0.7242	0.0933	0.115
Mof_H 	H 	0.1274	0.6825	0.0919	-0.046
Mof_H 	H 	0.2353	0.5714	0.1465	-0.047
Mof_H 	H 	0.1627	0.496	0.1003	0.068
Mof_H 	H 	0.0994	0.5129	0.0907	-0.031
Mof_H 	H 	0.8665	0.2113	0.6698	-0.552
Mof_H 	H 	0.9543	0.2358	0.6803	-0.056
Mof_H 	H 	0.9863	0.2343	0.6282	0.093
Mof_H 	H 	0.9203	0.2	0.5493	-0.029
Mof_H 	H 	0.8365	0.2754	0.6795	-0.059
Mof_H 	H 	0.7904	0.2937	0.6263	0.091
Mof_H 	H 	0.7767	0.2432	0.5485	-0.038
Mof_H 	H 	0.81	0.1216	0.6458	-0.051
Mof_H 	H 	0.7538	0.0466	0.5722	0.085
Mof_H 	H 	0.7528	0.0642	0.5094	-0.034
Mof_H 	H 	0.8107	0.9747	0.5676	-0.566
Mof_H 	H 	0.7441	0.9141	0.393	-0.007
Mof_H 	H 	0.8619	0.072	0.6179	-0.073
Mof_H 	H 	0.9067	0.1309	0.6074	0.117
Mof_H 	H 	0.9081	0.0906	0.5355	-0.044
Mof_H 	H 	0.8535	0.9249	0.5888	-0.047
Mof_H 	H 	0.8997	0.8957	0.5624	0.07
Mof_H 	H 	0.9093	0.9222	0.5087	-0.029
Mof_H 	H 	0.6335	0.3033	0.3448	-0.553
Mof_H 	H 	0.5457	0.226	0.2815	-0.059
Mof_H 	H 	0.5137	0.1419	0.248	0.088
Mof_H 	H 	0.5797	0.129	0.2797	-0.032
Mof_H 	H 	0.6635	0.343	0.4389	-0.06
Mof_H 	H 	0.7096	0.3359	0.5033	0.09
Mof_H 	H 	0.7233	0.2718	0.4665	-0.038
Mof_H 	H 	0.69	0.3358	0.3116	-0.051
Mof_H 	H 	0.7462	0.3184	0.2928	0.088
Mof_H 	H 	0.7472	0.2566	0.3114	-0.032
Mof_H 	H 	0.6893	0.2569	0.164	-0.563
Mof_H 	H 	0.7559	0.1489	0.17	-0.008
Mof_H 	H 	0.6381	0.256	0.2101	-0.071
Mof_H 	H 	0.5933	0.2007	0.2242	0.115
Mof_H 	H 	0.5919	0.1274	0.1825	-0.046
Mof_H 	H 	0.6465	0.2353	0.0714	-0.055
Mof_H 	H 	0.6003	0.1627	0.996	0.092
Mof_H 	H 	0.5907	0.0994	0.0129	-0.041
Mof_H 	H 	0.0415	0.1967	0.8302	-0.553
Mof_H 	H 	0.0555	0.274	0.8197	-0.061
Mof_H 	H 	0.1061	0.3581	0.8718	0.089
Mof_H 	H 	0.1507	0.371	0.9507	-0.029
Mof_H 	H 	0.0959	0.157	0.8205	-0.062
Mof_H 	H 	0.1674	0.1641	0.8737	0.09
Mof_H 	H 	0.1947	0.2282	0.9515	-0.035
Mof_H 	H 	0.9758	0.1642	0.8542	-0.017
Mof_H 	H 	0.9744	0.1816	0.9278	0.065
Mof_H 	H 	0.0548	0.2434	0.9906	-0.015
Mof_H 	H 	0.9071	0.2431	0.9324	-0.57
Mof_H 	H 	0.0211	0.3511	0.107	-0
Mof_H 	H 	0.9541	0.244	0.8821	-0.082
Mof_H 	H 	0.0235	0.2993	0.8926	0.128
Mof_H 	H 	0.0551	0.3726	0.9645	-0.048
Mof_H 	H 	0.8361	0.2647	0.9112	-0.047
Mof_H 	H 	0.8333	0.3373	0.9376	0.07
Mof_H 	H 	0.9135	0.4006	0.9913	-0.026
Mof_H 	H 	0.4585	0.2887	0.1552	-0.554
Mof_H 	H 	0.4445	0.2642	0.2185	-0.06
Mof_H 	H 	0.3939	0.2657	0.252	0.089
Mof_H 	H 	0.3493	0.3	0.2203	-0.031
Mof_H 	H 	0.4041	0.2246	0.0611	-0.07
Mof_H 	H 	0.3326	0.2063	0.9967	0.112
Mof_H 	H 	0.3053	0.2568	0.0335	-0.046
Mof_H 	H 	0.5242	0.3784	0.1884	-0.051
Mof_H 	H 	0.5256	0.4534	0.2072	0.088
Mof_H 	H 	0.4452	0.4358	0.1886	-0.032
Mof_H 	H 	0.5929	0.5253	0.336	-0.562
Mof_H 	H 	0.4789	0.5859	0.33	-0.007
Mof_H 	H 	0.5459	0.428	0.2899	-0.071
Mof_H 	H 	0.4765	0.3691	0.2758	0.115
Mof_H 	H 	0.4449	0.4094	0.3175	-0.044
Mof_H 	H 	0.6639	0.5751	0.4286	-0.047
Mof_H 	H 	0.6667	0.6043	0.504	0.069
Mof_H 	H 	0.5865	0.5778	0.4871	-0.03
Mof_H 	H 	0.6552	0.4585	0.7887	-0.553
Mof_H 	H 	0.7185	0.4445	0.7642	-0.059
Mof_H 	H 	0.752	0.3939	0.7657	0.09
Mof_H 	H 	0.7203	0.3493	0.8	-0.031
Mof_H 	H 	0.5611	0.4041	0.7246	-0.06
Mof_H 	H 	0.4967	0.3326	0.7063	0.09
Mof_H 	H 	0.5335	0.3053	0.7568	-0.038
Mof_H 	H 	0.6884	0.5242	0.8784	-0.05
Mof_H 	H 	0.7072	0.5256	0.9534	0.091
Mof_H 	H 	0.6886	0.4452	0.9358	-0.03
Mof_H 	H 	0.836	0.5929	0.0253	-0.558
Mof_H 	H 	0.83	0.4789	0.0859	-0.007
Mof_H 	H 	0.7899	0.5459	0.928	-0.068
Mof_H 	H 	0.7758	0.4765	0.8691	0.115
Mof_H 	H 	0.8175	0.4449	0.9094	-0.043
Mof_H 	H 	0.9286	0.6639	0.0751	-0.038
Mof_H 	H 	0.004	0.6667	0.1043	0.047
Mof_H 	H 	0.9871	0.5865	0.0778	-0.021
Mof_H 	H 	0.3302	0.0415	0.6967	-0.553
Mof_H 	H 	0.3197	0.0555	0.774	-0.061
Mof_H 	H 	0.3718	0.1061	0.8581	0.089
Mof_H 	H 	0.4507	0.1507	0.871	-0.03
Mof_H 	H 	0.3205	0.0959	0.657	-0.062
Mof_H 	H 	0.3737	0.1674	0.6641	0.09
Mof_H 	H 	0.4515	0.1947	0.7282	-0.038
Mof_H 	H 	0.3542	0.9758	0.6642	-0.021
Mof_H 	H 	0.4278	0.9744	0.6816	0.067
Mof_H 	H 	0.4906	0.0548	0.7434	-0.021
Mof_H 	H 	0.4324	0.9071	0.7431	-0.563
Mof_H 	H 	0.607	0.0211	0.8511	0.001
Mof_H 	H 	0.3821	0.9541	0.744	-0.079
Mof_H 	H 	0.3926	0.0235	0.7993	0.126
Mof_H 	H 	0.4645	0.0551	0.8726	-0.049
Mof_H 	H 	0.4112	0.8361	0.7647	-0.047
Mof_H 	H 	0.4376	0.8333	0.8373	0.069
Mof_H 	H 	0.4913	0.9135	0.9006	-0.029
Mof_H 	H 	0.8448	0.6335	0.8033	-0.551
Mof_H 	H 	0.7815	0.5457	0.726	-0.058
Mof_H 	H 	0.748	0.5137	0.6419	0.089
Mof_H 	H 	0.7797	0.5797	0.629	-0.031
Mof_H 	H 	0.9389	0.6635	0.843	-0.05
Mof_H 	H 	0.0033	0.7096	0.8359	0.067
Mof_H 	H 	0.9665	0.7233	0.7718	-0.028
Mof_H 	H 	0.8116	0.69	0.8358	-0.05
Mof_H 	H 	0.7928	0.7462	0.8184	0.089
Mof_H 	H 	0.8114	0.7472	0.7566	-0.032
Mof_H 	H 	0.664	0.6893	0.7569	-0.562
Mof_H 	H 	0.67	0.7559	0.6489	-0.007
Mof_H 	H 	0.7101	0.6381	0.756	-0.071
Mof_H 	H 	0.7242	0.5933	0.7007	0.115
Mof_H 	H 	0.6825	0.5919	0.6274	-0.044
Mof_H 	H 	0.5714	0.6465	0.7353	-0.047
Mof_H 	H 	0.496	0.6003	0.6627	0.069
Mof_H 	H 	0.5129	0.5907	0.5994	-0.03
Mof_H 	H 	0.1698	0.8665	0.7113	-0.552
Mof_H 	H 	0.1803	0.9543	0.7358	-0.057
Mof_H 	H 	0.1282	0.9863	0.7343	0.092
Mof_H 	H 	0.0493	0.9203	0.7	-0.032
Mof_H 	H 	0.1795	0.8365	0.7754	-0.059
Mof_H 	H 	0.1263	0.7904	0.7937	0.09
Mof_H 	H 	0.0485	0.7767	0.7432	-0.041
Mof_H 	H 	0.1458	0.81	0.6216	-0.05
Mof_H 	H 	0.0722	0.7538	0.5466	0.086
Mof_H 	H 	0.0094	0.7528	0.5642	-0.037
Mof_H 	H 	0.0676	0.8107	0.4747	-0.557
Mof_H 	H 	0.893	0.7441	0.4141	-0.007
Mof_H 	H 	0.1179	0.8619	0.572	-0.07
Mof_H 	H 	0.1074	0.9067	0.6309	0.116
Mof_H 	H 	0.0355	0.9081	0.5906	-0.047
Mof_H 	H 	0.0888	0.8535	0.4249	-0.046
Mof_H 	H 	0.0624	0.8997	0.3957	0.069
Mof_H 	H 	0.0087	0.9093	0.4222	-0.032
Mof_H 	H 	0.1552	0.7887	0.4585	-0.554
Mof_H 	H 	0.2185	0.7642	0.4445	-0.059
Mof_H 	H 	0.252	0.7657	0.3939	0.089
Mof_H 	H 	0.2203	0.8	0.3493	-0.031
Mof_H 	H 	0.0611	0.7246	0.4041	-0.069
Mof_H 	H 	0.9967	0.7063	0.3326	0.112
Mof_H 	H 	0.0335	0.7568	0.3053	-0.046
Mof_H 	H 	0.1884	0.8784	0.5242	-0.05
Mof_H 	H 	0.2072	0.9534	0.5256	0.09
Mof_H 	H 	0.1886	0.9358	0.4452	-0.03
Mof_H 	H 	0.336	0.0253	0.5929	-0.558
Mof_H 	H 	0.33	0.0859	0.4789	-0.008
Mof_H 	H 	0.2899	0.928	0.5459	-0.069
Mof_H 	H 	0.2758	0.8691	0.4765	0.115
Mof_H 	H 	0.3175	0.9094	0.4449	-0.043
Mof_H 	H 	0.4286	0.0751	0.6639	-0.046
Mof_H 	H 	0.504	0.1043	0.6667	0.067
Mof_H 	H 	0.4871	0.0778	0.5865	-0.031
Mof_H 	H 	0.8302	0.6967	0.0415	-0.552
Mof_H 	H 	0.8197	0.774	0.0555	-0.061
Mof_H 	H 	0.8718	0.8581	0.1061	0.09
Mof_H 	H 	0.9507	0.871	0.1507	-0.028
Mof_H 	H 	0.8205	0.657	0.0959	-0.061
Mof_H 	H 	0.8737	0.6641	0.1674	0.091
Mof_H 	H 	0.9515	0.7282	0.1947	-0.035
Mof_H 	H 	0.8542	0.6642	0.9758	-0.018
Mof_H 	H 	0.9278	0.6816	0.9744	0.067
Mof_H 	H 	0.9906	0.7434	0.0548	-0.016
Mof_H 	H 	0.9324	0.7431	0.9071	-0.569
Mof_H 	H 	0.107	0.8511	0.0211	-0
Mof_H 	H 	0.8821	0.744	0.9541	-0.081
Mof_H 	H 	0.8926	0.7993	0.0235	0.127
Mof_H 	H 	0.9645	0.8726	0.0551	-0.047
Mof_H 	H 	0.9112	0.7647	0.8361	-0.047
Mof_H 	H 	0.9376	0.8373	0.8333	0.07
Mof_H 	H 	0.9913	0.9006	0.9135	-0.026
Mof_H 	H 	0.3448	0.8033	0.6335	-0.552
Mof_H 	H 	0.2815	0.726	0.5457	-0.059
Mof_H 	H 	0.248	0.6419	0.5137	0.089
Mof_H 	H 	0.2797	0.629	0.5797	-0.031
Mof_H 	H 	0.4389	0.843	0.6635	-0.06
Mof_H 	H 	0.5033	0.8359	0.7096	0.091
Mof_H 	H 	0.4665	0.7718	0.7233	-0.037
Mof_H 	H 	0.3116	0.8358	0.69	-0.05
Mof_H 	H 	0.2928	0.8184	0.7462	0.088
Mof_H 	H 	0.3114	0.7566	0.7472	-0.032
Mof_H 	H 	0.164	0.7569	0.6893	-0.563
Mof_H 	H 	0.17	0.6489	0.7559	-0.008
Mof_H 	H 	0.2101	0.756	0.6381	-0.071
Mof_H 	H 	0.2242	0.7007	0.5933	0.115
Mof_H 	H 	0.1825	0.6274	0.5919	-0.045
Mof_H 	H 	0.0714	0.7353	0.6465	-0.055
Mof_H 	H 	0.996	0.6627	0.6003	0.092
Mof_H 	H 	0.0129	0.5994	0.5907	-0.041
Mof_H 	H 	0.6698	0.7113	0.8665	-0.552
Mof_H 	H 	0.6803	0.7358	0.9543	-0.056
Mof_H 	H 	0.6282	0.7343	0.9863	0.093
Mof_H 	H 	0.5493	0.7	0.9203	-0.029
Mof_H 	H 	0.6795	0.7754	0.8365	-0.059
Mof_H 	H 	0.6263	0.7937	0.7904	0.091
Mof_H 	H 	0.5485	0.7432	0.7767	-0.037
Mof_H 	H 	0.6458	0.6216	0.81	-0.05
Mof_H 	H 	0.5722	0.5466	0.7538	0.088
Mof_H 	H 	0.5094	0.5642	0.7528	-0.032
Mof_H 	H 	0.5676	0.4747	0.8107	-0.562
Mof_H 	H 	0.393	0.4141	0.7441	-0.007
Mof_H 	H 	0.6179	0.572	0.8619	-0.071
Mof_H 	H 	0.6074	0.6309	0.9067	0.116
Mof_H 	H 	0.5355	0.5906	0.9081	-0.043
Mof_H 	H 	0.5888	0.4249	0.8535	-0.047
Mof_H 	H 	0.5624	0.3957	0.8997	0.069
Mof_H 	H 	0.5087	0.4222	0.9093	-0.029
Mof_H 	H 	0.6967	0.5415	0.3302	-0.553
Mof_H 	H 	0.774	0.5555	0.3197	-0.059
Mof_H 	H 	0.8581	0.6061	0.3718	0.09
Mof_H 	H 	0.871	0.6507	0.4507	-0.03
Mof_H 	H 	0.657	0.5959	0.3205	-0.061
Mof_H 	H 	0.6641	0.6674	0.3737	0.09
Mof_H 	H 	0.7282	0.6947	0.4515	-0.038
Mof_H 	H 	0.6642	0.4758	0.3542	-0.051
Mof_H 	H 	0.6816	0.4744	0.4278	0.088
Mof_H 	H 	0.7434	0.5548	0.4906	-0.032
Mof_H 	H 	0.7431	0.4071	0.4324	-0.562
Mof_H 	H 	0.8511	0.5211	0.607	-0.006
Mof_H 	H 	0.744	0.4541	0.3821	-0.071
Mof_H 	H 	0.7993	0.5235	0.3926	0.116
Mof_H 	H 	0.8726	0.5551	0.4645	-0.043
Mof_H 	H 	0.7647	0.3361	0.4112	-0.047
Mof_H 	H 	0.8373	0.3333	0.4376	0.069
Mof_H 	H 	0.9006	0.4135	0.4913	-0.03
Mof_H 	H 	0.7887	0.9585	0.6552	-0.553
Mof_H 	H 	0.7642	0.9445	0.7185	-0.057
Mof_H 	H 	0.7657	0.8939	0.752	0.091
Mof_H 	H 	0.8	0.8493	0.7203	-0.031
Mof_H 	H 	0.7246	0.9041	0.5611	-0.059
Mof_H 	H 	0.7063	0.8326	0.4967	0.09
Mof_H 	H 	0.7568	0.8053	0.5335	-0.038
Mof_H 	H 	0.8784	0.0242	0.6884	-0.078
Mof_H 	H 	0.9534	0.0256	0.7072	0.11
Mof_H 	H 	0.9358	0.9452	0.6886	-0.04
Mof_H 	H 	0.0253	0.0929	0.836	-0.557
Mof_H 	H 	0.0859	0.9789	0.83	-0.015
Mof_H 	H 	0.928	0.0459	0.7899	-0.06
Mof_H 	H 	0.8691	0.9765	0.7758	0.105
Mof_H 	H 	0.9094	0.9449	0.8175	-0.037
Mof_H 	H 	0.0751	0.1639	0.9286	-0.038
Mof_H 	H 	0.1043	0.1667	0.004	0.046
Mof_H 	H 	0.0778	0.0865	0.9871	-0.021
Mof_H 	H 	0.7113	0.3665	0.1698	-0.553
Mof_H 	H 	0.7358	0.4543	0.1803	-0.059
Mof_H 	H 	0.7343	0.4863	0.1282	0.089
Mof_H 	H 	0.7	0.4203	0.0493	-0.034
Mof_H 	H 	0.7754	0.3365	0.1795	-0.06
Mof_H 	H 	0.7937	0.2904	0.1263	0.09
Mof_H 	H 	0.7432	0.2767	0.0485	-0.041
Mof_H 	H 	0.6216	0.31	0.1458	-0.051
Mof_H 	H 	0.5466	0.2538	0.0722	0.086
Mof_H 	H 	0.5642	0.2528	0.0094	-0.037
Mof_H 	H 	0.4747	0.3107	0.0676	-0.557
Mof_H 	H 	0.4141	0.2441	0.893	-0.007
Mof_H 	H 	0.572	0.3619	0.1179	-0.071
Mof_H 	H 	0.6309	0.4067	0.1074	0.115
Mof_H 	H 	0.5906	0.4081	0.0355	-0.048
Mof_H 	H 	0.4249	0.3535	0.0888	-0.046
Mof_H 	H 	0.3957	0.3997	0.0624	0.068
Mof_H 	H 	0.4222	0.4093	0.0087	-0.033
Mof_H 	H 	0.8033	0.1335	0.8448	-0.552
Mof_H 	H 	0.726	0.0457	0.7815	-0.061
Mof_H 	H 	0.6419	0.0137	0.748	0.086
Mof_H 	H 	0.629	0.0797	0.7797	-0.032
Mof_H 	H 	0.843	0.1635	0.9389	-0.05
Mof_H 	H 	0.8359	0.2096	0.0033	0.066
Mof_H 	H 	0.7718	0.2233	0.9665	-0.028
Mof_H 	H 	0.8358	0.19	0.8116	-0.05
Mof_H 	H 	0.8184	0.2462	0.7928	0.088
Mof_H 	H 	0.7566	0.2472	0.8114	-0.032
Mof_H 	H 	0.7569	0.1893	0.664	-0.562
Mof_H 	H 	0.6489	0.2559	0.67	-0.007
Mof_H 	H 	0.756	0.1381	0.7101	-0.071
Mof_H 	H 	0.7007	0.0933	0.7242	0.115
Mof_H 	H 	0.6274	0.0919	0.6825	-0.045
Mof_H 	H 	0.7353	0.1465	0.5714	-0.047
Mof_H 	H 	0.6627	0.1003	0.496	0.068
Mof_H 	H 	0.5994	0.0907	0.5129	-0.031
Mof_H 	H 	0.3665	0.6698	0.2113	-0.553
Mof_H 	H 	0.4543	0.6803	0.2358	-0.059
Mof_H 	H 	0.4863	0.6282	0.2343	0.089
Mof_H 	H 	0.4203	0.5493	0.2	-0.031
Mof_H 	H 	0.3365	0.6795	0.2754	-0.06
Mof_H 	H 	0.2904	0.6263	0.2937	0.09
Mof_H 	H 	0.2767	0.5485	0.2432	-0.038
Mof_H 	H 	0.31	0.6458	0.1216	-0.051
Mof_H 	H 	0.2538	0.5722	0.0466	0.085
Mof_H 	H 	0.2528	0.5094	0.0642	-0.034
Mof_H 	H 	0.3107	0.5676	0.9747	-0.566
Mof_H 	H 	0.2441	0.393	0.9141	-0.007
Mof_H 	H 	0.3619	0.6179	0.072	-0.074
Mof_H 	H 	0.4067	0.6074	0.1309	0.116
Mof_H 	H 	0.4081	0.5355	0.0906	-0.045
Mof_H 	H 	0.3535	0.5888	0.9249	-0.047
Mof_H 	H 	0.3997	0.5624	0.8957	0.07
Mof_H 	H 	0.4093	0.5087	0.9222	-0.03
Mof_H 	H 	0.1335	0.3448	0.3033	-0.553
Mof_H 	H 	0.0457	0.2815	0.226	-0.061
Mof_H 	H 	0.0137	0.248	0.1419	0.085
Mof_H 	H 	0.0797	0.2797	0.129	-0.033
Mof_H 	H 	0.1635	0.4389	0.343	-0.061
Mof_H 	H 	0.2096	0.5033	0.3359	0.09
Mof_H 	H 	0.2233	0.4665	0.2718	-0.038
Mof_H 	H 	0.19	0.3116	0.3358	-0.051
Mof_H 	H 	0.2462	0.2928	0.3184	0.088
Mof_H 	H 	0.2472	0.3114	0.2566	-0.032
Mof_H 	H 	0.1893	0.164	0.2569	-0.563
Mof_H 	H 	0.2559	0.17	0.1489	-0.008
Mof_H 	H 	0.1381	0.2101	0.256	-0.072
Mof_H 	H 	0.0933	0.2242	0.2007	0.114
Mof_H 	H 	0.0919	0.1825	0.1274	-0.046
Mof_H 	H 	0.1465	0.0714	0.2353	-0.055
Mof_H 	H 	0.1003	0.996	0.1627	0.091
Mof_H 	H 	0.0907	0.0129	0.0994	-0.042
Mof_H 	H 	0.5415	0.8302	0.1967	-0.553
Mof_H 	H 	0.5555	0.8197	0.274	-0.059
Mof_H 	H 	0.6061	0.8718	0.3581	0.09
Mof_H 	H 	0.6507	0.9507	0.371	-0.029
Mof_H 	H 	0.5959	0.8205	0.157	-0.061
Mof_H 	H 	0.6674	0.8737	0.1641	0.09
Mof_H 	H 	0.6947	0.9515	0.2282	-0.035
Mof_H 	H 	0.4758	0.8542	0.1642	-0.051
Mof_H 	H 	0.4744	0.9278	0.1816	0.089
Mof_H 	H 	0.5548	0.9906	0.2434	-0.028
Mof_H 	H 	0.4071	0.9324	0.2431	-0.568
Mof_H 	H 	0.5211	0.107	0.3511	-0.007
Mof_H 	H 	0.4541	0.8821	0.244	-0.072
Mof_H 	H 	0.5235	0.8926	0.2993	0.116
Mof_H 	H 	0.5551	0.9645	0.3726	-0.041
Mof_H 	H 	0.3361	0.9112	0.2647	-0.047
Mof_H 	H 	0.3333	0.9376	0.3373	0.069
Mof_H 	H 	0.4135	0.9913	0.4006	-0.027
Mof_H 	H 	0.9585	0.1552	0.2887	-0.554
Mof_H 	H 	0.9445	0.2185	0.2642	-0.057
Mof_H 	H 	0.8939	0.252	0.2657	0.09
Mof_H 	H 	0.8493	0.2203	0.3	-0.031
Mof_H 	H 	0.9041	0.0611	0.2246	-0.068
Mof_H 	H 	0.8326	0.9967	0.2063	0.111
Mof_H 	H 	0.8053	0.0335	0.2568	-0.046
Mof_H 	H 	0.0242	0.1884	0.3784	-0.083
Mof_H 	H 	0.0256	0.2072	0.4534	0.11
Mof_H 	H 	0.9452	0.1886	0.4358	-0.044
Mof_H 	H 	0.0929	0.336	0.5253	-0.561
Mof_H 	H 	0.9789	0.33	0.5859	-0.015
Mof_H 	H 	0.0459	0.2899	0.428	-0.062
Mof_H 	H 	0.9765	0.2758	0.3691	0.104
Mof_H 	H 	0.9449	0.3175	0.4094	-0.038
Mof_H 	H 	0.1639	0.4286	0.5751	-0.046
Mof_H 	H 	0.1667	0.504	0.6043	0.068
Mof_H 	H 	0.0865	0.4871	0.5778	-0.031
Mof_C 	C 	0.4205	0.57363	0.50033	-0.109
Mof_C 	C 	0.42587	0.50567	0.5098	-0.108
Mof_C 	C 	0.37579	0.67487	0.6682	-0.108
Mof_C 	C 	0.48788	0.64398	0.75138	-0.099
Mof_C 	C 	0.40407	0.5605	0.56417	-0.097
Mof_C 	C 	0.32967	0.51435	0.63802	-0.096
Mof_C 	C 	0.289	0.3513	0.5769	0.182
Mof_C 	C 	0.3352	0.3799	0.6043	-0.223
Mof_C 	C 	0.34219	0.42377	0.62956	0.12
Mof_C 	C 	0.1775	0.3524	0.6139	0.189
Mof_C 	C 	0.1814	0.3811	0.6533	-0.235
Mof_C 	C 	0.2171	0.4242	0.6677	0.125
Mof_C 	C 	0.1859	0.384	0.5009	0.179
Mof_C 	C 	0.1953	0.4244	0.4999	-0.215
Mof_C 	C 	0.2294	0.45887	0.54467	0.119
Mof_C 	C 	0.2499	0.5108	0.4537	0.051
Mof_C 	C 	0.2802	0.5598	0.4872	-0.052
Mof_C 	C 	0.3268	0.5761	0.5029	0.033
Mof_C 	C 	0.2748	0.4066	0.4734	0.242
Mof_C 	C 	0.3043	0.4118	0.5107	-0.278
Mof_C 	C 	0.345	0.4518	0.528	0.144
Mof_C 	C 	0.29463	0.4328	0.36143	0.176
Mof_C 	C 	0.3343	0.4468	0.3597	-0.211
Mof_C 	C 	0.3691	0.4769	0.4042	0.103
Mof_C 	C 	0.5733	0.92017	0.99967	-0.095
Mof_C 	C 	0.49587	0.91607	0.9902	-0.094
Mof_C 	C 	0.50667	0.70759	0.8318	-0.107
Mof_C 	C 	0.3926	0.7365	0.74862	-0.099
Mof_C 	C 	0.49633	0.8399	0.93583	-0.087
Mof_C 	C 	0.37633	0.69165	0.86198	-0.096
Mof_C 	C 	0.2744	0.7121	0.9231	0.183
Mof_C 	C 	0.2756	0.7309	0.8957	-0.223
Mof_C 	C 	0.29421	0.71263	0.87044	0.12
Mof_C 	C 	0.2385	0.5636	0.8861	0.189
Mof_C 	C 	0.2278	0.5281	0.8467	-0.235
Mof_C 	C 	0.2565	0.5494	0.8323	0.125
Mof_C 	C 	0.3831	0.685	0.9991	0.242
Mof_C 	C 	0.4245	0.6954	0.0001	-0.281
Mof_C 	C 	0.4142	0.68473	0.95533	0.159
Mof_C 	C 	0.5571	0.7962	0.0463	0.053
Mof_C 	C 	0.5726	0.793	0.0128	-0.073
Mof_C 	C 	0.5732	0.8239	0.9971	0.064
Mof_C 	C 	0.4332	0.8014	0.0266	0.21
Mof_C 	C 	0.4011	0.7936	0.9893	-0.242
Mof_C 	C 	0.4238	0.817	0.972	0.131
Mof_C 	C 	0.57137	0.9332	0.13857	0.157
Mof_C 	C 	0.5871	0.9746	0.1403	-0.17
Mof_C 	C 	0.5727	0.9649	0.0958	0.083
Mof_C 	C 	0.9267	0.92637	0.34687	-0.108
Mof_C 	C 	0.00413	0.99433	0.4202	-0.104
Mof_C 	C 	0.99333	0.82513	0.20092	-0.093
Mof_C 	C 	0.1074	0.85602	0.3439	-0.099
Mof_C 	C 	0.00367	0.9395	0.34357	-0.108
Mof_C 	C 	0.12367	0.98565	0.31532	-0.082
Mof_C 	C 	0.2256	0.1487	0.4377	0.182
Mof_C 	C 	0.2244	0.1201	0.4553	-0.224
Mof_C 	C 	0.20579	0.07623	0.41842	0.119
Mof_C 	C 	0.2615	0.1476	0.3251	0.189
Mof_C 	C 	0.2722	0.1189	0.3003	-0.236
Mof_C 	C 	0.2435	0.0758	0.2929	0.124
Mof_C 	C 	0.1169	0.116	0.3019	0.179
Mof_C 	C 	0.0755	0.0756	0.2709	-0.215
Mof_C 	C 	0.0858	0.04113	0.27053	0.117
Mof_C 	C 	0.9429	0.9892	0.2391	0.061
Mof_C 	C 	0.9274	0.9402	0.2204	-0.051
Mof_C 	C 	0.9268	0.9239	0.2507	0.036
Mof_C 	C 	0.0668	0.0934	0.3682	0.241
Mof_C 	C 	0.0989	0.0882	0.3925	-0.28
Mof_C 	C 	0.0762	0.0482	0.3932	0.144
Mof_C 	C 	0.92863	0.0672	0.36183	0.177
Mof_C 	C 	0.9129	0.0532	0.3875	-0.213
Mof_C 	C 	0.9273	0.0231	0.3922	0.104
Mof_C 	C 	0.0795	0.57983	0.15313	-0.111
Mof_C 	C 	0.07413	0.58393	0.0798	-0.111
Mof_C 	C 	0.12421	0.79241	0.29908	-0.109
Mof_C 	C 	0.01212	0.7635	0.1561	-0.111
Mof_C 	C 	0.09593	0.6601	0.15643	-0.099
Mof_C 	C 	0.17033	0.80835	0.18468	-0.097
Mof_C 	C 	0.211	0.7879	0.0623	0.181
Mof_C 	C 	0.1648	0.7691	0.0447	-0.224
Mof_C 	C 	0.15781	0.78737	0.08158	0.119
Mof_C 	C 	0.3225	0.9364	0.1749	0.171
Mof_C 	C 	0.3186	0.9719	0.1997	-0.195
Mof_C 	C 	0.2829	0.9506	0.2071	0.108
Mof_C 	C 	0.3141	0.815	0.1981	0.179
Mof_C 	C 	0.3047	0.8046	0.2291	-0.214
Mof_C 	C 	0.2706	0.81527	0.22947	0.119
Mof_C 	C 	0.2501	0.7038	0.2609	0.051
Mof_C 	C 	0.2198	0.707	0.2796	-0.052
Mof_C 	C 	0.1732	0.6761	0.2493	0.033
Mof_C 	C 	0.2252	0.6986	0.1318	0.241
Mof_C 	C 	0.1957	0.7064	0.1075	-0.278
Mof_C 	C 	0.155	0.683	0.1068	0.144
Mof_C 	C 	0.20537	0.5668	0.13817	0.175
Mof_C 	C 	0.1657	0.5254	0.1125	-0.211
Mof_C 	C 	0.1309	0.5351	0.1078	0.102
Mof_C 	C 	0.84687	0.9267	0.42637	-0.108
Mof_C 	C 	0.9202	0.00413	0.49433	-0.119
Mof_C 	C 	0.70092	0.99333	0.32513	-0.092
Mof_C 	C 	0.8439	0.1074	0.35602	-0.1
Mof_C 	C 	0.84357	0.00367	0.4395	-0.109
Mof_C 	C 	0.81532	0.12367	0.48565	-0.097
Mof_C 	C 	0.9377	0.2256	0.6487	0.183
Mof_C 	C 	0.9553	0.2244	0.6201	-0.222
Mof_C 	C 	0.91842	0.20579	0.57623	0.121
Mof_C 	C 	0.8251	0.2615	0.6476	0.19
Mof_C 	C 	0.8003	0.2722	0.6189	-0.235
Mof_C 	C 	0.7929	0.2435	0.5758	0.125
Mof_C 	C 	0.8019	0.1169	0.616	0.179
Mof_C 	C 	0.7709	0.0755	0.5756	-0.215
Mof_C 	C 	0.77053	0.0858	0.54113	0.119
Mof_C 	C 	0.7391	0.9429	0.4892	0.055
Mof_C 	C 	0.7204	0.9274	0.4402	-0.051
Mof_C 	C 	0.7507	0.9268	0.4239	0.035
Mof_C 	C 	0.8682	0.0668	0.5934	0.243
Mof_C 	C 	0.8925	0.0989	0.5882	-0.279
Mof_C 	C 	0.8932	0.0762	0.5482	0.146
Mof_C 	C 	0.86183	0.92863	0.5672	0.18
Mof_C 	C 	0.8875	0.9129	0.5532	-0.213
Mof_C 	C 	0.8922	0.9273	0.5231	0.107
Mof_C 	C 	0.65313	0.0795	0.07983	-0.113
Mof_C 	C 	0.5798	0.07413	0.08393	-0.112
Mof_C 	C 	0.79908	0.12421	0.29241	-0.109
Mof_C 	C 	0.6561	0.01212	0.2635	-0.113
Mof_C 	C 	0.65643	0.09593	0.1601	-0.099
Mof_C 	C 	0.68468	0.17033	0.30835	-0.097
Mof_C 	C 	0.5623	0.211	0.2879	0.182
Mof_C 	C 	0.5447	0.1648	0.2691	-0.224
Mof_C 	C 	0.58158	0.15781	0.28737	0.12
Mof_C 	C 	0.6749	0.3225	0.4364	0.189
Mof_C 	C 	0.6997	0.3186	0.4719	-0.235
Mof_C 	C 	0.7071	0.2829	0.4506	0.125
Mof_C 	C 	0.6981	0.3141	0.315	0.179
Mof_C 	C 	0.7291	0.3047	0.3046	-0.214
Mof_C 	C 	0.72947	0.2706	0.31527	0.119
Mof_C 	C 	0.7609	0.2501	0.2038	0.051
Mof_C 	C 	0.7796	0.2198	0.207	-0.052
Mof_C 	C 	0.7493	0.1732	0.1761	0.033
Mof_C 	C 	0.6318	0.2252	0.1986	0.241
Mof_C 	C 	0.6075	0.1957	0.2064	-0.278
Mof_C 	C 	0.6068	0.155	0.183	0.144
Mof_C 	C 	0.63817	0.20537	0.0668	0.195
Mof_C 	C 	0.6125	0.1657	0.0254	-0.254
Mof_C 	C 	0.6078	0.1309	0.0351	0.122
Mof_C 	C 	0.00033	0.4205	0.07363	-0.123
Mof_C 	C 	0.0098	0.42587	0.00567	-0.135
Mof_C 	C 	0.1682	0.37579	0.17487	-0.109
Mof_C 	C 	0.25138	0.48788	0.14398	-0.099
Mof_C 	C 	0.06417	0.40407	0.0605	-0.107
Mof_C 	C 	0.13802	0.32967	0.01435	-0.109
Mof_C 	C 	0.0769	0.289	0.8513	0.181
Mof_C 	C 	0.1043	0.3352	0.8799	-0.223
Mof_C 	C 	0.12956	0.34219	0.92377	0.12
Mof_C 	C 	0.1139	0.1775	0.8524	0.189
Mof_C 	C 	0.1533	0.1814	0.8811	-0.234
Mof_C 	C 	0.1677	0.2171	0.9242	0.125
Mof_C 	C 	0.0009	0.1859	0.884	0.107
Mof_C 	C 	0.9999	0.1953	0.9244	-0.136
Mof_C 	C 	0.04467	0.2294	0.95887	0.074
Mof_C 	C 	0.9537	0.2499	0.0108	0.042
Mof_C 	C 	0.9872	0.2802	0.0598	-0.032
Mof_C 	C 	0.0029	0.3268	0.0761	0.003
Mof_C 	C 	0.9734	0.2748	0.9066	0.282
Mof_C 	C 	0.0107	0.3043	0.9118	-0.32
Mof_C 	C 	0.028	0.345	0.9518	0.162
Mof_C 	C 	0.86143	0.29463	0.9328	0.18
Mof_C 	C 	0.8597	0.3343	0.9468	-0.212
Mof_C 	C 	0.9042	0.3691	0.9769	0.108
Mof_C 	C 	0.49967	0.5733	0.42017	-0.109
Mof_C 	C 	0.4902	0.49587	0.41607	-0.108
Mof_C 	C 	0.3318	0.50667	0.20759	-0.108
Mof_C 	C 	0.24862	0.3926	0.2365	-0.099
Mof_C 	C 	0.43583	0.49633	0.3399	-0.097
Mof_C 	C 	0.36198	0.37633	0.19165	-0.096
Mof_C 	C 	0.4231	0.2744	0.2121	0.182
Mof_C 	C 	0.3957	0.2756	0.2309	-0.223
Mof_C 	C 	0.37044	0.29421	0.21263	0.12
Mof_C 	C 	0.3861	0.2385	0.0636	0.206
Mof_C 	C 	0.3467	0.2278	0.0281	-0.274
Mof_C 	C 	0.3323	0.2565	0.0494	0.141
Mof_C 	C 	0.4991	0.3831	0.185	0.179
Mof_C 	C 	0.5001	0.4245	0.1954	-0.214
Mof_C 	C 	0.45533	0.4142	0.18473	0.119
Mof_C 	C 	0.5463	0.5571	0.2962	0.051
Mof_C 	C 	0.5128	0.5726	0.293	-0.052
Mof_C 	C 	0.4971	0.5732	0.3239	0.033
Mof_C 	C 	0.5266	0.4332	0.3014	0.242
Mof_C 	C 	0.4893	0.4011	0.2936	-0.277
Mof_C 	C 	0.472	0.4238	0.317	0.144
Mof_C 	C 	0.63857	0.57137	0.4332	0.176
Mof_C 	C 	0.6403	0.5871	0.4746	-0.211
Mof_C 	C 	0.5958	0.5727	0.4649	0.103
Mof_C 	C 	0.92017	0.49967	0.0733	-0.109
Mof_C 	C 	0.91607	0.4902	0.99587	-0.092
Mof_C 	C 	0.70759	0.3318	0.00667	-0.125
Mof_C 	C 	0.7365	0.24862	0.8926	-0.098
Mof_C 	C 	0.8399	0.43583	0.99633	-0.082
Mof_C 	C 	0.69165	0.36198	0.87633	-0.096
Mof_C 	C 	0.7121	0.4231	0.7744	0.182
Mof_C 	C 	0.7309	0.3957	0.7756	-0.223
Mof_C 	C 	0.71263	0.37044	0.79421	0.12
Mof_C 	C 	0.5636	0.3861	0.7385	0.189
Mof_C 	C 	0.5281	0.3467	0.7278	-0.235
Mof_C 	C 	0.5494	0.3323	0.7565	0.125
Mof_C 	C 	0.685	0.4991	0.8831	0.18
Mof_C 	C 	0.6954	0.5001	0.9245	-0.214
Mof_C 	C 	0.68473	0.45533	0.9142	0.12
Mof_C 	C 	0.7962	0.5463	0.0571	0.047
Mof_C 	C 	0.793	0.5128	0.0726	-0.053
Mof_C 	C 	0.8239	0.4971	0.0732	0.032
Mof_C 	C 	0.8014	0.5266	0.9332	0.24
Mof_C 	C 	0.7936	0.4893	0.9011	-0.274
Mof_C 	C 	0.817	0.472	0.9238	0.143
Mof_C 	C 	0.9332	0.63857	0.07137	0.156
Mof_C 	C 	0.9746	0.6403	0.0871	-0.173
Mof_C 	C 	0.9649	0.5958	0.0727	0.084
Mof_C 	C 	0.57363	0.00033	0.9205	-0.12
Mof_C 	C 	0.50567	0.0098	0.92587	-0.117
Mof_C 	C 	0.67487	0.1682	0.87579	-0.107
Mof_C 	C 	0.64398	0.25138	0.98788	-0.084
Mof_C 	C 	0.5605	0.06417	0.90407	-0.104
Mof_C 	C 	0.51435	0.13802	0.82967	-0.096
Mof_C 	C 	0.3513	0.0769	0.789	0.181
Mof_C 	C 	0.3799	0.1043	0.8352	-0.223
Mof_C 	C 	0.42377	0.12956	0.84219	0.12
Mof_C 	C 	0.3524	0.1139	0.6775	0.189
Mof_C 	C 	0.3811	0.1533	0.6814	-0.235
Mof_C 	C 	0.4242	0.1677	0.7171	0.125
Mof_C 	C 	0.384	0.0009	0.6859	0.117
Mof_C 	C 	0.4244	0.9999	0.6953	-0.148
Mof_C 	C 	0.45887	0.04467	0.7294	0.08
Mof_C 	C 	0.5108	0.9537	0.7499	0.049
Mof_C 	C 	0.5598	0.9872	0.7802	-0.031
Mof_C 	C 	0.5761	0.0029	0.8268	0.004
Mof_C 	C 	0.4066	0.9734	0.7748	0.273
Mof_C 	C 	0.4118	0.0107	0.8043	-0.312
Mof_C 	C 	0.4518	0.028	0.845	0.158
Mof_C 	C 	0.4328	0.86143	0.79463	0.177
Mof_C 	C 	0.4468	0.8597	0.8343	-0.212
Mof_C 	C 	0.4769	0.9042	0.8691	0.106
Mof_C 	C 	0.57983	0.65313	0.5795	-0.109
Mof_C 	C 	0.58393	0.5798	0.57413	-0.108
Mof_C 	C 	0.79241	0.79908	0.62421	-0.108
Mof_C 	C 	0.7635	0.6561	0.51212	-0.099
Mof_C 	C 	0.6601	0.65643	0.59593	-0.097
Mof_C 	C 	0.80835	0.68468	0.67033	-0.096
Mof_C 	C 	0.7879	0.5623	0.711	0.182
Mof_C 	C 	0.7691	0.5447	0.6648	-0.223
Mof_C 	C 	0.78737	0.58158	0.65781	0.12
Mof_C 	C 	0.9364	0.6749	0.8225	0.171
Mof_C 	C 	0.9719	0.6997	0.8186	-0.193
Mof_C 	C 	0.9506	0.7071	0.7829	0.108
Mof_C 	C 	0.815	0.6981	0.8141	0.18
Mof_C 	C 	0.8046	0.7291	0.8047	-0.214
Mof_C 	C 	0.81527	0.72947	0.7706	0.12
Mof_C 	C 	0.7038	0.7609	0.7501	0.052
Mof_C 	C 	0.707	0.7796	0.7198	-0.051
Mof_C 	C 	0.6761	0.7493	0.6732	0.033
Mof_C 	C 	0.6986	0.6318	0.7252	0.241
Mof_C 	C 	0.7064	0.6075	0.6957	-0.277
Mof_C 	C 	0.683	0.6068	0.655	0.144
Mof_C 	C 	0.5668	0.63817	0.70537	0.176
Mof_C 	C 	0.5254	0.6125	0.6657	-0.211
Mof_C 	C 	0.5351	0.6078	0.6309	0.103
Mof_C 	C 	0.92637	0.84687	0.4267	-0.109
Mof_C 	C 	0.99433	0.9202	0.50413	-0.091
Mof_C 	C 	0.82513	0.70092	0.49333	-0.108
Mof_C 	C 	0.85602	0.8439	0.6074	-0.099
Mof_C 	C 	0.9395	0.84357	0.50367	-0.096
Mof_C 	C 	0.98565	0.81532	0.62367	-0.082
Mof_C 	C 	0.1487	0.9377	0.7256	0.183
Mof_C 	C 	0.1201	0.9553	0.7244	-0.223
Mof_C 	C 	0.07623	0.91842	0.70579	0.12
Mof_C 	C 	0.1476	0.8251	0.7615	0.19
Mof_C 	C 	0.1189	0.8003	0.7722	-0.235
Mof_C 	C 	0.0758	0.7929	0.7435	0.124
Mof_C 	C 	0.116	0.8019	0.6169	0.179
Mof_C 	C 	0.0756	0.7709	0.5755	-0.215
Mof_C 	C 	0.04113	0.77053	0.5858	0.118
Mof_C 	C 	0.9892	0.7391	0.4429	0.058
Mof_C 	C 	0.9402	0.7204	0.4274	-0.051
Mof_C 	C 	0.9239	0.7507	0.4268	0.034
Mof_C 	C 	0.0934	0.8682	0.5668	0.24
Mof_C 	C 	0.0882	0.8925	0.5989	-0.277
Mof_C 	C 	0.0482	0.8932	0.5762	0.143
Mof_C 	C 	0.0672	0.86183	0.42863	0.174
Mof_C 	C 	0.0532	0.8875	0.4129	-0.211
Mof_C 	C 	0.0231	0.8922	0.4273	0.102
Mof_C 	C 	0.42017	0.0733	0.49967	-0.11
Mof_C 	C 	0.41607	0.99587	0.4902	-0.094
Mof_C 	C 	0.20759	0.00667	0.3318	-0.124
Mof_C 	C 	0.2365	0.8926	0.24862	-0.098
Mof_C 	C 	0.3399	0.99633	0.43583	-0.084
Mof_C 	C 	0.19165	0.87633	0.36198	-0.096
Mof_C 	C 	0.2121	0.7744	0.4231	0.182
Mof_C 	C 	0.2309	0.7756	0.3957	-0.223
Mof_C 	C 	0.21263	0.79421	0.37044	0.12
Mof_C 	C 	0.0636	0.7385	0.3861	0.206
Mof_C 	C 	0.0281	0.7278	0.3467	-0.272
Mof_C 	C 	0.0494	0.7565	0.3323	0.141
Mof_C 	C 	0.185	0.8831	0.4991	0.18
Mof_C 	C 	0.1954	0.9245	0.5001	-0.214
Mof_C 	C 	0.18473	0.9142	0.45533	0.12
Mof_C 	C 	0.2962	0.0571	0.5463	0.047
Mof_C 	C 	0.293	0.0726	0.5128	-0.053
Mof_C 	C 	0.3239	0.0732	0.4971	0.031
Mof_C 	C 	0.3014	0.9332	0.5266	0.24
Mof_C 	C 	0.2936	0.9011	0.4893	-0.275
Mof_C 	C 	0.317	0.9238	0.472	0.143
Mof_C 	C 	0.4332	0.07137	0.63857	0.173
Mof_C 	C 	0.4746	0.0871	0.6403	-0.21
Mof_C 	C 	0.4649	0.0727	0.5958	0.1
Mof_C 	C 	0.07363	0.9205	0.00033	-0.119
Mof_C 	C 	0.00567	0.92587	0.0098	-0.129
Mof_C 	C 	0.17487	0.87579	0.1682	-0.108
Mof_C 	C 	0.14398	0.98788	0.25138	-0.085
Mof_C 	C 	0.0605	0.90407	0.06417	-0.104
Mof_C 	C 	0.01435	0.82967	0.13802	-0.108
Mof_C 	C 	0.8513	0.789	0.0769	0.181
Mof_C 	C 	0.8799	0.8352	0.1043	-0.223
Mof_C 	C 	0.92377	0.84219	0.12956	0.121
Mof_C 	C 	0.8524	0.6775	0.1139	0.189
Mof_C 	C 	0.8811	0.6814	0.1533	-0.234
Mof_C 	C 	0.9242	0.7171	0.1677	0.126
Mof_C 	C 	0.884	0.6859	0.0009	0.111
Mof_C 	C 	0.9244	0.6953	0.9999	-0.14
Mof_C 	C 	0.95887	0.7294	0.04467	0.077
Mof_C 	C 	0.0108	0.7499	0.9537	0.043
Mof_C 	C 	0.0598	0.7802	0.9872	-0.034
Mof_C 	C 	0.0761	0.8268	0.0029	0.007
Mof_C 	C 	0.9066	0.7748	0.9734	0.279
Mof_C 	C 	0.9118	0.8043	0.0107	-0.316
Mof_C 	C 	0.9518	0.845	0.028	0.161
Mof_C 	C 	0.9328	0.79463	0.86143	0.18
Mof_C 	C 	0.9468	0.8343	0.8597	-0.212
Mof_C 	C 	0.9769	0.8691	0.9042	0.108
Mof_C 	C 	0.07983	0.5795	0.65313	-0.111
Mof_C 	C 	0.08393	0.57413	0.5798	-0.11
Mof_C 	C 	0.29241	0.62421	0.79908	-0.108
Mof_C 	C 	0.2635	0.51212	0.6561	-0.099
Mof_C 	C 	0.1601	0.59593	0.65643	-0.098
Mof_C 	C 	0.30835	0.67033	0.68468	-0.096
Mof_C 	C 	0.2879	0.711	0.5623	0.182
Mof_C 	C 	0.2691	0.6648	0.5447	-0.223
Mof_C 	C 	0.28737	0.65781	0.58158	0.12
Mof_C 	C 	0.4364	0.8225	0.6749	0.189
Mof_C 	C 	0.4719	0.8186	0.6997	-0.235
Mof_C 	C 	0.4506	0.7829	0.7071	0.125
Mof_C 	C 	0.315	0.8141	0.6981	0.18
Mof_C 	C 	0.3046	0.8047	0.7291	-0.214
Mof_C 	C 	0.31527	0.7706	0.72947	0.12
Mof_C 	C 	0.2038	0.7501	0.7609	0.052
Mof_C 	C 	0.207	0.7198	0.7796	-0.052
Mof_C 	C 	0.1761	0.6732	0.7493	0.033
Mof_C 	C 	0.1986	0.7252	0.6318	0.241
Mof_C 	C 	0.2064	0.6957	0.6075	-0.278
Mof_C 	C 	0.183	0.655	0.6068	0.144
Mof_C 	C 	0.0668	0.70537	0.63817	0.195
Mof_C 	C 	0.0254	0.6657	0.6125	-0.253
Mof_C 	C 	0.0351	0.6309	0.6078	0.122
Mof_C 	C 	0.42637	0.4267	0.84687	-0.109
Mof_C 	C 	0.49433	0.50413	0.9202	-0.107
Mof_C 	C 	0.32513	0.49333	0.70092	-0.108
Mof_C 	C 	0.35602	0.6074	0.8439	-0.099
Mof_C 	C 	0.4395	0.50367	0.84357	-0.097
Mof_C 	C 	0.48565	0.62367	0.81532	-0.096
Mof_C 	C 	0.6487	0.7256	0.9377	0.183
Mof_C 	C 	0.6201	0.7244	0.9553	-0.222
Mof_C 	C 	0.57623	0.70579	0.91842	0.121
Mof_C 	C 	0.6476	0.7615	0.8251	0.19
Mof_C 	C 	0.6189	0.7722	0.8003	-0.234
Mof_C 	C 	0.5758	0.7435	0.7929	0.125
Mof_C 	C 	0.616	0.6169	0.8019	0.179
Mof_C 	C 	0.5756	0.5755	0.7709	-0.214
Mof_C 	C 	0.54113	0.5858	0.77053	0.119
Mof_C 	C 	0.4892	0.4429	0.7391	0.051
Mof_C 	C 	0.4402	0.4274	0.7204	-0.052
Mof_C 	C 	0.4239	0.4268	0.7507	0.033
Mof_C 	C 	0.5934	0.5668	0.8682	0.242
Mof_C 	C 	0.5882	0.5989	0.8925	-0.277
Mof_C 	C 	0.5482	0.5762	0.8932	0.145
Mof_C 	C 	0.5672	0.42863	0.86183	0.177
Mof_C 	C 	0.5532	0.4129	0.8875	-0.211
Mof_C 	C 	0.5231	0.4273	0.8922	0.104
Mof_C 	C 	0.9205	0.50033	0.57363	-0.108
Mof_C 	C 	0.92587	0.5098	0.50567	-0.106
Mof_C 	C 	0.87579	0.6682	0.67487	-0.107
Mof_C 	C 	0.98788	0.75138	0.64398	-0.085
Mof_C 	C 	0.90407	0.56417	0.5605	-0.095
Mof_C 	C 	0.82967	0.63802	0.51435	-0.096
Mof_C 	C 	0.789	0.5769	0.3513	0.182
Mof_C 	C 	0.8352	0.6043	0.3799	-0.223
Mof_C 	C 	0.84219	0.62956	0.42377	0.12
Mof_C 	C 	0.6775	0.6139	0.3524	0.189
Mof_C 	C 	0.6814	0.6533	0.3811	-0.235
Mof_C 	C 	0.7171	0.6677	0.4242	0.125
Mof_C 	C 	0.6859	0.5009	0.384	0.179
Mof_C 	C 	0.6953	0.4999	0.4244	-0.214
Mof_C 	C 	0.7294	0.54467	0.45887	0.119
Mof_C 	C 	0.7499	0.4537	0.5108	0.051
Mof_C 	C 	0.7802	0.4872	0.5598	-0.052
Mof_C 	C 	0.8268	0.5029	0.5761	0.033
Mof_C 	C 	0.7748	0.4734	0.4066	0.241
Mof_C 	C 	0.8043	0.5107	0.4118	-0.277
Mof_C 	C 	0.845	0.528	0.4518	0.144
Mof_C 	C 	0.79463	0.36143	0.4328	0.176
Mof_C 	C 	0.8343	0.3597	0.4468	-0.211
Mof_C 	C 	0.8691	0.4042	0.4769	0.104
Mof_C 	C 	0.0733	0.99967	0.92017	-0.096
Mof_C 	C 	0.99587	0.9902	0.91607	-0.081
Mof_C 	C 	0.00667	0.8318	0.70759	-0.124
Mof_C 	C 	0.8926	0.74862	0.7365	-0.098
Mof_C 	C 	0.99633	0.93583	0.8399	-0.073
Mof_C 	C 	0.87633	0.86198	0.69165	-0.096
Mof_C 	C 	0.7744	0.9231	0.7121	0.184
Mof_C 	C 	0.7756	0.8957	0.7309	-0.223
Mof_C 	C 	0.79421	0.87044	0.71263	0.121
Mof_C 	C 	0.7385	0.8861	0.5636	0.19
Mof_C 	C 	0.7278	0.8467	0.5281	-0.235
Mof_C 	C 	0.7565	0.8323	0.5494	0.125
Mof_C 	C 	0.8831	0.9991	0.685	0.238
Mof_C 	C 	0.9245	0.0001	0.6954	-0.276
Mof_C 	C 	0.9142	0.95533	0.68473	0.157
Mof_C 	C 	0.0571	0.0463	0.7962	0.049
Mof_C 	C 	0.0726	0.0128	0.793	-0.073
Mof_C 	C 	0.0732	0.9971	0.8239	0.061
Mof_C 	C 	0.9332	0.0266	0.8014	0.21
Mof_C 	C 	0.9011	0.9893	0.7936	-0.242
Mof_C 	C 	0.9238	0.972	0.817	0.13
Mof_C 	C 	0.07137	0.13857	0.9332	0.154
Mof_C 	C 	0.0871	0.1403	0.9746	-0.17
Mof_C 	C 	0.0727	0.0958	0.9649	0.081
Mof_C 	C 	0.4267	0.34687	0.92637	-0.109
Mof_C 	C 	0.50413	0.4202	0.99433	-0.091
Mof_C 	C 	0.49333	0.20092	0.82513	-0.107
Mof_C 	C 	0.6074	0.3439	0.85602	-0.099
Mof_C 	C 	0.50367	0.34357	0.9395	-0.096
Mof_C 	C 	0.62367	0.31532	0.98565	-0.081
Mof_C 	C 	0.7256	0.4377	0.1487	0.182
Mof_C 	C 	0.7244	0.4553	0.1201	-0.223
Mof_C 	C 	0.70579	0.41842	0.07623	0.119
Mof_C 	C 	0.7615	0.3251	0.1476	0.189
Mof_C 	C 	0.7722	0.3003	0.1189	-0.235
Mof_C 	C 	0.7435	0.2929	0.0758	0.124
Mof_C 	C 	0.6169	0.3019	0.116	0.179
Mof_C 	C 	0.5755	0.2709	0.0756	-0.215
Mof_C 	C 	0.5858	0.27053	0.04113	0.118
Mof_C 	C 	0.4429	0.2391	0.9892	0.058
Mof_C 	C 	0.4274	0.2204	0.9402	-0.052
Mof_C 	C 	0.4268	0.2507	0.9239	0.034
Mof_C 	C 	0.5668	0.3682	0.0934	0.239
Mof_C 	C 	0.5989	0.3925	0.0882	-0.277
Mof_C 	C 	0.5762	0.3932	0.0482	0.143
Mof_C 	C 	0.42863	0.36183	0.0672	0.174
Mof_C 	C 	0.4129	0.3875	0.0532	-0.211
Mof_C 	C 	0.4273	0.3922	0.0231	0.101
Mof_C 	C 	0.5795	0.15313	0.57983	-0.11
Mof_C 	C 	0.57413	0.0798	0.58393	-0.109
Mof_C 	C 	0.62421	0.29908	0.79241	-0.108
Mof_C 	C 	0.51212	0.1561	0.7635	-0.099
Mof_C 	C 	0.59593	0.15643	0.6601	-0.097
Mof_C 	C 	0.67033	0.18468	0.80835	-0.096
Mof_C 	C 	0.711	0.0623	0.7879	0.182
Mof_C 	C 	0.6648	0.0447	0.7691	-0.224
Mof_C 	C 	0.65781	0.08158	0.78737	0.119
Mof_C 	C 	0.8225	0.1749	0.9364	0.17
Mof_C 	C 	0.8186	0.1997	0.9719	-0.193
Mof_C 	C 	0.7829	0.2071	0.9506	0.107
Mof_C 	C 	0.8141	0.1981	0.815	0.179
Mof_C 	C 	0.8047	0.2291	0.8046	-0.214
Mof_C 	C 	0.7706	0.22947	0.81527	0.12
Mof_C 	C 	0.7501	0.2609	0.7038	0.052
Mof_C 	C 	0.7198	0.2796	0.707	-0.052
Mof_C 	C 	0.6732	0.2493	0.6761	0.033
Mof_C 	C 	0.7252	0.1318	0.6986	0.241
Mof_C 	C 	0.6957	0.1075	0.7064	-0.278
Mof_C 	C 	0.655	0.1068	0.683	0.144
Mof_C 	C 	0.70537	0.13817	0.5668	0.175
Mof_C 	C 	0.6657	0.1125	0.5254	-0.211
Mof_C 	C 	0.6309	0.1078	0.5351	0.102
Mof_C 	C 	0.34687	0.42637	0.9267	-0.109
Mof_C 	C 	0.4202	0.49433	0.00413	-0.121
Mof_C 	C 	0.20092	0.32513	0.99333	-0.092
Mof_C 	C 	0.3439	0.35602	0.1074	-0.1
Mof_C 	C 	0.34357	0.4395	0.00367	-0.11
Mof_C 	C 	0.31532	0.48565	0.12367	-0.097
Mof_C 	C 	0.4377	0.6487	0.2256	0.182
Mof_C 	C 	0.4553	0.6201	0.2244	-0.223
Mof_C 	C 	0.41842	0.57623	0.20579	0.12
Mof_C 	C 	0.3251	0.6476	0.2615	0.189
Mof_C 	C 	0.3003	0.6189	0.2722	-0.235
Mof_C 	C 	0.2929	0.5758	0.2435	0.125
Mof_C 	C 	0.3019	0.616	0.1169	0.179
Mof_C 	C 	0.2709	0.5756	0.0755	-0.215
Mof_C 	C 	0.27053	0.54113	0.0858	0.119
Mof_C 	C 	0.2391	0.4892	0.9429	0.054
Mof_C 	C 	0.2204	0.4402	0.9274	-0.051
Mof_C 	C 	0.2507	0.4239	0.9268	0.035
Mof_C 	C 	0.3682	0.5934	0.0668	0.243
Mof_C 	C 	0.3925	0.5882	0.0989	-0.28
Mof_C 	C 	0.3932	0.5482	0.0762	0.146
Mof_C 	C 	0.36183	0.5672	0.92863	0.179
Mof_C 	C 	0.3875	0.5532	0.9129	-0.213
Mof_C 	C 	0.3922	0.5231	0.9273	0.106
Mof_C 	C 	0.15313	0.07983	0.0795	-0.113
Mof_C 	C 	0.0798	0.08393	0.07413	-0.113
Mof_C 	C 	0.29908	0.29241	0.12421	-0.109
Mof_C 	C 	0.1561	0.2635	0.01212	-0.112
Mof_C 	C 	0.15643	0.1601	0.09593	-0.1
Mof_C 	C 	0.18468	0.30835	0.17033	-0.097
Mof_C 	C 	0.0623	0.2879	0.211	0.181
Mof_C 	C 	0.0447	0.2691	0.1648	-0.224
Mof_C 	C 	0.08158	0.28737	0.15781	0.119
Mof_C 	C 	0.1749	0.4364	0.3225	0.189
Mof_C 	C 	0.1997	0.4719	0.3186	-0.235
Mof_C 	C 	0.2071	0.4506	0.2829	0.125
Mof_C 	C 	0.1981	0.315	0.3141	0.179
Mof_C 	C 	0.2291	0.3046	0.3047	-0.214
Mof_C 	C 	0.22947	0.31527	0.2706	0.119
Mof_C 	C 	0.2609	0.2038	0.2501	0.051
Mof_C 	C 	0.2796	0.207	0.2198	-0.053
Mof_C 	C 	0.2493	0.1761	0.1732	0.033
Mof_C 	C 	0.1318	0.1986	0.2252	0.241
Mof_C 	C 	0.1075	0.2064	0.1957	-0.279
Mof_C 	C 	0.1068	0.183	0.155	0.144
Mof_C 	C 	0.13817	0.0668	0.20537	0.194
Mof_C 	C 	0.1125	0.0254	0.1657	-0.254
Mof_C 	C 	0.1078	0.0351	0.1309	0.121
Mof_C 	C 	0.50033	0.07363	0.4205	-0.11
Mof_C 	C 	0.5098	0.00567	0.42587	-0.124
Mof_C 	C 	0.6682	0.17487	0.37579	-0.108
Mof_C 	C 	0.75138	0.14398	0.48788	-0.1
Mof_C 	C 	0.56417	0.0605	0.40407	-0.098
Mof_C 	C 	0.63802	0.01435	0.32967	-0.11
Mof_C 	C 	0.5769	0.8513	0.289	0.182
Mof_C 	C 	0.6043	0.8799	0.3352	-0.223
Mof_C 	C 	0.62956	0.92377	0.34219	0.121
Mof_C 	C 	0.6139	0.8524	0.1775	0.189
Mof_C 	C 	0.6533	0.8811	0.1814	-0.235
Mof_C 	C 	0.6677	0.9242	0.2171	0.126
Mof_C 	C 	0.5009	0.884	0.1859	0.18
Mof_C 	C 	0.4999	0.9244	0.1953	-0.214
Mof_C 	C 	0.54467	0.95887	0.2294	0.121
Mof_C 	C 	0.4537	0.0108	0.2499	0.044
Mof_C 	C 	0.4872	0.0598	0.2802	-0.053
Mof_C 	C 	0.5029	0.0761	0.3268	0.032
Mof_C 	C 	0.4734	0.9066	0.2748	0.244
Mof_C 	C 	0.5107	0.9118	0.3043	-0.278
Mof_C 	C 	0.528	0.9518	0.345	0.146
Mof_C 	C 	0.36143	0.9328	0.29463	0.178
Mof_C 	C 	0.3597	0.9468	0.3343	-0.211
Mof_C 	C 	0.4042	0.9769	0.3691	0.105
Mof_C 	C 	0.99967	0.42017	0.5733	-0.095
Mof_C 	C 	0.9902	0.41607	0.49587	-0.094
Mof_C 	C 	0.8318	0.20759	0.50667	-0.107
Mof_C 	C 	0.74862	0.2365	0.3926	-0.099
Mof_C 	C 	0.93583	0.3399	0.49633	-0.086
Mof_C 	C 	0.86198	0.19165	0.37633	-0.096
Mof_C 	C 	0.9231	0.2121	0.2744	0.183
Mof_C 	C 	0.8957	0.2309	0.2756	-0.223
Mof_C 	C 	0.87044	0.21263	0.29421	0.12
Mof_C 	C 	0.8861	0.0636	0.2385	0.206
Mof_C 	C 	0.8467	0.0281	0.2278	-0.272
Mof_C 	C 	0.8323	0.0494	0.2565	0.14
Mof_C 	C 	0.9991	0.185	0.3831	0.247
Mof_C 	C 	0.0001	0.1954	0.4245	-0.287
Mof_C 	C 	0.95533	0.18473	0.4142	0.162
Mof_C 	C 	0.0463	0.2962	0.5571	0.053
Mof_C 	C 	0.0128	0.293	0.5726	-0.076
Mof_C 	C 	0.9971	0.3239	0.5732	0.068
Mof_C 	C 	0.0266	0.3014	0.4332	0.206
Mof_C 	C 	0.9893	0.2936	0.4011	-0.238
Mof_C 	C 	0.972	0.317	0.4238	0.129
Mof_C 	C 	0.13857	0.4332	0.57137	0.174
Mof_C 	C 	0.1403	0.4746	0.5871	-0.21
Mof_C 	C 	0.0958	0.4649	0.5727	0.1
Mof_N 	N 	0.44665	0.6042	0.50025	-0.274
Mof_N 	N 	0.45378	0.49566	0.512	-0.273
Mof_N 	N 	0.38657	0.64774	0.65851	-0.274
Mof_N 	N 	0.46064	0.6279	0.7143	-0.278
Mof_N 	N 	0.41546	0.58237	0.60127	-0.263
Mof_N 	N 	0.35849	0.5445	0.64227	-0.278
Mof_N 	N 	0.26876	0.37586	0.58564	-0.373
Mof_N 	N 	0.30167	0.42138	0.61905	-0.175
Mof_N 	N 	0.20785	0.37675	0.60454	-0.383
Mof_N 	N 	0.233	0.42196	0.63922	-0.176
Mof_N 	N 	0.21262	0.39432	0.54356	-0.367
Mof_N 	N 	0.2392	0.44067	0.57091	-0.17
Mof_N 	N 	0.28448	0.50223	0.45479	-0.37
Mof_N 	N 	0.32947	0.53731	0.48608	-0.161
Mof_N 	N 	0.29367	0.44041	0.46584	-0.388
Mof_N 	N 	0.33833	0.4689	0.50033	-0.181
Mof_N 	N 	0.30544	0.45501	0.40533	-0.369
Mof_N 	N 	0.35147	0.48304	0.43283	-0.176
Mof_N 	N 	0.60395	0.9464	0.99975	-0.269
Mof_N 	N 	0.48366	0.94178	0.988	-0.268
Mof_N 	N 	0.48923	0.72806	0.84149	-0.274
Mof_N 	N 	0.4136	0.74634	0.7857	-0.278
Mof_N 	N 	0.4811	0.81419	0.89873	-0.265
Mof_N 	N 	0.40223	0.71622	0.85773	-0.277
Mof_N 	N 	0.29022	0.68312	0.91436	-0.373
Mof_N 	N 	0.30233	0.68262	0.88095	-0.175
Mof_N 	N 	0.27221	0.60331	0.89546	-0.383
Mof_N 	N 	0.28274	0.59378	0.86078	-0.176
Mof_N 	N 	0.35076	0.66906	0.95644	-0.377
Mof_N 	N 	0.36976	0.66829	0.92909	-0.176
Mof_N 	N 	0.54744	0.82969	0.04521	-0.37
Mof_N 	N 	0.55123	0.84339	0.01392	-0.17
Mof_N 	N 	0.47457	0.82783	0.03416	-0.386
Mof_N 	N 	0.46857	0.838	0.99967	-0.169
Mof_N 	N 	0.54968	0.90011	0.09467	-0.365
Mof_N 	N 	0.55021	0.91864	0.06717	-0.172
Mof_N 	N 	0.89605	0.8958	0.34245	-0.272
Mof_N 	N 	0.01634	0.00434	0.45812	-0.285
Mof_N 	N 	0.01077	0.85226	0.23883	-0.285
Mof_N 	N 	0.0864	0.8721	0.33274	-0.278
Mof_N 	N 	0.0189	0.91763	0.33309	-0.261
Mof_N 	N 	0.09777	0.9555	0.31399	-0.279
Mof_N 	N 	0.20978	0.12414	0.3929	-0.373
Mof_N 	N 	0.19767	0.07862	0.38029	-0.175
Mof_N 	N 	0.22779	0.12325	0.3311	-0.382
Mof_N 	N 	0.21726	0.07804	0.31104	-0.175
Mof_N 	N 	0.14924	0.10568	0.3183	-0.367
Mof_N 	N 	0.13024	0.05933	0.29853	-0.17
Mof_N 	N 	0.95256	0.99777	0.28225	-0.365
Mof_N 	N 	0.94877	0.96269	0.29216	-0.16
Mof_N 	N 	0.02543	0.05959	0.35326	-0.394
Mof_N 	N 	0.03143	0.0311	0.36943	-0.191
Mof_N 	N 	0.95032	0.04499	0.35043	-0.369
Mof_N 	N 	0.94979	0.01696	0.36843	-0.181
Mof_N 	N 	0.05335	0.5536	0.15755	-0.276
Mof_N 	N 	0.04622	0.55822	0.04188	-0.278
Mof_N 	N 	0.11343	0.77194	0.26117	-0.275
Mof_N 	N 	0.03936	0.75366	0.16726	-0.277
Mof_N 	N 	0.08454	0.68581	0.16691	-0.264
Mof_N 	N 	0.14151	0.78378	0.18601	-0.278
Mof_N 	N 	0.23124	0.81688	0.1071	-0.373
Mof_N 	N 	0.19833	0.81738	0.11971	-0.175
Mof_N 	N 	0.29215	0.89669	0.1689	-0.379
Mof_N 	N 	0.267	0.90622	0.18896	-0.172
Mof_N 	N 	0.28738	0.83094	0.1817	-0.367
Mof_N 	N 	0.2608	0.83171	0.20147	-0.17
Mof_N 	N 	0.21552	0.67031	0.21775	-0.37
Mof_N 	N 	0.17053	0.65661	0.20784	-0.161
Mof_N 	N 	0.20633	0.67217	0.14674	-0.388
Mof_N 	N 	0.16167	0.662	0.13057	-0.182
Mof_N 	N 	0.19456	0.59989	0.14957	-0.369
Mof_N 	N 	0.14853	0.58136	0.13157	-0.176
Mof_N 	N 	0.84245	0.89605	0.3958	-0.273
Mof_N 	N 	0.95812	0.01634	0.50434	-0.268
Mof_N 	N 	0.73883	0.01077	0.35226	-0.286
Mof_N 	N 	0.83274	0.0864	0.3721	-0.279
Mof_N 	N 	0.83309	0.0189	0.41763	-0.262
Mof_N 	N 	0.81399	0.09777	0.4555	-0.278
Mof_N 	N 	0.8929	0.20978	0.62414	-0.372
Mof_N 	N 	0.88029	0.19767	0.57862	-0.175
Mof_N 	N 	0.8311	0.22779	0.62325	-0.382
Mof_N 	N 	0.81104	0.21726	0.57804	-0.175
Mof_N 	N 	0.8183	0.14924	0.60568	-0.367
Mof_N 	N 	0.79853	0.13024	0.55933	-0.17
Mof_N 	N 	0.78225	0.95256	0.49777	-0.372
Mof_N 	N 	0.79216	0.94877	0.46269	-0.162
Mof_N 	N 	0.85326	0.02543	0.55959	-0.396
Mof_N 	N 	0.86943	0.03143	0.5311	-0.186
Mof_N 	N 	0.85043	0.95032	0.54499	-0.371
Mof_N 	N 	0.86843	0.94979	0.51696	-0.176
Mof_N 	N 	0.65755	0.05335	0.0536	-0.279
Mof_N 	N 	0.54188	0.04622	0.05822	-0.277
Mof_N 	N 	0.76117	0.11343	0.27194	-0.275
Mof_N 	N 	0.66726	0.03936	0.25366	-0.277
Mof_N 	N 	0.66691	0.08454	0.18581	-0.264
Mof_N 	N 	0.68601	0.14151	0.28378	-0.278
Mof_N 	N 	0.6071	0.23124	0.31688	-0.373
Mof_N 	N 	0.61971	0.19833	0.31738	-0.175
Mof_N 	N 	0.6689	0.29215	0.39669	-0.383
Mof_N 	N 	0.68896	0.267	0.40622	-0.176
Mof_N 	N 	0.6817	0.28738	0.33094	-0.367
Mof_N 	N 	0.70147	0.2608	0.33171	-0.17
Mof_N 	N 	0.71775	0.21552	0.17031	-0.37
Mof_N 	N 	0.70784	0.17053	0.15661	-0.162
Mof_N 	N 	0.64674	0.20633	0.17217	-0.388
Mof_N 	N 	0.63057	0.16167	0.162	-0.181
Mof_N 	N 	0.64957	0.19456	0.09989	-0.372
Mof_N 	N 	0.63157	0.14853	0.08136	-0.179
Mof_N 	N 	0.00025	0.44665	0.1042	-0.275
Mof_N 	N 	0.012	0.45378	0.99566	-0.261
Mof_N 	N 	0.15851	0.38657	0.14774	-0.275
Mof_N 	N 	0.2143	0.46064	0.1279	-0.279
Mof_N 	N 	0.10127	0.41546	0.08237	-0.262
Mof_N 	N 	0.14227	0.35849	0.0445	-0.277
Mof_N 	N 	0.08564	0.26876	0.87586	-0.372
Mof_N 	N 	0.11905	0.30167	0.92138	-0.176
Mof_N 	N 	0.10454	0.20785	0.87675	-0.382
Mof_N 	N 	0.13922	0.233	0.92196	-0.176
Mof_N 	N 	0.04356	0.21262	0.89432	-0.355
Mof_N 	N 	0.07091	0.2392	0.94067	-0.162
Mof_N 	N 	0.95479	0.28448	0.00223	-0.378
Mof_N 	N 	0.98608	0.32947	0.03731	-0.154
Mof_N 	N 	0.96584	0.29367	0.94041	-0.392
Mof_N 	N 	0.00033	0.33833	0.9689	-0.189
Mof_N 	N 	0.90533	0.30544	0.95501	-0.371
Mof_N 	N 	0.93283	0.35147	0.98304	-0.17
Mof_N 	N 	0.49975	0.60395	0.4464	-0.274
Mof_N 	N 	0.488	0.48366	0.44178	-0.273
Mof_N 	N 	0.34149	0.48923	0.22806	-0.274
Mof_N 	N 	0.2857	0.4136	0.24634	-0.278
Mof_N 	N 	0.39873	0.4811	0.31419	-0.263
Mof_N 	N 	0.35773	0.40223	0.21622	-0.278
Mof_N 	N 	0.41436	0.29022	0.18312	-0.373
Mof_N 	N 	0.38095	0.30233	0.18262	-0.175
Mof_N 	N 	0.39546	0.27221	0.10331	-0.386
Mof_N 	N 	0.36078	0.28274	0.09378	-0.179
Mof_N 	N 	0.45644	0.35076	0.16906	-0.367
Mof_N 	N 	0.42909	0.36976	0.16829	-0.17
Mof_N 	N 	0.54521	0.54744	0.32969	-0.37
Mof_N 	N 	0.51392	0.55123	0.34339	-0.161
Mof_N 	N 	0.53416	0.47457	0.32783	-0.388
Mof_N 	N 	0.49967	0.46857	0.338	-0.181
Mof_N 	N 	0.59467	0.54968	0.40011	-0.369
Mof_N 	N 	0.56717	0.55021	0.41864	-0.176
Mof_N 	N 	0.9464	0.49975	0.10395	-0.272
Mof_N 	N 	0.94178	0.488	0.98366	-0.269
Mof_N 	N 	0.72806	0.34149	0.98923	-0.262
Mof_N 	N 	0.74634	0.2857	0.9136	-0.277
Mof_N 	N 	0.81419	0.39873	0.9811	-0.264
Mof_N 	N 	0.71622	0.35773	0.90223	-0.277
Mof_N 	N 	0.68312	0.41436	0.79022	-0.373
Mof_N 	N 	0.68262	0.38095	0.80233	-0.175
Mof_N 	N 	0.60331	0.39546	0.77221	-0.383
Mof_N 	N 	0.59378	0.36078	0.78274	-0.176
Mof_N 	N 	0.66906	0.45644	0.85076	-0.367
Mof_N 	N 	0.66829	0.42909	0.86976	-0.169
Mof_N 	N 	0.82969	0.54521	0.04744	-0.367
Mof_N 	N 	0.84339	0.51392	0.05123	-0.161
Mof_N 	N 	0.82783	0.53416	0.97457	-0.379
Mof_N 	N 	0.838	0.49967	0.96857	-0.175
Mof_N 	N 	0.90011	0.59467	0.04968	-0.363
Mof_N 	N 	0.91864	0.56717	0.05021	-0.172
Mof_N 	N 	0.6042	0.00025	0.94665	-0.271
Mof_N 	N 	0.49566	0.012	0.95378	-0.268
Mof_N 	N 	0.64774	0.15851	0.88657	-0.274
Mof_N 	N 	0.6279	0.2143	0.96064	-0.28
Mof_N 	N 	0.58237	0.10127	0.91546	-0.26
Mof_N 	N 	0.5445	0.14227	0.85849	-0.278
Mof_N 	N 	0.37586	0.08564	0.76876	-0.372
Mof_N 	N 	0.42138	0.11905	0.80167	-0.175
Mof_N 	N 	0.37675	0.10454	0.70785	-0.382
Mof_N 	N 	0.42196	0.13922	0.733	-0.176
Mof_N 	N 	0.39432	0.04356	0.71262	-0.357
Mof_N 	N 	0.44067	0.07091	0.7392	-0.164
Mof_N 	N 	0.50223	0.95479	0.78448	-0.369
Mof_N 	N 	0.53731	0.98608	0.82947	-0.153
Mof_N 	N 	0.44041	0.96584	0.79367	-0.389
Mof_N 	N 	0.4689	0.00033	0.83833	-0.192
Mof_N 	N 	0.45501	0.90533	0.80544	-0.369
Mof_N 	N 	0.48304	0.93283	0.85147	-0.176
Mof_N 	N 	0.5536	0.65755	0.55335	-0.274
Mof_N 	N 	0.55822	0.54188	0.54622	-0.273
Mof_N 	N 	0.77194	0.76117	0.61343	-0.274
Mof_N 	N 	0.75366	0.66726	0.53936	-0.278
Mof_N 	N 	0.68581	0.66691	0.58454	-0.263
Mof_N 	N 	0.78378	0.68601	0.64151	-0.278
Mof_N 	N 	0.81688	0.6071	0.73124	-0.372
Mof_N 	N 	0.81738	0.61971	0.69833	-0.175
Mof_N 	N 	0.89669	0.6689	0.79215	-0.379
Mof_N 	N 	0.90622	0.68896	0.767	-0.172
Mof_N 	N 	0.83094	0.6817	0.78738	-0.367
Mof_N 	N 	0.83171	0.70147	0.7608	-0.17
Mof_N 	N 	0.67031	0.71775	0.71552	-0.37
Mof_N 	N 	0.65661	0.70784	0.67053	-0.161
Mof_N 	N 	0.67217	0.64674	0.70633	-0.388
Mof_N 	N 	0.662	0.63057	0.66167	-0.181
Mof_N 	N 	0.59989	0.64957	0.69456	-0.369
Mof_N 	N 	0.58136	0.63157	0.64853	-0.176
Mof_N 	N 	0.8958	0.84245	0.39605	-0.273
Mof_N 	N 	0.00434	0.95812	0.51634	-0.281
Mof_N 	N 	0.85226	0.73883	0.51077	-0.274
Mof_N 	N 	0.8721	0.83274	0.5864	-0.278
Mof_N 	N 	0.91763	0.83309	0.5189	-0.262
Mof_N 	N 	0.9555	0.81399	0.59777	-0.279
Mof_N 	N 	0.12414	0.8929	0.70978	-0.372
Mof_N 	N 	0.07862	0.88029	0.69767	-0.175
Mof_N 	N 	0.12325	0.8311	0.72779	-0.382
Mof_N 	N 	0.07804	0.81104	0.71726	-0.175
Mof_N 	N 	0.10568	0.8183	0.64924	-0.367
Mof_N 	N 	0.05933	0.79853	0.63024	-0.17
Mof_N 	N 	0.99777	0.78225	0.45256	-0.362
Mof_N 	N 	0.96269	0.79216	0.44877	-0.16
Mof_N 	N 	0.05959	0.85326	0.52543	-0.386
Mof_N 	N 	0.0311	0.86943	0.53143	-0.186
Mof_N 	N 	0.04499	0.85043	0.45032	-0.366
Mof_N 	N 	0.01696	0.86843	0.44979	-0.181
Mof_N 	N 	0.4464	0.10395	0.49975	-0.276
Mof_N 	N 	0.44178	0.98366	0.488	-0.273
Mof_N 	N 	0.22806	0.98923	0.34149	-0.263
Mof_N 	N 	0.24634	0.9136	0.2857	-0.278
Mof_N 	N 	0.31419	0.9811	0.39873	-0.264
Mof_N 	N 	0.21622	0.90223	0.35773	-0.277
Mof_N 	N 	0.18312	0.79022	0.41436	-0.373
Mof_N 	N 	0.18262	0.80233	0.38095	-0.175
Mof_N 	N 	0.10331	0.77221	0.39546	-0.386
Mof_N 	N 	0.09378	0.78274	0.36078	-0.179
Mof_N 	N 	0.16906	0.85076	0.45644	-0.367
Mof_N 	N 	0.16829	0.86976	0.42909	-0.169
Mof_N 	N 	0.32969	0.04744	0.54521	-0.367
Mof_N 	N 	0.34339	0.05123	0.51392	-0.161
Mof_N 	N 	0.32783	0.97457	0.53416	-0.38
Mof_N 	N 	0.338	0.96857	0.49967	-0.176
Mof_N 	N 	0.40011	0.04968	0.59467	-0.366
Mof_N 	N 	0.41864	0.05021	0.56717	-0.175
Mof_N 	N 	0.1042	0.94665	0.00025	-0.272
Mof_N 	N 	0.99566	0.95378	0.012	-0.259
Mof_N 	N 	0.14774	0.88657	0.15851	-0.274
Mof_N 	N 	0.1279	0.96064	0.2143	-0.28
Mof_N 	N 	0.08237	0.91546	0.10127	-0.261
Mof_N 	N 	0.0445	0.85849	0.14227	-0.277
Mof_N 	N 	0.87586	0.76876	0.08564	-0.372
Mof_N 	N 	0.92138	0.80167	0.11905	-0.176
Mof_N 	N 	0.87675	0.70785	0.10454	-0.382
Mof_N 	N 	0.92196	0.733	0.13922	-0.176
Mof_N 	N 	0.89432	0.71262	0.04356	-0.356
Mof_N 	N 	0.94067	0.7392	0.07091	-0.162
Mof_N 	N 	0.00223	0.78448	0.95479	-0.378
Mof_N 	N 	0.03731	0.82947	0.98608	-0.155
Mof_N 	N 	0.94041	0.79367	0.96584	-0.392
Mof_N 	N 	0.9689	0.83833	0.00033	-0.188
Mof_N 	N 	0.95501	0.80544	0.90533	-0.371
Mof_N 	N 	0.98304	0.85147	0.93283	-0.17
Mof_N 	N 	0.0536	0.55335	0.65755	-0.277
Mof_N 	N 	0.05822	0.54622	0.54188	-0.275
Mof_N 	N 	0.27194	0.61343	0.76117	-0.274
Mof_N 	N 	0.25366	0.53936	0.66726	-0.278
Mof_N 	N 	0.18581	0.58454	0.66691	-0.263
Mof_N 	N 	0.28378	0.64151	0.68601	-0.278
Mof_N 	N 	0.31688	0.73124	0.6071	-0.373
Mof_N 	N 	0.31738	0.69833	0.61971	-0.175
Mof_N 	N 	0.39669	0.79215	0.6689	-0.382
Mof_N 	N 	0.40622	0.767	0.68896	-0.176
Mof_N 	N 	0.33094	0.78738	0.6817	-0.367
Mof_N 	N 	0.33171	0.7608	0.70147	-0.17
Mof_N 	N 	0.17031	0.71552	0.71775	-0.37
Mof_N 	N 	0.15661	0.67053	0.70784	-0.162
Mof_N 	N 	0.17217	0.70633	0.64674	-0.388
Mof_N 	N 	0.162	0.66167	0.63057	-0.181
Mof_N 	N 	0.09989	0.69456	0.64957	-0.372
Mof_N 	N 	0.08136	0.64853	0.63157	-0.179
Mof_N 	N 	0.3958	0.39605	0.84245	-0.274
Mof_N 	N 	0.50434	0.51634	0.95812	-0.269
Mof_N 	N 	0.35226	0.51077	0.73883	-0.275
Mof_N 	N 	0.3721	0.5864	0.83274	-0.278
Mof_N 	N 	0.41763	0.5189	0.83309	-0.263
Mof_N 	N 	0.4555	0.59777	0.81399	-0.277
Mof_N 	N 	0.62414	0.70978	0.8929	-0.372
Mof_N 	N 	0.57862	0.69767	0.88029	-0.175
Mof_N 	N 	0.62325	0.72779	0.8311	-0.382
Mof_N 	N 	0.57804	0.71726	0.81104	-0.175
Mof_N 	N 	0.60568	0.64924	0.8183	-0.367
Mof_N 	N 	0.55933	0.63024	0.79853	-0.17
Mof_N 	N 	0.49777	0.45256	0.78225	-0.37
Mof_N 	N 	0.46269	0.44877	0.79216	-0.162
Mof_N 	N 	0.55959	0.52543	0.85326	-0.388
Mof_N 	N 	0.5311	0.53143	0.86943	-0.181
Mof_N 	N 	0.54499	0.45032	0.85043	-0.368
Mof_N 	N 	0.51696	0.44979	0.86843	-0.176
Mof_N 	N 	0.94665	0.50025	0.6042	-0.271
Mof_N 	N 	0.95378	0.512	0.49566	-0.269
Mof_N 	N 	0.88657	0.65851	0.64774	-0.274
Mof_N 	N 	0.96064	0.7143	0.6279	-0.28
Mof_N 	N 	0.91546	0.60127	0.58237	-0.262
Mof_N 	N 	0.85849	0.64227	0.5445	-0.277
Mof_N 	N 	0.76876	0.58564	0.37586	-0.373
Mof_N 	N 	0.80167	0.61905	0.42138	-0.175
Mof_N 	N 	0.70785	0.60454	0.37675	-0.383
Mof_N 	N 	0.733	0.63922	0.42196	-0.176
Mof_N 	N 	0.71262	0.54356	0.39432	-0.367
Mof_N 	N 	0.7392	0.57091	0.44067	-0.17
Mof_N 	N 	0.78448	0.45479	0.50223	-0.37
Mof_N 	N 	0.82947	0.48608	0.53731	-0.161
Mof_N 	N 	0.79367	0.46584	0.44041	-0.388
Mof_N 	N 	0.83833	0.50033	0.4689	-0.181
Mof_N 	N 	0.80544	0.40533	0.45501	-0.368
Mof_N 	N 	0.85147	0.43283	0.48304	-0.176
Mof_N 	N 	0.10395	0.99975	0.9464	-0.271
Mof_N 	N 	0.98366	0.988	0.94178	-0.268
Mof_N 	N 	0.98923	0.84149	0.72806	-0.262
Mof_N 	N 	0.9136	0.7857	0.74634	-0.277
Mof_N 	N 	0.9811	0.89873	0.81419	-0.267
Mof_N 	N 	0.90223	0.85773	0.71622	-0.277
Mof_N 	N 	0.79022	0.91436	0.68312	-0.373
Mof_N 	N 	0.80233	0.88095	0.68262	-0.175
Mof_N 	N 	0.77221	0.89546	0.60331	-0.383
Mof_N 	N 	0.78274	0.86078	0.59378	-0.176
Mof_N 	N 	0.85076	0.95644	0.66906	-0.377
Mof_N 	N 	0.86976	0.92909	0.66829	-0.175
Mof_N 	N 	0.04744	0.04521	0.82969	-0.367
Mof_N 	N 	0.05123	0.01392	0.84339	-0.17
Mof_N 	N 	0.97457	0.03416	0.82783	-0.377
Mof_N 	N 	0.96857	0.99967	0.838	-0.165
Mof_N 	N 	0.04968	0.09467	0.90011	-0.362
Mof_N 	N 	0.05021	0.06717	0.91864	-0.172
Mof_N 	N 	0.39605	0.34245	0.8958	-0.274
Mof_N 	N 	0.51634	0.45812	0.00434	-0.285
Mof_N 	N 	0.51077	0.23883	0.85226	-0.274
Mof_N 	N 	0.5864	0.33274	0.8721	-0.278
Mof_N 	N 	0.5189	0.33309	0.91763	-0.262
Mof_N 	N 	0.59777	0.31399	0.9555	-0.279
Mof_N 	N 	0.70978	0.3929	0.12414	-0.373
Mof_N 	N 	0.69767	0.38029	0.07862	-0.175
Mof_N 	N 	0.72779	0.3311	0.12325	-0.382
Mof_N 	N 	0.71726	0.31104	0.07804	-0.175
Mof_N 	N 	0.64924	0.3183	0.10568	-0.367
Mof_N 	N 	0.63024	0.29853	0.05933	-0.17
Mof_N 	N 	0.45256	0.28225	0.99777	-0.361
Mof_N 	N 	0.44877	0.29216	0.96269	-0.16
Mof_N 	N 	0.52543	0.35326	0.05959	-0.386
Mof_N 	N 	0.53143	0.36943	0.0311	-0.186
Mof_N 	N 	0.45032	0.35043	0.04499	-0.366
Mof_N 	N 	0.44979	0.36843	0.01696	-0.181
Mof_N 	N 	0.55335	0.15755	0.5536	-0.275
Mof_N 	N 	0.54622	0.04188	0.55822	-0.277
Mof_N 	N 	0.61343	0.26117	0.77194	-0.274
Mof_N 	N 	0.53936	0.16726	0.75366	-0.278
Mof_N 	N 	0.58454	0.16691	0.68581	-0.263
Mof_N 	N 	0.64151	0.18601	0.78378	-0.278
Mof_N 	N 	0.73124	0.1071	0.81688	-0.373
Mof_N 	N 	0.69833	0.11971	0.81738	-0.175
Mof_N 	N 	0.79215	0.1689	0.89669	-0.379
Mof_N 	N 	0.767	0.18896	0.90622	-0.172
Mof_N 	N 	0.78738	0.1817	0.83094	-0.367
Mof_N 	N 	0.7608	0.20147	0.83171	-0.17
Mof_N 	N 	0.71552	0.21775	0.67031	-0.37
Mof_N 	N 	0.67053	0.20784	0.65661	-0.161
Mof_N 	N 	0.70633	0.14674	0.67217	-0.388
Mof_N 	N 	0.66167	0.13057	0.662	-0.181
Mof_N 	N 	0.69456	0.14957	0.59989	-0.369
Mof_N 	N 	0.64853	0.13157	0.58136	-0.176
Mof_N 	N 	0.34245	0.3958	0.89605	-0.273
Mof_N 	N 	0.45812	0.50434	0.01634	-0.272
Mof_N 	N 	0.23883	0.35226	0.01077	-0.285
Mof_N 	N 	0.33274	0.3721	0.0864	-0.279
Mof_N 	N 	0.33309	0.41763	0.0189	-0.262
Mof_N 	N 	0.31399	0.4555	0.09777	-0.278
Mof_N 	N 	0.3929	0.62414	0.20978	-0.373
Mof_N 	N 	0.38029	0.57862	0.19767	-0.175
Mof_N 	N 	0.3311	0.62325	0.22779	-0.382
Mof_N 	N 	0.31104	0.57804	0.21726	-0.176
Mof_N 	N 	0.3183	0.60568	0.14924	-0.367
Mof_N 	N 	0.29853	0.55933	0.13024	-0.17
Mof_N 	N 	0.28225	0.49777	0.95256	-0.372
Mof_N 	N 	0.29216	0.46269	0.94877	-0.162
Mof_N 	N 	0.35326	0.55959	0.02543	-0.396
Mof_N 	N 	0.36943	0.5311	0.03143	-0.186
Mof_N 	N 	0.35043	0.54499	0.95032	-0.371
Mof_N 	N 	0.36843	0.51696	0.94979	-0.176
Mof_N 	N 	0.15755	0.0536	0.05335	-0.279
Mof_N 	N 	0.04188	0.05822	0.04622	-0.281
Mof_N 	N 	0.26117	0.27194	0.11343	-0.275
Mof_N 	N 	0.16726	0.25366	0.03936	-0.277
Mof_N 	N 	0.16691	0.18581	0.08454	-0.264
Mof_N 	N 	0.18601	0.28378	0.14151	-0.278
Mof_N 	N 	0.1071	0.31688	0.23124	-0.373
Mof_N 	N 	0.11971	0.31738	0.19833	-0.176
Mof_N 	N 	0.1689	0.39669	0.29215	-0.383
Mof_N 	N 	0.18896	0.40622	0.267	-0.176
Mof_N 	N 	0.1817	0.33094	0.28738	-0.367
Mof_N 	N 	0.20147	0.33171	0.2608	-0.17
Mof_N 	N 	0.21775	0.17031	0.21552	-0.37
Mof_N 	N 	0.20784	0.15661	0.17053	-0.162
Mof_N 	N 	0.14674	0.17217	0.20633	-0.388
Mof_N 	N 	0.13057	0.162	0.16167	-0.182
Mof_N 	N 	0.14957	0.09989	0.19456	-0.372
Mof_N 	N 	0.13157	0.08136	0.14853	-0.179
Mof_N 	N 	0.50025	0.1042	0.44665	-0.276
Mof_N 	N 	0.512	0.99566	0.45378	-0.26
Mof_N 	N 	0.65851	0.14774	0.38657	-0.275
Mof_N 	N 	0.7143	0.1279	0.46064	-0.279
Mof_N 	N 	0.60127	0.08237	0.41546	-0.264
Mof_N 	N 	0.64227	0.0445	0.35849	-0.276
Mof_N 	N 	0.58564	0.87586	0.26876	-0.373
Mof_N 	N 	0.61905	0.92138	0.30167	-0.176
Mof_N 	N 	0.60454	0.87675	0.20785	-0.383
Mof_N 	N 	0.63922	0.92196	0.233	-0.176
Mof_N 	N 	0.54356	0.89432	0.21262	-0.367
Mof_N 	N 	0.57091	0.94067	0.2392	-0.169
Mof_N 	N 	0.45479	0.00223	0.28448	-0.378
Mof_N 	N 	0.48608	0.03731	0.32947	-0.163
Mof_N 	N 	0.46584	0.94041	0.29367	-0.39
Mof_N 	N 	0.50033	0.9689	0.33833	-0.176
Mof_N 	N 	0.40533	0.95501	0.30544	-0.371
Mof_N 	N 	0.43283	0.98304	0.35147	-0.171
Mof_N 	N 	0.99975	0.4464	0.60395	-0.273
Mof_N 	N 	0.988	0.44178	0.48366	-0.272
Mof_N 	N 	0.84149	0.22806	0.48923	-0.274
Mof_N 	N 	0.7857	0.24634	0.4136	-0.278
Mof_N 	N 	0.89873	0.31419	0.4811	-0.266
Mof_N 	N 	0.85773	0.21622	0.40223	-0.277
Mof_N 	N 	0.91436	0.18312	0.29022	-0.374
Mof_N 	N 	0.88095	0.18262	0.30233	-0.175
Mof_N 	N 	0.89546	0.10331	0.27221	-0.387
Mof_N 	N 	0.86078	0.09378	0.28274	-0.179
Mof_N 	N 	0.95644	0.16906	0.35076	-0.378
Mof_N 	N 	0.92909	0.16829	0.36976	-0.176
Mof_N 	N 	0.04521	0.32969	0.54744	-0.37
Mof_N 	N 	0.01392	0.34339	0.55123	-0.171
Mof_N 	N 	0.03416	0.32783	0.47457	-0.386
Mof_N 	N 	0.99967	0.338	0.46857	-0.168
Mof_N 	N 	0.09467	0.40011	0.54968	-0.368
Mof_N 	N 	0.06717	0.41864	0.55021	-0.175
_end
