data_functionalizedCrystal
_audit_creation_method	'EQeq! by Chris Wilmer'
_symmetry_space_group_name_H-M	'P1'
_symmetry_Int_Tables_number	1
_symmetry_cell_setting	triclinic
loop_
_symmetry_equiv_pos_as_xyz
  x,y,z
_cell_length_a	13.5328
_cell_length_b	13.9111
_cell_length_c	17.7634
_cell_angle_alpha	111.292
_cell_angle_beta	90
_cell_angle_gamma	90
loop_
_atom_site_label
_atom_site_type_symbol
_atom_site_fract_x
_atom_site_fract_y
_atom_site_fract_z
_atom_site_charge
Mof_Ni	Ni	0.01711	0.73855	0.92276	1.102
Mof_Ni	Ni	0.51711	0.26145	0.57724	1.115
Mof_Ni	Ni	0.98289	0.26145	0.07724	1.132
Mof_Ni	Ni	0.48289	0.73855	0.42276	1.117
Mof_Ni	Ni	-0	0	-0	1.047
Mof_Ni	Ni	0.5	0	0.5	1.082
Mof_H 	H 	0.139	0.86	0.0021	0.257
Mof_H 	H 	0.135	0.864	0.923	0.329
Mof_H 	H 	0.8855	0.7022	0.0685	0.005
Mof_H 	H 	0.8585	0.0054	0.1582	-0.047
Mof_H 	H 	0.8224	0.8998	0.2582	0.083
Mof_H 	H 	0.8107	0.7787	0.2135	0.071
Mof_H 	H 	0.6642	0.8025	0.1517	0.057
Mof_H 	H 	0.6775	0.9242	0.1898	0.07
Mof_H 	H 	0.6318	0.0138	0.3435	-0.052
Mof_H 	H 	0.6057	0.7115	0.2529	0.004
Mof_H 	H 	0.1095	0.5375	0.0477	0.029
Mof_H 	H 	0.2718	0.5299	0.2361	0.043
Mof_H 	H 	0.2605	0.7897	0.185	0.051
Mof_H 	H 	0.639	0.14	0.4979	0.292
Mof_H 	H 	0.635	0.136	0.577	0.337
Mof_H 	H 	0.3855	0.2978	0.4315	0.005
Mof_H 	H 	0.3585	0.9946	0.3418	0.082
Mof_H 	H 	0.3224	0.1002	0.2418	0.053
Mof_H 	H 	0.3107	0.2213	0.2865	0.063
Mof_H 	H 	0.1642	0.1975	0.3483	0.053
Mof_H 	H 	0.1775	0.0758	0.3102	0.044
Mof_H 	H 	0.1318	0.9862	0.1565	0.077
Mof_H 	H 	0.1057	0.2885	0.2471	-0.001
Mof_H 	H 	0.6095	0.4625	0.4523	0.047
Mof_H 	H 	0.7718	0.4701	0.2639	0.048
Mof_H 	H 	0.7605	0.2103	0.315	0.045
Mof_H 	H 	0.861	0.14	0.9979	0.322
Mof_H 	H 	0.865	0.136	0.077	0.342
Mof_H 	H 	0.1145	0.2978	0.9315	0.008
Mof_H 	H 	0.1415	0.9946	0.8418	0.079
Mof_H 	H 	0.1776	0.1002	0.7418	0.047
Mof_H 	H 	0.1893	0.2213	0.7865	0.059
Mof_H 	H 	0.3358	0.1975	0.8483	0.067
Mof_H 	H 	0.3225	0.0758	0.8102	0.055
Mof_H 	H 	0.3682	0.9862	0.6565	0.082
Mof_H 	H 	0.3943	0.2885	0.7471	0.008
Mof_H 	H 	0.8905	0.4625	0.9523	0.063
Mof_H 	H 	0.7282	0.4701	0.7639	0.049
Mof_H 	H 	0.7395	0.2103	0.815	0.042
Mof_H 	H 	0.361	0.86	0.5021	0.293
Mof_H 	H 	0.365	0.864	0.423	0.338
Mof_H 	H 	0.6145	0.7022	0.5685	0.007
Mof_H 	H 	0.6415	0.0054	0.6582	-0.051
Mof_H 	H 	0.6776	0.8998	0.7582	0.077
Mof_H 	H 	0.6893	0.7787	0.7135	0.067
Mof_H 	H 	0.8358	0.8025	0.6517	0.071
Mof_H 	H 	0.8225	0.9242	0.6898	0.081
Mof_H 	H 	0.8682	0.0138	0.8435	-0.045
Mof_H 	H 	0.8943	0.7115	0.7529	0.013
Mof_H 	H 	0.3905	0.5375	0.5477	0.046
Mof_H 	H 	0.2282	0.5299	0.7361	0.044
Mof_H 	H 	0.2395	0.7897	0.685	0.049
Mof_C 	C 	0.8899	0.77232	0.07528	0.115
Mof_C 	C 	0.8751	0.938	0.12421	0.198
Mof_C 	C 	0.7986	0.8458	0.20878	-0.059
Mof_C 	C 	0.6891	0.8596	0.19878	-0.042
Mof_C 	C 	0.6157	0.9457	0.33733	0.201
Mof_C 	C 	0.6015	0.7808	0.28787	0.118
Mof_C 	C 	0.1845	0.67074	0.10578	-0.092
Mof_C 	C 	0.15254	0.57016	0.091	0.037
Mof_C 	C 	0.18421	0.51838	0.14024	-0.103
Mof_C 	C 	0.24738	0.56655	0.20475	0.042
Mof_C 	C 	0.2744	0.66919	0.22287	-0.096
Mof_C 	C 	0.24249	0.72047	0.17296	0.034
Mof_C 	C 	0.1533	0.7257	0.05061	0.288
Mof_C 	C 	0.15	0.4092	0.1228	0.344
Mof_C 	C 	0.3333	0.72599	0.29673	0.33
Mof_C 	C 	0.3899	0.22768	0.42472	0.108
Mof_C 	C 	0.3751	0.062	0.37579	-0
Mof_C 	C 	0.2986	0.1542	0.29122	-0.064
Mof_C 	C 	0.1891	0.1404	0.30122	-0.054
Mof_C 	C 	0.1157	0.0543	0.16267	-0.003
Mof_C 	C 	0.1015	0.2192	0.21213	0.108
Mof_C 	C 	0.6845	0.32926	0.39422	-0.097
Mof_C 	C 	0.65254	0.42984	0.409	0.043
Mof_C 	C 	0.68421	0.48162	0.35976	-0.091
Mof_C 	C 	0.74738	0.43345	0.29525	0.043
Mof_C 	C 	0.7744	0.33081	0.27713	-0.094
Mof_C 	C 	0.74249	0.27953	0.32704	0.043
Mof_C 	C 	0.6533	0.2743	0.44939	0.339
Mof_C 	C 	0.65	0.5908	0.3772	0.339
Mof_C 	C 	0.8333	0.27401	0.20327	0.332
Mof_C 	C 	0.1101	0.22768	0.92472	0.107
Mof_C 	C 	0.1249	0.062	0.87579	0
Mof_C 	C 	0.2014	0.1542	0.79122	-0.056
Mof_C 	C 	0.3109	0.1404	0.80122	-0.063
Mof_C 	C 	0.3843	0.0543	0.66267	0.003
Mof_C 	C 	0.3985	0.2192	0.71213	0.113
Mof_C 	C 	0.8155	0.32926	0.89422	-0.101
Mof_C 	C 	0.84746	0.42984	0.909	0.048
Mof_C 	C 	0.81579	0.48162	0.85976	-0.085
Mof_C 	C 	0.75262	0.43345	0.79525	0.045
Mof_C 	C 	0.7256	0.33081	0.77713	-0.096
Mof_C 	C 	0.75751	0.27953	0.82704	0.049
Mof_C 	C 	0.8467	0.2743	0.94939	0.381
Mof_C 	C 	0.85	0.5908	0.8772	0.337
Mof_C 	C 	0.6667	0.27401	0.70327	0.334
Mof_C 	C 	0.6101	0.77232	0.57528	0.114
Mof_C 	C 	0.6249	0.938	0.62421	0.197
Mof_C 	C 	0.7014	0.8458	0.70878	-0.051
Mof_C 	C 	0.8109	0.8596	0.69878	-0.051
Mof_C 	C 	0.8843	0.9457	0.83733	0.205
Mof_C 	C 	0.8985	0.7808	0.78787	0.122
Mof_C 	C 	0.3155	0.67074	0.60578	-0.097
Mof_C 	C 	0.34746	0.57016	0.591	0.043
Mof_C 	C 	0.31579	0.51838	0.64024	-0.096
Mof_C 	C 	0.25262	0.56655	0.70475	0.044
Mof_C 	C 	0.2256	0.66919	0.72287	-0.098
Mof_C 	C 	0.25751	0.72047	0.67296	0.041
Mof_C 	C 	0.3467	0.7257	0.55061	0.337
Mof_C 	C 	0.35	0.4092	0.6228	0.343
Mof_C 	C 	0.1667	0.72599	0.79673	0.332
Mof_N 	N 	0.93311	0.80803	0.02523	-0.195
Mof_N 	N 	0.92351	0.9141	0.05636	-0.191
Mof_N 	N 	0.8523	0.85162	0.13856	-0.139
Mof_N 	N 	0.63688	0.86191	0.27174	-0.145
Mof_N 	N 	0.56955	0.91876	0.39115	-0.199
Mof_N 	N 	0.5604	0.81278	0.35916	-0.195
Mof_N 	N 	0.43311	0.19197	0.47477	-0.196
Mof_N 	N 	0.42351	0.0859	0.44364	-0.187
Mof_N 	N 	0.3523	0.14838	0.36144	-0.115
Mof_N 	N 	0.13688	0.13809	0.22826	-0.119
Mof_N 	N 	0.06955	0.08124	0.10885	-0.2
Mof_N 	N 	0.0604	0.18722	0.14084	-0.211
Mof_N 	N 	0.06689	0.19197	0.97477	-0.194
Mof_N 	N 	0.07649	0.0859	0.94364	-0.184
Mof_N 	N 	0.1477	0.14838	0.86144	-0.117
Mof_N 	N 	0.36312	0.13809	0.72826	-0.115
Mof_N 	N 	0.43045	0.08124	0.60885	-0.189
Mof_N 	N 	0.4396	0.18722	0.64084	-0.196
Mof_N 	N 	0.56689	0.80803	0.52523	-0.194
Mof_N 	N 	0.57649	0.9141	0.55636	-0.197
Mof_N 	N 	0.6477	0.85162	0.63856	-0.141
Mof_N 	N 	0.86312	0.86191	0.77174	-0.141
Mof_N 	N 	0.93045	0.91876	0.89115	-0.182
Mof_N 	N 	0.9396	0.81278	0.85916	-0.181
Mof_O 	O 	0.09969	0.8797	0.96622	-0.764
Mof_O 	O 	0.10222	0.67667	0.99008	-0.35
Mof_O 	O 	0.18025	0.81893	0.06966	-0.302
Mof_O 	O 	0.05855	0.39436	0.11238	-0.415
Mof_O 	O 	0.21264	0.34275	0.1187	-0.282
Mof_O 	O 	0.39064	0.67573	0.32428	-0.381
Mof_O 	O 	0.3196	0.82299	0.3281	-0.309
Mof_O 	O 	0.59969	0.1203	0.53378	-0.831
Mof_O 	O 	0.60222	0.32333	0.50992	-0.381
Mof_O 	O 	0.68025	0.18107	0.43034	-0.316
Mof_O 	O 	0.55855	0.60564	0.38762	-0.385
Mof_O 	O 	0.71264	0.65725	0.3813	-0.259
Mof_O 	O 	0.89064	0.32427	0.17572	-0.367
Mof_O 	O 	0.8196	0.17701	0.1719	-0.317
Mof_O 	O 	0.90031	0.1203	0.03378	-0.854
Mof_O 	O 	0.89778	0.32333	0.00992	-0.409
Mof_O 	O 	0.81975	0.18107	0.93034	-0.321
Mof_O 	O 	0.94145	0.60564	0.88762	-0.357
Mof_O 	O 	0.78736	0.65725	0.8813	-0.253
Mof_O 	O 	0.60936	0.32427	0.67572	-0.378
Mof_O 	O 	0.6804	0.17701	0.6719	-0.316
Mof_O 	O 	0.40031	0.8797	0.46622	-0.806
Mof_O 	O 	0.39778	0.67667	0.49008	-0.383
Mof_O 	O 	0.31975	0.81893	0.56966	-0.309
Mof_O 	O 	0.44145	0.39436	0.61238	-0.384
Mof_O 	O 	0.28736	0.34275	0.6187	-0.274
Mof_O 	O 	0.10936	0.67573	0.82428	-0.39
Mof_O 	O 	0.1804	0.82299	0.8281	-0.305
_end
