data_functionalizedCrystal
_audit_creation_method	'EQeq! by Chris Wilmer'
_symmetry_space_group_name_H-M	'P1'
_symmetry_Int_Tables_number	1
_symmetry_cell_setting	triclinic
loop_
_symmetry_equiv_pos_as_xyz
  x,y,z
_cell_length_a	13.8238
_cell_length_b	28.1745
_cell_length_c	45.1995
_cell_angle_alpha	90
_cell_angle_beta	90
_cell_angle_gamma	90
loop_
_atom_site_label
_atom_site_type_symbol
_atom_site_fract_x
_atom_site_fract_y
_atom_site_fract_z
_atom_site_charge
Mof_Zn	Zn	0.14466	0.44742	0.57888	1.164
Mof_Zn	Zn	0.83416	0.2386	0.81556	1.162
Mof_Zn	Zn	0.12742	0.97795	0.58663	1.164
Mof_Zn	Zn	0.85534	0.05258	0.07888	1.164
Mof_Zn	Zn	0.16584	0.2614	0.31556	1.162
Mof_Zn	Zn	0.87258	0.52205	0.08663	1.164
Mof_Zn	Zn	0.64466	0.55258	0.92112	1.164
Mof_Zn	Zn	0.33416	0.7614	0.68444	1.162
Mof_Zn	Zn	0.62742	0.02205	0.91337	1.164
Mof_Zn	Zn	0.35534	0.94742	0.42112	1.164
Mof_Zn	Zn	0.66584	0.7386	0.18444	1.162
Mof_Zn	Zn	0.37258	0.47795	0.41337	1.164
Mof_H 	H 	0.0904	0.2715	0.589	0.094
Mof_H 	H 	0.1258	0.3441	0.5658	-0.034
Mof_H 	H 	0.0675	0.4143	0.6356	-0.019
Mof_H 	H 	0.0287	0.3452	0.6616	0.09
Mof_H 	H 	0.993	0.2934	0.7228	0.089
Mof_H 	H 	0.9428	0.2978	0.7716	-0.012
Mof_H 	H 	0.8948	0.1634	0.7736	-0.024
Mof_H 	H 	0.9474	0.1545	0.7272	0.088
Mof_H 	H 	0.037	0.0882	0.6695	0.081
Mof_H 	H 	0.0673	0.0171	0.6456	-0.01
Mof_H 	H 	0.1176	0.0831	0.5707	-0.003
Mof_H 	H 	0.0792	0.1556	0.5912	0.08
Mof_H 	H 	0.8704	0.4469	0.5076	0.093
Mof_H 	H 	0.9537	0.4657	0.5505	-0.009
Mof_H 	H 	0.1959	0.4181	0.5169	-0.011
Mof_H 	H 	0.1184	0.3958	0.4744	0.084
Mof_H 	H 	0.1162	0.3557	0.4046	0.098
Mof_H 	H 	0.1966	0.3217	0.3674	-0.021
Mof_H 	H 	0.9556	0.2791	0.332	-0.024
Mof_H 	H 	0.8699	0.3189	0.3672	0.095
Mof_H 	H 	0.6764	0.3931	0.3865	0.103
Mof_H 	H 	0.5186	0.4158	0.3815	-0.006
Mof_H 	H 	0.5148	0.4676	0.4626	-0
Mof_H 	H 	0.6746	0.4388	0.47	0.089
Mof_H 	H 	0.9096	0.2285	0.089	0.095
Mof_H 	H 	0.8742	0.1559	0.0658	-0.033
Mof_H 	H 	0.9325	0.0857	0.1356	-0.019
Mof_H 	H 	0.9713	0.1548	0.1616	0.091
Mof_H 	H 	0.007	0.2066	0.2228	0.09
Mof_H 	H 	0.0572	0.2022	0.2716	-0.011
Mof_H 	H 	0.1052	0.3366	0.2736	-0.023
Mof_H 	H 	0.0526	0.3455	0.2272	0.089
Mof_H 	H 	0.963	0.4118	0.1695	0.082
Mof_H 	H 	0.9327	0.4829	0.1456	-0.009
Mof_H 	H 	0.8824	0.4169	0.0707	-0.002
Mof_H 	H 	0.9208	0.3444	0.0912	0.081
Mof_H 	H 	0.1296	0.0531	0.0076	0.094
Mof_H 	H 	0.0463	0.0343	0.0505	-0.009
Mof_H 	H 	0.8041	0.0819	0.0169	-0.011
Mof_H 	H 	0.8816	0.1042	0.9744	0.085
Mof_H 	H 	0.8838	0.1443	0.9046	0.098
Mof_H 	H 	0.8034	0.1783	0.8674	-0.022
Mof_H 	H 	0.0444	0.2209	0.832	-0.025
Mof_H 	H 	0.1301	0.1811	0.8672	0.096
Mof_H 	H 	0.3236	0.1069	0.8865	0.103
Mof_H 	H 	0.4814	0.0842	0.8815	-0.006
Mof_H 	H 	0.4852	0.0324	0.9626	-0
Mof_H 	H 	0.3254	0.0612	0.97	0.089
Mof_H 	H 	0.5904	0.7285	0.911	0.095
Mof_H 	H 	0.6258	0.6559	0.9342	-0.033
Mof_H 	H 	0.5675	0.5857	0.8644	-0.018
Mof_H 	H 	0.5287	0.6548	0.8384	0.091
Mof_H 	H 	0.493	0.7066	0.7772	0.09
Mof_H 	H 	0.4428	0.7022	0.7284	-0.011
Mof_H 	H 	0.3948	0.8366	0.7264	-0.023
Mof_H 	H 	0.4474	0.8455	0.7728	0.089
Mof_H 	H 	0.537	0.9118	0.8305	0.083
Mof_H 	H 	0.5673	0.9829	0.8544	-0.009
Mof_H 	H 	0.6176	0.9169	0.9293	-0.002
Mof_H 	H 	0.5792	0.8444	0.9088	0.081
Mof_H 	H 	0.3704	0.5531	0.9924	0.093
Mof_H 	H 	0.4537	0.5343	0.9495	-0.009
Mof_H 	H 	0.6959	0.5819	0.9831	-0.011
Mof_H 	H 	0.6184	0.6042	0.0256	0.084
Mof_H 	H 	0.6162	0.6443	0.0954	0.098
Mof_H 	H 	0.6966	0.6783	0.1326	-0.022
Mof_H 	H 	0.4556	0.7209	0.168	-0.025
Mof_H 	H 	0.3699	0.6811	0.1328	0.096
Mof_H 	H 	0.1764	0.6069	0.1135	0.103
Mof_H 	H 	0.0186	0.5842	0.1185	-0.006
Mof_H 	H 	0.0148	0.5324	0.0374	-0
Mof_H 	H 	0.1746	0.5612	0.03	0.089
Mof_H 	H 	0.4096	0.7715	0.411	0.095
Mof_H 	H 	0.3742	0.8441	0.4342	-0.033
Mof_H 	H 	0.4325	0.9143	0.3644	-0.018
Mof_H 	H 	0.4713	0.8452	0.3384	0.091
Mof_H 	H 	0.507	0.7934	0.2772	0.09
Mof_H 	H 	0.5572	0.7978	0.2284	-0.011
Mof_H 	H 	0.6052	0.6634	0.2264	-0.023
Mof_H 	H 	0.5526	0.6545	0.2728	0.089
Mof_H 	H 	0.463	0.5882	0.3305	0.082
Mof_H 	H 	0.4327	0.5171	0.3544	-0.009
Mof_H 	H 	0.3824	0.5831	0.4293	-0.002
Mof_H 	H 	0.4208	0.6556	0.4088	0.081
Mof_H 	H 	0.6296	0.9469	0.4924	0.094
Mof_H 	H 	0.5463	0.9657	0.4495	-0.009
Mof_H 	H 	0.3041	0.9181	0.4831	-0.011
Mof_H 	H 	0.3816	0.8958	0.5256	0.084
Mof_H 	H 	0.3838	0.8557	0.5954	0.098
Mof_H 	H 	0.3034	0.8217	0.6326	-0.022
Mof_H 	H 	0.5444	0.7791	0.668	-0.025
Mof_H 	H 	0.6301	0.8189	0.6328	0.096
Mof_H 	H 	0.8236	0.8931	0.6135	0.103
Mof_H 	H 	0.9814	0.9158	0.6185	-0.006
Mof_H 	H 	0.9852	0.9676	0.5374	-0
Mof_H 	H 	0.8254	0.9388	0.53	0.089
Mof_C 	C 	0.0448	0.2548	0.645	0.098
Mof_C 	C 	0.0079	0.2183	0.6881	0.1
Mof_C 	C 	0.0433	0.1761	0.648	0.101
Mof_C 	C 	0.0611	0.3005	0.628	0.08
Mof_C 	C 	0.0863	0.2999	0.5995	-0.16
Mof_C 	C 	0.1067	0.3445	0.5855	0.114
Mof_C 	C 	0.0726	0.3851	0.6261	0.077
Mof_C 	C 	0.0502	0.3436	0.6422	-0.142
Mof_C 	C 	0.9792	0.2232	0.7183	0.063
Mof_C 	C 	0.9745	0.2658	0.7326	-0.136
Mof_C 	C 	0.9418	0.2685	0.762	0.09
Mof_C 	C 	0.9148	0.1901	0.7632	0.09
Mof_C 	C 	0.9467	0.1848	0.7355	-0.14
Mof_C 	C 	0.0576	0.1297	0.6334	0.051
Mof_C 	C 	0.0524	0.0879	0.6494	-0.118
Mof_C 	C 	0.0711	0.0449	0.6346	0.069
Mof_C 	C 	0.0992	0.0841	0.5905	0.057
Mof_C 	C 	0.0789	0.1282	0.6027	-0.109
Mof_C 	C 	0.9321	0.4025	0.4595	0.095
Mof_C 	C 	0.9291	0.3655	0.4146	0.093
Mof_C 	C 	0.7941	0.3994	0.4324	0.09
Mof_C 	C 	0.9847	0.4181	0.4862	0.058
Mof_C 	C 	0.9359	0.4399	0.5092	-0.126
Mof_C 	C 	0.9864	0.4511	0.535	0.062
Mof_C 	C 	0.1294	0.4227	0.5154	0.083
Mof_C 	C 	0.0834	0.4099	0.4897	-0.129
Mof_C 	C 	0.9824	0.3421	0.3906	0.089
Mof_C 	C 	0.0814	0.3413	0.3894	-0.152
Mof_C 	C 	0.1294	0.3208	0.3674	0.102
Mof_C 	C 	0.9882	0.2965	0.3464	0.098
Mof_C 	C 	0.9371	0.3191	0.3679	-0.155
Mof_C 	C 	0.6919	0.4131	0.429	0.059
Mof_C 	C 	0.6446	0.4073	0.4023	-0.138
Mof_C 	C 	0.5508	0.4224	0.3991	0.079
Mof_C 	C 	0.5475	0.4524	0.4473	0.055
Mof_C 	C 	0.6444	0.4351	0.4517	-0.121
Mof_C 	C 	0.9552	0.2452	0.145	0.098
Mof_C 	C 	0.9921	0.2817	0.1881	0.099
Mof_C 	C 	0.9567	0.3239	0.148	0.101
Mof_C 	C 	0.9389	0.1995	0.128	0.08
Mof_C 	C 	0.9137	0.2001	0.0995	-0.16
Mof_C 	C 	0.8933	0.1555	0.0855	0.114
Mof_C 	C 	0.9274	0.1149	0.1261	0.077
Mof_C 	C 	0.9498	0.1564	0.1422	-0.142
Mof_C 	C 	0.0208	0.2768	0.2183	0.064
Mof_C 	C 	0.0255	0.2342	0.2326	-0.136
Mof_C 	C 	0.0582	0.2315	0.262	0.09
Mof_C 	C 	0.0852	0.3099	0.2632	0.091
Mof_C 	C 	0.0533	0.3152	0.2355	-0.141
Mof_C 	C 	0.9424	0.3703	0.1334	0.051
Mof_C 	C 	0.9476	0.4121	0.1494	-0.118
Mof_C 	C 	0.9289	0.4551	0.1346	0.069
Mof_C 	C 	0.9008	0.4159	0.0905	0.057
Mof_C 	C 	0.9211	0.3718	0.1027	-0.109
Mof_C 	C 	0.0679	0.0975	0.9595	0.095
Mof_C 	C 	0.0709	0.1345	0.9146	0.092
Mof_C 	C 	0.2059	0.1006	0.9324	0.09
Mof_C 	C 	0.0153	0.0819	0.9862	0.059
Mof_C 	C 	0.0641	0.0601	0.0092	-0.127
Mof_C 	C 	0.0136	0.0489	0.035	0.063
Mof_C 	C 	0.8706	0.0773	0.0154	0.084
Mof_C 	C 	0.9166	0.0901	0.9897	-0.131
Mof_C 	C 	0.0176	0.1579	0.8906	0.091
Mof_C 	C 	0.9186	0.1587	0.8894	-0.154
Mof_C 	C 	0.8706	0.1792	0.8674	0.103
Mof_C 	C 	0.0118	0.2035	0.8464	0.1
Mof_C 	C 	0.0629	0.1809	0.8679	-0.157
Mof_C 	C 	0.3081	0.0869	0.929	0.059
Mof_C 	C 	0.3554	0.0927	0.9023	-0.138
Mof_C 	C 	0.4492	0.0776	0.8991	0.079
Mof_C 	C 	0.4525	0.0476	0.9473	0.055
Mof_C 	C 	0.3556	0.0649	0.9517	-0.121
Mof_C 	C 	0.5448	0.7452	0.855	0.098
Mof_C 	C 	0.5079	0.7817	0.8119	0.101
Mof_C 	C 	0.5433	0.8239	0.852	0.101
Mof_C 	C 	0.5611	0.6995	0.872	0.081
Mof_C 	C 	0.5863	0.7001	0.9005	-0.16
Mof_C 	C 	0.6067	0.6555	0.9145	0.115
Mof_C 	C 	0.5726	0.6149	0.8739	0.077
Mof_C 	C 	0.5502	0.6564	0.8578	-0.142
Mof_C 	C 	0.4792	0.7768	0.7817	0.063
Mof_C 	C 	0.4745	0.7342	0.7674	-0.135
Mof_C 	C 	0.4418	0.7315	0.738	0.09
Mof_C 	C 	0.4148	0.8099	0.7368	0.09
Mof_C 	C 	0.4467	0.8152	0.7645	-0.14
Mof_C 	C 	0.5576	0.8703	0.8666	0.051
Mof_C 	C 	0.5524	0.9121	0.8506	-0.118
Mof_C 	C 	0.5711	0.9551	0.8654	0.069
Mof_C 	C 	0.5992	0.9159	0.9095	0.057
Mof_C 	C 	0.5789	0.8718	0.8973	-0.109
Mof_C 	C 	0.4321	0.5975	0.0405	0.095
Mof_C 	C 	0.4291	0.6345	0.0854	0.093
Mof_C 	C 	0.2941	0.6006	0.0676	0.09
Mof_C 	C 	0.4847	0.5819	0.0138	0.058
Mof_C 	C 	0.4359	0.5601	0.9908	-0.126
Mof_C 	C 	0.4864	0.5489	0.965	0.062
Mof_C 	C 	0.6294	0.5773	0.9846	0.083
Mof_C 	C 	0.5834	0.5901	0.0103	-0.129
Mof_C 	C 	0.4824	0.6579	0.1094	0.091
Mof_C 	C 	0.5814	0.6587	0.1106	-0.154
Mof_C 	C 	0.6294	0.6792	0.1326	0.103
Mof_C 	C 	0.4882	0.7035	0.1536	0.1
Mof_C 	C 	0.4371	0.6809	0.1321	-0.157
Mof_C 	C 	0.1919	0.5869	0.071	0.059
Mof_C 	C 	0.1446	0.5927	0.0977	-0.138
Mof_C 	C 	0.0508	0.5776	0.1009	0.079
Mof_C 	C 	0.0475	0.5476	0.0527	0.055
Mof_C 	C 	0.1444	0.5649	0.0483	-0.121
Mof_C 	C 	0.4552	0.7548	0.355	0.098
Mof_C 	C 	0.4921	0.7183	0.3119	0.101
Mof_C 	C 	0.4567	0.6761	0.352	0.101
Mof_C 	C 	0.4389	0.8005	0.372	0.081
Mof_C 	C 	0.4137	0.7999	0.4005	-0.16
Mof_C 	C 	0.3933	0.8445	0.4145	0.115
Mof_C 	C 	0.4274	0.8851	0.3739	0.077
Mof_C 	C 	0.4498	0.8436	0.3578	-0.142
Mof_C 	C 	0.5208	0.7232	0.2817	0.063
Mof_C 	C 	0.5255	0.7658	0.2674	-0.135
Mof_C 	C 	0.5582	0.7685	0.238	0.09
Mof_C 	C 	0.5852	0.6901	0.2368	0.09
Mof_C 	C 	0.5533	0.6848	0.2645	-0.14
Mof_C 	C 	0.4424	0.6297	0.3666	0.051
Mof_C 	C 	0.4476	0.5879	0.3506	-0.118
Mof_C 	C 	0.4289	0.5449	0.3654	0.069
Mof_C 	C 	0.4008	0.5841	0.4095	0.057
Mof_C 	C 	0.4211	0.6282	0.3973	-0.109
Mof_C 	C 	0.5679	0.9025	0.5405	0.095
Mof_C 	C 	0.5709	0.8655	0.5854	0.093
Mof_C 	C 	0.7059	0.8994	0.5676	0.09
Mof_C 	C 	0.5153	0.9181	0.5138	0.058
Mof_C 	C 	0.5641	0.9399	0.4908	-0.126
Mof_C 	C 	0.5136	0.9511	0.465	0.062
Mof_C 	C 	0.3706	0.9227	0.4846	0.083
Mof_C 	C 	0.4166	0.9099	0.5103	-0.129
Mof_C 	C 	0.5176	0.8421	0.6094	0.091
Mof_C 	C 	0.4186	0.8413	0.6106	-0.154
Mof_C 	C 	0.3706	0.8208	0.6326	0.103
Mof_C 	C 	0.5118	0.7965	0.6536	0.1
Mof_C 	C 	0.5629	0.8191	0.6321	-0.157
Mof_C 	C 	0.8081	0.9131	0.571	0.059
Mof_C 	C 	0.8554	0.9073	0.5977	-0.138
Mof_C 	C 	0.9492	0.9224	0.6009	0.079
Mof_C 	C 	0.9525	0.9524	0.5527	0.055
Mof_C 	C 	0.8556	0.9351	0.5483	-0.121
Mof_I 	I 	0.32587	0.43882	0.57367	-0.386
Mof_I 	I 	0.05362	0.51224	0.60657	-0.361
Mof_I 	I 	0.67306	0.19507	0.8091	-0.37
Mof_I 	I 	0.83229	0.32566	0.83048	-0.375
Mof_I 	I 	0.20327	0.99405	0.53596	-0.389
Mof_I 	I 	0.21186	0.93042	0.62642	-0.368
Mof_I 	I 	0.67413	0.06118	0.07367	-0.386
Mof_I 	I 	0.94638	0.98776	0.10657	-0.361
Mof_I 	I 	0.32694	0.30493	0.3091	-0.37
Mof_I 	I 	0.16771	0.17434	0.33048	-0.375
Mof_I 	I 	0.79673	0.50595	0.03596	-0.388
Mof_I 	I 	0.78814	0.56958	0.12642	-0.367
Mof_I 	I 	0.82587	0.56118	0.92633	-0.386
Mof_I 	I 	0.55362	0.48776	0.89343	-0.361
Mof_I 	I 	0.17306	0.80493	0.6909	-0.37
Mof_I 	I 	0.33229	0.67434	0.66952	-0.375
Mof_I 	I 	0.70327	0.00595	0.96404	-0.388
Mof_I 	I 	0.71186	0.06958	0.87358	-0.367
Mof_I 	I 	0.17413	0.93882	0.42633	-0.386
Mof_I 	I 	0.44638	0.01224	0.39343	-0.361
Mof_I 	I 	0.82694	0.69507	0.1909	-0.37
Mof_I 	I 	0.66771	0.82566	0.16952	-0.375
Mof_I 	I 	0.29673	0.49405	0.46404	-0.388
Mof_I 	I 	0.28814	0.43042	0.37358	-0.367
Mof_N 	N 	0.0213	0.26	0.67358	-0.138
Mof_N 	N 	0.0179	0.1769	0.6764	-0.141
Mof_N 	N 	0.0591	0.2152	0.63082	-0.139
Mof_N 	N 	0.1006	0.3843	0.5981	-0.287
Mof_N 	N 	0.9106	0.2321	0.77614	-0.282
Mof_N 	N 	0.094	0.0413	0.6058	-0.27
Mof_N 	N 	0.9802	0.3792	0.4388	-0.134
Mof_N 	N 	0.834	0.3731	0.4112	-0.13
Mof_N 	N 	0.8372	0.4136	0.4578	-0.141
Mof_N 	N 	0.0831	0.4411	0.5381	-0.277
Mof_N 	N 	0.0842	0.299	0.3456	-0.285
Mof_N 	N 	0.504	0.4463	0.4204	-0.271
Mof_N 	N 	0.9787	0.24	0.17358	-0.138
Mof_N 	N 	0.9821	0.3231	0.1764	-0.141
Mof_N 	N 	0.9409	0.2848	0.13082	-0.139
Mof_N 	N 	0.8994	0.1157	0.0981	-0.287
Mof_N 	N 	0.0894	0.2679	0.27614	-0.282
Mof_N 	N 	0.906	0.4587	0.1058	-0.27
Mof_N 	N 	0.0198	0.1208	0.9388	-0.133
Mof_N 	N 	0.166	0.1269	0.9112	-0.13
Mof_N 	N 	0.1628	0.0864	0.9578	-0.141
Mof_N 	N 	0.9169	0.0589	0.0381	-0.278
Mof_N 	N 	0.9158	0.201	0.8456	-0.285
Mof_N 	N 	0.496	0.0537	0.9204	-0.271
Mof_N 	N 	0.5213	0.74	0.82642	-0.138
Mof_N 	N 	0.5179	0.8231	0.8236	-0.141
Mof_N 	N 	0.5591	0.7848	0.86918	-0.139
Mof_N 	N 	0.6006	0.6157	0.9019	-0.287
Mof_N 	N 	0.4106	0.7679	0.72386	-0.282
Mof_N 	N 	0.594	0.9587	0.8942	-0.27
Mof_N 	N 	0.4802	0.6208	0.0612	-0.134
Mof_N 	N 	0.334	0.6269	0.0888	-0.13
Mof_N 	N 	0.3372	0.5864	0.0422	-0.141
Mof_N 	N 	0.5831	0.5589	0.9619	-0.277
Mof_N 	N 	0.5842	0.701	0.1544	-0.285
Mof_N 	N 	0.004	0.5537	0.0796	-0.271
Mof_N 	N 	0.4787	0.76	0.32642	-0.138
Mof_N 	N 	0.4821	0.6769	0.3236	-0.141
Mof_N 	N 	0.4409	0.7152	0.36918	-0.139
Mof_N 	N 	0.3994	0.8843	0.4019	-0.287
Mof_N 	N 	0.5894	0.7321	0.22386	-0.282
Mof_N 	N 	0.406	0.5413	0.3942	-0.27
Mof_N 	N 	0.5198	0.8792	0.5612	-0.134
Mof_N 	N 	0.666	0.8731	0.5888	-0.13
Mof_N 	N 	0.6628	0.9136	0.5422	-0.141
Mof_N 	N 	0.4169	0.9411	0.4619	-0.277
Mof_N 	N 	0.4158	0.799	0.6544	-0.285
Mof_N 	N 	0.996	0.9463	0.5796	-0.271
Mof_Zn	Zn	0.85534	0.55258	0.42112	1.165
Mof_Zn	Zn	0.16584	0.7614	0.18444	1.163
Mof_Zn	Zn	0.87258	0.02205	0.41337	1.165
Mof_Zn	Zn	0.14466	0.94742	0.92112	1.165
Mof_Zn	Zn	0.83416	0.7386	0.68444	1.163
Mof_Zn	Zn	0.12742	0.47795	0.91337	1.165
Mof_Zn	Zn	0.35534	0.44742	0.07888	1.165
Mof_Zn	Zn	0.66584	0.2386	0.31556	1.163
Mof_Zn	Zn	0.37258	0.97795	0.08663	1.165
Mof_Zn	Zn	0.64466	0.05258	0.57888	1.165
Mof_Zn	Zn	0.33416	0.2614	0.81556	1.163
Mof_Zn	Zn	0.62742	0.52205	0.58663	1.165
Mof_H 	H 	0.9096	0.7285	0.411	0.095
Mof_H 	H 	0.8742	0.6559	0.4342	-0.033
Mof_H 	H 	0.9325	0.5857	0.3644	-0.018
Mof_H 	H 	0.9713	0.6548	0.3384	0.091
Mof_H 	H 	0.007	0.7066	0.2772	0.09
Mof_H 	H 	0.0572	0.7022	0.2284	-0.011
Mof_H 	H 	0.1052	0.8366	0.2264	-0.023
Mof_H 	H 	0.0526	0.8455	0.2728	0.089
Mof_H 	H 	0.963	0.9118	0.3305	0.082
Mof_H 	H 	0.9327	0.9829	0.3544	-0.009
Mof_H 	H 	0.8824	0.9169	0.4293	-0.002
Mof_H 	H 	0.9208	0.8444	0.4088	0.081
Mof_H 	H 	0.1296	0.5531	0.4924	0.093
Mof_H 	H 	0.0463	0.5343	0.4495	-0.009
Mof_H 	H 	0.8041	0.5819	0.4831	-0.011
Mof_H 	H 	0.8816	0.6042	0.5256	0.084
Mof_H 	H 	0.8838	0.6443	0.5954	0.098
Mof_H 	H 	0.8034	0.6783	0.6326	-0.021
Mof_H 	H 	0.0444	0.7209	0.668	-0.024
Mof_H 	H 	0.1301	0.6811	0.6328	0.095
Mof_H 	H 	0.3236	0.6069	0.6135	0.103
Mof_H 	H 	0.4814	0.5842	0.6185	-0.006
Mof_H 	H 	0.4852	0.5324	0.5374	-0
Mof_H 	H 	0.3254	0.5612	0.53	0.089
Mof_H 	H 	0.0904	0.7715	0.911	0.095
Mof_H 	H 	0.1258	0.8441	0.9342	-0.033
Mof_H 	H 	0.0675	0.9143	0.8644	-0.019
Mof_H 	H 	0.0287	0.8452	0.8384	0.091
Mof_H 	H 	0.993	0.7934	0.7772	0.09
Mof_H 	H 	0.9428	0.7978	0.7284	-0.011
Mof_H 	H 	0.8948	0.6634	0.7264	-0.023
Mof_H 	H 	0.9474	0.6545	0.7728	0.089
Mof_H 	H 	0.037	0.5882	0.8305	0.082
Mof_H 	H 	0.0673	0.5171	0.8544	-0.009
Mof_H 	H 	0.1176	0.5831	0.9293	-0.002
Mof_H 	H 	0.0792	0.6556	0.9088	0.081
Mof_H 	H 	0.8704	0.9469	0.9924	0.094
Mof_H 	H 	0.9537	0.9657	0.9495	-0.009
Mof_H 	H 	0.1959	0.9181	0.9831	-0.011
Mof_H 	H 	0.1184	0.8958	0.0256	0.085
Mof_H 	H 	0.1162	0.8557	0.0954	0.098
Mof_H 	H 	0.1966	0.8217	0.1326	-0.022
Mof_H 	H 	0.9556	0.7791	0.168	-0.025
Mof_H 	H 	0.8699	0.8189	0.1328	0.096
Mof_H 	H 	0.6764	0.8931	0.1135	0.103
Mof_H 	H 	0.5186	0.9158	0.1185	-0.006
Mof_H 	H 	0.5148	0.9676	0.0374	-0
Mof_H 	H 	0.6746	0.9388	0.03	0.089
Mof_H 	H 	0.4096	0.2715	0.089	0.095
Mof_H 	H 	0.3742	0.3441	0.0658	-0.033
Mof_H 	H 	0.4325	0.4143	0.1356	-0.018
Mof_H 	H 	0.4713	0.3452	0.1616	0.091
Mof_H 	H 	0.507	0.2934	0.2228	0.09
Mof_H 	H 	0.5572	0.2978	0.2716	-0.011
Mof_H 	H 	0.6052	0.1634	0.2736	-0.023
Mof_H 	H 	0.5526	0.1545	0.2272	0.089
Mof_H 	H 	0.463	0.0882	0.1695	0.083
Mof_H 	H 	0.4327	0.0171	0.1456	-0.009
Mof_H 	H 	0.3824	0.0831	0.0707	-0.002
Mof_H 	H 	0.4208	0.1556	0.0912	0.081
Mof_H 	H 	0.6296	0.4469	0.0076	0.093
Mof_H 	H 	0.5463	0.4657	0.0505	-0.009
Mof_H 	H 	0.3041	0.4181	0.0169	-0.011
Mof_H 	H 	0.3816	0.3958	0.9744	0.084
Mof_H 	H 	0.3838	0.3557	0.9046	0.098
Mof_H 	H 	0.3034	0.3217	0.8674	-0.022
Mof_H 	H 	0.5444	0.2791	0.832	-0.025
Mof_H 	H 	0.6301	0.3189	0.8672	0.096
Mof_H 	H 	0.8236	0.3931	0.8865	0.103
Mof_H 	H 	0.9814	0.4158	0.8815	-0.006
Mof_H 	H 	0.9852	0.4676	0.9626	-0
Mof_H 	H 	0.8254	0.4388	0.97	0.089
Mof_H 	H 	0.5904	0.2285	0.589	0.095
Mof_H 	H 	0.6258	0.1559	0.5658	-0.033
Mof_H 	H 	0.5675	0.0857	0.6356	-0.018
Mof_H 	H 	0.5287	0.1548	0.6616	0.091
Mof_H 	H 	0.493	0.2066	0.7228	0.09
Mof_H 	H 	0.4428	0.2022	0.7716	-0.011
Mof_H 	H 	0.3948	0.3366	0.7736	-0.023
Mof_H 	H 	0.4474	0.3455	0.7272	0.089
Mof_H 	H 	0.537	0.4118	0.6695	0.082
Mof_H 	H 	0.5673	0.4829	0.6456	-0.009
Mof_H 	H 	0.6176	0.4169	0.5707	-0.002
Mof_H 	H 	0.5792	0.3444	0.5912	0.081
Mof_H 	H 	0.3704	0.0531	0.5076	0.094
Mof_H 	H 	0.4537	0.0343	0.5505	-0.009
Mof_H 	H 	0.6959	0.0819	0.5169	-0.011
Mof_H 	H 	0.6184	0.1042	0.4744	0.084
Mof_H 	H 	0.6162	0.1443	0.4046	0.098
Mof_H 	H 	0.6966	0.1783	0.3674	-0.022
Mof_H 	H 	0.4556	0.2209	0.332	-0.025
Mof_H 	H 	0.3699	0.1811	0.3672	0.096
Mof_H 	H 	0.1764	0.1069	0.3865	0.103
Mof_H 	H 	0.0186	0.0842	0.3815	-0.006
Mof_H 	H 	0.0148	0.0324	0.4626	-0
Mof_H 	H 	0.1746	0.0612	0.47	0.089
Mof_C 	C 	0.9552	0.7452	0.355	0.098
Mof_C 	C 	0.9921	0.7817	0.3119	0.1
Mof_C 	C 	0.9567	0.8239	0.352	0.101
Mof_C 	C 	0.9389	0.6995	0.372	0.08
Mof_C 	C 	0.9137	0.7001	0.4005	-0.16
Mof_C 	C 	0.8933	0.6555	0.4145	0.114
Mof_C 	C 	0.9274	0.6149	0.3739	0.077
Mof_C 	C 	0.9498	0.6564	0.3578	-0.142
Mof_C 	C 	0.0208	0.7768	0.2817	0.063
Mof_C 	C 	0.0255	0.7342	0.2674	-0.136
Mof_C 	C 	0.0582	0.7315	0.238	0.09
Mof_C 	C 	0.0852	0.8099	0.2368	0.09
Mof_C 	C 	0.0533	0.8152	0.2645	-0.14
Mof_C 	C 	0.9424	0.8703	0.3666	0.051
Mof_C 	C 	0.9476	0.9121	0.3506	-0.118
Mof_C 	C 	0.9289	0.9551	0.3654	0.069
Mof_C 	C 	0.9008	0.9159	0.4095	0.057
Mof_C 	C 	0.9211	0.8718	0.3973	-0.109
Mof_C 	C 	0.0679	0.5975	0.5405	0.095
Mof_C 	C 	0.0709	0.6345	0.5854	0.093
Mof_C 	C 	0.2059	0.6006	0.5676	0.09
Mof_C 	C 	0.0153	0.5819	0.5138	0.058
Mof_C 	C 	0.0641	0.5601	0.4908	-0.126
Mof_C 	C 	0.0136	0.5489	0.465	0.062
Mof_C 	C 	0.8706	0.5773	0.4846	0.083
Mof_C 	C 	0.9166	0.5901	0.5103	-0.129
Mof_C 	C 	0.0176	0.6579	0.6094	0.089
Mof_C 	C 	0.9186	0.6587	0.6106	-0.152
Mof_C 	C 	0.8706	0.6792	0.6326	0.102
Mof_C 	C 	0.0118	0.7035	0.6536	0.098
Mof_C 	C 	0.0629	0.6809	0.6321	-0.155
Mof_C 	C 	0.3081	0.5869	0.571	0.059
Mof_C 	C 	0.3554	0.5927	0.5977	-0.138
Mof_C 	C 	0.4492	0.5776	0.6009	0.079
Mof_C 	C 	0.4525	0.5476	0.5527	0.055
Mof_C 	C 	0.3556	0.5649	0.5483	-0.121
Mof_C 	C 	0.0448	0.7548	0.855	0.098
Mof_C 	C 	0.0079	0.7183	0.8119	0.099
Mof_C 	C 	0.0433	0.6761	0.852	0.101
Mof_C 	C 	0.0611	0.8005	0.872	0.08
Mof_C 	C 	0.0863	0.7999	0.9005	-0.16
Mof_C 	C 	0.1067	0.8445	0.9145	0.114
Mof_C 	C 	0.0726	0.8851	0.8739	0.077
Mof_C 	C 	0.0502	0.8436	0.8578	-0.142
Mof_C 	C 	0.9792	0.7232	0.7817	0.064
Mof_C 	C 	0.9745	0.7658	0.7674	-0.136
Mof_C 	C 	0.9418	0.7685	0.738	0.09
Mof_C 	C 	0.9148	0.6901	0.7368	0.091
Mof_C 	C 	0.9467	0.6848	0.7645	-0.141
Mof_C 	C 	0.0576	0.6297	0.8666	0.051
Mof_C 	C 	0.0524	0.5879	0.8506	-0.118
Mof_C 	C 	0.0711	0.5449	0.8654	0.069
Mof_C 	C 	0.0992	0.5841	0.9095	0.057
Mof_C 	C 	0.0789	0.6282	0.8973	-0.109
Mof_C 	C 	0.9321	0.9025	0.0405	0.095
Mof_C 	C 	0.9291	0.8655	0.0854	0.092
Mof_C 	C 	0.7941	0.8994	0.0676	0.09
Mof_C 	C 	0.9847	0.9181	0.0138	0.059
Mof_C 	C 	0.9359	0.9399	0.9908	-0.127
Mof_C 	C 	0.9864	0.9511	0.965	0.063
Mof_C 	C 	0.1294	0.9227	0.9846	0.084
Mof_C 	C 	0.0834	0.9099	0.0103	-0.131
Mof_C 	C 	0.9824	0.8421	0.1094	0.091
Mof_C 	C 	0.0814	0.8413	0.1106	-0.154
Mof_C 	C 	0.1294	0.8208	0.1326	0.103
Mof_C 	C 	0.9882	0.7965	0.1536	0.1
Mof_C 	C 	0.9371	0.8191	0.1321	-0.157
Mof_C 	C 	0.6919	0.9131	0.071	0.059
Mof_C 	C 	0.6446	0.9073	0.0977	-0.138
Mof_C 	C 	0.5508	0.9224	0.1009	0.079
Mof_C 	C 	0.5475	0.9524	0.0527	0.055
Mof_C 	C 	0.6444	0.9351	0.0483	-0.121
Mof_C 	C 	0.4552	0.2548	0.145	0.098
Mof_C 	C 	0.4921	0.2183	0.1881	0.101
Mof_C 	C 	0.4567	0.1761	0.148	0.101
Mof_C 	C 	0.4389	0.3005	0.128	0.081
Mof_C 	C 	0.4137	0.2999	0.0995	-0.16
Mof_C 	C 	0.3933	0.3445	0.0855	0.115
Mof_C 	C 	0.4274	0.3851	0.1261	0.077
Mof_C 	C 	0.4498	0.3436	0.1422	-0.142
Mof_C 	C 	0.5208	0.2232	0.2183	0.063
Mof_C 	C 	0.5255	0.2658	0.2326	-0.135
Mof_C 	C 	0.5582	0.2685	0.262	0.09
Mof_C 	C 	0.5852	0.1901	0.2632	0.09
Mof_C 	C 	0.5533	0.1848	0.2355	-0.14
Mof_C 	C 	0.4424	0.1297	0.1334	0.051
Mof_C 	C 	0.4476	0.0879	0.1494	-0.118
Mof_C 	C 	0.4289	0.0449	0.1346	0.069
Mof_C 	C 	0.4008	0.0841	0.0905	0.057
Mof_C 	C 	0.4211	0.1282	0.1027	-0.109
Mof_C 	C 	0.5679	0.4025	0.9595	0.095
Mof_C 	C 	0.5709	0.3655	0.9146	0.093
Mof_C 	C 	0.7059	0.3994	0.9324	0.09
Mof_C 	C 	0.5153	0.4181	0.9862	0.058
Mof_C 	C 	0.5641	0.4399	0.0092	-0.126
Mof_C 	C 	0.5136	0.4511	0.035	0.062
Mof_C 	C 	0.3706	0.4227	0.0154	0.083
Mof_C 	C 	0.4166	0.4099	0.9897	-0.129
Mof_C 	C 	0.5176	0.3421	0.8906	0.091
Mof_C 	C 	0.4186	0.3413	0.8894	-0.154
Mof_C 	C 	0.3706	0.3208	0.8674	0.103
Mof_C 	C 	0.5118	0.2965	0.8464	0.1
Mof_C 	C 	0.5629	0.3191	0.8679	-0.157
Mof_C 	C 	0.8081	0.4131	0.929	0.059
Mof_C 	C 	0.8554	0.4073	0.9023	-0.138
Mof_C 	C 	0.9492	0.4224	0.8991	0.079
Mof_C 	C 	0.9525	0.4524	0.9473	0.055
Mof_C 	C 	0.8556	0.4351	0.9517	-0.121
Mof_C 	C 	0.5448	0.2452	0.645	0.098
Mof_C 	C 	0.5079	0.2817	0.6881	0.101
Mof_C 	C 	0.5433	0.3239	0.648	0.101
Mof_C 	C 	0.5611	0.1995	0.628	0.081
Mof_C 	C 	0.5863	0.2001	0.5995	-0.16
Mof_C 	C 	0.6067	0.1555	0.5855	0.115
Mof_C 	C 	0.5726	0.1149	0.6261	0.077
Mof_C 	C 	0.5502	0.1564	0.6422	-0.142
Mof_C 	C 	0.4792	0.2768	0.7183	0.063
Mof_C 	C 	0.4745	0.2342	0.7326	-0.135
Mof_C 	C 	0.4418	0.2315	0.762	0.09
Mof_C 	C 	0.4148	0.3099	0.7632	0.09
Mof_C 	C 	0.4467	0.3152	0.7355	-0.14
Mof_C 	C 	0.5576	0.3703	0.6334	0.051
Mof_C 	C 	0.5524	0.4121	0.6494	-0.118
Mof_C 	C 	0.5711	0.4551	0.6346	0.069
Mof_C 	C 	0.5992	0.4159	0.5905	0.057
Mof_C 	C 	0.5789	0.3718	0.6027	-0.109
Mof_C 	C 	0.4321	0.0975	0.4595	0.095
Mof_C 	C 	0.4291	0.1345	0.4146	0.093
Mof_C 	C 	0.2941	0.1006	0.4324	0.09
Mof_C 	C 	0.4847	0.0819	0.4862	0.058
Mof_C 	C 	0.4359	0.0601	0.5092	-0.126
Mof_C 	C 	0.4864	0.0489	0.535	0.062
Mof_C 	C 	0.6294	0.0773	0.5154	0.083
Mof_C 	C 	0.5834	0.0901	0.4897	-0.129
Mof_C 	C 	0.4824	0.1579	0.3906	0.091
Mof_C 	C 	0.5814	0.1587	0.3894	-0.154
Mof_C 	C 	0.6294	0.1792	0.3674	0.103
Mof_C 	C 	0.4882	0.2035	0.3464	0.1
Mof_C 	C 	0.4371	0.1809	0.3679	-0.157
Mof_C 	C 	0.1919	0.0869	0.429	0.059
Mof_C 	C 	0.1446	0.0927	0.4023	-0.138
Mof_C 	C 	0.0508	0.0776	0.3991	0.079
Mof_C 	C 	0.0475	0.0476	0.4473	0.055
Mof_C 	C 	0.1444	0.0649	0.4517	-0.121
Mof_I 	I 	0.67413	0.56118	0.42633	-0.386
Mof_I 	I 	0.94638	0.48776	0.39343	-0.361
Mof_I 	I 	0.32694	0.80493	0.1909	-0.37
Mof_I 	I 	0.16771	0.67434	0.16952	-0.375
Mof_I 	I 	0.79673	0.00595	0.46404	-0.389
Mof_I 	I 	0.78814	0.06958	0.37358	-0.368
Mof_I 	I 	0.32587	0.93882	0.92633	-0.386
Mof_I 	I 	0.05362	0.01224	0.89343	-0.361
Mof_I 	I 	0.67306	0.69507	0.6909	-0.37
Mof_I 	I 	0.83229	0.82566	0.66952	-0.375
Mof_I 	I 	0.20327	0.49405	0.96404	-0.388
Mof_I 	I 	0.21186	0.43042	0.87358	-0.367
Mof_I 	I 	0.17413	0.43882	0.07367	-0.386
Mof_I 	I 	0.44638	0.51224	0.10657	-0.361
Mof_I 	I 	0.82694	0.19507	0.3091	-0.37
Mof_I 	I 	0.66771	0.32566	0.33048	-0.375
Mof_I 	I 	0.29673	0.99405	0.03596	-0.388
Mof_I 	I 	0.28814	0.93042	0.12642	-0.367
Mof_I 	I 	0.82587	0.06118	0.57367	-0.386
Mof_I 	I 	0.55362	0.98776	0.60657	-0.361
Mof_I 	I 	0.17306	0.30493	0.8091	-0.37
Mof_I 	I 	0.33229	0.17434	0.83048	-0.375
Mof_I 	I 	0.70327	0.50595	0.53596	-0.388
Mof_I 	I 	0.71186	0.56958	0.62642	-0.367
Mof_N 	N 	0.9787	0.74	0.32642	-0.138
Mof_N 	N 	0.9821	0.8231	0.3236	-0.141
Mof_N 	N 	0.9409	0.7848	0.36918	-0.139
Mof_N 	N 	0.8994	0.6157	0.4019	-0.287
Mof_N 	N 	0.0894	0.7679	0.22386	-0.282
Mof_N 	N 	0.906	0.9587	0.3942	-0.27
Mof_N 	N 	0.0198	0.6208	0.5612	-0.134
Mof_N 	N 	0.166	0.6269	0.5888	-0.13
Mof_N 	N 	0.1628	0.5864	0.5422	-0.141
Mof_N 	N 	0.9169	0.5589	0.4619	-0.277
Mof_N 	N 	0.9158	0.701	0.6544	-0.285
Mof_N 	N 	0.496	0.5537	0.5796	-0.271
Mof_N 	N 	0.0213	0.76	0.82642	-0.138
Mof_N 	N 	0.0179	0.6769	0.8236	-0.141
Mof_N 	N 	0.0591	0.7152	0.86918	-0.139
Mof_N 	N 	0.1006	0.8843	0.9019	-0.287
Mof_N 	N 	0.9106	0.7321	0.72386	-0.282
Mof_N 	N 	0.094	0.5413	0.8942	-0.27
Mof_N 	N 	0.9802	0.8792	0.0612	-0.133
Mof_N 	N 	0.834	0.8731	0.0888	-0.13
Mof_N 	N 	0.8372	0.9136	0.0422	-0.141
Mof_N 	N 	0.0831	0.9411	0.9619	-0.278
Mof_N 	N 	0.0842	0.799	0.1544	-0.285
Mof_N 	N 	0.504	0.9463	0.0796	-0.271
Mof_N 	N 	0.4787	0.26	0.17358	-0.138
Mof_N 	N 	0.4821	0.1769	0.1764	-0.141
Mof_N 	N 	0.4409	0.2152	0.13082	-0.139
Mof_N 	N 	0.3994	0.3843	0.0981	-0.287
Mof_N 	N 	0.5894	0.2321	0.27614	-0.282
Mof_N 	N 	0.406	0.0413	0.1058	-0.27
Mof_N 	N 	0.5198	0.3792	0.9388	-0.134
Mof_N 	N 	0.666	0.3731	0.9112	-0.13
Mof_N 	N 	0.6628	0.4136	0.9578	-0.141
Mof_N 	N 	0.4169	0.4411	0.0381	-0.277
Mof_N 	N 	0.4158	0.299	0.8456	-0.285
Mof_N 	N 	0.996	0.4463	0.9204	-0.271
Mof_N 	N 	0.5213	0.24	0.67358	-0.138
Mof_N 	N 	0.5179	0.3231	0.6764	-0.141
Mof_N 	N 	0.5591	0.2848	0.63082	-0.139
Mof_N 	N 	0.6006	0.1157	0.5981	-0.287
Mof_N 	N 	0.4106	0.2679	0.77614	-0.282
Mof_N 	N 	0.594	0.4587	0.6058	-0.27
Mof_N 	N 	0.4802	0.1208	0.4388	-0.134
Mof_N 	N 	0.334	0.1269	0.4112	-0.13
Mof_N 	N 	0.3372	0.0864	0.4578	-0.141
Mof_N 	N 	0.5831	0.0589	0.5381	-0.277
Mof_N 	N 	0.5842	0.201	0.3456	-0.285
Mof_N 	N 	0.004	0.0537	0.4204	-0.271
_end
