data_functionalizedCrystal
_audit_creation_method	'EQeq! by Chris Wilmer'
_symmetry_space_group_name_H-M	'P1'
_symmetry_Int_Tables_number	1
_symmetry_cell_setting	triclinic
loop_
_symmetry_equiv_pos_as_xyz
  x,y,z
_cell_length_a	9.7284
_cell_length_b	10.4717
_cell_length_c	16.4594
_cell_angle_alpha	90
_cell_angle_beta	112.511
_cell_angle_gamma	90
loop_
_atom_site_label
_atom_site_type_symbol
_atom_site_fract_x
_atom_site_fract_y
_atom_site_fract_z
_atom_site_charge
Mof_C 	C 	0.6784	0.0573	0.9691	0.057
Mof_H 	H 	0.6087	0.114	0.9323	0.028
Mof_C 	C 	0.6434	0.9298	0.9699	-0.145
Mof_H 	H 	0.5499	0.8999	0.9337	0.075
Mof_C 	C 	0.7464	0.8484	0.0238	0.099
Mof_H 	H 	0.7237	0.7624	0.025	0.01
Mof_C 	C 	0.8853	0.8934	0.077	-0.211
Mof_H 	H 	0.9556	0.8372	0.1139	0.111
Mof_C 	C 	0.9207	0.0206	0.076	0.205
Mof_C 	C 	0.0677	0.0756	0.1297	-0.419
Mof_H 	H 	0.0929	0.1397	0.0951	0.178
Mof_H 	H 	0.1421	0.0087	0.1436	0.148
Mof_C 	C 	0.9284	0.9683	0.4673	0.274
Mof_C 	C 	0.5177	0.9387	0.5274	0.273
Mof_Tb	Tb	0.17873	0.89252	0.39314	2.094
Mof_N 	N 	0.8146	0.0994	0.0222	-0.102
Mof_O 	O 	0.06	0.0452	0.29084	-0.506
Mof_O 	O 	0.2349	0.2092	0.271	-0.479
Mof_H 	H 	0.2867	0.1691	0.3148	0.295
Mof_O 	O 	0.9596	0.2501	0.20993	-0.523
Mof_O 	O 	0.8458	0.2221	0.01776	-0.334
Mof_O 	O 	0.8143	0.9798	0.4847	-0.429
Mof_O 	O 	0.9374	0.9123	0.40331	-0.403
Mof_O 	O 	0.4238	0.8513	0.5052	-0.441
Mof_O 	O 	0.6407	0.9367	0.5917	-0.455
Mof_P 	P 	0.07489	0.14779	0.23106	0.599
Mof_C 	C 	0.3216	0.5573	0.5309	0.071
Mof_H 	H 	0.3913	0.614	0.5677	0.021
Mof_C 	C 	0.3566	0.4298	0.5301	-0.173
Mof_H 	H 	0.4501	0.3999	0.5663	0.085
Mof_C 	C 	0.2536	0.3484	0.4762	0.128
Mof_H 	H 	0.2763	0.2624	0.475	0.001
Mof_C 	C 	0.1147	0.3934	0.423	-0.245
Mof_H 	H 	0.0444	0.3372	0.3861	0.123
Mof_C 	C 	0.0793	0.5206	0.424	0.235
Mof_C 	C 	0.9323	0.5756	0.3703	-0.444
Mof_H 	H 	0.9071	0.6397	0.4049	0.183
Mof_H 	H 	0.8579	0.5087	0.3564	0.152
Mof_C 	C 	0.0716	0.4683	0.0327	0.273
Mof_C 	C 	0.4823	0.4387	0.9726	0.273
Mof_Tb	Tb	0.82127	0.39252	0.10686	2.105
Mof_N 	N 	0.1854	0.5994	0.4778	-0.108
Mof_O 	O 	0.94	0.5452	0.20916	-0.512
Mof_O 	O 	0.7651	0.7092	0.229	-0.479
Mof_H 	H 	0.7133	0.6691	0.1852	0.295
Mof_O 	O 	0.0404	0.7501	0.29007	-0.518
Mof_O 	O 	0.1542	0.7221	0.48224	-0.332
Mof_O 	O 	0.1857	0.4798	0.0153	-0.43
Mof_O 	O 	0.0626	0.4123	0.09669	-0.403
Mof_O 	O 	0.5762	0.3513	0.9948	-0.441
Mof_O 	O 	0.3593	0.4367	0.9083	-0.457
Mof_P 	P 	0.92511	0.64779	0.26894	0.599
Mof_C 	C 	0.3216	0.9427	0.0309	0.056
Mof_H 	H 	0.3913	0.886	0.0677	0.027
Mof_C 	C 	0.3566	0.0702	0.0301	-0.145
Mof_H 	H 	0.4501	0.1001	0.0663	0.075
Mof_C 	C 	0.2536	0.1516	0.9762	0.099
Mof_H 	H 	0.2763	0.2376	0.975	0.01
Mof_C 	C 	0.1147	0.1066	0.923	-0.211
Mof_H 	H 	0.0444	0.1628	0.8861	0.111
Mof_C 	C 	0.0793	0.9794	0.924	0.205
Mof_C 	C 	0.9323	0.9244	0.8703	-0.419
Mof_H 	H 	0.9071	0.8603	0.9049	0.178
Mof_H 	H 	0.8579	0.9913	0.8564	0.148
Mof_C 	C 	0.0716	0.0317	0.5327	0.274
Mof_C 	C 	0.4823	0.0613	0.4726	0.273
Mof_Tb	Tb	0.82127	0.10748	0.60686	2.094
Mof_N 	N 	0.1854	0.9006	0.9778	-0.102
Mof_O 	O 	0.94	0.9548	0.70916	-0.506
Mof_O 	O 	0.7651	0.7908	0.729	-0.479
Mof_H 	H 	0.7133	0.8309	0.6852	0.295
Mof_O 	O 	0.0404	0.7499	0.79007	-0.523
Mof_O 	O 	0.1542	0.7779	0.98224	-0.334
Mof_O 	O 	0.1857	0.0202	0.5153	-0.429
Mof_O 	O 	0.0626	0.0877	0.59669	-0.403
Mof_O 	O 	0.5762	0.1487	0.4948	-0.441
Mof_O 	O 	0.3593	0.0633	0.4083	-0.455
Mof_P 	P 	0.92511	0.85221	0.76894	0.599
Mof_C 	C 	0.6784	0.4427	0.4691	0.071
Mof_H 	H 	0.6087	0.386	0.4323	0.021
Mof_C 	C 	0.6434	0.5702	0.4699	-0.173
Mof_H 	H 	0.5499	0.6001	0.4337	0.085
Mof_C 	C 	0.7464	0.6516	0.5238	0.128
Mof_H 	H 	0.7237	0.7376	0.525	0.001
Mof_C 	C 	0.8853	0.6066	0.577	-0.245
Mof_H 	H 	0.9556	0.6628	0.6139	0.123
Mof_C 	C 	0.9207	0.4794	0.576	0.235
Mof_C 	C 	0.0677	0.4244	0.6297	-0.444
Mof_H 	H 	0.0929	0.3603	0.5951	0.183
Mof_H 	H 	0.1421	0.4913	0.6436	0.152
Mof_C 	C 	0.9284	0.5317	0.9673	0.273
Mof_C 	C 	0.5177	0.5613	0.0274	0.273
Mof_Tb	Tb	0.17873	0.60748	0.89314	2.105
Mof_N 	N 	0.8146	0.4006	0.5222	-0.108
Mof_O 	O 	0.06	0.4548	0.79084	-0.512
Mof_O 	O 	0.2349	0.2908	0.771	-0.479
Mof_H 	H 	0.2867	0.3309	0.8148	0.295
Mof_O 	O 	0.9596	0.2499	0.70993	-0.518
Mof_O 	O 	0.8458	0.2779	0.51776	-0.332
Mof_O 	O 	0.8143	0.5202	0.9847	-0.43
Mof_O 	O 	0.9374	0.5877	0.90331	-0.403
Mof_O 	O 	0.4238	0.6487	0.0052	-0.441
Mof_O 	O 	0.6407	0.5633	0.0917	-0.457
Mof_P 	P 	0.07489	0.35221	0.73106	0.599
_end
