data_functionalizedCrystal
_audit_creation_method	'EQeq! by Chris Wilmer'
_symmetry_space_group_name_H-M	'P1'
_symmetry_Int_Tables_number	1
_symmetry_cell_setting	triclinic
loop_
_symmetry_equiv_pos_as_xyz
  x,y,z
_cell_length_a	13.596
_cell_length_b	14.676
_cell_length_c	17.16
_cell_angle_alpha	90
_cell_angle_beta	90
_cell_angle_gamma	90
loop_
_atom_site_label
_atom_site_type_symbol
_atom_site_fract_x
_atom_site_fract_y
_atom_site_fract_z
_atom_site_charge
Mof_Fe	Fe	0.22412	0.60746	0.72028	0.731
Mof_Fe	Fe	0.77588	0.39254	0.72028	0.735
Mof_Fe	Fe	0.27588	0.10746	0.77972	0.722
Mof_Fe	Fe	0.72412	0.89254	0.77972	0.747
Mof_Fe	Fe	0.77588	0.39254	0.27972	0.736
Mof_Fe	Fe	0.22412	0.60746	0.27972	0.732
Mof_Fe	Fe	0.72412	0.89254	0.22028	0.747
Mof_Fe	Fe	0.27588	0.10746	0.22028	0.721
Mof_Co	Co	0.5	0	0.5	1.201
Mof_Co	Co	-3.68625e-33	0.5	-0	1.193
Mof_Co	Co	0.25914	0.90864	0.5	1.231
Mof_Co	Co	0.74086	0.09136	0.5	1.219
Mof_Co	Co	0.24086	0.40864	-0	1.221
Mof_Co	Co	0.75914	0.59136	-0	1.222
Mof_H 	H 	0.4288	0.8468	0.4535	0.238
Mof_H 	H 	0.1218	0.7709	0.6989	0.095
Mof_H 	H 	0.0651	0.6815	0.8039	0.074
Mof_H 	H 	0.347	0.6094	0.8516	0.084
Mof_H 	H 	0.4023	0.6966	0.7466	0.098
Mof_H 	H 	0.2551	0.5975	0.565	0.067
Mof_H 	H 	0.381	0.5208	0.6521	0.081
Mof_H 	H 	0.2891	0.4347	0.7576	0.089
Mof_H 	H 	0.1063	0.4582	0.7357	0.061
Mof_H 	H 	0.0853	0.5588	0.6166	0.062
Mof_H 	H 	0.0897	0.949	0.5342	0.435
Mof_H 	H 	0.5712	0.1532	0.4535	0.239
Mof_H 	H 	0.8782	0.2291	0.6989	0.1
Mof_H 	H 	0.9349	0.3185	0.8039	0.092
Mof_H 	H 	0.653	0.3906	0.8516	0.086
Mof_H 	H 	0.5977	0.3034	0.7466	0.096
Mof_H 	H 	0.7449	0.4025	0.565	0.068
Mof_H 	H 	0.619	0.4792	0.6521	0.081
Mof_H 	H 	0.7109	0.5653	0.7576	0.089
Mof_H 	H 	0.8937	0.5418	0.7357	0.073
Mof_H 	H 	0.9147	0.4412	0.6166	0.077
Mof_H 	H 	0.9103	0.051	0.5342	0.431
Mof_H 	H 	0.0712	0.3468	0.0465	0.234
Mof_H 	H 	0.3782	0.2709	0.8011	0.097
Mof_H 	H 	0.4349	0.1815	0.6961	0.082
Mof_H 	H 	0.153	0.1094	0.6484	0.079
Mof_H 	H 	0.0977	0.1966	0.7534	0.088
Mof_H 	H 	0.2449	0.0975	0.935	0.061
Mof_H 	H 	0.119	0.0208	0.8479	0.082
Mof_H 	H 	0.2109	0.9347	0.7424	0.085
Mof_H 	H 	0.3937	0.9582	0.7643	0.063
Mof_H 	H 	0.4147	0.0588	0.8834	0.079
Mof_H 	H 	0.4103	0.449	0.9658	0.449
Mof_H 	H 	0.9288	0.6532	0.0465	0.246
Mof_H 	H 	0.6218	0.7291	0.8011	0.099
Mof_H 	H 	0.5651	0.8185	0.6961	0.085
Mof_H 	H 	0.847	0.8906	0.6484	0.096
Mof_H 	H 	0.9023	0.8034	0.7534	0.107
Mof_H 	H 	0.7551	0.9025	0.935	0.082
Mof_H 	H 	0.881	0.9792	0.8479	0.082
Mof_H 	H 	0.7891	0.0653	0.7424	0.095
Mof_H 	H 	0.6063	0.0418	0.7643	0.071
Mof_H 	H 	0.5853	0.9412	0.8834	0.064
Mof_H 	H 	0.5897	0.551	0.9658	0.447
Mof_H 	H 	0.5712	0.1532	0.5465	0.239
Mof_H 	H 	0.8782	0.2291	0.3011	0.1
Mof_H 	H 	0.9349	0.3185	0.1961	0.093
Mof_H 	H 	0.653	0.3906	0.1484	0.084
Mof_H 	H 	0.5977	0.3034	0.2534	0.096
Mof_H 	H 	0.7449	0.4025	0.435	0.068
Mof_H 	H 	0.619	0.4792	0.3479	0.081
Mof_H 	H 	0.7109	0.5653	0.2424	0.089
Mof_H 	H 	0.8937	0.5418	0.2643	0.074
Mof_H 	H 	0.9147	0.4412	0.3834	0.078
Mof_H 	H 	0.9103	0.051	0.4658	0.432
Mof_H 	H 	0.4288	0.8468	0.5465	0.238
Mof_H 	H 	0.1218	0.7709	0.3011	0.095
Mof_H 	H 	0.0651	0.6815	0.1961	0.072
Mof_H 	H 	0.347	0.6094	0.1484	0.082
Mof_H 	H 	0.4023	0.6966	0.2534	0.098
Mof_H 	H 	0.2551	0.5975	0.435	0.067
Mof_H 	H 	0.381	0.5208	0.3479	0.081
Mof_H 	H 	0.2891	0.4347	0.2424	0.089
Mof_H 	H 	0.1063	0.4582	0.2643	0.06
Mof_H 	H 	0.0853	0.5588	0.3834	0.062
Mof_H 	H 	0.0897	0.949	0.4658	0.434
Mof_H 	H 	0.9288	0.6532	0.9535	0.254
Mof_H 	H 	0.6218	0.7291	0.1989	0.097
Mof_H 	H 	0.5651	0.8185	0.3039	0.085
Mof_H 	H 	0.847	0.8906	0.3516	0.096
Mof_H 	H 	0.9023	0.8034	0.2466	0.107
Mof_H 	H 	0.7551	0.9025	0.065	0.075
Mof_H 	H 	0.881	0.9792	0.1521	0.08
Mof_H 	H 	0.7891	0.0653	0.2576	0.095
Mof_H 	H 	0.6063	0.0418	0.2357	0.071
Mof_H 	H 	0.5853	0.9412	0.1166	0.06
Mof_H 	H 	0.5897	0.551	0.0342	0.433
Mof_H 	H 	0.0712	0.3468	0.9535	0.246
Mof_H 	H 	0.3782	0.2709	0.1989	0.095
Mof_H 	H 	0.4349	0.1815	0.3039	0.082
Mof_H 	H 	0.153	0.1094	0.3516	0.079
Mof_H 	H 	0.0977	0.1966	0.2466	0.086
Mof_H 	H 	0.2449	0.0975	0.065	0.053
Mof_H 	H 	0.119	0.0208	0.1521	0.079
Mof_H 	H 	0.2109	0.9347	0.2576	0.085
Mof_H 	H 	0.3937	0.9582	0.2357	0.063
Mof_H 	H 	0.4147	0.0588	0.1166	0.076
Mof_H 	H 	0.4103	0.449	0.0342	0.434
Mof_C 	C 	0.3032	0.7896	0.6379	0.328
Mof_C 	C 	0.2666	0.7413	0.7113	-0.101
Mof_C 	C 	0.1674	0.7371	0.7292	-0.129
Mof_C 	C 	0.1331	0.6837	0.7915	-0.084
Mof_C 	C 	0.2031	0.6329	0.8357	-0.158
Mof_C 	C 	0.3007	0.6405	0.8198	-0.068
Mof_C 	C 	0.3339	0.6932	0.7577	-0.131
Mof_C 	C 	0.6668	0.937	0.6049	0.414
Mof_C 	C 	0.2411	0.5607	0.6092	-0.114
Mof_C 	C 	0.3116	0.5178	0.658	-0.107
Mof_C 	C 	0.2601	0.4696	0.717	-0.104
Mof_C 	C 	0.1578	0.4828	0.7047	-0.111
Mof_C 	C 	0.1461	0.5391	0.6381	-0.128
Mof_C 	C 	0.6968	0.2104	0.6379	0.328
Mof_C 	C 	0.7334	0.2587	0.7113	-0.104
Mof_C 	C 	0.8326	0.2629	0.7292	-0.123
Mof_C 	C 	0.8669	0.3163	0.7915	-0.09
Mof_C 	C 	0.7969	0.3671	0.8357	-0.149
Mof_C 	C 	0.6993	0.3595	0.8198	-0.075
Mof_C 	C 	0.6661	0.3068	0.7577	-0.127
Mof_C 	C 	0.3332	0.063	0.6049	0.416
Mof_C 	C 	0.7589	0.4393	0.6092	-0.111
Mof_C 	C 	0.6884	0.4822	0.658	-0.108
Mof_C 	C 	0.7399	0.5304	0.717	-0.102
Mof_C 	C 	0.8422	0.5172	0.7047	-0.108
Mof_C 	C 	0.8539	0.4609	0.6381	-0.125
Mof_C 	C 	0.1968	0.2896	0.8621	0.329
Mof_C 	C 	0.2334	0.2413	0.7887	-0.104
Mof_C 	C 	0.3326	0.2371	0.7708	-0.125
Mof_C 	C 	0.3669	0.1837	0.7085	-0.087
Mof_C 	C 	0.2969	0.1329	0.6643	-0.157
Mof_C 	C 	0.1993	0.1405	0.6802	-0.074
Mof_C 	C 	0.1661	0.1932	0.7423	-0.128
Mof_C 	C 	0.8332	0.437	0.8951	0.411
Mof_C 	C 	0.2589	0.0607	0.8908	-0.089
Mof_C 	C 	0.1884	0.0178	0.842	-0.141
Mof_C 	C 	0.2399	0.9696	0.783	-0.078
Mof_C 	C 	0.3422	0.9828	0.7953	-0.081
Mof_C 	C 	0.3539	0.0391	0.8619	-0.161
Mof_C 	C 	0.8032	0.7104	0.8621	0.325
Mof_C 	C 	0.7666	0.7587	0.7887	-0.101
Mof_C 	C 	0.6674	0.7629	0.7708	-0.129
Mof_C 	C 	0.6331	0.8163	0.7085	-0.088
Mof_C 	C 	0.7031	0.8671	0.6643	-0.151
Mof_C 	C 	0.8007	0.8595	0.6802	-0.073
Mof_C 	C 	0.8339	0.8068	0.7423	-0.129
Mof_C 	C 	0.1668	0.563	0.8951	0.419
Mof_C 	C 	0.7411	0.9393	0.8908	-0.136
Mof_C 	C 	0.8116	0.9822	0.842	-0.068
Mof_C 	C 	0.7601	0.0304	0.783	-0.131
Mof_C 	C 	0.6578	0.0172	0.7953	-0.139
Mof_C 	C 	0.6461	0.9609	0.8619	-0.088
Mof_C 	C 	0.6968	0.2104	0.3621	0.328
Mof_C 	C 	0.7334	0.2587	0.2887	-0.104
Mof_C 	C 	0.8326	0.2629	0.2708	-0.124
Mof_C 	C 	0.8669	0.3163	0.2085	-0.09
Mof_C 	C 	0.7969	0.3671	0.1643	-0.151
Mof_C 	C 	0.6993	0.3595	0.1802	-0.075
Mof_C 	C 	0.6661	0.3068	0.2423	-0.128
Mof_C 	C 	0.3332	0.063	0.3951	0.416
Mof_C 	C 	0.7589	0.4393	0.3908	-0.111
Mof_C 	C 	0.6884	0.4822	0.342	-0.108
Mof_C 	C 	0.7399	0.5304	0.283	-0.102
Mof_C 	C 	0.8422	0.5172	0.2953	-0.108
Mof_C 	C 	0.8539	0.4609	0.3619	-0.125
Mof_C 	C 	0.3032	0.7896	0.3621	0.328
Mof_C 	C 	0.2666	0.7413	0.2887	-0.1
Mof_C 	C 	0.1674	0.7371	0.2708	-0.131
Mof_C 	C 	0.1331	0.6837	0.2085	-0.083
Mof_C 	C 	0.2031	0.6329	0.1643	-0.162
Mof_C 	C 	0.3007	0.6405	0.1802	-0.068
Mof_C 	C 	0.3339	0.6932	0.2423	-0.133
Mof_C 	C 	0.6668	0.937	0.3951	0.414
Mof_C 	C 	0.2411	0.5607	0.3908	-0.114
Mof_C 	C 	0.3116	0.5178	0.342	-0.107
Mof_C 	C 	0.2601	0.4696	0.283	-0.104
Mof_C 	C 	0.1578	0.4828	0.2953	-0.111
Mof_C 	C 	0.1461	0.5391	0.3619	-0.128
Mof_C 	C 	0.8032	0.7104	0.1379	0.326
Mof_C 	C 	0.7666	0.7587	0.2113	-0.102
Mof_C 	C 	0.6674	0.7629	0.2292	-0.128
Mof_C 	C 	0.6331	0.8163	0.2915	-0.089
Mof_C 	C 	0.7031	0.8671	0.3357	-0.15
Mof_C 	C 	0.8007	0.8595	0.3198	-0.073
Mof_C 	C 	0.8339	0.8068	0.2577	-0.129
Mof_C 	C 	0.1668	0.563	0.1049	0.419
Mof_C 	C 	0.7411	0.9393	0.1092	-0.138
Mof_C 	C 	0.8116	0.9822	0.158	-0.07
Mof_C 	C 	0.7601	0.0304	0.217	-0.131
Mof_C 	C 	0.6578	0.0172	0.2047	-0.14
Mof_C 	C 	0.6461	0.9609	0.1381	-0.09
Mof_C 	C 	0.1968	0.2896	0.1379	0.331
Mof_C 	C 	0.2334	0.2413	0.2113	-0.106
Mof_C 	C 	0.3326	0.2371	0.2292	-0.124
Mof_C 	C 	0.3669	0.1837	0.2915	-0.088
Mof_C 	C 	0.2969	0.1329	0.3357	-0.156
Mof_C 	C 	0.1993	0.1405	0.3198	-0.075
Mof_C 	C 	0.1661	0.1932	0.2577	-0.126
Mof_C 	C 	0.8332	0.437	0.1049	0.411
Mof_C 	C 	0.2589	0.0607	0.1092	-0.091
Mof_C 	C 	0.1884	0.0178	0.158	-0.144
Mof_C 	C 	0.2399	0.9696	0.217	-0.079
Mof_C 	C 	0.3422	0.9828	0.2047	-0.082
Mof_C 	C 	0.3539	0.0391	0.1381	-0.164
Mof_O 	O 	0.2397	0.8145	0.5897	-0.373
Mof_O 	O 	0.3942	0.7991	0.6322	-0.3
Mof_O 	O 	0.5803	0.9346	0.5867	-0.424
Mof_O 	O 	0.2685	0.0074	0.5843	-0.451
Mof_O 	O 	0.7603	0.1855	0.5897	-0.374
Mof_O 	O 	0.6058	0.2009	0.6322	-0.304
Mof_O 	O 	0.4197	0.0654	0.5867	-0.439
Mof_O 	O 	0.7315	0.9926	0.5843	-0.424
Mof_O 	O 	0.2603	0.3145	0.9103	-0.369
Mof_O 	O 	0.1058	0.2991	0.8678	-0.31
Mof_O 	O 	0.9197	0.4346	0.9133	-0.414
Mof_O 	O 	0.2315	0.5074	0.9157	-0.435
Mof_O 	O 	0.7397	0.6855	0.9103	-0.368
Mof_O 	O 	0.8942	0.7009	0.8678	-0.291
Mof_O 	O 	0.0803	0.5654	0.9133	-0.438
Mof_O 	O 	0.7685	0.4926	0.9157	-0.432
Mof_O 	O 	0.7603	0.1855	0.4103	-0.374
Mof_O 	O 	0.6058	0.2009	0.3678	-0.304
Mof_O 	O 	0.4197	0.0654	0.4133	-0.439
Mof_O 	O 	0.7315	0.9926	0.4157	-0.424
Mof_O 	O 	0.2397	0.8145	0.4103	-0.373
Mof_O 	O 	0.3942	0.7991	0.3678	-0.301
Mof_O 	O 	0.5803	0.9346	0.4133	-0.424
Mof_O 	O 	0.2685	0.0074	0.4157	-0.451
Mof_O 	O 	0.7397	0.6855	0.0897	-0.375
Mof_O 	O 	0.8942	0.7009	0.1322	-0.293
Mof_O 	O 	0.0803	0.5654	0.0867	-0.447
Mof_O 	O 	0.7685	0.4926	0.0843	-0.438
Mof_O 	O 	0.2603	0.3145	0.0897	-0.377
Mof_O 	O 	0.1058	0.2991	0.1322	-0.314
Mof_O 	O 	0.9197	0.4346	0.0867	-0.418
Mof_O 	O 	0.2315	0.5074	0.0843	-0.443
Mof_O 	O 	0.4123	0.8836	0.5	-0.656
Mof_O 	O 	0.1063	0.9159	0.5	-0.942
Mof_O 	O 	0.5877	0.1164	0.5	-0.669
Mof_O 	O 	0.8937	0.0841	0.5	-0.935
Mof_O 	O 	0.0877	0.3836	-0	-0.682
Mof_O 	O 	0.3937	0.4159	-0	-0.966
Mof_O 	O 	0.9123	0.6164	-0	-0.67
Mof_O 	O 	0.6063	0.5841	-0	-0.963
Mof_N 	N 	-4.13137e-33	0	0.6849	0.032
Mof_O 	O 	0.028	0.9302	0.7218	-0.14
Mof_O 	O 	0.972	0.0698	0.7218	-0.123
Mof_O 	O 	2.90276e-33	7.37249e-33	0.6134	-0.217
Mof_N 	N 	0.5	0.5	0.8151	0.055
Mof_O 	O 	0.472	0.4302	0.7782	-0.143
Mof_O 	O 	0.528	0.5698	0.7782	-0.143
Mof_O 	O 	0.5	0.5	0.8866	-0.194
Mof_N 	N 	1.49113e-33	-3.68625e-33	0.3151	0.031
Mof_O 	O 	0.972	0.0698	0.2782	-0.122
Mof_O 	O 	0.028	0.9302	0.2782	-0.142
Mof_O 	O 	-1.85676e-33	-3.68625e-33	0.3866	-0.217
Mof_N 	N 	0.5	0.5	0.1849	0.055
Mof_O 	O 	0.528	0.5698	0.2218	-0.143
Mof_O 	O 	0.472	0.4302	0.2218	-0.144
Mof_O 	O 	0.5	0.5	0.1134	-0.197
_end
