data_functionalizedCrystal
_audit_creation_method	'EQeq! by Chris Wilmer'
_symmetry_space_group_name_H-M	'P1'
_symmetry_Int_Tables_number	1
_symmetry_cell_setting	triclinic
loop_
_symmetry_equiv_pos_as_xyz
  x,y,z
_cell_length_a	12.383
_cell_length_b	26.271
_cell_length_c	26.278
_cell_angle_alpha	90
_cell_angle_beta	90
_cell_angle_gamma	90
loop_
_atom_site_label
_atom_site_type_symbol
_atom_site_fract_x
_atom_site_fract_y
_atom_site_fract_z
_atom_site_charge
Mof_Zn	Zn	0.91743	0.99432	0.95916	1.195
Mof_Zn	Zn	0.08257	0.00568	0.45916	1.195
Mof_Zn	Zn	0.08257	0.49432	0.54084	1.196
Mof_Zn	Zn	0.91743	0.50568	0.04084	1.196
Mof_Zn	Zn	0.08257	0.00568	0.04084	1.195
Mof_Zn	Zn	0.91743	0.99432	0.54084	1.195
Mof_Zn	Zn	0.91743	0.50568	0.45916	1.196
Mof_Zn	Zn	0.08257	0.49432	0.95916	1.196
Mof_Zn	Zn	0.97881	0.69919	0.25	1.201
Mof_Zn	Zn	0.14665	0.78107	0.25	1.193
Mof_Zn	Zn	0.02119	0.30081	0.75	1.202
Mof_Zn	Zn	0.85335	0.21893	0.75	1.193
Mof_Zn	Zn	0.02119	0.19919	0.25	1.201
Mof_Zn	Zn	0.85335	0.28107	0.25	1.193
Mof_Zn	Zn	0.97881	0.80081	0.75	1.201
Mof_Zn	Zn	0.14665	0.71893	0.75	1.193
Mof_H 	H 	0.5655	0.8234	0.0244	0.05
Mof_H 	H 	0.6579	0.8031	0.9887	0.051
Mof_H 	H 	0.7493	0.8675	0.0276	0.086
Mof_H 	H 	0.785	0.7571	0.1326	0.089
Mof_H 	H 	0.9884	0.8745	0.1302	0.054
Mof_H 	H 	0.2972	0.6151	0.008	0.088
Mof_H 	H 	0.4166	0.7607	0.054	0.052
Mof_H 	H 	0.5109	0.726	0.0745	0.049
Mof_H 	H 	0.3309	0.7205	0.1183	0.083
Mof_H 	H 	0.0958	0.6156	0.1268	0.049
Mof_H 	H 	0.4345	0.1766	0.5244	0.05
Mof_H 	H 	0.3421	0.1969	0.4887	0.051
Mof_H 	H 	0.2507	0.1325	0.5276	0.086
Mof_H 	H 	0.215	0.2429	0.6326	0.089
Mof_H 	H 	0.0116	0.1255	0.6302	0.054
Mof_H 	H 	0.7028	0.3849	0.508	0.088
Mof_H 	H 	0.5834	0.2393	0.554	0.052
Mof_H 	H 	0.4891	0.274	0.5745	0.049
Mof_H 	H 	0.6691	0.2795	0.6183	0.083
Mof_H 	H 	0.9042	0.3844	0.6268	0.049
Mof_H 	H 	0.4345	0.3234	0.4756	0.05
Mof_H 	H 	0.3421	0.3031	0.5113	0.051
Mof_H 	H 	0.2507	0.3675	0.4724	0.086
Mof_H 	H 	0.215	0.2571	0.3674	0.089
Mof_H 	H 	0.0116	0.3745	0.3698	0.054
Mof_H 	H 	0.7028	0.1151	0.492	0.088
Mof_H 	H 	0.5834	0.2607	0.446	0.052
Mof_H 	H 	0.4891	0.226	0.4255	0.049
Mof_H 	H 	0.6691	0.2205	0.3817	0.083
Mof_H 	H 	0.9042	0.1156	0.3732	0.05
Mof_H 	H 	0.5655	0.6766	0.9756	0.049
Mof_H 	H 	0.6579	0.6969	0.0113	0.05
Mof_H 	H 	0.7493	0.6325	0.9724	0.086
Mof_H 	H 	0.785	0.7429	0.8674	0.089
Mof_H 	H 	0.9884	0.6255	0.8698	0.054
Mof_H 	H 	0.2972	0.8849	0.992	0.088
Mof_H 	H 	0.4166	0.7393	0.946	0.051
Mof_H 	H 	0.5109	0.774	0.9255	0.049
Mof_H 	H 	0.3309	0.7795	0.8817	0.083
Mof_H 	H 	0.0958	0.8844	0.8732	0.05
Mof_H 	H 	0.4345	0.1766	0.9756	0.048
Mof_H 	H 	0.3421	0.1969	0.0113	0.048
Mof_H 	H 	0.2507	0.1325	0.9724	0.087
Mof_H 	H 	0.215	0.2429	0.8674	0.09
Mof_H 	H 	0.0116	0.1255	0.8698	0.054
Mof_H 	H 	0.7028	0.3849	0.992	0.088
Mof_H 	H 	0.5834	0.2393	0.946	0.051
Mof_H 	H 	0.4891	0.274	0.9255	0.049
Mof_H 	H 	0.6691	0.2795	0.8817	0.083
Mof_H 	H 	0.9042	0.3844	0.8732	0.049
Mof_H 	H 	0.5655	0.8234	0.4756	0.05
Mof_H 	H 	0.6579	0.8031	0.5113	0.051
Mof_H 	H 	0.7493	0.8675	0.4724	0.086
Mof_H 	H 	0.785	0.7571	0.3674	0.089
Mof_H 	H 	0.9884	0.8745	0.3698	0.054
Mof_H 	H 	0.2972	0.6151	0.492	0.088
Mof_H 	H 	0.4166	0.7607	0.446	0.052
Mof_H 	H 	0.5109	0.726	0.4255	0.049
Mof_H 	H 	0.3309	0.7205	0.3817	0.083
Mof_H 	H 	0.0958	0.6156	0.3732	0.049
Mof_H 	H 	0.5655	0.6766	0.5244	0.05
Mof_H 	H 	0.6579	0.6969	0.4887	0.051
Mof_H 	H 	0.7493	0.6325	0.5276	0.086
Mof_H 	H 	0.785	0.7429	0.6326	0.089
Mof_H 	H 	0.9884	0.6255	0.6302	0.054
Mof_H 	H 	0.2972	0.8849	0.508	0.088
Mof_H 	H 	0.4166	0.7393	0.554	0.052
Mof_H 	H 	0.5109	0.774	0.5745	0.049
Mof_H 	H 	0.3309	0.7795	0.6183	0.083
Mof_H 	H 	0.0958	0.8844	0.6268	0.05
Mof_H 	H 	0.4345	0.3234	0.0244	0.049
Mof_H 	H 	0.3421	0.3031	0.9887	0.052
Mof_H 	H 	0.2507	0.3675	0.0276	0.086
Mof_H 	H 	0.215	0.2571	0.1326	0.089
Mof_H 	H 	0.0116	0.3745	0.1302	0.054
Mof_H 	H 	0.7028	0.1151	0.008	0.088
Mof_H 	H 	0.5834	0.2607	0.054	0.051
Mof_H 	H 	0.4891	0.226	0.0745	0.049
Mof_H 	H 	0.6691	0.2205	0.1183	0.083
Mof_H 	H 	0.9042	0.1156	0.1268	0.05
Mof_C 	C 	0.8754	0.87722	0.07519	-0.043
Mof_C 	C 	0.8964	0.81199	0.13775	-0.051
Mof_C 	C 	0.6093	0.79398	0.01611	-0.007
Mof_C 	C 	0.7862	0.85332	0.05498	-0.12
Mof_C 	C 	0.918	0.92532	0.04967	0.376
Mof_C 	C 	0.7529	0.80791	0.07622	0.171
Mof_C 	C 	0.8083	0.78746	0.1181	-0.107
Mof_C 	C 	0.9562	0.7866	0.18019	0.373
Mof_C 	C 	0.9295	0.85727	0.11657	-0.01
Mof_C 	C 	0.2744	0.62944	0.03855	-0.102
Mof_C 	C 	0.4667	0.73372	0.04504	-0.01
Mof_C 	C 	0.3275	0.6714	0.05853	0.165
Mof_C 	C 	0.2947	0.69271	0.10466	-0.109
Mof_C 	C 	0.2057	0.67125	0.12998	-0.057
Mof_C 	C 	0.1867	0.60911	0.06461	-0.062
Mof_C 	C 	0.1243	0.56656	0.04023	0.392
Mof_C 	C 	0.1541	0.62984	0.10964	0.003
Mof_C 	C 	0.1627	0.69594	0.17734	0.378
Mof_C 	C 	0.1246	0.12278	0.57519	-0.043
Mof_C 	C 	0.1036	0.18801	0.63775	-0.051
Mof_C 	C 	0.3907	0.20602	0.51611	-0.008
Mof_C 	C 	0.2138	0.14668	0.55498	-0.12
Mof_C 	C 	0.082	0.07468	0.54967	0.376
Mof_C 	C 	0.2471	0.19209	0.57622	0.171
Mof_C 	C 	0.1917	0.21254	0.6181	-0.107
Mof_C 	C 	0.0438	0.2134	0.68019	0.373
Mof_C 	C 	0.0705	0.14273	0.61657	-0.01
Mof_C 	C 	0.7256	0.37056	0.53855	-0.102
Mof_C 	C 	0.5333	0.26628	0.54504	-0.01
Mof_C 	C 	0.6725	0.3286	0.55853	0.165
Mof_C 	C 	0.7053	0.30729	0.60466	-0.109
Mof_C 	C 	0.7943	0.32875	0.62998	-0.057
Mof_C 	C 	0.8133	0.39089	0.56461	-0.062
Mof_C 	C 	0.8757	0.43344	0.54023	0.392
Mof_C 	C 	0.8459	0.37016	0.60964	0.003
Mof_C 	C 	0.8373	0.30406	0.67734	0.378
Mof_C 	C 	0.1246	0.37722	0.42481	-0.043
Mof_C 	C 	0.1036	0.31199	0.36225	-0.052
Mof_C 	C 	0.3907	0.29398	0.48389	-0.008
Mof_C 	C 	0.2138	0.35332	0.44502	-0.12
Mof_C 	C 	0.082	0.42532	0.45033	0.376
Mof_C 	C 	0.2471	0.30791	0.42378	0.171
Mof_C 	C 	0.1917	0.28746	0.3819	-0.107
Mof_C 	C 	0.0438	0.2866	0.31981	0.374
Mof_C 	C 	0.0705	0.35727	0.38343	-0.01
Mof_C 	C 	0.7256	0.12944	0.46145	-0.103
Mof_C 	C 	0.5333	0.23372	0.45496	-0.01
Mof_C 	C 	0.6725	0.1714	0.44147	0.166
Mof_C 	C 	0.7053	0.19271	0.39534	-0.109
Mof_C 	C 	0.7943	0.17125	0.37002	-0.056
Mof_C 	C 	0.8133	0.10911	0.43539	-0.061
Mof_C 	C 	0.8757	0.06656	0.45977	0.392
Mof_C 	C 	0.8459	0.12984	0.39036	0.003
Mof_C 	C 	0.8373	0.19594	0.32266	0.378
Mof_C 	C 	0.8754	0.62278	0.92481	-0.043
Mof_C 	C 	0.8964	0.68801	0.86225	-0.052
Mof_C 	C 	0.6093	0.70602	0.98389	-0.006
Mof_C 	C 	0.7862	0.64668	0.94502	-0.12
Mof_C 	C 	0.918	0.57468	0.95033	0.376
Mof_C 	C 	0.7529	0.69209	0.92378	0.171
Mof_C 	C 	0.8083	0.71254	0.8819	-0.107
Mof_C 	C 	0.9562	0.7134	0.81981	0.374
Mof_C 	C 	0.9295	0.64273	0.88343	-0.01
Mof_C 	C 	0.2744	0.87056	0.96145	-0.103
Mof_C 	C 	0.4667	0.76628	0.95496	-0.009
Mof_C 	C 	0.3275	0.8286	0.94147	0.166
Mof_C 	C 	0.2947	0.80729	0.89534	-0.109
Mof_C 	C 	0.2057	0.82875	0.87002	-0.056
Mof_C 	C 	0.1867	0.89089	0.93539	-0.062
Mof_C 	C 	0.1243	0.93344	0.95977	0.392
Mof_C 	C 	0.1541	0.87016	0.89036	0.003
Mof_C 	C 	0.1627	0.80406	0.82266	0.378
Mof_C 	C 	0.1246	0.12278	0.92481	-0.043
Mof_C 	C 	0.1036	0.18801	0.86225	-0.051
Mof_C 	C 	0.3907	0.20602	0.98389	-0.002
Mof_C 	C 	0.2138	0.14668	0.94502	-0.12
Mof_C 	C 	0.082	0.07468	0.95033	0.375
Mof_C 	C 	0.2471	0.19209	0.92378	0.172
Mof_C 	C 	0.1917	0.21254	0.8819	-0.108
Mof_C 	C 	0.0438	0.2134	0.81981	0.373
Mof_C 	C 	0.0705	0.14273	0.88343	-0.011
Mof_C 	C 	0.7256	0.37056	0.96145	-0.103
Mof_C 	C 	0.5333	0.26628	0.95496	-0.007
Mof_C 	C 	0.6725	0.3286	0.94147	0.166
Mof_C 	C 	0.7053	0.30729	0.89534	-0.109
Mof_C 	C 	0.7943	0.32875	0.87002	-0.057
Mof_C 	C 	0.8133	0.39089	0.93539	-0.062
Mof_C 	C 	0.8757	0.43344	0.95977	0.392
Mof_C 	C 	0.8459	0.37016	0.89036	0.003
Mof_C 	C 	0.8373	0.30406	0.82266	0.378
Mof_C 	C 	0.8754	0.87722	0.42481	-0.043
Mof_C 	C 	0.8964	0.81199	0.36225	-0.051
Mof_C 	C 	0.6093	0.79398	0.48389	-0.008
Mof_C 	C 	0.7862	0.85332	0.44502	-0.12
Mof_C 	C 	0.918	0.92532	0.45033	0.376
Mof_C 	C 	0.7529	0.80791	0.42378	0.171
Mof_C 	C 	0.8083	0.78746	0.3819	-0.107
Mof_C 	C 	0.9562	0.7866	0.31981	0.373
Mof_C 	C 	0.9295	0.85727	0.38343	-0.01
Mof_C 	C 	0.2744	0.62944	0.46145	-0.102
Mof_C 	C 	0.4667	0.73372	0.45496	-0.01
Mof_C 	C 	0.3275	0.6714	0.44147	0.165
Mof_C 	C 	0.2947	0.69271	0.39534	-0.109
Mof_C 	C 	0.2057	0.67125	0.37002	-0.057
Mof_C 	C 	0.1867	0.60911	0.43539	-0.062
Mof_C 	C 	0.1243	0.56656	0.45977	0.392
Mof_C 	C 	0.1541	0.62984	0.39036	0.003
Mof_C 	C 	0.1627	0.69594	0.32266	0.378
Mof_C 	C 	0.8754	0.62278	0.57519	-0.043
Mof_C 	C 	0.8964	0.68801	0.63775	-0.052
Mof_C 	C 	0.6093	0.70602	0.51611	-0.008
Mof_C 	C 	0.7862	0.64668	0.55498	-0.12
Mof_C 	C 	0.918	0.57468	0.54967	0.376
Mof_C 	C 	0.7529	0.69209	0.57622	0.171
Mof_C 	C 	0.8083	0.71254	0.6181	-0.107
Mof_C 	C 	0.9562	0.7134	0.68019	0.374
Mof_C 	C 	0.9295	0.64273	0.61657	-0.01
Mof_C 	C 	0.2744	0.87056	0.53855	-0.103
Mof_C 	C 	0.4667	0.76628	0.54504	-0.01
Mof_C 	C 	0.3275	0.8286	0.55853	0.166
Mof_C 	C 	0.2947	0.80729	0.60466	-0.109
Mof_C 	C 	0.2057	0.82875	0.62998	-0.056
Mof_C 	C 	0.1867	0.89089	0.56461	-0.061
Mof_C 	C 	0.1243	0.93344	0.54023	0.392
Mof_C 	C 	0.1541	0.87016	0.60964	0.003
Mof_C 	C 	0.1627	0.80406	0.67734	0.378
Mof_C 	C 	0.1246	0.37722	0.07519	-0.043
Mof_C 	C 	0.1036	0.31199	0.13775	-0.052
Mof_C 	C 	0.3907	0.29398	0.01611	-0.008
Mof_C 	C 	0.2138	0.35332	0.05498	-0.12
Mof_C 	C 	0.082	0.42532	0.04967	0.376
Mof_C 	C 	0.2471	0.30791	0.07622	0.171
Mof_C 	C 	0.1917	0.28746	0.1181	-0.107
Mof_C 	C 	0.0438	0.2866	0.18019	0.374
Mof_C 	C 	0.0705	0.35727	0.11657	-0.01
Mof_C 	C 	0.7256	0.12944	0.03855	-0.103
Mof_C 	C 	0.5333	0.23372	0.04504	-0.008
Mof_C 	C 	0.6725	0.1714	0.05853	0.166
Mof_C 	C 	0.7053	0.19271	0.10466	-0.11
Mof_C 	C 	0.7943	0.17125	0.12998	-0.056
Mof_C 	C 	0.8133	0.10911	0.06461	-0.062
Mof_C 	C 	0.8757	0.06656	0.04023	0.392
Mof_C 	C 	0.8459	0.12984	0.10964	0.003
Mof_C 	C 	0.8373	0.19594	0.17734	0.378
Mof_C 	C 	0.5378	0.75	-0	0.031
Mof_C 	C 	0.4622	0.25	0.5	0.032
Mof_C 	C 	0.4622	0.25	-0	0.028
Mof_C 	C 	0.5378	0.75	0.5	0.032
Mof_O 	O 	0.6691	0.77839	0.0593	-0.222
Mof_O 	O 	0.0418	0.80813	0.19578	-0.462
Mof_O 	O 	0.8716	0.93879	0.0097	-0.473
Mof_O 	O 	0.9969	0.9472	0.0706	-0.474
Mof_O 	O 	0.9172	0.74639	0.19786	-0.48
Mof_O 	O 	0.4097	0.68958	0.02875	-0.219
Mof_O 	O 	0.1622	0.5463	0.00079	-0.478
Mof_O 	O 	0.2105	0.73554	0.19398	-0.462
Mof_O 	O 	0.0389	0.55358	0.06172	-0.486
Mof_O 	O 	0.0829	0.67499	0.19697	-0.486
Mof_O 	O 	0.3309	0.22161	0.5593	-0.221
Mof_O 	O 	0.9582	0.19187	0.69578	-0.462
Mof_O 	O 	0.1284	0.06121	0.5097	-0.473
Mof_O 	O 	0.0031	0.0528	0.5706	-0.474
Mof_O 	O 	0.0828	0.25361	0.69786	-0.48
Mof_O 	O 	0.5903	0.31042	0.52875	-0.219
Mof_O 	O 	0.8378	0.4537	0.50079	-0.478
Mof_O 	O 	0.7895	0.26446	0.69398	-0.462
Mof_O 	O 	0.9611	0.44642	0.56172	-0.486
Mof_O 	O 	0.9171	0.32501	0.69697	-0.486
Mof_O 	O 	0.3309	0.27839	0.4407	-0.221
Mof_O 	O 	0.9582	0.30813	0.30422	-0.463
Mof_O 	O 	0.1284	0.43879	0.4903	-0.472
Mof_O 	O 	0.0031	0.4472	0.4294	-0.473
Mof_O 	O 	0.0828	0.24639	0.30214	-0.481
Mof_O 	O 	0.5903	0.18958	0.47125	-0.219
Mof_O 	O 	0.8378	0.0463	0.49921	-0.476
Mof_O 	O 	0.7895	0.23554	0.30602	-0.462
Mof_O 	O 	0.9611	0.05358	0.43828	-0.484
Mof_O 	O 	0.9171	0.17499	0.30303	-0.486
Mof_O 	O 	0.6691	0.72161	0.9407	-0.222
Mof_O 	O 	0.0418	0.69187	0.80422	-0.463
Mof_O 	O 	0.8716	0.56121	0.9903	-0.472
Mof_O 	O 	0.9969	0.5528	0.9294	-0.473
Mof_O 	O 	0.9172	0.75361	0.80214	-0.481
Mof_O 	O 	0.4097	0.81042	0.97125	-0.219
Mof_O 	O 	0.1622	0.9537	0.99921	-0.476
Mof_O 	O 	0.2105	0.76446	0.80602	-0.462
Mof_O 	O 	0.0389	0.94642	0.93828	-0.484
Mof_O 	O 	0.0829	0.82501	0.80303	-0.486
Mof_O 	O 	0.3309	0.22161	0.9407	-0.222
Mof_O 	O 	0.9582	0.19187	0.80422	-0.462
Mof_O 	O 	0.1284	0.06121	0.9903	-0.472
Mof_O 	O 	0.0031	0.0528	0.9294	-0.474
Mof_O 	O 	0.0828	0.25361	0.80214	-0.48
Mof_O 	O 	0.5903	0.31042	0.97125	-0.219
Mof_O 	O 	0.8378	0.4537	0.99921	-0.478
Mof_O 	O 	0.7895	0.26446	0.80602	-0.462
Mof_O 	O 	0.9611	0.44642	0.93828	-0.486
Mof_O 	O 	0.9171	0.32501	0.80303	-0.486
Mof_O 	O 	0.6691	0.77839	0.4407	-0.221
Mof_O 	O 	0.0418	0.80813	0.30422	-0.462
Mof_O 	O 	0.8716	0.93879	0.4903	-0.473
Mof_O 	O 	0.9969	0.9472	0.4294	-0.474
Mof_O 	O 	0.9172	0.74639	0.30214	-0.48
Mof_O 	O 	0.4097	0.68958	0.47125	-0.219
Mof_O 	O 	0.1622	0.5463	0.49921	-0.478
Mof_O 	O 	0.2105	0.73554	0.30602	-0.462
Mof_O 	O 	0.0389	0.55358	0.43828	-0.486
Mof_O 	O 	0.0829	0.67499	0.30303	-0.486
Mof_O 	O 	0.6691	0.72161	0.5593	-0.221
Mof_O 	O 	0.0418	0.69187	0.69578	-0.463
Mof_O 	O 	0.8716	0.56121	0.5097	-0.472
Mof_O 	O 	0.9969	0.5528	0.5706	-0.473
Mof_O 	O 	0.9172	0.75361	0.69786	-0.481
Mof_O 	O 	0.4097	0.81042	0.52875	-0.219
Mof_O 	O 	0.1622	0.9537	0.50079	-0.476
Mof_O 	O 	0.2105	0.76446	0.69398	-0.462
Mof_O 	O 	0.0389	0.94642	0.56172	-0.484
Mof_O 	O 	0.0829	0.82501	0.69697	-0.486
Mof_O 	O 	0.3309	0.27839	0.0593	-0.221
Mof_O 	O 	0.9582	0.30813	0.19578	-0.464
Mof_O 	O 	0.1284	0.43879	0.0097	-0.473
Mof_O 	O 	0.0031	0.4472	0.0706	-0.473
Mof_O 	O 	0.0828	0.24639	0.19786	-0.481
Mof_O 	O 	0.5903	0.18958	0.02875	-0.22
Mof_O 	O 	0.8378	0.0463	0.00079	-0.477
Mof_O 	O 	0.7895	0.23554	0.19398	-0.462
Mof_O 	O 	0.9611	0.05358	0.06172	-0.484
Mof_O 	O 	0.9171	0.17499	0.19697	-0.486
_end
