data_functionalizedCrystal
_audit_creation_method	'EQeq! by Chris Wilmer'
_symmetry_space_group_name_H-M	'P1'
_symmetry_Int_Tables_number	1
_symmetry_cell_setting	triclinic
loop_
_symmetry_equiv_pos_as_xyz
  x,y,z
_cell_length_a	12.4369
_cell_length_b	12.8417
_cell_length_c	13.2691
_cell_angle_alpha	99.98
_cell_angle_beta	105.142
_cell_angle_gamma	111.649
loop_
_atom_site_label
_atom_site_type_symbol
_atom_site_fract_x
_atom_site_fract_y
_atom_site_fract_z
_atom_site_charge
Mof_N 	N 	0.9322	0.7035	0.2322	-0.101
Mof_N 	N 	0.9109	0.6102	0.2711	-0.099
Mof_N 	N 	0.9704	0.5833	0.127	-0.241
Mof_N 	N 	0.7197	0.8696	0.6731	-0.1
Mof_N 	N 	0.7386	0.8449	0.5797	-0.101
Mof_N 	N 	0.612	0.9306	0.5633	-0.245
Mof_N 	N 	0.3079	0.4952	0.2054	-0.098
Mof_N 	N 	0.2228	0.4151	0.2331	-0.107
Mof_N 	N 	0.1299	0.4751	0.1039	-0.259
Mof_N 	N 	0.7689	0.3154	0.5198	-0.104
Mof_N 	N 	0.7798	0.3404	0.6245	-0.092
Mof_N 	N 	0.644	0.1557	0.535	-0.257
Mof_C 	C 	0.9343	0.5407	0.2053	0.1
Mof_H 	H 	0.9267	0.4675	0.2114	-0.014
Mof_C 	C 	0.968	0.6865	0.1477	0.096
Mof_H 	H 	0.9885	0.7396	0.1085	-0.021
Mof_C 	C 	0.9099	0.8014	0.2792	0.006
Mof_H 	H 	0.8241	0.7719	0.274	0.026
Mof_H 	H 	0.923	0.8559	0.2364	0.031
Mof_C 	C 	0.9912	0.8663	0.3963	-0.175
Mof_H 	H 	0.0772	0.8962	0.4022	0.073
Mof_H 	H 	0.9776	0.8127	0.4399	0.093
Mof_C 	C 	0.9649	0.9678	0.4408	0.096
Mof_H 	H 	0.9836	0.0231	0.3994	-0.004
Mof_H 	H 	0.8771	0.9378	0.4286	0.005
Mof_C 	C 	0.6729	0.8816	0.5156	0.096
Mof_H 	H 	0.6679	0.8749	0.4434	-0.02
Mof_C 	C 	0.6457	0.92	0.6616	0.104
Mof_H 	H 	0.6198	0.9455	0.7168	-0.019
Mof_C 	C 	0.7841	0.8472	0.7703	-0.022
Mof_H 	H 	0.8218	0.797	0.7494	0.051
Mof_H 	H 	0.7251	0.8067	0.8019	0.043
Mof_C 	C 	0.8831	0.9615	0.8544	-0.156
Mof_H 	H 	0.8456	0.0133	0.8712	0.066
Mof_H 	H 	0.9441	0.9996	0.8235	0.094
Mof_C 	C 	0.9476	0.9432	0.9596	0.069
Mof_H 	H 	0.8876	0.9102	0.9932	0.028
Mof_H 	H 	0.9802	0.8872	0.9422	0.024
Mof_C 	C 	0.1185	0.4064	0.1705	0.096
Mof_H 	H 	0.0423	0.357	0.1714	-0.035
Mof_C 	C 	0.2499	0.5286	0.1281	0.091
Mof_H 	H 	0.2888	0.5825	0.0955	-0.033
Mof_C 	C 	0.4421	0.5643	0.2867	-0.083
Mof_H 	H 	0.4931	0.6159	0.2551	0.042
Mof_H 	H 	0.445	0.6113	0.3538	0.06
Mof_C 	C 	0.4855	0.4754	0.3083	-0.003
Mof_H 	H 	0.4785	0.426	0.2404	0.014
Mof_H 	H 	0.4363	0.4261	0.3425	0.025
Mof_C 	C 	0.6224	0.5422	0.3855	-0.182
Mof_H 	H 	0.6714	0.5926	0.3519	0.082
Mof_H 	H 	0.6294	0.5905	0.454	0.086
Mof_C 	C 	0.6647	0.4547	0.4047	0.013
Mof_H 	H 	0.6536	0.4062	0.3346	0.021
Mof_H 	H 	0.6124	0.4045	0.4362	0.029
Mof_C 	C 	0.7968	0.5008	0.4781	-0.188
Mof_H 	H 	0.8058	0.5366	0.5523	0.098
Mof_H 	H 	0.8492	0.561	0.4544	0.089
Mof_C 	C 	0.8381	0.4048	0.4767	0.004
Mof_H 	H 	0.8272	0.368	0.4022	0.028
Mof_H 	H 	0.9255	0.4385	0.5202	0.041
Mof_C 	C 	0.7033	0.2398	0.6292	0.105
Mof_H 	H 	0.692	0.2289	0.6938	-0.025
Mof_C 	C 	0.6884	0.2064	0.4694	0.11
Mof_H 	H 	0.6659	0.1697	0.3953	-0.033
Mof_C 	C 	0.4403	0.4997	0.231	0.014
Mof_C 	C 	0.4923	0.547	0.3564	-0.05
Mof_H 	H 	0.4362	0.4223	0.2057	0.009
Mof_H 	H 	0.4889	0.5524	0.1987	0.006
Mof_H 	H 	0.4395	0.4977	0.3881	0.039
Mof_H 	H 	0.5023	0.6268	0.3813	0.008
Mof_N 	N 	0.0678	0.2965	0.7678	-0.096
Mof_N 	N 	0.0891	0.3898	0.7289	-0.103
Mof_N 	N 	0.0296	0.4167	0.873	-0.236
Mof_N 	N 	0.2803	0.1304	0.3269	-0.096
Mof_N 	N 	0.2614	0.1551	0.4203	-0.107
Mof_N 	N 	0.388	0.0694	0.4367	-0.252
Mof_N 	N 	0.6921	0.5048	0.7946	-0.096
Mof_N 	N 	0.7772	0.5849	0.7669	-0.103
Mof_N 	N 	0.8701	0.5249	0.8961	-0.232
Mof_N 	N 	0.2311	0.6846	0.4802	-0.106
Mof_N 	N 	0.2202	0.6596	0.3755	-0.099
Mof_N 	N 	0.356	0.8443	0.465	-0.251
Mof_C 	C 	0.0657	0.4593	0.7947	0.098
Mof_H 	H 	0.0733	0.5325	0.7886	-0.017
Mof_C 	C 	0.032	0.3135	0.8523	0.093
Mof_H 	H 	0.0115	0.2604	0.8915	-0.016
Mof_C 	C 	0.0901	0.1986	0.7208	-0.055
Mof_H 	H 	0.1759	0.2281	0.726	0.048
Mof_H 	H 	0.077	0.1441	0.7636	0.036
Mof_C 	C 	0.0088	0.1337	0.6037	-0.077
Mof_H 	H 	0.9228	0.1038	0.5978	0.067
Mof_H 	H 	0.0224	0.1873	0.5601	0.05
Mof_C 	C 	0.0351	0.0322	0.5592	-0.254
Mof_H 	H 	0.0164	0.9769	0.6006	0.102
Mof_H 	H 	0.1229	0.0622	0.5714	0.093
Mof_C 	C 	0.3271	0.1184	0.4844	0.088
Mof_H 	H 	0.3321	0.1251	0.5566	-0.026
Mof_C 	C 	0.3543	0.08	0.3384	0.095
Mof_H 	H 	0.3802	0.0545	0.2832	-0.033
Mof_C 	C 	0.2159	0.1528	0.2297	-0.086
Mof_H 	H 	0.1782	0.203	0.2506	0.063
Mof_H 	H 	0.2749	0.1933	0.1981	0.052
Mof_C 	C 	0.1169	0.0385	0.1456	-0.046
Mof_H 	H 	0.1544	0.9867	0.1288	0.037
Mof_H 	H 	0.0559	0.0004	0.1765	0.024
Mof_C 	C 	0.0524	0.0568	0.0404	-0.256
Mof_H 	H 	0.1124	0.0898	0.0068	0.073
Mof_H 	H 	0.0198	0.1128	0.0578	0.077
Mof_C 	C 	0.8815	0.5936	0.8295	0.105
Mof_H 	H 	0.9577	0.643	0.8286	-0.009
Mof_C 	C 	0.7501	0.4714	0.8719	0.1
Mof_H 	H 	0.7112	0.4175	0.9045	-0.015
Mof_C 	C 	0.5579	0.4357	0.7133	-0.071
Mof_H 	H 	0.5069	0.3841	0.7449	0.039
Mof_H 	H 	0.555	0.3887	0.6462	0.057
Mof_C 	C 	0.5145	0.5246	0.6917	-0.02
Mof_H 	H 	0.5215	0.574	0.7596	0.02
Mof_H 	H 	0.5637	0.5739	0.6575	0.032
Mof_C 	C 	0.3776	0.4578	0.6145	-0.166
Mof_H 	H 	0.3286	0.4074	0.6481	0.078
Mof_H 	H 	0.3706	0.4095	0.546	0.08
Mof_C 	C 	0.3353	0.5453	0.5953	-0.004
Mof_H 	H 	0.3464	0.5938	0.6654	0.032
Mof_H 	H 	0.3876	0.5955	0.5638	0.035
Mof_C 	C 	0.2032	0.4992	0.5219	-0.176
Mof_H 	H 	0.1942	0.4634	0.4477	0.089
Mof_H 	H 	0.1508	0.439	0.5456	0.079
Mof_C 	C 	0.1619	0.5952	0.5233	0.003
Mof_H 	H 	0.1728	0.632	0.5978	0.025
Mof_H 	H 	0.0745	0.5615	0.4798	0.023
Mof_C 	C 	0.2967	0.7602	0.3708	0.103
Mof_H 	H 	0.308	0.7711	0.3062	-0.028
Mof_C 	C 	0.3116	0.7936	0.5306	0.106
Mof_H 	H 	0.3341	0.8303	0.6047	-0.024
Mof_C 	C 	0.5597	0.5003	0.769	0.006
Mof_C 	C 	0.5077	0.453	0.6436	-0.041
Mof_H 	H 	0.5638	0.5777	0.7943	0.02
Mof_H 	H 	0.5111	0.4476	0.8013	0.018
Mof_H 	H 	0.5605	0.5023	0.6119	0.036
Mof_H 	H 	0.4977	0.3732	0.6187	0.006
Mof_Cu	Cu	-0	0.5	-0	0.821
Mof_Cu	Cu	0.5	-3.13459e-17	0.5	0.844
_end
