data_functionalizedCrystal
_audit_creation_method	'EQeq! by Chris Wilmer'
_symmetry_space_group_name_H-M	'P1'
_symmetry_Int_Tables_number	1
_symmetry_cell_setting	triclinic
loop_
_symmetry_equiv_pos_as_xyz
  x,y,z
_cell_length_a	14.9438
_cell_length_b	14.9438
_cell_length_c	10.129
_cell_angle_alpha	90
_cell_angle_beta	90
_cell_angle_gamma	90
loop_
_atom_site_label
_atom_site_type_symbol
_atom_site_fract_x
_atom_site_fract_y
_atom_site_fract_z
_atom_site_charge
Mof_C 	C 	0.0644	0.4033	0.1187	-0.058
Mof_C 	C 	0.1119	0.423	0.2462	0.305
Mof_C 	C 	0.9785	0.369	0.1184	-0.011
Mof_H 	H 	0.9498	0.3577	0.1982	0.048
Mof_C 	C 	0.8186	0.2533	0.8977	-0.094
Mof_H 	H 	0.859	0.2381	0.8317	0.078
Mof_C 	C 	0.7338	0.2176	0.8993	0.077
Mof_H 	H 	0.7164	0.1796	0.8313	0.002
Mof_O 	O 	0.0699	0.4072	0.3525	-0.436
Mof_O 	O 	0.1896	0.4525	0.2437	-0.335
Mof_C 	C 	0.6948	0.2938	0.9156	0.053
Mof_H 	H 	0.6525	0.3106	0.8531	0.014
Mof_C 	C 	0.7799	0.3341	0.9098	-0.006
Mof_H 	H 	0.7927	0.3749	0.843	0.054
Mof_C 	C 	0.9356	0.5967	0.1187	-0.057
Mof_C 	C 	0.8881	0.577	0.2462	0.306
Mof_C 	C 	0.0215	0.631	0.1184	-0.011
Mof_H 	H 	0.0502	0.6423	0.1982	0.048
Mof_C 	C 	0.1814	0.7467	0.8977	-0.094
Mof_H 	H 	0.141	0.7619	0.8317	0.078
Mof_C 	C 	0.2662	0.7824	0.8993	0.077
Mof_H 	H 	0.2836	0.8204	0.8313	0.002
Mof_O 	O 	0.9301	0.5928	0.3525	-0.436
Mof_O 	O 	0.8104	0.5475	0.2437	-0.335
Mof_C 	C 	0.3052	0.7062	0.9156	0.053
Mof_H 	H 	0.3475	0.6894	0.8531	0.014
Mof_C 	C 	0.2201	0.6659	0.9098	-0.006
Mof_H 	H 	0.2073	0.6251	0.843	0.054
Mof_C 	C 	0.5967	0.0644	0.6187	-0.071
Mof_C 	C 	0.577	0.1119	0.7462	0.308
Mof_C 	C 	0.631	0.9785	0.6184	-0.007
Mof_H 	H 	0.6423	0.9498	0.6982	0.054
Mof_C 	C 	0.7467	0.8186	0.3977	-0.074
Mof_H 	H 	0.7619	0.859	0.3317	0.058
Mof_C 	C 	0.7824	0.7338	0.3993	-0.007
Mof_H 	H 	0.8204	0.7164	0.3313	0.022
Mof_O 	O 	0.5928	0.0699	0.8525	-0.405
Mof_O 	O 	0.5475	0.1896	0.7437	-0.319
Mof_C 	C 	0.7062	0.6948	0.4156	0.097
Mof_H 	H 	0.6894	0.6525	0.3531	-0.013
Mof_C 	C 	0.6659	0.7799	0.4098	-0.128
Mof_H 	H 	0.6251	0.7927	0.343	0.087
Mof_C 	C 	0.4033	0.9356	0.6187	-0.071
Mof_C 	C 	0.423	0.8881	0.7462	0.308
Mof_C 	C 	0.369	0.0215	0.6184	-0.007
Mof_H 	H 	0.3577	0.0502	0.6982	0.054
Mof_C 	C 	0.2533	0.1814	0.3977	-0.074
Mof_H 	H 	0.2381	0.141	0.3317	0.058
Mof_C 	C 	0.2176	0.2662	0.3993	-0.007
Mof_H 	H 	0.1796	0.2836	0.3313	0.022
Mof_O 	O 	0.4072	0.9301	0.8525	-0.405
Mof_O 	O 	0.4525	0.8104	0.7437	-0.319
Mof_C 	C 	0.2938	0.3052	0.4156	0.097
Mof_H 	H 	0.3106	0.3475	0.3531	-0.013
Mof_C 	C 	0.3341	0.2201	0.4098	-0.128
Mof_H 	H 	0.3749	0.2073	0.343	0.087
Mof_C 	C 	0.9356	0.5967	0.8813	-0.016
Mof_C 	C 	0.8881	0.577	0.7538	0.299
Mof_C 	C 	0.0215	0.631	0.8816	0.041
Mof_H 	H 	0.0502	0.6423	0.8018	0.036
Mof_C 	C 	0.1814	0.7467	0.1023	0.044
Mof_H 	H 	0.141	0.7619	0.1683	0.015
Mof_C 	C 	0.2662	0.7824	0.1007	-0.129
Mof_H 	H 	0.2836	0.8204	0.1687	0.064
Mof_O 	O 	0.9301	0.5928	0.6475	-0.433
Mof_O 	O 	0.8104	0.5475	0.7563	-0.314
Mof_C 	C 	0.3052	0.7062	0.0844	0.199
Mof_H 	H 	0.3475	0.6894	0.1469	-0.052
Mof_C 	C 	0.2201	0.6659	0.0902	-0.229
Mof_H 	H 	0.2073	0.6251	0.157	0.12
Mof_C 	C 	0.0644	0.4033	0.8813	-0.016
Mof_C 	C 	0.1119	0.423	0.7538	0.299
Mof_C 	C 	0.9785	0.369	0.8816	0.041
Mof_H 	H 	0.9498	0.3577	0.8018	0.036
Mof_C 	C 	0.8186	0.2533	0.1023	0.044
Mof_H 	H 	0.859	0.2381	0.1683	0.015
Mof_C 	C 	0.7338	0.2176	0.1007	-0.129
Mof_H 	H 	0.7164	0.1796	0.1687	0.064
Mof_O 	O 	0.0699	0.4072	0.6475	-0.433
Mof_O 	O 	0.1896	0.4525	0.7563	-0.314
Mof_C 	C 	0.6948	0.2938	0.0844	0.199
Mof_H 	H 	0.6525	0.3106	0.1469	-0.052
Mof_C 	C 	0.7799	0.3341	0.0902	-0.229
Mof_H 	H 	0.7927	0.3749	0.157	0.12
Mof_C 	C 	0.4033	0.9356	0.3813	-0.078
Mof_C 	C 	0.423	0.8881	0.2538	0.314
Mof_C 	C 	0.369	0.0215	0.3816	-0.003
Mof_H 	H 	0.3577	0.0502	0.3018	0.044
Mof_C 	C 	0.2533	0.1814	0.6023	-0.042
Mof_H 	H 	0.2381	0.141	0.6683	0.056
Mof_C 	C 	0.2176	0.2662	0.6007	-0.041
Mof_H 	H 	0.1796	0.2836	0.6687	0.041
Mof_O 	O 	0.4072	0.9301	0.1475	-0.444
Mof_O 	O 	0.4525	0.8104	0.2563	-0.334
Mof_C 	C 	0.2938	0.3052	0.5844	0.136
Mof_H 	H 	0.3106	0.3475	0.6469	-0.019
Mof_C 	C 	0.3341	0.2201	0.5902	-0.161
Mof_H 	H 	0.3749	0.2073	0.657	0.106
Mof_C 	C 	0.5967	0.0644	0.3813	-0.078
Mof_C 	C 	0.577	0.1119	0.2538	0.314
Mof_C 	C 	0.631	0.9785	0.3816	-0.003
Mof_H 	H 	0.6423	0.9498	0.3018	0.044
Mof_C 	C 	0.7467	0.8186	0.6023	-0.042
Mof_H 	H 	0.7619	0.859	0.6683	0.056
Mof_C 	C 	0.7824	0.7338	0.6007	-0.041
Mof_H 	H 	0.8204	0.7164	0.6687	0.041
Mof_O 	O 	0.5928	0.0699	0.1475	-0.444
Mof_O 	O 	0.5475	0.1896	0.2563	-0.334
Mof_C 	C 	0.7062	0.6948	0.5844	0.136
Mof_H 	H 	0.6894	0.6525	0.6469	-0.019
Mof_C 	C 	0.6659	0.7799	0.5902	-0.161
Mof_H 	H 	0.6251	0.7927	0.657	0.106
Mof_Zn	Zn	0.56338	0.15412	-0	1.196
Mof_C 	C 	0.3712	0.1246	-0	0.105
Mof_H 	H 	0.382	0.0633	-0	-0.022
Mof_C 	C 	0.303	0.2508	-0	-0.011
Mof_H 	H 	0.2589	0.2948	-0	0.032
Mof_C 	C 	0.3909	0.2642	-0	0.017
Mof_H 	H 	0.4189	0.3198	-0	0
Mof_C 	C 	0.2065	0.1151	-0	0.131
Mof_C 	C 	0.203	0.0241	-0	-0.148
Mof_H 	H 	0.2557	0.9909	-0	0.078
Mof_C 	C 	0.1232	0.9822	-0	0.004
Mof_H 	H 	0.1235	0.92	-0	0.021
Mof_C 	C 	0.0422	0.0239	-0	-0.023
Mof_C 	C 	0.0486	0.1148	-0	0.006
Mof_H 	H 	0.9959	0.1479	-0	0.022
Mof_C 	C 	0.127	0.1597	-0	-0.151
Mof_H 	H 	0.1267	0.2219	-0	0.082
Mof_C 	C 	0.9344	0.3513	-0	-0.082
Mof_C 	C 	0.1076	0.4209	-0	-0.073
Mof_H 	H 	0.1652	0.4445	-0	0.066
Mof_C 	C 	0.8429	0.3141	-0	0.054
Mof_N 	N 	0.673	0.2368	-0	-0.313
Mof_N 	N 	0.4331	0.1845	-0	-0.279
Mof_N 	N 	0.2895	0.1611	-0	-0.15
Mof_Zn	Zn	0.43662	0.84588	-0	1.196
Mof_C 	C 	0.6288	0.8754	-0	0.105
Mof_H 	H 	0.618	0.9367	-0	-0.022
Mof_C 	C 	0.697	0.7492	-0	-0.011
Mof_H 	H 	0.7411	0.7052	-0	0.032
Mof_C 	C 	0.6091	0.7358	-0	0.017
Mof_H 	H 	0.5811	0.6802	-0	0
Mof_C 	C 	0.7935	0.8849	-0	0.131
Mof_C 	C 	0.797	0.9759	-0	-0.148
Mof_H 	H 	0.7443	0.0091	-0	0.078
Mof_C 	C 	0.8768	0.0178	-0	0.004
Mof_H 	H 	0.8765	0.08	-0	0.021
Mof_C 	C 	0.9578	0.9761	-0	-0.023
Mof_C 	C 	0.9514	0.8852	-0	0.006
Mof_H 	H 	0.0041	0.8521	-0	0.022
Mof_C 	C 	0.873	0.8403	-0	-0.151
Mof_H 	H 	0.8733	0.7781	-0	0.082
Mof_C 	C 	0.0656	0.6487	-0	-0.082
Mof_C 	C 	0.8924	0.5791	-0	-0.073
Mof_H 	H 	0.8348	0.5555	-0	0.066
Mof_C 	C 	0.1571	0.6859	-0	0.054
Mof_N 	N 	0.327	0.7632	-0	-0.313
Mof_N 	N 	0.5669	0.8155	-0	-0.279
Mof_N 	N 	0.7105	0.8389	-0	-0.15
Mof_Zn	Zn	0.84588	0.56338	0.5	1.207
Mof_C 	C 	0.8754	0.3712	0.5	0.115
Mof_H 	H 	0.9367	0.382	0.5	-0.013
Mof_C 	C 	0.7492	0.303	0.5	-0.002
Mof_H 	H 	0.7052	0.2589	0.5	0.039
Mof_C 	C 	0.7358	0.3909	0.5	0.023
Mof_H 	H 	0.6802	0.4189	0.5	0.012
Mof_C 	C 	0.8849	0.2065	0.5	0.142
Mof_C 	C 	0.9759	0.203	0.5	-0.144
Mof_H 	H 	0.0091	0.2557	0.5	0.089
Mof_C 	C 	0.0178	0.1232	0.5	0.012
Mof_H 	H 	0.08	0.1235	0.5	0.031
Mof_C 	C 	0.9761	0.0422	0.5	-0.016
Mof_C 	C 	0.8852	0.0486	0.5	0.014
Mof_H 	H 	0.8521	0.9959	0.5	0.03
Mof_C 	C 	0.8403	0.127	0.5	-0.147
Mof_H 	H 	0.7781	0.1267	0.5	0.09
Mof_C 	C 	0.6487	0.9344	0.5	-0.05
Mof_C 	C 	0.5791	0.1076	0.5	0.007
Mof_H 	H 	0.5555	0.1652	0.5	0.053
Mof_C 	C 	0.6859	0.8429	0.5	0.132
Mof_N 	N 	0.7632	0.673	0.5	-0.281
Mof_N 	N 	0.8155	0.4331	0.5	-0.271
Mof_N 	N 	0.8389	0.2895	0.5	-0.148
Mof_Zn	Zn	0.15412	0.43662	0.5	1.207
Mof_C 	C 	0.1246	0.6288	0.5	0.115
Mof_H 	H 	0.0633	0.618	0.5	-0.013
Mof_C 	C 	0.2508	0.697	0.5	-0.002
Mof_H 	H 	0.2948	0.7411	0.5	0.039
Mof_C 	C 	0.2642	0.6091	0.5	0.023
Mof_H 	H 	0.3198	0.5811	0.5	0.012
Mof_C 	C 	0.1151	0.7935	0.5	0.142
Mof_C 	C 	0.0241	0.797	0.5	-0.144
Mof_H 	H 	0.9909	0.7443	0.5	0.089
Mof_C 	C 	0.9822	0.8768	0.5	0.012
Mof_H 	H 	0.92	0.8765	0.5	0.031
Mof_C 	C 	0.0239	0.9578	0.5	-0.016
Mof_C 	C 	0.1148	0.9514	0.5	0.014
Mof_H 	H 	0.1479	0.0041	0.5	0.03
Mof_C 	C 	0.1597	0.873	0.5	-0.147
Mof_H 	H 	0.2219	0.8733	0.5	0.09
Mof_C 	C 	0.3513	0.0656	0.5	-0.05
Mof_C 	C 	0.4209	0.8924	0.5	0.007
Mof_H 	H 	0.4445	0.8348	0.5	0.053
Mof_C 	C 	0.3141	0.1571	0.5	0.132
Mof_N 	N 	0.2368	0.327	0.5	-0.281
Mof_N 	N 	0.1845	0.5669	0.5	-0.271
Mof_N 	N 	0.1611	0.7105	0.5	-0.148
_end
