data_functionalizedCrystal
_audit_creation_method	'EQeq! by Chris Wilmer'
_symmetry_space_group_name_H-M	'P1'
_symmetry_Int_Tables_number	1
_symmetry_cell_setting	triclinic
loop_
_symmetry_equiv_pos_as_xyz
  x,y,z
_cell_length_a	84.115
_cell_length_b	84.115
_cell_length_c	10.0694
_cell_angle_alpha	90
_cell_angle_beta	90
_cell_angle_gamma	90
loop_
_atom_site_label
_atom_site_type_symbol
_atom_site_fract_x
_atom_site_fract_y
_atom_site_fract_z
_atom_site_charge
Mof_Ga	Ga	0.74864	0.52136	0.2495	1.546
Mof_Zn	Zn	0.82221	0.51042	0.3264	1.232
Mof_Zn	Zn	0.85891	0.4872	0.1709	1.231
Mof_Zn	Zn	0.92937	0.48823	0.1632	1.227
Mof_Zn	Zn	0.96485	0.4883	0.664	1.229
Mof_P 	P 	0.78518	0.50922	0.2772	0.588
Mof_P 	P 	0.83623	0.4774	0.398	0.459
Mof_P 	P 	0.84566	0.52141	0.1099	0.412
Mof_P 	P 	0.89438	0.48037	0.2165	0.473
Mof_P 	P 	0.94248	0.47791	0.8932	0.474
Mof_P 	P 	0.95163	0.47814	0.3934	0.398
Mof_O 	O 	0.80061	0.51561	0.3351	-0.462
Mof_O 	O 	0.77195	0.52184	0.2936	-0.729
Mof_O 	O 	0.78744	0.50424	0.1332	-0.711
Mof_O 	O 	0.82401	0.48695	0.3292	-0.478
Mof_O 	O 	0.8364	0.47975	0.5444	-0.467
Mof_O 	O 	0.85269	0.48006	0.3511	-0.472
Mof_O 	O 	0.85846	0.5104	0.165	-0.474
Mof_O 	O 	0.84583	0.52262	0.9578	-0.428
Mof_O 	O 	0.82886	0.5178	0.1536	-0.43
Mof_O 	O 	0.89383	0.4943	0.3061	-0.523
Mof_O 	O 	0.9084	0.4817	0.1226	-0.446
Mof_O 	O 	0.87986	0.4803	0.1333	-0.451
Mof_O 	O 	0.9434	0.4779	0.039	-0.482
Mof_O 	O 	0.9591	0.4813	0.8434	-0.473
Mof_O 	O 	0.9296	0.4889	0.842	-0.491
Mof_O 	O 	0.9506	0.4774	0.545	-0.448
Mof_O 	O 	0.9648	0.4889	0.337	-0.487
Mof_O 	O 	0.9347	0.4807	0.344	-0.461
Mof_O 	O 	0.9853	0.4811	0.6244	-0.435
Mof_H 	H 	0.8948	0.4668	0.3013	-0.067
Mof_H 	H 	0.8477	0.5368	0.1785	-0.015
Mof_H 	H 	0.938	0.4652	0.8235	-0.037
Mof_H 	H 	0.7808	0.4938	0.3655	-0.03
Mof_H 	H 	0.8322	0.4581	0.372	-0.001
Mof_H 	H 	0.9569	0.4625	0.3452	-0.014
Mof_Ga	Ga	0.24864	0.02136	0.7495	1.546
Mof_Zn	Zn	0.32221	0.01042	0.8264	1.233
Mof_Zn	Zn	0.35891	0.9872	0.6709	1.232
Mof_Zn	Zn	0.42937	0.98823	0.6632	1.228
Mof_Zn	Zn	0.46485	0.9883	0.164	1.227
Mof_P 	P 	0.28518	0.00922	0.7772	0.589
Mof_P 	P 	0.33623	0.9774	0.898	0.475
Mof_P 	P 	0.34566	0.02141	0.6099	0.424
Mof_P 	P 	0.39438	0.98037	0.7165	0.473
Mof_P 	P 	0.44248	0.97791	0.3932	0.46
Mof_P 	P 	0.45163	0.97814	0.8934	0.414
Mof_O 	O 	0.30061	0.01561	0.8351	-0.456
Mof_O 	O 	0.27195	0.02184	0.7936	-0.724
Mof_O 	O 	0.28744	0.00424	0.6332	-0.706
Mof_O 	O 	0.32401	0.98695	0.8292	-0.476
Mof_O 	O 	0.3364	0.97975	0.0444	-0.483
Mof_O 	O 	0.35269	0.98006	0.8511	-0.469
Mof_O 	O 	0.35846	0.0104	0.665	-0.471
Mof_O 	O 	0.34583	0.02262	0.4578	-0.441
Mof_O 	O 	0.32886	0.0178	0.6536	-0.428
Mof_O 	O 	0.39383	0.9943	0.8061	-0.516
Mof_O 	O 	0.4084	0.9817	0.6226	-0.441
Mof_O 	O 	0.37986	0.9803	0.6333	-0.447
Mof_O 	O 	0.4434	0.9779	0.539	-0.47
Mof_O 	O 	0.4591	0.9813	0.3434	-0.477
Mof_O 	O 	0.4296	0.9889	0.342	-0.495
Mof_O 	O 	0.4506	0.9774	0.045	-0.466
Mof_O 	O 	0.4648	0.9889	0.837	-0.484
Mof_O 	O 	0.4347	0.9807	0.844	-0.459
Mof_O 	O 	0.4853	0.9811	0.1244	-0.443
Mof_H 	H 	0.3948	0.9668	0.8013	-0.063
Mof_H 	H 	0.3477	0.0368	0.6785	-0.012
Mof_H 	H 	0.438	0.9652	0.3235	-0.041
Mof_H 	H 	0.2808	0.9938	0.8655	-0.027
Mof_H 	H 	0.3322	0.9581	0.872	0.002
Mof_H 	H 	0.4569	0.9625	0.8452	-0.01
Mof_Ga	Ga	0.75136	0.47864	0.7495	1.545
Mof_Zn	Zn	0.67779	0.48958	0.8264	1.232
Mof_Zn	Zn	0.64109	0.5128	0.6709	1.231
Mof_Zn	Zn	0.57063	0.51177	0.6632	1.227
Mof_Zn	Zn	0.53515	0.5117	0.164	1.226
Mof_P 	P 	0.71482	0.49078	0.7772	0.588
Mof_P 	P 	0.66377	0.5226	0.898	0.474
Mof_P 	P 	0.65434	0.47859	0.6099	0.423
Mof_P 	P 	0.60562	0.51963	0.7165	0.472
Mof_P 	P 	0.55752	0.52209	0.3932	0.459
Mof_P 	P 	0.54837	0.52186	0.8934	0.413
Mof_O 	O 	0.69939	0.48439	0.8351	-0.457
Mof_O 	O 	0.72805	0.47816	0.7936	-0.725
Mof_O 	O 	0.71256	0.49576	0.6332	-0.707
Mof_O 	O 	0.67599	0.51305	0.8292	-0.477
Mof_O 	O 	0.6636	0.52025	0.0444	-0.484
Mof_O 	O 	0.64731	0.51994	0.8511	-0.469
Mof_O 	O 	0.64154	0.4896	0.665	-0.471
Mof_O 	O 	0.65417	0.47738	0.4578	-0.441
Mof_O 	O 	0.67114	0.4822	0.6536	-0.428
Mof_O 	O 	0.60617	0.5057	0.8061	-0.516
Mof_O 	O 	0.5916	0.5183	0.6226	-0.441
Mof_O 	O 	0.62014	0.5197	0.6333	-0.447
Mof_O 	O 	0.5566	0.5221	0.539	-0.47
Mof_O 	O 	0.5409	0.5187	0.3434	-0.477
Mof_O 	O 	0.5704	0.5111	0.342	-0.495
Mof_O 	O 	0.5494	0.5226	0.045	-0.466
Mof_O 	O 	0.5352	0.5111	0.837	-0.484
Mof_O 	O 	0.5653	0.5193	0.844	-0.459
Mof_O 	O 	0.5147	0.5189	0.1244	-0.443
Mof_H 	H 	0.6052	0.5332	0.8013	-0.063
Mof_H 	H 	0.6523	0.4632	0.6785	-0.012
Mof_H 	H 	0.562	0.5348	0.3235	-0.041
Mof_H 	H 	0.7192	0.5062	0.8655	-0.027
Mof_H 	H 	0.6678	0.5419	0.872	0.002
Mof_H 	H 	0.5431	0.5375	0.8452	-0.01
Mof_Ga	Ga	0.25136	0.97864	0.2495	1.545
Mof_Zn	Zn	0.17779	0.98958	0.3264	1.231
Mof_Zn	Zn	0.14109	0.0128	0.1709	1.23
Mof_Zn	Zn	0.07063	0.01177	0.1632	1.226
Mof_Zn	Zn	0.03515	0.0117	0.664	1.228
Mof_P 	P 	0.21482	0.99078	0.2772	0.587
Mof_P 	P 	0.16377	0.0226	0.398	0.458
Mof_P 	P 	0.15434	0.97859	0.1099	0.411
Mof_P 	P 	0.10562	0.01963	0.2165	0.472
Mof_P 	P 	0.05752	0.02209	0.8932	0.473
Mof_P 	P 	0.04837	0.02186	0.3934	0.397
Mof_O 	O 	0.19939	0.98439	0.3351	-0.463
Mof_O 	O 	0.22805	0.97816	0.2936	-0.73
Mof_O 	O 	0.21256	0.99576	0.1332	-0.712
Mof_O 	O 	0.17599	0.01305	0.3292	-0.479
Mof_O 	O 	0.1636	0.02025	0.5444	-0.468
Mof_O 	O 	0.14731	0.01994	0.3511	-0.473
Mof_O 	O 	0.14154	0.9896	0.165	-0.475
Mof_O 	O 	0.15417	0.97738	0.9578	-0.429
Mof_O 	O 	0.17114	0.9822	0.1536	-0.431
Mof_O 	O 	0.10617	0.0057	0.3061	-0.524
Mof_O 	O 	0.0916	0.0183	0.1226	-0.447
Mof_O 	O 	0.12014	0.0197	0.1333	-0.452
Mof_O 	O 	0.0566	0.0221	0.039	-0.483
Mof_O 	O 	0.0409	0.0187	0.8434	-0.474
Mof_O 	O 	0.0704	0.0111	0.842	-0.492
Mof_O 	O 	0.0494	0.0226	0.545	-0.449
Mof_O 	O 	0.0352	0.0111	0.337	-0.488
Mof_O 	O 	0.0653	0.0193	0.344	-0.462
Mof_O 	O 	0.0147	0.0189	0.6244	-0.436
Mof_H 	H 	0.1052	0.0332	0.3013	-0.068
Mof_H 	H 	0.1523	0.9632	0.1785	-0.016
Mof_H 	H 	0.062	0.0348	0.8235	-0.038
Mof_H 	H 	0.2192	0.0062	0.3655	-0.031
Mof_H 	H 	0.1678	0.0419	0.372	-0.002
Mof_H 	H 	0.0431	0.0375	0.3452	-0.015
Mof_Ga	Ga	0.72864	0.49864	0.4995	1.545
Mof_Zn	Zn	0.73958	0.57221	0.5764	1.231
Mof_Zn	Zn	0.7628	0.60891	0.4209	1.231
Mof_Zn	Zn	0.76177	0.67937	0.4132	1.227
Mof_Zn	Zn	0.7617	0.71485	0.914	1.23
Mof_P 	P 	0.74078	0.53518	0.5272	0.587
Mof_P 	P 	0.7726	0.58623	0.648	0.458
Mof_P 	P 	0.72859	0.59566	0.3599	0.423
Mof_P 	P 	0.76963	0.64438	0.4665	0.472
Mof_P 	P 	0.77209	0.69248	0.1432	0.459
Mof_P 	P 	0.77186	0.70163	0.6434	0.397
Mof_O 	O 	0.73439	0.55061	0.5851	-0.462
Mof_O 	O 	0.72816	0.52195	0.5436	-0.728
Mof_O 	O 	0.74576	0.53744	0.3832	-0.708
Mof_O 	O 	0.76305	0.57401	0.5792	-0.478
Mof_O 	O 	0.77025	0.5864	0.7944	-0.464
Mof_O 	O 	0.76994	0.60269	0.6011	-0.471
Mof_O 	O 	0.7396	0.60846	0.415	-0.473
Mof_O 	O 	0.72738	0.59583	0.2078	-0.446
Mof_O 	O 	0.7322	0.57886	0.4036	-0.43
Mof_O 	O 	0.7557	0.64383	0.5561	-0.522
Mof_O 	O 	0.7683	0.6584	0.3726	-0.443
Mof_O 	O 	0.7697	0.62986	0.3833	-0.448
Mof_O 	O 	0.7721	0.6934	0.289	-0.471
Mof_O 	O 	0.7687	0.7091	0.0934	-0.483
Mof_O 	O 	0.7611	0.6796	0.092	-0.499
Mof_O 	O 	0.7726	0.7006	0.795	-0.445
Mof_O 	O 	0.7611	0.7148	0.587	-0.487
Mof_O 	O 	0.7693	0.6847	0.594	-0.461
Mof_O 	O 	0.7689	0.7353	0.8744	-0.435
Mof_H 	H 	0.7832	0.6448	0.5513	-0.066
Mof_H 	H 	0.7132	0.5977	0.4285	-0.015
Mof_H 	H 	0.7848	0.688	0.0735	-0.043
Mof_H 	H 	0.7562	0.5308	0.6155	-0.031
Mof_H 	H 	0.7919	0.5822	0.622	-0
Mof_H 	H 	0.7875	0.7069	0.5952	-0.013
Mof_Ga	Ga	0.22864	0.99864	0.9995	1.466
Mof_Zn	Zn	0.23958	0.07221	0.0764	1.228
Mof_Zn	Zn	0.2628	0.10891	0.9209	1.233
Mof_Zn	Zn	0.26177	0.17937	0.9132	1.229
Mof_Zn	Zn	0.2617	0.21485	0.414	1.227
Mof_P 	P 	0.24078	0.03518	0.0272	0.576
Mof_P 	P 	0.2726	0.08623	0.148	0.458
Mof_P 	P 	0.22859	0.09566	0.8599	0.423
Mof_P 	P 	0.26963	0.14438	0.9665	0.489
Mof_P 	P 	0.27209	0.19248	0.6432	0.459
Mof_P 	P 	0.27186	0.20163	0.1434	0.397
Mof_O 	O 	0.23439	0.05061	0.0851	-0.464
Mof_O 	O 	0.22816	0.02195	0.0436	-0.738
Mof_O 	O 	0.24576	0.03744	0.8832	-0.696
Mof_O 	O 	0.26305	0.07401	0.0792	-0.483
Mof_O 	O 	0.27025	0.0864	0.2944	-0.469
Mof_O 	O 	0.26994	0.10269	0.1011	-0.478
Mof_O 	O 	0.2396	0.10846	0.915	-0.468
Mof_O 	O 	0.22738	0.09583	0.7078	-0.44
Mof_O 	O 	0.2322	0.07886	0.9036	-0.422
Mof_O 	O 	0.2557	0.14383	0.0561	-0.535
Mof_O 	O 	0.2683	0.1584	0.8726	-0.441
Mof_O 	O 	0.2697	0.12986	0.8833	-0.447
Mof_O 	O 	0.2721	0.1934	0.789	-0.467
Mof_O 	O 	0.2687	0.2091	0.5934	-0.476
Mof_O 	O 	0.2611	0.1796	0.592	-0.494
Mof_O 	O 	0.2726	0.2006	0.295	-0.449
Mof_O 	O 	0.2611	0.2148	0.087	-0.49
Mof_O 	O 	0.2693	0.1847	0.094	-0.467
Mof_O 	O 	0.2689	0.2353	0.3744	-0.436
Mof_H 	H 	0.2832	0.1448	0.0513	-0.075
Mof_H 	H 	0.2132	0.0977	0.9285	-0.01
Mof_H 	H 	0.2848	0.188	0.5735	-0.038
Mof_H 	H 	0.2562	0.0308	0.1155	-0.033
Mof_H 	H 	0.2919	0.0822	0.122	-0.004
Mof_H 	H 	0.2875	0.2069	0.0952	-0.016
Mof_Ga	Ga	0.77136	0.50136	0.9995	1.466
Mof_Zn	Zn	0.76042	0.42779	0.0764	1.228
Mof_Zn	Zn	0.7372	0.39109	0.9209	1.233
Mof_Zn	Zn	0.73823	0.32063	0.9132	1.229
Mof_Zn	Zn	0.7383	0.28515	0.414	1.227
Mof_P 	P 	0.75922	0.46482	0.0272	0.576
Mof_P 	P 	0.7274	0.41377	0.148	0.458
Mof_P 	P 	0.77141	0.40434	0.8599	0.423
Mof_P 	P 	0.73037	0.35562	0.9665	0.489
Mof_P 	P 	0.72791	0.30752	0.6432	0.459
Mof_P 	P 	0.72814	0.29837	0.1434	0.397
Mof_O 	O 	0.76561	0.44939	0.0851	-0.464
Mof_O 	O 	0.77184	0.47805	0.0436	-0.738
Mof_O 	O 	0.75424	0.46256	0.8832	-0.696
Mof_O 	O 	0.73695	0.42599	0.0792	-0.483
Mof_O 	O 	0.72975	0.4136	0.2944	-0.469
Mof_O 	O 	0.73006	0.39731	0.1011	-0.478
Mof_O 	O 	0.7604	0.39154	0.915	-0.468
Mof_O 	O 	0.77262	0.40417	0.7078	-0.44
Mof_O 	O 	0.7678	0.42114	0.9036	-0.422
Mof_O 	O 	0.7443	0.35617	0.0561	-0.535
Mof_O 	O 	0.7317	0.3416	0.8726	-0.441
Mof_O 	O 	0.7303	0.37014	0.8833	-0.447
Mof_O 	O 	0.7279	0.3066	0.789	-0.467
Mof_O 	O 	0.7313	0.2909	0.5934	-0.476
Mof_O 	O 	0.7389	0.3204	0.592	-0.494
Mof_O 	O 	0.7274	0.2994	0.295	-0.449
Mof_O 	O 	0.7389	0.2852	0.087	-0.49
Mof_O 	O 	0.7307	0.3153	0.094	-0.467
Mof_O 	O 	0.7311	0.2647	0.3744	-0.436
Mof_H 	H 	0.7168	0.3552	0.0513	-0.075
Mof_H 	H 	0.7868	0.4023	0.9285	-0.01
Mof_H 	H 	0.7152	0.312	0.5735	-0.038
Mof_H 	H 	0.7438	0.4692	0.1155	-0.033
Mof_H 	H 	0.7081	0.4178	0.122	-0.004
Mof_H 	H 	0.7125	0.2931	0.0952	-0.016
Mof_Ga	Ga	0.27136	0.00136	0.4995	1.545
Mof_Zn	Zn	0.26042	0.92779	0.5764	1.231
Mof_Zn	Zn	0.2372	0.89109	0.4209	1.231
Mof_Zn	Zn	0.23823	0.82063	0.4132	1.227
Mof_Zn	Zn	0.2383	0.78515	0.914	1.23
Mof_P 	P 	0.25922	0.96482	0.5272	0.587
Mof_P 	P 	0.2274	0.91377	0.648	0.458
Mof_P 	P 	0.27141	0.90434	0.3599	0.423
Mof_P 	P 	0.23037	0.85562	0.4665	0.472
Mof_P 	P 	0.22791	0.80752	0.1432	0.459
Mof_P 	P 	0.22814	0.79837	0.6434	0.397
Mof_O 	O 	0.26561	0.94939	0.5851	-0.462
Mof_O 	O 	0.27184	0.97805	0.5436	-0.728
Mof_O 	O 	0.25424	0.96256	0.3832	-0.708
Mof_O 	O 	0.23695	0.92599	0.5792	-0.478
Mof_O 	O 	0.22975	0.9136	0.7944	-0.464
Mof_O 	O 	0.23006	0.89731	0.6011	-0.471
Mof_O 	O 	0.2604	0.89154	0.415	-0.473
Mof_O 	O 	0.27262	0.90417	0.2078	-0.446
Mof_O 	O 	0.2678	0.92114	0.4036	-0.43
Mof_O 	O 	0.2443	0.85617	0.5561	-0.522
Mof_O 	O 	0.2317	0.8416	0.3726	-0.443
Mof_O 	O 	0.2303	0.87014	0.3833	-0.448
Mof_O 	O 	0.2279	0.8066	0.289	-0.471
Mof_O 	O 	0.2313	0.7909	0.0934	-0.483
Mof_O 	O 	0.2389	0.8204	0.092	-0.499
Mof_O 	O 	0.2274	0.7994	0.795	-0.445
Mof_O 	O 	0.2389	0.7852	0.587	-0.487
Mof_O 	O 	0.2307	0.8153	0.594	-0.461
Mof_O 	O 	0.2311	0.7647	0.8744	-0.435
Mof_H 	H 	0.2168	0.8552	0.5513	-0.066
Mof_H 	H 	0.2868	0.9023	0.4285	-0.015
Mof_H 	H 	0.2152	0.812	0.0735	-0.043
Mof_H 	H 	0.2438	0.9692	0.6155	-0.031
Mof_H 	H 	0.2081	0.9178	0.622	-0
Mof_H 	H 	0.2125	0.7931	0.5952	-0.013
Mof_Ga	Ga	0.75136	0.52136	0.2505	1.545
Mof_Zn	Zn	0.67779	0.51042	0.1736	1.23
Mof_Zn	Zn	0.64109	0.4872	0.3291	1.23
Mof_Zn	Zn	0.57063	0.48823	0.3368	1.227
Mof_Zn	Zn	0.53515	0.4883	0.836	1.229
Mof_P 	P 	0.71482	0.50922	0.2228	0.586
Mof_P 	P 	0.66377	0.4774	0.102	0.444
Mof_P 	P 	0.65434	0.52141	0.3901	0.423
Mof_P 	P 	0.60562	0.48037	0.2835	0.472
Mof_P 	P 	0.55752	0.47791	0.6068	0.459
Mof_P 	P 	0.54837	0.47814	0.1066	0.381
Mof_O 	O 	0.69939	0.51561	0.1649	-0.466
Mof_O 	O 	0.72805	0.52184	0.2064	-0.732
Mof_O 	O 	0.71256	0.50424	0.3668	-0.707
Mof_O 	O 	0.67599	0.48695	0.1708	-0.479
Mof_O 	O 	0.6636	0.47975	0.9556	-0.453
Mof_O 	O 	0.64731	0.48006	0.1489	-0.475
Mof_O 	O 	0.64154	0.5104	0.335	-0.475
Mof_O 	O 	0.65417	0.52262	0.5422	-0.441
Mof_O 	O 	0.67114	0.5178	0.3464	-0.43
Mof_O 	O 	0.60617	0.4943	0.1939	-0.527
Mof_O 	O 	0.5916	0.4817	0.3774	-0.442
Mof_O 	O 	0.62014	0.4803	0.3667	-0.448
Mof_O 	O 	0.5566	0.4779	0.461	-0.47
Mof_O 	O 	0.5409	0.4813	0.6566	-0.476
Mof_O 	O 	0.5704	0.4889	0.658	-0.492
Mof_O 	O 	0.5494	0.4774	0.955	-0.433
Mof_O 	O 	0.5352	0.4889	0.163	-0.489
Mof_O 	O 	0.5653	0.4807	0.156	-0.465
Mof_O 	O 	0.5147	0.4811	0.8756	-0.429
Mof_H 	H 	0.6052	0.4668	0.1987	-0.07
Mof_H 	H 	0.6523	0.5368	0.3215	-0.016
Mof_H 	H 	0.562	0.4652	0.6765	-0.037
Mof_H 	H 	0.7192	0.4938	0.1345	-0.035
Mof_H 	H 	0.6678	0.4581	0.128	-0.004
Mof_H 	H 	0.5431	0.4625	0.1548	-0.016
Mof_Ga	Ga	0.25136	0.02136	0.7505	1.545
Mof_Zn	Zn	0.17779	0.01042	0.6736	1.231
Mof_Zn	Zn	0.14109	0.9872	0.8291	1.231
Mof_Zn	Zn	0.07063	0.98823	0.8368	1.228
Mof_Zn	Zn	0.03515	0.9883	0.336	1.227
Mof_P 	P 	0.21482	0.00922	0.7228	0.587
Mof_P 	P 	0.16377	0.9774	0.602	0.458
Mof_P 	P 	0.15434	0.02141	0.8901	0.434
Mof_P 	P 	0.10562	0.98037	0.7835	0.472
Mof_P 	P 	0.05752	0.97791	0.1068	0.445
Mof_P 	P 	0.04837	0.97814	0.6066	0.397
Mof_O 	O 	0.19939	0.01561	0.6649	-0.461
Mof_O 	O 	0.22805	0.02184	0.7064	-0.727
Mof_O 	O 	0.21256	0.00424	0.8668	-0.702
Mof_O 	O 	0.17599	0.98695	0.6708	-0.477
Mof_O 	O 	0.1636	0.97975	0.4556	-0.469
Mof_O 	O 	0.14731	0.98006	0.6489	-0.472
Mof_O 	O 	0.14154	0.0104	0.835	-0.471
Mof_O 	O 	0.15417	0.02262	0.0422	-0.453
Mof_O 	O 	0.17114	0.0178	0.8464	-0.427
Mof_O 	O 	0.10617	0.9943	0.6939	-0.522
Mof_O 	O 	0.0916	0.9817	0.8774	-0.437
Mof_O 	O 	0.12014	0.9803	0.8667	-0.443
Mof_O 	O 	0.0566	0.9779	0.961	-0.456
Mof_O 	O 	0.0409	0.9813	0.1566	-0.479
Mof_O 	O 	0.0704	0.9889	0.158	-0.496
Mof_O 	O 	0.0494	0.9774	0.455	-0.449
Mof_O 	O 	0.0352	0.9889	0.663	-0.485
Mof_O 	O 	0.0653	0.9807	0.656	-0.462
Mof_O 	O 	0.0147	0.9811	0.3756	-0.436
Mof_H 	H 	0.1052	0.9668	0.6987	-0.066
Mof_H 	H 	0.1523	0.0368	0.8215	-0.012
Mof_H 	H 	0.062	0.9652	0.1765	-0.04
Mof_H 	H 	0.2192	0.9938	0.6345	-0.031
Mof_H 	H 	0.1678	0.9581	0.628	-0
Mof_H 	H 	0.0431	0.9625	0.6548	-0.012
Mof_Ga	Ga	0.74864	0.47864	0.7505	1.545
Mof_Zn	Zn	0.82221	0.48958	0.6736	1.231
Mof_Zn	Zn	0.85891	0.5128	0.8291	1.231
Mof_Zn	Zn	0.92937	0.51177	0.8368	1.228
Mof_Zn	Zn	0.96485	0.5117	0.336	1.227
Mof_P 	P 	0.78518	0.49078	0.7228	0.587
Mof_P 	P 	0.83623	0.5226	0.602	0.458
Mof_P 	P 	0.84566	0.47859	0.8901	0.434
Mof_P 	P 	0.89438	0.51963	0.7835	0.472
Mof_P 	P 	0.94248	0.52209	0.1068	0.445
Mof_P 	P 	0.95163	0.52186	0.6066	0.397
Mof_O 	O 	0.80061	0.48439	0.6649	-0.461
Mof_O 	O 	0.77195	0.47816	0.7064	-0.727
Mof_O 	O 	0.78744	0.49576	0.8668	-0.702
Mof_O 	O 	0.82401	0.51305	0.6708	-0.477
Mof_O 	O 	0.8364	0.52025	0.4556	-0.469
Mof_O 	O 	0.85269	0.51994	0.6489	-0.472
Mof_O 	O 	0.85846	0.4896	0.835	-0.471
Mof_O 	O 	0.84583	0.47738	0.0422	-0.453
Mof_O 	O 	0.82886	0.4822	0.8464	-0.427
Mof_O 	O 	0.89383	0.5057	0.6939	-0.522
Mof_O 	O 	0.9084	0.5183	0.8774	-0.437
Mof_O 	O 	0.87986	0.5197	0.8667	-0.443
Mof_O 	O 	0.9434	0.5221	0.961	-0.456
Mof_O 	O 	0.9591	0.5187	0.1566	-0.479
Mof_O 	O 	0.9296	0.5111	0.158	-0.496
Mof_O 	O 	0.9506	0.5226	0.455	-0.449
Mof_O 	O 	0.9648	0.5111	0.663	-0.485
Mof_O 	O 	0.9347	0.5193	0.656	-0.462
Mof_O 	O 	0.9853	0.5189	0.3756	-0.436
Mof_H 	H 	0.8948	0.5332	0.6987	-0.066
Mof_H 	H 	0.8477	0.4632	0.8215	-0.012
Mof_H 	H 	0.938	0.5348	0.1765	-0.04
Mof_H 	H 	0.7808	0.5062	0.6345	-0.031
Mof_H 	H 	0.8322	0.5419	0.628	-0
Mof_H 	H 	0.9569	0.5375	0.6548	-0.012
Mof_Ga	Ga	0.24864	0.97864	0.2505	1.545
Mof_Zn	Zn	0.32221	0.98958	0.1736	1.23
Mof_Zn	Zn	0.35891	0.0128	0.3291	1.23
Mof_Zn	Zn	0.42937	0.01177	0.3368	1.227
Mof_Zn	Zn	0.46485	0.0117	0.836	1.229
Mof_P 	P 	0.28518	0.99078	0.2228	0.586
Mof_P 	P 	0.33623	0.0226	0.102	0.444
Mof_P 	P 	0.34566	0.97859	0.3901	0.423
Mof_P 	P 	0.39438	0.01963	0.2835	0.472
Mof_P 	P 	0.44248	0.02209	0.6068	0.459
Mof_P 	P 	0.45163	0.02186	0.1066	0.381
Mof_O 	O 	0.30061	0.98439	0.1649	-0.466
Mof_O 	O 	0.27195	0.97816	0.2064	-0.732
Mof_O 	O 	0.28744	0.99576	0.3668	-0.707
Mof_O 	O 	0.32401	0.01305	0.1708	-0.479
Mof_O 	O 	0.3364	0.02025	0.9556	-0.453
Mof_O 	O 	0.35269	0.01994	0.1489	-0.475
Mof_O 	O 	0.35846	0.9896	0.335	-0.475
Mof_O 	O 	0.34583	0.97738	0.5422	-0.441
Mof_O 	O 	0.32886	0.9822	0.3464	-0.43
Mof_O 	O 	0.39383	0.0057	0.1939	-0.527
Mof_O 	O 	0.4084	0.0183	0.3774	-0.442
Mof_O 	O 	0.37986	0.0197	0.3667	-0.448
Mof_O 	O 	0.4434	0.0221	0.461	-0.47
Mof_O 	O 	0.4591	0.0187	0.6566	-0.476
Mof_O 	O 	0.4296	0.0111	0.658	-0.492
Mof_O 	O 	0.4506	0.0226	0.955	-0.433
Mof_O 	O 	0.4648	0.0111	0.163	-0.489
Mof_O 	O 	0.4347	0.0193	0.156	-0.465
Mof_O 	O 	0.4853	0.0189	0.8756	-0.429
Mof_H 	H 	0.3948	0.0332	0.1987	-0.07
Mof_H 	H 	0.3477	0.9632	0.3215	-0.016
Mof_H 	H 	0.438	0.0348	0.6765	-0.037
Mof_H 	H 	0.2808	0.0062	0.1345	-0.035
Mof_H 	H 	0.3322	0.0419	0.128	-0.004
Mof_H 	H 	0.4569	0.0375	0.1548	-0.016
Mof_Ga	Ga	0.77136	0.49864	0.0005	1.626
Mof_Zn	Zn	0.76042	0.57221	0.9236	1.234
Mof_Zn	Zn	0.7372	0.60891	0.0791	1.227
Mof_Zn	Zn	0.73823	0.67937	0.0868	1.224
Mof_Zn	Zn	0.7383	0.71485	0.586	1.227
Mof_P 	P 	0.75922	0.53518	0.9728	0.6
Mof_P 	P 	0.7274	0.58623	0.852	0.459
Mof_P 	P 	0.77141	0.59566	0.1401	0.423
Mof_P 	P 	0.73037	0.64438	0.0335	0.448
Mof_P 	P 	0.72791	0.69248	0.3568	0.459
Mof_P 	P 	0.72814	0.70163	0.8566	0.398
Mof_O 	O 	0.76561	0.55061	0.9149	-0.459
Mof_O 	O 	0.77184	0.52195	0.9564	-0.719
Mof_O 	O 	0.75424	0.53744	0.1168	-0.719
Mof_O 	O 	0.73695	0.57401	0.9208	-0.472
Mof_O 	O 	0.72975	0.5864	0.7056	-0.468
Mof_O 	O 	0.73006	0.60269	0.8989	-0.465
Mof_O 	O 	0.7604	0.60846	0.085	-0.478
Mof_O 	O 	0.77262	0.59583	0.2922	-0.442
Mof_O 	O 	0.7678	0.57886	0.0964	-0.436
Mof_O 	O 	0.7443	0.64383	0.9439	-0.507
Mof_O 	O 	0.7317	0.6584	0.1274	-0.443
Mof_O 	O 	0.7303	0.62986	0.1167	-0.449
Mof_O 	O 	0.7279	0.6934	0.211	-0.474
Mof_O 	O 	0.7313	0.7091	0.4066	-0.478
Mof_O 	O 	0.7389	0.6796	0.408	-0.494
Mof_O 	O 	0.7274	0.7006	0.705	-0.449
Mof_O 	O 	0.7389	0.7148	0.913	-0.481
Mof_O 	O 	0.7307	0.6847	0.906	-0.455
Mof_O 	O 	0.7311	0.7353	0.6256	-0.435
Mof_H 	H 	0.7168	0.6448	0.9487	-0.056
Mof_H 	H 	0.7868	0.5977	0.0715	-0.018
Mof_H 	H 	0.7152	0.688	0.4265	-0.04
Mof_H 	H 	0.7438	0.5308	0.8845	-0.029
Mof_H 	H 	0.7081	0.5822	0.878	0.003
Mof_H 	H 	0.7125	0.7069	0.9048	-0.01
Mof_Ga	Ga	0.27136	0.99864	0.5005	1.545
Mof_Zn	Zn	0.26042	0.07221	0.4236	1.231
Mof_Zn	Zn	0.2372	0.10891	0.5791	1.231
Mof_Zn	Zn	0.23823	0.17937	0.5868	1.227
Mof_Zn	Zn	0.2383	0.21485	0.086	1.225
Mof_P 	P 	0.25922	0.03518	0.4728	0.587
Mof_P 	P 	0.2274	0.08623	0.352	0.458
Mof_P 	P 	0.27141	0.09566	0.6401	0.423
Mof_P 	P 	0.23037	0.14438	0.5335	0.472
Mof_P 	P 	0.22791	0.19248	0.8568	0.459
Mof_P 	P 	0.22814	0.20163	0.3566	0.397
Mof_O 	O 	0.26561	0.05061	0.4149	-0.462
Mof_O 	O 	0.27184	0.02195	0.4564	-0.729
Mof_O 	O 	0.25424	0.03744	0.6168	-0.706
Mof_O 	O 	0.23695	0.07401	0.4208	-0.478
Mof_O 	O 	0.22975	0.0864	0.2056	-0.472
Mof_O 	O 	0.23006	0.10269	0.3989	-0.473
Mof_O 	O 	0.2604	0.10846	0.585	-0.473
Mof_O 	O 	0.27262	0.09583	0.7922	-0.437
Mof_O 	O 	0.2678	0.07886	0.5964	-0.428
Mof_O 	O 	0.2443	0.14383	0.4439	-0.523
Mof_O 	O 	0.2317	0.1584	0.6274	-0.441
Mof_O 	O 	0.2303	0.12986	0.6167	-0.447
Mof_O 	O 	0.2279	0.1934	0.711	-0.469
Mof_O 	O 	0.2313	0.2091	0.9066	-0.471
Mof_O 	O 	0.2389	0.1796	0.908	-0.49
Mof_O 	O 	0.2274	0.2006	0.205	-0.452
Mof_O 	O 	0.2389	0.2148	0.413	-0.487
Mof_O 	O 	0.2307	0.1847	0.406	-0.463
Mof_O 	O 	0.2311	0.2353	0.1256	-0.437
Mof_H 	H 	0.2168	0.1448	0.4487	-0.068
Mof_H 	H 	0.2868	0.0977	0.5715	-0.013
Mof_H 	H 	0.2152	0.188	0.9265	-0.036
Mof_H 	H 	0.2438	0.0308	0.3845	-0.031
Mof_H 	H 	0.2081	0.0822	0.378	-0.002
Mof_H 	H 	0.2125	0.2069	0.4048	-0.014
Mof_Ga	Ga	0.72864	0.50136	0.5005	1.545
Mof_Zn	Zn	0.73958	0.42779	0.4236	1.231
Mof_Zn	Zn	0.7628	0.39109	0.5791	1.231
Mof_Zn	Zn	0.76177	0.32063	0.5868	1.227
Mof_Zn	Zn	0.7617	0.28515	0.086	1.225
Mof_P 	P 	0.74078	0.46482	0.4728	0.587
Mof_P 	P 	0.7726	0.41377	0.352	0.458
Mof_P 	P 	0.72859	0.40434	0.6401	0.423
Mof_P 	P 	0.76963	0.35562	0.5335	0.472
Mof_P 	P 	0.77209	0.30752	0.8568	0.459
Mof_P 	P 	0.77186	0.29837	0.3566	0.397
Mof_O 	O 	0.73439	0.44939	0.4149	-0.462
Mof_O 	O 	0.72816	0.47805	0.4564	-0.729
Mof_O 	O 	0.74576	0.46256	0.6168	-0.706
Mof_O 	O 	0.76305	0.42599	0.4208	-0.478
Mof_O 	O 	0.77025	0.4136	0.2056	-0.472
Mof_O 	O 	0.76994	0.39731	0.3989	-0.473
Mof_O 	O 	0.7396	0.39154	0.585	-0.473
Mof_O 	O 	0.72738	0.40417	0.7922	-0.437
Mof_O 	O 	0.7322	0.42114	0.5964	-0.428
Mof_O 	O 	0.7557	0.35617	0.4439	-0.523
Mof_O 	O 	0.7683	0.3416	0.6274	-0.441
Mof_O 	O 	0.7697	0.37014	0.6167	-0.447
Mof_O 	O 	0.7721	0.3066	0.711	-0.469
Mof_O 	O 	0.7687	0.2909	0.9066	-0.471
Mof_O 	O 	0.7611	0.3204	0.908	-0.49
Mof_O 	O 	0.7726	0.2994	0.205	-0.452
Mof_O 	O 	0.7611	0.2852	0.413	-0.487
Mof_O 	O 	0.7693	0.3153	0.406	-0.463
Mof_O 	O 	0.7689	0.2647	0.1256	-0.437
Mof_H 	H 	0.7832	0.3552	0.4487	-0.068
Mof_H 	H 	0.7132	0.4023	0.5715	-0.013
Mof_H 	H 	0.7848	0.312	0.9265	-0.036
Mof_H 	H 	0.7562	0.4692	0.3845	-0.031
Mof_H 	H 	0.7919	0.4178	0.378	-0.002
Mof_H 	H 	0.7875	0.2931	0.4048	-0.014
Mof_Ga	Ga	0.22864	0.00136	0.0005	1.626
Mof_Zn	Zn	0.23958	0.92779	0.9236	1.234
Mof_Zn	Zn	0.2628	0.89109	0.0791	1.227
Mof_Zn	Zn	0.26177	0.82063	0.0868	1.224
Mof_Zn	Zn	0.2617	0.78515	0.586	1.227
Mof_P 	P 	0.24078	0.96482	0.9728	0.6
Mof_P 	P 	0.2726	0.91377	0.852	0.459
Mof_P 	P 	0.22859	0.90434	0.1401	0.423
Mof_P 	P 	0.26963	0.85562	0.0335	0.448
Mof_P 	P 	0.27209	0.80752	0.3568	0.459
Mof_P 	P 	0.27186	0.79837	0.8566	0.398
Mof_O 	O 	0.23439	0.94939	0.9149	-0.459
Mof_O 	O 	0.22816	0.97805	0.9564	-0.719
Mof_O 	O 	0.24576	0.96256	0.1168	-0.719
Mof_O 	O 	0.26305	0.92599	0.9208	-0.472
Mof_O 	O 	0.27025	0.9136	0.7056	-0.468
Mof_O 	O 	0.26994	0.89731	0.8989	-0.465
Mof_O 	O 	0.2396	0.89154	0.085	-0.478
Mof_O 	O 	0.22738	0.90417	0.2922	-0.442
Mof_O 	O 	0.2322	0.92114	0.0964	-0.436
Mof_O 	O 	0.2557	0.85617	0.9439	-0.507
Mof_O 	O 	0.2683	0.8416	0.1274	-0.443
Mof_O 	O 	0.2697	0.87014	0.1167	-0.449
Mof_O 	O 	0.2721	0.8066	0.211	-0.474
Mof_O 	O 	0.2687	0.7909	0.4066	-0.478
Mof_O 	O 	0.2611	0.8204	0.408	-0.494
Mof_O 	O 	0.2726	0.7994	0.705	-0.449
Mof_O 	O 	0.2611	0.7852	0.913	-0.481
Mof_O 	O 	0.2693	0.8153	0.906	-0.455
Mof_O 	O 	0.2689	0.7647	0.6256	-0.435
Mof_H 	H 	0.2832	0.8552	0.9487	-0.056
Mof_H 	H 	0.2132	0.9023	0.0715	-0.018
Mof_H 	H 	0.2848	0.812	0.4265	-0.04
Mof_H 	H 	0.2562	0.9692	0.8845	-0.029
Mof_H 	H 	0.2919	0.9178	0.878	0.003
Mof_H 	H 	0.2875	0.7931	0.9048	-0.01
Mof_Ga	Ga	0.25136	0.47864	0.7505	1.545
Mof_Zn	Zn	0.17779	0.48958	0.6736	1.231
Mof_Zn	Zn	0.14109	0.5128	0.8291	1.231
Mof_Zn	Zn	0.07063	0.51177	0.8368	1.228
Mof_Zn	Zn	0.03515	0.5117	0.336	1.227
Mof_P 	P 	0.21482	0.49078	0.7228	0.587
Mof_P 	P 	0.16377	0.5226	0.602	0.458
Mof_P 	P 	0.15434	0.47859	0.8901	0.434
Mof_P 	P 	0.10562	0.51963	0.7835	0.472
Mof_P 	P 	0.05752	0.52209	0.1068	0.445
Mof_P 	P 	0.04837	0.52186	0.6066	0.397
Mof_O 	O 	0.19939	0.48439	0.6649	-0.461
Mof_O 	O 	0.22805	0.47816	0.7064	-0.727
Mof_O 	O 	0.21256	0.49576	0.8668	-0.702
Mof_O 	O 	0.17599	0.51305	0.6708	-0.477
Mof_O 	O 	0.1636	0.52025	0.4556	-0.469
Mof_O 	O 	0.14731	0.51994	0.6489	-0.472
Mof_O 	O 	0.14154	0.4896	0.835	-0.471
Mof_O 	O 	0.15417	0.47738	0.0422	-0.453
Mof_O 	O 	0.17114	0.4822	0.8464	-0.427
Mof_O 	O 	0.10617	0.5057	0.6939	-0.522
Mof_O 	O 	0.0916	0.5183	0.8774	-0.437
Mof_O 	O 	0.12014	0.5197	0.8667	-0.443
Mof_O 	O 	0.0566	0.5221	0.961	-0.456
Mof_O 	O 	0.0409	0.5187	0.1566	-0.479
Mof_O 	O 	0.0704	0.5111	0.158	-0.496
Mof_O 	O 	0.0494	0.5226	0.455	-0.449
Mof_O 	O 	0.0352	0.5111	0.663	-0.485
Mof_O 	O 	0.0653	0.5193	0.656	-0.462
Mof_O 	O 	0.0147	0.5189	0.3756	-0.436
Mof_H 	H 	0.1052	0.5332	0.6987	-0.066
Mof_H 	H 	0.1523	0.4632	0.8215	-0.012
Mof_H 	H 	0.062	0.5348	0.1765	-0.04
Mof_H 	H 	0.2192	0.5062	0.6345	-0.031
Mof_H 	H 	0.1678	0.5419	0.628	-0
Mof_H 	H 	0.0431	0.5375	0.6548	-0.012
Mof_Ga	Ga	0.75136	0.97864	0.2505	1.545
Mof_Zn	Zn	0.67779	0.98958	0.1736	1.23
Mof_Zn	Zn	0.64109	0.0128	0.3291	1.23
Mof_Zn	Zn	0.57063	0.01177	0.3368	1.227
Mof_Zn	Zn	0.53515	0.0117	0.836	1.229
Mof_P 	P 	0.71482	0.99078	0.2228	0.586
Mof_P 	P 	0.66377	0.0226	0.102	0.444
Mof_P 	P 	0.65434	0.97859	0.3901	0.423
Mof_P 	P 	0.60562	0.01963	0.2835	0.472
Mof_P 	P 	0.55752	0.02209	0.6068	0.459
Mof_P 	P 	0.54837	0.02186	0.1066	0.381
Mof_O 	O 	0.69939	0.98439	0.1649	-0.466
Mof_O 	O 	0.72805	0.97816	0.2064	-0.732
Mof_O 	O 	0.71256	0.99576	0.3668	-0.707
Mof_O 	O 	0.67599	0.01305	0.1708	-0.479
Mof_O 	O 	0.6636	0.02025	0.9556	-0.453
Mof_O 	O 	0.64731	0.01994	0.1489	-0.475
Mof_O 	O 	0.64154	0.9896	0.335	-0.475
Mof_O 	O 	0.65417	0.97738	0.5422	-0.441
Mof_O 	O 	0.67114	0.9822	0.3464	-0.43
Mof_O 	O 	0.60617	0.0057	0.1939	-0.527
Mof_O 	O 	0.5916	0.0183	0.3774	-0.442
Mof_O 	O 	0.62014	0.0197	0.3667	-0.448
Mof_O 	O 	0.5566	0.0221	0.461	-0.47
Mof_O 	O 	0.5409	0.0187	0.6566	-0.476
Mof_O 	O 	0.5704	0.0111	0.658	-0.492
Mof_O 	O 	0.5494	0.0226	0.955	-0.433
Mof_O 	O 	0.5352	0.0111	0.163	-0.489
Mof_O 	O 	0.5653	0.0193	0.156	-0.465
Mof_O 	O 	0.5147	0.0189	0.8756	-0.429
Mof_H 	H 	0.6052	0.0332	0.1987	-0.07
Mof_H 	H 	0.6523	0.9632	0.3215	-0.016
Mof_H 	H 	0.562	0.0348	0.6765	-0.037
Mof_H 	H 	0.7192	0.0062	0.1345	-0.035
Mof_H 	H 	0.6678	0.0419	0.128	-0.004
Mof_H 	H 	0.5431	0.0375	0.1548	-0.016
Mof_Ga	Ga	0.24864	0.52136	0.2505	1.545
Mof_Zn	Zn	0.32221	0.51042	0.1736	1.23
Mof_Zn	Zn	0.35891	0.4872	0.3291	1.23
Mof_Zn	Zn	0.42937	0.48823	0.3368	1.227
Mof_Zn	Zn	0.46485	0.4883	0.836	1.229
Mof_P 	P 	0.28518	0.50922	0.2228	0.586
Mof_P 	P 	0.33623	0.4774	0.102	0.444
Mof_P 	P 	0.34566	0.52141	0.3901	0.423
Mof_P 	P 	0.39438	0.48037	0.2835	0.472
Mof_P 	P 	0.44248	0.47791	0.6068	0.459
Mof_P 	P 	0.45163	0.47814	0.1066	0.381
Mof_O 	O 	0.30061	0.51561	0.1649	-0.466
Mof_O 	O 	0.27195	0.52184	0.2064	-0.732
Mof_O 	O 	0.28744	0.50424	0.3668	-0.707
Mof_O 	O 	0.32401	0.48695	0.1708	-0.479
Mof_O 	O 	0.3364	0.47975	0.9556	-0.453
Mof_O 	O 	0.35269	0.48006	0.1489	-0.475
Mof_O 	O 	0.35846	0.5104	0.335	-0.475
Mof_O 	O 	0.34583	0.52262	0.5422	-0.441
Mof_O 	O 	0.32886	0.5178	0.3464	-0.43
Mof_O 	O 	0.39383	0.4943	0.1939	-0.527
Mof_O 	O 	0.4084	0.4817	0.3774	-0.442
Mof_O 	O 	0.37986	0.4803	0.3667	-0.448
Mof_O 	O 	0.4434	0.4779	0.461	-0.47
Mof_O 	O 	0.4591	0.4813	0.6566	-0.476
Mof_O 	O 	0.4296	0.4889	0.658	-0.492
Mof_O 	O 	0.4506	0.4774	0.955	-0.433
Mof_O 	O 	0.4648	0.4889	0.163	-0.489
Mof_O 	O 	0.4347	0.4807	0.156	-0.465
Mof_O 	O 	0.4853	0.4811	0.8756	-0.429
Mof_H 	H 	0.3948	0.4668	0.1987	-0.07
Mof_H 	H 	0.3477	0.5368	0.3215	-0.016
Mof_H 	H 	0.438	0.4652	0.6765	-0.037
Mof_H 	H 	0.2808	0.4938	0.1345	-0.035
Mof_H 	H 	0.3322	0.4581	0.128	-0.004
Mof_H 	H 	0.4569	0.4625	0.1548	-0.016
Mof_Ga	Ga	0.74864	0.02136	0.7505	1.545
Mof_Zn	Zn	0.82221	0.01042	0.6736	1.231
Mof_Zn	Zn	0.85891	0.9872	0.8291	1.231
Mof_Zn	Zn	0.92937	0.98823	0.8368	1.228
Mof_Zn	Zn	0.96485	0.9883	0.336	1.227
Mof_P 	P 	0.78518	0.00922	0.7228	0.587
Mof_P 	P 	0.83623	0.9774	0.602	0.458
Mof_P 	P 	0.84566	0.02141	0.8901	0.434
Mof_P 	P 	0.89438	0.98037	0.7835	0.472
Mof_P 	P 	0.94248	0.97791	0.1068	0.445
Mof_P 	P 	0.95163	0.97814	0.6066	0.397
Mof_O 	O 	0.80061	0.01561	0.6649	-0.461
Mof_O 	O 	0.77195	0.02184	0.7064	-0.727
Mof_O 	O 	0.78744	0.00424	0.8668	-0.702
Mof_O 	O 	0.82401	0.98695	0.6708	-0.477
Mof_O 	O 	0.8364	0.97975	0.4556	-0.469
Mof_O 	O 	0.85269	0.98006	0.6489	-0.472
Mof_O 	O 	0.85846	0.0104	0.835	-0.471
Mof_O 	O 	0.84583	0.02262	0.0422	-0.453
Mof_O 	O 	0.82886	0.0178	0.8464	-0.427
Mof_O 	O 	0.89383	0.9943	0.6939	-0.522
Mof_O 	O 	0.9084	0.9817	0.8774	-0.437
Mof_O 	O 	0.87986	0.9803	0.8667	-0.443
Mof_O 	O 	0.9434	0.9779	0.961	-0.456
Mof_O 	O 	0.9591	0.9813	0.1566	-0.479
Mof_O 	O 	0.9296	0.9889	0.158	-0.496
Mof_O 	O 	0.9506	0.9774	0.455	-0.449
Mof_O 	O 	0.9648	0.9889	0.663	-0.485
Mof_O 	O 	0.9347	0.9807	0.656	-0.462
Mof_O 	O 	0.9853	0.9811	0.3756	-0.436
Mof_H 	H 	0.8948	0.9668	0.6987	-0.066
Mof_H 	H 	0.8477	0.0368	0.8215	-0.012
Mof_H 	H 	0.938	0.9652	0.1765	-0.04
Mof_H 	H 	0.7808	0.9938	0.6345	-0.031
Mof_H 	H 	0.8322	0.9581	0.628	-0
Mof_H 	H 	0.9569	0.9625	0.6548	-0.012
Mof_Ga	Ga	0.27136	0.50136	0.5005	1.545
Mof_Zn	Zn	0.26042	0.42779	0.4236	1.231
Mof_Zn	Zn	0.2372	0.39109	0.5791	1.231
Mof_Zn	Zn	0.23823	0.32063	0.5868	1.227
Mof_Zn	Zn	0.2383	0.28515	0.086	1.225
Mof_P 	P 	0.25922	0.46482	0.4728	0.587
Mof_P 	P 	0.2274	0.41377	0.352	0.458
Mof_P 	P 	0.27141	0.40434	0.6401	0.423
Mof_P 	P 	0.23037	0.35562	0.5335	0.472
Mof_P 	P 	0.22791	0.30752	0.8568	0.459
Mof_P 	P 	0.22814	0.29837	0.3566	0.397
Mof_O 	O 	0.26561	0.44939	0.4149	-0.462
Mof_O 	O 	0.27184	0.47805	0.4564	-0.729
Mof_O 	O 	0.25424	0.46256	0.6168	-0.706
Mof_O 	O 	0.23695	0.42599	0.4208	-0.478
Mof_O 	O 	0.22975	0.4136	0.2056	-0.472
Mof_O 	O 	0.23006	0.39731	0.3989	-0.473
Mof_O 	O 	0.2604	0.39154	0.585	-0.473
Mof_O 	O 	0.27262	0.40417	0.7922	-0.437
Mof_O 	O 	0.2678	0.42114	0.5964	-0.428
Mof_O 	O 	0.2443	0.35617	0.4439	-0.523
Mof_O 	O 	0.2317	0.3416	0.6274	-0.441
Mof_O 	O 	0.2303	0.37014	0.6167	-0.447
Mof_O 	O 	0.2279	0.3066	0.711	-0.469
Mof_O 	O 	0.2313	0.2909	0.9066	-0.471
Mof_O 	O 	0.2389	0.3204	0.908	-0.49
Mof_O 	O 	0.2274	0.2994	0.205	-0.452
Mof_O 	O 	0.2389	0.2852	0.413	-0.487
Mof_O 	O 	0.2307	0.3153	0.406	-0.463
Mof_O 	O 	0.2311	0.2647	0.1256	-0.437
Mof_H 	H 	0.2168	0.3552	0.4487	-0.068
Mof_H 	H 	0.2868	0.4023	0.5715	-0.013
Mof_H 	H 	0.2152	0.312	0.9265	-0.036
Mof_H 	H 	0.2438	0.4692	0.3845	-0.031
Mof_H 	H 	0.2081	0.4178	0.378	-0.002
Mof_H 	H 	0.2125	0.2931	0.4048	-0.014
Mof_Ga	Ga	0.77136	0.00136	0.0005	1.626
Mof_Zn	Zn	0.76042	0.92779	0.9236	1.234
Mof_Zn	Zn	0.7372	0.89109	0.0791	1.227
Mof_Zn	Zn	0.73823	0.82063	0.0868	1.224
Mof_Zn	Zn	0.7383	0.78515	0.586	1.227
Mof_P 	P 	0.75922	0.96482	0.9728	0.6
Mof_P 	P 	0.7274	0.91377	0.852	0.459
Mof_P 	P 	0.77141	0.90434	0.1401	0.423
Mof_P 	P 	0.73037	0.85562	0.0335	0.448
Mof_P 	P 	0.72791	0.80752	0.3568	0.459
Mof_P 	P 	0.72814	0.79837	0.8566	0.398
Mof_O 	O 	0.76561	0.94939	0.9149	-0.459
Mof_O 	O 	0.77184	0.97805	0.9564	-0.719
Mof_O 	O 	0.75424	0.96256	0.1168	-0.719
Mof_O 	O 	0.73695	0.92599	0.9208	-0.472
Mof_O 	O 	0.72975	0.9136	0.7056	-0.468
Mof_O 	O 	0.73006	0.89731	0.8989	-0.465
Mof_O 	O 	0.7604	0.89154	0.085	-0.478
Mof_O 	O 	0.77262	0.90417	0.2922	-0.442
Mof_O 	O 	0.7678	0.92114	0.0964	-0.436
Mof_O 	O 	0.7443	0.85617	0.9439	-0.507
Mof_O 	O 	0.7317	0.8416	0.1274	-0.443
Mof_O 	O 	0.7303	0.87014	0.1167	-0.449
Mof_O 	O 	0.7279	0.8066	0.211	-0.474
Mof_O 	O 	0.7313	0.7909	0.4066	-0.478
Mof_O 	O 	0.7389	0.8204	0.408	-0.494
Mof_O 	O 	0.7274	0.7994	0.705	-0.449
Mof_O 	O 	0.7389	0.7852	0.913	-0.481
Mof_O 	O 	0.7307	0.8153	0.906	-0.455
Mof_O 	O 	0.7311	0.7647	0.6256	-0.435
Mof_H 	H 	0.7168	0.8552	0.9487	-0.056
Mof_H 	H 	0.7868	0.9023	0.0715	-0.018
Mof_H 	H 	0.7152	0.812	0.4265	-0.04
Mof_H 	H 	0.7438	0.9692	0.8845	-0.029
Mof_H 	H 	0.7081	0.9178	0.878	0.003
Mof_H 	H 	0.7125	0.7931	0.9048	-0.01
Mof_Ga	Ga	0.22864	0.49864	0.0005	1.626
Mof_Zn	Zn	0.23958	0.57221	0.9236	1.234
Mof_Zn	Zn	0.2628	0.60891	0.0791	1.227
Mof_Zn	Zn	0.26177	0.67937	0.0868	1.224
Mof_Zn	Zn	0.2617	0.71485	0.586	1.227
Mof_P 	P 	0.24078	0.53518	0.9728	0.6
Mof_P 	P 	0.2726	0.58623	0.852	0.459
Mof_P 	P 	0.22859	0.59566	0.1401	0.423
Mof_P 	P 	0.26963	0.64438	0.0335	0.448
Mof_P 	P 	0.27209	0.69248	0.3568	0.459
Mof_P 	P 	0.27186	0.70163	0.8566	0.398
Mof_O 	O 	0.23439	0.55061	0.9149	-0.459
Mof_O 	O 	0.22816	0.52195	0.9564	-0.719
Mof_O 	O 	0.24576	0.53744	0.1168	-0.719
Mof_O 	O 	0.26305	0.57401	0.9208	-0.472
Mof_O 	O 	0.27025	0.5864	0.7056	-0.468
Mof_O 	O 	0.26994	0.60269	0.8989	-0.465
Mof_O 	O 	0.2396	0.60846	0.085	-0.478
Mof_O 	O 	0.22738	0.59583	0.2922	-0.442
Mof_O 	O 	0.2322	0.57886	0.0964	-0.436
Mof_O 	O 	0.2557	0.64383	0.9439	-0.507
Mof_O 	O 	0.2683	0.6584	0.1274	-0.443
Mof_O 	O 	0.2697	0.62986	0.1167	-0.449
Mof_O 	O 	0.2721	0.6934	0.211	-0.474
Mof_O 	O 	0.2687	0.7091	0.4066	-0.478
Mof_O 	O 	0.2611	0.6796	0.408	-0.494
Mof_O 	O 	0.2726	0.7006	0.705	-0.449
Mof_O 	O 	0.2611	0.7148	0.913	-0.481
Mof_O 	O 	0.2693	0.6847	0.906	-0.455
Mof_O 	O 	0.2689	0.7353	0.6256	-0.435
Mof_H 	H 	0.2832	0.6448	0.9487	-0.056
Mof_H 	H 	0.2132	0.5977	0.0715	-0.018
Mof_H 	H 	0.2848	0.688	0.4265	-0.04
Mof_H 	H 	0.2562	0.5308	0.8845	-0.029
Mof_H 	H 	0.2919	0.5822	0.878	0.003
Mof_H 	H 	0.2875	0.7069	0.9048	-0.01
Mof_Ga	Ga	0.72864	0.99864	0.5005	1.545
Mof_Zn	Zn	0.73958	0.07221	0.4236	1.231
Mof_Zn	Zn	0.7628	0.10891	0.5791	1.231
Mof_Zn	Zn	0.76177	0.17937	0.5868	1.227
Mof_Zn	Zn	0.7617	0.21485	0.086	1.225
Mof_P 	P 	0.74078	0.03518	0.4728	0.587
Mof_P 	P 	0.7726	0.08623	0.352	0.458
Mof_P 	P 	0.72859	0.09566	0.6401	0.423
Mof_P 	P 	0.76963	0.14438	0.5335	0.472
Mof_P 	P 	0.77209	0.19248	0.8568	0.459
Mof_P 	P 	0.77186	0.20163	0.3566	0.397
Mof_O 	O 	0.73439	0.05061	0.4149	-0.462
Mof_O 	O 	0.72816	0.02195	0.4564	-0.729
Mof_O 	O 	0.74576	0.03744	0.6168	-0.706
Mof_O 	O 	0.76305	0.07401	0.4208	-0.478
Mof_O 	O 	0.77025	0.0864	0.2056	-0.472
Mof_O 	O 	0.76994	0.10269	0.3989	-0.473
Mof_O 	O 	0.7396	0.10846	0.585	-0.473
Mof_O 	O 	0.72738	0.09583	0.7922	-0.437
Mof_O 	O 	0.7322	0.07886	0.5964	-0.428
Mof_O 	O 	0.7557	0.14383	0.4439	-0.523
Mof_O 	O 	0.7683	0.1584	0.6274	-0.441
Mof_O 	O 	0.7697	0.12986	0.6167	-0.447
Mof_O 	O 	0.7721	0.1934	0.711	-0.469
Mof_O 	O 	0.7687	0.2091	0.9066	-0.471
Mof_O 	O 	0.7611	0.1796	0.908	-0.49
Mof_O 	O 	0.7726	0.2006	0.205	-0.452
Mof_O 	O 	0.7611	0.2148	0.413	-0.487
Mof_O 	O 	0.7693	0.1847	0.406	-0.463
Mof_O 	O 	0.7689	0.2353	0.1256	-0.437
Mof_H 	H 	0.7832	0.1448	0.4487	-0.068
Mof_H 	H 	0.7132	0.0977	0.5715	-0.013
Mof_H 	H 	0.7848	0.188	0.9265	-0.036
Mof_H 	H 	0.7562	0.0308	0.3845	-0.031
Mof_H 	H 	0.7919	0.0822	0.378	-0.002
Mof_H 	H 	0.7875	0.2069	0.4048	-0.014
Mof_Ga	Ga	0.24864	0.47864	0.7495	1.545
Mof_Zn	Zn	0.32221	0.48958	0.8264	1.232
Mof_Zn	Zn	0.35891	0.5128	0.6709	1.231
Mof_Zn	Zn	0.42937	0.51177	0.6632	1.227
Mof_Zn	Zn	0.46485	0.5117	0.164	1.226
Mof_P 	P 	0.28518	0.49078	0.7772	0.588
Mof_P 	P 	0.33623	0.5226	0.898	0.474
Mof_P 	P 	0.34566	0.47859	0.6099	0.423
Mof_P 	P 	0.39438	0.51963	0.7165	0.472
Mof_P 	P 	0.44248	0.52209	0.3932	0.459
Mof_P 	P 	0.45163	0.52186	0.8934	0.413
Mof_O 	O 	0.30061	0.48439	0.8351	-0.457
Mof_O 	O 	0.27195	0.47816	0.7936	-0.725
Mof_O 	O 	0.28744	0.49576	0.6332	-0.707
Mof_O 	O 	0.32401	0.51305	0.8292	-0.477
Mof_O 	O 	0.3364	0.52025	0.0444	-0.484
Mof_O 	O 	0.35269	0.51994	0.8511	-0.469
Mof_O 	O 	0.35846	0.4896	0.665	-0.471
Mof_O 	O 	0.34583	0.47738	0.4578	-0.441
Mof_O 	O 	0.32886	0.4822	0.6536	-0.428
Mof_O 	O 	0.39383	0.5057	0.8061	-0.516
Mof_O 	O 	0.4084	0.5183	0.6226	-0.441
Mof_O 	O 	0.37986	0.5197	0.6333	-0.447
Mof_O 	O 	0.4434	0.5221	0.539	-0.47
Mof_O 	O 	0.4591	0.5187	0.3434	-0.477
Mof_O 	O 	0.4296	0.5111	0.342	-0.495
Mof_O 	O 	0.4506	0.5226	0.045	-0.466
Mof_O 	O 	0.4648	0.5111	0.837	-0.484
Mof_O 	O 	0.4347	0.5193	0.844	-0.459
Mof_O 	O 	0.4853	0.5189	0.1244	-0.443
Mof_H 	H 	0.3948	0.5332	0.8013	-0.063
Mof_H 	H 	0.3477	0.4632	0.6785	-0.012
Mof_H 	H 	0.438	0.5348	0.3235	-0.041
Mof_H 	H 	0.2808	0.5062	0.8655	-0.027
Mof_H 	H 	0.3322	0.5419	0.872	0.002
Mof_H 	H 	0.4569	0.5375	0.8452	-0.01
Mof_Ga	Ga	0.74864	0.97864	0.2495	1.545
Mof_Zn	Zn	0.82221	0.98958	0.3264	1.231
Mof_Zn	Zn	0.85891	0.0128	0.1709	1.23
Mof_Zn	Zn	0.92937	0.01177	0.1632	1.226
Mof_Zn	Zn	0.96485	0.0117	0.664	1.228
Mof_P 	P 	0.78518	0.99078	0.2772	0.587
Mof_P 	P 	0.83623	0.0226	0.398	0.458
Mof_P 	P 	0.84566	0.97859	0.1099	0.411
Mof_P 	P 	0.89438	0.01963	0.2165	0.472
Mof_P 	P 	0.94248	0.02209	0.8932	0.473
Mof_P 	P 	0.95163	0.02186	0.3934	0.397
Mof_O 	O 	0.80061	0.98439	0.3351	-0.463
Mof_O 	O 	0.77195	0.97816	0.2936	-0.73
Mof_O 	O 	0.78744	0.99576	0.1332	-0.712
Mof_O 	O 	0.82401	0.01305	0.3292	-0.479
Mof_O 	O 	0.8364	0.02025	0.5444	-0.468
Mof_O 	O 	0.85269	0.01994	0.3511	-0.473
Mof_O 	O 	0.85846	0.9896	0.165	-0.475
Mof_O 	O 	0.84583	0.97738	0.9578	-0.429
Mof_O 	O 	0.82886	0.9822	0.1536	-0.431
Mof_O 	O 	0.89383	0.0057	0.3061	-0.524
Mof_O 	O 	0.9084	0.0183	0.1226	-0.447
Mof_O 	O 	0.87986	0.0197	0.1333	-0.452
Mof_O 	O 	0.9434	0.0221	0.039	-0.483
Mof_O 	O 	0.9591	0.0187	0.8434	-0.474
Mof_O 	O 	0.9296	0.0111	0.842	-0.492
Mof_O 	O 	0.9506	0.0226	0.545	-0.449
Mof_O 	O 	0.9648	0.0111	0.337	-0.488
Mof_O 	O 	0.9347	0.0193	0.344	-0.462
Mof_O 	O 	0.9853	0.0189	0.6244	-0.436
Mof_H 	H 	0.8948	0.0332	0.3013	-0.068
Mof_H 	H 	0.8477	0.9632	0.1785	-0.016
Mof_H 	H 	0.938	0.0348	0.8235	-0.038
Mof_H 	H 	0.7808	0.0062	0.3655	-0.031
Mof_H 	H 	0.8322	0.0419	0.372	-0.002
Mof_H 	H 	0.9569	0.0375	0.3452	-0.015
Mof_Ga	Ga	0.25136	0.52136	0.2495	1.545
Mof_Zn	Zn	0.17779	0.51042	0.3264	1.231
Mof_Zn	Zn	0.14109	0.4872	0.1709	1.23
Mof_Zn	Zn	0.07063	0.48823	0.1632	1.226
Mof_Zn	Zn	0.03515	0.4883	0.664	1.228
Mof_P 	P 	0.21482	0.50922	0.2772	0.587
Mof_P 	P 	0.16377	0.4774	0.398	0.458
Mof_P 	P 	0.15434	0.52141	0.1099	0.411
Mof_P 	P 	0.10562	0.48037	0.2165	0.472
Mof_P 	P 	0.05752	0.47791	0.8932	0.473
Mof_P 	P 	0.04837	0.47814	0.3934	0.397
Mof_O 	O 	0.19939	0.51561	0.3351	-0.463
Mof_O 	O 	0.22805	0.52184	0.2936	-0.73
Mof_O 	O 	0.21256	0.50424	0.1332	-0.712
Mof_O 	O 	0.17599	0.48695	0.3292	-0.479
Mof_O 	O 	0.1636	0.47975	0.5444	-0.468
Mof_O 	O 	0.14731	0.48006	0.3511	-0.473
Mof_O 	O 	0.14154	0.5104	0.165	-0.475
Mof_O 	O 	0.15417	0.52262	0.9578	-0.429
Mof_O 	O 	0.17114	0.5178	0.1536	-0.431
Mof_O 	O 	0.10617	0.4943	0.3061	-0.524
Mof_O 	O 	0.0916	0.4817	0.1226	-0.447
Mof_O 	O 	0.12014	0.4803	0.1333	-0.452
Mof_O 	O 	0.0566	0.4779	0.039	-0.483
Mof_O 	O 	0.0409	0.4813	0.8434	-0.474
Mof_O 	O 	0.0704	0.4889	0.842	-0.492
Mof_O 	O 	0.0494	0.4774	0.545	-0.449
Mof_O 	O 	0.0352	0.4889	0.337	-0.488
Mof_O 	O 	0.0653	0.4807	0.344	-0.462
Mof_O 	O 	0.0147	0.4811	0.6244	-0.436
Mof_H 	H 	0.1052	0.4668	0.3013	-0.068
Mof_H 	H 	0.1523	0.5368	0.1785	-0.016
Mof_H 	H 	0.062	0.4652	0.8235	-0.038
Mof_H 	H 	0.2192	0.4938	0.3655	-0.031
Mof_H 	H 	0.1678	0.4581	0.372	-0.002
Mof_H 	H 	0.0431	0.4625	0.3452	-0.015
Mof_Ga	Ga	0.75136	0.02136	0.7495	1.545
Mof_Zn	Zn	0.67779	0.01042	0.8264	1.232
Mof_Zn	Zn	0.64109	0.9872	0.6709	1.231
Mof_Zn	Zn	0.57063	0.98823	0.6632	1.227
Mof_Zn	Zn	0.53515	0.9883	0.164	1.226
Mof_P 	P 	0.71482	0.00922	0.7772	0.588
Mof_P 	P 	0.66377	0.9774	0.898	0.474
Mof_P 	P 	0.65434	0.02141	0.6099	0.423
Mof_P 	P 	0.60562	0.98037	0.7165	0.472
Mof_P 	P 	0.55752	0.97791	0.3932	0.459
Mof_P 	P 	0.54837	0.97814	0.8934	0.413
Mof_O 	O 	0.69939	0.01561	0.8351	-0.457
Mof_O 	O 	0.72805	0.02184	0.7936	-0.725
Mof_O 	O 	0.71256	0.00424	0.6332	-0.707
Mof_O 	O 	0.67599	0.98695	0.8292	-0.477
Mof_O 	O 	0.6636	0.97975	0.0444	-0.484
Mof_O 	O 	0.64731	0.98006	0.8511	-0.469
Mof_O 	O 	0.64154	0.0104	0.665	-0.471
Mof_O 	O 	0.65417	0.02262	0.4578	-0.441
Mof_O 	O 	0.67114	0.0178	0.6536	-0.428
Mof_O 	O 	0.60617	0.9943	0.8061	-0.516
Mof_O 	O 	0.5916	0.9817	0.6226	-0.441
Mof_O 	O 	0.62014	0.9803	0.6333	-0.447
Mof_O 	O 	0.5566	0.9779	0.539	-0.47
Mof_O 	O 	0.5409	0.9813	0.3434	-0.477
Mof_O 	O 	0.5704	0.9889	0.342	-0.495
Mof_O 	O 	0.5494	0.9774	0.045	-0.466
Mof_O 	O 	0.5352	0.9889	0.837	-0.484
Mof_O 	O 	0.5653	0.9807	0.844	-0.459
Mof_O 	O 	0.5147	0.9811	0.1244	-0.443
Mof_H 	H 	0.6052	0.9668	0.8013	-0.063
Mof_H 	H 	0.6523	0.0368	0.6785	-0.012
Mof_H 	H 	0.562	0.9652	0.3235	-0.041
Mof_H 	H 	0.7192	0.9938	0.8655	-0.027
Mof_H 	H 	0.6678	0.9581	0.872	0.002
Mof_H 	H 	0.5431	0.9625	0.8452	-0.01
Mof_Ga	Ga	0.22864	0.50136	0.9995	1.466
Mof_Zn	Zn	0.23958	0.42779	0.0764	1.228
Mof_Zn	Zn	0.2628	0.39109	0.9209	1.233
Mof_Zn	Zn	0.26177	0.32063	0.9132	1.229
Mof_Zn	Zn	0.2617	0.28515	0.414	1.227
Mof_P 	P 	0.24078	0.46482	0.0272	0.576
Mof_P 	P 	0.2726	0.41377	0.148	0.458
Mof_P 	P 	0.22859	0.40434	0.8599	0.423
Mof_P 	P 	0.26963	0.35562	0.9665	0.489
Mof_P 	P 	0.27209	0.30752	0.6432	0.459
Mof_P 	P 	0.27186	0.29837	0.1434	0.397
Mof_O 	O 	0.23439	0.44939	0.0851	-0.464
Mof_O 	O 	0.22816	0.47805	0.0436	-0.738
Mof_O 	O 	0.24576	0.46256	0.8832	-0.696
Mof_O 	O 	0.26305	0.42599	0.0792	-0.483
Mof_O 	O 	0.27025	0.4136	0.2944	-0.469
Mof_O 	O 	0.26994	0.39731	0.1011	-0.478
Mof_O 	O 	0.2396	0.39154	0.915	-0.468
Mof_O 	O 	0.22738	0.40417	0.7078	-0.44
Mof_O 	O 	0.2322	0.42114	0.9036	-0.422
Mof_O 	O 	0.2557	0.35617	0.0561	-0.535
Mof_O 	O 	0.2683	0.3416	0.8726	-0.441
Mof_O 	O 	0.2697	0.37014	0.8833	-0.447
Mof_O 	O 	0.2721	0.3066	0.789	-0.467
Mof_O 	O 	0.2687	0.2909	0.5934	-0.476
Mof_O 	O 	0.2611	0.3204	0.592	-0.494
Mof_O 	O 	0.2726	0.2994	0.295	-0.449
Mof_O 	O 	0.2611	0.2852	0.087	-0.49
Mof_O 	O 	0.2693	0.3153	0.094	-0.467
Mof_O 	O 	0.2689	0.2647	0.3744	-0.436
Mof_H 	H 	0.2832	0.3552	0.0513	-0.075
Mof_H 	H 	0.2132	0.4023	0.9285	-0.01
Mof_H 	H 	0.2848	0.312	0.5735	-0.038
Mof_H 	H 	0.2562	0.4692	0.1155	-0.033
Mof_H 	H 	0.2919	0.4178	0.122	-0.004
Mof_H 	H 	0.2875	0.2931	0.0952	-0.016
Mof_Ga	Ga	0.72864	0.00136	0.4995	1.545
Mof_Zn	Zn	0.73958	0.92779	0.5764	1.231
Mof_Zn	Zn	0.7628	0.89109	0.4209	1.231
Mof_Zn	Zn	0.76177	0.82063	0.4132	1.227
Mof_Zn	Zn	0.7617	0.78515	0.914	1.23
Mof_P 	P 	0.74078	0.96482	0.5272	0.587
Mof_P 	P 	0.7726	0.91377	0.648	0.458
Mof_P 	P 	0.72859	0.90434	0.3599	0.423
Mof_P 	P 	0.76963	0.85562	0.4665	0.472
Mof_P 	P 	0.77209	0.80752	0.1432	0.459
Mof_P 	P 	0.77186	0.79837	0.6434	0.397
Mof_O 	O 	0.73439	0.94939	0.5851	-0.462
Mof_O 	O 	0.72816	0.97805	0.5436	-0.728
Mof_O 	O 	0.74576	0.96256	0.3832	-0.708
Mof_O 	O 	0.76305	0.92599	0.5792	-0.478
Mof_O 	O 	0.77025	0.9136	0.7944	-0.464
Mof_O 	O 	0.76994	0.89731	0.6011	-0.471
Mof_O 	O 	0.7396	0.89154	0.415	-0.473
Mof_O 	O 	0.72738	0.90417	0.2078	-0.446
Mof_O 	O 	0.7322	0.92114	0.4036	-0.43
Mof_O 	O 	0.7557	0.85617	0.5561	-0.522
Mof_O 	O 	0.7683	0.8416	0.3726	-0.443
Mof_O 	O 	0.7697	0.87014	0.3833	-0.448
Mof_O 	O 	0.7721	0.8066	0.289	-0.471
Mof_O 	O 	0.7687	0.7909	0.0934	-0.483
Mof_O 	O 	0.7611	0.8204	0.092	-0.499
Mof_O 	O 	0.7726	0.7994	0.795	-0.445
Mof_O 	O 	0.7611	0.7852	0.587	-0.487
Mof_O 	O 	0.7693	0.8153	0.594	-0.461
Mof_O 	O 	0.7689	0.7647	0.8744	-0.435
Mof_H 	H 	0.7832	0.8552	0.5513	-0.066
Mof_H 	H 	0.7132	0.9023	0.4285	-0.015
Mof_H 	H 	0.7848	0.812	0.0735	-0.043
Mof_H 	H 	0.7562	0.9692	0.6155	-0.031
Mof_H 	H 	0.7919	0.9178	0.622	-0
Mof_H 	H 	0.7875	0.7931	0.5952	-0.013
Mof_Ga	Ga	0.27136	0.49864	0.4995	1.545
Mof_Zn	Zn	0.26042	0.57221	0.5764	1.231
Mof_Zn	Zn	0.2372	0.60891	0.4209	1.231
Mof_Zn	Zn	0.23823	0.67937	0.4132	1.227
Mof_Zn	Zn	0.2383	0.71485	0.914	1.23
Mof_P 	P 	0.25922	0.53518	0.5272	0.587
Mof_P 	P 	0.2274	0.58623	0.648	0.458
Mof_P 	P 	0.27141	0.59566	0.3599	0.423
Mof_P 	P 	0.23037	0.64438	0.4665	0.472
Mof_P 	P 	0.22791	0.69248	0.1432	0.459
Mof_P 	P 	0.22814	0.70163	0.6434	0.397
Mof_O 	O 	0.26561	0.55061	0.5851	-0.462
Mof_O 	O 	0.27184	0.52195	0.5436	-0.728
Mof_O 	O 	0.25424	0.53744	0.3832	-0.708
Mof_O 	O 	0.23695	0.57401	0.5792	-0.478
Mof_O 	O 	0.22975	0.5864	0.7944	-0.464
Mof_O 	O 	0.23006	0.60269	0.6011	-0.471
Mof_O 	O 	0.2604	0.60846	0.415	-0.473
Mof_O 	O 	0.27262	0.59583	0.2078	-0.446
Mof_O 	O 	0.2678	0.57886	0.4036	-0.43
Mof_O 	O 	0.2443	0.64383	0.5561	-0.522
Mof_O 	O 	0.2317	0.6584	0.3726	-0.443
Mof_O 	O 	0.2303	0.62986	0.3833	-0.448
Mof_O 	O 	0.2279	0.6934	0.289	-0.471
Mof_O 	O 	0.2313	0.7091	0.0934	-0.483
Mof_O 	O 	0.2389	0.6796	0.092	-0.499
Mof_O 	O 	0.2274	0.7006	0.795	-0.445
Mof_O 	O 	0.2389	0.7148	0.587	-0.487
Mof_O 	O 	0.2307	0.6847	0.594	-0.461
Mof_O 	O 	0.2311	0.7353	0.8744	-0.435
Mof_H 	H 	0.2168	0.6448	0.5513	-0.066
Mof_H 	H 	0.2868	0.5977	0.4285	-0.015
Mof_H 	H 	0.2152	0.688	0.0735	-0.043
Mof_H 	H 	0.2438	0.5308	0.6155	-0.031
Mof_H 	H 	0.2081	0.5822	0.622	-0
Mof_H 	H 	0.2125	0.7069	0.5952	-0.013
Mof_Ga	Ga	0.77136	0.99864	0.9995	1.466
Mof_Zn	Zn	0.76042	0.07221	0.0764	1.228
Mof_Zn	Zn	0.7372	0.10891	0.9209	1.233
Mof_Zn	Zn	0.73823	0.17937	0.9132	1.229
Mof_Zn	Zn	0.7383	0.21485	0.414	1.227
Mof_P 	P 	0.75922	0.03518	0.0272	0.576
Mof_P 	P 	0.7274	0.08623	0.148	0.458
Mof_P 	P 	0.77141	0.09566	0.8599	0.423
Mof_P 	P 	0.73037	0.14438	0.9665	0.489
Mof_P 	P 	0.72791	0.19248	0.6432	0.459
Mof_P 	P 	0.72814	0.20163	0.1434	0.397
Mof_O 	O 	0.76561	0.05061	0.0851	-0.464
Mof_O 	O 	0.77184	0.02195	0.0436	-0.738
Mof_O 	O 	0.75424	0.03744	0.8832	-0.696
Mof_O 	O 	0.73695	0.07401	0.0792	-0.483
Mof_O 	O 	0.72975	0.0864	0.2944	-0.469
Mof_O 	O 	0.73006	0.10269	0.1011	-0.478
Mof_O 	O 	0.7604	0.10846	0.915	-0.468
Mof_O 	O 	0.77262	0.09583	0.7078	-0.44
Mof_O 	O 	0.7678	0.07886	0.9036	-0.422
Mof_O 	O 	0.7443	0.14383	0.0561	-0.535
Mof_O 	O 	0.7317	0.1584	0.8726	-0.441
Mof_O 	O 	0.7303	0.12986	0.8833	-0.447
Mof_O 	O 	0.7279	0.1934	0.789	-0.467
Mof_O 	O 	0.7313	0.2091	0.5934	-0.476
Mof_O 	O 	0.7389	0.1796	0.592	-0.494
Mof_O 	O 	0.7274	0.2006	0.295	-0.449
Mof_O 	O 	0.7389	0.2148	0.087	-0.49
Mof_O 	O 	0.7307	0.1847	0.094	-0.467
Mof_O 	O 	0.7311	0.2353	0.3744	-0.436
Mof_H 	H 	0.7168	0.1448	0.0513	-0.075
Mof_H 	H 	0.7868	0.0977	0.9285	-0.01
Mof_H 	H 	0.7152	0.188	0.5735	-0.038
Mof_H 	H 	0.7438	0.0308	0.1155	-0.033
Mof_H 	H 	0.7081	0.0822	0.122	-0.004
Mof_H 	H 	0.7125	0.2069	0.0952	-0.016
Mof_Zn	Zn	0.89403	0.5	0.5	1.146
Mof_Zn	Zn	0.39403	0	-0	1.139
Mof_Zn	Zn	0.60597	0.5	-0	1.139
Mof_Zn	Zn	0.10597	0	0.5	1.146
Mof_Zn	Zn	0.75	0.64403	0.75	1.147
Mof_Zn	Zn	0.25	0.14403	0.25	1.145
Mof_Zn	Zn	0.75	0.35597	0.25	1.145
Mof_Zn	Zn	0.25	0.85597	0.75	1.147
Mof_Zn	Zn	0.10597	0.5	0.5	1.146
Mof_Zn	Zn	0.60597	0	-0	1.139
Mof_Zn	Zn	0.39403	0.5	-0	1.139
Mof_Zn	Zn	0.89403	0	0.5	1.146
Mof_Zn	Zn	0.25	0.35597	0.25	1.145
Mof_Zn	Zn	0.75	0.85597	0.75	1.147
Mof_Zn	Zn	0.25	0.64403	0.75	1.147
Mof_Zn	Zn	0.75	0.14403	0.25	1.145
Mof_Zn	Zn	-0	0.5	-0	1.137
Mof_Zn	Zn	0.5	0	0.5	1.142
Mof_Zn	Zn	0.5	0.5	0.5	1.142
Mof_Zn	Zn	-0	0	-0	1.137
Mof_Zn	Zn	0.75	0.75	0.25	1.141
Mof_Zn	Zn	0.75	0.25	0.75	1.143
Mof_Zn	Zn	0.25	0.25	0.75	1.143
Mof_Zn	Zn	0.25	0.75	0.25	1.141
Mof_P 	P 	4.57361e-33	0.4803	0.7168	0.401
Mof_O 	O 	-3.4733e-34	0.4944	0.805	-0.507
Mof_P 	P 	0.5	0.9803	0.2168	0.398
Mof_O 	O 	0.5	0.9944	0.305	-0.514
Mof_P 	P 	0.5	0.5197	0.2168	0.398
Mof_O 	O 	0.5	0.5056	0.305	-0.514
Mof_P 	P 	3.21729e-34	0.0197	0.7168	0.401
Mof_O 	O 	1.77861e-33	0.0056	0.805	-0.507
Mof_P 	P 	0.7697	0.75	0.9668	0.414
Mof_O 	O 	0.7556	0.75	0.055	-0.526
Mof_P 	P 	0.7303	0.25	0.4668	0.4
Mof_O 	O 	0.7444	0.25	0.555	-0.512
Mof_P 	P 	0.5	0.4803	0.7832	0.4
Mof_O 	O 	0.5	0.4944	0.695	-0.511
Mof_P 	P 	-4.12477e-33	0.9803	0.2832	0.397
Mof_O 	O 	7.96171e-34	0.9944	0.195	-0.515
Mof_P 	P 	7.21358e-33	0.5197	0.2832	0.397
Mof_O 	O 	7.96171e-34	0.5056	0.195	-0.515
Mof_P 	P 	0.5	0.0197	0.7832	0.4
Mof_O 	O 	0.5	0.0056	0.695	-0.511
Mof_P 	P 	0.7303	0.75	0.5332	0.399
Mof_O 	O 	0.7444	0.75	0.445	-0.513
Mof_P 	P 	0.7697	0.25	0.0332	0.388
Mof_O 	O 	0.7556	0.25	0.945	-0.502
Mof_P 	P 	0.2303	0.25	0.0332	0.388
Mof_O 	O 	0.2444	0.25	0.945	-0.502
Mof_P 	P 	0.2697	0.75	0.5332	0.399
Mof_O 	O 	0.2556	0.75	0.445	-0.513
Mof_P 	P 	0.2697	0.25	0.4668	0.4
Mof_O 	O 	0.2556	0.25	0.555	-0.512
Mof_P 	P 	0.2303	0.75	0.9668	0.414
Mof_O 	O 	0.2444	0.75	0.055	-0.526
Mof_F 	F 	0.75434	0.50434	0.125	-1.105
Mof_F 	F 	0.25434	0.00434	0.625	-1.101
Mof_F 	F 	0.74566	0.49566	0.625	-1.101
Mof_F 	F 	0.24566	0.99566	0.125	-1.105
Mof_F 	F 	0.74566	0.50434	0.375	-1.101
Mof_F 	F 	0.24566	0.00434	0.875	-1.097
Mof_F 	F 	0.75434	0.49566	0.875	-1.097
Mof_F 	F 	0.25434	0.99566	0.375	-1.101
Mof_F 	F 	0.24566	0.49566	0.875	-1.097
Mof_F 	F 	0.74566	0.99566	0.375	-1.101
Mof_F 	F 	0.25434	0.50434	0.375	-1.101
Mof_F 	F 	0.75434	0.00434	0.875	-1.097
Mof_F 	F 	0.25434	0.49566	0.625	-1.101
Mof_F 	F 	0.75434	0.99566	0.125	-1.105
Mof_F 	F 	0.24566	0.50434	0.125	-1.105
Mof_F 	F 	0.74566	0.00434	0.625	-1.101
_end
