data_functionalizedCrystal
_audit_creation_method	'EQeq! by Chris Wilmer'
_symmetry_space_group_name_H-M	'P1'
_symmetry_Int_Tables_number	1
_symmetry_cell_setting	triclinic
loop_
_symmetry_equiv_pos_as_xyz
  x,y,z
_cell_length_a	9.9781
_cell_length_b	11.3647
_cell_length_c	15.0548
_cell_angle_alpha	90.9962
_cell_angle_beta	90
_cell_angle_gamma	90
loop_
_atom_site_label
_atom_site_type_symbol
_atom_site_fract_x
_atom_site_fract_y
_atom_site_fract_z
_atom_site_charge
Mof_Zn	Zn	0.93024	0.75458	0.13241	1.284
Mof_Zn	Zn	0.12463	0.74191	0.30279	1.238
Mof_Zn	Zn	0.43024	0.74542	0.36759	1.246
Mof_Zn	Zn	0.62463	0.75809	0.19721	1.253
Mof_Zn	Zn	0.06976	0.24542	0.86759	1.205
Mof_Zn	Zn	0.87537	0.25809	0.69721	1.265
Mof_Zn	Zn	0.56976	0.25458	0.63241	1.242
Mof_Zn	Zn	0.37537	0.24191	0.80279	1.248
Mof_Zn	Zn	-0	0.5	-0	1.182
Mof_Zn	Zn	0.5	0	0.5	1.236
Mof_Zn	Zn	-0	0	-0	1.164
Mof_Zn	Zn	0.5	0.5	0.5	1.257
Mof_H 	H 	0.7786	0.854	0.3664	-0.086
Mof_H 	H 	0.0645	0.4782	0.2546	-0.137
Mof_H 	H 	0.6301	0.5378	0.0746	-0.124
Mof_H 	H 	0.229	0.9637	0.2063	-0.155
Mof_H 	H 	0.132	0.6954	0.9185	-0.16
Mof_H 	H 	0.7135	0.002	0.0323	-0.198
Mof_H 	H 	0.2786	0.646	0.1336	-0.134
Mof_H 	H 	0.5645	0.0218	0.2454	-0.225
Mof_H 	H 	0.1301	0.9622	0.4254	-0.113
Mof_H 	H 	0.729	0.5363	0.2937	-0.099
Mof_H 	H 	0.632	0.8046	0.5815	-0.079
Mof_H 	H 	0.2135	0.498	0.4677	-0.11
Mof_H 	H 	0.2214	0.146	0.6336	-0.134
Mof_H 	H 	0.9355	0.5218	0.7454	-0.063
Mof_H 	H 	0.3699	0.4622	0.9254	-0.068
Mof_H 	H 	0.771	0.0363	0.7937	-0.079
Mof_H 	H 	0.868	0.3046	0.0815	-0.027
Mof_H 	H 	0.2865	0.998	0.9677	0.036
Mof_H 	H 	0.7214	0.354	0.8664	-0.084
Mof_H 	H 	0.4355	0.9782	0.7546	0.027
Mof_H 	H 	0.8699	0.0378	0.5746	-0.079
Mof_H 	H 	0.271	0.4637	0.7063	-0.136
Mof_H 	H 	0.368	0.1954	0.4185	-0.119
Mof_H 	H 	0.7865	0.502	0.5323	-0.068
Mof_C 	C 	0.8475	0.8261	0.328	0.488
Mof_C 	C 	0.0392	0.5203	0.2032	0.531
Mof_C 	C 	0.7208	0.5627	0.0713	0.51
Mof_C 	C 	0.1563	0.9416	0.1688	0.635
Mof_C 	C 	0.0853	0.7415	0.9616	0.684
Mof_C 	C 	0.7323	0.9357	0.0678	0.593
Mof_C 	C 	0.3475	0.6739	0.172	0.505
Mof_C 	C 	0.5392	0.9797	0.2968	0.746
Mof_C 	C 	0.2208	0.9373	0.4287	0.494
Mof_C 	C 	0.6563	0.5584	0.3312	0.505
Mof_C 	C 	0.5853	0.7585	0.5384	0.49
Mof_C 	C 	0.2323	0.5643	0.4322	0.489
Mof_C 	C 	0.1525	0.1739	0.672	0.509
Mof_C 	C 	0.9608	0.4797	0.7968	0.474
Mof_C 	C 	0.2792	0.4373	0.9287	0.474
Mof_C 	C 	0.8437	0.0584	0.8312	0.386
Mof_C 	C 	0.9147	0.2585	0.0384	0.294
Mof_C 	C 	0.2677	0.0643	0.9322	0.344
Mof_C 	C 	0.6525	0.3261	0.828	0.491
Mof_C 	C 	0.4608	0.0203	0.7032	0.258
Mof_C 	C 	0.7792	0.0627	0.5713	0.496
Mof_C 	C 	0.3437	0.4416	0.6688	0.52
Mof_C 	C 	0.4147	0.2415	0.4616	0.505
Mof_C 	C 	0.7677	0.4357	0.5678	0.469
Mof_O 	O 	0.81534	0.80607	0.24777	-0.535
Mof_O 	O 	0.96048	0.81277	0.36147	-0.366
Mof_O 	O 	0.02126	0.63096	0.21346	-0.634
Mof_O 	O 	0.0272	0.46264	0.13384	-0.533
Mof_O 	O 	0.75429	0.65066	0.12076	-0.56
Mof_O 	O 	0.79442	0.50695	0.01965	-0.463
Mof_O 	O 	0.09456	0.84774	0.18834	-0.649
Mof_O 	O 	0.132	0.00724	0.10644	-0.606
Mof_O 	O 	0.01943	0.68536	0.02046	-0.753
Mof_O 	O 	0.09415	0.84932	0.95522	-0.464
Mof_O 	O 	0.85441	0.90058	0.06968	-0.561
Mof_O 	O 	0.63628	0.89192	0.10792	-0.471
Mof_O 	O 	0.31534	0.69393	0.25223	-0.575
Mof_O 	O 	0.46048	0.68723	0.13853	-0.472
Mof_O 	O 	0.52126	0.86904	0.28654	-0.63
Mof_O 	O 	0.5272	0.03736	0.36616	-0.561
Mof_O 	O 	0.25429	0.84934	0.37924	-0.578
Mof_O 	O 	0.29442	0.99305	0.48035	-0.415
Mof_O 	O 	0.59456	0.65226	0.31166	-0.571
Mof_O 	O 	0.632	0.49276	0.39356	-0.44
Mof_O 	O 	0.51943	0.81464	0.47954	-0.561
Mof_O 	O 	0.59415	0.65068	0.54478	-0.443
Mof_O 	O 	0.35441	0.59942	0.43032	-0.577
Mof_O 	O 	0.13628	0.60808	0.39208	-0.478
Mof_O 	O 	0.18466	0.19393	0.75223	-0.608
Mof_O 	O 	0.03952	0.18723	0.63853	-0.54
Mof_O 	O 	0.97874	0.36904	0.78654	-0.515
Mof_O 	O 	0.9728	0.53736	0.86616	-0.341
Mof_O 	O 	0.24571	0.34934	0.87924	-0.579
Mof_O 	O 	0.20558	0.49305	0.98035	-0.394
Mof_O 	O 	0.90544	0.15226	0.81166	-0.498
Mof_O 	O 	0.868	0.99276	0.89356	-0.265
Mof_O 	O 	0.98057	0.31464	0.97954	-0.37
Mof_O 	O 	0.90585	0.15068	0.04478	-0.403
Mof_O 	O 	0.14559	0.09942	0.93032	-0.549
Mof_O 	O 	0.36372	0.10808	0.89208	-0.408
Mof_O 	O 	0.68466	0.30607	0.74777	-0.567
Mof_O 	O 	0.53952	0.31277	0.86147	-0.43
Mof_O 	O 	0.47874	0.13096	0.71346	-0.523
Mof_O 	O 	0.4728	0.96264	0.63384	-0.328
Mof_O 	O 	0.74571	0.15066	0.62076	-0.564
Mof_O 	O 	0.70558	0.00695	0.51965	-0.46
Mof_O 	O 	0.40544	0.34774	0.68834	-0.584
Mof_O 	O 	0.368	0.50724	0.60644	-0.458
Mof_O 	O 	0.48057	0.18536	0.52046	-0.586
Mof_O 	O 	0.40585	0.34932	0.45522	-0.464
Mof_O 	O 	0.64559	0.40058	0.56968	-0.562
Mof_O 	O 	0.86372	0.39192	0.60792	-0.404
_end
