data_functionalizedCrystal
_audit_creation_method	'EQeq! by Chris Wilmer'
_symmetry_space_group_name_H-M	'P1'
_symmetry_Int_Tables_number	1
_symmetry_cell_setting	triclinic
loop_
_symmetry_equiv_pos_as_xyz
  x,y,z
_cell_length_a	22.7374
_cell_length_b	22.7374
_cell_length_c	17.8238
_cell_angle_alpha	90
_cell_angle_beta	90
_cell_angle_gamma	120
loop_
_atom_site_label
_atom_site_type_symbol
_atom_site_fract_x
_atom_site_fract_y
_atom_site_fract_z
_atom_site_charge
Mof_O 	O 	0.0528	0.2408	0.0939	-0.476
Mof_C 	C 	0.9417	0.27	0.2032	0.073
Mof_H 	H 	0.903	0.246	0.1711	0.005
Mof_C 	C 	0.9418	0.3122	0.2597	-0.13
Mof_H 	H 	0.903	0.3175	0.2673	0.064
Mof_C 	C 	0.0565	0.3426	0.2921	-0.06
Mof_H 	H 	0.0954	0.3668	0.3239	0.044
Mof_C 	C 	0.0543	0.2981	0.2375	0.053
Mof_H 	H 	0.093	0.2921	0.2314	0.016
Mof_H 	H 	0.1652	0.342	0.9602	0.167
Mof_H 	H 	0.0201	0.1015	0.2448	0.201
Mof_O 	O 	0.0423	0.2014	0.1411	-0.419
Mof_O 	O 	0.7592	0.812	0.0939	-0.472
Mof_C 	C 	0.73	0.6717	0.2032	0.076
Mof_H 	H 	0.754	0.657	0.1711	0.006
Mof_C 	C 	0.6878	0.6296	0.2597	-0.126
Mof_H 	H 	0.6825	0.5855	0.2673	0.066
Mof_C 	C 	0.6574	0.7139	0.2921	-0.059
Mof_H 	H 	0.6332	0.7286	0.3239	0.045
Mof_C 	C 	0.7019	0.7562	0.2375	0.053
Mof_H 	H 	0.7079	0.8009	0.2314	0.016
Mof_H 	H 	0.658	0.8232	0.9602	0.169
Mof_H 	H 	0.8985	0.9186	0.2448	0.193
Mof_O 	O 	0.7986	0.8409	0.1411	-0.416
Mof_O 	O 	0.188	0.9472	0.0939	-0.479
Mof_C 	C 	0.3283	0.0583	0.2032	0.076
Mof_H 	H 	0.343	0.097	0.1711	0.006
Mof_C 	C 	0.3704	0.0582	0.2597	-0.128
Mof_H 	H 	0.4145	0.097	0.2673	0.066
Mof_C 	C 	0.2861	0.9435	0.2921	-0.063
Mof_H 	H 	0.2714	0.9046	0.3239	0.045
Mof_C 	C 	0.2438	0.9457	0.2375	0.05
Mof_H 	H 	0.1991	0.907	0.2314	0.017
Mof_H 	H 	0.1768	0.8348	0.9602	0.167
Mof_H 	H 	0.0814	0.9799	0.2448	0.185
Mof_O 	O 	0.1591	0.9577	0.1411	-0.423
Mof_O 	O 	0.9472	0.7592	0.0939	-0.477
Mof_C 	C 	0.0583	0.73	0.2032	0.076
Mof_H 	H 	0.097	0.754	0.1711	0.006
Mof_C 	C 	0.0582	0.6878	0.2597	-0.127
Mof_H 	H 	0.097	0.6825	0.2673	0.066
Mof_C 	C 	0.9435	0.6574	0.2921	-0.063
Mof_H 	H 	0.9046	0.6332	0.3239	0.045
Mof_C 	C 	0.9457	0.7019	0.2375	0.05
Mof_H 	H 	0.907	0.7079	0.2314	0.016
Mof_H 	H 	0.8348	0.658	0.9602	0.169
Mof_H 	H 	0.9799	0.8985	0.2448	0.189
Mof_O 	O 	0.9577	0.7986	0.1411	-0.421
Mof_O 	O 	0.2408	0.188	0.0939	-0.473
Mof_C 	C 	0.27	0.3283	0.2032	0.076
Mof_H 	H 	0.246	0.343	0.1711	0.006
Mof_C 	C 	0.3122	0.3704	0.2597	-0.127
Mof_H 	H 	0.3175	0.4145	0.2673	0.066
Mof_C 	C 	0.3426	0.2861	0.2921	-0.058
Mof_H 	H 	0.3668	0.2714	0.3239	0.045
Mof_C 	C 	0.2981	0.2438	0.2375	0.053
Mof_H 	H 	0.2921	0.1991	0.2314	0.016
Mof_H 	H 	0.342	0.1768	0.9602	0.167
Mof_H 	H 	0.1015	0.0814	0.2448	0.194
Mof_O 	O 	0.2014	0.1591	0.1411	-0.419
Mof_O 	O 	0.812	0.0528	0.0939	-0.474
Mof_C 	C 	0.6717	0.9417	0.2032	0.074
Mof_H 	H 	0.657	0.903	0.1711	0.006
Mof_C 	C 	0.6296	0.9418	0.2597	-0.129
Mof_H 	H 	0.5855	0.903	0.2673	0.065
Mof_C 	C 	0.7139	0.0565	0.2921	-0.059
Mof_H 	H 	0.7286	0.0954	0.3239	0.045
Mof_C 	C 	0.7562	0.0543	0.2375	0.053
Mof_H 	H 	0.8009	0.093	0.2314	0.016
Mof_H 	H 	0.8232	0.1652	0.9602	0.168
Mof_H 	H 	0.9186	0.0201	0.2448	0.196
Mof_O 	O 	0.8409	0.0423	0.1411	-0.417
Mof_O 	O 	0.2408	0.0528	0.9061	-0.471
Mof_C 	C 	0.27	0.9417	0.7968	0.076
Mof_H 	H 	0.246	0.903	0.8289	0.006
Mof_C 	C 	0.3122	0.9418	0.7403	-0.127
Mof_H 	H 	0.3175	0.903	0.7327	0.066
Mof_C 	C 	0.3426	0.0565	0.7079	-0.059
Mof_H 	H 	0.3668	0.0954	0.6761	0.045
Mof_C 	C 	0.2981	0.0543	0.7625	0.053
Mof_H 	H 	0.2921	0.093	0.7686	0.016
Mof_H 	H 	0.342	0.1652	0.0398	0.165
Mof_H 	H 	0.1015	0.0201	0.7552	0.199
Mof_O 	O 	0.2014	0.0423	0.8589	-0.419
Mof_O 	O 	0.812	0.7592	0.9061	-0.467
Mof_C 	C 	0.6717	0.73	0.7968	0.077
Mof_H 	H 	0.657	0.754	0.8289	0.007
Mof_C 	C 	0.6296	0.6878	0.7403	-0.125
Mof_H 	H 	0.5855	0.6825	0.7327	0.066
Mof_C 	C 	0.7139	0.6574	0.7079	-0.06
Mof_H 	H 	0.7286	0.6332	0.6761	0.045
Mof_C 	C 	0.7562	0.7019	0.7625	0.052
Mof_H 	H 	0.8009	0.7079	0.7686	0.016
Mof_H 	H 	0.8232	0.658	0.0398	0.165
Mof_H 	H 	0.9186	0.8985	0.7552	0.193
Mof_O 	O 	0.8409	0.7986	0.8589	-0.418
Mof_O 	O 	0.9472	0.188	0.9061	-0.473
Mof_C 	C 	0.0583	0.3283	0.7968	0.077
Mof_H 	H 	0.097	0.343	0.8289	0.007
Mof_C 	C 	0.0582	0.3704	0.7403	-0.127
Mof_H 	H 	0.097	0.4145	0.7327	0.067
Mof_C 	C 	0.9435	0.2861	0.7079	-0.063
Mof_H 	H 	0.9046	0.2714	0.6761	0.046
Mof_C 	C 	0.9457	0.2438	0.7625	0.049
Mof_H 	H 	0.907	0.1991	0.7686	0.017
Mof_H 	H 	0.8348	0.1768	0.0398	0.165
Mof_H 	H 	0.9799	0.0814	0.7552	0.187
Mof_O 	O 	0.9577	0.1591	0.8589	-0.421
Mof_O 	O 	0.7592	0.9472	0.9061	-0.47
Mof_C 	C 	0.73	0.0583	0.7968	0.077
Mof_H 	H 	0.754	0.097	0.8289	0.007
Mof_C 	C 	0.6878	0.0582	0.7403	-0.126
Mof_H 	H 	0.6825	0.097	0.7327	0.066
Mof_C 	C 	0.6574	0.9435	0.7079	-0.063
Mof_H 	H 	0.6332	0.9046	0.6761	0.045
Mof_C 	C 	0.7019	0.9457	0.7625	0.05
Mof_H 	H 	0.7079	0.907	0.7686	0.017
Mof_H 	H 	0.658	0.8348	0.0398	0.165
Mof_H 	H 	0.8985	0.9799	0.7552	0.191
Mof_O 	O 	0.7986	0.9577	0.8589	-0.42
Mof_O 	O 	0.188	0.2408	0.9061	-0.47
Mof_C 	C 	0.3283	0.27	0.7968	0.077
Mof_H 	H 	0.343	0.246	0.8289	0.007
Mof_C 	C 	0.3704	0.3122	0.7403	-0.126
Mof_H 	H 	0.4145	0.3175	0.7327	0.066
Mof_C 	C 	0.2861	0.3426	0.7079	-0.059
Mof_H 	H 	0.2714	0.3668	0.6761	0.045
Mof_C 	C 	0.2438	0.2981	0.7625	0.053
Mof_H 	H 	0.1991	0.2921	0.7686	0.016
Mof_H 	H 	0.1768	0.342	0.0398	0.165
Mof_H 	H 	0.0814	0.1015	0.7552	0.194
Mof_O 	O 	0.1591	0.2014	0.8589	-0.419
Mof_O 	O 	0.0528	0.812	0.9061	-0.47
Mof_C 	C 	0.9417	0.6717	0.7968	0.076
Mof_H 	H 	0.903	0.657	0.8289	0.007
Mof_C 	C 	0.9418	0.6296	0.7403	-0.126
Mof_H 	H 	0.903	0.5855	0.7327	0.066
Mof_C 	C 	0.0565	0.7139	0.7079	-0.06
Mof_H 	H 	0.0954	0.7286	0.6761	0.045
Mof_C 	C 	0.0543	0.7562	0.7625	0.052
Mof_H 	H 	0.093	0.8009	0.7686	0.016
Mof_H 	H 	0.1652	0.8232	0.0398	0.165
Mof_H 	H 	0.0201	0.9186	0.7552	0.194
Mof_O 	O 	0.0423	0.8409	0.8589	-0.417
Mof_O 	O 	0.9472	0.7592	0.9061	-0.47
Mof_C 	C 	0.0583	0.73	0.7968	0.077
Mof_H 	H 	0.097	0.754	0.8289	0.007
Mof_C 	C 	0.0582	0.6878	0.7403	-0.126
Mof_H 	H 	0.097	0.6825	0.7327	0.066
Mof_C 	C 	0.9435	0.6574	0.7079	-0.063
Mof_H 	H 	0.9046	0.6332	0.6761	0.045
Mof_C 	C 	0.9457	0.7019	0.7625	0.05
Mof_H 	H 	0.907	0.7079	0.7686	0.017
Mof_H 	H 	0.8348	0.658	0.0398	0.165
Mof_H 	H 	0.9799	0.8985	0.7552	0.191
Mof_O 	O 	0.9577	0.7986	0.8589	-0.42
Mof_O 	O 	0.2408	0.188	0.9061	-0.47
Mof_C 	C 	0.27	0.3283	0.7968	0.077
Mof_H 	H 	0.246	0.343	0.8289	0.007
Mof_C 	C 	0.3122	0.3704	0.7403	-0.126
Mof_H 	H 	0.3175	0.4145	0.7327	0.066
Mof_C 	C 	0.3426	0.2861	0.7079	-0.059
Mof_H 	H 	0.3668	0.2714	0.6761	0.045
Mof_C 	C 	0.2981	0.2438	0.7625	0.053
Mof_H 	H 	0.2921	0.1991	0.7686	0.016
Mof_H 	H 	0.342	0.1768	0.0398	0.165
Mof_H 	H 	0.1015	0.0814	0.7552	0.194
Mof_O 	O 	0.2014	0.1591	0.8589	-0.419
Mof_O 	O 	0.812	0.0528	0.9061	-0.47
Mof_C 	C 	0.6717	0.9417	0.7968	0.076
Mof_H 	H 	0.657	0.903	0.8289	0.007
Mof_C 	C 	0.6296	0.9418	0.7403	-0.126
Mof_H 	H 	0.5855	0.903	0.7327	0.066
Mof_C 	C 	0.7139	0.0565	0.7079	-0.06
Mof_H 	H 	0.7286	0.0954	0.6761	0.045
Mof_C 	C 	0.7562	0.0543	0.7625	0.052
Mof_H 	H 	0.8009	0.093	0.7686	0.016
Mof_H 	H 	0.8232	0.1652	0.0398	0.165
Mof_H 	H 	0.9186	0.0201	0.7552	0.194
Mof_O 	O 	0.8409	0.0423	0.8589	-0.417
Mof_O 	O 	0.0528	0.2408	0.9061	-0.471
Mof_C 	C 	0.9417	0.27	0.7968	0.076
Mof_H 	H 	0.903	0.246	0.8289	0.006
Mof_C 	C 	0.9418	0.3122	0.7403	-0.127
Mof_H 	H 	0.903	0.3175	0.7327	0.066
Mof_C 	C 	0.0565	0.3426	0.7079	-0.059
Mof_H 	H 	0.0954	0.3668	0.6761	0.045
Mof_C 	C 	0.0543	0.2981	0.7625	0.053
Mof_H 	H 	0.093	0.2921	0.7686	0.016
Mof_H 	H 	0.1652	0.342	0.0398	0.165
Mof_H 	H 	0.0201	0.1015	0.7552	0.199
Mof_O 	O 	0.0423	0.2014	0.8589	-0.419
Mof_O 	O 	0.7592	0.812	0.9061	-0.467
Mof_C 	C 	0.73	0.6717	0.7968	0.077
Mof_H 	H 	0.754	0.657	0.8289	0.007
Mof_C 	C 	0.6878	0.6296	0.7403	-0.125
Mof_H 	H 	0.6825	0.5855	0.7327	0.066
Mof_C 	C 	0.6574	0.7139	0.7079	-0.06
Mof_H 	H 	0.6332	0.7286	0.6761	0.045
Mof_C 	C 	0.7019	0.7562	0.7625	0.052
Mof_H 	H 	0.7079	0.8009	0.7686	0.016
Mof_H 	H 	0.658	0.8232	0.0398	0.165
Mof_H 	H 	0.8985	0.9186	0.7552	0.193
Mof_O 	O 	0.7986	0.8409	0.8589	-0.418
Mof_O 	O 	0.188	0.9472	0.9061	-0.473
Mof_C 	C 	0.3283	0.0583	0.7968	0.077
Mof_H 	H 	0.343	0.097	0.8289	0.007
Mof_C 	C 	0.3704	0.0582	0.7403	-0.127
Mof_H 	H 	0.4145	0.097	0.7327	0.067
Mof_C 	C 	0.2861	0.9435	0.7079	-0.063
Mof_H 	H 	0.2714	0.9046	0.6761	0.046
Mof_C 	C 	0.2438	0.9457	0.7625	0.049
Mof_H 	H 	0.1991	0.907	0.7686	0.017
Mof_H 	H 	0.1768	0.8348	0.0398	0.165
Mof_H 	H 	0.0814	0.9799	0.7552	0.187
Mof_O 	O 	0.1591	0.9577	0.8589	-0.421
Mof_O 	O 	0.7592	0.9472	0.0939	-0.477
Mof_C 	C 	0.73	0.0583	0.2032	0.076
Mof_H 	H 	0.754	0.097	0.1711	0.006
Mof_C 	C 	0.6878	0.0582	0.2597	-0.127
Mof_H 	H 	0.6825	0.097	0.2673	0.066
Mof_C 	C 	0.6574	0.9435	0.2921	-0.063
Mof_H 	H 	0.6332	0.9046	0.3239	0.045
Mof_C 	C 	0.7019	0.9457	0.2375	0.05
Mof_H 	H 	0.7079	0.907	0.2314	0.016
Mof_H 	H 	0.658	0.8348	0.9602	0.169
Mof_H 	H 	0.8985	0.9799	0.2448	0.189
Mof_O 	O 	0.7986	0.9577	0.1411	-0.421
Mof_O 	O 	0.188	0.2408	0.0939	-0.473
Mof_C 	C 	0.3283	0.27	0.2032	0.076
Mof_H 	H 	0.343	0.246	0.1711	0.006
Mof_C 	C 	0.3704	0.3122	0.2597	-0.127
Mof_H 	H 	0.4145	0.3175	0.2673	0.066
Mof_C 	C 	0.2861	0.3426	0.2921	-0.058
Mof_H 	H 	0.2714	0.3668	0.3239	0.045
Mof_C 	C 	0.2438	0.2981	0.2375	0.053
Mof_H 	H 	0.1991	0.2921	0.2314	0.016
Mof_H 	H 	0.1768	0.342	0.9602	0.167
Mof_H 	H 	0.0814	0.1015	0.2448	0.194
Mof_O 	O 	0.1591	0.2014	0.1411	-0.419
Mof_O 	O 	0.0528	0.812	0.0939	-0.474
Mof_C 	C 	0.9417	0.6717	0.2032	0.074
Mof_H 	H 	0.903	0.657	0.1711	0.006
Mof_C 	C 	0.9418	0.6296	0.2597	-0.129
Mof_H 	H 	0.903	0.5855	0.2673	0.065
Mof_C 	C 	0.0565	0.7139	0.2921	-0.059
Mof_H 	H 	0.0954	0.7286	0.3239	0.045
Mof_C 	C 	0.0543	0.7562	0.2375	0.053
Mof_H 	H 	0.093	0.8009	0.2314	0.016
Mof_H 	H 	0.1652	0.8232	0.9602	0.168
Mof_H 	H 	0.0201	0.9186	0.2448	0.196
Mof_O 	O 	0.0423	0.8409	0.1411	-0.417
Mof_O 	O 	0.2408	0.0528	0.0939	-0.475
Mof_C 	C 	0.27	0.9417	0.2032	0.074
Mof_H 	H 	0.246	0.903	0.1711	0.006
Mof_C 	C 	0.3122	0.9418	0.2597	-0.129
Mof_H 	H 	0.3175	0.903	0.2673	0.065
Mof_C 	C 	0.3426	0.0565	0.2921	-0.059
Mof_H 	H 	0.3668	0.0954	0.3239	0.045
Mof_C 	C 	0.2981	0.0543	0.2375	0.054
Mof_H 	H 	0.2921	0.093	0.2314	0.016
Mof_H 	H 	0.342	0.1652	0.9602	0.167
Mof_H 	H 	0.1015	0.0201	0.2448	0.201
Mof_O 	O 	0.2014	0.0423	0.1411	-0.419
Mof_O 	O 	0.812	0.7592	0.0939	-0.472
Mof_C 	C 	0.6717	0.73	0.2032	0.076
Mof_H 	H 	0.657	0.754	0.1711	0.006
Mof_C 	C 	0.6296	0.6878	0.2597	-0.126
Mof_H 	H 	0.5855	0.6825	0.2673	0.066
Mof_C 	C 	0.7139	0.6574	0.2921	-0.059
Mof_H 	H 	0.7286	0.6332	0.3239	0.045
Mof_C 	C 	0.7562	0.7019	0.2375	0.053
Mof_H 	H 	0.8009	0.7079	0.2314	0.016
Mof_H 	H 	0.8232	0.658	0.9602	0.169
Mof_H 	H 	0.9186	0.8985	0.2448	0.193
Mof_O 	O 	0.8409	0.7986	0.1411	-0.416
Mof_O 	O 	0.9472	0.188	0.0939	-0.479
Mof_C 	C 	0.0583	0.3283	0.2032	0.076
Mof_H 	H 	0.097	0.343	0.1711	0.006
Mof_C 	C 	0.0582	0.3704	0.2597	-0.128
Mof_H 	H 	0.097	0.4145	0.2673	0.066
Mof_C 	C 	0.9435	0.2861	0.2921	-0.063
Mof_H 	H 	0.9046	0.2714	0.3239	0.045
Mof_C 	C 	0.9457	0.2438	0.2375	0.05
Mof_H 	H 	0.907	0.1991	0.2314	0.017
Mof_H 	H 	0.8348	0.1768	0.9602	0.167
Mof_H 	H 	0.9799	0.0814	0.2448	0.185
Mof_O 	O 	0.9577	0.1591	0.1411	-0.423
Mof_Gd	Gd	0.05684	0.11369	0.10801	0.839
Mof_O 	O 	0.04265	0.0853	0.2236	-0.545
Mof_Gd	Gd	0.88631	0.94316	0.10801	0.825
Mof_O 	O 	0.9147	0.95735	0.2236	-0.543
Mof_Gd	Gd	0.05684	0.94316	0.10801	0.821
Mof_O 	O 	0.04265	0.95735	0.2236	-0.54
Mof_Gd	Gd	0.94316	0.88631	0.10801	0.825
Mof_O 	O 	0.95735	0.9147	0.2236	-0.543
Mof_Gd	Gd	0.11369	0.05684	0.10801	0.839
Mof_O 	O 	0.0853	0.04265	0.2236	-0.545
Mof_Gd	Gd	0.94315	0.05684	0.10801	0.821
Mof_O 	O 	0.95735	0.04265	0.2236	-0.54
Mof_Gd	Gd	0.11369	0.05684	0.89199	0.841
Mof_O 	O 	0.0853	0.04265	0.7764	-0.545
Mof_Gd	Gd	0.94315	0.88631	0.89199	0.838
Mof_O 	O 	0.95735	0.9147	0.7764	-0.545
Mof_Gd	Gd	0.94316	0.05684	0.89199	0.826
Mof_O 	O 	0.95735	0.04265	0.7764	-0.541
Mof_Gd	Gd	0.88631	0.94316	0.89199	0.838
Mof_O 	O 	0.9147	0.95735	0.7764	-0.545
Mof_Gd	Gd	0.05684	0.11369	0.89199	0.841
Mof_O 	O 	0.04265	0.0853	0.7764	-0.545
Mof_Gd	Gd	0.05684	0.94316	0.89199	0.826
Mof_O 	O 	0.04265	0.95735	0.7764	-0.541
Mof_Gd	Gd	0.10329	0.20659	-0	1.9
Mof_Gd	Gd	0.79341	0.89671	-0	1.891
Mof_Gd	Gd	0.10329	0.89671	-0	1.9
Mof_Gd	Gd	0.89671	0.79341	-0	1.891
Mof_Gd	Gd	0.20659	0.10329	-0	1.9
Mof_Gd	Gd	0.89671	0.10329	-0	1.9
Mof_N 	N 	3.7477e-17	0.4091	0.5	-0.158
Mof_N 	N 	0.5909	0.5909	0.5	-0.158
Mof_N 	N 	0.4091	-6.32656e-33	0.5	-0.158
Mof_N 	N 	6.59693e-17	0.5909	0.5	-0.158
Mof_N 	N 	0.4091	0.4091	0.5	-0.158
Mof_N 	N 	0.5909	-6.32656e-33	0.5	-0.158
Mof_N 	N 	-3.74687e-17	0.5	0.3903	-0.234
Mof_H 	H 	1.48887e-17	0.5	0.4385	0.15
Mof_N 	N 	0.5	0.5	0.3903	-0.234
Mof_H 	H 	0.5	0.5	0.4385	0.149
Mof_N 	N 	0.5	-6.32656e-33	0.3903	-0.234
Mof_H 	H 	0.5	0	0.4385	0.15
Mof_N 	N 	0.5	-1.26531e-32	0.6097	-0.234
Mof_H 	H 	0.5	0	0.5615	0.149
Mof_N 	N 	0.5	0.5	0.6097	-0.234
Mof_H 	H 	0.5	0.5	0.5615	0.149
Mof_N 	N 	5.54382e-17	0.5	0.6097	-0.234
Mof_H 	H 	6.00653e-17	0.5	0.5615	0.149
Mof_O 	O 	7.12308e-18	0.1219	-0	-0.937
Mof_O 	O 	0.8781	0.8781	-0	-0.943
Mof_O 	O 	0.1219	0	-0	-0.937
Mof_O 	O 	-0	0.8781	-0	-0.938
Mof_O 	O 	0.1219	0.1219	-0	-0.944
Mof_O 	O 	0.8781	0	-0	-0.938
Mof_O 	O 	-7.9082e-34	0	0.0759	-0.852
Mof_H 	H 	-3.9541e-34	-3.9541e-34	0.0282	0.173
Mof_O 	O 	-0	0	0.9241	-0.861
Mof_H 	H 	-0	0	0.9718	0.182
Mof_O 	O 	0.1425	0.3244	-0	-0.45
Mof_O 	O 	0.6756	0.8181	-0	-0.453
Mof_O 	O 	0.1819	0.8575	-0	-0.453
Mof_O 	O 	0.8575	0.6756	-0	-0.454
Mof_O 	O 	0.3244	0.1819	-0	-0.451
Mof_O 	O 	0.8181	0.1425	-0	-0.451
Mof_O 	O 	0.3244	0.1425	-0	-0.45
Mof_O 	O 	0.8181	0.6756	-0	-0.453
Mof_O 	O 	0.8575	0.1819	-0	-0.453
Mof_O 	O 	0.6756	0.8575	-0	-0.454
Mof_O 	O 	0.1819	0.3244	-0	-0.451
Mof_O 	O 	0.1425	0.8181	-0	-0.451
Mof_C 	C 	-1.24992e-17	0.2179	0.1302	0.952
Mof_C 	C 	-4.69531e-17	0.2644	0.1923	-0.297
Mof_C 	C 	2.77335e-17	0.3484	0.3047	0.133
Mof_C 	C 	-3.50495e-17	0.3944	0.3651	-0.146
Mof_C 	C 	1.47639e-17	0.376	0.4398	0.127
Mof_C 	C 	1.22583e-17	0.3181	0.4659	-0.089
Mof_H 	H 	1.51575e-17	0.2847	0.4357	0.058
Mof_C 	C 	-3.28703e-17	0.4528	0.3424	0.139
Mof_C 	C 	2.86996e-18	0.4712	0.2669	-0.096
Mof_H 	H 	6.90195e-18	0.447	0.2249	0.067
Mof_C 	C 	0.7821	0.7821	0.1302	0.939
Mof_C 	C 	0.7356	0.7356	0.1923	-0.301
Mof_C 	C 	0.6516	0.6516	0.3047	0.125
Mof_C 	C 	0.6056	0.6056	0.3651	-0.144
Mof_C 	C 	0.624	0.624	0.4398	0.126
Mof_C 	C 	0.6819	0.6819	0.4659	-0.088
Mof_H 	H 	0.7153	0.7153	0.4357	0.057
Mof_C 	C 	0.5472	0.5472	0.3424	0.137
Mof_C 	C 	0.5288	0.5288	0.2669	-0.096
Mof_H 	H 	0.553	0.553	0.2249	0.065
Mof_C 	C 	0.2179	-1.58164e-33	0.1302	0.952
Mof_C 	C 	0.2644	0	0.1923	-0.297
Mof_C 	C 	0.3484	0	0.3047	0.133
Mof_C 	C 	0.3944	0	0.3651	-0.146
Mof_C 	C 	0.376	-6.32656e-33	0.4398	0.127
Mof_C 	C 	0.3181	-6.32656e-33	0.4659	-0.089
Mof_H 	H 	0.2847	-6.32656e-33	0.4357	0.058
Mof_C 	C 	0.4528	0	0.3424	0.139
Mof_C 	C 	0.4712	0	0.2669	-0.096
Mof_H 	H 	0.447	-3.16328e-33	0.2249	0.067
Mof_C 	C 	4.44854e-17	0.7821	0.1302	0.948
Mof_C 	C 	-1.84608e-17	0.7356	0.1923	-0.297
Mof_C 	C 	-2.92511e-17	0.6516	0.3047	0.131
Mof_C 	C 	2.19351e-17	0.6056	0.3651	-0.145
Mof_C 	C 	1.47639e-17	0.624	0.4398	0.127
Mof_C 	C 	-4.47263e-17	0.6819	0.4659	-0.089
Mof_H 	H 	7.21421e-17	0.7153	0.4357	0.058
Mof_C 	C 	2.41143e-17	0.5472	0.3424	0.139
Mof_C 	C 	-8.2607e-17	0.5288	0.2669	-0.095
Mof_H 	H 	-2.15904e-17	0.553	0.2249	0.066
Mof_C 	C 	0.2179	0.2179	0.1302	0.942
Mof_C 	C 	0.2644	0.2644	0.1923	-0.302
Mof_C 	C 	0.3484	0.3484	0.3047	0.125
Mof_C 	C 	0.3944	0.3944	0.3651	-0.144
Mof_C 	C 	0.376	0.376	0.4398	0.126
Mof_C 	C 	0.3181	0.3181	0.4659	-0.088
Mof_H 	H 	0.2847	0.2847	0.4357	0.057
Mof_C 	C 	0.4528	0.4528	0.3424	0.137
Mof_C 	C 	0.4712	0.4712	0.2669	-0.096
Mof_H 	H 	0.447	0.447	0.2249	0.065
Mof_C 	C 	0.7821	-1.58164e-33	0.1302	0.948
Mof_C 	C 	0.7356	0	0.1923	-0.297
Mof_C 	C 	0.6516	0	0.3047	0.131
Mof_C 	C 	0.6056	0	0.3651	-0.145
Mof_C 	C 	0.624	-6.32656e-33	0.4398	0.127
Mof_C 	C 	0.6819	-6.32656e-33	0.4659	-0.089
Mof_H 	H 	0.7153	-6.32656e-33	0.4357	0.058
Mof_C 	C 	0.5472	0	0.3424	0.139
Mof_C 	C 	0.5288	0	0.2669	-0.095
Mof_H 	H 	0.553	-3.16328e-33	0.2249	0.066
Mof_C 	C 	0.2179	-1.26531e-32	0.8698	0.946
Mof_C 	C 	0.2644	0	0.8077	-0.297
Mof_C 	C 	0.3484	-1.26531e-32	0.6953	0.131
Mof_C 	C 	0.3944	0	0.6349	-0.145
Mof_C 	C 	0.376	-6.32656e-33	0.5602	0.127
Mof_C 	C 	0.3181	-6.32656e-33	0.5341	-0.088
Mof_H 	H 	0.2847	0	0.5643	0.058
Mof_C 	C 	0.4528	-1.26531e-32	0.6576	0.139
Mof_C 	C 	0.4712	0	0.7331	-0.095
Mof_H 	H 	0.447	0	0.7751	0.067
Mof_C 	C 	0.7821	0.7821	0.8698	0.938
Mof_C 	C 	0.7356	0.7356	0.8077	-0.3
Mof_C 	C 	0.6516	0.6516	0.6953	0.125
Mof_C 	C 	0.6056	0.6056	0.6349	-0.144
Mof_C 	C 	0.624	0.624	0.5602	0.126
Mof_C 	C 	0.6819	0.6819	0.5341	-0.089
Mof_H 	H 	0.7153	0.7153	0.5643	0.057
Mof_C 	C 	0.5472	0.5472	0.6576	0.138
Mof_C 	C 	0.5288	0.5288	0.7331	-0.095
Mof_H 	H 	0.553	0.553	0.7751	0.067
Mof_C 	C 	1.9763e-18	0.2179	0.8698	0.946
Mof_C 	C 	7.93788e-18	0.2644	0.8077	-0.297
Mof_C 	C 	-9.76405e-18	0.3484	0.6953	0.131
Mof_C 	C 	-3.2458e-17	0.3944	0.6349	-0.145
Mof_C 	C 	3.20553e-18	0.376	0.5602	0.127
Mof_C 	C 	5.71112e-18	0.3181	0.5341	-0.088
Mof_H 	H 	2.81193e-18	0.2847	0.5643	0.058
Mof_C 	C 	2.23475e-17	0.4528	0.6576	0.139
Mof_C 	C 	1.50995e-17	0.4712	0.7331	-0.095
Mof_H 	H 	3.95598e-17	0.447	0.7751	0.067
Mof_C 	C 	0.7821	-1.26531e-32	0.8698	0.942
Mof_C 	C 	0.7356	0	0.8077	-0.297
Mof_C 	C 	0.6516	-1.26531e-32	0.6953	0.13
Mof_C 	C 	0.6056	0	0.6349	-0.145
Mof_C 	C 	0.624	-6.32656e-33	0.5602	0.127
Mof_C 	C 	0.6819	-6.32656e-33	0.5341	-0.088
Mof_H 	H 	0.7153	0	0.5643	0.057
Mof_C 	C 	0.5472	-1.26531e-32	0.6576	0.139
Mof_C 	C 	0.5288	0	0.7331	-0.095
Mof_H 	H 	0.553	0	0.7751	0.067
Mof_C 	C 	0.2179	0.2179	0.8698	0.941
Mof_C 	C 	0.2644	0.2644	0.8077	-0.301
Mof_C 	C 	0.3484	0.3484	0.6953	0.125
Mof_C 	C 	0.3944	0.3944	0.6349	-0.144
Mof_C 	C 	0.376	0.376	0.5602	0.126
Mof_C 	C 	0.3181	0.3181	0.5341	-0.088
Mof_H 	H 	0.2847	0.2847	0.5643	0.057
Mof_C 	C 	0.4528	0.4528	0.6576	0.138
Mof_C 	C 	0.4712	0.4712	0.7331	-0.095
Mof_H 	H 	0.447	0.447	0.7751	0.067
Mof_C 	C 	8.74532e-17	0.7821	0.8698	0.942
Mof_C 	C 	-7.7539e-17	0.7356	0.8077	-0.297
Mof_C 	C 	4.72206e-17	0.6516	0.6953	0.13
Mof_C 	C 	-3.96566e-18	0.6056	0.6349	-0.145
Mof_C 	C 	6.01901e-17	0.624	0.5602	0.127
Mof_C 	C 	5.71112e-18	0.6819	0.5341	-0.088
Mof_H 	H 	1.16781e-16	0.7153	0.5643	0.057
Mof_C 	C 	5.08398e-17	0.5472	0.6576	0.139
Mof_C 	C 	-1.33928e-17	0.5288	0.7331	-0.095
Mof_H 	H 	3.95598e-17	0.553	0.7751	0.067
_end
