data_functionalizedCrystal
_audit_creation_method	'EQeq! by Chris Wilmer'
_symmetry_space_group_name_H-M	'P1'
_symmetry_Int_Tables_number	1
_symmetry_cell_setting	triclinic
loop_
_symmetry_equiv_pos_as_xyz
  x,y,z
_cell_length_a	9.366
_cell_length_b	9.882
_cell_length_c	19.183
_cell_angle_alpha	85.406
_cell_angle_beta	85.029
_cell_angle_gamma	114.485
loop_
_atom_site_label
_atom_site_type_symbol
_atom_site_fract_x
_atom_site_fract_y
_atom_site_fract_z
_atom_site_charge
Mof_Zn	Zn	0.746	0.4593	0.66678	1.21
Mof_Zn	Zn	0.3608	0.0603	0.81849	1.24
Mof_Zn	Zn	0.1117	0.1255	0.56979	1.232
Mof_Zn	Zn	0.667	0.6649	0.94415	1.235
Mof_Zn	Zn	0.7914	0.8862	0.73017	1.235
Mof_P 	P 	0.3902	0.2411	0.6745	0.561
Mof_P 	P 	0.4327	0.3509	0.8988	0.52
Mof_P 	P 	0.001	0.816	0.8407	0.609
Mof_P 	P 	0.8501	0.1915	0.6537	0.553
Mof_P 	P 	0.4794	0.7893	0.8493	0.618
Mof_P 	P 	0.858	0.7784	0.5873	0.52
Mof_O 	O 	0.864	0.3398	0.6744	-0.445
Mof_O 	O 	0.8885	0.6358	0.603	-0.416
Mof_O 	O 	0.538	0.376	0.6382	-0.442
Mof_O 	O 	0.133	0.97	0.8417	-0.439
Mof_O 	O 	0.4419	0.141	0.7211	-0.499
Mof_O 	O 	0.4583	0.2106	0.8822	-0.41
Mof_O 	O 	0.421	0.91	0.8563	-0.438
Mof_O 	O 	0.292	0.162	0.6215	-0.431
Mof_O 	O 	0.958	0.21	0.5879	-0.429
Mof_O 	O 	0.7705	0.7609	0.5221	-0.4
Mof_O 	O 	0.0192	0.9121	0.5739	-0.476
Mof_O 	O 	0.5811	0.4589	0.9256	-0.474
Mof_O 	O 	0.292	0.304	0.9576	-0.406
Mof_O 	O 	0.543	0.769	0.9166	-0.458
Mof_O 	O 	0.89	0.773	0.907	-0.445
Mof_O 	O 	0.7466	0.784	0.6488	-0.474
Mof_O 	O 	0.875	0.1	0.715	-0.466
Mof_O 	O 	0.916	0.798	0.7767	-0.493
Mof_O 	O 	0.588	0.815	0.7857	-0.499
Mof_O 	O 	0.286	0.298	0.722	-0.372
Mof_O 	O 	0.398	0.419	0.8321	-0.339
Mof_O 	O 	0.066	0.693	0.838	-0.361
Mof_O 	O 	0.675	0.104	0.6342	-0.354
Mof_O 	O 	0.328	0.643	0.8433	-0.376
Mof_H 	H 	0.329	0.345	0.7644	0.193
Mof_H 	H 	0.163	0.675	0.84	0.224
Mof_H 	H 	0.592	0.117	0.6653	0.18
Mof_H 	H 	0.355	0.556	0.8389	0.213
Mof_Zn	Zn	0.254	0.5407	0.33322	1.209
Mof_Zn	Zn	0.6392	0.9397	0.18151	1.239
Mof_Zn	Zn	0.8883	0.8745	0.43021	1.232
Mof_Zn	Zn	0.333	0.3351	0.05585	1.235
Mof_Zn	Zn	0.2086	0.1138	0.26983	1.235
Mof_P 	P 	0.6098	0.7589	0.3255	0.561
Mof_P 	P 	0.5673	0.6491	0.1012	0.52
Mof_P 	P 	0.999	0.184	0.1593	0.609
Mof_P 	P 	0.1499	0.8085	0.3463	0.553
Mof_P 	P 	0.5206	0.2107	0.1507	0.618
Mof_P 	P 	0.142	0.2216	0.4127	0.52
Mof_O 	O 	0.136	0.6602	0.3256	-0.445
Mof_O 	O 	0.1115	0.3642	0.397	-0.416
Mof_O 	O 	0.462	0.624	0.3618	-0.442
Mof_O 	O 	0.867	0.03	0.1583	-0.439
Mof_O 	O 	0.5581	0.859	0.2789	-0.499
Mof_O 	O 	0.5417	0.7894	0.1178	-0.41
Mof_O 	O 	0.579	0.09	0.1437	-0.438
Mof_O 	O 	0.708	0.838	0.3785	-0.431
Mof_O 	O 	0.042	0.79	0.4121	-0.429
Mof_O 	O 	0.2295	0.2391	0.4779	-0.4
Mof_O 	O 	0.9808	0.0879	0.4261	-0.476
Mof_O 	O 	0.4189	0.5411	0.0744	-0.474
Mof_O 	O 	0.708	0.696	0.0424	-0.406
Mof_O 	O 	0.457	0.231	0.0834	-0.458
Mof_O 	O 	0.11	0.227	0.093	-0.445
Mof_O 	O 	0.2534	0.216	0.3512	-0.474
Mof_O 	O 	0.125	0.9	0.285	-0.466
Mof_O 	O 	0.084	0.202	0.2233	-0.493
Mof_O 	O 	0.412	0.185	0.2143	-0.499
Mof_O 	O 	0.714	0.702	0.278	-0.372
Mof_O 	O 	0.602	0.581	0.1679	-0.339
Mof_O 	O 	0.934	0.307	0.162	-0.361
Mof_O 	O 	0.325	0.896	0.3658	-0.354
Mof_O 	O 	0.672	0.357	0.1567	-0.376
Mof_H 	H 	0.671	0.655	0.2356	0.193
Mof_H 	H 	0.837	0.325	0.16	0.224
Mof_H 	H 	0.408	0.883	0.3347	0.18
Mof_H 	H 	0.645	0.444	0.1611	0.213
_end
