data_functionalizedCrystal
_audit_creation_method	'EQeq! by Chris Wilmer'
_symmetry_space_group_name_H-M	'P1'
_symmetry_Int_Tables_number	1
_symmetry_cell_setting	triclinic
loop_
_symmetry_equiv_pos_as_xyz
  x,y,z
_cell_length_a	22.627
_cell_length_b	32.868
_cell_length_c	32.868
_cell_angle_alpha	90
_cell_angle_beta	90
_cell_angle_gamma	90
loop_
_atom_site_label
_atom_site_type_symbol
_atom_site_fract_x
_atom_site_fract_y
_atom_site_fract_z
_atom_site_charge
Mof_Cu	Cu	0.75019	0.82986	-0	0.888
Mof_Cu	Cu	0.83095	0.7727	-0	0.881
Mof_Cu	Cu	0.75019	0.17014	-0	0.887
Mof_Cu	Cu	0.83095	0.2273	-0	0.881
Mof_Cu	Cu	0.75019	0	0.82986	0.888
Mof_Cu	Cu	0.83095	-8.26165e-33	0.7727	0.881
Mof_Cu	Cu	0.75019	-2.06541e-33	0.17014	0.887
Mof_Cu	Cu	0.83095	0	0.2273	0.881
Mof_Cu	Cu	0.24981	0.17014	-0	0.887
Mof_Cu	Cu	0.16905	0.2273	-0	0.882
Mof_Cu	Cu	0.24981	0.82986	-0	0.888
Mof_Cu	Cu	0.16905	0.7727	-0	0.883
Mof_Cu	Cu	0.24981	0	0.82986	0.889
Mof_Cu	Cu	0.16905	-8.26165e-33	0.7727	0.883
Mof_Cu	Cu	0.24981	-2.06541e-33	0.17014	0.888
Mof_Cu	Cu	0.16905	0	0.2273	0.883
Mof_Cu	Cu	0.5	0.77022	0.77022	0.893
Mof_Cu	Cu	0.5	0.8268	0.8268	0.909
Mof_Cu	Cu	0.5	0.22978	0.22978	0.894
Mof_Cu	Cu	0.5	0.1732	0.1732	0.906
Mof_Cu	Cu	0.5	0.22978	0.77022	0.894
Mof_Cu	Cu	0.5	0.1732	0.8268	0.907
Mof_Cu	Cu	0.5	0.77022	0.22978	0.894
Mof_Cu	Cu	0.5	0.8268	0.1732	0.907
Mof_Cu	Cu	0.83192	0.66151	0.66151	0.901
Mof_Cu	Cu	0.75205	0.62071	0.62071	0.906
Mof_Cu	Cu	0.83192	0.33849	0.33849	0.901
Mof_Cu	Cu	0.75205	0.37929	0.37929	0.906
Mof_Cu	Cu	0.83192	0.33849	0.66151	0.901
Mof_Cu	Cu	0.75205	0.37929	0.62071	0.906
Mof_Cu	Cu	0.83192	0.66151	0.33849	0.901
Mof_Cu	Cu	0.75205	0.62071	0.37929	0.906
Mof_Cu	Cu	0.16808	0.33849	0.66151	0.901
Mof_Cu	Cu	0.24795	0.37929	0.62071	0.906
Mof_Cu	Cu	0.16808	0.66151	0.33849	0.901
Mof_Cu	Cu	0.24795	0.62071	0.37929	0.906
Mof_Cu	Cu	0.16808	0.66151	0.66151	0.902
Mof_Cu	Cu	0.24795	0.62071	0.62071	0.906
Mof_Cu	Cu	0.16808	0.33849	0.33849	0.901
Mof_Cu	Cu	0.24795	0.37929	0.37929	0.906
Mof_Cu	Cu	0.5	0.5	0.74069	0.899
Mof_Cu	Cu	0.5	0.5	0.82048	0.907
Mof_Cu	Cu	0.5	0.5	0.25931	0.899
Mof_Cu	Cu	0.5	0.5	0.17952	0.905
Mof_Cu	Cu	0.5	0.25931	0.5	0.899
Mof_Cu	Cu	0.5	0.17952	0.5	0.905
Mof_Cu	Cu	0.5	0.74069	0.5	0.899
Mof_Cu	Cu	0.5	0.82048	0.5	0.907
Mof_H 	H 	0.6416	0.7869	0.902	0.078
Mof_H 	H 	0.6321	0.688	0.8277	0.095
Mof_H 	H 	0.7545	0.693	0.9145	0.086
Mof_H 	H 	0.6413	0.583	0.7199	0.076
Mof_H 	H 	0.629	0.5908	0.842	0.094
Mof_H 	H 	0.7551	0.6527	0.781	0.088
Mof_H 	H 	0.7043	0.6222	0.8807	0.124
Mof_H 	H 	0.7613	0.6395	0.8601	0.121
Mof_H 	H 	0.941	0.8139	0.0986	0.084
Mof_H 	H 	0.9347	0.5619	0.7085	0.084
Mof_H 	H 	0.6416	0.2131	0.098	0.07
Mof_H 	H 	0.6321	0.312	0.1723	0.092
Mof_H 	H 	0.7545	0.307	0.0855	0.076
Mof_H 	H 	0.6413	0.417	0.2801	0.075
Mof_H 	H 	0.629	0.4092	0.158	0.089
Mof_H 	H 	0.7551	0.3473	0.219	0.086
Mof_H 	H 	0.7043	0.3778	0.1193	0.114
Mof_H 	H 	0.7613	0.3605	0.1399	0.114
Mof_H 	H 	0.941	0.1861	0.9014	0.089
Mof_H 	H 	0.9347	0.4381	0.2915	0.083
Mof_H 	H 	0.6416	0.098	0.7869	0.072
Mof_H 	H 	0.6321	0.1723	0.688	0.092
Mof_H 	H 	0.7545	0.0855	0.693	0.077
Mof_H 	H 	0.6413	0.2801	0.583	0.075
Mof_H 	H 	0.629	0.158	0.5908	0.089
Mof_H 	H 	0.7551	0.219	0.6527	0.086
Mof_H 	H 	0.7043	0.1193	0.6222	0.114
Mof_H 	H 	0.7613	0.1399	0.6395	0.114
Mof_H 	H 	0.941	0.9014	0.8139	0.09
Mof_H 	H 	0.9347	0.2915	0.5619	0.083
Mof_H 	H 	0.6416	0.902	0.2131	0.077
Mof_H 	H 	0.6321	0.8277	0.312	0.094
Mof_H 	H 	0.7545	0.9145	0.307	0.086
Mof_H 	H 	0.6413	0.7199	0.417	0.076
Mof_H 	H 	0.629	0.842	0.4092	0.094
Mof_H 	H 	0.7551	0.781	0.3473	0.088
Mof_H 	H 	0.7043	0.8807	0.3778	0.124
Mof_H 	H 	0.7613	0.8601	0.3605	0.121
Mof_H 	H 	0.941	0.0986	0.1861	0.083
Mof_H 	H 	0.9347	0.7085	0.4381	0.084
Mof_H 	H 	0.3584	0.2131	0.902	0.077
Mof_H 	H 	0.3679	0.312	0.8277	0.095
Mof_H 	H 	0.2455	0.307	0.9145	0.086
Mof_H 	H 	0.3587	0.417	0.7199	0.076
Mof_H 	H 	0.371	0.4092	0.842	0.094
Mof_H 	H 	0.2449	0.3473	0.781	0.088
Mof_H 	H 	0.2957	0.3778	0.8807	0.125
Mof_H 	H 	0.2387	0.3605	0.8601	0.122
Mof_H 	H 	0.059	0.1861	0.0986	0.086
Mof_H 	H 	0.0653	0.4381	0.7085	0.087
Mof_H 	H 	0.3584	0.7869	0.098	0.072
Mof_H 	H 	0.3679	0.688	0.1723	0.092
Mof_H 	H 	0.2455	0.693	0.0855	0.077
Mof_H 	H 	0.3587	0.583	0.2801	0.075
Mof_H 	H 	0.371	0.5908	0.158	0.089
Mof_H 	H 	0.2449	0.6527	0.219	0.086
Mof_H 	H 	0.2957	0.6222	0.1193	0.115
Mof_H 	H 	0.2387	0.6395	0.1399	0.115
Mof_H 	H 	0.059	0.8139	0.9014	0.093
Mof_H 	H 	0.0653	0.5619	0.2915	0.086
Mof_H 	H 	0.3584	0.902	0.7869	0.078
Mof_H 	H 	0.3679	0.8277	0.688	0.095
Mof_H 	H 	0.2455	0.9145	0.693	0.087
Mof_H 	H 	0.3587	0.7199	0.583	0.076
Mof_H 	H 	0.371	0.842	0.5908	0.094
Mof_H 	H 	0.2449	0.781	0.6527	0.088
Mof_H 	H 	0.2957	0.8807	0.6222	0.125
Mof_H 	H 	0.2387	0.8601	0.6395	0.122
Mof_H 	H 	0.059	0.0986	0.8139	0.087
Mof_H 	H 	0.0653	0.7085	0.5619	0.087
Mof_H 	H 	0.3584	0.098	0.2131	0.07
Mof_H 	H 	0.3679	0.1723	0.312	0.092
Mof_H 	H 	0.2455	0.0855	0.307	0.077
Mof_H 	H 	0.3587	0.2801	0.417	0.075
Mof_H 	H 	0.371	0.158	0.4092	0.089
Mof_H 	H 	0.2449	0.219	0.3473	0.086
Mof_H 	H 	0.2957	0.1193	0.3778	0.115
Mof_H 	H 	0.2387	0.1399	0.3605	0.115
Mof_H 	H 	0.059	0.9014	0.1861	0.092
Mof_H 	H 	0.0653	0.2915	0.4381	0.086
Mof_H 	H 	0.3584	0.2131	0.098	0.07
Mof_H 	H 	0.3679	0.312	0.1723	0.092
Mof_H 	H 	0.2455	0.307	0.0855	0.077
Mof_H 	H 	0.3587	0.417	0.2801	0.075
Mof_H 	H 	0.371	0.4092	0.158	0.089
Mof_H 	H 	0.2449	0.3473	0.219	0.086
Mof_H 	H 	0.2957	0.3778	0.1193	0.115
Mof_H 	H 	0.2387	0.3605	0.1399	0.115
Mof_H 	H 	0.059	0.1861	0.9014	0.092
Mof_H 	H 	0.0653	0.4381	0.2915	0.086
Mof_H 	H 	0.3584	0.7869	0.902	0.078
Mof_H 	H 	0.3679	0.688	0.8277	0.095
Mof_H 	H 	0.2455	0.693	0.9145	0.087
Mof_H 	H 	0.3587	0.583	0.7199	0.076
Mof_H 	H 	0.371	0.5908	0.842	0.094
Mof_H 	H 	0.2449	0.6527	0.781	0.088
Mof_H 	H 	0.2957	0.6222	0.8807	0.125
Mof_H 	H 	0.2387	0.6395	0.8601	0.122
Mof_H 	H 	0.059	0.8139	0.0986	0.087
Mof_H 	H 	0.0653	0.5619	0.7085	0.087
Mof_H 	H 	0.3584	0.902	0.2131	0.077
Mof_H 	H 	0.3679	0.8277	0.312	0.095
Mof_H 	H 	0.2455	0.9145	0.307	0.086
Mof_H 	H 	0.3587	0.7199	0.417	0.076
Mof_H 	H 	0.371	0.842	0.4092	0.094
Mof_H 	H 	0.2449	0.781	0.3473	0.088
Mof_H 	H 	0.2957	0.8807	0.3778	0.125
Mof_H 	H 	0.2387	0.8601	0.3605	0.122
Mof_H 	H 	0.059	0.0986	0.1861	0.086
Mof_H 	H 	0.0653	0.7085	0.4381	0.087
Mof_H 	H 	0.3584	0.098	0.7869	0.072
Mof_H 	H 	0.3679	0.1723	0.688	0.092
Mof_H 	H 	0.2455	0.0855	0.693	0.077
Mof_H 	H 	0.3587	0.2801	0.583	0.075
Mof_H 	H 	0.371	0.158	0.5908	0.089
Mof_H 	H 	0.2449	0.219	0.6527	0.086
Mof_H 	H 	0.2957	0.1193	0.6222	0.115
Mof_H 	H 	0.2387	0.1399	0.6395	0.115
Mof_H 	H 	0.059	0.9014	0.8139	0.093
Mof_H 	H 	0.0653	0.2915	0.5619	0.086
Mof_H 	H 	0.6416	0.7869	0.098	0.072
Mof_H 	H 	0.6321	0.688	0.1723	0.092
Mof_H 	H 	0.7545	0.693	0.0855	0.077
Mof_H 	H 	0.6413	0.583	0.2801	0.075
Mof_H 	H 	0.629	0.5908	0.158	0.089
Mof_H 	H 	0.7551	0.6527	0.219	0.086
Mof_H 	H 	0.7043	0.6222	0.1193	0.114
Mof_H 	H 	0.7613	0.6395	0.1399	0.114
Mof_H 	H 	0.941	0.8139	0.9014	0.09
Mof_H 	H 	0.9347	0.5619	0.2915	0.083
Mof_H 	H 	0.6416	0.2131	0.902	0.077
Mof_H 	H 	0.6321	0.312	0.8277	0.094
Mof_H 	H 	0.7545	0.307	0.9145	0.086
Mof_H 	H 	0.6413	0.417	0.7199	0.076
Mof_H 	H 	0.629	0.4092	0.842	0.094
Mof_H 	H 	0.7551	0.3473	0.781	0.088
Mof_H 	H 	0.7043	0.3778	0.8807	0.124
Mof_H 	H 	0.7613	0.3605	0.8601	0.121
Mof_H 	H 	0.941	0.1861	0.0986	0.083
Mof_H 	H 	0.9347	0.4381	0.7085	0.084
Mof_H 	H 	0.6416	0.098	0.2131	0.07
Mof_H 	H 	0.6321	0.1723	0.312	0.092
Mof_H 	H 	0.7545	0.0855	0.307	0.076
Mof_H 	H 	0.6413	0.2801	0.417	0.075
Mof_H 	H 	0.629	0.158	0.4092	0.089
Mof_H 	H 	0.7551	0.219	0.3473	0.086
Mof_H 	H 	0.7043	0.1193	0.3778	0.114
Mof_H 	H 	0.7613	0.1399	0.3605	0.114
Mof_H 	H 	0.941	0.9014	0.1861	0.089
Mof_H 	H 	0.9347	0.2915	0.4381	0.083
Mof_H 	H 	0.6416	0.902	0.7869	0.078
Mof_H 	H 	0.6321	0.8277	0.688	0.095
Mof_H 	H 	0.7545	0.9145	0.693	0.086
Mof_H 	H 	0.6413	0.7199	0.583	0.076
Mof_H 	H 	0.629	0.842	0.5908	0.094
Mof_H 	H 	0.7551	0.781	0.6527	0.088
Mof_H 	H 	0.7043	0.8807	0.6222	0.124
Mof_H 	H 	0.7613	0.8601	0.6395	0.121
Mof_H 	H 	0.941	0.0986	0.8139	0.084
Mof_H 	H 	0.9347	0.7085	0.5619	0.084
Mof_H 	H 	0.8176	0.9048	0.0952	0.08
Mof_H 	H 	0.8176	0.0952	0.9048	0.08
Mof_H 	H 	0.8176	0.9048	0.9048	0.087
Mof_H 	H 	0.8176	0.0952	0.0952	0.074
Mof_H 	H 	0.1824	0.0952	0.0952	0.074
Mof_H 	H 	0.1824	0.9048	0.9048	0.088
Mof_H 	H 	0.1824	0.0952	0.9048	0.081
Mof_H 	H 	0.1824	0.9048	0.0952	0.081
Mof_H 	H 	1.5521e-32	0.8386	0.1952	0.12
Mof_H 	H 	-1.24189e-32	0.5239	0.7536	0.118
Mof_H 	H 	1.26449e-32	0.1614	0.8048	0.119
Mof_H 	H 	1.34199e-33	0.4761	0.2464	0.115
Mof_H 	H 	2.10906e-32	0.8048	0.8386	0.121
Mof_H 	H 	-5.40829e-33	0.2464	0.5239	0.115
Mof_H 	H 	8.79046e-34	0.1952	0.1614	0.117
Mof_H 	H 	-1.39303e-32	0.7536	0.4761	0.119
Mof_H 	H 	1.06313e-33	0.1614	0.1952	0.117
Mof_H 	H 	-1.24189e-32	0.4761	0.7536	0.119
Mof_H 	H 	2.09066e-32	0.8386	0.8048	0.121
Mof_H 	H 	1.34199e-33	0.5239	0.2464	0.115
Mof_H 	H 	2.10906e-32	0.1952	0.8386	0.12
Mof_H 	H 	-1.36699e-32	0.7536	0.5239	0.118
Mof_H 	H 	1.53369e-32	0.8048	0.1614	0.119
Mof_H 	H 	-5.66863e-33	0.2464	0.4761	0.115
Mof_H 	H 	0.8156	0.5	0.6361	0.078
Mof_H 	H 	0.8156	0.5	0.3639	0.078
Mof_H 	H 	0.8156	0.3639	0.5	0.078
Mof_H 	H 	0.8156	0.6361	0.5	0.078
Mof_H 	H 	0.1844	0.5	0.6361	0.079
Mof_H 	H 	0.1844	0.5	0.3639	0.079
Mof_H 	H 	0.1844	0.6361	0.5	0.079
Mof_H 	H 	0.1844	0.3639	0.5	0.079
Mof_C 	C 	0.7041	0.7429	0.9122	-0.023
Mof_C 	C 	0.6559	0.7619	0.8932	-0.034
Mof_C 	C 	0.6295	0.7407	0.8594	-0.016
Mof_C 	C 	0.6506	0.7019	0.8488	-0.116
Mof_C 	C 	0.6975	0.6834	0.8681	0.131
Mof_C 	C 	0.7233	0.7049	0.9005	-0.111
Mof_C 	C 	0.7032	0.6178	0.744	-0.025
Mof_C 	C 	0.6568	0.5931	0.7441	-0.041
Mof_C 	C 	0.6317	0.5825	0.7815	-0.001
Mof_C 	C 	0.6495	0.5972	0.8184	-0.131
Mof_C 	C 	0.6997	0.6224	0.8197	0.139
Mof_C 	C 	0.7243	0.634	0.7814	-0.117
Mof_C 	C 	0.7185	0.6398	0.8591	-0.314
Mof_C 	C 	0.7334	0.7657	0.9462	0.351
Mof_C 	C 	0.5807	0.7617	0.8361	0.32
Mof_C 	C 	0.7385	0.6279	0.7064	0.345
Mof_C 	C 	0.5786	0.5525	0.7812	0.308
Mof_C 	C 	0.8429	0.8371	0.0552	0.338
Mof_C 	C 	0.8722	0.8555	0.0943	-0.01
Mof_C 	C 	0.9233	0.8362	0.1111	-0.119
Mof_C 	C 	0.8429	0.5764	0.6553	0.328
Mof_C 	C 	0.8739	0.5368	0.6693	-0.012
Mof_C 	C 	0.9208	0.5375	0.6978	-0.113
Mof_C 	C 	0.7041	0.2571	0.0878	-0.036
Mof_C 	C 	0.6559	0.2381	0.1068	-0.029
Mof_C 	C 	0.6295	0.2593	0.1406	-0.024
Mof_C 	C 	0.6506	0.2981	0.1512	-0.11
Mof_C 	C 	0.6975	0.3166	0.1319	0.12
Mof_C 	C 	0.7233	0.2951	0.0995	-0.103
Mof_C 	C 	0.7032	0.3822	0.256	-0.028
Mof_C 	C 	0.6568	0.4069	0.2559	-0.038
Mof_C 	C 	0.6317	0.4175	0.2185	-0.006
Mof_C 	C 	0.6495	0.4028	0.1816	-0.126
Mof_C 	C 	0.6997	0.3776	0.1803	0.131
Mof_C 	C 	0.7243	0.366	0.2186	-0.112
Mof_C 	C 	0.7185	0.3602	0.1409	-0.301
Mof_C 	C 	0.7334	0.2343	0.0538	0.356
Mof_C 	C 	0.5807	0.2383	0.1639	0.322
Mof_C 	C 	0.7385	0.3721	0.2936	0.346
Mof_C 	C 	0.5786	0.4475	0.2188	0.31
Mof_C 	C 	0.8429	0.1629	0.9448	0.336
Mof_C 	C 	0.8722	0.1445	0.9057	-0.007
Mof_C 	C 	0.9233	0.1638	0.8889	-0.12
Mof_C 	C 	0.8429	0.4236	0.3447	0.328
Mof_C 	C 	0.8739	0.4632	0.3307	-0.012
Mof_C 	C 	0.9208	0.4625	0.3022	-0.112
Mof_C 	C 	0.7041	0.0878	0.7429	-0.035
Mof_C 	C 	0.6559	0.1068	0.7619	-0.03
Mof_C 	C 	0.6295	0.1406	0.7407	-0.023
Mof_C 	C 	0.6506	0.1512	0.7019	-0.11
Mof_C 	C 	0.6975	0.1319	0.6834	0.12
Mof_C 	C 	0.7233	0.0995	0.7049	-0.104
Mof_C 	C 	0.7032	0.256	0.6178	-0.028
Mof_C 	C 	0.6568	0.2559	0.5931	-0.038
Mof_C 	C 	0.6317	0.2185	0.5825	-0.006
Mof_C 	C 	0.6495	0.1816	0.5972	-0.126
Mof_C 	C 	0.6997	0.1803	0.6224	0.131
Mof_C 	C 	0.7243	0.2186	0.634	-0.112
Mof_C 	C 	0.7185	0.1409	0.6398	-0.301
Mof_C 	C 	0.7334	0.0538	0.7657	0.355
Mof_C 	C 	0.5807	0.1639	0.7617	0.322
Mof_C 	C 	0.7385	0.2936	0.6279	0.346
Mof_C 	C 	0.5786	0.2188	0.5525	0.31
Mof_C 	C 	0.8429	0.9448	0.8371	0.335
Mof_C 	C 	0.8722	0.9057	0.8555	-0.002
Mof_C 	C 	0.9233	0.8889	0.8362	-0.123
Mof_C 	C 	0.8429	0.3447	0.5764	0.328
Mof_C 	C 	0.8739	0.3307	0.5368	-0.012
Mof_C 	C 	0.9208	0.3022	0.5375	-0.112
Mof_C 	C 	0.7041	0.9122	0.2571	-0.024
Mof_C 	C 	0.6559	0.8932	0.2381	-0.033
Mof_C 	C 	0.6295	0.8594	0.2593	-0.017
Mof_C 	C 	0.6506	0.8488	0.2981	-0.115
Mof_C 	C 	0.6975	0.8681	0.3166	0.131
Mof_C 	C 	0.7233	0.9005	0.2951	-0.11
Mof_C 	C 	0.7032	0.744	0.3822	-0.025
Mof_C 	C 	0.6568	0.7441	0.4069	-0.041
Mof_C 	C 	0.6317	0.7815	0.4175	-0.001
Mof_C 	C 	0.6495	0.8184	0.4028	-0.131
Mof_C 	C 	0.6997	0.8197	0.3776	0.139
Mof_C 	C 	0.7243	0.7814	0.366	-0.117
Mof_C 	C 	0.7185	0.8591	0.3602	-0.314
Mof_C 	C 	0.7334	0.9462	0.2343	0.351
Mof_C 	C 	0.5807	0.8361	0.2383	0.321
Mof_C 	C 	0.7385	0.7064	0.3721	0.345
Mof_C 	C 	0.5786	0.7812	0.4475	0.308
Mof_C 	C 	0.8429	0.0552	0.1629	0.339
Mof_C 	C 	0.8722	0.0943	0.1445	-0.016
Mof_C 	C 	0.9233	0.1111	0.1638	-0.117
Mof_C 	C 	0.8429	0.6553	0.4236	0.328
Mof_C 	C 	0.8739	0.6693	0.4632	-0.012
Mof_C 	C 	0.9208	0.6978	0.4625	-0.113
Mof_C 	C 	0.2959	0.2571	0.9122	-0.023
Mof_C 	C 	0.3441	0.2381	0.8932	-0.034
Mof_C 	C 	0.3705	0.2593	0.8594	-0.016
Mof_C 	C 	0.3494	0.2981	0.8488	-0.116
Mof_C 	C 	0.3025	0.3166	0.8681	0.132
Mof_C 	C 	0.2767	0.2951	0.9005	-0.111
Mof_C 	C 	0.2968	0.3822	0.744	-0.024
Mof_C 	C 	0.3432	0.4069	0.7441	-0.041
Mof_C 	C 	0.3683	0.4175	0.7815	-0.001
Mof_C 	C 	0.3505	0.4028	0.8184	-0.132
Mof_C 	C 	0.3003	0.3776	0.8197	0.14
Mof_C 	C 	0.2757	0.366	0.7814	-0.117
Mof_C 	C 	0.2815	0.3602	0.8591	-0.315
Mof_C 	C 	0.2666	0.2343	0.9462	0.351
Mof_C 	C 	0.4193	0.2383	0.8361	0.321
Mof_C 	C 	0.2615	0.3721	0.7064	0.345
Mof_C 	C 	0.4214	0.4475	0.7812	0.308
Mof_C 	C 	0.1571	0.1629	0.0552	0.338
Mof_C 	C 	0.1278	0.1445	0.0943	-0.013
Mof_C 	C 	0.0767	0.1638	0.1111	-0.119
Mof_C 	C 	0.1571	0.4236	0.6553	0.327
Mof_C 	C 	0.1261	0.4632	0.6693	-0.009
Mof_C 	C 	0.0792	0.4625	0.6978	-0.115
Mof_C 	C 	0.2959	0.7429	0.0878	-0.034
Mof_C 	C 	0.3441	0.7619	0.1068	-0.03
Mof_C 	C 	0.3705	0.7407	0.1406	-0.022
Mof_C 	C 	0.3494	0.7019	0.1512	-0.111
Mof_C 	C 	0.3025	0.6834	0.1319	0.121
Mof_C 	C 	0.2767	0.7049	0.0995	-0.105
Mof_C 	C 	0.2968	0.6178	0.256	-0.027
Mof_C 	C 	0.3432	0.5931	0.2559	-0.038
Mof_C 	C 	0.3683	0.5825	0.2185	-0.005
Mof_C 	C 	0.3505	0.5972	0.1816	-0.126
Mof_C 	C 	0.3003	0.6224	0.1803	0.132
Mof_C 	C 	0.2757	0.634	0.2186	-0.113
Mof_C 	C 	0.2815	0.6398	0.1409	-0.302
Mof_C 	C 	0.2666	0.7657	0.0538	0.355
Mof_C 	C 	0.4193	0.7617	0.1639	0.322
Mof_C 	C 	0.2615	0.6279	0.2936	0.346
Mof_C 	C 	0.4214	0.5525	0.2188	0.31
Mof_C 	C 	0.1571	0.8371	0.9448	0.334
Mof_C 	C 	0.1278	0.8555	0.9057	0.001
Mof_C 	C 	0.0767	0.8362	0.8889	-0.125
Mof_C 	C 	0.1571	0.5764	0.3447	0.327
Mof_C 	C 	0.1261	0.5368	0.3307	-0.01
Mof_C 	C 	0.0792	0.5375	0.3022	-0.114
Mof_C 	C 	0.2959	0.9122	0.7429	-0.022
Mof_C 	C 	0.3441	0.8932	0.7619	-0.035
Mof_C 	C 	0.3705	0.8594	0.7407	-0.015
Mof_C 	C 	0.3494	0.8488	0.7019	-0.116
Mof_C 	C 	0.3025	0.8681	0.6834	0.132
Mof_C 	C 	0.2767	0.9005	0.7049	-0.112
Mof_C 	C 	0.2968	0.744	0.6178	-0.024
Mof_C 	C 	0.3432	0.7441	0.5931	-0.042
Mof_C 	C 	0.3683	0.7815	0.5825	-0.001
Mof_C 	C 	0.3505	0.8184	0.5972	-0.132
Mof_C 	C 	0.3003	0.8197	0.6224	0.14
Mof_C 	C 	0.2757	0.7814	0.634	-0.117
Mof_C 	C 	0.2815	0.8591	0.6398	-0.315
Mof_C 	C 	0.2666	0.9462	0.7657	0.35
Mof_C 	C 	0.4193	0.8361	0.7617	0.32
Mof_C 	C 	0.2615	0.7064	0.6279	0.345
Mof_C 	C 	0.4214	0.7812	0.5525	0.308
Mof_C 	C 	0.1571	0.0552	0.8371	0.337
Mof_C 	C 	0.1278	0.0943	0.8555	-0.008
Mof_C 	C 	0.0767	0.1111	0.8362	-0.121
Mof_C 	C 	0.1571	0.6553	0.5764	0.327
Mof_C 	C 	0.1261	0.6693	0.5368	-0.009
Mof_C 	C 	0.0792	0.6978	0.5375	-0.115
Mof_C 	C 	0.2959	0.0878	0.2571	-0.035
Mof_C 	C 	0.3441	0.1068	0.2381	-0.029
Mof_C 	C 	0.3705	0.1406	0.2593	-0.023
Mof_C 	C 	0.3494	0.1512	0.2981	-0.11
Mof_C 	C 	0.3025	0.1319	0.3166	0.121
Mof_C 	C 	0.2767	0.0995	0.2951	-0.104
Mof_C 	C 	0.2968	0.256	0.3822	-0.027
Mof_C 	C 	0.3432	0.2559	0.4069	-0.038
Mof_C 	C 	0.3683	0.2185	0.4175	-0.005
Mof_C 	C 	0.3505	0.1816	0.4028	-0.126
Mof_C 	C 	0.3003	0.1803	0.3776	0.132
Mof_C 	C 	0.2757	0.2186	0.366	-0.113
Mof_C 	C 	0.2815	0.1409	0.3602	-0.302
Mof_C 	C 	0.2666	0.0538	0.2343	0.356
Mof_C 	C 	0.4193	0.1639	0.2383	0.322
Mof_C 	C 	0.2615	0.2936	0.3721	0.346
Mof_C 	C 	0.4214	0.2188	0.4475	0.31
Mof_C 	C 	0.1571	0.9448	0.1629	0.335
Mof_C 	C 	0.1278	0.9057	0.1445	-0.004
Mof_C 	C 	0.0767	0.8889	0.1638	-0.122
Mof_C 	C 	0.1571	0.3447	0.4236	0.327
Mof_C 	C 	0.1261	0.3307	0.4632	-0.01
Mof_C 	C 	0.0792	0.3022	0.4625	-0.114
Mof_C 	C 	0.2959	0.2571	0.0878	-0.035
Mof_C 	C 	0.3441	0.2381	0.1068	-0.029
Mof_C 	C 	0.3705	0.2593	0.1406	-0.023
Mof_C 	C 	0.3494	0.2981	0.1512	-0.11
Mof_C 	C 	0.3025	0.3166	0.1319	0.121
Mof_C 	C 	0.2767	0.2951	0.0995	-0.104
Mof_C 	C 	0.2968	0.3822	0.256	-0.027
Mof_C 	C 	0.3432	0.4069	0.2559	-0.038
Mof_C 	C 	0.3683	0.4175	0.2185	-0.005
Mof_C 	C 	0.3505	0.4028	0.1816	-0.126
Mof_C 	C 	0.3003	0.3776	0.1803	0.132
Mof_C 	C 	0.2757	0.366	0.2186	-0.113
Mof_C 	C 	0.2815	0.3602	0.1409	-0.302
Mof_C 	C 	0.2666	0.2343	0.0538	0.356
Mof_C 	C 	0.4193	0.2383	0.1639	0.322
Mof_C 	C 	0.2615	0.3721	0.2936	0.346
Mof_C 	C 	0.4214	0.4475	0.2188	0.31
Mof_C 	C 	0.1571	0.1629	0.9448	0.335
Mof_C 	C 	0.1278	0.1445	0.9057	-0.004
Mof_C 	C 	0.0767	0.1638	0.8889	-0.122
Mof_C 	C 	0.1571	0.4236	0.3447	0.327
Mof_C 	C 	0.1261	0.4632	0.3307	-0.01
Mof_C 	C 	0.0792	0.4625	0.3022	-0.114
Mof_C 	C 	0.2959	0.7429	0.9122	-0.022
Mof_C 	C 	0.3441	0.7619	0.8932	-0.035
Mof_C 	C 	0.3705	0.7407	0.8594	-0.015
Mof_C 	C 	0.3494	0.7019	0.8488	-0.116
Mof_C 	C 	0.3025	0.6834	0.8681	0.132
Mof_C 	C 	0.2767	0.7049	0.9005	-0.112
Mof_C 	C 	0.2968	0.6178	0.744	-0.024
Mof_C 	C 	0.3432	0.5931	0.7441	-0.042
Mof_C 	C 	0.3683	0.5825	0.7815	-0.001
Mof_C 	C 	0.3505	0.5972	0.8184	-0.132
Mof_C 	C 	0.3003	0.6224	0.8197	0.14
Mof_C 	C 	0.2757	0.634	0.7814	-0.117
Mof_C 	C 	0.2815	0.6398	0.8591	-0.315
Mof_C 	C 	0.2666	0.7657	0.9462	0.35
Mof_C 	C 	0.4193	0.7617	0.8361	0.32
Mof_C 	C 	0.2615	0.6279	0.7064	0.345
Mof_C 	C 	0.4214	0.5525	0.7812	0.308
Mof_C 	C 	0.1571	0.8371	0.0552	0.337
Mof_C 	C 	0.1278	0.8555	0.0943	-0.008
Mof_C 	C 	0.0767	0.8362	0.1111	-0.121
Mof_C 	C 	0.1571	0.5764	0.6553	0.327
Mof_C 	C 	0.1261	0.5368	0.6693	-0.009
Mof_C 	C 	0.0792	0.5375	0.6978	-0.115
Mof_C 	C 	0.2959	0.9122	0.2571	-0.023
Mof_C 	C 	0.3441	0.8932	0.2381	-0.034
Mof_C 	C 	0.3705	0.8594	0.2593	-0.016
Mof_C 	C 	0.3494	0.8488	0.2981	-0.116
Mof_C 	C 	0.3025	0.8681	0.3166	0.132
Mof_C 	C 	0.2767	0.9005	0.2951	-0.111
Mof_C 	C 	0.2968	0.744	0.3822	-0.024
Mof_C 	C 	0.3432	0.7441	0.4069	-0.041
Mof_C 	C 	0.3683	0.7815	0.4175	-0.001
Mof_C 	C 	0.3505	0.8184	0.4028	-0.132
Mof_C 	C 	0.3003	0.8197	0.3776	0.14
Mof_C 	C 	0.2757	0.7814	0.366	-0.117
Mof_C 	C 	0.2815	0.8591	0.3602	-0.315
Mof_C 	C 	0.2666	0.9462	0.2343	0.351
Mof_C 	C 	0.4193	0.8361	0.2383	0.321
Mof_C 	C 	0.2615	0.7064	0.3721	0.345
Mof_C 	C 	0.4214	0.7812	0.4475	0.308
Mof_C 	C 	0.1571	0.0552	0.1629	0.338
Mof_C 	C 	0.1278	0.0943	0.1445	-0.013
Mof_C 	C 	0.0767	0.1111	0.1638	-0.119
Mof_C 	C 	0.1571	0.6553	0.4236	0.327
Mof_C 	C 	0.1261	0.6693	0.4632	-0.009
Mof_C 	C 	0.0792	0.6978	0.4625	-0.115
Mof_C 	C 	0.2959	0.0878	0.7429	-0.034
Mof_C 	C 	0.3441	0.1068	0.7619	-0.03
Mof_C 	C 	0.3705	0.1406	0.7407	-0.022
Mof_C 	C 	0.3494	0.1512	0.7019	-0.111
Mof_C 	C 	0.3025	0.1319	0.6834	0.121
Mof_C 	C 	0.2767	0.0995	0.7049	-0.105
Mof_C 	C 	0.2968	0.256	0.6178	-0.027
Mof_C 	C 	0.3432	0.2559	0.5931	-0.038
Mof_C 	C 	0.3683	0.2185	0.5825	-0.005
Mof_C 	C 	0.3505	0.1816	0.5972	-0.126
Mof_C 	C 	0.3003	0.1803	0.6224	0.132
Mof_C 	C 	0.2757	0.2186	0.634	-0.113
Mof_C 	C 	0.2815	0.1409	0.6398	-0.302
Mof_C 	C 	0.2666	0.0538	0.7657	0.355
Mof_C 	C 	0.4193	0.1639	0.7617	0.322
Mof_C 	C 	0.2615	0.2936	0.6279	0.346
Mof_C 	C 	0.4214	0.2188	0.5525	0.31
Mof_C 	C 	0.1571	0.9448	0.8371	0.334
Mof_C 	C 	0.1278	0.9057	0.8555	0.001
Mof_C 	C 	0.0767	0.8889	0.8362	-0.125
Mof_C 	C 	0.1571	0.3447	0.5764	0.327
Mof_C 	C 	0.1261	0.3307	0.5368	-0.01
Mof_C 	C 	0.0792	0.3022	0.5375	-0.114
Mof_C 	C 	0.7041	0.7429	0.0878	-0.035
Mof_C 	C 	0.6559	0.7619	0.1068	-0.03
Mof_C 	C 	0.6295	0.7407	0.1406	-0.023
Mof_C 	C 	0.6506	0.7019	0.1512	-0.11
Mof_C 	C 	0.6975	0.6834	0.1319	0.12
Mof_C 	C 	0.7233	0.7049	0.0995	-0.104
Mof_C 	C 	0.7032	0.6178	0.256	-0.028
Mof_C 	C 	0.6568	0.5931	0.2559	-0.038
Mof_C 	C 	0.6317	0.5825	0.2185	-0.006
Mof_C 	C 	0.6495	0.5972	0.1816	-0.126
Mof_C 	C 	0.6997	0.6224	0.1803	0.131
Mof_C 	C 	0.7243	0.634	0.2186	-0.112
Mof_C 	C 	0.7185	0.6398	0.1409	-0.301
Mof_C 	C 	0.7334	0.7657	0.0538	0.355
Mof_C 	C 	0.5807	0.7617	0.1639	0.322
Mof_C 	C 	0.7385	0.6279	0.2936	0.346
Mof_C 	C 	0.5786	0.5525	0.2188	0.31
Mof_C 	C 	0.8429	0.8371	0.9448	0.335
Mof_C 	C 	0.8722	0.8555	0.9057	-0.002
Mof_C 	C 	0.9233	0.8362	0.8889	-0.123
Mof_C 	C 	0.8429	0.5764	0.3447	0.328
Mof_C 	C 	0.8739	0.5368	0.3307	-0.012
Mof_C 	C 	0.9208	0.5375	0.3022	-0.112
Mof_C 	C 	0.7041	0.2571	0.9122	-0.024
Mof_C 	C 	0.6559	0.2381	0.8932	-0.033
Mof_C 	C 	0.6295	0.2593	0.8594	-0.017
Mof_C 	C 	0.6506	0.2981	0.8488	-0.115
Mof_C 	C 	0.6975	0.3166	0.8681	0.131
Mof_C 	C 	0.7233	0.2951	0.9005	-0.11
Mof_C 	C 	0.7032	0.3822	0.744	-0.025
Mof_C 	C 	0.6568	0.4069	0.7441	-0.041
Mof_C 	C 	0.6317	0.4175	0.7815	-0.001
Mof_C 	C 	0.6495	0.4028	0.8184	-0.131
Mof_C 	C 	0.6997	0.3776	0.8197	0.139
Mof_C 	C 	0.7243	0.366	0.7814	-0.117
Mof_C 	C 	0.7185	0.3602	0.8591	-0.314
Mof_C 	C 	0.7334	0.2343	0.9462	0.351
Mof_C 	C 	0.5807	0.2383	0.8361	0.321
Mof_C 	C 	0.7385	0.3721	0.7064	0.345
Mof_C 	C 	0.5786	0.4475	0.7812	0.308
Mof_C 	C 	0.8429	0.1629	0.0552	0.339
Mof_C 	C 	0.8722	0.1445	0.0943	-0.016
Mof_C 	C 	0.9233	0.1638	0.1111	-0.117
Mof_C 	C 	0.8429	0.4236	0.6553	0.328
Mof_C 	C 	0.8739	0.4632	0.6693	-0.012
Mof_C 	C 	0.9208	0.4625	0.6978	-0.113
Mof_C 	C 	0.7041	0.0878	0.2571	-0.036
Mof_C 	C 	0.6559	0.1068	0.2381	-0.029
Mof_C 	C 	0.6295	0.1406	0.2593	-0.024
Mof_C 	C 	0.6506	0.1512	0.2981	-0.11
Mof_C 	C 	0.6975	0.1319	0.3166	0.12
Mof_C 	C 	0.7233	0.0995	0.2951	-0.103
Mof_C 	C 	0.7032	0.256	0.3822	-0.028
Mof_C 	C 	0.6568	0.2559	0.4069	-0.038
Mof_C 	C 	0.6317	0.2185	0.4175	-0.006
Mof_C 	C 	0.6495	0.1816	0.4028	-0.126
Mof_C 	C 	0.6997	0.1803	0.3776	0.131
Mof_C 	C 	0.7243	0.2186	0.366	-0.112
Mof_C 	C 	0.7185	0.1409	0.3602	-0.301
Mof_C 	C 	0.7334	0.0538	0.2343	0.356
Mof_C 	C 	0.5807	0.1639	0.2383	0.322
Mof_C 	C 	0.7385	0.2936	0.3721	0.346
Mof_C 	C 	0.5786	0.2188	0.4475	0.31
Mof_C 	C 	0.8429	0.9448	0.1629	0.336
Mof_C 	C 	0.8722	0.9057	0.1445	-0.007
Mof_C 	C 	0.9233	0.8889	0.1638	-0.12
Mof_C 	C 	0.8429	0.3447	0.4236	0.328
Mof_C 	C 	0.8739	0.3307	0.4632	-0.012
Mof_C 	C 	0.9208	0.3022	0.4625	-0.112
Mof_C 	C 	0.7041	0.9122	0.7429	-0.023
Mof_C 	C 	0.6559	0.8932	0.7619	-0.034
Mof_C 	C 	0.6295	0.8594	0.7407	-0.016
Mof_C 	C 	0.6506	0.8488	0.7019	-0.116
Mof_C 	C 	0.6975	0.8681	0.6834	0.131
Mof_C 	C 	0.7233	0.9005	0.7049	-0.111
Mof_C 	C 	0.7032	0.744	0.6178	-0.025
Mof_C 	C 	0.6568	0.7441	0.5931	-0.041
Mof_C 	C 	0.6317	0.7815	0.5825	-0.001
Mof_C 	C 	0.6495	0.8184	0.5972	-0.131
Mof_C 	C 	0.6997	0.8197	0.6224	0.139
Mof_C 	C 	0.7243	0.7814	0.634	-0.117
Mof_C 	C 	0.7185	0.8591	0.6398	-0.314
Mof_C 	C 	0.7334	0.9462	0.7657	0.351
Mof_C 	C 	0.5807	0.8361	0.7617	0.32
Mof_C 	C 	0.7385	0.7064	0.6279	0.345
Mof_C 	C 	0.5786	0.7812	0.5525	0.308
Mof_C 	C 	0.8429	0.0552	0.8371	0.338
Mof_C 	C 	0.8722	0.0943	0.8555	-0.01
Mof_C 	C 	0.9233	0.1111	0.8362	-0.119
Mof_C 	C 	0.8429	0.6553	0.5764	0.328
Mof_C 	C 	0.8739	0.6693	0.5368	-0.012
Mof_C 	C 	0.9208	0.6978	0.5375	-0.113
Mof_C 	C 	0.848	0.8913	0.1087	-0.048
Mof_C 	C 	0.945	0.8528	0.1472	0.132
Mof_C 	C 	0.848	0.1087	0.8913	-0.048
Mof_C 	C 	0.945	0.1472	0.8528	0.132
Mof_C 	C 	0.848	0.8913	0.8913	-0.051
Mof_C 	C 	0.945	0.8528	0.8528	0.137
Mof_C 	C 	0.848	0.1087	0.1087	-0.044
Mof_C 	C 	0.945	0.1472	0.1472	0.127
Mof_C 	C 	0.152	0.1087	0.1087	-0.045
Mof_C 	C 	0.055	0.1472	0.1472	0.134
Mof_C 	C 	0.152	0.8913	0.8913	-0.053
Mof_C 	C 	0.055	0.8528	0.8528	0.143
Mof_C 	C 	0.152	0.1087	0.8913	-0.049
Mof_C 	C 	0.055	0.1472	0.8528	0.139
Mof_C 	C 	0.152	0.8913	0.1087	-0.049
Mof_C 	C 	0.055	0.8528	0.1472	0.139
Mof_C 	C 	1.32971e-32	0.8339	0.1661	-0.303
Mof_C 	C 	1.28034e-32	0.1661	0.8339	-0.303
Mof_C 	C 	4.54174e-33	0.8339	0.8339	-0.308
Mof_C 	C 	5.03547e-33	0.1661	0.1661	-0.299
Mof_C 	C 	0.8473	0.5	0.6541	-0.045
Mof_C 	C 	0.9458	0.5	0.7096	0.128
Mof_C 	C 	0.8473	0.5	0.3459	-0.044
Mof_C 	C 	0.9458	0.5	0.2904	0.126
Mof_C 	C 	0.8473	0.3459	0.5	-0.044
Mof_C 	C 	0.9458	0.2904	0.5	0.126
Mof_C 	C 	0.8473	0.6541	0.5	-0.045
Mof_C 	C 	0.9458	0.7096	0.5	0.128
Mof_C 	C 	0.1527	0.5	0.6541	-0.046
Mof_C 	C 	0.0542	0.5	0.7096	0.135
Mof_C 	C 	0.1527	0.5	0.3459	-0.045
Mof_C 	C 	0.0542	0.5	0.2904	0.132
Mof_C 	C 	0.1527	0.6541	0.5	-0.046
Mof_C 	C 	0.0542	0.7096	0.5	0.135
Mof_C 	C 	0.1527	0.3459	0.5	-0.045
Mof_C 	C 	0.0542	0.2904	0.5	0.132
Mof_C 	C 	2.05335e-32	0.5	0.7363	-0.301
Mof_C 	C 	5.56704e-33	0.5	0.2637	-0.297
Mof_C 	C 	2.72319e-33	0.2637	0.5	-0.297
Mof_C 	C 	1.92465e-32	0.7363	0.5	-0.301
Mof_O 	O 	0.7106	0.7973	0.9576	-0.396
Mof_O 	O 	0.7794	0.748	0.9581	-0.397
Mof_O 	O 	0.5621	0.7441	0.8048	-0.389
Mof_O 	O 	0.5599	0.7938	0.8526	-0.393
Mof_O 	O 	0.7835	0.6491	0.709	-0.413
Mof_O 	O 	0.7147	0.6147	0.6745	-0.404
Mof_O 	O 	0.5606	0.541	0.816	-0.397
Mof_O 	O 	0.5613	0.5419	0.7462	-0.394
Mof_O 	O 	0.7996	0.8541	0.0426	-0.421
Mof_O 	O 	0.8696	0.8048	0.0428	-0.406
Mof_O 	O 	0.87	0.6083	0.6688	-0.391
Mof_O 	O 	0.8014	0.5744	0.6317	-0.41
Mof_O 	O 	0.7106	0.2027	0.0424	-0.421
Mof_O 	O 	0.7794	0.252	0.0419	-0.419
Mof_O 	O 	0.5621	0.2559	0.1952	-0.39
Mof_O 	O 	0.5599	0.2062	0.1474	-0.399
Mof_O 	O 	0.7835	0.3509	0.291	-0.413
Mof_O 	O 	0.7147	0.3853	0.3255	-0.405
Mof_O 	O 	0.5606	0.459	0.184	-0.4
Mof_O 	O 	0.5613	0.4581	0.2538	-0.394
Mof_O 	O 	0.7996	0.1459	0.9574	-0.404
Mof_O 	O 	0.8696	0.1952	0.9572	-0.385
Mof_O 	O 	0.87	0.3917	0.3312	-0.391
Mof_O 	O 	0.8014	0.4256	0.3683	-0.41
Mof_O 	O 	0.7106	0.0424	0.7973	-0.419
Mof_O 	O 	0.7794	0.0419	0.748	-0.419
Mof_O 	O 	0.5621	0.1952	0.7441	-0.39
Mof_O 	O 	0.5599	0.1474	0.7938	-0.397
Mof_O 	O 	0.7835	0.291	0.6491	-0.413
Mof_O 	O 	0.7147	0.3255	0.6147	-0.405
Mof_O 	O 	0.5606	0.184	0.541	-0.4
Mof_O 	O 	0.5613	0.2538	0.5419	-0.394
Mof_O 	O 	0.7996	0.9574	0.8541	-0.399
Mof_O 	O 	0.8696	0.9572	0.8048	-0.384
Mof_O 	O 	0.87	0.3312	0.6083	-0.391
Mof_O 	O 	0.8014	0.3683	0.5744	-0.41
Mof_O 	O 	0.7106	0.9576	0.2027	-0.398
Mof_O 	O 	0.7794	0.9581	0.252	-0.397
Mof_O 	O 	0.5621	0.8048	0.2559	-0.389
Mof_O 	O 	0.5599	0.8526	0.2062	-0.394
Mof_O 	O 	0.7835	0.709	0.3509	-0.413
Mof_O 	O 	0.7147	0.6745	0.3853	-0.404
Mof_O 	O 	0.5606	0.816	0.459	-0.397
Mof_O 	O 	0.5613	0.7462	0.4581	-0.394
Mof_O 	O 	0.7996	0.0426	0.1459	-0.425
Mof_O 	O 	0.8696	0.0428	0.1952	-0.407
Mof_O 	O 	0.87	0.6688	0.3917	-0.391
Mof_O 	O 	0.8014	0.6317	0.4256	-0.41
Mof_O 	O 	0.2894	0.2027	0.9576	-0.398
Mof_O 	O 	0.2206	0.252	0.9581	-0.396
Mof_O 	O 	0.4379	0.2559	0.8048	-0.389
Mof_O 	O 	0.4401	0.2062	0.8526	-0.394
Mof_O 	O 	0.2165	0.3509	0.709	-0.412
Mof_O 	O 	0.2853	0.3853	0.6745	-0.404
Mof_O 	O 	0.4394	0.459	0.816	-0.396
Mof_O 	O 	0.4387	0.4581	0.7462	-0.394
Mof_O 	O 	0.2004	0.1459	0.0426	-0.425
Mof_O 	O 	0.1304	0.1952	0.0428	-0.405
Mof_O 	O 	0.13	0.3917	0.6688	-0.389
Mof_O 	O 	0.1986	0.4256	0.6317	-0.41
Mof_O 	O 	0.2894	0.7973	0.0424	-0.419
Mof_O 	O 	0.2206	0.748	0.0419	-0.418
Mof_O 	O 	0.4379	0.7441	0.1952	-0.39
Mof_O 	O 	0.4401	0.7938	0.1474	-0.397
Mof_O 	O 	0.2165	0.6491	0.291	-0.413
Mof_O 	O 	0.2853	0.6147	0.3255	-0.405
Mof_O 	O 	0.4394	0.541	0.184	-0.4
Mof_O 	O 	0.4387	0.5419	0.2538	-0.394
Mof_O 	O 	0.2004	0.8541	0.9574	-0.399
Mof_O 	O 	0.1304	0.8048	0.9572	-0.383
Mof_O 	O 	0.13	0.6083	0.3312	-0.389
Mof_O 	O 	0.1986	0.5744	0.3683	-0.41
Mof_O 	O 	0.2894	0.9576	0.7973	-0.396
Mof_O 	O 	0.2206	0.9581	0.748	-0.396
Mof_O 	O 	0.4379	0.8048	0.7441	-0.389
Mof_O 	O 	0.4401	0.8526	0.7938	-0.393
Mof_O 	O 	0.2165	0.709	0.6491	-0.412
Mof_O 	O 	0.2853	0.6745	0.6147	-0.404
Mof_O 	O 	0.4394	0.816	0.541	-0.396
Mof_O 	O 	0.4387	0.7462	0.5419	-0.394
Mof_O 	O 	0.2004	0.0426	0.8541	-0.42
Mof_O 	O 	0.1304	0.0428	0.8048	-0.404
Mof_O 	O 	0.13	0.6688	0.6083	-0.389
Mof_O 	O 	0.1986	0.6317	0.5744	-0.41
Mof_O 	O 	0.2894	0.0424	0.2027	-0.421
Mof_O 	O 	0.2206	0.0419	0.252	-0.418
Mof_O 	O 	0.4379	0.1952	0.2559	-0.39
Mof_O 	O 	0.4401	0.1474	0.2062	-0.399
Mof_O 	O 	0.2165	0.291	0.3509	-0.413
Mof_O 	O 	0.2853	0.3255	0.3853	-0.405
Mof_O 	O 	0.4394	0.184	0.459	-0.4
Mof_O 	O 	0.4387	0.2538	0.4581	-0.394
Mof_O 	O 	0.2004	0.9574	0.1459	-0.403
Mof_O 	O 	0.1304	0.9572	0.1952	-0.384
Mof_O 	O 	0.13	0.3312	0.3917	-0.389
Mof_O 	O 	0.1986	0.3683	0.4256	-0.41
Mof_O 	O 	0.2894	0.2027	0.0424	-0.421
Mof_O 	O 	0.2206	0.252	0.0419	-0.418
Mof_O 	O 	0.4379	0.2559	0.1952	-0.39
Mof_O 	O 	0.4401	0.2062	0.1474	-0.399
Mof_O 	O 	0.2165	0.3509	0.291	-0.413
Mof_O 	O 	0.2853	0.3853	0.3255	-0.405
Mof_O 	O 	0.4394	0.459	0.184	-0.4
Mof_O 	O 	0.4387	0.4581	0.2538	-0.394
Mof_O 	O 	0.2004	0.1459	0.9574	-0.403
Mof_O 	O 	0.1304	0.1952	0.9572	-0.384
Mof_O 	O 	0.13	0.3917	0.3312	-0.389
Mof_O 	O 	0.1986	0.4256	0.3683	-0.41
Mof_O 	O 	0.2894	0.7973	0.9576	-0.396
Mof_O 	O 	0.2206	0.748	0.9581	-0.396
Mof_O 	O 	0.4379	0.7441	0.8048	-0.389
Mof_O 	O 	0.4401	0.7938	0.8526	-0.393
Mof_O 	O 	0.2165	0.6491	0.709	-0.412
Mof_O 	O 	0.2853	0.6147	0.6745	-0.404
Mof_O 	O 	0.4394	0.541	0.816	-0.396
Mof_O 	O 	0.4387	0.5419	0.7462	-0.394
Mof_O 	O 	0.2004	0.8541	0.0426	-0.42
Mof_O 	O 	0.1304	0.8048	0.0428	-0.404
Mof_O 	O 	0.13	0.6083	0.6688	-0.389
Mof_O 	O 	0.1986	0.5744	0.6317	-0.41
Mof_O 	O 	0.2894	0.9576	0.2027	-0.398
Mof_O 	O 	0.2206	0.9581	0.252	-0.396
Mof_O 	O 	0.4379	0.8048	0.2559	-0.389
Mof_O 	O 	0.4401	0.8526	0.2062	-0.394
Mof_O 	O 	0.2165	0.709	0.3509	-0.412
Mof_O 	O 	0.2853	0.6745	0.3853	-0.404
Mof_O 	O 	0.4394	0.816	0.459	-0.396
Mof_O 	O 	0.4387	0.7462	0.4581	-0.394
Mof_O 	O 	0.2004	0.0426	0.1459	-0.425
Mof_O 	O 	0.1304	0.0428	0.1952	-0.405
Mof_O 	O 	0.13	0.6688	0.3917	-0.389
Mof_O 	O 	0.1986	0.6317	0.4256	-0.41
Mof_O 	O 	0.2894	0.0424	0.7973	-0.419
Mof_O 	O 	0.2206	0.0419	0.748	-0.418
Mof_O 	O 	0.4379	0.1952	0.7441	-0.39
Mof_O 	O 	0.4401	0.1474	0.7938	-0.397
Mof_O 	O 	0.2165	0.291	0.6491	-0.413
Mof_O 	O 	0.2853	0.3255	0.6147	-0.405
Mof_O 	O 	0.4394	0.184	0.541	-0.4
Mof_O 	O 	0.4387	0.2538	0.5419	-0.394
Mof_O 	O 	0.2004	0.9574	0.8541	-0.399
Mof_O 	O 	0.1304	0.9572	0.8048	-0.383
Mof_O 	O 	0.13	0.3312	0.6083	-0.389
Mof_O 	O 	0.1986	0.3683	0.5744	-0.41
Mof_O 	O 	0.7106	0.7973	0.0424	-0.419
Mof_O 	O 	0.7794	0.748	0.0419	-0.419
Mof_O 	O 	0.5621	0.7441	0.1952	-0.39
Mof_O 	O 	0.5599	0.7938	0.1474	-0.397
Mof_O 	O 	0.7835	0.6491	0.291	-0.413
Mof_O 	O 	0.7147	0.6147	0.3255	-0.405
Mof_O 	O 	0.5606	0.541	0.184	-0.4
Mof_O 	O 	0.5613	0.5419	0.2538	-0.394
Mof_O 	O 	0.7996	0.8541	0.9574	-0.399
Mof_O 	O 	0.8696	0.8048	0.9572	-0.384
Mof_O 	O 	0.87	0.6083	0.3312	-0.391
Mof_O 	O 	0.8014	0.5744	0.3683	-0.41
Mof_O 	O 	0.7106	0.2027	0.9576	-0.398
Mof_O 	O 	0.7794	0.252	0.9581	-0.397
Mof_O 	O 	0.5621	0.2559	0.8048	-0.389
Mof_O 	O 	0.5599	0.2062	0.8526	-0.394
Mof_O 	O 	0.7835	0.3509	0.709	-0.413
Mof_O 	O 	0.7147	0.3853	0.6745	-0.404
Mof_O 	O 	0.5606	0.459	0.816	-0.397
Mof_O 	O 	0.5613	0.4581	0.7462	-0.394
Mof_O 	O 	0.7996	0.1459	0.0426	-0.425
Mof_O 	O 	0.8696	0.1952	0.0428	-0.407
Mof_O 	O 	0.87	0.3917	0.6688	-0.391
Mof_O 	O 	0.8014	0.4256	0.6317	-0.41
Mof_O 	O 	0.7106	0.0424	0.2027	-0.421
Mof_O 	O 	0.7794	0.0419	0.252	-0.419
Mof_O 	O 	0.5621	0.1952	0.2559	-0.39
Mof_O 	O 	0.5599	0.1474	0.2062	-0.399
Mof_O 	O 	0.7835	0.291	0.3509	-0.413
Mof_O 	O 	0.7147	0.3255	0.3853	-0.405
Mof_O 	O 	0.5606	0.184	0.459	-0.4
Mof_O 	O 	0.5613	0.2538	0.4581	-0.394
Mof_O 	O 	0.7996	0.9574	0.1459	-0.404
Mof_O 	O 	0.8696	0.9572	0.1952	-0.385
Mof_O 	O 	0.87	0.3312	0.3917	-0.391
Mof_O 	O 	0.8014	0.3683	0.4256	-0.41
Mof_O 	O 	0.7106	0.9576	0.7973	-0.396
Mof_O 	O 	0.7794	0.9581	0.748	-0.397
Mof_O 	O 	0.5621	0.8048	0.7441	-0.389
Mof_O 	O 	0.5599	0.8526	0.7938	-0.393
Mof_O 	O 	0.7835	0.709	0.6491	-0.413
Mof_O 	O 	0.7147	0.6745	0.6147	-0.404
Mof_O 	O 	0.5606	0.816	0.541	-0.397
Mof_O 	O 	0.5613	0.7462	0.5419	-0.394
Mof_O 	O 	0.7996	0.0426	0.8541	-0.421
Mof_O 	O 	0.8696	0.0428	0.8048	-0.406
Mof_O 	O 	0.87	0.6688	0.6083	-0.391
Mof_O 	O 	0.8014	0.6317	0.5744	-0.41
_end
