data_functionalizedCrystal
_audit_creation_method	'EQeq! by Chris Wilmer'
_symmetry_space_group_name_H-M	'P1'
_symmetry_Int_Tables_number	1
_symmetry_cell_setting	triclinic
loop_
_symmetry_equiv_pos_as_xyz
  x,y,z
_cell_length_a	9.9916
_cell_length_b	16.3601
_cell_length_c	16.5344
_cell_angle_alpha	90
_cell_angle_beta	90
_cell_angle_gamma	90
loop_
_atom_site_label
_atom_site_type_symbol
_atom_site_fract_x
_atom_site_fract_y
_atom_site_fract_z
_atom_site_charge
Mof_Ni	Ni	0.31089	0.21375	0.54656	1.116
Mof_O 	O 	0.4925	0.2313	0.4841	-0.446
Mof_O 	O 	0.6293	0.292	0.3944	-0.432
Mof_C 	C 	0.5168	0.2662	0.4174	0.45
Mof_C 	C 	0.4061	0.2847	0.3563	-0.385
Mof_H 	H 	0.4309	0.2611	0.3033	0.156
Mof_H 	H 	0.3983	0.3447	0.3496	0.158
Mof_C 	C 	0.2697	0.25	0.3826	0.078
Mof_H 	H 	0.2017	0.265	0.3408	0.019
Mof_O 	O 	0.2348	0.2915	0.4583	-0.397
Mof_H 	H 	0.135	0.2955	0.465	0.176
Mof_C 	C 	0.2712	0.1598	0.3909	0.252
Mof_O 	O 	0.2859	0.1182	0.3295	-0.23
Mof_O 	O 	0.2618	0.1297	0.4612	-0.353
Mof_N 	N 	0.612	0.6255	0.8777	-0.22
Mof_N 	N 	0.3616	0.3119	0.6219	-0.234
Mof_C 	C 	0.6808	0.5988	0.8108	0.055
Mof_H 	H 	0.7672	0.6207	0.8005	0.02
Mof_C 	C 	0.6297	0.5415	0.758	-0.101
Mof_H 	H 	0.6757	0.5291	0.7092	0.082
Mof_C 	C 	0.506	0.5005	0.7772	0.036
Mof_C 	C 	0.4468	0.5207	0.849	-0.107
Mof_H 	H 	0.3681	0.493	0.866	0.068
Mof_C 	C 	0.5014	0.5815	0.8969	0.063
Mof_H 	H 	0.4583	0.5933	0.9468	0.013
Mof_C 	C 	0.4516	0.4363	0.7224	0.087
Mof_C 	C 	0.381	0.3725	0.749	-0.162
Mof_H 	H 	0.3623	0.3684	0.8052	0.086
Mof_C 	C 	0.3358	0.3142	0.6994	0.109
Mof_H 	H 	0.2817	0.2721	0.7217	-0.008
Mof_C 	C 	0.4216	0.3779	0.5929	0.087
Mof_H 	H 	0.4317	0.3818	0.5359	0.007
Mof_C 	C 	0.4717	0.4431	0.6403	-0.133
Mof_H 	H 	0.5164	0.4886	0.617	0.087
Mof_Ni	Ni	0.18911	0.78625	0.04656	1.116
Mof_O 	O 	0.0075	0.7687	0.9841	-0.441
Mof_O 	O 	0.8707	0.708	0.8944	-0.431
Mof_C 	C 	0.9832	0.7338	0.9174	0.441
Mof_C 	C 	0.0939	0.7153	0.8563	-0.378
Mof_H 	H 	0.0691	0.7389	0.8033	0.155
Mof_H 	H 	0.1017	0.6553	0.8496	0.157
Mof_C 	C 	0.2303	0.75	0.8826	0.076
Mof_H 	H 	0.2983	0.735	0.8408	0.02
Mof_O 	O 	0.2652	0.7085	0.9583	-0.396
Mof_H 	H 	0.365	0.7045	0.965	0.176
Mof_C 	C 	0.2288	0.8402	0.8909	0.253
Mof_O 	O 	0.2141	0.8818	0.8295	-0.23
Mof_O 	O 	0.2382	0.8703	0.9612	-0.353
Mof_N 	N 	0.888	0.3745	0.3777	-0.22
Mof_N 	N 	0.1384	0.6881	0.1219	-0.234
Mof_C 	C 	0.8192	0.4012	0.3108	0.056
Mof_H 	H 	0.7328	0.3793	0.3005	0.02
Mof_C 	C 	0.8703	0.4585	0.258	-0.102
Mof_H 	H 	0.8243	0.4709	0.2092	0.083
Mof_C 	C 	0.994	0.4995	0.2772	0.038
Mof_C 	C 	0.0532	0.4793	0.349	-0.11
Mof_H 	H 	0.1319	0.507	0.366	0.069
Mof_C 	C 	0.9986	0.4185	0.3969	0.066
Mof_H 	H 	0.0417	0.4067	0.4468	0.012
Mof_C 	C 	0.0484	0.5637	0.2224	0.087
Mof_C 	C 	0.119	0.6275	0.249	-0.162
Mof_H 	H 	0.1377	0.6316	0.3052	0.086
Mof_C 	C 	0.1642	0.6858	0.1994	0.109
Mof_H 	H 	0.2183	0.7279	0.2217	-0.008
Mof_C 	C 	0.0784	0.6221	0.0929	0.088
Mof_H 	H 	0.0683	0.6182	0.0359	0.006
Mof_C 	C 	0.0283	0.5569	0.1403	-0.137
Mof_H 	H 	0.9836	0.5114	0.117	0.09
Mof_Ni	Ni	0.68911	0.71375	0.95344	1.116
Mof_O 	O 	0.5075	0.7313	0.0159	-0.446
Mof_O 	O 	0.3707	0.792	0.1056	-0.432
Mof_C 	C 	0.4832	0.7662	0.0826	0.45
Mof_C 	C 	0.5939	0.7847	0.1437	-0.385
Mof_H 	H 	0.5691	0.7611	0.1967	0.156
Mof_H 	H 	0.6017	0.8447	0.1504	0.158
Mof_C 	C 	0.7303	0.75	0.1174	0.078
Mof_H 	H 	0.7983	0.765	0.1592	0.02
Mof_O 	O 	0.7652	0.7915	0.0417	-0.396
Mof_H 	H 	0.865	0.7955	0.035	0.176
Mof_C 	C 	0.7288	0.6598	0.1091	0.253
Mof_O 	O 	0.7141	0.6182	0.1705	-0.23
Mof_O 	O 	0.7382	0.6297	0.0388	-0.352
Mof_N 	N 	0.388	0.1255	0.6223	-0.22
Mof_N 	N 	0.6384	0.8119	0.8781	-0.234
Mof_C 	C 	0.3192	0.0988	0.6892	0.055
Mof_H 	H 	0.2328	0.1207	0.6995	0.021
Mof_C 	C 	0.3703	0.0415	0.742	-0.101
Mof_H 	H 	0.3243	0.0291	0.7908	0.082
Mof_C 	C 	0.494	0.0005	0.7228	0.035
Mof_C 	C 	0.5532	0.0207	0.651	-0.106
Mof_H 	H 	0.6319	0.993	0.634	0.068
Mof_C 	C 	0.4986	0.0815	0.6031	0.062
Mof_H 	H 	0.5417	0.0933	0.5532	0.013
Mof_C 	C 	0.5484	0.9363	0.7776	0.087
Mof_C 	C 	0.619	0.8725	0.751	-0.162
Mof_H 	H 	0.6377	0.8684	0.6948	0.086
Mof_C 	C 	0.6642	0.8142	0.8006	0.109
Mof_H 	H 	0.7183	0.7721	0.7783	-0.008
Mof_C 	C 	0.5784	0.8779	0.9071	0.087
Mof_H 	H 	0.5683	0.8818	0.9641	0.007
Mof_C 	C 	0.5283	0.9431	0.8597	-0.134
Mof_H 	H 	0.4836	0.9886	0.883	0.087
Mof_Ni	Ni	0.81089	0.28625	0.45344	1.116
Mof_O 	O 	0.9925	0.2687	0.5159	-0.446
Mof_O 	O 	0.1293	0.208	0.6056	-0.432
Mof_C 	C 	0.0168	0.2338	0.5826	0.451
Mof_C 	C 	0.9061	0.2153	0.6437	-0.385
Mof_H 	H 	0.9309	0.2389	0.6967	0.156
Mof_H 	H 	0.8983	0.1553	0.6504	0.158
Mof_C 	C 	0.7697	0.25	0.6174	0.078
Mof_H 	H 	0.7017	0.235	0.6592	0.019
Mof_O 	O 	0.7348	0.2085	0.5417	-0.397
Mof_H 	H 	0.635	0.2045	0.535	0.176
Mof_C 	C 	0.7712	0.3402	0.6091	0.253
Mof_O 	O 	0.7859	0.3818	0.6705	-0.23
Mof_O 	O 	0.7618	0.3703	0.5388	-0.353
Mof_N 	N 	0.112	0.8745	0.1223	-0.219
Mof_N 	N 	0.8616	0.1881	0.3781	-0.234
Mof_C 	C 	0.1808	0.9012	0.1892	0.054
Mof_H 	H 	0.2672	0.8793	0.1995	0.021
Mof_C 	C 	0.1297	0.9585	0.242	-0.1
Mof_H 	H 	0.1757	0.9709	0.2908	0.082
Mof_C 	C 	0.006	0.9995	0.2228	0.033
Mof_C 	C 	0.9468	0.9793	0.151	-0.105
Mof_H 	H 	0.8681	0.007	0.134	0.069
Mof_C 	C 	0.0014	0.9185	0.1031	0.059
Mof_H 	H 	0.9583	0.9067	0.0532	0.015
Mof_C 	C 	0.9516	0.0637	0.2776	0.088
Mof_C 	C 	0.881	0.1275	0.251	-0.162
Mof_H 	H 	0.8623	0.1316	0.1948	0.087
Mof_C 	C 	0.8358	0.1858	0.3006	0.11
Mof_H 	H 	0.7817	0.2279	0.2783	-0.008
Mof_C 	C 	0.9216	0.1221	0.4071	0.086
Mof_H 	H 	0.9317	0.1182	0.4641	0.007
Mof_C 	C 	0.9717	0.0569	0.3597	-0.131
Mof_H 	H 	0.0164	0.0114	0.383	0.085
_end
