data_functionalizedCrystal
_audit_creation_method	'EQeq! by Chris Wilmer'
_symmetry_space_group_name_H-M	'P1'
_symmetry_Int_Tables_number	1
_symmetry_cell_setting	triclinic
loop_
_symmetry_equiv_pos_as_xyz
  x,y,z
_cell_length_a	8.8246
_cell_length_b	11.7336
_cell_length_c	8.3258
_cell_angle_alpha	90
_cell_angle_beta	90
_cell_angle_gamma	90
loop_
_atom_site_label
_atom_site_type_symbol
_atom_site_fract_x
_atom_site_fract_y
_atom_site_fract_z
_atom_site_charge
Mof_O 	O 	0.58295	0.32212	0.58916	-0.372
Mof_O 	O 	0.23851	0.09409	0.38752	-0.324
Mof_O 	O 	0.4152	0.31665	0.39495	-0.354
Mof_C 	C 	0.46995	0.28163	0.52333	0.503
Mof_H 	H 	0.4243	0.2172	0.5675	-0.112
Mof_O 	O 	0.91705	0.67788	0.58916	-0.366
Mof_O 	O 	0.26149	0.90591	0.38752	-0.274
Mof_O 	O 	0.0848	0.68335	0.39495	-0.35
Mof_C 	C 	0.03005	0.71837	0.52333	0.497
Mof_H 	H 	0.0757	0.7828	0.5675	-0.1
Mof_O 	O 	0.91705	0.82212	0.91084	-0.342
Mof_O 	O 	0.26149	0.59409	0.11248	-0.338
Mof_O 	O 	0.0848	0.81665	0.10505	-0.329
Mof_C 	C 	0.03005	0.78163	0.97667	0.474
Mof_H 	H 	0.0757	0.7172	0.9325	-0.098
Mof_O 	O 	0.58295	0.17788	0.91084	-0.377
Mof_O 	O 	0.23851	0.40591	0.11248	-0.337
Mof_O 	O 	0.4152	0.18335	0.10505	-0.36
Mof_C 	C 	0.46995	0.21837	0.97667	0.5
Mof_H 	H 	0.4243	0.2828	0.9325	-0.107
Mof_O 	O 	0.41705	0.67788	0.41084	-0.368
Mof_O 	O 	0.76149	0.90591	0.61248	-0.27
Mof_O 	O 	0.5848	0.68335	0.60505	-0.352
Mof_C 	C 	0.53005	0.71837	0.47667	0.502
Mof_H 	H 	0.5757	0.7828	0.4325	-0.101
Mof_O 	O 	0.08295	0.32212	0.41084	-0.369
Mof_O 	O 	0.73851	0.09409	0.61248	-0.323
Mof_O 	O 	0.9152	0.31665	0.60505	-0.353
Mof_C 	C 	0.96995	0.28163	0.47667	0.5
Mof_H 	H 	0.9243	0.2172	0.4325	-0.112
Mof_O 	O 	0.08295	0.17788	0.08916	-0.366
Mof_O 	O 	0.73851	0.40591	0.88752	-0.337
Mof_O 	O 	0.9152	0.18335	0.89495	-0.351
Mof_C 	C 	0.96995	0.21837	0.02333	0.478
Mof_H 	H 	0.9243	0.2828	0.0675	-0.101
Mof_O 	O 	0.41705	0.82212	0.08916	-0.354
Mof_O 	O 	0.76149	0.59409	0.88752	-0.338
Mof_O 	O 	0.5848	0.81665	0.89495	-0.337
Mof_C 	C 	0.53005	0.78163	0.02333	0.498
Mof_H 	H 	0.5757	0.7172	0.0675	-0.104
Mof_Fe	Fe	0.23846	0.25	0.25	0.947
Mof_Fe	Fe	0.26154	0.75	0.25	0.953
Mof_Fe	Fe	0.76154	0.75	0.75	0.954
Mof_Fe	Fe	0.73846	0.25	0.75	0.946
Mof_C 	C 	0.25	1.83011e-33	0.3191	0.354
Mof_H 	H 	0.25	0	0.2074	-0.067
Mof_C 	C 	0.25	0.5	0.1809	0.458
Mof_H 	H 	0.25	0.5	0.2926	-0.081
Mof_C 	C 	0.75	0	0.6809	0.349
Mof_H 	H 	0.75	0	0.7926	-0.066
Mof_C 	C 	0.75	0.5	0.8191	0.458
Mof_H 	H 	0.75	0.5	0.7074	-0.081
_end
