data_functionalizedCrystal
_audit_creation_method	'EQeq! by Chris Wilmer'
_symmetry_space_group_name_H-M	'P1'
_symmetry_Int_Tables_number	1
_symmetry_cell_setting	triclinic
loop_
_symmetry_equiv_pos_as_xyz
  x,y,z
_cell_length_a	36.997
_cell_length_b	7.0551
_cell_length_c	6.2045
_cell_angle_alpha	90
_cell_angle_beta	97.75
_cell_angle_gamma	90
loop_
_atom_site_label
_atom_site_type_symbol
_atom_site_fract_x
_atom_site_fract_y
_atom_site_fract_z
_atom_site_charge
Mof_O 	O 	0.1525	0.0579	0.4857	-0.252
Mof_O 	O 	0.30001	0.3073	0.7912	-0.545
Mof_O 	O 	0.27595	0.1532	0.3771	-0.768
Mof_C 	C 	0.0502	0.0675	0.6913	0.01
Mof_H 	H 	0.0291	0.1113	0.5957	-0.039
Mof_C 	C 	0.0842	0.0713	0.6237	-0.124
Mof_H 	H 	0.0869	0.1136	0.4788	0.057
Mof_C 	C 	0.11452	0.0144	0.7635	-0.04
Mof_C 	C 	0.1108	0.9513	0.9702	-0.18
Mof_H 	H 	0.1318	0.9081	0.0665	0.082
Mof_C 	C 	0.0767	0.9501	0.0384	-0.253
Mof_H 	H 	0.0743	0.9139	0.1857	0.068
Mof_C 	C 	0.3274	0.0867	0.0328	0.13
Mof_C 	C 	0.3608	0.0972	0.954	0.559
Mof_H 	H 	0.3621	0.1489	0.8118	-0.16
Mof_C 	C 	0.3923	0.0329	0.0806	-0.499
Mof_H 	H 	0.4153	0.0373	0.025	1.241
Mof_C 	C 	0.39036	0.9624	0.2871	1.916
Mof_H 	H 	0.4123	0.9232	0.3772	-0.615
Mof_C 	C 	0.357	0.9481	0.365	3.203
Mof_H 	H 	0.356	0.9011	0.5097	-0.995
Mof_C 	C 	0.2937	0.147	0.875	0.329
Mof_O 	O 	0.6525	0.5579	0.4857	-0.385
Mof_O 	O 	0.80001	0.8073	0.7912	-0.587
Mof_O 	O 	0.77595	0.6532	0.3771	-0.798
Mof_C 	C 	0.5502	0.5675	0.6913	-0.475
Mof_H 	H 	0.5291	0.6113	0.5957	0.097
Mof_C 	C 	0.5842	0.5713	0.6237	-0.216
Mof_H 	H 	0.5869	0.6136	0.4788	0.068
Mof_C 	C 	0.61452	0.5144	0.7635	0.194
Mof_C 	C 	0.6108	0.4513	0.9702	-1.784
Mof_H 	H 	0.6318	0.4081	0.0665	0.567
Mof_C 	C 	0.5767	0.4501	0.0384	-1.85
Mof_H 	H 	0.5743	0.4139	0.1857	0.538
Mof_C 	C 	0.8274	0.5867	0.0328	-0.056
Mof_C 	C 	0.8608	0.5972	0.954	0.009
Mof_H 	H 	0.8621	0.6489	0.8118	0.022
Mof_C 	C 	0.8923	0.5329	0.0806	-0.025
Mof_H 	H 	0.9153	0.5373	0.025	0.034
Mof_C 	C 	0.89036	0.4624	0.2871	-0.02
Mof_H 	H 	0.9123	0.4232	0.3772	0.017
Mof_C 	C 	0.857	0.4481	0.365	0.034
Mof_H 	H 	0.856	0.4011	0.5097	-0.007
Mof_C 	C 	0.7937	0.647	0.875	0.354
Mof_O 	O 	0.8475	0.0579	0.5143	-0.248
Mof_O 	O 	0.69999	0.3073	0.2088	-0.54
Mof_O 	O 	0.72405	0.1532	0.6229	-0.77
Mof_C 	C 	0.9498	0.0675	0.3087	0.005
Mof_H 	H 	0.9709	0.1113	0.4043	-0.033
Mof_C 	C 	0.9158	0.0713	0.3763	-0.143
Mof_H 	H 	0.9131	0.1136	0.5212	0.068
Mof_C 	C 	0.88548	0.0144	0.2365	-0.013
Mof_C 	C 	0.8892	0.9513	0.0298	-0.302
Mof_H 	H 	0.8682	0.9081	0.9335	0.137
Mof_C 	C 	0.9233	0.9501	0.9616	-0.229
Mof_H 	H 	0.9257	0.9139	0.8143	0.063
Mof_C 	C 	0.6726	0.0867	0.9672	0.209
Mof_C 	C 	0.6392	0.0972	0.046	0.479
Mof_H 	H 	0.6379	0.1489	0.1882	-0.137
Mof_C 	C 	0.6077	0.0329	0.9194	-0.468
Mof_H 	H 	0.5847	0.0373	0.975	1.26
Mof_C 	C 	0.60964	0.9624	0.7129	1.925
Mof_H 	H 	0.5877	0.9232	0.6228	-0.617
Mof_C 	C 	0.643	0.9481	0.635	3.267
Mof_H 	H 	0.644	0.9011	0.4903	-1.017
Mof_C 	C 	0.7063	0.147	0.125	0.285
Mof_O 	O 	0.3475	0.5579	0.5143	-0.381
Mof_O 	O 	0.19999	0.8073	0.2088	-0.582
Mof_O 	O 	0.22405	0.6532	0.6229	-0.8
Mof_C 	C 	0.4498	0.5675	0.3087	-0.461
Mof_H 	H 	0.4709	0.6113	0.4043	0.092
Mof_C 	C 	0.4158	0.5713	0.3763	-0.224
Mof_H 	H 	0.4131	0.6136	0.5212	0.074
Mof_C 	C 	0.38548	0.5144	0.2365	0.207
Mof_C 	C 	0.3892	0.4513	0.0298	-1.811
Mof_H 	H 	0.3682	0.4081	0.9335	0.596
Mof_C 	C 	0.4233	0.4501	0.9616	-1.758
Mof_H 	H 	0.4257	0.4139	0.8143	0.513
Mof_C 	C 	0.1726	0.5867	0.9672	0.007
Mof_C 	C 	0.1392	0.5972	0.046	-0.067
Mof_H 	H 	0.1379	0.6489	0.1882	0.044
Mof_C 	C 	0.1077	0.5329	0.9194	0.019
Mof_H 	H 	0.0847	0.5373	0.975	0.022
Mof_C 	C 	0.10964	0.4624	0.7129	-0.044
Mof_H 	H 	0.0877	0.4232	0.6228	0.025
Mof_C 	C 	0.143	0.4481	0.635	0.046
Mof_H 	H 	0.144	0.4011	0.4903	-0.013
Mof_C 	C 	0.2063	0.647	0.125	0.315
Mof_O 	O 	0.8475	0.9421	0.5143	-0.355
Mof_O 	O 	0.69999	0.6927	0.2088	-0.536
Mof_O 	O 	0.72405	0.8468	0.6229	-0.894
Mof_C 	C 	0.9498	0.9325	0.3087	0.013
Mof_H 	H 	0.9709	0.8887	0.4043	-0.025
Mof_C 	C 	0.9158	0.9287	0.3763	0.061
Mof_H 	H 	0.9131	0.8864	0.5212	0.005
Mof_C 	C 	0.88548	0.9856	0.2365	-0.016
Mof_C 	C 	0.8892	0.0487	0.0298	0.177
Mof_H 	H 	0.8682	0.0919	0.9335	0.013
Mof_C 	C 	0.9233	0.0499	0.9616	0.301
Mof_H 	H 	0.9257	0.0861	0.8143	-0.1
Mof_C 	C 	0.6726	0.9133	0.9672	-0.289
Mof_C 	C 	0.6392	0.9028	0.046	-0.577
Mof_H 	H 	0.6379	0.8511	0.1882	0.208
Mof_C 	C 	0.6077	0.9671	0.9194	0.468
Mof_H 	H 	0.5847	0.9627	0.975	-1.245
Mof_C 	C 	0.60964	0.0376	0.7129	-1.97
Mof_H 	H 	0.5877	0.0768	0.6228	0.652
Mof_C 	C 	0.643	0.0519	0.635	-3.324
Mof_H 	H 	0.644	0.0989	0.4903	1.039
Mof_C 	C 	0.7063	0.853	0.125	0.28
Mof_O 	O 	0.3475	0.4421	0.5143	-0.193
Mof_O 	O 	0.19999	0.1927	0.2088	-0.549
Mof_O 	O 	0.22405	0.3468	0.6229	-0.786
Mof_C 	C 	0.4498	0.4325	0.3087	0.473
Mof_H 	H 	0.4709	0.3887	0.4043	-0.154
Mof_C 	C 	0.4158	0.4287	0.3763	0.14
Mof_H 	H 	0.4131	0.3864	0.5212	-0.001
Mof_C 	C 	0.38548	0.4856	0.2365	-0.229
Mof_C 	C 	0.3892	0.5487	0.0298	1.689
Mof_H 	H 	0.3682	0.5919	0.9335	-0.447
Mof_C 	C 	0.4233	0.5499	0.9616	1.82
Mof_H 	H 	0.4257	0.5861	0.8143	-0.55
Mof_C 	C 	0.1726	0.4133	0.9672	0.015
Mof_C 	C 	0.1392	0.4028	0.046	-0.078
Mof_H 	H 	0.1379	0.3511	0.1882	0.044
Mof_C 	C 	0.1077	0.4671	0.9194	0.014
Mof_H 	H 	0.0847	0.4627	0.975	-0.019
Mof_C 	C 	0.10964	0.5376	0.7129	-0.056
Mof_H 	H 	0.0877	0.5768	0.6228	0.029
Mof_C 	C 	0.143	0.5519	0.635	0.029
Mof_H 	H 	0.144	0.5989	0.4903	-0.006
Mof_C 	C 	0.2063	0.353	0.125	0.315
Mof_O 	O 	0.1525	0.9421	0.4857	-0.356
Mof_O 	O 	0.30001	0.6927	0.7912	-0.538
Mof_O 	O 	0.27595	0.8468	0.3771	-0.888
Mof_C 	C 	0.0502	0.9325	0.6913	-0.004
Mof_H 	H 	0.0291	0.8887	0.5957	-0.023
Mof_C 	C 	0.0842	0.9287	0.6237	0.064
Mof_H 	H 	0.0869	0.8864	0.4788	0
Mof_C 	C 	0.11452	0.9856	0.7635	-0.025
Mof_C 	C 	0.1108	0.0487	0.9702	0.183
Mof_H 	H 	0.1318	0.0919	0.0665	-0.012
Mof_C 	C 	0.0767	0.0499	0.0384	0.22
Mof_H 	H 	0.0743	0.0861	0.1857	-0.079
Mof_C 	C 	0.3274	0.9133	0.0328	-0.341
Mof_C 	C 	0.3608	0.9028	0.954	-0.504
Mof_H 	H 	0.3621	0.8511	0.8118	0.186
Mof_C 	C 	0.3923	0.9671	0.0806	0.415
Mof_H 	H 	0.4153	0.9627	0.025	-1.216
Mof_C 	C 	0.39036	0.0376	0.2871	-1.923
Mof_H 	H 	0.4123	0.0768	0.3772	0.637
Mof_C 	C 	0.357	0.0519	0.365	-3.3
Mof_H 	H 	0.356	0.0989	0.5097	1.034
Mof_C 	C 	0.2937	0.853	0.875	0.316
Mof_O 	O 	0.6525	0.4421	0.4857	-0.194
Mof_O 	O 	0.80001	0.1927	0.7912	-0.552
Mof_O 	O 	0.77595	0.3468	0.3771	-0.783
Mof_C 	C 	0.5502	0.4325	0.6913	0.477
Mof_H 	H 	0.5291	0.3887	0.5957	-0.154
Mof_C 	C 	0.5842	0.4287	0.6237	0.157
Mof_H 	H 	0.5869	0.3864	0.4788	-0.009
Mof_C 	C 	0.61452	0.4856	0.7635	-0.251
Mof_C 	C 	0.6108	0.5487	0.9702	1.795
Mof_H 	H 	0.6318	0.5919	0.0665	-0.499
Mof_C 	C 	0.5767	0.5499	0.0384	1.804
Mof_H 	H 	0.5743	0.5861	0.1857	-0.547
Mof_C 	C 	0.8274	0.4133	0.0328	-0.054
Mof_C 	C 	0.8608	0.4028	0.954	-0.001
Mof_H 	H 	0.8621	0.3511	0.8118	0.021
Mof_C 	C 	0.8923	0.4671	0.0806	-0.026
Mof_H 	H 	0.9153	0.4627	0.025	-0.02
Mof_C 	C 	0.89036	0.5376	0.2871	-0.042
Mof_H 	H 	0.9123	0.5768	0.3772	0.025
Mof_C 	C 	0.857	0.5519	0.365	0
Mof_H 	H 	0.856	0.5989	0.5097	0.006
Mof_C 	C 	0.7937	0.353	0.875	0.357
Mof_Nd	Nd	0.21959	0	0.52149	3.001
Mof_O 	O 	0.1793	-7.86555e-33	0.8079	-0.506
Mof_O 	O 	0.2675	-7.86555e-33	0.8411	-0.56
Mof_N 	N 	0.04642	-7.86555e-33	0.8987	-0.244
Mof_C 	C 	0.1508	0	0.678	0.395
Mof_C 	C 	0.32548	0	0.2381	0.017
Mof_C 	C 	0.2903	-3.93277e-33	0.3318	0.647
Mof_Nd	Nd	0.71959	0.5	0.52149	2.822
Mof_O 	O 	0.6793	0.5	0.8079	-0.502
Mof_O 	O 	0.7675	0.5	0.8411	-0.618
Mof_N 	N 	0.54642	0.5	0.8987	-0.235
Mof_C 	C 	0.6508	0.5	0.678	0.372
Mof_C 	C 	0.82548	0.5	0.2381	-0.171
Mof_C 	C 	0.7903	0.5	0.3318	0.576
Mof_Nd	Nd	0.78041	-3.93277e-33	0.47851	3.001
Mof_O 	O 	0.8207	-1.96639e-33	0.1921	-0.516
Mof_O 	O 	0.7325	-1.96639e-33	0.1589	-0.554
Mof_N 	N 	0.95358	-9.83194e-34	0.1013	-0.279
Mof_C 	C 	0.8492	0	0.322	0.381
Mof_C 	C 	0.67452	0	0.7619	-0.03
Mof_C 	C 	0.7097	0	0.6682	0.672
Mof_Nd	Nd	0.28041	0.5	0.47851	2.818
Mof_O 	O 	0.3207	0.5	0.1921	-0.511
Mof_O 	O 	0.2325	0.5	0.1589	-0.61
Mof_N 	N 	0.45358	0.5	0.1013	-0.271
Mof_C 	C 	0.3492	0.5	0.322	0.357
Mof_C 	C 	0.17452	0.5	0.7619	-0.222
Mof_C 	C 	0.2097	0.5	0.6682	0.6
Mof_Cu	Cu	-0	0	-0	0.782
Mof_Cu	Cu	0.5	0.5	-0	0.79
_end
