data_functionalizedCrystal
_audit_creation_method	'EQeq! by Chris Wilmer'
_symmetry_space_group_name_H-M	'P1'
_symmetry_Int_Tables_number	1
_symmetry_cell_setting	triclinic
loop_
_symmetry_equiv_pos_as_xyz
  x,y,z
_cell_length_a	23.483
_cell_length_b	15.623
_cell_length_c	15.964
_cell_angle_alpha	90
_cell_angle_beta	124.008
_cell_angle_gamma	90
loop_
_atom_site_label
_atom_site_type_symbol
_atom_site_fract_x
_atom_site_fract_y
_atom_site_fract_z
_atom_site_charge
Mof_Er	Er	0.81079	0.32804	0.62501	1.787
Mof_C 	C 	0.1341	0.9586	0.3283	-0.168
Mof_C 	C 	0.1446	0.0419	0.364	0.038
Mof_H 	H 	0.1812	0.0536	0.4318	0.046
Mof_C 	C 	0.1033	0.1079	0.3038	-0.013
Mof_C 	C 	0.0488	0.0916	0.2041	0.188
Mof_C 	C 	0.0366	0.0082	0.1698	-0.197
Mof_H 	H 	0.9984	0.9962	0.1033	0.112
Mof_C 	C 	0.0786	0.9419	0.2297	0.108
Mof_H 	H 	0.0697	0.8852	0.204	0.01
Mof_C 	C 	0.0194	0.1896	0.0746	0.189
Mof_C 	C 	0.0847	0.1894	0.0956	-0.103
Mof_H 	H 	0.1215	0.1646	0.1565	0.094
Mof_C 	C 	0.0966	0.2258	0.0269	-0.085
Mof_C 	C 	0.0426	0.2589	0.9375	-0.003
Mof_H 	H 	0.0499	0.2808	0.8888	0.037
Mof_C 	C 	0.9773	0.2601	0.9186	-0.023
Mof_C 	C 	0.9653	0.2255	0.9872	-0.128
Mof_H 	H 	0.9206	0.2264	0.9742	0.118
Mof_C 	C 	0.1817	0.8873	0.392	0.483
Mof_C 	C 	0.1682	0.2285	0.0526	0.44
Mof_C 	C 	0.9184	0.2957	0.8208	0.288
Mof_N 	N 	0.1181	0.193	0.3454	0.012
Mof_O 	O 	0.1746	0.8188	0.347	-0.476
Mof_O 	O 	0.2235	0.9025	0.4844	-0.508
Mof_O 	O 	0.1536	0.1991	0.4384	-0.11
Mof_O 	O 	0.0959	0.2543	0.2901	-0.102
Mof_O 	O 	0.2148	0.1905	0.1305	-0.462
Mof_O 	O 	0.1799	0.2681	0.9956	-0.546
Mof_O 	O 	0.9278	0.3203	0.7537	-0.432
Mof_O 	O 	0.8593	0.2976	0.8047	-0.367
Mof_O 	O 	0.0043	0.1543	0.1398	-0.226
Mof_Er	Er	0.31079	0.82804	0.62501	1.787
Mof_C 	C 	0.6341	0.4586	0.3283	-0.168
Mof_C 	C 	0.6446	0.5419	0.364	0.037
Mof_H 	H 	0.6812	0.5536	0.4318	0.046
Mof_C 	C 	0.6033	0.6079	0.3038	-0.013
Mof_C 	C 	0.5488	0.5916	0.2041	0.187
Mof_C 	C 	0.5366	0.5082	0.1698	-0.194
Mof_H 	H 	0.4984	0.4962	0.1033	0.11
Mof_C 	C 	0.5786	0.4419	0.2297	0.105
Mof_H 	H 	0.5697	0.3852	0.204	0.011
Mof_C 	C 	0.5194	0.6896	0.0746	0.192
Mof_C 	C 	0.5847	0.6894	0.0956	-0.104
Mof_H 	H 	0.6215	0.6646	0.1565	0.094
Mof_C 	C 	0.5966	0.7258	0.0269	-0.083
Mof_C 	C 	0.5426	0.7589	0.9375	-0.006
Mof_H 	H 	0.5499	0.7808	0.8888	0.038
Mof_C 	C 	0.4773	0.7601	0.9186	-0.021
Mof_C 	C 	0.4653	0.7255	0.9872	-0.131
Mof_H 	H 	0.4206	0.7264	0.9742	0.118
Mof_C 	C 	0.6817	0.3873	0.392	0.482
Mof_C 	C 	0.6682	0.7285	0.0526	0.441
Mof_C 	C 	0.4184	0.7957	0.8208	0.287
Mof_N 	N 	0.6181	0.693	0.3454	0.012
Mof_O 	O 	0.6746	0.3188	0.347	-0.476
Mof_O 	O 	0.7235	0.4025	0.4844	-0.508
Mof_O 	O 	0.6536	0.6991	0.4384	-0.11
Mof_O 	O 	0.5959	0.7543	0.2901	-0.102
Mof_O 	O 	0.7148	0.6905	0.1305	-0.462
Mof_O 	O 	0.6799	0.7681	0.9956	-0.547
Mof_O 	O 	0.4278	0.8203	0.7537	-0.432
Mof_O 	O 	0.3593	0.7976	0.8047	-0.367
Mof_O 	O 	0.5043	0.6543	0.1398	-0.226
Mof_Er	Er	0.18921	0.32804	0.87499	1.787
Mof_C 	C 	0.8659	0.9586	0.1717	-0.167
Mof_C 	C 	0.8554	0.0419	0.136	0.036
Mof_H 	H 	0.8188	0.0536	0.0682	0.046
Mof_C 	C 	0.8967	0.1079	0.1962	-0.013
Mof_C 	C 	0.9512	0.0916	0.2959	0.187
Mof_C 	C 	0.9634	0.0082	0.3302	-0.195
Mof_H 	H 	0.0016	0.9962	0.3967	0.111
Mof_C 	C 	0.9214	0.9419	0.2703	0.107
Mof_H 	H 	0.9303	0.8852	0.296	0.011
Mof_C 	C 	0.9806	0.1896	0.4254	0.19
Mof_C 	C 	0.9153	0.1894	0.4044	-0.103
Mof_H 	H 	0.8785	0.1646	0.3435	0.094
Mof_C 	C 	0.9034	0.2258	0.4731	-0.084
Mof_C 	C 	0.9574	0.2589	0.5625	-0.004
Mof_H 	H 	0.9501	0.2808	0.6112	0.037
Mof_C 	C 	0.0227	0.2601	0.5814	-0.022
Mof_C 	C 	0.0347	0.2255	0.5128	-0.129
Mof_H 	H 	0.0794	0.2264	0.5258	0.118
Mof_C 	C 	0.8183	0.8873	0.108	0.482
Mof_C 	C 	0.8318	0.2285	0.4474	0.44
Mof_C 	C 	0.0816	0.2957	0.6792	0.288
Mof_N 	N 	0.8819	0.193	0.1546	0.012
Mof_O 	O 	0.8254	0.8188	0.153	-0.475
Mof_O 	O 	0.7765	0.9025	0.0156	-0.507
Mof_O 	O 	0.8464	0.1991	0.0616	-0.11
Mof_O 	O 	0.9041	0.2543	0.2099	-0.103
Mof_O 	O 	0.7852	0.1905	0.3695	-0.462
Mof_O 	O 	0.8201	0.2681	0.5044	-0.546
Mof_O 	O 	0.0722	0.3203	0.7463	-0.432
Mof_O 	O 	0.1407	0.2976	0.6953	-0.367
Mof_O 	O 	0.9957	0.1543	0.3602	-0.226
Mof_Er	Er	0.68921	0.82804	0.87499	1.786
Mof_C 	C 	0.3659	0.4586	0.1717	-0.168
Mof_C 	C 	0.3554	0.5419	0.136	0.037
Mof_H 	H 	0.3188	0.5536	0.0682	0.046
Mof_C 	C 	0.3967	0.6079	0.1962	-0.013
Mof_C 	C 	0.4512	0.5916	0.2959	0.187
Mof_C 	C 	0.4634	0.5082	0.3302	-0.194
Mof_H 	H 	0.5016	0.4962	0.3967	0.11
Mof_C 	C 	0.4214	0.4419	0.2703	0.105
Mof_H 	H 	0.4303	0.3852	0.296	0.011
Mof_C 	C 	0.4806	0.6896	0.4254	0.191
Mof_C 	C 	0.4153	0.6894	0.4044	-0.103
Mof_H 	H 	0.3785	0.6646	0.3435	0.094
Mof_C 	C 	0.4034	0.7258	0.4731	-0.084
Mof_C 	C 	0.4574	0.7589	0.5625	-0.004
Mof_H 	H 	0.4501	0.7808	0.6112	0.037
Mof_C 	C 	0.5227	0.7601	0.5814	-0.022
Mof_C 	C 	0.5347	0.7255	0.5128	-0.129
Mof_H 	H 	0.5794	0.7264	0.5258	0.118
Mof_C 	C 	0.3183	0.3873	0.108	0.482
Mof_C 	C 	0.3318	0.7285	0.4474	0.44
Mof_C 	C 	0.5816	0.7957	0.6792	0.288
Mof_N 	N 	0.3819	0.693	0.1546	0.012
Mof_O 	O 	0.3254	0.3188	0.153	-0.475
Mof_O 	O 	0.2765	0.4025	0.0156	-0.508
Mof_O 	O 	0.3464	0.6991	0.0616	-0.11
Mof_O 	O 	0.4041	0.7543	0.2099	-0.102
Mof_O 	O 	0.2852	0.6905	0.3695	-0.462
Mof_O 	O 	0.3201	0.7681	0.5044	-0.546
Mof_O 	O 	0.5722	0.8203	0.7463	-0.432
Mof_O 	O 	0.6407	0.7976	0.6953	-0.366
Mof_O 	O 	0.4957	0.6543	0.3602	-0.225
Mof_Er	Er	0.18921	0.67196	0.37499	1.787
Mof_C 	C 	0.8659	0.0414	0.6717	-0.168
Mof_C 	C 	0.8554	0.9581	0.636	0.038
Mof_H 	H 	0.8188	0.9464	0.5682	0.046
Mof_C 	C 	0.8967	0.8921	0.6962	-0.013
Mof_C 	C 	0.9512	0.9084	0.7959	0.188
Mof_C 	C 	0.9634	0.9918	0.8302	-0.197
Mof_H 	H 	0.0016	0.0038	0.8967	0.112
Mof_C 	C 	0.9214	0.0581	0.7703	0.108
Mof_H 	H 	0.9303	0.1148	0.796	0.01
Mof_C 	C 	0.9806	0.8104	0.9254	0.189
Mof_C 	C 	0.9153	0.8106	0.9044	-0.103
Mof_H 	H 	0.8785	0.8354	0.8435	0.094
Mof_C 	C 	0.9034	0.7742	0.9731	-0.085
Mof_C 	C 	0.9574	0.7411	0.0625	-0.003
Mof_H 	H 	0.9501	0.7192	0.1112	0.037
Mof_C 	C 	0.0227	0.7399	0.0814	-0.023
Mof_C 	C 	0.0347	0.7745	0.0128	-0.128
Mof_H 	H 	0.0794	0.7736	0.0258	0.118
Mof_C 	C 	0.8183	0.1127	0.608	0.483
Mof_C 	C 	0.8318	0.7715	0.9474	0.44
Mof_C 	C 	0.0816	0.7043	0.1792	0.288
Mof_N 	N 	0.8819	0.807	0.6546	0.012
Mof_O 	O 	0.8254	0.1812	0.653	-0.476
Mof_O 	O 	0.7765	0.0975	0.5156	-0.508
Mof_O 	O 	0.8464	0.8009	0.5616	-0.11
Mof_O 	O 	0.9041	0.7457	0.7099	-0.102
Mof_O 	O 	0.7852	0.8095	0.8695	-0.462
Mof_O 	O 	0.8201	0.7319	0.0044	-0.546
Mof_O 	O 	0.0722	0.6797	0.2463	-0.432
Mof_O 	O 	0.1407	0.7024	0.1953	-0.367
Mof_O 	O 	0.9957	0.8457	0.8602	-0.226
Mof_Er	Er	0.68921	0.17196	0.37499	1.787
Mof_C 	C 	0.3659	0.5414	0.6717	-0.168
Mof_C 	C 	0.3554	0.4581	0.636	0.037
Mof_H 	H 	0.3188	0.4464	0.5682	0.046
Mof_C 	C 	0.3967	0.3921	0.6962	-0.013
Mof_C 	C 	0.4512	0.4084	0.7959	0.187
Mof_C 	C 	0.4634	0.4918	0.8302	-0.194
Mof_H 	H 	0.5016	0.5038	0.8967	0.11
Mof_C 	C 	0.4214	0.5581	0.7703	0.105
Mof_H 	H 	0.4303	0.6148	0.796	0.011
Mof_C 	C 	0.4806	0.3104	0.9254	0.192
Mof_C 	C 	0.4153	0.3106	0.9044	-0.104
Mof_H 	H 	0.3785	0.3354	0.8435	0.094
Mof_C 	C 	0.4034	0.2742	0.9731	-0.083
Mof_C 	C 	0.4574	0.2411	0.0625	-0.006
Mof_H 	H 	0.4501	0.2192	0.1112	0.038
Mof_C 	C 	0.5227	0.2399	0.0814	-0.021
Mof_C 	C 	0.5347	0.2745	0.0128	-0.131
Mof_H 	H 	0.5794	0.2736	0.0258	0.118
Mof_C 	C 	0.3183	0.6127	0.608	0.482
Mof_C 	C 	0.3318	0.2715	0.9474	0.441
Mof_C 	C 	0.5816	0.2043	0.1792	0.287
Mof_N 	N 	0.3819	0.307	0.6546	0.012
Mof_O 	O 	0.3254	0.6812	0.653	-0.476
Mof_O 	O 	0.2765	0.5975	0.5156	-0.508
Mof_O 	O 	0.3464	0.3009	0.5616	-0.11
Mof_O 	O 	0.4041	0.2457	0.7099	-0.102
Mof_O 	O 	0.2852	0.3095	0.8695	-0.462
Mof_O 	O 	0.3201	0.2319	0.0044	-0.547
Mof_O 	O 	0.5722	0.1797	0.2463	-0.432
Mof_O 	O 	0.6407	0.2024	0.1953	-0.367
Mof_O 	O 	0.4957	0.3457	0.8602	-0.226
Mof_Er	Er	0.81079	0.67196	0.12501	1.787
Mof_C 	C 	0.1341	0.0414	0.8283	-0.167
Mof_C 	C 	0.1446	0.9581	0.864	0.036
Mof_H 	H 	0.1812	0.9464	0.9318	0.046
Mof_C 	C 	0.1033	0.8921	0.8038	-0.013
Mof_C 	C 	0.0488	0.9084	0.7041	0.187
Mof_C 	C 	0.0366	0.9918	0.6698	-0.195
Mof_H 	H 	0.9984	0.0038	0.6033	0.111
Mof_C 	C 	0.0786	0.0581	0.7297	0.107
Mof_H 	H 	0.0697	0.1148	0.704	0.011
Mof_C 	C 	0.0194	0.8104	0.5746	0.19
Mof_C 	C 	0.0847	0.8106	0.5956	-0.103
Mof_H 	H 	0.1215	0.8354	0.6565	0.094
Mof_C 	C 	0.0966	0.7742	0.5269	-0.084
Mof_C 	C 	0.0426	0.7411	0.4375	-0.004
Mof_H 	H 	0.0499	0.7192	0.3888	0.037
Mof_C 	C 	0.9773	0.7399	0.4186	-0.022
Mof_C 	C 	0.9653	0.7745	0.4872	-0.129
Mof_H 	H 	0.9206	0.7736	0.4742	0.118
Mof_C 	C 	0.1817	0.1127	0.892	0.482
Mof_C 	C 	0.1682	0.7715	0.5526	0.44
Mof_C 	C 	0.9184	0.7043	0.3208	0.288
Mof_N 	N 	0.1181	0.807	0.8454	0.012
Mof_O 	O 	0.1746	0.1812	0.847	-0.475
Mof_O 	O 	0.2235	0.0975	0.9844	-0.507
Mof_O 	O 	0.1536	0.8009	0.9384	-0.11
Mof_O 	O 	0.0959	0.7457	0.7901	-0.103
Mof_O 	O 	0.2148	0.8095	0.6305	-0.462
Mof_O 	O 	0.1799	0.7319	0.4956	-0.546
Mof_O 	O 	0.9278	0.6797	0.2537	-0.432
Mof_O 	O 	0.8593	0.7024	0.3047	-0.367
Mof_O 	O 	0.0043	0.8457	0.6398	-0.226
Mof_Er	Er	0.31079	0.17196	0.12501	1.786
Mof_C 	C 	0.6341	0.5414	0.8283	-0.168
Mof_C 	C 	0.6446	0.4581	0.864	0.037
Mof_H 	H 	0.6812	0.4464	0.9318	0.046
Mof_C 	C 	0.6033	0.3921	0.8038	-0.013
Mof_C 	C 	0.5488	0.4084	0.7041	0.187
Mof_C 	C 	0.5366	0.4918	0.6698	-0.194
Mof_H 	H 	0.4984	0.5038	0.6033	0.11
Mof_C 	C 	0.5786	0.5581	0.7297	0.105
Mof_H 	H 	0.5697	0.6148	0.704	0.011
Mof_C 	C 	0.5194	0.3104	0.5746	0.191
Mof_C 	C 	0.5847	0.3106	0.5956	-0.103
Mof_H 	H 	0.6215	0.3354	0.6565	0.094
Mof_C 	C 	0.5966	0.2742	0.5269	-0.084
Mof_C 	C 	0.5426	0.2411	0.4375	-0.004
Mof_H 	H 	0.5499	0.2192	0.3888	0.037
Mof_C 	C 	0.4773	0.2399	0.4186	-0.022
Mof_C 	C 	0.4653	0.2745	0.4872	-0.129
Mof_H 	H 	0.4206	0.2736	0.4742	0.118
Mof_C 	C 	0.6817	0.6127	0.892	0.482
Mof_C 	C 	0.6682	0.2715	0.5526	0.44
Mof_C 	C 	0.4184	0.2043	0.3208	0.288
Mof_N 	N 	0.6181	0.307	0.8454	0.012
Mof_O 	O 	0.6746	0.6812	0.847	-0.475
Mof_O 	O 	0.7235	0.5975	0.9844	-0.508
Mof_O 	O 	0.6536	0.3009	0.9384	-0.11
Mof_O 	O 	0.5959	0.2457	0.7901	-0.102
Mof_O 	O 	0.7148	0.3095	0.6305	-0.462
Mof_O 	O 	0.6799	0.2319	0.4956	-0.546
Mof_O 	O 	0.4278	0.1797	0.2537	-0.432
Mof_O 	O 	0.3593	0.2024	0.3047	-0.366
Mof_O 	O 	0.5043	0.3457	0.6398	-0.225
_end
