data_functionalizedCrystal
_audit_creation_method	'EQeq! by Chris Wilmer'
_symmetry_space_group_name_H-M	'P1'
_symmetry_Int_Tables_number	1
_symmetry_cell_setting	triclinic
loop_
_symmetry_equiv_pos_as_xyz
  x,y,z
_cell_length_a	15.2135
_cell_length_b	15.2135
_cell_length_c	15.2135
_cell_angle_alpha	60
_cell_angle_beta	60
_cell_angle_gamma	60
loop_
_atom_site_label
_atom_site_type_symbol
_atom_site_fract_x
_atom_site_fract_y
_atom_site_fract_z
_atom_site_charge
Mof_U 	U 	0.87399	0.87399	0.12601	0.048
Mof_U 	U 	0.12601	0.12601	0.87399	0.033
Mof_U 	U 	0.87399	0.12601	0.12601	0.033
Mof_U 	U 	0.12601	0.87399	0.87399	0.047
Mof_U 	U 	0.87399	0.12601	0.87399	0.047
Mof_U 	U 	0.12601	0.87399	0.12601	0.033
Mof_H 	H 	0.86432	0.5783	0.4217	0.062
Mof_H 	H 	0.5783	0.86432	0.13568	0.06
Mof_H 	H 	0.4217	0.13568	0.86432	0.059
Mof_H 	H 	0.13568	0.4217	0.5783	0.066
Mof_H 	H 	0.86432	0.4217	0.13568	0.059
Mof_H 	H 	0.5783	0.13568	0.4217	0.066
Mof_H 	H 	0.4217	0.86432	0.5783	0.062
Mof_H 	H 	0.13568	0.5783	0.86432	0.06
Mof_H 	H 	0.86432	0.13568	0.5783	0.06
Mof_H 	H 	0.5783	0.4217	0.86432	0.062
Mof_H 	H 	0.4217	0.5783	0.13568	0.066
Mof_H 	H 	0.13568	0.86432	0.4217	0.059
Mof_H 	H 	0.4217	0.13568	0.5783	0.066
Mof_H 	H 	0.13568	0.4217	0.86432	0.059
Mof_H 	H 	0.86432	0.5783	0.13568	0.06
Mof_H 	H 	0.5783	0.86432	0.4217	0.062
Mof_H 	H 	0.5783	0.13568	0.86432	0.06
Mof_H 	H 	0.86432	0.4217	0.5783	0.062
Mof_H 	H 	0.13568	0.5783	0.4217	0.066
Mof_H 	H 	0.4217	0.86432	0.13568	0.059
Mof_H 	H 	0.86432	0.13568	0.4217	0.059
Mof_H 	H 	0.5783	0.4217	0.13568	0.066
Mof_H 	H 	0.4217	0.5783	0.86432	0.062
Mof_H 	H 	0.13568	0.86432	0.5783	0.06
Mof_C 	C 	0.9187	0.5463	0.4537	0.016
Mof_C 	C 	0.5463	0.9187	0.0813	0.018
Mof_C 	C 	0.4537	0.0813	0.9187	0.018
Mof_C 	C 	0.0813	0.4537	0.5463	-0.021
Mof_C 	C 	0.9187	0.4537	0.0813	0.018
Mof_C 	C 	0.5463	0.0813	0.4537	-0.021
Mof_C 	C 	0.4537	0.9187	0.5463	0.016
Mof_C 	C 	0.0813	0.5463	0.9187	0.018
Mof_C 	C 	0.9187	0.0813	0.5463	0.018
Mof_C 	C 	0.5463	0.4537	0.9187	0.016
Mof_C 	C 	0.4537	0.5463	0.0813	-0.021
Mof_C 	C 	0.0813	0.9187	0.4537	0.018
Mof_C 	C 	0.4537	0.0813	0.5463	-0.021
Mof_C 	C 	0.0813	0.4537	0.9187	0.018
Mof_C 	C 	0.9187	0.5463	0.0813	0.018
Mof_C 	C 	0.5463	0.9187	0.4537	0.016
Mof_C 	C 	0.5463	0.0813	0.9187	0.018
Mof_C 	C 	0.9187	0.4537	0.5463	0.016
Mof_C 	C 	0.0813	0.5463	0.4537	-0.021
Mof_C 	C 	0.4537	0.9187	0.0813	0.018
Mof_C 	C 	0.9187	0.0813	0.4537	0.018
Mof_C 	C 	0.5463	0.4537	0.0813	-0.021
Mof_C 	C 	0.4537	0.5463	0.9187	0.016
Mof_C 	C 	0.0813	0.9187	0.5463	0.018
Mof_C 	C 	3.42451e-17	0.6902	0.3098	0.227
Mof_C 	C 	1.1415e-17	0.5916	0.4084	-0.06
Mof_C 	C 	0.6902	0	-0	0.186
Mof_C 	C 	0.5916	0	-0	-0.095
Mof_C 	C 	0.3098	0	-0	0.183
Mof_C 	C 	0.4084	0	-0	-0.097
Mof_C 	C 	2.28301e-17	0.3098	0.6902	0.227
Mof_C 	C 	4.56602e-17	0.4084	0.5916	-0.06
Mof_C 	C 	2.28301e-17	0.3098	-0	0.183
Mof_C 	C 	2.28301e-17	0.4084	-0	-0.097
Mof_C 	C 	0.6902	0	0.3098	0.227
Mof_C 	C 	0.5916	0	0.4084	-0.06
Mof_C 	C 	0.3098	0	0.6902	0.227
Mof_C 	C 	0.4084	0	0.5916	-0.06
Mof_C 	C 	-4.56602e-17	0.6902	-0	0.186
Mof_C 	C 	-0	0.5916	-0	-0.095
Mof_C 	C 	2.28301e-17	0	0.6902	0.186
Mof_C 	C 	4.56602e-17	0	0.5916	-0.095
Mof_C 	C 	0.6902	0.3098	-0	0.227
Mof_C 	C 	0.5916	0.4084	-0	-0.06
Mof_C 	C 	0.3098	0.6902	-0	0.227
Mof_C 	C 	0.4084	0.5916	-0	-0.06
Mof_C 	C 	3.42451e-17	0	0.3098	0.183
Mof_C 	C 	1.1415e-17	0	0.4084	-0.097
Mof_O 	O 	0.9253	0.7271	0.2729	-0.129
Mof_O 	O 	0.7271	0.9253	0.0747	-0.126
Mof_O 	O 	0.2729	0.0747	0.9253	-0.126
Mof_O 	O 	0.0747	0.2729	0.7271	-0.164
Mof_O 	O 	0.9253	0.2729	0.0747	-0.126
Mof_O 	O 	0.7271	0.0747	0.2729	-0.164
Mof_O 	O 	0.2729	0.9253	0.7271	-0.129
Mof_O 	O 	0.0747	0.7271	0.9253	-0.126
Mof_O 	O 	0.9253	0.0747	0.7271	-0.126
Mof_O 	O 	0.7271	0.2729	0.9253	-0.129
Mof_O 	O 	0.2729	0.7271	0.0747	-0.164
Mof_O 	O 	0.0747	0.9253	0.2729	-0.126
Mof_O 	O 	0.2729	0.0747	0.7271	-0.164
Mof_O 	O 	0.0747	0.2729	0.9253	-0.126
Mof_O 	O 	0.9253	0.7271	0.0747	-0.126
Mof_O 	O 	0.7271	0.9253	0.2729	-0.129
Mof_O 	O 	0.7271	0.0747	0.9253	-0.126
Mof_O 	O 	0.9253	0.2729	0.7271	-0.129
Mof_O 	O 	0.0747	0.7271	0.2729	-0.164
Mof_O 	O 	0.2729	0.9253	0.0747	-0.126
Mof_O 	O 	0.9253	0.0747	0.2729	-0.126
Mof_O 	O 	0.7271	0.2729	0.0747	-0.164
Mof_O 	O 	0.2729	0.7271	0.9253	-0.129
Mof_O 	O 	0.0747	0.9253	0.7271	-0.126
Mof_O 	O 	0.8197	0.0601	0.0601	-0.062
Mof_O 	O 	0.0601	0.8197	0.0601	-0.062
Mof_O 	O 	0.0601	0.0601	0.8197	-0.062
Mof_O 	O 	0.0601	0.0601	0.0601	-0.085
Mof_O 	O 	0.9399	0.1803	0.9399	0.02
Mof_O 	O 	0.1803	0.9399	0.9399	0.02
Mof_O 	O 	0.9399	0.9399	0.1803	0.02
Mof_O 	O 	0.9399	0.9399	0.9399	0.039
_end
