data_functionalizedCrystal
_audit_creation_method	'EQeq! by Chris Wilmer'
_symmetry_space_group_name_H-M	'P1'
_symmetry_Int_Tables_number	1
_symmetry_cell_setting	triclinic
loop_
_symmetry_equiv_pos_as_xyz
  x,y,z
_cell_length_a	32.652
_cell_length_b	32.652
_cell_length_c	32.652
_cell_angle_alpha	90
_cell_angle_beta	90
_cell_angle_gamma	90
loop_
_atom_site_label
_atom_site_type_symbol
_atom_site_fract_x
_atom_site_fract_y
_atom_site_fract_z
_atom_site_charge
Mof_Zn	Zn	0.30822	0.63752	0.0257	1.233
Mof_Zn	Zn	0.13793	0.58404	0.98307	1.233
Mof_P 	P 	0.20419	0.63841	0.02681	0.497
Mof_P 	P 	0.13521	0.49524	0.94124	0.472
Mof_O 	O 	0.08417	0.64483	0.17848	-0.488
Mof_O 	O 	0.06999	0.64344	0.11223	-0.53
Mof_O 	O 	0.24992	0.63893	0.02229	-0.441
Mof_O 	O 	0.18447	0.67393	0.00481	-0.47
Mof_O 	O 	0.18623	0.59745	0.01397	-0.458
Mof_O 	O 	0.20613	0.4146	0.0614	-0.499
Mof_O 	O 	0.1725	0.3582	0.0744	-0.388
Mof_O 	O 	0.14134	0.52677	0.97481	-0.438
Mof_O 	O 	0.17394	0.49114	0.91635	-0.467
Mof_O 	O 	0.09788	0.50428	0.91515	-0.473
Mof_C 	C 	0.09407	0.64503	0.14158	0.446
Mof_C 	C 	0.13882	0.6467	0.13134	-0.179
Mof_C 	C 	0.15123	0.64307	0.09166	0.096
Mof_H 	H 	0.1315	0.6396	0.0714	-0.013
Mof_C 	C 	0.19169	0.6444	0.08034	-0.143
Mof_C 	C 	0.2207	0.6514	0.1106	0.07
Mof_H 	H 	0.2483	0.6538	0.1037	0.015
Mof_C 	C 	0.2086	0.6549	0.1509	-0.153
Mof_H 	H 	0.2282	0.6587	0.1712	0.081
Mof_C 	C 	0.1683	0.6527	0.1612	0.093
Mof_H 	H 	0.1605	0.6553	0.1884	0.007
Mof_C 	C 	0.176	0.3911	0.0558	0.377
Mof_C 	C 	0.147	0.4018	0.0228	-0.148
Mof_C 	C 	0.15273	0.43692	0.00036	0.064
Mof_H 	H 	0.1746	0.454	0.0067	0.034
Mof_C 	C 	0.12643	0.44768	0.96821	-0.118
Mof_C 	C 	0.0938	0.4223	0.9604	0.052
Mof_H 	H 	0.076	0.4287	0.9392	0.007
Mof_C 	C 	0.087	0.3882	0.9827	-0.126
Mof_H 	H 	0.0648	0.3715	0.9764	0.071
Mof_C 	C 	0.1128	0.378	0.0149	0.063
Mof_H 	H 	0.1071	0.3552	0.0311	0.012
Mof_Zn	Zn	0.19178	0.86248	0.0257	1.233
Mof_Zn	Zn	0.36207	0.91596	0.98307	1.233
Mof_P 	P 	0.29581	0.86159	0.02681	0.497
Mof_P 	P 	0.36479	0.00476	0.94124	0.472
Mof_O 	O 	0.41583	0.85517	0.17848	-0.488
Mof_O 	O 	0.43001	0.85656	0.11223	-0.53
Mof_O 	O 	0.25008	0.86107	0.02229	-0.441
Mof_O 	O 	0.31553	0.82607	0.00481	-0.47
Mof_O 	O 	0.31377	0.90255	0.01397	-0.458
Mof_O 	O 	0.29387	0.0854	0.0614	-0.499
Mof_O 	O 	0.3275	0.1418	0.0744	-0.388
Mof_O 	O 	0.35866	0.97323	0.97481	-0.438
Mof_O 	O 	0.32606	0.00886	0.91635	-0.467
Mof_O 	O 	0.40212	0.99572	0.91515	-0.473
Mof_C 	C 	0.40593	0.85497	0.14158	0.446
Mof_C 	C 	0.36118	0.8533	0.13134	-0.179
Mof_C 	C 	0.34877	0.85693	0.09166	0.096
Mof_H 	H 	0.3685	0.8604	0.0714	-0.013
Mof_C 	C 	0.30831	0.8556	0.08034	-0.143
Mof_C 	C 	0.2793	0.8486	0.1106	0.07
Mof_H 	H 	0.2517	0.8462	0.1037	0.015
Mof_C 	C 	0.2914	0.8451	0.1509	-0.153
Mof_H 	H 	0.2718	0.8413	0.1712	0.081
Mof_C 	C 	0.3317	0.8473	0.1612	0.093
Mof_H 	H 	0.3395	0.8447	0.1884	0.007
Mof_C 	C 	0.324	0.1089	0.0558	0.377
Mof_C 	C 	0.353	0.0982	0.0228	-0.148
Mof_C 	C 	0.34727	0.06308	0.00036	0.063
Mof_H 	H 	0.3254	0.046	0.0067	0.033
Mof_C 	C 	0.37357	0.05232	0.96821	-0.118
Mof_C 	C 	0.4062	0.0777	0.9604	0.052
Mof_H 	H 	0.424	0.0713	0.9392	0.007
Mof_C 	C 	0.413	0.1118	0.9827	-0.126
Mof_H 	H 	0.4352	0.1285	0.9764	0.071
Mof_C 	C 	0.3872	0.122	0.0149	0.063
Mof_H 	H 	0.3929	0.1448	0.0311	0.012
Mof_Zn	Zn	0.19178	0.63752	0.4743	1.234
Mof_Zn	Zn	0.36207	0.58404	0.51693	1.234
Mof_P 	P 	0.29581	0.63841	0.47319	0.498
Mof_P 	P 	0.36479	0.49524	0.55876	0.473
Mof_O 	O 	0.41583	0.64483	0.32152	-0.487
Mof_O 	O 	0.43001	0.64344	0.38777	-0.529
Mof_O 	O 	0.25008	0.63893	0.47771	-0.44
Mof_O 	O 	0.31553	0.67393	0.49519	-0.469
Mof_O 	O 	0.31377	0.59745	0.48603	-0.457
Mof_O 	O 	0.29387	0.4146	0.4386	-0.498
Mof_O 	O 	0.3275	0.3582	0.4256	-0.387
Mof_O 	O 	0.35866	0.52677	0.52519	-0.437
Mof_O 	O 	0.32606	0.49114	0.58365	-0.466
Mof_O 	O 	0.40212	0.50428	0.58485	-0.472
Mof_C 	C 	0.40593	0.64503	0.35842	0.447
Mof_C 	C 	0.36118	0.6467	0.36866	-0.178
Mof_C 	C 	0.34877	0.64307	0.40834	0.097
Mof_H 	H 	0.3685	0.6396	0.4286	-0.012
Mof_C 	C 	0.30831	0.6444	0.41966	-0.142
Mof_C 	C 	0.2793	0.6514	0.3894	0.071
Mof_H 	H 	0.2517	0.6538	0.3963	0.016
Mof_C 	C 	0.2914	0.6549	0.3491	-0.152
Mof_H 	H 	0.2718	0.6587	0.3288	0.082
Mof_C 	C 	0.3317	0.6527	0.3388	0.094
Mof_H 	H 	0.3395	0.6553	0.3116	0.008
Mof_C 	C 	0.324	0.3911	0.4442	0.379
Mof_C 	C 	0.353	0.4018	0.4772	-0.147
Mof_C 	C 	0.34727	0.43692	0.49964	0.065
Mof_H 	H 	0.3254	0.454	0.4933	0.034
Mof_C 	C 	0.37357	0.44768	0.53179	-0.118
Mof_C 	C 	0.4062	0.4223	0.5396	0.053
Mof_H 	H 	0.424	0.4287	0.5608	0.008
Mof_C 	C 	0.413	0.3882	0.5173	-0.125
Mof_H 	H 	0.4352	0.3715	0.5236	0.072
Mof_C 	C 	0.3872	0.378	0.4851	0.065
Mof_H 	H 	0.3929	0.3552	0.4689	0.013
Mof_Zn	Zn	0.30822	0.86248	0.4743	1.234
Mof_Zn	Zn	0.13793	0.91596	0.51693	1.234
Mof_P 	P 	0.20419	0.86159	0.47319	0.498
Mof_P 	P 	0.13521	0.00476	0.55876	0.473
Mof_O 	O 	0.08417	0.85517	0.32152	-0.487
Mof_O 	O 	0.06999	0.85656	0.38777	-0.529
Mof_O 	O 	0.24992	0.86107	0.47771	-0.44
Mof_O 	O 	0.18447	0.82607	0.49519	-0.469
Mof_O 	O 	0.18623	0.90255	0.48603	-0.457
Mof_O 	O 	0.20613	0.0854	0.4386	-0.498
Mof_O 	O 	0.1725	0.1418	0.4256	-0.387
Mof_O 	O 	0.14134	0.97323	0.52519	-0.437
Mof_O 	O 	0.17394	0.00886	0.58365	-0.466
Mof_O 	O 	0.09788	0.99572	0.58485	-0.472
Mof_C 	C 	0.09407	0.85497	0.35842	0.447
Mof_C 	C 	0.13882	0.8533	0.36866	-0.178
Mof_C 	C 	0.15123	0.85693	0.40834	0.097
Mof_H 	H 	0.1315	0.8604	0.4286	-0.012
Mof_C 	C 	0.19169	0.8556	0.41966	-0.142
Mof_C 	C 	0.2207	0.8486	0.3894	0.071
Mof_H 	H 	0.2483	0.8462	0.3963	0.016
Mof_C 	C 	0.2086	0.8451	0.3491	-0.152
Mof_H 	H 	0.2282	0.8413	0.3288	0.082
Mof_C 	C 	0.1683	0.8473	0.3388	0.094
Mof_H 	H 	0.1605	0.8447	0.3116	0.008
Mof_C 	C 	0.176	0.1089	0.4442	0.379
Mof_C 	C 	0.147	0.0982	0.4772	-0.147
Mof_C 	C 	0.15273	0.06308	0.49964	0.065
Mof_H 	H 	0.1746	0.046	0.4933	0.034
Mof_C 	C 	0.12643	0.05232	0.53179	-0.118
Mof_C 	C 	0.0938	0.0777	0.5396	0.053
Mof_H 	H 	0.076	0.0713	0.5608	0.008
Mof_C 	C 	0.087	0.1118	0.5173	-0.125
Mof_H 	H 	0.0648	0.1285	0.5236	0.072
Mof_C 	C 	0.1128	0.122	0.4851	0.065
Mof_H 	H 	0.1071	0.1448	0.4689	0.013
Mof_Zn	Zn	0.0257	0.30822	0.63752	1.234
Mof_Zn	Zn	0.98307	0.13793	0.58404	1.234
Mof_P 	P 	0.02681	0.20419	0.63841	0.498
Mof_P 	P 	0.94124	0.13521	0.49524	0.473
Mof_O 	O 	0.17848	0.08417	0.64483	-0.487
Mof_O 	O 	0.11223	0.06999	0.64344	-0.529
Mof_O 	O 	0.02229	0.24992	0.63893	-0.44
Mof_O 	O 	0.00481	0.18447	0.67393	-0.469
Mof_O 	O 	0.01397	0.18623	0.59745	-0.457
Mof_O 	O 	0.0614	0.20613	0.4146	-0.498
Mof_O 	O 	0.0744	0.1725	0.3582	-0.387
Mof_O 	O 	0.97481	0.14134	0.52677	-0.437
Mof_O 	O 	0.91635	0.17394	0.49114	-0.466
Mof_O 	O 	0.91515	0.09788	0.50428	-0.472
Mof_C 	C 	0.14158	0.09407	0.64503	0.447
Mof_C 	C 	0.13134	0.13882	0.6467	-0.178
Mof_C 	C 	0.09166	0.15123	0.64307	0.097
Mof_H 	H 	0.0714	0.1315	0.6396	-0.012
Mof_C 	C 	0.08034	0.19169	0.6444	-0.142
Mof_C 	C 	0.1106	0.2207	0.6514	0.071
Mof_H 	H 	0.1037	0.2483	0.6538	0.016
Mof_C 	C 	0.1509	0.2086	0.6549	-0.152
Mof_H 	H 	0.1712	0.2282	0.6587	0.082
Mof_C 	C 	0.1612	0.1683	0.6527	0.094
Mof_H 	H 	0.1884	0.1605	0.6553	0.008
Mof_C 	C 	0.0558	0.176	0.3911	0.378
Mof_C 	C 	0.0228	0.147	0.4018	-0.147
Mof_C 	C 	0.00036	0.15273	0.43692	0.065
Mof_H 	H 	0.0067	0.1746	0.454	0.035
Mof_C 	C 	0.96821	0.12643	0.44768	-0.117
Mof_C 	C 	0.9604	0.0938	0.4223	0.053
Mof_H 	H 	0.9392	0.076	0.4287	0.008
Mof_C 	C 	0.9827	0.087	0.3882	-0.125
Mof_H 	H 	0.9764	0.0648	0.3715	0.072
Mof_C 	C 	0.0149	0.1128	0.378	0.064
Mof_H 	H 	0.0311	0.1071	0.3552	0.013
Mof_Zn	Zn	0.0257	0.19178	0.86248	1.234
Mof_Zn	Zn	0.98307	0.36207	0.91596	1.234
Mof_P 	P 	0.02681	0.29581	0.86159	0.498
Mof_P 	P 	0.94124	0.36479	0.00476	0.473
Mof_O 	O 	0.17848	0.41583	0.85517	-0.487
Mof_O 	O 	0.11223	0.43001	0.85656	-0.529
Mof_O 	O 	0.02229	0.25008	0.86107	-0.44
Mof_O 	O 	0.00481	0.31553	0.82607	-0.469
Mof_O 	O 	0.01397	0.31377	0.90255	-0.457
Mof_O 	O 	0.0614	0.29387	0.0854	-0.498
Mof_O 	O 	0.0744	0.3275	0.1418	-0.387
Mof_O 	O 	0.97481	0.35866	0.97323	-0.437
Mof_O 	O 	0.91635	0.32606	0.00886	-0.466
Mof_O 	O 	0.91515	0.40212	0.99572	-0.472
Mof_C 	C 	0.14158	0.40593	0.85497	0.447
Mof_C 	C 	0.13134	0.36118	0.8533	-0.178
Mof_C 	C 	0.09166	0.34877	0.85693	0.097
Mof_H 	H 	0.0714	0.3685	0.8604	-0.012
Mof_C 	C 	0.08034	0.30831	0.8556	-0.142
Mof_C 	C 	0.1106	0.2793	0.8486	0.071
Mof_H 	H 	0.1037	0.2517	0.8462	0.016
Mof_C 	C 	0.1509	0.2914	0.8451	-0.152
Mof_H 	H 	0.1712	0.2718	0.8413	0.082
Mof_C 	C 	0.1612	0.3317	0.8473	0.094
Mof_H 	H 	0.1884	0.3395	0.8447	0.008
Mof_C 	C 	0.0558	0.324	0.1089	0.378
Mof_C 	C 	0.0228	0.353	0.0982	-0.147
Mof_C 	C 	0.00036	0.34727	0.06308	0.064
Mof_H 	H 	0.0067	0.3254	0.046	0.034
Mof_C 	C 	0.96821	0.37357	0.05232	-0.117
Mof_C 	C 	0.9604	0.4062	0.0777	0.053
Mof_H 	H 	0.9392	0.424	0.0713	0.008
Mof_C 	C 	0.9827	0.413	0.1118	-0.125
Mof_H 	H 	0.9764	0.4352	0.1285	0.072
Mof_C 	C 	0.0149	0.3872	0.122	0.064
Mof_H 	H 	0.0311	0.3929	0.1448	0.013
Mof_Zn	Zn	0.4743	0.19178	0.63752	1.234
Mof_Zn	Zn	0.51693	0.36207	0.58404	1.234
Mof_P 	P 	0.47319	0.29581	0.63841	0.498
Mof_P 	P 	0.55876	0.36479	0.49524	0.473
Mof_O 	O 	0.32152	0.41583	0.64483	-0.487
Mof_O 	O 	0.38777	0.43001	0.64344	-0.529
Mof_O 	O 	0.47771	0.25008	0.63893	-0.44
Mof_O 	O 	0.49519	0.31553	0.67393	-0.469
Mof_O 	O 	0.48603	0.31377	0.59745	-0.457
Mof_O 	O 	0.4386	0.29387	0.4146	-0.498
Mof_O 	O 	0.4256	0.3275	0.3582	-0.387
Mof_O 	O 	0.52519	0.35866	0.52677	-0.437
Mof_O 	O 	0.58365	0.32606	0.49114	-0.466
Mof_O 	O 	0.58485	0.40212	0.50428	-0.472
Mof_C 	C 	0.35842	0.40593	0.64503	0.447
Mof_C 	C 	0.36866	0.36118	0.6467	-0.178
Mof_C 	C 	0.40834	0.34877	0.64307	0.097
Mof_H 	H 	0.4286	0.3685	0.6396	-0.012
Mof_C 	C 	0.41966	0.30831	0.6444	-0.142
Mof_C 	C 	0.3894	0.2793	0.6514	0.071
Mof_H 	H 	0.3963	0.2517	0.6538	0.016
Mof_C 	C 	0.3491	0.2914	0.6549	-0.152
Mof_H 	H 	0.3288	0.2718	0.6587	0.082
Mof_C 	C 	0.3388	0.3317	0.6527	0.094
Mof_H 	H 	0.3116	0.3395	0.6553	0.008
Mof_C 	C 	0.4442	0.324	0.3911	0.379
Mof_C 	C 	0.4772	0.353	0.4018	-0.147
Mof_C 	C 	0.49964	0.34727	0.43692	0.065
Mof_H 	H 	0.4933	0.3254	0.454	0.034
Mof_C 	C 	0.53179	0.37357	0.44768	-0.118
Mof_C 	C 	0.5396	0.4062	0.4223	0.053
Mof_H 	H 	0.5608	0.424	0.4287	0.008
Mof_C 	C 	0.5173	0.413	0.3882	-0.125
Mof_H 	H 	0.5236	0.4352	0.3715	0.072
Mof_C 	C 	0.4851	0.3872	0.378	0.065
Mof_H 	H 	0.4689	0.3929	0.3552	0.013
Mof_Zn	Zn	0.4743	0.30822	0.86248	1.234
Mof_Zn	Zn	0.51693	0.13793	0.91596	1.234
Mof_P 	P 	0.47319	0.20419	0.86159	0.498
Mof_P 	P 	0.55876	0.13521	0.00476	0.473
Mof_O 	O 	0.32152	0.08417	0.85517	-0.487
Mof_O 	O 	0.38777	0.06999	0.85656	-0.529
Mof_O 	O 	0.47771	0.24992	0.86107	-0.44
Mof_O 	O 	0.49519	0.18447	0.82607	-0.469
Mof_O 	O 	0.48603	0.18623	0.90255	-0.457
Mof_O 	O 	0.4386	0.20613	0.0854	-0.498
Mof_O 	O 	0.4256	0.1725	0.1418	-0.387
Mof_O 	O 	0.52519	0.14134	0.97323	-0.437
Mof_O 	O 	0.58365	0.17394	0.00886	-0.466
Mof_O 	O 	0.58485	0.09788	0.99572	-0.472
Mof_C 	C 	0.35842	0.09407	0.85497	0.447
Mof_C 	C 	0.36866	0.13882	0.8533	-0.178
Mof_C 	C 	0.40834	0.15123	0.85693	0.097
Mof_H 	H 	0.4286	0.1315	0.8604	-0.012
Mof_C 	C 	0.41966	0.19169	0.8556	-0.142
Mof_C 	C 	0.3894	0.2207	0.8486	0.071
Mof_H 	H 	0.3963	0.2483	0.8462	0.016
Mof_C 	C 	0.3491	0.2086	0.8451	-0.152
Mof_H 	H 	0.3288	0.2282	0.8413	0.082
Mof_C 	C 	0.3388	0.1683	0.8473	0.094
Mof_H 	H 	0.3116	0.1605	0.8447	0.008
Mof_C 	C 	0.4442	0.176	0.1089	0.379
Mof_C 	C 	0.4772	0.147	0.0982	-0.147
Mof_C 	C 	0.49964	0.15273	0.06308	0.065
Mof_H 	H 	0.4933	0.1746	0.046	0.034
Mof_C 	C 	0.53179	0.12643	0.05232	-0.118
Mof_C 	C 	0.5396	0.0938	0.0777	0.053
Mof_H 	H 	0.5608	0.076	0.0713	0.008
Mof_C 	C 	0.5173	0.087	0.1118	-0.125
Mof_H 	H 	0.5236	0.0648	0.1285	0.072
Mof_C 	C 	0.4851	0.1128	0.122	0.065
Mof_H 	H 	0.4689	0.1071	0.1448	0.013
Mof_Zn	Zn	0.63752	0.0257	0.30822	1.234
Mof_Zn	Zn	0.58404	0.98307	0.13793	1.234
Mof_P 	P 	0.63841	0.02681	0.20419	0.498
Mof_P 	P 	0.49524	0.94124	0.13521	0.473
Mof_O 	O 	0.64483	0.17848	0.08417	-0.487
Mof_O 	O 	0.64344	0.11223	0.06999	-0.529
Mof_O 	O 	0.63893	0.02229	0.24992	-0.44
Mof_O 	O 	0.67393	0.00481	0.18447	-0.469
Mof_O 	O 	0.59745	0.01397	0.18623	-0.457
Mof_O 	O 	0.4146	0.0614	0.20613	-0.498
Mof_O 	O 	0.3582	0.0744	0.1725	-0.387
Mof_O 	O 	0.52677	0.97481	0.14134	-0.437
Mof_O 	O 	0.49114	0.91635	0.17394	-0.466
Mof_O 	O 	0.50428	0.91515	0.09788	-0.472
Mof_C 	C 	0.64503	0.14158	0.09407	0.447
Mof_C 	C 	0.6467	0.13134	0.13882	-0.178
Mof_C 	C 	0.64307	0.09166	0.15123	0.097
Mof_H 	H 	0.6396	0.0714	0.1315	-0.012
Mof_C 	C 	0.6444	0.08034	0.19169	-0.142
Mof_C 	C 	0.6514	0.1106	0.2207	0.071
Mof_H 	H 	0.6538	0.1037	0.2483	0.016
Mof_C 	C 	0.6549	0.1509	0.2086	-0.152
Mof_H 	H 	0.6587	0.1712	0.2282	0.082
Mof_C 	C 	0.6527	0.1612	0.1683	0.094
Mof_H 	H 	0.6553	0.1884	0.1605	0.008
Mof_C 	C 	0.3911	0.0558	0.176	0.378
Mof_C 	C 	0.4018	0.0228	0.147	-0.147
Mof_C 	C 	0.43692	0.00036	0.15273	0.065
Mof_H 	H 	0.454	0.0067	0.1746	0.035
Mof_C 	C 	0.44768	0.96821	0.12643	-0.117
Mof_C 	C 	0.4223	0.9604	0.0938	0.053
Mof_H 	H 	0.4287	0.9392	0.076	0.008
Mof_C 	C 	0.3882	0.9827	0.087	-0.125
Mof_H 	H 	0.3715	0.9764	0.0648	0.072
Mof_C 	C 	0.378	0.0149	0.1128	0.064
Mof_H 	H 	0.3552	0.0311	0.1071	0.013
Mof_Zn	Zn	0.86248	0.0257	0.19178	1.234
Mof_Zn	Zn	0.91596	0.98307	0.36207	1.234
Mof_P 	P 	0.86159	0.02681	0.29581	0.498
Mof_P 	P 	0.00476	0.94124	0.36479	0.473
Mof_O 	O 	0.85517	0.17848	0.41583	-0.487
Mof_O 	O 	0.85656	0.11223	0.43001	-0.529
Mof_O 	O 	0.86107	0.02229	0.25008	-0.44
Mof_O 	O 	0.82607	0.00481	0.31553	-0.469
Mof_O 	O 	0.90255	0.01397	0.31377	-0.457
Mof_O 	O 	0.0854	0.0614	0.29387	-0.498
Mof_O 	O 	0.1418	0.0744	0.3275	-0.387
Mof_O 	O 	0.97323	0.97481	0.35866	-0.437
Mof_O 	O 	0.00886	0.91635	0.32606	-0.466
Mof_O 	O 	0.99572	0.91515	0.40212	-0.472
Mof_C 	C 	0.85497	0.14158	0.40593	0.447
Mof_C 	C 	0.8533	0.13134	0.36118	-0.178
Mof_C 	C 	0.85693	0.09166	0.34877	0.097
Mof_H 	H 	0.8604	0.0714	0.3685	-0.012
Mof_C 	C 	0.8556	0.08034	0.30831	-0.142
Mof_C 	C 	0.8486	0.1106	0.2793	0.071
Mof_H 	H 	0.8462	0.1037	0.2517	0.016
Mof_C 	C 	0.8451	0.1509	0.2914	-0.152
Mof_H 	H 	0.8413	0.1712	0.2718	0.082
Mof_C 	C 	0.8473	0.1612	0.3317	0.094
Mof_H 	H 	0.8447	0.1884	0.3395	0.008
Mof_C 	C 	0.1089	0.0558	0.324	0.378
Mof_C 	C 	0.0982	0.0228	0.353	-0.147
Mof_C 	C 	0.06308	0.00036	0.34727	0.064
Mof_H 	H 	0.046	0.0067	0.3254	0.034
Mof_C 	C 	0.05232	0.96821	0.37357	-0.117
Mof_C 	C 	0.0777	0.9604	0.4062	0.053
Mof_H 	H 	0.0713	0.9392	0.424	0.008
Mof_C 	C 	0.1118	0.9827	0.413	-0.125
Mof_H 	H 	0.1285	0.9764	0.4352	0.072
Mof_C 	C 	0.122	0.0149	0.3872	0.064
Mof_H 	H 	0.1448	0.0311	0.3929	0.013
Mof_Zn	Zn	0.63752	0.4743	0.19178	1.234
Mof_Zn	Zn	0.58404	0.51693	0.36207	1.234
Mof_P 	P 	0.63841	0.47319	0.29581	0.498
Mof_P 	P 	0.49524	0.55876	0.36479	0.473
Mof_O 	O 	0.64483	0.32152	0.41583	-0.487
Mof_O 	O 	0.64344	0.38777	0.43001	-0.529
Mof_O 	O 	0.63893	0.47771	0.25008	-0.44
Mof_O 	O 	0.67393	0.49519	0.31553	-0.469
Mof_O 	O 	0.59745	0.48603	0.31377	-0.457
Mof_O 	O 	0.4146	0.4386	0.29387	-0.498
Mof_O 	O 	0.3582	0.4256	0.3275	-0.387
Mof_O 	O 	0.52677	0.52519	0.35866	-0.437
Mof_O 	O 	0.49114	0.58365	0.32606	-0.466
Mof_O 	O 	0.50428	0.58485	0.40212	-0.472
Mof_C 	C 	0.64503	0.35842	0.40593	0.447
Mof_C 	C 	0.6467	0.36866	0.36118	-0.178
Mof_C 	C 	0.64307	0.40834	0.34877	0.097
Mof_H 	H 	0.6396	0.4286	0.3685	-0.012
Mof_C 	C 	0.6444	0.41966	0.30831	-0.142
Mof_C 	C 	0.6514	0.3894	0.2793	0.071
Mof_H 	H 	0.6538	0.3963	0.2517	0.016
Mof_C 	C 	0.6549	0.3491	0.2914	-0.152
Mof_H 	H 	0.6587	0.3288	0.2718	0.082
Mof_C 	C 	0.6527	0.3388	0.3317	0.094
Mof_H 	H 	0.6553	0.3116	0.3395	0.008
Mof_C 	C 	0.3911	0.4442	0.324	0.379
Mof_C 	C 	0.4018	0.4772	0.353	-0.147
Mof_C 	C 	0.43692	0.49964	0.34727	0.065
Mof_H 	H 	0.454	0.4933	0.3254	0.034
Mof_C 	C 	0.44768	0.53179	0.37357	-0.118
Mof_C 	C 	0.4223	0.5396	0.4062	0.053
Mof_H 	H 	0.4287	0.5608	0.424	0.008
Mof_C 	C 	0.3882	0.5173	0.413	-0.125
Mof_H 	H 	0.3715	0.5236	0.4352	0.072
Mof_C 	C 	0.378	0.4851	0.3872	0.065
Mof_H 	H 	0.3552	0.4689	0.3929	0.013
Mof_Zn	Zn	0.86248	0.4743	0.30822	1.234
Mof_Zn	Zn	0.91596	0.51693	0.13793	1.234
Mof_P 	P 	0.86159	0.47319	0.20419	0.498
Mof_P 	P 	0.00476	0.55876	0.13521	0.473
Mof_O 	O 	0.85517	0.32152	0.08417	-0.487
Mof_O 	O 	0.85656	0.38777	0.06999	-0.529
Mof_O 	O 	0.86107	0.47771	0.24992	-0.44
Mof_O 	O 	0.82607	0.49519	0.18447	-0.469
Mof_O 	O 	0.90255	0.48603	0.18623	-0.457
Mof_O 	O 	0.0854	0.4386	0.20613	-0.498
Mof_O 	O 	0.1418	0.4256	0.1725	-0.387
Mof_O 	O 	0.97323	0.52519	0.14134	-0.437
Mof_O 	O 	0.00886	0.58365	0.17394	-0.466
Mof_O 	O 	0.99572	0.58485	0.09788	-0.472
Mof_C 	C 	0.85497	0.35842	0.09407	0.447
Mof_C 	C 	0.8533	0.36866	0.13882	-0.178
Mof_C 	C 	0.85693	0.40834	0.15123	0.097
Mof_H 	H 	0.8604	0.4286	0.1315	-0.012
Mof_C 	C 	0.8556	0.41966	0.19169	-0.142
Mof_C 	C 	0.8486	0.3894	0.2207	0.071
Mof_H 	H 	0.8462	0.3963	0.2483	0.016
Mof_C 	C 	0.8451	0.3491	0.2086	-0.152
Mof_H 	H 	0.8413	0.3288	0.2282	0.082
Mof_C 	C 	0.8473	0.3388	0.1683	0.094
Mof_H 	H 	0.8447	0.3116	0.1605	0.008
Mof_C 	C 	0.1089	0.4442	0.176	0.379
Mof_C 	C 	0.0982	0.4772	0.147	-0.147
Mof_C 	C 	0.06308	0.49964	0.15273	0.065
Mof_H 	H 	0.046	0.4933	0.1746	0.034
Mof_C 	C 	0.05232	0.53179	0.12643	-0.118
Mof_C 	C 	0.0777	0.5396	0.0938	0.053
Mof_H 	H 	0.0713	0.5608	0.076	0.008
Mof_C 	C 	0.1118	0.5173	0.087	-0.125
Mof_H 	H 	0.1285	0.5236	0.0648	0.072
Mof_C 	C 	0.122	0.4851	0.1128	0.065
Mof_H 	H 	0.1448	0.4689	0.1071	0.013
Mof_Zn	Zn	0.63752	0.30822	0.4743	1.234
Mof_Zn	Zn	0.58404	0.13793	0.51693	1.234
Mof_P 	P 	0.63841	0.20419	0.47319	0.498
Mof_P 	P 	0.49524	0.13521	0.55876	0.473
Mof_O 	O 	0.64483	0.08417	0.32152	-0.487
Mof_O 	O 	0.64344	0.06999	0.38777	-0.529
Mof_O 	O 	0.63893	0.24992	0.47771	-0.44
Mof_O 	O 	0.67393	0.18447	0.49519	-0.469
Mof_O 	O 	0.59745	0.18623	0.48603	-0.457
Mof_O 	O 	0.4146	0.20613	0.4386	-0.498
Mof_O 	O 	0.3582	0.1725	0.4256	-0.387
Mof_O 	O 	0.52677	0.14134	0.52519	-0.437
Mof_O 	O 	0.49114	0.17394	0.58365	-0.466
Mof_O 	O 	0.50428	0.09788	0.58485	-0.472
Mof_C 	C 	0.64503	0.09407	0.35842	0.447
Mof_C 	C 	0.6467	0.13882	0.36866	-0.178
Mof_C 	C 	0.64307	0.15123	0.40834	0.097
Mof_H 	H 	0.6396	0.1315	0.4286	-0.012
Mof_C 	C 	0.6444	0.19169	0.41966	-0.142
Mof_C 	C 	0.6514	0.2207	0.3894	0.071
Mof_H 	H 	0.6538	0.2483	0.3963	0.016
Mof_C 	C 	0.6549	0.2086	0.3491	-0.152
Mof_H 	H 	0.6587	0.2282	0.3288	0.082
Mof_C 	C 	0.6527	0.1683	0.3388	0.094
Mof_H 	H 	0.6553	0.1605	0.3116	0.008
Mof_C 	C 	0.3911	0.176	0.4442	0.379
Mof_C 	C 	0.4018	0.147	0.4772	-0.147
Mof_C 	C 	0.43692	0.15273	0.49964	0.065
Mof_H 	H 	0.454	0.1746	0.4933	0.034
Mof_C 	C 	0.44768	0.12643	0.53179	-0.118
Mof_C 	C 	0.4223	0.0938	0.5396	0.053
Mof_H 	H 	0.4287	0.076	0.5608	0.008
Mof_C 	C 	0.3882	0.087	0.5173	-0.125
Mof_H 	H 	0.3715	0.0648	0.5236	0.072
Mof_C 	C 	0.378	0.1128	0.4851	0.065
Mof_H 	H 	0.3552	0.1071	0.4689	0.013
Mof_Zn	Zn	0.86248	0.19178	0.4743	1.234
Mof_Zn	Zn	0.91596	0.36207	0.51693	1.234
Mof_P 	P 	0.86159	0.29581	0.47319	0.498
Mof_P 	P 	0.00476	0.36479	0.55876	0.473
Mof_O 	O 	0.85517	0.41583	0.32152	-0.487
Mof_O 	O 	0.85656	0.43001	0.38777	-0.529
Mof_O 	O 	0.86107	0.25008	0.47771	-0.44
Mof_O 	O 	0.82607	0.31553	0.49519	-0.469
Mof_O 	O 	0.90255	0.31377	0.48603	-0.457
Mof_O 	O 	0.0854	0.29387	0.4386	-0.498
Mof_O 	O 	0.1418	0.3275	0.4256	-0.387
Mof_O 	O 	0.97323	0.35866	0.52519	-0.437
Mof_O 	O 	0.00886	0.32606	0.58365	-0.466
Mof_O 	O 	0.99572	0.40212	0.58485	-0.472
Mof_C 	C 	0.85497	0.40593	0.35842	0.447
Mof_C 	C 	0.8533	0.36118	0.36866	-0.178
Mof_C 	C 	0.85693	0.34877	0.40834	0.097
Mof_H 	H 	0.8604	0.3685	0.4286	-0.012
Mof_C 	C 	0.8556	0.30831	0.41966	-0.142
Mof_C 	C 	0.8486	0.2793	0.3894	0.071
Mof_H 	H 	0.8462	0.2517	0.3963	0.016
Mof_C 	C 	0.8451	0.2914	0.3491	-0.152
Mof_H 	H 	0.8413	0.2718	0.3288	0.082
Mof_C 	C 	0.8473	0.3317	0.3388	0.094
Mof_H 	H 	0.8447	0.3395	0.3116	0.008
Mof_C 	C 	0.1089	0.324	0.4442	0.379
Mof_C 	C 	0.0982	0.353	0.4772	-0.147
Mof_C 	C 	0.06308	0.34727	0.49964	0.065
Mof_H 	H 	0.046	0.3254	0.4933	0.034
Mof_C 	C 	0.05232	0.37357	0.53179	-0.118
Mof_C 	C 	0.0777	0.4062	0.5396	0.053
Mof_H 	H 	0.0713	0.424	0.5608	0.008
Mof_C 	C 	0.1118	0.413	0.5173	-0.125
Mof_H 	H 	0.1285	0.4352	0.5236	0.072
Mof_C 	C 	0.122	0.3872	0.4851	0.065
Mof_H 	H 	0.1448	0.3929	0.4689	0.013
Mof_Zn	Zn	0.63752	0.19178	0.0257	1.234
Mof_Zn	Zn	0.58404	0.36207	0.98307	1.234
Mof_P 	P 	0.63841	0.29581	0.02681	0.498
Mof_P 	P 	0.49524	0.36479	0.94124	0.473
Mof_O 	O 	0.64483	0.41583	0.17848	-0.487
Mof_O 	O 	0.64344	0.43001	0.11223	-0.529
Mof_O 	O 	0.63893	0.25008	0.02229	-0.44
Mof_O 	O 	0.67393	0.31553	0.00481	-0.469
Mof_O 	O 	0.59745	0.31377	0.01397	-0.457
Mof_O 	O 	0.4146	0.29387	0.0614	-0.498
Mof_O 	O 	0.3582	0.3275	0.0744	-0.387
Mof_O 	O 	0.52677	0.35866	0.97481	-0.437
Mof_O 	O 	0.49114	0.32606	0.91635	-0.466
Mof_O 	O 	0.50428	0.40212	0.91515	-0.472
Mof_C 	C 	0.64503	0.40593	0.14158	0.447
Mof_C 	C 	0.6467	0.36118	0.13134	-0.178
Mof_C 	C 	0.64307	0.34877	0.09166	0.097
Mof_H 	H 	0.6396	0.3685	0.0714	-0.012
Mof_C 	C 	0.6444	0.30831	0.08034	-0.142
Mof_C 	C 	0.6514	0.2793	0.1106	0.071
Mof_H 	H 	0.6538	0.2517	0.1037	0.016
Mof_C 	C 	0.6549	0.2914	0.1509	-0.152
Mof_H 	H 	0.6587	0.2718	0.1712	0.082
Mof_C 	C 	0.6527	0.3317	0.1612	0.094
Mof_H 	H 	0.6553	0.3395	0.1884	0.008
Mof_C 	C 	0.3911	0.324	0.0558	0.378
Mof_C 	C 	0.4018	0.353	0.0228	-0.147
Mof_C 	C 	0.43692	0.34727	0.00036	0.065
Mof_H 	H 	0.454	0.3254	0.0067	0.034
Mof_C 	C 	0.44768	0.37357	0.96821	-0.117
Mof_C 	C 	0.4223	0.4062	0.9604	0.053
Mof_H 	H 	0.4287	0.424	0.9392	0.008
Mof_C 	C 	0.3882	0.413	0.9827	-0.125
Mof_H 	H 	0.3715	0.4352	0.9764	0.072
Mof_C 	C 	0.378	0.3872	0.0149	0.064
Mof_H 	H 	0.3552	0.3929	0.0311	0.013
Mof_Zn	Zn	0.86248	0.30822	0.0257	1.234
Mof_Zn	Zn	0.91596	0.13793	0.98307	1.234
Mof_P 	P 	0.86159	0.20419	0.02681	0.498
Mof_P 	P 	0.00476	0.13521	0.94124	0.473
Mof_O 	O 	0.85517	0.08417	0.17848	-0.487
Mof_O 	O 	0.85656	0.06999	0.11223	-0.529
Mof_O 	O 	0.86107	0.24992	0.02229	-0.44
Mof_O 	O 	0.82607	0.18447	0.00481	-0.469
Mof_O 	O 	0.90255	0.18623	0.01397	-0.457
Mof_O 	O 	0.0854	0.20613	0.0614	-0.498
Mof_O 	O 	0.1418	0.1725	0.0744	-0.387
Mof_O 	O 	0.97323	0.14134	0.97481	-0.437
Mof_O 	O 	0.00886	0.17394	0.91635	-0.466
Mof_O 	O 	0.99572	0.09788	0.91515	-0.472
Mof_C 	C 	0.85497	0.09407	0.14158	0.447
Mof_C 	C 	0.8533	0.13882	0.13134	-0.178
Mof_C 	C 	0.85693	0.15123	0.09166	0.097
Mof_H 	H 	0.8604	0.1315	0.0714	-0.012
Mof_C 	C 	0.8556	0.19169	0.08034	-0.142
Mof_C 	C 	0.8486	0.2207	0.1106	0.071
Mof_H 	H 	0.8462	0.2483	0.1037	0.016
Mof_C 	C 	0.8451	0.2086	0.1509	-0.152
Mof_H 	H 	0.8413	0.2282	0.1712	0.082
Mof_C 	C 	0.8473	0.1683	0.1612	0.094
Mof_H 	H 	0.8447	0.1605	0.1884	0.008
Mof_C 	C 	0.1089	0.176	0.0558	0.378
Mof_C 	C 	0.0982	0.147	0.0228	-0.147
Mof_C 	C 	0.06308	0.15273	0.00036	0.064
Mof_H 	H 	0.046	0.1746	0.0067	0.035
Mof_C 	C 	0.05232	0.12643	0.96821	-0.117
Mof_C 	C 	0.0777	0.0938	0.9604	0.052
Mof_H 	H 	0.0713	0.076	0.9392	0.009
Mof_C 	C 	0.1118	0.087	0.9827	-0.125
Mof_H 	H 	0.1285	0.0648	0.9764	0.072
Mof_C 	C 	0.122	0.1128	0.0149	0.064
Mof_H 	H 	0.1448	0.1071	0.0311	0.013
Mof_Zn	Zn	0.30822	0.0257	0.86248	1.234
Mof_Zn	Zn	0.13793	0.98307	0.91596	1.234
Mof_P 	P 	0.20419	0.02681	0.86159	0.498
Mof_P 	P 	0.13521	0.94124	0.00476	0.473
Mof_O 	O 	0.08417	0.17848	0.85517	-0.487
Mof_O 	O 	0.06999	0.11223	0.85656	-0.529
Mof_O 	O 	0.24992	0.02229	0.86107	-0.44
Mof_O 	O 	0.18447	0.00481	0.82607	-0.469
Mof_O 	O 	0.18623	0.01397	0.90255	-0.457
Mof_O 	O 	0.20613	0.0614	0.0854	-0.498
Mof_O 	O 	0.1725	0.0744	0.1418	-0.387
Mof_O 	O 	0.14134	0.97481	0.97323	-0.437
Mof_O 	O 	0.17394	0.91635	0.00886	-0.466
Mof_O 	O 	0.09788	0.91515	0.99572	-0.472
Mof_C 	C 	0.09407	0.14158	0.85497	0.447
Mof_C 	C 	0.13882	0.13134	0.8533	-0.178
Mof_C 	C 	0.15123	0.09166	0.85693	0.097
Mof_H 	H 	0.1315	0.0714	0.8604	-0.012
Mof_C 	C 	0.19169	0.08034	0.8556	-0.142
Mof_C 	C 	0.2207	0.1106	0.8486	0.071
Mof_H 	H 	0.2483	0.1037	0.8462	0.016
Mof_C 	C 	0.2086	0.1509	0.8451	-0.152
Mof_H 	H 	0.2282	0.1712	0.8413	0.082
Mof_C 	C 	0.1683	0.1612	0.8473	0.094
Mof_H 	H 	0.1605	0.1884	0.8447	0.008
Mof_C 	C 	0.176	0.0558	0.1089	0.378
Mof_C 	C 	0.147	0.0228	0.0982	-0.147
Mof_C 	C 	0.15273	0.00036	0.06308	0.064
Mof_H 	H 	0.1746	0.0067	0.046	0.035
Mof_C 	C 	0.12643	0.96821	0.05232	-0.117
Mof_C 	C 	0.0938	0.9604	0.0777	0.052
Mof_H 	H 	0.076	0.9392	0.0713	0.009
Mof_C 	C 	0.087	0.9827	0.1118	-0.125
Mof_H 	H 	0.0648	0.9764	0.1285	0.072
Mof_C 	C 	0.1128	0.0149	0.122	0.064
Mof_H 	H 	0.1071	0.0311	0.1448	0.013
Mof_Zn	Zn	0.19178	0.0257	0.63752	1.234
Mof_Zn	Zn	0.36207	0.98307	0.58404	1.234
Mof_P 	P 	0.29581	0.02681	0.63841	0.498
Mof_P 	P 	0.36479	0.94124	0.49524	0.473
Mof_O 	O 	0.41583	0.17848	0.64483	-0.487
Mof_O 	O 	0.43001	0.11223	0.64344	-0.529
Mof_O 	O 	0.25008	0.02229	0.63893	-0.44
Mof_O 	O 	0.31553	0.00481	0.67393	-0.469
Mof_O 	O 	0.31377	0.01397	0.59745	-0.457
Mof_O 	O 	0.29387	0.0614	0.4146	-0.498
Mof_O 	O 	0.3275	0.0744	0.3582	-0.387
Mof_O 	O 	0.35866	0.97481	0.52677	-0.437
Mof_O 	O 	0.32606	0.91635	0.49114	-0.466
Mof_O 	O 	0.40212	0.91515	0.50428	-0.472
Mof_C 	C 	0.40593	0.14158	0.64503	0.447
Mof_C 	C 	0.36118	0.13134	0.6467	-0.178
Mof_C 	C 	0.34877	0.09166	0.64307	0.097
Mof_H 	H 	0.3685	0.0714	0.6396	-0.012
Mof_C 	C 	0.30831	0.08034	0.6444	-0.142
Mof_C 	C 	0.2793	0.1106	0.6514	0.071
Mof_H 	H 	0.2517	0.1037	0.6538	0.016
Mof_C 	C 	0.2914	0.1509	0.6549	-0.152
Mof_H 	H 	0.2718	0.1712	0.6587	0.082
Mof_C 	C 	0.3317	0.1612	0.6527	0.094
Mof_H 	H 	0.3395	0.1884	0.6553	0.008
Mof_C 	C 	0.324	0.0558	0.3911	0.378
Mof_C 	C 	0.353	0.0228	0.4018	-0.147
Mof_C 	C 	0.34727	0.00036	0.43692	0.065
Mof_H 	H 	0.3254	0.0067	0.454	0.034
Mof_C 	C 	0.37357	0.96821	0.44768	-0.117
Mof_C 	C 	0.4062	0.9604	0.4223	0.053
Mof_H 	H 	0.424	0.9392	0.4287	0.008
Mof_C 	C 	0.413	0.9827	0.3882	-0.125
Mof_H 	H 	0.4352	0.9764	0.3715	0.072
Mof_C 	C 	0.3872	0.0149	0.378	0.064
Mof_H 	H 	0.3929	0.0311	0.3552	0.013
Mof_Zn	Zn	0.19178	0.4743	0.86248	1.234
Mof_Zn	Zn	0.36207	0.51693	0.91596	1.234
Mof_P 	P 	0.29581	0.47319	0.86159	0.498
Mof_P 	P 	0.36479	0.55876	0.00476	0.473
Mof_O 	O 	0.41583	0.32152	0.85517	-0.487
Mof_O 	O 	0.43001	0.38777	0.85656	-0.529
Mof_O 	O 	0.25008	0.47771	0.86107	-0.44
Mof_O 	O 	0.31553	0.49519	0.82607	-0.469
Mof_O 	O 	0.31377	0.48603	0.90255	-0.457
Mof_O 	O 	0.29387	0.4386	0.0854	-0.498
Mof_O 	O 	0.3275	0.4256	0.1418	-0.387
Mof_O 	O 	0.35866	0.52519	0.97323	-0.437
Mof_O 	O 	0.32606	0.58365	0.00886	-0.466
Mof_O 	O 	0.40212	0.58485	0.99572	-0.472
Mof_C 	C 	0.40593	0.35842	0.85497	0.447
Mof_C 	C 	0.36118	0.36866	0.8533	-0.178
Mof_C 	C 	0.34877	0.40834	0.85693	0.097
Mof_H 	H 	0.3685	0.4286	0.8604	-0.012
Mof_C 	C 	0.30831	0.41966	0.8556	-0.142
Mof_C 	C 	0.2793	0.3894	0.8486	0.071
Mof_H 	H 	0.2517	0.3963	0.8462	0.016
Mof_C 	C 	0.2914	0.3491	0.8451	-0.152
Mof_H 	H 	0.2718	0.3288	0.8413	0.082
Mof_C 	C 	0.3317	0.3388	0.8473	0.094
Mof_H 	H 	0.3395	0.3116	0.8447	0.008
Mof_C 	C 	0.324	0.4442	0.1089	0.379
Mof_C 	C 	0.353	0.4772	0.0982	-0.147
Mof_C 	C 	0.34727	0.49964	0.06308	0.065
Mof_H 	H 	0.3254	0.4933	0.046	0.034
Mof_C 	C 	0.37357	0.53179	0.05232	-0.118
Mof_C 	C 	0.4062	0.5396	0.0777	0.053
Mof_H 	H 	0.424	0.5608	0.0713	0.008
Mof_C 	C 	0.413	0.5173	0.1118	-0.125
Mof_H 	H 	0.4352	0.5236	0.1285	0.072
Mof_C 	C 	0.3872	0.4851	0.122	0.065
Mof_H 	H 	0.3929	0.4689	0.1448	0.013
Mof_Zn	Zn	0.30822	0.4743	0.63752	1.234
Mof_Zn	Zn	0.13793	0.51693	0.58404	1.234
Mof_P 	P 	0.20419	0.47319	0.63841	0.498
Mof_P 	P 	0.13521	0.55876	0.49524	0.473
Mof_O 	O 	0.08417	0.32152	0.64483	-0.487
Mof_O 	O 	0.06999	0.38777	0.64344	-0.529
Mof_O 	O 	0.24992	0.47771	0.63893	-0.44
Mof_O 	O 	0.18447	0.49519	0.67393	-0.469
Mof_O 	O 	0.18623	0.48603	0.59745	-0.457
Mof_O 	O 	0.20613	0.4386	0.4146	-0.498
Mof_O 	O 	0.1725	0.4256	0.3582	-0.387
Mof_O 	O 	0.14134	0.52519	0.52677	-0.437
Mof_O 	O 	0.17394	0.58365	0.49114	-0.466
Mof_O 	O 	0.09788	0.58485	0.50428	-0.472
Mof_C 	C 	0.09407	0.35842	0.64503	0.447
Mof_C 	C 	0.13882	0.36866	0.6467	-0.178
Mof_C 	C 	0.15123	0.40834	0.64307	0.097
Mof_H 	H 	0.1315	0.4286	0.6396	-0.012
Mof_C 	C 	0.19169	0.41966	0.6444	-0.142
Mof_C 	C 	0.2207	0.3894	0.6514	0.071
Mof_H 	H 	0.2483	0.3963	0.6538	0.016
Mof_C 	C 	0.2086	0.3491	0.6549	-0.152
Mof_H 	H 	0.2282	0.3288	0.6587	0.082
Mof_C 	C 	0.1683	0.3388	0.6527	0.094
Mof_H 	H 	0.1605	0.3116	0.6553	0.008
Mof_C 	C 	0.176	0.4442	0.3911	0.379
Mof_C 	C 	0.147	0.4772	0.4018	-0.147
Mof_C 	C 	0.15273	0.49964	0.43692	0.065
Mof_H 	H 	0.1746	0.4933	0.454	0.034
Mof_C 	C 	0.12643	0.53179	0.44768	-0.118
Mof_C 	C 	0.0938	0.5396	0.4223	0.053
Mof_H 	H 	0.076	0.5608	0.4287	0.008
Mof_C 	C 	0.087	0.5173	0.3882	-0.125
Mof_H 	H 	0.0648	0.5236	0.3715	0.072
Mof_C 	C 	0.1128	0.4851	0.378	0.065
Mof_H 	H 	0.1071	0.4689	0.3552	0.013
Mof_Zn	Zn	0.0257	0.63752	0.19178	1.234
Mof_Zn	Zn	0.98307	0.58404	0.36207	1.234
Mof_P 	P 	0.02681	0.63841	0.29581	0.498
Mof_P 	P 	0.94124	0.49524	0.36479	0.473
Mof_O 	O 	0.17848	0.64483	0.41583	-0.487
Mof_O 	O 	0.11223	0.64344	0.43001	-0.529
Mof_O 	O 	0.02229	0.63893	0.25008	-0.44
Mof_O 	O 	0.00481	0.67393	0.31553	-0.469
Mof_O 	O 	0.01397	0.59745	0.31377	-0.457
Mof_O 	O 	0.0614	0.4146	0.29387	-0.498
Mof_O 	O 	0.0744	0.3582	0.3275	-0.387
Mof_O 	O 	0.97481	0.52677	0.35866	-0.437
Mof_O 	O 	0.91635	0.49114	0.32606	-0.466
Mof_O 	O 	0.91515	0.50428	0.40212	-0.472
Mof_C 	C 	0.14158	0.64503	0.40593	0.447
Mof_C 	C 	0.13134	0.6467	0.36118	-0.178
Mof_C 	C 	0.09166	0.64307	0.34877	0.097
Mof_H 	H 	0.0714	0.6396	0.3685	-0.012
Mof_C 	C 	0.08034	0.6444	0.30831	-0.142
Mof_C 	C 	0.1106	0.6514	0.2793	0.071
Mof_H 	H 	0.1037	0.6538	0.2517	0.016
Mof_C 	C 	0.1509	0.6549	0.2914	-0.152
Mof_H 	H 	0.1712	0.6587	0.2718	0.082
Mof_C 	C 	0.1612	0.6527	0.3317	0.094
Mof_H 	H 	0.1884	0.6553	0.3395	0.008
Mof_C 	C 	0.0558	0.3911	0.324	0.378
Mof_C 	C 	0.0228	0.4018	0.353	-0.147
Mof_C 	C 	0.00036	0.43692	0.34727	0.065
Mof_H 	H 	0.0067	0.454	0.3254	0.034
Mof_C 	C 	0.96821	0.44768	0.37357	-0.117
Mof_C 	C 	0.9604	0.4223	0.4062	0.053
Mof_H 	H 	0.9392	0.4287	0.424	0.008
Mof_C 	C 	0.9827	0.3882	0.413	-0.125
Mof_H 	H 	0.9764	0.3715	0.4352	0.072
Mof_C 	C 	0.0149	0.378	0.3872	0.064
Mof_H 	H 	0.0311	0.3552	0.3929	0.013
Mof_Zn	Zn	0.0257	0.86248	0.30822	1.234
Mof_Zn	Zn	0.98307	0.91596	0.13793	1.234
Mof_P 	P 	0.02681	0.86159	0.20419	0.498
Mof_P 	P 	0.94124	0.00476	0.13521	0.473
Mof_O 	O 	0.17848	0.85517	0.08417	-0.487
Mof_O 	O 	0.11223	0.85656	0.06999	-0.529
Mof_O 	O 	0.02229	0.86107	0.24992	-0.44
Mof_O 	O 	0.00481	0.82607	0.18447	-0.469
Mof_O 	O 	0.01397	0.90255	0.18623	-0.457
Mof_O 	O 	0.0614	0.0854	0.20613	-0.498
Mof_O 	O 	0.0744	0.1418	0.1725	-0.387
Mof_O 	O 	0.97481	0.97323	0.14134	-0.437
Mof_O 	O 	0.91635	0.00886	0.17394	-0.466
Mof_O 	O 	0.91515	0.99572	0.09788	-0.472
Mof_C 	C 	0.14158	0.85497	0.09407	0.447
Mof_C 	C 	0.13134	0.8533	0.13882	-0.178
Mof_C 	C 	0.09166	0.85693	0.15123	0.097
Mof_H 	H 	0.0714	0.8604	0.1315	-0.012
Mof_C 	C 	0.08034	0.8556	0.19169	-0.142
Mof_C 	C 	0.1106	0.8486	0.2207	0.071
Mof_H 	H 	0.1037	0.8462	0.2483	0.016
Mof_C 	C 	0.1509	0.8451	0.2086	-0.152
Mof_H 	H 	0.1712	0.8413	0.2282	0.082
Mof_C 	C 	0.1612	0.8473	0.1683	0.094
Mof_H 	H 	0.1884	0.8447	0.1605	0.008
Mof_C 	C 	0.0558	0.1089	0.176	0.378
Mof_C 	C 	0.0228	0.0982	0.147	-0.147
Mof_C 	C 	0.00036	0.06308	0.15273	0.064
Mof_H 	H 	0.0067	0.046	0.1746	0.035
Mof_C 	C 	0.96821	0.05232	0.12643	-0.117
Mof_C 	C 	0.9604	0.0777	0.0938	0.052
Mof_H 	H 	0.9392	0.0713	0.076	0.009
Mof_C 	C 	0.9827	0.1118	0.087	-0.125
Mof_H 	H 	0.9764	0.1285	0.0648	0.072
Mof_C 	C 	0.0149	0.122	0.1128	0.064
Mof_H 	H 	0.0311	0.1448	0.1071	0.013
Mof_Zn	Zn	0.4743	0.63752	0.30822	1.234
Mof_Zn	Zn	0.51693	0.58404	0.13793	1.234
Mof_P 	P 	0.47319	0.63841	0.20419	0.498
Mof_P 	P 	0.55876	0.49524	0.13521	0.473
Mof_O 	O 	0.32152	0.64483	0.08417	-0.487
Mof_O 	O 	0.38777	0.64344	0.06999	-0.529
Mof_O 	O 	0.47771	0.63893	0.24992	-0.44
Mof_O 	O 	0.49519	0.67393	0.18447	-0.469
Mof_O 	O 	0.48603	0.59745	0.18623	-0.457
Mof_O 	O 	0.4386	0.4146	0.20613	-0.498
Mof_O 	O 	0.4256	0.3582	0.1725	-0.387
Mof_O 	O 	0.52519	0.52677	0.14134	-0.437
Mof_O 	O 	0.58365	0.49114	0.17394	-0.466
Mof_O 	O 	0.58485	0.50428	0.09788	-0.472
Mof_C 	C 	0.35842	0.64503	0.09407	0.447
Mof_C 	C 	0.36866	0.6467	0.13882	-0.178
Mof_C 	C 	0.40834	0.64307	0.15123	0.097
Mof_H 	H 	0.4286	0.6396	0.1315	-0.012
Mof_C 	C 	0.41966	0.6444	0.19169	-0.142
Mof_C 	C 	0.3894	0.6514	0.2207	0.071
Mof_H 	H 	0.3963	0.6538	0.2483	0.016
Mof_C 	C 	0.3491	0.6549	0.2086	-0.152
Mof_H 	H 	0.3288	0.6587	0.2282	0.082
Mof_C 	C 	0.3388	0.6527	0.1683	0.094
Mof_H 	H 	0.3116	0.6553	0.1605	0.008
Mof_C 	C 	0.4442	0.3911	0.176	0.379
Mof_C 	C 	0.4772	0.4018	0.147	-0.147
Mof_C 	C 	0.49964	0.43692	0.15273	0.065
Mof_H 	H 	0.4933	0.454	0.1746	0.034
Mof_C 	C 	0.53179	0.44768	0.12643	-0.118
Mof_C 	C 	0.5396	0.4223	0.0938	0.053
Mof_H 	H 	0.5608	0.4287	0.076	0.008
Mof_C 	C 	0.5173	0.3882	0.087	-0.125
Mof_H 	H 	0.5236	0.3715	0.0648	0.072
Mof_C 	C 	0.4851	0.378	0.1128	0.065
Mof_H 	H 	0.4689	0.3552	0.1071	0.013
Mof_Zn	Zn	0.4743	0.86248	0.19178	1.234
Mof_Zn	Zn	0.51693	0.91596	0.36207	1.234
Mof_P 	P 	0.47319	0.86159	0.29581	0.498
Mof_P 	P 	0.55876	0.00476	0.36479	0.473
Mof_O 	O 	0.32152	0.85517	0.41583	-0.487
Mof_O 	O 	0.38777	0.85656	0.43001	-0.529
Mof_O 	O 	0.47771	0.86107	0.25008	-0.44
Mof_O 	O 	0.49519	0.82607	0.31553	-0.469
Mof_O 	O 	0.48603	0.90255	0.31377	-0.457
Mof_O 	O 	0.4386	0.0854	0.29387	-0.498
Mof_O 	O 	0.4256	0.1418	0.3275	-0.387
Mof_O 	O 	0.52519	0.97323	0.35866	-0.437
Mof_O 	O 	0.58365	0.00886	0.32606	-0.466
Mof_O 	O 	0.58485	0.99572	0.40212	-0.472
Mof_C 	C 	0.35842	0.85497	0.40593	0.447
Mof_C 	C 	0.36866	0.8533	0.36118	-0.178
Mof_C 	C 	0.40834	0.85693	0.34877	0.097
Mof_H 	H 	0.4286	0.8604	0.3685	-0.012
Mof_C 	C 	0.41966	0.8556	0.30831	-0.142
Mof_C 	C 	0.3894	0.8486	0.2793	0.071
Mof_H 	H 	0.3963	0.8462	0.2517	0.016
Mof_C 	C 	0.3491	0.8451	0.2914	-0.152
Mof_H 	H 	0.3288	0.8413	0.2718	0.082
Mof_C 	C 	0.3388	0.8473	0.3317	0.094
Mof_H 	H 	0.3116	0.8447	0.3395	0.008
Mof_C 	C 	0.4442	0.1089	0.324	0.379
Mof_C 	C 	0.4772	0.0982	0.353	-0.147
Mof_C 	C 	0.49964	0.06308	0.34727	0.065
Mof_H 	H 	0.4933	0.046	0.3254	0.034
Mof_C 	C 	0.53179	0.05232	0.37357	-0.118
Mof_C 	C 	0.5396	0.0777	0.4062	0.053
Mof_H 	H 	0.5608	0.0713	0.424	0.008
Mof_C 	C 	0.5173	0.1118	0.413	-0.125
Mof_H 	H 	0.5236	0.1285	0.4352	0.072
Mof_C 	C 	0.4851	0.122	0.3872	0.065
Mof_H 	H 	0.4689	0.1448	0.3929	0.013
Mof_Zn	Zn	0.69178	0.36248	0.9743	1.234
Mof_Zn	Zn	0.86207	0.41596	0.01693	1.234
Mof_P 	P 	0.79581	0.36159	0.97319	0.498
Mof_P 	P 	0.86479	0.50476	0.05876	0.473
Mof_O 	O 	0.91583	0.35517	0.82152	-0.487
Mof_O 	O 	0.93001	0.35656	0.88777	-0.529
Mof_O 	O 	0.75008	0.36107	0.97771	-0.44
Mof_O 	O 	0.81553	0.32607	0.99519	-0.469
Mof_O 	O 	0.81377	0.40255	0.98603	-0.457
Mof_O 	O 	0.79387	0.5854	0.9386	-0.498
Mof_O 	O 	0.8275	0.6418	0.9256	-0.387
Mof_O 	O 	0.85866	0.47323	0.02519	-0.437
Mof_O 	O 	0.82606	0.50886	0.08365	-0.466
Mof_O 	O 	0.90212	0.49572	0.08485	-0.472
Mof_C 	C 	0.90593	0.35497	0.85842	0.447
Mof_C 	C 	0.86118	0.3533	0.86866	-0.178
Mof_C 	C 	0.84877	0.35693	0.90834	0.097
Mof_H 	H 	0.8685	0.3604	0.9286	-0.012
Mof_C 	C 	0.80831	0.3556	0.91966	-0.142
Mof_C 	C 	0.7793	0.3486	0.8894	0.071
Mof_H 	H 	0.7517	0.3462	0.8963	0.016
Mof_C 	C 	0.7914	0.3451	0.8491	-0.152
Mof_H 	H 	0.7718	0.3413	0.8288	0.082
Mof_C 	C 	0.8317	0.3473	0.8388	0.094
Mof_H 	H 	0.8395	0.3447	0.8116	0.008
Mof_C 	C 	0.824	0.6089	0.9442	0.378
Mof_C 	C 	0.853	0.5982	0.9772	-0.147
Mof_C 	C 	0.84727	0.56308	0.99964	0.065
Mof_H 	H 	0.8254	0.546	0.9933	0.035
Mof_C 	C 	0.87357	0.55232	0.03179	-0.117
Mof_C 	C 	0.9062	0.5777	0.0396	0.053
Mof_H 	H 	0.924	0.5713	0.0608	0.008
Mof_C 	C 	0.913	0.6118	0.0173	-0.125
Mof_H 	H 	0.9352	0.6285	0.0236	0.072
Mof_C 	C 	0.8872	0.622	0.9851	0.064
Mof_H 	H 	0.8929	0.6448	0.9689	0.013
Mof_Zn	Zn	0.80822	0.13752	0.9743	1.234
Mof_Zn	Zn	0.63793	0.08404	0.01693	1.234
Mof_P 	P 	0.70419	0.13841	0.97319	0.498
Mof_P 	P 	0.63521	0.99524	0.05876	0.473
Mof_O 	O 	0.58417	0.14483	0.82152	-0.487
Mof_O 	O 	0.56999	0.14344	0.88777	-0.529
Mof_O 	O 	0.74992	0.13893	0.97771	-0.44
Mof_O 	O 	0.68447	0.17393	0.99519	-0.469
Mof_O 	O 	0.68623	0.09745	0.98603	-0.457
Mof_O 	O 	0.70613	0.9146	0.9386	-0.498
Mof_O 	O 	0.6725	0.8582	0.9256	-0.387
Mof_O 	O 	0.64134	0.02677	0.02519	-0.437
Mof_O 	O 	0.67394	0.99114	0.08365	-0.466
Mof_O 	O 	0.59788	0.00428	0.08485	-0.472
Mof_C 	C 	0.59407	0.14503	0.85842	0.447
Mof_C 	C 	0.63882	0.1467	0.86866	-0.178
Mof_C 	C 	0.65123	0.14307	0.90834	0.097
Mof_H 	H 	0.6315	0.1396	0.9286	-0.012
Mof_C 	C 	0.69169	0.1444	0.91966	-0.142
Mof_C 	C 	0.7207	0.1514	0.8894	0.071
Mof_H 	H 	0.7483	0.1538	0.8963	0.016
Mof_C 	C 	0.7086	0.1549	0.8491	-0.152
Mof_H 	H 	0.7282	0.1587	0.8288	0.082
Mof_C 	C 	0.6683	0.1527	0.8388	0.094
Mof_H 	H 	0.6605	0.1553	0.8116	0.008
Mof_C 	C 	0.676	0.8911	0.9442	0.378
Mof_C 	C 	0.647	0.9018	0.9772	-0.147
Mof_C 	C 	0.65273	0.93692	0.99964	0.064
Mof_H 	H 	0.6746	0.954	0.9933	0.034
Mof_C 	C 	0.62643	0.94768	0.03179	-0.117
Mof_C 	C 	0.5938	0.9223	0.0396	0.053
Mof_H 	H 	0.576	0.9287	0.0608	0.008
Mof_C 	C 	0.587	0.8882	0.0173	-0.125
Mof_H 	H 	0.5648	0.8715	0.0236	0.072
Mof_C 	C 	0.6128	0.878	0.9851	0.064
Mof_H 	H 	0.6071	0.8552	0.9689	0.013
Mof_Zn	Zn	0.80822	0.36248	0.5257	1.234
Mof_Zn	Zn	0.63793	0.41596	0.48307	1.234
Mof_P 	P 	0.70419	0.36159	0.52681	0.498
Mof_P 	P 	0.63521	0.50476	0.44124	0.473
Mof_O 	O 	0.58417	0.35517	0.67848	-0.487
Mof_O 	O 	0.56999	0.35656	0.61223	-0.529
Mof_O 	O 	0.74992	0.36107	0.52229	-0.44
Mof_O 	O 	0.68447	0.32607	0.50481	-0.469
Mof_O 	O 	0.68623	0.40255	0.51397	-0.457
Mof_O 	O 	0.70613	0.5854	0.5614	-0.498
Mof_O 	O 	0.6725	0.6418	0.5744	-0.387
Mof_O 	O 	0.64134	0.47323	0.47481	-0.437
Mof_O 	O 	0.67394	0.50886	0.41635	-0.466
Mof_O 	O 	0.59788	0.49572	0.41515	-0.472
Mof_C 	C 	0.59407	0.35497	0.64158	0.447
Mof_C 	C 	0.63882	0.3533	0.63134	-0.178
Mof_C 	C 	0.65123	0.35693	0.59166	0.097
Mof_H 	H 	0.6315	0.3604	0.5714	-0.012
Mof_C 	C 	0.69169	0.3556	0.58034	-0.142
Mof_C 	C 	0.7207	0.3486	0.6106	0.071
Mof_H 	H 	0.7483	0.3462	0.6037	0.016
Mof_C 	C 	0.7086	0.3451	0.6509	-0.152
Mof_H 	H 	0.7282	0.3413	0.6712	0.082
Mof_C 	C 	0.6683	0.3473	0.6612	0.094
Mof_H 	H 	0.6605	0.3447	0.6884	0.008
Mof_C 	C 	0.676	0.6089	0.5558	0.379
Mof_C 	C 	0.647	0.5982	0.5228	-0.147
Mof_C 	C 	0.65273	0.56308	0.50036	0.065
Mof_H 	H 	0.6746	0.546	0.5067	0.034
Mof_C 	C 	0.62643	0.55232	0.46821	-0.118
Mof_C 	C 	0.5938	0.5777	0.4604	0.053
Mof_H 	H 	0.576	0.5713	0.4392	0.008
Mof_C 	C 	0.587	0.6118	0.4827	-0.125
Mof_H 	H 	0.5648	0.6285	0.4764	0.072
Mof_C 	C 	0.6128	0.622	0.5149	0.065
Mof_H 	H 	0.6071	0.6448	0.5311	0.013
Mof_Zn	Zn	0.69178	0.13752	0.5257	1.234
Mof_Zn	Zn	0.86207	0.08404	0.48307	1.234
Mof_P 	P 	0.79581	0.13841	0.52681	0.498
Mof_P 	P 	0.86479	0.99524	0.44124	0.473
Mof_O 	O 	0.91583	0.14483	0.67848	-0.487
Mof_O 	O 	0.93001	0.14344	0.61223	-0.529
Mof_O 	O 	0.75008	0.13893	0.52229	-0.44
Mof_O 	O 	0.81553	0.17393	0.50481	-0.469
Mof_O 	O 	0.81377	0.09745	0.51397	-0.457
Mof_O 	O 	0.79387	0.9146	0.5614	-0.498
Mof_O 	O 	0.8275	0.8582	0.5744	-0.387
Mof_O 	O 	0.85866	0.02677	0.47481	-0.437
Mof_O 	O 	0.82606	0.99114	0.41635	-0.466
Mof_O 	O 	0.90212	0.00428	0.41515	-0.472
Mof_C 	C 	0.90593	0.14503	0.64158	0.447
Mof_C 	C 	0.86118	0.1467	0.63134	-0.178
Mof_C 	C 	0.84877	0.14307	0.59166	0.097
Mof_H 	H 	0.8685	0.1396	0.5714	-0.012
Mof_C 	C 	0.80831	0.1444	0.58034	-0.142
Mof_C 	C 	0.7793	0.1514	0.6106	0.071
Mof_H 	H 	0.7517	0.1538	0.6037	0.016
Mof_C 	C 	0.7914	0.1549	0.6509	-0.152
Mof_H 	H 	0.7718	0.1587	0.6712	0.082
Mof_C 	C 	0.8317	0.1527	0.6612	0.094
Mof_H 	H 	0.8395	0.1553	0.6884	0.008
Mof_C 	C 	0.824	0.8911	0.5558	0.379
Mof_C 	C 	0.853	0.9018	0.5228	-0.147
Mof_C 	C 	0.84727	0.93692	0.50036	0.065
Mof_H 	H 	0.8254	0.954	0.5067	0.034
Mof_C 	C 	0.87357	0.94768	0.46821	-0.118
Mof_C 	C 	0.9062	0.9223	0.4604	0.053
Mof_H 	H 	0.924	0.9287	0.4392	0.008
Mof_C 	C 	0.913	0.8882	0.4827	-0.125
Mof_H 	H 	0.9352	0.8715	0.4764	0.072
Mof_C 	C 	0.8872	0.878	0.5149	0.065
Mof_H 	H 	0.8929	0.8552	0.5311	0.013
Mof_Zn	Zn	0.9743	0.69178	0.36248	1.234
Mof_Zn	Zn	0.01693	0.86207	0.41596	1.234
Mof_P 	P 	0.97319	0.79581	0.36159	0.498
Mof_P 	P 	0.05876	0.86479	0.50476	0.473
Mof_O 	O 	0.82152	0.91583	0.35517	-0.487
Mof_O 	O 	0.88777	0.93001	0.35656	-0.529
Mof_O 	O 	0.97771	0.75008	0.36107	-0.44
Mof_O 	O 	0.99519	0.81553	0.32607	-0.469
Mof_O 	O 	0.98603	0.81377	0.40255	-0.457
Mof_O 	O 	0.9386	0.79387	0.5854	-0.498
Mof_O 	O 	0.9256	0.8275	0.6418	-0.387
Mof_O 	O 	0.02519	0.85866	0.47323	-0.437
Mof_O 	O 	0.08365	0.82606	0.50886	-0.466
Mof_O 	O 	0.08485	0.90212	0.49572	-0.472
Mof_C 	C 	0.85842	0.90593	0.35497	0.447
Mof_C 	C 	0.86866	0.86118	0.3533	-0.178
Mof_C 	C 	0.90834	0.84877	0.35693	0.097
Mof_H 	H 	0.9286	0.8685	0.3604	-0.012
Mof_C 	C 	0.91966	0.80831	0.3556	-0.142
Mof_C 	C 	0.8894	0.7793	0.3486	0.071
Mof_H 	H 	0.8963	0.7517	0.3462	0.016
Mof_C 	C 	0.8491	0.7914	0.3451	-0.152
Mof_H 	H 	0.8288	0.7718	0.3413	0.082
Mof_C 	C 	0.8388	0.8317	0.3473	0.094
Mof_H 	H 	0.8116	0.8395	0.3447	0.008
Mof_C 	C 	0.9442	0.824	0.6089	0.378
Mof_C 	C 	0.9772	0.853	0.5982	-0.147
Mof_C 	C 	0.99964	0.84727	0.56308	0.065
Mof_H 	H 	0.9933	0.8254	0.546	0.035
Mof_C 	C 	0.03179	0.87357	0.55232	-0.117
Mof_C 	C 	0.0396	0.9062	0.5777	0.053
Mof_H 	H 	0.0608	0.924	0.5713	0.008
Mof_C 	C 	0.0173	0.913	0.6118	-0.125
Mof_H 	H 	0.0236	0.9352	0.6285	0.072
Mof_C 	C 	0.9851	0.8872	0.622	0.064
Mof_H 	H 	0.9689	0.8929	0.6448	0.013
Mof_Zn	Zn	0.9743	0.80822	0.13752	1.234
Mof_Zn	Zn	0.01693	0.63793	0.08404	1.234
Mof_P 	P 	0.97319	0.70419	0.13841	0.498
Mof_P 	P 	0.05876	0.63521	0.99524	0.473
Mof_O 	O 	0.82152	0.58417	0.14483	-0.487
Mof_O 	O 	0.88777	0.56999	0.14344	-0.529
Mof_O 	O 	0.97771	0.74992	0.13893	-0.44
Mof_O 	O 	0.99519	0.68447	0.17393	-0.469
Mof_O 	O 	0.98603	0.68623	0.09745	-0.457
Mof_O 	O 	0.9386	0.70613	0.9146	-0.498
Mof_O 	O 	0.9256	0.6725	0.8582	-0.387
Mof_O 	O 	0.02519	0.64134	0.02677	-0.437
Mof_O 	O 	0.08365	0.67394	0.99114	-0.466
Mof_O 	O 	0.08485	0.59788	0.00428	-0.472
Mof_C 	C 	0.85842	0.59407	0.14503	0.447
Mof_C 	C 	0.86866	0.63882	0.1467	-0.178
Mof_C 	C 	0.90834	0.65123	0.14307	0.097
Mof_H 	H 	0.9286	0.6315	0.1396	-0.012
Mof_C 	C 	0.91966	0.69169	0.1444	-0.142
Mof_C 	C 	0.8894	0.7207	0.1514	0.071
Mof_H 	H 	0.8963	0.7483	0.1538	0.016
Mof_C 	C 	0.8491	0.7086	0.1549	-0.152
Mof_H 	H 	0.8288	0.7282	0.1587	0.082
Mof_C 	C 	0.8388	0.6683	0.1527	0.094
Mof_H 	H 	0.8116	0.6605	0.1553	0.008
Mof_C 	C 	0.9442	0.676	0.8911	0.378
Mof_C 	C 	0.9772	0.647	0.9018	-0.147
Mof_C 	C 	0.99964	0.65273	0.93692	0.064
Mof_H 	H 	0.9933	0.6746	0.954	0.034
Mof_C 	C 	0.03179	0.62643	0.94768	-0.117
Mof_C 	C 	0.0396	0.5938	0.9223	0.053
Mof_H 	H 	0.0608	0.576	0.9287	0.008
Mof_C 	C 	0.0173	0.587	0.8882	-0.125
Mof_H 	H 	0.0236	0.5648	0.8715	0.072
Mof_C 	C 	0.9851	0.6128	0.878	0.064
Mof_H 	H 	0.9689	0.6071	0.8552	0.013
Mof_Zn	Zn	0.5257	0.80822	0.36248	1.234
Mof_Zn	Zn	0.48307	0.63793	0.41596	1.234
Mof_P 	P 	0.52681	0.70419	0.36159	0.498
Mof_P 	P 	0.44124	0.63521	0.50476	0.473
Mof_O 	O 	0.67848	0.58417	0.35517	-0.487
Mof_O 	O 	0.61223	0.56999	0.35656	-0.529
Mof_O 	O 	0.52229	0.74992	0.36107	-0.44
Mof_O 	O 	0.50481	0.68447	0.32607	-0.469
Mof_O 	O 	0.51397	0.68623	0.40255	-0.457
Mof_O 	O 	0.5614	0.70613	0.5854	-0.498
Mof_O 	O 	0.5744	0.6725	0.6418	-0.387
Mof_O 	O 	0.47481	0.64134	0.47323	-0.437
Mof_O 	O 	0.41635	0.67394	0.50886	-0.466
Mof_O 	O 	0.41515	0.59788	0.49572	-0.472
Mof_C 	C 	0.64158	0.59407	0.35497	0.447
Mof_C 	C 	0.63134	0.63882	0.3533	-0.178
Mof_C 	C 	0.59166	0.65123	0.35693	0.097
Mof_H 	H 	0.5714	0.6315	0.3604	-0.012
Mof_C 	C 	0.58034	0.69169	0.3556	-0.142
Mof_C 	C 	0.6106	0.7207	0.3486	0.071
Mof_H 	H 	0.6037	0.7483	0.3462	0.016
Mof_C 	C 	0.6509	0.7086	0.3451	-0.152
Mof_H 	H 	0.6712	0.7282	0.3413	0.082
Mof_C 	C 	0.6612	0.6683	0.3473	0.094
Mof_H 	H 	0.6884	0.6605	0.3447	0.008
Mof_C 	C 	0.5558	0.676	0.6089	0.379
Mof_C 	C 	0.5228	0.647	0.5982	-0.147
Mof_C 	C 	0.50036	0.65273	0.56308	0.065
Mof_H 	H 	0.5067	0.6746	0.546	0.034
Mof_C 	C 	0.46821	0.62643	0.55232	-0.118
Mof_C 	C 	0.4604	0.5938	0.5777	0.053
Mof_H 	H 	0.4392	0.576	0.5713	0.008
Mof_C 	C 	0.4827	0.587	0.6118	-0.125
Mof_H 	H 	0.4764	0.5648	0.6285	0.072
Mof_C 	C 	0.5149	0.6128	0.622	0.065
Mof_H 	H 	0.5311	0.6071	0.6448	0.013
Mof_Zn	Zn	0.5257	0.69178	0.13752	1.234
Mof_Zn	Zn	0.48307	0.86207	0.08404	1.234
Mof_P 	P 	0.52681	0.79581	0.13841	0.498
Mof_P 	P 	0.44124	0.86479	0.99524	0.473
Mof_O 	O 	0.67848	0.91583	0.14483	-0.487
Mof_O 	O 	0.61223	0.93001	0.14344	-0.529
Mof_O 	O 	0.52229	0.75008	0.13893	-0.44
Mof_O 	O 	0.50481	0.81553	0.17393	-0.469
Mof_O 	O 	0.51397	0.81377	0.09745	-0.457
Mof_O 	O 	0.5614	0.79387	0.9146	-0.498
Mof_O 	O 	0.5744	0.8275	0.8582	-0.387
Mof_O 	O 	0.47481	0.85866	0.02677	-0.437
Mof_O 	O 	0.41635	0.82606	0.99114	-0.466
Mof_O 	O 	0.41515	0.90212	0.00428	-0.472
Mof_C 	C 	0.64158	0.90593	0.14503	0.447
Mof_C 	C 	0.63134	0.86118	0.1467	-0.178
Mof_C 	C 	0.59166	0.84877	0.14307	0.097
Mof_H 	H 	0.5714	0.8685	0.1396	-0.012
Mof_C 	C 	0.58034	0.80831	0.1444	-0.142
Mof_C 	C 	0.6106	0.7793	0.1514	0.071
Mof_H 	H 	0.6037	0.7517	0.1538	0.016
Mof_C 	C 	0.6509	0.7914	0.1549	-0.152
Mof_H 	H 	0.6712	0.7718	0.1587	0.082
Mof_C 	C 	0.6612	0.8317	0.1527	0.094
Mof_H 	H 	0.6884	0.8395	0.1553	0.008
Mof_C 	C 	0.5558	0.824	0.8911	0.379
Mof_C 	C 	0.5228	0.853	0.9018	-0.147
Mof_C 	C 	0.50036	0.84727	0.93692	0.065
Mof_H 	H 	0.5067	0.8254	0.954	0.034
Mof_C 	C 	0.46821	0.87357	0.94768	-0.118
Mof_C 	C 	0.4604	0.9062	0.9223	0.053
Mof_H 	H 	0.4392	0.924	0.9287	0.008
Mof_C 	C 	0.4827	0.913	0.8882	-0.125
Mof_H 	H 	0.4764	0.9352	0.8715	0.072
Mof_C 	C 	0.5149	0.8872	0.878	0.065
Mof_H 	H 	0.5311	0.8929	0.8552	0.013
Mof_Zn	Zn	0.36248	0.9743	0.69178	1.234
Mof_Zn	Zn	0.41596	0.01693	0.86207	1.234
Mof_P 	P 	0.36159	0.97319	0.79581	0.498
Mof_P 	P 	0.50476	0.05876	0.86479	0.473
Mof_O 	O 	0.35517	0.82152	0.91583	-0.487
Mof_O 	O 	0.35656	0.88777	0.93001	-0.529
Mof_O 	O 	0.36107	0.97771	0.75008	-0.44
Mof_O 	O 	0.32607	0.99519	0.81553	-0.469
Mof_O 	O 	0.40255	0.98603	0.81377	-0.457
Mof_O 	O 	0.5854	0.9386	0.79387	-0.498
Mof_O 	O 	0.6418	0.9256	0.8275	-0.387
Mof_O 	O 	0.47323	0.02519	0.85866	-0.437
Mof_O 	O 	0.50886	0.08365	0.82606	-0.466
Mof_O 	O 	0.49572	0.08485	0.90212	-0.472
Mof_C 	C 	0.35497	0.85842	0.90593	0.447
Mof_C 	C 	0.3533	0.86866	0.86118	-0.178
Mof_C 	C 	0.35693	0.90834	0.84877	0.097
Mof_H 	H 	0.3604	0.9286	0.8685	-0.012
Mof_C 	C 	0.3556	0.91966	0.80831	-0.142
Mof_C 	C 	0.3486	0.8894	0.7793	0.071
Mof_H 	H 	0.3462	0.8963	0.7517	0.016
Mof_C 	C 	0.3451	0.8491	0.7914	-0.152
Mof_H 	H 	0.3413	0.8288	0.7718	0.082
Mof_C 	C 	0.3473	0.8388	0.8317	0.094
Mof_H 	H 	0.3447	0.8116	0.8395	0.008
Mof_C 	C 	0.6089	0.9442	0.824	0.378
Mof_C 	C 	0.5982	0.9772	0.853	-0.147
Mof_C 	C 	0.56308	0.99964	0.84727	0.065
Mof_H 	H 	0.546	0.9933	0.8254	0.035
Mof_C 	C 	0.55232	0.03179	0.87357	-0.117
Mof_C 	C 	0.5777	0.0396	0.9062	0.053
Mof_H 	H 	0.5713	0.0608	0.924	0.008
Mof_C 	C 	0.6118	0.0173	0.913	-0.125
Mof_H 	H 	0.6285	0.0236	0.9352	0.072
Mof_C 	C 	0.622	0.9851	0.8872	0.064
Mof_H 	H 	0.6448	0.9689	0.8929	0.013
Mof_Zn	Zn	0.13752	0.9743	0.80822	1.234
Mof_Zn	Zn	0.08404	0.01693	0.63793	1.234
Mof_P 	P 	0.13841	0.97319	0.70419	0.498
Mof_P 	P 	0.99524	0.05876	0.63521	0.473
Mof_O 	O 	0.14483	0.82152	0.58417	-0.487
Mof_O 	O 	0.14344	0.88777	0.56999	-0.529
Mof_O 	O 	0.13893	0.97771	0.74992	-0.44
Mof_O 	O 	0.17393	0.99519	0.68447	-0.469
Mof_O 	O 	0.09745	0.98603	0.68623	-0.457
Mof_O 	O 	0.9146	0.9386	0.70613	-0.498
Mof_O 	O 	0.8582	0.9256	0.6725	-0.387
Mof_O 	O 	0.02677	0.02519	0.64134	-0.437
Mof_O 	O 	0.99114	0.08365	0.67394	-0.466
Mof_O 	O 	0.00428	0.08485	0.59788	-0.472
Mof_C 	C 	0.14503	0.85842	0.59407	0.447
Mof_C 	C 	0.1467	0.86866	0.63882	-0.178
Mof_C 	C 	0.14307	0.90834	0.65123	0.097
Mof_H 	H 	0.1396	0.9286	0.6315	-0.012
Mof_C 	C 	0.1444	0.91966	0.69169	-0.142
Mof_C 	C 	0.1514	0.8894	0.7207	0.071
Mof_H 	H 	0.1538	0.8963	0.7483	0.016
Mof_C 	C 	0.1549	0.8491	0.7086	-0.152
Mof_H 	H 	0.1587	0.8288	0.7282	0.082
Mof_C 	C 	0.1527	0.8388	0.6683	0.094
Mof_H 	H 	0.1553	0.8116	0.6605	0.008
Mof_C 	C 	0.8911	0.9442	0.676	0.378
Mof_C 	C 	0.9018	0.9772	0.647	-0.147
Mof_C 	C 	0.93692	0.99964	0.65273	0.064
Mof_H 	H 	0.954	0.9933	0.6746	0.034
Mof_C 	C 	0.94768	0.03179	0.62643	-0.117
Mof_C 	C 	0.9223	0.0396	0.5938	0.053
Mof_H 	H 	0.9287	0.0608	0.576	0.008
Mof_C 	C 	0.8882	0.0173	0.587	-0.125
Mof_H 	H 	0.8715	0.0236	0.5648	0.072
Mof_C 	C 	0.878	0.9851	0.6128	0.064
Mof_H 	H 	0.8552	0.9689	0.6071	0.013
Mof_Zn	Zn	0.36248	0.5257	0.80822	1.234
Mof_Zn	Zn	0.41596	0.48307	0.63793	1.234
Mof_P 	P 	0.36159	0.52681	0.70419	0.498
Mof_P 	P 	0.50476	0.44124	0.63521	0.473
Mof_O 	O 	0.35517	0.67848	0.58417	-0.487
Mof_O 	O 	0.35656	0.61223	0.56999	-0.529
Mof_O 	O 	0.36107	0.52229	0.74992	-0.44
Mof_O 	O 	0.32607	0.50481	0.68447	-0.469
Mof_O 	O 	0.40255	0.51397	0.68623	-0.457
Mof_O 	O 	0.5854	0.5614	0.70613	-0.498
Mof_O 	O 	0.6418	0.5744	0.6725	-0.387
Mof_O 	O 	0.47323	0.47481	0.64134	-0.437
Mof_O 	O 	0.50886	0.41635	0.67394	-0.466
Mof_O 	O 	0.49572	0.41515	0.59788	-0.472
Mof_C 	C 	0.35497	0.64158	0.59407	0.447
Mof_C 	C 	0.3533	0.63134	0.63882	-0.178
Mof_C 	C 	0.35693	0.59166	0.65123	0.097
Mof_H 	H 	0.3604	0.5714	0.6315	-0.012
Mof_C 	C 	0.3556	0.58034	0.69169	-0.142
Mof_C 	C 	0.3486	0.6106	0.7207	0.071
Mof_H 	H 	0.3462	0.6037	0.7483	0.016
Mof_C 	C 	0.3451	0.6509	0.7086	-0.152
Mof_H 	H 	0.3413	0.6712	0.7282	0.082
Mof_C 	C 	0.3473	0.6612	0.6683	0.094
Mof_H 	H 	0.3447	0.6884	0.6605	0.008
Mof_C 	C 	0.6089	0.5558	0.676	0.379
Mof_C 	C 	0.5982	0.5228	0.647	-0.147
Mof_C 	C 	0.56308	0.50036	0.65273	0.065
Mof_H 	H 	0.546	0.5067	0.6746	0.034
Mof_C 	C 	0.55232	0.46821	0.62643	-0.118
Mof_C 	C 	0.5777	0.4604	0.5938	0.053
Mof_H 	H 	0.5713	0.4392	0.576	0.008
Mof_C 	C 	0.6118	0.4827	0.587	-0.125
Mof_H 	H 	0.6285	0.4764	0.5648	0.072
Mof_C 	C 	0.622	0.5149	0.6128	0.065
Mof_H 	H 	0.6448	0.5311	0.6071	0.013
Mof_Zn	Zn	0.13752	0.5257	0.69178	1.234
Mof_Zn	Zn	0.08404	0.48307	0.86207	1.234
Mof_P 	P 	0.13841	0.52681	0.79581	0.498
Mof_P 	P 	0.99524	0.44124	0.86479	0.473
Mof_O 	O 	0.14483	0.67848	0.91583	-0.487
Mof_O 	O 	0.14344	0.61223	0.93001	-0.529
Mof_O 	O 	0.13893	0.52229	0.75008	-0.44
Mof_O 	O 	0.17393	0.50481	0.81553	-0.469
Mof_O 	O 	0.09745	0.51397	0.81377	-0.457
Mof_O 	O 	0.9146	0.5614	0.79387	-0.498
Mof_O 	O 	0.8582	0.5744	0.8275	-0.387
Mof_O 	O 	0.02677	0.47481	0.85866	-0.437
Mof_O 	O 	0.99114	0.41635	0.82606	-0.466
Mof_O 	O 	0.00428	0.41515	0.90212	-0.472
Mof_C 	C 	0.14503	0.64158	0.90593	0.447
Mof_C 	C 	0.1467	0.63134	0.86118	-0.178
Mof_C 	C 	0.14307	0.59166	0.84877	0.097
Mof_H 	H 	0.1396	0.5714	0.8685	-0.012
Mof_C 	C 	0.1444	0.58034	0.80831	-0.142
Mof_C 	C 	0.1514	0.6106	0.7793	0.071
Mof_H 	H 	0.1538	0.6037	0.7517	0.016
Mof_C 	C 	0.1549	0.6509	0.7914	-0.152
Mof_H 	H 	0.1587	0.6712	0.7718	0.082
Mof_C 	C 	0.1527	0.6612	0.8317	0.094
Mof_H 	H 	0.1553	0.6884	0.8395	0.008
Mof_C 	C 	0.8911	0.5558	0.824	0.379
Mof_C 	C 	0.9018	0.5228	0.853	-0.147
Mof_C 	C 	0.93692	0.50036	0.84727	0.065
Mof_H 	H 	0.954	0.5067	0.8254	0.034
Mof_C 	C 	0.94768	0.46821	0.87357	-0.118
Mof_C 	C 	0.9223	0.4604	0.9062	0.053
Mof_H 	H 	0.9287	0.4392	0.924	0.008
Mof_C 	C 	0.8882	0.4827	0.913	-0.125
Mof_H 	H 	0.8715	0.4764	0.9352	0.072
Mof_C 	C 	0.878	0.5149	0.8872	0.065
Mof_H 	H 	0.8552	0.5311	0.8929	0.013
Mof_Zn	Zn	0.36248	0.69178	0.5257	1.234
Mof_Zn	Zn	0.41596	0.86207	0.48307	1.234
Mof_P 	P 	0.36159	0.79581	0.52681	0.498
Mof_P 	P 	0.50476	0.86479	0.44124	0.473
Mof_O 	O 	0.35517	0.91583	0.67848	-0.487
Mof_O 	O 	0.35656	0.93001	0.61223	-0.529
Mof_O 	O 	0.36107	0.75008	0.52229	-0.44
Mof_O 	O 	0.32607	0.81553	0.50481	-0.469
Mof_O 	O 	0.40255	0.81377	0.51397	-0.457
Mof_O 	O 	0.5854	0.79387	0.5614	-0.498
Mof_O 	O 	0.6418	0.8275	0.5744	-0.387
Mof_O 	O 	0.47323	0.85866	0.47481	-0.437
Mof_O 	O 	0.50886	0.82606	0.41635	-0.466
Mof_O 	O 	0.49572	0.90212	0.41515	-0.472
Mof_C 	C 	0.35497	0.90593	0.64158	0.447
Mof_C 	C 	0.3533	0.86118	0.63134	-0.178
Mof_C 	C 	0.35693	0.84877	0.59166	0.097
Mof_H 	H 	0.3604	0.8685	0.5714	-0.012
Mof_C 	C 	0.3556	0.80831	0.58034	-0.142
Mof_C 	C 	0.3486	0.7793	0.6106	0.071
Mof_H 	H 	0.3462	0.7517	0.6037	0.016
Mof_C 	C 	0.3451	0.7914	0.6509	-0.152
Mof_H 	H 	0.3413	0.7718	0.6712	0.082
Mof_C 	C 	0.3473	0.8317	0.6612	0.094
Mof_H 	H 	0.3447	0.8395	0.6884	0.008
Mof_C 	C 	0.6089	0.824	0.5558	0.379
Mof_C 	C 	0.5982	0.853	0.5228	-0.147
Mof_C 	C 	0.56308	0.84727	0.50036	0.065
Mof_H 	H 	0.546	0.8254	0.5067	0.034
Mof_C 	C 	0.55232	0.87357	0.46821	-0.118
Mof_C 	C 	0.5777	0.9062	0.4604	0.053
Mof_H 	H 	0.5713	0.924	0.4392	0.008
Mof_C 	C 	0.6118	0.913	0.4827	-0.125
Mof_H 	H 	0.6285	0.9352	0.4764	0.072
Mof_C 	C 	0.622	0.8872	0.5149	0.065
Mof_H 	H 	0.6448	0.8929	0.5311	0.013
Mof_Zn	Zn	0.13752	0.80822	0.5257	1.234
Mof_Zn	Zn	0.08404	0.63793	0.48307	1.234
Mof_P 	P 	0.13841	0.70419	0.52681	0.498
Mof_P 	P 	0.99524	0.63521	0.44124	0.473
Mof_O 	O 	0.14483	0.58417	0.67848	-0.487
Mof_O 	O 	0.14344	0.56999	0.61223	-0.529
Mof_O 	O 	0.13893	0.74992	0.52229	-0.44
Mof_O 	O 	0.17393	0.68447	0.50481	-0.469
Mof_O 	O 	0.09745	0.68623	0.51397	-0.457
Mof_O 	O 	0.9146	0.70613	0.5614	-0.498
Mof_O 	O 	0.8582	0.6725	0.5744	-0.387
Mof_O 	O 	0.02677	0.64134	0.47481	-0.437
Mof_O 	O 	0.99114	0.67394	0.41635	-0.466
Mof_O 	O 	0.00428	0.59788	0.41515	-0.472
Mof_C 	C 	0.14503	0.59407	0.64158	0.447
Mof_C 	C 	0.1467	0.63882	0.63134	-0.178
Mof_C 	C 	0.14307	0.65123	0.59166	0.097
Mof_H 	H 	0.1396	0.6315	0.5714	-0.012
Mof_C 	C 	0.1444	0.69169	0.58034	-0.142
Mof_C 	C 	0.1514	0.7207	0.6106	0.071
Mof_H 	H 	0.1538	0.7483	0.6037	0.016
Mof_C 	C 	0.1549	0.7086	0.6509	-0.152
Mof_H 	H 	0.1587	0.7282	0.6712	0.082
Mof_C 	C 	0.1527	0.6683	0.6612	0.094
Mof_H 	H 	0.1553	0.6605	0.6884	0.008
Mof_C 	C 	0.8911	0.676	0.5558	0.379
Mof_C 	C 	0.9018	0.647	0.5228	-0.147
Mof_C 	C 	0.93692	0.65273	0.50036	0.065
Mof_H 	H 	0.954	0.6746	0.5067	0.034
Mof_C 	C 	0.94768	0.62643	0.46821	-0.118
Mof_C 	C 	0.9223	0.5938	0.4604	0.053
Mof_H 	H 	0.9287	0.576	0.4392	0.008
Mof_C 	C 	0.8882	0.587	0.4827	-0.125
Mof_H 	H 	0.8715	0.5648	0.4764	0.072
Mof_C 	C 	0.878	0.6128	0.5149	0.065
Mof_H 	H 	0.8552	0.6071	0.5311	0.013
Mof_Zn	Zn	0.36248	0.80822	0.9743	1.234
Mof_Zn	Zn	0.41596	0.63793	0.01693	1.234
Mof_P 	P 	0.36159	0.70419	0.97319	0.498
Mof_P 	P 	0.50476	0.63521	0.05876	0.473
Mof_O 	O 	0.35517	0.58417	0.82152	-0.487
Mof_O 	O 	0.35656	0.56999	0.88777	-0.529
Mof_O 	O 	0.36107	0.74992	0.97771	-0.44
Mof_O 	O 	0.32607	0.68447	0.99519	-0.469
Mof_O 	O 	0.40255	0.68623	0.98603	-0.457
Mof_O 	O 	0.5854	0.70613	0.9386	-0.498
Mof_O 	O 	0.6418	0.6725	0.9256	-0.387
Mof_O 	O 	0.47323	0.64134	0.02519	-0.437
Mof_O 	O 	0.50886	0.67394	0.08365	-0.466
Mof_O 	O 	0.49572	0.59788	0.08485	-0.472
Mof_C 	C 	0.35497	0.59407	0.85842	0.447
Mof_C 	C 	0.3533	0.63882	0.86866	-0.178
Mof_C 	C 	0.35693	0.65123	0.90834	0.097
Mof_H 	H 	0.3604	0.6315	0.9286	-0.012
Mof_C 	C 	0.3556	0.69169	0.91966	-0.142
Mof_C 	C 	0.3486	0.7207	0.8894	0.071
Mof_H 	H 	0.3462	0.7483	0.8963	0.016
Mof_C 	C 	0.3451	0.7086	0.8491	-0.152
Mof_H 	H 	0.3413	0.7282	0.8288	0.082
Mof_C 	C 	0.3473	0.6683	0.8388	0.094
Mof_H 	H 	0.3447	0.6605	0.8116	0.008
Mof_C 	C 	0.6089	0.676	0.9442	0.378
Mof_C 	C 	0.5982	0.647	0.9772	-0.147
Mof_C 	C 	0.56308	0.65273	0.99964	0.065
Mof_H 	H 	0.546	0.6746	0.9933	0.034
Mof_C 	C 	0.55232	0.62643	0.03179	-0.117
Mof_C 	C 	0.5777	0.5938	0.0396	0.053
Mof_H 	H 	0.5713	0.576	0.0608	0.008
Mof_C 	C 	0.6118	0.587	0.0173	-0.125
Mof_H 	H 	0.6285	0.5648	0.0236	0.072
Mof_C 	C 	0.622	0.6128	0.9851	0.064
Mof_H 	H 	0.6448	0.6071	0.9689	0.013
Mof_Zn	Zn	0.13752	0.69178	0.9743	1.234
Mof_Zn	Zn	0.08404	0.86207	0.01693	1.234
Mof_P 	P 	0.13841	0.79581	0.97319	0.498
Mof_P 	P 	0.99524	0.86479	0.05876	0.473
Mof_O 	O 	0.14483	0.91583	0.82152	-0.487
Mof_O 	O 	0.14344	0.93001	0.88777	-0.529
Mof_O 	O 	0.13893	0.75008	0.97771	-0.44
Mof_O 	O 	0.17393	0.81553	0.99519	-0.469
Mof_O 	O 	0.09745	0.81377	0.98603	-0.457
Mof_O 	O 	0.9146	0.79387	0.9386	-0.498
Mof_O 	O 	0.8582	0.8275	0.9256	-0.387
Mof_O 	O 	0.02677	0.85866	0.02519	-0.437
Mof_O 	O 	0.99114	0.82606	0.08365	-0.466
Mof_O 	O 	0.00428	0.90212	0.08485	-0.472
Mof_C 	C 	0.14503	0.90593	0.85842	0.447
Mof_C 	C 	0.1467	0.86118	0.86866	-0.178
Mof_C 	C 	0.14307	0.84877	0.90834	0.097
Mof_H 	H 	0.1396	0.8685	0.9286	-0.012
Mof_C 	C 	0.1444	0.80831	0.91966	-0.142
Mof_C 	C 	0.1514	0.7793	0.8894	0.071
Mof_H 	H 	0.1538	0.7517	0.8963	0.016
Mof_C 	C 	0.1549	0.7914	0.8491	-0.152
Mof_H 	H 	0.1587	0.7718	0.8288	0.082
Mof_C 	C 	0.1527	0.8317	0.8388	0.094
Mof_H 	H 	0.1553	0.8395	0.8116	0.008
Mof_C 	C 	0.8911	0.824	0.9442	0.378
Mof_C 	C 	0.9018	0.853	0.9772	-0.147
Mof_C 	C 	0.93692	0.84727	0.99964	0.064
Mof_H 	H 	0.954	0.8254	0.9933	0.035
Mof_C 	C 	0.94768	0.87357	0.03179	-0.117
Mof_C 	C 	0.9223	0.9062	0.0396	0.052
Mof_H 	H 	0.9287	0.924	0.0608	0.009
Mof_C 	C 	0.8882	0.913	0.0173	-0.125
Mof_H 	H 	0.8715	0.9352	0.0236	0.072
Mof_C 	C 	0.878	0.8872	0.9851	0.064
Mof_H 	H 	0.8552	0.8929	0.9689	0.013
Mof_Zn	Zn	0.69178	0.9743	0.13752	1.234
Mof_Zn	Zn	0.86207	0.01693	0.08404	1.234
Mof_P 	P 	0.79581	0.97319	0.13841	0.498
Mof_P 	P 	0.86479	0.05876	0.99524	0.473
Mof_O 	O 	0.91583	0.82152	0.14483	-0.487
Mof_O 	O 	0.93001	0.88777	0.14344	-0.529
Mof_O 	O 	0.75008	0.97771	0.13893	-0.44
Mof_O 	O 	0.81553	0.99519	0.17393	-0.469
Mof_O 	O 	0.81377	0.98603	0.09745	-0.457
Mof_O 	O 	0.79387	0.9386	0.9146	-0.498
Mof_O 	O 	0.8275	0.9256	0.8582	-0.387
Mof_O 	O 	0.85866	0.02519	0.02677	-0.437
Mof_O 	O 	0.82606	0.08365	0.99114	-0.466
Mof_O 	O 	0.90212	0.08485	0.00428	-0.472
Mof_C 	C 	0.90593	0.85842	0.14503	0.447
Mof_C 	C 	0.86118	0.86866	0.1467	-0.178
Mof_C 	C 	0.84877	0.90834	0.14307	0.097
Mof_H 	H 	0.8685	0.9286	0.1396	-0.012
Mof_C 	C 	0.80831	0.91966	0.1444	-0.142
Mof_C 	C 	0.7793	0.8894	0.1514	0.071
Mof_H 	H 	0.7517	0.8963	0.1538	0.016
Mof_C 	C 	0.7914	0.8491	0.1549	-0.152
Mof_H 	H 	0.7718	0.8288	0.1587	0.082
Mof_C 	C 	0.8317	0.8388	0.1527	0.094
Mof_H 	H 	0.8395	0.8116	0.1553	0.008
Mof_C 	C 	0.824	0.9442	0.8911	0.378
Mof_C 	C 	0.853	0.9772	0.9018	-0.147
Mof_C 	C 	0.84727	0.99964	0.93692	0.064
Mof_H 	H 	0.8254	0.9933	0.954	0.035
Mof_C 	C 	0.87357	0.03179	0.94768	-0.117
Mof_C 	C 	0.9062	0.0396	0.9223	0.052
Mof_H 	H 	0.924	0.0608	0.9287	0.009
Mof_C 	C 	0.913	0.0173	0.8882	-0.125
Mof_H 	H 	0.9352	0.0236	0.8715	0.072
Mof_C 	C 	0.8872	0.9851	0.878	0.064
Mof_H 	H 	0.8929	0.9689	0.8552	0.013
Mof_Zn	Zn	0.80822	0.9743	0.36248	1.234
Mof_Zn	Zn	0.63793	0.01693	0.41596	1.234
Mof_P 	P 	0.70419	0.97319	0.36159	0.498
Mof_P 	P 	0.63521	0.05876	0.50476	0.473
Mof_O 	O 	0.58417	0.82152	0.35517	-0.487
Mof_O 	O 	0.56999	0.88777	0.35656	-0.529
Mof_O 	O 	0.74992	0.97771	0.36107	-0.44
Mof_O 	O 	0.68447	0.99519	0.32607	-0.469
Mof_O 	O 	0.68623	0.98603	0.40255	-0.457
Mof_O 	O 	0.70613	0.9386	0.5854	-0.498
Mof_O 	O 	0.6725	0.9256	0.6418	-0.387
Mof_O 	O 	0.64134	0.02519	0.47323	-0.437
Mof_O 	O 	0.67394	0.08365	0.50886	-0.466
Mof_O 	O 	0.59788	0.08485	0.49572	-0.472
Mof_C 	C 	0.59407	0.85842	0.35497	0.447
Mof_C 	C 	0.63882	0.86866	0.3533	-0.178
Mof_C 	C 	0.65123	0.90834	0.35693	0.097
Mof_H 	H 	0.6315	0.9286	0.3604	-0.012
Mof_C 	C 	0.69169	0.91966	0.3556	-0.142
Mof_C 	C 	0.7207	0.8894	0.3486	0.071
Mof_H 	H 	0.7483	0.8963	0.3462	0.016
Mof_C 	C 	0.7086	0.8491	0.3451	-0.152
Mof_H 	H 	0.7282	0.8288	0.3413	0.082
Mof_C 	C 	0.6683	0.8388	0.3473	0.094
Mof_H 	H 	0.6605	0.8116	0.3447	0.008
Mof_C 	C 	0.676	0.9442	0.6089	0.378
Mof_C 	C 	0.647	0.9772	0.5982	-0.147
Mof_C 	C 	0.65273	0.99964	0.56308	0.065
Mof_H 	H 	0.6746	0.9933	0.546	0.034
Mof_C 	C 	0.62643	0.03179	0.55232	-0.117
Mof_C 	C 	0.5938	0.0396	0.5777	0.053
Mof_H 	H 	0.576	0.0608	0.5713	0.008
Mof_C 	C 	0.587	0.0173	0.6118	-0.125
Mof_H 	H 	0.5648	0.0236	0.6285	0.072
Mof_C 	C 	0.6128	0.9851	0.622	0.064
Mof_H 	H 	0.6071	0.9689	0.6448	0.013
Mof_Zn	Zn	0.80822	0.5257	0.13752	1.234
Mof_Zn	Zn	0.63793	0.48307	0.08404	1.234
Mof_P 	P 	0.70419	0.52681	0.13841	0.498
Mof_P 	P 	0.63521	0.44124	0.99524	0.473
Mof_O 	O 	0.58417	0.67848	0.14483	-0.487
Mof_O 	O 	0.56999	0.61223	0.14344	-0.529
Mof_O 	O 	0.74992	0.52229	0.13893	-0.44
Mof_O 	O 	0.68447	0.50481	0.17393	-0.469
Mof_O 	O 	0.68623	0.51397	0.09745	-0.457
Mof_O 	O 	0.70613	0.5614	0.9146	-0.498
Mof_O 	O 	0.6725	0.5744	0.8582	-0.387
Mof_O 	O 	0.64134	0.47481	0.02677	-0.437
Mof_O 	O 	0.67394	0.41635	0.99114	-0.466
Mof_O 	O 	0.59788	0.41515	0.00428	-0.472
Mof_C 	C 	0.59407	0.64158	0.14503	0.447
Mof_C 	C 	0.63882	0.63134	0.1467	-0.178
Mof_C 	C 	0.65123	0.59166	0.14307	0.097
Mof_H 	H 	0.6315	0.5714	0.1396	-0.012
Mof_C 	C 	0.69169	0.58034	0.1444	-0.142
Mof_C 	C 	0.7207	0.6106	0.1514	0.071
Mof_H 	H 	0.7483	0.6037	0.1538	0.016
Mof_C 	C 	0.7086	0.6509	0.1549	-0.152
Mof_H 	H 	0.7282	0.6712	0.1587	0.082
Mof_C 	C 	0.6683	0.6612	0.1527	0.094
Mof_H 	H 	0.6605	0.6884	0.1553	0.008
Mof_C 	C 	0.676	0.5558	0.8911	0.379
Mof_C 	C 	0.647	0.5228	0.9018	-0.147
Mof_C 	C 	0.65273	0.50036	0.93692	0.065
Mof_H 	H 	0.6746	0.5067	0.954	0.034
Mof_C 	C 	0.62643	0.46821	0.94768	-0.118
Mof_C 	C 	0.5938	0.4604	0.9223	0.053
Mof_H 	H 	0.576	0.4392	0.9287	0.008
Mof_C 	C 	0.587	0.4827	0.8882	-0.125
Mof_H 	H 	0.5648	0.4764	0.8715	0.072
Mof_C 	C 	0.6128	0.5149	0.878	0.065
Mof_H 	H 	0.6071	0.5311	0.8552	0.013
Mof_Zn	Zn	0.69178	0.5257	0.36248	1.234
Mof_Zn	Zn	0.86207	0.48307	0.41596	1.234
Mof_P 	P 	0.79581	0.52681	0.36159	0.498
Mof_P 	P 	0.86479	0.44124	0.50476	0.473
Mof_O 	O 	0.91583	0.67848	0.35517	-0.487
Mof_O 	O 	0.93001	0.61223	0.35656	-0.529
Mof_O 	O 	0.75008	0.52229	0.36107	-0.44
Mof_O 	O 	0.81553	0.50481	0.32607	-0.469
Mof_O 	O 	0.81377	0.51397	0.40255	-0.457
Mof_O 	O 	0.79387	0.5614	0.5854	-0.498
Mof_O 	O 	0.8275	0.5744	0.6418	-0.387
Mof_O 	O 	0.85866	0.47481	0.47323	-0.437
Mof_O 	O 	0.82606	0.41635	0.50886	-0.466
Mof_O 	O 	0.90212	0.41515	0.49572	-0.472
Mof_C 	C 	0.90593	0.64158	0.35497	0.447
Mof_C 	C 	0.86118	0.63134	0.3533	-0.178
Mof_C 	C 	0.84877	0.59166	0.35693	0.097
Mof_H 	H 	0.8685	0.5714	0.3604	-0.012
Mof_C 	C 	0.80831	0.58034	0.3556	-0.142
Mof_C 	C 	0.7793	0.6106	0.3486	0.071
Mof_H 	H 	0.7517	0.6037	0.3462	0.016
Mof_C 	C 	0.7914	0.6509	0.3451	-0.152
Mof_H 	H 	0.7718	0.6712	0.3413	0.082
Mof_C 	C 	0.8317	0.6612	0.3473	0.094
Mof_H 	H 	0.8395	0.6884	0.3447	0.008
Mof_C 	C 	0.824	0.5558	0.6089	0.379
Mof_C 	C 	0.853	0.5228	0.5982	-0.147
Mof_C 	C 	0.84727	0.50036	0.56308	0.065
Mof_H 	H 	0.8254	0.5067	0.546	0.034
Mof_C 	C 	0.87357	0.46821	0.55232	-0.118
Mof_C 	C 	0.9062	0.4604	0.5777	0.053
Mof_H 	H 	0.924	0.4392	0.5713	0.008
Mof_C 	C 	0.913	0.4827	0.6118	-0.125
Mof_H 	H 	0.9352	0.4764	0.6285	0.072
Mof_C 	C 	0.8872	0.5149	0.622	0.065
Mof_H 	H 	0.8929	0.5311	0.6448	0.013
Mof_Zn	Zn	0.9743	0.36248	0.80822	1.234
Mof_Zn	Zn	0.01693	0.41596	0.63793	1.234
Mof_P 	P 	0.97319	0.36159	0.70419	0.498
Mof_P 	P 	0.05876	0.50476	0.63521	0.473
Mof_O 	O 	0.82152	0.35517	0.58417	-0.487
Mof_O 	O 	0.88777	0.35656	0.56999	-0.529
Mof_O 	O 	0.97771	0.36107	0.74992	-0.44
Mof_O 	O 	0.99519	0.32607	0.68447	-0.469
Mof_O 	O 	0.98603	0.40255	0.68623	-0.457
Mof_O 	O 	0.9386	0.5854	0.70613	-0.498
Mof_O 	O 	0.9256	0.6418	0.6725	-0.387
Mof_O 	O 	0.02519	0.47323	0.64134	-0.437
Mof_O 	O 	0.08365	0.50886	0.67394	-0.466
Mof_O 	O 	0.08485	0.49572	0.59788	-0.472
Mof_C 	C 	0.85842	0.35497	0.59407	0.447
Mof_C 	C 	0.86866	0.3533	0.63882	-0.178
Mof_C 	C 	0.90834	0.35693	0.65123	0.097
Mof_H 	H 	0.9286	0.3604	0.6315	-0.012
Mof_C 	C 	0.91966	0.3556	0.69169	-0.142
Mof_C 	C 	0.8894	0.3486	0.7207	0.071
Mof_H 	H 	0.8963	0.3462	0.7483	0.016
Mof_C 	C 	0.8491	0.3451	0.7086	-0.152
Mof_H 	H 	0.8288	0.3413	0.7282	0.082
Mof_C 	C 	0.8388	0.3473	0.6683	0.094
Mof_H 	H 	0.8116	0.3447	0.6605	0.008
Mof_C 	C 	0.9442	0.6089	0.676	0.378
Mof_C 	C 	0.9772	0.5982	0.647	-0.147
Mof_C 	C 	0.99964	0.56308	0.65273	0.065
Mof_H 	H 	0.9933	0.546	0.6746	0.034
Mof_C 	C 	0.03179	0.55232	0.62643	-0.117
Mof_C 	C 	0.0396	0.5777	0.5938	0.053
Mof_H 	H 	0.0608	0.5713	0.576	0.008
Mof_C 	C 	0.0173	0.6118	0.587	-0.125
Mof_H 	H 	0.0236	0.6285	0.5648	0.072
Mof_C 	C 	0.9851	0.622	0.6128	0.064
Mof_H 	H 	0.9689	0.6448	0.6071	0.013
Mof_Zn	Zn	0.9743	0.13752	0.69178	1.234
Mof_Zn	Zn	0.01693	0.08404	0.86207	1.234
Mof_P 	P 	0.97319	0.13841	0.79581	0.498
Mof_P 	P 	0.05876	0.99524	0.86479	0.473
Mof_O 	O 	0.82152	0.14483	0.91583	-0.487
Mof_O 	O 	0.88777	0.14344	0.93001	-0.529
Mof_O 	O 	0.97771	0.13893	0.75008	-0.44
Mof_O 	O 	0.99519	0.17393	0.81553	-0.469
Mof_O 	O 	0.98603	0.09745	0.81377	-0.457
Mof_O 	O 	0.9386	0.9146	0.79387	-0.498
Mof_O 	O 	0.9256	0.8582	0.8275	-0.387
Mof_O 	O 	0.02519	0.02677	0.85866	-0.437
Mof_O 	O 	0.08365	0.99114	0.82606	-0.466
Mof_O 	O 	0.08485	0.00428	0.90212	-0.472
Mof_C 	C 	0.85842	0.14503	0.90593	0.447
Mof_C 	C 	0.86866	0.1467	0.86118	-0.178
Mof_C 	C 	0.90834	0.14307	0.84877	0.097
Mof_H 	H 	0.9286	0.1396	0.8685	-0.012
Mof_C 	C 	0.91966	0.1444	0.80831	-0.142
Mof_C 	C 	0.8894	0.1514	0.7793	0.071
Mof_H 	H 	0.8963	0.1538	0.7517	0.016
Mof_C 	C 	0.8491	0.1549	0.7914	-0.152
Mof_H 	H 	0.8288	0.1587	0.7718	0.082
Mof_C 	C 	0.8388	0.1527	0.8317	0.094
Mof_H 	H 	0.8116	0.1553	0.8395	0.008
Mof_C 	C 	0.9442	0.8911	0.824	0.378
Mof_C 	C 	0.9772	0.9018	0.853	-0.147
Mof_C 	C 	0.99964	0.93692	0.84727	0.064
Mof_H 	H 	0.9933	0.954	0.8254	0.035
Mof_C 	C 	0.03179	0.94768	0.87357	-0.117
Mof_C 	C 	0.0396	0.9223	0.9062	0.052
Mof_H 	H 	0.0608	0.9287	0.924	0.009
Mof_C 	C 	0.0173	0.8882	0.913	-0.125
Mof_H 	H 	0.0236	0.8715	0.9352	0.072
Mof_C 	C 	0.9851	0.878	0.8872	0.064
Mof_H 	H 	0.9689	0.8552	0.8929	0.013
Mof_Zn	Zn	0.5257	0.36248	0.69178	1.234
Mof_Zn	Zn	0.48307	0.41596	0.86207	1.234
Mof_P 	P 	0.52681	0.36159	0.79581	0.498
Mof_P 	P 	0.44124	0.50476	0.86479	0.473
Mof_O 	O 	0.67848	0.35517	0.91583	-0.487
Mof_O 	O 	0.61223	0.35656	0.93001	-0.529
Mof_O 	O 	0.52229	0.36107	0.75008	-0.44
Mof_O 	O 	0.50481	0.32607	0.81553	-0.469
Mof_O 	O 	0.51397	0.40255	0.81377	-0.457
Mof_O 	O 	0.5614	0.5854	0.79387	-0.498
Mof_O 	O 	0.5744	0.6418	0.8275	-0.387
Mof_O 	O 	0.47481	0.47323	0.85866	-0.437
Mof_O 	O 	0.41635	0.50886	0.82606	-0.466
Mof_O 	O 	0.41515	0.49572	0.90212	-0.472
Mof_C 	C 	0.64158	0.35497	0.90593	0.447
Mof_C 	C 	0.63134	0.3533	0.86118	-0.178
Mof_C 	C 	0.59166	0.35693	0.84877	0.097
Mof_H 	H 	0.5714	0.3604	0.8685	-0.012
Mof_C 	C 	0.58034	0.3556	0.80831	-0.142
Mof_C 	C 	0.6106	0.3486	0.7793	0.071
Mof_H 	H 	0.6037	0.3462	0.7517	0.016
Mof_C 	C 	0.6509	0.3451	0.7914	-0.152
Mof_H 	H 	0.6712	0.3413	0.7718	0.082
Mof_C 	C 	0.6612	0.3473	0.8317	0.094
Mof_H 	H 	0.6884	0.3447	0.8395	0.008
Mof_C 	C 	0.5558	0.6089	0.824	0.379
Mof_C 	C 	0.5228	0.5982	0.853	-0.147
Mof_C 	C 	0.50036	0.56308	0.84727	0.065
Mof_H 	H 	0.5067	0.546	0.8254	0.034
Mof_C 	C 	0.46821	0.55232	0.87357	-0.118
Mof_C 	C 	0.4604	0.5777	0.9062	0.053
Mof_H 	H 	0.4392	0.5713	0.924	0.008
Mof_C 	C 	0.4827	0.6118	0.913	-0.125
Mof_H 	H 	0.4764	0.6285	0.9352	0.072
Mof_C 	C 	0.5149	0.622	0.8872	0.065
Mof_H 	H 	0.5311	0.6448	0.8929	0.013
Mof_Zn	Zn	0.5257	0.13752	0.80822	1.234
Mof_Zn	Zn	0.48307	0.08404	0.63793	1.234
Mof_P 	P 	0.52681	0.13841	0.70419	0.498
Mof_P 	P 	0.44124	0.99524	0.63521	0.473
Mof_O 	O 	0.67848	0.14483	0.58417	-0.487
Mof_O 	O 	0.61223	0.14344	0.56999	-0.529
Mof_O 	O 	0.52229	0.13893	0.74992	-0.44
Mof_O 	O 	0.50481	0.17393	0.68447	-0.469
Mof_O 	O 	0.51397	0.09745	0.68623	-0.457
Mof_O 	O 	0.5614	0.9146	0.70613	-0.498
Mof_O 	O 	0.5744	0.8582	0.6725	-0.387
Mof_O 	O 	0.47481	0.02677	0.64134	-0.437
Mof_O 	O 	0.41635	0.99114	0.67394	-0.466
Mof_O 	O 	0.41515	0.00428	0.59788	-0.472
Mof_C 	C 	0.64158	0.14503	0.59407	0.447
Mof_C 	C 	0.63134	0.1467	0.63882	-0.178
Mof_C 	C 	0.59166	0.14307	0.65123	0.097
Mof_H 	H 	0.5714	0.1396	0.6315	-0.012
Mof_C 	C 	0.58034	0.1444	0.69169	-0.142
Mof_C 	C 	0.6106	0.1514	0.7207	0.071
Mof_H 	H 	0.6037	0.1538	0.7483	0.016
Mof_C 	C 	0.6509	0.1549	0.7086	-0.152
Mof_H 	H 	0.6712	0.1587	0.7282	0.082
Mof_C 	C 	0.6612	0.1527	0.6683	0.094
Mof_H 	H 	0.6884	0.1553	0.6605	0.008
Mof_C 	C 	0.5558	0.8911	0.676	0.379
Mof_C 	C 	0.5228	0.9018	0.647	-0.147
Mof_C 	C 	0.50036	0.93692	0.65273	0.065
Mof_H 	H 	0.5067	0.954	0.6746	0.034
Mof_C 	C 	0.46821	0.94768	0.62643	-0.118
Mof_C 	C 	0.4604	0.9223	0.5938	0.053
Mof_H 	H 	0.4392	0.9287	0.576	0.008
Mof_C 	C 	0.4827	0.8882	0.587	-0.125
Mof_H 	H 	0.4764	0.8715	0.5648	0.072
Mof_C 	C 	0.5149	0.878	0.6128	0.065
Mof_H 	H 	0.5311	0.8552	0.6071	0.013
Mof_Zn	Zn	0.25	0.40039	0.09961	1.15
Mof_Zn	Zn	0.25	0.09961	0.09961	1.15
Mof_Zn	Zn	0.25	0.40039	0.40039	1.15
Mof_Zn	Zn	0.25	0.09961	0.40039	1.15
Mof_Zn	Zn	0.09961	0.25	0.40039	1.15
Mof_Zn	Zn	0.09961	0.25	0.09961	1.15
Mof_Zn	Zn	0.40039	0.25	0.40039	1.15
Mof_Zn	Zn	0.40039	0.25	0.09961	1.15
Mof_Zn	Zn	0.40039	0.09961	0.25	1.15
Mof_Zn	Zn	0.09961	0.09961	0.25	1.15
Mof_Zn	Zn	0.40039	0.40039	0.25	1.15
Mof_Zn	Zn	0.09961	0.40039	0.25	1.15
Mof_Zn	Zn	0.75	0.59961	0.90039	1.15
Mof_Zn	Zn	0.75	0.90039	0.90039	1.15
Mof_Zn	Zn	0.75	0.59961	0.59961	1.15
Mof_Zn	Zn	0.75	0.90039	0.59961	1.15
Mof_Zn	Zn	0.90039	0.75	0.59961	1.15
Mof_Zn	Zn	0.90039	0.75	0.90039	1.15
Mof_Zn	Zn	0.59961	0.75	0.59961	1.15
Mof_Zn	Zn	0.59961	0.75	0.90039	1.15
Mof_Zn	Zn	0.59961	0.90039	0.75	1.15
Mof_Zn	Zn	0.90039	0.90039	0.75	1.15
Mof_Zn	Zn	0.59961	0.59961	0.75	1.15
Mof_Zn	Zn	0.90039	0.59961	0.75	1.15
_end
