data_functionalizedCrystal
_audit_creation_method	'EQeq! by Chris Wilmer'
_symmetry_space_group_name_H-M	'P1'
_symmetry_Int_Tables_number	1
_symmetry_cell_setting	triclinic
loop_
_symmetry_equiv_pos_as_xyz
  x,y,z
_cell_length_a	13.916
_cell_length_b	26.638
_cell_length_c	7.631
_cell_angle_alpha	90
_cell_angle_beta	90
_cell_angle_gamma	90
loop_
_atom_site_label
_atom_site_type_symbol
_atom_site_fract_x
_atom_site_fract_y
_atom_site_fract_z
_atom_site_charge
Mof_Cd	Cd	0.2182	0.11477	0.13364	0.329
Mof_N 	N 	0.2474	0.1722	0.9134	-0.056
Mof_N 	N 	0.2344	0.1703	0.3527	-0.081
Mof_N 	N 	0.1723	0.0489	0.3391	-0.068
Mof_N 	N 	0.3738	0.0829	0.1277	-0.073
Mof_N 	N 	0.179	0.0577	0.9043	-0.104
Mof_N 	N 	0.0531	0.1278	0.0815	-0.168
Mof_C 	C 	0.2463	0.2012	0.804	-0.228
Mof_C 	C 	0.2386	0.2006	0.4585	-0.244
Mof_C 	C 	0.1074	0.0299	0.4017	-0.272
Mof_C 	C 	0.4237	0.052	0.0799	-0.266
Mof_C 	C 	0.0766	0.059	0.8814	-0.035
Mof_C 	C 	0.0217	0.095	0.9446	0.012
Mof_C 	C 	0.9139	0.0972	0.8966	0.048
Mof_Cd	Cd	0.2818	0.88523	0.63364	0.381
Mof_N 	N 	0.2526	0.8278	0.4134	-0.075
Mof_N 	N 	0.2656	0.8297	0.8527	-0.08
Mof_N 	N 	0.3277	0.9511	0.8391	-0.063
Mof_N 	N 	0.1262	0.9171	0.6277	-0.073
Mof_N 	N 	0.321	0.9423	0.4043	-0.109
Mof_N 	N 	0.4469	0.8722	0.5815	-0.123
Mof_C 	C 	0.2537	0.7988	0.304	-0.257
Mof_C 	C 	0.2614	0.7994	0.9585	-0.198
Mof_C 	C 	0.3926	0.9701	0.9017	-0.15
Mof_C 	C 	0.0763	0.948	0.5799	-0.219
Mof_C 	C 	0.4234	0.941	0.3814	-0.011
Mof_C 	C 	0.4783	0.905	0.4446	0.035
Mof_C 	C 	0.5861	0.9028	0.3966	-0.028
Mof_Cd	Cd	0.7818	0.61477	0.86636	0.419
Mof_N 	N 	0.7526	0.6722	0.0866	-0.094
Mof_N 	N 	0.7656	0.6703	0.6473	-0.072
Mof_N 	N 	0.8277	0.5489	0.6609	-0.068
Mof_N 	N 	0.6262	0.5829	0.8723	-0.07
Mof_N 	N 	0.821	0.5577	0.0957	-0.131
Mof_N 	N 	0.9469	0.6278	0.9185	-0.082
Mof_C 	C 	0.7537	0.7012	0.196	-0.236
Mof_C 	C 	0.7614	0.7006	0.5415	-0.224
Mof_C 	C 	0.8926	0.5299	0.5983	-0.175
Mof_C 	C 	0.5763	0.552	0.9201	-0.183
Mof_C 	C 	0.9234	0.559	0.1186	-0.017
Mof_C 	C 	0.9783	0.595	0.0554	0.07
Mof_C 	C 	0.0861	0.5972	0.1034	-0.121
Mof_Cd	Cd	0.7182	0.38523	0.36636	0.375
Mof_N 	N 	0.7474	0.3278	0.5866	-0.072
Mof_N 	N 	0.7344	0.3297	0.1473	-0.074
Mof_N 	N 	0.6723	0.4511	0.1609	-0.066
Mof_N 	N 	0.8738	0.4171	0.3723	-0.075
Mof_N 	N 	0.679	0.4423	0.5957	-0.109
Mof_N 	N 	0.5531	0.3722	0.4185	-0.126
Mof_C 	C 	0.7463	0.2988	0.696	-0.208
Mof_C 	C 	0.7386	0.2994	0.0415	-0.261
Mof_C 	C 	0.6074	0.4701	0.0983	-0.245
Mof_C 	C 	0.9237	0.448	0.4201	-0.175
Mof_C 	C 	0.5766	0.441	0.6186	-0.009
Mof_C 	C 	0.5217	0.405	0.5554	0.04
Mof_C 	C 	0.4139	0.4028	0.6034	-0.02
Mof_Cd	Cd	0.7818	0.88523	0.86636	0.424
Mof_N 	N 	0.7526	0.8278	0.0866	-0.094
Mof_N 	N 	0.7656	0.8297	0.6473	-0.072
Mof_N 	N 	0.8277	0.9511	0.6609	-0.067
Mof_N 	N 	0.6262	0.9171	0.8723	-0.073
Mof_N 	N 	0.821	0.9423	0.0957	-0.123
Mof_N 	N 	0.9469	0.8722	0.9185	-0.081
Mof_C 	C 	0.7537	0.7988	0.196	-0.236
Mof_C 	C 	0.7614	0.7994	0.5415	-0.224
Mof_C 	C 	0.8926	0.9701	0.5983	-0.142
Mof_C 	C 	0.5763	0.948	0.9201	-0.153
Mof_C 	C 	0.9234	0.941	0.1186	0.001
Mof_C 	C 	0.9783	0.905	0.0554	0.066
Mof_C 	C 	0.0861	0.9028	0.1034	-0.109
Mof_Cd	Cd	0.7182	0.11477	0.36636	0.371
Mof_N 	N 	0.7474	0.1722	0.5866	-0.072
Mof_N 	N 	0.7344	0.1703	0.1473	-0.074
Mof_N 	N 	0.6723	0.0489	0.1609	-0.07
Mof_N 	N 	0.8738	0.0829	0.3723	-0.074
Mof_N 	N 	0.679	0.0577	0.5957	-0.117
Mof_N 	N 	0.5531	0.1278	0.4185	-0.127
Mof_C 	C 	0.7463	0.2012	0.696	-0.208
Mof_C 	C 	0.7386	0.2006	0.0415	-0.262
Mof_C 	C 	0.6074	0.0299	0.0983	-0.267
Mof_C 	C 	0.9237	0.052	0.4201	-0.193
Mof_C 	C 	0.5766	0.059	0.6186	-0.025
Mof_C 	C 	0.5217	0.095	0.5554	0.043
Mof_C 	C 	0.4139	0.0972	0.6034	-0.03
Mof_Cd	Cd	0.2182	0.38523	0.13364	0.334
Mof_N 	N 	0.2474	0.3278	0.9134	-0.056
Mof_N 	N 	0.2344	0.3297	0.3527	-0.081
Mof_N 	N 	0.1723	0.4511	0.3391	-0.065
Mof_N 	N 	0.3738	0.4171	0.1277	-0.073
Mof_N 	N 	0.179	0.4423	0.9043	-0.096
Mof_N 	N 	0.0531	0.3722	0.0815	-0.168
Mof_C 	C 	0.2463	0.2988	0.804	-0.228
Mof_C 	C 	0.2386	0.2994	0.4585	-0.244
Mof_C 	C 	0.1074	0.4701	0.4017	-0.25
Mof_C 	C 	0.4237	0.448	0.0799	-0.248
Mof_C 	C 	0.0766	0.441	0.8814	-0.019
Mof_C 	C 	0.0217	0.405	0.9446	0.009
Mof_C 	C 	0.9139	0.4028	0.8966	0.058
Mof_Cd	Cd	0.2818	0.61477	0.63364	0.376
Mof_N 	N 	0.2526	0.6722	0.4134	-0.075
Mof_N 	N 	0.2656	0.6703	0.8527	-0.08
Mof_N 	N 	0.3277	0.5489	0.8391	-0.064
Mof_N 	N 	0.1262	0.5829	0.6277	-0.069
Mof_N 	N 	0.321	0.5577	0.4043	-0.117
Mof_N 	N 	0.4469	0.6278	0.5815	-0.124
Mof_C 	C 	0.2537	0.7012	0.304	-0.258
Mof_C 	C 	0.2614	0.7006	0.9585	-0.198
Mof_C 	C 	0.3926	0.5299	0.9017	-0.184
Mof_C 	C 	0.0763	0.552	0.5799	-0.25
Mof_C 	C 	0.4234	0.559	0.3814	-0.029
Mof_C 	C 	0.4783	0.595	0.4446	0.039
Mof_C 	C 	0.5861	0.5972	0.3966	-0.039
Mof_Ni	Ni	0.24367	0.25	0.6291	1.063
Mof_Ni	Ni	0.25633	0.75	0.1291	1.036
Mof_Ni	Ni	0.75633	0.75	0.3709	1.064
Mof_Ni	Ni	0.74367	0.25	0.8709	1.087
Mof_Ni	Ni	1.02801e-33	0	0.5	1.015
Mof_Ni	Ni	0.5	0	-0	1.024
Mof_Ni	Ni	7.72091e-33	0.5	0.5	1.037
Mof_Ni	Ni	0.5	0.5	-0	1.046
_end
