data_functionalizedCrystal
_audit_creation_method	'EQeq! by Chris Wilmer'
_symmetry_space_group_name_H-M	'P1'
_symmetry_Int_Tables_number	1
_symmetry_cell_setting	triclinic
loop_
_symmetry_equiv_pos_as_xyz
  x,y,z
_cell_length_a	22.8411
_cell_length_b	12.5825
_cell_length_c	22.9745
_cell_angle_alpha	90
_cell_angle_beta	90
_cell_angle_gamma	90
loop_
_atom_site_label
_atom_site_type_symbol
_atom_site_fract_x
_atom_site_fract_y
_atom_site_fract_z
_atom_site_charge
Mof_Ag	Ag	0.75343	0.87435	0.53106	0.669
Mof_S 	S 	0.74824	0.25431	0.67837	-0.023
Mof_S 	S 	0.83192	0.50861	0.77557	-0.024
Mof_S 	S 	0.73886	0.7528	0.87308	-0.016
Mof_S 	S 	0.59818	0.4987	0.52039	-0.023
Mof_S 	S 	0.50303	0.2656	0.41699	-0.025
Mof_S 	S 	0.40225	0.00437	0.4883	-0.019
Mof_N 	N 	0.7691	0.0017	0.5996	-0.204
Mof_N 	N 	0.7573	0.0063	0.9556	-0.195
Mof_N 	N 	0.6786	0.7569	0.5165	-0.198
Mof_N 	N 	0.3221	0.7542	0.4578	-0.203
Mof_C 	C 	0.7841	0.0723	0.6256	0.099
Mof_C 	C 	0.8006	0.1629	0.6587	-0.045
Mof_C 	C 	0.7997	0.3273	0.7153	0.009
Mof_C 	C 	0.8541	0.2822	0.7112	-0.071
Mof_H 	H 	0.8879	0.3114	0.7281	0.054
Mof_C 	C 	0.8538	0.1884	0.6792	-0.023
Mof_H 	H 	0.8875	0.1471	0.6726	0.037
Mof_C 	C 	0.7808	0.4218	0.7466	0.005
Mof_C 	C 	0.7257	0.4544	0.7596	-0.05
Mof_H 	H 	0.692	0.4171	0.7479	0.05
Mof_C 	C 	0.7236	0.5484	0.7919	-0.05
Mof_H 	H 	0.6884	0.581	0.8035	0.05
Mof_C 	C 	0.7779	0.5883	0.805	0.007
Mof_C 	C 	0.7925	0.6825	0.8364	0.007
Mof_C 	C 	0.7893	0.8457	0.8959	-0.042
Mof_C 	C 	0.8437	0.8236	0.877	-0.027
Mof_H 	H 	0.8764	0.8662	0.8854	0.04
Mof_C 	C 	0.8467	0.7301	0.8434	-0.068
Mof_H 	H 	0.8815	0.7031	0.8275	0.054
Mof_C 	C 	0.7711	0.9344	0.9288	0.093
Mof_C 	C 	0.6523	0.6873	0.4985	0.094
Mof_C 	C 	0.6194	0.5999	0.4757	-0.038
Mof_C 	C 	0.6009	0.5852	0.4197	-0.025
Mof_H 	H 	0.6086	0.6331	0.3892	0.039
Mof_C 	C 	0.57	0.4928	0.413	-0.067
Mof_H 	H 	0.5548	0.4703	0.3771	0.053
Mof_C 	C 	0.5634	0.4362	0.4633	0.009
Mof_C 	C 	0.5315	0.3378	0.4741	0.007
Mof_C 	C 	0.4744	0.1709	0.4642	0.006
Mof_C 	C 	0.4871	0.1969	0.5202	-0.051
Mof_H 	H 	0.4751	0.1558	0.5522	0.051
Mof_C 	C 	0.52	0.2916	0.5258	-0.05
Mof_H 	H 	0.5325	0.3194	0.5617	0.05
Mof_C 	C 	0.4435	0.0802	0.442	0.009
Mof_C 	C 	0.4426	0.0404	0.3876	-0.071
Mof_H 	H 	0.4627	0.0717	0.3564	0.054
Mof_C 	C 	0.4084	0.947	0.3819	-0.028
Mof_H 	H 	0.4032	0.9097	0.3468	0.038
Mof_C 	C 	0.3843	0.9185	0.4333	-0.044
Mof_C 	C 	0.3492	0.8258	0.4462	0.096
Mof_Ag	Ag	0.74657	0.12565	0.03106	0.668
Mof_S 	S 	0.75176	0.74569	0.17837	-0.023
Mof_S 	S 	0.66808	0.49139	0.27557	-0.024
Mof_S 	S 	0.76114	0.2472	0.37308	-0.016
Mof_S 	S 	0.90182	0.5013	0.02039	-0.024
Mof_S 	S 	0.99697	0.7344	0.91699	-0.024
Mof_S 	S 	0.09775	0.99563	0.9883	-0.021
Mof_N 	N 	0.7309	0.9983	0.0996	-0.203
Mof_N 	N 	0.7427	0.9937	0.4556	-0.197
Mof_N 	N 	0.8214	0.2431	0.0165	-0.199
Mof_N 	N 	0.1779	0.2458	0.9578	-0.203
Mof_C 	C 	0.7159	0.9277	0.1256	0.1
Mof_C 	C 	0.6994	0.8371	0.1587	-0.045
Mof_C 	C 	0.7003	0.6727	0.2153	0.009
Mof_C 	C 	0.6459	0.7178	0.2112	-0.071
Mof_H 	H 	0.6121	0.6886	0.2281	0.054
Mof_C 	C 	0.6462	0.8116	0.1792	-0.023
Mof_H 	H 	0.6125	0.8529	0.1726	0.037
Mof_C 	C 	0.7192	0.5782	0.2466	0.005
Mof_C 	C 	0.7743	0.5456	0.2596	-0.05
Mof_H 	H 	0.808	0.5829	0.2479	0.05
Mof_C 	C 	0.7764	0.4516	0.2919	-0.05
Mof_H 	H 	0.8116	0.419	0.3035	0.05
Mof_C 	C 	0.7221	0.4117	0.305	0.007
Mof_C 	C 	0.7075	0.3175	0.3364	0.008
Mof_C 	C 	0.7107	0.1543	0.3959	-0.043
Mof_C 	C 	0.6563	0.1764	0.377	-0.026
Mof_H 	H 	0.6236	0.1338	0.3854	0.04
Mof_C 	C 	0.6533	0.2699	0.3434	-0.068
Mof_H 	H 	0.6185	0.2969	0.3275	0.054
Mof_C 	C 	0.7289	0.0656	0.4288	0.095
Mof_C 	C 	0.8477	0.3127	0.9985	0.095
Mof_C 	C 	0.8806	0.4001	0.9757	-0.038
Mof_C 	C 	0.8991	0.4148	0.9197	-0.024
Mof_H 	H 	0.8914	0.3669	0.8892	0.039
Mof_C 	C 	0.93	0.5072	0.913	-0.067
Mof_H 	H 	0.9452	0.5297	0.8771	0.054
Mof_C 	C 	0.9366	0.5638	0.9633	0.009
Mof_C 	C 	0.9685	0.6622	0.9741	0.007
Mof_C 	C 	0.0256	0.8291	0.9642	0.003
Mof_C 	C 	0.0129	0.8031	0.0202	-0.048
Mof_H 	H 	0.0249	0.8442	0.0522	0.051
Mof_C 	C 	0.98	0.7084	0.0258	-0.052
Mof_H 	H 	0.9675	0.6806	0.0617	0.05
Mof_C 	C 	0.0565	0.9198	0.942	0.011
Mof_C 	C 	0.0574	0.9596	0.8876	-0.073
Mof_H 	H 	0.0373	0.9283	0.8564	0.054
Mof_C 	C 	0.0916	0.053	0.8819	-0.026
Mof_H 	H 	0.0968	0.0903	0.8468	0.038
Mof_C 	C 	0.1157	0.0815	0.9333	-0.043
Mof_C 	C 	0.1508	0.1742	0.9462	0.096
Mof_Ag	Ag	0.24657	0.37435	0.96894	0.67
Mof_S 	S 	0.25176	0.75431	0.82163	-0.023
Mof_S 	S 	0.16808	0.00861	0.72443	-0.023
Mof_S 	S 	0.26114	0.2528	0.62692	-0.016
Mof_S 	S 	0.40182	0.9987	0.97961	-0.025
Mof_S 	S 	0.49697	0.7656	0.08301	-0.025
Mof_S 	S 	0.59775	0.50437	0.0117	-0.019
Mof_N 	N 	0.2309	0.5017	0.9004	-0.204
Mof_N 	N 	0.2427	0.5063	0.5444	-0.197
Mof_N 	N 	0.3214	0.2569	0.9835	-0.198
Mof_N 	N 	0.6779	0.2542	0.0422	-0.203
Mof_C 	C 	0.2159	0.5723	0.8744	0.099
Mof_C 	C 	0.1994	0.6629	0.8413	-0.045
Mof_C 	C 	0.2003	0.8273	0.7847	0.009
Mof_C 	C 	0.1459	0.7822	0.7888	-0.071
Mof_H 	H 	0.1121	0.8114	0.7719	0.053
Mof_C 	C 	0.1462	0.6884	0.8208	-0.023
Mof_H 	H 	0.1125	0.6471	0.8274	0.036
Mof_C 	C 	0.2192	0.9218	0.7534	0.005
Mof_C 	C 	0.2743	0.9544	0.7404	-0.051
Mof_H 	H 	0.308	0.9171	0.7521	0.05
Mof_C 	C 	0.2764	0.0484	0.7081	-0.049
Mof_H 	H 	0.3116	0.081	0.6965	0.05
Mof_C 	C 	0.2221	0.0883	0.695	0.007
Mof_C 	C 	0.2075	0.1825	0.6636	0.008
Mof_C 	C 	0.2107	0.3457	0.6041	-0.043
Mof_C 	C 	0.1563	0.3236	0.623	-0.026
Mof_H 	H 	0.1236	0.3662	0.6146	0.04
Mof_C 	C 	0.1533	0.2301	0.6566	-0.068
Mof_H 	H 	0.1185	0.2031	0.6725	0.054
Mof_C 	C 	0.2289	0.4344	0.5712	0.095
Mof_C 	C 	0.3477	0.1873	0.0015	0.092
Mof_C 	C 	0.3806	0.0999	0.0243	-0.037
Mof_C 	C 	0.3991	0.0852	0.0803	-0.027
Mof_H 	H 	0.3914	0.1331	0.1108	0.039
Mof_C 	C 	0.43	0.9928	0.087	-0.065
Mof_H 	H 	0.4452	0.9703	0.1229	0.053
Mof_C 	C 	0.4366	0.9362	0.0367	0.009
Mof_C 	C 	0.4685	0.8378	0.0259	0.008
Mof_C 	C 	0.5256	0.6709	0.0358	0.007
Mof_C 	C 	0.5129	0.6969	0.9798	-0.052
Mof_H 	H 	0.5249	0.6558	0.9478	0.051
Mof_C 	C 	0.48	0.7916	0.9742	-0.052
Mof_H 	H 	0.4675	0.8194	0.9383	0.05
Mof_C 	C 	0.5565	0.5802	0.058	0.009
Mof_C 	C 	0.5574	0.5404	0.1124	-0.07
Mof_H 	H 	0.5373	0.5717	0.1436	0.054
Mof_C 	C 	0.5916	0.447	0.1181	-0.028
Mof_H 	H 	0.5968	0.4097	0.1532	0.038
Mof_C 	C 	0.6157	0.4185	0.0667	-0.044
Mof_C 	C 	0.6508	0.3258	0.0538	0.096
Mof_Ag	Ag	0.25343	0.62565	0.46894	0.669
Mof_S 	S 	0.24824	0.24569	0.32163	-0.023
Mof_S 	S 	0.33192	0.99139	0.22443	-0.023
Mof_S 	S 	0.23886	0.7472	0.12692	-0.016
Mof_S 	S 	0.09818	0.0013	0.47961	-0.023
Mof_S 	S 	0.00303	0.2344	0.58301	-0.025
Mof_S 	S 	0.90225	0.49563	0.5117	-0.019
Mof_N 	N 	0.2691	0.4983	0.4004	-0.204
Mof_N 	N 	0.2573	0.4937	0.0444	-0.197
Mof_N 	N 	0.1786	0.7431	0.4835	-0.198
Mof_N 	N 	0.8221	0.7458	0.5422	-0.203
Mof_C 	C 	0.2841	0.4277	0.3744	0.099
Mof_C 	C 	0.3006	0.3371	0.3413	-0.045
Mof_C 	C 	0.2997	0.1727	0.2847	0.009
Mof_C 	C 	0.3541	0.2178	0.2888	-0.071
Mof_H 	H 	0.3879	0.1886	0.2719	0.053
Mof_C 	C 	0.3538	0.3116	0.3208	-0.023
Mof_H 	H 	0.3875	0.3529	0.3274	0.037
Mof_C 	C 	0.2808	0.0782	0.2534	0.005
Mof_C 	C 	0.2257	0.0456	0.2404	-0.051
Mof_H 	H 	0.192	0.0829	0.2521	0.05
Mof_C 	C 	0.2236	0.9516	0.2081	-0.049
Mof_H 	H 	0.1884	0.919	0.1965	0.05
Mof_C 	C 	0.2779	0.9117	0.195	0.007
Mof_C 	C 	0.2925	0.8175	0.1636	0.008
Mof_C 	C 	0.2893	0.6543	0.1041	-0.043
Mof_C 	C 	0.3437	0.6764	0.123	-0.026
Mof_H 	H 	0.3764	0.6338	0.1146	0.04
Mof_C 	C 	0.3467	0.7699	0.1566	-0.068
Mof_H 	H 	0.3815	0.7969	0.1725	0.054
Mof_C 	C 	0.2711	0.5656	0.0712	0.095
Mof_C 	C 	0.1523	0.8127	0.5015	0.093
Mof_C 	C 	0.1194	0.9001	0.5243	-0.038
Mof_C 	C 	0.1009	0.9148	0.5803	-0.025
Mof_H 	H 	0.1086	0.8669	0.6108	0.039
Mof_C 	C 	0.07	0.0072	0.587	-0.067
Mof_H 	H 	0.0548	0.0297	0.6229	0.053
Mof_C 	C 	0.0634	0.0638	0.5367	0.008
Mof_C 	C 	0.0315	0.1622	0.5259	0.007
Mof_C 	C 	0.9744	0.3291	0.5358	0.006
Mof_C 	C 	0.9871	0.3031	0.4798	-0.052
Mof_H 	H 	0.9751	0.3442	0.4478	0.051
Mof_C 	C 	0.02	0.2084	0.4742	-0.05
Mof_H 	H 	0.0325	0.1806	0.4383	0.05
Mof_C 	C 	0.9435	0.4198	0.558	0.009
Mof_C 	C 	0.9426	0.4596	0.6124	-0.07
Mof_H 	H 	0.9627	0.4283	0.6436	0.054
Mof_C 	C 	0.9084	0.553	0.6181	-0.028
Mof_H 	H 	0.9032	0.5903	0.6532	0.038
Mof_C 	C 	0.8843	0.5815	0.5667	-0.044
Mof_C 	C 	0.8492	0.6742	0.5538	0.096
Mof_Ag	Ag	0.24657	0.12565	0.46894	0.669
Mof_S 	S 	0.25176	0.74569	0.32163	-0.023
Mof_S 	S 	0.16808	0.49139	0.22443	-0.024
Mof_S 	S 	0.26114	0.2472	0.12692	-0.016
Mof_S 	S 	0.40182	0.5013	0.47961	-0.023
Mof_S 	S 	0.49697	0.7344	0.58301	-0.025
Mof_S 	S 	0.59775	0.99563	0.5117	-0.019
Mof_N 	N 	0.2309	0.9983	0.4004	-0.204
Mof_N 	N 	0.2427	0.9937	0.0444	-0.195
Mof_N 	N 	0.3214	0.2431	0.4835	-0.198
Mof_N 	N 	0.6779	0.2458	0.5422	-0.203
Mof_C 	C 	0.2159	0.9277	0.3744	0.099
Mof_C 	C 	0.1994	0.8371	0.3413	-0.045
Mof_C 	C 	0.2003	0.6727	0.2847	0.009
Mof_C 	C 	0.1459	0.7178	0.2888	-0.071
Mof_H 	H 	0.1121	0.6886	0.2719	0.054
Mof_C 	C 	0.1462	0.8116	0.3208	-0.023
Mof_H 	H 	0.1125	0.8529	0.3274	0.037
Mof_C 	C 	0.2192	0.5782	0.2534	0.005
Mof_C 	C 	0.2743	0.5456	0.2404	-0.05
Mof_H 	H 	0.308	0.5829	0.2521	0.05
Mof_C 	C 	0.2764	0.4516	0.2081	-0.05
Mof_H 	H 	0.3116	0.419	0.1965	0.05
Mof_C 	C 	0.2221	0.4117	0.195	0.007
Mof_C 	C 	0.2075	0.3175	0.1636	0.007
Mof_C 	C 	0.2107	0.1543	0.1041	-0.042
Mof_C 	C 	0.1563	0.1764	0.123	-0.027
Mof_H 	H 	0.1236	0.1338	0.1146	0.04
Mof_C 	C 	0.1533	0.2699	0.1566	-0.068
Mof_H 	H 	0.1185	0.2969	0.1725	0.054
Mof_C 	C 	0.2289	0.0656	0.0712	0.093
Mof_C 	C 	0.3477	0.3127	0.5015	0.094
Mof_C 	C 	0.3806	0.4001	0.5243	-0.038
Mof_C 	C 	0.3991	0.4148	0.5803	-0.025
Mof_H 	H 	0.3914	0.3669	0.6108	0.039
Mof_C 	C 	0.43	0.5072	0.587	-0.067
Mof_H 	H 	0.4452	0.5297	0.6229	0.053
Mof_C 	C 	0.4366	0.5638	0.5367	0.009
Mof_C 	C 	0.4685	0.6622	0.5259	0.007
Mof_C 	C 	0.5256	0.8291	0.5358	0.006
Mof_C 	C 	0.5129	0.8031	0.4798	-0.051
Mof_H 	H 	0.5249	0.8442	0.4478	0.051
Mof_C 	C 	0.48	0.7084	0.4742	-0.05
Mof_H 	H 	0.4675	0.6806	0.4383	0.05
Mof_C 	C 	0.5565	0.9198	0.558	0.009
Mof_C 	C 	0.5574	0.9596	0.6124	-0.071
Mof_H 	H 	0.5373	0.9283	0.6436	0.054
Mof_C 	C 	0.5916	0.053	0.6181	-0.028
Mof_H 	H 	0.5968	0.0903	0.6532	0.038
Mof_C 	C 	0.6157	0.0815	0.5667	-0.044
Mof_C 	C 	0.6508	0.1742	0.5538	0.096
Mof_Ag	Ag	0.25343	0.87435	0.96894	0.668
Mof_S 	S 	0.24824	0.25431	0.82163	-0.023
Mof_S 	S 	0.33192	0.50861	0.72443	-0.024
Mof_S 	S 	0.23886	0.7528	0.62692	-0.016
Mof_S 	S 	0.09818	0.4987	0.97961	-0.024
Mof_S 	S 	0.00303	0.2656	0.08301	-0.024
Mof_S 	S 	0.90225	0.00437	0.0117	-0.021
Mof_N 	N 	0.2691	0.0017	0.9004	-0.203
Mof_N 	N 	0.2573	0.0063	0.5444	-0.197
Mof_N 	N 	0.1786	0.7569	0.9835	-0.199
Mof_N 	N 	0.8221	0.7542	0.0422	-0.203
Mof_C 	C 	0.2841	0.0723	0.8744	0.1
Mof_C 	C 	0.3006	0.1629	0.8413	-0.045
Mof_C 	C 	0.2997	0.3273	0.7847	0.009
Mof_C 	C 	0.3541	0.2822	0.7888	-0.071
Mof_H 	H 	0.3879	0.3114	0.7719	0.054
Mof_C 	C 	0.3538	0.1884	0.8208	-0.023
Mof_H 	H 	0.3875	0.1471	0.8274	0.037
Mof_C 	C 	0.2808	0.4218	0.7534	0.005
Mof_C 	C 	0.2257	0.4544	0.7404	-0.05
Mof_H 	H 	0.192	0.4171	0.7521	0.05
Mof_C 	C 	0.2236	0.5484	0.7081	-0.05
Mof_H 	H 	0.1884	0.581	0.6965	0.05
Mof_C 	C 	0.2779	0.5883	0.695	0.007
Mof_C 	C 	0.2925	0.6825	0.6636	0.008
Mof_C 	C 	0.2893	0.8457	0.6041	-0.043
Mof_C 	C 	0.3437	0.8236	0.623	-0.026
Mof_H 	H 	0.3764	0.8662	0.6146	0.04
Mof_C 	C 	0.3467	0.7301	0.6566	-0.068
Mof_H 	H 	0.3815	0.7031	0.6725	0.054
Mof_C 	C 	0.2711	0.9344	0.5712	0.095
Mof_C 	C 	0.1523	0.6873	0.0015	0.095
Mof_C 	C 	0.1194	0.5999	0.0243	-0.038
Mof_C 	C 	0.1009	0.5852	0.0803	-0.024
Mof_H 	H 	0.1086	0.6331	0.1108	0.039
Mof_C 	C 	0.07	0.4928	0.087	-0.067
Mof_H 	H 	0.0548	0.4703	0.1229	0.054
Mof_C 	C 	0.0634	0.4362	0.0367	0.009
Mof_C 	C 	0.0315	0.3378	0.0259	0.007
Mof_C 	C 	0.9744	0.1709	0.0358	0.003
Mof_C 	C 	0.9871	0.1969	0.9798	-0.048
Mof_H 	H 	0.9751	0.1558	0.9478	0.051
Mof_C 	C 	0.02	0.2916	0.9742	-0.052
Mof_H 	H 	0.0325	0.3194	0.9383	0.05
Mof_C 	C 	0.9435	0.0802	0.058	0.011
Mof_C 	C 	0.9426	0.0404	0.1124	-0.073
Mof_H 	H 	0.9627	0.0717	0.1436	0.054
Mof_C 	C 	0.9084	0.947	0.1181	-0.026
Mof_H 	H 	0.9032	0.9097	0.1532	0.038
Mof_C 	C 	0.8843	0.9185	0.0667	-0.043
Mof_C 	C 	0.8492	0.8258	0.0538	0.096
Mof_Ag	Ag	0.75343	0.62565	0.03106	0.67
Mof_S 	S 	0.74824	0.24569	0.17837	-0.023
Mof_S 	S 	0.83192	0.99139	0.27557	-0.023
Mof_S 	S 	0.73886	0.7472	0.37308	-0.016
Mof_S 	S 	0.59818	0.0013	0.02039	-0.025
Mof_S 	S 	0.50303	0.2344	0.91699	-0.025
Mof_S 	S 	0.40225	0.49563	0.9883	-0.019
Mof_N 	N 	0.7691	0.4983	0.0996	-0.204
Mof_N 	N 	0.7573	0.4937	0.4556	-0.197
Mof_N 	N 	0.6786	0.7431	0.0165	-0.198
Mof_N 	N 	0.3221	0.7458	0.9578	-0.203
Mof_C 	C 	0.7841	0.4277	0.1256	0.099
Mof_C 	C 	0.8006	0.3371	0.1587	-0.045
Mof_C 	C 	0.7997	0.1727	0.2153	0.009
Mof_C 	C 	0.8541	0.2178	0.2112	-0.071
Mof_H 	H 	0.8879	0.1886	0.2281	0.053
Mof_C 	C 	0.8538	0.3116	0.1792	-0.023
Mof_H 	H 	0.8875	0.3529	0.1726	0.036
Mof_C 	C 	0.7808	0.0782	0.2466	0.005
Mof_C 	C 	0.7257	0.0456	0.2596	-0.051
Mof_H 	H 	0.692	0.0829	0.2479	0.05
Mof_C 	C 	0.7236	0.9516	0.2919	-0.049
Mof_H 	H 	0.6884	0.919	0.3035	0.05
Mof_C 	C 	0.7779	0.9117	0.305	0.007
Mof_C 	C 	0.7925	0.8175	0.3364	0.008
Mof_C 	C 	0.7893	0.6543	0.3959	-0.043
Mof_C 	C 	0.8437	0.6764	0.377	-0.026
Mof_H 	H 	0.8764	0.6338	0.3854	0.04
Mof_C 	C 	0.8467	0.7699	0.3434	-0.068
Mof_H 	H 	0.8815	0.7969	0.3275	0.054
Mof_C 	C 	0.7711	0.5656	0.4288	0.095
Mof_C 	C 	0.6523	0.8127	0.9985	0.092
Mof_C 	C 	0.6194	0.9001	0.9757	-0.037
Mof_C 	C 	0.6009	0.9148	0.9197	-0.027
Mof_H 	H 	0.6086	0.8669	0.8892	0.039
Mof_C 	C 	0.57	0.0072	0.913	-0.065
Mof_H 	H 	0.5548	0.0297	0.8771	0.053
Mof_C 	C 	0.5634	0.0638	0.9633	0.009
Mof_C 	C 	0.5315	0.1622	0.9741	0.008
Mof_C 	C 	0.4744	0.3291	0.9642	0.007
Mof_C 	C 	0.4871	0.3031	0.0202	-0.052
Mof_H 	H 	0.4751	0.3442	0.0522	0.051
Mof_C 	C 	0.52	0.2084	0.0258	-0.052
Mof_H 	H 	0.5325	0.1806	0.0617	0.05
Mof_C 	C 	0.4435	0.4198	0.942	0.009
Mof_C 	C 	0.4426	0.4596	0.8876	-0.07
Mof_H 	H 	0.4627	0.4283	0.8564	0.054
Mof_C 	C 	0.4084	0.553	0.8819	-0.028
Mof_H 	H 	0.4032	0.5903	0.8468	0.038
Mof_C 	C 	0.3843	0.5815	0.9333	-0.044
Mof_C 	C 	0.3492	0.6742	0.9462	0.096
Mof_Ag	Ag	0.74657	0.37435	0.53106	0.669
Mof_S 	S 	0.75176	0.75431	0.67837	-0.023
Mof_S 	S 	0.66808	0.00861	0.77557	-0.023
Mof_S 	S 	0.76114	0.2528	0.87308	-0.016
Mof_S 	S 	0.90182	0.9987	0.52039	-0.023
Mof_S 	S 	0.99697	0.7656	0.41699	-0.025
Mof_S 	S 	0.09775	0.50437	0.4883	-0.019
Mof_N 	N 	0.7309	0.5017	0.5996	-0.204
Mof_N 	N 	0.7427	0.5063	0.9556	-0.197
Mof_N 	N 	0.8214	0.2569	0.5165	-0.198
Mof_N 	N 	0.1779	0.2542	0.4578	-0.203
Mof_C 	C 	0.7159	0.5723	0.6256	0.099
Mof_C 	C 	0.6994	0.6629	0.6587	-0.045
Mof_C 	C 	0.7003	0.8273	0.7153	0.009
Mof_C 	C 	0.6459	0.7822	0.7112	-0.071
Mof_H 	H 	0.6121	0.8114	0.7281	0.053
Mof_C 	C 	0.6462	0.6884	0.6792	-0.023
Mof_H 	H 	0.6125	0.6471	0.6726	0.037
Mof_C 	C 	0.7192	0.9218	0.7466	0.005
Mof_C 	C 	0.7743	0.9544	0.7596	-0.051
Mof_H 	H 	0.808	0.9171	0.7479	0.05
Mof_C 	C 	0.7764	0.0484	0.7919	-0.049
Mof_H 	H 	0.8116	0.081	0.8035	0.05
Mof_C 	C 	0.7221	0.0883	0.805	0.007
Mof_C 	C 	0.7075	0.1825	0.8364	0.008
Mof_C 	C 	0.7107	0.3457	0.8959	-0.043
Mof_C 	C 	0.6563	0.3236	0.877	-0.026
Mof_H 	H 	0.6236	0.3662	0.8854	0.04
Mof_C 	C 	0.6533	0.2301	0.8434	-0.068
Mof_H 	H 	0.6185	0.2031	0.8275	0.054
Mof_C 	C 	0.7289	0.4344	0.9288	0.095
Mof_C 	C 	0.8477	0.1873	0.4985	0.093
Mof_C 	C 	0.8806	0.0999	0.4757	-0.038
Mof_C 	C 	0.8991	0.0852	0.4197	-0.025
Mof_H 	H 	0.8914	0.1331	0.3892	0.039
Mof_C 	C 	0.93	0.9928	0.413	-0.067
Mof_H 	H 	0.9452	0.9703	0.3771	0.053
Mof_C 	C 	0.9366	0.9362	0.4633	0.008
Mof_C 	C 	0.9685	0.8378	0.4741	0.007
Mof_C 	C 	0.0256	0.6709	0.4642	0.006
Mof_C 	C 	0.0129	0.6969	0.5202	-0.052
Mof_H 	H 	0.0249	0.6558	0.5522	0.051
Mof_C 	C 	0.98	0.7916	0.5258	-0.05
Mof_H 	H 	0.9675	0.8194	0.5617	0.05
Mof_C 	C 	0.0565	0.5802	0.442	0.009
Mof_C 	C 	0.0574	0.5404	0.3876	-0.07
Mof_H 	H 	0.0373	0.5717	0.3564	0.054
Mof_C 	C 	0.0916	0.447	0.3819	-0.028
Mof_H 	H 	0.0968	0.4097	0.3468	0.038
Mof_C 	C 	0.1157	0.4185	0.4333	-0.044
Mof_C 	C 	0.1508	0.3258	0.4462	0.096
_end
