data_functionalizedCrystal
_audit_creation_method	'EQeq! by Chris Wilmer'
_symmetry_space_group_name_H-M	'P1'
_symmetry_Int_Tables_number	1
_symmetry_cell_setting	triclinic
loop_
_symmetry_equiv_pos_as_xyz
  x,y,z
_cell_length_a	17.8023
_cell_length_b	16.1037
_cell_length_c	19.1232
_cell_angle_alpha	90
_cell_angle_beta	90
_cell_angle_gamma	90
loop_
_atom_site_label
_atom_site_type_symbol
_atom_site_fract_x
_atom_site_fract_y
_atom_site_fract_z
_atom_site_charge
Mof_Fe	Fe	0.23357	0.66496	0.54241	1.153
Mof_Fe	Fe	0.45778	0.83565	0.55121	1.01
Mof_Fe	Fe	0.94604	0.75601	0.70677	1.113
Mof_P 	P 	0.1164	0.75924	0.65008	0.766
Mof_P 	P 	0.30446	0.95896	0.54181	0.766
Mof_P 	P 	0.34167	0.72765	0.65893	0.683
Mof_P 	P 	0.35258	0.73392	0.43509	0.679
Mof_P 	P 	0.01199	0.90711	0.79496	0.66
Mof_P 	P 	0.12635	0.75142	0.92706	0.78
Mof_B 	B 	0.2396	0.8379	0.6122	2.204
Mof_B 	B 	0.2389	0.8353	0.4773	2.184
Mof_B 	B 	0.0954	0.7661	0.78617	2.485
Mof_O 	O 	0.03318	0.77802	0.64574	-0.375
Mof_O 	O 	0.1414	0.68967	0.60198	-0.372
Mof_O 	O 	0.13683	0.73407	0.72622	-0.799
Mof_O 	O 	0.15994	0.84014	0.63144	-0.762
Mof_O 	O 	0.29651	0.05081	0.54298	-0.365
Mof_O 	O 	0.3851	0.93107	0.53585	-0.386
Mof_O 	O 	0.26561	0.92386	0.60844	-0.773
Mof_O 	O 	0.25686	0.92427	0.47996	-0.761
Mof_O 	O 	0.30252	0.65477	0.62375	-0.34
Mof_O 	O 	0.40785	0.75882	0.61566	-0.438
Mof_O 	O 	0.36847	0.70391	0.73193	-0.331
Mof_O 	O 	0.28279	0.79834	0.66844	-0.751
Mof_O 	O 	0.41838	0.77753	0.46925	-0.386
Mof_O 	O 	0.37464	0.70333	0.3622	-0.332
Mof_O 	O 	0.32411	0.6606	0.47894	-0.333
Mof_O 	O 	0.28675	0.79685	0.42349	-0.742
Mof_O 	O 	0.02566	0.99491	0.77116	-0.172
Mof_O 	O 	0.99789	0.90334	0.87363	-0.391
Mof_O 	O 	0.94783	0.86606	0.75319	-0.354
Mof_O 	O 	0.08525	0.85617	0.77986	-0.828
Mof_O 	O 	0.16904	0.82396	0.95757	-0.395
Mof_O 	O 	0.04305	0.75297	0.9426	-0.402
Mof_O 	O 	0.14042	0.74633	0.84709	-0.843
Mof_O 	O 	0.15991	0.66893	0.95573	-0.748
Mof_O 	O 	0.25146	0.79419	0.54494	-1.347
Mof_O 	O 	0.02215	0.72244	0.78713	-1.709
Mof_H 	H 	0.002	0.726	0.818	0.957
Mof_Fe	Fe	0.26643	0.33504	0.04241	1.152
Mof_Fe	Fe	0.04222	0.16435	0.05121	1.007
Mof_Fe	Fe	0.55396	0.24399	0.20677	1.113
Mof_P 	P 	0.3836	0.24076	0.15008	0.765
Mof_P 	P 	0.19554	0.04104	0.04181	0.763
Mof_P 	P 	0.15833	0.27235	0.15893	0.682
Mof_P 	P 	0.14742	0.26608	0.93509	0.679
Mof_P 	P 	0.48801	0.09289	0.29496	0.657
Mof_P 	P 	0.37365	0.24858	0.42706	0.78
Mof_B 	B 	0.2604	0.1621	0.1122	2.205
Mof_B 	B 	0.2611	0.1647	0.9773	2.186
Mof_B 	B 	0.4046	0.2339	0.28617	2.485
Mof_O 	O 	0.46682	0.22198	0.14574	-0.376
Mof_O 	O 	0.3586	0.31033	0.10198	-0.372
Mof_O 	O 	0.36317	0.26593	0.22622	-0.799
Mof_O 	O 	0.34006	0.15986	0.13144	-0.763
Mof_O 	O 	0.20349	0.94919	0.04298	-0.363
Mof_O 	O 	0.1149	0.06893	0.03585	-0.386
Mof_O 	O 	0.23439	0.07614	0.10844	-0.774
Mof_O 	O 	0.24314	0.07573	0.97996	-0.761
Mof_O 	O 	0.19748	0.34523	0.12375	-0.34
Mof_O 	O 	0.09215	0.24118	0.11566	-0.439
Mof_O 	O 	0.13153	0.29609	0.23193	-0.331
Mof_O 	O 	0.21721	0.20166	0.16844	-0.751
Mof_O 	O 	0.08162	0.22247	0.96925	-0.385
Mof_O 	O 	0.12536	0.29667	0.8622	-0.331
Mof_O 	O 	0.17589	0.3394	0.97894	-0.332
Mof_O 	O 	0.21325	0.20315	0.92349	-0.742
Mof_O 	O 	0.47434	0.00509	0.27116	-0.173
Mof_O 	O 	0.50211	0.09666	0.37363	-0.389
Mof_O 	O 	0.55217	0.13394	0.25319	-0.352
Mof_O 	O 	0.41475	0.14383	0.27986	-0.828
Mof_O 	O 	0.33096	0.17604	0.45757	-0.395
Mof_O 	O 	0.45695	0.24703	0.4426	-0.403
Mof_O 	O 	0.35958	0.25367	0.34709	-0.843
Mof_O 	O 	0.34009	0.33107	0.45573	-0.748
Mof_O 	O 	0.24854	0.20581	0.04494	-1.348
Mof_O 	O 	0.47785	0.27756	0.28713	-1.709
Mof_H 	H 	0.498	0.274	0.318	0.956
Mof_Fe	Fe	0.76643	0.16496	0.95759	1.152
Mof_Fe	Fe	0.54222	0.33565	0.94879	1.009
Mof_Fe	Fe	0.05396	0.25601	0.79323	1.113
Mof_P 	P 	0.8836	0.25924	0.84992	0.765
Mof_P 	P 	0.69554	0.45896	0.95819	0.765
Mof_P 	P 	0.65833	0.22765	0.84107	0.682
Mof_P 	P 	0.64742	0.23392	0.06491	0.679
Mof_P 	P 	0.98801	0.40711	0.70504	0.657
Mof_P 	P 	0.87365	0.25142	0.57294	0.78
Mof_B 	B 	0.7604	0.3379	0.8878	2.205
Mof_B 	B 	0.7611	0.3353	0.0227	2.185
Mof_B 	B 	0.9046	0.2661	0.71383	2.485
Mof_O 	O 	0.96682	0.27802	0.85426	-0.375
Mof_O 	O 	0.8586	0.18967	0.89802	-0.372
Mof_O 	O 	0.86317	0.23407	0.77378	-0.799
Mof_O 	O 	0.84006	0.34014	0.86856	-0.762
Mof_O 	O 	0.70349	0.55081	0.95702	-0.364
Mof_O 	O 	0.6149	0.43107	0.96415	-0.385
Mof_O 	O 	0.73439	0.42386	0.89156	-0.773
Mof_O 	O 	0.74314	0.42427	0.02004	-0.761
Mof_O 	O 	0.69748	0.15477	0.87625	-0.34
Mof_O 	O 	0.59215	0.25882	0.88434	-0.438
Mof_O 	O 	0.63153	0.20391	0.76807	-0.331
Mof_O 	O 	0.71721	0.29834	0.83156	-0.751
Mof_O 	O 	0.58162	0.27753	0.03075	-0.386
Mof_O 	O 	0.62536	0.20333	0.1378	-0.332
Mof_O 	O 	0.67589	0.1606	0.02106	-0.333
Mof_O 	O 	0.71325	0.29685	0.07651	-0.742
Mof_O 	O 	0.97434	0.49491	0.72884	-0.172
Mof_O 	O 	0.00211	0.40334	0.62637	-0.389
Mof_O 	O 	0.05217	0.36606	0.74681	-0.352
Mof_O 	O 	0.91475	0.35617	0.72014	-0.828
Mof_O 	O 	0.83096	0.32396	0.54243	-0.395
Mof_O 	O 	0.95695	0.25297	0.5574	-0.403
Mof_O 	O 	0.85958	0.24633	0.65291	-0.843
Mof_O 	O 	0.84009	0.16893	0.54427	-0.748
Mof_O 	O 	0.74854	0.29419	0.95506	-1.348
Mof_O 	O 	0.97785	0.22244	0.71287	-1.709
Mof_H 	H 	0.998	0.226	0.682	0.956
Mof_Fe	Fe	0.73357	0.83504	0.45759	1.152
Mof_Fe	Fe	0.95778	0.66435	0.44879	1.009
Mof_Fe	Fe	0.44604	0.74399	0.29323	1.113
Mof_P 	P 	0.6164	0.74076	0.34992	0.765
Mof_P 	P 	0.80446	0.54104	0.45819	0.765
Mof_P 	P 	0.84167	0.77235	0.34107	0.682
Mof_P 	P 	0.85258	0.76608	0.56491	0.679
Mof_P 	P 	0.51199	0.59289	0.20504	0.657
Mof_P 	P 	0.62635	0.74858	0.07294	0.78
Mof_B 	B 	0.7396	0.6621	0.3878	2.204
Mof_B 	B 	0.7389	0.6647	0.5227	2.184
Mof_B 	B 	0.5954	0.7339	0.21383	2.485
Mof_O 	O 	0.53318	0.72198	0.35426	-0.376
Mof_O 	O 	0.6414	0.81033	0.39802	-0.372
Mof_O 	O 	0.63683	0.76593	0.27378	-0.799
Mof_O 	O 	0.65994	0.65986	0.36856	-0.762
Mof_O 	O 	0.79651	0.44919	0.45702	-0.364
Mof_O 	O 	0.8851	0.56893	0.46415	-0.385
Mof_O 	O 	0.76561	0.57614	0.39156	-0.773
Mof_O 	O 	0.75686	0.57573	0.52004	-0.761
Mof_O 	O 	0.80252	0.84523	0.37625	-0.34
Mof_O 	O 	0.90785	0.74118	0.38434	-0.438
Mof_O 	O 	0.86847	0.79609	0.26807	-0.331
Mof_O 	O 	0.78279	0.70166	0.33156	-0.751
Mof_O 	O 	0.91838	0.72247	0.53075	-0.386
Mof_O 	O 	0.87464	0.79667	0.6378	-0.332
Mof_O 	O 	0.82411	0.8394	0.52106	-0.333
Mof_O 	O 	0.78675	0.70315	0.57651	-0.742
Mof_O 	O 	0.52566	0.50509	0.22884	-0.172
Mof_O 	O 	0.49789	0.59666	0.12637	-0.389
Mof_O 	O 	0.44783	0.63394	0.24681	-0.352
Mof_O 	O 	0.58525	0.64383	0.22014	-0.828
Mof_O 	O 	0.66904	0.67604	0.04243	-0.395
Mof_O 	O 	0.54305	0.74703	0.0574	-0.403
Mof_O 	O 	0.64042	0.75367	0.15291	-0.843
Mof_O 	O 	0.65991	0.83107	0.04427	-0.749
Mof_O 	O 	0.75146	0.70581	0.45506	-1.347
Mof_O 	O 	0.52215	0.77756	0.21287	-1.709
Mof_H 	H 	0.502	0.774	0.182	0.956
Mof_Fe	Fe	0.76643	0.33504	0.45759	1.152
Mof_Fe	Fe	0.54222	0.16435	0.44879	1.009
Mof_Fe	Fe	0.05396	0.24399	0.29323	1.112
Mof_P 	P 	0.8836	0.24076	0.34992	0.765
Mof_P 	P 	0.69554	0.04104	0.45819	0.765
Mof_P 	P 	0.65833	0.27235	0.34107	0.682
Mof_P 	P 	0.64742	0.26608	0.56491	0.679
Mof_P 	P 	0.98801	0.09289	0.20504	0.66
Mof_P 	P 	0.87365	0.24858	0.07294	0.78
Mof_B 	B 	0.7604	0.1621	0.3878	2.204
Mof_B 	B 	0.7611	0.1647	0.5227	2.184
Mof_B 	B 	0.9046	0.2339	0.21383	2.485
Mof_O 	O 	0.96682	0.22198	0.35426	-0.375
Mof_O 	O 	0.8586	0.31033	0.39802	-0.372
Mof_O 	O 	0.86317	0.26593	0.27378	-0.799
Mof_O 	O 	0.84006	0.15986	0.36856	-0.762
Mof_O 	O 	0.70349	0.94919	0.45702	-0.365
Mof_O 	O 	0.6149	0.06893	0.46415	-0.386
Mof_O 	O 	0.73439	0.07614	0.39156	-0.773
Mof_O 	O 	0.74314	0.07573	0.52004	-0.761
Mof_O 	O 	0.69748	0.34523	0.37625	-0.34
Mof_O 	O 	0.59215	0.24118	0.38434	-0.438
Mof_O 	O 	0.63153	0.29609	0.26807	-0.331
Mof_O 	O 	0.71721	0.20166	0.33156	-0.751
Mof_O 	O 	0.58162	0.22247	0.53075	-0.386
Mof_O 	O 	0.62536	0.29667	0.6378	-0.332
Mof_O 	O 	0.67589	0.3394	0.52106	-0.333
Mof_O 	O 	0.71325	0.20315	0.57651	-0.742
Mof_O 	O 	0.97434	0.00509	0.22884	-0.172
Mof_O 	O 	0.00211	0.09666	0.12637	-0.391
Mof_O 	O 	0.05217	0.13394	0.24681	-0.354
Mof_O 	O 	0.91475	0.14383	0.22014	-0.828
Mof_O 	O 	0.83096	0.17604	0.04243	-0.395
Mof_O 	O 	0.95695	0.24703	0.0574	-0.402
Mof_O 	O 	0.85958	0.25367	0.15291	-0.843
Mof_O 	O 	0.84009	0.33107	0.04427	-0.748
Mof_O 	O 	0.74854	0.20581	0.45506	-1.347
Mof_O 	O 	0.97785	0.27756	0.21287	-1.709
Mof_H 	H 	0.998	0.274	0.182	0.957
Mof_Fe	Fe	0.73357	0.66496	0.95759	1.152
Mof_Fe	Fe	0.95778	0.83565	0.94879	1.007
Mof_Fe	Fe	0.44604	0.75601	0.79323	1.113
Mof_P 	P 	0.6164	0.75924	0.84992	0.765
Mof_P 	P 	0.80446	0.95896	0.95819	0.763
Mof_P 	P 	0.84167	0.72765	0.84107	0.682
Mof_P 	P 	0.85258	0.73392	0.06491	0.679
Mof_P 	P 	0.51199	0.90711	0.70504	0.657
Mof_P 	P 	0.62635	0.75142	0.57294	0.78
Mof_B 	B 	0.7396	0.8379	0.8878	2.205
Mof_B 	B 	0.7389	0.8353	0.0227	2.186
Mof_B 	B 	0.5954	0.7661	0.71383	2.485
Mof_O 	O 	0.53318	0.77802	0.85426	-0.376
Mof_O 	O 	0.6414	0.68967	0.89802	-0.372
Mof_O 	O 	0.63683	0.73407	0.77378	-0.799
Mof_O 	O 	0.65994	0.84014	0.86856	-0.763
Mof_O 	O 	0.79651	0.05081	0.95702	-0.363
Mof_O 	O 	0.8851	0.93107	0.96415	-0.386
Mof_O 	O 	0.76561	0.92386	0.89156	-0.774
Mof_O 	O 	0.75686	0.92427	0.02004	-0.761
Mof_O 	O 	0.80252	0.65477	0.87625	-0.34
Mof_O 	O 	0.90785	0.75882	0.88434	-0.439
Mof_O 	O 	0.86847	0.70391	0.76807	-0.331
Mof_O 	O 	0.78279	0.79834	0.83156	-0.751
Mof_O 	O 	0.91838	0.77753	0.03075	-0.385
Mof_O 	O 	0.87464	0.70333	0.1378	-0.331
Mof_O 	O 	0.82411	0.6606	0.02106	-0.332
Mof_O 	O 	0.78675	0.79685	0.07651	-0.742
Mof_O 	O 	0.52566	0.99491	0.72884	-0.173
Mof_O 	O 	0.49789	0.90334	0.62637	-0.389
Mof_O 	O 	0.44783	0.86606	0.74681	-0.352
Mof_O 	O 	0.58525	0.85617	0.72014	-0.828
Mof_O 	O 	0.66904	0.82396	0.54243	-0.395
Mof_O 	O 	0.54305	0.75297	0.5574	-0.403
Mof_O 	O 	0.64042	0.74633	0.65291	-0.843
Mof_O 	O 	0.65991	0.66893	0.54427	-0.748
Mof_O 	O 	0.75146	0.79419	0.95506	-1.348
Mof_O 	O 	0.52215	0.72244	0.71287	-1.709
Mof_H 	H 	0.502	0.726	0.682	0.956
Mof_Fe	Fe	0.23357	0.83504	0.04241	1.152
Mof_Fe	Fe	0.45778	0.66435	0.05121	1.009
Mof_Fe	Fe	0.94604	0.74399	0.20677	1.113
Mof_P 	P 	0.1164	0.74076	0.15008	0.765
Mof_P 	P 	0.30446	0.54104	0.04181	0.765
Mof_P 	P 	0.34167	0.77235	0.15893	0.682
Mof_P 	P 	0.35258	0.76608	0.93509	0.679
Mof_P 	P 	0.01199	0.59289	0.29496	0.657
Mof_P 	P 	0.12635	0.74858	0.42706	0.78
Mof_B 	B 	0.2396	0.6621	0.1122	2.205
Mof_B 	B 	0.2389	0.6647	0.9773	2.185
Mof_B 	B 	0.0954	0.7339	0.28617	2.485
Mof_O 	O 	0.03318	0.72198	0.14574	-0.375
Mof_O 	O 	0.1414	0.81033	0.10198	-0.372
Mof_O 	O 	0.13683	0.76593	0.22622	-0.799
Mof_O 	O 	0.15994	0.65986	0.13144	-0.762
Mof_O 	O 	0.29651	0.44919	0.04298	-0.364
Mof_O 	O 	0.3851	0.56893	0.03585	-0.385
Mof_O 	O 	0.26561	0.57614	0.10844	-0.773
Mof_O 	O 	0.25686	0.57573	0.97996	-0.761
Mof_O 	O 	0.30252	0.84523	0.12375	-0.34
Mof_O 	O 	0.40785	0.74118	0.11566	-0.438
Mof_O 	O 	0.36847	0.79609	0.23193	-0.331
Mof_O 	O 	0.28279	0.70166	0.16844	-0.751
Mof_O 	O 	0.41838	0.72247	0.96925	-0.386
Mof_O 	O 	0.37464	0.79667	0.8622	-0.332
Mof_O 	O 	0.32411	0.8394	0.97894	-0.333
Mof_O 	O 	0.28675	0.70315	0.92349	-0.742
Mof_O 	O 	0.02566	0.50509	0.27116	-0.172
Mof_O 	O 	0.99789	0.59666	0.37363	-0.389
Mof_O 	O 	0.94783	0.63394	0.25319	-0.352
Mof_O 	O 	0.08525	0.64383	0.27986	-0.828
Mof_O 	O 	0.16904	0.67604	0.45757	-0.395
Mof_O 	O 	0.04305	0.74703	0.4426	-0.403
Mof_O 	O 	0.14042	0.75367	0.34709	-0.843
Mof_O 	O 	0.15991	0.83107	0.45573	-0.748
Mof_O 	O 	0.25146	0.70581	0.04494	-1.348
Mof_O 	O 	0.02215	0.77756	0.28713	-1.709
Mof_H 	H 	0.002	0.774	0.318	0.956
Mof_Fe	Fe	0.26643	0.16496	0.54241	1.152
Mof_Fe	Fe	0.04222	0.33565	0.55121	1.009
Mof_Fe	Fe	0.55396	0.25601	0.70677	1.113
Mof_P 	P 	0.3836	0.25924	0.65008	0.765
Mof_P 	P 	0.19554	0.45896	0.54181	0.765
Mof_P 	P 	0.15833	0.22765	0.65893	0.682
Mof_P 	P 	0.14742	0.23392	0.43509	0.679
Mof_P 	P 	0.48801	0.40711	0.79496	0.657
Mof_P 	P 	0.37365	0.25142	0.92706	0.78
Mof_B 	B 	0.2604	0.3379	0.6122	2.204
Mof_B 	B 	0.2611	0.3353	0.4773	2.184
Mof_B 	B 	0.4046	0.2661	0.78617	2.485
Mof_O 	O 	0.46682	0.27802	0.64574	-0.376
Mof_O 	O 	0.3586	0.18967	0.60198	-0.372
Mof_O 	O 	0.36317	0.23407	0.72622	-0.799
Mof_O 	O 	0.34006	0.34014	0.63144	-0.762
Mof_O 	O 	0.20349	0.55081	0.54298	-0.364
Mof_O 	O 	0.1149	0.43107	0.53585	-0.385
Mof_O 	O 	0.23439	0.42386	0.60844	-0.773
Mof_O 	O 	0.24314	0.42427	0.47996	-0.761
Mof_O 	O 	0.19748	0.15477	0.62375	-0.34
Mof_O 	O 	0.09215	0.25882	0.61566	-0.438
Mof_O 	O 	0.13153	0.20391	0.73193	-0.331
Mof_O 	O 	0.21721	0.29834	0.66844	-0.751
Mof_O 	O 	0.08162	0.27753	0.46925	-0.386
Mof_O 	O 	0.12536	0.20333	0.3622	-0.332
Mof_O 	O 	0.17589	0.1606	0.47894	-0.333
Mof_O 	O 	0.21325	0.29685	0.42349	-0.742
Mof_O 	O 	0.47434	0.49491	0.77116	-0.172
Mof_O 	O 	0.50211	0.40334	0.87363	-0.389
Mof_O 	O 	0.55217	0.36606	0.75319	-0.352
Mof_O 	O 	0.41475	0.35617	0.77986	-0.828
Mof_O 	O 	0.33096	0.32396	0.95757	-0.395
Mof_O 	O 	0.45695	0.25297	0.9426	-0.403
Mof_O 	O 	0.35958	0.24633	0.84709	-0.843
Mof_O 	O 	0.34009	0.16893	0.95573	-0.749
Mof_O 	O 	0.24854	0.29419	0.54494	-1.347
Mof_O 	O 	0.47785	0.22244	0.78713	-1.709
Mof_H 	H 	0.498	0.226	0.818	0.956
_end
