data_functionalizedCrystal
_audit_creation_method	'EQeq! by Chris Wilmer'
_symmetry_space_group_name_H-M	'P1'
_symmetry_Int_Tables_number	1
_symmetry_cell_setting	triclinic
loop_
_symmetry_equiv_pos_as_xyz
  x,y,z
_cell_length_a	16.0853
_cell_length_b	17.4169
_cell_length_c	19.3667
_cell_angle_alpha	69.09
_cell_angle_beta	65.463
_cell_angle_gamma	62.4985
loop_
_atom_site_label
_atom_site_type_symbol
_atom_site_fract_x
_atom_site_fract_y
_atom_site_fract_z
_atom_site_charge
Mof_Cu	Cu	0.5167	0.92428	0.04978	0.904
Mof_Cu	Cu	0.4568	0.05576	0.54756	0.903
Mof_Cu	Cu	0.49076	0.57572	0.45022	0.905
Mof_Cu	Cu	0.06012	0.44424	0.95244	0.902
Mof_Cu	Cu	0.4833	0.07572	0.95022	0.904
Mof_Cu	Cu	0.5432	0.94424	0.45244	0.903
Mof_Cu	Cu	0.50924	0.42428	0.54978	0.905
Mof_Cu	Cu	0.93988	0.55576	0.04756	0.902
Mof_H 	H 	0.8173	0.7861	0.9229	0.002
Mof_H 	H 	0.9741	0.7333	0.8389	0.152
Mof_H 	H 	0.9285	0.9708	0.6948	0.132
Mof_H 	H 	0.7667	0.0253	0.7773	-0.006
Mof_H 	H 	0.2136	0.7529	0.6131	0.142
Mof_H 	H 	0.3457	0.8011	0.5541	0.003
Mof_H 	H 	0.1973	0.9901	0.6825	-0.006
Mof_H 	H 	0.0665	0.941	0.7398	0.129
Mof_H 	H 	0.6185	0.1891	0.0177	-0.008
Mof_H 	H 	0.6672	0.2474	0.0778	0.13
Mof_H 	H 	0.6297	0.0572	0.2712	0.15
Mof_H 	H 	0.5784	0.001	0.2104	-0.007
Mof_H 	H 	0.838	0.1657	0.1097	0.128
Mof_H 	H 	0.9307	0.254	0.0548	-0.007
Mof_H 	H 	0.7446	0.4128	0.2064	-0.002
Mof_H 	H 	0.642	0.3316	0.2578	0.14
Mof_H 	H 	0.5263	0.7139	0.5771	0.001
Mof_H 	H 	0.5463	0.7667	0.6611	0.15
Mof_H 	H 	0.5941	0.5292	0.8052	0.131
Mof_H 	H 	0.5693	0.4747	0.7227	-0.005
Mof_H 	H 	0.5796	0.7471	0.8869	0.142
Mof_H 	H 	0.7009	0.6989	0.9459	0.003
Mof_H 	H 	0.8699	0.5099	0.8175	-0.006
Mof_H 	H 	0.7473	0.559	0.7602	0.129
Mof_H 	H 	0.8253	0.3109	0.4823	-0.008
Mof_H 	H 	0.9924	0.2526	0.4222	0.13
Mof_H 	H 	0.9581	0.4428	0.2288	0.149
Mof_H 	H 	0.7898	0.499	0.2896	-0.007
Mof_H 	H 	0.1134	0.3343	0.3903	0.128
Mof_H 	H 	0.2395	0.246	0.4452	-0.006
Mof_H 	H 	0.3638	0.0872	0.2936	-0.002
Mof_H 	H 	0.2314	0.1684	0.2422	0.14
Mof_H 	H 	0.1827	0.2139	0.0771	0.001
Mof_H 	H 	0.0259	0.2667	0.1611	0.151
Mof_H 	H 	0.0715	0.0292	0.3052	0.132
Mof_H 	H 	0.2333	0.9747	0.2227	-0.006
Mof_H 	H 	0.7864	0.2471	0.3869	0.142
Mof_H 	H 	0.6543	0.1989	0.4459	0.003
Mof_H 	H 	0.8027	0.0099	0.3175	-0.006
Mof_H 	H 	0.9335	0.059	0.2602	0.129
Mof_H 	H 	0.3815	0.8109	0.9823	-0.008
Mof_H 	H 	0.3328	0.7526	0.9222	0.13
Mof_H 	H 	0.3703	0.9428	0.7288	0.15
Mof_H 	H 	0.4216	0.999	0.7896	-0.007
Mof_H 	H 	0.162	0.8343	0.8903	0.128
Mof_H 	H 	0.0693	0.746	0.9452	-0.007
Mof_H 	H 	0.2554	0.5872	0.7936	-0.002
Mof_H 	H 	0.358	0.6684	0.7422	0.14
Mof_H 	H 	0.4737	0.2861	0.4229	0.001
Mof_H 	H 	0.4537	0.2333	0.3389	0.15
Mof_H 	H 	0.4059	0.4708	0.1948	0.131
Mof_H 	H 	0.4307	0.5253	0.2773	-0.005
Mof_H 	H 	0.4204	0.2529	0.1131	0.142
Mof_H 	H 	0.2991	0.3011	0.0541	0.003
Mof_H 	H 	0.1301	0.4901	0.1825	-0.006
Mof_H 	H 	0.2527	0.441	0.2398	0.129
Mof_H 	H 	0.1747	0.6891	0.5177	-0.008
Mof_H 	H 	0.0076	0.7474	0.5778	0.13
Mof_H 	H 	0.0419	0.5572	0.7712	0.149
Mof_H 	H 	0.2102	0.501	0.7104	-0.007
Mof_H 	H 	0.8866	0.6657	0.6097	0.128
Mof_H 	H 	0.7605	0.754	0.5548	-0.006
Mof_H 	H 	0.6362	0.9128	0.7064	-0.002
Mof_H 	H 	0.7686	0.8316	0.7578	0.14
Mof_C 	C 	0.6728	0.9448	0.9098	0.405
Mof_C 	C 	0.7749	0.9112	0.8588	-0.206
Mof_C 	C 	0.8386	0.8243	0.8761	0.161
Mof_C 	C 	0.9319	0.7929	0.8265	-0.274
Mof_C 	C 	0.9643	0.8474	0.759	0.315
Mof_C 	C 	0.905	0.9331	0.7409	-0.287
Mof_C 	C 	0.8086	0.9659	0.7905	0.155
Mof_C 	C 	0.1273	0.8455	0.6785	0.306
Mof_C 	C 	0.21	0.8023	0.6261	-0.264
Mof_C 	C 	0.289	0.8301	0.5917	0.144
Mof_C 	C 	0.2845	0.9012	0.6126	-0.174
Mof_C 	C 	0.201	0.942	0.6676	0.158
Mof_C 	C 	0.123	0.9134	0.7012	-0.279
Mof_C 	C 	0.3697	0.9338	0.5726	0.382
Mof_C 	C 	0.5928	0.0892	0.1082	-0.201
Mof_C 	C 	0.6198	0.1629	0.0697	0.157
Mof_C 	C 	0.648	0.198	0.105	-0.271
Mof_C 	C 	0.6481	0.1597	0.1825	0.307
Mof_C 	C 	0.6255	0.0851	0.2201	-0.276
Mof_C 	C 	0.5963	0.0514	0.1834	0.165
Mof_C 	C 	0.7298	0.2423	0.1875	0.293
Mof_C 	C 	0.8172	0.2175	0.1281	-0.275
Mof_C 	C 	0.8724	0.269	0.0968	0.158
Mof_C 	C 	0.8454	0.3433	0.1247	-0.201
Mof_C 	C 	0.7619	0.3642	0.1852	0.157
Mof_C 	C 	0.7014	0.3151	0.2169	-0.259
Mof_C 	C 	0.9049	0.4005	0.0845	0.392
Mof_C 	C 	0.5586	0.0543	0.0693	0.391
Mof_C 	C 	0.5274	0.5552	0.5902	0.403
Mof_C 	C 	0.5449	0.5888	0.6412	-0.204
Mof_C 	C 	0.539	0.6757	0.6239	0.159
Mof_C 	C 	0.5513	0.7071	0.6735	-0.272
Mof_C 	C 	0.5707	0.6526	0.741	0.313
Mof_C 	C 	0.579	0.5669	0.7591	-0.285
Mof_C 	C 	0.565	0.5341	0.7095	0.152
Mof_C 	C 	0.6513	0.6545	0.8215	0.305
Mof_C 	C 	0.6384	0.6977	0.8739	-0.263
Mof_C 	C 	0.7108	0.6699	0.9083	0.143
Mof_C 	C 	0.7983	0.5988	0.8874	-0.174
Mof_C 	C 	0.8106	0.558	0.8324	0.157
Mof_C 	C 	0.7376	0.5866	0.7988	-0.279
Mof_C 	C 	0.8761	0.5662	0.9274	0.382
Mof_C 	C 	0.7902	0.4108	0.3918	-0.2
Mof_C 	C 	0.8524	0.3371	0.4303	0.156
Mof_C 	C 	0.951	0.302	0.395	-0.27
Mof_C 	C 	0.9903	0.3403	0.3175	0.306
Mof_C 	C 	0.9307	0.4149	0.2799	-0.275
Mof_C 	C 	0.8311	0.4486	0.3166	0.164
Mof_C 	C 	0.1596	0.2577	0.3125	0.292
Mof_C 	C 	0.1628	0.2825	0.3719	-0.275
Mof_C 	C 	0.2382	0.231	0.4032	0.158
Mof_C 	C 	0.3134	0.1567	0.3753	-0.2
Mof_C 	C 	0.3113	0.1358	0.3148	0.157
Mof_C 	C 	0.2334	0.1849	0.2831	-0.259
Mof_C 	C 	0.3899	0.0995	0.4155	0.392
Mof_C 	C 	0.6822	0.4457	0.4307	0.388
Mof_C 	C 	0.3272	0.0552	0.0902	0.405
Mof_C 	C 	0.2251	0.0888	0.1412	-0.206
Mof_C 	C 	0.1614	0.1757	0.1239	0.161
Mof_C 	C 	0.0681	0.2071	0.1735	-0.274
Mof_C 	C 	0.0357	0.1526	0.241	0.315
Mof_C 	C 	0.095	0.0669	0.2591	-0.287
Mof_C 	C 	0.1914	0.0341	0.2095	0.155
Mof_C 	C 	0.8727	0.1545	0.3215	0.306
Mof_C 	C 	0.79	0.1977	0.3739	-0.264
Mof_C 	C 	0.711	0.1699	0.4083	0.144
Mof_C 	C 	0.7155	0.0988	0.3874	-0.174
Mof_C 	C 	0.799	0.058	0.3324	0.158
Mof_C 	C 	0.877	0.0866	0.2988	-0.279
Mof_C 	C 	0.6303	0.0662	0.4274	0.382
Mof_C 	C 	0.4072	0.9108	0.8918	-0.201
Mof_C 	C 	0.3802	0.8371	0.9303	0.157
Mof_C 	C 	0.352	0.802	0.895	-0.271
Mof_C 	C 	0.3519	0.8403	0.8175	0.307
Mof_C 	C 	0.3745	0.9149	0.7799	-0.276
Mof_C 	C 	0.4037	0.9486	0.8166	0.165
Mof_C 	C 	0.2702	0.7577	0.8125	0.293
Mof_C 	C 	0.1828	0.7825	0.8719	-0.275
Mof_C 	C 	0.1276	0.731	0.9032	0.158
Mof_C 	C 	0.1546	0.6567	0.8753	-0.201
Mof_C 	C 	0.2381	0.6358	0.8148	0.157
Mof_C 	C 	0.2986	0.6849	0.7831	-0.259
Mof_C 	C 	0.0951	0.5995	0.9155	0.392
Mof_C 	C 	0.4414	0.9457	0.9307	0.391
Mof_C 	C 	0.4726	0.4448	0.4098	0.403
Mof_C 	C 	0.4551	0.4112	0.3588	-0.204
Mof_C 	C 	0.461	0.3243	0.3761	0.159
Mof_C 	C 	0.4487	0.2929	0.3265	-0.272
Mof_C 	C 	0.4293	0.3474	0.259	0.313
Mof_C 	C 	0.421	0.4331	0.2409	-0.285
Mof_C 	C 	0.435	0.4659	0.2905	0.152
Mof_C 	C 	0.3487	0.3455	0.1785	0.305
Mof_C 	C 	0.3616	0.3023	0.1261	-0.263
Mof_C 	C 	0.2892	0.3301	0.0917	0.143
Mof_C 	C 	0.2017	0.4012	0.1126	-0.174
Mof_C 	C 	0.1894	0.442	0.1676	0.157
Mof_C 	C 	0.2624	0.4134	0.2012	-0.279
Mof_C 	C 	0.1239	0.4338	0.0726	0.382
Mof_C 	C 	0.2098	0.5892	0.6082	-0.2
Mof_C 	C 	0.1476	0.6629	0.5697	0.156
Mof_C 	C 	0.049	0.698	0.605	-0.27
Mof_C 	C 	0.0097	0.6597	0.6825	0.306
Mof_C 	C 	0.0693	0.5851	0.7201	-0.275
Mof_C 	C 	0.1689	0.5514	0.6834	0.164
Mof_C 	C 	0.8404	0.7423	0.6875	0.292
Mof_C 	C 	0.8372	0.7175	0.6281	-0.275
Mof_C 	C 	0.7618	0.769	0.5968	0.158
Mof_C 	C 	0.6866	0.8433	0.6247	-0.2
Mof_C 	C 	0.6887	0.8642	0.6852	0.157
Mof_C 	C 	0.7666	0.8151	0.7169	-0.259
Mof_C 	C 	0.6101	0.9005	0.5845	0.392
Mof_C 	C 	0.3178	0.5543	0.5693	0.388
Mof_O 	O 	0.6472	0.8942	0.9726	-0.421
Mof_O 	O 	0.61911	0.02248	0.8877	-0.42
Mof_O 	O 	0.0561	0.8082	0.7106	-0.312
Mof_O 	O 	0.3641	0.9932	0.5984	-0.419
Mof_O 	O 	0.4377	0.8983	0.5173	-0.41
Mof_O 	O 	0.5587	0.9764	0.098	-0.412
Mof_O 	O 	0.6694	0.1931	0.2245	-0.305
Mof_O 	O 	0.9797	0.3758	0.028	-0.425
Mof_O 	O 	0.8761	0.4694	0.1086	-0.415
Mof_O 	O 	0.5326	0.1051	0.0107	-0.419
Mof_O 	O 	0.514	0.6058	0.5274	-0.422
Mof_O 	O 	0.52929	0.47752	0.6123	-0.418
Mof_O 	O 	0.5749	0.6918	0.7894	-0.31
Mof_O 	O 	0.9557	0.5068	0.9016	-0.418
Mof_O 	O 	0.8533	0.6017	0.9827	-0.408
Mof_O 	O 	0.6331	0.5236	0.402	-0.41
Mof_O 	O 	0.087	0.3069	0.2755	-0.304
Mof_O 	O 	0.3835	0.1242	0.472	-0.423
Mof_O 	O 	0.4541	0.0306	0.3914	-0.414
Mof_O 	O 	0.6484	0.3949	0.4893	-0.419
Mof_O 	O 	0.3528	0.1058	0.0274	-0.421
Mof_O 	O 	0.38089	0.97752	0.1123	-0.42
Mof_O 	O 	0.9439	0.1918	0.2894	-0.312
Mof_O 	O 	0.6359	0.0068	0.4016	-0.419
Mof_O 	O 	0.5623	0.1017	0.4827	-0.41
Mof_O 	O 	0.4413	0.0236	0.902	-0.412
Mof_O 	O 	0.3306	0.8069	0.7755	-0.305
Mof_O 	O 	0.0203	0.6242	0.972	-0.425
Mof_O 	O 	0.1239	0.5306	0.8914	-0.415
Mof_O 	O 	0.4674	0.8949	0.9893	-0.419
Mof_O 	O 	0.486	0.3942	0.4726	-0.422
Mof_O 	O 	0.47071	0.52248	0.3877	-0.418
Mof_O 	O 	0.4251	0.3082	0.2106	-0.31
Mof_O 	O 	0.0443	0.4932	0.0984	-0.418
Mof_O 	O 	0.1467	0.3983	0.0173	-0.408
Mof_O 	O 	0.3669	0.4764	0.598	-0.41
Mof_O 	O 	0.913	0.6931	0.7245	-0.304
Mof_O 	O 	0.6165	0.8758	0.528	-0.423
Mof_O 	O 	0.5459	0.9694	0.6086	-0.414
Mof_O 	O 	0.3516	0.6051	0.5107	-0.419
_end
