data_functionalizedCrystal
_audit_creation_method	'EQeq! by Chris Wilmer'
_symmetry_space_group_name_H-M	'P1'
_symmetry_Int_Tables_number	1
_symmetry_cell_setting	triclinic
loop_
_symmetry_equiv_pos_as_xyz
  x,y,z
_cell_length_a	9.331
_cell_length_b	9.841
_cell_length_c	11.423
_cell_angle_alpha	94.224
_cell_angle_beta	98.51
_cell_angle_gamma	110.952
loop_
_atom_site_label
_atom_site_type_symbol
_atom_site_fract_x
_atom_site_fract_y
_atom_site_fract_z
_atom_site_charge
Mof_Gd	Gd	0.28115	0.54561	0.9854	1.683
Mof_Gd	Gd	0.71885	0.45439	0.0146	1.683
Mof_H 	H 	0.6814	0.0023	0.9622	0.033
Mof_H 	H 	0.805	0.7124	0.7789	0.055
Mof_H 	H 	0.0811	0.1393	0.8368	0.08
Mof_H 	H 	0.8235	0.8991	0.5682	0.137
Mof_H 	H 	0.7303	0.7731	0.3811	-0.02
Mof_H 	H 	0.063	0.6022	0.4217	-0.012
Mof_H 	H 	0.1555	0.7258	0.6154	0.148
Mof_H 	H 	0.3186	0.9977	0.0378	0.033
Mof_H 	H 	0.195	0.2876	0.2211	0.055
Mof_H 	H 	0.9189	0.8607	0.1632	0.08
Mof_H 	H 	0.1765	0.1009	0.4318	0.137
Mof_H 	H 	0.2697	0.2269	0.6189	-0.02
Mof_H 	H 	0.937	0.3978	0.5783	-0.012
Mof_H 	H 	0.8445	0.2742	0.3846	0.148
Mof_C 	C 	0.9236	0.2475	0.9667	0.451
Mof_C 	C 	0.8885	0.0937	0.9105	-0.107
Mof_C 	C 	0.7527	0.9816	0.9222	0.03
Mof_C 	C 	0.7227	0.8382	0.8744	-0.091
Mof_C 	C 	0.8242	0.8086	0.8099	-0.087
Mof_C 	C 	0.954	0.9215	0.7913	0.155
Mof_C 	C 	0.9897	0.0642	0.845	-0.083
Mof_C 	C 	0.5809	0.7171	0.8969	0.382
Mof_C 	C 	0.9971	0.8218	0.6113	0.284
Mof_C 	C 	0.8702	0.8377	0.5392	-0.288
Mof_C 	C 	0.8161	0.7634	0.4273	0.17
Mof_C 	C 	0.8843	0.6726	0.3785	-0.201
Mof_C 	C 	0.0139	0.6607	0.4516	0.144
Mof_C 	C 	0.0702	0.735	0.5681	-0.27
Mof_C 	C 	0.8235	0.5869	0.2592	0.36
Mof_C 	C 	0.0764	0.7525	0.0333	0.451
Mof_C 	C 	0.1115	0.9063	0.0895	-0.107
Mof_C 	C 	0.2473	0.0184	0.0778	0.03
Mof_C 	C 	0.2773	0.1618	0.1256	-0.091
Mof_C 	C 	0.1758	0.1914	0.1901	-0.087
Mof_C 	C 	0.046	0.0785	0.2087	0.155
Mof_C 	C 	0.0103	0.9358	0.155	-0.083
Mof_C 	C 	0.4191	0.2829	0.1031	0.382
Mof_C 	C 	0.0029	0.1782	0.3887	0.284
Mof_C 	C 	0.1298	0.1623	0.4608	-0.288
Mof_C 	C 	0.1839	0.2366	0.5727	0.17
Mof_C 	C 	0.1157	0.3274	0.6215	-0.201
Mof_C 	C 	0.9861	0.3393	0.5484	0.144
Mof_C 	C 	0.9298	0.265	0.4319	-0.27
Mof_C 	C 	0.1765	0.4131	0.7408	0.36
Mof_O 	O 	0.0542	0.3423	0.9681	-0.5
Mof_O 	O 	0.818	0.2708	0.0113	-0.481
Mof_O 	O 	0.4529	0.7362	0.89	-0.411
Mof_O 	O 	0.5937	0.6001	0.926	-0.515
Mof_O 	O 	0.7154	0.6096	0.1916	-0.403
Mof_O 	O 	0.8767	0.4944	0.2217	-0.375
Mof_O 	O 	0.0573	0.895	0.7257	-0.268
Mof_O 	O 	0.9458	0.6577	0.0319	-0.5
Mof_O 	O 	0.182	0.7292	0.9887	-0.481
Mof_O 	O 	0.5471	0.2638	0.11	-0.411
Mof_O 	O 	0.4063	0.3999	0.074	-0.515
Mof_O 	O 	0.2846	0.3904	0.8084	-0.403
Mof_O 	O 	0.1233	0.5056	0.7783	-0.375
Mof_O 	O 	0.9427	0.105	0.2743	-0.268
_end
