data_functionalizedCrystal
_audit_creation_method	'EQeq! by Chris Wilmer'
_symmetry_space_group_name_H-M	'P1'
_symmetry_Int_Tables_number	1
_symmetry_cell_setting	triclinic
loop_
_symmetry_equiv_pos_as_xyz
  x,y,z
_cell_length_a	13.981
_cell_length_b	26.685
_cell_length_c	7.698
_cell_angle_alpha	90
_cell_angle_beta	90
_cell_angle_gamma	90
loop_
_atom_site_label
_atom_site_type_symbol
_atom_site_fract_x
_atom_site_fract_y
_atom_site_fract_z
_atom_site_charge
Mof_Cd	Cd	0.21797	0.11487	0.1339	0.329
Mof_N 	N 	0.2459	0.1724	0.91	-0.054
Mof_N 	N 	0.2329	0.1703	0.352	-0.082
Mof_N 	N 	0.1704	0.0485	0.334	-0.068
Mof_N 	N 	0.1259	0.9164	0.629	-0.074
Mof_N 	N 	0.1809	0.0577	0.905	-0.103
Mof_N 	N 	0.0523	0.1258	0.083	-0.165
Mof_C 	C 	0.2445	0.2013	0.801	-0.232
Mof_C 	C 	0.238	0.2005	0.458	-0.241
Mof_C 	C 	0.107	0.0304	0.4	-0.268
Mof_C 	C 	0.0776	0.9475	0.577	-0.214
Mof_C 	C 	0.081	0.0602	0.871	-0.03
Mof_C 	C 	0.023	0.0927	0.939	0.002
Mof_C 	C 	0.916	0.0948	0.899	0.05
Mof_Cd	Cd	0.28203	0.88513	0.6339	0.379
Mof_N 	N 	0.2541	0.8276	0.41	-0.074
Mof_N 	N 	0.2671	0.8297	0.852	-0.081
Mof_N 	N 	0.3296	0.9515	0.834	-0.065
Mof_N 	N 	0.3741	0.0836	0.129	-0.075
Mof_N 	N 	0.3191	0.9423	0.405	-0.109
Mof_N 	N 	0.4477	0.8742	0.583	-0.121
Mof_C 	C 	0.2555	0.7987	0.301	-0.26
Mof_C 	C 	0.262	0.7995	0.958	-0.196
Mof_C 	C 	0.393	0.9696	0.9	-0.147
Mof_C 	C 	0.4224	0.0525	0.077	-0.261
Mof_C 	C 	0.419	0.9398	0.371	-0.011
Mof_C 	C 	0.477	0.9073	0.439	0.031
Mof_C 	C 	0.584	0.9052	0.399	-0.026
Mof_Cd	Cd	0.78203	0.61487	0.8661	0.416
Mof_N 	N 	0.7541	0.6724	0.09	-0.092
Mof_N 	N 	0.7671	0.6703	0.648	-0.073
Mof_N 	N 	0.8296	0.5485	0.666	-0.068
Mof_N 	N 	0.8741	0.4164	0.371	-0.076
Mof_N 	N 	0.8191	0.5577	0.095	-0.13
Mof_N 	N 	0.9477	0.6258	0.917	-0.08
Mof_C 	C 	0.7555	0.7013	0.199	-0.239
Mof_C 	C 	0.762	0.7005	0.542	-0.221
Mof_C 	C 	0.893	0.5304	0.6	-0.172
Mof_C 	C 	0.9224	0.4475	0.423	-0.172
Mof_C 	C 	0.919	0.5602	0.129	-0.018
Mof_C 	C 	0.977	0.5927	0.061	0.069
Mof_C 	C 	0.084	0.5948	0.101	-0.121
Mof_Cd	Cd	0.71797	0.38513	0.3661	0.374
Mof_N 	N 	0.7459	0.3276	0.59	-0.071
Mof_N 	N 	0.7329	0.3297	0.148	-0.076
Mof_N 	N 	0.6704	0.4515	0.166	-0.067
Mof_N 	N 	0.6259	0.5836	0.871	-0.072
Mof_N 	N 	0.6809	0.4423	0.595	-0.11
Mof_N 	N 	0.5523	0.3742	0.417	-0.124
Mof_C 	C 	0.7445	0.2987	0.699	-0.211
Mof_C 	C 	0.738	0.2995	0.042	-0.258
Mof_C 	C 	0.607	0.4696	0.1	-0.242
Mof_C 	C 	0.5776	0.5525	0.923	-0.178
Mof_C 	C 	0.581	0.4398	0.629	-0.006
Mof_C 	C 	0.523	0.4073	0.561	0.034
Mof_C 	C 	0.416	0.4052	0.601	-0.019
Mof_Cd	Cd	0.78203	0.88513	0.8661	0.421
Mof_N 	N 	0.7541	0.8276	0.09	-0.092
Mof_N 	N 	0.7671	0.8297	0.648	-0.073
Mof_N 	N 	0.8296	0.9515	0.666	-0.068
Mof_N 	N 	0.8741	0.0836	0.371	-0.076
Mof_N 	N 	0.8191	0.9423	0.095	-0.123
Mof_N 	N 	0.9477	0.8742	0.917	-0.08
Mof_C 	C 	0.7555	0.7987	0.199	-0.239
Mof_C 	C 	0.762	0.7995	0.542	-0.221
Mof_C 	C 	0.893	0.9696	0.6	-0.14
Mof_C 	C 	0.9224	0.0525	0.423	-0.189
Mof_C 	C 	0.919	0.9398	0.129	-0
Mof_C 	C 	0.977	0.9073	0.061	0.064
Mof_C 	C 	0.084	0.9052	0.101	-0.109
Mof_Cd	Cd	0.71797	0.11487	0.3661	0.369
Mof_N 	N 	0.7459	0.1724	0.59	-0.071
Mof_N 	N 	0.7329	0.1703	0.148	-0.076
Mof_N 	N 	0.6704	0.0485	0.166	-0.07
Mof_N 	N 	0.6259	0.9164	0.871	-0.075
Mof_N 	N 	0.6809	0.0577	0.595	-0.117
Mof_N 	N 	0.5523	0.1258	0.417	-0.125
Mof_C 	C 	0.7445	0.2013	0.699	-0.212
Mof_C 	C 	0.738	0.2005	0.042	-0.258
Mof_C 	C 	0.607	0.0304	0.1	-0.263
Mof_C 	C 	0.5776	0.9475	0.923	-0.149
Mof_C 	C 	0.581	0.0602	0.629	-0.022
Mof_C 	C 	0.523	0.0927	0.561	0.037
Mof_C 	C 	0.416	0.0948	0.601	-0.03
Mof_Cd	Cd	0.21797	0.38513	0.1339	0.333
Mof_N 	N 	0.2459	0.3276	0.91	-0.055
Mof_N 	N 	0.2329	0.3297	0.352	-0.083
Mof_N 	N 	0.1704	0.4515	0.334	-0.066
Mof_N 	N 	0.1259	0.5836	0.629	-0.072
Mof_N 	N 	0.1809	0.4423	0.905	-0.096
Mof_N 	N 	0.0523	0.3742	0.083	-0.165
Mof_C 	C 	0.2445	0.2987	0.801	-0.231
Mof_C 	C 	0.238	0.2995	0.458	-0.24
Mof_C 	C 	0.107	0.4696	0.4	-0.246
Mof_C 	C 	0.0776	0.5525	0.577	-0.245
Mof_C 	C 	0.081	0.4398	0.871	-0.015
Mof_C 	C 	0.023	0.4073	0.939	-0
Mof_C 	C 	0.916	0.4052	0.899	0.06
Mof_Cd	Cd	0.28203	0.61487	0.6339	0.374
Mof_N 	N 	0.2541	0.6724	0.41	-0.074
Mof_N 	N 	0.2671	0.6703	0.852	-0.081
Mof_N 	N 	0.3296	0.5485	0.834	-0.065
Mof_N 	N 	0.3741	0.4164	0.129	-0.075
Mof_N 	N 	0.3191	0.5577	0.405	-0.116
Mof_N 	N 	0.4477	0.6258	0.583	-0.122
Mof_C 	C 	0.2555	0.7013	0.301	-0.26
Mof_C 	C 	0.262	0.7005	0.958	-0.196
Mof_C 	C 	0.393	0.5304	0.9	-0.181
Mof_C 	C 	0.4224	0.4475	0.077	-0.244
Mof_C 	C 	0.419	0.5602	0.371	-0.029
Mof_C 	C 	0.477	0.5927	0.439	0.034
Mof_C 	C 	0.584	0.5948	0.399	-0.038
Mof_Ni	Ni	0.2424	0.25	0.6285	1.062
Mof_Ni	Ni	0.2576	0.75	0.1285	1.035
Mof_Ni	Ni	0.7576	0.75	0.3715	1.063
Mof_Ni	Ni	0.7424	0.25	0.8715	1.086
Mof_Ni	Ni	1.03222e-33	0	0.5	1.011
Mof_Ni	Ni	0.5	0	-0	1.019
Mof_Ni	Ni	9.82178e-33	0.5	0.5	1.033
Mof_Ni	Ni	0.5	0.5	-0	1.041
_end
