data_functionalizedCrystal
_audit_creation_method	'EQeq! by Chris Wilmer'
_symmetry_space_group_name_H-M	'P1'
_symmetry_Int_Tables_number	1
_symmetry_cell_setting	triclinic
loop_
_symmetry_equiv_pos_as_xyz
  x,y,z
_cell_length_a	18.5055
_cell_length_b	18.5055
_cell_length_c	22.556
_cell_angle_alpha	90
_cell_angle_beta	90
_cell_angle_gamma	120
loop_
_atom_site_label
_atom_site_type_symbol
_atom_site_fract_x
_atom_site_fract_y
_atom_site_fract_z
_atom_site_charge
Mof_Ag	Ag	0.89287	0.14668	0.34571	0.504
Mof_N 	N 	0.6295	0.8146	0.4631	-0.172
Mof_C 	C 	0.7141	0.9999	0.3789	0.127
Mof_C 	C 	0.6291	0.7487	0.4988	0.138
Mof_H 	H 	0.6853	0.7545	0.4978	-0.035
Mof_H 	H 	0.5892	0.6938	0.4814	-0.031
Mof_N 	N 	0.5745	0.883	0.4179	-0.199
Mof_O 	O 	0.64	0.8402	0.6458	-0.382
Mof_N 	N 	0.6897	0.0477	0.3518	-0.301
Mof_H 	H 	0.7266	0.0939	0.334	0.102
Mof_H 	H 	0.6366	0.0332	0.3516	0.13
Mof_C 	C 	0.6633	0.8311	0.5957	0.431
Mof_C 	C 	0.6937	0.8814	0.4364	0.136
Mof_C 	C 	0.6047	0.7516	0.5631	-0.392
Mof_H 	H 	0.548	0.7445	0.5636	0.131
Mof_H 	H 	0.6022	0.7038	0.5847	0.127
Mof_C 	C 	0.6603	0.9245	0.4087	-0.059
Mof_N 	N 	0.7759	0.9045	0.435	-0.227
Mof_Ag	Ag	0.47397	0.90088	0.38519	0.473
Mof_C 	C 	0.7679	0.1535	0.5039	-0.39
Mof_H 	H 	0.7222	0.1099	0.4799	0.126
Mof_H 	H 	0.769	0.2068	0.4965	0.132
Mof_O 	O 	0.8768	0.1188	0.5064	-0.435
Mof_O 	O 	0.8917	0.2151	0.4445	-0.399
Mof_C 	C 	0.851	0.1623	0.4833	0.434
Mof_Ag	Ag	0.82012	0.00273	0.59868	0.552
Mof_Ag	Ag	0.8354	0.8391	0.47339	0.545
Mof_O 	O 	0.7311	0.8788	0.5705	-0.428
Mof_C 	C 	0.8225	0.9756	0.406	0.106
Mof_H 	H 	0.8807	0.995	0.4043	-0.082
Mof_C 	C 	0.8313	0.2723	0.6177	0.098
Mof_H 	H 	0.7961	0.2917	0.6027	-0.04
Mof_C 	C 	0.9302	0.2676	0.6618	-0.059
Mof_N 	N 	0.8962	0.3184	0.6498	-0.196
Mof_N 	N 	0.0516	0.3503	0.7216	-0.302
Mof_H 	H 	0.0951	0.3546	0.7405	0.119
Mof_H 	H 	0.0411	0.3917	0.7224	0.139
Mof_C 	C 	0.002	0.2818	0.6921	0.144
Mof_C 	C 	0.883	0.1919	0.6345	0.132
Mof_N 	N 	0.897	0.1269	0.6358	-0.225
Mof_N 	N 	0.02	0.2181	0.6918	-0.223
Mof_N 	N 	0.8174	0.1949	0.607	-0.171
Mof_C 	C 	0.9682	0.1465	0.6654	0.102
Mof_H 	H 	0.9825	0.1039	0.6676	-0.08
Mof_C 	C 	0.7491	0.131	0.5699	0.132
Mof_H 	H 	0.6957	0.1278	0.5806	-0.035
Mof_H 	H 	0.7435	0.0757	0.5772	-0.041
Mof_C 	C 	0.5594	0.8199	0.4505	0.096
Mof_H 	H 	0.5052	0.7809	0.4646	-0.04
Mof_N 	N 	0.796	0.0229	0.3789	-0.219
Mof_Ag	Ag	0.55954	0.48001	0.67904	0.5
Mof_N 	N 	0.29617	0.14793	0.79643	-0.171
Mof_C 	C 	0.38077	0.33323	0.71223	0.133
Mof_C 	C 	0.29577	0.08203	0.83213	0.141
Mof_H 	H 	0.35197	0.08783	0.83113	-0.033
Mof_H 	H 	0.25587	0.02713	0.81473	-0.029
Mof_N 	N 	0.24117	0.21633	0.75123	-0.197
Mof_O 	O 	0.30667	0.17353	0.97913	-0.363
Mof_N 	N 	0.35637	0.38103	0.68513	-0.302
Mof_H 	H 	0.39327	0.42723	0.66733	0.103
Mof_H 	H 	0.30327	0.36653	0.68493	0.131
Mof_C 	C 	0.32997	0.16443	0.92903	0.433
Mof_C 	C 	0.36037	0.21473	0.76973	0.138
Mof_C 	C 	0.27137	0.08493	0.89643	-0.394
Mof_H 	H 	0.21467	0.07783	0.89693	0.135
Mof_H 	H 	0.26887	0.03713	0.91803	0.133
Mof_C 	C 	0.32697	0.25783	0.74203	-0.06
Mof_N 	N 	0.44257	0.23783	0.76833	-0.228
Mof_Ag	Ag	0.14064	0.23421	0.71852	0.477
Mof_C 	C 	0.43457	0.48683	0.83723	-0.39
Mof_H 	H 	0.38887	0.44323	0.81323	0.126
Mof_H 	H 	0.43567	0.54013	0.82983	0.133
Mof_O 	O 	0.54347	0.45213	0.83973	-0.437
Mof_O 	O 	0.55837	0.54843	0.77783	-0.399
Mof_C 	C 	0.51767	0.49563	0.81663	0.434
Mof_Ag	Ag	0.48679	0.33606	0.93201	0.572
Mof_Ag	Ag	0.50207	0.17243	0.80672	0.546
Mof_O 	O 	0.39777	0.21213	0.90383	-0.426
Mof_C 	C 	0.48917	0.30893	0.73933	0.109
Mof_H 	H 	0.54737	0.32833	0.73763	-0.082
Mof_C 	C 	0.49797	0.60563	0.95103	0.101
Mof_H 	H 	0.46277	0.62503	0.93603	-0.034
Mof_C 	C 	0.59687	0.60093	0.99513	-0.031
Mof_N 	N 	0.56287	0.65173	0.98313	-0.188
Mof_N 	N 	0.71827	0.68363	0.05493	-0.297
Mof_H 	H 	0.76177	0.68793	0.07383	0.116
Mof_H 	H 	0.70777	0.72503	0.05573	0.134
Mof_C 	C 	0.66867	0.61513	0.02543	0.117
Mof_C 	C 	0.54967	0.52523	0.96783	0.129
Mof_N 	N 	0.56367	0.46023	0.96913	-0.231
Mof_N 	N 	0.68667	0.55143	0.02513	-0.239
Mof_N 	N 	0.48407	0.52823	0.94033	-0.169
Mof_C 	C 	0.63487	0.47983	0.99873	0.167
Mof_H 	H 	0.64917	0.43723	0.00093	-0.119
Mof_C 	C 	0.41577	0.46433	0.90323	0.131
Mof_H 	H 	0.36237	0.46113	0.91393	-0.029
Mof_H 	H 	0.41017	0.40903	0.91053	-0.039
Mof_C 	C 	0.22607	0.15323	0.78383	0.097
Mof_H 	H 	0.17187	0.11423	0.79793	-0.039
Mof_N 	N 	0.46267	0.35623	0.71223	-0.223
Mof_Ag	Ag	0.2262	0.81335	0.01238	0.466
Mof_N 	N 	0.96283	0.48127	0.12977	-0.17
Mof_C 	C 	0.04743	0.66657	0.04557	0.122
Mof_C 	C 	0.96243	0.41537	0.16547	0.146
Mof_H 	H 	0.01863	0.42117	0.16447	-0.038
Mof_H 	H 	0.92253	0.36047	0.14807	-0.031
Mof_N 	N 	0.90783	0.54967	0.08457	-0.199
Mof_O 	O 	0.97333	0.50687	0.31247	-0.38
Mof_N 	N 	0.02303	0.71437	0.01847	-0.301
Mof_H 	H 	0.05993	0.76057	0.00067	0.096
Mof_H 	H 	0.96993	0.69987	0.01827	0.125
Mof_C 	C 	0.99663	0.49777	0.26237	0.437
Mof_C 	C 	0.02703	0.54807	0.10307	0.128
Mof_C 	C 	0.93803	0.41827	0.22977	-0.395
Mof_H 	H 	0.88133	0.41117	0.23027	0.132
Mof_H 	H 	0.93553	0.37047	0.25137	0.129
Mof_C 	C 	0.99363	0.59117	0.07537	-0.054
Mof_N 	N 	0.10923	0.57117	0.10167	-0.227
Mof_Ag	Ag	0.8073	0.56755	0.05186	0.454
Mof_C 	C 	0.10123	0.82017	0.17057	-0.389
Mof_H 	H 	0.05553	0.77657	0.14657	0.124
Mof_H 	H 	0.10233	0.87347	0.16317	0.13
Mof_O 	O 	0.21013	0.78547	0.17307	-0.435
Mof_O 	O 	0.22503	0.88177	0.11117	-0.399
Mof_C 	C 	0.18433	0.82897	0.14997	0.433
Mof_Ag	Ag	0.15345	0.6694	0.26535	0.547
Mof_Ag	Ag	0.16873	0.50577	0.14006	0.542
Mof_O 	O 	0.06443	0.54547	0.23717	-0.429
Mof_C 	C 	0.15583	0.64227	0.07267	0.104
Mof_H 	H 	0.21403	0.66167	0.07097	-0.083
Mof_C 	C 	0.16463	0.93897	0.28437	0.098
Mof_H 	H 	0.12943	0.95837	0.26937	-0.041
Mof_C 	C 	0.26353	0.93427	0.32847	-0.061
Mof_N 	N 	0.22953	0.98507	0.31647	-0.197
Mof_N 	N 	0.38493	0.01697	0.38827	-0.301
Mof_H 	H 	0.42843	0.02127	0.40717	0.12
Mof_H 	H 	0.37443	0.05837	0.38907	0.14
Mof_C 	C 	0.33533	0.94847	0.35877	0.144
Mof_C 	C 	0.21633	0.85857	0.30117	0.132
Mof_N 	N 	0.23033	0.79357	0.30247	-0.224
Mof_N 	N 	0.35333	0.88477	0.35847	-0.221
Mof_N 	N 	0.15073	0.86157	0.27367	-0.171
Mof_C 	C 	0.30153	0.81317	0.33207	0.1
Mof_H 	H 	0.31583	0.77057	0.33427	-0.08
Mof_C 	C 	0.08243	0.79767	0.23657	0.132
Mof_H 	H 	0.02903	0.79447	0.24727	-0.036
Mof_H 	H 	0.07683	0.74237	0.24387	-0.042
Mof_C 	C 	0.89273	0.48657	0.11717	0.094
Mof_H 	H 	0.83853	0.44757	0.13127	-0.04
Mof_N 	N 	0.12933	0.68957	0.04557	-0.221
Mof_Ag	Ag	0.85332	0.74619	0.34571	0.501
Mof_N 	N 	0.1854	0.8149	0.4631	-0.171
Mof_C 	C 	0.0001	0.7142	0.3789	0.128
Mof_C 	C 	0.2513	0.8804	0.4988	0.139
Mof_H 	H 	0.2455	0.9308	0.4978	-0.034
Mof_H 	H 	0.3062	0.8954	0.4814	-0.03
Mof_N 	N 	0.117	0.6915	0.4179	-0.198
Mof_O 	O 	0.1598	0.7998	0.6458	-0.38
Mof_N 	N 	0.9523	0.642	0.3518	-0.3
Mof_H 	H 	0.9061	0.6327	0.334	0.103
Mof_H 	H 	0.9668	0.6034	0.3516	0.131
Mof_C 	C 	0.1689	0.8322	0.5957	0.431
Mof_C 	C 	0.1186	0.8123	0.4364	0.137
Mof_C 	C 	0.2484	0.8531	0.5631	-0.391
Mof_H 	H 	0.2555	0.8035	0.5636	0.131
Mof_H 	H 	0.2962	0.8984	0.5847	0.127
Mof_C 	C 	0.0755	0.7358	0.4087	-0.059
Mof_N 	N 	0.0955	0.8714	0.435	-0.227
Mof_Ag	Ag	0.09912	0.57309	0.38519	0.474
Mof_C 	C 	0.8465	0.6144	0.5039	-0.39
Mof_H 	H 	0.8901	0.6123	0.4799	0.126
Mof_H 	H 	0.7932	0.5622	0.4965	0.132
Mof_O 	O 	0.8812	0.758	0.5064	-0.436
Mof_O 	O 	0.7849	0.6766	0.4445	-0.399
Mof_C 	C 	0.8377	0.6887	0.4833	0.434
Mof_Ag	Ag	0.99727	0.81739	0.59868	0.551
Mof_Ag	Ag	0.1609	0.9963	0.47339	0.54
Mof_O 	O 	0.1212	0.8523	0.5705	-0.428
Mof_C 	C 	0.0244	0.8469	0.406	0.106
Mof_H 	H 	0.005	0.8857	0.4043	-0.082
Mof_C 	C 	0.7277	0.559	0.6177	0.098
Mof_H 	H 	0.7083	0.5044	0.6027	-0.04
Mof_C 	C 	0.7324	0.6626	0.6618	-0.062
Mof_N 	N 	0.6816	0.5778	0.6498	-0.196
Mof_N 	N 	0.6497	0.7013	0.7216	-0.303
Mof_H 	H 	0.6454	0.7405	0.7405	0.12
Mof_H 	H 	0.6083	0.6494	0.7224	0.14
Mof_C 	C 	0.7182	0.7202	0.6921	0.147
Mof_C 	C 	0.8081	0.6911	0.6345	0.132
Mof_N 	N 	0.8731	0.7701	0.6358	-0.225
Mof_N 	N 	0.7819	0.8019	0.6918	-0.222
Mof_N 	N 	0.8051	0.6225	0.607	-0.171
Mof_C 	C 	0.8535	0.8217	0.6654	0.1
Mof_H 	H 	0.8961	0.8786	0.6676	-0.08
Mof_C 	C 	0.869	0.6181	0.5699	0.132
Mof_H 	H 	0.8722	0.5679	0.5806	-0.035
Mof_H 	H 	0.9243	0.6678	0.5772	-0.041
Mof_C 	C 	0.1801	0.7395	0.4505	0.096
Mof_H 	H 	0.2191	0.7243	0.4646	-0.04
Mof_N 	N 	0.9771	0.7731	0.3789	-0.219
Mof_Ag	Ag	0.51999	0.07952	0.67904	0.502
Mof_N 	N 	0.85207	0.14823	0.79643	-0.171
Mof_C 	C 	0.66677	0.04753	0.71223	0.135
Mof_C 	C 	0.91797	0.21373	0.83213	0.141
Mof_H 	H 	0.91217	0.26413	0.83113	-0.033
Mof_H 	H 	0.97287	0.22873	0.81473	-0.029
Mof_N 	N 	0.78367	0.02483	0.75123	-0.197
Mof_O 	O 	0.82647	0.13313	0.97913	-0.364
Mof_N 	N 	0.61897	0.97533	0.68513	-0.303
Mof_H 	H 	0.57277	0.96603	0.66733	0.103
Mof_H 	H 	0.63347	0.93673	0.68493	0.131
Mof_C 	C 	0.83557	0.16553	0.92903	0.434
Mof_C 	C 	0.78527	0.14563	0.76973	0.138
Mof_C 	C 	0.91507	0.18643	0.89643	-0.394
Mof_H 	H 	0.92217	0.13683	0.89693	0.135
Mof_H 	H 	0.96287	0.23173	0.91803	0.133
Mof_C 	C 	0.74217	0.06913	0.74203	-0.061
Mof_N 	N 	0.76217	0.20473	0.76833	-0.228
Mof_Ag	Ag	0.76579	0.90642	0.71852	0.475
Mof_C 	C 	0.51317	0.94773	0.83723	-0.391
Mof_H 	H 	0.55677	0.94563	0.81323	0.125
Mof_H 	H 	0.45987	0.89553	0.82983	0.133
Mof_O 	O 	0.54787	0.09133	0.83973	-0.438
Mof_O 	O 	0.45157	0.00993	0.77783	-0.399
Mof_C 	C 	0.50437	0.02203	0.81663	0.436
Mof_Ag	Ag	0.66394	0.15072	0.93201	0.572
Mof_Ag	Ag	0.82757	0.32963	0.80672	0.546
Mof_O 	O 	0.78787	0.18563	0.90383	-0.426
Mof_C 	C 	0.69107	0.18023	0.73933	0.109
Mof_H 	H 	0.67167	0.21903	0.73763	-0.082
Mof_C 	C 	0.39437	0.89233	0.95103	0.101
Mof_H 	H 	0.37497	0.83773	0.93603	-0.034
Mof_C 	C 	0.39907	0.99593	0.99513	-0.036
Mof_N 	N 	0.34827	0.91113	0.98313	-0.188
Mof_N 	N 	0.31637	0.03463	0.05493	-0.294
Mof_H 	H 	0.31207	0.07383	0.07383	0.116
Mof_H 	H 	0.27497	0.98273	0.05573	0.132
Mof_C 	C 	0.38487	0.05353	0.02543	0.121
Mof_C 	C 	0.47477	0.02443	0.96783	0.133
Mof_N 	N 	0.53977	0.10343	0.96913	-0.232
Mof_N 	N 	0.44857	0.13523	0.02513	-0.239
Mof_N 	N 	0.47177	0.95583	0.94033	-0.169
Mof_C 	C 	0.52017	0.15503	0.99873	0.166
Mof_H 	H 	0.56277	0.21193	0.00093	-0.118
Mof_C 	C 	0.53567	0.95143	0.90323	0.128
Mof_H 	H 	0.53887	0.90123	0.91393	-0.028
Mof_H 	H 	0.59097	0.00113	0.91053	-0.037
Mof_C 	C 	0.84677	0.07283	0.78383	0.097
Mof_H 	H 	0.88577	0.05763	0.79793	-0.038
Mof_N 	N 	0.64377	0.10643	0.71223	-0.223
Mof_Ag	Ag	0.18665	0.41286	0.01238	0.467
Mof_N 	N 	0.51873	0.48157	0.12977	-0.172
Mof_C 	C 	0.33343	0.38087	0.04557	0.127
Mof_C 	C 	0.58463	0.54707	0.16547	0.138
Mof_H 	H 	0.57883	0.59747	0.16447	-0.033
Mof_H 	H 	0.63953	0.56207	0.14807	-0.029
Mof_N 	N 	0.45033	0.35817	0.08457	-0.198
Mof_O 	O 	0.49313	0.46647	0.31247	-0.38
Mof_N 	N 	0.28563	0.30867	0.01847	-0.299
Mof_H 	H 	0.23943	0.29937	0.00067	0.097
Mof_H 	H 	0.30013	0.27007	0.01827	0.123
Mof_C 	C 	0.50223	0.49887	0.26237	0.431
Mof_C 	C 	0.45193	0.47897	0.10307	0.135
Mof_C 	C 	0.58173	0.51977	0.22977	-0.39
Mof_H 	H 	0.58883	0.47017	0.23027	0.131
Mof_H 	H 	0.62953	0.56507	0.25137	0.127
Mof_C 	C 	0.40883	0.40247	0.07537	-0.063
Mof_N 	N 	0.42883	0.53807	0.10167	-0.229
Mof_Ag	Ag	0.43245	0.23976	0.05186	0.454
Mof_C 	C 	0.17983	0.28107	0.17057	-0.389
Mof_H 	H 	0.22343	0.27897	0.14657	0.125
Mof_H 	H 	0.12653	0.22887	0.16317	0.131
Mof_O 	O 	0.21453	0.42467	0.17307	-0.435
Mof_O 	O 	0.11823	0.34327	0.11117	-0.399
Mof_C 	C 	0.17103	0.35537	0.14997	0.434
Mof_Ag	Ag	0.3306	0.48406	0.26535	0.548
Mof_Ag	Ag	0.49423	0.66297	0.14006	0.543
Mof_O 	O 	0.45453	0.51897	0.23717	-0.426
Mof_C 	C 	0.35773	0.51357	0.07267	0.105
Mof_H 	H 	0.33833	0.55237	0.07097	-0.083
Mof_C 	C 	0.06103	0.22567	0.28437	0.098
Mof_H 	H 	0.04163	0.17107	0.26937	-0.041
Mof_C 	C 	0.06573	0.32927	0.32847	-0.061
Mof_N 	N 	0.01493	0.24447	0.31647	-0.197
Mof_N 	N 	0.98303	0.36797	0.38827	-0.301
Mof_H 	H 	0.97873	0.40717	0.40717	0.12
Mof_H 	H 	0.94163	0.31607	0.38907	0.14
Mof_C 	C 	0.05153	0.38687	0.35877	0.144
Mof_C 	C 	0.14143	0.35777	0.30117	0.132
Mof_N 	N 	0.20643	0.43677	0.30247	-0.224
Mof_N 	N 	0.11523	0.46857	0.35847	-0.221
Mof_N 	N 	0.13843	0.28917	0.27367	-0.171
Mof_C 	C 	0.18683	0.48837	0.33207	0.1
Mof_H 	H 	0.22943	0.54527	0.33427	-0.08
Mof_C 	C 	0.20233	0.28477	0.23657	0.132
Mof_H 	H 	0.20553	0.23457	0.24727	-0.035
Mof_H 	H 	0.25763	0.33447	0.24387	-0.041
Mof_C 	C 	0.51343	0.40617	0.11717	0.093
Mof_H 	H 	0.55243	0.39097	0.13127	-0.04
Mof_N 	N 	0.31043	0.43977	0.04557	-0.222
Mof_Ag	Ag	0.25381	0.10713	0.34571	0.503
Mof_N 	N 	0.1851	0.3705	0.4631	-0.171
Mof_C 	C 	0.2858	0.2859	0.3789	0.133
Mof_C 	C 	0.1196	0.3709	0.4988	0.139
Mof_H 	H 	0.0692	0.3147	0.4978	-0.034
Mof_H 	H 	0.1046	0.4108	0.4814	-0.03
Mof_N 	N 	0.3085	0.4255	0.4179	-0.198
Mof_O 	O 	0.2002	0.36	0.6458	-0.38
Mof_N 	N 	0.358	0.3103	0.3518	-0.302
Mof_H 	H 	0.3673	0.2734	0.334	0.103
Mof_H 	H 	0.3966	0.3634	0.3516	0.131
Mof_C 	C 	0.1678	0.3367	0.5957	0.431
Mof_C 	C 	0.1877	0.3063	0.4364	0.138
Mof_C 	C 	0.1469	0.3953	0.5631	-0.391
Mof_H 	H 	0.1965	0.452	0.5636	0.131
Mof_H 	H 	0.1016	0.3978	0.5847	0.127
Mof_C 	C 	0.2642	0.3397	0.4087	-0.06
Mof_N 	N 	0.1286	0.2241	0.435	-0.228
Mof_Ag	Ag	0.42691	0.52603	0.38519	0.476
Mof_C 	C 	0.3856	0.2321	0.5039	-0.389
Mof_H 	H 	0.3877	0.2778	0.4799	0.125
Mof_H 	H 	0.4378	0.231	0.4965	0.132
Mof_O 	O 	0.242	0.1232	0.5064	-0.435
Mof_O 	O 	0.3234	0.1083	0.4445	-0.398
Mof_C 	C 	0.3113	0.149	0.4833	0.433
Mof_Ag	Ag	0.18261	0.17988	0.59868	0.547
Mof_Ag	Ag	0.0037	0.1646	0.47339	0.542
Mof_O 	O 	0.1477	0.2689	0.5705	-0.426
Mof_C 	C 	0.1531	0.1775	0.406	0.109
Mof_H 	H 	0.1143	0.1193	0.4043	-0.082
Mof_C 	C 	0.441	0.1687	0.6177	0.098
Mof_H 	H 	0.4956	0.2039	0.6027	-0.04
Mof_C 	C 	0.3374	0.0698	0.6618	-0.059
Mof_N 	N 	0.4222	0.1038	0.6498	-0.196
Mof_N 	N 	0.2987	0.9484	0.7216	-0.302
Mof_H 	H 	0.2595	0.9049	0.7405	0.119
Mof_H 	H 	0.3506	0.9589	0.7224	0.139
Mof_C 	C 	0.2798	0.998	0.6921	0.144
Mof_C 	C 	0.3089	0.117	0.6345	0.132
Mof_N 	N 	0.2299	0.103	0.6358	-0.224
Mof_N 	N 	0.1981	0.98	0.6918	-0.223
Mof_N 	N 	0.3775	0.1826	0.607	-0.171
Mof_C 	C 	0.1783	0.0318	0.6654	0.102
Mof_H 	H 	0.1214	0.0175	0.6676	-0.08
Mof_C 	C 	0.3819	0.2509	0.5699	0.132
Mof_H 	H 	0.4321	0.3043	0.5806	-0.035
Mof_H 	H 	0.3322	0.2565	0.5772	-0.041
Mof_C 	C 	0.2605	0.4406	0.4505	0.096
Mof_H 	H 	0.2757	0.4948	0.4646	-0.04
Mof_N 	N 	0.2269	0.204	0.3789	-0.223
Mof_Ag	Ag	0.92048	0.44046	0.67904	0.502
Mof_N 	N 	0.85177	0.70383	0.79643	-0.171
Mof_C 	C 	0.95247	0.61923	0.71223	0.135
Mof_C 	C 	0.78627	0.70423	0.83213	0.141
Mof_H 	H 	0.73587	0.64803	0.83113	-0.034
Mof_H 	H 	0.77127	0.74413	0.81473	-0.029
Mof_N 	N 	0.97517	0.75883	0.75123	-0.197
Mof_O 	O 	0.86687	0.69333	0.97913	-0.363
Mof_N 	N 	0.02467	0.64363	0.68513	-0.303
Mof_H 	H 	0.03397	0.60673	0.66733	0.103
Mof_H 	H 	0.06327	0.69673	0.68493	0.131
Mof_C 	C 	0.83447	0.67003	0.92903	0.433
Mof_C 	C 	0.85437	0.63963	0.76973	0.138
Mof_C 	C 	0.81357	0.72863	0.89643	-0.394
Mof_H 	H 	0.86317	0.78533	0.89693	0.135
Mof_H 	H 	0.76827	0.73113	0.91803	0.133
Mof_C 	C 	0.93087	0.67303	0.74203	-0.061
Mof_N 	N 	0.79527	0.55743	0.76833	-0.228
Mof_Ag	Ag	0.09358	0.85936	0.71852	0.474
Mof_C 	C 	0.05227	0.56543	0.83723	-0.391
Mof_H 	H 	0.05437	0.61113	0.81323	0.125
Mof_H 	H 	0.10447	0.56433	0.82983	0.133
Mof_O 	O 	0.90867	0.45653	0.83973	-0.438
Mof_O 	O 	0.99007	0.44163	0.77783	-0.399
Mof_C 	C 	0.97797	0.48233	0.81663	0.436
Mof_Ag	Ag	0.84928	0.51321	0.93201	0.572
Mof_Ag	Ag	0.67037	0.49793	0.80672	0.546
Mof_O 	O 	0.81437	0.60223	0.90383	-0.426
Mof_C 	C 	0.81977	0.51083	0.73933	0.109
Mof_H 	H 	0.78097	0.45263	0.73763	-0.082
Mof_C 	C 	0.10767	0.50203	0.95103	0.101
Mof_H 	H 	0.16227	0.53723	0.93603	-0.034
Mof_C 	C 	0.00407	0.40313	0.99513	-0.037
Mof_N 	N 	0.08887	0.43713	0.98313	-0.188
Mof_N 	N 	0.96537	0.28173	0.05493	-0.295
Mof_H 	H 	0.92617	0.23823	0.07383	0.116
Mof_H 	H 	0.01727	0.29223	0.05573	0.132
Mof_C 	C 	0.94647	0.33133	0.02543	0.121
Mof_C 	C 	0.97557	0.45033	0.96783	0.133
Mof_N 	N 	0.89657	0.43633	0.96913	-0.232
Mof_N 	N 	0.86477	0.31333	0.02513	-0.239
Mof_N 	N 	0.04417	0.51593	0.94033	-0.169
Mof_C 	C 	0.84497	0.36513	0.99873	0.165
Mof_H 	H 	0.78807	0.35083	0.00093	-0.118
Mof_C 	C 	0.04857	0.58423	0.90323	0.128
Mof_H 	H 	0.09877	0.63763	0.91393	-0.028
Mof_H 	H 	0.99887	0.58983	0.91053	-0.036
Mof_C 	C 	0.92717	0.77393	0.78383	0.097
Mof_H 	H 	0.94237	0.82813	0.79793	-0.039
Mof_N 	N 	0.89357	0.53733	0.71223	-0.223
Mof_Ag	Ag	0.58714	0.7738	0.01238	0.468
Mof_N 	N 	0.51843	0.03717	0.12977	-0.17
Mof_C 	C 	0.61913	0.95257	0.04557	0.122
Mof_C 	C 	0.45293	0.03757	0.16547	0.146
Mof_H 	H 	0.40253	0.98137	0.16447	-0.038
Mof_H 	H 	0.43793	0.07747	0.14807	-0.031
Mof_N 	N 	0.64183	0.09217	0.08457	-0.199
Mof_O 	O 	0.53353	0.02667	0.31247	-0.38
Mof_N 	N 	0.69133	0.97697	0.01847	-0.301
Mof_H 	H 	0.70063	0.94007	0.00067	0.097
Mof_H 	H 	0.72993	0.03007	0.01827	0.126
Mof_C 	C 	0.50113	0.00337	0.26237	0.437
Mof_C 	C 	0.52103	0.97297	0.10307	0.128
Mof_C 	C 	0.48023	0.06197	0.22977	-0.395
Mof_H 	H 	0.52983	0.11867	0.23027	0.132
Mof_H 	H 	0.43493	0.06447	0.25137	0.129
Mof_C 	C 	0.59753	0.00637	0.07537	-0.054
Mof_N 	N 	0.46193	0.89077	0.10167	-0.227
Mof_Ag	Ag	0.76024	0.1927	0.05186	0.456
Mof_C 	C 	0.71893	0.89877	0.17057	-0.389
Mof_H 	H 	0.72103	0.94447	0.14657	0.124
Mof_H 	H 	0.77113	0.89767	0.16317	0.131
Mof_O 	O 	0.57533	0.78987	0.17307	-0.435
Mof_O 	O 	0.65673	0.77497	0.11117	-0.399
Mof_C 	C 	0.64463	0.81567	0.14997	0.434
Mof_Ag	Ag	0.51594	0.84655	0.26535	0.547
Mof_Ag	Ag	0.33703	0.83127	0.14006	0.542
Mof_O 	O 	0.48103	0.93557	0.23717	-0.429
Mof_C 	C 	0.48643	0.84417	0.07267	0.104
Mof_H 	H 	0.44763	0.78597	0.07097	-0.083
Mof_C 	C 	0.77433	0.83537	0.28437	0.098
Mof_H 	H 	0.82893	0.87057	0.26937	-0.04
Mof_C 	C 	0.67073	0.73647	0.32847	-0.062
Mof_N 	N 	0.75553	0.77047	0.31647	-0.196
Mof_N 	N 	0.63203	0.61507	0.38827	-0.303
Mof_H 	H 	0.59283	0.57157	0.40717	0.119
Mof_H 	H 	0.68393	0.62557	0.38907	0.14
Mof_C 	C 	0.61313	0.66467	0.35877	0.147
Mof_C 	C 	0.64223	0.78367	0.30117	0.132
Mof_N 	N 	0.56323	0.76967	0.30247	-0.224
Mof_N 	N 	0.53143	0.64667	0.35847	-0.222
Mof_N 	N 	0.71083	0.84927	0.27367	-0.171
Mof_C 	C 	0.51163	0.69847	0.33207	0.1
Mof_H 	H 	0.45473	0.68417	0.33427	-0.08
Mof_C 	C 	0.71523	0.91757	0.23657	0.132
Mof_H 	H 	0.76543	0.97097	0.24727	-0.036
Mof_H 	H 	0.66553	0.92317	0.24387	-0.042
Mof_C 	C 	0.59383	0.10727	0.11717	0.094
Mof_H 	H 	0.60903	0.16147	0.13127	-0.04
Mof_N 	N 	0.56023	0.87067	0.04557	-0.221
_end
