data_functionalizedCrystal
_audit_creation_method	'EQeq! by Chris Wilmer'
_symmetry_space_group_name_H-M	'P1'
_symmetry_Int_Tables_number	1
_symmetry_cell_setting	triclinic
loop_
_symmetry_equiv_pos_as_xyz
  x,y,z
_cell_length_a	14.7776
_cell_length_b	12.4094
_cell_length_c	29.9554
_cell_angle_alpha	90
_cell_angle_beta	115.572
_cell_angle_gamma	90
loop_
_atom_site_label
_atom_site_type_symbol
_atom_site_fract_x
_atom_site_fract_y
_atom_site_fract_z
_atom_site_charge
Mof_Zn	Zn	0.74719	0.00315	0.76	1.234
Mof_Zn	Zn	0.37716	0.68318	0.82478	1.154
Mof_O 	O 	0.8386	0.8601	0.73245	-0.32
Mof_O 	O 	0.83671	0.8933	0.80465	-0.422
Mof_O 	O 	0.3826	0.8021	0.25697	-0.519
Mof_O 	O 	0.0935	0.6025	0.72688	-0.336
Mof_O 	O 	0.6118	0.5616	0.22593	-0.481
Mof_O 	O 	0.5457	0.4606	0.15705	-0.509
Mof_O 	O 	0.23938	0.5942	0.79309	-0.581
Mof_O 	O 	0.27264	0.8962	0.19324	-0.469
Mof_C 	C 	0.8737	0.8487	0.77793	0.295
Mof_C 	C 	0.9668	0.7822	0.80446	-0.048
Mof_C 	C 	0.0118	0.7766	0.85498	-0.081
Mof_H 	H 	0.9819	0.8103	0.8729	0.07
Mof_C 	C 	0.3361	0.8229	0.21169	0.394
Mof_C 	C 	0.3571	0.7529	0.17642	-0.115
Mof_C 	C 	0.4379	0.6812	0.19481	0.039
Mof_H 	H 	0.4788	0.6787	0.2286	0.026
Mof_C 	C 	0.2981	0.7583	0.12571	-0.035
Mof_H 	H 	0.2447	0.8065	0.1136	0.05
Mof_C 	C 	0.3164	0.6943	0.09274	0.019
Mof_C 	C 	0.2562	0.7035	0.03847	-0.091
Mof_C 	C 	0.265	0.7967	0.01399	0.078
Mof_C 	C 	0.1929	0.6197	0.01175	0.068
Mof_C 	C 	0.5449	0.5384	0.1837	0.399
Mof_C 	C 	0.4577	0.6143	0.16335	-0.116
Mof_C 	C 	0.3968	0.6193	0.11237	-0.033
Mof_H 	H 	0.4091	0.5732	0.0911	0.039
Mof_C 	C 	0.144	0.6214	0.77086	0.313
Mof_C 	C 	0.1002	0.6764	0.8014	-0.088
Mof_C 	C 	0.0109	0.7313	0.77716	-0.011
Mof_H 	H 	0.9802	0.7344	0.7428	0.054
Mof_C 	C 	0.1468	0.6732	0.85263	-0.073
Mof_H 	H 	0.2084	0.6389	0.8688	0.027
Mof_C 	C 	0.1017	0.7213	0.88	0.047
Mof_C 	C 	0.1526	0.7171	0.93579	-0.124
Mof_C 	C 	0.141	0.6261	0.96025	0.114
Mof_C 	C 	0.2133	0.8035	0.96255	0.101
Mof_C 	C 	0.2213	0.9033	0.93583	-0.559
Mof_H 	H 	0.2246	0.9657	0.9554	0.176
Mof_H 	H 	0.1635	0.9085	0.9045	0.192
Mof_H 	H 	0.2808	0.8994	0.9305	0.163
Mof_C 	C 	0.0697	0.5377	0.93015	-0.596
Mof_H 	H 	0.0055	0.5481	0.9303	0.192
Mof_H 	H 	0.0962	0.4688	0.9444	0.192
Mof_H 	H 	0.0623	0.5402	0.8967	0.208
Mof_C 	C 	0.3287	0.891	0.04281	-0.534
Mof_H 	H 	0.3306	0.9446	0.0201	0.161
Mof_H 	H 	0.3956	0.8665	0.0632	0.174
Mof_H 	H 	0.3002	0.9216	0.0633	0.179
Mof_C 	C 	0.1772	0.5224	0.03892	-0.523
Mof_H 	H 	0.1996	0.5396	0.0733	0.18
Mof_H 	H 	0.2149	0.4622	0.0357	0.166
Mof_H 	H 	0.1072	0.5041	0.0248	0.163
Mof_Zn	Zn	0.25281	0.50315	0.74	1.233
Mof_Zn	Zn	0.62284	0.18318	0.67522	1.152
Mof_O 	O 	0.1614	0.3601	0.76755	-0.321
Mof_O 	O 	0.16329	0.3933	0.69535	-0.423
Mof_O 	O 	0.6174	0.3021	0.24303	-0.52
Mof_O 	O 	0.9065	0.1025	0.77312	-0.337
Mof_O 	O 	0.3882	0.0616	0.27407	-0.48
Mof_O 	O 	0.4543	0.9606	0.34295	-0.509
Mof_O 	O 	0.76062	0.0942	0.70691	-0.581
Mof_O 	O 	0.72736	0.3962	0.30676	-0.469
Mof_C 	C 	0.1263	0.3487	0.72207	0.295
Mof_C 	C 	0.0332	0.2822	0.69554	-0.048
Mof_C 	C 	0.9882	0.2766	0.64502	-0.081
Mof_H 	H 	0.0181	0.3103	0.6271	0.07
Mof_C 	C 	0.6639	0.3229	0.28831	0.394
Mof_C 	C 	0.6429	0.2529	0.32358	-0.115
Mof_C 	C 	0.5621	0.1812	0.30519	0.039
Mof_H 	H 	0.5212	0.1787	0.2714	0.026
Mof_C 	C 	0.7019	0.2583	0.37429	-0.035
Mof_H 	H 	0.7553	0.3065	0.3864	0.05
Mof_C 	C 	0.6836	0.1943	0.40726	0.019
Mof_C 	C 	0.7438	0.2035	0.46153	-0.091
Mof_C 	C 	0.735	0.2967	0.48601	0.079
Mof_C 	C 	0.8071	0.1197	0.48825	0.068
Mof_C 	C 	0.4551	0.0384	0.3163	0.4
Mof_C 	C 	0.5423	0.1143	0.33665	-0.116
Mof_C 	C 	0.6032	0.1193	0.38763	-0.033
Mof_H 	H 	0.5909	0.0732	0.4089	0.039
Mof_C 	C 	0.856	0.1214	0.72914	0.313
Mof_C 	C 	0.8998	0.1764	0.6986	-0.087
Mof_C 	C 	0.9891	0.2313	0.72284	-0.012
Mof_H 	H 	0.0198	0.2344	0.7572	0.054
Mof_C 	C 	0.8532	0.1732	0.64737	-0.073
Mof_H 	H 	0.7916	0.1389	0.6312	0.027
Mof_C 	C 	0.8983	0.2213	0.62	0.047
Mof_C 	C 	0.8474	0.2171	0.56421	-0.123
Mof_C 	C 	0.859	0.1261	0.53975	0.114
Mof_C 	C 	0.7867	0.3035	0.53745	0.1
Mof_C 	C 	0.7787	0.4033	0.56417	-0.557
Mof_H 	H 	0.7754	0.4657	0.5446	0.175
Mof_H 	H 	0.8365	0.4085	0.5955	0.191
Mof_H 	H 	0.7192	0.3994	0.5695	0.162
Mof_C 	C 	0.9303	0.0377	0.56985	-0.595
Mof_H 	H 	0.9945	0.0481	0.5697	0.192
Mof_H 	H 	0.9038	0.9688	0.5556	0.192
Mof_H 	H 	0.9377	0.0402	0.6033	0.208
Mof_C 	C 	0.6713	0.391	0.45719	-0.535
Mof_H 	H 	0.6694	0.4446	0.4799	0.161
Mof_H 	H 	0.6044	0.3665	0.4368	0.175
Mof_H 	H 	0.6998	0.4216	0.4367	0.179
Mof_C 	C 	0.8228	0.0224	0.46108	-0.522
Mof_H 	H 	0.8004	0.0396	0.4267	0.18
Mof_H 	H 	0.7851	0.9622	0.4643	0.166
Mof_H 	H 	0.8928	0.0041	0.4752	0.163
Mof_Zn	Zn	0.25281	0.99685	0.24	1.233
Mof_Zn	Zn	0.62284	0.31682	0.17522	1.153
Mof_O 	O 	0.1614	0.1399	0.26755	-0.321
Mof_O 	O 	0.16329	0.1067	0.19535	-0.423
Mof_O 	O 	0.6174	0.1979	0.74303	-0.52
Mof_O 	O 	0.9065	0.3975	0.27312	-0.337
Mof_O 	O 	0.3882	0.4384	0.77407	-0.481
Mof_O 	O 	0.4543	0.5394	0.84295	-0.509
Mof_O 	O 	0.76062	0.4058	0.20691	-0.581
Mof_O 	O 	0.72736	0.1038	0.80676	-0.469
Mof_C 	C 	0.1263	0.1513	0.22207	0.295
Mof_C 	C 	0.0332	0.2178	0.19554	-0.048
Mof_C 	C 	0.9882	0.2234	0.14502	-0.081
Mof_H 	H 	0.0181	0.1897	0.1271	0.07
Mof_C 	C 	0.6639	0.1771	0.78831	0.394
Mof_C 	C 	0.6429	0.2471	0.82358	-0.115
Mof_C 	C 	0.5621	0.3188	0.80519	0.039
Mof_H 	H 	0.5212	0.3213	0.7714	0.026
Mof_C 	C 	0.7019	0.2417	0.87429	-0.035
Mof_H 	H 	0.7553	0.1935	0.8864	0.05
Mof_C 	C 	0.6836	0.3057	0.90726	0.019
Mof_C 	C 	0.7438	0.2965	0.96153	-0.091
Mof_C 	C 	0.735	0.2033	0.98601	0.078
Mof_C 	C 	0.8071	0.3803	0.98825	0.068
Mof_C 	C 	0.4551	0.4616	0.8163	0.399
Mof_C 	C 	0.5423	0.3857	0.83665	-0.116
Mof_C 	C 	0.6032	0.3807	0.88763	-0.033
Mof_H 	H 	0.5909	0.4268	0.9089	0.039
Mof_C 	C 	0.856	0.3786	0.22914	0.313
Mof_C 	C 	0.8998	0.3236	0.1986	-0.088
Mof_C 	C 	0.9891	0.2687	0.22284	-0.011
Mof_H 	H 	0.0198	0.2656	0.2572	0.054
Mof_C 	C 	0.8532	0.3268	0.14737	-0.073
Mof_H 	H 	0.7916	0.3611	0.1312	0.027
Mof_C 	C 	0.8983	0.2787	0.12	0.047
Mof_C 	C 	0.8474	0.2829	0.06421	-0.124
Mof_C 	C 	0.859	0.3739	0.03975	0.114
Mof_C 	C 	0.7867	0.1965	0.03745	0.101
Mof_C 	C 	0.7787	0.0967	0.06417	-0.559
Mof_H 	H 	0.7754	0.0343	0.0446	0.176
Mof_H 	H 	0.8365	0.0915	0.0955	0.192
Mof_H 	H 	0.7192	0.1006	0.0695	0.163
Mof_C 	C 	0.9303	0.4623	0.06985	-0.596
Mof_H 	H 	0.9945	0.4519	0.0697	0.192
Mof_H 	H 	0.9038	0.5312	0.0556	0.192
Mof_H 	H 	0.9377	0.4598	0.1033	0.208
Mof_C 	C 	0.6713	0.109	0.95719	-0.534
Mof_H 	H 	0.6694	0.0554	0.9799	0.161
Mof_H 	H 	0.6044	0.1335	0.9368	0.174
Mof_H 	H 	0.6998	0.0784	0.9367	0.179
Mof_C 	C 	0.8228	0.4776	0.96108	-0.523
Mof_H 	H 	0.8004	0.4604	0.9267	0.18
Mof_H 	H 	0.7851	0.5378	0.9643	0.166
Mof_H 	H 	0.8928	0.4959	0.9752	0.163
Mof_Zn	Zn	0.74719	0.49685	0.26	1.233
Mof_Zn	Zn	0.37716	0.81682	0.32478	1.152
Mof_O 	O 	0.8386	0.6399	0.23245	-0.321
Mof_O 	O 	0.83671	0.6067	0.30465	-0.423
Mof_O 	O 	0.3826	0.6979	0.75697	-0.52
Mof_O 	O 	0.0935	0.8975	0.22688	-0.337
Mof_O 	O 	0.6118	0.9384	0.72593	-0.48
Mof_O 	O 	0.5457	0.0394	0.65705	-0.509
Mof_O 	O 	0.23938	0.9058	0.29309	-0.581
Mof_O 	O 	0.27264	0.6038	0.69324	-0.469
Mof_C 	C 	0.8737	0.6513	0.27793	0.295
Mof_C 	C 	0.9668	0.7178	0.30446	-0.048
Mof_C 	C 	0.0118	0.7234	0.35498	-0.081
Mof_H 	H 	0.9819	0.6897	0.3729	0.07
Mof_C 	C 	0.3361	0.6771	0.71169	0.394
Mof_C 	C 	0.3571	0.7471	0.67642	-0.115
Mof_C 	C 	0.4379	0.8188	0.69481	0.039
Mof_H 	H 	0.4788	0.8213	0.7286	0.026
Mof_C 	C 	0.2981	0.7417	0.62571	-0.035
Mof_H 	H 	0.2447	0.6935	0.6136	0.05
Mof_C 	C 	0.3164	0.8057	0.59274	0.019
Mof_C 	C 	0.2562	0.7965	0.53847	-0.091
Mof_C 	C 	0.265	0.7033	0.51399	0.079
Mof_C 	C 	0.1929	0.8803	0.51175	0.068
Mof_C 	C 	0.5449	0.9616	0.6837	0.4
Mof_C 	C 	0.4577	0.8857	0.66335	-0.116
Mof_C 	C 	0.3968	0.8807	0.61237	-0.033
Mof_H 	H 	0.4091	0.9268	0.5911	0.039
Mof_C 	C 	0.144	0.8786	0.27086	0.313
Mof_C 	C 	0.1002	0.8236	0.3014	-0.087
Mof_C 	C 	0.0109	0.7687	0.27716	-0.012
Mof_H 	H 	0.9802	0.7656	0.2428	0.054
Mof_C 	C 	0.1468	0.8268	0.35263	-0.073
Mof_H 	H 	0.2084	0.8611	0.3688	0.027
Mof_C 	C 	0.1017	0.7787	0.38	0.047
Mof_C 	C 	0.1526	0.7829	0.43579	-0.123
Mof_C 	C 	0.141	0.8739	0.46025	0.114
Mof_C 	C 	0.2133	0.6965	0.46255	0.1
Mof_C 	C 	0.2213	0.5967	0.43583	-0.557
Mof_H 	H 	0.2246	0.5343	0.4554	0.175
Mof_H 	H 	0.1635	0.5915	0.4045	0.191
Mof_H 	H 	0.2808	0.6006	0.4305	0.162
Mof_C 	C 	0.0697	0.9623	0.43015	-0.595
Mof_H 	H 	0.0055	0.9519	0.4303	0.192
Mof_H 	H 	0.0962	0.0312	0.4444	0.192
Mof_H 	H 	0.0623	0.9598	0.3967	0.208
Mof_C 	C 	0.3287	0.609	0.54281	-0.535
Mof_H 	H 	0.3306	0.5554	0.5201	0.161
Mof_H 	H 	0.3956	0.6335	0.5632	0.175
Mof_H 	H 	0.3002	0.5784	0.5633	0.179
Mof_C 	C 	0.1772	0.9776	0.53892	-0.522
Mof_H 	H 	0.1996	0.9604	0.5733	0.18
Mof_H 	H 	0.2149	0.0378	0.5357	0.166
Mof_H 	H 	0.1072	0.9959	0.5248	0.163
_end
