data_functionalizedCrystal
_audit_creation_method	'EQeq! by Chris Wilmer'
_symmetry_space_group_name_H-M	'P1'
_symmetry_Int_Tables_number	1
_symmetry_cell_setting	triclinic
loop_
_symmetry_equiv_pos_as_xyz
  x,y,z
_cell_length_a	13.0124
_cell_length_b	14.2918
_cell_length_c	23.7647
_cell_angle_alpha	95.155
_cell_angle_beta	101.758
_cell_angle_gamma	115.984
loop_
_atom_site_label
_atom_site_type_symbol
_atom_site_fract_x
_atom_site_fract_y
_atom_site_fract_z
_atom_site_charge
Mof_Ag	Ag	0.5002	0.4579	0.2499	0.372
Mof_Ag	Ag	0.7318	0.7091	0.24236	0.344
Mof_Ag	Ag	0.7688	0.5128	0.7509	0.357
Mof_Ag	Ag	0.8569	0.9783	0.49176	0.393
Mof_Ag	Ag	0.8766	0.4978	0.01102	0.363
Mof_Ag	Ag	0.513	0.3172	0.73188	0.317
Mof_Ag	Ag	0.7379	0.2423	0.7559	0.33
Mof_Ag	Ag	0.5813	0.9235	0.51873	0.387
Mof_Ag	Ag	0.0285	0.8037	0.25065	0.389
Mof_Ag	Ag	0.5773	0.3947	0.00282	0.399
Mof_Ag	Ag	0.7175	0.9546	0.22507	0.393
Mof_Ag	Ag	0.7862	0.3366	0.12138	0.42
Mof_Ag	Ag	0.6816	0.7499	0.5475	0.22
Mof_Ag	Ag	0.356	0.303	0.469	0.172
Mof_Ag	Ag	0.4951	0.0142	0.2362	-0.194
Mof_Ag	Ag	0.4778	0.9426	0.2221	0.552
Mof_N 	N 	0.79	0.357	0.8309	-0.191
Mof_N 	N 	0.823	0.461	0.8264	-0.186
Mof_C 	C 	0.851	0.514	0.8807	0.08
Mof_H 	H 	0.8691	0.5855	0.8898	-0.062
Mof_N 	N 	0.849	0.453	0.921	-0.238
Mof_C 	C 	0.821	0.363	0.8871	0.128
Mof_H 	H 	0.8238	0.3063	0.9026	-0.068
Mof_N 	N 	0.581	0.061	0.17	-0.161
Mof_N 	N 	0.677	0.042	0.1676	-0.19
Mof_C 	C 	0.743	0.115	0.1439	0.089
Mof_H 	H 	0.8155	0.1239	0.1389	-0.057
Mof_N 	N 	0.694	0.179	0.1272	-0.225
Mof_C 	C 	0.593	0.143	0.1457	0.077
Mof_H 	H 	0.5411	0.1716	0.1418	-0.043
Mof_N 	N 	0.881	0.5	0.1405	-0.2
Mof_N 	N 	0.908	0.5605	0.1004	-0.171
Mof_C 	C 	0.962	0.667	0.126	0.052
Mof_H 	H 	0.99	0.7249	0.108	-0.046
Mof_N 	N 	0.964	0.668	0.1858	-0.234
Mof_C 	C 	0.919	0.566	0.1883	0.131
Mof_H 	H 	0.9145	0.5442	0.2238	-0.077
Mof_N 	N 	0.495	0.208	0.835	-0.19
Mof_N 	N 	0.529	0.309	0.8201	-0.192
Mof_C 	C 	0.558	0.38	0.8711	0.073
Mof_H 	H 	0.5788	0.4515	0.8741	-0.043
Mof_N 	N 	0.551	0.328	0.9171	-0.225
Mof_C 	C 	0.517	0.224	0.8913	0.078
Mof_H 	H 	0.5109	0.1707	0.9125	-0.046
Mof_N 	N 	0.786	0.9272	0.3059	-0.195
Mof_N 	N 	0.792	0.834	0.3151	-0.198
Mof_C 	C 	0.812	0.841	0.3709	0.117
Mof_H 	H 	0.8079	0.7853	0.389	-0.064
Mof_N 	N 	0.838	0.936	0.4009	-0.231
Mof_C 	C 	0.814	0.983	0.3595	0.1
Mof_H 	H 	0.8165	0.049	0.3666	-0.058
Mof_N 	N 	0.655	0.574	0.1708	-0.195
Mof_N 	N 	0.57	0.478	0.1773	-0.184
Mof_C 	C 	0.534	0.41	0.1251	0.067
Mof_H 	H 	0.4741	0.3401	0.1158	-0.05
Mof_N 	N 	0.597	0.46	0.0887	-0.239
Mof_C 	C 	0.666	0.56	0.1218	0.132
Mof_H 	H 	0.7193	0.6143	0.1076	-0.065
Mof_N 	N 	0.862	0.01	0.5805	-0.192
Mof_N 	N 	0.817	0.928	0.6083	-0.159
Mof_C 	C 	0.859	0.979	0.6668	0.119
Mof_H 	H 	0.8528	0.9434	0.6978	-0.053
Mof_N 	N 	0.907	0.076	0.6732	-0.228
Mof_C 	C 	0.917	0.099	0.6189	0.091
Mof_H 	H 	0.957	0.167	0.6112	-0.057
Mof_N 	N 	0.559	0.022	0.6904	-0.164
Mof_N 	N 	0.654	0.113	0.6858	-0.201
Mof_C 	C 	0.671	0.099	0.6357	0.115
Mof_H 	H 	0.7326	0.1491	0.6236	-0.063
Mof_N 	N 	0.59	0.004	0.6022	-0.223
Mof_C 	C 	0.525	0.956	0.6405	0.079
Mof_H 	H 	0.4655	0.8865	0.6317	-0.044
Mof_N 	N 	0.571	0.821	0.4447	-0.19
Mof_N 	N 	0.604	0.7438	0.4557	-0.194
Mof_C 	C 	0.573	0.685	0.4038	0.104
Mof_H 	H 	0.5826	0.6246	0.3976	-0.055
Mof_N 	N 	0.525	0.719	0.3608	-0.225
Mof_C 	C 	0.534	0.809	0.3878	0.086
Mof_H 	H 	0.5153	0.8563	0.3689	-0.045
Mof_N 	N 	0.691	0.5686	0.6856	-0.195
Mof_N 	N 	0.589	0.574	0.6866	-0.186
Mof_C 	C 	0.577	0.631	0.646	0.065
Mof_H 	H 	0.5152	0.6489	0.6376	-0.043
Mof_N 	N 	0.667	0.661	0.6182	-0.212
Mof_C 	C 	0.73	0.619	0.6473	0.112
Mof_H 	H 	0.7997	0.6266	0.6395	-0.06
Mof_Ag	Ag	0.4998	0.5421	0.7501	0.373
Mof_Ag	Ag	0.2682	0.2909	0.75764	0.345
Mof_Ag	Ag	0.2312	0.4872	0.2491	0.358
Mof_Ag	Ag	0.1431	0.0217	0.50824	0.394
Mof_Ag	Ag	0.1234	0.5022	0.98898	0.364
Mof_Ag	Ag	0.487	0.6828	0.26812	0.318
Mof_Ag	Ag	0.2621	0.7577	0.2441	0.331
Mof_Ag	Ag	0.4187	0.0765	0.48127	0.388
Mof_Ag	Ag	0.9715	0.1963	0.74935	0.389
Mof_Ag	Ag	0.4227	0.6053	0.99718	0.399
Mof_Ag	Ag	0.2825	0.0454	0.77493	0.393
Mof_Ag	Ag	0.2138	0.6634	0.87862	0.42
Mof_Ag	Ag	0.3184	0.2501	0.4525	0.22
Mof_Ag	Ag	0.644	0.697	0.531	0.172
Mof_Ag	Ag	0.5049	0.9858	0.7638	-0.194
Mof_Ag	Ag	0.5222	0.0574	0.7779	0.552
Mof_N 	N 	0.21	0.643	0.1691	-0.191
Mof_N 	N 	0.177	0.539	0.1736	-0.186
Mof_C 	C 	0.149	0.486	0.1193	0.08
Mof_H 	H 	0.1309	0.4145	0.1102	-0.062
Mof_N 	N 	0.151	0.547	0.079	-0.238
Mof_C 	C 	0.179	0.637	0.1129	0.128
Mof_H 	H 	0.1762	0.6937	0.0974	-0.068
Mof_N 	N 	0.419	0.939	0.83	-0.161
Mof_N 	N 	0.323	0.958	0.8324	-0.19
Mof_C 	C 	0.257	0.885	0.8561	0.089
Mof_H 	H 	0.1845	0.8761	0.8611	-0.057
Mof_N 	N 	0.306	0.821	0.8728	-0.225
Mof_C 	C 	0.407	0.857	0.8543	0.077
Mof_H 	H 	0.4589	0.8284	0.8582	-0.043
Mof_N 	N 	0.119	0.5	0.8595	-0.2
Mof_N 	N 	0.092	0.4395	0.8996	-0.171
Mof_C 	C 	0.038	0.333	0.874	0.052
Mof_H 	H 	0.01	0.2751	0.892	-0.046
Mof_N 	N 	0.036	0.332	0.8142	-0.234
Mof_C 	C 	0.081	0.434	0.8117	0.131
Mof_H 	H 	0.0855	0.4558	0.7762	-0.077
Mof_N 	N 	0.505	0.792	0.165	-0.19
Mof_N 	N 	0.471	0.691	0.1799	-0.192
Mof_C 	C 	0.442	0.62	0.1289	0.073
Mof_H 	H 	0.4212	0.5485	0.1259	-0.043
Mof_N 	N 	0.449	0.672	0.0829	-0.225
Mof_C 	C 	0.483	0.776	0.1087	0.078
Mof_H 	H 	0.4891	0.8293	0.0875	-0.046
Mof_N 	N 	0.214	0.0728	0.6941	-0.195
Mof_N 	N 	0.208	0.166	0.6849	-0.198
Mof_C 	C 	0.188	0.159	0.6291	0.117
Mof_H 	H 	0.1921	0.2147	0.611	-0.064
Mof_N 	N 	0.162	0.064	0.5991	-0.231
Mof_C 	C 	0.186	0.017	0.6405	0.1
Mof_H 	H 	0.1835	0.951	0.6334	-0.058
Mof_N 	N 	0.345	0.426	0.8292	-0.195
Mof_N 	N 	0.43	0.522	0.8227	-0.184
Mof_C 	C 	0.466	0.59	0.8749	0.067
Mof_H 	H 	0.5259	0.6599	0.8842	-0.05
Mof_N 	N 	0.403	0.54	0.9113	-0.239
Mof_C 	C 	0.334	0.44	0.8782	0.132
Mof_H 	H 	0.2807	0.3857	0.8924	-0.065
Mof_N 	N 	0.138	0.99	0.4195	-0.192
Mof_N 	N 	0.183	0.072	0.3917	-0.159
Mof_C 	C 	0.141	0.021	0.3332	0.119
Mof_H 	H 	0.1472	0.0566	0.3022	-0.053
Mof_N 	N 	0.093	0.924	0.3268	-0.228
Mof_C 	C 	0.083	0.901	0.3811	0.091
Mof_H 	H 	0.043	0.833	0.3888	-0.057
Mof_N 	N 	0.441	0.978	0.3096	-0.164
Mof_N 	N 	0.346	0.887	0.3142	-0.201
Mof_C 	C 	0.329	0.901	0.3643	0.115
Mof_H 	H 	0.2674	0.8509	0.3764	-0.063
Mof_N 	N 	0.41	0.996	0.3978	-0.223
Mof_C 	C 	0.475	0.044	0.3595	0.079
Mof_H 	H 	0.5345	0.1135	0.3683	-0.044
Mof_N 	N 	0.429	0.179	0.5553	-0.19
Mof_N 	N 	0.396	0.2562	0.5443	-0.194
Mof_C 	C 	0.427	0.315	0.5962	0.104
Mof_H 	H 	0.4174	0.3754	0.6024	-0.055
Mof_N 	N 	0.475	0.281	0.6392	-0.225
Mof_C 	C 	0.466	0.191	0.6122	0.086
Mof_H 	H 	0.4847	0.1437	0.6311	-0.045
Mof_N 	N 	0.309	0.4314	0.3144	-0.195
Mof_N 	N 	0.411	0.426	0.3134	-0.186
Mof_C 	C 	0.423	0.369	0.354	0.065
Mof_H 	H 	0.4848	0.3511	0.3624	-0.043
Mof_N 	N 	0.333	0.339	0.3818	-0.212
Mof_C 	C 	0.27	0.381	0.3527	0.112
Mof_H 	H 	0.2003	0.3734	0.3605	-0.06
_end
