data_functionalizedCrystal
_audit_creation_method	'EQeq! by Chris Wilmer'
_symmetry_space_group_name_H-M	'P1'
_symmetry_Int_Tables_number	1
_symmetry_cell_setting	triclinic
loop_
_symmetry_equiv_pos_as_xyz
  x,y,z
_cell_length_a	5.0996
_cell_length_b	21.2595
_cell_length_c	8.9209
_cell_angle_alpha	90
_cell_angle_beta	90.2394
_cell_angle_gamma	90
loop_
_atom_site_label
_atom_site_type_symbol
_atom_site_fract_x
_atom_site_fract_y
_atom_site_fract_z
_atom_site_charge
Mof_Ti	Ti	0.72781	0.1004	0.02196	2.062
Mof_P 	P 	0.21323	0.38578	0.26543	0.695
Mof_P 	P 	0.23973	0.04614	0.83991	0.702
Mof_O 	O 	0.2638	0.3227	0.349	-1.052
Mof_O 	O 	0.7204	0.1907	0.9693	-0.537
Mof_O 	O 	0.4174	0.39243	0.1416	-0.649
Mof_O 	O 	0.0249	0.0914	0.8937	-0.609
Mof_O 	O 	0.9384	0.38292	0.1959	-0.551
Mof_O 	O 	0.7509	0.0124	0.0618	-0.609
Mof_O 	O 	0.5059	0.08086	0.8443	-0.492
Mof_O 	O 	0.2347	0.43885	0.3799	-0.445
Mof_O 	O 	0.1849	0.0295	0.676	-0.492
Mof_Ti	Ti	0.27219	0.6004	0.97804	1.998
Mof_P 	P 	0.78677	0.88578	0.73457	0.824
Mof_P 	P 	0.76027	0.54614	0.16009	0.74
Mof_O 	O 	0.7362	0.8227	0.651	-1.055
Mof_O 	O 	0.2796	0.6907	0.0307	-0.595
Mof_O 	O 	0.5826	0.89243	0.8584	-0.624
Mof_O 	O 	0.9751	0.5914	0.1063	-0.498
Mof_O 	O 	0.0616	0.88292	0.8041	-0.685
Mof_O 	O 	0.2491	0.5124	0.9382	-0.588
Mof_O 	O 	0.4941	0.58086	0.1557	-0.527
Mof_O 	O 	0.7653	0.93885	0.6201	-0.369
Mof_O 	O 	0.8151	0.5295	0.324	-0.441
Mof_Ti	Ti	0.27219	0.8996	0.97804	1.995
Mof_P 	P 	0.78677	0.61422	0.73457	0.827
Mof_P 	P 	0.76027	0.95386	0.16009	0.778
Mof_O 	O 	0.7362	0.6773	0.651	-1.057
Mof_O 	O 	0.2796	0.8093	0.0307	-0.593
Mof_O 	O 	0.5826	0.60757	0.8584	-0.631
Mof_O 	O 	0.9751	0.9086	0.1063	-0.496
Mof_O 	O 	0.0616	0.61708	0.8041	-0.694
Mof_O 	O 	0.2491	0.9876	0.9382	-0.542
Mof_O 	O 	0.4941	0.91914	0.1557	-0.52
Mof_O 	O 	0.7653	0.56115	0.6201	-0.407
Mof_O 	O 	0.8151	0.9705	0.324	-0.399
Mof_Ti	Ti	0.72781	0.3996	0.02196	2.074
Mof_P 	P 	0.21323	0.11422	0.26543	0.691
Mof_P 	P 	0.23973	0.45386	0.83991	0.741
Mof_O 	O 	0.2638	0.1773	0.349	-1.051
Mof_O 	O 	0.7204	0.3093	0.9693	-0.54
Mof_O 	O 	0.4174	0.10757	0.1416	-0.653
Mof_O 	O 	0.0249	0.4086	0.8937	-0.615
Mof_O 	O 	0.9384	0.11708	0.1959	-0.553
Mof_O 	O 	0.7509	0.4876	0.0618	-0.561
Mof_O 	O 	0.5059	0.41914	0.8443	-0.494
Mof_O 	O 	0.2347	0.06115	0.3799	-0.446
Mof_O 	O 	0.1849	0.4705	0.676	-0.496
Mof_Ga	Ga	0.3153	0.25	0.24392	3.88
Mof_P 	P 	0.8027	0.25	0.05581	0.862
Mof_O 	O 	0.6676	0.25	0.2109	-1.126
Mof_O 	O 	0.1026	0.25	0.0786	-1.142
Mof_Ga	Ga	0.6847	0.75	0.75608	3.981
Mof_P 	P 	0.1973	0.75	0.94419	0.778
Mof_O 	O 	0.3324	0.75	0.7891	-1.172
Mof_O 	O 	0.8974	0.75	0.9214	-1.014
Mof_Ti	Ti	3.29318e-33	0.5	0.5	1.246
Mof_Ti	Ti	-4.59173e-19	-1.63131e-33	0.5	1.146
_end
