data_functionalizedCrystal
_audit_creation_method	'EQeq! by Chris Wilmer'
_symmetry_space_group_name_H-M	'P1'
_symmetry_Int_Tables_number	1
_symmetry_cell_setting	triclinic
loop_
_symmetry_equiv_pos_as_xyz
  x,y,z
_cell_length_a	22.6778
_cell_length_b	24.1597
_cell_length_c	25.3477
_cell_angle_alpha	66.5806
_cell_angle_beta	81.054
_cell_angle_gamma	88.037
loop_
_atom_site_label
_atom_site_type_symbol
_atom_site_fract_x
_atom_site_fract_y
_atom_site_fract_z
_atom_site_charge
Mof_Zn	Zn	0.77416	0.16353	0.50638	1.221
Mof_Zn	Zn	0.61937	0.13799	0.54098	1.217
Mof_Zn	Zn	0.71445	0.49848	0.89743	1.22
Mof_Zn	Zn	0.5613	0.47108	0.91728	1.227
Mof_H 	H 	0.0521	0.2304	0.5083	0.166
Mof_H 	H 	0.3346	0.1682	0.5152	0.141
Mof_H 	H 	0.9873	0.4058	0.9153	0.145
Mof_H 	H 	0.2778	0.3998	0.0056	0.161
Mof_H 	H 	0.1429	0.1739	0.5235	0.044
Mof_H 	H 	0.2415	0.1788	0.5369	0.034
Mof_H 	H 	0.2732	0.3179	0.3773	0.051
Mof_H 	H 	0.1777	0.3099	0.3659	0.056
Mof_H 	H 	0.8567	0.2082	0.5597	-0.044
Mof_H 	H 	0.9541	0.2281	0.5535	0.136
Mof_H 	H 	0.9867	0.1909	0.4097	0.142
Mof_H 	H 	0.8852	0.1696	0.4249	-0.022
Mof_H 	H 	0.4982	0.0794	0.5771	-0.028
Mof_H 	H 	0.4007	0.1001	0.5542	0.121
Mof_H 	H 	0.4488	0.2726	0.4677	0.153
Mof_H 	H 	0.547	0.2467	0.4862	-0.03
Mof_H 	H 	0.0797	0.379	0.0561	0.054
Mof_H 	H 	0.1829	0.3761	0.0377	0.061
Mof_H 	H 	0.1778	0.4456	0.8659	0.063
Mof_H 	H 	0.0745	0.4485	0.8842	0.038
Mof_H 	H 	0.8164	0.4458	0.8522	-0.037
Mof_H 	H 	0.9219	0.4279	0.8613	0.132
Mof_H 	H 	0.8897	0.4647	0.9999	0.192
Mof_H 	H 	0.7937	0.4909	0.9789	-0.058
Mof_H 	H 	0.4686	0.4436	0.8587	-0.018
Mof_H 	H 	0.366	0.4328	0.8691	0.154
Mof_H 	H 	0.3653	0.4062	0.0377	0.135
Mof_H 	H 	0.4671	0.4238	0.0166	-0.029
Mof_H 	H 	0.8014	0.9439	0.5442	0.016
Mof_H 	H 	0.7916	0.847	0.6111	0.085
Mof_H 	H 	0.732	0.9027	0.7383	0.08
Mof_H 	H 	0.7429	0.9994	0.6693	0.018
Mof_H 	H 	0.7173	0.6651	0.7488	0.043
Mof_H 	H 	0.7297	0.7627	0.6777	0.067
Mof_H 	H 	0.7786	0.8157	0.7936	0.063
Mof_H 	H 	0.7654	0.7171	0.8638	0.035
Mof_H 	H 	0.6333	0.9408	0.578	0.039
Mof_H 	H 	0.618	0.8349	0.6297	0.071
Mof_H 	H 	0.5559	0.863	0.7728	0.072
Mof_H 	H 	0.5687	0.9624	0.7253	0.026
Mof_H 	H 	0.5539	0.6469	0.726	0.041
Mof_H 	H 	0.5681	0.7479	0.6739	0.069
Mof_H 	H 	0.5942	0.7691	0.8182	0.064
Mof_H 	H 	0.587	0.6662	0.8683	0.038
Mof_H 	H 	0.7724	0.2757	0.5991	0.019
Mof_H 	H 	0.7637	0.3231	0.6609	0.069
Mof_H 	H 	0.5884	0.2909	0.6959	0.067
Mof_H 	H 	0.5986	0.2488	0.6273	0.024
Mof_H 	H 	0.5762	0.3817	0.8123	-0.022
Mof_H 	H 	0.5835	0.3349	0.7498	0.116
Mof_H 	H 	0.7541	0.3639	0.7206	0.116
Mof_H 	H 	0.749	0.4058	0.7846	-0.026
Mof_H 	H 	0.7703	0.2457	0.3212	0.027
Mof_H 	H 	0.7512	0.3062	0.2304	0.074
Mof_H 	H 	0.5778	0.298	0.2858	0.072
Mof_H 	H 	0.5965	0.2382	0.3812	0.027
Mof_H 	H 	0.7199	0.4402	0.0645	0.015
Mof_H 	H 	0.7315	0.3952	0.1612	0.085
Mof_H 	H 	0.5664	0.3206	0.1964	0.082
Mof_H 	H 	0.5537	0.3824	0.1004	0.016
Mof_C 	C 	0.0885	0.2343	0.4315	0.225
Mof_C 	C 	0.3319	0.2432	0.4667	0.249
Mof_C 	C 	0.1482	0.2402	0.4457	-0.044
Mof_C 	C 	0.1692	0.2023	0.4942	-0.033
Mof_C 	C 	0.2292	0.2039	0.5021	-0.028
Mof_C 	C 	0.2707	0.2447	0.4558	-0.063
Mof_C 	C 	0.248	0.2876	0.4058	-0.02
Mof_C 	C 	0.1908	0.2839	0.4	-0.041
Mof_C 	C 	0.8829	0.2047	0.5292	0.179
Mof_C 	C 	0.9413	0.2172	0.5257	-0.276
Mof_C 	C 	0.9821	0.2136	0.4799	0.244
Mof_C 	C 	0.9614	0.1949	0.4405	-0.244
Mof_C 	C 	0.9	0.1826	0.4503	0.136
Mof_C 	C 	0.4895	0.118	0.5522	0.137
Mof_C 	C 	0.4302	0.1306	0.5392	-0.25
Mof_C 	C 	0.4169	0.1895	0.5036	0.264
Mof_C 	C 	0.458	0.2324	0.4871	-0.277
Mof_C 	C 	0.5175	0.2164	0.4996	0.15
Mof_C 	C 	0.0001	0.4218	0.9769	0.241
Mof_C 	C 	0.2573	0.4073	0.9345	0.209
Mof_C 	C 	0.0668	0.414	0.972	-0.047
Mof_C 	C 	0.0993	0.3923	0.0179	-0.015
Mof_C 	C 	0.1612	0.3906	0.0069	-0.051
Mof_C 	C 	0.1906	0.4105	0.95	-0.026
Mof_C 	C 	0.1581	0.4322	0.904	-0.044
Mof_C 	C 	0.0962	0.434	0.915	-0.024
Mof_C 	C 	0.8317	0.4507	0.8821	0.166
Mof_C 	C 	0.8954	0.4371	0.8883	-0.29
Mof_C 	C 	0.9116	0.4395	0.9377	0.336
Mof_C 	C 	0.8772	0.4597	0.9689	-0.385
Mof_C 	C 	0.8184	0.475	0.9559	0.238
Mof_C 	C 	0.446	0.4402	0.8938	0.141
Mof_C 	C 	0.3854	0.4308	0.8995	-0.256
Mof_C 	C 	0.3562	0.418	0.9557	0.25
Mof_C 	C 	0.3855	0.4157	0.0002	-0.269
Mof_C 	C 	0.4463	0.4281	0.9864	0.159
Mof_C 	C 	0.7765	0.0432	0.5566	0.338
Mof_C 	C 	0.7702	0.9831	0.5987	-0.151
Mof_C 	C 	0.7866	0.9362	0.5829	0.072
Mof_C 	C 	0.7814	0.878	0.6236	-0.134
Mof_C 	C 	0.7616	0.8625	0.6829	0.068
Mof_C 	C 	0.7461	0.9098	0.6996	-0.135
Mof_C 	C 	0.752	0.968	0.6572	0.075
Mof_C 	C 	0.7347	0.6197	0.8588	0.302
Mof_C 	C 	0.7423	0.6829	0.8108	-0.084
Mof_C 	C 	0.7306	0.6958	0.7579	0.025
Mof_C 	C 	0.7375	0.7551	0.7149	-0.09
Mof_C 	C 	0.7555	0.801	0.727	0.029
Mof_C 	C 	0.7661	0.7855	0.7834	-0.086
Mof_C 	C 	0.7588	0.726	0.826	0.016
Mof_C 	C 	0.6076	0.0278	0.6147	0.299
Mof_C 	C 	0.5998	0.9625	0.6467	-0.101
Mof_C 	C 	0.617	0.9247	0.6172	0.03
Mof_C 	C 	0.6088	0.8605	0.649	-0.107
Mof_C 	C 	0.5883	0.8377	0.7055	0.052
Mof_C 	C 	0.5718	0.8787	0.7335	-0.116
Mof_C 	C 	0.5785	0.9375	0.7053	0.046
Mof_C 	C 	0.5647	0.5801	0.837	0.3
Mof_C 	C 	0.5706	0.6455	0.8011	-0.092
Mof_C 	C 	0.5637	0.6712	0.7443	0.026
Mof_C 	C 	0.5708	0.7321	0.7134	-0.097
Mof_C 	C 	0.582	0.772	0.7392	0.029
Mof_C 	C 	0.5873	0.7448	0.799	-0.09
Mof_C 	C 	0.5825	0.6831	0.8292	0.019
Mof_C 	C 	0.6904	0.2226	0.5711	0.419
Mof_C 	C 	0.6856	0.2576	0.6067	-0.16
Mof_C 	C 	0.7347	0.2798	0.6175	0.066
Mof_C 	C 	0.7292	0.3081	0.6551	-0.099
Mof_C 	C 	0.6757	0.3156	0.6849	0.003
Mof_C 	C 	0.6259	0.2901	0.6754	-0.092
Mof_C 	C 	0.6326	0.2632	0.6348	0.066
Mof_C 	C 	0.6509	0.4212	0.8525	0.512
Mof_C 	C 	0.6601	0.3966	0.8089	-0.287
Mof_C 	C 	0.6142	0.3769	0.7949	0.202
Mof_C 	C 	0.6184	0.3491	0.7557	-0.235
Mof_C 	C 	0.67	0.342	0.7264	0.155
Mof_C 	C 	0.7163	0.3658	0.7402	-0.238
Mof_C 	C 	0.7141	0.3915	0.7786	0.203
Mof_C 	C 	0.6988	0.1985	0.4216	0.424
Mof_C 	C 	0.6863	0.237	0.3625	-0.138
Mof_C 	C 	0.7313	0.257	0.3159	0.06
Mof_C 	C 	0.7194	0.2939	0.2609	-0.115
Mof_C 	C 	0.6629	0.3133	0.2488	0.046
Mof_C 	C 	0.6169	0.2899	0.2929	-0.11
Mof_C 	C 	0.6284	0.2524	0.3509	0.051
Mof_C 	C 	0.6273	0.4451	0.0112	0.436
Mof_C 	C 	0.636	0.4127	0.0739	-0.171
Mof_C 	C 	0.6885	0.4171	0.0918	0.092
Mof_C 	C 	0.6967	0.3884	0.1492	-0.142
Mof_C 	C 	0.6518	0.3492	0.1887	0.066
Mof_C 	C 	0.5976	0.3457	0.1706	-0.135
Mof_C 	C 	0.5908	0.3813	0.112	0.086
Mof_N 	N 	0.0425	0.2267	0.4784	-0.266
Mof_N 	N 	0.8601	0.1881	0.4935	-0.295
Mof_N 	N 	0.3577	0.1994	0.4956	-0.295
Mof_N 	N 	0.5318	0.1602	0.5294	-0.277
Mof_N 	N 	0.9708	0.4198	0.9402	-0.3
Mof_N 	N 	0.7979	0.4685	0.916	-0.316
Mof_N 	N 	0.2935	0.4071	0.9702	-0.269
Mof_N 	N 	0.4763	0.4452	0.9344	-0.295
Mof_O 	O 	0.0789	0.2399	0.3845	-0.236
Mof_O 	O 	0.3615	0.2933	0.4346	-0.23
Mof_O 	O 	0.9808	0.4284	0.0248	-0.225
Mof_O 	O 	0.2776	0.4142	0.8815	-0.224
Mof_O 	O 	0.7541	0.0865	0.5722	-0.467
Mof_O 	O 	0.7993	0.0587	0.5048	-0.338
Mof_O 	O 	0.7205	0.5791	0.8394	-0.441
Mof_O 	O 	0.7436	0.605	0.9095	-0.324
Mof_O 	O 	0.6221	0.0496	0.5585	-0.421
Mof_O 	O 	0.5958	0.0631	0.6406	-0.36
Mof_O 	O 	0.5759	0.5573	0.8885	-0.469
Mof_O 	O 	0.5502	0.5455	0.8122	-0.307
Mof_O 	O 	0.7413	0.2179	0.5442	-0.483
Mof_O 	O 	0.6439	0.1934	0.5722	-0.498
Mof_O 	O 	0.6961	0.4499	0.8547	-0.509
Mof_O 	O 	0.602	0.4218	0.8809	-0.539
Mof_O 	O 	0.7513	0.1965	0.4304	-0.505
Mof_O 	O 	0.6514	0.1763	0.4572	-0.502
Mof_O 	O 	0.6749	0.4701	0.9769	-0.517
Mof_O 	O 	0.579	0.4403	0.9957	-0.507
Mof_Zn	Zn	0.88043	0.15109	0.71063	1.222
Mof_Zn	Zn	0.02642	0.18741	0.67591	1.22
Mof_Zn	Zn	0.11957	0.84891	0.28937	1.222
Mof_Zn	Zn	0.97358	0.81259	0.32409	1.22
Mof_H 	H 	0.6011	0.091	0.709	0.157
Mof_H 	H 	0.2939	0.1667	0.7358	0.141
Mof_H 	H 	0.5231	0.0825	0.6907	0.07
Mof_H 	H 	0.429	0.085	0.6647	0.045
Mof_H 	H 	0.3657	0.1628	0.7749	0.028
Mof_H 	H 	0.4598	0.1603	0.8008	0.068
Mof_H 	H 	0.7945	0.1059	0.6603	-0.031
Mof_H 	H 	0.6974	0.0886	0.6653	0.136
Mof_H 	H 	0.6671	0.1494	0.7948	0.146
Mof_H 	H 	0.7679	0.1638	0.7849	-0.022
Mof_H 	H 	0.1338	0.1185	0.642	-0.034
Mof_H 	H 	0.235	0.1174	0.6489	0.152
Mof_H 	H 	0.1988	0.1756	0.7775	0.116
Mof_H 	H 	0.1038	0.1999	0.7505	-0.016
Mof_H 	H 	0.9074	0.3199	0.5598	0.029
Mof_H 	H 	0.9187	0.4198	0.4944	0.068
Mof_H 	H 	0.8846	0.468	0.6319	0.067
Mof_H 	H 	0.876	0.3663	0.6939	0.028
Mof_H 	H 	0.8994	0.6557	0.5153	0.035
Mof_H 	H 	0.8919	0.5555	0.5778	0.065
Mof_H 	H 	0.9389	0.5108	0.4452	0.065
Mof_H 	H 	0.9594	0.6123	0.3835	0.041
Mof_H 	H 	0.888	0.051	0.6006	0.014
Mof_H 	H 	0.9066	0.0046	0.5357	0.087
Mof_H 	H 	0.08	0.0317	0.5213	0.083
Mof_H 	H 	0.0618	0.0838	0.5807	0.012
Mof_H 	H 	0.8895	0.0435	0.8896	0.019
Mof_H 	H 	0.9097	0.9927	0.9839	0.077
Mof_H 	H 	0.0649	0.0719	0.9429	0.078
Mof_H 	H 	0.0514	0.1164	0.8441	0.014
Mof_H 	H 	0.3989	0.909	0.291	0.157
Mof_H 	H 	0.7061	0.8333	0.2642	0.141
Mof_H 	H 	0.4769	0.9175	0.3093	0.07
Mof_H 	H 	0.571	0.915	0.3353	0.045
Mof_H 	H 	0.6343	0.8372	0.2251	0.028
Mof_H 	H 	0.5402	0.8397	0.1992	0.068
Mof_H 	H 	0.2055	0.8941	0.3397	-0.031
Mof_H 	H 	0.3026	0.9114	0.3347	0.136
Mof_H 	H 	0.3329	0.8506	0.2052	0.146
Mof_H 	H 	0.2321	0.8362	0.2151	-0.022
Mof_H 	H 	0.8662	0.8815	0.358	-0.034
Mof_H 	H 	0.765	0.8826	0.3511	0.152
Mof_H 	H 	0.8012	0.8244	0.2225	0.116
Mof_H 	H 	0.8962	0.8001	0.2495	-0.016
Mof_H 	H 	0.0926	0.6801	0.4402	0.029
Mof_H 	H 	0.0813	0.5802	0.5056	0.068
Mof_H 	H 	0.1154	0.532	0.3681	0.067
Mof_H 	H 	0.124	0.6337	0.3061	0.028
Mof_H 	H 	0.1006	0.3443	0.4847	0.035
Mof_H 	H 	0.1081	0.4445	0.4222	0.065
Mof_H 	H 	0.0611	0.4892	0.5548	0.065
Mof_H 	H 	0.0406	0.3877	0.6165	0.041
Mof_H 	H 	0.112	0.949	0.3994	0.014
Mof_H 	H 	0.0934	0.9954	0.4643	0.087
Mof_H 	H 	0.92	0.9683	0.4787	0.083
Mof_H 	H 	0.9382	0.9162	0.4193	0.012
Mof_H 	H 	0.1105	0.9565	0.1104	0.019
Mof_H 	H 	0.0903	0.0073	0.0161	0.077
Mof_H 	H 	0.9351	0.9281	0.0571	0.078
Mof_H 	H 	0.9486	0.8836	0.1559	0.014
Mof_C 	C 	0.5621	0.1246	0.7629	0.186
Mof_C 	C 	0.3267	0.1109	0.7076	0.225
Mof_C 	C 	0.5008	0.1211	0.7483	-0.007
Mof_C 	C 	0.4915	0.0986	0.7076	-0.07
Mof_C 	C 	0.4352	0.1001	0.692	-0.004
Mof_C 	C 	0.3881	0.1241	0.7173	-0.061
Mof_C 	C 	0.3973	0.1467	0.758	-0.007
Mof_C 	C 	0.4536	0.1452	0.7736	-0.06
Mof_C 	C 	0.7681	0.1144	0.6879	0.162
Mof_C 	C 	0.7106	0.1046	0.6894	-0.262
Mof_C 	C 	0.67	0.12	0.7303	0.238
Mof_C 	C 	0.6926	0.1408	0.7667	-0.251
Mof_C 	C 	0.753	0.1486	0.761	0.141
Mof_C 	C 	0.1482	0.1357	0.6647	0.172
Mof_C 	C 	0.2079	0.1305	0.6726	-0.291
Mof_C 	C 	0.2269	0.1438	0.7132	0.273
Mof_C 	C 	0.1874	0.1683	0.7471	-0.243
Mof_C 	C 	0.1304	0.1807	0.7319	0.116
Mof_C 	C 	0.8876	0.2687	0.672	0.332
Mof_C 	C 	0.8932	0.3329	0.6331	-0.119
Mof_C 	C 	0.9041	0.35	0.5742	0.042
Mof_C 	C 	0.9104	0.4099	0.5343	-0.102
Mof_C 	C 	0.9035	0.4569	0.5578	0.041
Mof_C 	C 	0.8903	0.439	0.6162	-0.108
Mof_C 	C 	0.8851	0.3771	0.654	0.038
Mof_C 	C 	0.9485	0.706	0.4049	0.299
Mof_C 	C 	0.935	0.642	0.4448	-0.096
Mof_C 	C 	0.9109	0.6261	0.5013	0.03
Mof_C 	C 	0.9034	0.5654	0.5382	-0.098
Mof_C 	C 	0.912	0.5196	0.5194	0.039
Mof_C 	C 	0.9325	0.5396	0.4612	-0.093
Mof_C 	C 	0.9448	0.6014	0.4228	0.028
Mof_C 	C 	0.9619	0.1002	0.643	0.458
Mof_C 	C 	0.9737	0.0675	0.6032	-0.17
Mof_C 	C 	0.9272	0.0467	0.5857	0.084
Mof_C 	C 	0.9386	0.0193	0.5457	-0.14
Mof_C 	C 	0.994	0.0137	0.5216	0.067
Mof_C 	C 	0.041	0.0361	0.5366	-0.139
Mof_C 	C 	0.03	0.0652	0.5745	0.087
Mof_C 	C 	0.954	0.121	0.7975	0.426
Mof_C 	C 	0.9677	0.0871	0.8564	-0.169
Mof_C 	C 	0.9267	0.0487	0.8983	0.083
Mof_C 	C 	0.9398	0.0164	0.9552	-0.137
Mof_C 	C 	0.9939	0.0188	0.9692	0.068
Mof_C 	C 	0.0314	0.0615	0.9314	-0.138
Mof_C 	C 	0.021	0.0924	0.8721	0.08
Mof_C 	C 	0.4379	0.8754	0.2371	0.186
Mof_C 	C 	0.6733	0.8891	0.2924	0.225
Mof_C 	C 	0.4992	0.8789	0.2517	-0.007
Mof_C 	C 	0.5085	0.9014	0.2924	-0.07
Mof_C 	C 	0.5648	0.8999	0.308	-0.004
Mof_C 	C 	0.6119	0.8759	0.2827	-0.061
Mof_C 	C 	0.6027	0.8533	0.242	-0.007
Mof_C 	C 	0.5464	0.8548	0.2264	-0.06
Mof_C 	C 	0.2319	0.8856	0.3121	0.162
Mof_C 	C 	0.2894	0.8954	0.3106	-0.262
Mof_C 	C 	0.33	0.88	0.2697	0.238
Mof_C 	C 	0.3074	0.8592	0.2333	-0.251
Mof_C 	C 	0.247	0.8514	0.239	0.141
Mof_C 	C 	0.8518	0.8643	0.3353	0.172
Mof_C 	C 	0.7921	0.8695	0.3274	-0.291
Mof_C 	C 	0.7731	0.8562	0.2868	0.273
Mof_C 	C 	0.8126	0.8317	0.2529	-0.243
Mof_C 	C 	0.8696	0.8193	0.2681	0.116
Mof_C 	C 	0.1124	0.7313	0.328	0.332
Mof_C 	C 	0.1068	0.6671	0.3669	-0.119
Mof_C 	C 	0.0959	0.65	0.4258	0.042
Mof_C 	C 	0.0896	0.5901	0.4657	-0.102
Mof_C 	C 	0.0965	0.5431	0.4422	0.041
Mof_C 	C 	0.1097	0.561	0.3838	-0.108
Mof_C 	C 	0.1149	0.6229	0.346	0.038
Mof_C 	C 	0.0515	0.294	0.5951	0.299
Mof_C 	C 	0.065	0.358	0.5552	-0.096
Mof_C 	C 	0.0891	0.3739	0.4987	0.03
Mof_C 	C 	0.0966	0.4346	0.4618	-0.098
Mof_C 	C 	0.088	0.4804	0.4806	0.039
Mof_C 	C 	0.0675	0.4604	0.5388	-0.093
Mof_C 	C 	0.0552	0.3986	0.5772	0.028
Mof_C 	C 	0.0381	0.8998	0.357	0.458
Mof_C 	C 	0.0263	0.9325	0.3968	-0.17
Mof_C 	C 	0.0728	0.9533	0.4143	0.084
Mof_C 	C 	0.0614	0.9807	0.4543	-0.14
Mof_C 	C 	0.006	0.9863	0.4784	0.067
Mof_C 	C 	0.959	0.9639	0.4634	-0.139
Mof_C 	C 	0.97	0.9348	0.4255	0.087
Mof_C 	C 	0.046	0.879	0.2025	0.426
Mof_C 	C 	0.0323	0.9129	0.1436	-0.169
Mof_C 	C 	0.0733	0.9513	0.1017	0.083
Mof_C 	C 	0.0602	0.9836	0.0448	-0.137
Mof_C 	C 	0.0061	0.9812	0.0308	0.068
Mof_C 	C 	0.9686	0.9385	0.0686	-0.138
Mof_C 	C 	0.979	0.9076	0.1279	0.08
Mof_N 	N 	0.6093	0.1088	0.7305	-0.256
Mof_N 	N 	0.7922	0.135	0.7216	-0.29
Mof_N 	N 	0.284	0.1429	0.7205	-0.283
Mof_N 	N 	0.1126	0.165	0.6896	-0.273
Mof_N 	N 	0.3907	0.8912	0.2695	-0.256
Mof_N 	N 	0.2078	0.865	0.2784	-0.29
Mof_N 	N 	0.716	0.8571	0.2795	-0.283
Mof_N 	N 	0.8874	0.835	0.3104	-0.273
Mof_O 	O 	0.5676	0.1489	0.7992	-0.216
Mof_O 	O 	0.3145	0.0704	0.6899	-0.227
Mof_O 	O 	0.9083	0.2295	0.6517	-0.496
Mof_O 	O 	0.8638	0.2509	0.7235	-0.339
Mof_O 	O 	0.9422	0.7486	0.4242	-0.353
Mof_O 	O 	0.9654	0.7214	0.3509	-0.411
Mof_O 	O 	0.9103	0.1028	0.6656	-0.503
Mof_O 	O 	0.0055	0.1253	0.6505	-0.518
Mof_O 	O 	0.9046	0.1111	0.7862	-0.497
Mof_O 	O 	0.9938	0.1578	0.7602	-0.497
Mof_O 	O 	0.4324	0.8511	0.2008	-0.216
Mof_O 	O 	0.6855	0.9296	0.3101	-0.227
Mof_O 	O 	0.0917	0.7705	0.3483	-0.496
Mof_O 	O 	0.1362	0.7491	0.2765	-0.339
Mof_O 	O 	0.0578	0.2514	0.5758	-0.353
Mof_O 	O 	0.0346	0.2786	0.6491	-0.411
Mof_O 	O 	0.0897	0.8972	0.3344	-0.503
Mof_O 	O 	0.9945	0.8747	0.3495	-0.518
Mof_O 	O 	0.0954	0.8889	0.2138	-0.497
Mof_O 	O 	0.0062	0.8422	0.2398	-0.497
Mof_Zn	Zn	0.22584	0.83647	0.49362	1.222
Mof_Zn	Zn	0.38063	0.86201	0.45902	1.218
Mof_Zn	Zn	0.28555	0.50152	0.10257	1.221
Mof_Zn	Zn	0.4387	0.52892	0.08272	1.228
Mof_H 	H 	0.9479	0.7696	0.4917	0.167
Mof_H 	H 	0.6654	0.8318	0.4848	0.142
Mof_H 	H 	0.0127	0.5942	0.0847	0.146
Mof_H 	H 	0.7222	0.6002	0.9944	0.162
Mof_H 	H 	0.8571	0.8261	0.4765	0.045
Mof_H 	H 	0.7585	0.8212	0.4631	0.035
Mof_H 	H 	0.7268	0.6821	0.6227	0.052
Mof_H 	H 	0.8223	0.6901	0.6341	0.057
Mof_H 	H 	0.1433	0.7918	0.4403	-0.043
Mof_H 	H 	0.0459	0.7719	0.4465	0.137
Mof_H 	H 	0.0133	0.8091	0.5903	0.143
Mof_H 	H 	0.1148	0.8304	0.5751	-0.021
Mof_H 	H 	0.5018	0.9206	0.4229	-0.027
Mof_H 	H 	0.5993	0.8999	0.4458	0.122
Mof_H 	H 	0.5512	0.7274	0.5323	0.153
Mof_H 	H 	0.453	0.7533	0.5138	-0.03
Mof_H 	H 	0.9203	0.621	0.9439	0.054
Mof_H 	H 	0.8171	0.6239	0.9623	0.061
Mof_H 	H 	0.8222	0.5544	0.1341	0.063
Mof_H 	H 	0.9255	0.5515	0.1158	0.038
Mof_H 	H 	0.1836	0.5542	0.1478	-0.037
Mof_H 	H 	0.0781	0.5721	0.1387	0.132
Mof_H 	H 	0.1103	0.5353	0.0001	0.192
Mof_H 	H 	0.2063	0.5091	0.0211	-0.058
Mof_H 	H 	0.5314	0.5564	0.1413	-0.018
Mof_H 	H 	0.634	0.5672	0.1309	0.154
Mof_H 	H 	0.6347	0.5938	0.9623	0.135
Mof_H 	H 	0.5329	0.5762	0.9834	-0.029
Mof_H 	H 	0.1986	0.0561	0.4558	0.016
Mof_H 	H 	0.2084	0.153	0.3889	0.085
Mof_H 	H 	0.268	0.0973	0.2617	0.08
Mof_H 	H 	0.2571	0.0006	0.3307	0.018
Mof_H 	H 	0.2827	0.3349	0.2512	0.043
Mof_H 	H 	0.2703	0.2373	0.3223	0.067
Mof_H 	H 	0.2214	0.1843	0.2064	0.063
Mof_H 	H 	0.2346	0.2829	0.1362	0.035
Mof_H 	H 	0.3667	0.0592	0.422	0.039
Mof_H 	H 	0.382	0.1651	0.3703	0.071
Mof_H 	H 	0.4441	0.137	0.2272	0.072
Mof_H 	H 	0.4313	0.0376	0.2747	0.026
Mof_H 	H 	0.4461	0.3531	0.274	0.041
Mof_H 	H 	0.4319	0.2521	0.3261	0.069
Mof_H 	H 	0.4058	0.2309	0.1818	0.064
Mof_H 	H 	0.413	0.3338	0.1317	0.038
Mof_H 	H 	0.2276	0.7243	0.4009	0.019
Mof_H 	H 	0.2363	0.6769	0.3391	0.069
Mof_H 	H 	0.4116	0.7091	0.3041	0.067
Mof_H 	H 	0.4014	0.7512	0.3727	0.024
Mof_H 	H 	0.4238	0.6183	0.1877	-0.022
Mof_H 	H 	0.4165	0.6651	0.2502	0.116
Mof_H 	H 	0.2459	0.6361	0.2794	0.116
Mof_H 	H 	0.251	0.5942	0.2154	-0.026
Mof_H 	H 	0.2297	0.7543	0.6788	0.027
Mof_H 	H 	0.2488	0.6938	0.7696	0.074
Mof_H 	H 	0.4222	0.702	0.7142	0.072
Mof_H 	H 	0.4035	0.7618	0.6188	0.027
Mof_H 	H 	0.2801	0.5598	0.9355	0.015
Mof_H 	H 	0.2685	0.6048	0.8388	0.085
Mof_H 	H 	0.4336	0.6794	0.8036	0.082
Mof_H 	H 	0.4463	0.6176	0.8996	0.016
Mof_C 	C 	0.9115	0.7657	0.5685	0.225
Mof_C 	C 	0.6681	0.7568	0.5333	0.249
Mof_C 	C 	0.8518	0.7598	0.5543	-0.044
Mof_C 	C 	0.8308	0.7977	0.5058	-0.033
Mof_C 	C 	0.7708	0.7961	0.4979	-0.028
Mof_C 	C 	0.7293	0.7553	0.5442	-0.063
Mof_C 	C 	0.752	0.7124	0.5942	-0.02
Mof_C 	C 	0.8092	0.7161	0.6	-0.041
Mof_C 	C 	0.1171	0.7953	0.4708	0.179
Mof_C 	C 	0.0587	0.7828	0.4743	-0.276
Mof_C 	C 	0.0179	0.7864	0.5201	0.244
Mof_C 	C 	0.0386	0.8051	0.5595	-0.244
Mof_C 	C 	0.1	0.8174	0.5497	0.136
Mof_C 	C 	0.5105	0.882	0.4478	0.137
Mof_C 	C 	0.5698	0.8694	0.4608	-0.25
Mof_C 	C 	0.5831	0.8105	0.4964	0.264
Mof_C 	C 	0.542	0.7676	0.5129	-0.277
Mof_C 	C 	0.4825	0.7836	0.5004	0.15
Mof_C 	C 	0.9999	0.5782	0.0231	0.241
Mof_C 	C 	0.7427	0.5927	0.0655	0.209
Mof_C 	C 	0.9332	0.586	0.028	-0.047
Mof_C 	C 	0.9007	0.6077	0.9821	-0.015
Mof_C 	C 	0.8388	0.6094	0.9931	-0.051
Mof_C 	C 	0.8094	0.5895	0.05	-0.026
Mof_C 	C 	0.8419	0.5678	0.096	-0.044
Mof_C 	C 	0.9038	0.566	0.085	-0.024
Mof_C 	C 	0.1683	0.5493	0.1179	0.166
Mof_C 	C 	0.1046	0.5629	0.1117	-0.29
Mof_C 	C 	0.0884	0.5605	0.0623	0.336
Mof_C 	C 	0.1228	0.5403	0.0311	-0.385
Mof_C 	C 	0.1816	0.525	0.0441	0.238
Mof_C 	C 	0.554	0.5598	0.1062	0.141
Mof_C 	C 	0.6146	0.5692	0.1005	-0.256
Mof_C 	C 	0.6438	0.582	0.0443	0.25
Mof_C 	C 	0.6145	0.5843	0.9998	-0.269
Mof_C 	C 	0.5537	0.5719	0.0136	0.159
Mof_C 	C 	0.2235	0.9568	0.4434	0.338
Mof_C 	C 	0.2298	0.0169	0.4013	-0.151
Mof_C 	C 	0.2134	0.0638	0.4171	0.072
Mof_C 	C 	0.2186	0.122	0.3764	-0.134
Mof_C 	C 	0.2384	0.1375	0.3171	0.068
Mof_C 	C 	0.2539	0.0902	0.3004	-0.135
Mof_C 	C 	0.248	0.032	0.3428	0.075
Mof_C 	C 	0.2653	0.3803	0.1412	0.302
Mof_C 	C 	0.2577	0.3171	0.1892	-0.084
Mof_C 	C 	0.2694	0.3042	0.2421	0.025
Mof_C 	C 	0.2625	0.2449	0.2851	-0.09
Mof_C 	C 	0.2445	0.199	0.273	0.029
Mof_C 	C 	0.2339	0.2145	0.2166	-0.086
Mof_C 	C 	0.2412	0.274	0.174	0.016
Mof_C 	C 	0.3924	0.9722	0.3853	0.299
Mof_C 	C 	0.4002	0.0375	0.3533	-0.101
Mof_C 	C 	0.383	0.0753	0.3828	0.03
Mof_C 	C 	0.3912	0.1395	0.351	-0.107
Mof_C 	C 	0.4117	0.1623	0.2945	0.052
Mof_C 	C 	0.4282	0.1213	0.2665	-0.116
Mof_C 	C 	0.4215	0.0625	0.2947	0.046
Mof_C 	C 	0.4353	0.4199	0.163	0.3
Mof_C 	C 	0.4294	0.3545	0.1989	-0.092
Mof_C 	C 	0.4363	0.3288	0.2557	0.026
Mof_C 	C 	0.4292	0.2679	0.2866	-0.097
Mof_C 	C 	0.418	0.228	0.2608	0.029
Mof_C 	C 	0.4127	0.2552	0.201	-0.09
Mof_C 	C 	0.4175	0.3169	0.1708	0.019
Mof_C 	C 	0.3096	0.7774	0.4289	0.419
Mof_C 	C 	0.3144	0.7424	0.3933	-0.16
Mof_C 	C 	0.2653	0.7202	0.3825	0.066
Mof_C 	C 	0.2708	0.6919	0.3449	-0.099
Mof_C 	C 	0.3243	0.6844	0.3151	0.003
Mof_C 	C 	0.3741	0.7099	0.3246	-0.092
Mof_C 	C 	0.3674	0.7368	0.3652	0.066
Mof_C 	C 	0.3491	0.5788	0.1475	0.512
Mof_C 	C 	0.3399	0.6034	0.1911	-0.287
Mof_C 	C 	0.3858	0.6231	0.2051	0.202
Mof_C 	C 	0.3816	0.6509	0.2443	-0.235
Mof_C 	C 	0.33	0.658	0.2736	0.155
Mof_C 	C 	0.2837	0.6342	0.2598	-0.238
Mof_C 	C 	0.2859	0.6085	0.2214	0.203
Mof_C 	C 	0.3012	0.8015	0.5784	0.424
Mof_C 	C 	0.3137	0.763	0.6375	-0.138
Mof_C 	C 	0.2687	0.743	0.6841	0.06
Mof_C 	C 	0.2806	0.7061	0.7391	-0.115
Mof_C 	C 	0.3371	0.6867	0.7512	0.046
Mof_C 	C 	0.3831	0.7101	0.7071	-0.11
Mof_C 	C 	0.3716	0.7476	0.6491	0.051
Mof_C 	C 	0.3727	0.5549	0.9888	0.436
Mof_C 	C 	0.364	0.5873	0.9261	-0.171
Mof_C 	C 	0.3115	0.5829	0.9082	0.092
Mof_C 	C 	0.3033	0.6116	0.8508	-0.142
Mof_C 	C 	0.3482	0.6508	0.8113	0.066
Mof_C 	C 	0.4024	0.6543	0.8294	-0.135
Mof_C 	C 	0.4092	0.6187	0.888	0.086
Mof_N 	N 	0.9575	0.7733	0.5216	-0.266
Mof_N 	N 	0.1399	0.8119	0.5065	-0.295
Mof_N 	N 	0.6423	0.8006	0.5044	-0.295
Mof_N 	N 	0.4682	0.8398	0.4706	-0.277
Mof_N 	N 	0.0292	0.5802	0.0598	-0.3
Mof_N 	N 	0.2021	0.5315	0.084	-0.316
Mof_N 	N 	0.7065	0.5929	0.0298	-0.269
Mof_N 	N 	0.5237	0.5548	0.0656	-0.295
Mof_O 	O 	0.9211	0.7601	0.6155	-0.236
Mof_O 	O 	0.6385	0.7067	0.5654	-0.23
Mof_O 	O 	0.0192	0.5716	0.9752	-0.225
Mof_O 	O 	0.7224	0.5858	0.1185	-0.224
Mof_O 	O 	0.2459	0.9135	0.4278	-0.467
Mof_O 	O 	0.2007	0.9413	0.4952	-0.338
Mof_O 	O 	0.2795	0.4209	0.1606	-0.441
Mof_O 	O 	0.2564	0.395	0.0905	-0.324
Mof_O 	O 	0.3779	0.9504	0.4415	-0.421
Mof_O 	O 	0.4042	0.9369	0.3594	-0.36
Mof_O 	O 	0.4241	0.4427	0.1115	-0.469
Mof_O 	O 	0.4498	0.4545	0.1878	-0.307
Mof_O 	O 	0.2587	0.7821	0.4558	-0.483
Mof_O 	O 	0.3561	0.8066	0.4278	-0.498
Mof_O 	O 	0.3039	0.5501	0.1453	-0.509
Mof_O 	O 	0.398	0.5782	0.1191	-0.539
Mof_O 	O 	0.2487	0.8035	0.5696	-0.505
Mof_O 	O 	0.3486	0.8237	0.5428	-0.502
Mof_O 	O 	0.3251	0.5299	0.0231	-0.517
Mof_O 	O 	0.421	0.5597	0.0043	-0.507
_end
