data_functionalizedCrystal
_audit_creation_method	'EQeq! by Chris Wilmer'
_symmetry_space_group_name_H-M	'P1'
_symmetry_Int_Tables_number	1
_symmetry_cell_setting	triclinic
loop_
_symmetry_equiv_pos_as_xyz
  x,y,z
_cell_length_a	7.3068
_cell_length_b	15.226
_cell_length_c	17.634
_cell_angle_alpha	90
_cell_angle_beta	90
_cell_angle_gamma	94.4477
loop_
_atom_site_label
_atom_site_type_symbol
_atom_site_fract_x
_atom_site_fract_y
_atom_site_fract_z
_atom_site_charge
Mof_Ba	Ba	0.7541	0.07911	0.04471	1.637
Mof_Ba	Ba	0.7459	0.42089	0.54471	1.661
Mof_Ba	Ba	0.2459	0.92089	0.95529	1.637
Mof_Ba	Ba	0.2541	0.57911	0.45529	1.661
Mof_H 	H 	0.8582	0.6273	0.8668	0.023
Mof_H 	H 	0.8407	0.7777	0.874	0.023
Mof_H 	H 	0.6268	0.7453	0.0857	0.025
Mof_H 	H 	0.555	0.6516	0.1755	0.055
Mof_H 	H 	0.541	0.3954	0.2358	0.051
Mof_H 	H 	0.6663	0.3632	0.1201	-0.004
Mof_H 	H 	0.6418	0.8727	0.3668	0.024
Mof_H 	H 	0.6593	0.7223	0.374	0.022
Mof_H 	H 	0.8732	0.7547	0.5857	0.025
Mof_H 	H 	0.945	0.8484	0.6755	0.058
Mof_H 	H 	0.959	0.1046	0.7358	0.054
Mof_H 	H 	0.8337	0.1368	0.6201	-0.005
Mof_H 	H 	0.1418	0.3727	0.1332	0.023
Mof_H 	H 	0.1593	0.2223	0.126	0.023
Mof_H 	H 	0.3732	0.2547	0.9143	0.025
Mof_H 	H 	0.445	0.3484	0.8245	0.055
Mof_H 	H 	0.459	0.6046	0.7642	0.051
Mof_H 	H 	0.3337	0.6368	0.8799	-0.004
Mof_H 	H 	0.3582	0.1273	0.6332	0.024
Mof_H 	H 	0.3407	0.2777	0.626	0.022
Mof_H 	H 	0.1268	0.2453	0.4143	0.025
Mof_H 	H 	0.055	0.1516	0.3245	0.058
Mof_H 	H 	0.041	0.8954	0.2642	0.054
Mof_H 	H 	0.1663	0.8632	0.3799	-0.005
Mof_Pt	Pt	0.78811	0.46491	0.97359	0.233
Mof_Pt	Pt	0.71189	0.03509	0.47359	0.228
Mof_Pt	Pt	0.21189	0.53509	0.02641	0.233
Mof_Pt	Pt	0.28811	0.96491	0.52641	0.228
Mof_C 	C 	0.8143	0.6521	0.9121	0.014
Mof_C 	C 	0.8029	0.7415	0.9159	-0.04
Mof_C 	C 	0.7359	0.7788	0.9812	-0.135
Mof_C 	C 	0.6787	0.7226	0.0411	-0.03
Mof_C 	C 	0.6994	0.6331	0.034	0.03
Mof_C 	C 	0.6483	0.5696	0.0953	0.052
Mof_C 	C 	0.5743	0.5919	0.1646	-0.074
Mof_C 	C 	0.5288	0.5266	0.2179	-0.033
Mof_C 	C 	0.5669	0.4413	0.2	-0.079
Mof_C 	C 	0.6418	0.4223	0.1308	0.054
Mof_C 	C 	0.7304	0.8757	0.991	0.37
Mof_C 	C 	0.4408	0.5465	0.2932	0.292
Mof_C 	C 	0.8846	0.4538	0.8716	-0.004
Mof_C 	C 	0.793	0.3376	0.9858	0.011
Mof_C 	C 	0.6857	0.8479	0.4121	0.014
Mof_C 	C 	0.6971	0.7585	0.4159	-0.039
Mof_C 	C 	0.7641	0.7212	0.4812	-0.135
Mof_C 	C 	0.8213	0.7774	0.5411	-0.033
Mof_C 	C 	0.8006	0.8669	0.534	0.03
Mof_C 	C 	0.8517	0.9304	0.5953	0.056
Mof_C 	C 	0.9257	0.9081	0.6646	-0.08
Mof_C 	C 	0.9712	0.9734	0.7179	-0.02
Mof_C 	C 	0.9331	0.0587	0.7	-0.087
Mof_C 	C 	0.8582	0.0777	0.6308	0.058
Mof_C 	C 	0.7696	0.6243	0.491	0.38
Mof_C 	C 	0.0592	0.9535	0.7932	0.272
Mof_C 	C 	0.6154	0.0462	0.3716	-0.005
Mof_C 	C 	0.707	0.1624	0.4858	0.01
Mof_C 	C 	0.1857	0.3479	0.0879	0.014
Mof_C 	C 	0.1971	0.2585	0.0841	-0.04
Mof_C 	C 	0.2641	0.2212	0.0188	-0.135
Mof_C 	C 	0.3213	0.2774	0.9589	-0.03
Mof_C 	C 	0.3006	0.3669	0.966	0.03
Mof_C 	C 	0.3517	0.4304	0.9047	0.052
Mof_C 	C 	0.4257	0.4081	0.8354	-0.074
Mof_C 	C 	0.4712	0.4734	0.7821	-0.033
Mof_C 	C 	0.4331	0.5587	0.8	-0.079
Mof_C 	C 	0.3582	0.5777	0.8692	0.054
Mof_C 	C 	0.2696	0.1243	0.009	0.37
Mof_C 	C 	0.5592	0.4535	0.7068	0.292
Mof_C 	C 	0.1154	0.5462	0.1284	-0.004
Mof_C 	C 	0.207	0.6624	0.0142	0.011
Mof_C 	C 	0.3143	0.1521	0.5879	0.014
Mof_C 	C 	0.3029	0.2415	0.5841	-0.039
Mof_C 	C 	0.2359	0.2788	0.5188	-0.135
Mof_C 	C 	0.1787	0.2226	0.4589	-0.033
Mof_C 	C 	0.1994	0.1331	0.466	0.03
Mof_C 	C 	0.1483	0.0696	0.4047	0.056
Mof_C 	C 	0.0743	0.0919	0.3354	-0.08
Mof_C 	C 	0.0288	0.0266	0.2821	-0.02
Mof_C 	C 	0.0669	0.9413	0.3	-0.087
Mof_C 	C 	0.1418	0.9223	0.3692	0.058
Mof_C 	C 	0.2304	0.3757	0.509	0.38
Mof_C 	C 	0.9408	0.0465	0.2068	0.272
Mof_C 	C 	0.3846	0.9538	0.6284	-0.005
Mof_C 	C 	0.293	0.8376	0.5142	0.01
Mof_N 	N 	0.7657	0.5984	0.9702	-0.139
Mof_N 	N 	0.6812	0.4837	0.0783	-0.149
Mof_N 	N 	0.9414	0.4496	0.811	-0.122
Mof_N 	N 	0.7903	0.2636	0.9984	-0.215
Mof_N 	N 	0.7343	0.9016	0.4702	-0.138
Mof_N 	N 	0.8188	0.0163	0.5783	-0.15
Mof_N 	N 	0.5586	0.0504	0.311	-0.123
Mof_N 	N 	0.7097	0.2364	0.4984	-0.219
Mof_N 	N 	0.2343	0.4016	0.0298	-0.139
Mof_N 	N 	0.3188	0.5163	0.9217	-0.149
Mof_N 	N 	0.0586	0.5504	0.189	-0.122
Mof_N 	N 	0.2097	0.7364	0.0016	-0.215
Mof_N 	N 	0.2657	0.0984	0.5298	-0.138
Mof_N 	N 	0.1812	0.9837	0.4217	-0.15
Mof_N 	N 	0.4414	0.9496	0.689	-0.123
Mof_N 	N 	0.2903	0.7636	0.5016	-0.219
Mof_O 	O 	0.873	0.9233	0.9741	-0.53
Mof_O 	O 	0.5862	0.9049	0.0171	-0.548
Mof_O 	O 	0.4146	0.6251	0.3084	-0.377
Mof_O 	O 	0.3947	0.4823	0.3357	-0.397
Mof_O 	O 	0.627	0.5767	0.4741	-0.536
Mof_O 	O 	0.9138	0.5951	0.5171	-0.561
Mof_O 	O 	0.0854	0.8749	0.8084	-0.374
Mof_O 	O 	0.1053	0.0177	0.8357	-0.381
Mof_O 	O 	0.127	0.0767	0.0259	-0.53
Mof_O 	O 	0.4138	0.0951	0.9829	-0.548
Mof_O 	O 	0.5854	0.3749	0.6916	-0.377
Mof_O 	O 	0.6053	0.5177	0.6643	-0.397
Mof_O 	O 	0.373	0.4233	0.5259	-0.536
Mof_O 	O 	0.0862	0.4049	0.4829	-0.561
Mof_O 	O 	0.9146	0.1251	0.1916	-0.374
Mof_O 	O 	0.8947	0.9823	0.1643	-0.381
_end
