data_functionalizedCrystal
_audit_creation_method	'EQeq! by Chris Wilmer'
_symmetry_space_group_name_H-M	'P1'
_symmetry_Int_Tables_number	1
_symmetry_cell_setting	triclinic
loop_
_symmetry_equiv_pos_as_xyz
  x,y,z
_cell_length_a	5.2351
_cell_length_b	18.9281
_cell_length_c	18.9281
_cell_angle_alpha	88.9042
_cell_angle_beta	82.0512
_cell_angle_gamma	82.0513
loop_
_atom_site_label
_atom_site_type_symbol
_atom_site_fract_x
_atom_site_fract_y
_atom_site_fract_z
_atom_site_charge
Mof_Zn	Zn	0.29866	0.51149	0.05905	1.218
Mof_Zn	Zn	0.8692	0.48851	0.94095	1.22
Mof_Zn	Zn	0.64229	0.05905	0.48851	1.22
Mof_Zn	Zn	0.18985	0.94095	0.51149	1.214
Mof_H 	H 	0.9593	0.5971	0.1877	0.006
Mof_H 	H 	0.6608	0.6324	0.0076	0.027
Mof_H 	H 	0.9897	0.7074	0.9512	0.04
Mof_H 	H 	0.1485	0.8156	0.9416	0.04
Mof_H 	H 	0.9489	0.912	0.0146	0.028
Mof_H 	H 	0.5944	0.901	0.0974	0.06
Mof_H 	H 	0.2827	0.8265	0.1617	0.076
Mof_H 	H 	0.905	0.6375	0.2989	0.111
Mof_H 	H 	0.7169	0.6921	0.4097	0.017
Mof_H 	H 	0.6289	0.8824	0.3094	-0.002
Mof_H 	H 	0.8384	0.8273	0.2023	0.101
Mof_H 	H 	0.7441	0.4029	0.8123	0.003
Mof_H 	H 	0.3008	0.3676	0.9924	0.026
Mof_H 	H 	0.6483	0.2926	0.0488	0.043
Mof_H 	H 	0.9057	0.1844	0.0584	0.038
Mof_H 	H 	0.8755	0.088	0.9854	0.031
Mof_H 	H 	0.5928	0.099	0.9026	0.059
Mof_H 	H 	0.2709	0.1735	0.8383	0.075
Mof_H 	H 	0.8414	0.3625	0.7011	0.112
Mof_H 	H 	0.8187	0.3079	0.5903	0.017
Mof_H 	H 	0.8207	0.1176	0.6906	-0.003
Mof_H 	H 	0.868	0.1727	0.7977	0.102
Mof_H 	H 	0.853	0.1877	0.4029	0.003
Mof_H 	H 	0.3316	0.0076	0.3676	0.031
Mof_H 	H 	0.0591	0.9512	0.2926	0.045
Mof_H 	H 	0.9099	0.9416	0.1844	0.047
Mof_H 	H 	0.0365	0.0146	0.088	0.024
Mof_H 	H 	0.3082	0.0974	0.099	0.06
Mof_H 	H 	0.5556	0.1617	0.1735	0.077
Mof_H 	H 	0.7961	0.2989	0.3625	0.108
Mof_H 	H 	0.8734	0.4097	0.3079	0.021
Mof_H 	H 	0.0617	0.3094	0.1176	0.002
Mof_H 	H 	0.9593	0.2023	0.1727	0.096
Mof_H 	H 	0.4436	0.8123	0.5971	0.002
Mof_H 	H 	0.7068	0.9924	0.6324	0.039
Mof_H 	H 	0.3029	0.0488	0.7074	0.053
Mof_H 	H 	0.0359	0.0584	0.8156	0.031
Mof_H 	H 	0.1391	0.9854	0.912	0.032
Mof_H 	H 	0.5046	0.9026	0.901	0.055
Mof_H 	H 	0.8908	0.8383	0.8265	0.071
Mof_H 	H 	0.4575	0.7011	0.6375	0.11
Mof_H 	H 	0.591	0.5903	0.6921	0.017
Mof_H 	H 	0.4887	0.6906	0.8824	-0.005
Mof_H 	H 	0.3343	0.7977	0.8273	0.099
Mof_C 	C 	0.07534	0.62713	0.16419	0.094
Mof_C 	C 	0.38017	0.6656	0.09026	0.038
Mof_C 	C 	0.58637	0.67147	0.03799	-0.112
Mof_C 	C 	0.683	0.73726	0.03114	0.02
Mof_C 	C 	0.9064	0.74607	0.98093	-0.06
Mof_C 	C 	0.00077	0.81001	0.97545	-0.048
Mof_C 	C 	0.88149	0.86777	0.01945	-0.008
Mof_C 	C 	0.67252	0.86126	0.0685	-0.097
Mof_C 	C 	0.56733	0.79516	0.07738	0.051
Mof_C 	C 	0.35934	0.78794	0.13098	-0.132
Mof_C 	C 	0.27093	0.72293	0.13721	0.083
Mof_C 	C 	0.92164	0.72954	0.24558	0.185
Mof_C 	C 	0.8622	0.6879	0.3025	-0.196
Mof_C 	C 	0.7368	0.7193	0.3671	0.099
Mof_C 	C 	0.63941	0.79396	0.36622	-0.177
Mof_C 	C 	0.686	0.8325	0.3083	0.113
Mof_C 	C 	0.81919	0.80037	0.24505	-0.201
Mof_C 	C 	0.4791	0.83	0.4318	0.405
Mof_C 	C 	0.86666	0.37287	0.83581	0.097
Mof_C 	C 	0.13603	0.3344	0.90974	0.04
Mof_C 	C 	0.29583	0.32853	0.96201	-0.113
Mof_C 	C 	0.4514	0.26274	0.96886	0.023
Mof_C 	C 	0.6334	0.25393	0.01907	-0.068
Mof_C 	C 	0.78623	0.18999	0.02455	-0.036
Mof_C 	C 	0.76871	0.13223	0.98055	-0.018
Mof_C 	C 	0.60228	0.13874	0.9315	-0.091
Mof_C 	C 	0.43987	0.20484	0.92262	0.047
Mof_C 	C 	0.27826	0.21206	0.86902	-0.129
Mof_C 	C 	0.13107	0.27707	0.86279	0.08
Mof_C 	C 	0.89676	0.27046	0.75442	0.184
Mof_C 	C 	0.8526	0.3121	0.6975	-0.196
Mof_C 	C 	0.8232	0.2807	0.6329	0.101
Mof_C 	C 	0.79959	0.20604	0.63378	-0.179
Mof_C 	C 	0.8268	0.1675	0.6917	0.115
Mof_C 	C 	0.86461	0.19963	0.75495	-0.201
Mof_C 	C 	0.7409	0.17	0.5682	0.41
Mof_C 	C 	0.76047	0.16419	0.37287	0.097
Mof_C 	C 	0.52957	0.09026	0.3344	0.041
Mof_C 	C 	0.37564	0.03799	0.32853	-0.112
Mof_C 	C 	0.28586	0.03114	0.26274	0.021
Mof_C 	C 	0.11267	0.98093	0.25393	-0.059
Mof_C 	C 	0.02378	0.97545	0.18999	-0.055
Mof_C 	C 	0.09906	0.01945	0.13223	-0.008
Mof_C 	C 	0.25898	0.0685	0.13874	-0.098
Mof_C 	C 	0.35529	0.07738	0.20484	0.05
Mof_C 	C 	0.50968	0.13098	0.21206	-0.131
Mof_C 	C 	0.59186	0.13721	0.27707	0.083
Mof_C 	C 	0.83278	0.24558	0.27046	0.174
Mof_C 	C 	0.8353	0.3025	0.3121	-0.185
Mof_C 	C 	0.8961	0.3671	0.2807	0.089
Mof_C 	C 	0.99437	0.36622	0.20604	-0.159
Mof_C 	C 	0.0057	0.3083	0.1675	0.088
Mof_C 	C 	0.93576	0.24505	0.19963	-0.184
Mof_C 	C 	0.0891	0.4318	0.17	0.4
Mof_C 	C 	0.29753	0.83581	0.62713	0.096
Mof_C 	C 	0.95423	0.90974	0.6656	0.063
Mof_C 	C 	0.74216	0.96201	0.67147	-0.129
Mof_C 	C 	0.57974	0.96886	0.73726	0.041
Mof_C 	C 	0.34753	0.01907	0.74607	-0.081
Mof_C 	C 	0.18922	0.02455	0.81001	-0.027
Mof_C 	C 	0.25074	0.98055	0.86777	-0.028
Mof_C 	C 	0.46622	0.9315	0.86126	-0.08
Mof_C 	C 	0.63751	0.92262	0.79516	0.034
Mof_C 	C 	0.85272	0.86902	0.78794	-0.108
Mof_C 	C 	0.00614	0.86279	0.72293	0.061
Mof_C 	C 	0.34882	0.75442	0.72954	0.181
Mof_C 	C 	0.4499	0.6975	0.6879	-0.194
Mof_C 	C 	0.5439	0.6329	0.7193	0.099
Mof_C 	C 	0.56663	0.63378	0.79396	-0.176
Mof_C 	C 	0.4815	0.6917	0.8325	0.112
Mof_C 	C 	0.38044	0.75495	0.80037	-0.201
Mof_C 	C 	0.6909	0.5682	0.83	0.409
Mof_N 	N 	0.25016	0.60678	0.1097	-0.272
Mof_N 	N 	0.07667	0.69613	0.18373	-0.163
Mof_N 	N 	0.96664	0.39322	0.8903	-0.271
Mof_N 	N 	0.95653	0.30387	0.81627	-0.16
Mof_N 	N 	0.64014	0.1097	0.39322	-0.271
Mof_N 	N 	0.7396	0.18373	0.30387	-0.16
Mof_N 	N 	0.14306	0.8903	0.60678	-0.279
Mof_N 	N 	0.2272	0.81627	0.69613	-0.158
Mof_O 	O 	0.1627	0.52511	0.97009	-0.663
Mof_O 	O 	0.46113	0.88818	0.44316	-0.544
Mof_O 	O 	0.4621	0.7818	0.488	-0.286
Mof_O 	O 	0.6579	0.47489	0.02991	-0.659
Mof_O 	O 	0.79247	0.11182	0.55684	-0.55
Mof_O 	O 	0.7319	0.2182	0.512	-0.286
Mof_O 	O 	0.86721	0.97009	0.47489	-0.651
Mof_O 	O 	0.09571	0.44316	0.11182	-0.536
Mof_O 	O 	0.0499	0.488	0.2182	-0.282
Mof_O 	O 	0.31219	0.02991	0.52511	-0.638
Mof_O 	O 	0.65069	0.55684	0.88818	-0.541
Mof_O 	O 	0.7561	0.512	0.7818	-0.281
Mof_H 	H 	0.6579	0.42205	0.03092	0.132
Mof_H 	H 	0.15642	0.07803	0.53015	0.113
Mof_H 	H 	0.1627	0.57795	0.96908	0.139
Mof_H 	H 	0.86721	0.91725	0.4759	0.123
_end
