data_functionalizedCrystal
_audit_creation_method	'EQeq! by Chris Wilmer'
_symmetry_space_group_name_H-M	'P1'
_symmetry_Int_Tables_number	1
_symmetry_cell_setting	triclinic
loop_
_symmetry_equiv_pos_as_xyz
  x,y,z
_cell_length_a	10.5851
_cell_length_b	10.7883
_cell_length_c	12.8727
_cell_angle_alpha	73.878
_cell_angle_beta	67.677
_cell_angle_gamma	81.16
loop_
_atom_site_label
_atom_site_type_symbol
_atom_site_fract_x
_atom_site_fract_y
_atom_site_fract_z
_atom_site_charge
Mof_Dy	Dy	0.06145	0.03411	0.31558	1.898
Mof_C 	C 	0.9673	0.2421	0.4913	0.497
Mof_C 	C 	0.037	0.2563	0.1522	0.302
Mof_C 	C 	0.7501	0.9798	0.5452	0.477
Mof_C 	C 	0.9847	0.3762	0.4929	-0.169
Mof_C 	C 	0.019	0.3825	0.0742	-0.116
Mof_C 	C 	0.6198	0.9899	0.5239	-0.172
Mof_C 	C 	0.0689	0.462	0.396	0.148
Mof_C 	C 	0.1282	0.4646	0.0119	0.127
Mof_C 	C 	0.4959	0.9549	0.6146	0.148
Mof_C 	C 	0.9168	0.4162	0.5954	-0.066
Mof_H 	H 	0.8605	0.3597	0.6594	0.037
Mof_C 	C 	0.8918	0.4186	0.0617	-0.075
Mof_H 	H 	0.8199	0.3641	0.103	0.059
Mof_C 	C 	0.622	0.0348	0.4106	-0.058
Mof_H 	H 	0.7042	0.0584	0.3508	0.041
Mof_N 	N 	0.1386	0.4309	0.29271	-0.328
Mof_H 	H 	0.1894	0.4862	0.2356	0.143
Mof_H 	H 	0.1319	0.356	0.2845	0.185
Mof_N 	N 	0.254	0.4351	0.0189	-0.323
Mof_H 	H 	0.3182	0.4877	0.9787	0.136
Mof_H 	H 	0.2699	0.3637	0.0636	0.165
Mof_N 	N 	0.4859	0.91	0.72661	-0.322
Mof_H 	H 	0.408	0.8889	0.7795	0.133
Mof_H 	H 	0.5574	0.9026	0.7448	0.164
Mof_O 	O 	0.0204	0.21249	0.39423	-0.503
Mof_O 	O 	0.1534	0.22296	0.16249	-0.451
Mof_O 	O 	0.86011	0.00018	0.46072	-0.557
Mof_O 	O 	0.9007	0.16798	0.58451	-0.555
Mof_O 	O 	0.9378	0.18387	0.20915	-0.443
Mof_O 	O 	0.7433	0.95087	0.65014	-0.521
Mof_Dy	Dy	0.93855	0.96589	0.68442	1.897
Mof_C 	C 	0.0327	0.7579	0.5087	0.496
Mof_C 	C 	0.963	0.7437	0.8478	0.302
Mof_C 	C 	0.2499	0.0202	0.4548	0.477
Mof_C 	C 	0.0153	0.6238	0.5071	-0.169
Mof_C 	C 	0.981	0.6175	0.9258	-0.116
Mof_C 	C 	0.3802	0.0101	0.4761	-0.172
Mof_C 	C 	0.9311	0.538	0.604	0.148
Mof_C 	C 	0.8718	0.5354	0.9881	0.127
Mof_C 	C 	0.5041	0.0451	0.3854	0.148
Mof_C 	C 	0.0832	0.5838	0.4046	-0.066
Mof_H 	H 	0.1395	0.6403	0.3406	0.037
Mof_C 	C 	0.1082	0.5814	0.9383	-0.075
Mof_H 	H 	0.1801	0.6359	0.897	0.059
Mof_C 	C 	0.378	0.9652	0.5894	-0.058
Mof_H 	H 	0.2958	0.9416	0.6492	0.041
Mof_N 	N 	0.8614	0.5691	0.70729	-0.328
Mof_H 	H 	0.8106	0.5138	0.7644	0.143
Mof_H 	H 	0.8681	0.644	0.7155	0.185
Mof_N 	N 	0.746	0.5649	0.9811	-0.323
Mof_H 	H 	0.6818	0.5123	0.0213	0.136
Mof_H 	H 	0.7301	0.6363	0.9364	0.165
Mof_N 	N 	0.5141	0.09	0.27339	-0.322
Mof_H 	H 	0.592	0.1111	0.2205	0.133
Mof_H 	H 	0.4426	0.0974	0.2552	0.164
Mof_O 	O 	0.9796	0.78751	0.60577	-0.503
Mof_O 	O 	0.8466	0.77704	0.83751	-0.451
Mof_O 	O 	0.13989	0.99982	0.53928	-0.557
Mof_O 	O 	0.0993	0.83202	0.41549	-0.555
Mof_O 	O 	0.0622	0.81613	0.79085	-0.443
Mof_O 	O 	0.2567	0.04913	0.34986	-0.521
_end
