data_functionalizedCrystal
_audit_creation_method	'EQeq! by Chris Wilmer'
_symmetry_space_group_name_H-M	'P1'
_symmetry_Int_Tables_number	1
_symmetry_cell_setting	triclinic
loop_
_symmetry_equiv_pos_as_xyz
  x,y,z
_cell_length_a	7.8401
_cell_length_b	10.3176
_cell_length_c	15.8809
_cell_angle_alpha	90
_cell_angle_beta	90
_cell_angle_gamma	90
loop_
_atom_site_label
_atom_site_type_symbol
_atom_site_fract_x
_atom_site_fract_y
_atom_site_fract_z
_atom_site_charge
Mof_Mn	Mn	0.35574	0.02704	0.46966	0.834
Mof_O 	O 	0.8499	0.8593	0.92261	-0.332
Mof_O 	O 	0.9661	0.6638	0.91519	-0.328
Mof_O 	O 	0.9319	0.42267	0.01617	-0.296
Mof_O 	O 	0.6657	0.3647	0.04215	-0.216
Mof_N 	N 	0.3842	0.9241	0.34353	-0.18
Mof_N 	N 	0.6834	0.7991	0.06908	-0.15
Mof_N 	N 	0.6302	0.6076	0.12522	-0.194
Mof_H 	H 	0.5879	0.55	0.1583	0.135
Mof_C 	C 	0.4504	0.991	0.2794	0.095
Mof_H 	H 	0.4491	0.081	0.2824	0.018
Mof_C 	C 	0.5204	0.9339	0.20903	-0.124
Mof_H 	H 	0.5672	0.9846	0.1664	0.083
Mof_C 	C 	0.5203	0.7998	0.2025	0.041
Mof_C 	C 	0.4461	0.7301	0.26744	-0.122
Mof_H 	H 	0.44	0.6402	0.2647	0.08
Mof_C 	C 	0.3815	0.795	0.3361	0.08
Mof_H 	H 	0.3335	0.7467	0.3795	0.014
Mof_C 	C 	0.6069	0.7374	0.13149	0.116
Mof_C 	C 	0.7659	0.7046	0.02278	0.065
Mof_C 	C 	0.7322	0.5843	0.05765	-0.003
Mof_C 	C 	0.7816	0.4469	0.03549	0.322
Mof_C 	C 	0.8676	0.7443	0.94821	0.227
Mof_Mn	Mn	0.64426	0.97296	0.96966	0.713
Mof_O 	O 	0.1501	0.1407	0.42261	-0.349
Mof_O 	O 	0.0339	0.3362	0.41519	-0.341
Mof_O 	O 	0.0681	0.57733	0.51617	-0.353
Mof_O 	O 	0.3343	0.6353	0.54215	-0.248
Mof_N 	N 	0.6158	0.0759	0.84353	-0.178
Mof_N 	N 	0.3166	0.2009	0.56908	-0.162
Mof_N 	N 	0.3698	0.3924	0.62522	-0.199
Mof_H 	H 	0.4121	0.45	0.6583	0.131
Mof_C 	C 	0.5496	0.009	0.7794	0.054
Mof_H 	H 	0.5509	0.919	0.7824	0.038
Mof_C 	C 	0.4796	0.0661	0.70903	-0.099
Mof_H 	H 	0.4328	0.0154	0.6664	0.061
Mof_C 	C 	0.4797	0.2002	0.7025	0.025
Mof_C 	C 	0.5539	0.2699	0.76744	-0.115
Mof_H 	H 	0.56	0.3598	0.7647	0.072
Mof_C 	C 	0.6185	0.205	0.8361	0.069
Mof_H 	H 	0.6665	0.2533	0.8795	-0.005
Mof_C 	C 	0.3931	0.2626	0.63149	0.115
Mof_C 	C 	0.2341	0.2954	0.52278	-0.051
Mof_C 	C 	0.2678	0.4157	0.55765	0.007
Mof_C 	C 	0.2184	0.5531	0.53549	0.313
Mof_C 	C 	0.1324	0.2557	0.44821	0.345
Mof_Mn	Mn	0.85574	0.47296	0.46966	0.835
Mof_O 	O 	0.3499	0.6407	0.92261	-0.333
Mof_O 	O 	0.4661	0.8362	0.91519	-0.328
Mof_O 	O 	0.4319	0.07733	0.01617	-0.296
Mof_O 	O 	0.1657	0.1353	0.04215	-0.215
Mof_N 	N 	0.8842	0.5759	0.34353	-0.179
Mof_N 	N 	0.1834	0.7009	0.06908	-0.149
Mof_N 	N 	0.1302	0.8924	0.12522	-0.196
Mof_H 	H 	0.0879	0.95	0.1583	0.138
Mof_C 	C 	0.9504	0.509	0.2794	0.072
Mof_H 	H 	0.9491	0.419	0.2824	0.029
Mof_C 	C 	0.0204	0.5661	0.20903	-0.109
Mof_H 	H 	0.0672	0.5154	0.1664	0.077
Mof_C 	C 	0.0203	0.7002	0.2025	0.04
Mof_C 	C 	0.9461	0.7699	0.26744	-0.125
Mof_H 	H 	0.94	0.8598	0.2647	0.08
Mof_C 	C 	0.8815	0.705	0.3361	0.079
Mof_H 	H 	0.8335	0.7533	0.3795	0.013
Mof_C 	C 	0.1069	0.7626	0.13149	0.117
Mof_C 	C 	0.2659	0.7954	0.02278	0.065
Mof_C 	C 	0.2322	0.9157	0.05765	0.005
Mof_C 	C 	0.2816	0.0531	0.03549	0.315
Mof_C 	C 	0.3676	0.7557	0.94821	0.228
Mof_Mn	Mn	0.14426	0.52704	0.96966	0.707
Mof_O 	O 	0.6501	0.3593	0.42261	-0.349
Mof_O 	O 	0.5339	0.1638	0.41519	-0.344
Mof_O 	O 	0.5681	0.92267	0.51617	-0.353
Mof_O 	O 	0.8343	0.8647	0.54215	-0.25
Mof_N 	N 	0.1158	0.4241	0.84353	-0.179
Mof_N 	N 	0.8166	0.2991	0.56908	-0.163
Mof_N 	N 	0.8698	0.1076	0.62522	-0.197
Mof_H 	H 	0.9121	0.05	0.6583	0.128
Mof_C 	C 	0.0496	0.491	0.7794	0.071
Mof_H 	H 	0.0509	0.581	0.7824	0.029
Mof_C 	C 	0.9796	0.4339	0.70903	-0.11
Mof_H 	H 	0.9328	0.4846	0.6664	0.065
Mof_C 	C 	0.9797	0.2998	0.7025	0.026
Mof_C 	C 	0.0539	0.2301	0.76744	-0.114
Mof_H 	H 	0.06	0.1402	0.7647	0.071
Mof_C 	C 	0.1185	0.295	0.8361	0.07
Mof_H 	H 	0.1665	0.2467	0.8795	-0.005
Mof_C 	C 	0.8931	0.2374	0.63149	0.113
Mof_C 	C 	0.7341	0.2046	0.52278	-0.05
Mof_C 	C 	0.7678	0.0843	0.55765	-0.001
Mof_C 	C 	0.7184	0.9469	0.53549	0.32
Mof_C 	C 	0.6324	0.2443	0.44821	0.344
_end
