data_functionalizedCrystal
_audit_creation_method	'EQeq! by Chris Wilmer'
_symmetry_space_group_name_H-M	'P1'
_symmetry_Int_Tables_number	1
_symmetry_cell_setting	triclinic
loop_
_symmetry_equiv_pos_as_xyz
  x,y,z
_cell_length_a	8.4515
_cell_length_b	12.3972
_cell_length_c	12.568
_cell_angle_alpha	110.453
_cell_angle_beta	102.132
_cell_angle_gamma	109.619
loop_
_atom_site_label
_atom_site_type_symbol
_atom_site_fract_x
_atom_site_fract_y
_atom_site_fract_z
_atom_site_charge
Mof_Yb	Yb	0.70597	0.54147	0.40361	1.607
Mof_O 	O 	0.861	0.7339	0.3927	-0.387
Mof_O 	O 	0.0282	0.6717	0.4932	-0.43
Mof_C 	C 	0.0143	0.7489	0.45	0.301
Mof_C 	C 	0.1823	0.8529	0.4638	-0.066
Mof_C 	C 	0.1694	0.9521	0.4356	0.002
Mof_H 	H 	0.0551	0.9511	0.4081	0.048
Mof_C 	C 	0.323	0.0492	0.4484	-0.073
Mof_H 	H 	0.3149	0.1167	0.4318	0.067
Mof_C 	C 	0.4934	0.0494	0.4863	0.025
Mof_C 	C 	0.6534	0.1466	0.4969	-0.038
Mof_H 	H 	0.6464	0.2122	0.4764	0.051
Mof_O 	O 	0.5503	0.4915	0.201	-0.4
Mof_O 	O 	0.4408	0.5666	0.3389	-0.392
Mof_C 	C 	0.4301	0.5213	0.2275	0.305
Mof_C 	C 	0.2759	0.5035	0.1282	-0.061
Mof_C 	C 	0.2617	0.4449	0.0057	-0.002
Mof_H 	H 	0.3489	0.4167	0.9878	0.052
Mof_C 	C 	0.1234	0.4283	0.9124	-0.071
Mof_H 	H 	0.1149	0.3886	0.8303	0.055
Mof_C 	C 	0.9926	0.4705	0.9383	0.019
Mof_C 	C 	0.8493	0.4545	0.8442	-0.045
Mof_H 	H 	0.8386	0.4148	0.7616	0.048
Mof_O 	O 	0.7165	0.673	0.5784	-0.528
Mof_O 	O 	0.516	0.6585	0.6678	-0.519
Mof_C 	C 	0.6715	0.7086	0.6685	0.493
Mof_C 	C 	0.8179	0.821	0.7851	-0.148
Mof_C 	C 	0.9997	0.8658	0.7961	0.05
Mof_H 	H 	0.03	0.8283	0.7283	0.017
Mof_C 	C 	0.1319	0.9622	0.9032	-0.103
Mof_H 	H 	0.2546	0.9892	0.9103	0.064
Mof_C 	C 	0.0913	0.0235	0.0044	0.02
Mof_C 	C 	0.2265	0.127	0.1167	-0
Mof_H 	H 	0.3492	0.1608	0.1239	0.038
Mof_Yb	Yb	0.29403	0.45853	0.59639	1.608
Mof_O 	O 	0.139	0.2661	0.6073	-0.386
Mof_O 	O 	0.9718	0.3283	0.5068	-0.43
Mof_C 	C 	0.9857	0.2511	0.55	0.301
Mof_C 	C 	0.8177	0.1471	0.5362	-0.066
Mof_C 	C 	0.8306	0.0479	0.5644	0.002
Mof_H 	H 	0.9449	0.0489	0.5919	0.048
Mof_C 	C 	0.677	0.9508	0.5516	-0.073
Mof_H 	H 	0.6851	0.8833	0.5682	0.067
Mof_C 	C 	0.5066	0.9506	0.5137	0.025
Mof_C 	C 	0.3466	0.8534	0.5031	-0.038
Mof_H 	H 	0.3536	0.7878	0.5236	0.051
Mof_O 	O 	0.4497	0.5085	0.799	-0.4
Mof_O 	O 	0.5592	0.4334	0.6611	-0.392
Mof_C 	C 	0.5699	0.4787	0.7725	0.305
Mof_C 	C 	0.7241	0.4965	0.8718	-0.061
Mof_C 	C 	0.7383	0.5551	0.9943	-0.002
Mof_H 	H 	0.6511	0.5833	0.0122	0.052
Mof_C 	C 	0.8766	0.5717	0.0876	-0.071
Mof_H 	H 	0.8851	0.6114	0.1697	0.055
Mof_C 	C 	0.0074	0.5295	0.0617	0.019
Mof_C 	C 	0.1507	0.5455	0.1558	-0.045
Mof_H 	H 	0.1614	0.5852	0.2384	0.048
Mof_O 	O 	0.2835	0.327	0.4216	-0.528
Mof_O 	O 	0.484	0.3415	0.3322	-0.519
Mof_C 	C 	0.3285	0.2914	0.3315	0.493
Mof_C 	C 	0.1821	0.179	0.2149	-0.148
Mof_C 	C 	0.0003	0.1342	0.2039	0.05
Mof_H 	H 	0.97	0.1717	0.2717	0.017
Mof_C 	C 	0.8681	0.0378	0.0968	-0.103
Mof_H 	H 	0.7454	0.0108	0.0897	0.064
Mof_C 	C 	0.9087	0.9765	0.9956	0.02
Mof_C 	C 	0.7735	0.873	0.8833	-0
Mof_H 	H 	0.6508	0.8392	0.8761	0.038
_end
