data_functionalizedCrystal
_audit_creation_method	'EQeq! by Chris Wilmer'
_symmetry_space_group_name_H-M	'P1'
_symmetry_Int_Tables_number	1
_symmetry_cell_setting	triclinic
loop_
_symmetry_equiv_pos_as_xyz
  x,y,z
_cell_length_a	18.8613
_cell_length_b	9.0856
_cell_length_c	24.9485
_cell_angle_alpha	90
_cell_angle_beta	107.211
_cell_angle_gamma	90
loop_
_atom_site_label
_atom_site_type_symbol
_atom_site_fract_x
_atom_site_fract_y
_atom_site_fract_z
_atom_site_charge
Mof_Zn	Zn	0.08595	0.71637	0.27756	1.237
Mof_Zn	Zn	0.76804	0.7006	0.17503	1.233
Mof_Zn	Zn	0.24183	0.4709	0.50109	1.233
Mof_Zn	Zn	0.26333	0.95152	0.49397	1.231
Mof_Zn	Zn	0.27996	0.3242	0.17994	1.229
Mof_Zn	Zn	0.4062	0.71242	0.72133	1.239
Mof_P 	P 	0.92391	0.55999	0.24751	0.503
Mof_H 	H 	0.9147	0.632	0.285	-0.085
Mof_P 	P 	0.17763	0.46737	0.23952	0.462
Mof_H 	H 	0.117	0.407	0.2291	-0.084
Mof_P 	P 	0.15344	0.72775	0.41622	0.497
Mof_H 	H 	0.114	0.766	0.447	-0.062
Mof_P 	P 	0.68007	0.73951	0.04953	0.429
Mof_H 	H 	0.626	0.7505	0.075	-0.031
Mof_P 	P 	0.19024	0.18629	0.55246	0.447
Mof_H 	H 	0.137	0.1794	0.5763	-0.037
Mof_P 	P 	0.33993	0.70829	0.58622	0.489
Mof_H 	H 	0.401	0.64	0.58833	-0.058
Mof_P 	P 	0.43121	0.45306	0.25893	0.506
Mof_H 	H 	0.408	0.387	0.296	-0.066
Mof_P 	P 	0.6663	0.55947	0.2345	0.437
Mof_H 	H 	0.602	0.616	0.229	-0.069
Mof_O 	O 	0.9992	0.5977	0.2439	-0.459
Mof_O 	O 	0.8646	0.6083	0.1945	-0.45
Mof_O 	O 	0.9151	0.4006	0.2621	-0.435
Mof_O 	O 	0.1677	0.6284	0.2539	-0.4
Mof_O 	O 	0.203	0.4581	0.1873	-0.435
Mof_O 	O 	0.2299	0.3893	0.289	-0.479
Mof_O 	O 	0.104	0.7293	0.3576	-0.448
Mof_O 	O 	0.2143	0.8445	0.4253	-0.455
Mof_O 	O 	0.1817	0.5769	0.4355	-0.457
Mof_O 	O 	0.6736	0.8747	0.0126	-0.429
Mof_O 	O 	0.7533	0.7326	0.0954	-0.465
Mof_O 	O 	0.6648	0.5986	0.0146	-0.413
Mof_O 	O 	0.1849	0.0458	0.5184	-0.429
Mof_O 	O 	0.174	0.3204	0.5145	-0.422
Mof_O 	O 	0.2617	0.2017	0.5997	-0.463
Mof_O 	O 	0.2786	0.6002	0.565	-0.467
Mof_O 	O 	0.3445	0.75	0.6463	-0.441
Mof_O 	O 	0.3361	0.8395	0.5497	-0.454
Mof_O 	O 	0.5089	0.4073	0.2702	-0.481
Mof_O 	O 	0.4204	0.6135	0.2679	-0.445
Mof_O 	O 	0.3814	0.3961	0.2032	-0.46
Mof_O 	O 	0.6852	0.5823	0.1802	-0.436
Mof_O 	O 	0.6616	0.3931	0.2454	-0.393
Mof_O 	O 	0.7222	0.6336	0.284	-0.468
Mof_Zn	Zn	0.91405	0.21637	0.22244	1.238
Mof_Zn	Zn	0.23196	0.2006	0.32497	1.234
Mof_Zn	Zn	0.75817	0.9709	0.99891	1.233
Mof_Zn	Zn	0.73667	0.45152	0.00603	1.233
Mof_Zn	Zn	0.72004	0.8242	0.32006	1.23
Mof_Zn	Zn	0.5938	0.21242	0.77867	1.24
Mof_P 	P 	0.07609	0.05999	0.25249	0.503
Mof_H 	H 	0.0853	0.132	0.215	-0.085
Mof_P 	P 	0.82237	0.96737	0.26048	0.462
Mof_H 	H 	0.883	0.907	0.2709	-0.084
Mof_P 	P 	0.84656	0.22775	0.08378	0.497
Mof_H 	H 	0.886	0.266	0.053	-0.062
Mof_P 	P 	0.31993	0.23951	0.45047	0.429
Mof_H 	H 	0.374	0.2505	0.425	-0.031
Mof_P 	P 	0.80976	0.68629	0.94754	0.447
Mof_H 	H 	0.863	0.6794	0.9237	-0.037
Mof_P 	P 	0.66007	0.20829	0.91378	0.489
Mof_H 	H 	0.599	0.14	0.91167	-0.057
Mof_P 	P 	0.56879	0.95306	0.24107	0.507
Mof_H 	H 	0.592	0.887	0.204	-0.066
Mof_P 	P 	0.3337	0.05947	0.2655	0.436
Mof_H 	H 	0.398	0.116	0.271	-0.069
Mof_O 	O 	0.0008	0.0977	0.2561	-0.46
Mof_O 	O 	0.1354	0.1083	0.3055	-0.45
Mof_O 	O 	0.0849	0.9006	0.2379	-0.434
Mof_O 	O 	0.8323	0.1284	0.2461	-0.401
Mof_O 	O 	0.797	0.9581	0.3127	-0.435
Mof_O 	O 	0.7701	0.8893	0.211	-0.479
Mof_O 	O 	0.896	0.2293	0.1424	-0.448
Mof_O 	O 	0.7857	0.3445	0.0747	-0.455
Mof_O 	O 	0.8183	0.0769	0.0645	-0.457
Mof_O 	O 	0.3264	0.3747	0.4874	-0.43
Mof_O 	O 	0.2467	0.2326	0.4046	-0.465
Mof_O 	O 	0.3352	0.0986	0.4854	-0.413
Mof_O 	O 	0.8151	0.5458	0.9816	-0.429
Mof_O 	O 	0.826	0.8204	0.9855	-0.423
Mof_O 	O 	0.7383	0.7017	0.9003	-0.463
Mof_O 	O 	0.7214	0.1002	0.935	-0.466
Mof_O 	O 	0.6555	0.25	0.8537	-0.441
Mof_O 	O 	0.6639	0.3395	0.9503	-0.454
Mof_O 	O 	0.4911	0.9073	0.2298	-0.48
Mof_O 	O 	0.5796	0.1135	0.2321	-0.446
Mof_O 	O 	0.6186	0.8961	0.2968	-0.46
Mof_O 	O 	0.3148	0.0823	0.3198	-0.436
Mof_O 	O 	0.3384	0.8931	0.2546	-0.393
Mof_O 	O 	0.2778	0.1336	0.216	-0.468
Mof_Zn	Zn	0.91405	0.28363	0.72244	1.238
Mof_Zn	Zn	0.23196	0.2994	0.82497	1.234
Mof_Zn	Zn	0.75817	0.5291	0.49891	1.234
Mof_Zn	Zn	0.73667	0.04848	0.50603	1.232
Mof_Zn	Zn	0.72004	0.6758	0.82006	1.23
Mof_Zn	Zn	0.5938	0.28758	0.27867	1.24
Mof_P 	P 	0.07609	0.44001	0.75249	0.503
Mof_H 	H 	0.0853	0.368	0.715	-0.085
Mof_P 	P 	0.82237	0.53263	0.76048	0.462
Mof_H 	H 	0.883	0.593	0.7709	-0.084
Mof_P 	P 	0.84656	0.27225	0.58378	0.497
Mof_H 	H 	0.886	0.234	0.553	-0.062
Mof_P 	P 	0.31993	0.26049	0.95047	0.429
Mof_H 	H 	0.374	0.2495	0.925	-0.031
Mof_P 	P 	0.80976	0.81371	0.44754	0.447
Mof_H 	H 	0.863	0.8206	0.4237	-0.037
Mof_P 	P 	0.66007	0.29171	0.41378	0.489
Mof_H 	H 	0.599	0.36	0.41167	-0.058
Mof_P 	P 	0.56879	0.54694	0.74107	0.506
Mof_H 	H 	0.592	0.613	0.704	-0.066
Mof_P 	P 	0.3337	0.44053	0.7655	0.437
Mof_H 	H 	0.398	0.384	0.771	-0.069
Mof_O 	O 	0.0008	0.4023	0.7561	-0.459
Mof_O 	O 	0.1354	0.3917	0.8055	-0.45
Mof_O 	O 	0.0849	0.5994	0.7379	-0.435
Mof_O 	O 	0.8323	0.3716	0.7461	-0.4
Mof_O 	O 	0.797	0.5419	0.8127	-0.435
Mof_O 	O 	0.7701	0.6107	0.711	-0.479
Mof_O 	O 	0.896	0.2707	0.6424	-0.448
Mof_O 	O 	0.7857	0.1555	0.5747	-0.455
Mof_O 	O 	0.8183	0.4231	0.5645	-0.457
Mof_O 	O 	0.3264	0.1253	0.9874	-0.429
Mof_O 	O 	0.2467	0.2674	0.9046	-0.465
Mof_O 	O 	0.3352	0.4014	0.9854	-0.413
Mof_O 	O 	0.8151	0.9542	0.4816	-0.429
Mof_O 	O 	0.826	0.6796	0.4855	-0.422
Mof_O 	O 	0.7383	0.7983	0.4003	-0.463
Mof_O 	O 	0.7214	0.3998	0.435	-0.467
Mof_O 	O 	0.6555	0.25	0.3537	-0.441
Mof_O 	O 	0.6639	0.1605	0.4503	-0.454
Mof_O 	O 	0.4911	0.5927	0.7298	-0.481
Mof_O 	O 	0.5796	0.3865	0.7321	-0.445
Mof_O 	O 	0.6186	0.6039	0.7968	-0.46
Mof_O 	O 	0.3148	0.4177	0.8198	-0.436
Mof_O 	O 	0.3384	0.6069	0.7546	-0.393
Mof_O 	O 	0.2778	0.3664	0.716	-0.468
Mof_Zn	Zn	0.08595	0.78363	0.77756	1.238
Mof_Zn	Zn	0.76804	0.7994	0.67503	1.234
Mof_Zn	Zn	0.24183	0.0291	0.00109	1.233
Mof_Zn	Zn	0.26333	0.54848	0.99397	1.233
Mof_Zn	Zn	0.27996	0.1758	0.67994	1.23
Mof_Zn	Zn	0.4062	0.78758	0.22133	1.24
Mof_P 	P 	0.92391	0.94001	0.74751	0.503
Mof_H 	H 	0.9147	0.868	0.785	-0.085
Mof_P 	P 	0.17763	0.03263	0.73952	0.462
Mof_H 	H 	0.117	0.093	0.7291	-0.084
Mof_P 	P 	0.15344	0.77225	0.91622	0.497
Mof_H 	H 	0.114	0.734	0.947	-0.062
Mof_P 	P 	0.68007	0.76049	0.54953	0.429
Mof_H 	H 	0.626	0.7495	0.575	-0.031
Mof_P 	P 	0.19024	0.31371	0.05246	0.447
Mof_H 	H 	0.137	0.3206	0.0763	-0.037
Mof_P 	P 	0.33993	0.79171	0.08622	0.489
Mof_H 	H 	0.401	0.86	0.08833	-0.057
Mof_P 	P 	0.43121	0.04694	0.75893	0.507
Mof_H 	H 	0.408	0.113	0.796	-0.066
Mof_P 	P 	0.6663	0.94053	0.7345	0.436
Mof_H 	H 	0.602	0.884	0.729	-0.069
Mof_O 	O 	0.9992	0.9023	0.7439	-0.46
Mof_O 	O 	0.8646	0.8917	0.6945	-0.45
Mof_O 	O 	0.9151	0.0994	0.7621	-0.434
Mof_O 	O 	0.1677	0.8716	0.7539	-0.401
Mof_O 	O 	0.203	0.0419	0.6873	-0.435
Mof_O 	O 	0.2299	0.1107	0.789	-0.479
Mof_O 	O 	0.104	0.7707	0.8576	-0.448
Mof_O 	O 	0.2143	0.6555	0.9253	-0.455
Mof_O 	O 	0.1817	0.9231	0.9355	-0.457
Mof_O 	O 	0.6736	0.6253	0.5126	-0.43
Mof_O 	O 	0.7533	0.7674	0.5954	-0.465
Mof_O 	O 	0.6648	0.9014	0.5146	-0.413
Mof_O 	O 	0.1849	0.4542	0.0184	-0.429
Mof_O 	O 	0.174	0.1796	0.0145	-0.423
Mof_O 	O 	0.2617	0.2983	0.0997	-0.463
Mof_O 	O 	0.2786	0.8998	0.065	-0.466
Mof_O 	O 	0.3445	0.75	0.1463	-0.441
Mof_O 	O 	0.3361	0.6605	0.0497	-0.454
Mof_O 	O 	0.5089	0.0927	0.7702	-0.48
Mof_O 	O 	0.4204	0.8865	0.7679	-0.446
Mof_O 	O 	0.3814	0.1039	0.7032	-0.46
Mof_O 	O 	0.6852	0.9177	0.6802	-0.436
Mof_O 	O 	0.6616	0.1069	0.7454	-0.393
Mof_O 	O 	0.7222	0.8664	0.784	-0.468
_end
