data_functionalizedCrystal
_audit_creation_method	'EQeq! by Chris Wilmer'
_symmetry_space_group_name_H-M	'P1'
_symmetry_Int_Tables_number	1
_symmetry_cell_setting	triclinic
loop_
_symmetry_equiv_pos_as_xyz
  x,y,z
_cell_length_a	13.8844
_cell_length_b	28.3579
_cell_length_c	44.8125
_cell_angle_alpha	90
_cell_angle_beta	90
_cell_angle_gamma	90
loop_
_atom_site_label
_atom_site_type_symbol
_atom_site_fract_x
_atom_site_fract_y
_atom_site_fract_z
_atom_site_charge
Mof_Zn	Zn	0.14332	0.05084	0.58176	1.162
Mof_Zn	Zn	0.12392	0.51978	0.58442	1.162
Mof_Zn	Zn	0.16759	0.24008	0.31651	1.164
Mof_Zn	Zn	0.85668	0.44916	0.08176	1.163
Mof_Zn	Zn	0.87608	0.98022	0.08442	1.163
Mof_Zn	Zn	0.83241	0.25992	0.81651	1.164
Mof_Zn	Zn	0.64332	0.94916	0.91824	1.163
Mof_Zn	Zn	0.62392	0.48022	0.91558	1.163
Mof_Zn	Zn	0.66759	0.75992	0.18349	1.164
Mof_Zn	Zn	0.35668	0.55084	0.41824	1.163
Mof_Zn	Zn	0.37608	0.01978	0.41558	1.163
Mof_Zn	Zn	0.33241	0.74008	0.68349	1.164
Mof_H 	H 	0.5179	0.0372	0.4655	-0.009
Mof_H 	H 	0.6707	0.0661	0.4725	0.095
Mof_H 	H 	0.528	0.073	0.3809	-0.011
Mof_H 	H 	0.6825	0.1019	0.3856	0.102
Mof_H 	H 	0.9602	0.2206	0.3325	-0.018
Mof_H 	H 	0.8705	0.1817	0.3685	0.085
Mof_H 	H 	0.2019	0.1813	0.3696	-0.01
Mof_H 	H 	0.1197	0.1422	0.4073	0.085
Mof_H 	H 	0.1967	0.0778	0.5184	-0.004
Mof_H 	H 	0.1219	0.0972	0.4741	0.077
Mof_H 	H 	0.9513	0.0332	0.5526	-0.013
Mof_H 	H 	0.8705	0.0531	0.5092	0.091
Mof_H 	H 	0.0666	0.0873	0.6398	-0.007
Mof_H 	H 	0.0391	0.1567	0.6645	0.077
Mof_H 	H 	0.1293	0.1556	0.5654	-0.013
Mof_H 	H 	0.0997	0.2276	0.5884	0.077
Mof_H 	H 	0.106	0.4163	0.5684	-0.012
Mof_H 	H 	0.0869	0.3437	0.5909	0.082
Mof_H 	H 	0.0627	0.4815	0.6445	-0.007
Mof_H 	H 	0.0402	0.4105	0.6687	0.08
Mof_H 	H 	0.8903	0.337	0.7746	-0.012
Mof_H 	H 	0.9513	0.3469	0.7275	0.082
Mof_H 	H 	0.943	0.2009	0.7725	-0
Mof_H 	H 	0.0029	0.2067	0.7239	0.08
Mof_H 	H 	0.4821	0.4628	0.9655	-0.009
Mof_H 	H 	0.3293	0.4339	0.9725	0.095
Mof_H 	H 	0.472	0.427	0.8809	-0.011
Mof_H 	H 	0.3175	0.3981	0.8856	0.102
Mof_H 	H 	0.0398	0.2794	0.8325	-0.018
Mof_H 	H 	0.1295	0.3183	0.8685	0.084
Mof_H 	H 	0.7981	0.3187	0.8696	-0.01
Mof_H 	H 	0.8803	0.3578	0.9073	0.085
Mof_H 	H 	0.8033	0.4222	0.0184	-0.004
Mof_H 	H 	0.8781	0.4028	0.9741	0.077
Mof_H 	H 	0.0487	0.4668	0.0526	-0.013
Mof_H 	H 	0.1295	0.4469	0.0092	0.09
Mof_H 	H 	0.9334	0.4127	0.1398	-0.007
Mof_H 	H 	0.9609	0.3433	0.1645	0.077
Mof_H 	H 	0.8707	0.3444	0.0654	-0.013
Mof_H 	H 	0.9003	0.2724	0.0884	0.077
Mof_H 	H 	0.894	0.0837	0.0684	-0.012
Mof_H 	H 	0.9131	0.1563	0.0909	0.082
Mof_H 	H 	0.9373	0.0185	0.1445	-0.007
Mof_H 	H 	0.9598	0.0895	0.1687	0.08
Mof_H 	H 	0.1097	0.163	0.2746	-0.012
Mof_H 	H 	0.0487	0.1531	0.2275	0.081
Mof_H 	H 	0.057	0.2991	0.2725	-0
Mof_H 	H 	0.9971	0.2933	0.2239	0.081
Mof_H 	H 	0.0179	0.9628	0.0345	-0.009
Mof_H 	H 	0.1707	0.9339	0.0275	0.095
Mof_H 	H 	0.028	0.927	0.1191	-0.01
Mof_H 	H 	0.1825	0.8981	0.1144	0.102
Mof_H 	H 	0.4602	0.7794	0.1675	-0.018
Mof_H 	H 	0.3705	0.8183	0.1315	0.085
Mof_H 	H 	0.7019	0.8187	0.1304	-0.011
Mof_H 	H 	0.6197	0.8578	0.0927	0.085
Mof_H 	H 	0.6967	0.9222	0.9816	-0.004
Mof_H 	H 	0.6219	0.9028	0.0259	0.077
Mof_H 	H 	0.4513	0.9668	0.9474	-0.013
Mof_H 	H 	0.3705	0.9469	0.9908	0.09
Mof_H 	H 	0.5666	0.9127	0.8602	-0.007
Mof_H 	H 	0.5391	0.8433	0.8355	0.077
Mof_H 	H 	0.6293	0.8444	0.9346	-0.013
Mof_H 	H 	0.5997	0.7724	0.9116	0.077
Mof_H 	H 	0.606	0.5837	0.9316	-0.012
Mof_H 	H 	0.5869	0.6563	0.9091	0.082
Mof_H 	H 	0.5627	0.5185	0.8555	-0.007
Mof_H 	H 	0.5402	0.5895	0.8313	0.08
Mof_H 	H 	0.3903	0.663	0.7254	-0.012
Mof_H 	H 	0.4513	0.6531	0.7725	0.081
Mof_H 	H 	0.443	0.7991	0.7275	-0.001
Mof_H 	H 	0.5029	0.7933	0.7761	0.082
Mof_H 	H 	0.9821	0.5372	0.5345	-0.009
Mof_H 	H 	0.8293	0.5661	0.5275	0.095
Mof_H 	H 	0.972	0.573	0.6191	-0.01
Mof_H 	H 	0.8175	0.6019	0.6144	0.102
Mof_H 	H 	0.5398	0.7206	0.6675	-0.018
Mof_H 	H 	0.6295	0.6817	0.6315	0.085
Mof_H 	H 	0.2981	0.6813	0.6304	-0.01
Mof_H 	H 	0.3803	0.6422	0.5927	0.085
Mof_H 	H 	0.3033	0.5778	0.4816	-0.004
Mof_H 	H 	0.3781	0.5972	0.5259	0.077
Mof_H 	H 	0.5487	0.5332	0.4474	-0.013
Mof_H 	H 	0.6295	0.5531	0.4908	0.09
Mof_H 	H 	0.4334	0.5873	0.3602	-0.007
Mof_H 	H 	0.4609	0.6567	0.3355	0.077
Mof_H 	H 	0.3707	0.6556	0.4346	-0.013
Mof_H 	H 	0.4003	0.7276	0.4116	0.077
Mof_H 	H 	0.394	0.9163	0.4316	-0.012
Mof_H 	H 	0.4131	0.8437	0.4091	0.082
Mof_H 	H 	0.4373	0.9815	0.3555	-0.007
Mof_H 	H 	0.4598	0.9105	0.3313	0.08
Mof_H 	H 	0.6097	0.837	0.2254	-0.012
Mof_H 	H 	0.5487	0.8469	0.2725	0.081
Mof_H 	H 	0.557	0.7009	0.2275	-0.001
Mof_H 	H 	0.4971	0.7067	0.2761	0.082
Mof_C 	C 	0.5517	0.0503	0.44898	0.085
Mof_C 	C 	0.6427	0.0669	0.45319	-0.14
Mof_C 	C 	0.5586	0.0712	0.39981	0.083
Mof_C 	C 	0.6502	0.0882	0.40216	-0.14
Mof_C 	C 	0.6938	0.0846	0.42985	0.067
Mof_C 	C 	0.7969	0.0988	0.43328	0.085
Mof_C 	C 	0.993	0.204	0.34782	0.084
Mof_C 	C 	0.9389	0.1811	0.36929	-0.13
Mof_C 	C 	0.1334	0.1813	0.36943	0.072
Mof_C 	C 	0.085	0.1579	0.39197	-0.116
Mof_C 	C 	0.9856	0.1576	0.39181	0.067
Mof_C 	C 	0.9327	0.132	0.41571	0.103
Mof_C 	C 	0.1291	0.0734	0.51669	0.066
Mof_C 	C 	0.0852	0.0852	0.4903	-0.116
Mof_C 	C 	0.9859	0.0475	0.5367	0.07
Mof_C 	C 	0.9376	0.0592	0.51084	-0.124
Mof_C 	C 	0.9857	0.0793	0.48758	0.054
Mof_C 	C 	0.9347	0.0946	0.46047	0.095
Mof_C 	C 	0.0744	0.1161	0.62932	0.051
Mof_C 	C 	0.0578	0.1574	0.64408	-0.108
Mof_C 	C 	0.1106	0.1559	0.58582	0.067
Mof_C 	C 	0.0938	0.1991	0.59939	-0.114
Mof_C 	C 	0.068	0.2	0.62962	0.047
Mof_C 	C 	0.0534	0.2445	0.64571	0.103
Mof_C 	C 	0.0944	0.4154	0.58926	0.083
Mof_C 	C 	0.0821	0.3717	0.60246	-0.122
Mof_C 	C 	0.0689	0.4531	0.6335	0.061
Mof_C 	C 	0.0551	0.4109	0.64803	-0.115
Mof_C 	C 	0.0629	0.3694	0.63265	0.058
Mof_C 	C 	0.0499	0.3235	0.64753	0.098
Mof_C 	C 	0.9132	0.3102	0.76406	0.07
Mof_C 	C 	0.9489	0.3164	0.73617	-0.121
Mof_C 	C 	0.9432	0.2308	0.76289	0.063
Mof_C 	C 	0.9799	0.234	0.73396	-0.113
Mof_C 	C 	0.9822	0.2769	0.72043	0.055
Mof_C 	C 	0.0143	0.281	0.68803	0.102
Mof_C 	C 	0.4483	0.4497	0.94898	0.085
Mof_C 	C 	0.3573	0.4331	0.95319	-0.14
Mof_C 	C 	0.4414	0.4288	0.89981	0.083
Mof_C 	C 	0.3498	0.4118	0.90216	-0.14
Mof_C 	C 	0.3062	0.4154	0.92985	0.067
Mof_C 	C 	0.2031	0.4012	0.93328	0.085
Mof_C 	C 	0.007	0.296	0.84782	0.083
Mof_C 	C 	0.0611	0.3189	0.86929	-0.129
Mof_C 	C 	0.8666	0.3187	0.86943	0.072
Mof_C 	C 	0.915	0.3421	0.89197	-0.115
Mof_C 	C 	0.0144	0.3424	0.89181	0.065
Mof_C 	C 	0.0673	0.368	0.91571	0.103
Mof_C 	C 	0.8709	0.4266	0.01669	0.065
Mof_C 	C 	0.9148	0.4148	0.9903	-0.114
Mof_C 	C 	0.0141	0.4525	0.0367	0.068
Mof_C 	C 	0.0624	0.4408	0.01084	-0.123
Mof_C 	C 	0.0143	0.4207	0.98758	0.052
Mof_C 	C 	0.0653	0.4054	0.96047	0.095
Mof_C 	C 	0.9256	0.3839	0.12932	0.051
Mof_C 	C 	0.9422	0.3426	0.14408	-0.108
Mof_C 	C 	0.8894	0.3441	0.08582	0.067
Mof_C 	C 	0.9062	0.3009	0.09939	-0.114
Mof_C 	C 	0.932	0.3	0.12962	0.047
Mof_C 	C 	0.9466	0.2555	0.14571	0.103
Mof_C 	C 	0.9056	0.0846	0.08926	0.083
Mof_C 	C 	0.9179	0.1283	0.10246	-0.122
Mof_C 	C 	0.9311	0.0469	0.1335	0.061
Mof_C 	C 	0.9449	0.0891	0.14803	-0.115
Mof_C 	C 	0.9371	0.1306	0.13265	0.058
Mof_C 	C 	0.9501	0.1765	0.14753	0.098
Mof_C 	C 	0.0868	0.1898	0.26406	0.07
Mof_C 	C 	0.0511	0.1836	0.23617	-0.121
Mof_C 	C 	0.0568	0.2692	0.26289	0.064
Mof_C 	C 	0.0201	0.266	0.23396	-0.114
Mof_C 	C 	0.0178	0.2231	0.22043	0.055
Mof_C 	C 	0.9857	0.219	0.18803	0.103
Mof_C 	C 	0.0517	0.9497	0.05102	0.085
Mof_C 	C 	0.1427	0.9331	0.04681	-0.14
Mof_C 	C 	0.0586	0.9288	0.10019	0.083
Mof_C 	C 	0.1502	0.9118	0.09784	-0.14
Mof_C 	C 	0.1938	0.9154	0.07015	0.067
Mof_C 	C 	0.2969	0.9012	0.06672	0.085
Mof_C 	C 	0.493	0.796	0.15218	0.085
Mof_C 	C 	0.4389	0.8189	0.13071	-0.13
Mof_C 	C 	0.6334	0.8187	0.13057	0.072
Mof_C 	C 	0.585	0.8421	0.10803	-0.117
Mof_C 	C 	0.4856	0.8424	0.10819	0.068
Mof_C 	C 	0.4327	0.868	0.08429	0.103
Mof_C 	C 	0.6291	0.9266	0.98331	0.065
Mof_C 	C 	0.5852	0.9148	0.0097	-0.114
Mof_C 	C 	0.4859	0.9525	0.9633	0.068
Mof_C 	C 	0.4376	0.9408	0.98916	-0.123
Mof_C 	C 	0.4857	0.9207	0.01242	0.053
Mof_C 	C 	0.4347	0.9054	0.03953	0.095
Mof_C 	C 	0.5744	0.8839	0.87068	0.051
Mof_C 	C 	0.5578	0.8426	0.85592	-0.108
Mof_C 	C 	0.6106	0.8441	0.91418	0.067
Mof_C 	C 	0.5938	0.8009	0.90061	-0.114
Mof_C 	C 	0.568	0.8	0.87038	0.047
Mof_C 	C 	0.5534	0.7555	0.85429	0.103
Mof_C 	C 	0.5944	0.5846	0.91074	0.084
Mof_C 	C 	0.5821	0.6283	0.89754	-0.122
Mof_C 	C 	0.5689	0.5469	0.8665	0.061
Mof_C 	C 	0.5551	0.5891	0.85197	-0.115
Mof_C 	C 	0.5629	0.6306	0.86735	0.058
Mof_C 	C 	0.5499	0.6765	0.85247	0.098
Mof_C 	C 	0.4132	0.6898	0.73594	0.07
Mof_C 	C 	0.4489	0.6836	0.76383	-0.121
Mof_C 	C 	0.4432	0.7692	0.73711	0.064
Mof_C 	C 	0.4799	0.766	0.76604	-0.116
Mof_C 	C 	0.4822	0.7231	0.77957	0.055
Mof_C 	C 	0.5143	0.719	0.81197	0.103
Mof_C 	C 	0.9483	0.5503	0.55102	0.085
Mof_C 	C 	0.8573	0.5669	0.54681	-0.14
Mof_C 	C 	0.9414	0.5712	0.60019	0.083
Mof_C 	C 	0.8498	0.5882	0.59784	-0.14
Mof_C 	C 	0.8062	0.5846	0.57015	0.067
Mof_C 	C 	0.7031	0.5988	0.56672	0.085
Mof_C 	C 	0.507	0.704	0.65218	0.085
Mof_C 	C 	0.5611	0.6811	0.63071	-0.13
Mof_C 	C 	0.3666	0.6813	0.63057	0.072
Mof_C 	C 	0.415	0.6579	0.60803	-0.117
Mof_C 	C 	0.5144	0.6576	0.60819	0.068
Mof_C 	C 	0.5673	0.632	0.58429	0.103
Mof_C 	C 	0.3709	0.5734	0.48331	0.065
Mof_C 	C 	0.4148	0.5852	0.5097	-0.114
Mof_C 	C 	0.5141	0.5475	0.4633	0.068
Mof_C 	C 	0.5624	0.5592	0.48916	-0.123
Mof_C 	C 	0.5143	0.5793	0.51242	0.053
Mof_C 	C 	0.5653	0.5946	0.53953	0.095
Mof_C 	C 	0.4256	0.6161	0.37068	0.051
Mof_C 	C 	0.4422	0.6574	0.35592	-0.108
Mof_C 	C 	0.3894	0.6559	0.41418	0.068
Mof_C 	C 	0.4062	0.6991	0.40061	-0.114
Mof_C 	C 	0.432	0.7	0.37038	0.047
Mof_C 	C 	0.4466	0.7445	0.35429	0.104
Mof_C 	C 	0.4056	0.9154	0.41074	0.084
Mof_C 	C 	0.4179	0.8717	0.39754	-0.122
Mof_C 	C 	0.4311	0.9531	0.3665	0.061
Mof_C 	C 	0.4449	0.9109	0.35197	-0.115
Mof_C 	C 	0.4371	0.8694	0.36735	0.058
Mof_C 	C 	0.4501	0.8235	0.35247	0.098
Mof_C 	C 	0.5868	0.8102	0.23594	0.07
Mof_C 	C 	0.5511	0.8164	0.26383	-0.122
Mof_C 	C 	0.5568	0.7308	0.23711	0.064
Mof_C 	C 	0.5201	0.734	0.26604	-0.116
Mof_C 	C 	0.5178	0.7769	0.27957	0.055
Mof_C 	C 	0.4857	0.781	0.31197	0.103
Mof_I 	I 	0.05581	0.98719	0.61117	-0.36
Mof_I 	I 	0.32531	0.05684	0.57654	-0.385
Mof_I 	I 	0.19454	0.50267	0.53266	-0.389
Mof_I 	I 	0.21712	0.56663	0.62299	-0.369
Mof_I 	I 	0.1697	0.32675	0.33159	-0.373
Mof_I 	I 	0.32777	0.19701	0.30944	-0.372
Mof_I 	I 	0.94419	0.51281	0.11117	-0.361
Mof_I 	I 	0.67469	0.44316	0.07654	-0.385
Mof_I 	I 	0.80546	0.99733	0.03266	-0.39
Mof_I 	I 	0.78288	0.93337	0.12299	-0.369
Mof_I 	I 	0.8303	0.17325	0.83159	-0.373
Mof_I 	I 	0.67223	0.30299	0.80944	-0.372
Mof_I 	I 	0.55581	0.01281	0.88883	-0.36
Mof_I 	I 	0.82531	0.94316	0.92346	-0.385
Mof_I 	I 	0.69454	0.49733	0.96734	-0.389
Mof_I 	I 	0.71712	0.43337	0.87701	-0.368
Mof_I 	I 	0.6697	0.67325	0.16841	-0.374
Mof_I 	I 	0.82777	0.80299	0.19056	-0.373
Mof_I 	I 	0.44419	0.48719	0.38883	-0.361
Mof_I 	I 	0.17469	0.55684	0.42346	-0.384
Mof_I 	I 	0.30546	0.00267	0.46734	-0.389
Mof_I 	I 	0.28288	0.06663	0.37701	-0.368
Mof_I 	I 	0.3303	0.82675	0.66841	-0.373
Mof_I 	I 	0.17223	0.69701	0.69056	-0.373
Mof_N 	N 	0.5086	0.052	0.42244	-0.275
Mof_N 	N 	0.0877	0.2038	0.34756	-0.278
Mof_N 	N 	0.0808	0.0559	0.54016	-0.273
Mof_N 	N 	0.8386	0.1243	0.41148	-0.13
Mof_N 	N 	0.9839	0.1188	0.4398	-0.136
Mof_N 	N 	0.8413	0.0835	0.45824	-0.142
Mof_N 	N 	0.1017	0.1146	0.6001	-0.269
Mof_N 	N 	0.0911	0.4557	0.60367	-0.272
Mof_N 	N 	0.9086	0.2679	0.77762	-0.274
Mof_N 	N 	0.0658	0.285	0.63114	-0.139
Mof_N 	N 	0.0247	0.3241	0.67673	-0.139
Mof_N 	N 	0.0275	0.24	0.67437	-0.141
Mof_N 	N 	0.4914	0.448	0.92244	-0.275
Mof_N 	N 	0.9123	0.2962	0.84756	-0.277
Mof_N 	N 	0.9192	0.4441	0.04016	-0.272
Mof_N 	N 	0.1614	0.3757	0.91148	-0.131
Mof_N 	N 	0.0161	0.3812	0.9398	-0.136
Mof_N 	N 	0.1587	0.4165	0.95824	-0.142
Mof_N 	N 	0.8983	0.3854	0.1001	-0.269
Mof_N 	N 	0.9089	0.0443	0.10367	-0.272
Mof_N 	N 	0.0914	0.2321	0.27762	-0.274
Mof_N 	N 	0.9342	0.215	0.13114	-0.139
Mof_N 	N 	0.9753	0.1759	0.17673	-0.139
Mof_N 	N 	0.9725	0.26	0.17437	-0.141
Mof_N 	N 	0.0086	0.948	0.07756	-0.274
Mof_N 	N 	0.5877	0.7962	0.15244	-0.278
Mof_N 	N 	0.5808	0.9441	0.95984	-0.272
Mof_N 	N 	0.3386	0.8757	0.08852	-0.13
Mof_N 	N 	0.4839	0.8812	0.0602	-0.136
Mof_N 	N 	0.3413	0.9165	0.04176	-0.142
Mof_N 	N 	0.6017	0.8854	0.8999	-0.269
Mof_N 	N 	0.5911	0.5443	0.89633	-0.272
Mof_N 	N 	0.4086	0.7321	0.72238	-0.274
Mof_N 	N 	0.5658	0.715	0.86886	-0.139
Mof_N 	N 	0.5247	0.6759	0.82327	-0.139
Mof_N 	N 	0.5275	0.76	0.82563	-0.141
Mof_N 	N 	0.9914	0.552	0.57756	-0.275
Mof_N 	N 	0.4123	0.7038	0.65244	-0.278
Mof_N 	N 	0.4192	0.5559	0.45984	-0.272
Mof_N 	N 	0.6614	0.6243	0.58852	-0.13
Mof_N 	N 	0.5161	0.6188	0.5602	-0.136
Mof_N 	N 	0.6587	0.5835	0.54176	-0.142
Mof_N 	N 	0.3983	0.6146	0.3999	-0.269
Mof_N 	N 	0.4089	0.9557	0.39633	-0.272
Mof_N 	N 	0.5914	0.7679	0.22238	-0.274
Mof_N 	N 	0.4342	0.785	0.36886	-0.139
Mof_N 	N 	0.4753	0.8241	0.32327	-0.139
Mof_N 	N 	0.4725	0.74	0.32563	-0.141
Mof_Zn	Zn	0.85668	0.94916	0.41824	1.163
Mof_Zn	Zn	0.87608	0.48022	0.41558	1.163
Mof_Zn	Zn	0.83241	0.75992	0.68349	1.164
Mof_Zn	Zn	0.14332	0.55084	0.91824	1.163
Mof_Zn	Zn	0.12392	0.01978	0.91558	1.163
Mof_Zn	Zn	0.16759	0.74008	0.18349	1.164
Mof_Zn	Zn	0.35668	0.05084	0.08176	1.163
Mof_Zn	Zn	0.37608	0.51978	0.08442	1.163
Mof_Zn	Zn	0.33241	0.24008	0.81651	1.164
Mof_Zn	Zn	0.64332	0.44916	0.58176	1.163
Mof_Zn	Zn	0.62392	0.98022	0.58442	1.163
Mof_Zn	Zn	0.66759	0.25992	0.31651	1.164
Mof_H 	H 	0.4821	0.9628	0.5345	-0.009
Mof_H 	H 	0.3293	0.9339	0.5275	0.095
Mof_H 	H 	0.472	0.927	0.6191	-0.011
Mof_H 	H 	0.3175	0.8981	0.6144	0.102
Mof_H 	H 	0.0398	0.7794	0.6675	-0.018
Mof_H 	H 	0.1295	0.8183	0.6315	0.085
Mof_H 	H 	0.7981	0.8187	0.6304	-0.01
Mof_H 	H 	0.8803	0.8578	0.5927	0.085
Mof_H 	H 	0.8033	0.9222	0.4816	-0.004
Mof_H 	H 	0.8781	0.9028	0.5259	0.077
Mof_H 	H 	0.0487	0.9668	0.4474	-0.013
Mof_H 	H 	0.1295	0.9469	0.4908	0.091
Mof_H 	H 	0.9334	0.9127	0.3602	-0.007
Mof_H 	H 	0.9609	0.8433	0.3355	0.077
Mof_H 	H 	0.8707	0.8444	0.4346	-0.013
Mof_H 	H 	0.9003	0.7724	0.4116	0.077
Mof_H 	H 	0.894	0.5837	0.4316	-0.012
Mof_H 	H 	0.9131	0.6563	0.4091	0.082
Mof_H 	H 	0.9373	0.5185	0.3555	-0.007
Mof_H 	H 	0.9598	0.5895	0.3313	0.08
Mof_H 	H 	0.1097	0.663	0.2254	-0.012
Mof_H 	H 	0.0487	0.6531	0.2725	0.082
Mof_H 	H 	0.057	0.7991	0.2275	-0
Mof_H 	H 	0.9971	0.7933	0.2761	0.08
Mof_H 	H 	0.5179	0.5372	0.0345	-0.009
Mof_H 	H 	0.6707	0.5661	0.0275	0.095
Mof_H 	H 	0.528	0.573	0.1191	-0.011
Mof_H 	H 	0.6825	0.6019	0.1144	0.102
Mof_H 	H 	0.9602	0.7206	0.1675	-0.018
Mof_H 	H 	0.8705	0.6817	0.1315	0.084
Mof_H 	H 	0.2019	0.6813	0.1304	-0.01
Mof_H 	H 	0.1197	0.6422	0.0927	0.085
Mof_H 	H 	0.1967	0.5778	0.9816	-0.004
Mof_H 	H 	0.1219	0.5972	0.0259	0.077
Mof_H 	H 	0.9513	0.5332	0.9474	-0.013
Mof_H 	H 	0.8705	0.5531	0.9908	0.09
Mof_H 	H 	0.0666	0.5873	0.8602	-0.007
Mof_H 	H 	0.0391	0.6567	0.8355	0.077
Mof_H 	H 	0.1293	0.6556	0.9346	-0.013
Mof_H 	H 	0.0997	0.7276	0.9116	0.077
Mof_H 	H 	0.106	0.9163	0.9316	-0.012
Mof_H 	H 	0.0869	0.8437	0.9091	0.082
Mof_H 	H 	0.0627	0.9815	0.8555	-0.007
Mof_H 	H 	0.0402	0.9105	0.8313	0.08
Mof_H 	H 	0.8903	0.837	0.7254	-0.012
Mof_H 	H 	0.9513	0.8469	0.7725	0.081
Mof_H 	H 	0.943	0.7009	0.7275	-0
Mof_H 	H 	0.0029	0.7067	0.7761	0.081
Mof_H 	H 	0.9821	0.0372	0.9655	-0.009
Mof_H 	H 	0.8293	0.0661	0.9725	0.095
Mof_H 	H 	0.972	0.073	0.8809	-0.01
Mof_H 	H 	0.8175	0.1019	0.8856	0.102
Mof_H 	H 	0.5398	0.2206	0.8325	-0.018
Mof_H 	H 	0.6295	0.1817	0.8685	0.085
Mof_H 	H 	0.2981	0.1813	0.8696	-0.011
Mof_H 	H 	0.3803	0.1422	0.9073	0.085
Mof_H 	H 	0.3033	0.0778	0.0184	-0.004
Mof_H 	H 	0.3781	0.0972	0.9741	0.077
Mof_H 	H 	0.5487	0.0332	0.0526	-0.013
Mof_H 	H 	0.6295	0.0531	0.0092	0.09
Mof_H 	H 	0.4334	0.0873	0.1398	-0.007
Mof_H 	H 	0.4609	0.1567	0.1645	0.077
Mof_H 	H 	0.3707	0.1556	0.0654	-0.013
Mof_H 	H 	0.4003	0.2276	0.0884	0.077
Mof_H 	H 	0.394	0.4163	0.0684	-0.012
Mof_H 	H 	0.4131	0.3437	0.0909	0.082
Mof_H 	H 	0.4373	0.4815	0.1445	-0.007
Mof_H 	H 	0.4598	0.4105	0.1687	0.08
Mof_H 	H 	0.6097	0.337	0.2746	-0.012
Mof_H 	H 	0.5487	0.3469	0.2275	0.081
Mof_H 	H 	0.557	0.2009	0.2725	-0.001
Mof_H 	H 	0.4971	0.2067	0.2239	0.082
Mof_H 	H 	0.0179	0.4628	0.4655	-0.009
Mof_H 	H 	0.1707	0.4339	0.4725	0.095
Mof_H 	H 	0.028	0.427	0.3809	-0.01
Mof_H 	H 	0.1825	0.3981	0.3856	0.102
Mof_H 	H 	0.4602	0.2794	0.3325	-0.018
Mof_H 	H 	0.3705	0.3183	0.3685	0.085
Mof_H 	H 	0.7019	0.3187	0.3696	-0.01
Mof_H 	H 	0.6197	0.3578	0.4073	0.085
Mof_H 	H 	0.6967	0.4222	0.5184	-0.004
Mof_H 	H 	0.6219	0.4028	0.4741	0.077
Mof_H 	H 	0.4513	0.4668	0.5526	-0.013
Mof_H 	H 	0.3705	0.4469	0.5092	0.09
Mof_H 	H 	0.5666	0.4127	0.6398	-0.007
Mof_H 	H 	0.5391	0.3433	0.6645	0.077
Mof_H 	H 	0.6293	0.3444	0.5654	-0.013
Mof_H 	H 	0.5997	0.2724	0.5884	0.077
Mof_H 	H 	0.606	0.0837	0.5684	-0.012
Mof_H 	H 	0.5869	0.1563	0.5909	0.082
Mof_H 	H 	0.5627	0.0185	0.6445	-0.007
Mof_H 	H 	0.5402	0.0895	0.6687	0.08
Mof_H 	H 	0.3903	0.163	0.7746	-0.012
Mof_H 	H 	0.4513	0.1531	0.7275	0.081
Mof_H 	H 	0.443	0.2991	0.7725	-0.001
Mof_H 	H 	0.5029	0.2933	0.7239	0.082
Mof_C 	C 	0.4483	0.9497	0.55102	0.085
Mof_C 	C 	0.3573	0.9331	0.54681	-0.14
Mof_C 	C 	0.4414	0.9288	0.60019	0.083
Mof_C 	C 	0.3498	0.9118	0.59784	-0.14
Mof_C 	C 	0.3062	0.9154	0.57015	0.067
Mof_C 	C 	0.2031	0.9012	0.56672	0.085
Mof_C 	C 	0.007	0.796	0.65218	0.084
Mof_C 	C 	0.0611	0.8189	0.63071	-0.13
Mof_C 	C 	0.8666	0.8187	0.63057	0.072
Mof_C 	C 	0.915	0.8421	0.60803	-0.116
Mof_C 	C 	0.0144	0.8424	0.60819	0.067
Mof_C 	C 	0.0673	0.868	0.58429	0.103
Mof_C 	C 	0.8709	0.9266	0.48331	0.066
Mof_C 	C 	0.9148	0.9148	0.5097	-0.116
Mof_C 	C 	0.0141	0.9525	0.4633	0.07
Mof_C 	C 	0.0624	0.9408	0.48916	-0.124
Mof_C 	C 	0.0143	0.9207	0.51242	0.054
Mof_C 	C 	0.0653	0.9054	0.53953	0.095
Mof_C 	C 	0.9256	0.8839	0.37068	0.051
Mof_C 	C 	0.9422	0.8426	0.35592	-0.108
Mof_C 	C 	0.8894	0.8441	0.41418	0.067
Mof_C 	C 	0.9062	0.8009	0.40061	-0.114
Mof_C 	C 	0.932	0.8	0.37038	0.047
Mof_C 	C 	0.9466	0.7555	0.35429	0.103
Mof_C 	C 	0.9056	0.5846	0.41074	0.083
Mof_C 	C 	0.9179	0.6283	0.39754	-0.122
Mof_C 	C 	0.9311	0.5469	0.3665	0.061
Mof_C 	C 	0.9449	0.5891	0.35197	-0.115
Mof_C 	C 	0.9371	0.6306	0.36735	0.058
Mof_C 	C 	0.9501	0.6765	0.35247	0.098
Mof_C 	C 	0.0868	0.6898	0.23594	0.07
Mof_C 	C 	0.0511	0.6836	0.26383	-0.121
Mof_C 	C 	0.0568	0.7692	0.23711	0.063
Mof_C 	C 	0.0201	0.766	0.26604	-0.113
Mof_C 	C 	0.0178	0.7231	0.27957	0.055
Mof_C 	C 	0.9857	0.719	0.31197	0.102
Mof_C 	C 	0.5517	0.5503	0.05102	0.085
Mof_C 	C 	0.6427	0.5669	0.04681	-0.14
Mof_C 	C 	0.5586	0.5712	0.10019	0.083
Mof_C 	C 	0.6502	0.5882	0.09784	-0.14
Mof_C 	C 	0.6938	0.5846	0.07015	0.067
Mof_C 	C 	0.7969	0.5988	0.06672	0.085
Mof_C 	C 	0.993	0.704	0.15218	0.083
Mof_C 	C 	0.9389	0.6811	0.13071	-0.129
Mof_C 	C 	0.1334	0.6813	0.13057	0.072
Mof_C 	C 	0.085	0.6579	0.10803	-0.115
Mof_C 	C 	0.9856	0.6576	0.10819	0.065
Mof_C 	C 	0.9327	0.632	0.08429	0.103
Mof_C 	C 	0.1291	0.5734	0.98331	0.065
Mof_C 	C 	0.0852	0.5852	0.0097	-0.114
Mof_C 	C 	0.9859	0.5475	0.9633	0.068
Mof_C 	C 	0.9376	0.5592	0.98916	-0.123
Mof_C 	C 	0.9857	0.5793	0.01242	0.052
Mof_C 	C 	0.9347	0.5946	0.03953	0.095
Mof_C 	C 	0.0744	0.6161	0.87068	0.051
Mof_C 	C 	0.0578	0.6574	0.85592	-0.108
Mof_C 	C 	0.1106	0.6559	0.91418	0.067
Mof_C 	C 	0.0938	0.6991	0.90061	-0.114
Mof_C 	C 	0.068	0.7	0.87038	0.047
Mof_C 	C 	0.0534	0.7445	0.85429	0.103
Mof_C 	C 	0.0944	0.9154	0.91074	0.083
Mof_C 	C 	0.0821	0.8717	0.89754	-0.122
Mof_C 	C 	0.0689	0.9531	0.8665	0.061
Mof_C 	C 	0.0551	0.9109	0.85197	-0.115
Mof_C 	C 	0.0629	0.8694	0.86735	0.058
Mof_C 	C 	0.0499	0.8235	0.85247	0.098
Mof_C 	C 	0.9132	0.8102	0.73594	0.07
Mof_C 	C 	0.9489	0.8164	0.76383	-0.121
Mof_C 	C 	0.9432	0.7308	0.73711	0.064
Mof_C 	C 	0.9799	0.734	0.76604	-0.114
Mof_C 	C 	0.9822	0.7769	0.77957	0.055
Mof_C 	C 	0.0143	0.781	0.81197	0.103
Mof_C 	C 	0.9483	0.0503	0.94898	0.085
Mof_C 	C 	0.8573	0.0669	0.95319	-0.14
Mof_C 	C 	0.9414	0.0712	0.89981	0.083
Mof_C 	C 	0.8498	0.0882	0.90216	-0.14
Mof_C 	C 	0.8062	0.0846	0.92985	0.067
Mof_C 	C 	0.7031	0.0988	0.93328	0.085
Mof_C 	C 	0.507	0.204	0.84782	0.085
Mof_C 	C 	0.5611	0.1811	0.86929	-0.13
Mof_C 	C 	0.3666	0.1813	0.86943	0.072
Mof_C 	C 	0.415	0.1579	0.89197	-0.117
Mof_C 	C 	0.5144	0.1576	0.89181	0.068
Mof_C 	C 	0.5673	0.132	0.91571	0.103
Mof_C 	C 	0.3709	0.0734	0.01669	0.065
Mof_C 	C 	0.4148	0.0852	0.9903	-0.114
Mof_C 	C 	0.5141	0.0475	0.0367	0.068
Mof_C 	C 	0.5624	0.0592	0.01084	-0.123
Mof_C 	C 	0.5143	0.0793	0.98758	0.053
Mof_C 	C 	0.5653	0.0946	0.96047	0.095
Mof_C 	C 	0.4256	0.1161	0.12932	0.051
Mof_C 	C 	0.4422	0.1574	0.14408	-0.108
Mof_C 	C 	0.3894	0.1559	0.08582	0.067
Mof_C 	C 	0.4062	0.1991	0.09939	-0.114
Mof_C 	C 	0.432	0.2	0.12962	0.047
Mof_C 	C 	0.4466	0.2445	0.14571	0.103
Mof_C 	C 	0.4056	0.4154	0.08926	0.084
Mof_C 	C 	0.4179	0.3717	0.10246	-0.122
Mof_C 	C 	0.4311	0.4531	0.1335	0.061
Mof_C 	C 	0.4449	0.4109	0.14803	-0.115
Mof_C 	C 	0.4371	0.3694	0.13265	0.058
Mof_C 	C 	0.4501	0.3235	0.14753	0.098
Mof_C 	C 	0.5868	0.3102	0.26406	0.07
Mof_C 	C 	0.5511	0.3164	0.23617	-0.121
Mof_C 	C 	0.5568	0.2308	0.26289	0.064
Mof_C 	C 	0.5201	0.234	0.23396	-0.116
Mof_C 	C 	0.5178	0.2769	0.22043	0.055
Mof_C 	C 	0.4857	0.281	0.18803	0.103
Mof_C 	C 	0.0517	0.4497	0.44898	0.085
Mof_C 	C 	0.1427	0.4331	0.45319	-0.14
Mof_C 	C 	0.0586	0.4288	0.39981	0.083
Mof_C 	C 	0.1502	0.4118	0.40216	-0.14
Mof_C 	C 	0.1938	0.4154	0.42985	0.067
Mof_C 	C 	0.2969	0.4012	0.43328	0.085
Mof_C 	C 	0.493	0.296	0.34782	0.085
Mof_C 	C 	0.4389	0.3189	0.36929	-0.13
Mof_C 	C 	0.6334	0.3187	0.36943	0.072
Mof_C 	C 	0.585	0.3421	0.39197	-0.117
Mof_C 	C 	0.4856	0.3424	0.39181	0.068
Mof_C 	C 	0.4327	0.368	0.41571	0.103
Mof_C 	C 	0.6291	0.4266	0.51669	0.065
Mof_C 	C 	0.5852	0.4148	0.4903	-0.114
Mof_C 	C 	0.4859	0.4525	0.5367	0.068
Mof_C 	C 	0.4376	0.4408	0.51084	-0.123
Mof_C 	C 	0.4857	0.4207	0.48758	0.053
Mof_C 	C 	0.4347	0.4054	0.46047	0.095
Mof_C 	C 	0.5744	0.3839	0.62932	0.051
Mof_C 	C 	0.5578	0.3426	0.64408	-0.108
Mof_C 	C 	0.6106	0.3441	0.58582	0.068
Mof_C 	C 	0.5938	0.3009	0.59939	-0.114
Mof_C 	C 	0.568	0.3	0.62962	0.047
Mof_C 	C 	0.5534	0.2555	0.64571	0.104
Mof_C 	C 	0.5944	0.0846	0.58926	0.084
Mof_C 	C 	0.5821	0.1283	0.60246	-0.122
Mof_C 	C 	0.5689	0.0469	0.6335	0.061
Mof_C 	C 	0.5551	0.0891	0.64803	-0.115
Mof_C 	C 	0.5629	0.1306	0.63265	0.058
Mof_C 	C 	0.5499	0.1765	0.64753	0.098
Mof_C 	C 	0.4132	0.1898	0.76406	0.07
Mof_C 	C 	0.4489	0.1836	0.73617	-0.122
Mof_C 	C 	0.4432	0.2692	0.76289	0.064
Mof_C 	C 	0.4799	0.266	0.73396	-0.116
Mof_C 	C 	0.4822	0.2231	0.72043	0.055
Mof_C 	C 	0.5143	0.219	0.68803	0.103
Mof_I 	I 	0.94419	0.01281	0.38883	-0.36
Mof_I 	I 	0.67469	0.94316	0.42346	-0.385
Mof_I 	I 	0.80546	0.49733	0.46734	-0.389
Mof_I 	I 	0.78288	0.43337	0.37701	-0.369
Mof_I 	I 	0.8303	0.67325	0.66841	-0.373
Mof_I 	I 	0.67223	0.80299	0.69056	-0.372
Mof_I 	I 	0.05581	0.48719	0.88883	-0.361
Mof_I 	I 	0.32531	0.55684	0.92346	-0.385
Mof_I 	I 	0.19454	0.00267	0.96734	-0.39
Mof_I 	I 	0.21712	0.06663	0.87701	-0.369
Mof_I 	I 	0.1697	0.82675	0.16841	-0.373
Mof_I 	I 	0.32777	0.69701	0.19056	-0.372
Mof_I 	I 	0.44419	0.98719	0.11117	-0.36
Mof_I 	I 	0.17469	0.05684	0.07654	-0.385
Mof_I 	I 	0.30546	0.50267	0.03266	-0.389
Mof_I 	I 	0.28288	0.56663	0.12299	-0.368
Mof_I 	I 	0.3303	0.32675	0.83159	-0.374
Mof_I 	I 	0.17223	0.19701	0.80944	-0.373
Mof_I 	I 	0.55581	0.51281	0.61117	-0.361
Mof_I 	I 	0.82531	0.44316	0.57654	-0.384
Mof_I 	I 	0.69454	0.99733	0.53266	-0.389
Mof_I 	I 	0.71712	0.93337	0.62299	-0.368
Mof_I 	I 	0.6697	0.17325	0.33159	-0.373
Mof_I 	I 	0.82777	0.30299	0.30944	-0.373
Mof_N 	N 	0.4914	0.948	0.57756	-0.275
Mof_N 	N 	0.9123	0.7962	0.65244	-0.278
Mof_N 	N 	0.9192	0.9441	0.45984	-0.273
Mof_N 	N 	0.1614	0.8757	0.58852	-0.13
Mof_N 	N 	0.0161	0.8812	0.5602	-0.136
Mof_N 	N 	0.1587	0.9165	0.54176	-0.142
Mof_N 	N 	0.8983	0.8854	0.3999	-0.269
Mof_N 	N 	0.9089	0.5443	0.39633	-0.272
Mof_N 	N 	0.0914	0.7321	0.22238	-0.274
Mof_N 	N 	0.9342	0.715	0.36886	-0.139
Mof_N 	N 	0.9753	0.6759	0.32327	-0.139
Mof_N 	N 	0.9725	0.76	0.32563	-0.141
Mof_N 	N 	0.5086	0.552	0.07756	-0.275
Mof_N 	N 	0.0877	0.7038	0.15244	-0.277
Mof_N 	N 	0.0808	0.5559	0.95984	-0.272
Mof_N 	N 	0.8386	0.6243	0.08852	-0.131
Mof_N 	N 	0.9839	0.6188	0.0602	-0.136
Mof_N 	N 	0.8413	0.5835	0.04176	-0.142
Mof_N 	N 	0.1017	0.6146	0.8999	-0.269
Mof_N 	N 	0.0911	0.9557	0.89633	-0.272
Mof_N 	N 	0.9086	0.7679	0.72238	-0.274
Mof_N 	N 	0.0658	0.785	0.86886	-0.139
Mof_N 	N 	0.0247	0.8241	0.82327	-0.139
Mof_N 	N 	0.0275	0.74	0.82563	-0.141
Mof_N 	N 	0.9914	0.052	0.92244	-0.274
Mof_N 	N 	0.4123	0.2038	0.84756	-0.278
Mof_N 	N 	0.4192	0.0559	0.04016	-0.272
Mof_N 	N 	0.6614	0.1243	0.91148	-0.13
Mof_N 	N 	0.5161	0.1188	0.9398	-0.136
Mof_N 	N 	0.6587	0.0835	0.95824	-0.142
Mof_N 	N 	0.3983	0.1146	0.1001	-0.269
Mof_N 	N 	0.4089	0.4557	0.10367	-0.272
Mof_N 	N 	0.5914	0.2679	0.27762	-0.274
Mof_N 	N 	0.4342	0.285	0.13114	-0.139
Mof_N 	N 	0.4753	0.3241	0.17673	-0.139
Mof_N 	N 	0.4725	0.24	0.17437	-0.141
Mof_N 	N 	0.0086	0.448	0.42244	-0.275
Mof_N 	N 	0.5877	0.2962	0.34756	-0.278
Mof_N 	N 	0.5808	0.4441	0.54016	-0.272
Mof_N 	N 	0.3386	0.3757	0.41148	-0.13
Mof_N 	N 	0.4839	0.3812	0.4398	-0.136
Mof_N 	N 	0.3413	0.4165	0.45824	-0.142
Mof_N 	N 	0.6017	0.3854	0.6001	-0.269
Mof_N 	N 	0.5911	0.0443	0.60367	-0.272
Mof_N 	N 	0.4086	0.2321	0.77762	-0.274
Mof_N 	N 	0.5658	0.215	0.63114	-0.139
Mof_N 	N 	0.5247	0.1759	0.67673	-0.139
Mof_N 	N 	0.5275	0.26	0.67437	-0.141
_end
