data_functionalizedCrystal
_audit_creation_method	'EQeq! by Chris Wilmer'
_symmetry_space_group_name_H-M	'P1'
_symmetry_Int_Tables_number	1
_symmetry_cell_setting	triclinic
loop_
_symmetry_equiv_pos_as_xyz
  x,y,z
_cell_length_a	16.646
_cell_length_b	29.783
_cell_length_c	17.274
_cell_angle_alpha	90
_cell_angle_beta	90
_cell_angle_gamma	90
loop_
_atom_site_label
_atom_site_type_symbol
_atom_site_fract_x
_atom_site_fract_y
_atom_site_fract_z
_atom_site_charge
Mof_Cd	Cd	0.49583	0.24983	0.88406	0.454
Mof_Cd	Cd	0.24955	0.00356	0.13423	0.435
Mof_Cd	Cd	0.27687	0.24561	0.73511	0.447
Mof_N 	N 	0.4916	0.1937	0.7891	-0.111
Mof_O 	O 	0.3444	0.2545	0.8464	-0.301
Mof_C 	C 	0.0083	0.1514	0.1921	0.112
Mof_N 	N 	0.0344	0.1701	0.0599	-0.117
Mof_C 	C 	0.4731	0.1381	0.8897	0.031
Mof_N 	N 	0.0069	0.1945	0.211	-0.107
Mof_C 	C 	0.0481	0.1569	0.9865	0.023
Mof_H 	H 	0.0558	0.1786	0.9484	0.049
Mof_N 	N 	0.4589	0.1703	0.9384	-0.1
Mof_C 	C 	0.4705	0.094	0.9105	0.008
Mof_H 	H 	0.4794	0.0726	0.8721	0.037
Mof_O 	O 	0.0923	0.265	0.0156	-0.283
Mof_C 	C 	0.2456	0.268	0.9451	-0.164
Mof_H 	H 	0.221	0.2934	0.9192	0.094
Mof_H 	H 	0.2161	0.2413	0.9298	0.104
Mof_O 	O 	0.3888	0.2682	0.9626	-0.262
Mof_O 	O 	0.3517	0.0218	0.2231	-0.289
Mof_O 	O 	0.1483	0.9884	0.2231	-0.278
Mof_N 	N 	0.2451	0.0554	0.0329	-0.111
Mof_C 	C 	0.3297	0.2635	0.9166	0.313
Mof_C 	C 	0.1539	0.2659	0.0582	0.348
Mof_C 	C 	0.2593	0.0977	0.9311	0.107
Mof_N 	N 	0.2137	0.0828	0.1841	-0.112
Mof_N 	N 	0.2556	0.0538	0.955	-0.1
Mof_O 	O 	0.142	0.2613	0.1306	-0.313
Mof_N 	N 	0.2096	0.1741	0.2202	-0.113
Mof_O 	O 	0.3997	0.0075	0.1055	-0.313
Mof_N 	N 	0.2494	0.1274	0.9893	-0.119
Mof_C 	C 	0.2739	0.1101	0.8509	0.025
Mof_C 	C 	0.2244	0.1604	0.1485	0.013
Mof_H 	H 	0.2348	0.1816	0.1103	0.044
Mof_C 	C 	0.0214	0.1383	0.1102	0.027
Mof_C 	C 	0.2396	0.0994	0.052	0.089
Mof_C 	C 	0.2247	0.1158	0.1292	0.025
Mof_C 	C 	0.1976	0.1416	0.275	0.002
Mof_H 	H 	0.1875	0.1498	0.326	0.039
Mof_C 	C 	0.0234	0.0934	0.089	0.005
Mof_H 	H 	0.0145	0.072	0.1272	0.036
Mof_N 	N 	0.0373	0.0794	0.018	-0.135
Mof_N 	N 	0.2876	0.0761	0.8003	-0.11
Mof_N 	N 	0.4561	0.0795	0.9812	-0.11
Mof_C 	C 	0.4426	0.1569	0.0127	-0.011
Mof_H 	H 	0.4332	0.1785	0.0506	0.053
Mof_C 	C 	0.4398	0.1124	0.0323	-0.003
Mof_H 	H 	0.426	0.1045	0.0827	0.04
Mof_C 	C 	0.4898	0.1504	0.8055	0.116
Mof_C 	C 	0.051	0.1123	0.9668	0.029
Mof_H 	H 	0.0629	0.1047	0.9159	0.033
Mof_C 	C 	0.1124	0.2456	0.7235	0.338
Mof_O 	O 	0.0992	0.9951	0.1038	-0.289
Mof_C 	C 	0.2361	0.2739	0.0276	-0.285
Mof_H 	H 	0.2518	0.3043	0.0407	0.12
Mof_H 	H 	0.2729	0.2537	0.0538	0.136
Mof_C 	C 	0.0237	0.2458	0.7117	-0.229
Mof_H 	H 	0.0087	0.2196	0.6818	0.119
Mof_H 	H 	0.0091	0.2722	0.682	0.118
Mof_O 	O 	0.1451	0.2249	0.7809	-0.277
Mof_O 	O 	0.1546	0.2653	0.6756	-0.297
Mof_C 	C 	0.2003	0.0971	0.255	0.022
Mof_H 	H 	0.1921	0.0759	0.2936	0.038
Mof_N 	N 	0.2897	0.1663	0.7554	-0.115
Mof_C 	C 	0.2735	0.1546	0.8286	0.013
Mof_H 	H 	0.2618	0.1767	0.8648	0.047
Mof_C 	C 	0.3063	0.1333	0.7043	0.009
Mof_H 	H 	0.3192	0.1406	0.6534	0.034
Mof_C 	C 	0.304	0.0879	0.7278	0.016
Mof_H 	H 	0.3143	0.0656	0.6914	0.036
Mof_C 	C 	0.0052	0.9812	0.2073	-0.149
Mof_H 	H 	0.972	0.0049	0.1856	0.07
Mof_H 	H 	0.9854	0.9529	0.1871	0.079
Mof_C 	C 	0.4978	0.0223	0.2032	-0.237
Mof_H 	H 	0.5187	0.0504	0.183	0.107
Mof_H 	H 	0.5301	0.9979	0.1825	0.118
Mof_C 	C 	0.0925	0.988	0.1788	0.311
Mof_C 	C 	0.408	0.0163	0.1783	0.331
Mof_Cd	Cd	0.99583	0.74983	0.88406	0.452
Mof_Cd	Cd	0.74955	0.50356	0.13423	0.449
Mof_Cd	Cd	0.77687	0.74561	0.73511	0.447
Mof_N 	N 	0.9916	0.6937	0.7891	-0.111
Mof_O 	O 	0.8444	0.7545	0.8464	-0.301
Mof_C 	C 	0.5083	0.6514	0.1921	0.111
Mof_N 	N 	0.5344	0.6701	0.0599	-0.118
Mof_C 	C 	0.9731	0.6381	0.8897	0.032
Mof_N 	N 	0.5069	0.6945	0.211	-0.109
Mof_C 	C 	0.5481	0.6569	0.9865	0.023
Mof_H 	H 	0.5558	0.6786	0.9484	0.048
Mof_N 	N 	0.9589	0.6703	0.9384	-0.101
Mof_C 	C 	0.9705	0.594	0.9105	0.007
Mof_H 	H 	0.9794	0.5726	0.8721	0.037
Mof_O 	O 	0.5923	0.765	0.0156	-0.284
Mof_C 	C 	0.7456	0.768	0.9451	-0.166
Mof_H 	H 	0.721	0.7934	0.9192	0.095
Mof_H 	H 	0.7161	0.7413	0.9298	0.104
Mof_O 	O 	0.8888	0.7682	0.9626	-0.263
Mof_O 	O 	0.8517	0.5218	0.2231	-0.287
Mof_O 	O 	0.6483	0.4884	0.2231	-0.291
Mof_N 	N 	0.7451	0.5554	0.0329	-0.11
Mof_C 	C 	0.8297	0.7635	0.9166	0.314
Mof_C 	C 	0.6539	0.7659	0.0582	0.348
Mof_C 	C 	0.7593	0.5977	0.9311	0.108
Mof_N 	N 	0.7137	0.5828	0.1841	-0.111
Mof_N 	N 	0.7556	0.5538	0.955	-0.097
Mof_O 	O 	0.642	0.7613	0.1306	-0.314
Mof_N 	N 	0.7096	0.6741	0.2202	-0.114
Mof_O 	O 	0.8997	0.5075	0.1055	-0.31
Mof_N 	N 	0.7494	0.6274	0.9893	-0.119
Mof_C 	C 	0.7739	0.6101	0.8509	0.026
Mof_C 	C 	0.7244	0.6604	0.1485	0.013
Mof_H 	H 	0.7348	0.6816	0.1103	0.044
Mof_C 	C 	0.5214	0.6383	0.1102	0.026
Mof_C 	C 	0.7396	0.5994	0.052	0.09
Mof_C 	C 	0.7247	0.6158	0.1292	0.025
Mof_C 	C 	0.6976	0.6416	0.275	0.003
Mof_H 	H 	0.6875	0.6498	0.326	0.039
Mof_C 	C 	0.5234	0.5934	0.089	0.006
Mof_H 	H 	0.5145	0.572	0.1272	0.036
Mof_N 	N 	0.5373	0.5794	0.018	-0.135
Mof_N 	N 	0.7876	0.5761	0.8003	-0.108
Mof_N 	N 	0.9561	0.5795	0.9812	-0.11
Mof_C 	C 	0.9426	0.6569	0.0127	-0.011
Mof_H 	H 	0.9332	0.6785	0.0506	0.053
Mof_C 	C 	0.9398	0.6124	0.0323	-0.002
Mof_H 	H 	0.926	0.6045	0.0827	0.04
Mof_C 	C 	0.9898	0.6504	0.8055	0.113
Mof_C 	C 	0.551	0.6123	0.9668	0.028
Mof_H 	H 	0.5629	0.6047	0.9159	0.032
Mof_C 	C 	0.6124	0.7456	0.7235	0.339
Mof_O 	O 	0.5992	0.4951	0.1038	-0.304
Mof_C 	C 	0.7361	0.7739	0.0276	-0.284
Mof_H 	H 	0.7518	0.8043	0.0407	0.12
Mof_H 	H 	0.7729	0.7537	0.0538	0.136
Mof_C 	C 	0.5237	0.7458	0.7117	-0.233
Mof_H 	H 	0.5087	0.7196	0.6818	0.119
Mof_H 	H 	0.5091	0.7722	0.682	0.118
Mof_O 	O 	0.6451	0.7249	0.7809	-0.278
Mof_O 	O 	0.6546	0.7653	0.6756	-0.297
Mof_C 	C 	0.7003	0.5971	0.255	0.021
Mof_H 	H 	0.6921	0.5759	0.2936	0.04
Mof_N 	N 	0.7897	0.6663	0.7554	-0.115
Mof_C 	C 	0.7735	0.6546	0.8286	0.013
Mof_H 	H 	0.7618	0.6767	0.8648	0.047
Mof_C 	C 	0.8063	0.6333	0.7043	0.009
Mof_H 	H 	0.8192	0.6406	0.6534	0.034
Mof_C 	C 	0.804	0.5879	0.7278	0.015
Mof_H 	H 	0.8143	0.5656	0.6914	0.039
Mof_C 	C 	0.5052	0.4812	0.2073	-0.204
Mof_H 	H 	0.472	0.5049	0.1856	0.098
Mof_H 	H 	0.4854	0.4529	0.1871	0.095
Mof_C 	C 	0.9978	0.5223	0.2032	-0.239
Mof_H 	H 	0.0187	0.5504	0.183	0.11
Mof_H 	H 	0.0301	0.4979	0.1825	0.109
Mof_C 	C 	0.5925	0.488	0.1788	0.325
Mof_C 	C 	0.908	0.5163	0.1783	0.333
Mof_Cd	Cd	0.50417	0.75017	0.38406	0.453
Mof_Cd	Cd	0.75045	0.99644	0.63423	0.465
Mof_Cd	Cd	0.72313	0.75439	0.23511	0.447
Mof_N 	N 	0.5084	0.8063	0.2891	-0.11
Mof_O 	O 	0.6556	0.7455	0.3464	-0.305
Mof_C 	C 	0.9917	0.8486	0.6921	0.108
Mof_N 	N 	0.9656	0.8299	0.5599	-0.109
Mof_C 	C 	0.5269	0.8619	0.3897	0.03
Mof_N 	N 	0.9931	0.8055	0.711	-0.111
Mof_C 	C 	0.9519	0.8431	0.4865	0.008
Mof_H 	H 	0.9442	0.8214	0.4484	0.048
Mof_N 	N 	0.5411	0.8297	0.4384	-0.109
Mof_C 	C 	0.5295	0.906	0.4105	0.005
Mof_H 	H 	0.5206	0.9274	0.3721	0.04
Mof_O 	O 	0.9077	0.735	0.5156	-0.274
Mof_C 	C 	0.7544	0.732	0.4451	-0.211
Mof_H 	H 	0.779	0.7066	0.4192	0.103
Mof_H 	H 	0.7839	0.7587	0.4298	0.113
Mof_O 	O 	0.6112	0.7318	0.4626	-0.272
Mof_O 	O 	0.6483	0.9782	0.7231	-0.278
Mof_O 	O 	0.8517	0.0116	0.7231	-0.301
Mof_N 	N 	0.7549	0.9446	0.5329	-0.103
Mof_C 	C 	0.6703	0.7365	0.4166	0.326
Mof_C 	C 	0.8461	0.7341	0.5582	0.336
Mof_C 	C 	0.7407	0.9023	0.4311	0.106
Mof_N 	N 	0.7863	0.9172	0.6841	-0.109
Mof_N 	N 	0.7444	0.9462	0.455	-0.101
Mof_O 	O 	0.858	0.7387	0.6306	-0.311
Mof_N 	N 	0.7904	0.8259	0.7202	-0.114
Mof_O 	O 	0.6003	0.9925	0.6055	-0.298
Mof_N 	N 	0.7506	0.8726	0.4893	-0.131
Mof_C 	C 	0.7261	0.8899	0.3509	0.026
Mof_C 	C 	0.7756	0.8396	0.6485	0.016
Mof_H 	H 	0.7652	0.8184	0.6103	0.046
Mof_C 	C 	0.9786	0.8617	0.6102	0.028
Mof_C 	C 	0.7604	0.9006	0.552	0.105
Mof_C 	C 	0.7753	0.8842	0.6292	0.022
Mof_C 	C 	0.8024	0.8584	0.775	0.004
Mof_H 	H 	0.8125	0.8502	0.826	0.04
Mof_C 	C 	0.9766	0.9066	0.589	0.008
Mof_H 	H 	0.9855	0.928	0.6272	0.038
Mof_N 	N 	0.9627	0.9206	0.518	-0.122
Mof_N 	N 	0.7124	0.9239	0.3003	-0.105
Mof_N 	N 	0.5439	0.9205	0.4812	-0.12
Mof_C 	C 	0.5574	0.8431	0.5127	0.004
Mof_H 	H 	0.5668	0.8215	0.5506	0.052
Mof_C 	C 	0.5602	0.8876	0.5323	0.014
Mof_H 	H 	0.574	0.8955	0.5827	0.037
Mof_C 	C 	0.5102	0.8496	0.3055	0.116
Mof_C 	C 	0.949	0.8877	0.4668	0.013
Mof_H 	H 	0.9371	0.8953	0.4159	0.035
Mof_C 	C 	0.8876	0.7544	0.2235	0.339
Mof_O 	O 	0.9008	0.0049	0.6038	-0.312
Mof_C 	C 	0.7639	0.7261	0.5276	-0.238
Mof_H 	H 	0.7482	0.6957	0.5407	0.111
Mof_H 	H 	0.7271	0.7463	0.5538	0.127
Mof_C 	C 	0.9763	0.7542	0.2117	-0.236
Mof_H 	H 	0.9913	0.7804	0.1818	0.118
Mof_H 	H 	0.9909	0.7278	0.182	0.117
Mof_O 	O 	0.8549	0.7751	0.2809	-0.28
Mof_O 	O 	0.8454	0.7347	0.1756	-0.3
Mof_C 	C 	0.7997	0.9029	0.755	0.021
Mof_H 	H 	0.8079	0.9241	0.7936	0.044
Mof_N 	N 	0.7103	0.8337	0.2554	-0.116
Mof_C 	C 	0.7265	0.8454	0.3286	0.013
Mof_H 	H 	0.7382	0.8233	0.3648	0.046
Mof_C 	C 	0.6937	0.8667	0.2043	0.009
Mof_H 	H 	0.6808	0.8594	0.1534	0.033
Mof_C 	C 	0.696	0.9121	0.2278	0.015
Mof_H 	H 	0.6857	0.9344	0.1914	0.041
Mof_C 	C 	0.9948	0.0188	0.7073	-0.258
Mof_H 	H 	0.028	0.9951	0.6856	0.127
Mof_H 	H 	0.0146	0.0471	0.6871	0.114
Mof_C 	C 	0.5022	0.9777	0.7032	-0.193
Mof_H 	H 	0.4813	0.9496	0.683	0.097
Mof_H 	H 	0.4699	0.0021	0.6825	0.085
Mof_C 	C 	0.9075	0.012	0.6788	0.338
Mof_C 	C 	0.592	0.9837	0.6783	0.323
Mof_Cd	Cd	0.00417	0.25017	0.38406	0.456
Mof_Cd	Cd	0.25045	0.49644	0.63423	0.451
Mof_Cd	Cd	0.22313	0.25439	0.23511	0.447
Mof_N 	N 	0.0084	0.3063	0.2891	-0.109
Mof_O 	O 	0.1556	0.2455	0.3464	-0.305
Mof_C 	C 	0.4917	0.3486	0.6921	0.111
Mof_N 	N 	0.4656	0.3299	0.5599	-0.109
Mof_C 	C 	0.0269	0.3619	0.3897	0.03
Mof_N 	N 	0.4931	0.3055	0.711	-0.109
Mof_C 	C 	0.4519	0.3431	0.4865	0.008
Mof_H 	H 	0.4442	0.3214	0.4484	0.049
Mof_N 	N 	0.0411	0.3297	0.4384	-0.109
Mof_C 	C 	0.0295	0.406	0.4105	0.005
Mof_H 	H 	0.0206	0.4274	0.3721	0.038
Mof_O 	O 	0.4077	0.235	0.5156	-0.272
Mof_C 	C 	0.2544	0.232	0.4451	-0.211
Mof_H 	H 	0.279	0.2066	0.4192	0.104
Mof_H 	H 	0.2839	0.2587	0.4298	0.113
Mof_O 	O 	0.1112	0.2318	0.4626	-0.272
Mof_O 	O 	0.1483	0.4782	0.7231	-0.282
Mof_O 	O 	0.3517	0.5116	0.7231	-0.289
Mof_N 	N 	0.2549	0.4446	0.5329	-0.105
Mof_C 	C 	0.1703	0.2365	0.4166	0.326
Mof_C 	C 	0.3461	0.2341	0.5582	0.335
Mof_C 	C 	0.2407	0.4023	0.4311	0.105
Mof_N 	N 	0.2863	0.4172	0.6841	-0.11
Mof_N 	N 	0.2444	0.4462	0.455	-0.104
Mof_O 	O 	0.358	0.2387	0.6306	-0.31
Mof_N 	N 	0.2904	0.3259	0.7202	-0.114
Mof_O 	O 	0.1003	0.4925	0.6055	-0.305
Mof_N 	N 	0.2506	0.3726	0.4893	-0.131
Mof_C 	C 	0.2261	0.3899	0.3509	0.025
Mof_C 	C 	0.2756	0.3396	0.6485	0.016
Mof_H 	H 	0.2652	0.3184	0.6103	0.046
Mof_C 	C 	0.4786	0.3617	0.6102	0.028
Mof_C 	C 	0.2604	0.4006	0.552	0.105
Mof_C 	C 	0.2753	0.3842	0.6292	0.022
Mof_C 	C 	0.3024	0.3584	0.775	0.003
Mof_H 	H 	0.3125	0.3502	0.826	0.04
Mof_C 	C 	0.4766	0.4066	0.589	0.008
Mof_H 	H 	0.4855	0.428	0.6272	0.036
Mof_N 	N 	0.4627	0.4206	0.518	-0.125
Mof_N 	N 	0.2124	0.4239	0.3003	-0.108
Mof_N 	N 	0.0439	0.4205	0.4812	-0.123
Mof_C 	C 	0.0574	0.3431	0.5127	0.005
Mof_H 	H 	0.0668	0.3215	0.5506	0.053
Mof_C 	C 	0.0602	0.3876	0.5323	0.014
Mof_H 	H 	0.074	0.3955	0.5827	0.037
Mof_C 	C 	0.0102	0.3496	0.3055	0.117
Mof_C 	C 	0.449	0.3877	0.4668	0.013
Mof_H 	H 	0.4371	0.3953	0.4159	0.035
Mof_C 	C 	0.3876	0.2544	0.2235	0.338
Mof_O 	O 	0.4008	0.5049	0.6038	-0.302
Mof_C 	C 	0.2639	0.2261	0.5276	-0.238
Mof_H 	H 	0.2482	0.1957	0.5407	0.11
Mof_H 	H 	0.2271	0.2463	0.5538	0.126
Mof_C 	C 	0.4763	0.2542	0.2117	-0.232
Mof_H 	H 	0.4913	0.2804	0.1818	0.117
Mof_H 	H 	0.4909	0.2278	0.182	0.116
Mof_O 	O 	0.3549	0.2751	0.2809	-0.279
Mof_O 	O 	0.3454	0.2347	0.1756	-0.299
Mof_C 	C 	0.2997	0.4029	0.755	0.022
Mof_H 	H 	0.3079	0.4241	0.7936	0.042
Mof_N 	N 	0.2103	0.3337	0.2554	-0.115
Mof_C 	C 	0.2265	0.3454	0.3286	0.013
Mof_H 	H 	0.2382	0.3233	0.3648	0.046
Mof_C 	C 	0.1937	0.3667	0.2043	0.009
Mof_H 	H 	0.1808	0.3594	0.1534	0.033
Mof_C 	C 	0.196	0.4121	0.2278	0.015
Mof_H 	H 	0.1857	0.4344	0.1914	0.038
Mof_C 	C 	0.4948	0.5188	0.7073	-0.204
Mof_H 	H 	0.528	0.4951	0.6856	0.099
Mof_H 	H 	0.5146	0.5471	0.6871	0.097
Mof_C 	C 	0.0022	0.4777	0.7032	-0.189
Mof_H 	H 	0.9813	0.4496	0.683	0.093
Mof_H 	H 	0.9699	0.5021	0.6825	0.091
Mof_C 	C 	0.4075	0.512	0.6788	0.325
Mof_C 	C 	0.092	0.4837	0.6783	0.32
Mof_Cd	Cd	0.50417	0.24983	0.61594	0.453
Mof_Cd	Cd	0.75045	0.00356	0.36577	0.438
Mof_Cd	Cd	0.72313	0.24561	0.76489	0.447
Mof_N 	N 	0.5084	0.1937	0.7109	-0.11
Mof_O 	O 	0.6556	0.2545	0.6536	-0.305
Mof_C 	C 	0.9917	0.1514	0.3079	0.108
Mof_N 	N 	0.9656	0.1701	0.4401	-0.109
Mof_C 	C 	0.5269	0.1381	0.6103	0.03
Mof_N 	N 	0.9931	0.1945	0.289	-0.111
Mof_C 	C 	0.9519	0.1569	0.5135	0.007
Mof_H 	H 	0.9442	0.1786	0.5516	0.049
Mof_N 	N 	0.5411	0.1703	0.5616	-0.109
Mof_C 	C 	0.5295	0.094	0.5895	0.005
Mof_H 	H 	0.5206	0.0726	0.6279	0.036
Mof_O 	O 	0.9077	0.265	0.4844	-0.274
Mof_C 	C 	0.7544	0.268	0.5549	-0.211
Mof_H 	H 	0.779	0.2934	0.5808	0.103
Mof_H 	H 	0.7839	0.2413	0.5702	0.113
Mof_O 	O 	0.6112	0.2682	0.5374	-0.272
Mof_O 	O 	0.6483	0.0218	0.2769	-0.29
Mof_O 	O 	0.8517	0.9884	0.2769	-0.285
Mof_N 	N 	0.7549	0.0554	0.4671	-0.106
Mof_C 	C 	0.6703	0.2635	0.5834	0.326
Mof_C 	C 	0.8461	0.2659	0.4418	0.336
Mof_C 	C 	0.7407	0.0977	0.5689	0.105
Mof_N 	N 	0.7863	0.0828	0.3159	-0.111
Mof_N 	N 	0.7444	0.0538	0.545	-0.108
Mof_O 	O 	0.858	0.2613	0.3694	-0.31
Mof_N 	N 	0.7904	0.1741	0.2798	-0.114
Mof_O 	O 	0.6003	0.0075	0.3945	-0.312
Mof_N 	N 	0.7506	0.1274	0.5107	-0.131
Mof_C 	C 	0.7261	0.1101	0.6491	0.025
Mof_C 	C 	0.7756	0.1604	0.3515	0.015
Mof_H 	H 	0.7652	0.1816	0.3897	0.046
Mof_C 	C 	0.9786	0.1383	0.3898	0.028
Mof_C 	C 	0.7604	0.0994	0.448	0.105
Mof_C 	C 	0.7753	0.1158	0.3708	0.022
Mof_C 	C 	0.8024	0.1416	0.225	0.002
Mof_H 	H 	0.8125	0.1498	0.174	0.036
Mof_C 	C 	0.9766	0.0934	0.411	0.008
Mof_H 	H 	0.9855	0.072	0.3728	0.033
Mof_N 	N 	0.9627	0.0794	0.482	-0.126
Mof_N 	N 	0.7124	0.0761	0.6997	-0.11
Mof_N 	N 	0.5439	0.0795	0.5188	-0.124
Mof_C 	C 	0.5574	0.1569	0.4873	0.004
Mof_H 	H 	0.5668	0.1785	0.4494	0.052
Mof_C 	C 	0.5602	0.1124	0.4677	0.013
Mof_H 	H 	0.574	0.1045	0.4173	0.036
Mof_C 	C 	0.5102	0.1504	0.6945	0.116
Mof_C 	C 	0.949	0.1123	0.5332	0.012
Mof_H 	H 	0.9371	0.1047	0.5841	0.034
Mof_C 	C 	0.8876	0.2456	0.7765	0.341
Mof_O 	O 	0.9008	0.9951	0.3962	-0.294
Mof_C 	C 	0.7639	0.2739	0.4724	-0.238
Mof_H 	H 	0.7482	0.3043	0.4593	0.11
Mof_H 	H 	0.7271	0.2537	0.4462	0.127
Mof_C 	C 	0.9763	0.2458	0.7883	-0.24
Mof_H 	H 	0.9913	0.2196	0.8182	0.122
Mof_H 	H 	0.9909	0.2722	0.818	0.121
Mof_O 	O 	0.8549	0.2249	0.7191	-0.28
Mof_O 	O 	0.8454	0.2653	0.8244	-0.296
Mof_C 	C 	0.7997	0.0971	0.245	0.021
Mof_H 	H 	0.8079	0.0759	0.2064	0.037
Mof_N 	N 	0.7103	0.1663	0.7446	-0.115
Mof_C 	C 	0.7265	0.1546	0.6714	0.013
Mof_H 	H 	0.7382	0.1767	0.6352	0.046
Mof_C 	C 	0.6937	0.1333	0.7957	0.009
Mof_H 	H 	0.6808	0.1406	0.8466	0.036
Mof_C 	C 	0.696	0.0879	0.7722	0.016
Mof_H 	H 	0.6857	0.0656	0.8086	0.038
Mof_C 	C 	0.9948	0.9812	0.2927	-0.218
Mof_H 	H 	0.028	0.0049	0.3144	0.095
Mof_H 	H 	0.0146	0.9529	0.3129	0.104
Mof_C 	C 	0.5022	0.0223	0.2968	-0.238
Mof_H 	H 	0.4813	0.0504	0.317	0.108
Mof_H 	H 	0.4699	0.9979	0.3175	0.119
Mof_C 	C 	0.9075	0.988	0.3212	0.331
Mof_C 	C 	0.592	0.0163	0.3217	0.331
Mof_Cd	Cd	0.00417	0.74983	0.61594	0.456
Mof_Cd	Cd	0.25045	0.50356	0.36577	0.451
Mof_Cd	Cd	0.22313	0.74561	0.76489	0.447
Mof_N 	N 	0.0084	0.6937	0.7109	-0.109
Mof_O 	O 	0.1556	0.7545	0.6536	-0.305
Mof_C 	C 	0.4917	0.6514	0.3079	0.111
Mof_N 	N 	0.4656	0.6701	0.4401	-0.109
Mof_C 	C 	0.0269	0.6381	0.6103	0.03
Mof_N 	N 	0.4931	0.6945	0.289	-0.109
Mof_C 	C 	0.4519	0.6569	0.5135	0.008
Mof_H 	H 	0.4442	0.6786	0.5516	0.049
Mof_N 	N 	0.0411	0.6703	0.5616	-0.109
Mof_C 	C 	0.0295	0.594	0.5895	0.005
Mof_H 	H 	0.0206	0.5726	0.6279	0.038
Mof_O 	O 	0.4077	0.765	0.4844	-0.272
Mof_C 	C 	0.2544	0.768	0.5549	-0.211
Mof_H 	H 	0.279	0.7934	0.5808	0.104
Mof_H 	H 	0.2839	0.7413	0.5702	0.113
Mof_O 	O 	0.1112	0.7682	0.5374	-0.272
Mof_O 	O 	0.1483	0.5218	0.2769	-0.284
Mof_O 	O 	0.3517	0.4884	0.2769	-0.291
Mof_N 	N 	0.2549	0.5554	0.4671	-0.105
Mof_C 	C 	0.1703	0.7635	0.5834	0.326
Mof_C 	C 	0.3461	0.7659	0.4418	0.336
Mof_C 	C 	0.2407	0.5977	0.5689	0.105
Mof_N 	N 	0.2863	0.5828	0.3159	-0.111
Mof_N 	N 	0.2444	0.5538	0.545	-0.104
Mof_O 	O 	0.358	0.7613	0.3694	-0.31
Mof_N 	N 	0.2904	0.6741	0.2798	-0.114
Mof_O 	O 	0.1003	0.5075	0.3945	-0.305
Mof_N 	N 	0.2506	0.6274	0.5107	-0.131
Mof_C 	C 	0.2261	0.6101	0.6491	0.025
Mof_C 	C 	0.2756	0.6604	0.3515	0.015
Mof_H 	H 	0.2652	0.6816	0.3897	0.046
Mof_C 	C 	0.4786	0.6383	0.3898	0.028
Mof_C 	C 	0.2604	0.5994	0.448	0.105
Mof_C 	C 	0.2753	0.6158	0.3708	0.022
Mof_C 	C 	0.3024	0.6416	0.225	0.003
Mof_H 	H 	0.3125	0.6498	0.174	0.037
Mof_C 	C 	0.4766	0.5934	0.411	0.008
Mof_H 	H 	0.4855	0.572	0.3728	0.036
Mof_N 	N 	0.4627	0.5794	0.482	-0.125
Mof_N 	N 	0.2124	0.5761	0.6997	-0.108
Mof_N 	N 	0.0439	0.5795	0.5188	-0.123
Mof_C 	C 	0.0574	0.6569	0.4873	0.005
Mof_H 	H 	0.0668	0.6785	0.4494	0.053
Mof_C 	C 	0.0602	0.6124	0.4677	0.014
Mof_H 	H 	0.074	0.6045	0.4173	0.037
Mof_C 	C 	0.0102	0.6504	0.6945	0.117
Mof_C 	C 	0.449	0.6123	0.5332	0.013
Mof_H 	H 	0.4371	0.6047	0.5841	0.035
Mof_C 	C 	0.3876	0.7456	0.7765	0.34
Mof_O 	O 	0.4008	0.4951	0.3962	-0.302
Mof_C 	C 	0.2639	0.7739	0.4724	-0.238
Mof_H 	H 	0.2482	0.8043	0.4593	0.111
Mof_H 	H 	0.2271	0.7537	0.4462	0.127
Mof_C 	C 	0.4763	0.7458	0.7883	-0.237
Mof_H 	H 	0.4913	0.7196	0.8182	0.122
Mof_H 	H 	0.4909	0.7722	0.818	0.121
Mof_O 	O 	0.3549	0.7249	0.7191	-0.279
Mof_O 	O 	0.3454	0.7653	0.8244	-0.296
Mof_C 	C 	0.2997	0.5971	0.245	0.021
Mof_H 	H 	0.3079	0.5759	0.2064	0.039
Mof_N 	N 	0.2103	0.6663	0.7446	-0.115
Mof_C 	C 	0.2265	0.6546	0.6714	0.013
Mof_H 	H 	0.2382	0.6767	0.6352	0.046
Mof_C 	C 	0.1937	0.6333	0.7957	0.01
Mof_H 	H 	0.1808	0.6406	0.8466	0.037
Mof_C 	C 	0.196	0.5879	0.7722	0.016
Mof_H 	H 	0.1857	0.5656	0.8086	0.041
Mof_C 	C 	0.4948	0.4812	0.2927	-0.206
Mof_H 	H 	0.528	0.5049	0.3144	0.099
Mof_H 	H 	0.5146	0.4529	0.3129	0.097
Mof_C 	C 	0.0022	0.5223	0.2968	-0.19
Mof_H 	H 	0.9813	0.5504	0.317	0.093
Mof_H 	H 	0.9699	0.4979	0.3175	0.091
Mof_C 	C 	0.4075	0.488	0.3212	0.326
Mof_C 	C 	0.092	0.5163	0.3217	0.321
Mof_Cd	Cd	0.49583	0.75017	0.11594	0.452
Mof_Cd	Cd	0.24955	0.99644	0.86577	0.466
Mof_Cd	Cd	0.27687	0.75439	0.26489	0.447
Mof_N 	N 	0.4916	0.8063	0.2109	-0.11
Mof_O 	O 	0.3444	0.7455	0.1536	-0.309
Mof_C 	C 	0.0083	0.8486	0.8079	0.112
Mof_N 	N 	0.0344	0.8299	0.9401	-0.1
Mof_C 	C 	0.4731	0.8619	0.1103	0.029
Mof_N 	N 	0.0069	0.8055	0.789	-0.108
Mof_C 	C 	0.0481	0.8431	0.0135	-0.006
Mof_H 	H 	0.0558	0.8214	0.0516	0.05
Mof_N 	N 	0.4589	0.8297	0.0616	-0.118
Mof_C 	C 	0.4705	0.906	0.0895	0.003
Mof_H 	H 	0.4794	0.9274	0.1279	0.041
Mof_O 	O 	0.0923	0.735	0.9844	-0.26
Mof_C 	C 	0.2456	0.732	0.0549	-0.258
Mof_H 	H 	0.221	0.7066	0.0808	0.114
Mof_H 	H 	0.2161	0.7587	0.0702	0.123
Mof_O 	O 	0.3888	0.7318	0.0374	-0.283
Mof_O 	O 	0.3517	0.9782	0.7769	-0.279
Mof_O 	O 	0.1483	0.0116	0.7769	-0.296
Mof_N 	N 	0.2451	0.9446	0.9671	-0.097
Mof_C 	C 	0.3297	0.7365	0.0834	0.34
Mof_C 	C 	0.1539	0.7341	0.9418	0.322
Mof_C 	C 	0.2593	0.9023	0.0689	0.103
Mof_N 	N 	0.2137	0.9172	0.8159	-0.109
Mof_N 	N 	0.2556	0.9462	0.045	-0.107
Mof_O 	O 	0.142	0.7387	0.8694	-0.304
Mof_N 	N 	0.2096	0.8259	0.7798	-0.114
Mof_O 	O 	0.3997	0.9925	0.8945	-0.291
Mof_N 	N 	0.2494	0.8726	0.0107	-0.142
Mof_C 	C 	0.2739	0.8899	0.1491	0.026
Mof_C 	C 	0.2244	0.8396	0.8515	0.018
Mof_H 	H 	0.2348	0.8184	0.8897	0.048
Mof_C 	C 	0.0214	0.8617	0.8898	0.03
Mof_C 	C 	0.2396	0.9006	0.948	0.12
Mof_C 	C 	0.2247	0.8842	0.8708	0.02
Mof_C 	C 	0.1976	0.8584	0.725	0.004
Mof_H 	H 	0.1875	0.8502	0.674	0.039
Mof_C 	C 	0.0234	0.9066	0.911	0.011
Mof_H 	H 	0.0145	0.928	0.8728	0.04
Mof_N 	N 	0.0373	0.9206	0.982	-0.109
Mof_N 	N 	0.2876	0.9239	0.1997	-0.105
Mof_N 	N 	0.4561	0.9205	0.0188	-0.13
Mof_C 	C 	0.4426	0.8431	0.9873	0.019
Mof_H 	H 	0.4332	0.8215	0.9494	0.052
Mof_C 	C 	0.4398	0.8876	0.9677	0.029
Mof_H 	H 	0.426	0.8955	0.9173	0.034
Mof_C 	C 	0.4898	0.8496	0.1945	0.116
Mof_C 	C 	0.051	0.8877	0.0332	-0.001
Mof_H 	H 	0.0629	0.8953	0.0841	0.04
Mof_C 	C 	0.1124	0.7544	0.2765	0.339
Mof_O 	O 	0.0992	0.0049	0.8962	-0.299
Mof_C 	C 	0.2361	0.7261	0.9724	-0.191
Mof_H 	H 	0.2518	0.6957	0.9593	0.102
Mof_H 	H 	0.2729	0.7463	0.9462	0.117
Mof_C 	C 	0.0237	0.7542	0.2883	-0.232
Mof_H 	H 	0.0087	0.7804	0.3182	0.12
Mof_H 	H 	0.0091	0.7278	0.318	0.119
Mof_O 	O 	0.1451	0.7751	0.2191	-0.28
Mof_O 	O 	0.1546	0.7347	0.3244	-0.297
Mof_C 	C 	0.2003	0.9029	0.745	0.021
Mof_H 	H 	0.1921	0.9241	0.7064	0.042
Mof_N 	N 	0.2897	0.8337	0.2446	-0.115
Mof_C 	C 	0.2735	0.8454	0.1714	0.013
Mof_H 	H 	0.2618	0.8233	0.1352	0.044
Mof_C 	C 	0.3063	0.8667	0.2957	0.01
Mof_H 	H 	0.3192	0.8594	0.3466	0.035
Mof_C 	C 	0.304	0.9121	0.2722	0.015
Mof_H 	H 	0.3143	0.9344	0.3086	0.042
Mof_C 	C 	0.0052	0.0188	0.7927	-0.191
Mof_H 	H 	0.972	0.9951	0.8144	0.105
Mof_H 	H 	0.9854	0.0471	0.8129	0.092
Mof_C 	C 	0.4978	0.9777	0.7968	-0.195
Mof_H 	H 	0.5187	0.9496	0.817	0.1
Mof_H 	H 	0.5301	0.0021	0.8175	0.087
Mof_C 	C 	0.0925	0.012	0.8212	0.319
Mof_C 	C 	0.408	0.9837	0.8217	0.323
Mof_Cd	Cd	0.99583	0.25017	0.11594	0.449
Mof_Cd	Cd	0.74955	0.49644	0.86577	0.454
Mof_Cd	Cd	0.77687	0.25439	0.26489	0.447
Mof_N 	N 	0.9916	0.3063	0.2109	-0.111
Mof_O 	O 	0.8444	0.2455	0.1536	-0.31
Mof_C 	C 	0.5083	0.3486	0.8079	0.111
Mof_N 	N 	0.5344	0.3299	0.9401	-0.099
Mof_C 	C 	0.9731	0.3619	0.1103	0.029
Mof_N 	N 	0.5069	0.3055	0.789	-0.109
Mof_C 	C 	0.5481	0.3431	0.0135	-0.008
Mof_H 	H 	0.5558	0.3214	0.0516	0.05
Mof_N 	N 	0.9589	0.3297	0.0616	-0.118
Mof_C 	C 	0.9705	0.406	0.0895	0.002
Mof_H 	H 	0.9794	0.4274	0.1279	0.037
Mof_O 	O 	0.5923	0.235	0.9844	-0.26
Mof_C 	C 	0.7456	0.232	0.0549	-0.26
Mof_H 	H 	0.721	0.2066	0.0808	0.114
Mof_H 	H 	0.7161	0.2587	0.0702	0.123
Mof_O 	O 	0.8888	0.2318	0.0374	-0.284
Mof_O 	O 	0.8517	0.4782	0.7769	-0.286
Mof_O 	O 	0.6483	0.5116	0.7769	-0.29
Mof_N 	N 	0.7451	0.4446	0.9671	-0.098
Mof_C 	C 	0.8297	0.2365	0.0834	0.34
Mof_C 	C 	0.6539	0.2341	0.9418	0.322
Mof_C 	C 	0.7593	0.4023	0.0689	0.102
Mof_N 	N 	0.7137	0.4172	0.8159	-0.11
Mof_N 	N 	0.7556	0.4462	0.045	-0.112
Mof_O 	O 	0.642	0.2387	0.8694	-0.305
Mof_N 	N 	0.7096	0.3259	0.7798	-0.114
Mof_O 	O 	0.8997	0.4925	0.8945	-0.302
Mof_N 	N 	0.7494	0.3726	0.0107	-0.143
Mof_C 	C 	0.7739	0.3899	0.1491	0.025
Mof_C 	C 	0.7244	0.3396	0.8515	0.018
Mof_H 	H 	0.7348	0.3184	0.8897	0.048
Mof_C 	C 	0.5214	0.3617	0.8898	0.03
Mof_C 	C 	0.7396	0.4006	0.948	0.12
Mof_C 	C 	0.7247	0.3842	0.8708	0.019
Mof_C 	C 	0.6976	0.3584	0.725	0.003
Mof_H 	H 	0.6875	0.3502	0.674	0.038
Mof_C 	C 	0.5234	0.4066	0.911	0.011
Mof_H 	H 	0.5145	0.428	0.8728	0.037
Mof_N 	N 	0.5373	0.4206	0.982	-0.111
Mof_N 	N 	0.7876	0.4239	0.1997	-0.108
Mof_N 	N 	0.9561	0.4205	0.0188	-0.134
Mof_C 	C 	0.9426	0.3431	0.9873	0.019
Mof_H 	H 	0.9332	0.3215	0.9494	0.052
Mof_C 	C 	0.9398	0.3876	0.9677	0.029
Mof_H 	H 	0.926	0.3955	0.9173	0.033
Mof_C 	C 	0.9898	0.3496	0.1945	0.113
Mof_C 	C 	0.551	0.3877	0.0332	-0.003
Mof_H 	H 	0.5629	0.3953	0.0841	0.039
Mof_C 	C 	0.6124	0.2544	0.2765	0.34
Mof_O 	O 	0.5992	0.5049	0.8962	-0.295
Mof_C 	C 	0.7361	0.2261	0.9724	-0.189
Mof_H 	H 	0.7518	0.1957	0.9593	0.101
Mof_H 	H 	0.7729	0.2463	0.9462	0.117
Mof_C 	C 	0.5237	0.2542	0.2883	-0.236
Mof_H 	H 	0.5087	0.2804	0.3182	0.12
Mof_H 	H 	0.5091	0.2278	0.318	0.119
Mof_O 	O 	0.6451	0.2751	0.2191	-0.281
Mof_O 	O 	0.6546	0.2347	0.3244	-0.298
Mof_C 	C 	0.7003	0.4029	0.745	0.021
Mof_H 	H 	0.6921	0.4241	0.7064	0.04
Mof_N 	N 	0.7897	0.3337	0.2446	-0.116
Mof_C 	C 	0.7735	0.3454	0.1714	0.013
Mof_H 	H 	0.7618	0.3233	0.1352	0.044
Mof_C 	C 	0.8063	0.3667	0.2957	0.009
Mof_H 	H 	0.8192	0.3594	0.3466	0.034
Mof_C 	C 	0.804	0.4121	0.2722	0.015
Mof_H 	H 	0.8143	0.4344	0.3086	0.039
Mof_C 	C 	0.5052	0.5188	0.7927	-0.206
Mof_H 	H 	0.472	0.4951	0.8144	0.101
Mof_H 	H 	0.4854	0.5471	0.8129	0.099
Mof_C 	C 	0.9978	0.4777	0.7968	-0.24
Mof_H 	H 	0.0187	0.4496	0.817	0.114
Mof_H 	H 	0.0301	0.5021	0.8175	0.112
Mof_C 	C 	0.5925	0.512	0.8212	0.325
Mof_C 	C 	0.908	0.4837	0.8217	0.333
Mof_Cd	Cd	0.47169	0	-0	0.352
Mof_Cd	Cd	0.02545	0	-0	0.356
Mof_Cd	Cd	0.97169	0.5	-0	0.364
Mof_Cd	Cd	0.52545	0.5	-0	0.368
Mof_Cd	Cd	0.52831	2.94767e-33	0.5	0.37
Mof_Cd	Cd	0.97455	2.94767e-33	0.5	0.371
Mof_Cd	Cd	0.02831	0.5	0.5	0.384
Mof_Cd	Cd	0.47455	0.5	0.5	0.385
Mof_N 	N 	-4.92263e-33	0.1226	0.25	-0.139
Mof_N 	N 	0.5	0.6226	0.25	-0.14
Mof_N 	N 	-2.06632e-32	0.8774	0.75	-0.137
Mof_N 	N 	0.5	0.3774	0.75	-0.14
Mof_N 	N 	0.5	0.1219	0.75	-0.147
Mof_N 	N 	-3.24539e-32	0.6219	0.75	-0.144
Mof_N 	N 	0.5	0.8781	0.25	-0.146
Mof_N 	N 	-4.92263e-33	0.3781	0.25	-0.145
_end
