data_functionalizedCrystal
_audit_creation_method	'EQeq! by Chris Wilmer'
_symmetry_space_group_name_H-M	'P1'
_symmetry_Int_Tables_number	1
_symmetry_cell_setting	triclinic
loop_
_symmetry_equiv_pos_as_xyz
  x,y,z
_cell_length_a	7.355
_cell_length_b	10.152
_cell_length_c	18.215
_cell_angle_alpha	90
_cell_angle_beta	90
_cell_angle_gamma	94.502
loop_
_atom_site_label
_atom_site_type_symbol
_atom_site_fract_x
_atom_site_fract_y
_atom_site_fract_z
_atom_site_charge
Mof_Cu	Cu	0.86657	0.21767	0.90664	0.914
Mof_Cu	Cu	0.04923	0.93435	0.93152	0.931
Mof_Cu	Cu	0.63343	0.28233	0.40664	0.914
Mof_Cu	Cu	0.45077	0.56565	0.43152	0.936
Mof_Cu	Cu	0.13343	0.78233	0.09336	0.915
Mof_Cu	Cu	0.95077	0.06565	0.06848	0.932
Mof_Cu	Cu	0.36657	0.71767	0.59336	0.915
Mof_Cu	Cu	0.54923	0.43435	0.56848	0.937
Mof_H 	H 	0.7892	0.1684	0.6942	0.05
Mof_H 	H 	0.949	0.7992	0.7069	0.036
Mof_H 	H 	0.7865	0.9414	0.5129	0.03
Mof_H 	H 	0.7108	0.3316	0.1942	0.047
Mof_H 	H 	0.551	0.7008	0.2069	0.034
Mof_H 	H 	0.7135	0.5586	0.0129	0.03
Mof_H 	H 	0.2108	0.8316	0.3058	0.05
Mof_H 	H 	0.051	0.2008	0.2931	0.036
Mof_H 	H 	0.2135	0.0586	0.4871	0.03
Mof_H 	H 	0.2892	0.6684	0.8058	0.047
Mof_H 	H 	0.449	0.2992	0.7931	0.034
Mof_H 	H 	0.2865	0.4414	0.9871	0.03
Mof_C 	C 	0.8688	0.8517	0.60488	-0.141
Mof_C 	C 	0.7779	0.0735	0.59643	-0.122
Mof_C 	C 	0.8104	0.0889	0.67157	0.054
Mof_C 	C 	0.8741	0.9869	0.71319	-0.114
Mof_C 	C 	0.9071	0.0108	0.79337	0.376
Mof_C 	C 	0.905	0.8675	0.67979	0.057
Mof_C 	C 	0.8076	0.9532	0.56291	0.059
Mof_C 	C 	0.7074	0.1855	0.55491	0.375
Mof_C 	C 	0.6312	0.6483	0.10488	-0.142
Mof_C 	C 	0.7221	0.4265	0.09643	-0.12
Mof_C 	C 	0.6896	0.4111	0.17157	0.061
Mof_C 	C 	0.6259	0.5131	0.21319	-0.124
Mof_C 	C 	0.5929	0.4892	0.29337	0.386
Mof_C 	C 	0.595	0.6325	0.17979	0.061
Mof_C 	C 	0.6924	0.5468	0.06291	0.056
Mof_C 	C 	0.7926	0.3145	0.05491	0.371
Mof_C 	C 	0.1312	0.1483	0.39512	-0.141
Mof_C 	C 	0.2221	0.9265	0.40357	-0.122
Mof_C 	C 	0.1896	0.9111	0.32843	0.054
Mof_C 	C 	0.1259	0.0131	0.28681	-0.114
Mof_C 	C 	0.0929	0.9892	0.20663	0.376
Mof_C 	C 	0.095	0.1325	0.32021	0.057
Mof_C 	C 	0.1924	0.0468	0.43709	0.059
Mof_C 	C 	0.2926	0.8145	0.44509	0.375
Mof_C 	C 	0.3688	0.3517	0.89512	-0.142
Mof_C 	C 	0.2779	0.5735	0.90357	-0.12
Mof_C 	C 	0.3104	0.5889	0.82843	0.061
Mof_C 	C 	0.3741	0.4869	0.78681	-0.124
Mof_C 	C 	0.4071	0.5108	0.70663	0.386
Mof_C 	C 	0.405	0.3675	0.82021	0.061
Mof_C 	C 	0.3076	0.4532	0.93709	0.056
Mof_C 	C 	0.2074	0.6855	0.94509	0.371
Mof_S 	S 	0.88458	0.69354	0.56614	0.522
Mof_S 	S 	0.61542	0.80646	0.06614	0.521
Mof_S 	S 	0.11542	0.30646	0.43386	0.522
Mof_S 	S 	0.38458	0.19354	0.93386	0.521
Mof_O 	O 	0.9534	0.9156	0.83229	-0.375
Mof_O 	O 	0.8688	0.05477	0.96484	-0.484
Mof_O 	O 	0.661	0.1649	0.48891	-0.425
Mof_O 	O 	0.8847	0.1262	0.81479	-0.411
Mof_O 	O 	0.8872	0.7057	0.48716	-0.268
Mof_O 	O 	0.6992	0.2931	0.59033	-0.381
Mof_O 	O 	0.7222	0.6189	0.59414	-0.377
Mof_O 	O 	0.0487	0.6424	0.59674	-0.307
Mof_O 	O 	0.5466	0.5844	0.33229	-0.382
Mof_O 	O 	0.6312	0.44523	0.46484	-0.485
Mof_O 	O 	0.839	0.3351	0.98891	-0.421
Mof_O 	O 	0.6153	0.3738	0.31479	-0.413
Mof_O 	O 	0.6128	0.7943	0.98716	-0.269
Mof_O 	O 	0.8008	0.2069	0.09033	-0.383
Mof_O 	O 	0.7778	0.8811	0.09414	-0.375
Mof_O 	O 	0.4513	0.8576	0.09674	-0.304
Mof_O 	O 	0.0466	0.0844	0.16771	-0.375
Mof_O 	O 	0.1312	0.94523	0.03516	-0.484
Mof_O 	O 	0.339	0.8351	0.51109	-0.425
Mof_O 	O 	0.1153	0.8738	0.18521	-0.411
Mof_O 	O 	0.1128	0.2943	0.51284	-0.268
Mof_O 	O 	0.3008	0.7069	0.40967	-0.381
Mof_O 	O 	0.2778	0.3811	0.40586	-0.377
Mof_O 	O 	0.9513	0.3576	0.40326	-0.307
Mof_O 	O 	0.4534	0.4156	0.66771	-0.382
Mof_O 	O 	0.3688	0.55477	0.53516	-0.485
Mof_O 	O 	0.161	0.6649	0.01109	-0.421
Mof_O 	O 	0.3847	0.6262	0.68521	-0.413
Mof_O 	O 	0.3872	0.2057	0.01284	-0.269
Mof_O 	O 	0.1992	0.7931	0.90967	-0.383
Mof_O 	O 	0.2222	0.1189	0.90586	-0.375
Mof_O 	O 	0.5487	0.1424	0.90326	-0.304
_end
