data_functionalizedCrystal
_audit_creation_method	'EQeq! by Chris Wilmer'
_symmetry_space_group_name_H-M	'P1'
_symmetry_Int_Tables_number	1
_symmetry_cell_setting	triclinic
loop_
_symmetry_equiv_pos_as_xyz
  x,y,z
_cell_length_a	14.71
_cell_length_b	15.091
_cell_length_c	15.091
_cell_angle_alpha	120
_cell_angle_beta	90
_cell_angle_gamma	90
loop_
_atom_site_label
_atom_site_type_symbol
_atom_site_fract_x
_atom_site_fract_y
_atom_site_fract_z
_atom_site_charge
Mof_Nd	Nd	0.75	0.33333	0.66666	2.804
Mof_Nd	Nd	0.75	0.66667	0.33334	2.805
Mof_Nd	Nd	0.25	0.66667	0.33334	2.774
Mof_Nd	Nd	0.25	0.33333	0.66666	2.774
Mof_Cu	Cu	0.5	0.5	-0	0.914
Mof_Cu	Cu	0.5	0.5	0.5	0.949
Mof_Cu	Cu	0.5	0	0.5	0.914
Mof_Cu	Cu	-0	0.5	-0	0.856
Mof_Cu	Cu	-6.52578e-33	0	0.5	0.856
Mof_Cu	Cu	-6.52578e-33	0.5	0.5	0.891
Mof_C 	C 	0.701	0.587	0.8556	0.075
Mof_C 	C 	0.6406	0.5148	0.8717	0.372
Mof_C 	C 	0.701	0.2686	0.413	0.02
Mof_C 	C 	0.6406	0.3569	0.4852	0.383
Mof_C 	C 	0.701	0.1444	0.7314	0.028
Mof_C 	C 	0.6406	0.1283	0.6431	0.382
Mof_C 	C 	0.701	0.413	0.1444	0.007
Mof_C 	C 	0.6406	0.4852	0.1283	0.385
Mof_C 	C 	0.701	0.7314	0.587	0.062
Mof_C 	C 	0.6406	0.6431	0.5148	0.378
Mof_C 	C 	0.701	0.8556	0.2686	0.054
Mof_C 	C 	0.6406	0.8717	0.3569	0.374
Mof_C 	C 	0.799	0.7314	0.1444	0.042
Mof_C 	C 	0.8594	0.6431	0.1283	0.376
Mof_C 	C 	0.799	0.8556	0.587	0.09
Mof_C 	C 	0.8594	0.8717	0.5148	0.366
Mof_C 	C 	0.799	0.413	0.2686	0.035
Mof_C 	C 	0.8594	0.4852	0.3569	0.376
Mof_C 	C 	0.799	0.2686	0.8556	0.069
Mof_C 	C 	0.8594	0.3569	0.8717	0.368
Mof_C 	C 	0.799	0.1444	0.413	0.022
Mof_C 	C 	0.8594	0.1283	0.4852	0.378
Mof_C 	C 	0.799	0.587	0.7314	0.076
Mof_C 	C 	0.8594	0.5148	0.6431	0.371
Mof_C 	C 	0.299	0.413	0.1444	-0.009
Mof_C 	C 	0.3594	0.4852	0.1283	0.387
Mof_C 	C 	0.299	0.7314	0.587	0.047
Mof_C 	C 	0.3594	0.6431	0.5148	0.38
Mof_C 	C 	0.299	0.8556	0.2686	0.04
Mof_C 	C 	0.3594	0.8717	0.3569	0.377
Mof_C 	C 	0.299	0.587	0.8556	0.061
Mof_C 	C 	0.3594	0.5148	0.8717	0.374
Mof_C 	C 	0.299	0.2686	0.413	0.004
Mof_C 	C 	0.3594	0.3569	0.4852	0.385
Mof_C 	C 	0.299	0.1444	0.7314	0.013
Mof_C 	C 	0.3594	0.1283	0.6431	0.385
Mof_C 	C 	0.201	0.2686	0.8556	0.028
Mof_C 	C 	0.1406	0.3569	0.8717	0.377
Mof_C 	C 	0.201	0.1444	0.413	-0.021
Mof_C 	C 	0.1406	0.1283	0.4852	0.388
Mof_C 	C 	0.201	0.587	0.7314	0.034
Mof_C 	C 	0.1406	0.5148	0.6431	0.381
Mof_C 	C 	0.201	0.7314	0.1444	0
Mof_C 	C 	0.1406	0.6431	0.1283	0.385
Mof_C 	C 	0.201	0.8556	0.587	0.049
Mof_C 	C 	0.1406	0.8717	0.5148	0.375
Mof_C 	C 	0.201	0.413	0.2686	-0.008
Mof_C 	C 	0.1406	0.4852	0.3569	0.386
Mof_O 	O 	0.6408	0.4215	0.8064	-0.517
Mof_O 	O 	0.5925	0.5568	0.9503	-0.343
Mof_O 	O 	0.6408	0.3849	0.5785	-0.532
Mof_O 	O 	0.5925	0.3935	0.4432	-0.397
Mof_O 	O 	0.6408	0.1936	0.6151	-0.538
Mof_O 	O 	0.5925	0.0497	0.6065	-0.416
Mof_O 	O 	0.6408	0.5785	0.1936	-0.54
Mof_O 	O 	0.5925	0.4432	0.0497	-0.423
Mof_O 	O 	0.6408	0.6151	0.4215	-0.529
Mof_O 	O 	0.5925	0.6065	0.5568	-0.383
Mof_O 	O 	0.6408	0.8064	0.3849	-0.518
Mof_O 	O 	0.5925	0.9503	0.3935	-0.35
Mof_O 	O 	0.8592	0.6151	0.1936	-0.509
Mof_O 	O 	0.9075	0.6065	0.0497	-0.357
Mof_O 	O 	0.8592	0.8064	0.4215	-0.488
Mof_O 	O 	0.9075	0.9503	0.5568	-0.286
Mof_O 	O 	0.8592	0.5785	0.3849	-0.502
Mof_O 	O 	0.9075	0.4432	0.3935	-0.338
Mof_O 	O 	0.8592	0.3849	0.8064	-0.489
Mof_O 	O 	0.9075	0.3935	0.9503	-0.293
Mof_O 	O 	0.8592	0.1936	0.5785	-0.51
Mof_O 	O 	0.9075	0.0497	0.4432	-0.363
Mof_O 	O 	0.8592	0.4215	0.6151	-0.499
Mof_O 	O 	0.9075	0.5568	0.6065	-0.324
Mof_O 	O 	0.3592	0.5785	0.1936	-0.537
Mof_O 	O 	0.4075	0.4432	0.0497	-0.424
Mof_O 	O 	0.3592	0.6151	0.4215	-0.526
Mof_O 	O 	0.4075	0.6065	0.5568	-0.384
Mof_O 	O 	0.3592	0.8064	0.3849	-0.516
Mof_O 	O 	0.4075	0.9503	0.3935	-0.351
Mof_O 	O 	0.3592	0.4215	0.8064	-0.514
Mof_O 	O 	0.4075	0.5568	0.9503	-0.344
Mof_O 	O 	0.3592	0.3849	0.5785	-0.529
Mof_O 	O 	0.4075	0.3935	0.4432	-0.399
Mof_O 	O 	0.3592	0.1936	0.6151	-0.536
Mof_O 	O 	0.4075	0.0497	0.6065	-0.417
Mof_O 	O 	0.1408	0.3849	0.8064	-0.538
Mof_O 	O 	0.0925	0.3935	0.9503	-0.384
Mof_O 	O 	0.1408	0.1936	0.5785	-0.56
Mof_O 	O 	0.0925	0.0497	0.4432	-0.458
Mof_O 	O 	0.1408	0.4215	0.6151	-0.548
Mof_O 	O 	0.0925	0.5568	0.6065	-0.418
Mof_O 	O 	0.1408	0.6151	0.1936	-0.558
Mof_O 	O 	0.0925	0.6065	0.0497	-0.451
Mof_O 	O 	0.1408	0.8064	0.4215	-0.536
Mof_O 	O 	0.0925	0.9503	0.5568	-0.377
Mof_O 	O 	0.1408	0.5785	0.3849	-0.552
Mof_O 	O 	0.0925	0.4432	0.3935	-0.433
Mof_O 	O 	0.75	0.5262	0.7631	-0.399
Mof_O 	O 	0.75	0.2369	0.4738	-0.391
Mof_O 	O 	0.75	0.2369	0.7631	-0.395
Mof_O 	O 	0.75	0.4738	0.2369	-0.391
Mof_O 	O 	0.75	0.7631	0.5262	-0.399
Mof_O 	O 	0.75	0.7631	0.2369	-0.395
Mof_O 	O 	0.25	0.4738	0.2369	-0.386
Mof_O 	O 	0.25	0.7631	0.5262	-0.394
Mof_O 	O 	0.25	0.7631	0.2369	-0.39
Mof_O 	O 	0.25	0.5262	0.7631	-0.394
Mof_O 	O 	0.25	0.2369	0.4738	-0.386
Mof_O 	O 	0.25	0.2369	0.7631	-0.39
_end
