data_functionalizedCrystal
_audit_creation_method	'EQeq! by Chris Wilmer'
_symmetry_space_group_name_H-M	'P1'
_symmetry_Int_Tables_number	1
_symmetry_cell_setting	triclinic
loop_
_symmetry_equiv_pos_as_xyz
  x,y,z
_cell_length_a	9.2823
_cell_length_b	14.575
_cell_length_c	19.371
_cell_angle_alpha	90
_cell_angle_beta	98.05
_cell_angle_gamma	90
loop_
_atom_site_label
_atom_site_type_symbol
_atom_site_fract_x
_atom_site_fract_y
_atom_site_fract_z
_atom_site_charge
Mof_W 	W 	0.22714	0.31095	0.3499	0.349
Mof_Cu	Cu	0.11694	0.14224	0.31144	0.822
Mof_Cu	Cu	0.20178	0.36407	0.21391	0.827
Mof_Cu	Cu	0.24557	0.26692	0.48306	0.814
Mof_S 	S 	0.03373	0.28398	0.27103	-0.497
Mof_S 	S 	0.3057	0.17558	0.39802	-0.522
Mof_S 	S 	0.39869	0.37476	0.30001	-0.32
Mof_S 	S 	0.16465	0.3988	0.43416	-0.338
Mof_N 	N 	0.2412	0.0881	0.2326	-0.232
Mof_N 	N 	0.25	0.3039	0.1298	-0.202
Mof_N 	N 	0.9034	0.9832	0.3129	-0.195
Mof_N 	N 	0.3978	0.9422	0.0195	-0.093
Mof_N 	N 	0.5413	0.0776	0.0372	-0.106
Mof_C 	C 	0.9786	0.0453	0.3181	-0.197
Mof_C 	C 	0.2561	0.2732	0.0758	-0.213
Mof_C 	C 	0.176	0.0334	0.1826	0.076
Mof_H 	H 	0.0845	0.0106	0.1876	-0.018
Mof_C 	C 	0.2352	0.0083	0.1241	-0.151
Mof_H 	H 	0.1848	0.9707	0.0902	0.088
Mof_C 	C 	0.3723	0.041	0.1177	0.065
Mof_C 	C 	0.4426	0.0962	0.1692	-0.149
Mof_H 	H 	0.5358	0.118	0.1665	0.078
Mof_C 	C 	0.3726	0.1183	0.2246	0.069
Mof_H 	H 	0.42	0.1568	0.2588	-0.021
Mof_C 	C 	0.4422	0.0195	0.0545	0.066
Mof_W 	W 	0.77286	0.81095	0.1501	0.351
Mof_Cu	Cu	0.88306	0.64224	0.18856	0.823
Mof_Cu	Cu	0.79822	0.86407	0.28609	0.828
Mof_Cu	Cu	0.75443	0.76692	0.01694	0.815
Mof_S 	S 	0.96627	0.78398	0.22897	-0.498
Mof_S 	S 	0.6943	0.67558	0.10198	-0.522
Mof_S 	S 	0.60131	0.87476	0.19999	-0.32
Mof_S 	S 	0.83535	0.8988	0.06584	-0.341
Mof_N 	N 	0.7588	0.5881	0.2674	-0.232
Mof_N 	N 	0.75	0.8039	0.3702	-0.202
Mof_N 	N 	0.0966	0.4832	0.1871	-0.193
Mof_N 	N 	0.6022	0.4422	0.4805	-0.093
Mof_N 	N 	0.4587	0.5776	0.4628	-0.107
Mof_C 	C 	0.0214	0.5453	0.1819	-0.199
Mof_C 	C 	0.7439	0.7732	0.4242	-0.214
Mof_C 	C 	0.824	0.5334	0.3174	0.076
Mof_H 	H 	0.9155	0.5106	0.3124	-0.018
Mof_C 	C 	0.7648	0.5083	0.3759	-0.151
Mof_H 	H 	0.8152	0.4707	0.4098	0.088
Mof_C 	C 	0.6277	0.541	0.3823	0.065
Mof_C 	C 	0.5574	0.5962	0.3308	-0.149
Mof_H 	H 	0.4642	0.618	0.3335	0.078
Mof_C 	C 	0.6274	0.6183	0.2754	0.069
Mof_H 	H 	0.58	0.6568	0.2412	-0.021
Mof_C 	C 	0.5578	0.5195	0.4455	0.065
Mof_W 	W 	0.77286	0.68905	0.6501	0.35
Mof_Cu	Cu	0.88306	0.85776	0.68856	0.823
Mof_Cu	Cu	0.79822	0.63593	0.78609	0.828
Mof_Cu	Cu	0.75443	0.73308	0.51694	0.815
Mof_S 	S 	0.96627	0.71602	0.72897	-0.497
Mof_S 	S 	0.6943	0.82442	0.60198	-0.522
Mof_S 	S 	0.60131	0.62524	0.69999	-0.32
Mof_S 	S 	0.83535	0.6012	0.56584	-0.338
Mof_N 	N 	0.7588	0.9119	0.7674	-0.232
Mof_N 	N 	0.75	0.6961	0.8702	-0.202
Mof_N 	N 	0.0966	0.0168	0.6871	-0.195
Mof_N 	N 	0.6022	0.0578	0.9805	-0.093
Mof_N 	N 	0.4587	0.9224	0.9628	-0.106
Mof_C 	C 	0.0214	0.9547	0.6819	-0.197
Mof_C 	C 	0.7439	0.7268	0.9242	-0.213
Mof_C 	C 	0.824	0.9666	0.8174	0.076
Mof_H 	H 	0.9155	0.9894	0.8124	-0.018
Mof_C 	C 	0.7648	0.9917	0.8759	-0.151
Mof_H 	H 	0.8152	0.0293	0.9098	0.088
Mof_C 	C 	0.6277	0.959	0.8823	0.065
Mof_C 	C 	0.5574	0.9038	0.8308	-0.149
Mof_H 	H 	0.4642	0.882	0.8335	0.078
Mof_C 	C 	0.6274	0.8817	0.7754	0.069
Mof_H 	H 	0.58	0.8432	0.7412	-0.021
Mof_C 	C 	0.5578	0.9805	0.9455	0.066
Mof_W 	W 	0.22714	0.18905	0.8499	0.351
Mof_Cu	Cu	0.11694	0.35776	0.81144	0.823
Mof_Cu	Cu	0.20178	0.13593	0.71391	0.828
Mof_Cu	Cu	0.24557	0.23308	0.98306	0.815
Mof_S 	S 	0.03373	0.21602	0.77103	-0.498
Mof_S 	S 	0.3057	0.32442	0.89802	-0.522
Mof_S 	S 	0.39869	0.12524	0.80001	-0.32
Mof_S 	S 	0.16465	0.1012	0.93416	-0.341
Mof_N 	N 	0.2412	0.4119	0.7326	-0.232
Mof_N 	N 	0.25	0.1961	0.6298	-0.202
Mof_N 	N 	0.9034	0.5168	0.8129	-0.193
Mof_N 	N 	0.3978	0.5578	0.5195	-0.093
Mof_N 	N 	0.5413	0.4224	0.5372	-0.107
Mof_C 	C 	0.9786	0.4547	0.8181	-0.199
Mof_C 	C 	0.2561	0.2268	0.5758	-0.214
Mof_C 	C 	0.176	0.4666	0.6826	0.076
Mof_H 	H 	0.0845	0.4894	0.6876	-0.018
Mof_C 	C 	0.2352	0.4917	0.6241	-0.151
Mof_H 	H 	0.1848	0.5293	0.5902	0.088
Mof_C 	C 	0.3723	0.459	0.6177	0.065
Mof_C 	C 	0.4426	0.4038	0.6692	-0.149
Mof_H 	H 	0.5358	0.382	0.6665	0.078
Mof_C 	C 	0.3726	0.3817	0.7246	0.069
Mof_H 	H 	0.42	0.3432	0.7588	-0.021
Mof_C 	C 	0.4422	0.4805	0.5545	0.065
_end
