data_functionalizedCrystal
_audit_creation_method	'EQeq! by Chris Wilmer'
_symmetry_space_group_name_H-M	'P1'
_symmetry_Int_Tables_number	1
_symmetry_cell_setting	triclinic
loop_
_symmetry_equiv_pos_as_xyz
  x,y,z
_cell_length_a	13.3299
_cell_length_b	13.6362
_cell_length_c	15.29
_cell_angle_alpha	108.916
_cell_angle_beta	101.898
_cell_angle_gamma	111.691
loop_
_atom_site_label
_atom_site_type_symbol
_atom_site_fract_x
_atom_site_fract_y
_atom_site_fract_z
_atom_site_charge
Mof_La	La	0.31604	0.35235	0.5735	2.307
Mof_La	La	0.09936	0.10653	0.65392	2.259
Mof_La	La	0.68396	0.64765	0.4265	2.306
Mof_La	La	0.90064	0.89347	0.34607	2.258
Mof_P 	P 	0.9874	0.17602	0.44251	0.48
Mof_P 	P 	0.41857	0.22557	0.7346	0.503
Mof_P 	P 	0.21765	0.07775	0.43968	0.493
Mof_P 	P 	0.38499	0.40817	0.36889	0.54
Mof_P 	P 	0.81688	0.82315	0.07088	0.458
Mof_P 	P 	0.0126	0.82398	0.55749	0.48
Mof_P 	P 	0.58143	0.77443	0.2654	0.503
Mof_P 	P 	0.78235	0.92225	0.56032	0.493
Mof_P 	P 	0.61501	0.59183	0.63111	0.54
Mof_P 	P 	0.18312	0.17685	0.92912	0.458
Mof_H 	H 	0.0669	0.4152	0.5333	0.124
Mof_H 	H 	0.4163	0.3386	0.9325	0.135
Mof_H 	H 	0.41	0.0561	0.5591	0.129
Mof_H 	H 	0.158	0.237	0.1258	0.135
Mof_H 	H 	0.9654	0.0833	0.2278	0.117
Mof_H 	H 	0.0611	0.4437	0.869	0.035
Mof_H 	H 	0.1153	0.6378	0.9731	0.06
Mof_H 	H 	0.2453	0.7899	0.9534	0.032
Mof_H 	H 	0.3249	0.7503	0.8358	0.059
Mof_H 	H 	0.9212	0.2709	0.5578	0.091
Mof_H 	H 	0.8424	0.2348	0.4494	0.092
Mof_H 	H 	0.8818	0.4545	0.5519	0.061
Mof_H 	H 	0.9829	0.4763	0.6417	0.053
Mof_H 	H 	0.984	0.3454	0.3651	0.056
Mof_H 	H 	0.8834	0.3742	0.3802	0.065
Mof_H 	H 	0.5968	0.3616	0.8656	0.102
Mof_H 	H 	0.5317	0.2582	0.8902	0.105
Mof_H 	H 	0.5839	0.4006	0.0582	0.067
Mof_H 	H 	0.6465	0.5045	0.0331	0.063
Mof_H 	H 	0.5314	0.5192	0.8895	0.053
Mof_H 	H 	0.4002	0.4248	0.83	0.03
Mof_H 	H 	0.253	0.9232	0.3659	0.098
Mof_H 	H 	0.2182	0.9149	0.4555	0.08
Mof_H 	H 	0.4513	0.0193	0.3841	0.067
Mof_H 	H 	0.4708	0.1408	0.4597	0.058
Mof_H 	H 	0.3513	0.8614	0.5183	0.044
Mof_H 	H 	0.3783	0.8466	0.4211	0.056
Mof_H 	H 	0.344	0.3475	0.2006	0.118
Mof_H 	H 	0.292	0.4312	0.238	0.107
Mof_H 	H 	0.2345	0.1401	0.1939	0.056
Mof_H 	H 	0.1892	0.1766	0.2798	0.06
Mof_H 	H 	0.1056	0.3047	0.2922	0.068
Mof_H 	H 	0.0938	0.3565	0.2149	0.052
Mof_H 	H 	0.9542	0.1702	0.0895	0.06
Mof_H 	H 	0.9127	0.2009	0.1788	0.051
Mof_H 	H 	0.0555	0.9861	0.1631	0.073
Mof_H 	H 	0.0461	0.0258	0.0776	0.066
Mof_H 	H 	0.7829	0.9854	0.1212	0.096
Mof_H 	H 	0.8229	0.9764	0.031	0.096
Mof_H 	H 	0.3924	0.269	0.3827	0.273
Mof_H 	H 	0.9331	0.5848	0.4667	0.124
Mof_H 	H 	0.5837	0.6614	0.0675	0.135
Mof_H 	H 	0.59	0.9439	0.4409	0.129
Mof_H 	H 	0.842	0.763	0.8742	0.135
Mof_H 	H 	0.0346	0.9167	0.7722	0.117
Mof_H 	H 	0.9389	0.5563	0.131	0.035
Mof_H 	H 	0.8847	0.3622	0.0269	0.06
Mof_H 	H 	0.7547	0.2101	0.0466	0.032
Mof_H 	H 	0.6751	0.2497	0.1642	0.059
Mof_H 	H 	0.0788	0.7291	0.4422	0.091
Mof_H 	H 	0.1576	0.7652	0.5506	0.092
Mof_H 	H 	0.1182	0.5455	0.4481	0.061
Mof_H 	H 	0.0171	0.5237	0.3583	0.053
Mof_H 	H 	0.016	0.6546	0.6349	0.056
Mof_H 	H 	0.1166	0.6258	0.6198	0.065
Mof_H 	H 	0.4032	0.6384	0.1344	0.102
Mof_H 	H 	0.4683	0.7418	0.1098	0.105
Mof_H 	H 	0.4161	0.5994	0.9418	0.067
Mof_H 	H 	0.3535	0.4955	0.9669	0.063
Mof_H 	H 	0.4686	0.4808	0.1105	0.053
Mof_H 	H 	0.5998	0.5752	0.17	0.03
Mof_H 	H 	0.747	0.0768	0.6341	0.098
Mof_H 	H 	0.7818	0.0851	0.5445	0.08
Mof_H 	H 	0.5487	0.9807	0.6159	0.067
Mof_H 	H 	0.5292	0.8592	0.5403	0.058
Mof_H 	H 	0.6487	0.1386	0.4817	0.044
Mof_H 	H 	0.6217	0.1534	0.5789	0.056
Mof_H 	H 	0.656	0.6525	0.7994	0.118
Mof_H 	H 	0.708	0.5688	0.762	0.107
Mof_H 	H 	0.7655	0.8599	0.8061	0.056
Mof_H 	H 	0.8108	0.8234	0.7202	0.06
Mof_H 	H 	0.8944	0.6953	0.7078	0.068
Mof_H 	H 	0.9062	0.6435	0.7851	0.052
Mof_H 	H 	0.0458	0.8298	0.9105	0.06
Mof_H 	H 	0.0873	0.7991	0.8212	0.051
Mof_H 	H 	0.9445	0.0139	0.8369	0.073
Mof_H 	H 	0.9539	0.9742	0.9224	0.066
Mof_H 	H 	0.2171	0.0146	0.8788	0.096
Mof_H 	H 	0.1771	0.0236	0.969	0.096
Mof_H 	H 	0.6076	0.731	0.6173	0.273
Mof_C 	C 	0.294	0.5472	0.705	0.254
Mof_C 	C 	0.1296	0.3548	0.7288	0.379
Mof_C 	C 	0.2412	0.5734	0.7808	-0.009
Mof_C 	C 	0.1617	0.4806	0.7906	-0.106
Mof_C 	C 	0.1145	0.505	0.862	0.013
Mof_C 	C 	0.1465	0.6217	0.9244	-0.082
Mof_C 	C 	0.2247	0.7124	0.913	-0.01
Mof_C 	C 	0.2718	0.6887	0.8425	-0.063
Mof_C 	C 	0.9221	0.2689	0.4939	-0.205
Mof_C 	C 	0.964	0.4777	0.5775	-0.063
Mof_C 	C 	0.9656	0.399	0.4099	-0.057
Mof_C 	C 	0.5219	0.3115	0.8641	-0.211
Mof_C 	C 	0.5729	0.455	0.0342	-0.077
Mof_C 	C 	0.4617	0.4693	0.8954	-0.021
Mof_C 	C 	0.2675	0.9685	0.4351	-0.2
Mof_C 	C 	0.4743	0.0693	0.4541	-0.064
Mof_C 	C 	0.4026	0.9007	0.4901	-0.051
Mof_C 	C 	0.2996	0.3641	0.2409	-0.228
Mof_C 	C 	0.1743	0.1573	0.21	-0.049
Mof_C 	C 	0.0905	0.2877	0.2227	-0.063
Mof_C 	C 	0.9705	0.183	0.1583	-0.059
Mof_C 	C 	0.0572	0.05	0.1474	-0.078
Mof_C 	C 	0.8392	0.9726	0.0943	-0.214
Mof_C 	C 	0.706	0.4528	0.295	0.254
Mof_C 	C 	0.8704	0.6452	0.2712	0.379
Mof_C 	C 	0.7588	0.4266	0.2192	-0.009
Mof_C 	C 	0.8383	0.5194	0.2094	-0.106
Mof_C 	C 	0.8855	0.495	0.138	0.013
Mof_C 	C 	0.8535	0.3783	0.0756	-0.082
Mof_C 	C 	0.7753	0.2876	0.087	-0.01
Mof_C 	C 	0.7282	0.3113	0.1575	-0.063
Mof_C 	C 	0.0779	0.7311	0.5061	-0.205
Mof_C 	C 	0.036	0.5223	0.4225	-0.063
Mof_C 	C 	0.0344	0.601	0.5901	-0.057
Mof_C 	C 	0.4781	0.6885	0.1359	-0.211
Mof_C 	C 	0.4271	0.545	0.9658	-0.077
Mof_C 	C 	0.5383	0.5307	0.1046	-0.021
Mof_C 	C 	0.7325	0.0315	0.5649	-0.2
Mof_C 	C 	0.5257	0.9307	0.5459	-0.064
Mof_C 	C 	0.5974	0.0993	0.5099	-0.051
Mof_C 	C 	0.7004	0.6359	0.7591	-0.228
Mof_C 	C 	0.8257	0.8427	0.79	-0.049
Mof_C 	C 	0.9095	0.7123	0.7773	-0.063
Mof_C 	C 	0.0295	0.817	0.8417	-0.059
Mof_C 	C 	0.9428	0.95	0.8526	-0.078
Mof_C 	C 	0.1608	0.0274	0.9057	-0.214
Mof_N 	N 	0.9898	0.3927	0.507	-0.131
Mof_N 	N 	0.4837	0.387	0.9306	-0.136
Mof_N 	N 	0.3915	0.0072	0.4947	-0.138
Mof_N 	N 	0.1797	0.2604	0.1926	-0.131
Mof_N 	N 	0.9599	0.0728	0.1648	-0.126
Mof_N 	N 	0.0102	0.6073	0.493	-0.131
Mof_N 	N 	0.5163	0.613	0.0694	-0.136
Mof_N 	N 	0.6085	0.9928	0.5053	-0.138
Mof_N 	N 	0.8203	0.7396	0.8074	-0.131
Mof_N 	N 	0.0401	0.9272	0.8352	-0.126
Mof_O 	O 	0.2299	0.501	0.6145	-0.387
Mof_O 	O 	0.3968	0.5634	0.7327	-0.357
Mof_O 	O 	0.202	0.3325	0.694	-0.586
Mof_O 	O 	0.0344	0.2744	0.7142	-0.421
Mof_O 	O 	0.9765	0.0987	0.497	-0.601
Mof_O 	O 	0.109	0.264	0.4629	-0.467
Mof_O 	O 	0.9142	0.0944	0.332	-0.39
Mof_O 	O 	0.4351	0.3117	0.6891	-0.473
Mof_O 	O 	0.4547	0.1339	0.6883	-0.279
Mof_O 	O 	0.3019	0.1738	0.7442	-0.484
Mof_O 	O 	0.2117	0.1313	0.5414	-0.612
Mof_O 	O 	0.3068	0.1796	0.4302	-0.449
Mof_O 	O 	0.1017	0.0054	0.3555	-0.474
Mof_O 	O 	0.3096	0.4031	0.4291	-0.454
Mof_O 	O 	0.4285	0.3135	0.3619	-0.469
Mof_O 	O 	0.4839	0.5269	0.3995	-0.484
Mof_O 	O 	0.6865	0.746	0.0255	-0.264
Mof_O 	O 	0.875	0.792	0.9971	-0.257
Mof_O 	O 	0.8777	0.8328	0.1705	-0.448
Mof_O 	O 	0.7701	0.499	0.3855	-0.387
Mof_O 	O 	0.6032	0.4366	0.2673	-0.357
Mof_O 	O 	0.798	0.6675	0.306	-0.586
Mof_O 	O 	0.9656	0.7256	0.2858	-0.421
Mof_O 	O 	0.0235	0.9013	0.503	-0.601
Mof_O 	O 	0.891	0.736	0.5371	-0.467
Mof_O 	O 	0.0858	0.9056	0.668	-0.39
Mof_O 	O 	0.5649	0.6883	0.3109	-0.473
Mof_O 	O 	0.5453	0.8661	0.3117	-0.279
Mof_O 	O 	0.6981	0.8262	0.2558	-0.484
Mof_O 	O 	0.7883	0.8687	0.4586	-0.612
Mof_O 	O 	0.6932	0.8204	0.5698	-0.449
Mof_O 	O 	0.8983	0.9946	0.6445	-0.474
Mof_O 	O 	0.6904	0.5969	0.5709	-0.454
Mof_O 	O 	0.5715	0.6865	0.6381	-0.469
Mof_O 	O 	0.5161	0.4731	0.6005	-0.484
Mof_O 	O 	0.3135	0.254	0.9745	-0.264
Mof_O 	O 	0.125	0.208	0.0029	-0.257
Mof_O 	O 	0.1223	0.1672	0.8295	-0.448
_end
