data_functionalizedCrystal
_audit_creation_method	'EQeq! by Chris Wilmer'
_symmetry_space_group_name_H-M	'P1'
_symmetry_Int_Tables_number	1
_symmetry_cell_setting	triclinic
loop_
_symmetry_equiv_pos_as_xyz
  x,y,z
_cell_length_a	14.652
_cell_length_b	14.894
_cell_length_c	29.736
_cell_angle_alpha	90
_cell_angle_beta	90
_cell_angle_gamma	90
loop_
_atom_site_label
_atom_site_type_symbol
_atom_site_fract_x
_atom_site_fract_y
_atom_site_fract_z
_atom_site_charge
Mof_N 	N 	0.2572	0.1474	0.30008	-0.175
Mof_N 	N 	0.2588	0.1477	0.45	-0.176
Mof_C 	C 	0.2643	0.0941	0.42245	0.032
Mof_C 	C 	0.2635	0.0936	0.3274	0.032
Mof_C 	C 	0.0466	0.3242	0.2428	0.008
Mof_H 	H 	0.0774	0.3785	0.2376	0.024
Mof_N 	N 	0.2572	0.6474	0.80008	-0.173
Mof_N 	N 	0.2588	0.6477	0.95	-0.162
Mof_C 	C 	0.2643	0.5941	0.92245	0.037
Mof_C 	C 	0.2635	0.5936	0.8274	0.032
Mof_C 	C 	0.0466	0.8242	0.7428	0.009
Mof_H 	H 	0.0774	0.8785	0.7376	0.027
Mof_N 	N 	0.7572	0.1474	0.80008	-0.175
Mof_N 	N 	0.7588	0.1477	0.95	-0.164
Mof_C 	C 	0.7643	0.0941	0.92245	0.037
Mof_C 	C 	0.7635	0.0936	0.8274	0.032
Mof_C 	C 	0.5466	0.3242	0.7428	0.008
Mof_H 	H 	0.5774	0.3785	0.7376	0.023
Mof_N 	N 	0.7572	0.6474	0.30008	-0.174
Mof_N 	N 	0.7588	0.6477	0.45	-0.175
Mof_C 	C 	0.7643	0.5941	0.42245	0.029
Mof_C 	C 	0.7635	0.5936	0.3274	0.03
Mof_C 	C 	0.5466	0.8242	0.2428	0.008
Mof_H 	H 	0.5774	0.8785	0.2376	0.026
Mof_N 	N 	0.7428	0.8526	0.30008	-0.177
Mof_N 	N 	0.7412	0.8523	0.45	-0.178
Mof_C 	C 	0.7357	0.9059	0.42245	0.046
Mof_C 	C 	0.7365	0.9064	0.3274	0.047
Mof_C 	C 	0.9534	0.6758	0.2428	0.008
Mof_H 	H 	0.9226	0.6215	0.2376	0.023
Mof_N 	N 	0.7428	0.3526	0.80008	-0.174
Mof_N 	N 	0.7412	0.3523	0.95	-0.163
Mof_C 	C 	0.7357	0.4059	0.92245	0.035
Mof_C 	C 	0.7365	0.4064	0.8274	0.03
Mof_C 	C 	0.9534	0.1758	0.7428	0.007
Mof_H 	H 	0.9226	0.1215	0.7376	0.021
Mof_N 	N 	0.2428	0.8526	0.80008	-0.177
Mof_N 	N 	0.2412	0.8523	0.95	-0.166
Mof_C 	C 	0.2357	0.9059	0.92245	0.053
Mof_C 	C 	0.2365	0.9064	0.8274	0.048
Mof_C 	C 	0.4534	0.6758	0.7428	0.008
Mof_H 	H 	0.4226	0.6215	0.7376	0.023
Mof_N 	N 	0.2428	0.3526	0.30008	-0.174
Mof_N 	N 	0.2412	0.3523	0.45	-0.175
Mof_C 	C 	0.2357	0.4059	0.42245	0.029
Mof_C 	C 	0.2365	0.4064	0.3274	0.03
Mof_C 	C 	0.4534	0.1758	0.2428	0.007
Mof_H 	H 	0.4226	0.1215	0.2376	0.021
Mof_N 	N 	0.7428	0.1474	0.69992	-0.176
Mof_N 	N 	0.7412	0.1477	0.55	-0.177
Mof_C 	C 	0.7357	0.0941	0.57755	0.031
Mof_C 	C 	0.7365	0.0936	0.6726	0.031
Mof_C 	C 	0.9534	0.3242	0.7572	0.008
Mof_H 	H 	0.9226	0.3785	0.7624	0.024
Mof_N 	N 	0.7428	0.6474	0.19992	-0.174
Mof_N 	N 	0.7412	0.6477	0.05	-0.175
Mof_C 	C 	0.7357	0.5941	0.07755	0.028
Mof_C 	C 	0.7365	0.5936	0.1726	0.03
Mof_C 	C 	0.9534	0.8242	0.2572	0.008
Mof_H 	H 	0.9226	0.8785	0.2624	0.026
Mof_N 	N 	0.2428	0.1474	0.19992	-0.176
Mof_N 	N 	0.2412	0.1477	0.05	-0.176
Mof_C 	C 	0.2357	0.0941	0.07755	0.03
Mof_C 	C 	0.2365	0.0936	0.1726	0.031
Mof_C 	C 	0.4534	0.3242	0.2572	0.007
Mof_H 	H 	0.4226	0.3785	0.2624	0.023
Mof_N 	N 	0.2428	0.6474	0.69992	-0.175
Mof_N 	N 	0.2412	0.6477	0.55	-0.175
Mof_C 	C 	0.2357	0.5941	0.57755	0.029
Mof_C 	C 	0.2365	0.5936	0.6726	0.03
Mof_C 	C 	0.4534	0.8242	0.7572	0.009
Mof_H 	H 	0.4226	0.8785	0.7624	0.027
Mof_N 	N 	0.2572	0.8526	0.69992	-0.177
Mof_N 	N 	0.2588	0.8523	0.55	-0.178
Mof_C 	C 	0.2643	0.9059	0.57755	0.046
Mof_C 	C 	0.2635	0.9064	0.6726	0.047
Mof_C 	C 	0.0466	0.6758	0.7572	0.008
Mof_H 	H 	0.0774	0.6215	0.7624	0.024
Mof_N 	N 	0.2572	0.3526	0.19992	-0.174
Mof_N 	N 	0.2588	0.3523	0.05	-0.175
Mof_C 	C 	0.2643	0.4059	0.07755	0.028
Mof_C 	C 	0.2635	0.4064	0.1726	0.03
Mof_C 	C 	0.0466	0.1758	0.2572	0.007
Mof_H 	H 	0.0774	0.1215	0.2624	0.021
Mof_N 	N 	0.7572	0.8526	0.19992	-0.177
Mof_N 	N 	0.7588	0.8523	0.05	-0.178
Mof_C 	C 	0.7643	0.9059	0.07755	0.045
Mof_C 	C 	0.7635	0.9064	0.1726	0.047
Mof_C 	C 	0.5466	0.6758	0.2572	0.008
Mof_H 	H 	0.5774	0.6215	0.2624	0.023
Mof_N 	N 	0.7572	0.3526	0.69992	-0.175
Mof_N 	N 	0.7588	0.3523	0.55	-0.175
Mof_C 	C 	0.7643	0.4059	0.57755	0.029
Mof_C 	C 	0.7635	0.4064	0.6726	0.029
Mof_C 	C 	0.5466	0.1758	0.7572	0.008
Mof_H 	H 	0.5774	0.1215	0.7624	0.021
Mof_N 	N 	0.7428	0.8526	0.69992	-0.177
Mof_N 	N 	0.7412	0.8523	0.55	-0.178
Mof_C 	C 	0.7357	0.9059	0.57755	0.046
Mof_C 	C 	0.7365	0.9064	0.6726	0.047
Mof_C 	C 	0.9534	0.6758	0.7572	0.008
Mof_H 	H 	0.9226	0.6215	0.7624	0.024
Mof_N 	N 	0.7428	0.3526	0.19992	-0.174
Mof_N 	N 	0.7412	0.3523	0.05	-0.175
Mof_C 	C 	0.7357	0.4059	0.07755	0.028
Mof_C 	C 	0.7365	0.4064	0.1726	0.03
Mof_C 	C 	0.9534	0.1758	0.2572	0.007
Mof_H 	H 	0.9226	0.1215	0.2624	0.021
Mof_N 	N 	0.2428	0.8526	0.19992	-0.177
Mof_N 	N 	0.2412	0.8523	0.05	-0.178
Mof_C 	C 	0.2357	0.9059	0.07755	0.045
Mof_C 	C 	0.2365	0.9064	0.1726	0.047
Mof_C 	C 	0.4534	0.6758	0.2572	0.008
Mof_H 	H 	0.4226	0.6215	0.2624	0.023
Mof_N 	N 	0.2428	0.3526	0.69992	-0.175
Mof_N 	N 	0.2412	0.3523	0.55	-0.175
Mof_C 	C 	0.2357	0.4059	0.57755	0.029
Mof_C 	C 	0.2365	0.4064	0.6726	0.029
Mof_C 	C 	0.4534	0.1758	0.7572	0.008
Mof_H 	H 	0.4226	0.1215	0.7624	0.021
Mof_N 	N 	0.2572	0.1474	0.69992	-0.176
Mof_N 	N 	0.2588	0.1477	0.55	-0.177
Mof_C 	C 	0.2643	0.0941	0.57755	0.031
Mof_C 	C 	0.2635	0.0936	0.6726	0.031
Mof_C 	C 	0.0466	0.3242	0.7572	0.008
Mof_H 	H 	0.0774	0.3785	0.7624	0.024
Mof_N 	N 	0.2572	0.6474	0.19992	-0.174
Mof_N 	N 	0.2588	0.6477	0.05	-0.175
Mof_C 	C 	0.2643	0.5941	0.07755	0.028
Mof_C 	C 	0.2635	0.5936	0.1726	0.03
Mof_C 	C 	0.0466	0.8242	0.2572	0.008
Mof_H 	H 	0.0774	0.8785	0.2624	0.026
Mof_N 	N 	0.7572	0.1474	0.19992	-0.176
Mof_N 	N 	0.7588	0.1477	0.05	-0.176
Mof_C 	C 	0.7643	0.0941	0.07755	0.03
Mof_C 	C 	0.7635	0.0936	0.1726	0.031
Mof_C 	C 	0.5466	0.3242	0.2572	0.007
Mof_H 	H 	0.5774	0.3785	0.2624	0.023
Mof_N 	N 	0.7572	0.6474	0.69992	-0.175
Mof_N 	N 	0.7588	0.6477	0.55	-0.175
Mof_C 	C 	0.7643	0.5941	0.57755	0.029
Mof_C 	C 	0.7635	0.5936	0.6726	0.03
Mof_C 	C 	0.5466	0.8242	0.7572	0.009
Mof_H 	H 	0.5774	0.8785	0.7624	0.027
Mof_N 	N 	0.2572	0.8526	0.30008	-0.177
Mof_N 	N 	0.2588	0.8523	0.45	-0.178
Mof_C 	C 	0.2643	0.9059	0.42245	0.046
Mof_C 	C 	0.2635	0.9064	0.3274	0.047
Mof_C 	C 	0.0466	0.6758	0.2428	0.008
Mof_H 	H 	0.0774	0.6215	0.2376	0.023
Mof_N 	N 	0.2572	0.3526	0.80008	-0.174
Mof_N 	N 	0.2588	0.3523	0.95	-0.163
Mof_C 	C 	0.2643	0.4059	0.92245	0.035
Mof_C 	C 	0.2635	0.4064	0.8274	0.03
Mof_C 	C 	0.0466	0.1758	0.7428	0.007
Mof_H 	H 	0.0774	0.1215	0.7376	0.021
Mof_N 	N 	0.7572	0.8526	0.80008	-0.177
Mof_N 	N 	0.7588	0.8523	0.95	-0.166
Mof_C 	C 	0.7643	0.9059	0.92245	0.053
Mof_C 	C 	0.7635	0.9064	0.8274	0.048
Mof_C 	C 	0.5466	0.6758	0.7428	0.008
Mof_H 	H 	0.5774	0.6215	0.7376	0.023
Mof_N 	N 	0.7572	0.3526	0.30008	-0.174
Mof_N 	N 	0.7588	0.3523	0.45	-0.175
Mof_C 	C 	0.7643	0.4059	0.42245	0.029
Mof_C 	C 	0.7635	0.4064	0.3274	0.03
Mof_C 	C 	0.5466	0.1758	0.2428	0.007
Mof_H 	H 	0.5774	0.1215	0.2376	0.021
Mof_N 	N 	0.7428	0.1474	0.30008	-0.176
Mof_N 	N 	0.7412	0.1477	0.45	-0.177
Mof_C 	C 	0.7357	0.0941	0.42245	0.031
Mof_C 	C 	0.7365	0.0936	0.3274	0.031
Mof_C 	C 	0.9534	0.3242	0.2428	0.007
Mof_H 	H 	0.9226	0.3785	0.2376	0.023
Mof_N 	N 	0.7428	0.6474	0.80008	-0.174
Mof_N 	N 	0.7412	0.6477	0.95	-0.163
Mof_C 	C 	0.7357	0.5941	0.92245	0.036
Mof_C 	C 	0.7365	0.5936	0.8274	0.031
Mof_C 	C 	0.9534	0.8242	0.7428	0.008
Mof_H 	H 	0.9226	0.8785	0.7376	0.026
Mof_N 	N 	0.2428	0.1474	0.80008	-0.176
Mof_N 	N 	0.2412	0.1477	0.95	-0.165
Mof_C 	C 	0.2357	0.0941	0.92245	0.037
Mof_C 	C 	0.2365	0.0936	0.8274	0.032
Mof_C 	C 	0.4534	0.3242	0.7428	0.008
Mof_H 	H 	0.4226	0.3785	0.7376	0.023
Mof_N 	N 	0.2428	0.6474	0.30008	-0.174
Mof_N 	N 	0.2412	0.6477	0.45	-0.175
Mof_C 	C 	0.2357	0.5941	0.42245	0.029
Mof_C 	C 	0.2365	0.5936	0.3274	0.03
Mof_C 	C 	0.4534	0.8242	0.2428	0.008
Mof_H 	H 	0.4226	0.8785	0.2376	0.026
Mof_Pt	Pt	0.26694	0	0.37499	0.081
Mof_Pt	Pt	0.26694	0.5	0.87499	0.121
Mof_Pt	Pt	0.76694	1.55604e-32	0.87499	0.088
Mof_Pt	Pt	0.76694	0.5	0.37499	0.114
Mof_Pt	Pt	0.73306	0	0.37499	0.081
Mof_Pt	Pt	0.73306	0.5	0.87499	0.121
Mof_Pt	Pt	0.23306	1.55604e-32	0.87499	0.088
Mof_Pt	Pt	0.23306	0.5	0.37499	0.114
Mof_Pt	Pt	0.73306	0	0.62501	0.081
Mof_Pt	Pt	0.73306	0.5	0.12501	0.115
Mof_Pt	Pt	0.23306	0	0.12501	0.082
Mof_Pt	Pt	0.23306	0.5	0.62501	0.114
Mof_Pt	Pt	0.26694	0	0.62501	0.081
Mof_Pt	Pt	0.26694	0.5	0.12501	0.115
Mof_Pt	Pt	0.76694	0	0.12501	0.082
Mof_Pt	Pt	0.76694	0.5	0.62501	0.114
Mof_Fe	Fe	0.25	0.25	0.5	0.646
Mof_Fe	Fe	0.25	0.75	-0	0.629
Mof_Fe	Fe	0.75	0.75	0.5	0.649
Mof_Fe	Fe	0.75	0.25	-0	0.626
Mof_Fe	Fe	0.75	0.25	0.5	0.646
Mof_Fe	Fe	0.75	0.75	-0	0.629
Mof_Fe	Fe	0.25	0.25	-0	0.626
Mof_Fe	Fe	0.25	0.75	0.5	0.649
Mof_Fe	Fe	0.25	0.25	0.25	0.646
Mof_Fe	Fe	0.75	0.75	0.25	0.649
Mof_Fe	Fe	0.75	0.25	0.75	0.647
Mof_Fe	Fe	0.25	0.75	0.75	0.65
Mof_Fe	Fe	0.75	0.75	0.75	0.65
Mof_Fe	Fe	0.75	0.25	0.25	0.646
Mof_Fe	Fe	0.25	0.75	0.25	0.649
Mof_Fe	Fe	0.25	0.25	0.75	0.647
Mof_N 	N 	0.0951	0.2438	0.5	-0.156
Mof_C 	C 	0.0482	0.1698	0.5	0.011
Mof_C 	C 	0.0482	0.3175	0.5	0.012
Mof_H 	H 	0.0793	0.1146	0.5	0.019
Mof_H 	H 	0.0793	0.3727	0.5	0.022
Mof_N 	N 	0.0951	0.7438	-0	-0.157
Mof_C 	C 	0.0482	0.6698	-0	0.009
Mof_C 	C 	0.0482	0.8175	-0	0.01
Mof_H 	H 	0.0793	0.6146	-0	0.018
Mof_H 	H 	0.0793	0.8727	-0	0.021
Mof_N 	N 	0.5951	0.2438	-0	-0.157
Mof_C 	C 	0.5482	0.1698	-0	0.009
Mof_C 	C 	0.5482	0.3175	-0	0.009
Mof_H 	H 	0.5793	0.1146	-0	0.015
Mof_H 	H 	0.5793	0.3727	-0	0.018
Mof_N 	N 	0.5951	0.7438	0.5	-0.155
Mof_C 	C 	0.5482	0.6698	0.5	0.012
Mof_C 	C 	0.5482	0.8175	0.5	0.012
Mof_H 	H 	0.5793	0.6146	0.5	0.021
Mof_H 	H 	0.5793	0.8727	0.5	0.025
Mof_N 	N 	0.9049	0.7562	0.5	-0.155
Mof_C 	C 	0.9518	0.8302	0.5	0.012
Mof_C 	C 	0.9518	0.6825	0.5	0.012
Mof_H 	H 	0.9207	0.8854	0.5	0.024
Mof_H 	H 	0.9207	0.6273	0.5	0.022
Mof_N 	N 	0.9049	0.2562	-0	-0.157
Mof_C 	C 	0.9518	0.3302	-0	0.009
Mof_C 	C 	0.9518	0.1825	-0	0.009
Mof_H 	H 	0.9207	0.3854	-0	0.018
Mof_H 	H 	0.9207	0.1273	-0	0.016
Mof_N 	N 	0.4049	0.7562	-0	-0.157
Mof_C 	C 	0.4518	0.8302	-0	0.01
Mof_C 	C 	0.4518	0.6825	-0	0.009
Mof_H 	H 	0.4207	0.8854	-0	0.021
Mof_H 	H 	0.4207	0.6273	-0	0.018
Mof_N 	N 	0.4049	0.2562	0.5	-0.156
Mof_C 	C 	0.4518	0.3302	0.5	0.012
Mof_C 	C 	0.4518	0.1825	0.5	0.011
Mof_H 	H 	0.4207	0.3854	0.5	0.021
Mof_H 	H 	0.4207	0.1273	0.5	0.02
Mof_N 	N 	0.9049	0.2438	0.5	-0.156
Mof_C 	C 	0.9518	0.1698	0.5	0.011
Mof_C 	C 	0.9518	0.3175	0.5	0.012
Mof_H 	H 	0.9207	0.1146	0.5	0.019
Mof_H 	H 	0.9207	0.3727	0.5	0.022
Mof_N 	N 	0.9049	0.7438	-0	-0.157
Mof_C 	C 	0.9518	0.6698	-0	0.009
Mof_C 	C 	0.9518	0.8175	-0	0.01
Mof_H 	H 	0.9207	0.6146	-0	0.018
Mof_H 	H 	0.9207	0.8727	-0	0.021
Mof_N 	N 	0.4049	0.2438	-0	-0.157
Mof_C 	C 	0.4518	0.1698	-0	0.009
Mof_C 	C 	0.4518	0.3175	-0	0.009
Mof_H 	H 	0.4207	0.1146	-0	0.015
Mof_H 	H 	0.4207	0.3727	-0	0.018
Mof_N 	N 	0.4049	0.7438	0.5	-0.155
Mof_C 	C 	0.4518	0.6698	0.5	0.012
Mof_C 	C 	0.4518	0.8175	0.5	0.012
Mof_H 	H 	0.4207	0.6146	0.5	0.021
Mof_H 	H 	0.4207	0.8727	0.5	0.025
Mof_N 	N 	0.0951	0.7562	0.5	-0.155
Mof_C 	C 	0.0482	0.8302	0.5	0.012
Mof_C 	C 	0.0482	0.6825	0.5	0.012
Mof_H 	H 	0.0793	0.8854	0.5	0.024
Mof_H 	H 	0.0793	0.6273	0.5	0.022
Mof_N 	N 	0.0951	0.2562	-0	-0.157
Mof_C 	C 	0.0482	0.3302	-0	0.009
Mof_C 	C 	0.0482	0.1825	-0	0.009
Mof_H 	H 	0.0793	0.3854	-0	0.018
Mof_H 	H 	0.0793	0.1273	-0	0.016
Mof_N 	N 	0.5951	0.7562	-0	-0.157
Mof_C 	C 	0.5482	0.8302	-0	0.01
Mof_C 	C 	0.5482	0.6825	-0	0.009
Mof_H 	H 	0.5793	0.8854	-0	0.021
Mof_H 	H 	0.5793	0.6273	-0	0.018
Mof_N 	N 	0.5951	0.2562	0.5	-0.156
Mof_C 	C 	0.5482	0.3302	0.5	0.012
Mof_C 	C 	0.5482	0.1825	0.5	0.011
Mof_H 	H 	0.5793	0.3854	0.5	0.021
Mof_H 	H 	0.5793	0.1273	0.5	0.02
Mof_N 	N 	0.0956	0.25	0.25	-0.153
Mof_N 	N 	0.5956	0.25	0.75	-0.153
Mof_N 	N 	0.9044	0.75	0.25	-0.152
Mof_N 	N 	0.4044	0.75	0.75	-0.152
Mof_N 	N 	0.4044	0.25	0.25	-0.153
Mof_N 	N 	0.9044	0.25	0.75	-0.153
Mof_N 	N 	0.0956	0.75	0.75	-0.152
Mof_N 	N 	0.5956	0.75	0.25	-0.152
Mof_N 	N 	0.9044	0.75	0.75	-0.152
Mof_N 	N 	0.9044	0.25	0.25	-0.153
Mof_N 	N 	0.4044	0.75	0.25	-0.152
Mof_N 	N 	0.0956	0.25	0.75	-0.153
Mof_N 	N 	0.5956	0.25	0.25	-0.153
Mof_N 	N 	0.0956	0.75	0.25	-0.152
Mof_N 	N 	0.5956	0.75	0.75	-0.152
Mof_N 	N 	0.4044	0.25	0.75	-0.153
_end
