data_functionalizedCrystal
_audit_creation_method	'EQeq! by Chris Wilmer'
_symmetry_space_group_name_H-M	'P1'
_symmetry_Int_Tables_number	1
_symmetry_cell_setting	triclinic
loop_
_symmetry_equiv_pos_as_xyz
  x,y,z
_cell_length_a	7.9841
_cell_length_b	8.3577
_cell_length_c	17.593
_cell_angle_alpha	90
_cell_angle_beta	90
_cell_angle_gamma	109.49
loop_
_atom_site_label
_atom_site_type_symbol
_atom_site_fract_x
_atom_site_fract_y
_atom_site_fract_z
_atom_site_charge
Mof_Nd	Nd	0.74129	0.71817	0.47788	2.405
Mof_Nd	Nd	0.75871	0.28183	0.97788	2.4
Mof_Nd	Nd	0.25871	0.28183	0.52212	2.405
Mof_Nd	Nd	0.24129	0.71817	0.02212	2.4
Mof_H 	H 	0.6623	0.3728	0.2102	-0.001
Mof_H 	H 	0.3676	0.0941	0.372	0.05
Mof_H 	H 	0.8377	0.6272	0.7102	-0.002
Mof_H 	H 	0.1324	0.9059	0.872	0.05
Mof_H 	H 	0.3377	0.6272	0.7898	-0.001
Mof_H 	H 	0.6324	0.9059	0.628	0.05
Mof_H 	H 	0.1623	0.3728	0.2898	-0.002
Mof_H 	H 	0.8676	0.0941	0.128	0.05
Mof_C 	C 	0.071	0.564	0.4745	0.286
Mof_C 	C 	0.607	0.4131	0.375	0.463
Mof_C 	C 	0.5497	0.28	0.3154	-0.113
Mof_C 	C 	0.5867	0.2818	0.2374	0.1
Mof_C 	C 	0.4934	0.1283	0.209	-0.152
Mof_C 	C 	0.483	0.0589	0.1311	0.613
Mof_C 	C 	0.429	0.436	0.9745	0.286
Mof_C 	C 	0.893	0.5869	0.875	0.462
Mof_C 	C 	0.9503	0.72	0.8154	-0.112
Mof_C 	C 	0.9133	0.7182	0.7374	0.103
Mof_C 	C 	0.0066	0.8717	0.709	-0.153
Mof_C 	C 	0.017	0.9411	0.6311	0.598
Mof_C 	C 	0.929	0.436	0.5255	0.286
Mof_C 	C 	0.393	0.5869	0.625	0.463
Mof_C 	C 	0.4503	0.72	0.6846	-0.113
Mof_C 	C 	0.4133	0.7182	0.7626	0.1
Mof_C 	C 	0.5066	0.8717	0.791	-0.152
Mof_C 	C 	0.517	0.9411	0.8689	0.613
Mof_C 	C 	0.571	0.564	0.0255	0.286
Mof_C 	C 	0.107	0.4131	0.125	0.462
Mof_C 	C 	0.0497	0.28	0.1846	-0.112
Mof_C 	C 	0.0867	0.2818	0.2626	0.103
Mof_C 	C 	0.9934	0.1283	0.291	-0.153
Mof_C 	C 	0.983	0.0589	0.3689	0.598
Mof_N 	N 	0.421	0.1256	0.3292	-0.124
Mof_N 	N 	0.3905	0.033	0.266	-0.052
Mof_N 	N 	0.079	0.8744	0.8292	-0.125
Mof_N 	N 	0.1095	0.967	0.766	-0.054
Mof_N 	N 	0.579	0.8744	0.6708	-0.124
Mof_N 	N 	0.6095	0.967	0.734	-0.052
Mof_N 	N 	0.921	0.1256	0.1708	-0.125
Mof_N 	N 	0.8905	0.033	0.234	-0.054
Mof_O 	O 	0.0497	0.7023	0.4591	-0.46
Mof_O 	O 	0.2005	0.5221	0.4569	-0.491
Mof_O 	O 	0.5085	0.3911	0.4344	-0.68
Mof_O 	O 	0.7397	0.5314	0.3675	-0.536
Mof_O 	O 	0.5828	0.1508	0.0833	-0.658
Mof_O 	O 	0.374	0.9182	0.1191	-0.648
Mof_O 	O 	0.4503	0.2977	0.9591	-0.457
Mof_O 	O 	0.2995	0.4779	0.9569	-0.489
Mof_O 	O 	0.9915	0.6089	0.9344	-0.679
Mof_O 	O 	0.7603	0.4686	0.8675	-0.536
Mof_O 	O 	0.9172	0.8492	0.5833	-0.654
Mof_O 	O 	0.126	0.0818	0.6191	-0.64
Mof_O 	O 	0.9503	0.2977	0.5409	-0.46
Mof_O 	O 	0.7995	0.4779	0.5431	-0.491
Mof_O 	O 	0.4915	0.6089	0.5656	-0.68
Mof_O 	O 	0.2603	0.4686	0.6325	-0.536
Mof_O 	O 	0.4172	0.8492	0.9167	-0.658
Mof_O 	O 	0.626	0.0818	0.8809	-0.648
Mof_O 	O 	0.5497	0.7023	0.0409	-0.457
Mof_O 	O 	0.7005	0.5221	0.0431	-0.489
Mof_O 	O 	0.0085	0.3911	0.0656	-0.679
Mof_O 	O 	0.2397	0.5314	0.1325	-0.536
Mof_O 	O 	0.0828	0.1508	0.4167	-0.654
Mof_O 	O 	0.874	0.9182	0.3809	-0.64
_end
