data_functionalizedCrystal
_audit_creation_method	'EQeq! by Chris Wilmer'
_symmetry_space_group_name_H-M	'P1'
_symmetry_Int_Tables_number	1
_symmetry_cell_setting	triclinic
loop_
_symmetry_equiv_pos_as_xyz
  x,y,z
_cell_length_a	11.7914
_cell_length_b	17.0504
_cell_length_c	20.795
_cell_angle_alpha	104.726
_cell_angle_beta	106.36
_cell_angle_gamma	103.481
loop_
_atom_site_label
_atom_site_type_symbol
_atom_site_fract_x
_atom_site_fract_y
_atom_site_fract_z
_atom_site_charge
Mof_Co	Co	7e-05	0.25188	0.24835	1.132
Mof_Co	Co	0.99993	0.74812	0.75165	1.164
Mof_Co	Co	0.5	0.5	0.5	1.148
Mof_Co	Co	-2.32671e-17	0.5	0.5	1.168
Mof_Co	Co	-0	0	-0	1.127
Mof_Co	Co	0.5	0	-0	1.109
Mof_H 	H 	0.3218	0.3234	0.345	-0.017
Mof_H 	H 	0.6828	0.1875	0.1465	-0.016
Mof_H 	H 	0.5251	0.4966	0.6533	-0.008
Mof_H 	H 	0.5263	0.4018	0.717	0.087
Mof_H 	H 	0.4217	0.2088	0.5331	0.092
Mof_H 	H 	0.4273	0.3089	0.4763	-0.012
Mof_H 	H 	0.5103	0.2281	0.8813	0.082
Mof_H 	H 	0.5268	0.1715	0.9732	0.016
Mof_H 	H 	0.5069	0.951	0.8477	0.084
Mof_H 	H 	0.4933	0.0011	0.7534	0.048
Mof_H 	H 	0.1459	0.1818	0.3581	-0.002
Mof_H 	H 	0.1252	0.0678	0.3985	0.076
Mof_H 	H 	0.7572	0.0082	0.3109	0.07
Mof_H 	H 	0.7885	0.1237	0.2732	-0.013
Mof_H 	H 	0.1037	0.8155	0.5156	0.104
Mof_H 	H 	0.1263	0.6994	0.5498	0.017
Mof_H 	H 	0.8012	0.5506	0.4047	0.007
Mof_H 	H 	0.7678	0.665	0.3701	0.098
Mof_H 	H 	0.1997	0.9548	0.0995	0.016
Mof_H 	H 	0.2366	0.8432	0.1352	0.109
Mof_H 	H 	0.91	0.6863	0.9825	0.163
Mof_H 	H 	0.8787	0.8029	0.952	-0.036
Mof_H 	H 	0.2532	0.4915	0.1851	0.082
Mof_H 	H 	0.2156	0.3759	0.2241	-0.006
Mof_H 	H 	0.857	0.328	0.1416	-0.015
Mof_H 	H 	0.8863	0.4407	0.1012	0.074
Mof_H 	H 	0.6782	0.6766	0.655	-0.011
Mof_H 	H 	0.3172	0.8125	0.8535	-0.011
Mof_H 	H 	0.4749	0.5034	0.3467	-0.01
Mof_H 	H 	0.4737	0.5982	0.283	0.086
Mof_H 	H 	0.5783	0.7912	0.4669	0.105
Mof_H 	H 	0.5727	0.6911	0.5237	-0.007
Mof_H 	H 	0.4897	0.7719	0.1187	0.095
Mof_H 	H 	0.4732	0.8285	0.0268	-0.017
Mof_H 	H 	0.4931	0.049	0.1523	-0.082
Mof_H 	H 	0.5067	0.9989	0.2466	0.136
Mof_H 	H 	0.8541	0.8182	0.6419	-0.024
Mof_H 	H 	0.8748	0.9322	0.6015	0.119
Mof_H 	H 	0.2428	0.9918	0.6891	0.141
Mof_H 	H 	0.2115	0.8763	0.7268	-0.015
Mof_H 	H 	0.8963	0.1845	0.4844	0.07
Mof_H 	H 	0.8737	0.3006	0.4502	0.008
Mof_H 	H 	0.1988	0.4494	0.5953	0.014
Mof_H 	H 	0.2322	0.335	0.6299	0.084
Mof_H 	H 	0.8003	0.0452	0.9005	0.005
Mof_H 	H 	0.7634	0.1568	0.8648	0.078
Mof_H 	H 	0.09	0.3137	0.0175	0
Mof_H 	H 	0.1213	0.1971	0.048	0.065
Mof_H 	H 	0.7468	0.5085	0.8149	0.099
Mof_H 	H 	0.7844	0.6241	0.7759	-0.012
Mof_H 	H 	0.143	0.672	0.8584	-0.005
Mof_H 	H 	0.1137	0.5593	0.8988	0.111
Mof_C 	C 	0.2758	0.3549	0.3648	0.123
Mof_C 	C 	0.2319	0.4496	0.4339	-0.045
Mof_C 	C 	0.1229	0.3949	0.3792	-0.092
Mof_C 	C 	0.2651	0.5255	0.4991	0.329
Mof_C 	C 	0.989	0.39	0.3581	0.365
Mof_C 	C 	0.7277	0.1532	0.1287	0.118
Mof_C 	C 	0.8779	0.1073	0.1175	-0.018
Mof_C 	C 	0.7693	0.053	0.0636	-0.101
Mof_C 	C 	0.0118	0.1124	0.141	0.289
Mof_C 	C 	0.7337	0.9714	0.0042	0.304
Mof_C 	C 	0.5063	0.4373	0.6285	0.094
Mof_C 	C 	0.5064	0.381	0.6669	-0.152
Mof_C 	C 	0.4772	0.2945	0.6307	0.1
Mof_C 	C 	0.4459	0.268	0.5599	-0.157
Mof_C 	C 	0.4494	0.3287	0.5266	0.101
Mof_C 	C 	0.4808	0.2327	0.6697	0.029
Mof_C 	C 	0.4914	0.1543	0.7488	0.036
Mof_C 	C 	0.5001	0.12	0.8078	0.046
Mof_C 	C 	0.5093	0.1705	0.8731	-0.113
Mof_C 	C 	0.5171	0.1358	0.9273	0.064
Mof_C 	C 	0.5059	0.008	0.8545	-0.048
Mof_C 	C 	0.4989	0.0374	0.798	-0.079
Mof_C 	C 	0.064	0.1439	0.3459	0.059
Mof_C 	C 	0.0528	0.0763	0.371	-0.173
Mof_C 	C 	0.9377	0.022	0.3559	0.068
Mof_C 	C 	0.8401	0.0422	0.3202	-0.139
Mof_C 	C 	0.8594	0.1109	0.2972	0.092
Mof_C 	C 	0.9147	0.9423	0.3742	0.108
Mof_C 	C 	0.9142	0.8217	0.4103	0.049
Mof_C 	C 	0.9337	0.7517	0.4377	0.134
Mof_C 	C 	0.0397	0.7612	0.4918	-0.19
Mof_C 	C 	0.0531	0.6913	0.5114	0.069
Mof_C 	C 	0.8643	0.6053	0.4278	0.096
Mof_C 	C 	0.8441	0.6733	0.4064	-0.155
Mof_C 	C 	0.139	0.8991	0.0754	0.109
Mof_C 	C 	0.162	0.833	0.0968	-0.186
Mof_C 	C 	0.0773	0.7523	0.0627	0.127
Mof_C 	C 	0.971	0.7416	0.0079	-0.287
Mof_C 	C 	0.9532	0.8113	0.9897	0.265
Mof_C 	C 	0.101	0.6822	0.089	-0.021
Mof_C 	C 	0.0978	0.5615	0.1245	0.005
Mof_C 	C 	0.0735	0.483	0.144	0.049
Mof_C 	C 	0.1698	0.46	0.1775	-0.136
Mof_C 	C 	0.1466	0.3907	0.2004	0.079
Mof_C 	C 	0.9402	0.3633	0.1529	0.123
Mof_C 	C 	0.9569	0.4305	0.1288	-0.111
Mof_C 	C 	0.7242	0.6451	0.6352	0.124
Mof_C 	C 	0.7681	0.5504	0.5661	-0.062
Mof_C 	C 	0.8771	0.6051	0.6208	-0.017
Mof_C 	C 	0.7349	0.4745	0.5009	0.338
Mof_C 	C 	0.011	0.61	0.6419	0.286
Mof_C 	C 	0.2723	0.8468	0.8713	0.128
Mof_C 	C 	0.1221	0.8927	0.8825	-0.088
Mof_C 	C 	0.2307	0.947	0.9364	-0.002
Mof_C 	C 	0.9882	0.8876	0.859	0.372
Mof_C 	C 	0.2663	0.0286	0.9958	0.358
Mof_C 	C 	0.4937	0.5627	0.3715	0.095
Mof_C 	C 	0.4936	0.619	0.3331	-0.156
Mof_C 	C 	0.5228	0.7055	0.3693	0.104
Mof_C 	C 	0.5541	0.732	0.4401	-0.16
Mof_C 	C 	0.5506	0.6713	0.4734	0.104
Mof_C 	C 	0.5192	0.7673	0.3303	0.03
Mof_C 	C 	0.5086	0.8457	0.2512	0.02
Mof_C 	C 	0.4999	0.88	0.1922	0.131
Mof_C 	C 	0.4907	0.8295	0.1269	-0.171
Mof_C 	C 	0.4829	0.8642	0.0727	0.102
Mof_C 	C 	0.4941	0.992	0.1455	0.228
Mof_C 	C 	0.5011	0.9626	0.202	-0.223
Mof_C 	C 	0.936	0.8561	0.6541	0.169
Mof_C 	C 	0.9472	0.9237	0.629	-0.183
Mof_C 	C 	0.0623	0.978	0.6441	0.175
Mof_C 	C 	0.1599	0.9578	0.6798	-0.211
Mof_C 	C 	0.1406	0.8891	0.7028	0.135
Mof_C 	C 	0.0853	0.0577	0.6258	-0.077
Mof_C 	C 	0.0858	0.1783	0.5897	0.007
Mof_C 	C 	0.0663	0.2483	0.5623	0.039
Mof_C 	C 	0.9603	0.2388	0.5082	-0.091
Mof_C 	C 	0.9469	0.3087	0.4886	0.108
Mof_C 	C 	0.1357	0.3947	0.5722	0.064
Mof_C 	C 	0.1559	0.3267	0.5936	-0.119
Mof_C 	C 	0.861	0.1009	0.9246	0.063
Mof_C 	C 	0.838	0.167	0.9032	-0.092
Mof_C 	C 	0.9227	0.2477	0.9373	0.038
Mof_C 	C 	0.029	0.2584	0.9921	0.022
Mof_C 	C 	0.0468	0.1887	0.0103	-0.107
Mof_C 	C 	0.899	0.3178	0.911	0.086
Mof_C 	C 	0.9022	0.4385	0.8755	0.046
Mof_C 	C 	0.9265	0.517	0.856	0.15
Mof_C 	C 	0.8302	0.54	0.8225	-0.175
Mof_C 	C 	0.8534	0.6093	0.7996	0.114
Mof_C 	C 	0.0598	0.6367	0.8471	0.093
Mof_C 	C 	0.0431	0.5695	0.8712	-0.212
Mof_S 	S 	0.4953	0.25684	0.75621	0.003
Mof_S 	S 	0.0259	0.91509	0.42763	-0.039
Mof_S 	S 	0.9838	0.59022	0.07338	0.031
Mof_S 	S 	0.5047	0.74316	0.24379	0.007
Mof_S 	S 	0.9741	0.08491	0.57237	0.037
Mof_S 	S 	0.0162	0.40978	0.92662	-0.056
Mof_N 	N 	0.3283	0.4232	0.4236	-0.233
Mof_N 	N 	0.1526	0.3346	0.3361	-0.231
Mof_N 	N 	0.8498	0.1713	0.1595	-0.23
Mof_N 	N 	0.673	0.0829	0.0707	-0.237
Mof_N 	N 	0.4812	0.4115	0.5595	-0.237
Mof_N 	N 	0.4726	0.1534	0.6394	-0.08
Mof_N 	N 	0.4789	0.1081	0.6849	-0.089
Mof_N 	N 	0.5113	0.0543	0.9173	-0.209
Mof_N 	N 	0.9704	0.1598	0.3066	-0.204
Mof_N 	N 	0.8085	0.884	0.3474	-0.079
Mof_N 	N 	0.8075	0.8159	0.3695	-0.079
Mof_N 	N 	0.9686	0.6137	0.4793	-0.2
Mof_N 	N 	0.0331	0.3443	0.1911	-0.251
Mof_N 	N 	0.2063	0.6158	0.147	-0.082
Mof_N 	N 	0.2086	0.6858	0.126	-0.077
Mof_N 	N 	0.0357	0.8896	0.0226	-0.281
Mof_N 	N 	0.6717	0.5768	0.5764	-0.229
Mof_N 	N 	0.8474	0.6654	0.6639	-0.232
Mof_N 	N 	0.1502	0.8287	0.8405	-0.235
Mof_N 	N 	0.327	0.9171	0.9293	-0.213
Mof_N 	N 	0.5188	0.5885	0.4405	-0.238
Mof_N 	N 	0.5274	0.8466	0.3606	-0.068
Mof_N 	N 	0.5211	0.8919	0.3151	-0.067
Mof_N 	N 	0.4887	0.9457	0.0827	-0.251
Mof_N 	N 	0.0296	0.8402	0.6934	-0.27
Mof_N 	N 	0.1915	0.116	0.6526	-0.069
Mof_N 	N 	0.1925	0.1841	0.6305	-0.08
Mof_N 	N 	0.0314	0.3863	0.5207	-0.239
Mof_N 	N 	0.9669	0.6557	0.8089	-0.216
Mof_N 	N 	0.7937	0.3842	0.853	-0.081
Mof_N 	N 	0.7914	0.3142	0.874	-0.088
Mof_N 	N 	0.9643	0.1104	0.9774	-0.15
Mof_O 	O 	0.3802	0.5585	0.5365	-0.392
Mof_O 	O 	0.1851	0.554	0.5147	-0.397
Mof_O 	O 	0.9504	0.4412	0.3922	-0.388
Mof_O 	O 	0.9156	0.3291	0.3002	-0.388
Mof_O 	O 	0.0843	0.1743	0.1974	-0.399
Mof_O 	O 	0.0487	0.0596	0.1074	-0.419
Mof_O 	O 	0.8144	0.944	0.9873	-0.316
Mof_O 	O 	0.6182	0.9329	0.9726	-0.336
Mof_O 	O 	0.6198	0.4415	0.4635	-0.396
Mof_O 	O 	0.8149	0.446	0.4853	-0.386
Mof_O 	O 	0.0496	0.5588	0.6078	-0.391
Mof_O 	O 	0.0844	0.6709	0.6998	-0.391
Mof_O 	O 	0.9157	0.8257	0.8026	-0.393
Mof_O 	O 	0.9513	0.9404	0.8926	-0.358
Mof_O 	O 	0.1856	0.056	0.0127	-0.445
Mof_O 	O 	0.3818	0.0671	0.0274	-0.443
_end
