data_functionalizedCrystal
_audit_creation_method	'EQeq! by Chris Wilmer'
_symmetry_space_group_name_H-M	'P1'
_symmetry_Int_Tables_number	1
_symmetry_cell_setting	triclinic
loop_
_symmetry_equiv_pos_as_xyz
  x,y,z
_cell_length_a	15.0535
_cell_length_b	21.8564
_cell_length_c	3.6939
_cell_angle_alpha	90
_cell_angle_beta	90
_cell_angle_gamma	90
loop_
_atom_site_label
_atom_site_type_symbol
_atom_site_fract_x
_atom_site_fract_y
_atom_site_fract_z
_atom_site_charge
Mof_Ag	Ag	0.13276	0.00276	0.5354	-0.467
Mof_N 	N 	0.18169	0.09534	0.5578	-0.161
Mof_C 	C 	0.29363	0.17136	0.471	-0.13
Mof_H 	H 	0.3518	0.1804	0.4054	0.079
Mof_C 	C 	0.26413	0.11221	0.4682	0.08
Mof_H 	H 	0.3039	0.0818	0.3995	0.015
Mof_C 	C 	0.23564	0.21785	0.5733	0.052
Mof_C 	C 	0.12681	0.13995	0.6681	0.084
Mof_H 	H 	0.0699	0.1292	0.7427	0.005
Mof_C 	C 	0.14992	0.20008	0.6769	-0.135
Mof_H 	H 	0.1089	0.2293	0.7514	0.069
Mof_Ag	Ag	0.63276	0.50276	0.5354	0.291
Mof_N 	N 	0.68169	0.59534	0.5578	-0.203
Mof_C 	C 	0.79363	0.67136	0.471	-0.141
Mof_H 	H 	0.8518	0.6804	0.4054	0.072
Mof_C 	C 	0.76413	0.61221	0.4682	0.085
Mof_H 	H 	0.8039	0.5818	0.3995	-0.025
Mof_C 	C 	0.73564	0.71785	0.5733	0.052
Mof_C 	C 	0.62681	0.63995	0.6681	0.084
Mof_H 	H 	0.5699	0.6292	0.7427	-0.013
Mof_C 	C 	0.64992	0.70008	0.6769	-0.14
Mof_H 	H 	0.6089	0.7293	0.7514	0.063
Mof_Ag	Ag	0.86724	0.99724	0.5354	0.979
Mof_N 	N 	0.81831	0.90466	0.5578	-0.243
Mof_C 	C 	0.70637	0.82864	0.471	-0.157
Mof_H 	H 	0.6482	0.8196	0.4054	0.074
Mof_C 	C 	0.73587	0.88779	0.4682	0.094
Mof_H 	H 	0.6961	0.9182	0.3995	-0.056
Mof_C 	C 	0.76436	0.78215	0.5733	0.062
Mof_C 	C 	0.87319	0.86005	0.6681	0.087
Mof_H 	H 	0.9301	0.8708	0.7427	-0.046
Mof_C 	C 	0.85008	0.79992	0.6769	-0.152
Mof_H 	H 	0.8911	0.7707	0.7514	0.064
Mof_Ag	Ag	0.36724	0.49724	0.5354	0.292
Mof_N 	N 	0.31831	0.40466	0.5578	-0.204
Mof_C 	C 	0.20637	0.32864	0.471	-0.147
Mof_H 	H 	0.1482	0.3196	0.4054	0.081
Mof_C 	C 	0.23587	0.38779	0.4682	0.091
Mof_H 	H 	0.1961	0.4182	0.3995	-0.021
Mof_C 	C 	0.26436	0.28215	0.5733	0.063
Mof_C 	C 	0.37319	0.36005	0.6681	0.089
Mof_H 	H 	0.4301	0.3708	0.7427	-0.014
Mof_C 	C 	0.35008	0.29992	0.6769	-0.147
Mof_H 	H 	0.3911	0.2707	0.7514	0.071
Mof_Ag	Ag	0.86724	0.00276	0.4646	-0.496
Mof_N 	N 	0.81831	0.09534	0.4422	-0.16
Mof_C 	C 	0.70637	0.17136	0.529	-0.132
Mof_H 	H 	0.6482	0.1804	0.5946	0.071
Mof_C 	C 	0.73587	0.11221	0.5318	0.079
Mof_H 	H 	0.6961	0.0818	0.6005	0.009
Mof_C 	C 	0.76436	0.21785	0.4267	0.052
Mof_C 	C 	0.87319	0.13995	0.3319	0.084
Mof_H 	H 	0.9301	0.1292	0.2573	0.006
Mof_C 	C 	0.85008	0.20008	0.3231	-0.135
Mof_H 	H 	0.8911	0.2293	0.2486	0.073
Mof_Ag	Ag	0.36724	0.50276	0.4646	0.267
Mof_N 	N 	0.31831	0.59534	0.4422	-0.201
Mof_C 	C 	0.20637	0.67136	0.529	-0.144
Mof_H 	H 	0.1482	0.6804	0.5946	0.071
Mof_C 	C 	0.23587	0.61221	0.5318	0.087
Mof_H 	H 	0.1961	0.5818	0.6005	-0.027
Mof_C 	C 	0.26436	0.71785	0.4267	0.054
Mof_C 	C 	0.37319	0.63995	0.3319	0.085
Mof_H 	H 	0.4301	0.6292	0.2573	0.001
Mof_C 	C 	0.35008	0.70008	0.3231	-0.138
Mof_H 	H 	0.3911	0.7293	0.2486	0.076
Mof_Ag	Ag	0.13276	0.99724	0.4646	0.972
Mof_N 	N 	0.18169	0.90466	0.4422	-0.242
Mof_C 	C 	0.29363	0.82864	0.529	-0.158
Mof_H 	H 	0.3518	0.8196	0.5946	0.066
Mof_C 	C 	0.26413	0.88779	0.5318	0.094
Mof_H 	H 	0.3039	0.9182	0.6005	-0.063
Mof_C 	C 	0.23564	0.78215	0.4267	0.063
Mof_C 	C 	0.12681	0.86005	0.3319	0.088
Mof_H 	H 	0.0699	0.8708	0.2573	-0.02
Mof_C 	C 	0.14992	0.79992	0.3231	-0.147
Mof_H 	H 	0.1089	0.7707	0.2486	0.084
Mof_Ag	Ag	0.63276	0.49724	0.4646	0.266
Mof_N 	N 	0.68169	0.40466	0.4422	-0.202
Mof_C 	C 	0.79363	0.32864	0.529	-0.148
Mof_H 	H 	0.8518	0.3196	0.5946	0.067
Mof_C 	C 	0.76413	0.38779	0.5318	0.088
Mof_H 	H 	0.8039	0.4182	0.6005	-0.032
Mof_C 	C 	0.73564	0.28215	0.4267	0.061
Mof_C 	C 	0.62681	0.36005	0.3319	0.089
Mof_H 	H 	0.5699	0.3708	0.2573	0.001
Mof_C 	C 	0.64992	0.29992	0.3231	-0.143
Mof_H 	H 	0.6089	0.2707	0.2486	0.083
Mof_Cl	Cl	-0	0	-0	-0.385
Mof_Cl	Cl	0.5	0.5	-0	-0.54
_end
