data_functionalizedCrystal
_audit_creation_method	'EQeq! by Chris Wilmer'
_symmetry_space_group_name_H-M	'P1'
_symmetry_Int_Tables_number	1
_symmetry_cell_setting	triclinic
loop_
_symmetry_equiv_pos_as_xyz
  x,y,z
_cell_length_a	16.738
_cell_length_b	17.162
_cell_length_c	17.209
_cell_angle_alpha	90
_cell_angle_beta	90
_cell_angle_gamma	90
loop_
_atom_site_label
_atom_site_type_symbol
_atom_site_fract_x
_atom_site_fract_y
_atom_site_fract_z
_atom_site_charge
Mof_Ho	Ho	0.0842	0.03992	0.34906	2.032
Mof_O 	O 	0.9583	0.0399	0.2943	-0.729
Mof_O 	O 	0.9979	0.1111	0.4341	-0.558
Mof_O 	O 	0.0915	0.0233	0.211	-0.646
Mof_O 	O 	0.051	0.9106	0.3097	-0.689
Mof_O 	O 	0.2103	0.9825	0.3468	-0.594
Mof_O 	O 	0.0695	0.9598	0.4636	-0.55
Mof_O 	O 	0.109	0.1665	0.3013	-0.567
Mof_Ho	Ho	0.90917	0.91467	0.31011	1.898
Mof_Ho	Ho	0.96639	0.06049	0.15506	2.051
Mof_S 	S 	0.97549	0.11235	0.51682	0.923
Mof_Ho	Ho	0.0959	0.88619	0.18475	1.675
Mof_S 	S 	0.26611	0.96547	0.28292	1.038
Mof_O 	O 	0.9622	0.928	0.1815	-0.682
Mof_O 	O 	0.9183	0.7909	0.2567	-0.586
Mof_O 	O 	0.9514	0.8838	0.4359	-0.591
Mof_O 	O 	0.7957	0.9607	0.249	-0.616
Mof_O 	O 	0.8894	0.997	0.0589	-0.55
Mof_O 	O 	0.0071	0.1796	0.2038	-0.608
Mof_O 	O 	0.0562	0.0674	0.052	-0.583
Mof_O 	O 	0.8327	0.0812	0.1881	-0.606
Mof_O 	O 	0.9248	0.1794	0.5331	-0.387
Mof_O 	O 	0.2241	0.9206	0.2229	-0.607
Mof_O 	O 	0.1079	0.9375	0.063	-0.604
Mof_S 	S 	0.91302	0.70659	0.27144	0.929
Mof_S 	S 	0.88145	0.98593	0.97529	0.966
Mof_O 	O 	0.8546	0.6902	0.3318	-0.386
Mof_O 	O 	0.8031	0.9536	0.9576	-0.38
Mof_Ho	Ho	0.4158	0.46008	0.34906	2.025
Mof_O 	O 	0.5417	0.4601	0.2943	-0.726
Mof_O 	O 	0.5021	0.3889	0.4341	-0.555
Mof_O 	O 	0.4085	0.4767	0.211	-0.647
Mof_O 	O 	0.449	0.5894	0.3097	-0.687
Mof_O 	O 	0.2897	0.5175	0.3468	-0.592
Mof_O 	O 	0.4305	0.5402	0.4636	-0.548
Mof_O 	O 	0.391	0.3335	0.3013	-0.566
Mof_Ho	Ho	0.59083	0.58533	0.31011	1.895
Mof_Ho	Ho	0.53361	0.43951	0.15506	2.07
Mof_S 	S 	0.52451	0.38765	0.51682	0.925
Mof_Ho	Ho	0.4041	0.61381	0.18475	1.674
Mof_S 	S 	0.23389	0.53453	0.28292	1.038
Mof_O 	O 	0.5378	0.572	0.1815	-0.683
Mof_O 	O 	0.5817	0.7091	0.2567	-0.584
Mof_O 	O 	0.5486	0.6162	0.4359	-0.591
Mof_O 	O 	0.7043	0.5393	0.249	-0.618
Mof_O 	O 	0.6106	0.503	0.0589	-0.554
Mof_O 	O 	0.4929	0.3204	0.2038	-0.613
Mof_O 	O 	0.4438	0.4326	0.052	-0.587
Mof_O 	O 	0.6673	0.4188	0.1881	-0.607
Mof_O 	O 	0.5752	0.3206	0.5331	-0.387
Mof_O 	O 	0.2759	0.5794	0.2229	-0.606
Mof_O 	O 	0.3921	0.5625	0.063	-0.606
Mof_S 	S 	0.58698	0.79341	0.27144	0.93
Mof_S 	S 	0.61855	0.51407	0.97529	0.969
Mof_O 	O 	0.6454	0.8098	0.3318	-0.386
Mof_O 	O 	0.6969	0.5464	0.9576	-0.381
Mof_Ho	Ho	0.9158	0.53992	0.15095	2.019
Mof_O 	O 	0.0417	0.5399	0.2057	-0.725
Mof_O 	O 	0.0021	0.6111	0.0659	-0.548
Mof_O 	O 	0.9085	0.5233	0.289	-0.647
Mof_O 	O 	0.949	0.4106	0.1903	-0.687
Mof_O 	O 	0.7897	0.4825	0.1532	-0.592
Mof_O 	O 	0.9305	0.4598	0.0364	-0.546
Mof_O 	O 	0.891	0.6665	0.1987	-0.566
Mof_Ho	Ho	0.09083	0.41467	0.18989	1.897
Mof_Ho	Ho	0.03361	0.56049	0.34494	2.073
Mof_S 	S 	0.02451	0.61235	0.98318	0.911
Mof_Ho	Ho	0.9041	0.38619	0.31525	1.671
Mof_S 	S 	0.73389	0.46547	0.21708	1.038
Mof_O 	O 	0.0378	0.428	0.3185	-0.682
Mof_O 	O 	0.0817	0.2909	0.2433	-0.584
Mof_O 	O 	0.0486	0.3838	0.0641	-0.586
Mof_O 	O 	0.2043	0.4607	0.251	-0.618
Mof_O 	O 	0.1106	0.497	0.4411	-0.553
Mof_O 	O 	0.9929	0.6796	0.2962	-0.613
Mof_O 	O 	0.9438	0.5674	0.448	-0.587
Mof_O 	O 	0.1673	0.5812	0.3119	-0.607
Mof_O 	O 	0.0752	0.6794	0.9669	-0.387
Mof_O 	O 	0.7759	0.4206	0.2771	-0.606
Mof_O 	O 	0.8921	0.4375	0.437	-0.606
Mof_S 	S 	0.08698	0.20659	0.22856	0.929
Mof_S 	S 	0.11855	0.48593	0.52471	0.968
Mof_O 	O 	0.1454	0.1902	0.1682	-0.386
Mof_O 	O 	0.1969	0.4536	0.5424	-0.381
Mof_Ho	Ho	0.5842	0.96008	0.15095	2.031
Mof_O 	O 	0.4583	0.9601	0.2057	-0.726
Mof_O 	O 	0.4979	0.8889	0.0659	-0.553
Mof_O 	O 	0.5915	0.9767	0.289	-0.647
Mof_O 	O 	0.551	0.0894	0.1903	-0.687
Mof_O 	O 	0.7103	0.0175	0.1532	-0.593
Mof_O 	O 	0.5695	0.0402	0.0364	-0.549
Mof_O 	O 	0.609	0.8335	0.1987	-0.566
Mof_Ho	Ho	0.40917	0.08533	0.18989	1.894
Mof_Ho	Ho	0.46639	0.93951	0.34494	2.071
Mof_S 	S 	0.47549	0.88765	0.98318	0.922
Mof_Ho	Ho	0.5959	0.11381	0.31525	1.672
Mof_S 	S 	0.76611	0.03453	0.21708	1.034
Mof_O 	O 	0.4622	0.072	0.3185	-0.683
Mof_O 	O 	0.4183	0.2091	0.2433	-0.584
Mof_O 	O 	0.4514	0.1162	0.0641	-0.591
Mof_O 	O 	0.2957	0.0393	0.251	-0.618
Mof_O 	O 	0.3894	0.003	0.4411	-0.553
Mof_O 	O 	0.5071	0.8204	0.2962	-0.613
Mof_O 	O 	0.5562	0.9326	0.448	-0.587
Mof_O 	O 	0.3327	0.9188	0.3119	-0.607
Mof_O 	O 	0.4248	0.8206	0.9669	-0.388
Mof_O 	O 	0.7241	0.0794	0.2771	-0.606
Mof_O 	O 	0.6079	0.0625	0.437	-0.607
Mof_S 	S 	0.41302	0.29341	0.22856	0.929
Mof_S 	S 	0.38145	0.01407	0.52471	0.97
Mof_O 	O 	0.3546	0.3098	0.1682	-0.386
Mof_O 	O 	0.3031	0.0464	0.5424	-0.38
Mof_Ho	Ho	0.9158	0.96008	0.65095	2.033
Mof_O 	O 	0.0417	0.9601	0.7057	-0.728
Mof_O 	O 	0.0021	0.8889	0.5659	-0.557
Mof_O 	O 	0.9085	0.9767	0.789	-0.645
Mof_O 	O 	0.949	0.0894	0.6903	-0.688
Mof_O 	O 	0.7897	0.0175	0.6532	-0.593
Mof_O 	O 	0.9305	0.0402	0.5364	-0.549
Mof_O 	O 	0.891	0.8335	0.6987	-0.566
Mof_Ho	Ho	0.09083	0.08533	0.68989	1.899
Mof_Ho	Ho	0.03361	0.93951	0.84494	2.052
Mof_S 	S 	0.02451	0.88765	0.48318	0.924
Mof_Ho	Ho	0.9041	0.11381	0.81525	1.676
Mof_S 	S 	0.73389	0.03453	0.71708	1.039
Mof_O 	O 	0.0378	0.072	0.8185	-0.681
Mof_O 	O 	0.0817	0.2091	0.7433	-0.585
Mof_O 	O 	0.0486	0.1162	0.5641	-0.59
Mof_O 	O 	0.2043	0.0393	0.751	-0.616
Mof_O 	O 	0.1106	0.003	0.9411	-0.55
Mof_O 	O 	0.9929	0.8204	0.7962	-0.608
Mof_O 	O 	0.9438	0.9326	0.948	-0.583
Mof_O 	O 	0.1673	0.9188	0.8119	-0.606
Mof_O 	O 	0.0752	0.8206	0.4669	-0.387
Mof_O 	O 	0.7759	0.0794	0.7771	-0.607
Mof_O 	O 	0.8921	0.0625	0.937	-0.604
Mof_S 	S 	0.08698	0.29341	0.72856	0.929
Mof_S 	S 	0.11855	0.01407	0.02471	0.966
Mof_O 	O 	0.1454	0.3098	0.6682	-0.386
Mof_O 	O 	0.1969	0.0464	0.0424	-0.38
Mof_Ho	Ho	0.5842	0.53992	0.65095	2.025
Mof_O 	O 	0.4583	0.5399	0.7057	-0.726
Mof_O 	O 	0.4979	0.6111	0.5659	-0.555
Mof_O 	O 	0.5915	0.5233	0.789	-0.648
Mof_O 	O 	0.551	0.4106	0.6903	-0.687
Mof_O 	O 	0.7103	0.4825	0.6532	-0.592
Mof_O 	O 	0.5695	0.4598	0.5364	-0.548
Mof_O 	O 	0.609	0.6665	0.6987	-0.566
Mof_Ho	Ho	0.40917	0.41467	0.68989	1.895
Mof_Ho	Ho	0.46639	0.56049	0.84494	2.07
Mof_S 	S 	0.47549	0.61235	0.48318	0.925
Mof_Ho	Ho	0.5959	0.38619	0.81525	1.674
Mof_S 	S 	0.76611	0.46547	0.71708	1.038
Mof_O 	O 	0.4622	0.428	0.8185	-0.683
Mof_O 	O 	0.4183	0.2909	0.7433	-0.584
Mof_O 	O 	0.4514	0.3838	0.5641	-0.591
Mof_O 	O 	0.2957	0.4607	0.751	-0.618
Mof_O 	O 	0.3894	0.497	0.9411	-0.554
Mof_O 	O 	0.5071	0.6796	0.7962	-0.613
Mof_O 	O 	0.5562	0.5674	0.948	-0.587
Mof_O 	O 	0.3327	0.5812	0.8119	-0.607
Mof_O 	O 	0.4248	0.6794	0.4669	-0.387
Mof_O 	O 	0.7241	0.4206	0.7771	-0.606
Mof_O 	O 	0.6079	0.4375	0.937	-0.606
Mof_S 	S 	0.41302	0.20659	0.72856	0.93
Mof_S 	S 	0.38145	0.48593	0.02471	0.969
Mof_O 	O 	0.3546	0.1902	0.6682	-0.386
Mof_O 	O 	0.3031	0.4536	0.0424	-0.381
Mof_Ho	Ho	0.0842	0.46008	0.84906	2.019
Mof_O 	O 	0.9583	0.4601	0.7943	-0.725
Mof_O 	O 	0.9979	0.3889	0.9341	-0.548
Mof_O 	O 	0.0915	0.4767	0.711	-0.647
Mof_O 	O 	0.051	0.5894	0.8097	-0.687
Mof_O 	O 	0.2103	0.5175	0.8468	-0.592
Mof_O 	O 	0.0695	0.5402	0.9636	-0.547
Mof_O 	O 	0.109	0.3335	0.8013	-0.566
Mof_Ho	Ho	0.90917	0.58533	0.81011	1.897
Mof_Ho	Ho	0.96639	0.43951	0.65506	2.073
Mof_S 	S 	0.97549	0.38765	0.01682	0.911
Mof_Ho	Ho	0.0959	0.61381	0.68475	1.671
Mof_S 	S 	0.26611	0.53453	0.78292	1.038
Mof_O 	O 	0.9622	0.572	0.6815	-0.682
Mof_O 	O 	0.9183	0.7091	0.7567	-0.584
Mof_O 	O 	0.9514	0.6162	0.9359	-0.586
Mof_O 	O 	0.7957	0.5393	0.749	-0.618
Mof_O 	O 	0.8894	0.503	0.5589	-0.553
Mof_O 	O 	0.0071	0.3204	0.7038	-0.613
Mof_O 	O 	0.0562	0.4326	0.552	-0.587
Mof_O 	O 	0.8327	0.4188	0.6881	-0.607
Mof_O 	O 	0.9248	0.3206	0.0331	-0.387
Mof_O 	O 	0.2241	0.5794	0.7229	-0.606
Mof_O 	O 	0.1079	0.5625	0.563	-0.606
Mof_S 	S 	0.91302	0.79341	0.77144	0.929
Mof_S 	S 	0.88145	0.51407	0.47529	0.968
Mof_O 	O 	0.8546	0.8098	0.8318	-0.386
Mof_O 	O 	0.8031	0.5464	0.4576	-0.381
Mof_Ho	Ho	0.4158	0.03992	0.84906	2.031
Mof_O 	O 	0.5417	0.0399	0.7943	-0.726
Mof_O 	O 	0.5021	0.1111	0.9341	-0.553
Mof_O 	O 	0.4085	0.0233	0.711	-0.647
Mof_O 	O 	0.449	0.9106	0.8097	-0.687
Mof_O 	O 	0.2897	0.9825	0.8468	-0.593
Mof_O 	O 	0.4305	0.9598	0.9636	-0.549
Mof_O 	O 	0.391	0.1665	0.8013	-0.566
Mof_Ho	Ho	0.59083	0.91467	0.81011	1.894
Mof_Ho	Ho	0.53361	0.06049	0.65506	2.071
Mof_S 	S 	0.52451	0.11235	0.01682	0.922
Mof_Ho	Ho	0.4041	0.88619	0.68475	1.672
Mof_S 	S 	0.23389	0.96547	0.78292	1.034
Mof_O 	O 	0.5378	0.928	0.6815	-0.683
Mof_O 	O 	0.5817	0.7909	0.7567	-0.584
Mof_O 	O 	0.5486	0.8838	0.9359	-0.591
Mof_O 	O 	0.7043	0.9607	0.749	-0.618
Mof_O 	O 	0.6106	0.997	0.5589	-0.553
Mof_O 	O 	0.4929	0.1796	0.7038	-0.613
Mof_O 	O 	0.4438	0.0674	0.552	-0.587
Mof_O 	O 	0.6673	0.0812	0.6881	-0.607
Mof_O 	O 	0.5752	0.1794	0.0331	-0.388
Mof_O 	O 	0.2759	0.9206	0.7229	-0.606
Mof_O 	O 	0.3921	0.9375	0.563	-0.607
Mof_S 	S 	0.58698	0.70659	0.77144	0.929
Mof_S 	S 	0.61855	0.98593	0.47529	0.97
Mof_O 	O 	0.6454	0.6902	0.8318	-0.386
Mof_O 	O 	0.6969	0.9536	0.4576	-0.38
_end
