data_functionalizedCrystal
_audit_creation_method	'EQeq! by Chris Wilmer'
_symmetry_space_group_name_H-M	'P1'
_symmetry_Int_Tables_number	1
_symmetry_cell_setting	triclinic
loop_
_symmetry_equiv_pos_as_xyz
  x,y,z
_cell_length_a	13.95
_cell_length_b	26.713
_cell_length_c	7.628
_cell_angle_alpha	90
_cell_angle_beta	90
_cell_angle_gamma	90
loop_
_atom_site_label
_atom_site_type_symbol
_atom_site_fract_x
_atom_site_fract_y
_atom_site_fract_z
_atom_site_charge
Mof_Cd	Cd	0.69205	0.5	0.62347	0.376
Mof_Cd	Cd	0.7393	0.76917	0.62463	0.376
Mof_Ni	Ni	0.74864	0.63379	0.11515	1.063
Mof_Ni	Ni	0.47564	0.38378	0.9948	1.065
Mof_N 	N 	0.7177	0.5568	0.8359	-0.077
Mof_N 	N 	0.7243	0.5573	0.3995	-0.072
Mof_N 	N 	0.6429	0.4376	0.832	-0.067
Mof_N 	N 	0.3452	0.4659	0.8758	-0.071
Mof_N 	N 	0.6528	0.4426	0.394	-0.112
Mof_N 	N 	0.5282	0.513	0.5713	-0.127
Mof_N 	N 	0.7617	0.7118	0.8351	-0.077
Mof_N 	N 	0.7652	0.712	0.3957	-0.073
Mof_N 	N 	0.307	0.3324	0.159	-0.064
Mof_N 	N 	0.6072	0.3026	0.1163	-0.07
Mof_N 	N 	0.6973	0.8273	0.403	-0.115
Mof_N 	N 	0.5724	0.7559	0.5869	-0.123
Mof_C 	C 	0.7296	0.5856	0.943	-0.227
Mof_C 	C 	0.7337	0.586	0.2888	-0.237
Mof_C 	C 	0.581	0.4164	0.8979	-0.22
Mof_C 	C 	0.3949	0.4349	0.9203	-0.222
Mof_C 	C 	0.7606	0.6818	0.94	-0.225
Mof_C 	C 	0.7611	0.6826	0.2873	-0.236
Mof_C 	C 	0.37	0.3516	0.095	-0.211
Mof_C 	C 	0.5557	0.3327	0.069	-0.218
Mof_C 	C 	0.5515	0.446	0.361	-0.022
Mof_C 	C 	0.4963	0.4806	0.433	0.041
Mof_C 	C 	0.3899	0.48	0.391	-0.031
Mof_C 	C 	0.5898	0.8284	0.397	-0.023
Mof_C 	C 	0.5415	0.7851	0.434	0.033
Mof_C 	C 	0.4329	0.7867	0.409	-0.026
Mof_Cd	Cd	0.30795	1.11008e-33	0.37653	0.36
Mof_Cd	Cd	0.2607	0.26917	0.37537	0.374
Mof_Ni	Ni	0.25136	0.13379	0.88485	1.061
Mof_Ni	Ni	0.52436	0.88378	0.0052	1.066
Mof_N 	N 	0.2823	0.0568	0.1641	-0.079
Mof_N 	N 	0.2757	0.0573	0.6005	-0.074
Mof_N 	N 	0.3571	0.9376	0.168	-0.063
Mof_N 	N 	0.6548	0.9659	0.1242	-0.065
Mof_N 	N 	0.3472	0.9426	0.606	-0.108
Mof_N 	N 	0.4718	0.013	0.4287	-0.137
Mof_N 	N 	0.2383	0.2118	0.1649	-0.077
Mof_N 	N 	0.2348	0.212	0.6043	-0.073
Mof_N 	N 	0.693	0.8324	0.841	-0.064
Mof_N 	N 	0.3928	0.8026	0.8837	-0.07
Mof_N 	N 	0.3027	0.3273	0.597	-0.115
Mof_N 	N 	0.4276	0.2559	0.4131	-0.123
Mof_C 	C 	0.2704	0.0856	0.057	-0.229
Mof_C 	C 	0.2663	0.086	0.7112	-0.241
Mof_C 	C 	0.419	0.9164	0.1021	-0.218
Mof_C 	C 	0.6051	0.9349	0.0797	-0.219
Mof_C 	C 	0.2394	0.1818	0.06	-0.225
Mof_C 	C 	0.2389	0.1826	0.7127	-0.237
Mof_C 	C 	0.63	0.8516	0.905	-0.212
Mof_C 	C 	0.4443	0.8327	0.931	-0.219
Mof_C 	C 	0.4485	0.946	0.639	-0.023
Mof_C 	C 	0.5037	0.9806	0.567	0.054
Mof_C 	C 	0.6101	0.98	0.609	-0.025
Mof_C 	C 	0.4102	0.3284	0.603	-0.023
Mof_C 	C 	0.4585	0.2851	0.566	0.033
Mof_C 	C 	0.5671	0.2867	0.591	-0.026
Mof_Cd	Cd	0.19205	0.5	0.87653	0.373
Mof_Cd	Cd	0.2393	0.76917	0.87537	0.377
Mof_Ni	Ni	0.24864	0.63379	0.38485	1.064
Mof_Ni	Ni	0.97564	0.38378	0.5052	1.068
Mof_N 	N 	0.2177	0.5568	0.6641	-0.077
Mof_N 	N 	0.2243	0.5573	0.1005	-0.072
Mof_N 	N 	0.1429	0.4376	0.668	-0.067
Mof_N 	N 	0.8452	0.4659	0.6242	-0.071
Mof_N 	N 	0.1528	0.4426	0.106	-0.111
Mof_N 	N 	0.0282	0.513	0.9287	-0.128
Mof_N 	N 	0.2617	0.7118	0.6649	-0.077
Mof_N 	N 	0.2652	0.712	0.1043	-0.075
Mof_N 	N 	0.807	0.3324	0.341	-0.065
Mof_N 	N 	0.1072	0.3026	0.3837	-0.07
Mof_N 	N 	0.1973	0.8273	0.097	-0.116
Mof_N 	N 	0.0724	0.7559	0.9131	-0.121
Mof_C 	C 	0.2296	0.5856	0.557	-0.23
Mof_C 	C 	0.2337	0.586	0.2112	-0.237
Mof_C 	C 	0.081	0.4164	0.6021	-0.219
Mof_C 	C 	0.8949	0.4349	0.5797	-0.219
Mof_C 	C 	0.2606	0.6818	0.56	-0.23
Mof_C 	C 	0.2611	0.6826	0.2127	-0.235
Mof_C 	C 	0.87	0.3516	0.405	-0.216
Mof_C 	C 	0.0557	0.3327	0.431	-0.222
Mof_C 	C 	0.0515	0.446	0.139	-0.019
Mof_C 	C 	0.9963	0.4806	0.067	0.04
Mof_C 	C 	0.8899	0.48	0.109	-0.031
Mof_C 	C 	0.0898	0.8284	0.103	-0.023
Mof_C 	C 	0.0415	0.7851	0.066	0.031
Mof_C 	C 	0.9329	0.7867	0.091	-0.028
Mof_Cd	Cd	0.80795	2.77519e-34	0.12347	0.359
Mof_Cd	Cd	0.7607	0.26917	0.12463	0.378
Mof_Ni	Ni	0.75136	0.13379	0.61515	1.064
Mof_Ni	Ni	0.02436	0.88378	0.4948	1.068
Mof_N 	N 	0.7823	0.0568	0.3359	-0.078
Mof_N 	N 	0.7757	0.0573	0.8995	-0.075
Mof_N 	N 	0.8571	0.9376	0.332	-0.063
Mof_N 	N 	0.1548	0.9659	0.3758	-0.065
Mof_N 	N 	0.8472	0.9426	0.894	-0.107
Mof_N 	N 	0.9718	0.013	0.0713	-0.136
Mof_N 	N 	0.7383	0.2118	0.3351	-0.077
Mof_N 	N 	0.7348	0.212	0.8957	-0.075
Mof_N 	N 	0.193	0.8324	0.659	-0.064
Mof_N 	N 	0.8928	0.8026	0.6163	-0.07
Mof_N 	N 	0.8027	0.3273	0.903	-0.117
Mof_N 	N 	0.9276	0.2559	0.0869	-0.12
Mof_C 	C 	0.7704	0.0856	0.443	-0.233
Mof_C 	C 	0.7663	0.086	0.7888	-0.24
Mof_C 	C 	0.919	0.9164	0.3979	-0.215
Mof_C 	C 	0.1051	0.9349	0.4203	-0.218
Mof_C 	C 	0.7394	0.1818	0.44	-0.231
Mof_C 	C 	0.7389	0.1826	0.7873	-0.236
Mof_C 	C 	0.13	0.8516	0.595	-0.216
Mof_C 	C 	0.9443	0.8327	0.569	-0.221
Mof_C 	C 	0.9485	0.946	0.861	-0.017
Mof_C 	C 	0.0037	0.9806	0.933	0.048
Mof_C 	C 	0.1101	0.98	0.891	-0.025
Mof_C 	C 	0.9102	0.3284	0.897	-0.024
Mof_C 	C 	0.9585	0.2851	0.934	0.031
Mof_C 	C 	0.0671	0.2867	0.909	-0.03
_end
