data_functionalizedCrystal
_audit_creation_method	'EQeq! by Chris Wilmer'
_symmetry_space_group_name_H-M	'P1'
_symmetry_Int_Tables_number	1
_symmetry_cell_setting	triclinic
loop_
_symmetry_equiv_pos_as_xyz
  x,y,z
_cell_length_a	12.329
_cell_length_b	21.69
_cell_length_c	17.435
_cell_angle_alpha	90
_cell_angle_beta	96.32
_cell_angle_gamma	90
loop_
_atom_site_label
_atom_site_type_symbol
_atom_site_fract_x
_atom_site_fract_y
_atom_site_fract_z
_atom_site_charge
Mof_Co	Co	0.76365	0.38426	0.89318	1.163
Mof_C 	C 	0.7868	0.4036	0.1237	-0.126
Mof_C 	C 	0.8462	0.3636	0.1749	0.058
Mof_H 	H 	0.8779	0.3285	0.1565	0.02
Mof_C 	C 	0.8579	0.3762	0.253	-0.131
Mof_H 	H 	0.8971	0.3494	0.2872	0.086
Mof_C 	C 	0.8116	0.4283	0.2805	0.074
Mof_H 	H 	0.8219	0.4372	0.333	0.018
Mof_C 	C 	0.7493	0.468	0.2303	-0.157
Mof_C 	C 	0.7366	0.4548	0.1516	0.069
Mof_H 	H 	0.6943	0.4804	0.1177	0.021
Mof_C 	C 	0.776	0.3911	0.0385	0.289
Mof_C 	C 	0.6957	0.5242	0.2598	0.435
Mof_C 	C 	0.5615	0.2627	0.201	-0.155
Mof_C 	C 	0.5604	0.3266	0.201	0.07
Mof_H 	H 	0.6006	0.3483	0.1678	0.019
Mof_C 	C 	0.6312	0.2291	0.1488	0.399
Mof_C 	C 	0.45	0.3014	0.8638	0.031
Mof_C 	C 	0.3395	0.2964	0.838	-0.077
Mof_H 	H 	0.305	0.3216	0.7995	0.04
Mof_C 	C 	0.2836	0.2497	0.875	-0.036
Mof_H 	H 	0.2097	0.2432	0.8602	0.053
Mof_C 	C 	0.3382	0.2133	0.9337	-0.002
Mof_H 	H 	0.2996	0.1833	0.9575	0.047
Mof_C 	C 	0.4491	0.2212	0.9569	-0.109
Mof_H 	H 	0.485	0.1969	0.9956	0.087
Mof_C 	C 	0.5044	0.2665	0.9204	0.089
Mof_N 	N 	0.528	0.3446	0.8406	-0.219
Mof_N 	N 	0.6192	0.3323	0.8827	-0.17
Mof_N 	N 	0.6129	0.2864	0.931	-0.182
Mof_O 	O 	0.7353	0.4317	0.9925	-0.347
Mof_O 	O 	0.81	0.34178	0.0128	-0.515
Mof_O 	O 	0.6159	0.5459	0.2191	-0.504
Mof_O 	O 	0.7357	0.5439	0.3239	-0.494
Mof_O 	O 	0.6646	0.2599	0.0948	-0.464
Mof_O 	O 	0.6489	0.17288	0.1623	-0.487
Mof_Co	Co	0.26365	0.88426	0.89318	1.162
Mof_C 	C 	0.2868	0.9036	0.1237	-0.131
Mof_C 	C 	0.3462	0.8636	0.1749	0.058
Mof_H 	H 	0.3779	0.8285	0.1565	0.015
Mof_C 	C 	0.3579	0.8762	0.253	-0.138
Mof_H 	H 	0.3971	0.8494	0.2872	0.081
Mof_C 	C 	0.3116	0.9283	0.2805	0.075
Mof_H 	H 	0.3219	0.9372	0.333	0.012
Mof_C 	C 	0.2493	0.968	0.2303	-0.164
Mof_C 	C 	0.2366	0.9548	0.1516	0.072
Mof_H 	H 	0.1943	0.9804	0.1177	0.015
Mof_C 	C 	0.276	0.8911	0.0385	0.289
Mof_C 	C 	0.1957	0.0242	0.2598	0.436
Mof_C 	C 	0.0615	0.7627	0.201	-0.161
Mof_C 	C 	0.0604	0.8266	0.201	0.094
Mof_H 	H 	0.1006	0.8483	0.1678	0.008
Mof_C 	C 	0.1312	0.7291	0.1488	0.397
Mof_C 	C 	0.95	0.8014	0.8638	0.139
Mof_C 	C 	0.8395	0.7964	0.838	-0.154
Mof_H 	H 	0.805	0.8216	0.7995	0.07
Mof_C 	C 	0.7836	0.7497	0.875	0.04
Mof_H 	H 	0.7097	0.7432	0.8602	0.031
Mof_C 	C 	0.8382	0.7133	0.9337	-0.085
Mof_H 	H 	0.7996	0.6833	0.9575	0.081
Mof_C 	C 	0.9491	0.7212	0.9569	0.011
Mof_H 	H 	0.985	0.6969	0.9956	0.06
Mof_C 	C 	0.0044	0.7665	0.9204	-0.031
Mof_N 	N 	0.028	0.8446	0.8406	-0.248
Mof_N 	N 	0.1192	0.8323	0.8827	-0.172
Mof_N 	N 	0.1129	0.7864	0.931	-0.167
Mof_O 	O 	0.2353	0.9317	0.9925	-0.353
Mof_O 	O 	0.31	0.84178	0.0128	-0.52
Mof_O 	O 	0.1159	0.0459	0.2191	-0.513
Mof_O 	O 	0.2357	0.0439	0.3239	-0.5
Mof_O 	O 	0.1646	0.7599	0.0948	-0.467
Mof_O 	O 	0.1489	0.67288	0.1623	-0.491
Mof_Co	Co	0.23635	0.38426	0.60682	1.153
Mof_C 	C 	0.2132	0.4036	0.3763	-0.156
Mof_C 	C 	0.1538	0.3636	0.3251	0.075
Mof_H 	H 	0.1221	0.3285	0.3435	0.003
Mof_C 	C 	0.1421	0.3762	0.247	-0.156
Mof_H 	H 	0.1029	0.3494	0.2128	0.08
Mof_C 	C 	0.1884	0.4283	0.2195	0.085
Mof_H 	H 	0.1781	0.4372	0.167	0.001
Mof_C 	C 	0.2507	0.468	0.2697	-0.173
Mof_C 	C 	0.2634	0.4548	0.3484	0.089
Mof_H 	H 	0.3057	0.4804	0.3823	0.024
Mof_C 	C 	0.224	0.3911	0.4615	0.365
Mof_C 	C 	0.3043	0.5242	0.2402	0.439
Mof_C 	C 	0.4385	0.2627	0.299	-0.15
Mof_C 	C 	0.4396	0.3266	0.299	0.07
Mof_H 	H 	0.3994	0.3483	0.3322	0.023
Mof_C 	C 	0.3688	0.2291	0.3512	0.4
Mof_C 	C 	0.55	0.3014	0.6362	0.029
Mof_C 	C 	0.6605	0.2964	0.662	-0.079
Mof_H 	H 	0.695	0.3216	0.7005	0.04
Mof_C 	C 	0.7164	0.2497	0.625	-0.043
Mof_H 	H 	0.7903	0.2432	0.6398	0.058
Mof_C 	C 	0.6618	0.2133	0.5663	-0.008
Mof_H 	H 	0.7004	0.1833	0.5425	0.038
Mof_C 	C 	0.5509	0.2212	0.5431	-0.113
Mof_H 	H 	0.515	0.1969	0.5044	0.071
Mof_C 	C 	0.4956	0.2665	0.5796	0.079
Mof_N 	N 	0.472	0.3446	0.6594	-0.221
Mof_N 	N 	0.3808	0.3323	0.6173	-0.174
Mof_N 	N 	0.3871	0.2864	0.569	-0.195
Mof_O 	O 	0.2647	0.4317	0.5075	-0.419
Mof_O 	O 	0.19	0.34178	0.4872	-0.518
Mof_O 	O 	0.3841	0.5459	0.2809	-0.503
Mof_O 	O 	0.2643	0.5439	0.1761	-0.505
Mof_O 	O 	0.3354	0.2599	0.4052	-0.45
Mof_O 	O 	0.3511	0.17288	0.3377	-0.48
Mof_Co	Co	0.73635	0.88426	0.60682	1.155
Mof_C 	C 	0.7132	0.9036	0.3763	-0.148
Mof_C 	C 	0.6538	0.8636	0.3251	0.074
Mof_H 	H 	0.6221	0.8285	0.3435	0.008
Mof_C 	C 	0.6421	0.8762	0.247	-0.149
Mof_H 	H 	0.6029	0.8494	0.2128	0.085
Mof_C 	C 	0.6884	0.9283	0.2195	0.084
Mof_H 	H 	0.6781	0.9372	0.167	0.007
Mof_C 	C 	0.7507	0.968	0.2697	-0.164
Mof_C 	C 	0.7634	0.9548	0.3484	0.087
Mof_H 	H 	0.8057	0.9804	0.3823	0.03
Mof_C 	C 	0.724	0.8911	0.4615	0.365
Mof_C 	C 	0.8043	0.0242	0.2402	0.437
Mof_C 	C 	0.9385	0.7627	0.299	-0.128
Mof_C 	C 	0.9396	0.8266	0.299	0.129
Mof_H 	H 	0.8994	0.8483	0.3322	0.009
Mof_C 	C 	0.8688	0.7291	0.3512	0.399
Mof_C 	C 	0.05	0.8014	0.6362	-0.08
Mof_C 	C 	0.1605	0.7964	0.662	-0.001
Mof_H 	H 	0.195	0.8216	0.7005	0.01
Mof_C 	C 	0.2164	0.7497	0.625	-0.119
Mof_H 	H 	0.2903	0.7432	0.6398	0.078
Mof_C 	C 	0.1618	0.7133	0.5663	0.077
Mof_H 	H 	0.2004	0.6833	0.5425	0.004
Mof_C 	C 	0.0509	0.7212	0.5431	-0.236
Mof_H 	H 	0.015	0.6969	0.5044	0.099
Mof_C 	C 	0.9956	0.7665	0.5796	0.201
Mof_N 	N 	0.972	0.8446	0.6594	-0.187
Mof_N 	N 	0.8808	0.8323	0.6173	-0.172
Mof_N 	N 	0.8871	0.7864	0.569	-0.21
Mof_O 	O 	0.7647	0.9317	0.5075	-0.412
Mof_O 	O 	0.69	0.84178	0.4872	-0.513
Mof_O 	O 	0.8841	0.0459	0.2809	-0.487
Mof_O 	O 	0.7643	0.0439	0.1761	-0.498
Mof_O 	O 	0.8354	0.7599	0.4052	-0.446
Mof_O 	O 	0.8511	0.67288	0.3377	-0.471
Mof_Co	Co	0.23635	0.61574	0.10682	1.144
Mof_C 	C 	0.2132	0.5964	0.8763	-0.174
Mof_C 	C 	0.1538	0.6364	0.8251	0.09
Mof_H 	H 	0.1221	0.6715	0.8435	-0.002
Mof_C 	C 	0.1421	0.6238	0.747	-0.165
Mof_H 	H 	0.1029	0.6506	0.7128	0.083
Mof_C 	C 	0.1884	0.5717	0.7195	0.093
Mof_H 	H 	0.1781	0.5628	0.667	0.004
Mof_C 	C 	0.2507	0.532	0.7697	-0.176
Mof_C 	C 	0.2634	0.5452	0.8484	0.105
Mof_H 	H 	0.3057	0.5196	0.8823	0.032
Mof_C 	C 	0.224	0.6089	0.9615	0.439
Mof_C 	C 	0.3043	0.4758	0.7402	0.442
Mof_C 	C 	0.4385	0.7373	0.799	-0.14
Mof_C 	C 	0.4396	0.6734	0.799	0.065
Mof_H 	H 	0.3994	0.6517	0.8322	0.03
Mof_C 	C 	0.3688	0.7709	0.8512	0.398
Mof_C 	C 	0.55	0.6986	0.1362	0.028
Mof_C 	C 	0.6605	0.7036	0.162	-0.084
Mof_H 	H 	0.695	0.6784	0.2005	0.039
Mof_C 	C 	0.7164	0.7503	0.125	-0.046
Mof_H 	H 	0.7903	0.7568	0.1398	0.052
Mof_C 	C 	0.6618	0.7867	0.0663	-0.016
Mof_H 	H 	0.7004	0.8167	0.0425	0.026
Mof_C 	C 	0.5509	0.7788	0.0431	-0.115
Mof_H 	H 	0.515	0.8031	0.0044	0.054
Mof_C 	C 	0.4956	0.7335	0.0796	0.07
Mof_N 	N 	0.472	0.6554	0.1594	-0.223
Mof_N 	N 	0.3808	0.6677	0.1173	-0.178
Mof_N 	N 	0.3871	0.7136	0.069	-0.203
Mof_O 	O 	0.2647	0.5683	0.0075	-0.486
Mof_O 	O 	0.19	0.65822	0.9872	-0.505
Mof_O 	O 	0.3841	0.4541	0.7809	-0.498
Mof_O 	O 	0.2643	0.4561	0.6761	-0.5
Mof_O 	O 	0.3354	0.7401	0.9052	-0.426
Mof_O 	O 	0.3511	0.82712	0.8377	-0.469
Mof_Co	Co	0.73635	0.11574	0.10682	1.146
Mof_C 	C 	0.7132	0.0964	0.8763	-0.167
Mof_C 	C 	0.6538	0.1364	0.8251	0.09
Mof_H 	H 	0.6221	0.1715	0.8435	0.003
Mof_C 	C 	0.6421	0.1238	0.747	-0.157
Mof_H 	H 	0.6029	0.1506	0.7128	0.088
Mof_C 	C 	0.6884	0.0717	0.7195	0.092
Mof_H 	H 	0.6781	0.0628	0.667	0.01
Mof_C 	C 	0.7507	0.032	0.7697	-0.167
Mof_C 	C 	0.7634	0.0452	0.8484	0.102
Mof_H 	H 	0.8057	0.0196	0.8823	0.037
Mof_C 	C 	0.724	0.1089	0.9615	0.438
Mof_C 	C 	0.8043	0.9758	0.7402	0.439
Mof_C 	C 	0.9385	0.2373	0.799	-0.119
Mof_C 	C 	0.9396	0.1734	0.799	0.123
Mof_H 	H 	0.8994	0.1517	0.8322	0.015
Mof_C 	C 	0.8688	0.2709	0.8512	0.396
Mof_C 	C 	0.05	0.1986	0.1362	-0.082
Mof_C 	C 	0.1605	0.2036	0.162	-0.006
Mof_H 	H 	0.195	0.1784	0.2005	0.009
Mof_C 	C 	0.2164	0.2503	0.125	-0.123
Mof_H 	H 	0.2903	0.2568	0.1398	0.073
Mof_C 	C 	0.1618	0.2867	0.0663	0.069
Mof_H 	H 	0.2004	0.3167	0.0425	-0.008
Mof_C 	C 	0.0509	0.2788	0.0431	-0.239
Mof_H 	H 	0.015	0.3031	0.0044	0.082
Mof_C 	C 	0.9956	0.2335	0.0796	0.192
Mof_N 	N 	0.972	0.1554	0.1594	-0.189
Mof_N 	N 	0.8808	0.1677	0.1173	-0.176
Mof_N 	N 	0.8871	0.2136	0.069	-0.218
Mof_O 	O 	0.7647	0.0683	0.0075	-0.478
Mof_O 	O 	0.69	0.15822	0.9872	-0.5
Mof_O 	O 	0.8841	0.9541	0.7809	-0.483
Mof_O 	O 	0.7643	0.9561	0.6761	-0.494
Mof_O 	O 	0.8354	0.2401	0.9052	-0.422
Mof_O 	O 	0.8511	0.32712	0.8377	-0.461
Mof_Co	Co	0.76365	0.61574	0.39318	1.155
Mof_C 	C 	0.7868	0.5964	0.6237	-0.145
Mof_C 	C 	0.8462	0.6364	0.6749	0.075
Mof_H 	H 	0.8779	0.6715	0.6565	0.014
Mof_C 	C 	0.8579	0.6238	0.753	-0.141
Mof_H 	H 	0.8971	0.6506	0.7872	0.09
Mof_C 	C 	0.8116	0.5717	0.7805	0.083
Mof_H 	H 	0.8219	0.5628	0.833	0.02
Mof_C 	C 	0.7493	0.532	0.7303	-0.161
Mof_C 	C 	0.7366	0.5452	0.6516	0.086
Mof_H 	H 	0.6943	0.5196	0.6177	0.027
Mof_C 	C 	0.776	0.6089	0.5385	0.366
Mof_C 	C 	0.6957	0.4758	0.7598	0.438
Mof_C 	C 	0.5615	0.7373	0.701	-0.145
Mof_C 	C 	0.5604	0.6734	0.701	0.065
Mof_H 	H 	0.6006	0.6517	0.6678	0.025
Mof_C 	C 	0.6312	0.7709	0.6488	0.399
Mof_C 	C 	0.45	0.6986	0.3638	0.03
Mof_C 	C 	0.3395	0.7036	0.338	-0.082
Mof_H 	H 	0.305	0.6784	0.2995	0.039
Mof_C 	C 	0.2836	0.7503	0.375	-0.04
Mof_H 	H 	0.2097	0.7568	0.3602	0.048
Mof_C 	C 	0.3382	0.7867	0.4337	-0.01
Mof_H 	H 	0.2996	0.8167	0.4575	0.035
Mof_C 	C 	0.4491	0.7788	0.4569	-0.112
Mof_H 	H 	0.485	0.8031	0.4956	0.07
Mof_C 	C 	0.5044	0.7335	0.4204	0.079
Mof_N 	N 	0.528	0.6554	0.3406	-0.221
Mof_N 	N 	0.6192	0.6677	0.3827	-0.175
Mof_N 	N 	0.6129	0.7136	0.431	-0.196
Mof_O 	O 	0.7353	0.5683	0.4925	-0.414
Mof_O 	O 	0.81	0.65822	0.5128	-0.51
Mof_O 	O 	0.6159	0.4541	0.7191	-0.5
Mof_O 	O 	0.7357	0.4561	0.8239	-0.49
Mof_O 	O 	0.6646	0.7401	0.5948	-0.449
Mof_O 	O 	0.6489	0.82712	0.6623	-0.478
Mof_Co	Co	0.26365	0.11574	0.39318	1.153
Mof_C 	C 	0.2868	0.0964	0.6237	-0.152
Mof_C 	C 	0.3462	0.1364	0.6749	0.075
Mof_H 	H 	0.3779	0.1715	0.6565	0.008
Mof_C 	C 	0.3579	0.1238	0.753	-0.148
Mof_H 	H 	0.3971	0.1506	0.7872	0.085
Mof_C 	C 	0.3116	0.0717	0.7805	0.084
Mof_H 	H 	0.3219	0.0628	0.833	0.015
Mof_C 	C 	0.2493	0.032	0.7303	-0.168
Mof_C 	C 	0.2366	0.0452	0.6516	0.089
Mof_H 	H 	0.1943	0.0196	0.6177	0.022
Mof_C 	C 	0.276	0.1089	0.5385	0.365
Mof_C 	C 	0.1957	0.9758	0.7598	0.439
Mof_C 	C 	0.0615	0.2373	0.701	-0.151
Mof_C 	C 	0.0604	0.1734	0.701	0.089
Mof_H 	H 	0.1006	0.1517	0.6678	0.013
Mof_C 	C 	0.1312	0.2709	0.6488	0.397
Mof_C 	C 	0.95	0.1986	0.3638	0.141
Mof_C 	C 	0.8395	0.2036	0.338	-0.161
Mof_H 	H 	0.805	0.1784	0.2995	0.07
Mof_C 	C 	0.7836	0.2503	0.375	0.038
Mof_H 	H 	0.7097	0.2568	0.3602	0.024
Mof_C 	C 	0.8382	0.2867	0.4337	-0.096
Mof_H 	H 	0.7996	0.3167	0.4575	0.069
Mof_C 	C 	0.9491	0.2788	0.4569	0.012
Mof_H 	H 	0.985	0.3031	0.4956	0.042
Mof_C 	C 	0.0044	0.2335	0.4204	-0.044
Mof_N 	N 	0.028	0.1554	0.3406	-0.25
Mof_N 	N 	0.1192	0.1677	0.3827	-0.176
Mof_N 	N 	0.1129	0.2136	0.431	-0.181
Mof_O 	O 	0.2353	0.0683	0.4925	-0.421
Mof_O 	O 	0.31	0.15822	0.5128	-0.515
Mof_O 	O 	0.1159	0.9541	0.7191	-0.508
Mof_O 	O 	0.2357	0.9561	0.8239	-0.495
Mof_O 	O 	0.1646	0.2401	0.5948	-0.452
Mof_O 	O 	0.1489	0.32712	0.6623	-0.482
Mof_Co	Co	0.75	0.25	-0	1.142
Mof_Co	Co	0.25	0.25	0.5	1.167
Mof_Co	Co	0.25	0.75	-0	1.14
Mof_Co	Co	0.75	0.75	0.5	1.168
Mof_Co	Co	0.5	0.40229	0.75	1.14
Mof_Co	Co	4.4144e-33	0.90229	0.75	1.125
Mof_Co	Co	0.5	0.59771	0.25	1.138
Mof_Co	Co	-6.13322e-18	0.09771	0.25	1.123
Mof_C 	C 	0.5	0.2308	0.25	0.08
Mof_H 	H 	0.5	0.188	0.25	0.021
Mof_C 	C 	0.5	0.3578	0.25	-0.139
Mof_H 	H 	0.5	0.4007	0.25	0.081
Mof_C 	C 	-6.13322e-18	0.7308	0.25	0.042
Mof_H 	H 	1.47147e-33	0.688	0.25	0.022
Mof_C 	C 	1.47147e-33	0.8578	0.25	-0.209
Mof_H 	H 	1.47147e-33	0.9007	0.25	0.095
Mof_C 	C 	0.5	0.7692	0.75	0.075
Mof_H 	H 	0.5	0.812	0.75	0.027
Mof_C 	C 	0.5	0.6422	0.75	-0.13
Mof_H 	H 	0.5	0.5993	0.75	0.081
Mof_C 	C 	2.45329e-17	0.2692	0.75	0.038
Mof_H 	H 	2.45329e-17	0.312	0.75	0.029
Mof_C 	C 	4.4144e-33	0.1422	0.75	-0.199
Mof_H 	H 	2.45329e-17	0.0993	0.75	0.095
_end
