data_functionalizedCrystal
_audit_creation_method	'EQeq! by Chris Wilmer'
_symmetry_space_group_name_H-M	'P1'
_symmetry_Int_Tables_number	1
_symmetry_cell_setting	triclinic
loop_
_symmetry_equiv_pos_as_xyz
  x,y,z
_cell_length_a	8.344
_cell_length_b	12.3194
_cell_length_c	17.558
_cell_angle_alpha	98.0583
_cell_angle_beta	90
_cell_angle_gamma	109.795
loop_
_atom_site_label
_atom_site_type_symbol
_atom_site_fract_x
_atom_site_fract_y
_atom_site_fract_z
_atom_site_charge
Mof_Yb	Yb	0.81773	0	0.75	1.295
Mof_Yb	Yb	0.18227	0	0.25	1.232
Mof_Yb	Yb	-0	0	-0	1.079
Mof_Yb	Yb	-8.46267e-18	0	0.5	1.23
Mof_H 	H 	0.7448	0.6218	0.9363	0.087
Mof_H 	H 	0.5073	0.6914	0.7614	0.052
Mof_H 	H 	0.3275	0.5012	0.7376	0.055
Mof_H 	H 	0.6433	0.42	0.973	0.108
Mof_H 	H 	0.4481	0.2382	0.9567	0.012
Mof_H 	H 	0.2292	0.3032	0.774	0.025
Mof_H 	H 	0.9764	0.3578	0.8712	0.058
Mof_H 	H 	0.8001	0.244	0.0697	0.031
Mof_H 	H 	0.8825	0.4302	0.131	0.066
Mof_H 	H 	0.123	0.3782	0.5637	0.057
Mof_H 	H 	0.8159	0.3086	0.7386	0.015
Mof_H 	H 	0.8263	0.4988	0.7624	0.079
Mof_H 	H 	0.2233	0.58	0.527	0.069
Mof_H 	H 	0.2099	0.7618	0.5433	0.06
Mof_H 	H 	0.926	0.6968	0.726	0.06
Mof_H 	H 	0.6186	0.6422	0.6288	0.065
Mof_H 	H 	0.5561	0.756	0.4303	0.077
Mof_H 	H 	0.4523	0.5698	0.369	0.061
Mof_H 	H 	0.2552	0.3782	0.0637	0.022
Mof_H 	H 	0.4927	0.3086	0.2386	0.006
Mof_H 	H 	0.6725	0.4988	0.2624	0.092
Mof_H 	H 	0.3567	0.58	0.027	0.042
Mof_H 	H 	0.5519	0.7618	0.0433	0.062
Mof_H 	H 	0.7708	0.6968	0.226	0.086
Mof_H 	H 	0.0236	0.6422	0.1288	0.052
Mof_H 	H 	0.1999	0.756	0.9303	0.05
Mof_H 	H 	0.1175	0.5698	0.869	0.071
Mof_H 	H 	0.877	0.6218	0.4363	0.051
Mof_H 	H 	0.1841	0.6914	0.2614	0.041
Mof_H 	H 	0.1737	0.5012	0.2376	0.067
Mof_H 	H 	0.7767	0.42	0.473	0.083
Mof_H 	H 	0.7901	0.2382	0.4567	0.008
Mof_H 	H 	0.074	0.3032	0.274	0.05
Mof_H 	H 	0.3814	0.3578	0.3712	0.042
Mof_H 	H 	0.4439	0.244	0.5697	-0.002
Mof_H 	H 	0.5477	0.4302	0.631	0.077
Mof_C 	C 	0.6589	0.5968	0.8975	-0.062
Mof_C 	C 	0.6423	0.6736	0.8525	-0.07
Mof_C 	C 	0.517	0.6378	0.7921	-0.001
Mof_C 	C 	0.4092	0.5244	0.7781	-0.071
Mof_C 	C 	0.4205	0.443	0.8243	-0.017
Mof_C 	C 	0.5483	0.4796	0.8865	0.071
Mof_C 	C 	0.5578	0.3982	0.9342	-0.147
Mof_C 	C 	0.4439	0.2898	0.9235	0.086
Mof_C 	C 	0.3173	0.2524	0.8625	-0.165
Mof_C 	C 	0.3107	0.3288	0.8147	0.015
Mof_C 	C 	0.7534	0.7992	0.8688	0.405
Mof_C 	C 	0.1814	0.1348	0.8563	0.445
Mof_C 	C 	0.9595	0.3734	0.9233	-0.012
Mof_C 	C 	0.8821	0.2834	0.9623	-0.034
Mof_C 	C 	0.853	0.3056	0.0429	-0.055
Mof_C 	C 	0.9028	0.416	0.0791	-0.078
Mof_C 	C 	0.0144	0.489	0.96	0.017
Mof_C 	C 	0.8327	0.157	0.9222	0.398
Mof_C 	C 	0.0621	0.4032	0.6025	-0.053
Mof_C 	C 	0.9687	0.3264	0.6475	-0.109
Mof_C 	C 	0.8792	0.3622	0.7079	0.049
Mof_C 	C 	0.8848	0.4756	0.7219	-0.124
Mof_C 	C 	0.9775	0.557	0.6757	0.068
Mof_C 	C 	0.0687	0.5204	0.6135	-0.015
Mof_C 	C 	0.1596	0.6018	0.5658	-0.085
Mof_C 	C 	0.1541	0.7102	0.5765	0.015
Mof_C 	C 	0.0649	0.7476	0.6375	-0.102
Mof_C 	C 	0.9819	0.6712	0.6853	-0.006
Mof_C 	C 	0.9542	0.2008	0.6312	0.492
Mof_C 	C 	0.0466	0.8652	0.6437	0.354
Mof_C 	C 	0.5861	0.6266	0.5767	-0.067
Mof_C 	C 	0.5987	0.7166	0.5377	-0.049
Mof_C 	C 	0.5474	0.6944	0.4571	-0.014
Mof_C 	C 	0.4868	0.584	0.4209	-0.063
Mof_C 	C 	0.5254	0.511	0.54	0.053
Mof_C 	C 	0.6757	0.843	0.5778	0.368
Mof_C 	C 	0.3411	0.4032	0.1025	0.016
Mof_C 	C 	0.3577	0.3264	0.1475	-0.171
Mof_C 	C 	0.483	0.3622	0.2079	0.076
Mof_C 	C 	0.5908	0.4756	0.2219	-0.155
Mof_C 	C 	0.5795	0.557	0.1757	0.075
Mof_C 	C 	0.4517	0.5204	0.1135	-0.029
Mof_C 	C 	0.4422	0.6018	0.0658	-0.053
Mof_C 	C 	0.5561	0.7102	0.0765	-0.021
Mof_C 	C 	0.6827	0.7476	0.1375	-0.04
Mof_C 	C 	0.6893	0.6712	0.1853	-0.077
Mof_C 	C 	0.2466	0.2008	0.1312	0.454
Mof_C 	C 	0.8186	0.8652	0.1437	0.372
Mof_C 	C 	0.0405	0.6266	0.0767	-0.068
Mof_C 	C 	0.1179	0.7166	0.0377	-0.133
Mof_C 	C 	0.147	0.6944	0.9571	0.089
Mof_C 	C 	0.0972	0.584	0.9209	-0.115
Mof_C 	C 	0.9856	0.511	0.04	0.031
Mof_C 	C 	0.1673	0.843	0.0778	0.375
Mof_C 	C 	0.9379	0.5968	0.3975	0.01
Mof_C 	C 	0.0313	0.6736	0.3525	-0.139
Mof_C 	C 	0.1208	0.6378	0.2921	0.029
Mof_C 	C 	0.1152	0.5244	0.2781	-0.103
Mof_C 	C 	0.0225	0.443	0.3243	-0.012
Mof_C 	C 	0.9313	0.4796	0.3865	0.059
Mof_C 	C 	0.8404	0.3982	0.4342	-0.121
Mof_C 	C 	0.8459	0.2898	0.4235	0.058
Mof_C 	C 	0.9351	0.2524	0.3625	-0.114
Mof_C 	C 	0.0181	0.3288	0.3147	-0.053
Mof_C 	C 	0.0458	0.7992	0.3688	0.384
Mof_C 	C 	0.9534	0.1348	0.3563	0.485
Mof_C 	C 	0.4139	0.3734	0.4233	-0.006
Mof_C 	C 	0.4013	0.2834	0.4623	-0.13
Mof_C 	C 	0.4526	0.3056	0.5429	0.056
Mof_C 	C 	0.5132	0.416	0.5791	-0.134
Mof_C 	C 	0.4746	0.489	0.46	-0.008
Mof_C 	C 	0.3243	0.157	0.4222	0.42
Mof_O 	O 	0.7411	0.8664	0.8242	-0.331
Mof_O 	O 	0.8582	0.8318	0.926	-0.282
Mof_O 	O 	0.0854	0.1006	0.7972	-0.51
Mof_O 	O 	0.1695	0.0754	0.9103	-0.488
Mof_O 	O 	0.8094	0.1396	0.8515	-0.452
Mof_O 	O 	0.8193	0.08	0.9657	-0.452
Mof_O 	O 	0.8747	0.1336	0.6758	-0.538
Mof_O 	O 	0.0264	0.1682	0.574	-0.514
Mof_O 	O 	0.9848	0.8994	0.7028	-0.253
Mof_O 	O 	0.0941	0.9246	0.5897	-0.291
Mof_O 	O 	0.6698	0.8604	0.6485	-0.325
Mof_O 	O 	0.7393	0.92	0.5343	-0.27
Mof_O 	O 	0.2589	0.1336	0.1758	-0.531
Mof_O 	O 	0.1418	0.1682	0.074	-0.486
Mof_O 	O 	0.9146	0.8994	0.2028	-0.255
Mof_O 	O 	0.8305	0.9246	0.0897	-0.265
Mof_O 	O 	0.1906	0.8604	0.1485	-0.327
Mof_O 	O 	0.1807	0.92	0.0343	-0.29
Mof_O 	O 	0.1253	0.8664	0.3242	-0.332
Mof_O 	O 	0.9736	0.8318	0.426	-0.298
Mof_O 	O 	0.0152	0.1006	0.2972	-0.526
Mof_O 	O 	0.9059	0.0754	0.4103	-0.513
Mof_O 	O 	0.3302	0.1396	0.3515	-0.464
Mof_O 	O 	0.2607	0.08	0.4657	-0.524
_end
