data_functionalizedCrystal
_audit_creation_method	'EQeq! by Chris Wilmer'
_symmetry_space_group_name_H-M	'P1'
_symmetry_Int_Tables_number	1
_symmetry_cell_setting	triclinic
loop_
_symmetry_equiv_pos_as_xyz
  x,y,z
_cell_length_a	11.9248
_cell_length_b	16.1606
_cell_length_c	17.5254
_cell_angle_alpha	90.088
_cell_angle_beta	98.563
_cell_angle_gamma	109.939
loop_
_atom_site_label
_atom_site_type_symbol
_atom_site_fract_x
_atom_site_fract_y
_atom_site_fract_z
_atom_site_charge
Mof_Gd	Gd	0.43717	0.58396	0.66373	1.82
Mof_Gd	Gd	0.46962	0.19726	0.21115	1.722
Mof_Gd	Gd	0.22387	0.27682	0.26313	1.792
Mof_Gd	Gd	0.42989	0.20626	0.42457	1.8
Mof_Gd	Gd	0.56283	0.41604	0.33627	1.82
Mof_Gd	Gd	0.53038	0.80274	0.78885	1.722
Mof_Gd	Gd	0.77613	0.72318	0.73687	1.792
Mof_Gd	Gd	0.57011	0.79374	0.57543	1.8
Mof_Co	Co	0.1439	0.32033	0.60064	1.178
Mof_Co	Co	0.94295	0.31342	0.86908	1.205
Mof_Co	Co	0.8561	0.67967	0.39936	1.178
Mof_Co	Co	0.05705	0.68658	0.13092	1.205
Mof_H 	H 	0.5136	0.0553	0.5466	-0.002
Mof_H 	H 	0.2955	0.1387	0.704	0.071
Mof_H 	H 	0.3565	0.0187	0.7346	0.016
Mof_H 	H 	0.3333	0.6217	0.978	0.012
Mof_H 	H 	0.2089	0.5318	0.0572	0.07
Mof_H 	H 	0.1218	0.4693	0.7944	-0.002
Mof_H 	H 	0.2866	0.2456	0.8213	0.068
Mof_H 	H 	0.3569	0.2242	0.9472	0.021
Mof_H 	H 	0.0707	0.2549	0.0154	0.005
Mof_H 	H 	0.849	0.4666	0.8042	0.006
Mof_H 	H 	0.5175	0.2112	0.784	0.069
Mof_H 	H 	0.4907	0.3419	0.7425	0.034
Mof_H 	H 	0.9899	0.5691	0.6126	0.069
Mof_H 	H 	0.7865	0.4981	0.5618	0.012
Mof_H 	H 	0.8558	0.2749	0.5435	0.003
Mof_H 	H 	0.9444	0.1044	0.3811	0.031
Mof_H 	H 	0.8328	0.9908	0.4457	0.038
Mof_H 	H 	0.9826	0.1337	0.6437	0.019
Mof_H 	H 	0.6467	0.6469	0.5917	0.356
Mof_H 	H 	0.2761	0.1225	0.2971	0.36
Mof_H 	H 	0.5895	0.6494	0.8111	0.34
Mof_H 	H 	0.3799	0.7405	0.6426	0.354
Mof_H 	H 	0.0387	0.1606	0.2605	0.274
Mof_H 	H 	0.0654	0.0896	0.265	0.369
Mof_H 	H 	0.4864	0.9447	0.4534	-0.002
Mof_H 	H 	0.7045	0.8613	0.296	0.071
Mof_H 	H 	0.6435	0.9813	0.2654	0.016
Mof_H 	H 	0.6667	0.3783	0.022	0.012
Mof_H 	H 	0.7911	0.4682	0.9428	0.07
Mof_H 	H 	0.8782	0.5307	0.2056	-0.002
Mof_H 	H 	0.7134	0.7544	0.1787	0.068
Mof_H 	H 	0.6431	0.7758	0.0528	0.021
Mof_H 	H 	0.9293	0.7451	0.9846	0.005
Mof_H 	H 	0.151	0.5334	0.1958	0.006
Mof_H 	H 	0.4825	0.7888	0.216	0.069
Mof_H 	H 	0.5093	0.6581	0.2575	0.034
Mof_H 	H 	0.0101	0.4309	0.3874	0.069
Mof_H 	H 	0.2135	0.5019	0.4382	0.012
Mof_H 	H 	0.1442	0.7251	0.4565	0.003
Mof_H 	H 	0.0556	0.8956	0.6189	0.031
Mof_H 	H 	0.1672	0.0092	0.5543	0.038
Mof_H 	H 	0.0174	0.8663	0.3563	0.019
Mof_H 	H 	0.3533	0.3531	0.4083	0.356
Mof_H 	H 	0.7239	0.8775	0.7029	0.36
Mof_H 	H 	0.4105	0.3506	0.1889	0.34
Mof_H 	H 	0.6201	0.2595	0.3574	0.354
Mof_H 	H 	0.9613	0.8394	0.7395	0.274
Mof_H 	H 	0.9346	0.9104	0.735	0.369
Mof_C 	C 	0.4798	0.9432	0.657	0.475
Mof_C 	C 	0.4426	0.0244	0.6417	-0.177
Mof_C 	C 	0.469	0.0719	0.579	0.137
Mof_C 	C 	0.3721	0.1656	0.6089	-0.012
Mof_C 	C 	0.3407	0.1211	0.6727	-0.091
Mof_C 	C 	0.3762	0.0494	0.6909	0.064
Mof_C 	C 	0.3422	0.2445	0.5848	0.349
Mof_C 	C 	0.3243	0.6051	0.8239	0.461
Mof_C 	C 	0.239	0.5538	0.8785	-0.16
Mof_C 	C 	0.2661	0.5737	0.9571	0.072
Mof_C 	C 	0.1915	0.521	0.0039	-0.09
Mof_C 	C 	0.0919	0.4529	0.9711	0.001
Mof_C 	C 	0.1383	0.4826	0.8475	0.114
Mof_C 	C 	0.0038	0.3896	0.0154	0.271
Mof_C 	C 	0.0849	0.2874	0.7695	0.354
Mof_C 	C 	0.1384	0.2682	0.8474	-0.028
Mof_C 	C 	0.2446	0.249	0.8611	-0.072
Mof_C 	C 	0.2849	0.2354	0.9358	0.054
Mof_C 	C 	0.2196	0.238	0.9952	-0.165
Mof_C 	C 	0.1159	0.2543	0.9766	0.116
Mof_C 	C 	0.2628	0.2264	0.0797	0.45
Mof_C 	C 	0.6537	0.5042	0.7432	0.48
Mof_C 	C 	0.6726	0.4188	0.7677	-0.164
Mof_C 	C 	0.782	0.415	0.7985	0.103
Mof_C 	C 	0.6979	0.264	0.8134	-0.011
Mof_C 	C 	0.5834	0.2632	0.7862	-0.072
Mof_C 	C 	0.567	0.3407	0.7618	0.042
Mof_C 	C 	0.7242	0.1825	0.8344	0.295
Mof_C 	C 	0.1714	0.5023	0.6281	0.301
Mof_C 	C 	0.0362	0.4607	0.6039	-0.005
Mof_C 	C 	0.9607	0.5095	0.5971	-0.082
Mof_C 	C 	0.8404	0.4675	0.5668	0.052
Mof_C 	C 	0.801	0.3776	0.5438	-0.148
Mof_C 	C 	0.8833	0.3351	0.5563	0.106
Mof_C 	C 	0.6752	0.3313	0.5009	0.393
Mof_C 	C 	0.1086	0.2655	0.4389	0.392
Mof_C 	C 	0.0271	0.1862	0.4748	-0.062
Mof_C 	C 	0.9509	0.1098	0.4346	-0.034
Mof_C 	C 	0.8851	0.042	0.4733	0.017
Mof_C 	C 	0.8945	0.0479	0.5527	-0.123
Mof_C 	C 	0.9731	0.1277	0.5901	0.076
Mof_C 	C 	0.8288	0.9739	0.5991	0.388
Mof_C 	C 	0.5202	0.0568	0.343	0.475
Mof_C 	C 	0.5574	0.9756	0.3583	-0.177
Mof_C 	C 	0.531	0.9281	0.421	0.137
Mof_C 	C 	0.6279	0.8344	0.3911	-0.012
Mof_C 	C 	0.6593	0.8789	0.3273	-0.091
Mof_C 	C 	0.6238	0.9506	0.3091	0.064
Mof_C 	C 	0.6578	0.7555	0.4152	0.349
Mof_C 	C 	0.6757	0.3949	0.1761	0.461
Mof_C 	C 	0.761	0.4462	0.1215	-0.16
Mof_C 	C 	0.7339	0.4263	0.0429	0.072
Mof_C 	C 	0.8085	0.479	0.9961	-0.09
Mof_C 	C 	0.9081	0.5471	0.0289	0.001
Mof_C 	C 	0.8617	0.5174	0.1525	0.114
Mof_C 	C 	0.9962	0.6104	0.9846	0.271
Mof_C 	C 	0.9151	0.7126	0.2305	0.354
Mof_C 	C 	0.8616	0.7318	0.1526	-0.028
Mof_C 	C 	0.7554	0.751	0.1389	-0.072
Mof_C 	C 	0.7151	0.7646	0.0642	0.054
Mof_C 	C 	0.7804	0.762	0.0048	-0.165
Mof_C 	C 	0.8841	0.7457	0.0234	0.116
Mof_C 	C 	0.7372	0.7736	0.9203	0.45
Mof_C 	C 	0.3463	0.4958	0.2568	0.48
Mof_C 	C 	0.3274	0.5812	0.2323	-0.164
Mof_C 	C 	0.218	0.585	0.2015	0.103
Mof_C 	C 	0.3021	0.736	0.1866	-0.011
Mof_C 	C 	0.4166	0.7368	0.2138	-0.072
Mof_C 	C 	0.433	0.6593	0.2382	0.042
Mof_C 	C 	0.2758	0.8175	0.1656	0.295
Mof_C 	C 	0.8286	0.4977	0.3719	0.301
Mof_C 	C 	0.9638	0.5393	0.3961	-0.005
Mof_C 	C 	0.0393	0.4905	0.4029	-0.082
Mof_C 	C 	0.1596	0.5325	0.4332	0.052
Mof_C 	C 	0.199	0.6224	0.4562	-0.148
Mof_C 	C 	0.1167	0.6649	0.4437	0.106
Mof_C 	C 	0.3248	0.6687	0.4991	0.393
Mof_C 	C 	0.8914	0.7345	0.5611	0.392
Mof_C 	C 	0.9729	0.8138	0.5252	-0.062
Mof_C 	C 	0.0491	0.8902	0.5654	-0.034
Mof_C 	C 	0.1149	0.958	0.5267	0.017
Mof_C 	C 	0.1055	0.9521	0.4473	-0.123
Mof_C 	C 	0.0269	0.8723	0.4099	0.076
Mof_C 	C 	0.1712	0.0261	0.4009	0.388
Mof_N 	N 	0.4354	0.1403	0.5609	-0.194
Mof_N 	N 	0.0643	0.433	0.8934	-0.236
Mof_N 	N 	0.0754	0.2696	0.9048	-0.225
Mof_N 	N 	0.9991	0.3732	0.5853	-0.214
Mof_N 	N 	0.0351	0.1954	0.5523	-0.212
Mof_N 	N 	0.7974	0.3386	0.8213	-0.227
Mof_N 	N 	0.5646	0.8597	0.4391	-0.194
Mof_N 	N 	0.9357	0.567	0.1066	-0.236
Mof_N 	N 	0.9246	0.7304	0.0952	-0.225
Mof_N 	N 	0.0009	0.6268	0.4147	-0.214
Mof_N 	N 	0.9649	0.8046	0.4477	-0.212
Mof_N 	N 	0.2026	0.6614	0.1787	-0.227
Mof_O 	O 	0.6233	0.6705	0.6245	-0.888
Mof_O 	O 	0.3215	0.1728	0.2926	-0.894
Mof_O 	O 	0.5802	0.6731	0.7706	-0.853
Mof_O 	O 	0.4371	0.7297	0.6666	-0.888
Mof_O 	O 	0.5238	0.9187	0.6043	-0.503
Mof_O 	O 	0.4648	0.9085	0.7196	-0.517
Mof_O 	O 	0.3731	0.2777	0.5233	-0.461
Mof_O 	O 	0.2913	0.2763	0.6297	-0.397
Mof_O 	O 	0.7438	0.5705	0.7498	-0.519
Mof_O 	O 	0.5459	0.4964	0.7193	-0.517
Mof_O 	O 	0.6427	0.1113	0.8246	-0.256
Mof_O 	O 	0.8363	0.1937	0.8589	-0.386
Mof_O 	O 	0.2361	0.4542	0.6303	-0.506
Mof_O 	O 	0.2171	0.585	0.6394	-0.368
Mof_O 	O 	0.6381	0.2492	0.4942	-0.442
Mof_O 	O 	0.614	0.3779	0.4726	-0.49
Mof_O 	O 	0.1598	0.3335	0.4819	-0.441
Mof_O 	O 	0.1161	0.2573	0.3694	-0.503
Mof_O 	O 	0.8494	0.9866	0.6703	-0.35
Mof_O 	O 	0.7585	0.9043	0.5618	-0.46
Mof_O 	O 	0.37	0.6867	0.8336	-0.485
Mof_O 	O 	0.3422	0.5566	0.775	-0.472
Mof_O 	O 	0.9186	0.3285	0.974	-0.394
Mof_O 	O 	0.0165	0.4023	0.0873	-0.243
Mof_O 	O 	0.133	0.2855	0.7138	-0.41
Mof_O 	O 	0.9881	0.3055	0.7689	-0.426
Mof_O 	O 	0.3572	0.2072	0.0919	-0.507
Mof_O 	O 	0.2019	0.2383	0.1277	-0.485
Mof_O 	O 	0.0627	0.1287	0.2358	-0.808
Mof_O 	O 	0.3767	0.3295	0.3755	-0.888
Mof_O 	O 	0.6785	0.8272	0.7074	-0.894
Mof_O 	O 	0.4198	0.3269	0.2294	-0.853
Mof_O 	O 	0.5629	0.2703	0.3334	-0.888
Mof_O 	O 	0.4762	0.0813	0.3957	-0.503
Mof_O 	O 	0.5352	0.0915	0.2804	-0.517
Mof_O 	O 	0.6269	0.7223	0.4767	-0.461
Mof_O 	O 	0.7087	0.7237	0.3703	-0.397
Mof_O 	O 	0.2562	0.4295	0.2502	-0.519
Mof_O 	O 	0.4541	0.5036	0.2807	-0.517
Mof_O 	O 	0.3573	0.8887	0.1754	-0.256
Mof_O 	O 	0.1637	0.8063	0.1411	-0.386
Mof_O 	O 	0.7639	0.5458	0.3697	-0.506
Mof_O 	O 	0.7829	0.415	0.3606	-0.368
Mof_O 	O 	0.3619	0.7508	0.5058	-0.442
Mof_O 	O 	0.386	0.6221	0.5274	-0.49
Mof_O 	O 	0.8402	0.6665	0.5181	-0.441
Mof_O 	O 	0.8839	0.7427	0.6306	-0.503
Mof_O 	O 	0.1506	0.0134	0.3297	-0.35
Mof_O 	O 	0.2415	0.0957	0.4382	-0.46
Mof_O 	O 	0.63	0.3133	0.1664	-0.485
Mof_O 	O 	0.6578	0.4434	0.225	-0.472
Mof_O 	O 	0.0814	0.6715	0.026	-0.394
Mof_O 	O 	0.9835	0.5977	0.9127	-0.243
Mof_O 	O 	0.867	0.7145	0.2862	-0.41
Mof_O 	O 	0.0119	0.6945	0.2311	-0.426
Mof_O 	O 	0.6428	0.7928	0.9081	-0.507
Mof_O 	O 	0.7981	0.7617	0.8723	-0.485
Mof_O 	O 	0.9373	0.8713	0.7642	-0.808
_end
