data_functionalizedCrystal
_audit_creation_method	'EQeq! by Chris Wilmer'
_symmetry_space_group_name_H-M	'P1'
_symmetry_Int_Tables_number	1
_symmetry_cell_setting	triclinic
loop_
_symmetry_equiv_pos_as_xyz
  x,y,z
_cell_length_a	26.3082
_cell_length_b	26.3082
_cell_length_c	26.3082
_cell_angle_alpha	90
_cell_angle_beta	90
_cell_angle_gamma	90
loop_
_atom_site_label
_atom_site_type_symbol
_atom_site_fract_x
_atom_site_fract_y
_atom_site_fract_z
_atom_site_charge
Mof_O 	O 	0.2438	0.0519	0.1837	-0.436
Mof_O 	O 	0.2438	0.5519	0.6837	-0.414
Mof_O 	O 	0.7438	0.0519	0.6837	-0.428
Mof_O 	O 	0.7438	0.5519	0.1837	-0.416
Mof_O 	O 	0.7562	0.9481	0.1837	-0.385
Mof_O 	O 	0.7562	0.4481	0.6837	-0.412
Mof_O 	O 	0.2562	0.9481	0.6837	-0.383
Mof_O 	O 	0.2562	0.4481	0.1837	-0.42
Mof_O 	O 	0.7562	0.0519	0.8163	-0.424
Mof_O 	O 	0.7562	0.5519	0.3163	-0.412
Mof_O 	O 	0.2562	0.0519	0.3163	-0.432
Mof_O 	O 	0.2562	0.5519	0.8163	-0.41
Mof_O 	O 	0.2438	0.9481	0.8163	-0.376
Mof_O 	O 	0.2438	0.4481	0.3163	-0.414
Mof_O 	O 	0.7438	0.9481	0.3163	-0.377
Mof_O 	O 	0.7438	0.4481	0.8163	-0.404
Mof_O 	O 	0.1837	0.2438	0.0519	-0.435
Mof_O 	O 	0.1837	0.7438	0.5519	-0.415
Mof_O 	O 	0.6837	0.2438	0.5519	-0.413
Mof_O 	O 	0.6837	0.7438	0.0519	-0.427
Mof_O 	O 	0.1837	0.7562	0.9481	-0.384
Mof_O 	O 	0.1837	0.2562	0.4481	-0.419
Mof_O 	O 	0.6837	0.7562	0.4481	-0.411
Mof_O 	O 	0.6837	0.2562	0.9481	-0.382
Mof_O 	O 	0.8163	0.7562	0.0519	-0.423
Mof_O 	O 	0.8163	0.2562	0.5519	-0.409
Mof_O 	O 	0.3163	0.7562	0.5519	-0.411
Mof_O 	O 	0.3163	0.2562	0.0519	-0.431
Mof_O 	O 	0.8163	0.2438	0.9481	-0.376
Mof_O 	O 	0.8163	0.7438	0.4481	-0.404
Mof_O 	O 	0.3163	0.2438	0.4481	-0.414
Mof_O 	O 	0.3163	0.7438	0.9481	-0.377
Mof_O 	O 	0.0519	0.1837	0.2438	-0.435
Mof_O 	O 	0.0519	0.6837	0.7438	-0.427
Mof_O 	O 	0.5519	0.1837	0.7438	-0.415
Mof_O 	O 	0.5519	0.6837	0.2438	-0.413
Mof_O 	O 	0.9481	0.1837	0.7562	-0.384
Mof_O 	O 	0.9481	0.6837	0.2562	-0.382
Mof_O 	O 	0.4481	0.1837	0.2562	-0.419
Mof_O 	O 	0.4481	0.6837	0.7562	-0.411
Mof_O 	O 	0.0519	0.8163	0.7562	-0.423
Mof_O 	O 	0.0519	0.3163	0.2562	-0.431
Mof_O 	O 	0.5519	0.8163	0.2562	-0.409
Mof_O 	O 	0.5519	0.3163	0.7562	-0.411
Mof_O 	O 	0.9481	0.8163	0.2438	-0.376
Mof_O 	O 	0.9481	0.3163	0.7438	-0.377
Mof_O 	O 	0.4481	0.8163	0.7438	-0.404
Mof_O 	O 	0.4481	0.3163	0.2438	-0.414
Mof_O 	O 	0.0519	0.2438	0.8163	-0.425
Mof_O 	O 	0.0519	0.7438	0.3163	-0.427
Mof_O 	O 	0.5519	0.2438	0.3163	-0.414
Mof_O 	O 	0.5519	0.7438	0.8163	-0.404
Mof_O 	O 	0.9481	0.7562	0.8163	-0.373
Mof_O 	O 	0.9481	0.2562	0.3163	-0.382
Mof_O 	O 	0.4481	0.7562	0.3163	-0.411
Mof_O 	O 	0.4481	0.2562	0.8163	-0.409
Mof_O 	O 	0.0519	0.7562	0.1837	-0.433
Mof_O 	O 	0.0519	0.2562	0.6837	-0.431
Mof_O 	O 	0.5519	0.7562	0.6837	-0.411
Mof_O 	O 	0.5519	0.2562	0.1837	-0.419
Mof_O 	O 	0.9481	0.2438	0.1837	-0.386
Mof_O 	O 	0.9481	0.7438	0.6837	-0.377
Mof_O 	O 	0.4481	0.2438	0.6837	-0.413
Mof_O 	O 	0.4481	0.7438	0.1837	-0.415
Mof_O 	O 	0.2438	0.1837	0.9481	-0.386
Mof_O 	O 	0.2438	0.6837	0.4481	-0.413
Mof_O 	O 	0.7438	0.1837	0.4481	-0.415
Mof_O 	O 	0.7438	0.6837	0.9481	-0.377
Mof_O 	O 	0.7562	0.1837	0.0519	-0.433
Mof_O 	O 	0.7562	0.6837	0.5519	-0.411
Mof_O 	O 	0.2562	0.1837	0.5519	-0.419
Mof_O 	O 	0.2562	0.6837	0.0519	-0.431
Mof_O 	O 	0.7562	0.8163	0.9481	-0.373
Mof_O 	O 	0.7562	0.3163	0.4481	-0.411
Mof_O 	O 	0.2562	0.8163	0.4481	-0.409
Mof_O 	O 	0.2562	0.3163	0.9481	-0.382
Mof_O 	O 	0.2438	0.8163	0.0519	-0.425
Mof_O 	O 	0.2438	0.3163	0.5519	-0.414
Mof_O 	O 	0.7438	0.8163	0.5519	-0.404
Mof_O 	O 	0.7438	0.3163	0.0519	-0.427
Mof_O 	O 	0.1837	0.0519	0.7562	-0.433
Mof_O 	O 	0.1837	0.5519	0.2562	-0.419
Mof_O 	O 	0.6837	0.0519	0.2562	-0.431
Mof_O 	O 	0.6837	0.5519	0.7562	-0.411
Mof_O 	O 	0.1837	0.9481	0.2438	-0.386
Mof_O 	O 	0.1837	0.4481	0.7438	-0.415
Mof_O 	O 	0.6837	0.9481	0.7438	-0.377
Mof_O 	O 	0.6837	0.4481	0.2438	-0.413
Mof_O 	O 	0.8163	0.0519	0.2438	-0.425
Mof_O 	O 	0.8163	0.5519	0.7438	-0.404
Mof_O 	O 	0.3163	0.0519	0.7438	-0.427
Mof_O 	O 	0.3163	0.5519	0.2438	-0.414
Mof_O 	O 	0.8163	0.9481	0.7562	-0.373
Mof_O 	O 	0.8163	0.4481	0.2562	-0.409
Mof_O 	O 	0.3163	0.9481	0.2562	-0.382
Mof_O 	O 	0.3163	0.4481	0.7562	-0.411
Mof_O 	O 	0.7562	0.9481	0.8163	-0.373
Mof_O 	O 	0.7562	0.4481	0.3163	-0.411
Mof_O 	O 	0.2562	0.9481	0.3163	-0.382
Mof_O 	O 	0.2562	0.4481	0.8163	-0.409
Mof_O 	O 	0.2438	0.0519	0.8163	-0.425
Mof_O 	O 	0.2438	0.5519	0.3163	-0.414
Mof_O 	O 	0.7438	0.0519	0.3163	-0.427
Mof_O 	O 	0.7438	0.5519	0.8163	-0.404
Mof_O 	O 	0.2438	0.9481	0.1837	-0.386
Mof_O 	O 	0.2438	0.4481	0.6837	-0.413
Mof_O 	O 	0.7438	0.9481	0.6837	-0.377
Mof_O 	O 	0.7438	0.4481	0.1837	-0.415
Mof_O 	O 	0.7562	0.0519	0.1837	-0.433
Mof_O 	O 	0.7562	0.5519	0.6837	-0.411
Mof_O 	O 	0.2562	0.0519	0.6837	-0.431
Mof_O 	O 	0.2562	0.5519	0.1837	-0.419
Mof_O 	O 	0.8163	0.7562	0.9481	-0.373
Mof_O 	O 	0.8163	0.2562	0.4481	-0.409
Mof_O 	O 	0.3163	0.7562	0.4481	-0.411
Mof_O 	O 	0.3163	0.2562	0.9481	-0.382
Mof_O 	O 	0.8163	0.2438	0.0519	-0.425
Mof_O 	O 	0.8163	0.7438	0.5519	-0.404
Mof_O 	O 	0.3163	0.2438	0.5519	-0.414
Mof_O 	O 	0.3163	0.7438	0.0519	-0.427
Mof_O 	O 	0.1837	0.2438	0.9481	-0.386
Mof_O 	O 	0.1837	0.7438	0.4481	-0.415
Mof_O 	O 	0.6837	0.2438	0.4481	-0.413
Mof_O 	O 	0.6837	0.7438	0.9481	-0.377
Mof_O 	O 	0.1837	0.7562	0.0519	-0.433
Mof_O 	O 	0.1837	0.2562	0.5519	-0.419
Mof_O 	O 	0.6837	0.7562	0.5519	-0.411
Mof_O 	O 	0.6837	0.2562	0.0519	-0.431
Mof_O 	O 	0.9481	0.8163	0.7562	-0.373
Mof_O 	O 	0.9481	0.3163	0.2562	-0.382
Mof_O 	O 	0.4481	0.8163	0.2562	-0.409
Mof_O 	O 	0.4481	0.3163	0.7562	-0.411
Mof_O 	O 	0.0519	0.8163	0.2438	-0.425
Mof_O 	O 	0.0519	0.3163	0.7438	-0.427
Mof_O 	O 	0.5519	0.8163	0.7438	-0.404
Mof_O 	O 	0.5519	0.3163	0.2438	-0.414
Mof_O 	O 	0.9481	0.1837	0.2438	-0.386
Mof_O 	O 	0.9481	0.6837	0.7438	-0.377
Mof_O 	O 	0.4481	0.1837	0.7438	-0.415
Mof_O 	O 	0.4481	0.6837	0.2438	-0.413
Mof_O 	O 	0.0519	0.1837	0.7562	-0.433
Mof_O 	O 	0.0519	0.6837	0.2562	-0.431
Mof_O 	O 	0.5519	0.1837	0.2562	-0.419
Mof_O 	O 	0.5519	0.6837	0.7562	-0.411
Mof_O 	O 	0.9481	0.7562	0.1837	-0.384
Mof_O 	O 	0.9481	0.2562	0.6837	-0.382
Mof_O 	O 	0.4481	0.7562	0.6837	-0.411
Mof_O 	O 	0.4481	0.2562	0.1837	-0.419
Mof_O 	O 	0.0519	0.2438	0.1837	-0.435
Mof_O 	O 	0.0519	0.7438	0.6837	-0.427
Mof_O 	O 	0.5519	0.2438	0.6837	-0.413
Mof_O 	O 	0.5519	0.7438	0.1837	-0.415
Mof_O 	O 	0.9481	0.2438	0.8163	-0.376
Mof_O 	O 	0.9481	0.7438	0.3163	-0.377
Mof_O 	O 	0.4481	0.2438	0.3163	-0.414
Mof_O 	O 	0.4481	0.7438	0.8163	-0.404
Mof_O 	O 	0.0519	0.7562	0.8163	-0.423
Mof_O 	O 	0.0519	0.2562	0.3163	-0.431
Mof_O 	O 	0.5519	0.7562	0.3163	-0.411
Mof_O 	O 	0.5519	0.2562	0.8163	-0.409
Mof_O 	O 	0.7562	0.8163	0.0519	-0.423
Mof_O 	O 	0.7562	0.3163	0.5519	-0.411
Mof_O 	O 	0.2562	0.8163	0.5519	-0.409
Mof_O 	O 	0.2562	0.3163	0.0519	-0.431
Mof_O 	O 	0.2438	0.8163	0.9481	-0.376
Mof_O 	O 	0.2438	0.3163	0.4481	-0.414
Mof_O 	O 	0.7438	0.8163	0.4481	-0.404
Mof_O 	O 	0.7438	0.3163	0.9481	-0.377
Mof_O 	O 	0.2438	0.1837	0.0519	-0.435
Mof_O 	O 	0.2438	0.6837	0.5519	-0.413
Mof_O 	O 	0.7438	0.1837	0.5519	-0.415
Mof_O 	O 	0.7438	0.6837	0.0519	-0.427
Mof_O 	O 	0.7562	0.1837	0.9481	-0.384
Mof_O 	O 	0.7562	0.6837	0.4481	-0.411
Mof_O 	O 	0.2562	0.1837	0.4481	-0.419
Mof_O 	O 	0.2562	0.6837	0.9481	-0.382
Mof_O 	O 	0.8163	0.9481	0.2438	-0.376
Mof_O 	O 	0.8163	0.4481	0.7438	-0.404
Mof_O 	O 	0.3163	0.9481	0.7438	-0.377
Mof_O 	O 	0.3163	0.4481	0.2438	-0.414
Mof_O 	O 	0.8163	0.0519	0.7562	-0.423
Mof_O 	O 	0.8163	0.5519	0.2562	-0.409
Mof_O 	O 	0.3163	0.0519	0.2562	-0.431
Mof_O 	O 	0.3163	0.5519	0.7562	-0.411
Mof_O 	O 	0.1837	0.9481	0.7562	-0.384
Mof_O 	O 	0.1837	0.4481	0.2562	-0.419
Mof_O 	O 	0.6837	0.9481	0.2562	-0.382
Mof_O 	O 	0.6837	0.4481	0.7562	-0.411
Mof_O 	O 	0.1837	0.0519	0.2438	-0.435
Mof_O 	O 	0.1837	0.5519	0.7438	-0.415
Mof_O 	O 	0.6837	0.0519	0.7438	-0.427
Mof_O 	O 	0.6837	0.5519	0.2438	-0.413
Mof_Cu	Cu	0.2852	0	0.2148	0.884
Mof_Cu	Cu	0.2852	0.5	0.7148	0.915
Mof_Cu	Cu	0.7148	0	0.2148	0.884
Mof_Cu	Cu	0.7148	0.5	0.7148	0.915
Mof_Cu	Cu	0.2148	0.5	0.2148	0.912
Mof_Cu	Cu	0.7148	5.54545e-33	0.78521	0.887
Mof_Cu	Cu	0.7148	0.5	0.2852	0.915
Mof_Cu	Cu	0.2148	0	0.2852	0.884
Mof_Cu	Cu	0.2852	5.54545e-33	0.78521	0.887
Mof_Cu	Cu	0.2852	0.5	0.2852	0.915
Mof_Cu	Cu	0.2148	0.2852	-0	0.884
Mof_Cu	Cu	0.2148	0.78521	0.5	0.915
Mof_Cu	Cu	0.2148	0.7148	-0	0.884
Mof_Cu	Cu	0.2148	0.2148	0.5	0.912
Mof_Cu	Cu	0.78521	0.7148	-0	0.887
Mof_Cu	Cu	0.78521	0.2148	0.5	0.915
Mof_Cu	Cu	0.2852	0.2148	-0	0.884
Mof_Cu	Cu	0.78521	0.2852	-0	0.887
Mof_Cu	Cu	0.78521	0.78521	0.5	0.919
Mof_Cu	Cu	0.2852	0.2852	0.5	0.915
Mof_Cu	Cu	1.06933e-33	0.2148	0.2852	0.884
Mof_Cu	Cu	0.5	0.2148	0.78521	0.915
Mof_Cu	Cu	2.68007e-33	0.2148	0.7148	0.884
Mof_Cu	Cu	0.5	0.2148	0.2148	0.912
Mof_Cu	Cu	8.22552e-33	0.78521	0.7148	0.887
Mof_Cu	Cu	8.05371e-34	0.2852	0.2148	0.884
Mof_Cu	Cu	0.5	0.78521	0.2148	0.915
Mof_Cu	Cu	9.38751e-33	0.78521	0.2852	0.887
Mof_Cu	Cu	0.5	0.78521	0.78521	0.919
Mof_Cu	Cu	0.5	0.2852	0.2852	0.915
Mof_Cu	Cu	8.48952e-33	0.2852	0.78521	0.887
Mof_Cu	Cu	8.48952e-33	0.7148	0.78521	0.887
Mof_Cu	Cu	0.5	0.7148	0.2852	0.915
Mof_Cu	Cu	3.5781e-33	0.7148	0.2148	0.884
Mof_Cu	Cu	0.5	0.7148	0.7148	0.915
Mof_Cu	Cu	0.5	0.2852	0.7148	0.915
Mof_Cu	Cu	0.2852	0.7148	0.5	0.915
Mof_Cu	Cu	0.7148	0.2148	-0	0.884
Mof_Cu	Cu	0.7148	0.7148	0.5	0.915
Mof_Cu	Cu	0.7148	0.78521	-0	0.887
Mof_Cu	Cu	0.7148	0.2852	0.5	0.915
Mof_Cu	Cu	0.2852	0.78521	-0	0.887
Mof_Cu	Cu	0.2148	0	0.7148	0.884
Mof_Cu	Cu	0.2148	0.5	0.78521	0.915
Mof_Cu	Cu	0.78521	0	0.2852	0.887
Mof_Cu	Cu	0.78521	0.5	0.78521	0.919
Mof_Cu	Cu	0.78521	0	0.7148	0.887
Mof_Cu	Cu	0.78521	0.5	0.2148	0.915
Mof_C 	C 	0.1986	0.1338	0.1338	0.115
Mof_C 	C 	0.1986	0.6338	0.6338	0.129
Mof_C 	C 	0.6986	0.1338	0.6338	0.126
Mof_C 	C 	0.6986	0.6338	0.1338	0.126
Mof_C 	C 	0.8014	0.8662	0.1338	0.134
Mof_C 	C 	0.8014	0.3662	0.6338	0.134
Mof_C 	C 	0.3014	0.8662	0.6338	0.137
Mof_C 	C 	0.3014	0.3662	0.1338	0.123
Mof_C 	C 	0.8014	0.1338	0.8662	0.134
Mof_C 	C 	0.8014	0.6338	0.3662	0.134
Mof_C 	C 	0.3014	0.1338	0.3662	0.123
Mof_C 	C 	0.3014	0.6338	0.8662	0.137
Mof_C 	C 	0.1986	0.8662	0.8662	0.143
Mof_C 	C 	0.1986	0.3662	0.3662	0.129
Mof_C 	C 	0.6986	0.8662	0.3662	0.14
Mof_C 	C 	0.6986	0.3662	0.8662	0.14
Mof_C 	C 	0.1338	0.1986	0.1338	0.115
Mof_C 	C 	0.1338	0.6986	0.6338	0.126
Mof_C 	C 	0.6338	0.1986	0.6338	0.129
Mof_C 	C 	0.6338	0.6986	0.1338	0.126
Mof_C 	C 	0.1338	0.8014	0.8662	0.134
Mof_C 	C 	0.1338	0.3014	0.3662	0.123
Mof_C 	C 	0.6338	0.8014	0.3662	0.134
Mof_C 	C 	0.6338	0.3014	0.8662	0.137
Mof_C 	C 	0.8662	0.8014	0.1338	0.134
Mof_C 	C 	0.8662	0.3014	0.6338	0.137
Mof_C 	C 	0.3662	0.8014	0.6338	0.134
Mof_C 	C 	0.3662	0.3014	0.1338	0.123
Mof_C 	C 	0.8662	0.1986	0.8662	0.143
Mof_C 	C 	0.8662	0.6986	0.3662	0.14
Mof_C 	C 	0.3662	0.1986	0.3662	0.129
Mof_C 	C 	0.3662	0.6986	0.8662	0.14
Mof_C 	C 	0.1338	0.1338	0.1986	0.115
Mof_C 	C 	0.1338	0.6338	0.6986	0.126
Mof_C 	C 	0.6338	0.1338	0.6986	0.126
Mof_C 	C 	0.6338	0.6338	0.1986	0.129
Mof_C 	C 	0.8662	0.1338	0.8014	0.134
Mof_C 	C 	0.8662	0.6338	0.3014	0.137
Mof_C 	C 	0.3662	0.1338	0.3014	0.123
Mof_C 	C 	0.3662	0.6338	0.8014	0.134
Mof_C 	C 	0.1338	0.8662	0.8014	0.134
Mof_C 	C 	0.1338	0.3662	0.3014	0.123
Mof_C 	C 	0.6338	0.8662	0.3014	0.137
Mof_C 	C 	0.6338	0.3662	0.8014	0.134
Mof_C 	C 	0.8662	0.8662	0.1986	0.143
Mof_C 	C 	0.8662	0.3662	0.6986	0.14
Mof_C 	C 	0.3662	0.8662	0.6986	0.14
Mof_C 	C 	0.3662	0.3662	0.1986	0.129
Mof_C 	C 	0.1338	0.1986	0.8662	0.129
Mof_C 	C 	0.1338	0.6986	0.3662	0.126
Mof_C 	C 	0.6338	0.1986	0.3662	0.129
Mof_C 	C 	0.6338	0.6986	0.8662	0.14
Mof_C 	C 	0.8662	0.8014	0.8662	0.147
Mof_C 	C 	0.8662	0.3014	0.3662	0.137
Mof_C 	C 	0.3662	0.8014	0.3662	0.134
Mof_C 	C 	0.3662	0.3014	0.8662	0.137
Mof_C 	C 	0.1338	0.8014	0.1338	0.12
Mof_C 	C 	0.1338	0.3014	0.6338	0.123
Mof_C 	C 	0.6338	0.8014	0.6338	0.134
Mof_C 	C 	0.6338	0.3014	0.1338	0.123
Mof_C 	C 	0.8662	0.1986	0.1338	0.129
Mof_C 	C 	0.8662	0.6986	0.6338	0.14
Mof_C 	C 	0.3662	0.1986	0.6338	0.129
Mof_C 	C 	0.3662	0.6986	0.1338	0.126
Mof_C 	C 	0.1986	0.1338	0.8662	0.129
Mof_C 	C 	0.1986	0.6338	0.3662	0.129
Mof_C 	C 	0.6986	0.1338	0.3662	0.126
Mof_C 	C 	0.6986	0.6338	0.8662	0.14
Mof_C 	C 	0.8014	0.1338	0.1338	0.12
Mof_C 	C 	0.8014	0.6338	0.6338	0.134
Mof_C 	C 	0.3014	0.1338	0.6338	0.123
Mof_C 	C 	0.3014	0.6338	0.1338	0.123
Mof_C 	C 	0.8014	0.8662	0.8662	0.147
Mof_C 	C 	0.8014	0.3662	0.3662	0.134
Mof_C 	C 	0.3014	0.8662	0.3662	0.137
Mof_C 	C 	0.3014	0.3662	0.8662	0.137
Mof_C 	C 	0.1986	0.8662	0.1338	0.129
Mof_C 	C 	0.1986	0.3662	0.6338	0.129
Mof_C 	C 	0.6986	0.8662	0.6338	0.14
Mof_C 	C 	0.6986	0.3662	0.1338	0.126
Mof_C 	C 	0.1338	0.1338	0.8014	0.12
Mof_C 	C 	0.1338	0.6338	0.3014	0.123
Mof_C 	C 	0.6338	0.1338	0.3014	0.123
Mof_C 	C 	0.6338	0.6338	0.8014	0.134
Mof_C 	C 	0.1338	0.8662	0.1986	0.129
Mof_C 	C 	0.1338	0.3662	0.6986	0.126
Mof_C 	C 	0.6338	0.8662	0.6986	0.14
Mof_C 	C 	0.6338	0.3662	0.1986	0.129
Mof_C 	C 	0.8662	0.1338	0.1986	0.129
Mof_C 	C 	0.8662	0.6338	0.6986	0.14
Mof_C 	C 	0.3662	0.1338	0.6986	0.126
Mof_C 	C 	0.3662	0.6338	0.1986	0.129
Mof_C 	C 	0.8662	0.8662	0.8014	0.147
Mof_C 	C 	0.8662	0.3662	0.3014	0.137
Mof_C 	C 	0.3662	0.8662	0.3014	0.137
Mof_C 	C 	0.3662	0.3662	0.8014	0.134
Mof_C 	C 	0.2038	0.068	0.2038	0.392
Mof_C 	C 	0.1768	0.1109	0.1768	-0.166
Mof_C 	C 	0.2038	0.568	0.7038	0.393
Mof_C 	C 	0.1768	0.6109	0.6768	-0.16
Mof_C 	C 	0.7038	0.068	0.7038	0.392
Mof_C 	C 	0.6768	0.1109	0.6768	-0.163
Mof_C 	C 	0.7038	0.568	0.2038	0.393
Mof_C 	C 	0.6768	0.6109	0.1768	-0.16
Mof_C 	C 	0.7962	0.932	0.2038	0.39
Mof_C 	C 	0.8232	0.8891	0.1768	-0.152
Mof_C 	C 	0.7962	0.432	0.7038	0.395
Mof_C 	C 	0.8232	0.3891	0.6768	-0.157
Mof_C 	C 	0.2962	0.932	0.7038	0.39
Mof_C 	C 	0.3232	0.8891	0.6768	-0.153
Mof_C 	C 	0.2962	0.432	0.2038	0.394
Mof_C 	C 	0.3232	0.3891	0.1768	-0.16
Mof_C 	C 	0.7962	0.068	0.7962	0.395
Mof_C 	C 	0.8232	0.1109	0.8232	-0.16
Mof_C 	C 	0.7962	0.568	0.2962	0.395
Mof_C 	C 	0.8232	0.6109	0.3232	-0.157
Mof_C 	C 	0.2962	0.068	0.2962	0.394
Mof_C 	C 	0.3232	0.1109	0.3232	-0.163
Mof_C 	C 	0.2962	0.568	0.7962	0.395
Mof_C 	C 	0.3232	0.6109	0.8232	-0.157
Mof_C 	C 	0.2038	0.932	0.7962	0.39
Mof_C 	C 	0.1768	0.8891	0.8232	-0.152
Mof_C 	C 	0.2038	0.432	0.2962	0.394
Mof_C 	C 	0.1768	0.3891	0.3232	-0.16
Mof_C 	C 	0.7038	0.932	0.2962	0.39
Mof_C 	C 	0.6768	0.8891	0.3232	-0.153
Mof_C 	C 	0.7038	0.432	0.7962	0.395
Mof_C 	C 	0.6768	0.3891	0.8232	-0.157
Mof_C 	C 	0.2038	0.2038	0.068	0.392
Mof_C 	C 	0.1768	0.1768	0.1109	-0.166
Mof_C 	C 	0.2038	0.7038	0.568	0.393
Mof_C 	C 	0.1768	0.6768	0.6109	-0.16
Mof_C 	C 	0.7038	0.2038	0.568	0.393
Mof_C 	C 	0.6768	0.1768	0.6109	-0.16
Mof_C 	C 	0.7038	0.7038	0.068	0.392
Mof_C 	C 	0.6768	0.6768	0.1109	-0.163
Mof_C 	C 	0.2038	0.7962	0.932	0.39
Mof_C 	C 	0.1768	0.8232	0.8891	-0.152
Mof_C 	C 	0.2038	0.2962	0.432	0.394
Mof_C 	C 	0.1768	0.3232	0.3891	-0.16
Mof_C 	C 	0.7038	0.7962	0.432	0.395
Mof_C 	C 	0.6768	0.8232	0.3891	-0.157
Mof_C 	C 	0.7038	0.2962	0.932	0.39
Mof_C 	C 	0.6768	0.3232	0.8891	-0.153
Mof_C 	C 	0.7962	0.7962	0.068	0.395
Mof_C 	C 	0.8232	0.8232	0.1109	-0.16
Mof_C 	C 	0.7962	0.2962	0.568	0.395
Mof_C 	C 	0.8232	0.3232	0.6109	-0.157
Mof_C 	C 	0.2962	0.7962	0.568	0.395
Mof_C 	C 	0.3232	0.8232	0.6109	-0.157
Mof_C 	C 	0.2962	0.2962	0.068	0.394
Mof_C 	C 	0.3232	0.3232	0.1109	-0.163
Mof_C 	C 	0.7962	0.2038	0.932	0.39
Mof_C 	C 	0.8232	0.1768	0.8891	-0.152
Mof_C 	C 	0.7962	0.7038	0.432	0.395
Mof_C 	C 	0.8232	0.6768	0.3891	-0.157
Mof_C 	C 	0.2962	0.2038	0.432	0.394
Mof_C 	C 	0.3232	0.1768	0.3891	-0.16
Mof_C 	C 	0.2962	0.7038	0.932	0.39
Mof_C 	C 	0.3232	0.6768	0.8891	-0.153
Mof_C 	C 	0.068	0.2038	0.2038	0.392
Mof_C 	C 	0.1109	0.1768	0.1768	-0.166
Mof_C 	C 	0.068	0.7038	0.7038	0.392
Mof_C 	C 	0.1109	0.6768	0.6768	-0.163
Mof_C 	C 	0.568	0.2038	0.7038	0.393
Mof_C 	C 	0.6109	0.1768	0.6768	-0.16
Mof_C 	C 	0.568	0.7038	0.2038	0.393
Mof_C 	C 	0.6109	0.6768	0.1768	-0.16
Mof_C 	C 	0.932	0.2038	0.7962	0.39
Mof_C 	C 	0.8891	0.1768	0.8232	-0.152
Mof_C 	C 	0.932	0.7038	0.2962	0.39
Mof_C 	C 	0.8891	0.6768	0.3232	-0.153
Mof_C 	C 	0.432	0.2038	0.2962	0.394
Mof_C 	C 	0.3891	0.1768	0.3232	-0.16
Mof_C 	C 	0.432	0.7038	0.7962	0.395
Mof_C 	C 	0.3891	0.6768	0.8232	-0.157
Mof_C 	C 	0.068	0.7962	0.7962	0.395
Mof_C 	C 	0.1109	0.8232	0.8232	-0.16
Mof_C 	C 	0.068	0.2962	0.2962	0.394
Mof_C 	C 	0.1109	0.3232	0.3232	-0.163
Mof_C 	C 	0.568	0.7962	0.2962	0.395
Mof_C 	C 	0.6109	0.8232	0.3232	-0.157
Mof_C 	C 	0.568	0.2962	0.7962	0.395
Mof_C 	C 	0.6109	0.3232	0.8232	-0.157
Mof_C 	C 	0.932	0.7962	0.2038	0.39
Mof_C 	C 	0.8891	0.8232	0.1768	-0.152
Mof_C 	C 	0.932	0.2962	0.7038	0.39
Mof_C 	C 	0.8891	0.3232	0.6768	-0.153
Mof_C 	C 	0.432	0.7962	0.7038	0.395
Mof_C 	C 	0.3891	0.8232	0.6768	-0.157
Mof_C 	C 	0.432	0.2962	0.2038	0.394
Mof_C 	C 	0.3891	0.3232	0.1768	-0.16
Mof_C 	C 	0.068	0.2038	0.7962	0.393
Mof_C 	C 	0.1109	0.1768	0.8232	-0.163
Mof_C 	C 	0.068	0.7038	0.2962	0.393
Mof_C 	C 	0.1109	0.6768	0.3232	-0.163
Mof_C 	C 	0.568	0.2038	0.2962	0.394
Mof_C 	C 	0.6109	0.1768	0.3232	-0.16
Mof_C 	C 	0.568	0.7038	0.7962	0.395
Mof_C 	C 	0.6109	0.6768	0.8232	-0.157
Mof_C 	C 	0.932	0.7962	0.7962	0.391
Mof_C 	C 	0.8891	0.8232	0.8232	-0.149
Mof_C 	C 	0.932	0.2962	0.2962	0.391
Mof_C 	C 	0.8891	0.3232	0.3232	-0.153
Mof_C 	C 	0.432	0.7962	0.2962	0.395
Mof_C 	C 	0.3891	0.8232	0.3232	-0.157
Mof_C 	C 	0.432	0.2962	0.7962	0.395
Mof_C 	C 	0.3891	0.3232	0.8232	-0.157
Mof_C 	C 	0.068	0.7962	0.2038	0.393
Mof_C 	C 	0.1109	0.8232	0.1768	-0.163
Mof_C 	C 	0.068	0.2962	0.7038	0.393
Mof_C 	C 	0.1109	0.3232	0.6768	-0.163
Mof_C 	C 	0.568	0.7962	0.7038	0.395
Mof_C 	C 	0.6109	0.8232	0.6768	-0.157
Mof_C 	C 	0.568	0.2962	0.2038	0.394
Mof_C 	C 	0.6109	0.3232	0.1768	-0.16
Mof_C 	C 	0.932	0.2038	0.2038	0.389
Mof_C 	C 	0.8891	0.1768	0.1768	-0.155
Mof_C 	C 	0.932	0.7038	0.7038	0.389
Mof_C 	C 	0.8891	0.6768	0.6768	-0.152
Mof_C 	C 	0.432	0.2038	0.7038	0.393
Mof_C 	C 	0.3891	0.1768	0.6768	-0.16
Mof_C 	C 	0.432	0.7038	0.2038	0.393
Mof_C 	C 	0.3891	0.6768	0.1768	-0.16
Mof_C 	C 	0.2038	0.2038	0.932	0.389
Mof_C 	C 	0.1768	0.1768	0.8891	-0.155
Mof_C 	C 	0.2038	0.7038	0.432	0.393
Mof_C 	C 	0.1768	0.6768	0.3891	-0.16
Mof_C 	C 	0.7038	0.2038	0.432	0.393
Mof_C 	C 	0.6768	0.1768	0.3891	-0.16
Mof_C 	C 	0.7038	0.7038	0.932	0.389
Mof_C 	C 	0.6768	0.6768	0.8891	-0.152
Mof_C 	C 	0.7962	0.2038	0.068	0.393
Mof_C 	C 	0.8232	0.1768	0.1109	-0.163
Mof_C 	C 	0.7962	0.7038	0.568	0.395
Mof_C 	C 	0.8232	0.6768	0.6109	-0.157
Mof_C 	C 	0.2962	0.2038	0.568	0.394
Mof_C 	C 	0.3232	0.1768	0.6109	-0.16
Mof_C 	C 	0.2962	0.7038	0.068	0.393
Mof_C 	C 	0.3232	0.6768	0.1109	-0.163
Mof_C 	C 	0.7962	0.7962	0.932	0.391
Mof_C 	C 	0.8232	0.8232	0.8891	-0.149
Mof_C 	C 	0.7962	0.2962	0.432	0.395
Mof_C 	C 	0.8232	0.3232	0.3891	-0.157
Mof_C 	C 	0.2962	0.7962	0.432	0.395
Mof_C 	C 	0.3232	0.8232	0.3891	-0.157
Mof_C 	C 	0.2962	0.2962	0.932	0.391
Mof_C 	C 	0.3232	0.3232	0.8891	-0.153
Mof_C 	C 	0.2038	0.7962	0.068	0.393
Mof_C 	C 	0.1768	0.8232	0.1109	-0.163
Mof_C 	C 	0.2038	0.2962	0.568	0.394
Mof_C 	C 	0.1768	0.3232	0.6109	-0.16
Mof_C 	C 	0.7038	0.7962	0.568	0.395
Mof_C 	C 	0.6768	0.8232	0.6109	-0.157
Mof_C 	C 	0.7038	0.2962	0.068	0.393
Mof_C 	C 	0.6768	0.3232	0.1109	-0.163
Mof_C 	C 	0.2038	0.068	0.7962	0.393
Mof_C 	C 	0.1768	0.1109	0.8232	-0.163
Mof_C 	C 	0.2038	0.568	0.2962	0.394
Mof_C 	C 	0.1768	0.6109	0.3232	-0.16
Mof_C 	C 	0.7038	0.068	0.2962	0.393
Mof_C 	C 	0.6768	0.1109	0.3232	-0.163
Mof_C 	C 	0.7038	0.568	0.7962	0.395
Mof_C 	C 	0.6768	0.6109	0.8232	-0.157
Mof_C 	C 	0.2038	0.932	0.2038	0.389
Mof_C 	C 	0.1768	0.8891	0.1768	-0.155
Mof_C 	C 	0.2038	0.432	0.7038	0.393
Mof_C 	C 	0.1768	0.3891	0.6768	-0.16
Mof_C 	C 	0.7038	0.932	0.7038	0.389
Mof_C 	C 	0.6768	0.8891	0.6768	-0.152
Mof_C 	C 	0.7038	0.432	0.2038	0.393
Mof_C 	C 	0.6768	0.3891	0.1768	-0.16
Mof_C 	C 	0.7962	0.068	0.2038	0.393
Mof_C 	C 	0.8232	0.1109	0.1768	-0.163
Mof_C 	C 	0.7962	0.568	0.7038	0.395
Mof_C 	C 	0.8232	0.6109	0.6768	-0.157
Mof_C 	C 	0.2962	0.068	0.7038	0.393
Mof_C 	C 	0.3232	0.1109	0.6768	-0.163
Mof_C 	C 	0.2962	0.568	0.2038	0.394
Mof_C 	C 	0.3232	0.6109	0.1768	-0.16
Mof_C 	C 	0.7962	0.932	0.7962	0.391
Mof_C 	C 	0.8232	0.8891	0.8232	-0.149
Mof_C 	C 	0.7962	0.432	0.2962	0.395
Mof_C 	C 	0.8232	0.3891	0.3232	-0.157
Mof_C 	C 	0.2962	0.932	0.2962	0.391
Mof_C 	C 	0.3232	0.8891	0.3232	-0.153
Mof_C 	C 	0.2962	0.432	0.7962	0.395
Mof_C 	C 	0.3232	0.3891	0.8232	-0.157
_end
