data_functionalizedCrystal
_audit_creation_method	'EQeq! by Chris Wilmer'
_symmetry_space_group_name_H-M	'P1'
_symmetry_Int_Tables_number	1
_symmetry_cell_setting	triclinic
loop_
_symmetry_equiv_pos_as_xyz
  x,y,z
_cell_length_a	15.903
_cell_length_b	15.903
_cell_length_c	21.615
_cell_angle_alpha	90
_cell_angle_beta	90
_cell_angle_gamma	90
loop_
_atom_site_label
_atom_site_type_symbol
_atom_site_fract_x
_atom_site_fract_y
_atom_site_fract_z
_atom_site_charge
Mof_C 	C 	0.9624	0.2447	0.0351	0.077
Mof_H 	H 	0.9934	0.2405	0.0715	0.007
Mof_C 	C 	0.9057	0.3106	0.0297	-0.15
Mof_H 	H 	0.8999	0.3493	0.0617	0.081
Mof_C 	C 	0.8579	0.3187	0.97672	0.081
Mof_C 	C 	0.8738	0.26	0.92998	-0.144
Mof_H 	H 	0.8454	0.2636	0.8925	0.079
Mof_C 	C 	0.9314	0.197	0.9395	0.088
Mof_H 	H 	0.9404	0.1589	0.9076	0.01
Mof_C 	C 	0.7916	0.3842	0.97066	0.024
Mof_C 	C 	0.7914	0.4557	0.0077	-0.087
Mof_H 	H 	0.8343	0.4636	0.0364	0.057
Mof_C 	C 	0.7289	0.5149	0.0026	-0.002
Mof_H 	H 	0.7309	0.5631	0.0269	0.025
Mof_C 	C 	0.6631	0.5035	0.9618	-0.077
Mof_H 	H 	0.6207	0.5436	0.9587	0.062
Mof_C 	C 	0.6609	0.4317	0.9254	0.025
Mof_C 	C 	0.7251	0.3721	0.92928	-0.087
Mof_H 	H 	0.7237	0.3244	0.9044	0.065
Mof_C 	C 	0.5909	0.4237	0.88096	0.094
Mof_C 	C 	0.4948	0.3727	0.81911	0.088
Mof_C 	C 	0.4392	0.3107	0.78887	0.026
Mof_C 	C 	0.4563	0.2805	0.73017	-0.09
Mof_H 	H 	0.5035	0.2986	0.7086	0.069
Mof_C 	C 	0.4007	0.222	0.704	0.011
Mof_H 	H 	0.41	0.2026	0.664	0.025
Mof_C 	C 	0.3326	0.1931	0.7369	-0.091
Mof_H 	H 	0.2969	0.1536	0.719	0.065
Mof_C 	C 	0.3163	0.2219	0.79645	0.024
Mof_C 	C 	0.3702	0.2818	0.82144	-0.092
Mof_H 	H 	0.3597	0.3028	0.8608	0.062
Mof_C 	C 	0.2446	0.1912	0.83356	0.071
Mof_C 	C 	0.2017	0.1162	0.82003	-0.143
Mof_H 	H 	0.2137	0.0868	0.7839	0.082
Mof_C 	C 	0.142	0.0867	0.86027	0.083
Mof_H 	H 	0.115	0.0366	0.8504	0.01
Mof_C 	C 	0.157	0.1995	0.92333	0.081
Mof_H 	H 	0.141	0.2293	0.9584	0.005
Mof_C 	C 	0.2166	0.234	0.88561	-0.145
Mof_H 	H 	0.2386	0.2867	0.8949	0.078
Mof_N 	N 	0.5538	0.48733	0.85469	-0.102
Mof_N 	N 	0.49271	0.45517	0.81577	-0.115
Mof_N 	N 	0.5557	0.35061	0.85993	-0.109
Mof_N 	N 	0.5752	0.2688	0.88073	-0.212
Mof_N 	N 	0.97525	0.1871	0.99143	-0.148
Mof_N 	N 	0.1203	0.1251	0.91255	-0.154
Mof_H 	H 	0.5996	0.244	0.8477	0.113
Mof_H 	H 	0.5239	0.2444	0.8867	0.113
Mof_C 	C 	0.0376	0.7553	0.5351	0.08
Mof_H 	H 	0.0066	0.7595	0.5715	0.006
Mof_C 	C 	0.0943	0.6894	0.5297	-0.143
Mof_H 	H 	0.1001	0.6507	0.5617	0.078
Mof_C 	C 	0.1421	0.6813	0.47672	0.072
Mof_C 	C 	0.1262	0.74	0.42998	-0.142
Mof_H 	H 	0.1546	0.7364	0.3925	0.077
Mof_C 	C 	0.0686	0.803	0.4395	0.084
Mof_H 	H 	0.0596	0.8411	0.4076	0.01
Mof_C 	C 	0.2084	0.6158	0.47066	0.02
Mof_C 	C 	0.2086	0.5443	0.5077	-0.086
Mof_H 	H 	0.1657	0.5364	0.5364	0.058
Mof_C 	C 	0.2711	0.4851	0.5026	0.01
Mof_H 	H 	0.2691	0.4369	0.5269	0.022
Mof_C 	C 	0.3369	0.4965	0.4618	-0.09
Mof_H 	H 	0.3793	0.4564	0.4587	0.065
Mof_C 	C 	0.3391	0.5683	0.4254	0.028
Mof_C 	C 	0.2749	0.6279	0.42928	-0.09
Mof_H 	H 	0.2763	0.6756	0.4044	0.066
Mof_C 	C 	0.4091	0.5763	0.38096	0.092
Mof_C 	C 	0.5052	0.6273	0.31911	0.087
Mof_C 	C 	0.5608	0.6893	0.28887	0.026
Mof_C 	C 	0.5437	0.7195	0.23017	-0.09
Mof_H 	H 	0.4965	0.7014	0.2086	0.069
Mof_C 	C 	0.5993	0.778	0.204	0.011
Mof_H 	H 	0.59	0.7974	0.164	0.024
Mof_C 	C 	0.6674	0.8069	0.2369	-0.092
Mof_H 	H 	0.7031	0.8464	0.219	0.065
Mof_C 	C 	0.6837	0.7781	0.29645	0.024
Mof_C 	C 	0.6298	0.7182	0.32144	-0.092
Mof_H 	H 	0.6403	0.6972	0.3608	0.061
Mof_C 	C 	0.7554	0.8088	0.33356	0.071
Mof_C 	C 	0.7983	0.8838	0.32003	-0.143
Mof_H 	H 	0.7863	0.9132	0.2839	0.082
Mof_C 	C 	0.858	0.9133	0.36027	0.083
Mof_H 	H 	0.885	0.9634	0.3504	0.01
Mof_C 	C 	0.843	0.8005	0.42333	0.081
Mof_H 	H 	0.859	0.7707	0.4584	0.003
Mof_C 	C 	0.7834	0.766	0.38561	-0.145
Mof_H 	H 	0.7614	0.7133	0.3949	0.077
Mof_N 	N 	0.4462	0.51267	0.35469	-0.102
Mof_N 	N 	0.50729	0.54483	0.31577	-0.115
Mof_N 	N 	0.4443	0.64939	0.35993	-0.109
Mof_N 	N 	0.4248	0.7312	0.38073	-0.212
Mof_N 	N 	0.02475	0.8129	0.49143	-0.153
Mof_N 	N 	0.8797	0.8749	0.41255	-0.156
Mof_H 	H 	0.4004	0.756	0.3477	0.112
Mof_H 	H 	0.4761	0.7556	0.3867	0.112
Mof_C 	C 	0.2553	0.4624	0.7851	0.08
Mof_H 	H 	0.2595	0.4934	0.8215	0.006
Mof_C 	C 	0.1894	0.4057	0.7797	-0.143
Mof_H 	H 	0.1507	0.3999	0.8117	0.078
Mof_C 	C 	0.1813	0.3579	0.72672	0.072
Mof_C 	C 	0.24	0.3738	0.67998	-0.142
Mof_H 	H 	0.2364	0.3454	0.6425	0.077
Mof_C 	C 	0.303	0.4314	0.6895	0.084
Mof_H 	H 	0.3411	0.4404	0.6576	0.01
Mof_C 	C 	0.1158	0.2916	0.72066	0.02
Mof_C 	C 	0.0443	0.2914	0.7577	-0.086
Mof_H 	H 	0.0364	0.3343	0.7864	0.058
Mof_C 	C 	0.9851	0.2289	0.7526	0.01
Mof_H 	H 	0.9369	0.2309	0.7769	0.022
Mof_C 	C 	0.9965	0.1631	0.7118	-0.089
Mof_H 	H 	0.9564	0.1207	0.7087	0.065
Mof_C 	C 	0.0683	0.1609	0.6754	0.028
Mof_C 	C 	0.1279	0.2251	0.67928	-0.09
Mof_H 	H 	0.1756	0.2237	0.6544	0.066
Mof_C 	C 	0.0763	0.0909	0.63096	0.092
Mof_C 	C 	0.1273	0.9948	0.56911	0.089
Mof_C 	C 	0.1893	0.9392	0.53887	0.024
Mof_C 	C 	0.2195	0.9563	0.48017	-0.087
Mof_H 	H 	0.2014	0.0035	0.4586	0.067
Mof_C 	C 	0.278	0.9007	0.454	0.008
Mof_H 	H 	0.2974	0.91	0.414	0.026
Mof_C 	C 	0.3069	0.8326	0.4869	-0.09
Mof_H 	H 	0.3464	0.7969	0.469	0.065
Mof_C 	C 	0.2781	0.8163	0.54645	0.022
Mof_C 	C 	0.2182	0.8702	0.57144	-0.09
Mof_H 	H 	0.1972	0.8597	0.6108	0.061
Mof_C 	C 	0.3088	0.7446	0.58356	0.071
Mof_C 	C 	0.3838	0.7017	0.57003	-0.143
Mof_H 	H 	0.4132	0.7137	0.5339	0.082
Mof_C 	C 	0.4133	0.642	0.61027	0.083
Mof_H 	H 	0.4634	0.615	0.6004	0.01
Mof_C 	C 	0.3005	0.657	0.67333	0.081
Mof_H 	H 	0.2707	0.641	0.7084	0.003
Mof_C 	C 	0.266	0.7166	0.63561	-0.146
Mof_H 	H 	0.2133	0.7386	0.6449	0.078
Mof_N 	N 	0.01267	0.0538	0.60469	-0.102
Mof_N 	N 	0.04483	0.99271	0.56577	-0.114
Mof_N 	N 	0.14939	0.0557	0.60993	-0.109
Mof_N 	N 	0.2312	0.0752	0.63073	-0.212
Mof_N 	N 	0.3129	0.47525	0.74143	-0.153
Mof_N 	N 	0.3749	0.6203	0.66255	-0.156
Mof_H 	H 	0.256	0.0996	0.5977	0.112
Mof_H 	H 	0.2556	0.0239	0.6367	0.112
Mof_C 	C 	0.7447	0.5376	0.2851	0.08
Mof_H 	H 	0.7405	0.5066	0.3215	0.006
Mof_C 	C 	0.8106	0.5943	0.2797	-0.143
Mof_H 	H 	0.8493	0.6001	0.3117	0.078
Mof_C 	C 	0.8187	0.6421	0.22672	0.072
Mof_C 	C 	0.76	0.6262	0.17998	-0.142
Mof_H 	H 	0.7636	0.6546	0.1425	0.076
Mof_C 	C 	0.697	0.5686	0.1895	0.084
Mof_H 	H 	0.6589	0.5596	0.1576	0.009
Mof_C 	C 	0.8842	0.7084	0.22066	0.02
Mof_C 	C 	0.9557	0.7086	0.2577	-0.087
Mof_H 	H 	0.9636	0.6657	0.2864	0.058
Mof_C 	C 	0.0149	0.7711	0.2526	0.011
Mof_H 	H 	0.0631	0.7691	0.2769	0.022
Mof_C 	C 	0.0035	0.8369	0.2118	-0.089
Mof_H 	H 	0.0436	0.8793	0.2087	0.065
Mof_C 	C 	0.9317	0.8391	0.1754	0.027
Mof_C 	C 	0.8721	0.7749	0.17928	-0.09
Mof_H 	H 	0.8244	0.7763	0.1544	0.066
Mof_C 	C 	0.9237	0.9091	0.13096	0.091
Mof_C 	C 	0.8727	0.0052	0.06911	0.093
Mof_C 	C 	0.8107	0.0608	0.03887	0.002
Mof_C 	C 	0.7805	0.0437	0.98017	-0.058
Mof_H 	H 	0.7986	0.9965	0.9586	0.058
Mof_C 	C 	0.722	0.0993	0.954	-0.016
Mof_H 	H 	0.7026	0.09	0.914	0.035
Mof_C 	C 	0.6931	0.1674	0.9869	-0.061
Mof_H 	H 	0.6536	0.2031	0.969	0.056
Mof_C 	C 	0.7219	0.1837	0.04645	-0.001
Mof_C 	C 	0.7818	0.1298	0.07144	-0.072
Mof_H 	H 	0.8028	0.1403	0.1108	0.054
Mof_C 	C 	0.6912	0.2554	0.08356	0.081
Mof_C 	C 	0.6162	0.2983	0.07003	-0.15
Mof_H 	H 	0.5868	0.2863	0.0339	0.083
Mof_C 	C 	0.5867	0.358	0.11027	0.086
Mof_H 	H 	0.5366	0.385	0.1004	0.008
Mof_C 	C 	0.6995	0.343	0.17333	0.084
Mof_H 	H 	0.7293	0.359	0.2084	0.002
Mof_C 	C 	0.734	0.2834	0.13561	-0.152
Mof_H 	H 	0.7867	0.2614	0.1449	0.08
Mof_N 	N 	0.98733	0.9462	0.10469	-0.102
Mof_N 	N 	0.95517	0.00729	0.06577	-0.116
Mof_N 	N 	0.85061	0.9443	0.10993	-0.11
Mof_N 	N 	0.7688	0.9248	0.13073	-0.212
Mof_N 	N 	0.6871	0.52475	0.24143	-0.153
Mof_N 	N 	0.6251	0.3797	0.16255	-0.157
Mof_H 	H 	0.744	0.9004	0.0977	0.111
Mof_H 	H 	0.7444	0.9761	0.1367	0.112
Mof_C 	C 	0.5376	0.7447	0.7149	0.08
Mof_H 	H 	0.5066	0.7405	0.6785	0.006
Mof_C 	C 	0.5943	0.8106	0.7203	-0.143
Mof_H 	H 	0.6001	0.8493	0.6883	0.078
Mof_C 	C 	0.6421	0.8187	0.77328	0.072
Mof_C 	C 	0.6262	0.76	0.82002	-0.142
Mof_H 	H 	0.6546	0.7636	0.8575	0.077
Mof_C 	C 	0.5686	0.697	0.8105	0.084
Mof_H 	H 	0.5596	0.6589	0.8424	0.01
Mof_C 	C 	0.7084	0.8842	0.77934	0.02
Mof_C 	C 	0.7086	0.9557	0.7423	-0.087
Mof_H 	H 	0.6657	0.9636	0.7136	0.058
Mof_C 	C 	0.7711	0.0149	0.7474	0.011
Mof_H 	H 	0.7691	0.0631	0.7231	0.022
Mof_C 	C 	0.8369	0.0035	0.7882	-0.089
Mof_H 	H 	0.8793	0.0436	0.7913	0.065
Mof_C 	C 	0.8391	0.9317	0.8246	0.027
Mof_C 	C 	0.7749	0.8721	0.82072	-0.09
Mof_H 	H 	0.7763	0.8244	0.8456	0.066
Mof_C 	C 	0.9091	0.9237	0.86904	0.092
Mof_C 	C 	0.0052	0.8727	0.93089	0.085
Mof_C 	C 	0.0608	0.8107	0.96113	0.043
Mof_C 	C 	0.0437	0.7805	0.01983	-0.11
Mof_H 	H 	0.9965	0.7986	0.0414	0.074
Mof_C 	C 	0.0993	0.722	0.046	0.028
Mof_H 	H 	0.09	0.7026	0.086	0.019
Mof_C 	C 	0.1674	0.6931	0.0131	-0.114
Mof_H 	H 	0.2031	0.6536	0.031	0.071
Mof_C 	C 	0.1837	0.7219	0.95355	0.042
Mof_C 	C 	0.1298	0.7818	0.92856	-0.106
Mof_H 	H 	0.1403	0.8028	0.8892	0.066
Mof_C 	C 	0.2554	0.6912	0.91644	0.064
Mof_C 	C 	0.2983	0.6162	0.92997	-0.138
Mof_H 	H 	0.2863	0.5868	0.9661	0.082
Mof_C 	C 	0.358	0.5867	0.88973	0.081
Mof_H 	H 	0.385	0.5366	0.8996	0.012
Mof_C 	C 	0.343	0.6995	0.82667	0.078
Mof_H 	H 	0.359	0.7293	0.7916	0.004
Mof_C 	C 	0.2834	0.734	0.86439	-0.14
Mof_H 	H 	0.2614	0.7867	0.8551	0.076
Mof_N 	N 	0.9462	0.98733	0.89531	-0.102
Mof_N 	N 	0.00729	0.95517	0.93423	-0.112
Mof_N 	N 	0.9443	0.85061	0.89007	-0.108
Mof_N 	N 	0.9248	0.7688	0.86927	-0.212
Mof_N 	N 	0.52475	0.6871	0.75857	-0.153
Mof_N 	N 	0.3797	0.6251	0.83745	-0.155
Mof_H 	H 	0.9004	0.744	0.9023	0.113
Mof_H 	H 	0.9761	0.7444	0.8633	0.112
Mof_C 	C 	0.4624	0.2553	0.2149	0.08
Mof_H 	H 	0.4934	0.2595	0.1785	0.005
Mof_C 	C 	0.4057	0.1894	0.2203	-0.143
Mof_H 	H 	0.3999	0.1507	0.1883	0.077
Mof_C 	C 	0.3579	0.1813	0.27328	0.072
Mof_C 	C 	0.3738	0.24	0.32002	-0.142
Mof_H 	H 	0.3454	0.2364	0.3575	0.077
Mof_C 	C 	0.4314	0.303	0.3105	0.084
Mof_H 	H 	0.4404	0.3411	0.3424	0.01
Mof_C 	C 	0.2916	0.1158	0.27934	0.021
Mof_C 	C 	0.2914	0.0443	0.2423	-0.088
Mof_H 	H 	0.3343	0.0364	0.2136	0.058
Mof_C 	C 	0.2289	0.9851	0.2474	0.011
Mof_H 	H 	0.2309	0.9369	0.2231	0.022
Mof_C 	C 	0.1631	0.9965	0.2882	-0.089
Mof_H 	H 	0.1207	0.9564	0.2913	0.065
Mof_C 	C 	0.1609	0.0683	0.3246	0.027
Mof_C 	C 	0.2251	0.1279	0.32072	-0.09
Mof_H 	H 	0.2237	0.1756	0.3456	0.066
Mof_C 	C 	0.0909	0.0763	0.36904	0.092
Mof_C 	C 	0.9948	0.1273	0.43089	0.088
Mof_C 	C 	0.9392	0.1893	0.46113	0.025
Mof_C 	C 	0.9563	0.2195	0.51983	-0.089
Mof_H 	H 	0.0035	0.2014	0.5414	0.068
Mof_C 	C 	0.9007	0.278	0.546	0.01
Mof_H 	H 	0.91	0.2974	0.586	0.025
Mof_C 	C 	0.8326	0.3069	0.5131	-0.091
Mof_H 	H 	0.7969	0.3464	0.531	0.065
Mof_C 	C 	0.8163	0.2781	0.45355	0.023
Mof_C 	C 	0.8702	0.2182	0.42856	-0.091
Mof_H 	H 	0.8597	0.1972	0.3892	0.061
Mof_C 	C 	0.7446	0.3088	0.41644	0.071
Mof_C 	C 	0.7017	0.3838	0.42997	-0.143
Mof_H 	H 	0.7137	0.4132	0.4661	0.082
Mof_C 	C 	0.642	0.4133	0.38973	0.083
Mof_H 	H 	0.615	0.4634	0.3996	0.01
Mof_C 	C 	0.657	0.3005	0.32667	0.081
Mof_H 	H 	0.641	0.2707	0.2916	0.003
Mof_C 	C 	0.7166	0.266	0.36439	-0.146
Mof_H 	H 	0.7386	0.2133	0.3551	0.078
Mof_N 	N 	0.0538	0.01267	0.39531	-0.102
Mof_N 	N 	0.99271	0.04483	0.43423	-0.114
Mof_N 	N 	0.0557	0.14939	0.39007	-0.109
Mof_N 	N 	0.0752	0.2312	0.36927	-0.212
Mof_N 	N 	0.47525	0.3129	0.25857	-0.153
Mof_N 	N 	0.6203	0.3749	0.33745	-0.156
Mof_H 	H 	0.0996	0.256	0.4023	0.112
Mof_H 	H 	0.0239	0.2556	0.3633	0.112
Mof_C 	C 	0.2447	0.9624	0.9649	0.083
Mof_H 	H 	0.2405	0.9934	0.9285	0.006
Mof_C 	C 	0.3106	0.9057	0.9703	-0.135
Mof_H 	H 	0.3493	0.8999	0.9383	0.076
Mof_C 	C 	0.3187	0.8579	0.02328	0.064
Mof_C 	C 	0.26	0.8738	0.07002	-0.139
Mof_H 	H 	0.2636	0.8454	0.1075	0.076
Mof_C 	C 	0.197	0.9314	0.0605	0.081
Mof_H 	H 	0.1589	0.9404	0.0924	0.011
Mof_C 	C 	0.3842	0.7916	0.02934	0.018
Mof_C 	C 	0.4557	0.7914	0.9923	-0.084
Mof_H 	H 	0.4636	0.8343	0.9636	0.059
Mof_C 	C 	0.5149	0.7289	0.9974	0.022
Mof_H 	H 	0.5631	0.7309	0.9731	0.02
Mof_C 	C 	0.5035	0.6631	0.0382	-0.103
Mof_H 	H 	0.5436	0.6207	0.0413	0.068
Mof_C 	C 	0.4317	0.6609	0.0746	0.032
Mof_C 	C 	0.3721	0.7251	0.07072	-0.093
Mof_H 	H 	0.3244	0.7237	0.0956	0.067
Mof_C 	C 	0.4237	0.5909	0.11904	0.09
Mof_C 	C 	0.3727	0.4948	0.18089	0.087
Mof_C 	C 	0.3107	0.4392	0.21113	0.025
Mof_C 	C 	0.2805	0.4563	0.26983	-0.09
Mof_H 	H 	0.2986	0.5035	0.2914	0.069
Mof_C 	C 	0.222	0.4007	0.296	0.01
Mof_H 	H 	0.2026	0.41	0.336	0.025
Mof_C 	C 	0.1931	0.3326	0.2631	-0.091
Mof_H 	H 	0.1536	0.2969	0.281	0.065
Mof_C 	C 	0.2219	0.3163	0.20355	0.023
Mof_C 	C 	0.2818	0.3702	0.17856	-0.091
Mof_H 	H 	0.3028	0.3597	0.1392	0.061
Mof_C 	C 	0.1912	0.2446	0.16644	0.071
Mof_C 	C 	0.1162	0.2017	0.17997	-0.143
Mof_H 	H 	0.0868	0.2137	0.2161	0.082
Mof_C 	C 	0.0867	0.142	0.13973	0.083
Mof_H 	H 	0.0366	0.115	0.1496	0.01
Mof_C 	C 	0.1995	0.157	0.07667	0.08
Mof_H 	H 	0.2293	0.141	0.0416	0.001
Mof_C 	C 	0.234	0.2166	0.11439	-0.146
Mof_H 	H 	0.2867	0.2386	0.1051	0.077
Mof_N 	N 	0.48733	0.5538	0.14531	-0.102
Mof_N 	N 	0.45517	0.49271	0.18423	-0.115
Mof_N 	N 	0.35061	0.5557	0.14007	-0.109
Mof_N 	N 	0.2688	0.5752	0.11927	-0.213
Mof_N 	N 	0.1871	0.97525	0.00857	-0.155
Mof_N 	N 	0.1251	0.1203	0.08745	-0.156
Mof_H 	H 	0.244	0.5996	0.1523	0.113
Mof_H 	H 	0.2444	0.5239	0.1133	0.112
Mof_C 	C 	0.7553	0.0376	0.4649	0.08
Mof_H 	H 	0.7595	0.0066	0.4285	0.006
Mof_C 	C 	0.6894	0.0943	0.4703	-0.143
Mof_H 	H 	0.6507	0.1001	0.4383	0.078
Mof_C 	C 	0.6813	0.1421	0.52328	0.072
Mof_C 	C 	0.74	0.1262	0.57002	-0.142
Mof_H 	H 	0.7364	0.1546	0.6075	0.077
Mof_C 	C 	0.803	0.0686	0.5605	0.084
Mof_H 	H 	0.8411	0.0596	0.5924	0.01
Mof_C 	C 	0.6158	0.2084	0.52934	0.02
Mof_C 	C 	0.5443	0.2086	0.4923	-0.086
Mof_H 	H 	0.5364	0.1657	0.4636	0.058
Mof_C 	C 	0.4851	0.2711	0.4974	0.01
Mof_H 	H 	0.4369	0.2691	0.4731	0.022
Mof_C 	C 	0.4965	0.3369	0.5382	-0.09
Mof_H 	H 	0.4564	0.3793	0.5413	0.065
Mof_C 	C 	0.5683	0.3391	0.5746	0.028
Mof_C 	C 	0.6279	0.2749	0.57072	-0.09
Mof_H 	H 	0.6756	0.2763	0.5956	0.066
Mof_C 	C 	0.5763	0.4091	0.61904	0.092
Mof_C 	C 	0.6273	0.5052	0.68089	0.087
Mof_C 	C 	0.6893	0.5608	0.71113	0.025
Mof_C 	C 	0.7195	0.5437	0.76983	-0.09
Mof_H 	H 	0.7014	0.4965	0.7914	0.069
Mof_C 	C 	0.778	0.5993	0.796	0.01
Mof_H 	H 	0.7974	0.59	0.836	0.026
Mof_C 	C 	0.8069	0.6674	0.7631	-0.091
Mof_H 	H 	0.8464	0.7031	0.781	0.065
Mof_C 	C 	0.7781	0.6837	0.70355	0.023
Mof_C 	C 	0.7182	0.6298	0.67856	-0.091
Mof_H 	H 	0.6972	0.6403	0.6392	0.061
Mof_C 	C 	0.8088	0.7554	0.66644	0.071
Mof_C 	C 	0.8838	0.7983	0.67997	-0.143
Mof_H 	H 	0.9132	0.7863	0.7161	0.082
Mof_C 	C 	0.9133	0.858	0.63973	0.083
Mof_H 	H 	0.9634	0.885	0.6496	0.01
Mof_C 	C 	0.8005	0.843	0.57667	0.081
Mof_H 	H 	0.7707	0.859	0.5416	0.003
Mof_C 	C 	0.766	0.7834	0.61439	-0.146
Mof_H 	H 	0.7133	0.7614	0.6051	0.078
Mof_N 	N 	0.51267	0.4462	0.64531	-0.102
Mof_N 	N 	0.54483	0.50729	0.68423	-0.115
Mof_N 	N 	0.64939	0.4443	0.64007	-0.109
Mof_N 	N 	0.7312	0.4248	0.61927	-0.212
Mof_N 	N 	0.8129	0.02475	0.50857	-0.153
Mof_N 	N 	0.8749	0.8797	0.58745	-0.156
Mof_H 	H 	0.756	0.4004	0.6523	0.112
Mof_H 	H 	0.7556	0.4761	0.6133	0.112
Mof_Cd	Cd	0.44103	0.55897	0.75	0.382
Mof_Cd	Cd	0.55897	0.44103	0.25	0.382
Mof_Cd	Cd	0.94103	0.94103	0.5	0.381
Mof_Cd	Cd	0.05897	0.05897	-0	0.375
_end
