data_functionalizedCrystal
_audit_creation_method	'EQeq! by Chris Wilmer'
_symmetry_space_group_name_H-M	'P1'
_symmetry_Int_Tables_number	1
_symmetry_cell_setting	triclinic
loop_
_symmetry_equiv_pos_as_xyz
  x,y,z
_cell_length_a	45.2958
_cell_length_b	45.2958
_cell_length_c	45.2958
_cell_angle_alpha	60
_cell_angle_beta	60
_cell_angle_gamma	60
loop_
_atom_site_label
_atom_site_type_symbol
_atom_site_fract_x
_atom_site_fract_y
_atom_site_fract_z
_atom_site_charge
Mof_Co	Co	0.98952	0.01048	0.25	1.12
Mof_Co	Co	0.51048	0.48952	0.75	1.12
Mof_Co	Co	0.75	0.75	0.48952	1.12
Mof_Co	Co	0.25	0.25	0.01048	1.12
Mof_Co	Co	0.98952	0.25	0.75	1.12
Mof_Co	Co	0.51048	0.75	0.25	1.12
Mof_Co	Co	0.75	0.48952	0.01048	1.12
Mof_Co	Co	0.25	0.01048	0.48952	1.12
Mof_Co	Co	0.98952	0.75	0.01048	1.12
Mof_Co	Co	0.51048	0.25	0.48952	1.12
Mof_Co	Co	0.75	0.01048	0.75	1.12
Mof_Co	Co	0.25	0.48952	0.25	1.12
Mof_Co	Co	0.01048	0.98952	0.75	1.12
Mof_Co	Co	0.48952	0.51048	0.25	1.12
Mof_Co	Co	0.25	0.25	0.51048	1.12
Mof_Co	Co	0.75	0.75	0.98952	1.12
Mof_Co	Co	0.01048	0.75	0.25	1.12
Mof_Co	Co	0.48952	0.25	0.75	1.12
Mof_Co	Co	0.25	0.51048	0.98952	1.12
Mof_Co	Co	0.75	0.98952	0.51048	1.12
Mof_Co	Co	0.01048	0.25	0.98952	1.12
Mof_Co	Co	0.48952	0.75	0.51048	1.12
Mof_Co	Co	0.25	0.98952	0.25	1.12
Mof_Co	Co	0.75	0.51048	0.75	1.12
Mof_Co	Co	0.0022	0.2478	0.2478	1.122
Mof_Co	Co	0.7478	0.5022	0.5022	1.122
Mof_Co	Co	0.0022	0.2478	0.5022	1.122
Mof_Co	Co	0.7478	0.5022	0.2478	1.122
Mof_Co	Co	0.0022	0.5022	0.2478	1.122
Mof_Co	Co	0.7478	0.2478	0.5022	1.122
Mof_Co	Co	0.7522	0.9978	0.2522	1.122
Mof_Co	Co	0.4978	0.2522	0.9978	1.122
Mof_Co	Co	0.7522	0.9978	0.9978	1.122
Mof_Co	Co	0.4978	0.2522	0.2522	1.122
Mof_Co	Co	0.4978	0.9978	0.2522	1.122
Mof_Co	Co	0.7522	0.2522	0.9978	1.122
Mof_Co	Co	0.9978	0.7522	0.7522	1.122
Mof_Co	Co	0.2522	0.4978	0.4978	1.122
Mof_Co	Co	0.9978	0.7522	0.4978	1.122
Mof_Co	Co	0.2522	0.4978	0.7522	1.122
Mof_Co	Co	0.9978	0.4978	0.7522	1.122
Mof_Co	Co	0.2522	0.7522	0.4978	1.122
Mof_Co	Co	0.2478	0.0022	0.7478	1.122
Mof_Co	Co	0.5022	0.7478	0.0022	1.122
Mof_Co	Co	0.2478	0.0022	0.0022	1.122
Mof_Co	Co	0.5022	0.7478	0.7478	1.122
Mof_Co	Co	0.5022	0.0022	0.7478	1.122
Mof_Co	Co	0.2478	0.7478	0.0022	1.122
Mof_H 	H 	0.9532	0.0456	0.3132	0.002
Mof_H 	H 	0.9351	0.1009	0.3183	0.067
Mof_H 	H 	0.9456	0.1504	0.266	0.038
Mof_H 	H 	0.9791	0.0889	0.2075	0.014
Mof_H 	H 	0.9926	0.1792	0.0176	-0.001
Mof_H 	H 	0.9831	0.1301	0.0691	0.067
Mof_H 	H 	0.9762	0.1294	0.1246	0.039
Mof_H 	H 	0.9921	0.2255	0.0717	0.017
Mof_H 	H 	0.9917	0.2097	0.2165	0.011
Mof_H 	H 	0.0208	0.2958	0.1654	0.003
Mof_H 	H 	0.0174	0.304	0.1128	0.067
Mof_H 	H 	0.0044	0.2616	0.1096	0.039
Mof_H 	H 	0.9289	0.2747	0.2385	0.001
Mof_H 	H 	0.8819	0.3259	0.2253	0.068
Mof_H 	H 	0.8785	0.3807	0.2225	0.039
Mof_H 	H 	0.971	0.3278	0.2456	0.013
Mof_H 	H 	0.5456	0.4532	0.688	0.002
Mof_H 	H 	0.6009	0.4351	0.6457	0.067
Mof_H 	H 	0.6504	0.4456	0.638	0.038
Mof_H 	H 	0.5889	0.4791	0.7245	0.014
Mof_H 	H 	0.6792	0.4926	0.8106	-0.001
Mof_H 	H 	0.6301	0.4831	0.8177	0.066
Mof_H 	H 	0.6294	0.4762	0.7698	0.039
Mof_H 	H 	0.7255	0.4921	0.7107	0.017
Mof_H 	H 	0.7097	0.4917	0.5821	0.011
Mof_H 	H 	0.7958	0.5208	0.518	0.003
Mof_H 	H 	0.804	0.5174	0.5658	0.067
Mof_H 	H 	0.7616	0.5044	0.6244	0.039
Mof_H 	H 	0.7747	0.4289	0.5579	0.001
Mof_H 	H 	0.8259	0.3819	0.5669	0.068
Mof_H 	H 	0.8807	0.3785	0.5183	0.039
Mof_H 	H 	0.8278	0.471	0.4556	0.013
Mof_H 	H 	0.8132	0.688	0.4532	0.002
Mof_H 	H 	0.8183	0.6457	0.4351	0.067
Mof_H 	H 	0.766	0.638	0.4456	0.038
Mof_H 	H 	0.7075	0.7245	0.4791	0.014
Mof_H 	H 	0.5176	0.8106	0.4926	-0.002
Mof_H 	H 	0.5691	0.8177	0.4831	0.065
Mof_H 	H 	0.6246	0.7698	0.4762	0.038
Mof_H 	H 	0.5717	0.7107	0.4921	0.016
Mof_H 	H 	0.7165	0.5821	0.4917	0.01
Mof_H 	H 	0.6654	0.518	0.5208	0.002
Mof_H 	H 	0.6128	0.5658	0.5174	0.066
Mof_H 	H 	0.6096	0.6244	0.5044	0.038
Mof_H 	H 	0.7385	0.5579	0.4289	-0
Mof_H 	H 	0.7253	0.5669	0.3819	0.067
Mof_H 	H 	0.7225	0.5183	0.3785	0.038
Mof_H 	H 	0.7456	0.4556	0.471	0.012
Mof_H 	H 	0.188	0.3132	0.0456	0.001
Mof_H 	H 	0.1457	0.3183	0.1009	0.066
Mof_H 	H 	0.138	0.266	0.1504	0.037
Mof_H 	H 	0.2245	0.2075	0.0889	0.013
Mof_H 	H 	0.3106	0.0176	0.1792	-0.002
Mof_H 	H 	0.3177	0.0691	0.1301	0.065
Mof_H 	H 	0.2698	0.1246	0.1294	0.038
Mof_H 	H 	0.2107	0.0717	0.2255	0.016
Mof_H 	H 	0.0821	0.2165	0.2097	0.01
Mof_H 	H 	0.018	0.1654	0.2958	0.002
Mof_H 	H 	0.0658	0.1128	0.304	0.066
Mof_H 	H 	0.1244	0.1096	0.2616	0.038
Mof_H 	H 	0.0579	0.2385	0.2747	-0
Mof_H 	H 	0.0669	0.2253	0.3259	0.067
Mof_H 	H 	0.0183	0.2225	0.3807	0.038
Mof_H 	H 	0.9556	0.2456	0.3278	0.012
Mof_H 	H 	0.9532	0.3132	0.688	0.001
Mof_H 	H 	0.9351	0.3183	0.6457	0.066
Mof_H 	H 	0.9456	0.266	0.638	0.037
Mof_H 	H 	0.9791	0.2075	0.7245	0.013
Mof_H 	H 	0.9926	0.0176	0.8106	-0.002
Mof_H 	H 	0.9831	0.0691	0.8177	0.066
Mof_H 	H 	0.9762	0.1246	0.7698	0.038
Mof_H 	H 	0.9921	0.0717	0.7107	0.016
Mof_H 	H 	0.9917	0.2165	0.5821	0.01
Mof_H 	H 	0.0208	0.1654	0.518	0.002
Mof_H 	H 	0.0174	0.1128	0.5658	0.066
Mof_H 	H 	0.0044	0.1096	0.6244	0.038
Mof_H 	H 	0.9289	0.2385	0.5579	-0
Mof_H 	H 	0.8819	0.2253	0.5669	0.067
Mof_H 	H 	0.8785	0.2225	0.5183	0.038
Mof_H 	H 	0.971	0.2456	0.4556	0.012
Mof_H 	H 	0.5456	0.688	0.3132	0.001
Mof_H 	H 	0.6009	0.6457	0.3183	0.066
Mof_H 	H 	0.6504	0.638	0.266	0.037
Mof_H 	H 	0.5889	0.7245	0.2075	0.013
Mof_H 	H 	0.6792	0.8106	0.0176	-0.002
Mof_H 	H 	0.6301	0.8177	0.0691	0.065
Mof_H 	H 	0.6294	0.7698	0.1246	0.038
Mof_H 	H 	0.7255	0.7107	0.0717	0.016
Mof_H 	H 	0.7097	0.5821	0.2165	0.01
Mof_H 	H 	0.7958	0.518	0.1654	0.002
Mof_H 	H 	0.804	0.5658	0.1128	0.066
Mof_H 	H 	0.7616	0.6244	0.1096	0.038
Mof_H 	H 	0.7747	0.5579	0.2385	-0
Mof_H 	H 	0.8259	0.5669	0.2253	0.067
Mof_H 	H 	0.8807	0.5183	0.2225	0.038
Mof_H 	H 	0.8278	0.4556	0.2456	0.012
Mof_H 	H 	0.8132	0.4532	0.0456	0.001
Mof_H 	H 	0.8183	0.4351	0.1009	0.066
Mof_H 	H 	0.766	0.4456	0.1504	0.037
Mof_H 	H 	0.7075	0.4791	0.0889	0.013
Mof_H 	H 	0.5176	0.4926	0.1792	-0.002
Mof_H 	H 	0.5691	0.4831	0.1301	0.065
Mof_H 	H 	0.6246	0.4762	0.1294	0.038
Mof_H 	H 	0.5717	0.4921	0.2255	0.016
Mof_H 	H 	0.7165	0.4917	0.2097	0.01
Mof_H 	H 	0.6654	0.5208	0.2958	0.002
Mof_H 	H 	0.6128	0.5174	0.304	0.066
Mof_H 	H 	0.6096	0.5044	0.2616	0.038
Mof_H 	H 	0.7385	0.4289	0.2747	-0
Mof_H 	H 	0.7253	0.3819	0.3259	0.067
Mof_H 	H 	0.7225	0.3785	0.3807	0.038
Mof_H 	H 	0.7456	0.471	0.3278	0.012
Mof_H 	H 	0.188	0.0456	0.4532	0.001
Mof_H 	H 	0.1457	0.1009	0.4351	0.066
Mof_H 	H 	0.138	0.1504	0.4456	0.037
Mof_H 	H 	0.2245	0.0889	0.4791	0.013
Mof_H 	H 	0.3106	0.1792	0.4926	-0.002
Mof_H 	H 	0.3177	0.1301	0.4831	0.065
Mof_H 	H 	0.2698	0.1294	0.4762	0.038
Mof_H 	H 	0.2107	0.2255	0.4921	0.016
Mof_H 	H 	0.0821	0.2097	0.4917	0.01
Mof_H 	H 	0.018	0.2958	0.5208	0.002
Mof_H 	H 	0.0658	0.304	0.5174	0.066
Mof_H 	H 	0.1244	0.2616	0.5044	0.038
Mof_H 	H 	0.0579	0.2747	0.4289	-0
Mof_H 	H 	0.0669	0.3259	0.3819	0.067
Mof_H 	H 	0.0183	0.3807	0.3785	0.038
Mof_H 	H 	0.9556	0.3278	0.471	0.012
Mof_H 	H 	0.9532	0.688	0.0456	0.001
Mof_H 	H 	0.9351	0.6457	0.1009	0.066
Mof_H 	H 	0.9456	0.638	0.1504	0.037
Mof_H 	H 	0.9791	0.7245	0.0889	0.013
Mof_H 	H 	0.9926	0.8106	0.1792	-0.002
Mof_H 	H 	0.9831	0.8177	0.1301	0.066
Mof_H 	H 	0.9762	0.7698	0.1294	0.038
Mof_H 	H 	0.9921	0.7107	0.2255	0.016
Mof_H 	H 	0.9917	0.5821	0.2097	0.01
Mof_H 	H 	0.0208	0.518	0.2958	0.002
Mof_H 	H 	0.0174	0.5658	0.304	0.066
Mof_H 	H 	0.0044	0.6244	0.2616	0.038
Mof_H 	H 	0.9289	0.5579	0.2747	-0
Mof_H 	H 	0.8819	0.5669	0.3259	0.067
Mof_H 	H 	0.8785	0.5183	0.3807	0.038
Mof_H 	H 	0.971	0.4556	0.3278	0.012
Mof_H 	H 	0.5456	0.3132	0.4532	0.001
Mof_H 	H 	0.6009	0.3183	0.4351	0.066
Mof_H 	H 	0.6504	0.266	0.4456	0.037
Mof_H 	H 	0.5889	0.2075	0.4791	0.013
Mof_H 	H 	0.6792	0.0176	0.4926	-0.002
Mof_H 	H 	0.6301	0.0691	0.4831	0.065
Mof_H 	H 	0.6294	0.1246	0.4762	0.038
Mof_H 	H 	0.7255	0.0717	0.4921	0.016
Mof_H 	H 	0.7097	0.2165	0.4917	0.01
Mof_H 	H 	0.7958	0.1654	0.5208	0.002
Mof_H 	H 	0.804	0.1128	0.5174	0.066
Mof_H 	H 	0.7616	0.1096	0.5044	0.038
Mof_H 	H 	0.7747	0.2385	0.4289	-0
Mof_H 	H 	0.8259	0.2253	0.3819	0.067
Mof_H 	H 	0.8807	0.2225	0.3785	0.038
Mof_H 	H 	0.8278	0.2456	0.471	0.012
Mof_H 	H 	0.8132	0.0456	0.688	0.001
Mof_H 	H 	0.8183	0.1009	0.6457	0.066
Mof_H 	H 	0.766	0.1504	0.638	0.037
Mof_H 	H 	0.7075	0.0889	0.7245	0.013
Mof_H 	H 	0.5176	0.1792	0.8106	-0.002
Mof_H 	H 	0.5691	0.1301	0.8177	0.065
Mof_H 	H 	0.6246	0.1294	0.7698	0.038
Mof_H 	H 	0.5717	0.2255	0.7107	0.016
Mof_H 	H 	0.7165	0.2097	0.5821	0.01
Mof_H 	H 	0.6654	0.2958	0.518	0.002
Mof_H 	H 	0.6128	0.304	0.5658	0.066
Mof_H 	H 	0.6096	0.2616	0.6244	0.038
Mof_H 	H 	0.7385	0.2747	0.5579	-0
Mof_H 	H 	0.7253	0.3259	0.5669	0.067
Mof_H 	H 	0.7225	0.3807	0.5183	0.038
Mof_H 	H 	0.7456	0.3278	0.4556	0.012
Mof_H 	H 	0.188	0.4532	0.3132	0.001
Mof_H 	H 	0.1457	0.4351	0.3183	0.066
Mof_H 	H 	0.138	0.4456	0.266	0.037
Mof_H 	H 	0.2245	0.4791	0.2075	0.013
Mof_H 	H 	0.3106	0.4926	0.0176	-0.002
Mof_H 	H 	0.3177	0.4831	0.0691	0.065
Mof_H 	H 	0.2698	0.4762	0.1246	0.038
Mof_H 	H 	0.2107	0.4921	0.0717	0.016
Mof_H 	H 	0.0821	0.4917	0.2165	0.01
Mof_H 	H 	0.018	0.5208	0.1654	0.002
Mof_H 	H 	0.0658	0.5174	0.1128	0.066
Mof_H 	H 	0.1244	0.5044	0.1096	0.038
Mof_H 	H 	0.0579	0.4289	0.2385	-0
Mof_H 	H 	0.0669	0.3819	0.2253	0.067
Mof_H 	H 	0.0183	0.3785	0.2225	0.038
Mof_H 	H 	0.9556	0.471	0.2456	0.012
Mof_H 	H 	0.9544	0.0468	0.1868	0.001
Mof_H 	H 	0.8991	0.0649	0.1817	0.066
Mof_H 	H 	0.8496	0.0544	0.234	0.037
Mof_H 	H 	0.9111	0.0209	0.2925	0.013
Mof_H 	H 	0.8208	0.0074	0.4824	-0.002
Mof_H 	H 	0.8699	0.0169	0.4309	0.065
Mof_H 	H 	0.8706	0.0238	0.3754	0.038
Mof_H 	H 	0.7745	0.0079	0.4283	0.016
Mof_H 	H 	0.7903	0.0083	0.2835	0.01
Mof_H 	H 	0.7042	0.9792	0.3346	0.002
Mof_H 	H 	0.696	0.9826	0.3872	0.066
Mof_H 	H 	0.7384	0.9956	0.3904	0.038
Mof_H 	H 	0.7253	0.0711	0.2615	-0
Mof_H 	H 	0.6741	0.1181	0.2747	0.067
Mof_H 	H 	0.6193	0.1215	0.2775	0.038
Mof_H 	H 	0.6722	0.029	0.2544	0.012
Mof_H 	H 	0.5468	0.4544	0.812	0.001
Mof_H 	H 	0.5649	0.3991	0.8543	0.066
Mof_H 	H 	0.5544	0.3496	0.862	0.037
Mof_H 	H 	0.5209	0.4111	0.7755	0.013
Mof_H 	H 	0.5074	0.3208	0.6894	-0.002
Mof_H 	H 	0.5169	0.3699	0.6823	0.065
Mof_H 	H 	0.5238	0.3706	0.7302	0.038
Mof_H 	H 	0.5079	0.2745	0.7893	0.016
Mof_H 	H 	0.5083	0.2903	0.9179	0.01
Mof_H 	H 	0.4792	0.2042	0.982	0.002
Mof_H 	H 	0.4826	0.196	0.9342	0.066
Mof_H 	H 	0.4956	0.2384	0.8756	0.038
Mof_H 	H 	0.5711	0.2253	0.9421	-0
Mof_H 	H 	0.6181	0.1741	0.9331	0.067
Mof_H 	H 	0.6215	0.1193	0.9817	0.038
Mof_H 	H 	0.529	0.1722	0.0444	0.012
Mof_H 	H 	0.312	0.1868	0.0468	0.001
Mof_H 	H 	0.3543	0.1817	0.0649	0.066
Mof_H 	H 	0.362	0.234	0.0544	0.037
Mof_H 	H 	0.2755	0.2925	0.0209	0.013
Mof_H 	H 	0.1894	0.4824	0.0074	-0.002
Mof_H 	H 	0.1823	0.4309	0.0169	0.065
Mof_H 	H 	0.2302	0.3754	0.0238	0.038
Mof_H 	H 	0.2893	0.4283	0.0079	0.016
Mof_H 	H 	0.4179	0.2835	0.0083	0.01
Mof_H 	H 	0.482	0.3346	0.9792	0.002
Mof_H 	H 	0.4342	0.3872	0.9826	0.066
Mof_H 	H 	0.3756	0.3904	0.9956	0.038
Mof_H 	H 	0.4421	0.2615	0.0711	-0
Mof_H 	H 	0.4331	0.2747	0.1181	0.067
Mof_H 	H 	0.4817	0.2775	0.1215	0.038
Mof_H 	H 	0.5444	0.2544	0.029	0.012
Mof_H 	H 	0.6868	0.812	0.4544	0.001
Mof_H 	H 	0.6817	0.8543	0.3991	0.066
Mof_H 	H 	0.734	0.862	0.3496	0.037
Mof_H 	H 	0.7925	0.7755	0.4111	0.013
Mof_H 	H 	0.9824	0.6894	0.3208	-0.002
Mof_H 	H 	0.9309	0.6823	0.3699	0.065
Mof_H 	H 	0.8754	0.7302	0.3706	0.038
Mof_H 	H 	0.9283	0.7893	0.2745	0.016
Mof_H 	H 	0.7835	0.9179	0.2903	0.01
Mof_H 	H 	0.8346	0.982	0.2042	0.002
Mof_H 	H 	0.8872	0.9342	0.196	0.066
Mof_H 	H 	0.8904	0.8756	0.2384	0.038
Mof_H 	H 	0.7615	0.9421	0.2253	-0
Mof_H 	H 	0.7747	0.9331	0.1741	0.067
Mof_H 	H 	0.7775	0.9817	0.1193	0.038
Mof_H 	H 	0.7544	0.0444	0.1722	0.012
Mof_H 	H 	0.6868	0.0468	0.812	0.001
Mof_H 	H 	0.6817	0.0649	0.8543	0.066
Mof_H 	H 	0.734	0.0544	0.862	0.037
Mof_H 	H 	0.7925	0.0209	0.7755	0.013
Mof_H 	H 	0.9824	0.0074	0.6894	-0.002
Mof_H 	H 	0.9309	0.0169	0.6823	0.066
Mof_H 	H 	0.8754	0.0238	0.7302	0.038
Mof_H 	H 	0.9283	0.0079	0.7893	0.016
Mof_H 	H 	0.7835	0.0083	0.9179	0.01
Mof_H 	H 	0.8346	0.9792	0.982	0.002
Mof_H 	H 	0.8872	0.9826	0.9342	0.066
Mof_H 	H 	0.8904	0.9956	0.8756	0.038
Mof_H 	H 	0.7615	0.0711	0.9421	-0
Mof_H 	H 	0.7747	0.1181	0.9331	0.067
Mof_H 	H 	0.7775	0.1215	0.9817	0.038
Mof_H 	H 	0.7544	0.029	0.0444	0.012
Mof_H 	H 	0.312	0.4544	0.1868	0.001
Mof_H 	H 	0.3543	0.3991	0.1817	0.066
Mof_H 	H 	0.362	0.3496	0.234	0.037
Mof_H 	H 	0.2755	0.4111	0.2925	0.013
Mof_H 	H 	0.1894	0.3208	0.4824	-0.002
Mof_H 	H 	0.1823	0.3699	0.4309	0.065
Mof_H 	H 	0.2302	0.3706	0.3754	0.038
Mof_H 	H 	0.2893	0.2745	0.4283	0.016
Mof_H 	H 	0.4179	0.2903	0.2835	0.01
Mof_H 	H 	0.482	0.2042	0.3346	0.002
Mof_H 	H 	0.4342	0.196	0.3872	0.066
Mof_H 	H 	0.3756	0.2384	0.3904	0.038
Mof_H 	H 	0.4421	0.2253	0.2615	-0
Mof_H 	H 	0.4331	0.1741	0.2747	0.067
Mof_H 	H 	0.4817	0.1193	0.2775	0.038
Mof_H 	H 	0.5444	0.1722	0.2544	0.012
Mof_H 	H 	0.5468	0.1868	0.4544	0.001
Mof_H 	H 	0.5649	0.1817	0.3991	0.066
Mof_H 	H 	0.5544	0.234	0.3496	0.037
Mof_H 	H 	0.5209	0.2925	0.4111	0.013
Mof_H 	H 	0.5074	0.4824	0.3208	-0.002
Mof_H 	H 	0.5169	0.4309	0.3699	0.065
Mof_H 	H 	0.5238	0.3754	0.3706	0.038
Mof_H 	H 	0.5079	0.4283	0.2745	0.016
Mof_H 	H 	0.5083	0.2835	0.2903	0.01
Mof_H 	H 	0.4792	0.3346	0.2042	0.002
Mof_H 	H 	0.4826	0.3872	0.196	0.066
Mof_H 	H 	0.4956	0.3904	0.2384	0.038
Mof_H 	H 	0.5711	0.2615	0.2253	-0
Mof_H 	H 	0.6181	0.2747	0.1741	0.067
Mof_H 	H 	0.6215	0.2775	0.1193	0.038
Mof_H 	H 	0.529	0.2544	0.1722	0.012
Mof_H 	H 	0.9544	0.812	0.0468	0.001
Mof_H 	H 	0.8991	0.8543	0.0649	0.066
Mof_H 	H 	0.8496	0.862	0.0544	0.037
Mof_H 	H 	0.9111	0.7755	0.0209	0.013
Mof_H 	H 	0.8208	0.6894	0.0074	-0.002
Mof_H 	H 	0.8699	0.6823	0.0169	0.065
Mof_H 	H 	0.8706	0.7302	0.0238	0.038
Mof_H 	H 	0.7745	0.7893	0.0079	0.016
Mof_H 	H 	0.7903	0.9179	0.0083	0.01
Mof_H 	H 	0.7042	0.982	0.9792	0.002
Mof_H 	H 	0.696	0.9342	0.9826	0.066
Mof_H 	H 	0.7384	0.8756	0.9956	0.038
Mof_H 	H 	0.7253	0.9421	0.0711	-0
Mof_H 	H 	0.6741	0.9331	0.1181	0.067
Mof_H 	H 	0.6193	0.9817	0.1215	0.038
Mof_H 	H 	0.6722	0.0444	0.029	0.012
Mof_H 	H 	0.312	0.0468	0.4544	0.001
Mof_H 	H 	0.3543	0.0649	0.3991	0.066
Mof_H 	H 	0.362	0.0544	0.3496	0.037
Mof_H 	H 	0.2755	0.0209	0.4111	0.013
Mof_H 	H 	0.1894	0.0074	0.3208	-0.002
Mof_H 	H 	0.1823	0.0169	0.3699	0.065
Mof_H 	H 	0.2302	0.0238	0.3706	0.038
Mof_H 	H 	0.2893	0.0079	0.2745	0.016
Mof_H 	H 	0.4179	0.0083	0.2903	0.01
Mof_H 	H 	0.482	0.9792	0.2042	0.002
Mof_H 	H 	0.4342	0.9826	0.196	0.066
Mof_H 	H 	0.3756	0.9956	0.2384	0.038
Mof_H 	H 	0.4421	0.0711	0.2253	-0
Mof_H 	H 	0.4331	0.1181	0.1741	0.067
Mof_H 	H 	0.4817	0.1215	0.1193	0.038
Mof_H 	H 	0.5444	0.029	0.1722	0.012
Mof_H 	H 	0.6868	0.4544	0.0468	0.001
Mof_H 	H 	0.6817	0.3991	0.0649	0.066
Mof_H 	H 	0.734	0.3496	0.0544	0.037
Mof_H 	H 	0.7925	0.4111	0.0209	0.013
Mof_H 	H 	0.9824	0.3208	0.0074	-0.002
Mof_H 	H 	0.9309	0.3699	0.0169	0.066
Mof_H 	H 	0.8754	0.3706	0.0238	0.038
Mof_H 	H 	0.9283	0.2745	0.0079	0.016
Mof_H 	H 	0.7835	0.2903	0.0083	0.01
Mof_H 	H 	0.8346	0.2042	0.9792	0.002
Mof_H 	H 	0.8872	0.196	0.9826	0.066
Mof_H 	H 	0.8904	0.2384	0.9956	0.038
Mof_H 	H 	0.7615	0.2253	0.0711	-0
Mof_H 	H 	0.7747	0.1741	0.1181	0.067
Mof_H 	H 	0.7775	0.1193	0.1215	0.038
Mof_H 	H 	0.7544	0.1722	0.029	0.012
Mof_H 	H 	0.9544	0.1868	0.812	0.001
Mof_H 	H 	0.8991	0.1817	0.8543	0.066
Mof_H 	H 	0.8496	0.234	0.862	0.037
Mof_H 	H 	0.9111	0.2925	0.7755	0.013
Mof_H 	H 	0.8208	0.4824	0.6894	-0.002
Mof_H 	H 	0.8699	0.4309	0.6823	0.065
Mof_H 	H 	0.8706	0.3754	0.7302	0.038
Mof_H 	H 	0.7745	0.4283	0.7893	0.016
Mof_H 	H 	0.7903	0.2835	0.9179	0.01
Mof_H 	H 	0.7042	0.3346	0.982	0.002
Mof_H 	H 	0.696	0.3872	0.9342	0.066
Mof_H 	H 	0.7384	0.3904	0.8756	0.038
Mof_H 	H 	0.7253	0.2615	0.9421	-0
Mof_H 	H 	0.6741	0.2747	0.9331	0.067
Mof_H 	H 	0.6193	0.2775	0.9817	0.038
Mof_H 	H 	0.6722	0.2544	0.0444	0.012
Mof_H 	H 	0.5468	0.812	0.1868	0.001
Mof_H 	H 	0.5649	0.8543	0.1817	0.066
Mof_H 	H 	0.5544	0.862	0.234	0.037
Mof_H 	H 	0.5209	0.7755	0.2925	0.013
Mof_H 	H 	0.5074	0.6894	0.4824	-0.002
Mof_H 	H 	0.5169	0.6823	0.4309	0.065
Mof_H 	H 	0.5238	0.7302	0.3754	0.038
Mof_H 	H 	0.5079	0.7893	0.4283	0.016
Mof_H 	H 	0.5083	0.9179	0.2835	0.01
Mof_H 	H 	0.4792	0.982	0.3346	0.002
Mof_H 	H 	0.4826	0.9342	0.3872	0.066
Mof_H 	H 	0.4956	0.8756	0.3904	0.038
Mof_H 	H 	0.5711	0.9421	0.2615	-0
Mof_H 	H 	0.6181	0.9331	0.2747	0.067
Mof_H 	H 	0.6215	0.9817	0.2775	0.038
Mof_H 	H 	0.529	0.0444	0.2544	0.012
Mof_H 	H 	0.0468	0.9544	0.6868	0.001
Mof_H 	H 	0.0649	0.8991	0.6817	0.066
Mof_H 	H 	0.0544	0.8496	0.734	0.037
Mof_H 	H 	0.0209	0.9111	0.7925	0.013
Mof_H 	H 	0.0074	0.8208	0.9824	-0.002
Mof_H 	H 	0.0169	0.8699	0.9309	0.066
Mof_H 	H 	0.0238	0.8706	0.8754	0.038
Mof_H 	H 	0.0079	0.7745	0.9283	0.016
Mof_H 	H 	0.0083	0.7903	0.7835	0.01
Mof_H 	H 	0.9792	0.7042	0.8346	0.002
Mof_H 	H 	0.9826	0.696	0.8872	0.066
Mof_H 	H 	0.9956	0.7384	0.8904	0.038
Mof_H 	H 	0.0711	0.7253	0.7615	-0
Mof_H 	H 	0.1181	0.6741	0.7747	0.067
Mof_H 	H 	0.1215	0.6193	0.7775	0.038
Mof_H 	H 	0.029	0.6722	0.7544	0.012
Mof_H 	H 	0.4544	0.5468	0.312	0.001
Mof_H 	H 	0.3991	0.5649	0.3543	0.066
Mof_H 	H 	0.3496	0.5544	0.362	0.037
Mof_H 	H 	0.4111	0.5209	0.2755	0.013
Mof_H 	H 	0.3208	0.5074	0.1894	-0.002
Mof_H 	H 	0.3699	0.5169	0.1823	0.065
Mof_H 	H 	0.3706	0.5238	0.2302	0.038
Mof_H 	H 	0.2745	0.5079	0.2893	0.016
Mof_H 	H 	0.2903	0.5083	0.4179	0.01
Mof_H 	H 	0.2042	0.4792	0.482	0.002
Mof_H 	H 	0.196	0.4826	0.4342	0.066
Mof_H 	H 	0.2384	0.4956	0.3756	0.038
Mof_H 	H 	0.2253	0.5711	0.4421	-0
Mof_H 	H 	0.1741	0.6181	0.4331	0.067
Mof_H 	H 	0.1193	0.6215	0.4817	0.038
Mof_H 	H 	0.1722	0.529	0.5444	0.012
Mof_H 	H 	0.1868	0.312	0.5468	0.001
Mof_H 	H 	0.1817	0.3543	0.5649	0.066
Mof_H 	H 	0.234	0.362	0.5544	0.037
Mof_H 	H 	0.2925	0.2755	0.5209	0.013
Mof_H 	H 	0.4824	0.1894	0.5074	-0.002
Mof_H 	H 	0.4309	0.1823	0.5169	0.065
Mof_H 	H 	0.3754	0.2302	0.5238	0.038
Mof_H 	H 	0.4283	0.2893	0.5079	0.016
Mof_H 	H 	0.2835	0.4179	0.5083	0.01
Mof_H 	H 	0.3346	0.482	0.4792	0.002
Mof_H 	H 	0.3872	0.4342	0.4826	0.066
Mof_H 	H 	0.3904	0.3756	0.4956	0.038
Mof_H 	H 	0.2615	0.4421	0.5711	-0
Mof_H 	H 	0.2747	0.4331	0.6181	0.067
Mof_H 	H 	0.2775	0.4817	0.6215	0.038
Mof_H 	H 	0.2544	0.5444	0.529	0.012
Mof_H 	H 	0.812	0.6868	0.9544	0.001
Mof_H 	H 	0.8543	0.6817	0.8991	0.066
Mof_H 	H 	0.862	0.734	0.8496	0.037
Mof_H 	H 	0.7755	0.7925	0.9111	0.013
Mof_H 	H 	0.6894	0.9824	0.8208	-0.002
Mof_H 	H 	0.6823	0.9309	0.8699	0.065
Mof_H 	H 	0.7302	0.8754	0.8706	0.038
Mof_H 	H 	0.7893	0.9283	0.7745	0.016
Mof_H 	H 	0.9179	0.7835	0.7903	0.01
Mof_H 	H 	0.982	0.8346	0.7042	0.002
Mof_H 	H 	0.9342	0.8872	0.696	0.066
Mof_H 	H 	0.8756	0.8904	0.7384	0.038
Mof_H 	H 	0.9421	0.7615	0.7253	-0
Mof_H 	H 	0.9331	0.7747	0.6741	0.067
Mof_H 	H 	0.9817	0.7775	0.6193	0.038
Mof_H 	H 	0.0444	0.7544	0.6722	0.012
Mof_H 	H 	0.0468	0.6868	0.312	0.001
Mof_H 	H 	0.0649	0.6817	0.3543	0.066
Mof_H 	H 	0.0544	0.734	0.362	0.037
Mof_H 	H 	0.0209	0.7925	0.2755	0.013
Mof_H 	H 	0.0074	0.9824	0.1894	-0.002
Mof_H 	H 	0.0169	0.9309	0.1823	0.066
Mof_H 	H 	0.0238	0.8754	0.2302	0.038
Mof_H 	H 	0.0079	0.9283	0.2893	0.016
Mof_H 	H 	0.0083	0.7835	0.4179	0.01
Mof_H 	H 	0.9792	0.8346	0.482	0.002
Mof_H 	H 	0.9826	0.8872	0.4342	0.066
Mof_H 	H 	0.9956	0.8904	0.3756	0.038
Mof_H 	H 	0.0711	0.7615	0.4421	-0
Mof_H 	H 	0.1181	0.7747	0.4331	0.067
Mof_H 	H 	0.1215	0.7775	0.4817	0.038
Mof_H 	H 	0.029	0.7544	0.5444	0.012
Mof_H 	H 	0.4544	0.312	0.6868	0.001
Mof_H 	H 	0.3991	0.3543	0.6817	0.066
Mof_H 	H 	0.3496	0.362	0.734	0.037
Mof_H 	H 	0.4111	0.2755	0.7925	0.013
Mof_H 	H 	0.3208	0.1894	0.9824	-0.002
Mof_H 	H 	0.3699	0.1823	0.9309	0.065
Mof_H 	H 	0.3706	0.2302	0.8754	0.038
Mof_H 	H 	0.2745	0.2893	0.9283	0.016
Mof_H 	H 	0.2903	0.4179	0.7835	0.01
Mof_H 	H 	0.2042	0.482	0.8346	0.002
Mof_H 	H 	0.196	0.4342	0.8872	0.066
Mof_H 	H 	0.2384	0.3756	0.8904	0.038
Mof_H 	H 	0.2253	0.4421	0.7615	-0
Mof_H 	H 	0.1741	0.4331	0.7747	0.067
Mof_H 	H 	0.1193	0.4817	0.7775	0.038
Mof_H 	H 	0.1722	0.5444	0.7544	0.012
Mof_H 	H 	0.1868	0.5468	0.9544	0.001
Mof_H 	H 	0.1817	0.5649	0.8991	0.066
Mof_H 	H 	0.234	0.5544	0.8496	0.037
Mof_H 	H 	0.2925	0.5209	0.9111	0.013
Mof_H 	H 	0.4824	0.5074	0.8208	-0.002
Mof_H 	H 	0.4309	0.5169	0.8699	0.065
Mof_H 	H 	0.3754	0.5238	0.8706	0.038
Mof_H 	H 	0.4283	0.5079	0.7745	0.016
Mof_H 	H 	0.2835	0.5083	0.7903	0.01
Mof_H 	H 	0.3346	0.4792	0.7042	0.002
Mof_H 	H 	0.3872	0.4826	0.696	0.066
Mof_H 	H 	0.3904	0.4956	0.7384	0.038
Mof_H 	H 	0.2615	0.5711	0.7253	-0
Mof_H 	H 	0.2747	0.6181	0.6741	0.067
Mof_H 	H 	0.2775	0.6215	0.6193	0.038
Mof_H 	H 	0.2544	0.529	0.6722	0.012
Mof_H 	H 	0.812	0.9544	0.5468	0.001
Mof_H 	H 	0.8543	0.8991	0.5649	0.066
Mof_H 	H 	0.862	0.8496	0.5544	0.037
Mof_H 	H 	0.7755	0.9111	0.5209	0.013
Mof_H 	H 	0.6894	0.8208	0.5074	-0.002
Mof_H 	H 	0.6823	0.8699	0.5169	0.065
Mof_H 	H 	0.7302	0.8706	0.5238	0.038
Mof_H 	H 	0.7893	0.7745	0.5079	0.016
Mof_H 	H 	0.9179	0.7903	0.5083	0.01
Mof_H 	H 	0.982	0.7042	0.4792	0.002
Mof_H 	H 	0.9342	0.696	0.4826	0.066
Mof_H 	H 	0.8756	0.7384	0.4956	0.038
Mof_H 	H 	0.9421	0.7253	0.5711	-0
Mof_H 	H 	0.9331	0.6741	0.6181	0.067
Mof_H 	H 	0.9817	0.6193	0.6215	0.038
Mof_H 	H 	0.0444	0.6722	0.529	0.012
Mof_H 	H 	0.0468	0.312	0.9544	0.001
Mof_H 	H 	0.0649	0.3543	0.8991	0.066
Mof_H 	H 	0.0544	0.362	0.8496	0.037
Mof_H 	H 	0.0209	0.2755	0.9111	0.013
Mof_H 	H 	0.0074	0.1894	0.8208	-0.002
Mof_H 	H 	0.0169	0.1823	0.8699	0.066
Mof_H 	H 	0.0238	0.2302	0.8706	0.038
Mof_H 	H 	0.0079	0.2893	0.7745	0.016
Mof_H 	H 	0.0083	0.4179	0.7903	0.01
Mof_H 	H 	0.9792	0.482	0.7042	0.002
Mof_H 	H 	0.9826	0.4342	0.696	0.066
Mof_H 	H 	0.9956	0.3756	0.7384	0.038
Mof_H 	H 	0.0711	0.4421	0.7253	-0
Mof_H 	H 	0.1181	0.4331	0.6741	0.067
Mof_H 	H 	0.1215	0.4817	0.6193	0.038
Mof_H 	H 	0.029	0.5444	0.6722	0.012
Mof_H 	H 	0.4544	0.6868	0.5468	0.001
Mof_H 	H 	0.3991	0.6817	0.5649	0.066
Mof_H 	H 	0.3496	0.734	0.5544	0.037
Mof_H 	H 	0.4111	0.7925	0.5209	0.013
Mof_H 	H 	0.3208	0.9824	0.5074	-0.002
Mof_H 	H 	0.3699	0.9309	0.5169	0.065
Mof_H 	H 	0.3706	0.8754	0.5238	0.038
Mof_H 	H 	0.2745	0.9283	0.5079	0.016
Mof_H 	H 	0.2903	0.7835	0.5083	0.01
Mof_H 	H 	0.2042	0.8346	0.4792	0.002
Mof_H 	H 	0.196	0.8872	0.4826	0.066
Mof_H 	H 	0.2384	0.8904	0.4956	0.038
Mof_H 	H 	0.2253	0.7615	0.5711	-0
Mof_H 	H 	0.1741	0.7747	0.6181	0.067
Mof_H 	H 	0.1193	0.7775	0.6215	0.038
Mof_H 	H 	0.1722	0.7544	0.529	0.012
Mof_H 	H 	0.1868	0.9544	0.312	0.001
Mof_H 	H 	0.1817	0.8991	0.3543	0.066
Mof_H 	H 	0.234	0.8496	0.362	0.037
Mof_H 	H 	0.2925	0.9111	0.2755	0.013
Mof_H 	H 	0.4824	0.8208	0.1894	-0.002
Mof_H 	H 	0.4309	0.8699	0.1823	0.065
Mof_H 	H 	0.3754	0.8706	0.2302	0.038
Mof_H 	H 	0.4283	0.7745	0.2893	0.016
Mof_H 	H 	0.2835	0.7903	0.4179	0.01
Mof_H 	H 	0.3346	0.7042	0.482	0.002
Mof_H 	H 	0.3872	0.696	0.4342	0.066
Mof_H 	H 	0.3904	0.7384	0.3756	0.038
Mof_H 	H 	0.2615	0.7253	0.4421	-0
Mof_H 	H 	0.2747	0.6741	0.4331	0.067
Mof_H 	H 	0.2775	0.6193	0.4817	0.038
Mof_H 	H 	0.2544	0.6722	0.5444	0.012
Mof_H 	H 	0.812	0.5468	0.6868	0.001
Mof_H 	H 	0.8543	0.5649	0.6817	0.066
Mof_H 	H 	0.862	0.5544	0.734	0.037
Mof_H 	H 	0.7755	0.5209	0.7925	0.013
Mof_H 	H 	0.6894	0.5074	0.9824	-0.002
Mof_H 	H 	0.6823	0.5169	0.9309	0.065
Mof_H 	H 	0.7302	0.5238	0.8754	0.038
Mof_H 	H 	0.7893	0.5079	0.9283	0.016
Mof_H 	H 	0.9179	0.5083	0.7835	0.01
Mof_H 	H 	0.982	0.4792	0.8346	0.002
Mof_H 	H 	0.9342	0.4826	0.8872	0.066
Mof_H 	H 	0.8756	0.4956	0.8904	0.038
Mof_H 	H 	0.9421	0.5711	0.7615	-0
Mof_H 	H 	0.9331	0.6181	0.7747	0.067
Mof_H 	H 	0.9817	0.6215	0.7775	0.038
Mof_H 	H 	0.0444	0.529	0.7544	0.012
Mof_H 	H 	0.0456	0.9532	0.8132	0.001
Mof_H 	H 	0.1009	0.9351	0.8183	0.066
Mof_H 	H 	0.1504	0.9456	0.766	0.037
Mof_H 	H 	0.0889	0.9791	0.7075	0.013
Mof_H 	H 	0.1792	0.9926	0.5176	-0.002
Mof_H 	H 	0.1301	0.9831	0.5691	0.065
Mof_H 	H 	0.1294	0.9762	0.6246	0.038
Mof_H 	H 	0.2255	0.9921	0.5717	0.016
Mof_H 	H 	0.2097	0.9917	0.7165	0.01
Mof_H 	H 	0.2958	0.0208	0.6654	0.002
Mof_H 	H 	0.304	0.0174	0.6128	0.066
Mof_H 	H 	0.2616	0.0044	0.6096	0.038
Mof_H 	H 	0.2747	0.9289	0.7385	-0
Mof_H 	H 	0.3259	0.8819	0.7253	0.067
Mof_H 	H 	0.3807	0.8785	0.7225	0.038
Mof_H 	H 	0.3278	0.971	0.7456	0.012
Mof_H 	H 	0.4532	0.5456	0.188	0.001
Mof_H 	H 	0.4351	0.6009	0.1457	0.066
Mof_H 	H 	0.4456	0.6504	0.138	0.037
Mof_H 	H 	0.4791	0.5889	0.2245	0.013
Mof_H 	H 	0.4926	0.6792	0.3106	-0.002
Mof_H 	H 	0.4831	0.6301	0.3177	0.065
Mof_H 	H 	0.4762	0.6294	0.2698	0.038
Mof_H 	H 	0.4921	0.7255	0.2107	0.016
Mof_H 	H 	0.4917	0.7097	0.0821	0.01
Mof_H 	H 	0.5208	0.7958	0.018	0.002
Mof_H 	H 	0.5174	0.804	0.0658	0.066
Mof_H 	H 	0.5044	0.7616	0.1244	0.038
Mof_H 	H 	0.4289	0.7747	0.0579	-0
Mof_H 	H 	0.3819	0.8259	0.0669	0.067
Mof_H 	H 	0.3785	0.8807	0.0183	0.038
Mof_H 	H 	0.471	0.8278	0.9556	0.012
Mof_H 	H 	0.688	0.8132	0.9532	0.001
Mof_H 	H 	0.6457	0.8183	0.9351	0.066
Mof_H 	H 	0.638	0.766	0.9456	0.037
Mof_H 	H 	0.7245	0.7075	0.9791	0.013
Mof_H 	H 	0.8106	0.5176	0.9926	-0.002
Mof_H 	H 	0.8177	0.5691	0.9831	0.065
Mof_H 	H 	0.7698	0.6246	0.9762	0.038
Mof_H 	H 	0.7107	0.5717	0.9921	0.016
Mof_H 	H 	0.5821	0.7165	0.9917	0.01
Mof_H 	H 	0.518	0.6654	0.0208	0.002
Mof_H 	H 	0.5658	0.6128	0.0174	0.066
Mof_H 	H 	0.6244	0.6096	0.0044	0.038
Mof_H 	H 	0.5579	0.7385	0.9289	-0
Mof_H 	H 	0.5669	0.7253	0.8819	0.067
Mof_H 	H 	0.5183	0.7225	0.8785	0.038
Mof_H 	H 	0.4556	0.7456	0.971	0.012
Mof_H 	H 	0.3132	0.188	0.5456	0.001
Mof_H 	H 	0.3183	0.1457	0.6009	0.066
Mof_H 	H 	0.266	0.138	0.6504	0.037
Mof_H 	H 	0.2075	0.2245	0.5889	0.013
Mof_H 	H 	0.0176	0.3106	0.6792	-0.002
Mof_H 	H 	0.0691	0.3177	0.6301	0.065
Mof_H 	H 	0.1246	0.2698	0.6294	0.038
Mof_H 	H 	0.0717	0.2107	0.7255	0.016
Mof_H 	H 	0.2165	0.0821	0.7097	0.01
Mof_H 	H 	0.1654	0.018	0.7958	0.002
Mof_H 	H 	0.1128	0.0658	0.804	0.066
Mof_H 	H 	0.1096	0.1244	0.7616	0.038
Mof_H 	H 	0.2385	0.0579	0.7747	-0
Mof_H 	H 	0.2253	0.0669	0.8259	0.067
Mof_H 	H 	0.2225	0.0183	0.8807	0.038
Mof_H 	H 	0.2456	0.9556	0.8278	0.012
Mof_H 	H 	0.3132	0.9532	0.188	0.001
Mof_H 	H 	0.3183	0.9351	0.1457	0.066
Mof_H 	H 	0.266	0.9456	0.138	0.037
Mof_H 	H 	0.2075	0.9791	0.2245	0.013
Mof_H 	H 	0.0176	0.9926	0.3106	-0.002
Mof_H 	H 	0.0691	0.9831	0.3177	0.066
Mof_H 	H 	0.1246	0.9762	0.2698	0.038
Mof_H 	H 	0.0717	0.9921	0.2107	0.016
Mof_H 	H 	0.2165	0.9917	0.0821	0.01
Mof_H 	H 	0.1654	0.0208	0.018	0.002
Mof_H 	H 	0.1128	0.0174	0.0658	0.066
Mof_H 	H 	0.1096	0.0044	0.1244	0.038
Mof_H 	H 	0.2385	0.9289	0.0579	-0
Mof_H 	H 	0.2253	0.8819	0.0669	0.067
Mof_H 	H 	0.2225	0.8785	0.0183	0.038
Mof_H 	H 	0.2456	0.971	0.9556	0.012
Mof_H 	H 	0.688	0.5456	0.8132	0.001
Mof_H 	H 	0.6457	0.6009	0.8183	0.066
Mof_H 	H 	0.638	0.6504	0.766	0.037
Mof_H 	H 	0.7245	0.5889	0.7075	0.013
Mof_H 	H 	0.8106	0.6792	0.5176	-0.002
Mof_H 	H 	0.8177	0.6301	0.5691	0.065
Mof_H 	H 	0.7698	0.6294	0.6246	0.038
Mof_H 	H 	0.7107	0.7255	0.5717	0.016
Mof_H 	H 	0.5821	0.7097	0.7165	0.01
Mof_H 	H 	0.518	0.7958	0.6654	0.002
Mof_H 	H 	0.5658	0.804	0.6128	0.066
Mof_H 	H 	0.6244	0.7616	0.6096	0.038
Mof_H 	H 	0.5579	0.7747	0.7385	-0
Mof_H 	H 	0.5669	0.8259	0.7253	0.067
Mof_H 	H 	0.5183	0.8807	0.7225	0.038
Mof_H 	H 	0.4556	0.8278	0.7456	0.012
Mof_H 	H 	0.4532	0.8132	0.5456	0.001
Mof_H 	H 	0.4351	0.8183	0.6009	0.066
Mof_H 	H 	0.4456	0.766	0.6504	0.037
Mof_H 	H 	0.4791	0.7075	0.5889	0.013
Mof_H 	H 	0.4926	0.5176	0.6792	-0.002
Mof_H 	H 	0.4831	0.5691	0.6301	0.065
Mof_H 	H 	0.4762	0.6246	0.6294	0.038
Mof_H 	H 	0.4921	0.5717	0.7255	0.016
Mof_H 	H 	0.4917	0.7165	0.7097	0.01
Mof_H 	H 	0.5208	0.6654	0.7958	0.002
Mof_H 	H 	0.5174	0.6128	0.804	0.066
Mof_H 	H 	0.5044	0.6096	0.7616	0.038
Mof_H 	H 	0.4289	0.7385	0.7747	-0
Mof_H 	H 	0.3819	0.7253	0.8259	0.067
Mof_H 	H 	0.3785	0.7225	0.8807	0.038
Mof_H 	H 	0.471	0.7456	0.8278	0.012
Mof_H 	H 	0.0456	0.188	0.9532	0.001
Mof_H 	H 	0.1009	0.1457	0.9351	0.066
Mof_H 	H 	0.1504	0.138	0.9456	0.037
Mof_H 	H 	0.0889	0.2245	0.9791	0.013
Mof_H 	H 	0.1792	0.3106	0.9926	-0.002
Mof_H 	H 	0.1301	0.3177	0.9831	0.065
Mof_H 	H 	0.1294	0.2698	0.9762	0.038
Mof_H 	H 	0.2255	0.2107	0.9921	0.016
Mof_H 	H 	0.2097	0.0821	0.9917	0.01
Mof_H 	H 	0.2958	0.018	0.0208	0.002
Mof_H 	H 	0.304	0.0658	0.0174	0.066
Mof_H 	H 	0.2616	0.1244	0.0044	0.038
Mof_H 	H 	0.2747	0.0579	0.9289	-0
Mof_H 	H 	0.3259	0.0669	0.8819	0.067
Mof_H 	H 	0.3807	0.0183	0.8785	0.038
Mof_H 	H 	0.3278	0.9556	0.971	0.012
Mof_H 	H 	0.688	0.9532	0.5456	0.001
Mof_H 	H 	0.6457	0.9351	0.6009	0.066
Mof_H 	H 	0.638	0.9456	0.6504	0.037
Mof_H 	H 	0.7245	0.9791	0.5889	0.013
Mof_H 	H 	0.8106	0.9926	0.6792	-0.002
Mof_H 	H 	0.8177	0.9831	0.6301	0.065
Mof_H 	H 	0.7698	0.9762	0.6294	0.038
Mof_H 	H 	0.7107	0.9921	0.7255	0.016
Mof_H 	H 	0.5821	0.9917	0.7097	0.01
Mof_H 	H 	0.518	0.0208	0.7958	0.002
Mof_H 	H 	0.5658	0.0174	0.804	0.066
Mof_H 	H 	0.6244	0.0044	0.7616	0.038
Mof_H 	H 	0.5579	0.9289	0.7747	-0
Mof_H 	H 	0.5669	0.8819	0.8259	0.067
Mof_H 	H 	0.5183	0.8785	0.8807	0.038
Mof_H 	H 	0.4556	0.971	0.8278	0.012
Mof_H 	H 	0.3132	0.5456	0.9532	0.001
Mof_H 	H 	0.3183	0.6009	0.9351	0.066
Mof_H 	H 	0.266	0.6504	0.9456	0.037
Mof_H 	H 	0.2075	0.5889	0.9791	0.013
Mof_H 	H 	0.0176	0.6792	0.9926	-0.002
Mof_H 	H 	0.0691	0.6301	0.9831	0.066
Mof_H 	H 	0.1246	0.6294	0.9762	0.038
Mof_H 	H 	0.0717	0.7255	0.9921	0.016
Mof_H 	H 	0.2165	0.7097	0.9917	0.01
Mof_H 	H 	0.1654	0.7958	0.0208	0.002
Mof_H 	H 	0.1128	0.804	0.0174	0.066
Mof_H 	H 	0.1096	0.7616	0.0044	0.038
Mof_H 	H 	0.2385	0.7747	0.9289	-0
Mof_H 	H 	0.2253	0.8259	0.8819	0.067
Mof_H 	H 	0.2225	0.8807	0.8785	0.038
Mof_H 	H 	0.2456	0.8278	0.971	0.012
Mof_H 	H 	0.0456	0.8132	0.188	0.001
Mof_H 	H 	0.1009	0.8183	0.1457	0.066
Mof_H 	H 	0.1504	0.766	0.138	0.037
Mof_H 	H 	0.0889	0.7075	0.2245	0.013
Mof_H 	H 	0.1792	0.5176	0.3106	-0.002
Mof_H 	H 	0.1301	0.5691	0.3177	0.065
Mof_H 	H 	0.1294	0.6246	0.2698	0.038
Mof_H 	H 	0.2255	0.5717	0.2107	0.016
Mof_H 	H 	0.2097	0.7165	0.0821	0.01
Mof_H 	H 	0.2958	0.6654	0.018	0.002
Mof_H 	H 	0.304	0.6128	0.0658	0.066
Mof_H 	H 	0.2616	0.6096	0.1244	0.038
Mof_H 	H 	0.2747	0.7385	0.0579	-0
Mof_H 	H 	0.3259	0.7253	0.0669	0.067
Mof_H 	H 	0.3807	0.7225	0.0183	0.038
Mof_H 	H 	0.3278	0.7456	0.9556	0.012
Mof_H 	H 	0.4532	0.188	0.8132	0.001
Mof_H 	H 	0.4351	0.1457	0.8183	0.066
Mof_H 	H 	0.4456	0.138	0.766	0.037
Mof_H 	H 	0.4791	0.2245	0.7075	0.013
Mof_H 	H 	0.4926	0.3106	0.5176	-0.002
Mof_H 	H 	0.4831	0.3177	0.5691	0.065
Mof_H 	H 	0.4762	0.2698	0.6246	0.038
Mof_H 	H 	0.4921	0.2107	0.5717	0.016
Mof_H 	H 	0.4917	0.0821	0.7165	0.01
Mof_H 	H 	0.5208	0.018	0.6654	0.002
Mof_H 	H 	0.5174	0.0658	0.6128	0.066
Mof_H 	H 	0.5044	0.1244	0.6096	0.038
Mof_H 	H 	0.4289	0.0579	0.7385	-0
Mof_H 	H 	0.3819	0.0669	0.7253	0.067
Mof_H 	H 	0.3785	0.0183	0.7225	0.038
Mof_H 	H 	0.471	0.9556	0.7456	0.012
Mof_C 	C 	0.96014	0.97778	0.33582	0.101
Mof_C 	C 	0.95563	0.06597	0.29189	0.058
Mof_C 	C 	0.94545	0.09869	0.29515	-0.1
Mof_C 	C 	0.95054	0.1282	0.26438	0.009
Mof_C 	C 	0.96292	0.1245	0.23134	-0.05
Mof_C 	C 	0.97127	0.09105	0.23033	0.037
Mof_C 	C 	0.99074	0.17884	0.0396	0.061
Mof_C 	C 	0.98472	0.14956	0.07024	-0.099
Mof_C 	C 	0.981	0.14894	0.10294	0.007
Mof_C 	C 	0.98447	0.17761	0.10311	-0.048
Mof_C 	C 	0.99044	0.20568	0.07124	0.035
Mof_C 	C 	0.98168	0.17822	0.13674	0.134
Mof_C 	C 	0.97074	0.15396	0.19686	0.138
Mof_C 	C 	0.98535	0.20421	0.16535	0.134
Mof_C 	C 	0.9953	0.23138	0.16406	-0.051
Mof_C 	C 	0.99704	0.22904	0.1949	0.043
Mof_C 	C 	0.01386	0.2793	0.16514	0.06
Mof_C 	C 	0.01253	0.28389	0.13365	-0.099
Mof_C 	C 	0.00412	0.25946	0.13176	0.008
Mof_C 	C 	0.9458	0.20458	0.29678	0.112
Mof_C 	C 	0.92796	0.29678	0.23712	0.061
Mof_C 	C 	0.89995	0.32683	0.22955	-0.102
Mof_C 	C 	0.89782	0.35918	0.22808	0.009
Mof_C 	C 	0.92419	0.35955	0.23481	-0.051
Mof_C 	C 	0.95253	0.32753	0.24161	0.039
Mof_C 	C 	0.92344	0.3931	0.23356	0.137
Mof_C 	C 	0.47778	0.46014	0.72626	0.101
Mof_C 	C 	0.56597	0.45563	0.68651	0.058
Mof_C 	C 	0.59869	0.44545	0.66071	-0.1
Mof_C 	C 	0.6282	0.45054	0.65688	0.009
Mof_C 	C 	0.6245	0.46292	0.68124	-0.05
Mof_C 	C 	0.59105	0.47127	0.70735	0.037
Mof_C 	C 	0.67884	0.49074	0.79082	0.061
Mof_C 	C 	0.64956	0.48472	0.79548	-0.099
Mof_C 	C 	0.64894	0.481	0.76712	0.007
Mof_C 	C 	0.67761	0.48447	0.73481	-0.048
Mof_C 	C 	0.70568	0.49044	0.73264	0.035
Mof_C 	C 	0.67822	0.48168	0.70336	0.134
Mof_C 	C 	0.65396	0.47074	0.67844	0.138
Mof_C 	C 	0.70421	0.48535	0.64509	0.134
Mof_C 	C 	0.73138	0.4953	0.60926	-0.051
Mof_C 	C 	0.72904	0.49704	0.57902	0.043
Mof_C 	C 	0.7793	0.51386	0.5417	0.06
Mof_C 	C 	0.78389	0.51253	0.56993	-0.099
Mof_C 	C 	0.75946	0.50412	0.60466	0.008
Mof_C 	C 	0.70458	0.4458	0.55284	0.112
Mof_C 	C 	0.79678	0.42796	0.53814	0.061
Mof_C 	C 	0.82683	0.39995	0.54367	-0.102
Mof_C 	C 	0.85918	0.39782	0.51492	0.009
Mof_C 	C 	0.85955	0.42419	0.48145	-0.051
Mof_C 	C 	0.82753	0.45253	0.47833	0.039
Mof_C 	C 	0.8931	0.42344	0.4499	0.137
Mof_C 	C 	0.83582	0.72626	0.46014	0.101
Mof_C 	C 	0.79189	0.68651	0.45563	0.058
Mof_C 	C 	0.79515	0.66071	0.44545	-0.1
Mof_C 	C 	0.76438	0.65688	0.45054	0.009
Mof_C 	C 	0.73134	0.68124	0.46292	-0.05
Mof_C 	C 	0.73033	0.70735	0.47127	0.037
Mof_C 	C 	0.5396	0.79082	0.49074	0.061
Mof_C 	C 	0.57024	0.79548	0.48472	-0.099
Mof_C 	C 	0.60294	0.76712	0.481	0.007
Mof_C 	C 	0.60311	0.73481	0.48447	-0.048
Mof_C 	C 	0.57124	0.73264	0.49044	0.035
Mof_C 	C 	0.63674	0.70336	0.48168	0.134
Mof_C 	C 	0.69686	0.67844	0.47074	0.138
Mof_C 	C 	0.66535	0.64509	0.48535	0.134
Mof_C 	C 	0.66406	0.60926	0.4953	-0.051
Mof_C 	C 	0.6949	0.57902	0.49704	0.043
Mof_C 	C 	0.66514	0.5417	0.51386	0.06
Mof_C 	C 	0.63365	0.56993	0.51253	-0.099
Mof_C 	C 	0.63176	0.60466	0.50412	0.008
Mof_C 	C 	0.79678	0.55284	0.4458	0.112
Mof_C 	C 	0.73712	0.53814	0.42796	0.061
Mof_C 	C 	0.72955	0.54367	0.39995	-0.102
Mof_C 	C 	0.72808	0.51492	0.39782	0.009
Mof_C 	C 	0.73481	0.48145	0.42419	-0.051
Mof_C 	C 	0.74161	0.47833	0.45253	0.039
Mof_C 	C 	0.73356	0.4499	0.42344	0.137
Mof_C 	C 	0.22626	0.33582	0.97778	0.101
Mof_C 	C 	0.18651	0.29189	0.06597	0.058
Mof_C 	C 	0.16071	0.29515	0.09869	-0.1
Mof_C 	C 	0.15688	0.26438	0.1282	0.009
Mof_C 	C 	0.18124	0.23134	0.1245	-0.05
Mof_C 	C 	0.20735	0.23033	0.09105	0.037
Mof_C 	C 	0.29082	0.0396	0.17884	0.061
Mof_C 	C 	0.29548	0.07024	0.14956	-0.099
Mof_C 	C 	0.26712	0.10294	0.14894	0.007
Mof_C 	C 	0.23481	0.10311	0.17761	-0.048
Mof_C 	C 	0.23264	0.07124	0.20568	0.035
Mof_C 	C 	0.20336	0.13674	0.17822	0.134
Mof_C 	C 	0.17844	0.19686	0.15396	0.138
Mof_C 	C 	0.14509	0.16535	0.20421	0.134
Mof_C 	C 	0.10926	0.16406	0.23138	-0.051
Mof_C 	C 	0.07902	0.1949	0.22904	0.043
Mof_C 	C 	0.0417	0.16514	0.2793	0.06
Mof_C 	C 	0.06993	0.13365	0.28389	-0.099
Mof_C 	C 	0.10466	0.13176	0.25946	0.008
Mof_C 	C 	0.05284	0.29678	0.20458	0.112
Mof_C 	C 	0.03814	0.23712	0.29678	0.061
Mof_C 	C 	0.04367	0.22955	0.32683	-0.102
Mof_C 	C 	0.01492	0.22808	0.35918	0.009
Mof_C 	C 	0.98145	0.23481	0.35955	-0.051
Mof_C 	C 	0.97833	0.24161	0.32753	0.039
Mof_C 	C 	0.9499	0.23356	0.3931	0.137
Mof_C 	C 	0.96014	0.33582	0.72626	0.101
Mof_C 	C 	0.95563	0.29189	0.68651	0.058
Mof_C 	C 	0.94545	0.29515	0.66071	-0.1
Mof_C 	C 	0.95054	0.26438	0.65688	0.009
Mof_C 	C 	0.96292	0.23134	0.68124	-0.05
Mof_C 	C 	0.97127	0.23033	0.70735	0.037
Mof_C 	C 	0.99074	0.0396	0.79082	0.061
Mof_C 	C 	0.98472	0.07024	0.79548	-0.099
Mof_C 	C 	0.981	0.10294	0.76712	0.007
Mof_C 	C 	0.98447	0.10311	0.73481	-0.048
Mof_C 	C 	0.99044	0.07124	0.73264	0.035
Mof_C 	C 	0.98168	0.13674	0.70336	0.134
Mof_C 	C 	0.97074	0.19686	0.67844	0.138
Mof_C 	C 	0.98535	0.16535	0.64509	0.134
Mof_C 	C 	0.9953	0.16406	0.60926	-0.051
Mof_C 	C 	0.99704	0.1949	0.57902	0.043
Mof_C 	C 	0.01386	0.16514	0.5417	0.06
Mof_C 	C 	0.01253	0.13365	0.56993	-0.099
Mof_C 	C 	0.00412	0.13176	0.60466	0.008
Mof_C 	C 	0.9458	0.29678	0.55284	0.112
Mof_C 	C 	0.92796	0.23712	0.53814	0.061
Mof_C 	C 	0.89995	0.22955	0.54367	-0.102
Mof_C 	C 	0.89782	0.22808	0.51492	0.009
Mof_C 	C 	0.92419	0.23481	0.48145	-0.051
Mof_C 	C 	0.95253	0.24161	0.47833	0.039
Mof_C 	C 	0.92344	0.23356	0.4499	0.137
Mof_C 	C 	0.47778	0.72626	0.33582	0.101
Mof_C 	C 	0.56597	0.68651	0.29189	0.058
Mof_C 	C 	0.59869	0.66071	0.29515	-0.1
Mof_C 	C 	0.6282	0.65688	0.26438	0.009
Mof_C 	C 	0.6245	0.68124	0.23134	-0.05
Mof_C 	C 	0.59105	0.70735	0.23033	0.037
Mof_C 	C 	0.67884	0.79082	0.0396	0.061
Mof_C 	C 	0.64956	0.79548	0.07024	-0.099
Mof_C 	C 	0.64894	0.76712	0.10294	0.007
Mof_C 	C 	0.67761	0.73481	0.10311	-0.048
Mof_C 	C 	0.70568	0.73264	0.07124	0.035
Mof_C 	C 	0.67822	0.70336	0.13674	0.134
Mof_C 	C 	0.65396	0.67844	0.19686	0.138
Mof_C 	C 	0.70421	0.64509	0.16535	0.134
Mof_C 	C 	0.73138	0.60926	0.16406	-0.051
Mof_C 	C 	0.72904	0.57902	0.1949	0.043
Mof_C 	C 	0.7793	0.5417	0.16514	0.06
Mof_C 	C 	0.78389	0.56993	0.13365	-0.099
Mof_C 	C 	0.75946	0.60466	0.13176	0.008
Mof_C 	C 	0.70458	0.55284	0.29678	0.112
Mof_C 	C 	0.79678	0.53814	0.23712	0.061
Mof_C 	C 	0.82683	0.54367	0.22955	-0.102
Mof_C 	C 	0.85918	0.51492	0.22808	0.009
Mof_C 	C 	0.85955	0.48145	0.23481	-0.051
Mof_C 	C 	0.82753	0.47833	0.24161	0.039
Mof_C 	C 	0.8931	0.4499	0.23356	0.137
Mof_C 	C 	0.83582	0.46014	0.97778	0.101
Mof_C 	C 	0.79189	0.45563	0.06597	0.058
Mof_C 	C 	0.79515	0.44545	0.09869	-0.1
Mof_C 	C 	0.76438	0.45054	0.1282	0.009
Mof_C 	C 	0.73134	0.46292	0.1245	-0.05
Mof_C 	C 	0.73033	0.47127	0.09105	0.037
Mof_C 	C 	0.5396	0.49074	0.17884	0.061
Mof_C 	C 	0.57024	0.48472	0.14956	-0.099
Mof_C 	C 	0.60294	0.481	0.14894	0.007
Mof_C 	C 	0.60311	0.48447	0.17761	-0.048
Mof_C 	C 	0.57124	0.49044	0.20568	0.035
Mof_C 	C 	0.63674	0.48168	0.17822	0.134
Mof_C 	C 	0.69686	0.47074	0.15396	0.138
Mof_C 	C 	0.66535	0.48535	0.20421	0.134
Mof_C 	C 	0.66406	0.4953	0.23138	-0.051
Mof_C 	C 	0.6949	0.49704	0.22904	0.043
Mof_C 	C 	0.66514	0.51386	0.2793	0.06
Mof_C 	C 	0.63365	0.51253	0.28389	-0.099
Mof_C 	C 	0.63176	0.50412	0.25946	0.008
Mof_C 	C 	0.79678	0.4458	0.20458	0.112
Mof_C 	C 	0.73712	0.42796	0.29678	0.061
Mof_C 	C 	0.72955	0.39995	0.32683	-0.102
Mof_C 	C 	0.72808	0.39782	0.35918	0.009
Mof_C 	C 	0.73481	0.42419	0.35955	-0.051
Mof_C 	C 	0.74161	0.45253	0.32753	0.039
Mof_C 	C 	0.73356	0.42344	0.3931	0.137
Mof_C 	C 	0.22626	0.97778	0.46014	0.101
Mof_C 	C 	0.18651	0.06597	0.45563	0.058
Mof_C 	C 	0.16071	0.09869	0.44545	-0.1
Mof_C 	C 	0.15688	0.1282	0.45054	0.009
Mof_C 	C 	0.18124	0.1245	0.46292	-0.05
Mof_C 	C 	0.20735	0.09105	0.47127	0.037
Mof_C 	C 	0.29082	0.17884	0.49074	0.061
Mof_C 	C 	0.29548	0.14956	0.48472	-0.099
Mof_C 	C 	0.26712	0.14894	0.481	0.007
Mof_C 	C 	0.23481	0.17761	0.48447	-0.048
Mof_C 	C 	0.23264	0.20568	0.49044	0.035
Mof_C 	C 	0.20336	0.17822	0.48168	0.134
Mof_C 	C 	0.17844	0.15396	0.47074	0.138
Mof_C 	C 	0.14509	0.20421	0.48535	0.134
Mof_C 	C 	0.10926	0.23138	0.4953	-0.051
Mof_C 	C 	0.07902	0.22904	0.49704	0.043
Mof_C 	C 	0.0417	0.2793	0.51386	0.06
Mof_C 	C 	0.06993	0.28389	0.51253	-0.099
Mof_C 	C 	0.10466	0.25946	0.50412	0.008
Mof_C 	C 	0.05284	0.20458	0.4458	0.112
Mof_C 	C 	0.03814	0.29678	0.42796	0.061
Mof_C 	C 	0.04367	0.32683	0.39995	-0.102
Mof_C 	C 	0.01492	0.35918	0.39782	0.009
Mof_C 	C 	0.98145	0.35955	0.42419	-0.051
Mof_C 	C 	0.97833	0.32753	0.45253	0.039
Mof_C 	C 	0.9499	0.3931	0.42344	0.137
Mof_C 	C 	0.96014	0.72626	0.97778	0.101
Mof_C 	C 	0.95563	0.68651	0.06597	0.058
Mof_C 	C 	0.94545	0.66071	0.09869	-0.1
Mof_C 	C 	0.95054	0.65688	0.1282	0.009
Mof_C 	C 	0.96292	0.68124	0.1245	-0.05
Mof_C 	C 	0.97127	0.70735	0.09105	0.037
Mof_C 	C 	0.99074	0.79082	0.17884	0.061
Mof_C 	C 	0.98472	0.79548	0.14956	-0.099
Mof_C 	C 	0.981	0.76712	0.14894	0.007
Mof_C 	C 	0.98447	0.73481	0.17761	-0.048
Mof_C 	C 	0.99044	0.73264	0.20568	0.035
Mof_C 	C 	0.98168	0.70336	0.17822	0.134
Mof_C 	C 	0.97074	0.67844	0.15396	0.138
Mof_C 	C 	0.98535	0.64509	0.20421	0.134
Mof_C 	C 	0.9953	0.60926	0.23138	-0.051
Mof_C 	C 	0.99704	0.57902	0.22904	0.043
Mof_C 	C 	0.01386	0.5417	0.2793	0.06
Mof_C 	C 	0.01253	0.56993	0.28389	-0.099
Mof_C 	C 	0.00412	0.60466	0.25946	0.008
Mof_C 	C 	0.9458	0.55284	0.20458	0.112
Mof_C 	C 	0.92796	0.53814	0.29678	0.061
Mof_C 	C 	0.89995	0.54367	0.32683	-0.102
Mof_C 	C 	0.89782	0.51492	0.35918	0.009
Mof_C 	C 	0.92419	0.48145	0.35955	-0.051
Mof_C 	C 	0.95253	0.47833	0.32753	0.039
Mof_C 	C 	0.92344	0.4499	0.3931	0.137
Mof_C 	C 	0.47778	0.33582	0.46014	0.101
Mof_C 	C 	0.56597	0.29189	0.45563	0.058
Mof_C 	C 	0.59869	0.29515	0.44545	-0.1
Mof_C 	C 	0.6282	0.26438	0.45054	0.009
Mof_C 	C 	0.6245	0.23134	0.46292	-0.05
Mof_C 	C 	0.59105	0.23033	0.47127	0.037
Mof_C 	C 	0.67884	0.0396	0.49074	0.061
Mof_C 	C 	0.64956	0.07024	0.48472	-0.099
Mof_C 	C 	0.64894	0.10294	0.481	0.007
Mof_C 	C 	0.67761	0.10311	0.48447	-0.048
Mof_C 	C 	0.70568	0.07124	0.49044	0.035
Mof_C 	C 	0.67822	0.13674	0.48168	0.134
Mof_C 	C 	0.65396	0.19686	0.47074	0.138
Mof_C 	C 	0.70421	0.16535	0.48535	0.134
Mof_C 	C 	0.73138	0.16406	0.4953	-0.051
Mof_C 	C 	0.72904	0.1949	0.49704	0.043
Mof_C 	C 	0.7793	0.16514	0.51386	0.06
Mof_C 	C 	0.78389	0.13365	0.51253	-0.099
Mof_C 	C 	0.75946	0.13176	0.50412	0.008
Mof_C 	C 	0.70458	0.29678	0.4458	0.112
Mof_C 	C 	0.79678	0.23712	0.42796	0.061
Mof_C 	C 	0.82683	0.22955	0.39995	-0.102
Mof_C 	C 	0.85918	0.22808	0.39782	0.009
Mof_C 	C 	0.85955	0.23481	0.42419	-0.051
Mof_C 	C 	0.82753	0.24161	0.45253	0.039
Mof_C 	C 	0.8931	0.23356	0.42344	0.137
Mof_C 	C 	0.83582	0.97778	0.72626	0.101
Mof_C 	C 	0.79189	0.06597	0.68651	0.058
Mof_C 	C 	0.79515	0.09869	0.66071	-0.1
Mof_C 	C 	0.76438	0.1282	0.65688	0.009
Mof_C 	C 	0.73134	0.1245	0.68124	-0.05
Mof_C 	C 	0.73033	0.09105	0.70735	0.037
Mof_C 	C 	0.5396	0.17884	0.79082	0.061
Mof_C 	C 	0.57024	0.14956	0.79548	-0.099
Mof_C 	C 	0.60294	0.14894	0.76712	0.007
Mof_C 	C 	0.60311	0.17761	0.73481	-0.048
Mof_C 	C 	0.57124	0.20568	0.73264	0.035
Mof_C 	C 	0.63674	0.17822	0.70336	0.134
Mof_C 	C 	0.69686	0.15396	0.67844	0.138
Mof_C 	C 	0.66535	0.20421	0.64509	0.134
Mof_C 	C 	0.66406	0.23138	0.60926	-0.051
Mof_C 	C 	0.6949	0.22904	0.57902	0.043
Mof_C 	C 	0.66514	0.2793	0.5417	0.06
Mof_C 	C 	0.63365	0.28389	0.56993	-0.099
Mof_C 	C 	0.63176	0.25946	0.60466	0.008
Mof_C 	C 	0.79678	0.20458	0.55284	0.112
Mof_C 	C 	0.73712	0.29678	0.53814	0.061
Mof_C 	C 	0.72955	0.32683	0.54367	-0.102
Mof_C 	C 	0.72808	0.35918	0.51492	0.009
Mof_C 	C 	0.73481	0.35955	0.48145	-0.051
Mof_C 	C 	0.74161	0.32753	0.47833	0.039
Mof_C 	C 	0.73356	0.3931	0.4499	0.137
Mof_C 	C 	0.22626	0.46014	0.33582	0.101
Mof_C 	C 	0.18651	0.45563	0.29189	0.058
Mof_C 	C 	0.16071	0.44545	0.29515	-0.1
Mof_C 	C 	0.15688	0.45054	0.26438	0.009
Mof_C 	C 	0.18124	0.46292	0.23134	-0.05
Mof_C 	C 	0.20735	0.47127	0.23033	0.037
Mof_C 	C 	0.29082	0.49074	0.0396	0.061
Mof_C 	C 	0.29548	0.48472	0.07024	-0.099
Mof_C 	C 	0.26712	0.481	0.10294	0.007
Mof_C 	C 	0.23481	0.48447	0.10311	-0.048
Mof_C 	C 	0.23264	0.49044	0.07124	0.035
Mof_C 	C 	0.20336	0.48168	0.13674	0.134
Mof_C 	C 	0.17844	0.47074	0.19686	0.138
Mof_C 	C 	0.14509	0.48535	0.16535	0.134
Mof_C 	C 	0.10926	0.4953	0.16406	-0.051
Mof_C 	C 	0.07902	0.49704	0.1949	0.043
Mof_C 	C 	0.0417	0.51386	0.16514	0.06
Mof_C 	C 	0.06993	0.51253	0.13365	-0.099
Mof_C 	C 	0.10466	0.50412	0.13176	0.008
Mof_C 	C 	0.05284	0.4458	0.29678	0.112
Mof_C 	C 	0.03814	0.42796	0.23712	0.061
Mof_C 	C 	0.04367	0.39995	0.22955	-0.102
Mof_C 	C 	0.01492	0.39782	0.22808	0.009
Mof_C 	C 	0.98145	0.42419	0.23481	-0.051
Mof_C 	C 	0.97833	0.45253	0.24161	0.039
Mof_C 	C 	0.9499	0.42344	0.23356	0.137
Mof_C 	C 	0.02222	0.03986	0.16418	0.101
Mof_C 	C 	0.93403	0.04437	0.20811	0.058
Mof_C 	C 	0.90131	0.05455	0.20485	-0.1
Mof_C 	C 	0.8718	0.04946	0.23562	0.009
Mof_C 	C 	0.8755	0.03708	0.26866	-0.05
Mof_C 	C 	0.90895	0.02873	0.26967	0.037
Mof_C 	C 	0.82116	0.00926	0.4604	0.061
Mof_C 	C 	0.85044	0.01528	0.42976	-0.099
Mof_C 	C 	0.85106	0.019	0.39706	0.007
Mof_C 	C 	0.82239	0.01553	0.39689	-0.048
Mof_C 	C 	0.79432	0.00956	0.42876	0.035
Mof_C 	C 	0.82178	0.01832	0.36326	0.134
Mof_C 	C 	0.84604	0.02926	0.30314	0.138
Mof_C 	C 	0.79579	0.01465	0.33465	0.134
Mof_C 	C 	0.76862	0.0047	0.33594	-0.051
Mof_C 	C 	0.77096	0.00296	0.3051	0.043
Mof_C 	C 	0.7207	0.98614	0.33486	0.06
Mof_C 	C 	0.71611	0.98747	0.36635	-0.099
Mof_C 	C 	0.74054	0.99588	0.36824	0.008
Mof_C 	C 	0.79542	0.0542	0.20322	0.112
Mof_C 	C 	0.70322	0.07204	0.26288	0.061
Mof_C 	C 	0.67317	0.10005	0.27045	-0.102
Mof_C 	C 	0.64082	0.10218	0.27192	0.009
Mof_C 	C 	0.64045	0.07581	0.26519	-0.051
Mof_C 	C 	0.67247	0.04747	0.25839	0.039
Mof_C 	C 	0.6069	0.07656	0.26644	0.137
Mof_C 	C 	0.53986	0.52222	0.77374	0.101
Mof_C 	C 	0.54437	0.43403	0.81349	0.058
Mof_C 	C 	0.55455	0.40131	0.83929	-0.1
Mof_C 	C 	0.54946	0.3718	0.84312	0.009
Mof_C 	C 	0.53708	0.3755	0.81876	-0.05
Mof_C 	C 	0.52873	0.40895	0.79265	0.037
Mof_C 	C 	0.50926	0.32116	0.70918	0.061
Mof_C 	C 	0.51528	0.35044	0.70452	-0.099
Mof_C 	C 	0.519	0.35106	0.73288	0.007
Mof_C 	C 	0.51553	0.32239	0.76519	-0.048
Mof_C 	C 	0.50956	0.29432	0.76736	0.035
Mof_C 	C 	0.51832	0.32178	0.79664	0.134
Mof_C 	C 	0.52926	0.34604	0.82156	0.138
Mof_C 	C 	0.51465	0.29579	0.85491	0.134
Mof_C 	C 	0.5047	0.26862	0.89074	-0.051
Mof_C 	C 	0.50296	0.27096	0.92098	0.043
Mof_C 	C 	0.48614	0.2207	0.9583	0.06
Mof_C 	C 	0.48747	0.21611	0.93007	-0.099
Mof_C 	C 	0.49588	0.24054	0.89534	0.008
Mof_C 	C 	0.5542	0.29542	0.94716	0.112
Mof_C 	C 	0.57204	0.20322	0.96186	0.061
Mof_C 	C 	0.60005	0.17317	0.95633	-0.102
Mof_C 	C 	0.60218	0.14082	0.98508	0.009
Mof_C 	C 	0.57581	0.14045	0.01855	-0.051
Mof_C 	C 	0.54747	0.17247	0.02167	0.039
Mof_C 	C 	0.57656	0.1069	0.0501	0.137
Mof_C 	C 	0.27374	0.16418	0.03986	0.101
Mof_C 	C 	0.31349	0.20811	0.04437	0.058
Mof_C 	C 	0.33929	0.20485	0.05455	-0.1
Mof_C 	C 	0.34312	0.23562	0.04946	0.009
Mof_C 	C 	0.31876	0.26866	0.03708	-0.05
Mof_C 	C 	0.29265	0.26967	0.02873	0.037
Mof_C 	C 	0.20918	0.4604	0.00926	0.061
Mof_C 	C 	0.20452	0.42976	0.01528	-0.099
Mof_C 	C 	0.23288	0.39706	0.019	0.007
Mof_C 	C 	0.26519	0.39689	0.01553	-0.048
Mof_C 	C 	0.26736	0.42876	0.00956	0.035
Mof_C 	C 	0.29664	0.36326	0.01832	0.134
Mof_C 	C 	0.32156	0.30314	0.02926	0.138
Mof_C 	C 	0.35491	0.33465	0.01465	0.134
Mof_C 	C 	0.39074	0.33594	0.0047	-0.051
Mof_C 	C 	0.42098	0.3051	0.00296	0.043
Mof_C 	C 	0.4583	0.33486	0.98614	0.06
Mof_C 	C 	0.43007	0.36635	0.98747	-0.099
Mof_C 	C 	0.39534	0.36824	0.99588	0.008
Mof_C 	C 	0.44716	0.20322	0.0542	0.112
Mof_C 	C 	0.46186	0.26288	0.07204	0.061
Mof_C 	C 	0.45633	0.27045	0.10005	-0.102
Mof_C 	C 	0.48508	0.27192	0.10218	0.009
Mof_C 	C 	0.51855	0.26519	0.07581	-0.051
Mof_C 	C 	0.52167	0.25839	0.04747	0.039
Mof_C 	C 	0.5501	0.26644	0.07656	0.137
Mof_C 	C 	0.66418	0.77374	0.52222	0.101
Mof_C 	C 	0.70811	0.81349	0.43403	0.058
Mof_C 	C 	0.70485	0.83929	0.40131	-0.1
Mof_C 	C 	0.73562	0.84312	0.3718	0.009
Mof_C 	C 	0.76866	0.81876	0.3755	-0.05
Mof_C 	C 	0.76967	0.79265	0.40895	0.037
Mof_C 	C 	0.9604	0.70918	0.32116	0.061
Mof_C 	C 	0.92976	0.70452	0.35044	-0.099
Mof_C 	C 	0.89706	0.73288	0.35106	0.007
Mof_C 	C 	0.89689	0.76519	0.32239	-0.048
Mof_C 	C 	0.92876	0.76736	0.29432	0.035
Mof_C 	C 	0.86326	0.79664	0.32178	0.134
Mof_C 	C 	0.80314	0.82156	0.34604	0.138
Mof_C 	C 	0.83465	0.85491	0.29579	0.134
Mof_C 	C 	0.83594	0.89074	0.26862	-0.051
Mof_C 	C 	0.8051	0.92098	0.27096	0.043
Mof_C 	C 	0.83486	0.9583	0.2207	0.06
Mof_C 	C 	0.86635	0.93007	0.21611	-0.099
Mof_C 	C 	0.86824	0.89534	0.24054	0.008
Mof_C 	C 	0.70322	0.94716	0.29542	0.112
Mof_C 	C 	0.76288	0.96186	0.20322	0.061
Mof_C 	C 	0.77045	0.95633	0.17317	-0.102
Mof_C 	C 	0.77192	0.98508	0.14082	0.009
Mof_C 	C 	0.76519	0.01855	0.14045	-0.051
Mof_C 	C 	0.75839	0.02167	0.17247	0.039
Mof_C 	C 	0.76644	0.0501	0.1069	0.137
Mof_C 	C 	0.66418	0.03986	0.77374	0.101
Mof_C 	C 	0.70811	0.04437	0.81349	0.058
Mof_C 	C 	0.70485	0.05455	0.83929	-0.1
Mof_C 	C 	0.73562	0.04946	0.84312	0.009
Mof_C 	C 	0.76866	0.03708	0.81876	-0.05
Mof_C 	C 	0.76967	0.02873	0.79265	0.037
Mof_C 	C 	0.9604	0.00926	0.70918	0.061
Mof_C 	C 	0.92976	0.01528	0.70452	-0.099
Mof_C 	C 	0.89706	0.019	0.73288	0.007
Mof_C 	C 	0.89689	0.01553	0.76519	-0.048
Mof_C 	C 	0.92876	0.00956	0.76736	0.035
Mof_C 	C 	0.86326	0.01832	0.79664	0.134
Mof_C 	C 	0.80314	0.02926	0.82156	0.138
Mof_C 	C 	0.83465	0.01465	0.85491	0.134
Mof_C 	C 	0.83594	0.0047	0.89074	-0.051
Mof_C 	C 	0.8051	0.00296	0.92098	0.043
Mof_C 	C 	0.83486	0.98614	0.9583	0.06
Mof_C 	C 	0.86635	0.98747	0.93007	-0.099
Mof_C 	C 	0.86824	0.99588	0.89534	0.008
Mof_C 	C 	0.70322	0.0542	0.94716	0.112
Mof_C 	C 	0.76288	0.07204	0.96186	0.061
Mof_C 	C 	0.77045	0.10005	0.95633	-0.102
Mof_C 	C 	0.77192	0.10218	0.98508	0.009
Mof_C 	C 	0.76519	0.07581	0.01855	-0.051
Mof_C 	C 	0.75839	0.04747	0.02167	0.039
Mof_C 	C 	0.76644	0.07656	0.0501	0.137
Mof_C 	C 	0.27374	0.52222	0.16418	0.101
Mof_C 	C 	0.31349	0.43403	0.20811	0.058
Mof_C 	C 	0.33929	0.40131	0.20485	-0.1
Mof_C 	C 	0.34312	0.3718	0.23562	0.009
Mof_C 	C 	0.31876	0.3755	0.26866	-0.05
Mof_C 	C 	0.29265	0.40895	0.26967	0.037
Mof_C 	C 	0.20918	0.32116	0.4604	0.061
Mof_C 	C 	0.20452	0.35044	0.42976	-0.099
Mof_C 	C 	0.23288	0.35106	0.39706	0.007
Mof_C 	C 	0.26519	0.32239	0.39689	-0.048
Mof_C 	C 	0.26736	0.29432	0.42876	0.035
Mof_C 	C 	0.29664	0.32178	0.36326	0.134
Mof_C 	C 	0.32156	0.34604	0.30314	0.138
Mof_C 	C 	0.35491	0.29579	0.33465	0.134
Mof_C 	C 	0.39074	0.26862	0.33594	-0.051
Mof_C 	C 	0.42098	0.27096	0.3051	0.043
Mof_C 	C 	0.4583	0.2207	0.33486	0.06
Mof_C 	C 	0.43007	0.21611	0.36635	-0.099
Mof_C 	C 	0.39534	0.24054	0.36824	0.008
Mof_C 	C 	0.44716	0.29542	0.20322	0.112
Mof_C 	C 	0.46186	0.20322	0.26288	0.061
Mof_C 	C 	0.45633	0.17317	0.27045	-0.102
Mof_C 	C 	0.48508	0.14082	0.27192	0.009
Mof_C 	C 	0.51855	0.14045	0.26519	-0.051
Mof_C 	C 	0.52167	0.17247	0.25839	0.039
Mof_C 	C 	0.5501	0.1069	0.26644	0.137
Mof_C 	C 	0.53986	0.16418	0.52222	0.101
Mof_C 	C 	0.54437	0.20811	0.43403	0.058
Mof_C 	C 	0.55455	0.20485	0.40131	-0.1
Mof_C 	C 	0.54946	0.23562	0.3718	0.009
Mof_C 	C 	0.53708	0.26866	0.3755	-0.05
Mof_C 	C 	0.52873	0.26967	0.40895	0.037
Mof_C 	C 	0.50926	0.4604	0.32116	0.061
Mof_C 	C 	0.51528	0.42976	0.35044	-0.099
Mof_C 	C 	0.519	0.39706	0.35106	0.007
Mof_C 	C 	0.51553	0.39689	0.32239	-0.048
Mof_C 	C 	0.50956	0.42876	0.29432	0.035
Mof_C 	C 	0.51832	0.36326	0.32178	0.134
Mof_C 	C 	0.52926	0.30314	0.34604	0.138
Mof_C 	C 	0.51465	0.33465	0.29579	0.134
Mof_C 	C 	0.5047	0.33594	0.26862	-0.051
Mof_C 	C 	0.50296	0.3051	0.27096	0.043
Mof_C 	C 	0.48614	0.33486	0.2207	0.06
Mof_C 	C 	0.48747	0.36635	0.21611	-0.099
Mof_C 	C 	0.49588	0.36824	0.24054	0.008
Mof_C 	C 	0.5542	0.20322	0.29542	0.112
Mof_C 	C 	0.57204	0.26288	0.20322	0.061
Mof_C 	C 	0.60005	0.27045	0.17317	-0.102
Mof_C 	C 	0.60218	0.27192	0.14082	0.009
Mof_C 	C 	0.57581	0.26519	0.14045	-0.051
Mof_C 	C 	0.54747	0.25839	0.17247	0.039
Mof_C 	C 	0.57656	0.26644	0.1069	0.137
Mof_C 	C 	0.02222	0.77374	0.03986	0.101
Mof_C 	C 	0.93403	0.81349	0.04437	0.058
Mof_C 	C 	0.90131	0.83929	0.05455	-0.1
Mof_C 	C 	0.8718	0.84312	0.04946	0.009
Mof_C 	C 	0.8755	0.81876	0.03708	-0.05
Mof_C 	C 	0.90895	0.79265	0.02873	0.037
Mof_C 	C 	0.82116	0.70918	0.00926	0.061
Mof_C 	C 	0.85044	0.70452	0.01528	-0.099
Mof_C 	C 	0.85106	0.73288	0.019	0.007
Mof_C 	C 	0.82239	0.76519	0.01553	-0.048
Mof_C 	C 	0.79432	0.76736	0.00956	0.035
Mof_C 	C 	0.82178	0.79664	0.01832	0.134
Mof_C 	C 	0.84604	0.82156	0.02926	0.138
Mof_C 	C 	0.79579	0.85491	0.01465	0.134
Mof_C 	C 	0.76862	0.89074	0.0047	-0.051
Mof_C 	C 	0.77096	0.92098	0.00296	0.043
Mof_C 	C 	0.7207	0.9583	0.98614	0.06
Mof_C 	C 	0.71611	0.93007	0.98747	-0.099
Mof_C 	C 	0.74054	0.89534	0.99588	0.008
Mof_C 	C 	0.79542	0.94716	0.0542	0.112
Mof_C 	C 	0.70322	0.96186	0.07204	0.061
Mof_C 	C 	0.67317	0.95633	0.10005	-0.102
Mof_C 	C 	0.64082	0.98508	0.10218	0.009
Mof_C 	C 	0.64045	0.01855	0.07581	-0.051
Mof_C 	C 	0.67247	0.02167	0.04747	0.039
Mof_C 	C 	0.6069	0.0501	0.07656	0.137
Mof_C 	C 	0.27374	0.03986	0.52222	0.101
Mof_C 	C 	0.31349	0.04437	0.43403	0.058
Mof_C 	C 	0.33929	0.05455	0.40131	-0.1
Mof_C 	C 	0.34312	0.04946	0.3718	0.009
Mof_C 	C 	0.31876	0.03708	0.3755	-0.05
Mof_C 	C 	0.29265	0.02873	0.40895	0.037
Mof_C 	C 	0.20918	0.00926	0.32116	0.061
Mof_C 	C 	0.20452	0.01528	0.35044	-0.099
Mof_C 	C 	0.23288	0.019	0.35106	0.007
Mof_C 	C 	0.26519	0.01553	0.32239	-0.048
Mof_C 	C 	0.26736	0.00956	0.29432	0.035
Mof_C 	C 	0.29664	0.01832	0.32178	0.134
Mof_C 	C 	0.32156	0.02926	0.34604	0.138
Mof_C 	C 	0.35491	0.01465	0.29579	0.134
Mof_C 	C 	0.39074	0.0047	0.26862	-0.051
Mof_C 	C 	0.42098	0.00296	0.27096	0.043
Mof_C 	C 	0.4583	0.98614	0.2207	0.06
Mof_C 	C 	0.43007	0.98747	0.21611	-0.099
Mof_C 	C 	0.39534	0.99588	0.24054	0.008
Mof_C 	C 	0.44716	0.0542	0.29542	0.112
Mof_C 	C 	0.46186	0.07204	0.20322	0.061
Mof_C 	C 	0.45633	0.10005	0.17317	-0.102
Mof_C 	C 	0.48508	0.10218	0.14082	0.009
Mof_C 	C 	0.51855	0.07581	0.14045	-0.051
Mof_C 	C 	0.52167	0.04747	0.17247	0.039
Mof_C 	C 	0.5501	0.07656	0.1069	0.137
Mof_C 	C 	0.66418	0.52222	0.03986	0.101
Mof_C 	C 	0.70811	0.43403	0.04437	0.058
Mof_C 	C 	0.70485	0.40131	0.05455	-0.1
Mof_C 	C 	0.73562	0.3718	0.04946	0.009
Mof_C 	C 	0.76866	0.3755	0.03708	-0.05
Mof_C 	C 	0.76967	0.40895	0.02873	0.037
Mof_C 	C 	0.9604	0.32116	0.00926	0.061
Mof_C 	C 	0.92976	0.35044	0.01528	-0.099
Mof_C 	C 	0.89706	0.35106	0.019	0.007
Mof_C 	C 	0.89689	0.32239	0.01553	-0.048
Mof_C 	C 	0.92876	0.29432	0.00956	0.035
Mof_C 	C 	0.86326	0.32178	0.01832	0.134
Mof_C 	C 	0.80314	0.34604	0.02926	0.138
Mof_C 	C 	0.83465	0.29579	0.01465	0.134
Mof_C 	C 	0.83594	0.26862	0.0047	-0.05
Mof_C 	C 	0.8051	0.27096	0.00296	0.043
Mof_C 	C 	0.83486	0.2207	0.98614	0.06
Mof_C 	C 	0.86635	0.21611	0.98747	-0.099
Mof_C 	C 	0.86824	0.24054	0.99588	0.008
Mof_C 	C 	0.70322	0.29542	0.0542	0.112
Mof_C 	C 	0.76288	0.20322	0.07204	0.061
Mof_C 	C 	0.77045	0.17317	0.10005	-0.102
Mof_C 	C 	0.77192	0.14082	0.10218	0.009
Mof_C 	C 	0.76519	0.14045	0.07581	-0.051
Mof_C 	C 	0.75839	0.17247	0.04747	0.039
Mof_C 	C 	0.76644	0.1069	0.07656	0.137
Mof_C 	C 	0.02222	0.16418	0.77374	0.101
Mof_C 	C 	0.93403	0.20811	0.81349	0.058
Mof_C 	C 	0.90131	0.20485	0.83929	-0.1
Mof_C 	C 	0.8718	0.23562	0.84312	0.009
Mof_C 	C 	0.8755	0.26866	0.81876	-0.05
Mof_C 	C 	0.90895	0.26967	0.79265	0.037
Mof_C 	C 	0.82116	0.4604	0.70918	0.061
Mof_C 	C 	0.85044	0.42976	0.70452	-0.099
Mof_C 	C 	0.85106	0.39706	0.73288	0.007
Mof_C 	C 	0.82239	0.39689	0.76519	-0.048
Mof_C 	C 	0.79432	0.42876	0.76736	0.035
Mof_C 	C 	0.82178	0.36326	0.79664	0.134
Mof_C 	C 	0.84604	0.30314	0.82156	0.138
Mof_C 	C 	0.79579	0.33465	0.85491	0.134
Mof_C 	C 	0.76862	0.33594	0.89074	-0.051
Mof_C 	C 	0.77096	0.3051	0.92098	0.043
Mof_C 	C 	0.7207	0.33486	0.9583	0.06
Mof_C 	C 	0.71611	0.36635	0.93007	-0.099
Mof_C 	C 	0.74054	0.36824	0.89534	0.008
Mof_C 	C 	0.79542	0.20322	0.94716	0.112
Mof_C 	C 	0.70322	0.26288	0.96186	0.061
Mof_C 	C 	0.67317	0.27045	0.95633	-0.102
Mof_C 	C 	0.64082	0.27192	0.98508	0.009
Mof_C 	C 	0.64045	0.26519	0.01855	-0.051
Mof_C 	C 	0.67247	0.25839	0.02167	0.039
Mof_C 	C 	0.6069	0.26644	0.0501	0.137
Mof_C 	C 	0.53986	0.77374	0.16418	0.101
Mof_C 	C 	0.54437	0.81349	0.20811	0.058
Mof_C 	C 	0.55455	0.83929	0.20485	-0.1
Mof_C 	C 	0.54946	0.84312	0.23562	0.009
Mof_C 	C 	0.53708	0.81876	0.26866	-0.05
Mof_C 	C 	0.52873	0.79265	0.26967	0.037
Mof_C 	C 	0.50926	0.70918	0.4604	0.061
Mof_C 	C 	0.51528	0.70452	0.42976	-0.099
Mof_C 	C 	0.519	0.73288	0.39706	0.007
Mof_C 	C 	0.51553	0.76519	0.39689	-0.048
Mof_C 	C 	0.50956	0.76736	0.42876	0.035
Mof_C 	C 	0.51832	0.79664	0.36326	0.134
Mof_C 	C 	0.52926	0.82156	0.30314	0.138
Mof_C 	C 	0.51465	0.85491	0.33465	0.134
Mof_C 	C 	0.5047	0.89074	0.33594	-0.051
Mof_C 	C 	0.50296	0.92098	0.3051	0.043
Mof_C 	C 	0.48614	0.9583	0.33486	0.06
Mof_C 	C 	0.48747	0.93007	0.36635	-0.099
Mof_C 	C 	0.49588	0.89534	0.36824	0.008
Mof_C 	C 	0.5542	0.94716	0.20322	0.112
Mof_C 	C 	0.57204	0.96186	0.26288	0.061
Mof_C 	C 	0.60005	0.95633	0.27045	-0.102
Mof_C 	C 	0.60218	0.98508	0.27192	0.009
Mof_C 	C 	0.57581	0.01855	0.26519	-0.051
Mof_C 	C 	0.54747	0.02167	0.25839	0.039
Mof_C 	C 	0.57656	0.0501	0.26644	0.137
Mof_C 	C 	0.03986	0.02222	0.66418	0.101
Mof_C 	C 	0.04437	0.93403	0.70811	0.058
Mof_C 	C 	0.05455	0.90131	0.70485	-0.1
Mof_C 	C 	0.04946	0.8718	0.73562	0.009
Mof_C 	C 	0.03708	0.8755	0.76866	-0.05
Mof_C 	C 	0.02873	0.90895	0.76967	0.037
Mof_C 	C 	0.00926	0.82116	0.9604	0.061
Mof_C 	C 	0.01528	0.85044	0.92976	-0.099
Mof_C 	C 	0.019	0.85106	0.89706	0.007
Mof_C 	C 	0.01553	0.82239	0.89689	-0.048
Mof_C 	C 	0.00956	0.79432	0.92876	0.035
Mof_C 	C 	0.01832	0.82178	0.86326	0.134
Mof_C 	C 	0.02926	0.84604	0.80314	0.138
Mof_C 	C 	0.01465	0.79579	0.83465	0.134
Mof_C 	C 	0.0047	0.76862	0.83594	-0.051
Mof_C 	C 	0.00296	0.77096	0.8051	0.043
Mof_C 	C 	0.98614	0.7207	0.83486	0.06
Mof_C 	C 	0.98747	0.71611	0.86635	-0.099
Mof_C 	C 	0.99588	0.74054	0.86824	0.008
Mof_C 	C 	0.0542	0.79542	0.70322	0.112
Mof_C 	C 	0.07204	0.70322	0.76288	0.061
Mof_C 	C 	0.10005	0.67317	0.77045	-0.102
Mof_C 	C 	0.10218	0.64082	0.77192	0.009
Mof_C 	C 	0.07581	0.64045	0.76519	-0.051
Mof_C 	C 	0.04747	0.67247	0.75839	0.039
Mof_C 	C 	0.07656	0.6069	0.76644	0.137
Mof_C 	C 	0.52222	0.53986	0.27374	0.101
Mof_C 	C 	0.43403	0.54437	0.31349	0.058
Mof_C 	C 	0.40131	0.55455	0.33929	-0.1
Mof_C 	C 	0.3718	0.54946	0.34312	0.009
Mof_C 	C 	0.3755	0.53708	0.31876	-0.05
Mof_C 	C 	0.40895	0.52873	0.29265	0.037
Mof_C 	C 	0.32116	0.50926	0.20918	0.061
Mof_C 	C 	0.35044	0.51528	0.20452	-0.099
Mof_C 	C 	0.35106	0.519	0.23288	0.007
Mof_C 	C 	0.32239	0.51553	0.26519	-0.048
Mof_C 	C 	0.29432	0.50956	0.26736	0.035
Mof_C 	C 	0.32178	0.51832	0.29664	0.134
Mof_C 	C 	0.34604	0.52926	0.32156	0.138
Mof_C 	C 	0.29579	0.51465	0.35491	0.134
Mof_C 	C 	0.26862	0.5047	0.39074	-0.051
Mof_C 	C 	0.27096	0.50296	0.42098	0.043
Mof_C 	C 	0.2207	0.48614	0.4583	0.06
Mof_C 	C 	0.21611	0.48747	0.43007	-0.099
Mof_C 	C 	0.24054	0.49588	0.39534	0.008
Mof_C 	C 	0.29542	0.5542	0.44716	0.112
Mof_C 	C 	0.20322	0.57204	0.46186	0.061
Mof_C 	C 	0.17317	0.60005	0.45633	-0.102
Mof_C 	C 	0.14082	0.60218	0.48508	0.009
Mof_C 	C 	0.14045	0.57581	0.51855	-0.051
Mof_C 	C 	0.17247	0.54747	0.52167	0.039
Mof_C 	C 	0.1069	0.57656	0.5501	0.137
Mof_C 	C 	0.16418	0.27374	0.53986	0.101
Mof_C 	C 	0.20811	0.31349	0.54437	0.058
Mof_C 	C 	0.20485	0.33929	0.55455	-0.1
Mof_C 	C 	0.23562	0.34312	0.54946	0.009
Mof_C 	C 	0.26866	0.31876	0.53708	-0.05
Mof_C 	C 	0.26967	0.29265	0.52873	0.037
Mof_C 	C 	0.4604	0.20918	0.50926	0.061
Mof_C 	C 	0.42976	0.20452	0.51528	-0.099
Mof_C 	C 	0.39706	0.23288	0.519	0.007
Mof_C 	C 	0.39689	0.26519	0.51553	-0.048
Mof_C 	C 	0.42876	0.26736	0.50956	0.035
Mof_C 	C 	0.36326	0.29664	0.51832	0.134
Mof_C 	C 	0.30314	0.32156	0.52926	0.138
Mof_C 	C 	0.33465	0.35491	0.51465	0.134
Mof_C 	C 	0.33594	0.39074	0.5047	-0.051
Mof_C 	C 	0.3051	0.42098	0.50296	0.043
Mof_C 	C 	0.33486	0.4583	0.48614	0.06
Mof_C 	C 	0.36635	0.43007	0.48747	-0.099
Mof_C 	C 	0.36824	0.39534	0.49588	0.008
Mof_C 	C 	0.20322	0.44716	0.5542	0.112
Mof_C 	C 	0.26288	0.46186	0.57204	0.061
Mof_C 	C 	0.27045	0.45633	0.60005	-0.102
Mof_C 	C 	0.27192	0.48508	0.60218	0.009
Mof_C 	C 	0.26519	0.51855	0.57581	-0.051
Mof_C 	C 	0.25839	0.52167	0.54747	0.039
Mof_C 	C 	0.26644	0.5501	0.57656	0.137
Mof_C 	C 	0.77374	0.66418	0.02222	0.101
Mof_C 	C 	0.81349	0.70811	0.93403	0.058
Mof_C 	C 	0.83929	0.70485	0.90131	-0.1
Mof_C 	C 	0.84312	0.73562	0.8718	0.009
Mof_C 	C 	0.81876	0.76866	0.8755	-0.05
Mof_C 	C 	0.79265	0.76967	0.90895	0.037
Mof_C 	C 	0.70918	0.9604	0.82116	0.061
Mof_C 	C 	0.70452	0.92976	0.85044	-0.099
Mof_C 	C 	0.73288	0.89706	0.85106	0.007
Mof_C 	C 	0.76519	0.89689	0.82239	-0.048
Mof_C 	C 	0.76736	0.92876	0.79432	0.035
Mof_C 	C 	0.79664	0.86326	0.82178	0.134
Mof_C 	C 	0.82156	0.80314	0.84604	0.138
Mof_C 	C 	0.85491	0.83465	0.79579	0.134
Mof_C 	C 	0.89074	0.83594	0.76862	-0.051
Mof_C 	C 	0.92098	0.8051	0.77096	0.043
Mof_C 	C 	0.9583	0.83486	0.7207	0.06
Mof_C 	C 	0.93007	0.86635	0.71611	-0.099
Mof_C 	C 	0.89534	0.86824	0.74054	0.008
Mof_C 	C 	0.94716	0.70322	0.79542	0.112
Mof_C 	C 	0.96186	0.76288	0.70322	0.061
Mof_C 	C 	0.95633	0.77045	0.67317	-0.102
Mof_C 	C 	0.98508	0.77192	0.64082	0.009
Mof_C 	C 	0.01855	0.76519	0.64045	-0.051
Mof_C 	C 	0.02167	0.75839	0.67247	0.039
Mof_C 	C 	0.0501	0.76644	0.6069	0.137
Mof_C 	C 	0.03986	0.66418	0.27374	0.101
Mof_C 	C 	0.04437	0.70811	0.31349	0.058
Mof_C 	C 	0.05455	0.70485	0.33929	-0.1
Mof_C 	C 	0.04946	0.73562	0.34312	0.009
Mof_C 	C 	0.03708	0.76866	0.31876	-0.05
Mof_C 	C 	0.02873	0.76967	0.29265	0.037
Mof_C 	C 	0.00926	0.9604	0.20918	0.061
Mof_C 	C 	0.01528	0.92976	0.20452	-0.099
Mof_C 	C 	0.019	0.89706	0.23288	0.007
Mof_C 	C 	0.01553	0.89689	0.26519	-0.048
Mof_C 	C 	0.00956	0.92876	0.26736	0.035
Mof_C 	C 	0.01832	0.86326	0.29664	0.134
Mof_C 	C 	0.02926	0.80314	0.32156	0.138
Mof_C 	C 	0.01465	0.83465	0.35491	0.134
Mof_C 	C 	0.0047	0.83594	0.39074	-0.051
Mof_C 	C 	0.00296	0.8051	0.42098	0.043
Mof_C 	C 	0.98614	0.83486	0.4583	0.06
Mof_C 	C 	0.98747	0.86635	0.43007	-0.099
Mof_C 	C 	0.99588	0.86824	0.39534	0.008
Mof_C 	C 	0.0542	0.70322	0.44716	0.112
Mof_C 	C 	0.07204	0.76288	0.46186	0.061
Mof_C 	C 	0.10005	0.77045	0.45633	-0.102
Mof_C 	C 	0.10218	0.77192	0.48508	0.009
Mof_C 	C 	0.07581	0.76519	0.51855	-0.051
Mof_C 	C 	0.04747	0.75839	0.52167	0.039
Mof_C 	C 	0.07656	0.76644	0.5501	0.137
Mof_C 	C 	0.52222	0.27374	0.66418	0.101
Mof_C 	C 	0.43403	0.31349	0.70811	0.058
Mof_C 	C 	0.40131	0.33929	0.70485	-0.1
Mof_C 	C 	0.3718	0.34312	0.73562	0.009
Mof_C 	C 	0.3755	0.31876	0.76866	-0.05
Mof_C 	C 	0.40895	0.29265	0.76967	0.037
Mof_C 	C 	0.32116	0.20918	0.9604	0.061
Mof_C 	C 	0.35044	0.20452	0.92976	-0.099
Mof_C 	C 	0.35106	0.23288	0.89706	0.007
Mof_C 	C 	0.32239	0.26519	0.89689	-0.048
Mof_C 	C 	0.29432	0.26736	0.92876	0.035
Mof_C 	C 	0.32178	0.29664	0.86326	0.134
Mof_C 	C 	0.34604	0.32156	0.80314	0.138
Mof_C 	C 	0.29579	0.35491	0.83465	0.134
Mof_C 	C 	0.26862	0.39074	0.83594	-0.051
Mof_C 	C 	0.27096	0.42098	0.8051	0.043
Mof_C 	C 	0.2207	0.4583	0.83486	0.06
Mof_C 	C 	0.21611	0.43007	0.86635	-0.099
Mof_C 	C 	0.24054	0.39534	0.86824	0.008
Mof_C 	C 	0.29542	0.44716	0.70322	0.112
Mof_C 	C 	0.20322	0.46186	0.76288	0.061
Mof_C 	C 	0.17317	0.45633	0.77045	-0.102
Mof_C 	C 	0.14082	0.48508	0.77192	0.009
Mof_C 	C 	0.14045	0.51855	0.76519	-0.051
Mof_C 	C 	0.17247	0.52167	0.75839	0.039
Mof_C 	C 	0.1069	0.5501	0.76644	0.137
Mof_C 	C 	0.16418	0.53986	0.02222	0.101
Mof_C 	C 	0.20811	0.54437	0.93403	0.058
Mof_C 	C 	0.20485	0.55455	0.90131	-0.1
Mof_C 	C 	0.23562	0.54946	0.8718	0.009
Mof_C 	C 	0.26866	0.53708	0.8755	-0.05
Mof_C 	C 	0.26967	0.52873	0.90895	0.037
Mof_C 	C 	0.4604	0.50926	0.82116	0.061
Mof_C 	C 	0.42976	0.51528	0.85044	-0.099
Mof_C 	C 	0.39706	0.519	0.85106	0.007
Mof_C 	C 	0.39689	0.51553	0.82239	-0.048
Mof_C 	C 	0.42876	0.50956	0.79432	0.035
Mof_C 	C 	0.36326	0.51832	0.82178	0.134
Mof_C 	C 	0.30314	0.52926	0.84604	0.138
Mof_C 	C 	0.33465	0.51465	0.79579	0.134
Mof_C 	C 	0.33594	0.5047	0.76862	-0.051
Mof_C 	C 	0.3051	0.50296	0.77096	0.043
Mof_C 	C 	0.33486	0.48614	0.7207	0.06
Mof_C 	C 	0.36635	0.48747	0.71611	-0.099
Mof_C 	C 	0.36824	0.49588	0.74054	0.008
Mof_C 	C 	0.20322	0.5542	0.79542	0.112
Mof_C 	C 	0.26288	0.57204	0.70322	0.061
Mof_C 	C 	0.27045	0.60005	0.67317	-0.102
Mof_C 	C 	0.27192	0.60218	0.64082	0.009
Mof_C 	C 	0.26519	0.57581	0.64045	-0.051
Mof_C 	C 	0.25839	0.54747	0.67247	0.039
Mof_C 	C 	0.26644	0.57656	0.6069	0.137
Mof_C 	C 	0.77374	0.02222	0.53986	0.101
Mof_C 	C 	0.81349	0.93403	0.54437	0.058
Mof_C 	C 	0.83929	0.90131	0.55455	-0.1
Mof_C 	C 	0.84312	0.8718	0.54946	0.009
Mof_C 	C 	0.81876	0.8755	0.53708	-0.05
Mof_C 	C 	0.79265	0.90895	0.52873	0.037
Mof_C 	C 	0.70918	0.82116	0.50926	0.061
Mof_C 	C 	0.70452	0.85044	0.51528	-0.099
Mof_C 	C 	0.73288	0.85106	0.519	0.007
Mof_C 	C 	0.76519	0.82239	0.51553	-0.048
Mof_C 	C 	0.76736	0.79432	0.50956	0.035
Mof_C 	C 	0.79664	0.82178	0.51832	0.134
Mof_C 	C 	0.82156	0.84604	0.52926	0.138
Mof_C 	C 	0.85491	0.79579	0.51465	0.134
Mof_C 	C 	0.89074	0.76862	0.5047	-0.051
Mof_C 	C 	0.92098	0.77096	0.50296	0.043
Mof_C 	C 	0.9583	0.7207	0.48614	0.06
Mof_C 	C 	0.93007	0.71611	0.48747	-0.099
Mof_C 	C 	0.89534	0.74054	0.49588	0.008
Mof_C 	C 	0.94716	0.79542	0.5542	0.112
Mof_C 	C 	0.96186	0.70322	0.57204	0.061
Mof_C 	C 	0.95633	0.67317	0.60005	-0.102
Mof_C 	C 	0.98508	0.64082	0.60218	0.009
Mof_C 	C 	0.01855	0.64045	0.57581	-0.051
Mof_C 	C 	0.02167	0.67247	0.54747	0.039
Mof_C 	C 	0.0501	0.6069	0.57656	0.137
Mof_C 	C 	0.03986	0.27374	0.02222	0.101
Mof_C 	C 	0.04437	0.31349	0.93403	0.058
Mof_C 	C 	0.05455	0.33929	0.90131	-0.1
Mof_C 	C 	0.04946	0.34312	0.8718	0.009
Mof_C 	C 	0.03708	0.31876	0.8755	-0.05
Mof_C 	C 	0.02873	0.29265	0.90895	0.037
Mof_C 	C 	0.00926	0.20918	0.82116	0.061
Mof_C 	C 	0.01528	0.20452	0.85044	-0.099
Mof_C 	C 	0.019	0.23288	0.85106	0.007
Mof_C 	C 	0.01553	0.26519	0.82239	-0.048
Mof_C 	C 	0.00956	0.26736	0.79432	0.035
Mof_C 	C 	0.01832	0.29664	0.82178	0.134
Mof_C 	C 	0.02926	0.32156	0.84604	0.138
Mof_C 	C 	0.01465	0.35491	0.79579	0.134
Mof_C 	C 	0.0047	0.39074	0.76862	-0.051
Mof_C 	C 	0.00296	0.42098	0.77096	0.043
Mof_C 	C 	0.98614	0.4583	0.7207	0.06
Mof_C 	C 	0.98747	0.43007	0.71611	-0.099
Mof_C 	C 	0.99588	0.39534	0.74054	0.008
Mof_C 	C 	0.0542	0.44716	0.79542	0.112
Mof_C 	C 	0.07204	0.46186	0.70322	0.061
Mof_C 	C 	0.10005	0.45633	0.67317	-0.102
Mof_C 	C 	0.10218	0.48508	0.64082	0.009
Mof_C 	C 	0.07581	0.51855	0.64045	-0.051
Mof_C 	C 	0.04747	0.52167	0.67247	0.039
Mof_C 	C 	0.07656	0.5501	0.6069	0.137
Mof_C 	C 	0.52222	0.66418	0.53986	0.101
Mof_C 	C 	0.43403	0.70811	0.54437	0.058
Mof_C 	C 	0.40131	0.70485	0.55455	-0.1
Mof_C 	C 	0.3718	0.73562	0.54946	0.009
Mof_C 	C 	0.3755	0.76866	0.53708	-0.05
Mof_C 	C 	0.40895	0.76967	0.52873	0.037
Mof_C 	C 	0.32116	0.9604	0.50926	0.061
Mof_C 	C 	0.35044	0.92976	0.51528	-0.099
Mof_C 	C 	0.35106	0.89706	0.519	0.007
Mof_C 	C 	0.32239	0.89689	0.51553	-0.048
Mof_C 	C 	0.29432	0.92876	0.50956	0.035
Mof_C 	C 	0.32178	0.86326	0.51832	0.134
Mof_C 	C 	0.34604	0.80314	0.52926	0.138
Mof_C 	C 	0.29579	0.83465	0.51465	0.134
Mof_C 	C 	0.26862	0.83594	0.5047	-0.051
Mof_C 	C 	0.27096	0.8051	0.50296	0.043
Mof_C 	C 	0.2207	0.83486	0.48614	0.06
Mof_C 	C 	0.21611	0.86635	0.48747	-0.099
Mof_C 	C 	0.24054	0.86824	0.49588	0.008
Mof_C 	C 	0.29542	0.70322	0.5542	0.112
Mof_C 	C 	0.20322	0.76288	0.57204	0.061
Mof_C 	C 	0.17317	0.77045	0.60005	-0.102
Mof_C 	C 	0.14082	0.77192	0.60218	0.009
Mof_C 	C 	0.14045	0.76519	0.57581	-0.051
Mof_C 	C 	0.17247	0.75839	0.54747	0.039
Mof_C 	C 	0.1069	0.76644	0.57656	0.137
Mof_C 	C 	0.16418	0.02222	0.27374	0.101
Mof_C 	C 	0.20811	0.93403	0.31349	0.058
Mof_C 	C 	0.20485	0.90131	0.33929	-0.1
Mof_C 	C 	0.23562	0.8718	0.34312	0.009
Mof_C 	C 	0.26866	0.8755	0.31876	-0.05
Mof_C 	C 	0.26967	0.90895	0.29265	0.037
Mof_C 	C 	0.4604	0.82116	0.20918	0.061
Mof_C 	C 	0.42976	0.85044	0.20452	-0.099
Mof_C 	C 	0.39706	0.85106	0.23288	0.007
Mof_C 	C 	0.39689	0.82239	0.26519	-0.048
Mof_C 	C 	0.42876	0.79432	0.26736	0.035
Mof_C 	C 	0.36326	0.82178	0.29664	0.134
Mof_C 	C 	0.30314	0.84604	0.32156	0.138
Mof_C 	C 	0.33465	0.79579	0.35491	0.134
Mof_C 	C 	0.33594	0.76862	0.39074	-0.051
Mof_C 	C 	0.3051	0.77096	0.42098	0.043
Mof_C 	C 	0.33486	0.7207	0.4583	0.06
Mof_C 	C 	0.36635	0.71611	0.43007	-0.099
Mof_C 	C 	0.36824	0.74054	0.39534	0.008
Mof_C 	C 	0.20322	0.79542	0.44716	0.112
Mof_C 	C 	0.26288	0.70322	0.46186	0.061
Mof_C 	C 	0.27045	0.67317	0.45633	-0.102
Mof_C 	C 	0.27192	0.64082	0.48508	0.009
Mof_C 	C 	0.26519	0.64045	0.51855	-0.051
Mof_C 	C 	0.25839	0.67247	0.52167	0.039
Mof_C 	C 	0.26644	0.6069	0.5501	0.137
Mof_C 	C 	0.77374	0.53986	0.66418	0.101
Mof_C 	C 	0.81349	0.54437	0.70811	0.058
Mof_C 	C 	0.83929	0.55455	0.70485	-0.1
Mof_C 	C 	0.84312	0.54946	0.73562	0.009
Mof_C 	C 	0.81876	0.53708	0.76866	-0.05
Mof_C 	C 	0.79265	0.52873	0.76967	0.037
Mof_C 	C 	0.70918	0.50926	0.9604	0.061
Mof_C 	C 	0.70452	0.51528	0.92976	-0.099
Mof_C 	C 	0.73288	0.519	0.89706	0.007
Mof_C 	C 	0.76519	0.51553	0.89689	-0.048
Mof_C 	C 	0.76736	0.50956	0.92876	0.035
Mof_C 	C 	0.79664	0.51832	0.86326	0.134
Mof_C 	C 	0.82156	0.52926	0.80314	0.138
Mof_C 	C 	0.85491	0.51465	0.83465	0.134
Mof_C 	C 	0.89074	0.5047	0.83594	-0.051
Mof_C 	C 	0.92098	0.50296	0.8051	0.043
Mof_C 	C 	0.9583	0.48614	0.83486	0.06
Mof_C 	C 	0.93007	0.48747	0.86635	-0.099
Mof_C 	C 	0.89534	0.49588	0.86824	0.008
Mof_C 	C 	0.94716	0.5542	0.70322	0.112
Mof_C 	C 	0.96186	0.57204	0.76288	0.061
Mof_C 	C 	0.95633	0.60005	0.77045	-0.102
Mof_C 	C 	0.98508	0.60218	0.77192	0.009
Mof_C 	C 	0.01855	0.57581	0.76519	-0.051
Mof_C 	C 	0.02167	0.54747	0.75839	0.039
Mof_C 	C 	0.0501	0.57656	0.76644	0.137
Mof_C 	C 	0.97778	0.96014	0.83582	0.101
Mof_C 	C 	0.06597	0.95563	0.79189	0.058
Mof_C 	C 	0.09869	0.94545	0.79515	-0.1
Mof_C 	C 	0.1282	0.95054	0.76438	0.009
Mof_C 	C 	0.1245	0.96292	0.73134	-0.05
Mof_C 	C 	0.09105	0.97127	0.73033	0.037
Mof_C 	C 	0.17884	0.99074	0.5396	0.061
Mof_C 	C 	0.14956	0.98472	0.57024	-0.099
Mof_C 	C 	0.14894	0.981	0.60294	0.007
Mof_C 	C 	0.17761	0.98447	0.60311	-0.048
Mof_C 	C 	0.20568	0.99044	0.57124	0.035
Mof_C 	C 	0.17822	0.98168	0.63674	0.134
Mof_C 	C 	0.15396	0.97074	0.69686	0.138
Mof_C 	C 	0.20421	0.98535	0.66535	0.134
Mof_C 	C 	0.23138	0.9953	0.66406	-0.051
Mof_C 	C 	0.22904	0.99704	0.6949	0.043
Mof_C 	C 	0.2793	0.01386	0.66514	0.06
Mof_C 	C 	0.28389	0.01253	0.63365	-0.099
Mof_C 	C 	0.25946	0.00412	0.63176	0.008
Mof_C 	C 	0.20458	0.9458	0.79678	0.112
Mof_C 	C 	0.29678	0.92796	0.73712	0.061
Mof_C 	C 	0.32683	0.89995	0.72955	-0.102
Mof_C 	C 	0.35918	0.89782	0.72808	0.009
Mof_C 	C 	0.35955	0.92419	0.73481	-0.051
Mof_C 	C 	0.32753	0.95253	0.74161	0.039
Mof_C 	C 	0.3931	0.92344	0.73356	0.137
Mof_C 	C 	0.46014	0.47778	0.22626	0.101
Mof_C 	C 	0.45563	0.56597	0.18651	0.058
Mof_C 	C 	0.44545	0.59869	0.16071	-0.1
Mof_C 	C 	0.45054	0.6282	0.15688	0.009
Mof_C 	C 	0.46292	0.6245	0.18124	-0.05
Mof_C 	C 	0.47127	0.59105	0.20735	0.037
Mof_C 	C 	0.49074	0.67884	0.29082	0.061
Mof_C 	C 	0.48472	0.64956	0.29548	-0.099
Mof_C 	C 	0.481	0.64894	0.26712	0.007
Mof_C 	C 	0.48447	0.67761	0.23481	-0.048
Mof_C 	C 	0.49044	0.70568	0.23264	0.035
Mof_C 	C 	0.48168	0.67822	0.20336	0.134
Mof_C 	C 	0.47074	0.65396	0.17844	0.138
Mof_C 	C 	0.48535	0.70421	0.14509	0.134
Mof_C 	C 	0.4953	0.73138	0.10926	-0.051
Mof_C 	C 	0.49704	0.72904	0.07902	0.043
Mof_C 	C 	0.51386	0.7793	0.0417	0.06
Mof_C 	C 	0.51253	0.78389	0.06993	-0.099
Mof_C 	C 	0.50412	0.75946	0.10466	0.008
Mof_C 	C 	0.4458	0.70458	0.05284	0.112
Mof_C 	C 	0.42796	0.79678	0.03814	0.061
Mof_C 	C 	0.39995	0.82683	0.04367	-0.102
Mof_C 	C 	0.39782	0.85918	0.01492	0.009
Mof_C 	C 	0.42419	0.85955	0.98145	-0.051
Mof_C 	C 	0.45253	0.82753	0.97833	0.039
Mof_C 	C 	0.42344	0.8931	0.9499	0.137
Mof_C 	C 	0.72626	0.83582	0.96014	0.101
Mof_C 	C 	0.68651	0.79189	0.95563	0.058
Mof_C 	C 	0.66071	0.79515	0.94545	-0.1
Mof_C 	C 	0.65688	0.76438	0.95054	0.009
Mof_C 	C 	0.68124	0.73134	0.96292	-0.05
Mof_C 	C 	0.70735	0.73033	0.97127	0.037
Mof_C 	C 	0.79082	0.5396	0.99074	0.061
Mof_C 	C 	0.79548	0.57024	0.98472	-0.099
Mof_C 	C 	0.76712	0.60294	0.981	0.007
Mof_C 	C 	0.73481	0.60311	0.98447	-0.048
Mof_C 	C 	0.73264	0.57124	0.99044	0.035
Mof_C 	C 	0.70336	0.63674	0.98168	0.134
Mof_C 	C 	0.67844	0.69686	0.97074	0.138
Mof_C 	C 	0.64509	0.66535	0.98535	0.134
Mof_C 	C 	0.60926	0.66406	0.9953	-0.051
Mof_C 	C 	0.57902	0.6949	0.99704	0.043
Mof_C 	C 	0.5417	0.66514	0.01386	0.06
Mof_C 	C 	0.56993	0.63365	0.01253	-0.099
Mof_C 	C 	0.60466	0.63176	0.00412	0.008
Mof_C 	C 	0.55284	0.79678	0.9458	0.112
Mof_C 	C 	0.53814	0.73712	0.92796	0.061
Mof_C 	C 	0.54367	0.72955	0.89995	-0.102
Mof_C 	C 	0.51492	0.72808	0.89782	0.009
Mof_C 	C 	0.48145	0.73481	0.92419	-0.051
Mof_C 	C 	0.47833	0.74161	0.95253	0.039
Mof_C 	C 	0.4499	0.73356	0.92344	0.137
Mof_C 	C 	0.33582	0.22626	0.47778	0.101
Mof_C 	C 	0.29189	0.18651	0.56597	0.058
Mof_C 	C 	0.29515	0.16071	0.59869	-0.1
Mof_C 	C 	0.26438	0.15688	0.6282	0.009
Mof_C 	C 	0.23134	0.18124	0.6245	-0.05
Mof_C 	C 	0.23033	0.20735	0.59105	0.037
Mof_C 	C 	0.0396	0.29082	0.67884	0.061
Mof_C 	C 	0.07024	0.29548	0.64956	-0.099
Mof_C 	C 	0.10294	0.26712	0.64894	0.007
Mof_C 	C 	0.10311	0.23481	0.67761	-0.048
Mof_C 	C 	0.07124	0.23264	0.70568	0.035
Mof_C 	C 	0.13674	0.20336	0.67822	0.134
Mof_C 	C 	0.19686	0.17844	0.65396	0.138
Mof_C 	C 	0.16535	0.14509	0.70421	0.134
Mof_C 	C 	0.16406	0.10926	0.73138	-0.051
Mof_C 	C 	0.1949	0.07902	0.72904	0.043
Mof_C 	C 	0.16514	0.0417	0.7793	0.06
Mof_C 	C 	0.13365	0.06993	0.78389	-0.099
Mof_C 	C 	0.13176	0.10466	0.75946	0.008
Mof_C 	C 	0.29678	0.05284	0.70458	0.112
Mof_C 	C 	0.23712	0.03814	0.79678	0.061
Mof_C 	C 	0.22955	0.04367	0.82683	-0.102
Mof_C 	C 	0.22808	0.01492	0.85918	0.009
Mof_C 	C 	0.23481	0.98145	0.85955	-0.051
Mof_C 	C 	0.24161	0.97833	0.82753	0.039
Mof_C 	C 	0.23356	0.9499	0.8931	0.137
Mof_C 	C 	0.33582	0.96014	0.22626	0.101
Mof_C 	C 	0.29189	0.95563	0.18651	0.058
Mof_C 	C 	0.29515	0.94545	0.16071	-0.1
Mof_C 	C 	0.26438	0.95054	0.15688	0.009
Mof_C 	C 	0.23134	0.96292	0.18124	-0.05
Mof_C 	C 	0.23033	0.97127	0.20735	0.037
Mof_C 	C 	0.0396	0.99074	0.29082	0.061
Mof_C 	C 	0.07024	0.98472	0.29548	-0.099
Mof_C 	C 	0.10294	0.981	0.26712	0.007
Mof_C 	C 	0.10311	0.98447	0.23481	-0.048
Mof_C 	C 	0.07124	0.99044	0.23264	0.035
Mof_C 	C 	0.13674	0.98168	0.20336	0.134
Mof_C 	C 	0.19686	0.97074	0.17844	0.138
Mof_C 	C 	0.16535	0.98535	0.14509	0.134
Mof_C 	C 	0.16406	0.9953	0.10926	-0.051
Mof_C 	C 	0.1949	0.99704	0.07902	0.043
Mof_C 	C 	0.16514	0.01386	0.0417	0.06
Mof_C 	C 	0.13365	0.01253	0.06993	-0.099
Mof_C 	C 	0.13176	0.00412	0.10466	0.008
Mof_C 	C 	0.29678	0.9458	0.05284	0.112
Mof_C 	C 	0.23712	0.92796	0.03814	0.061
Mof_C 	C 	0.22955	0.89995	0.04367	-0.102
Mof_C 	C 	0.22808	0.89782	0.01492	0.009
Mof_C 	C 	0.23481	0.92419	0.98145	-0.051
Mof_C 	C 	0.24161	0.95253	0.97833	0.039
Mof_C 	C 	0.23356	0.92344	0.9499	0.137
Mof_C 	C 	0.72626	0.47778	0.83582	0.101
Mof_C 	C 	0.68651	0.56597	0.79189	0.058
Mof_C 	C 	0.66071	0.59869	0.79515	-0.1
Mof_C 	C 	0.65688	0.6282	0.76438	0.009
Mof_C 	C 	0.68124	0.6245	0.73134	-0.05
Mof_C 	C 	0.70735	0.59105	0.73033	0.037
Mof_C 	C 	0.79082	0.67884	0.5396	0.061
Mof_C 	C 	0.79548	0.64956	0.57024	-0.099
Mof_C 	C 	0.76712	0.64894	0.60294	0.007
Mof_C 	C 	0.73481	0.67761	0.60311	-0.048
Mof_C 	C 	0.73264	0.70568	0.57124	0.035
Mof_C 	C 	0.70336	0.67822	0.63674	0.134
Mof_C 	C 	0.67844	0.65396	0.69686	0.138
Mof_C 	C 	0.64509	0.70421	0.66535	0.134
Mof_C 	C 	0.60926	0.73138	0.66406	-0.051
Mof_C 	C 	0.57902	0.72904	0.6949	0.043
Mof_C 	C 	0.5417	0.7793	0.66514	0.06
Mof_C 	C 	0.56993	0.78389	0.63365	-0.099
Mof_C 	C 	0.60466	0.75946	0.63176	0.008
Mof_C 	C 	0.55284	0.70458	0.79678	0.112
Mof_C 	C 	0.53814	0.79678	0.73712	0.061
Mof_C 	C 	0.54367	0.82683	0.72955	-0.102
Mof_C 	C 	0.51492	0.85918	0.72808	0.009
Mof_C 	C 	0.48145	0.85955	0.73481	-0.051
Mof_C 	C 	0.47833	0.82753	0.74161	0.039
Mof_C 	C 	0.4499	0.8931	0.73356	0.137
Mof_C 	C 	0.46014	0.83582	0.47778	0.101
Mof_C 	C 	0.45563	0.79189	0.56597	0.058
Mof_C 	C 	0.44545	0.79515	0.59869	-0.1
Mof_C 	C 	0.45054	0.76438	0.6282	0.009
Mof_C 	C 	0.46292	0.73134	0.6245	-0.05
Mof_C 	C 	0.47127	0.73033	0.59105	0.037
Mof_C 	C 	0.49074	0.5396	0.67884	0.061
Mof_C 	C 	0.48472	0.57024	0.64956	-0.099
Mof_C 	C 	0.481	0.60294	0.64894	0.007
Mof_C 	C 	0.48447	0.60311	0.67761	-0.048
Mof_C 	C 	0.49044	0.57124	0.70568	0.035
Mof_C 	C 	0.48168	0.63674	0.67822	0.134
Mof_C 	C 	0.47074	0.69686	0.65396	0.138
Mof_C 	C 	0.48535	0.66535	0.70421	0.134
Mof_C 	C 	0.4953	0.66406	0.73138	-0.051
Mof_C 	C 	0.49704	0.6949	0.72904	0.043
Mof_C 	C 	0.51386	0.66514	0.7793	0.06
Mof_C 	C 	0.51253	0.63365	0.78389	-0.099
Mof_C 	C 	0.50412	0.63176	0.75946	0.008
Mof_C 	C 	0.4458	0.79678	0.70458	0.112
Mof_C 	C 	0.42796	0.73712	0.79678	0.061
Mof_C 	C 	0.39995	0.72955	0.82683	-0.102
Mof_C 	C 	0.39782	0.72808	0.85918	0.009
Mof_C 	C 	0.42419	0.73481	0.85955	-0.051
Mof_C 	C 	0.45253	0.74161	0.82753	0.039
Mof_C 	C 	0.42344	0.73356	0.8931	0.137
Mof_C 	C 	0.97778	0.22626	0.96014	0.101
Mof_C 	C 	0.06597	0.18651	0.95563	0.058
Mof_C 	C 	0.09869	0.16071	0.94545	-0.1
Mof_C 	C 	0.1282	0.15688	0.95054	0.009
Mof_C 	C 	0.1245	0.18124	0.96292	-0.05
Mof_C 	C 	0.09105	0.20735	0.97127	0.037
Mof_C 	C 	0.17884	0.29082	0.99074	0.061
Mof_C 	C 	0.14956	0.29548	0.98472	-0.099
Mof_C 	C 	0.14894	0.26712	0.981	0.007
Mof_C 	C 	0.17761	0.23481	0.98447	-0.048
Mof_C 	C 	0.20568	0.23264	0.99044	0.035
Mof_C 	C 	0.17822	0.20336	0.98168	0.134
Mof_C 	C 	0.15396	0.17844	0.97074	0.138
Mof_C 	C 	0.20421	0.14509	0.98535	0.134
Mof_C 	C 	0.23138	0.10926	0.9953	-0.051
Mof_C 	C 	0.22904	0.07902	0.99704	0.043
Mof_C 	C 	0.2793	0.0417	0.01386	0.06
Mof_C 	C 	0.28389	0.06993	0.01253	-0.099
Mof_C 	C 	0.25946	0.10466	0.00412	0.008
Mof_C 	C 	0.20458	0.05284	0.9458	0.112
Mof_C 	C 	0.29678	0.03814	0.92796	0.061
Mof_C 	C 	0.32683	0.04367	0.89995	-0.102
Mof_C 	C 	0.35918	0.01492	0.89782	0.009
Mof_C 	C 	0.35955	0.98145	0.92419	-0.051
Mof_C 	C 	0.32753	0.97833	0.95253	0.039
Mof_C 	C 	0.3931	0.9499	0.92344	0.137
Mof_C 	C 	0.72626	0.96014	0.47778	0.101
Mof_C 	C 	0.68651	0.95563	0.56597	0.058
Mof_C 	C 	0.66071	0.94545	0.59869	-0.1
Mof_C 	C 	0.65688	0.95054	0.6282	0.009
Mof_C 	C 	0.68124	0.96292	0.6245	-0.05
Mof_C 	C 	0.70735	0.97127	0.59105	0.037
Mof_C 	C 	0.79082	0.99074	0.67884	0.061
Mof_C 	C 	0.79548	0.98472	0.64956	-0.099
Mof_C 	C 	0.76712	0.981	0.64894	0.007
Mof_C 	C 	0.73481	0.98447	0.67761	-0.048
Mof_C 	C 	0.73264	0.99044	0.70568	0.035
Mof_C 	C 	0.70336	0.98168	0.67822	0.134
Mof_C 	C 	0.67844	0.97074	0.65396	0.138
Mof_C 	C 	0.64509	0.98535	0.70421	0.134
Mof_C 	C 	0.60926	0.9953	0.73138	-0.051
Mof_C 	C 	0.57902	0.99704	0.72904	0.043
Mof_C 	C 	0.5417	0.01386	0.7793	0.06
Mof_C 	C 	0.56993	0.01253	0.78389	-0.099
Mof_C 	C 	0.60466	0.00412	0.75946	0.008
Mof_C 	C 	0.55284	0.9458	0.70458	0.112
Mof_C 	C 	0.53814	0.92796	0.79678	0.061
Mof_C 	C 	0.54367	0.89995	0.82683	-0.102
Mof_C 	C 	0.51492	0.89782	0.85918	0.009
Mof_C 	C 	0.48145	0.92419	0.85955	-0.051
Mof_C 	C 	0.47833	0.95253	0.82753	0.039
Mof_C 	C 	0.4499	0.92344	0.8931	0.137
Mof_C 	C 	0.33582	0.47778	0.96014	0.101
Mof_C 	C 	0.29189	0.56597	0.95563	0.058
Mof_C 	C 	0.29515	0.59869	0.94545	-0.1
Mof_C 	C 	0.26438	0.6282	0.95054	0.009
Mof_C 	C 	0.23134	0.6245	0.96292	-0.05
Mof_C 	C 	0.23033	0.59105	0.97127	0.037
Mof_C 	C 	0.0396	0.67884	0.99074	0.061
Mof_C 	C 	0.07024	0.64956	0.98472	-0.099
Mof_C 	C 	0.10294	0.64894	0.981	0.007
Mof_C 	C 	0.10311	0.67761	0.98447	-0.048
Mof_C 	C 	0.07124	0.70568	0.99044	0.035
Mof_C 	C 	0.13674	0.67822	0.98168	0.134
Mof_C 	C 	0.19686	0.65396	0.97074	0.138
Mof_C 	C 	0.16535	0.70421	0.98535	0.134
Mof_C 	C 	0.16406	0.73138	0.9953	-0.05
Mof_C 	C 	0.1949	0.72904	0.99704	0.043
Mof_C 	C 	0.16514	0.7793	0.01386	0.06
Mof_C 	C 	0.13365	0.78389	0.01253	-0.099
Mof_C 	C 	0.13176	0.75946	0.00412	0.008
Mof_C 	C 	0.29678	0.70458	0.9458	0.112
Mof_C 	C 	0.23712	0.79678	0.92796	0.061
Mof_C 	C 	0.22955	0.82683	0.89995	-0.102
Mof_C 	C 	0.22808	0.85918	0.89782	0.009
Mof_C 	C 	0.23481	0.85955	0.92419	-0.051
Mof_C 	C 	0.24161	0.82753	0.95253	0.039
Mof_C 	C 	0.23356	0.8931	0.92344	0.137
Mof_C 	C 	0.97778	0.83582	0.22626	0.101
Mof_C 	C 	0.06597	0.79189	0.18651	0.058
Mof_C 	C 	0.09869	0.79515	0.16071	-0.1
Mof_C 	C 	0.1282	0.76438	0.15688	0.009
Mof_C 	C 	0.1245	0.73134	0.18124	-0.05
Mof_C 	C 	0.09105	0.73033	0.20735	0.037
Mof_C 	C 	0.17884	0.5396	0.29082	0.061
Mof_C 	C 	0.14956	0.57024	0.29548	-0.099
Mof_C 	C 	0.14894	0.60294	0.26712	0.007
Mof_C 	C 	0.17761	0.60311	0.23481	-0.048
Mof_C 	C 	0.20568	0.57124	0.23264	0.035
Mof_C 	C 	0.17822	0.63674	0.20336	0.134
Mof_C 	C 	0.15396	0.69686	0.17844	0.138
Mof_C 	C 	0.20421	0.66535	0.14509	0.134
Mof_C 	C 	0.23138	0.66406	0.10926	-0.051
Mof_C 	C 	0.22904	0.6949	0.07902	0.043
Mof_C 	C 	0.2793	0.66514	0.0417	0.06
Mof_C 	C 	0.28389	0.63365	0.06993	-0.099
Mof_C 	C 	0.25946	0.63176	0.10466	0.008
Mof_C 	C 	0.20458	0.79678	0.05284	0.112
Mof_C 	C 	0.29678	0.73712	0.03814	0.061
Mof_C 	C 	0.32683	0.72955	0.04367	-0.102
Mof_C 	C 	0.35918	0.72808	0.01492	0.009
Mof_C 	C 	0.35955	0.73481	0.98145	-0.051
Mof_C 	C 	0.32753	0.74161	0.97833	0.039
Mof_C 	C 	0.3931	0.73356	0.9499	0.137
Mof_C 	C 	0.46014	0.22626	0.83582	0.101
Mof_C 	C 	0.45563	0.18651	0.79189	0.058
Mof_C 	C 	0.44545	0.16071	0.79515	-0.1
Mof_C 	C 	0.45054	0.15688	0.76438	0.009
Mof_C 	C 	0.46292	0.18124	0.73134	-0.05
Mof_C 	C 	0.47127	0.20735	0.73033	0.037
Mof_C 	C 	0.49074	0.29082	0.5396	0.061
Mof_C 	C 	0.48472	0.29548	0.57024	-0.099
Mof_C 	C 	0.481	0.26712	0.60294	0.007
Mof_C 	C 	0.48447	0.23481	0.60311	-0.048
Mof_C 	C 	0.49044	0.23264	0.57124	0.035
Mof_C 	C 	0.48168	0.20336	0.63674	0.134
Mof_C 	C 	0.47074	0.17844	0.69686	0.138
Mof_C 	C 	0.48535	0.14509	0.66535	0.134
Mof_C 	C 	0.4953	0.10926	0.66406	-0.051
Mof_C 	C 	0.49704	0.07902	0.6949	0.043
Mof_C 	C 	0.51386	0.0417	0.66514	0.06
Mof_C 	C 	0.51253	0.06993	0.63365	-0.099
Mof_C 	C 	0.50412	0.10466	0.63176	0.008
Mof_C 	C 	0.4458	0.05284	0.79678	0.112
Mof_C 	C 	0.42796	0.03814	0.73712	0.061
Mof_C 	C 	0.39995	0.04367	0.72955	-0.102
Mof_C 	C 	0.39782	0.01492	0.72808	0.009
Mof_C 	C 	0.42419	0.98145	0.73481	-0.051
Mof_C 	C 	0.45253	0.97833	0.74161	0.039
Mof_C 	C 	0.42344	0.9499	0.73356	0.137
Mof_S 	S 	0.95114	0.968	0.37876	-0.063
Mof_S 	S 	0.91607	0.18383	0.32365	-0.065
Mof_S 	S 	0.468	0.45114	0.7021	-0.063
Mof_S 	S 	0.68383	0.41607	0.57645	-0.065
Mof_S 	S 	0.87876	0.7021	0.45114	-0.063
Mof_S 	S 	0.82365	0.57645	0.41607	-0.065
Mof_S 	S 	0.2021	0.37876	0.968	-0.063
Mof_S 	S 	0.07645	0.32365	0.18383	-0.065
Mof_S 	S 	0.95114	0.37876	0.7021	-0.063
Mof_S 	S 	0.91607	0.32365	0.57645	-0.065
Mof_S 	S 	0.468	0.7021	0.37876	-0.063
Mof_S 	S 	0.68383	0.57645	0.32365	-0.065
Mof_S 	S 	0.87876	0.45114	0.968	-0.063
Mof_S 	S 	0.82365	0.41607	0.18383	-0.065
Mof_S 	S 	0.2021	0.968	0.45114	-0.063
Mof_S 	S 	0.07645	0.18383	0.41607	-0.065
Mof_S 	S 	0.95114	0.7021	0.968	-0.063
Mof_S 	S 	0.91607	0.57645	0.18383	-0.065
Mof_S 	S 	0.468	0.37876	0.45114	-0.063
Mof_S 	S 	0.68383	0.32365	0.41607	-0.065
Mof_S 	S 	0.87876	0.968	0.7021	-0.063
Mof_S 	S 	0.82365	0.18383	0.57645	-0.065
Mof_S 	S 	0.2021	0.45114	0.37876	-0.063
Mof_S 	S 	0.07645	0.41607	0.32365	-0.065
Mof_S 	S 	0.032	0.04886	0.12124	-0.063
Mof_S 	S 	0.81617	0.08393	0.17635	-0.065
Mof_S 	S 	0.54886	0.532	0.7979	-0.063
Mof_S 	S 	0.58393	0.31617	0.92355	-0.065
Mof_S 	S 	0.2979	0.12124	0.04886	-0.063
Mof_S 	S 	0.42355	0.17635	0.08393	-0.065
Mof_S 	S 	0.62124	0.7979	0.532	-0.063
Mof_S 	S 	0.67635	0.92355	0.31617	-0.065
Mof_S 	S 	0.62124	0.04886	0.7979	-0.063
Mof_S 	S 	0.67635	0.08393	0.92355	-0.065
Mof_S 	S 	0.2979	0.532	0.12124	-0.063
Mof_S 	S 	0.42355	0.31617	0.17635	-0.065
Mof_S 	S 	0.54886	0.12124	0.532	-0.063
Mof_S 	S 	0.58393	0.17635	0.31617	-0.065
Mof_S 	S 	0.032	0.7979	0.04886	-0.063
Mof_S 	S 	0.81617	0.92355	0.08393	-0.065
Mof_S 	S 	0.2979	0.04886	0.532	-0.063
Mof_S 	S 	0.42355	0.08393	0.31617	-0.065
Mof_S 	S 	0.62124	0.532	0.04886	-0.063
Mof_S 	S 	0.67635	0.31617	0.08393	-0.065
Mof_S 	S 	0.032	0.12124	0.7979	-0.063
Mof_S 	S 	0.81617	0.17635	0.92355	-0.065
Mof_S 	S 	0.54886	0.7979	0.12124	-0.063
Mof_S 	S 	0.58393	0.92355	0.17635	-0.065
Mof_S 	S 	0.04886	0.032	0.62124	-0.063
Mof_S 	S 	0.08393	0.81617	0.67635	-0.065
Mof_S 	S 	0.532	0.54886	0.2979	-0.063
Mof_S 	S 	0.31617	0.58393	0.42355	-0.065
Mof_S 	S 	0.12124	0.2979	0.54886	-0.063
Mof_S 	S 	0.17635	0.42355	0.58393	-0.065
Mof_S 	S 	0.7979	0.62124	0.032	-0.063
Mof_S 	S 	0.92355	0.67635	0.81617	-0.065
Mof_S 	S 	0.04886	0.62124	0.2979	-0.063
Mof_S 	S 	0.08393	0.67635	0.42355	-0.065
Mof_S 	S 	0.532	0.2979	0.62124	-0.063
Mof_S 	S 	0.31617	0.42355	0.67635	-0.065
Mof_S 	S 	0.12124	0.54886	0.032	-0.063
Mof_S 	S 	0.17635	0.58393	0.81617	-0.065
Mof_S 	S 	0.7979	0.032	0.54886	-0.063
Mof_S 	S 	0.92355	0.81617	0.58393	-0.065
Mof_S 	S 	0.04886	0.2979	0.032	-0.063
Mof_S 	S 	0.08393	0.42355	0.81617	-0.065
Mof_S 	S 	0.532	0.62124	0.54886	-0.063
Mof_S 	S 	0.31617	0.67635	0.58393	-0.065
Mof_S 	S 	0.12124	0.032	0.2979	-0.063
Mof_S 	S 	0.17635	0.81617	0.42355	-0.065
Mof_S 	S 	0.7979	0.54886	0.62124	-0.063
Mof_S 	S 	0.92355	0.58393	0.67635	-0.065
Mof_S 	S 	0.968	0.95114	0.87876	-0.063
Mof_S 	S 	0.18383	0.91607	0.82365	-0.065
Mof_S 	S 	0.45114	0.468	0.2021	-0.063
Mof_S 	S 	0.41607	0.68383	0.07645	-0.065
Mof_S 	S 	0.7021	0.87876	0.95114	-0.063
Mof_S 	S 	0.57645	0.82365	0.91607	-0.065
Mof_S 	S 	0.37876	0.2021	0.468	-0.063
Mof_S 	S 	0.32365	0.07645	0.68383	-0.065
Mof_S 	S 	0.37876	0.95114	0.2021	-0.063
Mof_S 	S 	0.32365	0.91607	0.07645	-0.065
Mof_S 	S 	0.7021	0.468	0.87876	-0.063
Mof_S 	S 	0.57645	0.68383	0.82365	-0.065
Mof_S 	S 	0.45114	0.87876	0.468	-0.063
Mof_S 	S 	0.41607	0.82365	0.68383	-0.065
Mof_S 	S 	0.968	0.2021	0.95114	-0.063
Mof_S 	S 	0.18383	0.07645	0.91607	-0.065
Mof_S 	S 	0.7021	0.95114	0.468	-0.063
Mof_S 	S 	0.57645	0.91607	0.68383	-0.065
Mof_S 	S 	0.37876	0.468	0.95114	-0.063
Mof_S 	S 	0.32365	0.68383	0.91607	-0.065
Mof_S 	S 	0.968	0.87876	0.2021	-0.063
Mof_S 	S 	0.18383	0.82365	0.07645	-0.065
Mof_S 	S 	0.45114	0.2021	0.87876	-0.063
Mof_S 	S 	0.41607	0.07645	0.82365	-0.065
Mof_N 	N 	0.96734	0.98592	0.30524	-0.262
Mof_N 	N 	0.96898	0.06152	0.25964	-0.224
Mof_N 	N 	0.99421	0.20663	0.03921	-0.226
Mof_N 	N 	0.97331	0.15151	0.16721	-0.151
Mof_N 	N 	0.98827	0.20533	0.13383	-0.151
Mof_N 	N 	0.97584	0.17956	0.19754	-0.154
Mof_N 	N 	0.00571	0.25231	0.19589	-0.228
Mof_N 	N 	0.96613	0.21903	0.27857	-0.267
Mof_N 	N 	0.95465	0.29633	0.24281	-0.227
Mof_N 	N 	0.9526	0.3924	0.23426	-0.154
Mof_N 	N 	0.48592	0.46734	0.7415	-0.262
Mof_N 	N 	0.56152	0.46898	0.70986	-0.224
Mof_N 	N 	0.70663	0.49421	0.75995	-0.226
Mof_N 	N 	0.65151	0.47331	0.70797	-0.151
Mof_N 	N 	0.70533	0.48827	0.67257	-0.151
Mof_N 	N 	0.67956	0.47584	0.64706	-0.154
Mof_N 	N 	0.75231	0.50571	0.54609	-0.228
Mof_N 	N 	0.71903	0.46613	0.53627	-0.267
Mof_N 	N 	0.79633	0.45465	0.50621	-0.227
Mof_N 	N 	0.8924	0.4526	0.42074	-0.154
Mof_N 	N 	0.80524	0.7415	0.46734	-0.262
Mof_N 	N 	0.75964	0.70986	0.46898	-0.224
Mof_N 	N 	0.53921	0.75995	0.49421	-0.226
Mof_N 	N 	0.66721	0.70797	0.47331	-0.151
Mof_N 	N 	0.63383	0.67257	0.48827	-0.151
Mof_N 	N 	0.69754	0.64706	0.47584	-0.154
Mof_N 	N 	0.69589	0.54609	0.50571	-0.228
Mof_N 	N 	0.77857	0.53627	0.46613	-0.267
Mof_N 	N 	0.74281	0.50621	0.45465	-0.227
Mof_N 	N 	0.73426	0.42074	0.4526	-0.154
Mof_N 	N 	0.2415	0.30524	0.98592	-0.262
Mof_N 	N 	0.20986	0.25964	0.06152	-0.224
Mof_N 	N 	0.25995	0.03921	0.20663	-0.226
Mof_N 	N 	0.20797	0.16721	0.15151	-0.151
Mof_N 	N 	0.17257	0.13383	0.20533	-0.151
Mof_N 	N 	0.14706	0.19754	0.17956	-0.154
Mof_N 	N 	0.04609	0.19589	0.25231	-0.228
Mof_N 	N 	0.03627	0.27857	0.21903	-0.267
Mof_N 	N 	0.00621	0.24281	0.29633	-0.227
Mof_N 	N 	0.92074	0.23426	0.3924	-0.154
Mof_N 	N 	0.96734	0.30524	0.7415	-0.262
Mof_N 	N 	0.96898	0.25964	0.70986	-0.224
Mof_N 	N 	0.99421	0.03921	0.75995	-0.226
Mof_N 	N 	0.97331	0.16721	0.70797	-0.151
Mof_N 	N 	0.98827	0.13383	0.67257	-0.151
Mof_N 	N 	0.97584	0.19754	0.64706	-0.154
Mof_N 	N 	0.00571	0.19589	0.54609	-0.228
Mof_N 	N 	0.96613	0.27857	0.53627	-0.267
Mof_N 	N 	0.95465	0.24281	0.50621	-0.227
Mof_N 	N 	0.9526	0.23426	0.42074	-0.154
Mof_N 	N 	0.48592	0.7415	0.30524	-0.262
Mof_N 	N 	0.56152	0.70986	0.25964	-0.224
Mof_N 	N 	0.70663	0.75995	0.03921	-0.226
Mof_N 	N 	0.65151	0.70797	0.16721	-0.151
Mof_N 	N 	0.70533	0.67257	0.13383	-0.151
Mof_N 	N 	0.67956	0.64706	0.19754	-0.154
Mof_N 	N 	0.75231	0.54609	0.19589	-0.228
Mof_N 	N 	0.71903	0.53627	0.27857	-0.267
Mof_N 	N 	0.79633	0.50621	0.24281	-0.227
Mof_N 	N 	0.8924	0.42074	0.23426	-0.154
Mof_N 	N 	0.80524	0.46734	0.98592	-0.262
Mof_N 	N 	0.75964	0.46898	0.06152	-0.224
Mof_N 	N 	0.53921	0.49421	0.20663	-0.226
Mof_N 	N 	0.66721	0.47331	0.15151	-0.151
Mof_N 	N 	0.63383	0.48827	0.20533	-0.151
Mof_N 	N 	0.69754	0.47584	0.17956	-0.154
Mof_N 	N 	0.69589	0.50571	0.25231	-0.228
Mof_N 	N 	0.77857	0.46613	0.21903	-0.267
Mof_N 	N 	0.74281	0.45465	0.29633	-0.227
Mof_N 	N 	0.73426	0.4526	0.3924	-0.154
Mof_N 	N 	0.2415	0.98592	0.46734	-0.262
Mof_N 	N 	0.20986	0.06152	0.46898	-0.224
Mof_N 	N 	0.25995	0.20663	0.49421	-0.226
Mof_N 	N 	0.20797	0.15151	0.47331	-0.151
Mof_N 	N 	0.17257	0.20533	0.48827	-0.151
Mof_N 	N 	0.14706	0.17956	0.47584	-0.154
Mof_N 	N 	0.04609	0.25231	0.50571	-0.228
Mof_N 	N 	0.03627	0.21903	0.46613	-0.267
Mof_N 	N 	0.00621	0.29633	0.45465	-0.227
Mof_N 	N 	0.92074	0.3924	0.4526	-0.154
Mof_N 	N 	0.96734	0.7415	0.98592	-0.262
Mof_N 	N 	0.96898	0.70986	0.06152	-0.224
Mof_N 	N 	0.99421	0.75995	0.20663	-0.226
Mof_N 	N 	0.97331	0.70797	0.15151	-0.151
Mof_N 	N 	0.98827	0.67257	0.20533	-0.151
Mof_N 	N 	0.97584	0.64706	0.17956	-0.154
Mof_N 	N 	0.00571	0.54609	0.25231	-0.228
Mof_N 	N 	0.96613	0.53627	0.21903	-0.267
Mof_N 	N 	0.95465	0.50621	0.29633	-0.227
Mof_N 	N 	0.9526	0.42074	0.3924	-0.154
Mof_N 	N 	0.48592	0.30524	0.46734	-0.262
Mof_N 	N 	0.56152	0.25964	0.46898	-0.224
Mof_N 	N 	0.70663	0.03921	0.49421	-0.226
Mof_N 	N 	0.65151	0.16721	0.47331	-0.151
Mof_N 	N 	0.70533	0.13383	0.48827	-0.151
Mof_N 	N 	0.67956	0.19754	0.47584	-0.154
Mof_N 	N 	0.75231	0.19589	0.50571	-0.228
Mof_N 	N 	0.71903	0.27857	0.46613	-0.267
Mof_N 	N 	0.79633	0.24281	0.45465	-0.227
Mof_N 	N 	0.8924	0.23426	0.4526	-0.154
Mof_N 	N 	0.80524	0.98592	0.7415	-0.262
Mof_N 	N 	0.75964	0.06152	0.70986	-0.224
Mof_N 	N 	0.53921	0.20663	0.75995	-0.226
Mof_N 	N 	0.66721	0.15151	0.70797	-0.151
Mof_N 	N 	0.63383	0.20533	0.67257	-0.151
Mof_N 	N 	0.69754	0.17956	0.64706	-0.154
Mof_N 	N 	0.69589	0.25231	0.54609	-0.228
Mof_N 	N 	0.77857	0.21903	0.53627	-0.267
Mof_N 	N 	0.74281	0.29633	0.50621	-0.227
Mof_N 	N 	0.73426	0.3924	0.42074	-0.154
Mof_N 	N 	0.2415	0.46734	0.30524	-0.262
Mof_N 	N 	0.20986	0.46898	0.25964	-0.224
Mof_N 	N 	0.25995	0.49421	0.03921	-0.226
Mof_N 	N 	0.20797	0.47331	0.16721	-0.151
Mof_N 	N 	0.17257	0.48827	0.13383	-0.151
Mof_N 	N 	0.14706	0.47584	0.19754	-0.154
Mof_N 	N 	0.04609	0.50571	0.19589	-0.228
Mof_N 	N 	0.03627	0.46613	0.27857	-0.267
Mof_N 	N 	0.00621	0.45465	0.24281	-0.227
Mof_N 	N 	0.92074	0.4526	0.23426	-0.154
Mof_N 	N 	0.01408	0.03266	0.19476	-0.262
Mof_N 	N 	0.93848	0.03102	0.24036	-0.224
Mof_N 	N 	0.79337	0.00579	0.46079	-0.226
Mof_N 	N 	0.84849	0.02669	0.33279	-0.151
Mof_N 	N 	0.79467	0.01173	0.36617	-0.151
Mof_N 	N 	0.82044	0.02416	0.30246	-0.154
Mof_N 	N 	0.74769	0.99429	0.30411	-0.228
Mof_N 	N 	0.78097	0.03387	0.22143	-0.267
Mof_N 	N 	0.70367	0.04535	0.25719	-0.227
Mof_N 	N 	0.6076	0.0474	0.26574	-0.154
Mof_N 	N 	0.53266	0.51408	0.7585	-0.262
Mof_N 	N 	0.53102	0.43848	0.79014	-0.224
Mof_N 	N 	0.50579	0.29337	0.74005	-0.226
Mof_N 	N 	0.52669	0.34849	0.79203	-0.151
Mof_N 	N 	0.51173	0.29467	0.82743	-0.151
Mof_N 	N 	0.52416	0.32044	0.85294	-0.154
Mof_N 	N 	0.49429	0.24769	0.95391	-0.228
Mof_N 	N 	0.53387	0.28097	0.96373	-0.267
Mof_N 	N 	0.54535	0.20367	0.99379	-0.227
Mof_N 	N 	0.5474	0.1076	0.07926	-0.154
Mof_N 	N 	0.2585	0.19476	0.03266	-0.262
Mof_N 	N 	0.29014	0.24036	0.03102	-0.224
Mof_N 	N 	0.24005	0.46079	0.00579	-0.226
Mof_N 	N 	0.29203	0.33279	0.02669	-0.151
Mof_N 	N 	0.32743	0.36617	0.01173	-0.151
Mof_N 	N 	0.35294	0.30246	0.02416	-0.154
Mof_N 	N 	0.45391	0.30411	0.99429	-0.228
Mof_N 	N 	0.46373	0.22143	0.03387	-0.267
Mof_N 	N 	0.49379	0.25719	0.04535	-0.227
Mof_N 	N 	0.57926	0.26574	0.0474	-0.154
Mof_N 	N 	0.69476	0.7585	0.51408	-0.262
Mof_N 	N 	0.74036	0.79014	0.43848	-0.224
Mof_N 	N 	0.96079	0.74005	0.29337	-0.226
Mof_N 	N 	0.83279	0.79203	0.34849	-0.151
Mof_N 	N 	0.86617	0.82743	0.29467	-0.151
Mof_N 	N 	0.80246	0.85294	0.32044	-0.154
Mof_N 	N 	0.80411	0.95391	0.24769	-0.228
Mof_N 	N 	0.72143	0.96373	0.28097	-0.267
Mof_N 	N 	0.75719	0.99379	0.20367	-0.227
Mof_N 	N 	0.76574	0.07926	0.1076	-0.154
Mof_N 	N 	0.69476	0.03266	0.7585	-0.262
Mof_N 	N 	0.74036	0.03102	0.79014	-0.224
Mof_N 	N 	0.96079	0.00579	0.74005	-0.226
Mof_N 	N 	0.83279	0.02669	0.79203	-0.151
Mof_N 	N 	0.86617	0.01173	0.82743	-0.151
Mof_N 	N 	0.80246	0.02416	0.85294	-0.154
Mof_N 	N 	0.80411	0.99429	0.95391	-0.228
Mof_N 	N 	0.72143	0.03387	0.96373	-0.267
Mof_N 	N 	0.75719	0.04535	0.99379	-0.227
Mof_N 	N 	0.76574	0.0474	0.07926	-0.154
Mof_N 	N 	0.2585	0.51408	0.19476	-0.262
Mof_N 	N 	0.29014	0.43848	0.24036	-0.224
Mof_N 	N 	0.24005	0.29337	0.46079	-0.226
Mof_N 	N 	0.29203	0.34849	0.33279	-0.151
Mof_N 	N 	0.32743	0.29467	0.36617	-0.151
Mof_N 	N 	0.35294	0.32044	0.30246	-0.154
Mof_N 	N 	0.45391	0.24769	0.30411	-0.228
Mof_N 	N 	0.46373	0.28097	0.22143	-0.267
Mof_N 	N 	0.49379	0.20367	0.25719	-0.227
Mof_N 	N 	0.57926	0.1076	0.26574	-0.154
Mof_N 	N 	0.53266	0.19476	0.51408	-0.262
Mof_N 	N 	0.53102	0.24036	0.43848	-0.224
Mof_N 	N 	0.50579	0.46079	0.29337	-0.226
Mof_N 	N 	0.52669	0.33279	0.34849	-0.151
Mof_N 	N 	0.51173	0.36617	0.29467	-0.151
Mof_N 	N 	0.52416	0.30246	0.32044	-0.154
Mof_N 	N 	0.49429	0.30411	0.24769	-0.228
Mof_N 	N 	0.53387	0.22143	0.28097	-0.267
Mof_N 	N 	0.54535	0.25719	0.20367	-0.227
Mof_N 	N 	0.5474	0.26574	0.1076	-0.154
Mof_N 	N 	0.01408	0.7585	0.03266	-0.262
Mof_N 	N 	0.93848	0.79014	0.03102	-0.224
Mof_N 	N 	0.79337	0.74005	0.00579	-0.226
Mof_N 	N 	0.84849	0.79203	0.02669	-0.151
Mof_N 	N 	0.79467	0.82743	0.01173	-0.151
Mof_N 	N 	0.82044	0.85294	0.02416	-0.154
Mof_N 	N 	0.74769	0.95391	0.99429	-0.228
Mof_N 	N 	0.78097	0.96373	0.03387	-0.267
Mof_N 	N 	0.70367	0.99379	0.04535	-0.227
Mof_N 	N 	0.6076	0.07926	0.0474	-0.154
Mof_N 	N 	0.2585	0.03266	0.51408	-0.262
Mof_N 	N 	0.29014	0.03102	0.43848	-0.224
Mof_N 	N 	0.24005	0.00579	0.29337	-0.226
Mof_N 	N 	0.29203	0.02669	0.34849	-0.151
Mof_N 	N 	0.32743	0.01173	0.29467	-0.151
Mof_N 	N 	0.35294	0.02416	0.32044	-0.154
Mof_N 	N 	0.45391	0.99429	0.24769	-0.228
Mof_N 	N 	0.46373	0.03387	0.28097	-0.267
Mof_N 	N 	0.49379	0.04535	0.20367	-0.227
Mof_N 	N 	0.57926	0.0474	0.1076	-0.154
Mof_N 	N 	0.69476	0.51408	0.03266	-0.262
Mof_N 	N 	0.74036	0.43848	0.03102	-0.224
Mof_N 	N 	0.96079	0.29337	0.00579	-0.226
Mof_N 	N 	0.83279	0.34849	0.02669	-0.151
Mof_N 	N 	0.86617	0.29467	0.01173	-0.151
Mof_N 	N 	0.80246	0.32044	0.02416	-0.154
Mof_N 	N 	0.80411	0.24769	0.99429	-0.228
Mof_N 	N 	0.72143	0.28097	0.03387	-0.267
Mof_N 	N 	0.75719	0.20367	0.04535	-0.227
Mof_N 	N 	0.76574	0.1076	0.0474	-0.154
Mof_N 	N 	0.01408	0.19476	0.7585	-0.262
Mof_N 	N 	0.93848	0.24036	0.79014	-0.224
Mof_N 	N 	0.79337	0.46079	0.74005	-0.226
Mof_N 	N 	0.84849	0.33279	0.79203	-0.151
Mof_N 	N 	0.79467	0.36617	0.82743	-0.151
Mof_N 	N 	0.82044	0.30246	0.85294	-0.154
Mof_N 	N 	0.74769	0.30411	0.95391	-0.228
Mof_N 	N 	0.78097	0.22143	0.96373	-0.267
Mof_N 	N 	0.70367	0.25719	0.99379	-0.227
Mof_N 	N 	0.6076	0.26574	0.07926	-0.154
Mof_N 	N 	0.53266	0.7585	0.19476	-0.262
Mof_N 	N 	0.53102	0.79014	0.24036	-0.224
Mof_N 	N 	0.50579	0.74005	0.46079	-0.226
Mof_N 	N 	0.52669	0.79203	0.33279	-0.151
Mof_N 	N 	0.51173	0.82743	0.36617	-0.151
Mof_N 	N 	0.52416	0.85294	0.30246	-0.154
Mof_N 	N 	0.49429	0.95391	0.30411	-0.228
Mof_N 	N 	0.53387	0.96373	0.22143	-0.267
Mof_N 	N 	0.54535	0.99379	0.25719	-0.227
Mof_N 	N 	0.5474	0.07926	0.26574	-0.154
Mof_N 	N 	0.03266	0.01408	0.69476	-0.262
Mof_N 	N 	0.03102	0.93848	0.74036	-0.224
Mof_N 	N 	0.00579	0.79337	0.96079	-0.226
Mof_N 	N 	0.02669	0.84849	0.83279	-0.151
Mof_N 	N 	0.01173	0.79467	0.86617	-0.151
Mof_N 	N 	0.02416	0.82044	0.80246	-0.154
Mof_N 	N 	0.99429	0.74769	0.80411	-0.228
Mof_N 	N 	0.03387	0.78097	0.72143	-0.267
Mof_N 	N 	0.04535	0.70367	0.75719	-0.227
Mof_N 	N 	0.0474	0.6076	0.76574	-0.154
Mof_N 	N 	0.51408	0.53266	0.2585	-0.262
Mof_N 	N 	0.43848	0.53102	0.29014	-0.224
Mof_N 	N 	0.29337	0.50579	0.24005	-0.226
Mof_N 	N 	0.34849	0.52669	0.29203	-0.151
Mof_N 	N 	0.29467	0.51173	0.32743	-0.151
Mof_N 	N 	0.32044	0.52416	0.35294	-0.154
Mof_N 	N 	0.24769	0.49429	0.45391	-0.228
Mof_N 	N 	0.28097	0.53387	0.46373	-0.267
Mof_N 	N 	0.20367	0.54535	0.49379	-0.227
Mof_N 	N 	0.1076	0.5474	0.57926	-0.154
Mof_N 	N 	0.19476	0.2585	0.53266	-0.262
Mof_N 	N 	0.24036	0.29014	0.53102	-0.224
Mof_N 	N 	0.46079	0.24005	0.50579	-0.226
Mof_N 	N 	0.33279	0.29203	0.52669	-0.151
Mof_N 	N 	0.36617	0.32743	0.51173	-0.151
Mof_N 	N 	0.30246	0.35294	0.52416	-0.154
Mof_N 	N 	0.30411	0.45391	0.49429	-0.228
Mof_N 	N 	0.22143	0.46373	0.53387	-0.267
Mof_N 	N 	0.25719	0.49379	0.54535	-0.227
Mof_N 	N 	0.26574	0.57926	0.5474	-0.154
Mof_N 	N 	0.7585	0.69476	0.01408	-0.262
Mof_N 	N 	0.79014	0.74036	0.93848	-0.224
Mof_N 	N 	0.74005	0.96079	0.79337	-0.226
Mof_N 	N 	0.79203	0.83279	0.84849	-0.151
Mof_N 	N 	0.82743	0.86617	0.79467	-0.151
Mof_N 	N 	0.85294	0.80246	0.82044	-0.154
Mof_N 	N 	0.95391	0.80411	0.74769	-0.228
Mof_N 	N 	0.96373	0.72143	0.78097	-0.267
Mof_N 	N 	0.99379	0.75719	0.70367	-0.227
Mof_N 	N 	0.07926	0.76574	0.6076	-0.154
Mof_N 	N 	0.03266	0.69476	0.2585	-0.262
Mof_N 	N 	0.03102	0.74036	0.29014	-0.224
Mof_N 	N 	0.00579	0.96079	0.24005	-0.226
Mof_N 	N 	0.02669	0.83279	0.29203	-0.151
Mof_N 	N 	0.01173	0.86617	0.32743	-0.151
Mof_N 	N 	0.02416	0.80246	0.35294	-0.154
Mof_N 	N 	0.99429	0.80411	0.45391	-0.228
Mof_N 	N 	0.03387	0.72143	0.46373	-0.267
Mof_N 	N 	0.04535	0.75719	0.49379	-0.227
Mof_N 	N 	0.0474	0.76574	0.57926	-0.154
Mof_N 	N 	0.51408	0.2585	0.69476	-0.262
Mof_N 	N 	0.43848	0.29014	0.74036	-0.224
Mof_N 	N 	0.29337	0.24005	0.96079	-0.226
Mof_N 	N 	0.34849	0.29203	0.83279	-0.151
Mof_N 	N 	0.29467	0.32743	0.86617	-0.151
Mof_N 	N 	0.32044	0.35294	0.80246	-0.154
Mof_N 	N 	0.24769	0.45391	0.80411	-0.228
Mof_N 	N 	0.28097	0.46373	0.72143	-0.267
Mof_N 	N 	0.20367	0.49379	0.75719	-0.227
Mof_N 	N 	0.1076	0.57926	0.76574	-0.154
Mof_N 	N 	0.19476	0.53266	0.01408	-0.262
Mof_N 	N 	0.24036	0.53102	0.93848	-0.224
Mof_N 	N 	0.46079	0.50579	0.79337	-0.226
Mof_N 	N 	0.33279	0.52669	0.84849	-0.151
Mof_N 	N 	0.36617	0.51173	0.79467	-0.151
Mof_N 	N 	0.30246	0.52416	0.82044	-0.154
Mof_N 	N 	0.30411	0.49429	0.74769	-0.228
Mof_N 	N 	0.22143	0.53387	0.78097	-0.267
Mof_N 	N 	0.25719	0.54535	0.70367	-0.227
Mof_N 	N 	0.26574	0.5474	0.6076	-0.154
Mof_N 	N 	0.7585	0.01408	0.53266	-0.262
Mof_N 	N 	0.79014	0.93848	0.53102	-0.224
Mof_N 	N 	0.74005	0.79337	0.50579	-0.226
Mof_N 	N 	0.79203	0.84849	0.52669	-0.151
Mof_N 	N 	0.82743	0.79467	0.51173	-0.151
Mof_N 	N 	0.85294	0.82044	0.52416	-0.154
Mof_N 	N 	0.95391	0.74769	0.49429	-0.228
Mof_N 	N 	0.96373	0.78097	0.53387	-0.267
Mof_N 	N 	0.99379	0.70367	0.54535	-0.227
Mof_N 	N 	0.07926	0.6076	0.5474	-0.154
Mof_N 	N 	0.03266	0.2585	0.01408	-0.262
Mof_N 	N 	0.03102	0.29014	0.93848	-0.224
Mof_N 	N 	0.00579	0.24005	0.79337	-0.226
Mof_N 	N 	0.02669	0.29203	0.84849	-0.151
Mof_N 	N 	0.01173	0.32743	0.79467	-0.151
Mof_N 	N 	0.02416	0.35294	0.82044	-0.154
Mof_N 	N 	0.99429	0.45391	0.74769	-0.228
Mof_N 	N 	0.03387	0.46373	0.78097	-0.267
Mof_N 	N 	0.04535	0.49379	0.70367	-0.227
Mof_N 	N 	0.0474	0.57926	0.6076	-0.154
Mof_N 	N 	0.51408	0.69476	0.53266	-0.262
Mof_N 	N 	0.43848	0.74036	0.53102	-0.224
Mof_N 	N 	0.29337	0.96079	0.50579	-0.226
Mof_N 	N 	0.34849	0.83279	0.52669	-0.151
Mof_N 	N 	0.29467	0.86617	0.51173	-0.151
Mof_N 	N 	0.32044	0.80246	0.52416	-0.154
Mof_N 	N 	0.24769	0.80411	0.49429	-0.228
Mof_N 	N 	0.28097	0.72143	0.53387	-0.267
Mof_N 	N 	0.20367	0.75719	0.54535	-0.227
Mof_N 	N 	0.1076	0.76574	0.5474	-0.154
Mof_N 	N 	0.19476	0.01408	0.2585	-0.262
Mof_N 	N 	0.24036	0.93848	0.29014	-0.224
Mof_N 	N 	0.46079	0.79337	0.24005	-0.226
Mof_N 	N 	0.33279	0.84849	0.29203	-0.151
Mof_N 	N 	0.36617	0.79467	0.32743	-0.151
Mof_N 	N 	0.30246	0.82044	0.35294	-0.154
Mof_N 	N 	0.30411	0.74769	0.45391	-0.228
Mof_N 	N 	0.22143	0.78097	0.46373	-0.267
Mof_N 	N 	0.25719	0.70367	0.49379	-0.227
Mof_N 	N 	0.26574	0.6076	0.57926	-0.154
Mof_N 	N 	0.7585	0.53266	0.69476	-0.262
Mof_N 	N 	0.79014	0.53102	0.74036	-0.224
Mof_N 	N 	0.74005	0.50579	0.96079	-0.226
Mof_N 	N 	0.79203	0.52669	0.83279	-0.151
Mof_N 	N 	0.82743	0.51173	0.86617	-0.151
Mof_N 	N 	0.85294	0.52416	0.80246	-0.154
Mof_N 	N 	0.95391	0.49429	0.80411	-0.228
Mof_N 	N 	0.96373	0.53387	0.72143	-0.267
Mof_N 	N 	0.99379	0.54535	0.75719	-0.227
Mof_N 	N 	0.07926	0.5474	0.76574	-0.154
Mof_N 	N 	0.98592	0.96734	0.80524	-0.262
Mof_N 	N 	0.06152	0.96898	0.75964	-0.224
Mof_N 	N 	0.20663	0.99421	0.53921	-0.226
Mof_N 	N 	0.15151	0.97331	0.66721	-0.151
Mof_N 	N 	0.20533	0.98827	0.63383	-0.151
Mof_N 	N 	0.17956	0.97584	0.69754	-0.154
Mof_N 	N 	0.25231	0.00571	0.69589	-0.228
Mof_N 	N 	0.21903	0.96613	0.77857	-0.267
Mof_N 	N 	0.29633	0.95465	0.74281	-0.227
Mof_N 	N 	0.3924	0.9526	0.73426	-0.154
Mof_N 	N 	0.46734	0.48592	0.2415	-0.262
Mof_N 	N 	0.46898	0.56152	0.20986	-0.224
Mof_N 	N 	0.49421	0.70663	0.25995	-0.226
Mof_N 	N 	0.47331	0.65151	0.20797	-0.151
Mof_N 	N 	0.48827	0.70533	0.17257	-0.151
Mof_N 	N 	0.47584	0.67956	0.14706	-0.154
Mof_N 	N 	0.50571	0.75231	0.04609	-0.228
Mof_N 	N 	0.46613	0.71903	0.03627	-0.267
Mof_N 	N 	0.45465	0.79633	0.00621	-0.227
Mof_N 	N 	0.4526	0.8924	0.92074	-0.154
Mof_N 	N 	0.7415	0.80524	0.96734	-0.262
Mof_N 	N 	0.70986	0.75964	0.96898	-0.224
Mof_N 	N 	0.75995	0.53921	0.99421	-0.226
Mof_N 	N 	0.70797	0.66721	0.97331	-0.151
Mof_N 	N 	0.67257	0.63383	0.98827	-0.151
Mof_N 	N 	0.64706	0.69754	0.97584	-0.154
Mof_N 	N 	0.54609	0.69589	0.00571	-0.228
Mof_N 	N 	0.53627	0.77857	0.96613	-0.267
Mof_N 	N 	0.50621	0.74281	0.95465	-0.227
Mof_N 	N 	0.42074	0.73426	0.9526	-0.154
Mof_N 	N 	0.30524	0.2415	0.48592	-0.262
Mof_N 	N 	0.25964	0.20986	0.56152	-0.224
Mof_N 	N 	0.03921	0.25995	0.70663	-0.226
Mof_N 	N 	0.16721	0.20797	0.65151	-0.151
Mof_N 	N 	0.13383	0.17257	0.70533	-0.151
Mof_N 	N 	0.19754	0.14706	0.67956	-0.154
Mof_N 	N 	0.19589	0.04609	0.75231	-0.228
Mof_N 	N 	0.27857	0.03627	0.71903	-0.267
Mof_N 	N 	0.24281	0.00621	0.79633	-0.227
Mof_N 	N 	0.23426	0.92074	0.8924	-0.154
Mof_N 	N 	0.30524	0.96734	0.2415	-0.262
Mof_N 	N 	0.25964	0.96898	0.20986	-0.224
Mof_N 	N 	0.03921	0.99421	0.25995	-0.226
Mof_N 	N 	0.16721	0.97331	0.20797	-0.151
Mof_N 	N 	0.13383	0.98827	0.17257	-0.151
Mof_N 	N 	0.19754	0.97584	0.14706	-0.154
Mof_N 	N 	0.19589	0.00571	0.04609	-0.228
Mof_N 	N 	0.27857	0.96613	0.03627	-0.267
Mof_N 	N 	0.24281	0.95465	0.00621	-0.227
Mof_N 	N 	0.23426	0.9526	0.92074	-0.154
Mof_N 	N 	0.7415	0.48592	0.80524	-0.262
Mof_N 	N 	0.70986	0.56152	0.75964	-0.224
Mof_N 	N 	0.75995	0.70663	0.53921	-0.226
Mof_N 	N 	0.70797	0.65151	0.66721	-0.151
Mof_N 	N 	0.67257	0.70533	0.63383	-0.151
Mof_N 	N 	0.64706	0.67956	0.69754	-0.154
Mof_N 	N 	0.54609	0.75231	0.69589	-0.228
Mof_N 	N 	0.53627	0.71903	0.77857	-0.267
Mof_N 	N 	0.50621	0.79633	0.74281	-0.227
Mof_N 	N 	0.42074	0.8924	0.73426	-0.154
Mof_N 	N 	0.46734	0.80524	0.48592	-0.262
Mof_N 	N 	0.46898	0.75964	0.56152	-0.224
Mof_N 	N 	0.49421	0.53921	0.70663	-0.226
Mof_N 	N 	0.47331	0.66721	0.65151	-0.151
Mof_N 	N 	0.48827	0.63383	0.70533	-0.151
Mof_N 	N 	0.47584	0.69754	0.67956	-0.154
Mof_N 	N 	0.50571	0.69589	0.75231	-0.228
Mof_N 	N 	0.46613	0.77857	0.71903	-0.267
Mof_N 	N 	0.45465	0.74281	0.79633	-0.227
Mof_N 	N 	0.4526	0.73426	0.8924	-0.154
Mof_N 	N 	0.98592	0.2415	0.96734	-0.262
Mof_N 	N 	0.06152	0.20986	0.96898	-0.224
Mof_N 	N 	0.20663	0.25995	0.99421	-0.226
Mof_N 	N 	0.15151	0.20797	0.97331	-0.151
Mof_N 	N 	0.20533	0.17257	0.98827	-0.151
Mof_N 	N 	0.17956	0.14706	0.97584	-0.154
Mof_N 	N 	0.25231	0.04609	0.00571	-0.228
Mof_N 	N 	0.21903	0.03627	0.96613	-0.267
Mof_N 	N 	0.29633	0.00621	0.95465	-0.227
Mof_N 	N 	0.3924	0.92074	0.9526	-0.154
Mof_N 	N 	0.7415	0.96734	0.48592	-0.262
Mof_N 	N 	0.70986	0.96898	0.56152	-0.224
Mof_N 	N 	0.75995	0.99421	0.70663	-0.226
Mof_N 	N 	0.70797	0.97331	0.65151	-0.151
Mof_N 	N 	0.67257	0.98827	0.70533	-0.151
Mof_N 	N 	0.64706	0.97584	0.67956	-0.154
Mof_N 	N 	0.54609	0.00571	0.75231	-0.228
Mof_N 	N 	0.53627	0.96613	0.71903	-0.267
Mof_N 	N 	0.50621	0.95465	0.79633	-0.227
Mof_N 	N 	0.42074	0.9526	0.8924	-0.154
Mof_N 	N 	0.30524	0.48592	0.96734	-0.262
Mof_N 	N 	0.25964	0.56152	0.96898	-0.224
Mof_N 	N 	0.03921	0.70663	0.99421	-0.226
Mof_N 	N 	0.16721	0.65151	0.97331	-0.151
Mof_N 	N 	0.13383	0.70533	0.98827	-0.151
Mof_N 	N 	0.19754	0.67956	0.97584	-0.154
Mof_N 	N 	0.19589	0.75231	0.00571	-0.228
Mof_N 	N 	0.27857	0.71903	0.96613	-0.267
Mof_N 	N 	0.24281	0.79633	0.95465	-0.227
Mof_N 	N 	0.23426	0.8924	0.9526	-0.154
Mof_N 	N 	0.98592	0.80524	0.2415	-0.262
Mof_N 	N 	0.06152	0.75964	0.20986	-0.224
Mof_N 	N 	0.20663	0.53921	0.25995	-0.226
Mof_N 	N 	0.15151	0.66721	0.20797	-0.151
Mof_N 	N 	0.20533	0.63383	0.17257	-0.151
Mof_N 	N 	0.17956	0.69754	0.14706	-0.154
Mof_N 	N 	0.25231	0.69589	0.04609	-0.228
Mof_N 	N 	0.21903	0.77857	0.03627	-0.267
Mof_N 	N 	0.29633	0.74281	0.00621	-0.227
Mof_N 	N 	0.3924	0.73426	0.92074	-0.154
Mof_N 	N 	0.46734	0.2415	0.80524	-0.262
Mof_N 	N 	0.46898	0.20986	0.75964	-0.224
Mof_N 	N 	0.49421	0.25995	0.53921	-0.226
Mof_N 	N 	0.47331	0.20797	0.66721	-0.151
Mof_N 	N 	0.48827	0.17257	0.63383	-0.151
Mof_N 	N 	0.47584	0.14706	0.69754	-0.154
Mof_N 	N 	0.50571	0.04609	0.69589	-0.228
Mof_N 	N 	0.46613	0.03627	0.77857	-0.267
Mof_N 	N 	0.45465	0.00621	0.74281	-0.227
Mof_N 	N 	0.4526	0.92074	0.73426	-0.154
_end
