data_functionalizedCrystal
_audit_creation_method	'EQeq! by Chris Wilmer'
_symmetry_space_group_name_H-M	'P1'
_symmetry_Int_Tables_number	1
_symmetry_cell_setting	triclinic
loop_
_symmetry_equiv_pos_as_xyz
  x,y,z
_cell_length_a	31.4065
_cell_length_b	31.4065
_cell_length_c	21.5732
_cell_angle_alpha	90
_cell_angle_beta	90
_cell_angle_gamma	90
loop_
_atom_site_label
_atom_site_type_symbol
_atom_site_fract_x
_atom_site_fract_y
_atom_site_fract_z
_atom_site_charge
Mof_Cu	Cu	0.96814	0.4983	0.2997	0.904
Mof_O 	O 	0.41235	0.49313	0.7588	-0.411
Mof_O 	O 	0.44234	0.46772	0.6716	-0.421
Mof_O 	O 	0.0276	0.49263	0.3253	-0.428
Mof_O 	O 	0.05586	0.5255	0.2436	-0.423
Mof_O 	O 	0.25181	0.31219	0.5334	-0.392
Mof_O 	O 	0.24118	0.31209	0.4301	-0.385
Mof_O 	O 	0.24928	0.46629	0.5929	-0.311
Mof_O 	O 	0.22494	0.4665	0.3757	-0.288
Mof_C 	C 	0.3694	0.4746	0.6741	-0.215
Mof_C 	C 	0.1029	0.4956	0.3166	-0.181
Mof_C 	C 	0.2423	0.3776	0.4827	0.125
Mof_C 	C 	0.4114	0.4792	0.7042	0.406
Mof_C 	C 	0.0573	0.5059	0.2933	0.408
Mof_C 	C 	0.249	0.399	0.5381	-0.276
Mof_H 	H 	0.25536	0.38442	0.57451	0.15
Mof_C 	C 	0.2465	0.3298	0.4824	0.282
Mof_C 	C 	0.1066	0.4707	0.3688	0.161
Mof_H 	H 	0.0822	0.46024	0.38794	-0.005
Mof_C 	C 	0.2899	0.4684	0.6172	0.31
Mof_C 	C 	0.2307	0.4403	0.4305	0.352
Mof_C 	C 	0.2459	0.4431	0.5369	0.323
Mof_C 	C 	0.3658	0.461	0.615	0.191
Mof_H 	H 	0.39044	0.45399	0.59347	-0.014
Mof_C 	C 	0.2338	0.3993	0.4268	-0.32
Mof_H 	H 	0.23069	0.38499	0.38942	0.167
Mof_C 	C 	0.1804	0.4745	0.3605	0.26
Mof_C 	C 	0.138	0.5099	0.2861	0.131
Mof_H 	H 	0.13427	0.5258	0.25019	0.008
Mof_C 	C 	0.3272	0.4571	0.5849	-0.301
Mof_H 	H 	0.32588	0.44733	0.54424	0.146
Mof_C 	C 	0.2368	0.4647	0.4822	-0.384
Mof_H 	H 	0.23488	0.49425	0.48089	0.19
Mof_C 	C 	0.1797	0.5016	0.3068	-0.227
Mof_H 	H 	0.20396	0.51235	0.28782	0.132
Mof_C 	C 	0.3336	0.485	0.7059	0.151
Mof_H 	H 	0.33569	0.49358	0.74706	0.001
Mof_C 	C 	0.1456	0.4614	0.3926	-0.281
Mof_H 	H 	0.14828	0.44654	0.42972	0.138
Mof_C 	C 	0.2912	0.4827	0.6759	-0.272
Mof_H 	H 	0.26658	0.49073	0.69679	0.143
Mof_Cu	Cu	0.53186	0.0017	0.2997	0.905
Mof_O 	O 	0.08765	0.00687	0.7588	-0.41
Mof_O 	O 	0.05766	0.03228	0.6716	-0.42
Mof_O 	O 	0.4724	0.00737	0.3253	-0.427
Mof_O 	O 	0.44414	0.9745	0.2436	-0.422
Mof_O 	O 	0.24819	0.18781	0.5334	-0.391
Mof_O 	O 	0.25882	0.18791	0.4301	-0.384
Mof_O 	O 	0.25072	0.03371	0.5929	-0.31
Mof_O 	O 	0.27506	0.0335	0.3757	-0.288
Mof_C 	C 	0.1306	0.0254	0.6741	-0.215
Mof_C 	C 	0.3971	0.0044	0.3166	-0.181
Mof_C 	C 	0.2577	0.1224	0.4827	0.125
Mof_C 	C 	0.0886	0.0208	0.7042	0.406
Mof_C 	C 	0.4427	0.9941	0.2933	0.408
Mof_C 	C 	0.251	0.101	0.5381	-0.276
Mof_H 	H 	0.24464	0.11558	0.57451	0.15
Mof_C 	C 	0.2535	0.1702	0.4824	0.282
Mof_C 	C 	0.3934	0.0293	0.3688	0.161
Mof_H 	H 	0.4178	0.03976	0.38794	-0.005
Mof_C 	C 	0.2101	0.0316	0.6172	0.31
Mof_C 	C 	0.2693	0.0597	0.4305	0.352
Mof_C 	C 	0.2541	0.0569	0.5369	0.323
Mof_C 	C 	0.1342	0.039	0.615	0.191
Mof_H 	H 	0.10956	0.04601	0.59347	-0.014
Mof_C 	C 	0.2662	0.1007	0.4268	-0.32
Mof_H 	H 	0.26931	0.11501	0.38942	0.167
Mof_C 	C 	0.3196	0.0255	0.3605	0.26
Mof_C 	C 	0.362	0.9901	0.2861	0.131
Mof_H 	H 	0.36573	0.9742	0.25019	0.008
Mof_C 	C 	0.1728	0.0429	0.5849	-0.301
Mof_H 	H 	0.17412	0.05267	0.54424	0.146
Mof_C 	C 	0.2632	0.0353	0.4822	-0.384
Mof_H 	H 	0.26512	0.00575	0.48089	0.19
Mof_C 	C 	0.3203	0.9984	0.3068	-0.228
Mof_H 	H 	0.29604	0.98765	0.28782	0.132
Mof_C 	C 	0.1664	0.015	0.7059	0.151
Mof_H 	H 	0.16431	0.00642	0.74706	0.002
Mof_C 	C 	0.3544	0.0386	0.3926	-0.281
Mof_H 	H 	0.35172	0.05346	0.42972	0.138
Mof_C 	C 	0.2088	0.0173	0.6759	-0.272
Mof_H 	H 	0.23342	0.00927	0.69679	0.143
Mof_Cu	Cu	0.0017	0.96814	0.2997	0.904
Mof_O 	O 	0.00687	0.41235	0.7588	-0.41
Mof_O 	O 	0.03228	0.44234	0.6716	-0.42
Mof_O 	O 	0.00737	0.0276	0.3253	-0.425
Mof_O 	O 	0.9745	0.05586	0.2436	-0.422
Mof_O 	O 	0.18781	0.25181	0.5334	-0.391
Mof_O 	O 	0.18791	0.24118	0.4301	-0.384
Mof_O 	O 	0.03371	0.24928	0.5929	-0.31
Mof_O 	O 	0.0335	0.22494	0.3757	-0.287
Mof_C 	C 	0.0254	0.3694	0.6741	-0.215
Mof_C 	C 	0.0044	0.1029	0.3166	-0.179
Mof_C 	C 	0.1224	0.2423	0.4827	0.125
Mof_C 	C 	0.0208	0.4114	0.7042	0.406
Mof_C 	C 	0.9941	0.0573	0.2933	0.405
Mof_C 	C 	0.101	0.249	0.5381	-0.276
Mof_H 	H 	0.11558	0.25536	0.57451	0.15
Mof_C 	C 	0.1702	0.2465	0.4824	0.282
Mof_C 	C 	0.0293	0.1066	0.3688	0.16
Mof_H 	H 	0.03976	0.0822	0.38794	-0.004
Mof_C 	C 	0.0316	0.2899	0.6172	0.31
Mof_C 	C 	0.0597	0.2307	0.4305	0.352
Mof_C 	C 	0.0569	0.2459	0.5369	0.323
Mof_C 	C 	0.039	0.3658	0.615	0.191
Mof_H 	H 	0.04601	0.39044	0.59347	-0.014
Mof_C 	C 	0.1007	0.2338	0.4268	-0.32
Mof_H 	H 	0.11501	0.23069	0.38942	0.167
Mof_C 	C 	0.0255	0.1804	0.3605	0.259
Mof_C 	C 	0.9901	0.138	0.2861	0.129
Mof_H 	H 	0.9742	0.13427	0.25019	0.008
Mof_C 	C 	0.0429	0.3272	0.5849	-0.301
Mof_H 	H 	0.05267	0.32588	0.54424	0.146
Mof_C 	C 	0.0353	0.2368	0.4822	-0.384
Mof_H 	H 	0.00575	0.23488	0.48089	0.19
Mof_C 	C 	0.9984	0.1797	0.3068	-0.227
Mof_H 	H 	0.98765	0.20396	0.28782	0.131
Mof_C 	C 	0.015	0.3336	0.7059	0.151
Mof_H 	H 	0.00642	0.33569	0.74706	0.002
Mof_C 	C 	0.0386	0.1456	0.3926	-0.28
Mof_H 	H 	0.05346	0.14828	0.42972	0.138
Mof_C 	C 	0.0173	0.2912	0.6759	-0.272
Mof_H 	H 	0.00927	0.26658	0.69679	0.143
Mof_Cu	Cu	0.4983	0.53186	0.2997	0.905
Mof_O 	O 	0.49313	0.08765	0.7588	-0.41
Mof_O 	O 	0.46772	0.05766	0.6716	-0.42
Mof_O 	O 	0.49263	0.4724	0.3253	-0.427
Mof_O 	O 	0.5255	0.44414	0.2436	-0.422
Mof_O 	O 	0.31219	0.24819	0.5334	-0.391
Mof_O 	O 	0.31209	0.25882	0.4301	-0.384
Mof_O 	O 	0.46629	0.25072	0.5929	-0.31
Mof_O 	O 	0.4665	0.27506	0.3757	-0.288
Mof_C 	C 	0.4746	0.1306	0.6741	-0.215
Mof_C 	C 	0.4956	0.3971	0.3166	-0.181
Mof_C 	C 	0.3776	0.2577	0.4827	0.125
Mof_C 	C 	0.4792	0.0886	0.7042	0.406
Mof_C 	C 	0.5059	0.4427	0.2933	0.408
Mof_C 	C 	0.399	0.251	0.5381	-0.276
Mof_H 	H 	0.38442	0.24464	0.57451	0.15
Mof_C 	C 	0.3298	0.2535	0.4824	0.282
Mof_C 	C 	0.4707	0.3934	0.3688	0.161
Mof_H 	H 	0.46024	0.4178	0.38794	-0.005
Mof_C 	C 	0.4684	0.2101	0.6172	0.31
Mof_C 	C 	0.4403	0.2693	0.4305	0.352
Mof_C 	C 	0.4431	0.2541	0.5369	0.323
Mof_C 	C 	0.461	0.1342	0.615	0.191
Mof_H 	H 	0.45399	0.10956	0.59347	-0.014
Mof_C 	C 	0.3993	0.2662	0.4268	-0.32
Mof_H 	H 	0.38499	0.26931	0.38942	0.167
Mof_C 	C 	0.4745	0.3196	0.3605	0.26
Mof_C 	C 	0.5099	0.362	0.2861	0.131
Mof_H 	H 	0.5258	0.36573	0.25019	0.008
Mof_C 	C 	0.4571	0.1728	0.5849	-0.301
Mof_H 	H 	0.44733	0.17412	0.54424	0.146
Mof_C 	C 	0.4647	0.2632	0.4822	-0.384
Mof_H 	H 	0.49425	0.26512	0.48089	0.19
Mof_C 	C 	0.5016	0.3203	0.3068	-0.227
Mof_H 	H 	0.51235	0.29604	0.28782	0.132
Mof_C 	C 	0.485	0.1664	0.7059	0.151
Mof_H 	H 	0.49358	0.16431	0.74706	0.001
Mof_C 	C 	0.4614	0.3544	0.3926	-0.281
Mof_H 	H 	0.44654	0.35172	0.42972	0.138
Mof_C 	C 	0.4827	0.2088	0.6759	-0.272
Mof_H 	H 	0.49073	0.23342	0.69679	0.143
Mof_Cu	Cu	0.53186	0.4983	0.2003	0.905
Mof_O 	O 	0.08765	0.49313	0.7412	-0.41
Mof_O 	O 	0.05766	0.46772	0.8284	-0.42
Mof_O 	O 	0.4724	0.49263	0.1747	-0.427
Mof_O 	O 	0.44414	0.5255	0.2564	-0.422
Mof_O 	O 	0.24819	0.31219	0.9666	-0.391
Mof_O 	O 	0.25882	0.31209	0.0699	-0.384
Mof_O 	O 	0.25072	0.46629	0.9071	-0.31
Mof_O 	O 	0.27506	0.4665	0.1243	-0.288
Mof_C 	C 	0.1306	0.4746	0.8259	-0.215
Mof_C 	C 	0.3971	0.4956	0.1834	-0.181
Mof_C 	C 	0.2577	0.3776	0.0173	0.125
Mof_C 	C 	0.0886	0.4792	0.7958	0.406
Mof_C 	C 	0.4427	0.5059	0.2067	0.408
Mof_C 	C 	0.251	0.399	0.9619	-0.276
Mof_H 	H 	0.24464	0.38442	0.92549	0.15
Mof_C 	C 	0.2535	0.3298	0.0176	0.282
Mof_C 	C 	0.3934	0.4707	0.1312	0.161
Mof_H 	H 	0.4178	0.46024	0.11206	-0.005
Mof_C 	C 	0.2101	0.4684	0.8828	0.31
Mof_C 	C 	0.2693	0.4403	0.0695	0.352
Mof_C 	C 	0.2541	0.4431	0.9631	0.323
Mof_C 	C 	0.1342	0.461	0.885	0.191
Mof_H 	H 	0.10956	0.45399	0.90653	-0.014
Mof_C 	C 	0.2662	0.3993	0.0732	-0.32
Mof_H 	H 	0.26931	0.38499	0.11058	0.167
Mof_C 	C 	0.3196	0.4745	0.1395	0.26
Mof_C 	C 	0.362	0.5099	0.2139	0.131
Mof_H 	H 	0.36573	0.5258	0.24981	0.008
Mof_C 	C 	0.1728	0.4571	0.9151	-0.301
Mof_H 	H 	0.17412	0.44733	0.95576	0.146
Mof_C 	C 	0.2632	0.4647	0.0178	-0.384
Mof_H 	H 	0.26512	0.49425	0.01911	0.19
Mof_C 	C 	0.3203	0.5016	0.1932	-0.227
Mof_H 	H 	0.29604	0.51235	0.21218	0.132
Mof_C 	C 	0.1664	0.485	0.7941	0.151
Mof_H 	H 	0.16431	0.49358	0.75294	0.001
Mof_C 	C 	0.3544	0.4614	0.1074	-0.281
Mof_H 	H 	0.35172	0.44654	0.07028	0.138
Mof_C 	C 	0.2088	0.4827	0.8241	-0.272
Mof_H 	H 	0.23342	0.49073	0.80321	0.143
Mof_Cu	Cu	0.96814	0.0017	0.2003	0.904
Mof_O 	O 	0.41235	0.00687	0.7412	-0.41
Mof_O 	O 	0.44234	0.03228	0.8284	-0.42
Mof_O 	O 	0.0276	0.00737	0.1747	-0.425
Mof_O 	O 	0.05586	0.9745	0.2564	-0.422
Mof_O 	O 	0.25181	0.18781	0.9666	-0.391
Mof_O 	O 	0.24118	0.18791	0.0699	-0.384
Mof_O 	O 	0.24928	0.03371	0.9071	-0.31
Mof_O 	O 	0.22494	0.0335	0.1243	-0.287
Mof_C 	C 	0.3694	0.0254	0.8259	-0.215
Mof_C 	C 	0.1029	0.0044	0.1834	-0.179
Mof_C 	C 	0.2423	0.1224	0.0173	0.125
Mof_C 	C 	0.4114	0.0208	0.7958	0.406
Mof_C 	C 	0.0573	0.9941	0.2067	0.405
Mof_C 	C 	0.249	0.101	0.9619	-0.276
Mof_H 	H 	0.25536	0.11558	0.92549	0.15
Mof_C 	C 	0.2465	0.1702	0.0176	0.282
Mof_C 	C 	0.1066	0.0293	0.1312	0.16
Mof_H 	H 	0.0822	0.03976	0.11206	-0.004
Mof_C 	C 	0.2899	0.0316	0.8828	0.31
Mof_C 	C 	0.2307	0.0597	0.0695	0.352
Mof_C 	C 	0.2459	0.0569	0.9631	0.323
Mof_C 	C 	0.3658	0.039	0.885	0.191
Mof_H 	H 	0.39044	0.04601	0.90653	-0.014
Mof_C 	C 	0.2338	0.1007	0.0732	-0.32
Mof_H 	H 	0.23069	0.11501	0.11058	0.167
Mof_C 	C 	0.1804	0.0255	0.1395	0.259
Mof_C 	C 	0.138	0.9901	0.2139	0.129
Mof_H 	H 	0.13427	0.9742	0.24981	0.008
Mof_C 	C 	0.3272	0.0429	0.9151	-0.301
Mof_H 	H 	0.32588	0.05267	0.95576	0.146
Mof_C 	C 	0.2368	0.0353	0.0178	-0.385
Mof_H 	H 	0.23488	0.00575	0.01911	0.19
Mof_C 	C 	0.1797	0.9984	0.1932	-0.227
Mof_H 	H 	0.20396	0.98765	0.21218	0.131
Mof_C 	C 	0.3336	0.015	0.7941	0.151
Mof_H 	H 	0.33569	0.00642	0.75294	0.002
Mof_C 	C 	0.1456	0.0386	0.1074	-0.28
Mof_H 	H 	0.14828	0.05346	0.07028	0.138
Mof_C 	C 	0.2912	0.0173	0.8241	-0.272
Mof_H 	H 	0.26658	0.00927	0.80321	0.143
Mof_Cu	Cu	0.4983	0.96814	0.2003	0.905
Mof_O 	O 	0.49313	0.41235	0.7412	-0.41
Mof_O 	O 	0.46772	0.44234	0.8284	-0.42
Mof_O 	O 	0.49263	0.0276	0.1747	-0.427
Mof_O 	O 	0.5255	0.05586	0.2564	-0.422
Mof_O 	O 	0.31219	0.25181	0.9666	-0.391
Mof_O 	O 	0.31209	0.24118	0.0699	-0.384
Mof_O 	O 	0.46629	0.24928	0.9071	-0.31
Mof_O 	O 	0.4665	0.22494	0.1243	-0.288
Mof_C 	C 	0.4746	0.3694	0.8259	-0.215
Mof_C 	C 	0.4956	0.1029	0.1834	-0.181
Mof_C 	C 	0.3776	0.2423	0.0173	0.125
Mof_C 	C 	0.4792	0.4114	0.7958	0.406
Mof_C 	C 	0.5059	0.0573	0.2067	0.408
Mof_C 	C 	0.399	0.249	0.9619	-0.276
Mof_H 	H 	0.38442	0.25536	0.92549	0.15
Mof_C 	C 	0.3298	0.2465	0.0176	0.282
Mof_C 	C 	0.4707	0.1066	0.1312	0.161
Mof_H 	H 	0.46024	0.0822	0.11206	-0.005
Mof_C 	C 	0.4684	0.2899	0.8828	0.31
Mof_C 	C 	0.4403	0.2307	0.0695	0.352
Mof_C 	C 	0.4431	0.2459	0.9631	0.323
Mof_C 	C 	0.461	0.3658	0.885	0.191
Mof_H 	H 	0.45399	0.39044	0.90653	-0.014
Mof_C 	C 	0.3993	0.2338	0.0732	-0.32
Mof_H 	H 	0.38499	0.23069	0.11058	0.167
Mof_C 	C 	0.4745	0.1804	0.1395	0.26
Mof_C 	C 	0.5099	0.138	0.2139	0.131
Mof_H 	H 	0.5258	0.13427	0.24981	0.008
Mof_C 	C 	0.4571	0.3272	0.9151	-0.301
Mof_H 	H 	0.44733	0.32588	0.95576	0.146
Mof_C 	C 	0.4647	0.2368	0.0178	-0.384
Mof_H 	H 	0.49425	0.23488	0.01911	0.19
Mof_C 	C 	0.5016	0.1797	0.1932	-0.227
Mof_H 	H 	0.51235	0.20396	0.21218	0.132
Mof_C 	C 	0.485	0.3336	0.7941	0.151
Mof_H 	H 	0.49358	0.33569	0.75294	0.001
Mof_C 	C 	0.4614	0.1456	0.1074	-0.281
Mof_H 	H 	0.44654	0.14828	0.07028	0.138
Mof_C 	C 	0.4827	0.2912	0.8241	-0.272
Mof_H 	H 	0.49073	0.26658	0.80321	0.143
Mof_Cu	Cu	0.0017	0.53186	0.2003	0.905
Mof_O 	O 	0.00687	0.08765	0.7412	-0.41
Mof_O 	O 	0.03228	0.05766	0.8284	-0.419
Mof_O 	O 	0.00737	0.4724	0.1747	-0.427
Mof_O 	O 	0.9745	0.44414	0.2564	-0.422
Mof_O 	O 	0.18781	0.24819	0.9666	-0.391
Mof_O 	O 	0.18791	0.25882	0.0699	-0.384
Mof_O 	O 	0.03371	0.25072	0.9071	-0.31
Mof_O 	O 	0.0335	0.27506	0.1243	-0.288
Mof_C 	C 	0.0254	0.1306	0.8259	-0.215
Mof_C 	C 	0.0044	0.3971	0.1834	-0.181
Mof_C 	C 	0.1224	0.2577	0.0173	0.125
Mof_C 	C 	0.0208	0.0886	0.7958	0.406
Mof_C 	C 	0.9941	0.4427	0.2067	0.408
Mof_C 	C 	0.101	0.251	0.9619	-0.276
Mof_H 	H 	0.11558	0.24464	0.92549	0.15
Mof_C 	C 	0.1702	0.2535	0.0176	0.282
Mof_C 	C 	0.0293	0.3934	0.1312	0.161
Mof_H 	H 	0.03976	0.4178	0.11206	-0.005
Mof_C 	C 	0.0316	0.2101	0.8828	0.31
Mof_C 	C 	0.0597	0.2693	0.0695	0.352
Mof_C 	C 	0.0569	0.2541	0.9631	0.323
Mof_C 	C 	0.039	0.1342	0.885	0.191
Mof_H 	H 	0.04601	0.10956	0.90653	-0.014
Mof_C 	C 	0.1007	0.2662	0.0732	-0.32
Mof_H 	H 	0.11501	0.26931	0.11058	0.167
Mof_C 	C 	0.0255	0.3196	0.1395	0.26
Mof_C 	C 	0.9901	0.362	0.2139	0.131
Mof_H 	H 	0.9742	0.36573	0.24981	0.008
Mof_C 	C 	0.0429	0.1728	0.9151	-0.301
Mof_H 	H 	0.05267	0.17412	0.95576	0.146
Mof_C 	C 	0.0353	0.2632	0.0178	-0.385
Mof_H 	H 	0.00575	0.26512	0.01911	0.19
Mof_C 	C 	0.9984	0.3203	0.1932	-0.227
Mof_H 	H 	0.98765	0.29604	0.21218	0.132
Mof_C 	C 	0.015	0.1664	0.7941	0.151
Mof_H 	H 	0.00642	0.16431	0.75294	0.002
Mof_C 	C 	0.0386	0.3544	0.1074	-0.281
Mof_H 	H 	0.05346	0.35172	0.07028	0.138
Mof_C 	C 	0.0173	0.2088	0.8241	-0.272
Mof_H 	H 	0.00927	0.23342	0.80321	0.143
Mof_Cu	Cu	0.03186	0.5017	0.7003	0.905
Mof_O 	O 	0.58765	0.50687	0.2412	-0.41
Mof_O 	O 	0.55766	0.53228	0.3284	-0.42
Mof_O 	O 	0.9724	0.50737	0.6747	-0.427
Mof_O 	O 	0.94414	0.4745	0.7564	-0.422
Mof_O 	O 	0.74819	0.68781	0.4666	-0.391
Mof_O 	O 	0.75882	0.68791	0.5699	-0.384
Mof_O 	O 	0.75072	0.53371	0.4071	-0.31
Mof_O 	O 	0.77506	0.5335	0.6243	-0.288
Mof_C 	C 	0.6306	0.5254	0.3259	-0.215
Mof_C 	C 	0.8971	0.5044	0.6834	-0.181
Mof_C 	C 	0.7577	0.6224	0.5173	0.125
Mof_C 	C 	0.5886	0.5208	0.2958	0.406
Mof_C 	C 	0.9427	0.4941	0.7067	0.408
Mof_C 	C 	0.751	0.601	0.4619	-0.276
Mof_H 	H 	0.74464	0.61558	0.42549	0.15
Mof_C 	C 	0.7535	0.6702	0.5176	0.282
Mof_C 	C 	0.8934	0.5293	0.6312	0.161
Mof_H 	H 	0.9178	0.53976	0.61206	-0.005
Mof_C 	C 	0.7101	0.5316	0.3828	0.31
Mof_C 	C 	0.7693	0.5597	0.5695	0.352
Mof_C 	C 	0.7541	0.5569	0.4631	0.323
Mof_C 	C 	0.6342	0.539	0.385	0.191
Mof_H 	H 	0.60956	0.54601	0.40653	-0.014
Mof_C 	C 	0.7662	0.6007	0.5732	-0.32
Mof_H 	H 	0.76931	0.61501	0.61058	0.167
Mof_C 	C 	0.8196	0.5255	0.6395	0.26
Mof_C 	C 	0.862	0.4901	0.7139	0.131
Mof_H 	H 	0.86573	0.4742	0.74981	0.008
Mof_C 	C 	0.6728	0.5429	0.4151	-0.301
Mof_H 	H 	0.67412	0.55267	0.45576	0.146
Mof_C 	C 	0.7632	0.5353	0.5178	-0.384
Mof_H 	H 	0.76512	0.50575	0.51911	0.19
Mof_C 	C 	0.8203	0.4984	0.6932	-0.227
Mof_H 	H 	0.79604	0.48765	0.71218	0.132
Mof_C 	C 	0.6664	0.515	0.2941	0.151
Mof_H 	H 	0.66431	0.50642	0.25294	0.001
Mof_C 	C 	0.8544	0.5386	0.6074	-0.281
Mof_H 	H 	0.85172	0.55346	0.57028	0.138
Mof_C 	C 	0.7088	0.5173	0.3241	-0.272
Mof_H 	H 	0.73342	0.50927	0.30321	0.143
Mof_Cu	Cu	0.46814	0.9983	0.7003	0.905
Mof_O 	O 	0.91235	0.99313	0.2412	-0.41
Mof_O 	O 	0.94234	0.96772	0.3284	-0.42
Mof_O 	O 	0.5276	0.99263	0.6747	-0.427
Mof_O 	O 	0.55586	0.0255	0.7564	-0.422
Mof_O 	O 	0.75181	0.81219	0.4666	-0.391
Mof_O 	O 	0.74118	0.81209	0.5699	-0.384
Mof_O 	O 	0.74928	0.96629	0.4071	-0.31
Mof_O 	O 	0.72494	0.9665	0.6243	-0.288
Mof_C 	C 	0.8694	0.9746	0.3259	-0.215
Mof_C 	C 	0.6029	0.9956	0.6834	-0.181
Mof_C 	C 	0.7423	0.8776	0.5173	0.125
Mof_C 	C 	0.9114	0.9792	0.2958	0.406
Mof_C 	C 	0.5573	0.0059	0.7067	0.408
Mof_C 	C 	0.749	0.899	0.4619	-0.276
Mof_H 	H 	0.75536	0.88442	0.42549	0.15
Mof_C 	C 	0.7465	0.8298	0.5176	0.282
Mof_C 	C 	0.6066	0.9707	0.6312	0.161
Mof_H 	H 	0.5822	0.96024	0.61206	-0.005
Mof_C 	C 	0.7899	0.9684	0.3828	0.31
Mof_C 	C 	0.7307	0.9403	0.5695	0.352
Mof_C 	C 	0.7459	0.9431	0.4631	0.323
Mof_C 	C 	0.8658	0.961	0.385	0.191
Mof_H 	H 	0.89044	0.95399	0.40653	-0.014
Mof_C 	C 	0.7338	0.8993	0.5732	-0.32
Mof_H 	H 	0.73069	0.88499	0.61058	0.167
Mof_C 	C 	0.6804	0.9745	0.6395	0.26
Mof_C 	C 	0.638	0.0099	0.7139	0.131
Mof_H 	H 	0.63427	0.0258	0.74981	0.008
Mof_C 	C 	0.8272	0.9571	0.4151	-0.301
Mof_H 	H 	0.82588	0.94733	0.45576	0.146
Mof_C 	C 	0.7368	0.9647	0.5178	-0.384
Mof_H 	H 	0.73488	0.99425	0.51911	0.19
Mof_C 	C 	0.6797	0.0016	0.6932	-0.228
Mof_H 	H 	0.70396	0.01235	0.71218	0.132
Mof_C 	C 	0.8336	0.985	0.2941	0.151
Mof_H 	H 	0.83569	0.99358	0.25294	0.002
Mof_C 	C 	0.6456	0.9614	0.6074	-0.281
Mof_H 	H 	0.64828	0.94654	0.57028	0.138
Mof_C 	C 	0.7912	0.9827	0.3241	-0.272
Mof_H 	H 	0.76658	0.99073	0.30321	0.143
Mof_Cu	Cu	0.9983	0.03186	0.7003	0.904
Mof_O 	O 	0.99313	0.58765	0.2412	-0.41
Mof_O 	O 	0.96772	0.55766	0.3284	-0.42
Mof_O 	O 	0.99263	0.9724	0.6747	-0.425
Mof_O 	O 	0.0255	0.94414	0.7564	-0.422
Mof_O 	O 	0.81219	0.74819	0.4666	-0.391
Mof_O 	O 	0.81209	0.75882	0.5699	-0.384
Mof_O 	O 	0.96629	0.75072	0.4071	-0.31
Mof_O 	O 	0.9665	0.77506	0.6243	-0.287
Mof_C 	C 	0.9746	0.6306	0.3259	-0.215
Mof_C 	C 	0.9956	0.8971	0.6834	-0.179
Mof_C 	C 	0.8776	0.7577	0.5173	0.125
Mof_C 	C 	0.9792	0.5886	0.2958	0.406
Mof_C 	C 	0.0059	0.9427	0.7067	0.405
Mof_C 	C 	0.899	0.751	0.4619	-0.276
Mof_H 	H 	0.88442	0.74464	0.42549	0.15
Mof_C 	C 	0.8298	0.7535	0.5176	0.282
Mof_C 	C 	0.9707	0.8934	0.6312	0.16
Mof_H 	H 	0.96024	0.9178	0.61206	-0.004
Mof_C 	C 	0.9684	0.7101	0.3828	0.31
Mof_C 	C 	0.9403	0.7693	0.5695	0.352
Mof_C 	C 	0.9431	0.7541	0.4631	0.323
Mof_C 	C 	0.961	0.6342	0.385	0.191
Mof_H 	H 	0.95399	0.60956	0.40653	-0.014
Mof_C 	C 	0.8993	0.7662	0.5732	-0.32
Mof_H 	H 	0.88499	0.76931	0.61058	0.167
Mof_C 	C 	0.9745	0.8196	0.6395	0.259
Mof_C 	C 	0.0099	0.862	0.7139	0.129
Mof_H 	H 	0.0258	0.86573	0.74981	0.008
Mof_C 	C 	0.9571	0.6728	0.4151	-0.301
Mof_H 	H 	0.94733	0.67412	0.45576	0.146
Mof_C 	C 	0.9647	0.7632	0.5178	-0.384
Mof_H 	H 	0.99425	0.76512	0.51911	0.19
Mof_C 	C 	0.0016	0.8203	0.6932	-0.227
Mof_H 	H 	0.01235	0.79604	0.71218	0.131
Mof_C 	C 	0.985	0.6664	0.2941	0.151
Mof_H 	H 	0.99358	0.66431	0.25294	0.002
Mof_C 	C 	0.9614	0.8544	0.6074	-0.28
Mof_H 	H 	0.94654	0.85172	0.57028	0.138
Mof_C 	C 	0.9827	0.7088	0.3241	-0.272
Mof_H 	H 	0.99073	0.73342	0.30321	0.143
Mof_Cu	Cu	0.5017	0.46814	0.7003	0.905
Mof_O 	O 	0.50687	0.91235	0.2412	-0.41
Mof_O 	O 	0.53228	0.94234	0.3284	-0.42
Mof_O 	O 	0.50737	0.5276	0.6747	-0.427
Mof_O 	O 	0.4745	0.55586	0.7564	-0.422
Mof_O 	O 	0.68781	0.75181	0.4666	-0.391
Mof_O 	O 	0.68791	0.74118	0.5699	-0.384
Mof_O 	O 	0.53371	0.74928	0.4071	-0.31
Mof_O 	O 	0.5335	0.72494	0.6243	-0.288
Mof_C 	C 	0.5254	0.8694	0.3259	-0.215
Mof_C 	C 	0.5044	0.6029	0.6834	-0.181
Mof_C 	C 	0.6224	0.7423	0.5173	0.125
Mof_C 	C 	0.5208	0.9114	0.2958	0.406
Mof_C 	C 	0.4941	0.5573	0.7067	0.408
Mof_C 	C 	0.601	0.749	0.4619	-0.276
Mof_H 	H 	0.61558	0.75536	0.42549	0.15
Mof_C 	C 	0.6702	0.7465	0.5176	0.282
Mof_C 	C 	0.5293	0.6066	0.6312	0.161
Mof_H 	H 	0.53976	0.5822	0.61206	-0.005
Mof_C 	C 	0.5316	0.7899	0.3828	0.31
Mof_C 	C 	0.5597	0.7307	0.5695	0.352
Mof_C 	C 	0.5569	0.7459	0.4631	0.323
Mof_C 	C 	0.539	0.8658	0.385	0.191
Mof_H 	H 	0.54601	0.89044	0.40653	-0.014
Mof_C 	C 	0.6007	0.7338	0.5732	-0.32
Mof_H 	H 	0.61501	0.73069	0.61058	0.167
Mof_C 	C 	0.5255	0.6804	0.6395	0.26
Mof_C 	C 	0.4901	0.638	0.7139	0.131
Mof_H 	H 	0.4742	0.63427	0.74981	0.008
Mof_C 	C 	0.5429	0.8272	0.4151	-0.301
Mof_H 	H 	0.55267	0.82588	0.45576	0.146
Mof_C 	C 	0.5353	0.7368	0.5178	-0.384
Mof_H 	H 	0.50575	0.73488	0.51911	0.19
Mof_C 	C 	0.4984	0.6797	0.6932	-0.227
Mof_H 	H 	0.48765	0.70396	0.71218	0.132
Mof_C 	C 	0.515	0.8336	0.2941	0.151
Mof_H 	H 	0.50642	0.83569	0.25294	0.001
Mof_C 	C 	0.5386	0.6456	0.6074	-0.281
Mof_H 	H 	0.55346	0.64828	0.57028	0.138
Mof_C 	C 	0.5173	0.7912	0.3241	-0.272
Mof_H 	H 	0.50927	0.76658	0.30321	0.143
Mof_Cu	Cu	0.46814	0.5017	0.7997	0.905
Mof_O 	O 	0.91235	0.50687	0.2588	-0.41
Mof_O 	O 	0.94234	0.53228	0.1716	-0.42
Mof_O 	O 	0.5276	0.50737	0.8253	-0.427
Mof_O 	O 	0.55586	0.4745	0.7436	-0.422
Mof_O 	O 	0.75181	0.68781	0.0334	-0.391
Mof_O 	O 	0.74118	0.68791	0.9301	-0.384
Mof_O 	O 	0.74928	0.53371	0.0929	-0.31
Mof_O 	O 	0.72494	0.5335	0.8757	-0.288
Mof_C 	C 	0.8694	0.5254	0.1741	-0.215
Mof_C 	C 	0.6029	0.5044	0.8166	-0.181
Mof_C 	C 	0.7423	0.6224	0.9827	0.125
Mof_C 	C 	0.9114	0.5208	0.2042	0.406
Mof_C 	C 	0.5573	0.4941	0.7933	0.408
Mof_C 	C 	0.749	0.601	0.0381	-0.276
Mof_H 	H 	0.75536	0.61558	0.07451	0.15
Mof_C 	C 	0.7465	0.6702	0.9824	0.282
Mof_C 	C 	0.6066	0.5293	0.8688	0.161
Mof_H 	H 	0.5822	0.53976	0.88794	-0.005
Mof_C 	C 	0.7899	0.5316	0.1172	0.31
Mof_C 	C 	0.7307	0.5597	0.9305	0.352
Mof_C 	C 	0.7459	0.5569	0.0369	0.323
Mof_C 	C 	0.8658	0.539	0.115	0.191
Mof_H 	H 	0.89044	0.54601	0.09347	-0.014
Mof_C 	C 	0.7338	0.6007	0.9268	-0.32
Mof_H 	H 	0.73069	0.61501	0.88942	0.167
Mof_C 	C 	0.6804	0.5255	0.8605	0.26
Mof_C 	C 	0.638	0.4901	0.7861	0.131
Mof_H 	H 	0.63427	0.4742	0.75019	0.008
Mof_C 	C 	0.8272	0.5429	0.0849	-0.301
Mof_H 	H 	0.82588	0.55267	0.04424	0.146
Mof_C 	C 	0.7368	0.5353	0.9822	-0.384
Mof_H 	H 	0.73488	0.50575	0.98089	0.19
Mof_C 	C 	0.6797	0.4984	0.8068	-0.227
Mof_H 	H 	0.70396	0.48765	0.78782	0.132
Mof_C 	C 	0.8336	0.515	0.2059	0.151
Mof_H 	H 	0.83569	0.50642	0.24706	0.001
Mof_C 	C 	0.6456	0.5386	0.8926	-0.281
Mof_H 	H 	0.64828	0.55346	0.92972	0.138
Mof_C 	C 	0.7912	0.5173	0.1759	-0.272
Mof_H 	H 	0.76658	0.50927	0.19679	0.143
Mof_Cu	Cu	0.03186	0.9983	0.7997	0.904
Mof_O 	O 	0.58765	0.99313	0.2588	-0.41
Mof_O 	O 	0.55766	0.96772	0.1716	-0.42
Mof_O 	O 	0.9724	0.99263	0.8253	-0.425
Mof_O 	O 	0.94414	0.0255	0.7436	-0.422
Mof_O 	O 	0.74819	0.81219	0.0334	-0.391
Mof_O 	O 	0.75882	0.81209	0.9301	-0.384
Mof_O 	O 	0.75072	0.96629	0.0929	-0.31
Mof_O 	O 	0.77506	0.9665	0.8757	-0.287
Mof_C 	C 	0.6306	0.9746	0.1741	-0.215
Mof_C 	C 	0.8971	0.9956	0.8166	-0.179
Mof_C 	C 	0.7577	0.8776	0.9827	0.125
Mof_C 	C 	0.5886	0.9792	0.2042	0.406
Mof_C 	C 	0.9427	0.0059	0.7933	0.405
Mof_C 	C 	0.751	0.899	0.0381	-0.276
Mof_H 	H 	0.74464	0.88442	0.07451	0.15
Mof_C 	C 	0.7535	0.8298	0.9824	0.282
Mof_C 	C 	0.8934	0.9707	0.8688	0.16
Mof_H 	H 	0.9178	0.96024	0.88794	-0.004
Mof_C 	C 	0.7101	0.9684	0.1172	0.31
Mof_C 	C 	0.7693	0.9403	0.9305	0.352
Mof_C 	C 	0.7541	0.9431	0.0369	0.323
Mof_C 	C 	0.6342	0.961	0.115	0.191
Mof_H 	H 	0.60956	0.95399	0.09347	-0.014
Mof_C 	C 	0.7662	0.8993	0.9268	-0.32
Mof_H 	H 	0.76931	0.88499	0.88942	0.167
Mof_C 	C 	0.8196	0.9745	0.8605	0.259
Mof_C 	C 	0.862	0.0099	0.7861	0.129
Mof_H 	H 	0.86573	0.0258	0.75019	0.008
Mof_C 	C 	0.6728	0.9571	0.0849	-0.301
Mof_H 	H 	0.67412	0.94733	0.04424	0.146
Mof_C 	C 	0.7632	0.9647	0.9822	-0.385
Mof_H 	H 	0.76512	0.99425	0.98089	0.19
Mof_C 	C 	0.8203	0.0016	0.8068	-0.227
Mof_H 	H 	0.79604	0.01235	0.78782	0.131
Mof_C 	C 	0.6664	0.985	0.2059	0.151
Mof_H 	H 	0.66431	0.99358	0.24706	0.002
Mof_C 	C 	0.8544	0.9614	0.8926	-0.28
Mof_H 	H 	0.85172	0.94654	0.92972	0.138
Mof_C 	C 	0.7088	0.9827	0.1759	-0.272
Mof_H 	H 	0.73342	0.99073	0.19679	0.143
Mof_Cu	Cu	0.5017	0.03186	0.7997	0.905
Mof_O 	O 	0.50687	0.58765	0.2588	-0.41
Mof_O 	O 	0.53228	0.55766	0.1716	-0.42
Mof_O 	O 	0.50737	0.9724	0.8253	-0.427
Mof_O 	O 	0.4745	0.94414	0.7436	-0.422
Mof_O 	O 	0.68781	0.74819	0.0334	-0.391
Mof_O 	O 	0.68791	0.75882	0.9301	-0.384
Mof_O 	O 	0.53371	0.75072	0.0929	-0.31
Mof_O 	O 	0.5335	0.77506	0.8757	-0.288
Mof_C 	C 	0.5254	0.6306	0.1741	-0.215
Mof_C 	C 	0.5044	0.8971	0.8166	-0.181
Mof_C 	C 	0.6224	0.7577	0.9827	0.125
Mof_C 	C 	0.5208	0.5886	0.2042	0.406
Mof_C 	C 	0.4941	0.9427	0.7933	0.408
Mof_C 	C 	0.601	0.751	0.0381	-0.276
Mof_H 	H 	0.61558	0.74464	0.07451	0.15
Mof_C 	C 	0.6702	0.7535	0.9824	0.282
Mof_C 	C 	0.5293	0.8934	0.8688	0.161
Mof_H 	H 	0.53976	0.9178	0.88794	-0.005
Mof_C 	C 	0.5316	0.7101	0.1172	0.31
Mof_C 	C 	0.5597	0.7693	0.9305	0.352
Mof_C 	C 	0.5569	0.7541	0.0369	0.323
Mof_C 	C 	0.539	0.6342	0.115	0.191
Mof_H 	H 	0.54601	0.60956	0.09347	-0.014
Mof_C 	C 	0.6007	0.7662	0.9268	-0.32
Mof_H 	H 	0.61501	0.76931	0.88942	0.167
Mof_C 	C 	0.5255	0.8196	0.8605	0.26
Mof_C 	C 	0.4901	0.862	0.7861	0.131
Mof_H 	H 	0.4742	0.86573	0.75019	0.008
Mof_C 	C 	0.5429	0.6728	0.0849	-0.301
Mof_H 	H 	0.55267	0.67412	0.04424	0.146
Mof_C 	C 	0.5353	0.7632	0.9822	-0.384
Mof_H 	H 	0.50575	0.76512	0.98089	0.19
Mof_C 	C 	0.4984	0.8203	0.8068	-0.227
Mof_H 	H 	0.48765	0.79604	0.78782	0.132
Mof_C 	C 	0.515	0.6664	0.2059	0.151
Mof_H 	H 	0.50642	0.66431	0.24706	0.001
Mof_C 	C 	0.5386	0.8544	0.8926	-0.281
Mof_H 	H 	0.55346	0.85172	0.92972	0.138
Mof_C 	C 	0.5173	0.7088	0.1759	-0.272
Mof_H 	H 	0.50927	0.73342	0.19679	0.143
Mof_Cu	Cu	0.9983	0.46814	0.7997	0.905
Mof_O 	O 	0.99313	0.91235	0.2588	-0.41
Mof_O 	O 	0.96772	0.94234	0.1716	-0.419
Mof_O 	O 	0.99263	0.5276	0.8253	-0.427
Mof_O 	O 	0.0255	0.55586	0.7436	-0.422
Mof_O 	O 	0.81219	0.75181	0.0334	-0.391
Mof_O 	O 	0.81209	0.74118	0.9301	-0.384
Mof_O 	O 	0.96629	0.74928	0.0929	-0.31
Mof_O 	O 	0.9665	0.72494	0.8757	-0.288
Mof_C 	C 	0.9746	0.8694	0.1741	-0.215
Mof_C 	C 	0.9956	0.6029	0.8166	-0.181
Mof_C 	C 	0.8776	0.7423	0.9827	0.125
Mof_C 	C 	0.9792	0.9114	0.2042	0.406
Mof_C 	C 	0.0059	0.5573	0.7933	0.408
Mof_C 	C 	0.899	0.749	0.0381	-0.276
Mof_H 	H 	0.88442	0.75536	0.07451	0.15
Mof_C 	C 	0.8298	0.7465	0.9824	0.282
Mof_C 	C 	0.9707	0.6066	0.8688	0.161
Mof_H 	H 	0.96024	0.5822	0.88794	-0.005
Mof_C 	C 	0.9684	0.7899	0.1172	0.31
Mof_C 	C 	0.9403	0.7307	0.9305	0.352
Mof_C 	C 	0.9431	0.7459	0.0369	0.323
Mof_C 	C 	0.961	0.8658	0.115	0.191
Mof_H 	H 	0.95399	0.89044	0.09347	-0.014
Mof_C 	C 	0.8993	0.7338	0.9268	-0.32
Mof_H 	H 	0.88499	0.73069	0.88942	0.167
Mof_C 	C 	0.9745	0.6804	0.8605	0.26
Mof_C 	C 	0.0099	0.638	0.7861	0.131
Mof_H 	H 	0.0258	0.63427	0.75019	0.008
Mof_C 	C 	0.9571	0.8272	0.0849	-0.301
Mof_H 	H 	0.94733	0.82588	0.04424	0.146
Mof_C 	C 	0.9647	0.7368	0.9822	-0.385
Mof_H 	H 	0.99425	0.73488	0.98089	0.19
Mof_C 	C 	0.0016	0.6797	0.8068	-0.227
Mof_H 	H 	0.01235	0.70396	0.78782	0.132
Mof_C 	C 	0.985	0.8336	0.2059	0.151
Mof_H 	H 	0.99358	0.83569	0.24706	0.002
Mof_C 	C 	0.9614	0.6456	0.8926	-0.281
Mof_H 	H 	0.94654	0.64828	0.92972	0.138
Mof_C 	C 	0.9827	0.7912	0.1759	-0.272
Mof_H 	H 	0.99073	0.76658	0.19679	0.143
Mof_Cu	Cu	0.25	0.25	0.421	0.895
Mof_Cu	Cu	0.25	0.25	0.54309	0.9
Mof_Cu	Cu	0.25	0.25	0.079	0.895
Mof_Cu	Cu	0.25	0.25	0.95691	0.9
Mof_Cu	Cu	0.75	0.75	0.579	0.895
Mof_Cu	Cu	0.75	0.75	0.45691	0.9
Mof_Cu	Cu	0.75	0.75	0.921	0.895
Mof_Cu	Cu	0.75	0.75	0.04309	0.9
_end
