data_functionalizedCrystal
_audit_creation_method	'EQeq! by Chris Wilmer'
_symmetry_space_group_name_H-M	'P1'
_symmetry_Int_Tables_number	1
_symmetry_cell_setting	triclinic
loop_
_symmetry_equiv_pos_as_xyz
  x,y,z
_cell_length_a	12.4752
_cell_length_b	15.3763
_cell_length_c	17.9551
_cell_angle_alpha	69.517
_cell_angle_beta	75.565
_cell_angle_gamma	86.284
loop_
_atom_site_label
_atom_site_type_symbol
_atom_site_fract_x
_atom_site_fract_y
_atom_site_fract_z
_atom_site_charge
Mof_Zn	Zn	0.00627	0.23868	0.34808	1.233
Mof_Zn	Zn	0.12737	0.41399	0.16799	1.239
Mof_Zn	Zn	0.82217	0.96157	0.18856	1.209
Mof_O 	O 	0.1701	0.2466	0.3007	-0.484
Mof_O 	O 	0.257	0.3401	0.17599	-0.458
Mof_O 	O 	0.0123	0.3327	0.1683	-0.494
Mof_O 	O 	0.8614	0.4966	0.9396	-0.429
Mof_O 	O 	0.9813	0.8458	0.5432	-0.412
Mof_O 	O 	0.9211	0.22	0.2763	-0.465
Mof_O 	O 	0.6994	0.0458	0.1705	-0.439
Mof_O 	O 	0.1583	0.8422	0.5404	-0.297
Mof_O 	O 	0.7305	0.4331	0.9118	-0.29
Mof_O 	O 	0.7862	0.8278	0.2244	-0.428
Mof_O 	O 	0.6408	0.9694	0.3034	-0.281
Mof_O 	O 	0.8938	0.9815	0.266	-0.438
Mof_O 	O 	0.9525	0.3601	0.3569	-0.452
Mof_O 	O 	0.062	0.469	0.2512	-0.467
Mof_C 	C 	0.3486	0.2047	0.2397	-0.088
Mof_C 	C 	0.2027	0.9934	0.3928	-0.037
Mof_H 	H 	0.2548	0.981	0.4256	0.074
Mof_O 	O 	0.9688	0.8029	0.2088	-0.292
Mof_C 	C 	0.8421	0.2818	0.1616	-0.099
Mof_C 	C 	0.2283	0.0589	0.3145	0.015
Mof_C 	C 	0.337	0.1093	0.2797	0.046
Mof_C 	C 	0.6591	0.2443	0.1592	0.006
Mof_C 	C 	0.7449	0.2295	0.1987	-0.009
Mof_H 	H 	0.7366	0.1833	0.2515	0.06
Mof_C 	C 	0.4534	0.2468	0.2008	-0.025
Mof_H 	H 	0.4598	0.3122	0.1736	0.065
Mof_C 	C 	0.0536	0.0194	0.2953	-0.059
Mof_C 	C 	0.5483	0.1944	0.2012	0.036
Mof_C 	C 	0.9314	0.2761	0.2052	0.408
Mof_C 	C 	0.1004	0.945	0.4239	-0.045
Mof_C 	C 	0.4326	0.0567	0.2811	-0.041
Mof_H 	H 	0.4257	0.9916	0.3095	0.072
Mof_C 	C 	0.5377	0.097	0.2422	-0.061
Mof_C 	C 	0.9756	0.4433	0.3084	0.372
Mof_C 	C 	0.2501	0.2665	0.2395	0.383
Mof_C 	C 	0.631	0.0334	0.2395	0.314
Mof_C 	C 	0.6743	0.3088	0.0813	-0.02
Mof_H 	H 	0.616	0.3177	0.0542	0.063
Mof_C 	C 	0.856	0.349	0.0827	0.026
Mof_H 	H 	0.9222	0.3859	0.0579	0.056
Mof_C 	C 	0.0279	0.9582	0.3757	-0.001
Mof_H 	H 	0.9588	0.9251	0.3972	0.072
Mof_C 	C 	0.7718	0.3616	0.0408	-0.069
Mof_C 	C 	0.0784	0.8737	0.5083	0.304
Mof_C 	C 	0.8958	0.5173	0.3209	-0.076
Mof_C 	C 	0.1537	0.071	0.2644	-0.048
Mof_H 	H 	0.1712	0.114	0.2099	0.065
Mof_C 	C 	0.7865	0.4342	0.9578	0.331
Mof_C 	C 	0.5052	0.5647	0.4249	-0.036
Mof_C 	C 	0.9824	0.0285	0.2369	0.332
Mof_C 	C 	0.9203	0.6095	0.2733	0.013
Mof_H 	H 	0.9898	0.6273	0.235	0.06
Mof_C 	C 	0.842	0.6757	0.2823	-0.049
Mof_C 	C 	0.6035	0.5296	0.4431	0.033
Mof_C 	C 	0.7387	0.6502	0.3347	-0.027
Mof_H 	H 	0.6849	0.6963	0.3375	0.076
Mof_C 	C 	0.7914	0.49	0.3773	-0.023
Mof_H 	H 	0.7753	0.4267	0.4104	0.065
Mof_C 	C 	0.7119	0.5581	0.3835	0.016
Mof_C 	C 	0.8703	0.7769	0.2333	0.31
Mof_C 	C 	0.4036	0.537	0.4794	-0.051
Mof_H 	H 	0.338	0.5635	0.464	0.07
Mof_O 	O 	0.0169	0.0777	0.1638	-0.304
Mof_O 	O 	0.5221	0.627	0.2821	-0.194
Mof_O 	O 	0.4292	0.7169	0.3499	-0.192
Mof_C 	C 	0.4827	0.6419	0.3491	0.253
Mof_Zn	Zn	0.99373	0.76132	0.65192	1.234
Mof_Zn	Zn	0.87263	0.58601	0.83201	1.24
Mof_Zn	Zn	0.17783	0.03843	0.81144	1.21
Mof_O 	O 	0.8299	0.7534	0.6993	-0.483
Mof_O 	O 	0.743	0.6599	0.82401	-0.457
Mof_O 	O 	0.9877	0.6673	0.8317	-0.493
Mof_O 	O 	0.1386	0.5034	0.0604	-0.429
Mof_O 	O 	0.0187	0.1542	0.4568	-0.412
Mof_O 	O 	0.0789	0.78	0.7237	-0.465
Mof_O 	O 	0.3006	0.9542	0.8295	-0.439
Mof_O 	O 	0.8417	0.1578	0.4596	-0.297
Mof_O 	O 	0.2695	0.5669	0.0882	-0.29
Mof_O 	O 	0.2138	0.1722	0.7756	-0.428
Mof_O 	O 	0.3592	0.0306	0.6966	-0.281
Mof_O 	O 	0.1062	0.0185	0.734	-0.438
Mof_O 	O 	0.0475	0.6399	0.6431	-0.452
Mof_O 	O 	0.938	0.531	0.7488	-0.467
Mof_C 	C 	0.6514	0.7953	0.7603	-0.088
Mof_C 	C 	0.7973	0.0066	0.6072	-0.037
Mof_H 	H 	0.7452	0.019	0.5744	0.074
Mof_O 	O 	0.0312	0.1971	0.7912	-0.292
Mof_C 	C 	0.1579	0.7182	0.8384	-0.099
Mof_C 	C 	0.7717	0.9411	0.6855	0.015
Mof_C 	C 	0.663	0.8907	0.7203	0.046
Mof_C 	C 	0.3409	0.7557	0.8408	0.006
Mof_C 	C 	0.2551	0.7705	0.8013	-0.009
Mof_H 	H 	0.2634	0.8167	0.7485	0.06
Mof_C 	C 	0.5466	0.7532	0.7992	-0.025
Mof_H 	H 	0.5402	0.6878	0.8264	0.065
Mof_C 	C 	0.9464	0.9806	0.7047	-0.059
Mof_C 	C 	0.4517	0.8056	0.7988	0.036
Mof_C 	C 	0.0686	0.7239	0.7948	0.408
Mof_C 	C 	0.8996	0.055	0.5761	-0.045
Mof_C 	C 	0.5674	0.9433	0.7189	-0.041
Mof_H 	H 	0.5743	0.0084	0.6905	0.072
Mof_C 	C 	0.4623	0.903	0.7578	-0.061
Mof_C 	C 	0.0244	0.5567	0.6916	0.372
Mof_C 	C 	0.7499	0.7335	0.7605	0.383
Mof_C 	C 	0.369	0.9666	0.7605	0.314
Mof_C 	C 	0.3257	0.6912	0.9187	-0.02
Mof_H 	H 	0.384	0.6823	0.9458	0.063
Mof_C 	C 	0.144	0.651	0.9173	0.026
Mof_H 	H 	0.0778	0.6141	0.9421	0.056
Mof_C 	C 	0.9721	0.0418	0.6243	-0.001
Mof_H 	H 	0.0412	0.0749	0.6028	0.072
Mof_C 	C 	0.2282	0.6384	0.9592	-0.069
Mof_C 	C 	0.9216	0.1263	0.4917	0.304
Mof_C 	C 	0.1042	0.4827	0.6791	-0.076
Mof_C 	C 	0.8463	0.929	0.7356	-0.048
Mof_H 	H 	0.8288	0.886	0.7901	0.065
Mof_C 	C 	0.2135	0.5658	0.0422	0.331
Mof_C 	C 	0.4948	0.4353	0.5751	-0.036
Mof_C 	C 	0.0176	0.9715	0.7631	0.332
Mof_C 	C 	0.0797	0.3905	0.7267	0.013
Mof_H 	H 	0.0102	0.3727	0.765	0.06
Mof_C 	C 	0.158	0.3243	0.7177	-0.049
Mof_C 	C 	0.3965	0.4704	0.5569	0.033
Mof_C 	C 	0.2613	0.3498	0.6653	-0.027
Mof_H 	H 	0.3151	0.3037	0.6625	0.076
Mof_C 	C 	0.2086	0.51	0.6227	-0.023
Mof_H 	H 	0.2247	0.5733	0.5896	0.065
Mof_C 	C 	0.2881	0.4419	0.6165	0.016
Mof_C 	C 	0.1297	0.2231	0.7667	0.31
Mof_C 	C 	0.5964	0.463	0.5206	-0.051
Mof_H 	H 	0.662	0.4365	0.536	0.07
Mof_O 	O 	0.9831	0.9223	0.8362	-0.304
Mof_O 	O 	0.4779	0.373	0.7179	-0.194
Mof_O 	O 	0.5708	0.2831	0.6501	-0.192
Mof_C 	C 	0.5173	0.3581	0.6509	0.253
_end
