data_functionalizedCrystal
_audit_creation_method	'EQeq! by Chris Wilmer'
_symmetry_space_group_name_H-M	'P1'
_symmetry_Int_Tables_number	1
_symmetry_cell_setting	triclinic
loop_
_symmetry_equiv_pos_as_xyz
  x,y,z
_cell_length_a	14.976
_cell_length_b	15.08
_cell_length_c	15.116
_cell_angle_alpha	105.192
_cell_angle_beta	103.772
_cell_angle_gamma	117.338
loop_
_atom_site_label
_atom_site_type_symbol
_atom_site_fract_x
_atom_site_fract_y
_atom_site_fract_z
_atom_site_charge
Mof_Tb	Tb	0.81649	0.11122	0.67978	2.287
Mof_Tb	Tb	0.55734	0.8679	0.69755	2.238
Mof_Tb	Tb	0.41612	0.06087	0.64151	2.158
Mof_Tb	Tb	0.18351	0.88878	0.32022	2.287
Mof_Tb	Tb	0.44266	0.1321	0.30245	2.239
Mof_Tb	Tb	0.58388	0.93913	0.35849	2.159
Mof_P 	P 	0.6159	0.1394	0.522	0.55
Mof_P 	P 	0.6936	0.169	0.7984	0.535
Mof_P 	P 	0.6259	0.8137	0.5232	0.524
Mof_P 	P 	0.3841	0.8606	0.478	0.55
Mof_P 	P 	0.3064	0.831	0.2016	0.535
Mof_P 	P 	0.3741	0.1863	0.4768	0.524
Mof_H 	H 	0.7993	0.6222	0.0659	0.272
Mof_H 	H 	0.7527	0.3181	0.7092	0.135
Mof_H 	H 	0.6563	0.0916	0.9363	0.122
Mof_H 	H 	0.836	0.8918	0.5572	0.119
Mof_H 	H 	0.6754	0.3151	0.5279	0.103
Mof_H 	H 	0.7757	0.3049	0.5564	0.106
Mof_H 	H 	0.8491	0.5122	0.6912	0.044
Mof_H 	H 	0.9093	0.4527	0.7062	0.047
Mof_H 	H 	0.9661	0.5923	0.8618	0.062
Mof_H 	H 	0.9045	0.4772	0.8632	0.083
Mof_H 	H 	0.8087	0.5954	0.8361	0.075
Mof_H 	H 	0.6408	0.4497	0.8143	0.064
Mof_H 	H 	0.6936	0.3843	0.8323	0.066
Mof_H 	H 	0.5904	0.3137	0.658	0.038
Mof_H 	H 	0.6634	0.4312	0.6648	0.05
Mof_H 	H 	0.837	0.2165	0.9425	0.122
Mof_H 	H 	0.8013	0.2985	0.9673	0.11
Mof_H 	H 	0.7174	0.2902	0.0773	0.057
Mof_H 	H 	0.6134	0.2201	0.9751	0.049
Mof_H 	H 	0.5654	0.1938	0.1077	0.042
Mof_H 	H 	0.5295	0.083	0.0247	0.049
Mof_H 	H 	0.7137	0.2058	0.2079	0.089
Mof_H 	H 	0.7686	0.0888	0.1664	0.045
Mof_H 	H 	0.6652	0.0133	0.0638	0.053
Mof_H 	H 	0.8127	0.1152	0.0329	0.064
Mof_H 	H 	0.8403	0.224	0.1125	0.054
Mof_H 	H 	0.6694	0.6827	0.4881	0.105
Mof_H 	H 	0.7181	0.7491	0.6042	0.11
Mof_H 	H 	0.8885	0.7536	0.6007	0.055
Mof_H 	H 	0.9055	0.8535	0.6838	0.061
Mof_H 	H 	0.0743	0.9004	0.6735	0.043
Mof_H 	H 	0.0391	0.9744	0.6434	0.053
Mof_H 	H 	0.0081	0.7869	0.5054	0.094
Mof_H 	H 	0.9265	0.8139	0.3744	0.034
Mof_H 	H 	0.945	0.9196	0.4503	0.045
Mof_H 	H 	0.759	0.7734	0.3921	0.051
Mof_H 	H 	0.7974	0.7032	0.4263	0.058
Mof_H 	H 	0.9995	0.1656	0.0235	0.056
Mof_H 	H 	0.1295	0.174	0.1586	0.04
Mof_H 	H 	0.2401	0.0674	0.9632	0.04
Mof_H 	H 	0.1116	0.0597	0.83	0.042
Mof_H 	H 	0.0103	0.4058	0.5798	0.041
Mof_H 	H 	0.1609	0.5502	0.5716	0.045
Mof_H 	H 	0.3683	0.5815	0.8223	0.049
Mof_H 	H 	0.2155	0.4467	0.8337	0.038
Mof_H 	H 	0.2007	0.3778	0.9341	0.272
Mof_H 	H 	0.2473	0.6819	0.2908	0.135
Mof_H 	H 	0.3437	0.9084	0.0637	0.122
Mof_H 	H 	0.164	0.1082	0.4428	0.119
Mof_H 	H 	0.3246	0.6849	0.4721	0.103
Mof_H 	H 	0.2243	0.6951	0.4436	0.106
Mof_H 	H 	0.1509	0.4878	0.3088	0.044
Mof_H 	H 	0.0907	0.5473	0.2938	0.047
Mof_H 	H 	0.0339	0.4077	0.1382	0.062
Mof_H 	H 	0.0955	0.5228	0.1368	0.083
Mof_H 	H 	0.1913	0.4046	0.1639	0.075
Mof_H 	H 	0.3592	0.5503	0.1857	0.064
Mof_H 	H 	0.3064	0.6157	0.1677	0.066
Mof_H 	H 	0.4096	0.6863	0.342	0.038
Mof_H 	H 	0.3366	0.5688	0.3352	0.05
Mof_H 	H 	0.163	0.7835	0.0575	0.122
Mof_H 	H 	0.1987	0.7015	0.0327	0.11
Mof_H 	H 	0.2826	0.7098	0.9227	0.057
Mof_H 	H 	0.3866	0.7799	0.0249	0.049
Mof_H 	H 	0.4346	0.8062	0.8923	0.042
Mof_H 	H 	0.4705	0.917	0.9753	0.049
Mof_H 	H 	0.2863	0.7942	0.7921	0.089
Mof_H 	H 	0.2314	0.9112	0.8336	0.045
Mof_H 	H 	0.3348	0.9867	0.9362	0.053
Mof_H 	H 	0.1873	0.8848	0.9671	0.064
Mof_H 	H 	0.1597	0.776	0.8875	0.054
Mof_H 	H 	0.3306	0.3173	0.5119	0.105
Mof_H 	H 	0.2819	0.2509	0.3958	0.11
Mof_H 	H 	0.1115	0.2464	0.3993	0.055
Mof_H 	H 	0.0945	0.1465	0.3162	0.061
Mof_H 	H 	0.9257	0.0996	0.3265	0.043
Mof_H 	H 	0.9609	0.0256	0.3566	0.053
Mof_H 	H 	0.9919	0.2131	0.4946	0.094
Mof_H 	H 	0.0735	0.1861	0.6256	0.034
Mof_H 	H 	0.055	0.0804	0.5497	0.045
Mof_H 	H 	0.241	0.2266	0.6079	0.051
Mof_H 	H 	0.2026	0.2968	0.5737	0.058
Mof_H 	H 	0.0005	0.8344	0.9765	0.056
Mof_H 	H 	0.8705	0.826	0.8414	0.04
Mof_H 	H 	0.7599	0.9326	0.0368	0.04
Mof_H 	H 	0.8884	0.9403	0.17	0.042
Mof_H 	H 	0.9897	0.5942	0.4202	0.041
Mof_H 	H 	0.8391	0.4498	0.4284	0.045
Mof_H 	H 	0.6317	0.4185	0.1777	0.049
Mof_H 	H 	0.7845	0.5533	0.1663	0.038
Mof_C 	C 	0.7107	0.2904	0.5673	-0.226
Mof_C 	C 	0.8561	0.4654	0.7209	-0.04
Mof_C 	C 	0.8957	0.5232	0.8333	-0.105
Mof_C 	C 	0.8109	0.5423	0.8588	-0.109
Mof_C 	C 	0.694	0.4345	0.804	-0.101
Mof_C 	C 	0.6631	0.3807	0.6925	-0.034
Mof_C 	C 	0.8412	0.588	0.9757	0.392
Mof_C 	C 	0.7743	0.2218	0.9338	-0.237
Mof_C 	C 	0.6599	0.2161	0.0277	-0.07
Mof_C 	C 	0.5924	0.1536	0.0761	-0.039
Mof_C 	C 	0.6574	0.1342	0.1535	-0.176
Mof_C 	C 	0.7189	0.0886	0.1127	-0.047
Mof_C 	C 	0.781	0.1509	0.0623	-0.069
Mof_C 	C 	0.5877	0.0652	0.1993	0.451
Mof_C 	C 	0.7085	0.7555	0.5416	-0.232
Mof_C 	C 	0.9059	0.8274	0.6188	-0.077
Mof_C 	C 	0.0203	0.9	0.6239	-0.037
Mof_C 	C 	0.0223	0.8593	0.521	-0.193
Mof_C 	C 	0.9293	0.8474	0.4394	-0.03
Mof_C 	C 	0.8158	0.7771	0.4419	-0.078
Mof_C 	C 	0.1365	0.9334	0.5233	0.479
Mof_C 	C 	0.9549	0.0962	0.83	0.32
Mof_C 	C 	0.0374	0.1026	0.9129	-0.055
Mof_C 	C 	0.047	0.1426	0.0106	-0.03
Mof_C 	C 	0.1257	0.1505	0.0916	-0.013
Mof_C 	C 	0.1965	0.1233	0.0712	-0.064
Mof_C 	C 	0.1907	0.0876	0.9757	-0.017
Mof_C 	C 	0.1125	0.0798	0.8961	-0.025
Mof_C 	C 	0.2782	0.1264	0.1542	0.327
Mof_C 	C 	0.0036	0.3169	0.7066	0.309
Mof_C 	C 	0.1017	0.4127	0.7054	-0.07
Mof_C 	C 	0.0842	0.4428	0.6298	-0.022
Mof_C 	C 	0.1726	0.527	0.6243	-0.034
Mof_C 	C 	0.2781	0.5772	0.6958	-0.056
Mof_C 	C 	0.2946	0.5473	0.7731	-0.037
Mof_C 	C 	0.2051	0.4658	0.7781	-0.016
Mof_C 	C 	0.3742	0.6726	0.6935	0.293
Mof_C 	C 	0.2893	0.7096	0.4327	-0.226
Mof_C 	C 	0.1439	0.5346	0.2791	-0.04
Mof_C 	C 	0.1043	0.4768	0.1667	-0.105
Mof_C 	C 	0.1891	0.4577	0.1412	-0.109
Mof_C 	C 	0.306	0.5655	0.196	-0.101
Mof_C 	C 	0.3369	0.6193	0.3075	-0.034
Mof_C 	C 	0.1588	0.412	0.0243	0.392
Mof_C 	C 	0.2257	0.7782	0.0662	-0.237
Mof_C 	C 	0.3401	0.7839	0.9723	-0.07
Mof_C 	C 	0.4076	0.8464	0.9239	-0.039
Mof_C 	C 	0.3426	0.8658	0.8465	-0.176
Mof_C 	C 	0.2811	0.9114	0.8873	-0.047
Mof_C 	C 	0.219	0.8491	0.9377	-0.069
Mof_C 	C 	0.4123	0.9348	0.8007	0.451
Mof_C 	C 	0.2915	0.2445	0.4584	-0.232
Mof_C 	C 	0.0941	0.1726	0.3812	-0.077
Mof_C 	C 	0.9797	0.1	0.3761	-0.037
Mof_C 	C 	0.9777	0.1407	0.479	-0.193
Mof_C 	C 	0.0707	0.1526	0.5606	-0.03
Mof_C 	C 	0.1842	0.2229	0.5581	-0.078
Mof_C 	C 	0.8635	0.0666	0.4767	0.479
Mof_C 	C 	0.0451	0.9038	0.17	0.32
Mof_C 	C 	0.9626	0.8974	0.0871	-0.055
Mof_C 	C 	0.953	0.8574	0.9894	-0.03
Mof_C 	C 	0.8743	0.8495	0.9084	-0.013
Mof_C 	C 	0.8035	0.8767	0.9288	-0.064
Mof_C 	C 	0.8093	0.9124	0.0243	-0.017
Mof_C 	C 	0.8875	0.9202	0.1039	-0.025
Mof_C 	C 	0.7218	0.8736	0.8458	0.327
Mof_C 	C 	0.9964	0.6831	0.2934	0.309
Mof_C 	C 	0.8983	0.5873	0.2946	-0.07
Mof_C 	C 	0.9158	0.5572	0.3702	-0.022
Mof_C 	C 	0.8274	0.473	0.3757	-0.034
Mof_C 	C 	0.7219	0.4228	0.3042	-0.056
Mof_C 	C 	0.7054	0.4527	0.2269	-0.037
Mof_C 	C 	0.7949	0.5342	0.2219	-0.016
Mof_C 	C 	0.6258	0.3274	0.3065	0.293
Mof_N 	N 	0.7467	0.3575	0.6754	-0.143
Mof_N 	N 	0.7107	0.1604	0.9839	-0.129
Mof_N 	N 	0.8187	0.8225	0.5423	-0.124
Mof_N 	N 	0.2533	0.6425	0.3246	-0.143
Mof_N 	N 	0.2893	0.8396	0.0161	-0.129
Mof_N 	N 	0.1813	0.1775	0.4577	-0.124
Mof_O 	O 	0.5556	0.0936	0.407	-0.631
Mof_O 	O 	0.5436	0.124	0.5785	-0.546
Mof_O 	O 	0.6818	0.0872	0.5367	-0.637
Mof_O 	O 	0.9344	0.6155	0.0304	-0.278
Mof_O 	O 	0.7744	0.5982	0.0021	-0.493
Mof_O 	O 	0.7796	0.2427	0.768	-0.462
Mof_O 	O 	0.6731	0.0558	0.7491	-0.661
Mof_O 	O 	0.5925	0.1703	0.7824	-0.503
Mof_O 	O 	0.4963	0.0536	0.1845	-0.518
Mof_O 	O 	0.6293	0.0268	0.2487	-0.511
Mof_O 	O 	0.6123	0.8223	0.4239	-0.502
Mof_O 	O 	0.6892	0.9239	0.6143	-0.666
Mof_O 	O 	0.5211	0.7399	0.5343	-0.458
Mof_O 	O 	0.2185	0.9621	0.5974	-0.521
Mof_O 	O 	0.139	0.9583	0.4515	-0.54
Mof_O 	O 	0.9093	0.267	0.6361	-0.443
Mof_O 	O 	0.0175	0.2856	0.775	-0.389
Mof_O 	O 	0.356	0.7243	0.6445	-0.424
Mof_O 	O 	0.4722	0.702	0.74	-0.396
Mof_O 	O 	0.9412	0.0539	0.7398	-0.425
Mof_O 	O 	0.897	0.1314	0.8489	-0.447
Mof_O 	O 	0.3045	0.1799	0.2451	-0.424
Mof_O 	O 	0.32	0.0725	0.1308	-0.434
Mof_O 	O 	0.4444	0.9064	0.593	-0.631
Mof_O 	O 	0.4564	0.876	0.4215	-0.546
Mof_O 	O 	0.3182	0.9128	0.4633	-0.637
Mof_O 	O 	0.0656	0.3845	0.9696	-0.278
Mof_O 	O 	0.2256	0.4018	0.9979	-0.493
Mof_O 	O 	0.2204	0.7573	0.232	-0.462
Mof_O 	O 	0.3269	0.9442	0.2509	-0.661
Mof_O 	O 	0.4075	0.8297	0.2176	-0.503
Mof_O 	O 	0.5037	0.9464	0.8155	-0.518
Mof_O 	O 	0.3707	0.9732	0.7513	-0.511
Mof_O 	O 	0.3877	0.1777	0.5761	-0.502
Mof_O 	O 	0.3108	0.0761	0.3857	-0.666
Mof_O 	O 	0.4789	0.2601	0.4657	-0.458
Mof_O 	O 	0.7815	0.0379	0.4026	-0.521
Mof_O 	O 	0.861	0.0417	0.5485	-0.54
Mof_O 	O 	0.0907	0.733	0.3639	-0.443
Mof_O 	O 	0.9825	0.7144	0.225	-0.389
Mof_O 	O 	0.644	0.2757	0.3555	-0.424
Mof_O 	O 	0.5278	0.298	0.26	-0.396
Mof_O 	O 	0.0588	0.9461	0.2602	-0.425
Mof_O 	O 	0.103	0.8686	0.1511	-0.447
Mof_O 	O 	0.6955	0.8201	0.7549	-0.424
Mof_O 	O 	0.68	0.9275	0.8692	-0.434
_end
