data_functionalizedCrystal
_audit_creation_method	'EQeq! by Chris Wilmer'
_symmetry_space_group_name_H-M	'P1'
_symmetry_Int_Tables_number	1
_symmetry_cell_setting	triclinic
loop_
_symmetry_equiv_pos_as_xyz
  x,y,z
_cell_length_a	35.0241
_cell_length_b	13.3396
_cell_length_c	9.1834
_cell_angle_alpha	90
_cell_angle_beta	104.116
_cell_angle_gamma	90
loop_
_atom_site_label
_atom_site_type_symbol
_atom_site_fract_x
_atom_site_fract_y
_atom_site_fract_z
_atom_site_charge
Mof_Ni	Ni	0.36843	0.21665	0.04755	1.058
Mof_C 	C 	0.34988	0.2045	0.3511	0.131
Mof_H 	H 	0.3763	0.1864	0.3825	-0.03
Mof_N 	N 	0.33481	0.222	0.2042	-0.252
Mof_O 	O 	0.36746	0.3663	0.7579	-0.299
Mof_O 	O 	0.17504	0.6306	0.5871	-0.425
Mof_O 	O 	0.33864	0.3395	0.9476	-0.413
Mof_O 	O 	0.13924	0.5551	0.7252	-0.321
Mof_N 	N 	0.41153	0.3035	0.1907	-0.266
Mof_N 	N 	0.26805	0.2416	0.5251	-0.101
Mof_C 	C 	0.30689	0.4458	0.7504	-0.208
Mof_H 	H 	0.3085	0.481	0.6647	0.121
Mof_C 	C 	0.20706	0.5166	0.7727	-0.226
Mof_H 	H 	0.2061	0.4839	0.8611	0.123
Mof_C 	C 	0.29636	0.2469	0.1613	0.126
Mof_H 	H 	0.2855	0.2595	0.0601	-0.008
Mof_C 	C 	0.28884	0.2365	0.41	0.196
Mof_C 	C 	0.27235	0.2547	0.2588	-0.219
Mof_H 	H 	0.2459	0.2716	0.2247	0.13
Mof_C 	C 	0.27523	0.4568	0.8023	0.022
Mof_H 	H 	0.2753	0.4269	0.8938	0.04
Mof_C 	C 	0.32853	0.212	0.4568	-0.217
Mof_H 	H 	0.3403	0.2009	0.5578	0.127
Mof_C 	C 	0.17148	0.5715	0.6888	0.377
Mof_C 	C 	0.34049	0.3788	0.8238	0.373
Mof_C 	C 	0.24021	0.5124	0.7269	0.035
Mof_H 	H 	0.2411	0.5474	0.6403	0.033
Mof_C 	C 	0.4338	0.4588	0.309	-0.207
Mof_H 	H 	0.4293	0.5268	0.3193	0.127
Mof_C 	C 	0.4674	0.4144	0.3906	0.177
Mof_C 	C 	0.40645	0.3997	0.21	0.128
Mof_H 	H 	0.3835	0.4298	0.1549	-0.006
Mof_N 	N 	0.5038	0.4599	0.5145	-0.091
Mof_C 	C 	0.47305	0.3145	0.3738	-0.205
Mof_H 	H 	0.4955	0.2826	0.43	0.101
Mof_C 	C 	0.44495	0.2616	0.2719	0.111
Mof_H 	H 	0.4492	0.1938	0.2585	-0.045
Mof_Ni	Ni	0.86843	0.71665	0.04755	1.059
Mof_C 	C 	0.84988	0.7045	0.3511	0.132
Mof_H 	H 	0.8763	0.6864	0.3825	-0.03
Mof_N 	N 	0.83481	0.722	0.2042	-0.252
Mof_O 	O 	0.86746	0.8663	0.7579	-0.299
Mof_O 	O 	0.67504	0.1306	0.5871	-0.425
Mof_O 	O 	0.83864	0.8395	0.9476	-0.414
Mof_O 	O 	0.63924	0.0551	0.7252	-0.32
Mof_N 	N 	0.91153	0.8035	0.1907	-0.265
Mof_N 	N 	0.76805	0.7416	0.5251	-0.101
Mof_C 	C 	0.80689	0.9458	0.7504	-0.208
Mof_H 	H 	0.8085	0.981	0.6647	0.121
Mof_C 	C 	0.70706	0.0166	0.7727	-0.224
Mof_H 	H 	0.7061	0.9839	0.8611	0.122
Mof_C 	C 	0.79636	0.7469	0.1613	0.126
Mof_H 	H 	0.7855	0.7595	0.0601	-0.008
Mof_C 	C 	0.78884	0.7365	0.41	0.196
Mof_C 	C 	0.77235	0.7547	0.2588	-0.218
Mof_H 	H 	0.7459	0.7716	0.2247	0.13
Mof_C 	C 	0.77523	0.9568	0.8023	0.022
Mof_H 	H 	0.7753	0.9269	0.8938	0.04
Mof_C 	C 	0.82853	0.712	0.4568	-0.217
Mof_H 	H 	0.8403	0.7009	0.5578	0.127
Mof_C 	C 	0.67148	0.0715	0.6888	0.377
Mof_C 	C 	0.84049	0.8788	0.8238	0.373
Mof_C 	C 	0.74021	0.0124	0.7269	0.034
Mof_H 	H 	0.7411	0.0474	0.6403	0.033
Mof_C 	C 	0.9338	0.9588	0.309	-0.206
Mof_H 	H 	0.9293	0.0268	0.3193	0.126
Mof_C 	C 	0.9674	0.9144	0.3906	0.176
Mof_C 	C 	0.90645	0.8997	0.21	0.127
Mof_H 	H 	0.8835	0.9298	0.1549	-0.005
Mof_N 	N 	0.0038	0.9599	0.5145	-0.091
Mof_C 	C 	0.97305	0.8145	0.3738	-0.205
Mof_H 	H 	0.9955	0.7826	0.43	0.101
Mof_C 	C 	0.94495	0.7616	0.2719	0.11
Mof_H 	H 	0.9492	0.6938	0.2585	-0.045
Mof_Ni	Ni	0.63157	0.21665	0.45245	1.059
Mof_C 	C 	0.65012	0.2045	0.1489	0.133
Mof_H 	H 	0.6237	0.1864	0.1175	-0.031
Mof_N 	N 	0.66519	0.222	0.2958	-0.252
Mof_O 	O 	0.63254	0.3663	0.7421	-0.299
Mof_O 	O 	0.82496	0.6306	0.9129	-0.425
Mof_O 	O 	0.66136	0.3395	0.5524	-0.413
Mof_O 	O 	0.86076	0.5551	0.7748	-0.321
Mof_N 	N 	0.58847	0.3035	0.3093	-0.266
Mof_N 	N 	0.73195	0.2416	0.9749	-0.1
Mof_C 	C 	0.69311	0.4458	0.7496	-0.208
Mof_H 	H 	0.6915	0.481	0.8353	0.122
Mof_C 	C 	0.79294	0.5166	0.7273	-0.226
Mof_H 	H 	0.7939	0.4839	0.6389	0.123
Mof_C 	C 	0.70364	0.2469	0.3387	0.126
Mof_H 	H 	0.7145	0.2595	0.4399	-0.008
Mof_C 	C 	0.71116	0.2365	0.09	0.196
Mof_C 	C 	0.72765	0.2547	0.2412	-0.219
Mof_H 	H 	0.7541	0.2716	0.2753	0.13
Mof_C 	C 	0.72477	0.4568	0.6977	0.023
Mof_H 	H 	0.7247	0.4269	0.6062	0.04
Mof_C 	C 	0.67147	0.212	0.0432	-0.219
Mof_H 	H 	0.6597	0.2009	0.9422	0.128
Mof_C 	C 	0.82852	0.5715	0.8112	0.377
Mof_C 	C 	0.65951	0.3788	0.6762	0.373
Mof_C 	C 	0.75979	0.5124	0.7731	0.034
Mof_H 	H 	0.7589	0.5474	0.8597	0.033
Mof_C 	C 	0.5662	0.4588	0.191	-0.207
Mof_H 	H 	0.5707	0.5268	0.1807	0.127
Mof_C 	C 	0.5326	0.4144	0.1094	0.177
Mof_C 	C 	0.59355	0.3997	0.29	0.128
Mof_H 	H 	0.6165	0.4298	0.3451	-0.006
Mof_N 	N 	0.4962	0.4599	0.9855	-0.091
Mof_C 	C 	0.52695	0.3145	0.1262	-0.205
Mof_H 	H 	0.5045	0.2826	0.07	0.101
Mof_C 	C 	0.55505	0.2616	0.2281	0.111
Mof_H 	H 	0.5508	0.1938	0.2415	-0.045
Mof_Ni	Ni	0.13157	0.71665	0.45245	1.059
Mof_C 	C 	0.15012	0.7045	0.1489	0.132
Mof_H 	H 	0.1237	0.6864	0.1175	-0.03
Mof_N 	N 	0.16519	0.722	0.2958	-0.252
Mof_O 	O 	0.13254	0.8663	0.7421	-0.299
Mof_O 	O 	0.32496	0.1306	0.9129	-0.424
Mof_O 	O 	0.16136	0.8395	0.5524	-0.413
Mof_O 	O 	0.36076	0.0551	0.7748	-0.32
Mof_N 	N 	0.08847	0.8035	0.3093	-0.265
Mof_N 	N 	0.23195	0.7416	0.9749	-0.101
Mof_C 	C 	0.19311	0.9458	0.7496	-0.208
Mof_H 	H 	0.1915	0.981	0.8353	0.121
Mof_C 	C 	0.29294	0.0166	0.7273	-0.225
Mof_H 	H 	0.2939	0.9839	0.6389	0.122
Mof_C 	C 	0.20364	0.7469	0.3387	0.126
Mof_H 	H 	0.2145	0.7595	0.4399	-0.008
Mof_C 	C 	0.21116	0.7365	0.09	0.196
Mof_C 	C 	0.22765	0.7547	0.2412	-0.218
Mof_H 	H 	0.2541	0.7716	0.2753	0.13
Mof_C 	C 	0.22477	0.9568	0.6977	0.021
Mof_H 	H 	0.2247	0.9269	0.6062	0.04
Mof_C 	C 	0.17147	0.712	0.0432	-0.216
Mof_H 	H 	0.1597	0.7009	0.9422	0.126
Mof_C 	C 	0.32852	0.0715	0.8112	0.377
Mof_C 	C 	0.15951	0.8788	0.6762	0.373
Mof_C 	C 	0.25979	0.0124	0.7731	0.035
Mof_H 	H 	0.2589	0.0474	0.8597	0.033
Mof_C 	C 	0.0662	0.9588	0.191	-0.205
Mof_H 	H 	0.0707	0.0268	0.1807	0.126
Mof_C 	C 	0.0326	0.9144	0.1094	0.177
Mof_C 	C 	0.09355	0.8997	0.29	0.127
Mof_H 	H 	0.1165	0.9298	0.3451	-0.005
Mof_N 	N 	0.9962	0.9599	0.9855	-0.091
Mof_C 	C 	0.02695	0.8145	0.1262	-0.205
Mof_H 	H 	0.0045	0.7826	0.07	0.101
Mof_C 	C 	0.05505	0.7616	0.2281	0.111
Mof_H 	H 	0.0508	0.6938	0.2415	-0.045
Mof_Ni	Ni	0.63157	0.78335	0.95245	1.059
Mof_C 	C 	0.65012	0.7955	0.6489	0.132
Mof_H 	H 	0.6237	0.8136	0.6175	-0.03
Mof_N 	N 	0.66519	0.778	0.7958	-0.252
Mof_O 	O 	0.63254	0.6337	0.2421	-0.299
Mof_O 	O 	0.82496	0.3694	0.4129	-0.425
Mof_O 	O 	0.66136	0.6605	0.0524	-0.413
Mof_O 	O 	0.86076	0.4449	0.2748	-0.321
Mof_N 	N 	0.58847	0.6965	0.8093	-0.266
Mof_N 	N 	0.73195	0.7584	0.4749	-0.101
Mof_C 	C 	0.69311	0.5542	0.2496	-0.208
Mof_H 	H 	0.6915	0.519	0.3353	0.121
Mof_C 	C 	0.79294	0.4834	0.2273	-0.226
Mof_H 	H 	0.7939	0.5161	0.1389	0.123
Mof_C 	C 	0.70364	0.7531	0.8387	0.126
Mof_H 	H 	0.7145	0.7405	0.9399	-0.008
Mof_C 	C 	0.71116	0.7635	0.59	0.196
Mof_C 	C 	0.72765	0.7453	0.7412	-0.219
Mof_H 	H 	0.7541	0.7284	0.7753	0.13
Mof_C 	C 	0.72477	0.5432	0.1977	0.022
Mof_H 	H 	0.7247	0.5731	0.1062	0.04
Mof_C 	C 	0.67147	0.788	0.5432	-0.217
Mof_H 	H 	0.6597	0.7991	0.4422	0.127
Mof_C 	C 	0.82852	0.4285	0.3112	0.377
Mof_C 	C 	0.65951	0.6212	0.1762	0.373
Mof_C 	C 	0.75979	0.4876	0.2731	0.035
Mof_H 	H 	0.7589	0.4526	0.3597	0.033
Mof_C 	C 	0.5662	0.5412	0.691	-0.207
Mof_H 	H 	0.5707	0.4732	0.6807	0.127
Mof_C 	C 	0.5326	0.5856	0.6094	0.177
Mof_C 	C 	0.59355	0.6003	0.79	0.128
Mof_H 	H 	0.6165	0.5702	0.8451	-0.006
Mof_N 	N 	0.4962	0.5401	0.4855	-0.091
Mof_C 	C 	0.52695	0.6855	0.6262	-0.205
Mof_H 	H 	0.5045	0.7174	0.57	0.101
Mof_C 	C 	0.55505	0.7384	0.7281	0.111
Mof_H 	H 	0.5508	0.8062	0.7415	-0.045
Mof_Ni	Ni	0.13157	0.28335	0.95245	1.059
Mof_C 	C 	0.15012	0.2955	0.6489	0.132
Mof_H 	H 	0.1237	0.3136	0.6175	-0.03
Mof_N 	N 	0.16519	0.278	0.7958	-0.252
Mof_O 	O 	0.13254	0.1337	0.2421	-0.299
Mof_O 	O 	0.32496	0.8694	0.4129	-0.425
Mof_O 	O 	0.16136	0.1605	0.0524	-0.414
Mof_O 	O 	0.36076	0.9449	0.2748	-0.32
Mof_N 	N 	0.08847	0.1965	0.8093	-0.265
Mof_N 	N 	0.23195	0.2584	0.4749	-0.101
Mof_C 	C 	0.19311	0.0542	0.2496	-0.208
Mof_H 	H 	0.1915	0.019	0.3353	0.121
Mof_C 	C 	0.29294	0.9834	0.2273	-0.224
Mof_H 	H 	0.2939	0.0161	0.1389	0.122
Mof_C 	C 	0.20364	0.2531	0.8387	0.126
Mof_H 	H 	0.2145	0.2405	0.9399	-0.008
Mof_C 	C 	0.21116	0.2635	0.59	0.196
Mof_C 	C 	0.22765	0.2453	0.7412	-0.218
Mof_H 	H 	0.2541	0.2284	0.7753	0.13
Mof_C 	C 	0.22477	0.0432	0.1977	0.022
Mof_H 	H 	0.2247	0.0731	0.1062	0.04
Mof_C 	C 	0.17147	0.288	0.5432	-0.217
Mof_H 	H 	0.1597	0.2991	0.4422	0.127
Mof_C 	C 	0.32852	0.9285	0.3112	0.377
Mof_C 	C 	0.15951	0.1212	0.1762	0.373
Mof_C 	C 	0.25979	0.9876	0.2731	0.034
Mof_H 	H 	0.2589	0.9526	0.3597	0.033
Mof_C 	C 	0.0662	0.0412	0.691	-0.206
Mof_H 	H 	0.0707	0.9732	0.6807	0.126
Mof_C 	C 	0.0326	0.0856	0.6094	0.176
Mof_C 	C 	0.09355	0.1003	0.79	0.127
Mof_H 	H 	0.1165	0.0702	0.8451	-0.005
Mof_N 	N 	0.9962	0.0401	0.4855	-0.091
Mof_C 	C 	0.02695	0.1855	0.6262	-0.205
Mof_H 	H 	0.0045	0.2174	0.57	0.101
Mof_C 	C 	0.05505	0.2384	0.7281	0.11
Mof_H 	H 	0.0508	0.3062	0.7415	-0.045
Mof_Ni	Ni	0.36843	0.78335	0.54755	1.059
Mof_C 	C 	0.34988	0.7955	0.8511	0.133
Mof_H 	H 	0.3763	0.8136	0.8825	-0.031
Mof_N 	N 	0.33481	0.778	0.7042	-0.252
Mof_O 	O 	0.36746	0.6337	0.2579	-0.299
Mof_O 	O 	0.17504	0.3694	0.0871	-0.425
Mof_O 	O 	0.33864	0.6605	0.4476	-0.413
Mof_O 	O 	0.13924	0.4449	0.2252	-0.321
Mof_N 	N 	0.41153	0.6965	0.6907	-0.266
Mof_N 	N 	0.26805	0.7584	0.0251	-0.1
Mof_C 	C 	0.30689	0.5542	0.2504	-0.208
Mof_H 	H 	0.3085	0.519	0.1647	0.122
Mof_C 	C 	0.20706	0.4834	0.2727	-0.226
Mof_H 	H 	0.2061	0.5161	0.3611	0.123
Mof_C 	C 	0.29636	0.7531	0.6613	0.126
Mof_H 	H 	0.2855	0.7405	0.5601	-0.008
Mof_C 	C 	0.28884	0.7635	0.91	0.196
Mof_C 	C 	0.27235	0.7453	0.7588	-0.219
Mof_H 	H 	0.2459	0.7284	0.7247	0.13
Mof_C 	C 	0.27523	0.5432	0.3023	0.023
Mof_H 	H 	0.2753	0.5731	0.3938	0.04
Mof_C 	C 	0.32853	0.788	0.9568	-0.219
Mof_H 	H 	0.3403	0.7991	0.0578	0.128
Mof_C 	C 	0.17148	0.4285	0.1888	0.377
Mof_C 	C 	0.34049	0.6212	0.3238	0.373
Mof_C 	C 	0.24021	0.4876	0.2269	0.034
Mof_H 	H 	0.2411	0.4526	0.1403	0.033
Mof_C 	C 	0.4338	0.5412	0.809	-0.207
Mof_H 	H 	0.4293	0.4732	0.8193	0.127
Mof_C 	C 	0.4674	0.5856	0.8906	0.177
Mof_C 	C 	0.40645	0.6003	0.71	0.128
Mof_H 	H 	0.3835	0.5702	0.6549	-0.006
Mof_N 	N 	0.5038	0.5401	0.0145	-0.091
Mof_C 	C 	0.47305	0.6855	0.8738	-0.205
Mof_H 	H 	0.4955	0.7174	0.93	0.101
Mof_C 	C 	0.44495	0.7384	0.7719	0.111
Mof_H 	H 	0.4492	0.8062	0.7585	-0.045
Mof_Ni	Ni	0.86843	0.28335	0.54755	1.059
Mof_C 	C 	0.84988	0.2955	0.8511	0.132
Mof_H 	H 	0.8763	0.3136	0.8825	-0.03
Mof_N 	N 	0.83481	0.278	0.7042	-0.252
Mof_O 	O 	0.86746	0.1337	0.2579	-0.299
Mof_O 	O 	0.67504	0.8694	0.0871	-0.424
Mof_O 	O 	0.83864	0.1605	0.4476	-0.413
Mof_O 	O 	0.63924	0.9449	0.2252	-0.32
Mof_N 	N 	0.91153	0.1965	0.6907	-0.265
Mof_N 	N 	0.76805	0.2584	0.0251	-0.101
Mof_C 	C 	0.80689	0.0542	0.2504	-0.208
Mof_H 	H 	0.8085	0.019	0.1647	0.121
Mof_C 	C 	0.70706	0.9834	0.2727	-0.225
Mof_H 	H 	0.7061	0.0161	0.3611	0.122
Mof_C 	C 	0.79636	0.2531	0.6613	0.126
Mof_H 	H 	0.7855	0.2405	0.5601	-0.008
Mof_C 	C 	0.78884	0.2635	0.91	0.196
Mof_C 	C 	0.77235	0.2453	0.7588	-0.218
Mof_H 	H 	0.7459	0.2284	0.7247	0.13
Mof_C 	C 	0.77523	0.0432	0.3023	0.021
Mof_H 	H 	0.7753	0.0731	0.3938	0.04
Mof_C 	C 	0.82853	0.288	0.9568	-0.216
Mof_H 	H 	0.8403	0.2991	0.0578	0.126
Mof_C 	C 	0.67148	0.9285	0.1888	0.377
Mof_C 	C 	0.84049	0.1212	0.3238	0.373
Mof_C 	C 	0.74021	0.9876	0.2269	0.035
Mof_H 	H 	0.7411	0.9526	0.1403	0.033
Mof_C 	C 	0.9338	0.0412	0.809	-0.205
Mof_H 	H 	0.9293	0.9732	0.8193	0.126
Mof_C 	C 	0.9674	0.0856	0.8906	0.177
Mof_C 	C 	0.90645	0.1003	0.71	0.127
Mof_H 	H 	0.8835	0.0702	0.6549	-0.005
Mof_N 	N 	0.0038	0.0401	0.0145	-0.091
Mof_C 	C 	0.97305	0.1855	0.8738	-0.205
Mof_H 	H 	0.9955	0.2174	0.93	0.101
Mof_C 	C 	0.94495	0.2384	0.7719	0.111
Mof_H 	H 	0.9492	0.3062	0.7585	-0.045
_end
