data_functionalizedCrystal
_audit_creation_method	'EQeq! by Chris Wilmer'
_symmetry_space_group_name_H-M	'P1'
_symmetry_Int_Tables_number	1
_symmetry_cell_setting	triclinic
loop_
_symmetry_equiv_pos_as_xyz
  x,y,z
_cell_length_a	33.493
_cell_length_b	53.707
_cell_length_c	22.036
_cell_angle_alpha	90
_cell_angle_beta	90
_cell_angle_gamma	90
loop_
_atom_site_label
_atom_site_type_symbol
_atom_site_fract_x
_atom_site_fract_y
_atom_site_fract_z
_atom_site_charge
Mof_In	In	0.72092	0.72132	0.56868	2.165
Mof_In	In	0.70772	0.55447	0.71191	2.58
Mof_In	In	0.67285	0.88054	0.29403	2.543
Mof_O 	O 	0.9016	0.69254	0.9034	-0.493
Mof_O 	O 	0.90021	0.68096	0.9977	-0.526
Mof_O 	O 	0.7344	0.6902	0.6235	-0.607
Mof_O 	O 	0.7423	0.7145	0.702	-0.201
Mof_O 	O 	0.7138	0.59831	0.6703	-0.443
Mof_O 	O 	0.7373	0.58495	0.7542	-0.603
Mof_O 	O 	0.76673	0.62394	0.2474	-0.508
Mof_O 	O 	0.82105	0.62317	0.1935	-0.511
Mof_O 	O 	0.63889	0.63848	0.0312	-0.569
Mof_O 	O 	0.6347	0.62758	0.1274	-0.384
Mof_O 	O 	0.4832	0.70512	0.374	-0.547
Mof_O 	O 	0.5219	0.71333	0.4506	-0.475
Mof_O 	O 	0.7006	0.74836	0.5026	-0.723
Mof_O 	O 	0.7289	0.78506	0.5097	-0.673
Mof_O 	O 	0.69302	0.85069	0.3598	-0.513
Mof_O 	O 	0.6538	0.84038	0.2846	-0.51
Mof_O 	O 	0.5594	0.76463	0.982	-0.516
Mof_O 	O 	0.53807	0.788	0.0568	-0.491
Mof_O 	O 	0.5692	0.67294	0.0203	-0.459
Mof_O 	O 	0.5577	0.6583	0.1109	-0.544
Mof_C 	C 	0.8427	0.67291	0.9384	0.008
Mof_C 	C 	0.8265	0.67054	0.8805	-0.097
Mof_H 	H 	0.8401	0.677	0.8473	0.084
Mof_C 	C 	0.7902	0.6586	0.8722	0.067
Mof_C 	C 	0.7698	0.6496	0.9234	-0.128
Mof_H 	H 	0.7455	0.6416	0.9179	0.081
Mof_C 	C 	0.7846	0.6524	0.9822	0.06
Mof_C 	C 	0.8211	0.66414	0.9892	-0.115
Mof_H 	H 	0.8315	0.6663	0.028	0.101
Mof_C 	C 	0.7736	0.65445	0.8102	-0.025
Mof_C 	C 	0.7697	0.6749	0.7706	-0.012
Mof_H 	H 	0.779	0.6905	0.782	0.057
Mof_C 	C 	0.7522	0.67151	0.7152	-0.088
Mof_C 	C 	0.7406	0.64829	0.6955	0.03
Mof_H 	H 	0.7306	0.6461	0.6565	0.039
Mof_C 	C 	0.7444	0.6279	0.7353	-0.095
Mof_C 	C 	0.7602	0.6314	0.7929	-0.005
Mof_H 	H 	0.7617	0.6181	0.8198	0.053
Mof_C 	C 	0.7621	0.64417	0.0366	-0.006
Mof_C 	C 	0.7813	0.63806	0.0881	-0.031
Mof_H 	H 	0.8091	0.6386	0.089	0.066
Mof_C 	C 	0.7608	0.63107	0.1396	-0.048
Mof_C 	C 	0.7193	0.63028	0.1395	-0.003
Mof_H 	H 	0.7052	0.6261	0.1744	0.061
Mof_C 	C 	0.6993	0.63596	0.0858	-0.063
Mof_C 	C 	0.7203	0.64287	0.0352	0.001
Mof_H 	H 	0.7067	0.6467	0.9996	0.044
Mof_C 	C 	0.884	0.68276	0.9467	0.306
Mof_C 	C 	0.7412	0.6938	0.6789	0.174
Mof_C 	C 	0.731	0.60237	0.7175	0.388
Mof_C 	C 	0.7839	0.62579	0.1971	0.325
Mof_C 	C 	0.6546	0.63346	0.0835	0.337
Mof_C 	C 	0.5439	0.72628	0.3521	0.008
Mof_C 	C 	0.5739	0.74115	0.3738	-0.114
Mof_H 	H 	0.5777	0.7426	0.4154	0.079
Mof_C 	C 	0.5986	0.75399	0.3343	0.098
Mof_C 	C 	0.593	0.75124	0.2727	-0.151
Mof_H 	H 	0.6092	0.76	0.2459	0.092
Mof_C 	C 	0.5635	0.7357	0.25	0.074
Mof_C 	C 	0.5386	0.72288	0.2895	-0.101
Mof_H 	H 	0.5189	0.7123	0.2748	0.087
Mof_C 	C 	0.6306	0.77078	0.36	-0.09
Mof_C 	C 	0.6527	0.76348	0.4094	0.105
Mof_H 	H 	0.6481	0.7479	0.4265	-0.012
Mof_C 	C 	0.6815	0.77852	0.4343	-0.254
Mof_C 	C 	0.6881	0.80203	0.409	0.122
Mof_H 	H 	0.7072	0.8126	0.4254	0.008
Mof_C 	C 	0.666	0.80932	0.3595	-0.121
Mof_C 	C 	0.638	0.79355	0.3346	0.04
Mof_H 	H 	0.6239	0.7985	0.3002	0.039
Mof_C 	C 	0.5601	0.73071	0.1831	-0.011
Mof_C 	C 	0.557	0.75074	0.1417	-0.031
Mof_H 	H 	0.5564	0.767	0.1559	0.063
Mof_C 	C 	0.5549	0.74615	0.0808	-0.05
Mof_C 	C 	0.5571	0.72241	0.0591	-0.003
Mof_H 	H 	0.5574	0.7196	0.0175	0.069
Mof_C 	C 	0.5589	0.70216	0.099	-0.054
Mof_C 	C 	0.5596	0.70677	0.1611	-0.029
Mof_H 	H 	0.5598	0.6935	0.1881	0.061
Mof_C 	C 	0.5151	0.71422	0.3953	0.303
Mof_C 	C 	0.7049	0.76988	0.4867	0.637
Mof_C 	C 	0.6713	0.83481	0.3328	0.337
Mof_C 	C 	0.5501	0.76748	0.0383	0.325
Mof_C 	C 	0.5621	0.6767	0.0754	0.316
Mof_O 	O 	0.7718	0.7117	0.689	-0.177
Mof_C 	C 	0.7559	0.692	0.6719	0.189
Mof_In	In	0.72092	0.22132	0.06868	2.166
Mof_In	In	0.70772	0.05447	0.21191	2.582
Mof_In	In	0.67285	0.38054	0.79403	2.542
Mof_O 	O 	0.9016	0.19254	0.4034	-0.495
Mof_O 	O 	0.90021	0.18096	0.4977	-0.523
Mof_O 	O 	0.7344	0.1902	0.1235	-0.604
Mof_O 	O 	0.7423	0.2145	0.202	-0.199
Mof_O 	O 	0.7138	0.09831	0.1703	-0.44
Mof_O 	O 	0.7373	0.08495	0.2542	-0.601
Mof_O 	O 	0.76673	0.12394	0.7474	-0.507
Mof_O 	O 	0.82105	0.12317	0.6935	-0.51
Mof_O 	O 	0.63889	0.13848	0.5312	-0.57
Mof_O 	O 	0.6347	0.12758	0.6274	-0.382
Mof_O 	O 	0.4832	0.20512	0.874	-0.545
Mof_O 	O 	0.5219	0.21333	0.9506	-0.478
Mof_O 	O 	0.7006	0.24836	0.0026	-0.701
Mof_O 	O 	0.7289	0.28506	0.0097	-0.653
Mof_O 	O 	0.69302	0.35069	0.8598	-0.514
Mof_O 	O 	0.6538	0.34038	0.7846	-0.51
Mof_O 	O 	0.5594	0.26463	0.482	-0.505
Mof_O 	O 	0.53807	0.288	0.5568	-0.495
Mof_O 	O 	0.5692	0.17294	0.5203	-0.463
Mof_O 	O 	0.5577	0.1583	0.6109	-0.543
Mof_C 	C 	0.8427	0.17291	0.4384	-0.002
Mof_C 	C 	0.8265	0.17054	0.3805	-0.09
Mof_H 	H 	0.8401	0.177	0.3473	0.083
Mof_C 	C 	0.7902	0.1586	0.3722	0.063
Mof_C 	C 	0.7698	0.1496	0.4234	-0.124
Mof_H 	H 	0.7455	0.1416	0.4179	0.082
Mof_C 	C 	0.7846	0.1524	0.4822	0.059
Mof_C 	C 	0.8211	0.16414	0.4892	-0.085
Mof_H 	H 	0.8315	0.1663	0.528	0.082
Mof_C 	C 	0.7736	0.15445	0.3102	-0.022
Mof_C 	C 	0.7697	0.1749	0.2706	-0.014
Mof_H 	H 	0.779	0.1905	0.282	0.058
Mof_C 	C 	0.7522	0.17151	0.2152	-0.085
Mof_C 	C 	0.7406	0.14829	0.1955	0.028
Mof_H 	H 	0.7306	0.1461	0.1565	0.041
Mof_C 	C 	0.7444	0.1279	0.2353	-0.092
Mof_C 	C 	0.7602	0.1314	0.2929	-0.008
Mof_H 	H 	0.7617	0.1181	0.3198	0.055
Mof_C 	C 	0.7621	0.14417	0.5366	-0.004
Mof_C 	C 	0.7813	0.13806	0.5881	-0.036
Mof_H 	H 	0.8091	0.1386	0.589	0.065
Mof_C 	C 	0.7608	0.13107	0.6396	-0.044
Mof_C 	C 	0.7193	0.13028	0.6395	-0.011
Mof_H 	H 	0.7052	0.1261	0.6744	0.063
Mof_C 	C 	0.6993	0.13596	0.5858	-0.051
Mof_C 	C 	0.7203	0.14287	0.5352	-0.03
Mof_H 	H 	0.7067	0.1467	0.4996	0.065
Mof_C 	C 	0.884	0.18276	0.4467	0.31
Mof_C 	C 	0.7412	0.1938	0.1789	0.174
Mof_C 	C 	0.731	0.10237	0.2175	0.387
Mof_C 	C 	0.7839	0.12579	0.6971	0.323
Mof_C 	C 	0.6546	0.13346	0.5835	0.332
Mof_C 	C 	0.5439	0.22628	0.8521	0.004
Mof_C 	C 	0.5739	0.24115	0.8738	-0.111
Mof_H 	H 	0.5777	0.2426	0.9154	0.076
Mof_C 	C 	0.5986	0.25399	0.8343	0.093
Mof_C 	C 	0.593	0.25124	0.7727	-0.149
Mof_H 	H 	0.6092	0.26	0.7459	0.09
Mof_C 	C 	0.5635	0.2357	0.75	0.071
Mof_C 	C 	0.5386	0.22288	0.7895	-0.098
Mof_H 	H 	0.5189	0.2123	0.7748	0.086
Mof_C 	C 	0.6306	0.27078	0.86	-0.085
Mof_C 	C 	0.6527	0.26348	0.9094	0.094
Mof_H 	H 	0.6481	0.2479	0.9265	-0.012
Mof_C 	C 	0.6815	0.27852	0.9343	-0.241
Mof_C 	C 	0.6881	0.30203	0.909	0.112
Mof_H 	H 	0.7072	0.3126	0.9254	0.008
Mof_C 	C 	0.666	0.30932	0.8595	-0.117
Mof_C 	C 	0.638	0.29355	0.8346	0.035
Mof_H 	H 	0.6239	0.2985	0.8002	0.04
Mof_C 	C 	0.5601	0.23071	0.6831	-0.01
Mof_C 	C 	0.557	0.25074	0.6417	-0.035
Mof_H 	H 	0.5564	0.267	0.6559	0.063
Mof_C 	C 	0.5549	0.24615	0.5808	-0.047
Mof_C 	C 	0.5571	0.22241	0.5591	-0.006
Mof_H 	H 	0.5574	0.2196	0.5175	0.067
Mof_C 	C 	0.5589	0.20216	0.599	-0.055
Mof_C 	C 	0.5596	0.20677	0.6611	-0.031
Mof_H 	H 	0.5598	0.1935	0.6881	0.061
Mof_C 	C 	0.5151	0.21422	0.8953	0.304
Mof_C 	C 	0.7049	0.26988	0.9867	0.598
Mof_C 	C 	0.6713	0.33481	0.8328	0.335
Mof_C 	C 	0.5501	0.26748	0.5383	0.308
Mof_C 	C 	0.5621	0.1767	0.5754	0.316
Mof_O 	O 	0.7718	0.2117	0.189	-0.176
Mof_C 	C 	0.7559	0.192	0.1719	0.188
Mof_In	In	0.22092	0.72132	0.06868	2.166
Mof_In	In	0.20772	0.55447	0.21191	2.582
Mof_In	In	0.17285	0.88054	0.79403	2.543
Mof_O 	O 	0.4016	0.69254	0.4034	-0.495
Mof_O 	O 	0.40021	0.68096	0.4977	-0.523
Mof_O 	O 	0.2344	0.6902	0.1235	-0.604
Mof_O 	O 	0.2423	0.7145	0.202	-0.199
Mof_O 	O 	0.2138	0.59831	0.1703	-0.44
Mof_O 	O 	0.2373	0.58495	0.2542	-0.601
Mof_O 	O 	0.26673	0.62394	0.7474	-0.507
Mof_O 	O 	0.32105	0.62317	0.6935	-0.51
Mof_O 	O 	0.13889	0.63848	0.5312	-0.57
Mof_O 	O 	0.1347	0.62758	0.6274	-0.382
Mof_O 	O 	0.9832	0.70512	0.874	-0.549
Mof_O 	O 	0.0219	0.71333	0.9506	-0.477
Mof_O 	O 	0.2006	0.74836	0.0026	-0.701
Mof_O 	O 	0.2289	0.78506	0.0097	-0.653
Mof_O 	O 	0.19302	0.85069	0.8598	-0.514
Mof_O 	O 	0.1538	0.84038	0.7846	-0.51
Mof_O 	O 	0.0594	0.76463	0.482	-0.504
Mof_O 	O 	0.03807	0.788	0.5568	-0.494
Mof_O 	O 	0.0692	0.67294	0.5203	-0.462
Mof_O 	O 	0.0577	0.6583	0.6109	-0.543
Mof_C 	C 	0.3427	0.67291	0.4384	-0.002
Mof_C 	C 	0.3265	0.67054	0.3805	-0.09
Mof_H 	H 	0.3401	0.677	0.3473	0.083
Mof_C 	C 	0.2902	0.6586	0.3722	0.064
Mof_C 	C 	0.2698	0.6496	0.4234	-0.124
Mof_H 	H 	0.2455	0.6416	0.4179	0.082
Mof_C 	C 	0.2846	0.6524	0.4822	0.059
Mof_C 	C 	0.3211	0.66414	0.4892	-0.085
Mof_H 	H 	0.3315	0.6663	0.528	0.082
Mof_C 	C 	0.2736	0.65445	0.3102	-0.022
Mof_C 	C 	0.2697	0.6749	0.2706	-0.014
Mof_H 	H 	0.279	0.6905	0.282	0.058
Mof_C 	C 	0.2522	0.67151	0.2152	-0.085
Mof_C 	C 	0.2406	0.64829	0.1955	0.028
Mof_H 	H 	0.2306	0.6461	0.1565	0.041
Mof_C 	C 	0.2444	0.6279	0.2353	-0.092
Mof_C 	C 	0.2602	0.6314	0.2929	-0.008
Mof_H 	H 	0.2617	0.6181	0.3198	0.055
Mof_C 	C 	0.2621	0.64417	0.5366	-0.004
Mof_C 	C 	0.2813	0.63806	0.5881	-0.036
Mof_H 	H 	0.3091	0.6386	0.589	0.065
Mof_C 	C 	0.2608	0.63107	0.6396	-0.044
Mof_C 	C 	0.2193	0.63028	0.6395	-0.011
Mof_H 	H 	0.2052	0.6261	0.6744	0.063
Mof_C 	C 	0.1993	0.63596	0.5858	-0.051
Mof_C 	C 	0.2203	0.64287	0.5352	-0.03
Mof_H 	H 	0.2067	0.6467	0.4996	0.065
Mof_C 	C 	0.384	0.68276	0.4467	0.31
Mof_C 	C 	0.2412	0.6938	0.1789	0.174
Mof_C 	C 	0.231	0.60237	0.2175	0.388
Mof_C 	C 	0.2839	0.62579	0.6971	0.323
Mof_C 	C 	0.1546	0.63346	0.5835	0.332
Mof_C 	C 	0.0439	0.72628	0.8521	0.003
Mof_C 	C 	0.0739	0.74115	0.8738	-0.11
Mof_H 	H 	0.0777	0.7426	0.9154	0.076
Mof_C 	C 	0.0986	0.75399	0.8343	0.093
Mof_C 	C 	0.093	0.75124	0.7727	-0.148
Mof_H 	H 	0.1092	0.76	0.7459	0.09
Mof_C 	C 	0.0635	0.7357	0.75	0.071
Mof_C 	C 	0.0386	0.72288	0.7895	-0.097
Mof_H 	H 	0.0189	0.7123	0.7748	0.087
Mof_C 	C 	0.1306	0.77078	0.86	-0.085
Mof_C 	C 	0.1527	0.76348	0.9094	0.094
Mof_H 	H 	0.1481	0.7479	0.9265	-0.012
Mof_C 	C 	0.1815	0.77852	0.9343	-0.241
Mof_C 	C 	0.1881	0.80203	0.909	0.112
Mof_H 	H 	0.2072	0.8126	0.9254	0.008
Mof_C 	C 	0.166	0.80932	0.8595	-0.117
Mof_C 	C 	0.138	0.79355	0.8346	0.035
Mof_H 	H 	0.1239	0.7985	0.8002	0.04
Mof_C 	C 	0.0601	0.73071	0.6831	-0.009
Mof_C 	C 	0.057	0.75074	0.6417	-0.035
Mof_H 	H 	0.0564	0.767	0.6559	0.064
Mof_C 	C 	0.0549	0.74615	0.5808	-0.046
Mof_C 	C 	0.0571	0.72241	0.5591	-0.006
Mof_H 	H 	0.0574	0.7196	0.5175	0.067
Mof_C 	C 	0.0589	0.70216	0.599	-0.054
Mof_C 	C 	0.0596	0.70677	0.6611	-0.031
Mof_H 	H 	0.0598	0.6935	0.6881	0.061
Mof_C 	C 	0.0151	0.71422	0.8953	0.308
Mof_C 	C 	0.2049	0.76988	0.9867	0.598
Mof_C 	C 	0.1713	0.83481	0.8328	0.335
Mof_C 	C 	0.0501	0.76748	0.5383	0.308
Mof_C 	C 	0.0621	0.6767	0.5754	0.316
Mof_O 	O 	0.2718	0.7117	0.189	-0.176
Mof_C 	C 	0.2559	0.692	0.1719	0.188
Mof_In	In	0.22092	0.22132	0.56868	2.167
Mof_In	In	0.20772	0.05447	0.71191	2.581
Mof_In	In	0.17285	0.38054	0.29403	2.544
Mof_O 	O 	0.4016	0.19254	0.9034	-0.492
Mof_O 	O 	0.40021	0.18096	0.9977	-0.526
Mof_O 	O 	0.2344	0.1902	0.6235	-0.606
Mof_O 	O 	0.2423	0.2145	0.702	-0.2
Mof_O 	O 	0.2138	0.09831	0.6703	-0.442
Mof_O 	O 	0.2373	0.08495	0.7542	-0.602
Mof_O 	O 	0.26673	0.12394	0.2474	-0.507
Mof_O 	O 	0.32105	0.12317	0.1935	-0.51
Mof_O 	O 	0.13889	0.13848	0.0312	-0.569
Mof_O 	O 	0.1347	0.12758	0.1274	-0.384
Mof_O 	O 	0.9832	0.20512	0.374	-0.55
Mof_O 	O 	0.0219	0.21333	0.4506	-0.474
Mof_O 	O 	0.2006	0.24836	0.5026	-0.722
Mof_O 	O 	0.2289	0.28506	0.5097	-0.673
Mof_O 	O 	0.19302	0.35069	0.3598	-0.513
Mof_O 	O 	0.1538	0.34038	0.2846	-0.51
Mof_O 	O 	0.0594	0.26463	0.982	-0.515
Mof_O 	O 	0.03807	0.288	0.0568	-0.491
Mof_O 	O 	0.0692	0.17294	0.0203	-0.459
Mof_O 	O 	0.0577	0.1583	0.1109	-0.544
Mof_C 	C 	0.3427	0.17291	0.9384	0.008
Mof_C 	C 	0.3265	0.17054	0.8805	-0.097
Mof_H 	H 	0.3401	0.177	0.8473	0.084
Mof_C 	C 	0.2902	0.1586	0.8722	0.067
Mof_C 	C 	0.2698	0.1496	0.9234	-0.128
Mof_H 	H 	0.2455	0.1416	0.9179	0.081
Mof_C 	C 	0.2846	0.1524	0.9822	0.06
Mof_C 	C 	0.3211	0.16414	0.9892	-0.115
Mof_H 	H 	0.3315	0.1663	0.028	0.101
Mof_C 	C 	0.2736	0.15445	0.8102	-0.025
Mof_C 	C 	0.2697	0.1749	0.7706	-0.012
Mof_H 	H 	0.279	0.1905	0.782	0.057
Mof_C 	C 	0.2522	0.17151	0.7152	-0.088
Mof_C 	C 	0.2406	0.14829	0.6955	0.03
Mof_H 	H 	0.2306	0.1461	0.6565	0.04
Mof_C 	C 	0.2444	0.1279	0.7353	-0.095
Mof_C 	C 	0.2602	0.1314	0.7929	-0.005
Mof_H 	H 	0.2617	0.1181	0.8198	0.053
Mof_C 	C 	0.2621	0.14417	0.0366	-0.006
Mof_C 	C 	0.2813	0.13806	0.0881	-0.031
Mof_H 	H 	0.3091	0.1386	0.089	0.066
Mof_C 	C 	0.2608	0.13107	0.1396	-0.047
Mof_C 	C 	0.2193	0.13028	0.1395	-0.003
Mof_H 	H 	0.2052	0.1261	0.1744	0.061
Mof_C 	C 	0.1993	0.13596	0.0858	-0.063
Mof_C 	C 	0.2203	0.14287	0.0352	0.001
Mof_H 	H 	0.2067	0.1467	0.9996	0.045
Mof_C 	C 	0.384	0.18276	0.9467	0.306
Mof_C 	C 	0.2412	0.1938	0.6789	0.174
Mof_C 	C 	0.231	0.10237	0.7175	0.388
Mof_C 	C 	0.2839	0.12579	0.1971	0.324
Mof_C 	C 	0.1546	0.13346	0.0835	0.337
Mof_C 	C 	0.0439	0.22628	0.3521	0.007
Mof_C 	C 	0.0739	0.24115	0.3738	-0.113
Mof_H 	H 	0.0777	0.2426	0.4154	0.079
Mof_C 	C 	0.0986	0.25399	0.3343	0.097
Mof_C 	C 	0.093	0.25124	0.2727	-0.151
Mof_H 	H 	0.1092	0.26	0.2459	0.092
Mof_C 	C 	0.0635	0.2357	0.25	0.074
Mof_C 	C 	0.0386	0.22288	0.2895	-0.099
Mof_H 	H 	0.0189	0.2123	0.2748	0.088
Mof_C 	C 	0.1306	0.27078	0.36	-0.09
Mof_C 	C 	0.1527	0.26348	0.4094	0.104
Mof_H 	H 	0.1481	0.2479	0.4265	-0.012
Mof_C 	C 	0.1815	0.27852	0.4343	-0.254
Mof_C 	C 	0.1881	0.30203	0.409	0.121
Mof_H 	H 	0.2072	0.3126	0.4254	0.008
Mof_C 	C 	0.166	0.30932	0.3595	-0.121
Mof_C 	C 	0.138	0.29355	0.3346	0.04
Mof_H 	H 	0.1239	0.2985	0.3002	0.039
Mof_C 	C 	0.0601	0.23071	0.1831	-0.011
Mof_C 	C 	0.057	0.25074	0.1417	-0.031
Mof_H 	H 	0.0564	0.267	0.1559	0.063
Mof_C 	C 	0.0549	0.24615	0.0808	-0.05
Mof_C 	C 	0.0571	0.22241	0.0591	-0.003
Mof_H 	H 	0.0574	0.2196	0.0175	0.07
Mof_C 	C 	0.0589	0.20216	0.099	-0.054
Mof_C 	C 	0.0596	0.20677	0.1611	-0.029
Mof_H 	H 	0.0598	0.1935	0.1881	0.061
Mof_C 	C 	0.0151	0.21422	0.3953	0.307
Mof_C 	C 	0.2049	0.26988	0.4867	0.637
Mof_C 	C 	0.1713	0.33481	0.3328	0.337
Mof_C 	C 	0.0501	0.26748	0.0383	0.324
Mof_C 	C 	0.0621	0.1767	0.0754	0.316
Mof_O 	O 	0.2718	0.2117	0.689	-0.177
Mof_C 	C 	0.2559	0.192	0.6719	0.189
Mof_In	In	0.27908	0.27868	0.56868	2.166
Mof_In	In	0.29228	0.44553	0.71191	2.581
Mof_In	In	0.32715	0.11946	0.29403	2.544
Mof_O 	O 	0.0984	0.30746	0.9034	-0.492
Mof_O 	O 	0.09979	0.31904	0.9977	-0.526
Mof_O 	O 	0.2656	0.3098	0.6235	-0.606
Mof_O 	O 	0.2577	0.2855	0.702	-0.2
Mof_O 	O 	0.2862	0.40169	0.6703	-0.442
Mof_O 	O 	0.2627	0.41505	0.7542	-0.602
Mof_O 	O 	0.23327	0.37606	0.2474	-0.507
Mof_O 	O 	0.17895	0.37683	0.1935	-0.509
Mof_O 	O 	0.36111	0.36152	0.0312	-0.569
Mof_O 	O 	0.3653	0.37242	0.1274	-0.384
Mof_O 	O 	0.5168	0.29488	0.374	-0.547
Mof_O 	O 	0.4781	0.28667	0.4506	-0.475
Mof_O 	O 	0.2994	0.25164	0.5026	-0.723
Mof_O 	O 	0.2711	0.21494	0.5097	-0.673
Mof_O 	O 	0.30698	0.14931	0.3598	-0.513
Mof_O 	O 	0.3462	0.15962	0.2846	-0.51
Mof_O 	O 	0.4406	0.23537	0.982	-0.516
Mof_O 	O 	0.46193	0.212	0.0568	-0.491
Mof_O 	O 	0.4308	0.32706	0.0203	-0.459
Mof_O 	O 	0.4423	0.3417	0.1109	-0.544
Mof_C 	C 	0.1573	0.32709	0.9384	0.008
Mof_C 	C 	0.1735	0.32946	0.8805	-0.097
Mof_H 	H 	0.1599	0.323	0.8473	0.085
Mof_C 	C 	0.2098	0.3414	0.8722	0.067
Mof_C 	C 	0.2302	0.3504	0.9234	-0.128
Mof_H 	H 	0.2545	0.3584	0.9179	0.081
Mof_C 	C 	0.2154	0.3476	0.9822	0.06
Mof_C 	C 	0.1789	0.33586	0.9892	-0.115
Mof_H 	H 	0.1685	0.3337	0.028	0.101
Mof_C 	C 	0.2264	0.34555	0.8102	-0.025
Mof_C 	C 	0.2303	0.3251	0.7706	-0.012
Mof_H 	H 	0.221	0.3095	0.782	0.057
Mof_C 	C 	0.2478	0.32849	0.7152	-0.088
Mof_C 	C 	0.2594	0.35171	0.6955	0.03
Mof_H 	H 	0.2694	0.3539	0.6565	0.039
Mof_C 	C 	0.2556	0.3721	0.7353	-0.095
Mof_C 	C 	0.2398	0.3686	0.7929	-0.005
Mof_H 	H 	0.2383	0.3819	0.8198	0.053
Mof_C 	C 	0.2379	0.35583	0.0366	-0.006
Mof_C 	C 	0.2187	0.36194	0.0881	-0.031
Mof_H 	H 	0.1909	0.3614	0.089	0.066
Mof_C 	C 	0.2392	0.36893	0.1396	-0.047
Mof_C 	C 	0.2807	0.36972	0.1395	-0.003
Mof_H 	H 	0.2948	0.3739	0.1744	0.061
Mof_C 	C 	0.3007	0.36404	0.0858	-0.063
Mof_C 	C 	0.2797	0.35713	0.0352	0.001
Mof_H 	H 	0.2933	0.3533	0.9996	0.045
Mof_C 	C 	0.116	0.31724	0.9467	0.306
Mof_C 	C 	0.2588	0.3062	0.6789	0.174
Mof_C 	C 	0.269	0.39763	0.7175	0.388
Mof_C 	C 	0.2161	0.37421	0.1971	0.324
Mof_C 	C 	0.3454	0.36654	0.0835	0.337
Mof_C 	C 	0.4561	0.27372	0.3521	0.008
Mof_C 	C 	0.4261	0.25885	0.3738	-0.114
Mof_H 	H 	0.4223	0.2574	0.4154	0.079
Mof_C 	C 	0.4014	0.24601	0.3343	0.098
Mof_C 	C 	0.407	0.24876	0.2727	-0.151
Mof_H 	H 	0.3908	0.24	0.2459	0.092
Mof_C 	C 	0.4365	0.2643	0.25	0.074
Mof_C 	C 	0.4614	0.27712	0.2895	-0.101
Mof_H 	H 	0.4811	0.2877	0.2748	0.087
Mof_C 	C 	0.3694	0.22922	0.36	-0.09
Mof_C 	C 	0.3473	0.23652	0.4094	0.105
Mof_H 	H 	0.3519	0.2521	0.4265	-0.012
Mof_C 	C 	0.3185	0.22148	0.4343	-0.254
Mof_C 	C 	0.3119	0.19797	0.409	0.122
Mof_H 	H 	0.2928	0.1874	0.4254	0.008
Mof_C 	C 	0.334	0.19068	0.3595	-0.121
Mof_C 	C 	0.362	0.20645	0.3346	0.04
Mof_H 	H 	0.3761	0.2015	0.3002	0.039
Mof_C 	C 	0.4399	0.26929	0.1831	-0.011
Mof_C 	C 	0.443	0.24926	0.1417	-0.031
Mof_H 	H 	0.4436	0.233	0.1559	0.063
Mof_C 	C 	0.4451	0.25385	0.0808	-0.05
Mof_C 	C 	0.4429	0.27759	0.0591	-0.003
Mof_H 	H 	0.4426	0.2804	0.0175	0.069
Mof_C 	C 	0.4411	0.29784	0.099	-0.054
Mof_C 	C 	0.4404	0.29323	0.1611	-0.029
Mof_H 	H 	0.4402	0.3065	0.1881	0.061
Mof_C 	C 	0.4849	0.28578	0.3953	0.303
Mof_C 	C 	0.2951	0.23012	0.4867	0.637
Mof_C 	C 	0.3287	0.16519	0.3328	0.337
Mof_C 	C 	0.4499	0.23252	0.0383	0.325
Mof_C 	C 	0.4379	0.3233	0.0754	0.316
Mof_O 	O 	0.2282	0.2883	0.689	-0.177
Mof_C 	C 	0.2441	0.308	0.6719	0.188
Mof_In	In	0.27908	0.77868	0.06868	2.166
Mof_In	In	0.29228	0.94553	0.21191	2.582
Mof_In	In	0.32715	0.61946	0.79403	2.542
Mof_O 	O 	0.0984	0.80746	0.4034	-0.495
Mof_O 	O 	0.09979	0.81904	0.4977	-0.523
Mof_O 	O 	0.2656	0.8098	0.1235	-0.604
Mof_O 	O 	0.2577	0.7855	0.202	-0.199
Mof_O 	O 	0.2862	0.90169	0.1703	-0.44
Mof_O 	O 	0.2627	0.91505	0.2542	-0.601
Mof_O 	O 	0.23327	0.87606	0.7474	-0.507
Mof_O 	O 	0.17895	0.87683	0.6935	-0.51
Mof_O 	O 	0.36111	0.86152	0.5312	-0.57
Mof_O 	O 	0.3653	0.87242	0.6274	-0.382
Mof_O 	O 	0.5168	0.79488	0.874	-0.545
Mof_O 	O 	0.4781	0.78667	0.9506	-0.478
Mof_O 	O 	0.2994	0.75164	0.0026	-0.701
Mof_O 	O 	0.2711	0.71494	0.0097	-0.653
Mof_O 	O 	0.30698	0.64931	0.8598	-0.514
Mof_O 	O 	0.3462	0.65962	0.7846	-0.51
Mof_O 	O 	0.4406	0.73537	0.482	-0.505
Mof_O 	O 	0.46193	0.712	0.5568	-0.495
Mof_O 	O 	0.4308	0.82706	0.5203	-0.463
Mof_O 	O 	0.4423	0.8417	0.6109	-0.543
Mof_C 	C 	0.1573	0.82709	0.4384	-0.001
Mof_C 	C 	0.1735	0.82946	0.3805	-0.09
Mof_H 	H 	0.1599	0.823	0.3473	0.083
Mof_C 	C 	0.2098	0.8414	0.3722	0.064
Mof_C 	C 	0.2302	0.8504	0.4234	-0.124
Mof_H 	H 	0.2545	0.8584	0.4179	0.082
Mof_C 	C 	0.2154	0.8476	0.4822	0.059
Mof_C 	C 	0.1789	0.83586	0.4892	-0.085
Mof_H 	H 	0.1685	0.8337	0.528	0.082
Mof_C 	C 	0.2264	0.84555	0.3102	-0.022
Mof_C 	C 	0.2303	0.8251	0.2706	-0.014
Mof_H 	H 	0.221	0.8095	0.282	0.058
Mof_C 	C 	0.2478	0.82849	0.2152	-0.085
Mof_C 	C 	0.2594	0.85171	0.1955	0.028
Mof_H 	H 	0.2694	0.8539	0.1565	0.041
Mof_C 	C 	0.2556	0.8721	0.2353	-0.092
Mof_C 	C 	0.2398	0.8686	0.2929	-0.007
Mof_H 	H 	0.2383	0.8819	0.3198	0.055
Mof_C 	C 	0.2379	0.85583	0.5366	-0.004
Mof_C 	C 	0.2187	0.86194	0.5881	-0.036
Mof_H 	H 	0.1909	0.8614	0.589	0.065
Mof_C 	C 	0.2392	0.86893	0.6396	-0.044
Mof_C 	C 	0.2807	0.86972	0.6395	-0.011
Mof_H 	H 	0.2948	0.8739	0.6744	0.063
Mof_C 	C 	0.3007	0.86404	0.5858	-0.051
Mof_C 	C 	0.2797	0.85713	0.5352	-0.03
Mof_H 	H 	0.2933	0.8533	0.4996	0.065
Mof_C 	C 	0.116	0.81724	0.4467	0.31
Mof_C 	C 	0.2588	0.8062	0.1789	0.174
Mof_C 	C 	0.269	0.89763	0.2175	0.388
Mof_C 	C 	0.2161	0.87421	0.6971	0.323
Mof_C 	C 	0.3454	0.86654	0.5835	0.332
Mof_C 	C 	0.4561	0.77372	0.8521	0.004
Mof_C 	C 	0.4261	0.75885	0.8738	-0.111
Mof_H 	H 	0.4223	0.7574	0.9154	0.076
Mof_C 	C 	0.4014	0.74601	0.8343	0.093
Mof_C 	C 	0.407	0.74876	0.7727	-0.149
Mof_H 	H 	0.3908	0.74	0.7459	0.09
Mof_C 	C 	0.4365	0.7643	0.75	0.071
Mof_C 	C 	0.4614	0.77712	0.7895	-0.098
Mof_H 	H 	0.4811	0.7877	0.7748	0.086
Mof_C 	C 	0.3694	0.72922	0.86	-0.085
Mof_C 	C 	0.3473	0.73652	0.9094	0.094
Mof_H 	H 	0.3519	0.7521	0.9265	-0.012
Mof_C 	C 	0.3185	0.72148	0.9343	-0.241
Mof_C 	C 	0.3119	0.69797	0.909	0.112
Mof_H 	H 	0.2928	0.6874	0.9254	0.008
Mof_C 	C 	0.334	0.69068	0.8595	-0.117
Mof_C 	C 	0.362	0.70645	0.8346	0.035
Mof_H 	H 	0.3761	0.7015	0.8002	0.04
Mof_C 	C 	0.4399	0.76929	0.6831	-0.01
Mof_C 	C 	0.443	0.74926	0.6417	-0.035
Mof_H 	H 	0.4436	0.733	0.6559	0.063
Mof_C 	C 	0.4451	0.75385	0.5808	-0.047
Mof_C 	C 	0.4429	0.77759	0.5591	-0.006
Mof_H 	H 	0.4426	0.7804	0.5175	0.067
Mof_C 	C 	0.4411	0.79784	0.599	-0.055
Mof_C 	C 	0.4404	0.79323	0.6611	-0.031
Mof_H 	H 	0.4402	0.8065	0.6881	0.061
Mof_C 	C 	0.4849	0.78578	0.8953	0.304
Mof_C 	C 	0.2951	0.73012	0.9867	0.598
Mof_C 	C 	0.3287	0.66519	0.8328	0.335
Mof_C 	C 	0.4499	0.73252	0.5383	0.308
Mof_C 	C 	0.4379	0.8233	0.5754	0.316
Mof_O 	O 	0.2282	0.7883	0.189	-0.175
Mof_C 	C 	0.2441	0.808	0.1719	0.188
Mof_In	In	0.77908	0.27868	0.06868	2.165
Mof_In	In	0.79228	0.44553	0.21191	2.582
Mof_In	In	0.82715	0.11946	0.79403	2.542
Mof_O 	O 	0.5984	0.30746	0.4034	-0.495
Mof_O 	O 	0.59979	0.31904	0.4977	-0.523
Mof_O 	O 	0.7656	0.3098	0.1235	-0.604
Mof_O 	O 	0.7577	0.2855	0.202	-0.199
Mof_O 	O 	0.7862	0.40169	0.1703	-0.44
Mof_O 	O 	0.7627	0.41505	0.2542	-0.601
Mof_O 	O 	0.73327	0.37606	0.7474	-0.507
Mof_O 	O 	0.67895	0.37683	0.6935	-0.51
Mof_O 	O 	0.86111	0.36152	0.5312	-0.57
Mof_O 	O 	0.8653	0.37242	0.6274	-0.382
Mof_O 	O 	0.0168	0.29488	0.874	-0.542
Mof_O 	O 	0.9781	0.28667	0.9506	-0.479
Mof_O 	O 	0.7994	0.25164	0.0026	-0.701
Mof_O 	O 	0.7711	0.21494	0.0097	-0.653
Mof_O 	O 	0.80698	0.14931	0.8598	-0.514
Mof_O 	O 	0.8462	0.15962	0.7846	-0.51
Mof_O 	O 	0.9406	0.23537	0.482	-0.505
Mof_O 	O 	0.96193	0.212	0.5568	-0.496
Mof_O 	O 	0.9308	0.32706	0.5203	-0.463
Mof_O 	O 	0.9423	0.3417	0.6109	-0.543
Mof_C 	C 	0.6573	0.32709	0.4384	-0.002
Mof_C 	C 	0.6735	0.32946	0.3805	-0.09
Mof_H 	H 	0.6599	0.323	0.3473	0.083
Mof_C 	C 	0.7098	0.3414	0.3722	0.064
Mof_C 	C 	0.7302	0.3504	0.4234	-0.124
Mof_H 	H 	0.7545	0.3584	0.4179	0.082
Mof_C 	C 	0.7154	0.3476	0.4822	0.059
Mof_C 	C 	0.6789	0.33586	0.4892	-0.085
Mof_H 	H 	0.6685	0.3337	0.528	0.082
Mof_C 	C 	0.7264	0.34555	0.3102	-0.022
Mof_C 	C 	0.7303	0.3251	0.2706	-0.014
Mof_H 	H 	0.721	0.3095	0.282	0.058
Mof_C 	C 	0.7478	0.32849	0.2152	-0.085
Mof_C 	C 	0.7594	0.35171	0.1955	0.028
Mof_H 	H 	0.7694	0.3539	0.1565	0.041
Mof_C 	C 	0.7556	0.3721	0.2353	-0.092
Mof_C 	C 	0.7398	0.3686	0.2929	-0.007
Mof_H 	H 	0.7383	0.3819	0.3198	0.055
Mof_C 	C 	0.7379	0.35583	0.5366	-0.004
Mof_C 	C 	0.7187	0.36194	0.5881	-0.036
Mof_H 	H 	0.6909	0.3614	0.589	0.065
Mof_C 	C 	0.7392	0.36893	0.6396	-0.044
Mof_C 	C 	0.7807	0.36972	0.6395	-0.011
Mof_H 	H 	0.7948	0.3739	0.6744	0.063
Mof_C 	C 	0.8007	0.36404	0.5858	-0.051
Mof_C 	C 	0.7797	0.35713	0.5352	-0.03
Mof_H 	H 	0.7933	0.3533	0.4996	0.065
Mof_C 	C 	0.616	0.31724	0.4467	0.31
Mof_C 	C 	0.7588	0.3062	0.1789	0.174
Mof_C 	C 	0.769	0.39763	0.2175	0.388
Mof_C 	C 	0.7161	0.37421	0.6971	0.323
Mof_C 	C 	0.8454	0.36654	0.5835	0.332
Mof_C 	C 	0.9561	0.27372	0.8521	0.005
Mof_C 	C 	0.9261	0.25885	0.8738	-0.112
Mof_H 	H 	0.9223	0.2574	0.9154	0.076
Mof_C 	C 	0.9014	0.24601	0.8343	0.093
Mof_C 	C 	0.907	0.24876	0.7727	-0.149
Mof_H 	H 	0.8908	0.24	0.7459	0.09
Mof_C 	C 	0.9365	0.2643	0.75	0.071
Mof_C 	C 	0.9614	0.27712	0.7895	-0.099
Mof_H 	H 	0.9811	0.2877	0.7748	0.085
Mof_C 	C 	0.8694	0.22922	0.86	-0.086
Mof_C 	C 	0.8473	0.23652	0.9094	0.094
Mof_H 	H 	0.8519	0.2521	0.9265	-0.012
Mof_C 	C 	0.8185	0.22148	0.9343	-0.241
Mof_C 	C 	0.8119	0.19797	0.909	0.112
Mof_H 	H 	0.7928	0.1874	0.9254	0.008
Mof_C 	C 	0.834	0.19068	0.8595	-0.118
Mof_C 	C 	0.862	0.20645	0.8346	0.035
Mof_H 	H 	0.8761	0.2015	0.8002	0.04
Mof_C 	C 	0.9399	0.26929	0.6831	-0.011
Mof_C 	C 	0.943	0.24926	0.6417	-0.035
Mof_H 	H 	0.9436	0.233	0.6559	0.063
Mof_C 	C 	0.9451	0.25385	0.5808	-0.048
Mof_C 	C 	0.9429	0.27759	0.5591	-0.006
Mof_H 	H 	0.9426	0.2804	0.5175	0.066
Mof_C 	C 	0.9411	0.29784	0.599	-0.055
Mof_C 	C 	0.9404	0.29323	0.6611	-0.03
Mof_H 	H 	0.9402	0.3065	0.6881	0.061
Mof_C 	C 	0.9849	0.28578	0.8953	0.299
Mof_C 	C 	0.7951	0.23012	0.9867	0.598
Mof_C 	C 	0.8287	0.16519	0.8328	0.335
Mof_C 	C 	0.9499	0.23252	0.5383	0.308
Mof_C 	C 	0.9379	0.3233	0.5754	0.316
Mof_O 	O 	0.7282	0.2883	0.189	-0.176
Mof_C 	C 	0.7441	0.308	0.1719	0.188
Mof_In	In	0.77908	0.77868	0.56868	2.166
Mof_In	In	0.79228	0.94553	0.71191	2.581
Mof_In	In	0.82715	0.61946	0.29403	2.544
Mof_O 	O 	0.5984	0.80746	0.9034	-0.492
Mof_O 	O 	0.59979	0.81904	0.9977	-0.526
Mof_O 	O 	0.7656	0.8098	0.6235	-0.606
Mof_O 	O 	0.7577	0.7855	0.702	-0.2
Mof_O 	O 	0.7862	0.90169	0.6703	-0.442
Mof_O 	O 	0.7627	0.91505	0.7542	-0.602
Mof_O 	O 	0.73327	0.87606	0.2474	-0.507
Mof_O 	O 	0.67895	0.87683	0.1935	-0.51
Mof_O 	O 	0.86111	0.86152	0.0312	-0.569
Mof_O 	O 	0.8653	0.87242	0.1274	-0.384
Mof_O 	O 	0.0168	0.79488	0.374	-0.543
Mof_O 	O 	0.9781	0.78667	0.4506	-0.476
Mof_O 	O 	0.7994	0.75164	0.5026	-0.723
Mof_O 	O 	0.7711	0.71494	0.5097	-0.673
Mof_O 	O 	0.80698	0.64931	0.3598	-0.513
Mof_O 	O 	0.8462	0.65962	0.2846	-0.51
Mof_O 	O 	0.9406	0.73537	0.982	-0.516
Mof_O 	O 	0.96193	0.712	0.0568	-0.492
Mof_O 	O 	0.9308	0.82706	0.0203	-0.46
Mof_O 	O 	0.9423	0.8417	0.1109	-0.545
Mof_C 	C 	0.6573	0.82709	0.9384	0.008
Mof_C 	C 	0.6735	0.82946	0.8805	-0.097
Mof_H 	H 	0.6599	0.823	0.8473	0.084
Mof_C 	C 	0.7098	0.8414	0.8722	0.067
Mof_C 	C 	0.7302	0.8504	0.9234	-0.128
Mof_H 	H 	0.7545	0.8584	0.9179	0.081
Mof_C 	C 	0.7154	0.8476	0.9822	0.06
Mof_C 	C 	0.6789	0.83586	0.9892	-0.115
Mof_H 	H 	0.6685	0.8337	0.028	0.101
Mof_C 	C 	0.7264	0.84555	0.8102	-0.025
Mof_C 	C 	0.7303	0.8251	0.7706	-0.012
Mof_H 	H 	0.721	0.8095	0.782	0.057
Mof_C 	C 	0.7478	0.82849	0.7152	-0.088
Mof_C 	C 	0.7594	0.85171	0.6955	0.03
Mof_H 	H 	0.7694	0.8539	0.6565	0.039
Mof_C 	C 	0.7556	0.8721	0.7353	-0.095
Mof_C 	C 	0.7398	0.8686	0.7929	-0.005
Mof_H 	H 	0.7383	0.8819	0.8198	0.053
Mof_C 	C 	0.7379	0.85583	0.0366	-0.006
Mof_C 	C 	0.7187	0.86194	0.0881	-0.031
Mof_H 	H 	0.6909	0.8614	0.089	0.066
Mof_C 	C 	0.7392	0.86893	0.1396	-0.048
Mof_C 	C 	0.7807	0.86972	0.1395	-0.003
Mof_H 	H 	0.7948	0.8739	0.1744	0.061
Mof_C 	C 	0.8007	0.86404	0.0858	-0.063
Mof_C 	C 	0.7797	0.85713	0.0352	0.001
Mof_H 	H 	0.7933	0.8533	0.9996	0.044
Mof_C 	C 	0.616	0.81724	0.9467	0.306
Mof_C 	C 	0.7588	0.8062	0.6789	0.174
Mof_C 	C 	0.769	0.89763	0.7175	0.388
Mof_C 	C 	0.7161	0.87421	0.1971	0.324
Mof_C 	C 	0.8454	0.86654	0.0835	0.337
Mof_C 	C 	0.9561	0.77372	0.3521	0.009
Mof_C 	C 	0.9261	0.75885	0.3738	-0.115
Mof_H 	H 	0.9223	0.7574	0.4154	0.079
Mof_C 	C 	0.9014	0.74601	0.3343	0.098
Mof_C 	C 	0.907	0.74876	0.2727	-0.152
Mof_H 	H 	0.8908	0.74	0.2459	0.092
Mof_C 	C 	0.9365	0.7643	0.25	0.074
Mof_C 	C 	0.9614	0.77712	0.2895	-0.102
Mof_H 	H 	0.9811	0.7877	0.2748	0.087
Mof_C 	C 	0.8694	0.72922	0.36	-0.091
Mof_C 	C 	0.8473	0.73652	0.4094	0.105
Mof_H 	H 	0.8519	0.7521	0.4265	-0.013
Mof_C 	C 	0.8185	0.72148	0.4343	-0.254
Mof_C 	C 	0.8119	0.69797	0.409	0.122
Mof_H 	H 	0.7928	0.6874	0.4254	0.008
Mof_C 	C 	0.834	0.69068	0.3595	-0.122
Mof_C 	C 	0.862	0.70645	0.3346	0.04
Mof_H 	H 	0.8761	0.7015	0.3002	0.039
Mof_C 	C 	0.9399	0.76929	0.1831	-0.012
Mof_C 	C 	0.943	0.74926	0.1417	-0.031
Mof_H 	H 	0.9436	0.733	0.1559	0.062
Mof_C 	C 	0.9451	0.75385	0.0808	-0.051
Mof_C 	C 	0.9429	0.77759	0.0591	-0.002
Mof_H 	H 	0.9426	0.7804	0.0175	0.069
Mof_C 	C 	0.9411	0.79784	0.099	-0.055
Mof_C 	C 	0.9404	0.79323	0.1611	-0.029
Mof_H 	H 	0.9402	0.8065	0.1881	0.061
Mof_C 	C 	0.9849	0.78578	0.3953	0.298
Mof_C 	C 	0.7951	0.73012	0.4867	0.637
Mof_C 	C 	0.8287	0.66519	0.3328	0.337
Mof_C 	C 	0.9499	0.73252	0.0383	0.325
Mof_C 	C 	0.9379	0.8233	0.0754	0.316
Mof_O 	O 	0.7282	0.7883	0.689	-0.177
Mof_C 	C 	0.7441	0.808	0.6719	0.188
Mof_In	In	0.97092	0.52868	0.81868	2.155
Mof_In	In	0.95772	0.69553	0.96191	2.553
Mof_In	In	0.92285	0.36946	0.54403	2.543
Mof_O 	O 	0.1516	0.55746	0.1534	-0.493
Mof_O 	O 	0.15021	0.56904	0.2477	-0.523
Mof_O 	O 	0.9844	0.5598	0.8735	-0.609
Mof_O 	O 	0.9923	0.5355	0.952	-0.212
Mof_O 	O 	0.9638	0.65169	0.9203	-0.44
Mof_O 	O 	0.9873	0.66505	0.0042	-0.584
Mof_O 	O 	0.01673	0.62606	0.4974	-0.505
Mof_O 	O 	0.07105	0.62683	0.4435	-0.509
Mof_O 	O 	0.88889	0.61152	0.2812	-0.569
Mof_O 	O 	0.8847	0.62242	0.3774	-0.381
Mof_O 	O 	0.7332	0.54488	0.624	-0.547
Mof_O 	O 	0.7719	0.53667	0.7006	-0.476
Mof_O 	O 	0.9506	0.50164	0.7526	-0.722
Mof_O 	O 	0.9789	0.46494	0.7597	-0.675
Mof_O 	O 	0.94302	0.39931	0.6098	-0.514
Mof_O 	O 	0.9038	0.40962	0.5346	-0.511
Mof_O 	O 	0.8094	0.48537	0.232	-0.504
Mof_O 	O 	0.78807	0.462	0.3068	-0.495
Mof_O 	O 	0.8192	0.57706	0.2703	-0.462
Mof_O 	O 	0.8077	0.5917	0.3609	-0.543
Mof_C 	C 	0.0927	0.57709	0.1884	-0
Mof_C 	C 	0.0765	0.57946	0.1305	-0.093
Mof_H 	H 	0.0901	0.573	0.0973	0.086
Mof_C 	C 	0.0402	0.5914	0.1222	0.071
Mof_C 	C 	0.0198	0.6004	0.1734	-0.118
Mof_H 	H 	0.9955	0.6084	0.1679	0.078
Mof_C 	C 	0.0346	0.5976	0.2322	0.055
Mof_C 	C 	0.0711	0.58586	0.2392	-0.084
Mof_H 	H 	0.0815	0.5837	0.278	0.081
Mof_C 	C 	0.0236	0.59555	0.0602	-0.043
Mof_C 	C 	0.0197	0.5751	0.0206	0.023
Mof_H 	H 	0.029	0.5595	0.032	0.05
Mof_C 	C 	0.0022	0.57849	0.9652	-0.113
Mof_C 	C 	0.9906	0.60171	0.9455	0.046
Mof_H 	H 	0.9806	0.6039	0.9065	0.033
Mof_C 	C 	0.9944	0.6221	0.9853	-0.124
Mof_C 	C 	0.0102	0.6186	0.0429	0.033
Mof_H 	H 	0.0117	0.6319	0.0698	0.044
Mof_C 	C 	0.0121	0.60583	0.2866	0.008
Mof_C 	C 	0.0313	0.61194	0.3381	-0.045
Mof_H 	H 	0.0591	0.6114	0.339	0.069
Mof_C 	C 	0.0108	0.61893	0.3896	-0.033
Mof_C 	C 	0.9693	0.61972	0.3895	-0.023
Mof_H 	H 	0.9552	0.6239	0.4244	0.067
Mof_C 	C 	0.9493	0.61404	0.3358	-0.043
Mof_C 	C 	0.9703	0.60713	0.2852	-0.042
Mof_H 	H 	0.9567	0.6033	0.2496	0.069
Mof_C 	C 	0.134	0.56724	0.1967	0.31
Mof_C 	C 	0.9912	0.5562	0.9289	0.194
Mof_C 	C 	0.981	0.64763	0.9675	0.38
Mof_C 	C 	0.0339	0.62421	0.4471	0.32
Mof_C 	C 	0.9046	0.61654	0.3335	0.329
Mof_C 	C 	0.7939	0.52372	0.6021	0.007
Mof_C 	C 	0.8239	0.50885	0.6238	-0.114
Mof_H 	H 	0.8277	0.5074	0.6654	0.079
Mof_C 	C 	0.8486	0.49601	0.5843	0.097
Mof_C 	C 	0.843	0.49876	0.5227	-0.151
Mof_H 	H 	0.8592	0.49	0.4959	0.091
Mof_C 	C 	0.8135	0.5143	0.5	0.073
Mof_C 	C 	0.7886	0.52712	0.5395	-0.1
Mof_H 	H 	0.7689	0.5377	0.5248	0.087
Mof_C 	C 	0.8806	0.47922	0.61	-0.091
Mof_C 	C 	0.9027	0.48652	0.6594	0.105
Mof_H 	H 	0.8981	0.5021	0.6765	-0.013
Mof_C 	C 	0.9315	0.47148	0.6843	-0.255
Mof_C 	C 	0.9381	0.44797	0.659	0.122
Mof_H 	H 	0.9572	0.4374	0.6754	0.007
Mof_C 	C 	0.916	0.44068	0.6095	-0.122
Mof_C 	C 	0.888	0.45645	0.5846	0.04
Mof_H 	H 	0.8739	0.4515	0.5502	0.038
Mof_C 	C 	0.8101	0.51929	0.4331	-0.01
Mof_C 	C 	0.807	0.49926	0.3917	-0.035
Mof_H 	H 	0.8064	0.483	0.4059	0.063
Mof_C 	C 	0.8049	0.50385	0.3308	-0.047
Mof_C 	C 	0.8071	0.52759	0.3091	-0.006
Mof_H 	H 	0.8074	0.5304	0.2675	0.067
Mof_C 	C 	0.8089	0.54784	0.349	-0.055
Mof_C 	C 	0.8096	0.54323	0.4111	-0.031
Mof_H 	H 	0.8098	0.5565	0.4381	0.061
Mof_C 	C 	0.7651	0.53578	0.6453	0.303
Mof_C 	C 	0.9549	0.48012	0.7367	0.636
Mof_C 	C 	0.9213	0.41519	0.5828	0.337
Mof_C 	C 	0.8001	0.48252	0.2883	0.308
Mof_C 	C 	0.8121	0.5733	0.3254	0.316
Mof_O 	O 	0.0218	0.5383	0.939	-0.172
Mof_C 	C 	0.0059	0.558	0.9219	0.176
Mof_In	In	0.97092	0.02868	0.31868	2.159
Mof_In	In	0.95772	0.19553	0.46191	2.579
Mof_In	In	0.92285	0.86946	0.04403	2.566
Mof_O 	O 	0.1516	0.05746	0.6534	-0.495
Mof_O 	O 	0.15021	0.06904	0.7477	-0.524
Mof_O 	O 	0.9844	0.0598	0.3735	-0.607
Mof_O 	O 	0.9923	0.0355	0.452	-0.208
Mof_O 	O 	0.9638	0.15169	0.4203	-0.442
Mof_O 	O 	0.9873	0.16505	0.5042	-0.602
Mof_O 	O 	0.01673	0.12606	0.9974	-0.515
Mof_O 	O 	0.07105	0.12683	0.9435	-0.518
Mof_O 	O 	0.88889	0.11152	0.7812	-0.57
Mof_O 	O 	0.8847	0.12242	0.8774	-0.383
Mof_O 	O 	0.7332	0.04488	0.124	-0.546
Mof_O 	O 	0.7719	0.03667	0.2006	-0.475
Mof_O 	O 	0.9506	0.00164	0.2526	-0.722
Mof_O 	O 	0.9789	0.96494	0.2597	-0.675
Mof_O 	O 	0.94302	0.89931	0.1098	-0.513
Mof_O 	O 	0.9038	0.90962	0.0346	-0.508
Mof_O 	O 	0.8094	0.98537	0.732	-0.505
Mof_O 	O 	0.78807	0.962	0.8068	-0.497
Mof_O 	O 	0.8192	0.07706	0.7703	-0.463
Mof_O 	O 	0.8077	0.0917	0.8609	-0.545
Mof_C 	C 	0.0927	0.07709	0.6884	-0.006
Mof_C 	C 	0.0765	0.07946	0.6305	-0.085
Mof_H 	H 	0.0901	0.073	0.5973	0.081
Mof_C 	C 	0.0402	0.0914	0.6222	0.057
Mof_C 	C 	0.0198	0.1004	0.6734	-0.111
Mof_H 	H 	0.9955	0.1084	0.6679	0.074
Mof_C 	C 	0.0346	0.0976	0.7322	0.05
Mof_C 	C 	0.0711	0.08586	0.7392	-0.079
Mof_H 	H 	0.0815	0.0837	0.778	0.079
Mof_C 	C 	0.0236	0.09555	0.5602	-0.019
Mof_C 	C 	0.0197	0.0751	0.5206	-0.017
Mof_H 	H 	0.029	0.0595	0.532	0.06
Mof_C 	C 	0.0022	0.07849	0.4652	-0.078
Mof_C 	C 	0.9906	0.10171	0.4455	0.022
Mof_H 	H 	0.9806	0.1039	0.4065	0.042
Mof_C 	C 	0.9944	0.1221	0.4853	-0.095
Mof_C 	C 	0.0102	0.1186	0.5429	-0.005
Mof_H 	H 	0.0117	0.1319	0.5698	0.055
Mof_C 	C 	0.0121	0.10583	0.7866	0.009
Mof_C 	C 	0.0313	0.11194	0.8381	-0.046
Mof_H 	H 	0.0591	0.1114	0.839	0.068
Mof_C 	C 	0.0108	0.11893	0.8896	-0.036
Mof_C 	C 	0.9693	0.11972	0.8895	-0.022
Mof_H 	H 	0.9552	0.1239	0.9244	0.064
Mof_C 	C 	0.9493	0.11404	0.8358	-0.045
Mof_C 	C 	0.9703	0.10713	0.7852	-0.043
Mof_H 	H 	0.9567	0.1033	0.7496	0.069
Mof_C 	C 	0.134	0.06724	0.6967	0.312
Mof_C 	C 	0.9912	0.0562	0.4289	0.189
Mof_C 	C 	0.981	0.14763	0.4675	0.388
Mof_C 	C 	0.0339	0.12421	0.9471	0.321
Mof_C 	C 	0.9046	0.11654	0.8335	0.329
Mof_C 	C 	0.7939	0.02372	0.1021	0.006
Mof_C 	C 	0.8239	0.00885	0.1238	-0.107
Mof_H 	H 	0.8277	0.0074	0.1654	0.077
Mof_C 	C 	0.8486	0.99601	0.0843	0.086
Mof_C 	C 	0.843	0.99876	0.0227	-0.124
Mof_H 	H 	0.8592	0.99	0.9959	0.072
Mof_C 	C 	0.8135	0.0143	-0	0.08
Mof_C 	C 	0.7886	0.02712	0.0395	-0.1
Mof_H 	H 	0.7689	0.0377	0.0248	0.091
Mof_C 	C 	0.8806	0.97922	0.11	-0.081
Mof_C 	C 	0.9027	0.98652	0.1594	0.099
Mof_H 	H 	0.8981	0.0021	0.1765	-0.01
Mof_C 	C 	0.9315	0.97148	0.1843	-0.25
Mof_C 	C 	0.9381	0.94797	0.159	0.118
Mof_H 	H 	0.9572	0.9374	0.1754	0.009
Mof_C 	C 	0.916	0.94068	0.1095	-0.117
Mof_C 	C 	0.888	0.95645	0.0846	0.035
Mof_H 	H 	0.8739	0.9515	0.0502	0.043
Mof_C 	C 	0.8101	0.01929	0.9331	-0.026
Mof_C 	C 	0.807	0.99926	0.8917	-0.028
Mof_H 	H 	0.8064	0.983	0.9059	0.058
Mof_C 	C 	0.8049	0.00385	0.8308	-0.052
Mof_C 	C 	0.8071	0.02759	0.8091	-0.002
Mof_H 	H 	0.8074	0.0304	0.7675	0.065
Mof_C 	C 	0.8089	0.04784	0.849	-0.061
Mof_C 	C 	0.8096	0.04323	0.9111	-0.023
Mof_H 	H 	0.8098	0.0565	0.9381	0.055
Mof_C 	C 	0.7651	0.03578	0.1453	0.304
Mof_C 	C 	0.9549	0.98012	0.2367	0.635
Mof_C 	C 	0.9213	0.91519	0.0828	0.336
Mof_C 	C 	0.8001	0.98252	0.7883	0.31
Mof_C 	C 	0.8121	0.0733	0.8254	0.318
Mof_O 	O 	0.0218	0.0383	0.439	-0.168
Mof_C 	C 	0.0059	0.058	0.4219	0.172
Mof_In	In	0.47092	0.52868	0.31868	2.167
Mof_In	In	0.45772	0.69553	0.46191	2.581
Mof_In	In	0.42285	0.36946	0.04403	2.567
Mof_O 	O 	0.6516	0.55746	0.6534	-0.495
Mof_O 	O 	0.65021	0.56904	0.7477	-0.524
Mof_O 	O 	0.4844	0.5598	0.3735	-0.606
Mof_O 	O 	0.4923	0.5355	0.452	-0.199
Mof_O 	O 	0.4638	0.65169	0.4203	-0.441
Mof_O 	O 	0.4873	0.66505	0.5042	-0.601
Mof_O 	O 	0.51673	0.62606	0.9974	-0.517
Mof_O 	O 	0.57105	0.62683	0.9435	-0.52
Mof_O 	O 	0.38889	0.61152	0.7812	-0.57
Mof_O 	O 	0.3847	0.62242	0.8774	-0.384
Mof_O 	O 	0.2332	0.54488	0.124	-0.546
Mof_O 	O 	0.2719	0.53667	0.2006	-0.475
Mof_O 	O 	0.4506	0.50164	0.2526	-0.722
Mof_O 	O 	0.4789	0.46494	0.2597	-0.672
Mof_O 	O 	0.44302	0.39931	0.1098	-0.513
Mof_O 	O 	0.4038	0.40962	0.0346	-0.508
Mof_O 	O 	0.3094	0.48537	0.732	-0.505
Mof_O 	O 	0.28807	0.462	0.8068	-0.497
Mof_O 	O 	0.3192	0.57706	0.7703	-0.463
Mof_O 	O 	0.3077	0.5917	0.8609	-0.545
Mof_C 	C 	0.5927	0.57709	0.6884	-0.002
Mof_C 	C 	0.5765	0.57946	0.6305	-0.09
Mof_H 	H 	0.5901	0.573	0.5973	0.082
Mof_C 	C 	0.5402	0.5914	0.6222	0.063
Mof_C 	C 	0.5198	0.6004	0.6734	-0.124
Mof_H 	H 	0.4955	0.6084	0.6679	0.082
Mof_C 	C 	0.5346	0.5976	0.7322	0.059
Mof_C 	C 	0.5711	0.58586	0.7392	-0.086
Mof_H 	H 	0.5815	0.5837	0.778	0.081
Mof_C 	C 	0.5236	0.59555	0.5602	-0.022
Mof_C 	C 	0.5197	0.5751	0.5206	-0.013
Mof_H 	H 	0.529	0.5595	0.532	0.058
Mof_C 	C 	0.5022	0.57849	0.4652	-0.086
Mof_C 	C 	0.4906	0.60171	0.4455	0.029
Mof_H 	H 	0.4806	0.6039	0.4065	0.04
Mof_C 	C 	0.4944	0.6221	0.4853	-0.093
Mof_C 	C 	0.5102	0.6186	0.5429	-0.007
Mof_H 	H 	0.5117	0.6319	0.5698	0.054
Mof_C 	C 	0.5121	0.60583	0.7866	-0.005
Mof_C 	C 	0.5313	0.61194	0.8381	-0.035
Mof_H 	H 	0.5591	0.6114	0.839	0.064
Mof_C 	C 	0.5108	0.61893	0.8896	-0.047
Mof_C 	C 	0.4693	0.61972	0.8895	-0.009
Mof_H 	H 	0.4552	0.6239	0.9244	0.061
Mof_C 	C 	0.4493	0.61404	0.8358	-0.053
Mof_C 	C 	0.4703	0.60713	0.7852	-0.029
Mof_H 	H 	0.4567	0.6033	0.7496	0.065
Mof_C 	C 	0.634	0.56724	0.6967	0.31
Mof_C 	C 	0.4912	0.5562	0.4289	0.174
Mof_C 	C 	0.481	0.64763	0.4675	0.388
Mof_C 	C 	0.5339	0.62421	0.9471	0.324
Mof_C 	C 	0.4046	0.61654	0.8335	0.333
Mof_C 	C 	0.2939	0.52372	0.1021	0.006
Mof_C 	C 	0.3239	0.50885	0.1238	-0.108
Mof_H 	H 	0.3277	0.5074	0.1654	0.077
Mof_C 	C 	0.3486	0.49601	0.0843	0.086
Mof_C 	C 	0.343	0.49876	0.0227	-0.124
Mof_H 	H 	0.3592	0.49	0.9959	0.072
Mof_C 	C 	0.3135	0.5143	-0	0.08
Mof_C 	C 	0.2886	0.52712	0.0395	-0.1
Mof_H 	H 	0.2689	0.5377	0.0248	0.091
Mof_C 	C 	0.3806	0.47922	0.11	-0.081
Mof_C 	C 	0.4027	0.48652	0.1594	0.099
Mof_H 	H 	0.3981	0.5021	0.1765	-0.01
Mof_C 	C 	0.4315	0.47148	0.1843	-0.25
Mof_C 	C 	0.4381	0.44797	0.159	0.118
Mof_H 	H 	0.4572	0.4374	0.1754	0.009
Mof_C 	C 	0.416	0.44068	0.1095	-0.116
Mof_C 	C 	0.388	0.45645	0.0846	0.035
Mof_H 	H 	0.3739	0.4515	0.0502	0.043
Mof_C 	C 	0.3101	0.51929	0.9331	-0.026
Mof_C 	C 	0.307	0.49926	0.8917	-0.026
Mof_H 	H 	0.3064	0.483	0.9059	0.058
Mof_C 	C 	0.3049	0.50385	0.8308	-0.053
Mof_C 	C 	0.3071	0.52759	0.8091	-0.001
Mof_H 	H 	0.3074	0.5304	0.7675	0.065
Mof_C 	C 	0.3089	0.54784	0.849	-0.061
Mof_C 	C 	0.3096	0.54323	0.9111	-0.022
Mof_H 	H 	0.3098	0.5565	0.9381	0.055
Mof_C 	C 	0.2651	0.53578	0.1453	0.304
Mof_C 	C 	0.4549	0.48012	0.2367	0.636
Mof_C 	C 	0.4213	0.41519	0.0828	0.336
Mof_C 	C 	0.3001	0.48252	0.7883	0.31
Mof_C 	C 	0.3121	0.5733	0.8254	0.318
Mof_O 	O 	0.5218	0.5383	0.439	-0.177
Mof_C 	C 	0.5059	0.558	0.4219	0.188
Mof_In	In	0.47092	0.02868	0.81868	2.164
Mof_In	In	0.45772	0.19553	0.96191	2.556
Mof_In	In	0.42285	0.86946	0.54403	2.543
Mof_O 	O 	0.6516	0.05746	0.1534	-0.493
Mof_O 	O 	0.65021	0.06904	0.2477	-0.522
Mof_O 	O 	0.4844	0.0598	0.8735	-0.609
Mof_O 	O 	0.4923	0.0355	0.952	-0.204
Mof_O 	O 	0.4638	0.15169	0.9203	-0.439
Mof_O 	O 	0.4873	0.16505	0.0042	-0.583
Mof_O 	O 	0.51673	0.12606	0.4974	-0.507
Mof_O 	O 	0.57105	0.12683	0.4435	-0.51
Mof_O 	O 	0.38889	0.11152	0.2812	-0.569
Mof_O 	O 	0.3847	0.12242	0.3774	-0.382
Mof_O 	O 	0.2332	0.04488	0.624	-0.547
Mof_O 	O 	0.2719	0.03667	0.7006	-0.476
Mof_O 	O 	0.4506	0.00164	0.7526	-0.722
Mof_O 	O 	0.4789	0.96494	0.7597	-0.672
Mof_O 	O 	0.44302	0.89931	0.6098	-0.513
Mof_O 	O 	0.4038	0.90962	0.5346	-0.51
Mof_O 	O 	0.3094	0.98537	0.232	-0.504
Mof_O 	O 	0.28807	0.962	0.3068	-0.495
Mof_O 	O 	0.3192	0.07706	0.2703	-0.462
Mof_O 	O 	0.3077	0.0917	0.3609	-0.543
Mof_C 	C 	0.5927	0.07709	0.1884	0.004
Mof_C 	C 	0.5765	0.07946	0.1305	-0.098
Mof_H 	H 	0.5901	0.073	0.0973	0.087
Mof_C 	C 	0.5402	0.0914	0.1222	0.077
Mof_C 	C 	0.5198	0.1004	0.1734	-0.132
Mof_H 	H 	0.4955	0.1084	0.1679	0.086
Mof_C 	C 	0.5346	0.0976	0.2322	0.064
Mof_C 	C 	0.5711	0.08586	0.2392	-0.09
Mof_H 	H 	0.5815	0.0837	0.278	0.083
Mof_C 	C 	0.5236	0.09555	0.0602	-0.047
Mof_C 	C 	0.5197	0.0751	0.0206	0.028
Mof_H 	H 	0.529	0.0595	0.032	0.048
Mof_C 	C 	0.5022	0.07849	0.9652	-0.121
Mof_C 	C 	0.4906	0.10171	0.9455	0.053
Mof_H 	H 	0.4806	0.1039	0.9065	0.031
Mof_C 	C 	0.4944	0.1221	0.9853	-0.122
Mof_C 	C 	0.5102	0.1186	0.0429	0.031
Mof_H 	H 	0.5117	0.1319	0.0698	0.044
Mof_C 	C 	0.5121	0.10583	0.2866	-0.006
Mof_C 	C 	0.5313	0.11194	0.3381	-0.035
Mof_H 	H 	0.5591	0.1114	0.339	0.065
Mof_C 	C 	0.5108	0.11893	0.3896	-0.044
Mof_C 	C 	0.4693	0.11972	0.3895	-0.01
Mof_H 	H 	0.4552	0.1239	0.4244	0.063
Mof_C 	C 	0.4493	0.11404	0.3358	-0.051
Mof_C 	C 	0.4703	0.10713	0.2852	-0.029
Mof_H 	H 	0.4567	0.1033	0.2496	0.065
Mof_C 	C 	0.634	0.06724	0.1967	0.309
Mof_C 	C 	0.4912	0.0562	0.9289	0.179
Mof_C 	C 	0.481	0.14763	0.9675	0.38
Mof_C 	C 	0.5339	0.12421	0.4471	0.323
Mof_C 	C 	0.4046	0.11654	0.3335	0.332
Mof_C 	C 	0.2939	0.02372	0.6021	0.007
Mof_C 	C 	0.3239	0.00885	0.6238	-0.113
Mof_H 	H 	0.3277	0.0074	0.6654	0.078
Mof_C 	C 	0.3486	0.99601	0.5843	0.096
Mof_C 	C 	0.343	0.99876	0.5227	-0.151
Mof_H 	H 	0.3592	0.99	0.4959	0.091
Mof_C 	C 	0.3135	0.0143	0.5	0.073
Mof_C 	C 	0.2886	0.02712	0.5395	-0.1
Mof_H 	H 	0.2689	0.0377	0.5248	0.087
Mof_C 	C 	0.3806	0.97922	0.61	-0.09
Mof_C 	C 	0.4027	0.98652	0.6594	0.104
Mof_H 	H 	0.3981	0.0021	0.6765	-0.012
Mof_C 	C 	0.4315	0.97148	0.6843	-0.254
Mof_C 	C 	0.4381	0.94797	0.659	0.121
Mof_H 	H 	0.4572	0.9374	0.6754	0.008
Mof_C 	C 	0.416	0.94068	0.6095	-0.121
Mof_C 	C 	0.388	0.95645	0.5846	0.04
Mof_H 	H 	0.3739	0.9515	0.5502	0.039
Mof_C 	C 	0.3101	0.01929	0.4331	-0.01
Mof_C 	C 	0.307	0.99926	0.3917	-0.036
Mof_H 	H 	0.3064	0.983	0.4059	0.064
Mof_C 	C 	0.3049	0.00385	0.3308	-0.046
Mof_C 	C 	0.3071	0.02759	0.3091	-0.007
Mof_H 	H 	0.3074	0.0304	0.2675	0.067
Mof_C 	C 	0.3089	0.04784	0.349	-0.054
Mof_C 	C 	0.3096	0.04323	0.4111	-0.031
Mof_H 	H 	0.3098	0.0565	0.4381	0.061
Mof_C 	C 	0.2651	0.03578	0.6453	0.303
Mof_C 	C 	0.4549	0.98012	0.7367	0.636
Mof_C 	C 	0.4213	0.91519	0.5828	0.337
Mof_C 	C 	0.3001	0.98252	0.2883	0.308
Mof_C 	C 	0.3121	0.0733	0.3254	0.315
Mof_O 	O 	0.5218	0.0383	0.939	-0.18
Mof_C 	C 	0.5059	0.058	0.9219	0.193
Mof_In	In	0.52908	0.97132	0.81868	2.164
Mof_In	In	0.54228	0.80447	0.96191	2.556
Mof_In	In	0.57715	0.13054	0.54403	2.543
Mof_O 	O 	0.3484	0.94254	0.1534	-0.493
Mof_O 	O 	0.34979	0.93096	0.2477	-0.522
Mof_O 	O 	0.5156	0.9402	0.8735	-0.609
Mof_O 	O 	0.5077	0.9645	0.952	-0.204
Mof_O 	O 	0.5362	0.84831	0.9203	-0.439
Mof_O 	O 	0.5127	0.83495	0.0042	-0.583
Mof_O 	O 	0.48327	0.87394	0.4974	-0.507
Mof_O 	O 	0.42895	0.87317	0.4435	-0.51
Mof_O 	O 	0.61111	0.88848	0.2812	-0.569
Mof_O 	O 	0.6153	0.87758	0.3774	-0.382
Mof_O 	O 	0.7668	0.95512	0.624	-0.547
Mof_O 	O 	0.7281	0.96333	0.7006	-0.476
Mof_O 	O 	0.5494	0.99836	0.7526	-0.723
Mof_O 	O 	0.5211	0.03506	0.7597	-0.673
Mof_O 	O 	0.55698	0.10069	0.6098	-0.513
Mof_O 	O 	0.5962	0.09038	0.5346	-0.51
Mof_O 	O 	0.6906	0.01463	0.232	-0.504
Mof_O 	O 	0.71193	0.038	0.3068	-0.495
Mof_O 	O 	0.6808	0.92294	0.2703	-0.462
Mof_O 	O 	0.6923	0.9083	0.3609	-0.543
Mof_C 	C 	0.4073	0.92291	0.1884	0.003
Mof_C 	C 	0.4235	0.92054	0.1305	-0.098
Mof_H 	H 	0.4099	0.927	0.0973	0.087
Mof_C 	C 	0.4598	0.9086	0.1222	0.077
Mof_C 	C 	0.4802	0.8996	0.1734	-0.132
Mof_H 	H 	0.5045	0.8916	0.1679	0.086
Mof_C 	C 	0.4654	0.9024	0.2322	0.064
Mof_C 	C 	0.4289	0.91414	0.2392	-0.09
Mof_H 	H 	0.4185	0.9163	0.278	0.083
Mof_C 	C 	0.4764	0.90445	0.0602	-0.047
Mof_C 	C 	0.4803	0.9249	0.0206	0.028
Mof_H 	H 	0.471	0.9405	0.032	0.048
Mof_C 	C 	0.4978	0.92151	0.9652	-0.121
Mof_C 	C 	0.5094	0.89829	0.9455	0.053
Mof_H 	H 	0.5194	0.8961	0.9065	0.031
Mof_C 	C 	0.5056	0.8779	0.9853	-0.122
Mof_C 	C 	0.4898	0.8814	0.0429	0.031
Mof_H 	H 	0.4883	0.8681	0.0698	0.044
Mof_C 	C 	0.4879	0.89417	0.2866	-0.006
Mof_C 	C 	0.4687	0.88806	0.3381	-0.035
Mof_H 	H 	0.4409	0.8886	0.339	0.065
Mof_C 	C 	0.4892	0.88107	0.3896	-0.044
Mof_C 	C 	0.5307	0.88028	0.3895	-0.01
Mof_H 	H 	0.5448	0.8761	0.4244	0.063
Mof_C 	C 	0.5507	0.88596	0.3358	-0.051
Mof_C 	C 	0.5297	0.89287	0.2852	-0.029
Mof_H 	H 	0.5433	0.8967	0.2496	0.065
Mof_C 	C 	0.366	0.93276	0.1967	0.309
Mof_C 	C 	0.5088	0.9438	0.9289	0.179
Mof_C 	C 	0.519	0.85237	0.9675	0.38
Mof_C 	C 	0.4661	0.87579	0.4471	0.323
Mof_C 	C 	0.5954	0.88346	0.3335	0.332
Mof_C 	C 	0.7061	0.97628	0.6021	0.007
Mof_C 	C 	0.6761	0.99115	0.6238	-0.114
Mof_H 	H 	0.6723	0.9926	0.6654	0.079
Mof_C 	C 	0.6514	0.00399	0.5843	0.097
Mof_C 	C 	0.657	0.00124	0.5227	-0.151
Mof_H 	H 	0.6408	0.01	0.4959	0.091
Mof_C 	C 	0.6865	0.9857	0.5	0.073
Mof_C 	C 	0.7114	0.97288	0.5395	-0.1
Mof_H 	H 	0.7311	0.9623	0.5248	0.087
Mof_C 	C 	0.6194	0.02078	0.61	-0.091
Mof_C 	C 	0.5973	0.01348	0.6594	0.105
Mof_H 	H 	0.6019	0.9979	0.6765	-0.013
Mof_C 	C 	0.5685	0.02852	0.6843	-0.254
Mof_C 	C 	0.5619	0.05203	0.659	0.122
Mof_H 	H 	0.5428	0.0626	0.6754	0.007
Mof_C 	C 	0.584	0.05932	0.6095	-0.122
Mof_C 	C 	0.612	0.04355	0.5846	0.041
Mof_H 	H 	0.6261	0.0485	0.5502	0.038
Mof_C 	C 	0.6899	0.98071	0.4331	-0.011
Mof_C 	C 	0.693	0.00074	0.3917	-0.034
Mof_H 	H 	0.6936	0.017	0.4059	0.063
Mof_C 	C 	0.6951	0.99615	0.3308	-0.048
Mof_C 	C 	0.6929	0.97241	0.3091	-0.006
Mof_H 	H 	0.6926	0.9696	0.2675	0.067
Mof_C 	C 	0.6911	0.95216	0.349	-0.055
Mof_C 	C 	0.6904	0.95677	0.4111	-0.03
Mof_H 	H 	0.6902	0.9435	0.4381	0.061
Mof_C 	C 	0.7349	0.96422	0.6453	0.303
Mof_C 	C 	0.5451	0.01988	0.7367	0.637
Mof_C 	C 	0.5787	0.08481	0.5828	0.337
Mof_C 	C 	0.6999	0.01748	0.2883	0.309
Mof_C 	C 	0.6879	0.9267	0.3254	0.316
Mof_O 	O 	0.4782	0.9617	0.939	-0.181
Mof_C 	C 	0.4941	0.942	0.9219	0.193
Mof_In	In	0.52908	0.47132	0.31868	2.167
Mof_In	In	0.54228	0.30447	0.46191	2.581
Mof_In	In	0.57715	0.63054	0.04403	2.567
Mof_O 	O 	0.3484	0.44254	0.6534	-0.495
Mof_O 	O 	0.34979	0.43096	0.7477	-0.524
Mof_O 	O 	0.5156	0.4402	0.3735	-0.606
Mof_O 	O 	0.5077	0.4645	0.452	-0.199
Mof_O 	O 	0.5362	0.34831	0.4203	-0.441
Mof_O 	O 	0.5127	0.33495	0.5042	-0.601
Mof_O 	O 	0.48327	0.37394	0.9974	-0.517
Mof_O 	O 	0.42895	0.37317	0.9435	-0.52
Mof_O 	O 	0.61111	0.38848	0.7812	-0.57
Mof_O 	O 	0.6153	0.37758	0.8774	-0.384
Mof_O 	O 	0.7668	0.45512	0.124	-0.546
Mof_O 	O 	0.7281	0.46333	0.2006	-0.475
Mof_O 	O 	0.5494	0.49836	0.2526	-0.722
Mof_O 	O 	0.5211	0.53506	0.2597	-0.672
Mof_O 	O 	0.55698	0.60069	0.1098	-0.513
Mof_O 	O 	0.5962	0.59038	0.0346	-0.508
Mof_O 	O 	0.6906	0.51463	0.732	-0.505
Mof_O 	O 	0.71193	0.538	0.8068	-0.497
Mof_O 	O 	0.6808	0.42294	0.7703	-0.463
Mof_O 	O 	0.6923	0.4083	0.8609	-0.545
Mof_C 	C 	0.4073	0.42291	0.6884	-0.002
Mof_C 	C 	0.4235	0.42054	0.6305	-0.09
Mof_H 	H 	0.4099	0.427	0.5973	0.082
Mof_C 	C 	0.4598	0.4086	0.6222	0.063
Mof_C 	C 	0.4802	0.3996	0.6734	-0.124
Mof_H 	H 	0.5045	0.3916	0.6679	0.082
Mof_C 	C 	0.4654	0.4024	0.7322	0.059
Mof_C 	C 	0.4289	0.41414	0.7392	-0.086
Mof_H 	H 	0.4185	0.4163	0.778	0.081
Mof_C 	C 	0.4764	0.40445	0.5602	-0.022
Mof_C 	C 	0.4803	0.4249	0.5206	-0.013
Mof_H 	H 	0.471	0.4405	0.532	0.058
Mof_C 	C 	0.4978	0.42151	0.4652	-0.086
Mof_C 	C 	0.5094	0.39829	0.4455	0.029
Mof_H 	H 	0.5194	0.3961	0.4065	0.04
Mof_C 	C 	0.5056	0.3779	0.4853	-0.093
Mof_C 	C 	0.4898	0.3814	0.5429	-0.007
Mof_H 	H 	0.4883	0.3681	0.5698	0.054
Mof_C 	C 	0.4879	0.39417	0.7866	-0.005
Mof_C 	C 	0.4687	0.38806	0.8381	-0.035
Mof_H 	H 	0.4409	0.3886	0.839	0.064
Mof_C 	C 	0.4892	0.38107	0.8896	-0.047
Mof_C 	C 	0.5307	0.38028	0.8895	-0.009
Mof_H 	H 	0.5448	0.3761	0.9244	0.061
Mof_C 	C 	0.5507	0.38596	0.8358	-0.053
Mof_C 	C 	0.5297	0.39287	0.7852	-0.029
Mof_H 	H 	0.5433	0.3967	0.7496	0.065
Mof_C 	C 	0.366	0.43276	0.6967	0.31
Mof_C 	C 	0.5088	0.4438	0.4289	0.174
Mof_C 	C 	0.519	0.35237	0.4675	0.388
Mof_C 	C 	0.4661	0.37579	0.9471	0.324
Mof_C 	C 	0.5954	0.38346	0.8335	0.333
Mof_C 	C 	0.7061	0.47628	0.1021	0.006
Mof_C 	C 	0.6761	0.49115	0.1238	-0.108
Mof_H 	H 	0.6723	0.4926	0.1654	0.077
Mof_C 	C 	0.6514	0.50399	0.0843	0.086
Mof_C 	C 	0.657	0.50124	0.0227	-0.124
Mof_H 	H 	0.6408	0.51	0.9959	0.072
Mof_C 	C 	0.6865	0.4857	-0	0.08
Mof_C 	C 	0.7114	0.47288	0.0395	-0.1
Mof_H 	H 	0.7311	0.4623	0.0248	0.091
Mof_C 	C 	0.6194	0.52078	0.11	-0.081
Mof_C 	C 	0.5973	0.51348	0.1594	0.099
Mof_H 	H 	0.6019	0.4979	0.1765	-0.01
Mof_C 	C 	0.5685	0.52852	0.1843	-0.25
Mof_C 	C 	0.5619	0.55203	0.159	0.118
Mof_H 	H 	0.5428	0.5626	0.1754	0.009
Mof_C 	C 	0.584	0.55932	0.1095	-0.116
Mof_C 	C 	0.612	0.54355	0.0846	0.035
Mof_H 	H 	0.6261	0.5485	0.0502	0.043
Mof_C 	C 	0.6899	0.48071	0.9331	-0.026
Mof_C 	C 	0.693	0.50074	0.8917	-0.026
Mof_H 	H 	0.6936	0.517	0.9059	0.057
Mof_C 	C 	0.6951	0.49615	0.8308	-0.053
Mof_C 	C 	0.6929	0.47241	0.8091	-0.001
Mof_H 	H 	0.6926	0.4696	0.7675	0.065
Mof_C 	C 	0.6911	0.45216	0.849	-0.061
Mof_C 	C 	0.6904	0.45677	0.9111	-0.022
Mof_H 	H 	0.6902	0.4435	0.9381	0.055
Mof_C 	C 	0.7349	0.46422	0.1453	0.304
Mof_C 	C 	0.5451	0.51988	0.2367	0.636
Mof_C 	C 	0.5787	0.58481	0.0828	0.336
Mof_C 	C 	0.6999	0.51748	0.7883	0.31
Mof_C 	C 	0.6879	0.4267	0.8254	0.318
Mof_O 	O 	0.4782	0.4617	0.439	-0.177
Mof_C 	C 	0.4941	0.442	0.4219	0.188
Mof_In	In	0.02908	0.97132	0.31868	2.172
Mof_In	In	0.04228	0.80447	0.46191	2.584
Mof_In	In	0.07715	0.13054	0.04403	2.567
Mof_O 	O 	0.8484	0.94254	0.6534	-0.495
Mof_O 	O 	0.84979	0.93096	0.7477	-0.523
Mof_O 	O 	0.0156	0.9402	0.3735	-0.605
Mof_O 	O 	0.0077	0.9645	0.452	-0.191
Mof_O 	O 	0.0362	0.84831	0.4203	-0.441
Mof_O 	O 	0.0127	0.83495	0.5042	-0.6
Mof_O 	O 	0.98327	0.87394	0.9974	-0.519
Mof_O 	O 	0.92895	0.87317	0.9435	-0.521
Mof_O 	O 	0.11111	0.88848	0.7812	-0.571
Mof_O 	O 	0.1153	0.87758	0.8774	-0.384
Mof_O 	O 	0.2668	0.95512	0.124	-0.546
Mof_O 	O 	0.2281	0.96333	0.2006	-0.475
Mof_O 	O 	0.0494	0.99836	0.2526	-0.722
Mof_O 	O 	0.0211	0.03506	0.2597	-0.669
Mof_O 	O 	0.05698	0.10069	0.1098	-0.512
Mof_O 	O 	0.0962	0.09038	0.0346	-0.508
Mof_O 	O 	0.1906	0.01463	0.732	-0.505
Mof_O 	O 	0.21193	0.038	0.8068	-0.497
Mof_O 	O 	0.1808	0.92294	0.7703	-0.463
Mof_O 	O 	0.1923	0.9083	0.8609	-0.545
Mof_C 	C 	0.9073	0.92291	0.6884	0.001
Mof_C 	C 	0.9235	0.92054	0.6305	-0.095
Mof_H 	H 	0.9099	0.927	0.5973	0.084
Mof_C 	C 	0.9598	0.9086	0.6222	0.069
Mof_C 	C 	0.9802	0.8996	0.6734	-0.138
Mof_H 	H 	0.0045	0.8916	0.6679	0.089
Mof_C 	C 	0.9654	0.9024	0.7322	0.068
Mof_C 	C 	0.9289	0.91414	0.7392	-0.092
Mof_H 	H 	0.9185	0.9163	0.778	0.083
Mof_C 	C 	0.9764	0.90445	0.5602	-0.026
Mof_C 	C 	0.9803	0.9249	0.5206	-0.009
Mof_H 	H 	0.971	0.9405	0.532	0.056
Mof_C 	C 	0.9978	0.92151	0.4652	-0.094
Mof_C 	C 	0.0094	0.89829	0.4455	0.036
Mof_H 	H 	0.0194	0.8961	0.4065	0.038
Mof_C 	C 	0.0056	0.8779	0.4853	-0.091
Mof_C 	C 	0.9898	0.8814	0.5429	-0.01
Mof_H 	H 	0.9883	0.8681	0.5698	0.054
Mof_C 	C 	0.9879	0.89417	0.7866	-0.019
Mof_C 	C 	0.9687	0.88806	0.8381	-0.024
Mof_H 	H 	0.9409	0.8886	0.839	0.06
Mof_C 	C 	0.9892	0.88107	0.8896	-0.058
Mof_C 	C 	0.0307	0.88028	0.8895	0.003
Mof_H 	H 	0.0448	0.8761	0.9244	0.058
Mof_C 	C 	0.0507	0.88596	0.8358	-0.061
Mof_C 	C 	0.0297	0.89287	0.7852	-0.015
Mof_H 	H 	0.0433	0.8967	0.7496	0.061
Mof_C 	C 	0.866	0.93276	0.6967	0.309
Mof_C 	C 	0.0088	0.9438	0.4289	0.158
Mof_C 	C 	0.019	0.85237	0.4675	0.388
Mof_C 	C 	0.9661	0.87579	0.9471	0.328
Mof_C 	C 	0.0954	0.88346	0.8335	0.336
Mof_C 	C 	0.2061	0.97628	0.1021	0.006
Mof_C 	C 	0.1761	0.99115	0.1238	-0.108
Mof_H 	H 	0.1723	0.9926	0.1654	0.077
Mof_C 	C 	0.1514	0.00399	0.0843	0.087
Mof_C 	C 	0.157	0.00124	0.0227	-0.124
Mof_H 	H 	0.1408	0.01	0.9959	0.072
Mof_C 	C 	0.1865	0.9857	-0	0.08
Mof_C 	C 	0.2114	0.97288	0.0395	-0.1
Mof_H 	H 	0.2311	0.9623	0.0248	0.091
Mof_C 	C 	0.1194	0.02078	0.11	-0.082
Mof_C 	C 	0.0973	0.01348	0.1594	0.1
Mof_H 	H 	0.1019	0.9979	0.1765	-0.01
Mof_C 	C 	0.0685	0.02852	0.1843	-0.249
Mof_C 	C 	0.0619	0.05203	0.159	0.118
Mof_H 	H 	0.0428	0.0626	0.1754	0.01
Mof_C 	C 	0.084	0.05932	0.1095	-0.116
Mof_C 	C 	0.112	0.04355	0.0846	0.035
Mof_H 	H 	0.1261	0.0485	0.0502	0.043
Mof_C 	C 	0.1899	0.98071	0.9331	-0.027
Mof_C 	C 	0.193	0.00074	0.8917	-0.025
Mof_H 	H 	0.1936	0.017	0.9059	0.057
Mof_C 	C 	0.1951	0.99615	0.8308	-0.054
Mof_C 	C 	0.1929	0.97241	0.8091	-0
Mof_H 	H 	0.1926	0.9696	0.7675	0.065
Mof_C 	C 	0.1911	0.95216	0.849	-0.061
Mof_C 	C 	0.1904	0.95677	0.9111	-0.022
Mof_H 	H 	0.1902	0.9435	0.9381	0.055
Mof_C 	C 	0.2349	0.96422	0.1453	0.304
Mof_C 	C 	0.0451	0.01988	0.2367	0.635
Mof_C 	C 	0.0787	0.08481	0.0828	0.336
Mof_C 	C 	0.1999	0.01748	0.7883	0.311
Mof_C 	C 	0.1879	0.9267	0.8254	0.318
Mof_O 	O 	0.9782	0.9617	0.439	-0.185
Mof_C 	C 	0.9941	0.942	0.4219	0.205
Mof_In	In	0.02908	0.47132	0.81868	2.169
Mof_In	In	0.04228	0.30447	0.96191	2.559
Mof_In	In	0.07715	0.63054	0.54403	2.544
Mof_O 	O 	0.8484	0.44254	0.1534	-0.493
Mof_O 	O 	0.84979	0.43096	0.2477	-0.522
Mof_O 	O 	0.0156	0.4402	0.8735	-0.607
Mof_O 	O 	0.0077	0.4645	0.952	-0.195
Mof_O 	O 	0.0362	0.34831	0.9203	-0.439
Mof_O 	O 	0.0127	0.33495	0.0042	-0.583
Mof_O 	O 	0.98327	0.37394	0.4974	-0.509
Mof_O 	O 	0.92895	0.37317	0.4435	-0.511
Mof_O 	O 	0.11111	0.38848	0.2812	-0.57
Mof_O 	O 	0.1153	0.37758	0.3774	-0.382
Mof_O 	O 	0.2668	0.45512	0.624	-0.547
Mof_O 	O 	0.2281	0.46333	0.7006	-0.476
Mof_O 	O 	0.0494	0.49836	0.7526	-0.722
Mof_O 	O 	0.0211	0.53506	0.7597	-0.67
Mof_O 	O 	0.05698	0.60069	0.6098	-0.513
Mof_O 	O 	0.0962	0.59038	0.5346	-0.51
Mof_O 	O 	0.1906	0.51463	0.232	-0.504
Mof_O 	O 	0.21193	0.538	0.3068	-0.495
Mof_O 	O 	0.1808	0.42294	0.2703	-0.462
Mof_O 	O 	0.1923	0.4083	0.3609	-0.543
Mof_C 	C 	0.9073	0.42291	0.1884	0.007
Mof_C 	C 	0.9235	0.42054	0.1305	-0.103
Mof_H 	H 	0.9099	0.427	0.0973	0.089
Mof_C 	C 	0.9598	0.4086	0.1222	0.083
Mof_C 	C 	0.9802	0.3996	0.1734	-0.145
Mof_H 	H 	0.0045	0.3916	0.1679	0.093
Mof_C 	C 	0.9654	0.4024	0.2322	0.073
Mof_C 	C 	0.9289	0.41414	0.2392	-0.096
Mof_H 	H 	0.9185	0.4163	0.278	0.085
Mof_C 	C 	0.9764	0.40445	0.0602	-0.05
Mof_C 	C 	0.9803	0.4249	0.0206	0.032
Mof_H 	H 	0.971	0.4405	0.032	0.046
Mof_C 	C 	0.9978	0.42151	0.9652	-0.129
Mof_C 	C 	0.0094	0.39829	0.9455	0.06
Mof_H 	H 	0.0194	0.3961	0.9065	0.03
Mof_C 	C 	0.0056	0.3779	0.9853	-0.121
Mof_C 	C 	0.9898	0.3814	0.0429	0.028
Mof_H 	H 	0.9883	0.3681	0.0698	0.043
Mof_C 	C 	0.9879	0.39417	0.2866	-0.019
Mof_C 	C 	0.9687	0.38806	0.3381	-0.024
Mof_H 	H 	0.9409	0.3886	0.339	0.061
Mof_C 	C 	0.9892	0.38107	0.3896	-0.056
Mof_C 	C 	0.0307	0.38028	0.3895	0.002
Mof_H 	H 	0.0448	0.3761	0.4244	0.06
Mof_C 	C 	0.0507	0.38596	0.3358	-0.059
Mof_C 	C 	0.0297	0.39287	0.2852	-0.015
Mof_H 	H 	0.0433	0.3967	0.2496	0.061
Mof_C 	C 	0.866	0.43276	0.1967	0.307
Mof_C 	C 	0.0088	0.4438	0.9289	0.164
Mof_C 	C 	0.019	0.35237	0.9675	0.38
Mof_C 	C 	0.9661	0.37579	0.4471	0.327
Mof_C 	C 	0.0954	0.38346	0.3335	0.335
Mof_C 	C 	0.2061	0.47628	0.6021	0.007
Mof_C 	C 	0.1761	0.49115	0.6238	-0.114
Mof_H 	H 	0.1723	0.4926	0.6654	0.079
Mof_C 	C 	0.1514	0.50399	0.5843	0.097
Mof_C 	C 	0.157	0.50124	0.5227	-0.151
Mof_H 	H 	0.1408	0.51	0.4959	0.091
Mof_C 	C 	0.1865	0.4857	0.5	0.073
Mof_C 	C 	0.2114	0.47288	0.5395	-0.1
Mof_H 	H 	0.2311	0.4623	0.5248	0.087
Mof_C 	C 	0.1194	0.52078	0.61	-0.09
Mof_C 	C 	0.0973	0.51348	0.6594	0.104
Mof_H 	H 	0.1019	0.4979	0.6765	-0.012
Mof_C 	C 	0.0685	0.52852	0.6843	-0.253
Mof_C 	C 	0.0619	0.55203	0.659	0.121
Mof_H 	H 	0.0428	0.5626	0.6754	0.008
Mof_C 	C 	0.084	0.55932	0.6095	-0.121
Mof_C 	C 	0.112	0.54355	0.5846	0.04
Mof_H 	H 	0.1261	0.5485	0.5502	0.039
Mof_C 	C 	0.1899	0.48071	0.4331	-0.01
Mof_C 	C 	0.193	0.50074	0.3917	-0.035
Mof_H 	H 	0.1936	0.517	0.4059	0.063
Mof_C 	C 	0.1951	0.49615	0.3308	-0.046
Mof_C 	C 	0.1929	0.47241	0.3091	-0.006
Mof_H 	H 	0.1926	0.4696	0.2675	0.067
Mof_C 	C 	0.1911	0.45216	0.349	-0.054
Mof_C 	C 	0.1904	0.45677	0.4111	-0.031
Mof_H 	H 	0.1902	0.4435	0.4381	0.061
Mof_C 	C 	0.2349	0.46422	0.6453	0.303
Mof_C 	C 	0.0451	0.51988	0.7367	0.636
Mof_C 	C 	0.0787	0.58481	0.5828	0.337
Mof_C 	C 	0.1999	0.51748	0.2883	0.308
Mof_C 	C 	0.1879	0.4267	0.3254	0.316
Mof_O 	O 	0.9782	0.4617	0.939	-0.189
Mof_C 	C 	0.9941	0.442	0.9219	0.209
Mof_O 	O 	0.75	0.75	0.6121	-0.809
Mof_O 	O 	0.75	0.25	0.1121	-0.808
Mof_O 	O 	0.25	0.25	0.6121	-0.809
Mof_O 	O 	0.25	0.75	0.1121	-0.808
Mof_O 	O 	2.12666e-33	0.5	0.8621	-0.807
Mof_O 	O 	8.93242e-34	1.27369e-33	0.3621	-0.807
Mof_O 	O 	0.5	0.5	0.3621	-0.81
Mof_O 	O 	0.5	0	0.8621	-0.809
_end
