data_functionalizedCrystal
_audit_creation_method	'EQeq! by Chris Wilmer'
_symmetry_space_group_name_H-M	'P1'
_symmetry_Int_Tables_number	1
_symmetry_cell_setting	triclinic
loop_
_symmetry_equiv_pos_as_xyz
  x,y,z
_cell_length_a	12.705
_cell_length_b	24.2253
_cell_length_c	15.0542
_cell_angle_alpha	90
_cell_angle_beta	92.802
_cell_angle_gamma	90
loop_
_atom_site_label
_atom_site_type_symbol
_atom_site_fract_x
_atom_site_fract_y
_atom_site_fract_z
_atom_site_charge
Mof_Cd	Cd	0.9627	0.90468	0.05426	0.388
Mof_Cd	Cd	0.95768	0.90977	0.32649	0.382
Mof_Cd	Cd	0.4972	0.89917	0.78125	0.393
Mof_Cd	Cd	0.51146	0.90574	0.5089	0.386
Mof_N 	N 	0.0854	0.9727	0.3142	-0.143
Mof_N 	N 	0.635	0.8388	0.7897	-0.145
Mof_O 	O 	0.0729	0.837	0.3027	-0.254
Mof_N 	N 	0.1708	0.3436	0.9449	-0.148
Mof_N 	N 	0.6184	0.4691	0.4749	-0.151
Mof_O 	O 	0.4001	0.8347	0.5429	-0.258
Mof_N 	N 	0.3536	0.3458	0.4688	-0.152
Mof_O 	O 	0.0421	0.8554	0.9426	-0.251
Mof_O 	O 	0.0087	0.8922	0.4735	-0.265
Mof_N 	N 	0.9037	0.4659	0.9429	-0.151
Mof_N 	N 	0.3691	0.9648	0.7809	-0.142
Mof_N 	N 	0.8253	0.8465	0.3151	-0.147
Mof_N 	N 	0.248	0.2629	0.9262	-0.138
Mof_O 	O 	0.4216	0.846	0.8957	-0.25
Mof_C 	C 	0.3027	0.8115	0.142	0.234
Mof_C 	C 	0.9977	0.9161	0.5455	0.265
Mof_N 	N 	0.8181	0.5445	0.9246	-0.14
Mof_O 	O 	0.509	0.9176	0.9493	-0.262
Mof_C 	C 	0.9078	0.517	0.9184	0.111
Mof_H 	H 	0.9685	0.5331	0.8981	-0.011
Mof_C 	C 	0.4702	0.9037	0.2912	0.256
Mof_C 	C 	0.7263	0.8505	0.28	0.006
Mof_H 	H 	0.6962	0.8818	0.2536	0.038
Mof_O 	O 	0.2254	0.771	0.1461	-0.263
Mof_C 	C 	0.1143	0.8447	0.6194	-0.182
Mof_H 	H 	0.1367	0.8353	0.5635	0.114
Mof_C 	C 	0.7349	0.7105	0.3554	0.097
Mof_C 	C 	0.2509	0.3563	0.4607	0.013
Mof_H 	H 	0.2214	0.3906	0.4724	0.034
Mof_C 	C 	0.8173	0.6742	0.3577	-0.071
Mof_H 	H 	0.8834	0.6861	0.342	0.051
Mof_C 	C 	0.2746	0.3474	0.9713	0.005
Mof_H 	H 	0.307	0.3792	0.9939	0.042
Mof_N 	N 	0.1761	0.051	0.328	-0.132
Mof_C 	C 	0.6694	0.6738	0.877	-0.078
Mof_H 	H 	0.6005	0.6868	0.8759	0.062
Mof_C 	C 	0.0464	0.8706	0.7852	0.023
Mof_C 	C 	0.4524	0.877	0.9597	0.259
Mof_O 	O 	0.5278	0.9457	0.2821	-0.239
Mof_C 	C 	0.1532	0.8166	0.6931	0.228
Mof_C 	C 	0.0086	0.9011	0.7116	-0.084
Mof_H 	H 	0.962	0.9302	0.7188	0.079
Mof_C 	C 	0.1994	0.1067	0.3525	0.086
Mof_C 	C 	0.177	0.1719	0.8991	-0.085
Mof_H 	H 	0.113	0.185	0.918	0.057
Mof_C 	C 	0.607	0.5198	0.4463	0.114
Mof_H 	H 	0.5415	0.536	0.4341	-0.016
Mof_C 	C 	0.1606	0.7705	0.2224	0.23
Mof_H 	H 	0.2059	0.7681	0.2768	-0.027
Mof_C 	C 	0.1948	0.3124	0.4341	0.002
Mof_H 	H 	0.1221	0.3105	0.4237	0.04
Mof_C 	C 	0.0844	0.0245	0.3404	0.081
Mof_H 	H 	0.0266	0.0411	0.3648	0
Mof_N 	N 	0.7238	0.7633	0.8268	-0.139
Mof_O 	O 	0.9512	0.9614	0.5546	-0.244
Mof_C 	C 	0.7245	0.4619	0.4867	0.009
Mof_H 	H 	0.7585	0.4302	0.5078	0.048
Mof_C 	C 	0.3662	0.8233	0.6173	0.217
Mof_C 	C 	0.3844	0.0144	0.8132	0.087
Mof_H 	H 	0.4499	0.0281	0.8327	-0.001
Mof_C 	C 	0.7949	0.5998	0.9015	0.096
Mof_C 	C 	0.8034	0.6194	0.3832	-0.084
Mof_H 	H 	0.86	0.5951	0.383	0.065
Mof_C 	C 	0.4146	0.8621	0.0511	0.026
Mof_C 	C 	0.2908	0.7727	0.6167	0.251
Mof_H 	H 	0.2473	0.7726	0.5611	-0.035
Mof_C 	C 	0.3225	0.181	0.3717	-0.076
Mof_H 	H 	0.3903	0.1946	0.366	0.052
Mof_O 	O 	0.9519	0.926	0.8875	-0.258
Mof_C 	C 	0.0101	0.8855	0.8773	0.254
Mof_C 	C 	0.1431	0.1954	0.402	-0.083
Mof_H 	H 	0.0895	0.2185	0.4198	0.065
Mof_O 	O 	0.2247	0.77299	0.6891	-0.27
Mof_N 	N 	0.2944	0.0432	0.8148	-0.131
Mof_O 	O 	0.4545	0.8816	0.3651	-0.257
Mof_N 	N 	0.7477	0.7658	0.3311	-0.139
Mof_C 	C 	0.709	0.6011	0.4081	0.101
Mof_N 	N 	0.2658	0.2704	0.425	-0.139
Mof_N 	N 	0.6951	0.5452	0.4365	-0.146
Mof_C 	C 	0.2825	0.0986	0.8434	0.084
Mof_C 	C 	0.3442	0.8393	0.2169	-0.184
Mof_H 	H 	0.319	0.8316	0.2725	0.116
Mof_C 	C 	0.0933	0.7196	0.2143	-0.716
Mof_H 	H 	0.1376	0.6876	0.2124	0.252
Mof_H 	H 	0.0493	0.7216	0.1607	0.256
Mof_H 	H 	0.0499	0.7172	0.2646	0.244
Mof_C 	C 	0.2182	0.0078	0.7808	-0.028
Mof_H 	H 	0.1467	0.0154	0.7724	0.044
Mof_C 	C 	0.2383	0.0143	0.2889	-0.01
Mof_H 	H 	0.3056	0.0208	0.2696	0.042
Mof_C 	C 	0.1183	0.8291	0.7776	-0.173
Mof_H 	H 	0.1434	0.8096	0.8274	0.122
Mof_C 	C 	0.3561	0.1881	0.8737	-0.084
Mof_H 	H 	0.4135	0.212	0.8745	0.066
Mof_C 	C 	0.0412	0.8876	0.6276	0.018
Mof_O 	O 	0.3874	0.8452	0.6896	-0.255
Mof_C 	C 	0.4226	0.8781	0.2086	0.025
Mof_C 	C 	0.4576	0.8902	0.1252	-0.088
Mof_H 	H 	0.5093	0.9168	0.1186	0.082
Mof_C 	C 	0.6288	0.7856	0.8102	0.104
Mof_H 	H 	0.5658	0.7662	0.8128	0.003
Mof_C 	C 	0.6388	0.6922	0.3798	-0.077
Mof_H 	H 	0.582	0.7164	0.3808	0.063
Mof_C 	C 	0.3004	0.1271	0.3522	-0.07
Mof_H 	H 	0.355	0.1036	0.3384	0.059
Mof_C 	C 	0.7718	0.5095	0.4622	0.014
Mof_H 	H 	0.844	0.5162	0.4631	0.039
Mof_C 	C 	0.8504	0.6889	0.8512	-0.078
Mof_H 	H 	0.9045	0.7118	0.8339	0.067
Mof_C 	C 	0.3355	0.8235	0.0594	-0.183
Mof_H 	H 	0.3052	0.8061	0.0094	0.126
Mof_C 	C 	0.6768	0.8006	0.2899	0.014
Mof_H 	H 	0.6077	0.7921	0.2717	0.036
Mof_C 	C 	0.3597	0.294	0.4471	0.11
Mof_H 	H 	0.4232	0.2748	0.4467	-0.002
Mof_C 	C 	0.2608	0.2065	0.8985	0.099
Mof_C 	C 	0.7971	0.805	0.8181	0.013
Mof_H 	H 	0.8698	0.8019	0.8266	0.037
Mof_C 	C 	0.8084	0.459	0.9706	0.028
Mof_H 	H 	0.7828	0.4263	0.9935	0.042
Mof_C 	C 	0.3675	0.134	0.8473	-0.068
Mof_H 	H 	0.4332	0.1213	0.8319	0.057
Mof_C 	C 	0.1852	0.1173	0.8721	-0.068
Mof_H 	H 	0.1275	0.0937	0.8729	0.058
Mof_C 	C 	0.3542	0.7205	0.6226	-0.738
Mof_H 	H 	0.3075	0.6893	0.621	0.257
Mof_H 	H 	0.3963	0.7202	0.6773	0.261
Mof_H 	H 	0.3993	0.7186	0.5734	0.251
Mof_C 	C 	0.7416	0.8516	0.7948	0.001
Mof_H 	H 	0.7704	0.8861	0.7842	0.038
Mof_C 	C 	0.6921	0.6201	0.9034	-0.073
Mof_H 	H 	0.6385	0.5975	0.9225	0.063
Mof_C 	C 	0.7499	0.7079	0.8523	0.098
Mof_C 	C 	0.1572	0.2927	0.9185	0.105
Mof_H 	H 	0.093	0.2785	0.8969	0.001
Mof_C 	C 	0.2436	0.2151	0.4	0.098
Mof_C 	C 	0.8707	0.6344	0.8765	-0.078
Mof_H 	H 	0.9396	0.6215	0.8762	0.061
Mof_C 	C 	0.7528	0.5062	0.9613	-0.005
Mof_H 	H 	0.6836	0.5119	0.9767	0.043
Mof_C 	C 	0.6265	0.6367	0.4033	-0.081
Mof_H 	H 	0.5599	0.6239	0.416	0.058
Mof_C 	C 	0.1211	0.143	0.3786	-0.065
Mof_H 	H 	0.052	0.1305	0.3798	0.055
Mof_C 	C 	0.2654	0.9611	0.7621	0.049
Mof_H 	H 	0.2313	0.9299	0.739	0.035
Mof_C 	C 	0.8369	0.7963	0.3468	0.1
Mof_H 	H 	0.898	0.7831	0.3761	0.006
Mof_C 	C 	0.1846	0.966	0.2828	0.031
Mof_H 	H 	0.2108	0.9332	0.2608	0.039
Mof_C 	C 	0.3232	0.2994	0.9605	0.008
Mof_H 	H 	0.394	0.2919	0.9735	0.037
Mof_O 	O 	0.0616	0.8429	0.154	-0.249
Mof_C 	C 	0.0921	0.822	0.2259	0.213
Mof_Cd	Cd	0.0373	0.40468	0.94574	0.388
Mof_Cd	Cd	0.04232	0.40977	0.67351	0.381
Mof_Cd	Cd	0.5028	0.39917	0.21875	0.391
Mof_Cd	Cd	0.48854	0.40574	0.4911	0.384
Mof_N 	N 	0.9146	0.4727	0.6858	-0.147
Mof_N 	N 	0.365	0.3388	0.2103	-0.144
Mof_O 	O 	0.9271	0.337	0.6973	-0.254
Mof_N 	N 	0.8292	0.8436	0.0551	-0.147
Mof_N 	N 	0.3816	0.9691	0.5251	-0.145
Mof_O 	O 	0.5999	0.3347	0.4571	-0.258
Mof_N 	N 	0.6464	0.8458	0.5312	-0.152
Mof_O 	O 	0.9579	0.3554	0.0574	-0.251
Mof_O 	O 	0.9913	0.3922	0.5265	-0.267
Mof_N 	N 	0.0963	0.9659	0.0571	-0.147
Mof_N 	N 	0.6309	0.4648	0.2191	-0.146
Mof_N 	N 	0.1747	0.3465	0.6849	-0.147
Mof_N 	N 	0.752	0.7629	0.0738	-0.137
Mof_O 	O 	0.5784	0.346	0.1043	-0.25
Mof_C 	C 	0.6973	0.3115	0.858	0.233
Mof_C 	C 	0.0023	0.4161	0.4545	0.268
Mof_N 	N 	0.1819	0.0445	0.0754	-0.135
Mof_O 	O 	0.491	0.4176	0.0507	-0.266
Mof_C 	C 	0.0922	0.017	0.0816	0.096
Mof_H 	H 	0.0315	0.0331	0.1019	-0.008
Mof_C 	C 	0.5298	0.4037	0.7088	0.256
Mof_C 	C 	0.2737	0.3505	0.72	0.006
Mof_H 	H 	0.3038	0.3818	0.7464	0.037
Mof_O 	O 	0.7746	0.271	0.8539	-0.263
Mof_C 	C 	0.8857	0.3447	0.3806	-0.181
Mof_H 	H 	0.8633	0.3353	0.4365	0.114
Mof_C 	C 	0.2651	0.2105	0.6446	0.098
Mof_C 	C 	0.7491	0.8563	0.5393	0.013
Mof_H 	H 	0.7786	0.8906	0.5276	0.035
Mof_C 	C 	0.1827	0.1742	0.6423	-0.074
Mof_H 	H 	0.1166	0.1861	0.658	0.051
Mof_C 	C 	0.7254	0.8474	0.0287	0.005
Mof_H 	H 	0.693	0.8792	0.0061	0.043
Mof_N 	N 	0.8239	0.551	0.672	-0.138
Mof_C 	C 	0.3306	0.1738	0.123	-0.08
Mof_H 	H 	0.3995	0.1868	0.1241	0.062
Mof_C 	C 	0.9536	0.3706	0.2148	0.023
Mof_C 	C 	0.5476	0.377	0.0403	0.26
Mof_O 	O 	0.4722	0.4457	0.7179	-0.243
Mof_C 	C 	0.8468	0.3166	0.3069	0.227
Mof_C 	C 	0.9914	0.4011	0.2884	-0.086
Mof_H 	H 	0.038	0.4302	0.2812	0.079
Mof_C 	C 	0.8006	0.6067	0.6475	0.089
Mof_C 	C 	0.823	0.6719	0.1009	-0.083
Mof_H 	H 	0.887	0.685	0.082	0.056
Mof_C 	C 	0.393	0.0198	0.5537	0.098
Mof_H 	H 	0.4585	0.036	0.5659	-0.013
Mof_C 	C 	0.8394	0.2705	0.7776	0.228
Mof_H 	H 	0.7941	0.2681	0.7232	-0.027
Mof_C 	C 	0.8052	0.8124	0.5659	0.002
Mof_H 	H 	0.8779	0.8105	0.5763	0.04
Mof_C 	C 	0.9156	0.5245	0.6596	0.097
Mof_H 	H 	0.9734	0.5411	0.6352	-0.002
Mof_N 	N 	0.2762	0.2633	0.1732	-0.139
Mof_O 	O 	0.0488	0.4614	0.4454	-0.249
Mof_C 	C 	0.2755	0.9619	0.5133	0.035
Mof_H 	H 	0.2415	0.9302	0.4922	0.041
Mof_C 	C 	0.6338	0.3233	0.3827	0.217
Mof_C 	C 	0.6156	0.5144	0.1868	0.102
Mof_H 	H 	0.5501	0.5281	0.1673	-0.003
Mof_C 	C 	0.2051	0.0998	0.0985	0.092
Mof_C 	C 	0.1966	0.1194	0.6168	-0.08
Mof_H 	H 	0.14	0.0951	0.617	0.063
Mof_C 	C 	0.5854	0.3621	0.9489	0.024
Mof_C 	C 	0.7092	0.2727	0.3833	0.25
Mof_H 	H 	0.7527	0.2726	0.4389	-0.034
Mof_C 	C 	0.6775	0.681	0.6283	-0.074
Mof_H 	H 	0.6097	0.6946	0.634	0.052
Mof_O 	O 	0.0481	0.426	0.1125	-0.259
Mof_C 	C 	0.9899	0.3855	0.1227	0.252
Mof_C 	C 	0.8569	0.6954	0.598	-0.08
Mof_H 	H 	0.9105	0.7185	0.5802	0.065
Mof_O 	O 	0.7753	0.27299	0.3109	-0.27
Mof_N 	N 	0.7056	0.5432	0.1852	-0.137
Mof_O 	O 	0.5455	0.3816	0.6349	-0.257
Mof_N 	N 	0.2523	0.2658	0.6689	-0.139
Mof_C 	C 	0.291	0.1011	0.5919	0.097
Mof_N 	N 	0.7342	0.7704	0.575	-0.139
Mof_N 	N 	0.3049	0.0452	0.5635	-0.139
Mof_C 	C 	0.7175	0.5986	0.1566	0.088
Mof_C 	C 	0.6558	0.3393	0.7831	-0.184
Mof_H 	H 	0.681	0.3316	0.7275	0.115
Mof_C 	C 	0.9067	0.2196	0.7857	-0.713
Mof_H 	H 	0.8624	0.1876	0.7876	0.25
Mof_H 	H 	0.9507	0.2216	0.8393	0.254
Mof_H 	H 	0.9501	0.2172	0.7354	0.243
Mof_C 	C 	0.7818	0.5078	0.2192	0.001
Mof_H 	H 	0.8533	0.5154	0.2276	0.038
Mof_C 	C 	0.7617	0.5143	0.7111	0.015
Mof_H 	H 	0.6944	0.5208	0.7304	0.037
Mof_C 	C 	0.8817	0.3291	0.2224	-0.173
Mof_H 	H 	0.8566	0.3096	0.1726	0.121
Mof_C 	C 	0.6439	0.6881	0.1263	-0.082
Mof_H 	H 	0.5865	0.712	0.1255	0.066
Mof_C 	C 	0.9588	0.3876	0.3724	0.016
Mof_O 	O 	0.6126	0.3452	0.3104	-0.256
Mof_C 	C 	0.5774	0.3781	0.7914	0.024
Mof_C 	C 	0.5424	0.3902	0.8748	-0.088
Mof_H 	H 	0.4907	0.4168	0.8814	0.08
Mof_C 	C 	0.3712	0.2856	0.1898	0.105
Mof_H 	H 	0.4342	0.2662	0.1872	0.003
Mof_C 	C 	0.3612	0.1922	0.6202	-0.08
Mof_H 	H 	0.418	0.2164	0.6192	0.064
Mof_C 	C 	0.6996	0.6271	0.6478	-0.073
Mof_H 	H 	0.645	0.6036	0.6616	0.061
Mof_C 	C 	0.2282	0.0095	0.5378	-0.012
Mof_H 	H 	0.156	0.0162	0.5369	0.044
Mof_C 	C 	0.1496	0.1889	0.1488	-0.08
Mof_H 	H 	0.0955	0.2118	0.1661	0.067
Mof_C 	C 	0.6645	0.3235	0.9406	-0.183
Mof_H 	H 	0.6948	0.3061	0.9906	0.125
Mof_C 	C 	0.3232	0.3006	0.7101	0.014
Mof_H 	H 	0.3923	0.2921	0.7283	0.036
Mof_C 	C 	0.6403	0.794	0.5529	0.11
Mof_H 	H 	0.5768	0.7748	0.5533	-0.002
Mof_C 	C 	0.7392	0.7065	0.1015	0.097
Mof_C 	C 	0.2029	0.305	0.1819	0.013
Mof_H 	H 	0.1302	0.3019	0.1734	0.038
Mof_C 	C 	0.1916	0.959	0.0294	0.054
Mof_H 	H 	0.2172	0.9263	0.0065	0.035
Mof_C 	C 	0.6325	0.634	0.1527	-0.07
Mof_H 	H 	0.5668	0.6213	0.1681	0.059
Mof_C 	C 	0.8148	0.6173	0.1279	-0.071
Mof_H 	H 	0.8725	0.5937	0.1271	0.06
Mof_C 	C 	0.6458	0.2205	0.3774	-0.735
Mof_H 	H 	0.6925	0.1893	0.379	0.255
Mof_H 	H 	0.6037	0.2202	0.3227	0.259
Mof_H 	H 	0.6007	0.2186	0.4266	0.249
Mof_C 	C 	0.2584	0.3516	0.2052	0.001
Mof_H 	H 	0.2296	0.3861	0.2158	0.037
Mof_C 	C 	0.3079	0.1201	0.0966	-0.071
Mof_H 	H 	0.3615	0.0975	0.0775	0.061
Mof_C 	C 	0.2501	0.2079	0.1477	0.1
Mof_C 	C 	0.8428	0.7927	0.0815	0.105
Mof_H 	H 	0.907	0.7785	0.1031	0.001
Mof_C 	C 	0.7564	0.7151	0.6	0.097
Mof_C 	C 	0.1293	0.1344	0.1235	-0.075
Mof_H 	H 	0.0604	0.1215	0.1238	0.06
Mof_C 	C 	0.2472	0.0062	0.0387	-0.03
Mof_H 	H 	0.3164	0.0119	0.0233	0.049
Mof_C 	C 	0.3735	0.1367	0.5967	-0.078
Mof_H 	H 	0.4401	0.1239	0.584	0.056
Mof_C 	C 	0.8789	0.643	0.6214	-0.068
Mof_H 	H 	0.948	0.6305	0.6202	0.057
Mof_C 	C 	0.7346	0.4611	0.2379	0.019
Mof_H 	H 	0.7687	0.4299	0.261	0.044
Mof_C 	C 	0.1631	0.2963	0.6532	0.1
Mof_H 	H 	0.102	0.2831	0.6239	0.006
Mof_C 	C 	0.8154	0.466	0.7172	0.004
Mof_H 	H 	0.7892	0.4332	0.7392	0.046
Mof_C 	C 	0.6768	0.7994	0.0395	0.008
Mof_H 	H 	0.606	0.7919	0.0265	0.037
Mof_O 	O 	0.9384	0.3429	0.846	-0.249
Mof_C 	C 	0.9079	0.322	0.7741	0.214
_end
