data_functionalizedCrystal
_audit_creation_method	'EQeq! by Chris Wilmer'
_symmetry_space_group_name_H-M	'P1'
_symmetry_Int_Tables_number	1
_symmetry_cell_setting	triclinic
loop_
_symmetry_equiv_pos_as_xyz
  x,y,z
_cell_length_a	26.9517
_cell_length_b	26.9517
_cell_length_c	13.2369
_cell_angle_alpha	90
_cell_angle_beta	90
_cell_angle_gamma	120
loop_
_atom_site_label
_atom_site_type_symbol
_atom_site_fract_x
_atom_site_fract_y
_atom_site_fract_z
_atom_site_charge
Mof_N 	N 	0.45892	0.4029	0.0619	-0.151
Mof_C 	C 	0.4491	0.36143	0.9962	0.122
Mof_H 	H 	0.4653	0.3721	0.9304	0.023
Mof_C 	C 	0.4168	0.30373	0.0189	-0.193
Mof_H 	H 	0.4115	0.2758	0.9699	0.131
Mof_C 	C 	0.39216	0.28694	0.1136	0.109
Mof_C 	C 	0.4027	0.3299	0.1821	-0.151
Mof_H 	H 	0.387	0.3205	0.2483	0.085
Mof_C 	C 	0.4361	0.3868	0.1536	0.086
Mof_H 	H 	0.4431	0.4157	0.2019	0.025
Mof_C 	C 	0.35907	0.22484	0.1405	-0.023
Mof_N 	N 	0.12559	0.73623	0.39523	-0.143
Mof_C 	C 	0.11577	0.69476	0.32953	0.089
Mof_H 	H 	0.13197	0.70543	0.26373	0.032
Mof_C 	C 	0.08347	0.63706	0.35223	-0.155
Mof_H 	H 	0.07817	0.60913	0.30323	0.112
Mof_C 	C 	0.05883	0.62027	0.44693	0.094
Mof_C 	C 	0.06937	0.66323	0.51543	-0.141
Mof_H 	H 	0.05367	0.65383	0.58163	0.081
Mof_C 	C 	0.10277	0.72013	0.48693	0.08
Mof_H 	H 	0.10977	0.74903	0.53523	0.027
Mof_C 	C 	0.02574	0.55817	0.47383	-0.024
Mof_N 	N 	0.79225	0.06957	0.72857	-0.139
Mof_C 	C 	0.78243	0.0281	0.66287	0.076
Mof_H 	H 	0.79863	0.03877	0.59707	0.035
Mof_C 	C 	0.75013	0.9704	0.68557	-0.139
Mof_H 	H 	0.74483	0.94247	0.63657	0.109
Mof_C 	C 	0.72549	0.95361	0.78027	0.085
Mof_C 	C 	0.73603	0.99657	0.84877	-0.124
Mof_H 	H 	0.72033	0.98717	0.91497	0.081
Mof_C 	C 	0.76943	0.05347	0.82027	0.068
Mof_H 	H 	0.77643	0.08237	0.86857	0.032
Mof_C 	C 	0.6924	0.89151	0.80717	-0.013
Mof_N 	N 	0.5971	0.05602	0.0619	-0.152
Mof_C 	C 	0.63857	0.08767	0.9962	0.117
Mof_H 	H 	0.6279	0.0932	0.9304	0.024
Mof_C 	C 	0.69627	0.11307	0.0189	-0.188
Mof_H 	H 	0.7242	0.1357	0.9699	0.128
Mof_C 	C 	0.71306	0.10522	0.1136	0.107
Mof_C 	C 	0.6701	0.0728	0.1821	-0.149
Mof_H 	H 	0.6795	0.0665	0.2483	0.084
Mof_C 	C 	0.6132	0.0493	0.1536	0.085
Mof_H 	H 	0.5843	0.0274	0.2019	0.024
Mof_C 	C 	0.77516	0.13423	0.1405	-0.021
Mof_N 	N 	0.26377	0.38935	0.39523	-0.142
Mof_C 	C 	0.30524	0.421	0.32953	0.088
Mof_H 	H 	0.29457	0.42653	0.26373	0.032
Mof_C 	C 	0.36294	0.4464	0.35223	-0.152
Mof_H 	H 	0.39087	0.46903	0.30323	0.112
Mof_C 	C 	0.37973	0.43855	0.44693	0.091
Mof_C 	C 	0.33677	0.40613	0.51543	-0.138
Mof_H 	H 	0.34617	0.39983	0.58163	0.081
Mof_C 	C 	0.27987	0.38263	0.48693	0.079
Mof_H 	H 	0.25097	0.36073	0.53523	0.028
Mof_C 	C 	0.44183	0.46756	0.47383	-0.012
Mof_N 	N 	0.93043	0.72269	0.72857	-0.146
Mof_C 	C 	0.9719	0.75434	0.66287	0.1
Mof_H 	H 	0.96123	0.75987	0.59707	0.03
Mof_C 	C 	0.0296	0.77974	0.68557	-0.167
Mof_H 	H 	0.05753	0.80237	0.63657	0.117
Mof_C 	C 	0.04639	0.77189	0.78027	0.103
Mof_C 	C 	0.00343	0.73947	0.84877	-0.152
Mof_H 	H 	0.01283	0.73317	0.91497	0.087
Mof_C 	C 	0.94653	0.71597	0.82027	0.092
Mof_H 	H 	0.91763	0.69407	0.86857	0.026
Mof_C 	C 	0.10849	0.8009	0.80717	-0.021
Mof_N 	N 	0.94398	0.54108	0.0619	-0.15
Mof_C 	C 	0.91233	0.5509	0.9962	0.118
Mof_H 	H 	0.9068	0.5347	0.9304	0.024
Mof_C 	C 	0.88693	0.5832	0.0189	-0.189
Mof_H 	H 	0.8643	0.5885	0.9699	0.129
Mof_C 	C 	0.89478	0.60784	0.1136	0.109
Mof_C 	C 	0.9272	0.5973	0.1821	-0.149
Mof_H 	H 	0.9335	0.613	0.2483	0.086
Mof_C 	C 	0.9507	0.5639	0.1536	0.086
Mof_H 	H 	0.9726	0.5569	0.2019	0.028
Mof_C 	C 	0.86577	0.64093	0.1405	-0.025
Mof_N 	N 	0.61065	0.87441	0.39523	-0.142
Mof_C 	C 	0.579	0.88423	0.32953	0.087
Mof_H 	H 	0.57347	0.86803	0.26373	0.033
Mof_C 	C 	0.5536	0.91653	0.35223	-0.149
Mof_H 	H 	0.53097	0.92183	0.30323	0.112
Mof_C 	C 	0.56145	0.94117	0.44693	0.087
Mof_C 	C 	0.59387	0.93063	0.51543	-0.135
Mof_H 	H 	0.60017	0.94633	0.58163	0.082
Mof_C 	C 	0.61737	0.89723	0.48693	0.079
Mof_H 	H 	0.63927	0.89023	0.53523	0.029
Mof_C 	C 	0.53244	0.97426	0.47383	-0
Mof_N 	N 	0.27731	0.20775	0.72857	-0.143
Mof_C 	C 	0.24566	0.21757	0.66287	0.089
Mof_H 	H 	0.24013	0.20137	0.59707	0.032
Mof_C 	C 	0.22026	0.24987	0.68557	-0.155
Mof_H 	H 	0.19763	0.25517	0.63657	0.113
Mof_C 	C 	0.22811	0.27451	0.78027	0.095
Mof_C 	C 	0.26053	0.26397	0.84877	-0.14
Mof_H 	H 	0.26683	0.27967	0.91497	0.084
Mof_C 	C 	0.28403	0.23057	0.82027	0.081
Mof_H 	H 	0.30593	0.22357	0.86857	0.028
Mof_C 	C 	0.1991	0.3076	0.80717	-0.02
Mof_N 	N 	0.4029	0.45892	0.9381	-0.13
Mof_C 	C 	0.36143	0.4491	0.0038	0.052
Mof_H 	H 	0.3721	0.4653	0.0696	0.043
Mof_C 	C 	0.30373	0.4168	0.9811	-0.108
Mof_H 	H 	0.2758	0.4115	0.0301	0.092
Mof_C 	C 	0.28694	0.39216	0.8864	0.07
Mof_C 	C 	0.3299	0.4027	0.8179	-0.123
Mof_H 	H 	0.3205	0.387	0.7517	0.077
Mof_C 	C 	0.3868	0.4361	0.8464	0.071
Mof_H 	H 	0.4157	0.4431	0.7981	0.031
Mof_C 	C 	0.22484	0.35907	0.8595	0.002
Mof_N 	N 	0.06957	0.79225	0.27143	-0.138
Mof_C 	C 	0.0281	0.78243	0.33713	0.073
Mof_H 	H 	0.03877	0.79863	0.40293	0.036
Mof_C 	C 	0.9704	0.75013	0.31443	-0.134
Mof_H 	H 	0.94247	0.74483	0.36343	0.107
Mof_C 	C 	0.95361	0.72549	0.21973	0.077
Mof_C 	C 	0.99657	0.73603	0.15123	-0.119
Mof_H 	H 	0.98717	0.72033	0.08503	0.075
Mof_C 	C 	0.05347	0.76943	0.17973	0.064
Mof_H 	H 	0.08237	0.77643	0.13143	0.031
Mof_C 	C 	0.89151	0.6924	0.19283	-0.001
Mof_N 	N 	0.73623	0.12559	0.60477	-0.143
Mof_C 	C 	0.69476	0.11577	0.67047	0.089
Mof_H 	H 	0.70543	0.13197	0.73627	0.032
Mof_C 	C 	0.63706	0.08347	0.64777	-0.155
Mof_H 	H 	0.60913	0.07817	0.69677	0.113
Mof_C 	C 	0.62027	0.05883	0.55307	0.094
Mof_C 	C 	0.66323	0.06937	0.48457	-0.14
Mof_H 	H 	0.65383	0.05367	0.41837	0.081
Mof_C 	C 	0.72013	0.10277	0.51307	0.08
Mof_H 	H 	0.74903	0.10977	0.46477	0.027
Mof_C 	C 	0.55817	0.02574	0.52617	-0.023
Mof_N 	N 	0.05602	0.5971	0.9381	-0.129
Mof_C 	C 	0.08767	0.63857	0.0038	0.048
Mof_H 	H 	0.0932	0.6279	0.0696	0.044
Mof_C 	C 	0.11307	0.69627	0.9811	-0.104
Mof_H 	H 	0.1357	0.7242	0.0301	0.09
Mof_C 	C 	0.10522	0.71306	0.8864	0.068
Mof_C 	C 	0.0728	0.6701	0.8179	-0.122
Mof_H 	H 	0.0665	0.6795	0.7517	0.076
Mof_C 	C 	0.0493	0.6132	0.8464	0.07
Mof_H 	H 	0.0274	0.5843	0.7981	0.03
Mof_C 	C 	0.13423	0.77516	0.8595	0.003
Mof_N 	N 	0.72269	0.93043	0.27143	-0.145
Mof_C 	C 	0.75434	0.9719	0.33713	0.098
Mof_H 	H 	0.75987	0.96123	0.40293	0.031
Mof_C 	C 	0.77974	0.0296	0.31443	-0.164
Mof_H 	H 	0.80237	0.05753	0.36343	0.115
Mof_C 	C 	0.77189	0.04639	0.21973	0.095
Mof_C 	C 	0.73947	0.00343	0.15123	-0.149
Mof_H 	H 	0.73317	0.01283	0.08503	0.082
Mof_C 	C 	0.71597	0.94653	0.17973	0.089
Mof_H 	H 	0.69407	0.91763	0.13143	0.024
Mof_C 	C 	0.8009	0.10849	0.19283	-0.009
Mof_N 	N 	0.38935	0.26377	0.60477	-0.142
Mof_C 	C 	0.421	0.30524	0.67047	0.088
Mof_H 	H 	0.42653	0.29457	0.73627	0.033
Mof_C 	C 	0.4464	0.36294	0.64777	-0.152
Mof_H 	H 	0.46903	0.39087	0.69677	0.112
Mof_C 	C 	0.43855	0.37973	0.55307	0.091
Mof_C 	C 	0.40613	0.33677	0.48457	-0.137
Mof_H 	H 	0.39983	0.34617	0.41837	0.081
Mof_C 	C 	0.38263	0.27987	0.51307	0.079
Mof_H 	H 	0.36073	0.25097	0.46477	0.028
Mof_C 	C 	0.46756	0.44183	0.52617	-0.012
Mof_N 	N 	0.54108	0.94398	0.9381	-0.129
Mof_C 	C 	0.5509	0.91233	0.0038	0.053
Mof_H 	H 	0.5347	0.9068	0.0696	0.044
Mof_C 	C 	0.5832	0.88693	0.9811	-0.109
Mof_H 	H 	0.5885	0.8643	0.0301	0.093
Mof_C 	C 	0.60784	0.89478	0.8864	0.072
Mof_C 	C 	0.5973	0.9272	0.8179	-0.123
Mof_H 	H 	0.613	0.9335	0.7517	0.077
Mof_C 	C 	0.5639	0.9507	0.8464	0.072
Mof_H 	H 	0.5569	0.9726	0.7981	0.033
Mof_C 	C 	0.64093	0.86577	0.8595	-0.001
Mof_N 	N 	0.20775	0.27731	0.27143	-0.142
Mof_C 	C 	0.21757	0.24566	0.33713	0.086
Mof_H 	H 	0.20137	0.24013	0.40293	0.033
Mof_C 	C 	0.24987	0.22026	0.31443	-0.151
Mof_H 	H 	0.25517	0.19763	0.36343	0.111
Mof_C 	C 	0.27451	0.22811	0.21973	0.087
Mof_C 	C 	0.26397	0.26053	0.15123	-0.136
Mof_H 	H 	0.27967	0.26683	0.08503	0.078
Mof_C 	C 	0.23057	0.28403	0.17973	0.078
Mof_H 	H 	0.22357	0.30593	0.13143	0.027
Mof_C 	C 	0.3076	0.1991	0.19283	-0.007
Mof_N 	N 	0.87441	0.61065	0.60477	-0.142
Mof_C 	C 	0.88423	0.579	0.67047	0.087
Mof_H 	H 	0.86803	0.57347	0.73627	0.033
Mof_C 	C 	0.91653	0.5536	0.64777	-0.149
Mof_H 	H 	0.92183	0.53097	0.69677	0.112
Mof_C 	C 	0.94117	0.56145	0.55307	0.087
Mof_C 	C 	0.93063	0.59387	0.48457	-0.134
Mof_H 	H 	0.94633	0.60017	0.41837	0.081
Mof_C 	C 	0.89723	0.61737	0.51307	0.078
Mof_H 	H 	0.89023	0.63927	0.46477	0.028
Mof_C 	C 	0.97426	0.53244	0.52617	-0
Mof_N 	N 	0.54108	0.5971	0.9381	-0.131
Mof_C 	C 	0.5509	0.63857	0.0038	0.054
Mof_H 	H 	0.5347	0.6279	0.0696	0.043
Mof_C 	C 	0.5832	0.69627	0.9811	-0.11
Mof_H 	H 	0.5885	0.7242	0.0301	0.093
Mof_C 	C 	0.60784	0.71306	0.8864	0.072
Mof_C 	C 	0.5973	0.6701	0.8179	-0.124
Mof_H 	H 	0.613	0.6795	0.7517	0.077
Mof_C 	C 	0.5639	0.6132	0.8464	0.072
Mof_H 	H 	0.5569	0.5843	0.7981	0.031
Mof_C 	C 	0.64093	0.77516	0.8595	-0.001
Mof_N 	N 	0.20775	0.93043	0.27143	-0.146
Mof_C 	C 	0.21757	0.9719	0.33713	0.098
Mof_H 	H 	0.20137	0.96123	0.40293	0.03
Mof_C 	C 	0.24987	0.0296	0.31443	-0.164
Mof_H 	H 	0.25517	0.05753	0.36343	0.115
Mof_C 	C 	0.27451	0.04639	0.21973	0.095
Mof_C 	C 	0.26397	0.00343	0.15123	-0.149
Mof_H 	H 	0.27967	0.01283	0.08503	0.081
Mof_C 	C 	0.23057	0.94653	0.17973	0.089
Mof_H 	H 	0.22357	0.91763	0.13143	0.024
Mof_C 	C 	0.3076	0.10849	0.19283	-0.01
Mof_N 	N 	0.87441	0.26377	0.60477	-0.142
Mof_C 	C 	0.88423	0.30524	0.67047	0.087
Mof_H 	H 	0.86803	0.29457	0.73627	0.033
Mof_C 	C 	0.91653	0.36294	0.64777	-0.149
Mof_H 	H 	0.92183	0.39087	0.69677	0.112
Mof_C 	C 	0.94117	0.37973	0.55307	0.087
Mof_C 	C 	0.93063	0.33677	0.48457	-0.134
Mof_H 	H 	0.94633	0.34617	0.41837	0.081
Mof_C 	C 	0.89723	0.27987	0.51307	0.078
Mof_H 	H 	0.89023	0.25097	0.46477	0.028
Mof_C 	C 	0.97426	0.44183	0.52617	-0
Mof_N 	N 	0.4029	0.94398	0.9381	-0.128
Mof_C 	C 	0.36143	0.91233	0.0038	0.051
Mof_H 	H 	0.3721	0.9068	0.0696	0.044
Mof_C 	C 	0.30373	0.88693	0.9811	-0.105
Mof_H 	H 	0.2758	0.8643	0.0301	0.091
Mof_C 	C 	0.28694	0.89478	0.8864	0.07
Mof_C 	C 	0.3299	0.9272	0.8179	-0.122
Mof_H 	H 	0.3205	0.9335	0.7517	0.077
Mof_C 	C 	0.3868	0.9507	0.8464	0.072
Mof_H 	H 	0.4157	0.9726	0.7981	0.033
Mof_C 	C 	0.22484	0.86577	0.8595	0.001
Mof_N 	N 	0.06957	0.27731	0.27143	-0.138
Mof_C 	C 	0.0281	0.24566	0.33713	0.073
Mof_H 	H 	0.03877	0.24013	0.40293	0.036
Mof_C 	C 	0.9704	0.22026	0.31443	-0.135
Mof_H 	H 	0.94247	0.19763	0.36343	0.107
Mof_C 	C 	0.95361	0.22811	0.21973	0.078
Mof_C 	C 	0.99657	0.26053	0.15123	-0.12
Mof_H 	H 	0.98717	0.26683	0.08503	0.075
Mof_C 	C 	0.05347	0.28403	0.17973	0.064
Mof_H 	H 	0.08237	0.30593	0.13143	0.031
Mof_C 	C 	0.89151	0.1991	0.19283	-0.003
Mof_N 	N 	0.73623	0.61065	0.60477	-0.142
Mof_C 	C 	0.69476	0.579	0.67047	0.088
Mof_H 	H 	0.70543	0.57347	0.73627	0.033
Mof_C 	C 	0.63706	0.5536	0.64777	-0.152
Mof_H 	H 	0.60913	0.53097	0.69677	0.112
Mof_C 	C 	0.62027	0.56145	0.55307	0.091
Mof_C 	C 	0.66323	0.59387	0.48457	-0.137
Mof_H 	H 	0.65383	0.60017	0.41837	0.081
Mof_C 	C 	0.72013	0.61737	0.51307	0.079
Mof_H 	H 	0.74903	0.63927	0.46477	0.028
Mof_C 	C 	0.55817	0.53244	0.52617	-0.012
Mof_N 	N 	0.05602	0.45892	0.9381	-0.129
Mof_C 	C 	0.08767	0.4491	0.0038	0.049
Mof_H 	H 	0.0932	0.4653	0.0696	0.044
Mof_C 	C 	0.11307	0.4168	0.9811	-0.105
Mof_H 	H 	0.1357	0.4115	0.0301	0.091
Mof_C 	C 	0.10522	0.39216	0.8864	0.068
Mof_C 	C 	0.0728	0.4027	0.8179	-0.122
Mof_H 	H 	0.0665	0.387	0.7517	0.076
Mof_C 	C 	0.0493	0.4361	0.8464	0.07
Mof_H 	H 	0.0274	0.4431	0.7981	0.03
Mof_C 	C 	0.13423	0.35907	0.8595	0.003
Mof_N 	N 	0.72269	0.79225	0.27143	-0.142
Mof_C 	C 	0.75434	0.78243	0.33713	0.087
Mof_H 	H 	0.75987	0.79863	0.40293	0.033
Mof_C 	C 	0.77974	0.75013	0.31443	-0.15
Mof_H 	H 	0.80237	0.74483	0.36343	0.112
Mof_C 	C 	0.77189	0.72549	0.21973	0.087
Mof_C 	C 	0.73947	0.73603	0.15123	-0.135
Mof_H 	H 	0.73317	0.72033	0.08503	0.079
Mof_C 	C 	0.71597	0.76943	0.17973	0.078
Mof_H 	H 	0.69407	0.77643	0.13143	0.027
Mof_C 	C 	0.8009	0.6924	0.19283	-0.005
Mof_N 	N 	0.38935	0.12559	0.60477	-0.143
Mof_C 	C 	0.421	0.11577	0.67047	0.089
Mof_H 	H 	0.42653	0.13197	0.73627	0.032
Mof_C 	C 	0.4464	0.08347	0.64777	-0.155
Mof_H 	H 	0.46903	0.07817	0.69677	0.113
Mof_C 	C 	0.43855	0.05883	0.55307	0.094
Mof_C 	C 	0.40613	0.06937	0.48457	-0.14
Mof_H 	H 	0.39983	0.05367	0.41837	0.081
Mof_C 	C 	0.38263	0.10277	0.51307	0.08
Mof_H 	H 	0.36073	0.10977	0.46477	0.027
Mof_C 	C 	0.46756	0.02574	0.52617	-0.023
Mof_N 	N 	0.5971	0.54108	0.0619	-0.152
Mof_C 	C 	0.63857	0.5509	0.9962	0.121
Mof_H 	H 	0.6279	0.5347	0.9304	0.023
Mof_C 	C 	0.69627	0.5832	0.0189	-0.192
Mof_H 	H 	0.7242	0.5885	0.9699	0.13
Mof_C 	C 	0.71306	0.60784	0.1136	0.109
Mof_C 	C 	0.6701	0.5973	0.1821	-0.151
Mof_H 	H 	0.6795	0.613	0.2483	0.085
Mof_C 	C 	0.6132	0.5639	0.1536	0.086
Mof_H 	H 	0.5843	0.5569	0.2019	0.025
Mof_C 	C 	0.77516	0.64093	0.1405	-0.024
Mof_N 	N 	0.26377	0.87441	0.39523	-0.142
Mof_C 	C 	0.30524	0.88423	0.32953	0.087
Mof_H 	H 	0.29457	0.86803	0.26373	0.033
Mof_C 	C 	0.36294	0.91653	0.35223	-0.149
Mof_H 	H 	0.39087	0.92183	0.30323	0.112
Mof_C 	C 	0.37973	0.94117	0.44693	0.087
Mof_C 	C 	0.33677	0.93063	0.51543	-0.135
Mof_H 	H 	0.34617	0.94633	0.58163	0.082
Mof_C 	C 	0.27987	0.89723	0.48693	0.079
Mof_H 	H 	0.25097	0.89023	0.53523	0.029
Mof_C 	C 	0.44183	0.97426	0.47383	-0
Mof_N 	N 	0.93043	0.20775	0.72857	-0.146
Mof_C 	C 	0.9719	0.21757	0.66287	0.1
Mof_H 	H 	0.96123	0.20137	0.59707	0.03
Mof_C 	C 	0.0296	0.24987	0.68557	-0.168
Mof_H 	H 	0.05753	0.25517	0.63657	0.117
Mof_C 	C 	0.04639	0.27451	0.78027	0.103
Mof_C 	C 	0.00343	0.26397	0.84877	-0.152
Mof_H 	H 	0.01283	0.27967	0.91497	0.087
Mof_C 	C 	0.94653	0.23057	0.82027	0.091
Mof_H 	H 	0.91763	0.22357	0.86857	0.026
Mof_C 	C 	0.10849	0.3076	0.80717	-0.022
Mof_N 	N 	0.94398	0.4029	0.0619	-0.149
Mof_C 	C 	0.91233	0.36143	0.9962	0.117
Mof_H 	H 	0.9068	0.3721	0.9304	0.025
Mof_C 	C 	0.88693	0.30373	0.0189	-0.187
Mof_H 	H 	0.8643	0.2758	0.9699	0.128
Mof_C 	C 	0.89478	0.28694	0.1136	0.108
Mof_C 	C 	0.9272	0.3299	0.1821	-0.149
Mof_H 	H 	0.9335	0.3205	0.2483	0.086
Mof_C 	C 	0.9507	0.3868	0.1536	0.086
Mof_H 	H 	0.9726	0.4157	0.2019	0.028
Mof_C 	C 	0.86577	0.22484	0.1405	-0.023
Mof_N 	N 	0.61065	0.73623	0.39523	-0.142
Mof_C 	C 	0.579	0.69476	0.32953	0.088
Mof_H 	H 	0.57347	0.70543	0.26373	0.032
Mof_C 	C 	0.5536	0.63706	0.35223	-0.152
Mof_H 	H 	0.53097	0.60913	0.30323	0.112
Mof_C 	C 	0.56145	0.62027	0.44693	0.091
Mof_C 	C 	0.59387	0.66323	0.51543	-0.138
Mof_H 	H 	0.60017	0.65383	0.58163	0.081
Mof_C 	C 	0.61737	0.72013	0.48693	0.079
Mof_H 	H 	0.63927	0.74903	0.53523	0.028
Mof_C 	C 	0.53244	0.55817	0.47383	-0.012
Mof_N 	N 	0.27731	0.06957	0.72857	-0.139
Mof_C 	C 	0.24566	0.0281	0.66287	0.076
Mof_H 	H 	0.24013	0.03877	0.59707	0.035
Mof_C 	C 	0.22026	0.9704	0.68557	-0.139
Mof_H 	H 	0.19763	0.94247	0.63657	0.109
Mof_C 	C 	0.22811	0.95361	0.78027	0.086
Mof_C 	C 	0.26053	0.99657	0.84877	-0.124
Mof_H 	H 	0.26683	0.98717	0.91497	0.081
Mof_C 	C 	0.28403	0.05347	0.82027	0.068
Mof_H 	H 	0.30593	0.08237	0.86857	0.032
Mof_C 	C 	0.1991	0.89151	0.80717	-0.015
Mof_N 	N 	0.45892	0.05602	0.0619	-0.152
Mof_C 	C 	0.4491	0.08767	0.9962	0.119
Mof_H 	H 	0.4653	0.0932	0.9304	0.023
Mof_C 	C 	0.4168	0.11307	0.0189	-0.191
Mof_H 	H 	0.4115	0.1357	0.9699	0.13
Mof_C 	C 	0.39216	0.10522	0.1136	0.108
Mof_C 	C 	0.4027	0.0728	0.1821	-0.15
Mof_H 	H 	0.387	0.0665	0.2483	0.085
Mof_C 	C 	0.4361	0.0493	0.1536	0.086
Mof_H 	H 	0.4431	0.0274	0.2019	0.024
Mof_C 	C 	0.35907	0.13423	0.1405	-0.021
Mof_N 	N 	0.12559	0.38935	0.39523	-0.143
Mof_C 	C 	0.11577	0.421	0.32953	0.089
Mof_H 	H 	0.13197	0.42653	0.26373	0.032
Mof_C 	C 	0.08347	0.4464	0.35223	-0.155
Mof_H 	H 	0.07817	0.46903	0.30323	0.112
Mof_C 	C 	0.05883	0.43855	0.44693	0.094
Mof_C 	C 	0.06937	0.40613	0.51543	-0.141
Mof_H 	H 	0.05367	0.39983	0.58163	0.081
Mof_C 	C 	0.10277	0.38263	0.48693	0.08
Mof_H 	H 	0.10977	0.36073	0.53523	0.027
Mof_C 	C 	0.02574	0.46756	0.47383	-0.024
Mof_N 	N 	0.79225	0.72269	0.72857	-0.142
Mof_C 	C 	0.78243	0.75434	0.66287	0.089
Mof_H 	H 	0.79863	0.75987	0.59707	0.033
Mof_C 	C 	0.75013	0.77974	0.68557	-0.154
Mof_H 	H 	0.74483	0.80237	0.63657	0.113
Mof_C 	C 	0.72549	0.77189	0.78027	0.094
Mof_C 	C 	0.73603	0.73947	0.84877	-0.139
Mof_H 	H 	0.72033	0.73317	0.91497	0.084
Mof_C 	C 	0.76943	0.71597	0.82027	0.081
Mof_H 	H 	0.77643	0.69407	0.86857	0.029
Mof_C 	C 	0.6924	0.8009	0.80717	-0.017
Mof_Cd	Cd	0.5	0.5	-0	0.442
Mof_Cd	Cd	0.16667	0.83333	0.33333	0.449
Mof_Cd	Cd	0.83333	0.16667	0.66667	0.449
Mof_Cd	Cd	0.5	0	-0	0.438
Mof_Cd	Cd	0.16667	0.33333	0.33333	0.449
Mof_Cd	Cd	0.83333	0.66667	0.66667	0.45
Mof_Cd	Cd	-0	0.5	-0	0.436
Mof_Cd	Cd	0.66667	0.83333	0.33333	0.449
Mof_Cd	Cd	0.33333	0.16667	0.66667	0.449
Mof_Cl	Cl	0.47175	0.52825	0.16589	-0.379
Mof_Cl	Cl	0.13841	0.86159	0.49922	-0.377
Mof_Cl	Cl	0.80508	0.19492	0.83256	-0.377
Mof_Cl	Cl	0.47175	0.94349	0.16589	-0.376
Mof_Cl	Cl	0.13841	0.27682	0.49922	-0.379
Mof_Cl	Cl	0.80508	0.61016	0.83256	-0.377
Mof_Cl	Cl	0.05651	0.52825	0.16589	-0.381
Mof_Cl	Cl	0.72318	0.86159	0.49922	-0.376
Mof_Cl	Cl	0.38984	0.19492	0.83256	-0.377
Mof_Cl	Cl	0.52826	0.47175	0.83411	-0.374
Mof_Cl	Cl	0.19492	0.80508	0.16744	-0.378
Mof_Cl	Cl	0.86159	0.13841	0.50078	-0.377
Mof_Cl	Cl	0.94349	0.47174	0.83411	-0.371
Mof_Cl	Cl	0.61016	0.80508	0.16744	-0.378
Mof_Cl	Cl	0.27682	0.13841	0.50078	-0.379
Mof_Cl	Cl	0.52825	0.05651	0.83411	-0.376
Mof_Cl	Cl	0.19492	0.38984	0.16744	-0.378
Mof_Cl	Cl	0.86159	0.72318	0.50078	-0.376
Mof_C 	C 	0.38402	0.19201	0.1152	-0.041
Mof_H 	H 	0.4194	0.2097	0.0795	0.06
Mof_C 	C 	0.05069	0.52534	0.44853	-0.04
Mof_H 	H 	0.08607	0.54303	0.41283	0.062
Mof_C 	C 	0.71735	0.85868	0.78187	-0.045
Mof_H 	H 	0.75273	0.87637	0.74617	0.065
Mof_C 	C 	0.80799	0.19201	0.1152	-0.04
Mof_H 	H 	0.7903	0.2097	0.0795	0.06
Mof_C 	C 	0.47466	0.52534	0.44853	-0.048
Mof_H 	H 	0.45697	0.54303	0.41283	0.065
Mof_C 	C 	0.14132	0.85868	0.78187	-0.042
Mof_H 	H 	0.12363	0.87637	0.74617	0.063
Mof_C 	C 	0.80799	0.61598	0.1152	-0.038
Mof_H 	H 	0.7903	0.5806	0.0795	0.059
Mof_C 	C 	0.47466	0.94931	0.44853	-0.056
Mof_H 	H 	0.45697	0.91393	0.41283	0.068
Mof_C 	C 	0.14132	0.28265	0.78187	-0.04
Mof_H 	H 	0.12363	0.24727	0.74617	0.062
Mof_C 	C 	0.19201	0.38402	0.8848	-0.06
Mof_H 	H 	0.2097	0.4194	0.9205	0.071
Mof_C 	C 	0.85868	0.71735	0.21813	-0.056
Mof_H 	H 	0.87637	0.75273	0.25383	0.068
Mof_C 	C 	0.52534	0.05069	0.55147	-0.04
Mof_H 	H 	0.54303	0.08607	0.58717	0.062
Mof_C 	C 	0.19201	0.80799	0.8848	-0.059
Mof_H 	H 	0.2097	0.7903	0.9205	0.071
Mof_C 	C 	0.85868	0.14132	0.21813	-0.054
Mof_H 	H 	0.87637	0.12363	0.25383	0.066
Mof_C 	C 	0.52534	0.47466	0.55147	-0.048
Mof_H 	H 	0.54303	0.45697	0.58717	0.065
Mof_C 	C 	0.61598	0.80799	0.8848	-0.056
Mof_H 	H 	0.5806	0.7903	0.9205	0.07
Mof_C 	C 	0.28265	0.14132	0.21813	-0.052
Mof_H 	H 	0.24727	0.12363	0.25383	0.065
Mof_C 	C 	0.94931	0.47466	0.55147	-0.057
Mof_H 	H 	0.91393	0.45697	0.58717	0.068
_end
