data_functionalizedCrystal
_audit_creation_method	'EQeq! by Chris Wilmer'
_symmetry_space_group_name_H-M	'P1'
_symmetry_Int_Tables_number	1
_symmetry_cell_setting	triclinic
loop_
_symmetry_equiv_pos_as_xyz
  x,y,z
_cell_length_a	14.908
_cell_length_b	15.345
_cell_length_c	27.753
_cell_angle_alpha	90
_cell_angle_beta	90.424
_cell_angle_gamma	90
loop_
_atom_site_label
_atom_site_type_symbol
_atom_site_fract_x
_atom_site_fract_y
_atom_site_fract_z
_atom_site_charge
Mof_C 	C 	0.1636	0.0477	0.39804	0.107
Mof_C 	C 	0.1378	0.0021	0.3553	-0.077
Mof_H 	H 	0.0955	0.0226	0.3322	0.062
Mof_C 	C 	0.181	0.9275	0.35255	-0.087
Mof_H 	H 	0.1763	0.8855	0.3275	0.063
Mof_C 	C 	0.2362	0.9224	0.39435	0.117
Mof_C 	C 	0.2885	0.852	0.40716	-0.15
Mof_C 	C 	0.3375	0.8463	0.44906	0.11
Mof_C 	C 	0.3854	0.7707	0.4649	-0.079
Mof_H 	H 	0.3921	0.7179	0.4474	0.058
Mof_C 	C 	0.4195	0.7878	0.50911	-0.093
Mof_H 	H 	0.4533	0.7484	0.5284	0.066
Mof_C 	C 	0.3965	0.8742	0.52193	0.121
Mof_C 	C 	0.4224	0.9143	0.56214	-0.149
Mof_C 	C 	0.4059	0.0053	0.57172	0.105
Mof_C 	C 	0.4393	0.0517	0.61251	-0.083
Mof_H 	H 	0.4739	0.0281	0.6382	0.061
Mof_C 	C 	0.4129	0.1349	0.60798	-0.084
Mof_H 	H 	0.4267	0.1814	0.6294	0.061
Mof_C 	C 	0.359	0.1405	0.56404	0.117
Mof_C 	C 	0.3153	0.2137	0.54897	-0.15
Mof_C 	C 	0.2568	0.2157	0.5103	0.116
Mof_C 	C 	0.2051	0.29	0.49592	-0.087
Mof_H 	H 	0.2071	0.3464	0.5101	0.064
Mof_C 	C 	0.1537	0.2653	0.459	-0.077
Mof_H 	H 	0.1115	0.3012	0.4425	0.062
Mof_C 	C 	0.1722	0.1755	0.44803	0.106
Mof_C 	C 	0.1365	0.1305	0.40997	-0.143
Mof_C 	C 	0.3119	0.6256	0.31697	-0.153
Mof_C 	C 	0.2375	0.6385	0.3456	0.093
Mof_H 	H 	0.1909	0.5963	0.3459	0.015
Mof_C 	C 	0.231	0.7121	0.3733	-0.184
Mof_H 	H 	0.18	0.7194	0.3933	0.092
Mof_C 	C 	0.2954	0.7749	0.37316	0.149
Mof_C 	C 	0.3661	0.7632	0.34386	-0.19
Mof_H 	H 	0.4106	0.8074	0.3422	0.095
Mof_C 	C 	0.3758	0.69	0.31645	0.098
Mof_H 	H 	0.4273	0.6836	0.2968	0.013
Mof_C 	C 	0.3247	0.5425	0.28895	0.373
Mof_C 	C 	0.5747	0.7666	0.66403	-0.149
Mof_C 	C 	0.4829	0.7641	0.66471	0.096
Mof_H 	H 	0.4531	0.7287	0.6876	0.015
Mof_C 	C 	0.4335	0.8127	0.63239	-0.176
Mof_H 	H 	0.3698	0.8103	0.6334	0.102
Mof_C 	C 	0.4741	0.8644	0.59893	0.131
Mof_C 	C 	0.567	0.8683	0.6003	-0.157
Mof_H 	H 	0.5968	0.9063	0.5787	0.066
Mof_C 	C 	0.6173	0.8195	0.63169	0.079
Mof_H 	H 	0.6809	0.8223	0.6311	0.018
Mof_C 	C 	0.6301	0.7116	0.69744	0.355
Mof_C 	C 	0.3558	0.4446	0.63617	-0.165
Mof_C 	C 	0.4239	0.412	0.6088	0.091
Mof_H 	H 	0.4811	0.4394	0.6092	0.015
Mof_C 	C 	0.4091	0.337	0.57972	-0.175
Mof_H 	H 	0.4569	0.3155	0.5606	0.091
Mof_C 	C 	0.3291	0.2952	0.57846	0.14
Mof_C 	C 	0.2609	0.3304	0.6061	-0.179
Mof_H 	H 	0.2037	0.3031	0.6061	0.091
Mof_C 	C 	0.2746	0.4041	0.63355	0.1
Mof_H 	H 	0.2258	0.4274	0.6512	0.015
Mof_C 	C 	0.3693	0.5207	0.66825	0.399
Mof_C 	C 	0.925	0.2466	0.32631	-0.115
Mof_C 	C 	0.0141	0.2691	0.31938	0.063
Mof_H 	H 	0.0285	0.3112	0.2955	0.039
Mof_C 	C 	0.0825	0.2321	0.34613	-0.16
Mof_H 	H 	0.1429	0.2488	0.3403	0.107
Mof_C 	C 	0.0644	0.1713	0.38104	0.126
Mof_C 	C 	0.9761	0.1475	0.38793	-0.153
Mof_H 	H 	0.9626	0.1046	0.4115	0.071
Mof_C 	C 	0.9061	0.1846	0.36128	0.056
Mof_H 	H 	0.8459	0.1676	0.367	0.019
Mof_C 	C 	0.8508	0.2892	0.29936	0.309
Mof_Fe	Fe	0.73142	0.62197	0.75524	0.844
Mof_Mn	Mn	0.27614	0.02189	0.4883	0.738
Mof_N 	N 	0.2266	0.9969	0.4218	-0.228
Mof_N 	N 	0.3451	0.91	0.48522	-0.23
Mof_N 	N 	0.3556	0.0601	0.54241	-0.23
Mof_N 	N 	0.2365	0.1452	0.48083	-0.23
Mof_O 	O 	0.3995	0.53305	0.26897	-0.359
Mof_O 	O 	0.2585	0.4896	0.28633	-0.354
Mof_O 	O 	0.59384	0.66434	0.73004	-0.394
Mof_O 	O 	0.7136	0.7124	0.69435	-0.338
Mof_O 	O 	0.4475	0.5448	0.67727	-0.357
Mof_O 	O 	0.2988	0.556	0.68396	-0.375
Mof_O 	O 	0.86955	0.3555	0.27235	-0.312
Mof_O 	O 	0.7729	0.2619	0.30287	-0.308
Mof_C 	C 	0.8364	0.0477	0.10196	0.105
Mof_C 	C 	0.8622	0.0021	0.1447	-0.079
Mof_H 	H 	0.9045	0.0226	0.1678	0.062
Mof_C 	C 	0.819	0.9275	0.14745	-0.087
Mof_H 	H 	0.8237	0.8855	0.1725	0.063
Mof_C 	C 	0.7638	0.9224	0.10565	0.116
Mof_C 	C 	0.7115	0.852	0.09284	-0.15
Mof_C 	C 	0.6625	0.8463	0.05094	0.109
Mof_C 	C 	0.6146	0.7707	0.0351	-0.077
Mof_H 	H 	0.6079	0.7179	0.0526	0.058
Mof_C 	C 	0.5805	0.7878	0.99089	-0.094
Mof_H 	H 	0.5467	0.7484	0.9716	0.067
Mof_C 	C 	0.6035	0.8742	0.97807	0.121
Mof_C 	C 	0.5776	0.9143	0.93786	-0.15
Mof_C 	C 	0.5941	0.0053	0.92828	0.106
Mof_C 	C 	0.5607	0.0517	0.88749	-0.083
Mof_H 	H 	0.5261	0.0281	0.8618	0.061
Mof_C 	C 	0.5871	0.1349	0.89202	-0.084
Mof_H 	H 	0.5733	0.1814	0.8706	0.061
Mof_C 	C 	0.641	0.1405	0.93596	0.117
Mof_C 	C 	0.6847	0.2137	0.95103	-0.15
Mof_C 	C 	0.7432	0.2157	0.9897	0.118
Mof_C 	C 	0.7949	0.29	0.00408	-0.09
Mof_H 	H 	0.7929	0.3464	0.9899	0.065
Mof_C 	C 	0.8463	0.2653	0.041	-0.075
Mof_H 	H 	0.8885	0.3012	0.0575	0.061
Mof_C 	C 	0.8278	0.1755	0.05197	0.105
Mof_C 	C 	0.8635	0.1305	0.09003	-0.142
Mof_C 	C 	0.6881	0.6256	0.18303	-0.153
Mof_C 	C 	0.7625	0.6385	0.1544	0.093
Mof_H 	H 	0.8091	0.5963	0.1541	0.015
Mof_C 	C 	0.769	0.7121	0.1267	-0.184
Mof_H 	H 	0.82	0.7194	0.1067	0.092
Mof_C 	C 	0.7046	0.7749	0.12684	0.148
Mof_C 	C 	0.6339	0.7632	0.15614	-0.19
Mof_H 	H 	0.5894	0.8074	0.1578	0.095
Mof_C 	C 	0.6242	0.69	0.18355	0.098
Mof_H 	H 	0.5727	0.6836	0.2032	0.013
Mof_C 	C 	0.6753	0.5425	0.21105	0.373
Mof_C 	C 	0.4253	0.7666	0.83597	-0.15
Mof_C 	C 	0.5171	0.7641	0.83529	0.096
Mof_H 	H 	0.5469	0.7287	0.8124	0.015
Mof_C 	C 	0.5665	0.8127	0.86761	-0.176
Mof_H 	H 	0.6302	0.8103	0.8666	0.102
Mof_C 	C 	0.5259	0.8644	0.90107	0.132
Mof_C 	C 	0.433	0.8683	0.8997	-0.157
Mof_H 	H 	0.4032	0.9063	0.9213	0.066
Mof_C 	C 	0.3827	0.8195	0.86831	0.079
Mof_H 	H 	0.3191	0.8223	0.8689	0.018
Mof_C 	C 	0.3699	0.7116	0.80256	0.355
Mof_C 	C 	0.6442	0.4446	0.86383	-0.165
Mof_C 	C 	0.5761	0.412	0.8912	0.091
Mof_H 	H 	0.5189	0.4394	0.8908	0.015
Mof_C 	C 	0.5909	0.337	0.92028	-0.175
Mof_H 	H 	0.5431	0.3155	0.9394	0.091
Mof_C 	C 	0.6709	0.2952	0.92154	0.14
Mof_C 	C 	0.7391	0.3304	0.8939	-0.179
Mof_H 	H 	0.7963	0.3031	0.8939	0.091
Mof_C 	C 	0.7254	0.4041	0.86645	0.1
Mof_H 	H 	0.7742	0.4274	0.8488	0.015
Mof_C 	C 	0.6307	0.5207	0.83175	0.399
Mof_C 	C 	0.075	0.2466	0.17369	-0.114
Mof_C 	C 	0.9859	0.2691	0.18062	0.063
Mof_H 	H 	0.9715	0.3112	0.2045	0.039
Mof_C 	C 	0.9175	0.2321	0.15387	-0.16
Mof_H 	H 	0.8571	0.2488	0.1597	0.107
Mof_C 	C 	0.9356	0.1713	0.11896	0.126
Mof_C 	C 	0.0239	0.1475	0.11207	-0.152
Mof_H 	H 	0.0374	0.1046	0.0885	0.071
Mof_C 	C 	0.0939	0.1846	0.13872	0.055
Mof_H 	H 	0.1541	0.1676	0.133	0.019
Mof_C 	C 	0.1492	0.2892	0.20064	0.309
Mof_Fe	Fe	0.26858	0.62197	0.74476	0.844
Mof_Mn	Mn	0.72386	0.02189	0.0117	0.736
Mof_N 	N 	0.7734	0.9969	0.0782	-0.227
Mof_N 	N 	0.6549	0.91	0.01478	-0.229
Mof_N 	N 	0.6444	0.0601	0.95759	-0.23
Mof_N 	N 	0.7635	0.1452	0.01917	-0.231
Mof_O 	O 	0.6005	0.53305	0.23103	-0.359
Mof_O 	O 	0.7415	0.4896	0.21367	-0.354
Mof_O 	O 	0.40616	0.66434	0.76996	-0.395
Mof_O 	O 	0.2864	0.7124	0.80565	-0.338
Mof_O 	O 	0.5525	0.5448	0.82273	-0.357
Mof_O 	O 	0.7012	0.556	0.81604	-0.375
Mof_O 	O 	0.13045	0.3555	0.22765	-0.311
Mof_O 	O 	0.2271	0.2619	0.19713	-0.308
Mof_C 	C 	0.8364	0.9523	0.60196	0.106
Mof_C 	C 	0.8622	0.9979	0.6447	-0.078
Mof_H 	H 	0.9045	0.9774	0.6678	0.061
Mof_C 	C 	0.819	0.0725	0.64745	-0.088
Mof_H 	H 	0.8237	0.1145	0.6725	0.063
Mof_C 	C 	0.7638	0.0776	0.60565	0.117
Mof_C 	C 	0.7115	0.148	0.59284	-0.15
Mof_C 	C 	0.6625	0.1537	0.55094	0.11
Mof_C 	C 	0.6146	0.2293	0.5351	-0.079
Mof_H 	H 	0.6079	0.2821	0.5526	0.058
Mof_C 	C 	0.5805	0.2122	0.49089	-0.093
Mof_H 	H 	0.5467	0.2516	0.4716	0.066
Mof_C 	C 	0.6035	0.1258	0.47807	0.121
Mof_C 	C 	0.5776	0.0857	0.43786	-0.149
Mof_C 	C 	0.5941	0.9947	0.42828	0.105
Mof_C 	C 	0.5607	0.9483	0.38749	-0.083
Mof_H 	H 	0.5261	0.9719	0.3618	0.061
Mof_C 	C 	0.5871	0.8651	0.39202	-0.084
Mof_H 	H 	0.5733	0.8186	0.3706	0.061
Mof_C 	C 	0.641	0.8595	0.43596	0.117
Mof_C 	C 	0.6847	0.7863	0.45103	-0.15
Mof_C 	C 	0.7432	0.7843	0.4897	0.116
Mof_C 	C 	0.7949	0.71	0.50408	-0.087
Mof_H 	H 	0.7929	0.6536	0.4899	0.064
Mof_C 	C 	0.8463	0.7347	0.541	-0.077
Mof_H 	H 	0.8885	0.6988	0.5575	0.062
Mof_C 	C 	0.8278	0.8245	0.55197	0.106
Mof_C 	C 	0.8635	0.8695	0.59003	-0.143
Mof_C 	C 	0.6881	0.3744	0.68303	-0.153
Mof_C 	C 	0.7625	0.3615	0.6544	0.093
Mof_H 	H 	0.8091	0.4037	0.6541	0.015
Mof_C 	C 	0.769	0.2879	0.6267	-0.184
Mof_H 	H 	0.82	0.2806	0.6067	0.092
Mof_C 	C 	0.7046	0.2251	0.62684	0.149
Mof_C 	C 	0.6339	0.2368	0.65614	-0.19
Mof_H 	H 	0.5894	0.1926	0.6578	0.095
Mof_C 	C 	0.6242	0.31	0.68355	0.098
Mof_H 	H 	0.5727	0.3164	0.7032	0.013
Mof_C 	C 	0.6753	0.4575	0.71105	0.373
Mof_C 	C 	0.4253	0.2334	0.33597	-0.149
Mof_C 	C 	0.5171	0.2359	0.33529	0.096
Mof_H 	H 	0.5469	0.2713	0.3124	0.015
Mof_C 	C 	0.5665	0.1873	0.36761	-0.176
Mof_H 	H 	0.6302	0.1897	0.3666	0.102
Mof_C 	C 	0.5259	0.1356	0.40107	0.131
Mof_C 	C 	0.433	0.1317	0.3997	-0.157
Mof_H 	H 	0.4032	0.0937	0.4213	0.066
Mof_C 	C 	0.3827	0.1805	0.36831	0.079
Mof_H 	H 	0.3191	0.1777	0.3689	0.018
Mof_C 	C 	0.3699	0.2884	0.30256	0.355
Mof_C 	C 	0.6442	0.5554	0.36383	-0.165
Mof_C 	C 	0.5761	0.588	0.3912	0.091
Mof_H 	H 	0.5189	0.5606	0.3908	0.015
Mof_C 	C 	0.5909	0.663	0.42028	-0.175
Mof_H 	H 	0.5431	0.6845	0.4394	0.091
Mof_C 	C 	0.6709	0.7048	0.42154	0.14
Mof_C 	C 	0.7391	0.6696	0.3939	-0.179
Mof_H 	H 	0.7963	0.6969	0.3939	0.091
Mof_C 	C 	0.7254	0.5959	0.36645	0.1
Mof_H 	H 	0.7742	0.5726	0.3488	0.015
Mof_C 	C 	0.6307	0.4793	0.33175	0.399
Mof_C 	C 	0.075	0.7534	0.67369	-0.115
Mof_C 	C 	0.9859	0.7309	0.68062	0.063
Mof_H 	H 	0.9715	0.6888	0.7045	0.039
Mof_C 	C 	0.9175	0.7679	0.65387	-0.16
Mof_H 	H 	0.8571	0.7512	0.6597	0.107
Mof_C 	C 	0.9356	0.8287	0.61896	0.126
Mof_C 	C 	0.0239	0.8525	0.61207	-0.153
Mof_H 	H 	0.0374	0.8954	0.5885	0.071
Mof_C 	C 	0.0939	0.8154	0.63872	0.056
Mof_H 	H 	0.1541	0.8324	0.633	0.019
Mof_C 	C 	0.1492	0.7108	0.70064	0.309
Mof_Fe	Fe	0.26858	0.37803	0.24476	0.844
Mof_Mn	Mn	0.72386	0.97811	0.5117	0.738
Mof_N 	N 	0.7734	0.0031	0.5782	-0.228
Mof_N 	N 	0.6549	0.09	0.51478	-0.23
Mof_N 	N 	0.6444	0.9399	0.45759	-0.23
Mof_N 	N 	0.7635	0.8548	0.51917	-0.23
Mof_O 	O 	0.6005	0.46695	0.73103	-0.359
Mof_O 	O 	0.7415	0.5104	0.71367	-0.354
Mof_O 	O 	0.40616	0.33566	0.26996	-0.394
Mof_O 	O 	0.2864	0.2876	0.30565	-0.338
Mof_O 	O 	0.5525	0.4552	0.32273	-0.357
Mof_O 	O 	0.7012	0.444	0.31604	-0.375
Mof_O 	O 	0.13045	0.6445	0.72765	-0.312
Mof_O 	O 	0.2271	0.7381	0.69713	-0.308
Mof_C 	C 	0.1636	0.9523	0.89804	0.105
Mof_C 	C 	0.1378	0.9979	0.8553	-0.079
Mof_H 	H 	0.0955	0.9774	0.8322	0.062
Mof_C 	C 	0.181	0.0725	0.85255	-0.087
Mof_H 	H 	0.1763	0.1145	0.8275	0.063
Mof_C 	C 	0.2362	0.0776	0.89435	0.116
Mof_C 	C 	0.2885	0.148	0.90716	-0.15
Mof_C 	C 	0.3375	0.1537	0.94906	0.109
Mof_C 	C 	0.3854	0.2293	0.9649	-0.077
Mof_H 	H 	0.3921	0.2821	0.9474	0.058
Mof_C 	C 	0.4195	0.2122	0.00911	-0.094
Mof_H 	H 	0.4533	0.2516	0.0284	0.067
Mof_C 	C 	0.3965	0.1258	0.02193	0.121
Mof_C 	C 	0.4224	0.0857	0.06214	-0.15
Mof_C 	C 	0.4059	0.9947	0.07172	0.106
Mof_C 	C 	0.4393	0.9483	0.11251	-0.083
Mof_H 	H 	0.4739	0.9719	0.1382	0.061
Mof_C 	C 	0.4129	0.8651	0.10798	-0.084
Mof_H 	H 	0.4267	0.8186	0.1294	0.061
Mof_C 	C 	0.359	0.8595	0.06404	0.117
Mof_C 	C 	0.3153	0.7863	0.04897	-0.15
Mof_C 	C 	0.2568	0.7843	0.0103	0.118
Mof_C 	C 	0.2051	0.71	0.99592	-0.09
Mof_H 	H 	0.2071	0.6536	0.0101	0.065
Mof_C 	C 	0.1537	0.7347	0.959	-0.075
Mof_H 	H 	0.1115	0.6988	0.9425	0.061
Mof_C 	C 	0.1722	0.8245	0.94803	0.105
Mof_C 	C 	0.1365	0.8695	0.90997	-0.142
Mof_C 	C 	0.3119	0.3744	0.81697	-0.153
Mof_C 	C 	0.2375	0.3615	0.8456	0.093
Mof_H 	H 	0.1909	0.4037	0.8459	0.015
Mof_C 	C 	0.231	0.2879	0.8733	-0.184
Mof_H 	H 	0.18	0.2806	0.8933	0.092
Mof_C 	C 	0.2954	0.2251	0.87316	0.148
Mof_C 	C 	0.3661	0.2368	0.84386	-0.19
Mof_H 	H 	0.4106	0.1926	0.8422	0.095
Mof_C 	C 	0.3758	0.31	0.81645	0.098
Mof_H 	H 	0.4273	0.3164	0.7968	0.013
Mof_C 	C 	0.3247	0.4575	0.78895	0.373
Mof_C 	C 	0.5747	0.2334	0.16403	-0.15
Mof_C 	C 	0.4829	0.2359	0.16471	0.096
Mof_H 	H 	0.4531	0.2713	0.1876	0.015
Mof_C 	C 	0.4335	0.1873	0.13239	-0.176
Mof_H 	H 	0.3698	0.1897	0.1334	0.102
Mof_C 	C 	0.4741	0.1356	0.09893	0.132
Mof_C 	C 	0.567	0.1317	0.1003	-0.157
Mof_H 	H 	0.5968	0.0937	0.0787	0.066
Mof_C 	C 	0.6173	0.1805	0.13169	0.079
Mof_H 	H 	0.6809	0.1777	0.1311	0.018
Mof_C 	C 	0.6301	0.2884	0.19744	0.355
Mof_C 	C 	0.3558	0.5554	0.13617	-0.165
Mof_C 	C 	0.4239	0.588	0.1088	0.091
Mof_H 	H 	0.4811	0.5606	0.1092	0.015
Mof_C 	C 	0.4091	0.663	0.07972	-0.175
Mof_H 	H 	0.4569	0.6845	0.0606	0.091
Mof_C 	C 	0.3291	0.7048	0.07846	0.14
Mof_C 	C 	0.2609	0.6696	0.1061	-0.179
Mof_H 	H 	0.2037	0.6969	0.1061	0.091
Mof_C 	C 	0.2746	0.5959	0.13355	0.1
Mof_H 	H 	0.2258	0.5726	0.1512	0.015
Mof_C 	C 	0.3693	0.4793	0.16825	0.399
Mof_C 	C 	0.925	0.7534	0.82631	-0.114
Mof_C 	C 	0.0141	0.7309	0.81938	0.063
Mof_H 	H 	0.0285	0.6888	0.7955	0.039
Mof_C 	C 	0.0825	0.7679	0.84613	-0.16
Mof_H 	H 	0.1429	0.7512	0.8403	0.107
Mof_C 	C 	0.0644	0.8287	0.88104	0.126
Mof_C 	C 	0.9761	0.8525	0.88793	-0.152
Mof_H 	H 	0.9626	0.8954	0.9115	0.071
Mof_C 	C 	0.9061	0.8154	0.86128	0.055
Mof_H 	H 	0.8459	0.8324	0.867	0.019
Mof_C 	C 	0.8508	0.7108	0.79936	0.309
Mof_Fe	Fe	0.73142	0.37803	0.25524	0.844
Mof_Mn	Mn	0.27614	0.97811	0.9883	0.736
Mof_N 	N 	0.2266	0.0031	0.9218	-0.227
Mof_N 	N 	0.3451	0.09	0.98522	-0.229
Mof_N 	N 	0.3556	0.9399	0.04241	-0.23
Mof_N 	N 	0.2365	0.8548	0.98083	-0.231
Mof_O 	O 	0.3995	0.46695	0.76897	-0.359
Mof_O 	O 	0.2585	0.5104	0.78633	-0.354
Mof_O 	O 	0.59384	0.33566	0.23004	-0.395
Mof_O 	O 	0.7136	0.2876	0.19435	-0.338
Mof_O 	O 	0.4475	0.4552	0.17727	-0.357
Mof_O 	O 	0.2988	0.444	0.18396	-0.375
Mof_O 	O 	0.86955	0.6445	0.77235	-0.311
Mof_O 	O 	0.7729	0.7381	0.80287	-0.308
Mof_Fe	Fe	0.5	0.55912	0.75	0.866
Mof_Fe	Fe	0.5	0.44088	0.25	0.866
_end
