data_functionalizedCrystal
_audit_creation_method	'EQeq! by Chris Wilmer'
_symmetry_space_group_name_H-M	'P1'
_symmetry_Int_Tables_number	1
_symmetry_cell_setting	triclinic
loop_
_symmetry_equiv_pos_as_xyz
  x,y,z
_cell_length_a	13.3471
_cell_length_b	13.6108
_cell_length_c	17.8963
_cell_angle_alpha	90
_cell_angle_beta	90
_cell_angle_gamma	91.7053
loop_
_atom_site_label
_atom_site_type_symbol
_atom_site_fract_x
_atom_site_fract_y
_atom_site_fract_z
_atom_site_charge
Mof_Eu	Eu	0.59445	0.14266	0.97034	2.405
Mof_Eu	Eu	0.85201	0.40242	0.01257	2.389
Mof_Eu	Eu	0.90555	0.35734	0.47034	2.398
Mof_Eu	Eu	0.64799	0.09758	0.51257	2.411
Mof_Eu	Eu	0.40555	0.85734	0.02966	2.405
Mof_Eu	Eu	0.14799	0.59758	0.98743	2.389
Mof_Eu	Eu	0.09445	0.64266	0.52966	2.398
Mof_Eu	Eu	0.35201	0.90242	0.48743	2.411
Mof_H 	H 	0.649	0.2651	0.741	-0.027
Mof_H 	H 	0.7527	0.5085	0.8465	-0.029
Mof_H 	H 	0.807	0.5722	0.7331	0.125
Mof_H 	H 	0.7911	0.4808	0.6259	-0.04
Mof_H 	H 	0.5573	0.1481	0.2427	0.03
Mof_H 	H 	0.4679	0.4015	0.1539	0.033
Mof_H 	H 	0.4435	0.4624	0.2723	0.077
Mof_H 	H 	0.4924	0.3741	0.3758	0.021
Mof_H 	H 	0.7177	0.7153	0.0071	-0.017
Mof_H 	H 	0.9965	0.7858	0.9371	-0.04
Mof_H 	H 	0.9595	0.9504	0.9431	0.125
Mof_H 	H 	0.8033	0.9979	0.9804	-0.063
Mof_H 	H 	0.649	0.392	0.077	0.263
Mof_H 	H 	0.515	0.992	0.864	0.274
Mof_H 	H 	0.851	0.2349	0.241	-0.027
Mof_H 	H 	0.7473	0.9915	0.3465	-0.026
Mof_H 	H 	0.693	0.9278	0.2331	0.122
Mof_H 	H 	0.7089	0.0192	0.1259	-0.039
Mof_H 	H 	0.9427	0.3519	0.7427	0.033
Mof_H 	H 	0.0321	0.0985	0.6539	0.036
Mof_H 	H 	0.0565	0.0376	0.7723	0.074
Mof_H 	H 	0.0076	0.1259	0.8758	0.022
Mof_H 	H 	0.7823	0.7847	0.5071	-0.01
Mof_H 	H 	0.5035	0.7142	0.4371	-0.043
Mof_H 	H 	0.5405	0.5496	0.4431	0.123
Mof_H 	H 	0.6967	0.5021	0.4804	-0.066
Mof_H 	H 	0.851	0.108	0.577	0.263
Mof_H 	H 	0.985	0.508	0.364	0.272
Mof_H 	H 	0.351	0.7349	0.259	-0.027
Mof_H 	H 	0.2473	0.4915	0.1535	-0.029
Mof_H 	H 	0.193	0.4278	0.2669	0.125
Mof_H 	H 	0.2089	0.5192	0.3741	-0.04
Mof_H 	H 	0.4427	0.8519	0.7573	0.03
Mof_H 	H 	0.5321	0.5985	0.8461	0.033
Mof_H 	H 	0.5565	0.5376	0.7277	0.077
Mof_H 	H 	0.5076	0.6259	0.6242	0.021
Mof_H 	H 	0.2823	0.2847	0.9929	-0.017
Mof_H 	H 	0.0035	0.2142	0.0629	-0.04
Mof_H 	H 	0.0405	0.0496	0.0569	0.125
Mof_H 	H 	0.1967	0.0021	0.0196	-0.063
Mof_H 	H 	0.351	0.608	0.923	0.263
Mof_H 	H 	0.485	0.008	0.136	0.274
Mof_H 	H 	0.149	0.7651	0.759	-0.027
Mof_H 	H 	0.2527	0.0085	0.6535	-0.026
Mof_H 	H 	0.307	0.0722	0.7669	0.122
Mof_H 	H 	0.2911	0.9808	0.8741	-0.039
Mof_H 	H 	0.0573	0.6481	0.2573	0.033
Mof_H 	H 	0.9679	0.9015	0.3461	0.036
Mof_H 	H 	0.9435	0.9624	0.2277	0.074
Mof_H 	H 	0.9924	0.8741	0.1242	0.022
Mof_H 	H 	0.2177	0.2153	0.4929	-0.01
Mof_H 	H 	0.4965	0.2858	0.5629	-0.043
Mof_H 	H 	0.4595	0.4504	0.5569	0.123
Mof_H 	H 	0.3033	0.4979	0.5196	-0.066
Mof_H 	H 	0.149	0.892	0.423	0.263
Mof_H 	H 	0.015	0.492	0.636	0.272
Mof_C 	C 	0.7156	0.3007	0.6024	0.567
Mof_C 	C 	0.7192	0.3624	0.6721	-0.281
Mof_C 	C 	0.6826	0.3259	0.7397	0.194
Mof_C 	C 	0.6958	0.3794	0.8051	-0.267
Mof_C 	C 	0.7435	0.4722	0.8029	0.181
Mof_C 	C 	0.7771	0.5097	0.735	-0.255
Mof_C 	C 	0.7666	0.4555	0.6708	0.192
Mof_C 	C 	0.6661	0.3352	0.8794	0.532
Mof_C 	C 	0.5667	0.1975	0.3855	0.327
Mof_C 	C 	0.5318	0.2529	0.3195	-0.12
Mof_C 	C 	0.5381	0.2128	0.2485	0.047
Mof_C 	C 	0.5157	0.2685	0.1859	-0.119
Mof_C 	C 	0.4823	0.3633	0.1954	0.044
Mof_C 	C 	0.4702	0.4006	0.2662	-0.116
Mof_C 	C 	0.4973	0.3469	0.3283	0.041
Mof_C 	C 	0.5323	0.2277	0.1099	0.342
Mof_C 	C 	0.64	0.8909	0.0169	0.538
Mof_C 	C 	0.7433	0.8611	0.9969	-0.28
Mof_C 	C 	0.7661	0.7627	0.994	0.21
Mof_C 	C 	0.8607	0.7339	0.9718	-0.28
Mof_C 	C 	0.9333	0.8046	0.9523	0.205
Mof_C 	C 	0.9109	0.903	0.9559	-0.273
Mof_C 	C 	0.8174	0.9315	0.978	0.203
Mof_C 	C 	0.8849	0.6272	0.9712	0.54
Mof_C 	C 	0.7844	0.1993	0.1024	0.566
Mof_C 	C 	0.7808	0.1376	0.1721	-0.279
Mof_C 	C 	0.8174	0.1741	0.2397	0.192
Mof_C 	C 	0.8042	0.1206	0.3051	-0.265
Mof_C 	C 	0.7565	0.0278	0.3029	0.174
Mof_C 	C 	0.7229	0.9903	0.235	-0.249
Mof_C 	C 	0.7334	0.0445	0.1708	0.187
Mof_C 	C 	0.8339	0.1648	0.3794	0.533
Mof_C 	C 	0.9333	0.3025	0.8855	0.323
Mof_C 	C 	0.9682	0.2471	0.8195	-0.112
Mof_C 	C 	0.9619	0.2872	0.7485	0.041
Mof_C 	C 	0.9843	0.2315	0.6859	-0.114
Mof_C 	C 	0.0177	0.1367	0.6954	0.036
Mof_C 	C 	0.0298	0.0994	0.7662	-0.109
Mof_C 	C 	0.0027	0.1531	0.8283	0.029
Mof_C 	C 	0.9677	0.2723	0.6099	0.339
Mof_C 	C 	0.86	0.6091	0.5169	0.541
Mof_C 	C 	0.7567	0.6389	0.4969	-0.282
Mof_C 	C 	0.7339	0.7373	0.494	0.201
Mof_C 	C 	0.6393	0.7661	0.4718	-0.28
Mof_C 	C 	0.5667	0.6954	0.4523	0.203
Mof_C 	C 	0.5891	0.597	0.4559	-0.274
Mof_C 	C 	0.6826	0.5685	0.478	0.202
Mof_C 	C 	0.6151	0.8728	0.4712	0.54
Mof_C 	C 	0.2844	0.6993	0.3976	0.567
Mof_C 	C 	0.2808	0.6376	0.3279	-0.281
Mof_C 	C 	0.3174	0.6741	0.2603	0.194
Mof_C 	C 	0.3042	0.6206	0.1949	-0.267
Mof_C 	C 	0.2565	0.5278	0.1971	0.181
Mof_C 	C 	0.2229	0.4903	0.265	-0.255
Mof_C 	C 	0.2334	0.5445	0.3292	0.192
Mof_C 	C 	0.3339	0.6648	0.1206	0.532
Mof_C 	C 	0.4333	0.8025	0.6145	0.327
Mof_C 	C 	0.4682	0.7471	0.6805	-0.12
Mof_C 	C 	0.4619	0.7872	0.7515	0.047
Mof_C 	C 	0.4843	0.7315	0.8141	-0.119
Mof_C 	C 	0.5177	0.6367	0.8046	0.044
Mof_C 	C 	0.5298	0.5994	0.7338	-0.116
Mof_C 	C 	0.5027	0.6531	0.6717	0.041
Mof_C 	C 	0.4677	0.7723	0.8901	0.342
Mof_C 	C 	0.36	0.1091	0.9831	0.538
Mof_C 	C 	0.2567	0.1389	0.0031	-0.28
Mof_C 	C 	0.2339	0.2373	0.006	0.21
Mof_C 	C 	0.1393	0.2661	0.0282	-0.28
Mof_C 	C 	0.0667	0.1954	0.0477	0.205
Mof_C 	C 	0.0891	0.097	0.0441	-0.273
Mof_C 	C 	0.1826	0.0685	0.022	0.203
Mof_C 	C 	0.1151	0.3728	0.0288	0.54
Mof_C 	C 	0.2156	0.8007	0.8976	0.566
Mof_C 	C 	0.2192	0.8624	0.8279	-0.279
Mof_C 	C 	0.1826	0.8259	0.7603	0.192
Mof_C 	C 	0.1958	0.8794	0.6949	-0.265
Mof_C 	C 	0.2435	0.9722	0.6971	0.174
Mof_C 	C 	0.2771	0.0097	0.765	-0.249
Mof_C 	C 	0.2666	0.9555	0.8292	0.187
Mof_C 	C 	0.1661	0.8352	0.6206	0.533
Mof_C 	C 	0.0667	0.6975	0.1145	0.323
Mof_C 	C 	0.0318	0.7529	0.1805	-0.112
Mof_C 	C 	0.0381	0.7128	0.2515	0.041
Mof_C 	C 	0.0157	0.7685	0.3141	-0.114
Mof_C 	C 	0.9823	0.8633	0.3046	0.036
Mof_C 	C 	0.9702	0.9006	0.2338	-0.109
Mof_C 	C 	0.9973	0.8469	0.1717	0.029
Mof_C 	C 	0.0323	0.7277	0.3901	0.339
Mof_C 	C 	0.14	0.3909	0.4831	0.541
Mof_C 	C 	0.2433	0.3611	0.5031	-0.282
Mof_C 	C 	0.2661	0.2627	0.506	0.201
Mof_C 	C 	0.3607	0.2339	0.5282	-0.28
Mof_C 	C 	0.4333	0.3046	0.5477	0.203
Mof_C 	C 	0.4109	0.403	0.5441	-0.274
Mof_C 	C 	0.3174	0.4315	0.522	0.202
Mof_C 	C 	0.3849	0.1272	0.5288	0.54
Mof_O 	O 	0.7633	0.3305	0.5458	-0.624
Mof_O 	O 	0.6646	0.2216	0.60455	-0.591
Mof_O 	O 	0.7137	0.3618	0.93617	-0.605
Mof_O 	O 	0.596	0.2711	0.88015	-0.556
Mof_O 	O 	0.5539	0.2849	0.05633	-0.446
Mof_O 	O 	0.528	0.1355	0.10011	-0.477
Mof_O 	O 	0.5655	0.1039	0.38558	-0.456
Mof_O 	O 	0.6017	0.2455	0.44057	-0.466
Mof_O 	O 	0.6149	0.9781	0.0059	-0.635
Mof_O 	O 	0.5802	0.8261	0.042	-0.535
Mof_O 	O 	0.8132	0.5656	0.9767	-0.556
Mof_O 	O 	0.9742	0.6024	0.9661	-0.641
Mof_O 	O 	0.6959	0.4382	0.0812	-0.533
Mof_O 	O 	0.5486	0.047	0.8573	-0.566
Mof_O 	O 	0.7367	0.1695	0.0458	-0.625
Mof_O 	O 	0.8354	0.2784	0.10455	-0.592
Mof_O 	O 	0.7863	0.1382	0.43617	-0.61
Mof_O 	O 	0.904	0.2289	0.38015	-0.557
Mof_O 	O 	0.9461	0.2151	0.55633	-0.446
Mof_O 	O 	0.972	0.3645	0.60011	-0.476
Mof_O 	O 	0.9345	0.3961	0.88558	-0.452
Mof_O 	O 	0.8983	0.2545	0.94057	-0.462
Mof_O 	O 	0.8851	0.5219	0.5059	-0.634
Mof_O 	O 	0.9198	0.6739	0.542	-0.534
Mof_O 	O 	0.6868	0.9344	0.4767	-0.561
Mof_O 	O 	0.5258	0.8976	0.4661	-0.648
Mof_O 	O 	0.8041	0.0618	0.5812	-0.535
Mof_O 	O 	0.9514	0.453	0.3573	-0.565
Mof_O 	O 	0.2367	0.6695	0.4542	-0.624
Mof_O 	O 	0.3354	0.7784	0.39545	-0.591
Mof_O 	O 	0.2863	0.6382	0.06383	-0.605
Mof_O 	O 	0.404	0.7289	0.11985	-0.556
Mof_O 	O 	0.4461	0.7151	0.94367	-0.446
Mof_O 	O 	0.472	0.8645	0.89989	-0.477
Mof_O 	O 	0.4345	0.8961	0.61442	-0.456
Mof_O 	O 	0.3983	0.7545	0.55943	-0.466
Mof_O 	O 	0.3851	0.0219	0.9941	-0.635
Mof_O 	O 	0.4198	0.1739	0.958	-0.535
Mof_O 	O 	0.1868	0.4344	0.0233	-0.556
Mof_O 	O 	0.0258	0.3976	0.0339	-0.641
Mof_O 	O 	0.3041	0.5618	0.9188	-0.533
Mof_O 	O 	0.4514	0.953	0.1427	-0.566
Mof_O 	O 	0.2633	0.8305	0.9542	-0.625
Mof_O 	O 	0.1646	0.7216	0.89545	-0.592
Mof_O 	O 	0.2137	0.8618	0.56383	-0.61
Mof_O 	O 	0.096	0.7711	0.61985	-0.557
Mof_O 	O 	0.0539	0.7849	0.44367	-0.446
Mof_O 	O 	0.028	0.6355	0.39989	-0.476
Mof_O 	O 	0.0655	0.6039	0.11442	-0.452
Mof_O 	O 	0.1017	0.7455	0.05943	-0.462
Mof_O 	O 	0.1149	0.4781	0.4941	-0.634
Mof_O 	O 	0.0802	0.3261	0.458	-0.534
Mof_O 	O 	0.3132	0.0656	0.5233	-0.561
Mof_O 	O 	0.4742	0.1024	0.5339	-0.648
Mof_O 	O 	0.1959	0.9382	0.4188	-0.535
Mof_O 	O 	0.0486	0.547	0.6427	-0.565
_end
