data_functionalizedCrystal
_audit_creation_method	'EQeq! by Chris Wilmer'
_symmetry_space_group_name_H-M	'P1'
_symmetry_Int_Tables_number	1
_symmetry_cell_setting	triclinic
loop_
_symmetry_equiv_pos_as_xyz
  x,y,z
_cell_length_a	9.0595
_cell_length_b	7.4628
_cell_length_c	9.4321
_cell_angle_alpha	90
_cell_angle_beta	90
_cell_angle_gamma	90
loop_
_atom_site_label
_atom_site_type_symbol
_atom_site_fract_x
_atom_site_fract_y
_atom_site_fract_z
_atom_site_charge
Mof_F 	F 	0.647	0.5563	0.6332	-0.607
Mof_F 	F 	0.147	0.0563	0.1332	-0.883
Mof_F 	F 	0.353	0.9437	0.6332	-0.5
Mof_F 	F 	0.853	0.4437	0.1332	-0.613
Mof_F 	F 	0.353	0.0563	0.3668	-0.796
Mof_F 	F 	0.853	0.5563	0.8668	-0.423
Mof_F 	F 	0.647	0.4437	0.3668	-0.641
Mof_F 	F 	0.147	0.9437	0.8668	-0.414
Mof_F 	F 	0.353	0.4437	0.3668	-0.683
Mof_F 	F 	0.853	0.9437	0.8668	-0.285
Mof_F 	F 	0.647	0.0563	0.3668	-0.752
Mof_F 	F 	0.147	0.5563	0.8668	-0.559
Mof_F 	F 	0.647	0.9437	0.6332	-0.462
Mof_F 	F 	0.147	0.4437	0.1332	-0.77
Mof_F 	F 	0.353	0.5563	0.6332	-0.647
Mof_F 	F 	0.853	0.0563	0.1332	-0.722
Mof_Zn	Zn	0.75	0.75	0.75	1.35
Mof_Zn	Zn	0.25	0.75	0.75	1.321
Mof_Zn	Zn	0.25	0.25	0.25	1.252
Mof_Zn	Zn	0.75	0.25	0.25	1.285
Mof_V 	V 	0.5	0.5	0.5	1.951
Mof_V 	V 	-0	0	-0	1.615
Mof_V 	V 	0.5	0	0.5	1.826
Mof_V 	V 	-4.94819e-33	0.5	-0	1.738
Mof_F 	F 	0.5	0.75	0.4245	-0.543
Mof_F 	F 	-1.61839e-32	0.25	0.9245	-0.618
Mof_F 	F 	0.5	0.25	0.5755	-0.682
Mof_F 	F 	-2.79789e-33	0.75	0.0755	-0.738
_end
