data_functionalizedCrystal
_audit_creation_method	'EQeq! by Chris Wilmer'
_symmetry_space_group_name_H-M	'P1'
_symmetry_Int_Tables_number	1
_symmetry_cell_setting	triclinic
loop_
_symmetry_equiv_pos_as_xyz
  x,y,z
_cell_length_a	18.6842
_cell_length_b	18.6842
_cell_length_c	9.408
_cell_angle_alpha	90
_cell_angle_beta	90
_cell_angle_gamma	90
loop_
_atom_site_label
_atom_site_type_symbol
_atom_site_fract_x
_atom_site_fract_y
_atom_site_fract_z
_atom_site_charge
Mof_P 	P 	0.06421	0.9434	0.33485	1.595
Mof_O 	O 	0.0734	0.9188	0.4871	-1.829
Mof_O 	O 	0.0584	0.8768	0.2423	-1.629
Mof_O 	O 	0.1286	0.9888	0.2933	-1.623
Mof_O 	O 	0.9951	0.9849	0.3217	-1.959
Mof_Al	Al	0.16453	0.04424	0.15671	4.694
Mof_O 	O 	0.1553	0.9993	0.9886	-1.369
Mof_O 	O 	0.256	0.0629	0.1917	-1.467
Mof_O 	O 	0.3733	0.1217	0.1555	-1.532
Mof_P 	P 	0.33331	0.05057	0.16026	1.334
Mof_O 	O 	0.3422	0.014	0.0173	-0.94
Mof_O 	O 	0.3638	0.0048	0.2781	-1.795
Mof_Al	Al	0.06542	0.83414	0.0806	4.616
Mof_Co	Co	0.93458	0.16586	0.9194	1.343
Mof_O 	O 	0.1376	0.8665	0.9827	-1.411
Mof_O 	O 	0.2446	0.9194	0.8772	-0.585
Mof_P 	P 	0.16652	0.93222	0.90426	1.307
Mof_O 	O 	0.1297	0.9399	0.7605	-1.799
Mof_Al	Al	0.05063	0.93361	0.66453	6.104
Mof_P 	P 	0.43579	0.5566	0.33485	1.583
Mof_O 	O 	0.4266	0.5812	0.4871	-1.84
Mof_O 	O 	0.4416	0.6232	0.2423	-1.615
Mof_O 	O 	0.3714	0.5112	0.2933	-1.574
Mof_O 	O 	0.5049	0.5151	0.3217	-1.953
Mof_Al	Al	0.33547	0.45576	0.15671	4.522
Mof_O 	O 	0.3447	0.5007	0.9886	-1.312
Mof_O 	O 	0.244	0.4371	0.1917	-1.441
Mof_O 	O 	0.1267	0.3783	0.1555	-1.56
Mof_P 	P 	0.16669	0.44943	0.16026	1.341
Mof_O 	O 	0.1578	0.486	0.0173	-0.954
Mof_O 	O 	0.1362	0.4952	0.2781	-1.838
Mof_Al	Al	0.43458	0.66586	0.0806	4.543
Mof_Co	Co	0.56542	0.33414	0.9194	1.352
Mof_O 	O 	0.3624	0.6335	0.9827	-1.394
Mof_O 	O 	0.2554	0.5806	0.8772	-0.576
Mof_P 	P 	0.33348	0.56778	0.90426	1.297
Mof_O 	O 	0.3703	0.5601	0.7605	-1.805
Mof_Al	Al	0.44937	0.56639	0.66453	6.163
Mof_P 	P 	0.5566	0.06421	0.33485	1.601
Mof_O 	O 	0.5812	0.0734	0.4871	-1.853
Mof_O 	O 	0.6232	0.0584	0.2423	-1.627
Mof_O 	O 	0.5112	0.1286	0.2933	-1.577
Mof_O 	O 	0.5151	0.9951	0.3217	-1.956
Mof_Al	Al	0.45576	0.16453	0.15671	4.53
Mof_O 	O 	0.5007	0.1553	0.9886	-1.313
Mof_O 	O 	0.4371	0.256	0.1917	-1.441
Mof_O 	O 	0.3783	0.3733	0.1555	-1.531
Mof_P 	P 	0.44943	0.33331	0.16026	1.329
Mof_O 	O 	0.486	0.3422	0.0173	-0.953
Mof_O 	O 	0.4952	0.3638	0.2781	-1.824
Mof_Al	Al	0.66586	0.06542	0.0806	4.614
Mof_Co	Co	0.33414	0.93458	0.9194	1.343
Mof_O 	O 	0.6335	0.1376	0.9827	-1.407
Mof_O 	O 	0.5806	0.2446	0.8772	-0.578
Mof_P 	P 	0.56778	0.16652	0.90426	1.305
Mof_O 	O 	0.5601	0.1297	0.7605	-1.82
Mof_Al	Al	0.56639	0.05063	0.66453	6.241
Mof_P 	P 	0.9434	0.43579	0.33485	1.591
Mof_O 	O 	0.9188	0.4266	0.4871	-1.828
Mof_O 	O 	0.8768	0.4416	0.2423	-1.622
Mof_O 	O 	0.9888	0.3714	0.2933	-1.618
Mof_O 	O 	0.9849	0.5049	0.3217	-1.981
Mof_Al	Al	0.04424	0.33547	0.15671	4.669
Mof_O 	O 	0.9993	0.3447	0.9886	-1.364
Mof_O 	O 	0.0629	0.244	0.1917	-1.464
Mof_O 	O 	0.1217	0.1267	0.1555	-1.562
Mof_P 	P 	0.05057	0.16669	0.16026	1.342
Mof_O 	O 	0.014	0.1578	0.0173	-0.937
Mof_O 	O 	0.0048	0.1362	0.2781	-1.792
Mof_Al	Al	0.83414	0.43458	0.0806	4.564
Mof_Co	Co	0.16586	0.56542	0.9194	1.353
Mof_O 	O 	0.8665	0.3624	0.9827	-1.403
Mof_O 	O 	0.9194	0.2554	0.8772	-0.585
Mof_P 	P 	0.93222	0.33348	0.90426	1.301
Mof_O 	O 	0.9399	0.3703	0.7605	-1.795
Mof_Al	Al	0.93361	0.44937	0.66453	6.08
Mof_P 	P 	0.93579	0.0566	0.66515	1.424
Mof_O 	O 	0.9266	0.0812	0.5129	-1.761
Mof_O 	O 	0.9416	0.1232	0.7577	-0.659
Mof_O 	O 	0.8714	0.0112	0.7067	-1.804
Mof_O 	O 	0.0049	0.0151	0.6783	-1.843
Mof_Al	Al	0.83547	0.95576	0.84329	6.097
Mof_O 	O 	0.8447	0.0007	0.0114	-2.005
Mof_O 	O 	0.744	0.9371	0.8083	-1.807
Mof_O 	O 	0.6267	0.8783	0.8445	-1.888
Mof_P 	P 	0.66669	0.94943	0.83974	1.715
Mof_O 	O 	0.6578	0.986	0.9827	-1.551
Mof_O 	O 	0.6362	0.9952	0.7219	-1.997
Mof_O 	O 	0.8624	0.1335	0.0173	-0.942
Mof_O 	O 	0.7554	0.0806	0.1228	-1.58
Mof_P 	P 	0.83348	0.06778	0.09574	1.406
Mof_O 	O 	0.8703	0.0601	0.2395	-1.807
Mof_Al	Al	0.94937	0.06639	0.33547	5.916
Mof_P 	P 	0.56421	0.4434	0.66515	1.463
Mof_O 	O 	0.5734	0.4188	0.5129	-1.776
Mof_O 	O 	0.5584	0.3768	0.7577	-0.657
Mof_O 	O 	0.6286	0.4888	0.7067	-1.843
Mof_O 	O 	0.4951	0.4849	0.6783	-1.908
Mof_Al	Al	0.66453	0.54424	0.84329	6.218
Mof_O 	O 	0.6553	0.4993	0.0114	-2.039
Mof_O 	O 	0.756	0.5629	0.8083	-1.825
Mof_O 	O 	0.8733	0.6217	0.8445	-1.865
Mof_P 	P 	0.83331	0.55057	0.83974	1.704
Mof_O 	O 	0.8422	0.514	0.9827	-1.526
Mof_O 	O 	0.8638	0.5048	0.7219	-1.949
Mof_O 	O 	0.6376	0.3665	0.0173	-0.944
Mof_O 	O 	0.7446	0.4194	0.1228	-1.574
Mof_P 	P 	0.66652	0.43222	0.09574	1.414
Mof_O 	O 	0.6297	0.4399	0.2395	-1.823
Mof_Al	Al	0.55063	0.43361	0.33547	5.983
Mof_P 	P 	0.4434	0.93579	0.66515	1.444
Mof_O 	O 	0.4188	0.9266	0.5129	-1.765
Mof_O 	O 	0.3768	0.9416	0.7577	-0.663
Mof_O 	O 	0.4888	0.8714	0.7067	-1.839
Mof_O 	O 	0.4849	0.0049	0.6783	-1.902
Mof_Al	Al	0.54424	0.83547	0.84329	6.2
Mof_O 	O 	0.4993	0.8447	0.0114	-2.034
Mof_O 	O 	0.5629	0.744	0.8083	-1.822
Mof_O 	O 	0.6217	0.6267	0.8445	-1.89
Mof_P 	P 	0.55057	0.66669	0.83974	1.713
Mof_O 	O 	0.514	0.6578	0.9827	-1.52
Mof_O 	O 	0.5048	0.6362	0.7219	-1.965
Mof_O 	O 	0.3665	0.8624	0.0173	-0.943
Mof_O 	O 	0.4194	0.7554	0.1228	-1.569
Mof_P 	P 	0.43222	0.83348	0.09574	1.407
Mof_O 	O 	0.4399	0.8703	0.2395	-1.809
Mof_Al	Al	0.43361	0.94937	0.33547	5.909
Mof_P 	P 	0.0566	0.56421	0.66515	1.456
Mof_O 	O 	0.0812	0.5734	0.5129	-1.786
Mof_O 	O 	0.1232	0.5584	0.7577	-0.653
Mof_O 	O 	0.0112	0.6286	0.7067	-1.802
Mof_O 	O 	0.0151	0.4951	0.6783	-1.873
Mof_Al	Al	0.95576	0.66453	0.84329	6.089
Mof_O 	O 	0.0007	0.6553	0.0114	-2.003
Mof_O 	O 	0.9371	0.756	0.8083	-1.804
Mof_O 	O 	0.8783	0.8733	0.8445	-1.867
Mof_P 	P 	0.94943	0.83331	0.83974	1.702
Mof_O 	O 	0.986	0.8422	0.9827	-1.549
Mof_O 	O 	0.9952	0.8638	0.7219	-1.964
Mof_O 	O 	0.1335	0.6376	0.0173	-0.943
Mof_O 	O 	0.0806	0.7446	0.1228	-1.581
Mof_P 	P 	0.06778	0.66652	0.09574	1.414
Mof_O 	O 	0.0601	0.6297	0.2395	-1.833
Mof_Al	Al	0.06639	0.55063	0.33547	6.052
_end
