data_functionalizedCrystal
_audit_creation_method	'EQeq! by Chris Wilmer'
_symmetry_space_group_name_H-M	'P1'
_symmetry_Int_Tables_number	1
_symmetry_cell_setting	triclinic
loop_
_symmetry_equiv_pos_as_xyz
  x,y,z
_cell_length_a	65.158
_cell_length_b	65.1579
_cell_length_c	65.1579
_cell_angle_alpha	109.471
_cell_angle_beta	109.471
_cell_angle_gamma	109.471
loop_
_atom_site_label
_atom_site_type_symbol
_atom_site_fract_x
_atom_site_fract_y
_atom_site_fract_z
_atom_site_charge
Mof_Zn	Zn	0.58441	0.30649	0.25934	1.208
Mof_Zn	Zn	0.56695	0.35176	0.16931	1.225
Mof_Zn	Zn	0.41559	0.69351	0.74066	1.208
Mof_Zn	Zn	0.39764	0.83069	0.18245	1.225
Mof_Zn	Zn	0.08441	0.82507	0.27792	1.208
Mof_Zn	Zn	0.68245	0.28481	0.85176	1.225
Mof_Zn	Zn	0.68245	0.39764	0.33069	1.225
Mof_Zn	Zn	0.32507	0.58441	0.77792	1.208
Mof_Zn	Zn	0.60236	0.16931	0.81755	1.225
Mof_Zn	Zn	0.24066	0.82507	0.54715	1.208
Mof_Zn	Zn	0.24066	0.41559	0.19351	1.208
Mof_Zn	Zn	0.17493	0.95285	0.25934	1.208
Mof_Zn	Zn	0.95285	0.19351	0.77792	1.208
Mof_Zn	Zn	0.75934	0.58441	0.80649	1.208
Mof_Zn	Zn	0.28481	0.93305	0.60236	1.225
Mof_Zn	Zn	0.25934	0.80649	0.58441	1.208
Mof_Zn	Zn	0.35176	0.66931	0.06695	1.225
Mof_Zn	Zn	0.83069	0.68245	0.89764	1.225
Mof_Zn	Zn	0.06695	0.89764	0.21519	1.225
Mof_Zn	Zn	0.91559	0.17493	0.72208	1.208
Mof_Zn	Zn	0.93305	0.10236	0.78481	1.225
Mof_Zn	Zn	0.16931	0.31755	0.10236	1.225
Mof_Zn	Zn	0.66931	0.10236	0.31755	1.225
Mof_Zn	Zn	0.30649	0.54715	0.72208	1.208
Mof_Zn	Zn	0.72208	0.67493	0.91559	1.208
Mof_Zn	Zn	0.78481	0.18245	0.35176	1.225
Mof_Zn	Zn	0.31755	0.71519	0.14824	1.225
Mof_Zn	Zn	0.54715	0.22208	0.80649	1.208
Mof_Zn	Zn	0.54715	0.32507	0.24066	1.208
Mof_Zn	Zn	0.39764	0.56695	0.71519	1.225
Mof_Zn	Zn	0.27792	0.32507	0.08441	1.208
Mof_Zn	Zn	0.69351	0.45285	0.27792	1.208
Mof_Zn	Zn	0.22208	0.91559	0.67493	1.208
Mof_Zn	Zn	0.25934	0.45285	0.17493	1.208
Mof_Zn	Zn	0.33069	0.43305	0.14824	1.225
Mof_Zn	Zn	0.74066	0.54715	0.82507	1.208
Mof_Zn	Zn	0.77792	0.08441	0.32507	1.208
Mof_Zn	Zn	0.93305	0.83069	0.64824	1.225
Mof_Zn	Zn	0.08441	0.25934	0.30649	1.208
Mof_Zn	Zn	0.64824	0.33069	0.93305	1.225
Mof_Zn	Zn	0.56695	0.21519	0.89764	1.225
Mof_Zn	Zn	0.06695	0.16931	0.35176	1.225
Mof_Zn	Zn	0.85176	0.06695	0.66931	1.225
Mof_Zn	Zn	0.33069	0.89764	0.68245	1.225
Mof_Zn	Zn	0.66931	0.56695	0.85176	1.225
Mof_Zn	Zn	0.82507	0.77792	0.58441	1.208
Mof_Zn	Zn	0.74066	0.19351	0.41559	1.208
Mof_Zn	Zn	0.17493	0.22208	0.41559	1.208
Mof_Zn	Zn	0.19351	0.91559	0.24066	1.208
Mof_Zn	Zn	0.81755	0.66931	0.60236	1.225
Mof_Zn	Zn	0.21519	0.81755	0.64824	1.225
Mof_Zn	Zn	0.19351	0.27792	0.45285	1.208
Mof_Zn	Zn	0.67493	0.25934	0.95285	1.208
Mof_Zn	Zn	0.60236	0.43305	0.28481	1.225
Mof_Zn	Zn	0.30649	0.75934	0.08441	1.208
Mof_Zn	Zn	0.71519	0.06695	0.39764	1.225
Mof_Zn	Zn	0.35176	0.68245	0.78481	1.225
Mof_Zn	Zn	0.22208	0.30649	0.04715	1.208
Mof_Zn	Zn	0.16931	0.85176	0.56695	1.225
Mof_Zn	Zn	0.69351	0.24066	0.91559	1.208
Mof_Zn	Zn	0.32507	0.74066	0.04715	1.208
Mof_Zn	Zn	0.80649	0.72208	0.54715	1.208
Mof_Zn	Zn	0.27792	0.95285	0.69351	1.208
Mof_Zn	Zn	0.10236	0.81755	0.16931	1.225
Mof_Zn	Zn	0.67493	0.41559	0.22208	1.208
Mof_Zn	Zn	0.75934	0.17493	0.45285	1.208
Mof_Zn	Zn	0.18245	0.33069	0.39764	1.225
Mof_Zn	Zn	0.72208	0.04715	0.30649	1.208
Mof_Zn	Zn	0.89764	0.71519	0.56695	1.225
Mof_Zn	Zn	0.41559	0.72208	0.17493	1.208
Mof_Zn	Zn	0.21519	0.39764	0.06695	1.225
Mof_Zn	Zn	0.58441	0.27792	0.82507	1.208
Mof_Zn	Zn	0.85176	0.78481	0.68245	1.224
Mof_Zn	Zn	0.95285	0.75934	0.67493	1.207
Mof_Zn	Zn	0.45285	0.67493	0.75934	1.207
Mof_Zn	Zn	0.82507	0.04715	0.74066	1.207
Mof_Zn	Zn	0.10236	0.28481	0.43305	1.224
Mof_Zn	Zn	0.28481	0.35176	0.18245	1.224
Mof_Zn	Zn	0.04715	0.80649	0.22208	1.207
Mof_Zn	Zn	0.14824	0.21519	0.31755	1.224
Mof_Zn	Zn	0.14824	0.93305	0.33069	1.224
Mof_Zn	Zn	0.91559	0.74066	0.69351	1.207
Mof_Zn	Zn	0.83069	0.14824	0.43305	1.224
Mof_Zn	Zn	0.80649	0.08441	0.75934	1.207
Mof_Zn	Zn	0.64824	0.31755	0.21519	1.224
Mof_Zn	Zn	0.04715	0.24066	0.32507	1.207
Mof_Zn	Zn	0.78481	0.60236	0.93305	1.224
Mof_Zn	Zn	0.18245	0.85176	0.28481	1.224
Mof_Zn	Zn	0.77792	0.69351	0.95285	1.207
Mof_Zn	Zn	0.43305	0.78481	0.10236	1.224
Mof_Zn	Zn	0.81755	0.14824	0.71519	1.224
Mof_Zn	Zn	0.31755	0.60236	0.66931	1.224
Mof_Zn	Zn	0.45285	0.77792	0.19351	1.207
Mof_Zn	Zn	0.89764	0.18245	0.83069	1.224
Mof_Zn	Zn	0.43305	0.64824	0.83069	1.224
Mof_Zn	Zn	0.71519	0.64824	0.81755	1.224
Mof_H 	H 	0.8024	0.6747	0.6645	-0.093
Mof_H 	H 	0.3544	0.7953	0.1769	0.172
Mof_H 	H 	0.2922	0.5075	0.1365	-0.014
Mof_H 	H 	0.3323	0.0268	0.6415	-0.09
Mof_H 	H 	0.9971	0.2026	0.4179	0.132
Mof_H 	H 	0.2207	0.7412	0.6415	-0.016
Mof_H 	H 	0.5792	0.3585	0.0997	-0.017
Mof_H 	H 	0.4971	0.4179	0.2026	0.132
Mof_H 	H 	0.812	0.8728	0.5886	0.115
Mof_H 	H 	0.6865	0.4172	0.1635	-0.008
Mof_H 	H 	0.0205	0.7412	0.0997	-0.016
Mof_H 	H 	0.1355	0.3031	0.3422	-0.021
Mof_H 	H 	0.2055	0.7847	0.2026	0.132
Mof_H 	H 	0.4735	0.3719	0.1676	0.191
Mof_H 	H 	0.0828	0.8135	0.3365	-0.008
Mof_H 	H 	0.8719	0.9735	0.6676	0.191
Mof_H 	H 	0.9732	0.8585	0.1677	-0.09
Mof_H 	H 	0.0591	0.8544	0.1775	0.172
Mof_H 	H 	0.5781	0.3045	0.1152	-0.022
Mof_H 	H 	0.7207	0.6415	0.7412	-0.016
Mof_H 	H 	0.6277	0.3024	0.1379	-0.092
Mof_H 	H 	0.6705	0.1071	0.8018	0.197
Mof_H 	H 	0.8621	0.6645	0.9898	-0.092
Mof_H 	H 	0.1602	0.3295	0.4285	0.158
Mof_H 	H 	0.7013	0.246	0.3387	0.122
Mof_H 	H 	0.8253	0.6976	0.8355	-0.093
Mof_H 	H 	0.1693	0.901	0.3295	0.158
Mof_H 	H 	0.7537	0.2307	0.9172	-0.008
Mof_H 	H 	0.2307	0.4172	0.2537	-0.008
Mof_H 	H 	0.3018	0.6313	0.1947	0.197
Mof_H 	H 	0.7933	0.6578	0.9609	-0.021
Mof_H 	H 	0.5268	0.8323	0.1415	-0.09
Mof_H 	H 	0.0029	0.7974	0.5821	0.132
Mof_H 	H 	0.8059	0.6016	0.4735	0.191
Mof_H 	H 	0.1147	0.8055	0.4732	-0.09
Mof_H 	H 	0.8295	0.1982	0.8929	0.197
Mof_H 	H 	0.6415	0.2412	0.2207	-0.016
Mof_H 	H 	0.1281	0.0265	0.3324	0.191
Mof_H 	H 	0.1705	0.3398	0.0715	0.158
Mof_H 	H 	0.1379	0.3355	0.0102	-0.092
Mof_H 	H 	0.4553	0.0927	0.754	0.122
Mof_H 	H 	0.7047	0.1456	0.3231	0.172
Mof_H 	H 	0.6557	0.2847	0.2922	-0.014
Mof_H 	H 	0.6865	0.2693	0.023	-0.008
Mof_H 	H 	0.7933	0.1355	0.3324	-0.021
Mof_H 	H 	0.5792	0.5821	0.7847	0.132
Mof_H 	H 	0.1908	0.8055	0.3323	-0.09
Mof_H 	H 	0.2683	0.4285	0.099	0.158
Mof_H 	H 	0.2847	0.7922	0.1557	-0.014
Mof_H 	H 	0.9898	0.1645	0.8621	-0.092
Mof_H 	H 	0.3024	0.6645	0.6747	-0.093
Mof_H 	H 	0.5853	0.2455	0.0202	0.134
Mof_H 	H 	0.2847	0.4925	0.629	-0.014
Mof_H 	H 	0.3135	0.5828	0.8365	-0.008
Mof_H 	H 	0.2766	0.5608	0.188	0.115
Mof_H 	H 	0.3053	0.6982	0.8687	0.197
Mof_H 	H 	0.2043	0.8719	0.3984	0.191
Mof_H 	H 	0.1969	0.8324	0.5391	-0.021
Mof_H 	H 	0.5886	0.2158	0.2766	0.115
Mof_H 	H 	0.8835	0.0694	0.7689	-0.038
Mof_H 	H 	0.1969	0.3645	0.1578	-0.021
Mof_H 	H 	0.1945	0.0268	0.3853	-0.09
Mof_H 	H 	0.099	0.1705	0.3307	0.158
Mof_H 	H 	0.2207	0.4795	0.0792	-0.017
Mof_H 	H 	0.1146	0.2311	0.3005	-0.038
Mof_H 	H 	0.5075	0.871	0.2153	-0.014
Mof_H 	H 	0.2545	0.3398	0.2747	0.134
Mof_H 	H 	0.3031	0.8422	0.6355	-0.021
Mof_H 	H 	0.3443	0.629	0.1365	-0.014
Mof_H 	H 	0.3031	0.4609	0.1676	-0.021
Mof_H 	H 	0.2689	0.8835	0.5694	-0.038
Mof_H 	H 	0.9114	0.7234	0.7842	0.115
Mof_H 	H 	0.1947	0.1313	0.3018	0.197
Mof_H 	H 	0.6602	0.4285	0.3295	0.158
Mof_H 	H 	0.0265	0.8324	0.6281	0.191
Mof_H 	H 	0.6016	0.6281	0.7957	0.191
Mof_H 	H 	0.6747	0.5102	0.8723	-0.092
Mof_H 	H 	0.4208	0.0029	0.7055	0.132
Mof_H 	H 	0.4735	0.1016	0.8059	0.191
Mof_H 	H 	0.3645	0.7067	0.1676	-0.021
Mof_H 	H 	0.5202	0.9349	0.2747	0.134
Mof_H 	H 	0.9366	0.1071	0.3053	0.197
Mof_H 	H 	0.1645	0.8024	0.1747	-0.093
Mof_H 	H 	0.8398	0.6705	0.5715	0.158
Mof_H 	H 	0.4795	0.5792	0.7207	-0.017
Mof_H 	H 	0.2253	0.4798	0.5651	0.134
Mof_H 	H 	0.7455	0.0853	0.5202	0.134
Mof_H 	H 	0.5591	0.3816	0.2047	0.172
Mof_H 	H 	0.9349	0.7747	0.0202	0.134
Mof_H 	H 	0.6147	0.4732	0.8055	-0.09
Mof_H 	H 	0.9219	0.8848	0.6955	-0.022
Mof_H 	H 	0.4409	0.6184	0.7953	0.172
Mof_H 	H 	0.9306	0.1995	0.8141	-0.038
Mof_H 	H 	0.7067	0.6676	0.8645	-0.021
Mof_H 	H 	0.7234	0.4392	0.812	0.115
Mof_H 	H 	0.9208	0.0205	0.7793	-0.017
Mof_H 	H 	0.3621	0.3723	0.1976	-0.092
Mof_H 	H 	0.0694	0.2689	0.3835	-0.038
Mof_H 	H 	0.1415	0.2207	0.2412	-0.016
Mof_H 	H 	0.6676	0.3031	0.9609	-0.021
Mof_H 	H 	0.5792	0.2207	0.9795	-0.017
Mof_H 	H 	0.6365	0.3443	0.129	-0.014
Mof_H 	H 	0.6281	0.2957	0.1016	0.191
Mof_H 	H 	0.1693	0.2683	0.3398	0.158
Mof_H 	H 	0.4179	0.7153	0.9208	0.132
Mof_H 	H 	0.6693	0.3398	0.2683	0.158
Mof_H 	H 	0.2922	0.7847	0.6557	-0.014
Mof_H 	H 	0.6456	0.4409	0.3225	0.172
Mof_H 	H 	0.1676	0.2067	0.3645	-0.021
Mof_H 	H 	0.0694	0.8005	0.1859	-0.038
Mof_H 	H 	0.8853	0.6908	0.8585	-0.09
Mof_H 	H 	0.1677	0.3585	0.9732	-0.09
Mof_H 	H 	0.8135	0.977	0.7307	-0.008
Mof_H 	H 	0.1635	0.9172	0.6865	-0.008
Mof_H 	H 	0.4798	0.4147	0.2545	0.134
Mof_H 	H 	0.3253	0.8355	0.6976	-0.093
Mof_H 	H 	0.2987	0.754	0.6613	0.122
Mof_H 	H 	0.6272	0.688	0.9114	0.115
Mof_H 	H 	0.9003	0.7588	0.9795	-0.016
Mof_H 	H 	0.8092	0.1945	0.6677	-0.09
Mof_H 	H 	0.188	0.0608	0.2766	0.115
Mof_H 	H 	0.9971	0.7945	0.0792	0.132
Mof_H 	H 	0.4147	0.6602	0.9349	0.134
Mof_H 	H 	0.1281	0.1016	0.2957	0.191
Mof_H 	H 	0.2412	0.5205	0.5997	-0.016
Mof_H 	H 	0.6676	0.1941	0.2957	0.191
Mof_H 	H 	0.129	0.2847	0.9925	-0.014
Mof_H 	H 	0.8365	0.7537	0.023	-0.008
Mof_H 	H 	0.254	0.4553	0.5927	0.122
Mof_H 	H 	0.3323	0.3055	0.1908	-0.09
Mof_H 	H 	0.746	0.2013	0.8387	0.122
Mof_H 	H 	0.5997	0.0205	0.2412	-0.016
Mof_H 	H 	0.9073	0.746	0.0447	0.122
Mof_H 	H 	0.1941	0.3984	0.5265	0.191
Mof_H 	H 	0.4179	0.7026	0.9971	0.132
Mof_H 	H 	0.688	0.2766	0.0608	0.115
Mof_H 	H 	0.1945	0.1677	0.3092	-0.09
Mof_H 	H 	0.3005	0.5694	0.6859	-0.038
Mof_H 	H 	0.6945	0.3853	0.0268	-0.09
Mof_H 	H 	0.5265	0.6281	0.8324	0.191
Mof_H 	H 	0.9553	0.754	0.0927	0.122
Mof_H 	H 	0.6456	0.2047	0.8231	0.172
Mof_H 	H 	0.8031	0.1676	0.4609	-0.021
Mof_H 	H 	0.7047	0.5591	0.8816	0.172
Mof_H 	H 	0.7307	0.2537	0.4172	-0.008
Mof_H 	H 	0.6281	0.3324	0.0265	0.191
Mof_H 	H 	0.0792	0.9795	0.2207	-0.017
Mof_H 	H 	0.1976	0.3253	0.3355	-0.093
Mof_H 	H 	0.0608	0.7766	0.688	0.115
Mof_H 	H 	0.1146	0.8835	0.3141	-0.038
Mof_H 	H 	0.629	0.9925	0.2847	-0.014
Mof_H 	H 	0.2693	0.7463	0.5828	-0.008
Mof_H 	H 	0.3045	0.6893	0.7264	-0.022
Mof_H 	H 	0.2013	0.3387	0.246	0.122
Mof_H 	H 	0.477	0.1635	0.7463	-0.008
Mof_H 	H 	0.9208	0.2153	0.4179	0.132
Mof_H 	H 	0.7078	0.2153	0.3443	-0.014
Mof_H 	H 	0.3585	0.7588	0.7793	-0.016
Mof_H 	H 	0.4629	0.5781	0.7736	-0.022
Mof_H 	H 	0.9392	0.2234	0.312	0.115
Mof_H 	H 	0.3984	0.3719	0.2043	0.191
Mof_H 	H 	0.2933	0.3324	0.1355	-0.021
Mof_H 	H 	0.3018	0.6705	0.6071	0.197
Mof_H 	H 	0.2253	0.7455	0.1602	0.134
Mof_H 	H 	0.9609	0.1578	0.7933	-0.021
Mof_H 	H 	0.3585	0.5997	0.0792	-0.017
Mof_H 	H 	0.4172	0.6635	0.1865	-0.008
Mof_H 	H 	0.1775	0.3544	0.0591	0.172
Mof_H 	H 	0.2545	0.9147	0.4798	0.134
Mof_H 	H 	0.2945	0.4971	0.5792	0.132
Mof_H 	H 	0.5694	0.1859	0.8005	-0.038
Mof_H 	H 	0.6969	0.1578	0.3645	-0.021
Mof_H 	H 	0.6379	0.0102	0.3355	-0.092
Mof_H 	H 	0.3398	0.5651	0.0853	0.134
Mof_H 	H 	0.371	0.0075	0.7153	-0.014
Mof_H 	H 	0.901	0.8295	0.6693	0.158
Mof_H 	H 	0.5927	0.9553	0.254	0.122
Mof_H 	H 	0.6969	0.5391	0.8324	-0.021
Mof_H 	H 	0.1071	0.3018	0.1705	0.197
Mof_H 	H 	0.5781	0.2736	0.9629	-0.022
Mof_H 	H 	0.7264	0.5371	0.9219	-0.022
Mof_H 	H 	0.2953	0.4409	0.1184	0.172
Mof_H 	H 	0.1415	0.9208	0.4003	-0.017
Mof_H 	H 	0.3059	0.8324	0.2043	0.191
Mof_H 	H 	0.3719	0.7043	0.8984	0.191
Mof_H 	H 	0.3295	0.9285	0.6602	0.158
Mof_H 	H 	0.0202	0.7455	0.5853	0.134
Mof_H 	H 	0.7311	0.6146	0.8005	-0.038
Mof_H 	H 	0.3853	0.8585	0.6908	-0.09
Mof_H 	H 	0.2974	0.5029	0.0821	0.132
Mof_H 	H 	0.2234	0.812	0.4392	0.115
Mof_H 	H 	0.6769	0.3225	0.8816	0.172
Mof_H 	H 	0.6165	0.2311	0.9306	-0.038
Mof_H 	H 	0.6355	0.3422	0.3031	-0.021
Mof_H 	H 	0.8585	0.6677	0.4732	-0.09
Mof_H 	H 	0.6982	0.3295	0.3929	0.197
Mof_H 	H 	0.3324	0.8059	0.7043	0.191
Mof_H 	H 	0.5853	0.3398	0.0651	0.134
Mof_H 	H 	0.7736	0.0781	0.4629	-0.022
Mof_H 	H 	0.9172	0.7307	0.7537	-0.008
Mof_H 	H 	0.8045	0.0781	0.6152	-0.022
Mof_H 	H 	0.2537	0.3365	0.523	-0.008
Mof_H 	H 	0.6602	0.2253	0.2455	0.134
Mof_H 	H 	0.6578	0.4609	0.2933	-0.021
Mof_H 	H 	0.6613	0.4073	0.8626	0.122
Mof_H 	H 	0.5651	0.5853	0.8398	0.134
Mof_H 	H 	0.8984	0.6941	0.0265	0.191
Mof_H 	H 	0.8854	0.1165	0.6859	-0.038
Mof_H 	H 	0.9147	0.9349	0.6602	0.134
Mof_H 	H 	0.2693	0.523	0.1865	-0.008
Mof_H 	H 	0.8295	0.6313	0.4366	0.197
Mof_H 	H 	0.7766	0.5886	0.7158	0.115
Mof_H 	H 	0.1277	0.1379	0.3024	-0.092
Mof_H 	H 	0.5821	0.2847	0.0792	0.132
Mof_H 	H 	0.5447	0.6374	0.7987	0.122
Mof_H 	H 	0.3635	0.6557	0.871	-0.014
Mof_H 	H 	0.8324	0.0391	0.6969	-0.021
Mof_H 	H 	0.754	0.5927	0.4553	0.122
Mof_H 	H 	0.8719	0.8984	0.7043	0.191
Mof_H 	H 	0.6775	0.0591	0.3544	0.172
Mof_H 	H 	0.5886	0.3728	0.812	0.115
Mof_H 	H 	0.4285	0.599	0.7683	0.158
Mof_H 	H 	0.6184	0.2953	0.9409	0.172
Mof_H 	H 	0.2264	0.3045	0.1893	-0.022
Mof_H 	H 	0.6693	0.3295	0.901	0.158
Mof_H 	H 	0.9285	0.7683	0.599	0.158
Mof_H 	H 	0.7588	0.4795	0.4003	-0.016
Mof_H 	H 	0.8365	0.0828	0.3135	-0.008
Mof_H 	H 	0.8324	0.7933	0.6355	-0.021
Mof_H 	H 	0.1676	0.2957	0.1941	0.191
Mof_H 	H 	0.8687	0.6705	0.0634	0.197
Mof_H 	H 	0.0608	0.2842	0.8728	0.115
Mof_H 	H 	0.3626	0.7013	0.9553	0.122
Mof_H 	H 	0.2588	0.4003	0.4795	-0.016
Mof_H 	H 	0.7311	0.1165	0.4306	-0.038
Mof_H 	H 	0.3324	0.5265	0.1281	0.191
Mof_H 	H 	0.0634	0.1705	0.8687	0.197
Mof_H 	H 	0.8544	0.1769	0.7953	0.172
Mof_H 	H 	0.8092	0.6147	0.6415	-0.09
Mof_H 	H 	0.3231	0.6775	0.1184	0.172
Mof_H 	H 	0.8141	0.1146	0.3835	-0.038
Mof_H 	H 	0.1557	0.2922	0.2847	-0.014
Mof_H 	H 	0.7013	0.4553	0.8626	0.122
Mof_H 	H 	0.7412	0.5997	0.5205	-0.016
Mof_H 	H 	0.3253	0.4898	0.1277	-0.092
Mof_H 	H 	0.3929	0.5634	0.1947	0.197
Mof_H 	H 	0.9925	0.7847	0.129	-0.014
Mof_H 	H 	0.977	0.2307	0.3135	-0.008
Mof_H 	H 	0.7847	0.7026	0.7055	0.132
Mof_H 	H 	0.523	0.6865	0.7693	-0.008
Mof_H 	H 	0.8621	0.1976	0.3723	-0.092
Mof_H 	H 	0.3355	0.8253	0.1976	-0.093
Mof_H 	H 	0.7842	0.2234	0.9114	0.115
Mof_H 	H 	0.9795	0.2588	0.9003	-0.016
Mof_H 	H 	0.0391	0.8422	0.2067	-0.021
Mof_H 	H 	0.7953	0.1184	0.4409	0.172
Mof_H 	H 	0.3854	0.6859	0.1165	-0.038
Mof_H 	H 	0.2747	0.4349	0.5202	0.134
Mof_H 	H 	0.9735	0.1676	0.3719	0.191
Mof_H 	H 	0.3984	0.0265	0.6941	0.191
Mof_H 	H 	0.2311	0.4306	0.1165	-0.038
Mof_H 	H 	0.3092	0.6415	0.6147	-0.09
Mof_H 	H 	0.6374	0.3387	0.0927	0.122
Mof_H 	H 	0.2736	0.4629	0.0781	-0.022
Mof_H 	H 	0.6165	0.3854	0.1859	-0.038
Mof_H 	H 	0.901	0.0715	0.7317	0.158
Mof_H 	H 	0.5371	0.1152	0.8107	-0.022
Mof_H 	H 	0.5205	0.4208	0.2793	-0.017
Mof_H 	H 	0.1908	0.3853	0.3585	-0.09
Mof_H 	H 	0.6677	0.9732	0.3585	-0.09
Mof_H 	H 	0.4003	0.9795	0.7588	-0.016
Mof_H 	H 	0.5828	0.3365	0.8135	-0.008
Mof_H 	H 	0.8324	0.1281	0.5265	0.191
Mof_H 	H 	0.3816	0.7047	0.0591	0.172
Mof_H 	H 	0.8585	0.7793	0.7588	-0.016
Mof_H 	H 	0.1955	0.2736	0.3107	-0.022
Mof_H 	H 	0.5268	0.6945	0.8853	-0.09
Mof_H 	H 	0.9409	0.7953	0.6184	0.172
Mof_H 	H 	0.3398	0.5715	0.6705	0.158
Mof_H 	H 	0.4898	0.8621	0.1645	-0.092
Mof_H 	H 	0.8323	0.1908	0.3055	-0.09
Mof_H 	H 	0.2013	0.8626	0.4553	0.122
Mof_H 	H 	0.2683	0.8398	0.6693	0.158
Mof_H 	H 	0.1374	0.0447	0.2987	0.122
Mof_H 	H 	0.7793	0.5205	0.9208	-0.017
Mof_H 	H 	0.9208	0.9003	0.6415	-0.017
Mof_H 	H 	0.7153	0.4208	0.9179	0.132
Mof_H 	H 	0.8307	0.099	0.6705	0.158
Mof_H 	H 	0.4609	0.6676	0.8031	-0.021
Mof_H 	H 	0.8323	0.6415	0.0268	-0.09
Mof_H 	H 	0.5828	0.2463	0.2693	-0.008
Mof_H 	H 	0.7689	0.5694	0.8835	-0.038
Mof_H 	H 	0.5591	0.1775	0.8544	0.172
Mof_H 	H 	0.1982	0.8053	0.3687	0.197
Mof_H 	H 	0.1995	0.3141	0.4306	-0.038
Mof_H 	H 	0.1071	0.8053	0.4366	0.197
Mof_H 	H 	0.2307	0.8135	0.477	-0.008
Mof_H 	H 	0.4003	0.4208	0.1415	-0.017
Mof_H 	H 	0.7055	0.2026	0.7847	0.132
Mof_H 	H 	0.8018	0.6071	0.6705	0.197
Mof_H 	H 	0.8848	0.6893	0.9629	-0.022
Mof_H 	H 	0.9732	0.1147	0.3055	-0.09
Mof_H 	H 	0.3141	0.9306	0.6995	-0.038
Mof_H 	H 	0.4898	0.6277	0.8253	-0.092
Mof_H 	H 	0.6071	0.1705	0.3018	0.197
Mof_H 	H 	0.7455	0.6602	0.7253	0.134
Mof_H 	H 	0.099	0.9285	0.2683	0.158
Mof_H 	H 	0.2264	0.9219	0.5371	-0.022
Mof_H 	H 	0.2953	0.8544	0.6769	0.172
Mof_H 	H 	0.3053	0.6071	0.9366	0.197
Mof_H 	H 	0.1645	0.3621	0.4898	-0.092
Mof_H 	H 	0.8295	0.1693	0.401	0.158
Mof_H 	H 	0.688	0.4114	0.1272	0.115
Mof_H 	H 	0.2067	0.8645	0.6676	-0.021
Mof_H 	H 	0.6859	0.0694	0.3005	-0.038
Mof_H 	H 	0.8253	0.1277	0.4898	-0.092
Mof_H 	H 	0.8984	0.2043	0.3719	0.191
Mof_H 	H 	0.9349	0.1602	0.4147	0.134
Mof_H 	H 	0.5608	0.688	0.7766	0.115
Mof_H 	H 	0.9795	0.7207	0.5792	-0.017
Mof_H 	H 	0.8005	0.6859	0.5694	-0.038
Mof_H 	H 	0.8929	0.1947	0.5634	0.197
Mof_H 	H 	0.4795	0.9003	0.2588	-0.016
Mof_H 	H 	0.3687	0.0634	0.6705	0.197
Mof_H 	H 	0.6955	0.3107	0.2736	-0.022
Mof_H 	H 	0.6769	0.3544	0.2953	0.172
Mof_H 	H 	0.4366	0.1313	0.8295	0.197
Mof_H 	H 	0.4114	0.7842	0.7234	0.115
Mof_H 	H 	0.6374	0.2987	0.0447	0.122
Mof_H 	H 	0.1277	0.9898	0.3253	-0.092
Mof_H 	H 	0.6415	0.4003	0.9208	-0.017
Mof_H 	H 	0.3398	0.7747	0.7545	0.134
Mof_H 	H 	0.0792	0.7847	0.5821	0.132
Mof_H 	H 	0.0886	0.812	0.3728	0.115
Mof_H 	H 	0.599	0.3307	0.1705	0.158
Mof_H 	H 	0.2067	0.3422	0.0391	-0.021
Mof_H 	H 	0.9114	0.188	0.6272	0.115
Mof_H 	H 	0.9735	0.8059	0.1016	0.191
Mof_H 	H 	0.8854	0.7689	0.6995	-0.038
Mof_H 	H 	0.3853	0.5268	0.1945	-0.09
Mof_H 	H 	0.3544	0.5591	0.6775	0.172
Mof_H 	H 	0.3135	0.7307	0.977	-0.008
Mof_H 	H 	0.1313	0.3295	0.9366	0.197
Mof_H 	H 	0.0651	0.2253	0.9798	0.134
Mof_H 	H 	0.7026	0.4971	0.9179	0.132
Mof_H 	H 	0.1415	0.8092	0.1147	-0.09
Mof_H 	H 	0.7463	0.6635	0.477	-0.008
Mof_H 	H 	0.1947	0.0634	0.3929	0.197
Mof_H 	H 	0.3835	0.7689	0.0694	-0.038
Mof_H 	H 	0.1893	0.3848	0.4629	-0.022
Mof_H 	H 	0.023	0.2537	0.8365	-0.008
Mof_H 	H 	0.7922	0.1365	0.5075	-0.014
Mof_H 	H 	0.0391	0.1969	0.3324	-0.021
Mof_H 	H 	0.9629	0.1893	0.8848	-0.022
Mof_H 	H 	0.8135	0.8365	0.5828	-0.008
Mof_H 	H 	0.5102	0.3723	0.1747	-0.092
Mof_H 	H 	0.8355	0.6379	0.5102	-0.092
Mof_H 	H 	0.0651	0.8398	0.5853	0.134
Mof_H 	H 	0.6859	0.6165	0.8854	-0.038
Mof_H 	H 	0.0715	0.2317	0.401	0.158
Mof_H 	H 	0.6677	0.6945	0.8092	-0.09
Mof_H 	H 	0.7953	0.6769	0.8544	0.172
Mof_H 	H 	0.1456	0.8231	0.2047	0.172
Mof_H 	H 	0.5205	0.0997	0.7412	-0.016
Mof_H 	H 	0.871	0.7153	0.0075	-0.014
Mof_H 	H 	0.9208	0.7055	0.0029	0.132
Mof_H 	H 	0.6415	0.1147	0.8092	-0.09
Mof_H 	H 	0.3295	0.8929	0.1982	0.197
Mof_H 	H 	0.1676	0.8719	0.4735	0.191
Mof_H 	H 	0.4147	0.7545	0.9798	0.134
Mof_H 	H 	0.9147	0.9798	0.7545	0.134
Mof_H 	H 	0.6775	0.6184	0.8231	0.172
Mof_H 	H 	0.5792	0.9971	0.2945	0.132
Mof_H 	H 	0.7537	0.523	0.3365	-0.008
Mof_H 	H 	0.6146	0.3141	0.8835	-0.038
Mof_H 	H 	0.8585	0.1908	0.8853	-0.09
Mof_H 	H 	0.4208	0.4179	0.2153	0.132
Mof_H 	H 	0.4114	0.6272	0.188	0.115
Mof_H 	H 	0.6995	0.2689	0.8854	-0.038
Mof_H 	H 	0.5651	0.9798	0.2253	0.134
Mof_H 	H 	0.8324	0.7043	0.8059	0.191
Mof_H 	H 	0.2847	0.7055	0.7026	0.132
Mof_H 	H 	0.2537	0.9172	0.2307	-0.008
Mof_H 	H 	0.6705	0.599	0.8307	0.158
Mof_H 	H 	0.2945	0.7974	0.2153	0.132
Mof_H 	H 	0.6557	0.371	0.8635	-0.014
Mof_H 	H 	0.1313	0.8018	0.6947	0.197
Mof_H 	H 	0.2455	0.7253	0.6602	0.134
Mof_H 	H 	0.9306	0.7311	0.6165	-0.038
Mof_H 	H 	0.7078	0.4925	0.8635	-0.014
Mof_H 	H 	0.5634	0.8687	0.1705	0.197
Mof_H 	H 	0.129	0.8443	0.6365	-0.014
Mof_H 	H 	0.3365	0.3135	0.0828	-0.008
Mof_H 	H 	0.7307	0.477	0.8135	-0.008
Mof_H 	H 	0.2055	0.4208	0.5029	0.132
Mof_H 	H 	0.6705	0.5634	0.3687	0.197
Mof_H 	H 	0.8626	0.9073	0.6613	0.122
Mof_H 	H 	0.1995	0.8854	0.2689	-0.038
Mof_H 	H 	0.7043	0.3984	0.8719	0.191
Mof_H 	H 	0.477	0.3135	0.2307	-0.008
Mof_H 	H 	0.6152	0.5781	0.8045	-0.022
Mof_H 	H 	0.7683	0.6693	0.8398	0.158
Mof_H 	H 	0.9925	0.2078	0.3635	-0.014
Mof_H 	H 	0.7974	0.0821	0.5029	0.132
Mof_H 	H 	0.6976	0.3355	0.3253	-0.093
Mof_H 	H 	0.8024	0.1277	0.6379	-0.092
Mof_H 	H 	0.8053	0.8687	0.6982	0.197
Mof_H 	H 	0.1602	0.9147	0.4349	0.134
Mof_H 	H 	0.5371	0.4219	0.2264	-0.022
Mof_H 	H 	0.5715	0.401	0.2317	0.158
Mof_H 	H 	0.4798	0.0651	0.7253	0.134
Mof_H 	H 	0.6893	0.2264	0.8045	-0.022
Mof_H 	H 	0.8231	0.7047	0.6456	0.172
Mof_H 	H 	0.6071	0.4366	0.8053	0.197
Mof_H 	H 	0.8853	0.1945	0.5268	-0.09
Mof_H 	H 	0.8645	0.1676	0.7067	-0.021
Mof_H 	H 	0.8225	0.6456	0.9409	0.172
Mof_H 	H 	0.3929	0.8295	0.6982	0.197
Mof_H 	H 	0.1355	0.8324	0.2933	-0.021
Mof_H 	H 	0.7987	0.6613	0.754	0.122
Mof_H 	H 	0.1613	0.2987	0.254	0.122
Mof_H 	H 	0.1272	0.2158	0.9392	0.115
Mof_H 	H 	0.4073	0.0447	0.746	0.122
Mof_H 	H 	0.9392	0.7158	0.1272	0.115
Mof_H 	H 	0.7747	0.5202	0.4349	0.134
Mof_H 	H 	0.9073	0.1613	0.3626	0.122
Mof_H 	H 	0.8055	0.8323	0.6908	-0.09
Mof_H 	H 	0.0371	0.2264	0.4219	-0.022
Mof_H 	H 	0.6602	0.2317	0.8307	0.158
Mof_H 	H 	0.3635	0.7078	0.9925	-0.014
Mof_H 	H 	0.2317	0.901	0.5715	0.158
Mof_H 	H 	0.3848	0.9629	0.6893	-0.022
Mof_H 	H 	0.3225	0.3816	0.1769	0.172
Mof_H 	H 	0.1705	0.8018	0.1071	0.197
Mof_H 	H 	0.2987	0.5447	0.1374	0.122
Mof_H 	H 	0.7922	0.6557	0.7847	-0.014
Mof_H 	H 	0.1982	0.3929	0.3295	0.197
Mof_H 	H 	0.7847	0.0821	0.5792	0.132
Mof_H 	H 	0.2689	0.3854	0.1995	-0.038
Mof_H 	H 	0.7736	0.6955	0.8107	-0.022
Mof_H 	H 	0.9609	0.8031	0.6676	-0.021
Mof_H 	H 	0.7545	0.4798	0.9147	0.134
Mof_H 	H 	0.6635	0.977	0.2463	-0.008
Mof_H 	H 	0.5265	0.8984	0.1941	0.191
Mof_H 	H 	0.0447	0.246	0.9073	0.122
Mof_H 	H 	0.5102	0.1379	0.8355	-0.092
Mof_H 	H 	0.2026	0.9179	0.4971	0.132
Mof_H 	H 	0.6976	0.3621	0.8723	-0.092
Mof_H 	H 	0.1859	0.8854	0.6165	-0.038
Mof_H 	H 	0.9219	0.0371	0.7264	-0.022
Mof_H 	H 	0.371	0.3635	0.1557	-0.014
Mof_H 	H 	0.2766	0.7158	0.5886	0.115
Mof_H 	H 	0.1955	0.9219	0.3848	-0.022
Mof_H 	H 	0.3141	0.3835	0.1146	-0.038
Mof_H 	H 	0.4609	0.7933	0.1578	-0.021
Mof_H 	H 	0.6272	0.9392	0.2158	0.115
Mof_H 	H 	0.4732	0.3055	0.1147	-0.09
Mof_H 	H 	0.746	0.5447	0.4073	0.122
Mof_H 	H 	0.1165	0.9306	0.2311	-0.038
Mof_H 	H 	0.9003	0.1415	0.4208	-0.017
Mof_H 	H 	0.6982	0.3687	0.8053	0.197
Mof_H 	H 	0.6705	0.0715	0.3398	0.158
Mof_H 	H 	0.7153	0.5075	0.371	-0.014
Mof_H 	H 	0.0997	0.2412	0.0205	-0.016
Mof_H 	H 	0.3055	0.6147	0.9732	-0.09
Mof_H 	H 	0.6995	0.4306	0.3141	-0.038
Mof_H 	H 	0.2747	0.8398	0.2545	0.134
Mof_H 	H 	0.8045	0.7264	0.6893	-0.022
Mof_H 	H 	0.7158	0.6272	0.4392	0.115
Mof_H 	H 	0.2842	0.9114	0.2234	0.115
Mof_H 	H 	0.8387	0.1374	0.5927	0.122
Mof_H 	H 	0.8107	0.1955	0.7736	-0.022
Mof_H 	H 	0.5029	0.9208	0.2055	0.132
Mof_H 	H 	0.2793	0.9208	0.5205	-0.017
Mof_H 	H 	0.8544	0.6775	0.5591	0.172
Mof_H 	H 	0.6313	0.9366	0.3295	0.197
Mof_H 	H 	0.3324	0.6355	0.7933	-0.021
Mof_H 	H 	0.1676	0.9609	0.3031	-0.021
Mof_H 	H 	0.6893	0.4629	0.3848	-0.022
Mof_H 	H 	0.3295	0.401	0.1693	0.158
Mof_H 	H 	0.4553	0.3626	0.2013	0.122
Mof_H 	H 	0.0634	0.8929	0.6947	0.197
Mof_H 	H 	0.7317	0.1602	0.3307	0.158
Mof_H 	H 	0.5075	0.6365	0.7922	-0.014
Mof_H 	H 	0.6277	0.3253	0.9898	-0.092
Mof_H 	H 	0.1747	0.3024	0.1645	-0.093
Mof_H 	H 	0.871	0.1557	0.3635	-0.014
Mof_H 	H 	0.3107	0.5371	0.6152	-0.022
Mof_H 	H 	0.7153	0.2078	0.8443	-0.014
Mof_H 	H 	0.1747	0.8723	0.5102	-0.092
Mof_H 	H 	0.7945	0.2153	0.7974	0.132
Mof_H 	H 	0.7847	0.1557	0.7922	-0.014
Mof_H 	H 	0.9898	0.8253	0.6277	-0.092
Mof_H 	H 	0.3307	0.6705	0.099	0.158
Mof_H 	H 	0.1557	0.8635	0.371	-0.014
Mof_H 	H 	0.7153	0.2945	0.2974	0.132
Mof_H 	H 	0.8728	0.0886	0.312	0.115
Mof_H 	H 	0.3422	0.5391	0.7067	-0.021
Mof_H 	H 	0.4285	0.8295	0.1602	0.158
Mof_H 	H 	0.4366	0.3053	0.1071	0.197
Mof_H 	H 	0.3728	0.0608	0.7842	0.115
Mof_H 	H 	0.3723	0.6976	0.8621	-0.092
Mof_H 	H 	0.8635	0.871	0.6557	-0.014
Mof_H 	H 	0.8398	0.1693	0.7683	0.158
Mof_H 	H 	0.254	0.7987	0.1613	0.122
Mof_H 	H 	0.4392	0.312	0.2234	0.115
Mof_H 	H 	0.2847	0.5792	0.0821	0.132
Mof_H 	H 	0.2957	0.6016	0.1281	0.191
Mof_H 	H 	0.5391	0.2067	0.8422	-0.021
Mof_H 	H 	0.0268	0.8853	0.6945	-0.09
Mof_H 	H 	0.8141	0.6995	0.9306	-0.038
Mof_H 	H 	0.8059	0.2043	0.8324	0.191
Mof_H 	H 	0.3728	0.312	0.0886	0.115
Mof_H 	H 	0.8107	0.6152	0.5371	-0.022
Mof_H 	H 	0.6613	0.254	0.2987	0.122
Mof_H 	H 	0.4732	0.1677	0.8585	-0.09
Mof_H 	H 	0.7067	0.0391	0.3422	-0.021
Mof_H 	H 	0.6415	0.5268	0.3323	-0.09
Mof_H 	H 	0.8422	0.7067	0.5391	-0.021
Mof_H 	H 	0.7847	0.629	0.4925	-0.014
Mof_H 	H 	0.8355	0.1976	0.8253	-0.093
Mof_H 	H 	0.312	0.5886	0.8728	0.115
Mof_H 	H 	0.0102	0.1747	0.3723	-0.092
Mof_H 	H 	0.8929	0.6982	0.8295	0.197
Mof_H 	H 	0.5821	0.2974	0.0029	0.132
Mof_H 	H 	0.0997	0.8585	0.5792	-0.017
Mof_H 	H 	0.4925	0.129	0.7847	-0.014
Mof_H 	H 	0.3687	0.3053	0.1982	0.197
Mof_H 	H 	0.3621	0.9898	0.6645	-0.092
Mof_H 	H 	0.6645	0.4898	0.3621	-0.092
Mof_H 	H 	0.3005	0.7311	0.1146	-0.038
Mof_H 	H 	0.1893	0.8045	0.2264	-0.022
Mof_H 	H 	0.8055	0.9732	0.6147	-0.09
Mof_H 	H 	0.6747	0.1645	0.3024	-0.093
Mof_H 	H 	0.6941	0.1676	0.7957	0.191
Mof_H 	H 	0.6578	0.1969	0.8645	-0.021
Mof_H 	H 	0.7253	0.1602	0.7455	0.134
Mof_H 	H 	0.9285	0.1602	0.8295	0.158
Mof_H 	H 	0.0591	0.2047	0.3816	0.172
Mof_H 	H 	0.0821	0.0029	0.2974	0.132
Mof_H 	H 	0.401	0.6693	0.8295	0.158
Mof_H 	H 	0.312	0.7234	0.9392	0.115
Mof_H 	H 	0.2078	0.8635	0.4925	-0.014
Mof_H 	H 	0.0102	0.8355	0.1379	-0.092
Mof_H 	H 	0.9553	0.2013	0.3626	0.122
Mof_H 	H 	0.9172	0.1865	0.6635	-0.008
Mof_H 	H 	0.7957	0.6676	0.6941	0.191
Mof_H 	H 	0.5715	0.1705	0.8398	0.158
Mof_H 	H 	0.2317	0.3307	0.1602	0.158
Mof_H 	H 	0.4172	0.7537	0.7307	-0.008
Mof_H 	H 	0.1184	0.9409	0.2953	0.172
Mof_H 	H 	0.4629	0.8848	0.1893	-0.022
Mof_H 	H 	0.8307	0.7317	0.6602	0.158
Mof_H 	H 	0.0821	0.0792	0.2847	0.132
Mof_H 	H 	0.3107	0.7736	0.1955	-0.022
Mof_H 	H 	0.3225	0.9409	0.6456	0.172
Mof_H 	H 	0.3059	0.4735	0.6016	0.191
Mof_H 	H 	0.1941	0.7957	0.1676	0.191
Mof_H 	H 	0.3585	0.8853	0.1908	-0.09
Mof_H 	H 	0.7793	0.2588	0.3585	-0.016
Mof_H 	H 	0.8031	0.6355	0.8422	-0.021
Mof_H 	H 	0.3295	0.4366	0.6313	0.197
Mof_H 	H 	0.7588	0.2793	0.8585	-0.016
Mof_H 	H 	0.7026	0.2055	0.2847	0.132
Mof_H 	H 	0.7987	0.1374	0.5447	0.122
Mof_H 	H 	0.401	0.7317	0.0715	0.158
Mof_H 	H 	0.7974	0.7153	0.7945	0.132
Mof_H 	H 	0.1152	0.8045	0.5781	-0.022
Mof_H 	H 	0.3024	0.6379	0.1277	-0.092
Mof_H 	H 	0.2158	0.7766	0.0886	0.115
Mof_H 	H 	0.8018	0.1947	0.6313	0.197
Mof_H 	H 	0.1769	0.2953	0.3544	0.172
Mof_H 	H 	0.6016	0.9735	0.3059	0.191
Mof_H 	H 	0.629	0.6365	0.8443	-0.014
Mof_H 	H 	0.0075	0.7922	0.6365	-0.014
Mof_H 	H 	0.7055	0.5029	0.4208	0.132
Mof_H 	H 	0.3443	0.7153	0.7078	-0.014
Mof_H 	H 	0.8645	0.6969	0.6578	-0.021
Mof_H 	H 	0.8835	0.8141	0.6146	-0.038
Mof_H 	H 	0.246	0.4073	0.5447	0.122
Mof_H 	H 	0.8728	0.7842	0.0608	0.115
Mof_H 	H 	0.5608	0.8728	0.2842	0.115
Mof_H 	H 	0.8387	0.7013	0.746	0.122
Mof_H 	H 	0.6676	0.3645	0.2067	-0.021
Mof_H 	H 	0.2026	0.2847	0.2055	0.132
Mof_H 	H 	0.2078	0.3443	0.2153	-0.014
Mof_H 	H 	0.5997	0.5792	0.8585	-0.017
Mof_H 	H 	0.6365	0.2922	0.0075	-0.014
Mof_H 	H 	0.7043	0.3059	0.3324	0.191
Mof_H 	H 	0.8295	0.6602	0.9285	0.158
Mof_H 	H 	0.7689	0.1995	0.3854	-0.038
Mof_H 	H 	0.4349	0.4147	0.1602	0.134
Mof_H 	H 	0.3055	0.6908	0.8323	-0.09
Mof_H 	H 	0.1865	0.1635	0.4172	-0.008
Mof_H 	H 	0.1016	0.3059	0.9735	0.191
Mof_H 	H 	0.2974	0.7945	0.7153	0.132
Mof_H 	H 	0.7545	0.2747	0.3398	0.134
Mof_H 	H 	0.023	0.7693	0.6865	-0.008
Mof_H 	H 	0.4219	0.6955	0.8848	-0.022
Mof_H 	H 	0.2842	0.3728	0.5608	0.115
Mof_H 	H 	0.2588	0.8585	0.2793	-0.016
Mof_H 	H 	0.0268	0.1415	0.8323	-0.09
Mof_H 	H 	0.5634	0.6947	0.8929	0.197
Mof_H 	H 	0.8398	0.0853	0.5651	0.134
Mof_H 	H 	0.0927	0.254	0.9553	0.122
Mof_H 	H 	0.8585	0.0792	0.5997	-0.017
Mof_H 	H 	0.7234	0.2842	0.4114	0.115
Mof_H 	H 	0.3422	0.8031	0.1355	-0.021
Mof_H 	H 	0.6676	0.4735	0.8719	0.191
Mof_H 	H 	0.4073	0.3626	0.1613	0.122
Mof_H 	H 	0.3719	0.6676	0.9735	0.191
Mof_H 	H 	0.1456	0.3225	0.4409	0.172
Mof_H 	H 	0.6945	0.3092	0.1677	-0.09
Mof_H 	H 	0.8443	0.1365	0.629	-0.014
Mof_H 	H 	0.3355	0.5102	0.6379	-0.092
Mof_H 	H 	0.1415	0.3323	0.5268	-0.09
Mof_H 	H 	0.0886	0.2766	0.2158	0.115
Mof_H 	H 	0.7463	0.0828	0.7693	-0.008
Mof_H 	H 	0.1705	0.3687	0.5634	0.197
Mof_H 	H 	0.188	0.1272	0.4114	0.115
Mof_H 	H 	0.7683	0.099	0.4285	0.158
Mof_H 	H 	0.7693	0.5828	0.7463	-0.008
Mof_H 	H 	0.1016	0.7957	0.6281	0.191
Mof_H 	H 	0.8816	0.8225	0.6769	0.172
Mof_H 	H 	0.7158	0.0886	0.7766	0.115
Mof_H 	H 	0.1976	0.8723	0.3621	-0.092
Mof_H 	H 	0.8816	0.0591	0.7047	0.172
Mof_H 	H 	0.7945	0.5792	0.4971	0.132
Mof_H 	H 	0.7747	0.2545	0.8398	0.134
Mof_H 	H 	0.6955	0.3848	0.9219	-0.022
Mof_H 	H 	0.1578	0.8645	0.1969	-0.021
Mof_H 	H 	0.6947	0.3929	0.0634	0.197
Mof_H 	H 	0.1147	0.3092	0.1415	-0.09
Mof_H 	H 	0.2047	0.3231	0.1456	0.172
Mof_H 	H 	0.8231	0.1184	0.6775	0.172
Mof_H 	H 	0.9409	0.1456	0.8225	0.172
Mof_H 	H 	0.3387	0.5927	0.1374	0.122
Mof_H 	H 	0.2311	0.8005	0.6146	-0.038
Mof_H 	H 	0.0828	0.2693	0.2463	-0.008
Mof_H 	H 	0.8723	0.8621	0.6976	-0.092
Mof_H 	H 	0.0781	0.9629	0.2736	-0.022
Mof_H 	H 	0.1374	0.0927	0.3387	0.122
Mof_H 	H 	0.2933	0.9609	0.6578	-0.021
Mof_H 	H 	0.2957	0.6941	0.6676	0.191
Mof_H 	H 	0.2153	0.371	0.5075	-0.014
Mof_H 	H 	0.3045	0.6152	0.0781	-0.022
Mof_H 	H 	0.0202	0.2747	0.9349	0.134
Mof_H 	H 	0.2153	0.9179	0.4208	0.132
Mof_H 	H 	0.2463	0.7693	0.0828	-0.008
Mof_H 	H 	0.0265	0.1941	0.8984	0.191
Mof_H 	H 	0.6152	0.0371	0.3107	-0.022
Mof_H 	H 	0.3387	0.746	0.7013	0.122
Mof_H 	H 	0.0029	0.2055	0.9208	0.132
Mof_H 	H 	0.1152	0.3107	0.0371	-0.022
Mof_H 	H 	0.5202	0.5853	0.7455	0.134
Mof_H 	H 	0.3324	0.6969	0.0391	-0.021
Mof_H 	H 	0.0447	0.7987	0.6374	0.122
Mof_H 	H 	0.5927	0.6374	0.8387	0.122
Mof_H 	H 	0.7317	0.5715	0.901	0.158
Mof_H 	H 	0.1865	0.023	0.2693	-0.008
Mof_H 	H 	0.3398	0.7683	0.1693	0.158
Mof_H 	H 	0.812	0.9392	0.7234	0.115
Mof_H 	H 	0.246	0.8387	0.2013	0.122
Mof_H 	H 	0.7412	0.1415	0.7207	-0.016
Mof_H 	H 	0.4925	0.3635	0.2078	-0.014
Mof_H 	H 	0.5694	0.3835	0.2689	-0.038
Mof_H 	H 	0.3723	0.6747	0.0102	-0.092
Mof_H 	H 	0.4219	0.7264	0.0371	-0.022
Mof_H 	H 	0.7693	0.1865	0.523	-0.008
Mof_H 	H 	0.523	0.8365	0.2537	-0.008
Mof_H 	H 	0.8626	0.9553	0.7013	0.122
Mof_H 	H 	0.1635	0.2463	0.977	-0.008
Mof_H 	H 	0.9798	0.2545	0.4147	0.134
Mof_H 	H 	0.8398	0.7545	0.7747	0.134
Mof_H 	H 	0.1602	0.2455	0.2253	0.134
Mof_H 	H 	0.3092	0.6677	0.1945	-0.09
Mof_H 	H 	0.8053	0.9366	0.6071	0.197
Mof_H 	H 	0.1365	0.0075	0.2922	-0.014
Mof_H 	H 	0.3854	0.6995	0.7689	-0.038
Mof_H 	H 	0.0075	0.2153	0.871	-0.014
Mof_H 	H 	0.4306	0.8141	0.1995	-0.038
Mof_H 	H 	0.3307	0.6602	0.7317	0.158
Mof_H 	H 	0.1379	0.8024	0.6277	-0.092
Mof_H 	H 	0.1677	0.8092	0.6945	-0.09
Mof_H 	H 	0.7957	0.1281	0.6016	0.191
Mof_H 	H 	0.4392	0.1272	0.7158	0.115
Mof_H 	H 	0.3626	0.6613	0.9073	0.122
Mof_H 	H 	0.4306	0.6165	0.7311	-0.038
Mof_H 	H 	0.1859	0.3005	0.0694	-0.038
Mof_H 	H 	0.8848	0.1955	0.4219	-0.022
Mof_H 	H 	0.6941	0.5265	0.3984	0.191
Mof_H 	H 	0.6146	0.3005	0.2311	-0.038
Mof_H 	H 	0.599	0.2683	0.9285	0.158
Mof_H 	H 	0.1272	0.9114	0.688	0.115
Mof_H 	H 	0.977	0.7463	0.1635	-0.008
Mof_H 	H 	0.6313	0.6947	0.8018	0.197
Mof_H 	H 	0.7842	0.5608	0.3728	0.115
Mof_H 	H 	0.2412	0.7207	0.1415	-0.016
Mof_H 	H 	0.9798	0.7253	0.0651	0.134
Mof_H 	H 	0.8225	0.1769	0.3816	0.172
Mof_H 	H 	0.0853	0.0202	0.2455	0.134
Mof_H 	H 	0.6908	0.3585	0.3853	-0.09
Mof_H 	H 	0.6635	0.6865	0.9172	-0.008
Mof_H 	H 	0.6379	0.6277	0.8024	-0.092
Mof_H 	H 	0.7253	0.5651	0.4798	0.134
Mof_H 	H 	0.2793	0.3585	0.2588	-0.016
Mof_H 	H 	0.6645	0.1747	0.8024	-0.093
Mof_H 	H 	0.8422	0.1355	0.8031	-0.021
Mof_H 	H 	0.0781	0.1152	0.3045	-0.022
Mof_H 	H 	0.8005	0.1146	0.7311	-0.038
Mof_H 	H 	0.9366	0.8295	0.1313	0.197
Mof_H 	H 	0.2736	0.8107	0.6955	-0.022
Mof_H 	H 	0.1769	0.8816	0.3225	0.172
Mof_H 	H 	0.8443	0.7078	0.7153	-0.014
Mof_H 	H 	0.8723	0.0102	0.6747	-0.092
Mof_H 	H 	0.2043	0.3324	0.3059	0.191
Mof_H 	H 	0.8687	0.1982	0.3053	0.197
Mof_H 	H 	0.2455	0.5202	0.0853	0.134
Mof_H 	H 	0.1184	0.1775	0.3231	0.172
Mof_H 	H 	0.6947	0.3018	0.1313	0.197
Mof_H 	H 	0.3645	0.6578	0.6969	-0.021
Mof_H 	H 	0.9179	0.9208	0.7153	0.132
Mof_H 	H 	0.1613	0.8626	0.4073	0.122
Mof_H 	H 	0.4971	0.0792	0.7945	0.132
Mof_H 	H 	0.3835	0.6146	0.8141	-0.038
Mof_H 	H 	0.3848	0.4219	0.1955	-0.022
Mof_H 	H 	0.7264	0.1893	0.3045	-0.022
Mof_H 	H 	0.3585	0.4732	0.6677	-0.09
Mof_H 	H 	0.1602	0.8307	0.2317	0.158
Mof_H 	H 	0.0792	0.2945	0.9971	0.132
Mof_H 	H 	0.5391	0.3324	0.1969	-0.021
Mof_H 	H 	0.9629	0.7736	0.5781	-0.022
Mof_H 	H 	0.5029	0.5821	0.7974	0.132
Mof_H 	H 	0.0927	0.8387	0.6374	0.122
Mof_H 	H 	0.4349	0.0202	0.7747	0.134
Mof_H 	H 	0.4409	0.8225	0.1456	0.172
Mof_H 	H 	0.754	0.1613	0.7987	0.122
Mof_H 	H 	0.0205	0.2793	0.4208	-0.017
Mof_H 	H 	0.3365	0.023	0.7537	-0.008
Mof_H 	H 	0.6602	0.4349	0.9147	0.134
Mof_H 	H 	0.1365	0.129	0.3443	-0.014
Mof_H 	H 	0.4208	0.6415	0.9003	-0.017
Mof_H 	H 	0.6147	0.1415	0.3092	-0.09
Mof_H 	H 	0.6355	0.2933	0.8324	-0.021
Mof_H 	H 	0.6908	0.3323	0.8055	-0.09
Mof_H 	H 	0.5447	0.9073	0.246	0.122
Mof_H 	H 	0.3231	0.6456	0.7047	0.172
Mof_H 	H 	0.4208	0.7793	0.0205	-0.017
Mof_H 	H 	0.2463	0.477	0.6635	-0.008
Mof_H 	H 	0.7766	0.188	0.5608	0.115
Mof_H 	H 	0.2158	0.4392	0.6272	0.115
Mof_H 	H 	0.0715	0.8398	0.1705	0.158
Mof_H 	H 	0.2047	0.8816	0.5591	0.172
Mof_H 	H 	0.6184	0.3231	0.1775	0.172
Mof_H 	H 	0.2153	0.8443	0.2078	-0.014
Mof_H 	H 	0.0792	0.0997	0.3585	-0.017
Mof_H 	H 	0.1705	0.8307	0.599	0.158
Mof_H 	H 	0.9179	0.9971	0.7026	0.132
Mof_H 	H 	0.2153	0.2974	0.2945	0.132
Mof_H 	H 	0.3816	0.6769	0.8225	0.172
Mof_H 	H 	0.0853	0.0651	0.3398	0.134
Mof_H 	H 	0.2234	0.4114	0.2842	0.115
Mof_H 	H 	0.8635	0.9925	0.7078	-0.014
Mof_H 	H 	0.0371	0.8107	0.1152	-0.022
Mof_H 	H 	0.7207	0.0792	0.4795	-0.017
Mof_H 	H 	0.1578	0.2933	0.4609	-0.021
Mof_H 	H 	0.1165	0.1859	0.3854	-0.038
Mof_H 	H 	0.1775	0.8231	0.6184	0.172
Mof_C 	C 	0.90011	0.09463	0.72032	0.16
Mof_C 	C 	0.8389	0.9951	0.6454	-0.445
Mof_C 	C 	0.8145	0.2012	0.8629	0.362
Mof_C 	C 	0.6454	0.4951	0.8389	-0.445
Mof_C 	C 	0.7232	0.254	0.8326	-0.295
Mof_C 	C 	0.268	0.8744	0.2116	0.182
Mof_C 	C 	0.4214	0.754	0.0308	-0.295
Mof_C 	C 	0.7519	0.5956	0.5157	0.204
Mof_C 	C 	0.617	0.2228	0.9162	0.112
Mof_C 	C 	0.3477	0.8661	0.688	0.518
Mof_C 	C 	0.1064	0.8744	0.6628	0.182
Mof_C 	C 	0.7325	0.0769	0.4464	0.48
Mof_C 	C 	0.7287	0.4877	0.9192	0.234
Mof_C 	C 	0.2111	0.3579	0.2292	0.176
Mof_C 	C 	0.1172	0.24177	0.41873	-0.069
Mof_C 	C 	0.3526	0.6454	0.893	-0.234
Mof_C 	C 	0.6568	0.1834	0.2986	-0.45
Mof_C 	C 	0.8724	0.7703	0.0499	-0.225
Mof_C 	C 	0.3942	0.6934	0.7772	0.112
Mof_C 	C 	0.9256	0.7577	0.0081	-0.267
Mof_C 	C 	0.3579	0.6287	0.1468	0.176
Mof_C 	C 	0.5266	0.6418	0.8432	-0.45
Mof_C 	C 	0.8219	0.6339	0.9816	0.518
Mof_C 	C 	0.1936	0.3745	0.3477	0.409
Mof_C 	C 	0.74177	0.12457	0.32304	-0.069
Mof_C 	C 	0.8095	0.0808	0.5685	0.234
Mof_C 	C 	0.8695	0.1556	0.4231	0.48
Mof_C 	C 	0.1556	0.9231	0.3695	0.48
Mof_C 	C 	0.5123	0.5808	0.7713	0.234
Mof_C 	C 	0.6421	0.3713	0.8532	0.176
Mof_C 	C 	0.8744	0.1628	0.6064	0.182
Mof_C 	C 	0.3341	0.4951	0.6366	0.392
Mof_C 	C 	0.1454	0.2928	0.2524	-0.234
Mof_C 	C 	0.1977	0.3788	0.3305	-0.46
Mof_C 	C 	0.3066	0.7228	0.1058	0.112
Mof_C 	C 	0.7504	0.6679	0.7423	-0.267
Mof_C 	C 	0.2476	0.393	0.5404	-0.234
Mof_C 	C 	0.2768	0.746	0.1674	-0.295
Mof_C 	C 	0.8634	0.1975	0.3585	0.392
Mof_C 	C 	0.4732	0.3191	0.1255	0.409
Mof_C 	C 	0.4951	0.3389	0.1454	-0.445
Mof_C 	C 	0.8745	0.6936	0.8477	0.409
Mof_C 	C 	0.9192	0.9315	0.6905	0.234
Mof_C 	C 	0.2524	0.4596	0.607	-0.234
Mof_C 	C 	0.1855	0.7988	0.1371	0.362
Mof_C 	C 	0.1775	0.1276	0.3979	-0.225
Mof_C 	C 	0.3191	0.6936	0.8459	0.409
Mof_C 	C 	0.5483	0.8672	0.1695	-0.46
Mof_C 	C 	0.3885	0.715	0.7251	0.438
Mof_C 	C 	0.8661	0.188	0.8477	0.518
Mof_C 	C 	0.759	0.1905	0.7713	0.234
Mof_C 	C 	0.9726	0.748	0.1492	0.156
Mof_C 	C 	0.2708	0.4819	0.6287	0.176
Mof_C 	C 	0.2204	0.8225	0.4501	-0.225
Mof_C 	C 	0.1339	0.3219	0.4816	0.518
Mof_C 	C 	0.3437	0.5956	0.0799	0.204
Mof_C 	C 	0.4201	0.6563	0.9044	0.204
Mof_C 	C 	0.7423	0.1679	0.7504	-0.267
Mof_C 	C 	0.3497	0.4951	0.6562	-0.445
Mof_C 	C 	0.1094	0.8326	0.5786	-0.295
Mof_C 	C 	0.6563	0.2519	0.2362	0.204
Mof_C 	C 	0.4743	0.8953	0.2066	0.203
Mof_C 	C 	0.7934	0.1887	0.7677	0.203
Mof_C 	C 	0.1421	0.8532	0.3713	0.176
Mof_C 	C 	0.8814	0.1613	0.6499	-0.247
Mof_C 	C 	0.3661	0.8477	0.188	0.518
Mof_C 	C 	0.8025	0.661	0.6659	0.392
Mof_C 	C 	0.2072	0.8526	0.4596	-0.234
Mof_C 	C 	0.4175	0.7496	0.9919	-0.267
Mof_C 	C 	0.8579	0.1468	0.6287	0.176
Mof_C 	C 	0.82021	0.72032	0.62569	0.16
Mof_C 	C 	0.2577	0.8321	0.2496	-0.267
Mof_C 	C 	0.5825	0.2504	0.0081	-0.267
Mof_C 	C 	0.41873	0.74177	0.1172	-0.069
Mof_C 	C 	0.3326	0.6094	0.0786	-0.295
Mof_C 	C 	0.741	0.5123	0.4315	0.234
Mof_C 	C 	0.6541	0.6809	0.8064	0.409
Mof_C 	C 	0.1503	0.3438	0.5049	-0.445
Mof_C 	C 	0.8519	0.7234	0.5519	0.1
Mof_C 	C 	0.3172	0.71527	0.07673	0.122
Mof_C 	C 	0.8582	0.9734	0.6568	-0.45
Mof_C 	C 	0.2992	0.9162	0.6934	0.112
Mof_C 	C 	0.383	0.6058	0.7992	0.112
Mof_C 	C 	0.5786	0.3326	0.1094	-0.295
Mof_C 	C 	0.5519	0.3285	0.2	0.1
Mof_C 	C 	0.8546	0.6935	0.8497	-0.446
Mof_C 	C 	0.12457	0.30153	0.3828	-0.069
Mof_C 	C 	0.3546	0.8497	0.6935	-0.446
Mof_C 	C 	0.7204	0.4501	0.8225	-0.225
Mof_C 	C 	0.7524	0.1454	0.7928	-0.234
Mof_C 	C 	0.7012	0.3867	0.8383	0.362
Mof_C 	C 	0.3389	0.6935	0.8438	-0.445
Mof_C 	C 	0.7799	0.1613	0.5114	-0.247
Mof_C 	C 	0.6628	0.3744	0.1064	0.182
Mof_C 	C 	0.2713	0.759	0.6905	0.234
Mof_C 	C 	0.5404	0.893	0.2476	-0.234
Mof_C 	C 	0.6371	0.4516	0.8383	0.362
Mof_C 	C 	0.8387	0.8501	0.6186	-0.247
Mof_C 	C 	0.9951	0.8341	0.1366	0.392
Mof_C 	C 	0.6811	0.3023	0.1328	-0.46
Mof_C 	C 	0.39807	0.75953	0.1828	0.122
Mof_C 	C 	0.8225	0.8724	0.6021	-0.225
Mof_C 	C 	0.2991	0.7162	0.7183	-0.275
Mof_C 	C 	0.748	0.6492	0.4726	0.156
Mof_C 	C 	0.1855	0.3867	0.5484	0.362
Mof_C 	C 	0.25953	0.36146	0.07673	0.122
Mof_C 	C 	0.67979	0.30548	0.90011	0.16
Mof_C 	C 	0.1276	0.8979	0.6775	-0.225
Mof_C 	C 	0.4692	0.8906	0.2232	-0.295
Mof_C 	C 	0.6152	0.6418	0.7986	-0.45
Mof_C 	C 	0.5114	0.8501	0.2315	-0.247
Mof_C 	C 	0.4919	0.0744	0.7423	-0.267
Mof_C 	C 	0.8023	0.1811	0.6328	-0.46
Mof_C 	C 	0.839	0.6975	0.8341	0.392
Mof_C 	C 	0.3145	0.4516	0.6133	0.362
Mof_C 	C 	0.3383	0.6371	0.9516	0.362
Mof_C 	C 	0.4501	0.1276	0.7297	-0.225
Mof_C 	C 	0.6454	0.393	0.8526	-0.234
Mof_C 	C 	0.1613	0.0114	0.2799	-0.247
Mof_C 	C 	0.3508	0.0274	0.752	0.156
Mof_C 	C 	0.7772	0.1934	0.3942	0.112
Mof_C 	C 	0.9516	0.8145	0.1133	0.362
Mof_C 	C 	0.8695	0.7139	0.9464	0.48
Mof_C 	C 	0.0181	0.7889	0.6468	0.176
Mof_C 	C 	0.7315	0.5114	0.3501	-0.247
Mof_C 	C 	0.32304	0.62457	0.74177	-0.069
Mof_C 	C 	0.1781	0.3661	0.0184	0.518
Mof_C 	C 	0.9843	0.2481	0.9044	0.204
Mof_C 	C 	0.1715	0.2234	0.3715	0.1
Mof_C 	C 	0.9734	0.1568	0.3582	-0.45
Mof_C 	C 	0.2251	0.3885	0.215	0.438
Mof_C 	C 	0.6492	0.9726	0.248	0.156
Mof_C 	C 	0.8065	0.6454	0.6503	-0.446
Mof_C 	C 	0.8065	0.1611	0.6562	-0.445
Mof_C 	C 	0.6305	0.0536	0.2861	0.48
Mof_C 	C 	0.3403	0.6523	0.0184	0.518
Mof_C 	C 	0.2703	0.8979	0.2204	-0.225
Mof_C 	C 	0.1305	0.8444	0.5769	0.48
Mof_C 	C 	0.3234	0.5988	0.8508	0.156
Mof_C 	C 	0.4214	0.6674	0.8906	-0.295
Mof_C 	C 	0.75823	0.67696	0.87543	-0.069
Mof_C 	C 	0.8546	0.1611	0.5049	-0.445
Mof_C 	C 	0.1058	0.883	0.2992	0.112
Mof_C 	C 	0.7228	0.6058	0.8066	0.112
Mof_C 	C 	0.6634	0.2749	0.9899	0.438
Mof_C 	C 	0.3526	0.7072	0.9596	-0.234
Mof_C 	C 	0.8189	0.9517	0.6212	-0.46
Mof_C 	C 	0.9162	0.1934	0.7992	0.112
Mof_C 	C 	0.9743	0.7677	0.579	0.203
Mof_C 	C 	0.1133	0.7988	0.6617	0.362
Mof_C 	C 	0.5829	0.5808	0.7991	-0.275
Mof_C 	C 	0.8477	0.688	0.8661	0.518
Mof_C 	C 	0.80548	0.17979	0.40011	0.16
Mof_C 	C 	0.7799	0.6186	0.7685	-0.247
Mof_C 	C 	0.161	0.3025	0.1659	0.392
Mof_C 	C 	0.6468	0.3579	0.1287	0.176
Mof_C 	C 	0.7934	0.6047	0.5257	0.203
Mof_C 	C 	0.6285	0.2766	0.8285	0.1
Mof_C 	C 	0.7323	0.5257	0.921	0.203
Mof_C 	C 	0.6828	0.39807	0.25953	0.122
Mof_C 	C 	0.0536	0.7861	0.1305	0.48
Mof_C 	C 	0.8023	0.6212	0.6695	-0.46
Mof_C 	C 	0.36146	0.78473	0.10193	0.122
Mof_C 	C 	0.8166	0.6152	0.4734	-0.45
Mof_C 	C 	0.3372	0.7116	0.9436	0.182
Mof_C 	C 	0.3672	0.0483	0.6695	-0.46
Mof_C 	C 	0.1659	0.3634	0.5049	0.392
Mof_C 	C 	0.1152	0.3166	0.9734	-0.45
Mof_C 	C 	0.1492	0.248	0.9726	0.156
Mof_C 	C 	0.4464	0.5769	0.7325	0.48
Mof_C 	C 	0.0988	0.8234	0.3508	0.156
Mof_C 	C 	0.8403	0.0184	0.6523	0.518
Mof_C 	C 	0.8234	0.9726	0.7246	0.156
Mof_C 	C 	0.5268	0.6809	0.8745	0.409
Mof_C 	C 	0.0114	0.2315	0.8501	-0.247
Mof_C 	C 	0.8788	0.6977	0.8305	-0.46
Mof_C 	C 	0.4819	0.3532	0.2111	0.176
Mof_C 	C 	0.7008	0.0838	0.3066	0.112
Mof_C 	C 	0.6935	0.3497	0.3546	-0.446
Mof_C 	C 	0.5308	0.1094	0.7768	-0.295
Mof_C 	C 	0.6935	0.3438	0.8389	-0.445
Mof_C 	C 	0.0308	0.7768	0.1094	-0.295
Mof_C 	C 	0.1287	0.8579	0.6468	0.176
Mof_C 	C 	0.1977	0.8189	0.3672	-0.46
Mof_C 	C 	0.2323	0.3113	0.2066	0.203
Mof_C 	C 	0.5274	0.8508	0.252	0.156
Mof_C 	C 	0.89807	0.1828	0.75953	0.122
Mof_C 	C 	0.6617	0.2988	0.1133	0.362
Mof_C 	C 	0.1811	0.1328	0.3023	-0.46
Mof_C 	C 	0.8066	0.1058	0.7228	0.112
Mof_C 	C 	0.252	0.9012	0.2246	0.156
Mof_C 	C 	0.5564	0.8936	0.268	0.182
Mof_C 	C 	0.1212	0.3023	0.1695	-0.46
Mof_C 	C 	0.8326	0.0786	0.6094	-0.295
Mof_C 	C 	0.90537	0.77968	0.59989	0.16
Mof_C 	C 	0.40011	0.72032	0.09463	0.16
Mof_C 	C 	0.921	0.0257	0.7323	0.203
Mof_C 	C 	0.72032	0.59463	0.90011	0.16
Mof_C 	C 	0.4843	0.5799	0.7362	0.204
Mof_C 	C 	0.1781	0.812	0.6597	0.518
Mof_C 	C 	0.80153	0.62457	0.8828	-0.069
Mof_C 	C 	0.2504	0.7423	0.6679	-0.267
Mof_C 	C 	0.58127	0.32304	0.19847	-0.069
Mof_C 	C 	0.67696	0.37543	0.25823	-0.069
Mof_C 	C 	0.1058	0.2228	0.3066	0.112
Mof_C 	C 	0.3585	0.6975	0.8634	0.392
Mof_C 	C 	0.1276	0.2297	0.9501	-0.225
Mof_C 	C 	0.9886	0.7685	0.1499	-0.247
Mof_C 	C 	0.8	0.6285	0.8519	0.1
Mof_C 	C 	0.6905	0.259	0.2713	0.234
Mof_C 	C 	0.71527	0.13854	0.39807	0.122
Mof_C 	C 	0.0564	0.268	0.8936	0.182
Mof_C 	C 	0.285	0.7749	0.1115	0.438
Mof_C 	C 	0.09989	0.19452	0.32021	0.16
Mof_C 	C 	0.9214	0.0308	0.754	-0.295
Mof_C 	C 	0.3497	0.8546	0.1935	-0.446
Mof_C 	C 	0.39807	0.63854	0.71527	0.122
Mof_C 	C 	0.08127	0.19847	0.32304	-0.069
Mof_C 	C 	0.9464	0.7325	0.5769	0.48
Mof_C 	C 	0.7928	0.6454	0.7524	-0.234
Mof_C 	C 	0.421	0.6887	0.8953	0.203
Mof_C 	C 	0.82304	0.74177	0.62457	-0.069
Mof_C 	C 	0.1256	0.8372	0.3936	0.182
Mof_C 	C 	0.4315	0.4192	0.1905	0.234
Mof_C 	C 	0.30153	0.8828	0.62457	-0.069
Mof_C 	C 	0.2009	0.9192	0.4171	-0.275
Mof_C 	C 	0.4162	0.617	0.7228	0.112
Mof_C 	C 	0.2139	0.8444	0.2675	0.48
Mof_C 	C 	0.232	0.7884	0.1256	0.182
Mof_C 	C 	0.9501	0.2204	0.3225	-0.225
Mof_C 	C 	0.232	0.4436	0.6064	0.182
Mof_C 	C 	0.75953	0.07673	0.36146	0.122
Mof_C 	C 	0.1617	0.1133	0.2988	0.362
Mof_C 	C 	0.9596	0.7524	0.107	-0.234
Mof_C 	C 	0.0257	0.2323	0.421	0.203
Mof_C 	C 	0.6781	0.6597	0.812	0.518
Mof_C 	C 	0.2116	0.8372	0.4436	0.182
Mof_C 	C 	0.0257	0.7934	0.1047	0.203
Mof_C 	C 	0.6328	0.9517	0.3305	-0.46
Mof_C 	C 	0.215	0.8885	0.2251	0.438
Mof_C 	C 	0.7889	0.6421	0.7708	0.176
Mof_C 	C 	0.37431	0.77968	0.17979	0.16
Mof_C 	C 	0.3867	0.0484	0.6855	0.362
Mof_C 	C 	0.785	0.1115	0.7749	0.438
Mof_C 	C 	0.1481	0.2766	0.4481	0.1
Mof_C 	C 	0.5114	0.6613	0.7799	-0.247
Mof_C 	C 	0.40537	0.59989	0.77968	0.16
Mof_C 	C 	0.75823	0.08127	0.3828	-0.069
Mof_C 	C 	0.3	0.8519	0.6285	0.1
Mof_C 	C 	0.7496	0.2577	0.3321	-0.267
Mof_C 	C 	0.6613	0.3814	0.1499	-0.247
Mof_C 	C 	0.7481	0.4843	0.4044	0.204
Mof_C 	C 	0.5744	0.9919	0.2423	-0.267
Mof_C 	C 	0.6503	0.5049	0.3438	-0.445
Mof_C 	C 	0.1305	0.2861	0.0536	0.48
Mof_C 	C 	0.8532	0.9819	0.7111	0.176
Mof_C 	C 	0.8936	0.1256	0.3372	0.182
Mof_C 	C 	0.3724	0.3225	0.1021	-0.225
Mof_C 	C 	0.8497	0.6562	0.4951	-0.445
Mof_C 	C 	0.19847	0.82304	0.58127	-0.069
Mof_C 	C 	0.3695	0.4231	0.1556	0.48
Mof_C 	C 	0.6212	0.1695	0.3023	-0.46
Mof_C 	C 	0.4012	0.6492	0.1766	0.156
Mof_C 	C 	0.6809	0.3064	0.1541	0.409
Mof_C 	C 	0.3546	0.607	0.1474	-0.234
Mof_C 	C 	0.768	0.5564	0.3936	0.182
Mof_C 	C 	0.3519	0.8	0.1285	0.1
Mof_C 	C 	0.4171	0.9979	0.7162	-0.275
Mof_C 	C 	0.3189	0.6977	0.8672	-0.46
Mof_C 	C 	0.7066	0.2323	0.8113	0.203
Mof_C 	C 	0.8432	0.7014	0.8166	-0.45
Mof_C 	C 	0.37431	0.59463	0.69452	0.16
Mof_C 	C 	0.0786	0.1094	0.3326	-0.295
Mof_C 	C 	0.8936	0.768	0.0564	0.182
Mof_C 	C 	0.69452	0.59989	0.82021	0.16
Mof_C 	C 	0.5021	0.4192	0.2183	-0.275
Mof_C 	C 	0.1492	0.9012	0.6766	0.156
Mof_C 	C 	0.1766	0.1492	0.4012	0.156
Mof_C 	C 	0.0101	0.785	0.1735	0.438
Mof_C 	C 	0.17979	0.90011	0.30548	0.16
Mof_C 	C 	0.7246	0.4726	0.8234	0.156
Mof_C 	C 	0.0101	0.2251	0.3366	0.438
Mof_C 	C 	0.1674	0.246	0.2768	-0.295
Mof_C 	C 	0.746	0.6674	0.7768	-0.295
Mof_C 	C 	0.4596	0.3526	0.2072	-0.234
Mof_C 	C 	0.09989	0.90537	0.27968	0.16
Mof_C 	C 	0.0808	0.0829	0.2991	-0.275
Mof_C 	C 	0.69452	0.09463	0.37431	0.16
Mof_C 	C 	0.42327	0.74047	0.13854	0.122
Mof_C 	C 	0.2315	0.8814	0.2201	-0.247
Mof_C 	C 	0.0268	0.1523	0.8459	0.409
Mof_C 	C 	0.1115	0.8366	0.3265	0.438
Mof_C 	C 	0.3113	0.7066	0.7323	0.203
Mof_C 	C 	0.8713	0.1421	0.3532	0.176
Mof_C 	C 	0.7116	0.4436	0.8372	0.182
Mof_C 	C 	0.4877	0.0685	0.759	0.234
Mof_C 	C 	0.7766	0.6481	0.9481	0.1
Mof_C 	C 	0.3848	0.0266	0.6834	-0.45
Mof_C 	C 	0.4464	0.8695	0.2139	0.48
Mof_C 	C 	0.9192	0.0021	0.7183	-0.275
Mof_C 	C 	0.8372	0.9436	0.7116	0.182
Mof_C 	C 	0.3828	0.58127	0.75823	-0.069
Mof_C 	C 	0.1935	0.3546	0.3497	-0.446
Mof_C 	C 	0.1021	0.8225	0.3724	-0.225
Mof_C 	C 	0.3023	0.6328	0.1811	-0.46
Mof_C 	C 	0.7713	0.6905	0.759	0.234
Mof_C 	C 	0.0021	0.7838	0.0829	-0.275
Mof_C 	C 	0.3459	0.3191	0.1936	0.409
Mof_C 	C 	0.1186	0.2799	0.2685	-0.247
Mof_C 	C 	0.9877	0.759	0.0685	0.234
Mof_C 	C 	0.839	0.1415	0.5049	0.392
Mof_C 	C 	0.80153	0.17696	0.41873	-0.069
Mof_C 	C 	0.5499	0.6775	0.7796	-0.225
Mof_C 	C 	0.1454	0.8389	0.4951	-0.445
Mof_C 	C 	0.3432	0.8166	0.7014	-0.45
Mof_C 	C 	0.1481	0.8715	0.2	0.1
Mof_C 	C 	0.7768	0.1674	0.746	-0.295
Mof_C 	C 	0.4819	0.1287	0.7708	0.176
Mof_C 	C 	0.7228	0.117	0.4162	0.112
Mof_C 	C 	0.1597	0.9816	0.3477	0.518
Mof_C 	C 	0.9044	0.1563	0.4201	0.204
Mof_C 	C 	0.6287	0.9819	0.2708	0.176
Mof_C 	C 	0.8437	0.0799	0.5956	0.204
Mof_C 	C 	0.1887	0.2677	0.2934	0.203
Mof_C 	C 	0.12457	0.82304	0.24177	-0.069
Mof_C 	C 	0.6975	0.3341	0.339	0.392
Mof_C 	C 	0.6305	0.5769	0.8444	0.48
Mof_C 	C 	0.2234	0.3519	0.0519	0.1
Mof_C 	C 	0.1328	0.3305	0.9517	-0.46
Mof_C 	C 	0.8713	0.7292	0.0181	0.176
Mof_C 	C 	0.7884	0.1628	0.5564	0.182
Mof_C 	C 	0.6186	0.2685	0.2799	-0.247
Mof_C 	C 	0.0808	0.0123	0.2713	0.234
Mof_C 	C 	0.08127	0.8828	0.25823	-0.069
Mof_C 	C 	0.8477	0.6541	0.4732	0.409
Mof_C 	C 	0.6094	0.5786	0.8326	-0.295
Mof_C 	C 	0.0157	0.2638	0.4201	0.204
Mof_C 	C 	0.7838	0.5829	0.5021	-0.275
Mof_C 	C 	0.107	0.8546	0.6474	-0.234
Mof_C 	C 	0.2524	0.7928	0.1454	-0.234
Mof_C 	C 	0.883	0.0838	0.7772	0.112
Mof_C 	C 	0.1562	0.3497	0.9951	-0.445
Mof_C 	C 	0.4044	0.4201	0.1563	0.204
Mof_C 	C 	0.6811	0.3788	0.0483	-0.46
Mof_C 	C 	0.6172	0.19847	0.87543	-0.069
Mof_C 	C 	0.1828	0.92327	0.28473	0.122
Mof_C 	C 	0.24047	0.3172	0.10193	0.122
Mof_C 	C 	0.6021	0.2297	0.2796	-0.225
Mof_C 	C 	0.7116	0.268	0.3744	0.182
Mof_C 	C 	0.2496	0.3321	0.2577	-0.267
Mof_C 	C 	0.4192	0.7009	0.9171	-0.275
Mof_C 	C 	0.19452	0.82021	0.59989	0.16
Mof_C 	C 	0.9012	0.7246	0.752	0.156
Mof_C 	C 	0.2183	0.9192	0.5021	-0.275
Mof_C 	C 	0.9843	0.7362	0.5799	0.204
Mof_C 	C 	0.732	0.6064	0.4436	0.182
Mof_C 	C 	0.3715	0.7234	0.1715	0.1
Mof_C 	C 	0.8432	0.1418	0.5266	-0.45
Mof_C 	C 	0.5049	0.6415	0.839	0.392
Mof_C 	C 	0.7796	0.6021	0.7297	-0.225
Mof_C 	C 	0.246	0.7768	0.6674	-0.295
Mof_C 	C 	0.1887	0.921	0.3953	0.203
Mof_C 	C 	0.1634	0.9899	0.2749	0.438
Mof_C 	C 	0.87431	0.69452	0.59463	0.16
Mof_C 	C 	0.8526	0.893	0.6454	-0.234
Mof_C 	C 	0.0829	0.7991	0.5808	-0.275
Mof_C 	C 	0.1634	0.1735	0.3885	0.438
Mof_C 	C 	0.9692	0.746	0.5786	-0.295
Mof_C 	C 	0.7817	0.7009	0.7838	-0.275
Mof_C 	C 	0.1523	0.3459	0.5268	0.409
Mof_C 	C 	0.4734	0.1152	0.8166	-0.45
Mof_C 	C 	0.3629	0.5484	0.1617	0.362
Mof_C 	C 	0.1934	0.8942	0.2772	0.112
Mof_C 	C 	0.254	0.3326	0.2232	-0.295
Mof_C 	C 	0.7297	0.6276	0.4501	-0.225
Mof_C 	C 	0.6828	0.28473	0.92327	0.122
Mof_C 	C 	0.9175	0.9919	0.7496	-0.267
Mof_C 	C 	0.62457	0.24177	0.82304	-0.069
Mof_C 	C 	0.0049	0.1659	0.8634	0.392
Mof_C 	C 	0.6058	0.3066	0.2228	0.112
Mof_C 	C 	0.8438	0.6503	0.0049	-0.445
Mof_C 	C 	0.6481	0.4481	0.2766	0.1
Mof_C 	C 	0.3145	0.8629	0.2012	0.362
Mof_C 	C 	0.8166	0.2014	0.8432	-0.45
Mof_C 	C 	0.12569	0.30548	0.40537	0.16
Mof_C 	C 	0.1523	0.312	0.1339	0.518
Mof_C 	C 	0.3225	0.7204	0.9501	-0.225
Mof_C 	C 	0.4726	0.3234	0.2246	0.156
Mof_C 	C 	0.3906	0.9692	0.7232	-0.295
Mof_C 	C 	0.9951	0.1454	0.3389	-0.445
Mof_C 	C 	0.7476	0.2072	0.8546	-0.234
Mof_C 	C 	0.1371	0.2988	0.1855	0.362
Mof_C 	C 	0.4516	0.1133	0.8145	0.362
Mof_C 	C 	0.2796	0.7297	0.6021	-0.225
Mof_C 	C 	0.4481	0.7766	0.1481	0.1
Mof_C 	C 	0.4315	0.0123	0.741	0.234
Mof_C 	C 	0.4192	0.6905	0.9315	0.234
Mof_C 	C 	0.6735	0.6634	0.8885	0.438
Mof_C 	C 	0.7476	0.5404	0.393	-0.234
Mof_C 	C 	0.92327	0.78473	0.6828	0.122
Mof_C 	C 	0.8383	0.9516	0.6371	0.362
Mof_C 	C 	0.8321	0.0825	0.5744	-0.267
Mof_C 	C 	0.3065	0.6503	0.6454	-0.446
Mof_C 	C 	0.0769	0.9464	0.2325	0.48
Mof_C 	C 	0.3828	0.80153	0.12457	-0.069
Mof_C 	C 	0.6474	0.2928	0.0404	-0.234
Mof_C 	C 	0.7754	0.5988	0.748	0.156
Mof_C 	C 	0.2201	0.8387	0.4886	-0.247
Mof_C 	C 	0.27968	0.40537	0.09989	0.16
Mof_C 	C 	0.25823	0.87543	0.67696	-0.069
Mof_C 	C 	0.2928	0.5404	0.1474	-0.234
Mof_C 	C 	0.3848	0.3582	0.2014	-0.45
Mof_C 	C 	0.2012	0.3629	0.3145	0.362
Mof_C 	C 	0.6936	0.3459	0.8191	0.409
Mof_C 	C 	0.6094	0.0308	0.2768	-0.295
Mof_C 	C 	0.6115	0.3265	0.8366	0.438
Mof_C 	C 	0.2183	0.2991	0.2162	-0.275
Mof_C 	C 	0.6659	0.161	0.8025	0.392
Mof_C 	C 	0.883	0.7992	0.6058	0.112
Mof_C 	C 	0.2323	0.921	0.5257	0.203
Mof_C 	C 	0.5184	0.1781	0.8661	0.518
Mof_C 	C 	0.8113	0.079	0.6047	0.203
Mof_C 	C 	0.1454	0.8526	0.393	-0.234
Mof_C 	C 	0.8848	0.6834	0.0266	-0.45
Mof_C 	C 	0.1613	0.1499	0.3814	-0.247
Mof_C 	C 	0.3532	0.6421	0.8713	0.176
Mof_C 	C 	0.2991	0.5829	0.0808	-0.275
Mof_C 	C 	0.5988	0.3508	0.8234	0.156
Mof_C 	C 	0.5769	0.2325	0.9464	0.48
Mof_C 	C 	0.3387	0.7201	0.9886	-0.247
Mof_C 	C 	0.37543	0.75823	0.17696	-0.069
Mof_C 	C 	0.86146	0.10193	0.78473	0.122
Mof_C 	C 	0.62569	0.22032	0.82021	0.16
Mof_C 	C 	0.6418	0.3432	0.0266	-0.45
Mof_C 	C 	0.9201	0.9044	0.6563	0.204
Mof_C 	C 	0.1255	0.3064	0.1523	0.409
Mof_C 	C 	0.0274	0.7754	0.6766	0.156
Mof_C 	C 	0.6628	0.2884	0.0564	0.182
Mof_C 	C 	0.2638	0.3437	0.2481	0.204
Mof_C 	C 	0.58127	0.25823	0.8828	-0.069
Mof_C 	C 	0.4979	0.5808	0.7817	-0.275
Mof_C 	C 	0.248	0.4726	0.6492	0.156
Mof_C 	C 	0.6366	0.9951	0.3341	0.392
Mof_C 	C 	0.1255	0.8191	0.4732	0.409
Mof_C 	C 	0.6695	0.1212	0.8023	-0.46
Mof_C 	C 	0.2817	0.4979	0.0808	-0.275
Mof_C 	C 	0.7496	0.4919	0.9175	-0.267
Mof_C 	C 	0.72032	0.12569	0.32021	0.16
Mof_C 	C 	0.241	0.8095	0.2287	0.234
Mof_C 	C 	0.7703	0.2204	0.8979	-0.225
Mof_C 	C 	0.2713	0.5123	0.0808	0.234
Mof_C 	C 	0.9886	0.2201	0.3387	-0.247
Mof_C 	C 	0.8383	0.8867	0.7012	0.362
Mof_C 	C 	0.0081	0.7504	0.5825	-0.267
Mof_C 	C 	0.1611	0.1562	0.3065	-0.445
Mof_C 	C 	0.2754	0.748	0.5988	0.156
Mof_C 	C 	0.9517	0.1212	0.3189	-0.46
Mof_C 	C 	0.3634	0.0049	0.6659	0.392
Mof_C 	C 	0.7362	0.6563	0.7519	0.204
Mof_C 	C 	0.8064	0.1809	0.6541	0.409
Mof_C 	C 	0.2315	0.3501	0.5114	-0.247
Mof_C 	C 	0.3546	0.5049	0.1611	-0.445
Mof_C 	C 	0.7754	0.1766	0.5274	0.156
Mof_C 	C 	0.9743	0.2066	0.8953	0.203
Mof_C 	C 	0.82021	0.09989	0.69452	0.16
Mof_C 	C 	0.9899	0.215	0.8265	0.438
Mof_C 	C 	0.4256	0.4175	0.1679	-0.267
Mof_C 	C 	0.5257	0.1047	0.7934	0.203
Mof_C 	C 	0.0536	0.2675	0.4231	0.48
Mof_C 	C 	0.4951	0.1366	0.8341	0.392
Mof_C 	C 	0.6541	0.9732	0.3477	0.409
Mof_C 	C 	0.0404	0.7928	0.6474	-0.234
Mof_C 	C 	0.661	0.1659	0.3025	0.392
Mof_C 	C 	0.6454	0.2524	0.2928	-0.234
Mof_C 	C 	0.2162	0.7991	0.2183	-0.275
Mof_C 	C 	0.6021	0.3724	0.8225	-0.225
Mof_C 	C 	0.3585	0.661	0.9951	0.392
Mof_C 	C 	0.1659	0.8025	0.161	0.392
Mof_C 	C 	0.8579	0.7111	0.7292	0.176
Mof_C 	C 	0.60193	0.36146	0.28473	0.122
Mof_C 	C 	0.2988	0.6855	0.6371	0.362
Mof_C 	C 	0.3064	0.6523	0.6255	0.409
Mof_C 	C 	0.2162	0.4171	0.4979	-0.275
Mof_C 	C 	0.8095	0.7287	0.741	0.234
Mof_C 	C 	0.6503	0.1454	0.8065	-0.446
Mof_C 	C 	0.5308	0.4214	0.254	-0.295
Mof_C 	C 	0.8285	0.0519	0.7	0.1
Mof_C 	C 	0.246	0.4692	0.0786	-0.295
Mof_C 	C 	0.67696	0.30153	0.91873	-0.069
Mof_C 	C 	0.8629	0.7012	0.8145	0.362
Mof_C 	C 	0.2861	0.5536	0.6305	0.48
Mof_C 	C 	0.1418	0.0266	0.3432	-0.45
Mof_C 	C 	0.1556	0.2325	0.2861	0.48
Mof_C 	C 	0.1679	0.2504	0.2423	-0.267
Mof_C 	C 	0.6617	0.3629	0.0484	0.362
Mof_C 	C 	0.1328	0.8023	0.6811	-0.46
Mof_C 	C 	0.2066	0.3953	0.4743	0.203
Mof_C 	C 	0.2677	0.4743	0.079	0.203
Mof_C 	C 	0.921	0.8953	0.6887	0.203
Mof_C 	C 	0.6613	0.2799	0.0114	-0.247
Mof_C 	C 	0.8661	0.6781	0.5184	0.518
Mof_C 	C 	0.3501	0.0114	0.7315	-0.247
Mof_C 	C 	0.6766	0.2754	0.0274	0.156
Mof_C 	C 	0.5484	0.8867	0.1855	0.362
Mof_C 	C 	0.6809	0.3745	0.0268	0.409
Mof_C 	C 	0.3265	0.9899	0.715	0.438
Mof_C 	C 	0.9816	0.8477	0.6597	0.518
Mof_C 	C 	0.2481	0.4044	0.4843	0.204
Mof_C 	C 	0.3979	0.7703	0.7204	-0.225
Mof_C 	C 	0.6905	0.4315	0.9192	0.234
Mof_C 	C 	0.9919	0.2496	0.4175	-0.267
Mof_C 	C 	0.607	0.9596	0.2524	-0.234
Mof_C 	C 	0.6152	0.9734	0.3166	-0.45
Mof_C 	C 	0.1775	0.0499	0.2796	-0.225
Mof_C 	C 	0.0123	0.241	0.9315	0.234
Mof_C 	C 	0.5274	0.6766	0.7754	0.156
Mof_C 	C 	0.1415	0.0049	0.339	0.392
Mof_C 	C 	0.6366	0.6415	0.8025	0.392
Mof_C 	C 	0.9175	0.9256	0.6679	-0.267
Mof_C 	C 	0.2677	0.7934	0.6887	0.203
Mof_C 	C 	0.5799	0.2362	0.9843	0.204
Mof_C 	C 	0.1568	0.8582	0.4734	-0.45
Mof_C 	C 	0.5808	0.3095	0.0685	0.234
Mof_C 	C 	0.715	0.4899	0.3265	0.438
Mof_C 	C 	0.7014	0.3166	0.3432	-0.45
Mof_C 	C 	0.9315	0.1905	0.4192	0.234
Mof_C 	C 	0.5404	0.6474	0.7928	-0.234
Mof_C 	C 	0.3321	0.7577	0.7496	-0.267
Mof_C 	C 	0.8906	0.1674	0.4214	-0.295
Mof_C 	C 	0.8672	0.6695	0.0483	-0.46
Mof_C 	C 	0.6679	0.2423	0.2504	-0.267
Mof_C 	C 	0.759	0.5685	0.4877	0.234
Mof_C 	C 	0.393	0.3526	0.1454	-0.234
Mof_C 	C 	0.7139	0.2675	0.8444	0.48
Mof_C 	C 	0.7991	0.7183	0.7162	-0.275
Mof_C 	C 	0.4044	0.9843	0.7481	0.204
Mof_C 	C 	0.1611	0.0049	0.3546	-0.445
Mof_C 	C 	0.0825	0.0081	0.2504	-0.267
Mof_C 	C 	0.17696	0.25823	0.37543	-0.069
Mof_C 	C 	0.3724	0.0499	0.7703	-0.225
Mof_C 	C 	0.24177	0.32304	0.12457	-0.069
Mof_C 	C 	0.6695	0.5483	0.3672	-0.46
Mof_C 	C 	0.5483	0.6811	0.8788	-0.46
Mof_C 	C 	0.24047	0.92327	0.63854	0.122
Mof_C 	C 	0.6047	0.0257	0.2934	0.203
Mof_C 	C 	0.32304	0.69847	0.08127	-0.069
Mof_C 	C 	0.741	0.2287	0.8095	0.234
Mof_C 	C 	0.9516	0.1371	0.3383	0.362
Mof_C 	C 	0.215	0.3265	0.4899	0.438
Mof_C 	C 	0.3532	0.7111	0.9819	0.176
Mof_C 	C 	0.8497	0.1935	0.8546	-0.446
Mof_C 	C 	0.6563	0.4044	0.9201	0.204
Mof_C 	C 	0.6611	0.3065	0.1562	-0.445
Mof_C 	C 	0.5988	0.248	0.2754	0.156
Mof_C 	C 	0.9192	0.9171	0.7009	-0.275
Mof_C 	C 	0.7111	0.2292	0.3579	0.176
Mof_C 	C 	0.3326	0.7232	0.754	-0.295
Mof_C 	C 	0.1415	0.1366	0.3025	0.392
Mof_C 	C 	0.3744	0.6064	0.1628	0.182
Mof_C 	C 	0.09463	0.87431	0.19452	0.16
Mof_C 	C 	0.0404	0.2476	0.893	-0.234
Mof_C 	C 	0.8828	0.75823	0.58127	-0.069
Mof_C 	C 	0.8744	0.7116	0.768	0.182
Mof_C 	C 	0.7703	0.5499	0.3724	-0.225
Mof_C 	C 	0.9596	0.2072	0.3526	-0.234
Mof_C 	C 	0.5808	0.2991	0.0829	-0.275
Mof_C 	C 	0.8788	0.1811	0.5483	-0.46
Mof_C 	C 	0.3285	0.6285	0.7766	0.1
Mof_C 	C 	0.2014	0.8582	0.3848	-0.45
Mof_C 	C 	0.8585	0.8634	0.6975	0.392
Mof_C 	C 	0.1811	0.0483	0.3788	-0.46
Mof_C 	C 	0.2772	0.3942	0.1934	0.112
Mof_C 	C 	0.893	0.1454	0.3526	-0.234
Mof_C 	C 	0.6597	0.312	0.1781	0.518
Mof_C 	C 	0.87543	0.69847	0.6172	-0.069
Mof_C 	C 	0.7838	0.2009	0.7817	-0.275
Mof_C 	C 	0.74047	0.10193	0.3172	0.122
Mof_C 	C 	0.8191	0.9732	0.6255	0.409
Mof_C 	C 	0.3477	0.8745	0.1936	0.409
Mof_C 	C 	0.7232	0.4692	0.3906	-0.295
Mof_C 	C 	0.5838	0.2008	0.8066	0.112
Mof_C 	C 	0.7072	0.2476	0.3546	-0.234
Mof_C 	C 	0.37543	0.6172	0.69847	-0.069
Mof_C 	C 	0.4843	0.9044	0.2481	0.204
Mof_C 	C 	0.32021	0.62569	0.72032	0.16
Mof_C 	C 	0.3064	0.6541	0.1809	0.409
Mof_C 	C 	0.5829	0.0021	0.2838	-0.275
Mof_C 	C 	0.8867	0.2012	0.3383	0.362
Mof_C 	C 	0.25953	0.89807	0.6828	0.122
Mof_C 	C 	0.1366	0.3341	0.9951	0.392
Mof_C 	C 	0.6556	0.2861	0.2325	0.48
Mof_C 	C 	0.2817	0.7838	0.7009	-0.275
Mof_C 	C 	0.812	0.6523	0.6339	0.518
Mof_C 	C 	0.6855	0.5484	0.3867	0.362
Mof_C 	C 	0.59463	0.19452	0.87431	0.16
Mof_C 	C 	0.2251	0.8366	0.5101	0.438
Mof_C 	C 	0.9732	0.1255	0.3191	0.409
Mof_C 	C 	0.0499	0.2703	0.8724	-0.225
Mof_C 	C 	0.40537	0.80548	0.12569	0.16
Mof_C 	C 	0.2009	0.2817	0.2838	-0.275
Mof_C 	C 	0.3936	0.0564	0.768	0.182
Mof_C 	C 	0.8953	0.7066	0.9743	0.203
Mof_C 	C 	0.1339	0.812	0.1523	0.518
Mof_C 	C 	0.4175	0.6679	0.9256	-0.267
Mof_C 	C 	0.7323	0.2066	0.3113	0.203
Mof_C 	C 	0.9819	0.2111	0.3532	0.176
Mof_C 	C 	0.4231	0.7675	0.0536	0.48
Mof_C 	C 	0.6679	0.4256	0.9175	-0.267
Mof_C 	C 	0.7292	0.2111	0.8579	0.176
Mof_C 	C 	0.3305	0.8788	0.1977	-0.46
Mof_C 	C 	0.107	0.2524	0.9596	-0.234
Mof_C 	C 	0.2	0.3715	0.1481	0.1
Mof_C 	C 	0.1597	0.1781	0.312	0.518
Mof_C 	C 	0.1828	0.25953	0.39807	0.122
Mof_C 	C 	0.3172	0.60193	0.74047	0.122
Mof_C 	C 	0.40011	0.67979	0.80548	0.16
Mof_C 	C 	0.6415	0.3025	0.1366	0.392
Mof_C 	C 	0.1936	0.8191	0.3459	0.409
Mof_C 	C 	0.2287	0.9192	0.4877	0.234
Mof_C 	C 	0.3321	0.5744	0.0825	-0.267
Mof_C 	C 	0.3745	0.8477	0.6936	0.409
Mof_C 	C 	0.7	0.1481	0.3715	0.1
Mof_C 	C 	0.8444	0.0769	0.6305	0.48
Mof_C 	C 	0.8979	0.7204	0.7703	-0.225
Mof_C 	C 	0.7749	0.6115	0.785	0.438
Mof_C 	C 	0.8724	0.1021	0.3225	-0.225
Mof_C 	C 	0.6523	0.1255	0.8064	0.409
Mof_C 	C 	0.77968	0.67979	0.87431	0.16
Mof_C 	C 	0.1172	0.87543	0.19847	-0.069
Mof_C 	C 	0.6339	0.1523	0.812	0.518
Mof_C 	C 	0.8715	0.1715	0.7234	0.1
Mof_C 	C 	0.8906	0.7232	0.9692	-0.295
Mof_C 	C 	0.8366	0.0101	0.7251	0.438
Mof_C 	C 	0.5157	0.4201	0.2638	0.204
Mof_C 	C 	0.25823	0.3828	0.08127	-0.069
Mof_C 	C 	0.2838	0.7817	0.2009	-0.275
Mof_C 	C 	0.8145	0.6133	0.4516	0.362
Mof_C 	C 	0.2703	0.3724	0.5499	-0.225
Mof_C 	C 	0.752	0.5274	0.3508	0.156
Mof_C 	C 	0.6834	0.1568	0.7986	-0.45
Mof_C 	C 	0.5685	0.5808	0.8095	0.234
Mof_C 	C 	0.2116	0.3744	0.268	0.182
Mof_C 	C 	0.1562	0.8065	0.6611	-0.445
Mof_C 	C 	0.0519	0.2	0.3285	0.1
Mof_C 	C 	0.9951	0.161	0.3585	0.392
Mof_C 	C 	0.2675	0.9231	0.5536	0.48
Mof_C 	C 	0.0049	0.8546	0.6611	-0.445
Mof_C 	C 	0.22032	0.90011	0.59463	0.16
Mof_C 	C 	0.2838	0.5021	0.5829	-0.275
Mof_C 	C 	0.9819	0.7708	0.1287	0.176
Mof_C 	C 	0.4256	0.0081	0.7577	-0.267
Mof_C 	C 	0.1975	0.339	0.3341	0.392
Mof_C 	C 	0.3885	0.6735	0.1634	0.438
Mof_C 	C 	0.4919	0.4175	0.2496	-0.267
Mof_C 	C 	0.252	0.3508	0.5274	0.156
Mof_C 	C 	0.2362	0.4843	0.0799	0.204
Mof_C 	C 	0.3713	0.0181	0.7292	0.176
Mof_C 	C 	0.5808	0.2817	0.9979	-0.275
Mof_C 	C 	0.0184	0.8661	0.1781	0.518
Mof_C 	C 	0.8532	0.8713	0.6421	0.176
Mof_C 	C 	0.2754	0.5274	0.1766	0.156
Mof_C 	C 	0.5049	0.8438	0.1503	-0.445
Mof_C 	C 	0.3444	0.7139	0.7675	0.48
Mof_C 	C 	0.9436	0.2116	0.3372	0.182
Mof_C 	C 	0.82304	0.08127	0.69847	-0.069
Mof_C 	C 	0.2519	0.7362	0.1563	0.204
Mof_C 	C 	0.1523	0.8064	0.1255	0.409
Mof_C 	C 	0.8519	0.1285	0.8	0.1
Mof_C 	C 	0.5184	0.3403	0.1523	0.518
Mof_C 	C 	0.3341	0.839	0.1975	0.392
Mof_C 	C 	0.5825	0.3321	0.0744	-0.267
Mof_C 	C 	0.3814	0.6499	0.1613	-0.247
Mof_C 	C 	0.7766	0.1285	0.3285	0.1
Mof_C 	C 	0.3113	0.6047	0.079	0.203
Mof_C 	C 	0.3387	0.6186	0.8501	-0.247
Mof_C 	C 	0.6674	0.3906	0.9214	-0.295
Mof_C 	C 	0.3582	0.6568	0.9734	-0.45
Mof_C 	C 	0.5956	0.0157	0.2519	0.204
Mof_C 	C 	0.2066	0.8113	0.2323	0.203
Mof_C 	C 	0.69847	0.1172	0.37543	-0.069
Mof_C 	C 	0.4979	0.9171	0.2162	-0.275
Mof_C 	C 	0.7861	0.1556	0.7325	0.48
Mof_C 	C 	0.3366	0.6115	0.8265	0.438
Mof_C 	C 	0.7066	0.4743	0.3953	0.203
Mof_C 	C 	0.7675	0.2139	0.3444	0.48
Mof_C 	C 	0.8389	0.8438	0.6935	-0.445
Mof_C 	C 	0.607	0.6474	0.8546	-0.234
Mof_C 	C 	0.8025	0.1415	0.6366	0.392
Mof_C 	C 	0.268	0.3936	0.5564	0.182
Mof_C 	C 	0.2201	0.3814	0.2315	-0.247
Mof_C 	C 	0.7287	0.241	0.3095	0.234
Mof_C 	C 	0.1905	0.2713	0.259	0.234
Mof_C 	C 	0.4726	0.1492	0.748	0.156
Mof_C 	C 	0.1834	0.7986	0.1568	-0.45
Mof_C 	C 	0.6415	0.339	0.0049	0.392
Mof_C 	C 	0.0799	0.9843	0.2362	0.204
Mof_C 	C 	0.3936	0.3372	0.1256	0.182
Mof_C 	C 	0.3025	0.6366	0.1415	0.392
Mof_C 	C 	0.17696	0.91873	0.30153	-0.069
Mof_C 	C 	0.259	0.7713	0.1905	0.234
Mof_C 	C 	0.4171	0.4192	0.2009	-0.275
Mof_C 	C 	0.3065	0.6562	0.1611	-0.445
Mof_C 	C 	0.7246	0.252	0.4012	0.156
Mof_C 	C 	0.1834	0.3848	0.5266	-0.45
Mof_C 	C 	0.5536	0.4231	0.2675	0.48
Mof_C 	C 	0.0268	0.8745	0.6809	0.409
Mof_C 	C 	0.2008	0.3066	0.0838	0.112
Mof_C 	C 	0.3383	0.7012	0.8867	0.362
Mof_C 	C 	0.285	0.5101	0.6735	0.438
Mof_C 	C 	0.0499	0.7796	0.6775	-0.225
Mof_C 	C 	0.117	0.2008	0.3942	0.112
Mof_C 	C 	0.6674	0.2768	0.246	-0.295
Mof_C 	C 	0.3095	0.741	0.7287	0.234
Mof_C 	C 	0.1905	0.9192	0.4315	0.234
Mof_C 	C 	0.7234	0.0519	0.3519	0.1
Mof_C 	C 	0.59463	0.40011	0.22032	0.16
Mof_C 	C 	0.3814	0.7315	0.7201	-0.247
Mof_C 	C 	0.9481	0.1481	0.7766	0.1
Mof_C 	C 	0.8672	0.1977	0.3189	-0.46
Mof_C 	C 	0.1563	0.9201	0.4044	0.204
Mof_C 	C 	0.6481	0.2	0.8715	0.1
Mof_C 	C 	0.8745	0.1809	0.5268	0.409
Mof_C 	C 	0.6468	0.2889	0.0181	0.176
Mof_C 	C 	0.8191	0.8459	0.6936	0.409
Mof_C 	C 	0.2423	0.4919	0.5744	-0.267
Mof_C 	C 	0.7183	0.2162	0.2991	-0.275
Mof_C 	C 	0.3265	0.3366	0.1115	0.438
Mof_C 	C 	0.6276	0.9501	0.2297	-0.225
Mof_C 	C 	0.19847	0.37543	0.1172	-0.069
Mof_C 	C 	0.6418	0.2986	0.1152	-0.45
Mof_C 	C 	0.3744	0.768	0.7116	0.182
Mof_C 	C 	0.5499	0.8724	0.2703	-0.225
Mof_C 	C 	0.59989	0.27968	0.90537	0.16
Mof_C 	C 	0.9315	0.741	0.0123	0.234
Mof_C 	C 	0.748	0.0988	0.7754	0.156
Mof_C 	C 	0.2228	0.8066	0.6058	0.112
Mof_C 	C 	0.617	0.3942	0.2008	0.112
Mof_C 	C 	0.8326	0.754	0.7232	-0.295
Mof_C 	C 	0.57673	0.25953	0.86146	0.122
Mof_C 	C 	0.0483	0.1695	0.8672	-0.46
Mof_C 	C 	0.1474	0.0404	0.2928	-0.234
Mof_C 	C 	0.1935	0.8389	0.3438	-0.445
Mof_C 	C 	0.1503	0.8065	0.1454	-0.446
Mof_C 	C 	0.4517	0.3189	0.1212	-0.46
Mof_C 	C 	0.7481	0.2638	0.8437	0.204
Mof_C 	C 	0.1499	0.8814	0.6613	-0.247
Mof_C 	C 	0.60193	0.24047	0.8172	0.122
Mof_C 	C 	0.8634	0.6659	0.0049	0.392
Mof_C 	C 	0.7251	0.215	0.3885	0.438
Mof_C 	C 	0.3166	0.4734	0.6152	-0.45
Mof_C 	C 	0.5808	0.2713	0.0123	0.234
Mof_C 	C 	0.0484	0.1855	0.8867	0.362
Mof_C 	C 	0.4692	0.5786	0.746	-0.295
Mof_C 	C 	0.9979	0.2162	0.9171	-0.275
Mof_C 	C 	0.7162	0.2183	0.7991	-0.275
Mof_C 	C 	0.2934	0.5257	0.6047	0.203
Mof_C 	C 	0.6523	0.5268	0.3459	0.409
Mof_C 	C 	0.3459	0.0268	0.6523	0.409
Mof_C 	C 	0.2012	0.8383	0.3867	0.362
Mof_C 	C 	0.6556	0.3695	0.9231	0.48
Mof_C 	C 	0.4231	0.6556	0.8695	0.48
Mof_C 	C 	0.5157	0.0956	0.7519	0.204
Mof_C 	C 	0.0808	0.0685	0.3095	0.234
Mof_C 	C 	0.5266	0.8848	0.1834	-0.45
Mof_C 	C 	0.3953	0.421	0.1887	0.203
Mof_C 	C 	0.71527	0.57673	0.8172	0.122
Mof_C 	C 	0.9501	0.7297	0.1276	-0.225
Mof_C 	C 	0.2297	0.7796	0.1021	-0.225
Mof_C 	C 	0.6371	0.1855	0.2988	0.362
Mof_C 	C 	0.5049	0.8634	0.1659	0.392
Mof_C 	C 	0.6474	0.3546	0.107	-0.234
Mof_C 	C 	0.6499	0.6613	0.8814	-0.247
Mof_C 	C 	0.6834	0.5266	0.3848	-0.45
Mof_C 	C 	0.0181	0.2292	0.8713	0.176
Mof_C 	C 	0.259	0.4877	0.5685	0.234
Mof_C 	C 	0.8265	0.715	0.9899	0.438
Mof_C 	C 	0.17979	0.27968	0.37431	0.16
Mof_C 	C 	0.6936	0.3477	0.3745	0.409
Mof_C 	C 	0.3219	0.3403	0.188	0.518
Mof_C 	C 	0.6287	0.6468	0.8579	0.176
Mof_C 	C 	0.77968	0.09989	0.40537	0.16
Mof_C 	C 	0.9201	0.0157	0.7638	0.204
Mof_C 	C 	0.6934	0.4162	0.2992	0.112
Mof_C 	C 	0.2685	0.7799	0.1186	-0.247
Mof_C 	C 	0.63854	0.21527	0.89807	0.122
Mof_C 	C 	0.4501	0.3225	0.2204	-0.225
Mof_C 	C 	0.5519	0.2234	0.8519	0.1
Mof_C 	C 	0.0808	0.9979	0.2817	-0.275
Mof_C 	C 	0.7861	0.6305	0.5536	0.48
Mof_C 	C 	0.0799	0.0956	0.3437	0.204
Mof_C 	C 	0.6523	0.1339	0.312	0.518
Mof_C 	C 	0.1468	0.1287	0.3579	0.176
Mof_C 	C 	0.0483	0.8788	0.6811	-0.46
Mof_C 	C 	0.4596	0.107	0.7524	-0.234
Mof_C 	C 	0.7201	0.4886	0.8387	-0.247
Mof_C 	C 	0.6499	0.9886	0.2685	-0.247
Mof_C 	C 	0.87431	0.17979	0.77968	0.16
Mof_C 	C 	0.0519	0.8519	0.2234	0.1
Mof_C 	C 	0.3661	0.5184	0.6781	0.518
Mof_C 	C 	0.6887	0.2934	0.2677	0.203
Mof_C 	C 	0.3867	0.3383	0.2012	0.362
Mof_C 	C 	0.62569	0.40537	0.30548	0.16
Mof_C 	C 	0.2228	0.4162	0.117	0.112
Mof_C 	C 	0.754	0.5308	0.9214	-0.295
Mof_C 	C 	0.9732	0.8477	0.1541	0.409
Mof_C 	C 	0.9877	0.2287	0.4192	0.234
Mof_C 	C 	0.3582	0.7014	0.8848	-0.45
Mof_C 	C 	0.4516	0.3383	0.1371	0.362
Mof_C 	C 	0.7072	0.4596	0.8526	-0.234
Mof_C 	C 	0.7685	0.1186	0.7799	-0.247
Mof_C 	C 	0.2796	0.5499	0.1775	-0.225
Mof_C 	C 	0.0786	0.9692	0.246	-0.295
Mof_C 	C 	0.2768	0.5308	0.6094	-0.295
Mof_C 	C 	0.4732	0.1541	0.8477	0.409
Mof_C 	C 	0.161	0.8585	0.4951	0.392
Mof_C 	C 	0.67979	0.37431	0.27968	0.16
Mof_C 	C 	0.30548	0.90537	0.62569	0.16
Mof_C 	C 	0.8715	0.7	0.6481	0.1
Mof_C 	C 	0.3	0.4481	0.1715	0.1
Mof_C 	C 	0.91873	0.80153	0.67696	-0.069
Mof_C 	C 	0.1287	0.2708	0.9819	0.176
Mof_C 	C 	0.254	0.9214	0.5308	-0.295
Mof_C 	C 	0.7009	0.2838	0.2817	-0.275
Mof_C 	C 	0.8172	0.74047	0.60193	0.122
Mof_C 	C 	0.0956	0.8437	0.5799	0.204
Mof_C 	C 	0.6172	0.41873	0.24177	-0.069
Mof_C 	C 	0.3438	0.0049	0.6503	-0.445
Mof_C 	C 	0.5081	0.9256	0.2577	-0.267
Mof_C 	C 	0.9919	0.7423	0.0744	-0.267
Mof_C 	C 	0.4899	0.8265	0.215	0.438
Mof_C 	C 	0.7204	0.2703	0.3979	-0.225
Mof_C 	C 	0.8172	0.07673	0.71527	0.122
Mof_C 	C 	0.7423	0.5744	0.4919	-0.267
Mof_C 	C 	0.812	0.1597	0.6781	0.518
Mof_C 	C 	0.8438	0.1935	0.3389	-0.445
Mof_C 	C 	0.1094	0.2768	0.0308	-0.295
Mof_C 	C 	0.90537	0.12569	0.80548	0.16
Mof_C 	C 	0.5081	0.5825	0.7504	-0.267
Mof_C 	C 	0.80548	0.62569	0.90537	0.16
Mof_C 	C 	0.3095	0.5685	0.0808	0.234
Mof_C 	C 	0.0769	0.1305	0.3444	0.48
Mof_C 	C 	0.1541	0.3477	0.9732	0.409
Mof_C 	C 	0.6715	0.3715	0.2234	0.1
Mof_C 	C 	0.8066	0.7008	0.5838	0.112
Mof_C 	C 	0.1568	0.2986	0.1834	-0.45
Mof_C 	C 	0.0049	0.839	0.6415	0.392
Mof_C 	C 	0.768	0.2116	0.8744	0.182
Mof_C 	C 	0.27968	0.87431	0.67979	0.16
Mof_C 	C 	0.0825	0.0744	0.3321	-0.267
Mof_C 	C 	0.6887	0.3953	0.921	0.203
Mof_C 	C 	0.89807	0.71527	0.63854	0.122
Mof_C 	C 	0.5181	0.8713	0.2292	0.176
Mof_C 	C 	0.3219	0.9816	0.6339	0.518
Mof_C 	C 	0.2072	0.3546	0.2476	-0.234
Mof_C 	C 	0.1256	0.2884	0.232	0.182
Mof_C 	C 	0.24177	0.91873	0.6172	-0.069
Mof_C 	C 	0.2504	0.5081	0.0825	-0.267
Mof_C 	C 	0.3942	0.7008	0.117	0.112
Mof_C 	C 	0.3389	0.6454	0.9951	-0.445
Mof_C 	C 	0.3979	0.6276	0.1775	-0.225
Mof_C 	C 	0.2889	0.5181	0.1468	0.176
Mof_C 	C 	0.8867	0.6855	0.0484	0.362
Mof_C 	C 	0.1934	0.2992	0.4162	0.112
Mof_C 	C 	0.9171	0.7162	0.9979	-0.275
Mof_C 	C 	0.9044	0.7481	0.9843	0.204
Mof_C 	C 	0.6562	0.9951	0.3497	-0.445
Mof_C 	C 	0.2861	0.7325	0.1556	0.48
Mof_C 	C 	0.339	0.8341	0.6975	0.392
Mof_C 	C 	0.5268	0.8459	0.1523	0.409
Mof_C 	C 	0.22032	0.32021	0.12569	0.16
Mof_C 	C 	0.0685	0.259	0.9877	0.234
Mof_C 	C 	0.8305	0.6328	0.4517	-0.46
Mof_C 	C 	0.7519	0.1563	0.7362	0.204
Mof_C 	C 	0.3715	0.6481	0.7	0.1
Mof_C 	C 	0.9171	0.2009	0.4192	-0.275
Mof_C 	C 	0.0114	0.7799	0.6613	-0.247
Mof_C 	C 	0.8501	0.1186	0.3387	-0.247
Mof_C 	C 	0.6523	0.5184	0.8403	0.518
Mof_C 	C 	0.1186	0.8387	0.3501	-0.247
Mof_C 	C 	0.1152	0.7986	0.6418	-0.45
Mof_C 	C 	0.7251	0.5101	0.8366	0.438
Mof_C 	C 	0.9231	0.0536	0.7675	0.48
Mof_C 	C 	0.8444	0.7675	0.7139	0.48
Mof_C 	C 	0.2986	0.6834	0.6568	-0.45
Mof_C 	C 	0.3501	0.3387	0.1186	-0.247
Mof_C 	C 	0.7577	0.2496	0.8321	-0.267
Mof_C 	C 	0.3066	0.5838	0.7008	0.112
Mof_C 	C 	0.13854	0.89807	0.21527	0.122
Mof_C 	C 	0.1133	0.3145	0.9516	0.362
Mof_C 	C 	0.6611	0.3546	0.0049	-0.445
Mof_C 	C 	0.6255	0.4732	0.8191	0.409
Mof_C 	C 	0.8501	0.7315	0.0114	-0.247
Mof_C 	C 	0.9734	0.8166	0.1152	-0.45
Mof_C 	C 	0.6064	0.9436	0.232	0.182
Mof_C 	C 	0.9012	0.1766	0.6492	0.156
Mof_C 	C 	0.3788	0.8305	0.6977	-0.46
Mof_C 	C 	0.6766	0.4012	0.1492	0.156
Mof_C 	C 	0.7992	0.1058	0.383	0.112
Mof_C 	C 	0.6047	0.579	0.8113	0.203
Mof_C 	C 	0.8341	0.6366	0.4951	0.392
Mof_C 	C 	0.8526	0.9596	0.7072	-0.234
Mof_C 	C 	0.2246	0.8234	0.4726	0.156
Mof_C 	C 	0.0956	0.2519	0.0157	0.204
Mof_C 	C 	0.6256	0.232	0.2884	0.182
Mof_C 	C 	0.7014	0.3848	0.8582	-0.45
Mof_C 	C 	0.4877	0.4192	0.2287	0.234
Mof_C 	C 	0.1474	0.107	0.3546	-0.234
Mof_C 	C 	0.3477	0.4732	0.6541	0.409
Mof_C 	C 	0.9816	0.1339	0.8219	0.518
Mof_C 	C 	0.9162	0.7228	0.617	0.112
Mof_C 	C 	0.6492	0.6766	0.9012	0.156
Mof_C 	C 	0.241	0.4315	0.5123	0.234
Mof_C 	C 	0.579	0.3113	0.1047	0.203
Mof_C 	C 	0.7139	0.4464	0.3695	0.48
Mof_C 	C 	0.3305	0.4517	0.6328	-0.46
Mof_C 	C 	0.7749	0.1634	0.4899	0.438
Mof_C 	C 	0.4436	0.3372	0.2116	0.182
Mof_C 	C 	0.6934	0.2772	0.8942	0.112
Mof_C 	C 	0.0274	0.252	0.8508	0.156
Mof_C 	C 	0.688	0.3661	0.3477	0.518
Mof_C 	C 	0.7768	0.6094	0.5308	-0.295
Mof_C 	C 	0.6064	0.6628	0.8744	0.182
Mof_C 	C 	0.5564	0.6628	0.7884	0.182
Mof_C 	C 	0.5101	0.1735	0.785	0.438
Mof_C 	C 	0.6597	0.3477	0.9816	0.518
Mof_C 	C 	0.2234	0.8715	0.6715	0.1
Mof_C 	C 	0.62457	0.3828	0.30153	-0.069
Mof_C 	C 	0.5049	0.6611	0.8546	-0.445
Mof_C 	C 	0.69847	0.58127	0.82304	-0.069
Mof_C 	C 	0.7009	0.4171	0.9192	-0.275
Mof_C 	C 	0.2325	0.7861	0.6556	0.48
Mof_C 	C 	0.8814	0.7201	0.7315	-0.247
Mof_C 	C 	0.0081	0.2577	0.9256	-0.267
Mof_C 	C 	0.8629	0.1617	0.5484	0.362
Mof_C 	C 	0.2889	0.7708	0.6421	0.176
Mof_C 	C 	0.1454	0.3065	0.1503	-0.446
Mof_C 	C 	0.9214	0.8906	0.6674	-0.295
Mof_C 	C 	0.2292	0.8579	0.2111	0.176
Mof_C 	C 	0.2749	0.785	0.6115	0.438
Mof_C 	C 	0.7889	0.1468	0.5181	0.176
Mof_C 	C 	0.2675	0.3444	0.2139	0.48
Mof_C 	C 	0.7524	0.607	0.4596	-0.234
Mof_C 	C 	0.8508	0.0988	0.3234	0.156
Mof_C 	C 	0.079	0.9743	0.2677	0.203
Mof_C 	C 	0.9436	0.732	0.1064	0.182
Mof_C 	C 	0.7315	0.2201	0.8814	-0.247
Mof_C 	C 	0.41873	0.67696	0.80153	-0.069
Mof_C 	C 	0.3372	0.6256	0.8936	0.182
Mof_C 	C 	0.8885	0.7251	0.715	0.438
Mof_C 	C 	0.0157	0.7519	0.0956	0.204
Mof_C 	C 	0.4201	0.7638	0.0157	0.204
Mof_C 	C 	0.5799	0.3437	0.0956	0.204
Mof_C 	C 	0.0744	0.2423	0.9919	-0.267
Mof_C 	C 	0.785	0.6735	0.5101	0.438
Mof_C 	C 	0.10193	0.8172	0.24047	0.122
Mof_C 	C 	0.6775	0.3979	0.1276	-0.225
Mof_C 	C 	0.4162	0.7992	0.1934	0.112
Mof_C 	C 	0.7201	0.2315	0.3814	-0.247
Mof_C 	C 	0.3906	0.4214	0.1674	-0.295
Mof_C 	C 	0.421	0.7323	0.0257	0.203
Mof_C 	C 	0.7111	0.4819	0.8532	0.176
Mof_C 	C 	0.8459	0.6523	0.0268	0.409
Mof_C 	C 	0.5536	0.1305	0.7861	0.48
Mof_C 	C 	0.30153	0.41873	0.17696	-0.069
Mof_C 	C 	0.92327	0.13854	0.74047	0.122
Mof_C 	C 	0.8942	0.117	0.7008	0.112
Mof_C 	C 	0.0744	0.8321	0.5825	-0.267
Mof_C 	C 	0.6115	0.285	0.2749	0.438
Mof_C 	C 	0.28473	0.86146	0.60193	0.122
Mof_C 	C 	0.8341	0.1975	0.839	0.392
Mof_C 	C 	0.7988	0.6371	0.6855	0.362
Mof_C 	C 	0.1735	0.8885	0.6634	0.438
Mof_C 	C 	0.2232	0.3906	0.4692	-0.295
Mof_C 	C 	0.19452	0.37431	0.09463	0.16
Mof_C 	C 	0.1809	0.1541	0.3064	0.409
Mof_C 	C 	0.754	0.2232	0.3326	-0.295
Mof_C 	C 	0.28473	0.42327	0.1828	0.122
Mof_C 	C 	0.6659	0.5049	0.3634	0.392
Mof_C 	C 	0.8585	0.9951	0.661	0.392
Mof_C 	C 	0.3546	0.7476	0.7072	-0.234
Mof_C 	C 	0.661	0.4951	0.8585	0.392
Mof_C 	C 	0.7713	0.0808	0.5123	0.234
Mof_C 	C 	0.1366	0.8025	0.6415	0.392
Mof_C 	C 	0.3444	0.6305	0.0769	0.48
Mof_C 	C 	0.188	0.3477	0.3661	0.518
Mof_C 	C 	0.8189	0.8672	0.6977	-0.46
Mof_C 	C 	0.8113	0.7323	0.7066	0.203
Mof_C 	C 	0.2799	0.5114	0.1613	-0.247
Mof_C 	C 	0.7292	0.5181	0.3713	0.176
Mof_C 	C 	0.7988	0.1617	0.6133	0.362
Mof_C 	C 	0.8321	0.7496	0.7577	-0.267
Mof_C 	C 	0.4436	0.1064	0.732	0.182
Mof_C 	C 	0.5021	0.0829	0.7838	-0.275
Mof_C 	C 	0.2519	0.5157	0.5956	0.204
Mof_C 	C 	0.1047	0.2934	0.0257	0.203
Mof_C 	C 	0.7675	0.5536	0.9231	0.48
Mof_C 	C 	0.6256	0.3936	0.8372	0.182
Mof_C 	C 	0.6781	0.0184	0.3661	0.518
Mof_C 	C 	0.2014	0.3432	0.3166	-0.45
Mof_C 	C 	0.1695	0.3672	0.5483	-0.46
Mof_C 	C 	0.7772	0.5838	0.883	0.112
Mof_C 	C 	0.3285	0.7	0.0519	0.1
Mof_C 	C 	0.117	0.9162	0.2228	0.112
Mof_C 	C 	0.2423	0.7504	0.1679	-0.267
Mof_C 	C 	0.0988	0.2754	0.248	0.156
Mof_C 	C 	0.312	0.6339	0.6523	0.518
Mof_C 	C 	0.6058	0.2992	0.883	0.112
Mof_C 	C 	0.5769	0.3444	0.1305	0.48
Mof_C 	C 	0.6328	0.6811	0.8023	-0.46
Mof_C 	C 	0.2685	0.4886	0.6499	-0.247
Mof_C 	C 	0.6454	0.1503	0.3065	-0.446
Mof_C 	C 	0.1563	0.2362	0.2519	0.204
Mof_C 	C 	0.8979	0.1775	0.6276	-0.225
Mof_C 	C 	0.7162	0.4979	0.4171	-0.275
Mof_C 	C 	0.9692	0.2232	0.8906	-0.295
Mof_C 	C 	0.0685	0.8095	0.5808	0.234
Mof_C 	C 	0.7504	0.0825	0.5081	-0.267
Mof_C 	C 	0.079	0.1047	0.3113	0.203
Mof_C 	C 	0.1975	0.8585	0.3634	0.392
Mof_C 	C 	0.3234	0.7246	0.9726	0.156
Mof_C 	C 	0.1766	0.0274	0.2754	0.156
Mof_C 	C 	0.2884	0.732	0.6256	0.182
Mof_C 	C 	0.8546	0.7072	0.7476	-0.234
Mof_C 	C 	0.383	0.7772	0.0838	0.112
Mof_C 	C 	0.4816	0.8219	0.1339	0.518
Mof_C 	C 	0.5484	0.6617	0.8629	0.362
Mof_C 	C 	0.7638	0.2481	0.3437	0.204
Mof_C 	C 	0.1064	0.232	0.9436	0.182
Mof_C 	C 	0.0308	0.254	0.4214	-0.295
Mof_C 	C 	0.1468	0.0181	0.2889	0.176
Mof_C 	C 	0.3629	0.8145	0.7012	0.362
Mof_C 	C 	0.2799	0.7685	0.6186	-0.247
Mof_C 	C 	0.746	0.0786	0.4692	-0.295
Mof_C 	C 	0.7817	0.0808	0.4979	-0.275
Mof_C 	C 	0.2292	0.3713	0.5181	0.176
Mof_C 	C 	0.1212	0.8189	0.4517	-0.46
Mof_C 	C 	0.2772	0.883	0.5838	0.112
Mof_C 	C 	0.2992	0.383	0.1058	0.112
Mof_C 	C 	0.8848	0.2014	0.3582	-0.45
Mof_C 	C 	0.90011	0.80548	0.67979	0.16
Mof_C 	C 	0.2111	0.8532	0.4819	0.176
Mof_C 	C 	0.8582	0.8848	0.7014	-0.45
Mof_C 	C 	0.6855	0.1371	0.7988	0.362
Mof_C 	C 	0.7928	0.1474	0.5404	-0.234
Mof_C 	C 	0.7297	0.1021	0.7796	-0.225
Mof_C 	C 	0.3579	0.7292	0.7111	0.176
Mof_C 	C 	0.3225	0.6021	0.8724	-0.225
Mof_C 	C 	0.3437	0.7481	0.7638	0.204
Mof_C 	C 	0.7	0.5519	0.8285	0.1
Mof_C 	C 	0.1421	0.2889	0.2708	0.176
Mof_C 	C 	0.1674	0.9214	0.3906	-0.295
Mof_C 	C 	0.0266	0.1834	0.8848	-0.45
Mof_C 	C 	0.4816	0.6597	0.8477	0.518
Mof_C 	C 	0.7234	0.6715	0.8715	0.1
Mof_C 	C 	0.0266	0.8432	0.6418	-0.45
Mof_C 	C 	0.4886	0.1499	0.7685	-0.247
Mof_C 	C 	0.9517	0.8305	0.1328	-0.46
Mof_C 	C 	0.7986	0.1418	0.6152	-0.45
Mof_C 	C 	0.2139	0.3695	0.4464	0.48
Mof_C 	C 	0.78473	0.1828	0.42327	0.122
Mof_C 	C 	0.42327	0.6828	0.78473	0.122
Mof_C 	C 	0.2287	0.3095	0.241	0.234
Mof_C 	C 	0.57673	0.3172	0.21527	0.122
Mof_C 	C 	0.86146	0.75953	0.57673	0.122
Mof_C 	C 	0.2496	0.9175	0.4919	-0.267
Mof_C 	C 	0.7677	0.079	0.4743	0.203
Mof_C 	C 	0.3438	0.3389	0.1935	-0.445
Mof_C 	C 	0.2884	0.5564	0.1628	0.182
Mof_C 	C 	0.5685	0.9877	0.259	0.234
Mof_C 	C 	0.1715	0.9481	0.3	0.1
Mof_C 	C 	0.1285	0.3	0.3519	0.1
Mof_C 	C 	0.1021	0.2796	0.2297	-0.225
Mof_C 	C 	0.3745	0.5268	0.1809	0.409
Mof_C 	C 	0.1418	0.1152	0.2986	-0.45
Mof_C 	C 	0.2476	0.8546	0.2072	-0.234
Mof_C 	C 	0.3695	0.9464	0.7139	0.48
Mof_C 	C 	0.9481	0.8	0.6715	0.1
Mof_C 	C 	0.59989	0.32021	0.19452	0.16
Mof_C 	C 	0.4192	0.7183	0.0021	-0.275
Mof_C 	C 	0.6212	0.4517	0.8189	-0.46
Mof_C 	C 	0.1628	0.1064	0.3744	0.182
Mof_C 	C 	0.7986	0.6568	0.6834	-0.45
Mof_C 	C 	0.9464	0.2139	0.8695	0.48
Mof_C 	C 	0.3477	0.4816	0.1597	0.518
Mof_C 	C 	0.2297	0.4501	0.6276	-0.225
Mof_C 	C 	0.6339	0.4816	0.3219	0.518
Mof_C 	C 	0.6421	0.2708	0.2889	0.176
Mof_C 	C 	0.1628	0.0564	0.2884	0.182
Mof_C 	C 	0.6568	0.4734	0.8582	-0.45
Mof_C 	C 	0.1695	0.8023	0.1212	-0.46
Mof_C 	C 	0.2934	0.7677	0.1887	0.203
Mof_C 	C 	0.2008	0.8942	0.617	0.112
Mof_C 	C 	0.3191	0.6255	0.9732	0.409
Mof_C 	C 	0.3672	0.3189	0.1977	-0.46
Mof_C 	C 	0.4192	0.7287	0.9877	0.234
Mof_C 	C 	0.78473	0.60193	0.86146	0.122
Mof_C 	C 	0.5838	0.383	0.2772	0.112
Mof_C 	C 	0.2204	0.3979	0.2703	-0.225
Mof_C 	C 	0.5257	0.421	0.2323	0.203
Mof_C 	C 	0.0838	0.2772	0.383	0.112
Mof_C 	C 	0.5786	0.246	0.9692	-0.295
Mof_C 	C 	0.5744	0.5825	0.8321	-0.267
Mof_C 	C 	0.9951	0.8497	0.1562	-0.445
Mof_C 	C 	0.7685	0.6499	0.4886	-0.247
Mof_C 	C 	0.9726	0.2246	0.3234	0.156
Mof_C 	C 	0.6285	0.3519	0.3	0.1
Mof_C 	C 	0.13854	0.24047	0.42327	0.122
Mof_C 	C 	0.339	0.5049	0.1415	0.392
Mof_C 	C 	0.393	0.0404	0.7476	-0.234
Mof_C 	C 	0.2362	0.7519	0.6563	0.204
Mof_C 	C 	0.8265	0.1115	0.3366	0.438
Mof_C 	C 	0.1679	0.9175	0.4256	-0.267
Mof_C 	C 	0.4886	0.3387	0.2201	-0.247
Mof_C 	C 	0.0184	0.1523	0.3403	0.518
Mof_C 	C 	0.8285	0.7766	0.6285	0.1
Mof_C 	C 	0.12569	0.82021	0.22032	0.16
Mof_C 	C 	0.7708	0.6287	0.4819	0.176
Mof_C 	C 	0.688	0.3219	0.8403	0.518
Mof_C 	C 	0.1115	0.2749	0.285	0.438
Mof_C 	C 	0.1499	0.2685	0.9886	-0.247
Mof_C 	C 	0.7577	0.5081	0.4256	-0.267
Mof_C 	C 	0.75953	0.6828	0.89807	0.122
Mof_C 	C 	0.7992	0.6934	0.9162	0.112
Mof_C 	C 	0.87543	0.17696	0.75823	-0.069
Mof_C 	C 	0.5956	0.5799	0.8437	0.204
Mof_C 	C 	0.30548	0.40011	0.17979	0.16
Mof_C 	C 	0.3519	0.5519	0.7234	0.1
Mof_C 	C 	0.3432	0.5266	0.1418	-0.45
Mof_C 	C 	0.2708	0.7889	0.1421	0.176
Mof_C 	C 	0.7008	0.617	0.8942	0.112
Mof_C 	C 	0.21527	0.39807	0.13854	0.122
Mof_C 	C 	0.8403	0.8219	0.688	0.518
Mof_C 	C 	0.21527	0.8172	0.57673	0.122
Mof_C 	C 	0.7012	0.3145	0.3629	0.362
Mof_C 	C 	0.3788	0.5483	0.1811	-0.46
Mof_C 	C 	0.2986	0.6152	0.1418	-0.45
Mof_C 	C 	0.8459	0.1936	0.3191	0.409
Mof_C 	C 	0.893	0.7476	0.0404	-0.234
Mof_C 	C 	0.752	0.2246	0.9012	0.156
Mof_C 	C 	0.2766	0.9481	0.6481	0.1
Mof_C 	C 	0.7362	0.0799	0.4843	0.204
Mof_C 	C 	0.5181	0.6468	0.7889	0.176
Mof_C 	C 	0.8366	0.8265	0.6115	0.438
Mof_C 	C 	0.3634	0.3585	0.1975	0.392
Mof_C 	C 	0.7708	0.1421	0.7889	0.176
Mof_C 	C 	0.7677	0.6887	0.7934	0.203
Mof_C 	C 	0.6276	0.6775	0.8979	-0.225
Mof_C 	C 	0.10193	0.28473	0.36146	0.122
Mof_C 	C 	0.6735	0.0101	0.285	0.438
Mof_C 	C 	0.4734	0.3582	0.1568	-0.45
Mof_C 	C 	0.6562	0.6611	0.8065	-0.445
Mof_C 	C 	0.1285	0.8285	0.2766	0.1
Mof_C 	C 	0.3166	0.8432	0.2014	-0.45
Mof_C 	C 	0.6975	0.3634	0.8585	0.392
Mof_C 	C 	0.4517	0.1328	0.8305	-0.46
Mof_C 	C 	0.36146	0.57673	0.75953	0.122
Mof_C 	C 	0.74177	0.6172	0.91873	-0.069
Mof_C 	C 	0.1047	0.8113	0.579	0.203
Mof_C 	C 	0.248	0.7754	0.0988	0.156
Mof_C 	C 	0.2638	0.9201	0.5157	0.204
Mof_C 	C 	0.2766	0.3285	0.1285	0.1
Mof_C 	C 	0.7325	0.6556	0.7861	0.48
Mof_C 	C 	0.3023	0.6695	0.6212	-0.46
Mof_C 	C 	0.188	0.8403	0.3219	0.518
Mof_C 	C 	0.4951	0.3585	0.161	0.392
Mof_C 	C 	0.9256	0.1679	0.4175	-0.267
Mof_C 	C 	0.4899	0.6634	0.7749	0.438
Mof_C 	C 	0.8828	0.12457	0.80153	-0.069
Mof_C 	C 	0.07673	0.21527	0.3172	0.122
Mof_C 	C 	0.0564	0.7884	0.6628	0.182
Mof_C 	C 	0.07673	0.86146	0.25953	0.122
Mof_C 	C 	0.2749	0.4899	0.1634	0.438
Mof_C 	C 	0.2988	0.6133	0.1617	0.362
Mof_C 	C 	0.8437	0.7638	0.7481	0.204
Mof_C 	C 	0.4481	0.6715	0.8	0.1
Mof_C 	C 	0.8372	0.8936	0.6256	0.182
Mof_C 	C 	0.1523	0.8403	0.5184	0.518
Mof_C 	C 	0.7796	0.1775	0.5499	-0.225
Mof_C 	C 	0.0829	0.2838	0.0021	-0.275
Mof_C 	C 	0.4012	0.752	0.7246	0.156
Mof_C 	C 	0.7884	0.6256	0.732	0.182
Mof_C 	C 	0.6255	0.1523	0.3064	0.409
Mof_C 	C 	0.732	0.1256	0.7884	0.182
Mof_C 	C 	0.9979	0.7817	0.5808	-0.275
Mof_C 	C 	0.8387	0.9886	0.7201	-0.247
Mof_C 	C 	0.8942	0.7772	0.6934	0.112
Mof_C 	C 	0.2	0.8285	0.5519	0.1
Mof_C 	C 	0.6977	0.3672	0.8189	-0.46
Mof_C 	C 	0.579	0.2677	0.9743	0.203
Mof_C 	C 	0.2928	0.7524	0.6454	-0.234
Mof_C 	C 	0.7638	0.5157	0.9201	0.204
Mof_C 	C 	0.6133	0.9516	0.3145	0.362
Mof_C 	C 	0.8477	0.1936	0.8745	0.409
Mof_C 	C 	0.6715	0.3	0.9481	0.1
Mof_C 	C 	0.63854	0.42327	0.24047	0.122
Mof_C 	C 	0.9899	0.7749	0.6634	0.438
Mof_C 	C 	0.9192	0.9877	0.7287	0.234
Mof_C 	C 	0.0123	0.7713	0.5808	0.234
Mof_C 	C 	0.5123	0.9315	0.241	0.234
Mof_C 	C 	0.1541	0.8064	0.6809	0.409
Mof_C 	C 	0.2577	0.4256	0.5081	-0.267
Mof_C 	C 	0.0484	0.8629	0.6617	0.362
Mof_C 	C 	0.6977	0.3305	0.3788	-0.46
Mof_C 	C 	0.8	0.1715	0.4481	0.1
Mof_C 	C 	0.2232	0.8326	0.254	-0.295
Mof_C 	C 	0.2481	0.8437	0.2638	0.204
Mof_C 	C 	0.3403	0.688	0.8219	0.518
Mof_C 	C 	0.1809	0.0268	0.3745	0.409
Mof_C 	C 	0.715	0.2251	0.8885	0.438
Mof_C 	C 	0.3025	0.6659	0.661	0.392
Mof_C 	C 	0.3508	0.3234	0.0988	0.156
Mof_C 	C 	0.7991	0.0808	0.5829	-0.275
Mof_C 	C 	0.8508	0.752	0.0274	0.156
Mof_C 	C 	0.6133	0.6617	0.7988	0.362
Mof_C 	C 	0.8953	0.1887	0.421	0.203
Mof_C 	C 	0.5101	0.3366	0.2251	0.438
Mof_C 	C 	0.8064	0.6255	0.6523	0.409
Mof_C 	C 	0.312	0.6781	0.1597	0.518
Mof_C 	C 	0.6775	0.2796	0.0499	-0.225
Mof_C 	C 	0.2325	0.4464	0.0769	0.48
Mof_C 	C 	0.74047	0.63854	0.92327	0.122
Mof_C 	C 	0.8234	0.8508	0.5988	0.156
Mof_C 	C 	0.8225	0.9501	0.7204	-0.225
Mof_C 	C 	0.6186	0.3501	0.8387	-0.247
Mof_C 	C 	0.91873	0.1172	0.74177	-0.069
Mof_C 	C 	0.3189	0.6212	0.9517	-0.46
Mof_C 	C 	0.6634	0.3885	0.1735	0.438
Mof_C 	C 	0.4743	0.579	0.7677	0.203
Mof_C 	C 	0.1371	0.8383	0.4516	0.362
Mof_C 	C 	0.0838	0.8066	0.2008	0.112
Mof_C 	C 	0.3953	0.9743	0.7066	0.203
Mof_C 	C 	0.1617	0.0484	0.3629	0.362
Mof_C 	C 	0.8219	0.188	0.3403	0.518
Mof_C 	C 	0.9231	0.8695	0.6556	0.48
Mof_C 	C 	0.8885	0.1634	0.6735	0.438
Mof_C 	C 	0.09463	0.22032	0.40011	0.16
Mof_C 	C 	0.0049	0.1503	0.8438	-0.445
Mof_C 	C 	0.4951	0.1562	0.8497	-0.445
Mof_C 	C 	0.3713	0.3532	0.1421	0.176
Mof_C 	C 	0.8477	0.1597	0.4816	0.518
Mof_C 	C 	0.2246	0.4012	0.252	0.156
Mof_C 	C 	0.3366	0.7251	0.0101	0.438
Mof_C 	C 	0.8305	0.1977	0.8788	-0.46
Mof_C 	C 	0.1735	0.285	0.0101	0.438
Mof_C 	C 	0.32021	0.69452	0.09989	0.16
Mof_C 	C 	0.7183	0.5021	0.9192	-0.275
Mof_C 	C 	0.8546	0.1474	0.607	-0.234
Mof_C 	C 	0.0021	0.2183	0.4192	-0.275
Mof_N 	N 	0.4112	0.6912	0.7718	-0.282
Mof_N 	N 	0.112	0.2073	0.3117	-0.275
Mof_N 	N 	0.0725	0.2187	0.3934	-0.34
Mof_N 	N 	0.8765	0.1419	0.8116	-0.226
Mof_N 	N 	0.4421	0.7629	0.1584	-0.322
Mof_N 	N 	0.388	0.6883	0.7927	-0.275
Mof_N 	N 	0.0711	0.2034	0.9097	-0.124
Mof_N 	N 	0.6066	0.2813	0.9275	-0.34
Mof_N 	N 	0.8208	0.7629	0.6045	-0.322
Mof_N 	N 	0.3581	0.6235	0.6884	-0.226
Mof_N 	N 	0.7837	0.1792	0.4421	-0.322
Mof_N 	N 	0.7468	0.5462	0.4642	-0.104
Mof_N 	N 	0.3116	0.8765	0.6419	-0.226
Mof_N 	N 	0.0953	0.1997	0.388	-0.275
Mof_N 	N 	0.2062	0.3668	0.2844	-0.062
Mof_N 	N 	0.2006	0.2826	0.2468	-0.104
Mof_N 	N 	0.1462	0.3209	0.4275	-0.34
Mof_N 	N 	0.7938	0.1606	0.5782	-0.062
Mof_N 	N 	0.8386	0.9097	0.7063	-0.124
Mof_N 	N 	0.7006	0.4538	0.918	-0.104
Mof_N 	N 	0.9421	0.7837	0.6792	-0.322
Mof_N 	N 	0.8934	0.8209	0.6747	-0.34
Mof_N 	N 	0.9275	0.1462	0.8209	-0.34
Mof_N 	N 	0.0806	0.8088	0.22	-0.282
Mof_N 	N 	0.4218	0.3394	0.2062	-0.062
Mof_N 	N 	0.7654	0.1419	0.3303	-0.226
Mof_N 	N 	0.4642	0.418	0.2174	-0.104
Mof_N 	N 	0.1883	0.3003	0.3956	-0.275
Mof_N 	N 	0.3209	0.9275	0.6462	-0.34
Mof_N 	N 	0.6697	0.3116	0.9351	-0.226
Mof_N 	N 	0.8956	0.1883	0.8003	-0.275
Mof_N 	N 	0.2073	0.8117	0.612	-0.275
Mof_N 	N 	0.4097	0.3386	0.2063	-0.124
Mof_N 	N 	0.72	0.6394	0.9112	-0.282
Mof_N 	N 	0.8003	0.112	0.4047	-0.275
Mof_N 	N 	0.6044	0.1997	0.8117	-0.275
Mof_N 	N 	0.2718	0.4112	0.1912	-0.282
Mof_N 	N 	0.2938	0.7156	0.6332	-0.062
Mof_N 	N 	0.8394	0.9176	0.6332	-0.062
Mof_N 	N 	0.5782	0.9176	0.2844	-0.062
Mof_N 	N 	0.3003	0.8956	0.6883	-0.275
Mof_N 	N 	0.2034	0.7937	0.1323	-0.124
Mof_N 	N 	0.1697	0.9351	0.3116	-0.226
Mof_N 	N 	0.6332	0.4176	0.8394	-0.062
Mof_N 	N 	0.8116	0.1697	0.4351	-0.226
Mof_N 	N 	0.1584	0.8955	0.2163	-0.322
Mof_N 	N 	0.9218	0.7156	0.0824	-0.062
Mof_N 	N 	0.1747	0.8934	0.3209	-0.34
Mof_N 	N 	0.2837	0.8416	0.6045	-0.322
Mof_N 	N 	0.5888	0.28	0.8606	-0.282
Mof_N 	N 	0.5649	0.2346	0.8765	-0.226
Mof_N 	N 	0.7532	0.2174	0.7994	-0.104
Mof_N 	N 	0.7174	0.4642	0.918	-0.104
Mof_N 	N 	0.1419	0.8303	0.2654	-0.226
Mof_N 	N 	0.5711	0.6614	0.8677	-0.124
Mof_N 	N 	0.112	0.9047	0.3003	-0.275
Mof_N 	N 	0.1419	0.3116	0.3765	-0.226
Mof_N 	N 	0.2718	0.8606	0.5806	-0.282
Mof_N 	N 	0.9351	0.8116	0.6697	-0.226
Mof_N 	N 	0.3956	0.5953	0.7073	-0.275
Mof_N 	N 	0.2034	0.4097	0.5711	-0.124
Mof_N 	N 	0.6584	0.2163	0.8955	-0.322
Mof_N 	N 	0.082	0.0358	0.2826	-0.104
Mof_N 	N 	0.2006	0.918	0.4538	-0.104
Mof_N 	N 	0.7073	0.0953	0.3956	-0.275
Mof_N 	N 	0.1066	0.9275	0.2813	-0.34
Mof_N 	N 	0.78	0.0888	0.3606	-0.282
Mof_N 	N 	0.8117	0.112	0.7073	-0.275
Mof_N 	N 	0.7826	0.7006	0.7468	-0.104
Mof_N 	N 	0.5903	0.6614	0.7937	-0.124
Mof_N 	N 	0.2063	0.8386	0.4097	-0.124
Mof_N 	N 	0.7844	0.2062	0.8668	-0.062
Mof_N 	N 	0.7187	0.1462	0.3253	-0.34
Mof_N 	N 	0.4351	0.6697	0.8116	-0.226
Mof_N 	N 	0.2532	0.7994	0.2174	-0.104
Mof_N 	N 	0.3668	0.5824	0.1606	-0.062
Mof_N 	N 	0.9194	0.7282	0.6394	-0.282
Mof_N 	N 	0.6066	0.3253	0.1791	-0.34
Mof_N 	N 	0.8538	0.6791	0.5725	-0.34
Mof_N 	N 	0.5579	0.3208	0.2163	-0.322
Mof_N 	N 	0.9112	0.7718	0.6912	-0.282
Mof_N 	N 	0.8386	0.9289	0.6323	-0.124
Mof_N 	N 	0.7006	0.2468	0.2826	-0.104
Mof_N 	N 	0.8303	0.0649	0.6884	-0.226
Mof_N 	N 	0.8088	0.72	0.5806	-0.282
Mof_N 	N 	0.1997	0.888	0.5953	-0.275
Mof_N 	N 	0.418	0.7174	0.9642	-0.104
Mof_N 	N 	0.6323	0.2034	0.2937	-0.124
Mof_N 	N 	0.8416	0.7371	0.5579	-0.322
Mof_N 	N 	0.7937	0.1614	0.5903	-0.124
Mof_N 	N 	0.1044	0.2927	0.4047	-0.275
Mof_N 	N 	0.3208	0.6045	0.7629	-0.322
Mof_N 	N 	0.1884	0.3581	0.1235	-0.226
Mof_N 	N 	0.7826	0.082	0.5358	-0.104
Mof_N 	N 	0.78	0.6912	0.9194	-0.282
Mof_N 	N 	0.6884	0.5649	0.8303	-0.226
Mof_N 	N 	0.5806	0.3606	0.2718	-0.282
Mof_N 	N 	0.5649	0.3303	0.1884	-0.226
Mof_N 	N 	0.8581	0.1697	0.7346	-0.226
Mof_N 	N 	0.418	0.7006	0.9538	-0.104
Mof_N 	N 	0.1332	0.2938	0.2156	-0.062
Mof_N 	N 	0.6462	0.4275	0.3209	-0.34
Mof_N 	N 	0.2844	0.8668	0.2062	-0.062
Mof_N 	N 	0.6792	0.3955	0.2371	-0.322
Mof_N 	N 	0.612	0.3117	0.2073	-0.275
Mof_N 	N 	0.7966	0.5903	0.4289	-0.124
Mof_N 	N 	0.6697	0.3581	0.2346	-0.226
Mof_N 	N 	0.4275	0.6066	0.7813	-0.34
Mof_N 	N 	0.2073	0.3956	0.0953	-0.275
Mof_N 	N 	0.2282	0.4194	0.1394	-0.282
Mof_N 	N 	0.1747	0.2813	0.3538	-0.34
Mof_N 	N 	0.2966	0.8677	0.2063	-0.124
Mof_N 	N 	0.5888	0.3088	0.2282	-0.282
Mof_N 	N 	0.8765	0.7346	0.5649	-0.226
Mof_N 	N 	0.0824	0.2156	0.9218	-0.062
Mof_N 	N 	0.5824	0.6606	0.8668	-0.062
Mof_N 	N 	0.9538	0.7532	0.0358	-0.104
Mof_N 	N 	0.2937	0.5903	0.1614	-0.124
Mof_N 	N 	0.082	0.0462	0.2994	-0.104
Mof_N 	N 	0.2994	0.7532	0.7174	-0.104
Mof_N 	N 	0.5725	0.3934	0.2187	-0.34
Mof_N 	N 	0.3116	0.4351	0.1697	-0.226
Mof_N 	N 	0.3677	0.5711	0.1614	-0.124
Mof_N 	N 	0.8088	0.0888	0.7282	-0.282
Mof_N 	N 	0.8668	0.7062	0.7844	-0.062
Mof_N 	N 	0.6912	0.4194	0.28	-0.282
Mof_N 	N 	0.4421	0.6792	0.7837	-0.322
Mof_N 	N 	0.6792	0.2837	0.9421	-0.322
Mof_N 	N 	0.22	0.9112	0.6394	-0.282
Mof_N 	N 	0.1614	0.0903	0.2937	-0.124
Mof_N 	N 	0.9097	0.7034	0.0711	-0.124
Mof_N 	N 	0.6884	0.1235	0.3581	-0.226
Mof_N 	N 	0.1792	0.9421	0.2837	-0.322
Mof_N 	N 	0.612	0.3003	0.9047	-0.275
Mof_N 	N 	0.7063	0.2966	0.3677	-0.124
Mof_N 	N 	0.0649	0.1884	0.3303	-0.226
Mof_N 	N 	0.2966	0.4289	0.5903	-0.124
Mof_N 	N 	0.9176	0.7844	0.0782	-0.062
Mof_N 	N 	0.7346	0.6697	0.8581	-0.226
Mof_N 	N 	0.7927	0.1883	0.388	-0.275
Mof_N 	N 	0.3538	0.5725	0.6791	-0.34
Mof_N 	N 	0.8955	0.7163	0.6584	-0.322
Mof_N 	N 	0.4047	0.612	0.8003	-0.275
Mof_N 	N 	0.8394	0.9218	0.7062	-0.062
Mof_N 	N 	0.3416	0.7837	0.1045	-0.322
Mof_N 	N 	0.0579	0.8416	0.2371	-0.322
Mof_N 	N 	0.2163	0.8208	0.5579	-0.322
Mof_N 	N 	0.0579	0.2163	0.3208	-0.322
Mof_N 	N 	0.7837	0.6045	0.8416	-0.322
Mof_N 	N 	0.28	0.9194	0.6912	-0.282
Mof_N 	N 	0.0888	0.8606	0.28	-0.282
Mof_N 	N 	0.2163	0.3955	0.1584	-0.322
Mof_N 	N 	0.4275	0.8209	0.1462	-0.34
Mof_N 	N 	0.4097	0.0711	0.7034	-0.124
Mof_N 	N 	0.2937	0.7034	0.6323	-0.124
Mof_N 	N 	0.1606	0.0824	0.3668	-0.062
Mof_N 	N 	0.7844	0.5782	0.4176	-0.062
Mof_N 	N 	0.2174	0.918	0.4642	-0.104
Mof_N 	N 	0.3253	0.6791	0.1066	-0.34
Mof_N 	N 	0.8934	0.0725	0.7187	-0.34
Mof_N 	N 	0.3303	0.6419	0.7654	-0.226
Mof_N 	N 	0.3394	0.7062	0.9218	-0.062
Mof_N 	N 	0.4538	0.418	0.2006	-0.104
Mof_N 	N 	0.0711	0.8677	0.6614	-0.124
Mof_N 	N 	0.2927	0.388	0.1883	-0.275
Mof_N 	N 	0.3765	0.8116	0.1419	-0.226
Mof_N 	N 	0.4218	0.0824	0.7156	-0.062
Mof_N 	N 	0.2346	0.3765	0.0649	-0.226
Mof_N 	N 	0.3606	0.5888	0.78	-0.282
Mof_N 	N 	0.0903	0.7937	0.6614	-0.124
Mof_N 	N 	0.2062	0.8394	0.4218	-0.062
Mof_N 	N 	0.8209	0.6462	0.9275	-0.34
Mof_N 	N 	0.5462	0.9642	0.2468	-0.104
Mof_N 	N 	0.3088	0.7282	0.0888	-0.282
Mof_N 	N 	0.5953	0.2073	0.8956	-0.275
Mof_N 	N 	0.4642	0.0462	0.7468	-0.104
Mof_N 	N 	0.9097	0.2063	0.3386	-0.124
Mof_N 	N 	0.6394	0.4112	0.22	-0.282
Mof_N 	N 	0.5711	0.9097	0.2034	-0.124
Mof_N 	N 	0.0782	0.2844	0.9176	-0.062
Mof_N 	N 	0.7174	0.2532	0.2994	-0.104
Mof_N 	N 	0.9176	0.1332	0.3394	-0.062
Mof_N 	N 	0.9642	0.2174	0.418	-0.104
Mof_N 	N 	0.7187	0.5725	0.8934	-0.34
Mof_N 	N 	0.8581	0.6884	0.6235	-0.226
Mof_N 	N 	0.7994	0.082	0.5462	-0.104
Mof_N 	N 	0.0725	0.8538	0.1791	-0.34
Mof_N 	N 	0.7163	0.1584	0.3955	-0.322
Mof_N 	N 	0.7813	0.6747	0.8538	-0.34
Mof_N 	N 	0.6883	0.3956	0.3003	-0.275
Mof_N 	N 	0.72	0.0806	0.3088	-0.282
Mof_N 	N 	0.3303	0.6884	0.0649	-0.226
Mof_N 	N 	0.0649	0.8765	0.2346	-0.226
Mof_N 	N 	0.8677	0.1614	0.5711	-0.124
Mof_N 	N 	0.5462	0.582	0.7994	-0.104
Mof_N 	N 	0.2826	0.5358	0.082	-0.104
Mof_N 	N 	0.7156	0.1332	0.7938	-0.062
Mof_N 	N 	0.7532	0.5358	0.4538	-0.104
Mof_N 	N 	0.2187	0.8934	0.5725	-0.34
Mof_N 	N 	0.5953	0.388	0.1997	-0.275
Mof_N 	N 	0.9642	0.7468	0.0462	-0.104
Mof_N 	N 	0.7629	0.1045	0.3208	-0.322
Mof_N 	N 	0.5806	0.22	0.8088	-0.282
Mof_N 	N 	0.1394	0.9194	0.2282	-0.282
Mof_N 	N 	0.7163	0.5579	0.8208	-0.322
Mof_N 	N 	0.3117	0.6044	0.6997	-0.275
Mof_N 	N 	0.2174	0.2994	0.2532	-0.104
Mof_N 	N 	0.1792	0.2371	0.3955	-0.322
Mof_N 	N 	0.2813	0.4275	0.1066	-0.34
Mof_N 	N 	0.918	0.9642	0.7174	-0.104
Mof_N 	N 	0.9112	0.1394	0.72	-0.282
Mof_N 	N 	0.7282	0.1394	0.4194	-0.282
Mof_N 	N 	0.8955	0.1792	0.7371	-0.322
Mof_N 	N 	0.3668	0.7844	0.7062	-0.062
Mof_N 	N 	0.6614	0.2937	0.0903	-0.124
Mof_N 	N 	0.6332	0.2156	0.2938	-0.062
Mof_N 	N 	0.6235	0.1884	0.8581	-0.226
Mof_N 	N 	0.8677	0.7063	0.7966	-0.124
Mof_N 	N 	0.2844	0.4176	0.5782	-0.062
Mof_N 	N 	0.3003	0.4047	0.112	-0.275
Mof_N 	N 	0.7282	0.5888	0.8088	-0.282
Mof_N 	N 	0.3253	0.6462	0.7187	-0.34
Mof_N 	N 	0.3934	0.6747	0.8209	-0.34
Mof_N 	N 	0.1883	0.888	0.2927	-0.275
Mof_N 	N 	0.7063	0.4097	0.8386	-0.124
Mof_N 	N 	0.3088	0.5806	0.72	-0.282
Mof_N 	N 	0.22	0.3088	0.0806	-0.282
Mof_N 	N 	0.6997	0.1044	0.3117	-0.275
Mof_N 	N 	0.7371	0.6792	0.8955	-0.322
Mof_N 	N 	0.6883	0.2927	0.888	-0.275
Mof_N 	N 	0.3581	0.7346	0.1697	-0.226
Mof_N 	N 	0.2654	0.9351	0.6235	-0.226
Mof_N 	N 	0.0462	0.7994	0.582	-0.104
Mof_N 	N 	0.3209	0.3934	0.1747	-0.34
Mof_N 	N 	0.6584	0.4421	0.2629	-0.322
Mof_N 	N 	0.5358	0.582	0.7826	-0.104
Mof_N 	N 	0.8538	0.1747	0.7813	-0.34
Mof_N 	N 	0.1997	0.3117	0.1044	-0.275
Mof_N 	N 	0.3765	0.5649	0.7346	-0.226
Mof_N 	N 	0.3956	0.8003	0.1883	-0.275
Mof_N 	N 	0.6419	0.3765	0.3116	-0.226
Mof_N 	N 	0.2629	0.9421	0.6584	-0.322
Mof_N 	N 	0.1044	0.8117	0.1997	-0.275
Mof_N 	N 	0.5358	0.9538	0.2532	-0.104
Mof_N 	N 	0.2371	0.8955	0.6792	-0.322
Mof_N 	N 	0.3386	0.7063	0.9097	-0.124
Mof_N 	N 	0.2837	0.4421	0.1792	-0.322
Mof_N 	N 	0.7073	0.612	0.8117	-0.275
Mof_N 	N 	0.6045	0.2629	0.8208	-0.322
Mof_N 	N 	0.8117	0.6997	0.6044	-0.275
Mof_N 	N 	0.8416	0.1045	0.7837	-0.322
Mof_N 	N 	0.2938	0.5782	0.1606	-0.062
Mof_N 	N 	0.5824	0.9218	0.2156	-0.062
Mof_N 	N 	0.0358	0.2532	0.9538	-0.104
Mof_N 	N 	0.8606	0.78	0.5888	-0.282
Mof_N 	N 	0.2156	0.7938	0.1332	-0.062
Mof_N 	N 	0.582	0.2826	0.0358	-0.104
Mof_N 	N 	0.6394	0.2282	0.9194	-0.282
Mof_N 	N 	0.8606	0.0806	0.7718	-0.282
Mof_N 	N 	0.7034	0.5711	0.4097	-0.124
Mof_N 	N 	0.1584	0.2629	0.4421	-0.322
Mof_N 	N 	0.5782	0.6606	0.7938	-0.062
Mof_N 	N 	0.2813	0.8538	0.6747	-0.34
Mof_N 	N 	0.4194	0.6394	0.7282	-0.282
Mof_N 	N 	0.3117	0.7073	0.112	-0.275
Mof_N 	N 	0.918	0.9538	0.7006	-0.104
Mof_N 	N 	0.3955	0.7371	0.1792	-0.322
Mof_N 	N 	0.8668	0.1606	0.5824	-0.062
Mof_N 	N 	0.1462	0.8253	0.2187	-0.34
Mof_N 	N 	0.3538	0.7813	0.1747	-0.34
Mof_N 	N 	0.2187	0.3253	0.1462	-0.34
Mof_N 	N 	0.1323	0.8386	0.4289	-0.124
Mof_N 	N 	0.1332	0.8394	0.4176	-0.062
Mof_N 	N 	0.388	0.6997	0.0953	-0.275
Mof_N 	N 	0.6912	0.2718	0.9112	-0.282
Mof_N 	N 	0.3416	0.5579	0.7371	-0.322
Mof_N 	N 	0.9194	0.1912	0.78	-0.282
Mof_N 	N 	0.3386	0.6323	0.9289	-0.124
Mof_N 	N 	0.9218	0.2062	0.3394	-0.062
Mof_N 	N 	0.4289	0.0903	0.7966	-0.124
Mof_N 	N 	0.9289	0.1323	0.3386	-0.124
Mof_N 	N 	0.2532	0.4538	0.5358	-0.104
Mof_N 	N 	0.9047	0.8003	0.612	-0.275
Mof_N 	N 	0.8116	0.6419	0.8765	-0.226
Mof_N 	N 	0.4351	0.7654	0.1235	-0.226
Mof_N 	N 	0.1235	0.8581	0.1884	-0.226
Mof_N 	N 	0.3208	0.7163	0.0579	-0.322
Mof_N 	N 	0.6614	0.3677	0.0711	-0.124
Mof_N 	N 	0.8956	0.7073	0.5953	-0.275
Mof_N 	N 	0.9289	0.7966	0.0903	-0.124
Mof_N 	N 	0.1394	0.22	0.4112	-0.282
Mof_N 	N 	0.582	0.2994	0.0462	-0.104
Mof_N 	N 	0.7156	0.5824	0.4218	-0.062
Mof_N 	N 	0.2468	0.4642	0.5462	-0.104
Mof_N 	N 	0.6045	0.3416	0.2837	-0.322
Mof_N 	N 	0.888	0.7927	0.6883	-0.275
Mof_N 	N 	0.1697	0.2346	0.3581	-0.226
Mof_N 	N 	0.7938	0.6332	0.7156	-0.062
Mof_N 	N 	0.4047	0.7927	0.1044	-0.275
Mof_N 	N 	0.4289	0.3386	0.1323	-0.124
Mof_N 	N 	0.1912	0.28	0.4194	-0.282
Mof_N 	N 	0.2826	0.7468	0.7006	-0.104
Mof_N 	N 	0.1791	0.3538	0.0725	-0.34
Mof_N 	N 	0.3934	0.7187	0.0725	-0.34
Mof_N 	N 	0.1606	0.0782	0.2938	-0.062
Mof_N 	N 	0.2156	0.4218	0.5824	-0.062
Mof_N 	N 	0.4194	0.78	0.1912	-0.282
Mof_N 	N 	0.1791	0.8253	0.6066	-0.34
Mof_N 	N 	0.1884	0.8303	0.5649	-0.226
Mof_N 	N 	0.2927	0.9047	0.6044	-0.275
Mof_N 	N 	0.2346	0.8581	0.6697	-0.226
Mof_N 	N 	0.6606	0.3668	0.0824	-0.062
Mof_N 	N 	0.7034	0.1323	0.7937	-0.124
Mof_N 	N 	0.7468	0.2006	0.7826	-0.104
Mof_N 	N 	0.6747	0.3538	0.2813	-0.34
Mof_N 	N 	0.6606	0.2938	0.0782	-0.062
Mof_N 	N 	0.2629	0.3208	0.1045	-0.322
Mof_N 	N 	0.1066	0.1791	0.3253	-0.34
Mof_N 	N 	0.7654	0.6235	0.9351	-0.226
Mof_N 	N 	0.0806	0.2718	0.3606	-0.282
Mof_N 	N 	0.1614	0.0711	0.3677	-0.124
Mof_N 	N 	0.9275	0.7813	0.6066	-0.34
Mof_N 	N 	0.3677	0.7966	0.7063	-0.124
Mof_N 	N 	0.7371	0.0579	0.3416	-0.322
Mof_N 	N 	0.8209	0.1747	0.3934	-0.34
Mof_N 	N 	0.7718	0.5806	0.8606	-0.282
Mof_N 	N 	0.5725	0.1791	0.8538	-0.34
Mof_N 	N 	0.888	0.0953	0.6997	-0.275
Mof_N 	N 	0.1912	0.9112	0.2718	-0.282
Mof_N 	N 	0.8303	0.7654	0.6419	-0.226
Mof_N 	N 	0.2654	0.3303	0.1419	-0.226
Mof_N 	N 	0.9047	0.1044	0.7927	-0.275
Mof_N 	N 	0.7966	0.2063	0.8677	-0.124
Mof_N 	N 	0.6323	0.4289	0.8386	-0.124
Mof_N 	N 	0.4538	0.0358	0.7532	-0.104
Mof_N 	N 	0.1323	0.2937	0.2034	-0.124
Mof_N 	N 	0.7937	0.6323	0.7034	-0.124
Mof_N 	N 	0.8253	0.1066	0.6791	-0.34
Mof_N 	N 	0.2468	0.7826	0.2006	-0.104
Mof_N 	N 	0.1045	0.8208	0.2629	-0.322
Mof_N 	N 	0.4176	0.3394	0.1332	-0.062
Mof_N 	N 	0.6462	0.2187	0.8253	-0.34
Mof_N 	N 	0.6747	0.3209	0.8934	-0.34
Mof_N 	N 	0.8003	0.6883	0.8956	-0.275
Mof_N 	N 	0.0888	0.2282	0.3088	-0.282
Mof_N 	N 	0.1045	0.2837	0.3416	-0.322
Mof_N 	N 	0.9421	0.1584	0.7629	-0.322
Mof_N 	N 	0.5579	0.2371	0.8416	-0.322
Mof_N 	N 	0.9538	0.2006	0.418	-0.104
Mof_N 	N 	0.3394	0.6332	0.9176	-0.062
Mof_N 	N 	0.8208	0.0579	0.7163	-0.322
Mof_N 	N 	0.7629	0.6584	0.9421	-0.322
Mof_N 	N 	0.6997	0.5953	0.888	-0.275
Mof_N 	N 	0.0824	0.8668	0.6606	-0.062
Mof_N 	N 	0.2371	0.3416	0.0579	-0.322
Mof_N 	N 	0.7718	0.1912	0.4112	-0.282
Mof_N 	N 	0.7813	0.1066	0.4275	-0.34
Mof_N 	N 	0.3955	0.6584	0.7163	-0.322
Mof_N 	N 	0.9351	0.1235	0.7654	-0.226
Mof_N 	N 	0.0462	0.2468	0.9642	-0.104
Mof_N 	N 	0.0782	0.7938	0.6606	-0.062
Mof_N 	N 	0.2063	0.3677	0.2966	-0.124
Mof_N 	N 	0.1235	0.2654	0.4351	-0.226
Mof_N 	N 	0.7994	0.7174	0.7532	-0.104
Mof_N 	N 	0.0903	0.2966	0.9289	-0.124
Mof_N 	N 	0.7927	0.6044	0.9047	-0.275
Mof_N 	N 	0.4112	0.72	0.1394	-0.282
Mof_N 	N 	0.3606	0.7718	0.0806	-0.282
Mof_N 	N 	0.0953	0.8956	0.2073	-0.275
Mof_N 	N 	0.6791	0.0725	0.3538	-0.34
Mof_N 	N 	0.4176	0.0782	0.7844	-0.062
Mof_N 	N 	0.2994	0.5462	0.082	-0.104
Mof_N 	N 	0.0358	0.7826	0.582	-0.104
Mof_N 	N 	0.6044	0.4047	0.2927	-0.275
Mof_N 	N 	0.8253	0.7187	0.6462	-0.34
Mof_N 	N 	0.6791	0.6066	0.8253	-0.34
Mof_N 	N 	0.7346	0.0649	0.3765	-0.226
Mof_N 	N 	0.5903	0.9289	0.2966	-0.124
Mof_N 	N 	0.2282	0.8088	0.5888	-0.282
Mof_N 	N 	0.6419	0.2654	0.8303	-0.226
Mof_N 	N 	0.7062	0.2844	0.3668	-0.062
Mof_N 	N 	0.28	0.3606	0.0888	-0.282
Mof_N 	N 	0.7062	0.4218	0.8394	-0.062
Mof_N 	N 	0.6235	0.4351	0.2654	-0.226
Mof_O 	O 	0.3544	0.9292	0.6918	-0.528
Mof_O 	O 	0.3247	0.3512	0.1283	-0.341
Mof_O 	O 	0.3082	0.5708	0.6456	-0.528
Mof_O 	O 	0.8149	0.1772	0.6965	-0.353
Mof_O 	O 	0.0748	0.1456	0.3374	-0.528
Mof_O 	O 	0.4829	0.8072	0.2169	-0.523
Mof_O 	O 	0.2229	0.3717	0.1964	-0.341
Mof_O 	O 	0.8374	0.7626	0.6918	-0.528
Mof_O 	O 	0.2771	0.4735	0.1488	-0.341
Mof_O 	O 	0.1184	0.3035	0.4807	-0.353
Mof_O 	O 	0.8228	0.0193	0.6377	-0.353
Mof_O 	O 	0.6757	0.266	0.9829	-0.523
Mof_O 	O 	0.7169	0.4829	0.3072	-0.523
Mof_O 	O 	0.9829	0.766	0.6757	-0.523
Mof_O 	O 	0.8072	0.0903	0.3243	-0.523
Mof_O 	O 	0.8728	0.1899	0.8321	-0.527
Mof_O 	O 	0.266	0.4829	0.1757	-0.523
Mof_O 	O 	0.734	0.2169	0.4097	-0.523
Mof_O 	O 	0.6283	0.3036	0.2771	-0.341
Mof_O 	O 	0.4097	0.6928	0.1757	-0.523
Mof_O 	O 	0.6679	0.5407	0.8578	-0.527
Mof_O 	O 	0.6965	0.6772	0.8149	-0.353
Mof_O 	O 	0.4292	0.8544	0.1918	-0.528
Mof_O 	O 	0.5171	0.3243	0.234	-0.523
Mof_O 	O 	0.8036	0.1283	0.7771	-0.341
Mof_O 	O 	0.6679	0.1272	0.3101	-0.527
Mof_O 	O 	0.3321	0.8728	0.6899	-0.527
Mof_O 	O 	0.1753	0.8717	0.6488	-0.341
Mof_O 	O 	0.8374	0.0748	0.6456	-0.528
Mof_O 	O 	0.766	0.1757	0.4829	-0.523
Mof_O 	O 	0.3228	0.6377	0.0193	-0.353
Mof_O 	O 	0.3082	0.7374	0.1626	-0.528
Mof_O 	O 	0.3072	0.3243	0.0903	-0.523
Mof_O 	O 	0.1899	0.8578	0.3171	-0.527
Mof_O 	O 	0.1456	0.3082	0.0708	-0.528
Mof_O 	O 	0.6918	0.4292	0.3544	-0.528
Mof_O 	O 	0.6361	0.2711	0.2118	-0.336
Mof_O 	O 	0.7118	0.0757	0.4407	-0.336
Mof_O 	O 	0.3171	0.3578	0.1899	-0.527
Mof_O 	O 	0.2882	0.9243	0.5593	-0.336
Mof_O 	O 	0.2831	0.766	0.0903	-0.523
Mof_O 	O 	0.1829	0.3728	0.0407	-0.527
Mof_O 	O 	0.0512	0.25	0.3012	-0.579
Mof_O 	O 	0.4243	0.6361	0.865	-0.336
Mof_O 	O 	0.1928	0.2831	0.0171	-0.523
Mof_O 	O 	0.6988	0.4488	0.25	-0.579
Mof_O 	O 	0.5407	0.3578	0.1679	-0.527
Mof_O 	O 	0.6753	0.0265	0.3036	-0.341
Mof_O 	O 	0.8243	0.8072	0.5903	-0.523
Mof_O 	O 	0.8639	0.0757	0.635	-0.336
Mof_O 	O 	0.3036	0.7771	0.1283	-0.341
Mof_O 	O 	0.9593	0.8321	0.6422	-0.527
Mof_O 	O 	0.4807	0.8035	0.1184	-0.353
Mof_O 	O 	0.8247	0.6964	0.9735	-0.341
Mof_O 	O 	0.1757	0.1928	0.4097	-0.523
Mof_O 	O 	0.5757	0.2118	0.9407	-0.336
Mof_O 	O 	0.2711	0.5593	0.635	-0.336
Mof_O 	O 	0.9735	0.1964	0.8247	-0.341
Mof_O 	O 	0.234	0.8243	0.5171	-0.523
Mof_O 	O 	0.3374	0.6918	0.7626	-0.528
Mof_O 	O 	0.6422	0.3101	0.1829	-0.527
Mof_O 	O 	0.1772	0.9807	0.3623	-0.353
Mof_O 	O 	0.7229	0.1964	0.3717	-0.341
Mof_O 	O 	0.3035	0.3228	0.1851	-0.353
Mof_O 	O 	0.3816	0.5193	0.6965	-0.353
Mof_O 	O 	0.7771	0.6283	0.8036	-0.341
Mof_O 	O 	0.4593	0.6422	0.8321	-0.527
Mof_O 	O 	0.3717	0.6753	0.1488	-0.341
Mof_O 	O 	0.7711	0.635	0.5593	-0.336
Mof_O 	O 	0.5757	0.3639	0.135	-0.336
Mof_O 	O 	0.0265	0.8036	0.1753	-0.341
Mof_O 	O 	0.3639	0.635	0.0757	-0.336
Mof_O 	O 	0.3012	0.75	0.0512	-0.579
Mof_O 	O 	0.0757	0.9407	0.2118	-0.336
Mof_O 	O 	0.4735	0.6488	0.7771	-0.341
Mof_O 	O 	0.9097	0.734	0.7169	-0.523
Mof_O 	O 	0.234	0.4097	0.2169	-0.523
Mof_O 	O 	0.7831	0.0903	0.766	-0.523
Mof_O 	O 	0.8036	0.6753	0.5265	-0.341
Mof_O 	O 	0.2118	0.7711	0.6361	-0.336
Mof_O 	O 	0.2882	0.3639	0.2289	-0.336
Mof_O 	O 	0.1772	0.1965	0.3149	-0.353
Mof_O 	O 	0.0748	0.9292	0.2374	-0.528
Mof_O 	O 	0.635	0.0593	0.2711	-0.336
Mof_O 	O 	0.5748	0.3374	0.1456	-0.528
Mof_O 	O 	0.9252	0.8544	0.6626	-0.528
Mof_O 	O 	0.5708	0.1456	0.8082	-0.528
Mof_O 	O 	0.8544	0.6918	0.9292	-0.528
Mof_O 	O 	0.8012	0.75	0.5512	-0.579
Mof_O 	O 	0.2626	0.9252	0.5708	-0.528
Mof_O 	O 	0.3717	0.6964	0.7229	-0.341
Mof_O 	O 	0.25	0.8012	0.5512	-0.579
Mof_O 	O 	0.5593	0.135	0.7711	-0.336
Mof_O 	O 	0.8728	0.6829	0.5407	-0.527
Mof_O 	O 	0.2118	0.4407	0.0757	-0.336
Mof_O 	O 	0.3247	0.9735	0.6964	-0.341
Mof_O 	O 	0.1679	0.8578	0.5407	-0.527
Mof_O 	O 	0.1679	0.3101	0.1272	-0.527
Mof_O 	O 	0.9488	0.1988	0.75	-0.579
Mof_O 	O 	0.7626	0.5708	0.9252	-0.528
Mof_O 	O 	0.734	0.5171	0.8243	-0.523
Mof_O 	O 	0.8321	0.6899	0.8728	-0.527
Mof_O 	O 	0.1272	0.8101	0.1679	-0.527
Mof_O 	O 	0.4292	0.5748	0.7374	-0.528
Mof_O 	O 	0.4829	0.6757	0.766	-0.523
Mof_O 	O 	0.0593	0.2882	0.4243	-0.336
Mof_O 	O 	0.1965	0.3816	0.0193	-0.353
Mof_O 	O 	0.1918	0.3544	0.4292	-0.528
Mof_O 	O 	0.3623	0.8816	0.6851	-0.353
Mof_O 	O 	0.9488	0.75	0.6988	-0.579
Mof_O 	O 	0.6272	0.4593	0.3171	-0.527
Mof_O 	O 	0.2626	0.3374	0.1918	-0.528
Mof_O 	O 	0.8623	0.6851	0.8816	-0.353
Mof_O 	O 	0.5265	0.1753	0.8036	-0.341
Mof_O 	O 	0.2289	0.365	0.4407	-0.336
Mof_O 	O 	0.6184	0.1377	0.8149	-0.353
Mof_O 	O 	0.1988	0.25	0.4488	-0.579
Mof_O 	O 	0.9735	0.7771	0.6488	-0.341
Mof_O 	O 	0.365	0.9407	0.7289	-0.336
Mof_O 	O 	0.9243	0.865	0.6361	-0.336
Mof_O 	O 	0.0757	0.135	0.3639	-0.336
Mof_O 	O 	0.3101	0.6272	0.6679	-0.527
Mof_O 	O 	0.9292	0.7374	0.5748	-0.528
Mof_O 	O 	0.3036	0.5265	0.6753	-0.341
Mof_O 	O 	0.9807	0.8623	0.6772	-0.353
Mof_O 	O 	0.6361	0.365	0.9243	-0.336
Mof_O 	O 	0.8321	0.1422	0.4593	-0.527
Mof_O 	O 	0.8816	0.1851	0.8623	-0.353
Mof_O 	O 	0.8578	0.8171	0.6899	-0.527
Mof_O 	O 	0.4407	0.5757	0.7118	-0.336
Mof_O 	O 	0.6928	0.6757	0.9097	-0.523
Mof_O 	O 	0.8101	0.1422	0.6829	-0.527
Mof_O 	O 	0.5708	0.4252	0.2626	-0.528
Mof_O 	O 	0.6456	0.0708	0.3082	-0.528
Mof_O 	O 	0.6928	0.0171	0.2831	-0.523
Mof_O 	O 	0.9807	0.1184	0.8035	-0.353
Mof_O 	O 	0.8228	0.8035	0.6851	-0.353
Mof_O 	O 	0.6757	0.4097	0.1928	-0.523
Mof_O 	O 	0.75	0.0512	0.3012	-0.579
Mof_O 	O 	0.3149	0.6184	0.6377	-0.353
Mof_O 	O 	0.5748	0.2374	0.9292	-0.528
Mof_O 	O 	0.7882	0.2289	0.3639	-0.336
Mof_O 	O 	0.3072	0.9829	0.7169	-0.523
Mof_O 	O 	0.1753	0.3036	0.0265	-0.341
Mof_O 	O 	0.0512	0.8012	0.25	-0.579
Mof_O 	O 	0.1488	0.9735	0.2771	-0.341
Mof_O 	O 	0.1829	0.8101	0.6422	-0.527
Mof_O 	O 	0.3149	0.6965	0.1772	-0.353
Mof_O 	O 	0.1757	0.9829	0.266	-0.523
Mof_O 	O 	0.6488	0.2771	0.9735	-0.341
Mof_O 	O 	0.8717	0.1488	0.6753	-0.341
Mof_O 	O 	0.2169	0.3072	0.4829	-0.523
Mof_O 	O 	0.4252	0.6626	0.8544	-0.528
Mof_O 	O 	0.8035	0.6184	0.9807	-0.353
Mof_O 	O 	0.3544	0.4252	0.1626	-0.528
Mof_O 	O 	0.1851	0.8228	0.3035	-0.353
Mof_O 	O 	0.1184	0.8149	0.1377	-0.353
Mof_O 	O 	0.6964	0.2229	0.8717	-0.341
Mof_O 	O 	0.9292	0.1918	0.8544	-0.528
Mof_O 	O 	0.6899	0.3171	0.8578	-0.527
Mof_O 	O 	0.2229	0.8512	0.5265	-0.341
Mof_O 	O 	0.3101	0.6829	0.1422	-0.527
Mof_O 	O 	0.6829	0.0407	0.3728	-0.527
Mof_O 	O 	0.6964	0.4735	0.3247	-0.341
Mof_O 	O 	0.6899	0.3728	0.3321	-0.527
Mof_O 	O 	0.4735	0.8247	0.1964	-0.341
Mof_O 	O 	0.7626	0.1918	0.3374	-0.528
Mof_O 	O 	0.8171	0.6272	0.9593	-0.527
Mof_O 	O 	0.7374	0.6626	0.8082	-0.528
Mof_O 	O 	0.5903	0.3072	0.8243	-0.523
Mof_O 	O 	0.5265	0.3512	0.2229	-0.341
Mof_O 	O 	0.6626	0.3544	0.9252	-0.528
Mof_O 	O 	0.6272	0.1679	0.8101	-0.527
Mof_O 	O 	0.8171	0.1899	0.3578	-0.527
Mof_O 	O 	0.6488	0.3717	0.1753	-0.341
Mof_O 	O 	0.4488	0.75	0.1988	-0.579
Mof_O 	O 	0.0903	0.266	0.2831	-0.523
Mof_O 	O 	0.0407	0.1679	0.3578	-0.527
Mof_O 	O 	0.8639	0.7882	0.7289	-0.336
Mof_O 	O 	0.8082	0.1626	0.7374	-0.528
Mof_O 	O 	0.4593	0.8171	0.1272	-0.527
Mof_O 	O 	0.0171	0.234	0.3243	-0.523
Mof_O 	O 	0.1626	0.9252	0.3544	-0.528
Mof_O 	O 	0.0708	0.8082	0.1456	-0.528
Mof_O 	O 	0.6184	0.4807	0.3035	-0.353
Mof_O 	O 	0.0171	0.7831	0.1928	-0.523
Mof_O 	O 	0.6772	0.3149	0.1965	-0.353
Mof_O 	O 	0.9829	0.2169	0.8072	-0.523
Mof_O 	O 	0.1964	0.3247	0.4735	-0.341
Mof_O 	O 	0.5512	0.3012	0.25	-0.579
Mof_O 	O 	0.3728	0.5407	0.6829	-0.527
Mof_O 	O 	0.8578	0.0407	0.6679	-0.527
Mof_O 	O 	0.6829	0.6422	0.8101	-0.527
Mof_O 	O 	0.8243	0.0171	0.734	-0.523
Mof_O 	O 	0.8512	0.0265	0.7229	-0.341
Mof_O 	O 	0.8717	0.7229	0.6964	-0.341
Mof_O 	O 	0.5193	0.3228	0.1377	-0.353
Mof_O 	O 	0.635	0.5757	0.8639	-0.336
Mof_O 	O 	0.1377	0.3149	0.1184	-0.353
Mof_O 	O 	0.7118	0.6361	0.7711	-0.336
Mof_O 	O 	0.6918	0.2626	0.8374	-0.528
Mof_O 	O 	0.2771	0.8036	0.6283	-0.341
Mof_O 	O 	0.135	0.8639	0.5757	-0.336
Mof_O 	O 	0.0903	0.8243	0.3072	-0.523
Mof_O 	O 	0.0193	0.1377	0.3228	-0.353
Mof_O 	O 	0.5193	0.1965	0.8816	-0.353
Mof_O 	O 	0.25	0.3012	0.0512	-0.579
Mof_O 	O 	0.2169	0.9097	0.234	-0.523
Mof_O 	O 	0.3639	0.7289	0.7882	-0.336
Mof_O 	O 	0.7289	0.2882	0.8639	-0.336
Mof_O 	O 	0.8247	0.1283	0.3512	-0.341
Mof_O 	O 	0.3512	0.7229	0.0265	-0.341
Mof_O 	O 	0.1964	0.8717	0.2229	-0.341
Mof_O 	O 	0.3728	0.8321	0.1899	-0.527
Mof_O 	O 	0.5593	0.4243	0.2882	-0.336
Mof_O 	O 	0.7771	0.1488	0.4735	-0.341
Mof_O 	O 	0.1928	0.9097	0.6757	-0.523
Mof_O 	O 	0.1488	0.1753	0.3717	-0.341
Mof_O 	O 	0.9407	0.2289	0.865	-0.336
Mof_O 	O 	0.8623	0.1772	0.4807	-0.353
Mof_O 	O 	0.3512	0.6283	0.8247	-0.341
Mof_O 	O 	0.6988	0.25	0.9488	-0.579
Mof_O 	O 	0.8072	0.7169	0.9829	-0.523
Mof_O 	O 	0.1422	0.9593	0.3321	-0.527
Mof_O 	O 	0.3374	0.6456	0.0748	-0.528
Mof_O 	O 	0.7229	0.5265	0.8512	-0.341
Mof_O 	O 	0.1283	0.2771	0.3036	-0.341
Mof_O 	O 	0.9243	0.0593	0.7882	-0.336
Mof_O 	O 	0.75	0.6988	0.9488	-0.579
Mof_O 	O 	0.766	0.5903	0.7831	-0.523
Mof_O 	O 	0.9097	0.1757	0.6928	-0.523
Mof_O 	O 	0.6377	0.1184	0.3149	-0.353
Mof_O 	O 	0.3578	0.6679	0.0407	-0.527
Mof_O 	O 	0.3243	0.734	0.0171	-0.523
Mof_O 	O 	0.6626	0.3082	0.2374	-0.528
Mof_O 	O 	0.1361	0.9243	0.365	-0.336
Mof_O 	O 	0.9252	0.0708	0.7626	-0.528
Mof_O 	O 	0.6753	0.6488	0.8717	-0.341
Mof_O 	O 	0.3228	0.6851	0.8035	-0.353
Mof_O 	O 	0.7374	0.0748	0.4292	-0.528
Mof_O 	O 	0.4097	0.7169	0.734	-0.523
Mof_O 	O 	0.25	0.9488	0.6988	-0.579
Mof_O 	O 	0.1283	0.8512	0.3247	-0.341
Mof_O 	O 	0.9593	0.1272	0.8171	-0.527
Mof_O 	O 	0.1851	0.3623	0.3816	-0.353
Mof_O 	O 	0.7711	0.1361	0.7118	-0.336
Mof_O 	O 	0.6377	0.5193	0.8228	-0.353
Mof_O 	O 	0.0193	0.8816	0.1965	-0.353
Mof_O 	O 	0.2831	0.5171	0.6928	-0.523
Mof_O 	O 	0.1361	0.2118	0.2711	-0.336
Mof_O 	O 	0.4807	0.6772	0.8623	-0.353
Mof_O 	O 	0.6851	0.3816	0.3623	-0.353
Mof_O 	O 	0.5171	0.1928	0.7831	-0.523
Mof_O 	O 	0.2374	0.4292	0.0748	-0.528
Mof_O 	O 	0.6422	0.3321	0.9593	-0.527
Mof_O 	O 	0.6456	0.5748	0.8374	-0.528
Mof_O 	O 	0.6772	0.3623	0.9807	-0.353
Mof_O 	O 	0.3816	0.8623	0.1851	-0.353
Mof_O 	O 	0.1456	0.8374	0.5748	-0.528
Mof_O 	O 	0.7289	0.4407	0.365	-0.336
Mof_O 	O 	0.3035	0.9807	0.6184	-0.353
Mof_O 	O 	0.6851	0.3035	0.8228	-0.353
Mof_O 	O 	0.7831	0.6928	0.5171	-0.523
Mof_O 	O 	0.3012	0.5512	0.75	-0.579
Mof_O 	O 	0.1626	0.2374	0.3082	-0.528
Mof_O 	O 	0.1988	0.9488	0.25	-0.579
Mof_O 	O 	0.75	0.5512	0.8012	-0.579
Mof_O 	O 	0.4407	0.865	0.2289	-0.336
Mof_O 	O 	0.7882	0.5593	0.9243	-0.336
Mof_O 	O 	0.1918	0.8374	0.2626	-0.528
Mof_O 	O 	0.5512	0.25	0.8012	-0.579
Mof_O 	O 	0.3171	0.9593	0.6272	-0.527
Mof_O 	O 	0.2711	0.7118	0.1361	-0.336
Mof_O 	O 	0.0265	0.2229	0.3512	-0.341
Mof_O 	O 	0.1377	0.8228	0.5193	-0.353
Mof_O 	O 	0.6965	0.0193	0.3816	-0.353
Mof_O 	O 	0.6283	0.3247	0.8512	-0.341
Mof_O 	O 	0.7169	0.234	0.9097	-0.523
Mof_O 	O 	0.8544	0.1626	0.4252	-0.528
Mof_O 	O 	0.4243	0.7882	0.0593	-0.336
Mof_O 	O 	0.8101	0.6679	0.6272	-0.527
Mof_O 	O 	0.2289	0.8639	0.2882	-0.336
Mof_O 	O 	0.0593	0.7711	0.135	-0.336
Mof_O 	O 	0.8035	0.1851	0.3228	-0.353
Mof_O 	O 	0.5407	0.1829	0.8728	-0.527
Mof_O 	O 	0.3321	0.4593	0.1422	-0.527
Mof_O 	O 	0.4252	0.7626	0.0708	-0.528
Mof_O 	O 	0.75	0.1988	0.4488	-0.579
Mof_O 	O 	0.0708	0.2626	0.4252	-0.528
Mof_O 	O 	0.1899	0.3321	0.3728	-0.527
Mof_O 	O 	0.865	0.1361	0.4243	-0.336
Mof_O 	O 	0.3243	0.5903	0.8072	-0.523
Mof_O 	O 	0.3623	0.4807	0.1772	-0.353
Mof_O 	O 	0.9407	0.7118	0.5757	-0.336
Mof_O 	O 	0.8512	0.8247	0.6283	-0.341
Mof_O 	O 	0.8082	0.6456	0.5708	-0.528
Mof_O 	O 	0.4488	0.6988	0.75	-0.579
Mof_O 	O 	0.0407	0.8728	0.1829	-0.527
Mof_O 	O 	0.8816	0.6965	0.5193	-0.353
Mof_O 	O 	0.1965	0.8149	0.6772	-0.353
Mof_O 	O 	0.365	0.4243	0.1361	-0.336
Mof_O 	O 	0.266	0.7831	0.5903	-0.523
Mof_O 	O 	0.3578	0.6899	0.8171	-0.527
Mof_O 	O 	0.865	0.7289	0.9407	-0.336
Mof_O 	O 	0.8149	0.6377	0.6184	-0.353
Mof_O 	O 	0.2374	0.8082	0.6626	-0.528
Mof_O 	O 	0.8012	0.0512	0.75	-0.579
Mof_O 	O 	0.5903	0.2831	0.266	-0.523
Mof_O 	O 	0.1272	0.3171	0.4593	-0.527
Mof_O 	O 	0.25	0.4488	0.1988	-0.579
Mof_O 	O 	0.1422	0.1829	0.3101	-0.527
Mof_O 	O 	0.135	0.2711	0.0593	-0.336
_end
