data_functionalizedCrystal
_audit_creation_method	'EQeq! by Chris Wilmer'
_symmetry_space_group_name_H-M	'P1'
_symmetry_Int_Tables_number	1
_symmetry_cell_setting	triclinic
loop_
_symmetry_equiv_pos_as_xyz
  x,y,z
_cell_length_a	8.0659
_cell_length_b	21.2621
_cell_length_c	22.7182
_cell_angle_alpha	82.919
_cell_angle_beta	82.369
_cell_angle_gamma	80.025
loop_
_atom_site_label
_atom_site_type_symbol
_atom_site_fract_x
_atom_site_fract_y
_atom_site_fract_z
_atom_site_charge
Mof_Yb	Yb	0.80241	0.42291	0.28441	1.529
Mof_Yb	Yb	0.38714	0.47082	0.43305	1.858
Mof_Yb	Yb	0.46276	0.24693	0.0961	1.526
Mof_Yb	Yb	0.23953	0.09279	0.0371	1.722
Mof_Yb	Yb	0.19759	0.57709	0.71559	1.528
Mof_Yb	Yb	0.61286	0.52918	0.56695	1.857
Mof_Yb	Yb	0.53724	0.75307	0.90391	1.525
Mof_Yb	Yb	0.76047	0.90721	0.9629	1.721
Mof_H 	H 	0.5641	0.6442	0.2526	0.134
Mof_H 	H 	0.5389	0.7129	0.4388	0.055
Mof_H 	H 	0.4473	0.7846	0.3612	0.264
Mof_H 	H 	0.4024	0.7713	0.1251	0.182
Mof_H 	H 	0.9711	0.7472	0.1499	0.059
Mof_H 	H 	0.7686	0.7461	0.2321	0.187
Mof_H 	H 	0.3402	0.2821	0.4311	0.15
Mof_H 	H 	0.338	0.1853	0.2602	0.012
Mof_H 	H 	0.2356	0.1378	0.3515	0.257
Mof_H 	H 	0.9776	0.2704	0.4156	0.129
Mof_H 	H 	0.9794	0.3138	0.6104	0.065
Mof_H 	H 	0.1336	0.219	0.5782	0.229
Mof_H 	H 	0.6467	0.089	0.2177	0.138
Mof_H 	H 	0.8474	0.8853	0.1628	0.041
Mof_H 	H 	0.8966	0.9113	0.2532	0.252
Mof_H 	H 	0.0386	0.0715	0.2162	0.149
Mof_H 	H 	0.7754	0.2446	0.3158	0.015
Mof_H 	H 	0.7186	0.1432	0.3516	0.245
Mof_H 	H 	0.4359	0.3558	0.7474	0.134
Mof_H 	H 	0.4611	0.2871	0.5612	0.055
Mof_H 	H 	0.5527	0.2154	0.6388	0.264
Mof_H 	H 	0.5976	0.2287	0.8749	0.182
Mof_H 	H 	0.0289	0.2528	0.8501	0.059
Mof_H 	H 	0.2314	0.2539	0.7679	0.187
Mof_H 	H 	0.6598	0.7179	0.5689	0.15
Mof_H 	H 	0.662	0.8147	0.7398	0.012
Mof_H 	H 	0.7644	0.8622	0.6485	0.257
Mof_H 	H 	0.0224	0.7296	0.5844	0.129
Mof_H 	H 	0.0206	0.6862	0.3896	0.065
Mof_H 	H 	0.8664	0.781	0.4218	0.229
Mof_H 	H 	0.3533	0.911	0.7823	0.138
Mof_H 	H 	0.1526	0.1147	0.8372	0.041
Mof_H 	H 	0.1034	0.0887	0.7468	0.252
Mof_H 	H 	0.9614	0.9285	0.7838	0.149
Mof_H 	H 	0.2246	0.7554	0.6842	0.015
Mof_H 	H 	0.2814	0.8568	0.6484	0.245
Mof_C 	C 	0.4365	0.7672	0.2441	-0.489
Mof_C 	C 	0.4966	0.7226	0.2973	0.343
Mof_C 	C 	0.5533	0.6578	0.2905	-0.205
Mof_C 	C 	0.5944	0.6126	0.3383	0.052
Mof_C 	C 	0.5874	0.6334	0.3951	-0.157
Mof_C 	C 	0.5379	0.6985	0.4018	0.165
Mof_C 	C 	0.4876	0.742	0.3548	-0.253
Mof_C 	C 	0.6544	0.5445	0.3258	0.338
Mof_C 	C 	0.6203	0.5897	0.4494	0.424
Mof_C 	C 	0.5659	0.7608	0.1877	0.327
Mof_C 	C 	0.5163	0.7681	0.1301	-0.193
Mof_C 	C 	0.638	0.7705	0.08	0.038
Mof_C 	C 	0.8092	0.7663	0.0868	-0.144
Mof_C 	C 	0.8569	0.7543	0.1444	0.134
Mof_C 	C 	0.7345	0.7528	0.194	-0.254
Mof_C 	C 	0.5844	0.7746	0.0198	0.319
Mof_C 	C 	0.9431	0.7755	0.0354	0.393
Mof_C 	C 	0.2618	0.7525	0.2353	0.964
Mof_C 	C 	0.4174	0.8393	0.2551	0.963
Mof_C 	C 	0.1976	0.1801	0.4635	-0.471
Mof_C 	C 	0.2733	0.2055	0.4013	0.344
Mof_C 	C 	0.3371	0.263	0.3966	-0.207
Mof_C 	C 	0.3956	0.2922	0.3422	0.029
Mof_C 	C 	0.3927	0.2633	0.29	-0.146
Mof_C 	C 	0.3358	0.2054	0.2945	0.176
Mof_C 	C 	0.2753	0.1767	0.3493	-0.266
Mof_C 	C 	0.4684	0.3536	0.3415	0.427
Mof_C 	C 	0.4252	0.3008	0.2297	0.386
Mof_C 	C 	0.0819	0.2364	0.492	0.311
Mof_C 	C 	0.9811	0.2796	0.4544	-0.16
Mof_C 	C 	0.8865	0.3357	0.4736	0.001
Mof_C 	C 	0.8899	0.3502	0.5317	-0.077
Mof_C 	C 	0.9813	0.3056	0.571	0.115
Mof_C 	C 	0.0753	0.2487	0.5515	-0.206
Mof_C 	C 	0.7803	0.3789	0.4307	0.432
Mof_C 	C 	0.8165	0.4144	0.5498	0.306
Mof_C 	C 	0.35	0.1519	0.4995	0.96
Mof_C 	C 	0.0903	0.1269	0.4636	0.971
Mof_C 	C 	0.8254	0.0273	0.3009	-0.458
Mof_C 	C 	0.7846	0.0039	0.2436	0.327
Mof_C 	C 	0.6886	0.0482	0.2062	-0.178
Mof_C 	C 	0.6544	0.0326	0.1522	0.018
Mof_C 	C 	0.715	0.9717	0.1344	-0.082
Mof_C 	C 	0.8072	0.9265	0.1736	0.156
Mof_C 	C 	0.8386	0.9422	0.2274	-0.22
Mof_C 	C 	0.5656	0.0848	0.111	0.397
Mof_C 	C 	0.716	0.9538	0.0729	0.323
Mof_C 	C 	0.8645	0.0967	0.2856	0.329
Mof_C 	C 	0.9815	0.1066	0.2353	-0.187
Mof_C 	C 	0.0138	0.1672	0.2136	0.009
Mof_C 	C 	0.9275	0.2203	0.2432	-0.13
Mof_C 	C 	0.8244	0.2099	0.2947	0.159
Mof_C 	C 	0.7905	0.149	0.3165	-0.249
Mof_C 	C 	0.1468	0.1716	0.1603	0.441
Mof_C 	C 	0.9287	0.2898	0.2131	0.406
Mof_C 	C 	0.6698	0.0217	0.3479	0.973
Mof_C 	C 	0.9841	0.9857	0.3261	0.949
Mof_C 	C 	0.5635	0.2328	0.7559	-0.489
Mof_C 	C 	0.5034	0.2774	0.7027	0.343
Mof_C 	C 	0.4467	0.3422	0.7095	-0.205
Mof_C 	C 	0.4056	0.3874	0.6617	0.052
Mof_C 	C 	0.4126	0.3666	0.6049	-0.157
Mof_C 	C 	0.4621	0.3015	0.5982	0.165
Mof_C 	C 	0.5124	0.258	0.6452	-0.253
Mof_C 	C 	0.3456	0.4555	0.6742	0.338
Mof_C 	C 	0.3797	0.4103	0.5506	0.424
Mof_C 	C 	0.4341	0.2392	0.8123	0.327
Mof_C 	C 	0.4837	0.2319	0.8699	-0.193
Mof_C 	C 	0.362	0.2295	0.92	0.038
Mof_C 	C 	0.1908	0.2337	0.9132	-0.144
Mof_C 	C 	0.1431	0.2457	0.8556	0.134
Mof_C 	C 	0.2655	0.2472	0.806	-0.254
Mof_C 	C 	0.4156	0.2254	0.9802	0.319
Mof_C 	C 	0.0569	0.2245	0.9646	0.393
Mof_C 	C 	0.7382	0.2475	0.7647	0.964
Mof_C 	C 	0.5826	0.1607	0.7449	0.963
Mof_C 	C 	0.8024	0.8199	0.5365	-0.47
Mof_C 	C 	0.7267	0.7945	0.5987	0.344
Mof_C 	C 	0.6629	0.737	0.6034	-0.207
Mof_C 	C 	0.6044	0.7078	0.6578	0.029
Mof_C 	C 	0.6073	0.7367	0.71	-0.146
Mof_C 	C 	0.6642	0.7946	0.7055	0.176
Mof_C 	C 	0.7247	0.8233	0.6507	-0.266
Mof_C 	C 	0.5316	0.6464	0.6585	0.427
Mof_C 	C 	0.5748	0.6992	0.7703	0.386
Mof_C 	C 	0.9181	0.7636	0.508	0.311
Mof_C 	C 	0.0189	0.7204	0.5456	-0.159
Mof_C 	C 	0.1135	0.6643	0.5264	0.001
Mof_C 	C 	0.1101	0.6498	0.4683	-0.077
Mof_C 	C 	0.0187	0.6944	0.429	0.115
Mof_C 	C 	0.9247	0.7513	0.4485	-0.206
Mof_C 	C 	0.2197	0.6211	0.5693	0.432
Mof_C 	C 	0.1835	0.5856	0.4502	0.306
Mof_C 	C 	0.65	0.8481	0.5005	0.96
Mof_C 	C 	0.9097	0.8731	0.5364	0.971
Mof_C 	C 	0.1746	0.9727	0.6991	-0.458
Mof_C 	C 	0.2154	0.9961	0.7564	0.327
Mof_C 	C 	0.3114	0.9518	0.7938	-0.178
Mof_C 	C 	0.3456	0.9674	0.8478	0.018
Mof_C 	C 	0.285	0.0283	0.8656	-0.082
Mof_C 	C 	0.1928	0.0735	0.8264	0.156
Mof_C 	C 	0.1614	0.0578	0.7726	-0.22
Mof_C 	C 	0.4344	0.9152	0.889	0.397
Mof_C 	C 	0.284	0.0462	0.9271	0.323
Mof_C 	C 	0.1355	0.9033	0.7144	0.329
Mof_C 	C 	0.0185	0.8934	0.7647	-0.187
Mof_C 	C 	0.9862	0.8328	0.7864	0.009
Mof_C 	C 	0.0725	0.7797	0.7568	-0.13
Mof_C 	C 	0.1756	0.7901	0.7053	0.159
Mof_C 	C 	0.2095	0.851	0.6835	-0.249
Mof_C 	C 	0.8532	0.8284	0.8397	0.441
Mof_C 	C 	0.0713	0.7102	0.7869	0.406
Mof_C 	C 	0.3302	0.9783	0.6521	0.973
Mof_C 	C 	0.0159	0.0143	0.6739	0.949
Mof_O 	O 	0.7933	0.5317	0.294	-0.436
Mof_O 	O 	0.5681	0.5001	0.34366	-0.492
Mof_O 	O 	0.5623	0.5371	0.4578	-0.537
Mof_O 	O 	0.6925	0.607	0.48903	-0.426
Mof_O 	O 	0.6489	0.8093	0.97619	-0.509
Mof_O 	O 	0.479	0.7402	0.0102	-0.403
Mof_O 	O 	0.9421	0.8328	0.0109	-0.454
Mof_O 	O 	0.0521	0.729	0.0214	-0.275
Mof_O 	O 	0.6141	0.3551	0.31435	-0.458
Mof_O 	O 	0.3796	0.3972	0.37	-0.5
Mof_O 	O 	0.4986	0.2692	0.186	-0.461
Mof_O 	O 	0.3733	0.3602	0.2244	-0.318
Mof_O 	O 	0.8571	0.3928	0.37858	-0.464
Mof_O 	O 	0.6273	0.3974	0.44653	-0.455
Mof_O 	O 	0.7469	0.4225	0.60236	-0.376
Mof_O 	O 	0.8239	0.4616	0.51	-0.404
Mof_O 	O 	0.5574	0.1415	0.1218	-0.452
Mof_O 	O 	0.5069	0.0675	0.0667	-0.452
Mof_O 	O 	0.6102	0.9219	0.0591	-0.372
Mof_O 	O 	0.8361	0.9691	0.0341	-0.4
Mof_O 	O 	0.2381	0.2142	0.1569	-0.453
Mof_O 	O 	0.1618	0.1294	0.1248	-0.514
Mof_O 	O 	0.93	0.3317	0.2474	-0.476
Mof_O 	O 	0.9179	0.2987	0.1584	-0.319
Mof_O 	O 	0.2067	0.4683	0.706	-0.436
Mof_O 	O 	0.4319	0.4999	0.65634	-0.492
Mof_O 	O 	0.4377	0.4629	0.5422	-0.537
Mof_O 	O 	0.3075	0.393	0.51097	-0.426
Mof_O 	O 	0.3511	0.1907	0.02381	-0.509
Mof_O 	O 	0.521	0.2598	0.9898	-0.403
Mof_O 	O 	0.0579	0.1672	0.9891	-0.454
Mof_O 	O 	0.9479	0.271	0.9786	-0.275
Mof_O 	O 	0.3859	0.6449	0.68565	-0.458
Mof_O 	O 	0.6204	0.6028	0.63	-0.5
Mof_O 	O 	0.5014	0.7308	0.814	-0.461
Mof_O 	O 	0.6267	0.6398	0.7756	-0.318
Mof_O 	O 	0.1429	0.6072	0.62142	-0.464
Mof_O 	O 	0.3727	0.6026	0.55347	-0.455
Mof_O 	O 	0.2531	0.5775	0.39764	-0.376
Mof_O 	O 	0.1761	0.5384	0.49	-0.404
Mof_O 	O 	0.4426	0.8585	0.8782	-0.452
Mof_O 	O 	0.4931	0.9325	0.9333	-0.452
Mof_O 	O 	0.3898	0.0781	0.9409	-0.372
Mof_O 	O 	0.1639	0.0309	0.9659	-0.4
Mof_O 	O 	0.7619	0.7858	0.8431	-0.453
Mof_O 	O 	0.8382	0.8706	0.8752	-0.514
Mof_O 	O 	0.07	0.6683	0.7526	-0.476
Mof_O 	O 	0.0821	0.7013	0.8416	-0.319
Mof_F 	F 	0.1608	0.7475	0.2866	-0.47
Mof_F 	F 	0.1763	0.7995	0.19884	-0.467
Mof_F 	F 	0.2726	0.6984	0.21037	-0.529
Mof_F 	F 	0.2863	0.8556	0.29677	-0.387
Mof_F 	F 	0.5558	0.8523	0.27387	-0.462
Mof_F 	F 	0.3871	0.8784	0.206	-0.459
Mof_F 	F 	0.4319	0.19697	0.51079	-0.488
Mof_F 	F 	0.4624	0.1099	0.469	-0.355
Mof_F 	F 	0.302	0.1203	0.55212	-0.359
Mof_F 	F 	0.0076	0.1133	0.51727	-0.357
Mof_F 	F 	0.1804	0.07242	0.44681	-0.349
Mof_F 	F 	0.9723	0.14577	0.42594	-0.456
Mof_F 	F 	0.6232	0.96409	0.35189	-0.361
Mof_F 	F 	0.5369	0.06429	0.33242	-0.467
Mof_F 	F 	0.6969	0.0318	0.40226	-0.344
Mof_F 	F 	0.9553	0.92628	0.34971	-0.361
Mof_F 	F 	0.1148	0.97814	0.28361	-0.434
Mof_F 	F 	0.0314	0.0125	0.3695	-0.359
Mof_F 	F 	0.8392	0.2525	0.7134	-0.47
Mof_F 	F 	0.8237	0.2005	0.80116	-0.467
Mof_F 	F 	0.7274	0.3016	0.78963	-0.529
Mof_F 	F 	0.7137	0.1444	0.70323	-0.387
Mof_F 	F 	0.4442	0.1477	0.72613	-0.462
Mof_F 	F 	0.6129	0.1216	0.794	-0.459
Mof_F 	F 	0.5681	0.80303	0.48921	-0.488
Mof_F 	F 	0.5376	0.8901	0.531	-0.355
Mof_F 	F 	0.698	0.8797	0.44788	-0.359
Mof_F 	F 	0.9924	0.8867	0.48273	-0.357
Mof_F 	F 	0.8196	0.92758	0.55319	-0.349
Mof_F 	F 	0.0277	0.85423	0.57406	-0.456
Mof_F 	F 	0.3768	0.03591	0.64811	-0.361
Mof_F 	F 	0.4631	0.93571	0.66758	-0.467
Mof_F 	F 	0.3031	0.9682	0.59774	-0.344
Mof_F 	F 	0.0447	0.07372	0.65029	-0.361
Mof_F 	F 	0.8852	0.02186	0.71639	-0.434
Mof_F 	F 	0.9686	0.9875	0.6305	-0.359
_end
