data_functionalizedCrystal
_audit_creation_method	'EQeq! by Chris Wilmer'
_symmetry_space_group_name_H-M	'P1'
_symmetry_Int_Tables_number	1
_symmetry_cell_setting	triclinic
loop_
_symmetry_equiv_pos_as_xyz
  x,y,z
_cell_length_a	16.808
_cell_length_b	12.964
_cell_length_c	14.513
_cell_angle_alpha	90
_cell_angle_beta	108.46
_cell_angle_gamma	90
loop_
_atom_site_label
_atom_site_type_symbol
_atom_site_fract_x
_atom_site_fract_y
_atom_site_fract_z
_atom_site_charge
Mof_Zn	Zn	0.31802	0.48702	0.81944	1.234
Mof_O 	O 	0.23154	0.5864	0.7554	-0.477
Mof_O 	O 	0.35698	0.3847	0.7464	-0.435
Mof_O 	O 	0.27256	0.41494	0.91379	-0.591
Mof_O 	O 	0.42369	0.5588	0.8837	-0.426
Mof_C 	C 	0.1563	0.5988	0.7501	0.391
Mof_Zn	Zn	0.15464	0.44689	0.90055	1.229
Mof_C 	C 	0.32246	0.366	0.9945	0.252
Mof_O 	O 	0.11563	0.5427	0.7886	-0.475
Mof_C 	C 	0.1127	0.6909	0.6928	-0.026
Mof_O 	O 	0.08846	0.3223	0.8594	-0.411
Mof_O 	O 	0.12231	0.5114	0.0038	-0.446
Mof_C 	C 	0.4078	0.3897	0.0329	-0.194
Mof_C 	C 	0.2889	0.2907	0.0418	-0.19
Mof_C 	C 	0.1556	0.7546	0.648	-0.037
Mof_C 	C 	0.0306	0.7136	0.6877	-0.131
Mof_C 	C 	0.4584	0.3421	0.1174	0.028
Mof_H 	H 	0.4316	0.4391	0.0011	0.108
Mof_C 	C 	0.3399	0.2419	0.1252	0.023
Mof_H 	H 	0.2312	0.2731	0.0167	0.095
Mof_C 	C 	0.1157	0.8427	0.5987	0.003
Mof_H 	H 	0.2114	0.7386	0.6507	0.083
Mof_C 	C 	0.99	0.8025	0.6406	0.229
Mof_H 	H 	0.0013	0.6678	0.7167	0.108
Mof_C 	C 	0.5484	0.3756	0.1637	0.306
Mof_C 	C 	0.4244	0.2683	0.1636	-0.071
Mof_C 	C 	0.3048	0.1619	0.1773	0.306
Mof_C 	C 	0.16	0.9067	0.5429	0.317
Mof_C 	C 	0.0343	0.8672	0.5963	-0.165
Mof_O 	O 	0.5899	0.3418	0.2434	-0.264
Mof_H 	H 	0.4586	0.2361	0.2213	0.091
Mof_O 	O 	0.2283	0.1448	0.1501	-0.283
Mof_O 	O 	0.2266	0.8788	0.534	-0.289
Mof_H 	H 	0.0085	0.9284	0.5645	0.1
Mof_Zn	Zn	0.68198	0.98702	0.68056	1.234
Mof_O 	O 	0.76846	0.0864	0.7446	-0.474
Mof_O 	O 	0.64302	0.8847	0.7536	-0.434
Mof_O 	O 	0.72744	0.91494	0.58621	-0.591
Mof_O 	O 	0.57631	0.0588	0.6163	-0.425
Mof_C 	C 	0.8437	0.0988	0.7499	0.392
Mof_Zn	Zn	0.84536	0.94689	0.59945	1.228
Mof_C 	C 	0.67754	0.866	0.5055	0.255
Mof_O 	O 	0.88437	0.0427	0.7114	-0.471
Mof_C 	C 	0.8873	0.1909	0.8072	-0.028
Mof_O 	O 	0.91154	0.8223	0.6406	-0.412
Mof_O 	O 	0.87769	0.0114	0.4962	-0.444
Mof_C 	C 	0.5922	0.8897	0.4671	-0.196
Mof_C 	C 	0.7111	0.7907	0.4582	-0.193
Mof_C 	C 	0.8444	0.2546	0.852	-0.034
Mof_C 	C 	0.9694	0.2136	0.8123	-0.123
Mof_C 	C 	0.5416	0.8421	0.3826	0.029
Mof_H 	H 	0.5684	0.9391	0.4989	0.109
Mof_C 	C 	0.6601	0.7419	0.3748	0.025
Mof_H 	H 	0.7688	0.7731	0.4833	0.096
Mof_C 	C 	0.8843	0.3427	0.9013	-0.001
Mof_H 	H 	0.7886	0.2386	0.8493	0.083
Mof_C 	C 	0.01	0.3025	0.8594	0.22
Mof_H 	H 	0.9987	0.1678	0.7833	0.108
Mof_C 	C 	0.4516	0.8756	0.3363	0.305
Mof_C 	C 	0.5756	0.7683	0.3364	-0.072
Mof_C 	C 	0.6952	0.6619	0.3227	0.305
Mof_C 	C 	0.84	0.4067	0.9571	0.318
Mof_C 	C 	0.9657	0.3672	0.9037	-0.158
Mof_O 	O 	0.4101	0.8418	0.2566	-0.263
Mof_H 	H 	0.5414	0.7361	0.2787	0.092
Mof_O 	O 	0.7717	0.6448	0.3499	-0.282
Mof_O 	O 	0.7734	0.3788	0.966	-0.29
Mof_H 	H 	0.9915	0.4284	0.9355	0.098
Mof_Zn	Zn	0.68198	0.51298	0.18056	1.235
Mof_O 	O 	0.76846	0.4136	0.2446	-0.476
Mof_O 	O 	0.64302	0.6153	0.2536	-0.434
Mof_O 	O 	0.72744	0.58506	0.08621	-0.59
Mof_O 	O 	0.57631	0.4412	0.1163	-0.426
Mof_C 	C 	0.8437	0.4012	0.2499	0.391
Mof_Zn	Zn	0.84536	0.55311	0.09945	1.229
Mof_C 	C 	0.67754	0.634	0.0055	0.252
Mof_O 	O 	0.88437	0.4573	0.2114	-0.475
Mof_C 	C 	0.8873	0.3091	0.3072	-0.026
Mof_O 	O 	0.91154	0.6777	0.1406	-0.411
Mof_O 	O 	0.87769	0.4886	0.9962	-0.446
Mof_C 	C 	0.5922	0.6103	0.9671	-0.194
Mof_C 	C 	0.7111	0.7093	0.9582	-0.19
Mof_C 	C 	0.8444	0.2454	0.352	-0.037
Mof_C 	C 	0.9694	0.2864	0.3123	-0.131
Mof_C 	C 	0.5416	0.6579	0.8826	0.028
Mof_H 	H 	0.5684	0.5609	0.9989	0.108
Mof_C 	C 	0.6601	0.7581	0.8748	0.023
Mof_H 	H 	0.7688	0.7269	0.9833	0.095
Mof_C 	C 	0.8843	0.1573	0.4013	0.003
Mof_H 	H 	0.7886	0.2614	0.3493	0.083
Mof_C 	C 	0.01	0.1975	0.3594	0.229
Mof_H 	H 	0.9987	0.3322	0.2833	0.108
Mof_C 	C 	0.4516	0.6244	0.8363	0.306
Mof_C 	C 	0.5756	0.7317	0.8364	-0.071
Mof_C 	C 	0.6952	0.8381	0.8227	0.306
Mof_C 	C 	0.84	0.0933	0.4571	0.317
Mof_C 	C 	0.9657	0.1328	0.4037	-0.165
Mof_O 	O 	0.4101	0.6582	0.7566	-0.264
Mof_H 	H 	0.5414	0.7639	0.7787	0.091
Mof_O 	O 	0.7717	0.8552	0.8499	-0.283
Mof_O 	O 	0.7734	0.1212	0.466	-0.289
Mof_H 	H 	0.9915	0.0716	0.4355	0.1
Mof_Zn	Zn	0.31802	0.01298	0.31944	1.234
Mof_O 	O 	0.23154	0.9136	0.2554	-0.474
Mof_O 	O 	0.35698	0.1153	0.2464	-0.434
Mof_O 	O 	0.27256	0.08506	0.41379	-0.591
Mof_O 	O 	0.42369	0.9412	0.3837	-0.425
Mof_C 	C 	0.1563	0.9012	0.2501	0.392
Mof_Zn	Zn	0.15464	0.05311	0.40055	1.228
Mof_C 	C 	0.32246	0.134	0.4945	0.255
Mof_O 	O 	0.11563	0.9573	0.2886	-0.471
Mof_C 	C 	0.1127	0.8091	0.1928	-0.028
Mof_O 	O 	0.08846	0.1777	0.3594	-0.412
Mof_O 	O 	0.12231	0.9886	0.5038	-0.444
Mof_C 	C 	0.4078	0.1103	0.5329	-0.196
Mof_C 	C 	0.2889	0.2093	0.5418	-0.193
Mof_C 	C 	0.1556	0.7454	0.148	-0.034
Mof_C 	C 	0.0306	0.7864	0.1877	-0.123
Mof_C 	C 	0.4584	0.1579	0.6174	0.029
Mof_H 	H 	0.4316	0.0609	0.5011	0.109
Mof_C 	C 	0.3399	0.2581	0.6252	0.025
Mof_H 	H 	0.2312	0.2269	0.5167	0.096
Mof_C 	C 	0.1157	0.6573	0.0987	-0.001
Mof_H 	H 	0.2114	0.7614	0.1507	0.083
Mof_C 	C 	0.99	0.6975	0.1406	0.22
Mof_H 	H 	0.0013	0.8322	0.2167	0.108
Mof_C 	C 	0.5484	0.1244	0.6637	0.305
Mof_C 	C 	0.4244	0.2317	0.6636	-0.072
Mof_C 	C 	0.3048	0.3381	0.6773	0.305
Mof_C 	C 	0.16	0.5933	0.0429	0.318
Mof_C 	C 	0.0343	0.6328	0.0963	-0.158
Mof_O 	O 	0.5899	0.1582	0.7434	-0.263
Mof_H 	H 	0.4586	0.2639	0.7213	0.092
Mof_O 	O 	0.2283	0.3552	0.6501	-0.282
Mof_O 	O 	0.2266	0.6212	0.034	-0.29
Mof_H 	H 	0.0085	0.5716	0.0645	0.098
_end
