data_functionalizedCrystal
_audit_creation_method	'EQeq! by Chris Wilmer'
_symmetry_space_group_name_H-M	'P1'
_symmetry_Int_Tables_number	1
_symmetry_cell_setting	triclinic
loop_
_symmetry_equiv_pos_as_xyz
  x,y,z
_cell_length_a	13.0769
_cell_length_b	26.5673
_cell_length_c	13.1579
_cell_angle_alpha	90
_cell_angle_beta	116.588
_cell_angle_gamma	90
loop_
_atom_site_label
_atom_site_type_symbol
_atom_site_fract_x
_atom_site_fract_y
_atom_site_fract_z
_atom_site_charge
Mof_Dy	Dy	0.18023	0.99455	0.08021	2.171
Mof_O 	O 	0.1165	0.9336	0.9349	-0.553
Mof_O 	O 	0.3093	0.9477	0.2198	-0.624
Mof_O 	O 	0.0667	0.0458	0.1265	-0.59
Mof_O 	O 	0.1094	0.0475	0.9297	-0.582
Mof_O 	O 	0.0749	0.9349	0.1263	-0.55
Mof_O 	O 	0.307	0.061	0.1673	-0.575
Mof_C 	C 	0.0124	0.9246	0.883	0.522
Mof_C 	C 	0.3779	0.9195	0.297	0.6
Mof_C 	C 	0.9801	0.8727	0.8288	-0.227
Mof_C 	C 	0.396	0.8673	0.2636	-0.284
Mof_O 	O 	0.4315	0.9315	0.3976	-0.58
Mof_C 	C 	0.8767	0.8514	0.8166	0.12
Mof_C 	C 	0.0541	0.8455	0.8013	0.167
Mof_C 	C 	0.4785	0.8361	0.3439	0.205
Mof_C 	C 	0.3316	0.8494	0.1529	0.158
Mof_Dy	Dy	0.54625	0.99302	0.49623	1.036
Mof_H 	H 	0.8271	0.8701	0.8348	-0.01
Mof_C 	C 	0.8494	0.8031	0.7776	-0.187
Mof_H 	H 	0.1226	0.8598	0.8103	-0.033
Mof_C 	C 	0.0262	0.7971	0.7604	-0.267
Mof_H 	H 	0.5224	0.8478	0.4174	-0.034
Mof_C 	C 	0.4951	0.7883	0.3149	-0.304
Mof_H 	H 	0.2776	0.8704	0.0989	-0.04
Mof_C 	C 	0.3462	0.8019	0.1225	-0.22
Mof_O 	O 	0.686	0.9265	0.499	-0.228
Mof_O 	O 	0.61	0.9679	0.349	-0.236
Mof_O 	O 	0.4266	0.0445	0.3472	-0.576
Mof_H 	H 	0.781	0.7889	0.7689	0.071
Mof_C 	C 	0.9244	0.7754	0.7511	0.079
Mof_C 	C 	0.0902	0.7606	0.7193	0.618
Mof_C 	C 	0.4292	0.7708	0.2041	0.088
Mof_C 	C 	0.5816	0.7485	0.388	0.691
Mof_H 	H 	0.302	0.7902	0.049	0.068
Mof_N 	N 	0.689	0.9368	0.406	0.065
Mof_C 	C 	0.9214	0.7227	0.7166	0.066
Mof_C 	C 	0.0905	0.7801	0.61	-1.109
Mof_C 	C 	0.2122	0.7513	0.8101	-1.188
Mof_C 	C 	0.0181	0.7132	0.6967	-0.265
Mof_C 	C 	0.4625	0.7192	0.1971	0.081
Mof_C 	C 	0.7042	0.7668	0.4298	-1.327
Mof_C 	C 	0.5595	0.733	0.4882	-1.213
Mof_C 	C 	0.5533	0.7055	0.3023	-0.298
Mof_O 	O 	0.737	0.9104	0.371	-0.152
Mof_C 	C 	0.8448	0.6839	0.7009	-0.179
Mof_H 	H 	0.1211	0.755	0.5794	0.354
Mof_H 	H 	0.0115	0.787	0.5574	0.346
Mof_H 	H 	0.1358	0.8099	0.6235	0.354
Mof_H 	H 	0.2464	0.7253	0.7854	0.384
Mof_H 	H 	0.2564	0.7814	0.8215	0.368
Mof_H 	H 	0.2121	0.7417	0.8796	0.377
Mof_C 	C 	0.0372	0.6661	0.6651	0.163
Mof_C 	C 	0.4222	0.6847	0.1064	-0.211
Mof_H 	H 	0.7157	0.778	0.367	0.428
Mof_H 	H 	0.7189	0.7937	0.4819	0.438
Mof_H 	H 	0.7566	0.7398	0.4668	0.418
Mof_H 	H 	0.6066	0.7047	0.5251	0.389
Mof_H 	H 	0.5795	0.7603	0.5402	0.394
Mof_H 	H 	0.4792	0.7248	0.4621	0.37
Mof_C 	C 	0.6021	0.6584	0.3172	0.193
Mof_H 	H 	0.7822	0.6895	0.7152	0.064
Mof_C 	C 	0.8605	0.6375	0.6644	0.113
Mof_H 	H 	0.102	0.6598	0.6551	-0.033
Mof_C 	C 	0.9582	0.6284	0.6486	-0.231
Mof_H 	H 	0.3645	0.6939	0.0358	0.071
Mof_C 	C 	0.4679	0.6381	0.1228	0.151
Mof_H 	H 	0.6619	0.6495	0.3867	-0.045
Mof_C 	C 	0.5614	0.6244	0.2275	-0.272
Mof_H 	H 	0.8067	0.6122	0.6503	-0.006
Mof_C 	C 	0.9768	0.5762	0.6145	0.521
Mof_H 	H 	0.4377	0.6146	0.0644	-0.032
Mof_C 	C 	0.6152	0.5734	0.242	0.559
Mof_Dy	Dy	0.81977	0.49455	0.41979	2.181
Mof_O 	O 	0.8835	0.4336	0.5651	-0.555
Mof_O 	O 	0.6907	0.4477	0.2802	-0.625
Mof_O 	O 	0.9333	0.5458	0.3735	-0.594
Mof_O 	O 	0.8906	0.5475	0.5703	-0.583
Mof_O 	O 	0.9251	0.4349	0.3737	-0.548
Mof_O 	O 	0.693	0.561	0.3327	-0.577
Mof_C 	C 	0.9876	0.4246	0.617	0.522
Mof_C 	C 	0.6221	0.4195	0.203	0.6
Mof_C 	C 	0.0199	0.3727	0.6712	-0.228
Mof_C 	C 	0.604	0.3673	0.2364	-0.283
Mof_O 	O 	0.5685	0.4315	0.1024	-0.579
Mof_C 	C 	0.1233	0.3514	0.6834	0.12
Mof_C 	C 	0.9459	0.3455	0.6987	0.167
Mof_C 	C 	0.5215	0.3361	0.1561	0.203
Mof_C 	C 	0.6684	0.3494	0.3471	0.157
Mof_Dy	Dy	0.45375	0.49302	0.00377	1.035
Mof_H 	H 	0.1729	0.3701	0.6652	-0.011
Mof_C 	C 	0.1506	0.3031	0.7224	-0.188
Mof_H 	H 	0.8774	0.3598	0.6897	-0.034
Mof_C 	C 	0.9738	0.2971	0.7396	-0.268
Mof_H 	H 	0.4776	0.3478	0.0826	-0.032
Mof_C 	C 	0.5049	0.2883	0.1851	-0.299
Mof_H 	H 	0.7224	0.3704	0.4011	-0.039
Mof_C 	C 	0.6538	0.3019	0.3775	-0.219
Mof_O 	O 	0.314	0.4265	0.001	-0.228
Mof_O 	O 	0.39	0.4679	0.151	-0.236
Mof_O 	O 	0.5734	0.5445	0.1528	-0.577
Mof_H 	H 	0.219	0.2889	0.7311	0.071
Mof_C 	C 	0.0756	0.2754	0.7489	0.08
Mof_C 	C 	0.9098	0.2606	0.7807	0.615
Mof_C 	C 	0.5708	0.2708	0.2959	0.087
Mof_C 	C 	0.4184	0.2485	0.112	0.68
Mof_H 	H 	0.698	0.2902	0.451	0.069
Mof_N 	N 	0.311	0.4368	0.094	0.065
Mof_C 	C 	0.0786	0.2227	0.7834	0.067
Mof_C 	C 	0.9095	0.2801	0.89	-1.105
Mof_C 	C 	0.7878	0.2513	0.6899	-1.183
Mof_C 	C 	0.9819	0.2132	0.8033	-0.265
Mof_C 	C 	0.5375	0.2192	0.3029	0.08
Mof_C 	C 	0.2958	0.2668	0.0702	-1.316
Mof_C 	C 	0.4405	0.233	0.0118	-1.183
Mof_C 	C 	0.4467	0.2055	0.1977	-0.293
Mof_O 	O 	0.263	0.4104	0.129	-0.152
Mof_C 	C 	0.1552	0.1839	0.7991	-0.178
Mof_H 	H 	0.8789	0.255	0.9206	0.353
Mof_H 	H 	0.9885	0.287	0.9426	0.345
Mof_H 	H 	0.8642	0.3099	0.8765	0.352
Mof_H 	H 	0.7536	0.2253	0.7146	0.382
Mof_H 	H 	0.7436	0.2814	0.6785	0.366
Mof_H 	H 	0.7879	0.2417	0.6204	0.375
Mof_C 	C 	0.9628	0.1661	0.8349	0.159
Mof_C 	C 	0.5778	0.1847	0.3936	-0.21
Mof_H 	H 	0.2843	0.278	0.133	0.425
Mof_H 	H 	0.2811	0.2937	0.0181	0.435
Mof_H 	H 	0.2434	0.2398	0.0332	0.416
Mof_H 	H 	0.3934	0.2047	0.9749	0.378
Mof_H 	H 	0.4205	0.2603	0.9598	0.383
Mof_H 	H 	0.5208	0.2248	0.0379	0.362
Mof_C 	C 	0.3979	0.1584	0.1828	0.19
Mof_H 	H 	0.2178	0.1895	0.7848	0.064
Mof_C 	C 	0.1395	0.1375	0.8356	0.112
Mof_H 	H 	0.898	0.1598	0.8449	-0.032
Mof_C 	C 	0.0418	0.1284	0.8514	-0.229
Mof_H 	H 	0.6355	0.1939	0.4642	0.071
Mof_C 	C 	0.5321	0.1381	0.3772	0.15
Mof_H 	H 	0.3381	0.1495	0.1133	-0.043
Mof_C 	C 	0.4386	0.1244	0.2725	-0.27
Mof_H 	H 	0.1933	0.1122	0.8497	-0.006
Mof_C 	C 	0.0232	0.0762	0.8855	0.523
Mof_H 	H 	0.5623	0.1146	0.4356	-0.031
Mof_C 	C 	0.3848	0.0734	0.258	0.558
Mof_Dy	Dy	0.81977	0.00545	0.91979	2.172
Mof_O 	O 	0.8835	0.0664	0.0651	-0.552
Mof_O 	O 	0.6907	0.0523	0.7802	-0.624
Mof_O 	O 	0.9333	0.9542	0.8735	-0.59
Mof_O 	O 	0.8906	0.9525	0.0703	-0.582
Mof_O 	O 	0.9251	0.0651	0.8737	-0.55
Mof_O 	O 	0.693	0.939	0.8327	-0.575
Mof_C 	C 	0.9876	0.0754	0.117	0.522
Mof_C 	C 	0.6221	0.0805	0.703	0.6
Mof_C 	C 	0.0199	0.1273	0.1712	-0.227
Mof_C 	C 	0.604	0.1327	0.7364	-0.284
Mof_O 	O 	0.5685	0.0685	0.6024	-0.58
Mof_C 	C 	0.1233	0.1486	0.1834	0.12
Mof_C 	C 	0.9459	0.1545	0.1987	0.167
Mof_C 	C 	0.5215	0.1639	0.6561	0.205
Mof_C 	C 	0.6684	0.1506	0.8471	0.158
Mof_Dy	Dy	0.45375	0.00698	0.50377	1.036
Mof_H 	H 	0.1729	0.1299	0.1652	-0.01
Mof_C 	C 	0.1506	0.1969	0.2224	-0.187
Mof_H 	H 	0.8774	0.1402	0.1897	-0.033
Mof_C 	C 	0.9738	0.2029	0.2396	-0.267
Mof_H 	H 	0.4776	0.1522	0.5826	-0.034
Mof_C 	C 	0.5049	0.2117	0.6851	-0.304
Mof_H 	H 	0.7224	0.1296	0.9011	-0.04
Mof_C 	C 	0.6538	0.1981	0.8775	-0.22
Mof_O 	O 	0.314	0.0735	0.501	-0.228
Mof_O 	O 	0.39	0.0321	0.651	-0.236
Mof_O 	O 	0.5734	0.9555	0.6528	-0.576
Mof_H 	H 	0.219	0.2111	0.2311	0.071
Mof_C 	C 	0.0756	0.2246	0.2489	0.079
Mof_C 	C 	0.9098	0.2394	0.2807	0.618
Mof_C 	C 	0.5708	0.2292	0.7959	0.088
Mof_C 	C 	0.4184	0.2515	0.612	0.691
Mof_H 	H 	0.698	0.2098	0.951	0.068
Mof_N 	N 	0.311	0.0632	0.594	0.065
Mof_C 	C 	0.0786	0.2773	0.2834	0.066
Mof_C 	C 	0.9095	0.2199	0.39	-1.109
Mof_C 	C 	0.7878	0.2487	0.1899	-1.188
Mof_C 	C 	0.9819	0.2868	0.3033	-0.265
Mof_C 	C 	0.5375	0.2808	0.8029	0.081
Mof_C 	C 	0.2958	0.2332	0.5702	-1.327
Mof_C 	C 	0.4405	0.267	0.5118	-1.213
Mof_C 	C 	0.4467	0.2945	0.6977	-0.298
Mof_O 	O 	0.263	0.0896	0.629	-0.152
Mof_C 	C 	0.1552	0.3161	0.2991	-0.179
Mof_H 	H 	0.8789	0.245	0.4206	0.354
Mof_H 	H 	0.9885	0.213	0.4426	0.346
Mof_H 	H 	0.8642	0.1901	0.3765	0.354
Mof_H 	H 	0.7536	0.2747	0.2146	0.384
Mof_H 	H 	0.7436	0.2186	0.1785	0.368
Mof_H 	H 	0.7879	0.2583	0.1204	0.377
Mof_C 	C 	0.9628	0.3339	0.3349	0.163
Mof_C 	C 	0.5778	0.3153	0.8936	-0.211
Mof_H 	H 	0.2843	0.222	0.633	0.428
Mof_H 	H 	0.2811	0.2063	0.5181	0.438
Mof_H 	H 	0.2434	0.2602	0.5332	0.418
Mof_H 	H 	0.3934	0.2953	0.4749	0.389
Mof_H 	H 	0.4205	0.2397	0.4598	0.394
Mof_H 	H 	0.5208	0.2752	0.5379	0.37
Mof_C 	C 	0.3979	0.3416	0.6828	0.193
Mof_H 	H 	0.2178	0.3105	0.2848	0.064
Mof_C 	C 	0.1395	0.3625	0.3356	0.113
Mof_H 	H 	0.898	0.3402	0.3449	-0.033
Mof_C 	C 	0.0418	0.3716	0.3514	-0.231
Mof_H 	H 	0.6355	0.3061	0.9642	0.071
Mof_C 	C 	0.5321	0.3619	0.8772	0.151
Mof_H 	H 	0.3381	0.3505	0.6133	-0.045
Mof_C 	C 	0.4386	0.3756	0.7725	-0.272
Mof_H 	H 	0.1933	0.3878	0.3497	-0.006
Mof_C 	C 	0.0232	0.4238	0.3855	0.521
Mof_H 	H 	0.5623	0.3854	0.9356	-0.032
Mof_C 	C 	0.3848	0.4266	0.758	0.559
Mof_Dy	Dy	0.18023	0.50545	0.58021	2.181
Mof_O 	O 	0.1165	0.5664	0.4349	-0.555
Mof_O 	O 	0.3093	0.5523	0.7198	-0.625
Mof_O 	O 	0.0667	0.4542	0.6265	-0.594
Mof_O 	O 	0.1094	0.4525	0.4297	-0.583
Mof_O 	O 	0.0749	0.5651	0.6263	-0.548
Mof_O 	O 	0.307	0.439	0.6673	-0.577
Mof_C 	C 	0.0124	0.5754	0.383	0.522
Mof_C 	C 	0.3779	0.5805	0.797	0.6
Mof_C 	C 	0.9801	0.6273	0.3288	-0.228
Mof_C 	C 	0.396	0.6327	0.7636	-0.283
Mof_O 	O 	0.4315	0.5685	0.8976	-0.579
Mof_C 	C 	0.8767	0.6486	0.3166	0.12
Mof_C 	C 	0.0541	0.6545	0.3013	0.167
Mof_C 	C 	0.4785	0.6639	0.8439	0.203
Mof_C 	C 	0.3316	0.6506	0.6529	0.157
Mof_Dy	Dy	0.54625	0.50698	0.99623	1.035
Mof_H 	H 	0.8271	0.6299	0.3348	-0.011
Mof_C 	C 	0.8494	0.6969	0.2776	-0.188
Mof_H 	H 	0.1226	0.6402	0.3103	-0.034
Mof_C 	C 	0.0262	0.7029	0.2604	-0.268
Mof_H 	H 	0.5224	0.6522	0.9174	-0.032
Mof_C 	C 	0.4951	0.7117	0.8149	-0.299
Mof_H 	H 	0.2776	0.6296	0.5989	-0.039
Mof_C 	C 	0.3462	0.6981	0.6225	-0.219
Mof_O 	O 	0.686	0.5735	0.999	-0.228
Mof_O 	O 	0.61	0.5321	0.849	-0.236
Mof_O 	O 	0.4266	0.4555	0.8472	-0.577
Mof_H 	H 	0.781	0.7111	0.2689	0.071
Mof_C 	C 	0.9244	0.7246	0.2511	0.08
Mof_C 	C 	0.0902	0.7394	0.2193	0.615
Mof_C 	C 	0.4292	0.7292	0.7041	0.087
Mof_C 	C 	0.5816	0.7515	0.888	0.68
Mof_H 	H 	0.302	0.7098	0.549	0.069
Mof_N 	N 	0.689	0.5632	0.906	0.065
Mof_C 	C 	0.9214	0.7773	0.2166	0.067
Mof_C 	C 	0.0905	0.7199	0.11	-1.105
Mof_C 	C 	0.2122	0.7487	0.3101	-1.183
Mof_C 	C 	0.0181	0.7868	0.1967	-0.265
Mof_C 	C 	0.4625	0.7808	0.6971	0.08
Mof_C 	C 	0.7042	0.7332	0.9298	-1.316
Mof_C 	C 	0.5595	0.767	0.9882	-1.183
Mof_C 	C 	0.5533	0.7945	0.8023	-0.293
Mof_O 	O 	0.737	0.5896	0.871	-0.152
Mof_C 	C 	0.8448	0.8161	0.2009	-0.178
Mof_H 	H 	0.1211	0.745	0.0794	0.353
Mof_H 	H 	0.0115	0.713	0.0574	0.345
Mof_H 	H 	0.1358	0.6901	0.1235	0.352
Mof_H 	H 	0.2464	0.7747	0.2854	0.382
Mof_H 	H 	0.2564	0.7186	0.3215	0.366
Mof_H 	H 	0.2121	0.7583	0.3796	0.375
Mof_C 	C 	0.0372	0.8339	0.1651	0.159
Mof_C 	C 	0.4222	0.8153	0.6064	-0.21
Mof_H 	H 	0.7157	0.722	0.867	0.425
Mof_H 	H 	0.7189	0.7063	0.9819	0.435
Mof_H 	H 	0.7566	0.7602	0.9668	0.416
Mof_H 	H 	0.6066	0.7953	0.0251	0.378
Mof_H 	H 	0.5795	0.7397	0.0402	0.383
Mof_H 	H 	0.4792	0.7752	0.9621	0.362
Mof_C 	C 	0.6021	0.8416	0.8172	0.19
Mof_H 	H 	0.7822	0.8105	0.2152	0.064
Mof_C 	C 	0.8605	0.8625	0.1644	0.112
Mof_H 	H 	0.102	0.8402	0.1551	-0.032
Mof_C 	C 	0.9582	0.8716	0.1486	-0.229
Mof_H 	H 	0.3645	0.8061	0.5358	0.071
Mof_C 	C 	0.4679	0.8619	0.6228	0.15
Mof_H 	H 	0.6619	0.8505	0.8867	-0.043
Mof_C 	C 	0.5614	0.8756	0.7275	-0.27
Mof_H 	H 	0.8067	0.8878	0.1503	-0.006
Mof_C 	C 	0.9768	0.9238	0.1145	0.523
Mof_H 	H 	0.4377	0.8854	0.5644	-0.031
Mof_C 	C 	0.6152	0.9266	0.742	0.558
_end
