data_functionalizedCrystal
_audit_creation_method	'EQeq! by Chris Wilmer'
_symmetry_space_group_name_H-M	'P1'
_symmetry_Int_Tables_number	1
_symmetry_cell_setting	triclinic
loop_
_symmetry_equiv_pos_as_xyz
  x,y,z
_cell_length_a	8.393
_cell_length_b	18.7421
_cell_length_c	22.2351
_cell_angle_alpha	90
_cell_angle_beta	90
_cell_angle_gamma	94.031
loop_
_atom_site_label
_atom_site_type_symbol
_atom_site_fract_x
_atom_site_fract_y
_atom_site_fract_z
_atom_site_charge
Mof_Cd	Cd	0.68424	0.01288	0.44304	0.462
Mof_Cd	Cd	0.31576	0.48712	0.94304	0.462
Mof_Cd	Cd	0.31576	0.98712	0.55696	0.462
Mof_Cd	Cd	0.68424	0.51288	0.05696	0.462
Mof_H 	H 	0.058	0.1672	0.4533	0.058
Mof_H 	H 	0.9992	0.2534	0.3802	0.064
Mof_H 	H 	0.4873	0.1428	0.3742	0.066
Mof_H 	H 	0.4153	0.5051	0.1589	0.003
Mof_H 	H 	0.3055	0.4338	0.236	0.125
Mof_H 	H 	0.5496	0.2722	0.1678	0.151
Mof_H 	H 	0.6555	0.3515	0.0964	0.017
Mof_H 	H 	0.132	0.026	0.3058	0.055
Mof_H 	H 	0.2937	0.0688	0.2242	0.059
Mof_H 	H 	0.7979	0.1648	0.2649	0.081
Mof_H 	H 	0.3176	0.3191	0.9599	0.009
Mof_H 	H 	0.2521	0.2267	0.0267	0.127
Mof_H 	H 	0.0371	0.3697	0.1314	0.142
Mof_H 	H 	0.1096	0.4547	0.0614	0.018
Mof_H 	H 	0.942	0.3328	0.9533	0.058
Mof_H 	H 	0.0008	0.2466	0.8802	0.065
Mof_H 	H 	0.5127	0.3572	0.8742	0.066
Mof_H 	H 	0.5847	0.9949	0.6589	0.003
Mof_H 	H 	0.6945	0.0662	0.736	0.125
Mof_H 	H 	0.4504	0.2278	0.6678	0.151
Mof_H 	H 	0.3445	0.1485	0.5964	0.017
Mof_H 	H 	0.868	0.474	0.8058	0.055
Mof_H 	H 	0.7063	0.4312	0.7242	0.059
Mof_H 	H 	0.2021	0.3352	0.7649	0.081
Mof_H 	H 	0.6824	0.1809	0.4599	0.009
Mof_H 	H 	0.7479	0.2733	0.5267	0.127
Mof_H 	H 	0.9629	0.1303	0.6314	0.142
Mof_H 	H 	0.8904	0.0453	0.5614	0.018
Mof_H 	H 	0.942	0.8328	0.5467	0.058
Mof_H 	H 	0.0008	0.7466	0.6198	0.064
Mof_H 	H 	0.5127	0.8572	0.6258	0.066
Mof_H 	H 	0.5847	0.4949	0.8411	0.003
Mof_H 	H 	0.6945	0.5662	0.764	0.125
Mof_H 	H 	0.4504	0.7278	0.8322	0.151
Mof_H 	H 	0.3445	0.6485	0.9036	0.017
Mof_H 	H 	0.868	0.974	0.6942	0.055
Mof_H 	H 	0.7063	0.9312	0.7758	0.059
Mof_H 	H 	0.2021	0.8352	0.7351	0.081
Mof_H 	H 	0.6824	0.6809	0.0401	0.009
Mof_H 	H 	0.7479	0.7733	0.9733	0.127
Mof_H 	H 	0.9629	0.6303	0.8686	0.142
Mof_H 	H 	0.8904	0.5453	0.9386	0.018
Mof_H 	H 	0.058	0.6672	0.0467	0.058
Mof_H 	H 	0.9992	0.7534	0.1198	0.065
Mof_H 	H 	0.4873	0.6428	0.1258	0.066
Mof_H 	H 	0.4153	0.0051	0.3411	0.003
Mof_H 	H 	0.3055	0.9338	0.264	0.125
Mof_H 	H 	0.5496	0.7722	0.3322	0.151
Mof_H 	H 	0.6555	0.8515	0.4036	0.017
Mof_H 	H 	0.132	0.526	0.1942	0.055
Mof_H 	H 	0.2937	0.5688	0.2758	0.059
Mof_H 	H 	0.7979	0.6648	0.2351	0.081
Mof_H 	H 	0.3176	0.8191	0.5401	0.009
Mof_H 	H 	0.2521	0.7267	0.4733	0.127
Mof_H 	H 	0.0371	0.8697	0.3686	0.142
Mof_H 	H 	0.1096	0.9547	0.4386	0.018
Mof_C 	C 	0.3064	0.0902	0.4658	0.306
Mof_C 	C 	0.2754	0.147	0.4199	-0.061
Mof_C 	C 	0.1329	0.1798	0.4224	-0.006
Mof_C 	C 	0.0981	0.2317	0.3796	-0.04
Mof_C 	C 	0.211	0.2497	0.3373	-0.018
Mof_C 	C 	0.3539	0.218	0.336	-0.04
Mof_C 	C 	0.3896	0.1653	0.3762	-0.008
Mof_C 	C 	0.4514	0.2483	0.2857	0.213
Mof_C 	C 	0.2099	0.3018	0.2865	0.203
Mof_C 	C 	0.4438	0.457	0.1616	0.134
Mof_C 	C 	0.3764	0.4153	0.2076	-0.214
Mof_C 	C 	0.4177	0.3447	0.2101	0.221
Mof_C 	C 	0.5213	0.3204	0.1676	-0.211
Mof_C 	C 	0.5821	0.3679	0.1249	0.139
Mof_C 	C 	0.8568	0.064	0.3467	0.283
Mof_C 	C 	0.9538	0.0914	0.2934	-0.046
Mof_C 	C 	0.0977	0.0633	0.2811	-0.014
Mof_C 	C 	0.1952	0.0885	0.2331	-0.033
Mof_C 	C 	0.139	0.1441	0.1993	-0.026
Mof_C 	C 	0.9941	0.1712	0.2118	-0.026
Mof_C 	C 	0.8984	0.1461	0.2575	-0.016
Mof_C 	C 	0.2163	0.1833	0.1482	0.207
Mof_C 	C 	0.9704	0.2298	0.1675	0.219
Mof_C 	C 	0.262	0.3293	0.9957	0.119
Mof_C 	C 	0.2237	0.2738	0.0352	-0.207
Mof_C 	C 	0.1425	0.2889	0.0879	0.218
Mof_C 	C 	0.097	0.3578	0.097	-0.215
Mof_C 	C 	0.1413	0.4076	0.0548	0.138
Mof_C 	C 	0.6936	0.4098	0.9658	0.306
Mof_C 	C 	0.7246	0.353	0.9199	-0.061
Mof_C 	C 	0.8671	0.3202	0.9224	-0.006
Mof_C 	C 	0.9019	0.2683	0.8796	-0.04
Mof_C 	C 	0.789	0.2503	0.8373	-0.018
Mof_C 	C 	0.6461	0.282	0.836	-0.04
Mof_C 	C 	0.6104	0.3347	0.8762	-0.008
Mof_C 	C 	0.5486	0.2517	0.7857	0.213
Mof_C 	C 	0.7901	0.1982	0.7865	0.203
Mof_C 	C 	0.5562	0.043	0.6616	0.134
Mof_C 	C 	0.6236	0.0847	0.7076	-0.214
Mof_C 	C 	0.5823	0.1553	0.7101	0.221
Mof_C 	C 	0.4787	0.1796	0.6676	-0.211
Mof_C 	C 	0.4179	0.1321	0.6249	0.139
Mof_C 	C 	0.1432	0.436	0.8467	0.283
Mof_C 	C 	0.0462	0.4086	0.7934	-0.045
Mof_C 	C 	0.9023	0.4367	0.7811	-0.015
Mof_C 	C 	0.8048	0.4115	0.7331	-0.033
Mof_C 	C 	0.861	0.3559	0.6993	-0.027
Mof_C 	C 	0.0059	0.3288	0.7118	-0.025
Mof_C 	C 	0.1016	0.3539	0.7575	-0.017
Mof_C 	C 	0.7837	0.3167	0.6482	0.207
Mof_C 	C 	0.0296	0.2702	0.6675	0.219
Mof_C 	C 	0.738	0.1707	0.4957	0.12
Mof_C 	C 	0.7763	0.2262	0.5352	-0.208
Mof_C 	C 	0.8575	0.2111	0.5879	0.218
Mof_C 	C 	0.903	0.1422	0.597	-0.215
Mof_C 	C 	0.8587	0.0924	0.5548	0.138
Mof_C 	C 	0.6936	0.9098	0.5342	0.306
Mof_C 	C 	0.7246	0.853	0.5801	-0.061
Mof_C 	C 	0.8671	0.8202	0.5776	-0.006
Mof_C 	C 	0.9019	0.7683	0.6204	-0.04
Mof_C 	C 	0.789	0.7503	0.6627	-0.018
Mof_C 	C 	0.6461	0.782	0.664	-0.04
Mof_C 	C 	0.6104	0.8347	0.6238	-0.008
Mof_C 	C 	0.5486	0.7517	0.7143	0.213
Mof_C 	C 	0.7901	0.6982	0.7135	0.203
Mof_C 	C 	0.5562	0.543	0.8384	0.134
Mof_C 	C 	0.6236	0.5847	0.7924	-0.214
Mof_C 	C 	0.5823	0.6553	0.7899	0.221
Mof_C 	C 	0.4787	0.6796	0.8324	-0.211
Mof_C 	C 	0.4179	0.6321	0.8751	0.139
Mof_C 	C 	0.1432	0.936	0.6533	0.283
Mof_C 	C 	0.0462	0.9086	0.7066	-0.046
Mof_C 	C 	0.9023	0.9367	0.7189	-0.014
Mof_C 	C 	0.8048	0.9115	0.7669	-0.033
Mof_C 	C 	0.861	0.8559	0.8007	-0.026
Mof_C 	C 	0.0059	0.8288	0.7882	-0.026
Mof_C 	C 	0.1016	0.8539	0.7425	-0.016
Mof_C 	C 	0.7837	0.8167	0.8518	0.207
Mof_C 	C 	0.0296	0.7702	0.8325	0.219
Mof_C 	C 	0.738	0.6707	0.0043	0.119
Mof_C 	C 	0.7763	0.7262	0.9648	-0.207
Mof_C 	C 	0.8575	0.7111	0.9121	0.218
Mof_C 	C 	0.903	0.6422	0.903	-0.215
Mof_C 	C 	0.8587	0.5924	0.9452	0.138
Mof_C 	C 	0.3064	0.5902	0.0342	0.306
Mof_C 	C 	0.2754	0.647	0.0801	-0.061
Mof_C 	C 	0.1329	0.6798	0.0776	-0.006
Mof_C 	C 	0.0981	0.7317	0.1204	-0.04
Mof_C 	C 	0.211	0.7497	0.1627	-0.018
Mof_C 	C 	0.3539	0.718	0.164	-0.04
Mof_C 	C 	0.3896	0.6653	0.1238	-0.008
Mof_C 	C 	0.4514	0.7483	0.2143	0.213
Mof_C 	C 	0.2099	0.8018	0.2135	0.203
Mof_C 	C 	0.4438	0.957	0.3384	0.134
Mof_C 	C 	0.3764	0.9153	0.2924	-0.214
Mof_C 	C 	0.4177	0.8447	0.2899	0.221
Mof_C 	C 	0.5213	0.8204	0.3324	-0.211
Mof_C 	C 	0.5821	0.8679	0.3751	0.139
Mof_C 	C 	0.8568	0.564	0.1533	0.283
Mof_C 	C 	0.9538	0.5914	0.2066	-0.045
Mof_C 	C 	0.0977	0.5633	0.2189	-0.015
Mof_C 	C 	0.1952	0.5885	0.2669	-0.033
Mof_C 	C 	0.139	0.6441	0.3007	-0.027
Mof_C 	C 	0.9941	0.6712	0.2882	-0.025
Mof_C 	C 	0.8984	0.6461	0.2425	-0.017
Mof_C 	C 	0.2163	0.6833	0.3518	0.207
Mof_C 	C 	0.9704	0.7298	0.3325	0.219
Mof_C 	C 	0.262	0.8293	0.5043	0.12
Mof_C 	C 	0.2237	0.7738	0.4648	-0.208
Mof_C 	C 	0.1425	0.7889	0.4121	0.218
Mof_C 	C 	0.097	0.8578	0.403	-0.215
Mof_C 	C 	0.1413	0.9076	0.4452	0.138
Mof_N 	N 	0.5445	0.4351	0.1213	-0.166
Mof_N 	N 	0.3591	0.2991	0.2572	-0.19
Mof_N 	N 	0.1102	0.2356	0.1318	-0.191
Mof_N 	N 	0.2246	0.3971	0.0053	-0.165
Mof_N 	N 	0.4555	0.0649	0.6213	-0.166
Mof_N 	N 	0.6409	0.2009	0.7572	-0.19
Mof_N 	N 	0.8898	0.2644	0.6318	-0.191
Mof_N 	N 	0.7754	0.1029	0.5053	-0.165
Mof_N 	N 	0.4555	0.5649	0.8787	-0.166
Mof_N 	N 	0.6409	0.7009	0.7428	-0.19
Mof_N 	N 	0.8898	0.7644	0.8682	-0.191
Mof_N 	N 	0.7754	0.6029	0.9947	-0.165
Mof_N 	N 	0.5445	0.9351	0.3787	-0.166
Mof_N 	N 	0.3591	0.7991	0.2428	-0.19
Mof_N 	N 	0.1102	0.7356	0.3682	-0.191
Mof_N 	N 	0.2246	0.8971	0.4947	-0.165
Mof_O 	O 	0.4294	0.0562	0.45985	-0.289
Mof_O 	O 	0.2067	0.0785	0.5067	-0.274
Mof_O 	O 	0.1063	0.3388	0.2702	-0.214
Mof_O 	O 	0.5849	0.2358	0.2713	-0.215
Mof_O 	O 	0.7281	0.0916	0.35922	-0.263
Mof_O 	O 	0.9097	0.0137	0.3769	-0.258
Mof_O 	O 	0.856	0.2638	0.1605	-0.213
Mof_O 	O 	0.3427	0.1746	0.124	-0.218
Mof_O 	O 	0.5706	0.4438	0.95985	-0.289
Mof_O 	O 	0.7933	0.4215	0.0067	-0.274
Mof_O 	O 	0.8937	0.1612	0.7702	-0.214
Mof_O 	O 	0.4151	0.2642	0.7713	-0.215
Mof_O 	O 	0.2719	0.4084	0.85922	-0.263
Mof_O 	O 	0.0903	0.4863	0.8769	-0.258
Mof_O 	O 	0.144	0.2362	0.6605	-0.213
Mof_O 	O 	0.6573	0.3254	0.624	-0.218
Mof_O 	O 	0.5706	0.9438	0.54015	-0.289
Mof_O 	O 	0.7933	0.9215	0.4933	-0.274
Mof_O 	O 	0.8937	0.6612	0.7298	-0.214
Mof_O 	O 	0.4151	0.7642	0.7287	-0.215
Mof_O 	O 	0.2719	0.9084	0.64078	-0.263
Mof_O 	O 	0.0903	0.9863	0.6231	-0.258
Mof_O 	O 	0.144	0.7362	0.8395	-0.213
Mof_O 	O 	0.6573	0.8254	0.876	-0.218
Mof_O 	O 	0.4294	0.5562	0.04015	-0.289
Mof_O 	O 	0.2067	0.5785	0.9933	-0.274
Mof_O 	O 	0.1063	0.8388	0.2298	-0.214
Mof_O 	O 	0.5849	0.7358	0.2287	-0.215
Mof_O 	O 	0.7281	0.5916	0.14078	-0.263
Mof_O 	O 	0.9097	0.5137	0.1231	-0.258
Mof_O 	O 	0.856	0.7638	0.3395	-0.213
Mof_O 	O 	0.3427	0.6746	0.376	-0.218
_end
