data_functionalizedCrystal
_audit_creation_method	'EQeq! by Chris Wilmer'
_symmetry_space_group_name_H-M	'P1'
_symmetry_Int_Tables_number	1
_symmetry_cell_setting	triclinic
loop_
_symmetry_equiv_pos_as_xyz
  x,y,z
_cell_length_a	22.4022
_cell_length_b	22.4022
_cell_length_c	9.1637
_cell_angle_alpha	90
_cell_angle_beta	90
_cell_angle_gamma	120
loop_
_atom_site_label
_atom_site_type_symbol
_atom_site_fract_x
_atom_site_fract_y
_atom_site_fract_z
_atom_site_charge
Mof_O 	O 	0.3392	0.6144	0.4908	-0.398
Mof_O 	O 	0.5765	0.3768	0.4848	-0.27
Mof_C 	C 	0.4754	0.593	0.6255	0.303
Mof_C 	C 	0.5131	0.5562	0.588	-0.58
Mof_C 	C 	0.5749	0.5747	0.6586	0.228
Mof_C 	C 	0.6041	0.5328	0.6477	-0.43
Mof_C 	C 	0.5715	0.4724	0.5663	0.275
Mof_C 	C 	0.5097	0.4539	0.4957	-0.525
Mof_C 	C 	0.4805	0.4958	0.5066	0.611
Mof_H 	H 	0.5951	0.6177	0.7209	-0.041
Mof_H 	H 	0.6446	0.5469	0.7056	0.116
Mof_H 	H 	0.4872	0.4142	0.4432	0.371
Mof_H 	H 	0.4378	0.485	0.4585	-0.092
Mof_H 	H 	0.3906	0.5393	0.5389	-0.001
Mof_H 	H 	0.5002	0.636	0.6952	-0.036
Mof_O 	O 	0.3856	0.7248	0.15747	-0.397
Mof_O 	O 	0.6232	0.1997	0.15147	-0.269
Mof_C 	C 	0.407	0.8824	0.29217	0.302
Mof_C 	C 	0.4438	0.9569	0.25467	-0.58
Mof_C 	C 	0.4253	0.0002	0.32527	0.229
Mof_C 	C 	0.4672	0.0713	0.31437	-0.432
Mof_C 	C 	0.5276	0.0991	0.23297	0.277
Mof_C 	C 	0.5461	0.0558	0.16237	-0.525
Mof_C 	C 	0.5042	0.9847	0.17327	0.612
Mof_H 	H 	0.3823	0.9774	0.38757	-0.041
Mof_H 	H 	0.4531	0.0977	0.37227	0.117
Mof_H 	H 	0.5858	0.073	0.10987	0.37
Mof_H 	H 	0.515	0.9528	0.12517	-0.091
Mof_H 	H 	0.4607	0.8513	0.20557	-0.001
Mof_H 	H 	0.364	0.8642	0.36187	-0.036
Mof_O 	O 	0.2752	0.6608	0.82413	-0.397
Mof_O 	O 	0.8003	0.4235	0.81813	-0.269
Mof_C 	C 	0.1176	0.5246	0.95883	0.309
Mof_C 	C 	0.0431	0.4869	0.92133	-0.583
Mof_C 	C 	0.9998	0.4251	0.99193	0.226
Mof_C 	C 	0.9287	0.3959	0.98103	-0.424
Mof_C 	C 	0.9009	0.4285	0.89963	0.271
Mof_C 	C 	0.9442	0.4903	0.82903	-0.524
Mof_C 	C 	0.0153	0.5195	0.83993	0.612
Mof_H 	H 	0.0226	0.4049	0.05423	-0.04
Mof_H 	H 	0.9023	0.3554	0.03893	0.114
Mof_H 	H 	0.927	0.5128	0.77653	0.373
Mof_H 	H 	0.0472	0.5622	0.79183	-0.092
Mof_H 	H 	0.1487	0.6094	0.87223	-0.001
Mof_H 	H 	0.1358	0.4998	0.02853	-0.036
Mof_O 	O 	0.6608	0.3856	0.9908	-0.396
Mof_O 	O 	0.4235	0.6232	0.9848	-0.27
Mof_C 	C 	0.5246	0.407	0.1255	0.304
Mof_C 	C 	0.4869	0.4438	0.088	-0.581
Mof_C 	C 	0.4251	0.4253	0.1586	0.227
Mof_C 	C 	0.3959	0.4672	0.1477	-0.427
Mof_C 	C 	0.4285	0.5276	0.0663	0.273
Mof_C 	C 	0.4903	0.5461	0.9957	-0.523
Mof_C 	C 	0.5195	0.5042	0.0066	0.61
Mof_H 	H 	0.4049	0.3823	0.2209	-0.041
Mof_H 	H 	0.3554	0.4531	0.2056	0.115
Mof_H 	H 	0.5128	0.5858	0.9432	0.372
Mof_H 	H 	0.5622	0.515	0.9585	-0.091
Mof_H 	H 	0.6094	0.4607	0.0389	-0.003
Mof_H 	H 	0.4998	0.364	0.1952	-0.036
Mof_O 	O 	0.6144	0.2752	0.65747	-0.397
Mof_O 	O 	0.3768	0.8003	0.65147	-0.269
Mof_C 	C 	0.593	0.1176	0.79217	0.304
Mof_C 	C 	0.5562	0.0431	0.75467	-0.58
Mof_C 	C 	0.5747	0.9998	0.82527	0.225
Mof_C 	C 	0.5328	0.9287	0.81437	-0.425
Mof_C 	C 	0.4724	0.9009	0.73297	0.272
Mof_C 	C 	0.4539	0.9442	0.66237	-0.524
Mof_C 	C 	0.4958	0.0153	0.67327	0.61
Mof_H 	H 	0.6177	0.0226	0.88757	-0.04
Mof_H 	H 	0.5469	0.9023	0.87227	0.114
Mof_H 	H 	0.4142	0.927	0.60987	0.372
Mof_H 	H 	0.485	0.0472	0.62517	-0.091
Mof_H 	H 	0.5393	0.1487	0.70557	0
Mof_H 	H 	0.636	0.1358	0.86187	-0.036
Mof_O 	O 	0.7248	0.3392	0.32413	-0.397
Mof_O 	O 	0.1997	0.5765	0.31813	-0.269
Mof_C 	C 	0.8824	0.4754	0.45883	0.304
Mof_C 	C 	0.9569	0.5131	0.42133	-0.58
Mof_C 	C 	0.0002	0.5749	0.49193	0.227
Mof_C 	C 	0.0713	0.6041	0.48103	-0.427
Mof_C 	C 	0.0991	0.5715	0.39963	0.273
Mof_C 	C 	0.0558	0.5097	0.32903	-0.523
Mof_C 	C 	0.9847	0.4805	0.33993	0.609
Mof_H 	H 	0.9774	0.5951	0.55423	-0.041
Mof_H 	H 	0.0977	0.6446	0.53893	0.115
Mof_H 	H 	0.073	0.4872	0.27653	0.372
Mof_H 	H 	0.9528	0.4378	0.29183	-0.091
Mof_H 	H 	0.8513	0.3906	0.37223	-0
Mof_H 	H 	0.8642	0.5002	0.52853	-0.036
Mof_O 	O 	0.6144	0.3392	0.17587	-0.397
Mof_O 	O 	0.3768	0.5765	0.18187	-0.269
Mof_C 	C 	0.593	0.4754	0.04117	0.305
Mof_C 	C 	0.5562	0.5131	0.07867	-0.582
Mof_C 	C 	0.5747	0.5749	0.00807	0.229
Mof_C 	C 	0.5328	0.6041	0.01897	-0.433
Mof_C 	C 	0.4724	0.5715	0.10037	0.278
Mof_C 	C 	0.4539	0.5097	0.17097	-0.526
Mof_C 	C 	0.4958	0.4805	0.16007	0.613
Mof_H 	H 	0.6177	0.5951	0.94577	-0.041
Mof_H 	H 	0.5469	0.6446	0.96107	0.117
Mof_H 	H 	0.4142	0.4872	0.22347	0.371
Mof_H 	H 	0.485	0.4378	0.20817	-0.092
Mof_H 	H 	0.5393	0.3906	0.12777	-0.002
Mof_H 	H 	0.636	0.5002	0.97147	-0.036
Mof_O 	O 	0.7248	0.3856	0.5092	-0.397
Mof_O 	O 	0.1997	0.6232	0.5152	-0.269
Mof_C 	C 	0.8824	0.407	0.3745	0.302
Mof_C 	C 	0.9569	0.4438	0.412	-0.58
Mof_C 	C 	0.0002	0.4253	0.3414	0.23
Mof_C 	C 	0.0713	0.4672	0.3523	-0.434
Mof_C 	C 	0.0991	0.5276	0.4337	0.277
Mof_C 	C 	0.0558	0.5461	0.5043	-0.525
Mof_C 	C 	0.9847	0.5042	0.4934	0.612
Mof_H 	H 	0.9774	0.3823	0.2791	-0.042
Mof_H 	H 	0.0977	0.4531	0.2944	0.117
Mof_H 	H 	0.073	0.5858	0.5568	0.37
Mof_H 	H 	0.9528	0.515	0.5415	-0.092
Mof_H 	H 	0.8513	0.4607	0.4611	-0.001
Mof_H 	H 	0.8642	0.364	0.3048	-0.036
Mof_O 	O 	0.6608	0.2752	0.84253	-0.397
Mof_O 	O 	0.4235	0.8003	0.84853	-0.269
Mof_C 	C 	0.5246	0.1176	0.70783	0.301
Mof_C 	C 	0.4869	0.0431	0.74533	-0.58
Mof_C 	C 	0.4251	0.9998	0.67473	0.23
Mof_C 	C 	0.3959	0.9287	0.68563	-0.434
Mof_C 	C 	0.4285	0.9009	0.76703	0.278
Mof_C 	C 	0.4903	0.9442	0.83763	-0.526
Mof_C 	C 	0.5195	0.0153	0.82673	0.613
Mof_H 	H 	0.4049	0.0226	0.61243	-0.041
Mof_H 	H 	0.3554	0.9023	0.62773	0.117
Mof_H 	H 	0.5128	0.927	0.89013	0.37
Mof_H 	H 	0.5622	0.0472	0.87483	-0.092
Mof_H 	H 	0.6094	0.1487	0.79443	-0.001
Mof_H 	H 	0.4998	0.1358	0.63813	-0.036
Mof_O 	O 	0.3856	0.6608	0.67587	-0.397
Mof_O 	O 	0.6232	0.4235	0.68187	-0.269
Mof_C 	C 	0.407	0.5246	0.54117	0.303
Mof_C 	C 	0.4438	0.4869	0.57867	-0.58
Mof_C 	C 	0.4253	0.4251	0.50807	0.228
Mof_C 	C 	0.4672	0.3959	0.51897	-0.43
Mof_C 	C 	0.5276	0.4285	0.60037	0.275
Mof_C 	C 	0.5461	0.4903	0.67097	-0.525
Mof_C 	C 	0.5042	0.5195	0.66007	0.611
Mof_H 	H 	0.3823	0.4049	0.44577	-0.041
Mof_H 	H 	0.4531	0.3554	0.46107	0.116
Mof_H 	H 	0.5858	0.5128	0.72347	0.371
Mof_H 	H 	0.515	0.5622	0.70817	-0.092
Mof_H 	H 	0.4607	0.6094	0.62777	-0.001
Mof_H 	H 	0.364	0.4998	0.47147	-0.036
Mof_O 	O 	0.2752	0.6144	0.0092	-0.395
Mof_O 	O 	0.8003	0.3768	0.0152	-0.27
Mof_C 	C 	0.1176	0.593	0.8745	0.301
Mof_C 	C 	0.0431	0.5562	0.912	-0.581
Mof_C 	C 	0.9998	0.5747	0.8414	0.231
Mof_C 	C 	0.9287	0.5328	0.8523	-0.436
Mof_C 	C 	0.9009	0.4724	0.9337	0.28
Mof_C 	C 	0.9442	0.4539	0.0043	-0.526
Mof_C 	C 	0.0153	0.4958	0.9934	0.611
Mof_H 	H 	0.0226	0.6177	0.7791	-0.042
Mof_H 	H 	0.9023	0.5469	0.7944	0.118
Mof_H 	H 	0.927	0.4142	0.0568	0.369
Mof_H 	H 	0.0472	0.485	0.0415	-0.091
Mof_H 	H 	0.1487	0.5393	0.9611	-0.007
Mof_H 	H 	0.1358	0.636	0.8048	-0.036
Mof_O 	O 	0.3392	0.7248	0.34253	-0.397
Mof_O 	O 	0.5765	0.1997	0.34853	-0.269
Mof_C 	C 	0.4754	0.8824	0.20783	0.303
Mof_C 	C 	0.5131	0.9569	0.24533	-0.58
Mof_C 	C 	0.5749	0.0002	0.17473	0.226
Mof_C 	C 	0.6041	0.0713	0.18563	-0.427
Mof_C 	C 	0.5715	0.0991	0.26703	0.273
Mof_C 	C 	0.5097	0.0558	0.33763	-0.524
Mof_C 	C 	0.4805	0.9847	0.32673	0.61
Mof_H 	H 	0.5951	0.9774	0.11243	-0.04
Mof_H 	H 	0.6446	0.0977	0.12773	0.115
Mof_H 	H 	0.4872	0.073	0.39013	0.372
Mof_H 	H 	0.4378	0.9528	0.37483	-0.091
Mof_H 	H 	0.3906	0.8513	0.29443	-0
Mof_H 	H 	0.5002	0.8642	0.13813	-0.036
Mof_Cd	Cd	0.30385	0.69615	0.58333	0.529
Mof_C 	C 	0.37744	0.62256	0.58333	0.604
Mof_C 	C 	0.5862	0.4138	0.58333	0.183
Mof_C 	C 	0.4157	0.5843	0.58333	-0.383
Mof_Cd	Cd	0.30385	0.6077	0.25	0.529
Mof_C 	C 	0.37744	0.75488	0.25	0.604
Mof_C 	C 	0.5862	0.1724	0.25	0.183
Mof_C 	C 	0.4157	0.8314	0.25	-0.383
Mof_Cd	Cd	0.3923	0.69615	0.91667	0.528
Mof_C 	C 	0.24512	0.62256	0.91667	0.601
Mof_C 	C 	0.8276	0.4138	0.91667	0.183
Mof_C 	C 	0.1686	0.5843	0.91667	-0.38
Mof_Cd	Cd	0.69615	0.30385	0.08333	0.528
Mof_C 	C 	0.62256	0.37744	0.08333	0.602
Mof_C 	C 	0.4138	0.5862	0.08333	0.184
Mof_C 	C 	0.5843	0.4157	0.08333	-0.381
Mof_Cd	Cd	0.69615	0.3923	0.75	0.529
Mof_C 	C 	0.62256	0.24512	0.75	0.604
Mof_C 	C 	0.4138	0.8276	0.75	0.183
Mof_C 	C 	0.5843	0.1686	0.75	-0.383
Mof_Cd	Cd	0.6077	0.30385	0.41667	0.529
Mof_C 	C 	0.75488	0.37744	0.41667	0.604
Mof_C 	C 	0.1724	0.5862	0.41667	0.183
Mof_C 	C 	0.8314	0.4157	0.41667	-0.383
_end
