data_functionalizedCrystal
_audit_creation_method	'EQeq! by Chris Wilmer'
_symmetry_space_group_name_H-M	'P1'
_symmetry_Int_Tables_number	1
_symmetry_cell_setting	triclinic
loop_
_symmetry_equiv_pos_as_xyz
  x,y,z
_cell_length_a	9.135
_cell_length_b	16.137
_cell_length_c	19.968
_cell_angle_alpha	90
_cell_angle_beta	90
_cell_angle_gamma	90
loop_
_atom_site_label
_atom_site_type_symbol
_atom_site_fract_x
_atom_site_fract_y
_atom_site_fract_z
_atom_site_charge
Mof_Fe	Fe	0.926	0.66	0.263	0.889
Mof_O 	O 	0.866	0.445	0.336	-0.319
Mof_O 	O 	0.973	0.569	0.334	-0.325
Mof_O 	O 	0.785	0.69	0.33	-0.396
Mof_O 	O 	0.582	0.748	0.299	-0.394
Mof_O 	O 	0.516	0.584	0.324	-0.338
Mof_O 	O 	0.581	0.452	0.328	-0.314
Mof_C 	C 	0.924	0.509	0.371	0.315
Mof_C 	C 	0.663	0.721	0.346	0.385
Mof_C 	C 	0.507	0.513	0.351	0.366
Mof_C 	C 	0.53	0.507	0.469	0.036
Mof_C 	C 	0.437	0.503	0.413	-0.094
Mof_C 	C 	0.038	0.473	0.414	-0.055
Mof_C 	C 	0.05	0.475	0.483	0.022
Mof_C 	C 	0.653	0.767	0.408	-0.081
Mof_C 	C 	0.648	0.727	0.469	0.034
Mof_Fe	Fe	0.926	0.84	0.737	0.89
Mof_O 	O 	0.866	0.055	0.664	-0.317
Mof_O 	O 	0.973	0.931	0.666	-0.324
Mof_O 	O 	0.785	0.81	0.67	-0.394
Mof_O 	O 	0.582	0.752	0.701	-0.393
Mof_O 	O 	0.516	0.916	0.676	-0.337
Mof_O 	O 	0.581	0.048	0.672	-0.313
Mof_C 	C 	0.924	0.991	0.629	0.314
Mof_C 	C 	0.663	0.779	0.654	0.386
Mof_C 	C 	0.507	0.987	0.649	0.366
Mof_C 	C 	0.53	0.993	0.531	0.036
Mof_C 	C 	0.437	0.997	0.587	-0.093
Mof_C 	C 	0.038	0.027	0.586	-0.055
Mof_C 	C 	0.05	0.025	0.517	0.022
Mof_C 	C 	0.653	0.733	0.592	-0.081
Mof_C 	C 	0.648	0.773	0.531	0.034
Mof_Fe	Fe	0.574	0.84	0.763	0.891
Mof_O 	O 	0.634	0.055	0.836	-0.317
Mof_O 	O 	0.527	0.931	0.834	-0.324
Mof_O 	O 	0.715	0.81	0.83	-0.394
Mof_O 	O 	0.918	0.752	0.799	-0.393
Mof_O 	O 	0.984	0.916	0.824	-0.336
Mof_O 	O 	0.919	0.048	0.828	-0.309
Mof_C 	C 	0.576	0.991	0.871	0.313
Mof_C 	C 	0.837	0.779	0.846	0.385
Mof_C 	C 	0.993	0.987	0.851	0.36
Mof_C 	C 	0.97	0.993	0.969	0.033
Mof_C 	C 	0.063	0.997	0.913	-0.089
Mof_C 	C 	0.462	0.027	0.914	-0.053
Mof_C 	C 	0.45	0.025	0.983	0.023
Mof_C 	C 	0.847	0.733	0.908	-0.081
Mof_C 	C 	0.852	0.773	0.969	0.033
Mof_Fe	Fe	0.574	0.66	0.237	0.891
Mof_O 	O 	0.634	0.445	0.164	-0.319
Mof_O 	O 	0.527	0.569	0.166	-0.324
Mof_O 	O 	0.715	0.69	0.17	-0.394
Mof_O 	O 	0.918	0.748	0.201	-0.393
Mof_O 	O 	0.984	0.584	0.176	-0.337
Mof_O 	O 	0.919	0.452	0.172	-0.313
Mof_C 	C 	0.576	0.509	0.129	0.316
Mof_C 	C 	0.837	0.721	0.154	0.386
Mof_C 	C 	0.993	0.513	0.149	0.367
Mof_C 	C 	0.97	0.507	0.031	0.036
Mof_C 	C 	0.063	0.503	0.087	-0.094
Mof_C 	C 	0.462	0.473	0.086	-0.055
Mof_C 	C 	0.45	0.475	0.017	0.022
Mof_C 	C 	0.847	0.767	0.092	-0.082
Mof_C 	C 	0.852	0.727	0.031	0.035
Mof_Fe	Fe	0.074	0.34	0.737	0.89
Mof_O 	O 	0.134	0.555	0.664	-0.318
Mof_O 	O 	0.027	0.431	0.666	-0.324
Mof_O 	O 	0.215	0.31	0.67	-0.395
Mof_O 	O 	0.418	0.252	0.701	-0.393
Mof_O 	O 	0.484	0.416	0.676	-0.337
Mof_O 	O 	0.419	0.548	0.672	-0.313
Mof_C 	C 	0.076	0.491	0.629	0.316
Mof_C 	C 	0.337	0.279	0.654	0.386
Mof_C 	C 	0.493	0.487	0.649	0.367
Mof_C 	C 	0.47	0.493	0.531	0.036
Mof_C 	C 	0.563	0.497	0.587	-0.094
Mof_C 	C 	0.962	0.527	0.586	-0.055
Mof_C 	C 	0.95	0.525	0.517	0.022
Mof_C 	C 	0.347	0.233	0.592	-0.081
Mof_C 	C 	0.352	0.273	0.531	0.034
Mof_Fe	Fe	0.074	0.16	0.263	0.89
Mof_O 	O 	0.134	0.945	0.336	-0.317
Mof_O 	O 	0.027	0.069	0.334	-0.324
Mof_O 	O 	0.215	0.19	0.33	-0.394
Mof_O 	O 	0.418	0.248	0.299	-0.393
Mof_O 	O 	0.484	0.084	0.324	-0.337
Mof_O 	O 	0.419	0.952	0.328	-0.313
Mof_C 	C 	0.076	0.009	0.371	0.314
Mof_C 	C 	0.337	0.221	0.346	0.386
Mof_C 	C 	0.493	0.013	0.351	0.366
Mof_C 	C 	0.47	0.007	0.469	0.036
Mof_C 	C 	0.563	0.003	0.413	-0.093
Mof_C 	C 	0.962	0.973	0.414	-0.055
Mof_C 	C 	0.95	0.975	0.483	0.022
Mof_C 	C 	0.347	0.267	0.408	-0.081
Mof_C 	C 	0.352	0.227	0.469	0.034
Mof_Fe	Fe	0.426	0.16	0.237	0.891
Mof_O 	O 	0.366	0.945	0.164	-0.317
Mof_O 	O 	0.473	0.069	0.166	-0.324
Mof_O 	O 	0.285	0.19	0.17	-0.394
Mof_O 	O 	0.082	0.248	0.201	-0.393
Mof_O 	O 	0.016	0.084	0.176	-0.336
Mof_O 	O 	0.081	0.952	0.172	-0.309
Mof_C 	C 	0.424	0.009	0.129	0.313
Mof_C 	C 	0.163	0.221	0.154	0.385
Mof_C 	C 	0.007	0.013	0.149	0.36
Mof_C 	C 	0.03	0.007	0.031	0.033
Mof_C 	C 	0.937	0.003	0.087	-0.089
Mof_C 	C 	0.538	0.973	0.086	-0.053
Mof_C 	C 	0.55	0.975	0.017	0.023
Mof_C 	C 	0.153	0.267	0.092	-0.081
Mof_C 	C 	0.148	0.227	0.031	0.033
Mof_Fe	Fe	0.426	0.34	0.763	0.891
Mof_O 	O 	0.366	0.555	0.836	-0.319
Mof_O 	O 	0.473	0.431	0.834	-0.324
Mof_O 	O 	0.285	0.31	0.83	-0.394
Mof_O 	O 	0.082	0.252	0.799	-0.393
Mof_O 	O 	0.016	0.416	0.824	-0.337
Mof_O 	O 	0.081	0.548	0.828	-0.313
Mof_C 	C 	0.424	0.491	0.871	0.316
Mof_C 	C 	0.163	0.279	0.846	0.386
Mof_C 	C 	0.007	0.487	0.851	0.367
Mof_C 	C 	0.03	0.493	0.969	0.036
Mof_C 	C 	0.937	0.497	0.913	-0.094
Mof_C 	C 	0.538	0.527	0.914	-0.055
Mof_C 	C 	0.55	0.525	0.983	0.022
Mof_C 	C 	0.153	0.233	0.908	-0.082
Mof_C 	C 	0.148	0.273	0.969	0.035
Mof_Fe	Fe	0.75	0.441	0.25	0.855
Mof_O 	O 	0.75	0.57	0.25	-0.336
Mof_Fe	Fe	0.75	0.059	0.75	0.856
Mof_O 	O 	0.75	0.93	0.75	-0.336
Mof_Fe	Fe	0.25	0.559	0.75	0.855
Mof_O 	O 	0.25	0.43	0.75	-0.336
Mof_Fe	Fe	0.25	0.941	0.25	0.856
Mof_O 	O 	0.25	0.07	0.25	-0.336
_end
