data_functionalizedCrystal
_audit_creation_method	'EQeq! by Chris Wilmer'
_symmetry_space_group_name_H-M	'P1'
_symmetry_Int_Tables_number	1
_symmetry_cell_setting	triclinic
loop_
_symmetry_equiv_pos_as_xyz
  x,y,z
_cell_length_a	30.84
_cell_length_b	6.574
_cell_length_c	7.704
_cell_angle_alpha	90
_cell_angle_beta	101.557
_cell_angle_gamma	90
loop_
_atom_site_label
_atom_site_type_symbol
_atom_site_fract_x
_atom_site_fract_y
_atom_site_fract_z
_atom_site_charge
Mof_Ni	Ni	0.27864	0.2686	0.27578	1.123
Mof_O 	O 	0.3064	0.4895	0.4589	-0.382
Mof_O 	O 	0.3078	0.4095	0.0916	-0.428
Mof_C 	C 	0.3787	0.7939	0.3363	-0.172
Mof_H 	H 	0.3791	0.6596	0.2911	0.096
Mof_O 	O 	0.2499	0.5469	0.9102	-0.434
Mof_O 	O 	0.2455	0.6236	0.5291	-0.41
Mof_C 	C 	0.3736	0.1736	0.4578	0.087
Mof_H 	H 	0.372	0.3078	0.5017	0.006
Mof_C 	C 	0.4599	0.769	0.4679	-0.056
Mof_N 	N 	0.3364	0.0967	0.3509	-0.23
Mof_C 	C 	0.3397	0.9076	0.3009	0.114
Mof_H 	H 	0.3138	0.8437	0.2362	0
Mof_C 	C 	0.4163	0.8762	0.4364	0.12
Mof_C 	C 	0.4126	0.0732	0.5061	-0.173
Mof_H 	H 	0.4369	0.1337	0.5848	0.09
Mof_N 	N 	0.2845	0.891	0.7688	-0.312
Mof_H 	H 	0.2851	0.0085	0.7043	0.126
Mof_H 	H 	0.2943	0.9198	0.887	0.126
Mof_C 	C 	0.3131	0.725	0.7076	-0.022
Mof_H 	H 	0.3395	0.7879	0.6715	0.049
Mof_C 	C 	0.2861	0.6004	0.5526	0.321
Mof_C 	C 	0.4618	0.5614	0.473	0.033
Mof_H 	H 	0.4347	0.4883	0.4566	0.024
Mof_C 	C 	0.2902	0.5156	0.963	0.419
Mof_C 	C 	0.3273	0.586	0.8607	-0.324
Mof_H 	H 	0.3511	0.6543	0.9465	0.129
Mof_H 	H 	0.3404	0.4631	0.8175	0.132
Mof_Ni	Ni	0.77864	0.7686	0.27578	1.123
Mof_O 	O 	0.8064	0.9895	0.4589	-0.366
Mof_O 	O 	0.8078	0.9095	0.0916	-0.415
Mof_C 	C 	0.8787	0.2939	0.3363	-0.142
Mof_H 	H 	0.8791	0.1596	0.2911	0.08
Mof_O 	O 	0.7499	0.0469	0.9102	-0.437
Mof_O 	O 	0.7455	0.1236	0.5291	-0.408
Mof_C 	C 	0.8736	0.6736	0.4578	0.072
Mof_H 	H 	0.872	0.8078	0.5017	0.013
Mof_C 	C 	0.9599	0.269	0.4679	-0.008
Mof_N 	N 	0.8364	0.5967	0.3509	-0.217
Mof_C 	C 	0.8397	0.4076	0.3009	0.085
Mof_H 	H 	0.8138	0.3437	0.2362	0.005
Mof_C 	C 	0.9163	0.3762	0.4364	0.075
Mof_C 	C 	0.9126	0.5732	0.5061	-0.136
Mof_H 	H 	0.9369	0.6337	0.5848	0.08
Mof_N 	N 	0.7845	0.391	0.7688	-0.323
Mof_H 	H 	0.7851	0.5085	0.7043	0.138
Mof_H 	H 	0.7943	0.4198	0.887	0.125
Mof_C 	C 	0.8131	0.225	0.7076	-0.008
Mof_H 	H 	0.8395	0.2879	0.6715	0.04
Mof_C 	C 	0.7861	0.1004	0.5526	0.298
Mof_C 	C 	0.9618	0.0614	0.473	-0.037
Mof_H 	H 	0.9347	0.9883	0.4566	0.058
Mof_C 	C 	0.7902	0.0156	0.963	0.409
Mof_C 	C 	0.8273	0.086	0.8607	-0.354
Mof_H 	H 	0.8511	0.1543	0.9465	0.134
Mof_H 	H 	0.8404	0.9631	0.8175	0.151
Mof_Ni	Ni	0.72136	0.2686	0.72422	1.122
Mof_O 	O 	0.6936	0.4895	0.5411	-0.383
Mof_O 	O 	0.6922	0.4095	0.9084	-0.428
Mof_C 	C 	0.6213	0.7939	0.6637	-0.172
Mof_H 	H 	0.6209	0.6596	0.7089	0.096
Mof_O 	O 	0.7501	0.5469	0.0898	-0.434
Mof_O 	O 	0.7545	0.6236	0.4709	-0.41
Mof_C 	C 	0.6264	0.1736	0.5422	0.087
Mof_H 	H 	0.628	0.3078	0.4983	0.006
Mof_C 	C 	0.5401	0.769	0.5321	-0.056
Mof_N 	N 	0.6636	0.0967	0.6491	-0.23
Mof_C 	C 	0.6603	0.9076	0.6991	0.114
Mof_H 	H 	0.6862	0.8437	0.7638	0
Mof_C 	C 	0.5837	0.8762	0.5636	0.12
Mof_C 	C 	0.5874	0.0732	0.4939	-0.173
Mof_H 	H 	0.5631	0.1337	0.4152	0.09
Mof_N 	N 	0.7155	0.891	0.2312	-0.312
Mof_H 	H 	0.7149	0.0085	0.2957	0.126
Mof_H 	H 	0.7057	0.9198	0.113	0.126
Mof_C 	C 	0.6869	0.725	0.2924	-0.022
Mof_H 	H 	0.6605	0.7879	0.3285	0.049
Mof_C 	C 	0.7139	0.6004	0.4474	0.321
Mof_C 	C 	0.5382	0.5614	0.527	0.033
Mof_H 	H 	0.5653	0.4883	0.5434	0.024
Mof_C 	C 	0.7098	0.5156	0.037	0.419
Mof_C 	C 	0.6727	0.586	0.1393	-0.324
Mof_H 	H 	0.6489	0.6543	0.0535	0.129
Mof_H 	H 	0.6596	0.4631	0.1825	0.132
Mof_Ni	Ni	0.22136	0.7686	0.72422	1.123
Mof_O 	O 	0.1936	0.9895	0.5411	-0.366
Mof_O 	O 	0.1922	0.9095	0.9084	-0.415
Mof_C 	C 	0.1213	0.2939	0.6637	-0.142
Mof_H 	H 	0.1209	0.1596	0.7089	0.08
Mof_O 	O 	0.2501	0.0469	0.0898	-0.437
Mof_O 	O 	0.2545	0.1236	0.4709	-0.408
Mof_C 	C 	0.1264	0.6736	0.5422	0.072
Mof_H 	H 	0.128	0.8078	0.4983	0.013
Mof_C 	C 	0.0401	0.269	0.5321	-0.007
Mof_N 	N 	0.1636	0.5967	0.6491	-0.217
Mof_C 	C 	0.1603	0.4076	0.6991	0.085
Mof_H 	H 	0.1862	0.3437	0.7638	0.005
Mof_C 	C 	0.0837	0.3762	0.5636	0.076
Mof_C 	C 	0.0874	0.5732	0.4939	-0.136
Mof_H 	H 	0.0631	0.6337	0.4152	0.08
Mof_N 	N 	0.2155	0.391	0.2312	-0.323
Mof_H 	H 	0.2149	0.5085	0.2957	0.138
Mof_H 	H 	0.2057	0.4198	0.113	0.125
Mof_C 	C 	0.1869	0.225	0.2924	-0.008
Mof_H 	H 	0.1605	0.2879	0.3285	0.04
Mof_C 	C 	0.2139	0.1004	0.4474	0.298
Mof_C 	C 	0.0382	0.0614	0.527	-0.035
Mof_H 	H 	0.0653	0.9883	0.5434	0.058
Mof_C 	C 	0.2098	0.0156	0.037	0.409
Mof_C 	C 	0.1727	0.086	0.1393	-0.354
Mof_H 	H 	0.1489	0.1543	0.0535	0.134
Mof_H 	H 	0.1596	0.9631	0.1825	0.151
Mof_N 	N 	0.5	0.454	0.5	-0.12
Mof_C 	C 	0.5	0.875	0.5	0.001
Mof_H 	H 	0.5	0.0196	0.5	0.029
Mof_N 	N 	-4.64328e-18	0.954	0.5	-0.084
Mof_C 	C 	5.62133e-34	0.375	0.5	-0.058
Mof_H 	H 	4.64328e-18	0.5196	0.5	0.056
_end
