data_functionalizedCrystal
_audit_creation_method	'EQeq! by Chris Wilmer'
_symmetry_space_group_name_H-M	'P1'
_symmetry_Int_Tables_number	1
_symmetry_cell_setting	triclinic
loop_
_symmetry_equiv_pos_as_xyz
  x,y,z
_cell_length_a	10.741
_cell_length_b	10.804
_cell_length_c	14.05
_cell_angle_alpha	88.031
_cell_angle_beta	87.357
_cell_angle_gamma	68.716
loop_
_atom_site_label
_atom_site_type_symbol
_atom_site_fract_x
_atom_site_fract_y
_atom_site_fract_z
_atom_site_charge
Mof_Cu	Cu	0.24522	0.24381	0.5947	0.912
Mof_Cu	Cu	0.25127	0.25143	0.78033	0.909
Mof_H 	H 	0.7663	0.4368	0.6064	0.057
Mof_H 	H 	0.3572	0.8132	0.7554	0.074
Mof_H 	H 	0.4029	0.5923	0.6768	0.049
Mof_H 	H 	0.6775	0.1987	0.8088	0.059
Mof_H 	H 	0.2211	0.6668	0.8093	0.06
Mof_H 	H 	0.1302	0.6818	0.6199	0.08
Mof_H 	H 	0.4252	0.093	0.2595	0.072
Mof_H 	H 	0.4353	0.1389	0.9473	0.077
Mof_H 	H 	0.1309	0.8992	0.8083	0.052
Mof_H 	H 	0.4115	0.0886	0.4234	0.021
Mof_H 	H 	0.8098	0.3556	0.7626	0.075
Mof_H 	H 	0.0678	0.7145	0.781	0.044
Mof_H 	H 	0.912	0.0931	0.6854	0.053
Mof_H 	H 	0.063	0.3715	0.1166	0.034
Mof_H 	H 	0.0798	0.4127	0.2609	0.07
Mof_H 	H 	0.587	0.3658	0.5756	0.047
Mof_H 	H 	0.0752	0.3987	0.4276	0.024
Mof_H 	H 	0.8218	0.289	0.5661	0.063
Mof_H 	H 	0.439	0.1331	0.116	0.105
Mof_H 	H 	0.7339	0.0525	0.7653	0.046
Mof_H 	H 	0.0809	0.3652	0.9483	0.017
Mof_H 	H 	0.3757	0.0667	0.9503	-0.046
Mof_H 	H 	0.3575	0.5924	0.5699	0.045
Mof_H 	H 	0.6843	0.1376	0.61	0.078
Mof_H 	H 	0.1216	0.4443	0.1147	0.056
Mof_H 	H 	0.2652	0.8269	0.5657	0.062
Mof_H 	H 	0.5851	0.401	0.6855	0.05
Mof_H 	H 	0.9129	0.1256	0.7956	0.049
Mof_H 	H 	0.0827	0.9039	0.7017	0.05
Mof_H 	H 	0.131	0.4419	0.9491	0.008
Mof_H 	H 	0.4188	0.779	0.5934	0.061
Mof_H 	H 	0.3772	0.0607	0.1151	-0.022
Mof_C 	C 	0.7748	0.3439	0.621	-0.072
Mof_C 	C 	0.355	0.188	0.982	-0.188
Mof_C 	C 	0.175	0.3659	0.0825	-0.089
Mof_C 	C 	0.2886	0.8593	0.7075	-0.122
Mof_C 	C 	0.3333	0.6398	0.631	-0.058
Mof_C 	C 	0.1801	0.3632	0.9833	0.054
Mof_C 	C 	0.1485	0.3443	0.2928	-0.114
Mof_C 	C 	0.3291	0.7816	0.6156	-0.074
Mof_C 	C 	0.6355	0.3379	0.6355	-0.062
Mof_C 	C 	0.9989	0.291	0.6981	0.343
Mof_C 	C 	0.2093	0.4926	0.6782	0.358
Mof_C 	C 	0.1574	0.713	0.7595	-0.058
Mof_C 	C 	0.2497	0.2515	0.1346	0.049
Mof_C 	C 	0.1481	0.3371	0.3929	0.054
Mof_C 	C 	0.7238	0.1463	0.7526	-0.062
Mof_C 	C 	0.3236	0.1443	0.984	0.219
Mof_C 	C 	0.1537	0.8547	0.7461	-0.07
Mof_C 	C 	0.6402	0.1982	0.6639	-0.129
Mof_C 	C 	0.2512	0.2503	0.2413	0.041
Mof_C 	C 	0.8557	0.2953	0.709	-0.119
Mof_C 	C 	0.8624	0.1546	0.7365	-0.07
Mof_C 	C 	0.158	0.314	0.982	0.003
Mof_C 	C 	0.3249	0.14	0.0828	0.151
Mof_C 	C 	0.3438	0.1562	0.3902	0.064
Mof_C 	C 	0.4977	0.2038	0.6756	0.347
Mof_C 	C 	0.2817	0.0015	0.6987	0.344
Mof_C 	C 	0.3513	0.1565	0.292	-0.119
Mof_C 	C 	0.1984	0.6364	0.6682	-0.134
Mof_C 	C 	0.359	0.184	0.085	-0.261
Mof_C 	C 	0.145	0.32	0.086	-0.028
Mof_N 	N 	0.2517	0.2536	0.9337	-0.178
Mof_N 	N 	0.2468	0.2456	0.4419	-0.187
Mof_O 	O 	0.0549	0.2693	0.6167	-0.398
Mof_O 	O 	0.2661	0.0643	0.7758	-0.404
Mof_O 	O 	0.2877	0.0507	0.6171	-0.397
Mof_O 	O 	0.2319	0.4384	0.7595	-0.407
Mof_O 	O 	0.4354	0.2154	0.5994	-0.405
Mof_O 	O 	0.4475	0.1982	0.7577	-0.401
Mof_O 	O 	0.0538	0.3028	0.7727	-0.403
Mof_O 	O 	0.2	0.4384	0.6036	-0.41
Mof_Cu	Cu	0.74873	0.74857	0.21967	0.91
Mof_Cu	Cu	0.75478	0.75619	0.4053	0.913
Mof_H 	H 	0.9173	0.0961	0.2983	0.05
Mof_H 	H 	0.9191	0.6348	0.0517	0.017
Mof_H 	H 	0.6425	0.4076	0.4301	0.045
Mof_H 	H 	0.561	0.8669	0.884	0.105
Mof_H 	H 	0.5812	0.221	0.4066	0.061
Mof_H 	H 	0.0871	0.8744	0.2044	0.049
Mof_H 	H 	0.5971	0.4077	0.3232	0.049
Mof_H 	H 	0.5748	0.907	0.7405	0.072
Mof_H 	H 	0.9322	0.2855	0.219	0.044
Mof_H 	H 	0.3225	0.8013	0.1912	0.059
Mof_H 	H 	0.869	0.5581	0.0509	0.008
Mof_H 	H 	0.2661	0.9475	0.2347	0.046
Mof_H 	H 	0.088	0.9069	0.3146	0.053
Mof_H 	H 	0.9248	0.6013	0.5724	0.024
Mof_H 	H 	0.8784	0.5557	0.8853	0.056
Mof_H 	H 	0.8698	0.3182	0.3801	0.08
Mof_H 	H 	0.3157	0.8624	0.39	0.078
Mof_H 	H 	0.4149	0.599	0.3145	0.05
Mof_H 	H 	0.6243	0.9333	0.0497	-0.046
Mof_H 	H 	0.1782	0.711	0.4339	0.063
Mof_H 	H 	0.1902	0.6444	0.2374	0.075
Mof_H 	H 	0.9202	0.5873	0.7391	0.07
Mof_H 	H 	0.2337	0.5632	0.3936	0.057
Mof_H 	H 	0.5647	0.8611	0.0527	0.077
Mof_H 	H 	0.7789	0.3332	0.1907	0.06
Mof_H 	H 	0.5885	0.9114	0.5766	0.021
Mof_H 	H 	0.6428	0.1868	0.2446	0.074
Mof_H 	H 	0.7348	0.1731	0.4343	0.062
Mof_H 	H 	0.937	0.6285	0.8834	0.034
Mof_H 	H 	0.6228	0.9393	0.8849	-0.022
Mof_H 	H 	0.8691	0.1008	0.1917	0.052
Mof_H 	H 	0.413	0.6342	0.4244	0.047
Mof_C 	C 	0.3645	0.6621	0.3645	-0.062
Mof_C 	C 	0.8515	0.6557	0.7072	-0.114
Mof_C 	C 	0.645	0.812	0.018	-0.188
Mof_C 	C 	0.8519	0.6629	0.6071	0.054
Mof_C 	C 	0.0011	0.709	0.3019	0.343
Mof_C 	C 	0.6487	0.8435	0.708	-0.119
Mof_C 	C 	0.7503	0.7485	0.8654	0.049
Mof_C 	C 	0.8426	0.287	0.2405	-0.058
Mof_C 	C 	0.8016	0.3636	0.3318	-0.134
Mof_C 	C 	0.2252	0.6561	0.379	-0.072
Mof_C 	C 	0.855	0.68	0.914	-0.028
Mof_C 	C 	0.8199	0.6368	0.0167	0.054
Mof_C 	C 	0.5023	0.7962	0.3244	0.347
Mof_C 	C 	0.7183	0.9985	0.3013	0.344
Mof_C 	C 	0.6667	0.3602	0.369	-0.058
Mof_C 	C 	0.2762	0.8537	0.2474	-0.062
Mof_C 	C 	0.6764	0.8557	0.016	0.219
Mof_C 	C 	0.6709	0.2184	0.3844	-0.074
Mof_C 	C 	0.8463	0.1453	0.2539	-0.07
Mof_C 	C 	0.641	0.816	0.915	-0.261
Mof_C 	C 	0.7907	0.5074	0.3218	0.358
Mof_C 	C 	0.1443	0.7047	0.291	-0.119
Mof_C 	C 	0.7114	0.1407	0.2925	-0.122
Mof_C 	C 	0.842	0.686	0.018	0.003
Mof_C 	C 	0.6562	0.8438	0.6098	0.064
Mof_C 	C 	0.7488	0.7497	0.7587	0.041
Mof_C 	C 	0.3598	0.8018	0.3361	-0.129
Mof_C 	C 	0.6751	0.86	0.9172	0.151
Mof_C 	C 	0.825	0.6341	0.9175	-0.089
Mof_C 	C 	0.1376	0.8454	0.2635	-0.07
Mof_N 	N 	0.7532	0.7544	0.5581	-0.187
Mof_N 	N 	0.7483	0.7464	0.0663	-0.178
Mof_O 	O 	0.8	0.5616	0.3964	-0.41
Mof_O 	O 	0.5646	0.7846	0.4006	-0.405
Mof_O 	O 	0.7681	0.5616	0.2405	-0.407
Mof_O 	O 	0.9451	0.7307	0.3833	-0.398
Mof_O 	O 	0.7123	0.9493	0.3829	-0.397
Mof_O 	O 	0.7339	0.9357	0.2242	-0.404
Mof_O 	O 	0.5525	0.8018	0.2423	-0.401
Mof_O 	O 	0.9462	0.6972	0.2273	-0.403
_end
