data_functionalizedCrystal
_audit_creation_method	'EQeq! by Chris Wilmer'
_symmetry_space_group_name_H-M	'P1'
_symmetry_Int_Tables_number	1
_symmetry_cell_setting	triclinic
loop_
_symmetry_equiv_pos_as_xyz
  x,y,z
_cell_length_a	21.863
_cell_length_b	26.7455
_cell_length_c	36.741
_cell_angle_alpha	109.617
_cell_angle_beta	90
_cell_angle_gamma	114.125
loop_
_atom_site_label
_atom_site_type_symbol
_atom_site_fract_x
_atom_site_fract_y
_atom_site_fract_z
_atom_site_charge
Mof_Cu	Cu	0.15714	0.84324	0.33466	0.846
Mof_Cu	Cu	0.84286	0.15676	0.66534	0.847
Mof_Cu	Cu	0.22059	0.81324	0.52512	0.819
Mof_Cu	Cu	0.6861	0.84324	0.83466	0.847
Mof_Cu	Cu	0.69013	0.83588	0.60766	0.781
Mof_Cu	Cu	0.84981	0.16008	0.19356	0.887
Mof_Cu	Cu	0.51817	0.4988	0.21801	0.856
Mof_Cu	Cu	0.30987	0.16412	0.39234	0.781
Mof_Cu	Cu	-4.98832e-17	0.5	-0	0.849
Mof_Cu	Cu	0.15019	0.83992	0.80644	0.886
Mof_Cu	Cu	0.01937	0.5012	0.28199	0.853
Mof_Cu	Cu	0.98063	0.4988	0.71801	0.856
Mof_Cu	Cu	0.59265	0.81324	0.02512	0.818
Mof_Cu	Cu	0.5	0.5	0.5	0.852
Mof_Cu	Cu	0.14575	0.83588	0.10766	0.78
Mof_Cu	Cu	0.3139	0.15676	0.16534	0.845
Mof_Cu	Cu	0.31027	0.16008	0.69356	0.885
Mof_Cu	Cu	0.77941	0.18676	0.47488	0.818
Mof_Cu	Cu	0.68973	0.83992	0.30644	0.886
Mof_Cu	Cu	0.40735	0.18676	0.97488	0.819
Mof_Cu	Cu	0.85425	0.16412	0.89234	0.781
Mof_Cu	Cu	0.48183	0.5012	0.78199	0.855
Mof_P 	P 	0.49571	0.98662	0.69344	0.564
Mof_P 	P 	0.50909	0.01338	0.80656	0.564
Mof_P 	P 	0.49091	0.98662	0.19344	0.563
Mof_P 	P 	0.50429	0.01338	0.30656	0.564
Mof_H 	H 	0.6543	0.5846	0.1991	-0.025
Mof_H 	H 	0.2881	0.0284	0.1028	-0.039
Mof_H 	H 	0.7188	0.3194	0.8095	0.01
Mof_H 	H 	0.6036	0.3954	0.6124	0.084
Mof_H 	H 	0.2805	0.668	0.7581	0.038
Mof_H 	H 	0.3859	0.4674	0.3566	0.051
Mof_H 	H 	0.1539	0.1294	0.405	-0.028
Mof_H 	H 	0.8377	0.351	0.1555	0.06
Mof_H 	H 	0.1562	0.717	0.8971	0.039
Mof_H 	H 	0.8157	0.9212	0.1644	0.054
Mof_H 	H 	0.1843	0.0788	0.8356	0.057
Mof_H 	H 	0.4392	0.283	0.6029	0.039
Mof_H 	H 	0.9649	0.5722	0.5796	0.039
Mof_H 	H 	0.4893	0.0282	0.9756	0.07
Mof_H 	H 	0.6634	0.6478	0.6938	0.074
Mof_H 	H 	0.0697	0.4154	0.3009	-0.027
Mof_H 	H 	0.3847	0.8366	0.4269	0.029
Mof_H 	H 	0.5332	0.6698	0.9948	-0.018
Mof_H 	H 	0.9022	0.0132	0.3619	0.062
Mof_H 	H 	0.9303	0.5846	0.6991	-0.024
Mof_H 	H 	0.4307	0.738	0.8998	0.067
Mof_H 	H 	0.8955	0.562	0.1823	0.046
Mof_H 	H 	0.611	0.0304	0.0079	0.029
Mof_H 	H 	0.7782	0.9606	0.6751	-0.047
Mof_H 	H 	0.2553	0.2596	0.3922	-0.029
Mof_H 	H 	0.8655	0.9448	0.9781	0.046
Mof_H 	H 	0.05	0.8668	0.6307	0.036
Mof_H 	H 	0.1345	0.0552	0.0219	0.048
Mof_H 	H 	0.9169	0.4406	0.4095	0.065
Mof_H 	H 	0.0925	0.9862	0.9387	0.032
Mof_H 	H 	0.1623	0.649	0.8445	0.06
Mof_H 	H 	0.7762	0.1832	0.2658	-0.003
Mof_H 	H 	0.1047	0.8148	0.5781	-0.024
Mof_H 	H 	0.753	0.2098	0.7208	-0.011
Mof_H 	H 	0.3355	0.0578	0.9123	0.003
Mof_H 	H 	0.0303	0.0906	0.7264	0.076
Mof_H 	H 	0.5321	0.8932	0.0118	-0.039
Mof_H 	H 	0.4634	0.2178	0.9039	-0.037
Mof_H 	H 	0.4133	0.5464	0.2028	-0.032
Mof_H 	H 	0.8166	0.0306	0.1868	0.017
Mof_H 	H 	0.4233	0.6894	0.7514	0.051
Mof_H 	H 	0.7855	0.694	0.6505	0.039
Mof_H 	H 	0.9791	0.0624	0.7916	0.059
Mof_H 	H 	0.3246	0.3856	0.3849	0.057
Mof_H 	H 	0.8354	0.4178	0.4575	0.049
Mof_H 	H 	0.9904	0.0422	0.3275	0.072
Mof_H 	H 	0.3927	0.4278	0.9204	0.042
Mof_H 	H 	0.6932	0.2916	0.2875	0.027
Mof_H 	H 	0.3367	0.6378	0.8042	0.034
Mof_H 	H 	0.4285	0.3672	0.7199	-0.021
Mof_H 	H 	0.4727	0.7238	0.2334	0.062
Mof_H 	H 	0.9456	0.0646	0.4011	0.054
Mof_H 	H 	0.9787	0.8378	0.2045	0.06
Mof_H 	H 	0.3601	0.4864	0.4585	-0.021
Mof_H 	H 	0.1671	0.0634	0.5204	0.065
Mof_H 	H 	0.0174	0.0252	0.2237	0.065
Mof_H 	H 	0.6399	0.5136	0.5415	-0.021
Mof_H 	H 	0.7933	0.7934	0.8059	-0.025
Mof_H 	H 	0.5767	0.3106	0.2486	0.051
Mof_H 	H 	0.0537	0.993	0.4973	0.036
Mof_H 	H 	0.0114	0.9864	0.3548	0.042
Mof_H 	H 	0.061	0.3856	0.8849	0.05
Mof_H 	H 	0.5038	0.288	0.3409	0.082
Mof_H 	H 	0.4668	0.3302	0.0052	-0.027
Mof_H 	H 	0.9482	0.9578	0.1725	0.053
Mof_H 	H 	0.3611	0.8932	0.5118	-0.04
Mof_H 	H 	0.3366	0.3522	0.3062	0.074
Mof_H 	H 	0.1008	0.534	0.2182	-0.025
Mof_H 	H 	0.8685	0.3456	0.0733	0.012
Mof_H 	H 	0.7339	0.3106	0.7486	0.051
Mof_H 	H 	0.2597	0.9716	0.3972	-0.039
Mof_H 	H 	0.4621	0.635	0.173	0.075
Mof_H 	H 	0.6389	0.1068	0.4882	-0.04
Mof_H 	H 	0.0732	0.9584	0.0441	0.04
Mof_H 	H 	0.8227	0.0132	0.0029	0.084
Mof_H 	H 	0.2904	0.0978	0.0094	-0.021
Mof_H 	H 	0.0481	0.9838	0.4354	0.039
Mof_H 	H 	0.9387	0.3672	0.2199	-0.02
Mof_H 	H 	0.4554	0.137	0.147	0.005
Mof_H 	H 	0.5199	0.679	0.6798	0.104
Mof_H 	H 	0.1729	0.635	0.673	0.075
Mof_H 	H 	0.6816	0.137	0.647	0.005
Mof_H 	H 	0.9755	0.1294	0.905	-0.027
Mof_H 	H 	0.8937	0.9862	0.4387	0.032
Mof_H 	H 	0.9455	0.1374	0.8029	0.038
Mof_H 	H 	0.7648	0.2584	0.0909	0.04
Mof_H 	H 	0.1037	0.9366	0.9796	0.063
Mof_H 	H 	0.7096	0.9022	0.9906	-0.021
Mof_H 	H 	0.7544	0.2178	0.4039	-0.037
Mof_H 	H 	0.2848	0.8162	0.8099	-0.019
Mof_H 	H 	0.9677	0.8996	0.6366	0.049
Mof_H 	H 	0.3002	0.7334	0.3318	0.072
Mof_H 	H 	0.5274	0.4792	0.9773	0.041
Mof_H 	H 	0.7953	0.3346	0.0582	0.015
Mof_H 	H 	0.4686	0.1838	0.6901	-0.019
Mof_H 	H 	0.5272	0.6998	0.1424	0.048
Mof_H 	H 	0.9741	0.1702	0.2432	-0.034
Mof_H 	H 	0.9858	0.3808	0.8422	0.094
Mof_H 	H 	0.7918	0.3954	0.1124	0.084
Mof_H 	H 	0.5668	0.2666	0.1682	0.072
Mof_H 	H 	0.3073	0.738	0.3998	0.067
Mof_H 	H 	0.8039	0.8298	0.2568	-0.034
Mof_H 	H 	0.0156	0.3522	0.8062	0.081
Mof_H 	H 	0.5133	0.351	0.6555	0.06
Mof_H 	H 	0.5396	0.5938	0.4615	-0.039
Mof_H 	H 	0.5355	0.2606	0.289	0.02
Mof_H 	H 	0.1742	0.0932	0.6272	-0.02
Mof_H 	H 	0.0571	0.3042	0.8115	0.053
Mof_H 	H 	0.2661	0.6894	0.2514	0.051
Mof_H 	H 	0.8438	0.283	0.1029	0.039
Mof_H 	H 	0.1665	0.5908	0.1467	0.039
Mof_H 	H 	0.95	0.1332	0.3693	0.044
Mof_H 	H 	0.2577	0.6174	0.7167	0.036
Mof_H 	H 	0.7195	0.332	0.2419	0.038
Mof_H 	H 	0.9146	0.9416	0.2172	0.057
Mof_H 	H 	0.1219	0.754	0.8518	-0.022
Mof_H 	H 	0.201	0.6366	0.2235	0.069
Mof_H 	H 	0.5064	0.7416	0.4091	0.04
Mof_H 	H 	0.5821	0.989	0.9641	0.041
Mof_H 	H 	0.5613	0.4252	0.9989	0.044
Mof_H 	H 	0.9085	0.694	0.1505	0.034
Mof_H 	H 	0.9519	0.0162	0.5646	0.039
Mof_H 	H 	0.6633	0.3622	0.1958	0.034
Mof_H 	H 	0.9357	0.9838	0.9354	0.042
Mof_H 	H 	0.2586	0.9112	0.8838	-0.011
Mof_H 	H 	0.396	0.6232	0.6276	0.029
Mof_H 	H 	0.1832	0.1332	0.8693	0.041
Mof_H 	H 	0.5089	0.7492	0.1701	0.027
Mof_H 	H 	0.0371	0.6292	0.0576	-0.044
Mof_H 	H 	0.8565	0.1004	0.7316	-0.029
Mof_H 	H 	0.4607	0.6654	0.4418	0.016
Mof_H 	H 	0.8335	0.4092	0.8533	0.04
Mof_H 	H 	0.8816	0.9564	0.7445	0.06
Mof_H 	H 	0.389	0.9696	0.9921	0.031
Mof_H 	H 	0.5836	0.3448	0.8457	0.05
Mof_H 	H 	0.7618	0.3286	0.139	0.056
Mof_H 	H 	0.3457	0.4154	0.8009	-0.026
Mof_H 	H 	0.2899	0.1852	0.9219	-0.023
Mof_H 	H 	0.9429	0.6958	0.1885	0.047
Mof_H 	H 	0.0482	0.5208	0.5227	0.034
Mof_H 	H 	0.4179	0.011	0.0359	0.038
Mof_H 	H 	0.4332	0.6714	0.361	0.056
Mof_H 	H 	0.7152	0.1838	0.1901	-0.019
Mof_H 	H 	0.6998	0.2666	0.6682	0.072
Mof_H 	H 	0.0788	0.618	0.5939	0.086
Mof_H 	H 	0.0245	0.8706	0.095	-0.028
Mof_H 	H 	0.1315	0.6544	0.9267	0.012
Mof_H 	H 	0.2352	0.7416	0.9091	0.041
Mof_H 	H 	0.9185	0.5326	0.1434	0.057
Mof_H 	H 	0.7728	0.3768	0.8724	0.029
Mof_H 	H 	0.1331	0.5464	0.7028	-0.032
Mof_H 	H 	0.6657	0.7092	0.2408	-0.013
Mof_H 	H 	0.4611	0.9718	0.5244	0.063
Mof_H 	H 	0.4728	0.3002	0.8576	0.048
Mof_H 	H 	0.2471	0.3042	0.3115	0.05
Mof_H 	H 	0.0323	0.1004	0.3634	0.065
Mof_H 	H 	0.6073	0.5722	0.0796	0.041
Mof_H 	H 	0.5229	0.6544	0.4267	0.012
Mof_H 	H 	0.0142	0.6192	0.1578	0.068
Mof_H 	H 	0.3011	0.6378	0.3042	0.034
Mof_H 	H 	0.4378	0.3572	0.1666	-0.015
Mof_H 	H 	0.8271	0.365	0.327	0.076
Mof_H 	H 	0.6141	0.5326	0.6434	0.051
Mof_H 	H 	0.0681	0.1004	0.8634	0.061
Mof_H 	H 	0.5757	0.4092	0.3533	0.04
Mof_H 	H 	0.919	0.0932	0.1272	-0.018
Mof_H 	H 	0.3593	0.7276	0.8319	0.054
Mof_H 	H 	0.0078	0.0252	0.7237	0.063
Mof_H 	H 	0.2382	0.6714	0.861	0.056
Mof_H 	H 	0.0607	0.007	0.0027	0.038
Mof_H 	H 	0.0435	0.7092	0.7408	-0.014
Mof_H 	H 	0.3068	0.7084	0.7125	0.028
Mof_H 	H 	0.0603	0.0906	0.2264	0.079
Mof_H 	H 	0.2082	0.6046	0.8876	0.084
Mof_H 	H 	0.5379	0.365	0.827	0.076
Mof_H 	H 	0.4911	0.2508	0.8299	0.027
Mof_H 	H 	0.7612	0.3448	0.3457	0.05
Mof_H 	H 	0.2777	0.9422	0.5877	0.002
Mof_H 	H 	0.4332	0.7334	0.8318	0.072
Mof_H 	H 	0.5456	0.5098	0.0664	0.031
Mof_H 	H 	0.0542	0.5938	0.9615	-0.039
Mof_H 	H 	0.7251	0.2606	0.789	0.02
Mof_H 	H 	0.4351	0.8338	0.8846	0.031
Mof_H 	H 	0.654	0.7098	0.7851	-0.017
Mof_H 	H 	0.1063	0.0138	0.5613	0.029
Mof_H 	H 	0.5921	0.6292	0.5576	-0.042
Mof_H 	H 	0.5388	0.5758	0.0251	0.046
Mof_H 	H 	0.5137	0.5062	0.8685	-0.03
Mof_H 	H 	0.4771	0.3456	0.5733	0.012
Mof_H 	H 	0.1919	0.1374	0.3029	0.042
Mof_H 	H 	0.1184	0.0436	0.2555	0.055
Mof_H 	H 	0.1017	0.1248	0.791	0.046
Mof_H 	H 	0.0259	0.8298	0.7568	-0.035
Mof_H 	H 	0.845	0.1972	0.8182	-0.037
Mof_H 	H 	0.4962	0.712	0.6591	0.082
Mof_H 	H 	0.8258	0.9068	0.3728	-0.018
Mof_H 	H 	0.9629	0.3708	0.9424	-0.04
Mof_H 	H 	0.3031	0.6412	0.3475	0.039
Mof_H 	H 	0.9675	0.9646	0.6032	0.045
Mof_H 	H 	0.8274	0.3002	0.3576	0.048
Mof_H 	H 	0.4176	0.5822	0.0425	0.05
Mof_H 	H 	0.5715	0.6328	0.2801	-0.021
Mof_H 	H 	0.3994	0.6806	0.6905	0.01
Mof_H 	H 	0.5481	0.1634	0.0731	0.028
Mof_H 	H 	0.1676	0.1034	0.1143	-0.023
Mof_H 	H 	0.9565	0.2908	0.2592	-0.012
Mof_H 	H 	0.6754	0.6144	0.6151	0.057
Mof_H 	H 	0.2158	0.712	0.1591	0.082
Mof_H 	H 	0.593	0.8168	0.2342	-0.003
Mof_H 	H 	0.5867	0.4536	0.7972	-0.031
Mof_H 	H 	0.5431	0.0608	0.5204	0.055
Mof_H 	H 	0.5844	0.4718	0.4296	-0.025
Mof_H 	H 	0.1684	0.032	0.9545	0.043
Mof_H 	H 	0.3597	0.6174	0.2167	0.036
Mof_H 	H 	0.6013	0.1662	0.6154	0.03
Mof_H 	H 	0.9925	0.5062	0.3685	-0.022
Mof_H 	H 	0.6125	0.332	0.7419	0.038
Mof_H 	H 	0.9358	0.1034	0.6143	-0.022
Mof_H 	H 	0.2272	0.6232	0.1276	0.029
Mof_H 	H 	0.5314	0.8162	0.3099	-0.019
Mof_H 	H 	0.8636	0.032	0.4545	0.043
Mof_H 	H 	0.067	0.4622	0.7604	-0.034
Mof_H 	H 	0.0075	0.4938	0.6315	-0.038
Mof_H 	H 	0.5668	0.3286	0.639	0.056
Mof_H 	H 	0.6314	0.4526	0.2108	-0.022
Mof_H 	H 	0.0325	0.0354	0.3968	0.033
Mof_H 	H 	0.7529	0.6958	0.6885	0.05
Mof_H 	H 	0.1726	0.6998	0.6424	0.048
Mof_H 	H 	0.3542	0.187	0.0923	-0.038
Mof_H 	H 	0.8737	0.5136	0.0415	-0.021
Mof_H 	H 	0.8316	0.968	0.0455	0.04
Mof_H 	H 	0.1672	0.813	0.4077	-0.038
Mof_H 	H 	0.3381	0.6412	0.8475	0.039
Mof_H 	H 	0.3184	0.863	0.353	0.005
Mof_H 	H 	0.6645	0.9422	0.0877	0.002
Mof_H 	H 	0.1905	0.0132	0.5029	0.083
Mof_H 	H 	0.7842	0.288	0.8409	0.082
Mof_H 	H 	0.0793	0.9448	0.4781	0.046
Mof_H 	H 	0.6317	0.2724	0.6681	0.054
Mof_H 	H 	0.8874	0.4718	0.9296	-0.024
Mof_H 	H 	0.939	0.6144	0.1151	0.066
Mof_H 	H 	0.6458	0.813	0.9077	-0.037
Mof_H 	H 	0.0358	0.4902	0.4336	0.034
Mof_H 	H 	0.4356	0.6366	0.7235	0.069
Mof_H 	H 	0.4823	0.9392	0.9796	0.051
Mof_H 	H 	0.933	0.5378	0.2396	-0.036
Mof_H 	H 	0.3683	0.7276	0.3319	0.054
Mof_H 	H 	0.1148	0.0416	0.4559	0.044
Mof_H 	H 	0.3964	0.6046	0.3876	0.084
Mof_H 	H 	0.5693	0.262	0.1002	0.067
Mof_H 	H 	0.9194	0.3572	0.6666	-0.014
Mof_H 	H 	0.7223	0.0578	0.4123	0.002
Mof_H 	H 	0.1409	0.1622	0.2955	0.055
Mof_H 	H 	0.0642	0.8966	0.3857	-0.023
Mof_H 	H 	0.1961	0.1702	0.7432	-0.035
Mof_H 	H 	0.346	0.2902	0.2149	-0.018
Mof_H 	H 	0.383	0.7498	0.3974	0.051
Mof_H 	H 	0.1196	0.4016	0.8597	0.046
Mof_H 	H 	0.0854	0.0584	0.7828	0.054
Mof_H 	H 	0.9957	0.7404	0.1078	-0.022
Mof_H 	H 	0.4604	0.4062	0.5385	-0.039
Mof_H 	H 	0.1824	0.9606	0.1751	-0.047
Mof_H 	H 	0.8804	0.5984	0.1403	0.059
Mof_H 	H 	0.0831	0.5594	0.5905	0.072
Mof_H 	H 	0.1126	0.5282	0.0704	-0.026
Mof_H 	H 	0.4801	0.321	0.3202	0.104
Mof_H 	H 	0.0351	0.4278	0.4204	0.044
Mof_H 	H 	0.6478	0.8028	0.6818	-0.037
Mof_H 	H 	0.0518	0.0422	0.8275	0.062
Mof_H 	H 	0.7101	0.8148	0.0781	-0.023
Mof_H 	H 	0.3679	0.246	0.6482	-0.022
Mof_H 	H 	0.9769	0.8752	0.709	0.057
Mof_H 	H 	0.4863	0.4938	0.1315	-0.031
Mof_H 	H 	0.799	0.3634	0.7765	0.069
Mof_H 	H 	0.4568	0.2098	0.2208	-0.011
Mof_H 	H 	0.395	0.3808	0.3422	0.082
Mof_H 	H 	0.1834	0.9694	0.8132	0.017
Mof_H 	H 	0.9518	0.4792	0.4773	0.044
Mof_H 	H 	0.8095	0.9868	0.4971	0.082
Mof_H 	H 	0.881	0.9354	0.0989	0.063
Mof_H 	H 	0.5668	0.466	0.2818	-0.025
Mof_H 	H 	0.9207	0.0552	0.5219	0.048
Mof_H 	H 	0.025	0.0136	0.1452	0.055
Mof_H 	H 	0.8168	0.8668	0.1307	0.039
Mof_H 	H 	0.4679	0.1068	0.9882	-0.04
Mof_H 	H 	0.5644	0.3634	0.2765	0.069
Mof_H 	H 	0.9442	0.2902	0.7149	-0.017
Mof_H 	H 	0.0001	0.7934	0.3059	-0.025
Mof_H 	H 	0.5273	0.2762	0.7666	0.062
Mof_H 	H 	0.4069	0.989	0.4641	0.04
Mof_H 	H 	0.027	0.9416	0.7172	0.061
Mof_H 	H 	0.6048	0.5378	0.7396	-0.035
Mof_H 	H 	0.0213	0.1622	0.7955	0.048
Mof_H 	H 	0.5622	0.6428	0.8334	-0.014
Mof_H 	H 	0.8634	0.3302	0.5052	-0.022
Mof_H 	H 	0.4544	0.4902	0.9336	0.032
Mof_H 	H 	0.1045	0.438	0.8177	0.035
Mof_H 	H 	0.605	0.6192	0.6578	0.082
Mof_H 	H 	0.2067	0.2066	0.1941	-0.026
Mof_H 	H 	0.1591	0.679	0.1798	0.104
Mof_H 	H 	0.1773	0.9868	0.9971	0.082
Mof_H 	H 	0.604	0.3768	0.3724	0.029
Mof_H 	H 	0.9826	0.9748	0.7763	0.06
Mof_H 	H 	0.8409	0.321	0.8202	0.104
Mof_H 	H 	0.0978	0.9868	0.6381	0.074
Mof_H 	H 	0.2511	0.7238	0.7334	0.062
Mof_H 	H 	0.1788	0.5474	0.2892	-0.022
Mof_H 	H 	0.1366	0.6698	0.4948	-0.023
Mof_H 	H 	0.4016	0.7084	0.2125	0.028
Mof_H 	H 	0.5392	0.618	0.0939	0.083
Mof_H 	H 	0.9999	0.2066	0.6941	-0.025
Mof_H 	H 	0.8963	0.0634	0.0204	0.066
Mof_H 	H 	0.8212	0.4526	0.7108	-0.022
Mof_H 	H 	0.8461	0.8706	0.595	-0.027
Mof_H 	H 	0.2047	0.6654	0.9418	0.016
Mof_H 	H 	0.5446	0.863	0.853	0.005
Mof_H 	H 	0.0231	0.1248	0.291	0.038
Mof_H 	H 	0.5366	0.7822	0.0961	-0.037
Mof_H 	H 	0.889	0.9868	0.1381	0.072
Mof_H 	H 	0.4519	0.8366	0.9269	0.029
Mof_H 	H 	0.8669	0.4536	0.2972	-0.031
Mof_H 	H 	0.5608	0.717	0.3971	0.039
Mof_H 	H 	0.4612	0.4242	0.9749	0.049
Mof_H 	H 	0.3875	0.668	0.2581	0.038
Mof_H 	H 	0.0643	0.0162	0.0646	0.036
Mof_H 	H 	0.9212	0.382	0.4061	0.079
Mof_H 	H 	0.1316	0.584	0.8726	0.085
Mof_H 	H 	0.8684	0.416	0.1274	0.086
Mof_H 	H 	0.9393	0.993	0.9973	0.038
Mof_H 	H 	0.282	0.4016	0.3597	0.052
Mof_H 	H 	0.0806	0.6428	0.3334	-0.015
Mof_H 	H 	0.5237	0.4406	0.9095	0.068
Mof_H 	H 	0.1646	0.5822	0.5425	0.051
Mof_H 	H 	0.0209	0.9376	0.2084	0.057
Mof_H 	H 	0.4156	0.5282	0.5704	-0.025
Mof_H 	H 	0.1926	0.9022	0.4906	-0.021
Mof_H 	H 	0.3343	0.2908	0.7592	-0.013
Mof_H 	H 	0.5649	0.1662	0.1154	0.03
Mof_H 	H 	0.4936	0.2584	0.5909	0.04
Mof_H 	H 	0.4867	0.649	0.3445	0.06
Mof_H 	H 	0.9844	0.6478	0.1938	0.066
Mof_H 	H 	0.9458	0.4062	0.0385	-0.038
Mof_H 	H 	0.0545	0.8626	0.1971	0.043
Mof_H 	H 	0.1435	0.8996	0.2684	-0.029
Mof_H 	H 	0.8176	0.0394	0.8249	-0.047
Mof_H 	H 	0.2403	0.7492	0.6701	0.027
Mof_H 	H 	0.4164	0.6552	0.1543	0.05
Mof_H 	H 	0.4726	0.5208	0.0227	0.038
Mof_H 	H 	0.3686	0.5474	0.7892	-0.022
Mof_H 	H 	0.4194	0.0304	0.5079	0.03
Mof_H 	H 	0.0043	0.2596	0.8922	-0.034
Mof_H 	H 	0.9397	0.9094	0.7736	0.073
Mof_H 	H 	0.1364	0.968	0.5455	0.041
Mof_H 	H 	0.7403	0.0284	0.6028	-0.039
Mof_H 	H 	0.8945	0.0788	0.3356	0.06
Mof_H 	H 	0.8983	0.8752	0.209	0.048
Mof_H 	H 	0.8992	0.466	0.7818	-0.025
Mof_H 	H 	0.8329	0.9366	0.4796	0.064
Mof_H 	H 	0.8074	0.0978	0.5094	-0.02
Mof_H 	H 	0.155	0.8028	0.1818	-0.038
Mof_H 	H 	0.407	0.1832	0.7658	-0.003
Mof_H 	H 	0.6927	0.262	0.6002	0.067
Mof_H 	H 	0.9463	0.007	0.5027	0.04
Mof_H 	H 	0.8591	0.8378	0.7045	0.053
Mof_H 	H 	0.0915	0.306	0.8495	0.042
Mof_H 	H 	0.5806	0.9696	0.4921	0.03
Mof_H 	H 	0.1361	0.5748	0.5011	0.044
Mof_H 	H 	0.5107	0.9718	0.0244	0.056
Mof_H 	H 	0.9642	0.5098	0.5664	0.029
Mof_H 	H 	0.3474	0.0888	0.6162	-0.011
Mof_H 	H 	0.6321	0.754	0.3518	-0.021
Mof_H 	H 	0.1055	0.9212	0.6644	0.052
Mof_H 	H 	0.2145	0.306	0.3495	0.038
Mof_H 	H 	0.1263	0.4864	0.9585	-0.021
Mof_H 	H 	0.973	0.0584	0.2828	0.05
Mof_H 	H 	0.247	0.7902	0.2792	-0.011
Mof_H 	H 	0.786	0.9694	0.3132	0.017
Mof_H 	H 	0.2749	0.7394	0.211	0.02
Mof_H 	H 	0.111	0.0132	0.8619	0.064
Mof_H 	H 	0.7489	0.2762	0.2666	0.062
Mof_H 	H 	0.0544	0.9354	0.5989	0.064
Mof_H 	H 	0.9922	0.9748	0.2763	0.063
Mof_H 	H 	0.0833	0.0624	0.2916	0.055
Mof_H 	H 	0.6153	0.1634	0.5731	0.029
Mof_H 	H 	0.5824	0.4178	0.9575	0.05
Mof_H 	H 	0.8324	0.8966	0.8857	-0.021
Mof_H 	H 	0.7447	0.7404	0.6078	-0.028
Mof_H 	H 	0.5432	0.7902	0.7792	-0.011
Mof_H 	H 	0.9252	0.0436	0.7555	0.058
Mof_H 	H 	0.3522	0.1972	0.3182	-0.037
Mof_H 	H 	0.7597	0.2508	0.3299	0.027
Mof_H 	H 	0.8328	0.187	0.5923	-0.037
Mof_H 	H 	0.9697	0.9094	0.2736	0.077
Mof_H 	H 	0.2388	0.6552	0.6543	0.05
Mof_H 	H 	0.6619	0.3588	0.1525	0.039
Mof_H 	H 	0.4387	0.5748	0.0011	0.042
Mof_H 	H 	0.6403	0.3826	0.7833	0.037
Mof_H 	H 	0.2456	0.7822	0.5961	-0.037
Mof_H 	H 	0.8639	0.4252	0.4989	0.042
Mof_H 	H 	0.7561	0.8996	0.7684	-0.029
Mof_H 	H 	0.9319	0.8996	0.1366	0.052
Mof_H 	H 	0.6407	0.2724	0.1681	0.054
Mof_H 	H 	0.7119	0.9716	0.8972	-0.039
Mof_H 	H 	0.214	0.0306	0.6868	0.017
Mof_H 	H 	0.3952	0.4622	0.2604	-0.035
Mof_H 	H 	0.8953	0.1852	0.4219	-0.022
Mof_H 	H 	0.7414	0.0888	0.1162	-0.011
Mof_H 	H 	0.4332	0.534	0.7182	-0.025
Mof_H 	H 	0.037	0.5758	0.5251	0.043
Mof_H 	H 	0.0096	0.9578	0.6725	0.045
Mof_H 	H 	0.4645	0.7394	0.711	0.02
Mof_H 	H 	0.4079	0.3708	0.4424	-0.042
Mof_H 	H 	0.4243	0.5908	0.6467	0.04
Mof_H 	H 	0.6989	0.3622	0.6958	0.034
Mof_H 	H 	0.975	0.9864	0.8548	0.044
Mof_H 	H 	0.119	0.0646	0.9011	0.056
Mof_H 	H 	0.6665	0.562	0.6823	0.041
Mof_H 	H 	0.963	0.4242	0.4749	0.052
Mof_H 	H 	0.4608	0.382	0.9061	0.082
Mof_H 	H 	0.0748	0.9564	0.2445	0.058
Mof_H 	H 	0.4524	0.584	0.3726	0.086
Mof_H 	H 	0.718	0.5984	0.6403	0.052
Mof_H 	H 	0.9167	0.9376	0.7084	0.062
Mof_H 	H 	0.0613	0.6328	0.7801	-0.022
Mof_H 	H 	0.9268	0.0416	0.9559	0.046
Mof_H 	H 	0.9886	0.0136	0.6452	0.055
Mof_H 	H 	0.5984	0.2916	0.7875	0.028
Mof_H 	H 	0.6332	0.2502	0.1026	0.051
Mof_H 	H 	0.3668	0.7498	0.8974	0.052
Mof_H 	H 	0.0029	0.0354	0.8968	0.03
Mof_H 	H 	0.2812	0.6806	0.1905	0.01
Mof_H 	H 	0.2238	0.8168	0.7342	-0.003
Mof_H 	H 	0.8781	0.246	0.1482	-0.021
Mof_H 	H 	0.3987	0.8338	0.3846	0.031
Mof_H 	H 	0.5177	0.0608	0.0204	0.06
Mof_H 	H 	0.2218	0.0394	0.3249	-0.047
Mof_H 	H 	0.6969	0.3588	0.6525	0.039
Mof_H 	H 	0.4763	0.5594	0.0905	0.069
Mof_H 	H 	0.5393	0.3346	0.5582	0.015
Mof_H 	H 	0.9075	0.0138	0.0613	0.03
Mof_H 	H 	0.617	0.2502	0.6026	0.051
Mof_H 	H 	0.8852	0.9584	0.5441	0.044
Mof_H 	H 	0.5476	0.416	0.6274	0.086
Mof_H 	H 	0.4569	0.9392	0.4796	0.055
Mof_H 	H 	0.081	0.9068	0.8728	-0.019
Mof_H 	H 	0.6526	0.9112	0.3838	-0.011
Mof_H 	H 	0.3335	0.438	0.3177	0.04
Mof_H 	H 	0.9971	0.9646	0.1032	0.051
Mof_H 	H 	0.2439	0.1004	0.2316	-0.029
Mof_H 	H 	0.8081	0.8626	0.6971	0.04
Mof_H 	H 	0.0558	0.7098	0.2851	-0.018
Mof_H 	H 	0.5389	0.0282	0.4756	0.063
Mof_H 	H 	0.6006	0.3194	0.3095	0.01
Mof_H 	H 	0.7423	0.3826	0.2833	0.037
Mof_H 	H 	0.5931	0.011	0.5359	0.04
Mof_H 	H 	0.0815	0.4674	0.8566	0.045
Mof_W 	W 	0.40457	0.08848	0.81433	1.087
Mof_W 	W 	0.39003	0.05684	0.70641	1.36
Mof_W 	W 	0.47764	0.0406	0.62066	1.027
Mof_W 	W 	0.4347	0.85932	0.78049	1.055
Mof_W 	W 	0.58979	0.16698	0.82666	1.032
Mof_W 	W 	0.43704	0.9594	0.87934	1.026
Mof_W 	W 	0.40293	0.89354	0.59932	0.984
Mof_W 	W 	0.57538	0.14068	0.71951	1.055
Mof_W 	W 	0.68387	0.0918	0.81509	1.003
Mof_W 	W 	0.42281	0.83302	0.67334	1.032
Mof_W 	W 	0.57221	0.96632	0.60984	1.025
Mof_W 	W 	0.42462	0.85932	0.28049	1.055
Mof_W 	W 	0.33319	0.94316	0.79359	1.36
Mof_W 	W 	0.39539	0.06748	0.20748	1.02
Mof_W 	W 	0.59207	0.9082	0.68491	1.002
Mof_W 	W 	0.40793	0.0918	0.31509	1.002
Mof_W 	W 	0.67209	0.06748	0.70748	1.019
Mof_W 	W 	0.50939	0.10646	0.90068	0.984
Mof_W 	W 	0.32791	0.93252	0.29252	1.019
Mof_W 	W 	0.52236	0.9594	0.37934	1.026
Mof_W 	W 	0.68391	0.08848	0.31433	1.087
Mof_W 	W 	0.59707	0.10646	0.40068	0.984
Mof_W 	W 	0.57719	0.16698	0.32666	1.032
Mof_W 	W 	0.5653	0.14068	0.21951	1.055
Mof_W 	W 	0.60997	0.94316	0.29359	1.36
Mof_W 	W 	0.42779	0.03368	0.39016	1.026
Mof_W 	W 	0.66681	0.05684	0.20641	1.36
Mof_W 	W 	0.60461	0.93252	0.79252	1.019
Mof_W 	W 	0.41021	0.83302	0.17334	1.032
Mof_W 	W 	0.60589	0.03368	0.89016	1.026
Mof_W 	W 	0.31609	0.91152	0.68567	1.087
Mof_W 	W 	0.31613	0.9082	0.18491	1.002
Mof_W 	W 	0.56296	0.0406	0.12066	1.027
Mof_W 	W 	0.39411	0.96632	0.10984	1.024
Mof_W 	W 	0.49061	0.89354	0.09932	0.984
Mof_W 	W 	0.59543	0.91152	0.18567	1.087
Mof_C 	C 	0.6204	0.5692	0.1778	0.112
Mof_C 	C 	0.591	0.0096	0.5091	-0.025
Mof_C 	C 	0.6185	0.717	0.7782	0.088
Mof_C 	C 	0.8958	0.9862	0.9851	-0.068
Mof_C 	C 	0.1591	0.6866	0.5204	0.074
Mof_C 	C 	0.0723	0.3766	0.8587	-0.077
Mof_C 	C 	0.2096	0.1852	0.2089	0.097
Mof_C 	C 	0.1324	0.9782	0.9858	-0.123
Mof_C 	C 	0.7785	0.0804	0.1109	0.11
Mof_C 	C 	0.5509	0.617	0.5668	0.123
Mof_C 	C 	0.5238	0.4636	0.2856	0.109
Mof_C 	C 	0.1658	0.7648	0.8459	0.085
Mof_C 	C 	0.2151	0.9656	0.3996	0.099
Mof_C 	C 	0.8572	0.0496	0.8409	0.103
Mof_C 	C 	0.3019	0.0804	0.6109	0.11
Mof_C 	C 	0.1107	0.781	0.1685	0.093
Mof_C 	C 	0.3968	0.215	0.7706	0.085
Mof_C 	C 	0.9367	0.0536	0.373	-0.081
Mof_C 	C 	0.9772	0.9344	0.2585	-0.098
Mof_C 	C 	0.2595	0.692	0.7156	-0.083
Mof_C 	C 	0.2215	0.9196	0.8891	0.11
Mof_C 	C 	0.4804	0.6812	0.6698	-0.176
Mof_C 	C 	0.401	0.2352	0.6541	0.085
Mof_C 	C 	0.9868	0.55	0.5852	-0.005
Mof_C 	C 	0.7464	0.2024	0.1762	0.116
Mof_C 	C 	0.4721	0.6662	0.3686	-0.078
Mof_C 	C 	0.5075	0.4256	0.5424	0.117
Mof_C 	C 	0.8458	0.9782	0.4858	-0.129
Mof_C 	C 	0.8632	0.0088	0.0517	-0.021
Mof_C 	C 	0.6117	0.8206	0.8992	0.112
Mof_C 	C 	0.5526	0.3032	0.2992	0.002
Mof_C 	C 	0.9096	0.9132	0.2294	-0.06
Mof_C 	C 	0.4457	0.575	0.2244	0.114
Mof_C 	C 	0.9987	0.941	0.6442	-0.071
Mof_C 	C 	0.3796	0.4308	0.8222	0.112
Mof_C 	C 	0.1542	0.0218	0.5142	-0.133
Mof_C 	C 	0.7825	0.253	0.4239	0.078
Mof_C 	C 	0.4871	0.0234	0.0007	-0.131
Mof_C 	C 	0.8676	0.0218	0.0142	-0.138
Mof_C 	C 	0.7992	0.3188	0.8302	-0.176
Mof_C 	C 	0.5295	0.747	0.0761	0.078
Mof_C 	C 	0.6734	0.912	0.9951	0.109
Mof_C 	C 	0.5279	0.3338	0.6314	-0.078
Mof_C 	C 	0.526	0.364	0.5749	0.033
Mof_C 	C 	0.4562	0.5918	0.0288	-0.066
Mof_C 	C 	0.0292	0.9284	0.2307	-0.1
Mof_C 	C 	0.7968	0.239	0.7243	0.104
Mof_C 	C 	0.773	0.321	0.7669	-0.101
Mof_C 	C 	0.5171	0.5756	0.0797	-0.137
Mof_C 	C 	0.1254	0.9166	0.8823	0.093
Mof_C 	C 	0.9181	0.4256	0.0424	0.117
Mof_C 	C 	0.1863	0.0766	0.1066	0.098
Mof_C 	C 	0.1169	0.0536	0.873	-0.094
Mof_C 	C 	0.6446	0.6172	0.6681	-0.102
Mof_C 	C 	0.8076	0.9504	0.6591	0.102
Mof_C 	C 	0.5438	0.4082	0.9712	-0.064
Mof_C 	C 	0.4474	0.6968	0.7008	0.002
Mof_C 	C 	0.4186	0.0096	0.0091	-0.022
Mof_C 	C 	0.1043	0.5608	0.0738	0.098
Mof_C 	C 	0.3554	0.3828	0.3319	-0.102
Mof_C 	C 	0.474	0.636	0.4251	0.032
Mof_C 	C 	0.1978	0.7196	0.8873	-0.053
Mof_C 	C 	0.0013	0.059	0.3558	-0.137
Mof_C 	C 	0.8893	0.219	0.8315	0.093
Mof_C 	C 	0.0274	0.3828	0.8319	-0.132
Mof_C 	C 	0.0585	0.5756	0.5797	-0.151
Mof_C 	C 	0.4925	0.5744	0.4576	0.117
Mof_C 	C 	0.4527	0.8174	0.8995	-0.023
Mof_C 	C 	0.8342	0.2352	0.1541	0.085
Mof_C 	C 	0.0939	0.9992	0.4489	-0.057
Mof_C 	C 	0.7849	0.0344	0.6004	0.099
Mof_C 	C 	0.9158	0.2748	0.2682	0.089
Mof_C 	C 	0.8544	0.9912	0.4483	-0.026
Mof_C 	C 	0.1995	0.0554	0.7051	0.094
Mof_C 	C 	0.7097	0.1528	0.6308	0.085
Mof_C 	C 	0.0512	0.4308	0.3222	0.112
Mof_C 	C 	0.0306	0.463	0.7732	0.121
Mof_C 	C 	0.9726	0.6172	0.1681	-0.069
Mof_C 	C 	0.9488	0.5692	0.6778	0.113
Mof_C 	C 	0.974	0.2504	0.8706	0.103
Mof_C 	C 	0.9415	0.4244	0.4203	-0.121
Mof_C 	C 	0.8992	0.9284	0.7307	-0.107
Mof_C 	C 	0.9934	0.0286	0.8693	-0.025
Mof_C 	C 	0.2495	0.0344	0.1004	0.099
Mof_C 	C 	0.4491	0.383	0.4332	0.123
Mof_C 	C 	0.5543	0.425	0.7756	0.114
Mof_C 	C 	0.8903	0.0766	0.6066	0.098
Mof_C 	C 	0.2887	0.6546	0.3291	-0.031
Mof_C 	C 	0.6981	0.9196	0.3891	0.11
Mof_C 	C 	0.9708	0.0716	0.7693	-0.097
Mof_C 	C 	0.4688	0.4798	0.8578	0.114
Mof_C 	C 	0.687	0.9212	0.092	0.1
Mof_C 	C 	0.1456	0.0088	0.5517	-0.023
Mof_C 	C 	0.7512	0.3508	0.2662	-0.045
Mof_C 	C 	0.5363	0.0234	0.5007	-0.114
Mof_C 	C 	0.6341	0.3454	0.1709	-0.031
Mof_C 	C 	0.3659	0.6546	0.8291	-0.032
Mof_C 	C 	0.7904	0.8148	0.7911	0.098
Mof_C 	C 	0.2536	0.7976	0.8238	0.116
Mof_C 	C 	0.6544	0.2452	0.6126	-0.106
Mof_C 	C 	0.5435	0.4392	0.4262	0.099
Mof_C 	C 	0.4725	0.3134	0.9796	0.08
Mof_C 	C 	0.5312	0.5202	0.1422	0.114
Mof_C 	C 	0.9398	0.4636	0.7856	0.11
Mof_C 	C 	0.409	0.9904	0.4909	-0.026
Mof_C 	C 	0.4004	0.6492	0.2338	-0.045
Mof_C 	C 	0.6281	0.5622	0.6696	-0.048
Mof_C 	C 	0.5275	0.6866	0.0204	0.067
Mof_C 	C 	0.3969	0.5184	0.4562	0.094
Mof_C 	C 	0.6735	0.2812	0.6571	-0.104
Mof_C 	C 	0.456	0.2024	0.6762	0.116
Mof_C 	C 	0.2088	0.0834	0.6177	0.093
Mof_C 	C 	0.2386	0.912	0.4951	0.105
Mof_C 	C 	0.4373	0.6226	0.6369	-0.022
Mof_C 	C 	0.1853	0.6226	0.1369	-0.022
Mof_C 	C 	0.9572	0.9344	0.7585	-0.088
Mof_C 	C 	0.0985	0.717	0.2782	0.088
Mof_C 	C 	0.5464	0.3316	0.8252	-0.114
Mof_C 	C 	0.0904	0.0868	0.7706	-0.058
Mof_C 	C 	0.3456	0.7548	0.3874	-0.106
Mof_C 	C 	0.1411	0.852	0.5867	0.096
Mof_C 	C 	0.2284	0.1268	0.2293	0.083
Mof_C 	C 	0.2891	0.148	0.9133	0.095
Mof_C 	C 	0.5814	0.9904	0.9909	-0.029
Mof_C 	C 	0.2764	0.2504	0.3706	0.095
Mof_C 	C 	0.3647	0.8174	0.3995	-0.023
Mof_C 	C 	0.4431	0.1528	0.1308	0.085
Mof_C 	C 	0.0036	0.9132	0.7294	-0.078
Mof_C 	C 	0.0571	0.9	0.1161	0.081
Mof_C 	C 	0.8311	0.4218	0.6959	0.091
Mof_C 	C 	0.8182	0.215	0.2706	0.085
Mof_C 	C 	0.4842	0.3692	0.172	0.07
Mof_C 	C 	0.4422	0.239	0.2243	0.104
Mof_C 	C 	0.5569	0.8472	0.8692	0.085
Mof_C 	C 	0.5578	0.761	0.7757	0.104
Mof_C 	C 	0.1368	0.9912	0.9483	-0.028
Mof_C 	C 	0.8429	0.9	0.6161	0.082
Mof_C 	C 	0.9429	0.1	0.8839	0.085
Mof_C 	C 	0.9096	0.0138	0.5149	-0.077
Mof_C 	C 	0.5196	0.3188	0.3302	-0.176
Mof_C 	C 	0.8272	0.3824	0.1117	-0.176
Mof_C 	C 	0.4368	0.45	0.9148	-0.02
Mof_C 	C 	0.452	0.679	0.7331	-0.102
Mof_C 	C 	0.7911	0.1794	0.6008	0.112
Mof_C 	C 	0.5129	0.9766	0.9993	-0.096
Mof_C 	C 	0.2569	0.3128	0.3393	-0.038
Mof_C 	C 	0.0601	0.8682	0.7655	0.143
Mof_C 	C 	0.1941	0.6662	0.8686	-0.078
Mof_C 	C 	0.8984	0.1268	0.7293	0.084
Mof_C 	C 	0.5627	0.3774	0.3631	-0.023
Mof_C 	C 	0.1016	0.8732	0.2707	0.083
Mof_C 	C 	0.9648	0.9714	0.6307	-0.063
Mof_C 	C 	0.3265	0.7188	0.3429	-0.105
Mof_C 	C 	0.0244	0.8148	0.2911	0.093
Mof_C 	C 	0.6703	0.781	0.6685	0.093
Mof_C 	C 	0.9341	0.5622	0.1696	-0.066
Mof_C 	C 	0.0132	0.45	0.4148	-0.032
Mof_C 	C 	0.1428	0.9504	0.1591	0.102
Mof_C 	C 	0.0428	0.0656	0.2415	-0.117
Mof_C 	C 	0.8831	0.9464	0.127	-0.117
Mof_C 	C 	0.9964	0.0868	0.2706	-0.04
Mof_C 	C 	0.8644	0.4082	0.4712	-0.059
Mof_C 	C 	0.8423	0.8666	0.7164	-0.039
Mof_C 	C 	0.2488	0.6492	0.7338	-0.045
Mof_C 	C 	0.1293	0.575	0.7244	0.114
Mof_C 	C 	0.4325	0.692	0.2156	-0.082
Mof_C 	C 	0.8746	0.0834	0.1177	0.094
Mof_C 	C 	0.7716	0.8732	0.7707	0.084
Mof_C 	C 	0.1356	0.5918	0.5288	-0.071
Mof_C 	C 	0.0842	0.7252	0.7318	0.089
Mof_C 	C 	0.912	0.0948	0.3634	-0.058
Mof_C 	C 	0.1919	0.1318	0.7345	0.144
Mof_C 	C 	0.4565	0.5608	0.5738	0.099
Mof_C 	C 	0.1828	0.0948	0.8634	-0.052
Mof_C 	C 	0.5907	0.4218	0.1959	0.091
Mof_C 	C 	0.8589	0.148	0.4133	0.095
Mof_C 	C 	0.7505	0.9656	0.8996	0.099
Mof_C 	C 	0.115	0.6308	0.328	0.07
Mof_C 	C 	0.4976	0.563	0.0362	-0.072
Mof_C 	C 	0.7852	0.3316	0.3252	-0.115
Mof_C 	C 	0.4093	0.5782	0.8041	0.091
Mof_C 	C 	0.8005	0.9446	0.2949	0.095
Mof_C 	C 	0.0633	0.9464	0.627	-0.128
Mof_C 	C 	0.5302	0.622	0.2656	0.097
Mof_C 	C 	0.7431	0.6872	0.6607	-0.039
Mof_C 	C 	0.8785	0.4816	0.0438	0.094
Mof_C 	C 	0.4637	0.9766	0.4993	-0.114
Mof_C 	C 	0.8957	0.4392	0.9262	0.099
Mof_C 	C 	0.5473	0.1826	0.1005	-0.023
Mof_C 	C 	0.5632	0.55	0.0852	-0.017
Mof_C 	C 	0.9346	0.437	0.4638	-0.085
Mof_C 	C 	0.8147	0.3774	0.8631	-0.023
Mof_C 	C 	0.8707	0.425	0.2756	0.114
Mof_C 	C 	0.1441	0.9446	0.7949	0.094
Mof_C 	C 	0.227	0.679	0.2331	-0.102
Mof_C 	C 	0.5765	0.906	0.0066	0.097
Mof_C 	C 	0.838	0.364	0.0749	0.033
Mof_C 	C 	0.162	0.636	0.9251	0.032
Mof_C 	C 	0.088	0.9052	0.6366	-0.036
Mof_C 	C 	0.9277	0.6234	0.1413	-0.122
Mof_C 	C 	0.2089	0.8206	0.3992	0.112
Mof_C 	C 	0.026	0.7496	0.1294	0.086
Mof_C 	C 	0.0602	0.5364	0.2144	0.108
Mof_C 	C 	0.5908	0.2452	0.1126	-0.106
Mof_C 	C 	0.8172	0.9052	0.1366	-0.042
Mof_C 	C 	0.1008	0.0716	0.2693	-0.09
Mof_C 	C 	0.359	0.2748	0.7682	0.089
Mof_C 	C 	0.9082	0.378	0.2344	0.097
Mof_C 	C 	0.5158	0.6308	0.828	0.071
Mof_C 	C 	0.7405	0.308	0.2844	-0.082
Mof_C 	C 	0.599	0.7648	0.3459	0.085
Mof_C 	C 	0.0918	0.622	0.7656	0.097
Mof_C 	C 	0.5218	0.7196	0.3873	-0.053
Mof_C 	C 	0.8014	0.2846	0.3317	-0.036
Mof_C 	C 	0.544	0.7976	0.3238	0.116
Mof_C 	C 	0.1924	0.0496	0.3409	0.103
Mof_C 	C 	0.5675	0.308	0.7844	-0.082
Mof_C 	C 	0.8059	0.3338	0.1314	-0.078
Mof_C 	C 	0.1042	0.0138	0.0149	-0.083
Mof_C 	C 	0.0228	0.0656	0.7415	-0.107
Mof_C 	C 	0.9339	0.383	0.9332	0.123
Mof_C 	C 	0.4092	0.7548	0.8874	-0.106
Mof_C 	C 	0.3923	0.7188	0.8429	-0.104
Mof_C 	C 	0.7614	0.088	0.5049	0.105
Mof_C 	C 	0.3266	0.088	0.0049	0.101
Mof_C 	C 	0.3815	0.283	0.2218	0.088
Mof_C 	C 	0.1986	0.7154	0.6683	-0.036
Mof_C 	C 	0.3719	0.4378	0.3304	-0.048
Mof_C 	C 	0.0661	0.617	0.0668	0.122
Mof_C 	C 	0.989	0.5202	0.6422	0.125
Mof_C 	C 	0.0577	0.059	0.8558	-0.122
Mof_C 	C 	0.7506	0.3032	0.7992	0.002
Mof_C 	C 	0.2903	0.8472	0.3692	0.085
Mof_C 	C 	0.0559	0.3128	0.8393	-0.053
Mof_C 	C 	0.6957	0.6234	0.6413	-0.098
Mof_C 	C 	0.1097	0.9234	0.3934	0.098
Mof_C 	C 	0.9757	0.1334	0.7836	-0.034
Mof_C 	C 	0.0243	0.8666	0.2164	-0.053
Mof_C 	C 	0.5996	0.3508	0.7662	-0.045
Mof_C 	C 	0.885	0.3692	0.672	0.071
Mof_C 	C 	0.313	0.0788	0.908	0.1
Mof_C 	C 	0.9399	0.1318	0.2345	0.145
Mof_C 	C 	0.9053	0.9992	0.9489	-0.059
Mof_C 	C 	0.7113	0.3454	0.6709	-0.032
Mof_C 	C 	0.9015	0.283	0.7218	0.088
Mof_C 	C 	0.2148	0.6684	0.6748	-0.113
Mof_C 	C 	0.4829	0.4244	0.9203	-0.134
Mof_C 	C 	0.2032	0.761	0.2757	0.104
Mof_C 	C 	0.1818	0.785	0.7294	0.085
Mof_C 	C 	0.1215	0.5184	0.9562	0.095
Mof_C 	C 	0.7236	0.7496	0.6294	0.095
Mof_C 	C 	0.1689	0.5782	0.3041	0.091
Mof_C 	C 	0.4536	0.6684	0.1748	-0.114
Mof_C 	C 	0.5024	0.437	0.9638	-0.076
Mof_C 	C 	0.2175	0.747	0.5761	0.078
Mof_C 	C 	0.4698	0.378	0.7344	0.097
Mof_C 	C 	0.9694	0.537	0.2268	0.134
Mof_C 	C 	0.9441	0.6872	0.1607	-0.023
Mof_C 	C 	0.7912	0.9166	0.3823	0.093
Mof_C 	C 	0.3297	0.219	0.3315	0.093
Mof_C 	C 	0.4782	0.2804	0.6127	-0.053
Mof_C 	C 	0.0659	0.4378	0.8304	-0.031
Mof_C 	C 	0.3295	0.906	0.5066	0.101
Mof_C 	C 	0.8022	0.2804	0.1127	-0.053
Mof_C 	C 	0.011	0.4798	0.3578	0.103
Mof_C 	C 	0.8081	0.8682	0.2655	0.144
Mof_C 	C 	0.7658	0.0788	0.408	0.1
Mof_C 	C 	0.4448	0.6176	0.3883	-0.176
Mof_C 	C 	0.8559	0.0554	0.2051	0.094
Mof_C 	C 	0.5676	0.537	0.7268	0.127
Mof_C 	C 	0.1577	0.1334	0.2836	-0.047
Mof_C 	C 	0.1571	0.1	0.3839	0.084
Mof_C 	C 	0.2342	0.9212	0.592	0.1
Mof_C 	C 	0.4324	0.463	0.2732	0.127
Mof_C 	C 	0.8137	0.9234	0.8934	0.098
Mof_C 	C 	0.6031	0.4816	0.5438	0.094
Mof_C 	C 	0.641	0.7252	0.2318	0.089
Mof_C 	C 	0.4705	0.253	0.9239	0.078
Mof_C 	C 	0.9756	0.1852	0.7089	0.102
Mof_C 	C 	0.548	0.321	0.2669	-0.101
Mof_C 	C 	0.5552	0.3824	0.6117	-0.176
Mof_C 	C 	0.0904	0.9862	0.4851	-0.073
Mof_C 	C 	0.4762	0.5364	0.7144	0.109
Mof_C 	C 	0.2494	0.6968	0.2008	0.002
Mof_C 	C 	0.6705	0.094	0.4934	0.101
Mof_C 	C 	0.3883	0.1794	0.1008	0.112
Mof_C 	C 	0.0654	0.563	0.5362	-0.064
Mof_C 	C 	0.0066	0.9714	0.1307	-0.072
Mof_C 	C 	0.0947	0.0008	0.0511	-0.05
Mof_C 	C 	0.6077	0.2812	0.1571	-0.105
Mof_C 	C 	0.0352	0.0286	0.3693	-0.029
Mof_C 	C 	0.8409	0.3134	0.4796	0.075
Mof_C 	C 	0.9061	0.0008	0.5511	-0.055
Mof_C 	C 	0.1728	0.6176	0.8883	-0.175
Mof_C 	C 	0.6032	0.785	0.2294	0.085
Mof_C 	C 	0.0819	0.5744	0.9576	0.117
Mof_C 	C 	0.5168	0.7154	0.1683	-0.036
Mof_C 	C 	0.6353	0.1826	0.6005	-0.023
Mof_C 	C 	0.2008	0.6812	0.1698	-0.177
Mof_C 	C 	0.4235	0.094	0.9934	0.105
Mof_C 	C 	0.7109	0.852	0.0867	0.096
Mof_C 	C 	0.9423	0.941	0.1442	-0.082
Mof_C 	C 	0.4832	0.2846	0.8317	-0.036
Mof_C 	C 	0.3043	0.3766	0.3587	-0.098
Mof_N 	N 	0.5384	0.7486	0.3574	-0.093
Mof_N 	N 	0.563	0.6774	0.753	-0.093
Mof_N 	N 	0.6112	0.448	0.5607	-0.104
Mof_N 	N 	0.2701	0.1054	0.6379	-0.236
Mof_N 	N 	0.4616	0.2514	0.6426	-0.093
Mof_N 	N 	0.2665	0.77	0.8429	-0.114
Mof_N 	N 	0.8509	0.909	0.2567	-0.111
Mof_N 	N 	0.656	0.0482	0.5043	-0.099
Mof_N 	N 	0.1585	0.0258	0.078	-0.096
Mof_N 	N 	0.8218	0.3748	0.2578	-0.102
Mof_N 	N 	0.1552	0.6586	0.7694	-0.095
Mof_N 	N 	0.9074	0.2138	0.8649	-0.275
Mof_N 	N 	0.3337	0.1356	0.927	-0.253
Mof_N 	N 	0.8422	0.0454	0.0826	-0.1
Mof_N 	N 	0.8929	0.9504	0.6361	-0.096
Mof_N 	N 	0.8265	0.819	0.7584	-0.094
Mof_N 	N 	0.0714	0.5324	0.9702	-0.259
Mof_N 	N 	0.2012	0.695	0.5781	-0.11
Mof_N 	N 	0.7542	0.843	0.7975	-0.245
Mof_N 	N 	0.4609	0.348	0.4042	-0.12
Mof_N 	N 	0.7898	0.2514	0.1426	-0.093
Mof_N 	N 	0.2021	0.946	0.6183	-0.09
Mof_N 	N 	0.1834	0.6668	0.3389	-0.09
Mof_N 	N 	0.5055	0.551	0.6864	-0.101
Mof_N 	N 	0.344	0.9518	0.4957	-0.099
Mof_N 	N 	0.4945	0.449	0.3136	-0.101
Mof_N 	N 	0.4775	0.1708	0.1063	-0.098
Mof_N 	N 	0.4938	0.695	0.0781	-0.11
Mof_N 	N 	0.0226	0.4508	0.376	-0.104
Mof_N 	N 	0.8408	0.2668	0.3018	-0.092
Mof_N 	N 	0.9264	0.433	0.261	-0.248
Mof_N 	N 	0.1153	0.9646	0.7751	-0.093
Mof_N 	N 	0.8847	0.0354	0.2249	-0.093
Mof_N 	N 	0.6323	0.5838	0.1476	-0.102
Mof_N 	N 	0.1661	0.658	0.5408	-0.095
Mof_N 	N 	0.4433	0.187	0.0843	-0.116
Mof_N 	N 	0.7988	0.305	0.4219	-0.109
Mof_N 	N 	0.8493	0.9646	0.2751	-0.093
Mof_N 	N 	0.6933	0.1708	0.6063	-0.098
Mof_N 	N 	0.7999	0.9964	0.5759	-0.118
Mof_N 	N 	0.3922	0.0482	0.0043	-0.102
Mof_N 	N 	0.735	0.9558	0.4225	-0.101
Mof_N 	N 	0.1507	0.0354	0.7249	-0.093
Mof_N 	N 	0.2798	0.2712	0.3437	-0.1
Mof_N 	N 	0.5391	0.652	0.5958	-0.12
Mof_N 	N 	0.2846	0.9554	0.4892	-0.103
Mof_N 	N 	0.1327	0.5874	0.9395	-0.119
Mof_N 	N 	0.539	0.4676	0.5298	-0.259
Mof_N 	N 	0.8399	0.085	0.6231	-0.252
Mof_N 	N 	0.9366	0.256	0.8184	-0.096
Mof_N 	N 	0.7299	0.8946	0.3621	-0.236
Mof_N 	N 	0.2433	0.1016	0.8862	-0.101
Mof_N 	N 	0.1592	0.7332	0.6982	-0.092
Mof_N 	N 	0.6806	0.744	0.6816	-0.096
Mof_N 	N 	0.7843	0.3682	0.6756	-0.098
Mof_N 	N 	0.5327	0.427	0.1927	-0.24
Mof_N 	N 	0.3194	0.256	0.3184	-0.096
Mof_N 	N 	0.8702	0.987	0.6638	-0.11
Mof_N 	N 	0.9515	0.5838	0.6476	-0.101
Mof_N 	N 	0.5081	0.342	0.9592	-0.097
Mof_N 	N 	0.1144	0.6774	0.253	-0.093
Mof_N 	N 	0.1168	0.987	0.1638	-0.11
Mof_N 	N 	0.3938	0.2016	0.6751	-0.239
Mof_N 	N 	0.2001	0.0036	0.4241	-0.118
Mof_N 	N 	0.0485	0.4162	0.3524	-0.103
Mof_N 	N 	0.447	0.6252	0.2422	-0.102
Mof_N 	N 	0.1965	0.9964	0.0759	-0.119
Mof_N 	N 	0.4965	0.23	0.6571	-0.114
Mof_N 	N 	0.1332	0.6112	0.1016	-0.104
Mof_N 	N 	0.2234	0.8396	0.3702	-0.248
Mof_N 	N 	0.522	0.3888	0.3984	-0.104
Mof_N 	N 	0.9419	0.091	0.2433	-0.112
Mof_N 	N 	0.5225	0.8292	0.8937	-0.098
Mof_N 	N 	0.9871	0.4752	0.7628	-0.261
Mof_N 	N 	0.5166	0.3332	0.1611	-0.09
Mof_N 	N 	0.2275	0.1146	0.7131	-0.248
Mof_N 	N 	0.478	0.6112	0.6016	-0.104
Mof_N 	N 	0.4547	0.5874	0.4395	-0.119
Mof_N 	N 	0.4673	0.573	0.8073	-0.24
Mof_N 	N 	0.1057	0.573	0.3073	-0.24
Mof_N 	N 	0.5066	0.433	0.761	-0.25
Mof_N 	N 	0.9013	0.304	0.3004	-0.09
Mof_N 	N 	0.437	0.3226	0.247	-0.093
Mof_N 	N 	0.7549	0.915	0.8769	-0.252
Mof_N 	N 	0.4329	0.4508	0.3061	-0.101
Mof_N 	N 	0.8448	0.3414	0.2306	-0.095
Mof_N 	N 	0.1922	0.7984	0.8249	-0.239
Mof_N 	N 	0.4161	0.6318	0.8244	-0.098
Mof_N 	N 	0.6162	0.8396	0.8702	-0.248
Mof_N 	N 	0.8871	0.348	0.9042	-0.119
Mof_N 	N 	0.0736	0.567	0.739	-0.251
Mof_N 	N 	0.4966	0.3414	0.7306	-0.095
Mof_N 	N 	0.8035	0.0036	0.9241	-0.118
Mof_N 	N 	0.1647	0.8946	0.8621	-0.236
Mof_N 	N 	0.7335	0.23	0.1571	-0.114
Mof_N 	N 	0.1883	0.1422	0.249	-0.094
Mof_N 	N 	0.8103	0.2546	0.458	-0.262
Mof_N 	N 	0.1839	0.7074	0.254	-0.093
Mof_N 	N 	0.8884	0.1028	0.8692	-0.266
Mof_N 	N 	0.8368	0.448	0.0607	-0.104
Mof_N 	N 	0.5034	0.6586	0.2694	-0.095
Mof_N 	N 	0.3067	0.8292	0.3937	-0.098
Mof_N 	N 	0.7792	0.0442	0.0775	-0.101
Mof_N 	N 	0.8339	0.342	0.4592	-0.097
Mof_N 	N 	0.5718	0.5492	0.124	-0.107
Mof_N 	N 	0.1298	0.013	0.3362	-0.11
Mof_N 	N 	0.1491	0.091	0.7433	-0.111
Mof_N 	N 	0.1129	0.652	0.0958	-0.12
Mof_N 	N 	0.1578	0.9546	0.9174	-0.099
Mof_N 	N 	0.9286	0.4676	0.0298	-0.258
Mof_N 	N 	0.1897	0.7454	0.542	-0.262
Mof_N 	N 	0.2458	0.157	0.2025	-0.245
Mof_N 	N 	0.5557	0.7454	0.042	-0.261
Mof_N 	N 	0.8856	0.3226	0.747	-0.093
Mof_N 	N 	0.8353	0.1054	0.1379	-0.236
Mof_N 	N 	0.6936	0.7862	0.6351	-0.274
Mof_N 	N 	0.5062	0.305	0.9219	-0.109
Mof_N 	N 	0.0926	0.7862	0.1351	-0.274
Mof_N 	N 	0.7979	0.054	0.3817	-0.09
Mof_N 	N 	0.3518	0.2176	0.7479	-0.23
Mof_N 	N 	0.0575	0.9504	0.1361	-0.096
Mof_N 	N 	0.0179	0.4508	0.8061	-0.104
Mof_N 	N 	0.264	0.881	0.509	-0.264
Mof_N 	N 	0.553	0.3748	0.7578	-0.102
Mof_N 	N 	0.7437	0.187	0.5843	-0.115
Mof_N 	N 	0.1327	0.9742	0.422	-0.095
Mof_N 	N 	0.9545	0.449	0.8136	-0.099
Mof_N 	N 	0.027	0.469	0.3227	-0.255
Mof_N 	N 	0.9821	0.5492	0.1939	-0.098
Mof_N 	N 	0.617	0.881	0.009	-0.266
Mof_N 	N 	0.8668	0.3888	0.8984	-0.104
Mof_N 	N 	0.8166	0.3332	0.6611	-0.09
Mof_N 	N 	0.4027	0.304	0.8004	-0.09
Mof_N 	N 	0.5035	0.5636	0.5506	-0.253
Mof_N 	N 	0.442	0.469	0.8227	-0.256
Mof_N 	N 	0.4919	0.658	0.0408	-0.095
Mof_N 	N 	0.9539	0.1422	0.749	-0.093
Mof_N 	N 	0.3677	0.4162	0.8524	-0.102
Mof_N 	N 	0.5567	0.813	0.9157	-0.115
Mof_N 	N 	0.2144	0.1028	0.3692	-0.266
Mof_N 	N 	0.7968	0.9546	0.4174	-0.099
Mof_N 	N 	0.0634	0.744	0.1816	-0.097
Mof_N 	N 	0.9399	0.4364	0.9494	-0.25
Mof_N 	N 	0.2032	0.0454	0.5826	-0.1
Mof_N 	N 	0.1981	0.8644	0.573	-0.254
Mof_N 	N 	0.8019	0.1356	0.427	-0.253
Mof_N 	N 	0.7154	0.0446	0.5108	-0.103
Mof_N 	N 	0.558	0.531	0.1773	-0.257
Mof_N 	N 	0.7856	0.8972	0.6308	-0.266
Mof_N 	N 	0.8456	0.2296	0.7074	-0.246
Mof_N 	N 	0.0455	0.551	0.1864	-0.103
Mof_N 	N 	0.0888	0.843	0.2975	-0.245
Mof_N 	N 	0.7725	0.8854	0.2869	-0.247
Mof_N 	N 	0.5119	0.5248	0.7372	-0.265
Mof_N 	N 	0.5839	0.3682	0.1756	-0.098
Mof_N 	N 	0.3064	0.2138	0.3649	-0.275
Mof_N 	N 	0.4965	0.4364	0.4494	-0.253
Mof_N 	N 	0.7439	0.946	0.1183	-0.09
Mof_N 	N 	0.5671	0.5492	0.6939	-0.101
Mof_N 	N 	0.8117	0.8578	0.751	-0.095
Mof_N 	N 	0.0086	0.7288	0.1563	-0.103
Mof_N 	N 	0.1632	0.552	0.9393	-0.104
Mof_N 	N 	0.4881	0.4752	0.2628	-0.265
Mof_N 	N 	0.265	0.0442	0.5775	-0.101
Mof_N 	N 	0.6078	0.9518	0.9957	-0.096
Mof_N 	N 	0.3292	0.0446	0.0108	-0.103
Mof_N 	N 	0.1544	0.7704	0.2926	-0.246
Mof_N 	N 	0.8078	0.2016	0.1751	-0.239
Mof_N 	N 	0.0129	0.5248	0.2372	-0.269
Mof_N 	N 	0.0075	0.181	0.7416	-0.098
Mof_N 	N 	0.384	0.2296	0.2074	-0.246
Mof_N 	N 	0.6482	0.7824	0.2521	-0.23
Mof_N 	N 	0.7202	0.7288	0.6563	-0.1
Mof_N 	N 	0.4934	0.567	0.239	-0.25
Mof_N 	N 	0.1116	0.8972	0.1308	-0.266
Mof_N 	N 	0.2563	0.813	0.4157	-0.115
Mof_N 	N 	0.9914	0.2712	0.8437	-0.098
Mof_N 	N 	0.9425	0.0496	0.8639	-0.101
Mof_N 	N 	0.2102	0.7486	0.8574	-0.093
Mof_N 	N 	0.1601	0.915	0.3769	-0.252
Mof_N 	N 	0.736	0.119	0.491	-0.264
Mof_N 	N 	0.5973	0.696	0.1996	-0.09
Mof_N 	N 	0.8161	0.2926	0.746	-0.093
Mof_N 	N 	0.7766	0.1604	0.6298	-0.248
Mof_N 	N 	0.2561	0.054	0.8817	-0.09
Mof_N 	N 	0.1417	0.8984	0.6138	-0.103
Mof_N 	N 	0.8832	0.013	0.8362	-0.11
Mof_N 	N 	0.8673	0.0258	0.578	-0.095
Mof_N 	N 	0.4443	0.2546	0.958	-0.263
Mof_N 	N 	0.8415	0.9742	0.922	-0.094
Mof_N 	N 	0.4282	0.4508	0.876	-0.107
Mof_N 	N 	0.6663	0.8644	0.073	-0.254
Mof_N 	N 	0.383	0.119	0.991	-0.263
Mof_N 	N 	0.6062	0.7984	0.3249	-0.239
Mof_N 	N 	0.426	0.2668	0.8018	-0.092
Mof_N 	N 	0.0461	0.8578	0.251	-0.095
Mof_N 	N 	0.9774	0.5492	0.624	-0.11
Mof_N 	N 	0.616	0.7704	0.7926	-0.246
Mof_N 	N 	0.2451	0.085	0.1231	-0.252
Mof_N 	N 	0.1782	0.6252	0.7422	-0.102
Mof_N 	N 	0.4834	0.6668	0.8389	-0.09
Mof_N 	N 	0.1071	0.0496	0.3639	-0.101
Mof_N 	N 	0.9112	0.157	0.7025	-0.246
Mof_N 	N 	0.7567	0.8984	0.1138	-0.102
Mof_N 	N 	0.8583	0.1016	0.3862	-0.1
Mof_N 	N 	0.5453	0.4126	0.5605	-0.119
Mof_N 	N 	0.3888	0.552	0.4393	-0.104
Mof_N 	N 	0.3838	0.1604	0.1298	-0.248
Mof_N 	N 	0.973	0.531	0.6773	-0.258
Mof_N 	N 	0.1735	0.181	0.2416	-0.095
Mof_N 	N 	0.2157	0.6318	0.3244	-0.098
Mof_N 	N 	0.8673	0.4126	0.0605	-0.119
Mof_N 	N 	0.0581	0.909	0.7567	-0.109
Mof_N 	N 	0.2208	0.9558	0.9225	-0.101
Mof_N 	N 	0.6708	0.9554	0.9892	-0.103
Mof_N 	N 	0.0601	0.5636	0.0506	-0.254
Mof_N 	N 	0.574	0.7332	0.1982	-0.092
Mof_N 	N 	0.461	0.5324	0.4702	-0.259
Mof_N 	N 	0.1129	0.8854	0.7869	-0.247
Mof_N 	N 	0.9925	0.819	0.2584	-0.09
Mof_N 	N 	0.8871	0.1146	0.2131	-0.248
Mof_N 	N 	0.8943	0.427	0.6927	-0.24
Mof_N 	N 	0.1342	0.7824	0.7521	-0.23
Mof_N 	N 	0.4765	0.2926	0.246	-0.093
Mof_N 	N 	0.0987	0.696	0.6996	-0.091
Mof_N 	N 	0.5035	0.77	0.3429	-0.114
Mof_N 	N 	0.8658	0.2176	0.2479	-0.23
Mof_N 	N 	0.5235	0.7074	0.754	-0.093
Mof_O 	O 	0.569	0.149	0.873	-0.452
Mof_O 	O 	0.66	0.135	0.7113	-0.453
Mof_O 	O 	0.3837	0.0658	0.7592	-0.469
Mof_O 	O 	0.4237	0.0814	0.3633	-0.479
Mof_O 	O 	0.5974	0.158	0.7735	-0.448
Mof_O 	O 	0.431	0.851	0.127	-0.452
Mof_O 	O 	0.633	0.0302	0.6529	-0.465
Mof_O 	O 	0.432	0.9358	0.1984	-0.333
Mof_O 	O 	0.42	0.851	0.627	-0.452
Mof_O 	O 	0.2525	0.8988	0.7969	-0.486
Mof_O 	O 	0.475	0.135	0.2113	-0.453
Mof_O 	O 	0.4879	0.9028	0.5801	-0.449
Mof_O 	O 	0.6321	0.1154	0.2237	-0.476
Mof_O 	O 	0.4394	0.842	0.7265	-0.448
Mof_O 	O 	0.4833	0.1154	0.7237	-0.476
Mof_O 	O 	0.58	0.149	0.373	-0.452
Mof_O 	O 	0.5863	0.957	0.3445	-0.473
Mof_O 	O 	0.6585	0.0096	0.7942	-0.458
Mof_O 	O 	0.6857	0.0926	0.7636	-0.437
Mof_O 	O 	0.3125	0.983	0.69	-0.465
Mof_O 	O 	0.7475	0.1012	0.2031	-0.486
Mof_O 	O 	0.6163	0.9342	0.2408	-0.469
Mof_O 	O 	0.5454	0.018	0.5967	-0.449
Mof_O 	O 	0.6489	0.9904	0.7058	-0.458
Mof_O 	O 	0.367	0.9698	0.3471	-0.465
Mof_O 	O 	0.5596	0.9898	0.2068	-0.36
Mof_O 	O 	0.5055	0.8626	0.1872	-0.464
Mof_O 	O 	0.3511	0.0096	0.2942	-0.457
Mof_O 	O 	0.6705	0.983	0.19	-0.465
Mof_O 	O 	0.5455	0.101	0.6633	-0.447
Mof_O 	O 	0.4899	0.9766	0.6482	-0.385
Mof_O 	O 	0.5167	0.8846	0.2763	-0.476
Mof_O 	O 	0.5121	0.0972	0.4199	-0.449
Mof_O 	O 	0.4867	0.9766	0.1482	-0.385
Mof_O 	O 	0.5698	0.0102	0.2932	-0.36
Mof_O 	O 	0.5118	0.8362	0.6674	-0.454
Mof_O 	O 	0.4026	0.842	0.2265	-0.448
Mof_O 	O 	0.4391	0.0944	0.8639	-0.463
Mof_O 	O 	0.4962	0.0642	0.3016	-0.333
Mof_O 	O 	0.4546	0.982	0.4033	-0.449
Mof_O 	O 	0.3143	0.9074	0.2364	-0.437
Mof_O 	O 	0.6756	0.1638	0.8326	-0.454
Mof_O 	O 	0.4104	0.9614	0.5897	-0.44
Mof_O 	O 	0.5896	0.0386	0.4103	-0.439
Mof_O 	O 	0.3415	0.9904	0.2058	-0.458
Mof_O 	O 	0.5586	0.0444	0.7141	-0.337
Mof_O 	O 	0.3179	0.9342	0.7408	-0.469
Mof_O 	O 	0.6293	0.043	0.1555	-0.473
Mof_O 	O 	0.6821	0.0658	0.2592	-0.469
Mof_O 	O 	0.551	0.9614	0.0897	-0.44
Mof_O 	O 	0.4726	0.018	0.0967	-0.449
Mof_O 	O 	0.3423	0.9186	0.1367	-0.479
Mof_O 	O 	0.5763	0.9186	0.6367	-0.478
Mof_O 	O 	0.4545	0.899	0.3367	-0.447
Mof_O 	O 	0.6553	0.0944	0.3639	-0.463
Mof_O 	O 	0.5142	0.9556	0.7859	-0.337
Mof_O 	O 	0.4149	0.9028	0.0801	-0.449
Mof_O 	O 	0.568	0.0642	0.8016	-0.333
Mof_O 	O 	0.4404	0.0102	0.7932	-0.36
Mof_O 	O 	0.6429	0.1374	0.3128	-0.464
Mof_O 	O 	0.3972	0.0302	0.1529	-0.465
Mof_O 	O 	0.6577	0.0814	0.8633	-0.478
Mof_O 	O 	0.3447	0.9056	0.6361	-0.463
Mof_O 	O 	0.6875	0.017	0.31	-0.464
Mof_O 	O 	0.5851	0.0972	0.9199	-0.449
Mof_O 	O 	0.5133	0.0234	0.8518	-0.385
Mof_O 	O 	0.5274	0.982	0.9033	-0.449
Mof_O 	O 	0.4414	0.9556	0.2859	-0.337
Mof_O 	O 	0.3679	0.8846	0.7763	-0.476
Mof_O 	O 	0.5101	0.0234	0.3518	-0.385
Mof_O 	O 	0.3537	0.1012	0.7031	-0.486
Mof_O 	O 	0.4302	0.9898	0.7068	-0.36
Mof_O 	O 	0.4882	0.1638	0.3326	-0.454
Mof_O 	O 	0.5606	0.158	0.2735	-0.448
Mof_O 	O 	0.5609	0.9056	0.1361	-0.463
Mof_O 	O 	0.4945	0.1374	0.8128	-0.464
Mof_O 	O 	0.6463	0.8988	0.2969	-0.486
Mof_O 	O 	0.449	0.0386	0.9103	-0.44
Mof_O 	O 	0.3295	0.017	0.81	-0.464
Mof_O 	O 	0.6028	0.9698	0.8471	-0.465
Mof_O 	O 	0.3571	0.8626	0.6872	-0.464
Mof_O 	O 	0.5555	0.101	0.1633	-0.447
Mof_O 	O 	0.4858	0.0444	0.2141	-0.337
Mof_O 	O 	0.34	0.865	0.2887	-0.453
Mof_O 	O 	0.3707	0.957	0.8445	-0.473
Mof_O 	O 	0.4069	0.0926	0.2636	-0.437
Mof_O 	O 	0.3244	0.8362	0.1674	-0.454
Mof_O 	O 	0.525	0.865	0.7887	-0.453
Mof_O 	O 	0.5038	0.9358	0.6984	-0.333
Mof_O 	O 	0.4137	0.043	0.6555	-0.473
Mof_O 	O 	0.4445	0.899	0.8367	-0.447
Mof_O 	O 	0.5931	0.9074	0.7364	-0.437
_end
