data_functionalizedCrystal
_audit_creation_method	'EQeq! by Chris Wilmer'
_symmetry_space_group_name_H-M	'P1'
_symmetry_Int_Tables_number	1
_symmetry_cell_setting	triclinic
loop_
_symmetry_equiv_pos_as_xyz
  x,y,z
_cell_length_a	12.5764
_cell_length_b	12.5764
_cell_length_c	62.941
_cell_angle_alpha	90
_cell_angle_beta	90
_cell_angle_gamma	120
loop_
_atom_site_label
_atom_site_type_symbol
_atom_site_fract_x
_atom_site_fract_y
_atom_site_fract_z
_atom_site_charge
Mof_Co	Co	0.59425	0.1885	0.41667	1.124
Mof_Co	Co	0.59425	0.40575	0.75	1.125
Mof_Co	Co	0.8115	0.40575	0.08333	1.126
Mof_Co	Co	0.40575	0.8115	0.91667	1.126
Mof_Co	Co	0.40575	0.59425	0.25	1.126
Mof_Co	Co	0.1885	0.59425	0.58333	1.125
Mof_Co	Co	0.69638	0.34819	0.58333	1.126
Mof_Co	Co	0.65181	0.30362	0.91667	1.126
Mof_Co	Co	0.65181	0.34819	0.25	1.126
Mof_Co	Co	0.30362	0.65181	0.08333	1.126
Mof_Co	Co	0.34819	0.69638	0.41667	1.126
Mof_Co	Co	0.34819	0.65181	0.75	1.126
Mof_H 	H 	0.978	0.18	0.4343	0.131
Mof_H 	H 	0.9777	0.3017	0.4395	0.144
Mof_H 	H 	0.9036	0.6136	0.5204	0.115
Mof_H 	H 	0.015	0.6224	0.5331	0.106
Mof_H 	H 	0.9426	0.7305	0.4718	0.143
Mof_H 	H 	0.0012	0.7933	0.4501	0.128
Mof_H 	H 	0.5909	0.4338	0.4182	-0.03
Mof_H 	H 	0.6248	0.588	0.4419	0.128
Mof_H 	H 	0.662	0.3921	0.4881	0.134
Mof_H 	H 	0.6273	0.2442	0.464	-0.029
Mof_H 	H 	0.6902	0.6819	0.4758	0.16
Mof_H 	H 	0.7535	0.6309	0.4908	0.156
Mof_H 	H 	0.56	0.5014	0.5073	-0.026
Mof_H 	H 	0.6288	0.3733	0.6294	-0.014
Mof_H 	H 	0.4713	0.2827	0.6525	0.126
Mof_H 	H 	0.2995	0.0027	0.6115	0.133
Mof_H 	H 	0.4637	0.1018	0.5894	-0.046
Mof_H 	H 	0.2395	0.1255	0.6572	0.155
Mof_H 	H 	0.1832	0.0084	0.6426	0.154
Mof_H 	H 	0.3041	0.9423	0.6594	-0.022
Mof_H 	H 	0.9032	0.1797	0.4714	0.132
Mof_H 	H 	0.8897	0.3935	0.5272	0.157
Mof_H 	H 	0.9742	0.6151	0.4393	0.117
Mof_H 	H 	0.2145	0.9077	0.4925	0.307
Mof_H 	H 	0.202	0.022	0.76763	0.126
Mof_H 	H 	0.324	0.0223	0.77283	0.139
Mof_H 	H 	0.71	0.0964	0.85373	0.122
Mof_H 	H 	0.6074	0.985	0.86643	0.121
Mof_H 	H 	0.7879	0.0574	0.80513	0.125
Mof_H 	H 	0.7921	0.9988	0.78343	0.121
Mof_H 	H 	0.8429	0.4091	0.75153	-0.028
Mof_H 	H 	0.9632	0.3752	0.77523	0.127
Mof_H 	H 	0.7301	0.338	0.82143	0.13
Mof_H 	H 	0.6169	0.3727	0.79733	-0.027
Mof_H 	H 	0.9917	0.3098	0.80913	0.153
Mof_H 	H 	0.8774	0.2465	0.82413	0.146
Mof_H 	H 	0.9414	0.44	0.84063	-0.008
Mof_H 	H 	0.7445	0.3712	0.96273	-0.015
Mof_H 	H 	0.8114	0.5287	0.98583	0.13
Mof_H 	H 	0.7032	0.7005	0.94483	0.14
Mof_H 	H 	0.6381	0.5363	0.92273	-0.045
Mof_H 	H 	0.886	0.7605	0.99053	0.167
Mof_H 	H 	0.8252	0.8168	0.97593	0.169
Mof_H 	H 	0.6382	0.6959	0.99273	-0.042
Mof_H 	H 	0.2765	0.0968	0.80473	0.131
Mof_H 	H 	0.5038	0.1103	0.86053	0.155
Mof_H 	H 	0.6409	0.0258	0.77263	0.116
Mof_H 	H 	0.6932	0.7855	0.82583	0.304
Mof_H 	H 	0.82	0.798	0.10097	0.129
Mof_H 	H 	0.6983	0.676	0.10617	0.141
Mof_H 	H 	0.3864	0.29	0.18707	0.12
Mof_H 	H 	0.3776	0.3926	0.19977	0.12
Mof_H 	H 	0.2695	0.2121	0.13847	0.126
Mof_H 	H 	0.2067	0.2079	0.11677	0.12
Mof_H 	H 	0.5662	0.1571	0.08487	-0.029
Mof_H 	H 	0.412	0.0368	0.10857	0.123
Mof_H 	H 	0.6079	0.2699	0.15477	0.13
Mof_H 	H 	0.7558	0.3831	0.13067	-0.026
Mof_H 	H 	0.3181	0.0083	0.14247	0.149
Mof_H 	H 	0.3691	0.1226	0.15747	0.146
Mof_H 	H 	0.4986	0.0586	0.17397	-0.014
Mof_H 	H 	0.6267	0.2555	0.29607	-0.014
Mof_H 	H 	0.7173	0.1886	0.31917	0.124
Mof_H 	H 	0.9973	0.2968	0.27817	0.137
Mof_H 	H 	0.8982	0.3619	0.25607	-0.042
Mof_H 	H 	0.8745	0.114	0.32387	0.152
Mof_H 	H 	0.9916	0.1748	0.30927	0.157
Mof_H 	H 	0.0577	0.3618	0.32607	-0.027
Mof_H 	H 	0.8203	0.7235	0.13807	0.132
Mof_H 	H 	0.6065	0.4962	0.19387	0.156
Mof_H 	H 	0.3849	0.3591	0.10597	0.116
Mof_H 	H 	0.0923	0.3068	0.15917	0.304
Mof_H 	H 	0.022	0.82	0.9343	0.127
Mof_H 	H 	0.0223	0.6983	0.9395	0.139
Mof_H 	H 	0.0964	0.3864	0.0204	0.121
Mof_H 	H 	0.985	0.3776	0.0331	0.122
Mof_H 	H 	0.0574	0.2695	0.9718	0.122
Mof_H 	H 	0.9988	0.2067	0.9501	0.119
Mof_H 	H 	0.4091	0.5662	0.9182	-0.03
Mof_H 	H 	0.3752	0.412	0.9419	0.127
Mof_H 	H 	0.338	0.6079	0.9881	0.133
Mof_H 	H 	0.3727	0.7558	0.964	-0.028
Mof_H 	H 	0.3098	0.3181	0.9758	0.158
Mof_H 	H 	0.2465	0.3691	0.9908	0.154
Mof_H 	H 	0.44	0.4986	0.0073	-0.025
Mof_H 	H 	0.3712	0.6267	0.1294	-0.014
Mof_H 	H 	0.5287	0.7173	0.1525	0.126
Mof_H 	H 	0.7005	0.9973	0.1115	0.138
Mof_H 	H 	0.5363	0.8982	0.0894	-0.042
Mof_H 	H 	0.7605	0.8745	0.1572	0.156
Mof_H 	H 	0.8168	0.9916	0.1426	0.159
Mof_H 	H 	0.6959	0.0577	0.1594	-0.028
Mof_H 	H 	0.0968	0.8203	0.9714	0.131
Mof_H 	H 	0.1103	0.6065	0.0272	0.155
Mof_H 	H 	0.0258	0.3849	0.9393	0.115
Mof_H 	H 	0.7855	0.0923	0.9925	0.304
Mof_H 	H 	0.798	0.978	0.26763	0.133
Mof_H 	H 	0.676	0.9777	0.27283	0.144
Mof_H 	H 	0.29	0.9036	0.35373	0.115
Mof_H 	H 	0.3926	0.015	0.36643	0.105
Mof_H 	H 	0.2121	0.9426	0.30513	0.142
Mof_H 	H 	0.2079	0.0012	0.28343	0.126
Mof_H 	H 	0.1571	0.5909	0.25153	-0.029
Mof_H 	H 	0.0368	0.6248	0.27523	0.124
Mof_H 	H 	0.2699	0.662	0.32143	0.131
Mof_H 	H 	0.3831	0.6273	0.29733	-0.027
Mof_H 	H 	0.0083	0.6902	0.30913	0.151
Mof_H 	H 	0.1226	0.7535	0.32413	0.148
Mof_H 	H 	0.0586	0.56	0.34063	-0.016
Mof_H 	H 	0.2555	0.6288	0.46273	-0.015
Mof_H 	H 	0.1886	0.4713	0.48583	0.126
Mof_H 	H 	0.2968	0.2995	0.44483	0.137
Mof_H 	H 	0.3619	0.4637	0.42273	-0.044
Mof_H 	H 	0.114	0.2395	0.49053	0.159
Mof_H 	H 	0.1748	0.1832	0.47593	0.161
Mof_H 	H 	0.3618	0.3041	0.49273	-0.038
Mof_H 	H 	0.7235	0.9032	0.30473	0.134
Mof_H 	H 	0.4962	0.8897	0.36053	0.158
Mof_H 	H 	0.3591	0.9742	0.27263	0.117
Mof_H 	H 	0.3068	0.2145	0.32583	0.306
Mof_H 	H 	0.18	0.202	0.60097	0.126
Mof_H 	H 	0.3017	0.324	0.60617	0.141
Mof_H 	H 	0.6136	0.71	0.68707	0.121
Mof_H 	H 	0.6224	0.6074	0.69977	0.12
Mof_H 	H 	0.7305	0.7879	0.63847	0.129
Mof_H 	H 	0.7933	0.7921	0.61677	0.124
Mof_H 	H 	0.4338	0.8429	0.58487	-0.028
Mof_H 	H 	0.588	0.9632	0.60857	0.128
Mof_H 	H 	0.3921	0.7301	0.65477	0.131
Mof_H 	H 	0.2442	0.6169	0.63067	-0.028
Mof_H 	H 	0.6819	0.9917	0.64247	0.155
Mof_H 	H 	0.6309	0.8774	0.65747	0.148
Mof_H 	H 	0.5014	0.9414	0.67397	-0.011
Mof_H 	H 	0.3733	0.7445	0.79607	-0.014
Mof_H 	H 	0.2827	0.8114	0.81917	0.126
Mof_H 	H 	0.0027	0.7032	0.77817	0.133
Mof_H 	H 	0.1018	0.6381	0.75607	-0.046
Mof_H 	H 	0.1255	0.886	0.82387	0.156
Mof_H 	H 	0.0084	0.8252	0.80927	0.156
Mof_H 	H 	0.9423	0.6382	0.82607	-0.021
Mof_H 	H 	0.1797	0.2765	0.63807	0.13
Mof_H 	H 	0.3935	0.5038	0.69387	0.155
Mof_H 	H 	0.6151	0.6409	0.60597	0.116
Mof_H 	H 	0.9077	0.6932	0.65917	0.306
Mof_H 	H 	0.798	0.82	0.89903	0.129
Mof_H 	H 	0.676	0.6983	0.89383	0.141
Mof_H 	H 	0.29	0.3864	0.81293	0.12
Mof_H 	H 	0.3926	0.3776	0.80023	0.12
Mof_H 	H 	0.2121	0.2695	0.86153	0.126
Mof_H 	H 	0.2079	0.2067	0.88323	0.12
Mof_H 	H 	0.1571	0.5662	0.91513	-0.029
Mof_H 	H 	0.0368	0.412	0.89143	0.123
Mof_H 	H 	0.2699	0.6079	0.84523	0.13
Mof_H 	H 	0.3831	0.7558	0.86933	-0.026
Mof_H 	H 	0.0083	0.3181	0.85753	0.149
Mof_H 	H 	0.1226	0.3691	0.84253	0.146
Mof_H 	H 	0.0586	0.4986	0.82603	-0.014
Mof_H 	H 	0.2555	0.6267	0.70393	-0.014
Mof_H 	H 	0.1886	0.7173	0.68083	0.124
Mof_H 	H 	0.2968	0.9973	0.72183	0.137
Mof_H 	H 	0.3619	0.8982	0.74393	-0.042
Mof_H 	H 	0.114	0.8745	0.67613	0.152
Mof_H 	H 	0.1748	0.9916	0.69073	0.157
Mof_H 	H 	0.3618	0.0577	0.67393	-0.027
Mof_H 	H 	0.7235	0.8203	0.86193	0.132
Mof_H 	H 	0.4962	0.6065	0.80613	0.156
Mof_H 	H 	0.3591	0.3849	0.89403	0.116
Mof_H 	H 	0.3068	0.0923	0.84083	0.304
Mof_H 	H 	0.18	0.978	0.5657	0.131
Mof_H 	H 	0.3017	0.9777	0.5605	0.144
Mof_H 	H 	0.6136	0.9036	0.4796	0.115
Mof_H 	H 	0.6224	0.015	0.4669	0.106
Mof_H 	H 	0.7305	0.9426	0.5282	0.143
Mof_H 	H 	0.7933	0.0012	0.5499	0.128
Mof_H 	H 	0.4338	0.5909	0.5818	-0.03
Mof_H 	H 	0.588	0.6248	0.5581	0.128
Mof_H 	H 	0.3921	0.662	0.5119	0.134
Mof_H 	H 	0.2442	0.6273	0.536	-0.029
Mof_H 	H 	0.6819	0.6902	0.5242	0.16
Mof_H 	H 	0.6309	0.7535	0.5092	0.156
Mof_H 	H 	0.5014	0.56	0.4927	-0.026
Mof_H 	H 	0.3733	0.6288	0.3706	-0.014
Mof_H 	H 	0.2827	0.4713	0.3475	0.126
Mof_H 	H 	0.0027	0.2995	0.3885	0.133
Mof_H 	H 	0.1018	0.4637	0.4106	-0.046
Mof_H 	H 	0.1255	0.2395	0.3428	0.155
Mof_H 	H 	0.0084	0.1832	0.3574	0.154
Mof_H 	H 	0.9423	0.3041	0.3406	-0.022
Mof_H 	H 	0.1797	0.9032	0.5286	0.132
Mof_H 	H 	0.3935	0.8897	0.4728	0.157
Mof_H 	H 	0.6151	0.9742	0.5607	0.117
Mof_H 	H 	0.9077	0.2145	0.5075	0.307
Mof_H 	H 	0.022	0.202	0.23237	0.126
Mof_H 	H 	0.0223	0.324	0.22717	0.139
Mof_H 	H 	0.0964	0.71	0.14627	0.122
Mof_H 	H 	0.985	0.6074	0.13357	0.121
Mof_H 	H 	0.0574	0.7879	0.19487	0.125
Mof_H 	H 	0.9988	0.7921	0.21657	0.121
Mof_H 	H 	0.4091	0.8429	0.24847	-0.028
Mof_H 	H 	0.3752	0.9632	0.22477	0.127
Mof_H 	H 	0.338	0.7301	0.17857	0.13
Mof_H 	H 	0.3727	0.6169	0.20267	-0.027
Mof_H 	H 	0.3098	0.9917	0.19087	0.153
Mof_H 	H 	0.2465	0.8774	0.17587	0.146
Mof_H 	H 	0.44	0.9414	0.15937	-0.008
Mof_H 	H 	0.3712	0.7445	0.03727	-0.015
Mof_H 	H 	0.5287	0.8114	0.01417	0.13
Mof_H 	H 	0.7005	0.7032	0.05517	0.14
Mof_H 	H 	0.5363	0.6381	0.07727	-0.045
Mof_H 	H 	0.7605	0.886	0.00947	0.167
Mof_H 	H 	0.8168	0.8252	0.02407	0.169
Mof_H 	H 	0.6959	0.6382	0.00727	-0.042
Mof_H 	H 	0.0968	0.2765	0.19527	0.131
Mof_H 	H 	0.1103	0.5038	0.13947	0.155
Mof_H 	H 	0.0258	0.6409	0.22737	0.116
Mof_H 	H 	0.7855	0.6932	0.17417	0.304
Mof_H 	H 	0.202	0.18	0.39903	0.126
Mof_H 	H 	0.324	0.3017	0.39383	0.141
Mof_H 	H 	0.71	0.6136	0.31293	0.121
Mof_H 	H 	0.6074	0.6224	0.30023	0.12
Mof_H 	H 	0.7879	0.7305	0.36153	0.129
Mof_H 	H 	0.7921	0.7933	0.38323	0.124
Mof_H 	H 	0.8429	0.4338	0.41513	-0.028
Mof_H 	H 	0.9632	0.588	0.39143	0.128
Mof_H 	H 	0.7301	0.3921	0.34523	0.131
Mof_H 	H 	0.6169	0.2442	0.36933	-0.028
Mof_H 	H 	0.9917	0.6819	0.35753	0.155
Mof_H 	H 	0.8774	0.6309	0.34253	0.148
Mof_H 	H 	0.9414	0.5014	0.32603	-0.011
Mof_H 	H 	0.7445	0.3733	0.20393	-0.014
Mof_H 	H 	0.8114	0.2827	0.18083	0.126
Mof_H 	H 	0.7032	0.0027	0.22183	0.133
Mof_H 	H 	0.6381	0.1018	0.24393	-0.046
Mof_H 	H 	0.886	0.1255	0.17613	0.156
Mof_H 	H 	0.8252	0.0084	0.19073	0.156
Mof_H 	H 	0.6382	0.9423	0.17393	-0.021
Mof_H 	H 	0.2765	0.1797	0.36193	0.13
Mof_H 	H 	0.5038	0.3935	0.30613	0.155
Mof_H 	H 	0.6409	0.6151	0.39403	0.116
Mof_H 	H 	0.6932	0.9077	0.34083	0.306
Mof_H 	H 	0.82	0.022	0.0657	0.127
Mof_H 	H 	0.6983	0.0223	0.0605	0.139
Mof_H 	H 	0.3864	0.0964	0.9796	0.121
Mof_H 	H 	0.3776	0.985	0.9669	0.122
Mof_H 	H 	0.2695	0.0574	0.0282	0.122
Mof_H 	H 	0.2067	0.9988	0.0499	0.119
Mof_H 	H 	0.5662	0.4091	0.0818	-0.03
Mof_H 	H 	0.412	0.3752	0.0581	0.127
Mof_H 	H 	0.6079	0.338	0.0119	0.133
Mof_H 	H 	0.7558	0.3727	0.036	-0.028
Mof_H 	H 	0.3181	0.3098	0.0242	0.158
Mof_H 	H 	0.3691	0.2465	0.0092	0.154
Mof_H 	H 	0.4986	0.44	0.9927	-0.024
Mof_H 	H 	0.6267	0.3712	0.8706	-0.014
Mof_H 	H 	0.7173	0.5287	0.8475	0.126
Mof_H 	H 	0.9973	0.7005	0.8885	0.138
Mof_H 	H 	0.8982	0.5363	0.9106	-0.042
Mof_H 	H 	0.8745	0.7605	0.8428	0.156
Mof_H 	H 	0.9916	0.8168	0.8574	0.159
Mof_H 	H 	0.0577	0.6959	0.8406	-0.028
Mof_H 	H 	0.8203	0.0968	0.0286	0.131
Mof_H 	H 	0.6065	0.1103	0.9728	0.155
Mof_H 	H 	0.3849	0.0258	0.0607	0.115
Mof_H 	H 	0.0923	0.7855	0.0075	0.304
Mof_H 	H 	0.978	0.798	0.73237	0.133
Mof_H 	H 	0.9777	0.676	0.72717	0.144
Mof_H 	H 	0.9036	0.29	0.64627	0.115
Mof_H 	H 	0.015	0.3926	0.63357	0.105
Mof_H 	H 	0.9426	0.2121	0.69487	0.142
Mof_H 	H 	0.0012	0.2079	0.71657	0.126
Mof_H 	H 	0.5909	0.1571	0.74847	-0.029
Mof_H 	H 	0.6248	0.0368	0.72477	0.124
Mof_H 	H 	0.662	0.2699	0.67857	0.131
Mof_H 	H 	0.6273	0.3831	0.70267	-0.027
Mof_H 	H 	0.6902	0.0083	0.69087	0.151
Mof_H 	H 	0.7535	0.1226	0.67587	0.148
Mof_H 	H 	0.56	0.0586	0.65937	-0.016
Mof_H 	H 	0.6288	0.2555	0.53727	-0.015
Mof_H 	H 	0.4713	0.1886	0.51417	0.126
Mof_H 	H 	0.2995	0.2968	0.55517	0.137
Mof_H 	H 	0.4637	0.3619	0.57727	-0.044
Mof_H 	H 	0.2395	0.114	0.50947	0.159
Mof_H 	H 	0.1832	0.1748	0.52407	0.161
Mof_H 	H 	0.3041	0.3618	0.50727	-0.038
Mof_H 	H 	0.9032	0.7235	0.69527	0.134
Mof_H 	H 	0.8897	0.4962	0.63947	0.158
Mof_H 	H 	0.9742	0.3591	0.72737	0.117
Mof_H 	H 	0.2145	0.3068	0.67417	0.306
Mof_C 	C 	0.9233	0.3384	0.469	0.186
Mof_C 	C 	0.9247	0.4512	0.49875	0.188
Mof_C 	C 	0.9592	0.5315	0.46552	0.183
Mof_C 	C 	0.9298	0.2136	0.43973	-0.287
Mof_C 	C 	0.8177	0.1721	0.42601	0.408
Mof_C 	C 	0.9285	0.5697	0.52994	-0.218
Mof_C 	C 	0.8556	0.5414	0.55026	0.351
Mof_C 	C 	0.0053	0.7435	0.46144	-0.301
Mof_C 	C 	0.1306	0.8136	0.47203	0.457
Mof_C 	C 	0.6058	0.4251	0.43239	0.148
Mof_C 	C 	0.6267	0.519	0.44667	-0.273
Mof_C 	C 	0.6504	0.5098	0.46794	0.271
Mof_C 	C 	0.6486	0.4034	0.47396	-0.275
Mof_C 	C 	0.6274	0.3145	0.45941	0.151
Mof_C 	C 	0.6776	0.6098	0.48349	-0.425
Mof_C 	C 	0.561	0.2988	0.62554	0.139
Mof_C 	C 	0.4667	0.2448	0.63963	-0.263
Mof_C 	C 	0.3635	0.1331	0.63479	0.243
Mof_C 	C 	0.3649	0.0788	0.61537	-0.267
Mof_C 	C 	0.4641	0.1397	0.60214	0.14
Mof_C 	C 	0.2563	0.0665	0.6503	-0.407
Mof_C 	C 	0.4151	0.0767	0.80233	0.185
Mof_C 	C 	0.5265	0.0753	0.83208	0.185
Mof_C 	C 	0.5723	0.0408	0.79885	0.182
Mof_C 	C 	0.2838	0.0702	0.77306	-0.283
Mof_C 	C 	0.3544	0.1823	0.75934	0.406
Mof_C 	C 	0.6412	0.0715	0.86327	-0.244
Mof_C 	C 	0.6858	0.1444	0.88359	0.358
Mof_C 	C 	0.7382	0.9947	0.79477	-0.263
Mof_C 	C 	0.683	0.8694	0.80536	0.448
Mof_C 	C 	0.8193	0.3942	0.76572	0.144
Mof_C 	C 	0.8923	0.3733	0.78	-0.264
Mof_C 	C 	0.8594	0.3496	0.80127	0.257
Mof_C 	C 	0.7548	0.3514	0.80729	-0.266
Mof_C 	C 	0.6871	0.3726	0.79274	0.147
Mof_C 	C 	0.9322	0.3224	0.81682	-0.391
Mof_C 	C 	0.7378	0.439	0.95887	0.145
Mof_C 	C 	0.7781	0.5333	0.97296	-0.273
Mof_C 	C 	0.7696	0.6365	0.96812	0.26
Mof_C 	C 	0.7139	0.6351	0.9487	-0.276
Mof_C 	C 	0.6756	0.5359	0.93547	0.147
Mof_C 	C 	0.8102	0.7437	0.98363	-0.442
Mof_C 	C 	0.6616	0.5849	0.13567	0.185
Mof_C 	C 	0.5488	0.4735	0.16542	0.185
Mof_C 	C 	0.4685	0.4277	0.13219	0.182
Mof_C 	C 	0.7864	0.7162	0.1064	-0.284
Mof_C 	C 	0.8279	0.6456	0.09268	0.407
Mof_C 	C 	0.4303	0.3588	0.19661	-0.242
Mof_C 	C 	0.4586	0.3142	0.21693	0.357
Mof_C 	C 	0.2565	0.2618	0.12811	-0.269
Mof_C 	C 	0.1864	0.317	0.1387	0.448
Mof_C 	C 	0.5749	0.1807	0.09906	0.142
Mof_C 	C 	0.481	0.1077	0.11334	-0.264
Mof_C 	C 	0.4902	0.1406	0.13461	0.256
Mof_C 	C 	0.5966	0.2452	0.14063	-0.266
Mof_C 	C 	0.6855	0.3129	0.12608	0.146
Mof_C 	C 	0.3902	0.0678	0.15016	-0.395
Mof_C 	C 	0.7012	0.2622	0.29221	0.137
Mof_C 	C 	0.7552	0.2219	0.3063	-0.262
Mof_C 	C 	0.8669	0.2304	0.30146	0.242
Mof_C 	C 	0.9212	0.2861	0.28204	-0.266
Mof_C 	C 	0.8603	0.3244	0.26881	0.141
Mof_C 	C 	0.9335	0.1898	0.31697	-0.401
Mof_C 	C 	0.0767	0.6616	0.969	0.184
Mof_C 	C 	0.0753	0.5488	0.99875	0.185
Mof_C 	C 	0.0408	0.4685	0.96552	0.182
Mof_C 	C 	0.0702	0.7864	0.93973	-0.283
Mof_C 	C 	0.1823	0.8279	0.92601	0.406
Mof_C 	C 	0.0715	0.4303	0.02994	-0.244
Mof_C 	C 	0.1444	0.4586	0.05026	0.358
Mof_C 	C 	0.9947	0.2565	0.96144	-0.26
Mof_C 	C 	0.8694	0.1864	0.97203	0.446
Mof_C 	C 	0.3942	0.5749	0.93239	0.147
Mof_C 	C 	0.3733	0.481	0.94667	-0.272
Mof_C 	C 	0.3496	0.4902	0.96794	0.268
Mof_C 	C 	0.3514	0.5966	0.97396	-0.274
Mof_C 	C 	0.3726	0.6855	0.95941	0.15
Mof_C 	C 	0.3224	0.3902	0.98349	-0.421
Mof_C 	C 	0.439	0.7012	0.12554	0.14
Mof_C 	C 	0.5333	0.7552	0.13963	-0.263
Mof_C 	C 	0.6365	0.8669	0.13479	0.245
Mof_C 	C 	0.6351	0.9212	0.11537	-0.267
Mof_C 	C 	0.5359	0.8603	0.10214	0.142
Mof_C 	C 	0.7437	0.9335	0.1503	-0.404
Mof_C 	C 	0.5849	0.9233	0.30233	0.187
Mof_C 	C 	0.4735	0.9247	0.33208	0.188
Mof_C 	C 	0.4277	0.9592	0.29885	0.184
Mof_C 	C 	0.7162	0.9298	0.27306	-0.286
Mof_C 	C 	0.6456	0.8177	0.25934	0.408
Mof_C 	C 	0.3588	0.9285	0.36327	-0.217
Mof_C 	C 	0.3142	0.8556	0.38359	0.351
Mof_C 	C 	0.2618	0.0053	0.29477	-0.302
Mof_C 	C 	0.317	0.1306	0.30536	0.457
Mof_C 	C 	0.1807	0.6058	0.26572	0.143
Mof_C 	C 	0.1077	0.6267	0.28	-0.265
Mof_C 	C 	0.1406	0.6504	0.30127	0.258
Mof_C 	C 	0.2452	0.6486	0.30729	-0.268
Mof_C 	C 	0.3129	0.6274	0.29274	0.147
Mof_C 	C 	0.0678	0.6776	0.31682	-0.4
Mof_C 	C 	0.2622	0.561	0.45887	0.141
Mof_C 	C 	0.2219	0.4667	0.47296	-0.269
Mof_C 	C 	0.2304	0.3635	0.46812	0.251
Mof_C 	C 	0.2861	0.3649	0.4487	-0.272
Mof_C 	C 	0.3244	0.4641	0.43547	0.143
Mof_C 	C 	0.1898	0.2563	0.48363	-0.428
Mof_C 	C 	0.3384	0.4151	0.63567	0.185
Mof_C 	C 	0.4512	0.5265	0.66542	0.185
Mof_C 	C 	0.5315	0.5723	0.63219	0.182
Mof_C 	C 	0.2136	0.2838	0.6064	-0.285
Mof_C 	C 	0.1721	0.3544	0.59268	0.407
Mof_C 	C 	0.5697	0.6412	0.69661	-0.242
Mof_C 	C 	0.5414	0.6858	0.71693	0.357
Mof_C 	C 	0.7435	0.7382	0.62811	-0.271
Mof_C 	C 	0.8136	0.683	0.6387	0.451
Mof_C 	C 	0.4251	0.8193	0.59906	0.145
Mof_C 	C 	0.519	0.8923	0.61334	-0.265
Mof_C 	C 	0.5098	0.8594	0.63461	0.26
Mof_C 	C 	0.4034	0.7548	0.64063	-0.268
Mof_C 	C 	0.3145	0.6871	0.62608	0.148
Mof_C 	C 	0.6098	0.9322	0.65016	-0.397
Mof_C 	C 	0.2988	0.7378	0.79221	0.139
Mof_C 	C 	0.2448	0.7781	0.8063	-0.263
Mof_C 	C 	0.1331	0.7696	0.80146	0.244
Mof_C 	C 	0.0788	0.7139	0.78204	-0.268
Mof_C 	C 	0.1397	0.6756	0.76881	0.141
Mof_C 	C 	0.0665	0.8102	0.81697	-0.409
Mof_C 	C 	0.5849	0.6616	0.86433	0.185
Mof_C 	C 	0.4735	0.5488	0.83458	0.185
Mof_C 	C 	0.4277	0.4685	0.86781	0.182
Mof_C 	C 	0.7162	0.7864	0.8936	-0.284
Mof_C 	C 	0.6456	0.8279	0.90732	0.407
Mof_C 	C 	0.3588	0.4303	0.80339	-0.242
Mof_C 	C 	0.3142	0.4586	0.78307	0.357
Mof_C 	C 	0.2618	0.2565	0.87189	-0.269
Mof_C 	C 	0.317	0.1864	0.8613	0.448
Mof_C 	C 	0.1807	0.5749	0.90094	0.142
Mof_C 	C 	0.1077	0.481	0.88666	-0.264
Mof_C 	C 	0.1406	0.4902	0.86539	0.256
Mof_C 	C 	0.2452	0.5966	0.85937	-0.266
Mof_C 	C 	0.3129	0.6855	0.87392	0.146
Mof_C 	C 	0.0678	0.3902	0.84984	-0.395
Mof_C 	C 	0.2622	0.7012	0.70779	0.137
Mof_C 	C 	0.2219	0.7552	0.6937	-0.262
Mof_C 	C 	0.2304	0.8669	0.69854	0.242
Mof_C 	C 	0.2861	0.9212	0.71796	-0.266
Mof_C 	C 	0.3244	0.8603	0.73119	0.141
Mof_C 	C 	0.1898	0.9335	0.68303	-0.401
Mof_C 	C 	0.3384	0.9233	0.531	0.186
Mof_C 	C 	0.4512	0.9247	0.50125	0.188
Mof_C 	C 	0.5315	0.9592	0.53448	0.183
Mof_C 	C 	0.2136	0.9298	0.56027	-0.287
Mof_C 	C 	0.1721	0.8177	0.57399	0.408
Mof_C 	C 	0.5697	0.9285	0.47006	-0.218
Mof_C 	C 	0.5414	0.8556	0.44974	0.351
Mof_C 	C 	0.7435	0.0053	0.53856	-0.301
Mof_C 	C 	0.8136	0.1306	0.52797	0.457
Mof_C 	C 	0.4251	0.6058	0.56761	0.148
Mof_C 	C 	0.519	0.6267	0.55333	-0.273
Mof_C 	C 	0.5098	0.6504	0.53206	0.271
Mof_C 	C 	0.4034	0.6486	0.52604	-0.275
Mof_C 	C 	0.3145	0.6274	0.54059	0.151
Mof_C 	C 	0.6098	0.6776	0.51651	-0.425
Mof_C 	C 	0.2988	0.561	0.37446	0.139
Mof_C 	C 	0.2448	0.4667	0.36037	-0.263
Mof_C 	C 	0.1331	0.3635	0.36521	0.243
Mof_C 	C 	0.0788	0.3649	0.38463	-0.267
Mof_C 	C 	0.1397	0.4641	0.39786	0.14
Mof_C 	C 	0.0665	0.2563	0.3497	-0.407
Mof_C 	C 	0.0767	0.4151	0.19767	0.185
Mof_C 	C 	0.0753	0.5265	0.16792	0.185
Mof_C 	C 	0.0408	0.5723	0.20115	0.182
Mof_C 	C 	0.0702	0.2838	0.22694	-0.283
Mof_C 	C 	0.1823	0.3544	0.24066	0.406
Mof_C 	C 	0.0715	0.6412	0.13673	-0.244
Mof_C 	C 	0.1444	0.6858	0.11641	0.358
Mof_C 	C 	0.9947	0.7382	0.20523	-0.263
Mof_C 	C 	0.8694	0.683	0.19464	0.448
Mof_C 	C 	0.3942	0.8193	0.23428	0.144
Mof_C 	C 	0.3733	0.8923	0.22	-0.264
Mof_C 	C 	0.3496	0.8594	0.19873	0.257
Mof_C 	C 	0.3514	0.7548	0.19271	-0.266
Mof_C 	C 	0.3726	0.6871	0.20726	0.147
Mof_C 	C 	0.3224	0.9322	0.18318	-0.391
Mof_C 	C 	0.439	0.7378	0.04113	0.145
Mof_C 	C 	0.5333	0.7781	0.02704	-0.273
Mof_C 	C 	0.6365	0.7696	0.03188	0.26
Mof_C 	C 	0.6351	0.7139	0.0513	-0.276
Mof_C 	C 	0.5359	0.6756	0.06453	0.147
Mof_C 	C 	0.7437	0.8102	0.01637	-0.442
Mof_C 	C 	0.4151	0.3384	0.36433	0.185
Mof_C 	C 	0.5265	0.4512	0.33458	0.185
Mof_C 	C 	0.5723	0.5315	0.36781	0.182
Mof_C 	C 	0.2838	0.2136	0.3936	-0.285
Mof_C 	C 	0.3544	0.1721	0.40732	0.407
Mof_C 	C 	0.6412	0.5697	0.30339	-0.242
Mof_C 	C 	0.6858	0.5414	0.28307	0.357
Mof_C 	C 	0.7382	0.7435	0.37189	-0.271
Mof_C 	C 	0.683	0.8136	0.3613	0.451
Mof_C 	C 	0.8193	0.4251	0.40094	0.145
Mof_C 	C 	0.8923	0.519	0.38666	-0.265
Mof_C 	C 	0.8594	0.5098	0.36539	0.26
Mof_C 	C 	0.7548	0.4034	0.35937	-0.268
Mof_C 	C 	0.6871	0.3145	0.37392	0.148
Mof_C 	C 	0.9322	0.6098	0.34984	-0.397
Mof_C 	C 	0.7378	0.2988	0.20779	0.139
Mof_C 	C 	0.7781	0.2448	0.1937	-0.263
Mof_C 	C 	0.7696	0.1331	0.19854	0.244
Mof_C 	C 	0.7139	0.0788	0.21796	-0.268
Mof_C 	C 	0.6756	0.1397	0.23119	0.141
Mof_C 	C 	0.8102	0.0665	0.18303	-0.409
Mof_C 	C 	0.6616	0.0767	0.031	0.184
Mof_C 	C 	0.5488	0.0753	0.00125	0.184
Mof_C 	C 	0.4685	0.0408	0.03448	0.182
Mof_C 	C 	0.7864	0.0702	0.06027	-0.283
Mof_C 	C 	0.8279	0.1823	0.07399	0.406
Mof_C 	C 	0.4303	0.0715	0.97006	-0.245
Mof_C 	C 	0.4586	0.1444	0.94974	0.358
Mof_C 	C 	0.2565	0.9947	0.03856	-0.26
Mof_C 	C 	0.1864	0.8694	0.02797	0.446
Mof_C 	C 	0.5749	0.3942	0.06761	0.147
Mof_C 	C 	0.481	0.3733	0.05333	-0.272
Mof_C 	C 	0.4902	0.3496	0.03206	0.268
Mof_C 	C 	0.5966	0.3514	0.02604	-0.274
Mof_C 	C 	0.6855	0.3726	0.04059	0.15
Mof_C 	C 	0.3902	0.3224	0.01651	-0.421
Mof_C 	C 	0.7012	0.439	0.87446	0.14
Mof_C 	C 	0.7552	0.5333	0.86037	-0.263
Mof_C 	C 	0.8669	0.6365	0.86521	0.245
Mof_C 	C 	0.9212	0.6351	0.88463	-0.267
Mof_C 	C 	0.8603	0.5359	0.89786	0.142
Mof_C 	C 	0.9335	0.7437	0.8497	-0.404
Mof_C 	C 	0.9233	0.5849	0.69767	0.187
Mof_C 	C 	0.9247	0.4735	0.66792	0.188
Mof_C 	C 	0.9592	0.4277	0.70115	0.184
Mof_C 	C 	0.9298	0.7162	0.72694	-0.286
Mof_C 	C 	0.8177	0.6456	0.74066	0.408
Mof_C 	C 	0.9285	0.3588	0.63673	-0.217
Mof_C 	C 	0.8556	0.3142	0.61641	0.351
Mof_C 	C 	0.0053	0.2618	0.70523	-0.302
Mof_C 	C 	0.1306	0.317	0.69464	0.457
Mof_C 	C 	0.6058	0.1807	0.73428	0.143
Mof_C 	C 	0.6267	0.1077	0.72	-0.265
Mof_C 	C 	0.6504	0.1406	0.69873	0.258
Mof_C 	C 	0.6486	0.2452	0.69271	-0.268
Mof_C 	C 	0.6274	0.3129	0.70726	0.147
Mof_C 	C 	0.6776	0.0678	0.68318	-0.4
Mof_C 	C 	0.561	0.2622	0.54113	0.141
Mof_C 	C 	0.4667	0.2219	0.52704	-0.269
Mof_C 	C 	0.3635	0.2304	0.53188	0.251
Mof_C 	C 	0.3649	0.2861	0.5513	-0.272
Mof_C 	C 	0.4641	0.3244	0.56453	0.143
Mof_C 	C 	0.2563	0.1898	0.51637	-0.428
Mof_C 	C 	0.5763	0.5763	0.5	0.2
Mof_C 	C 	1.67183e-17	0.4237	0.83333	0.153
Mof_C 	C 	0.4237	0	0.16667	0.153
Mof_C 	C 	0.4237	0.4237	-0	0.196
Mof_C 	C 	6.68853e-18	0.5763	0.33333	0.161
Mof_C 	C 	0.5763	-4.68483e-32	0.66667	0.161
Mof_C 	C 	0.2877	-4.68483e-32	0.66667	0.194
Mof_C 	C 	0.7123	0.7123	-0	0.249
Mof_C 	C 	6.68853e-18	0.2877	0.33333	0.194
Mof_C 	C 	0.7123	0	0.16667	0.194
Mof_C 	C 	0.2877	0.2877	0.5	0.234
Mof_C 	C 	1.67183e-17	0.7123	0.83333	0.194
Mof_N 	N 	0.9471	0.4299	0.45595	-0.173
Mof_N 	N 	0.9089	0.3435	0.49086	-0.181
Mof_N 	N 	0.9514	0.5493	0.48672	-0.161
Mof_N 	N 	0.9163	0.2359	0.46225	-0.179
Mof_N 	N 	0.9104	0.4577	0.51953	-0.191
Mof_N 	N 	0.9782	0.6253	0.4528	-0.161
Mof_N 	N 	0.6063	0.3235	0.43835	-0.263
Mof_N 	N 	0.5627	0.2513	0.60635	-0.277
Mof_N 	N 	0.4828	0.0529	0.78928	-0.175
Mof_N 	N 	0.4346	0.0911	0.82419	-0.181
Mof_N 	N 	0.5979	0.0486	0.82005	-0.162
Mof_N 	N 	0.3196	0.0837	0.79558	-0.18
Mof_N 	N 	0.5473	0.0896	0.85286	-0.187
Mof_N 	N 	0.6471	0.0218	0.78613	-0.17
Mof_N 	N 	0.7172	0.3937	0.77168	-0.261
Mof_N 	N 	0.6886	0.4373	0.93968	-0.279
Mof_N 	N 	0.5701	0.5172	0.12262	-0.174
Mof_N 	N 	0.6565	0.5654	0.15753	-0.181
Mof_N 	N 	0.4507	0.4021	0.15339	-0.162
Mof_N 	N 	0.7641	0.6804	0.12892	-0.18
Mof_N 	N 	0.5423	0.4527	0.1862	-0.188
Mof_N 	N 	0.3747	0.3529	0.11947	-0.169
Mof_N 	N 	0.6765	0.2828	0.10502	-0.261
Mof_N 	N 	0.7487	0.3114	0.27302	-0.277
Mof_N 	N 	0.0529	0.5701	0.95595	-0.175
Mof_N 	N 	0.0911	0.6565	0.99086	-0.181
Mof_N 	N 	0.0486	0.4507	0.98672	-0.163
Mof_N 	N 	0.0837	0.7641	0.96225	-0.18
Mof_N 	N 	0.0896	0.5423	0.01953	-0.187
Mof_N 	N 	0.0218	0.3747	0.9528	-0.171
Mof_N 	N 	0.3937	0.6765	0.93835	-0.262
Mof_N 	N 	0.4373	0.7487	0.10635	-0.277
Mof_N 	N 	0.5172	0.9471	0.28928	-0.173
Mof_N 	N 	0.5654	0.9089	0.32419	-0.181
Mof_N 	N 	0.4021	0.9514	0.32005	-0.161
Mof_N 	N 	0.6804	0.9163	0.29558	-0.179
Mof_N 	N 	0.4527	0.9104	0.35286	-0.191
Mof_N 	N 	0.3529	0.9782	0.28613	-0.161
Mof_N 	N 	0.2828	0.6063	0.27168	-0.261
Mof_N 	N 	0.3114	0.5627	0.43968	-0.278
Mof_N 	N 	0.4299	0.4828	0.62262	-0.174
Mof_N 	N 	0.3435	0.4346	0.65753	-0.182
Mof_N 	N 	0.5493	0.5979	0.65339	-0.162
Mof_N 	N 	0.2359	0.3196	0.62892	-0.179
Mof_N 	N 	0.4577	0.5473	0.6862	-0.187
Mof_N 	N 	0.6253	0.6471	0.61947	-0.168
Mof_N 	N 	0.3235	0.7172	0.60502	-0.262
Mof_N 	N 	0.2513	0.6886	0.77302	-0.277
Mof_N 	N 	0.5172	0.5701	0.87738	-0.174
Mof_N 	N 	0.5654	0.6565	0.84247	-0.181
Mof_N 	N 	0.4021	0.4507	0.84661	-0.162
Mof_N 	N 	0.6804	0.7641	0.87108	-0.18
Mof_N 	N 	0.4527	0.5423	0.8138	-0.188
Mof_N 	N 	0.3529	0.3747	0.88053	-0.169
Mof_N 	N 	0.2828	0.6765	0.89498	-0.261
Mof_N 	N 	0.3114	0.7487	0.72698	-0.277
Mof_N 	N 	0.4299	0.9471	0.54405	-0.173
Mof_N 	N 	0.3435	0.9089	0.50914	-0.181
Mof_N 	N 	0.5493	0.9514	0.51328	-0.161
Mof_N 	N 	0.2359	0.9163	0.53775	-0.179
Mof_N 	N 	0.4577	0.9104	0.48047	-0.191
Mof_N 	N 	0.6253	0.9782	0.5472	-0.161
Mof_N 	N 	0.3235	0.6063	0.56165	-0.263
Mof_N 	N 	0.2513	0.5627	0.39365	-0.277
Mof_N 	N 	0.0529	0.4828	0.21072	-0.175
Mof_N 	N 	0.0911	0.4346	0.17581	-0.181
Mof_N 	N 	0.0486	0.5979	0.17995	-0.162
Mof_N 	N 	0.0837	0.3196	0.20442	-0.18
Mof_N 	N 	0.0896	0.5473	0.14714	-0.187
Mof_N 	N 	0.0218	0.6471	0.21387	-0.17
Mof_N 	N 	0.3937	0.7172	0.22832	-0.261
Mof_N 	N 	0.4373	0.6886	0.06032	-0.279
Mof_N 	N 	0.4828	0.4299	0.37738	-0.174
Mof_N 	N 	0.4346	0.3435	0.34247	-0.182
Mof_N 	N 	0.5979	0.5493	0.34661	-0.162
Mof_N 	N 	0.3196	0.2359	0.37108	-0.179
Mof_N 	N 	0.5473	0.4577	0.3138	-0.187
Mof_N 	N 	0.6471	0.6253	0.38053	-0.168
Mof_N 	N 	0.7172	0.3235	0.39498	-0.262
Mof_N 	N 	0.6886	0.2513	0.22698	-0.277
Mof_N 	N 	0.5701	0.0529	0.04405	-0.175
Mof_N 	N 	0.6565	0.0911	0.00914	-0.181
Mof_N 	N 	0.4507	0.0486	0.01328	-0.163
Mof_N 	N 	0.7641	0.0837	0.03775	-0.18
Mof_N 	N 	0.5423	0.0896	0.98047	-0.187
Mof_N 	N 	0.3747	0.0218	0.0472	-0.171
Mof_N 	N 	0.6765	0.3937	0.06165	-0.262
Mof_N 	N 	0.7487	0.4373	0.89365	-0.277
Mof_N 	N 	0.9471	0.5172	0.71072	-0.173
Mof_N 	N 	0.9089	0.5654	0.67581	-0.181
Mof_N 	N 	0.9514	0.4021	0.67995	-0.161
Mof_N 	N 	0.9163	0.6804	0.70442	-0.179
Mof_N 	N 	0.9104	0.4527	0.64714	-0.191
Mof_N 	N 	0.9782	0.3529	0.71387	-0.161
Mof_N 	N 	0.6063	0.2828	0.72832	-0.261
Mof_N 	N 	0.5627	0.3114	0.56032	-0.278
Mof_O 	O 	0.7328	0.1845	0.4335	-0.449
Mof_O 	O 	0.8206	0.1302	0.40815	-0.318
Mof_O 	O 	0.829	0.443	0.56005	-0.421
Mof_O 	O 	0.8279	0.6208	0.55662	-0.289
Mof_O 	O 	0.143	0.8748	0.48846	-0.55
Mof_O 	O 	0.2174	0.8062	0.46317	-0.311
Mof_O 	O 	0.4517	0.2672	0.76683	-0.448
Mof_O 	O 	0.3096	0.1794	0.74148	-0.318
Mof_O 	O 	0.614	0.171	0.89338	-0.424
Mof_O 	O 	0.7929	0.1721	0.88995	-0.292
Mof_O 	O 	0.7318	0.857	0.82179	-0.542
Mof_O 	O 	0.5888	0.7826	0.7965	-0.308
Mof_O 	O 	0.8155	0.5483	0.10017	-0.447
Mof_O 	O 	0.8698	0.6904	0.07482	-0.316
Mof_O 	O 	0.557	0.386	0.22672	-0.424
Mof_O 	O 	0.3792	0.2071	0.22329	-0.297
Mof_O 	O 	0.1252	0.2682	0.15513	-0.546
Mof_O 	O 	0.1938	0.4112	0.12984	-0.309
Mof_O 	O 	0.2672	0.8155	0.9335	-0.448
Mof_O 	O 	0.1794	0.8698	0.90815	-0.317
Mof_O 	O 	0.171	0.557	0.06005	-0.424
Mof_O 	O 	0.1721	0.3792	0.05662	-0.295
Mof_O 	O 	0.857	0.1252	0.98846	-0.544
Mof_O 	O 	0.7826	0.1938	0.96317	-0.307
Mof_O 	O 	0.5483	0.7328	0.26683	-0.448
Mof_O 	O 	0.6904	0.8206	0.24148	-0.314
Mof_O 	O 	0.386	0.829	0.39338	-0.421
Mof_O 	O 	0.2071	0.8279	0.38995	-0.292
Mof_O 	O 	0.2682	0.143	0.32179	-0.552
Mof_O 	O 	0.4112	0.2174	0.2965	-0.312
Mof_O 	O 	0.1845	0.4517	0.60017	-0.449
Mof_O 	O 	0.1302	0.3096	0.57482	-0.32
Mof_O 	O 	0.443	0.614	0.72672	-0.424
Mof_O 	O 	0.6208	0.7929	0.72329	-0.292
Mof_O 	O 	0.8748	0.7318	0.65513	-0.542
Mof_O 	O 	0.8062	0.5888	0.62984	-0.308
Mof_O 	O 	0.5483	0.8155	0.89983	-0.447
Mof_O 	O 	0.6904	0.8698	0.92518	-0.316
Mof_O 	O 	0.386	0.557	0.77328	-0.424
Mof_O 	O 	0.2071	0.3792	0.77671	-0.297
Mof_O 	O 	0.2682	0.1252	0.84487	-0.546
Mof_O 	O 	0.4112	0.1938	0.87016	-0.309
Mof_O 	O 	0.1845	0.7328	0.5665	-0.449
Mof_O 	O 	0.1302	0.8206	0.59185	-0.318
Mof_O 	O 	0.443	0.829	0.43995	-0.421
Mof_O 	O 	0.6208	0.8279	0.44338	-0.289
Mof_O 	O 	0.8748	0.143	0.51154	-0.55
Mof_O 	O 	0.8062	0.2174	0.53683	-0.311
Mof_O 	O 	0.2672	0.4517	0.23317	-0.448
Mof_O 	O 	0.1794	0.3096	0.25852	-0.318
Mof_O 	O 	0.171	0.614	0.10662	-0.424
Mof_O 	O 	0.1721	0.7929	0.11005	-0.292
Mof_O 	O 	0.857	0.7318	0.17821	-0.542
Mof_O 	O 	0.7826	0.5888	0.2035	-0.308
Mof_O 	O 	0.4517	0.1845	0.39983	-0.449
Mof_O 	O 	0.3096	0.1302	0.42518	-0.32
Mof_O 	O 	0.614	0.443	0.27328	-0.424
Mof_O 	O 	0.7929	0.6208	0.27671	-0.292
Mof_O 	O 	0.7318	0.8748	0.34487	-0.542
Mof_O 	O 	0.5888	0.8062	0.37016	-0.308
Mof_O 	O 	0.8155	0.2672	0.0665	-0.448
Mof_O 	O 	0.8698	0.1794	0.09185	-0.317
Mof_O 	O 	0.557	0.171	0.93995	-0.424
Mof_O 	O 	0.3792	0.1721	0.94338	-0.295
Mof_O 	O 	0.1252	0.857	0.01154	-0.544
Mof_O 	O 	0.1938	0.7826	0.03683	-0.307
Mof_O 	O 	0.7328	0.5483	0.73317	-0.448
Mof_O 	O 	0.8206	0.6904	0.75852	-0.314
Mof_O 	O 	0.829	0.386	0.60662	-0.421
Mof_O 	O 	0.8279	0.2071	0.61005	-0.292
Mof_O 	O 	0.143	0.2682	0.67821	-0.552
Mof_O 	O 	0.2174	0.4112	0.7035	-0.312
_end
