data_functionalizedCrystal
_audit_creation_method	'EQeq! by Chris Wilmer'
_symmetry_space_group_name_H-M	'P1'
_symmetry_Int_Tables_number	1
_symmetry_cell_setting	triclinic
loop_
_symmetry_equiv_pos_as_xyz
  x,y,z
_cell_length_a	15.4313
_cell_length_b	15.4313
_cell_length_c	9.8884
_cell_angle_alpha	90
_cell_angle_beta	90
_cell_angle_gamma	90
loop_
_atom_site_label
_atom_site_type_symbol
_atom_site_fract_x
_atom_site_fract_y
_atom_site_fract_z
_atom_site_charge
Mof_O 	O 	0.5302	0.62812	0.12141	-0.604
Mof_C 	C 	0.38575	0.75554	0.8795	0.244
Mof_H 	H 	0.4104	0.738	0.7981	-0.028
Mof_C 	C 	0.31064	0.80495	0.8808	-0.192
Mof_H 	H 	0.2857	0.8211	0.7989	0.119
Mof_O 	O 	0.4698	0.37188	0.12141	-0.604
Mof_C 	C 	0.61425	0.24446	0.8795	0.244
Mof_H 	H 	0.5896	0.262	0.7981	-0.028
Mof_C 	C 	0.68936	0.19505	0.8808	-0.192
Mof_H 	H 	0.7143	0.1789	0.7989	0.119
Mof_O 	O 	0.37188	0.5302	0.12141	-0.604
Mof_C 	C 	0.24446	0.38575	0.8795	0.243
Mof_H 	H 	0.262	0.4104	0.7981	-0.029
Mof_C 	C 	0.19505	0.31064	0.8808	-0.193
Mof_H 	H 	0.1789	0.2857	0.7989	0.118
Mof_O 	O 	0.62812	0.4698	0.12141	-0.605
Mof_C 	C 	0.75554	0.61425	0.8795	0.243
Mof_H 	H 	0.738	0.5896	0.7981	-0.029
Mof_C 	C 	0.80495	0.68936	0.8808	-0.193
Mof_H 	H 	0.8211	0.7143	0.7989	0.118
Mof_O 	O 	0.4698	0.62812	0.37859	-0.611
Mof_C 	C 	0.61425	0.75554	0.6205	0.206
Mof_H 	H 	0.5896	0.738	0.7019	-0.018
Mof_C 	C 	0.68936	0.80495	0.6192	-0.251
Mof_H 	H 	0.7143	0.8211	0.7011	0.137
Mof_O 	O 	0.5302	0.37188	0.37859	-0.611
Mof_C 	C 	0.38575	0.24446	0.6205	0.206
Mof_H 	H 	0.4104	0.262	0.7019	-0.018
Mof_C 	C 	0.31064	0.19505	0.6192	-0.251
Mof_H 	H 	0.2857	0.1789	0.7011	0.137
Mof_O 	O 	0.62812	0.5302	0.37859	-0.611
Mof_C 	C 	0.75554	0.38575	0.6205	0.206
Mof_H 	H 	0.738	0.4104	0.7019	-0.018
Mof_C 	C 	0.80495	0.31064	0.6192	-0.251
Mof_H 	H 	0.8211	0.2857	0.7011	0.137
Mof_O 	O 	0.37188	0.4698	0.37859	-0.611
Mof_C 	C 	0.24446	0.61425	0.6205	0.206
Mof_H 	H 	0.262	0.5896	0.7019	-0.018
Mof_C 	C 	0.19505	0.68936	0.6192	-0.251
Mof_H 	H 	0.1789	0.7143	0.7011	0.137
Mof_O 	O 	0.4698	0.37188	0.87859	-0.575
Mof_C 	C 	0.61425	0.24446	0.1205	0.204
Mof_H 	H 	0.5896	0.262	0.2019	-0.022
Mof_C 	C 	0.68936	0.19505	0.1192	-0.235
Mof_H 	H 	0.7143	0.1789	0.2011	0.122
Mof_O 	O 	0.5302	0.62812	0.87859	-0.575
Mof_C 	C 	0.38575	0.75554	0.1205	0.204
Mof_H 	H 	0.4104	0.738	0.2019	-0.022
Mof_C 	C 	0.31064	0.80495	0.1192	-0.235
Mof_H 	H 	0.2857	0.8211	0.2011	0.122
Mof_O 	O 	0.62812	0.4698	0.87859	-0.575
Mof_C 	C 	0.75554	0.61425	0.1205	0.204
Mof_H 	H 	0.738	0.5896	0.2019	-0.022
Mof_C 	C 	0.80495	0.68936	0.1192	-0.235
Mof_H 	H 	0.8211	0.7143	0.2011	0.122
Mof_O 	O 	0.37188	0.5302	0.87859	-0.575
Mof_C 	C 	0.24446	0.38575	0.1205	0.204
Mof_H 	H 	0.262	0.4104	0.2019	-0.022
Mof_C 	C 	0.19505	0.31064	0.1192	-0.235
Mof_H 	H 	0.1789	0.2857	0.2011	0.122
Mof_O 	O 	0.5302	0.37188	0.62141	-0.611
Mof_C 	C 	0.38575	0.24446	0.3795	0.205
Mof_H 	H 	0.4104	0.262	0.2981	-0.023
Mof_C 	C 	0.31064	0.19505	0.3808	-0.251
Mof_H 	H 	0.2857	0.1789	0.2989	0.128
Mof_O 	O 	0.4698	0.62812	0.62141	-0.611
Mof_C 	C 	0.61425	0.75554	0.3795	0.205
Mof_H 	H 	0.5896	0.738	0.2981	-0.023
Mof_C 	C 	0.68936	0.80495	0.3808	-0.251
Mof_H 	H 	0.7143	0.8211	0.2989	0.128
Mof_O 	O 	0.37188	0.4698	0.62141	-0.611
Mof_C 	C 	0.24446	0.61425	0.3795	0.205
Mof_H 	H 	0.262	0.5896	0.2981	-0.023
Mof_C 	C 	0.19505	0.68936	0.3808	-0.251
Mof_H 	H 	0.1789	0.7143	0.2989	0.128
Mof_O 	O 	0.62812	0.5302	0.62141	-0.611
Mof_C 	C 	0.75554	0.38575	0.3795	0.205
Mof_H 	H 	0.738	0.4104	0.2981	-0.023
Mof_C 	C 	0.80495	0.31064	0.3808	-0.251
Mof_H 	H 	0.8211	0.2857	0.2989	0.128
Mof_Eu	Eu	0.5	0.5	0.25	2.862
Mof_Eu	Eu	0.5	0.5	0.75	2.879
Mof_S 	S 	0.52493	0.68037	-0	0.79
Mof_N 	N 	0.12913	0.0308	-0	-0.119
Mof_O 	O 	0.58727	0.7488	-0	-0.35
Mof_C 	C 	0.4229	0.7331	-0	-0.315
Mof_C 	C 	0.2717	0.831	-0	0.138
Mof_C 	C 	0.1904	0.8813	-0	-0.123
Mof_C 	C 	0.1973	0.9734	-0	0.106
Mof_C 	C 	0.2771	0.021	-0	-0.065
Mof_H 	H 	0.3326	0.9975	-0	0.057
Mof_C 	C 	0.2573	0.1052	-0	-0.113
Mof_H 	H 	0.2965	0.1509	-0	0.091
Mof_C 	C 	0.166	0.1124	-0	0.12
Mof_S 	S 	0.47507	0.31963	-0	0.79
Mof_N 	N 	0.87087	0.9692	-0	-0.119
Mof_O 	O 	0.41273	0.2512	-0	-0.35
Mof_C 	C 	0.5771	0.2669	-0	-0.315
Mof_C 	C 	0.7283	0.169	-0	0.138
Mof_C 	C 	0.8096	0.1187	-0	-0.123
Mof_C 	C 	0.8027	0.0266	-0	0.106
Mof_C 	C 	0.7229	0.979	-0	-0.065
Mof_H 	H 	0.6674	0.0025	-0	0.057
Mof_C 	C 	0.7427	0.8948	-0	-0.113
Mof_H 	H 	0.7035	0.8491	-0	0.091
Mof_C 	C 	0.834	0.8876	-0	0.12
Mof_S 	S 	0.31963	0.52493	-0	0.79
Mof_N 	N 	0.9692	0.12913	-0	-0.119
Mof_O 	O 	0.2512	0.58727	-0	-0.35
Mof_C 	C 	0.2669	0.4229	-0	-0.315
Mof_C 	C 	0.169	0.2717	-0	0.138
Mof_C 	C 	0.1187	0.1904	-0	-0.123
Mof_C 	C 	0.0266	0.1973	-0	0.106
Mof_C 	C 	0.979	0.2771	-0	-0.065
Mof_H 	H 	0.0025	0.3326	-0	0.057
Mof_C 	C 	0.8948	0.2573	-0	-0.113
Mof_H 	H 	0.8491	0.2965	-0	0.091
Mof_C 	C 	0.8876	0.166	-0	0.12
Mof_S 	S 	0.68037	0.47507	-0	0.79
Mof_N 	N 	0.0308	0.87087	-0	-0.119
Mof_O 	O 	0.7488	0.41273	-0	-0.35
Mof_C 	C 	0.7331	0.5771	-0	-0.315
Mof_C 	C 	0.831	0.7283	-0	0.138
Mof_C 	C 	0.8813	0.8096	-0	-0.123
Mof_C 	C 	0.9734	0.8027	-0	0.106
Mof_C 	C 	0.021	0.7229	-0	-0.065
Mof_H 	H 	0.9975	0.6674	-0	0.057
Mof_C 	C 	0.1052	0.7427	-0	-0.113
Mof_H 	H 	0.1509	0.7035	-0	0.091
Mof_C 	C 	0.1124	0.834	-0	0.12
Mof_S 	S 	0.47507	0.68037	0.5	0.838
Mof_N 	N 	0.87087	0.0308	0.5	-0.116
Mof_O 	O 	0.41273	0.7488	0.5	-0.345
Mof_C 	C 	0.5771	0.7331	0.5	-0.279
Mof_C 	C 	0.7283	0.831	0.5	0.194
Mof_C 	C 	0.8096	0.8813	0.5	-0.133
Mof_C 	C 	0.8027	0.9734	0.5	0.121
Mof_C 	C 	0.7229	0.021	0.5	-0.063
Mof_H 	H 	0.6674	0.9975	0.5	0.066
Mof_C 	C 	0.7427	0.1052	0.5	-0.109
Mof_H 	H 	0.7035	0.1509	0.5	0.098
Mof_C 	C 	0.834	0.1124	0.5	0.134
Mof_S 	S 	0.52493	0.31963	0.5	0.838
Mof_N 	N 	0.12913	0.9692	0.5	-0.116
Mof_O 	O 	0.58727	0.2512	0.5	-0.345
Mof_C 	C 	0.4229	0.2669	0.5	-0.279
Mof_C 	C 	0.2717	0.169	0.5	0.194
Mof_C 	C 	0.1904	0.1187	0.5	-0.133
Mof_C 	C 	0.1973	0.0266	0.5	0.121
Mof_C 	C 	0.2771	0.979	0.5	-0.063
Mof_H 	H 	0.3326	0.0025	0.5	0.066
Mof_C 	C 	0.2573	0.8948	0.5	-0.109
Mof_H 	H 	0.2965	0.8491	0.5	0.098
Mof_C 	C 	0.166	0.8876	0.5	0.134
Mof_S 	S 	0.68037	0.52493	0.5	0.838
Mof_N 	N 	0.0308	0.12913	0.5	-0.116
Mof_O 	O 	0.7488	0.58727	0.5	-0.345
Mof_C 	C 	0.7331	0.4229	0.5	-0.279
Mof_C 	C 	0.831	0.2717	0.5	0.194
Mof_C 	C 	0.8813	0.1904	0.5	-0.133
Mof_C 	C 	0.9734	0.1973	0.5	0.121
Mof_C 	C 	0.021	0.2771	0.5	-0.063
Mof_H 	H 	0.9975	0.3326	0.5	0.066
Mof_C 	C 	0.1052	0.2573	0.5	-0.109
Mof_H 	H 	0.1509	0.2965	0.5	0.098
Mof_C 	C 	0.1124	0.166	0.5	0.134
Mof_S 	S 	0.31963	0.47507	0.5	0.838
Mof_N 	N 	0.9692	0.87087	0.5	-0.116
Mof_O 	O 	0.2512	0.41273	0.5	-0.345
Mof_C 	C 	0.2669	0.5771	0.5	-0.279
Mof_C 	C 	0.169	0.7283	0.5	0.194
Mof_C 	C 	0.1187	0.8096	0.5	-0.133
Mof_C 	C 	0.0266	0.8027	0.5	0.121
Mof_C 	C 	0.979	0.7229	0.5	-0.063
Mof_H 	H 	0.0025	0.6674	0.5	0.066
Mof_C 	C 	0.8948	0.7427	0.5	-0.109
Mof_H 	H 	0.8491	0.7035	0.5	0.098
Mof_C 	C 	0.8876	0.834	0.5	0.134
_end
