data_functionalizedCrystal
_audit_creation_method	'EQeq! by Chris Wilmer'
_symmetry_space_group_name_H-M	'P1'
_symmetry_Int_Tables_number	1
_symmetry_cell_setting	triclinic
loop_
_symmetry_equiv_pos_as_xyz
  x,y,z
_cell_length_a	12.821
_cell_length_b	11.0944
_cell_length_c	19.2042
_cell_angle_alpha	90
_cell_angle_beta	103.325
_cell_angle_gamma	90
loop_
_atom_site_label
_atom_site_type_symbol
_atom_site_fract_x
_atom_site_fract_y
_atom_site_fract_z
_atom_site_charge
Mof_Zn	Zn	0.16322	0.82062	0.97169	1.21
Mof_Ba	Ba	0.87084	0.95736	0.88732	1.566
Mof_O 	O 	0.01797	0.8622	0.0103	-0.556
Mof_O 	O 	0.07605	0.6753	0.01603	-0.388
Mof_O 	O 	0.70975	0.8494	0.13134	-0.273
Mof_O 	O 	0.65138	0.7466	0.37561	-0.455
Mof_O 	O 	0.47319	0.7406	0.35948	-0.478
Mof_O 	O 	0.24508	0.8423	0.11748	-0.496
Mof_O 	O 	0.31278	0.7838	0.02647	-0.445
Mof_O 	O 	0.93361	0.9779	0.1272	-0.466
Mof_O 	O 	0.81239	0.9942	0.02395	-0.543
Mof_C 	C 	0.0087	0.7499	0.02565	0.282
Mof_C 	C 	0.9153	0.7134	0.05548	-0.01
Mof_C 	C 	0.8963	0.5904	0.06254	-0.128
Mof_H 	H 	0.9401	0.5337	0.0478	0.088
Mof_C 	C 	0.8126	0.5531	0.0914	0.082
Mof_H 	H 	0.7998	0.4712	0.0956	0.005
Mof_C 	C 	0.7471	0.6374	0.11416	-0.231
Mof_H 	H 	0.691	0.6121	0.1339	0.114
Mof_C 	C 	0.7663	0.7596	0.10718	0.24
Mof_C 	C 	0.8496	0.7989	0.07704	-0.198
Mof_C 	C 	0.6212	0.8202	0.15898	0.178
Mof_C 	C 	0.6343	0.8041	0.23138	-0.122
Mof_H 	H 	0.7024	0.8053	0.2614	0.094
Mof_C 	C 	0.5446	0.786	0.2594	-0.071
Mof_C 	C 	0.4428	0.7899	0.21377	-0.006
Mof_H 	H 	0.3824	0.7832	0.2326	-0.003
Mof_C 	C 	0.4308	0.8037	0.14072	-0.077
Mof_C 	C 	0.5213	0.8162	0.11296	-0.123
Mof_H 	H 	0.5145	0.8219	0.0638	0.087
Mof_C 	C 	0.5559	0.7565	0.33739	0.359
Mof_C 	C 	0.3211	0.8099	0.09172	0.348
Mof_C 	C 	0.8677	0.9344	0.0763	0.419
Mof_Zn	Zn	0.33678	0.32062	0.52831	1.215
Mof_Ba	Ba	0.62916	0.45736	0.61268	1.592
Mof_O 	O 	0.48203	0.3622	0.4897	-0.563
Mof_O 	O 	0.42395	0.1753	0.48397	-0.39
Mof_O 	O 	0.79025	0.3494	0.36866	-0.274
Mof_O 	O 	0.84862	0.2466	0.12439	-0.458
Mof_O 	O 	0.02681	0.2406	0.14052	-0.477
Mof_O 	O 	0.25492	0.3423	0.38252	-0.501
Mof_O 	O 	0.18722	0.2838	0.47353	-0.448
Mof_O 	O 	0.56639	0.4779	0.3728	-0.472
Mof_O 	O 	0.68761	0.4942	0.47605	-0.549
Mof_C 	C 	0.4913	0.2499	0.47435	0.281
Mof_C 	C 	0.5847	0.2134	0.44452	-0.01
Mof_C 	C 	0.6037	0.0904	0.43746	-0.126
Mof_H 	H 	0.5599	0.0337	0.4522	0.088
Mof_C 	C 	0.6874	0.0531	0.4086	0.076
Mof_H 	H 	0.7002	0.9712	0.4044	0.01
Mof_C 	C 	0.7529	0.1374	0.38584	-0.228
Mof_H 	H 	0.809	0.1121	0.3661	0.113
Mof_C 	C 	0.7337	0.2596	0.39282	0.239
Mof_C 	C 	0.6504	0.2989	0.42296	-0.2
Mof_C 	C 	0.8788	0.3202	0.34102	0.177
Mof_C 	C 	0.8657	0.3041	0.26862	-0.122
Mof_H 	H 	0.7976	0.3053	0.2386	0.093
Mof_C 	C 	0.9554	0.286	0.2406	-0.073
Mof_C 	C 	0.0572	0.2899	0.28623	-0.004
Mof_H 	H 	0.1176	0.2832	0.2674	-0.004
Mof_C 	C 	0.0692	0.3037	0.35928	-0.079
Mof_C 	C 	0.9787	0.3162	0.38704	-0.123
Mof_H 	H 	0.9855	0.3219	0.4362	0.086
Mof_C 	C 	0.9441	0.2565	0.16261	0.357
Mof_C 	C 	0.1789	0.3099	0.40828	0.349
Mof_C 	C 	0.6323	0.4344	0.4237	0.421
Mof_Zn	Zn	0.83678	0.17938	0.02831	1.211
Mof_Ba	Ba	0.12916	0.04264	0.11268	1.567
Mof_O 	O 	0.98203	0.1378	0.9897	-0.556
Mof_O 	O 	0.92395	0.3247	0.98397	-0.388
Mof_O 	O 	0.29025	0.1506	0.86866	-0.273
Mof_O 	O 	0.34862	0.2534	0.62439	-0.455
Mof_O 	O 	0.52681	0.2594	0.64052	-0.478
Mof_O 	O 	0.75492	0.1577	0.88252	-0.496
Mof_O 	O 	0.68722	0.2162	0.97353	-0.445
Mof_O 	O 	0.06639	0.0221	0.8728	-0.466
Mof_O 	O 	0.18761	0.0058	0.97605	-0.543
Mof_C 	C 	0.9913	0.2501	0.97435	0.282
Mof_C 	C 	0.0847	0.2866	0.94452	-0.01
Mof_C 	C 	0.1037	0.4096	0.93746	-0.128
Mof_H 	H 	0.0599	0.4663	0.9522	0.088
Mof_C 	C 	0.1874	0.4469	0.9086	0.082
Mof_H 	H 	0.2002	0.5288	0.9044	0.005
Mof_C 	C 	0.2529	0.3626	0.88584	-0.231
Mof_H 	H 	0.309	0.3879	0.8661	0.114
Mof_C 	C 	0.2337	0.2404	0.89282	0.24
Mof_C 	C 	0.1504	0.2011	0.92296	-0.198
Mof_C 	C 	0.3788	0.1798	0.84102	0.178
Mof_C 	C 	0.3657	0.1959	0.76862	-0.122
Mof_H 	H 	0.2976	0.1947	0.7386	0.094
Mof_C 	C 	0.4554	0.214	0.7406	-0.071
Mof_C 	C 	0.5572	0.2101	0.78623	-0.006
Mof_H 	H 	0.6176	0.2168	0.7674	-0.003
Mof_C 	C 	0.5692	0.1963	0.85928	-0.077
Mof_C 	C 	0.4787	0.1838	0.88704	-0.123
Mof_H 	H 	0.4855	0.1781	0.9362	0.087
Mof_C 	C 	0.4441	0.2435	0.66261	0.359
Mof_C 	C 	0.6789	0.1901	0.90828	0.348
Mof_C 	C 	0.1323	0.0656	0.9237	0.419
Mof_Zn	Zn	0.66322	0.67938	0.47169	1.215
Mof_Ba	Ba	0.37084	0.54264	0.38732	1.592
Mof_O 	O 	0.51797	0.6378	0.5103	-0.563
Mof_O 	O 	0.57605	0.8247	0.51603	-0.39
Mof_O 	O 	0.20975	0.6506	0.63134	-0.274
Mof_O 	O 	0.15138	0.7534	0.87561	-0.458
Mof_O 	O 	0.97319	0.7594	0.85948	-0.477
Mof_O 	O 	0.74508	0.6577	0.61748	-0.501
Mof_O 	O 	0.81278	0.7162	0.52647	-0.448
Mof_O 	O 	0.43361	0.5221	0.6272	-0.472
Mof_O 	O 	0.31239	0.5058	0.52395	-0.549
Mof_C 	C 	0.5087	0.7501	0.52565	0.281
Mof_C 	C 	0.4153	0.7866	0.55548	-0.01
Mof_C 	C 	0.3963	0.9096	0.56254	-0.126
Mof_H 	H 	0.4401	0.9663	0.5478	0.088
Mof_C 	C 	0.3126	0.9469	0.5914	0.076
Mof_H 	H 	0.2998	0.0288	0.5956	0.01
Mof_C 	C 	0.2471	0.8626	0.61416	-0.228
Mof_H 	H 	0.191	0.8879	0.6339	0.113
Mof_C 	C 	0.2663	0.7404	0.60718	0.239
Mof_C 	C 	0.3496	0.7011	0.57704	-0.2
Mof_C 	C 	0.1212	0.6798	0.65898	0.177
Mof_C 	C 	0.1343	0.6959	0.73138	-0.122
Mof_H 	H 	0.2024	0.6947	0.7614	0.093
Mof_C 	C 	0.0446	0.714	0.7594	-0.073
Mof_C 	C 	0.9428	0.7101	0.71377	-0.004
Mof_H 	H 	0.8824	0.7168	0.7326	-0.004
Mof_C 	C 	0.9308	0.6963	0.64072	-0.079
Mof_C 	C 	0.0213	0.6838	0.61296	-0.123
Mof_H 	H 	0.0145	0.6781	0.5638	0.086
Mof_C 	C 	0.0559	0.7435	0.83739	0.357
Mof_C 	C 	0.8211	0.6901	0.59172	0.349
Mof_C 	C 	0.3677	0.5656	0.5763	0.421
_end
