data_functionalizedCrystal
_audit_creation_method	'EQeq! by Chris Wilmer'
_symmetry_space_group_name_H-M	'P1'
_symmetry_Int_Tables_number	1
_symmetry_cell_setting	triclinic
loop_
_symmetry_equiv_pos_as_xyz
  x,y,z
_cell_length_a	38.7657
_cell_length_b	38.7657
_cell_length_c	56.4541
_cell_angle_alpha	90
_cell_angle_beta	90
_cell_angle_gamma	90
loop_
_atom_site_label
_atom_site_type_symbol
_atom_site_fract_x
_atom_site_fract_y
_atom_site_fract_z
_atom_site_charge
Mof_Zn	Zn	0.3168	0.4243	0.3379	1.176
Mof_Zn	Zn	0.177	0.4242	0.3726	1.182
Mof_Zn	Zn	0.2198	0.3262	0.2977	1.175
Mof_Zn	Zn	0.0735	0.4235	0.4481	1.189
Mof_Cl	Cl	0.225	0.4387	0.2214	-0.238
Mof_Cl	Cl	0.2474	0.3477	0.4475	-0.213
Mof_Cl	Cl	0.1028	0.4221	0.2719	-0.178
Mof_Cl	Cl	0.1697	0.2272	0.3752	-0.22
Mof_Cl	Cl	0.0452	0.3414	0.3545	-0.21
Mof_Cl	Cl	0.0689	0.4618	0.3006	-0.12
Mof_Cl	Cl	0.1362	0.2778	0.4526	-0.2
Mof_Cl	Cl	0.4128	0.4673	0.4181	-0.173
Mof_Cl	Cl	0.0314	0.447	0.3517	-0.177
Mof_Cl	Cl	0.2323	0.4089	0.4782	-0.194
Mof_N 	N 	0.3289	0.4729	0.3297	-0.261
Mof_N 	N 	0.2931	0.4013	0.3108	-0.293
Mof_N 	N 	0.2586	0.3613	0.2953	-0.271
Mof_N 	N 	0.2836	0.4251	0.3638	-0.289
Mof_N 	N 	0.2292	0.427	0.3766	-0.255
Mof_N 	N 	0.1921	0.3233	0.2676	-0.267
Mof_N 	N 	0.2416	0.2822	0.3049	-0.286
Mof_N 	N 	0.1711	0.3878	0.3471	-0.261
Mof_N 	N 	0.1894	0.3449	0.3223	-0.279
Mof_N 	N 	0.1621	0.4686	0.3635	-0.284
Mof_N 	N 	0.1031	0.405	0.4259	-0.302
Mof_N 	N 	0.1512	0.4071	0.3987	-0.287
Mof_N 	N 	0.3593	0.397	0.3454	-0.27
Mof_N 	N 	0.065	0.4707	0.4352	-0.277
Mof_N 	N 	0.03	0.402	0.4488	-0.293
Mof_N 	N 	0.0935	0.4257	0.4798	-0.282
Mof_C 	C 	0.357	0.4791	0.3147	0.03
Mof_C 	C 	0.3833	0.4637	0.3007	-0.045
Mof_C 	C 	0.3998	0.4855	0.2844	0.015
Mof_C 	C 	0.2786	0.3704	0.314	0.012
Mof_C 	C 	0.2827	0.4107	0.2918	0.086
Mof_C 	C 	0.2917	0.4408	0.28	-0.073
Mof_C 	C 	0.2785	0.4476	0.2576	0.025
Mof_C 	C 	0.2563	0.4241	0.2469	0.113
Mof_C 	C 	0.2473	0.3939	0.2587	-0.058
Mof_C 	C 	0.2605	0.3872	0.2811	0.033
Mof_C 	C 	0.2501	0.4379	0.3589	0.002
Mof_C 	C 	0.2436	0.4097	0.3947	-0.003
Mof_C 	C 	0.2397	0.3938	0.4166	-0.017
Mof_C 	C 	0.2677	0.3778	0.4273	0.139
Mof_C 	C 	0.2997	0.3779	0.4162	0.03
Mof_C 	C 	0.3037	0.3938	0.3944	-0.063
Mof_C 	C 	0.2756	0.4097	0.3836	0.096
Mof_C 	C 	0.1635	0.3448	0.2603	0.039
Mof_C 	C 	0.1496	0.373	0.2731	-0.037
Mof_C 	C 	0.1252	0.3875	0.2591	0.119
Mof_C 	C 	0.2321	0.2589	0.3223	0.028
Mof_C 	C 	0.2041	0.2589	0.3414	-0.037
Mof_C 	C 	0.205	0.2285	0.355	0.111
Mof_C 	C 	0.1986	0.3723	0.335	0.027
Mof_C 	C 	0.1557	0.3415	0.3276	0.058
Mof_C 	C 	0.133	0.3167	0.3191	-0.029
Mof_C 	C 	0.0989	0.3163	0.3267	0.052
Mof_C 	C 	0.0875	0.3409	0.3429	0.15
Mof_C 	C 	0.1102	0.3657	0.3514	-0.036
Mof_C 	C 	0.1443	0.366	0.3438	0.051
Mof_C 	C 	0.138	0.4803	0.3451	0.033
Mof_C 	C 	0.1183	0.4598	0.3335	-0.029
Mof_C 	C 	0.1018	0.4816	0.3199	0.118
Mof_C 	C 	0.1242	0.4238	0.4108	0.04
Mof_C 	C 	0.1464	0.3746	0.4052	0.035
Mof_C 	C 	0.1629	0.3434	0.4011	-0.03
Mof_C 	C 	0.1542	0.3144	0.4143	0.055
Mof_C 	C 	0.1289	0.3166	0.4316	0.131
Mof_C 	C 	0.1123	0.3479	0.4358	-0.065
Mof_C 	C 	0.121	0.3768	0.4226	0.093
Mof_C 	C 	0.3818	0.4091	0.362	0.03
Mof_C 	C 	0.3837	0.439	0.3803	-0.041
Mof_C 	C 	0.4113	0.4361	0.3942	0.113
Mof_C 	C 	0.0593	0.4848	0.413	0.035
Mof_C 	C 	0.0505	0.4635	0.394	-0.045
Mof_C 	C 	0.0434	0.4804	0.3733	0.107
Mof_C 	C 	0.128	0.4234	0.4879	0.038
Mof_C 	C 	0.1581	0.4097	0.4754	-0.052
Mof_C 	C 	0.1856	0.4035	0.4876	0.12
Mof_C 	C 	0.0173	0.3783	0.4684	0.013
Mof_C 	C 	0.0313	0.3548	0.4846	-0.027
Mof_C 	C 	0.0184	0.3213	0.4871	0.031
Mof_Zn	Zn	0.8168	0.9243	0.8379	1.177
Mof_Zn	Zn	0.677	0.9242	0.8726	1.183
Mof_Zn	Zn	0.7198	0.8262	0.7977	1.176
Mof_Zn	Zn	0.5735	0.9235	0.9481	1.19
Mof_Cl	Cl	0.725	0.9387	0.7214	-0.237
Mof_Cl	Cl	0.7474	0.8477	0.9475	-0.213
Mof_Cl	Cl	0.6028	0.9221	0.7719	-0.178
Mof_Cl	Cl	0.6697	0.7272	0.8752	-0.22
Mof_Cl	Cl	0.5452	0.8414	0.8545	-0.21
Mof_Cl	Cl	0.5689	0.9618	0.8006	-0.12
Mof_Cl	Cl	0.6362	0.7778	0.9526	-0.2
Mof_Cl	Cl	0.9128	0.9673	0.9181	-0.173
Mof_Cl	Cl	0.5314	0.947	0.8517	-0.177
Mof_Cl	Cl	0.7323	0.9089	0.9782	-0.194
Mof_N 	N 	0.8289	0.9729	0.8297	-0.261
Mof_N 	N 	0.7931	0.9013	0.8108	-0.293
Mof_N 	N 	0.7586	0.8613	0.7953	-0.271
Mof_N 	N 	0.7836	0.9251	0.8638	-0.289
Mof_N 	N 	0.7292	0.927	0.8766	-0.255
Mof_N 	N 	0.6921	0.8233	0.7676	-0.267
Mof_N 	N 	0.7416	0.7822	0.8049	-0.286
Mof_N 	N 	0.6711	0.8878	0.8471	-0.261
Mof_N 	N 	0.6894	0.8449	0.8223	-0.279
Mof_N 	N 	0.6621	0.9686	0.8635	-0.284
Mof_N 	N 	0.6031	0.905	0.9259	-0.302
Mof_N 	N 	0.6512	0.9071	0.8987	-0.287
Mof_N 	N 	0.8593	0.897	0.8454	-0.27
Mof_N 	N 	0.565	0.9707	0.9352	-0.277
Mof_N 	N 	0.53	0.902	0.9488	-0.293
Mof_N 	N 	0.5935	0.9257	0.9798	-0.282
Mof_C 	C 	0.857	0.9791	0.8147	0.03
Mof_C 	C 	0.8833	0.9637	0.8007	-0.045
Mof_C 	C 	0.8998	0.9855	0.7844	0.016
Mof_C 	C 	0.7786	0.8704	0.814	0.012
Mof_C 	C 	0.7827	0.9107	0.7918	0.086
Mof_C 	C 	0.7917	0.9408	0.78	-0.073
Mof_C 	C 	0.7785	0.9476	0.7576	0.025
Mof_C 	C 	0.7563	0.9241	0.7469	0.113
Mof_C 	C 	0.7473	0.8939	0.7587	-0.058
Mof_C 	C 	0.7605	0.8872	0.7811	0.033
Mof_C 	C 	0.7501	0.9379	0.8589	0.002
Mof_C 	C 	0.7436	0.9097	0.8947	-0.003
Mof_C 	C 	0.7397	0.8938	0.9166	-0.017
Mof_C 	C 	0.7677	0.8778	0.9273	0.139
Mof_C 	C 	0.7997	0.8779	0.9162	0.03
Mof_C 	C 	0.8037	0.8938	0.8944	-0.063
Mof_C 	C 	0.7756	0.9097	0.8836	0.096
Mof_C 	C 	0.6635	0.8448	0.7603	0.039
Mof_C 	C 	0.6496	0.873	0.7731	-0.037
Mof_C 	C 	0.6252	0.8875	0.7591	0.119
Mof_C 	C 	0.7321	0.7589	0.8223	0.028
Mof_C 	C 	0.7041	0.7589	0.8414	-0.037
Mof_C 	C 	0.705	0.7285	0.855	0.111
Mof_C 	C 	0.6986	0.8723	0.835	0.027
Mof_C 	C 	0.6557	0.8415	0.8276	0.058
Mof_C 	C 	0.633	0.8167	0.8191	-0.029
Mof_C 	C 	0.5989	0.8163	0.8267	0.052
Mof_C 	C 	0.5875	0.8409	0.8429	0.15
Mof_C 	C 	0.6102	0.8657	0.8514	-0.036
Mof_C 	C 	0.6443	0.866	0.8438	0.051
Mof_C 	C 	0.638	0.9803	0.8451	0.033
Mof_C 	C 	0.6183	0.9598	0.8335	-0.029
Mof_C 	C 	0.6018	0.9816	0.8199	0.119
Mof_C 	C 	0.6242	0.9238	0.9108	0.04
Mof_C 	C 	0.6464	0.8746	0.9052	0.035
Mof_C 	C 	0.6629	0.8434	0.9011	-0.03
Mof_C 	C 	0.6542	0.8144	0.9143	0.055
Mof_C 	C 	0.6289	0.8166	0.9316	0.131
Mof_C 	C 	0.6123	0.8479	0.9358	-0.065
Mof_C 	C 	0.621	0.8768	0.9226	0.093
Mof_C 	C 	0.8818	0.9091	0.862	0.03
Mof_C 	C 	0.8837	0.939	0.8803	-0.041
Mof_C 	C 	0.9113	0.9361	0.8942	0.113
Mof_C 	C 	0.5593	0.9848	0.913	0.036
Mof_C 	C 	0.5505	0.9635	0.894	-0.045
Mof_C 	C 	0.5434	0.9804	0.8733	0.107
Mof_C 	C 	0.628	0.9234	0.9879	0.038
Mof_C 	C 	0.6581	0.9097	0.9754	-0.052
Mof_C 	C 	0.6856	0.9035	0.9876	0.12
Mof_C 	C 	0.5173	0.8783	0.9684	0.014
Mof_C 	C 	0.5313	0.8548	0.9846	-0.027
Mof_C 	C 	0.5184	0.8213	0.9871	0.031
Mof_Zn	Zn	0.6832	0.5757	0.3379	1.177
Mof_Zn	Zn	0.823	0.5758	0.3726	1.183
Mof_Zn	Zn	0.7802	0.6738	0.2977	1.176
Mof_Zn	Zn	0.9265	0.5765	0.4481	1.19
Mof_Cl	Cl	0.775	0.5613	0.2214	-0.238
Mof_Cl	Cl	0.7526	0.6523	0.4475	-0.213
Mof_Cl	Cl	0.8972	0.5779	0.2719	-0.178
Mof_Cl	Cl	0.8303	0.7728	0.3752	-0.22
Mof_Cl	Cl	0.9548	0.6586	0.3545	-0.21
Mof_Cl	Cl	0.9311	0.5382	0.3006	-0.12
Mof_Cl	Cl	0.8638	0.7222	0.4526	-0.2
Mof_Cl	Cl	0.5872	0.5327	0.4181	-0.173
Mof_Cl	Cl	0.9686	0.553	0.3517	-0.177
Mof_Cl	Cl	0.7677	0.5911	0.4782	-0.194
Mof_N 	N 	0.6711	0.5271	0.3297	-0.261
Mof_N 	N 	0.7069	0.5987	0.3108	-0.293
Mof_N 	N 	0.7414	0.6387	0.2953	-0.271
Mof_N 	N 	0.7164	0.5749	0.3638	-0.289
Mof_N 	N 	0.7708	0.573	0.3766	-0.255
Mof_N 	N 	0.8079	0.6767	0.2676	-0.267
Mof_N 	N 	0.7584	0.7178	0.3049	-0.286
Mof_N 	N 	0.8289	0.6122	0.3471	-0.261
Mof_N 	N 	0.8106	0.6551	0.3223	-0.279
Mof_N 	N 	0.8379	0.5314	0.3635	-0.284
Mof_N 	N 	0.8969	0.595	0.4259	-0.302
Mof_N 	N 	0.8488	0.5929	0.3987	-0.287
Mof_N 	N 	0.6407	0.603	0.3454	-0.27
Mof_N 	N 	0.935	0.5293	0.4352	-0.277
Mof_N 	N 	0.97	0.598	0.4488	-0.293
Mof_N 	N 	0.9065	0.5743	0.4798	-0.282
Mof_C 	C 	0.643	0.5209	0.3147	0.03
Mof_C 	C 	0.6167	0.5363	0.3007	-0.045
Mof_C 	C 	0.6002	0.5145	0.2844	0.015
Mof_C 	C 	0.7214	0.6296	0.314	0.012
Mof_C 	C 	0.7173	0.5893	0.2918	0.086
Mof_C 	C 	0.7083	0.5592	0.28	-0.073
Mof_C 	C 	0.7215	0.5524	0.2576	0.025
Mof_C 	C 	0.7437	0.5759	0.2469	0.113
Mof_C 	C 	0.7527	0.6061	0.2587	-0.058
Mof_C 	C 	0.7395	0.6128	0.2811	0.033
Mof_C 	C 	0.7499	0.5621	0.3589	0.002
Mof_C 	C 	0.7564	0.5903	0.3947	-0.003
Mof_C 	C 	0.7603	0.6062	0.4166	-0.017
Mof_C 	C 	0.7323	0.6222	0.4273	0.139
Mof_C 	C 	0.7003	0.6221	0.4162	0.03
Mof_C 	C 	0.6963	0.6062	0.3944	-0.063
Mof_C 	C 	0.7244	0.5903	0.3836	0.096
Mof_C 	C 	0.8365	0.6552	0.2603	0.039
Mof_C 	C 	0.8504	0.627	0.2731	-0.037
Mof_C 	C 	0.8748	0.6125	0.2591	0.12
Mof_C 	C 	0.7679	0.7411	0.3223	0.028
Mof_C 	C 	0.7959	0.7411	0.3414	-0.037
Mof_C 	C 	0.795	0.7715	0.355	0.111
Mof_C 	C 	0.8014	0.6277	0.335	0.027
Mof_C 	C 	0.8443	0.6585	0.3276	0.058
Mof_C 	C 	0.867	0.6833	0.3191	-0.029
Mof_C 	C 	0.9011	0.6837	0.3267	0.052
Mof_C 	C 	0.9125	0.6591	0.3429	0.15
Mof_C 	C 	0.8898	0.6343	0.3514	-0.036
Mof_C 	C 	0.8557	0.634	0.3438	0.051
Mof_C 	C 	0.862	0.5197	0.3451	0.033
Mof_C 	C 	0.8817	0.5402	0.3335	-0.029
Mof_C 	C 	0.8982	0.5184	0.3199	0.118
Mof_C 	C 	0.8758	0.5762	0.4108	0.04
Mof_C 	C 	0.8536	0.6254	0.4052	0.035
Mof_C 	C 	0.8371	0.6566	0.4011	-0.03
Mof_C 	C 	0.8458	0.6856	0.4143	0.055
Mof_C 	C 	0.8711	0.6834	0.4316	0.131
Mof_C 	C 	0.8877	0.6521	0.4358	-0.065
Mof_C 	C 	0.879	0.6232	0.4226	0.093
Mof_C 	C 	0.6182	0.5909	0.362	0.03
Mof_C 	C 	0.6163	0.561	0.3803	-0.041
Mof_C 	C 	0.5887	0.5639	0.3942	0.113
Mof_C 	C 	0.9407	0.5152	0.413	0.035
Mof_C 	C 	0.9495	0.5365	0.394	-0.045
Mof_C 	C 	0.9566	0.5196	0.3733	0.107
Mof_C 	C 	0.872	0.5766	0.4879	0.038
Mof_C 	C 	0.8419	0.5903	0.4754	-0.052
Mof_C 	C 	0.8144	0.5965	0.4876	0.12
Mof_C 	C 	0.9827	0.6217	0.4684	0.014
Mof_C 	C 	0.9687	0.6452	0.4846	-0.027
Mof_C 	C 	0.9816	0.6787	0.4871	0.032
Mof_Zn	Zn	0.1832	0.0757	0.8379	1.177
Mof_Zn	Zn	0.323	0.0758	0.8726	1.183
Mof_Zn	Zn	0.2802	0.1738	0.7977	1.176
Mof_Zn	Zn	0.4265	0.0765	0.9481	1.19
Mof_Cl	Cl	0.275	0.0613	0.7214	-0.238
Mof_Cl	Cl	0.2526	0.1523	0.9475	-0.213
Mof_Cl	Cl	0.3972	0.0779	0.7719	-0.178
Mof_Cl	Cl	0.3303	0.2728	0.8752	-0.22
Mof_Cl	Cl	0.4548	0.1586	0.8545	-0.21
Mof_Cl	Cl	0.4311	0.0382	0.8006	-0.12
Mof_Cl	Cl	0.3638	0.2222	0.9526	-0.2
Mof_Cl	Cl	0.0872	0.0327	0.9181	-0.174
Mof_Cl	Cl	0.4686	0.053	0.8517	-0.177
Mof_Cl	Cl	0.2677	0.0911	0.9782	-0.194
Mof_N 	N 	0.1711	0.0271	0.8297	-0.261
Mof_N 	N 	0.2069	0.0987	0.8108	-0.293
Mof_N 	N 	0.2414	0.1387	0.7953	-0.271
Mof_N 	N 	0.2164	0.0749	0.8638	-0.289
Mof_N 	N 	0.2708	0.073	0.8766	-0.255
Mof_N 	N 	0.3079	0.1767	0.7676	-0.267
Mof_N 	N 	0.2584	0.2178	0.8049	-0.286
Mof_N 	N 	0.3289	0.1122	0.8471	-0.261
Mof_N 	N 	0.3106	0.1551	0.8223	-0.279
Mof_N 	N 	0.3379	0.0314	0.8635	-0.284
Mof_N 	N 	0.3969	0.095	0.9259	-0.302
Mof_N 	N 	0.3488	0.0929	0.8987	-0.287
Mof_N 	N 	0.1407	0.103	0.8454	-0.27
Mof_N 	N 	0.435	0.0293	0.9352	-0.277
Mof_N 	N 	0.47	0.098	0.9488	-0.293
Mof_N 	N 	0.4065	0.0743	0.9798	-0.282
Mof_C 	C 	0.143	0.0209	0.8147	0.029
Mof_C 	C 	0.1167	0.0363	0.8007	-0.045
Mof_C 	C 	0.1002	0.0145	0.7844	0.014
Mof_C 	C 	0.2214	0.1296	0.814	0.012
Mof_C 	C 	0.2173	0.0893	0.7918	0.086
Mof_C 	C 	0.2083	0.0592	0.78	-0.073
Mof_C 	C 	0.2215	0.0524	0.7576	0.025
Mof_C 	C 	0.2437	0.0759	0.7469	0.113
Mof_C 	C 	0.2527	0.1061	0.7587	-0.058
Mof_C 	C 	0.2395	0.1128	0.7811	0.033
Mof_C 	C 	0.2499	0.0621	0.8589	0.002
Mof_C 	C 	0.2564	0.0903	0.8947	-0.003
Mof_C 	C 	0.2603	0.1062	0.9166	-0.017
Mof_C 	C 	0.2323	0.1222	0.9273	0.139
Mof_C 	C 	0.2003	0.1221	0.9162	0.03
Mof_C 	C 	0.1963	0.1062	0.8944	-0.063
Mof_C 	C 	0.2244	0.0903	0.8836	0.096
Mof_C 	C 	0.3365	0.1552	0.7603	0.039
Mof_C 	C 	0.3504	0.127	0.7731	-0.037
Mof_C 	C 	0.3748	0.1125	0.7591	0.119
Mof_C 	C 	0.2679	0.2411	0.8223	0.028
Mof_C 	C 	0.2959	0.2411	0.8414	-0.037
Mof_C 	C 	0.295	0.2715	0.855	0.111
Mof_C 	C 	0.3014	0.1277	0.835	0.027
Mof_C 	C 	0.3443	0.1585	0.8276	0.058
Mof_C 	C 	0.367	0.1833	0.8191	-0.029
Mof_C 	C 	0.4011	0.1837	0.8267	0.052
Mof_C 	C 	0.4125	0.1591	0.8429	0.15
Mof_C 	C 	0.3898	0.1343	0.8514	-0.036
Mof_C 	C 	0.3557	0.134	0.8438	0.051
Mof_C 	C 	0.362	0.0197	0.8451	0.032
Mof_C 	C 	0.3817	0.0402	0.8335	-0.029
Mof_C 	C 	0.3982	0.0184	0.8199	0.118
Mof_C 	C 	0.3758	0.0762	0.9108	0.04
Mof_C 	C 	0.3536	0.1254	0.9052	0.035
Mof_C 	C 	0.3371	0.1566	0.9011	-0.03
Mof_C 	C 	0.3458	0.1856	0.9143	0.055
Mof_C 	C 	0.3711	0.1834	0.9316	0.131
Mof_C 	C 	0.3877	0.1521	0.9358	-0.065
Mof_C 	C 	0.379	0.1232	0.9226	0.093
Mof_C 	C 	0.1182	0.0909	0.862	0.03
Mof_C 	C 	0.1163	0.061	0.8803	-0.041
Mof_C 	C 	0.0887	0.0639	0.8942	0.113
Mof_C 	C 	0.4407	0.0152	0.913	0.034
Mof_C 	C 	0.4495	0.0365	0.894	-0.045
Mof_C 	C 	0.4566	0.0196	0.8733	0.106
Mof_C 	C 	0.372	0.0766	0.9879	0.038
Mof_C 	C 	0.3419	0.0903	0.9754	-0.052
Mof_C 	C 	0.3144	0.0965	0.9876	0.12
Mof_C 	C 	0.4827	0.1217	0.9684	0.014
Mof_C 	C 	0.4687	0.1452	0.9846	-0.027
Mof_C 	C 	0.4816	0.1787	0.9871	0.031
Mof_Zn	Zn	0.5757	0.3168	0.3379	1.177
Mof_Zn	Zn	0.5758	0.177	0.3726	1.183
Mof_Zn	Zn	0.6738	0.2198	0.2977	1.176
Mof_Zn	Zn	0.5765	0.0735	0.4481	1.19
Mof_Cl	Cl	0.5613	0.225	0.2214	-0.238
Mof_Cl	Cl	0.6523	0.2474	0.4475	-0.213
Mof_Cl	Cl	0.5779	0.1028	0.2719	-0.178
Mof_Cl	Cl	0.7728	0.1697	0.3752	-0.22
Mof_Cl	Cl	0.6586	0.0452	0.3545	-0.21
Mof_Cl	Cl	0.5382	0.0689	0.3006	-0.12
Mof_Cl	Cl	0.7222	0.1362	0.4526	-0.2
Mof_Cl	Cl	0.5327	0.4128	0.4181	-0.173
Mof_Cl	Cl	0.553	0.0314	0.3517	-0.177
Mof_Cl	Cl	0.5911	0.2323	0.4782	-0.194
Mof_N 	N 	0.5271	0.3289	0.3297	-0.261
Mof_N 	N 	0.5987	0.2931	0.3108	-0.293
Mof_N 	N 	0.6387	0.2586	0.2953	-0.271
Mof_N 	N 	0.5749	0.2836	0.3638	-0.289
Mof_N 	N 	0.573	0.2292	0.3766	-0.255
Mof_N 	N 	0.6767	0.1921	0.2676	-0.267
Mof_N 	N 	0.7178	0.2416	0.3049	-0.286
Mof_N 	N 	0.6122	0.1711	0.3471	-0.261
Mof_N 	N 	0.6551	0.1894	0.3223	-0.279
Mof_N 	N 	0.5314	0.1621	0.3635	-0.284
Mof_N 	N 	0.595	0.1031	0.4259	-0.302
Mof_N 	N 	0.5929	0.1512	0.3987	-0.287
Mof_N 	N 	0.603	0.3593	0.3454	-0.27
Mof_N 	N 	0.5293	0.065	0.4352	-0.277
Mof_N 	N 	0.598	0.03	0.4488	-0.293
Mof_N 	N 	0.5743	0.0935	0.4798	-0.282
Mof_C 	C 	0.5209	0.357	0.3147	0.03
Mof_C 	C 	0.5363	0.3833	0.3007	-0.045
Mof_C 	C 	0.5145	0.3998	0.2844	0.015
Mof_C 	C 	0.6296	0.2786	0.314	0.012
Mof_C 	C 	0.5893	0.2827	0.2918	0.086
Mof_C 	C 	0.5592	0.2917	0.28	-0.073
Mof_C 	C 	0.5524	0.2785	0.2576	0.025
Mof_C 	C 	0.5759	0.2563	0.2469	0.113
Mof_C 	C 	0.6061	0.2473	0.2587	-0.058
Mof_C 	C 	0.6128	0.2605	0.2811	0.033
Mof_C 	C 	0.5621	0.2501	0.3589	0.002
Mof_C 	C 	0.5903	0.2436	0.3947	-0.003
Mof_C 	C 	0.6062	0.2397	0.4166	-0.017
Mof_C 	C 	0.6222	0.2677	0.4273	0.139
Mof_C 	C 	0.6221	0.2997	0.4162	0.03
Mof_C 	C 	0.6062	0.3037	0.3944	-0.063
Mof_C 	C 	0.5903	0.2756	0.3836	0.096
Mof_C 	C 	0.6552	0.1635	0.2603	0.039
Mof_C 	C 	0.627	0.1496	0.2731	-0.037
Mof_C 	C 	0.6125	0.1252	0.2591	0.119
Mof_C 	C 	0.7411	0.2321	0.3223	0.028
Mof_C 	C 	0.7411	0.2041	0.3414	-0.037
Mof_C 	C 	0.7715	0.205	0.355	0.111
Mof_C 	C 	0.6277	0.1986	0.335	0.027
Mof_C 	C 	0.6585	0.1557	0.3276	0.058
Mof_C 	C 	0.6833	0.133	0.3191	-0.029
Mof_C 	C 	0.6837	0.0989	0.3267	0.052
Mof_C 	C 	0.6591	0.0875	0.3429	0.15
Mof_C 	C 	0.6343	0.1102	0.3514	-0.036
Mof_C 	C 	0.634	0.1443	0.3438	0.051
Mof_C 	C 	0.5197	0.138	0.3451	0.033
Mof_C 	C 	0.5402	0.1183	0.3335	-0.029
Mof_C 	C 	0.5184	0.1018	0.3199	0.118
Mof_C 	C 	0.5762	0.1242	0.4108	0.04
Mof_C 	C 	0.6254	0.1464	0.4052	0.035
Mof_C 	C 	0.6566	0.1629	0.4011	-0.03
Mof_C 	C 	0.6856	0.1542	0.4143	0.055
Mof_C 	C 	0.6834	0.1289	0.4316	0.131
Mof_C 	C 	0.6521	0.1123	0.4358	-0.065
Mof_C 	C 	0.6232	0.121	0.4226	0.093
Mof_C 	C 	0.5909	0.3818	0.362	0.03
Mof_C 	C 	0.561	0.3837	0.3803	-0.041
Mof_C 	C 	0.5639	0.4113	0.3942	0.113
Mof_C 	C 	0.5152	0.0593	0.413	0.035
Mof_C 	C 	0.5365	0.0505	0.394	-0.045
Mof_C 	C 	0.5196	0.0434	0.3733	0.107
Mof_C 	C 	0.5766	0.128	0.4879	0.038
Mof_C 	C 	0.5903	0.1581	0.4754	-0.052
Mof_C 	C 	0.5965	0.1856	0.4876	0.12
Mof_C 	C 	0.6217	0.0173	0.4684	0.013
Mof_C 	C 	0.6452	0.0313	0.4846	-0.027
Mof_C 	C 	0.6787	0.0184	0.4871	0.031
Mof_Zn	Zn	0.0757	0.8168	0.8379	1.177
Mof_Zn	Zn	0.0758	0.677	0.8726	1.183
Mof_Zn	Zn	0.1738	0.7198	0.7977	1.176
Mof_Zn	Zn	0.0765	0.5735	0.9481	1.19
Mof_Cl	Cl	0.0613	0.725	0.7214	-0.238
Mof_Cl	Cl	0.1523	0.7474	0.9475	-0.213
Mof_Cl	Cl	0.0779	0.6028	0.7719	-0.178
Mof_Cl	Cl	0.2728	0.6697	0.8752	-0.22
Mof_Cl	Cl	0.1586	0.5452	0.8545	-0.21
Mof_Cl	Cl	0.0382	0.5689	0.8006	-0.12
Mof_Cl	Cl	0.2222	0.6362	0.9526	-0.2
Mof_Cl	Cl	0.0327	0.9128	0.9181	-0.174
Mof_Cl	Cl	0.053	0.5314	0.8517	-0.177
Mof_Cl	Cl	0.0911	0.7323	0.9782	-0.194
Mof_N 	N 	0.0271	0.8289	0.8297	-0.261
Mof_N 	N 	0.0987	0.7931	0.8108	-0.293
Mof_N 	N 	0.1387	0.7586	0.7953	-0.271
Mof_N 	N 	0.0749	0.7836	0.8638	-0.289
Mof_N 	N 	0.073	0.7292	0.8766	-0.255
Mof_N 	N 	0.1767	0.6921	0.7676	-0.267
Mof_N 	N 	0.2178	0.7416	0.8049	-0.286
Mof_N 	N 	0.1122	0.6711	0.8471	-0.261
Mof_N 	N 	0.1551	0.6894	0.8223	-0.279
Mof_N 	N 	0.0314	0.6621	0.8635	-0.284
Mof_N 	N 	0.095	0.6031	0.9259	-0.302
Mof_N 	N 	0.0929	0.6512	0.8987	-0.287
Mof_N 	N 	0.103	0.8593	0.8454	-0.27
Mof_N 	N 	0.0293	0.565	0.9352	-0.277
Mof_N 	N 	0.098	0.53	0.9488	-0.293
Mof_N 	N 	0.0743	0.5935	0.9798	-0.282
Mof_C 	C 	0.0209	0.857	0.8147	0.029
Mof_C 	C 	0.0363	0.8833	0.8007	-0.045
Mof_C 	C 	0.0145	0.8998	0.7844	0.014
Mof_C 	C 	0.1296	0.7786	0.814	0.012
Mof_C 	C 	0.0893	0.7827	0.7918	0.086
Mof_C 	C 	0.0592	0.7917	0.78	-0.073
Mof_C 	C 	0.0524	0.7785	0.7576	0.025
Mof_C 	C 	0.0759	0.7563	0.7469	0.113
Mof_C 	C 	0.1061	0.7473	0.7587	-0.058
Mof_C 	C 	0.1128	0.7605	0.7811	0.033
Mof_C 	C 	0.0621	0.7501	0.8589	0.002
Mof_C 	C 	0.0903	0.7436	0.8947	-0.003
Mof_C 	C 	0.1062	0.7397	0.9166	-0.017
Mof_C 	C 	0.1222	0.7677	0.9273	0.139
Mof_C 	C 	0.1221	0.7997	0.9162	0.03
Mof_C 	C 	0.1062	0.8037	0.8944	-0.063
Mof_C 	C 	0.0903	0.7756	0.8836	0.096
Mof_C 	C 	0.1552	0.6635	0.7603	0.039
Mof_C 	C 	0.127	0.6496	0.7731	-0.037
Mof_C 	C 	0.1125	0.6252	0.7591	0.119
Mof_C 	C 	0.2411	0.7321	0.8223	0.028
Mof_C 	C 	0.2411	0.7041	0.8414	-0.037
Mof_C 	C 	0.2715	0.705	0.855	0.111
Mof_C 	C 	0.1277	0.6986	0.835	0.027
Mof_C 	C 	0.1585	0.6557	0.8276	0.058
Mof_C 	C 	0.1833	0.633	0.8191	-0.029
Mof_C 	C 	0.1837	0.5989	0.8267	0.052
Mof_C 	C 	0.1591	0.5875	0.8429	0.15
Mof_C 	C 	0.1343	0.6102	0.8514	-0.036
Mof_C 	C 	0.134	0.6443	0.8438	0.051
Mof_C 	C 	0.0197	0.638	0.8451	0.032
Mof_C 	C 	0.0402	0.6183	0.8335	-0.029
Mof_C 	C 	0.0184	0.6018	0.8199	0.118
Mof_C 	C 	0.0762	0.6242	0.9108	0.04
Mof_C 	C 	0.1254	0.6464	0.9052	0.035
Mof_C 	C 	0.1566	0.6629	0.9011	-0.03
Mof_C 	C 	0.1856	0.6542	0.9143	0.055
Mof_C 	C 	0.1834	0.6289	0.9316	0.131
Mof_C 	C 	0.1521	0.6123	0.9358	-0.065
Mof_C 	C 	0.1232	0.621	0.9226	0.093
Mof_C 	C 	0.0909	0.8818	0.862	0.03
Mof_C 	C 	0.061	0.8837	0.8803	-0.041
Mof_C 	C 	0.0639	0.9113	0.8942	0.113
Mof_C 	C 	0.0152	0.5593	0.913	0.034
Mof_C 	C 	0.0365	0.5505	0.894	-0.045
Mof_C 	C 	0.0196	0.5434	0.8733	0.106
Mof_C 	C 	0.0766	0.628	0.9879	0.038
Mof_C 	C 	0.0903	0.6581	0.9754	-0.052
Mof_C 	C 	0.0965	0.6856	0.9876	0.12
Mof_C 	C 	0.1217	0.5173	0.9684	0.014
Mof_C 	C 	0.1452	0.5313	0.9846	-0.027
Mof_C 	C 	0.1787	0.5184	0.9871	0.031
Mof_Zn	Zn	0.4243	0.6832	0.3379	1.177
Mof_Zn	Zn	0.4242	0.823	0.3726	1.183
Mof_Zn	Zn	0.3262	0.7802	0.2977	1.176
Mof_Zn	Zn	0.4235	0.9265	0.4481	1.19
Mof_Cl	Cl	0.4387	0.775	0.2214	-0.238
Mof_Cl	Cl	0.3477	0.7526	0.4475	-0.213
Mof_Cl	Cl	0.4221	0.8972	0.2719	-0.178
Mof_Cl	Cl	0.2272	0.8303	0.3752	-0.22
Mof_Cl	Cl	0.3414	0.9548	0.3545	-0.21
Mof_Cl	Cl	0.4618	0.9311	0.3006	-0.12
Mof_Cl	Cl	0.2778	0.8638	0.4526	-0.2
Mof_Cl	Cl	0.4673	0.5872	0.4181	-0.173
Mof_Cl	Cl	0.447	0.9686	0.3517	-0.177
Mof_Cl	Cl	0.4089	0.7677	0.4782	-0.194
Mof_N 	N 	0.4729	0.6711	0.3297	-0.261
Mof_N 	N 	0.4013	0.7069	0.3108	-0.293
Mof_N 	N 	0.3613	0.7414	0.2953	-0.271
Mof_N 	N 	0.4251	0.7164	0.3638	-0.289
Mof_N 	N 	0.427	0.7708	0.3766	-0.255
Mof_N 	N 	0.3233	0.8079	0.2676	-0.267
Mof_N 	N 	0.2822	0.7584	0.3049	-0.286
Mof_N 	N 	0.3878	0.8289	0.3471	-0.261
Mof_N 	N 	0.3449	0.8106	0.3223	-0.279
Mof_N 	N 	0.4686	0.8379	0.3635	-0.284
Mof_N 	N 	0.405	0.8969	0.4259	-0.302
Mof_N 	N 	0.4071	0.8488	0.3987	-0.287
Mof_N 	N 	0.397	0.6407	0.3454	-0.27
Mof_N 	N 	0.4707	0.935	0.4352	-0.277
Mof_N 	N 	0.402	0.97	0.4488	-0.293
Mof_N 	N 	0.4257	0.9065	0.4798	-0.282
Mof_C 	C 	0.4791	0.643	0.3147	0.03
Mof_C 	C 	0.4637	0.6167	0.3007	-0.045
Mof_C 	C 	0.4855	0.6002	0.2844	0.015
Mof_C 	C 	0.3704	0.7214	0.314	0.012
Mof_C 	C 	0.4107	0.7173	0.2918	0.086
Mof_C 	C 	0.4408	0.7083	0.28	-0.073
Mof_C 	C 	0.4476	0.7215	0.2576	0.025
Mof_C 	C 	0.4241	0.7437	0.2469	0.113
Mof_C 	C 	0.3939	0.7527	0.2587	-0.058
Mof_C 	C 	0.3872	0.7395	0.2811	0.033
Mof_C 	C 	0.4379	0.7499	0.3589	0.002
Mof_C 	C 	0.4097	0.7564	0.3947	-0.003
Mof_C 	C 	0.3938	0.7603	0.4166	-0.017
Mof_C 	C 	0.3778	0.7323	0.4273	0.139
Mof_C 	C 	0.3779	0.7003	0.4162	0.03
Mof_C 	C 	0.3938	0.6963	0.3944	-0.063
Mof_C 	C 	0.4097	0.7244	0.3836	0.096
Mof_C 	C 	0.3448	0.8365	0.2603	0.039
Mof_C 	C 	0.373	0.8504	0.2731	-0.037
Mof_C 	C 	0.3875	0.8748	0.2591	0.12
Mof_C 	C 	0.2589	0.7679	0.3223	0.028
Mof_C 	C 	0.2589	0.7959	0.3414	-0.037
Mof_C 	C 	0.2285	0.795	0.355	0.111
Mof_C 	C 	0.3723	0.8014	0.335	0.027
Mof_C 	C 	0.3415	0.8443	0.3276	0.058
Mof_C 	C 	0.3167	0.867	0.3191	-0.029
Mof_C 	C 	0.3163	0.9011	0.3267	0.052
Mof_C 	C 	0.3409	0.9125	0.3429	0.15
Mof_C 	C 	0.3657	0.8898	0.3514	-0.036
Mof_C 	C 	0.366	0.8557	0.3438	0.051
Mof_C 	C 	0.4803	0.862	0.3451	0.033
Mof_C 	C 	0.4598	0.8817	0.3335	-0.029
Mof_C 	C 	0.4816	0.8982	0.3199	0.118
Mof_C 	C 	0.4238	0.8758	0.4108	0.04
Mof_C 	C 	0.3746	0.8536	0.4052	0.035
Mof_C 	C 	0.3434	0.8371	0.4011	-0.03
Mof_C 	C 	0.3144	0.8458	0.4143	0.055
Mof_C 	C 	0.3166	0.8711	0.4316	0.131
Mof_C 	C 	0.3479	0.8877	0.4358	-0.065
Mof_C 	C 	0.3768	0.879	0.4226	0.093
Mof_C 	C 	0.4091	0.6182	0.362	0.03
Mof_C 	C 	0.439	0.6163	0.3803	-0.041
Mof_C 	C 	0.4361	0.5887	0.3942	0.113
Mof_C 	C 	0.4848	0.9407	0.413	0.035
Mof_C 	C 	0.4635	0.9495	0.394	-0.045
Mof_C 	C 	0.4804	0.9566	0.3733	0.107
Mof_C 	C 	0.4234	0.872	0.4879	0.038
Mof_C 	C 	0.4097	0.8419	0.4754	-0.052
Mof_C 	C 	0.4035	0.8144	0.4876	0.12
Mof_C 	C 	0.3783	0.9827	0.4684	0.014
Mof_C 	C 	0.3548	0.9687	0.4846	-0.027
Mof_C 	C 	0.3213	0.9816	0.4871	0.032
Mof_Zn	Zn	0.9243	0.1832	0.8379	1.177
Mof_Zn	Zn	0.9242	0.323	0.8726	1.183
Mof_Zn	Zn	0.8262	0.2802	0.7977	1.176
Mof_Zn	Zn	0.9235	0.4265	0.9481	1.19
Mof_Cl	Cl	0.9387	0.275	0.7214	-0.238
Mof_Cl	Cl	0.8477	0.2526	0.9475	-0.213
Mof_Cl	Cl	0.9221	0.3972	0.7719	-0.178
Mof_Cl	Cl	0.7272	0.3303	0.8752	-0.22
Mof_Cl	Cl	0.8414	0.4548	0.8545	-0.21
Mof_Cl	Cl	0.9618	0.4311	0.8006	-0.12
Mof_Cl	Cl	0.7778	0.3638	0.9526	-0.2
Mof_Cl	Cl	0.9673	0.0872	0.9181	-0.173
Mof_Cl	Cl	0.947	0.4686	0.8517	-0.177
Mof_Cl	Cl	0.9089	0.2677	0.9782	-0.194
Mof_N 	N 	0.9729	0.1711	0.8297	-0.261
Mof_N 	N 	0.9013	0.2069	0.8108	-0.293
Mof_N 	N 	0.8613	0.2414	0.7953	-0.271
Mof_N 	N 	0.9251	0.2164	0.8638	-0.289
Mof_N 	N 	0.927	0.2708	0.8766	-0.255
Mof_N 	N 	0.8233	0.3079	0.7676	-0.267
Mof_N 	N 	0.7822	0.2584	0.8049	-0.286
Mof_N 	N 	0.8878	0.3289	0.8471	-0.261
Mof_N 	N 	0.8449	0.3106	0.8223	-0.279
Mof_N 	N 	0.9686	0.3379	0.8635	-0.284
Mof_N 	N 	0.905	0.3969	0.9259	-0.302
Mof_N 	N 	0.9071	0.3488	0.8987	-0.287
Mof_N 	N 	0.897	0.1407	0.8454	-0.27
Mof_N 	N 	0.9707	0.435	0.9352	-0.277
Mof_N 	N 	0.902	0.47	0.9488	-0.293
Mof_N 	N 	0.9257	0.4065	0.9798	-0.282
Mof_C 	C 	0.9791	0.143	0.8147	0.03
Mof_C 	C 	0.9637	0.1167	0.8007	-0.046
Mof_C 	C 	0.9855	0.1002	0.7844	0.016
Mof_C 	C 	0.8704	0.2214	0.814	0.012
Mof_C 	C 	0.9107	0.2173	0.7918	0.086
Mof_C 	C 	0.9408	0.2083	0.78	-0.073
Mof_C 	C 	0.9476	0.2215	0.7576	0.025
Mof_C 	C 	0.9241	0.2437	0.7469	0.113
Mof_C 	C 	0.8939	0.2527	0.7587	-0.058
Mof_C 	C 	0.8872	0.2395	0.7811	0.033
Mof_C 	C 	0.9379	0.2499	0.8589	0.002
Mof_C 	C 	0.9097	0.2564	0.8947	-0.003
Mof_C 	C 	0.8938	0.2603	0.9166	-0.017
Mof_C 	C 	0.8778	0.2323	0.9273	0.139
Mof_C 	C 	0.8779	0.2003	0.9162	0.03
Mof_C 	C 	0.8938	0.1963	0.8944	-0.063
Mof_C 	C 	0.9097	0.2244	0.8836	0.096
Mof_C 	C 	0.8448	0.3365	0.7603	0.039
Mof_C 	C 	0.873	0.3504	0.7731	-0.037
Mof_C 	C 	0.8875	0.3748	0.7591	0.12
Mof_C 	C 	0.7589	0.2679	0.8223	0.028
Mof_C 	C 	0.7589	0.2959	0.8414	-0.037
Mof_C 	C 	0.7285	0.295	0.855	0.111
Mof_C 	C 	0.8723	0.3014	0.835	0.027
Mof_C 	C 	0.8415	0.3443	0.8276	0.058
Mof_C 	C 	0.8167	0.367	0.8191	-0.029
Mof_C 	C 	0.8163	0.4011	0.8267	0.052
Mof_C 	C 	0.8409	0.4125	0.8429	0.15
Mof_C 	C 	0.8657	0.3898	0.8514	-0.036
Mof_C 	C 	0.866	0.3557	0.8438	0.051
Mof_C 	C 	0.9803	0.362	0.8451	0.033
Mof_C 	C 	0.9598	0.3817	0.8335	-0.029
Mof_C 	C 	0.9816	0.3982	0.8199	0.119
Mof_C 	C 	0.9238	0.3758	0.9108	0.04
Mof_C 	C 	0.8746	0.3536	0.9052	0.035
Mof_C 	C 	0.8434	0.3371	0.9011	-0.03
Mof_C 	C 	0.8144	0.3458	0.9143	0.055
Mof_C 	C 	0.8166	0.3711	0.9316	0.131
Mof_C 	C 	0.8479	0.3877	0.9358	-0.065
Mof_C 	C 	0.8768	0.379	0.9226	0.093
Mof_C 	C 	0.9091	0.1182	0.862	0.03
Mof_C 	C 	0.939	0.1163	0.8803	-0.041
Mof_C 	C 	0.9361	0.0887	0.8942	0.113
Mof_C 	C 	0.9848	0.4407	0.913	0.036
Mof_C 	C 	0.9635	0.4495	0.894	-0.045
Mof_C 	C 	0.9804	0.4566	0.8733	0.107
Mof_C 	C 	0.9234	0.372	0.9879	0.038
Mof_C 	C 	0.9097	0.3419	0.9754	-0.052
Mof_C 	C 	0.9035	0.3144	0.9876	0.12
Mof_C 	C 	0.8783	0.4827	0.9684	0.014
Mof_C 	C 	0.8548	0.4687	0.9846	-0.027
Mof_C 	C 	0.8213	0.4816	0.9871	0.031
Mof_Zn	Zn	0.6832	0.4243	0.6621	1.177
Mof_Zn	Zn	0.823	0.4242	0.6274	1.183
Mof_Zn	Zn	0.7802	0.3262	0.7023	1.176
Mof_Zn	Zn	0.9265	0.4235	0.5519	1.19
Mof_Cl	Cl	0.775	0.4387	0.7786	-0.238
Mof_Cl	Cl	0.7526	0.3477	0.5525	-0.213
Mof_Cl	Cl	0.8972	0.4221	0.7281	-0.178
Mof_Cl	Cl	0.8303	0.2272	0.6248	-0.22
Mof_Cl	Cl	0.9548	0.3414	0.6455	-0.21
Mof_Cl	Cl	0.9311	0.4618	0.6994	-0.12
Mof_Cl	Cl	0.8638	0.2778	0.5474	-0.2
Mof_Cl	Cl	0.5872	0.4673	0.5819	-0.173
Mof_Cl	Cl	0.9686	0.447	0.6483	-0.177
Mof_Cl	Cl	0.7677	0.4089	0.5218	-0.194
Mof_N 	N 	0.6711	0.4729	0.6703	-0.261
Mof_N 	N 	0.7069	0.4013	0.6892	-0.293
Mof_N 	N 	0.7414	0.3613	0.7047	-0.271
Mof_N 	N 	0.7164	0.4251	0.6362	-0.289
Mof_N 	N 	0.7708	0.427	0.6234	-0.255
Mof_N 	N 	0.8079	0.3233	0.7324	-0.267
Mof_N 	N 	0.7584	0.2822	0.6951	-0.286
Mof_N 	N 	0.8289	0.3878	0.6529	-0.261
Mof_N 	N 	0.8106	0.3449	0.6777	-0.279
Mof_N 	N 	0.8379	0.4686	0.6365	-0.284
Mof_N 	N 	0.8969	0.405	0.5741	-0.302
Mof_N 	N 	0.8488	0.4071	0.6013	-0.287
Mof_N 	N 	0.6407	0.397	0.6546	-0.27
Mof_N 	N 	0.935	0.4707	0.5648	-0.277
Mof_N 	N 	0.97	0.402	0.5512	-0.293
Mof_N 	N 	0.9065	0.4257	0.5202	-0.282
Mof_C 	C 	0.643	0.4791	0.6853	0.03
Mof_C 	C 	0.6167	0.4637	0.6993	-0.045
Mof_C 	C 	0.6002	0.4855	0.7156	0.015
Mof_C 	C 	0.7214	0.3704	0.686	0.012
Mof_C 	C 	0.7173	0.4107	0.7082	0.086
Mof_C 	C 	0.7083	0.4408	0.72	-0.073
Mof_C 	C 	0.7215	0.4476	0.7424	0.025
Mof_C 	C 	0.7437	0.4241	0.7531	0.113
Mof_C 	C 	0.7527	0.3939	0.7413	-0.058
Mof_C 	C 	0.7395	0.3872	0.7189	0.033
Mof_C 	C 	0.7499	0.4379	0.6411	0.002
Mof_C 	C 	0.7564	0.4097	0.6053	-0.003
Mof_C 	C 	0.7603	0.3938	0.5834	-0.017
Mof_C 	C 	0.7323	0.3778	0.5727	0.139
Mof_C 	C 	0.7003	0.3779	0.5838	0.03
Mof_C 	C 	0.6963	0.3938	0.6056	-0.063
Mof_C 	C 	0.7244	0.4097	0.6164	0.096
Mof_C 	C 	0.8365	0.3448	0.7397	0.039
Mof_C 	C 	0.8504	0.373	0.7269	-0.037
Mof_C 	C 	0.8748	0.3875	0.7409	0.12
Mof_C 	C 	0.7679	0.2589	0.6777	0.028
Mof_C 	C 	0.7959	0.2589	0.6586	-0.037
Mof_C 	C 	0.795	0.2285	0.645	0.111
Mof_C 	C 	0.8014	0.3723	0.665	0.027
Mof_C 	C 	0.8443	0.3415	0.6724	0.058
Mof_C 	C 	0.867	0.3167	0.6809	-0.029
Mof_C 	C 	0.9011	0.3163	0.6733	0.052
Mof_C 	C 	0.9125	0.3409	0.6571	0.15
Mof_C 	C 	0.8898	0.3657	0.6486	-0.036
Mof_C 	C 	0.8557	0.366	0.6562	0.051
Mof_C 	C 	0.862	0.4803	0.6549	0.033
Mof_C 	C 	0.8817	0.4598	0.6665	-0.029
Mof_C 	C 	0.8982	0.4816	0.6801	0.118
Mof_C 	C 	0.8758	0.4238	0.5892	0.04
Mof_C 	C 	0.8536	0.3746	0.5948	0.035
Mof_C 	C 	0.8371	0.3434	0.5989	-0.03
Mof_C 	C 	0.8458	0.3144	0.5857	0.055
Mof_C 	C 	0.8711	0.3166	0.5684	0.131
Mof_C 	C 	0.8877	0.3479	0.5642	-0.065
Mof_C 	C 	0.879	0.3768	0.5774	0.093
Mof_C 	C 	0.6182	0.4091	0.638	0.03
Mof_C 	C 	0.6163	0.439	0.6197	-0.041
Mof_C 	C 	0.5887	0.4361	0.6058	0.113
Mof_C 	C 	0.9407	0.4848	0.587	0.035
Mof_C 	C 	0.9495	0.4635	0.606	-0.045
Mof_C 	C 	0.9566	0.4804	0.6267	0.107
Mof_C 	C 	0.872	0.4234	0.5121	0.038
Mof_C 	C 	0.8419	0.4097	0.5246	-0.052
Mof_C 	C 	0.8144	0.4035	0.5124	0.12
Mof_C 	C 	0.9827	0.3783	0.5316	0.014
Mof_C 	C 	0.9687	0.3548	0.5154	-0.027
Mof_C 	C 	0.9816	0.3213	0.5129	0.032
Mof_Zn	Zn	0.1832	0.9243	0.1621	1.177
Mof_Zn	Zn	0.323	0.9242	0.1274	1.183
Mof_Zn	Zn	0.2802	0.8262	0.2023	1.176
Mof_Zn	Zn	0.4265	0.9235	0.0519	1.19
Mof_Cl	Cl	0.275	0.9387	0.2786	-0.238
Mof_Cl	Cl	0.2526	0.8477	0.0525	-0.213
Mof_Cl	Cl	0.3972	0.9221	0.2281	-0.178
Mof_Cl	Cl	0.3303	0.7272	0.1248	-0.22
Mof_Cl	Cl	0.4548	0.8414	0.1455	-0.21
Mof_Cl	Cl	0.4311	0.9618	0.1994	-0.12
Mof_Cl	Cl	0.3638	0.7778	0.0474	-0.2
Mof_Cl	Cl	0.0872	0.9673	0.0819	-0.173
Mof_Cl	Cl	0.4686	0.947	0.1483	-0.177
Mof_Cl	Cl	0.2677	0.9089	0.0218	-0.194
Mof_N 	N 	0.1711	0.9729	0.1703	-0.261
Mof_N 	N 	0.2069	0.9013	0.1892	-0.293
Mof_N 	N 	0.2414	0.8613	0.2047	-0.271
Mof_N 	N 	0.2164	0.9251	0.1362	-0.289
Mof_N 	N 	0.2708	0.927	0.1234	-0.255
Mof_N 	N 	0.3079	0.8233	0.2324	-0.267
Mof_N 	N 	0.2584	0.7822	0.1951	-0.286
Mof_N 	N 	0.3289	0.8878	0.1529	-0.261
Mof_N 	N 	0.3106	0.8449	0.1777	-0.279
Mof_N 	N 	0.3379	0.9686	0.1365	-0.284
Mof_N 	N 	0.3969	0.905	0.0741	-0.302
Mof_N 	N 	0.3488	0.9071	0.1013	-0.287
Mof_N 	N 	0.1407	0.897	0.1546	-0.27
Mof_N 	N 	0.435	0.9707	0.0648	-0.277
Mof_N 	N 	0.47	0.902	0.0512	-0.293
Mof_N 	N 	0.4065	0.9257	0.0202	-0.282
Mof_C 	C 	0.143	0.9791	0.1853	0.03
Mof_C 	C 	0.1167	0.9637	0.1993	-0.046
Mof_C 	C 	0.1002	0.9855	0.2156	0.016
Mof_C 	C 	0.2214	0.8704	0.186	0.012
Mof_C 	C 	0.2173	0.9107	0.2082	0.086
Mof_C 	C 	0.2083	0.9408	0.22	-0.073
Mof_C 	C 	0.2215	0.9476	0.2424	0.025
Mof_C 	C 	0.2437	0.9241	0.2531	0.113
Mof_C 	C 	0.2527	0.8939	0.2413	-0.058
Mof_C 	C 	0.2395	0.8872	0.2189	0.033
Mof_C 	C 	0.2499	0.9379	0.1411	0.002
Mof_C 	C 	0.2564	0.9097	0.1053	-0.003
Mof_C 	C 	0.2603	0.8938	0.0834	-0.017
Mof_C 	C 	0.2323	0.8778	0.0727	0.139
Mof_C 	C 	0.2003	0.8779	0.0838	0.03
Mof_C 	C 	0.1963	0.8938	0.1056	-0.063
Mof_C 	C 	0.2244	0.9097	0.1164	0.096
Mof_C 	C 	0.3365	0.8448	0.2397	0.039
Mof_C 	C 	0.3504	0.873	0.2269	-0.037
Mof_C 	C 	0.3748	0.8875	0.2409	0.12
Mof_C 	C 	0.2679	0.7589	0.1777	0.028
Mof_C 	C 	0.2959	0.7589	0.1586	-0.037
Mof_C 	C 	0.295	0.7285	0.145	0.111
Mof_C 	C 	0.3014	0.8723	0.165	0.027
Mof_C 	C 	0.3443	0.8415	0.1724	0.058
Mof_C 	C 	0.367	0.8167	0.1809	-0.029
Mof_C 	C 	0.4011	0.8163	0.1733	0.052
Mof_C 	C 	0.4125	0.8409	0.1571	0.15
Mof_C 	C 	0.3898	0.8657	0.1486	-0.036
Mof_C 	C 	0.3557	0.866	0.1562	0.051
Mof_C 	C 	0.362	0.9803	0.1549	0.033
Mof_C 	C 	0.3817	0.9598	0.1665	-0.029
Mof_C 	C 	0.3982	0.9816	0.1801	0.119
Mof_C 	C 	0.3758	0.9238	0.0892	0.04
Mof_C 	C 	0.3536	0.8746	0.0948	0.035
Mof_C 	C 	0.3371	0.8434	0.0989	-0.03
Mof_C 	C 	0.3458	0.8144	0.0857	0.055
Mof_C 	C 	0.3711	0.8166	0.0684	0.131
Mof_C 	C 	0.3877	0.8479	0.0642	-0.065
Mof_C 	C 	0.379	0.8768	0.0774	0.093
Mof_C 	C 	0.1182	0.9091	0.138	0.03
Mof_C 	C 	0.1163	0.939	0.1197	-0.041
Mof_C 	C 	0.0887	0.9361	0.1058	0.113
Mof_C 	C 	0.4407	0.9848	0.087	0.036
Mof_C 	C 	0.4495	0.9635	0.106	-0.045
Mof_C 	C 	0.4566	0.9804	0.1267	0.107
Mof_C 	C 	0.372	0.9234	0.0121	0.038
Mof_C 	C 	0.3419	0.9097	0.0246	-0.052
Mof_C 	C 	0.3144	0.9035	0.0124	0.12
Mof_C 	C 	0.4827	0.8783	0.0316	0.014
Mof_C 	C 	0.4687	0.8548	0.0154	-0.027
Mof_C 	C 	0.4816	0.8213	0.0129	0.031
Mof_Zn	Zn	0.3168	0.5757	0.6621	1.177
Mof_Zn	Zn	0.177	0.5758	0.6274	1.183
Mof_Zn	Zn	0.2198	0.6738	0.7023	1.176
Mof_Zn	Zn	0.0735	0.5765	0.5519	1.19
Mof_Cl	Cl	0.225	0.5613	0.7786	-0.238
Mof_Cl	Cl	0.2474	0.6523	0.5525	-0.213
Mof_Cl	Cl	0.1028	0.5779	0.7281	-0.178
Mof_Cl	Cl	0.1697	0.7728	0.6248	-0.22
Mof_Cl	Cl	0.0452	0.6586	0.6455	-0.21
Mof_Cl	Cl	0.0689	0.5382	0.6994	-0.12
Mof_Cl	Cl	0.1362	0.7222	0.5474	-0.2
Mof_Cl	Cl	0.4128	0.5327	0.5819	-0.173
Mof_Cl	Cl	0.0314	0.553	0.6483	-0.177
Mof_Cl	Cl	0.2323	0.5911	0.5218	-0.194
Mof_N 	N 	0.3289	0.5271	0.6703	-0.261
Mof_N 	N 	0.2931	0.5987	0.6892	-0.293
Mof_N 	N 	0.2586	0.6387	0.7047	-0.271
Mof_N 	N 	0.2836	0.5749	0.6362	-0.289
Mof_N 	N 	0.2292	0.573	0.6234	-0.255
Mof_N 	N 	0.1921	0.6767	0.7324	-0.267
Mof_N 	N 	0.2416	0.7178	0.6951	-0.286
Mof_N 	N 	0.1711	0.6122	0.6529	-0.261
Mof_N 	N 	0.1894	0.6551	0.6777	-0.279
Mof_N 	N 	0.1621	0.5314	0.6365	-0.284
Mof_N 	N 	0.1031	0.595	0.5741	-0.302
Mof_N 	N 	0.1512	0.5929	0.6013	-0.287
Mof_N 	N 	0.3593	0.603	0.6546	-0.27
Mof_N 	N 	0.065	0.5293	0.5648	-0.277
Mof_N 	N 	0.03	0.598	0.5512	-0.293
Mof_N 	N 	0.0935	0.5743	0.5202	-0.282
Mof_C 	C 	0.357	0.5209	0.6853	0.03
Mof_C 	C 	0.3833	0.5363	0.6993	-0.045
Mof_C 	C 	0.3998	0.5145	0.7156	0.015
Mof_C 	C 	0.2786	0.6296	0.686	0.012
Mof_C 	C 	0.2827	0.5893	0.7082	0.086
Mof_C 	C 	0.2917	0.5592	0.72	-0.073
Mof_C 	C 	0.2785	0.5524	0.7424	0.025
Mof_C 	C 	0.2563	0.5759	0.7531	0.113
Mof_C 	C 	0.2473	0.6061	0.7413	-0.058
Mof_C 	C 	0.2605	0.6128	0.7189	0.033
Mof_C 	C 	0.2501	0.5621	0.6411	0.002
Mof_C 	C 	0.2436	0.5903	0.6053	-0.003
Mof_C 	C 	0.2397	0.6062	0.5834	-0.017
Mof_C 	C 	0.2677	0.6222	0.5727	0.139
Mof_C 	C 	0.2997	0.6221	0.5838	0.03
Mof_C 	C 	0.3037	0.6062	0.6056	-0.063
Mof_C 	C 	0.2756	0.5903	0.6164	0.096
Mof_C 	C 	0.1635	0.6552	0.7397	0.039
Mof_C 	C 	0.1496	0.627	0.7269	-0.037
Mof_C 	C 	0.1252	0.6125	0.7409	0.119
Mof_C 	C 	0.2321	0.7411	0.6777	0.028
Mof_C 	C 	0.2041	0.7411	0.6586	-0.037
Mof_C 	C 	0.205	0.7715	0.645	0.111
Mof_C 	C 	0.1986	0.6277	0.665	0.027
Mof_C 	C 	0.1557	0.6585	0.6724	0.058
Mof_C 	C 	0.133	0.6833	0.6809	-0.029
Mof_C 	C 	0.0989	0.6837	0.6733	0.052
Mof_C 	C 	0.0875	0.6591	0.6571	0.15
Mof_C 	C 	0.1102	0.6343	0.6486	-0.036
Mof_C 	C 	0.1443	0.634	0.6562	0.051
Mof_C 	C 	0.138	0.5197	0.6549	0.033
Mof_C 	C 	0.1183	0.5402	0.6665	-0.029
Mof_C 	C 	0.1018	0.5184	0.6801	0.118
Mof_C 	C 	0.1242	0.5762	0.5892	0.04
Mof_C 	C 	0.1464	0.6254	0.5948	0.035
Mof_C 	C 	0.1629	0.6566	0.5989	-0.03
Mof_C 	C 	0.1542	0.6856	0.5857	0.055
Mof_C 	C 	0.1289	0.6834	0.5684	0.131
Mof_C 	C 	0.1123	0.6521	0.5642	-0.065
Mof_C 	C 	0.121	0.6232	0.5774	0.093
Mof_C 	C 	0.3818	0.5909	0.638	0.03
Mof_C 	C 	0.3837	0.561	0.6197	-0.041
Mof_C 	C 	0.4113	0.5639	0.6058	0.113
Mof_C 	C 	0.0593	0.5152	0.587	0.035
Mof_C 	C 	0.0505	0.5365	0.606	-0.045
Mof_C 	C 	0.0434	0.5196	0.6267	0.107
Mof_C 	C 	0.128	0.5766	0.5121	0.038
Mof_C 	C 	0.1581	0.5903	0.5246	-0.052
Mof_C 	C 	0.1856	0.5965	0.5124	0.12
Mof_C 	C 	0.0173	0.6217	0.5316	0.013
Mof_C 	C 	0.0313	0.6452	0.5154	-0.027
Mof_C 	C 	0.0184	0.6787	0.5129	0.031
Mof_Zn	Zn	0.8168	0.0757	0.1621	1.177
Mof_Zn	Zn	0.677	0.0758	0.1274	1.183
Mof_Zn	Zn	0.7198	0.1738	0.2023	1.176
Mof_Zn	Zn	0.5735	0.0765	0.0519	1.19
Mof_Cl	Cl	0.725	0.0613	0.2786	-0.238
Mof_Cl	Cl	0.7474	0.1523	0.0525	-0.213
Mof_Cl	Cl	0.6028	0.0779	0.2281	-0.178
Mof_Cl	Cl	0.6697	0.2728	0.1248	-0.22
Mof_Cl	Cl	0.5452	0.1586	0.1455	-0.21
Mof_Cl	Cl	0.5689	0.0382	0.1994	-0.12
Mof_Cl	Cl	0.6362	0.2222	0.0474	-0.2
Mof_Cl	Cl	0.9128	0.0327	0.0819	-0.174
Mof_Cl	Cl	0.5314	0.053	0.1483	-0.177
Mof_Cl	Cl	0.7323	0.0911	0.0218	-0.194
Mof_N 	N 	0.8289	0.0271	0.1703	-0.261
Mof_N 	N 	0.7931	0.0987	0.1892	-0.293
Mof_N 	N 	0.7586	0.1387	0.2047	-0.271
Mof_N 	N 	0.7836	0.0749	0.1362	-0.289
Mof_N 	N 	0.7292	0.073	0.1234	-0.255
Mof_N 	N 	0.6921	0.1767	0.2324	-0.267
Mof_N 	N 	0.7416	0.2178	0.1951	-0.286
Mof_N 	N 	0.6711	0.1122	0.1529	-0.261
Mof_N 	N 	0.6894	0.1551	0.1777	-0.279
Mof_N 	N 	0.6621	0.0314	0.1365	-0.284
Mof_N 	N 	0.6031	0.095	0.0741	-0.302
Mof_N 	N 	0.6512	0.0929	0.1013	-0.287
Mof_N 	N 	0.8593	0.103	0.1546	-0.27
Mof_N 	N 	0.565	0.0293	0.0648	-0.277
Mof_N 	N 	0.53	0.098	0.0512	-0.293
Mof_N 	N 	0.5935	0.0743	0.0202	-0.282
Mof_C 	C 	0.857	0.0209	0.1853	0.029
Mof_C 	C 	0.8833	0.0363	0.1993	-0.045
Mof_C 	C 	0.8998	0.0145	0.2156	0.014
Mof_C 	C 	0.7786	0.1296	0.186	0.012
Mof_C 	C 	0.7827	0.0893	0.2082	0.086
Mof_C 	C 	0.7917	0.0592	0.22	-0.073
Mof_C 	C 	0.7785	0.0524	0.2424	0.025
Mof_C 	C 	0.7563	0.0759	0.2531	0.113
Mof_C 	C 	0.7473	0.1061	0.2413	-0.058
Mof_C 	C 	0.7605	0.1128	0.2189	0.033
Mof_C 	C 	0.7501	0.0621	0.1411	0.002
Mof_C 	C 	0.7436	0.0903	0.1053	-0.003
Mof_C 	C 	0.7397	0.1062	0.0834	-0.017
Mof_C 	C 	0.7677	0.1222	0.0727	0.139
Mof_C 	C 	0.7997	0.1221	0.0838	0.03
Mof_C 	C 	0.8037	0.1062	0.1056	-0.063
Mof_C 	C 	0.7756	0.0903	0.1164	0.096
Mof_C 	C 	0.6635	0.1552	0.2397	0.039
Mof_C 	C 	0.6496	0.127	0.2269	-0.037
Mof_C 	C 	0.6252	0.1125	0.2409	0.119
Mof_C 	C 	0.7321	0.2411	0.1777	0.028
Mof_C 	C 	0.7041	0.2411	0.1586	-0.037
Mof_C 	C 	0.705	0.2715	0.145	0.111
Mof_C 	C 	0.6986	0.1277	0.165	0.027
Mof_C 	C 	0.6557	0.1585	0.1724	0.058
Mof_C 	C 	0.633	0.1833	0.1809	-0.029
Mof_C 	C 	0.5989	0.1837	0.1733	0.052
Mof_C 	C 	0.5875	0.1591	0.1571	0.15
Mof_C 	C 	0.6102	0.1343	0.1486	-0.036
Mof_C 	C 	0.6443	0.134	0.1562	0.051
Mof_C 	C 	0.638	0.0197	0.1549	0.032
Mof_C 	C 	0.6183	0.0402	0.1665	-0.029
Mof_C 	C 	0.6018	0.0184	0.1801	0.118
Mof_C 	C 	0.6242	0.0762	0.0892	0.04
Mof_C 	C 	0.6464	0.1254	0.0948	0.035
Mof_C 	C 	0.6629	0.1566	0.0989	-0.03
Mof_C 	C 	0.6542	0.1856	0.0857	0.055
Mof_C 	C 	0.6289	0.1834	0.0684	0.131
Mof_C 	C 	0.6123	0.1521	0.0642	-0.065
Mof_C 	C 	0.621	0.1232	0.0774	0.093
Mof_C 	C 	0.8818	0.0909	0.138	0.03
Mof_C 	C 	0.8837	0.061	0.1197	-0.041
Mof_C 	C 	0.9113	0.0639	0.1058	0.113
Mof_C 	C 	0.5593	0.0152	0.087	0.034
Mof_C 	C 	0.5505	0.0365	0.106	-0.045
Mof_C 	C 	0.5434	0.0196	0.1267	0.106
Mof_C 	C 	0.628	0.0766	0.0121	0.038
Mof_C 	C 	0.6581	0.0903	0.0246	-0.052
Mof_C 	C 	0.6856	0.0965	0.0124	0.12
Mof_C 	C 	0.5173	0.1217	0.0316	0.014
Mof_C 	C 	0.5313	0.1452	0.0154	-0.027
Mof_C 	C 	0.5184	0.1787	0.0129	0.031
Mof_Zn	Zn	0.4243	0.3168	0.6621	1.177
Mof_Zn	Zn	0.4242	0.177	0.6274	1.183
Mof_Zn	Zn	0.3262	0.2198	0.7023	1.176
Mof_Zn	Zn	0.4235	0.0735	0.5519	1.19
Mof_Cl	Cl	0.4387	0.225	0.7786	-0.238
Mof_Cl	Cl	0.3477	0.2474	0.5525	-0.213
Mof_Cl	Cl	0.4221	0.1028	0.7281	-0.178
Mof_Cl	Cl	0.2272	0.1697	0.6248	-0.22
Mof_Cl	Cl	0.3414	0.0452	0.6455	-0.21
Mof_Cl	Cl	0.4618	0.0689	0.6994	-0.12
Mof_Cl	Cl	0.2778	0.1362	0.5474	-0.2
Mof_Cl	Cl	0.4673	0.4128	0.5819	-0.173
Mof_Cl	Cl	0.447	0.0314	0.6483	-0.177
Mof_Cl	Cl	0.4089	0.2323	0.5218	-0.194
Mof_N 	N 	0.4729	0.3289	0.6703	-0.261
Mof_N 	N 	0.4013	0.2931	0.6892	-0.293
Mof_N 	N 	0.3613	0.2586	0.7047	-0.271
Mof_N 	N 	0.4251	0.2836	0.6362	-0.289
Mof_N 	N 	0.427	0.2292	0.6234	-0.255
Mof_N 	N 	0.3233	0.1921	0.7324	-0.267
Mof_N 	N 	0.2822	0.2416	0.6951	-0.286
Mof_N 	N 	0.3878	0.1711	0.6529	-0.261
Mof_N 	N 	0.3449	0.1894	0.6777	-0.279
Mof_N 	N 	0.4686	0.1621	0.6365	-0.284
Mof_N 	N 	0.405	0.1031	0.5741	-0.302
Mof_N 	N 	0.4071	0.1512	0.6013	-0.287
Mof_N 	N 	0.397	0.3593	0.6546	-0.27
Mof_N 	N 	0.4707	0.065	0.5648	-0.277
Mof_N 	N 	0.402	0.03	0.5512	-0.293
Mof_N 	N 	0.4257	0.0935	0.5202	-0.282
Mof_C 	C 	0.4791	0.357	0.6853	0.03
Mof_C 	C 	0.4637	0.3833	0.6993	-0.045
Mof_C 	C 	0.4855	0.3998	0.7156	0.015
Mof_C 	C 	0.3704	0.2786	0.686	0.012
Mof_C 	C 	0.4107	0.2827	0.7082	0.086
Mof_C 	C 	0.4408	0.2917	0.72	-0.073
Mof_C 	C 	0.4476	0.2785	0.7424	0.025
Mof_C 	C 	0.4241	0.2563	0.7531	0.113
Mof_C 	C 	0.3939	0.2473	0.7413	-0.058
Mof_C 	C 	0.3872	0.2605	0.7189	0.033
Mof_C 	C 	0.4379	0.2501	0.6411	0.002
Mof_C 	C 	0.4097	0.2436	0.6053	-0.003
Mof_C 	C 	0.3938	0.2397	0.5834	-0.017
Mof_C 	C 	0.3778	0.2677	0.5727	0.139
Mof_C 	C 	0.3779	0.2997	0.5838	0.03
Mof_C 	C 	0.3938	0.3037	0.6056	-0.063
Mof_C 	C 	0.4097	0.2756	0.6164	0.096
Mof_C 	C 	0.3448	0.1635	0.7397	0.039
Mof_C 	C 	0.373	0.1496	0.7269	-0.037
Mof_C 	C 	0.3875	0.1252	0.7409	0.119
Mof_C 	C 	0.2589	0.2321	0.6777	0.028
Mof_C 	C 	0.2589	0.2041	0.6586	-0.037
Mof_C 	C 	0.2285	0.205	0.645	0.111
Mof_C 	C 	0.3723	0.1986	0.665	0.027
Mof_C 	C 	0.3415	0.1557	0.6724	0.058
Mof_C 	C 	0.3167	0.133	0.6809	-0.029
Mof_C 	C 	0.3163	0.0989	0.6733	0.052
Mof_C 	C 	0.3409	0.0875	0.6571	0.15
Mof_C 	C 	0.3657	0.1102	0.6486	-0.036
Mof_C 	C 	0.366	0.1443	0.6562	0.051
Mof_C 	C 	0.4803	0.138	0.6549	0.033
Mof_C 	C 	0.4598	0.1183	0.6665	-0.029
Mof_C 	C 	0.4816	0.1018	0.6801	0.118
Mof_C 	C 	0.4238	0.1242	0.5892	0.04
Mof_C 	C 	0.3746	0.1464	0.5948	0.035
Mof_C 	C 	0.3434	0.1629	0.5989	-0.03
Mof_C 	C 	0.3144	0.1542	0.5857	0.055
Mof_C 	C 	0.3166	0.1289	0.5684	0.131
Mof_C 	C 	0.3479	0.1123	0.5642	-0.065
Mof_C 	C 	0.3768	0.121	0.5774	0.093
Mof_C 	C 	0.4091	0.3818	0.638	0.03
Mof_C 	C 	0.439	0.3837	0.6197	-0.041
Mof_C 	C 	0.4361	0.4113	0.6058	0.113
Mof_C 	C 	0.4848	0.0593	0.587	0.035
Mof_C 	C 	0.4635	0.0505	0.606	-0.045
Mof_C 	C 	0.4804	0.0434	0.6267	0.107
Mof_C 	C 	0.4234	0.128	0.5121	0.038
Mof_C 	C 	0.4097	0.1581	0.5246	-0.052
Mof_C 	C 	0.4035	0.1856	0.5124	0.12
Mof_C 	C 	0.3783	0.0173	0.5316	0.013
Mof_C 	C 	0.3548	0.0313	0.5154	-0.027
Mof_C 	C 	0.3213	0.0184	0.5129	0.031
Mof_Zn	Zn	0.9243	0.8168	0.1621	1.177
Mof_Zn	Zn	0.9242	0.677	0.1274	1.183
Mof_Zn	Zn	0.8262	0.7198	0.2023	1.176
Mof_Zn	Zn	0.9235	0.5735	0.0519	1.19
Mof_Cl	Cl	0.9387	0.725	0.2786	-0.237
Mof_Cl	Cl	0.8477	0.7474	0.0525	-0.213
Mof_Cl	Cl	0.9221	0.6028	0.2281	-0.178
Mof_Cl	Cl	0.7272	0.6697	0.1248	-0.22
Mof_Cl	Cl	0.8414	0.5452	0.1455	-0.21
Mof_Cl	Cl	0.9618	0.5689	0.1994	-0.12
Mof_Cl	Cl	0.7778	0.6362	0.0474	-0.2
Mof_Cl	Cl	0.9673	0.9128	0.0819	-0.173
Mof_Cl	Cl	0.947	0.5314	0.1483	-0.177
Mof_Cl	Cl	0.9089	0.7323	0.0218	-0.194
Mof_N 	N 	0.9729	0.8289	0.1703	-0.261
Mof_N 	N 	0.9013	0.7931	0.1892	-0.293
Mof_N 	N 	0.8613	0.7586	0.2047	-0.271
Mof_N 	N 	0.9251	0.7836	0.1362	-0.289
Mof_N 	N 	0.927	0.7292	0.1234	-0.255
Mof_N 	N 	0.8233	0.6921	0.2324	-0.267
Mof_N 	N 	0.7822	0.7416	0.1951	-0.286
Mof_N 	N 	0.8878	0.6711	0.1529	-0.261
Mof_N 	N 	0.8449	0.6894	0.1777	-0.279
Mof_N 	N 	0.9686	0.6621	0.1365	-0.284
Mof_N 	N 	0.905	0.6031	0.0741	-0.302
Mof_N 	N 	0.9071	0.6512	0.1013	-0.287
Mof_N 	N 	0.897	0.8593	0.1546	-0.27
Mof_N 	N 	0.9707	0.565	0.0648	-0.277
Mof_N 	N 	0.902	0.53	0.0512	-0.293
Mof_N 	N 	0.9257	0.5935	0.0202	-0.282
Mof_C 	C 	0.9791	0.857	0.1853	0.03
Mof_C 	C 	0.9637	0.8833	0.1993	-0.045
Mof_C 	C 	0.9855	0.8998	0.2156	0.016
Mof_C 	C 	0.8704	0.7786	0.186	0.012
Mof_C 	C 	0.9107	0.7827	0.2082	0.086
Mof_C 	C 	0.9408	0.7917	0.22	-0.073
Mof_C 	C 	0.9476	0.7785	0.2424	0.025
Mof_C 	C 	0.9241	0.7563	0.2531	0.113
Mof_C 	C 	0.8939	0.7473	0.2413	-0.058
Mof_C 	C 	0.8872	0.7605	0.2189	0.033
Mof_C 	C 	0.9379	0.7501	0.1411	0.002
Mof_C 	C 	0.9097	0.7436	0.1053	-0.003
Mof_C 	C 	0.8938	0.7397	0.0834	-0.017
Mof_C 	C 	0.8778	0.7677	0.0727	0.139
Mof_C 	C 	0.8779	0.7997	0.0838	0.03
Mof_C 	C 	0.8938	0.8037	0.1056	-0.063
Mof_C 	C 	0.9097	0.7756	0.1164	0.096
Mof_C 	C 	0.8448	0.6635	0.2397	0.039
Mof_C 	C 	0.873	0.6496	0.2269	-0.037
Mof_C 	C 	0.8875	0.6252	0.2409	0.119
Mof_C 	C 	0.7589	0.7321	0.1777	0.028
Mof_C 	C 	0.7589	0.7041	0.1586	-0.037
Mof_C 	C 	0.7285	0.705	0.145	0.111
Mof_C 	C 	0.8723	0.6986	0.165	0.027
Mof_C 	C 	0.8415	0.6557	0.1724	0.058
Mof_C 	C 	0.8167	0.633	0.1809	-0.029
Mof_C 	C 	0.8163	0.5989	0.1733	0.052
Mof_C 	C 	0.8409	0.5875	0.1571	0.15
Mof_C 	C 	0.8657	0.6102	0.1486	-0.036
Mof_C 	C 	0.866	0.6443	0.1562	0.051
Mof_C 	C 	0.9803	0.638	0.1549	0.033
Mof_C 	C 	0.9598	0.6183	0.1665	-0.029
Mof_C 	C 	0.9816	0.6018	0.1801	0.119
Mof_C 	C 	0.9238	0.6242	0.0892	0.04
Mof_C 	C 	0.8746	0.6464	0.0948	0.035
Mof_C 	C 	0.8434	0.6629	0.0989	-0.03
Mof_C 	C 	0.8144	0.6542	0.0857	0.055
Mof_C 	C 	0.8166	0.6289	0.0684	0.131
Mof_C 	C 	0.8479	0.6123	0.0642	-0.065
Mof_C 	C 	0.8768	0.621	0.0774	0.093
Mof_C 	C 	0.9091	0.8818	0.138	0.03
Mof_C 	C 	0.939	0.8837	0.1197	-0.041
Mof_C 	C 	0.9361	0.9113	0.1058	0.113
Mof_C 	C 	0.9848	0.5593	0.087	0.036
Mof_C 	C 	0.9635	0.5505	0.106	-0.045
Mof_C 	C 	0.9804	0.5434	0.1267	0.107
Mof_C 	C 	0.9234	0.628	0.0121	0.038
Mof_C 	C 	0.9097	0.6581	0.0246	-0.052
Mof_C 	C 	0.9035	0.6856	0.0124	0.12
Mof_C 	C 	0.8783	0.5173	0.0316	0.014
Mof_C 	C 	0.8548	0.5313	0.0154	-0.027
Mof_C 	C 	0.8213	0.5184	0.0129	0.031
Mof_Zn	Zn	0.5757	0.6832	0.6621	1.177
Mof_Zn	Zn	0.5758	0.823	0.6274	1.183
Mof_Zn	Zn	0.6738	0.7802	0.7023	1.176
Mof_Zn	Zn	0.5765	0.9265	0.5519	1.19
Mof_Cl	Cl	0.5613	0.775	0.7786	-0.238
Mof_Cl	Cl	0.6523	0.7526	0.5525	-0.213
Mof_Cl	Cl	0.5779	0.8972	0.7281	-0.178
Mof_Cl	Cl	0.7728	0.8303	0.6248	-0.22
Mof_Cl	Cl	0.6586	0.9548	0.6455	-0.21
Mof_Cl	Cl	0.5382	0.9311	0.6994	-0.12
Mof_Cl	Cl	0.7222	0.8638	0.5474	-0.2
Mof_Cl	Cl	0.5327	0.5872	0.5819	-0.173
Mof_Cl	Cl	0.553	0.9686	0.6483	-0.177
Mof_Cl	Cl	0.5911	0.7677	0.5218	-0.194
Mof_N 	N 	0.5271	0.6711	0.6703	-0.261
Mof_N 	N 	0.5987	0.7069	0.6892	-0.293
Mof_N 	N 	0.6387	0.7414	0.7047	-0.271
Mof_N 	N 	0.5749	0.7164	0.6362	-0.289
Mof_N 	N 	0.573	0.7708	0.6234	-0.255
Mof_N 	N 	0.6767	0.8079	0.7324	-0.267
Mof_N 	N 	0.7178	0.7584	0.6951	-0.286
Mof_N 	N 	0.6122	0.8289	0.6529	-0.261
Mof_N 	N 	0.6551	0.8106	0.6777	-0.279
Mof_N 	N 	0.5314	0.8379	0.6365	-0.284
Mof_N 	N 	0.595	0.8969	0.5741	-0.302
Mof_N 	N 	0.5929	0.8488	0.6013	-0.287
Mof_N 	N 	0.603	0.6407	0.6546	-0.27
Mof_N 	N 	0.5293	0.935	0.5648	-0.277
Mof_N 	N 	0.598	0.97	0.5512	-0.293
Mof_N 	N 	0.5743	0.9065	0.5202	-0.282
Mof_C 	C 	0.5209	0.643	0.6853	0.03
Mof_C 	C 	0.5363	0.6167	0.6993	-0.045
Mof_C 	C 	0.5145	0.6002	0.7156	0.015
Mof_C 	C 	0.6296	0.7214	0.686	0.012
Mof_C 	C 	0.5893	0.7173	0.7082	0.086
Mof_C 	C 	0.5592	0.7083	0.72	-0.073
Mof_C 	C 	0.5524	0.7215	0.7424	0.025
Mof_C 	C 	0.5759	0.7437	0.7531	0.113
Mof_C 	C 	0.6061	0.7527	0.7413	-0.058
Mof_C 	C 	0.6128	0.7395	0.7189	0.033
Mof_C 	C 	0.5621	0.7499	0.6411	0.002
Mof_C 	C 	0.5903	0.7564	0.6053	-0.003
Mof_C 	C 	0.6062	0.7603	0.5834	-0.017
Mof_C 	C 	0.6222	0.7323	0.5727	0.139
Mof_C 	C 	0.6221	0.7003	0.5838	0.03
Mof_C 	C 	0.6062	0.6963	0.6056	-0.063
Mof_C 	C 	0.5903	0.7244	0.6164	0.096
Mof_C 	C 	0.6552	0.8365	0.7397	0.039
Mof_C 	C 	0.627	0.8504	0.7269	-0.037
Mof_C 	C 	0.6125	0.8748	0.7409	0.12
Mof_C 	C 	0.7411	0.7679	0.6777	0.028
Mof_C 	C 	0.7411	0.7959	0.6586	-0.037
Mof_C 	C 	0.7715	0.795	0.645	0.111
Mof_C 	C 	0.6277	0.8014	0.665	0.027
Mof_C 	C 	0.6585	0.8443	0.6724	0.058
Mof_C 	C 	0.6833	0.867	0.6809	-0.029
Mof_C 	C 	0.6837	0.9011	0.6733	0.052
Mof_C 	C 	0.6591	0.9125	0.6571	0.15
Mof_C 	C 	0.6343	0.8898	0.6486	-0.036
Mof_C 	C 	0.634	0.8557	0.6562	0.051
Mof_C 	C 	0.5197	0.862	0.6549	0.033
Mof_C 	C 	0.5402	0.8817	0.6665	-0.029
Mof_C 	C 	0.5184	0.8982	0.6801	0.118
Mof_C 	C 	0.5762	0.8758	0.5892	0.04
Mof_C 	C 	0.6254	0.8536	0.5948	0.035
Mof_C 	C 	0.6566	0.8371	0.5989	-0.03
Mof_C 	C 	0.6856	0.8458	0.5857	0.055
Mof_C 	C 	0.6834	0.8711	0.5684	0.131
Mof_C 	C 	0.6521	0.8877	0.5642	-0.065
Mof_C 	C 	0.6232	0.879	0.5774	0.093
Mof_C 	C 	0.5909	0.6182	0.638	0.03
Mof_C 	C 	0.561	0.6163	0.6197	-0.041
Mof_C 	C 	0.5639	0.5887	0.6058	0.113
Mof_C 	C 	0.5152	0.9407	0.587	0.035
Mof_C 	C 	0.5365	0.9495	0.606	-0.045
Mof_C 	C 	0.5196	0.9566	0.6267	0.107
Mof_C 	C 	0.5766	0.872	0.5121	0.038
Mof_C 	C 	0.5903	0.8419	0.5246	-0.052
Mof_C 	C 	0.5965	0.8144	0.5124	0.12
Mof_C 	C 	0.6217	0.9827	0.5316	0.014
Mof_C 	C 	0.6452	0.9687	0.5154	-0.027
Mof_C 	C 	0.6787	0.9816	0.5129	0.032
Mof_Zn	Zn	0.0757	0.1832	0.1621	1.177
Mof_Zn	Zn	0.0758	0.323	0.1274	1.183
Mof_Zn	Zn	0.1738	0.2802	0.2023	1.176
Mof_Zn	Zn	0.0765	0.4265	0.0519	1.19
Mof_Cl	Cl	0.0613	0.275	0.2786	-0.238
Mof_Cl	Cl	0.1523	0.2526	0.0525	-0.213
Mof_Cl	Cl	0.0779	0.3972	0.2281	-0.178
Mof_Cl	Cl	0.2728	0.3303	0.1248	-0.22
Mof_Cl	Cl	0.1586	0.4548	0.1455	-0.21
Mof_Cl	Cl	0.0382	0.4311	0.1994	-0.12
Mof_Cl	Cl	0.2222	0.3638	0.0474	-0.2
Mof_Cl	Cl	0.0327	0.0872	0.0819	-0.174
Mof_Cl	Cl	0.053	0.4686	0.1483	-0.177
Mof_Cl	Cl	0.0911	0.2677	0.0218	-0.194
Mof_N 	N 	0.0271	0.1711	0.1703	-0.261
Mof_N 	N 	0.0987	0.2069	0.1892	-0.293
Mof_N 	N 	0.1387	0.2414	0.2047	-0.271
Mof_N 	N 	0.0749	0.2164	0.1362	-0.289
Mof_N 	N 	0.073	0.2708	0.1234	-0.255
Mof_N 	N 	0.1767	0.3079	0.2324	-0.267
Mof_N 	N 	0.2178	0.2584	0.1951	-0.286
Mof_N 	N 	0.1122	0.3289	0.1529	-0.261
Mof_N 	N 	0.1551	0.3106	0.1777	-0.279
Mof_N 	N 	0.0314	0.3379	0.1365	-0.284
Mof_N 	N 	0.095	0.3969	0.0741	-0.302
Mof_N 	N 	0.0929	0.3488	0.1013	-0.287
Mof_N 	N 	0.103	0.1407	0.1546	-0.27
Mof_N 	N 	0.0293	0.435	0.0648	-0.277
Mof_N 	N 	0.098	0.47	0.0512	-0.293
Mof_N 	N 	0.0743	0.4065	0.0202	-0.282
Mof_C 	C 	0.0209	0.143	0.1853	0.029
Mof_C 	C 	0.0363	0.1167	0.1993	-0.045
Mof_C 	C 	0.0145	0.1002	0.2156	0.014
Mof_C 	C 	0.1296	0.2214	0.186	0.012
Mof_C 	C 	0.0893	0.2173	0.2082	0.086
Mof_C 	C 	0.0592	0.2083	0.22	-0.073
Mof_C 	C 	0.0524	0.2215	0.2424	0.025
Mof_C 	C 	0.0759	0.2437	0.2531	0.113
Mof_C 	C 	0.1061	0.2527	0.2413	-0.058
Mof_C 	C 	0.1128	0.2395	0.2189	0.033
Mof_C 	C 	0.0621	0.2499	0.1411	0.002
Mof_C 	C 	0.0903	0.2564	0.1053	-0.003
Mof_C 	C 	0.1062	0.2603	0.0834	-0.017
Mof_C 	C 	0.1222	0.2323	0.0727	0.139
Mof_C 	C 	0.1221	0.2003	0.0838	0.03
Mof_C 	C 	0.1062	0.1963	0.1056	-0.063
Mof_C 	C 	0.0903	0.2244	0.1164	0.096
Mof_C 	C 	0.1552	0.3365	0.2397	0.039
Mof_C 	C 	0.127	0.3504	0.2269	-0.037
Mof_C 	C 	0.1125	0.3748	0.2409	0.119
Mof_C 	C 	0.2411	0.2679	0.1777	0.028
Mof_C 	C 	0.2411	0.2959	0.1586	-0.037
Mof_C 	C 	0.2715	0.295	0.145	0.111
Mof_C 	C 	0.1277	0.3014	0.165	0.027
Mof_C 	C 	0.1585	0.3443	0.1724	0.058
Mof_C 	C 	0.1833	0.367	0.1809	-0.029
Mof_C 	C 	0.1837	0.4011	0.1733	0.052
Mof_C 	C 	0.1591	0.4125	0.1571	0.15
Mof_C 	C 	0.1343	0.3898	0.1486	-0.036
Mof_C 	C 	0.134	0.3557	0.1562	0.051
Mof_C 	C 	0.0197	0.362	0.1549	0.032
Mof_C 	C 	0.0402	0.3817	0.1665	-0.029
Mof_C 	C 	0.0184	0.3982	0.1801	0.118
Mof_C 	C 	0.0762	0.3758	0.0892	0.04
Mof_C 	C 	0.1254	0.3536	0.0948	0.035
Mof_C 	C 	0.1566	0.3371	0.0989	-0.03
Mof_C 	C 	0.1856	0.3458	0.0857	0.055
Mof_C 	C 	0.1834	0.3711	0.0684	0.131
Mof_C 	C 	0.1521	0.3877	0.0642	-0.065
Mof_C 	C 	0.1232	0.379	0.0774	0.093
Mof_C 	C 	0.0909	0.1182	0.138	0.03
Mof_C 	C 	0.061	0.1163	0.1197	-0.041
Mof_C 	C 	0.0639	0.0887	0.1058	0.113
Mof_C 	C 	0.0152	0.4407	0.087	0.034
Mof_C 	C 	0.0365	0.4495	0.106	-0.045
Mof_C 	C 	0.0196	0.4566	0.1267	0.106
Mof_C 	C 	0.0766	0.372	0.0121	0.038
Mof_C 	C 	0.0903	0.3419	0.0246	-0.052
Mof_C 	C 	0.0965	0.3144	0.0124	0.12
Mof_C 	C 	0.1217	0.4827	0.0316	0.014
Mof_C 	C 	0.1452	0.4687	0.0154	-0.027
Mof_C 	C 	0.1787	0.4816	0.0129	0.031
Mof_Zn	Zn	0.6832	0.5757	0.6621	1.177
Mof_Zn	Zn	0.823	0.5758	0.6274	1.183
Mof_Zn	Zn	0.7802	0.6738	0.7023	1.176
Mof_Zn	Zn	0.9265	0.5765	0.5519	1.19
Mof_Cl	Cl	0.775	0.5613	0.7786	-0.238
Mof_Cl	Cl	0.7526	0.6523	0.5525	-0.213
Mof_Cl	Cl	0.8972	0.5779	0.7281	-0.178
Mof_Cl	Cl	0.8303	0.7728	0.6248	-0.22
Mof_Cl	Cl	0.9548	0.6586	0.6455	-0.21
Mof_Cl	Cl	0.9311	0.5382	0.6994	-0.12
Mof_Cl	Cl	0.8638	0.7222	0.5474	-0.2
Mof_Cl	Cl	0.5872	0.5327	0.5819	-0.173
Mof_Cl	Cl	0.9686	0.553	0.6483	-0.177
Mof_Cl	Cl	0.7677	0.5911	0.5218	-0.194
Mof_N 	N 	0.6711	0.5271	0.6703	-0.261
Mof_N 	N 	0.7069	0.5987	0.6892	-0.293
Mof_N 	N 	0.7414	0.6387	0.7047	-0.271
Mof_N 	N 	0.7164	0.5749	0.6362	-0.289
Mof_N 	N 	0.7708	0.573	0.6234	-0.255
Mof_N 	N 	0.8079	0.6767	0.7324	-0.267
Mof_N 	N 	0.7584	0.7178	0.6951	-0.286
Mof_N 	N 	0.8289	0.6122	0.6529	-0.261
Mof_N 	N 	0.8106	0.6551	0.6777	-0.279
Mof_N 	N 	0.8379	0.5314	0.6365	-0.284
Mof_N 	N 	0.8969	0.595	0.5741	-0.302
Mof_N 	N 	0.8488	0.5929	0.6013	-0.287
Mof_N 	N 	0.6407	0.603	0.6546	-0.27
Mof_N 	N 	0.935	0.5293	0.5648	-0.277
Mof_N 	N 	0.97	0.598	0.5512	-0.293
Mof_N 	N 	0.9065	0.5743	0.5202	-0.282
Mof_C 	C 	0.643	0.5209	0.6853	0.03
Mof_C 	C 	0.6167	0.5363	0.6993	-0.045
Mof_C 	C 	0.6002	0.5145	0.7156	0.015
Mof_C 	C 	0.7214	0.6296	0.686	0.012
Mof_C 	C 	0.7173	0.5893	0.7082	0.086
Mof_C 	C 	0.7083	0.5592	0.72	-0.073
Mof_C 	C 	0.7215	0.5524	0.7424	0.025
Mof_C 	C 	0.7437	0.5759	0.7531	0.113
Mof_C 	C 	0.7527	0.6061	0.7413	-0.058
Mof_C 	C 	0.7395	0.6128	0.7189	0.033
Mof_C 	C 	0.7499	0.5621	0.6411	0.002
Mof_C 	C 	0.7564	0.5903	0.6053	-0.003
Mof_C 	C 	0.7603	0.6062	0.5834	-0.017
Mof_C 	C 	0.7323	0.6222	0.5727	0.139
Mof_C 	C 	0.7003	0.6221	0.5838	0.03
Mof_C 	C 	0.6963	0.6062	0.6056	-0.063
Mof_C 	C 	0.7244	0.5903	0.6164	0.096
Mof_C 	C 	0.8365	0.6552	0.7397	0.039
Mof_C 	C 	0.8504	0.627	0.7269	-0.037
Mof_C 	C 	0.8748	0.6125	0.7409	0.12
Mof_C 	C 	0.7679	0.7411	0.6777	0.028
Mof_C 	C 	0.7959	0.7411	0.6586	-0.037
Mof_C 	C 	0.795	0.7715	0.645	0.111
Mof_C 	C 	0.8014	0.6277	0.665	0.027
Mof_C 	C 	0.8443	0.6585	0.6724	0.058
Mof_C 	C 	0.867	0.6833	0.6809	-0.029
Mof_C 	C 	0.9011	0.6837	0.6733	0.052
Mof_C 	C 	0.9125	0.6591	0.6571	0.15
Mof_C 	C 	0.8898	0.6343	0.6486	-0.036
Mof_C 	C 	0.8557	0.634	0.6562	0.051
Mof_C 	C 	0.862	0.5197	0.6549	0.033
Mof_C 	C 	0.8817	0.5402	0.6665	-0.029
Mof_C 	C 	0.8982	0.5184	0.6801	0.118
Mof_C 	C 	0.8758	0.5762	0.5892	0.04
Mof_C 	C 	0.8536	0.6254	0.5948	0.035
Mof_C 	C 	0.8371	0.6566	0.5989	-0.03
Mof_C 	C 	0.8458	0.6856	0.5857	0.055
Mof_C 	C 	0.8711	0.6834	0.5684	0.131
Mof_C 	C 	0.8877	0.6521	0.5642	-0.065
Mof_C 	C 	0.879	0.6232	0.5774	0.093
Mof_C 	C 	0.6182	0.5909	0.638	0.03
Mof_C 	C 	0.6163	0.561	0.6197	-0.041
Mof_C 	C 	0.5887	0.5639	0.6058	0.113
Mof_C 	C 	0.9407	0.5152	0.587	0.035
Mof_C 	C 	0.9495	0.5365	0.606	-0.045
Mof_C 	C 	0.9566	0.5196	0.6267	0.107
Mof_C 	C 	0.872	0.5766	0.5121	0.038
Mof_C 	C 	0.8419	0.5903	0.5246	-0.052
Mof_C 	C 	0.8144	0.5965	0.5124	0.12
Mof_C 	C 	0.9827	0.6217	0.5316	0.014
Mof_C 	C 	0.9687	0.6452	0.5154	-0.027
Mof_C 	C 	0.9816	0.6787	0.5129	0.032
Mof_Zn	Zn	0.1832	0.0757	0.1621	1.177
Mof_Zn	Zn	0.323	0.0758	0.1274	1.183
Mof_Zn	Zn	0.2802	0.1738	0.2023	1.176
Mof_Zn	Zn	0.4265	0.0765	0.0519	1.19
Mof_Cl	Cl	0.275	0.0613	0.2786	-0.238
Mof_Cl	Cl	0.2526	0.1523	0.0525	-0.213
Mof_Cl	Cl	0.3972	0.0779	0.2281	-0.178
Mof_Cl	Cl	0.3303	0.2728	0.1248	-0.22
Mof_Cl	Cl	0.4548	0.1586	0.1455	-0.21
Mof_Cl	Cl	0.4311	0.0382	0.1994	-0.12
Mof_Cl	Cl	0.3638	0.2222	0.0474	-0.2
Mof_Cl	Cl	0.0872	0.0327	0.0819	-0.174
Mof_Cl	Cl	0.4686	0.053	0.1483	-0.177
Mof_Cl	Cl	0.2677	0.0911	0.0218	-0.194
Mof_N 	N 	0.1711	0.0271	0.1703	-0.261
Mof_N 	N 	0.2069	0.0987	0.1892	-0.293
Mof_N 	N 	0.2414	0.1387	0.2047	-0.271
Mof_N 	N 	0.2164	0.0749	0.1362	-0.289
Mof_N 	N 	0.2708	0.073	0.1234	-0.255
Mof_N 	N 	0.3079	0.1767	0.2324	-0.267
Mof_N 	N 	0.2584	0.2178	0.1951	-0.286
Mof_N 	N 	0.3289	0.1122	0.1529	-0.261
Mof_N 	N 	0.3106	0.1551	0.1777	-0.279
Mof_N 	N 	0.3379	0.0314	0.1365	-0.284
Mof_N 	N 	0.3969	0.095	0.0741	-0.302
Mof_N 	N 	0.3488	0.0929	0.1013	-0.287
Mof_N 	N 	0.1407	0.103	0.1546	-0.27
Mof_N 	N 	0.435	0.0293	0.0648	-0.277
Mof_N 	N 	0.47	0.098	0.0512	-0.293
Mof_N 	N 	0.4065	0.0743	0.0202	-0.282
Mof_C 	C 	0.143	0.0209	0.1853	0.029
Mof_C 	C 	0.1167	0.0363	0.1993	-0.045
Mof_C 	C 	0.1002	0.0145	0.2156	0.014
Mof_C 	C 	0.2214	0.1296	0.186	0.012
Mof_C 	C 	0.2173	0.0893	0.2082	0.086
Mof_C 	C 	0.2083	0.0592	0.22	-0.073
Mof_C 	C 	0.2215	0.0524	0.2424	0.025
Mof_C 	C 	0.2437	0.0759	0.2531	0.113
Mof_C 	C 	0.2527	0.1061	0.2413	-0.058
Mof_C 	C 	0.2395	0.1128	0.2189	0.033
Mof_C 	C 	0.2499	0.0621	0.1411	0.002
Mof_C 	C 	0.2564	0.0903	0.1053	-0.003
Mof_C 	C 	0.2603	0.1062	0.0834	-0.017
Mof_C 	C 	0.2323	0.1222	0.0727	0.139
Mof_C 	C 	0.2003	0.1221	0.0838	0.03
Mof_C 	C 	0.1963	0.1062	0.1056	-0.063
Mof_C 	C 	0.2244	0.0903	0.1164	0.096
Mof_C 	C 	0.3365	0.1552	0.2397	0.039
Mof_C 	C 	0.3504	0.127	0.2269	-0.037
Mof_C 	C 	0.3748	0.1125	0.2409	0.119
Mof_C 	C 	0.2679	0.2411	0.1777	0.028
Mof_C 	C 	0.2959	0.2411	0.1586	-0.037
Mof_C 	C 	0.295	0.2715	0.145	0.111
Mof_C 	C 	0.3014	0.1277	0.165	0.027
Mof_C 	C 	0.3443	0.1585	0.1724	0.058
Mof_C 	C 	0.367	0.1833	0.1809	-0.029
Mof_C 	C 	0.4011	0.1837	0.1733	0.052
Mof_C 	C 	0.4125	0.1591	0.1571	0.15
Mof_C 	C 	0.3898	0.1343	0.1486	-0.036
Mof_C 	C 	0.3557	0.134	0.1562	0.051
Mof_C 	C 	0.362	0.0197	0.1549	0.032
Mof_C 	C 	0.3817	0.0402	0.1665	-0.029
Mof_C 	C 	0.3982	0.0184	0.1801	0.118
Mof_C 	C 	0.3758	0.0762	0.0892	0.04
Mof_C 	C 	0.3536	0.1254	0.0948	0.035
Mof_C 	C 	0.3371	0.1566	0.0989	-0.03
Mof_C 	C 	0.3458	0.1856	0.0857	0.055
Mof_C 	C 	0.3711	0.1834	0.0684	0.131
Mof_C 	C 	0.3877	0.1521	0.0642	-0.065
Mof_C 	C 	0.379	0.1232	0.0774	0.093
Mof_C 	C 	0.1182	0.0909	0.138	0.03
Mof_C 	C 	0.1163	0.061	0.1197	-0.041
Mof_C 	C 	0.0887	0.0639	0.1058	0.113
Mof_C 	C 	0.4407	0.0152	0.087	0.034
Mof_C 	C 	0.4495	0.0365	0.106	-0.045
Mof_C 	C 	0.4566	0.0196	0.1267	0.106
Mof_C 	C 	0.372	0.0766	0.0121	0.038
Mof_C 	C 	0.3419	0.0903	0.0246	-0.052
Mof_C 	C 	0.3144	0.0965	0.0124	0.12
Mof_C 	C 	0.4827	0.1217	0.0316	0.014
Mof_C 	C 	0.4687	0.1452	0.0154	-0.027
Mof_C 	C 	0.4816	0.1787	0.0129	0.031
Mof_Zn	Zn	0.3168	0.4243	0.6621	1.177
Mof_Zn	Zn	0.177	0.4242	0.6274	1.183
Mof_Zn	Zn	0.2198	0.3262	0.7023	1.176
Mof_Zn	Zn	0.0735	0.4235	0.5519	1.19
Mof_Cl	Cl	0.225	0.4387	0.7786	-0.238
Mof_Cl	Cl	0.2474	0.3477	0.5525	-0.213
Mof_Cl	Cl	0.1028	0.4221	0.7281	-0.178
Mof_Cl	Cl	0.1697	0.2272	0.6248	-0.22
Mof_Cl	Cl	0.0452	0.3414	0.6455	-0.21
Mof_Cl	Cl	0.0689	0.4618	0.6994	-0.12
Mof_Cl	Cl	0.1362	0.2778	0.5474	-0.2
Mof_Cl	Cl	0.4128	0.4673	0.5819	-0.173
Mof_Cl	Cl	0.0314	0.447	0.6483	-0.177
Mof_Cl	Cl	0.2323	0.4089	0.5218	-0.194
Mof_N 	N 	0.3289	0.4729	0.6703	-0.261
Mof_N 	N 	0.2931	0.4013	0.6892	-0.293
Mof_N 	N 	0.2586	0.3613	0.7047	-0.271
Mof_N 	N 	0.2836	0.4251	0.6362	-0.289
Mof_N 	N 	0.2292	0.427	0.6234	-0.255
Mof_N 	N 	0.1921	0.3233	0.7324	-0.267
Mof_N 	N 	0.2416	0.2822	0.6951	-0.286
Mof_N 	N 	0.1711	0.3878	0.6529	-0.261
Mof_N 	N 	0.1894	0.3449	0.6777	-0.279
Mof_N 	N 	0.1621	0.4686	0.6365	-0.284
Mof_N 	N 	0.1031	0.405	0.5741	-0.302
Mof_N 	N 	0.1512	0.4071	0.6013	-0.287
Mof_N 	N 	0.3593	0.397	0.6546	-0.27
Mof_N 	N 	0.065	0.4707	0.5648	-0.277
Mof_N 	N 	0.03	0.402	0.5512	-0.293
Mof_N 	N 	0.0935	0.4257	0.5202	-0.282
Mof_C 	C 	0.357	0.4791	0.6853	0.03
Mof_C 	C 	0.3833	0.4637	0.6993	-0.045
Mof_C 	C 	0.3998	0.4855	0.7156	0.015
Mof_C 	C 	0.2786	0.3704	0.686	0.012
Mof_C 	C 	0.2827	0.4107	0.7082	0.086
Mof_C 	C 	0.2917	0.4408	0.72	-0.073
Mof_C 	C 	0.2785	0.4476	0.7424	0.025
Mof_C 	C 	0.2563	0.4241	0.7531	0.113
Mof_C 	C 	0.2473	0.3939	0.7413	-0.058
Mof_C 	C 	0.2605	0.3872	0.7189	0.033
Mof_C 	C 	0.2501	0.4379	0.6411	0.002
Mof_C 	C 	0.2436	0.4097	0.6053	-0.003
Mof_C 	C 	0.2397	0.3938	0.5834	-0.017
Mof_C 	C 	0.2677	0.3778	0.5727	0.139
Mof_C 	C 	0.2997	0.3779	0.5838	0.03
Mof_C 	C 	0.3037	0.3938	0.6056	-0.063
Mof_C 	C 	0.2756	0.4097	0.6164	0.096
Mof_C 	C 	0.1635	0.3448	0.7397	0.039
Mof_C 	C 	0.1496	0.373	0.7269	-0.037
Mof_C 	C 	0.1252	0.3875	0.7409	0.119
Mof_C 	C 	0.2321	0.2589	0.6777	0.028
Mof_C 	C 	0.2041	0.2589	0.6586	-0.037
Mof_C 	C 	0.205	0.2285	0.645	0.111
Mof_C 	C 	0.1986	0.3723	0.665	0.027
Mof_C 	C 	0.1557	0.3415	0.6724	0.058
Mof_C 	C 	0.133	0.3167	0.6809	-0.029
Mof_C 	C 	0.0989	0.3163	0.6733	0.052
Mof_C 	C 	0.0875	0.3409	0.6571	0.15
Mof_C 	C 	0.1102	0.3657	0.6486	-0.036
Mof_C 	C 	0.1443	0.366	0.6562	0.051
Mof_C 	C 	0.138	0.4803	0.6549	0.033
Mof_C 	C 	0.1183	0.4598	0.6665	-0.029
Mof_C 	C 	0.1018	0.4816	0.6801	0.118
Mof_C 	C 	0.1242	0.4238	0.5892	0.04
Mof_C 	C 	0.1464	0.3746	0.5948	0.035
Mof_C 	C 	0.1629	0.3434	0.5989	-0.03
Mof_C 	C 	0.1542	0.3144	0.5857	0.055
Mof_C 	C 	0.1289	0.3166	0.5684	0.131
Mof_C 	C 	0.1123	0.3479	0.5642	-0.065
Mof_C 	C 	0.121	0.3768	0.5774	0.093
Mof_C 	C 	0.3818	0.4091	0.638	0.03
Mof_C 	C 	0.3837	0.439	0.6197	-0.041
Mof_C 	C 	0.4113	0.4361	0.6058	0.113
Mof_C 	C 	0.0593	0.4848	0.587	0.035
Mof_C 	C 	0.0505	0.4635	0.606	-0.045
Mof_C 	C 	0.0434	0.4804	0.6267	0.107
Mof_C 	C 	0.128	0.4234	0.5121	0.038
Mof_C 	C 	0.1581	0.4097	0.5246	-0.052
Mof_C 	C 	0.1856	0.4035	0.5124	0.12
Mof_C 	C 	0.0173	0.3783	0.5316	0.013
Mof_C 	C 	0.0313	0.3548	0.5154	-0.027
Mof_C 	C 	0.0184	0.3213	0.5129	0.031
Mof_Zn	Zn	0.8168	0.9243	0.1621	1.177
Mof_Zn	Zn	0.677	0.9242	0.1274	1.183
Mof_Zn	Zn	0.7198	0.8262	0.2023	1.176
Mof_Zn	Zn	0.5735	0.9235	0.0519	1.19
Mof_Cl	Cl	0.725	0.9387	0.2786	-0.237
Mof_Cl	Cl	0.7474	0.8477	0.0525	-0.213
Mof_Cl	Cl	0.6028	0.9221	0.2281	-0.178
Mof_Cl	Cl	0.6697	0.7272	0.1248	-0.22
Mof_Cl	Cl	0.5452	0.8414	0.1455	-0.21
Mof_Cl	Cl	0.5689	0.9618	0.1994	-0.12
Mof_Cl	Cl	0.6362	0.7778	0.0474	-0.2
Mof_Cl	Cl	0.9128	0.9673	0.0819	-0.173
Mof_Cl	Cl	0.5314	0.947	0.1483	-0.177
Mof_Cl	Cl	0.7323	0.9089	0.0218	-0.194
Mof_N 	N 	0.8289	0.9729	0.1703	-0.261
Mof_N 	N 	0.7931	0.9013	0.1892	-0.293
Mof_N 	N 	0.7586	0.8613	0.2047	-0.271
Mof_N 	N 	0.7836	0.9251	0.1362	-0.289
Mof_N 	N 	0.7292	0.927	0.1234	-0.255
Mof_N 	N 	0.6921	0.8233	0.2324	-0.267
Mof_N 	N 	0.7416	0.7822	0.1951	-0.286
Mof_N 	N 	0.6711	0.8878	0.1529	-0.261
Mof_N 	N 	0.6894	0.8449	0.1777	-0.279
Mof_N 	N 	0.6621	0.9686	0.1365	-0.284
Mof_N 	N 	0.6031	0.905	0.0741	-0.302
Mof_N 	N 	0.6512	0.9071	0.1013	-0.287
Mof_N 	N 	0.8593	0.897	0.1546	-0.27
Mof_N 	N 	0.565	0.9707	0.0648	-0.277
Mof_N 	N 	0.53	0.902	0.0512	-0.293
Mof_N 	N 	0.5935	0.9257	0.0202	-0.282
Mof_C 	C 	0.857	0.9791	0.1853	0.03
Mof_C 	C 	0.8833	0.9637	0.1993	-0.045
Mof_C 	C 	0.8998	0.9855	0.2156	0.016
Mof_C 	C 	0.7786	0.8704	0.186	0.012
Mof_C 	C 	0.7827	0.9107	0.2082	0.086
Mof_C 	C 	0.7917	0.9408	0.22	-0.073
Mof_C 	C 	0.7785	0.9476	0.2424	0.025
Mof_C 	C 	0.7563	0.9241	0.2531	0.113
Mof_C 	C 	0.7473	0.8939	0.2413	-0.058
Mof_C 	C 	0.7605	0.8872	0.2189	0.033
Mof_C 	C 	0.7501	0.9379	0.1411	0.002
Mof_C 	C 	0.7436	0.9097	0.1053	-0.003
Mof_C 	C 	0.7397	0.8938	0.0834	-0.017
Mof_C 	C 	0.7677	0.8778	0.0727	0.139
Mof_C 	C 	0.7997	0.8779	0.0838	0.03
Mof_C 	C 	0.8037	0.8938	0.1056	-0.063
Mof_C 	C 	0.7756	0.9097	0.1164	0.096
Mof_C 	C 	0.6635	0.8448	0.2397	0.039
Mof_C 	C 	0.6496	0.873	0.2269	-0.037
Mof_C 	C 	0.6252	0.8875	0.2409	0.119
Mof_C 	C 	0.7321	0.7589	0.1777	0.028
Mof_C 	C 	0.7041	0.7589	0.1586	-0.037
Mof_C 	C 	0.705	0.7285	0.145	0.111
Mof_C 	C 	0.6986	0.8723	0.165	0.027
Mof_C 	C 	0.6557	0.8415	0.1724	0.058
Mof_C 	C 	0.633	0.8167	0.1809	-0.029
Mof_C 	C 	0.5989	0.8163	0.1733	0.052
Mof_C 	C 	0.5875	0.8409	0.1571	0.15
Mof_C 	C 	0.6102	0.8657	0.1486	-0.036
Mof_C 	C 	0.6443	0.866	0.1562	0.051
Mof_C 	C 	0.638	0.9803	0.1549	0.033
Mof_C 	C 	0.6183	0.9598	0.1665	-0.029
Mof_C 	C 	0.6018	0.9816	0.1801	0.119
Mof_C 	C 	0.6242	0.9238	0.0892	0.04
Mof_C 	C 	0.6464	0.8746	0.0948	0.035
Mof_C 	C 	0.6629	0.8434	0.0989	-0.03
Mof_C 	C 	0.6542	0.8144	0.0857	0.055
Mof_C 	C 	0.6289	0.8166	0.0684	0.131
Mof_C 	C 	0.6123	0.8479	0.0642	-0.065
Mof_C 	C 	0.621	0.8768	0.0774	0.093
Mof_C 	C 	0.8818	0.9091	0.138	0.03
Mof_C 	C 	0.8837	0.939	0.1197	-0.041
Mof_C 	C 	0.9113	0.9361	0.1058	0.113
Mof_C 	C 	0.5593	0.9848	0.087	0.036
Mof_C 	C 	0.5505	0.9635	0.106	-0.045
Mof_C 	C 	0.5434	0.9804	0.1267	0.107
Mof_C 	C 	0.628	0.9234	0.0121	0.038
Mof_C 	C 	0.6581	0.9097	0.0246	-0.052
Mof_C 	C 	0.6856	0.9035	0.0124	0.12
Mof_C 	C 	0.5173	0.8783	0.0316	0.014
Mof_C 	C 	0.5313	0.8548	0.0154	-0.027
Mof_C 	C 	0.5184	0.8213	0.0129	0.031
Mof_Zn	Zn	0.4243	0.6832	0.6621	1.177
Mof_Zn	Zn	0.4242	0.823	0.6274	1.183
Mof_Zn	Zn	0.3262	0.7802	0.7023	1.176
Mof_Zn	Zn	0.4235	0.9265	0.5519	1.19
Mof_Cl	Cl	0.4387	0.775	0.7786	-0.238
Mof_Cl	Cl	0.3477	0.7526	0.5525	-0.213
Mof_Cl	Cl	0.4221	0.8972	0.7281	-0.178
Mof_Cl	Cl	0.2272	0.8303	0.6248	-0.22
Mof_Cl	Cl	0.3414	0.9548	0.6455	-0.21
Mof_Cl	Cl	0.4618	0.9311	0.6994	-0.12
Mof_Cl	Cl	0.2778	0.8638	0.5474	-0.2
Mof_Cl	Cl	0.4673	0.5872	0.5819	-0.173
Mof_Cl	Cl	0.447	0.9686	0.6483	-0.177
Mof_Cl	Cl	0.4089	0.7677	0.5218	-0.194
Mof_N 	N 	0.4729	0.6711	0.6703	-0.261
Mof_N 	N 	0.4013	0.7069	0.6892	-0.293
Mof_N 	N 	0.3613	0.7414	0.7047	-0.271
Mof_N 	N 	0.4251	0.7164	0.6362	-0.289
Mof_N 	N 	0.427	0.7708	0.6234	-0.255
Mof_N 	N 	0.3233	0.8079	0.7324	-0.267
Mof_N 	N 	0.2822	0.7584	0.6951	-0.286
Mof_N 	N 	0.3878	0.8289	0.6529	-0.261
Mof_N 	N 	0.3449	0.8106	0.6777	-0.279
Mof_N 	N 	0.4686	0.8379	0.6365	-0.284
Mof_N 	N 	0.405	0.8969	0.5741	-0.302
Mof_N 	N 	0.4071	0.8488	0.6013	-0.287
Mof_N 	N 	0.397	0.6407	0.6546	-0.27
Mof_N 	N 	0.4707	0.935	0.5648	-0.277
Mof_N 	N 	0.402	0.97	0.5512	-0.293
Mof_N 	N 	0.4257	0.9065	0.5202	-0.282
Mof_C 	C 	0.4791	0.643	0.6853	0.03
Mof_C 	C 	0.4637	0.6167	0.6993	-0.045
Mof_C 	C 	0.4855	0.6002	0.7156	0.015
Mof_C 	C 	0.3704	0.7214	0.686	0.012
Mof_C 	C 	0.4107	0.7173	0.7082	0.086
Mof_C 	C 	0.4408	0.7083	0.72	-0.073
Mof_C 	C 	0.4476	0.7215	0.7424	0.025
Mof_C 	C 	0.4241	0.7437	0.7531	0.113
Mof_C 	C 	0.3939	0.7527	0.7413	-0.058
Mof_C 	C 	0.3872	0.7395	0.7189	0.033
Mof_C 	C 	0.4379	0.7499	0.6411	0.002
Mof_C 	C 	0.4097	0.7564	0.6053	-0.003
Mof_C 	C 	0.3938	0.7603	0.5834	-0.017
Mof_C 	C 	0.3778	0.7323	0.5727	0.139
Mof_C 	C 	0.3779	0.7003	0.5838	0.03
Mof_C 	C 	0.3938	0.6963	0.6056	-0.063
Mof_C 	C 	0.4097	0.7244	0.6164	0.096
Mof_C 	C 	0.3448	0.8365	0.7397	0.039
Mof_C 	C 	0.373	0.8504	0.7269	-0.037
Mof_C 	C 	0.3875	0.8748	0.7409	0.12
Mof_C 	C 	0.2589	0.7679	0.6777	0.028
Mof_C 	C 	0.2589	0.7959	0.6586	-0.037
Mof_C 	C 	0.2285	0.795	0.645	0.111
Mof_C 	C 	0.3723	0.8014	0.665	0.027
Mof_C 	C 	0.3415	0.8443	0.6724	0.058
Mof_C 	C 	0.3167	0.867	0.6809	-0.029
Mof_C 	C 	0.3163	0.9011	0.6733	0.052
Mof_C 	C 	0.3409	0.9125	0.6571	0.15
Mof_C 	C 	0.3657	0.8898	0.6486	-0.036
Mof_C 	C 	0.366	0.8557	0.6562	0.051
Mof_C 	C 	0.4803	0.862	0.6549	0.033
Mof_C 	C 	0.4598	0.8817	0.6665	-0.029
Mof_C 	C 	0.4816	0.8982	0.6801	0.118
Mof_C 	C 	0.4238	0.8758	0.5892	0.04
Mof_C 	C 	0.3746	0.8536	0.5948	0.035
Mof_C 	C 	0.3434	0.8371	0.5989	-0.03
Mof_C 	C 	0.3144	0.8458	0.5857	0.055
Mof_C 	C 	0.3166	0.8711	0.5684	0.131
Mof_C 	C 	0.3479	0.8877	0.5642	-0.065
Mof_C 	C 	0.3768	0.879	0.5774	0.093
Mof_C 	C 	0.4091	0.6182	0.638	0.03
Mof_C 	C 	0.439	0.6163	0.6197	-0.041
Mof_C 	C 	0.4361	0.5887	0.6058	0.113
Mof_C 	C 	0.4848	0.9407	0.587	0.035
Mof_C 	C 	0.4635	0.9495	0.606	-0.045
Mof_C 	C 	0.4804	0.9566	0.6267	0.107
Mof_C 	C 	0.4234	0.872	0.5121	0.038
Mof_C 	C 	0.4097	0.8419	0.5246	-0.052
Mof_C 	C 	0.4035	0.8144	0.5124	0.12
Mof_C 	C 	0.3783	0.9827	0.5316	0.014
Mof_C 	C 	0.3548	0.9687	0.5154	-0.027
Mof_C 	C 	0.3213	0.9816	0.5129	0.032
Mof_Zn	Zn	0.9243	0.1832	0.1621	1.177
Mof_Zn	Zn	0.9242	0.323	0.1274	1.183
Mof_Zn	Zn	0.8262	0.2802	0.2023	1.176
Mof_Zn	Zn	0.9235	0.4265	0.0519	1.19
Mof_Cl	Cl	0.9387	0.275	0.2786	-0.238
Mof_Cl	Cl	0.8477	0.2526	0.0525	-0.213
Mof_Cl	Cl	0.9221	0.3972	0.2281	-0.178
Mof_Cl	Cl	0.7272	0.3303	0.1248	-0.22
Mof_Cl	Cl	0.8414	0.4548	0.1455	-0.21
Mof_Cl	Cl	0.9618	0.4311	0.1994	-0.12
Mof_Cl	Cl	0.7778	0.3638	0.0474	-0.2
Mof_Cl	Cl	0.9673	0.0872	0.0819	-0.173
Mof_Cl	Cl	0.947	0.4686	0.1483	-0.177
Mof_Cl	Cl	0.9089	0.2677	0.0218	-0.194
Mof_N 	N 	0.9729	0.1711	0.1703	-0.261
Mof_N 	N 	0.9013	0.2069	0.1892	-0.293
Mof_N 	N 	0.8613	0.2414	0.2047	-0.271
Mof_N 	N 	0.9251	0.2164	0.1362	-0.289
Mof_N 	N 	0.927	0.2708	0.1234	-0.255
Mof_N 	N 	0.8233	0.3079	0.2324	-0.267
Mof_N 	N 	0.7822	0.2584	0.1951	-0.286
Mof_N 	N 	0.8878	0.3289	0.1529	-0.261
Mof_N 	N 	0.8449	0.3106	0.1777	-0.279
Mof_N 	N 	0.9686	0.3379	0.1365	-0.284
Mof_N 	N 	0.905	0.3969	0.0741	-0.302
Mof_N 	N 	0.9071	0.3488	0.1013	-0.287
Mof_N 	N 	0.897	0.1407	0.1546	-0.27
Mof_N 	N 	0.9707	0.435	0.0648	-0.277
Mof_N 	N 	0.902	0.47	0.0512	-0.293
Mof_N 	N 	0.9257	0.4065	0.0202	-0.282
Mof_C 	C 	0.9791	0.143	0.1853	0.03
Mof_C 	C 	0.9637	0.1167	0.1993	-0.046
Mof_C 	C 	0.9855	0.1002	0.2156	0.016
Mof_C 	C 	0.8704	0.2214	0.186	0.012
Mof_C 	C 	0.9107	0.2173	0.2082	0.086
Mof_C 	C 	0.9408	0.2083	0.22	-0.073
Mof_C 	C 	0.9476	0.2215	0.2424	0.025
Mof_C 	C 	0.9241	0.2437	0.2531	0.113
Mof_C 	C 	0.8939	0.2527	0.2413	-0.058
Mof_C 	C 	0.8872	0.2395	0.2189	0.033
Mof_C 	C 	0.9379	0.2499	0.1411	0.002
Mof_C 	C 	0.9097	0.2564	0.1053	-0.003
Mof_C 	C 	0.8938	0.2603	0.0834	-0.017
Mof_C 	C 	0.8778	0.2323	0.0727	0.139
Mof_C 	C 	0.8779	0.2003	0.0838	0.03
Mof_C 	C 	0.8938	0.1963	0.1056	-0.063
Mof_C 	C 	0.9097	0.2244	0.1164	0.096
Mof_C 	C 	0.8448	0.3365	0.2397	0.039
Mof_C 	C 	0.873	0.3504	0.2269	-0.037
Mof_C 	C 	0.8875	0.3748	0.2409	0.12
Mof_C 	C 	0.7589	0.2679	0.1777	0.028
Mof_C 	C 	0.7589	0.2959	0.1586	-0.037
Mof_C 	C 	0.7285	0.295	0.145	0.111
Mof_C 	C 	0.8723	0.3014	0.165	0.027
Mof_C 	C 	0.8415	0.3443	0.1724	0.058
Mof_C 	C 	0.8167	0.367	0.1809	-0.029
Mof_C 	C 	0.8163	0.4011	0.1733	0.052
Mof_C 	C 	0.8409	0.4125	0.1571	0.15
Mof_C 	C 	0.8657	0.3898	0.1486	-0.036
Mof_C 	C 	0.866	0.3557	0.1562	0.051
Mof_C 	C 	0.9803	0.362	0.1549	0.033
Mof_C 	C 	0.9598	0.3817	0.1665	-0.029
Mof_C 	C 	0.9816	0.3982	0.1801	0.119
Mof_C 	C 	0.9238	0.3758	0.0892	0.04
Mof_C 	C 	0.8746	0.3536	0.0948	0.035
Mof_C 	C 	0.8434	0.3371	0.0989	-0.03
Mof_C 	C 	0.8144	0.3458	0.0857	0.055
Mof_C 	C 	0.8166	0.3711	0.0684	0.131
Mof_C 	C 	0.8479	0.3877	0.0642	-0.065
Mof_C 	C 	0.8768	0.379	0.0774	0.093
Mof_C 	C 	0.9091	0.1182	0.138	0.03
Mof_C 	C 	0.939	0.1163	0.1197	-0.041
Mof_C 	C 	0.9361	0.0887	0.1058	0.113
Mof_C 	C 	0.9848	0.4407	0.087	0.036
Mof_C 	C 	0.9635	0.4495	0.106	-0.045
Mof_C 	C 	0.9804	0.4566	0.1267	0.107
Mof_C 	C 	0.9234	0.372	0.0121	0.038
Mof_C 	C 	0.9097	0.3419	0.0246	-0.052
Mof_C 	C 	0.9035	0.3144	0.0124	0.12
Mof_C 	C 	0.8783	0.4827	0.0316	0.014
Mof_C 	C 	0.8548	0.4687	0.0154	-0.027
Mof_C 	C 	0.8213	0.4816	0.0129	0.031
Mof_Zn	Zn	0.5757	0.3168	0.6621	1.177
Mof_Zn	Zn	0.5758	0.177	0.6274	1.183
Mof_Zn	Zn	0.6738	0.2198	0.7023	1.176
Mof_Zn	Zn	0.5765	0.0735	0.5519	1.19
Mof_Cl	Cl	0.5613	0.225	0.7786	-0.238
Mof_Cl	Cl	0.6523	0.2474	0.5525	-0.213
Mof_Cl	Cl	0.5779	0.1028	0.7281	-0.178
Mof_Cl	Cl	0.7728	0.1697	0.6248	-0.22
Mof_Cl	Cl	0.6586	0.0452	0.6455	-0.21
Mof_Cl	Cl	0.5382	0.0689	0.6994	-0.12
Mof_Cl	Cl	0.7222	0.1362	0.5474	-0.2
Mof_Cl	Cl	0.5327	0.4128	0.5819	-0.173
Mof_Cl	Cl	0.553	0.0314	0.6483	-0.177
Mof_Cl	Cl	0.5911	0.2323	0.5218	-0.194
Mof_N 	N 	0.5271	0.3289	0.6703	-0.261
Mof_N 	N 	0.5987	0.2931	0.6892	-0.293
Mof_N 	N 	0.6387	0.2586	0.7047	-0.271
Mof_N 	N 	0.5749	0.2836	0.6362	-0.289
Mof_N 	N 	0.573	0.2292	0.6234	-0.255
Mof_N 	N 	0.6767	0.1921	0.7324	-0.267
Mof_N 	N 	0.7178	0.2416	0.6951	-0.286
Mof_N 	N 	0.6122	0.1711	0.6529	-0.261
Mof_N 	N 	0.6551	0.1894	0.6777	-0.279
Mof_N 	N 	0.5314	0.1621	0.6365	-0.284
Mof_N 	N 	0.595	0.1031	0.5741	-0.302
Mof_N 	N 	0.5929	0.1512	0.6013	-0.287
Mof_N 	N 	0.603	0.3593	0.6546	-0.27
Mof_N 	N 	0.5293	0.065	0.5648	-0.277
Mof_N 	N 	0.598	0.03	0.5512	-0.293
Mof_N 	N 	0.5743	0.0935	0.5202	-0.282
Mof_C 	C 	0.5209	0.357	0.6853	0.03
Mof_C 	C 	0.5363	0.3833	0.6993	-0.045
Mof_C 	C 	0.5145	0.3998	0.7156	0.015
Mof_C 	C 	0.6296	0.2786	0.686	0.012
Mof_C 	C 	0.5893	0.2827	0.7082	0.086
Mof_C 	C 	0.5592	0.2917	0.72	-0.073
Mof_C 	C 	0.5524	0.2785	0.7424	0.025
Mof_C 	C 	0.5759	0.2563	0.7531	0.113
Mof_C 	C 	0.6061	0.2473	0.7413	-0.058
Mof_C 	C 	0.6128	0.2605	0.7189	0.033
Mof_C 	C 	0.5621	0.2501	0.6411	0.002
Mof_C 	C 	0.5903	0.2436	0.6053	-0.003
Mof_C 	C 	0.6062	0.2397	0.5834	-0.017
Mof_C 	C 	0.6222	0.2677	0.5727	0.139
Mof_C 	C 	0.6221	0.2997	0.5838	0.03
Mof_C 	C 	0.6062	0.3037	0.6056	-0.063
Mof_C 	C 	0.5903	0.2756	0.6164	0.096
Mof_C 	C 	0.6552	0.1635	0.7397	0.039
Mof_C 	C 	0.627	0.1496	0.7269	-0.037
Mof_C 	C 	0.6125	0.1252	0.7409	0.119
Mof_C 	C 	0.7411	0.2321	0.6777	0.028
Mof_C 	C 	0.7411	0.2041	0.6586	-0.037
Mof_C 	C 	0.7715	0.205	0.645	0.111
Mof_C 	C 	0.6277	0.1986	0.665	0.027
Mof_C 	C 	0.6585	0.1557	0.6724	0.058
Mof_C 	C 	0.6833	0.133	0.6809	-0.029
Mof_C 	C 	0.6837	0.0989	0.6733	0.052
Mof_C 	C 	0.6591	0.0875	0.6571	0.15
Mof_C 	C 	0.6343	0.1102	0.6486	-0.036
Mof_C 	C 	0.634	0.1443	0.6562	0.051
Mof_C 	C 	0.5197	0.138	0.6549	0.033
Mof_C 	C 	0.5402	0.1183	0.6665	-0.029
Mof_C 	C 	0.5184	0.1018	0.6801	0.118
Mof_C 	C 	0.5762	0.1242	0.5892	0.04
Mof_C 	C 	0.6254	0.1464	0.5948	0.035
Mof_C 	C 	0.6566	0.1629	0.5989	-0.03
Mof_C 	C 	0.6856	0.1542	0.5857	0.055
Mof_C 	C 	0.6834	0.1289	0.5684	0.131
Mof_C 	C 	0.6521	0.1123	0.5642	-0.065
Mof_C 	C 	0.6232	0.121	0.5774	0.093
Mof_C 	C 	0.5909	0.3818	0.638	0.03
Mof_C 	C 	0.561	0.3837	0.6197	-0.041
Mof_C 	C 	0.5639	0.4113	0.6058	0.113
Mof_C 	C 	0.5152	0.0593	0.587	0.035
Mof_C 	C 	0.5365	0.0505	0.606	-0.045
Mof_C 	C 	0.5196	0.0434	0.6267	0.107
Mof_C 	C 	0.5766	0.128	0.5121	0.038
Mof_C 	C 	0.5903	0.1581	0.5246	-0.052
Mof_C 	C 	0.5965	0.1856	0.5124	0.12
Mof_C 	C 	0.6217	0.0173	0.5316	0.013
Mof_C 	C 	0.6452	0.0313	0.5154	-0.027
Mof_C 	C 	0.6787	0.0184	0.5129	0.031
Mof_Zn	Zn	0.0757	0.8168	0.1621	1.177
Mof_Zn	Zn	0.0758	0.677	0.1274	1.183
Mof_Zn	Zn	0.1738	0.7198	0.2023	1.176
Mof_Zn	Zn	0.0765	0.5735	0.0519	1.19
Mof_Cl	Cl	0.0613	0.725	0.2786	-0.238
Mof_Cl	Cl	0.1523	0.7474	0.0525	-0.213
Mof_Cl	Cl	0.0779	0.6028	0.2281	-0.178
Mof_Cl	Cl	0.2728	0.6697	0.1248	-0.22
Mof_Cl	Cl	0.1586	0.5452	0.1455	-0.21
Mof_Cl	Cl	0.0382	0.5689	0.1994	-0.12
Mof_Cl	Cl	0.2222	0.6362	0.0474	-0.2
Mof_Cl	Cl	0.0327	0.9128	0.0819	-0.174
Mof_Cl	Cl	0.053	0.5314	0.1483	-0.177
Mof_Cl	Cl	0.0911	0.7323	0.0218	-0.194
Mof_N 	N 	0.0271	0.8289	0.1703	-0.261
Mof_N 	N 	0.0987	0.7931	0.1892	-0.293
Mof_N 	N 	0.1387	0.7586	0.2047	-0.271
Mof_N 	N 	0.0749	0.7836	0.1362	-0.289
Mof_N 	N 	0.073	0.7292	0.1234	-0.255
Mof_N 	N 	0.1767	0.6921	0.2324	-0.267
Mof_N 	N 	0.2178	0.7416	0.1951	-0.286
Mof_N 	N 	0.1122	0.6711	0.1529	-0.261
Mof_N 	N 	0.1551	0.6894	0.1777	-0.279
Mof_N 	N 	0.0314	0.6621	0.1365	-0.284
Mof_N 	N 	0.095	0.6031	0.0741	-0.302
Mof_N 	N 	0.0929	0.6512	0.1013	-0.287
Mof_N 	N 	0.103	0.8593	0.1546	-0.27
Mof_N 	N 	0.0293	0.565	0.0648	-0.277
Mof_N 	N 	0.098	0.53	0.0512	-0.293
Mof_N 	N 	0.0743	0.5935	0.0202	-0.282
Mof_C 	C 	0.0209	0.857	0.1853	0.029
Mof_C 	C 	0.0363	0.8833	0.1993	-0.045
Mof_C 	C 	0.0145	0.8998	0.2156	0.014
Mof_C 	C 	0.1296	0.7786	0.186	0.012
Mof_C 	C 	0.0893	0.7827	0.2082	0.086
Mof_C 	C 	0.0592	0.7917	0.22	-0.073
Mof_C 	C 	0.0524	0.7785	0.2424	0.025
Mof_C 	C 	0.0759	0.7563	0.2531	0.113
Mof_C 	C 	0.1061	0.7473	0.2413	-0.058
Mof_C 	C 	0.1128	0.7605	0.2189	0.033
Mof_C 	C 	0.0621	0.7501	0.1411	0.002
Mof_C 	C 	0.0903	0.7436	0.1053	-0.003
Mof_C 	C 	0.1062	0.7397	0.0834	-0.017
Mof_C 	C 	0.1222	0.7677	0.0727	0.139
Mof_C 	C 	0.1221	0.7997	0.0838	0.03
Mof_C 	C 	0.1062	0.8037	0.1056	-0.063
Mof_C 	C 	0.0903	0.7756	0.1164	0.096
Mof_C 	C 	0.1552	0.6635	0.2397	0.039
Mof_C 	C 	0.127	0.6496	0.2269	-0.037
Mof_C 	C 	0.1125	0.6252	0.2409	0.119
Mof_C 	C 	0.2411	0.7321	0.1777	0.028
Mof_C 	C 	0.2411	0.7041	0.1586	-0.037
Mof_C 	C 	0.2715	0.705	0.145	0.111
Mof_C 	C 	0.1277	0.6986	0.165	0.027
Mof_C 	C 	0.1585	0.6557	0.1724	0.058
Mof_C 	C 	0.1833	0.633	0.1809	-0.029
Mof_C 	C 	0.1837	0.5989	0.1733	0.052
Mof_C 	C 	0.1591	0.5875	0.1571	0.15
Mof_C 	C 	0.1343	0.6102	0.1486	-0.036
Mof_C 	C 	0.134	0.6443	0.1562	0.051
Mof_C 	C 	0.0197	0.638	0.1549	0.032
Mof_C 	C 	0.0402	0.6183	0.1665	-0.029
Mof_C 	C 	0.0184	0.6018	0.1801	0.118
Mof_C 	C 	0.0762	0.6242	0.0892	0.04
Mof_C 	C 	0.1254	0.6464	0.0948	0.035
Mof_C 	C 	0.1566	0.6629	0.0989	-0.03
Mof_C 	C 	0.1856	0.6542	0.0857	0.055
Mof_C 	C 	0.1834	0.6289	0.0684	0.131
Mof_C 	C 	0.1521	0.6123	0.0642	-0.065
Mof_C 	C 	0.1232	0.621	0.0774	0.093
Mof_C 	C 	0.0909	0.8818	0.138	0.03
Mof_C 	C 	0.061	0.8837	0.1197	-0.041
Mof_C 	C 	0.0639	0.9113	0.1058	0.113
Mof_C 	C 	0.0152	0.5593	0.087	0.034
Mof_C 	C 	0.0365	0.5505	0.106	-0.045
Mof_C 	C 	0.0196	0.5434	0.1267	0.106
Mof_C 	C 	0.0766	0.628	0.0121	0.038
Mof_C 	C 	0.0903	0.6581	0.0246	-0.052
Mof_C 	C 	0.0965	0.6856	0.0124	0.12
Mof_C 	C 	0.1217	0.5173	0.0316	0.014
Mof_C 	C 	0.1452	0.5313	0.0154	-0.027
Mof_C 	C 	0.1787	0.5184	0.0129	0.031
Mof_Zn	Zn	0.3168	0.5757	0.3379	1.177
Mof_Zn	Zn	0.177	0.5758	0.3726	1.183
Mof_Zn	Zn	0.2198	0.6738	0.2977	1.176
Mof_Zn	Zn	0.0735	0.5765	0.4481	1.19
Mof_Cl	Cl	0.225	0.5613	0.2214	-0.238
Mof_Cl	Cl	0.2474	0.6523	0.4475	-0.213
Mof_Cl	Cl	0.1028	0.5779	0.2719	-0.178
Mof_Cl	Cl	0.1697	0.7728	0.3752	-0.22
Mof_Cl	Cl	0.0452	0.6586	0.3545	-0.21
Mof_Cl	Cl	0.0689	0.5382	0.3006	-0.12
Mof_Cl	Cl	0.1362	0.7222	0.4526	-0.2
Mof_Cl	Cl	0.4128	0.5327	0.4181	-0.173
Mof_Cl	Cl	0.0314	0.553	0.3517	-0.177
Mof_Cl	Cl	0.2323	0.5911	0.4782	-0.194
Mof_N 	N 	0.3289	0.5271	0.3297	-0.261
Mof_N 	N 	0.2931	0.5987	0.3108	-0.293
Mof_N 	N 	0.2586	0.6387	0.2953	-0.271
Mof_N 	N 	0.2836	0.5749	0.3638	-0.289
Mof_N 	N 	0.2292	0.573	0.3766	-0.255
Mof_N 	N 	0.1921	0.6767	0.2676	-0.267
Mof_N 	N 	0.2416	0.7178	0.3049	-0.286
Mof_N 	N 	0.1711	0.6122	0.3471	-0.261
Mof_N 	N 	0.1894	0.6551	0.3223	-0.279
Mof_N 	N 	0.1621	0.5314	0.3635	-0.284
Mof_N 	N 	0.1031	0.595	0.4259	-0.302
Mof_N 	N 	0.1512	0.5929	0.3987	-0.287
Mof_N 	N 	0.3593	0.603	0.3454	-0.27
Mof_N 	N 	0.065	0.5293	0.4352	-0.277
Mof_N 	N 	0.03	0.598	0.4488	-0.293
Mof_N 	N 	0.0935	0.5743	0.4798	-0.282
Mof_C 	C 	0.357	0.5209	0.3147	0.03
Mof_C 	C 	0.3833	0.5363	0.3007	-0.045
Mof_C 	C 	0.3998	0.5145	0.2844	0.015
Mof_C 	C 	0.2786	0.6296	0.314	0.012
Mof_C 	C 	0.2827	0.5893	0.2918	0.086
Mof_C 	C 	0.2917	0.5592	0.28	-0.073
Mof_C 	C 	0.2785	0.5524	0.2576	0.025
Mof_C 	C 	0.2563	0.5759	0.2469	0.113
Mof_C 	C 	0.2473	0.6061	0.2587	-0.058
Mof_C 	C 	0.2605	0.6128	0.2811	0.033
Mof_C 	C 	0.2501	0.5621	0.3589	0.002
Mof_C 	C 	0.2436	0.5903	0.3947	-0.003
Mof_C 	C 	0.2397	0.6062	0.4166	-0.017
Mof_C 	C 	0.2677	0.6222	0.4273	0.139
Mof_C 	C 	0.2997	0.6221	0.4162	0.03
Mof_C 	C 	0.3037	0.6062	0.3944	-0.063
Mof_C 	C 	0.2756	0.5903	0.3836	0.096
Mof_C 	C 	0.1635	0.6552	0.2603	0.039
Mof_C 	C 	0.1496	0.627	0.2731	-0.037
Mof_C 	C 	0.1252	0.6125	0.2591	0.119
Mof_C 	C 	0.2321	0.7411	0.3223	0.028
Mof_C 	C 	0.2041	0.7411	0.3414	-0.037
Mof_C 	C 	0.205	0.7715	0.355	0.111
Mof_C 	C 	0.1986	0.6277	0.335	0.027
Mof_C 	C 	0.1557	0.6585	0.3276	0.058
Mof_C 	C 	0.133	0.6833	0.3191	-0.029
Mof_C 	C 	0.0989	0.6837	0.3267	0.052
Mof_C 	C 	0.0875	0.6591	0.3429	0.15
Mof_C 	C 	0.1102	0.6343	0.3514	-0.036
Mof_C 	C 	0.1443	0.634	0.3438	0.051
Mof_C 	C 	0.138	0.5197	0.3451	0.033
Mof_C 	C 	0.1183	0.5402	0.3335	-0.029
Mof_C 	C 	0.1018	0.5184	0.3199	0.118
Mof_C 	C 	0.1242	0.5762	0.4108	0.04
Mof_C 	C 	0.1464	0.6254	0.4052	0.035
Mof_C 	C 	0.1629	0.6566	0.4011	-0.03
Mof_C 	C 	0.1542	0.6856	0.4143	0.055
Mof_C 	C 	0.1289	0.6834	0.4316	0.131
Mof_C 	C 	0.1123	0.6521	0.4358	-0.065
Mof_C 	C 	0.121	0.6232	0.4226	0.093
Mof_C 	C 	0.3818	0.5909	0.362	0.03
Mof_C 	C 	0.3837	0.561	0.3803	-0.041
Mof_C 	C 	0.4113	0.5639	0.3942	0.113
Mof_C 	C 	0.0593	0.5152	0.413	0.035
Mof_C 	C 	0.0505	0.5365	0.394	-0.045
Mof_C 	C 	0.0434	0.5196	0.3733	0.107
Mof_C 	C 	0.128	0.5766	0.4879	0.038
Mof_C 	C 	0.1581	0.5903	0.4754	-0.052
Mof_C 	C 	0.1856	0.5965	0.4876	0.12
Mof_C 	C 	0.0173	0.6217	0.4684	0.013
Mof_C 	C 	0.0313	0.6452	0.4846	-0.027
Mof_C 	C 	0.0184	0.6787	0.4871	0.031
Mof_Zn	Zn	0.8168	0.0757	0.8379	1.177
Mof_Zn	Zn	0.677	0.0758	0.8726	1.183
Mof_Zn	Zn	0.7198	0.1738	0.7977	1.176
Mof_Zn	Zn	0.5735	0.0765	0.9481	1.19
Mof_Cl	Cl	0.725	0.0613	0.7214	-0.238
Mof_Cl	Cl	0.7474	0.1523	0.9475	-0.213
Mof_Cl	Cl	0.6028	0.0779	0.7719	-0.178
Mof_Cl	Cl	0.6697	0.2728	0.8752	-0.22
Mof_Cl	Cl	0.5452	0.1586	0.8545	-0.21
Mof_Cl	Cl	0.5689	0.0382	0.8006	-0.12
Mof_Cl	Cl	0.6362	0.2222	0.9526	-0.2
Mof_Cl	Cl	0.9128	0.0327	0.9181	-0.174
Mof_Cl	Cl	0.5314	0.053	0.8517	-0.177
Mof_Cl	Cl	0.7323	0.0911	0.9782	-0.194
Mof_N 	N 	0.8289	0.0271	0.8297	-0.261
Mof_N 	N 	0.7931	0.0987	0.8108	-0.293
Mof_N 	N 	0.7586	0.1387	0.7953	-0.271
Mof_N 	N 	0.7836	0.0749	0.8638	-0.289
Mof_N 	N 	0.7292	0.073	0.8766	-0.255
Mof_N 	N 	0.6921	0.1767	0.7676	-0.267
Mof_N 	N 	0.7416	0.2178	0.8049	-0.286
Mof_N 	N 	0.6711	0.1122	0.8471	-0.261
Mof_N 	N 	0.6894	0.1551	0.8223	-0.279
Mof_N 	N 	0.6621	0.0314	0.8635	-0.284
Mof_N 	N 	0.6031	0.095	0.9259	-0.302
Mof_N 	N 	0.6512	0.0929	0.8987	-0.287
Mof_N 	N 	0.8593	0.103	0.8454	-0.27
Mof_N 	N 	0.565	0.0293	0.9352	-0.277
Mof_N 	N 	0.53	0.098	0.9488	-0.293
Mof_N 	N 	0.5935	0.0743	0.9798	-0.282
Mof_C 	C 	0.857	0.0209	0.8147	0.029
Mof_C 	C 	0.8833	0.0363	0.8007	-0.045
Mof_C 	C 	0.8998	0.0145	0.7844	0.014
Mof_C 	C 	0.7786	0.1296	0.814	0.012
Mof_C 	C 	0.7827	0.0893	0.7918	0.086
Mof_C 	C 	0.7917	0.0592	0.78	-0.073
Mof_C 	C 	0.7785	0.0524	0.7576	0.025
Mof_C 	C 	0.7563	0.0759	0.7469	0.113
Mof_C 	C 	0.7473	0.1061	0.7587	-0.058
Mof_C 	C 	0.7605	0.1128	0.7811	0.033
Mof_C 	C 	0.7501	0.0621	0.8589	0.002
Mof_C 	C 	0.7436	0.0903	0.8947	-0.003
Mof_C 	C 	0.7397	0.1062	0.9166	-0.017
Mof_C 	C 	0.7677	0.1222	0.9273	0.139
Mof_C 	C 	0.7997	0.1221	0.9162	0.03
Mof_C 	C 	0.8037	0.1062	0.8944	-0.063
Mof_C 	C 	0.7756	0.0903	0.8836	0.096
Mof_C 	C 	0.6635	0.1552	0.7603	0.039
Mof_C 	C 	0.6496	0.127	0.7731	-0.037
Mof_C 	C 	0.6252	0.1125	0.7591	0.119
Mof_C 	C 	0.7321	0.2411	0.8223	0.028
Mof_C 	C 	0.7041	0.2411	0.8414	-0.037
Mof_C 	C 	0.705	0.2715	0.855	0.111
Mof_C 	C 	0.6986	0.1277	0.835	0.027
Mof_C 	C 	0.6557	0.1585	0.8276	0.058
Mof_C 	C 	0.633	0.1833	0.8191	-0.029
Mof_C 	C 	0.5989	0.1837	0.8267	0.052
Mof_C 	C 	0.5875	0.1591	0.8429	0.15
Mof_C 	C 	0.6102	0.1343	0.8514	-0.036
Mof_C 	C 	0.6443	0.134	0.8438	0.051
Mof_C 	C 	0.638	0.0197	0.8451	0.032
Mof_C 	C 	0.6183	0.0402	0.8335	-0.029
Mof_C 	C 	0.6018	0.0184	0.8199	0.118
Mof_C 	C 	0.6242	0.0762	0.9108	0.04
Mof_C 	C 	0.6464	0.1254	0.9052	0.035
Mof_C 	C 	0.6629	0.1566	0.9011	-0.03
Mof_C 	C 	0.6542	0.1856	0.9143	0.055
Mof_C 	C 	0.6289	0.1834	0.9316	0.131
Mof_C 	C 	0.6123	0.1521	0.9358	-0.065
Mof_C 	C 	0.621	0.1232	0.9226	0.093
Mof_C 	C 	0.8818	0.0909	0.862	0.03
Mof_C 	C 	0.8837	0.061	0.8803	-0.041
Mof_C 	C 	0.9113	0.0639	0.8942	0.113
Mof_C 	C 	0.5593	0.0152	0.913	0.034
Mof_C 	C 	0.5505	0.0365	0.894	-0.045
Mof_C 	C 	0.5434	0.0196	0.8733	0.106
Mof_C 	C 	0.628	0.0766	0.9879	0.038
Mof_C 	C 	0.6581	0.0903	0.9754	-0.052
Mof_C 	C 	0.6856	0.0965	0.9876	0.12
Mof_C 	C 	0.5173	0.1217	0.9684	0.014
Mof_C 	C 	0.5313	0.1452	0.9846	-0.027
Mof_C 	C 	0.5184	0.1787	0.9871	0.031
Mof_Zn	Zn	0.6832	0.4243	0.3379	1.177
Mof_Zn	Zn	0.823	0.4242	0.3726	1.183
Mof_Zn	Zn	0.7802	0.3262	0.2977	1.176
Mof_Zn	Zn	0.9265	0.4235	0.4481	1.19
Mof_Cl	Cl	0.775	0.4387	0.2214	-0.238
Mof_Cl	Cl	0.7526	0.3477	0.4475	-0.213
Mof_Cl	Cl	0.8972	0.4221	0.2719	-0.178
Mof_Cl	Cl	0.8303	0.2272	0.3752	-0.22
Mof_Cl	Cl	0.9548	0.3414	0.3545	-0.21
Mof_Cl	Cl	0.9311	0.4618	0.3006	-0.12
Mof_Cl	Cl	0.8638	0.2778	0.4526	-0.2
Mof_Cl	Cl	0.5872	0.4673	0.4181	-0.173
Mof_Cl	Cl	0.9686	0.447	0.3517	-0.177
Mof_Cl	Cl	0.7677	0.4089	0.4782	-0.194
Mof_N 	N 	0.6711	0.4729	0.3297	-0.261
Mof_N 	N 	0.7069	0.4013	0.3108	-0.293
Mof_N 	N 	0.7414	0.3613	0.2953	-0.271
Mof_N 	N 	0.7164	0.4251	0.3638	-0.289
Mof_N 	N 	0.7708	0.427	0.3766	-0.255
Mof_N 	N 	0.8079	0.3233	0.2676	-0.267
Mof_N 	N 	0.7584	0.2822	0.3049	-0.286
Mof_N 	N 	0.8289	0.3878	0.3471	-0.261
Mof_N 	N 	0.8106	0.3449	0.3223	-0.279
Mof_N 	N 	0.8379	0.4686	0.3635	-0.284
Mof_N 	N 	0.8969	0.405	0.4259	-0.302
Mof_N 	N 	0.8488	0.4071	0.3987	-0.287
Mof_N 	N 	0.6407	0.397	0.3454	-0.27
Mof_N 	N 	0.935	0.4707	0.4352	-0.277
Mof_N 	N 	0.97	0.402	0.4488	-0.293
Mof_N 	N 	0.9065	0.4257	0.4798	-0.282
Mof_C 	C 	0.643	0.4791	0.3147	0.03
Mof_C 	C 	0.6167	0.4637	0.3007	-0.045
Mof_C 	C 	0.6002	0.4855	0.2844	0.015
Mof_C 	C 	0.7214	0.3704	0.314	0.012
Mof_C 	C 	0.7173	0.4107	0.2918	0.086
Mof_C 	C 	0.7083	0.4408	0.28	-0.073
Mof_C 	C 	0.7215	0.4476	0.2576	0.025
Mof_C 	C 	0.7437	0.4241	0.2469	0.113
Mof_C 	C 	0.7527	0.3939	0.2587	-0.058
Mof_C 	C 	0.7395	0.3872	0.2811	0.033
Mof_C 	C 	0.7499	0.4379	0.3589	0.002
Mof_C 	C 	0.7564	0.4097	0.3947	-0.003
Mof_C 	C 	0.7603	0.3938	0.4166	-0.017
Mof_C 	C 	0.7323	0.3778	0.4273	0.139
Mof_C 	C 	0.7003	0.3779	0.4162	0.03
Mof_C 	C 	0.6963	0.3938	0.3944	-0.063
Mof_C 	C 	0.7244	0.4097	0.3836	0.096
Mof_C 	C 	0.8365	0.3448	0.2603	0.039
Mof_C 	C 	0.8504	0.373	0.2731	-0.037
Mof_C 	C 	0.8748	0.3875	0.2591	0.12
Mof_C 	C 	0.7679	0.2589	0.3223	0.028
Mof_C 	C 	0.7959	0.2589	0.3414	-0.037
Mof_C 	C 	0.795	0.2285	0.355	0.111
Mof_C 	C 	0.8014	0.3723	0.335	0.027
Mof_C 	C 	0.8443	0.3415	0.3276	0.058
Mof_C 	C 	0.867	0.3167	0.3191	-0.029
Mof_C 	C 	0.9011	0.3163	0.3267	0.052
Mof_C 	C 	0.9125	0.3409	0.3429	0.15
Mof_C 	C 	0.8898	0.3657	0.3514	-0.036
Mof_C 	C 	0.8557	0.366	0.3438	0.051
Mof_C 	C 	0.862	0.4803	0.3451	0.033
Mof_C 	C 	0.8817	0.4598	0.3335	-0.029
Mof_C 	C 	0.8982	0.4816	0.3199	0.118
Mof_C 	C 	0.8758	0.4238	0.4108	0.04
Mof_C 	C 	0.8536	0.3746	0.4052	0.035
Mof_C 	C 	0.8371	0.3434	0.4011	-0.03
Mof_C 	C 	0.8458	0.3144	0.4143	0.055
Mof_C 	C 	0.8711	0.3166	0.4316	0.131
Mof_C 	C 	0.8877	0.3479	0.4358	-0.065
Mof_C 	C 	0.879	0.3768	0.4226	0.093
Mof_C 	C 	0.6182	0.4091	0.362	0.03
Mof_C 	C 	0.6163	0.439	0.3803	-0.041
Mof_C 	C 	0.5887	0.4361	0.3942	0.113
Mof_C 	C 	0.9407	0.4848	0.413	0.035
Mof_C 	C 	0.9495	0.4635	0.394	-0.045
Mof_C 	C 	0.9566	0.4804	0.3733	0.107
Mof_C 	C 	0.872	0.4234	0.4879	0.038
Mof_C 	C 	0.8419	0.4097	0.4754	-0.052
Mof_C 	C 	0.8144	0.4035	0.4876	0.12
Mof_C 	C 	0.9827	0.3783	0.4684	0.014
Mof_C 	C 	0.9687	0.3548	0.4846	-0.027
Mof_C 	C 	0.9816	0.3213	0.4871	0.032
Mof_Zn	Zn	0.1832	0.9243	0.8379	1.177
Mof_Zn	Zn	0.323	0.9242	0.8726	1.183
Mof_Zn	Zn	0.2802	0.8262	0.7977	1.176
Mof_Zn	Zn	0.4265	0.9235	0.9481	1.19
Mof_Cl	Cl	0.275	0.9387	0.7214	-0.238
Mof_Cl	Cl	0.2526	0.8477	0.9475	-0.213
Mof_Cl	Cl	0.3972	0.9221	0.7719	-0.178
Mof_Cl	Cl	0.3303	0.7272	0.8752	-0.22
Mof_Cl	Cl	0.4548	0.8414	0.8545	-0.21
Mof_Cl	Cl	0.4311	0.9618	0.8006	-0.12
Mof_Cl	Cl	0.3638	0.7778	0.9526	-0.2
Mof_Cl	Cl	0.0872	0.9673	0.9181	-0.173
Mof_Cl	Cl	0.4686	0.947	0.8517	-0.177
Mof_Cl	Cl	0.2677	0.9089	0.9782	-0.194
Mof_N 	N 	0.1711	0.9729	0.8297	-0.261
Mof_N 	N 	0.2069	0.9013	0.8108	-0.293
Mof_N 	N 	0.2414	0.8613	0.7953	-0.271
Mof_N 	N 	0.2164	0.9251	0.8638	-0.289
Mof_N 	N 	0.2708	0.927	0.8766	-0.255
Mof_N 	N 	0.3079	0.8233	0.7676	-0.267
Mof_N 	N 	0.2584	0.7822	0.8049	-0.286
Mof_N 	N 	0.3289	0.8878	0.8471	-0.261
Mof_N 	N 	0.3106	0.8449	0.8223	-0.279
Mof_N 	N 	0.3379	0.9686	0.8635	-0.284
Mof_N 	N 	0.3969	0.905	0.9259	-0.302
Mof_N 	N 	0.3488	0.9071	0.8987	-0.287
Mof_N 	N 	0.1407	0.897	0.8454	-0.27
Mof_N 	N 	0.435	0.9707	0.9352	-0.277
Mof_N 	N 	0.47	0.902	0.9488	-0.293
Mof_N 	N 	0.4065	0.9257	0.9798	-0.282
Mof_C 	C 	0.143	0.9791	0.8147	0.03
Mof_C 	C 	0.1167	0.9637	0.8007	-0.046
Mof_C 	C 	0.1002	0.9855	0.7844	0.016
Mof_C 	C 	0.2214	0.8704	0.814	0.012
Mof_C 	C 	0.2173	0.9107	0.7918	0.086
Mof_C 	C 	0.2083	0.9408	0.78	-0.073
Mof_C 	C 	0.2215	0.9476	0.7576	0.025
Mof_C 	C 	0.2437	0.9241	0.7469	0.113
Mof_C 	C 	0.2527	0.8939	0.7587	-0.058
Mof_C 	C 	0.2395	0.8872	0.7811	0.033
Mof_C 	C 	0.2499	0.9379	0.8589	0.002
Mof_C 	C 	0.2564	0.9097	0.8947	-0.003
Mof_C 	C 	0.2603	0.8938	0.9166	-0.017
Mof_C 	C 	0.2323	0.8778	0.9273	0.139
Mof_C 	C 	0.2003	0.8779	0.9162	0.03
Mof_C 	C 	0.1963	0.8938	0.8944	-0.063
Mof_C 	C 	0.2244	0.9097	0.8836	0.096
Mof_C 	C 	0.3365	0.8448	0.7603	0.039
Mof_C 	C 	0.3504	0.873	0.7731	-0.037
Mof_C 	C 	0.3748	0.8875	0.7591	0.12
Mof_C 	C 	0.2679	0.7589	0.8223	0.028
Mof_C 	C 	0.2959	0.7589	0.8414	-0.037
Mof_C 	C 	0.295	0.7285	0.855	0.111
Mof_C 	C 	0.3014	0.8723	0.835	0.027
Mof_C 	C 	0.3443	0.8415	0.8276	0.058
Mof_C 	C 	0.367	0.8167	0.8191	-0.029
Mof_C 	C 	0.4011	0.8163	0.8267	0.052
Mof_C 	C 	0.4125	0.8409	0.8429	0.15
Mof_C 	C 	0.3898	0.8657	0.8514	-0.036
Mof_C 	C 	0.3557	0.866	0.8438	0.051
Mof_C 	C 	0.362	0.9803	0.8451	0.033
Mof_C 	C 	0.3817	0.9598	0.8335	-0.029
Mof_C 	C 	0.3982	0.9816	0.8199	0.119
Mof_C 	C 	0.3758	0.9238	0.9108	0.04
Mof_C 	C 	0.3536	0.8746	0.9052	0.035
Mof_C 	C 	0.3371	0.8434	0.9011	-0.03
Mof_C 	C 	0.3458	0.8144	0.9143	0.055
Mof_C 	C 	0.3711	0.8166	0.9316	0.131
Mof_C 	C 	0.3877	0.8479	0.9358	-0.065
Mof_C 	C 	0.379	0.8768	0.9226	0.093
Mof_C 	C 	0.1182	0.9091	0.862	0.03
Mof_C 	C 	0.1163	0.939	0.8803	-0.041
Mof_C 	C 	0.0887	0.9361	0.8942	0.113
Mof_C 	C 	0.4407	0.9848	0.913	0.036
Mof_C 	C 	0.4495	0.9635	0.894	-0.045
Mof_C 	C 	0.4566	0.9804	0.8733	0.107
Mof_C 	C 	0.372	0.9234	0.9879	0.038
Mof_C 	C 	0.3419	0.9097	0.9754	-0.052
Mof_C 	C 	0.3144	0.9035	0.9876	0.12
Mof_C 	C 	0.4827	0.8783	0.9684	0.014
Mof_C 	C 	0.4687	0.8548	0.9846	-0.027
Mof_C 	C 	0.4816	0.8213	0.9871	0.031
Mof_Zn	Zn	0.5757	0.6832	0.3379	1.177
Mof_Zn	Zn	0.5758	0.823	0.3726	1.183
Mof_Zn	Zn	0.6738	0.7802	0.2977	1.176
Mof_Zn	Zn	0.5765	0.9265	0.4481	1.19
Mof_Cl	Cl	0.5613	0.775	0.2214	-0.238
Mof_Cl	Cl	0.6523	0.7526	0.4475	-0.213
Mof_Cl	Cl	0.5779	0.8972	0.2719	-0.178
Mof_Cl	Cl	0.7728	0.8303	0.3752	-0.22
Mof_Cl	Cl	0.6586	0.9548	0.3545	-0.21
Mof_Cl	Cl	0.5382	0.9311	0.3006	-0.12
Mof_Cl	Cl	0.7222	0.8638	0.4526	-0.2
Mof_Cl	Cl	0.5327	0.5872	0.4181	-0.173
Mof_Cl	Cl	0.553	0.9686	0.3517	-0.177
Mof_Cl	Cl	0.5911	0.7677	0.4782	-0.194
Mof_N 	N 	0.5271	0.6711	0.3297	-0.261
Mof_N 	N 	0.5987	0.7069	0.3108	-0.293
Mof_N 	N 	0.6387	0.7414	0.2953	-0.271
Mof_N 	N 	0.5749	0.7164	0.3638	-0.289
Mof_N 	N 	0.573	0.7708	0.3766	-0.255
Mof_N 	N 	0.6767	0.8079	0.2676	-0.267
Mof_N 	N 	0.7178	0.7584	0.3049	-0.286
Mof_N 	N 	0.6122	0.8289	0.3471	-0.261
Mof_N 	N 	0.6551	0.8106	0.3223	-0.279
Mof_N 	N 	0.5314	0.8379	0.3635	-0.284
Mof_N 	N 	0.595	0.8969	0.4259	-0.302
Mof_N 	N 	0.5929	0.8488	0.3987	-0.287
Mof_N 	N 	0.603	0.6407	0.3454	-0.27
Mof_N 	N 	0.5293	0.935	0.4352	-0.277
Mof_N 	N 	0.598	0.97	0.4488	-0.293
Mof_N 	N 	0.5743	0.9065	0.4798	-0.282
Mof_C 	C 	0.5209	0.643	0.3147	0.03
Mof_C 	C 	0.5363	0.6167	0.3007	-0.045
Mof_C 	C 	0.5145	0.6002	0.2844	0.015
Mof_C 	C 	0.6296	0.7214	0.314	0.012
Mof_C 	C 	0.5893	0.7173	0.2918	0.086
Mof_C 	C 	0.5592	0.7083	0.28	-0.073
Mof_C 	C 	0.5524	0.7215	0.2576	0.025
Mof_C 	C 	0.5759	0.7437	0.2469	0.113
Mof_C 	C 	0.6061	0.7527	0.2587	-0.058
Mof_C 	C 	0.6128	0.7395	0.2811	0.033
Mof_C 	C 	0.5621	0.7499	0.3589	0.002
Mof_C 	C 	0.5903	0.7564	0.3947	-0.003
Mof_C 	C 	0.6062	0.7603	0.4166	-0.017
Mof_C 	C 	0.6222	0.7323	0.4273	0.139
Mof_C 	C 	0.6221	0.7003	0.4162	0.03
Mof_C 	C 	0.6062	0.6963	0.3944	-0.063
Mof_C 	C 	0.5903	0.7244	0.3836	0.096
Mof_C 	C 	0.6552	0.8365	0.2603	0.039
Mof_C 	C 	0.627	0.8504	0.2731	-0.037
Mof_C 	C 	0.6125	0.8748	0.2591	0.12
Mof_C 	C 	0.7411	0.7679	0.3223	0.028
Mof_C 	C 	0.7411	0.7959	0.3414	-0.037
Mof_C 	C 	0.7715	0.795	0.355	0.111
Mof_C 	C 	0.6277	0.8014	0.335	0.027
Mof_C 	C 	0.6585	0.8443	0.3276	0.058
Mof_C 	C 	0.6833	0.867	0.3191	-0.029
Mof_C 	C 	0.6837	0.9011	0.3267	0.052
Mof_C 	C 	0.6591	0.9125	0.3429	0.15
Mof_C 	C 	0.6343	0.8898	0.3514	-0.036
Mof_C 	C 	0.634	0.8557	0.3438	0.051
Mof_C 	C 	0.5197	0.862	0.3451	0.033
Mof_C 	C 	0.5402	0.8817	0.3335	-0.029
Mof_C 	C 	0.5184	0.8982	0.3199	0.118
Mof_C 	C 	0.5762	0.8758	0.4108	0.04
Mof_C 	C 	0.6254	0.8536	0.4052	0.035
Mof_C 	C 	0.6566	0.8371	0.4011	-0.03
Mof_C 	C 	0.6856	0.8458	0.4143	0.055
Mof_C 	C 	0.6834	0.8711	0.4316	0.131
Mof_C 	C 	0.6521	0.8877	0.4358	-0.065
Mof_C 	C 	0.6232	0.879	0.4226	0.093
Mof_C 	C 	0.5909	0.6182	0.362	0.03
Mof_C 	C 	0.561	0.6163	0.3803	-0.041
Mof_C 	C 	0.5639	0.5887	0.3942	0.113
Mof_C 	C 	0.5152	0.9407	0.413	0.035
Mof_C 	C 	0.5365	0.9495	0.394	-0.045
Mof_C 	C 	0.5196	0.9566	0.3733	0.107
Mof_C 	C 	0.5766	0.872	0.4879	0.038
Mof_C 	C 	0.5903	0.8419	0.4754	-0.052
Mof_C 	C 	0.5965	0.8144	0.4876	0.12
Mof_C 	C 	0.6217	0.9827	0.4684	0.014
Mof_C 	C 	0.6452	0.9687	0.4846	-0.027
Mof_C 	C 	0.6787	0.9816	0.4871	0.032
Mof_Zn	Zn	0.0757	0.1832	0.8379	1.177
Mof_Zn	Zn	0.0758	0.323	0.8726	1.183
Mof_Zn	Zn	0.1738	0.2802	0.7977	1.176
Mof_Zn	Zn	0.0765	0.4265	0.9481	1.19
Mof_Cl	Cl	0.0613	0.275	0.7214	-0.238
Mof_Cl	Cl	0.1523	0.2526	0.9475	-0.213
Mof_Cl	Cl	0.0779	0.3972	0.7719	-0.178
Mof_Cl	Cl	0.2728	0.3303	0.8752	-0.22
Mof_Cl	Cl	0.1586	0.4548	0.8545	-0.21
Mof_Cl	Cl	0.0382	0.4311	0.8006	-0.12
Mof_Cl	Cl	0.2222	0.3638	0.9526	-0.2
Mof_Cl	Cl	0.0327	0.0872	0.9181	-0.174
Mof_Cl	Cl	0.053	0.4686	0.8517	-0.177
Mof_Cl	Cl	0.0911	0.2677	0.9782	-0.194
Mof_N 	N 	0.0271	0.1711	0.8297	-0.261
Mof_N 	N 	0.0987	0.2069	0.8108	-0.293
Mof_N 	N 	0.1387	0.2414	0.7953	-0.271
Mof_N 	N 	0.0749	0.2164	0.8638	-0.289
Mof_N 	N 	0.073	0.2708	0.8766	-0.255
Mof_N 	N 	0.1767	0.3079	0.7676	-0.267
Mof_N 	N 	0.2178	0.2584	0.8049	-0.286
Mof_N 	N 	0.1122	0.3289	0.8471	-0.261
Mof_N 	N 	0.1551	0.3106	0.8223	-0.279
Mof_N 	N 	0.0314	0.3379	0.8635	-0.284
Mof_N 	N 	0.095	0.3969	0.9259	-0.302
Mof_N 	N 	0.0929	0.3488	0.8987	-0.287
Mof_N 	N 	0.103	0.1407	0.8454	-0.27
Mof_N 	N 	0.0293	0.435	0.9352	-0.277
Mof_N 	N 	0.098	0.47	0.9488	-0.293
Mof_N 	N 	0.0743	0.4065	0.9798	-0.282
Mof_C 	C 	0.0209	0.143	0.8147	0.029
Mof_C 	C 	0.0363	0.1167	0.8007	-0.045
Mof_C 	C 	0.0145	0.1002	0.7844	0.014
Mof_C 	C 	0.1296	0.2214	0.814	0.012
Mof_C 	C 	0.0893	0.2173	0.7918	0.086
Mof_C 	C 	0.0592	0.2083	0.78	-0.073
Mof_C 	C 	0.0524	0.2215	0.7576	0.025
Mof_C 	C 	0.0759	0.2437	0.7469	0.113
Mof_C 	C 	0.1061	0.2527	0.7587	-0.058
Mof_C 	C 	0.1128	0.2395	0.7811	0.033
Mof_C 	C 	0.0621	0.2499	0.8589	0.002
Mof_C 	C 	0.0903	0.2564	0.8947	-0.003
Mof_C 	C 	0.1062	0.2603	0.9166	-0.017
Mof_C 	C 	0.1222	0.2323	0.9273	0.139
Mof_C 	C 	0.1221	0.2003	0.9162	0.03
Mof_C 	C 	0.1062	0.1963	0.8944	-0.063
Mof_C 	C 	0.0903	0.2244	0.8836	0.096
Mof_C 	C 	0.1552	0.3365	0.7603	0.039
Mof_C 	C 	0.127	0.3504	0.7731	-0.037
Mof_C 	C 	0.1125	0.3748	0.7591	0.119
Mof_C 	C 	0.2411	0.2679	0.8223	0.028
Mof_C 	C 	0.2411	0.2959	0.8414	-0.037
Mof_C 	C 	0.2715	0.295	0.855	0.111
Mof_C 	C 	0.1277	0.3014	0.835	0.027
Mof_C 	C 	0.1585	0.3443	0.8276	0.058
Mof_C 	C 	0.1833	0.367	0.8191	-0.029
Mof_C 	C 	0.1837	0.4011	0.8267	0.052
Mof_C 	C 	0.1591	0.4125	0.8429	0.15
Mof_C 	C 	0.1343	0.3898	0.8514	-0.036
Mof_C 	C 	0.134	0.3557	0.8438	0.051
Mof_C 	C 	0.0197	0.362	0.8451	0.032
Mof_C 	C 	0.0402	0.3817	0.8335	-0.029
Mof_C 	C 	0.0184	0.3982	0.8199	0.118
Mof_C 	C 	0.0762	0.3758	0.9108	0.04
Mof_C 	C 	0.1254	0.3536	0.9052	0.035
Mof_C 	C 	0.1566	0.3371	0.9011	-0.03
Mof_C 	C 	0.1856	0.3458	0.9143	0.055
Mof_C 	C 	0.1834	0.3711	0.9316	0.131
Mof_C 	C 	0.1521	0.3877	0.9358	-0.065
Mof_C 	C 	0.1232	0.379	0.9226	0.093
Mof_C 	C 	0.0909	0.1182	0.862	0.03
Mof_C 	C 	0.061	0.1163	0.8803	-0.041
Mof_C 	C 	0.0639	0.0887	0.8942	0.113
Mof_C 	C 	0.0152	0.4407	0.913	0.034
Mof_C 	C 	0.0365	0.4495	0.894	-0.045
Mof_C 	C 	0.0196	0.4566	0.8733	0.106
Mof_C 	C 	0.0766	0.372	0.9879	0.038
Mof_C 	C 	0.0903	0.3419	0.9754	-0.052
Mof_C 	C 	0.0965	0.3144	0.9876	0.12
Mof_C 	C 	0.1217	0.4827	0.9684	0.014
Mof_C 	C 	0.1452	0.4687	0.9846	-0.027
Mof_C 	C 	0.1787	0.4816	0.9871	0.031
Mof_Zn	Zn	0.4243	0.3168	0.3379	1.177
Mof_Zn	Zn	0.4242	0.177	0.3726	1.183
Mof_Zn	Zn	0.3262	0.2198	0.2977	1.176
Mof_Zn	Zn	0.4235	0.0735	0.4481	1.19
Mof_Cl	Cl	0.4387	0.225	0.2214	-0.238
Mof_Cl	Cl	0.3477	0.2474	0.4475	-0.213
Mof_Cl	Cl	0.4221	0.1028	0.2719	-0.178
Mof_Cl	Cl	0.2272	0.1697	0.3752	-0.22
Mof_Cl	Cl	0.3414	0.0452	0.3545	-0.21
Mof_Cl	Cl	0.4618	0.0689	0.3006	-0.12
Mof_Cl	Cl	0.2778	0.1362	0.4526	-0.2
Mof_Cl	Cl	0.4673	0.4128	0.4181	-0.173
Mof_Cl	Cl	0.447	0.0314	0.3517	-0.177
Mof_Cl	Cl	0.4089	0.2323	0.4782	-0.194
Mof_N 	N 	0.4729	0.3289	0.3297	-0.261
Mof_N 	N 	0.4013	0.2931	0.3108	-0.293
Mof_N 	N 	0.3613	0.2586	0.2953	-0.271
Mof_N 	N 	0.4251	0.2836	0.3638	-0.289
Mof_N 	N 	0.427	0.2292	0.3766	-0.255
Mof_N 	N 	0.3233	0.1921	0.2676	-0.267
Mof_N 	N 	0.2822	0.2416	0.3049	-0.286
Mof_N 	N 	0.3878	0.1711	0.3471	-0.261
Mof_N 	N 	0.3449	0.1894	0.3223	-0.279
Mof_N 	N 	0.4686	0.1621	0.3635	-0.284
Mof_N 	N 	0.405	0.1031	0.4259	-0.302
Mof_N 	N 	0.4071	0.1512	0.3987	-0.287
Mof_N 	N 	0.397	0.3593	0.3454	-0.27
Mof_N 	N 	0.4707	0.065	0.4352	-0.277
Mof_N 	N 	0.402	0.03	0.4488	-0.293
Mof_N 	N 	0.4257	0.0935	0.4798	-0.282
Mof_C 	C 	0.4791	0.357	0.3147	0.03
Mof_C 	C 	0.4637	0.3833	0.3007	-0.045
Mof_C 	C 	0.4855	0.3998	0.2844	0.015
Mof_C 	C 	0.3704	0.2786	0.314	0.012
Mof_C 	C 	0.4107	0.2827	0.2918	0.086
Mof_C 	C 	0.4408	0.2917	0.28	-0.073
Mof_C 	C 	0.4476	0.2785	0.2576	0.025
Mof_C 	C 	0.4241	0.2563	0.2469	0.113
Mof_C 	C 	0.3939	0.2473	0.2587	-0.058
Mof_C 	C 	0.3872	0.2605	0.2811	0.033
Mof_C 	C 	0.4379	0.2501	0.3589	0.002
Mof_C 	C 	0.4097	0.2436	0.3947	-0.003
Mof_C 	C 	0.3938	0.2397	0.4166	-0.017
Mof_C 	C 	0.3778	0.2677	0.4273	0.139
Mof_C 	C 	0.3779	0.2997	0.4162	0.03
Mof_C 	C 	0.3938	0.3037	0.3944	-0.063
Mof_C 	C 	0.4097	0.2756	0.3836	0.096
Mof_C 	C 	0.3448	0.1635	0.2603	0.039
Mof_C 	C 	0.373	0.1496	0.2731	-0.037
Mof_C 	C 	0.3875	0.1252	0.2591	0.119
Mof_C 	C 	0.2589	0.2321	0.3223	0.028
Mof_C 	C 	0.2589	0.2041	0.3414	-0.037
Mof_C 	C 	0.2285	0.205	0.355	0.111
Mof_C 	C 	0.3723	0.1986	0.335	0.027
Mof_C 	C 	0.3415	0.1557	0.3276	0.058
Mof_C 	C 	0.3167	0.133	0.3191	-0.029
Mof_C 	C 	0.3163	0.0989	0.3267	0.052
Mof_C 	C 	0.3409	0.0875	0.3429	0.15
Mof_C 	C 	0.3657	0.1102	0.3514	-0.036
Mof_C 	C 	0.366	0.1443	0.3438	0.051
Mof_C 	C 	0.4803	0.138	0.3451	0.033
Mof_C 	C 	0.4598	0.1183	0.3335	-0.029
Mof_C 	C 	0.4816	0.1018	0.3199	0.118
Mof_C 	C 	0.4238	0.1242	0.4108	0.04
Mof_C 	C 	0.3746	0.1464	0.4052	0.035
Mof_C 	C 	0.3434	0.1629	0.4011	-0.03
Mof_C 	C 	0.3144	0.1542	0.4143	0.055
Mof_C 	C 	0.3166	0.1289	0.4316	0.131
Mof_C 	C 	0.3479	0.1123	0.4358	-0.065
Mof_C 	C 	0.3768	0.121	0.4226	0.093
Mof_C 	C 	0.4091	0.3818	0.362	0.03
Mof_C 	C 	0.439	0.3837	0.3803	-0.041
Mof_C 	C 	0.4361	0.4113	0.3942	0.113
Mof_C 	C 	0.4848	0.0593	0.413	0.035
Mof_C 	C 	0.4635	0.0505	0.394	-0.045
Mof_C 	C 	0.4804	0.0434	0.3733	0.107
Mof_C 	C 	0.4234	0.128	0.4879	0.038
Mof_C 	C 	0.4097	0.1581	0.4754	-0.052
Mof_C 	C 	0.4035	0.1856	0.4876	0.12
Mof_C 	C 	0.3783	0.0173	0.4684	0.013
Mof_C 	C 	0.3548	0.0313	0.4846	-0.027
Mof_C 	C 	0.3213	0.0184	0.4871	0.031
Mof_Zn	Zn	0.9243	0.8168	0.8379	1.177
Mof_Zn	Zn	0.9242	0.677	0.8726	1.183
Mof_Zn	Zn	0.8262	0.7198	0.7977	1.176
Mof_Zn	Zn	0.9235	0.5735	0.9481	1.19
Mof_Cl	Cl	0.9387	0.725	0.7214	-0.237
Mof_Cl	Cl	0.8477	0.7474	0.9475	-0.213
Mof_Cl	Cl	0.9221	0.6028	0.7719	-0.178
Mof_Cl	Cl	0.7272	0.6697	0.8752	-0.22
Mof_Cl	Cl	0.8414	0.5452	0.8545	-0.21
Mof_Cl	Cl	0.9618	0.5689	0.8006	-0.12
Mof_Cl	Cl	0.7778	0.6362	0.9526	-0.2
Mof_Cl	Cl	0.9673	0.9128	0.9181	-0.173
Mof_Cl	Cl	0.947	0.5314	0.8517	-0.177
Mof_Cl	Cl	0.9089	0.7323	0.9782	-0.194
Mof_N 	N 	0.9729	0.8289	0.8297	-0.261
Mof_N 	N 	0.9013	0.7931	0.8108	-0.293
Mof_N 	N 	0.8613	0.7586	0.7953	-0.271
Mof_N 	N 	0.9251	0.7836	0.8638	-0.289
Mof_N 	N 	0.927	0.7292	0.8766	-0.255
Mof_N 	N 	0.8233	0.6921	0.7676	-0.267
Mof_N 	N 	0.7822	0.7416	0.8049	-0.286
Mof_N 	N 	0.8878	0.6711	0.8471	-0.261
Mof_N 	N 	0.8449	0.6894	0.8223	-0.279
Mof_N 	N 	0.9686	0.6621	0.8635	-0.284
Mof_N 	N 	0.905	0.6031	0.9259	-0.302
Mof_N 	N 	0.9071	0.6512	0.8987	-0.287
Mof_N 	N 	0.897	0.8593	0.8454	-0.27
Mof_N 	N 	0.9707	0.565	0.9352	-0.277
Mof_N 	N 	0.902	0.53	0.9488	-0.293
Mof_N 	N 	0.9257	0.5935	0.9798	-0.282
Mof_C 	C 	0.9791	0.857	0.8147	0.03
Mof_C 	C 	0.9637	0.8833	0.8007	-0.045
Mof_C 	C 	0.9855	0.8998	0.7844	0.016
Mof_C 	C 	0.8704	0.7786	0.814	0.012
Mof_C 	C 	0.9107	0.7827	0.7918	0.086
Mof_C 	C 	0.9408	0.7917	0.78	-0.073
Mof_C 	C 	0.9476	0.7785	0.7576	0.025
Mof_C 	C 	0.9241	0.7563	0.7469	0.113
Mof_C 	C 	0.8939	0.7473	0.7587	-0.058
Mof_C 	C 	0.8872	0.7605	0.7811	0.033
Mof_C 	C 	0.9379	0.7501	0.8589	0.002
Mof_C 	C 	0.9097	0.7436	0.8947	-0.003
Mof_C 	C 	0.8938	0.7397	0.9166	-0.017
Mof_C 	C 	0.8778	0.7677	0.9273	0.139
Mof_C 	C 	0.8779	0.7997	0.9162	0.03
Mof_C 	C 	0.8938	0.8037	0.8944	-0.063
Mof_C 	C 	0.9097	0.7756	0.8836	0.096
Mof_C 	C 	0.8448	0.6635	0.7603	0.039
Mof_C 	C 	0.873	0.6496	0.7731	-0.037
Mof_C 	C 	0.8875	0.6252	0.7591	0.119
Mof_C 	C 	0.7589	0.7321	0.8223	0.028
Mof_C 	C 	0.7589	0.7041	0.8414	-0.037
Mof_C 	C 	0.7285	0.705	0.855	0.111
Mof_C 	C 	0.8723	0.6986	0.835	0.027
Mof_C 	C 	0.8415	0.6557	0.8276	0.058
Mof_C 	C 	0.8167	0.633	0.8191	-0.029
Mof_C 	C 	0.8163	0.5989	0.8267	0.052
Mof_C 	C 	0.8409	0.5875	0.8429	0.15
Mof_C 	C 	0.8657	0.6102	0.8514	-0.036
Mof_C 	C 	0.866	0.6443	0.8438	0.051
Mof_C 	C 	0.9803	0.638	0.8451	0.033
Mof_C 	C 	0.9598	0.6183	0.8335	-0.029
Mof_C 	C 	0.9816	0.6018	0.8199	0.119
Mof_C 	C 	0.9238	0.6242	0.9108	0.04
Mof_C 	C 	0.8746	0.6464	0.9052	0.035
Mof_C 	C 	0.8434	0.6629	0.9011	-0.03
Mof_C 	C 	0.8144	0.6542	0.9143	0.055
Mof_C 	C 	0.8166	0.6289	0.9316	0.131
Mof_C 	C 	0.8479	0.6123	0.9358	-0.065
Mof_C 	C 	0.8768	0.621	0.9226	0.093
Mof_C 	C 	0.9091	0.8818	0.862	0.03
Mof_C 	C 	0.939	0.8837	0.8803	-0.041
Mof_C 	C 	0.9361	0.9113	0.8942	0.113
Mof_C 	C 	0.9848	0.5593	0.913	0.036
Mof_C 	C 	0.9635	0.5505	0.894	-0.045
Mof_C 	C 	0.9804	0.5434	0.8733	0.107
Mof_C 	C 	0.9234	0.628	0.9879	0.038
Mof_C 	C 	0.9097	0.6581	0.9754	-0.052
Mof_C 	C 	0.9035	0.6856	0.9876	0.12
Mof_C 	C 	0.8783	0.5173	0.9684	0.014
Mof_C 	C 	0.8548	0.5313	0.9846	-0.027
Mof_C 	C 	0.8213	0.5184	0.9871	0.031
Mof_C 	C 	0.2715	0.2715	0.2958	0.023
Mof_C 	C 	0.3695	0.3695	0.3336	0.04
Mof_C 	C 	0.7715	0.7715	0.7958	0.023
Mof_C 	C 	0.8695	0.8695	0.8336	0.04
Mof_C 	C 	0.7285	0.7285	0.2958	0.023
Mof_C 	C 	0.6305	0.6305	0.3336	0.04
Mof_C 	C 	0.2285	0.2285	0.7958	0.023
Mof_C 	C 	0.1305	0.1305	0.8336	0.04
Mof_C 	C 	0.7285	0.2715	0.2958	0.023
Mof_C 	C 	0.6305	0.3695	0.3336	0.04
Mof_C 	C 	0.2285	0.7715	0.7958	0.023
Mof_C 	C 	0.1305	0.8695	0.8336	0.04
Mof_C 	C 	0.2715	0.7285	0.2958	0.023
Mof_C 	C 	0.3695	0.6305	0.3336	0.04
Mof_C 	C 	0.7715	0.2285	0.7958	0.023
Mof_C 	C 	0.8695	0.1305	0.8336	0.04
Mof_C 	C 	0.7285	0.2715	0.7042	0.023
Mof_C 	C 	0.6305	0.3695	0.6664	0.04
Mof_C 	C 	0.2285	0.7715	0.2042	0.023
Mof_C 	C 	0.1305	0.8695	0.1664	0.04
Mof_C 	C 	0.2715	0.7285	0.7042	0.023
Mof_C 	C 	0.3695	0.6305	0.6664	0.04
Mof_C 	C 	0.7715	0.2285	0.2042	0.023
Mof_C 	C 	0.8695	0.1305	0.1664	0.04
Mof_C 	C 	0.2715	0.2715	0.7042	0.023
Mof_C 	C 	0.3695	0.3695	0.6664	0.04
Mof_C 	C 	0.7715	0.7715	0.2042	0.023
Mof_C 	C 	0.8695	0.8695	0.1664	0.04
Mof_C 	C 	0.7285	0.7285	0.7042	0.023
Mof_C 	C 	0.6305	0.6305	0.6664	0.04
Mof_C 	C 	0.2285	0.2285	0.2042	0.023
Mof_C 	C 	0.1305	0.1305	0.1664	0.04
Mof_C 	C 	0.3111	0.5	0.3399	0.021
Mof_C 	C 	0.1758	0.5	0.3734	0.004
Mof_C 	C 	0.0698	0.5	0.4466	0.025
Mof_C 	C 	0.8111	9.52159e-33	0.8399	0.02
Mof_C 	C 	0.6758	0	0.8734	0.004
Mof_C 	C 	0.5698	0	0.9466	0.024
Mof_C 	C 	0.6889	0.5	0.3399	0.021
Mof_C 	C 	0.8242	0.5	0.3734	0.004
Mof_C 	C 	0.9302	0.5	0.4466	0.025
Mof_C 	C 	0.1889	9.52159e-33	0.8399	0.02
Mof_C 	C 	0.3242	0	0.8734	0.004
Mof_C 	C 	0.4302	0	0.9466	0.024
Mof_C 	C 	0.5	0.3111	0.3399	0.021
Mof_C 	C 	0.5	0.1758	0.3734	0.004
Mof_C 	C 	0.5	0.0698	0.4466	0.025
Mof_C 	C 	4.58603e-33	0.8111	0.8399	0.02
Mof_C 	C 	4.76895e-33	0.6758	0.8734	0.004
Mof_C 	C 	2.42118e-32	0.5698	0.9466	0.024
Mof_C 	C 	0.5	0.6889	0.3399	0.021
Mof_C 	C 	0.5	0.8242	0.3734	0.004
Mof_C 	C 	0.5	0.9302	0.4466	0.025
Mof_C 	C 	1.41076e-32	0.1889	0.8399	0.02
Mof_C 	C 	4.76895e-33	0.3242	0.8734	0.004
Mof_C 	C 	5.16864e-33	0.4302	0.9466	0.024
Mof_C 	C 	0.6889	0.5	0.6601	0.021
Mof_C 	C 	0.8242	0.5	0.6266	0.004
Mof_C 	C 	0.9302	0.5	0.5534	0.025
Mof_C 	C 	0.1889	0	0.1601	0.02
Mof_C 	C 	0.3242	0	0.1266	0.004
Mof_C 	C 	0.4302	5.951e-34	0.0534	0.024
Mof_C 	C 	0.3111	0.5	0.6601	0.021
Mof_C 	C 	0.1758	0.5	0.6266	0.004
Mof_C 	C 	0.0698	0.5	0.5534	0.025
Mof_C 	C 	0.8111	0	0.1601	0.02
Mof_C 	C 	0.6758	0	0.1266	0.004
Mof_C 	C 	0.5698	5.951e-34	0.0534	0.024
Mof_C 	C 	0.5	0.3111	0.6601	0.021
Mof_C 	C 	0.5	0.1758	0.6266	0.004
Mof_C 	C 	0.5	0.0698	0.5534	0.025
Mof_C 	C 	-1.50622e-33	0.8111	0.1601	0.02
Mof_C 	C 	5.45206e-33	0.6758	0.1266	0.004
Mof_C 	C 	5.05237e-33	0.5698	0.0534	0.024
Mof_C 	C 	0.5	0.6889	0.6601	0.021
Mof_C 	C 	0.5	0.8242	0.6266	0.004
Mof_C 	C 	0.5	0.9302	0.5534	0.025
Mof_C 	C 	8.7418e-34	0.1889	0.1601	0.02
Mof_C 	C 	6.91263e-34	0.3242	0.1266	0.004
Mof_C 	C 	2.91575e-34	0.4302	0.0534	0.024
Mof_C 	C 	0.1982	0.3018	0.25	0.041
Mof_C 	C 	0.8018	0.6982	0.25	0.041
Mof_C 	C 	0.6982	0.1982	0.25	0.041
Mof_C 	C 	0.3018	0.8018	0.25	0.041
Mof_C 	C 	0.8018	0.3018	0.75	0.041
Mof_C 	C 	0.1982	0.6982	0.75	0.041
Mof_C 	C 	0.3018	0.1982	0.75	0.041
Mof_C 	C 	0.6982	0.8018	0.75	0.041
Mof_C 	C 	0.8018	0.6982	0.75	0.041
Mof_C 	C 	0.3018	0.1982	0.25	0.041
Mof_C 	C 	0.1982	0.3018	0.75	0.041
Mof_C 	C 	0.3018	0.8018	0.75	0.041
Mof_C 	C 	0.6982	0.1982	0.75	0.041
Mof_C 	C 	0.1982	0.6982	0.25	0.041
Mof_C 	C 	0.8018	0.3018	0.25	0.041
Mof_C 	C 	0.6982	0.8018	0.25	0.041
Mof_C 	C 	0.0757	0.4278	0.5	0.027
Mof_C 	C 	0.5757	0.9278	-0	0.027
Mof_C 	C 	0.9243	0.5722	0.5	0.027
Mof_C 	C 	0.4243	0.0722	-0	0.027
Mof_C 	C 	0.5722	0.0757	0.5	0.027
Mof_C 	C 	0.0722	0.5757	-0	0.027
Mof_C 	C 	0.4278	0.9243	0.5	0.027
Mof_C 	C 	0.9278	0.4243	-0	0.027
Mof_C 	C 	0.9243	0.4278	0.5	0.027
Mof_C 	C 	0.4243	0.9278	-0	0.027
Mof_C 	C 	0.0757	0.5722	0.5	0.027
Mof_C 	C 	0.5757	0.0722	-0	0.027
Mof_C 	C 	0.4278	0.0757	0.5	0.027
Mof_C 	C 	0.9278	0.5757	-0	0.027
Mof_C 	C 	0.5722	0.9243	0.5	0.027
Mof_C 	C 	0.0722	0.4243	-0	0.027
Mof_C 	C 	-7.10436e-33	0.4142	0.4427	0.085
Mof_C 	C 	0.5	0.9142	0.9427	0.085
Mof_C 	C 	1.19388e-32	0.5858	0.4427	0.085
Mof_C 	C 	0.5	0.0858	0.9427	0.085
Mof_C 	C 	0.5858	0	0.4427	0.085
Mof_C 	C 	0.0858	0.5	0.9427	0.085
Mof_C 	C 	0.4142	0	0.4427	0.085
Mof_C 	C 	0.9142	0.5	0.9427	0.085
Mof_C 	C 	-6.47862e-33	0.4142	0.5573	0.085
Mof_C 	C 	0.5	0.9142	0.0573	0.085
Mof_C 	C 	3.04298e-33	0.5858	0.5573	0.085
Mof_C 	C 	0.5	0.0858	0.0573	0.085
Mof_C 	C 	0.4142	0	0.5573	0.085
Mof_C 	C 	0.9142	0.5	0.0573	0.085
Mof_C 	C 	0.5858	0	0.5573	0.085
Mof_C 	C 	0.0858	0.5	0.0573	0.085
_end
