data_functionalizedCrystal
_audit_creation_method	'EQeq! by Chris Wilmer'
_symmetry_space_group_name_H-M	'P1'
_symmetry_Int_Tables_number	1
_symmetry_cell_setting	triclinic
loop_
_symmetry_equiv_pos_as_xyz
  x,y,z
_cell_length_a	26.9695
_cell_length_b	14.7086
_cell_length_c	9.9706
_cell_angle_alpha	90
_cell_angle_beta	98.081
_cell_angle_gamma	90
loop_
_atom_site_label
_atom_site_type_symbol
_atom_site_fract_x
_atom_site_fract_y
_atom_site_fract_z
_atom_site_charge
Mof_C 	C 	0.04429	0.4823	0.2719	0.324
Mof_C 	C 	0.08486	0.497	0.1851	-0.116
Mof_C 	C 	0.12879	0.5418	0.2367	0.066
Mof_H 	H 	0.1323	0.5656	0.324	0.019
Mof_C 	C 	0.16719	0.5515	0.1605	-0.188
Mof_H 	H 	0.1965	0.5816	0.1956	0.1
Mof_C 	C 	0.1618	0.5162	0.0327	0.152
Mof_C 	C 	0.11839	0.4735	0.9773	-0.088
Mof_H 	H 	0.115	0.4508	0.8895	0.083
Mof_C 	C 	0.07973	0.4649	0.0548	0.008
Mof_H 	H 	0.05	0.4371	0.0178	0.034
Mof_C 	C 	0.24843	0.5161	-0	0.229
Mof_C 	C 	0.26517	0.4569	0.1028	-0.283
Mof_H 	H 	0.2424	0.4241	0.1456	0.133
Mof_C 	C 	0.31599	0.446	0.1426	0.174
Mof_H 	H 	0.3272	0.4063	0.213	-0.014
Mof_C 	C 	0.35006	0.4931	0.0796	-0.254
Mof_C 	C 	0.40521	0.4786	0.1193	0.405
Mof_C 	C 	0.33272	0.5515	0.9769	0.205
Mof_H 	H 	0.3556	0.5832	0.933	-0.02
Mof_C 	C 	0.28195	0.5648	0.9364	-0.243
Mof_H 	H 	0.2708	0.6058	0.8677	0.132
Mof_C 	C 	0.56897	0.9161	0.7157	0.108
Mof_H 	H 	0.5953	0.9494	0.6894	0.003
Mof_C 	C 	0.4972	0.8603	0.7225	0.014
Mof_H 	H 	0.4633	0.8475	0.7008	0.036
Mof_C 	C 	0.52721	0.8251	0.8287	0.018
Mof_H 	H 	0.5182	0.7842	0.8924	0.036
Mof_C 	C 	0.61864	0.8423	0.9111	0.156
Mof_C 	C 	0.62361	0.7654	0.9872	-0.107
Mof_H 	H 	0.5965	0.7263	0.9872	0.087
Mof_C 	C 	0.66884	0.7453	0.0646	-0.009
Mof_H 	H 	0.6713	0.6932	0.1179	0.031
Mof_C 	C 	0.71036	0.7996	0.0657	-0.09
Mof_C 	C 	0.70318	0.8787	0.9924	0.078
Mof_H 	H 	0.7298	0.9191	0.9939	0.013
Mof_C 	C 	0.65812	0.9003	0.917	-0.172
Mof_H 	H 	0.6546	0.9549	0.8697	0.104
Mof_C 	C 	0.76011	0.774	0.1368	0.058
Mof_C 	C 	0.76709	0.686	0.1864	0.152
Mof_H 	H 	0.7402	0.6461	0.1823	-0.025
Mof_C 	C 	0.81498	0.6582	0.2424	-0.201
Mof_H 	H 	0.8202	0.5987	0.2729	0.105
Mof_C 	C 	0.85664	0.7213	0.2534	0.08
Mof_C 	C 	0.84623	0.8065	0.2073	0.061
Mof_H 	H 	0.872	0.849	0.2138	0.018
Mof_C 	C 	0.79882	0.8328	0.1508	-0.086
Mof_H 	H 	0.7934	0.8925	0.1217	0.05
Mof_C 	C 	0.91878	0.62171	0.38878	0.091
Mof_H 	H 	0.8958	0.5875	0.4287	-0.001
Mof_N 	N 	0.96719	0.60713	0.40742	-0.216
Mof_C 	C 	0.95063	0.72415	0.26711	-0.036
Mof_H 	H 	0.9543	0.7724	0.209	0.053
Mof_N 	N 	0.52333	0.91728	0.6513	-0.212
Mof_N 	N 	0.5735	0.86137	0.8243	-0.146
Mof_N 	N 	0.90629	0.6925	0.3046	-0.133
Mof_C 	C 	0.98715	0.6719	0.3303	0.087
Mof_H 	H 	0.021	0.6782	0.3233	-0.013
Mof_O 	O 	0.00482	0.44356	0.2206	-0.307
Mof_O 	O 	0.05372	0.50993	0.3932	-0.407
Mof_O 	O 	0.43161	0.51012	0.0357	-0.442
Mof_O 	O 	0.42014	0.4375	0.2244	-0.295
Mof_O 	O 	0.1983	0.527	0.9477	-0.238
Mof_C 	C 	0.2276	0.2375	0.2377	-0.16
Mof_C 	C 	0.1805	0.2157	0.1742	0.052
Mof_C 	C 	0.1481	0.2671	0.3641	-0.065
Mof_C 	C 	0.1961	0.291	0.421	-0.017
Mof_H 	H 	0.254	0.226	0.1894	0.079
Mof_H 	H 	0.175	0.1977	0.0839	0
Mof_H 	H 	0.1203	0.282	0.4054	0.054
Mof_H 	H 	0.1997	0.3208	0.5041	0.025
Mof_C 	C 	0.95571	0.9823	0.2281	0.364
Mof_C 	C 	0.91514	0.997	0.3149	-0.123
Mof_C 	C 	0.87121	0.0418	0.2633	0.076
Mof_H 	H 	0.8677	0.0656	0.176	0.007
Mof_C 	C 	0.83281	0.0515	0.3395	-0.236
Mof_H 	H 	0.8035	0.0816	0.3044	0.112
Mof_C 	C 	0.8382	0.0162	0.4673	0.231
Mof_C 	C 	0.88161	0.9735	0.5227	-0.19
Mof_H 	H 	0.885	0.9508	0.6105	0.125
Mof_C 	C 	0.92027	0.9649	0.4452	0.101
Mof_H 	H 	0.95	0.9371	0.4822	0.029
Mof_C 	C 	0.75157	0.0161	0.5	0.242
Mof_C 	C 	0.73483	0.9569	0.3972	-0.228
Mof_H 	H 	0.7576	0.9241	0.3544	0.123
Mof_C 	C 	0.68401	0.946	0.3574	0.124
Mof_H 	H 	0.6728	0.9063	0.287	0.002
Mof_C 	C 	0.64994	0.9931	0.4204	-0.159
Mof_C 	C 	0.59479	0.9786	0.3807	0.41
Mof_C 	C 	0.66728	0.0515	0.5231	0.095
Mof_H 	H 	0.6444	0.0832	0.567	0.001
Mof_C 	C 	0.71805	0.0648	0.5636	-0.243
Mof_H 	H 	0.7292	0.1058	0.6323	0.125
Mof_C 	C 	0.43103	0.4161	0.7843	0.108
Mof_H 	H 	0.4047	0.4494	0.8106	0.002
Mof_C 	C 	0.5028	0.3603	0.7775	0.011
Mof_H 	H 	0.5367	0.3475	0.7992	0.033
Mof_C 	C 	0.47279	0.3251	0.6713	0.016
Mof_H 	H 	0.4818	0.2842	0.6076	0.027
Mof_C 	C 	0.38136	0.3423	0.5889	0.154
Mof_C 	C 	0.37639	0.2654	0.5128	-0.145
Mof_H 	H 	0.4035	0.2263	0.5128	0.091
Mof_C 	C 	0.33116	0.2453	0.4354	0.022
Mof_H 	H 	0.3287	0.1932	0.3821	0.025
Mof_C 	C 	0.28964	0.2996	0.4343	-0.044
Mof_C 	C 	0.29682	0.3787	0.5076	0.022
Mof_H 	H 	0.2702	0.4191	0.5061	0.02
Mof_C 	C 	0.34188	0.4003	0.583	-0.154
Mof_H 	H 	0.3454	0.4549	0.6303	0.089
Mof_C 	C 	0.23989	0.274	0.3632	0.024
Mof_C 	C 	0.23291	0.186	0.3136	0.101
Mof_H 	H 	0.2598	0.1461	0.3177	-0.008
Mof_C 	C 	0.18502	0.1582	0.2576	-0.163
Mof_H 	H 	0.1798	0.0987	0.2271	0.085
Mof_C 	C 	0.14336	0.2213	0.2466	0.1
Mof_C 	C 	0.15377	0.3065	0.2927	-0.06
Mof_H 	H 	0.128	0.349	0.2862	0.056
Mof_C 	C 	0.20118	0.3328	0.3492	-0.029
Mof_H 	H 	0.2066	0.3925	0.3783	0.035
Mof_C 	C 	0.08122	0.12171	0.11122	0.088
Mof_H 	H 	0.1042	0.0875	0.0713	-0.017
Mof_N 	N 	0.03281	0.10713	0.09258	-0.215
Mof_C 	C 	0.04937	0.22415	0.23289	0.037
Mof_H 	H 	0.0457	0.2724	0.291	0.021
Mof_N 	N 	0.47667	0.41728	0.8487	-0.21
Mof_N 	N 	0.4265	0.36137	0.6757	-0.147
Mof_N 	N 	0.09371	0.1925	0.1954	-0.149
Mof_C 	C 	0.01285	0.1719	0.1697	-0.071
Mof_H 	H 	0.979	0.1782	0.1767	0.08
Mof_O 	O 	0.99518	0.94356	0.2794	-0.275
Mof_O 	O 	0.94628	0.00993	0.1068	-0.431
Mof_O 	O 	0.56839	0.01012	0.4643	-0.452
Mof_O 	O 	0.57986	0.9375	0.2756	-0.294
Mof_O 	O 	0.8017	0.027	0.5523	-0.294
Mof_C 	C 	0.7724	0.7375	0.2623	-0.233
Mof_C 	C 	0.8195	0.7157	0.3258	0.113
Mof_C 	C 	0.8519	0.7671	0.1359	-0.154
Mof_C 	C 	0.8039	0.791	0.079	-0.023
Mof_H 	H 	0.746	0.726	0.3106	0.106
Mof_H 	H 	0.825	0.6977	0.4161	-0.017
Mof_H 	H 	0.8797	0.782	0.0946	0.077
Mof_H 	H 	0.8003	0.8208	0.9959	0.052
Mof_C 	C 	0.95571	0.5177	0.7281	0.387
Mof_C 	C 	0.91514	0.503	0.8149	-0.287
Mof_C 	C 	0.87121	0.4582	0.7633	0.277
Mof_H 	H 	0.8677	0.4344	0.676	-0.05
Mof_C 	C 	0.83281	0.4485	0.8395	-0.43
Mof_H 	H 	0.8035	0.4184	0.8044	0.19
Mof_C 	C 	0.8382	0.4838	0.9673	0.471
Mof_C 	C 	0.88161	0.5265	0.0227	-0.486
Mof_H 	H 	0.885	0.5492	0.1105	0.217
Mof_C 	C 	0.92027	0.5351	0.9452	0.329
Mof_H 	H 	0.95	0.5629	0.9822	-0.043
Mof_C 	C 	0.75157	0.4839	-0	0.249
Mof_C 	C 	0.73483	0.5431	0.8972	-0.225
Mof_H 	H 	0.7576	0.5759	0.8544	0.12
Mof_C 	C 	0.68401	0.554	0.8574	0.115
Mof_H 	H 	0.6728	0.5937	0.787	0.008
Mof_C 	C 	0.64994	0.5069	0.9204	-0.137
Mof_C 	C 	0.59479	0.5214	0.8807	0.369
Mof_C 	C 	0.66728	0.4485	0.0231	0.079
Mof_H 	H 	0.6444	0.4168	0.067	0.002
Mof_C 	C 	0.71805	0.4352	0.0636	-0.239
Mof_H 	H 	0.7292	0.3942	0.1323	0.122
Mof_C 	C 	0.43103	0.0839	0.2843	0.1
Mof_H 	H 	0.4047	0.0506	0.3106	-0.01
Mof_C 	C 	0.5028	0.1397	0.2775	0.006
Mof_H 	H 	0.5367	0.1525	0.2992	0.025
Mof_C 	C 	0.47279	0.1749	0.1713	0.009
Mof_H 	H 	0.4818	0.2158	0.1076	0.021
Mof_C 	C 	0.38136	0.1577	0.0889	0.146
Mof_C 	C 	0.37639	0.2346	0.0128	-0.183
Mof_H 	H 	0.4035	0.2737	0.0128	0.095
Mof_C 	C 	0.33116	0.2547	0.9354	0.051
Mof_H 	H 	0.3287	0.3068	0.8821	0.024
Mof_C 	C 	0.28964	0.2004	0.9343	0.009
Mof_C 	C 	0.29682	0.1213	0.0076	-0.046
Mof_H 	H 	0.2702	0.0809	0.0061	0.028
Mof_C 	C 	0.34188	0.0997	0.083	-0.131
Mof_H 	H 	0.3454	0.0451	0.1303	0.07
Mof_C 	C 	0.23989	0.226	0.8632	-0.015
Mof_C 	C 	0.23291	0.314	0.8136	0.023
Mof_H 	H 	0.2598	0.3539	0.8177	0.028
Mof_C 	C 	0.18502	0.3418	0.7576	-0.104
Mof_H 	H 	0.1798	0.4013	0.7271	0.074
Mof_C 	C 	0.14336	0.2787	0.7466	0.131
Mof_C 	C 	0.15377	0.1935	0.7927	-0.192
Mof_H 	H 	0.128	0.151	0.7862	0.1
Mof_C 	C 	0.20118	0.1672	0.8492	0.038
Mof_H 	H 	0.2066	0.1075	0.8783	0.018
Mof_C 	C 	0.08122	0.37829	0.61122	0.098
Mof_H 	H 	0.1042	0.4125	0.5713	-0.005
Mof_N 	N 	0.03281	0.39287	0.59258	-0.208
Mof_C 	C 	0.04937	0.27585	0.73289	0.042
Mof_H 	H 	0.0457	0.2276	0.791	0.024
Mof_N 	N 	0.47667	0.08272	0.3487	-0.223
Mof_N 	N 	0.4265	0.13863	0.1757	-0.149
Mof_N 	N 	0.09371	0.3075	0.6954	-0.152
Mof_C 	C 	0.01285	0.3281	0.6697	-0.064
Mof_H 	H 	0.979	0.3218	0.6767	0.085
Mof_O 	O 	0.99518	0.55644	0.7794	-0.283
Mof_O 	O 	0.94628	0.49007	0.6068	-0.406
Mof_O 	O 	0.56839	0.48988	0.9643	-0.4
Mof_O 	O 	0.57986	0.5625	0.7756	-0.281
Mof_O 	O 	0.8017	0.473	0.0523	-0.355
Mof_C 	C 	0.7724	0.7625	0.7623	-0.141
Mof_C 	C 	0.8195	0.7843	0.8258	0.04
Mof_C 	C 	0.8519	0.7329	0.6359	-0.068
Mof_C 	C 	0.8039	0.709	0.579	-0.022
Mof_H 	H 	0.746	0.774	0.8106	0.079
Mof_H 	H 	0.825	0.8023	0.9161	0.015
Mof_H 	H 	0.8797	0.718	0.5946	0.057
Mof_H 	H 	0.8003	0.6792	0.4959	0.035
Mof_C 	C 	0.04429	0.0177	0.7719	0.352
Mof_C 	C 	0.08486	0.003	0.6851	-0.299
Mof_C 	C 	0.12879	0.9582	0.7367	0.294
Mof_H 	H 	0.1323	0.9344	0.824	-0.046
Mof_C 	C 	0.16719	0.9485	0.6605	-0.417
Mof_H 	H 	0.1965	0.9184	0.6956	0.188
Mof_C 	C 	0.1618	0.9838	0.5327	0.433
Mof_C 	C 	0.11839	0.0265	0.4773	-0.423
Mof_H 	H 	0.115	0.0492	0.3895	0.189
Mof_C 	C 	0.07973	0.0351	0.5548	0.265
Mof_H 	H 	0.05	0.0629	0.5178	-0.048
Mof_C 	C 	0.24843	0.9839	0.5	0.433
Mof_C 	C 	0.26517	0.0431	0.6028	-0.449
Mof_H 	H 	0.2424	0.0759	0.6456	0.188
Mof_C 	C 	0.31599	0.054	0.6426	0.287
Mof_H 	H 	0.3272	0.0937	0.713	-0.049
Mof_C 	C 	0.35006	0.0069	0.5796	-0.321
Mof_C 	C 	0.40521	0.0214	0.6193	0.397
Mof_C 	C 	0.33272	0.9485	0.4769	0.307
Mof_H 	H 	0.3556	0.9168	0.433	-0.06
Mof_C 	C 	0.28195	0.9352	0.4364	-0.408
Mof_H 	H 	0.2708	0.8942	0.3677	0.186
Mof_C 	C 	0.56897	0.5839	0.2157	0.101
Mof_H 	H 	0.5953	0.5506	0.1894	-0.01
Mof_C 	C 	0.4972	0.6397	0.2225	0.009
Mof_H 	H 	0.4633	0.6525	0.2008	0.028
Mof_C 	C 	0.52721	0.6749	0.3287	0.011
Mof_H 	H 	0.5182	0.7158	0.3924	0.03
Mof_C 	C 	0.61864	0.6577	0.4111	0.149
Mof_C 	C 	0.62361	0.7346	0.4872	-0.143
Mof_H 	H 	0.5965	0.7737	0.4872	0.091
Mof_C 	C 	0.66884	0.7547	0.5646	0.018
Mof_H 	H 	0.6713	0.8068	0.6179	0.029
Mof_C 	C 	0.71036	0.7004	0.5657	-0.042
Mof_C 	C 	0.70318	0.6213	0.4924	0.016
Mof_H 	H 	0.7298	0.5809	0.4939	0.021
Mof_C 	C 	0.65812	0.5997	0.417	-0.151
Mof_H 	H 	0.6546	0.5451	0.3697	0.086
Mof_C 	C 	0.76011	0.726	0.6368	0.023
Mof_C 	C 	0.76709	0.814	0.6864	0.086
Mof_H 	H 	0.7402	0.8539	0.6823	0.005
Mof_C 	C 	0.81498	0.8418	0.7424	-0.153
Mof_H 	H 	0.8202	0.9013	0.7729	0.097
Mof_C 	C 	0.85664	0.7787	0.7534	0.107
Mof_C 	C 	0.84623	0.6935	0.7073	-0.054
Mof_H 	H 	0.872	0.651	0.7138	0.057
Mof_C 	C 	0.79882	0.6672	0.6508	-0.026
Mof_H 	H 	0.7934	0.6075	0.6217	0.035
Mof_C 	C 	0.91878	0.87829	0.88878	0.101
Mof_H 	H 	0.8958	0.9125	0.9287	0.012
Mof_N 	N 	0.96719	0.89287	0.90742	-0.202
Mof_C 	C 	0.95063	0.77585	0.76711	-0.028
Mof_H 	H 	0.9543	0.7276	0.709	0.055
Mof_N 	N 	0.52333	0.58272	0.1513	-0.224
Mof_N 	N 	0.5735	0.63863	0.3243	-0.147
Mof_N 	N 	0.90629	0.8075	0.8046	-0.136
Mof_C 	C 	0.98715	0.8281	0.8303	0.087
Mof_H 	H 	0.021	0.8218	0.8233	-0.003
Mof_O 	O 	0.00482	0.05644	0.7206	-0.313
Mof_O 	O 	0.05372	0.99007	0.8932	-0.372
Mof_O 	O 	0.43161	0.98988	0.5357	-0.398
Mof_O 	O 	0.42014	0.0625	0.7244	-0.29
Mof_O 	O 	0.1983	0.973	0.4477	-0.364
Mof_C 	C 	0.2276	0.2625	0.7377	-0.053
Mof_C 	C 	0.1805	0.2843	0.6742	-0.036
Mof_C 	C 	0.1481	0.2329	0.8641	0.035
Mof_C 	C 	0.1961	0.209	0.921	-0.017
Mof_H 	H 	0.254	0.274	0.6894	0.047
Mof_H 	H 	0.175	0.3023	0.5839	0.038
Mof_H 	H 	0.1203	0.218	0.9054	0.03
Mof_H 	H 	0.1997	0.1792	0.0041	0.008
Mof_Cu	Cu	-3.62901e-18	0.5	0.5	0.897
Mof_Cu	Cu	-0	0	-0	0.872
Mof_Cu	Cu	0.5	-3.22321e-33	0.5	0.893
Mof_Cu	Cu	0.5	0.5	-0	0.891
_end
