data_functionalizedCrystal
_audit_creation_method	'EQeq! by Chris Wilmer'
_symmetry_space_group_name_H-M	'P1'
_symmetry_Int_Tables_number	1
_symmetry_cell_setting	triclinic
loop_
_symmetry_equiv_pos_as_xyz
  x,y,z
_cell_length_a	17.6646
_cell_length_b	17.6646
_cell_length_c	28.0569
_cell_angle_alpha	71.6513
_cell_angle_beta	71.6513
_cell_angle_gamma	60
loop_
_atom_site_label
_atom_site_type_symbol
_atom_site_fract_x
_atom_site_fract_y
_atom_site_fract_z
_atom_site_charge
Mof_Li	Li	0.7988	0.4243	0.1218	6.547
Mof_Li	Li	0.4243	0.6551	0.1218	6.548
Mof_Li	Li	0.6551	0.7988	0.1218	6.548
Mof_Li	Li	0.7012	0.8449	0.3782	6.55
Mof_Li	Li	0.0757	0.7012	0.3782	6.542
Mof_Li	Li	0.8449	0.0757	0.3782	6.537
Mof_Li	Li	0.2012	0.5757	0.8782	6.546
Mof_Li	Li	0.5757	0.3449	0.8782	6.547
Mof_Li	Li	0.3449	0.2012	0.8782	6.547
Mof_Li	Li	0.2988	0.1551	0.6218	6.549
Mof_Li	Li	0.9243	0.2988	0.6218	6.541
Mof_Li	Li	0.1551	0.9243	0.6218	6.536
Mof_Li	Li	0.0315	0.0315	0.9055	1.426
Mof_Li	Li	0.4685	0.4685	0.5945	1.424
Mof_Li	Li	0.9685	0.9685	0.0945	1.426
Mof_Li	Li	0.5315	0.5315	0.4055	1.424
Mof_Li	Li	0.11635	0.38365	0.75	9.862
Mof_Li	Li	0.38365	0.75	0.75	9.862
Mof_Li	Li	0.75	0.11635	0.75	9.861
Mof_Li	Li	0.88365	0.61635	0.25	9.862
Mof_Li	Li	0.61635	0.25	0.25	9.862
Mof_Li	Li	0.25	0.88365	0.25	9.861
Mof_Ni	Ni	0.85292	0.35756	0.93104	1.071
Mof_Ni	Ni	0.35756	0.85848	0.93104	1.071
Mof_Ni	Ni	0.85848	0.85292	0.93104	1.072
Mof_Ni	Ni	0.64708	0.64152	0.56896	1.071
Mof_Ni	Ni	0.14244	0.64708	0.56896	1.071
Mof_Ni	Ni	0.64152	0.14244	0.56895	1.071
Mof_Ni	Ni	0.14708	0.64244	0.06896	1.071
Mof_Ni	Ni	0.64244	0.14152	0.06896	1.071
Mof_Ni	Ni	0.14152	0.14708	0.06896	1.072
Mof_Ni	Ni	0.35291	0.35848	0.43105	1.071
Mof_Ni	Ni	0.85756	0.35292	0.43104	1.071
Mof_Ni	Ni	0.35848	0.85756	0.43104	1.071
Mof_Ni	Ni	0.06841	0.06841	0.79477	1.032
Mof_Ni	Ni	0.43159	0.43159	0.70523	1.03
Mof_Ni	Ni	0.93159	0.93159	0.20523	1.032
Mof_Ni	Ni	0.56841	0.56841	0.29477	1.03
Mof_H 	H 	0.9148	0.1617	0.8959	-0.21
Mof_H 	H 	0.0498	0.1876	0.9667	-0.132
Mof_H 	H 	0.1617	0.0276	0.8959	-0.208
Mof_H 	H 	0.1876	0.7959	0.9667	-0.133
Mof_H 	H 	0.0276	0.9148	0.8959	-0.218
Mof_H 	H 	0.7959	0.0498	0.9667	-0.132
Mof_H 	H 	0.5852	0.4724	0.6041	-0.21
Mof_H 	H 	0.4502	0.7041	0.5333	-0.133
Mof_H 	H 	0.3383	0.5852	0.6041	-0.209
Mof_H 	H 	0.3124	0.4502	0.5333	-0.133
Mof_H 	H 	0.4724	0.3383	0.6041	-0.21
Mof_H 	H 	0.7041	0.3124	0.5333	-0.133
Mof_H 	H 	0.0852	0.8383	0.1041	-0.21
Mof_H 	H 	0.9502	0.8124	0.0333	-0.132
Mof_H 	H 	0.8383	0.9724	0.1041	-0.208
Mof_H 	H 	0.8124	0.2041	0.0333	-0.133
Mof_H 	H 	0.9724	0.0852	0.1041	-0.218
Mof_H 	H 	0.2041	0.9502	0.0333	-0.132
Mof_H 	H 	0.4148	0.5276	0.3959	-0.21
Mof_H 	H 	0.5498	0.2959	0.4667	-0.133
Mof_H 	H 	0.6617	0.4148	0.3959	-0.209
Mof_H 	H 	0.6876	0.5498	0.4667	-0.133
Mof_H 	H 	0.5276	0.6617	0.3959	-0.21
Mof_H 	H 	0.2959	0.6876	0.4667	-0.133
Mof_C 	C 	0.94329	0.19539	0.87403	-0.035
Mof_C 	C 	0.03108	0.23698	0.81076	-0.428
Mof_C 	C 	0.98154	0.30114	0.84148	-0.356
Mof_C 	C 	0.97695	0.38875	0.84055	0.889
Mof_C 	C 	0.09905	0.22375	0.76345	0.963
Mof_C 	C 	0.01717	0.23007	0.98749	0.088
Mof_C 	C 	0.91136	0.34486	0.01812	-0.295
Mof_C 	C 	0.97717	0.29717	0.04929	-0.281
Mof_C 	C 	0.82886	0.43056	0.01662	0.614
Mof_C 	C 	0.9922	0.3071	0.096	0.626
Mof_C 	C 	0.19539	0.98729	0.87403	-0.036
Mof_C 	C 	0.23698	0.92118	0.81076	-0.43
Mof_C 	C 	0.30114	0.87584	0.84148	-0.354
Mof_C 	C 	0.38875	0.79375	0.84055	0.888
Mof_C 	C 	0.22375	0.91375	0.76345	0.964
Mof_C 	C 	0.23007	0.76527	0.98749	0.091
Mof_C 	C 	0.34486	0.72566	0.01812	-0.295
Mof_C 	C 	0.29717	0.67637	0.04929	-0.279
Mof_C 	C 	0.43056	0.72396	0.01662	0.615
Mof_C 	C 	0.3071	0.6047	0.096	0.63
Mof_C 	C 	0.98729	0.94329	0.87403	-0.017
Mof_C 	C 	0.92118	0.03108	0.81076	-0.435
Mof_C 	C 	0.87584	0.98154	0.84148	-0.35
Mof_C 	C 	0.79375	0.97695	0.84055	0.891
Mof_C 	C 	0.91375	0.09905	0.76345	0.965
Mof_C 	C 	0.76527	0.01717	0.98749	0.085
Mof_C 	C 	0.72566	0.91136	0.01812	-0.297
Mof_C 	C 	0.67637	0.97717	0.04929	-0.278
Mof_C 	C 	0.72396	0.82886	0.01662	0.613
Mof_C 	C 	0.6047	0.9922	0.096	0.629
Mof_C 	C 	0.55671	0.51271	0.62597	-0.033
Mof_C 	C 	0.46892	0.57882	0.68924	-0.429
Mof_C 	C 	0.51846	0.62416	0.65852	-0.354
Mof_C 	C 	0.52305	0.70625	0.65945	0.888
Mof_C 	C 	0.40095	0.58625	0.73655	0.964
Mof_C 	C 	0.48283	0.73473	0.51251	0.093
Mof_C 	C 	0.58864	0.77434	0.48188	-0.294
Mof_C 	C 	0.52283	0.82363	0.45071	-0.279
Mof_C 	C 	0.67114	0.77604	0.48338	0.616
Mof_C 	C 	0.5078	0.8953	0.404	0.631
Mof_C 	C 	0.30461	0.55671	0.62597	-0.033
Mof_C 	C 	0.26302	0.46892	0.68924	-0.429
Mof_C 	C 	0.19886	0.51846	0.65852	-0.354
Mof_C 	C 	0.11125	0.52305	0.65945	0.888
Mof_C 	C 	0.27625	0.40095	0.73655	0.964
Mof_C 	C 	0.26993	0.48283	0.51251	0.093
Mof_C 	C 	0.15514	0.58864	0.48188	-0.294
Mof_C 	C 	0.20283	0.52283	0.45071	-0.278
Mof_C 	C 	0.06944	0.67114	0.48338	0.616
Mof_C 	C 	0.1929	0.5078	0.404	0.63
Mof_C 	C 	0.51271	0.30461	0.62597	-0.033
Mof_C 	C 	0.57882	0.26302	0.68924	-0.429
Mof_C 	C 	0.62416	0.19886	0.65852	-0.354
Mof_C 	C 	0.70625	0.11125	0.65945	0.888
Mof_C 	C 	0.58625	0.27625	0.73655	0.963
Mof_C 	C 	0.73473	0.26993	0.51251	0.092
Mof_C 	C 	0.77434	0.15514	0.48188	-0.294
Mof_C 	C 	0.82363	0.20283	0.45071	-0.278
Mof_C 	C 	0.77604	0.06944	0.48338	0.616
Mof_C 	C 	0.8953	0.1929	0.404	0.63
Mof_C 	C 	0.05671	0.80461	0.12597	-0.035
Mof_C 	C 	0.96892	0.76302	0.18924	-0.428
Mof_C 	C 	0.01846	0.69886	0.15852	-0.356
Mof_C 	C 	0.02305	0.61125	0.15945	0.889
Mof_C 	C 	0.90095	0.77625	0.23655	0.963
Mof_C 	C 	0.98283	0.76993	0.01251	0.088
Mof_C 	C 	0.08864	0.65514	0.98188	-0.295
Mof_C 	C 	0.02283	0.70283	0.95071	-0.281
Mof_C 	C 	0.17114	0.56944	0.98338	0.614
Mof_C 	C 	0.0078	0.6929	0.904	0.626
Mof_C 	C 	0.80461	0.01271	0.12597	-0.036
Mof_C 	C 	0.76302	0.07882	0.18924	-0.43
Mof_C 	C 	0.69886	0.12416	0.15852	-0.354
Mof_C 	C 	0.61125	0.20625	0.15945	0.888
Mof_C 	C 	0.77625	0.08625	0.23655	0.964
Mof_C 	C 	0.76993	0.23473	0.01251	0.091
Mof_C 	C 	0.65514	0.27434	0.98188	-0.295
Mof_C 	C 	0.70283	0.32363	0.95071	-0.279
Mof_C 	C 	0.56944	0.27604	0.98338	0.615
Mof_C 	C 	0.6929	0.3953	0.904	0.63
Mof_C 	C 	0.01271	0.05671	0.12597	-0.017
Mof_C 	C 	0.07882	0.96892	0.18924	-0.435
Mof_C 	C 	0.12416	0.01846	0.15852	-0.35
Mof_C 	C 	0.20625	0.02305	0.15945	0.891
Mof_C 	C 	0.08625	0.90095	0.23655	0.965
Mof_C 	C 	0.23473	0.98283	0.01251	0.085
Mof_C 	C 	0.27434	0.08864	0.98188	-0.297
Mof_C 	C 	0.32363	0.02283	0.95071	-0.278
Mof_C 	C 	0.27604	0.17114	0.98338	0.613
Mof_C 	C 	0.3953	0.0078	0.904	0.629
Mof_C 	C 	0.44329	0.48729	0.37403	-0.033
Mof_C 	C 	0.53108	0.42118	0.31076	-0.429
Mof_C 	C 	0.48154	0.37584	0.34148	-0.354
Mof_C 	C 	0.47695	0.29375	0.34055	0.888
Mof_C 	C 	0.59905	0.41375	0.26345	0.964
Mof_C 	C 	0.51717	0.26527	0.48749	0.093
Mof_C 	C 	0.41136	0.22566	0.51812	-0.294
Mof_C 	C 	0.47717	0.17637	0.54929	-0.279
Mof_C 	C 	0.32886	0.22396	0.51662	0.616
Mof_C 	C 	0.4922	0.1047	0.596	0.631
Mof_C 	C 	0.69539	0.44329	0.37403	-0.033
Mof_C 	C 	0.73698	0.53108	0.31076	-0.429
Mof_C 	C 	0.80114	0.48154	0.34148	-0.354
Mof_C 	C 	0.88875	0.47695	0.34055	0.888
Mof_C 	C 	0.72375	0.59905	0.26345	0.964
Mof_C 	C 	0.73007	0.51717	0.48749	0.093
Mof_C 	C 	0.84486	0.41136	0.51812	-0.294
Mof_C 	C 	0.79717	0.47717	0.54929	-0.278
Mof_C 	C 	0.93056	0.32886	0.51662	0.616
Mof_C 	C 	0.8071	0.4922	0.596	0.63
Mof_C 	C 	0.48729	0.69539	0.37403	-0.033
Mof_C 	C 	0.42118	0.73698	0.31076	-0.429
Mof_C 	C 	0.37584	0.80114	0.34148	-0.354
Mof_C 	C 	0.29375	0.88875	0.34055	0.888
Mof_C 	C 	0.41375	0.72375	0.26345	0.963
Mof_C 	C 	0.26527	0.73007	0.48749	0.092
Mof_C 	C 	0.22566	0.84486	0.51812	-0.294
Mof_C 	C 	0.17637	0.79717	0.54929	-0.278
Mof_C 	C 	0.22396	0.93056	0.51662	0.616
Mof_C 	C 	0.1047	0.8071	0.596	0.63
Mof_N 	N 	0.00421	0.17071	0.83257	-0.292
Mof_N 	N 	0.92715	0.27425	0.88075	-0.227
Mof_N 	N 	0.93996	0.30146	0.97882	-0.237
Mof_N 	N 	0.04224	0.22594	0.02838	-0.241
Mof_N 	N 	0.17071	0.99251	0.83257	-0.293
Mof_N 	N 	0.27425	0.91785	0.88075	-0.227
Mof_N 	N 	0.30146	0.77976	0.97882	-0.237
Mof_N 	N 	0.22594	0.70344	0.02838	-0.244
Mof_N 	N 	0.99251	0.00421	0.83257	-0.298
Mof_N 	N 	0.91785	0.92715	0.88075	-0.23
Mof_N 	N 	0.77976	0.93996	0.97882	-0.233
Mof_N 	N 	0.70344	0.04224	0.02838	-0.243
Mof_N 	N 	0.49579	0.50749	0.66743	-0.293
Mof_N 	N 	0.57285	0.58215	0.61925	-0.228
Mof_N 	N 	0.56004	0.72024	0.52118	-0.237
Mof_N 	N 	0.45776	0.79656	0.47162	-0.244
Mof_N 	N 	0.32929	0.49579	0.66743	-0.293
Mof_N 	N 	0.22575	0.57285	0.61925	-0.228
Mof_N 	N 	0.19854	0.56004	0.52118	-0.237
Mof_N 	N 	0.27406	0.45776	0.47162	-0.244
Mof_N 	N 	0.50749	0.32929	0.66743	-0.293
Mof_N 	N 	0.58215	0.22575	0.61925	-0.228
Mof_N 	N 	0.72024	0.19854	0.52118	-0.237
Mof_N 	N 	0.79656	0.27406	0.47162	-0.244
Mof_N 	N 	0.99579	0.82929	0.16743	-0.292
Mof_N 	N 	0.07285	0.72575	0.11925	-0.227
Mof_N 	N 	0.06004	0.69854	0.02118	-0.237
Mof_N 	N 	0.95776	0.77406	0.97162	-0.241
Mof_N 	N 	0.82929	0.00749	0.16743	-0.293
Mof_N 	N 	0.72575	0.08215	0.11925	-0.227
Mof_N 	N 	0.69854	0.22024	0.02118	-0.237
Mof_N 	N 	0.77406	0.29656	0.97162	-0.244
Mof_N 	N 	0.00749	0.99579	0.16743	-0.298
Mof_N 	N 	0.08215	0.07285	0.11925	-0.23
Mof_N 	N 	0.22024	0.06004	0.02118	-0.233
Mof_N 	N 	0.29656	0.95776	0.97162	-0.243
Mof_N 	N 	0.50421	0.49251	0.33257	-0.293
Mof_N 	N 	0.42715	0.41785	0.38075	-0.228
Mof_N 	N 	0.43996	0.27976	0.47882	-0.237
Mof_N 	N 	0.54224	0.20344	0.52838	-0.244
Mof_N 	N 	0.67071	0.50421	0.33257	-0.293
Mof_N 	N 	0.77425	0.42715	0.38075	-0.228
Mof_N 	N 	0.80146	0.43996	0.47882	-0.237
Mof_N 	N 	0.72594	0.54224	0.52838	-0.244
Mof_N 	N 	0.49251	0.67071	0.33257	-0.293
Mof_N 	N 	0.41785	0.77425	0.38075	-0.228
Mof_N 	N 	0.27976	0.80146	0.47882	-0.237
Mof_N 	N 	0.20344	0.72594	0.52838	-0.244
Mof_O 	O 	0.92101	0.42771	0.87757	-0.567
Mof_O 	O 	0.02466	0.42086	0.80662	-2.5
Mof_O 	O 	0.12634	0.15204	0.74818	-0.599
Mof_O 	O 	0.12959	0.27919	0.74023	-2.64
Mof_O 	O 	0.79344	0.45324	0.97798	-0.486
Mof_O 	O 	0.79793	0.47503	0.05031	-1.721
Mof_O 	O 	0.06615	0.25395	0.10845	-0.548
Mof_O 	O 	0.92928	0.36618	0.12036	-1.662
Mof_O 	O 	0.7422	0.5133	0.1632	-1.566
Mof_O 	O 	0.74391	0.34971	0.14727	-1.765
Mof_O 	O 	0.42771	0.77371	0.87757	-0.567
Mof_O 	O 	0.42086	0.74786	0.80662	-2.499
Mof_O 	O 	0.15204	0.97344	0.74818	-0.601
Mof_O 	O 	0.27919	0.85099	0.74023	-2.64
Mof_O 	O 	0.45324	0.77534	0.97798	-0.486
Mof_O 	O 	0.47503	0.67673	0.05031	-1.721
Mof_O 	O 	0.25395	0.57145	0.10845	-0.551
Mof_O 	O 	0.36618	0.58418	0.12036	-1.663
Mof_O 	O 	0.5133	0.5813	0.1632	-1.566
Mof_O 	O 	0.34971	0.75911	0.14727	-1.766
Mof_O 	O 	0.77371	0.92101	0.87757	-0.567
Mof_O 	O 	0.74786	0.02466	0.80662	-2.502
Mof_O 	O 	0.97344	0.12634	0.74818	-0.602
Mof_O 	O 	0.85099	0.12959	0.74023	-2.64
Mof_O 	O 	0.77534	0.79344	0.97798	-0.485
Mof_O 	O 	0.67673	0.79793	0.05031	-1.721
Mof_O 	O 	0.57145	0.06615	0.10845	-0.55
Mof_O 	O 	0.58418	0.92928	0.12036	-1.663
Mof_O 	O 	0.5813	0.7422	0.1632	-1.566
Mof_O 	O 	0.75911	0.74391	0.14727	-1.765
Mof_O 	O 	0.57899	0.72629	0.62243	-0.567
Mof_O 	O 	0.47534	0.75214	0.69338	-2.499
Mof_O 	O 	0.37366	0.52656	0.75182	-0.6
Mof_O 	O 	0.37041	0.64901	0.75977	-2.64
Mof_O 	O 	0.70656	0.72466	0.52202	-0.486
Mof_O 	O 	0.70207	0.82327	0.44969	-1.721
Mof_O 	O 	0.43385	0.92855	0.39155	-0.551
Mof_O 	O 	0.57072	0.91582	0.37964	-1.663
Mof_O 	O 	0.7578	0.9187	0.3368	-1.565
Mof_O 	O 	0.75609	0.74089	0.35273	-1.766
Mof_O 	O 	0.07229	0.57899	0.62243	-0.568
Mof_O 	O 	0.07914	0.47534	0.69338	-2.5
Mof_O 	O 	0.34796	0.37366	0.75182	-0.6
Mof_O 	O 	0.22081	0.37041	0.75977	-2.64
Mof_O 	O 	0.04676	0.70656	0.52202	-0.487
Mof_O 	O 	0.02497	0.70207	0.44969	-1.72
Mof_O 	O 	0.24605	0.43385	0.39155	-0.55
Mof_O 	O 	0.13382	0.57072	0.37964	-1.662
Mof_O 	O 	0.9867	0.7578	0.3368	-1.563
Mof_O 	O 	0.15029	0.75609	0.35273	-1.764
Mof_O 	O 	0.72629	0.07229	0.62243	-0.568
Mof_O 	O 	0.75214	0.07914	0.69338	-2.5
Mof_O 	O 	0.52656	0.34796	0.75182	-0.6
Mof_O 	O 	0.64901	0.22081	0.75977	-2.639
Mof_O 	O 	0.72466	0.04676	0.52202	-0.487
Mof_O 	O 	0.82327	0.02497	0.44969	-1.719
Mof_O 	O 	0.92855	0.24605	0.39155	-0.551
Mof_O 	O 	0.91582	0.13382	0.37964	-1.661
Mof_O 	O 	0.9187	0.9867	0.3368	-1.561
Mof_O 	O 	0.74089	0.15029	0.35273	-1.763
Mof_O 	O 	0.07899	0.57229	0.12243	-0.567
Mof_O 	O 	0.97534	0.57914	0.19338	-2.5
Mof_O 	O 	0.87366	0.84796	0.25182	-0.599
Mof_O 	O 	0.87041	0.72081	0.25977	-2.64
Mof_O 	O 	0.20656	0.54676	0.02202	-0.486
Mof_O 	O 	0.20207	0.52497	0.94969	-1.721
Mof_O 	O 	0.93385	0.74605	0.89155	-0.548
Mof_O 	O 	0.07072	0.63382	0.87964	-1.662
Mof_O 	O 	0.2578	0.4867	0.8368	-1.566
Mof_O 	O 	0.25609	0.65029	0.85273	-1.765
Mof_O 	O 	0.57229	0.22629	0.12243	-0.567
Mof_O 	O 	0.57914	0.25214	0.19338	-2.499
Mof_O 	O 	0.84796	0.02656	0.25182	-0.601
Mof_O 	O 	0.72081	0.14901	0.25977	-2.64
Mof_O 	O 	0.54676	0.22466	0.02202	-0.486
Mof_O 	O 	0.52497	0.32327	0.94969	-1.721
Mof_O 	O 	0.74605	0.42855	0.89155	-0.551
Mof_O 	O 	0.63382	0.41582	0.87964	-1.663
Mof_O 	O 	0.4867	0.4187	0.8368	-1.566
Mof_O 	O 	0.65029	0.24089	0.85273	-1.766
Mof_O 	O 	0.22629	0.07899	0.12243	-0.567
Mof_O 	O 	0.25214	0.97534	0.19338	-2.502
Mof_O 	O 	0.02656	0.87366	0.25182	-0.602
Mof_O 	O 	0.14901	0.87041	0.25977	-2.64
Mof_O 	O 	0.22466	0.20656	0.02202	-0.485
Mof_O 	O 	0.32327	0.20207	0.94969	-1.721
Mof_O 	O 	0.42855	0.93385	0.89155	-0.55
Mof_O 	O 	0.41582	0.07072	0.87964	-1.663
Mof_O 	O 	0.4187	0.2578	0.8368	-1.566
Mof_O 	O 	0.24089	0.25609	0.85273	-1.765
Mof_O 	O 	0.42101	0.27371	0.37757	-0.567
Mof_O 	O 	0.52466	0.24786	0.30662	-2.499
Mof_O 	O 	0.62634	0.47344	0.24818	-0.6
Mof_O 	O 	0.62959	0.35099	0.24023	-2.64
Mof_O 	O 	0.29344	0.27534	0.47798	-0.486
Mof_O 	O 	0.29793	0.17673	0.55031	-1.721
Mof_O 	O 	0.56615	0.07145	0.60845	-0.551
Mof_O 	O 	0.42928	0.08418	0.62036	-1.663
Mof_O 	O 	0.2422	0.0813	0.6632	-1.565
Mof_O 	O 	0.24391	0.25911	0.64727	-1.766
Mof_O 	O 	0.92771	0.42101	0.37757	-0.568
Mof_O 	O 	0.92086	0.52466	0.30662	-2.5
Mof_O 	O 	0.65204	0.62634	0.24818	-0.6
Mof_O 	O 	0.77919	0.62959	0.24023	-2.64
Mof_O 	O 	0.95324	0.29344	0.47798	-0.487
Mof_O 	O 	0.97503	0.29793	0.55031	-1.72
Mof_O 	O 	0.75395	0.56615	0.60845	-0.55
Mof_O 	O 	0.86618	0.42928	0.62036	-1.662
Mof_O 	O 	0.0133	0.2422	0.6632	-1.563
Mof_O 	O 	0.84971	0.24391	0.64727	-1.764
Mof_O 	O 	0.27371	0.92771	0.37757	-0.568
Mof_O 	O 	0.24786	0.92086	0.30662	-2.5
Mof_O 	O 	0.47344	0.65204	0.24818	-0.6
Mof_O 	O 	0.35099	0.77919	0.24023	-2.639
Mof_O 	O 	0.27534	0.95324	0.47798	-0.487
Mof_O 	O 	0.17673	0.97503	0.55031	-1.719
Mof_O 	O 	0.07145	0.75395	0.60845	-0.551
Mof_O 	O 	0.08418	0.86618	0.62036	-1.661
Mof_O 	O 	0.0813	0.0133	0.6632	-1.561
Mof_O 	O 	0.25911	0.84971	0.64727	-1.763
Mof_Li	Li	0.0685	0.75	0.75	0.471
Mof_Li	Li	0.75	0.4315	0.75	0.475
Mof_Li	Li	0.4315	0.0685	0.75	0.474
Mof_Li	Li	0.9315	0.25	0.25	0.471
Mof_Li	Li	0.25	0.5685	0.25	0.475
Mof_Li	Li	0.5685	0.9315	0.25	0.474
_end
