data_functionalizedCrystal
_audit_creation_method	'EQeq! by Chris Wilmer'
_symmetry_space_group_name_H-M	'P1'
_symmetry_Int_Tables_number	1
_symmetry_cell_setting	triclinic
loop_
_symmetry_equiv_pos_as_xyz
  x,y,z
_cell_length_a	28.9057
_cell_length_b	28.9057
_cell_length_c	28.9057
_cell_angle_alpha	90
_cell_angle_beta	90
_cell_angle_gamma	90
loop_
_atom_site_label
_atom_site_type_symbol
_atom_site_fract_x
_atom_site_fract_y
_atom_site_fract_z
_atom_site_charge
Mof_O 	O 	0.9956	0.30547	0.126	-0.529
Mof_O 	O 	0.95195	0.24203	0.12496	-0.504
Mof_O 	O 	0.91825	0.30993	0.12598	-0.983
Mof_C 	C 	0.95547	0.28666	0.12559	0.7
Mof_O 	O 	0.9956	0.80547	0.626	-0.528
Mof_O 	O 	0.95195	0.74203	0.62496	-0.502
Mof_O 	O 	0.91825	0.80993	0.62598	-0.99
Mof_C 	C 	0.95547	0.78666	0.62559	0.704
Mof_O 	O 	0.4956	0.30547	0.626	-0.557
Mof_O 	O 	0.45195	0.24203	0.62496	-0.513
Mof_O 	O 	0.41825	0.30993	0.62598	-0.988
Mof_C 	C 	0.45547	0.28666	0.62559	0.704
Mof_O 	O 	0.4956	0.80547	0.126	-0.56
Mof_O 	O 	0.45195	0.74203	0.12496	-0.516
Mof_O 	O 	0.41825	0.80993	0.12598	-0.991
Mof_C 	C 	0.45547	0.78666	0.12559	0.704
Mof_O 	O 	0.2544	0.44453	0.626	-0.557
Mof_O 	O 	0.29805	0.50797	0.62496	-0.513
Mof_O 	O 	0.33175	0.44007	0.62598	-0.988
Mof_C 	C 	0.29453	0.46334	0.62559	0.704
Mof_O 	O 	0.2544	0.94453	0.126	-0.563
Mof_O 	O 	0.29805	0.00797	0.12496	-0.565
Mof_O 	O 	0.33175	0.94007	0.12598	-0.991
Mof_C 	C 	0.29453	0.96334	0.12559	0.761
Mof_O 	O 	0.7544	0.44453	0.126	-0.56
Mof_O 	O 	0.79805	0.50797	0.12496	-0.517
Mof_O 	O 	0.83175	0.44007	0.12598	-0.991
Mof_C 	C 	0.79453	0.46334	0.12559	0.704
Mof_O 	O 	0.7544	0.94453	0.626	-0.561
Mof_O 	O 	0.79805	0.00797	0.62496	-0.562
Mof_O 	O 	0.83175	0.94007	0.62598	-0.996
Mof_C 	C 	0.79453	0.96334	0.62559	0.765
Mof_O 	O 	0.7544	0.80547	0.124	-0.561
Mof_O 	O 	0.79805	0.74203	0.12504	-0.518
Mof_O 	O 	0.83175	0.80993	0.12402	-0.995
Mof_C 	C 	0.79453	0.78666	0.12441	0.705
Mof_O 	O 	0.7544	0.30547	0.624	-0.558
Mof_O 	O 	0.79805	0.24203	0.62504	-0.514
Mof_O 	O 	0.83175	0.30993	0.62402	-0.992
Mof_C 	C 	0.79453	0.28666	0.62441	0.706
Mof_O 	O 	0.2544	0.80547	0.624	-0.558
Mof_O 	O 	0.29805	0.74203	0.62504	-0.513
Mof_O 	O 	0.33175	0.80993	0.62402	-0.992
Mof_C 	C 	0.29453	0.78666	0.62441	0.706
Mof_O 	O 	0.2544	0.30547	0.124	-0.56
Mof_O 	O 	0.29805	0.24203	0.12504	-0.517
Mof_O 	O 	0.33175	0.30993	0.12402	-0.987
Mof_C 	C 	0.29453	0.28666	0.12441	0.702
Mof_O 	O 	0.4956	0.94453	0.624	-0.56
Mof_O 	O 	0.45195	0.00797	0.62504	-0.561
Mof_O 	O 	0.41825	0.94007	0.62402	-0.992
Mof_C 	C 	0.45547	0.96334	0.62441	0.763
Mof_O 	O 	0.4956	0.44453	0.124	-0.559
Mof_O 	O 	0.45195	0.50797	0.12504	-0.516
Mof_O 	O 	0.41825	0.44007	0.12402	-0.987
Mof_C 	C 	0.45547	0.46334	0.12441	0.702
Mof_O 	O 	0.9956	0.94453	0.124	-0.533
Mof_O 	O 	0.95195	0.00797	0.12504	-0.553
Mof_O 	O 	0.91825	0.94007	0.12402	-0.989
Mof_C 	C 	0.95547	0.96334	0.12441	0.759
Mof_O 	O 	0.9956	0.44453	0.624	-0.527
Mof_O 	O 	0.95195	0.50797	0.62504	-0.501
Mof_O 	O 	0.91825	0.44007	0.62402	-0.986
Mof_C 	C 	0.95547	0.46334	0.62441	0.703
Mof_O 	O 	0.126	0.9956	0.30547	-0.53
Mof_O 	O 	0.12496	0.95195	0.24203	-0.505
Mof_O 	O 	0.12598	0.91825	0.30993	-0.984
Mof_C 	C 	0.12559	0.95547	0.28666	0.7
Mof_O 	O 	0.126	0.4956	0.80547	-0.56
Mof_O 	O 	0.12496	0.45195	0.74203	-0.516
Mof_O 	O 	0.12598	0.41825	0.80993	-0.991
Mof_C 	C 	0.12559	0.45547	0.78666	0.704
Mof_O 	O 	0.626	0.9956	0.80547	-0.528
Mof_O 	O 	0.62496	0.95195	0.74203	-0.502
Mof_O 	O 	0.62598	0.91825	0.80993	-0.99
Mof_C 	C 	0.62559	0.95547	0.78666	0.704
Mof_O 	O 	0.626	0.4956	0.30547	-0.557
Mof_O 	O 	0.62496	0.45195	0.24203	-0.513
Mof_O 	O 	0.62598	0.41825	0.30993	-0.988
Mof_C 	C 	0.62559	0.45547	0.28666	0.704
Mof_O 	O 	0.626	0.2544	0.44453	-0.557
Mof_O 	O 	0.62496	0.29805	0.50797	-0.513
Mof_O 	O 	0.62598	0.33175	0.44007	-0.988
Mof_C 	C 	0.62559	0.29453	0.46334	0.704
Mof_O 	O 	0.626	0.7544	0.94453	-0.561
Mof_O 	O 	0.62496	0.79805	0.00797	-0.562
Mof_O 	O 	0.62598	0.83175	0.94007	-0.996
Mof_C 	C 	0.62559	0.79453	0.96334	0.765
Mof_O 	O 	0.126	0.2544	0.94453	-0.563
Mof_O 	O 	0.12496	0.29805	0.00797	-0.565
Mof_O 	O 	0.12598	0.33175	0.94007	-0.991
Mof_C 	C 	0.12559	0.29453	0.96334	0.761
Mof_O 	O 	0.126	0.7544	0.44453	-0.56
Mof_O 	O 	0.12496	0.79805	0.50797	-0.517
Mof_O 	O 	0.12598	0.83175	0.44007	-0.991
Mof_C 	C 	0.12559	0.79453	0.46334	0.704
Mof_O 	O 	0.124	0.7544	0.80547	-0.561
Mof_O 	O 	0.12504	0.79805	0.74203	-0.518
Mof_O 	O 	0.12402	0.83175	0.80993	-0.995
Mof_C 	C 	0.12441	0.79453	0.78666	0.705
Mof_O 	O 	0.124	0.2544	0.30547	-0.56
Mof_O 	O 	0.12504	0.29805	0.24203	-0.517
Mof_O 	O 	0.12402	0.33175	0.30993	-0.987
Mof_C 	C 	0.12441	0.29453	0.28666	0.702
Mof_O 	O 	0.624	0.7544	0.30547	-0.558
Mof_O 	O 	0.62504	0.79805	0.24203	-0.514
Mof_O 	O 	0.62402	0.83175	0.30993	-0.992
Mof_C 	C 	0.62441	0.79453	0.28666	0.706
Mof_O 	O 	0.624	0.2544	0.80547	-0.558
Mof_O 	O 	0.62504	0.29805	0.74203	-0.513
Mof_O 	O 	0.62402	0.33175	0.80993	-0.992
Mof_C 	C 	0.62441	0.29453	0.78666	0.706
Mof_O 	O 	0.624	0.4956	0.94453	-0.56
Mof_O 	O 	0.62504	0.45195	0.00797	-0.561
Mof_O 	O 	0.62402	0.41825	0.94007	-0.992
Mof_C 	C 	0.62441	0.45547	0.96334	0.763
Mof_O 	O 	0.624	0.9956	0.44453	-0.527
Mof_O 	O 	0.62504	0.95195	0.50797	-0.501
Mof_O 	O 	0.62402	0.91825	0.44007	-0.986
Mof_C 	C 	0.62441	0.95547	0.46334	0.703
Mof_O 	O 	0.124	0.4956	0.44453	-0.559
Mof_O 	O 	0.12504	0.45195	0.50797	-0.516
Mof_O 	O 	0.12402	0.41825	0.44007	-0.987
Mof_C 	C 	0.12441	0.45547	0.46334	0.702
Mof_O 	O 	0.124	0.9956	0.94453	-0.533
Mof_O 	O 	0.12504	0.95195	0.00797	-0.553
Mof_O 	O 	0.12402	0.91825	0.94007	-0.989
Mof_C 	C 	0.12441	0.95547	0.96334	0.759
Mof_O 	O 	0.30547	0.126	0.9956	-0.53
Mof_O 	O 	0.24203	0.12496	0.95195	-0.505
Mof_O 	O 	0.30993	0.12598	0.91825	-0.984
Mof_C 	C 	0.28666	0.12559	0.95547	0.7
Mof_O 	O 	0.30547	0.626	0.4956	-0.557
Mof_O 	O 	0.24203	0.62496	0.45195	-0.513
Mof_O 	O 	0.30993	0.62598	0.41825	-0.988
Mof_C 	C 	0.28666	0.62559	0.45547	0.704
Mof_O 	O 	0.80547	0.126	0.4956	-0.56
Mof_O 	O 	0.74203	0.12496	0.45195	-0.516
Mof_O 	O 	0.80993	0.12598	0.41825	-0.991
Mof_C 	C 	0.78666	0.12559	0.45547	0.704
Mof_O 	O 	0.80547	0.626	0.9956	-0.528
Mof_O 	O 	0.74203	0.62496	0.95195	-0.502
Mof_O 	O 	0.80993	0.62598	0.91825	-0.99
Mof_C 	C 	0.78666	0.62559	0.95547	0.704
Mof_O 	O 	0.44453	0.626	0.2544	-0.557
Mof_O 	O 	0.50797	0.62496	0.29805	-0.513
Mof_O 	O 	0.44007	0.62598	0.33175	-0.988
Mof_C 	C 	0.46334	0.62559	0.29453	0.704
Mof_O 	O 	0.44453	0.126	0.7544	-0.56
Mof_O 	O 	0.50797	0.12496	0.79805	-0.517
Mof_O 	O 	0.44007	0.12598	0.83175	-0.991
Mof_C 	C 	0.46334	0.12559	0.79453	0.704
Mof_O 	O 	0.94453	0.626	0.7544	-0.561
Mof_O 	O 	0.00797	0.62496	0.79805	-0.562
Mof_O 	O 	0.94007	0.62598	0.83175	-0.996
Mof_C 	C 	0.96334	0.62559	0.79453	0.765
Mof_O 	O 	0.94453	0.126	0.2544	-0.563
Mof_O 	O 	0.00797	0.12496	0.29805	-0.565
Mof_O 	O 	0.94007	0.12598	0.33175	-0.991
Mof_C 	C 	0.96334	0.12559	0.29453	0.761
Mof_O 	O 	0.80547	0.124	0.7544	-0.561
Mof_O 	O 	0.74203	0.12504	0.79805	-0.518
Mof_O 	O 	0.80993	0.12402	0.83175	-0.995
Mof_C 	C 	0.78666	0.12441	0.79453	0.705
Mof_O 	O 	0.80547	0.624	0.2544	-0.558
Mof_O 	O 	0.74203	0.62504	0.29805	-0.513
Mof_O 	O 	0.80993	0.62402	0.33175	-0.992
Mof_C 	C 	0.78666	0.62441	0.29453	0.706
Mof_O 	O 	0.30547	0.124	0.2544	-0.56
Mof_O 	O 	0.24203	0.12504	0.29805	-0.517
Mof_O 	O 	0.30993	0.12402	0.33175	-0.987
Mof_C 	C 	0.28666	0.12441	0.29453	0.702
Mof_O 	O 	0.30547	0.624	0.7544	-0.558
Mof_O 	O 	0.24203	0.62504	0.79805	-0.514
Mof_O 	O 	0.30993	0.62402	0.83175	-0.992
Mof_C 	C 	0.28666	0.62441	0.79453	0.706
Mof_O 	O 	0.94453	0.624	0.4956	-0.56
Mof_O 	O 	0.00797	0.62504	0.45195	-0.561
Mof_O 	O 	0.94007	0.62402	0.41825	-0.992
Mof_C 	C 	0.96334	0.62441	0.45547	0.763
Mof_O 	O 	0.94453	0.124	0.9956	-0.533
Mof_O 	O 	0.00797	0.12504	0.95195	-0.553
Mof_O 	O 	0.94007	0.12402	0.91825	-0.989
Mof_C 	C 	0.96334	0.12441	0.95547	0.759
Mof_O 	O 	0.44453	0.624	0.9956	-0.527
Mof_O 	O 	0.50797	0.62504	0.95195	-0.501
Mof_O 	O 	0.44007	0.62402	0.91825	-0.986
Mof_C 	C 	0.46334	0.62441	0.95547	0.703
Mof_O 	O 	0.44453	0.124	0.4956	-0.559
Mof_O 	O 	0.50797	0.12504	0.45195	-0.516
Mof_O 	O 	0.44007	0.12402	0.41825	-0.987
Mof_C 	C 	0.46334	0.12441	0.45547	0.702
Mof_O 	O 	0.05547	0.2456	0.874	-0.551
Mof_O 	O 	0.99203	0.20195	0.87504	-0.455
Mof_O 	O 	0.05993	0.16825	0.87402	-0.976
Mof_C 	C 	0.03666	0.20547	0.87441	0.645
Mof_O 	O 	0.05547	0.7456	0.374	-0.553
Mof_O 	O 	0.99203	0.70195	0.37504	-0.458
Mof_O 	O 	0.05993	0.66825	0.37402	-0.978
Mof_C 	C 	0.03666	0.70547	0.37441	0.644
Mof_O 	O 	0.55547	0.2456	0.374	-0.556
Mof_O 	O 	0.49203	0.20195	0.37504	-0.511
Mof_O 	O 	0.55993	0.16825	0.37402	-0.985
Mof_C 	C 	0.53666	0.20547	0.37441	0.702
Mof_O 	O 	0.55547	0.7456	0.874	-0.554
Mof_O 	O 	0.49203	0.70195	0.87504	-0.508
Mof_O 	O 	0.55993	0.66825	0.87402	-0.989
Mof_C 	C 	0.53666	0.70547	0.87441	0.706
Mof_O 	O 	0.19453	0.5044	0.374	-0.556
Mof_O 	O 	0.25797	0.54805	0.37504	-0.512
Mof_O 	O 	0.19007	0.58175	0.37402	-0.985
Mof_C 	C 	0.21334	0.54453	0.37441	0.702
Mof_O 	O 	0.19453	0.0044	0.874	-0.576
Mof_O 	O 	0.25797	0.04805	0.87504	-0.519
Mof_O 	O 	0.19007	0.08175	0.87402	-0.987
Mof_C 	C 	0.21334	0.04453	0.87441	0.704
Mof_O 	O 	0.69453	0.5044	0.874	-0.554
Mof_O 	O 	0.75797	0.54805	0.87504	-0.508
Mof_O 	O 	0.69007	0.58175	0.87402	-0.989
Mof_C 	C 	0.71334	0.54453	0.87441	0.706
Mof_O 	O 	0.69453	0.0044	0.374	-0.579
Mof_O 	O 	0.75797	0.04805	0.37504	-0.523
Mof_O 	O 	0.69007	0.08175	0.37402	-0.989
Mof_C 	C 	0.71334	0.04453	0.37441	0.704
Mof_O 	O 	0.55547	0.0044	0.876	-0.578
Mof_O 	O 	0.49203	0.04805	0.87496	-0.52
Mof_O 	O 	0.55993	0.08175	0.87598	-0.99
Mof_C 	C 	0.53666	0.04453	0.87559	0.706
Mof_O 	O 	0.55547	0.5044	0.376	-0.557
Mof_O 	O 	0.49203	0.54805	0.37496	-0.512
Mof_O 	O 	0.55993	0.58175	0.37598	-0.988
Mof_C 	C 	0.53666	0.54453	0.37559	0.704
Mof_O 	O 	0.05547	0.0044	0.376	-0.577
Mof_O 	O 	0.99203	0.04805	0.37496	-0.47
Mof_O 	O 	0.05993	0.08175	0.37598	-0.979
Mof_C 	C 	0.03666	0.04453	0.37559	0.645
Mof_O 	O 	0.05547	0.5044	0.876	-0.552
Mof_O 	O 	0.99203	0.54805	0.87496	-0.455
Mof_O 	O 	0.05993	0.58175	0.87598	-0.979
Mof_C 	C 	0.03666	0.54453	0.87559	0.646
Mof_O 	O 	0.69453	0.7456	0.376	-0.556
Mof_O 	O 	0.75797	0.70195	0.37496	-0.511
Mof_O 	O 	0.69007	0.66825	0.37598	-0.988
Mof_C 	C 	0.71334	0.70547	0.37559	0.703
Mof_O 	O 	0.69453	0.2456	0.876	-0.554
Mof_O 	O 	0.75797	0.20195	0.87496	-0.507
Mof_O 	O 	0.69007	0.16825	0.87598	-0.986
Mof_C 	C 	0.71334	0.20547	0.87559	0.704
Mof_O 	O 	0.19453	0.7456	0.876	-0.553
Mof_O 	O 	0.25797	0.70195	0.87496	-0.507
Mof_O 	O 	0.19007	0.66825	0.87598	-0.986
Mof_C 	C 	0.21334	0.70547	0.87559	0.704
Mof_O 	O 	0.19453	0.2456	0.376	-0.555
Mof_O 	O 	0.25797	0.20195	0.37496	-0.511
Mof_O 	O 	0.19007	0.16825	0.37598	-0.982
Mof_C 	C 	0.21334	0.20547	0.37559	0.7
Mof_O 	O 	0.7456	0.376	0.69453	-0.556
Mof_O 	O 	0.70195	0.37496	0.75797	-0.511
Mof_O 	O 	0.66825	0.37598	0.69007	-0.988
Mof_C 	C 	0.70547	0.37559	0.71334	0.703
Mof_O 	O 	0.7456	0.876	0.19453	-0.553
Mof_O 	O 	0.70195	0.87496	0.25797	-0.507
Mof_O 	O 	0.66825	0.87598	0.19007	-0.986
Mof_C 	C 	0.70547	0.87559	0.21334	0.704
Mof_O 	O 	0.2456	0.376	0.19453	-0.555
Mof_O 	O 	0.20195	0.37496	0.25797	-0.511
Mof_O 	O 	0.16825	0.37598	0.19007	-0.982
Mof_C 	C 	0.20547	0.37559	0.21334	0.7
Mof_O 	O 	0.2456	0.876	0.69453	-0.554
Mof_O 	O 	0.20195	0.87496	0.75797	-0.507
Mof_O 	O 	0.16825	0.87598	0.69007	-0.986
Mof_C 	C 	0.20547	0.87559	0.71334	0.704
Mof_O 	O 	0.0044	0.876	0.55547	-0.578
Mof_O 	O 	0.04805	0.87496	0.49203	-0.52
Mof_O 	O 	0.08175	0.87598	0.55993	-0.99
Mof_C 	C 	0.04453	0.87559	0.53666	0.706
Mof_O 	O 	0.0044	0.376	0.05547	-0.577
Mof_O 	O 	0.04805	0.37496	0.99203	-0.47
Mof_O 	O 	0.08175	0.37598	0.05993	-0.979
Mof_C 	C 	0.04453	0.37559	0.03666	0.645
Mof_O 	O 	0.5044	0.876	0.05547	-0.552
Mof_O 	O 	0.54805	0.87496	0.99203	-0.455
Mof_O 	O 	0.58175	0.87598	0.05993	-0.979
Mof_C 	C 	0.54453	0.87559	0.03666	0.646
Mof_O 	O 	0.5044	0.376	0.55547	-0.557
Mof_O 	O 	0.54805	0.37496	0.49203	-0.512
Mof_O 	O 	0.58175	0.37598	0.55993	-0.988
Mof_C 	C 	0.54453	0.37559	0.53666	0.704
Mof_O 	O 	0.5044	0.374	0.19453	-0.556
Mof_O 	O 	0.54805	0.37504	0.25797	-0.512
Mof_O 	O 	0.58175	0.37402	0.19007	-0.985
Mof_C 	C 	0.54453	0.37441	0.21334	0.702
Mof_O 	O 	0.5044	0.874	0.69453	-0.554
Mof_O 	O 	0.54805	0.87504	0.75797	-0.508
Mof_O 	O 	0.58175	0.87402	0.69007	-0.989
Mof_C 	C 	0.54453	0.87441	0.71334	0.706
Mof_O 	O 	0.0044	0.374	0.69453	-0.579
Mof_O 	O 	0.04805	0.37504	0.75797	-0.523
Mof_O 	O 	0.08175	0.37402	0.69007	-0.989
Mof_C 	C 	0.04453	0.37441	0.71334	0.704
Mof_O 	O 	0.0044	0.874	0.19453	-0.576
Mof_O 	O 	0.04805	0.87504	0.25797	-0.519
Mof_O 	O 	0.08175	0.87402	0.19007	-0.987
Mof_C 	C 	0.04453	0.87441	0.21334	0.704
Mof_O 	O 	0.2456	0.874	0.05547	-0.551
Mof_O 	O 	0.20195	0.87504	0.99203	-0.455
Mof_O 	O 	0.16825	0.87402	0.05993	-0.976
Mof_C 	C 	0.20547	0.87441	0.03666	0.645
Mof_O 	O 	0.2456	0.374	0.55547	-0.556
Mof_O 	O 	0.20195	0.37504	0.49203	-0.511
Mof_O 	O 	0.16825	0.37402	0.55993	-0.985
Mof_C 	C 	0.20547	0.37441	0.53666	0.702
Mof_O 	O 	0.7456	0.874	0.55547	-0.554
Mof_O 	O 	0.70195	0.87504	0.49203	-0.508
Mof_O 	O 	0.66825	0.87402	0.55993	-0.989
Mof_C 	C 	0.70547	0.87441	0.53666	0.706
Mof_O 	O 	0.7456	0.374	0.05547	-0.553
Mof_O 	O 	0.70195	0.37504	0.99203	-0.458
Mof_O 	O 	0.66825	0.37402	0.05993	-0.978
Mof_C 	C 	0.70547	0.37441	0.03666	0.644
Mof_O 	O 	0.876	0.55547	0.0044	-0.578
Mof_O 	O 	0.87496	0.49203	0.04805	-0.52
Mof_O 	O 	0.87598	0.55993	0.08175	-0.99
Mof_C 	C 	0.87559	0.53666	0.04453	0.706
Mof_O 	O 	0.876	0.05547	0.5044	-0.552
Mof_O 	O 	0.87496	0.99203	0.54805	-0.455
Mof_O 	O 	0.87598	0.05993	0.58175	-0.979
Mof_C 	C 	0.87559	0.03666	0.54453	0.646
Mof_O 	O 	0.376	0.55547	0.5044	-0.557
Mof_O 	O 	0.37496	0.49203	0.54805	-0.512
Mof_O 	O 	0.37598	0.55993	0.58175	-0.988
Mof_C 	C 	0.37559	0.53666	0.54453	0.704
Mof_O 	O 	0.376	0.05547	0.0044	-0.577
Mof_O 	O 	0.37496	0.99203	0.04805	-0.47
Mof_O 	O 	0.37598	0.05993	0.08175	-0.979
Mof_C 	C 	0.37559	0.03666	0.04453	0.645
Mof_O 	O 	0.376	0.69453	0.7456	-0.556
Mof_O 	O 	0.37496	0.75797	0.70195	-0.511
Mof_O 	O 	0.37598	0.69007	0.66825	-0.988
Mof_C 	C 	0.37559	0.71334	0.70547	0.703
Mof_O 	O 	0.376	0.19453	0.2456	-0.555
Mof_O 	O 	0.37496	0.25797	0.20195	-0.511
Mof_O 	O 	0.37598	0.19007	0.16825	-0.982
Mof_C 	C 	0.37559	0.21334	0.20547	0.7
Mof_O 	O 	0.876	0.69453	0.2456	-0.554
Mof_O 	O 	0.87496	0.75797	0.20195	-0.507
Mof_O 	O 	0.87598	0.69007	0.16825	-0.986
Mof_C 	C 	0.87559	0.71334	0.20547	0.704
Mof_O 	O 	0.876	0.19453	0.7456	-0.553
Mof_O 	O 	0.87496	0.25797	0.70195	-0.507
Mof_O 	O 	0.87598	0.19007	0.66825	-0.986
Mof_C 	C 	0.87559	0.21334	0.70547	0.704
Mof_O 	O 	0.874	0.05547	0.2456	-0.551
Mof_O 	O 	0.87504	0.99203	0.20195	-0.455
Mof_O 	O 	0.87402	0.05993	0.16825	-0.976
Mof_C 	C 	0.87441	0.03666	0.20547	0.645
Mof_O 	O 	0.874	0.55547	0.7456	-0.554
Mof_O 	O 	0.87504	0.49203	0.70195	-0.508
Mof_O 	O 	0.87402	0.55993	0.66825	-0.989
Mof_C 	C 	0.87441	0.53666	0.70547	0.706
Mof_O 	O 	0.374	0.05547	0.7456	-0.553
Mof_O 	O 	0.37504	0.99203	0.70195	-0.458
Mof_O 	O 	0.37402	0.05993	0.66825	-0.978
Mof_C 	C 	0.37441	0.03666	0.70547	0.644
Mof_O 	O 	0.374	0.55547	0.2456	-0.556
Mof_O 	O 	0.37504	0.49203	0.20195	-0.511
Mof_O 	O 	0.37402	0.55993	0.16825	-0.985
Mof_C 	C 	0.37441	0.53666	0.20547	0.702
Mof_O 	O 	0.374	0.19453	0.5044	-0.556
Mof_O 	O 	0.37504	0.25797	0.54805	-0.512
Mof_O 	O 	0.37402	0.19007	0.58175	-0.985
Mof_C 	C 	0.37441	0.21334	0.54453	0.702
Mof_O 	O 	0.374	0.69453	0.0044	-0.579
Mof_O 	O 	0.37504	0.75797	0.04805	-0.523
Mof_O 	O 	0.37402	0.69007	0.08175	-0.989
Mof_C 	C 	0.37441	0.71334	0.04453	0.704
Mof_O 	O 	0.874	0.19453	0.0044	-0.576
Mof_O 	O 	0.87504	0.25797	0.04805	-0.519
Mof_O 	O 	0.87402	0.19007	0.08175	-0.987
Mof_C 	C 	0.87441	0.21334	0.04453	0.704
Mof_O 	O 	0.874	0.69453	0.5044	-0.554
Mof_O 	O 	0.87504	0.75797	0.54805	-0.508
Mof_O 	O 	0.87402	0.69007	0.58175	-0.989
Mof_C 	C 	0.87441	0.71334	0.54453	0.706
Mof_O 	O 	0.0044	0.69453	0.874	-0.577
Mof_O 	O 	0.04805	0.75797	0.87504	-0.519
Mof_O 	O 	0.08175	0.69007	0.87402	-0.99
Mof_C 	C 	0.04453	0.71334	0.87441	0.706
Mof_O 	O 	0.0044	0.19453	0.374	-0.579
Mof_O 	O 	0.04805	0.25797	0.37504	-0.523
Mof_O 	O 	0.08175	0.19007	0.37402	-0.986
Mof_C 	C 	0.04453	0.21334	0.37441	0.702
Mof_O 	O 	0.5044	0.69453	0.374	-0.556
Mof_O 	O 	0.54805	0.75797	0.37504	-0.512
Mof_O 	O 	0.58175	0.69007	0.37402	-0.988
Mof_C 	C 	0.54453	0.71334	0.37441	0.704
Mof_O 	O 	0.5044	0.19453	0.874	-0.553
Mof_O 	O 	0.54805	0.25797	0.87504	-0.508
Mof_O 	O 	0.58175	0.19007	0.87402	-0.986
Mof_C 	C 	0.54453	0.21334	0.87441	0.704
Mof_O 	O 	0.7456	0.55547	0.374	-0.556
Mof_O 	O 	0.70195	0.49203	0.37504	-0.511
Mof_O 	O 	0.66825	0.55993	0.37402	-0.988
Mof_C 	C 	0.70547	0.53666	0.37441	0.703
Mof_O 	O 	0.7456	0.05547	0.874	-0.551
Mof_O 	O 	0.70195	0.99203	0.87504	-0.455
Mof_O 	O 	0.66825	0.05993	0.87402	-0.979
Mof_C 	C 	0.70547	0.03666	0.87441	0.646
Mof_O 	O 	0.2456	0.55547	0.874	-0.554
Mof_O 	O 	0.20195	0.49203	0.87504	-0.508
Mof_O 	O 	0.16825	0.55993	0.87402	-0.986
Mof_C 	C 	0.20547	0.53666	0.87441	0.704
Mof_O 	O 	0.2456	0.05547	0.374	-0.553
Mof_O 	O 	0.20195	0.99203	0.37504	-0.458
Mof_O 	O 	0.16825	0.05993	0.37402	-0.975
Mof_C 	C 	0.20547	0.03666	0.37441	0.642
Mof_O 	O 	0.2456	0.19453	0.876	-0.553
Mof_O 	O 	0.20195	0.25797	0.87496	-0.507
Mof_O 	O 	0.16825	0.19007	0.87598	-0.982
Mof_C 	C 	0.20547	0.21334	0.87559	0.702
Mof_O 	O 	0.2456	0.69453	0.376	-0.556
Mof_O 	O 	0.20195	0.75797	0.37496	-0.511
Mof_O 	O 	0.16825	0.69007	0.37598	-0.985
Mof_C 	C 	0.20547	0.71334	0.37559	0.702
Mof_O 	O 	0.7456	0.19453	0.376	-0.555
Mof_O 	O 	0.70195	0.25797	0.37496	-0.511
Mof_O 	O 	0.66825	0.19007	0.37598	-0.985
Mof_C 	C 	0.70547	0.21334	0.37559	0.702
Mof_O 	O 	0.7456	0.69453	0.876	-0.554
Mof_O 	O 	0.70195	0.75797	0.87496	-0.507
Mof_O 	O 	0.66825	0.69007	0.87598	-0.989
Mof_C 	C 	0.70547	0.71334	0.87559	0.706
Mof_O 	O 	0.5044	0.05547	0.376	-0.554
Mof_O 	O 	0.54805	0.99203	0.37496	-0.459
Mof_O 	O 	0.58175	0.05993	0.37598	-0.978
Mof_C 	C 	0.54453	0.03666	0.37559	0.644
Mof_O 	O 	0.5044	0.55547	0.876	-0.555
Mof_O 	O 	0.54805	0.49203	0.87496	-0.508
Mof_O 	O 	0.58175	0.55993	0.87598	-0.989
Mof_C 	C 	0.54453	0.53666	0.87559	0.706
Mof_O 	O 	0.0044	0.05547	0.876	-0.575
Mof_O 	O 	0.04805	0.99203	0.87496	-0.467
Mof_O 	O 	0.08175	0.05993	0.87598	-0.98
Mof_C 	C 	0.04453	0.03666	0.87559	0.647
Mof_O 	O 	0.0044	0.55547	0.376	-0.58
Mof_O 	O 	0.04805	0.49203	0.37496	-0.523
Mof_O 	O 	0.08175	0.55993	0.37598	-0.989
Mof_C 	C 	0.04453	0.53666	0.37559	0.704
Mof_O 	O 	0.874	0.0044	0.69453	-0.577
Mof_O 	O 	0.87504	0.04805	0.75797	-0.519
Mof_O 	O 	0.87402	0.08175	0.69007	-0.99
Mof_C 	C 	0.87441	0.04453	0.71334	0.706
Mof_O 	O 	0.874	0.5044	0.19453	-0.553
Mof_O 	O 	0.87504	0.54805	0.25797	-0.508
Mof_O 	O 	0.87402	0.58175	0.19007	-0.986
Mof_C 	C 	0.87441	0.54453	0.21334	0.704
Mof_O 	O 	0.374	0.0044	0.19453	-0.579
Mof_O 	O 	0.37504	0.04805	0.25797	-0.523
Mof_O 	O 	0.37402	0.08175	0.19007	-0.986
Mof_C 	C 	0.37441	0.04453	0.21334	0.702
Mof_O 	O 	0.374	0.5044	0.69453	-0.556
Mof_O 	O 	0.37504	0.54805	0.75797	-0.512
Mof_O 	O 	0.37402	0.58175	0.69007	-0.988
Mof_C 	C 	0.37441	0.54453	0.71334	0.704
Mof_O 	O 	0.374	0.7456	0.55547	-0.556
Mof_O 	O 	0.37504	0.70195	0.49203	-0.511
Mof_O 	O 	0.37402	0.66825	0.55993	-0.988
Mof_C 	C 	0.37441	0.70547	0.53666	0.703
Mof_O 	O 	0.374	0.2456	0.05547	-0.553
Mof_O 	O 	0.37504	0.20195	0.99203	-0.458
Mof_O 	O 	0.37402	0.16825	0.05993	-0.975
Mof_C 	C 	0.37441	0.20547	0.03666	0.642
Mof_O 	O 	0.874	0.7456	0.05547	-0.551
Mof_O 	O 	0.87504	0.70195	0.99203	-0.455
Mof_O 	O 	0.87402	0.66825	0.05993	-0.979
Mof_C 	C 	0.87441	0.70547	0.03666	0.646
Mof_O 	O 	0.874	0.2456	0.55547	-0.554
Mof_O 	O 	0.87504	0.20195	0.49203	-0.508
Mof_O 	O 	0.87402	0.16825	0.55993	-0.986
Mof_C 	C 	0.87441	0.20547	0.53666	0.704
Mof_O 	O 	0.876	0.2456	0.19453	-0.553
Mof_O 	O 	0.87496	0.20195	0.25797	-0.507
Mof_O 	O 	0.87598	0.16825	0.19007	-0.982
Mof_C 	C 	0.87559	0.20547	0.21334	0.702
Mof_O 	O 	0.876	0.7456	0.69453	-0.554
Mof_O 	O 	0.87496	0.70195	0.75797	-0.507
Mof_O 	O 	0.87598	0.66825	0.69007	-0.989
Mof_C 	C 	0.87559	0.70547	0.71334	0.706
Mof_O 	O 	0.376	0.2456	0.69453	-0.556
Mof_O 	O 	0.37496	0.20195	0.75797	-0.511
Mof_O 	O 	0.37598	0.16825	0.69007	-0.985
Mof_C 	C 	0.37559	0.20547	0.71334	0.702
Mof_O 	O 	0.376	0.7456	0.19453	-0.555
Mof_O 	O 	0.37496	0.70195	0.25797	-0.511
Mof_O 	O 	0.37598	0.66825	0.19007	-0.985
Mof_C 	C 	0.37559	0.70547	0.21334	0.702
Mof_O 	O 	0.376	0.5044	0.05547	-0.554
Mof_O 	O 	0.37496	0.54805	0.99203	-0.459
Mof_O 	O 	0.37598	0.58175	0.05993	-0.978
Mof_C 	C 	0.37559	0.54453	0.03666	0.644
Mof_O 	O 	0.376	0.0044	0.55547	-0.58
Mof_O 	O 	0.37496	0.04805	0.49203	-0.523
Mof_O 	O 	0.37598	0.08175	0.55993	-0.989
Mof_C 	C 	0.37559	0.04453	0.53666	0.704
Mof_O 	O 	0.876	0.5044	0.55547	-0.555
Mof_O 	O 	0.87496	0.54805	0.49203	-0.508
Mof_O 	O 	0.87598	0.58175	0.55993	-0.989
Mof_C 	C 	0.87559	0.54453	0.53666	0.706
Mof_O 	O 	0.876	0.0044	0.05547	-0.575
Mof_O 	O 	0.87496	0.04805	0.99203	-0.467
Mof_O 	O 	0.87598	0.08175	0.05993	-0.98
Mof_C 	C 	0.87559	0.04453	0.03666	0.647
Mof_O 	O 	0.69453	0.874	0.0044	-0.577
Mof_O 	O 	0.75797	0.87504	0.04805	-0.519
Mof_O 	O 	0.69007	0.87402	0.08175	-0.99
Mof_C 	C 	0.71334	0.87441	0.04453	0.706
Mof_O 	O 	0.69453	0.374	0.5044	-0.556
Mof_O 	O 	0.75797	0.37504	0.54805	-0.512
Mof_O 	O 	0.69007	0.37402	0.58175	-0.988
Mof_C 	C 	0.71334	0.37441	0.54453	0.704
Mof_O 	O 	0.19453	0.874	0.5044	-0.553
Mof_O 	O 	0.25797	0.87504	0.54805	-0.508
Mof_O 	O 	0.19007	0.87402	0.58175	-0.986
Mof_C 	C 	0.21334	0.87441	0.54453	0.704
Mof_O 	O 	0.19453	0.374	0.0044	-0.579
Mof_O 	O 	0.25797	0.37504	0.04805	-0.523
Mof_O 	O 	0.19007	0.37402	0.08175	-0.986
Mof_C 	C 	0.21334	0.37441	0.04453	0.702
Mof_O 	O 	0.55547	0.374	0.7456	-0.556
Mof_O 	O 	0.49203	0.37504	0.70195	-0.511
Mof_O 	O 	0.55993	0.37402	0.66825	-0.988
Mof_C 	C 	0.53666	0.37441	0.70547	0.703
Mof_O 	O 	0.55547	0.874	0.2456	-0.554
Mof_O 	O 	0.49203	0.87504	0.20195	-0.508
Mof_O 	O 	0.55993	0.87402	0.16825	-0.986
Mof_C 	C 	0.53666	0.87441	0.20547	0.704
Mof_O 	O 	0.05547	0.374	0.2456	-0.553
Mof_O 	O 	0.99203	0.37504	0.20195	-0.458
Mof_O 	O 	0.05993	0.37402	0.16825	-0.975
Mof_C 	C 	0.03666	0.37441	0.20547	0.642
Mof_O 	O 	0.05547	0.874	0.7456	-0.551
Mof_O 	O 	0.99203	0.87504	0.70195	-0.455
Mof_O 	O 	0.05993	0.87402	0.66825	-0.979
Mof_C 	C 	0.03666	0.87441	0.70547	0.646
Mof_O 	O 	0.19453	0.876	0.2456	-0.553
Mof_O 	O 	0.25797	0.87496	0.20195	-0.507
Mof_O 	O 	0.19007	0.87598	0.16825	-0.982
Mof_C 	C 	0.21334	0.87559	0.20547	0.702
Mof_O 	O 	0.19453	0.376	0.7456	-0.555
Mof_O 	O 	0.25797	0.37496	0.70195	-0.511
Mof_O 	O 	0.19007	0.37598	0.66825	-0.985
Mof_C 	C 	0.21334	0.37559	0.70547	0.702
Mof_O 	O 	0.69453	0.876	0.7456	-0.554
Mof_O 	O 	0.75797	0.87496	0.70195	-0.507
Mof_O 	O 	0.69007	0.87598	0.66825	-0.989
Mof_C 	C 	0.71334	0.87559	0.70547	0.706
Mof_O 	O 	0.69453	0.376	0.2456	-0.556
Mof_O 	O 	0.75797	0.37496	0.20195	-0.511
Mof_O 	O 	0.69007	0.37598	0.16825	-0.985
Mof_C 	C 	0.71334	0.37559	0.20547	0.702
Mof_O 	O 	0.05547	0.376	0.5044	-0.554
Mof_O 	O 	0.99203	0.37496	0.54805	-0.459
Mof_O 	O 	0.05993	0.37598	0.58175	-0.978
Mof_C 	C 	0.03666	0.37559	0.54453	0.644
Mof_O 	O 	0.05547	0.876	0.0044	-0.575
Mof_O 	O 	0.99203	0.87496	0.04805	-0.467
Mof_O 	O 	0.05993	0.87598	0.08175	-0.98
Mof_C 	C 	0.03666	0.87559	0.04453	0.647
Mof_O 	O 	0.55547	0.376	0.0044	-0.58
Mof_O 	O 	0.49203	0.37496	0.04805	-0.523
Mof_O 	O 	0.55993	0.37598	0.08175	-0.989
Mof_C 	C 	0.53666	0.37559	0.04453	0.704
Mof_O 	O 	0.55547	0.876	0.5044	-0.555
Mof_O 	O 	0.49203	0.87496	0.54805	-0.508
Mof_O 	O 	0.55993	0.87598	0.58175	-0.989
Mof_C 	C 	0.53666	0.87559	0.54453	0.706
Mof_O 	O 	0.94453	0.7544	0.126	-0.563
Mof_O 	O 	0.00797	0.79805	0.12496	-0.565
Mof_O 	O 	0.94007	0.83175	0.12598	-0.995
Mof_C 	C 	0.96334	0.79453	0.12559	0.763
Mof_O 	O 	0.94453	0.2544	0.626	-0.561
Mof_O 	O 	0.00797	0.29805	0.62496	-0.561
Mof_O 	O 	0.94007	0.33175	0.62598	-0.992
Mof_C 	C 	0.96334	0.29453	0.62559	0.763
Mof_O 	O 	0.44453	0.7544	0.626	-0.557
Mof_O 	O 	0.50797	0.79805	0.62496	-0.513
Mof_O 	O 	0.44007	0.83175	0.62598	-0.992
Mof_C 	C 	0.46334	0.79453	0.62559	0.706
Mof_O 	O 	0.44453	0.2544	0.126	-0.56
Mof_O 	O 	0.50797	0.29805	0.12496	-0.516
Mof_O 	O 	0.44007	0.33175	0.12598	-0.987
Mof_C 	C 	0.46334	0.29453	0.12559	0.702
Mof_O 	O 	0.80547	0.4956	0.626	-0.558
Mof_O 	O 	0.74203	0.45195	0.62496	-0.513
Mof_O 	O 	0.80993	0.41825	0.62598	-0.992
Mof_C 	C 	0.78666	0.45547	0.62559	0.706
Mof_O 	O 	0.80547	0.9956	0.126	-0.531
Mof_O 	O 	0.74203	0.95195	0.12496	-0.505
Mof_O 	O 	0.80993	0.91825	0.12598	-0.988
Mof_C 	C 	0.78666	0.95547	0.12559	0.702
Mof_O 	O 	0.30547	0.4956	0.126	-0.56
Mof_O 	O 	0.24203	0.45195	0.12496	-0.516
Mof_O 	O 	0.30993	0.41825	0.12598	-0.987
Mof_C 	C 	0.28666	0.45547	0.12559	0.702
Mof_O 	O 	0.30547	0.9956	0.626	-0.528
Mof_O 	O 	0.24203	0.95195	0.62496	-0.502
Mof_O 	O 	0.30993	0.91825	0.62598	-0.986
Mof_C 	C 	0.28666	0.95547	0.62559	0.703
Mof_O 	O 	0.44453	0.9956	0.124	-0.529
Mof_O 	O 	0.50797	0.95195	0.12504	-0.505
Mof_O 	O 	0.44007	0.91825	0.12402	-0.985
Mof_C 	C 	0.46334	0.95547	0.12441	0.7
Mof_O 	O 	0.44453	0.4956	0.624	-0.557
Mof_O 	O 	0.50797	0.45195	0.62504	-0.512
Mof_O 	O 	0.44007	0.41825	0.62402	-0.988
Mof_C 	C 	0.46334	0.45547	0.62441	0.704
Mof_O 	O 	0.94453	0.9956	0.624	-0.531
Mof_O 	O 	0.00797	0.95195	0.62504	-0.55
Mof_O 	O 	0.94007	0.91825	0.62402	-0.99
Mof_C 	C 	0.96334	0.95547	0.62441	0.762
Mof_O 	O 	0.94453	0.4956	0.124	-0.562
Mof_O 	O 	0.00797	0.45195	0.12504	-0.564
Mof_O 	O 	0.94007	0.41825	0.12402	-0.992
Mof_C 	C 	0.96334	0.45547	0.12441	0.761
Mof_O 	O 	0.30547	0.2544	0.624	-0.558
Mof_O 	O 	0.24203	0.29805	0.62504	-0.513
Mof_O 	O 	0.30993	0.33175	0.62402	-0.988
Mof_C 	C 	0.28666	0.29453	0.62441	0.704
Mof_O 	O 	0.30547	0.7544	0.124	-0.56
Mof_O 	O 	0.24203	0.79805	0.12504	-0.517
Mof_O 	O 	0.30993	0.83175	0.12402	-0.991
Mof_C 	C 	0.28666	0.79453	0.12441	0.704
Mof_O 	O 	0.80547	0.2544	0.124	-0.56
Mof_O 	O 	0.74203	0.29805	0.12504	-0.517
Mof_O 	O 	0.80993	0.33175	0.12402	-0.991
Mof_C 	C 	0.78666	0.29453	0.12441	0.704
Mof_O 	O 	0.80547	0.7544	0.624	-0.558
Mof_O 	O 	0.74203	0.79805	0.62504	-0.514
Mof_O 	O 	0.80993	0.83175	0.62402	-0.996
Mof_C 	C 	0.78666	0.79453	0.62441	0.708
Mof_O 	O 	0.2544	0.624	0.30547	-0.558
Mof_O 	O 	0.29805	0.62504	0.24203	-0.513
Mof_O 	O 	0.33175	0.62402	0.30993	-0.988
Mof_C 	C 	0.29453	0.62441	0.28666	0.704
Mof_O 	O 	0.2544	0.124	0.80547	-0.56
Mof_O 	O 	0.29805	0.12504	0.74203	-0.517
Mof_O 	O 	0.33175	0.12402	0.80993	-0.991
Mof_C 	C 	0.29453	0.12441	0.78666	0.704
Mof_O 	O 	0.7544	0.624	0.80547	-0.558
Mof_O 	O 	0.79805	0.62504	0.74203	-0.514
Mof_O 	O 	0.83175	0.62402	0.80993	-0.996
Mof_C 	C 	0.79453	0.62441	0.78666	0.708
Mof_O 	O 	0.7544	0.124	0.30547	-0.56
Mof_O 	O 	0.79805	0.12504	0.24203	-0.517
Mof_O 	O 	0.83175	0.12402	0.30993	-0.991
Mof_C 	C 	0.79453	0.12441	0.28666	0.704
Mof_O 	O 	0.9956	0.124	0.44453	-0.529
Mof_O 	O 	0.95195	0.12504	0.50797	-0.505
Mof_O 	O 	0.91825	0.12402	0.44007	-0.985
Mof_C 	C 	0.95547	0.12441	0.46334	0.7
Mof_O 	O 	0.9956	0.624	0.94453	-0.531
Mof_O 	O 	0.95195	0.62504	0.00797	-0.55
Mof_O 	O 	0.91825	0.62402	0.94007	-0.99
Mof_C 	C 	0.95547	0.62441	0.96334	0.762
Mof_O 	O 	0.4956	0.124	0.94453	-0.562
Mof_O 	O 	0.45195	0.12504	0.00797	-0.564
Mof_O 	O 	0.41825	0.12402	0.94007	-0.992
Mof_C 	C 	0.45547	0.12441	0.96334	0.761
Mof_O 	O 	0.4956	0.624	0.44453	-0.557
Mof_O 	O 	0.45195	0.62504	0.50797	-0.512
Mof_O 	O 	0.41825	0.62402	0.44007	-0.988
Mof_C 	C 	0.45547	0.62441	0.46334	0.704
Mof_O 	O 	0.4956	0.626	0.80547	-0.558
Mof_O 	O 	0.45195	0.62496	0.74203	-0.513
Mof_O 	O 	0.41825	0.62598	0.80993	-0.992
Mof_C 	C 	0.45547	0.62559	0.78666	0.706
Mof_O 	O 	0.4956	0.126	0.30547	-0.56
Mof_O 	O 	0.45195	0.12496	0.24203	-0.516
Mof_O 	O 	0.41825	0.12598	0.30993	-0.987
Mof_C 	C 	0.45547	0.12559	0.28666	0.702
Mof_O 	O 	0.9956	0.626	0.30547	-0.528
Mof_O 	O 	0.95195	0.62496	0.24203	-0.502
Mof_O 	O 	0.91825	0.62598	0.30993	-0.986
Mof_C 	C 	0.95547	0.62559	0.28666	0.703
Mof_O 	O 	0.9956	0.126	0.80547	-0.531
Mof_O 	O 	0.95195	0.12496	0.74203	-0.505
Mof_O 	O 	0.91825	0.12598	0.80993	-0.988
Mof_C 	C 	0.95547	0.12559	0.78666	0.702
Mof_O 	O 	0.7544	0.126	0.94453	-0.563
Mof_O 	O 	0.79805	0.12496	0.00797	-0.565
Mof_O 	O 	0.83175	0.12598	0.94007	-0.995
Mof_C 	C 	0.79453	0.12559	0.96334	0.763
Mof_O 	O 	0.7544	0.626	0.44453	-0.557
Mof_O 	O 	0.79805	0.62496	0.50797	-0.513
Mof_O 	O 	0.83175	0.62598	0.44007	-0.992
Mof_C 	C 	0.79453	0.62559	0.46334	0.706
Mof_O 	O 	0.2544	0.126	0.44453	-0.56
Mof_O 	O 	0.29805	0.12496	0.50797	-0.516
Mof_O 	O 	0.33175	0.12598	0.44007	-0.987
Mof_C 	C 	0.29453	0.12559	0.46334	0.702
Mof_O 	O 	0.2544	0.626	0.94453	-0.561
Mof_O 	O 	0.29805	0.62496	0.00797	-0.561
Mof_O 	O 	0.33175	0.62598	0.94007	-0.992
Mof_C 	C 	0.29453	0.62559	0.96334	0.763
Mof_O 	O 	0.124	0.44453	0.9956	-0.529
Mof_O 	O 	0.12504	0.50797	0.95195	-0.505
Mof_O 	O 	0.12402	0.44007	0.91825	-0.985
Mof_C 	C 	0.12441	0.46334	0.95547	0.7
Mof_O 	O 	0.124	0.94453	0.4956	-0.562
Mof_O 	O 	0.12504	0.00797	0.45195	-0.564
Mof_O 	O 	0.12402	0.94007	0.41825	-0.992
Mof_C 	C 	0.12441	0.96334	0.45547	0.761
Mof_O 	O 	0.624	0.44453	0.4956	-0.557
Mof_O 	O 	0.62504	0.50797	0.45195	-0.512
Mof_O 	O 	0.62402	0.44007	0.41825	-0.988
Mof_C 	C 	0.62441	0.46334	0.45547	0.704
Mof_O 	O 	0.624	0.94453	0.9956	-0.531
Mof_O 	O 	0.62504	0.00797	0.95195	-0.55
Mof_O 	O 	0.62402	0.94007	0.91825	-0.99
Mof_C 	C 	0.62441	0.96334	0.95547	0.762
Mof_O 	O 	0.624	0.30547	0.2544	-0.558
Mof_O 	O 	0.62504	0.24203	0.29805	-0.513
Mof_O 	O 	0.62402	0.30993	0.33175	-0.988
Mof_C 	C 	0.62441	0.28666	0.29453	0.704
Mof_O 	O 	0.624	0.80547	0.7544	-0.558
Mof_O 	O 	0.62504	0.74203	0.79805	-0.514
Mof_O 	O 	0.62402	0.80993	0.83175	-0.996
Mof_C 	C 	0.62441	0.78666	0.79453	0.708
Mof_O 	O 	0.124	0.30547	0.7544	-0.56
Mof_O 	O 	0.12504	0.24203	0.79805	-0.517
Mof_O 	O 	0.12402	0.30993	0.83175	-0.991
Mof_C 	C 	0.12441	0.28666	0.79453	0.704
Mof_O 	O 	0.124	0.80547	0.2544	-0.56
Mof_O 	O 	0.12504	0.74203	0.29805	-0.517
Mof_O 	O 	0.12402	0.80993	0.33175	-0.991
Mof_C 	C 	0.12441	0.78666	0.29453	0.704
Mof_O 	O 	0.126	0.94453	0.7544	-0.563
Mof_O 	O 	0.12496	0.00797	0.79805	-0.565
Mof_O 	O 	0.12598	0.94007	0.83175	-0.995
Mof_C 	C 	0.12559	0.96334	0.79453	0.763
Mof_O 	O 	0.126	0.44453	0.2544	-0.56
Mof_O 	O 	0.12496	0.50797	0.29805	-0.516
Mof_O 	O 	0.12598	0.44007	0.33175	-0.987
Mof_C 	C 	0.12559	0.46334	0.29453	0.702
Mof_O 	O 	0.626	0.94453	0.2544	-0.561
Mof_O 	O 	0.62496	0.00797	0.29805	-0.561
Mof_O 	O 	0.62598	0.94007	0.33175	-0.992
Mof_C 	C 	0.62559	0.96334	0.29453	0.763
Mof_O 	O 	0.626	0.44453	0.7544	-0.557
Mof_O 	O 	0.62496	0.50797	0.79805	-0.513
Mof_O 	O 	0.62598	0.44007	0.83175	-0.992
Mof_C 	C 	0.62559	0.46334	0.79453	0.706
Mof_O 	O 	0.626	0.80547	0.4956	-0.558
Mof_O 	O 	0.62496	0.74203	0.45195	-0.513
Mof_O 	O 	0.62598	0.80993	0.41825	-0.992
Mof_C 	C 	0.62559	0.78666	0.45547	0.706
Mof_O 	O 	0.626	0.30547	0.9956	-0.528
Mof_O 	O 	0.62496	0.24203	0.95195	-0.502
Mof_O 	O 	0.62598	0.30993	0.91825	-0.986
Mof_C 	C 	0.62559	0.28666	0.95547	0.703
Mof_O 	O 	0.126	0.80547	0.9956	-0.531
Mof_O 	O 	0.12496	0.74203	0.95195	-0.505
Mof_O 	O 	0.12598	0.80993	0.91825	-0.988
Mof_C 	C 	0.12559	0.78666	0.95547	0.702
Mof_O 	O 	0.126	0.30547	0.4956	-0.56
Mof_O 	O 	0.12496	0.24203	0.45195	-0.516
Mof_O 	O 	0.12598	0.30993	0.41825	-0.987
Mof_C 	C 	0.12559	0.28666	0.45547	0.702
Mof_Co	Co	-8.93308e-33	0.37635	0.12635	1.127
Mof_Co	Co	0.5	0.37635	0.62635	1.15
Mof_Co	Co	0.25	0.37365	0.62635	1.15
Mof_Co	Co	0.75	0.37365	0.12635	1.149
Mof_Co	Co	0.75	0.87635	0.12365	1.149
Mof_Co	Co	0.25	0.87635	0.62365	1.15
Mof_Co	Co	0.5	0.87365	0.62365	1.15
Mof_Co	Co	-2.67199e-33	0.87365	0.12365	1.128
Mof_Co	Co	0.12635	-4.18081e-33	0.37635	1.127
Mof_Co	Co	0.12635	0.5	0.87635	1.149
Mof_Co	Co	0.62635	0.25	0.37365	1.15
Mof_Co	Co	0.62635	0.75	0.87365	1.15
Mof_Co	Co	0.12365	0.75	0.87635	1.149
Mof_Co	Co	0.12365	0.25	0.37635	1.15
Mof_Co	Co	0.62365	0.5	0.87365	1.15
Mof_Co	Co	0.62365	0	0.37365	1.127
Mof_Co	Co	0.37635	0.12635	-0	1.127
Mof_Co	Co	0.37635	0.62635	0.5	1.15
Mof_Co	Co	0.37365	0.62635	0.25	1.15
Mof_Co	Co	0.37365	0.12635	0.75	1.149
Mof_Co	Co	0.87635	0.12365	0.75	1.149
Mof_Co	Co	0.87635	0.62365	0.25	1.15
Mof_Co	Co	0.87365	0.62365	0.5	1.15
Mof_Co	Co	0.87365	0.12365	-0	1.128
Mof_Co	Co	0.12635	0.25	0.87365	1.15
Mof_Co	Co	0.12635	0.75	0.37365	1.149
Mof_Co	Co	0.12365	0.5	0.37365	1.15
Mof_Co	Co	0.12365	0	0.87365	1.128
Mof_Co	Co	0.62635	-8.36161e-33	0.87635	1.128
Mof_Co	Co	0.62635	0.5	0.37635	1.15
Mof_Co	Co	0.62365	0.75	0.37635	1.149
Mof_Co	Co	0.62365	0.25	0.87635	1.15
Mof_Co	Co	0.75	0.37635	0.62365	1.149
Mof_Co	Co	0.25	0.37635	0.12365	1.15
Mof_Co	Co	1.071e-32	0.87635	0.62635	1.128
Mof_Co	Co	0.5	0.87635	0.12635	1.149
Mof_Co	Co	0.5	0.37365	0.12365	1.15
Mof_Co	Co	2.33831e-33	0.37365	0.62365	1.127
Mof_Co	Co	0.25	0.87365	0.12635	1.15
Mof_Co	Co	0.75	0.87365	0.62635	1.15
Mof_Co	Co	0.87635	0.62635	-0	1.128
Mof_Co	Co	0.87635	0.12635	0.5	1.149
Mof_Co	Co	0.37635	0.62365	0.75	1.149
Mof_Co	Co	0.37635	0.12365	0.25	1.15
Mof_Co	Co	0.87365	0.12635	0.25	1.15
Mof_Co	Co	0.87365	0.62635	0.75	1.15
Mof_Co	Co	0.37365	0.12365	0.5	1.15
Mof_Co	Co	0.37365	0.62365	-0	1.127
Mof_Co	Co	3.27566e-33	0.62365	0.87365	1.128
Mof_Co	Co	0.5	0.62365	0.37365	1.15
Mof_Co	Co	0.75	0.62635	0.37365	1.149
Mof_Co	Co	0.25	0.62635	0.87365	1.15
Mof_Co	Co	0.25	0.12365	0.87635	1.15
Mof_Co	Co	0.75	0.12365	0.37635	1.149
Mof_Co	Co	0.5	0.12635	0.37635	1.149
Mof_Co	Co	-1.34374e-32	0.12635	0.87635	1.127
Mof_Co	Co	0.87365	0	0.62365	1.128
Mof_Co	Co	0.87365	0.5	0.12365	1.15
Mof_Co	Co	0.37365	0.75	0.62635	1.149
Mof_Co	Co	0.37365	0.25	0.12635	1.149
Mof_Co	Co	0.87635	0.25	0.12365	1.15
Mof_Co	Co	0.87635	0.75	0.62365	1.149
Mof_Co	Co	0.37635	0.5	0.12635	1.149
Mof_Co	Co	0.37635	0	0.62635	1.128
Mof_Co	Co	0.62365	0.87365	-0	1.128
Mof_Co	Co	0.62365	0.37365	0.5	1.15
Mof_Co	Co	0.62635	0.37365	0.75	1.149
Mof_Co	Co	0.62635	0.87365	0.25	1.15
Mof_Co	Co	0.12365	0.87635	0.25	1.15
Mof_Co	Co	0.12365	0.37635	0.75	1.149
Mof_Co	Co	0.12635	0.37635	0.5	1.149
Mof_Co	Co	0.12635	0.87635	-0	1.127
Mof_Co	Co	0.87365	0.75	0.12635	1.149
Mof_Co	Co	0.87365	0.25	0.62635	1.15
Mof_Co	Co	0.87635	0.5	0.62635	1.15
Mof_Co	Co	0.87635	-1.0452e-33	0.12635	1.127
Mof_Co	Co	0.37365	0	0.12365	1.128
Mof_Co	Co	0.37365	0.5	0.62365	1.15
Mof_Co	Co	0.37635	0.25	0.62365	1.15
Mof_Co	Co	0.37635	0.75	0.12365	1.149
Mof_Co	Co	0.25	0.62365	0.37635	1.15
Mof_Co	Co	0.75	0.62365	0.87635	1.149
Mof_Co	Co	1.40096e-33	0.12365	0.37365	1.128
Mof_Co	Co	0.5	0.12365	0.87365	1.15
Mof_Co	Co	0.5	0.62635	0.87635	1.15
Mof_Co	Co	-6.95052e-33	0.62635	0.37635	1.128
Mof_Co	Co	0.75	0.12635	0.87365	1.149
Mof_Co	Co	0.25	0.12635	0.37365	1.149
Mof_Co	Co	0.12365	0.37365	-0	1.128
Mof_Co	Co	0.12365	0.87365	0.5	1.15
Mof_Co	Co	0.62365	0.37635	0.25	1.15
Mof_Co	Co	0.62365	0.87635	0.75	1.149
Mof_Co	Co	0.12635	0.87365	0.75	1.149
Mof_Co	Co	0.12635	0.37365	0.25	1.149
Mof_Co	Co	0.62635	0.87635	0.5	1.15
Mof_Co	Co	0.62635	0.37635	-0	1.128
Mof_Na	Na	0.125	0.375	0.125	3.065
Mof_Na	Na	0.125	0.375	0.625	3.089
Mof_Na	Na	0.125	0.875	0.125	3.085
Mof_Na	Na	0.625	0.875	0.125	3.109
Mof_Na	Na	0.625	0.375	0.625	3.114
Mof_Na	Na	0.625	0.875	0.625	3.134
Mof_Na	Na	0.125	0.125	0.375	3.065
Mof_Na	Na	0.625	0.125	0.375	3.089
Mof_Na	Na	0.125	0.625	0.875	3.109
Mof_Na	Na	0.625	0.625	0.875	3.134
Mof_Na	Na	0.375	0.125	0.125	3.065
Mof_Na	Na	0.375	0.625	0.625	3.114
Mof_Na	Na	0.375	0.625	0.125	3.089
Mof_Na	Na	0.875	0.125	0.625	3.109
Mof_Na	Na	0.875	0.625	0.625	3.134
Mof_Na	Na	0.875	0.125	0.125	3.085
Mof_Na	Na	0.125	0.375	0.875	3.125
Mof_Na	Na	0.125	0.375	0.375	3.097
Mof_Na	Na	0.125	0.875	0.875	3.152
Mof_Na	Na	0.625	0.875	0.875	3.172
Mof_Na	Na	0.625	0.375	0.375	3.117
Mof_Na	Na	0.625	0.875	0.375	3.145
Mof_Na	Na	0.875	0.375	0.625	3.145
Mof_Na	Na	0.875	0.875	0.125	3.152
Mof_Na	Na	0.875	0.875	0.625	3.172
Mof_Na	Na	0.375	0.375	0.125	3.097
Mof_Na	Na	0.375	0.875	0.125	3.125
Mof_Na	Na	0.375	0.375	0.625	3.117
Mof_Na	Na	0.875	0.625	0.875	3.172
Mof_Na	Na	0.375	0.625	0.875	3.145
Mof_Na	Na	0.875	0.125	0.375	3.125
Mof_Na	Na	0.375	0.125	0.375	3.097
Mof_Na	Na	0.875	0.625	0.375	3.145
Mof_Na	Na	0.875	0.125	0.875	3.152
Mof_Na	Na	0.375	0.125	0.875	3.125
Mof_Na	Na	0.375	0.625	0.375	3.117
Mof_Na	Na	0.375	0.875	0.625	3.145
Mof_Na	Na	0.875	0.375	0.125	3.125
Mof_Na	Na	0.625	0.375	0.875	3.145
Mof_Na	Na	0.125	0.875	0.375	3.125
Mof_Na	Na	0.875	0.625	0.125	3.109
Mof_Na	Na	0.375	0.125	0.625	3.09
Mof_Na	Na	0.125	0.625	0.375	3.09
Mof_Na	Na	0.125	0.125	0.875	3.085
Mof_Na	Na	0.625	0.125	0.875	3.109
Mof_Na	Na	0.625	0.625	0.375	3.114
Mof_Na	Na	0.625	0.375	0.125	3.09
Mof_Na	Na	0.125	0.875	0.625	3.109
_end
