data_functionalizedCrystal
_audit_creation_method	'EQeq! by Chris Wilmer'
_symmetry_space_group_name_H-M	'P1'
_symmetry_Int_Tables_number	1
_symmetry_cell_setting	triclinic
loop_
_symmetry_equiv_pos_as_xyz
  x,y,z
_cell_length_a	9.8486
_cell_length_b	11.2956
_cell_length_c	14.7493
_cell_angle_alpha	91.3094
_cell_angle_beta	90
_cell_angle_gamma	90
loop_
_atom_site_label
_atom_site_type_symbol
_atom_site_fract_x
_atom_site_fract_y
_atom_site_fract_z
_atom_site_charge
Mof_Zn	Zn	0.92332	0.75686	0.13235	1.283
Mof_Zn	Zn	0.1124	0.74124	0.30876	1.236
Mof_Zn	Zn	0.42332	0.74314	0.36765	1.246
Mof_Zn	Zn	0.6124	0.75876	0.19124	1.252
Mof_Zn	Zn	0.07668	0.24314	0.86765	1.204
Mof_Zn	Zn	0.8876	0.25876	0.69124	1.264
Mof_Zn	Zn	0.57668	0.25686	0.63235	1.243
Mof_Zn	Zn	0.3876	0.24124	0.80876	1.248
Mof_Zn	Zn	-0	0.5	-0	1.181
Mof_Zn	Zn	0.5	-2.1658e-18	0.5	1.235
Mof_Zn	Zn	-0	0	-0	1.162
Mof_Zn	Zn	0.5	0.5	0.5	1.256
Mof_H 	H 	0.7576	0.8454	0.3698	-0.086
Mof_H 	H 	0.0557	0.4775	0.2589	-0.139
Mof_H 	H 	0.6173	0.5534	0.0516	-0.129
Mof_H 	H 	0.1989	0.9813	0.2261	-0.152
Mof_H 	H 	0.1542	0.6953	0.9273	-0.154
Mof_H 	H 	0.7074	0.0037	0.0251	-0.2
Mof_H 	H 	0.2576	0.6546	0.1302	-0.133
Mof_H 	H 	0.5557	0.0225	0.2411	-0.229
Mof_H 	H 	0.1173	0.9466	0.4484	-0.114
Mof_H 	H 	0.6989	0.5187	0.2739	-0.101
Mof_H 	H 	0.6542	0.8047	0.5727	-0.076
Mof_H 	H 	0.2074	0.4963	0.4749	-0.112
Mof_H 	H 	0.2424	0.1546	0.6302	-0.129
Mof_H 	H 	0.9443	0.5225	0.7411	-0.064
Mof_H 	H 	0.3827	0.4466	0.9484	-0.062
Mof_H 	H 	0.8011	0.0187	0.7739	-0.077
Mof_H 	H 	0.8458	0.3047	0.0727	-0.03
Mof_H 	H 	0.2926	0.9963	0.9749	0.037
Mof_H 	H 	0.7424	0.3454	0.8698	-0.08
Mof_H 	H 	0.4443	0.9775	0.7589	0.029
Mof_H 	H 	0.8827	0.0534	0.5516	-0.076
Mof_H 	H 	0.3011	0.4813	0.7261	-0.13
Mof_H 	H 	0.3458	0.1953	0.4273	-0.118
Mof_H 	H 	0.7926	0.5037	0.5251	-0.068
Mof_C 	C 	0.8304	0.82037	0.33177	0.479
Mof_C 	C 	0.0285	0.51835	0.20635	0.537
Mof_C 	C 	0.7112	0.57176	0.05606	0.505
Mof_C 	C 	0.1364	0.95338	0.18148	0.632
Mof_C 	C 	0.0993	0.74174	0.96734	0.685
Mof_C 	C 	0.7245	0.93805	0.06255	0.6
Mof_C 	C 	0.3304	0.67963	0.16823	0.494
Mof_C 	C 	0.5285	0.98165	0.29365	0.757
Mof_C 	C 	0.2112	0.92824	0.44394	0.488
Mof_C 	C 	0.6364	0.54662	0.31852	0.503
Mof_C 	C 	0.5993	0.75826	0.53266	0.491
Mof_C 	C 	0.2245	0.56195	0.43745	0.493
Mof_C 	C 	0.1696	0.17963	0.66823	0.497
Mof_C 	C 	0.9715	0.48165	0.79365	0.48
Mof_C 	C 	0.2888	0.42824	0.94394	0.466
Mof_C 	C 	0.8636	0.04662	0.81852	0.382
Mof_C 	C 	0.9007	0.25826	0.03266	0.297
Mof_C 	C 	0.2755	0.06195	0.93745	0.345
Mof_C 	C 	0.6696	0.32037	0.83177	0.481
Mof_C 	C 	0.4715	0.01835	0.70635	0.26
Mof_C 	C 	0.7888	0.07176	0.55606	0.489
Mof_C 	C 	0.3636	0.45338	0.68148	0.515
Mof_C 	C 	0.4007	0.24174	0.46734	0.509
Mof_C 	C 	0.7755	0.43805	0.56255	0.473
Mof_O 	O 	0.80387	0.80437	0.24775	-0.533
Mof_O 	O 	0.94288	0.80628	0.36872	-0.364
Mof_O 	O 	0.01248	0.62906	0.21531	-0.636
Mof_O 	O 	0.01243	0.45779	0.13632	-0.533
Mof_O 	O 	0.74534	0.65521	0.11206	-0.564
Mof_O 	O 	0.78977	0.51304	0.00724	-0.463
Mof_O 	O 	0.08282	0.85242	0.19456	-0.65
Mof_O 	O 	0.11556	0.01833	0.117	-0.605
Mof_O 	O 	0.02452	0.68519	0.02327	-0.752
Mof_O 	O 	0.10695	0.84949	0.96044	-0.464
Mof_O 	O 	0.84735	0.90123	0.06596	-0.567
Mof_O 	O 	0.62565	0.89667	0.10323	-0.47
Mof_O 	O 	0.30387	0.69563	0.25225	-0.573
Mof_O 	O 	0.44288	0.69372	0.13128	-0.471
Mof_O 	O 	0.51248	0.87094	0.28469	-0.635
Mof_O 	O 	0.51243	0.04221	0.36368	-0.559
Mof_O 	O 	0.24534	0.84479	0.38794	-0.58
Mof_O 	O 	0.28977	0.98696	0.49276	-0.409
Mof_O 	O 	0.58282	0.64758	0.30544	-0.572
Mof_O 	O 	0.61556	0.48167	0.383	-0.441
Mof_O 	O 	0.52452	0.81481	0.47673	-0.561
Mof_O 	O 	0.60695	0.65051	0.53956	-0.442
Mof_O 	O 	0.34735	0.59877	0.43404	-0.582
Mof_O 	O 	0.12565	0.60333	0.39677	-0.478
Mof_O 	O 	0.19613	0.19563	0.75225	-0.607
Mof_O 	O 	0.05712	0.19372	0.63128	-0.534
Mof_O 	O 	0.98752	0.37094	0.78469	-0.517
Mof_O 	O 	0.98757	0.54221	0.86368	-0.336
Mof_O 	O 	0.25466	0.34479	0.88794	-0.58
Mof_O 	O 	0.21023	0.48696	0.99276	-0.385
Mof_O 	O 	0.91718	0.14758	0.80544	-0.498
Mof_O 	O 	0.88444	0.98167	0.883	-0.265
Mof_O 	O 	0.97548	0.31481	0.97673	-0.372
Mof_O 	O 	0.89305	0.15051	0.03956	-0.403
Mof_O 	O 	0.15265	0.09877	0.93404	-0.553
Mof_O 	O 	0.37435	0.10333	0.89677	-0.405
Mof_O 	O 	0.69613	0.30437	0.74775	-0.565
Mof_O 	O 	0.55712	0.30628	0.86872	-0.424
Mof_O 	O 	0.48752	0.12906	0.71531	-0.523
Mof_O 	O 	0.48757	0.95779	0.63632	-0.325
Mof_O 	O 	0.75466	0.15521	0.61206	-0.566
Mof_O 	O 	0.71023	0.01304	0.50724	-0.455
Mof_O 	O 	0.41718	0.35242	0.69456	-0.583
Mof_O 	O 	0.38444	0.51833	0.617	-0.456
Mof_O 	O 	0.47548	0.18519	0.52327	-0.586
Mof_O 	O 	0.39305	0.34949	0.46044	-0.464
Mof_O 	O 	0.65265	0.40123	0.56596	-0.567
Mof_O 	O 	0.87435	0.39667	0.60323	-0.402
_end
