data_functionalizedCrystal
_audit_creation_method	'EQeq! by Chris Wilmer'
_symmetry_space_group_name_H-M	'P1'
_symmetry_Int_Tables_number	1
_symmetry_cell_setting	triclinic
loop_
_symmetry_equiv_pos_as_xyz
  x,y,z
_cell_length_a	9.4378
_cell_length_b	10.192
_cell_length_c	11.234
_cell_angle_alpha	64.11
_cell_angle_beta	73.1
_cell_angle_gamma	83.18
loop_
_atom_site_label
_atom_site_type_symbol
_atom_site_fract_x
_atom_site_fract_y
_atom_site_fract_z
_atom_site_charge
Mof_Cd	Cd	0.05325	0.16732	0.29976	0.488
Mof_Cd	Cd	0.04773	0.82151	0.60892	0.485
Mof_Cd	Cd	0.07674	0.50318	0.98253	0.442
Mof_O 	O 	0.276	0.9111	0.4853	-0.261
Mof_O 	O 	0.2799	0.0732	0.2674	-0.267
Mof_O 	O 	0.5669	0.9301	0.4316	-0.158
Mof_O 	O 	0.7578	0.7967	0.5885	-0.181
Mof_O 	O 	0.9422	0.9369	0.4229	-0.248
Mof_C 	C 	0.3336	0.9878	0.3669	0.317
Mof_C 	C 	0.5004	0.9949	0.3275	0.081
Mof_C 	C 	0.6077	0.0651	0.2043	-0.053
Mof_H 	H 	0.5908	0.1211	0.1187	0.09
Mof_C 	C 	0.7458	0.0357	0.2338	-0.067
Mof_H 	H 	0.838	0.0655	0.1711	0.102
Mof_C 	C 	0.7178	0.9523	0.3767	0.084
Mof_C 	C 	0.8143	0.8972	0.4665	0.274
Mof_C 	C 	0.2954	0.4443	0.1315	0.257
Mof_C 	C 	0.3967	0.394	0.2231	0.083
Mof_C 	C 	0.3758	0.3297	0.3578	-0.07
Mof_H 	H 	0.2849	0.3066	0.4235	0.09
Mof_C 	C 	0.5135	0.3028	0.3834	-0.024
Mof_H 	H 	0.532	0.2585	0.4693	0.062
Mof_C 	C 	0.6145	0.3519	0.2628	0.046
Mof_C 	C 	0.777	0.3564	0.2223	0.285
Mof_O 	O 	0.1569	0.4028	0.1929	-0.234
Mof_O 	O 	0.3423	0.5232	0.009	-0.163
Mof_O 	O 	0.5442	0.4193	0.1589	-0.144
Mof_O 	O 	0.8425	0.2867	0.3143	-0.242
Mof_O 	O 	0.8423	0.4272	0.0981	-0.201
Mof_C 	C 	0.9776	0.0992	0.6362	0.263
Mof_C 	C 	0.9389	0.1912	0.715	0.077
Mof_C 	C 	0.8608	0.1549	0.8471	-0.059
Mof_H 	H 	0.8152	0.0658	0.9099	0.068
Mof_C 	C 	0.8629	0.2808	0.87	-0.039
Mof_H 	H 	0.8161	0.2929	0.9496	0.058
Mof_C 	C 	0.9475	0.3794	0.7512	0.06
Mof_C 	C 	0.9989	0.5349	0.7048	0.332
Mof_O 	O 	0.9407	0.9675	0.7039	-0.225
Mof_O 	O 	0.0439	0.1691	0.5064	-0.262
Mof_O 	O 	0.9971	0.326	0.6563	-0.15
Mof_O 	O 	0.963	0.587	0.794	-0.251
Mof_O 	O 	0.0689	0.6033	0.5882	-0.268
Mof_C 	C 	0.151	0.7929	0.8761	0.25
Mof_C 	C 	0.1974	0.936	0.8507	0.095
Mof_C 	C 	0.2856	0.0376	0.7342	-0.104
Mof_H 	H 	0.3336	0.0273	0.6538	0.092
Mof_C 	C 	0.2901	0.1606	0.7589	-0.009
Mof_H 	H 	0.3414	0.247	0.6968	0.06
Mof_C 	C 	0.2057	0.132	0.8904	0.018
Mof_C 	C 	0.1582	0.211	0.9758	0.238
Mof_O 	O 	0.0658	0.7214	0.9954	-0.241
Mof_O 	O 	0.2044	0.7483	0.7862	-0.232
Mof_O 	O 	0.1483	0.9886	0.9484	-0.161
Mof_O 	O 	0.2017	0.3455	0.9071	-0.258
Mof_O 	O 	0.0779	0.1619	0.0879	-0.225
_end
