data_functionalizedCrystal
_audit_creation_method	'EQeq! by Chris Wilmer'
_symmetry_space_group_name_H-M	'P1'
_symmetry_Int_Tables_number	1
_symmetry_cell_setting	triclinic
loop_
_symmetry_equiv_pos_as_xyz
  x,y,z
_cell_length_a	12.614
_cell_length_b	22.857
_cell_length_c	14.604
_cell_angle_alpha	90
_cell_angle_beta	90
_cell_angle_gamma	90
loop_
_atom_site_label
_atom_site_type_symbol
_atom_site_fract_x
_atom_site_fract_y
_atom_site_fract_z
_atom_site_charge
Mof_Zn	Zn	0.5	0.75	0.76142	1.187
Mof_Zn	Zn	0.5	0.25	0.73858	1.187
Mof_Zn	Zn	0.5	0.25	0.23858	1.187
Mof_Zn	Zn	0.5	0.75	0.26142	1.187
Mof_H 	H 	0.073	0.904	0.862	0.053
Mof_H 	H 	0.201	0.8402	0.868	0.065
Mof_H 	H 	0.21	0.8452	0.153	0.053
Mof_H 	H 	0.08	0.9189	0.149	0.055
Mof_H 	H 	0.652	0.9509	0.796	0.091
Mof_H 	H 	0.638	0.8564	0.7958	-0.014
Mof_H 	H 	0.351	0.8546	0.724	-0.008
Mof_H 	H 	0.341	0.9518	0.707	0.08
Mof_H 	H 	0.927	0.596	0.862	0.053
Mof_H 	H 	0.799	0.6598	0.868	0.065
Mof_H 	H 	0.79	0.6548	0.153	0.053
Mof_H 	H 	0.92	0.5811	0.149	0.055
Mof_H 	H 	0.348	0.5491	0.796	0.091
Mof_H 	H 	0.362	0.6436	0.7958	-0.014
Mof_H 	H 	0.649	0.6454	0.724	-0.008
Mof_H 	H 	0.659	0.5482	0.707	0.08
Mof_H 	H 	0.073	0.096	0.638	0.053
Mof_H 	H 	0.201	0.1598	0.632	0.065
Mof_H 	H 	0.21	0.1548	0.347	0.053
Mof_H 	H 	0.08	0.0811	0.351	0.055
Mof_H 	H 	0.652	0.0491	0.704	0.092
Mof_H 	H 	0.638	0.1436	0.7042	-0.014
Mof_H 	H 	0.351	0.1454	0.776	-0.008
Mof_H 	H 	0.341	0.0482	0.793	0.08
Mof_H 	H 	0.927	0.404	0.638	0.053
Mof_H 	H 	0.799	0.3402	0.632	0.065
Mof_H 	H 	0.79	0.3452	0.347	0.053
Mof_H 	H 	0.92	0.4189	0.351	0.055
Mof_H 	H 	0.348	0.4509	0.704	0.091
Mof_H 	H 	0.362	0.3564	0.7042	-0.014
Mof_H 	H 	0.649	0.3546	0.776	-0.008
Mof_H 	H 	0.659	0.4518	0.793	0.08
Mof_H 	H 	0.927	0.096	0.138	0.053
Mof_H 	H 	0.799	0.1598	0.132	0.065
Mof_H 	H 	0.79	0.1548	0.847	0.053
Mof_H 	H 	0.92	0.0811	0.851	0.055
Mof_H 	H 	0.348	0.0491	0.204	0.091
Mof_H 	H 	0.362	0.1436	0.2042	-0.014
Mof_H 	H 	0.649	0.1454	0.276	-0.008
Mof_H 	H 	0.659	0.0482	0.293	0.08
Mof_H 	H 	0.073	0.404	0.138	0.053
Mof_H 	H 	0.201	0.3402	0.132	0.065
Mof_H 	H 	0.21	0.3452	0.847	0.053
Mof_H 	H 	0.08	0.4189	0.851	0.055
Mof_H 	H 	0.652	0.4509	0.204	0.091
Mof_H 	H 	0.638	0.3564	0.2042	-0.014
Mof_H 	H 	0.351	0.3546	0.276	-0.008
Mof_H 	H 	0.341	0.4518	0.293	0.08
Mof_H 	H 	0.927	0.904	0.362	0.053
Mof_H 	H 	0.799	0.8402	0.368	0.065
Mof_H 	H 	0.79	0.8452	0.653	0.053
Mof_H 	H 	0.92	0.9189	0.649	0.055
Mof_H 	H 	0.348	0.9509	0.296	0.092
Mof_H 	H 	0.362	0.8564	0.2958	-0.014
Mof_H 	H 	0.649	0.8546	0.224	-0.008
Mof_H 	H 	0.659	0.9518	0.207	0.08
Mof_H 	H 	0.073	0.596	0.362	0.053
Mof_H 	H 	0.201	0.6598	0.368	0.065
Mof_H 	H 	0.21	0.6548	0.653	0.053
Mof_H 	H 	0.08	0.5811	0.649	0.055
Mof_H 	H 	0.652	0.5491	0.296	0.091
Mof_H 	H 	0.638	0.6436	0.2958	-0.014
Mof_H 	H 	0.351	0.6454	0.224	-0.008
Mof_H 	H 	0.341	0.5482	0.207	0.08
Mof_C 	C 	0.1859	0.86053	0.08975	-0.071
Mof_C 	C 	0.2243	0.83571	0.00828	0.084
Mof_C 	C 	0.34526	0.76647	0.9299	0.135
Mof_C 	C 	0.34491	0.76832	0.09176	0.137
Mof_C 	C 	0.30318	0.78952	0.01014	-0.151
Mof_C 	C 	0.5853	0.87586	0.7766	0.084
Mof_C 	C 	0.5888	0.93659	0.77222	-0.14
Mof_C 	C 	0.49665	0.96749	0.7523	0.06
Mof_C 	C 	0.1829	0.85603	0.92568	-0.09
Mof_C 	C 	0.4046	0.93543	0.7366	-0.12
Mof_C 	C 	0.9763	0.96698	0.0021	-0.062
Mof_C 	C 	0.9086	0.96286	0.0839	0.095
Mof_C 	C 	0.9084	0.95947	0.9205	0.092
Mof_C 	C 	0.1057	0.90219	0.0874	-0.038
Mof_C 	C 	0.0635	0.9206	0.00432	0.031
Mof_C 	C 	0.4093	0.87465	0.7404	0.076
Mof_C 	C 	0.1038	0.89752	0.9235	-0.034
Mof_C 	C 	0.8141	0.63947	0.08975	-0.071
Mof_C 	C 	0.7757	0.66429	0.00828	0.084
Mof_C 	C 	0.65474	0.73353	0.9299	0.135
Mof_C 	C 	0.65509	0.73168	0.09176	0.137
Mof_C 	C 	0.69682	0.71048	0.01014	-0.151
Mof_C 	C 	0.4147	0.62414	0.7766	0.084
Mof_C 	C 	0.4112	0.56341	0.77222	-0.14
Mof_C 	C 	0.50335	0.53251	0.7523	0.06
Mof_C 	C 	0.8171	0.64397	0.92568	-0.09
Mof_C 	C 	0.5954	0.56457	0.7366	-0.12
Mof_C 	C 	0.0237	0.53302	0.0021	-0.062
Mof_C 	C 	0.0914	0.53714	0.0839	0.095
Mof_C 	C 	0.0916	0.54053	0.9205	0.092
Mof_C 	C 	0.8943	0.59781	0.0874	-0.038
Mof_C 	C 	0.9365	0.5794	0.00432	0.031
Mof_C 	C 	0.5907	0.62535	0.7404	0.076
Mof_C 	C 	0.8962	0.60248	0.9235	-0.034
Mof_C 	C 	0.1859	0.13947	0.41025	-0.071
Mof_C 	C 	0.2243	0.16429	0.49172	0.084
Mof_C 	C 	0.34526	0.23353	0.5701	0.135
Mof_C 	C 	0.34491	0.23168	0.40824	0.137
Mof_C 	C 	0.30318	0.21048	0.48986	-0.152
Mof_C 	C 	0.5853	0.12414	0.7234	0.084
Mof_C 	C 	0.5888	0.06341	0.72778	-0.14
Mof_C 	C 	0.49665	0.03251	0.7477	0.06
Mof_C 	C 	0.1829	0.14397	0.57432	-0.09
Mof_C 	C 	0.4046	0.06457	0.7634	-0.12
Mof_C 	C 	0.9763	0.03302	0.4979	-0.063
Mof_C 	C 	0.9086	0.03714	0.4161	0.095
Mof_C 	C 	0.9084	0.04053	0.5795	0.092
Mof_C 	C 	0.1057	0.09781	0.4126	-0.038
Mof_C 	C 	0.0635	0.0794	0.49568	0.031
Mof_C 	C 	0.4093	0.12535	0.7596	0.076
Mof_C 	C 	0.1038	0.10248	0.5765	-0.034
Mof_C 	C 	0.8141	0.36053	0.41025	-0.071
Mof_C 	C 	0.7757	0.33571	0.49172	0.084
Mof_C 	C 	0.65474	0.26647	0.5701	0.135
Mof_C 	C 	0.65509	0.26832	0.40824	0.137
Mof_C 	C 	0.69682	0.28952	0.48986	-0.152
Mof_C 	C 	0.4147	0.37586	0.7234	0.084
Mof_C 	C 	0.4112	0.43659	0.72778	-0.14
Mof_C 	C 	0.50335	0.46749	0.7477	0.06
Mof_C 	C 	0.8171	0.35603	0.57432	-0.09
Mof_C 	C 	0.5954	0.43543	0.7634	-0.12
Mof_C 	C 	0.0237	0.46698	0.4979	-0.062
Mof_C 	C 	0.0914	0.46286	0.4161	0.095
Mof_C 	C 	0.0916	0.45947	0.5795	0.092
Mof_C 	C 	0.8943	0.40219	0.4126	-0.038
Mof_C 	C 	0.9365	0.4206	0.49568	0.031
Mof_C 	C 	0.5907	0.37465	0.7596	0.076
Mof_C 	C 	0.8962	0.39752	0.5765	-0.034
Mof_C 	C 	0.8141	0.13947	0.91025	-0.071
Mof_C 	C 	0.7757	0.16429	0.99172	0.084
Mof_C 	C 	0.65474	0.23353	0.0701	0.135
Mof_C 	C 	0.65509	0.23168	0.90824	0.137
Mof_C 	C 	0.69682	0.21048	0.98986	-0.151
Mof_C 	C 	0.4147	0.12414	0.2234	0.084
Mof_C 	C 	0.4112	0.06341	0.22778	-0.14
Mof_C 	C 	0.50335	0.03251	0.2477	0.06
Mof_C 	C 	0.8171	0.14397	0.07432	-0.09
Mof_C 	C 	0.5954	0.06457	0.2634	-0.12
Mof_C 	C 	0.0237	0.03302	0.9979	-0.062
Mof_C 	C 	0.0914	0.03714	0.9161	0.095
Mof_C 	C 	0.0916	0.04053	0.0795	0.092
Mof_C 	C 	0.8943	0.09781	0.9126	-0.038
Mof_C 	C 	0.9365	0.0794	0.99568	0.031
Mof_C 	C 	0.5907	0.12535	0.2596	0.076
Mof_C 	C 	0.8962	0.10248	0.0765	-0.034
Mof_C 	C 	0.1859	0.36053	0.91025	-0.071
Mof_C 	C 	0.2243	0.33571	0.99172	0.084
Mof_C 	C 	0.34526	0.26647	0.0701	0.135
Mof_C 	C 	0.34491	0.26832	0.90824	0.137
Mof_C 	C 	0.30318	0.28952	0.98986	-0.151
Mof_C 	C 	0.5853	0.37586	0.2234	0.084
Mof_C 	C 	0.5888	0.43659	0.22778	-0.14
Mof_C 	C 	0.49665	0.46749	0.2477	0.06
Mof_C 	C 	0.1829	0.35603	0.07432	-0.09
Mof_C 	C 	0.4046	0.43543	0.2634	-0.12
Mof_C 	C 	0.9763	0.46698	0.9979	-0.062
Mof_C 	C 	0.9086	0.46286	0.9161	0.095
Mof_C 	C 	0.9084	0.45947	0.0795	0.092
Mof_C 	C 	0.1057	0.40219	0.9126	-0.038
Mof_C 	C 	0.0635	0.4206	0.99568	0.031
Mof_C 	C 	0.4093	0.37465	0.2596	0.076
Mof_C 	C 	0.1038	0.39752	0.0765	-0.034
Mof_C 	C 	0.8141	0.86053	0.58975	-0.071
Mof_C 	C 	0.7757	0.83571	0.50828	0.084
Mof_C 	C 	0.65474	0.76647	0.4299	0.135
Mof_C 	C 	0.65509	0.76832	0.59176	0.137
Mof_C 	C 	0.69682	0.78952	0.51014	-0.152
Mof_C 	C 	0.4147	0.87586	0.2766	0.084
Mof_C 	C 	0.4112	0.93659	0.27222	-0.14
Mof_C 	C 	0.50335	0.96749	0.2523	0.06
Mof_C 	C 	0.8171	0.85603	0.42568	-0.09
Mof_C 	C 	0.5954	0.93543	0.2366	-0.12
Mof_C 	C 	0.0237	0.96698	0.5021	-0.063
Mof_C 	C 	0.0914	0.96286	0.5839	0.095
Mof_C 	C 	0.0916	0.95947	0.4205	0.092
Mof_C 	C 	0.8943	0.90219	0.5874	-0.038
Mof_C 	C 	0.9365	0.9206	0.50432	0.031
Mof_C 	C 	0.5907	0.87465	0.2404	0.076
Mof_C 	C 	0.8962	0.89752	0.4235	-0.034
Mof_C 	C 	0.1859	0.63947	0.58975	-0.071
Mof_C 	C 	0.2243	0.66429	0.50828	0.084
Mof_C 	C 	0.34526	0.73353	0.4299	0.135
Mof_C 	C 	0.34491	0.73168	0.59176	0.137
Mof_C 	C 	0.30318	0.71048	0.51014	-0.152
Mof_C 	C 	0.5853	0.62414	0.2766	0.084
Mof_C 	C 	0.5888	0.56341	0.27222	-0.14
Mof_C 	C 	0.49665	0.53251	0.2523	0.06
Mof_C 	C 	0.1829	0.64397	0.42568	-0.09
Mof_C 	C 	0.4046	0.56457	0.2366	-0.12
Mof_C 	C 	0.9763	0.53302	0.5021	-0.062
Mof_C 	C 	0.9086	0.53714	0.5839	0.095
Mof_C 	C 	0.9084	0.54053	0.4205	0.092
Mof_C 	C 	0.1057	0.59781	0.5874	-0.038
Mof_C 	C 	0.0635	0.5794	0.50432	0.031
Mof_C 	C 	0.4093	0.62535	0.2404	0.076
Mof_C 	C 	0.1038	0.60248	0.4235	-0.034
Mof_N 	N 	0.3797	0.74825	0.86317	-0.275
Mof_N 	N 	0.3789	0.75115	0.15911	-0.274
Mof_N 	N 	0.8612	0.9584	0.1496	-0.128
Mof_N 	N 	0.49669	0.84495	0.76004	-0.25
Mof_N 	N 	0.8594	0.95243	0.8556	-0.129
Mof_N 	N 	0.6203	0.75175	0.86317	-0.275
Mof_N 	N 	0.6211	0.74885	0.15911	-0.274
Mof_N 	N 	0.1388	0.5416	0.1496	-0.128
Mof_N 	N 	0.50331	0.65505	0.76004	-0.25
Mof_N 	N 	0.1406	0.54757	0.8556	-0.129
Mof_N 	N 	0.3797	0.25175	0.63683	-0.275
Mof_N 	N 	0.3789	0.24885	0.34089	-0.274
Mof_N 	N 	0.8612	0.0416	0.3504	-0.128
Mof_N 	N 	0.49669	0.15505	0.73996	-0.25
Mof_N 	N 	0.8594	0.04757	0.6444	-0.129
Mof_N 	N 	0.6203	0.24825	0.63683	-0.275
Mof_N 	N 	0.6211	0.25115	0.34089	-0.274
Mof_N 	N 	0.1388	0.4584	0.3504	-0.128
Mof_N 	N 	0.50331	0.34495	0.73996	-0.25
Mof_N 	N 	0.1406	0.45243	0.6444	-0.129
Mof_N 	N 	0.6203	0.25175	0.13683	-0.275
Mof_N 	N 	0.6211	0.24885	0.84089	-0.274
Mof_N 	N 	0.1388	0.0416	0.8504	-0.128
Mof_N 	N 	0.50331	0.15505	0.23996	-0.25
Mof_N 	N 	0.1406	0.04757	0.1444	-0.129
Mof_N 	N 	0.3797	0.24825	0.13683	-0.275
Mof_N 	N 	0.3789	0.25115	0.84089	-0.274
Mof_N 	N 	0.8612	0.4584	0.8504	-0.128
Mof_N 	N 	0.49669	0.34495	0.23996	-0.25
Mof_N 	N 	0.8594	0.45243	0.1444	-0.129
Mof_N 	N 	0.6203	0.74825	0.36317	-0.275
Mof_N 	N 	0.6211	0.75115	0.65911	-0.274
Mof_N 	N 	0.1388	0.9584	0.6496	-0.128
Mof_N 	N 	0.50331	0.84495	0.26004	-0.25
Mof_N 	N 	0.1406	0.95243	0.3556	-0.129
Mof_N 	N 	0.3797	0.75175	0.36317	-0.275
Mof_N 	N 	0.3789	0.74885	0.65911	-0.274
Mof_N 	N 	0.8612	0.5416	0.6496	-0.128
Mof_N 	N 	0.49669	0.65505	0.26004	-0.25
Mof_N 	N 	0.8594	0.54757	0.3556	-0.129
_end
