data_functionalizedCrystal
_audit_creation_method	'EQeq! by Chris Wilmer'
_symmetry_space_group_name_H-M	'P1'
_symmetry_Int_Tables_number	1
_symmetry_cell_setting	triclinic
loop_
_symmetry_equiv_pos_as_xyz
  x,y,z
_cell_length_a	12.2986
_cell_length_b	12.2986
_cell_length_c	5.2444
_cell_angle_alpha	90
_cell_angle_beta	90
_cell_angle_gamma	90
loop_
_atom_site_label
_atom_site_type_symbol
_atom_site_fract_x
_atom_site_fract_y
_atom_site_fract_z
_atom_site_charge
Mof_O 	O 	0.8731	0.4163	0.576	-0.413
Mof_Ni	Ni	0.01225	0.67929	0.2561	1.099
Mof_S 	S 	0.6915	0.56127	0.31643	0.031
Mof_O 	O 	0.9685	0.56929	0.5253	-0.424
Mof_O 	O 	0.7443	0.87226	0.2552	-0.384
Mof_N 	N 	0.8754	0.6177	0.0667	-0.187
Mof_H 	H 	0.9065	0.5957	0.8812	0.065
Mof_O 	O 	0.8974	0.7908	0.3741	-0.395
Mof_C 	C 	0.8138	0.7955	0.2361	0.313
Mof_C 	C 	0.8971	0.5022	0.4575	0.355
Mof_C 	C 	0.8306	0.5246	0.2164	-0.144
Mof_H 	H 	0.8285	0.4592	0.1097	0.097
Mof_C 	C 	0.6808	0.6563	0.0538	-0.098
Mof_H 	H 	0.6618	0.619	0.897	0.059
Mof_H 	H 	0.6264	0.7114	0.0888	0.074
Mof_C 	C 	0.7944	0.7068	0.0351	-0.096
Mof_H 	H 	0.8032	0.7388	0.8652	0.049
Mof_O 	O 	0.1269	0.5837	0.076	-0.393
Mof_Ni	Ni	0.98775	0.32071	0.7561	1.092
Mof_S 	S 	0.3085	0.43873	0.81643	0.02
Mof_O 	O 	0.0315	0.43071	0.0253	-0.404
Mof_O 	O 	0.2557	0.12774	0.7552	-0.39
Mof_N 	N 	0.1246	0.3823	0.5667	-0.195
Mof_H 	H 	0.0935	0.4043	0.3812	0.076
Mof_O 	O 	0.1026	0.2092	0.8741	-0.404
Mof_C 	C 	0.1862	0.2045	0.7361	0.316
Mof_C 	C 	0.1029	0.4978	0.9575	0.32
Mof_C 	C 	0.1694	0.4754	0.7164	-0.133
Mof_H 	H 	0.1715	0.5408	0.6097	0.089
Mof_C 	C 	0.3192	0.3437	0.5538	-0.113
Mof_H 	H 	0.3382	0.381	0.397	0.074
Mof_H 	H 	0.3736	0.2886	0.5888	0.075
Mof_C 	C 	0.2056	0.2932	0.5351	-0.11
Mof_H 	H 	0.1968	0.2612	0.3652	0.063
Mof_O 	O 	0.5837	0.8731	0.826	-0.416
Mof_Ni	Ni	0.32071	0.01225	0.5061	1.098
Mof_S 	S 	0.43873	0.6915	0.56643	0.03
Mof_O 	O 	0.43071	0.9685	0.7753	-0.425
Mof_O 	O 	0.12774	0.7443	0.5052	-0.387
Mof_N 	N 	0.3823	0.8754	0.3167	-0.193
Mof_H 	H 	0.4043	0.9065	0.1312	0.077
Mof_O 	O 	0.2092	0.8974	0.6241	-0.397
Mof_C 	C 	0.2045	0.8138	0.4861	0.314
Mof_C 	C 	0.4978	0.8971	0.7075	0.355
Mof_C 	C 	0.4754	0.8306	0.4664	-0.143
Mof_H 	H 	0.5408	0.8285	0.3597	0.094
Mof_C 	C 	0.3437	0.6808	0.3038	-0.118
Mof_H 	H 	0.381	0.6618	0.147	0.077
Mof_H 	H 	0.2886	0.6264	0.3388	0.079
Mof_C 	C 	0.2932	0.7944	0.2851	-0.107
Mof_H 	H 	0.2612	0.8032	0.1152	0.062
Mof_O 	O 	0.4163	0.1269	0.326	-0.413
Mof_Ni	Ni	0.67929	0.98775	0.0061	1.101
Mof_S 	S 	0.56127	0.3085	0.06643	0.06
Mof_O 	O 	0.56929	0.0315	0.2753	-0.425
Mof_O 	O 	0.87226	0.2557	0.0052	-0.359
Mof_N 	N 	0.6177	0.1246	0.8167	-0.196
Mof_H 	H 	0.5957	0.0935	0.6312	0.073
Mof_O 	O 	0.7908	0.1026	0.1241	-0.373
Mof_C 	C 	0.7955	0.1862	0.9861	0.268
Mof_C 	C 	0.5022	0.1029	0.2075	0.372
Mof_C 	C 	0.5246	0.1694	0.9664	-0.171
Mof_H 	H 	0.4592	0.1715	0.8597	0.098
Mof_C 	C 	0.6563	0.3192	0.8038	-0.142
Mof_H 	H 	0.619	0.3382	0.647	0.08
Mof_H 	H 	0.7114	0.3736	0.8388	0.08
Mof_C 	C 	0.7068	0.2056	0.7851	-0.091
Mof_H 	H 	0.7388	0.1968	0.6152	0.054
_end
