data_functionalizedCrystal
_audit_creation_method	'EQeq! by Chris Wilmer'
_symmetry_space_group_name_H-M	'P1'
_symmetry_Int_Tables_number	1
_symmetry_cell_setting	triclinic
loop_
_symmetry_equiv_pos_as_xyz
  x,y,z
_cell_length_a	34.837
_cell_length_b	34.837
_cell_length_c	34.837
_cell_angle_alpha	60
_cell_angle_beta	60
_cell_angle_gamma	60
loop_
_atom_site_label
_atom_site_type_symbol
_atom_site_fract_x
_atom_site_fract_y
_atom_site_fract_z
_atom_site_charge
Mof_Dy	Dy	0.52276	0.05858	0.94142	1.83
Mof_Dy	Dy	0.05858	0.52276	0.47724	1.847
Mof_Dy	Dy	0.94142	0.47724	0.52276	1.826
Mof_Dy	Dy	0.47724	0.94142	0.05858	1.83
Mof_Dy	Dy	0.52276	0.94142	0.47724	1.826
Mof_Dy	Dy	0.05858	0.47724	0.94142	1.83
Mof_Dy	Dy	0.94142	0.52276	0.05858	1.83
Mof_Dy	Dy	0.47724	0.05858	0.52276	1.847
Mof_Dy	Dy	0.52276	0.47724	0.05858	1.847
Mof_Dy	Dy	0.05858	0.94142	0.52276	1.83
Mof_Dy	Dy	0.94142	0.05858	0.47724	1.83
Mof_Dy	Dy	0.47724	0.52276	0.94142	1.826
Mof_Dy	Dy	0.44142	0.97724	0.55858	1.824
Mof_Dy	Dy	0.97724	0.44142	0.02276	1.826
Mof_Dy	Dy	0.02276	0.55858	0.97724	1.826
Mof_Dy	Dy	0.55858	0.02276	0.44142	1.848
Mof_Dy	Dy	0.55858	0.97724	0.02276	1.826
Mof_Dy	Dy	0.02276	0.44142	0.55858	1.848
Mof_Dy	Dy	0.97724	0.55858	0.44142	1.824
Mof_Dy	Dy	0.44142	0.02276	0.97724	1.826
Mof_Dy	Dy	0.02276	0.97724	0.44142	1.826
Mof_Dy	Dy	0.55858	0.44142	0.97724	1.824
Mof_Dy	Dy	0.44142	0.55858	0.02276	1.848
Mof_Dy	Dy	0.97724	0.02276	0.55858	1.826
Mof_H 	H 	0.5417	0.0523	0.0747	0.037
Mof_H 	H 	0.5549	0.2019	0.0099	0.051
Mof_H 	H 	0.5503	0.1731	0.9657	0.033
Mof_H 	H 	0.5933	0.0101	0.1701	0.02
Mof_H 	H 	0.589	0.0084	0.1274	0.026
Mof_H 	H 	0.6384	0.0564	0.0732	0.133
Mof_H 	H 	0.6652	0.0074	0.105	0.125
Mof_H 	H 	0.6446	0.0544	0.1168	0.131
Mof_H 	H 	0.4995	0.0433	0.1591	0.021
Mof_H 	H 	0.5032	0.0446	0.2024	0.016
Mof_H 	H 	0.4576	0.123	0.1874	0.133
Mof_H 	H 	0.4305	0.0963	0.1887	0.129
Mof_H 	H 	0.4586	0.1264	0.1394	0.138
Mof_H 	H 	0.0523	0.5417	0.3313	0.025
Mof_H 	H 	0.2019	0.5549	0.2333	0.063
Mof_H 	H 	0.1731	0.5503	0.3109	0.014
Mof_H 	H 	0.0101	0.5933	0.2265	0.02
Mof_H 	H 	0.0084	0.589	0.2752	0.026
Mof_H 	H 	0.0564	0.6384	0.232	0.129
Mof_H 	H 	0.0074	0.6652	0.2224	0.122
Mof_H 	H 	0.0544	0.6446	0.1842	0.129
Mof_H 	H 	0.0433	0.4995	0.2981	0.023
Mof_H 	H 	0.0446	0.5032	0.2498	0.017
Mof_H 	H 	0.123	0.4576	0.232	0.131
Mof_H 	H 	0.0963	0.4305	0.2845	0.127
Mof_H 	H 	0.1264	0.4586	0.2756	0.136
Mof_H 	H 	0.0747	0.3313	0.5417	0.032
Mof_H 	H 	0.0099	0.2333	0.5549	0.051
Mof_H 	H 	0.9657	0.3109	0.5503	0.03
Mof_H 	H 	0.1701	0.2265	0.5933	0.016
Mof_H 	H 	0.1274	0.2752	0.589	0.022
Mof_H 	H 	0.0732	0.232	0.6384	0.131
Mof_H 	H 	0.105	0.2224	0.6652	0.123
Mof_H 	H 	0.1168	0.1842	0.6446	0.13
Mof_H 	H 	0.1591	0.2981	0.4995	0.018
Mof_H 	H 	0.2024	0.2498	0.5032	0.013
Mof_H 	H 	0.1874	0.232	0.4576	0.133
Mof_H 	H 	0.1887	0.2845	0.4305	0.128
Mof_H 	H 	0.1394	0.2756	0.4586	0.138
Mof_H 	H 	0.3313	0.0747	0.0523	0.036
Mof_H 	H 	0.2333	0.0099	0.2019	0.049
Mof_H 	H 	0.3109	0.9657	0.1731	0.033
Mof_H 	H 	0.2265	0.1701	0.0101	0.019
Mof_H 	H 	0.2752	0.1274	0.0084	0.025
Mof_H 	H 	0.232	0.0732	0.0564	0.134
Mof_H 	H 	0.2224	0.105	0.0074	0.127
Mof_H 	H 	0.1842	0.1168	0.0544	0.132
Mof_H 	H 	0.2981	0.1591	0.0433	0.021
Mof_H 	H 	0.2498	0.2024	0.0446	0.016
Mof_H 	H 	0.232	0.1874	0.123	0.133
Mof_H 	H 	0.2845	0.1887	0.0963	0.129
Mof_H 	H 	0.2756	0.1394	0.1264	0.138
Mof_H 	H 	0.5417	0.0747	0.3313	0.032
Mof_H 	H 	0.5549	0.0099	0.2333	0.051
Mof_H 	H 	0.5503	0.9657	0.3109	0.03
Mof_H 	H 	0.5933	0.1701	0.2265	0.016
Mof_H 	H 	0.589	0.1274	0.2752	0.022
Mof_H 	H 	0.6384	0.0732	0.232	0.131
Mof_H 	H 	0.6652	0.105	0.2224	0.123
Mof_H 	H 	0.6446	0.1168	0.1842	0.13
Mof_H 	H 	0.4995	0.1591	0.2981	0.018
Mof_H 	H 	0.5032	0.2024	0.2498	0.013
Mof_H 	H 	0.4576	0.1874	0.232	0.133
Mof_H 	H 	0.4305	0.1887	0.2845	0.128
Mof_H 	H 	0.4586	0.1394	0.2756	0.138
Mof_H 	H 	0.0523	0.3313	0.0747	0.036
Mof_H 	H 	0.2019	0.2333	0.0099	0.049
Mof_H 	H 	0.1731	0.3109	0.9657	0.033
Mof_H 	H 	0.0101	0.2265	0.1701	0.019
Mof_H 	H 	0.0084	0.2752	0.1274	0.025
Mof_H 	H 	0.0564	0.232	0.0732	0.134
Mof_H 	H 	0.0074	0.2224	0.105	0.127
Mof_H 	H 	0.0544	0.1842	0.1168	0.132
Mof_H 	H 	0.0433	0.2981	0.1591	0.021
Mof_H 	H 	0.0446	0.2498	0.2024	0.016
Mof_H 	H 	0.123	0.232	0.1874	0.133
Mof_H 	H 	0.0963	0.2845	0.1887	0.129
Mof_H 	H 	0.1264	0.2756	0.1394	0.138
Mof_H 	H 	0.0747	0.5417	0.0523	0.036
Mof_H 	H 	0.0099	0.5549	0.2019	0.05
Mof_H 	H 	0.9657	0.5503	0.1731	0.032
Mof_H 	H 	0.1701	0.5933	0.0101	0.019
Mof_H 	H 	0.1274	0.589	0.0084	0.025
Mof_H 	H 	0.0732	0.6384	0.0564	0.132
Mof_H 	H 	0.105	0.6652	0.0074	0.125
Mof_H 	H 	0.1168	0.6446	0.0544	0.131
Mof_H 	H 	0.1591	0.4995	0.0433	0.021
Mof_H 	H 	0.2024	0.5032	0.0446	0.016
Mof_H 	H 	0.1874	0.4576	0.123	0.133
Mof_H 	H 	0.1887	0.4305	0.0963	0.129
Mof_H 	H 	0.1394	0.4586	0.1264	0.138
Mof_H 	H 	0.3313	0.0523	0.5417	0.025
Mof_H 	H 	0.2333	0.2019	0.5549	0.063
Mof_H 	H 	0.3109	0.1731	0.5503	0.014
Mof_H 	H 	0.2265	0.0101	0.5933	0.02
Mof_H 	H 	0.2752	0.0084	0.589	0.026
Mof_H 	H 	0.232	0.0564	0.6384	0.129
Mof_H 	H 	0.2224	0.0074	0.6652	0.122
Mof_H 	H 	0.1842	0.0544	0.6446	0.129
Mof_H 	H 	0.2981	0.0433	0.4995	0.023
Mof_H 	H 	0.2498	0.0446	0.5032	0.017
Mof_H 	H 	0.232	0.123	0.4576	0.131
Mof_H 	H 	0.2845	0.0963	0.4305	0.127
Mof_H 	H 	0.2756	0.1264	0.4586	0.136
Mof_H 	H 	0.5417	0.3313	0.0523	0.025
Mof_H 	H 	0.5549	0.2333	0.2019	0.063
Mof_H 	H 	0.5503	0.3109	0.1731	0.014
Mof_H 	H 	0.5933	0.2265	0.0101	0.02
Mof_H 	H 	0.589	0.2752	0.0084	0.026
Mof_H 	H 	0.6384	0.232	0.0564	0.129
Mof_H 	H 	0.6652	0.2224	0.0074	0.122
Mof_H 	H 	0.6446	0.1842	0.0544	0.129
Mof_H 	H 	0.4995	0.2981	0.0433	0.023
Mof_H 	H 	0.5032	0.2498	0.0446	0.017
Mof_H 	H 	0.4576	0.232	0.123	0.131
Mof_H 	H 	0.4305	0.2845	0.0963	0.127
Mof_H 	H 	0.4586	0.2756	0.1264	0.136
Mof_H 	H 	0.0523	0.0747	0.5417	0.036
Mof_H 	H 	0.2019	0.0099	0.5549	0.05
Mof_H 	H 	0.1731	0.9657	0.5503	0.032
Mof_H 	H 	0.0101	0.1701	0.5933	0.019
Mof_H 	H 	0.0084	0.1274	0.589	0.025
Mof_H 	H 	0.0564	0.0732	0.6384	0.132
Mof_H 	H 	0.0074	0.105	0.6652	0.125
Mof_H 	H 	0.0544	0.1168	0.6446	0.131
Mof_H 	H 	0.0433	0.1591	0.4995	0.021
Mof_H 	H 	0.0446	0.2024	0.5032	0.016
Mof_H 	H 	0.123	0.1874	0.4576	0.133
Mof_H 	H 	0.0963	0.1887	0.4305	0.129
Mof_H 	H 	0.1264	0.1394	0.4586	0.138
Mof_H 	H 	0.0747	0.0523	0.3313	0.036
Mof_H 	H 	0.0099	0.2019	0.2333	0.049
Mof_H 	H 	0.9657	0.1731	0.3109	0.033
Mof_H 	H 	0.1701	0.0101	0.2265	0.019
Mof_H 	H 	0.1274	0.0084	0.2752	0.025
Mof_H 	H 	0.0732	0.0564	0.232	0.134
Mof_H 	H 	0.105	0.0074	0.2224	0.127
Mof_H 	H 	0.1168	0.0544	0.1842	0.132
Mof_H 	H 	0.1591	0.0433	0.2981	0.021
Mof_H 	H 	0.2024	0.0446	0.2498	0.016
Mof_H 	H 	0.1874	0.123	0.232	0.133
Mof_H 	H 	0.1887	0.0963	0.2845	0.129
Mof_H 	H 	0.1394	0.1264	0.2756	0.138
Mof_H 	H 	0.3313	0.5417	0.0747	0.032
Mof_H 	H 	0.2333	0.5549	0.0099	0.051
Mof_H 	H 	0.3109	0.5503	0.9657	0.03
Mof_H 	H 	0.2265	0.5933	0.1701	0.016
Mof_H 	H 	0.2752	0.589	0.1274	0.022
Mof_H 	H 	0.232	0.6384	0.0732	0.131
Mof_H 	H 	0.2224	0.6652	0.105	0.123
Mof_H 	H 	0.1842	0.6446	0.1168	0.13
Mof_H 	H 	0.2981	0.4995	0.1591	0.018
Mof_H 	H 	0.2498	0.5032	0.2024	0.013
Mof_H 	H 	0.232	0.4576	0.1874	0.133
Mof_H 	H 	0.2845	0.4305	0.1887	0.128
Mof_H 	H 	0.2756	0.4586	0.1394	0.138
Mof_H 	H 	0.4477	0.9583	0.4253	0.02
Mof_H 	H 	0.2981	0.9451	0.4901	0.062
Mof_H 	H 	0.3269	0.9497	0.5343	0.011
Mof_H 	H 	0.4899	0.9067	0.3299	0.019
Mof_H 	H 	0.4916	0.911	0.3726	0.025
Mof_H 	H 	0.4436	0.8616	0.4268	0.126
Mof_H 	H 	0.4926	0.8348	0.395	0.118
Mof_H 	H 	0.4456	0.8554	0.3832	0.126
Mof_H 	H 	0.4567	0.0005	0.3409	0.043
Mof_H 	H 	0.4554	0.9968	0.2976	0.026
Mof_H 	H 	0.377	0.0424	0.3126	0.12
Mof_H 	H 	0.4037	0.0695	0.3113	0.112
Mof_H 	H 	0.3736	0.0414	0.3606	0.124
Mof_H 	H 	0.9583	0.4477	0.1687	0.02
Mof_H 	H 	0.9451	0.2981	0.2667	0.062
Mof_H 	H 	0.9497	0.3269	0.1891	0.011
Mof_H 	H 	0.9067	0.4899	0.2735	0.019
Mof_H 	H 	0.911	0.4916	0.2248	0.025
Mof_H 	H 	0.8616	0.4436	0.268	0.126
Mof_H 	H 	0.8348	0.4926	0.2776	0.118
Mof_H 	H 	0.8554	0.4456	0.3158	0.126
Mof_H 	H 	0.0005	0.4567	0.2019	0.044
Mof_H 	H 	0.9968	0.4554	0.2502	0.027
Mof_H 	H 	0.0424	0.377	0.268	0.119
Mof_H 	H 	0.0695	0.4037	0.2155	0.112
Mof_H 	H 	0.0414	0.3736	0.2244	0.124
Mof_H 	H 	0.1687	0.4253	0.9583	0.019
Mof_H 	H 	0.2667	0.4901	0.9451	0.062
Mof_H 	H 	0.1891	0.5343	0.9497	0.011
Mof_H 	H 	0.2735	0.3299	0.9067	0.019
Mof_H 	H 	0.2248	0.3726	0.911	0.025
Mof_H 	H 	0.268	0.4268	0.8616	0.126
Mof_H 	H 	0.2776	0.395	0.8348	0.118
Mof_H 	H 	0.3158	0.3832	0.8554	0.126
Mof_H 	H 	0.2019	0.3409	0.0005	0.045
Mof_H 	H 	0.2502	0.2976	0.9968	0.027
Mof_H 	H 	0.268	0.3126	0.0424	0.119
Mof_H 	H 	0.2155	0.3113	0.0695	0.111
Mof_H 	H 	0.2244	0.3606	0.0414	0.123
Mof_H 	H 	0.4253	0.1687	0.4477	0.023
Mof_H 	H 	0.4901	0.2667	0.2981	0.063
Mof_H 	H 	0.5343	0.1891	0.3269	0.014
Mof_H 	H 	0.3299	0.2735	0.4899	0.017
Mof_H 	H 	0.3726	0.2248	0.4916	0.023
Mof_H 	H 	0.4268	0.268	0.4436	0.128
Mof_H 	H 	0.395	0.2776	0.4926	0.12
Mof_H 	H 	0.3832	0.3158	0.4456	0.128
Mof_H 	H 	0.3409	0.2019	0.4567	0.019
Mof_H 	H 	0.2976	0.2502	0.4554	0.014
Mof_H 	H 	0.3126	0.268	0.377	0.131
Mof_H 	H 	0.3113	0.2155	0.4037	0.126
Mof_H 	H 	0.3606	0.2244	0.3736	0.136
Mof_H 	H 	0.4253	0.9583	0.1687	0.019
Mof_H 	H 	0.4901	0.9451	0.2667	0.062
Mof_H 	H 	0.5343	0.9497	0.1891	0.011
Mof_H 	H 	0.3299	0.9067	0.2735	0.019
Mof_H 	H 	0.3726	0.911	0.2248	0.025
Mof_H 	H 	0.4268	0.8616	0.268	0.126
Mof_H 	H 	0.395	0.8348	0.2776	0.118
Mof_H 	H 	0.3832	0.8554	0.3158	0.126
Mof_H 	H 	0.3409	0.0005	0.2019	0.045
Mof_H 	H 	0.2976	0.9968	0.2502	0.027
Mof_H 	H 	0.3126	0.0424	0.268	0.119
Mof_H 	H 	0.3113	0.0695	0.2155	0.111
Mof_H 	H 	0.3606	0.0414	0.2244	0.123
Mof_H 	H 	0.1687	0.4477	0.4253	0.023
Mof_H 	H 	0.2667	0.2981	0.4901	0.063
Mof_H 	H 	0.1891	0.3269	0.5343	0.014
Mof_H 	H 	0.2735	0.4899	0.3299	0.017
Mof_H 	H 	0.2248	0.4916	0.3726	0.023
Mof_H 	H 	0.268	0.4436	0.4268	0.128
Mof_H 	H 	0.2776	0.4926	0.395	0.12
Mof_H 	H 	0.3158	0.4456	0.3832	0.128
Mof_H 	H 	0.2019	0.4567	0.3409	0.019
Mof_H 	H 	0.2502	0.4554	0.2976	0.014
Mof_H 	H 	0.268	0.377	0.3126	0.131
Mof_H 	H 	0.2155	0.4037	0.3113	0.126
Mof_H 	H 	0.2244	0.3736	0.3606	0.136
Mof_H 	H 	0.9583	0.4253	0.4477	0.02
Mof_H 	H 	0.9451	0.4901	0.2981	0.062
Mof_H 	H 	0.9497	0.5343	0.3269	0.011
Mof_H 	H 	0.9067	0.3299	0.4899	0.019
Mof_H 	H 	0.911	0.3726	0.4916	0.025
Mof_H 	H 	0.8616	0.4268	0.4436	0.126
Mof_H 	H 	0.8348	0.395	0.4926	0.118
Mof_H 	H 	0.8554	0.3832	0.4456	0.126
Mof_H 	H 	0.0005	0.3409	0.4567	0.043
Mof_H 	H 	0.9968	0.2976	0.4554	0.026
Mof_H 	H 	0.0424	0.3126	0.377	0.12
Mof_H 	H 	0.0695	0.3113	0.4037	0.112
Mof_H 	H 	0.0414	0.3606	0.3736	0.124
Mof_H 	H 	0.4477	0.1687	0.9583	0.02
Mof_H 	H 	0.2981	0.2667	0.9451	0.062
Mof_H 	H 	0.3269	0.1891	0.9497	0.011
Mof_H 	H 	0.4899	0.2735	0.9067	0.019
Mof_H 	H 	0.4916	0.2248	0.911	0.025
Mof_H 	H 	0.4436	0.268	0.8616	0.126
Mof_H 	H 	0.4926	0.2776	0.8348	0.118
Mof_H 	H 	0.4456	0.3158	0.8554	0.126
Mof_H 	H 	0.4567	0.2019	0.0005	0.044
Mof_H 	H 	0.4554	0.2502	0.9968	0.027
Mof_H 	H 	0.377	0.268	0.0424	0.119
Mof_H 	H 	0.4037	0.2155	0.0695	0.112
Mof_H 	H 	0.3736	0.2244	0.0414	0.124
Mof_H 	H 	0.1687	0.9583	0.4477	0.02
Mof_H 	H 	0.2667	0.9451	0.2981	0.062
Mof_H 	H 	0.1891	0.9497	0.3269	0.011
Mof_H 	H 	0.2735	0.9067	0.4899	0.019
Mof_H 	H 	0.2248	0.911	0.4916	0.025
Mof_H 	H 	0.268	0.8616	0.4436	0.126
Mof_H 	H 	0.2776	0.8348	0.4926	0.118
Mof_H 	H 	0.3158	0.8554	0.4456	0.126
Mof_H 	H 	0.2019	0.0005	0.4567	0.044
Mof_H 	H 	0.2502	0.9968	0.4554	0.027
Mof_H 	H 	0.268	0.0424	0.377	0.119
Mof_H 	H 	0.2155	0.0695	0.4037	0.112
Mof_H 	H 	0.2244	0.0414	0.3736	0.124
Mof_H 	H 	0.4253	0.4477	0.9583	0.02
Mof_H 	H 	0.4901	0.2981	0.9451	0.062
Mof_H 	H 	0.5343	0.3269	0.9497	0.011
Mof_H 	H 	0.3299	0.4899	0.9067	0.019
Mof_H 	H 	0.3726	0.4916	0.911	0.025
Mof_H 	H 	0.4268	0.4436	0.8616	0.126
Mof_H 	H 	0.395	0.4926	0.8348	0.118
Mof_H 	H 	0.3832	0.4456	0.8554	0.126
Mof_H 	H 	0.3409	0.4567	0.0005	0.043
Mof_H 	H 	0.2976	0.4554	0.9968	0.026
Mof_H 	H 	0.3126	0.377	0.0424	0.12
Mof_H 	H 	0.3113	0.4037	0.0695	0.112
Mof_H 	H 	0.3606	0.3736	0.0414	0.124
Mof_H 	H 	0.4477	0.4253	0.1687	0.023
Mof_H 	H 	0.2981	0.4901	0.2667	0.063
Mof_H 	H 	0.3269	0.5343	0.1891	0.014
Mof_H 	H 	0.4899	0.3299	0.2735	0.017
Mof_H 	H 	0.4916	0.3726	0.2248	0.023
Mof_H 	H 	0.4436	0.4268	0.268	0.128
Mof_H 	H 	0.4926	0.395	0.2776	0.12
Mof_H 	H 	0.4456	0.3832	0.3158	0.128
Mof_H 	H 	0.4567	0.3409	0.2019	0.019
Mof_H 	H 	0.4554	0.2976	0.2502	0.014
Mof_H 	H 	0.377	0.3126	0.268	0.131
Mof_H 	H 	0.4037	0.3113	0.2155	0.126
Mof_H 	H 	0.3736	0.3606	0.2244	0.136
Mof_H 	H 	0.9583	0.1687	0.4253	0.019
Mof_H 	H 	0.9451	0.2667	0.4901	0.062
Mof_H 	H 	0.9497	0.1891	0.5343	0.011
Mof_H 	H 	0.9067	0.2735	0.3299	0.019
Mof_H 	H 	0.911	0.2248	0.3726	0.025
Mof_H 	H 	0.8616	0.268	0.4268	0.126
Mof_H 	H 	0.8348	0.2776	0.395	0.118
Mof_H 	H 	0.8554	0.3158	0.3832	0.126
Mof_H 	H 	0.0005	0.2019	0.3409	0.045
Mof_H 	H 	0.9968	0.2502	0.2976	0.027
Mof_H 	H 	0.0424	0.268	0.3126	0.119
Mof_H 	H 	0.0695	0.2155	0.3113	0.111
Mof_H 	H 	0.0414	0.2244	0.3606	0.123
Mof_H 	H 	0.4583	0.9477	0.9253	0.013
Mof_H 	H 	0.4451	0.7981	0.9901	0.073
Mof_H 	H 	0.4497	0.8269	0.0343	-0
Mof_H 	H 	0.4067	0.9899	0.8299	0.015
Mof_H 	H 	0.411	0.9916	0.8726	0.021
Mof_H 	H 	0.3616	0.9436	0.9268	0.124
Mof_H 	H 	0.3348	0.9926	0.895	0.115
Mof_H 	H 	0.3554	0.9456	0.8832	0.125
Mof_H 	H 	0.5005	0.9567	0.8409	0.018
Mof_H 	H 	0.4968	0.9554	0.7976	0.013
Mof_H 	H 	0.5424	0.877	0.8126	0.13
Mof_H 	H 	0.5695	0.9037	0.8113	0.124
Mof_H 	H 	0.5414	0.8736	0.8606	0.135
Mof_H 	H 	0.9477	0.4583	0.6687	0.02
Mof_H 	H 	0.7981	0.4451	0.7667	0.063
Mof_H 	H 	0.8269	0.4497	0.6891	0.013
Mof_H 	H 	0.9899	0.4067	0.7735	0.014
Mof_H 	H 	0.9916	0.411	0.7248	0.02
Mof_H 	H 	0.9436	0.3616	0.768	0.127
Mof_H 	H 	0.9926	0.3348	0.7776	0.117
Mof_H 	H 	0.9456	0.3554	0.8158	0.126
Mof_H 	H 	0.9567	0.5005	0.7019	0.016
Mof_H 	H 	0.9554	0.4968	0.7502	0.012
Mof_H 	H 	0.877	0.5424	0.768	0.131
Mof_H 	H 	0.9037	0.5695	0.7155	0.125
Mof_H 	H 	0.8736	0.5414	0.7244	0.136
Mof_H 	H 	0.9253	0.6687	0.4583	0.014
Mof_H 	H 	0.9901	0.7667	0.4451	0.073
Mof_H 	H 	0.0343	0.6891	0.4497	-0.001
Mof_H 	H 	0.8299	0.7735	0.4067	0.018
Mof_H 	H 	0.8726	0.7248	0.411	0.024
Mof_H 	H 	0.9268	0.768	0.3616	0.125
Mof_H 	H 	0.895	0.7776	0.3348	0.117
Mof_H 	H 	0.8832	0.8158	0.3554	0.125
Mof_H 	H 	0.8409	0.7019	0.5005	0.021
Mof_H 	H 	0.7976	0.7502	0.4968	0.015
Mof_H 	H 	0.8126	0.768	0.5424	0.13
Mof_H 	H 	0.8113	0.7155	0.5695	0.125
Mof_H 	H 	0.8606	0.7244	0.5414	0.134
Mof_H 	H 	0.6687	0.9253	0.9477	0.014
Mof_H 	H 	0.7667	0.9901	0.7981	0.071
Mof_H 	H 	0.6891	0.0343	0.8269	0.001
Mof_H 	H 	0.7735	0.8299	0.9899	0.015
Mof_H 	H 	0.7248	0.8726	0.9916	0.021
Mof_H 	H 	0.768	0.9268	0.9436	0.124
Mof_H 	H 	0.7776	0.895	0.9926	0.115
Mof_H 	H 	0.8158	0.8832	0.9456	0.124
Mof_H 	H 	0.7019	0.8409	0.9567	0.018
Mof_H 	H 	0.7502	0.7976	0.9554	0.013
Mof_H 	H 	0.768	0.8126	0.877	0.13
Mof_H 	H 	0.7155	0.8113	0.9037	0.124
Mof_H 	H 	0.7244	0.8606	0.8736	0.135
Mof_H 	H 	0.4583	0.9253	0.6687	0.014
Mof_H 	H 	0.4451	0.9901	0.7667	0.073
Mof_H 	H 	0.4497	0.0343	0.6891	-0.001
Mof_H 	H 	0.4067	0.8299	0.7735	0.018
Mof_H 	H 	0.411	0.8726	0.7248	0.024
Mof_H 	H 	0.3616	0.9268	0.768	0.125
Mof_H 	H 	0.3348	0.895	0.7776	0.117
Mof_H 	H 	0.3554	0.8832	0.8158	0.125
Mof_H 	H 	0.5005	0.8409	0.7019	0.021
Mof_H 	H 	0.4968	0.7976	0.7502	0.015
Mof_H 	H 	0.5424	0.8126	0.768	0.13
Mof_H 	H 	0.5695	0.8113	0.7155	0.125
Mof_H 	H 	0.5414	0.8606	0.7244	0.134
Mof_H 	H 	0.9477	0.6687	0.9253	0.014
Mof_H 	H 	0.7981	0.7667	0.9901	0.071
Mof_H 	H 	0.8269	0.6891	0.0343	0.001
Mof_H 	H 	0.9899	0.7735	0.8299	0.015
Mof_H 	H 	0.9916	0.7248	0.8726	0.021
Mof_H 	H 	0.9436	0.768	0.9268	0.124
Mof_H 	H 	0.9926	0.7776	0.895	0.115
Mof_H 	H 	0.9456	0.8158	0.8832	0.124
Mof_H 	H 	0.9567	0.7019	0.8409	0.018
Mof_H 	H 	0.9554	0.7502	0.7976	0.013
Mof_H 	H 	0.877	0.768	0.8126	0.13
Mof_H 	H 	0.9037	0.7155	0.8113	0.124
Mof_H 	H 	0.8736	0.7244	0.8606	0.135
Mof_H 	H 	0.9253	0.4583	0.9477	0.013
Mof_H 	H 	0.9901	0.4451	0.7981	0.073
Mof_H 	H 	0.0343	0.4497	0.8269	-0
Mof_H 	H 	0.8299	0.4067	0.9899	0.015
Mof_H 	H 	0.8726	0.411	0.9916	0.021
Mof_H 	H 	0.9268	0.3616	0.9436	0.124
Mof_H 	H 	0.895	0.3348	0.9926	0.115
Mof_H 	H 	0.8832	0.3554	0.9456	0.125
Mof_H 	H 	0.8409	0.5005	0.9567	0.018
Mof_H 	H 	0.7976	0.4968	0.9554	0.013
Mof_H 	H 	0.8126	0.5424	0.877	0.13
Mof_H 	H 	0.8113	0.5695	0.9037	0.124
Mof_H 	H 	0.8606	0.5414	0.8736	0.135
Mof_H 	H 	0.6687	0.9477	0.4583	0.02
Mof_H 	H 	0.7667	0.7981	0.4451	0.063
Mof_H 	H 	0.6891	0.8269	0.4497	0.013
Mof_H 	H 	0.7735	0.9899	0.4067	0.014
Mof_H 	H 	0.7248	0.9916	0.411	0.02
Mof_H 	H 	0.768	0.9436	0.3616	0.127
Mof_H 	H 	0.7776	0.9926	0.3348	0.117
Mof_H 	H 	0.8158	0.9456	0.3554	0.126
Mof_H 	H 	0.7019	0.9567	0.5005	0.016
Mof_H 	H 	0.7502	0.9554	0.4968	0.012
Mof_H 	H 	0.768	0.877	0.5424	0.131
Mof_H 	H 	0.7155	0.9037	0.5695	0.125
Mof_H 	H 	0.7244	0.8736	0.5414	0.136
Mof_H 	H 	0.4583	0.6687	0.9477	0.02
Mof_H 	H 	0.4451	0.7667	0.7981	0.063
Mof_H 	H 	0.4497	0.6891	0.8269	0.013
Mof_H 	H 	0.4067	0.7735	0.9899	0.014
Mof_H 	H 	0.411	0.7248	0.9916	0.02
Mof_H 	H 	0.3616	0.768	0.9436	0.127
Mof_H 	H 	0.3348	0.7776	0.9926	0.117
Mof_H 	H 	0.3554	0.8158	0.9456	0.126
Mof_H 	H 	0.5005	0.7019	0.9567	0.016
Mof_H 	H 	0.4968	0.7502	0.9554	0.012
Mof_H 	H 	0.5424	0.768	0.877	0.131
Mof_H 	H 	0.5695	0.7155	0.9037	0.125
Mof_H 	H 	0.5414	0.7244	0.8736	0.136
Mof_H 	H 	0.9477	0.9253	0.4583	0.013
Mof_H 	H 	0.7981	0.9901	0.4451	0.073
Mof_H 	H 	0.8269	0.0343	0.4497	-0
Mof_H 	H 	0.9899	0.8299	0.4067	0.015
Mof_H 	H 	0.9916	0.8726	0.411	0.021
Mof_H 	H 	0.9436	0.9268	0.3616	0.124
Mof_H 	H 	0.9926	0.895	0.3348	0.115
Mof_H 	H 	0.9456	0.8832	0.3554	0.125
Mof_H 	H 	0.9567	0.8409	0.5005	0.018
Mof_H 	H 	0.9554	0.7976	0.4968	0.013
Mof_H 	H 	0.877	0.8126	0.5424	0.13
Mof_H 	H 	0.9037	0.8113	0.5695	0.124
Mof_H 	H 	0.8736	0.8606	0.5414	0.135
Mof_H 	H 	0.9253	0.9477	0.6687	0.014
Mof_H 	H 	0.9901	0.7981	0.7667	0.071
Mof_H 	H 	0.0343	0.8269	0.6891	0.001
Mof_H 	H 	0.8299	0.9899	0.7735	0.015
Mof_H 	H 	0.8726	0.9916	0.7248	0.021
Mof_H 	H 	0.9268	0.9436	0.768	0.124
Mof_H 	H 	0.895	0.9926	0.7776	0.115
Mof_H 	H 	0.8832	0.9456	0.8158	0.124
Mof_H 	H 	0.8409	0.9567	0.7019	0.018
Mof_H 	H 	0.7976	0.9554	0.7502	0.013
Mof_H 	H 	0.8126	0.877	0.768	0.13
Mof_H 	H 	0.8113	0.9037	0.7155	0.124
Mof_H 	H 	0.8606	0.8736	0.7244	0.135
Mof_H 	H 	0.6687	0.4583	0.9253	0.014
Mof_H 	H 	0.7667	0.4451	0.9901	0.073
Mof_H 	H 	0.6891	0.4497	0.0343	-0.001
Mof_H 	H 	0.7735	0.4067	0.8299	0.018
Mof_H 	H 	0.7248	0.411	0.8726	0.024
Mof_H 	H 	0.768	0.3616	0.9268	0.125
Mof_H 	H 	0.7776	0.3348	0.895	0.117
Mof_H 	H 	0.8158	0.3554	0.8832	0.125
Mof_H 	H 	0.7019	0.5005	0.8409	0.021
Mof_H 	H 	0.7502	0.4968	0.7976	0.015
Mof_H 	H 	0.768	0.5424	0.8126	0.13
Mof_H 	H 	0.7155	0.5695	0.8113	0.125
Mof_H 	H 	0.7244	0.5414	0.8606	0.134
Mof_H 	H 	0.5523	0.0417	0.5747	0.025
Mof_H 	H 	0.7019	0.0549	0.5099	0.064
Mof_H 	H 	0.6731	0.0503	0.4657	0.016
Mof_H 	H 	0.5101	0.0933	0.6701	0.015
Mof_H 	H 	0.5084	0.089	0.6274	0.022
Mof_H 	H 	0.5564	0.1384	0.5732	0.13
Mof_H 	H 	0.5074	0.1652	0.605	0.122
Mof_H 	H 	0.5544	0.1446	0.6168	0.13
Mof_H 	H 	0.5433	0.9995	0.6591	-0.001
Mof_H 	H 	0.5446	0.0032	0.7024	0.004
Mof_H 	H 	0.623	0.9576	0.6874	0.141
Mof_H 	H 	0.5963	0.9305	0.6887	0.138
Mof_H 	H 	0.6264	0.9586	0.6394	0.146
Mof_H 	H 	0.0417	0.5523	0.8313	0.025
Mof_H 	H 	0.0549	0.7019	0.7333	0.064
Mof_H 	H 	0.0503	0.6731	0.8109	0.015
Mof_H 	H 	0.0933	0.5101	0.7265	0.015
Mof_H 	H 	0.089	0.5084	0.7752	0.022
Mof_H 	H 	0.1384	0.5564	0.732	0.13
Mof_H 	H 	0.1652	0.5074	0.7224	0.122
Mof_H 	H 	0.1446	0.5544	0.6842	0.13
Mof_H 	H 	0.9995	0.5433	0.7981	0
Mof_H 	H 	0.0032	0.5446	0.7498	0.005
Mof_H 	H 	0.9576	0.623	0.732	0.14
Mof_H 	H 	0.9305	0.5963	0.7845	0.137
Mof_H 	H 	0.9586	0.6264	0.7756	0.145
Mof_H 	H 	0.8313	0.5747	0.0417	0.025
Mof_H 	H 	0.7333	0.5099	0.0549	0.064
Mof_H 	H 	0.8109	0.4657	0.0503	0.016
Mof_H 	H 	0.7265	0.6701	0.0933	0.015
Mof_H 	H 	0.7752	0.6274	0.089	0.022
Mof_H 	H 	0.732	0.5732	0.1384	0.13
Mof_H 	H 	0.7224	0.605	0.1652	0.122
Mof_H 	H 	0.6842	0.6168	0.1446	0.13
Mof_H 	H 	0.7981	0.6591	0.9995	0.001
Mof_H 	H 	0.7498	0.7024	0.0032	0.005
Mof_H 	H 	0.732	0.6874	0.9576	0.139
Mof_H 	H 	0.7845	0.6887	0.9305	0.136
Mof_H 	H 	0.7756	0.6394	0.9586	0.145
Mof_H 	H 	0.5747	0.8313	0.5523	0.023
Mof_H 	H 	0.5099	0.7333	0.7019	0.063
Mof_H 	H 	0.4657	0.8109	0.6731	0.013
Mof_H 	H 	0.6701	0.7265	0.5101	0.017
Mof_H 	H 	0.6274	0.7752	0.5084	0.023
Mof_H 	H 	0.5732	0.732	0.5564	0.128
Mof_H 	H 	0.605	0.7224	0.5074	0.12
Mof_H 	H 	0.6168	0.6842	0.5544	0.128
Mof_H 	H 	0.6591	0.7981	0.5433	0.019
Mof_H 	H 	0.7024	0.7498	0.5446	0.014
Mof_H 	H 	0.6874	0.732	0.623	0.131
Mof_H 	H 	0.6887	0.7845	0.5963	0.126
Mof_H 	H 	0.6394	0.7756	0.6264	0.136
Mof_H 	H 	0.5747	0.0417	0.8313	0.025
Mof_H 	H 	0.5099	0.0549	0.7333	0.064
Mof_H 	H 	0.4657	0.0503	0.8109	0.016
Mof_H 	H 	0.6701	0.0933	0.7265	0.015
Mof_H 	H 	0.6274	0.089	0.7752	0.022
Mof_H 	H 	0.5732	0.1384	0.732	0.13
Mof_H 	H 	0.605	0.1652	0.7224	0.122
Mof_H 	H 	0.6168	0.1446	0.6842	0.13
Mof_H 	H 	0.6591	0.9995	0.7981	0.001
Mof_H 	H 	0.7024	0.0032	0.7498	0.005
Mof_H 	H 	0.6874	0.9576	0.732	0.139
Mof_H 	H 	0.6887	0.9305	0.7845	0.136
Mof_H 	H 	0.6394	0.9586	0.7756	0.145
Mof_H 	H 	0.8313	0.5523	0.5747	0.023
Mof_H 	H 	0.7333	0.7019	0.5099	0.063
Mof_H 	H 	0.8109	0.6731	0.4657	0.013
Mof_H 	H 	0.7265	0.5101	0.6701	0.017
Mof_H 	H 	0.7752	0.5084	0.6274	0.023
Mof_H 	H 	0.732	0.5564	0.5732	0.128
Mof_H 	H 	0.7224	0.5074	0.605	0.12
Mof_H 	H 	0.6842	0.5544	0.6168	0.128
Mof_H 	H 	0.7981	0.5433	0.6591	0.019
Mof_H 	H 	0.7498	0.5446	0.7024	0.014
Mof_H 	H 	0.732	0.623	0.6874	0.131
Mof_H 	H 	0.7845	0.5963	0.6887	0.126
Mof_H 	H 	0.7756	0.6264	0.6394	0.136
Mof_H 	H 	0.0417	0.5747	0.5523	0.025
Mof_H 	H 	0.0549	0.5099	0.7019	0.064
Mof_H 	H 	0.0503	0.4657	0.6731	0.016
Mof_H 	H 	0.0933	0.6701	0.5101	0.015
Mof_H 	H 	0.089	0.6274	0.5084	0.022
Mof_H 	H 	0.1384	0.5732	0.5564	0.13
Mof_H 	H 	0.1652	0.605	0.5074	0.122
Mof_H 	H 	0.1446	0.6168	0.5544	0.13
Mof_H 	H 	0.9995	0.6591	0.5433	-0.001
Mof_H 	H 	0.0032	0.7024	0.5446	0.004
Mof_H 	H 	0.9576	0.6874	0.623	0.141
Mof_H 	H 	0.9305	0.6887	0.5963	0.138
Mof_H 	H 	0.9586	0.6394	0.6264	0.146
Mof_H 	H 	0.5523	0.8313	0.0417	0.025
Mof_H 	H 	0.7019	0.7333	0.0549	0.064
Mof_H 	H 	0.6731	0.8109	0.0503	0.015
Mof_H 	H 	0.5101	0.7265	0.0933	0.015
Mof_H 	H 	0.5084	0.7752	0.089	0.022
Mof_H 	H 	0.5564	0.732	0.1384	0.13
Mof_H 	H 	0.5074	0.7224	0.1652	0.122
Mof_H 	H 	0.5544	0.6842	0.1446	0.13
Mof_H 	H 	0.5433	0.7981	0.9995	0
Mof_H 	H 	0.5446	0.7498	0.0032	0.005
Mof_H 	H 	0.623	0.732	0.9576	0.14
Mof_H 	H 	0.5963	0.7845	0.9305	0.137
Mof_H 	H 	0.6264	0.7756	0.9586	0.145
Mof_H 	H 	0.8313	0.0417	0.5523	0.025
Mof_H 	H 	0.7333	0.0549	0.7019	0.064
Mof_H 	H 	0.8109	0.0503	0.6731	0.015
Mof_H 	H 	0.7265	0.0933	0.5101	0.015
Mof_H 	H 	0.7752	0.089	0.5084	0.022
Mof_H 	H 	0.732	0.1384	0.5564	0.13
Mof_H 	H 	0.7224	0.1652	0.5074	0.122
Mof_H 	H 	0.6842	0.1446	0.5544	0.13
Mof_H 	H 	0.7981	0.9995	0.5433	0
Mof_H 	H 	0.7498	0.0032	0.5446	0.005
Mof_H 	H 	0.732	0.9576	0.623	0.14
Mof_H 	H 	0.7845	0.9305	0.5963	0.137
Mof_H 	H 	0.7756	0.9586	0.6264	0.145
Mof_H 	H 	0.5747	0.5523	0.0417	0.025
Mof_H 	H 	0.5099	0.7019	0.0549	0.064
Mof_H 	H 	0.4657	0.6731	0.0503	0.016
Mof_H 	H 	0.6701	0.5101	0.0933	0.015
Mof_H 	H 	0.6274	0.5084	0.089	0.022
Mof_H 	H 	0.5732	0.5564	0.1384	0.13
Mof_H 	H 	0.605	0.5074	0.1652	0.122
Mof_H 	H 	0.6168	0.5544	0.1446	0.13
Mof_H 	H 	0.6591	0.5433	0.9995	-0.001
Mof_H 	H 	0.7024	0.5446	0.0032	0.004
Mof_H 	H 	0.6874	0.623	0.9576	0.141
Mof_H 	H 	0.6887	0.5963	0.9305	0.138
Mof_H 	H 	0.6394	0.6264	0.9586	0.146
Mof_H 	H 	0.5523	0.5747	0.8313	0.023
Mof_H 	H 	0.7019	0.5099	0.7333	0.063
Mof_H 	H 	0.6731	0.4657	0.8109	0.013
Mof_H 	H 	0.5101	0.6701	0.7265	0.017
Mof_H 	H 	0.5084	0.6274	0.7752	0.023
Mof_H 	H 	0.5564	0.5732	0.732	0.128
Mof_H 	H 	0.5074	0.605	0.7224	0.12
Mof_H 	H 	0.5544	0.6168	0.6842	0.128
Mof_H 	H 	0.5433	0.6591	0.7981	0.019
Mof_H 	H 	0.5446	0.7024	0.7498	0.014
Mof_H 	H 	0.623	0.6874	0.732	0.131
Mof_H 	H 	0.5963	0.6887	0.7845	0.126
Mof_H 	H 	0.6264	0.6394	0.7756	0.136
Mof_H 	H 	0.0417	0.8313	0.5747	0.025
Mof_H 	H 	0.0549	0.7333	0.5099	0.064
Mof_H 	H 	0.0503	0.8109	0.4657	0.016
Mof_H 	H 	0.0933	0.7265	0.6701	0.015
Mof_H 	H 	0.089	0.7752	0.6274	0.022
Mof_H 	H 	0.1384	0.732	0.5732	0.13
Mof_H 	H 	0.1652	0.7224	0.605	0.122
Mof_H 	H 	0.1446	0.6842	0.6168	0.13
Mof_H 	H 	0.9995	0.7981	0.6591	0.001
Mof_H 	H 	0.0032	0.7498	0.7024	0.005
Mof_H 	H 	0.9576	0.732	0.6874	0.139
Mof_H 	H 	0.9305	0.7845	0.6887	0.136
Mof_H 	H 	0.9586	0.7756	0.6394	0.145
Mof_C 	C 	0.53963	0.09419	0.98723	0.391
Mof_C 	C 	0.54508	0.1106	0.01554	-0.104
Mof_C 	C 	0.54449	0.08245	0.06161	-0.022
Mof_C 	C 	0.54816	0.09956	0.08814	-0.01
Mof_C 	C 	0.55158	0.14448	0.06964	0.014
Mof_C 	C 	0.55234	0.1716	0.02338	-0.075
Mof_C 	C 	0.54939	0.15431	0.99721	-0.016
Mof_C 	C 	0.54904	0.07348	0.13768	-0.036
Mof_C 	C 	0.55242	0.10962	0.14714	0.008
Mof_C 	C 	0.55323	0.15155	0.10743	-0.035
Mof_C 	C 	0.59238	0.0281	0.13762	0.014
Mof_C 	C 	0.63942	0.03738	0.10524	-0.38
Mof_C 	C 	0.50206	0.06306	0.16996	0.031
Mof_C 	C 	0.45836	0.10598	0.17144	-0.401
Mof_C 	C 	0.09419	0.53963	0.37895	0.428
Mof_C 	C 	0.1106	0.54508	0.32878	-0.155
Mof_C 	C 	0.08245	0.54449	0.31145	0.007
Mof_C 	C 	0.09956	0.54816	0.26414	-0.029
Mof_C 	C 	0.14448	0.55158	0.2343	0.035
Mof_C 	C 	0.1716	0.55234	0.25268	-0.12
Mof_C 	C 	0.15431	0.54939	0.29909	0.046
Mof_C 	C 	0.07348	0.54904	0.2398	-0.029
Mof_C 	C 	0.10962	0.55242	0.19082	0.008
Mof_C 	C 	0.15155	0.55323	0.18779	-0.042
Mof_C 	C 	0.0281	0.59238	0.2419	0.009
Mof_C 	C 	0.03738	0.63942	0.21796	-0.375
Mof_C 	C 	0.06306	0.50206	0.26492	0.026
Mof_C 	C 	0.10598	0.45836	0.26422	-0.396
Mof_C 	C 	0.98723	0.37895	0.53963	0.396
Mof_C 	C 	0.01554	0.32878	0.54508	-0.111
Mof_C 	C 	0.06161	0.31145	0.54449	-0.018
Mof_C 	C 	0.08814	0.26414	0.54816	-0.012
Mof_C 	C 	0.06964	0.2343	0.55158	0.016
Mof_C 	C 	0.02338	0.25268	0.55234	-0.079
Mof_C 	C 	0.99721	0.29909	0.54939	-0.011
Mof_C 	C 	0.13768	0.2398	0.54904	-0.038
Mof_C 	C 	0.14714	0.19082	0.55242	0.011
Mof_C 	C 	0.10743	0.18779	0.55323	-0.036
Mof_C 	C 	0.13762	0.2419	0.59238	0.016
Mof_C 	C 	0.10524	0.21796	0.63942	-0.381
Mof_C 	C 	0.16996	0.26492	0.50206	0.034
Mof_C 	C 	0.17144	0.26422	0.45836	-0.402
Mof_C 	C 	0.37895	0.98723	0.09419	0.388
Mof_C 	C 	0.32878	0.01554	0.1106	-0.1
Mof_C 	C 	0.31145	0.06161	0.08245	-0.024
Mof_C 	C 	0.26414	0.08814	0.09956	-0.009
Mof_C 	C 	0.2343	0.06964	0.14448	0.012
Mof_C 	C 	0.25268	0.02338	0.1716	-0.071
Mof_C 	C 	0.29909	0.99721	0.15431	-0.021
Mof_C 	C 	0.2398	0.13768	0.07348	-0.036
Mof_C 	C 	0.19082	0.14714	0.10962	0.007
Mof_C 	C 	0.18779	0.10743	0.15155	-0.033
Mof_C 	C 	0.2419	0.13762	0.0281	0.015
Mof_C 	C 	0.21796	0.10524	0.03738	-0.383
Mof_C 	C 	0.26492	0.16996	0.06306	0.031
Mof_C 	C 	0.26422	0.17144	0.10598	-0.401
Mof_C 	C 	0.53963	0.98723	0.37895	0.396
Mof_C 	C 	0.54508	0.01554	0.32878	-0.111
Mof_C 	C 	0.54449	0.06161	0.31145	-0.018
Mof_C 	C 	0.54816	0.08814	0.26414	-0.012
Mof_C 	C 	0.55158	0.06964	0.2343	0.016
Mof_C 	C 	0.55234	0.02338	0.25268	-0.079
Mof_C 	C 	0.54939	0.99721	0.29909	-0.011
Mof_C 	C 	0.54904	0.13768	0.2398	-0.038
Mof_C 	C 	0.55242	0.14714	0.19082	0.011
Mof_C 	C 	0.55323	0.10743	0.18779	-0.036
Mof_C 	C 	0.59238	0.13762	0.2419	0.016
Mof_C 	C 	0.63942	0.10524	0.21796	-0.381
Mof_C 	C 	0.50206	0.16996	0.26492	0.034
Mof_C 	C 	0.45836	0.17144	0.26422	-0.402
Mof_C 	C 	0.09419	0.37895	0.98723	0.388
Mof_C 	C 	0.1106	0.32878	0.01554	-0.1
Mof_C 	C 	0.08245	0.31145	0.06161	-0.024
Mof_C 	C 	0.09956	0.26414	0.08814	-0.009
Mof_C 	C 	0.14448	0.2343	0.06964	0.012
Mof_C 	C 	0.1716	0.25268	0.02338	-0.071
Mof_C 	C 	0.15431	0.29909	0.99721	-0.021
Mof_C 	C 	0.07348	0.2398	0.13768	-0.036
Mof_C 	C 	0.10962	0.19082	0.14714	0.007
Mof_C 	C 	0.15155	0.18779	0.10743	-0.033
Mof_C 	C 	0.0281	0.2419	0.13762	0.015
Mof_C 	C 	0.03738	0.21796	0.10524	-0.383
Mof_C 	C 	0.06306	0.26492	0.16996	0.031
Mof_C 	C 	0.10598	0.26422	0.17144	-0.401
Mof_C 	C 	0.98723	0.53963	0.09419	0.391
Mof_C 	C 	0.01554	0.54508	0.1106	-0.104
Mof_C 	C 	0.06161	0.54449	0.08245	-0.022
Mof_C 	C 	0.08814	0.54816	0.09956	-0.01
Mof_C 	C 	0.06964	0.55158	0.14448	0.014
Mof_C 	C 	0.02338	0.55234	0.1716	-0.075
Mof_C 	C 	0.99721	0.54939	0.15431	-0.016
Mof_C 	C 	0.13768	0.54904	0.07348	-0.036
Mof_C 	C 	0.14714	0.55242	0.10962	0.008
Mof_C 	C 	0.10743	0.55323	0.15155	-0.035
Mof_C 	C 	0.13762	0.59238	0.0281	0.014
Mof_C 	C 	0.10524	0.63942	0.03738	-0.38
Mof_C 	C 	0.16996	0.50206	0.06306	0.031
Mof_C 	C 	0.17144	0.45836	0.10598	-0.401
Mof_C 	C 	0.37895	0.09419	0.53963	0.428
Mof_C 	C 	0.32878	0.1106	0.54508	-0.155
Mof_C 	C 	0.31145	0.08245	0.54449	0.007
Mof_C 	C 	0.26414	0.09956	0.54816	-0.029
Mof_C 	C 	0.2343	0.14448	0.55158	0.035
Mof_C 	C 	0.25268	0.1716	0.55234	-0.12
Mof_C 	C 	0.29909	0.15431	0.54939	0.046
Mof_C 	C 	0.2398	0.07348	0.54904	-0.029
Mof_C 	C 	0.19082	0.10962	0.55242	0.008
Mof_C 	C 	0.18779	0.15155	0.55323	-0.042
Mof_C 	C 	0.2419	0.0281	0.59238	0.009
Mof_C 	C 	0.21796	0.03738	0.63942	-0.375
Mof_C 	C 	0.26492	0.06306	0.50206	0.026
Mof_C 	C 	0.26422	0.10598	0.45836	-0.396
Mof_C 	C 	0.53963	0.37895	0.09419	0.428
Mof_C 	C 	0.54508	0.32878	0.1106	-0.155
Mof_C 	C 	0.54449	0.31145	0.08245	0.007
Mof_C 	C 	0.54816	0.26414	0.09956	-0.029
Mof_C 	C 	0.55158	0.2343	0.14448	0.035
Mof_C 	C 	0.55234	0.25268	0.1716	-0.12
Mof_C 	C 	0.54939	0.29909	0.15431	0.046
Mof_C 	C 	0.54904	0.2398	0.07348	-0.029
Mof_C 	C 	0.55242	0.19082	0.10962	0.008
Mof_C 	C 	0.55323	0.18779	0.15155	-0.042
Mof_C 	C 	0.59238	0.2419	0.0281	0.009
Mof_C 	C 	0.63942	0.21796	0.03738	-0.375
Mof_C 	C 	0.50206	0.26492	0.06306	0.026
Mof_C 	C 	0.45836	0.26422	0.10598	-0.396
Mof_C 	C 	0.09419	0.98723	0.53963	0.391
Mof_C 	C 	0.1106	0.01554	0.54508	-0.104
Mof_C 	C 	0.08245	0.06161	0.54449	-0.022
Mof_C 	C 	0.09956	0.08814	0.54816	-0.01
Mof_C 	C 	0.14448	0.06964	0.55158	0.014
Mof_C 	C 	0.1716	0.02338	0.55234	-0.075
Mof_C 	C 	0.15431	0.99721	0.54939	-0.016
Mof_C 	C 	0.07348	0.13768	0.54904	-0.036
Mof_C 	C 	0.10962	0.14714	0.55242	0.008
Mof_C 	C 	0.15155	0.10743	0.55323	-0.035
Mof_C 	C 	0.0281	0.13762	0.59238	0.014
Mof_C 	C 	0.03738	0.10524	0.63942	-0.38
Mof_C 	C 	0.06306	0.16996	0.50206	0.031
Mof_C 	C 	0.10598	0.17144	0.45836	-0.401
Mof_C 	C 	0.98723	0.09419	0.37895	0.388
Mof_C 	C 	0.01554	0.1106	0.32878	-0.1
Mof_C 	C 	0.06161	0.08245	0.31145	-0.024
Mof_C 	C 	0.08814	0.09956	0.26414	-0.009
Mof_C 	C 	0.06964	0.14448	0.2343	0.012
Mof_C 	C 	0.02338	0.1716	0.25268	-0.071
Mof_C 	C 	0.99721	0.15431	0.29909	-0.021
Mof_C 	C 	0.13768	0.07348	0.2398	-0.036
Mof_C 	C 	0.14714	0.10962	0.19082	0.007
Mof_C 	C 	0.10743	0.15155	0.18779	-0.033
Mof_C 	C 	0.13762	0.0281	0.2419	0.015
Mof_C 	C 	0.10524	0.03738	0.21796	-0.383
Mof_C 	C 	0.16996	0.06306	0.26492	0.031
Mof_C 	C 	0.17144	0.10598	0.26422	-0.401
Mof_C 	C 	0.37895	0.53963	0.98723	0.396
Mof_C 	C 	0.32878	0.54508	0.01554	-0.111
Mof_C 	C 	0.31145	0.54449	0.06161	-0.018
Mof_C 	C 	0.26414	0.54816	0.08814	-0.012
Mof_C 	C 	0.2343	0.55158	0.06964	0.016
Mof_C 	C 	0.25268	0.55234	0.02338	-0.079
Mof_C 	C 	0.29909	0.54939	0.99721	-0.011
Mof_C 	C 	0.2398	0.54904	0.13768	-0.038
Mof_C 	C 	0.19082	0.55242	0.14714	0.011
Mof_C 	C 	0.18779	0.55323	0.10743	-0.036
Mof_C 	C 	0.2419	0.59238	0.13762	0.016
Mof_C 	C 	0.21796	0.63942	0.10524	-0.381
Mof_C 	C 	0.26492	0.50206	0.16996	0.034
Mof_C 	C 	0.26422	0.45836	0.17144	-0.402
Mof_C 	C 	0.40581	0.96037	0.51277	0.429
Mof_C 	C 	0.3894	0.95492	0.48446	-0.161
Mof_C 	C 	0.41755	0.95551	0.43839	0.011
Mof_C 	C 	0.40044	0.95184	0.41186	-0.036
Mof_C 	C 	0.35552	0.94842	0.43036	0.036
Mof_C 	C 	0.3284	0.94766	0.47662	-0.124
Mof_C 	C 	0.34569	0.95061	0.50279	0.048
Mof_C 	C 	0.42652	0.95096	0.36232	-0.016
Mof_C 	C 	0.39038	0.94758	0.35286	0.006
Mof_C 	C 	0.34845	0.94677	0.39257	-0.04
Mof_C 	C 	0.4719	0.90762	0.36238	0.001
Mof_C 	C 	0.46262	0.86058	0.39476	-0.367
Mof_C 	C 	0.43694	0.99794	0.33004	-0.025
Mof_C 	C 	0.39402	0.04164	0.32856	-0.345
Mof_C 	C 	0.96037	0.40581	0.12105	0.43
Mof_C 	C 	0.95492	0.3894	0.17122	-0.161
Mof_C 	C 	0.95551	0.41755	0.18855	0.012
Mof_C 	C 	0.95184	0.40044	0.23586	-0.036
Mof_C 	C 	0.94842	0.35552	0.2657	0.036
Mof_C 	C 	0.94766	0.3284	0.24732	-0.124
Mof_C 	C 	0.95061	0.34569	0.20091	0.048
Mof_C 	C 	0.95096	0.42652	0.2602	-0.015
Mof_C 	C 	0.94758	0.39038	0.30918	0.005
Mof_C 	C 	0.94677	0.34845	0.31221	-0.04
Mof_C 	C 	0.90762	0.4719	0.2581	0
Mof_C 	C 	0.86058	0.46262	0.28204	-0.367
Mof_C 	C 	0.99794	0.43694	0.23508	-0.027
Mof_C 	C 	0.04164	0.39402	0.23578	-0.343
Mof_C 	C 	0.12105	0.51277	0.96037	0.43
Mof_C 	C 	0.17122	0.48446	0.95492	-0.161
Mof_C 	C 	0.18855	0.43839	0.95551	0.012
Mof_C 	C 	0.23586	0.41186	0.95184	-0.036
Mof_C 	C 	0.2657	0.43036	0.94842	0.036
Mof_C 	C 	0.24732	0.47662	0.94766	-0.124
Mof_C 	C 	0.20091	0.50279	0.95061	0.048
Mof_C 	C 	0.2602	0.36232	0.95096	-0.014
Mof_C 	C 	0.30918	0.35286	0.94758	0.005
Mof_C 	C 	0.31221	0.39257	0.94677	-0.04
Mof_C 	C 	0.2581	0.36238	0.90762	-0
Mof_C 	C 	0.28204	0.39476	0.86058	-0.367
Mof_C 	C 	0.23508	0.33004	0.99794	-0.029
Mof_C 	C 	0.23578	0.32856	0.04164	-0.341
Mof_C 	C 	0.51277	0.12105	0.40581	0.43
Mof_C 	C 	0.48446	0.17122	0.3894	-0.157
Mof_C 	C 	0.43839	0.18855	0.41755	0.008
Mof_C 	C 	0.41186	0.23586	0.40044	-0.029
Mof_C 	C 	0.43036	0.2657	0.35552	0.036
Mof_C 	C 	0.47662	0.24732	0.3284	-0.122
Mof_C 	C 	0.50279	0.20091	0.34569	0.048
Mof_C 	C 	0.36232	0.2602	0.42652	-0.032
Mof_C 	C 	0.35286	0.30918	0.39038	0.013
Mof_C 	C 	0.39257	0.31221	0.34845	-0.044
Mof_C 	C 	0.36238	0.2581	0.4719	0.011
Mof_C 	C 	0.39476	0.28204	0.46262	-0.375
Mof_C 	C 	0.33004	0.23508	0.43694	0.03
Mof_C 	C 	0.32856	0.23578	0.39402	-0.398
Mof_C 	C 	0.51277	0.96037	0.12105	0.43
Mof_C 	C 	0.48446	0.95492	0.17122	-0.161
Mof_C 	C 	0.43839	0.95551	0.18855	0.012
Mof_C 	C 	0.41186	0.95184	0.23586	-0.036
Mof_C 	C 	0.43036	0.94842	0.2657	0.036
Mof_C 	C 	0.47662	0.94766	0.24732	-0.124
Mof_C 	C 	0.50279	0.95061	0.20091	0.048
Mof_C 	C 	0.36232	0.95096	0.2602	-0.014
Mof_C 	C 	0.35286	0.94758	0.30918	0.005
Mof_C 	C 	0.39257	0.94677	0.31221	-0.04
Mof_C 	C 	0.36238	0.90762	0.2581	-0
Mof_C 	C 	0.39476	0.86058	0.28204	-0.367
Mof_C 	C 	0.33004	0.99794	0.23508	-0.029
Mof_C 	C 	0.32856	0.04164	0.23578	-0.341
Mof_C 	C 	0.12105	0.40581	0.51277	0.43
Mof_C 	C 	0.17122	0.3894	0.48446	-0.157
Mof_C 	C 	0.18855	0.41755	0.43839	0.008
Mof_C 	C 	0.23586	0.40044	0.41186	-0.029
Mof_C 	C 	0.2657	0.35552	0.43036	0.036
Mof_C 	C 	0.24732	0.3284	0.47662	-0.122
Mof_C 	C 	0.20091	0.34569	0.50279	0.048
Mof_C 	C 	0.2602	0.42652	0.36232	-0.032
Mof_C 	C 	0.30918	0.39038	0.35286	0.013
Mof_C 	C 	0.31221	0.34845	0.39257	-0.044
Mof_C 	C 	0.2581	0.4719	0.36238	0.011
Mof_C 	C 	0.28204	0.46262	0.39476	-0.375
Mof_C 	C 	0.23508	0.43694	0.33004	0.03
Mof_C 	C 	0.23578	0.39402	0.32856	-0.398
Mof_C 	C 	0.96037	0.51277	0.40581	0.429
Mof_C 	C 	0.95492	0.48446	0.3894	-0.161
Mof_C 	C 	0.95551	0.43839	0.41755	0.011
Mof_C 	C 	0.95184	0.41186	0.40044	-0.036
Mof_C 	C 	0.94842	0.43036	0.35552	0.036
Mof_C 	C 	0.94766	0.47662	0.3284	-0.124
Mof_C 	C 	0.95061	0.50279	0.34569	0.048
Mof_C 	C 	0.95096	0.36232	0.42652	-0.016
Mof_C 	C 	0.94758	0.35286	0.39038	0.006
Mof_C 	C 	0.94677	0.39257	0.34845	-0.04
Mof_C 	C 	0.90762	0.36238	0.4719	0.001
Mof_C 	C 	0.86058	0.39476	0.46262	-0.367
Mof_C 	C 	0.99794	0.33004	0.43694	-0.025
Mof_C 	C 	0.04164	0.32856	0.39402	-0.345
Mof_C 	C 	0.40581	0.12105	0.96037	0.43
Mof_C 	C 	0.3894	0.17122	0.95492	-0.161
Mof_C 	C 	0.41755	0.18855	0.95551	0.012
Mof_C 	C 	0.40044	0.23586	0.95184	-0.036
Mof_C 	C 	0.35552	0.2657	0.94842	0.036
Mof_C 	C 	0.3284	0.24732	0.94766	-0.124
Mof_C 	C 	0.34569	0.20091	0.95061	0.048
Mof_C 	C 	0.42652	0.2602	0.95096	-0.015
Mof_C 	C 	0.39038	0.30918	0.94758	0.005
Mof_C 	C 	0.34845	0.31221	0.94677	-0.04
Mof_C 	C 	0.4719	0.2581	0.90762	0
Mof_C 	C 	0.46262	0.28204	0.86058	-0.367
Mof_C 	C 	0.43694	0.23508	0.99794	-0.027
Mof_C 	C 	0.39402	0.23578	0.04164	-0.343
Mof_C 	C 	0.12105	0.96037	0.40581	0.43
Mof_C 	C 	0.17122	0.95492	0.3894	-0.161
Mof_C 	C 	0.18855	0.95551	0.41755	0.012
Mof_C 	C 	0.23586	0.95184	0.40044	-0.036
Mof_C 	C 	0.2657	0.94842	0.35552	0.036
Mof_C 	C 	0.24732	0.94766	0.3284	-0.124
Mof_C 	C 	0.20091	0.95061	0.34569	0.048
Mof_C 	C 	0.2602	0.95096	0.42652	-0.015
Mof_C 	C 	0.30918	0.94758	0.39038	0.005
Mof_C 	C 	0.31221	0.94677	0.34845	-0.04
Mof_C 	C 	0.2581	0.90762	0.4719	0
Mof_C 	C 	0.28204	0.86058	0.46262	-0.367
Mof_C 	C 	0.23508	0.99794	0.43694	-0.027
Mof_C 	C 	0.23578	0.04164	0.39402	-0.343
Mof_C 	C 	0.51277	0.40581	0.96037	0.429
Mof_C 	C 	0.48446	0.3894	0.95492	-0.161
Mof_C 	C 	0.43839	0.41755	0.95551	0.011
Mof_C 	C 	0.41186	0.40044	0.95184	-0.036
Mof_C 	C 	0.43036	0.35552	0.94842	0.036
Mof_C 	C 	0.47662	0.3284	0.94766	-0.124
Mof_C 	C 	0.50279	0.34569	0.95061	0.048
Mof_C 	C 	0.36232	0.42652	0.95096	-0.016
Mof_C 	C 	0.35286	0.39038	0.94758	0.006
Mof_C 	C 	0.39257	0.34845	0.94677	-0.04
Mof_C 	C 	0.36238	0.4719	0.90762	0.001
Mof_C 	C 	0.39476	0.46262	0.86058	-0.367
Mof_C 	C 	0.33004	0.43694	0.99794	-0.025
Mof_C 	C 	0.32856	0.39402	0.04164	-0.345
Mof_C 	C 	0.40581	0.51277	0.12105	0.43
Mof_C 	C 	0.3894	0.48446	0.17122	-0.157
Mof_C 	C 	0.41755	0.43839	0.18855	0.008
Mof_C 	C 	0.40044	0.41186	0.23586	-0.029
Mof_C 	C 	0.35552	0.43036	0.2657	0.036
Mof_C 	C 	0.3284	0.47662	0.24732	-0.122
Mof_C 	C 	0.34569	0.50279	0.20091	0.048
Mof_C 	C 	0.42652	0.36232	0.2602	-0.032
Mof_C 	C 	0.39038	0.35286	0.30918	0.013
Mof_C 	C 	0.34845	0.39257	0.31221	-0.044
Mof_C 	C 	0.4719	0.36238	0.2581	0.011
Mof_C 	C 	0.46262	0.39476	0.28204	-0.375
Mof_C 	C 	0.43694	0.33004	0.23508	0.03
Mof_C 	C 	0.39402	0.32856	0.23578	-0.398
Mof_C 	C 	0.96037	0.12105	0.51277	0.43
Mof_C 	C 	0.95492	0.17122	0.48446	-0.161
Mof_C 	C 	0.95551	0.18855	0.43839	0.012
Mof_C 	C 	0.95184	0.23586	0.41186	-0.036
Mof_C 	C 	0.94842	0.2657	0.43036	0.036
Mof_C 	C 	0.94766	0.24732	0.47662	-0.124
Mof_C 	C 	0.95061	0.20091	0.50279	0.048
Mof_C 	C 	0.95096	0.2602	0.36232	-0.014
Mof_C 	C 	0.94758	0.30918	0.35286	0.005
Mof_C 	C 	0.94677	0.31221	0.39257	-0.04
Mof_C 	C 	0.90762	0.2581	0.36238	-0
Mof_C 	C 	0.86058	0.28204	0.39476	-0.367
Mof_C 	C 	0.99794	0.23508	0.33004	-0.029
Mof_C 	C 	0.04164	0.23578	0.32856	-0.341
Mof_C 	C 	0.46037	0.90581	0.01277	0.457
Mof_C 	C 	0.45492	0.8894	0.98446	-0.197
Mof_C 	C 	0.45551	0.91755	0.93839	0.03
Mof_C 	C 	0.45184	0.90044	0.91186	-0.043
Mof_C 	C 	0.44842	0.85552	0.93036	0.052
Mof_C 	C 	0.44766	0.8284	0.97662	-0.157
Mof_C 	C 	0.45061	0.84569	0.00279	0.095
Mof_C 	C 	0.45096	0.92652	0.86232	-0.029
Mof_C 	C 	0.44758	0.89038	0.85286	0.016
Mof_C 	C 	0.44677	0.84845	0.89257	-0.05
Mof_C 	C 	0.40762	0.9719	0.86238	0.008
Mof_C 	C 	0.36058	0.96262	0.89476	-0.369
Mof_C 	C 	0.49794	0.93694	0.83004	0.028
Mof_C 	C 	0.54164	0.89402	0.82856	-0.395
Mof_C 	C 	0.90581	0.46037	0.62105	0.431
Mof_C 	C 	0.8894	0.45492	0.67122	-0.159
Mof_C 	C 	0.91755	0.45551	0.68855	0.009
Mof_C 	C 	0.90044	0.45184	0.73586	-0.029
Mof_C 	C 	0.85552	0.44842	0.7657	0.036
Mof_C 	C 	0.8284	0.44766	0.74732	-0.123
Mof_C 	C 	0.84569	0.45061	0.70091	0.048
Mof_C 	C 	0.92652	0.45096	0.7602	-0.034
Mof_C 	C 	0.89038	0.44758	0.80918	0.016
Mof_C 	C 	0.84845	0.44677	0.81221	-0.045
Mof_C 	C 	0.9719	0.40762	0.7581	0.013
Mof_C 	C 	0.96262	0.36058	0.78204	-0.373
Mof_C 	C 	0.93694	0.49794	0.73508	0.032
Mof_C 	C 	0.89402	0.54164	0.73578	-0.399
Mof_C 	C 	0.01277	0.62105	0.46037	0.46
Mof_C 	C 	0.98446	0.67122	0.45492	-0.199
Mof_C 	C 	0.93839	0.68855	0.45551	0.032
Mof_C 	C 	0.91186	0.73586	0.45184	-0.044
Mof_C 	C 	0.93036	0.7657	0.44842	0.053
Mof_C 	C 	0.97662	0.74732	0.44766	-0.159
Mof_C 	C 	0.00279	0.70091	0.45061	0.099
Mof_C 	C 	0.86232	0.7602	0.45096	-0.026
Mof_C 	C 	0.85286	0.80918	0.44758	0.014
Mof_C 	C 	0.89257	0.81221	0.44677	-0.05
Mof_C 	C 	0.86238	0.7581	0.40762	0.006
Mof_C 	C 	0.89476	0.78204	0.36058	-0.368
Mof_C 	C 	0.83004	0.73508	0.49794	0.025
Mof_C 	C 	0.82856	0.73578	0.54164	-0.393
Mof_C 	C 	0.62105	0.01277	0.90581	0.455
Mof_C 	C 	0.67122	0.98446	0.8894	-0.193
Mof_C 	C 	0.68855	0.93839	0.91755	0.028
Mof_C 	C 	0.73586	0.91186	0.90044	-0.042
Mof_C 	C 	0.7657	0.93036	0.85552	0.05
Mof_C 	C 	0.74732	0.97662	0.8284	-0.153
Mof_C 	C 	0.70091	0.00279	0.84569	0.09
Mof_C 	C 	0.7602	0.86232	0.92652	-0.029
Mof_C 	C 	0.80918	0.85286	0.89038	0.016
Mof_C 	C 	0.81221	0.89257	0.84845	-0.05
Mof_C 	C 	0.7581	0.86238	0.9719	0.008
Mof_C 	C 	0.78204	0.89476	0.96262	-0.368
Mof_C 	C 	0.73508	0.83004	0.93694	0.028
Mof_C 	C 	0.73578	0.82856	0.89402	-0.395
Mof_C 	C 	0.46037	0.01277	0.62105	0.46
Mof_C 	C 	0.45492	0.98446	0.67122	-0.199
Mof_C 	C 	0.45551	0.93839	0.68855	0.032
Mof_C 	C 	0.45184	0.91186	0.73586	-0.044
Mof_C 	C 	0.44842	0.93036	0.7657	0.053
Mof_C 	C 	0.44766	0.97662	0.74732	-0.159
Mof_C 	C 	0.45061	0.00279	0.70091	0.099
Mof_C 	C 	0.45096	0.86232	0.7602	-0.026
Mof_C 	C 	0.44758	0.85286	0.80918	0.014
Mof_C 	C 	0.44677	0.89257	0.81221	-0.05
Mof_C 	C 	0.40762	0.86238	0.7581	0.006
Mof_C 	C 	0.36058	0.89476	0.78204	-0.368
Mof_C 	C 	0.49794	0.83004	0.73508	0.025
Mof_C 	C 	0.54164	0.82856	0.73578	-0.393
Mof_C 	C 	0.90581	0.62105	0.01277	0.455
Mof_C 	C 	0.8894	0.67122	0.98446	-0.193
Mof_C 	C 	0.91755	0.68855	0.93839	0.028
Mof_C 	C 	0.90044	0.73586	0.91186	-0.042
Mof_C 	C 	0.85552	0.7657	0.93036	0.05
Mof_C 	C 	0.8284	0.74732	0.97662	-0.153
Mof_C 	C 	0.84569	0.70091	0.00279	0.09
Mof_C 	C 	0.92652	0.7602	0.86232	-0.029
Mof_C 	C 	0.89038	0.80918	0.85286	0.016
Mof_C 	C 	0.84845	0.81221	0.89257	-0.05
Mof_C 	C 	0.9719	0.7581	0.86238	0.008
Mof_C 	C 	0.96262	0.78204	0.89476	-0.368
Mof_C 	C 	0.93694	0.73508	0.83004	0.028
Mof_C 	C 	0.89402	0.73578	0.82856	-0.395
Mof_C 	C 	0.01277	0.46037	0.90581	0.457
Mof_C 	C 	0.98446	0.45492	0.8894	-0.197
Mof_C 	C 	0.93839	0.45551	0.91755	0.03
Mof_C 	C 	0.91186	0.45184	0.90044	-0.043
Mof_C 	C 	0.93036	0.44842	0.85552	0.052
Mof_C 	C 	0.97662	0.44766	0.8284	-0.157
Mof_C 	C 	0.00279	0.45061	0.84569	0.095
Mof_C 	C 	0.86232	0.45096	0.92652	-0.029
Mof_C 	C 	0.85286	0.44758	0.89038	0.016
Mof_C 	C 	0.89257	0.44677	0.84845	-0.05
Mof_C 	C 	0.86238	0.40762	0.9719	0.008
Mof_C 	C 	0.89476	0.36058	0.96262	-0.369
Mof_C 	C 	0.83004	0.49794	0.93694	0.028
Mof_C 	C 	0.82856	0.54164	0.89402	-0.395
Mof_C 	C 	0.62105	0.90581	0.46037	0.431
Mof_C 	C 	0.67122	0.8894	0.45492	-0.159
Mof_C 	C 	0.68855	0.91755	0.45551	0.009
Mof_C 	C 	0.73586	0.90044	0.45184	-0.029
Mof_C 	C 	0.7657	0.85552	0.44842	0.036
Mof_C 	C 	0.74732	0.8284	0.44766	-0.123
Mof_C 	C 	0.70091	0.84569	0.45061	0.048
Mof_C 	C 	0.7602	0.92652	0.45096	-0.034
Mof_C 	C 	0.80918	0.89038	0.44758	0.016
Mof_C 	C 	0.81221	0.84845	0.44677	-0.045
Mof_C 	C 	0.7581	0.9719	0.40762	0.013
Mof_C 	C 	0.78204	0.96262	0.36058	-0.373
Mof_C 	C 	0.73508	0.93694	0.49794	0.032
Mof_C 	C 	0.73578	0.89402	0.54164	-0.399
Mof_C 	C 	0.46037	0.62105	0.90581	0.431
Mof_C 	C 	0.45492	0.67122	0.8894	-0.159
Mof_C 	C 	0.45551	0.68855	0.91755	0.009
Mof_C 	C 	0.45184	0.73586	0.90044	-0.029
Mof_C 	C 	0.44842	0.7657	0.85552	0.036
Mof_C 	C 	0.44766	0.74732	0.8284	-0.123
Mof_C 	C 	0.45061	0.70091	0.84569	0.048
Mof_C 	C 	0.45096	0.7602	0.92652	-0.034
Mof_C 	C 	0.44758	0.80918	0.89038	0.016
Mof_C 	C 	0.44677	0.81221	0.84845	-0.045
Mof_C 	C 	0.40762	0.7581	0.9719	0.013
Mof_C 	C 	0.36058	0.78204	0.96262	-0.373
Mof_C 	C 	0.49794	0.73508	0.93694	0.032
Mof_C 	C 	0.54164	0.73578	0.89402	-0.399
Mof_C 	C 	0.90581	0.01277	0.46037	0.457
Mof_C 	C 	0.8894	0.98446	0.45492	-0.197
Mof_C 	C 	0.91755	0.93839	0.45551	0.03
Mof_C 	C 	0.90044	0.91186	0.45184	-0.043
Mof_C 	C 	0.85552	0.93036	0.44842	0.052
Mof_C 	C 	0.8284	0.97662	0.44766	-0.157
Mof_C 	C 	0.84569	0.00279	0.45061	0.095
Mof_C 	C 	0.92652	0.86232	0.45096	-0.029
Mof_C 	C 	0.89038	0.85286	0.44758	0.016
Mof_C 	C 	0.84845	0.89257	0.44677	-0.05
Mof_C 	C 	0.9719	0.86238	0.40762	0.008
Mof_C 	C 	0.96262	0.89476	0.36058	-0.369
Mof_C 	C 	0.93694	0.83004	0.49794	0.028
Mof_C 	C 	0.89402	0.82856	0.54164	-0.395
Mof_C 	C 	0.01277	0.90581	0.62105	0.455
Mof_C 	C 	0.98446	0.8894	0.67122	-0.193
Mof_C 	C 	0.93839	0.91755	0.68855	0.028
Mof_C 	C 	0.91186	0.90044	0.73586	-0.042
Mof_C 	C 	0.93036	0.85552	0.7657	0.05
Mof_C 	C 	0.97662	0.8284	0.74732	-0.153
Mof_C 	C 	0.00279	0.84569	0.70091	0.09
Mof_C 	C 	0.86232	0.92652	0.7602	-0.029
Mof_C 	C 	0.85286	0.89038	0.80918	0.016
Mof_C 	C 	0.89257	0.84845	0.81221	-0.05
Mof_C 	C 	0.86238	0.9719	0.7581	0.008
Mof_C 	C 	0.89476	0.96262	0.78204	-0.368
Mof_C 	C 	0.83004	0.93694	0.73508	0.028
Mof_C 	C 	0.82856	0.89402	0.73578	-0.395
Mof_C 	C 	0.62105	0.46037	0.01277	0.46
Mof_C 	C 	0.67122	0.45492	0.98446	-0.199
Mof_C 	C 	0.68855	0.45551	0.93839	0.032
Mof_C 	C 	0.73586	0.45184	0.91186	-0.044
Mof_C 	C 	0.7657	0.44842	0.93036	0.053
Mof_C 	C 	0.74732	0.44766	0.97662	-0.159
Mof_C 	C 	0.70091	0.45061	0.00279	0.099
Mof_C 	C 	0.7602	0.45096	0.86232	-0.026
Mof_C 	C 	0.80918	0.44758	0.85286	0.014
Mof_C 	C 	0.81221	0.44677	0.89257	-0.05
Mof_C 	C 	0.7581	0.40762	0.86238	0.006
Mof_C 	C 	0.78204	0.36058	0.89476	-0.368
Mof_C 	C 	0.73508	0.49794	0.83004	0.025
Mof_C 	C 	0.73578	0.54164	0.82856	-0.393
Mof_C 	C 	0.59419	0.03963	0.48723	0.429
Mof_C 	C 	0.6106	0.04508	0.51554	-0.154
Mof_C 	C 	0.58245	0.04449	0.56161	0.006
Mof_C 	C 	0.59956	0.04816	0.58814	-0.023
Mof_C 	C 	0.64448	0.05158	0.56964	0.035
Mof_C 	C 	0.6716	0.05234	0.52338	-0.12
Mof_C 	C 	0.65431	0.04939	0.49721	0.047
Mof_C 	C 	0.57348	0.04904	0.63768	-0.045
Mof_C 	C 	0.60962	0.05242	0.64714	0.018
Mof_C 	C 	0.65155	0.05323	0.60743	-0.046
Mof_C 	C 	0.5281	0.09238	0.63762	0.02
Mof_C 	C 	0.53738	0.13942	0.60524	-0.381
Mof_C 	C 	0.56306	0.00206	0.66996	0.075
Mof_C 	C 	0.60598	0.95836	0.67144	-0.441
Mof_C 	C 	0.03963	0.59419	0.87895	0.429
Mof_C 	C 	0.04508	0.6106	0.82878	-0.154
Mof_C 	C 	0.04449	0.58245	0.81145	0.006
Mof_C 	C 	0.04816	0.59956	0.76414	-0.023
Mof_C 	C 	0.05158	0.64448	0.7343	0.035
Mof_C 	C 	0.05234	0.6716	0.75268	-0.12
Mof_C 	C 	0.04939	0.65431	0.79909	0.046
Mof_C 	C 	0.04904	0.57348	0.7398	-0.044
Mof_C 	C 	0.05242	0.60962	0.69082	0.018
Mof_C 	C 	0.05323	0.65155	0.68779	-0.046
Mof_C 	C 	0.09238	0.5281	0.7419	0.019
Mof_C 	C 	0.13942	0.53738	0.71796	-0.381
Mof_C 	C 	0.00206	0.56306	0.76492	0.072
Mof_C 	C 	0.95836	0.60598	0.76422	-0.439
Mof_C 	C 	0.87895	0.48723	0.03963	0.429
Mof_C 	C 	0.82878	0.51554	0.04508	-0.154
Mof_C 	C 	0.81145	0.56161	0.04449	0.006
Mof_C 	C 	0.76414	0.58814	0.04816	-0.024
Mof_C 	C 	0.7343	0.56964	0.05158	0.035
Mof_C 	C 	0.75268	0.52338	0.05234	-0.12
Mof_C 	C 	0.79909	0.49721	0.04939	0.047
Mof_C 	C 	0.7398	0.63768	0.04904	-0.044
Mof_C 	C 	0.69082	0.64714	0.05242	0.018
Mof_C 	C 	0.68779	0.60743	0.05323	-0.046
Mof_C 	C 	0.7419	0.63762	0.09238	0.019
Mof_C 	C 	0.71796	0.60524	0.13942	-0.381
Mof_C 	C 	0.76492	0.66996	0.00206	0.07
Mof_C 	C 	0.76422	0.67144	0.95836	-0.436
Mof_C 	C 	0.48723	0.87895	0.59419	0.429
Mof_C 	C 	0.51554	0.82878	0.6106	-0.157
Mof_C 	C 	0.56161	0.81145	0.58245	0.008
Mof_C 	C 	0.58814	0.76414	0.59956	-0.029
Mof_C 	C 	0.56964	0.7343	0.64448	0.036
Mof_C 	C 	0.52338	0.75268	0.6716	-0.122
Mof_C 	C 	0.49721	0.79909	0.65431	0.047
Mof_C 	C 	0.63768	0.7398	0.57348	-0.032
Mof_C 	C 	0.64714	0.69082	0.60962	0.013
Mof_C 	C 	0.60743	0.68779	0.65155	-0.043
Mof_C 	C 	0.63762	0.7419	0.5281	0.011
Mof_C 	C 	0.60524	0.71796	0.53738	-0.375
Mof_C 	C 	0.66996	0.76492	0.56306	0.029
Mof_C 	C 	0.67144	0.76422	0.60598	-0.397
Mof_C 	C 	0.48723	0.03963	0.87895	0.429
Mof_C 	C 	0.51554	0.04508	0.82878	-0.154
Mof_C 	C 	0.56161	0.04449	0.81145	0.006
Mof_C 	C 	0.58814	0.04816	0.76414	-0.024
Mof_C 	C 	0.56964	0.05158	0.7343	0.035
Mof_C 	C 	0.52338	0.05234	0.75268	-0.12
Mof_C 	C 	0.49721	0.04939	0.79909	0.047
Mof_C 	C 	0.63768	0.04904	0.7398	-0.044
Mof_C 	C 	0.64714	0.05242	0.69082	0.018
Mof_C 	C 	0.60743	0.05323	0.68779	-0.046
Mof_C 	C 	0.63762	0.09238	0.7419	0.019
Mof_C 	C 	0.60524	0.13942	0.71796	-0.381
Mof_C 	C 	0.66996	0.00206	0.76492	0.07
Mof_C 	C 	0.67144	0.95836	0.76422	-0.436
Mof_C 	C 	0.87895	0.59419	0.48723	0.429
Mof_C 	C 	0.82878	0.6106	0.51554	-0.157
Mof_C 	C 	0.81145	0.58245	0.56161	0.008
Mof_C 	C 	0.76414	0.59956	0.58814	-0.029
Mof_C 	C 	0.7343	0.64448	0.56964	0.036
Mof_C 	C 	0.75268	0.6716	0.52338	-0.122
Mof_C 	C 	0.79909	0.65431	0.49721	0.047
Mof_C 	C 	0.7398	0.57348	0.63768	-0.032
Mof_C 	C 	0.69082	0.60962	0.64714	0.013
Mof_C 	C 	0.68779	0.65155	0.60743	-0.043
Mof_C 	C 	0.7419	0.5281	0.63762	0.011
Mof_C 	C 	0.71796	0.53738	0.60524	-0.375
Mof_C 	C 	0.76492	0.56306	0.66996	0.029
Mof_C 	C 	0.76422	0.60598	0.67144	-0.397
Mof_C 	C 	0.03963	0.48723	0.59419	0.429
Mof_C 	C 	0.04508	0.51554	0.6106	-0.154
Mof_C 	C 	0.04449	0.56161	0.58245	0.006
Mof_C 	C 	0.04816	0.58814	0.59956	-0.023
Mof_C 	C 	0.05158	0.56964	0.64448	0.035
Mof_C 	C 	0.05234	0.52338	0.6716	-0.12
Mof_C 	C 	0.04939	0.49721	0.65431	0.047
Mof_C 	C 	0.04904	0.63768	0.57348	-0.045
Mof_C 	C 	0.05242	0.64714	0.60962	0.018
Mof_C 	C 	0.05323	0.60743	0.65155	-0.046
Mof_C 	C 	0.09238	0.63762	0.5281	0.02
Mof_C 	C 	0.13942	0.60524	0.53738	-0.381
Mof_C 	C 	0.00206	0.66996	0.56306	0.075
Mof_C 	C 	0.95836	0.67144	0.60598	-0.441
Mof_C 	C 	0.59419	0.87895	0.03963	0.429
Mof_C 	C 	0.6106	0.82878	0.04508	-0.154
Mof_C 	C 	0.58245	0.81145	0.04449	0.006
Mof_C 	C 	0.59956	0.76414	0.04816	-0.023
Mof_C 	C 	0.64448	0.7343	0.05158	0.035
Mof_C 	C 	0.6716	0.75268	0.05234	-0.12
Mof_C 	C 	0.65431	0.79909	0.04939	0.046
Mof_C 	C 	0.57348	0.7398	0.04904	-0.044
Mof_C 	C 	0.60962	0.69082	0.05242	0.018
Mof_C 	C 	0.65155	0.68779	0.05323	-0.046
Mof_C 	C 	0.5281	0.7419	0.09238	0.019
Mof_C 	C 	0.53738	0.71796	0.13942	-0.381
Mof_C 	C 	0.56306	0.76492	0.00206	0.072
Mof_C 	C 	0.60598	0.76422	0.95836	-0.439
Mof_C 	C 	0.87895	0.03963	0.59419	0.429
Mof_C 	C 	0.82878	0.04508	0.6106	-0.154
Mof_C 	C 	0.81145	0.04449	0.58245	0.006
Mof_C 	C 	0.76414	0.04816	0.59956	-0.023
Mof_C 	C 	0.7343	0.05158	0.64448	0.035
Mof_C 	C 	0.75268	0.05234	0.6716	-0.12
Mof_C 	C 	0.79909	0.04939	0.65431	0.046
Mof_C 	C 	0.7398	0.04904	0.57348	-0.044
Mof_C 	C 	0.69082	0.05242	0.60962	0.018
Mof_C 	C 	0.68779	0.05323	0.65155	-0.046
Mof_C 	C 	0.7419	0.09238	0.5281	0.019
Mof_C 	C 	0.71796	0.13942	0.53738	-0.381
Mof_C 	C 	0.76492	0.00206	0.56306	0.072
Mof_C 	C 	0.76422	0.95836	0.60598	-0.439
Mof_C 	C 	0.48723	0.59419	0.03963	0.429
Mof_C 	C 	0.51554	0.6106	0.04508	-0.154
Mof_C 	C 	0.56161	0.58245	0.04449	0.006
Mof_C 	C 	0.58814	0.59956	0.04816	-0.023
Mof_C 	C 	0.56964	0.64448	0.05158	0.035
Mof_C 	C 	0.52338	0.6716	0.05234	-0.12
Mof_C 	C 	0.49721	0.65431	0.04939	0.047
Mof_C 	C 	0.63768	0.57348	0.04904	-0.045
Mof_C 	C 	0.64714	0.60962	0.05242	0.018
Mof_C 	C 	0.60743	0.65155	0.05323	-0.046
Mof_C 	C 	0.63762	0.5281	0.09238	0.02
Mof_C 	C 	0.60524	0.53738	0.13942	-0.381
Mof_C 	C 	0.66996	0.56306	0.00206	0.075
Mof_C 	C 	0.67144	0.60598	0.95836	-0.441
Mof_C 	C 	0.59419	0.48723	0.87895	0.429
Mof_C 	C 	0.6106	0.51554	0.82878	-0.157
Mof_C 	C 	0.58245	0.56161	0.81145	0.008
Mof_C 	C 	0.59956	0.58814	0.76414	-0.029
Mof_C 	C 	0.64448	0.56964	0.7343	0.036
Mof_C 	C 	0.6716	0.52338	0.75268	-0.122
Mof_C 	C 	0.65431	0.49721	0.79909	0.047
Mof_C 	C 	0.57348	0.63768	0.7398	-0.032
Mof_C 	C 	0.60962	0.64714	0.69082	0.013
Mof_C 	C 	0.65155	0.60743	0.68779	-0.043
Mof_C 	C 	0.5281	0.63762	0.7419	0.011
Mof_C 	C 	0.53738	0.60524	0.71796	-0.375
Mof_C 	C 	0.56306	0.66996	0.76492	0.029
Mof_C 	C 	0.60598	0.67144	0.76422	-0.397
Mof_C 	C 	0.03963	0.87895	0.48723	0.429
Mof_C 	C 	0.04508	0.82878	0.51554	-0.154
Mof_C 	C 	0.04449	0.81145	0.56161	0.006
Mof_C 	C 	0.04816	0.76414	0.58814	-0.024
Mof_C 	C 	0.05158	0.7343	0.56964	0.035
Mof_C 	C 	0.05234	0.75268	0.52338	-0.12
Mof_C 	C 	0.04939	0.79909	0.49721	0.047
Mof_C 	C 	0.04904	0.7398	0.63768	-0.044
Mof_C 	C 	0.05242	0.69082	0.64714	0.018
Mof_C 	C 	0.05323	0.68779	0.60743	-0.046
Mof_C 	C 	0.09238	0.7419	0.63762	0.019
Mof_C 	C 	0.13942	0.71796	0.60524	-0.381
Mof_C 	C 	0.00206	0.76492	0.66996	0.07
Mof_C 	C 	0.95836	0.76422	0.67144	-0.436
Mof_O 	O 	0.53444	0.05306	0.0067	-0.663
Mof_O 	O 	0.53558	0.11916	0.94852	-0.457
Mof_O 	O 	0.05306	0.53444	0.4058	-0.681
Mof_O 	O 	0.11916	0.53558	0.39674	-0.467
Mof_O 	O 	0.0067	0.4058	0.53444	-0.672
Mof_O 	O 	0.94852	0.39674	0.53558	-0.459
Mof_O 	O 	0.4058	0.0067	0.05306	-0.662
Mof_O 	O 	0.39674	0.94852	0.11916	-0.457
Mof_O 	O 	0.53444	0.0067	0.4058	-0.672
Mof_O 	O 	0.53558	0.94852	0.39674	-0.459
Mof_O 	O 	0.05306	0.4058	0.0067	-0.662
Mof_O 	O 	0.11916	0.39674	0.94852	-0.457
Mof_O 	O 	0.0067	0.53444	0.05306	-0.663
Mof_O 	O 	0.94852	0.53558	0.11916	-0.457
Mof_O 	O 	0.4058	0.05306	0.53444	-0.681
Mof_O 	O 	0.39674	0.11916	0.53558	-0.467
Mof_O 	O 	0.53444	0.4058	0.05306	-0.681
Mof_O 	O 	0.53558	0.39674	0.11916	-0.467
Mof_O 	O 	0.05306	0.0067	0.53444	-0.663
Mof_O 	O 	0.11916	0.94852	0.53558	-0.457
Mof_O 	O 	0.0067	0.05306	0.4058	-0.662
Mof_O 	O 	0.94852	0.11916	0.39674	-0.457
Mof_O 	O 	0.4058	0.53444	0.0067	-0.672
Mof_O 	O 	0.39674	0.53558	0.94852	-0.459
Mof_O 	O 	0.44694	0.96556	0.4933	-0.686
Mof_O 	O 	0.38084	0.96442	0.55148	-0.469
Mof_O 	O 	0.96556	0.44694	0.0942	-0.688
Mof_O 	O 	0.96442	0.38084	0.10326	-0.47
Mof_O 	O 	0.0942	0.4933	0.96556	-0.688
Mof_O 	O 	0.10326	0.55148	0.96442	-0.47
Mof_O 	O 	0.4933	0.0942	0.44694	-0.688
Mof_O 	O 	0.55148	0.10326	0.38084	-0.468
Mof_O 	O 	0.4933	0.96556	0.0942	-0.688
Mof_O 	O 	0.55148	0.96442	0.10326	-0.47
Mof_O 	O 	0.0942	0.44694	0.4933	-0.688
Mof_O 	O 	0.10326	0.38084	0.55148	-0.468
Mof_O 	O 	0.96556	0.4933	0.44694	-0.686
Mof_O 	O 	0.96442	0.55148	0.38084	-0.469
Mof_O 	O 	0.44694	0.0942	0.96556	-0.688
Mof_O 	O 	0.38084	0.10326	0.96442	-0.47
Mof_O 	O 	0.0942	0.96556	0.44694	-0.688
Mof_O 	O 	0.10326	0.96442	0.38084	-0.47
Mof_O 	O 	0.4933	0.44694	0.96556	-0.686
Mof_O 	O 	0.55148	0.38084	0.96442	-0.469
Mof_O 	O 	0.44694	0.4933	0.0942	-0.688
Mof_O 	O 	0.38084	0.55148	0.10326	-0.468
Mof_O 	O 	0.96556	0.0942	0.4933	-0.688
Mof_O 	O 	0.96442	0.10326	0.55148	-0.47
Mof_O 	O 	0.46556	0.94694	0.9933	-0.701
Mof_O 	O 	0.46442	0.88084	0.05148	-0.473
Mof_O 	O 	0.94694	0.46556	0.5942	-0.691
Mof_O 	O 	0.88084	0.46442	0.60326	-0.467
Mof_O 	O 	0.9933	0.5942	0.46556	-0.7
Mof_O 	O 	0.05148	0.60326	0.46442	-0.474
Mof_O 	O 	0.5942	0.9933	0.94694	-0.7
Mof_O 	O 	0.60326	0.05148	0.88084	-0.472
Mof_O 	O 	0.46556	0.9933	0.5942	-0.7
Mof_O 	O 	0.46442	0.05148	0.60326	-0.474
Mof_O 	O 	0.94694	0.5942	0.9933	-0.7
Mof_O 	O 	0.88084	0.60326	0.05148	-0.472
Mof_O 	O 	0.9933	0.46556	0.94694	-0.701
Mof_O 	O 	0.05148	0.46442	0.88084	-0.473
Mof_O 	O 	0.5942	0.94694	0.46556	-0.691
Mof_O 	O 	0.60326	0.88084	0.46442	-0.467
Mof_O 	O 	0.46556	0.5942	0.94694	-0.691
Mof_O 	O 	0.46442	0.60326	0.88084	-0.467
Mof_O 	O 	0.94694	0.9933	0.46556	-0.701
Mof_O 	O 	0.88084	0.05148	0.46442	-0.473
Mof_O 	O 	0.9933	0.94694	0.5942	-0.7
Mof_O 	O 	0.05148	0.88084	0.60326	-0.472
Mof_O 	O 	0.5942	0.46556	0.9933	-0.7
Mof_O 	O 	0.60326	0.46442	0.05148	-0.474
Mof_O 	O 	0.55306	0.03444	0.5067	-0.686
Mof_O 	O 	0.61916	0.03558	0.44852	-0.464
Mof_O 	O 	0.03444	0.55306	0.9058	-0.683
Mof_O 	O 	0.03558	0.61916	0.89674	-0.463
Mof_O 	O 	0.9058	0.5067	0.03444	-0.683
Mof_O 	O 	0.89674	0.44852	0.03558	-0.463
Mof_O 	O 	0.5067	0.9058	0.55306	-0.684
Mof_O 	O 	0.44852	0.89674	0.61916	-0.466
Mof_O 	O 	0.5067	0.03444	0.9058	-0.683
Mof_O 	O 	0.44852	0.03558	0.89674	-0.463
Mof_O 	O 	0.9058	0.55306	0.5067	-0.684
Mof_O 	O 	0.89674	0.61916	0.44852	-0.466
Mof_O 	O 	0.03444	0.5067	0.55306	-0.686
Mof_O 	O 	0.03558	0.44852	0.61916	-0.464
Mof_O 	O 	0.55306	0.9058	0.03444	-0.683
Mof_O 	O 	0.61916	0.89674	0.03558	-0.463
Mof_O 	O 	0.9058	0.03444	0.55306	-0.683
Mof_O 	O 	0.89674	0.03558	0.61916	-0.463
Mof_O 	O 	0.5067	0.55306	0.03444	-0.686
Mof_O 	O 	0.44852	0.61916	0.03558	-0.464
Mof_O 	O 	0.55306	0.5067	0.9058	-0.684
Mof_O 	O 	0.61916	0.44852	0.89674	-0.466
Mof_O 	O 	0.03444	0.9058	0.5067	-0.683
Mof_O 	O 	0.03558	0.89674	0.44852	-0.463
Mof_O 	O 	0.5	0	-0	-0.993
Mof_O 	O 	-1.52112e-17	0.5	0.5	-1.003
Mof_O 	O 	0.5	-3.04224e-17	0.5	-1.003
Mof_O 	O 	3.04224e-17	0.5	-0	-0.993
Mof_O 	O 	0.5	0.5	-0	-1.003
Mof_O 	O 	-1.52112e-17	-3.04224e-17	0.5	-0.993
_end
