data_functionalizedCrystal
_audit_creation_method	'EQeq! by Chris Wilmer'
_symmetry_space_group_name_H-M	'P1'
_symmetry_Int_Tables_number	1
_symmetry_cell_setting	triclinic
loop_
_symmetry_equiv_pos_as_xyz
  x,y,z
_cell_length_a	8.4015
_cell_length_b	9.4904
_cell_length_c	28.28
_cell_angle_alpha	90
_cell_angle_beta	97.514
_cell_angle_gamma	90
loop_
_atom_site_label
_atom_site_type_symbol
_atom_site_fract_x
_atom_site_fract_y
_atom_site_fract_z
_atom_site_charge
Mof_Eu	Eu	0.85489	0.17847	0.80449	2.176
Mof_Eu	Eu	0.54372	0.26111	0.92591	2.12
Mof_Eu	Eu	0.14511	0.67847	0.69551	2.194
Mof_Eu	Eu	0.45628	0.76111	0.57409	2.125
Mof_Eu	Eu	0.14511	0.82153	0.19551	2.177
Mof_Eu	Eu	0.45628	0.73889	0.07409	2.121
Mof_Eu	Eu	0.85489	0.32153	0.30449	2.194
Mof_Eu	Eu	0.54372	0.23889	0.42591	2.125
Mof_H 	H 	0.6103	0.7235	0.8894	0.014
Mof_H 	H 	0.9545	0.6135	0.8093	-0.001
Mof_H 	H 	0.3897	0.2235	0.6106	0.012
Mof_H 	H 	0.0455	0.1135	0.6907	-0
Mof_H 	H 	0.3897	0.2765	0.1106	0.014
Mof_H 	H 	0.0455	0.3865	0.1907	-0.001
Mof_H 	H 	0.6103	0.7765	0.3894	0.012
Mof_H 	H 	0.9545	0.8865	0.3093	-0
Mof_C 	C 	0.7159	0.8853	0.8586	-0.082
Mof_C 	C 	0.6872	0.7462	0.8698	0.058
Mof_C 	C 	0.7765	0.6407	0.8509	-0.19
Mof_C 	C 	0.8925	0.681	0.8223	0.092
Mof_C 	C 	0.9134	0.8221	0.8137	-0.118
Mof_C 	C 	0.6346	0.011	0.8774	0.35
Mof_C 	C 	0.751	0.4855	0.8607	0.523
Mof_C 	C 	0.0399	0.879	0.78525	0.468
Mof_C 	C 	0.2281	0.267	0.8444	0.28
Mof_C 	C 	0.1668	0.1836	0.8861	0.291
Mof_C 	C 	0.4115	0.5087	0.9893	0.26
Mof_C 	C 	0.2841	0.3853	0.6414	-0.09
Mof_C 	C 	0.3128	0.2462	0.6302	0.061
Mof_C 	C 	0.2235	0.1407	0.6491	-0.19
Mof_C 	C 	0.1075	0.181	0.6777	0.096
Mof_C 	C 	0.0866	0.3221	0.6863	-0.126
Mof_C 	C 	0.3654	0.511	0.6226	0.362
Mof_C 	C 	0.249	0.9855	0.6393	0.521
Mof_C 	C 	0.9601	0.379	0.71475	0.481
Mof_C 	C 	0.7719	0.767	0.6556	0.28
Mof_C 	C 	0.8332	0.6836	0.6139	0.293
Mof_C 	C 	0.5885	0.0087	0.5107	0.257
Mof_C 	C 	0.2841	0.1147	0.1414	-0.082
Mof_C 	C 	0.3128	0.2538	0.1302	0.058
Mof_C 	C 	0.2235	0.3593	0.1491	-0.19
Mof_C 	C 	0.1075	0.319	0.1777	0.092
Mof_C 	C 	0.0866	0.1779	0.1863	-0.118
Mof_C 	C 	0.3654	0.989	0.1226	0.35
Mof_C 	C 	0.249	0.5145	0.1393	0.523
Mof_C 	C 	0.9601	0.121	0.21475	0.468
Mof_C 	C 	0.7719	0.733	0.1556	0.28
Mof_C 	C 	0.8332	0.8164	0.1139	0.291
Mof_C 	C 	0.5885	0.4913	0.0107	0.26
Mof_C 	C 	0.7159	0.6147	0.3586	-0.09
Mof_C 	C 	0.6872	0.7538	0.3698	0.061
Mof_C 	C 	0.7765	0.8593	0.3509	-0.19
Mof_C 	C 	0.8925	0.819	0.3223	0.096
Mof_C 	C 	0.9134	0.6779	0.3137	-0.126
Mof_C 	C 	0.6346	0.489	0.3774	0.362
Mof_C 	C 	0.751	0.0145	0.3607	0.521
Mof_C 	C 	0.0399	0.621	0.28525	0.481
Mof_C 	C 	0.2281	0.233	0.3444	0.28
Mof_C 	C 	0.1668	0.3164	0.3861	0.293
Mof_C 	C 	0.4115	0.9913	0.4893	0.257
Mof_N 	N 	0.8248	0.9226	0.83047	-0.197
Mof_N 	N 	0.1752	0.4226	0.66953	-0.198
Mof_N 	N 	0.1752	0.0774	0.16953	-0.197
Mof_N 	N 	0.8248	0.5774	0.33047	-0.198
Mof_O 	O 	0.6677	0.1306	0.86136	-0.664
Mof_O 	O 	0.5464	0.9975	0.90936	-0.472
Mof_O 	O 	0.6495	0.4568	0.88772	-0.552
Mof_O 	O 	0.8356	0.4009	0.84211	-0.577
Mof_O 	O 	0.1244	0.7906	0.76751	-0.584
Mof_O 	O 	0.0524	0.009	0.78279	-0.518
Mof_O 	O 	0.373	0.3023	0.85104	-0.455
Mof_O 	O 	0.1296	0.2899	0.8089	-0.421
Mof_O 	O 	0.2685	0.1609	0.92188	-0.444
Mof_O 	O 	0.0242	0.1458	0.88083	-0.454
Mof_O 	O 	0.3681	0.4375	0.95192	-0.445
Mof_O 	O 	0.3257	0.588	0.00971	-0.464
Mof_O 	O 	0.3323	0.6306	0.63864	-0.667
Mof_O 	O 	0.4536	0.4975	0.59064	-0.478
Mof_O 	O 	0.3505	0.9568	0.61228	-0.552
Mof_O 	O 	0.1644	0.9009	0.65789	-0.58
Mof_O 	O 	0.8756	0.2906	0.73249	-0.586
Mof_O 	O 	0.9476	0.509	0.71721	-0.527
Mof_O 	O 	0.627	0.8023	0.64896	-0.455
Mof_O 	O 	0.8704	0.7899	0.6911	-0.42
Mof_O 	O 	0.7315	0.6609	0.57812	-0.445
Mof_O 	O 	0.9758	0.6458	0.61917	-0.457
Mof_O 	O 	0.6319	0.9375	0.54808	-0.442
Mof_O 	O 	0.6743	0.088	0.49029	-0.464
Mof_O 	O 	0.3323	0.8694	0.13864	-0.664
Mof_O 	O 	0.4536	0.0025	0.09064	-0.472
Mof_O 	O 	0.3505	0.5432	0.11228	-0.552
Mof_O 	O 	0.1644	0.5991	0.15789	-0.577
Mof_O 	O 	0.8756	0.2094	0.23249	-0.584
Mof_O 	O 	0.9476	0.991	0.21721	-0.518
Mof_O 	O 	0.627	0.6977	0.14896	-0.455
Mof_O 	O 	0.8704	0.7101	0.1911	-0.421
Mof_O 	O 	0.7315	0.8391	0.07812	-0.444
Mof_O 	O 	0.9758	0.8542	0.11917	-0.454
Mof_O 	O 	0.6319	0.5625	0.04808	-0.445
Mof_O 	O 	0.6743	0.412	0.99029	-0.464
Mof_O 	O 	0.6677	0.3694	0.36136	-0.667
Mof_O 	O 	0.5464	0.5025	0.40936	-0.478
Mof_O 	O 	0.6495	0.0432	0.38772	-0.552
Mof_O 	O 	0.8356	0.0991	0.34211	-0.58
Mof_O 	O 	0.1244	0.7094	0.26751	-0.586
Mof_O 	O 	0.0524	0.491	0.28279	-0.527
Mof_O 	O 	0.373	0.1977	0.35104	-0.455
Mof_O 	O 	0.1296	0.2101	0.3089	-0.42
Mof_O 	O 	0.2685	0.3391	0.42188	-0.445
Mof_O 	O 	0.0242	0.3542	0.38083	-0.457
Mof_O 	O 	0.3681	0.0625	0.45192	-0.442
Mof_O 	O 	0.3257	0.912	0.50971	-0.464
_end
