data_functionalizedCrystal
_audit_creation_method	'EQeq! by Chris Wilmer'
_symmetry_space_group_name_H-M	'P1'
_symmetry_Int_Tables_number	1
_symmetry_cell_setting	triclinic
loop_
_symmetry_equiv_pos_as_xyz
  x,y,z
_cell_length_a	7.259
_cell_length_b	13.407
_cell_length_c	18.031
_cell_angle_alpha	90
_cell_angle_beta	90
_cell_angle_gamma	90
loop_
_atom_site_label
_atom_site_type_symbol
_atom_site_fract_x
_atom_site_fract_y
_atom_site_fract_z
_atom_site_charge
Mof_Zn	Zn	0.4865	0.61494	0.20659	1.216
Mof_Zn	Zn	0.4992	0.37066	0.22291	1.216
Mof_Zn	Zn	0.8572	0.49846	0.41877	1.239
Mof_Zn	Zn	0.0536	0.85794	0.30279	1.216
Mof_Zn	Zn	0.9424	0.6119	0.18609	1.218
Mof_P 	P 	0.6823	0.4804	0.0934	0.548
Mof_P 	P 	0.7396	0.6908	0.3291	0.55
Mof_P 	P 	0.2404	0.7887	0.1526	0.58
Mof_P 	P 	0.1895	0.4961	0.293	0.574
Mof_O 	O 	0.406	0.7209	0.1423	-0.484
Mof_O 	O 	0.5313	0.4855	0.1569	-0.644
Mof_O 	O 	0.303	0.5893	0.2814	-0.514
Mof_O 	O 	0.3046	0.4033	0.2904	-0.519
Mof_O 	O 	0.573	0.7642	0.3391	-0.468
Mof_O 	O 	0.7118	0.6122	0.3865	-0.448
Mof_O 	O 	0.5819	0.4767	0.0212	-0.43
Mof_O 	O 	0.2384	0.8629	0.0911	-0.443
Mof_O 	O 	0.0936	0.5052	0.3666	-0.442
Mof_O 	O 	0.929	0.7405	0.3355	-0.493
Mof_O 	O 	0.259	0.8408	0.2287	-0.66
Mof_O 	O 	0.7985	0.3872	0.1099	-0.481
Mof_O 	O 	0.0434	0.4888	0.2306	-0.678
Mof_O 	O 	0.799	0.5719	0.0987	-0.494
Mof_O 	O 	0.7263	0.6479	0.2495	-0.658
Mof_O 	O 	0.06	0.7309	0.1525	-0.502
Mof_Zn	Zn	0.0135	0.38506	0.70659	1.216
Mof_Zn	Zn	0.0008	0.62934	0.72291	1.216
Mof_Zn	Zn	0.6428	0.50154	0.91877	1.238
Mof_Zn	Zn	0.4464	0.14206	0.80279	1.217
Mof_Zn	Zn	0.5576	0.3881	0.68609	1.218
Mof_P 	P 	0.8177	0.5196	0.5934	0.548
Mof_P 	P 	0.7604	0.3092	0.8291	0.55
Mof_P 	P 	0.2596	0.2113	0.6526	0.58
Mof_P 	P 	0.3105	0.5039	0.793	0.574
Mof_O 	O 	0.094	0.2791	0.6423	-0.483
Mof_O 	O 	0.9687	0.5145	0.6569	-0.643
Mof_O 	O 	0.197	0.4107	0.7814	-0.513
Mof_O 	O 	0.1954	0.5967	0.7904	-0.519
Mof_O 	O 	0.927	0.2358	0.8391	-0.47
Mof_O 	O 	0.7882	0.3878	0.8865	-0.449
Mof_O 	O 	0.9181	0.5233	0.5212	-0.429
Mof_O 	O 	0.2616	0.1371	0.5911	-0.443
Mof_O 	O 	0.4064	0.4948	0.8666	-0.441
Mof_O 	O 	0.571	0.2595	0.8355	-0.495
Mof_O 	O 	0.241	0.1592	0.7287	-0.659
Mof_O 	O 	0.7015	0.6128	0.6099	-0.481
Mof_O 	O 	0.4566	0.5112	0.7306	-0.678
Mof_O 	O 	0.701	0.4281	0.5987	-0.494
Mof_O 	O 	0.7737	0.3521	0.7495	-0.658
Mof_O 	O 	0.44	0.2691	0.6525	-0.502
Mof_Zn	Zn	0.5135	0.11494	0.29341	1.216
Mof_Zn	Zn	0.5008	0.87066	0.27709	1.216
Mof_Zn	Zn	0.1428	0.99846	0.08123	1.238
Mof_Zn	Zn	0.9464	0.35794	0.19721	1.217
Mof_Zn	Zn	0.0576	0.1119	0.31391	1.218
Mof_P 	P 	0.3177	0.9804	0.4066	0.547
Mof_P 	P 	0.2604	0.1908	0.1709	0.55
Mof_P 	P 	0.7596	0.2887	0.3474	0.58
Mof_P 	P 	0.8105	0.9961	0.207	0.575
Mof_O 	O 	0.594	0.2209	0.3577	-0.484
Mof_O 	O 	0.4687	0.9855	0.3431	-0.644
Mof_O 	O 	0.697	0.0893	0.2186	-0.514
Mof_O 	O 	0.6954	0.9033	0.2096	-0.519
Mof_O 	O 	0.427	0.2642	0.1609	-0.468
Mof_O 	O 	0.2882	0.1122	0.1135	-0.447
Mof_O 	O 	0.4181	0.9767	0.4788	-0.429
Mof_O 	O 	0.7616	0.3629	0.4089	-0.443
Mof_O 	O 	0.9064	0.0052	0.1334	-0.443
Mof_O 	O 	0.071	0.2405	0.1645	-0.494
Mof_O 	O 	0.741	0.3408	0.2713	-0.659
Mof_O 	O 	0.2015	0.8872	0.3901	-0.482
Mof_O 	O 	0.9566	0.9888	0.2694	-0.676
Mof_O 	O 	0.201	0.0719	0.4013	-0.494
Mof_O 	O 	0.2737	0.1479	0.2505	-0.658
Mof_O 	O 	0.94	0.2309	0.3475	-0.502
Mof_Zn	Zn	0.9865	0.88506	0.79341	1.217
Mof_Zn	Zn	0.9992	0.12934	0.77709	1.215
Mof_Zn	Zn	0.3572	0.00154	0.58123	1.238
Mof_Zn	Zn	0.5536	0.64206	0.69721	1.217
Mof_Zn	Zn	0.4424	0.8881	0.81391	1.218
Mof_P 	P 	0.1823	0.0196	0.9066	0.546
Mof_P 	P 	0.2396	0.8092	0.6709	0.55
Mof_P 	P 	0.7404	0.7113	0.8474	0.58
Mof_P 	P 	0.6895	0.0039	0.707	0.569
Mof_O 	O 	0.906	0.7791	0.8577	-0.483
Mof_O 	O 	0.0313	0.0145	0.8431	-0.642
Mof_O 	O 	0.803	0.9107	0.7186	-0.51
Mof_O 	O 	0.8046	0.0967	0.7096	-0.52
Mof_O 	O 	0.073	0.7358	0.6609	-0.469
Mof_O 	O 	0.2118	0.8878	0.6135	-0.448
Mof_O 	O 	0.0819	0.0233	0.9788	-0.43
Mof_O 	O 	0.7384	0.6371	0.9089	-0.443
Mof_O 	O 	0.5936	0.9948	0.6334	-0.438
Mof_O 	O 	0.429	0.7595	0.6645	-0.495
Mof_O 	O 	0.759	0.6592	0.7713	-0.659
Mof_O 	O 	0.2985	0.1128	0.8901	-0.482
Mof_O 	O 	0.5434	0.0112	0.7694	-0.679
Mof_O 	O 	0.299	0.9281	0.9013	-0.492
Mof_O 	O 	0.2263	0.8521	0.7505	-0.658
Mof_O 	O 	0.56	0.7691	0.8475	-0.502
_end
