data_functionalizedCrystal
_audit_creation_method	'EQeq! by Chris Wilmer'
_symmetry_space_group_name_H-M	'P1'
_symmetry_Int_Tables_number	1
_symmetry_cell_setting	triclinic
loop_
_symmetry_equiv_pos_as_xyz
  x,y,z
_cell_length_a	7.7086
_cell_length_b	11.4007
_cell_length_c	13.499
_cell_angle_alpha	96.395
_cell_angle_beta	105.619
_cell_angle_gamma	99.339
loop_
_atom_site_label
_atom_site_type_symbol
_atom_site_fract_x
_atom_site_fract_y
_atom_site_fract_z
_atom_site_charge
Mof_V 	V 	0.85707	0.67711	0.97466	1.853
Mof_V 	V 	0.79402	0.4204	0.85922	1.742
Mof_V 	V 	0.14293	0.32289	0.02534	1.792
Mof_V 	V 	0.20598	0.5796	0.14078	1.722
Mof_Ni	Ni	0.5	0.5	-0	1.046
Mof_Ni	Ni	-0	0	-0	0.962
Mof_H 	H 	0.0914	0.8672	0.8229	-0.017
Mof_H 	H 	0.0956	0.8778	0.6547	0.072
Mof_H 	H 	0.8702	0.1714	0.6676	0.053
Mof_H 	H 	0.8633	0.1477	0.8338	-0.045
Mof_H 	H 	0.9573	0.1117	0.5111	0.064
Mof_H 	H 	0.6515	0.6545	0.2178	-0.033
Mof_H 	H 	0.8205	0.6453	0.3841	0.054
Mof_H 	H 	0.9159	0.3274	0.2747	0.065
Mof_H 	H 	0.7355	0.342	0.1125	-0.031
Mof_H 	H 	0.0614	0.4061	0.4574	-0.045
Mof_H 	H 	0.9086	0.1328	0.1771	-0.027
Mof_H 	H 	0.9044	0.1222	0.3453	0.081
Mof_H 	H 	0.1298	0.8286	0.3324	0.053
Mof_H 	H 	0.1367	0.8523	0.1662	-0.094
Mof_H 	H 	0.0427	0.8883	0.4889	0.033
Mof_H 	H 	0.3485	0.3455	0.7822	-0.036
Mof_H 	H 	0.1795	0.3547	0.6159	0.085
Mof_H 	H 	0.0841	0.6726	0.7253	0.097
Mof_H 	H 	0.2645	0.658	0.8875	0.01
Mof_H 	H 	0.9386	0.5939	0.5426	0.136
Mof_C 	C 	0.0457	0.92856	0.79082	0.113
Mof_C 	C 	0.0494	0.93448	0.68963	-0.138
Mof_C 	C 	0.9828	0.02681	0.64043	0.08
Mof_C 	C 	0.9144	0.10815	0.69705	-0.173
Mof_C 	C 	0.9128	0.09417	0.79773	0.078
Mof_C 	C 	0.983	0.04053	0.53358	-0.15
Mof_C 	C 	0.7023	0.58693	0.22992	0.019
Mof_C 	C 	0.8053	0.58242	0.33037	-0.123
Mof_C 	C 	0.8864	0.48297	0.35076	-0.001
Mof_C 	C 	0.8607	0.39367	0.26571	-0.127
Mof_C 	C 	0.7528	0.40355	0.16766	0.032
Mof_C 	C 	0.9946	0.46727	0.45471	0.108
Mof_C 	C 	0.9543	0.07144	0.20918	0.051
Mof_C 	C 	0.9506	0.06552	0.31037	-0.212
Mof_C 	C 	0.0172	0.97319	0.35957	0.124
Mof_C 	C 	0.0856	0.89185	0.30295	-0.187
Mof_C 	C 	0.0872	0.90583	0.20227	0.077
Mof_C 	C 	0.017	0.95947	0.46642	-0.041
Mof_C 	C 	0.2977	0.41307	0.77008	0.072
Mof_C 	C 	0.1947	0.41758	0.66963	-0.234
Mof_C 	C 	0.1136	0.51703	0.64924	0.173
Mof_C 	C 	0.1393	0.60633	0.73429	-0.229
Mof_C 	C 	0.2472	0.59645	0.83234	0.08
Mof_C 	C 	0.0054	0.53273	0.54529	-0.306
Mof_N 	N 	0.9794	0.00687	0.84495	-0.248
Mof_N 	N 	0.67236	0.49793	0.14906	-0.245
Mof_N 	N 	0.0206	0.99313	0.15505	-0.248
Mof_N 	N 	0.32764	0.50207	0.85094	-0.222
Mof_O 	O 	0.65299	0.40436	0.93245	-0.691
Mof_O 	O 	0.64692	0.66458	0.9891	-0.602
Mof_O 	O 	0.99959	0.6317	0.08418	-0.924
Mof_O 	O 	0.94085	0.81669	0.967	-0.627
Mof_O 	O 	0.84751	0.58034	0.85778	-0.813
Mof_O 	O 	0.34701	0.59564	0.06755	-0.818
Mof_O 	O 	0.35308	0.33542	0.0109	-0.751
Mof_O 	O 	0.00041	0.3683	0.91582	-0.818
Mof_O 	O 	0.05915	0.18331	0.033	-0.804
Mof_O 	O 	0.15249	0.41966	0.14222	-0.867
_end
