data_functionalizedCrystal
_audit_creation_method	'EQeq! by Chris Wilmer'
_symmetry_space_group_name_H-M	'P1'
_symmetry_Int_Tables_number	1
_symmetry_cell_setting	triclinic
loop_
_symmetry_equiv_pos_as_xyz
  x,y,z
_cell_length_a	16.342
_cell_length_b	16.809
_cell_length_c	19.303
_cell_angle_alpha	90
_cell_angle_beta	104.78
_cell_angle_gamma	90
loop_
_atom_site_label
_atom_site_type_symbol
_atom_site_fract_x
_atom_site_fract_y
_atom_site_fract_z
_atom_site_charge
Mof_Mn	Mn	0.86684	0.89212	0.05305	0.782
Mof_Mn	Mn	0.58807	0.64935	0.94423	0.841
Mof_Br	Br	0.88626	0.21338	0.21333	-0.236
Mof_Br	Br	0.87217	0.45694	0.14689	-0.227
Mof_Br	Br	0.77801	0.90973	0.14514	-0.363
Mof_Br	Br	0.53915	0.77207	0.86251	-0.188
Mof_O 	O 	0.9342	0.0065	0.0678	-0.431
Mof_O 	O 	0.0497	0.1017	0.0213	-0.432
Mof_O 	O 	0.609	0.5438	0.0174	-0.456
Mof_O 	O 	0.5303	0.418	0.0686	-0.44
Mof_O 	O 	0.9753	0.8364	0.13	-0.213
Mof_O 	O 	0.6135	0.5706	0.861	-0.241
Mof_N 	N 	0.1187	0.1663	0.1966	-0.122
Mof_N 	N 	0.7229	0.5701	0.1958	-0.125
Mof_N 	N 	0.8236	0.777	0.0076	-0.177
Mof_N 	N 	0.7696	0.7296	0.9971	-0
Mof_N 	N 	0.7207	0.6779	0.9857	-0.135
Mof_C 	C 	0.9743	0.1443	0.1116	0.022
Mof_C 	C 	0.9337	0.2204	0.1293	-0.064
Mof_H 	H 	0.8888	0.2356	0.088	0.057
Mof_H 	H 	0.9759	0.2624	0.1377	0.081
Mof_C 	C 	0.9064	0.0777	0.0915	0.095
Mof_H 	H 	0.8854	0.0664	0.1332	0.016
Mof_H 	H 	0.8592	0.0977	0.0543	-0.016
Mof_C 	C 	0.0068	0.1658	0.0456	0.018
Mof_H 	H 	0.9593	0.1822	0.0069	0.014
Mof_H 	H 	0.0452	0.2107	0.0576	0.018
Mof_C 	C 	0.0453	0.1108	0.1743	-0.092
Mof_H 	H 	0.0221	0.1006	0.215	0.056
Mof_H 	H 	0.0649	0.0605	0.1597	0.04
Mof_C 	C 	0.1819	0.1616	0.163	0.068
Mof_H 	H 	0.18	0.1229	0.1282	-0.008
Mof_C 	C 	0.2501	0.2149	0.1806	-0.136
Mof_H 	H 	0.2933	0.2132	0.1572	0.091
Mof_C 	C 	0.251	0.2699	0.2337	0.05
Mof_H 	H 	0.2955	0.306	0.2465	0.012
Mof_C 	C 	0.1862	0.2722	0.2685	-0.128
Mof_H 	H 	0.1881	0.3088	0.305	0.072
Mof_C 	C 	0.1208	0.2213	0.249	0.057
Mof_H 	H 	0.0767	0.2236	0.2714	0.021
Mof_C 	C 	0.6827	0.4508	0.1121	-0.041
Mof_C 	C 	0.7654	0.4012	0.1367	-0.04
Mof_H 	H 	0.7629	0.3583	0.1025	0.055
Mof_H 	H 	0.7661	0.377	0.1824	0.077
Mof_C 	C 	0.6845	0.4987	0.0437	0.12
Mof_H 	H 	0.7327	0.5344	0.0544	0.013
Mof_H 	H 	0.6915	0.4622	0.0067	-0.02
Mof_C 	C 	0.6133	0.3867	0.0927	0.111
Mof_H 	H 	0.6247	0.3529	0.0556	-0.023
Mof_H 	H 	0.6161	0.3538	0.1345	0.003
Mof_C 	C 	0.6638	0.5013	0.1723	-0.053
Mof_H 	H 	0.6065	0.5217	0.1563	0.049
Mof_H 	H 	0.6661	0.4673	0.2133	0.069
Mof_C 	C 	0.786	0.5638	0.2547	0.088
Mof_H 	H 	0.7919	0.517	0.2812	0.043
Mof_C 	C 	0.8432	0.6253	0.2775	-0.119
Mof_H 	H 	0.888	0.6201	0.318	0.103
Mof_C 	C 	0.831	0.6953	0.2373	0.074
Mof_H 	H 	0.867	0.7384	0.2516	0.031
Mof_C 	C 	0.7644	0.7003	0.1757	-0.146
Mof_H 	H 	0.7555	0.7461	0.1478	0.098
Mof_C 	C 	0.7131	0.6361	0.1579	0.118
Mof_H 	H 	0.6688	0.6389	0.1167	-0.014
Mof_C 	C 	0.9961	0.7522	0.1419	-0.051
Mof_H 	H 	0.0476	0.7468	0.179	0.052
Mof_H 	H 	0.0033	0.7289	0.0985	0.027
Mof_H 	H 	0.951	0.7256	0.1561	0.068
Mof_C 	C 	0.563	0.5781	0.7875	0.031
Mof_H 	H 	0.5837	0.5419	0.7575	0.006
Mof_H 	H 	0.5669	0.6316	0.7712	-0.037
Mof_H 	H 	0.505	0.5659	0.7853	0.018
Mof_Br	Br	0.5407	0.7239	0.8173	-0.239
Mof_C 	C 	0.981	0.874	0.204	-0.238
Mof_H 	H 	0.0274	0.8509	0.2386	0.113
Mof_H 	H 	0.9291	0.8635	0.2173	0.125
Mof_H 	H 	0.9889	0.9301	0.2013	0.114
Mof_C 	C 	0.684	0.5476	0.8403	-0.108
Mof_H 	H 	0.6683	0.5136	0.7991	0.065
Mof_H 	H 	0.722	0.5193	0.8788	0.078
Mof_H 	H 	0.7127	0.5938	0.8286	0.071
Mof_Mn	Mn	0.63316	0.39212	0.44695	0.786
Mof_Mn	Mn	0.91193	0.14935	0.55577	0.824
Mof_Br	Br	0.61374	0.71338	0.28667	-0.245
Mof_Br	Br	0.62783	0.95694	0.35311	-0.199
Mof_Br	Br	0.72199	0.40973	0.35486	-0.371
Mof_Br	Br	0.96085	0.27207	0.63749	-0.196
Mof_O 	O 	0.5658	0.5065	0.4322	-0.448
Mof_O 	O 	0.4503	0.6017	0.4787	-0.438
Mof_O 	O 	0.891	0.0438	0.4826	-0.45
Mof_O 	O 	0.9697	0.918	0.4314	-0.401
Mof_O 	O 	0.5247	0.3364	0.37	-0.154
Mof_O 	O 	0.8865	0.0706	0.639	-0.276
Mof_N 	N 	0.3813	0.6663	0.3034	-0.125
Mof_N 	N 	0.7771	0.0701	0.3042	-0.112
Mof_N 	N 	0.6764	0.277	0.4924	-0.146
Mof_N 	N 	0.7304	0.2296	0.5029	-0.032
Mof_N 	N 	0.7793	0.1779	0.5143	-0.147
Mof_C 	C 	0.5257	0.6443	0.3884	-0.043
Mof_C 	C 	0.5663	0.7204	0.3707	-0.04
Mof_H 	H 	0.6112	0.7356	0.412	0.056
Mof_H 	H 	0.5241	0.7624	0.3623	0.069
Mof_C 	C 	0.5936	0.5777	0.4085	0.119
Mof_H 	H 	0.6146	0.5664	0.3668	0.015
Mof_H 	H 	0.6408	0.5977	0.4457	-0.014
Mof_C 	C 	0.4932	0.6658	0.4544	0.109
Mof_H 	H 	0.5407	0.6822	0.4931	-0.014
Mof_H 	H 	0.4548	0.7107	0.4424	0.009
Mof_C 	C 	0.4547	0.6108	0.3257	-0.051
Mof_H 	H 	0.4779	0.6006	0.285	0.058
Mof_H 	H 	0.4351	0.5605	0.3403	0.04
Mof_C 	C 	0.3181	0.6616	0.337	0.076
Mof_H 	H 	0.32	0.6229	0.3718	-0.001
Mof_C 	C 	0.2499	0.7149	0.3194	-0.135
Mof_H 	H 	0.2067	0.7132	0.3428	0.096
Mof_C 	C 	0.249	0.7699	0.2663	0.056
Mof_H 	H 	0.2045	0.806	0.2535	0.011
Mof_C 	C 	0.3138	0.7722	0.2315	-0.13
Mof_H 	H 	0.3119	0.8088	0.195	0.073
Mof_C 	C 	0.3792	0.7213	0.251	0.064
Mof_H 	H 	0.4233	0.7236	0.2286	0.024
Mof_C 	C 	0.8173	0.9508	0.3879	0.004
Mof_C 	C 	0.7346	0.9012	0.3633	-0.058
Mof_H 	H 	0.7371	0.8583	0.3975	0.065
Mof_H 	H 	0.7339	0.877	0.3176	0.084
Mof_C 	C 	0.8155	0.9987	0.4563	0.186
Mof_H 	H 	0.7673	0.0344	0.4456	-0.018
Mof_H 	H 	0.8085	0.9622	0.4933	-0.016
Mof_C 	C 	0.8867	0.8867	0.4073	0.079
Mof_H 	H 	0.8753	0.8529	0.4444	-0.002
Mof_H 	H 	0.8839	0.8538	0.3655	0.018
Mof_C 	C 	0.8362	0.0013	0.3277	-0.162
Mof_H 	H 	0.8935	0.0217	0.3437	0.076
Mof_H 	H 	0.8339	0.9673	0.2867	0.123
Mof_C 	C 	0.714	0.0638	0.2453	0.074
Mof_H 	H 	0.7081	0.017	0.2188	0.031
Mof_C 	C 	0.6568	0.1253	0.2225	-0.115
Mof_H 	H 	0.612	0.1201	0.182	0.088
Mof_C 	C 	0.669	0.1953	0.2627	0.062
Mof_H 	H 	0.633	0.2384	0.2484	0.028
Mof_C 	C 	0.7356	0.2003	0.3243	-0.137
Mof_H 	H 	0.7445	0.2461	0.3522	0.1
Mof_C 	C 	0.7869	0.1361	0.3421	0.106
Mof_H 	H 	0.8312	0.1389	0.3833	-0.001
Mof_C 	C 	0.5039	0.2522	0.3581	-0.279
Mof_H 	H 	0.4524	0.2468	0.321	0.131
Mof_H 	H 	0.4967	0.2289	0.4015	0.118
Mof_H 	H 	0.549	0.2256	0.3439	0.131
Mof_C 	C 	0.937	0.0781	0.7125	0.154
Mof_H 	H 	0.9163	0.0419	0.7425	-0.036
Mof_H 	H 	0.9331	0.1316	0.7288	-0.113
Mof_H 	H 	0.995	0.0659	0.7147	-0.016
Mof_Br	Br	0.9593	0.2239	0.6827	-0.231
Mof_C 	C 	0.519	0.374	0.296	-0.438
Mof_H 	H 	0.4726	0.3509	0.2614	0.219
Mof_H 	H 	0.5709	0.3635	0.2827	0.182
Mof_H 	H 	0.5111	0.4301	0.2987	0.163
Mof_C 	C 	0.816	0.0476	0.6597	-0.062
Mof_H 	H 	0.8317	0.0136	0.7009	0.044
Mof_H 	H 	0.778	0.0193	0.6212	0.047
Mof_H 	H 	0.7873	0.0938	0.6714	0.054
Mof_Mn	Mn	0.13316	0.10788	0.94695	0.787
Mof_Mn	Mn	0.41193	0.35065	0.05577	0.77
Mof_Br	Br	0.11374	0.78662	0.78667	-0.245
Mof_Br	Br	0.12783	0.54306	0.85311	-0.223
Mof_Br	Br	0.22199	0.09027	0.85486	-0.386
Mof_Br	Br	0.46085	0.22793	0.13749	-0.231
Mof_O 	O 	0.0658	0.9935	0.9322	-0.382
Mof_O 	O 	0.9503	0.8983	0.9787	-0.369
Mof_O 	O 	0.391	0.4562	0.9826	-0.391
Mof_O 	O 	0.4697	0.582	0.9314	-0.415
Mof_O 	O 	0.0247	0.1636	0.87	-0.087
Mof_O 	O 	0.3865	0.4294	0.139	-0.258
Mof_N 	N 	0.8813	0.8337	0.8034	-0.121
Mof_N 	N 	0.2771	0.4299	0.8042	-0.121
Mof_N 	N 	0.1764	0.223	0.9924	-0.114
Mof_N 	N 	0.2304	0.2704	0.0029	-0.065
Mof_N 	N 	0.2793	0.3221	0.0143	-0.156
Mof_C 	C 	0.0257	0.8557	0.8884	-0.049
Mof_C 	C 	0.0663	0.7796	0.8707	-0.041
Mof_H 	H 	0.1112	0.7644	0.912	0.061
Mof_H 	H 	0.0241	0.7376	0.8623	0.066
Mof_C 	C 	0.0936	0.9223	0.9085	0.089
Mof_H 	H 	0.1146	0.9336	0.8668	0.03
Mof_H 	H 	0.1408	0.9023	0.9457	0.01
Mof_C 	C 	0.9932	0.8342	0.9544	0.125
Mof_H 	H 	0.0407	0.8178	0.9931	-0.008
Mof_H 	H 	0.9548	0.7893	0.9424	0.018
Mof_C 	C 	0.9547	0.8892	0.8257	-0.048
Mof_H 	H 	0.9779	0.8994	0.785	0.071
Mof_H 	H 	0.9351	0.9395	0.8403	0.058
Mof_C 	C 	0.8181	0.8384	0.837	0.079
Mof_H 	H 	0.82	0.8771	0.8718	0.012
Mof_C 	C 	0.7499	0.7851	0.8194	-0.129
Mof_H 	H 	0.7067	0.7868	0.8428	0.1
Mof_C 	C 	0.749	0.7301	0.7663	0.057
Mof_H 	H 	0.7045	0.694	0.7535	0.013
Mof_C 	C 	0.8138	0.7278	0.7315	-0.125
Mof_H 	H 	0.8119	0.6912	0.695	0.078
Mof_C 	C 	0.8792	0.7787	0.751	0.07
Mof_H 	H 	0.9233	0.7764	0.7286	0.032
Mof_C 	C 	0.3173	0.5492	0.8879	-0.015
Mof_C 	C 	0.2346	0.5988	0.8633	-0.054
Mof_H 	H 	0.2371	0.6417	0.8975	0.067
Mof_H 	H 	0.2339	0.623	0.8176	0.081
Mof_C 	C 	0.3155	0.5013	0.9563	0.075
Mof_H 	H 	0.2673	0.4656	0.9456	0.044
Mof_H 	H 	0.3085	0.5378	0.9933	0.019
Mof_C 	C 	0.3867	0.6133	0.9073	0.087
Mof_H 	H 	0.3753	0.6471	0.9444	-0.001
Mof_H 	H 	0.3839	0.6462	0.8655	0.012
Mof_C 	C 	0.3362	0.4987	0.8277	-0.068
Mof_H 	H 	0.3935	0.4783	0.8437	0.058
Mof_H 	H 	0.3339	0.5327	0.7867	0.073
Mof_C 	C 	0.214	0.4362	0.7453	0.084
Mof_H 	H 	0.2081	0.483	0.7188	0.041
Mof_C 	C 	0.1568	0.3747	0.7225	-0.118
Mof_H 	H 	0.112	0.3799	0.682	0.092
Mof_C 	C 	0.169	0.3047	0.7627	0.067
Mof_H 	H 	0.133	0.2616	0.7484	0.022
Mof_C 	C 	0.2356	0.2997	0.8243	-0.142
Mof_H 	H 	0.2445	0.2539	0.8522	0.106
Mof_C 	C 	0.2869	0.3639	0.8421	0.115
Mof_H 	H 	0.3312	0.3611	0.8833	0.003
Mof_C 	C 	0.0039	0.2478	0.8581	-0.513
Mof_H 	H 	0.9524	0.2532	0.821	0.217
Mof_H 	H 	0.9967	0.2711	0.9015	0.214
Mof_H 	H 	0.049	0.2744	0.8439	0.201
Mof_C 	C 	0.437	0.4219	0.2125	0.039
Mof_H 	H 	0.4163	0.4581	0.2425	0.003
Mof_H 	H 	0.4331	0.3684	0.2288	-0.04
Mof_H 	H 	0.495	0.4341	0.2147	0.015
Mof_Br	Br	0.4593	0.2761	0.1827	-0.216
Mof_C 	C 	0.019	0.126	0.796	-0.639
Mof_H 	H 	0.9726	0.1491	0.7614	0.325
Mof_H 	H 	0.0709	0.1365	0.7827	0.24
Mof_H 	H 	0.0111	0.0699	0.7987	0.211
Mof_C 	C 	0.316	0.4524	0.1597	-0.067
Mof_H 	H 	0.3317	0.4864	0.2009	0.047
Mof_H 	H 	0.278	0.4807	0.1212	0.044
Mof_H 	H 	0.2873	0.4062	0.1714	0.052
Mof_Mn	Mn	0.36684	0.60788	0.55305	0.784
Mof_Mn	Mn	0.08807	0.85065	0.44423	0.789
Mof_Br	Br	0.38626	0.28662	0.71333	-0.241
Mof_Br	Br	0.37217	0.04306	0.64689	-0.254
Mof_Br	Br	0.27801	0.59027	0.64514	-0.376
Mof_Br	Br	0.03915	0.72793	0.36251	-0.225
Mof_O 	O 	0.4342	0.4935	0.5678	-0.449
Mof_O 	O 	0.5497	0.3983	0.5213	-0.439
Mof_O 	O 	0.109	0.9562	0.5174	-0.386
Mof_O 	O 	0.0303	0.082	0.5686	-0.45
Mof_O 	O 	0.4753	0.6636	0.63	-0.148
Mof_O 	O 	0.1135	0.9294	0.361	-0.219
Mof_N 	N 	0.6187	0.3337	0.6966	-0.124
Mof_N 	N 	0.2229	0.9299	0.6958	-0.134
Mof_N 	N 	0.3236	0.723	0.5076	-0.145
Mof_N 	N 	0.2696	0.7704	0.4971	-0.031
Mof_N 	N 	0.2207	0.8221	0.4857	-0.144
Mof_C 	C 	0.4743	0.3557	0.6116	-0.045
Mof_C 	C 	0.4337	0.2796	0.6293	-0.037
Mof_H 	H 	0.3888	0.2644	0.588	0.053
Mof_H 	H 	0.4759	0.2376	0.6377	0.067
Mof_C 	C 	0.4064	0.4223	0.5915	0.122
Mof_H 	H 	0.3854	0.4336	0.6332	0.013
Mof_H 	H 	0.3592	0.4023	0.5543	-0.016
Mof_C 	C 	0.5068	0.3342	0.5456	0.112
Mof_H 	H 	0.4593	0.3178	0.5069	-0.017
Mof_H 	H 	0.5452	0.2893	0.5576	0.006
Mof_C 	C 	0.5453	0.3892	0.6743	-0.051
Mof_H 	H 	0.5221	0.3994	0.715	0.06
Mof_H 	H 	0.5649	0.4395	0.6597	0.041
Mof_C 	C 	0.6819	0.3384	0.663	0.077
Mof_H 	H 	0.68	0.3771	0.6282	0.001
Mof_C 	C 	0.7501	0.2851	0.6806	-0.134
Mof_H 	H 	0.7933	0.2868	0.6572	0.096
Mof_C 	C 	0.751	0.2301	0.7337	0.055
Mof_H 	H 	0.7955	0.194	0.7465	0.014
Mof_C 	C 	0.6862	0.2278	0.7685	-0.127
Mof_H 	H 	0.6881	0.1912	0.805	0.079
Mof_C 	C 	0.6208	0.2787	0.749	0.066
Mof_H 	H 	0.5767	0.2764	0.7714	0.029
Mof_C 	C 	0.1827	0.0492	0.6121	-0.063
Mof_C 	C 	0.2654	0.0988	0.6367	-0.036
Mof_H 	H 	0.2629	0.1417	0.6025	0.057
Mof_H 	H 	0.2661	0.123	0.6824	0.073
Mof_C 	C 	0.1845	0.0013	0.5437	-0.003
Mof_H 	H 	0.2327	0.9656	0.5544	0.08
Mof_H 	H 	0.1915	0.0378	0.5067	0.017
Mof_C 	C 	0.1133	0.1133	0.5927	0.119
Mof_H 	H 	0.1247	0.1471	0.5556	-0.022
Mof_H 	H 	0.1161	0.1462	0.6345	-0.003
Mof_C 	C 	0.1638	0.9987	0.6723	0.053
Mof_H 	H 	0.1065	0.9783	0.6563	0.031
Mof_H 	H 	0.1661	0.0327	0.7133	0.013
Mof_C 	C 	0.286	0.9362	0.7547	0.099
Mof_H 	H 	0.2919	0.983	0.7812	0.054
Mof_C 	C 	0.3432	0.8747	0.7775	-0.123
Mof_H 	H 	0.388	0.8799	0.818	0.108
Mof_C 	C 	0.331	0.8047	0.7373	0.08
Mof_H 	H 	0.367	0.7616	0.7516	0.024
Mof_C 	C 	0.2644	0.7997	0.6757	-0.152
Mof_H 	H 	0.2555	0.7539	0.6478	0.104
Mof_C 	C 	0.2131	0.8639	0.6579	0.127
Mof_H 	H 	0.1688	0.8611	0.6167	-0.01
Mof_C 	C 	0.4961	0.7478	0.6419	-0.301
Mof_H 	H 	0.5476	0.7532	0.679	0.144
Mof_H 	H 	0.5033	0.7711	0.5985	0.131
Mof_H 	H 	0.451	0.7744	0.6561	0.143
Mof_C 	C 	0.063	0.9219	0.2875	-0.09
Mof_H 	H 	0.0837	0.9581	0.2575	0.048
Mof_H 	H 	0.0669	0.8684	0.2712	0.04
Mof_H 	H 	0.005	0.9341	0.2853	0.052
Mof_Br	Br	0.0407	0.7761	0.3173	-0.223
Mof_C 	C 	0.481	0.626	0.704	-0.443
Mof_H 	H 	0.5274	0.6491	0.7386	0.222
Mof_H 	H 	0.4291	0.6365	0.7173	0.184
Mof_H 	H 	0.4889	0.5699	0.7013	0.164
Mof_C 	C 	0.184	0.9524	0.3403	-0.118
Mof_H 	H 	0.1683	0.9864	0.2991	0.071
Mof_H 	H 	0.222	0.9807	0.3788	0.079
Mof_H 	H 	0.2127	0.9062	0.3286	0.072
Mof_Mn	Mn	-0	0	-0	0.829
Mof_Mn	Mn	0.5	0.5	0.5	1.004
Mof_Mn	Mn	0.5	0.5	-0	0.947
Mof_Mn	Mn	2.77928e-33	4.9237e-33	0.5	0.931
_end
