data_functionalizedCrystal
_audit_creation_method	'EQeq! by Chris Wilmer'
_symmetry_space_group_name_H-M	'P1'
_symmetry_Int_Tables_number	1
_symmetry_cell_setting	triclinic
loop_
_symmetry_equiv_pos_as_xyz
  x,y,z
_cell_length_a	6.7999
_cell_length_b	12.7002
_cell_length_c	16.6802
_cell_angle_alpha	90
_cell_angle_beta	90
_cell_angle_gamma	90
loop_
_atom_site_label
_atom_site_type_symbol
_atom_site_fract_x
_atom_site_fract_y
_atom_site_fract_z
_atom_site_charge
Mof_C 	C 	0.7737	0.9028	0.91146	0.426
Mof_C 	C 	0.7594	0.9807	0.8447	-0.079
Mof_C 	C 	0.5771	0.9999	0.8093	-0.014
Mof_H 	H 	0.4634	0.9713	0.8313	0.059
Mof_C 	C 	0.5664	0.0617	0.7414	-0.005
Mof_H 	H 	0.4452	0.0744	0.7174	0.054
Mof_C 	C 	0.9283	0.0273	0.814	-0.018
Mof_H 	H 	0.049	0.0169	0.839	0.06
Mof_C 	C 	0.9157	0.0894	0.7457	-0.01
Mof_H 	H 	0.0283	0.1207	0.7249	0.06
Mof_C 	C 	0.736	0.105	0.70874	-0.089
Mof_C 	C 	0.7254	0.1628	0.63098	0.431
Mof_O 	O 	0.2825	0.81331	0.01264	-0.674
Mof_O 	O 	0.5577	0.1748	0.60049	-0.514
Mof_O 	O 	0.942	0.87963	0.9369	-0.512
Mof_O 	O 	0.8852	0.1926	0.60073	-0.506
Mof_O 	O 	0.6141	0.86356	0.93584	-0.502
Mof_V 	V 	0.0635	0.76592	0.00184	1.833
Mof_C 	C 	0.7263	0.0972	0.41146	0.423
Mof_C 	C 	0.7406	0.0193	0.3447	-0.074
Mof_C 	C 	0.9229	0.0001	0.3093	-0.036
Mof_H 	H 	0.0366	0.0287	0.3313	0.069
Mof_C 	C 	0.9336	0.9383	0.2414	0.018
Mof_H 	H 	0.0548	0.9256	0.2174	0.043
Mof_C 	C 	0.5717	0.9727	0.314	-0.021
Mof_H 	H 	0.451	0.9831	0.339	0.058
Mof_C 	C 	0.5843	0.9106	0.2457	0.004
Mof_H 	H 	0.4717	0.8793	0.2249	0.053
Mof_C 	C 	0.764	0.895	0.20874	-0.101
Mof_C 	C 	0.7746	0.8372	0.13098	0.435
Mof_O 	O 	0.2175	0.18669	0.51264	-0.673
Mof_O 	O 	0.9423	0.8252	0.10049	-0.512
Mof_O 	O 	0.558	0.12037	0.4369	-0.512
Mof_O 	O 	0.6148	0.8074	0.10073	-0.505
Mof_O 	O 	0.8859	0.13644	0.43584	-0.503
Mof_V 	V 	0.4365	0.23408	0.50184	1.834
Mof_C 	C 	0.2263	0.4028	0.58854	0.428
Mof_C 	C 	0.2406	0.4807	0.6553	-0.087
Mof_C 	C 	0.4229	0.4999	0.6907	-0.01
Mof_H 	H 	0.5366	0.4713	0.6687	0.057
Mof_C 	C 	0.4336	0.5617	0.7586	-0.008
Mof_H 	H 	0.5548	0.5744	0.7826	0.055
Mof_C 	C 	0.0717	0.5273	0.686	-0.005
Mof_H 	H 	0.951	0.5169	0.661	0.052
Mof_C 	C 	0.0843	0.5894	0.7543	-0.009
Mof_H 	H 	0.9717	0.6207	0.7751	0.057
Mof_C 	C 	0.264	0.605	0.79126	-0.088
Mof_C 	C 	0.2746	0.6628	0.86902	0.431
Mof_O 	O 	0.7175	0.31331	0.48736	-0.675
Mof_O 	O 	0.4423	0.6748	0.89951	-0.514
Mof_O 	O 	0.058	0.37963	0.5631	-0.511
Mof_O 	O 	0.1148	0.6926	0.89927	-0.505
Mof_O 	O 	0.3859	0.36356	0.56416	-0.503
Mof_V 	V 	0.9365	0.26592	0.49816	1.833
Mof_C 	C 	0.2737	0.5972	0.08854	0.426
Mof_C 	C 	0.2594	0.5193	0.1553	-0.082
Mof_C 	C 	0.0771	0.5001	0.1907	-0.019
Mof_H 	H 	0.9634	0.5287	0.1687	0.062
Mof_C 	C 	0.0664	0.4383	0.2586	-0.001
Mof_H 	H 	0.9452	0.4256	0.2826	0.052
Mof_C 	C 	0.4283	0.4727	0.186	-0.013
Mof_H 	H 	0.549	0.4831	0.161	0.056
Mof_C 	C 	0.4157	0.4106	0.2543	-0.003
Mof_H 	H 	0.5283	0.3793	0.2751	0.056
Mof_C 	C 	0.236	0.395	0.29126	-0.092
Mof_C 	C 	0.2254	0.3372	0.36902	0.432
Mof_O 	O 	0.7825	0.68669	0.98736	-0.674
Mof_O 	O 	0.0577	0.3252	0.39951	-0.513
Mof_O 	O 	0.442	0.62037	0.0631	-0.512
Mof_O 	O 	0.3852	0.3074	0.39927	-0.504
Mof_O 	O 	0.1141	0.63644	0.06416	-0.503
Mof_V 	V 	0.5635	0.73408	0.99816	1.834
_end
