data_functionalizedCrystal
_audit_creation_method	'EQeq! by Chris Wilmer'
_symmetry_space_group_name_H-M	'P1'
_symmetry_Int_Tables_number	1
_symmetry_cell_setting	triclinic
loop_
_symmetry_equiv_pos_as_xyz
  x,y,z
_cell_length_a	16.315
_cell_length_b	17.405
_cell_length_c	18.41
_cell_angle_alpha	89.592
_cell_angle_beta	84.33
_cell_angle_gamma	82.521
loop_
_atom_site_label
_atom_site_type_symbol
_atom_site_fract_x
_atom_site_fract_y
_atom_site_fract_z
_atom_site_charge
Mof_Na	Na	0.08878	0.05066	0.0002	2.778
Mof_Na	Na	0.91122	0.94934	0.9998	2.778
Mof_Zn	Zn	0.5253	0.4989	0.1901	1.178
Mof_Zn	Zn	0.4747	0.5011	0.8099	1.178
Mof_H 	H 	0.6053	0.2049	0.1567	0.052
Mof_H 	H 	0.455	0.2222	0.1601	0.052
Mof_H 	H 	0.2178	0.4655	0.1759	0.061
Mof_H 	H 	0.218	0.6048	0.1745	0.064
Mof_H 	H 	0.4495	0.794	0.1788	0.061
Mof_H 	H 	0.5985	0.7778	0.1782	0.051
Mof_H 	H 	0.8362	0.5338	0.1625	0.065
Mof_H 	H 	0.8371	0.3925	0.1575	0.065
Mof_H 	H 	0.7353	0.2523	0.0495	0.128
Mof_H 	H 	0.8371	0.1482	0.0358	-0.112
Mof_H 	H 	0.8852	0.1689	0.242	-0.017
Mof_H 	H 	0.7807	0.2743	0.2595	0.124
Mof_H 	H 	0.3049	0.3423	0.0589	0.093
Mof_H 	H 	0.2084	0.258	0.045	-0.022
Mof_H 	H 	0.2061	0.2035	0.2576	0.003
Mof_H 	H 	0.3026	0.2878	0.2715	0.103
Mof_H 	H 	0.3611	0.7576	0.0696	0.105
Mof_H 	H 	0.2655	0.8664	0.0563	-0.052
Mof_H 	H 	0.1413	0.8205	0.2462	0.007
Mof_H 	H 	0.2404	0.7156	0.2631	0.113
Mof_H 	H 	0.7234	0.7143	0.0672	0.127
Mof_H 	H 	0.8235	0.7951	0.0582	-0.11
Mof_H 	H 	0.8816	0.7374	0.2581	-0.028
Mof_H 	H 	0.7797	0.6542	0.2682	0.129
Mof_H 	H 	0.3947	0.7951	0.8433	0.053
Mof_H 	H 	0.545	0.7778	0.8399	0.053
Mof_H 	H 	0.7822	0.5345	0.8241	0.061
Mof_H 	H 	0.782	0.3952	0.8255	0.064
Mof_H 	H 	0.5505	0.206	0.8212	0.061
Mof_H 	H 	0.4015	0.2222	0.8218	0.051
Mof_H 	H 	0.1638	0.4662	0.8375	0.065
Mof_H 	H 	0.1629	0.6075	0.8425	0.065
Mof_H 	H 	0.2647	0.7477	0.9505	0.128
Mof_H 	H 	0.1629	0.8518	0.9642	-0.112
Mof_H 	H 	0.1148	0.8311	0.758	-0.017
Mof_H 	H 	0.2193	0.7257	0.7405	0.124
Mof_H 	H 	0.6951	0.6577	0.9411	0.093
Mof_H 	H 	0.7916	0.742	0.955	-0.022
Mof_H 	H 	0.7939	0.7965	0.7424	0.003
Mof_H 	H 	0.6974	0.7122	0.7285	0.103
Mof_H 	H 	0.6389	0.2424	0.9304	0.105
Mof_H 	H 	0.7345	0.1336	0.9437	-0.052
Mof_H 	H 	0.8587	0.1795	0.7538	0.007
Mof_H 	H 	0.7596	0.2844	0.7369	0.113
Mof_H 	H 	0.2766	0.2857	0.9328	0.127
Mof_H 	H 	0.1765	0.2049	0.9418	-0.11
Mof_H 	H 	0.1184	0.2626	0.7419	-0.028
Mof_H 	H 	0.2203	0.3458	0.7318	0.129
Mof_C 	C 	0.7043	0.4155	0.1688	0.113
Mof_C 	C 	0.6791	0.3421	0.1658	-0.178
Mof_C 	C 	0.5958	0.3267	0.1668	0.112
Mof_C 	C 	0.5706	0.2518	0.1611	-0.094
Mof_C 	C 	0.4882	0.2614	0.1632	-0.082
Mof_C 	C 	0.4596	0.3425	0.1712	0.098
Mof_C 	C 	0.3775	0.3772	0.1743	-0.158
Mof_C 	C 	0.3496	0.4564	0.1778	0.1
Mof_C 	C 	0.2641	0.4915	0.1764	-0.079
Mof_C 	C 	0.2643	0.5678	0.176	-0.09
Mof_C 	C 	0.3484	0.5834	0.1783	0.106
Mof_C 	C 	0.3754	0.6562	0.176	-0.167
Mof_C 	C 	0.458	0.6719	0.176	0.107
Mof_C 	C 	0.484	0.747	0.1777	-0.092
Mof_C 	C 	0.5653	0.7382	0.1775	-0.082
Mof_C 	C 	0.5942	0.6554	0.1757	0.107
Mof_C 	C 	0.6761	0.622	0.1736	-0.182
Mof_C 	C 	0.704	0.5414	0.1726	0.113
Mof_C 	C 	0.79	0.5074	0.1651	-0.088
Mof_C 	C 	0.7905	0.4297	0.1624	-0.085
Mof_C 	C 	0.7453	0.2738	0.1561	0.201
Mof_C 	C 	0.7643	0.2356	0.0889	-0.304
Mof_C 	C 	0.8256	0.1734	0.0808	0.237
Mof_C 	C 	0.8703	0.1476	0.1374	-0.33
Mof_C 	C 	0.8542	0.1856	0.2038	0.191
Mof_C 	C 	0.7915	0.249	0.2145	-0.261
Mof_C 	C 	0.937	0.0792	0.1272	0.563
Mof_C 	C 	0.3133	0.3234	0.1666	0.151
Mof_C 	C 	0.2851	0.3145	0.0987	-0.209
Mof_C 	C 	0.2273	0.264	0.0904	0.113
Mof_C 	C 	0.1977	0.2224	0.1499	-0.197
Mof_C 	C 	0.2259	0.2313	0.2177	0.11
Mof_C 	C 	0.2837	0.2818	0.2261	-0.202
Mof_C 	C 	0.1338	0.169	0.1378	0.43
Mof_C 	C 	0.3115	0.7252	0.1673	0.175
Mof_C 	C 	0.3178	0.7705	0.1059	-0.244
Mof_C 	C 	0.2599	0.8358	0.0976	0.162
Mof_C 	C 	0.1945	0.8549	0.1503	-0.238
Mof_C 	C 	0.1864	0.8088	0.2113	0.145
Mof_C 	C 	0.2452	0.7451	0.221	-0.224
Mof_C 	C 	0.1344	0.9258	0.14	0.49
Mof_C 	C 	0.7414	0.675	0.1684	0.217
Mof_C 	C 	0.7552	0.7183	0.106	-0.306
Mof_C 	C 	0.8149	0.7668	0.1007	0.236
Mof_C 	C 	0.8633	0.7747	0.158	-0.324
Mof_C 	C 	0.8498	0.7328	0.2194	0.207
Mof_C 	C 	0.7884	0.6824	0.2257	-0.278
Mof_C 	C 	0.9263	0.8295	0.1493	0.533
Mof_C 	C 	0.453	0.4647	0.3467	0.018
Mof_C 	C 	0.447	0.4648	0.4225	-0.019
Mof_C 	C 	0.5034	0.4994	0.45894	0.007
Mof_C 	C 	0.5659	0.5338	0.4195	-0.019
Mof_C 	C 	0.572	0.5337	0.3437	0.018
Mof_C 	C 	0.2957	0.5845	0.8312	0.113
Mof_C 	C 	0.3209	0.6579	0.8342	-0.178
Mof_C 	C 	0.4042	0.6733	0.8332	0.112
Mof_C 	C 	0.4294	0.7482	0.8389	-0.094
Mof_C 	C 	0.5118	0.7386	0.8368	-0.082
Mof_C 	C 	0.5404	0.6575	0.8288	0.098
Mof_C 	C 	0.6225	0.6228	0.8257	-0.158
Mof_C 	C 	0.6504	0.5436	0.8222	0.1
Mof_C 	C 	0.7359	0.5085	0.8236	-0.079
Mof_C 	C 	0.7357	0.4322	0.824	-0.09
Mof_C 	C 	0.6516	0.4166	0.8217	0.106
Mof_C 	C 	0.6246	0.3438	0.824	-0.167
Mof_C 	C 	0.542	0.3281	0.824	0.107
Mof_C 	C 	0.516	0.253	0.8223	-0.092
Mof_C 	C 	0.4347	0.2618	0.8225	-0.082
Mof_C 	C 	0.4058	0.3446	0.8243	0.107
Mof_C 	C 	0.3239	0.378	0.8264	-0.182
Mof_C 	C 	0.296	0.4586	0.8274	0.113
Mof_C 	C 	0.21	0.4926	0.8349	-0.088
Mof_C 	C 	0.2095	0.5703	0.8376	-0.085
Mof_C 	C 	0.2547	0.7262	0.8439	0.201
Mof_C 	C 	0.2357	0.7644	0.9111	-0.304
Mof_C 	C 	0.1744	0.8266	0.9192	0.237
Mof_C 	C 	0.1297	0.8524	0.8626	-0.33
Mof_C 	C 	0.1458	0.8144	0.7962	0.191
Mof_C 	C 	0.2085	0.751	0.7855	-0.261
Mof_C 	C 	0.063	0.9208	0.8728	0.563
Mof_C 	C 	0.6867	0.6766	0.8334	0.151
Mof_C 	C 	0.7149	0.6855	0.9013	-0.209
Mof_C 	C 	0.7727	0.736	0.9096	0.113
Mof_C 	C 	0.8023	0.7776	0.8501	-0.197
Mof_C 	C 	0.7741	0.7687	0.7823	0.11
Mof_C 	C 	0.7163	0.7182	0.7739	-0.202
Mof_C 	C 	0.8662	0.831	0.8622	0.43
Mof_C 	C 	0.6885	0.2748	0.8327	0.175
Mof_C 	C 	0.6822	0.2295	0.8941	-0.244
Mof_C 	C 	0.7401	0.1642	0.9024	0.162
Mof_C 	C 	0.8055	0.1451	0.8497	-0.238
Mof_C 	C 	0.8136	0.1912	0.7887	0.145
Mof_C 	C 	0.7548	0.2549	0.779	-0.224
Mof_C 	C 	0.8656	0.0742	0.86	0.49
Mof_C 	C 	0.2586	0.325	0.8316	0.217
Mof_C 	C 	0.2448	0.2817	0.894	-0.306
Mof_C 	C 	0.1851	0.2332	0.8993	0.236
Mof_C 	C 	0.1367	0.2253	0.842	-0.324
Mof_C 	C 	0.1502	0.2672	0.7806	0.207
Mof_C 	C 	0.2116	0.3176	0.7743	-0.278
Mof_C 	C 	0.0737	0.1705	0.8507	0.533
Mof_C 	C 	0.547	0.5353	0.6533	0.018
Mof_C 	C 	0.553	0.5352	0.5775	-0.019
Mof_C 	C 	0.4966	0.5006	0.54106	0.007
Mof_C 	C 	0.4341	0.4662	0.5805	-0.019
Mof_C 	C 	0.428	0.4663	0.6563	0.018
Mof_N 	N 	0.5281	0.3813	0.1737	-0.282
Mof_N 	N 	0.3995	0.5139	0.1799	-0.28
Mof_N 	N 	0.5257	0.6164	0.1771	-0.282
Mof_N 	N 	0.6543	0.4844	0.1747	-0.282
Mof_N 	N 	0.5155	0.4992	0.30725	-0.232
Mof_N 	N 	0.4719	0.6187	0.8263	-0.282
Mof_N 	N 	0.6005	0.4861	0.8201	-0.28
Mof_N 	N 	0.4743	0.3836	0.8229	-0.282
Mof_N 	N 	0.3457	0.5156	0.8253	-0.282
Mof_N 	N 	0.4845	0.5008	0.69275	-0.232
Mof_O 	O 	0.9547	0.0485	0.0671	-1.001
Mof_O 	O 	0.9734	0.0584	0.1833	-0.314
Mof_O 	O 	0.1171	0.1519	0.0778	-0.653
Mof_O 	O 	0.0889	0.1521	0.2022	-0.253
Mof_O 	O 	0.1474	0.9706	0.09	-0.692
Mof_O 	O 	0.0708	0.9371	0.1884	-0.267
Mof_O 	O 	0.9409	0.8661	0.0957	-0.735
Mof_O 	O 	0.9672	0.8325	0.2088	-0.274
Mof_O 	O 	0.0453	0.9515	0.9329	-1.001
Mof_O 	O 	0.0266	0.9416	0.8167	-0.314
Mof_O 	O 	0.8829	0.8481	0.9222	-0.653
Mof_O 	O 	0.9111	0.8479	0.7978	-0.253
Mof_O 	O 	0.8526	0.0294	0.91	-0.692
Mof_O 	O 	0.9292	0.0629	0.8116	-0.267
Mof_O 	O 	0.0591	0.1339	0.9043	-0.735
Mof_O 	O 	0.0328	0.1675	0.7912	-0.274
_end
