data_functionalizedCrystal
_audit_creation_method	'EQeq! by Chris Wilmer'
_symmetry_space_group_name_H-M	'P1'
_symmetry_Int_Tables_number	1
_symmetry_cell_setting	triclinic
loop_
_symmetry_equiv_pos_as_xyz
  x,y,z
_cell_length_a	7.226
_cell_length_b	10.2745
_cell_length_c	13.2918
_cell_angle_alpha	90
_cell_angle_beta	90
_cell_angle_gamma	99.493
loop_
_atom_site_label
_atom_site_type_symbol
_atom_site_fract_x
_atom_site_fract_y
_atom_site_fract_z
_atom_site_charge
Mof_Ce	Ce	0.16144	0.28177	0.90556	2.635
Mof_Ce	Ce	0.83856	0.21823	0.40556	2.648
Mof_Ce	Ce	0.83856	0.71823	0.09444	2.636
Mof_Ce	Ce	0.16144	0.78177	0.59444	2.649
Mof_P 	P 	0.78628	0.07245	0.05061	0.543
Mof_P 	P 	0.21372	0.42755	0.55061	0.555
Mof_P 	P 	0.21372	0.92755	0.94939	0.543
Mof_P 	P 	0.78628	0.57245	0.44939	0.555
Mof_H 	H 	0.5924	0.1905	0.0465	0.281
Mof_H 	H 	0.8705	0.0013	0.257	0.279
Mof_H 	H 	0.059	0.0861	0.1487	0.038
Mof_H 	H 	0.4076	0.3095	0.5465	0.283
Mof_H 	H 	0.1295	0.4987	0.757	0.282
Mof_H 	H 	0.941	0.4139	0.6487	0.031
Mof_H 	H 	0.4076	0.8095	0.9535	0.281
Mof_H 	H 	0.1295	0.9987	0.743	0.279
Mof_H 	H 	0.941	0.9139	0.8513	0.038
Mof_H 	H 	0.5924	0.6905	0.4535	0.283
Mof_H 	H 	0.8705	0.5013	0.243	0.282
Mof_H 	H 	0.059	0.5861	0.3513	0.031
Mof_C 	C 	0.9451	0.1255	0.1559	-0.137
Mof_C 	C 	0.9989	0.2745	0.1627	0.433
Mof_C 	C 	0.454	0.5549	0.9747	0.27
Mof_C 	C 	0.0549	0.3745	0.6559	-0.13
Mof_C 	C 	0.0011	0.2255	0.6627	0.445
Mof_C 	C 	0.546	0.9451	0.4747	0.27
Mof_C 	C 	0.0549	0.8745	0.8441	-0.137
Mof_C 	C 	0.0011	0.7255	0.8373	0.433
Mof_C 	C 	0.546	0.4451	0.0253	0.27
Mof_C 	C 	0.9451	0.6255	0.3441	-0.13
Mof_C 	C 	0.9989	0.7745	0.3373	0.445
Mof_C 	C 	0.454	0.0549	0.5253	0.27
Mof_O 	O 	0.6037	0.1269	0.0818	-0.472
Mof_O 	O 	0.8677	0.1319	0.95403	-0.543
Mof_O 	O 	0.7438	0.9247	0.0562	-0.556
Mof_O 	O 	0.8483	0.0755	0.24519	-0.607
Mof_O 	O 	0.0793	0.3337	0.08803	-0.556
Mof_O 	O 	0.9604	0.3307	0.243	-0.57
Mof_O 	O 	0.3087	0.5194	0.9248	-0.54
Mof_O 	O 	0.5324	0.6718	0.9911	-0.504
Mof_O 	O 	0.3963	0.3731	0.5818	-0.474
Mof_O 	O 	0.1323	0.3681	0.45403	-0.553
Mof_O 	O 	0.2562	0.5753	0.5562	-0.56
Mof_O 	O 	0.1517	0.4245	0.74519	-0.608
Mof_O 	O 	0.9207	0.1663	0.58803	-0.569
Mof_O 	O 	0.0396	0.1693	0.743	-0.57
Mof_O 	O 	0.6913	0.9806	0.4248	-0.539
Mof_O 	O 	0.4676	0.8282	0.4911	-0.506
Mof_O 	O 	0.3963	0.8731	0.9182	-0.472
Mof_O 	O 	0.1323	0.8681	0.04597	-0.543
Mof_O 	O 	0.2562	0.0753	0.9438	-0.556
Mof_O 	O 	0.1517	0.9245	0.75481	-0.607
Mof_O 	O 	0.9207	0.6663	0.91197	-0.556
Mof_O 	O 	0.0396	0.6693	0.757	-0.57
Mof_O 	O 	0.6913	0.4806	0.0752	-0.54
Mof_O 	O 	0.4676	0.3282	0.0089	-0.504
Mof_O 	O 	0.6037	0.6269	0.4182	-0.474
Mof_O 	O 	0.8677	0.6319	0.54597	-0.553
Mof_O 	O 	0.7438	0.4247	0.4438	-0.56
Mof_O 	O 	0.8483	0.5755	0.25481	-0.608
Mof_O 	O 	0.0793	0.8337	0.41197	-0.569
Mof_O 	O 	0.9604	0.8307	0.257	-0.57
Mof_O 	O 	0.3087	0.0194	0.5752	-0.539
Mof_O 	O 	0.5324	0.1718	0.5089	-0.506
_end
