data_functionalizedCrystal
_audit_creation_method	'EQeq! by Chris Wilmer'
_symmetry_space_group_name_H-M	'P1'
_symmetry_Int_Tables_number	1
_symmetry_cell_setting	triclinic
loop_
_symmetry_equiv_pos_as_xyz
  x,y,z
_cell_length_a	25.938
_cell_length_b	18.158
_cell_length_c	16.7929
_cell_angle_alpha	90
_cell_angle_beta	116.945
_cell_angle_gamma	90
loop_
_atom_site_label
_atom_site_type_symbol
_atom_site_fract_x
_atom_site_fract_y
_atom_site_fract_z
_atom_site_charge
Mof_Co	Co	0.3705	0.72123	0.51337	1.166
Mof_Co	Co	0.29643	0.76828	0.29557	1.19
Mof_Co	Co	0.21186	0.81194	0.06896	1.157
Mof_O 	O 	0.3745	0.622	0.4605	-0.426
Mof_O 	O 	0.3143	0.6547	0.3186	-0.42
Mof_O 	O 	0.2828	0.8813	0.2773	-0.418
Mof_O 	O 	0.2158	0.9063	0.136	-0.445
Mof_O 	O 	0.4563	0.7513	0.5226	-0.364
Mof_O 	O 	0.3738	0.7904	0.4143	-0.501
Mof_O 	O 	0.7215	0.2408	0.1764	-0.508
Mof_O 	O 	0.6339	0.2763	0.0827	-0.386
Mof_O 	O 	0.3471	0.767	0.2282	-0.416
Mof_O 	O 	0.2955	0.8148	0.091	-0.453
Mof_O 	O 	0.7863	0.8042	0.9762	-0.405
Mof_O 	O 	0.7437	0.7227	0.8647	-0.396
Mof_N 	N 	0.1989	0.7236	0.9785	-0.173
Mof_N 	N 	0.1794	0.8652	0.9431	-0.212
Mof_N 	N 	0.3599	0.8239	0.5691	-0.221
Mof_N 	N 	0.4044	0.6979	0.6494	-0.226
Mof_C 	C 	0.3397	0.6088	0.3808	0.375
Mof_C 	C 	0.3272	0.5275	0.3578	-0.116
Mof_C 	C 	0.3446	0.4757	0.4241	0.049
Mof_H 	H 	0.3645	0.4914	0.4846	0.029
Mof_C 	C 	0.3342	0.4012	0.406	-0.122
Mof_H 	H 	0.3471	0.3664	0.4534	0.076
Mof_C 	C 	0.3045	0.3778	0.3174	0.073
Mof_C 	C 	0.2867	0.4295	0.2482	-0.118
Mof_H 	H 	0.2674	0.4136	0.1878	0.067
Mof_C 	C 	0.2971	0.5042	0.2676	0.04
Mof_H 	H 	0.2842	0.5393	0.2206	0.024
Mof_C 	C 	0.2934	0.3001	0.2971	-0.028
Mof_C 	C 	0.2853	0.2356	0.2832	-0.032
Mof_C 	C 	0.2752	0.1581	0.2675	0.076
Mof_C 	C 	0.3048	0.1076	0.3367	-0.121
Mof_H 	H 	0.3304	0.1247	0.3948	0.074
Mof_C 	C 	0.2962	0.0311	0.3195	0.046
Mof_H 	H 	0.3164	0.9968	0.366	0.027
Mof_C 	C 	0.258	0.0059	0.2338	-0.125
Mof_C 	C 	0.2273	0.0567	0.167	0.053
Mof_H 	H 	0.2	0.0397	0.1098	0.015
Mof_C 	C 	0.2359	0.1318	0.1827	-0.126
Mof_H 	H 	0.2152	0.1657	0.136	0.075
Mof_C 	C 	0.2514	0.9244	0.2143	0.376
Mof_C 	C 	0.43	0.7901	0.453	0.328
Mof_C 	C 	0.4615	0.8395	0.42	-0.107
Mof_C 	C 	0.521	0.8308	0.4496	0.035
Mof_H 	H 	0.5406	0.7908	0.4879	0.046
Mof_C 	C 	0.5513	0.8792	0.4241	-0.111
Mof_H 	H 	0.5915	0.8722	0.4438	0.076
Mof_C 	C 	0.5228	0.9394	0.3685	0.067
Mof_C 	C 	0.4633	0.9481	0.3397	-0.109
Mof_H 	H 	0.4438	0.9886	0.3023	0.068
Mof_C 	C 	0.4321	0.8986	0.3646	0.033
Mof_H 	H 	0.3917	0.905	0.3443	0.034
Mof_C 	C 	0.5532	0.9937	0.3439	-0.029
Mof_C 	C 	0.5738	0.0426	0.3198	-0.024
Mof_C 	C 	0.5987	0.0957	0.283	0.063
Mof_C 	C 	0.6566	0.0912	0.3005	-0.105
Mof_H 	H 	0.6814	0.0563	0.3426	0.07
Mof_C 	C 	0.6782	0.1374	0.2569	0.03
Mof_H 	H 	0.7171	0.1324	0.2668	0.032
Mof_C 	C 	0.6423	0.1915	0.1981	-0.11
Mof_C 	C 	0.586	0.1983	0.1834	0.031
Mof_H 	H 	0.5623	0.2355	0.1441	0.043
Mof_C 	C 	0.5625	0.1514	0.2254	-0.103
Mof_H 	H 	0.5236	0.1568	0.2156	0.072
Mof_C 	C 	0.6666	0.2403	0.1508	0.329
Mof_C 	C 	0.341	0.7886	0.1537	0.376
Mof_C 	C 	0.3916	0.7789	0.1332	-0.111
Mof_C 	C 	0.3808	0.7682	0.0451	-0.004
Mof_H 	H 	0.342	0.7682	0.9993	0.068
Mof_C 	C 	0.4258	0.7577	0.0228	-0.181
Mof_H 	H 	0.4178	0.7504	0.9623	0.115
Mof_C 	C 	0.484	0.7578	0.0916	0.096
Mof_C 	C 	0.4943	0.7706	0.1803	-0.132
Mof_H 	H 	0.5329	0.7722	0.2267	0.078
Mof_C 	C 	0.4488	0.7807	0.2003	0.05
Mof_H 	H 	0.4563	0.789	0.2605	0.03
Mof_C 	C 	0.5302	0.7489	0.0674	-0.074
Mof_C 	C 	0.5663	0.7444	0.0406	0.003
Mof_C 	C 	0.6103	0.7462	0.0103	-0.047
Mof_C 	C 	0.6107	0.6981	0.9458	0.013
Mof_H 	H 	0.5818	0.6611	0.9216	0.038
Mof_C 	C 	0.6531	0.7037	0.916	-0.049
Mof_H 	H 	0.6521	0.6718	0.8704	0.062
Mof_C 	C 	0.6971	0.7567	0.9541	-0.001
Mof_C 	C 	0.6974	0.803	0.0192	-0.091
Mof_H 	H 	0.7272	0.8387	0.0449	0.059
Mof_C 	C 	0.6546	0.7986	0.0488	-0.027
Mof_H 	H 	0.6557	0.8307	0.0942	0.036
Mof_C 	C 	0.7455	0.7614	0.9276	0.325
Mof_C 	C 	0.2132	0.6539	0.0036	-0.069
Mof_H 	H 	0.2288	0.6421	0.0653	0.041
Mof_C 	C 	0.2062	0.5974	0.9428	0.003
Mof_H 	H 	0.2171	0.5481	0.9623	0.04
Mof_C 	C 	0.1823	0.616	0.8524	-0.032
Mof_H 	H 	0.1765	0.579	0.8091	0.043
Mof_C 	C 	0.1673	0.6884	0.8257	-0.062
Mof_H 	H 	0.1513	0.7019	0.7645	0.05
Mof_C 	C 	0.1765	0.7409	0.8921	0.038
Mof_C 	C 	0.1658	0.8213	0.871	0.06
Mof_C 	C 	0.1457	0.8502	0.7854	-0.102
Mof_H 	H 	0.1354	0.8183	0.7357	0.066
Mof_C 	C 	0.1407	0.9259	0.7732	0.032
Mof_H 	H 	0.1274	0.9466	0.7152	0.025
Mof_C 	C 	0.1556	0.9707	0.8472	-0.1
Mof_H 	H 	0.1528	0.0228	0.8407	0.07
Mof_C 	C 	0.1748	0.9385	0.9319	0.063
Mof_H 	H 	0.1847	0.9693	0.9825	0.025
Mof_C 	C 	0.3349	0.8845	0.5222	0.069
Mof_H 	H 	0.3192	0.883	0.459	0.012
Mof_C 	C 	0.3311	0.9498	0.5629	-0.115
Mof_H 	H 	0.3125	0.992	0.5283	0.073
Mof_C 	C 	0.3547	0.9514	0.654	0.04
Mof_H 	H 	0.353	0.9954	0.6834	0.02
Mof_C 	C 	0.3811	0.8893	0.7038	-0.11
Mof_H 	H 	0.3974	0.8895	0.7671	0.068
Mof_C 	C 	0.3828	0.8258	0.6567	0.059
Mof_C 	C 	0.4082	0.7546	0.7028	0.046
Mof_C 	C 	0.4314	0.7452	0.7961	-0.092
Mof_H 	H 	0.4331	0.7855	0.8332	0.064
Mof_C 	C 	0.4517	0.676	0.8332	0.021
Mof_H 	H 	0.4689	0.6689	0.896	0.034
Mof_C 	C 	0.4461	0.6168	0.7757	-0.102
Mof_H 	H 	0.4582	0.5687	0.7986	0.073
Mof_C 	C 	0.4224	0.6305	0.6847	0.062
Mof_H 	H 	0.4188	0.5908	0.6456	0.008
Mof_Co	Co	0.8705	0.22123	0.51337	1.167
Mof_Co	Co	0.79643	0.26828	0.29557	1.19
Mof_Co	Co	0.71186	0.31194	0.06896	1.158
Mof_O 	O 	0.8745	0.122	0.4605	-0.424
Mof_O 	O 	0.8143	0.1547	0.3186	-0.419
Mof_O 	O 	0.7828	0.3813	0.2773	-0.417
Mof_O 	O 	0.7158	0.4063	0.136	-0.444
Mof_O 	O 	0.9563	0.2513	0.5226	-0.36
Mof_O 	O 	0.8738	0.2904	0.4143	-0.499
Mof_O 	O 	0.2215	0.7408	0.1764	-0.507
Mof_O 	O 	0.1339	0.7763	0.0827	-0.386
Mof_O 	O 	0.8471	0.267	0.2282	-0.415
Mof_O 	O 	0.7955	0.3148	0.091	-0.452
Mof_O 	O 	0.2863	0.3042	0.9762	-0.404
Mof_O 	O 	0.2437	0.2227	0.8647	-0.396
Mof_N 	N 	0.6989	0.2236	0.9785	-0.174
Mof_N 	N 	0.6794	0.3652	0.9431	-0.211
Mof_N 	N 	0.8599	0.3239	0.5691	-0.221
Mof_N 	N 	0.9044	0.1979	0.6494	-0.226
Mof_C 	C 	0.8397	0.1088	0.3808	0.375
Mof_C 	C 	0.8272	0.0275	0.3578	-0.116
Mof_C 	C 	0.8446	0.9757	0.4241	0.049
Mof_H 	H 	0.8645	0.9914	0.4846	0.029
Mof_C 	C 	0.8342	0.9012	0.406	-0.122
Mof_H 	H 	0.8471	0.8664	0.4534	0.076
Mof_C 	C 	0.8045	0.8778	0.3174	0.073
Mof_C 	C 	0.7867	0.9295	0.2482	-0.119
Mof_H 	H 	0.7674	0.9136	0.1878	0.067
Mof_C 	C 	0.7971	0.0042	0.2676	0.041
Mof_H 	H 	0.7842	0.0393	0.2206	0.024
Mof_C 	C 	0.7934	0.8001	0.2971	-0.028
Mof_C 	C 	0.7853	0.7356	0.2832	-0.032
Mof_C 	C 	0.7752	0.6581	0.2675	0.076
Mof_C 	C 	0.8048	0.6076	0.3367	-0.12
Mof_H 	H 	0.8304	0.6247	0.3948	0.074
Mof_C 	C 	0.7962	0.5311	0.3195	0.045
Mof_H 	H 	0.8164	0.4968	0.366	0.027
Mof_C 	C 	0.758	0.5059	0.2338	-0.126
Mof_C 	C 	0.7273	0.5567	0.167	0.053
Mof_H 	H 	0.7	0.5397	0.1098	0.015
Mof_C 	C 	0.7359	0.6318	0.1827	-0.126
Mof_H 	H 	0.7152	0.6657	0.136	0.075
Mof_C 	C 	0.7514	0.4244	0.2143	0.377
Mof_C 	C 	0.93	0.2901	0.453	0.323
Mof_C 	C 	0.9615	0.3395	0.42	-0.09
Mof_C 	C 	0.021	0.3308	0.4496	0.014
Mof_H 	H 	0.0406	0.2908	0.4879	0.051
Mof_C 	C 	0.0513	0.3792	0.4241	-0.097
Mof_H 	H 	0.0915	0.3722	0.4438	0.071
Mof_C 	C 	0.0228	0.4394	0.3685	0.05
Mof_C 	C 	0.9633	0.4481	0.3397	-0.089
Mof_H 	H 	0.9438	0.4886	0.3023	0.063
Mof_C 	C 	0.9321	0.3986	0.3646	0.019
Mof_H 	H 	0.8917	0.405	0.3443	0.038
Mof_C 	C 	0.0532	0.4937	0.3439	-0.023
Mof_C 	C 	0.0738	0.5426	0.3198	-0.03
Mof_C 	C 	0.0987	0.5957	0.283	0.065
Mof_C 	C 	0.1566	0.5912	0.3005	-0.106
Mof_H 	H 	0.1814	0.5563	0.3426	0.07
Mof_C 	C 	0.1782	0.6374	0.2569	0.031
Mof_H 	H 	0.2171	0.6324	0.2668	0.031
Mof_C 	C 	0.1423	0.6915	0.1981	-0.111
Mof_C 	C 	0.086	0.6983	0.1834	0.032
Mof_H 	H 	0.0623	0.7355	0.1441	0.041
Mof_C 	C 	0.0625	0.6514	0.2254	-0.106
Mof_H 	H 	0.0236	0.6568	0.2156	0.07
Mof_C 	C 	0.1666	0.7403	0.1508	0.33
Mof_C 	C 	0.841	0.2886	0.1537	0.375
Mof_C 	C 	0.8916	0.2789	0.1332	-0.108
Mof_C 	C 	0.8808	0.2682	0.0451	-0.004
Mof_H 	H 	0.842	0.2682	0.9993	0.067
Mof_C 	C 	0.9258	0.2577	0.0228	-0.178
Mof_H 	H 	0.9178	0.2504	0.9623	0.114
Mof_C 	C 	0.984	0.2578	0.0916	0.098
Mof_C 	C 	0.9943	0.2706	0.1803	-0.119
Mof_H 	H 	0.0329	0.2722	0.2267	0.07
Mof_C 	C 	0.9488	0.2807	0.2003	0.045
Mof_H 	H 	0.9563	0.289	0.2605	0.034
Mof_C 	C 	0.0302	0.2489	0.0674	-0.08
Mof_C 	C 	0.0663	0.2444	0.0406	0.003
Mof_C 	C 	0.1103	0.2462	0.0103	-0.045
Mof_C 	C 	0.1107	0.1981	0.9458	0.01
Mof_H 	H 	0.0818	0.1611	0.9216	0.037
Mof_C 	C 	0.1531	0.2037	0.916	-0.047
Mof_H 	H 	0.1521	0.1718	0.8704	0.061
Mof_C 	C 	0.1971	0.2567	0.9541	-0.003
Mof_C 	C 	0.1974	0.303	0.0192	-0.087
Mof_H 	H 	0.2272	0.3387	0.0449	0.058
Mof_C 	C 	0.1546	0.2986	0.0488	-0.029
Mof_H 	H 	0.1557	0.3307	0.0942	0.037
Mof_C 	C 	0.2455	0.2614	0.9276	0.326
Mof_C 	C 	0.7132	0.1539	0.0036	-0.066
Mof_H 	H 	0.7288	0.1421	0.0653	0.04
Mof_C 	C 	0.7062	0.0974	0.9428	0
Mof_H 	H 	0.7171	0.0481	0.9623	0.041
Mof_C 	C 	0.6823	0.116	0.8524	-0.031
Mof_H 	H 	0.6765	0.079	0.8091	0.043
Mof_C 	C 	0.6673	0.1884	0.8257	-0.063
Mof_H 	H 	0.6513	0.2019	0.7645	0.05
Mof_C 	C 	0.6765	0.2409	0.8921	0.039
Mof_C 	C 	0.6658	0.3213	0.871	0.06
Mof_C 	C 	0.6457	0.3502	0.7854	-0.102
Mof_H 	H 	0.6354	0.3183	0.7357	0.066
Mof_C 	C 	0.6407	0.4259	0.7732	0.033
Mof_H 	H 	0.6274	0.4466	0.7152	0.026
Mof_C 	C 	0.6556	0.4707	0.8472	-0.101
Mof_H 	H 	0.6528	0.5228	0.8407	0.071
Mof_C 	C 	0.6748	0.4385	0.9319	0.064
Mof_H 	H 	0.6847	0.4693	0.9825	0.025
Mof_C 	C 	0.8349	0.3845	0.5222	0.069
Mof_H 	H 	0.8192	0.383	0.459	0.012
Mof_C 	C 	0.8311	0.4498	0.5629	-0.115
Mof_H 	H 	0.8125	0.492	0.5283	0.073
Mof_C 	C 	0.8547	0.4514	0.654	0.041
Mof_H 	H 	0.853	0.4954	0.6834	0.02
Mof_C 	C 	0.8811	0.3893	0.7038	-0.11
Mof_H 	H 	0.8974	0.3895	0.7671	0.069
Mof_C 	C 	0.8828	0.3258	0.6567	0.06
Mof_C 	C 	0.9082	0.2546	0.7028	0.047
Mof_C 	C 	0.9314	0.2452	0.7961	-0.092
Mof_H 	H 	0.9331	0.2855	0.8332	0.064
Mof_C 	C 	0.9517	0.176	0.8332	0.022
Mof_H 	H 	0.9689	0.1689	0.896	0.035
Mof_C 	C 	0.9461	0.1168	0.7757	-0.102
Mof_H 	H 	0.9582	0.0687	0.7986	0.073
Mof_C 	C 	0.9224	0.1305	0.6847	0.062
Mof_H 	H 	0.9188	0.0908	0.6456	0.008
Mof_Co	Co	0.3705	0.27877	0.01337	1.147
Mof_Co	Co	0.29643	0.23172	0.79557	1.191
Mof_Co	Co	0.21186	0.18806	0.56896	1.17
Mof_O 	O 	0.3745	0.378	0.9605	-0.405
Mof_O 	O 	0.3143	0.3453	0.8186	-0.415
Mof_O 	O 	0.2828	0.1187	0.7773	-0.416
Mof_O 	O 	0.2158	0.0937	0.636	-0.435
Mof_O 	O 	0.4563	0.2487	0.0226	-0.407
Mof_O 	O 	0.3738	0.2096	0.9143	-0.502
Mof_O 	O 	0.7215	0.7592	0.6764	-0.504
Mof_O 	O 	0.6339	0.7237	0.5827	-0.369
Mof_O 	O 	0.3471	0.233	0.7282	-0.414
Mof_O 	O 	0.2955	0.1852	0.591	-0.439
Mof_O 	O 	0.7863	0.1958	0.4762	-0.433
Mof_O 	O 	0.7437	0.2773	0.3647	-0.407
Mof_N 	N 	0.1989	0.2764	0.4785	-0.222
Mof_N 	N 	0.1794	0.1348	0.4431	-0.221
Mof_N 	N 	0.3599	0.1761	0.0691	-0.21
Mof_N 	N 	0.4044	0.3021	0.1494	-0.232
Mof_C 	C 	0.3397	0.3912	0.8808	0.371
Mof_C 	C 	0.3272	0.4725	0.8578	-0.11
Mof_C 	C 	0.3446	0.5243	0.9241	0.049
Mof_H 	H 	0.3645	0.5086	0.9846	0.04
Mof_C 	C 	0.3342	0.5988	0.906	-0.12
Mof_H 	H 	0.3471	0.6336	0.9534	0.086
Mof_C 	C 	0.3045	0.6222	0.8174	0.074
Mof_C 	C 	0.2867	0.5705	0.7482	-0.117
Mof_H 	H 	0.2674	0.5864	0.6878	0.071
Mof_C 	C 	0.2971	0.4958	0.7676	0.039
Mof_H 	H 	0.2842	0.4607	0.7206	0.03
Mof_C 	C 	0.2934	0.6999	0.7971	-0.026
Mof_C 	C 	0.2853	0.7644	0.7832	-0.03
Mof_C 	C 	0.2752	0.8419	0.7675	0.077
Mof_C 	C 	0.3048	0.8924	0.8367	-0.12
Mof_H 	H 	0.3304	0.8753	0.8948	0.083
Mof_C 	C 	0.2962	0.9689	0.8195	0.047
Mof_H 	H 	0.3164	0.0032	0.866	0.032
Mof_C 	C 	0.258	0.9941	0.7338	-0.122
Mof_C 	C 	0.2273	0.9433	0.667	0.052
Mof_H 	H 	0.2	0.9603	0.6098	0.025
Mof_C 	C 	0.2359	0.8682	0.6827	-0.124
Mof_H 	H 	0.2152	0.8343	0.636	0.079
Mof_C 	C 	0.2514	0.0756	0.7143	0.375
Mof_C 	C 	0.43	0.2099	0.953	0.38
Mof_C 	C 	0.4615	0.1605	0.92	-0.12
Mof_C 	C 	0.521	0.1692	0.9496	0.051
Mof_H 	H 	0.5406	0.2092	0.9879	0.056
Mof_C 	C 	0.5513	0.1208	0.9241	-0.116
Mof_H 	H 	0.5915	0.1278	0.9438	0.087
Mof_C 	C 	0.5228	0.0606	0.8685	0.077
Mof_C 	C 	0.4633	0.0519	0.8397	-0.114
Mof_H 	H 	0.4438	0.0114	0.8023	0.073
Mof_C 	C 	0.4321	0.1014	0.8646	0.047
Mof_H 	H 	0.3917	0.095	0.8443	0.031
Mof_C 	C 	0.5532	0.0063	0.8439	-0.028
Mof_C 	C 	0.5738	0.9574	0.8198	-0.016
Mof_C 	C 	0.5987	0.9043	0.783	0.064
Mof_C 	C 	0.6566	0.9088	0.8005	-0.101
Mof_H 	H 	0.6814	0.9437	0.8426	0.072
Mof_C 	C 	0.6782	0.8626	0.7569	0.029
Mof_H 	H 	0.7171	0.8676	0.7668	0.034
Mof_C 	C 	0.6423	0.8085	0.6981	-0.104
Mof_C 	C 	0.586	0.8017	0.6834	0.031
Mof_H 	H 	0.5623	0.7645	0.6441	0.048
Mof_C 	C 	0.5625	0.8486	0.7254	-0.099
Mof_H 	H 	0.5236	0.8432	0.7156	0.073
Mof_C 	C 	0.6666	0.7597	0.6508	0.328
Mof_C 	C 	0.341	0.2114	0.6537	0.381
Mof_C 	C 	0.3916	0.2211	0.6332	-0.119
Mof_C 	C 	0.3808	0.2318	0.5451	0.043
Mof_H 	H 	0.342	0.2318	0.4993	0.025
Mof_C 	C 	0.4258	0.2423	0.5228	-0.118
Mof_H 	H 	0.4178	0.2496	0.4623	0.07
Mof_C 	C 	0.484	0.2422	0.5916	0.069
Mof_C 	C 	0.4943	0.2294	0.6803	-0.117
Mof_H 	H 	0.5329	0.2278	0.7267	0.075
Mof_C 	C 	0.4488	0.2193	0.7003	0.049
Mof_H 	H 	0.4563	0.211	0.7605	0.032
Mof_C 	C 	0.5302	0.2511	0.5674	-0.031
Mof_C 	C 	0.5663	0.2556	0.5406	-0.032
Mof_C 	C 	0.6103	0.2538	0.5103	0.068
Mof_C 	C 	0.6107	0.3019	0.4458	-0.116
Mof_H 	H 	0.5818	0.3389	0.4216	0.072
Mof_C 	C 	0.6531	0.2963	0.416	0.039
Mof_H 	H 	0.6521	0.3282	0.3704	0.03
Mof_C 	C 	0.6971	0.2433	0.4541	-0.111
Mof_C 	C 	0.6974	0.197	0.5192	0.04
Mof_H 	H 	0.7272	0.1613	0.5449	0.029
Mof_C 	C 	0.6546	0.2014	0.5488	-0.117
Mof_H 	H 	0.6557	0.1693	0.5942	0.07
Mof_C 	C 	0.7455	0.2386	0.4276	0.357
Mof_C 	C 	0.2132	0.3461	0.5036	0.063
Mof_H 	H 	0.2288	0.3579	0.5653	0.007
Mof_C 	C 	0.2062	0.4026	0.4428	-0.111
Mof_H 	H 	0.2171	0.4519	0.4623	0.068
Mof_C 	C 	0.1823	0.384	0.3524	0.031
Mof_H 	H 	0.1765	0.421	0.3091	0.02
Mof_C 	C 	0.1673	0.3116	0.3257	-0.106
Mof_H 	H 	0.1513	0.2981	0.2645	0.064
Mof_C 	C 	0.1765	0.2591	0.3921	0.055
Mof_C 	C 	0.1658	0.1787	0.371	0.05
Mof_C 	C 	0.1457	0.1498	0.2854	-0.1
Mof_H 	H 	0.1354	0.1817	0.2357	0.064
Mof_C 	C 	0.1407	0.0741	0.2732	0.03
Mof_H 	H 	0.1274	0.0534	0.2152	0.022
Mof_C 	C 	0.1556	0.0293	0.3472	-0.105
Mof_H 	H 	0.1528	0.9772	0.3407	0.068
Mof_C 	C 	0.1748	0.0615	0.4319	0.059
Mof_H 	H 	0.1847	0.0307	0.4825	0.01
Mof_C 	C 	0.3349	0.1155	0.0222	-0.029
Mof_H 	H 	0.3192	0.117	0.959	0.068
Mof_C 	C 	0.3311	0.0502	0.0629	-0.06
Mof_H 	H 	0.3125	0.008	0.0283	0.041
Mof_C 	C 	0.3547	0.0486	0.154	0
Mof_H 	H 	0.353	0.0046	0.1834	0.032
Mof_C 	C 	0.3811	0.1107	0.2038	-0.086
Mof_H 	H 	0.3974	0.1105	0.2671	0.058
Mof_C 	C 	0.3828	0.1742	0.1567	0.045
Mof_C 	C 	0.4082	0.2454	0.2028	0.049
Mof_C 	C 	0.4314	0.2548	0.2961	-0.097
Mof_H 	H 	0.4331	0.2145	0.3332	0.061
Mof_C 	C 	0.4517	0.324	0.3332	0.023
Mof_H 	H 	0.4689	0.3311	0.396	0.024
Mof_C 	C 	0.4461	0.3832	0.2757	-0.108
Mof_H 	H 	0.4582	0.4313	0.2986	0.069
Mof_C 	C 	0.4224	0.3695	0.1847	0.062
Mof_H 	H 	0.4188	0.4092	0.1456	-0.002
Mof_Co	Co	0.8705	0.77877	0.01337	1.147
Mof_Co	Co	0.79643	0.73172	0.79557	1.191
Mof_Co	Co	0.71186	0.68806	0.56896	1.17
Mof_O 	O 	0.8745	0.878	0.9605	-0.404
Mof_O 	O 	0.8143	0.8453	0.8186	-0.414
Mof_O 	O 	0.7828	0.6187	0.7773	-0.416
Mof_O 	O 	0.7158	0.5937	0.636	-0.435
Mof_O 	O 	0.9563	0.7487	0.0226	-0.404
Mof_O 	O 	0.8738	0.7096	0.9143	-0.5
Mof_O 	O 	0.2215	0.2592	0.6764	-0.504
Mof_O 	O 	0.1339	0.2237	0.5827	-0.37
Mof_O 	O 	0.8471	0.733	0.7282	-0.414
Mof_O 	O 	0.7955	0.6852	0.591	-0.439
Mof_O 	O 	0.2863	0.6958	0.4762	-0.433
Mof_O 	O 	0.2437	0.7773	0.3647	-0.407
Mof_N 	N 	0.6989	0.7764	0.4785	-0.222
Mof_N 	N 	0.6794	0.6348	0.4431	-0.221
Mof_N 	N 	0.8599	0.6761	0.0691	-0.21
Mof_N 	N 	0.9044	0.8021	0.1494	-0.232
Mof_C 	C 	0.8397	0.8912	0.8808	0.371
Mof_C 	C 	0.8272	0.9725	0.8578	-0.109
Mof_C 	C 	0.8446	0.0243	0.9241	0.048
Mof_H 	H 	0.8645	0.0086	0.9846	0.04
Mof_C 	C 	0.8342	0.0988	0.906	-0.12
Mof_H 	H 	0.8471	0.1336	0.9534	0.085
Mof_C 	C 	0.8045	0.1222	0.8174	0.074
Mof_C 	C 	0.7867	0.0705	0.7482	-0.117
Mof_H 	H 	0.7674	0.0864	0.6878	0.071
Mof_C 	C 	0.7971	0.9958	0.7676	0.039
Mof_H 	H 	0.7842	0.9607	0.7206	0.03
Mof_C 	C 	0.7934	0.1999	0.7971	-0.026
Mof_C 	C 	0.7853	0.2644	0.7832	-0.03
Mof_C 	C 	0.7752	0.3419	0.7675	0.076
Mof_C 	C 	0.8048	0.3924	0.8367	-0.119
Mof_H 	H 	0.8304	0.3753	0.8948	0.082
Mof_C 	C 	0.7962	0.4689	0.8195	0.045
Mof_H 	H 	0.8164	0.5032	0.866	0.033
Mof_C 	C 	0.758	0.4941	0.7338	-0.122
Mof_C 	C 	0.7273	0.4433	0.667	0.051
Mof_H 	H 	0.7	0.4603	0.6098	0.025
Mof_C 	C 	0.7359	0.3682	0.6827	-0.123
Mof_H 	H 	0.7152	0.3343	0.636	0.079
Mof_C 	C 	0.7514	0.5756	0.7143	0.375
Mof_C 	C 	0.93	0.7099	0.953	0.375
Mof_C 	C 	0.9615	0.6605	0.92	-0.103
Mof_C 	C 	0.021	0.6692	0.9496	0.03
Mof_H 	H 	0.0406	0.7092	0.9879	0.061
Mof_C 	C 	0.0513	0.6208	0.9241	-0.101
Mof_H 	H 	0.0915	0.6278	0.9438	0.082
Mof_C 	C 	0.0228	0.5606	0.8685	0.059
Mof_C 	C 	0.9633	0.5519	0.8397	-0.094
Mof_H 	H 	0.9438	0.5114	0.8023	0.067
Mof_C 	C 	0.9321	0.6014	0.8646	0.033
Mof_H 	H 	0.8917	0.595	0.8443	0.036
Mof_C 	C 	0.0532	0.5063	0.8439	-0.021
Mof_C 	C 	0.0738	0.4574	0.8198	-0.023
Mof_C 	C 	0.0987	0.4043	0.783	0.066
Mof_C 	C 	0.1566	0.4088	0.8005	-0.103
Mof_H 	H 	0.1814	0.4437	0.8426	0.072
Mof_C 	C 	0.1782	0.3626	0.7569	0.03
Mof_H 	H 	0.2171	0.3676	0.7668	0.033
Mof_C 	C 	0.1423	0.3085	0.6981	-0.105
Mof_C 	C 	0.086	0.3017	0.6834	0.032
Mof_H 	H 	0.0623	0.2645	0.6441	0.046
Mof_C 	C 	0.0625	0.3486	0.7254	-0.101
Mof_H 	H 	0.0236	0.3432	0.7156	0.072
Mof_C 	C 	0.1666	0.2597	0.6508	0.328
Mof_C 	C 	0.841	0.7114	0.6537	0.38
Mof_C 	C 	0.8916	0.7211	0.6332	-0.117
Mof_C 	C 	0.8808	0.7318	0.5451	0.042
Mof_H 	H 	0.842	0.7318	0.4993	0.026
Mof_C 	C 	0.9258	0.7423	0.5228	-0.118
Mof_H 	H 	0.9178	0.7496	0.4623	0.071
Mof_C 	C 	0.984	0.7422	0.5916	0.073
Mof_C 	C 	0.9943	0.7294	0.6803	-0.105
Mof_H 	H 	0.0329	0.7278	0.7267	0.067
Mof_C 	C 	0.9488	0.7193	0.7003	0.044
Mof_H 	H 	0.9563	0.711	0.7605	0.035
Mof_C 	C 	0.0302	0.7511	0.5674	-0.039
Mof_C 	C 	0.0663	0.7556	0.5406	-0.03
Mof_C 	C 	0.1103	0.7538	0.5103	0.066
Mof_C 	C 	0.1107	0.8019	0.4458	-0.115
Mof_H 	H 	0.0818	0.8389	0.4216	0.07
Mof_C 	C 	0.1531	0.7963	0.416	0.038
Mof_H 	H 	0.1521	0.8282	0.3704	0.03
Mof_C 	C 	0.1971	0.7433	0.4541	-0.11
Mof_C 	C 	0.1974	0.697	0.5192	0.039
Mof_H 	H 	0.2272	0.6613	0.5449	0.029
Mof_C 	C 	0.1546	0.7014	0.5488	-0.116
Mof_H 	H 	0.1557	0.6693	0.5942	0.07
Mof_C 	C 	0.2455	0.7386	0.4276	0.357
Mof_C 	C 	0.7132	0.8461	0.5036	0.063
Mof_H 	H 	0.7288	0.8579	0.5653	0.007
Mof_C 	C 	0.7062	0.9026	0.4428	-0.111
Mof_H 	H 	0.7171	0.9519	0.4623	0.068
Mof_C 	C 	0.6823	0.884	0.3524	0.031
Mof_H 	H 	0.6765	0.921	0.3091	0.02
Mof_C 	C 	0.6673	0.8116	0.3257	-0.106
Mof_H 	H 	0.6513	0.7981	0.2645	0.064
Mof_C 	C 	0.6765	0.7591	0.3921	0.055
Mof_C 	C 	0.6658	0.6787	0.371	0.05
Mof_C 	C 	0.6457	0.6498	0.2854	-0.1
Mof_H 	H 	0.6354	0.6817	0.2357	0.064
Mof_C 	C 	0.6407	0.5741	0.2732	0.031
Mof_H 	H 	0.6274	0.5534	0.2152	0.022
Mof_C 	C 	0.6556	0.5293	0.3472	-0.106
Mof_H 	H 	0.6528	0.4772	0.3407	0.069
Mof_C 	C 	0.6748	0.5615	0.4319	0.06
Mof_H 	H 	0.6847	0.5307	0.4825	0.01
Mof_C 	C 	0.8349	0.6155	0.0222	-0.031
Mof_H 	H 	0.8192	0.617	0.959	0.07
Mof_C 	C 	0.8311	0.5502	0.0629	-0.058
Mof_H 	H 	0.8125	0.508	0.0283	0.04
Mof_C 	C 	0.8547	0.5486	0.154	-0
Mof_H 	H 	0.853	0.5046	0.1834	0.032
Mof_C 	C 	0.8811	0.6107	0.2038	-0.085
Mof_H 	H 	0.8974	0.6105	0.2671	0.058
Mof_C 	C 	0.8828	0.6742	0.1567	0.046
Mof_C 	C 	0.9082	0.7454	0.2028	0.05
Mof_C 	C 	0.9314	0.7548	0.2961	-0.097
Mof_H 	H 	0.9331	0.7145	0.3332	0.062
Mof_C 	C 	0.9517	0.824	0.3332	0.024
Mof_H 	H 	0.9689	0.8311	0.396	0.025
Mof_C 	C 	0.9461	0.8832	0.2757	-0.107
Mof_H 	H 	0.9582	0.9313	0.2986	0.07
Mof_C 	C 	0.9224	0.8695	0.1847	0.063
Mof_H 	H 	0.9188	0.9092	0.1456	-0.002
_end
