data_functionalizedCrystal
_audit_creation_method	'EQeq! by Chris Wilmer'
_symmetry_space_group_name_H-M	'P1'
_symmetry_Int_Tables_number	1
_symmetry_cell_setting	triclinic
loop_
_symmetry_equiv_pos_as_xyz
  x,y,z
_cell_length_a	14.328
_cell_length_b	14.328
_cell_length_c	10.0966
_cell_angle_alpha	90
_cell_angle_beta	90
_cell_angle_gamma	120
loop_
_atom_site_label
_atom_site_type_symbol
_atom_site_fract_x
_atom_site_fract_y
_atom_site_fract_z
_atom_site_charge
Mof_Eu	Eu	0.58407	0.14347	0.61308	2.463
Mof_S 	S 	0.33717	0.14357	0.57498	0.843
Mof_S 	S 	0.5244	0.00489	0.36328	0.701
Mof_O 	O 	0.57412	0.1226	0.3671	-0.453
Mof_O 	O 	0.41705	0.95305	0.3003	-0.442
Mof_O 	O 	0.51624	0.96889	0.5015	-0.443
Mof_O 	O 	0.58764	0.97063	0.2812	-0.404
Mof_O 	O 	0.24741	0.09469	0.4792	-0.219
Mof_O 	O 	0.4036	0.25905	0.5453	-0.561
Mof_O 	O 	0.40363	0.0923	0.5565	-0.528
Mof_O 	O 	0.29497	0.1249	0.7096	-0.24
Mof_O 	O 	0.72241	0.44457	0.7664	-0.605
Mof_Eu	Eu	0.85653	0.4406	0.61308	2.462
Mof_S 	S 	0.85643	0.1936	0.57498	0.842
Mof_S 	S 	0.99511	0.51951	0.36328	0.702
Mof_O 	O 	0.8774	0.45152	0.3671	-0.453
Mof_O 	O 	0.04695	0.464	0.3003	-0.442
Mof_O 	O 	0.03111	0.54735	0.5015	-0.443
Mof_O 	O 	0.02937	0.61701	0.2812	-0.405
Mof_O 	O 	0.90531	0.15272	0.4792	-0.217
Mof_O 	O 	0.74095	0.14455	0.5453	-0.56
Mof_O 	O 	0.9077	0.31133	0.5565	-0.528
Mof_O 	O 	0.8751	0.17007	0.7096	-0.24
Mof_O 	O 	0.55543	0.27784	0.7664	-0.605
Mof_Eu	Eu	0.5594	0.41593	0.61308	2.46
Mof_S 	S 	0.8064	0.66283	0.57498	0.842
Mof_S 	S 	0.48049	0.4756	0.36328	0.686
Mof_O 	O 	0.54848	0.42588	0.3671	-0.45
Mof_O 	O 	0.536	0.58295	0.3003	-0.436
Mof_O 	O 	0.45265	0.48376	0.5015	-0.437
Mof_O 	O 	0.38299	0.41236	0.2812	-0.399
Mof_O 	O 	0.84728	0.75259	0.4792	-0.219
Mof_O 	O 	0.85545	0.5964	0.5453	-0.561
Mof_O 	O 	0.68867	0.59637	0.5565	-0.529
Mof_O 	O 	0.82993	0.70503	0.7096	-0.24
Mof_O 	O 	0.72216	0.27759	0.7664	-0.605
Mof_Eu	Eu	0.14347	0.58407	0.11308	2.387
Mof_S 	S 	0.14357	0.33717	0.07498	0.743
Mof_S 	S 	0.00489	0.5244	0.86328	0.771
Mof_O 	O 	0.1226	0.57412	0.8671	-0.416
Mof_O 	O 	0.95305	0.41705	0.8003	-0.44
Mof_O 	O 	0.96889	0.51624	0.0015	-0.501
Mof_O 	O 	0.97063	0.58764	0.7812	-0.401
Mof_O 	O 	0.09469	0.24741	0.9792	-0.137
Mof_O 	O 	0.25905	0.4036	0.0453	-0.561
Mof_O 	O 	0.0923	0.40363	0.0565	-0.531
Mof_O 	O 	0.1249	0.29497	0.2096	-0.243
Mof_O 	O 	0.44457	0.72241	0.2664	-0.602
Mof_Eu	Eu	0.4406	0.85653	0.11308	2.387
Mof_S 	S 	0.1936	0.85643	0.07498	0.74
Mof_S 	S 	0.51951	0.99511	0.86328	0.771
Mof_O 	O 	0.45152	0.8774	0.8671	-0.416
Mof_O 	O 	0.464	0.04695	0.8003	-0.44
Mof_O 	O 	0.54735	0.03111	0.0015	-0.5
Mof_O 	O 	0.61701	0.02937	0.7812	-0.402
Mof_O 	O 	0.15272	0.90531	0.9792	-0.137
Mof_O 	O 	0.14455	0.74095	0.0453	-0.561
Mof_O 	O 	0.31133	0.9077	0.0565	-0.531
Mof_O 	O 	0.17007	0.8751	0.2096	-0.244
Mof_O 	O 	0.27784	0.55543	0.2664	-0.602
Mof_Eu	Eu	0.41593	0.5594	0.11308	2.392
Mof_S 	S 	0.66283	0.8064	0.07498	0.742
Mof_S 	S 	0.4756	0.48049	0.86328	0.782
Mof_O 	O 	0.42588	0.54848	0.8671	-0.418
Mof_O 	O 	0.58295	0.536	0.8003	-0.443
Mof_O 	O 	0.48376	0.45265	0.0015	-0.508
Mof_O 	O 	0.41236	0.38299	0.7812	-0.405
Mof_O 	O 	0.75259	0.84728	0.9792	-0.137
Mof_O 	O 	0.5964	0.85545	0.0453	-0.561
Mof_O 	O 	0.59637	0.68867	0.0565	-0.53
Mof_O 	O 	0.70503	0.82993	0.2096	-0.242
Mof_O 	O 	0.27759	0.72216	0.2664	-0.601
Mof_S 	S 	0.66667	0.33333	0.82408	0.688
Mof_O 	O 	0.66667	0.33333	0.9657	-0.197
Mof_O 	O 	0.66667	0.33333	0.5284	-0.74
Mof_S 	S 	0.33333	0.66667	0.32408	0.686
Mof_O 	O 	0.33333	0.66667	0.4657	-0.231
Mof_O 	O 	0.33333	0.66667	0.0284	-0.748
_end
