data_functionalizedCrystal
_audit_creation_method	'EQeq! by Chris Wilmer'
_symmetry_space_group_name_H-M	'P1'
_symmetry_Int_Tables_number	1
_symmetry_cell_setting	triclinic
loop_
_symmetry_equiv_pos_as_xyz
  x,y,z
_cell_length_a	10.913
_cell_length_b	23.195
_cell_length_c	10.043
_cell_angle_alpha	90
_cell_angle_beta	104.15
_cell_angle_gamma	90
loop_
_atom_site_label
_atom_site_type_symbol
_atom_site_fract_x
_atom_site_fract_y
_atom_site_fract_z
_atom_site_charge
Mof_O 	O 	0.1907	0.85193	0.21812	-0.356
Mof_O 	O 	0.27734	0.7641	0.22532	-0.221
Mof_O 	O 	0.53776	0.72176	0.90374	-0.322
Mof_O 	O 	0.65622	0.79242	0.851	-0.212
Mof_C 	C 	0.36253	0.83771	0.11661	-0.054
Mof_C 	C 	0.42619	0.79773	0.05517	-0.008
Mof_H 	H 	0.4119	0.7585	0.0637	0.069
Mof_C 	C 	0.51104	0.8161	0.98123	-0.031
Mof_C 	C 	0.53446	0.87445	0.9708	-0.039
Mof_H 	H 	0.5929	0.8866	0.9231	0.071
Mof_C 	C 	0.4708	0.9151	0.0314	0.026
Mof_C 	C 	0.38423	0.89636	0.10421	-0.047
Mof_H 	H 	0.341	0.9231	0.1445	0.057
Mof_C 	C 	0.26823	0.81743	0.19301	0.324
Mof_C 	C 	0.57273	0.77279	0.9073	0.332
Mof_C 	C 	0.4917	0.97539	0.012	-0.033
Mof_O 	O 	0.6907	0.35193	0.21812	-0.355
Mof_O 	O 	0.77734	0.2641	0.22532	-0.215
Mof_O 	O 	0.03776	0.22176	0.90374	-0.338
Mof_O 	O 	0.15622	0.29242	0.851	-0.226
Mof_C 	C 	0.86253	0.33771	0.11661	-0.073
Mof_C 	C 	0.92619	0.29773	0.05517	0.068
Mof_H 	H 	0.9119	0.2585	0.0637	0.057
Mof_C 	C 	0.01104	0.3161	0.98123	-0.09
Mof_C 	C 	0.03446	0.37445	0.9708	-0.06
Mof_H 	H 	0.0929	0.3866	0.9231	0.065
Mof_C 	C 	0.9708	0.4151	0.0314	0.035
Mof_C 	C 	0.88423	0.39636	0.10421	-0.024
Mof_H 	H 	0.841	0.4231	0.1445	0.057
Mof_C 	C 	0.76823	0.31743	0.19301	0.337
Mof_C 	C 	0.07273	0.27279	0.9073	0.342
Mof_C 	C 	0.9917	0.47539	0.012	0.047
Mof_O 	O 	0.8093	0.85193	0.28188	-0.33
Mof_O 	O 	0.72266	0.7641	0.27468	-0.213
Mof_O 	O 	0.46224	0.72176	0.59626	-0.327
Mof_O 	O 	0.34378	0.79242	0.649	-0.22
Mof_C 	C 	0.63747	0.83771	0.38339	-0.052
Mof_C 	C 	0.57381	0.79773	0.44483	0.009
Mof_H 	H 	0.5881	0.7585	0.4363	0.067
Mof_C 	C 	0.48896	0.8161	0.51877	-0.045
Mof_C 	C 	0.46554	0.87445	0.5292	-0.042
Mof_H 	H 	0.4071	0.8866	0.5769	0.066
Mof_C 	C 	0.5292	0.9151	0.4686	0.029
Mof_C 	C 	0.61577	0.89636	0.39579	-0.042
Mof_H 	H 	0.659	0.9231	0.3555	0.063
Mof_C 	C 	0.73177	0.81743	0.30699	0.325
Mof_C 	C 	0.42727	0.77279	0.5927	0.336
Mof_C 	C 	0.5083	0.97539	0.488	-0.014
Mof_O 	O 	0.3093	0.35193	0.28188	-0.354
Mof_O 	O 	0.22266	0.2641	0.27468	-0.222
Mof_O 	O 	0.96224	0.22176	0.59626	-0.289
Mof_O 	O 	0.84378	0.29242	0.649	-0.205
Mof_C 	C 	0.13747	0.33771	0.38339	-0.036
Mof_C 	C 	0.07381	0.29773	0.44483	-0.069
Mof_H 	H 	0.0881	0.2585	0.4363	0.08
Mof_C 	C 	0.98896	0.3161	0.51877	0.017
Mof_C 	C 	0.96554	0.37445	0.5292	-0.022
Mof_H 	H 	0.9071	0.3866	0.5769	0.07
Mof_C 	C 	0.0292	0.4151	0.4686	0.021
Mof_C 	C 	0.11577	0.39636	0.39579	-0.065
Mof_H 	H 	0.159	0.4231	0.3555	0.061
Mof_C 	C 	0.23177	0.31743	0.30699	0.318
Mof_C 	C 	0.92727	0.27279	0.5927	0.319
Mof_C 	C 	0.0083	0.47539	0.488	-0.103
Mof_O 	O 	0.8093	0.14807	0.78188	-0.329
Mof_O 	O 	0.72266	0.2359	0.77468	-0.211
Mof_O 	O 	0.46224	0.27824	0.09626	-0.33
Mof_O 	O 	0.34378	0.20758	0.149	-0.224
Mof_C 	C 	0.63747	0.16229	0.88339	-0.056
Mof_C 	C 	0.57381	0.20227	0.94483	0.024
Mof_H 	H 	0.5881	0.2415	0.9363	0.065
Mof_C 	C 	0.48896	0.1839	0.01877	-0.057
Mof_C 	C 	0.46554	0.12555	0.0292	-0.048
Mof_H 	H 	0.4071	0.1134	0.0769	0.065
Mof_C 	C 	0.5292	0.0849	0.9686	0.033
Mof_C 	C 	0.61577	0.10364	0.89579	-0.039
Mof_H 	H 	0.659	0.0769	0.8555	0.063
Mof_C 	C 	0.73177	0.18257	0.80699	0.327
Mof_C 	C 	0.42727	0.22721	0.0927	0.339
Mof_C 	C 	0.5083	0.02461	0.988	-0.001
Mof_O 	O 	0.3093	0.64807	0.78188	-0.353
Mof_O 	O 	0.22266	0.7359	0.77468	-0.22
Mof_O 	O 	0.96224	0.77824	0.09626	-0.293
Mof_O 	O 	0.84378	0.70758	0.149	-0.208
Mof_C 	C 	0.13747	0.66229	0.88339	-0.041
Mof_C 	C 	0.07381	0.70227	0.94483	-0.052
Mof_H 	H 	0.0881	0.7415	0.9363	0.078
Mof_C 	C 	0.98896	0.6839	0.01877	0.003
Mof_C 	C 	0.96554	0.62555	0.0292	-0.028
Mof_H 	H 	0.9071	0.6134	0.0769	0.069
Mof_C 	C 	0.0292	0.5849	0.9686	0.023
Mof_C 	C 	0.11577	0.60364	0.89579	-0.06
Mof_H 	H 	0.159	0.5769	0.8555	0.06
Mof_C 	C 	0.23177	0.68257	0.80699	0.321
Mof_C 	C 	0.92727	0.72721	0.0927	0.322
Mof_C 	C 	0.0083	0.52461	0.988	-0.083
Mof_O 	O 	0.1907	0.14807	0.71812	-0.354
Mof_O 	O 	0.27734	0.2359	0.72532	-0.219
Mof_O 	O 	0.53776	0.27824	0.40374	-0.325
Mof_O 	O 	0.65622	0.20758	0.351	-0.216
Mof_C 	C 	0.36253	0.16229	0.61661	-0.057
Mof_C 	C 	0.42619	0.20227	0.55517	0.007
Mof_H 	H 	0.4119	0.2415	0.5637	0.067
Mof_C 	C 	0.51104	0.1839	0.48123	-0.043
Mof_C 	C 	0.53446	0.12555	0.4708	-0.045
Mof_H 	H 	0.5929	0.1134	0.4231	0.07
Mof_C 	C 	0.4708	0.0849	0.5314	0.03
Mof_C 	C 	0.38423	0.10364	0.60421	-0.044
Mof_H 	H 	0.341	0.0769	0.6445	0.057
Mof_C 	C 	0.26823	0.18257	0.69301	0.326
Mof_C 	C 	0.57273	0.22721	0.4073	0.334
Mof_C 	C 	0.4917	0.02461	0.512	-0.02
Mof_O 	O 	0.6907	0.64807	0.71812	-0.354
Mof_O 	O 	0.77734	0.7359	0.72532	-0.213
Mof_O 	O 	0.03776	0.77824	0.40374	-0.341
Mof_O 	O 	0.15622	0.70758	0.351	-0.229
Mof_C 	C 	0.86253	0.66229	0.61661	-0.077
Mof_C 	C 	0.92619	0.70227	0.55517	0.085
Mof_H 	H 	0.9119	0.7415	0.5637	0.055
Mof_C 	C 	0.01104	0.6839	0.48123	-0.103
Mof_C 	C 	0.03446	0.62555	0.4708	-0.066
Mof_H 	H 	0.0929	0.6134	0.4231	0.063
Mof_C 	C 	0.9708	0.5849	0.5314	0.037
Mof_C 	C 	0.88423	0.60364	0.60421	-0.019
Mof_H 	H 	0.841	0.5769	0.6445	0.056
Mof_C 	C 	0.76823	0.68257	0.69301	0.339
Mof_C 	C 	0.07273	0.72721	0.4073	0.345
Mof_C 	C 	0.9917	0.52461	0.512	0.067
Mof_Mn	Mn	-1.153e-17	0.84591	0.25	0.798
Mof_Mn	Mn	0.5	0.34591	0.25	0.855
Mof_Mn	Mn	-4.612e-17	0.15409	0.75	0.802
Mof_Mn	Mn	0.5	0.65409	0.75	0.859
_end
