data_functionalizedCrystal
_audit_creation_method	'EQeq! by Chris Wilmer'
_symmetry_space_group_name_H-M	'P1'
_symmetry_Int_Tables_number	1
_symmetry_cell_setting	triclinic
loop_
_symmetry_equiv_pos_as_xyz
  x,y,z
_cell_length_a	14.5
_cell_length_b	18.577
_cell_length_c	15.394
_cell_angle_alpha	90
_cell_angle_beta	103.97
_cell_angle_gamma	90
loop_
_atom_site_label
_atom_site_type_symbol
_atom_site_fract_x
_atom_site_fract_y
_atom_site_fract_z
_atom_site_charge
Mof_Cd	Cd	0.61146	0.20923	0.11651	0.358
Mof_Cd	Cd	0.41301	0.306	0.32715	0.388
Mof_O 	O 	0.4395	0.2704	0.1917	-0.331
Mof_O 	O 	0.4805	0.2784	0.0635	-0.325
Mof_O 	O 	0.0282	0.2649	0.0342	-0.246
Mof_O 	O 	0.0446	0.2617	0.8944	-0.288
Mof_O 	O 	0.2522	0.5637	0.0034	-0.244
Mof_O 	O 	0.2619	0.5106	0.8794	-0.284
Mof_N 	N 	0.7116	0.3082	0.1048	-0.164
Mof_N 	N 	0.0149	0.6055	0.1052	-0.136
Mof_N 	N 	0.323	0.2028	0.3285	-0.153
Mof_N 	N 	0.0146	0.9024	0.3244	-0.143
Mof_C 	C 	0.4261	0.2909	0.1129	0.428
Mof_C 	C 	0.3312	0.329	0.0686	-0.442
Mof_C 	C 	0.2482	0.2902	0.0475	0.463
Mof_C 	C 	0.2409	0.2106	0.0726	-0.981
Mof_H 	H 	0.1765	0.1945	0.0516	0.344
Mof_H 	H 	0.2602	0.2054	0.1365	0.333
Mof_H 	H 	0.2817	0.1821	0.0455	0.332
Mof_C 	C 	0.1613	0.3247	0.0016	-0.308
Mof_C 	C 	0.067	0.2817	0.9758	0.293
Mof_C 	C 	0.161	0.3968	0.9766	0.428
Mof_C 	C 	0.0703	0.4344	0.9299	-0.964
Mof_H 	H 	0.084	0.4835	0.9182	0.322
Mof_H 	H 	0.0262	0.4332	0.9675	0.311
Mof_H 	H 	0.043	0.4104	0.8745	0.326
Mof_C 	C 	0.2476	0.434	0.9968	-0.443
Mof_C 	C 	0.2548	0.5081	0.9578	0.348
Mof_C 	C 	0.3332	0.4009	0.0447	0.529
Mof_C 	C 	0.4268	0.444	0.0687	-1.046
Mof_H 	H 	0.4152	0.4925	0.0473	0.362
Mof_H 	H 	0.4726	0.4219	0.0414	0.358
Mof_H 	H 	0.451	0.4446	0.1325	0.348
Mof_C 	C 	0.6781	0.3761	0.095	0.103
Mof_H 	H 	0.6138	0.3839	0.0907	-0.012
Mof_C 	C 	0.7361	0.4345	0.0911	-0.172
Mof_H 	H 	0.7105	0.4807	0.0848	0.091
Mof_C 	C 	0.83	0.4249	0.0964	0.111
Mof_C 	C 	0.8616	0.3553	0.1027	-0.181
Mof_H 	H 	0.9252	0.3464	0.1046	0.11
Mof_C 	C 	0.8039	0.2996	0.1062	0.112
Mof_H 	H 	0.8287	0.2532	0.1097	0.001
Mof_C 	C 	0.8938	0.4869	0.0974	-0.01
Mof_C 	C 	0.872	0.5451	0.04	-0.017
Mof_H 	H 	0.8145	0.5459	0.9971	-0.007
Mof_C 	C 	0.9347	0.6025	0.0454	0.007
Mof_H 	H 	0.9185	0.6402	0.0048	0.032
Mof_C 	C 	0.0414	0.5492	0.1602	0.059
Mof_H 	H 	0.0997	0.5507	0.2019	0.013
Mof_C 	C 	0.9842	0.4889	0.1567	-0.119
Mof_H 	H 	0.0057	0.4498	0.1936	0.075
Mof_C 	C 	0.3379	0.1393	0.2984	0.078
Mof_H 	H 	0.3922	0.1357	0.2765	0.001
Mof_C 	C 	0.2875	0.0788	0.2941	-0.147
Mof_H 	H 	0.3063	0.0362	0.2716	0.075
Mof_C 	C 	0.201	0.0832	0.3269	0.048
Mof_C 	C 	0.1833	0.1494	0.3614	-0.119
Mof_H 	H 	0.13	0.154	0.3846	0.073
Mof_C 	C 	0.2397	0.2075	0.3628	0.051
Mof_H 	H 	0.2244	0.2508	0.3862	0.015
Mof_C 	C 	0.1397	0.0206	0.3242	0.036
Mof_C 	C 	0.1696	0.9504	0.3194	-0.12
Mof_H 	H 	0.2318	0.9411	0.3164	0.066
Mof_C 	C 	0.1073	0.8936	0.319	0.047
Mof_H 	H 	0.1294	0.847	0.3149	0.023
Mof_C 	C 	0.9868	0.9692	0.3277	0.03
Mof_H 	H 	0.9239	0.9774	0.3291	0.025
Mof_C 	C 	0.0452	0.0288	0.3293	-0.111
Mof_H 	H 	0.0212	0.0747	0.3339	0.068
Mof_Cd	Cd	0.11146	0.70923	0.11651	0.363
Mof_Cd	Cd	0.91301	0.806	0.32715	0.384
Mof_O 	O 	0.9395	0.7704	0.1917	-0.333
Mof_O 	O 	0.9805	0.7784	0.0635	-0.328
Mof_O 	O 	0.5282	0.7649	0.0342	-0.25
Mof_O 	O 	0.5446	0.7617	0.8944	-0.291
Mof_O 	O 	0.7522	0.0637	0.0034	-0.245
Mof_O 	O 	0.7619	0.0106	0.8794	-0.285
Mof_N 	N 	0.2116	0.8082	0.1048	-0.165
Mof_N 	N 	0.5149	0.1055	0.1052	-0.136
Mof_N 	N 	0.823	0.7028	0.3285	-0.153
Mof_N 	N 	0.5146	0.4024	0.3244	-0.151
Mof_C 	C 	0.9261	0.7909	0.1129	0.428
Mof_C 	C 	0.8312	0.829	0.0686	-0.44
Mof_C 	C 	0.7482	0.7902	0.0475	0.461
Mof_C 	C 	0.7409	0.7106	0.0726	-0.979
Mof_H 	H 	0.6765	0.6945	0.0516	0.343
Mof_H 	H 	0.7602	0.7054	0.1365	0.333
Mof_H 	H 	0.7817	0.6821	0.0455	0.331
Mof_C 	C 	0.6613	0.8247	0.0016	-0.309
Mof_C 	C 	0.567	0.7817	0.9758	0.296
Mof_C 	C 	0.661	0.8968	0.9766	0.427
Mof_C 	C 	0.5703	0.9344	0.9299	-0.96
Mof_H 	H 	0.584	0.9835	0.9182	0.32
Mof_H 	H 	0.5262	0.9332	0.9675	0.309
Mof_H 	H 	0.543	0.9104	0.8745	0.323
Mof_C 	C 	0.7476	0.934	0.9968	-0.438
Mof_C 	C 	0.7548	0.0081	0.9578	0.347
Mof_C 	C 	0.8332	0.9009	0.0447	0.523
Mof_C 	C 	0.9268	0.944	0.0687	-1.036
Mof_H 	H 	0.9152	0.9925	0.0473	0.357
Mof_H 	H 	0.9726	0.9219	0.0414	0.353
Mof_H 	H 	0.951	0.9446	0.1325	0.343
Mof_C 	C 	0.1781	0.8761	0.095	0.105
Mof_H 	H 	0.1138	0.8839	0.0907	-0.011
Mof_C 	C 	0.2361	0.9345	0.0911	-0.177
Mof_H 	H 	0.2105	0.9807	0.0848	0.093
Mof_C 	C 	0.33	0.9249	0.0964	0.12
Mof_C 	C 	0.3616	0.8553	0.1027	-0.186
Mof_H 	H 	0.4252	0.8464	0.1046	0.114
Mof_C 	C 	0.3039	0.7996	0.1062	0.115
Mof_H 	H 	0.3287	0.7532	0.1097	0
Mof_C 	C 	0.3938	0.9869	0.0974	-0.023
Mof_C 	C 	0.372	0.0451	0.04	-0.008
Mof_H 	H 	0.3145	0.0459	0.9971	-0.01
Mof_C 	C 	0.4347	0.1025	0.0454	0.007
Mof_H 	H 	0.4185	0.1402	0.0048	0.033
Mof_C 	C 	0.5414	0.0492	0.1602	0.039
Mof_H 	H 	0.5997	0.0507	0.2019	0.02
Mof_C 	C 	0.4842	0.9889	0.1567	-0.089
Mof_H 	H 	0.5057	0.9498	0.1936	0.06
Mof_C 	C 	0.8379	0.6393	0.2984	0.077
Mof_H 	H 	0.8922	0.6357	0.2765	0
Mof_C 	C 	0.7875	0.5788	0.2941	-0.145
Mof_H 	H 	0.8063	0.5362	0.2716	0.074
Mof_C 	C 	0.701	0.5832	0.3269	0.044
Mof_C 	C 	0.6833	0.6494	0.3614	-0.117
Mof_H 	H 	0.63	0.654	0.3846	0.071
Mof_C 	C 	0.7397	0.7075	0.3628	0.049
Mof_H 	H 	0.7244	0.7508	0.3862	0.015
Mof_C 	C 	0.6397	0.5206	0.3242	0.044
Mof_C 	C 	0.6696	0.4504	0.3194	-0.127
Mof_H 	H 	0.7318	0.4411	0.3164	0.068
Mof_C 	C 	0.6073	0.3936	0.319	0.05
Mof_H 	H 	0.6294	0.347	0.3149	0.021
Mof_C 	C 	0.4868	0.4692	0.3277	0.049
Mof_H 	H 	0.4239	0.4774	0.3291	0.02
Mof_C 	C 	0.5452	0.5288	0.3293	-0.128
Mof_H 	H 	0.5212	0.5747	0.3339	0.072
Mof_Cd	Cd	0.61146	0.79077	0.61651	0.35
Mof_Cd	Cd	0.41301	0.694	0.82715	0.375
Mof_O 	O 	0.4395	0.7296	0.6917	-0.332
Mof_O 	O 	0.4805	0.7216	0.5635	-0.332
Mof_O 	O 	0.0282	0.7351	0.5342	-0.308
Mof_O 	O 	0.0446	0.7383	0.3944	-0.308
Mof_O 	O 	0.2522	0.4363	0.5034	-0.292
Mof_O 	O 	0.2619	0.4894	0.3794	-0.29
Mof_N 	N 	0.7116	0.6918	0.6048	-0.162
Mof_N 	N 	0.0149	0.3945	0.6052	-0.154
Mof_N 	N 	0.323	0.7972	0.8285	-0.155
Mof_N 	N 	0.0146	0.0976	0.8244	-0.147
Mof_C 	C 	0.4261	0.7091	0.6129	0.431
Mof_C 	C 	0.3312	0.671	0.5686	-0.449
Mof_C 	C 	0.2482	0.7098	0.5475	0.49
Mof_C 	C 	0.2409	0.7894	0.5726	-1
Mof_H 	H 	0.1765	0.8055	0.5516	0.341
Mof_H 	H 	0.2602	0.7946	0.6365	0.339
Mof_H 	H 	0.2817	0.8179	0.5455	0.33
Mof_C 	C 	0.1613	0.6753	0.5016	-0.423
Mof_C 	C 	0.067	0.7183	0.4758	0.408
Mof_C 	C 	0.161	0.6032	0.4766	0.522
Mof_C 	C 	0.0703	0.5656	0.4299	-1.077
Mof_H 	H 	0.084	0.5165	0.4182	0.361
Mof_H 	H 	0.0262	0.5668	0.4675	0.358
Mof_H 	H 	0.043	0.5896	0.3745	0.361
Mof_C 	C 	0.2476	0.566	0.4968	-0.434
Mof_C 	C 	0.2548	0.4919	0.4578	0.403
Mof_C 	C 	0.3332	0.5991	0.5447	0.492
Mof_C 	C 	0.4268	0.556	0.5687	-1.002
Mof_H 	H 	0.4152	0.5075	0.5473	0.338
Mof_H 	H 	0.4726	0.5781	0.5414	0.337
Mof_H 	H 	0.451	0.5554	0.6325	0.334
Mof_C 	C 	0.6781	0.6239	0.595	0.082
Mof_H 	H 	0.6138	0.6161	0.5907	-0.008
Mof_C 	C 	0.7361	0.5655	0.5911	-0.15
Mof_H 	H 	0.7105	0.5193	0.5848	0.075
Mof_C 	C 	0.83	0.5751	0.5964	0.067
Mof_C 	C 	0.8616	0.6447	0.6027	-0.158
Mof_H 	H 	0.9252	0.6536	0.6046	0.096
Mof_C 	C 	0.8039	0.7004	0.6062	0.09
Mof_H 	H 	0.8287	0.7468	0.6097	0.003
Mof_C 	C 	0.8938	0.5131	0.5974	0.044
Mof_C 	C 	0.872	0.4549	0.54	-0.146
Mof_H 	H 	0.8145	0.4541	0.4971	0.07
Mof_C 	C 	0.9347	0.3975	0.5454	0.065
Mof_H 	H 	0.9185	0.3598	0.5048	0
Mof_C 	C 	0.0414	0.4508	0.6602	0.076
Mof_H 	H 	0.0997	0.4493	0.7019	0.005
Mof_C 	C 	0.9842	0.5111	0.6567	-0.156
Mof_H 	H 	0.0057	0.5502	0.6936	0.084
Mof_C 	C 	0.3379	0.8607	0.7984	0.074
Mof_H 	H 	0.3922	0.8643	0.7765	0.003
Mof_C 	C 	0.2875	0.9212	0.7941	-0.146
Mof_H 	H 	0.3063	0.9638	0.7716	0.074
Mof_C 	C 	0.201	0.9168	0.8269	0.043
Mof_C 	C 	0.1833	0.8506	0.8614	-0.12
Mof_H 	H 	0.13	0.846	0.8846	0.063
Mof_C 	C 	0.2397	0.7925	0.8628	0.044
Mof_H 	H 	0.2244	0.7492	0.8862	0.006
Mof_C 	C 	0.1397	0.9794	0.8242	0.036
Mof_C 	C 	0.1696	0.0496	0.8194	-0.125
Mof_H 	H 	0.2318	0.0589	0.8164	0.064
Mof_C 	C 	0.1073	0.1064	0.819	0.044
Mof_H 	H 	0.1294	0.153	0.8149	0.019
Mof_C 	C 	0.9868	0.0308	0.8277	0.026
Mof_H 	H 	0.9239	0.0226	0.8291	0.021
Mof_C 	C 	0.0452	0.9712	0.8293	-0.115
Mof_H 	H 	0.0212	0.9253	0.8339	0.063
Mof_Cd	Cd	0.11146	0.29077	0.61651	0.353
Mof_Cd	Cd	0.91301	0.194	0.82715	0.372
Mof_O 	O 	0.9395	0.2296	0.6917	-0.334
Mof_O 	O 	0.9805	0.2216	0.5635	-0.335
Mof_O 	O 	0.5282	0.2351	0.5342	-0.31
Mof_O 	O 	0.5446	0.2383	0.3944	-0.31
Mof_O 	O 	0.7522	0.9363	0.5034	-0.293
Mof_O 	O 	0.7619	0.9894	0.3794	-0.29
Mof_N 	N 	0.2116	0.1918	0.6048	-0.162
Mof_N 	N 	0.5149	0.8945	0.6052	-0.154
Mof_N 	N 	0.823	0.2972	0.8285	-0.155
Mof_N 	N 	0.5146	0.5976	0.8244	-0.153
Mof_C 	C 	0.9261	0.2091	0.6129	0.431
Mof_C 	C 	0.8312	0.171	0.5686	-0.449
Mof_C 	C 	0.7482	0.2098	0.5475	0.489
Mof_C 	C 	0.7409	0.2894	0.5726	-0.999
Mof_H 	H 	0.6765	0.3055	0.5516	0.34
Mof_H 	H 	0.7602	0.2946	0.6365	0.338
Mof_H 	H 	0.7817	0.3179	0.5455	0.33
Mof_C 	C 	0.6613	0.1753	0.5016	-0.422
Mof_C 	C 	0.567	0.2183	0.4758	0.408
Mof_C 	C 	0.661	0.1032	0.4766	0.52
Mof_C 	C 	0.5703	0.0656	0.4299	-1.07
Mof_H 	H 	0.584	0.0165	0.4182	0.358
Mof_H 	H 	0.5262	0.0668	0.4675	0.354
Mof_H 	H 	0.543	0.0896	0.3745	0.358
Mof_C 	C 	0.7476	0.066	0.4968	-0.433
Mof_C 	C 	0.7548	0.9919	0.4578	0.403
Mof_C 	C 	0.8332	0.0991	0.5447	0.489
Mof_C 	C 	0.9268	0.056	0.5687	-0.996
Mof_H 	H 	0.9152	0.0075	0.5473	0.335
Mof_H 	H 	0.9726	0.0781	0.5414	0.333
Mof_H 	H 	0.951	0.0554	0.6325	0.331
Mof_C 	C 	0.1781	0.1239	0.595	0.084
Mof_H 	H 	0.1138	0.1161	0.5907	-0.007
Mof_C 	C 	0.2361	0.0655	0.5911	-0.154
Mof_H 	H 	0.2105	0.0193	0.5848	0.077
Mof_C 	C 	0.33	0.0751	0.5964	0.074
Mof_C 	C 	0.3616	0.1447	0.6027	-0.163
Mof_H 	H 	0.4252	0.1536	0.6046	0.099
Mof_C 	C 	0.3039	0.2004	0.6062	0.093
Mof_H 	H 	0.3287	0.2468	0.6097	0.002
Mof_C 	C 	0.3938	0.0131	0.5974	0.034
Mof_C 	C 	0.372	0.9549	0.54	-0.139
Mof_H 	H 	0.3145	0.9541	0.4971	0.069
Mof_C 	C 	0.4347	0.8975	0.5454	0.067
Mof_H 	H 	0.4185	0.8598	0.5048	0.001
Mof_C 	C 	0.5414	0.9508	0.6602	0.06
Mof_H 	H 	0.5997	0.9493	0.7019	0.011
Mof_C 	C 	0.4842	0.0111	0.6567	-0.131
Mof_H 	H 	0.5057	0.0502	0.6936	0.071
Mof_C 	C 	0.8379	0.3607	0.7984	0.073
Mof_H 	H 	0.8922	0.3643	0.7765	0.002
Mof_C 	C 	0.7875	0.4212	0.7941	-0.145
Mof_H 	H 	0.8063	0.4638	0.7716	0.072
Mof_C 	C 	0.701	0.4168	0.8269	0.039
Mof_C 	C 	0.6833	0.3506	0.8614	-0.118
Mof_H 	H 	0.63	0.346	0.8846	0.061
Mof_C 	C 	0.7397	0.2925	0.8628	0.043
Mof_H 	H 	0.7244	0.2492	0.8862	0.006
Mof_C 	C 	0.6397	0.4794	0.8242	0.041
Mof_C 	C 	0.6696	0.5496	0.8194	-0.128
Mof_H 	H 	0.7318	0.5589	0.8164	0.065
Mof_C 	C 	0.6073	0.6064	0.819	0.046
Mof_H 	H 	0.6294	0.653	0.8149	0.017
Mof_C 	C 	0.4868	0.5308	0.8277	0.044
Mof_H 	H 	0.4239	0.5226	0.8291	0.015
Mof_C 	C 	0.5452	0.4712	0.8293	-0.131
Mof_H 	H 	0.5212	0.4253	0.8339	0.066
_end
