data_functionalizedCrystal
_audit_creation_method	'EQeq! by Chris Wilmer'
_symmetry_space_group_name_H-M	'P1'
_symmetry_Int_Tables_number	1
_symmetry_cell_setting	triclinic
loop_
_symmetry_equiv_pos_as_xyz
  x,y,z
_cell_length_a	10.887
_cell_length_b	10.923
_cell_length_c	14.068
_cell_angle_alpha	89.214
_cell_angle_beta	87.59
_cell_angle_gamma	79.816
loop_
_atom_site_label
_atom_site_type_symbol
_atom_site_fract_x
_atom_site_fract_y
_atom_site_fract_z
_atom_site_charge
Mof_Zn	Zn	0.2178	0.33787	0.2998	1.221
Mof_Zn	Zn	0.22961	0.33953	0.0901	1.217
Mof_O 	O 	0.401	0.3264	0.266	-0.473
Mof_O 	O 	0.4137	0.3272	0.1088	-0.465
Mof_O 	O 	0.0352	0.3474	0.274	-0.466
Mof_O 	O 	0.0434	0.3538	0.1169	-0.465
Mof_O 	O 	0.199	0.5229	0.274	-0.465
Mof_O 	O 	0.2134	0.5259	0.1177	-0.461
Mof_O 	O 	0.2367	0.1529	0.281	-0.452
Mof_O 	O 	0.2444	0.1547	0.1236	-0.46
Mof_N 	N 	0.2213	0.3402	0.4434	-0.251
Mof_N 	N 	0.2314	0.3332	0.9455	-0.251
Mof_C 	C 	0.4596	0.3284	0.1883	0.399
Mof_C 	C 	0.5974	0.3327	0.1903	-0.08
Mof_C 	C 	0.6625	0.3604	0.1082	-0.011
Mof_C 	C 	0.6595	0.3131	0.2753	-0.011
Mof_C 	C 	0.7854	0.3196	0.2773	-0.011
Mof_C 	C 	0.7885	0.3657	0.1105	-0.012
Mof_C 	C 	0.8504	0.3443	0.1942	-0.08
Mof_C 	C 	0.9874	0.349	0.1959	0.398
Mof_C 	C 	0.2115	0.576	0.1974	0.399
Mof_C 	C 	0.2221	0.7119	0.199	-0.081
Mof_C 	C 	0.2768	0.7601	0.2811	0.159
Mof_C 	C 	0.229	0.7682	0.2741	-0.136
Mof_C 	C 	0.245	0.7733	0.1179	-0.02
Mof_C 	C 	0.1773	0.7905	0.1257	0.045
Mof_C 	C 	0.248	0.905	0.1195	0
Mof_C 	C 	0.1848	0.914	0.1282	0.038
Mof_C 	C 	0.286	0.883	0.2768	0.229
Mof_C 	C 	0.231	0.9001	0.2805	-0.188
Mof_C 	C 	0.2379	0.9641	0.202	-0.092
Mof_C 	C 	0.328	0.675	0.3573	-0.031
Mof_C 	C 	0.338	0.928	0.365	-0.027
Mof_C 	C 	0.3071	0.2588	0.4887	0.005
Mof_C 	C 	0.1464	0.4222	0.5945	-0.006
Mof_C 	C 	0.1262	0.312	0.5983	-0.006
Mof_C 	C 	0.15	0.4243	0.4957	0.028
Mof_C 	C 	0.3151	0.2542	0.5854	0.005
Mof_C 	C 	0.1279	0.312	0.4982	0.039
Mof_C 	C 	0.319	0.354	0.5891	-0.026
Mof_C 	C 	0.3111	0.358	0.4873	0.065
Mof_C 	C 	0.2278	0.337	0.6417	-0.018
Mof_C 	C 	0.2305	0.3341	0.7467	0.098
Mof_C 	C 	0.1202	0.3478	0.8018	-0.144
Mof_C 	C 	0.343	0.3181	0.7934	-0.14
Mof_C 	C 	0.1248	0.3475	0.8994	0.088
Mof_C 	C 	0.3382	0.319	0.892	0.083
Mof_C 	C 	0.2402	0.1012	0.2022	0.404
Mof_H 	H 	0.6154	0.2953	0.332	0.053
Mof_H 	H 	0.6205	0.3759	0.0502	0.054
Mof_H 	H 	0.8326	0.3843	0.054	0.056
Mof_H 	H 	0.8272	0.3071	0.3356	0.054
Mof_H 	H 	0.0421	0.3574	0.7724	0.096
Mof_H 	H 	0.4207	0.307	0.7585	0.084
Mof_H 	H 	0.0483	0.3579	0.9359	0.006
Mof_H 	H 	0.4147	0.3089	0.9236	0.005
Mof_Zn	Zn	0.7822	0.66213	0.7002	1.222
Mof_Zn	Zn	0.77039	0.66047	0.9099	1.218
Mof_O 	O 	0.599	0.6736	0.734	-0.473
Mof_O 	O 	0.5863	0.6728	0.8912	-0.465
Mof_O 	O 	0.9648	0.6526	0.726	-0.466
Mof_O 	O 	0.9566	0.6462	0.8831	-0.465
Mof_O 	O 	0.801	0.4771	0.726	-0.465
Mof_O 	O 	0.7866	0.4741	0.8823	-0.461
Mof_O 	O 	0.7633	0.8471	0.719	-0.452
Mof_O 	O 	0.7556	0.8453	0.8764	-0.46
Mof_N 	N 	0.7787	0.6598	0.5566	-0.251
Mof_N 	N 	0.7686	0.6668	0.0545	-0.251
Mof_C 	C 	0.5404	0.6716	0.8117	0.399
Mof_C 	C 	0.4026	0.6673	0.8097	-0.08
Mof_C 	C 	0.3375	0.6396	0.8918	-0.011
Mof_C 	C 	0.3405	0.6869	0.7247	-0.011
Mof_C 	C 	0.2146	0.6804	0.7227	-0.011
Mof_C 	C 	0.2115	0.6343	0.8895	-0.012
Mof_C 	C 	0.1496	0.6557	0.8058	-0.08
Mof_C 	C 	0.0126	0.651	0.8041	0.398
Mof_C 	C 	0.7885	0.424	0.8026	0.399
Mof_C 	C 	0.7779	0.2881	0.801	-0.081
Mof_C 	C 	0.7232	0.2399	0.7189	0.159
Mof_C 	C 	0.771	0.2318	0.7259	-0.136
Mof_C 	C 	0.755	0.2267	0.8821	-0.02
Mof_C 	C 	0.8227	0.2095	0.8743	0.045
Mof_C 	C 	0.752	0.095	0.8805	0
Mof_C 	C 	0.8152	0.086	0.8718	0.038
Mof_C 	C 	0.714	0.117	0.7232	0.229
Mof_C 	C 	0.769	0.0999	0.7195	-0.188
Mof_C 	C 	0.7621	0.0359	0.798	-0.092
Mof_C 	C 	0.672	0.325	0.6427	-0.031
Mof_C 	C 	0.662	0.072	0.635	-0.027
Mof_C 	C 	0.6929	0.7412	0.5113	0.005
Mof_C 	C 	0.8536	0.5778	0.4055	-0.006
Mof_C 	C 	0.8738	0.688	0.4017	-0.006
Mof_C 	C 	0.85	0.5757	0.5043	0.028
Mof_C 	C 	0.6849	0.7458	0.4146	0.005
Mof_C 	C 	0.8721	0.688	0.5018	0.039
Mof_C 	C 	0.681	0.646	0.4109	-0.026
Mof_C 	C 	0.6889	0.642	0.5127	0.065
Mof_C 	C 	0.7722	0.663	0.3583	-0.018
Mof_C 	C 	0.7695	0.6659	0.2533	0.098
Mof_C 	C 	0.8798	0.6522	0.1982	-0.144
Mof_C 	C 	0.657	0.6819	0.2066	-0.14
Mof_C 	C 	0.8752	0.6525	0.1006	0.088
Mof_C 	C 	0.6618	0.681	0.108	0.083
Mof_C 	C 	0.7598	0.8988	0.7978	0.404
Mof_H 	H 	0.3846	0.7047	0.668	0.053
Mof_H 	H 	0.3795	0.6241	0.9498	0.054
Mof_H 	H 	0.1674	0.6157	0.946	0.056
Mof_H 	H 	0.1728	0.6929	0.6644	0.054
Mof_H 	H 	0.9579	0.6426	0.2276	0.096
Mof_H 	H 	0.5793	0.693	0.2415	0.084
Mof_H 	H 	0.9517	0.6421	0.0641	0.006
Mof_H 	H 	0.5853	0.6911	0.0764	0.005
_end
