data_functionalizedCrystal
_audit_creation_method	'EQeq! by Chris Wilmer'
_symmetry_space_group_name_H-M	'P1'
_symmetry_Int_Tables_number	1
_symmetry_cell_setting	triclinic
loop_
_symmetry_equiv_pos_as_xyz
  x,y,z
_cell_length_a	16.254
_cell_length_b	13.508
_cell_length_c	7.683
_cell_angle_alpha	90
_cell_angle_beta	90.91
_cell_angle_gamma	90
loop_
_atom_site_label
_atom_site_type_symbol
_atom_site_fract_x
_atom_site_fract_y
_atom_site_fract_z
_atom_site_charge
Mof_O 	O 	0.4405	0.2663	0.4418	-0.462
Mof_O 	O 	0.6214	0.1931	0.3789	-0.291
Mof_O 	O 	0.6021	0.2073	0.6613	-0.704
Mof_O 	O 	0.93	0.1018	0.6251	-0.312
Mof_O 	O 	0.8653	0.9603	0.6566	-0.535
Mof_C 	C 	0.6421	0.1827	0.536	0.468
Mof_C 	C 	0.7208	0.1349	0.5663	-0.104
Mof_C 	C 	0.7868	0.0984	0.596	-0.027
Mof_C 	C 	0.8664	0.0489	0.6291	0.347
Mof_O 	O 	0.9405	0.7663	0.4418	-0.115
Mof_O 	O 	0.1214	0.6931	0.3789	-0.301
Mof_O 	O 	0.1021	0.7073	0.6613	-0.606
Mof_O 	O 	0.43	0.6018	0.6251	-0.662
Mof_O 	O 	0.3653	0.4603	0.6566	-0.839
Mof_C 	C 	0.1421	0.6827	0.536	0.398
Mof_C 	C 	0.2208	0.6349	0.5663	-0.071
Mof_C 	C 	0.2868	0.5984	0.596	-0.12
Mof_C 	C 	0.3664	0.5489	0.6291	0.45
Mof_O 	O 	0.5595	0.2663	0.0582	-0.457
Mof_O 	O 	0.3786	0.1931	0.1211	-0.286
Mof_O 	O 	0.3979	0.2073	0.8387	-0.702
Mof_O 	O 	0.07	0.1018	0.8749	-0.59
Mof_O 	O 	0.1347	0.9603	0.8434	-0.659
Mof_C 	C 	0.3579	0.1827	0.964	0.454
Mof_C 	C 	0.2792	0.1349	0.9337	-0.084
Mof_C 	C 	0.2132	0.0984	0.904	-0.073
Mof_C 	C 	0.1336	0.0489	0.8709	0.409
Mof_O 	O 	0.0595	0.7663	0.0582	-0.409
Mof_O 	O 	0.8786	0.6931	0.1211	-0.148
Mof_O 	O 	0.8979	0.7073	0.8387	-0.402
Mof_O 	O 	0.57	0.6018	0.8749	-0.664
Mof_O 	O 	0.6347	0.4603	0.8434	-0.832
Mof_C 	C 	0.8579	0.6827	0.964	0.358
Mof_C 	C 	0.7792	0.6349	0.9337	-0.009
Mof_C 	C 	0.7132	0.5984	0.904	-0.127
Mof_C 	C 	0.6336	0.5489	0.8709	0.461
Mof_O 	O 	0.5595	0.7337	0.5582	-0.459
Mof_O 	O 	0.3786	0.8069	0.6211	-0.29
Mof_O 	O 	0.3979	0.7927	0.3387	-0.703
Mof_O 	O 	0.07	0.8982	0.3749	-0.59
Mof_O 	O 	0.1347	0.0397	0.3434	-0.66
Mof_C 	C 	0.3579	0.8173	0.464	0.459
Mof_C 	C 	0.2792	0.8651	0.4337	-0.084
Mof_C 	C 	0.2132	0.9016	0.404	-0.072
Mof_C 	C 	0.1336	0.9511	0.3709	0.41
Mof_O 	O 	0.0595	0.2337	0.5582	-0.413
Mof_O 	O 	0.8786	0.3069	0.6211	-0.151
Mof_O 	O 	0.8979	0.2927	0.3387	-0.403
Mof_O 	O 	0.57	0.3982	0.3749	-0.663
Mof_O 	O 	0.6347	0.5397	0.3434	-0.832
Mof_C 	C 	0.8579	0.3173	0.464	0.364
Mof_C 	C 	0.7792	0.3651	0.4337	-0.009
Mof_C 	C 	0.7132	0.4016	0.404	-0.125
Mof_C 	C 	0.6336	0.4511	0.3709	0.461
Mof_O 	O 	0.4405	0.7337	0.9418	-0.463
Mof_O 	O 	0.6214	0.8069	0.8789	-0.292
Mof_O 	O 	0.6021	0.7927	0.1613	-0.704
Mof_O 	O 	0.93	0.8982	0.1251	-0.312
Mof_O 	O 	0.8653	0.0397	0.1566	-0.535
Mof_C 	C 	0.6421	0.8173	0.036	0.471
Mof_C 	C 	0.7208	0.8651	0.0663	-0.104
Mof_C 	C 	0.7868	0.9016	0.096	-0.026
Mof_C 	C 	0.8664	0.9511	0.1291	0.347
Mof_O 	O 	0.9405	0.2337	0.9418	-0.12
Mof_O 	O 	0.1214	0.3069	0.8789	-0.304
Mof_O 	O 	0.1021	0.2927	0.1613	-0.607
Mof_O 	O 	0.43	0.3982	0.1251	-0.661
Mof_O 	O 	0.3653	0.5397	0.1566	-0.839
Mof_C 	C 	0.1421	0.3173	0.036	0.404
Mof_C 	C 	0.2208	0.3651	0.0663	-0.071
Mof_C 	C 	0.2868	0.4016	0.096	-0.118
Mof_C 	C 	0.3664	0.4511	0.1291	0.45
Mof_U 	U 	0.5	0.26553	0.25	-0.001
Mof_U 	U 	4.50107e-34	0.76553	0.25	-0.194
Mof_U 	U 	0.5	0.73447	0.75	-0.001
Mof_U 	U 	1.05318e-18	0.23447	0.75	-0.194
Mof_K 	K 	0.5	0.36037	0.75	4.506
Mof_K 	K 	1.35032e-33	0.86037	0.75	2.92
Mof_K 	K 	0.5	0.63963	0.25	4.52
Mof_K 	K 	-2.63295e-19	0.13963	0.25	2.934
_end
