data_functionalizedCrystal
_audit_creation_method	'EQeq! by Chris Wilmer'
_symmetry_space_group_name_H-M	'P1'
_symmetry_Int_Tables_number	1
_symmetry_cell_setting	triclinic
loop_
_symmetry_equiv_pos_as_xyz
  x,y,z
_cell_length_a	17.9181
_cell_length_b	17.9181
_cell_length_c	17.9181
_cell_angle_alpha	90
_cell_angle_beta	90
_cell_angle_gamma	90
loop_
_atom_site_label
_atom_site_type_symbol
_atom_site_fract_x
_atom_site_fract_y
_atom_site_fract_z
_atom_site_charge
Mof_Cu	Cu	0.20336	0.05267	0.13614	0.901
Mof_O 	O 	0.2328	0.9917	0.22	-0.336
Mof_O 	O 	0.1866	0.9331	0.3179	-0.386
Mof_O 	O 	0.1068	0.0414	0.1795	-0.429
Mof_O 	O 	0.0699	0.9272	0.2011	-0.33
Mof_H 	H 	0.06452	0.89414	0.2323	0.245
Mof_O 	O 	0.0387	0.9784	0.3548	-0.323
Mof_O 	O 	0.0304	0.0835	0.2969	-0.314
Mof_C 	C 	0.1764	0.9688	0.2624	0.3
Mof_C 	C 	0.1042	0.9911	0.2354	0.041
Mof_C 	C 	0.0521	0.0143	0.2935	0.241
Mof_Cu	Cu	0.29664	0.94733	0.63614	0.901
Mof_O 	O 	0.2672	0.0083	0.72	-0.338
Mof_O 	O 	0.3134	0.0669	0.8179	-0.387
Mof_O 	O 	0.3932	0.9586	0.6795	-0.429
Mof_O 	O 	0.4301	0.0728	0.7011	-0.331
Mof_H 	H 	0.43548	0.10586	0.7323	0.244
Mof_O 	O 	0.4613	0.0216	0.8548	-0.324
Mof_O 	O 	0.4696	0.9165	0.7969	-0.315
Mof_C 	C 	0.3236	0.0312	0.7624	0.299
Mof_C 	C 	0.3958	0.0089	0.7354	0.038
Mof_C 	C 	0.4479	0.9857	0.7935	0.242
Mof_Cu	Cu	0.79664	0.55267	0.36386	0.901
Mof_O 	O 	0.7672	0.4917	0.28	-0.338
Mof_O 	O 	0.8134	0.4331	0.1821	-0.387
Mof_O 	O 	0.8932	0.5414	0.3205	-0.428
Mof_O 	O 	0.9301	0.4272	0.2989	-0.331
Mof_H 	H 	0.93548	0.39414	0.2677	0.243
Mof_O 	O 	0.9613	0.4784	0.1452	-0.326
Mof_O 	O 	0.9696	0.5835	0.2031	-0.315
Mof_C 	C 	0.8236	0.4688	0.2376	0.3
Mof_C 	C 	0.8958	0.4911	0.2646	0.036
Mof_C 	C 	0.9479	0.5143	0.2065	0.245
Mof_Cu	Cu	0.70336	0.44733	0.86386	0.901
Mof_O 	O 	0.7328	0.5083	0.78	-0.338
Mof_O 	O 	0.6866	0.5669	0.6821	-0.387
Mof_O 	O 	0.6068	0.4586	0.8205	-0.428
Mof_O 	O 	0.5699	0.5728	0.7989	-0.331
Mof_H 	H 	0.56452	0.60586	0.7677	0.243
Mof_O 	O 	0.5387	0.5216	0.6452	-0.326
Mof_O 	O 	0.5304	0.4165	0.7031	-0.315
Mof_C 	C 	0.6764	0.5312	0.7376	0.3
Mof_C 	C 	0.6042	0.5089	0.7646	0.036
Mof_C 	C 	0.5521	0.4857	0.7065	0.245
Mof_Cu	Cu	0.13614	0.20336	0.05267	0.9
Mof_O 	O 	0.22	0.2328	0.9917	-0.337
Mof_O 	O 	0.3179	0.1866	0.9331	-0.387
Mof_O 	O 	0.1795	0.1068	0.0414	-0.43
Mof_O 	O 	0.2011	0.0699	0.9272	-0.331
Mof_H 	H 	0.2323	0.06452	0.89414	0.244
Mof_O 	O 	0.3548	0.0387	0.9784	-0.324
Mof_O 	O 	0.2969	0.0304	0.0835	-0.315
Mof_C 	C 	0.2624	0.1764	0.9688	0.299
Mof_C 	C 	0.2354	0.1042	0.9911	0.04
Mof_C 	C 	0.2935	0.0521	0.0143	0.24
Mof_Cu	Cu	0.63614	0.29664	0.94733	0.901
Mof_O 	O 	0.72	0.2672	0.0083	-0.338
Mof_O 	O 	0.8179	0.3134	0.0669	-0.387
Mof_O 	O 	0.6795	0.3932	0.9586	-0.429
Mof_O 	O 	0.7011	0.4301	0.0728	-0.331
Mof_H 	H 	0.7323	0.43548	0.10586	0.244
Mof_O 	O 	0.8548	0.4613	0.0216	-0.324
Mof_O 	O 	0.7969	0.4696	0.9165	-0.315
Mof_C 	C 	0.7624	0.3236	0.0312	0.299
Mof_C 	C 	0.7354	0.3958	0.0089	0.038
Mof_C 	C 	0.7935	0.4479	0.9857	0.242
Mof_Cu	Cu	0.36386	0.79664	0.55267	0.901
Mof_O 	O 	0.28	0.7672	0.4917	-0.338
Mof_O 	O 	0.1821	0.8134	0.4331	-0.387
Mof_O 	O 	0.3205	0.8932	0.5414	-0.428
Mof_O 	O 	0.2989	0.9301	0.4272	-0.331
Mof_H 	H 	0.2677	0.93548	0.39414	0.243
Mof_O 	O 	0.1452	0.9613	0.4784	-0.326
Mof_O 	O 	0.2031	0.9696	0.5835	-0.315
Mof_C 	C 	0.2376	0.8236	0.4688	0.3
Mof_C 	C 	0.2646	0.8958	0.4911	0.036
Mof_C 	C 	0.2065	0.9479	0.5143	0.245
Mof_Cu	Cu	0.86386	0.70336	0.44733	0.901
Mof_O 	O 	0.78	0.7328	0.5083	-0.338
Mof_O 	O 	0.6821	0.6866	0.5669	-0.387
Mof_O 	O 	0.8205	0.6068	0.4586	-0.428
Mof_O 	O 	0.7989	0.5699	0.5728	-0.331
Mof_H 	H 	0.7677	0.56452	0.60586	0.243
Mof_O 	O 	0.6452	0.5387	0.5216	-0.326
Mof_O 	O 	0.7031	0.5304	0.4165	-0.315
Mof_C 	C 	0.7376	0.6764	0.5312	0.3
Mof_C 	C 	0.7646	0.6042	0.5089	0.036
Mof_C 	C 	0.7065	0.5521	0.4857	0.245
Mof_Cu	Cu	0.05267	0.13614	0.20336	0.9
Mof_O 	O 	0.9917	0.22	0.2328	-0.337
Mof_O 	O 	0.9331	0.3179	0.1866	-0.387
Mof_O 	O 	0.0414	0.1795	0.1068	-0.43
Mof_O 	O 	0.9272	0.2011	0.0699	-0.331
Mof_H 	H 	0.89414	0.2323	0.06452	0.244
Mof_O 	O 	0.9784	0.3548	0.0387	-0.324
Mof_O 	O 	0.0835	0.2969	0.0304	-0.315
Mof_C 	C 	0.9688	0.2624	0.1764	0.299
Mof_C 	C 	0.9911	0.2354	0.1042	0.04
Mof_C 	C 	0.0143	0.2935	0.0521	0.24
Mof_Cu	Cu	0.94733	0.63614	0.29664	0.901
Mof_O 	O 	0.0083	0.72	0.2672	-0.338
Mof_O 	O 	0.0669	0.8179	0.3134	-0.387
Mof_O 	O 	0.9586	0.6795	0.3932	-0.429
Mof_O 	O 	0.0728	0.7011	0.4301	-0.331
Mof_H 	H 	0.10586	0.7323	0.43548	0.244
Mof_O 	O 	0.0216	0.8548	0.4613	-0.324
Mof_O 	O 	0.9165	0.7969	0.4696	-0.315
Mof_C 	C 	0.0312	0.7624	0.3236	0.299
Mof_C 	C 	0.0089	0.7354	0.3958	0.038
Mof_C 	C 	0.9857	0.7935	0.4479	0.242
Mof_Cu	Cu	0.55267	0.36386	0.79664	0.901
Mof_O 	O 	0.4917	0.28	0.7672	-0.338
Mof_O 	O 	0.4331	0.1821	0.8134	-0.387
Mof_O 	O 	0.5414	0.3205	0.8932	-0.428
Mof_O 	O 	0.4272	0.2989	0.9301	-0.331
Mof_H 	H 	0.39414	0.2677	0.93548	0.243
Mof_O 	O 	0.4784	0.1452	0.9613	-0.326
Mof_O 	O 	0.5835	0.2031	0.9696	-0.315
Mof_C 	C 	0.4688	0.2376	0.8236	0.3
Mof_C 	C 	0.4911	0.2646	0.8958	0.036
Mof_C 	C 	0.5143	0.2065	0.9479	0.245
Mof_Cu	Cu	0.44733	0.86386	0.70336	0.901
Mof_O 	O 	0.5083	0.78	0.7328	-0.338
Mof_O 	O 	0.5669	0.6821	0.6866	-0.387
Mof_O 	O 	0.4586	0.8205	0.6068	-0.428
Mof_O 	O 	0.5728	0.7989	0.5699	-0.331
Mof_H 	H 	0.60586	0.7677	0.56452	0.243
Mof_O 	O 	0.5216	0.6452	0.5387	-0.326
Mof_O 	O 	0.4165	0.7031	0.5304	-0.315
Mof_C 	C 	0.5312	0.7376	0.6764	0.3
Mof_C 	C 	0.5089	0.7646	0.6042	0.036
Mof_C 	C 	0.4857	0.7065	0.5521	0.245
Mof_Co	Co	0.10651	0.89349	0.39349	1.198
Mof_Co	Co	0.39349	0.10651	0.89349	1.198
Mof_Co	Co	0.89349	0.39349	0.10651	1.198
Mof_Co	Co	0.60651	0.60651	0.60651	1.198
_end
