data_functionalizedCrystal
_audit_creation_method	'EQeq! by Chris Wilmer'
_symmetry_space_group_name_H-M	'P1'
_symmetry_Int_Tables_number	1
_symmetry_cell_setting	triclinic
loop_
_symmetry_equiv_pos_as_xyz
  x,y,z
_cell_length_a	4.3276
_cell_length_b	17.3181
_cell_length_c	6.7624
_cell_angle_alpha	90
_cell_angle_beta	90
_cell_angle_gamma	90
loop_
_atom_site_label
_atom_site_type_symbol
_atom_site_fract_x
_atom_site_fract_y
_atom_site_fract_z
_atom_site_charge
Mof_P 	P 	0.474	0.1603	0.991	0.405
Mof_O 	O 	0.327	0.1864	0.186	-0.418
Mof_O 	O 	0.774	0.2147	0.962	-0.443
Mof_O 	O 	0.286	0.1627	0.807	-0.4
Mof_Cu	Cu	0.007	0.2567	0.2253	0.898
Mof_C 	C 	0.636	0.0629	0.041	-0.062
Mof_P 	P 	0.526	0.8397	0.991	0.406
Mof_O 	O 	0.673	0.8136	0.186	-0.417
Mof_O 	O 	0.226	0.7853	0.962	-0.443
Mof_O 	O 	0.714	0.8373	0.807	-0.399
Mof_Cu	Cu	0.993	0.7433	0.2253	0.898
Mof_C 	C 	0.364	0.9371	0.041	-0.058
Mof_P 	P 	0.474	0.3397	0.491	0.409
Mof_O 	O 	0.327	0.3136	0.686	-0.419
Mof_O 	O 	0.774	0.2853	0.462	-0.442
Mof_O 	O 	0.286	0.3373	0.307	-0.4
Mof_Cu	Cu	0.007	0.2433	0.7253	0.898
Mof_C 	C 	0.636	0.4371	0.541	-0.064
Mof_P 	P 	0.526	0.6603	0.491	0.409
Mof_O 	O 	0.673	0.6864	0.686	-0.419
Mof_O 	O 	0.226	0.7147	0.462	-0.442
Mof_O 	O 	0.714	0.6627	0.307	-0.4
Mof_Cu	Cu	0.993	0.7567	0.7253	0.898
Mof_C 	C 	0.364	0.5629	0.541	-0.064
Mof_C 	C 	0.5	-3.11302e-33	0.923	0.031
Mof_C 	C 	0.5	0.5	0.423	0.038
_end
