data_functionalizedCrystal
_audit_creation_method	'EQeq! by Chris Wilmer'
_symmetry_space_group_name_H-M	'P1'
_symmetry_Int_Tables_number	1
_symmetry_cell_setting	triclinic
loop_
_symmetry_equiv_pos_as_xyz
  x,y,z
_cell_length_a	9.6083
_cell_length_b	16.036
_cell_length_c	14.084
_cell_angle_alpha	90
_cell_angle_beta	90
_cell_angle_gamma	90
loop_
_atom_site_label
_atom_site_type_symbol
_atom_site_fract_x
_atom_site_fract_y
_atom_site_fract_z
_atom_site_charge
Mof_Zn	Zn	0.0401	0.42021	0.8932	1.211
Mof_O 	O 	0.8488	0.3978	0.8617	-0.416
Mof_O 	O 	0.6484	0.3235	0.8039	-0.432
Mof_O 	O 	0.8354	0.35687	0.6877	-0.433
Mof_O 	O 	0.0799	0.5381	0.8878	-0.542
Mof_O 	O 	0.9129	0.6266	0.9835	-0.42
Mof_O 	O 	0.0595	0.69019	0.8547	-0.486
Mof_P 	P 	0.75858	0.38431	0.776	0.474
Mof_H 	H 	0.72	0.463	0.758	-0.053
Mof_P 	P 	0.98286	0.61216	0.88788	0.566
Mof_H 	H 	0.876	0.602	0.828	-0.06
Mof_Zn	Zn	0.4599	0.07979	0.3932	1.229
Mof_O 	O 	0.6512	0.1022	0.3617	-0.444
Mof_O 	O 	0.8516	0.1765	0.3039	-0.403
Mof_O 	O 	0.6646	0.14313	0.1877	-0.45
Mof_O 	O 	0.4201	0.9619	0.3878	-0.475
Mof_O 	O 	0.5871	0.8734	0.4835	-0.42
Mof_O 	O 	0.4405	0.80981	0.3547	-0.413
Mof_P 	P 	0.74142	0.11569	0.276	0.476
Mof_H 	H 	0.78	0.037	0.258	-0.043
Mof_P 	P 	0.51714	0.88784	0.38788	0.437
Mof_H 	H 	0.624	0.898	0.328	-0.051
Mof_Zn	Zn	0.9599	0.42021	0.6068	1.248
Mof_O 	O 	0.1512	0.3978	0.6383	-0.484
Mof_O 	O 	0.3516	0.3235	0.6961	-0.443
Mof_O 	O 	0.1646	0.35687	0.8123	-0.476
Mof_O 	O 	0.9201	0.5381	0.6122	-0.398
Mof_O 	O 	0.0871	0.6266	0.5165	-0.434
Mof_O 	O 	0.9405	0.69019	0.6453	-0.323
Mof_P 	P 	0.24142	0.38431	0.724	0.476
Mof_H 	H 	0.28	0.463	0.742	-0.059
Mof_P 	P 	0.01714	0.61216	0.61212	0.309
Mof_H 	H 	0.124	0.602	0.672	-0.054
Mof_Zn	Zn	0.5401	0.07979	0.1068	1.229
Mof_O 	O 	0.3488	0.1022	0.1383	-0.457
Mof_O 	O 	0.1484	0.1765	0.1961	-0.461
Mof_O 	O 	0.3354	0.14313	0.3123	-0.46
Mof_O 	O 	0.5799	0.9619	0.1122	-0.462
Mof_O 	O 	0.4129	0.8734	0.0165	-0.429
Mof_O 	O 	0.5595	0.80981	0.1453	-0.404
Mof_P 	P 	0.25858	0.11569	0.224	0.473
Mof_H 	H 	0.22	0.037	0.242	-0.07
Mof_P 	P 	0.48286	0.88784	0.11212	0.436
Mof_H 	H 	0.376	0.898	0.172	-0.063
Mof_Zn	Zn	0.9599	0.57979	0.1068	1.248
Mof_O 	O 	0.1512	0.6022	0.1383	-0.482
Mof_O 	O 	0.3516	0.6765	0.1961	-0.442
Mof_O 	O 	0.1646	0.64313	0.3123	-0.475
Mof_O 	O 	0.9201	0.4619	0.1122	-0.401
Mof_O 	O 	0.0871	0.3734	0.0165	-0.433
Mof_O 	O 	0.9405	0.30981	0.1453	-0.327
Mof_P 	P 	0.24142	0.61569	0.224	0.476
Mof_H 	H 	0.28	0.537	0.242	-0.059
Mof_P 	P 	0.01714	0.38784	0.11212	0.314
Mof_H 	H 	0.124	0.398	0.172	-0.054
Mof_Zn	Zn	0.5401	0.92021	0.6068	1.23
Mof_O 	O 	0.3488	0.8978	0.6383	-0.456
Mof_O 	O 	0.1484	0.8235	0.6961	-0.461
Mof_O 	O 	0.3354	0.85687	0.8123	-0.462
Mof_O 	O 	0.5799	0.0381	0.6122	-0.463
Mof_O 	O 	0.4129	0.1266	0.5165	-0.432
Mof_O 	O 	0.5595	0.19019	0.6453	-0.405
Mof_P 	P 	0.25858	0.88431	0.724	0.473
Mof_H 	H 	0.22	0.963	0.742	-0.07
Mof_P 	P 	0.48286	0.11216	0.61212	0.436
Mof_H 	H 	0.376	0.102	0.672	-0.063
Mof_Zn	Zn	0.0401	0.57979	0.3932	1.212
Mof_O 	O 	0.8488	0.6022	0.3617	-0.416
Mof_O 	O 	0.6484	0.6765	0.3039	-0.432
Mof_O 	O 	0.8354	0.64313	0.1877	-0.434
Mof_O 	O 	0.0799	0.4619	0.3878	-0.539
Mof_O 	O 	0.9129	0.3734	0.4835	-0.418
Mof_O 	O 	0.0595	0.30981	0.3547	-0.483
Mof_P 	P 	0.75858	0.61569	0.276	0.474
Mof_H 	H 	0.72	0.537	0.258	-0.053
Mof_P 	P 	0.98286	0.38784	0.38788	0.563
Mof_H 	H 	0.876	0.398	0.328	-0.06
Mof_Zn	Zn	0.4599	0.92021	0.8932	1.227
Mof_O 	O 	0.6512	0.8978	0.8617	-0.446
Mof_O 	O 	0.8516	0.8235	0.8039	-0.403
Mof_O 	O 	0.6646	0.85687	0.6877	-0.449
Mof_O 	O 	0.4201	0.0381	0.8878	-0.474
Mof_O 	O 	0.5871	0.1266	0.9835	-0.419
Mof_O 	O 	0.4405	0.19019	0.8547	-0.413
Mof_P 	P 	0.74142	0.88431	0.776	0.476
Mof_H 	H 	0.78	0.963	0.758	-0.042
Mof_P 	P 	0.51714	0.11216	0.88788	0.437
Mof_H 	H 	0.624	0.102	0.828	-0.051
Mof_Zn	Zn	1.57547e-32	0.76115	0.75	1.212
Mof_Zn	Zn	0.5	0.73885	0.25	1.24
Mof_Zn	Zn	7.19035e-33	0.23885	0.25	1.213
Mof_Zn	Zn	0.5	0.26115	0.75	1.24
_end
