data_functionalizedCrystal
_audit_creation_method	'EQeq! by Chris Wilmer'
_symmetry_space_group_name_H-M	'P1'
_symmetry_Int_Tables_number	1
_symmetry_cell_setting	triclinic
loop_
_symmetry_equiv_pos_as_xyz
  x,y,z
_cell_length_a	17.3043
_cell_length_b	18.377
_cell_length_c	17.9565
_cell_angle_alpha	90
_cell_angle_beta	90
_cell_angle_gamma	90
loop_
_atom_site_label
_atom_site_type_symbol
_atom_site_fract_x
_atom_site_fract_y
_atom_site_fract_z
_atom_site_charge
Mof_Zn	Zn	0.82343	0.68187	0.05543	1.24
Mof_Zn	Zn	0.70347	0.18217	0.38723	1.239
Mof_Zn	Zn	0.82335	0.6818	0.88725	1.239
Mof_Zn	Zn	0.70327	0.18165	0.55539	1.239
Mof_Zn	Zn	0.69809	0.60007	0.97216	1.24
Mof_Zn	Zn	0.69856	0.76411	0.97082	1.24
Mof_Zn	Zn	0.82864	0.10012	0.47186	1.24
Mof_Zn	Zn	0.82835	0.26413	0.47115	1.24
Mof_H 	H 	0.31684	0.57975	0.02863	0.054
Mof_H 	H 	0.87022	0.52205	0.2173	0.043
Mof_H 	H 	0.65253	0.44143	0.13476	0.044
Mof_H 	H 	0.65551	0.34344	0.22693	0.042
Mof_H 	H 	0.87207	0.42547	0.31123	0.042
Mof_H 	H 	0.06333	0.7205	0.8582	0.033
Mof_H 	H 	0.20487	0.72276	0.8593	0.051
Mof_H 	H 	0.20455	0.64265	0.08495	0.049
Mof_H 	H 	0.06769	0.0831	0.5359	0.034
Mof_H 	H 	0.67413	0.03687	0.20977	0.041
Mof_H 	H 	0.85675	0.92445	0.32606	0.04
Mof_H 	H 	0.8545	0.82827	0.23199	0.044
Mof_H 	H 	0.6721	0.94076	0.11555	0.044
Mof_H 	H 	0.46349	0.15353	0.58792	0.035
Mof_H 	H 	0.06828	0.28146	0.40785	0.032
Mof_H 	H 	0.21023	0.28042	0.40687	0.049
Mof_H 	H 	0.45851	0.57857	0.0268	0.034
Mof_H 	H 	0.85412	0.53523	0.71152	0.042
Mof_H 	H 	0.67139	0.42283	0.8277	0.04
Mof_H 	H 	0.67358	0.32671	0.73349	0.043
Mof_H 	H 	0.85607	0.43926	0.61722	0.044
Mof_H 	H 	0.06289	0.64232	0.08459	0.034
Mof_H 	H 	0.4586	0.78679	0.91627	0.033
Mof_H 	H 	0.31675	0.78665	0.916	0.048
Mof_H 	H 	0.20964	0.08353	0.5368	0.053
Mof_H 	H 	0.65769	0.02284	0.71844	0.043
Mof_H 	H 	0.872	0.9386	0.63156	0.046
Mof_H 	H 	0.86903	0.84054	0.72368	0.041
Mof_H 	H 	0.65591	0.92617	0.8122	0.042
Mof_H 	H 	0.46302	0.20703	0.35406	0.034
Mof_H 	H 	0.32132	0.20771	0.35457	0.05
Mof_H 	H 	0.32181	0.15326	0.58804	0.049
Mof_C 	C 	0.76502	0.31693	0.33495	0.386
Mof_C 	C 	0.34693	0.62544	0.00427	-0.068
Mof_C 	C 	0.76402	0.37607	0.27698	-0.096
Mof_C 	C 	0.76163	0.48945	0.16741	-0.094
Mof_C 	C 	0.76097	0.54809	0.10893	0.388
Mof_C 	C 	0.82272	0.48371	0.21895	-0.003
Mof_C 	C 	0.7014	0.43802	0.17214	-0.003
Mof_C 	C 	0.70284	0.38196	0.22557	-0.004
Mof_C 	C 	0.82381	0.42807	0.27292	-0.003
Mof_C 	C 	0.09327	0.70341	0.90818	0.025
Mof_C 	C 	0.17481	0.70497	0.90891	-0.066
Mof_C 	C 	0.17462	0.65964	0.03492	-0.067
Mof_C 	C 	0.76184	0.81693	0.10744	0.384
Mof_C 	C 	0.09795	0.12675	0.50784	0.027
Mof_C 	C 	0.76296	0.87604	0.16571	-0.092
Mof_C 	C 	0.76543	0.98891	0.27625	-0.096
Mof_C 	C 	0.76619	0.04782	0.33467	0.384
Mof_C 	C 	0.71389	0.99171	0.21548	-0.003
Mof_C 	C 	0.81588	0.92875	0.28062	-0.004
Mof_C 	C 	0.81462	0.87333	0.22639	-0.005
Mof_C 	C 	0.71269	0.93631	0.16121	-0.006
Mof_C 	C 	0.43339	0.16544	0.53644	0.025
Mof_C 	C 	0.09833	0.23785	0.43628	0.026
Mof_C 	C 	0.17991	0.23707	0.43542	-0.066
Mof_C 	C 	0.76554	0.31606	0.60835	0.384
Mof_C 	C 	0.42846	0.62454	0.00269	0.027
Mof_C 	C 	0.7649	0.37472	0.66709	-0.092
Mof_C 	C 	0.76251	0.48745	0.77773	-0.096
Mof_C 	C 	0.76135	0.54673	0.83575	0.384
Mof_C 	C 	0.81424	0.49014	0.71712	-0.004
Mof_C 	C 	0.71215	0.42722	0.78218	-0.005
Mof_C 	C 	0.71339	0.37184	0.72789	-0.005
Mof_C 	C 	0.8154	0.43482	0.66281	-0.005
Mof_C 	C 	0.09306	0.6598	0.03484	0.022
Mof_C 	C 	0.42846	0.7411	0.94093	0.026
Mof_C 	C 	0.34687	0.74089	0.94053	-0.068
Mof_C 	C 	0.76143	0.81602	0.83405	0.386
Mof_C 	C 	0.17952	0.12715	0.50873	-0.066
Mof_C 	C 	0.76218	0.8749	0.77578	-0.097
Mof_C 	C 	0.76461	0.98852	0.66642	-0.094
Mof_C 	C 	0.76538	0.04743	0.60818	0.387
Mof_C 	C 	0.70444	0.98366	0.71905	-0.004
Mof_C 	C 	0.82386	0.93599	0.66989	-0.004
Mof_C 	C 	0.82234	0.87977	0.72317	-0.003
Mof_C 	C 	0.70335	0.92794	0.77291	-0.003
Mof_C 	C 	0.43315	0.19533	0.40567	0.025
Mof_C 	C 	0.35156	0.1961	0.40601	-0.067
Mof_C 	C 	0.35183	0.16493	0.53645	-0.068
Mof_C 	C 	0.4707	0.68266	0.97155	-0.115
Mof_C 	C 	0.96362	0.68147	0.97125	0.385
Mof_C 	C 	0.55794	0.68241	0.97133	0.39
Mof_C 	C 	0.30456	0.6832	0.97253	0.024
Mof_C 	C 	0.05089	0.6814	0.97136	-0.11
Mof_C 	C 	0.21705	0.68272	0.97216	0.025
Mof_C 	C 	0.05596	0.18234	0.47193	-0.116
Mof_C 	C 	0.56301	0.18117	0.47108	0.39
Mof_C 	C 	0.96881	0.1823	0.47162	0.39
Mof_C 	C 	0.22199	0.18181	0.47189	0.024
Mof_C 	C 	0.47563	0.18059	0.47104	-0.114
Mof_C 	C 	0.30942	0.18096	0.47144	0.023
Mof_O 	O 	0.71483	0.54304	0.0538	-0.519
Mof_O 	O 	0.81112	0.32184	0.39015	-0.517
Mof_O 	O 	0.8069	0.60218	0.11443	-0.515
Mof_O 	O 	0.71955	0.26252	0.3289	-0.517
Mof_O 	O 	0.92679	0.68091	0.03285	-0.512
Mof_O 	O 	0.81201	0.04274	0.39016	-0.519
Mof_O 	O 	0.71584	0.82196	0.05205	-0.513
Mof_O 	O 	0.72063	0.10221	0.32863	-0.516
Mof_O 	O 	0.80713	0.76234	0.11359	-0.513
Mof_O 	O 	0.59992	0.18187	0.40952	-0.515
Mof_O 	O 	0.71526	0.54196	0.89108	-0.519
Mof_O 	O 	0.8114	0.32137	0.55288	-0.514
Mof_O 	O 	0.8067	0.60124	0.82941	-0.516
Mof_O 	O 	0.71996	0.26166	0.61411	-0.514
Mof_O 	O 	0.92684	0.68226	0.90962	-0.515
Mof_O 	O 	0.81156	0.04256	0.55305	-0.519
Mof_O 	O 	0.7156	0.82127	0.88942	-0.518
Mof_O 	O 	0.7196	0.1016	0.61394	-0.515
Mof_O 	O 	0.80689	0.76159	0.82817	-0.517
Mof_O 	O 	0.59982	0.181	0.53273	-0.515
Mof_O 	O 	0.76088	0.68196	0.9714	-1.009
Mof_O 	O 	0.59455	0.6221	0.97271	-0.516
Mof_O 	O 	0.59491	0.74253	0.97	-0.515
Mof_O 	O 	0.76591	0.18202	0.4714	-1.008
Mof_O 	O 	0.93214	0.12204	0.47302	-0.515
Mof_O 	O 	0.93199	0.24248	0.47009	-0.514
Mof_Zn	Zn	0.17656	0.31789	0.11217	1.24
Mof_Zn	Zn	0.29676	0.81827	0.44386	1.24
Mof_Zn	Zn	0.17649	0.3181	0.94398	1.24
Mof_Zn	Zn	0.29638	0.81785	0.61202	1.24
Mof_Zn	Zn	0.30169	0.39997	0.02736	1.24
Mof_Zn	Zn	0.30147	0.23591	0.0284	1.24
Mof_Zn	Zn	0.17147	0.90004	0.52724	1.24
Mof_Zn	Zn	0.17146	0.73603	0.52822	1.24
Mof_H 	H 	0.68355	0.41993	0.97171	0.055
Mof_H 	H 	0.14694	0.4636	0.28935	0.042
Mof_H 	H 	0.3267	0.57781	0.17075	0.04
Mof_H 	H 	0.32453	0.67406	0.26479	0.043
Mof_H 	H 	0.14514	0.55969	0.38357	0.044
Mof_H 	H 	0.93676	0.35446	0.91436	0.034
Mof_H 	H 	0.93231	0.91661	0.46199	0.034
Mof_H 	H 	0.34351	0.9779	0.28176	0.043
Mof_H 	H 	0.12773	0.06064	0.3668	0.046
Mof_H 	H 	0.13071	0.15862	0.27465	0.041
Mof_H 	H 	0.34545	0.07467	0.18805	0.042
Mof_H 	H 	0.53685	0.78723	0.64393	0.033
Mof_H 	H 	0.9317	0.71963	0.59232	0.032
Mof_H 	H 	0.78995	0.72059	0.59338	0.049
Mof_H 	H 	0.54184	0.42176	0.97368	0.034
Mof_H 	H 	0.12837	0.47933	0.78355	0.043
Mof_H 	H 	0.34773	0.55801	0.86393	0.044
Mof_H 	H 	0.34501	0.6557	0.77138	0.042
Mof_H 	H 	0.12655	0.57583	0.68951	0.042
Mof_H 	H 	0.93658	0.27973	0.14199	0.034
Mof_H 	H 	0.795	0.27745	0.14102	0.051
Mof_H 	H 	0.7951	0.35467	0.91434	0.049
Mof_H 	H 	0.54082	0.21285	0.08291	0.033
Mof_H 	H 	0.68271	0.21259	0.08351	0.048
Mof_H 	H 	0.79051	0.91638	0.46129	0.053
Mof_H 	H 	0.32462	0.96239	0.79028	0.041
Mof_H 	H 	0.14657	0.07802	0.67071	0.04
Mof_H 	H 	0.14914	0.17431	0.76465	0.044
Mof_H 	H 	0.32683	0.0585	0.88442	0.044
Mof_H 	H 	0.53629	0.85185	0.413	0.034
Mof_H 	H 	0.67774	0.85268	0.41282	0.048
Mof_H 	H 	0.67845	0.78742	0.64365	0.049
Mof_C 	C 	0.23424	0.68388	0.39106	0.384
Mof_C 	C 	0.6532	0.37426	0.99589	-0.069
Mof_C 	C 	0.23478	0.62516	0.33242	-0.092
Mof_C 	C 	0.23704	0.51228	0.22192	-0.096
Mof_C 	C 	0.2382	0.453	0.16387	0.384
Mof_C 	C 	0.18615	0.50913	0.28317	-0.004
Mof_C 	C 	0.28661	0.57303	0.2168	-0.005
Mof_C 	C 	0.28539	0.62851	0.27098	-0.005
Mof_C 	C 	0.18507	0.56454	0.33742	-0.005
Mof_C 	C 	0.90668	0.33795	0.96448	0.022
Mof_C 	C 	0.2389	0.18379	0.16516	0.386
Mof_C 	C 	0.90203	0.87331	0.49064	0.027
Mof_C 	C 	0.23825	0.12495	0.2234	-0.097
Mof_C 	C 	0.23584	0.01146	0.3328	-0.094
Mof_C 	C 	0.23493	0.95252	0.39097	0.387
Mof_C 	C 	0.29647	0.01675	0.2807	-0.004
Mof_C 	C 	0.17621	0.06358	0.32889	-0.004
Mof_C 	C 	0.1777	0.11972	0.27557	-0.003
Mof_C 	C 	0.29759	0.07246	0.22684	-0.003
Mof_C 	C 	0.56674	0.80159	0.593	0.025
Mof_C 	C 	0.90167	0.76296	0.56345	0.026
Mof_C 	C 	0.82011	0.76373	0.56437	-0.066
Mof_C 	C 	0.23455	0.68324	0.66451	0.386
Mof_C 	C 	0.57168	0.37551	0.9975	0.027
Mof_C 	C 	0.23551	0.62415	0.72254	-0.096
Mof_C 	C 	0.23784	0.51091	0.83232	-0.094
Mof_C 	C 	0.2386	0.45221	0.89077	0.388
Mof_C 	C 	0.17627	0.51718	0.78136	-0.003
Mof_C 	C 	0.29854	0.5618	0.82696	-0.003
Mof_C 	C 	0.29719	0.61775	0.77337	-0.004
Mof_C 	C 	0.17519	0.57276	0.72732	-0.003
Mof_C 	C 	0.9066	0.29617	0.0918	0.025
Mof_C 	C 	0.82505	0.29466	0.09117	-0.066
Mof_C 	C 	0.82512	0.3383	0.96454	-0.067
Mof_C 	C 	0.57116	0.25861	0.05862	0.026
Mof_C 	C 	0.65276	0.25853	0.05916	-0.068
Mof_C 	C 	0.23878	0.1835	0.8914	0.384
Mof_C 	C 	0.82049	0.87297	0.4899	-0.065
Mof_C 	C 	0.23809	0.12471	0.8328	-0.092
Mof_C 	C 	0.23536	0.01179	0.72231	-0.096
Mof_C 	C 	0.23423	0.95261	0.66415	0.384
Mof_C 	C 	0.28587	0.00823	0.78384	-0.003
Mof_C 	C 	0.1864	0.07296	0.71692	-0.005
Mof_C 	C 	0.18783	0.12843	0.7711	-0.005
Mof_C 	C 	0.28718	0.06365	0.83808	-0.006
Mof_C 	C 	0.5664	0.8376	0.46384	0.025
Mof_C 	C 	0.64792	0.8384	0.46385	-0.068
Mof_C 	C 	0.64834	0.80125	0.59268	-0.066
Mof_C 	C 	0.52917	0.31738	0.02828	-0.116
Mof_C 	C 	0.03626	0.3176	0.0283	0.385
Mof_C 	C 	0.44193	0.31778	0.02827	0.39
Mof_C 	C 	0.69531	0.31619	0.0274	0.024
Mof_C 	C 	0.94895	0.31735	0.02825	-0.11
Mof_C 	C 	0.78277	0.31626	0.02773	0.025
Mof_C 	C 	0.94401	0.81814	0.52721	-0.116
Mof_C 	C 	0.43689	0.81859	0.52826	0.39
Mof_C 	C 	0.03116	0.8181	0.52754	0.39
Mof_C 	C 	0.77797	0.81869	0.52741	0.024
Mof_C 	C 	0.52425	0.81923	0.52839	-0.114
Mof_C 	C 	0.69045	0.81956	0.52807	0.024
Mof_O 	O 	0.28426	0.45788	0.10852	-0.519
Mof_O 	O 	0.18838	0.67867	0.44655	-0.514
Mof_O 	O 	0.19294	0.39842	0.17017	-0.516
Mof_O 	O 	0.27992	0.73822	0.38521	-0.513
Mof_O 	O 	0.07305	0.31702	0.08991	-0.515
Mof_O 	O 	0.18865	0.95741	0.44601	-0.519
Mof_O 	O 	0.28463	0.17858	0.10971	-0.518
Mof_O 	O 	0.2807	0.89833	0.38527	-0.515
Mof_O 	O 	0.19335	0.23813	0.1711	-0.517
Mof_O 	O 	0.40018	0.81881	0.46656	-0.515
Mof_O 	O 	0.28494	0.45712	0.94576	-0.519
Mof_O 	O 	0.18843	0.67834	0.60932	-0.517
Mof_O 	O 	0.19266	0.39812	0.88529	-0.515
Mof_O 	O 	0.28007	0.73761	0.6705	-0.517
Mof_O 	O 	0.07307	0.31839	0.96668	-0.512
Mof_O 	O 	0.18839	0.95766	0.60866	-0.519
Mof_O 	O 	0.28447	0.17823	0.94699	-0.513
Mof_O 	O 	0.27948	0.89802	0.67041	-0.516
Mof_O 	O 	0.19338	0.23802	0.88538	-0.513
Mof_O 	O 	0.39992	0.81785	0.58977	-0.516
Mof_O 	O 	0.23903	0.31798	0.02797	-1.009
Mof_O 	O 	0.40533	0.3781	0.02698	-0.516
Mof_O 	O 	0.405	0.25767	0.02933	-0.515
Mof_O 	O 	0.23405	0.81806	0.52784	-1.009
Mof_O 	O 	0.06792	0.87831	0.5261	-0.515
Mof_O 	O 	0.06788	0.75787	0.52915	-0.514
_end
