data_functionalizedCrystal
_audit_creation_method	'EQeq! by Chris Wilmer'
_symmetry_space_group_name_H-M	'P1'
_symmetry_Int_Tables_number	1
_symmetry_cell_setting	triclinic
loop_
_symmetry_equiv_pos_as_xyz
  x,y,z
_cell_length_a	6.737
_cell_length_b	7.122
_cell_length_c	7.175
_cell_angle_alpha	90
_cell_angle_beta	90
_cell_angle_gamma	90
loop_
_atom_site_label
_atom_site_type_symbol
_atom_site_fract_x
_atom_site_fract_y
_atom_site_fract_z
_atom_site_charge
Mof_Pt	Pt	0.5	0.5	0.5	0.125
Mof_Fe	Fe	0.5	0	-0	0.674
Mof_N 	N 	0.5	0.1913	0.8101	-0.164
Mof_C 	C 	0.5	0.3037	0.6952	0.053
Mof_N 	N 	0.5	0.8087	0.8101	-0.148
Mof_C 	C 	0.5	0.6963	0.6952	0.063
Mof_N 	N 	0.5	0.1913	0.1899	-0.198
Mof_C 	C 	0.5	0.3037	0.3048	0.032
Mof_N 	N 	0.5	0.8087	0.1899	-0.18
Mof_C 	C 	0.5	0.6963	0.3048	0.043
Mof_N 	N 	0.2074	0	-0	-0.206
Mof_N 	N 	0.7926	0	-0	-0.206
Mof_C 	C 	0.102	0.8408	-0	0.039
Mof_H 	H 	0.1704	0.7242	-0	0.005
Mof_C 	C 	0.898	0.1592	-0	0
Mof_H 	H 	0.8296	0.2758	-0	0.012
Mof_C 	C 	0.898	0.8408	-0	0.039
Mof_H 	H 	0.8296	0.7242	-0	0.005
Mof_C 	C 	0.102	0.1592	-0	0
Mof_H 	H 	0.1704	0.2758	-0	0.012
_end
