data_functionalizedCrystal
_audit_creation_method	'EQeq! by Chris Wilmer'
_symmetry_space_group_name_H-M	'P1'
_symmetry_Int_Tables_number	1
_symmetry_cell_setting	triclinic
loop_
_symmetry_equiv_pos_as_xyz
  x,y,z
_cell_length_a	13.872
_cell_length_b	13.872
_cell_length_c	9.435
_cell_angle_alpha	90
_cell_angle_beta	90
_cell_angle_gamma	120
loop_
_atom_site_label
_atom_site_type_symbol
_atom_site_fract_x
_atom_site_fract_y
_atom_site_fract_z
_atom_site_charge
Mof_Sc	Sc	0.5615	0.8553	0.40794	1.844
Mof_O 	O 	0.7002	0.8909	0.2862	-0.467
Mof_P 	P 	0.81621	0.98484	0.24528	0.723
Mof_O 	O 	0.8611	0.9434	0.1284	-0.334
Mof_O 	O 	0.8928	0.0306	0.3757	-0.463
Mof_O 	O 	0.8058	0.0838	0.177	-0.269
Mof_O 	O 	0.5763	0.0065	0.3553	-0.569
Mof_P 	P 	0.63175	0.12651	0.39669	0.632
Mof_O 	O 	0.6988	0.1953	0.2625	-0.201
Mof_O 	O 	0.4506	0.8353	0.5682	-0.464
Mof_O 	O 	0.5645	0.7163	0.484	-0.51
Mof_O 	O 	0.4448	0.7655	0.2605	-0.493
Mof_Sc	Sc	0.1447	0.7062	0.40794	1.617
Mof_O 	O 	0.1091	0.8093	0.2862	-0.441
Mof_P 	P 	0.01516	0.83137	0.24528	0.445
Mof_O 	O 	0.0566	0.9177	0.1284	-0.356
Mof_O 	O 	0.9694	0.8622	0.3757	-0.294
Mof_O 	O 	0.9162	0.722	0.177	-0.141
Mof_O 	O 	0.9935	0.5698	0.3553	-0.409
Mof_P 	P 	0.87349	0.50524	0.39669	0.632
Mof_O 	O 	0.8047	0.5035	0.2625	-0.189
Mof_O 	O 	0.1647	0.6153	0.5682	-0.475
Mof_O 	O 	0.2837	0.8482	0.484	-0.467
Mof_O 	O 	0.2345	0.6793	0.2605	-0.49
Mof_Sc	Sc	0.2938	0.4385	0.40794	1.72
Mof_O 	O 	0.1907	0.2998	0.2862	-0.475
Mof_P 	P 	0.16863	0.18379	0.24528	0.584
Mof_O 	O 	0.0823	0.1389	0.1284	-0.455
Mof_O 	O 	0.1378	0.1072	0.3757	-0.472
Mof_O 	O 	0.278	0.1942	0.177	-0.233
Mof_O 	O 	0.4302	0.4237	0.3553	-0.488
Mof_P 	P 	0.49476	0.36825	0.39669	0.629
Mof_O 	O 	0.4965	0.3012	0.2625	-0.203
Mof_O 	O 	0.3847	0.5494	0.5682	-0.47
Mof_O 	O 	0.1518	0.4355	0.484	-0.52
Mof_O 	O 	0.3207	0.5552	0.2605	-0.498
Mof_Sc	Sc	0.4385	0.1447	0.59206	1.611
Mof_O 	O 	0.2998	0.1091	0.7138	-0.437
Mof_P 	P 	0.18379	0.01516	0.75472	0.428
Mof_O 	O 	0.1389	0.0566	0.8716	-0.369
Mof_O 	O 	0.1072	0.9694	0.6243	-0.338
Mof_O 	O 	0.1942	0.9162	0.823	-0.106
Mof_O 	O 	0.4237	0.9935	0.6447	-0.394
Mof_P 	P 	0.36825	0.87349	0.60331	0.628
Mof_O 	O 	0.3012	0.8047	0.7375	-0.158
Mof_O 	O 	0.5494	0.1647	0.4318	-0.484
Mof_O 	O 	0.4355	0.2837	0.516	-0.485
Mof_O 	O 	0.5552	0.2345	0.7395	-0.475
Mof_Sc	Sc	0.8553	0.2938	0.59206	1.845
Mof_O 	O 	0.8909	0.1907	0.7138	-0.464
Mof_P 	P 	0.98484	0.16863	0.75472	0.728
Mof_O 	O 	0.9434	0.0823	0.8716	-0.345
Mof_O 	O 	0.0306	0.1378	0.6243	-0.529
Mof_O 	O 	0.0838	0.278	0.823	-0.246
Mof_O 	O 	0.0065	0.4302	0.6447	-0.555
Mof_P 	P 	0.12651	0.49476	0.60331	0.628
Mof_O 	O 	0.1953	0.4965	0.7375	-0.17
Mof_O 	O 	0.8353	0.3847	0.4318	-0.473
Mof_O 	O 	0.7163	0.1518	0.516	-0.527
Mof_O 	O 	0.7655	0.3207	0.7395	-0.479
Mof_Sc	Sc	0.7062	0.5615	0.59206	1.739
Mof_O 	O 	0.8093	0.7002	0.7138	-0.431
Mof_P 	P 	0.83137	0.81621	0.75472	0.581
Mof_O 	O 	0.9177	0.8611	0.8716	-0.26
Mof_O 	O 	0.8622	0.8928	0.6243	-0.35
Mof_O 	O 	0.722	0.8058	0.823	-0.155
Mof_O 	O 	0.5698	0.5763	0.6447	-0.478
Mof_P 	P 	0.50524	0.63175	0.60331	0.631
Mof_O 	O 	0.5035	0.6988	0.7375	-0.158
Mof_O 	O 	0.6153	0.4506	0.4318	-0.478
Mof_O 	O 	0.8482	0.5645	0.516	-0.477
Mof_O 	O 	0.6793	0.4448	0.7395	-0.47
Mof_Sc	Sc	-0	0	-0	1.201
Mof_Sc	Sc	-0	-8.0273e-33	0.5	1.316
Mof_P 	P 	0.33333	0.66667	0.2157	0.646
Mof_O 	O 	0.33333	0.66667	0.0469	-0.197
Mof_P 	P 	0.66667	0.33333	0.7843	0.647
Mof_O 	O 	0.66667	0.33333	0.9531	-0.121
_end
