data_functionalizedCrystal
_audit_creation_method	'EQeq! by Chris Wilmer'
_symmetry_space_group_name_H-M	'P1'
_symmetry_Int_Tables_number	1
_symmetry_cell_setting	triclinic
loop_
_symmetry_equiv_pos_as_xyz
  x,y,z
_cell_length_a	15.5074
_cell_length_b	13.298
_cell_length_c	10.6553
_cell_angle_alpha	90
_cell_angle_beta	103.131
_cell_angle_gamma	90
loop_
_atom_site_label
_atom_site_type_symbol
_atom_site_fract_x
_atom_site_fract_y
_atom_site_fract_z
_atom_site_charge
Mof_In	In	0.37553	0.66421	0.48304	2.868
Mof_In	In	0.12045	0.66708	0.50012	2.854
Mof_O 	O 	0.3331	0.6356	0.2726	-0.564
Mof_O 	O 	0.3377	0.6987	0.0806	-0.559
Mof_O 	O 	0.4181	0.7975	0.3855	-0.544
Mof_O 	O 	0.4271	0.8578	0.194	-0.553
Mof_O 	O 	0.077	0.8001	0.5991	-0.541
Mof_O 	O 	0.0619	0.8527	0.7917	-0.553
Mof_O 	O 	0.1693	0.6408	0.709	-0.575
Mof_O 	O 	0.1593	0.6965	0.9012	-0.548
Mof_O 	O 	0.5142	0.6294	0.4852	-0.562
Mof_O 	O 	0.6133	0.5063	0.5111	-0.496
Mof_O 	O 	0.9844	0.6296	0.5124	-0.56
Mof_O 	O 	0.8893	0.5045	0.5039	-0.496
Mof_O 	O 	0.2466	0.6193	0.4854	-0.917
Mof_C 	C 	0.3537	0.7015	0.2004	0.28
Mof_C 	C 	0.4038	0.7939	0.2663	0.298
Mof_C 	C 	0.0897	0.7936	0.7177	0.293
Mof_C 	C 	0.1445	0.7026	0.7825	0.283
Mof_C 	C 	0.537	0.5388	0.4993	0.299
Mof_C 	C 	0.9628	0.5383	0.5052	0.306
Mof_In	In	0.62447	0.16421	0.01696	2.87
Mof_In	In	0.87955	0.16708	0.99988	2.811
Mof_O 	O 	0.6669	0.1356	0.2274	-0.567
Mof_O 	O 	0.6623	0.1987	0.4194	-0.56
Mof_O 	O 	0.5819	0.2975	0.1145	-0.544
Mof_O 	O 	0.5729	0.3578	0.306	-0.553
Mof_O 	O 	0.923	0.3001	0.9009	-0.538
Mof_O 	O 	0.9381	0.3527	0.7083	-0.558
Mof_O 	O 	0.8307	0.1408	0.791	-0.577
Mof_O 	O 	0.8407	0.1965	0.5988	-0.559
Mof_O 	O 	0.4858	0.1294	0.0148	-0.562
Mof_O 	O 	0.3867	0.0063	0.9889	-0.489
Mof_O 	O 	0.0156	0.1296	0.9876	-0.546
Mof_O 	O 	0.1107	0.0045	0.9961	-0.484
Mof_O 	O 	0.7534	0.1193	0.0146	-0.91
Mof_C 	C 	0.6463	0.2015	0.2996	0.281
Mof_C 	C 	0.5962	0.2939	0.2337	0.298
Mof_C 	C 	0.9103	0.2936	0.7823	0.291
Mof_C 	C 	0.8555	0.2026	0.7175	0.283
Mof_C 	C 	0.463	0.0388	0.0007	0.294
Mof_C 	C 	0.0372	0.0383	0.9948	0.309
Mof_In	In	0.62447	0.33579	0.51696	2.867
Mof_In	In	0.87955	0.33292	0.49988	2.853
Mof_O 	O 	0.6669	0.3644	0.7274	-0.565
Mof_O 	O 	0.6623	0.3013	0.9194	-0.56
Mof_O 	O 	0.5819	0.2025	0.6145	-0.545
Mof_O 	O 	0.5729	0.1422	0.806	-0.554
Mof_O 	O 	0.923	0.1999	0.4009	-0.541
Mof_O 	O 	0.9381	0.1473	0.2083	-0.553
Mof_O 	O 	0.8307	0.3592	0.291	-0.575
Mof_O 	O 	0.8407	0.3035	0.0988	-0.548
Mof_O 	O 	0.4858	0.3706	0.5148	-0.562
Mof_O 	O 	0.3867	0.4937	0.4889	-0.496
Mof_O 	O 	0.0156	0.3704	0.4876	-0.56
Mof_O 	O 	0.1107	0.4955	0.4961	-0.496
Mof_O 	O 	0.7534	0.3807	0.5146	-0.917
Mof_C 	C 	0.6463	0.2985	0.7996	0.28
Mof_C 	C 	0.5962	0.2061	0.7337	0.298
Mof_C 	C 	0.9103	0.2064	0.2823	0.293
Mof_C 	C 	0.8555	0.2974	0.2175	0.283
Mof_C 	C 	0.463	0.4612	0.5007	0.299
Mof_C 	C 	0.0372	0.4617	0.4948	0.306
Mof_In	In	0.37553	0.83579	0.98304	2.87
Mof_In	In	0.12045	0.83292	0.00012	2.811
Mof_O 	O 	0.3331	0.8644	0.7726	-0.567
Mof_O 	O 	0.3377	0.8013	0.5806	-0.56
Mof_O 	O 	0.4181	0.7025	0.8855	-0.544
Mof_O 	O 	0.4271	0.6422	0.694	-0.553
Mof_O 	O 	0.077	0.6999	0.0991	-0.538
Mof_O 	O 	0.0619	0.6473	0.2917	-0.558
Mof_O 	O 	0.1693	0.8592	0.209	-0.577
Mof_O 	O 	0.1593	0.8035	0.4012	-0.559
Mof_O 	O 	0.5142	0.8706	0.9852	-0.562
Mof_O 	O 	0.6133	0.9937	0.0111	-0.489
Mof_O 	O 	0.9844	0.8704	0.0124	-0.546
Mof_O 	O 	0.8893	0.9955	0.0039	-0.484
Mof_O 	O 	0.2466	0.8807	0.9854	-0.91
Mof_C 	C 	0.3537	0.7985	0.7004	0.281
Mof_C 	C 	0.4038	0.7061	0.7663	0.298
Mof_C 	C 	0.0897	0.7064	0.2177	0.291
Mof_C 	C 	0.1445	0.7974	0.2825	0.283
Mof_C 	C 	0.537	0.9612	0.9993	0.294
Mof_C 	C 	0.9628	0.9617	0.0052	0.309
_end
