data_functionalizedCrystal
_audit_creation_method	'EQeq! by Chris Wilmer'
_symmetry_space_group_name_H-M	'P1'
_symmetry_Int_Tables_number	1
_symmetry_cell_setting	triclinic
loop_
_symmetry_equiv_pos_as_xyz
  x,y,z
_cell_length_a	12.641
_cell_length_b	5.1953
_cell_length_c	21.15
_cell_angle_alpha	90
_cell_angle_beta	95.11
_cell_angle_gamma	90
loop_
_atom_site_label
_atom_site_type_symbol
_atom_site_fract_x
_atom_site_fract_y
_atom_site_fract_z
_atom_site_charge
Mof_Mn	Mn	0.49393	0.21496	0.4297	0.997
Mof_Mn	Mn	0.50116	0.73341	0.3272	1.053
Mof_Mn	Mn	0.10038	0.77792	0.44532	1.094
Mof_P 	P 	0.35972	0.73316	0.4473	0.586
Mof_P 	P 	0.62654	0.24253	0.31363	0.57
Mof_P 	P 	0.02793	0.7014	0.58311	0.563
Mof_O 	O 	0.53766	0.3767	0.34953	-0.556
Mof_O 	O 	0.60123	0.2961	0.24281	-0.449
Mof_O 	O 	0.24598	0.7804	0.42017	-0.396
Mof_O 	O 	0.43347	0.8709	0.40186	-0.544
Mof_O 	O 	0.10565	0.6693	0.53274	-0.425
Mof_O 	O 	0.73267	0.3619	0.33405	-0.269
Mof_O 	O 	0.3824	0.8592	0.5126	-0.488
Mof_O 	O 	0.93155	0.8611	0.56108	-0.468
Mof_O 	O 	0.62322	0.9561	0.32947	-0.431
Mof_O 	O 	0.38435	0.4469	0.45057	-0.459
Mof_O 	O 	0.08957	0.8505	0.63986	-0.362
Mof_O 	O 	0.99469	0.4398	0.60716	-0.415
Mof_H 	H 	0.156	0.773	0.653	0.255
Mof_Zn	Zn	0.50607	0.78504	0.5703	1.218
Mof_Zn	Zn	0.49884	0.26659	0.6728	1.225
Mof_Zn	Zn	0.89962	0.22208	0.55468	1.244
Mof_Mn	Mn	0.50607	0.71496	0.0703	0.999
Mof_Mn	Mn	0.49884	0.23341	0.1728	1.051
Mof_Mn	Mn	0.89962	0.27792	0.05468	1.1
Mof_P 	P 	0.64028	0.23316	0.0527	0.59
Mof_P 	P 	0.37346	0.74253	0.18637	0.572
Mof_P 	P 	0.97207	0.2014	0.91689	0.568
Mof_O 	O 	0.46234	0.8767	0.15047	-0.555
Mof_O 	O 	0.39877	0.7961	0.25719	-0.449
Mof_O 	O 	0.75402	0.2804	0.07983	-0.396
Mof_O 	O 	0.56653	0.3709	0.09814	-0.544
Mof_O 	O 	0.89435	0.1693	0.96726	-0.427
Mof_O 	O 	0.26733	0.8619	0.16595	-0.268
Mof_O 	O 	0.6176	0.3592	0.9874	-0.49
Mof_O 	O 	0.06845	0.3611	0.93892	-0.467
Mof_O 	O 	0.37678	0.4561	0.17053	-0.433
Mof_O 	O 	0.61565	0.9469	0.04943	-0.459
Mof_O 	O 	0.91043	0.3505	0.86014	-0.359
Mof_O 	O 	0.00531	0.9398	0.89284	-0.425
Mof_H 	H 	0.844	0.273	0.847	0.256
Mof_Zn	Zn	0.49393	0.28504	0.9297	1.219
Mof_Zn	Zn	0.50116	0.76659	0.8272	1.223
Mof_Zn	Zn	0.10038	0.72208	0.94532	1.242
Mof_P 	P 	0.64028	0.26684	0.5527	0.562
Mof_P 	P 	0.37346	0.75747	0.68637	0.521
Mof_P 	P 	0.97207	0.2986	0.41689	0.574
Mof_O 	O 	0.46234	0.6233	0.65047	-0.631
Mof_O 	O 	0.39877	0.7039	0.75719	-0.488
Mof_O 	O 	0.75402	0.2196	0.57983	-0.424
Mof_O 	O 	0.56653	0.1291	0.59814	-0.612
Mof_O 	O 	0.89435	0.3307	0.46726	-0.45
Mof_O 	O 	0.26733	0.6381	0.66595	-0.263
Mof_O 	O 	0.6176	0.1408	0.4874	-0.454
Mof_O 	O 	0.06845	0.1389	0.43892	-0.435
Mof_O 	O 	0.37678	0.0439	0.67053	-0.461
Mof_O 	O 	0.61565	0.5531	0.54943	-0.495
Mof_O 	O 	0.91043	0.1495	0.36014	-0.355
Mof_O 	O 	0.00531	0.5602	0.39284	-0.388
Mof_H 	H 	0.844	0.227	0.347	0.253
Mof_P 	P 	0.35972	0.76684	0.9473	0.552
Mof_P 	P 	0.62654	0.25747	0.81363	0.529
Mof_P 	P 	0.02793	0.7986	0.08311	0.579
Mof_O 	O 	0.53766	0.1233	0.84953	-0.626
Mof_O 	O 	0.60123	0.2039	0.74281	-0.485
Mof_O 	O 	0.24598	0.7196	0.92017	-0.426
Mof_O 	O 	0.43347	0.6291	0.90186	-0.615
Mof_O 	O 	0.10565	0.8307	0.03274	-0.448
Mof_O 	O 	0.73267	0.1381	0.83405	-0.262
Mof_O 	O 	0.3824	0.6408	0.0126	-0.449
Mof_O 	O 	0.93155	0.6389	0.06108	-0.439
Mof_O 	O 	0.62322	0.5439	0.82947	-0.472
Mof_O 	O 	0.38435	0.0531	0.95057	-0.489
Mof_O 	O 	0.08957	0.6495	0.13986	-0.354
Mof_O 	O 	0.99469	0.0602	0.10716	-0.393
Mof_H 	H 	0.156	0.727	0.153	0.253
_end
