data_functionalizedCrystal
_audit_creation_method	'EQeq! by Chris Wilmer'
_symmetry_space_group_name_H-M	'P1'
_symmetry_Int_Tables_number	1
_symmetry_cell_setting	triclinic
loop_
_symmetry_equiv_pos_as_xyz
  x,y,z
_cell_length_a	35.3299
_cell_length_b	35.3299
_cell_length_c	35.3299
_cell_angle_alpha	60
_cell_angle_beta	60
_cell_angle_gamma	60
loop_
_atom_site_label
_atom_site_type_symbol
_atom_site_fract_x
_atom_site_fract_y
_atom_site_fract_z
_atom_site_charge
Mof_Zr	Zr	0.06974	0.5	0.93026	3.214
Mof_Zr	Zr	0.5	0.06974	0.5	3.214
Mof_Zr	Zr	0.93026	0.5	0.06974	3.214
Mof_Zr	Zr	0.5	0.93026	0.5	3.214
Mof_Zr	Zr	0.06974	0.93026	0.5	3.214
Mof_Zr	Zr	0.5	0.5	0.93026	3.214
Mof_Zr	Zr	0.93026	0.06974	0.5	3.214
Mof_Zr	Zr	0.5	0.5	0.06974	3.214
Mof_Zr	Zr	0.06974	0.5	0.5	3.214
Mof_Zr	Zr	0.5	0.93026	0.06974	3.214
Mof_Zr	Zr	0.93026	0.5	0.5	3.214
Mof_Zr	Zr	0.5	0.06974	0.93026	3.214
Mof_Zr	Zr	0.03539	0.41466	0.0354	3.177
Mof_Zr	Zr	0.41465	0.0354	0.51455	3.177
Mof_Zr	Zr	0.03539	0.51455	0.0354	3.177
Mof_Zr	Zr	0.51454	0.0354	0.41466	3.177
Mof_Zr	Zr	0.03539	0.0354	0.51455	3.177
Mof_Zr	Zr	0.41465	0.51455	0.0354	3.177
Mof_Zr	Zr	0.03539	0.0354	0.41466	3.177
Mof_Zr	Zr	0.51454	0.41466	0.0354	3.177
Mof_Zr	Zr	0.03539	0.51455	0.41466	3.177
Mof_Zr	Zr	0.41465	0.0354	0.0354	3.177
Mof_Zr	Zr	0.03539	0.41466	0.51455	3.177
Mof_Zr	Zr	0.51454	0.0354	0.0354	3.177
Mof_Zr	Zr	0.58535	0.9646	0.9646	3.177
Mof_Zr	Zr	0.96461	0.58534	0.48545	3.177
Mof_Zr	Zr	0.48546	0.9646	0.9646	3.177
Mof_Zr	Zr	0.96461	0.48545	0.58534	3.177
Mof_Zr	Zr	0.96461	0.9646	0.48545	3.177
Mof_Zr	Zr	0.48546	0.58534	0.9646	3.177
Mof_Zr	Zr	0.96461	0.9646	0.58534	3.177
Mof_Zr	Zr	0.58535	0.48545	0.9646	3.177
Mof_Zr	Zr	0.48546	0.9646	0.58534	3.177
Mof_Zr	Zr	0.96461	0.58534	0.9646	3.177
Mof_Zr	Zr	0.58535	0.9646	0.48545	3.177
Mof_Zr	Zr	0.96461	0.48545	0.9646	3.177
Mof_H 	H 	0.2189	0.3971	0.8783	0.04
Mof_H 	H 	0.3971	0.2189	0.5057	0.04
Mof_H 	H 	0.8783	0.5057	0.2189	0.04
Mof_H 	H 	0.5057	0.8783	0.3971	0.04
Mof_H 	H 	0.2189	0.8783	0.5057	0.04
Mof_H 	H 	0.3971	0.5057	0.8783	0.04
Mof_H 	H 	0.8783	0.2189	0.3971	0.04
Mof_H 	H 	0.5057	0.3971	0.2189	0.04
Mof_H 	H 	0.2189	0.5057	0.3971	0.04
Mof_H 	H 	0.3971	0.8783	0.2189	0.04
Mof_H 	H 	0.8783	0.3971	0.5057	0.04
Mof_H 	H 	0.5057	0.2189	0.8783	0.04
Mof_H 	H 	0.6029	0.7811	0.1217	0.04
Mof_H 	H 	0.7811	0.6029	0.4943	0.04
Mof_H 	H 	0.4943	0.1217	0.7811	0.04
Mof_H 	H 	0.1217	0.4943	0.6029	0.04
Mof_H 	H 	0.1217	0.7811	0.4943	0.04
Mof_H 	H 	0.4943	0.6029	0.1217	0.04
Mof_H 	H 	0.7811	0.1217	0.6029	0.04
Mof_H 	H 	0.6029	0.4943	0.7811	0.04
Mof_H 	H 	0.4943	0.7811	0.6029	0.04
Mof_H 	H 	0.1217	0.6029	0.7811	0.04
Mof_H 	H 	0.6029	0.1217	0.4943	0.04
Mof_H 	H 	0.7811	0.4943	0.1217	0.04
Mof_H 	H 	0.7811	0.6029	0.1217	0.04
Mof_H 	H 	0.6029	0.7811	0.4943	0.04
Mof_H 	H 	0.1217	0.4943	0.7811	0.04
Mof_H 	H 	0.4943	0.1217	0.6029	0.04
Mof_H 	H 	0.7811	0.1217	0.4943	0.04
Mof_H 	H 	0.6029	0.4943	0.1217	0.04
Mof_H 	H 	0.1217	0.7811	0.6029	0.04
Mof_H 	H 	0.4943	0.6029	0.7811	0.04
Mof_H 	H 	0.7811	0.4943	0.6029	0.04
Mof_H 	H 	0.6029	0.1217	0.7811	0.04
Mof_H 	H 	0.1217	0.6029	0.4943	0.04
Mof_H 	H 	0.4943	0.7811	0.1217	0.04
Mof_H 	H 	0.3971	0.2189	0.8783	0.04
Mof_H 	H 	0.2189	0.3971	0.5057	0.04
Mof_H 	H 	0.5057	0.8783	0.2189	0.04
Mof_H 	H 	0.8783	0.5057	0.3971	0.04
Mof_H 	H 	0.8783	0.2189	0.5057	0.04
Mof_H 	H 	0.5057	0.3971	0.8783	0.04
Mof_H 	H 	0.2189	0.8783	0.3971	0.04
Mof_H 	H 	0.3971	0.5057	0.2189	0.04
Mof_H 	H 	0.5057	0.2189	0.3971	0.04
Mof_H 	H 	0.8783	0.3971	0.2189	0.04
Mof_H 	H 	0.3971	0.8783	0.5057	0.04
Mof_H 	H 	0.2189	0.5057	0.8783	0.04
Mof_C 	C 	0.1824	0.3611	0.93998	-0.15
Mof_C 	C 	0.21915	0.36865	0.90177	0.014
Mof_C 	C 	0.258	0.32768	0.90202	-0.011
Mof_C 	C 	0.13579	0.39509	0.95327	0.539
Mof_C 	C 	0.24995	0.29021	0.94105	-0.009
Mof_C 	C 	0.3611	0.1824	0.51652	-0.15
Mof_C 	C 	0.36865	0.21915	0.51043	0.014
Mof_C 	C 	0.32768	0.258	0.5123	-0.011
Mof_C 	C 	0.39509	0.13579	0.51585	0.539
Mof_C 	C 	0.29021	0.24995	0.51879	-0.009
Mof_C 	C 	0.93998	0.51652	0.1824	-0.15
Mof_C 	C 	0.90177	0.51043	0.21915	0.014
Mof_C 	C 	0.90202	0.5123	0.258	-0.011
Mof_C 	C 	0.95327	0.51585	0.13579	0.539
Mof_C 	C 	0.94105	0.51879	0.24995	-0.009
Mof_C 	C 	0.51652	0.93998	0.3611	-0.15
Mof_C 	C 	0.51043	0.90177	0.36865	0.014
Mof_C 	C 	0.5123	0.90202	0.32768	-0.011
Mof_C 	C 	0.51585	0.95327	0.39509	0.539
Mof_C 	C 	0.51879	0.94105	0.29021	-0.009
Mof_C 	C 	0.1824	0.93998	0.51652	-0.15
Mof_C 	C 	0.21915	0.90177	0.51043	0.014
Mof_C 	C 	0.258	0.90202	0.5123	-0.011
Mof_C 	C 	0.13579	0.95327	0.51585	0.539
Mof_C 	C 	0.24995	0.94105	0.51879	-0.009
Mof_C 	C 	0.3611	0.51652	0.93998	-0.15
Mof_C 	C 	0.36865	0.51043	0.90177	0.014
Mof_C 	C 	0.32768	0.5123	0.90202	-0.011
Mof_C 	C 	0.39509	0.51585	0.95327	0.539
Mof_C 	C 	0.29021	0.51879	0.94105	-0.009
Mof_C 	C 	0.93998	0.1824	0.3611	-0.15
Mof_C 	C 	0.90177	0.21915	0.36865	0.014
Mof_C 	C 	0.90202	0.258	0.32768	-0.011
Mof_C 	C 	0.95327	0.13579	0.39509	0.539
Mof_C 	C 	0.94105	0.24995	0.29021	-0.009
Mof_C 	C 	0.51652	0.3611	0.1824	-0.15
Mof_C 	C 	0.51043	0.36865	0.21915	0.014
Mof_C 	C 	0.5123	0.32768	0.258	-0.011
Mof_C 	C 	0.51585	0.39509	0.13579	0.539
Mof_C 	C 	0.51879	0.29021	0.24995	-0.009
Mof_C 	C 	0.1824	0.51652	0.3611	-0.15
Mof_C 	C 	0.21915	0.51043	0.36865	0.014
Mof_C 	C 	0.258	0.5123	0.32768	-0.011
Mof_C 	C 	0.13579	0.51585	0.39509	0.539
Mof_C 	C 	0.24995	0.51879	0.29021	-0.009
Mof_C 	C 	0.3611	0.93998	0.1824	-0.15
Mof_C 	C 	0.36865	0.90177	0.21915	0.014
Mof_C 	C 	0.32768	0.90202	0.258	-0.011
Mof_C 	C 	0.39509	0.95327	0.13579	0.539
Mof_C 	C 	0.29021	0.94105	0.24995	-0.009
Mof_C 	C 	0.93998	0.3611	0.51652	-0.15
Mof_C 	C 	0.90177	0.36865	0.51043	0.014
Mof_C 	C 	0.90202	0.32768	0.5123	-0.011
Mof_C 	C 	0.95327	0.39509	0.51585	0.539
Mof_C 	C 	0.94105	0.29021	0.51879	-0.009
Mof_C 	C 	0.51652	0.1824	0.93998	-0.15
Mof_C 	C 	0.51043	0.21915	0.90177	0.014
Mof_C 	C 	0.5123	0.258	0.90202	-0.011
Mof_C 	C 	0.51585	0.13579	0.95327	0.539
Mof_C 	C 	0.51879	0.24995	0.94105	-0.009
Mof_C 	C 	0.6389	0.8176	0.06002	-0.15
Mof_C 	C 	0.63135	0.78085	0.09823	0.014
Mof_C 	C 	0.67232	0.742	0.09798	-0.011
Mof_C 	C 	0.60491	0.86421	0.04673	0.539
Mof_C 	C 	0.70979	0.75005	0.05895	-0.009
Mof_C 	C 	0.8176	0.6389	0.48348	-0.15
Mof_C 	C 	0.78085	0.63135	0.48957	0.014
Mof_C 	C 	0.742	0.67232	0.4877	-0.011
Mof_C 	C 	0.86421	0.60491	0.48415	0.539
Mof_C 	C 	0.75005	0.70979	0.48121	-0.009
Mof_C 	C 	0.48348	0.06002	0.8176	-0.15
Mof_C 	C 	0.48957	0.09823	0.78085	0.014
Mof_C 	C 	0.4877	0.09798	0.742	-0.011
Mof_C 	C 	0.48415	0.04673	0.86421	0.539
Mof_C 	C 	0.48121	0.05895	0.75005	-0.009
Mof_C 	C 	0.06002	0.48348	0.6389	-0.15
Mof_C 	C 	0.09823	0.48957	0.63135	0.014
Mof_C 	C 	0.09798	0.4877	0.67232	-0.011
Mof_C 	C 	0.04673	0.48415	0.60491	0.539
Mof_C 	C 	0.05895	0.48121	0.70979	-0.009
Mof_C 	C 	0.06002	0.8176	0.48348	-0.15
Mof_C 	C 	0.09823	0.78085	0.48957	0.014
Mof_C 	C 	0.09798	0.742	0.4877	-0.011
Mof_C 	C 	0.04673	0.86421	0.48415	0.539
Mof_C 	C 	0.05895	0.75005	0.48121	-0.009
Mof_C 	C 	0.48348	0.6389	0.06002	-0.15
Mof_C 	C 	0.48957	0.63135	0.09823	0.014
Mof_C 	C 	0.4877	0.67232	0.09798	-0.011
Mof_C 	C 	0.48415	0.60491	0.04673	0.539
Mof_C 	C 	0.48121	0.70979	0.05895	-0.009
Mof_C 	C 	0.8176	0.06002	0.6389	-0.15
Mof_C 	C 	0.78085	0.09823	0.63135	0.014
Mof_C 	C 	0.742	0.09798	0.67232	-0.011
Mof_C 	C 	0.86421	0.04673	0.60491	0.539
Mof_C 	C 	0.75005	0.05895	0.70979	-0.009
Mof_C 	C 	0.6389	0.48348	0.8176	-0.15
Mof_C 	C 	0.63135	0.48957	0.78085	0.014
Mof_C 	C 	0.67232	0.4877	0.742	-0.011
Mof_C 	C 	0.60491	0.48415	0.86421	0.539
Mof_C 	C 	0.70979	0.48121	0.75005	-0.009
Mof_C 	C 	0.48348	0.8176	0.6389	-0.15
Mof_C 	C 	0.48957	0.78085	0.63135	0.014
Mof_C 	C 	0.4877	0.742	0.67232	-0.011
Mof_C 	C 	0.48415	0.86421	0.60491	0.539
Mof_C 	C 	0.48121	0.75005	0.70979	-0.009
Mof_C 	C 	0.06002	0.6389	0.8176	-0.15
Mof_C 	C 	0.09823	0.63135	0.78085	0.014
Mof_C 	C 	0.09798	0.67232	0.742	-0.011
Mof_C 	C 	0.04673	0.60491	0.86421	0.539
Mof_C 	C 	0.05895	0.70979	0.75005	-0.009
Mof_C 	C 	0.6389	0.06002	0.48348	-0.15
Mof_C 	C 	0.63135	0.09823	0.48957	0.014
Mof_C 	C 	0.67232	0.09798	0.4877	-0.011
Mof_C 	C 	0.60491	0.04673	0.48415	0.539
Mof_C 	C 	0.70979	0.05895	0.48121	-0.009
Mof_C 	C 	0.8176	0.48348	0.06002	-0.15
Mof_C 	C 	0.78085	0.48957	0.09823	0.014
Mof_C 	C 	0.742	0.4877	0.09798	-0.011
Mof_C 	C 	0.86421	0.48415	0.04673	0.539
Mof_C 	C 	0.75005	0.48121	0.05895	-0.009
Mof_C 	C 	0.8176	0.6389	0.06002	-0.15
Mof_C 	C 	0.78085	0.63135	0.09823	0.014
Mof_C 	C 	0.742	0.67232	0.09798	-0.011
Mof_C 	C 	0.86421	0.60491	0.04673	0.539
Mof_C 	C 	0.75005	0.70979	0.05895	-0.009
Mof_C 	C 	0.6389	0.8176	0.48348	-0.15
Mof_C 	C 	0.63135	0.78085	0.48957	0.014
Mof_C 	C 	0.67232	0.742	0.4877	-0.011
Mof_C 	C 	0.60491	0.86421	0.48415	0.539
Mof_C 	C 	0.70979	0.75005	0.48121	-0.009
Mof_C 	C 	0.06002	0.48348	0.8176	-0.15
Mof_C 	C 	0.09823	0.48957	0.78085	0.014
Mof_C 	C 	0.09798	0.4877	0.742	-0.011
Mof_C 	C 	0.04673	0.48415	0.86421	0.539
Mof_C 	C 	0.05895	0.48121	0.75005	-0.009
Mof_C 	C 	0.48348	0.06002	0.6389	-0.15
Mof_C 	C 	0.48957	0.09823	0.63135	0.014
Mof_C 	C 	0.4877	0.09798	0.67232	-0.011
Mof_C 	C 	0.48415	0.04673	0.60491	0.539
Mof_C 	C 	0.48121	0.05895	0.70979	-0.009
Mof_C 	C 	0.8176	0.06002	0.48348	-0.15
Mof_C 	C 	0.78085	0.09823	0.48957	0.014
Mof_C 	C 	0.742	0.09798	0.4877	-0.011
Mof_C 	C 	0.86421	0.04673	0.48415	0.539
Mof_C 	C 	0.75005	0.05895	0.48121	-0.009
Mof_C 	C 	0.6389	0.48348	0.06002	-0.15
Mof_C 	C 	0.63135	0.48957	0.09823	0.014
Mof_C 	C 	0.67232	0.4877	0.09798	-0.011
Mof_C 	C 	0.60491	0.48415	0.04673	0.539
Mof_C 	C 	0.70979	0.48121	0.05895	-0.009
Mof_C 	C 	0.06002	0.8176	0.6389	-0.15
Mof_C 	C 	0.09823	0.78085	0.63135	0.014
Mof_C 	C 	0.09798	0.742	0.67232	-0.011
Mof_C 	C 	0.04673	0.86421	0.60491	0.539
Mof_C 	C 	0.05895	0.75005	0.70979	-0.009
Mof_C 	C 	0.48348	0.6389	0.8176	-0.15
Mof_C 	C 	0.48957	0.63135	0.78085	0.014
Mof_C 	C 	0.4877	0.67232	0.742	-0.011
Mof_C 	C 	0.48415	0.60491	0.86421	0.539
Mof_C 	C 	0.48121	0.70979	0.75005	-0.009
Mof_C 	C 	0.8176	0.48348	0.6389	-0.15
Mof_C 	C 	0.78085	0.48957	0.63135	0.014
Mof_C 	C 	0.742	0.4877	0.67232	-0.011
Mof_C 	C 	0.86421	0.48415	0.60491	0.539
Mof_C 	C 	0.75005	0.48121	0.70979	-0.009
Mof_C 	C 	0.6389	0.06002	0.8176	-0.15
Mof_C 	C 	0.63135	0.09823	0.78085	0.014
Mof_C 	C 	0.67232	0.09798	0.742	-0.011
Mof_C 	C 	0.60491	0.04673	0.86421	0.539
Mof_C 	C 	0.70979	0.05895	0.75005	-0.009
Mof_C 	C 	0.06002	0.6389	0.48348	-0.15
Mof_C 	C 	0.09823	0.63135	0.48957	0.014
Mof_C 	C 	0.09798	0.67232	0.4877	-0.011
Mof_C 	C 	0.04673	0.60491	0.48415	0.539
Mof_C 	C 	0.05895	0.70979	0.48121	-0.009
Mof_C 	C 	0.48348	0.8176	0.06002	-0.15
Mof_C 	C 	0.48957	0.78085	0.09823	0.014
Mof_C 	C 	0.4877	0.742	0.09798	-0.011
Mof_C 	C 	0.48415	0.86421	0.04673	0.539
Mof_C 	C 	0.48121	0.75005	0.05895	-0.009
Mof_C 	C 	0.3611	0.1824	0.93998	-0.15
Mof_C 	C 	0.36865	0.21915	0.90177	0.014
Mof_C 	C 	0.32768	0.258	0.90202	-0.011
Mof_C 	C 	0.39509	0.13579	0.95327	0.539
Mof_C 	C 	0.29021	0.24995	0.94105	-0.009
Mof_C 	C 	0.1824	0.3611	0.51652	-0.15
Mof_C 	C 	0.21915	0.36865	0.51043	0.014
Mof_C 	C 	0.258	0.32768	0.5123	-0.011
Mof_C 	C 	0.13579	0.39509	0.51585	0.539
Mof_C 	C 	0.24995	0.29021	0.51879	-0.009
Mof_C 	C 	0.51652	0.93998	0.1824	-0.15
Mof_C 	C 	0.51043	0.90177	0.21915	0.014
Mof_C 	C 	0.5123	0.90202	0.258	-0.011
Mof_C 	C 	0.51585	0.95327	0.13579	0.539
Mof_C 	C 	0.51879	0.94105	0.24995	-0.009
Mof_C 	C 	0.93998	0.51652	0.3611	-0.15
Mof_C 	C 	0.90177	0.51043	0.36865	0.014
Mof_C 	C 	0.90202	0.5123	0.32768	-0.011
Mof_C 	C 	0.95327	0.51585	0.39509	0.539
Mof_C 	C 	0.94105	0.51879	0.29021	-0.009
Mof_C 	C 	0.93998	0.1824	0.51652	-0.15
Mof_C 	C 	0.90177	0.21915	0.51043	0.014
Mof_C 	C 	0.90202	0.258	0.5123	-0.011
Mof_C 	C 	0.95327	0.13579	0.51585	0.539
Mof_C 	C 	0.94105	0.24995	0.51879	-0.009
Mof_C 	C 	0.51652	0.3611	0.93998	-0.15
Mof_C 	C 	0.51043	0.36865	0.90177	0.014
Mof_C 	C 	0.5123	0.32768	0.90202	-0.011
Mof_C 	C 	0.51585	0.39509	0.95327	0.539
Mof_C 	C 	0.51879	0.29021	0.94105	-0.009
Mof_C 	C 	0.1824	0.93998	0.3611	-0.15
Mof_C 	C 	0.21915	0.90177	0.36865	0.014
Mof_C 	C 	0.258	0.90202	0.32768	-0.011
Mof_C 	C 	0.13579	0.95327	0.39509	0.539
Mof_C 	C 	0.24995	0.94105	0.29021	-0.009
Mof_C 	C 	0.3611	0.51652	0.1824	-0.15
Mof_C 	C 	0.36865	0.51043	0.21915	0.014
Mof_C 	C 	0.32768	0.5123	0.258	-0.011
Mof_C 	C 	0.39509	0.51585	0.13579	0.539
Mof_C 	C 	0.29021	0.51879	0.24995	-0.009
Mof_C 	C 	0.51652	0.1824	0.3611	-0.15
Mof_C 	C 	0.51043	0.21915	0.36865	0.014
Mof_C 	C 	0.5123	0.258	0.32768	-0.011
Mof_C 	C 	0.51585	0.13579	0.39509	0.539
Mof_C 	C 	0.51879	0.24995	0.29021	-0.009
Mof_C 	C 	0.93998	0.3611	0.1824	-0.15
Mof_C 	C 	0.90177	0.36865	0.21915	0.014
Mof_C 	C 	0.90202	0.32768	0.258	-0.011
Mof_C 	C 	0.95327	0.39509	0.13579	0.539
Mof_C 	C 	0.94105	0.29021	0.24995	-0.009
Mof_C 	C 	0.3611	0.93998	0.51652	-0.15
Mof_C 	C 	0.36865	0.90177	0.51043	0.014
Mof_C 	C 	0.32768	0.90202	0.5123	-0.011
Mof_C 	C 	0.39509	0.95327	0.51585	0.539
Mof_C 	C 	0.29021	0.94105	0.51879	-0.009
Mof_C 	C 	0.1824	0.51652	0.93998	-0.15
Mof_C 	C 	0.21915	0.51043	0.90177	0.014
Mof_C 	C 	0.258	0.5123	0.90202	-0.011
Mof_C 	C 	0.13579	0.51585	0.95327	0.539
Mof_C 	C 	0.24995	0.51879	0.94105	-0.009
Mof_S 	S 	0.19437	0.30457	0.97803	-0.032
Mof_S 	S 	0.30457	0.19437	0.52303	-0.034
Mof_S 	S 	0.97803	0.52303	0.19437	-0.032
Mof_S 	S 	0.52303	0.97803	0.30457	-0.032
Mof_S 	S 	0.19437	0.97803	0.52303	-0.032
Mof_S 	S 	0.30457	0.52303	0.97803	-0.032
Mof_S 	S 	0.97803	0.19437	0.30457	-0.032
Mof_S 	S 	0.52303	0.30457	0.19437	-0.034
Mof_S 	S 	0.19437	0.52303	0.30457	-0.034
Mof_S 	S 	0.30457	0.97803	0.19437	-0.032
Mof_S 	S 	0.97803	0.30457	0.52303	-0.032
Mof_S 	S 	0.52303	0.19437	0.97803	-0.032
Mof_S 	S 	0.69543	0.80563	0.02197	-0.032
Mof_S 	S 	0.80563	0.69543	0.47697	-0.034
Mof_S 	S 	0.47697	0.02197	0.80563	-0.032
Mof_S 	S 	0.02197	0.47697	0.69543	-0.032
Mof_S 	S 	0.02197	0.80563	0.47697	-0.032
Mof_S 	S 	0.47697	0.69543	0.02197	-0.032
Mof_S 	S 	0.80563	0.02197	0.69543	-0.032
Mof_S 	S 	0.69543	0.47697	0.80563	-0.034
Mof_S 	S 	0.47697	0.80563	0.69543	-0.034
Mof_S 	S 	0.02197	0.69543	0.80563	-0.032
Mof_S 	S 	0.69543	0.02197	0.47697	-0.032
Mof_S 	S 	0.80563	0.47697	0.02197	-0.032
Mof_S 	S 	0.80563	0.69543	0.02197	-0.032
Mof_S 	S 	0.69543	0.80563	0.47697	-0.034
Mof_S 	S 	0.02197	0.47697	0.80563	-0.032
Mof_S 	S 	0.47697	0.02197	0.69543	-0.032
Mof_S 	S 	0.80563	0.02197	0.47697	-0.032
Mof_S 	S 	0.69543	0.47697	0.02197	-0.032
Mof_S 	S 	0.02197	0.80563	0.69543	-0.032
Mof_S 	S 	0.47697	0.69543	0.80563	-0.034
Mof_S 	S 	0.80563	0.47697	0.69543	-0.034
Mof_S 	S 	0.69543	0.02197	0.80563	-0.032
Mof_S 	S 	0.02197	0.69543	0.47697	-0.032
Mof_S 	S 	0.47697	0.80563	0.02197	-0.032
Mof_S 	S 	0.30457	0.19437	0.97803	-0.032
Mof_S 	S 	0.19437	0.30457	0.52303	-0.034
Mof_S 	S 	0.52303	0.97803	0.19437	-0.032
Mof_S 	S 	0.97803	0.52303	0.30457	-0.032
Mof_S 	S 	0.97803	0.19437	0.52303	-0.032
Mof_S 	S 	0.52303	0.30457	0.97803	-0.032
Mof_S 	S 	0.19437	0.97803	0.30457	-0.032
Mof_S 	S 	0.30457	0.52303	0.19437	-0.034
Mof_S 	S 	0.52303	0.19437	0.30457	-0.034
Mof_S 	S 	0.97803	0.30457	0.19437	-0.032
Mof_S 	S 	0.30457	0.97803	0.52303	-0.032
Mof_S 	S 	0.19437	0.52303	0.97803	-0.032
Mof_S 	S 	0.31461	0.31461	0.86423	-0.017
Mof_S 	S 	0.31461	0.31461	0.50655	-0.017
Mof_S 	S 	0.86423	0.50655	0.31461	-0.017
Mof_S 	S 	0.50655	0.86423	0.31461	-0.017
Mof_S 	S 	0.31461	0.86423	0.50655	-0.017
Mof_S 	S 	0.31461	0.50655	0.86423	-0.017
Mof_S 	S 	0.86423	0.31461	0.31461	-0.017
Mof_S 	S 	0.50655	0.31461	0.31461	-0.017
Mof_S 	S 	0.31461	0.50655	0.31461	-0.017
Mof_S 	S 	0.31461	0.86423	0.31461	-0.017
Mof_S 	S 	0.86423	0.31461	0.50655	-0.017
Mof_S 	S 	0.50655	0.31461	0.86423	-0.017
Mof_S 	S 	0.68539	0.68539	0.13577	-0.017
Mof_S 	S 	0.68539	0.68539	0.49345	-0.017
Mof_S 	S 	0.49345	0.13577	0.68539	-0.017
Mof_S 	S 	0.13577	0.49345	0.68539	-0.017
Mof_S 	S 	0.13577	0.68539	0.49345	-0.017
Mof_S 	S 	0.49345	0.68539	0.13577	-0.017
Mof_S 	S 	0.68539	0.13577	0.68539	-0.017
Mof_S 	S 	0.68539	0.49345	0.68539	-0.017
Mof_S 	S 	0.49345	0.68539	0.68539	-0.017
Mof_S 	S 	0.13577	0.68539	0.68539	-0.017
Mof_S 	S 	0.68539	0.13577	0.49345	-0.017
Mof_S 	S 	0.68539	0.49345	0.13577	-0.017
Mof_O 	O 	0.12896	0.43546	0.92462	-0.662
Mof_O 	O 	0.10734	0.38048	0.99202	-0.77
Mof_O 	O 	0.43546	0.12896	0.51096	-0.663
Mof_O 	O 	0.38048	0.10734	0.52016	-0.771
Mof_O 	O 	0.92462	0.51096	0.12896	-0.662
Mof_O 	O 	0.99202	0.52016	0.10734	-0.77
Mof_O 	O 	0.51096	0.92462	0.43546	-0.663
Mof_O 	O 	0.52016	0.99202	0.38048	-0.771
Mof_O 	O 	0.12896	0.92462	0.51096	-0.662
Mof_O 	O 	0.10734	0.99202	0.52016	-0.77
Mof_O 	O 	0.43546	0.51096	0.92462	-0.663
Mof_O 	O 	0.38048	0.52016	0.99202	-0.771
Mof_O 	O 	0.92462	0.12896	0.43546	-0.662
Mof_O 	O 	0.99202	0.10734	0.38048	-0.77
Mof_O 	O 	0.51096	0.43546	0.12896	-0.663
Mof_O 	O 	0.52016	0.38048	0.10734	-0.771
Mof_O 	O 	0.12896	0.51096	0.43546	-0.663
Mof_O 	O 	0.10734	0.52016	0.38048	-0.771
Mof_O 	O 	0.43546	0.92462	0.12896	-0.662
Mof_O 	O 	0.38048	0.99202	0.10734	-0.77
Mof_O 	O 	0.92462	0.43546	0.51096	-0.663
Mof_O 	O 	0.99202	0.38048	0.52016	-0.771
Mof_O 	O 	0.51096	0.12896	0.92462	-0.662
Mof_O 	O 	0.52016	0.10734	0.99202	-0.77
Mof_O 	O 	0.56454	0.87104	0.07538	-0.662
Mof_O 	O 	0.61952	0.89266	0.00798	-0.77
Mof_O 	O 	0.87104	0.56454	0.48904	-0.663
Mof_O 	O 	0.89266	0.61952	0.47984	-0.771
Mof_O 	O 	0.48904	0.07538	0.87104	-0.662
Mof_O 	O 	0.47984	0.00798	0.89266	-0.77
Mof_O 	O 	0.07538	0.48904	0.56454	-0.663
Mof_O 	O 	0.00798	0.47984	0.61952	-0.771
Mof_O 	O 	0.07538	0.87104	0.48904	-0.662
Mof_O 	O 	0.00798	0.89266	0.47984	-0.77
Mof_O 	O 	0.48904	0.56454	0.07538	-0.663
Mof_O 	O 	0.47984	0.61952	0.00798	-0.771
Mof_O 	O 	0.87104	0.07538	0.56454	-0.662
Mof_O 	O 	0.89266	0.00798	0.61952	-0.77
Mof_O 	O 	0.56454	0.48904	0.87104	-0.663
Mof_O 	O 	0.61952	0.47984	0.89266	-0.771
Mof_O 	O 	0.48904	0.87104	0.56454	-0.663
Mof_O 	O 	0.47984	0.89266	0.61952	-0.771
Mof_O 	O 	0.07538	0.56454	0.87104	-0.662
Mof_O 	O 	0.00798	0.61952	0.89266	-0.77
Mof_O 	O 	0.56454	0.07538	0.48904	-0.663
Mof_O 	O 	0.61952	0.00798	0.47984	-0.771
Mof_O 	O 	0.87104	0.48904	0.07538	-0.662
Mof_O 	O 	0.89266	0.47984	0.00798	-0.77
Mof_O 	O 	0.87104	0.56454	0.07538	-0.662
Mof_O 	O 	0.89266	0.61952	0.00798	-0.77
Mof_O 	O 	0.56454	0.87104	0.48904	-0.663
Mof_O 	O 	0.61952	0.89266	0.47984	-0.771
Mof_O 	O 	0.07538	0.48904	0.87104	-0.662
Mof_O 	O 	0.00798	0.47984	0.89266	-0.77
Mof_O 	O 	0.48904	0.07538	0.56454	-0.663
Mof_O 	O 	0.47984	0.00798	0.61952	-0.771
Mof_O 	O 	0.87104	0.07538	0.48904	-0.662
Mof_O 	O 	0.89266	0.00798	0.47984	-0.77
Mof_O 	O 	0.56454	0.48904	0.07538	-0.663
Mof_O 	O 	0.61952	0.47984	0.00798	-0.771
Mof_O 	O 	0.07538	0.87104	0.56454	-0.662
Mof_O 	O 	0.00798	0.89266	0.61952	-0.77
Mof_O 	O 	0.48904	0.56454	0.87104	-0.663
Mof_O 	O 	0.47984	0.61952	0.89266	-0.771
Mof_O 	O 	0.87104	0.48904	0.56454	-0.663
Mof_O 	O 	0.89266	0.47984	0.61952	-0.771
Mof_O 	O 	0.56454	0.07538	0.87104	-0.662
Mof_O 	O 	0.61952	0.00798	0.89266	-0.77
Mof_O 	O 	0.07538	0.56454	0.48904	-0.663
Mof_O 	O 	0.00798	0.61952	0.47984	-0.771
Mof_O 	O 	0.48904	0.87104	0.07538	-0.662
Mof_O 	O 	0.47984	0.89266	0.00798	-0.77
Mof_O 	O 	0.43546	0.12896	0.92462	-0.662
Mof_O 	O 	0.38048	0.10734	0.99202	-0.77
Mof_O 	O 	0.12896	0.43546	0.51096	-0.663
Mof_O 	O 	0.10734	0.38048	0.52016	-0.771
Mof_O 	O 	0.51096	0.92462	0.12896	-0.662
Mof_O 	O 	0.52016	0.99202	0.10734	-0.77
Mof_O 	O 	0.92462	0.51096	0.43546	-0.663
Mof_O 	O 	0.99202	0.52016	0.38048	-0.771
Mof_O 	O 	0.92462	0.12896	0.51096	-0.662
Mof_O 	O 	0.99202	0.10734	0.52016	-0.77
Mof_O 	O 	0.51096	0.43546	0.92462	-0.663
Mof_O 	O 	0.52016	0.38048	0.99202	-0.771
Mof_O 	O 	0.12896	0.92462	0.43546	-0.662
Mof_O 	O 	0.10734	0.99202	0.38048	-0.77
Mof_O 	O 	0.43546	0.51096	0.12896	-0.663
Mof_O 	O 	0.38048	0.52016	0.10734	-0.771
Mof_O 	O 	0.51096	0.12896	0.43546	-0.663
Mof_O 	O 	0.52016	0.10734	0.38048	-0.771
Mof_O 	O 	0.92462	0.43546	0.12896	-0.662
Mof_O 	O 	0.99202	0.38048	0.10734	-0.77
Mof_O 	O 	0.43546	0.92462	0.51096	-0.663
Mof_O 	O 	0.38048	0.99202	0.52016	-0.771
Mof_O 	O 	0.12896	0.51096	0.92462	-0.662
Mof_O 	O 	0.10734	0.52016	0.99202	-0.77
Mof_O 	O 	0.06863	0.46509	0.00119	-1.353
Mof_O 	O 	0.46509	0.06863	0.46509	-1.351
Mof_O 	O 	0.00119	0.46509	0.06863	-1.353
Mof_O 	O 	0.46509	0.00119	0.46509	-1.351
Mof_O 	O 	0.06863	0.00119	0.46509	-1.353
Mof_O 	O 	0.46509	0.46509	0.00119	-1.351
Mof_O 	O 	0.00119	0.06863	0.46509	-1.353
Mof_O 	O 	0.46509	0.46509	0.06863	-1.351
Mof_O 	O 	0.06863	0.46509	0.46509	-1.351
Mof_O 	O 	0.46509	0.00119	0.06863	-1.353
Mof_O 	O 	0.00119	0.46509	0.46509	-1.351
Mof_O 	O 	0.46509	0.06863	0.00119	-1.353
Mof_O 	O 	0.53491	0.93137	0.99881	-1.353
Mof_O 	O 	0.93137	0.53491	0.53491	-1.351
Mof_O 	O 	0.53491	0.99881	0.93137	-1.353
Mof_O 	O 	0.99881	0.53491	0.53491	-1.351
Mof_O 	O 	0.99881	0.93137	0.53491	-1.353
Mof_O 	O 	0.53491	0.53491	0.99881	-1.351
Mof_O 	O 	0.93137	0.99881	0.53491	-1.353
Mof_O 	O 	0.53491	0.53491	0.93137	-1.351
Mof_O 	O 	0.53491	0.93137	0.53491	-1.351
Mof_O 	O 	0.99881	0.53491	0.93137	-1.353
Mof_O 	O 	0.53491	0.99881	0.53491	-1.351
Mof_O 	O 	0.93137	0.53491	0.99881	-1.353
Mof_O 	O 	0.03417	0.54995	0.96583	-1.329
Mof_O 	O 	0.54995	0.03417	0.45005	-1.331
Mof_O 	O 	0.96583	0.45005	0.03417	-1.329
Mof_O 	O 	0.45005	0.96583	0.54995	-1.331
Mof_O 	O 	0.03417	0.96583	0.45005	-1.329
Mof_O 	O 	0.54995	0.45005	0.96583	-1.331
Mof_O 	O 	0.96583	0.03417	0.54995	-1.329
Mof_O 	O 	0.45005	0.54995	0.03417	-1.331
Mof_O 	O 	0.03417	0.45005	0.54995	-1.331
Mof_O 	O 	0.54995	0.96583	0.03417	-1.329
Mof_O 	O 	0.96583	0.54995	0.45005	-1.331
Mof_O 	O 	0.45005	0.03417	0.96583	-1.329
Mof_O 	O 	0.45005	0.96583	0.03417	-1.329
Mof_O 	O 	0.96583	0.45005	0.54995	-1.331
Mof_O 	O 	0.54995	0.03417	0.96583	-1.329
Mof_O 	O 	0.03417	0.54995	0.45005	-1.331
Mof_O 	O 	0.03417	0.96583	0.54995	-1.329
Mof_O 	O 	0.54995	0.45005	0.03417	-1.331
Mof_O 	O 	0.96583	0.03417	0.45005	-1.329
Mof_O 	O 	0.45005	0.54995	0.96583	-1.331
Mof_O 	O 	0.54995	0.96583	0.45005	-1.331
Mof_O 	O 	0.03417	0.45005	0.96583	-1.329
Mof_O 	O 	0.45005	0.03417	0.54995	-1.331
Mof_O 	O 	0.96583	0.54995	0.03417	-1.329
_end
