data_functionalizedCrystal
_audit_creation_method	'EQeq! by Chris Wilmer'
_symmetry_space_group_name_H-M	'P1'
_symmetry_Int_Tables_number	1
_symmetry_cell_setting	triclinic
loop_
_symmetry_equiv_pos_as_xyz
  x,y,z
_cell_length_a	9.306
_cell_length_b	11.5365
_cell_length_c	17.348
_cell_angle_alpha	104.95
_cell_angle_beta	90
_cell_angle_gamma	113.787
loop_
_atom_site_label
_atom_site_type_symbol
_atom_site_fract_x
_atom_site_fract_y
_atom_site_fract_z
_atom_site_charge
Mof_Pr	Pr	0.67004	0.97253	0.92686	2.699
Mof_Pr	Pr	0.69751	0.02747	0.57314	2.736
Mof_Pr	Pr	0.32996	0.02747	0.07314	2.699
Mof_Pr	Pr	0.30249	0.97253	0.42686	2.736
Mof_Cu	Cu	0.09435	0.32926	0.13574	0.84
Mof_Cu	Cu	0.76509	0.67074	0.36426	0.842
Mof_Cu	Cu	0.90565	0.67074	0.86426	0.841
Mof_Cu	Cu	0.23491	0.32926	0.63574	0.843
Mof_H 	H 	0.5614	0.1964	0.7791	0.035
Mof_H 	H 	0.5016	0.2962	0.6928	-0.018
Mof_H 	H 	0.0916	0.2304	0.7672	0.009
Mof_H 	H 	0.14	0.1318	0.8571	0.034
Mof_H 	H 	0.1815	0.7178	0.0538	0.009
Mof_H 	H 	0.0822	0.5638	0.123	-0.003
Mof_H 	H 	0.2784	0.3502	0.9977	0.012
Mof_H 	H 	0.3903	0.5036	0.9273	0.039
Mof_H 	H 	0.365	0.8036	0.7209	0.031
Mof_H 	H 	0.2054	0.7038	0.8072	-0.016
Mof_H 	H 	0.8612	0.7696	0.7328	0.018
Mof_H 	H 	0.0082	0.8682	0.6429	0.027
Mof_H 	H 	0.4637	0.2822	0.4462	0.008
Mof_H 	H 	0.5184	0.4362	0.377	-0.003
Mof_H 	H 	0.9282	0.6498	0.5023	0.004
Mof_H 	H 	0.8867	0.4964	0.5727	0.041
Mof_H 	H 	0.4386	0.8036	0.2209	0.035
Mof_H 	H 	0.4984	0.7038	0.3072	-0.018
Mof_H 	H 	0.9084	0.7696	0.2328	0.009
Mof_H 	H 	0.86	0.8682	0.1429	0.034
Mof_H 	H 	0.8185	0.2822	0.9462	0.009
Mof_H 	H 	0.9178	0.4362	0.877	-0.003
Mof_H 	H 	0.7216	0.6498	0.0023	0.012
Mof_H 	H 	0.6097	0.4964	0.0727	0.039
Mof_H 	H 	0.635	0.1964	0.2791	0.031
Mof_H 	H 	0.7946	0.2962	0.1928	-0.016
Mof_H 	H 	0.1388	0.2304	0.2672	0.018
Mof_H 	H 	0.9918	0.1318	0.3571	0.027
Mof_H 	H 	0.5363	0.7178	0.5538	0.008
Mof_H 	H 	0.4816	0.5638	0.623	-0.003
Mof_H 	H 	0.0718	0.3502	0.4977	0.004
Mof_H 	H 	0.1133	0.5036	0.4273	0.041
Mof_C 	C 	0.38875	0.0815	0.88305	0.52
Mof_C 	C 	0.35505	0.1507	0.82715	-0.129
Mof_C 	C 	0.4642	0.2014	0.7775	-0.012
Mof_C 	C 	0.4265	0.2602	0.7253	0.017
Mof_C 	C 	0.1868	0.2222	0.769	0.011
Mof_C 	C 	0.2151	0.163	0.8234	-0.008
Mof_C 	C 	0.39315	0.7427	0.94923	0.416
Mof_C 	C 	0.30494	0.63188	0.9858	-0.12
Mof_C 	C 	0.2071	0.6456	0.0427	-0.005
Mof_C 	C 	0.1468	0.5518	0.0837	0.007
Mof_C 	C 	0.2622	0.4272	0.0108	0.014
Mof_C 	C 	0.3294	0.519	0.9678	-0.025
Mof_C 	C 	0.98042	0.92824	0.97657	0.266
Mof_C 	C 	0.70685	0.9251	0.73189	0.264
Mof_C 	C 	0.30725	0.9185	0.61695	0.529
Mof_C 	C 	0.20435	0.8493	0.67285	-0.141
Mof_C 	C 	0.2628	0.7986	0.7225	-0.002
Mof_C 	C 	0.1663	0.7398	0.7747	0.012
Mof_C 	C 	0.9646	0.7778	0.731	-0.014
Mof_C 	C 	0.0521	0.837	0.6766	0.015
Mof_C 	C 	0.65045	0.2573	0.55077	0.417
Mof_C 	C 	0.67306	0.36812	0.5142	-0.117
Mof_C 	C 	0.5615	0.3544	0.4573	-0.006
Mof_C 	C 	0.595	0.4482	0.4163	0.009
Mof_C 	C 	0.835	0.5728	0.4892	0.028
Mof_C 	C 	0.8104	0.481	0.5322	-0.034
Mof_C 	C 	0.05218	0.07176	0.52343	0.273
Mof_C 	C 	0.78175	0.0749	0.76811	0.277
Mof_C 	C 	0.61125	0.9185	0.11695	0.52
Mof_C 	C 	0.64495	0.8493	0.17285	-0.129
Mof_C 	C 	0.5358	0.7986	0.2225	-0.012
Mof_C 	C 	0.5735	0.7398	0.2747	0.017
Mof_C 	C 	0.8132	0.7778	0.231	0.011
Mof_C 	C 	0.7849	0.837	0.1766	-0.008
Mof_C 	C 	0.60685	0.2573	0.05077	0.416
Mof_C 	C 	0.69506	0.36812	0.0142	-0.12
Mof_C 	C 	0.7929	0.3544	0.9573	-0.005
Mof_C 	C 	0.8532	0.4482	0.9163	0.007
Mof_C 	C 	0.7378	0.5728	0.9892	0.014
Mof_C 	C 	0.6706	0.481	0.0322	-0.025
Mof_C 	C 	0.01958	0.07176	0.02343	0.266
Mof_C 	C 	0.29315	0.0749	0.26811	0.264
Mof_C 	C 	0.69275	0.0815	0.38305	0.529
Mof_C 	C 	0.79565	0.1507	0.32715	-0.141
Mof_C 	C 	0.7372	0.2014	0.2775	-0.002
Mof_C 	C 	0.8337	0.2602	0.2253	0.012
Mof_C 	C 	0.0354	0.2222	0.269	-0.014
Mof_C 	C 	0.9479	0.163	0.3234	0.015
Mof_C 	C 	0.34955	0.7427	0.44923	0.417
Mof_C 	C 	0.32694	0.63188	0.4858	-0.117
Mof_C 	C 	0.4385	0.6456	0.5427	-0.006
Mof_C 	C 	0.405	0.5518	0.5837	0.009
Mof_C 	C 	0.165	0.4272	0.5108	0.028
Mof_C 	C 	0.1896	0.519	0.4678	-0.034
Mof_C 	C 	0.94782	0.92824	0.47657	0.273
Mof_C 	C 	0.21825	0.9251	0.23189	0.277
Mof_N 	N 	0.28853	0.26766	0.7192	-0.244
Mof_N 	N 	0.17611	0.44542	0.0698	-0.241
Mof_N 	N 	0.02087	0.73234	0.7808	-0.235
Mof_N 	N 	0.73069	0.55458	0.4302	-0.242
Mof_N 	N 	0.71147	0.73234	0.2808	-0.244
Mof_N 	N 	0.82389	0.55458	0.9302	-0.241
Mof_N 	N 	0.97913	0.26766	0.2192	-0.235
Mof_N 	N 	0.26931	0.44542	0.5698	-0.242
Mof_O 	O 	0.49005	0.0365	0.86493	-0.601
Mof_O 	O 	0.31641	0.07842	0.94361	-0.581
Mof_O 	O 	0.48744	0.72868	0.90078	-0.521
Mof_O 	O 	0.37552	0.84904	0.97229	-0.673
Mof_O 	O 	0.86387	0.87074	0.92319	-0.552
Mof_O 	O 	0.06626	0.87732	0.99561	-0.52
Mof_O 	O 	0.6547	0.8568	0.7803	-0.479
Mof_O 	O 	0.70642	0.88284	0.65794	-0.479
Mof_O 	O 	0.45355	0.9635	0.63507	-0.61
Mof_O 	O 	0.23799	0.92158	0.55639	-0.588
Mof_O 	O 	0.75876	0.27132	0.59922	-0.523
Mof_O 	O 	0.52648	0.15096	0.52771	-0.678
Mof_O 	O 	0.99313	0.12926	0.57681	-0.549
Mof_O 	O 	0.18894	0.12268	0.50439	-0.534
Mof_O 	O 	0.7979	0.1432	0.7197	-0.482
Mof_O 	O 	0.82358	0.11716	0.84206	-0.475
Mof_O 	O 	0.50995	0.9635	0.13507	-0.601
Mof_O 	O 	0.68359	0.92158	0.05639	-0.581
Mof_O 	O 	0.51256	0.27132	0.09922	-0.521
Mof_O 	O 	0.62448	0.15096	0.02771	-0.673
Mof_O 	O 	0.13613	0.12926	0.07681	-0.552
Mof_O 	O 	0.93374	0.12268	0.00439	-0.52
Mof_O 	O 	0.3453	0.1432	0.2197	-0.479
Mof_O 	O 	0.29358	0.11716	0.34206	-0.479
Mof_O 	O 	0.54645	0.0365	0.36493	-0.61
Mof_O 	O 	0.76201	0.07842	0.44361	-0.588
Mof_O 	O 	0.24124	0.72868	0.40078	-0.523
Mof_O 	O 	0.47352	0.84904	0.47229	-0.678
Mof_O 	O 	0.00687	0.87074	0.42319	-0.549
Mof_O 	O 	0.81106	0.87732	0.49561	-0.534
Mof_O 	O 	0.2021	0.8568	0.2803	-0.482
Mof_O 	O 	0.17642	0.88284	0.15794	-0.475
_end
