data_functionalizedCrystal
_audit_creation_method	'EQeq! by Chris Wilmer'
_symmetry_space_group_name_H-M	'P1'
_symmetry_Int_Tables_number	1
_symmetry_cell_setting	triclinic
loop_
_symmetry_equiv_pos_as_xyz
  x,y,z
_cell_length_a	11.548
_cell_length_b	11.7973
_cell_length_c	14.0617
_cell_angle_alpha	112.924
_cell_angle_beta	90
_cell_angle_gamma	119.303
loop_
_atom_site_label
_atom_site_type_symbol
_atom_site_fract_x
_atom_site_fract_y
_atom_site_fract_z
_atom_site_charge
Mof_Zn	Zn	0.01175	0	0.75	1.193
Mof_Zn	Zn	0.98825	0	0.25	1.192
Mof_H 	H 	0.945	0.1614	0.9654	0.042
Mof_H 	H 	0.8028	0.7442	0.8042	0.026
Mof_H 	H 	0.699	0.7764	0.9564	0.049
Mof_H 	H 	0.7592	0.0236	0.1354	0.05
Mof_H 	H 	0.8314	0.167	0.1215	0.066
Mof_H 	H 	0.6981	0.2006	0.007	0.003
Mof_H 	H 	0.5127	0.8548	0.0662	-0
Mof_H 	H 	0.4573	0.296	0.8507	0.044
Mof_H 	H 	0.3218	0.5296	0.0498	0.053
Mof_H 	H 	0.7836	0.8386	0.5346	-0.031
Mof_H 	H 	0.0586	0.2558	0.6958	0.03
Mof_H 	H 	0.9226	0.2236	0.5436	0.039
Mof_H 	H 	0.7356	0.9764	0.3646	0.111
Mof_H 	H 	0.6644	0.833	0.3785	0.09
Mof_H 	H 	0.4975	0.7994	0.493	0.12
Mof_H 	H 	0.6579	0.1452	0.4338	0.123
Mof_H 	H 	0.1613	0.704	0.6493	0.053
Mof_H 	H 	0.7922	0.4704	0.4502	0.051
Mof_H 	H 	0.055	0.8386	0.0346	-0.029
Mof_H 	H 	0.1972	0.2558	0.1958	0.026
Mof_H 	H 	0.301	0.2236	0.0436	0.041
Mof_H 	H 	0.2408	0.9764	0.8646	0.112
Mof_H 	H 	0.1686	0.833	0.8785	0.09
Mof_H 	H 	0.3019	0.7994	0.993	0.117
Mof_H 	H 	0.4873	0.1452	0.9338	0.121
Mof_H 	H 	0.5427	0.704	0.1493	0.055
Mof_H 	H 	0.6782	0.4704	0.9502	0.052
Mof_H 	H 	0.2164	0.1614	0.4654	0.041
Mof_H 	H 	0.9414	0.7442	0.3042	0.019
Mof_H 	H 	0.0774	0.7764	0.4564	0.052
Mof_H 	H 	0.2644	0.0236	0.6354	0.049
Mof_H 	H 	0.3356	0.167	0.6215	0.066
Mof_H 	H 	0.5025	0.2006	0.507	0.002
Mof_H 	H 	0.3421	0.8548	0.5662	-0.003
Mof_H 	H 	0.8387	0.296	0.3507	0.046
Mof_H 	H 	0.2078	0.5296	0.5498	0.054
Mof_C 	C 	0.89725	0.06174	0.94375	-0.039
Mof_C 	C 	0.8186	0.8324	0.85552	0.015
Mof_C 	C 	0.76102	0.84924	0.9395	-0.005
Mof_C 	C 	0.7659	0.06304	0.0852	-0.111
Mof_C 	C 	0.62734	0.0333	0.04475	-0.105
Mof_C 	C 	0.61887	0.11994	0.0045	0.084
Mof_C 	C 	0.50798	0.91376	0.0396	0.138
Mof_C 	C 	0.22141	0.27842	0.87899	0.314
Mof_C 	C 	0.366	0.39446	0.94018	-0.065
Mof_C 	C 	0.4743	0.3779	0.91077	-0.023
Mof_C 	C 	0.39323	0.51742	0.02966	-0.025
Mof_C 	C 	0.83551	0.93826	0.55625	0.205
Mof_C 	C 	0.9862	0.1676	0.64448	-0.002
Mof_C 	C 	0.91178	0.15076	0.5605	-0.018
Mof_C 	C 	0.70286	0.93696	0.4148	-0.172
Mof_C 	C 	0.59404	0.9667	0.45525	0.251
Mof_C 	C 	0.49893	0.88006	0.4955	-0.233
Mof_C 	C 	0.59422	0.08624	0.4604	-0.29
Mof_C 	C 	0.94299	0.72158	0.62101	0.303
Mof_C 	C 	0.97154	0.60554	0.55982	-0.062
Mof_C 	C 	0.0964	0.6221	0.58923	-0.019
Mof_C 	C 	0.87581	0.48258	0.47034	-0.027
Mof_C 	C 	0.10275	0.93826	0.05625	0.204
Mof_C 	C 	0.1814	0.1676	0.14448	0.005
Mof_C 	C 	0.23898	0.15076	0.0605	-0.02
Mof_C 	C 	0.2341	0.93696	0.9148	-0.171
Mof_C 	C 	0.37266	0.9667	0.95525	0.247
Mof_C 	C 	0.38113	0.88006	0.9955	-0.226
Mof_C 	C 	0.49202	0.08624	0.9604	-0.285
Mof_C 	C 	0.77859	0.72158	0.12101	0.305
Mof_C 	C 	0.634	0.60554	0.05982	-0.058
Mof_C 	C 	0.5257	0.6221	0.08923	-0.027
Mof_C 	C 	0.60677	0.48258	0.97034	-0.031
Mof_C 	C 	0.16449	0.06174	0.44375	-0.039
Mof_C 	C 	0.0138	0.8324	0.35552	0.027
Mof_C 	C 	0.08822	0.84924	0.4395	-0.01
Mof_C 	C 	0.29714	0.06304	0.5852	-0.107
Mof_C 	C 	0.40596	0.0333	0.54475	-0.111
Mof_C 	C 	0.50107	0.11994	0.5045	0.09
Mof_C 	C 	0.40578	0.91376	0.5396	0.148
Mof_C 	C 	0.05701	0.27842	0.37899	0.318
Mof_C 	C 	0.02846	0.39446	0.44018	-0.058
Mof_C 	C 	0.9036	0.3779	0.41077	-0.032
Mof_C 	C 	0.12419	0.51742	0.52966	-0.029
Mof_N 	N 	0.9045	0.96592	0.85749	-0.21
Mof_N 	N 	0.81211	0.99504	0.99471	-0.044
Mof_N 	N 	0.93858	0.03408	0.64251	-0.312
Mof_N 	N 	0.81707	0.00496	0.50529	-0.163
Mof_N 	N 	0.0955	0.03408	0.14251	-0.31
Mof_N 	N 	0.18789	0.00496	0.00529	-0.161
Mof_N 	N 	0.06142	0.96592	0.35749	-0.209
Mof_N 	N 	0.18293	0.99504	0.49471	-0.043
Mof_O 	O 	0.20415	0.1567	0.81389	-0.464
Mof_O 	O 	0.12892	0.30328	0.89464	-0.315
Mof_O 	O 	0.04745	0.8433	0.68611	-0.421
Mof_O 	O 	0.82564	0.69672	0.60536	-0.302
Mof_O 	O 	0.79585	0.8433	0.18611	-0.426
Mof_O 	O 	0.87108	0.69672	0.10536	-0.305
Mof_O 	O 	0.95255	0.1567	0.31389	-0.468
Mof_O 	O 	0.17436	0.30328	0.39464	-0.316
_end
