data_functionalizedCrystal
_audit_creation_method	'EQeq! by Chris Wilmer'
_symmetry_space_group_name_H-M	'P1'
_symmetry_Int_Tables_number	1
_symmetry_cell_setting	triclinic
loop_
_symmetry_equiv_pos_as_xyz
  x,y,z
_cell_length_a	14.1529
_cell_length_b	23.406
_cell_length_c	23.8325
_cell_angle_alpha	90
_cell_angle_beta	90
_cell_angle_gamma	90
loop_
_atom_site_label
_atom_site_type_symbol
_atom_site_fract_x
_atom_site_fract_y
_atom_site_fract_z
_atom_site_charge
Mof_Zn	Zn	0.43963	0.13842	0.98599	1.249
Mof_Zn	Zn	0.06037	0.36158	0.98599	1.243
Mof_Zn	Zn	0.06037	0.13842	0.51401	1.233
Mof_Zn	Zn	0.43963	0.36158	0.51401	1.239
Mof_Zn	Zn	0.56037	0.86158	0.01401	1.228
Mof_Zn	Zn	0.93963	0.63842	0.01401	1.236
Mof_Zn	Zn	0.93963	0.86158	0.48599	1.246
Mof_Zn	Zn	0.56037	0.63842	0.48599	1.24
Mof_Zn	Zn	6.39496e-33	0.5	-0	1.216
Mof_Zn	Zn	0.5	0	-0	1.225
Mof_Zn	Zn	0.5	0.5	0.5	1.239
Mof_Zn	Zn	3.15686e-33	0	0.5	1.223
Mof_Si	Si	0.4378	0.48583	0.86033	0.782
Mof_Si	Si	0.0622	0.01417	0.86033	0.642
Mof_Si	Si	0.0622	0.48583	0.63967	0.731
Mof_Si	Si	0.4378	0.01417	0.63967	0.72
Mof_Si	Si	0.5622	0.51417	0.13967	0.802
Mof_Si	Si	0.9378	0.98583	0.13967	0.92
Mof_Si	Si	0.9378	0.51417	0.36033	0.853
Mof_Si	Si	0.5622	0.98583	0.36033	0.858
Mof_H 	H 	0.2891	0.4085	0.8956	-0.008
Mof_H 	H 	0.2812	0.3161	0.9329	0.103
Mof_H 	H 	0.5672	0.3099	0.9393	0.092
Mof_H 	H 	0.5751	0.4023	0.9021	-0.009
Mof_H 	H 	0.6362	0.4716	0.8254	-0.006
Mof_H 	H 	0.7818	0.498	0.8623	0.08
Mof_H 	H 	0.6508	0.6058	0.9685	0.094
Mof_H 	H 	0.5059	0.5763	0.9356	-0.004
Mof_H 	H 	0.292	0.5625	0.8115	-0.001
Mof_H 	H 	0.1619	0.6129	0.8461	0.065
Mof_H 	H 	0.2205	0.5577	0.0017	0.016
Mof_H 	H 	0.3538	0.5105	0.9689	0.016
Mof_H 	H 	0.3602	0.3969	0.787	-0.005
Mof_H 	H 	0.359	0.3794	0.6905	0.068
Mof_H 	H 	0.4943	0.5279	0.6626	0.074
Mof_H 	H 	0.4973	0.5463	0.7586	-0.001
Mof_H 	H 	0.2109	0.0915	0.8956	-0.001
Mof_H 	H 	0.2188	0.1839	0.9329	0.093
Mof_H 	H 	0.9328	0.1901	0.9393	0.081
Mof_H 	H 	0.9249	0.0977	0.9021	-0.007
Mof_H 	H 	0.8638	0.0284	0.8254	0.045
Mof_H 	H 	0.7182	0.002	0.8623	0.018
Mof_H 	H 	0.8492	0.8942	0.9685	0.07
Mof_H 	H 	0.9941	0.9237	0.9356	0.043
Mof_H 	H 	0.208	0.9375	0.8115	0.013
Mof_H 	H 	0.3381	0.8871	0.8461	0.06
Mof_H 	H 	0.2795	0.9423	0.0017	0.009
Mof_H 	H 	0.1462	0.9895	0.9689	0.031
Mof_H 	H 	0.1398	0.1031	0.787	0.004
Mof_H 	H 	0.141	0.1206	0.6905	0.059
Mof_H 	H 	0.0057	0.9721	0.6626	0.058
Mof_H 	H 	0.0027	0.9537	0.7586	-0.002
Mof_H 	H 	0.2109	0.4085	0.6044	-0.007
Mof_H 	H 	0.2188	0.3161	0.5671	0.095
Mof_H 	H 	0.9328	0.3099	0.5607	0.08
Mof_H 	H 	0.9249	0.4023	0.5979	-0.014
Mof_H 	H 	0.8638	0.4716	0.6746	0.012
Mof_H 	H 	0.7182	0.498	0.6377	0.065
Mof_H 	H 	0.8492	0.6058	0.5315	0.076
Mof_H 	H 	0.9941	0.5763	0.5644	0.016
Mof_H 	H 	0.208	0.5625	0.6885	-0.009
Mof_H 	H 	0.3381	0.6129	0.6539	0.077
Mof_H 	H 	0.2795	0.5577	0.4983	0.077
Mof_H 	H 	0.1462	0.5105	0.5311	-0.016
Mof_H 	H 	0.1398	0.3969	0.713	-0.002
Mof_H 	H 	0.141	0.3794	0.8095	0.065
Mof_H 	H 	0.0057	0.5279	0.8374	0.064
Mof_H 	H 	0.0027	0.5463	0.7414	-0.008
Mof_H 	H 	0.2891	0.0915	0.6044	-0.006
Mof_H 	H 	0.2812	0.1839	0.5671	0.098
Mof_H 	H 	0.5672	0.1901	0.5607	0.085
Mof_H 	H 	0.5751	0.0977	0.5979	-0.008
Mof_H 	H 	0.6362	0.0284	0.6746	0.025
Mof_H 	H 	0.7818	0.002	0.6377	0.034
Mof_H 	H 	0.6508	0.8942	0.5315	0.066
Mof_H 	H 	0.5059	0.9237	0.5644	0.011
Mof_H 	H 	0.292	0.9375	0.6885	-0.001
Mof_H 	H 	0.1619	0.8871	0.6539	0.071
Mof_H 	H 	0.2205	0.9423	0.4983	0.074
Mof_H 	H 	0.3538	0.9895	0.5311	-0.003
Mof_H 	H 	0.3602	0.1031	0.713	0
Mof_H 	H 	0.359	0.1206	0.8095	0.063
Mof_H 	H 	0.4943	0.9721	0.8374	0.069
Mof_H 	H 	0.4973	0.9537	0.7414	0.002
Mof_H 	H 	0.7109	0.5915	0.1044	-0.012
Mof_H 	H 	0.7188	0.6839	0.0671	0.099
Mof_H 	H 	0.4328	0.6901	0.0607	0.079
Mof_H 	H 	0.4249	0.5977	0.0979	-0.017
Mof_H 	H 	0.3638	0.5284	0.1746	-0.009
Mof_H 	H 	0.2182	0.502	0.1377	0.062
Mof_H 	H 	0.3492	0.3942	0.0315	0.07
Mof_H 	H 	0.4941	0.4237	0.0644	-0.014
Mof_H 	H 	0.708	0.4375	0.1885	-0.023
Mof_H 	H 	0.8381	0.3871	0.1539	0.095
Mof_H 	H 	0.7795	0.4423	0.9983	0.143
Mof_H 	H 	0.6462	0.4895	0.0311	-0.048
Mof_H 	H 	0.6398	0.6031	0.213	-0.006
Mof_H 	H 	0.641	0.6206	0.3095	0.069
Mof_H 	H 	0.5057	0.4721	0.3374	0.073
Mof_H 	H 	0.5027	0.4537	0.2414	-0.005
Mof_H 	H 	0.7891	0.9085	0.1044	-0.019
Mof_H 	H 	0.7812	0.8161	0.0671	0.107
Mof_H 	H 	0.0672	0.8099	0.0607	0.089
Mof_H 	H 	0.0751	0.9023	0.0979	-0.019
Mof_H 	H 	0.1362	0.9716	0.1746	-0.054
Mof_H 	H 	0.2818	0.998	0.1377	0.116
Mof_H 	H 	0.1508	0.1058	0.0315	0.092
Mof_H 	H 	0.0059	0.0763	0.0644	-0.057
Mof_H 	H 	0.792	0.0625	0.1885	-0.032
Mof_H 	H 	0.6619	0.1129	0.1539	0.096
Mof_H 	H 	0.7205	0.0577	0.9983	0.14
Mof_H 	H 	0.8538	0.0105	0.0311	-0.055
Mof_H 	H 	0.8602	0.8969	0.213	-0.013
Mof_H 	H 	0.859	0.8794	0.3095	0.077
Mof_H 	H 	0.9943	0.0279	0.3374	0.088
Mof_H 	H 	0.9973	0.0463	0.2414	-0.003
Mof_H 	H 	0.7891	0.5915	0.3956	-0.014
Mof_H 	H 	0.7812	0.6839	0.4329	0.107
Mof_H 	H 	0.0672	0.6901	0.4393	0.092
Mof_H 	H 	0.0751	0.5977	0.4021	-0.012
Mof_H 	H 	0.1362	0.5284	0.3254	-0.027
Mof_H 	H 	0.2818	0.502	0.3623	0.077
Mof_H 	H 	0.1508	0.3942	0.4685	0.087
Mof_H 	H 	0.0059	0.4237	0.4356	-0.034
Mof_H 	H 	0.792	0.4375	0.3115	-0.015
Mof_H 	H 	0.6619	0.3871	0.3461	0.082
Mof_H 	H 	0.7205	0.4423	0.5017	0.083
Mof_H 	H 	0.8538	0.4895	0.4689	-0.016
Mof_H 	H 	0.8602	0.6031	0.287	-0.008
Mof_H 	H 	0.859	0.6206	0.1905	0.073
Mof_H 	H 	0.9943	0.4721	0.1626	0.083
Mof_H 	H 	0.9973	0.4537	0.2586	0.001
Mof_H 	H 	0.7109	0.9085	0.3956	-0.014
Mof_H 	H 	0.7188	0.8161	0.4329	0.104
Mof_H 	H 	0.4328	0.8099	0.4393	0.087
Mof_H 	H 	0.4249	0.9023	0.4021	-0.018
Mof_H 	H 	0.3638	0.9716	0.3254	-0.039
Mof_H 	H 	0.2182	0.998	0.3623	0.107
Mof_H 	H 	0.3492	0.1058	0.4685	0.097
Mof_H 	H 	0.4941	0.0763	0.4356	-0.028
Mof_H 	H 	0.708	0.0625	0.3115	-0.022
Mof_H 	H 	0.8381	0.1129	0.3461	0.088
Mof_H 	H 	0.7795	0.0577	0.5017	0.086
Mof_H 	H 	0.6462	0.0105	0.4689	-0.029
Mof_H 	H 	0.6398	0.8969	0.287	-0.01
Mof_H 	H 	0.641	0.8794	0.1905	0.073
Mof_H 	H 	0.5057	0.0279	0.1626	0.077
Mof_H 	H 	0.5027	0.0463	0.2586	-0.008
Mof_C 	C 	0.4328	0.4141	0.8954	-0.279
Mof_C 	C 	0.3455	0.3885	0.9045	0.103
Mof_C 	C 	0.3408	0.3336	0.9266	-0.114
Mof_C 	C 	0.4234	0.3043	0.9396	0.015
Mof_C 	C 	0.5107	0.3299	0.9305	-0.109
Mof_C 	C 	0.5154	0.3848	0.9083	0.104
Mof_C 	C 	0.419	0.2435	0.9619	0.304
Mof_C 	C 	0.5539	0.51994	0.87805	-0.274
Mof_C 	C 	0.6387	0.4978	0.85583	0.089
Mof_C 	C 	0.7256	0.5137	0.87759	-0.091
Mof_C 	C 	0.7311	0.55166	0.92068	-0.011
Mof_C 	C 	0.6476	0.57684	0.94064	-0.097
Mof_C 	C 	0.5617	0.56	0.92028	0.103
Mof_C 	C 	0.8225	0.5649	0.94911	0.35
Mof_C 	C 	0.3366	0.52975	0.88612	-0.253
Mof_C 	C 	0.2779	0.5611	0.85048	0.071
Mof_C 	C 	0.1995	0.59038	0.87066	-0.06
Mof_C 	C 	0.177	0.58628	0.92661	-0.055
Mof_C 	C 	0.2347	0.55809	0.9627	0.002
Mof_C 	C 	0.314	0.52998	0.94311	0.044
Mof_C 	C 	0.0865	0.61164	0.94726	0.329
Mof_C 	C 	0.4307	0.47285	0.78343	-0.269
Mof_C 	C 	0.3884	0.4236	0.76207	0.078
Mof_C 	C 	0.3872	0.4134	0.70443	-0.076
Mof_C 	C 	0.4264	0.45204	0.66717	-0.044
Mof_C 	C 	0.4672	0.50115	0.68783	-0.075
Mof_C 	C 	0.4694	0.512	0.74516	0.075
Mof_C 	C 	0.4275	0.4391	0.6054	0.392
Mof_C 	C 	0.0672	0.0859	0.8954	-0.275
Mof_C 	C 	0.1545	0.1115	0.9045	0.08
Mof_C 	C 	0.1592	0.1664	0.9266	-0.087
Mof_C 	C 	0.0766	0.1957	0.9396	-0.043
Mof_C 	C 	0.9893	0.1701	0.9305	-0.047
Mof_C 	C 	0.9846	0.1152	0.9083	0.114
Mof_C 	C 	0.081	0.2565	0.9619	0.321
Mof_C 	C 	0.9461	0.98006	0.87805	-0.133
Mof_C 	C 	0.8613	0.0022	0.85583	-0.052
Mof_C 	C 	0.7744	0.9863	0.87759	0.048
Mof_C 	C 	0.7689	0.94834	0.92068	-0.089
Mof_C 	C 	0.8524	0.92316	0.94064	-0.01
Mof_C 	C 	0.9383	0.94	0.92028	0.009
Mof_C 	C 	0.6775	0.9351	0.94911	0.38
Mof_C 	C 	0.1634	0.97025	0.88612	-0.198
Mof_C 	C 	0.2221	0.9389	0.85048	0.038
Mof_C 	C 	0.3005	0.90962	0.87066	-0.038
Mof_C 	C 	0.323	0.91372	0.92661	-0.069
Mof_C 	C 	0.2653	0.94191	0.9627	0.029
Mof_C 	C 	0.186	0.97002	0.94311	0.007
Mof_C 	C 	0.4135	0.88836	0.94726	0.332
Mof_C 	C 	0.0693	0.02715	0.78343	-0.247
Mof_C 	C 	0.1116	0.0764	0.76207	0.048
Mof_C 	C 	0.1128	0.0866	0.70443	-0.055
Mof_C 	C 	0.0736	0.04796	0.66717	-0.082
Mof_C 	C 	0.0328	0.99885	0.68783	-0.039
Mof_C 	C 	0.0306	0.988	0.74516	0.058
Mof_C 	C 	0.0725	0.0609	0.6054	0.401
Mof_C 	C 	0.0672	0.4141	0.6046	-0.302
Mof_C 	C 	0.1545	0.3885	0.5955	0.094
Mof_C 	C 	0.1592	0.3336	0.5734	-0.099
Mof_C 	C 	0.0766	0.3043	0.5604	-0.042
Mof_C 	C 	0.9893	0.3299	0.5695	-0.058
Mof_C 	C 	0.9846	0.3848	0.5917	0.127
Mof_C 	C 	0.081	0.2435	0.5381	0.321
Mof_C 	C 	0.9461	0.51994	0.62195	-0.22
Mof_C 	C 	0.8613	0.4978	0.64417	0.055
Mof_C 	C 	0.7744	0.5137	0.62241	-0.062
Mof_C 	C 	0.7689	0.55166	0.57932	-0.04
Mof_C 	C 	0.8524	0.57684	0.55936	-0.07
Mof_C 	C 	0.9383	0.56	0.57972	0.067
Mof_C 	C 	0.6775	0.5649	0.55089	0.36
Mof_C 	C 	0.1634	0.52975	0.61388	-0.273
Mof_C 	C 	0.2221	0.5611	0.64952	0.092
Mof_C 	C 	0.3005	0.59038	0.62934	-0.095
Mof_C 	C 	0.323	0.58628	0.57339	-0.009
Mof_C 	C 	0.2653	0.55809	0.5373	-0.104
Mof_C 	C 	0.186	0.52998	0.55689	0.092
Mof_C 	C 	0.4135	0.61164	0.55274	0.308
Mof_C 	C 	0.0693	0.47285	0.71657	-0.26
Mof_C 	C 	0.1116	0.4236	0.73793	0.067
Mof_C 	C 	0.1128	0.4134	0.79557	-0.072
Mof_C 	C 	0.0736	0.45204	0.83283	-0.052
Mof_C 	C 	0.0328	0.50115	0.81217	-0.072
Mof_C 	C 	0.0306	0.512	0.75484	0.062
Mof_C 	C 	0.0725	0.4391	0.8946	0.39
Mof_C 	C 	0.4328	0.0859	0.6046	-0.262
Mof_C 	C 	0.3455	0.1115	0.5955	0.087
Mof_C 	C 	0.3408	0.1664	0.5734	-0.108
Mof_C 	C 	0.4234	0.1957	0.5604	0.002
Mof_C 	C 	0.5107	0.1701	0.5695	-0.102
Mof_C 	C 	0.5154	0.1152	0.5917	0.087
Mof_C 	C 	0.419	0.2565	0.5381	0.308
Mof_C 	C 	0.5539	0.98006	0.62195	-0.199
Mof_C 	C 	0.6387	0.0022	0.64417	-0.015
Mof_C 	C 	0.7256	0.9863	0.62241	0.015
Mof_C 	C 	0.7311	0.94834	0.57932	-0.071
Mof_C 	C 	0.6476	0.92316	0.55936	-0.044
Mof_C 	C 	0.5617	0.94	0.57972	0.042
Mof_C 	C 	0.8225	0.9351	0.55089	0.372
Mof_C 	C 	0.3366	0.97025	0.61388	-0.248
Mof_C 	C 	0.2779	0.9389	0.64952	0.081
Mof_C 	C 	0.1995	0.90962	0.62934	-0.081
Mof_C 	C 	0.177	0.91372	0.57339	-0.018
Mof_C 	C 	0.2347	0.94191	0.5373	-0.09
Mof_C 	C 	0.314	0.97002	0.55689	0.082
Mof_C 	C 	0.0865	0.88836	0.55274	0.315
Mof_C 	C 	0.4307	0.02715	0.71657	-0.263
Mof_C 	C 	0.3884	0.0764	0.73793	0.065
Mof_C 	C 	0.3872	0.0866	0.79557	-0.062
Mof_C 	C 	0.4264	0.04796	0.83283	-0.07
Mof_C 	C 	0.4672	0.99885	0.81217	-0.045
Mof_C 	C 	0.4694	0.988	0.75484	0.075
Mof_C 	C 	0.4275	0.0609	0.8946	0.399
Mof_C 	C 	0.5672	0.5859	0.1046	-0.288
Mof_C 	C 	0.6545	0.6115	0.0955	0.099
Mof_C 	C 	0.6592	0.6664	0.0734	-0.119
Mof_C 	C 	0.5766	0.6957	0.0604	0.002
Mof_C 	C 	0.4893	0.6701	0.0695	-0.113
Mof_C 	C 	0.4846	0.6152	0.0917	0.098
Mof_C 	C 	0.581	0.7565	0.0381	0.308
Mof_C 	C 	0.4461	0.48006	0.12195	-0.28
Mof_C 	C 	0.3613	0.5022	0.14417	0.079
Mof_C 	C 	0.2744	0.4863	0.12241	-0.083
Mof_C 	C 	0.2689	0.44834	0.07932	-0.035
Mof_C 	C 	0.3524	0.42316	0.05936	-0.096
Mof_C 	C 	0.4383	0.44	0.07972	0.092
Mof_C 	C 	0.1775	0.4351	0.05089	0.356
Mof_C 	C 	0.6634	0.47025	0.11388	-0.32
Mof_C 	C 	0.7221	0.4389	0.14952	0.137
Mof_C 	C 	0.8005	0.40962	0.12934	-0.142
Mof_C 	C 	0.823	0.41372	0.07339	0.05
Mof_C 	C 	0.7653	0.44191	0.0373	-0.221
Mof_C 	C 	0.686	0.47002	0.05689	0.166
Mof_C 	C 	0.9135	0.38836	0.05274	0.284
Mof_C 	C 	0.5693	0.52715	0.21657	-0.276
Mof_C 	C 	0.6116	0.5764	0.23793	0.081
Mof_C 	C 	0.6128	0.5866	0.29557	-0.08
Mof_C 	C 	0.5736	0.54796	0.33283	-0.042
Mof_C 	C 	0.5328	0.49885	0.31217	-0.079
Mof_C 	C 	0.5306	0.488	0.25484	0.079
Mof_C 	C 	0.5725	0.5609	0.3946	0.391
Mof_C 	C 	0.9328	0.9141	0.1046	-0.289
Mof_C 	C 	0.8455	0.8885	0.0955	0.119
Mof_C 	C 	0.8408	0.8336	0.0734	-0.143
Mof_C 	C 	0.9234	0.8043	0.0604	0.057
Mof_C 	C 	0.0107	0.8299	0.0695	-0.171
Mof_C 	C 	0.0154	0.8848	0.0917	0.086
Mof_C 	C 	0.919	0.7435	0.0381	0.291
Mof_C 	C 	0.0539	0.01994	0.12195	-0.405
Mof_C 	C 	0.1387	0.9978	0.14417	0.202
Mof_C 	C 	0.2256	0.0137	0.12241	-0.203
Mof_C 	C 	0.2311	0.05166	0.07932	0.034
Mof_C 	C 	0.1476	0.07684	0.05936	-0.173
Mof_C 	C 	0.0617	0.06	0.07972	0.175
Mof_C 	C 	0.3225	0.0649	0.05089	0.33
Mof_C 	C 	0.8366	0.02975	0.11388	-0.359
Mof_C 	C 	0.7779	0.0611	0.14952	0.16
Mof_C 	C 	0.6995	0.09038	0.12934	-0.154
Mof_C 	C 	0.677	0.08628	0.07339	0.054
Mof_C 	C 	0.7347	0.05809	0.0373	-0.229
Mof_C 	C 	0.814	0.02998	0.05689	0.188
Mof_C 	C 	0.5865	0.11164	0.05274	0.285
Mof_C 	C 	0.9307	0.97285	0.21657	-0.297
Mof_C 	C 	0.8884	0.9236	0.23793	0.107
Mof_C 	C 	0.8872	0.9134	0.29557	-0.097
Mof_C 	C 	0.9264	0.95204	0.33283	-0.01
Mof_C 	C 	0.9672	0.00115	0.31217	-0.108
Mof_C 	C 	0.9694	0.012	0.25484	0.098
Mof_C 	C 	0.9275	0.9391	0.3946	0.382
Mof_C 	C 	0.9328	0.5859	0.3954	-0.265
Mof_C 	C 	0.8455	0.6115	0.4045	0.109
Mof_C 	C 	0.8408	0.6664	0.4266	-0.133
Mof_C 	C 	0.9234	0.6957	0.4396	0.058
Mof_C 	C 	0.0107	0.6701	0.4305	-0.162
Mof_C 	C 	0.0154	0.6152	0.4083	0.075
Mof_C 	C 	0.919	0.7565	0.4619	0.291
Mof_C 	C 	0.0539	0.48006	0.37805	-0.334
Mof_C 	C 	0.1387	0.5022	0.35583	0.113
Mof_C 	C 	0.2256	0.4863	0.37759	-0.112
Mof_C 	C 	0.2311	0.44834	0.42068	-0.008
Mof_C 	C 	0.1476	0.42316	0.44064	-0.123
Mof_C 	C 	0.0617	0.44	0.42028	0.128
Mof_C 	C 	0.3225	0.4351	0.44911	0.347
Mof_C 	C 	0.8366	0.47025	0.38612	-0.301
Mof_C 	C 	0.7779	0.4389	0.35048	0.116
Mof_C 	C 	0.6995	0.40962	0.37066	-0.107
Mof_C 	C 	0.677	0.41372	0.42661	0.003
Mof_C 	C 	0.7347	0.44191	0.4627	-0.117
Mof_C 	C 	0.814	0.47002	0.44311	0.118
Mof_C 	C 	0.5865	0.38836	0.44726	0.305
Mof_C 	C 	0.9307	0.52715	0.28343	-0.286
Mof_C 	C 	0.8884	0.5764	0.26207	0.093
Mof_C 	C 	0.8872	0.5866	0.20443	-0.084
Mof_C 	C 	0.9264	0.54796	0.16717	-0.033
Mof_C 	C 	0.9672	0.49885	0.18783	-0.083
Mof_C 	C 	0.9694	0.488	0.24516	0.092
Mof_C 	C 	0.9275	0.5609	0.1054	0.389
Mof_C 	C 	0.5672	0.9141	0.3954	-0.303
Mof_C 	C 	0.6545	0.8885	0.4045	0.115
Mof_C 	C 	0.6592	0.8336	0.4266	-0.124
Mof_C 	C 	0.5766	0.8043	0.4396	0.014
Mof_C 	C 	0.4893	0.8299	0.4305	-0.119
Mof_C 	C 	0.4846	0.8848	0.4083	0.114
Mof_C 	C 	0.581	0.7435	0.4619	0.304
Mof_C 	C 	0.4461	0.01994	0.37805	-0.351
Mof_C 	C 	0.3613	0.9978	0.35583	0.179
Mof_C 	C 	0.2744	0.0137	0.37759	-0.186
Mof_C 	C 	0.2689	0.05166	0.42068	0.023
Mof_C 	C 	0.3524	0.07684	0.44064	-0.147
Mof_C 	C 	0.4383	0.06	0.42028	0.15
Mof_C 	C 	0.1775	0.0649	0.44911	0.334
Mof_C 	C 	0.6634	0.02975	0.38612	-0.322
Mof_C 	C 	0.7221	0.0611	0.35048	0.126
Mof_C 	C 	0.8005	0.09038	0.37066	-0.12
Mof_C 	C 	0.823	0.08628	0.42661	0.013
Mof_C 	C 	0.7653	0.05809	0.4627	-0.131
Mof_C 	C 	0.686	0.02998	0.44311	0.128
Mof_C 	C 	0.9135	0.11164	0.44726	0.298
Mof_C 	C 	0.5693	0.97285	0.28343	-0.282
Mof_C 	C 	0.6116	0.9236	0.26207	0.092
Mof_C 	C 	0.6128	0.9134	0.20443	-0.091
Mof_C 	C 	0.5736	0.95204	0.16717	-0.022
Mof_C 	C 	0.5328	0.00115	0.18783	-0.102
Mof_C 	C 	0.5306	0.012	0.24516	0.079
Mof_C 	C 	0.5725	0.9391	0.1054	0.384
Mof_O 	O 	0.3422	0.223	0.976	-0.305
Mof_O 	O 	0.4913	0.2148	0.967	-0.401
Mof_O 	O 	0.8828	0.52537	0.95109	-0.402
Mof_O 	O 	0.83279	0.61465	0.96807	-0.422
Mof_O 	O 	0.0472	0.65101	0.92239	-0.312
Mof_O 	O 	0.0516	0.59072	0.99303	-0.521
Mof_O 	O 	0.4143	0.389	0.5905	-0.468
Mof_O 	O 	0.4428	0.48051	0.57369	-0.47
Mof_O 	O 	0.1578	0.277	0.976	-0.312
Mof_O 	O 	0.0087	0.2852	0.967	-0.425
Mof_O 	O 	0.6172	0.97463	0.95109	-0.417
Mof_O 	O 	0.66721	0.88535	0.96807	-0.433
Mof_O 	O 	0.4528	0.84899	0.92239	-0.297
Mof_O 	O 	0.4484	0.90928	0.99303	-0.501
Mof_O 	O 	0.0857	0.111	0.5905	-0.478
Mof_O 	O 	0.0572	0.01949	0.57369	-0.488
Mof_O 	O 	0.1578	0.223	0.524	-0.322
Mof_O 	O 	0.0087	0.2148	0.533	-0.436
Mof_O 	O 	0.6172	0.52537	0.54891	-0.431
Mof_O 	O 	0.66721	0.61465	0.53193	-0.448
Mof_O 	O 	0.4528	0.65101	0.57761	-0.3
Mof_O 	O 	0.4484	0.59072	0.50697	-0.523
Mof_O 	O 	0.0857	0.389	0.9095	-0.469
Mof_O 	O 	0.0572	0.48051	0.92631	-0.468
Mof_O 	O 	0.3422	0.277	0.524	-0.316
Mof_O 	O 	0.4913	0.2852	0.533	-0.413
Mof_O 	O 	0.8828	0.97463	0.54891	-0.412
Mof_O 	O 	0.83279	0.88535	0.53193	-0.444
Mof_O 	O 	0.0472	0.84899	0.57761	-0.317
Mof_O 	O 	0.0516	0.90928	0.50697	-0.538
Mof_O 	O 	0.4143	0.111	0.9095	-0.465
Mof_O 	O 	0.4428	0.01949	0.92631	-0.47
Mof_O 	O 	0.6578	0.777	0.024	-0.326
Mof_O 	O 	0.5087	0.7852	0.033	-0.426
Mof_O 	O 	0.1172	0.47463	0.04891	-0.45
Mof_O 	O 	0.16721	0.38535	0.03193	-0.471
Mof_O 	O 	0.9528	0.34899	0.07761	-0.287
Mof_O 	O 	0.9484	0.40928	0.00697	-0.516
Mof_O 	O 	0.5857	0.611	0.4095	-0.469
Mof_O 	O 	0.5572	0.51949	0.42631	-0.47
Mof_O 	O 	0.8422	0.723	0.024	-0.319
Mof_O 	O 	0.9913	0.7148	0.033	-0.402
Mof_O 	O 	0.3828	0.02537	0.04891	-0.437
Mof_O 	O 	0.33279	0.11465	0.03193	-0.459
Mof_O 	O 	0.5472	0.15101	0.07761	-0.303
Mof_O 	O 	0.5516	0.09072	0.00697	-0.537
Mof_O 	O 	0.9143	0.889	0.4095	-0.459
Mof_O 	O 	0.9428	0.98051	0.42631	-0.447
Mof_O 	O 	0.8422	0.777	0.476	-0.308
Mof_O 	O 	0.9913	0.7852	0.467	-0.391
Mof_O 	O 	0.3828	0.47463	0.45109	-0.429
Mof_O 	O 	0.33279	0.38535	0.46807	-0.447
Mof_O 	O 	0.5472	0.34899	0.42239	-0.3
Mof_O 	O 	0.5516	0.40928	0.49303	-0.522
Mof_O 	O 	0.9143	0.611	0.0905	-0.467
Mof_O 	O 	0.9428	0.51949	0.07369	-0.463
Mof_O 	O 	0.6578	0.723	0.476	-0.314
Mof_O 	O 	0.5087	0.7148	0.467	-0.414
Mof_O 	O 	0.1172	0.02537	0.45109	-0.443
Mof_O 	O 	0.16721	0.11465	0.46807	-0.45
Mof_O 	O 	0.9528	0.15101	0.42239	-0.282
Mof_O 	O 	0.9484	0.09072	0.49303	-0.501
Mof_O 	O 	0.5857	0.889	0.0905	-0.472
Mof_O 	O 	0.5572	0.98051	0.07369	-0.468
_end
