data_functionalizedCrystal
_audit_creation_method	'EQeq! by Chris Wilmer'
_symmetry_space_group_name_H-M	'P1'
_symmetry_Int_Tables_number	1
_symmetry_cell_setting	triclinic
loop_
_symmetry_equiv_pos_as_xyz
  x,y,z
_cell_length_a	18.5944
_cell_length_b	18.5944
_cell_length_c	38.012
_cell_angle_alpha	90
_cell_angle_beta	90
_cell_angle_gamma	120
loop_
_atom_site_label
_atom_site_type_symbol
_atom_site_fract_x
_atom_site_fract_y
_atom_site_fract_z
_atom_site_charge
Mof_C 	C 	0.4698	0.4014	0.58794	-0.04
Mof_H 	H 	0.4216	0.3628	0.5765	0.069
Mof_C 	C 	0.4845	0.3863	0.62218	-0.07
Mof_C 	C 	0.4256	0.3056	0.63963	0.362
Mof_C 	C 	0.5489	0.5672	0.522	0.232
Mof_H 	H 	0.579	0.6122	0.5369	-0.035
Mof_N 	N 	0.5785	0.5387	0.513	-0.205
Mof_O 	O 	0.44424	0.29552	0.67035	-0.406
Mof_O 	O 	0.3646	0.2557	0.62219	-0.41
Mof_C 	C 	0.13647	0.73473	0.92127	-0.039
Mof_H 	H 	0.08827	0.69613	0.90983	0.07
Mof_C 	C 	0.15117	0.71963	0.95551	-0.069
Mof_C 	C 	0.09227	0.63893	0.97296	0.363
Mof_C 	C 	0.21557	0.90053	0.85533	0.233
Mof_H 	H 	0.24567	0.94553	0.87023	-0.034
Mof_N 	N 	0.24517	0.87203	0.84633	-0.204
Mof_O 	O 	0.11091	0.62885	0.00368	-0.405
Mof_O 	O 	0.03127	0.58903	0.95552	-0.41
Mof_C 	C 	0.80313	0.06807	0.25461	-0.039
Mof_H 	H 	0.75493	0.02947	0.24317	0.07
Mof_C 	C 	0.81783	0.05297	0.28885	-0.069
Mof_C 	C 	0.75893	0.97227	0.3063	0.363
Mof_C 	C 	0.88223	0.23387	0.18867	0.233
Mof_H 	H 	0.91233	0.27887	0.20357	-0.034
Mof_N 	N 	0.91183	0.20537	0.17967	-0.204
Mof_O 	O 	0.77757	0.96219	0.33702	-0.405
Mof_O 	O 	0.69793	0.92237	0.28886	-0.41
Mof_C 	C 	0.5986	0.0684	0.58794	-0.039
Mof_H 	H 	0.6372	0.0588	0.5765	0.07
Mof_C 	C 	0.6137	0.0982	0.62218	-0.069
Mof_C 	C 	0.6944	0.12	0.63963	0.363
Mof_C 	C 	0.4328	0.9817	0.522	0.233
Mof_H 	H 	0.3878	0.9668	0.5369	-0.034
Mof_N 	N 	0.4613	0.0398	0.513	-0.204
Mof_O 	O 	0.70448	0.14872	0.67035	-0.405
Mof_O 	O 	0.7443	0.1089	0.62219	-0.41
Mof_C 	C 	0.26527	0.40173	0.92127	-0.039
Mof_H 	H 	0.30387	0.39213	0.90983	0.07
Mof_C 	C 	0.28037	0.43153	0.95551	-0.069
Mof_C 	C 	0.36107	0.45333	0.97296	0.363
Mof_C 	C 	0.09947	0.31503	0.85533	0.233
Mof_H 	H 	0.05447	0.30013	0.87023	-0.034
Mof_N 	N 	0.12797	0.37313	0.84633	-0.204
Mof_O 	O 	0.37115	0.48205	0.00368	-0.405
Mof_O 	O 	0.41097	0.44223	0.95552	-0.41
Mof_C 	C 	0.93193	0.73507	0.25461	-0.039
Mof_H 	H 	0.97053	0.72547	0.24317	0.07
Mof_C 	C 	0.94703	0.76487	0.28885	-0.069
Mof_C 	C 	0.02773	0.78667	0.3063	0.363
Mof_C 	C 	0.76613	0.64837	0.18867	0.233
Mof_H 	H 	0.72113	0.63347	0.20357	-0.034
Mof_N 	N 	0.79463	0.70647	0.17967	-0.204
Mof_O 	O 	0.03781	0.81539	0.33702	-0.405
Mof_O 	O 	0.07763	0.77557	0.28886	-0.41
Mof_C 	C 	0.9316	0.5302	0.58794	-0.039
Mof_H 	H 	0.9412	0.5784	0.5765	0.07
Mof_C 	C 	0.9018	0.5155	0.62218	-0.069
Mof_C 	C 	0.88	0.5744	0.63963	0.363
Mof_C 	C 	0.0183	0.4511	0.522	0.233
Mof_H 	H 	0.0332	0.421	0.5369	-0.034
Mof_N 	N 	0.9602	0.4215	0.513	-0.204
Mof_O 	O 	0.85128	0.55576	0.67035	-0.405
Mof_O 	O 	0.8911	0.6354	0.62219	-0.41
Mof_C 	C 	0.59827	0.86353	0.92127	-0.039
Mof_H 	H 	0.60787	0.91173	0.90983	0.07
Mof_C 	C 	0.56847	0.84883	0.95551	-0.069
Mof_C 	C 	0.54667	0.90773	0.97296	0.363
Mof_C 	C 	0.68497	0.78443	0.85533	0.233
Mof_H 	H 	0.69987	0.75433	0.87023	-0.034
Mof_N 	N 	0.62687	0.75483	0.84633	-0.204
Mof_O 	O 	0.51795	0.88909	0.00368	-0.405
Mof_O 	O 	0.55777	0.96873	0.95552	-0.41
Mof_C 	C 	0.26493	0.19687	0.25461	-0.039
Mof_H 	H 	0.27453	0.24507	0.24317	0.07
Mof_C 	C 	0.23513	0.18217	0.28885	-0.069
Mof_C 	C 	0.21333	0.24107	0.3063	0.363
Mof_C 	C 	0.35163	0.11777	0.18867	0.233
Mof_H 	H 	0.36653	0.08767	0.20357	-0.034
Mof_N 	N 	0.29353	0.08817	0.17967	-0.204
Mof_O 	O 	0.18461	0.22243	0.33702	-0.405
Mof_O 	O 	0.22443	0.30207	0.28886	-0.41
Mof_C 	C 	0.4014	0.4698	0.41206	-0.039
Mof_H 	H 	0.3628	0.4216	0.4235	0.07
Mof_C 	C 	0.3863	0.4845	0.37782	-0.069
Mof_C 	C 	0.3056	0.4256	0.36037	0.363
Mof_C 	C 	0.5672	0.5489	0.478	0.233
Mof_H 	H 	0.6122	0.579	0.4631	-0.034
Mof_N 	N 	0.5387	0.5785	0.487	-0.204
Mof_O 	O 	0.29552	0.44424	0.32965	-0.405
Mof_O 	O 	0.2557	0.3646	0.37781	-0.41
Mof_C 	C 	0.06807	0.80313	0.74539	-0.039
Mof_H 	H 	0.02947	0.75493	0.75683	0.07
Mof_C 	C 	0.05297	0.81783	0.71115	-0.069
Mof_C 	C 	0.97227	0.75893	0.6937	0.363
Mof_C 	C 	0.23387	0.88223	0.81133	0.233
Mof_H 	H 	0.27887	0.91233	0.79643	-0.034
Mof_N 	N 	0.20537	0.91183	0.82033	-0.204
Mof_O 	O 	0.96219	0.77757	0.66298	-0.405
Mof_O 	O 	0.92237	0.69793	0.71114	-0.41
Mof_C 	C 	0.73473	0.13647	0.07873	-0.039
Mof_H 	H 	0.69613	0.08827	0.09017	0.07
Mof_C 	C 	0.71963	0.15117	0.04449	-0.069
Mof_C 	C 	0.63893	0.09227	0.02704	0.363
Mof_C 	C 	0.90053	0.21557	0.14467	0.233
Mof_H 	H 	0.94553	0.24567	0.12977	-0.034
Mof_N 	N 	0.87203	0.24517	0.15367	-0.204
Mof_O 	O 	0.62885	0.11091	0.99632	-0.405
Mof_O 	O 	0.58903	0.03127	0.04448	-0.41
Mof_C 	C 	0.0684	0.5986	0.41206	-0.039
Mof_H 	H 	0.0588	0.6372	0.4235	0.07
Mof_C 	C 	0.0982	0.6137	0.37782	-0.069
Mof_C 	C 	0.12	0.6944	0.36037	0.363
Mof_C 	C 	0.9817	0.4328	0.478	0.233
Mof_H 	H 	0.9668	0.3878	0.4631	-0.034
Mof_N 	N 	0.0398	0.4613	0.487	-0.204
Mof_O 	O 	0.14872	0.70448	0.32965	-0.405
Mof_O 	O 	0.1089	0.7443	0.37781	-0.41
Mof_C 	C 	0.73507	0.93193	0.74539	-0.039
Mof_H 	H 	0.72547	0.97053	0.75683	0.07
Mof_C 	C 	0.76487	0.94703	0.71115	-0.069
Mof_C 	C 	0.78667	0.02773	0.6937	0.363
Mof_C 	C 	0.64837	0.76613	0.81133	0.233
Mof_H 	H 	0.63347	0.72113	0.79643	-0.034
Mof_N 	N 	0.70647	0.79463	0.82033	-0.204
Mof_O 	O 	0.81539	0.03781	0.66298	-0.405
Mof_O 	O 	0.77557	0.07763	0.71114	-0.41
Mof_C 	C 	0.40173	0.26527	0.07873	-0.039
Mof_H 	H 	0.39213	0.30387	0.09017	0.07
Mof_C 	C 	0.43153	0.28037	0.04449	-0.069
Mof_C 	C 	0.45333	0.36107	0.02704	0.363
Mof_C 	C 	0.31503	0.09947	0.14467	0.233
Mof_H 	H 	0.30013	0.05447	0.12977	-0.034
Mof_N 	N 	0.37313	0.12797	0.15367	-0.204
Mof_O 	O 	0.48205	0.37115	0.99632	-0.405
Mof_O 	O 	0.44223	0.41097	0.04448	-0.41
Mof_C 	C 	0.5302	0.9316	0.41206	-0.039
Mof_H 	H 	0.5784	0.9412	0.4235	0.07
Mof_C 	C 	0.5155	0.9018	0.37782	-0.069
Mof_C 	C 	0.5744	0.88	0.36037	0.363
Mof_C 	C 	0.4511	0.0183	0.478	0.233
Mof_H 	H 	0.421	0.0332	0.4631	-0.034
Mof_N 	N 	0.4215	0.9602	0.487	-0.204
Mof_O 	O 	0.55576	0.85128	0.32965	-0.405
Mof_O 	O 	0.6354	0.8911	0.37781	-0.41
Mof_C 	C 	0.19687	0.26493	0.74539	-0.039
Mof_H 	H 	0.24507	0.27453	0.75683	0.07
Mof_C 	C 	0.18217	0.23513	0.71115	-0.069
Mof_C 	C 	0.24107	0.21333	0.6937	0.363
Mof_C 	C 	0.11777	0.35163	0.81133	0.233
Mof_H 	H 	0.08767	0.36653	0.79643	-0.034
Mof_N 	N 	0.08817	0.29353	0.82033	-0.204
Mof_O 	O 	0.22243	0.18461	0.66298	-0.405
Mof_O 	O 	0.30207	0.22443	0.71114	-0.41
Mof_C 	C 	0.86353	0.59827	0.07873	-0.039
Mof_H 	H 	0.91173	0.60787	0.09017	0.07
Mof_C 	C 	0.84883	0.56847	0.04449	-0.069
Mof_C 	C 	0.90773	0.54667	0.02704	0.363
Mof_C 	C 	0.78443	0.68497	0.14467	0.233
Mof_H 	H 	0.75433	0.69987	0.12977	-0.034
Mof_N 	N 	0.75483	0.62687	0.15367	-0.204
Mof_O 	O 	0.88909	0.51795	0.99632	-0.405
Mof_O 	O 	0.96873	0.55777	0.04448	-0.41
Mof_C 	C 	0.5302	0.5986	0.41206	-0.039
Mof_H 	H 	0.5784	0.6372	0.4235	0.07
Mof_C 	C 	0.5155	0.6137	0.37782	-0.069
Mof_C 	C 	0.5744	0.6944	0.36037	0.363
Mof_C 	C 	0.4511	0.4328	0.478	0.233
Mof_H 	H 	0.421	0.3878	0.4631	-0.034
Mof_N 	N 	0.4215	0.4613	0.487	-0.204
Mof_O 	O 	0.55576	0.70448	0.32965	-0.405
Mof_O 	O 	0.6354	0.7443	0.37781	-0.41
Mof_C 	C 	0.19687	0.93193	0.74539	-0.039
Mof_H 	H 	0.24507	0.97053	0.75683	0.07
Mof_C 	C 	0.18217	0.94703	0.71115	-0.069
Mof_C 	C 	0.24107	0.02773	0.6937	0.363
Mof_C 	C 	0.11777	0.76613	0.81133	0.233
Mof_H 	H 	0.08767	0.72113	0.79643	-0.034
Mof_N 	N 	0.08817	0.79463	0.82033	-0.204
Mof_O 	O 	0.22243	0.03781	0.66298	-0.405
Mof_O 	O 	0.30207	0.07763	0.71114	-0.41
Mof_C 	C 	0.86353	0.26527	0.07873	-0.039
Mof_H 	H 	0.91173	0.30387	0.09017	0.07
Mof_C 	C 	0.84883	0.28037	0.04449	-0.069
Mof_C 	C 	0.90773	0.36107	0.02704	0.363
Mof_C 	C 	0.78443	0.09947	0.14467	0.233
Mof_H 	H 	0.75433	0.05447	0.12977	-0.034
Mof_N 	N 	0.75483	0.12797	0.15367	-0.204
Mof_O 	O 	0.88909	0.37115	0.99632	-0.405
Mof_O 	O 	0.96873	0.41097	0.04448	-0.41
Mof_C 	C 	0.4014	0.9316	0.41206	-0.039
Mof_H 	H 	0.3628	0.9412	0.4235	0.07
Mof_C 	C 	0.3863	0.9018	0.37782	-0.069
Mof_C 	C 	0.3056	0.88	0.36037	0.363
Mof_C 	C 	0.5672	0.0183	0.478	0.233
Mof_H 	H 	0.6122	0.0332	0.4631	-0.034
Mof_N 	N 	0.5387	0.9602	0.487	-0.204
Mof_O 	O 	0.29552	0.85128	0.32965	-0.405
Mof_O 	O 	0.2557	0.8911	0.37781	-0.41
Mof_C 	C 	0.06807	0.26493	0.74539	-0.039
Mof_H 	H 	0.02947	0.27453	0.75683	0.07
Mof_C 	C 	0.05297	0.23513	0.71115	-0.069
Mof_C 	C 	0.97227	0.21333	0.6937	0.363
Mof_C 	C 	0.23387	0.35163	0.81133	0.233
Mof_H 	H 	0.27887	0.36653	0.79643	-0.034
Mof_N 	N 	0.20537	0.29353	0.82033	-0.204
Mof_O 	O 	0.96219	0.18461	0.66298	-0.405
Mof_O 	O 	0.92237	0.22443	0.71114	-0.41
Mof_C 	C 	0.73473	0.59827	0.07873	-0.039
Mof_H 	H 	0.69613	0.60787	0.09017	0.07
Mof_C 	C 	0.71963	0.56847	0.04449	-0.069
Mof_C 	C 	0.63893	0.54667	0.02704	0.363
Mof_C 	C 	0.90053	0.68497	0.14467	0.233
Mof_H 	H 	0.94553	0.69987	0.12977	-0.034
Mof_N 	N 	0.87203	0.62687	0.15367	-0.204
Mof_O 	O 	0.62885	0.51795	0.99632	-0.405
Mof_O 	O 	0.58903	0.55777	0.04448	-0.41
Mof_C 	C 	0.0684	0.4698	0.41206	-0.039
Mof_H 	H 	0.0588	0.4216	0.4235	0.07
Mof_C 	C 	0.0982	0.4845	0.37782	-0.069
Mof_C 	C 	0.12	0.4256	0.36037	0.363
Mof_C 	C 	0.9817	0.5489	0.478	0.233
Mof_H 	H 	0.9668	0.579	0.4631	-0.034
Mof_N 	N 	0.0398	0.5785	0.487	-0.204
Mof_O 	O 	0.14872	0.44424	0.32965	-0.405
Mof_O 	O 	0.1089	0.3646	0.37781	-0.41
Mof_C 	C 	0.73507	0.80313	0.74539	-0.039
Mof_H 	H 	0.72547	0.75493	0.75683	0.07
Mof_C 	C 	0.76487	0.81783	0.71115	-0.069
Mof_C 	C 	0.78667	0.75893	0.6937	0.363
Mof_C 	C 	0.64837	0.88223	0.81133	0.233
Mof_H 	H 	0.63347	0.91233	0.79643	-0.034
Mof_N 	N 	0.70647	0.91183	0.82033	-0.204
Mof_O 	O 	0.81539	0.77757	0.66298	-0.405
Mof_O 	O 	0.77557	0.69793	0.71114	-0.41
Mof_C 	C 	0.40173	0.13647	0.07873	-0.039
Mof_H 	H 	0.39213	0.08827	0.09017	0.07
Mof_C 	C 	0.43153	0.15117	0.04449	-0.069
Mof_C 	C 	0.45333	0.09227	0.02704	0.363
Mof_C 	C 	0.31503	0.21557	0.14467	0.233
Mof_H 	H 	0.30013	0.24567	0.12977	-0.034
Mof_N 	N 	0.37313	0.24517	0.15367	-0.204
Mof_O 	O 	0.48205	0.11091	0.99632	-0.405
Mof_O 	O 	0.44223	0.03127	0.04448	-0.41
Mof_C 	C 	0.5986	0.5302	0.58794	-0.039
Mof_H 	H 	0.6372	0.5784	0.5765	0.07
Mof_C 	C 	0.6137	0.5155	0.62218	-0.069
Mof_C 	C 	0.6944	0.5744	0.63963	0.363
Mof_C 	C 	0.4328	0.4511	0.522	0.233
Mof_H 	H 	0.3878	0.421	0.5369	-0.034
Mof_N 	N 	0.4613	0.4215	0.513	-0.204
Mof_O 	O 	0.70448	0.55576	0.67035	-0.405
Mof_O 	O 	0.7443	0.6354	0.62219	-0.41
Mof_C 	C 	0.26527	0.86353	0.92127	-0.039
Mof_H 	H 	0.30387	0.91173	0.90983	0.07
Mof_C 	C 	0.28037	0.84883	0.95551	-0.069
Mof_C 	C 	0.36107	0.90773	0.97296	0.363
Mof_C 	C 	0.09947	0.78443	0.85533	0.233
Mof_H 	H 	0.05447	0.75433	0.87023	-0.034
Mof_N 	N 	0.12797	0.75483	0.84633	-0.204
Mof_O 	O 	0.37115	0.88909	0.00368	-0.405
Mof_O 	O 	0.41097	0.96873	0.95552	-0.41
Mof_C 	C 	0.93193	0.19687	0.25461	-0.039
Mof_H 	H 	0.97053	0.24507	0.24317	0.07
Mof_C 	C 	0.94703	0.18217	0.28885	-0.069
Mof_C 	C 	0.02773	0.24107	0.3063	0.363
Mof_C 	C 	0.76613	0.11777	0.18867	0.233
Mof_H 	H 	0.72113	0.08767	0.20357	-0.034
Mof_N 	N 	0.79463	0.08817	0.17967	-0.204
Mof_O 	O 	0.03781	0.22243	0.33702	-0.405
Mof_O 	O 	0.07763	0.30207	0.28886	-0.41
Mof_C 	C 	0.9316	0.4014	0.58794	-0.039
Mof_H 	H 	0.9412	0.3628	0.5765	0.07
Mof_C 	C 	0.9018	0.3863	0.62218	-0.069
Mof_C 	C 	0.88	0.3056	0.63963	0.363
Mof_C 	C 	0.0183	0.5672	0.522	0.233
Mof_H 	H 	0.0332	0.6122	0.5369	-0.034
Mof_N 	N 	0.9602	0.5387	0.513	-0.204
Mof_O 	O 	0.85128	0.29552	0.67035	-0.405
Mof_O 	O 	0.8911	0.2557	0.62219	-0.41
Mof_C 	C 	0.59827	0.73473	0.92127	-0.039
Mof_H 	H 	0.60787	0.69613	0.90983	0.07
Mof_C 	C 	0.56847	0.71963	0.95551	-0.069
Mof_C 	C 	0.54667	0.63893	0.97296	0.363
Mof_C 	C 	0.68497	0.90053	0.85533	0.233
Mof_H 	H 	0.69987	0.94553	0.87023	-0.034
Mof_N 	N 	0.62687	0.87203	0.84633	-0.204
Mof_O 	O 	0.51795	0.62885	0.00368	-0.405
Mof_O 	O 	0.55777	0.58903	0.95552	-0.41
Mof_C 	C 	0.26493	0.06807	0.25461	-0.039
Mof_H 	H 	0.27453	0.02947	0.24317	0.07
Mof_C 	C 	0.23513	0.05297	0.28885	-0.069
Mof_C 	C 	0.21333	0.97227	0.3063	0.363
Mof_C 	C 	0.35163	0.23387	0.18867	0.233
Mof_H 	H 	0.36653	0.27887	0.20357	-0.034
Mof_N 	N 	0.29353	0.20537	0.17967	-0.204
Mof_O 	O 	0.18461	0.96219	0.33702	-0.405
Mof_O 	O 	0.22443	0.92237	0.28886	-0.41
Mof_C 	C 	0.4698	0.0684	0.58794	-0.039
Mof_H 	H 	0.4216	0.0588	0.5765	0.07
Mof_C 	C 	0.4845	0.0982	0.62218	-0.069
Mof_C 	C 	0.4256	0.12	0.63963	0.363
Mof_C 	C 	0.5489	0.9817	0.522	0.233
Mof_H 	H 	0.579	0.9668	0.5369	-0.034
Mof_N 	N 	0.5785	0.0398	0.513	-0.204
Mof_O 	O 	0.44424	0.14872	0.67035	-0.405
Mof_O 	O 	0.3646	0.1089	0.62219	-0.41
Mof_C 	C 	0.13647	0.40173	0.92127	-0.039
Mof_H 	H 	0.08827	0.39213	0.90983	0.07
Mof_C 	C 	0.15117	0.43153	0.95551	-0.069
Mof_C 	C 	0.09227	0.45333	0.97296	0.363
Mof_C 	C 	0.21557	0.31503	0.85533	0.233
Mof_H 	H 	0.24567	0.30013	0.87023	-0.034
Mof_N 	N 	0.24517	0.37313	0.84633	-0.204
Mof_O 	O 	0.11091	0.48205	0.00368	-0.405
Mof_O 	O 	0.03127	0.44223	0.95552	-0.41
Mof_C 	C 	0.80313	0.73507	0.25461	-0.039
Mof_H 	H 	0.75493	0.72547	0.24317	0.07
Mof_C 	C 	0.81783	0.76487	0.28885	-0.069
Mof_C 	C 	0.75893	0.78667	0.3063	0.363
Mof_C 	C 	0.88223	0.64837	0.18867	0.233
Mof_H 	H 	0.91233	0.63347	0.20357	-0.034
Mof_N 	N 	0.91183	0.70647	0.17967	-0.204
Mof_O 	O 	0.77757	0.81539	0.33702	-0.405
Mof_O 	O 	0.69793	0.77557	0.28886	-0.41
Mof_C 	C 	0.5129	0.4871	0.53412	-0.031
Mof_C 	C 	0.5264	0.4736	0.57055	0.039
Mof_C 	C 	0.5562	0.4438	0.63927	0.016
Mof_H 	H 	0.5657	0.4343	0.6624	0.059
Mof_C 	C 	0.17957	0.82043	0.86745	-0.031
Mof_C 	C 	0.19307	0.80693	0.90388	0.039
Mof_C 	C 	0.22287	0.77713	0.9726	0.016
Mof_H 	H 	0.23237	0.76763	0.99573	0.058
Mof_C 	C 	0.84623	0.15377	0.20079	-0.031
Mof_C 	C 	0.85973	0.14027	0.23722	0.04
Mof_C 	C 	0.88953	0.11047	0.30594	0.015
Mof_H 	H 	0.89903	0.10097	0.32907	0.059
Mof_C 	C 	0.5129	0.0258	0.53412	-0.031
Mof_C 	C 	0.5264	0.0528	0.57055	0.039
Mof_C 	C 	0.5562	0.1124	0.63927	0.016
Mof_H 	H 	0.5657	0.1314	0.6624	0.058
Mof_C 	C 	0.17957	0.35913	0.86745	-0.031
Mof_C 	C 	0.19307	0.38613	0.90388	0.039
Mof_C 	C 	0.22287	0.44573	0.9726	0.016
Mof_H 	H 	0.23237	0.46473	0.99573	0.058
Mof_C 	C 	0.84623	0.69247	0.20079	-0.031
Mof_C 	C 	0.85973	0.71947	0.23722	0.039
Mof_C 	C 	0.88953	0.77907	0.30594	0.016
Mof_H 	H 	0.89903	0.79807	0.32907	0.059
Mof_C 	C 	0.9742	0.4871	0.53412	-0.031
Mof_C 	C 	0.9472	0.4736	0.57055	0.039
Mof_C 	C 	0.8876	0.4438	0.63927	0.016
Mof_H 	H 	0.8686	0.4343	0.6624	0.058
Mof_C 	C 	0.64087	0.82043	0.86745	-0.031
Mof_C 	C 	0.61387	0.80693	0.90388	0.039
Mof_C 	C 	0.55427	0.77713	0.9726	0.016
Mof_H 	H 	0.53527	0.76763	0.99573	0.058
Mof_C 	C 	0.30753	0.15377	0.20079	-0.031
Mof_C 	C 	0.28053	0.14027	0.23722	0.039
Mof_C 	C 	0.22093	0.11047	0.30594	0.016
Mof_H 	H 	0.20193	0.10097	0.32907	0.059
Mof_C 	C 	0.4871	0.5129	0.46588	-0.031
Mof_C 	C 	0.4736	0.5264	0.42945	0.039
Mof_C 	C 	0.4438	0.5562	0.36073	0.016
Mof_H 	H 	0.4343	0.5657	0.3376	0.059
Mof_C 	C 	0.15377	0.84623	0.79921	-0.031
Mof_C 	C 	0.14027	0.85973	0.76278	0.04
Mof_C 	C 	0.11047	0.88953	0.69406	0.015
Mof_H 	H 	0.10097	0.89903	0.67093	0.059
Mof_C 	C 	0.82043	0.17957	0.13255	-0.031
Mof_C 	C 	0.80693	0.19307	0.09612	0.039
Mof_C 	C 	0.77713	0.22287	0.0274	0.016
Mof_H 	H 	0.76763	0.23237	0.00427	0.058
Mof_C 	C 	0.0258	0.5129	0.46588	-0.031
Mof_C 	C 	0.0528	0.5264	0.42945	0.039
Mof_C 	C 	0.1124	0.5562	0.36073	0.016
Mof_H 	H 	0.1314	0.5657	0.3376	0.058
Mof_C 	C 	0.69247	0.84623	0.79921	-0.031
Mof_C 	C 	0.71947	0.85973	0.76278	0.039
Mof_C 	C 	0.77907	0.88953	0.69406	0.016
Mof_H 	H 	0.79807	0.89903	0.67093	0.059
Mof_C 	C 	0.35913	0.17957	0.13255	-0.031
Mof_C 	C 	0.38613	0.19307	0.09612	0.039
Mof_C 	C 	0.44573	0.22287	0.0274	0.016
Mof_H 	H 	0.46473	0.23237	0.00427	0.058
Mof_C 	C 	0.4871	0.9742	0.46588	-0.031
Mof_C 	C 	0.4736	0.9472	0.42945	0.039
Mof_C 	C 	0.4438	0.8876	0.36073	0.016
Mof_H 	H 	0.4343	0.8686	0.3376	0.058
Mof_C 	C 	0.15377	0.30753	0.79921	-0.031
Mof_C 	C 	0.14027	0.28053	0.76278	0.039
Mof_C 	C 	0.11047	0.22093	0.69406	0.016
Mof_H 	H 	0.10097	0.20193	0.67093	0.059
Mof_C 	C 	0.82043	0.64087	0.13255	-0.031
Mof_C 	C 	0.80693	0.61387	0.09612	0.039
Mof_C 	C 	0.77713	0.55427	0.0274	0.016
Mof_H 	H 	0.76763	0.53527	0.00427	0.058
Mof_Cu	Cu	0.38082	0.19041	0.69539	0.908
Mof_Cu	Cu	0.04749	0.52374	0.02873	0.908
Mof_Cu	Cu	0.71415	0.85708	0.36206	0.908
Mof_Cu	Cu	0.80959	0.19041	0.69539	0.908
Mof_Cu	Cu	0.47626	0.52374	0.02873	0.908
Mof_Cu	Cu	0.14292	0.85708	0.36206	0.908
Mof_Cu	Cu	0.80959	0.61918	0.69539	0.908
Mof_Cu	Cu	0.47626	0.95251	0.02873	0.908
Mof_Cu	Cu	0.14292	0.28585	0.36206	0.908
Mof_Cu	Cu	0.19041	0.38082	0.30461	0.908
Mof_Cu	Cu	0.85708	0.71415	0.63794	0.908
Mof_Cu	Cu	0.52374	0.04749	0.97127	0.908
Mof_Cu	Cu	0.19041	0.80959	0.30461	0.908
Mof_Cu	Cu	0.85708	0.14292	0.63794	0.908
Mof_Cu	Cu	0.52374	0.47626	0.97127	0.908
Mof_Cu	Cu	0.61918	0.80959	0.30461	0.908
Mof_Cu	Cu	0.28585	0.14292	0.63794	0.908
Mof_Cu	Cu	0.95251	0.47626	0.97127	0.908
_end
