data_functionalizedCrystal
_audit_creation_method	'EQeq! by Chris Wilmer'
_symmetry_space_group_name_H-M	'P1'
_symmetry_Int_Tables_number	1
_symmetry_cell_setting	triclinic
loop_
_symmetry_equiv_pos_as_xyz
  x,y,z
_cell_length_a	25.645
_cell_length_b	11.555
_cell_length_c	7.012
_cell_angle_alpha	90
_cell_angle_beta	99.982
_cell_angle_gamma	90
loop_
_atom_site_label
_atom_site_type_symbol
_atom_site_fract_x
_atom_site_fract_y
_atom_site_fract_z
_atom_site_charge
Mof_O 	O 	0.56868	0.97568	0.7249	-0.521
Mof_C 	C 	0.56941	0.0763	0.6558	0.869
Mof_C 	C 	0.65686	0.117	0.849	1.538
Mof_C 	C 	0.62042	0.1409	0.7002	-1.44
Mof_C 	C 	0.723	0.2734	0.8157	0.469
Mof_H 	H 	0.7054	0.2894	0.6911	-0.166
Mof_C 	C 	0.70525	0.1839	0.9216	-0.702
Mof_C 	C 	0.73324	0.1614	0.1048	0.431
Mof_H 	H 	0.7224	0.101	0.1765	-0.121
Mof_O 	O 	0.53095	0.12764	0.5569	-0.581
Mof_H 	H 	0.6566	0.063	0.907	-0.668
Mof_H 	H 	0.625	0.2	0.635	0.609
Mof_O 	O 	0.06868	0.47568	0.7249	-0.538
Mof_C 	C 	0.06941	0.5763	0.6558	0.882
Mof_C 	C 	0.15686	0.617	0.849	1.579
Mof_C 	C 	0.12042	0.6409	0.7002	-1.477
Mof_C 	C 	0.223	0.7734	0.8157	0.483
Mof_H 	H 	0.2054	0.7894	0.6911	-0.174
Mof_C 	C 	0.20525	0.6839	0.9216	-0.725
Mof_C 	C 	0.23324	0.6614	0.1048	0.445
Mof_H 	H 	0.2224	0.601	0.1765	-0.127
Mof_O 	O 	0.03095	0.62764	0.5569	-0.611
Mof_H 	H 	0.1566	0.563	0.907	-0.689
Mof_H 	H 	0.125	0.7	0.635	0.62
Mof_O 	O 	0.43132	0.97568	0.7751	-0.462
Mof_C 	C 	0.43059	0.0763	0.8442	0.582
Mof_C 	C 	0.34314	0.117	0.651	0.504
Mof_C 	C 	0.37958	0.1409	0.7998	-0.679
Mof_C 	C 	0.277	0.2734	0.6843	-0.025
Mof_H 	H 	0.2946	0.2894	0.8089	0.033
Mof_C 	C 	0.29475	0.1839	0.5784	-0.152
Mof_C 	C 	0.26676	0.1614	0.3952	-0.025
Mof_H 	H 	0.2776	0.101	0.3235	0.029
Mof_O 	O 	0.46905	0.12764	0.9431	-0.478
Mof_H 	H 	0.3434	0.063	0.593	-0.197
Mof_H 	H 	0.375	0.2	0.865	0.311
Mof_O 	O 	0.93132	0.47568	0.7751	-0.438
Mof_C 	C 	0.93059	0.5763	0.8442	0.578
Mof_C 	C 	0.84314	0.617	0.651	0.506
Mof_C 	C 	0.87958	0.6409	0.7998	-0.671
Mof_C 	C 	0.777	0.7734	0.6843	-0.017
Mof_H 	H 	0.7946	0.7894	0.8089	0.033
Mof_C 	C 	0.79475	0.6839	0.5784	-0.155
Mof_C 	C 	0.76676	0.6614	0.3952	-0.017
Mof_H 	H 	0.7776	0.601	0.3235	0.028
Mof_O 	O 	0.96905	0.62764	0.9431	-0.437
Mof_H 	H 	0.8434	0.563	0.593	-0.196
Mof_H 	H 	0.875	0.7	0.865	0.313
Mof_O 	O 	0.43132	0.02432	0.2751	-0.427
Mof_C 	C 	0.43059	0.9237	0.3442	0.318
Mof_C 	C 	0.34314	0.883	0.151	-0.465
Mof_C 	C 	0.37958	0.8591	0.2998	0.048
Mof_C 	C 	0.277	0.7266	0.1843	-0.476
Mof_H 	H 	0.2946	0.7106	0.3089	0.195
Mof_C 	C 	0.29475	0.8161	0.0784	0.354
Mof_C 	C 	0.26676	0.8386	0.8952	-0.428
Mof_H 	H 	0.2776	0.899	0.8235	0.186
Mof_O 	O 	0.46905	0.87236	0.4431	-0.43
Mof_H 	H 	0.3434	0.937	0.093	0.255
Mof_H 	H 	0.375	0.8	0.365	0.012
Mof_O 	O 	0.93132	0.52432	0.2751	-0.401
Mof_C 	C 	0.93059	0.4237	0.3442	0.314
Mof_C 	C 	0.84314	0.383	0.151	-0.456
Mof_C 	C 	0.87958	0.3591	0.2998	0.051
Mof_C 	C 	0.777	0.2266	0.1843	-0.463
Mof_H 	H 	0.7946	0.2106	0.3089	0.193
Mof_C 	C 	0.79475	0.3161	0.0784	0.348
Mof_C 	C 	0.76676	0.3386	0.8952	-0.416
Mof_H 	H 	0.7776	0.399	0.8235	0.183
Mof_O 	O 	0.96905	0.37236	0.4431	-0.388
Mof_H 	H 	0.8434	0.437	0.093	0.252
Mof_H 	H 	0.875	0.3	0.365	0.017
Mof_O 	O 	0.56868	0.02432	0.2249	-0.487
Mof_C 	C 	0.56941	0.9237	0.1558	0.606
Mof_C 	C 	0.65686	0.883	0.349	0.576
Mof_C 	C 	0.62042	0.8591	0.2002	-0.72
Mof_C 	C 	0.723	0.7266	0.3157	0.022
Mof_H 	H 	0.7054	0.7106	0.1911	-0.006
Mof_C 	C 	0.70525	0.8161	0.4216	-0.2
Mof_C 	C 	0.73324	0.8386	0.6048	0.032
Mof_H 	H 	0.7224	0.899	0.6765	0.034
Mof_O 	O 	0.53095	0.87236	0.0569	-0.533
Mof_H 	H 	0.6566	0.937	0.407	-0.22
Mof_H 	H 	0.625	0.8	0.135	0.313
Mof_O 	O 	0.06868	0.52432	0.2249	-0.501
Mof_C 	C 	0.06941	0.4237	0.1558	0.614
Mof_C 	C 	0.15686	0.383	0.349	0.605
Mof_C 	C 	0.12042	0.3591	0.2002	-0.747
Mof_C 	C 	0.223	0.2266	0.3157	0.031
Mof_H 	H 	0.2054	0.2106	0.1911	-0.012
Mof_C 	C 	0.20525	0.3161	0.4216	-0.217
Mof_C 	C 	0.23324	0.3386	0.6048	0.041
Mof_H 	H 	0.2224	0.399	0.6765	0.029
Mof_O 	O 	0.03095	0.37236	0.0569	-0.561
Mof_H 	H 	0.1566	0.437	0.407	-0.235
Mof_H 	H 	0.125	0.3	0.135	0.32
Mof_Co	Co	0.5	0.87966	0.75	1.149
Mof_Co	Co	-6.94433e-18	0.37966	0.75	1.119
Mof_Co	Co	0.5	0.12034	0.25	1.124
Mof_Co	Co	3.00721e-34	0.62034	0.25	1.095
_end
