data_functionalizedCrystal
_audit_creation_method	'EQeq! by Chris Wilmer'
_symmetry_space_group_name_H-M	'P1'
_symmetry_Int_Tables_number	1
_symmetry_cell_setting	triclinic
loop_
_symmetry_equiv_pos_as_xyz
  x,y,z
_cell_length_a	13.6353
_cell_length_b	10.2259
_cell_length_c	17.6925
_cell_angle_alpha	90
_cell_angle_beta	90.704
_cell_angle_gamma	90
loop_
_atom_site_label
_atom_site_type_symbol
_atom_site_fract_x
_atom_site_fract_y
_atom_site_fract_z
_atom_site_charge
Mof_Mn	Mn	0.38998	0.92028	0.96582	0.886
Mof_Mn	Mn	0.15231	0.07019	0.98044	0.928
Mof_O 	O 	0.39003	0.06607	0.88339	-0.387
Mof_O 	O 	0.32015	0.7961	0.88709	-0.383
Mof_O 	O 	0.30207	0.47525	0.55193	-0.424
Mof_O 	O 	0.25122	0.17252	0.90529	-0.381
Mof_O 	O 	0.182	0.89201	0.92125	-0.395
Mof_O 	O 	0.09025	0.52068	0.57364	-0.42
Mof_O 	O 	0.45454	0.41015	0.55139	-0.425
Mof_O 	O 	0.95763	0.6374	0.59482	-0.397
Mof_C 	C 	0.23073	0.8237	0.87702	0.363
Mof_C 	C 	0.18104	0.7676	0.80777	-0.075
Mof_C 	C 	0.23636	0.7091	0.75228	-0.025
Mof_H 	H 	0.3042	0.705	0.758	0.051
Mof_C 	C 	0.19228	0.6566	0.68834	-0.008
Mof_H 	H 	0.2306	0.6179	0.6514	0.043
Mof_C 	C 	0.09124	0.6615	0.67908	-0.1
Mof_C 	C 	0.03637	0.7218	0.73425	-0.006
Mof_H 	H 	0.9686	0.7265	0.7284	0.043
Mof_C 	C 	0.08052	0.7753	0.79817	-0.025
Mof_H 	H 	0.0425	0.8164	0.8345	0.046
Mof_C 	C 	0.32429	0.1467	0.86665	0.379
Mof_C 	C 	0.33688	0.2194	0.79365	-0.08
Mof_C 	C 	0.4291	0.2282	0.76131	-0.021
Mof_H 	H 	0.483	0.19	0.7853	0.047
Mof_C 	C 	0.44082	0.2932	0.69383	-0.008
Mof_H 	H 	0.5029	0.3018	0.6733	0.044
Mof_C 	C 	0.35942	0.3463	0.6563	-0.103
Mof_C 	C 	0.26732	0.3375	0.68817	-0.01
Mof_H 	H 	0.2129	0.3725	0.6633	0.036
Mof_C 	C 	0.25711	0.2759	0.75761	-0.023
Mof_H 	H 	0.1958	0.2727	0.7801	0.051
Mof_C 	C 	0.37261	0.4136	0.58246	0.367
Mof_C 	C 	0.04282	0.6018	0.6099	0.411
Mof_Mn	Mn	0.61002	0.42028	0.53418	0.884
Mof_Mn	Mn	0.84769	0.57019	0.51956	0.928
Mof_O 	O 	0.60997	0.56607	0.61661	-0.387
Mof_O 	O 	0.67985	0.2961	0.61291	-0.383
Mof_O 	O 	0.69793	0.97525	0.94807	-0.423
Mof_O 	O 	0.74878	0.67252	0.59471	-0.381
Mof_O 	O 	0.818	0.39201	0.57875	-0.395
Mof_O 	O 	0.90975	0.02068	0.92636	-0.42
Mof_O 	O 	0.54546	0.91015	0.94861	-0.425
Mof_O 	O 	0.04237	0.1374	0.90518	-0.399
Mof_C 	C 	0.76927	0.3237	0.62298	0.362
Mof_C 	C 	0.81896	0.2676	0.69223	-0.072
Mof_C 	C 	0.76364	0.2091	0.74772	-0.028
Mof_H 	H 	0.6958	0.205	0.742	0.052
Mof_C 	C 	0.80772	0.1566	0.81166	-0.005
Mof_H 	H 	0.7694	0.1179	0.8486	0.042
Mof_C 	C 	0.90876	0.1615	0.82092	-0.104
Mof_C 	C 	0.96363	0.2218	0.76575	0.003
Mof_H 	H 	0.0314	0.2265	0.7716	0.039
Mof_C 	C 	0.91948	0.2753	0.70183	-0.031
Mof_H 	H 	0.9575	0.3164	0.6655	0.048
Mof_C 	C 	0.67571	0.6467	0.63335	0.379
Mof_C 	C 	0.66312	0.7194	0.70635	-0.08
Mof_C 	C 	0.5709	0.7282	0.73869	-0.021
Mof_H 	H 	0.517	0.69	0.7147	0.047
Mof_C 	C 	0.55918	0.7932	0.80617	-0.008
Mof_H 	H 	0.4971	0.8018	0.8267	0.044
Mof_C 	C 	0.64058	0.8463	0.8437	-0.102
Mof_C 	C 	0.73268	0.8375	0.81183	-0.01
Mof_H 	H 	0.7871	0.8725	0.8367	0.037
Mof_C 	C 	0.74289	0.7759	0.74239	-0.023
Mof_H 	H 	0.8042	0.7727	0.7199	0.051
Mof_C 	C 	0.62739	0.9136	0.91754	0.367
Mof_C 	C 	0.95718	0.1018	0.8901	0.416
Mof_Mn	Mn	0.61002	0.07972	0.03418	0.885
Mof_Mn	Mn	0.84769	0.92981	0.01956	0.927
Mof_O 	O 	0.60997	0.93393	0.11661	-0.387
Mof_O 	O 	0.67985	0.2039	0.11291	-0.383
Mof_O 	O 	0.69793	0.52475	0.44807	-0.424
Mof_O 	O 	0.74878	0.82748	0.09471	-0.381
Mof_O 	O 	0.818	0.10799	0.07875	-0.395
Mof_O 	O 	0.90975	0.47932	0.42636	-0.42
Mof_O 	O 	0.54546	0.58985	0.44861	-0.425
Mof_O 	O 	0.04237	0.3626	0.40518	-0.397
Mof_C 	C 	0.76927	0.1763	0.12298	0.363
Mof_C 	C 	0.81896	0.2324	0.19223	-0.075
Mof_C 	C 	0.76364	0.2909	0.24772	-0.025
Mof_H 	H 	0.6958	0.295	0.242	0.051
Mof_C 	C 	0.80772	0.3434	0.31166	-0.008
Mof_H 	H 	0.7694	0.3821	0.3486	0.043
Mof_C 	C 	0.90876	0.3385	0.32092	-0.1
Mof_C 	C 	0.96363	0.2782	0.26575	-0.006
Mof_H 	H 	0.0314	0.2735	0.2716	0.043
Mof_C 	C 	0.91948	0.2247	0.20183	-0.025
Mof_H 	H 	0.9575	0.1836	0.1655	0.046
Mof_C 	C 	0.67571	0.8533	0.13335	0.379
Mof_C 	C 	0.66312	0.7806	0.20635	-0.08
Mof_C 	C 	0.5709	0.7718	0.23869	-0.021
Mof_H 	H 	0.517	0.81	0.2147	0.047
Mof_C 	C 	0.55918	0.7068	0.30617	-0.008
Mof_H 	H 	0.4971	0.6982	0.3267	0.044
Mof_C 	C 	0.64058	0.6537	0.3437	-0.103
Mof_C 	C 	0.73268	0.6625	0.31183	-0.01
Mof_H 	H 	0.7871	0.6275	0.3367	0.036
Mof_C 	C 	0.74289	0.7241	0.24239	-0.023
Mof_H 	H 	0.8042	0.7273	0.2199	0.051
Mof_C 	C 	0.62739	0.5864	0.41754	0.367
Mof_C 	C 	0.95718	0.3982	0.3901	0.411
Mof_Mn	Mn	0.38998	0.57972	0.46582	0.884
Mof_Mn	Mn	0.15231	0.42981	0.48044	0.928
Mof_O 	O 	0.39003	0.43393	0.38339	-0.387
Mof_O 	O 	0.32015	0.7039	0.38709	-0.383
Mof_O 	O 	0.30207	0.02475	0.05193	-0.423
Mof_O 	O 	0.25122	0.32748	0.40529	-0.381
Mof_O 	O 	0.182	0.60799	0.42125	-0.395
Mof_O 	O 	0.09025	0.97932	0.07364	-0.42
Mof_O 	O 	0.45454	0.08985	0.05139	-0.425
Mof_O 	O 	0.95763	0.8626	0.09482	-0.399
Mof_C 	C 	0.23073	0.6763	0.37702	0.362
Mof_C 	C 	0.18104	0.7324	0.30777	-0.072
Mof_C 	C 	0.23636	0.7909	0.25228	-0.028
Mof_H 	H 	0.3042	0.795	0.258	0.052
Mof_C 	C 	0.19228	0.8434	0.18834	-0.005
Mof_H 	H 	0.2306	0.8821	0.1514	0.042
Mof_C 	C 	0.09124	0.8385	0.17908	-0.104
Mof_C 	C 	0.03637	0.7782	0.23425	0.003
Mof_H 	H 	0.9686	0.7735	0.2284	0.039
Mof_C 	C 	0.08052	0.7247	0.29817	-0.031
Mof_H 	H 	0.0425	0.6836	0.3345	0.048
Mof_C 	C 	0.32429	0.3533	0.36665	0.379
Mof_C 	C 	0.33688	0.2806	0.29365	-0.08
Mof_C 	C 	0.4291	0.2718	0.26131	-0.021
Mof_H 	H 	0.483	0.31	0.2853	0.047
Mof_C 	C 	0.44082	0.2068	0.19383	-0.008
Mof_H 	H 	0.5029	0.1982	0.1733	0.044
Mof_C 	C 	0.35942	0.1537	0.1563	-0.102
Mof_C 	C 	0.26732	0.1625	0.18817	-0.01
Mof_H 	H 	0.2129	0.1275	0.1633	0.037
Mof_C 	C 	0.25711	0.2241	0.25761	-0.023
Mof_H 	H 	0.1958	0.2273	0.2801	0.051
Mof_C 	C 	0.37261	0.0864	0.08246	0.367
Mof_C 	C 	0.04282	0.8982	0.1099	0.416
_end
