data_functionalizedCrystal
_audit_creation_method	'EQeq! by Chris Wilmer'
_symmetry_space_group_name_H-M	'P1'
_symmetry_Int_Tables_number	1
_symmetry_cell_setting	triclinic
loop_
_symmetry_equiv_pos_as_xyz
  x,y,z
_cell_length_a	23.739
_cell_length_b	7.0724
_cell_length_c	11.5405
_cell_angle_alpha	90
_cell_angle_beta	90
_cell_angle_gamma	90
loop_
_atom_site_label
_atom_site_type_symbol
_atom_site_fract_x
_atom_site_fract_y
_atom_site_fract_z
_atom_site_charge
Mof_N 	N 	0.44039	0.1565	0.4244	-0.197
Mof_C 	C 	0.39154	0.0968	0.3776	-0.085
Mof_H 	H 	0.3805	0.9689	0.3666	0.051
Mof_C 	C 	0.2776	0.0894	0.2714	-0.094
Mof_H 	H 	0.2965	0.9724	0.2824	0.067
Mof_N 	N 	0.39154	0.4032	0.3776	-0.144
Mof_N 	N 	0.94039	0.6565	0.9244	-0.157
Mof_C 	C 	0.89154	0.5968	0.8776	-0.009
Mof_H 	H 	0.8805	0.4689	0.8666	0.034
Mof_C 	C 	0.7776	0.5894	0.7714	-0.043
Mof_H 	H 	0.7965	0.4724	0.7824	0.046
Mof_N 	N 	0.89154	0.9032	0.8776	-0.114
Mof_N 	N 	0.55961	0.3435	0.4244	-0.202
Mof_C 	C 	0.60846	0.4032	0.3776	-0.02
Mof_H 	H 	0.6195	0.5311	0.3666	0.012
Mof_C 	C 	0.7224	0.4106	0.2714	-0.058
Mof_H 	H 	0.7035	0.5276	0.2824	0.038
Mof_N 	N 	0.60846	0.0968	0.3776	-0.163
Mof_N 	N 	0.05961	0.8435	0.9244	-0.184
Mof_C 	C 	0.10846	0.9032	0.8776	0.053
Mof_H 	H 	0.1195	0.0311	0.8666	-0.014
Mof_C 	C 	0.2224	0.9106	0.7714	-0.007
Mof_H 	H 	0.2035	0.0276	0.7824	0.012
Mof_N 	N 	0.10846	0.5968	0.8776	-0.135
Mof_N 	N 	0.55961	0.6565	0.5756	-0.197
Mof_C 	C 	0.60846	0.5968	0.6224	-0.021
Mof_H 	H 	0.6195	0.4689	0.6334	0.019
Mof_C 	C 	0.7224	0.5894	0.7286	-0.039
Mof_H 	H 	0.7035	0.4724	0.7176	0.042
Mof_N 	N 	0.60846	0.9032	0.6224	-0.118
Mof_N 	N 	0.05961	0.1565	0.0756	-0.215
Mof_C 	C 	0.10846	0.0968	0.1224	-0.094
Mof_H 	H 	0.1195	0.9689	0.1334	0.04
Mof_C 	C 	0.2224	0.0894	0.2286	-0.09
Mof_H 	H 	0.2035	0.9724	0.2176	0.064
Mof_N 	N 	0.10846	0.4032	0.1224	-0.148
Mof_N 	N 	0.44039	0.8435	0.5756	-0.2
Mof_C 	C 	0.39154	0.9032	0.6224	0.047
Mof_H 	H 	0.3805	0.0311	0.6334	-0.022
Mof_C 	C 	0.2776	0.9106	0.7286	-0.006
Mof_H 	H 	0.2965	0.0276	0.7176	0.012
Mof_N 	N 	0.39154	0.5968	0.6224	-0.137
Mof_N 	N 	0.94039	0.3435	0.0756	-0.194
Mof_C 	C 	0.89154	0.4032	0.1224	-0.025
Mof_H 	H 	0.8805	0.5311	0.1334	0.01
Mof_C 	C 	0.7776	0.4106	0.2286	-0.056
Mof_H 	H 	0.7965	0.5276	0.2176	0.038
Mof_N 	N 	0.89154	0.0968	0.1224	-0.163
Mof_N 	N 	0.55961	0.8435	0.5756	-0.164
Mof_H 	H 	0.6195	0.0311	0.6334	0.052
Mof_C 	C 	0.7224	0.9106	0.7286	0.001
Mof_H 	H 	0.7035	0.0276	0.7176	0.011
Mof_N 	N 	0.05961	0.3435	0.0756	-0.196
Mof_H 	H 	0.1195	0.5311	0.1334	0.055
Mof_C 	C 	0.2224	0.4106	0.2286	-0.053
Mof_H 	H 	0.2035	0.5276	0.2176	0.034
Mof_N 	N 	0.44039	0.6565	0.5756	-0.171
Mof_H 	H 	0.3805	0.4689	0.6334	0.074
Mof_C 	C 	0.2776	0.5894	0.7286	-0.043
Mof_H 	H 	0.2965	0.4724	0.7176	0.044
Mof_N 	N 	0.94039	0.1565	0.0756	-0.173
Mof_H 	H 	0.8805	0.9689	0.1334	0.086
Mof_C 	C 	0.7776	0.0894	0.2286	-0.091
Mof_H 	H 	0.7965	0.9724	0.2176	0.069
Mof_N 	N 	0.44039	0.3435	0.4244	-0.176
Mof_H 	H 	0.3805	0.5311	0.3666	0.068
Mof_C 	C 	0.2776	0.4106	0.2714	-0.056
Mof_H 	H 	0.2965	0.5276	0.2824	0.037
Mof_N 	N 	0.94039	0.8435	0.9244	-0.123
Mof_H 	H 	0.8805	0.0311	0.8666	0.069
Mof_C 	C 	0.7776	0.9106	0.7714	-0.003
Mof_H 	H 	0.7965	0.0276	0.7824	0.015
Mof_N 	N 	0.55961	0.1565	0.4244	-0.18
Mof_H 	H 	0.6195	0.9689	0.3666	0.091
Mof_C 	C 	0.7224	0.0894	0.2714	-0.094
Mof_H 	H 	0.7035	0.9724	0.2824	0.07
Mof_N 	N 	0.05961	0.6565	0.9244	-0.155
Mof_H 	H 	0.1195	0.4689	0.8666	0.083
Mof_C 	C 	0.2224	0.5894	0.7714	-0.044
Mof_H 	H 	0.2035	0.4724	0.7824	0.045
Mof_Cu	Cu	0.5	0	0.5	0.813
Mof_Cu	Cu	-1.62857e-33	0.5	-0	0.767
Mof_Cu	Cu	0.5	0.5	0.5	0.828
Mof_Cu	Cu	-0	0	-0	0.754
Mof_C 	C 	0.3043	0.25	0.297	-0
Mof_C 	C 	0.3614	0.25	0.3493	0.062
Mof_C 	C 	0.8043	0.75	0.797	-0.002
Mof_C 	C 	0.8614	0.75	0.8493	0.074
Mof_C 	C 	0.6957	0.25	0.297	0.008
Mof_C 	C 	0.6386	0.25	0.3493	0.04
Mof_C 	C 	0.1957	0.75	0.797	0.003
Mof_C 	C 	0.1386	0.75	0.8493	0.045
Mof_C 	C 	0.6957	0.75	0.703	-0.01
Mof_C 	C 	0.6386	0.75	0.6507	0.066
Mof_C 	C 	0.1957	0.25	0.203	-0.007
Mof_C 	C 	0.1386	0.25	0.1507	0.055
Mof_C 	C 	0.3043	0.75	0.703	-0
Mof_C 	C 	0.3614	0.75	0.6507	0.043
Mof_C 	C 	0.8043	0.25	0.203	0.005
Mof_C 	C 	0.8614	0.25	0.1507	0.04
_end
