data_functionalizedCrystal
_audit_creation_method	'EQeq! by Chris Wilmer'
_symmetry_space_group_name_H-M	'P1'
_symmetry_Int_Tables_number	1
_symmetry_cell_setting	triclinic
loop_
_symmetry_equiv_pos_as_xyz
  x,y,z
_cell_length_a	6.6539
_cell_length_b	18.3606
_cell_length_c	8.433
_cell_angle_alpha	90
_cell_angle_beta	90
_cell_angle_gamma	90
loop_
_atom_site_label
_atom_site_type_symbol
_atom_site_fract_x
_atom_site_fract_y
_atom_site_fract_z
_atom_site_charge
Mof_O 	O 	0.0119	0.45009	0.0696	-0.781
Mof_O 	O 	0.3354	0.40574	0.2709	-0.45
Mof_O 	O 	0.3254	0.18343	0.5186	-0.533
Mof_O 	O 	0.1797	0.2582	0.347	-0.553
Mof_C 	C 	0.264	0.2435	0.4755	0.645
Mof_H 	H 	0.2822	0.2819	0.5459	-0.2
Mof_O 	O 	0.5119	0.95009	0.0696	-0.479
Mof_O 	O 	0.8354	0.90574	0.2709	-0.294
Mof_O 	O 	0.8254	0.68343	0.5186	-0.425
Mof_O 	O 	0.6797	0.7582	0.347	-0.513
Mof_C 	C 	0.764	0.7435	0.4755	0.639
Mof_H 	H 	0.7822	0.7819	0.5459	-0.146
Mof_O 	O 	0.9881	0.54991	0.5696	-0.187
Mof_O 	O 	0.6646	0.59426	0.7709	-0.389
Mof_O 	O 	0.6746	0.81657	0.0186	-0.543
Mof_O 	O 	0.8203	0.7418	0.847	-0.456
Mof_C 	C 	0.736	0.7565	0.9755	0.782
Mof_H 	H 	0.7178	0.7181	0.0459	-0.227
Mof_O 	O 	0.4881	0.04991	0.5696	-0.557
Mof_O 	O 	0.1646	0.09426	0.7709	-0.446
Mof_O 	O 	0.1746	0.31657	0.0186	-0.569
Mof_O 	O 	0.3203	0.2418	0.847	-0.583
Mof_C 	C 	0.236	0.2565	0.9755	0.785
Mof_H 	H 	0.2178	0.2181	0.0459	-0.278
Mof_O 	O 	0.9881	0.45009	0.4304	-0.187
Mof_O 	O 	0.6646	0.40574	0.2291	-0.402
Mof_O 	O 	0.6746	0.18343	0.9814	-0.416
Mof_O 	O 	0.8203	0.2582	0.153	-0.395
Mof_C 	C 	0.736	0.2435	0.0245	0.479
Mof_H 	H 	0.7178	0.2819	0.9541	-0.076
Mof_O 	O 	0.4881	0.95009	0.4304	-0.496
Mof_O 	O 	0.1646	0.90574	0.2291	-0.431
Mof_O 	O 	0.1746	0.68343	0.9814	-0.443
Mof_O 	O 	0.3203	0.7582	0.153	-0.519
Mof_C 	C 	0.236	0.7435	0.0245	0.503
Mof_H 	H 	0.2178	0.7819	0.9541	-0.134
Mof_O 	O 	0.0119	0.54991	0.9304	-0.752
Mof_O 	O 	0.3354	0.59426	0.7291	-0.445
Mof_O 	O 	0.3254	0.81657	0.4814	-0.522
Mof_O 	O 	0.1797	0.7418	0.653	-0.546
Mof_C 	C 	0.264	0.7565	0.5245	0.646
Mof_H 	H 	0.2822	0.7181	0.4541	-0.205
Mof_O 	O 	0.5119	0.04991	0.9304	-0.507
Mof_O 	O 	0.8354	0.09426	0.7291	-0.315
Mof_O 	O 	0.8254	0.31657	0.4814	-0.425
Mof_O 	O 	0.6797	0.2418	0.653	-0.512
Mof_C 	C 	0.764	0.2565	0.5245	0.645
Mof_H 	H 	0.7822	0.2181	0.4541	-0.158
Mof_Er	Er	-8.00035e-33	0.35727	0.25	1.88
Mof_Er	Er	0.5	0.85727	0.25	2.276
Mof_Er	Er	-4.54405e-32	0.64273	0.75	1.885
Mof_Er	Er	0.5	0.14273	0.75	2.274
Mof_C 	C 	0.9257	0.5	-0	1.241
Mof_H 	H 	0.786	0.5	-0	-0.336
Mof_C 	C 	0.4257	0	-0	0.585
Mof_H 	H 	0.286	0	-0	-0.197
Mof_C 	C 	0.0743	0.5	0.5	0.06
Mof_H 	H 	0.214	0.5	0.5	0.022
Mof_C 	C 	0.5743	0	0.5	0.641
Mof_H 	H 	0.714	0	0.5	-0.157
Mof_C 	C 	0.5	0.3742	0.25	0.565
Mof_H 	H 	0.5	0.3236	0.25	-0.164
Mof_C 	C 	-3.25026e-32	0.8742	0.25	0.345
Mof_H 	H 	-3.25026e-32	0.8236	0.25	-0.153
Mof_C 	C 	0.5	0.6258	0.75	0.567
Mof_H 	H 	0.5	0.6764	0.75	-0.158
Mof_C 	C 	-8.68718e-33	0.1258	0.75	0.345
Mof_H 	H 	-2.09383e-32	0.1764	0.75	-0.15
_end
