data_functionalizedCrystal
_audit_creation_method	'EQeq! by Chris Wilmer'
_symmetry_space_group_name_H-M	'P1'
_symmetry_Int_Tables_number	1
_symmetry_cell_setting	triclinic
loop_
_symmetry_equiv_pos_as_xyz
  x,y,z
_cell_length_a	19.556
_cell_length_b	16.33
_cell_length_c	25.573
_cell_angle_alpha	90
_cell_angle_beta	91.097
_cell_angle_gamma	90
loop_
_atom_site_label
_atom_site_type_symbol
_atom_site_fract_x
_atom_site_fract_y
_atom_site_fract_z
_atom_site_charge
Mof_C 	C 	0.37	0.3891	0.2191	0.403
Mof_C 	C 	0.1232	0.9366	0.3706	0.036
Mof_C 	C 	0.4584	0.5996	0.0259	-0.034
Mof_H 	H 	0.4296	0.6187	0.9982	0.044
Mof_C 	C 	0.1238	0.0647	0.2334	0.384
Mof_C 	C 	0.2758	0.2374	0.3544	0.399
Mof_C 	C 	0.6111	0.585	0.2631	0.419
Mof_C 	C 	0.4759	0.4611	0.186	0.048
Mof_C 	C 	0.4277	0.45	0.2238	-0.106
Mof_C 	C 	0.1394	0.8229	0.3122	0.033
Mof_C 	C 	0.535	0.378	0.1244	0.031
Mof_C 	C 	0.014	0.9002	0.2986	0.043
Mof_C 	C 	0.0685	0.0062	0.2465	-0.121
Mof_C 	C 	0.0734	0.9415	0.2835	0.05
Mof_C 	C 	0.5831	0.51	0.1506	-0.1
Mof_H 	H 	0.6266	0.5404	0.158	0.077
Mof_C 	C 	0.9527	0.911	0.2723	-0.116
Mof_C 	C 	0.3157	0.3105	0.4376	0.055
Mof_C 	C 	0.2846	0.2568	0.5221	-0.104
Mof_C 	C 	0.5371	0.5071	0.1982	0.054
Mof_C 	C 	0.2497	0.194	0.4964	-0.022
Mof_H 	H 	0.2252	0.1551	0.5163	0.042
Mof_C 	C 	0.0606	0.904	0.3869	0.019
Mof_C 	C 	0.0266	0.846	0.3482	-0.084
Mof_H 	H 	0.9842	0.8196	0.3616	0.059
Mof_C 	C 	0.5487	0.3814	0.4966	-0.033
Mof_H 	H 	0.5905	0.3826	0.5162	0.044
Mof_C 	C 	0.1371	0.9151	0.314	-0.104
Mof_H 	H 	0.1797	0.9412	0.3008	0.08
Mof_C 	C 	0.3192	0.4657	0.485	0.01
Mof_C 	C 	0.437	0.4884	0.2731	-0.018
Mof_H 	H 	0.4031	0.4835	0.299	0.042
Mof_C 	C 	0.596	0.4192	0.137	0.03
Mof_C 	C 	0.1596	0.9885	0.4024	-0.084
Mof_H 	H 	0.1997	0.0143	0.3901	0.058
Mof_C 	C 	0.2819	0.2466	0.4125	-0.124
Mof_C 	C 	0.3165	0.315	0.492	0.033
Mof_C 	C 	0.4861	0.3861	0.5229	-0.066
Mof_H 	H 	0.4851	0.3898	0.5599	0.055
Mof_C 	C 	0.1373	0.0033	0.4532	-0.019
Mof_H 	H 	0.1639	0.0364	0.4764	0.031
Mof_C 	C 	0.3553	0.3812	0.4128	-0.102
Mof_H 	H 	0.3569	0.3774	0.3738	0.075
Mof_C 	C 	0.482	0.5043	0.0947	0.022
Mof_C 	C 	0.2499	0.187	0.4428	-0.005
Mof_H 	H 	0.2282	0.1415	0.4262	0.036
Mof_C 	C 	0.489	0.3788	0.414	-0.076
Mof_H 	H 	0.4897	0.3807	0.3769	0.056
Mof_C 	C 	0.3534	0.3922	0.5128	-0.082
Mof_H 	H 	0.3522	0.3968	0.5518	0.058
Mof_C 	C 	0.2898	0.5294	0.5094	-0.066
Mof_H 	H 	0.2888	0.5321	0.5464	0.038
Mof_C 	C 	0.0809	0.785	0.3314	0.018
Mof_C 	C 	0.6591	0.3827	0.1335	-0.071
Mof_H 	H 	0.7001	0.4126	0.14	0.055
Mof_C 	C 	0.515	0.6399	0.0377	-0.018
Mof_H 	H 	0.5258	0.6878	0.0184	0.043
Mof_C 	C 	0.5367	0.2954	0.1109	-0.075
Mof_H 	H 	0.496	0.2659	0.1027	0.062
Mof_C 	C 	0.1913	0.6937	0.2988	-0.017
Mof_H 	H 	0.2289	0.6619	0.2873	0.037
Mof_C 	C 	0.006	0.016	0.2198	-0.01
Mof_H 	H 	0.0021	0.0547	0.1922	0.036
Mof_C 	C 	0.5457	0.5393	0.2468	-0.118
Mof_C 	C 	0.9494	0.9693	0.2336	-0.01
Mof_H 	H 	0.907	0.9781	0.2156	0.046
Mof_C 	C 	0.2841	0.2574	0.5803	0.341
Mof_C 	C 	0.1935	0.7747	0.2951	-0.083
Mof_H 	H 	0.2325	0.8003	0.2807	0.059
Mof_C 	C 	0.2652	0.5877	0.4256	-0.02
Mof_H 	H 	0.2475	0.631	0.4046	0.034
Mof_C 	C 	0.0394	0.9184	0.4364	-0.067
Mof_H 	H 	0.999	0.8936	0.4491	0.046
Mof_C 	C 	0.4945	0.532	0.2831	-0
Mof_H 	H 	0.5	0.5585	0.316	0.041
Mof_C 	C 	0.0796	0.9716	0.4688	-0.039
Mof_H 	H 	0.064	0.9844	0.5028	0.04
Mof_C 	C 	0.5605	0.6135	0.0786	-0.086
Mof_H 	H 	0.6026	0.6407	0.0858	0.068
Mof_C 	C 	0.4399	0.5292	0.0535	-0.065
Mof_H 	H 	0.3997	0.4994	0.0442	0.055
Mof_C 	C 	0.2611	0.5913	0.4785	-0.042
Mof_H 	H 	0.2386	0.6361	0.4945	0.038
Mof_C 	C 	0.4712	0.4311	0.1292	-0.089
Mof_H 	H 	0.4278	0.401	0.1209	0.071
Mof_C 	C 	0.5999	0.2582	0.11	-0.024
Mof_H 	H 	0.6023	0.2014	0.1021	0.037
Mof_C 	C 	0.0783	0.7024	0.336	-0.063
Mof_H 	H 	0.0393	0.6769	0.3504	0.042
Mof_C 	C 	0.5502	0.3751	0.4431	-0.023
Mof_H 	H 	0.5925	0.3683	0.426	0.035
Mof_C 	C 	0.2953	0.5204	0.4025	-0.087
Mof_H 	H 	0.2971	0.5179	0.3654	0.061
Mof_C 	C 	0.4277	0.3797	0.4398	0.028
Mof_C 	C 	0.8878	0.8653	0.2819	0.4
Mof_C 	C 	0.3224	0.4577	0.4313	0.041
Mof_C 	C 	0.4254	0.3851	0.4927	0.026
Mof_C 	C 	0.541	0.5493	0.1058	0.039
Mof_C 	C 	0.1334	0.6545	0.3196	-0.04
Mof_H 	H 	0.1319	0.5965	0.3224	0.041
Mof_C 	C 	0.6605	0.3006	0.1201	-0.032
Mof_H 	H 	0.7031	0.273	0.1179	0.04
Mof_O 	O 	0.3854	0.3273	0.1941	-0.497
Mof_O 	O 	0.315	0.4043	0.2408	-0.489
Mof_O 	O 	0.6648	0.5685	0.2421	-0.516
Mof_O 	O 	0.2699	0.1675	0.3357	-0.514
Mof_O 	O 	0.2734	0.3034	0.3292	-0.507
Mof_O 	O 	0.8374	0.8908	0.2557	-0.494
Mof_O 	O 	0.3393	0.2816	0.6028	-0.484
Mof_O 	O 	0.2487	0.2229	0.2141	-0.973
Mof_O 	O 	0.1124	0.1221	0.2022	-0.511
Mof_O 	O 	0.1806	0.0549	0.2583	-0.51
Mof_O 	O 	0.2343	0.2287	0.6038	-0.497
Mof_O 	O 	0.6017	0.6396	0.2962	-0.51
Mof_O 	O 	0.8881	0.807	0.3135	-0.502
Mof_Zn	Zn	0.3333	0.22427	0.17748	1.207
Mof_Zn	Zn	0.25114	0.13561	0.26296	1.208
Mof_Zn	Zn	0.17105	0.20892	0.16223	1.174
Mof_Zn	Zn	0.24348	0.32172	0.2552	1.206
Mof_C 	C 	0.63	0.8891	0.2809	0.404
Mof_C 	C 	0.8768	0.4366	0.1294	0.038
Mof_C 	C 	0.5416	0.0996	0.4741	-0.033
Mof_H 	H 	0.5704	0.1187	0.5018	0.045
Mof_C 	C 	0.8762	0.5647	0.2666	0.385
Mof_C 	C 	0.7242	0.7374	0.1456	0.4
Mof_C 	C 	0.3889	0.085	0.2369	0.42
Mof_C 	C 	0.5241	0.9611	0.314	0.049
Mof_C 	C 	0.5723	0.95	0.2762	-0.105
Mof_C 	C 	0.8606	0.3229	0.1878	0.034
Mof_C 	C 	0.465	0.878	0.3756	0.031
Mof_C 	C 	0.986	0.4002	0.2014	0.044
Mof_C 	C 	0.9315	0.5062	0.2535	-0.12
Mof_C 	C 	0.9266	0.4415	0.2165	0.051
Mof_C 	C 	0.4169	0.01	0.3494	-0.1
Mof_H 	H 	0.3734	0.0404	0.342	0.077
Mof_C 	C 	0.0473	0.411	0.2277	-0.116
Mof_C 	C 	0.6843	0.8105	0.0624	0.055
Mof_C 	C 	0.7154	0.7568	0.9779	-0.105
Mof_C 	C 	0.4629	0.0071	0.3018	0.054
Mof_C 	C 	0.7503	0.694	0.0036	-0.021
Mof_H 	H 	0.7748	0.6551	0.9837	0.041
Mof_C 	C 	0.9394	0.404	0.1131	0.019
Mof_C 	C 	0.9734	0.346	0.1518	-0.083
Mof_H 	H 	0.0158	0.3196	0.1384	0.059
Mof_C 	C 	0.4513	0.8814	0.0034	-0.033
Mof_H 	H 	0.4095	0.8826	0.9838	0.044
Mof_C 	C 	0.8629	0.4151	0.186	-0.105
Mof_H 	H 	0.8203	0.4412	0.1992	0.08
Mof_C 	C 	0.6808	0.9657	0.015	0.011
Mof_C 	C 	0.563	0.9884	0.2269	-0.018
Mof_H 	H 	0.5969	0.9835	0.201	0.042
Mof_C 	C 	0.404	0.9192	0.363	0.03
Mof_C 	C 	0.8404	0.4885	0.0976	-0.086
Mof_H 	H 	0.8003	0.5143	0.1099	0.059
Mof_C 	C 	0.7181	0.7466	0.0875	-0.124
Mof_C 	C 	0.6835	0.815	0.008	0.033
Mof_C 	C 	0.5139	0.8861	0.9771	-0.066
Mof_H 	H 	0.5149	0.8898	0.9401	0.055
Mof_C 	C 	0.8627	0.5033	0.0468	-0.017
Mof_H 	H 	0.8361	0.5364	0.0236	0.031
Mof_C 	C 	0.6447	0.8812	0.0872	-0.101
Mof_H 	H 	0.6431	0.8774	0.1262	0.075
Mof_C 	C 	0.518	0.0043	0.4053	0.022
Mof_C 	C 	0.7501	0.687	0.0572	-0.006
Mof_H 	H 	0.7718	0.6415	0.0738	0.036
Mof_C 	C 	0.511	0.8788	0.086	-0.076
Mof_H 	H 	0.5103	0.8807	0.1231	0.055
Mof_C 	C 	0.6466	0.8922	0.9872	-0.082
Mof_H 	H 	0.6478	0.8968	0.9482	0.058
Mof_C 	C 	0.7102	0.0294	0.9906	-0.067
Mof_H 	H 	0.7112	0.0321	0.9536	0.038
Mof_C 	C 	0.9191	0.285	0.1686	0.018
Mof_C 	C 	0.3409	0.8827	0.3665	-0.071
Mof_H 	H 	0.2999	0.9126	0.36	0.055
Mof_C 	C 	0.485	0.1399	0.4623	-0.018
Mof_H 	H 	0.4742	0.1878	0.4816	0.043
Mof_C 	C 	0.4633	0.7954	0.3891	-0.075
Mof_H 	H 	0.504	0.7659	0.3973	0.062
Mof_C 	C 	0.8087	0.1937	0.2012	-0.017
Mof_H 	H 	0.7711	0.1619	0.2127	0.037
Mof_C 	C 	0.994	0.516	0.2802	-0.01
Mof_H 	H 	0.9979	0.5547	0.3078	0.036
Mof_C 	C 	0.4543	0.0393	0.2532	-0.118
Mof_C 	C 	0.0506	0.4693	0.2664	-0.01
Mof_H 	H 	0.093	0.4781	0.2844	0.046
Mof_C 	C 	0.7159	0.7574	0.9197	0.341
Mof_C 	C 	0.8065	0.2747	0.2049	-0.083
Mof_H 	H 	0.7675	0.3003	0.2193	0.059
Mof_C 	C 	0.7348	0.0877	0.0744	-0.021
Mof_H 	H 	0.7525	0.131	0.0954	0.034
Mof_C 	C 	0.9606	0.4184	0.0636	-0.065
Mof_H 	H 	0.001	0.3936	0.0509	0.046
Mof_C 	C 	0.5055	0.032	0.2169	-0
Mof_H 	H 	0.5	0.0585	0.184	0.041
Mof_C 	C 	0.9204	0.4716	0.0312	-0.04
Mof_H 	H 	0.936	0.4844	0.9972	0.04
Mof_C 	C 	0.4395	0.1135	0.4214	-0.086
Mof_H 	H 	0.3974	0.1407	0.4142	0.068
Mof_C 	C 	0.5601	0.0292	0.4465	-0.064
Mof_H 	H 	0.6003	0.9994	0.4558	0.055
Mof_C 	C 	0.7389	0.0913	0.0215	-0.042
Mof_H 	H 	0.7614	0.1361	0.0055	0.038
Mof_C 	C 	0.5288	0.9311	0.3708	-0.089
Mof_H 	H 	0.5722	0.901	0.3791	0.071
Mof_C 	C 	0.4001	0.7582	0.39	-0.024
Mof_H 	H 	0.3977	0.7014	0.3979	0.037
Mof_C 	C 	0.9217	0.2024	0.164	-0.062
Mof_H 	H 	0.9607	0.1769	0.1496	0.042
Mof_C 	C 	0.4498	0.8751	0.0569	-0.024
Mof_H 	H 	0.4075	0.8683	0.074	0.035
Mof_C 	C 	0.7047	0.0204	0.0975	-0.087
Mof_H 	H 	0.7029	0.0179	0.1346	0.061
Mof_C 	C 	0.5723	0.8797	0.0602	0.027
Mof_C 	C 	0.1122	0.3653	0.2181	0.4
Mof_C 	C 	0.6776	0.9577	0.0687	0.041
Mof_C 	C 	0.5746	0.8851	0.0073	0.026
Mof_C 	C 	0.459	0.0493	0.3942	0.039
Mof_C 	C 	0.8666	0.1545	0.1804	-0.04
Mof_H 	H 	0.8681	0.0965	0.1776	0.041
Mof_C 	C 	0.3395	0.8006	0.3799	-0.032
Mof_H 	H 	0.2969	0.773	0.3821	0.04
Mof_O 	O 	0.6146	0.8273	0.3059	-0.497
Mof_O 	O 	0.685	0.9043	0.2592	-0.489
Mof_O 	O 	0.3352	0.0685	0.2579	-0.516
Mof_O 	O 	0.7301	0.6675	0.1643	-0.514
Mof_O 	O 	0.7266	0.8034	0.1708	-0.507
Mof_O 	O 	0.1626	0.3908	0.2443	-0.494
Mof_O 	O 	0.6607	0.7816	0.8972	-0.484
Mof_O 	O 	0.7513	0.7229	0.2859	-0.973
Mof_O 	O 	0.8876	0.6221	0.2978	-0.511
Mof_O 	O 	0.8194	0.5549	0.2417	-0.51
Mof_O 	O 	0.7657	0.7287	0.8962	-0.497
Mof_O 	O 	0.3983	0.1396	0.2038	-0.51
Mof_O 	O 	0.1119	0.307	0.1865	-0.502
Mof_Zn	Zn	0.6667	0.72427	0.32252	1.207
Mof_Zn	Zn	0.74886	0.63561	0.23704	1.208
Mof_Zn	Zn	0.82895	0.70892	0.33777	1.174
Mof_Zn	Zn	0.75652	0.82172	0.2448	1.206
Mof_C 	C 	0.63	0.6109	0.7809	0.404
Mof_C 	C 	0.8768	0.0634	0.6294	0.037
Mof_C 	C 	0.5416	0.4004	0.9741	-0.033
Mof_H 	H 	0.5704	0.3813	0.0018	0.045
Mof_C 	C 	0.8762	0.9353	0.7666	0.385
Mof_C 	C 	0.7242	0.7626	0.6456	0.4
Mof_C 	C 	0.3889	0.415	0.7369	0.42
Mof_C 	C 	0.5241	0.5389	0.814	0.049
Mof_C 	C 	0.5723	0.55	0.7762	-0.105
Mof_C 	C 	0.8606	0.1771	0.6878	0.034
Mof_C 	C 	0.465	0.622	0.8756	0.032
Mof_C 	C 	0.986	0.0998	0.7014	0.044
Mof_C 	C 	0.9315	0.9938	0.7535	-0.12
Mof_C 	C 	0.9266	0.0585	0.7165	0.051
Mof_C 	C 	0.4169	0.49	0.8494	-0.1
Mof_H 	H 	0.3734	0.4596	0.842	0.077
Mof_C 	C 	0.0473	0.089	0.7277	-0.116
Mof_C 	C 	0.6843	0.6895	0.5624	0.055
Mof_C 	C 	0.7154	0.7432	0.4779	-0.104
Mof_C 	C 	0.4629	0.4929	0.8018	0.054
Mof_C 	C 	0.7503	0.806	0.5036	-0.022
Mof_H 	H 	0.7748	0.8449	0.4837	0.042
Mof_C 	C 	0.9394	0.096	0.6131	0.019
Mof_C 	C 	0.9734	0.154	0.6518	-0.084
Mof_H 	H 	0.0158	0.1804	0.6384	0.059
Mof_C 	C 	0.4513	0.6186	0.5034	-0.033
Mof_H 	H 	0.4095	0.6174	0.4838	0.044
Mof_C 	C 	0.8629	0.0849	0.686	-0.104
Mof_H 	H 	0.8203	0.0588	0.6992	0.08
Mof_C 	C 	0.6808	0.5343	0.515	0.01
Mof_C 	C 	0.563	0.5116	0.7269	-0.018
Mof_H 	H 	0.5969	0.5165	0.701	0.042
Mof_C 	C 	0.404	0.5808	0.863	0.03
Mof_C 	C 	0.8404	0.0115	0.5976	-0.084
Mof_H 	H 	0.8003	0.9857	0.6099	0.058
Mof_C 	C 	0.7181	0.7534	0.5875	-0.124
Mof_C 	C 	0.6835	0.685	0.508	0.033
Mof_C 	C 	0.5139	0.6139	0.4771	-0.066
Mof_H 	H 	0.5149	0.6102	0.4401	0.055
Mof_C 	C 	0.8627	0.9967	0.5468	-0.019
Mof_H 	H 	0.8361	0.9636	0.5236	0.031
Mof_C 	C 	0.6447	0.6188	0.5872	-0.102
Mof_H 	H 	0.6431	0.6226	0.6262	0.075
Mof_C 	C 	0.518	0.4957	0.9053	0.022
Mof_C 	C 	0.7501	0.813	0.5572	-0.005
Mof_H 	H 	0.7718	0.8585	0.5738	0.036
Mof_C 	C 	0.511	0.6212	0.586	-0.076
Mof_H 	H 	0.5103	0.6193	0.6231	0.056
Mof_C 	C 	0.6466	0.6078	0.4872	-0.082
Mof_H 	H 	0.6478	0.6032	0.4482	0.058
Mof_C 	C 	0.7102	0.4706	0.4906	-0.066
Mof_H 	H 	0.7112	0.4679	0.4536	0.038
Mof_C 	C 	0.9191	0.215	0.6686	0.018
Mof_C 	C 	0.3409	0.6173	0.8665	-0.071
Mof_H 	H 	0.2999	0.5874	0.86	0.055
Mof_C 	C 	0.485	0.3601	0.9623	-0.018
Mof_H 	H 	0.4742	0.3122	0.9816	0.043
Mof_C 	C 	0.4633	0.7046	0.8891	-0.075
Mof_H 	H 	0.504	0.7341	0.8973	0.062
Mof_C 	C 	0.8087	0.3063	0.7012	-0.017
Mof_H 	H 	0.7711	0.3381	0.7127	0.037
Mof_C 	C 	0.994	0.984	0.7802	-0.01
Mof_H 	H 	0.9979	0.9453	0.8078	0.036
Mof_C 	C 	0.4543	0.4607	0.7532	-0.118
Mof_C 	C 	0.0506	0.0307	0.7664	-0.01
Mof_H 	H 	0.093	0.0219	0.7844	0.046
Mof_C 	C 	0.7159	0.7426	0.4197	0.341
Mof_C 	C 	0.8065	0.2253	0.7049	-0.083
Mof_H 	H 	0.7675	0.1997	0.7193	0.059
Mof_C 	C 	0.7348	0.4123	0.5744	-0.02
Mof_H 	H 	0.7525	0.369	0.5954	0.034
Mof_C 	C 	0.9606	0.0816	0.5636	-0.067
Mof_H 	H 	0.001	0.1064	0.5509	0.046
Mof_C 	C 	0.5055	0.468	0.7169	-0
Mof_H 	H 	0.5	0.4415	0.684	0.041
Mof_C 	C 	0.9204	0.0284	0.5312	-0.039
Mof_H 	H 	0.936	0.0156	0.4972	0.04
Mof_C 	C 	0.4395	0.3865	0.9214	-0.086
Mof_H 	H 	0.3974	0.3593	0.9142	0.068
Mof_C 	C 	0.5601	0.4708	0.9465	-0.065
Mof_H 	H 	0.6003	0.5006	0.9558	0.055
Mof_C 	C 	0.7389	0.4087	0.5215	-0.042
Mof_H 	H 	0.7614	0.3639	0.5055	0.038
Mof_C 	C 	0.5288	0.5689	0.8708	-0.089
Mof_H 	H 	0.5722	0.599	0.8791	0.071
Mof_C 	C 	0.4001	0.7418	0.89	-0.024
Mof_H 	H 	0.3977	0.7986	0.8979	0.037
Mof_C 	C 	0.9217	0.2976	0.664	-0.063
Mof_H 	H 	0.9607	0.3231	0.6496	0.042
Mof_C 	C 	0.4498	0.6249	0.5569	-0.023
Mof_H 	H 	0.4075	0.6317	0.574	0.035
Mof_C 	C 	0.7047	0.4796	0.5975	-0.087
Mof_H 	H 	0.7029	0.4821	0.6346	0.061
Mof_C 	C 	0.5723	0.6203	0.5602	0.028
Mof_C 	C 	0.1122	0.1347	0.7181	0.4
Mof_C 	C 	0.6776	0.5423	0.5687	0.041
Mof_C 	C 	0.5746	0.6149	0.5073	0.026
Mof_C 	C 	0.459	0.4507	0.8942	0.039
Mof_C 	C 	0.8666	0.3455	0.6804	-0.04
Mof_H 	H 	0.8681	0.4035	0.6776	0.041
Mof_C 	C 	0.3395	0.6994	0.8799	-0.032
Mof_H 	H 	0.2969	0.727	0.8821	0.04
Mof_O 	O 	0.6146	0.6727	0.8059	-0.497
Mof_O 	O 	0.685	0.5957	0.7592	-0.489
Mof_O 	O 	0.3352	0.4315	0.7579	-0.516
Mof_O 	O 	0.7301	0.8325	0.6643	-0.514
Mof_O 	O 	0.7266	0.6966	0.6708	-0.507
Mof_O 	O 	0.1626	0.1092	0.7443	-0.494
Mof_O 	O 	0.6607	0.7184	0.3972	-0.484
Mof_O 	O 	0.7513	0.7771	0.7859	-0.973
Mof_O 	O 	0.8876	0.8779	0.7978	-0.511
Mof_O 	O 	0.8194	0.9451	0.7417	-0.51
Mof_O 	O 	0.7657	0.7713	0.3962	-0.497
Mof_O 	O 	0.3983	0.3604	0.7038	-0.51
Mof_O 	O 	0.1119	0.193	0.6865	-0.502
Mof_Zn	Zn	0.6667	0.77573	0.82252	1.207
Mof_Zn	Zn	0.74886	0.86439	0.73704	1.208
Mof_Zn	Zn	0.82895	0.79108	0.83777	1.174
Mof_Zn	Zn	0.75652	0.67828	0.7448	1.206
Mof_C 	C 	0.37	0.1109	0.7191	0.404
Mof_C 	C 	0.1232	0.5634	0.8706	0.038
Mof_C 	C 	0.4584	0.9004	0.5259	-0.033
Mof_H 	H 	0.4296	0.8813	0.4982	0.045
Mof_C 	C 	0.1238	0.4353	0.7334	0.385
Mof_C 	C 	0.2758	0.2626	0.8544	0.4
Mof_C 	C 	0.6111	0.915	0.7631	0.42
Mof_C 	C 	0.4759	0.0389	0.686	0.049
Mof_C 	C 	0.4277	0.05	0.7238	-0.105
Mof_C 	C 	0.1394	0.6771	0.8122	0.034
Mof_C 	C 	0.535	0.122	0.6244	0.031
Mof_C 	C 	0.014	0.5998	0.7986	0.044
Mof_C 	C 	0.0685	0.4938	0.7465	-0.12
Mof_C 	C 	0.0734	0.5585	0.7835	0.051
Mof_C 	C 	0.5831	0.99	0.6506	-0.1
Mof_H 	H 	0.6266	0.9596	0.658	0.077
Mof_C 	C 	0.9527	0.589	0.7723	-0.116
Mof_C 	C 	0.3157	0.1895	0.9376	0.055
Mof_C 	C 	0.2846	0.2432	0.0221	-0.105
Mof_C 	C 	0.5371	0.9929	0.6982	0.054
Mof_C 	C 	0.2497	0.306	0.9964	-0.021
Mof_H 	H 	0.2252	0.3449	0.0163	0.041
Mof_C 	C 	0.0606	0.596	0.8869	0.019
Mof_C 	C 	0.0266	0.654	0.8482	-0.083
Mof_H 	H 	0.9842	0.6804	0.8616	0.059
Mof_C 	C 	0.5487	0.1186	0.9966	-0.033
Mof_H 	H 	0.5905	0.1174	0.0162	0.044
Mof_C 	C 	0.1371	0.5849	0.814	-0.105
Mof_H 	H 	0.1797	0.5588	0.8008	0.08
Mof_C 	C 	0.3192	0.0343	0.985	0.011
Mof_C 	C 	0.437	0.0116	0.7731	-0.018
Mof_H 	H 	0.4031	0.0165	0.799	0.042
Mof_C 	C 	0.596	0.0808	0.637	0.03
Mof_C 	C 	0.1596	0.5115	0.9024	-0.086
Mof_H 	H 	0.1997	0.4857	0.8901	0.059
Mof_C 	C 	0.2819	0.2534	0.9125	-0.124
Mof_C 	C 	0.3165	0.185	0.992	0.033
Mof_C 	C 	0.4861	0.1139	0.0229	-0.066
Mof_H 	H 	0.4851	0.1102	0.0599	0.055
Mof_C 	C 	0.1373	0.4967	0.9532	-0.017
Mof_H 	H 	0.1639	0.4636	0.9764	0.031
Mof_C 	C 	0.3553	0.1188	0.9128	-0.101
Mof_H 	H 	0.3569	0.1226	0.8738	0.075
Mof_C 	C 	0.482	0.9957	0.5947	0.022
Mof_C 	C 	0.2499	0.313	0.9428	-0.006
Mof_H 	H 	0.2282	0.3585	0.9262	0.036
Mof_C 	C 	0.489	0.1212	0.914	-0.076
Mof_H 	H 	0.4897	0.1193	0.8769	0.055
Mof_C 	C 	0.3534	0.1078	0.0128	-0.082
Mof_H 	H 	0.3522	0.1032	0.0518	0.058
Mof_C 	C 	0.2898	0.9706	0.0094	-0.067
Mof_H 	H 	0.2888	0.9679	0.0464	0.038
Mof_C 	C 	0.0809	0.715	0.8314	0.018
Mof_C 	C 	0.6591	0.1173	0.6335	-0.071
Mof_H 	H 	0.7001	0.0874	0.64	0.055
Mof_C 	C 	0.515	0.8601	0.5377	-0.018
Mof_H 	H 	0.5258	0.8122	0.5184	0.043
Mof_C 	C 	0.5367	0.2046	0.6109	-0.075
Mof_H 	H 	0.496	0.2341	0.6027	0.062
Mof_C 	C 	0.1913	0.8063	0.7988	-0.017
Mof_H 	H 	0.2289	0.8381	0.7873	0.037
Mof_C 	C 	0.006	0.484	0.7198	-0.01
Mof_H 	H 	0.0021	0.4453	0.6922	0.036
Mof_C 	C 	0.5457	0.9607	0.7468	-0.118
Mof_C 	C 	0.9494	0.5307	0.7336	-0.01
Mof_H 	H 	0.907	0.5219	0.7156	0.046
Mof_C 	C 	0.2841	0.2426	0.0803	0.341
Mof_C 	C 	0.1935	0.7253	0.7951	-0.083
Mof_H 	H 	0.2325	0.6997	0.7807	0.059
Mof_C 	C 	0.2652	0.9123	0.9256	-0.021
Mof_H 	H 	0.2475	0.869	0.9046	0.034
Mof_C 	C 	0.0394	0.5816	0.9364	-0.065
Mof_H 	H 	0.999	0.6064	0.9491	0.046
Mof_C 	C 	0.4945	0.968	0.7831	-0
Mof_H 	H 	0.5	0.9415	0.816	0.041
Mof_C 	C 	0.0796	0.5284	0.9688	-0.04
Mof_H 	H 	0.064	0.5156	0.0028	0.04
Mof_C 	C 	0.5605	0.8865	0.5786	-0.086
Mof_H 	H 	0.6026	0.8593	0.5858	0.068
Mof_C 	C 	0.4399	0.9708	0.5535	-0.064
Mof_H 	H 	0.3997	0.0006	0.5442	0.055
Mof_C 	C 	0.2611	0.9087	0.9785	-0.042
Mof_H 	H 	0.2386	0.8639	0.9945	0.038
Mof_C 	C 	0.4712	0.0689	0.6292	-0.089
Mof_H 	H 	0.4278	0.099	0.6209	0.071
Mof_C 	C 	0.5999	0.2418	0.61	-0.024
Mof_H 	H 	0.6023	0.2986	0.6021	0.037
Mof_C 	C 	0.0783	0.7976	0.836	-0.062
Mof_H 	H 	0.0393	0.8231	0.8504	0.042
Mof_C 	C 	0.5502	0.1249	0.9431	-0.024
Mof_H 	H 	0.5925	0.1317	0.926	0.035
Mof_C 	C 	0.2953	0.9796	0.9025	-0.087
Mof_H 	H 	0.2971	0.9821	0.8654	0.061
Mof_C 	C 	0.4277	0.1203	0.9398	0.027
Mof_C 	C 	0.8878	0.6347	0.7819	0.4
Mof_C 	C 	0.3224	0.0423	0.9313	0.041
Mof_C 	C 	0.4254	0.1149	0.9927	0.026
Mof_C 	C 	0.541	0.9507	0.6058	0.039
Mof_C 	C 	0.1334	0.8455	0.8196	-0.04
Mof_H 	H 	0.1319	0.9035	0.8224	0.041
Mof_C 	C 	0.6605	0.1994	0.6201	-0.032
Mof_H 	H 	0.7031	0.227	0.6179	0.04
Mof_O 	O 	0.3854	0.1727	0.6941	-0.497
Mof_O 	O 	0.315	0.0957	0.7408	-0.489
Mof_O 	O 	0.6648	0.9315	0.7421	-0.516
Mof_O 	O 	0.2699	0.3325	0.8357	-0.514
Mof_O 	O 	0.2734	0.1966	0.8292	-0.507
Mof_O 	O 	0.8374	0.6092	0.7557	-0.494
Mof_O 	O 	0.3393	0.2184	0.1028	-0.484
Mof_O 	O 	0.2487	0.2771	0.7141	-0.973
Mof_O 	O 	0.1124	0.3779	0.7022	-0.511
Mof_O 	O 	0.1806	0.4451	0.7583	-0.51
Mof_O 	O 	0.2343	0.2713	0.1038	-0.497
Mof_O 	O 	0.6017	0.8604	0.7962	-0.51
Mof_O 	O 	0.8881	0.693	0.8135	-0.502
Mof_Zn	Zn	0.3333	0.27573	0.67748	1.207
Mof_Zn	Zn	0.25114	0.36439	0.76296	1.208
Mof_Zn	Zn	0.17105	0.29108	0.66223	1.174
Mof_Zn	Zn	0.24348	0.17828	0.7552	1.206
_end
