data_functionalizedCrystal
_audit_creation_method	'EQeq! by Chris Wilmer'
_symmetry_space_group_name_H-M	'P1'
_symmetry_Int_Tables_number	1
_symmetry_cell_setting	triclinic
loop_
_symmetry_equiv_pos_as_xyz
  x,y,z
_cell_length_a	9.3925
_cell_length_b	10.1977
_cell_length_c	24.4616
_cell_angle_alpha	91.926
_cell_angle_beta	90
_cell_angle_gamma	90
loop_
_atom_site_label
_atom_site_type_symbol
_atom_site_fract_x
_atom_site_fract_y
_atom_site_fract_z
_atom_site_charge
Mof_Co	Co	0.65741	0.2514	0.1268	1.151
Mof_Co	Co	0.0013	0.7493	0.3775	1.127
Mof_Co	Co	0.34259	0.2514	0.6268	1.151
Mof_Co	Co	0.9987	0.7493	0.8775	1.126
Mof_H 	H 	0.8988	0.1515	0.0624	-0.034
Mof_H 	H 	0.1077	0.0185	0.0703	0.144
Mof_H 	H 	0.9234	0.8701	0.198	0.163
Mof_H 	H 	0.7416	0.019	0.1922	-0.063
Mof_H 	H 	0.3365	0.9503	0.1133	0.053
Mof_H 	H 	0.2337	0.8654	0.075	0.059
Mof_H 	H 	0.2252	0.6688	0.176	0.043
Mof_H 	H 	0.3259	0.5635	0.1483	0.041
Mof_H 	H 	0.9651	0.5778	0.0373	0.13
Mof_H 	H 	0.7626	0.4647	0.0563	-0.013
Mof_H 	H 	0.9238	0.3302	0.1878	-0.045
Mof_H 	H 	0.1179	0.4413	0.1794	0.146
Mof_H 	H 	0.5032	0.8678	0.1637	0.052
Mof_H 	H 	0.3847	0.8232	0.2049	0.054
Mof_H 	H 	0.6	0.8979	0.2478	0.126
Mof_H 	H 	0.7652	0.898	0.3296	-0.016
Mof_H 	H 	0.9036	0.566	0.279	-0.026
Mof_H 	H 	0.7159	0.5215	0.2264	0.149
Mof_H 	H 	0.5322	0.64	0.0871	0.042
Mof_H 	H 	0.408	0.6719	0.0471	0.043
Mof_H 	H 	0.6802	0.9826	0.0183	0.169
Mof_H 	H 	0.8511	0.9613	0.9488	-0.043
Mof_H 	H 	0.7723	0.584	0.9423	-0.072
Mof_H 	H 	0.5906	0.6061	0.9932	0.207
Mof_H 	H 	0.4024	0.4559	0.2521	0.098
Mof_H 	H 	0.0418	0.348	0.3267	0.124
Mof_H 	H 	0.2545	0.0881	0.2303	0.137
Mof_H 	H 	0.0269	0.1369	0.9351	0.111
Mof_H 	H 	0.2563	0.4168	0.014	0.12
Mof_H 	H 	0.4057	0.0479	0.0006	0.071
Mof_H 	H 	0.9641	0.1431	0.3084	0.257
Mof_H 	H 	0.1012	0.1515	0.5624	-0.033
Mof_H 	H 	0.8923	0.0185	0.5703	0.146
Mof_H 	H 	0.0766	0.8701	0.698	0.164
Mof_H 	H 	0.2584	0.019	0.6922	-0.063
Mof_H 	H 	0.6635	0.9503	0.6133	0.054
Mof_H 	H 	0.7663	0.8654	0.575	0.06
Mof_H 	H 	0.7748	0.6688	0.676	0.043
Mof_H 	H 	0.6741	0.5635	0.6483	0.041
Mof_H 	H 	0.0349	0.5778	0.5373	0.132
Mof_H 	H 	0.2374	0.4647	0.5563	-0.012
Mof_H 	H 	0.0762	0.3302	0.6878	-0.045
Mof_H 	H 	0.8821	0.4413	0.6794	0.146
Mof_H 	H 	0.4968	0.8678	0.6637	0.053
Mof_H 	H 	0.6153	0.8232	0.7049	0.054
Mof_H 	H 	0.4	0.8979	0.7478	0.126
Mof_H 	H 	0.2348	0.898	0.8296	-0.016
Mof_H 	H 	0.0964	0.566	0.779	-0.026
Mof_H 	H 	0.2841	0.5215	0.7264	0.149
Mof_H 	H 	0.4678	0.64	0.5871	0.043
Mof_H 	H 	0.592	0.6719	0.5471	0.045
Mof_H 	H 	0.3198	0.9826	0.5183	0.167
Mof_H 	H 	0.1489	0.9613	0.4488	-0.042
Mof_H 	H 	0.2277	0.584	0.4423	-0.074
Mof_H 	H 	0.4094	0.6061	0.4932	0.207
Mof_H 	H 	0.5976	0.4559	0.7521	0.098
Mof_H 	H 	0.9582	0.348	0.8267	0.124
Mof_H 	H 	0.7455	0.0881	0.7303	0.137
Mof_H 	H 	0.9731	0.1369	0.4351	0.112
Mof_H 	H 	0.7437	0.4168	0.514	0.121
Mof_H 	H 	0.5943	0.0479	0.5006	0.084
Mof_H 	H 	0.0359	0.1431	0.8084	0.257
Mof_C 	C 	0.909	0.099	0.0924	0.161
Mof_C 	C 	0.039	0.024	0.0978	-0.277
Mof_C 	C 	0.054	0.962	0.1449	0.313
Mof_C 	C 	0.9289	0.9391	0.1742	-0.333
Mof_C 	C 	0.816	0.02	0.167	0.249
Mof_C 	C 	0.275	0.874	0.1113	-0.008
Mof_C 	C 	0.3617	0.737	0.1284	0.013
Mof_C 	C 	0.272	0.6429	0.1421	0.041
Mof_C 	C 	0.055	0.549	0.1155	0.277
Mof_C 	C 	0.953	0.537	0.0705	-0.229
Mof_C 	C 	0.836	0.461	0.0816	0.13
Mof_C 	C 	0.928	0.385	0.1582	0.189
Mof_C 	C 	0.043	0.454	0.1552	-0.306
Mof_C 	C 	0.446	0.794	0.1751	-0.006
Mof_C 	C 	0.631	0.707	0.2331	0.287
Mof_C 	C 	0.649	0.823	0.258	-0.254
Mof_C 	C 	0.761	0.823	0.3069	0.12
Mof_C 	C 	0.83	0.6269	0.2794	0.153
Mof_C 	C 	0.726	0.603	0.2438	-0.278
Mof_C 	C 	0.465	0.707	0.0773	0.048
Mof_C 	C 	0.637	0.795	0.0211	0.394
Mof_C 	C 	0.703	0.9	0.0034	-0.36
Mof_C 	C 	0.8059	0.8881	0.9624	0.181
Mof_C 	C 	0.754	0.6669	0.9577	0.326
Mof_C 	C 	0.654	0.675	0.9896	-0.446
Mof_C 	C 	0.494	0.241	0.202	0.346
Mof_C 	C 	0.3474	0.267	0.2355	0.036
Mof_C 	C 	0.3345	0.3923	0.2591	-0.111
Mof_C 	C 	0.22	0.4227	0.2933	0.055
Mof_C 	C 	0.1184	0.3277	0.3038	-0.232
Mof_C 	C 	0.1313	0.2023	0.2803	0.291
Mof_C 	C 	0.2458	0.1719	0.2461	-0.211
Mof_C 	C 	0.177	0.567	0.3129	0.284
Mof_C 	C 	0.2	0.94	0.9429	0.267
Mof_C 	C 	0.2136	0.0709	0.9648	0.005
Mof_C 	C 	0.1081	0.1624	0.9544	-0.163
Mof_C 	C 	0.1241	0.292	0.9728	0.223
Mof_C 	C 	0.2456	0.3301	0.0017	-0.175
Mof_C 	C 	0.3511	0.2386	0.0121	0.015
Mof_C 	C 	0.3351	0.1091	0.9936	-0.057
Mof_C 	C 	0.4643	0.2777	0.0483	0.208
Mof_C 	C 	0.091	0.099	0.5924	0.161
Mof_C 	C 	0.961	0.024	0.5978	-0.276
Mof_C 	C 	0.946	0.962	0.6449	0.313
Mof_C 	C 	0.0711	0.9391	0.6742	-0.334
Mof_C 	C 	0.184	0.02	0.667	0.249
Mof_C 	C 	0.725	0.874	0.6113	-0.009
Mof_C 	C 	0.6383	0.737	0.6284	0.014
Mof_C 	C 	0.728	0.6429	0.6421	0.04
Mof_C 	C 	0.945	0.549	0.6155	0.278
Mof_C 	C 	0.047	0.537	0.5705	-0.229
Mof_C 	C 	0.164	0.461	0.5816	0.131
Mof_C 	C 	0.072	0.385	0.6582	0.188
Mof_C 	C 	0.957	0.454	0.6552	-0.305
Mof_C 	C 	0.554	0.794	0.6751	-0.006
Mof_C 	C 	0.369	0.707	0.7331	0.287
Mof_C 	C 	0.351	0.823	0.758	-0.254
Mof_C 	C 	0.239	0.823	0.8069	0.12
Mof_C 	C 	0.17	0.6269	0.7794	0.153
Mof_C 	C 	0.274	0.603	0.7438	-0.278
Mof_C 	C 	0.535	0.707	0.5773	0.047
Mof_C 	C 	0.363	0.795	0.5211	0.398
Mof_C 	C 	0.297	0.9	0.5034	-0.352
Mof_C 	C 	0.1941	0.8881	0.4624	0.173
Mof_C 	C 	0.246	0.6669	0.4577	0.33
Mof_C 	C 	0.346	0.675	0.4896	-0.456
Mof_C 	C 	0.506	0.241	0.702	0.346
Mof_C 	C 	0.6526	0.267	0.7355	0.036
Mof_C 	C 	0.6655	0.3923	0.7591	-0.111
Mof_C 	C 	0.78	0.4227	0.7933	0.056
Mof_C 	C 	0.8816	0.3277	0.8038	-0.232
Mof_C 	C 	0.8687	0.2023	0.7803	0.291
Mof_C 	C 	0.7542	0.1719	0.7461	-0.211
Mof_C 	C 	0.823	0.567	0.8129	0.284
Mof_C 	C 	0.8	0.94	0.4429	0.263
Mof_C 	C 	0.7864	0.0709	0.4648	0.014
Mof_C 	C 	0.8919	0.1624	0.4544	-0.168
Mof_C 	C 	0.8759	0.292	0.4728	0.219
Mof_C 	C 	0.7544	0.3301	0.5017	-0.174
Mof_C 	C 	0.6489	0.2386	0.5121	0.029
Mof_C 	C 	0.6649	0.1091	0.4936	-0.083
Mof_C 	C 	0.5357	0.2777	0.5483	0.204
Mof_N 	N 	0.8071	0.0947	0.1281	-0.299
Mof_N 	N 	0.8131	0.3812	0.1243	-0.29
Mof_N 	N 	0.843	0.7305	0.3171	-0.273
Mof_N 	N 	0.838	0.7615	0.9429	-0.296
Mof_N 	N 	0.1929	0.0947	0.6281	-0.299
Mof_N 	N 	0.1869	0.3812	0.6243	-0.29
Mof_N 	N 	0.157	0.7305	0.8171	-0.273
Mof_N 	N 	0.162	0.7615	0.4429	-0.297
Mof_O 	O 	0.1626	0.8805	0.1547	-0.251
Mof_O 	O 	0.1718	0.617	0.1029	-0.248
Mof_O 	O 	0.5365	0.6848	0.191	-0.24
Mof_O 	O 	0.5397	0.8143	0.0595	-0.291
Mof_O 	O 	0.58	0.307	0.2022	-0.481
Mof_O 	O 	0.4681	0.1345	0.1685	-0.345
Mof_O 	O 	0.026	0.1104	0.2888	-0.447
Mof_O 	O 	0.0928	0.5826	0.3467	-0.445
Mof_O 	O 	0.3009	0.6421	0.3052	-0.242
Mof_O 	O 	0.0982	0.9145	0.9086	-0.409
Mof_O 	O 	0.2435	0.8437	0.9716	-0.252
Mof_O 	O 	0.025	0.3847	0.9636	-0.22
Mof_O 	O 	0.477	0.395	0.0678	-0.279
Mof_O 	O 	0.595	0.219	0.048	-0.366
Mof_O 	O 	0.8374	0.8805	0.6547	-0.25
Mof_O 	O 	0.8282	0.617	0.6029	-0.247
Mof_O 	O 	0.4635	0.6848	0.691	-0.24
Mof_O 	O 	0.4603	0.8143	0.5595	-0.292
Mof_O 	O 	0.42	0.307	0.7022	-0.481
Mof_O 	O 	0.5319	0.1345	0.6685	-0.345
Mof_O 	O 	0.974	0.1104	0.7888	-0.446
Mof_O 	O 	0.9072	0.5826	0.8467	-0.444
Mof_O 	O 	0.6991	0.6421	0.8052	-0.242
Mof_O 	O 	0.9018	0.9145	0.4086	-0.409
Mof_O 	O 	0.7565	0.8437	0.4716	-0.254
Mof_O 	O 	0.975	0.3847	0.4636	-0.222
Mof_O 	O 	0.523	0.395	0.5678	-0.277
Mof_O 	O 	0.405	0.219	0.548	-0.364
_end
