data_functionalizedCrystal
_audit_creation_method	'EQeq! by Chris Wilmer'
_symmetry_space_group_name_H-M	'P1'
_symmetry_Int_Tables_number	1
_symmetry_cell_setting	triclinic
loop_
_symmetry_equiv_pos_as_xyz
  x,y,z
_cell_length_a	9.0656
_cell_length_b	10.229
_cell_length_c	11.764
_cell_angle_alpha	115.77
_cell_angle_beta	90.1891
_cell_angle_gamma	90
loop_
_atom_site_label
_atom_site_type_symbol
_atom_site_fract_x
_atom_site_fract_y
_atom_site_fract_z
_atom_site_charge
Mof_Zn	Zn	0.92996	0.15376	0.44688	1.221
Mof_Zn	Zn	0.57004	0.70688	0.55312	1.222
Mof_Zn	Zn	0.07004	0.84624	0.55312	1.221
Mof_Zn	Zn	0.42996	0.29312	0.44688	1.222
Mof_P 	P 	0.73671	0.43544	0.55614	0.574
Mof_P 	P 	0.76329	0.8793	0.44386	0.576
Mof_P 	P 	0.26329	0.56456	0.44386	0.574
Mof_P 	P 	0.23671	0.1207	0.55614	0.576
Mof_H 	H 	0.8859	0.5273	0.6936	0.268
Mof_H 	H 	0.0146	0.8559	0.2402	0.001
Mof_H 	H 	0.1538	0.762	0.0608	0.081
Mof_H 	H 	0.2127	0.1654	0.0954	0.079
Mof_H 	H 	0.0688	0.2478	0.274	-0.015
Mof_H 	H 	0.6141	0.8337	0.3064	0.268
Mof_H 	H 	0.4854	0.6157	0.7598	-0.003
Mof_H 	H 	0.3462	0.7012	0.9392	0.088
Mof_H 	H 	0.2873	0.07	0.9046	0.088
Mof_H 	H 	0.4312	0.9738	0.726	-0.02
Mof_H 	H 	0.1141	0.4727	0.3064	0.268
Mof_H 	H 	0.9854	0.1441	0.7598	0.001
Mof_H 	H 	0.8462	0.238	0.9392	0.081
Mof_H 	H 	0.7873	0.8346	0.9046	0.079
Mof_H 	H 	0.9312	0.7522	0.726	-0.015
Mof_H 	H 	0.3859	0.1663	0.6936	0.268
Mof_H 	H 	0.5146	0.3843	0.2402	-0.003
Mof_H 	H 	0.6538	0.2988	0.0608	0.088
Mof_H 	H 	0.7127	0.93	0.0954	0.088
Mof_H 	H 	0.5688	0.0262	0.274	-0.02
Mof_C 	C 	0.0549	0.9189	0.2108	0.068
Mof_C 	C 	0.1392	0.86172	0.10304	-0.124
Mof_C 	C 	0.2024	0.95345	0.0573	0.044
Mof_C 	C 	0.174	0.09999	0.12298	-0.126
Mof_C 	C 	0.087	0.14874	0.23068	0.067
Mof_C 	C 	0.4451	0.7081	0.7892	0.086
Mof_C 	C 	0.3608	0.75868	0.89696	-0.143
Mof_C 	C 	0.2976	0.89615	0.9427	0.072
Mof_C 	C 	0.326	0.97701	0.87702	-0.152
Mof_C 	C 	0.413	0.91806	0.76932	0.078
Mof_C 	C 	0.9451	0.0811	0.7892	0.068
Mof_C 	C 	0.8608	0.13828	0.89696	-0.124
Mof_C 	C 	0.7976	0.04655	0.9427	0.044
Mof_C 	C 	0.826	0.90001	0.87702	-0.126
Mof_C 	C 	0.913	0.85126	0.76932	0.067
Mof_C 	C 	0.5549	0.2919	0.2108	0.086
Mof_C 	C 	0.6392	0.24132	0.10304	-0.143
Mof_C 	C 	0.7024	0.10385	0.0573	0.072
Mof_C 	C 	0.674	0.02299	0.12298	-0.152
Mof_C 	C 	0.587	0.08194	0.23068	0.078
Mof_N 	N 	0.0285	0.06088	0.27496	-0.263
Mof_N 	N 	0.4715	0.78592	0.72504	-0.271
Mof_N 	N 	0.9715	0.93912	0.72504	-0.263
Mof_N 	N 	0.5285	0.21408	0.27496	-0.271
Mof_O 	O 	0.8415	0.33044	0.45902	-0.466
Mof_O 	O 	0.0916	0.19983	0.56786	-0.464
Mof_O 	O 	0.7154	0.56253	0.52518	-0.488
Mof_O 	O 	0.806	0.48871	0.69142	-0.462
Mof_O 	O 	0.6585	0.87142	0.54098	-0.465
Mof_O 	O 	0.4084	0.63197	0.43214	-0.466
Mof_O 	O 	0.7846	0.03735	0.47482	-0.491
Mof_O 	O 	0.694	0.79729	0.30858	-0.462
Mof_O 	O 	0.1585	0.66956	0.54098	-0.466
Mof_O 	O 	0.9084	0.80017	0.43214	-0.464
Mof_O 	O 	0.2846	0.43747	0.47482	-0.488
Mof_O 	O 	0.194	0.51129	0.30858	-0.462
Mof_O 	O 	0.3415	0.12858	0.45902	-0.465
Mof_O 	O 	0.5916	0.36803	0.56786	-0.466
Mof_O 	O 	0.2154	0.96265	0.52518	-0.491
Mof_O 	O 	0.306	0.20271	0.69142	-0.462
_end
