data_functionalizedCrystal
_audit_creation_method	'EQeq! by Chris Wilmer'
_symmetry_space_group_name_H-M	'P1'
_symmetry_Int_Tables_number	1
_symmetry_cell_setting	triclinic
loop_
_symmetry_equiv_pos_as_xyz
  x,y,z
_cell_length_a	16.2079
_cell_length_b	17.833
_cell_length_c	11.6508
_cell_angle_alpha	90
_cell_angle_beta	90
_cell_angle_gamma	90
loop_
_atom_site_label
_atom_site_type_symbol
_atom_site_fract_x
_atom_site_fract_y
_atom_site_fract_z
_atom_site_charge
Mof_C 	C 	0.1989	0.3999	0.8357	-0.072
Mof_C 	C 	0.4593	0.4495	0.7446	0.094
Mof_H 	H 	0.42964	0.41305	0.78416	0.012
Mof_C 	C 	0.4582	0.4475	0.6266	-0.138
Mof_H 	H 	0.4287	0.41013	0.58903	0.08
Mof_C 	C 	0.4339	0.13	0.7457	0.088
Mof_H 	H 	0.46055	0.09198	0.78586	0.023
Mof_C 	C 	0.4388	0.13	0.6269	-0.128
Mof_H 	H 	0.46821	0.09249	0.58951	0.078
Mof_C 	C 	0.40016	0.18545	0.5637	0.057
Mof_C 	C 	0.3592	0.23957	0.6256	-0.131
Mof_H 	H 	0.33311	0.27884	0.58771	0.078
Mof_C 	C 	0.3567	0.23576	0.7444	0.084
Mof_H 	H 	0.32828	0.27298	0.78383	0.021
Mof_N 	N 	0.20029	0.40081	0.7367	-0.069
Mof_N 	N 	0.39288	0.18172	0.80501	-0.161
Mof_C 	C 	0.8011	0.6001	0.8357	-0.07
Mof_C 	C 	0.5407	0.5505	0.7446	0.095
Mof_H 	H 	0.57036	0.58695	0.78416	0.012
Mof_C 	C 	0.5418	0.5525	0.6266	-0.137
Mof_H 	H 	0.5713	0.58987	0.58903	0.08
Mof_C 	C 	0.5661	0.87	0.7457	0.09
Mof_H 	H 	0.53945	0.90802	0.78586	0.026
Mof_C 	C 	0.5612	0.87	0.6269	-0.127
Mof_H 	H 	0.53179	0.90751	0.58951	0.081
Mof_C 	C 	0.59984	0.81455	0.5637	0.059
Mof_C 	C 	0.6408	0.76043	0.6256	-0.131
Mof_H 	H 	0.66689	0.72116	0.58771	0.079
Mof_C 	C 	0.6433	0.76424	0.7444	0.086
Mof_H 	H 	0.67172	0.72702	0.78383	0.02
Mof_N 	N 	0.79971	0.59919	0.7367	-0.067
Mof_N 	N 	0.60712	0.81828	0.80501	-0.162
Mof_C 	C 	0.3011	0.8999	0.1643	-0.15
Mof_C 	C 	0.0407	0.9495	0.2554	0.096
Mof_H 	H 	0.07036	0.91305	0.21584	-0.012
Mof_C 	C 	0.0418	0.9475	0.3734	-0.133
Mof_H 	H 	0.0713	0.91013	0.41097	0.078
Mof_C 	C 	0.0661	0.63	0.2543	0.087
Mof_H 	H 	0.03945	0.59198	0.21414	-0.003
Mof_C 	C 	0.0612	0.63	0.3731	-0.138
Mof_H 	H 	0.03179	0.59249	0.41049	0.078
Mof_C 	C 	0.09984	0.68545	0.4363	0.062
Mof_C 	C 	0.1408	0.73957	0.3744	-0.14
Mof_H 	H 	0.16689	0.77884	0.41229	0.08
Mof_C 	C 	0.1433	0.73576	0.2556	0.081
Mof_H 	H 	0.17172	0.77298	0.21617	-0.002
Mof_N 	N 	0.29971	0.90081	0.2633	-0.06
Mof_N 	N 	0.10712	0.68172	0.19499	-0.192
Mof_C 	C 	0.6989	0.1001	0.1643	-0.152
Mof_C 	C 	0.9593	0.0505	0.2554	0.097
Mof_H 	H 	0.92964	0.08695	0.21584	-0.011
Mof_C 	C 	0.9582	0.0525	0.3734	-0.133
Mof_H 	H 	0.9287	0.08987	0.41097	0.078
Mof_C 	C 	0.9339	0.37	0.2543	0.089
Mof_H 	H 	0.96055	0.40802	0.21414	0.003
Mof_C 	C 	0.9388	0.37	0.3731	-0.137
Mof_H 	H 	0.96821	0.40751	0.41049	0.083
Mof_C 	C 	0.90016	0.31455	0.4363	0.064
Mof_C 	C 	0.8592	0.26043	0.3744	-0.14
Mof_H 	H 	0.83311	0.22116	0.41229	0.08
Mof_C 	C 	0.8567	0.26424	0.2556	0.083
Mof_H 	H 	0.82828	0.22702	0.21617	-0.002
Mof_N 	N 	0.70029	0.09919	0.2633	-0.062
Mof_N 	N 	0.89288	0.31828	0.19499	-0.191
Mof_C 	C 	0.8011	0.6001	0.1643	-0.15
Mof_C 	C 	0.5407	0.5505	0.2554	0.094
Mof_H 	H 	0.57036	0.58695	0.21584	-0.012
Mof_C 	C 	0.5418	0.5525	0.3734	-0.149
Mof_H 	H 	0.5713	0.58987	0.41097	0.082
Mof_C 	C 	0.5661	0.87	0.2543	0.089
Mof_H 	H 	0.53945	0.90802	0.21414	0.001
Mof_C 	C 	0.5612	0.87	0.3731	-0.137
Mof_H 	H 	0.53179	0.90751	0.41049	0.082
Mof_C 	C 	0.59984	0.81455	0.4363	0.064
Mof_C 	C 	0.6408	0.76043	0.3744	-0.14
Mof_H 	H 	0.66689	0.72116	0.41229	0.081
Mof_C 	C 	0.6433	0.76424	0.2556	0.083
Mof_H 	H 	0.67172	0.72702	0.21617	-0.002
Mof_N 	N 	0.79971	0.59919	0.2633	-0.06
Mof_N 	N 	0.60712	0.81828	0.19499	-0.192
Mof_C 	C 	0.1989	0.3999	0.1643	-0.153
Mof_C 	C 	0.4593	0.4495	0.2554	0.094
Mof_H 	H 	0.42964	0.41305	0.21584	-0.012
Mof_C 	C 	0.4582	0.4475	0.3734	-0.149
Mof_H 	H 	0.4287	0.41013	0.41097	0.082
Mof_C 	C 	0.4339	0.13	0.2543	0.087
Mof_H 	H 	0.46055	0.09198	0.21414	-0.002
Mof_C 	C 	0.4388	0.13	0.3731	-0.138
Mof_H 	H 	0.46821	0.09249	0.41049	0.079
Mof_C 	C 	0.40016	0.18545	0.4363	0.062
Mof_C 	C 	0.3592	0.23957	0.3744	-0.14
Mof_H 	H 	0.33311	0.27884	0.41229	0.079
Mof_C 	C 	0.3567	0.23576	0.2556	0.081
Mof_H 	H 	0.32828	0.27298	0.21617	-0.003
Mof_N 	N 	0.20029	0.40081	0.2633	-0.062
Mof_N 	N 	0.39288	0.18172	0.19499	-0.192
Mof_C 	C 	0.6989	0.1001	0.8357	-0.072
Mof_C 	C 	0.9593	0.0505	0.7446	0.096
Mof_H 	H 	0.92964	0.08695	0.78416	0.013
Mof_C 	C 	0.9582	0.0525	0.6266	-0.121
Mof_H 	H 	0.9287	0.08987	0.58903	0.076
Mof_C 	C 	0.9339	0.37	0.7457	0.09
Mof_H 	H 	0.96055	0.40802	0.78586	0.027
Mof_C 	C 	0.9388	0.37	0.6269	-0.127
Mof_H 	H 	0.96821	0.40751	0.58951	0.082
Mof_C 	C 	0.90016	0.31455	0.5637	0.059
Mof_C 	C 	0.8592	0.26043	0.6256	-0.131
Mof_H 	H 	0.83311	0.22116	0.58771	0.079
Mof_C 	C 	0.8567	0.26424	0.7444	0.085
Mof_H 	H 	0.82828	0.22702	0.78383	0.02
Mof_N 	N 	0.70029	0.09919	0.7367	-0.069
Mof_N 	N 	0.89288	0.31828	0.80501	-0.161
Mof_C 	C 	0.3011	0.8999	0.8357	-0.07
Mof_C 	C 	0.0407	0.9495	0.7446	0.096
Mof_H 	H 	0.07036	0.91305	0.78416	0.013
Mof_C 	C 	0.0418	0.9475	0.6266	-0.122
Mof_H 	H 	0.0713	0.91013	0.58903	0.076
Mof_C 	C 	0.0661	0.63	0.7457	0.088
Mof_H 	H 	0.03945	0.59198	0.78586	0.022
Mof_C 	C 	0.0612	0.63	0.6269	-0.128
Mof_H 	H 	0.03179	0.59249	0.58951	0.077
Mof_C 	C 	0.09984	0.68545	0.5637	0.057
Mof_C 	C 	0.1408	0.73957	0.6256	-0.131
Mof_H 	H 	0.16689	0.77884	0.58771	0.079
Mof_C 	C 	0.1433	0.73576	0.7444	0.084
Mof_H 	H 	0.17172	0.77298	0.78383	0.021
Mof_N 	N 	0.29971	0.90081	0.7367	-0.067
Mof_N 	N 	0.10712	0.68172	0.80501	-0.162
Mof_C 	C 	0.0884	0.36889	-0	-0.185
Mof_C 	C 	0.1667	0.5012	-0	-0.176
Mof_C 	C 	0.2385	0.2998	-0	-0.19
Mof_C 	C 	0.3098	0.43146	-0	-0.189
Mof_N 	N 	0.02051	0.35099	-0	-0.145
Mof_N 	N 	0.1506	0.56365	-0	-0.14
Mof_N 	N 	0.27124	0.24251	-0	-0.139
Mof_N 	N 	0.37788	0.44824	-0	-0.146
Mof_Mn	Mn	0.1994	0.39971	-0	0.875
Mof_Mn	Mn	0.38922	0.17837	-0	0.613
Mof_C 	C 	0.9116	0.63111	-0	-0.179
Mof_C 	C 	0.8333	0.4988	-0	-0.173
Mof_C 	C 	0.7615	0.7002	-0	-0.187
Mof_C 	C 	0.6902	0.56854	-0	-0.189
Mof_N 	N 	0.97949	0.64901	-0	-0.134
Mof_N 	N 	0.8494	0.43635	-0	-0.139
Mof_N 	N 	0.72876	0.75749	-0	-0.138
Mof_N 	N 	0.62212	0.55176	-0	-0.146
Mof_Mn	Mn	0.8006	0.60029	-0	0.876
Mof_Mn	Mn	0.61078	0.82163	-0	0.619
Mof_C 	C 	0.4116	0.86889	-0	-0.182
Mof_C 	C 	0.3333	0.0012	-0	-0.188
Mof_C 	C 	0.2615	0.7998	-0	-0.191
Mof_C 	C 	0.1902	0.93146	-0	-0.187
Mof_N 	N 	0.47949	0.85099	-0	-0.14
Mof_N 	N 	0.3494	0.06365	-0	-0.138
Mof_N 	N 	0.22876	0.74251	-0	-0.138
Mof_N 	N 	0.12212	0.94824	-0	-0.141
Mof_Mn	Mn	0.3006	0.89971	-0	0.885
Mof_Mn	Mn	0.11078	0.67837	-0	0.611
Mof_C 	C 	0.5884	0.13111	-0	-0.184
Mof_C 	C 	0.6667	0.9988	-0	-0.161
Mof_C 	C 	0.7385	0.2002	-0	-0.187
Mof_C 	C 	0.8098	0.06854	-0	-0.189
Mof_N 	N 	0.52051	0.14901	-0	-0.141
Mof_N 	N 	0.6506	0.93635	-0	-0.141
Mof_N 	N 	0.77124	0.25749	-0	-0.14
Mof_N 	N 	0.87788	0.05176	-0	-0.142
Mof_Mn	Mn	0.6994	0.10029	-0	0.866
Mof_Mn	Mn	0.88922	0.32163	-0	0.623
Mof_C 	C 	0.5	0.5	0.564	0.063
Mof_N 	N 	0.5	0.5	0.8051	-0.169
Mof_C 	C 	1.17511e-33	0	0.436	0.048
Mof_N 	N 	5.25294e-34	0	0.1949	-0.21
Mof_C 	C 	0.5	0.5	0.436	0.07
Mof_N 	N 	0.5	0.5	0.1949	-0.2
Mof_C 	C 	1.52009e-33	-3.74812e-33	0.564	0.042
Mof_N 	N 	-5.32634e-33	-3.74812e-33	0.8051	-0.178
Mof_Mn	Mn	0.5	0.5	-0	0.556
Mof_Mn	Mn	-0	0	-0	0.538
_end
