data_functionalizedCrystal
_audit_creation_method	'EQeq! by Chris Wilmer'
_symmetry_space_group_name_H-M	'P1'
_symmetry_Int_Tables_number	1
_symmetry_cell_setting	triclinic
loop_
_symmetry_equiv_pos_as_xyz
  x,y,z
_cell_length_a	10.575
_cell_length_b	11.66
_cell_length_c	15.767
_cell_angle_alpha	106.08
_cell_angle_beta	90.73
_cell_angle_gamma	94.05
loop_
_atom_site_label
_atom_site_type_symbol
_atom_site_fract_x
_atom_site_fract_y
_atom_site_fract_z
_atom_site_charge
Mof_Cu	Cu	0.13781	0.49601	0.49972	0.95
Mof_Cu	Cu	0.86124	0.4748	0.99825	0.948
Mof_Cu	Cu	0.98683	0.35601	0.31431	0.936
Mof_Cu	Cu	0.00736	0.64248	0.18503	0.928
Mof_O 	O 	0.2698	0.5194	0.085	-0.38
Mof_O 	O 	0.184	0.6024	0.2159	-0.377
Mof_O 	O 	0.2645	0.5142	0.4163	-0.367
Mof_O 	O 	0.1732	0.386	0.2928	-0.382
Mof_O 	O 	0.8104	0.3927	0.2812	-0.374
Mof_O 	O 	0.7242	0.4661	0.4129	-0.373
Mof_O 	O 	0.732	0.4769	0.0854	-0.365
Mof_O 	O 	0.8183	0.6033	0.2111	-0.365
Mof_C 	C 	0.3822	0.5161	0.2117	-0.038
Mof_C 	C 	0.3789	0.478	0.2882	-0.034
Mof_C 	C 	0.4923	0.4562	0.3253	0.001
Mof_H 	H 	0.4901	0.4321	0.3767	0.07
Mof_C 	C 	0.6087	0.4698	0.2872	-0.042
Mof_C 	C 	0.6118	0.5082	0.2106	-0.033
Mof_C 	C 	0.4987	0.5285	0.1735	-0.001
Mof_H 	H 	0.5007	0.5512	0.1214	0.071
Mof_C 	C 	0.2669	0.5476	0.1677	0.357
Mof_C 	C 	0.2587	0.4578	0.3348	0.353
Mof_C 	C 	0.7259	0.4414	0.3299	0.356
Mof_C 	C 	0.7337	0.5314	0.167	0.349
Mof_O 	O 	0.9715	0.2109	0.2174	-0.341
Mof_O 	O 	0.0396	0.3152	0.126	-0.286
Mof_O 	O 	0.8645	0.2691	0.969	-0.32
Mof_O 	O 	0.0495	0.2511	0.9032	-0.328
Mof_C 	C 	0.9953	0.1058	0.0674	-0.021
Mof_C 	C 	0.9858	0.1088	0.9789	-0.035
Mof_C 	C 	0.009	0.9985	0.0873	-0.014
Mof_H 	H 	0.0149	0.9982	0.1462	0.07
Mof_C 	C 	0.0025	0.221	0.1406	0.315
Mof_C 	C 	0.965	0.2196	0.9512	0.308
Mof_O 	O 	0.128	0.2926	0.4763	-0.326
Mof_O 	O 	0.9414	0.2442	0.4042	-0.335
Mof_O 	O 	0.0023	0.7863	0.2807	-0.353
Mof_O 	O 	0.053	0.6923	0.3798	-0.297
Mof_C 	C 	0.0117	0.1111	0.4803	-0.029
Mof_C 	C 	0.0078	0.8936	0.4321	-0.043
Mof_C 	C 	0.0178	0.004	0.4146	0
Mof_H 	H 	0.0289	0.0065	0.3567	0.065
Mof_C 	C 	0.0294	0.226	0.4538	0.319
Mof_C 	C 	0.0222	0.7812	0.3607	0.332
Mof_O 	O 	0.0033	0.5063	0.0827	-0.651
Mof_O 	O 	0.9968	0.4936	0.4164	-0.659
Mof_H 	H 	0.9899	0.4765	0.129	0.213
Mof_H 	H 	0.0131	0.5322	0.375	0.229
Mof_Cu	Cu	0.86219	0.50399	0.50028	0.949
Mof_Cu	Cu	0.13876	0.5252	0.00175	0.947
Mof_Cu	Cu	0.01317	0.64399	0.68569	0.936
Mof_Cu	Cu	0.99264	0.35752	0.81497	0.928
Mof_O 	O 	0.7302	0.4806	0.915	-0.38
Mof_O 	O 	0.816	0.3976	0.7841	-0.377
Mof_O 	O 	0.7355	0.4858	0.5837	-0.367
Mof_O 	O 	0.8268	0.614	0.7072	-0.382
Mof_O 	O 	0.1896	0.6073	0.7188	-0.374
Mof_O 	O 	0.2758	0.5339	0.5871	-0.373
Mof_O 	O 	0.268	0.5231	0.9146	-0.365
Mof_O 	O 	0.1817	0.3967	0.7889	-0.365
Mof_C 	C 	0.6178	0.4839	0.7883	-0.038
Mof_C 	C 	0.6211	0.522	0.7118	-0.034
Mof_C 	C 	0.5077	0.5438	0.6747	0.001
Mof_H 	H 	0.5099	0.5679	0.6233	0.07
Mof_C 	C 	0.3913	0.5302	0.7128	-0.042
Mof_C 	C 	0.3882	0.4918	0.7894	-0.033
Mof_C 	C 	0.5013	0.4715	0.8265	-0.001
Mof_H 	H 	0.4993	0.4488	0.8786	0.071
Mof_C 	C 	0.7331	0.4524	0.8323	0.357
Mof_C 	C 	0.7413	0.5422	0.6652	0.353
Mof_C 	C 	0.2741	0.5586	0.6701	0.356
Mof_C 	C 	0.2663	0.4686	0.833	0.349
Mof_O 	O 	0.0285	0.7891	0.7826	-0.341
Mof_O 	O 	0.9604	0.6848	0.874	-0.286
Mof_O 	O 	0.1355	0.7309	0.031	-0.32
Mof_O 	O 	0.9505	0.7489	0.0968	-0.328
Mof_C 	C 	0.0047	0.8942	0.9326	-0.021
Mof_C 	C 	0.0142	0.8912	0.0211	-0.035
Mof_C 	C 	0.991	0.0015	0.9127	-0.014
Mof_H 	H 	0.9851	0.0018	0.8538	0.07
Mof_C 	C 	0.9975	0.779	0.8594	0.315
Mof_C 	C 	0.035	0.7804	0.0488	0.308
Mof_O 	O 	0.872	0.7074	0.5237	-0.326
Mof_O 	O 	0.0586	0.7558	0.5958	-0.335
Mof_O 	O 	0.9977	0.2137	0.7193	-0.353
Mof_O 	O 	0.947	0.3077	0.6202	-0.297
Mof_C 	C 	0.9883	0.8889	0.5197	-0.029
Mof_C 	C 	0.9922	0.1064	0.5679	-0.043
Mof_C 	C 	0.9822	0.996	0.5854	0
Mof_H 	H 	0.9711	0.9935	0.6433	0.065
Mof_C 	C 	0.9706	0.774	0.5462	0.319
Mof_C 	C 	0.9778	0.2188	0.6393	0.332
Mof_O 	O 	0.9967	0.4937	0.9173	-0.651
Mof_O 	O 	0.0032	0.5064	0.5836	-0.659
Mof_H 	H 	0.0101	0.5235	0.871	0.213
Mof_H 	H 	0.9869	0.4678	0.625	0.229
_end
