data_functionalizedCrystal
_audit_creation_method	'EQeq! by Chris Wilmer'
_symmetry_space_group_name_H-M	'P1'
_symmetry_Int_Tables_number	1
_symmetry_cell_setting	triclinic
loop_
_symmetry_equiv_pos_as_xyz
  x,y,z
_cell_length_a	25.704
_cell_length_b	25.704
_cell_length_c	25.704
_cell_angle_alpha	90
_cell_angle_beta	90
_cell_angle_gamma	90
loop_
_atom_site_label
_atom_site_type_symbol
_atom_site_fract_x
_atom_site_fract_y
_atom_site_fract_z
_atom_site_charge
Mof_N 	N 	0.1971	0.8035	0.3917	-0.153
Mof_C 	C 	0.2359	0.8123	0.4235	0.09
Mof_H 	H 	0.2703	0.8148	0.4125	-0.007
Mof_N 	N 	0.2212	0.8175	0.4745	-0.131
Mof_C 	C 	0.1552	0.803	0.4233	0.014
Mof_H 	H 	0.1212	0.7999	0.4112	0.028
Mof_C 	C 	0.1667	0.807	0.4709	-0.019
Mof_H 	H 	0.1438	0.8037	0.4987	0.036
Mof_C 	C 	0.252	0.8254	0.5214	0.082
Mof_C 	C 	0.3119	0.8398	0.6073	0.107
Mof_C 	C 	0.3341	0.8274	0.566	-0.113
Mof_H 	H 	0.3701	0.824	0.5651	0.072
Mof_C 	C 	0.2291	0.8342	0.5692	-0.061
Mof_H 	H 	0.1931	0.8341	0.5727	0.052
Mof_C 	C 	0.2598	0.8428	0.6106	-0.099
Mof_H 	H 	0.2446	0.8511	0.6424	0.067
Mof_C 	C 	0.3024	0.8179	0.5176	-0.071
Mof_H 	H 	0.3178	0.8072	0.4866	0.058
Mof_N 	N 	0.3029	0.1965	0.8917	-0.153
Mof_C 	C 	0.2641	0.1877	0.9235	0.09
Mof_H 	H 	0.2297	0.1852	0.9125	-0.007
Mof_N 	N 	0.2788	0.1825	0.9745	-0.131
Mof_C 	C 	0.3448	0.197	0.9233	0.014
Mof_H 	H 	0.3788	0.2001	0.9112	0.028
Mof_C 	C 	0.3333	0.193	0.9709	-0.019
Mof_H 	H 	0.3562	0.1963	0.9987	0.036
Mof_C 	C 	0.248	0.1746	0.0214	0.082
Mof_C 	C 	0.1881	0.1602	0.1073	0.107
Mof_C 	C 	0.1659	0.1726	0.066	-0.113
Mof_H 	H 	0.1299	0.176	0.0651	0.072
Mof_C 	C 	0.2709	0.1658	0.0692	-0.061
Mof_H 	H 	0.3069	0.1659	0.0727	0.052
Mof_C 	C 	0.2402	0.1572	0.1106	-0.099
Mof_H 	H 	0.2554	0.1489	0.1424	0.067
Mof_C 	C 	0.1976	0.1821	0.0176	-0.071
Mof_H 	H 	0.1822	0.1928	0.9866	0.058
Mof_N 	N 	0.8029	0.3035	0.1083	-0.153
Mof_C 	C 	0.7641	0.3123	0.0765	0.09
Mof_H 	H 	0.7297	0.3148	0.0875	-0.007
Mof_N 	N 	0.7788	0.3175	0.0255	-0.131
Mof_C 	C 	0.8448	0.303	0.0767	0.014
Mof_H 	H 	0.8788	0.2999	0.0888	0.028
Mof_C 	C 	0.8333	0.307	0.0291	-0.019
Mof_H 	H 	0.8562	0.3037	0.0013	0.036
Mof_C 	C 	0.748	0.3254	0.9786	0.082
Mof_C 	C 	0.6881	0.3398	0.8927	0.107
Mof_C 	C 	0.6659	0.3274	0.934	-0.113
Mof_H 	H 	0.6299	0.324	0.9349	0.072
Mof_C 	C 	0.7709	0.3342	0.9308	-0.061
Mof_H 	H 	0.8069	0.3341	0.9273	0.052
Mof_C 	C 	0.7402	0.3428	0.8894	-0.099
Mof_H 	H 	0.7554	0.3511	0.8576	0.067
Mof_C 	C 	0.6976	0.3179	0.9824	-0.071
Mof_H 	H 	0.6822	0.3072	0.0134	0.058
Mof_N 	N 	0.6971	0.6965	0.6083	-0.153
Mof_C 	C 	0.7359	0.6877	0.5765	0.09
Mof_H 	H 	0.7703	0.6852	0.5875	-0.007
Mof_N 	N 	0.7212	0.6825	0.5255	-0.131
Mof_C 	C 	0.6552	0.697	0.5767	0.014
Mof_H 	H 	0.6212	0.7001	0.5888	0.028
Mof_C 	C 	0.6667	0.693	0.5291	-0.019
Mof_H 	H 	0.6438	0.6963	0.5013	0.036
Mof_C 	C 	0.752	0.6746	0.4786	0.082
Mof_C 	C 	0.8119	0.6602	0.3927	0.107
Mof_C 	C 	0.8341	0.6726	0.434	-0.113
Mof_H 	H 	0.8701	0.676	0.4349	0.072
Mof_C 	C 	0.7291	0.6658	0.4308	-0.061
Mof_H 	H 	0.6931	0.6659	0.4273	0.052
Mof_C 	C 	0.7598	0.6572	0.3894	-0.099
Mof_H 	H 	0.7446	0.6489	0.3576	0.067
Mof_C 	C 	0.8024	0.6821	0.4824	-0.071
Mof_H 	H 	0.8178	0.6928	0.5134	0.058
Mof_N 	N 	0.3917	0.1971	0.8035	-0.153
Mof_C 	C 	0.4235	0.2359	0.8123	0.09
Mof_H 	H 	0.4125	0.2703	0.8148	-0.007
Mof_N 	N 	0.4745	0.2212	0.8175	-0.131
Mof_C 	C 	0.4233	0.1552	0.803	0.014
Mof_H 	H 	0.4112	0.1212	0.7999	0.028
Mof_C 	C 	0.4709	0.1667	0.807	-0.019
Mof_H 	H 	0.4987	0.1438	0.8037	0.036
Mof_C 	C 	0.5214	0.252	0.8254	0.083
Mof_C 	C 	0.6073	0.3119	0.8398	0.108
Mof_C 	C 	0.566	0.3341	0.8274	-0.112
Mof_H 	H 	0.5651	0.3701	0.824	0.073
Mof_C 	C 	0.5692	0.2291	0.8342	-0.06
Mof_H 	H 	0.5727	0.1931	0.8341	0.053
Mof_C 	C 	0.6106	0.2598	0.8428	-0.098
Mof_H 	H 	0.6424	0.2446	0.8511	0.068
Mof_C 	C 	0.5176	0.3024	0.8179	-0.07
Mof_H 	H 	0.4866	0.3178	0.8072	0.059
Mof_N 	N 	0.8917	0.3029	0.1965	-0.152
Mof_C 	C 	0.9235	0.2641	0.1877	0.091
Mof_H 	H 	0.9125	0.2297	0.1852	-0.006
Mof_N 	N 	0.9745	0.2788	0.1825	-0.13
Mof_C 	C 	0.9233	0.3448	0.197	0.015
Mof_H 	H 	0.9112	0.3788	0.2001	0.029
Mof_C 	C 	0.9709	0.3333	0.193	-0.018
Mof_H 	H 	0.9987	0.3562	0.1963	0.037
Mof_C 	C 	0.0214	0.248	0.1746	0.083
Mof_C 	C 	0.1073	0.1881	0.1602	0.108
Mof_C 	C 	0.066	0.1659	0.1726	-0.112
Mof_H 	H 	0.0651	0.1299	0.176	0.073
Mof_C 	C 	0.0692	0.2709	0.1658	-0.06
Mof_H 	H 	0.0727	0.3069	0.1659	0.053
Mof_C 	C 	0.1106	0.2402	0.1572	-0.098
Mof_H 	H 	0.1424	0.2554	0.1489	0.068
Mof_C 	C 	0.0176	0.1976	0.1821	-0.07
Mof_H 	H 	0.9866	0.1822	0.1928	0.059
Mof_N 	N 	0.1083	0.8029	0.3035	-0.152
Mof_C 	C 	0.0765	0.7641	0.3123	0.091
Mof_H 	H 	0.0875	0.7297	0.3148	-0.006
Mof_N 	N 	0.0255	0.7788	0.3175	-0.13
Mof_C 	C 	0.0767	0.8448	0.303	0.015
Mof_H 	H 	0.0888	0.8788	0.2999	0.029
Mof_C 	C 	0.0291	0.8333	0.307	-0.018
Mof_H 	H 	0.0013	0.8562	0.3037	0.037
Mof_C 	C 	0.9786	0.748	0.3254	0.083
Mof_C 	C 	0.8927	0.6881	0.3398	0.108
Mof_C 	C 	0.934	0.6659	0.3274	-0.112
Mof_H 	H 	0.9349	0.6299	0.324	0.073
Mof_C 	C 	0.9308	0.7709	0.3342	-0.06
Mof_H 	H 	0.9273	0.8069	0.3341	0.053
Mof_C 	C 	0.8894	0.7402	0.3428	-0.098
Mof_H 	H 	0.8576	0.7554	0.3511	0.068
Mof_C 	C 	0.9824	0.6976	0.3179	-0.07
Mof_H 	H 	0.0134	0.6822	0.3072	0.059
Mof_N 	N 	0.6083	0.6971	0.6965	-0.152
Mof_C 	C 	0.5765	0.7359	0.6877	0.091
Mof_H 	H 	0.5875	0.7703	0.6852	-0.006
Mof_N 	N 	0.5255	0.7212	0.6825	-0.13
Mof_C 	C 	0.5767	0.6552	0.697	0.015
Mof_H 	H 	0.5888	0.6212	0.7001	0.029
Mof_C 	C 	0.5291	0.6667	0.693	-0.018
Mof_H 	H 	0.5013	0.6438	0.6963	0.037
Mof_C 	C 	0.4786	0.752	0.6746	0.083
Mof_C 	C 	0.3927	0.8119	0.6602	0.108
Mof_C 	C 	0.434	0.8341	0.6726	-0.112
Mof_H 	H 	0.4349	0.8701	0.676	0.073
Mof_C 	C 	0.4308	0.7291	0.6658	-0.06
Mof_H 	H 	0.4273	0.6931	0.6659	0.053
Mof_C 	C 	0.3894	0.7598	0.6572	-0.098
Mof_H 	H 	0.3576	0.7446	0.6489	0.068
Mof_C 	C 	0.4824	0.8024	0.6821	-0.07
Mof_H 	H 	0.5134	0.8178	0.6928	0.059
Mof_N 	N 	0.8035	0.3917	0.1971	-0.152
Mof_C 	C 	0.8123	0.4235	0.2359	0.091
Mof_H 	H 	0.8148	0.4125	0.2703	-0.006
Mof_N 	N 	0.8175	0.4745	0.2212	-0.13
Mof_C 	C 	0.803	0.4233	0.1552	0.015
Mof_H 	H 	0.7999	0.4112	0.1212	0.029
Mof_C 	C 	0.807	0.4709	0.1667	-0.018
Mof_H 	H 	0.8037	0.4987	0.1438	0.037
Mof_C 	C 	0.8254	0.5214	0.252	0.083
Mof_C 	C 	0.8398	0.6073	0.3119	0.108
Mof_C 	C 	0.8274	0.566	0.3341	-0.112
Mof_H 	H 	0.824	0.5651	0.3701	0.073
Mof_C 	C 	0.8342	0.5692	0.2291	-0.06
Mof_H 	H 	0.8341	0.5727	0.1931	0.053
Mof_C 	C 	0.8428	0.6106	0.2598	-0.098
Mof_H 	H 	0.8511	0.6424	0.2446	0.068
Mof_C 	C 	0.8179	0.5176	0.3024	-0.07
Mof_H 	H 	0.8072	0.4866	0.3178	0.059
Mof_N 	N 	0.1965	0.8917	0.3029	-0.152
Mof_C 	C 	0.1877	0.9235	0.2641	0.091
Mof_H 	H 	0.1852	0.9125	0.2297	-0.006
Mof_N 	N 	0.1825	0.9745	0.2788	-0.13
Mof_C 	C 	0.197	0.9233	0.3448	0.015
Mof_H 	H 	0.2001	0.9112	0.3788	0.029
Mof_C 	C 	0.193	0.9709	0.3333	-0.018
Mof_H 	H 	0.1963	0.9987	0.3562	0.037
Mof_C 	C 	0.1746	0.0214	0.248	0.083
Mof_C 	C 	0.1602	0.1073	0.1881	0.108
Mof_C 	C 	0.1726	0.066	0.1659	-0.112
Mof_H 	H 	0.176	0.0651	0.1299	0.073
Mof_C 	C 	0.1658	0.0692	0.2709	-0.06
Mof_H 	H 	0.1659	0.0727	0.3069	0.053
Mof_C 	C 	0.1572	0.1106	0.2402	-0.098
Mof_H 	H 	0.1489	0.1424	0.2554	0.068
Mof_C 	C 	0.1821	0.0176	0.1976	-0.07
Mof_H 	H 	0.1928	0.9866	0.1822	0.059
Mof_N 	N 	0.3035	0.1083	0.8029	-0.152
Mof_C 	C 	0.3123	0.0765	0.7641	0.091
Mof_H 	H 	0.3148	0.0875	0.7297	-0.006
Mof_N 	N 	0.3175	0.0255	0.7788	-0.13
Mof_C 	C 	0.303	0.0767	0.8448	0.015
Mof_H 	H 	0.2999	0.0888	0.8788	0.029
Mof_C 	C 	0.307	0.0291	0.8333	-0.018
Mof_H 	H 	0.3037	0.0013	0.8562	0.037
Mof_C 	C 	0.3254	0.9786	0.748	0.083
Mof_C 	C 	0.3398	0.8927	0.6881	0.108
Mof_C 	C 	0.3274	0.934	0.6659	-0.112
Mof_H 	H 	0.324	0.9349	0.6299	0.073
Mof_C 	C 	0.3342	0.9308	0.7709	-0.06
Mof_H 	H 	0.3341	0.9273	0.8069	0.053
Mof_C 	C 	0.3428	0.8894	0.7402	-0.098
Mof_H 	H 	0.3511	0.8576	0.7554	0.068
Mof_C 	C 	0.3179	0.9824	0.6976	-0.07
Mof_H 	H 	0.3072	0.0134	0.6822	0.059
Mof_N 	N 	0.6965	0.6083	0.6971	-0.152
Mof_C 	C 	0.6877	0.5765	0.7359	0.091
Mof_H 	H 	0.6852	0.5875	0.7703	-0.006
Mof_N 	N 	0.6825	0.5255	0.7212	-0.13
Mof_C 	C 	0.697	0.5767	0.6552	0.015
Mof_H 	H 	0.7001	0.5888	0.6212	0.029
Mof_C 	C 	0.693	0.5291	0.6667	-0.018
Mof_H 	H 	0.6963	0.5013	0.6438	0.037
Mof_C 	C 	0.6746	0.4786	0.752	0.083
Mof_C 	C 	0.6602	0.3927	0.8119	0.108
Mof_C 	C 	0.6726	0.434	0.8341	-0.112
Mof_H 	H 	0.676	0.4349	0.8701	0.073
Mof_C 	C 	0.6658	0.4308	0.7291	-0.06
Mof_H 	H 	0.6659	0.4273	0.6931	0.053
Mof_C 	C 	0.6572	0.3894	0.7598	-0.098
Mof_H 	H 	0.6489	0.3576	0.7446	0.068
Mof_C 	C 	0.6821	0.4824	0.8024	-0.07
Mof_H 	H 	0.6928	0.5134	0.8178	0.059
Mof_Cd	Cd	0.19949	0.80051	0.30051	0.247
Mof_Cd	Cd	0.30051	0.19949	0.80051	0.247
Mof_Cd	Cd	0.69949	0.69949	0.69949	0.247
Mof_Cd	Cd	0.80051	0.30051	0.19949	0.247
Mof_N 	N 	0.3432	0.8432	0.6568	-0.152
Mof_N 	N 	0.6568	0.3432	0.8432	-0.152
Mof_N 	N 	0.8432	0.6568	0.3432	-0.152
Mof_N 	N 	0.1568	0.1568	0.1568	-0.152
Mof_N 	N 	0.1971	0.3035	0.8917	-0.152
Mof_C 	C 	0.2359	0.3123	0.9235	0.091
Mof_H 	H 	0.2703	0.3148	0.9125	-0.006
Mof_N 	N 	0.2212	0.3175	0.9745	-0.13
Mof_C 	C 	0.1552	0.303	0.9233	0.015
Mof_H 	H 	0.1212	0.2999	0.9112	0.029
Mof_C 	C 	0.1667	0.307	0.9709	-0.018
Mof_H 	H 	0.1438	0.3037	0.9987	0.037
Mof_C 	C 	0.252	0.3254	0.0214	0.083
Mof_C 	C 	0.3119	0.3398	0.1073	0.108
Mof_C 	C 	0.3341	0.3274	0.066	-0.112
Mof_H 	H 	0.3701	0.324	0.0651	0.073
Mof_C 	C 	0.2291	0.3342	0.0692	-0.06
Mof_H 	H 	0.1931	0.3341	0.0727	0.053
Mof_C 	C 	0.2598	0.3428	0.1106	-0.098
Mof_H 	H 	0.2446	0.3511	0.1424	0.068
Mof_C 	C 	0.3024	0.3179	0.0176	-0.07
Mof_H 	H 	0.3178	0.3072	0.9866	0.059
Mof_N 	N 	0.3029	0.6965	0.3917	-0.152
Mof_C 	C 	0.2641	0.6877	0.4235	0.091
Mof_H 	H 	0.2297	0.6852	0.4125	-0.006
Mof_N 	N 	0.2788	0.6825	0.4745	-0.13
Mof_C 	C 	0.3448	0.697	0.4233	0.015
Mof_H 	H 	0.3788	0.7001	0.4112	0.029
Mof_C 	C 	0.3333	0.693	0.4709	-0.018
Mof_H 	H 	0.3562	0.6963	0.4987	0.037
Mof_C 	C 	0.248	0.6746	0.5214	0.083
Mof_C 	C 	0.1881	0.6602	0.6073	0.108
Mof_C 	C 	0.1659	0.6726	0.566	-0.112
Mof_H 	H 	0.1299	0.676	0.5651	0.073
Mof_C 	C 	0.2709	0.6658	0.5692	-0.06
Mof_H 	H 	0.3069	0.6659	0.5727	0.053
Mof_C 	C 	0.2402	0.6572	0.6106	-0.098
Mof_H 	H 	0.2554	0.6489	0.6424	0.068
Mof_C 	C 	0.1976	0.6821	0.5176	-0.07
Mof_H 	H 	0.1822	0.6928	0.4866	0.059
Mof_N 	N 	0.8029	0.8035	0.6083	-0.152
Mof_C 	C 	0.7641	0.8123	0.5765	0.091
Mof_H 	H 	0.7297	0.8148	0.5875	-0.006
Mof_N 	N 	0.7788	0.8175	0.5255	-0.13
Mof_C 	C 	0.8448	0.803	0.5767	0.015
Mof_H 	H 	0.8788	0.7999	0.5888	0.029
Mof_C 	C 	0.8333	0.807	0.5291	-0.018
Mof_H 	H 	0.8562	0.8037	0.5013	0.037
Mof_C 	C 	0.748	0.8254	0.4786	0.083
Mof_C 	C 	0.6881	0.8398	0.3927	0.108
Mof_C 	C 	0.6659	0.8274	0.434	-0.112
Mof_H 	H 	0.6299	0.824	0.4349	0.073
Mof_C 	C 	0.7709	0.8342	0.4308	-0.06
Mof_H 	H 	0.8069	0.8341	0.4273	0.053
Mof_C 	C 	0.7402	0.8428	0.3894	-0.098
Mof_H 	H 	0.7554	0.8511	0.3576	0.068
Mof_C 	C 	0.6976	0.8179	0.4824	-0.07
Mof_H 	H 	0.6822	0.8072	0.5134	0.059
Mof_N 	N 	0.6971	0.1965	0.1083	-0.152
Mof_C 	C 	0.7359	0.1877	0.0765	0.091
Mof_H 	H 	0.7703	0.1852	0.0875	-0.006
Mof_N 	N 	0.7212	0.1825	0.0255	-0.13
Mof_C 	C 	0.6552	0.197	0.0767	0.015
Mof_H 	H 	0.6212	0.2001	0.0888	0.029
Mof_C 	C 	0.6667	0.193	0.0291	-0.018
Mof_H 	H 	0.6438	0.1963	0.0013	0.037
Mof_C 	C 	0.752	0.1746	0.9786	0.083
Mof_C 	C 	0.8119	0.1602	0.8927	0.108
Mof_C 	C 	0.8341	0.1726	0.934	-0.112
Mof_H 	H 	0.8701	0.176	0.9349	0.073
Mof_C 	C 	0.7291	0.1658	0.9308	-0.06
Mof_H 	H 	0.6931	0.1659	0.9273	0.053
Mof_C 	C 	0.7598	0.1572	0.8894	-0.098
Mof_H 	H 	0.7446	0.1489	0.8576	0.068
Mof_C 	C 	0.8024	0.1821	0.9824	-0.07
Mof_H 	H 	0.8178	0.1928	0.0134	0.059
Mof_N 	N 	0.3917	0.6971	0.3035	-0.152
Mof_C 	C 	0.4235	0.7359	0.3123	0.091
Mof_H 	H 	0.4125	0.7703	0.3148	-0.006
Mof_N 	N 	0.4745	0.7212	0.3175	-0.13
Mof_C 	C 	0.4233	0.6552	0.303	0.015
Mof_H 	H 	0.4112	0.6212	0.2999	0.029
Mof_C 	C 	0.4709	0.6667	0.307	-0.018
Mof_H 	H 	0.4987	0.6438	0.3037	0.037
Mof_C 	C 	0.5214	0.752	0.3254	0.083
Mof_C 	C 	0.6073	0.8119	0.3398	0.108
Mof_C 	C 	0.566	0.8341	0.3274	-0.112
Mof_H 	H 	0.5651	0.8701	0.324	0.073
Mof_C 	C 	0.5692	0.7291	0.3342	-0.06
Mof_H 	H 	0.5727	0.6931	0.3341	0.053
Mof_C 	C 	0.6106	0.7598	0.3428	-0.098
Mof_H 	H 	0.6424	0.7446	0.3511	0.068
Mof_C 	C 	0.5176	0.8024	0.3179	-0.07
Mof_H 	H 	0.4866	0.8178	0.3072	0.059
Mof_N 	N 	0.8917	0.8029	0.6965	-0.152
Mof_C 	C 	0.9235	0.7641	0.6877	0.091
Mof_H 	H 	0.9125	0.7297	0.6852	-0.006
Mof_N 	N 	0.9745	0.7788	0.6825	-0.13
Mof_C 	C 	0.9233	0.8448	0.697	0.015
Mof_H 	H 	0.9112	0.8788	0.7001	0.029
Mof_C 	C 	0.9709	0.8333	0.693	-0.018
Mof_H 	H 	0.9987	0.8562	0.6963	0.037
Mof_C 	C 	0.0214	0.748	0.6746	0.083
Mof_C 	C 	0.1073	0.6881	0.6602	0.108
Mof_C 	C 	0.066	0.6659	0.6726	-0.112
Mof_H 	H 	0.0651	0.6299	0.676	0.073
Mof_C 	C 	0.0692	0.7709	0.6658	-0.06
Mof_H 	H 	0.0727	0.8069	0.6659	0.053
Mof_C 	C 	0.1106	0.7402	0.6572	-0.098
Mof_H 	H 	0.1424	0.7554	0.6489	0.068
Mof_C 	C 	0.0176	0.6976	0.6821	-0.07
Mof_H 	H 	0.9866	0.6822	0.6928	0.059
Mof_N 	N 	0.1083	0.3029	0.8035	-0.152
Mof_C 	C 	0.0765	0.2641	0.8123	0.091
Mof_H 	H 	0.0875	0.2297	0.8148	-0.006
Mof_N 	N 	0.0255	0.2788	0.8175	-0.13
Mof_C 	C 	0.0767	0.3448	0.803	0.015
Mof_H 	H 	0.0888	0.3788	0.7999	0.029
Mof_C 	C 	0.0291	0.3333	0.807	-0.018
Mof_H 	H 	0.0013	0.3562	0.8037	0.037
Mof_C 	C 	0.9786	0.248	0.8254	0.083
Mof_C 	C 	0.8927	0.1881	0.8398	0.108
Mof_C 	C 	0.934	0.1659	0.8274	-0.112
Mof_H 	H 	0.9349	0.1299	0.824	0.073
Mof_C 	C 	0.9308	0.2709	0.8342	-0.06
Mof_H 	H 	0.9273	0.3069	0.8341	0.053
Mof_C 	C 	0.8894	0.2402	0.8428	-0.098
Mof_H 	H 	0.8576	0.2554	0.8511	0.068
Mof_C 	C 	0.9824	0.1976	0.8179	-0.07
Mof_H 	H 	0.0134	0.1822	0.8072	0.059
Mof_N 	N 	0.6083	0.1971	0.1965	-0.152
Mof_C 	C 	0.5765	0.2359	0.1877	0.091
Mof_H 	H 	0.5875	0.2703	0.1852	-0.006
Mof_N 	N 	0.5255	0.2212	0.1825	-0.13
Mof_C 	C 	0.5767	0.1552	0.197	0.015
Mof_H 	H 	0.5888	0.1212	0.2001	0.029
Mof_C 	C 	0.5291	0.1667	0.193	-0.018
Mof_H 	H 	0.5013	0.1438	0.1963	0.037
Mof_C 	C 	0.4786	0.252	0.1746	0.083
Mof_C 	C 	0.3927	0.3119	0.1602	0.108
Mof_C 	C 	0.434	0.3341	0.1726	-0.112
Mof_H 	H 	0.4349	0.3701	0.176	0.073
Mof_C 	C 	0.4308	0.2291	0.1658	-0.06
Mof_H 	H 	0.4273	0.1931	0.1659	0.053
Mof_C 	C 	0.3894	0.2598	0.1572	-0.098
Mof_H 	H 	0.3576	0.2446	0.1489	0.068
Mof_C 	C 	0.4824	0.3024	0.1821	-0.07
Mof_H 	H 	0.5134	0.3178	0.1928	0.059
Mof_N 	N 	0.8035	0.8917	0.6971	-0.152
Mof_C 	C 	0.8123	0.9235	0.7359	0.091
Mof_H 	H 	0.8148	0.9125	0.7703	-0.006
Mof_N 	N 	0.8175	0.9745	0.7212	-0.13
Mof_C 	C 	0.803	0.9233	0.6552	0.015
Mof_H 	H 	0.7999	0.9112	0.6212	0.029
Mof_C 	C 	0.807	0.9709	0.6667	-0.018
Mof_H 	H 	0.8037	0.9987	0.6438	0.037
Mof_C 	C 	0.8254	0.0214	0.752	0.083
Mof_C 	C 	0.8398	0.1073	0.8119	0.108
Mof_C 	C 	0.8274	0.066	0.8341	-0.112
Mof_H 	H 	0.824	0.0651	0.8701	0.073
Mof_C 	C 	0.8342	0.0692	0.7291	-0.06
Mof_H 	H 	0.8341	0.0727	0.6931	0.053
Mof_C 	C 	0.8428	0.1106	0.7598	-0.098
Mof_H 	H 	0.8511	0.1424	0.7446	0.068
Mof_C 	C 	0.8179	0.0176	0.8024	-0.07
Mof_H 	H 	0.8072	0.9866	0.8178	0.059
Mof_N 	N 	0.1965	0.3917	0.8029	-0.152
Mof_C 	C 	0.1877	0.4235	0.7641	0.091
Mof_H 	H 	0.1852	0.4125	0.7297	-0.006
Mof_N 	N 	0.1825	0.4745	0.7788	-0.13
Mof_C 	C 	0.197	0.4233	0.8448	0.015
Mof_H 	H 	0.2001	0.4112	0.8788	0.029
Mof_C 	C 	0.193	0.4709	0.8333	-0.018
Mof_H 	H 	0.1963	0.4987	0.8562	0.037
Mof_C 	C 	0.1746	0.5214	0.748	0.083
Mof_C 	C 	0.1602	0.6073	0.6881	0.108
Mof_C 	C 	0.1726	0.566	0.6659	-0.112
Mof_H 	H 	0.176	0.5651	0.6299	0.073
Mof_C 	C 	0.1658	0.5692	0.7709	-0.06
Mof_H 	H 	0.1659	0.5727	0.8069	0.053
Mof_C 	C 	0.1572	0.6106	0.7402	-0.098
Mof_H 	H 	0.1489	0.6424	0.7554	0.068
Mof_C 	C 	0.1821	0.5176	0.6976	-0.07
Mof_H 	H 	0.1928	0.4866	0.6822	0.059
Mof_N 	N 	0.3035	0.6083	0.3029	-0.152
Mof_C 	C 	0.3123	0.5765	0.2641	0.091
Mof_H 	H 	0.3148	0.5875	0.2297	-0.006
Mof_N 	N 	0.3175	0.5255	0.2788	-0.13
Mof_C 	C 	0.303	0.5767	0.3448	0.015
Mof_H 	H 	0.2999	0.5888	0.3788	0.029
Mof_C 	C 	0.307	0.5291	0.3333	-0.018
Mof_H 	H 	0.3037	0.5013	0.3562	0.037
Mof_C 	C 	0.3254	0.4786	0.248	0.083
Mof_C 	C 	0.3398	0.3927	0.1881	0.108
Mof_C 	C 	0.3274	0.434	0.1659	-0.112
Mof_H 	H 	0.324	0.4349	0.1299	0.073
Mof_C 	C 	0.3342	0.4308	0.2709	-0.06
Mof_H 	H 	0.3341	0.4273	0.3069	0.053
Mof_C 	C 	0.3428	0.3894	0.2402	-0.098
Mof_H 	H 	0.3511	0.3576	0.2554	0.068
Mof_C 	C 	0.3179	0.4824	0.1976	-0.07
Mof_H 	H 	0.3072	0.5134	0.1822	0.059
Mof_N 	N 	0.6965	0.1083	0.1971	-0.152
Mof_C 	C 	0.6877	0.0765	0.2359	0.091
Mof_H 	H 	0.6852	0.0875	0.2703	-0.006
Mof_N 	N 	0.6825	0.0255	0.2212	-0.13
Mof_C 	C 	0.697	0.0767	0.1552	0.015
Mof_H 	H 	0.7001	0.0888	0.1212	0.029
Mof_C 	C 	0.693	0.0291	0.1667	-0.018
Mof_H 	H 	0.6963	0.0013	0.1438	0.037
Mof_C 	C 	0.6746	0.9786	0.252	0.083
Mof_C 	C 	0.6602	0.8927	0.3119	0.108
Mof_C 	C 	0.6726	0.934	0.3341	-0.112
Mof_H 	H 	0.676	0.9349	0.3701	0.073
Mof_C 	C 	0.6658	0.9308	0.2291	-0.06
Mof_H 	H 	0.6659	0.9273	0.1931	0.053
Mof_C 	C 	0.6572	0.8894	0.2598	-0.098
Mof_H 	H 	0.6489	0.8576	0.2446	0.068
Mof_C 	C 	0.6821	0.9824	0.3024	-0.07
Mof_H 	H 	0.6928	0.0134	0.3178	0.059
Mof_Cd	Cd	0.80051	0.80051	0.69949	0.247
Mof_Cd	Cd	0.30051	0.69949	0.30051	0.247
Mof_Cd	Cd	0.69949	0.19949	0.19949	0.247
Mof_Cd	Cd	0.19949	0.30051	0.80051	0.247
Mof_N 	N 	0.6568	0.8432	0.3432	-0.152
Mof_N 	N 	0.3432	0.3432	0.1568	-0.152
Mof_N 	N 	0.8432	0.1568	0.8432	-0.152
Mof_N 	N 	0.1568	0.6568	0.6568	-0.152
Mof_N 	N 	0.6971	0.8035	0.8917	-0.152
Mof_C 	C 	0.7359	0.8123	0.9235	0.091
Mof_H 	H 	0.7703	0.8148	0.9125	-0.006
Mof_N 	N 	0.7212	0.8175	0.9745	-0.13
Mof_C 	C 	0.6552	0.803	0.9233	0.015
Mof_H 	H 	0.6212	0.7999	0.9112	0.029
Mof_C 	C 	0.6667	0.807	0.9709	-0.018
Mof_H 	H 	0.6438	0.8037	0.9987	0.037
Mof_C 	C 	0.752	0.8254	0.0214	0.083
Mof_C 	C 	0.8119	0.8398	0.1073	0.108
Mof_C 	C 	0.8341	0.8274	0.066	-0.112
Mof_H 	H 	0.8701	0.824	0.0651	0.073
Mof_C 	C 	0.7291	0.8342	0.0692	-0.06
Mof_H 	H 	0.6931	0.8341	0.0727	0.053
Mof_C 	C 	0.7598	0.8428	0.1106	-0.098
Mof_H 	H 	0.7446	0.8511	0.1424	0.068
Mof_C 	C 	0.8024	0.8179	0.0176	-0.07
Mof_H 	H 	0.8178	0.8072	0.9866	0.059
Mof_N 	N 	0.8029	0.1965	0.3917	-0.152
Mof_C 	C 	0.7641	0.1877	0.4235	0.091
Mof_H 	H 	0.7297	0.1852	0.4125	-0.006
Mof_N 	N 	0.7788	0.1825	0.4745	-0.13
Mof_C 	C 	0.8448	0.197	0.4233	0.015
Mof_H 	H 	0.8788	0.2001	0.4112	0.029
Mof_C 	C 	0.8333	0.193	0.4709	-0.018
Mof_H 	H 	0.8562	0.1963	0.4987	0.037
Mof_C 	C 	0.748	0.1746	0.5214	0.083
Mof_C 	C 	0.6881	0.1602	0.6073	0.108
Mof_C 	C 	0.6659	0.1726	0.566	-0.112
Mof_H 	H 	0.6299	0.176	0.5651	0.073
Mof_C 	C 	0.7709	0.1658	0.5692	-0.06
Mof_H 	H 	0.8069	0.1659	0.5727	0.053
Mof_C 	C 	0.7402	0.1572	0.6106	-0.098
Mof_H 	H 	0.7554	0.1489	0.6424	0.068
Mof_C 	C 	0.6976	0.1821	0.5176	-0.07
Mof_H 	H 	0.6822	0.1928	0.4866	0.059
Mof_N 	N 	0.3029	0.3035	0.6083	-0.152
Mof_C 	C 	0.2641	0.3123	0.5765	0.091
Mof_H 	H 	0.2297	0.3148	0.5875	-0.006
Mof_N 	N 	0.2788	0.3175	0.5255	-0.13
Mof_C 	C 	0.3448	0.303	0.5767	0.015
Mof_H 	H 	0.3788	0.2999	0.5888	0.029
Mof_C 	C 	0.3333	0.307	0.5291	-0.018
Mof_H 	H 	0.3562	0.3037	0.5013	0.037
Mof_C 	C 	0.248	0.3254	0.4786	0.083
Mof_C 	C 	0.1881	0.3398	0.3927	0.108
Mof_C 	C 	0.1659	0.3274	0.434	-0.112
Mof_H 	H 	0.1299	0.324	0.4349	0.073
Mof_C 	C 	0.2709	0.3342	0.4308	-0.06
Mof_H 	H 	0.3069	0.3341	0.4273	0.053
Mof_C 	C 	0.2402	0.3428	0.3894	-0.098
Mof_H 	H 	0.2554	0.3511	0.3576	0.068
Mof_C 	C 	0.1976	0.3179	0.4824	-0.07
Mof_H 	H 	0.1822	0.3072	0.5134	0.059
Mof_N 	N 	0.1971	0.6965	0.1083	-0.152
Mof_C 	C 	0.2359	0.6877	0.0765	0.091
Mof_H 	H 	0.2703	0.6852	0.0875	-0.006
Mof_N 	N 	0.2212	0.6825	0.0255	-0.13
Mof_C 	C 	0.1552	0.697	0.0767	0.015
Mof_H 	H 	0.1212	0.7001	0.0888	0.029
Mof_C 	C 	0.1667	0.693	0.0291	-0.018
Mof_H 	H 	0.1438	0.6963	0.0013	0.037
Mof_C 	C 	0.252	0.6746	0.9786	0.083
Mof_C 	C 	0.3119	0.6602	0.8927	0.108
Mof_C 	C 	0.3341	0.6726	0.934	-0.112
Mof_H 	H 	0.3701	0.676	0.9349	0.073
Mof_C 	C 	0.2291	0.6658	0.9308	-0.06
Mof_H 	H 	0.1931	0.6659	0.9273	0.053
Mof_C 	C 	0.2598	0.6572	0.8894	-0.098
Mof_H 	H 	0.2446	0.6489	0.8576	0.068
Mof_C 	C 	0.3024	0.6821	0.9824	-0.07
Mof_H 	H 	0.3178	0.6928	0.0134	0.059
Mof_N 	N 	0.8917	0.1971	0.3035	-0.152
Mof_C 	C 	0.9235	0.2359	0.3123	0.091
Mof_H 	H 	0.9125	0.2703	0.3148	-0.006
Mof_N 	N 	0.9745	0.2212	0.3175	-0.13
Mof_C 	C 	0.9233	0.1552	0.303	0.015
Mof_H 	H 	0.9112	0.1212	0.2999	0.029
Mof_C 	C 	0.9709	0.1667	0.307	-0.018
Mof_H 	H 	0.9987	0.1438	0.3037	0.037
Mof_C 	C 	0.0214	0.252	0.3254	0.083
Mof_C 	C 	0.1073	0.3119	0.3398	0.108
Mof_C 	C 	0.066	0.3341	0.3274	-0.112
Mof_H 	H 	0.0651	0.3701	0.324	0.073
Mof_C 	C 	0.0692	0.2291	0.3342	-0.06
Mof_H 	H 	0.0727	0.1931	0.3341	0.053
Mof_C 	C 	0.1106	0.2598	0.3428	-0.098
Mof_H 	H 	0.1424	0.2446	0.3511	0.068
Mof_C 	C 	0.0176	0.3024	0.3179	-0.07
Mof_H 	H 	0.9866	0.3178	0.3072	0.059
Mof_N 	N 	0.3917	0.3029	0.6965	-0.152
Mof_C 	C 	0.4235	0.2641	0.6877	0.091
Mof_H 	H 	0.4125	0.2297	0.6852	-0.006
Mof_N 	N 	0.4745	0.2788	0.6825	-0.13
Mof_C 	C 	0.4233	0.3448	0.697	0.015
Mof_H 	H 	0.4112	0.3788	0.7001	0.029
Mof_C 	C 	0.4709	0.3333	0.693	-0.018
Mof_H 	H 	0.4987	0.3562	0.6963	0.037
Mof_C 	C 	0.5214	0.248	0.6746	0.083
Mof_C 	C 	0.6073	0.1881	0.6602	0.108
Mof_C 	C 	0.566	0.1659	0.6726	-0.112
Mof_H 	H 	0.5651	0.1299	0.676	0.073
Mof_C 	C 	0.5692	0.2709	0.6658	-0.06
Mof_H 	H 	0.5727	0.3069	0.6659	0.053
Mof_C 	C 	0.6106	0.2402	0.6572	-0.098
Mof_H 	H 	0.6424	0.2554	0.6489	0.068
Mof_C 	C 	0.5176	0.1976	0.6821	-0.07
Mof_H 	H 	0.4866	0.1822	0.6928	0.059
Mof_N 	N 	0.6083	0.8029	0.8035	-0.152
Mof_C 	C 	0.5765	0.7641	0.8123	0.091
Mof_H 	H 	0.5875	0.7297	0.8148	-0.006
Mof_N 	N 	0.5255	0.7788	0.8175	-0.13
Mof_C 	C 	0.5767	0.8448	0.803	0.015
Mof_H 	H 	0.5888	0.8788	0.7999	0.029
Mof_C 	C 	0.5291	0.8333	0.807	-0.018
Mof_H 	H 	0.5013	0.8562	0.8037	0.037
Mof_C 	C 	0.4786	0.748	0.8254	0.083
Mof_C 	C 	0.3927	0.6881	0.8398	0.108
Mof_C 	C 	0.434	0.6659	0.8274	-0.112
Mof_H 	H 	0.4349	0.6299	0.824	0.073
Mof_C 	C 	0.4308	0.7709	0.8342	-0.06
Mof_H 	H 	0.4273	0.8069	0.8341	0.053
Mof_C 	C 	0.3894	0.7402	0.8428	-0.098
Mof_H 	H 	0.3576	0.7554	0.8511	0.068
Mof_C 	C 	0.4824	0.6976	0.8179	-0.07
Mof_H 	H 	0.5134	0.6822	0.8072	0.059
Mof_N 	N 	0.1083	0.6971	0.1965	-0.152
Mof_C 	C 	0.0765	0.7359	0.1877	0.091
Mof_H 	H 	0.0875	0.7703	0.1852	-0.006
Mof_N 	N 	0.0255	0.7212	0.1825	-0.13
Mof_C 	C 	0.0767	0.6552	0.197	0.015
Mof_H 	H 	0.0888	0.6212	0.2001	0.029
Mof_C 	C 	0.0291	0.6667	0.193	-0.018
Mof_H 	H 	0.0013	0.6438	0.1963	0.037
Mof_C 	C 	0.9786	0.752	0.1746	0.083
Mof_C 	C 	0.8927	0.8119	0.1602	0.108
Mof_C 	C 	0.934	0.8341	0.1726	-0.112
Mof_H 	H 	0.9349	0.8701	0.176	0.073
Mof_C 	C 	0.9308	0.7291	0.1658	-0.06
Mof_H 	H 	0.9273	0.6931	0.1659	0.053
Mof_C 	C 	0.8894	0.7598	0.1572	-0.098
Mof_H 	H 	0.8576	0.7446	0.1489	0.068
Mof_C 	C 	0.9824	0.8024	0.1821	-0.07
Mof_H 	H 	0.0134	0.8178	0.1928	0.059
Mof_N 	N 	0.3035	0.3917	0.6971	-0.152
Mof_C 	C 	0.3123	0.4235	0.7359	0.091
Mof_H 	H 	0.3148	0.4125	0.7703	-0.006
Mof_N 	N 	0.3175	0.4745	0.7212	-0.13
Mof_C 	C 	0.303	0.4233	0.6552	0.015
Mof_H 	H 	0.2999	0.4112	0.6212	0.029
Mof_C 	C 	0.307	0.4709	0.6667	-0.018
Mof_H 	H 	0.3037	0.4987	0.6438	0.037
Mof_C 	C 	0.3254	0.5214	0.752	0.083
Mof_C 	C 	0.3398	0.6073	0.8119	0.108
Mof_C 	C 	0.3274	0.566	0.8341	-0.112
Mof_H 	H 	0.324	0.5651	0.8701	0.073
Mof_C 	C 	0.3342	0.5692	0.7291	-0.06
Mof_H 	H 	0.3341	0.5727	0.6931	0.053
Mof_C 	C 	0.3428	0.6106	0.7598	-0.098
Mof_H 	H 	0.3511	0.6424	0.7446	0.068
Mof_C 	C 	0.3179	0.5176	0.8024	-0.07
Mof_H 	H 	0.3072	0.4866	0.8178	0.059
Mof_N 	N 	0.6965	0.8917	0.8029	-0.152
Mof_C 	C 	0.6877	0.9235	0.7641	0.091
Mof_H 	H 	0.6852	0.9125	0.7297	-0.006
Mof_N 	N 	0.6825	0.9745	0.7788	-0.13
Mof_C 	C 	0.697	0.9233	0.8448	0.015
Mof_H 	H 	0.7001	0.9112	0.8788	0.029
Mof_C 	C 	0.693	0.9709	0.8333	-0.018
Mof_H 	H 	0.6963	0.9987	0.8562	0.037
Mof_C 	C 	0.6746	0.0214	0.748	0.083
Mof_C 	C 	0.6602	0.1073	0.6881	0.108
Mof_C 	C 	0.6726	0.066	0.6659	-0.112
Mof_H 	H 	0.676	0.0651	0.6299	0.073
Mof_C 	C 	0.6658	0.0692	0.7709	-0.06
Mof_H 	H 	0.6659	0.0727	0.8069	0.053
Mof_C 	C 	0.6572	0.1106	0.7402	-0.098
Mof_H 	H 	0.6489	0.1424	0.7554	0.068
Mof_C 	C 	0.6821	0.0176	0.6976	-0.07
Mof_H 	H 	0.6928	0.9866	0.6822	0.059
Mof_N 	N 	0.8035	0.1083	0.3029	-0.152
Mof_C 	C 	0.8123	0.0765	0.2641	0.091
Mof_H 	H 	0.8148	0.0875	0.2297	-0.006
Mof_N 	N 	0.8175	0.0255	0.2788	-0.13
Mof_C 	C 	0.803	0.0767	0.3448	0.015
Mof_H 	H 	0.7999	0.0888	0.3788	0.029
Mof_C 	C 	0.807	0.0291	0.3333	-0.018
Mof_H 	H 	0.8037	0.0013	0.3562	0.037
Mof_C 	C 	0.8254	0.9786	0.248	0.083
Mof_C 	C 	0.8398	0.8927	0.1881	0.108
Mof_C 	C 	0.8274	0.934	0.1659	-0.112
Mof_H 	H 	0.824	0.9349	0.1299	0.073
Mof_C 	C 	0.8342	0.9308	0.2709	-0.06
Mof_H 	H 	0.8341	0.9273	0.3069	0.053
Mof_C 	C 	0.8428	0.8894	0.2402	-0.098
Mof_H 	H 	0.8511	0.8576	0.2554	0.068
Mof_C 	C 	0.8179	0.9824	0.1976	-0.07
Mof_H 	H 	0.8072	0.0134	0.1822	0.059
Mof_N 	N 	0.1965	0.6083	0.1971	-0.152
Mof_C 	C 	0.1877	0.5765	0.2359	0.091
Mof_H 	H 	0.1852	0.5875	0.2703	-0.006
Mof_N 	N 	0.1825	0.5255	0.2212	-0.13
Mof_C 	C 	0.197	0.5767	0.1552	0.015
Mof_H 	H 	0.2001	0.5888	0.1212	0.029
Mof_C 	C 	0.193	0.5291	0.1667	-0.018
Mof_H 	H 	0.1963	0.5013	0.1438	0.037
Mof_C 	C 	0.1746	0.4786	0.252	0.083
Mof_C 	C 	0.1602	0.3927	0.3119	0.108
Mof_C 	C 	0.1726	0.434	0.3341	-0.112
Mof_H 	H 	0.176	0.4349	0.3701	0.073
Mof_C 	C 	0.1658	0.4308	0.2291	-0.06
Mof_H 	H 	0.1659	0.4273	0.1931	0.053
Mof_C 	C 	0.1572	0.3894	0.2598	-0.098
Mof_H 	H 	0.1489	0.3576	0.2446	0.068
Mof_C 	C 	0.1821	0.4824	0.3024	-0.07
Mof_H 	H 	0.1928	0.5134	0.3178	0.059
Mof_Cd	Cd	0.80051	0.19949	0.30051	0.247
Mof_Cd	Cd	0.30051	0.30051	0.69949	0.247
Mof_Cd	Cd	0.69949	0.80051	0.80051	0.247
Mof_Cd	Cd	0.19949	0.69949	0.19949	0.247
Mof_N 	N 	0.6568	0.1568	0.6568	-0.152
Mof_N 	N 	0.3432	0.6568	0.8432	-0.152
Mof_N 	N 	0.8432	0.8432	0.1568	-0.152
Mof_N 	N 	0.1568	0.3432	0.3432	-0.152
Mof_N 	N 	0.6971	0.3035	0.3917	-0.152
Mof_C 	C 	0.7359	0.3123	0.4235	0.091
Mof_H 	H 	0.7703	0.3148	0.4125	-0.006
Mof_N 	N 	0.7212	0.3175	0.4745	-0.13
Mof_C 	C 	0.6552	0.303	0.4233	0.015
Mof_H 	H 	0.6212	0.2999	0.4112	0.029
Mof_C 	C 	0.6667	0.307	0.4709	-0.018
Mof_H 	H 	0.6438	0.3037	0.4987	0.037
Mof_C 	C 	0.752	0.3254	0.5214	0.083
Mof_C 	C 	0.8119	0.3398	0.6073	0.108
Mof_C 	C 	0.8341	0.3274	0.566	-0.112
Mof_H 	H 	0.8701	0.324	0.5651	0.073
Mof_C 	C 	0.7291	0.3342	0.5692	-0.06
Mof_H 	H 	0.6931	0.3341	0.5727	0.053
Mof_C 	C 	0.7598	0.3428	0.6106	-0.098
Mof_H 	H 	0.7446	0.3511	0.6424	0.068
Mof_C 	C 	0.8024	0.3179	0.5176	-0.07
Mof_H 	H 	0.8178	0.3072	0.4866	0.059
Mof_N 	N 	0.8029	0.6965	0.8917	-0.152
Mof_C 	C 	0.7641	0.6877	0.9235	0.091
Mof_H 	H 	0.7297	0.6852	0.9125	-0.006
Mof_N 	N 	0.7788	0.6825	0.9745	-0.13
Mof_C 	C 	0.8448	0.697	0.9233	0.015
Mof_H 	H 	0.8788	0.7001	0.9112	0.029
Mof_C 	C 	0.8333	0.693	0.9709	-0.018
Mof_H 	H 	0.8562	0.6963	0.9987	0.037
Mof_C 	C 	0.748	0.6746	0.0214	0.083
Mof_C 	C 	0.6881	0.6602	0.1073	0.108
Mof_C 	C 	0.6659	0.6726	0.066	-0.112
Mof_H 	H 	0.6299	0.676	0.0651	0.073
Mof_C 	C 	0.7709	0.6658	0.0692	-0.06
Mof_H 	H 	0.8069	0.6659	0.0727	0.053
Mof_C 	C 	0.7402	0.6572	0.1106	-0.098
Mof_H 	H 	0.7554	0.6489	0.1424	0.068
Mof_C 	C 	0.6976	0.6821	0.0176	-0.07
Mof_H 	H 	0.6822	0.6928	0.9866	0.059
Mof_N 	N 	0.3029	0.8035	0.1083	-0.152
Mof_C 	C 	0.2641	0.8123	0.0765	0.091
Mof_H 	H 	0.2297	0.8148	0.0875	-0.006
Mof_N 	N 	0.2788	0.8175	0.0255	-0.13
Mof_C 	C 	0.3448	0.803	0.0767	0.015
Mof_H 	H 	0.3788	0.7999	0.0888	0.029
Mof_C 	C 	0.3333	0.807	0.0291	-0.018
Mof_H 	H 	0.3562	0.8037	0.0013	0.037
Mof_C 	C 	0.248	0.8254	0.9786	0.083
Mof_C 	C 	0.1881	0.8398	0.8927	0.108
Mof_C 	C 	0.1659	0.8274	0.934	-0.112
Mof_H 	H 	0.1299	0.824	0.9349	0.073
Mof_C 	C 	0.2709	0.8342	0.9308	-0.06
Mof_H 	H 	0.3069	0.8341	0.9273	0.053
Mof_C 	C 	0.2402	0.8428	0.8894	-0.098
Mof_H 	H 	0.2554	0.8511	0.8576	0.068
Mof_C 	C 	0.1976	0.8179	0.9824	-0.07
Mof_H 	H 	0.1822	0.8072	0.0134	0.059
Mof_N 	N 	0.1971	0.1965	0.6083	-0.152
Mof_C 	C 	0.2359	0.1877	0.5765	0.091
Mof_H 	H 	0.2703	0.1852	0.5875	-0.006
Mof_N 	N 	0.2212	0.1825	0.5255	-0.13
Mof_C 	C 	0.1552	0.197	0.5767	0.015
Mof_H 	H 	0.1212	0.2001	0.5888	0.029
Mof_C 	C 	0.1667	0.193	0.5291	-0.018
Mof_H 	H 	0.1438	0.1963	0.5013	0.037
Mof_C 	C 	0.252	0.1746	0.4786	0.083
Mof_C 	C 	0.3119	0.1602	0.3927	0.108
Mof_C 	C 	0.3341	0.1726	0.434	-0.112
Mof_H 	H 	0.3701	0.176	0.4349	0.073
Mof_C 	C 	0.2291	0.1658	0.4308	-0.06
Mof_H 	H 	0.1931	0.1659	0.4273	0.053
Mof_C 	C 	0.2598	0.1572	0.3894	-0.098
Mof_H 	H 	0.2446	0.1489	0.3576	0.068
Mof_C 	C 	0.3024	0.1821	0.4824	-0.07
Mof_H 	H 	0.3178	0.1928	0.5134	0.059
Mof_N 	N 	0.8917	0.6971	0.8035	-0.152
Mof_C 	C 	0.9235	0.7359	0.8123	0.091
Mof_H 	H 	0.9125	0.7703	0.8148	-0.006
Mof_N 	N 	0.9745	0.7212	0.8175	-0.13
Mof_C 	C 	0.9233	0.6552	0.803	0.015
Mof_H 	H 	0.9112	0.6212	0.7999	0.029
Mof_C 	C 	0.9709	0.6667	0.807	-0.018
Mof_H 	H 	0.9987	0.6438	0.8037	0.037
Mof_C 	C 	0.0214	0.752	0.8254	0.083
Mof_C 	C 	0.1073	0.8119	0.8398	0.108
Mof_C 	C 	0.066	0.8341	0.8274	-0.112
Mof_H 	H 	0.0651	0.8701	0.824	0.073
Mof_C 	C 	0.0692	0.7291	0.8342	-0.06
Mof_H 	H 	0.0727	0.6931	0.8341	0.053
Mof_C 	C 	0.1106	0.7598	0.8428	-0.098
Mof_H 	H 	0.1424	0.7446	0.8511	0.068
Mof_C 	C 	0.0176	0.8024	0.8179	-0.07
Mof_H 	H 	0.9866	0.8178	0.8072	0.059
Mof_N 	N 	0.3917	0.8029	0.1965	-0.152
Mof_C 	C 	0.4235	0.7641	0.1877	0.091
Mof_H 	H 	0.4125	0.7297	0.1852	-0.006
Mof_N 	N 	0.4745	0.7788	0.1825	-0.13
Mof_C 	C 	0.4233	0.8448	0.197	0.015
Mof_H 	H 	0.4112	0.8788	0.2001	0.029
Mof_C 	C 	0.4709	0.8333	0.193	-0.018
Mof_H 	H 	0.4987	0.8562	0.1963	0.037
Mof_C 	C 	0.5214	0.748	0.1746	0.083
Mof_C 	C 	0.6073	0.6881	0.1602	0.108
Mof_C 	C 	0.566	0.6659	0.1726	-0.112
Mof_H 	H 	0.5651	0.6299	0.176	0.073
Mof_C 	C 	0.5692	0.7709	0.1658	-0.06
Mof_H 	H 	0.5727	0.8069	0.1659	0.053
Mof_C 	C 	0.6106	0.7402	0.1572	-0.098
Mof_H 	H 	0.6424	0.7554	0.1489	0.068
Mof_C 	C 	0.5176	0.6976	0.1821	-0.07
Mof_H 	H 	0.4866	0.6822	0.1928	0.059
Mof_N 	N 	0.6083	0.3029	0.3035	-0.152
Mof_C 	C 	0.5765	0.2641	0.3123	0.091
Mof_H 	H 	0.5875	0.2297	0.3148	-0.006
Mof_N 	N 	0.5255	0.2788	0.3175	-0.13
Mof_C 	C 	0.5767	0.3448	0.303	0.015
Mof_H 	H 	0.5888	0.3788	0.2999	0.029
Mof_C 	C 	0.5291	0.3333	0.307	-0.018
Mof_H 	H 	0.5013	0.3562	0.3037	0.037
Mof_C 	C 	0.4786	0.248	0.3254	0.083
Mof_C 	C 	0.3927	0.1881	0.3398	0.108
Mof_C 	C 	0.434	0.1659	0.3274	-0.112
Mof_H 	H 	0.4349	0.1299	0.324	0.073
Mof_C 	C 	0.4308	0.2709	0.3342	-0.06
Mof_H 	H 	0.4273	0.3069	0.3341	0.053
Mof_C 	C 	0.3894	0.2402	0.3428	-0.098
Mof_H 	H 	0.3576	0.2554	0.3511	0.068
Mof_C 	C 	0.4824	0.1976	0.3179	-0.07
Mof_H 	H 	0.5134	0.1822	0.3072	0.059
Mof_N 	N 	0.1083	0.1971	0.6965	-0.152
Mof_C 	C 	0.0765	0.2359	0.6877	0.091
Mof_H 	H 	0.0875	0.2703	0.6852	-0.006
Mof_N 	N 	0.0255	0.2212	0.6825	-0.13
Mof_C 	C 	0.0767	0.1552	0.697	0.015
Mof_H 	H 	0.0888	0.1212	0.7001	0.029
Mof_C 	C 	0.0291	0.1667	0.693	-0.018
Mof_H 	H 	0.0013	0.1438	0.6963	0.037
Mof_C 	C 	0.9786	0.252	0.6746	0.083
Mof_C 	C 	0.8927	0.3119	0.6602	0.108
Mof_C 	C 	0.934	0.3341	0.6726	-0.112
Mof_H 	H 	0.9349	0.3701	0.676	0.073
Mof_C 	C 	0.9308	0.2291	0.6658	-0.06
Mof_H 	H 	0.9273	0.1931	0.6659	0.053
Mof_C 	C 	0.8894	0.2598	0.6572	-0.098
Mof_H 	H 	0.8576	0.2446	0.6489	0.068
Mof_C 	C 	0.9824	0.3024	0.6821	-0.07
Mof_H 	H 	0.0134	0.3178	0.6928	0.059
Mof_N 	N 	0.3035	0.8917	0.1971	-0.152
Mof_C 	C 	0.3123	0.9235	0.2359	0.091
Mof_H 	H 	0.3148	0.9125	0.2703	-0.006
Mof_N 	N 	0.3175	0.9745	0.2212	-0.13
Mof_C 	C 	0.303	0.9233	0.1552	0.015
Mof_H 	H 	0.2999	0.9112	0.1212	0.029
Mof_C 	C 	0.307	0.9709	0.1667	-0.018
Mof_H 	H 	0.3037	0.9987	0.1438	0.037
Mof_C 	C 	0.3254	0.0214	0.252	0.083
Mof_C 	C 	0.3398	0.1073	0.3119	0.108
Mof_C 	C 	0.3274	0.066	0.3341	-0.112
Mof_H 	H 	0.324	0.0651	0.3701	0.073
Mof_C 	C 	0.3342	0.0692	0.2291	-0.06
Mof_H 	H 	0.3341	0.0727	0.1931	0.053
Mof_C 	C 	0.3428	0.1106	0.2598	-0.098
Mof_H 	H 	0.3511	0.1424	0.2446	0.068
Mof_C 	C 	0.3179	0.0176	0.3024	-0.07
Mof_H 	H 	0.3072	0.9866	0.3178	0.059
Mof_N 	N 	0.6965	0.3917	0.3029	-0.152
Mof_C 	C 	0.6877	0.4235	0.2641	0.091
Mof_H 	H 	0.6852	0.4125	0.2297	-0.006
Mof_N 	N 	0.6825	0.4745	0.2788	-0.13
Mof_C 	C 	0.697	0.4233	0.3448	0.015
Mof_H 	H 	0.7001	0.4112	0.3788	0.029
Mof_C 	C 	0.693	0.4709	0.3333	-0.018
Mof_H 	H 	0.6963	0.4987	0.3562	0.037
Mof_C 	C 	0.6746	0.5214	0.248	0.083
Mof_C 	C 	0.6602	0.6073	0.1881	0.108
Mof_C 	C 	0.6726	0.566	0.1659	-0.112
Mof_H 	H 	0.676	0.5651	0.1299	0.073
Mof_C 	C 	0.6658	0.5692	0.2709	-0.06
Mof_H 	H 	0.6659	0.5727	0.3069	0.053
Mof_C 	C 	0.6572	0.6106	0.2402	-0.098
Mof_H 	H 	0.6489	0.6424	0.2554	0.068
Mof_C 	C 	0.6821	0.5176	0.1976	-0.07
Mof_H 	H 	0.6928	0.4866	0.1822	0.059
Mof_N 	N 	0.8035	0.6083	0.8029	-0.152
Mof_C 	C 	0.8123	0.5765	0.7641	0.091
Mof_H 	H 	0.8148	0.5875	0.7297	-0.006
Mof_N 	N 	0.8175	0.5255	0.7788	-0.13
Mof_C 	C 	0.803	0.5767	0.8448	0.015
Mof_H 	H 	0.7999	0.5888	0.8788	0.029
Mof_C 	C 	0.807	0.5291	0.8333	-0.018
Mof_H 	H 	0.8037	0.5013	0.8562	0.037
Mof_C 	C 	0.8254	0.4786	0.748	0.083
Mof_C 	C 	0.8398	0.3927	0.6881	0.108
Mof_C 	C 	0.8274	0.434	0.6659	-0.112
Mof_H 	H 	0.824	0.4349	0.6299	0.073
Mof_C 	C 	0.8342	0.4308	0.7709	-0.06
Mof_H 	H 	0.8341	0.4273	0.8069	0.053
Mof_C 	C 	0.8428	0.3894	0.7402	-0.098
Mof_H 	H 	0.8511	0.3576	0.7554	0.068
Mof_C 	C 	0.8179	0.4824	0.6976	-0.07
Mof_H 	H 	0.8072	0.5134	0.6822	0.059
Mof_N 	N 	0.1965	0.1083	0.6971	-0.152
Mof_C 	C 	0.1877	0.0765	0.7359	0.091
Mof_H 	H 	0.1852	0.0875	0.7703	-0.006
Mof_N 	N 	0.1825	0.0255	0.7212	-0.13
Mof_C 	C 	0.197	0.0767	0.6552	0.015
Mof_H 	H 	0.2001	0.0888	0.6212	0.029
Mof_C 	C 	0.193	0.0291	0.6667	-0.018
Mof_H 	H 	0.1963	0.0013	0.6438	0.037
Mof_C 	C 	0.1746	0.9786	0.752	0.083
Mof_C 	C 	0.1602	0.8927	0.8119	0.108
Mof_C 	C 	0.1726	0.934	0.8341	-0.112
Mof_H 	H 	0.176	0.9349	0.8701	0.073
Mof_C 	C 	0.1658	0.9308	0.7291	-0.06
Mof_H 	H 	0.1659	0.9273	0.6931	0.053
Mof_C 	C 	0.1572	0.8894	0.7598	-0.098
Mof_H 	H 	0.1489	0.8576	0.7446	0.068
Mof_C 	C 	0.1821	0.9824	0.8024	-0.07
Mof_H 	H 	0.1928	0.0134	0.8178	0.059
Mof_Cd	Cd	0.19949	0.19949	0.69949	0.247
Mof_Cd	Cd	0.30051	0.80051	0.19949	0.247
Mof_Cd	Cd	0.69949	0.30051	0.30051	0.247
Mof_Cd	Cd	0.80051	0.69949	0.80051	0.247
Mof_N 	N 	0.3432	0.1568	0.3432	-0.152
Mof_N 	N 	0.6568	0.6568	0.1568	-0.152
Mof_N 	N 	0.8432	0.3432	0.6568	-0.152
Mof_N 	N 	0.1568	0.8432	0.8432	-0.152
_end
