data_functionalizedCrystal
_audit_creation_method	'EQeq! by Chris Wilmer'
_symmetry_space_group_name_H-M	'P1'
_symmetry_Int_Tables_number	1
_symmetry_cell_setting	triclinic
loop_
_symmetry_equiv_pos_as_xyz
  x,y,z
_cell_length_a	31.4077
_cell_length_b	31.4077
_cell_length_c	15.0945
_cell_angle_alpha	90
_cell_angle_beta	90
_cell_angle_gamma	120
loop_
_atom_site_label
_atom_site_type_symbol
_atom_site_fract_x
_atom_site_fract_y
_atom_site_fract_z
_atom_site_charge
Mof_Zn	Zn	0.06099	0.73073	0.48688	1.215
Mof_C 	C 	0.14877	0.73931	0.5454	0.336
Mof_C 	C 	0.18614	0.72238	0.5509	-0.093
Mof_C 	C 	0.17635	0.67761	0.5133	0.022
Mof_H 	H 	0.146	0.6572	0.487	0.033
Mof_C 	C 	0.21152	0.66387	0.5153	-0.101
Mof_H 	H 	0.2044	0.6339	0.4906	0.064
Mof_C 	C 	0.25817	0.69405	0.5539	0.028
Mof_C 	C 	0.2661	0.73749	0.5944	-0.097
Mof_H 	H 	0.2959	0.7575	0.6227	0.068
Mof_C 	C 	0.2307	0.75147	0.5933	0.022
Mof_H 	H 	0.2368	0.7804	0.6211	0.04
Mof_C 	C 	0.29656	0.67981	0.552	0.051
Mof_C 	C 	0.34646	0.71604	0.5516	-0.116
Mof_H 	H 	0.3552	0.749	0.551	0.072
Mof_C 	C 	0.0747	0.8193	0.4334	0.345
Mof_C 	C 	0.05795	0.85585	0.4167	-0.105
Mof_C 	C 	0.08423	0.89555	0.3593	0.033
Mof_H 	H 	0.112	0.8991	0.3306	0.035
Mof_C 	C 	0.0695	0.9293	0.3449	-0.109
Mof_H 	H 	0.0881	0.956	0.308	0.072
Mof_C 	C 	0.02707	0.92456	0.3841	0.04
Mof_C 	C 	2e-05	0.88435	0.4393	-0.109
Mof_H 	H 	0.9714	0.8802	0.4658	0.073
Mof_C 	C 	0.01507	0.85032	0.4556	0.035
Mof_H 	H 	0.9965	0.8237	0.4926	0.03
Mof_C 	C 	0.01307	0.96325	0.3745	0.045
Mof_C 	C 	0.96348	0.95084	0.374	-0.109
Mof_H 	H 	0.9391	0.9179	0.3734	0.07
Mof_C 	C 	0.04252	0.6707	0.318	0.228
Mof_O 	O 	0.10882	0.8207	0.3917	-0.302
Mof_O 	O 	0.05124	0.78729	0.4926	-0.465
Mof_O 	O 	0.15096	0.77167	0.5946	-0.295
Mof_O 	O 	0.11538	0.71742	0.4866	-0.46
Mof_N 	N 	0.9716	0.6573	0.2798	-0.052
Mof_N 	N 	0.00779	0.64786	0.257	-0.252
Mof_N 	N 	0.98413	0.6847	0.3493	-0.054
Mof_N 	N 	0.0867	0.6735	0.3178	-0.358
Mof_H 	H 	0.0942	0.6599	0.2759	0.175
Mof_H 	H 	0.1074	0.6889	0.3596	0.177
Mof_N 	N 	0.02896	0.6937	0.3763	-0.251
Mof_Zn	Zn	0.72766	0.06406	0.82021	1.216
Mof_C 	C 	0.81544	0.07264	0.87873	0.336
Mof_C 	C 	0.85281	0.05571	0.88423	-0.091
Mof_C 	C 	0.84302	0.01094	0.84663	0.02
Mof_H 	H 	0.81267	0.99053	0.82033	0.035
Mof_C 	C 	0.87819	0.9972	0.84863	-0.097
Mof_H 	H 	0.87107	0.96723	0.82393	0.064
Mof_C 	C 	0.92484	0.02738	0.88723	0.028
Mof_C 	C 	0.93277	0.07082	0.92773	-0.095
Mof_H 	H 	0.96257	0.09083	0.95603	0.068
Mof_C 	C 	0.89737	0.0848	0.92663	0.022
Mof_H 	H 	0.90347	0.11373	0.95443	0.041
Mof_C 	C 	0.96323	0.01314	0.88533	0.051
Mof_C 	C 	0.01313	0.04937	0.88493	-0.113
Mof_H 	H 	0.02187	0.08233	0.88433	0.072
Mof_C 	C 	0.74137	0.15263	0.76673	0.346
Mof_C 	C 	0.72462	0.18918	0.75003	-0.104
Mof_C 	C 	0.7509	0.22888	0.69263	0.034
Mof_H 	H 	0.77867	0.23243	0.66393	0.036
Mof_C 	C 	0.73617	0.26263	0.67823	-0.107
Mof_H 	H 	0.75477	0.28933	0.64133	0.072
Mof_C 	C 	0.69374	0.25789	0.71743	0.04
Mof_C 	C 	0.66669	0.21768	0.77263	-0.109
Mof_H 	H 	0.63807	0.21353	0.79913	0.073
Mof_C 	C 	0.68174	0.18365	0.78893	0.035
Mof_H 	H 	0.66317	0.15703	0.82593	0.03
Mof_C 	C 	0.67974	0.29658	0.70783	0.046
Mof_C 	C 	0.63015	0.28417	0.70733	-0.11
Mof_H 	H 	0.60577	0.25123	0.70673	0.07
Mof_C 	C 	0.70919	0.00403	0.65133	0.228
Mof_O 	O 	0.77549	0.15403	0.72503	-0.302
Mof_O 	O 	0.71791	0.12062	0.82593	-0.465
Mof_O 	O 	0.81763	0.105	0.92793	-0.295
Mof_O 	O 	0.78205	0.05075	0.81993	-0.46
Mof_N 	N 	0.63827	0.99063	0.61313	-0.052
Mof_N 	N 	0.67446	0.98119	0.59033	-0.251
Mof_N 	N 	0.6508	0.01803	0.68263	-0.054
Mof_N 	N 	0.75337	0.00683	0.65113	-0.358
Mof_H 	H 	0.76087	0.99323	0.60923	0.175
Mof_H 	H 	0.77407	0.02223	0.69293	0.177
Mof_N 	N 	0.69563	0.02703	0.70963	-0.251
Mof_Zn	Zn	0.39432	0.3974	0.15355	1.216
Mof_C 	C 	0.4821	0.40598	0.21207	0.337
Mof_C 	C 	0.51947	0.38905	0.21757	-0.092
Mof_C 	C 	0.50968	0.34428	0.17997	0.023
Mof_H 	H 	0.47933	0.32387	0.15367	0.034
Mof_C 	C 	0.54485	0.33054	0.18197	-0.1
Mof_H 	H 	0.53773	0.30057	0.15727	0.065
Mof_C 	C 	0.5915	0.36072	0.22057	0.029
Mof_C 	C 	0.59943	0.40416	0.26107	-0.096
Mof_H 	H 	0.62923	0.42417	0.28937	0.069
Mof_C 	C 	0.56403	0.41814	0.25997	0.023
Mof_H 	H 	0.57013	0.44707	0.28777	0.041
Mof_C 	C 	0.62989	0.34648	0.21867	0.052
Mof_C 	C 	0.67979	0.38271	0.21827	-0.115
Mof_H 	H 	0.68853	0.41567	0.21767	0.073
Mof_C 	C 	0.40803	0.48597	0.10007	0.346
Mof_C 	C 	0.39128	0.52252	0.08337	-0.104
Mof_C 	C 	0.41756	0.56222	0.02597	0.034
Mof_H 	H 	0.44533	0.56577	0.99727	0.036
Mof_C 	C 	0.40283	0.59597	0.01157	-0.108
Mof_H 	H 	0.42143	0.62267	0.97467	0.072
Mof_C 	C 	0.3604	0.59123	0.05077	0.04
Mof_C 	C 	0.33335	0.55102	0.10597	-0.109
Mof_H 	H 	0.30473	0.54687	0.13247	0.073
Mof_C 	C 	0.3484	0.51699	0.12227	0.035
Mof_H 	H 	0.32983	0.49037	0.15927	0.03
Mof_C 	C 	0.3464	0.62992	0.04117	0.045
Mof_C 	C 	0.29681	0.61751	0.04067	-0.11
Mof_H 	H 	0.27243	0.58457	0.04007	0.07
Mof_C 	C 	0.37585	0.33737	0.98467	0.228
Mof_O 	O 	0.44215	0.48737	0.05837	-0.302
Mof_O 	O 	0.38457	0.45396	0.15927	-0.465
Mof_O 	O 	0.48429	0.43834	0.26127	-0.295
Mof_O 	O 	0.44871	0.38409	0.15327	-0.46
Mof_N 	N 	0.30493	0.32397	0.94647	-0.053
Mof_N 	N 	0.34112	0.31453	0.92367	-0.251
Mof_N 	N 	0.31746	0.35137	0.01597	-0.054
Mof_N 	N 	0.42003	0.34017	0.98447	-0.358
Mof_H 	H 	0.42753	0.32657	0.94257	0.175
Mof_H 	H 	0.44073	0.35557	0.02627	0.177
Mof_N 	N 	0.36229	0.36037	0.04297	-0.251
Mof_Zn	Zn	0.26927	0.33026	0.48688	1.216
Mof_C 	C 	0.26069	0.40946	0.5454	0.337
Mof_C 	C 	0.27762	0.46376	0.5509	-0.092
Mof_C 	C 	0.32239	0.49874	0.5133	0.023
Mof_H 	H 	0.3428	0.4888	0.487	0.034
Mof_C 	C 	0.33613	0.54765	0.5153	-0.1
Mof_H 	H 	0.3661	0.5705	0.4906	0.065
Mof_C 	C 	0.30595	0.56412	0.5539	0.029
Mof_C 	C 	0.26251	0.52861	0.5944	-0.096
Mof_H 	H 	0.2425	0.5384	0.6227	0.069
Mof_C 	C 	0.24853	0.47923	0.5933	0.023
Mof_H 	H 	0.2196	0.4564	0.6211	0.041
Mof_C 	C 	0.32019	0.61675	0.552	0.052
Mof_C 	C 	0.28396	0.63042	0.5516	-0.115
Mof_H 	H 	0.251	0.6062	0.551	0.073
Mof_C 	C 	0.1807	0.2554	0.4334	0.346
Mof_C 	C 	0.14415	0.2021	0.4167	-0.104
Mof_C 	C 	0.10445	0.18868	0.3593	0.034
Mof_H 	H 	0.1009	0.2129	0.3306	0.036
Mof_C 	C 	0.0707	0.1402	0.3449	-0.108
Mof_H 	H 	0.044	0.1321	0.308	0.072
Mof_C 	C 	0.07544	0.10251	0.3841	0.04
Mof_C 	C 	0.11565	0.11567	0.4393	-0.109
Mof_H 	H 	0.1198	0.0912	0.4658	0.073
Mof_C 	C 	0.14968	0.16475	0.4556	0.035
Mof_H 	H 	0.1763	0.1728	0.4926	0.03
Mof_C 	C 	0.03675	0.04982	0.3745	0.045
Mof_C 	C 	0.04916	0.01264	0.374	-0.109
Mof_H 	H 	0.0821	0.0212	0.3734	0.07
Mof_C 	C 	0.3293	0.37182	0.318	0.228
Mof_O 	O 	0.1793	0.28812	0.3917	-0.302
Mof_O 	O 	0.21271	0.26395	0.4926	-0.465
Mof_O 	O 	0.22833	0.37929	0.5946	-0.295
Mof_O 	O 	0.28258	0.39796	0.4866	-0.46
Mof_N 	N 	0.3427	0.3143	0.2798	-0.053
Mof_N 	N 	0.35214	0.35993	0.257	-0.251
Mof_N 	N 	0.3153	0.29943	0.3493	-0.054
Mof_N 	N 	0.3265	0.4132	0.3178	-0.358
Mof_H 	H 	0.3401	0.4343	0.2759	0.175
Mof_H 	H 	0.3111	0.4185	0.3596	0.177
Mof_N 	N 	0.3063	0.33526	0.3763	-0.251
Mof_Zn	Zn	0.93594	0.66359	0.82021	1.216
Mof_C 	C 	0.92736	0.74279	0.87873	0.336
Mof_C 	C 	0.94429	0.79709	0.88423	-0.091
Mof_C 	C 	0.98906	0.83207	0.84663	0.019
Mof_H 	H 	0.00947	0.82213	0.82033	0.036
Mof_C 	C 	0.0028	0.88098	0.84863	-0.097
Mof_H 	H 	0.03277	0.90383	0.82393	0.064
Mof_C 	C 	0.97262	0.89745	0.88723	0.028
Mof_C 	C 	0.92918	0.86194	0.92773	-0.095
Mof_H 	H 	0.90917	0.87173	0.95603	0.068
Mof_C 	C 	0.9152	0.81256	0.92663	0.022
Mof_H 	H 	0.88627	0.78973	0.95443	0.042
Mof_C 	C 	0.98686	0.95008	0.88533	0.051
Mof_C 	C 	0.95063	0.96375	0.88493	-0.114
Mof_H 	H 	0.91767	0.93953	0.88433	0.073
Mof_C 	C 	0.84737	0.58873	0.76673	0.346
Mof_C 	C 	0.81082	0.53543	0.75003	-0.104
Mof_C 	C 	0.77112	0.52201	0.69263	0.034
Mof_H 	H 	0.76757	0.54623	0.66393	0.036
Mof_C 	C 	0.73737	0.47353	0.67823	-0.107
Mof_H 	H 	0.71067	0.46543	0.64133	0.072
Mof_C 	C 	0.74211	0.43584	0.71743	0.04
Mof_C 	C 	0.78232	0.449	0.77263	-0.109
Mof_H 	H 	0.78647	0.42453	0.79913	0.073
Mof_C 	C 	0.81635	0.49808	0.78893	0.035
Mof_H 	H 	0.84297	0.50613	0.82593	0.03
Mof_C 	C 	0.70342	0.38315	0.70783	0.046
Mof_C 	C 	0.71583	0.34597	0.70733	-0.11
Mof_H 	H 	0.74877	0.35453	0.70673	0.07
Mof_C 	C 	0.99597	0.70515	0.65133	0.228
Mof_O 	O 	0.84597	0.62145	0.72503	-0.302
Mof_O 	O 	0.87938	0.59728	0.82593	-0.465
Mof_O 	O 	0.895	0.71262	0.92793	-0.295
Mof_O 	O 	0.94925	0.73129	0.81993	-0.46
Mof_N 	N 	0.00937	0.64763	0.61313	-0.052
Mof_N 	N 	0.01881	0.69326	0.59033	-0.251
Mof_N 	N 	0.98197	0.63276	0.68263	-0.054
Mof_N 	N 	0.99317	0.74653	0.65113	-0.358
Mof_H 	H 	0.00677	0.76763	0.60923	0.175
Mof_H 	H 	0.97777	0.75183	0.69293	0.177
Mof_N 	N 	0.97297	0.66859	0.70963	-0.251
Mof_Zn	Zn	0.6026	0.99693	0.15355	1.216
Mof_C 	C 	0.59402	0.07613	0.21207	0.337
Mof_C 	C 	0.61095	0.13043	0.21757	-0.092
Mof_C 	C 	0.65572	0.16541	0.17997	0.023
Mof_H 	H 	0.67613	0.15547	0.15367	0.034
Mof_C 	C 	0.66946	0.21432	0.18197	-0.1
Mof_H 	H 	0.69943	0.23717	0.15727	0.065
Mof_C 	C 	0.63928	0.23079	0.22057	0.029
Mof_C 	C 	0.59584	0.19528	0.26107	-0.096
Mof_H 	H 	0.57583	0.20507	0.28937	0.069
Mof_C 	C 	0.58186	0.1459	0.25997	0.023
Mof_H 	H 	0.55293	0.12307	0.28777	0.041
Mof_C 	C 	0.65352	0.28342	0.21867	0.052
Mof_C 	C 	0.61729	0.29709	0.21827	-0.115
Mof_H 	H 	0.58433	0.27287	0.21767	0.073
Mof_C 	C 	0.51403	0.92207	0.10007	0.346
Mof_C 	C 	0.47748	0.86877	0.08337	-0.104
Mof_C 	C 	0.43778	0.85535	0.02597	0.033
Mof_H 	H 	0.43423	0.87957	0.99727	0.037
Mof_C 	C 	0.40403	0.80687	0.01157	-0.108
Mof_H 	H 	0.37733	0.79877	0.97467	0.072
Mof_C 	C 	0.40877	0.76918	0.05077	0.04
Mof_C 	C 	0.44898	0.78234	0.10597	-0.109
Mof_H 	H 	0.45313	0.75787	0.13247	0.073
Mof_C 	C 	0.48301	0.83142	0.12227	0.035
Mof_H 	H 	0.50963	0.83947	0.15927	0.03
Mof_C 	C 	0.37008	0.71649	0.04117	0.045
Mof_C 	C 	0.38249	0.67931	0.04067	-0.11
Mof_H 	H 	0.41543	0.68787	0.04007	0.07
Mof_C 	C 	0.66263	0.03849	0.98467	0.228
Mof_O 	O 	0.51263	0.95479	0.05837	-0.302
Mof_O 	O 	0.54604	0.93062	0.15927	-0.465
Mof_O 	O 	0.56166	0.04596	0.26127	-0.295
Mof_O 	O 	0.61591	0.06463	0.15327	-0.46
Mof_N 	N 	0.67603	0.98097	0.94647	-0.052
Mof_N 	N 	0.68547	0.0266	0.92367	-0.251
Mof_N 	N 	0.64863	0.9661	0.01597	-0.054
Mof_N 	N 	0.65983	0.07987	0.98447	-0.359
Mof_H 	H 	0.67343	0.10097	0.94257	0.175
Mof_H 	H 	0.64443	0.08517	0.02627	0.178
Mof_N 	N 	0.63963	0.00193	0.04297	-0.25
Mof_Zn	Zn	0.66974	0.93901	0.48688	1.216
Mof_C 	C 	0.59054	0.85123	0.5454	0.337
Mof_C 	C 	0.53624	0.81386	0.5509	-0.092
Mof_C 	C 	0.50126	0.82365	0.5133	0.023
Mof_H 	H 	0.5112	0.854	0.487	0.034
Mof_C 	C 	0.45235	0.78848	0.5153	-0.1
Mof_H 	H 	0.4295	0.7956	0.4906	0.065
Mof_C 	C 	0.43588	0.74183	0.5539	0.029
Mof_C 	C 	0.47139	0.7339	0.5944	-0.096
Mof_H 	H 	0.4616	0.7041	0.6227	0.069
Mof_C 	C 	0.52077	0.7693	0.5933	0.023
Mof_H 	H 	0.5436	0.7632	0.6211	0.041
Mof_C 	C 	0.38325	0.70344	0.552	0.052
Mof_C 	C 	0.36958	0.65354	0.5516	-0.115
Mof_H 	H 	0.3938	0.6448	0.551	0.073
Mof_C 	C 	0.7446	0.9253	0.4334	0.346
Mof_C 	C 	0.7979	0.94205	0.4167	-0.104
Mof_C 	C 	0.81132	0.91577	0.3593	0.034
Mof_H 	H 	0.7871	0.888	0.3306	0.036
Mof_C 	C 	0.8598	0.9305	0.3449	-0.108
Mof_H 	H 	0.8679	0.9119	0.308	0.072
Mof_C 	C 	0.89749	0.97293	0.3841	0.04
Mof_C 	C 	0.88433	0.99998	0.4393	-0.109
Mof_H 	H 	0.9088	0.0286	0.4658	0.073
Mof_C 	C 	0.83525	0.98493	0.4556	0.035
Mof_H 	H 	0.8272	0.0035	0.4926	0.03
Mof_C 	C 	0.95018	0.98693	0.3745	0.045
Mof_C 	C 	0.98736	0.03652	0.374	-0.109
Mof_H 	H 	0.9788	0.0609	0.3734	0.07
Mof_C 	C 	0.62818	0.95748	0.318	0.228
Mof_O 	O 	0.71188	0.89118	0.3917	-0.302
Mof_O 	O 	0.73605	0.94876	0.4926	-0.465
Mof_O 	O 	0.62071	0.84904	0.5946	-0.295
Mof_O 	O 	0.60204	0.88462	0.4866	-0.46
Mof_N 	N 	0.6857	0.0284	0.2798	-0.052
Mof_N 	N 	0.64007	0.99221	0.257	-0.251
Mof_N 	N 	0.70057	0.01587	0.3493	-0.054
Mof_N 	N 	0.5868	0.9133	0.3178	-0.358
Mof_H 	H 	0.5657	0.9058	0.2759	0.175
Mof_H 	H 	0.5815	0.8926	0.3596	0.177
Mof_N 	N 	0.66474	0.97104	0.3763	-0.251
Mof_Zn	Zn	0.33641	0.27234	0.82021	1.216
Mof_C 	C 	0.25721	0.18456	0.87873	0.337
Mof_C 	C 	0.20291	0.14719	0.88423	-0.093
Mof_C 	C 	0.16793	0.15698	0.84663	0.023
Mof_H 	H 	0.17787	0.18733	0.82033	0.034
Mof_C 	C 	0.11902	0.12181	0.84863	-0.1
Mof_H 	H 	0.09617	0.12893	0.82393	0.065
Mof_C 	C 	0.10255	0.07516	0.88723	0.03
Mof_C 	C 	0.13806	0.06723	0.92773	-0.097
Mof_H 	H 	0.12827	0.03743	0.95603	0.069
Mof_C 	C 	0.18744	0.10263	0.92663	0.024
Mof_H 	H 	0.21027	0.09653	0.95443	0.041
Mof_C 	C 	0.04992	0.03677	0.88533	0.051
Mof_C 	C 	0.03625	0.98687	0.88493	-0.113
Mof_H 	H 	0.06047	0.97813	0.88433	0.072
Mof_C 	C 	0.41127	0.25863	0.76673	0.346
Mof_C 	C 	0.46457	0.27538	0.75003	-0.104
Mof_C 	C 	0.47799	0.2491	0.69263	0.034
Mof_H 	H 	0.45377	0.22133	0.66393	0.036
Mof_C 	C 	0.52647	0.26383	0.67823	-0.107
Mof_H 	H 	0.53457	0.24523	0.64133	0.072
Mof_C 	C 	0.56416	0.30626	0.71743	0.04
Mof_C 	C 	0.551	0.33331	0.77263	-0.109
Mof_H 	H 	0.57547	0.36193	0.79913	0.073
Mof_C 	C 	0.50192	0.31826	0.78893	0.035
Mof_H 	H 	0.49387	0.33683	0.82593	0.03
Mof_C 	C 	0.61685	0.32026	0.70783	0.046
Mof_C 	C 	0.65403	0.36985	0.70733	-0.11
Mof_H 	H 	0.64547	0.39423	0.70673	0.07
Mof_C 	C 	0.29485	0.29081	0.65133	0.228
Mof_O 	O 	0.37855	0.22451	0.72503	-0.302
Mof_O 	O 	0.40272	0.28209	0.82593	-0.465
Mof_O 	O 	0.28738	0.18237	0.92793	-0.295
Mof_O 	O 	0.26871	0.21795	0.81993	-0.46
Mof_N 	N 	0.35237	0.36173	0.61313	-0.053
Mof_N 	N 	0.30674	0.32554	0.59033	-0.251
Mof_N 	N 	0.36724	0.3492	0.68263	-0.054
Mof_N 	N 	0.25347	0.24663	0.65113	-0.358
Mof_H 	H 	0.23237	0.23913	0.60923	0.175
Mof_H 	H 	0.24817	0.22593	0.69293	0.177
Mof_N 	N 	0.33141	0.30437	0.70963	-0.251
Mof_Zn	Zn	0.00307	0.60568	0.15355	1.216
Mof_C 	C 	0.92387	0.5179	0.21207	0.337
Mof_C 	C 	0.86957	0.48053	0.21757	-0.092
Mof_C 	C 	0.83459	0.49032	0.17997	0.023
Mof_H 	H 	0.84453	0.52067	0.15367	0.034
Mof_C 	C 	0.78568	0.45515	0.18197	-0.1
Mof_H 	H 	0.76283	0.46227	0.15727	0.065
Mof_C 	C 	0.76921	0.4085	0.22057	0.029
Mof_C 	C 	0.80472	0.40057	0.26107	-0.096
Mof_H 	H 	0.79493	0.37077	0.28937	0.069
Mof_C 	C 	0.8541	0.43597	0.25997	0.023
Mof_H 	H 	0.87693	0.42987	0.28777	0.041
Mof_C 	C 	0.71658	0.37011	0.21867	0.052
Mof_C 	C 	0.70291	0.32021	0.21827	-0.115
Mof_H 	H 	0.72713	0.31147	0.21767	0.073
Mof_C 	C 	0.07793	0.59197	0.10007	0.345
Mof_C 	C 	0.13123	0.60872	0.08337	-0.103
Mof_C 	C 	0.14465	0.58244	0.02597	0.033
Mof_H 	H 	0.12043	0.55467	0.99727	0.037
Mof_C 	C 	0.19313	0.59717	0.01157	-0.108
Mof_H 	H 	0.20123	0.57857	0.97467	0.072
Mof_C 	C 	0.23082	0.6396	0.05077	0.04
Mof_C 	C 	0.21766	0.66665	0.10597	-0.109
Mof_H 	H 	0.24213	0.69527	0.13247	0.073
Mof_C 	C 	0.16858	0.6516	0.12227	0.035
Mof_H 	H 	0.16053	0.67017	0.15927	0.03
Mof_C 	C 	0.28351	0.6536	0.04117	0.045
Mof_C 	C 	0.32069	0.70319	0.04067	-0.11
Mof_H 	H 	0.31213	0.72757	0.04007	0.07
Mof_C 	C 	0.96151	0.62415	0.98467	0.228
Mof_O 	O 	0.04521	0.55785	0.05837	-0.302
Mof_O 	O 	0.06938	0.61543	0.15927	-0.465
Mof_O 	O 	0.95404	0.51571	0.26127	-0.295
Mof_O 	O 	0.93537	0.55129	0.15327	-0.46
Mof_N 	N 	0.01903	0.69507	0.94647	-0.052
Mof_N 	N 	0.9734	0.65888	0.92367	-0.252
Mof_N 	N 	0.0339	0.68254	0.01597	-0.054
Mof_N 	N 	0.92013	0.57997	0.98447	-0.359
Mof_H 	H 	0.89903	0.57247	0.94257	0.175
Mof_H 	H 	0.91483	0.55927	0.02627	0.177
Mof_N 	N 	0.99807	0.63771	0.04297	-0.251
Mof_Zn	Zn	0.93901	0.26927	0.51312	1.216
Mof_C 	C 	0.85123	0.26069	0.4546	0.337
Mof_C 	C 	0.81386	0.27762	0.4491	-0.092
Mof_C 	C 	0.82365	0.32239	0.4867	0.023
Mof_H 	H 	0.854	0.3428	0.513	0.034
Mof_C 	C 	0.78848	0.33613	0.4847	-0.1
Mof_H 	H 	0.7956	0.3661	0.5094	0.065
Mof_C 	C 	0.74183	0.30595	0.4461	0.029
Mof_C 	C 	0.7339	0.26251	0.4056	-0.096
Mof_H 	H 	0.7041	0.2425	0.3773	0.069
Mof_C 	C 	0.7693	0.24853	0.4067	0.023
Mof_H 	H 	0.7632	0.2196	0.3789	0.041
Mof_C 	C 	0.70344	0.32019	0.448	0.052
Mof_C 	C 	0.65354	0.28396	0.4484	-0.115
Mof_H 	H 	0.6448	0.251	0.449	0.073
Mof_C 	C 	0.9253	0.1807	0.5666	0.346
Mof_C 	C 	0.94205	0.14415	0.5833	-0.104
Mof_C 	C 	0.91577	0.10445	0.6407	0.034
Mof_H 	H 	0.888	0.1009	0.6694	0.036
Mof_C 	C 	0.9305	0.0707	0.6551	-0.108
Mof_H 	H 	0.9119	0.044	0.692	0.072
Mof_C 	C 	0.97293	0.07544	0.6159	0.04
Mof_C 	C 	0.99998	0.11565	0.5607	-0.109
Mof_H 	H 	0.0286	0.1198	0.5342	0.073
Mof_C 	C 	0.98493	0.14968	0.5444	0.035
Mof_H 	H 	0.0035	0.1763	0.5074	0.03
Mof_C 	C 	0.98693	0.03675	0.6255	0.045
Mof_C 	C 	0.03652	0.04916	0.626	-0.109
Mof_H 	H 	0.0609	0.0821	0.6266	0.07
Mof_C 	C 	0.95748	0.3293	0.682	0.228
Mof_O 	O 	0.89118	0.1793	0.6083	-0.302
Mof_O 	O 	0.94876	0.21271	0.5074	-0.465
Mof_O 	O 	0.84904	0.22833	0.4054	-0.295
Mof_O 	O 	0.88462	0.28258	0.5134	-0.46
Mof_N 	N 	0.0284	0.3427	0.7202	-0.052
Mof_N 	N 	0.99221	0.35214	0.743	-0.252
Mof_N 	N 	0.01587	0.3153	0.6507	-0.054
Mof_N 	N 	0.9133	0.3265	0.6822	-0.358
Mof_H 	H 	0.9058	0.3401	0.7241	0.175
Mof_H 	H 	0.8926	0.3111	0.6404	0.177
Mof_N 	N 	0.97104	0.3063	0.6237	-0.251
Mof_Zn	Zn	0.60568	0.6026	0.84645	1.216
Mof_C 	C 	0.5179	0.59402	0.78793	0.337
Mof_C 	C 	0.48053	0.61095	0.78243	-0.092
Mof_C 	C 	0.49032	0.65572	0.82003	0.023
Mof_H 	H 	0.52067	0.67613	0.84633	0.034
Mof_C 	C 	0.45515	0.66946	0.81803	-0.1
Mof_H 	H 	0.46227	0.69943	0.84273	0.065
Mof_C 	C 	0.4085	0.63928	0.77943	0.029
Mof_C 	C 	0.40057	0.59584	0.73893	-0.096
Mof_H 	H 	0.37077	0.57583	0.71063	0.069
Mof_C 	C 	0.43597	0.58186	0.74003	0.023
Mof_H 	H 	0.42987	0.55293	0.71223	0.041
Mof_C 	C 	0.37011	0.65352	0.78133	0.052
Mof_C 	C 	0.32021	0.61729	0.78173	-0.115
Mof_H 	H 	0.31147	0.58433	0.78233	0.073
Mof_C 	C 	0.59197	0.51403	0.89993	0.346
Mof_C 	C 	0.60872	0.47748	0.91663	-0.104
Mof_C 	C 	0.58244	0.43778	0.97403	0.034
Mof_H 	H 	0.55467	0.43423	0.00273	0.036
Mof_C 	C 	0.59717	0.40403	0.98843	-0.108
Mof_H 	H 	0.57857	0.37733	0.02533	0.072
Mof_C 	C 	0.6396	0.40877	0.94923	0.04
Mof_C 	C 	0.66665	0.44898	0.89403	-0.109
Mof_H 	H 	0.69527	0.45313	0.86753	0.073
Mof_C 	C 	0.6516	0.48301	0.87773	0.035
Mof_H 	H 	0.67017	0.50963	0.84073	0.03
Mof_C 	C 	0.6536	0.37008	0.95883	0.045
Mof_C 	C 	0.70319	0.38249	0.95933	-0.11
Mof_H 	H 	0.72757	0.41543	0.95993	0.07
Mof_C 	C 	0.62415	0.66263	0.01533	0.228
Mof_O 	O 	0.55785	0.51263	0.94163	-0.302
Mof_O 	O 	0.61543	0.54604	0.84073	-0.465
Mof_O 	O 	0.51571	0.56166	0.73873	-0.295
Mof_O 	O 	0.55129	0.61591	0.84673	-0.46
Mof_N 	N 	0.69507	0.67603	0.05353	-0.053
Mof_N 	N 	0.65888	0.68547	0.07633	-0.251
Mof_N 	N 	0.68254	0.64863	0.98403	-0.054
Mof_N 	N 	0.57997	0.65983	0.01553	-0.358
Mof_H 	H 	0.57247	0.67343	0.05743	0.175
Mof_H 	H 	0.55927	0.64443	0.97373	0.177
Mof_N 	N 	0.63771	0.63963	0.95703	-0.251
Mof_Zn	Zn	0.27234	0.93594	0.17979	1.216
Mof_C 	C 	0.18456	0.92736	0.12127	0.336
Mof_C 	C 	0.14719	0.94429	0.11577	-0.091
Mof_C 	C 	0.15698	0.98906	0.15337	0.02
Mof_H 	H 	0.18733	0.00947	0.17967	0.035
Mof_C 	C 	0.12181	0.0028	0.15137	-0.097
Mof_H 	H 	0.12893	0.03277	0.17607	0.064
Mof_C 	C 	0.07516	0.97262	0.11277	0.028
Mof_C 	C 	0.06723	0.92918	0.07227	-0.095
Mof_H 	H 	0.03743	0.90917	0.04397	0.068
Mof_C 	C 	0.10263	0.9152	0.07337	0.022
Mof_H 	H 	0.09653	0.88627	0.04557	0.041
Mof_C 	C 	0.03677	0.98686	0.11467	0.051
Mof_C 	C 	0.98687	0.95063	0.11507	-0.113
Mof_H 	H 	0.97813	0.91767	0.11567	0.072
Mof_C 	C 	0.25863	0.84737	0.23327	0.346
Mof_C 	C 	0.27538	0.81082	0.24997	-0.104
Mof_C 	C 	0.2491	0.77112	0.30737	0.034
Mof_H 	H 	0.22133	0.76757	0.33607	0.036
Mof_C 	C 	0.26383	0.73737	0.32177	-0.107
Mof_H 	H 	0.24523	0.71067	0.35867	0.072
Mof_C 	C 	0.30626	0.74211	0.28257	0.04
Mof_C 	C 	0.33331	0.78232	0.22737	-0.109
Mof_H 	H 	0.36193	0.78647	0.20087	0.073
Mof_C 	C 	0.31826	0.81635	0.21107	0.035
Mof_H 	H 	0.33683	0.84297	0.17407	0.03
Mof_C 	C 	0.32026	0.70342	0.29217	0.046
Mof_C 	C 	0.36985	0.71583	0.29267	-0.11
Mof_H 	H 	0.39423	0.74877	0.29327	0.07
Mof_C 	C 	0.29081	0.99597	0.34867	0.228
Mof_O 	O 	0.22451	0.84597	0.27497	-0.302
Mof_O 	O 	0.28209	0.87938	0.17407	-0.465
Mof_O 	O 	0.18237	0.895	0.07207	-0.295
Mof_O 	O 	0.21795	0.94925	0.18007	-0.46
Mof_N 	N 	0.36173	0.00937	0.38687	-0.052
Mof_N 	N 	0.32554	0.01881	0.40967	-0.251
Mof_N 	N 	0.3492	0.98197	0.31737	-0.054
Mof_N 	N 	0.24663	0.99317	0.34887	-0.358
Mof_H 	H 	0.23913	0.00677	0.39077	0.175
Mof_H 	H 	0.22593	0.97777	0.30707	0.177
Mof_N 	N 	0.30437	0.97297	0.29037	-0.251
Mof_Zn	Zn	0.73073	0.66974	0.51312	1.216
Mof_C 	C 	0.73931	0.59054	0.4546	0.337
Mof_C 	C 	0.72238	0.53624	0.4491	-0.092
Mof_C 	C 	0.67761	0.50126	0.4867	0.023
Mof_H 	H 	0.6572	0.5112	0.513	0.034
Mof_C 	C 	0.66387	0.45235	0.4847	-0.1
Mof_H 	H 	0.6339	0.4295	0.5094	0.065
Mof_C 	C 	0.69405	0.43588	0.4461	0.029
Mof_C 	C 	0.73749	0.47139	0.4056	-0.096
Mof_H 	H 	0.7575	0.4616	0.3773	0.069
Mof_C 	C 	0.75147	0.52077	0.4067	0.023
Mof_H 	H 	0.7804	0.5436	0.3789	0.041
Mof_C 	C 	0.67981	0.38325	0.448	0.052
Mof_C 	C 	0.71604	0.36958	0.4484	-0.115
Mof_H 	H 	0.749	0.3938	0.449	0.073
Mof_C 	C 	0.8193	0.7446	0.5666	0.346
Mof_C 	C 	0.85585	0.7979	0.5833	-0.104
Mof_C 	C 	0.89555	0.81132	0.6407	0.034
Mof_H 	H 	0.8991	0.7871	0.6694	0.036
Mof_C 	C 	0.9293	0.8598	0.6551	-0.108
Mof_H 	H 	0.956	0.8679	0.692	0.072
Mof_C 	C 	0.92456	0.89749	0.6159	0.04
Mof_C 	C 	0.88435	0.88433	0.5607	-0.109
Mof_H 	H 	0.8802	0.9088	0.5342	0.073
Mof_C 	C 	0.85032	0.83525	0.5444	0.035
Mof_H 	H 	0.8237	0.8272	0.5074	0.03
Mof_C 	C 	0.96325	0.95018	0.6255	0.045
Mof_C 	C 	0.95084	0.98736	0.626	-0.109
Mof_H 	H 	0.9179	0.9788	0.6266	0.07
Mof_C 	C 	0.6707	0.62818	0.682	0.228
Mof_O 	O 	0.8207	0.71188	0.6083	-0.302
Mof_O 	O 	0.78729	0.73605	0.5074	-0.465
Mof_O 	O 	0.77167	0.62071	0.4054	-0.295
Mof_O 	O 	0.71742	0.60204	0.5134	-0.46
Mof_N 	N 	0.6573	0.6857	0.7202	-0.053
Mof_N 	N 	0.64786	0.64007	0.743	-0.251
Mof_N 	N 	0.6847	0.70057	0.6507	-0.054
Mof_N 	N 	0.6735	0.5868	0.6822	-0.358
Mof_H 	H 	0.6599	0.5657	0.7241	0.175
Mof_H 	H 	0.6889	0.5815	0.6404	0.177
Mof_N 	N 	0.6937	0.66474	0.6237	-0.251
Mof_Zn	Zn	0.3974	0.00307	0.84645	1.216
Mof_C 	C 	0.40598	0.92387	0.78793	0.337
Mof_C 	C 	0.38905	0.86957	0.78243	-0.092
Mof_C 	C 	0.34428	0.83459	0.82003	0.023
Mof_H 	H 	0.32387	0.84453	0.84633	0.034
Mof_C 	C 	0.33054	0.78568	0.81803	-0.1
Mof_H 	H 	0.30057	0.76283	0.84273	0.065
Mof_C 	C 	0.36072	0.76921	0.77943	0.029
Mof_C 	C 	0.40416	0.80472	0.73893	-0.096
Mof_H 	H 	0.42417	0.79493	0.71063	0.069
Mof_C 	C 	0.41814	0.8541	0.74003	0.023
Mof_H 	H 	0.44707	0.87693	0.71223	0.041
Mof_C 	C 	0.34648	0.71658	0.78133	0.052
Mof_C 	C 	0.38271	0.70291	0.78173	-0.115
Mof_H 	H 	0.41567	0.72713	0.78233	0.073
Mof_C 	C 	0.48597	0.07793	0.89993	0.346
Mof_C 	C 	0.52252	0.13123	0.91663	-0.104
Mof_C 	C 	0.56222	0.14465	0.97403	0.033
Mof_H 	H 	0.56577	0.12043	0.00273	0.037
Mof_C 	C 	0.59597	0.19313	0.98843	-0.108
Mof_H 	H 	0.62267	0.20123	0.02533	0.072
Mof_C 	C 	0.59123	0.23082	0.94923	0.04
Mof_C 	C 	0.55102	0.21766	0.89403	-0.109
Mof_H 	H 	0.54687	0.24213	0.86753	0.073
Mof_C 	C 	0.51699	0.16858	0.87773	0.035
Mof_H 	H 	0.49037	0.16053	0.84073	0.03
Mof_C 	C 	0.62992	0.28351	0.95883	0.045
Mof_C 	C 	0.61751	0.32069	0.95933	-0.11
Mof_H 	H 	0.58457	0.31213	0.95993	0.07
Mof_C 	C 	0.33737	0.96151	0.01533	0.228
Mof_O 	O 	0.48737	0.04521	0.94163	-0.302
Mof_O 	O 	0.45396	0.06938	0.84073	-0.465
Mof_O 	O 	0.43834	0.95404	0.73873	-0.295
Mof_O 	O 	0.38409	0.93537	0.84673	-0.46
Mof_N 	N 	0.32397	0.01903	0.05353	-0.052
Mof_N 	N 	0.31453	0.9734	0.07633	-0.251
Mof_N 	N 	0.35137	0.0339	0.98403	-0.054
Mof_N 	N 	0.34017	0.92013	0.01553	-0.359
Mof_H 	H 	0.32657	0.89903	0.05743	0.175
Mof_H 	H 	0.35557	0.91483	0.97373	0.178
Mof_N 	N 	0.36037	0.99807	0.95703	-0.25
Mof_Zn	Zn	0.06406	0.33641	0.17979	1.216
Mof_C 	C 	0.07264	0.25721	0.12127	0.336
Mof_C 	C 	0.05571	0.20291	0.11577	-0.091
Mof_C 	C 	0.01094	0.16793	0.15337	0.019
Mof_H 	H 	0.99053	0.17787	0.17967	0.036
Mof_C 	C 	0.9972	0.11902	0.15137	-0.097
Mof_H 	H 	0.96723	0.09617	0.17607	0.064
Mof_C 	C 	0.02738	0.10255	0.11277	0.028
Mof_C 	C 	0.07082	0.13806	0.07227	-0.095
Mof_H 	H 	0.09083	0.12827	0.04397	0.068
Mof_C 	C 	0.0848	0.18744	0.07337	0.022
Mof_H 	H 	0.11373	0.21027	0.04557	0.042
Mof_C 	C 	0.01314	0.04992	0.11467	0.051
Mof_C 	C 	0.04937	0.03625	0.11507	-0.114
Mof_H 	H 	0.08233	0.06047	0.11567	0.073
Mof_C 	C 	0.15263	0.41127	0.23327	0.346
Mof_C 	C 	0.18918	0.46457	0.24997	-0.104
Mof_C 	C 	0.22888	0.47799	0.30737	0.034
Mof_H 	H 	0.23243	0.45377	0.33607	0.036
Mof_C 	C 	0.26263	0.52647	0.32177	-0.107
Mof_H 	H 	0.28933	0.53457	0.35867	0.072
Mof_C 	C 	0.25789	0.56416	0.28257	0.04
Mof_C 	C 	0.21768	0.551	0.22737	-0.109
Mof_H 	H 	0.21353	0.57547	0.20087	0.073
Mof_C 	C 	0.18365	0.50192	0.21107	0.035
Mof_H 	H 	0.15703	0.49387	0.17407	0.03
Mof_C 	C 	0.29658	0.61685	0.29217	0.046
Mof_C 	C 	0.28417	0.65403	0.29267	-0.11
Mof_H 	H 	0.25123	0.64547	0.29327	0.07
Mof_C 	C 	0.00403	0.29485	0.34867	0.228
Mof_O 	O 	0.15403	0.37855	0.27497	-0.302
Mof_O 	O 	0.12062	0.40272	0.17407	-0.465
Mof_O 	O 	0.105	0.28738	0.07207	-0.295
Mof_O 	O 	0.05075	0.26871	0.18007	-0.46
Mof_N 	N 	0.99063	0.35237	0.38687	-0.052
Mof_N 	N 	0.98119	0.30674	0.40967	-0.251
Mof_N 	N 	0.01803	0.36724	0.31737	-0.054
Mof_N 	N 	0.00683	0.25347	0.34887	-0.358
Mof_H 	H 	0.99323	0.23237	0.39077	0.175
Mof_H 	H 	0.02223	0.24817	0.30707	0.177
Mof_N 	N 	0.02703	0.33141	0.29037	-0.251
Mof_Zn	Zn	0.33026	0.06099	0.51312	1.216
Mof_C 	C 	0.40946	0.14877	0.4546	0.337
Mof_C 	C 	0.46376	0.18614	0.4491	-0.092
Mof_C 	C 	0.49874	0.17635	0.4867	0.023
Mof_H 	H 	0.4888	0.146	0.513	0.034
Mof_C 	C 	0.54765	0.21152	0.4847	-0.1
Mof_H 	H 	0.5705	0.2044	0.5094	0.065
Mof_C 	C 	0.56412	0.25817	0.4461	0.029
Mof_C 	C 	0.52861	0.2661	0.4056	-0.096
Mof_H 	H 	0.5384	0.2959	0.3773	0.069
Mof_C 	C 	0.47923	0.2307	0.4067	0.023
Mof_H 	H 	0.4564	0.2368	0.3789	0.041
Mof_C 	C 	0.61675	0.29656	0.448	0.052
Mof_C 	C 	0.63042	0.34646	0.4484	-0.115
Mof_H 	H 	0.6062	0.3552	0.449	0.073
Mof_C 	C 	0.2554	0.0747	0.5666	0.346
Mof_C 	C 	0.2021	0.05795	0.5833	-0.104
Mof_C 	C 	0.18868	0.08423	0.6407	0.034
Mof_H 	H 	0.2129	0.112	0.6694	0.036
Mof_C 	C 	0.1402	0.0695	0.6551	-0.108
Mof_H 	H 	0.1321	0.0881	0.692	0.072
Mof_C 	C 	0.10251	0.02707	0.6159	0.04
Mof_C 	C 	0.11567	2e-05	0.5607	-0.109
Mof_H 	H 	0.0912	0.9714	0.5342	0.073
Mof_C 	C 	0.16475	0.01507	0.5444	0.035
Mof_H 	H 	0.1728	0.9965	0.5074	0.03
Mof_C 	C 	0.04982	0.01307	0.6255	0.045
Mof_C 	C 	0.01264	0.96348	0.626	-0.109
Mof_H 	H 	0.0212	0.9391	0.6266	0.07
Mof_C 	C 	0.37182	0.04252	0.682	0.228
Mof_O 	O 	0.28812	0.10882	0.6083	-0.302
Mof_O 	O 	0.26395	0.05124	0.5074	-0.465
Mof_O 	O 	0.37929	0.15096	0.4054	-0.295
Mof_O 	O 	0.39796	0.11538	0.5134	-0.46
Mof_N 	N 	0.3143	0.9716	0.7202	-0.052
Mof_N 	N 	0.35993	0.00779	0.743	-0.251
Mof_N 	N 	0.29943	0.98413	0.6507	-0.054
Mof_N 	N 	0.4132	0.0867	0.6822	-0.358
Mof_H 	H 	0.4343	0.0942	0.7241	0.175
Mof_H 	H 	0.4185	0.1074	0.6404	0.177
Mof_N 	N 	0.33526	0.02896	0.6237	-0.251
Mof_Zn	Zn	0.99693	0.39432	0.84645	1.216
Mof_C 	C 	0.07613	0.4821	0.78793	0.337
Mof_C 	C 	0.13043	0.51947	0.78243	-0.092
Mof_C 	C 	0.16541	0.50968	0.82003	0.023
Mof_H 	H 	0.15547	0.47933	0.84633	0.034
Mof_C 	C 	0.21432	0.54485	0.81803	-0.1
Mof_H 	H 	0.23717	0.53773	0.84273	0.065
Mof_C 	C 	0.23079	0.5915	0.77943	0.029
Mof_C 	C 	0.19528	0.59943	0.73893	-0.096
Mof_H 	H 	0.20507	0.62923	0.71063	0.069
Mof_C 	C 	0.1459	0.56403	0.74003	0.023
Mof_H 	H 	0.12307	0.57013	0.71223	0.041
Mof_C 	C 	0.28342	0.62989	0.78133	0.052
Mof_C 	C 	0.29709	0.67979	0.78173	-0.115
Mof_H 	H 	0.27287	0.68853	0.78233	0.073
Mof_C 	C 	0.92207	0.40803	0.89993	0.345
Mof_C 	C 	0.86877	0.39128	0.91663	-0.103
Mof_C 	C 	0.85535	0.41756	0.97403	0.033
Mof_H 	H 	0.87957	0.44533	0.00273	0.037
Mof_C 	C 	0.80687	0.40283	0.98843	-0.108
Mof_H 	H 	0.79877	0.42143	0.02533	0.072
Mof_C 	C 	0.76918	0.3604	0.94923	0.04
Mof_C 	C 	0.78234	0.33335	0.89403	-0.109
Mof_H 	H 	0.75787	0.30473	0.86753	0.073
Mof_C 	C 	0.83142	0.3484	0.87773	0.035
Mof_H 	H 	0.83947	0.32983	0.84073	0.03
Mof_C 	C 	0.71649	0.3464	0.95883	0.045
Mof_C 	C 	0.67931	0.29681	0.95933	-0.11
Mof_H 	H 	0.68787	0.27243	0.95993	0.07
Mof_C 	C 	0.03849	0.37585	0.01533	0.228
Mof_O 	O 	0.95479	0.44215	0.94163	-0.302
Mof_O 	O 	0.93062	0.38457	0.84073	-0.465
Mof_O 	O 	0.04596	0.48429	0.73873	-0.295
Mof_O 	O 	0.06463	0.44871	0.84673	-0.46
Mof_N 	N 	0.98097	0.30493	0.05353	-0.052
Mof_N 	N 	0.0266	0.34112	0.07633	-0.252
Mof_N 	N 	0.9661	0.31746	0.98403	-0.054
Mof_N 	N 	0.07987	0.42003	0.01553	-0.359
Mof_H 	H 	0.10097	0.42753	0.05743	0.175
Mof_H 	H 	0.08517	0.44073	0.97373	0.177
Mof_N 	N 	0.00193	0.36229	0.95703	-0.251
Mof_Zn	Zn	0.66359	0.72766	0.17979	1.216
Mof_C 	C 	0.74279	0.81544	0.12127	0.337
Mof_C 	C 	0.79709	0.85281	0.11577	-0.093
Mof_C 	C 	0.83207	0.84302	0.15337	0.023
Mof_H 	H 	0.82213	0.81267	0.17967	0.034
Mof_C 	C 	0.88098	0.87819	0.15137	-0.1
Mof_H 	H 	0.90383	0.87107	0.17607	0.065
Mof_C 	C 	0.89745	0.92484	0.11277	0.03
Mof_C 	C 	0.86194	0.93277	0.07227	-0.097
Mof_H 	H 	0.87173	0.96257	0.04397	0.069
Mof_C 	C 	0.81256	0.89737	0.07337	0.024
Mof_H 	H 	0.78973	0.90347	0.04557	0.041
Mof_C 	C 	0.95008	0.96323	0.11467	0.051
Mof_C 	C 	0.96375	0.01313	0.11507	-0.113
Mof_H 	H 	0.93953	0.02187	0.11567	0.072
Mof_C 	C 	0.58873	0.74137	0.23327	0.346
Mof_C 	C 	0.53543	0.72462	0.24997	-0.104
Mof_C 	C 	0.52201	0.7509	0.30737	0.034
Mof_H 	H 	0.54623	0.77867	0.33607	0.036
Mof_C 	C 	0.47353	0.73617	0.32177	-0.107
Mof_H 	H 	0.46543	0.75477	0.35867	0.072
Mof_C 	C 	0.43584	0.69374	0.28257	0.04
Mof_C 	C 	0.449	0.66669	0.22737	-0.109
Mof_H 	H 	0.42453	0.63807	0.20087	0.073
Mof_C 	C 	0.49808	0.68174	0.21107	0.035
Mof_H 	H 	0.50613	0.66317	0.17407	0.03
Mof_C 	C 	0.38315	0.67974	0.29217	0.046
Mof_C 	C 	0.34597	0.63015	0.29267	-0.11
Mof_H 	H 	0.35453	0.60577	0.29327	0.07
Mof_C 	C 	0.70515	0.70919	0.34867	0.228
Mof_O 	O 	0.62145	0.77549	0.27497	-0.302
Mof_O 	O 	0.59728	0.71791	0.17407	-0.465
Mof_O 	O 	0.71262	0.81763	0.07207	-0.295
Mof_O 	O 	0.73129	0.78205	0.18007	-0.46
Mof_N 	N 	0.64763	0.63827	0.38687	-0.053
Mof_N 	N 	0.69326	0.67446	0.40967	-0.251
Mof_N 	N 	0.63276	0.6508	0.31737	-0.054
Mof_N 	N 	0.74653	0.75337	0.34887	-0.358
Mof_H 	H 	0.76763	0.76087	0.39077	0.175
Mof_H 	H 	0.75183	0.77407	0.30707	0.177
Mof_N 	N 	0.66859	0.69563	0.29037	-0.251
_end
