data_functionalizedCrystal
_audit_creation_method	'EQeq! by Chris Wilmer'
_symmetry_space_group_name_H-M	'P1'
_symmetry_Int_Tables_number	1
_symmetry_cell_setting	triclinic
loop_
_symmetry_equiv_pos_as_xyz
  x,y,z
_cell_length_a	12.1655
_cell_length_b	20.5144
_cell_length_c	21.7012
_cell_angle_alpha	90
_cell_angle_beta	90
_cell_angle_gamma	90
loop_
_atom_site_label
_atom_site_type_symbol
_atom_site_fract_x
_atom_site_fract_y
_atom_site_fract_z
_atom_site_charge
Mof_La	La	0.42587	0.80983	0.46772	1.814
Mof_La	La	0.99751	0.00601	0.32349	1.612
Mof_La	La	0.42587	0.19017	0.53228	1.809
Mof_La	La	0.99751	0.99399	0.67651	1.655
Mof_La	La	0.57413	0.69017	0.96772	1.833
Mof_La	La	0.00249	0.49399	0.82349	1.63
Mof_La	La	0.57413	0.30983	0.03228	1.788
Mof_La	La	0.00249	0.50601	0.17651	1.63
Mof_Mo	Mo	0.49358	0.00495	0.44074	1.05
Mof_Mo	Mo	0.28382	0.10108	0.36865	1.145
Mof_Mo	Mo	0.30406	0.93539	0.34207	1.513
Mof_Mo	Mo	0.12194	0.85085	0.40554	1.455
Mof_Mo	Mo	0.93223	0.06261	0.50902	1.097
Mof_Mo	Mo	0.13843	0.15879	0.43563	1.116
Mof_Mo	Mo	0.49358	0.99505	0.55926	1.107
Mof_Mo	Mo	0.28382	0.89892	0.63135	1.148
Mof_Mo	Mo	0.30406	0.06461	0.65793	1.478
Mof_Mo	Mo	0.12194	0.14915	0.59446	1.451
Mof_Mo	Mo	0.93223	0.93739	0.49098	1.13
Mof_Mo	Mo	0.13843	0.84121	0.56437	1.117
Mof_Mo	Mo	0.50642	0.49505	0.94074	1.094
Mof_Mo	Mo	0.71618	0.39892	0.86865	1.144
Mof_Mo	Mo	0.69594	0.56461	0.84207	1.496
Mof_Mo	Mo	0.87806	0.64915	0.90554	1.457
Mof_Mo	Mo	0.06777	0.43739	0.00902	1.086
Mof_Mo	Mo	0.86157	0.34121	0.93563	1.132
Mof_Mo	Mo	0.50642	0.50495	0.05926	1.063
Mof_Mo	Mo	0.71618	0.60108	0.13135	1.148
Mof_Mo	Mo	0.69594	0.43539	0.15793	1.494
Mof_Mo	Mo	0.87806	0.35085	0.09446	1.452
Mof_Mo	Mo	0.06777	0.56261	0.99098	1.139
Mof_Mo	Mo	0.86157	0.65879	0.06437	1.105
Mof_P 	P 	0.2105	4.66099e-33	0.5	0.561
Mof_P 	P 	0.7895	0.5	-0	0.561
Mof_H 	H 	0.7607	0.1669	0.1931	-0.021
Mof_H 	H 	0.5075	0.2697	0.2635	-0.019
Mof_H 	H 	0.6933	0.1589	0.3744	-0.03
Mof_H 	H 	0.7607	0.8331	0.8069	-0.017
Mof_H 	H 	0.5075	0.7303	0.7365	-0.018
Mof_H 	H 	0.6933	0.8411	0.6256	-0.029
Mof_H 	H 	0.2393	0.3331	0.6931	-0.019
Mof_H 	H 	0.4925	0.2303	0.7635	-0.019
Mof_H 	H 	0.3067	0.3411	0.8744	-0.028
Mof_H 	H 	0.2393	0.6669	0.3069	-0.019
Mof_H 	H 	0.4925	0.7697	0.2365	-0.018
Mof_H 	H 	0.3067	0.6589	0.1256	-0.031
Mof_C 	C 	0.7431	0.1561	0.2853	-0.185
Mof_C 	C 	0.7188	0.1802	0.2267	0.063
Mof_C 	C 	0.6328	0.224	0.2179	-0.192
Mof_C 	C 	0.5671	0.2419	0.2688	0.059
Mof_C 	C 	0.5923	0.2177	0.3265	-0.181
Mof_C 	C 	0.6783	0.175	0.3352	0.082
Mof_C 	C 	0.8379	0.1118	0.2949	0.301
Mof_C 	C 	0.605	0.2493	0.1551	0.318
Mof_C 	C 	0.5181	0.2353	0.3819	0.346
Mof_C 	C 	0.7431	0.8439	0.7147	-0.182
Mof_C 	C 	0.7188	0.8198	0.7733	0.062
Mof_C 	C 	0.6328	0.776	0.7821	-0.19
Mof_C 	C 	0.5671	0.7581	0.7312	0.058
Mof_C 	C 	0.5923	0.7823	0.6735	-0.179
Mof_C 	C 	0.6783	0.825	0.6648	0.081
Mof_C 	C 	0.8379	0.8882	0.7051	0.301
Mof_C 	C 	0.605	0.7507	0.8449	0.318
Mof_C 	C 	0.5181	0.7647	0.6181	0.346
Mof_C 	C 	0.2569	0.3439	0.7853	-0.183
Mof_C 	C 	0.2812	0.3198	0.7267	0.062
Mof_C 	C 	0.3672	0.276	0.7179	-0.191
Mof_C 	C 	0.4329	0.2581	0.7688	0.058
Mof_C 	C 	0.4077	0.2823	0.8265	-0.179
Mof_C 	C 	0.3217	0.325	0.8352	0.08
Mof_C 	C 	0.1621	0.3882	0.7949	0.3
Mof_C 	C 	0.395	0.2507	0.6551	0.318
Mof_C 	C 	0.4819	0.2647	0.8819	0.344
Mof_C 	C 	0.2569	0.6561	0.2147	-0.184
Mof_C 	C 	0.2812	0.6802	0.2733	0.063
Mof_C 	C 	0.3672	0.724	0.2821	-0.191
Mof_C 	C 	0.4329	0.7419	0.2312	0.059
Mof_C 	C 	0.4077	0.7177	0.1735	-0.181
Mof_C 	C 	0.3217	0.675	0.1648	0.083
Mof_C 	C 	0.1621	0.6118	0.2051	0.301
Mof_C 	C 	0.395	0.7493	0.3449	0.318
Mof_C 	C 	0.4819	0.7353	0.1181	0.347
Mof_O 	O 	0.4688	0.9293	0.4947	-0.683
Mof_O 	O 	0.4431	0.9449	0.3722	-0.663
Mof_O 	O 	0.4497	0.0793	0.3804	-0.473
Mof_O 	O 	0.2842	0.0079	0.4419	-0.441
Mof_O 	O 	0.2961	0.8528	0.5531	-0.685
Mof_O 	O 	0.1247	0.0884	0.3741	-0.685
Mof_O 	O 	0.2822	0.0193	0.3163	-0.7
Mof_O 	O 	0.1426	0.9299	0.353	-0.802
Mof_O 	O 	0.2818	0.8666	0.4052	-0.756
Mof_O 	O 	0.1381	0.8058	0.4776	-0.669
Mof_O 	O 	0.9807	0.8807	0.4196	-0.697
Mof_O 	O 	0.1354	0.0608	0.5059	-0.439
Mof_O 	O 	0.9568	0.0106	0.4351	-0.709
Mof_O 	O 	0.9741	0.141	0.4544	-0.488
Mof_O 	O 	0.8783	0.1055	0.3475	-0.447
Mof_O 	O 	0.8698	0.0738	0.25	-0.482
Mof_O 	O 	0.6617	0.2287	0.1095	-0.489
Mof_O 	O 	0.528	0.2897	0.1481	-0.493
Mof_O 	O 	0.5176	0.1951	0.4264	-0.491
Mof_O 	O 	0.4643	0.2874	0.3765	-0.383
Mof_O 	O 	0.4688	0.0707	0.5053	-0.691
Mof_O 	O 	0.4431	0.0551	0.6278	-0.678
Mof_O 	O 	0.4497	0.9207	0.6196	-0.476
Mof_O 	O 	0.2842	0.9921	0.5581	-0.428
Mof_O 	O 	0.2961	0.1472	0.4469	-0.684
Mof_O 	O 	0.1247	0.9116	0.6259	-0.687
Mof_O 	O 	0.2822	0.9807	0.6837	-0.682
Mof_O 	O 	0.1426	0.0701	0.647	-0.813
Mof_O 	O 	0.2818	0.1334	0.5948	-0.753
Mof_O 	O 	0.1381	0.1942	0.5224	-0.669
Mof_O 	O 	0.9807	0.1193	0.5804	-0.699
Mof_O 	O 	0.1354	0.9392	0.4941	-0.432
Mof_O 	O 	0.9568	0.9894	0.5649	-0.701
Mof_O 	O 	0.9741	0.859	0.5456	-0.493
Mof_O 	O 	0.8783	0.8945	0.6525	-0.45
Mof_O 	O 	0.8698	0.9262	0.75	-0.479
Mof_O 	O 	0.6617	0.7713	0.8905	-0.487
Mof_O 	O 	0.528	0.7103	0.8519	-0.494
Mof_O 	O 	0.5176	0.8049	0.5736	-0.492
Mof_O 	O 	0.4643	0.7126	0.6235	-0.383
Mof_O 	O 	0.5312	0.5707	0.9947	-0.682
Mof_O 	O 	0.5569	0.5551	0.8722	-0.673
Mof_O 	O 	0.5503	0.4207	0.8804	-0.475
Mof_O 	O 	0.7158	0.4921	0.9419	-0.431
Mof_O 	O 	0.7039	0.6472	0.0531	-0.69
Mof_O 	O 	0.8753	0.4116	0.8741	-0.686
Mof_O 	O 	0.7178	0.4807	0.8163	-0.691
Mof_O 	O 	0.8574	0.5701	0.853	-0.807
Mof_O 	O 	0.7182	0.6334	0.9052	-0.756
Mof_O 	O 	0.8619	0.6942	0.9776	-0.662
Mof_O 	O 	0.0193	0.6193	0.9196	-0.701
Mof_O 	O 	0.8646	0.4392	0.0059	-0.442
Mof_O 	O 	0.0432	0.4894	0.9351	-0.702
Mof_O 	O 	0.0259	0.359	0.9544	-0.483
Mof_O 	O 	0.1217	0.3945	0.8475	-0.448
Mof_O 	O 	0.1302	0.4262	0.75	-0.48
Mof_O 	O 	0.3383	0.2713	0.6095	-0.488
Mof_O 	O 	0.472	0.2103	0.6481	-0.494
Mof_O 	O 	0.4824	0.3049	0.9264	-0.485
Mof_O 	O 	0.5357	0.2126	0.8765	-0.381
Mof_O 	O 	0.5312	0.4293	0.0053	-0.693
Mof_O 	O 	0.5569	0.4449	0.1278	-0.668
Mof_O 	O 	0.5503	0.5793	0.1196	-0.474
Mof_O 	O 	0.7158	0.5079	0.0581	-0.438
Mof_O 	O 	0.7039	0.3528	0.9469	-0.679
Mof_O 	O 	0.8753	0.5884	0.1259	-0.685
Mof_O 	O 	0.7178	0.5193	0.1837	-0.691
Mof_O 	O 	0.8574	0.4299	0.147	-0.807
Mof_O 	O 	0.7182	0.3666	0.0948	-0.753
Mof_O 	O 	0.8619	0.3058	0.0224	-0.677
Mof_O 	O 	0.0193	0.3807	0.0804	-0.697
Mof_O 	O 	0.8646	0.5608	0.9941	-0.428
Mof_O 	O 	0.0432	0.5106	0.0649	-0.709
Mof_O 	O 	0.0259	0.641	0.0456	-0.498
Mof_O 	O 	0.1217	0.6055	0.1525	-0.449
Mof_O 	O 	0.1302	0.5738	0.25	-0.48
Mof_O 	O 	0.3383	0.7287	0.3905	-0.488
Mof_O 	O 	0.472	0.7897	0.3519	-0.493
Mof_O 	O 	0.4824	0.6951	0.0736	-0.498
Mof_O 	O 	0.5357	0.7874	0.1235	-0.384
_end
