data_functionalizedCrystal
_audit_creation_method	'EQeq! by Chris Wilmer'
_symmetry_space_group_name_H-M	'P1'
_symmetry_Int_Tables_number	1
_symmetry_cell_setting	triclinic
loop_
_symmetry_equiv_pos_as_xyz
  x,y,z
_cell_length_a	9.026
_cell_length_b	12.942
_cell_length_c	18.457
_cell_angle_alpha	81.718
_cell_angle_beta	84.77
_cell_angle_gamma	72.443
loop_
_atom_site_label
_atom_site_type_symbol
_atom_site_fract_x
_atom_site_fract_y
_atom_site_fract_z
_atom_site_charge
Mof_Cu	Cu	0.42033	0.30359	0.34712	0.848
Mof_N 	N 	0.2715	0.74249	0.89628	-0.105
Mof_N 	N 	0.1671	0.87937	0.95911	-0.224
Mof_N 	N 	0.2287	0.20651	0.88234	-0.102
Mof_N 	N 	0.0784	0.11082	0.93589	-0.247
Mof_N 	N 	0.2252	0.4473	0.14954	-0.11
Mof_N 	N 	0.3349	0.39482	0.25503	-0.234
Mof_N 	N 	0.1299	0.56899	0.44245	-0.119
Mof_N 	N 	0.3022	0.42376	0.40654	-0.232
Mof_N 	N 	0.7297	0.04472	0.25364	-0.107
Mof_N 	N 	0.5349	0.17838	0.29008	-0.234
Mof_N 	N 	0.3606	0.9071	0.47766	-0.114
Mof_N 	N 	0.512	0.79725	0.56052	-0.232
Mof_C 	C 	0.2786	0.5486	0.90291	0.112
Mof_C 	C 	0.3271	0.4521	0.87129	-0.176
Mof_C 	C 	0.3162	0.3549	0.91022	0.103
Mof_C 	C 	0.2554	0.3544	0.98248	-0.095
Mof_C 	C 	0.2045	0.4499	0.01502	0.053
Mof_C 	C 	0.2171	0.5474	0.97487	-0.135
Mof_C 	C 	0.2829	0.6526	0.85473	-0.129
Mof_C 	C 	0.1396	0.8162	0.91507	0.084
Mof_C 	C 	0.3229	0.8444	0.9687	0.017
Mof_C 	C 	0.3887	0.7593	0.9297	-0.01
Mof_C 	C 	0.3598	0.2524	0.8732	-0.133
Mof_C 	C 	0.22	0.1194	0.92959	0.083
Mof_C 	C 	0.9899	0.1986	0.89095	0.055
Mof_C 	C 	0.083	0.2575	0.85784	-0.056
Mof_C 	C 	0.1254	0.4491	0.09079	-0.111
Mof_C 	C 	0.2619	0.3669	0.20574	0.079
Mof_C 	C 	0.3439	0.4985	0.22965	-0.002
Mof_C 	C 	0.2764	0.5314	0.16429	-0.01
Mof_C 	C 	0.0182	0.77	0.40735	0.071
Mof_C 	C 	0.9464	0.8221	0.3425	-0.141
Mof_C 	C 	0.9679	0.9209	0.30995	0.12
Mof_C 	C 	0.0604	0.9674	0.3419	-0.152
Mof_C 	C 	0.1312	0.9173	0.40719	0.088
Mof_C 	C 	0.1093	0.8186	0.43891	-0.151
Mof_C 	C 	0.9906	0.6643	0.44377	-0.086
Mof_C 	C 	0.1691	0.4998	0.39197	0.081
Mof_C 	C 	0.3489	0.4466	0.46977	-0.006
Mof_C 	C 	0.2432	0.5361	0.49268	-0.006
Mof_C 	C 	0.8897	0.9778	0.23952	-0.101
Mof_C 	C 	0.6868	0.1424	0.27857	0.09
Mof_C 	C 	0.4775	0.0994	0.27127	0.026
Mof_C 	C 	0.5966	0.0163	0.24869	-0.053
Mof_C 	C 	0.2188	0.977	0.44365	-0.055
Mof_C 	C 	0.368	0.8513	0.54497	0.09
Mof_C 	C 	0.6026	0.8208	0.50011	0.008
Mof_C 	C 	0.5095	0.888	0.4487	-0.003
Mof_H 	H 	0.3685	0.4529	0.8221	0.077
Mof_H 	H 	0.2488	0.2877	0.0098	0.042
Mof_H 	H 	0.1834	0.6132	0.9968	0.088
Mof_H 	H 	0.3812	0.6383	0.8242	0.063
Mof_H 	H 	0.1959	0.6744	0.8214	0.054
Mof_H 	H 	0.0399	0.8223	0.899	-0.025
Mof_H 	H 	0.3766	0.8746	0.998	0.01
Mof_H 	H 	0.4958	0.7194	0.9263	0.043
Mof_H 	H 	0.3853	0.2697	0.8204	0.064
Mof_H 	H 	0.4525	0.1986	0.8953	0.065
Mof_H 	H 	0.3053	0.0703	0.9551	-0.017
Mof_H 	H 	0.8817	0.2146	0.8845	-0.002
Mof_H 	H 	0.0532	0.322	0.8241	0.041
Mof_H 	H 	0.0341	0.5148	0.0913	0.058
Mof_H 	H 	0.0868	0.3843	0.1011	0.052
Mof_H 	H 	0.2384	0.2995	0.2094	-0.021
Mof_H 	H 	0.3899	0.54	0.254	0.007
Mof_H 	H 	0.2666	0.5992	0.1346	0.028
Mof_H 	H 	0.8827	0.79	0.3205	0.078
Mof_H 	H 	0.0761	0.0342	0.3192	0.05
Mof_H 	H 	0.1579	0.7838	0.4832	0.075
Mof_H 	H 	0.9537	0.6727	0.4954	0.054
Mof_H 	H 	0.9072	0.6505	0.4188	0.058
Mof_H 	H 	0.1095	0.5044	0.3511	-0.015
Mof_H 	H 	0.4412	0.4058	0.4937	0.015
Mof_H 	H 	0.2467	0.5694	0.5349	0.016
Mof_H 	H 	0.9505	0.0247	0.2127	0.046
Mof_H 	H 	0.889	0.9222	0.208	0.069
Mof_H 	H 	0.7571	0.1808	0.2869	-0.021
Mof_H 	H 	0.3707	0.1025	0.2737	-0.008
Mof_H 	H 	0.5895	0.9515	0.2327	0.057
Mof_H 	H 	0.2465	0.0323	0.4065	0.025
Mof_H 	H 	0.1486	0.0163	0.4817	0.028
Mof_H 	H 	0.28	0.851	0.5774	-0.018
Mof_H 	H 	0.7128	0.7942	0.4953	0.012
Mof_H 	H 	0.5416	0.9164	0.4016	0.039
Mof_Cu	Cu	0.57967	0.69641	0.65288	0.85
Mof_N 	N 	0.7285	0.25751	0.10372	-0.096
Mof_N 	N 	0.8329	0.12063	0.04089	-0.232
Mof_N 	N 	0.7713	0.79349	0.11766	-0.106
Mof_N 	N 	0.9216	0.88918	0.06411	-0.211
Mof_N 	N 	0.7748	0.5527	0.85046	-0.093
Mof_N 	N 	0.6651	0.60518	0.74497	-0.233
Mof_N 	N 	0.8701	0.43101	0.55755	-0.086
Mof_N 	N 	0.6978	0.57624	0.59346	-0.23
Mof_N 	N 	0.2703	0.95528	0.74636	-0.091
Mof_N 	N 	0.4651	0.82162	0.70992	-0.228
Mof_N 	N 	0.6394	0.0929	0.52234	-0.093
Mof_N 	N 	0.488	0.20275	0.43948	-0.231
Mof_C 	C 	0.7214	0.4514	0.09709	0.204
Mof_C 	C 	0.6729	0.5479	0.12871	-0.267
Mof_C 	C 	0.6838	0.6451	0.08978	0.211
Mof_C 	C 	0.7446	0.6456	0.01752	-0.313
Mof_C 	C 	0.7955	0.5501	0.98498	0.251
Mof_C 	C 	0.7829	0.4526	0.02513	-0.283
Mof_C 	C 	0.7171	0.3474	0.14527	-0.179
Mof_C 	C 	0.8604	0.1838	0.08493	0.077
Mof_C 	C 	0.6771	0.1556	0.0313	0.013
Mof_C 	C 	0.6113	0.2407	0.0703	-0.019
Mof_C 	C 	0.6402	0.7476	0.1268	-0.186
Mof_C 	C 	0.78	0.8806	0.07041	0.081
Mof_C 	C 	0.0101	0.8014	0.10905	-0.062
Mof_C 	C 	0.917	0.7425	0.14216	0.032
Mof_C 	C 	0.8746	0.5509	0.90921	-0.212
Mof_C 	C 	0.7381	0.6331	0.79426	0.078
Mof_C 	C 	0.6561	0.5015	0.77035	0.004
Mof_C 	C 	0.7236	0.4686	0.83571	-0.013
Mof_C 	C 	0.9818	0.23	0.59265	0.236
Mof_C 	C 	0.0536	0.1779	0.6575	-0.286
Mof_C 	C 	0.0321	0.0791	0.69005	0.184
Mof_C 	C 	0.9396	0.0326	0.6581	-0.257
Mof_C 	C 	0.8688	0.0827	0.59281	0.204
Mof_C 	C 	0.8907	0.1814	0.56109	-0.265
Mof_C 	C 	0.0094	0.3357	0.55623	-0.229
Mof_C 	C 	0.8309	0.5002	0.60803	0.077
Mof_C 	C 	0.6511	0.5534	0.53023	-0.001
Mof_C 	C 	0.7568	0.4639	0.50732	-0.012
Mof_C 	C 	0.1103	0.0222	0.76048	-0.217
Mof_C 	C 	0.3132	0.8576	0.72143	0.086
Mof_C 	C 	0.5225	0.9006	0.72873	-0.002
Mof_C 	C 	0.4034	0.9837	0.75131	0.016
Mof_C 	C 	0.7812	0.023	0.55635	-0.231
Mof_C 	C 	0.632	0.1487	0.45503	0.076
Mof_C 	C 	0.3974	0.1792	0.49989	0.011
Mof_C 	C 	0.4905	0.112	0.5513	-0.019
Mof_H 	H 	0.6315	0.5471	0.1779	0.107
Mof_H 	H 	0.7512	0.7123	0.9902	0.144
Mof_H 	H 	0.8166	0.3868	0.0032	0.128
Mof_H 	H 	0.6188	0.3617	0.1758	0.076
Mof_H 	H 	0.8041	0.3256	0.1786	0.076
Mof_H 	H 	0.9601	0.1777	0.101	-0.016
Mof_H 	H 	0.6234	0.1254	0.002	-0.005
Mof_H 	H 	0.5042	0.2806	0.0737	0.04
Mof_H 	H 	0.6147	0.7303	0.1796	0.079
Mof_H 	H 	0.5475	0.8014	0.1047	0.074
Mof_H 	H 	0.6947	0.9297	0.0449	-0.014
Mof_H 	H 	0.1183	0.7854	0.1155	0.025
Mof_H 	H 	0.9468	0.678	0.1759	0.026
Mof_H 	H 	0.9659	0.4852	0.9087	0.105
Mof_H 	H 	0.9132	0.6157	0.8989	0.094
Mof_H 	H 	0.7616	0.7005	0.7906	-0.014
Mof_H 	H 	0.6101	0.46	0.746	0.008
Mof_H 	H 	0.7334	0.4008	0.8654	0.038
Mof_H 	H 	0.1173	0.21	0.6795	0.119
Mof_H 	H 	0.9239	0.9658	0.6808	0.115
Mof_H 	H 	0.8421	0.2162	0.5168	0.121
Mof_H 	H 	0.0463	0.3273	0.5046	0.082
Mof_H 	H 	0.0928	0.3495	0.5812	0.089
Mof_H 	H 	0.8905	0.4956	0.6489	-0.003
Mof_H 	H 	0.5588	0.5942	0.5063	0.013
Mof_H 	H 	0.7533	0.4306	0.4651	0.024
Mof_H 	H 	0.0495	0.9753	0.7873	0.089
Mof_H 	H 	0.111	0.0778	0.792	0.089
Mof_H 	H 	0.2429	0.8192	0.7131	-0.022
Mof_H 	H 	0.6293	0.8975	0.7263	0.009
Mof_H 	H 	0.4105	0.0485	0.7673	0.016
Mof_H 	H 	0.7535	0.9677	0.5935	0.097
Mof_H 	H 	0.8514	0.9837	0.5183	0.109
Mof_H 	H 	0.72	0.149	0.4226	-0.013
Mof_H 	H 	0.2872	0.2058	0.5047	0.004
Mof_H 	H 	0.4584	0.0836	0.5984	0.035
Mof_Cu	Cu	-0	0	-0	0.824
_end
