data_functionalizedCrystal
_audit_creation_method	'EQeq! by Chris Wilmer'
_symmetry_space_group_name_H-M	'P1'
_symmetry_Int_Tables_number	1
_symmetry_cell_setting	triclinic
loop_
_symmetry_equiv_pos_as_xyz
  x,y,z
_cell_length_a	35.7507
_cell_length_b	16.3257
_cell_length_c	13.1559
_cell_angle_alpha	90
_cell_angle_beta	90
_cell_angle_gamma	90
loop_
_atom_site_label
_atom_site_type_symbol
_atom_site_fract_x
_atom_site_fract_y
_atom_site_fract_z
_atom_site_charge
Mof_C 	C 	0.7495	0.3254	0.8797	0.126
Mof_C 	C 	0.78992	0.2296	0.7953	0.011
Mof_H 	H 	0.796	0.1995	0.7375	0.026
Mof_C 	C 	0.65139	0.4321	0.1351	-0.043
Mof_C 	C 	0.81285	0.224	0.8827	-0.049
Mof_O 	O 	0.61169	0.736	0.2794	-0.466
Mof_H 	H 	0.6028	0.7489	0.2242	0.264
Mof_C 	C 	0.80192	0.2661	0.9687	0.036
Mof_H 	H 	0.8157	0.2603	0.0282	0.02
Mof_O 	O 	0.53534	0.5522	0.4872	-0.479
Mof_C 	C 	0.8481	0.175	0.8784	0.067
Mof_C 	C 	0.66714	0.4579	0.6532	0.021
Mof_H 	H 	0.6436	0.4525	0.6237	0.026
Mof_C 	C 	0.65845	0.6545	0.3545	-0.135
Mof_C 	C 	0.85493	0.1185	0.8014	-0.141
Mof_H 	H 	0.8368	0.1096	0.7518	0.076
Mof_C 	C 	0.58093	0.4764	0.3912	-0.119
Mof_C 	C 	0.91497	0.0857	0.8697	-0.126
Mof_C 	C 	0.71089	0.4204	0.7831	0.135
Mof_C 	C 	0.68245	0.5588	0.5189	0.09
Mof_O 	O 	0.66271	0.7077	0.1862	-0.297
Mof_C 	C 	0.75862	0.2791	0.7945	-0.14
Mof_H 	H 	0.7436	0.2815	0.7369	0.09
Mof_C 	C 	0.68595	0.3344	0.0298	-0.181
Mof_H 	H 	0.6939	0.2809	0.0185	0.092
Mof_C 	C 	0.69397	0.6209	0.3542	0.064
Mof_H 	H 	0.7099	0.6294	0.2993	0.018
Mof_C 	C 	0.69658	0.3959	0.9629	0.159
Mof_C 	C 	0.60979	0.4192	0.3964	0.058
Mof_H 	H 	0.6136	0.3898	0.4561	0.02
Mof_C 	C 	0.77073	0.3169	0.9682	-0.097
Mof_H 	H 	0.764	0.3452	0.0268	0.055
Mof_C 	C 	0.72964	0.509	0.6456	0.019
Mof_H 	H 	0.7482	0.5385	0.6124	0.027
Mof_C 	C 	0.88822	0.0754	0.7974	0.054
Mof_H 	H 	0.8924	0.0388	0.7444	-0.005
Mof_C 	C 	0.64689	0.5961	0.5188	-0.139
Mof_H 	H 	0.6309	0.589	0.5738	0.073
Mof_C 	C 	0.64523	0.701	0.2653	0.368
Mof_C 	C 	0.70573	0.5745	0.4365	-0.144
Mof_H 	H 	0.7299	0.5532	0.4366	0.082
Mof_C 	C 	0.66352	0.3519	0.1136	0.023
Mof_H 	H 	0.6564	0.3094	0.1565	0.02
Mof_N 	N 	0.71864	0.3792	0.8773	-0.172
Mof_C 	C 	0.67506	0.4157	0.7419	-0.147
Mof_H 	H 	0.6567	0.3846	0.7736	0.101
Mof_C 	C 	0.63572	0.6434	0.4369	0.067
Mof_H 	H 	0.6123	0.6682	0.4379	0.031
Mof_C 	C 	0.7384	0.4661	0.7336	-0.149
Mof_H 	H 	0.7626	0.4679	0.7596	0.088
Mof_C 	C 	0.62729	0.4485	0.2239	0.089
Mof_C 	C 	0.68465	0.4766	0.9817	-0.098
Mof_H 	H 	0.6919	0.5186	0.9382	0.077
Mof_C 	C 	0.87535	0.1847	0.9537	-0.07
Mof_H 	H 	0.8715	0.2213	0.0069	0.043
Mof_C 	C 	0.63277	0.406	0.3133	-0.143
Mof_H 	H 	0.6521	0.368	0.3178	0.085
Mof_O 	O 	0.95678	0.9949	0.7833	-0.44
Mof_C 	C 	0.90829	0.1392	0.9486	0.022
Mof_H 	H 	0.9261	0.1451	0.9995	0.04
Mof_C 	C 	0.69377	0.5084	0.6067	-0.062
Mof_C 	C 	0.57562	0.5204	0.3027	0.054
Mof_H 	H 	0.5567	0.5594	0.2991	0.026
Mof_O 	O 	0.97177	0.0432	0.9398	-0.228
Mof_C 	C 	0.5987	0.5063	0.2176	-0.133
Mof_H 	H 	0.5949	0.5354	0.1577	0.081
Mof_C 	C 	0.94995	0.0382	0.8616	0.306
Mof_C 	C 	0.6618	0.4939	0.0659	-0.031
Mof_H 	H 	0.6535	0.5472	0.0763	0.045
Mof_O 	O 	0.55653	0.4402	0.5556	-0.483
Mof_C 	C 	0.556	0.4909	0.4814	0.342
Mof_C 	C 	0.2505	0.6746	0.8797	0.128
Mof_C 	C 	0.21008	0.7704	0.7953	0.017
Mof_H 	H 	0.204	0.8005	0.7375	0.023
Mof_C 	C 	0.34861	0.5679	0.1351	-0.044
Mof_C 	C 	0.18715	0.776	0.8827	-0.057
Mof_O 	O 	0.38831	0.264	0.2794	-0.47
Mof_H 	H 	0.3972	0.2511	0.2242	0.263
Mof_C 	C 	0.19808	0.7339	0.9687	0.042
Mof_H 	H 	0.1843	0.7397	0.0282	0.019
Mof_O 	O 	0.46466	0.4478	0.4872	-0.481
Mof_C 	C 	0.1519	0.825	0.8784	0.085
Mof_C 	C 	0.33286	0.5421	0.6532	0.021
Mof_H 	H 	0.3564	0.5475	0.6237	0.026
Mof_C 	C 	0.34155	0.3455	0.3545	-0.136
Mof_C 	C 	0.14507	0.8815	0.8014	-0.156
Mof_H 	H 	0.1632	0.8904	0.7518	0.09
Mof_C 	C 	0.41907	0.5236	0.3912	-0.119
Mof_C 	C 	0.08503	0.9143	0.8697	-0.163
Mof_C 	C 	0.28911	0.5796	0.7831	0.135
Mof_C 	C 	0.31755	0.4412	0.5189	0.091
Mof_O 	O 	0.33729	0.2923	0.1862	-0.298
Mof_C 	C 	0.24138	0.7209	0.7945	-0.144
Mof_H 	H 	0.2564	0.7185	0.7369	0.092
Mof_C 	C 	0.31405	0.6656	0.0298	-0.18
Mof_H 	H 	0.3061	0.7191	0.0185	0.091
Mof_C 	C 	0.30603	0.3791	0.3542	0.065
Mof_H 	H 	0.2901	0.3706	0.2993	0.018
Mof_C 	C 	0.30342	0.6041	0.9629	0.159
Mof_C 	C 	0.39021	0.5808	0.3964	0.058
Mof_H 	H 	0.3864	0.6102	0.4561	0.02
Mof_C 	C 	0.22927	0.6831	0.9682	-0.101
Mof_H 	H 	0.236	0.6548	0.0268	0.056
Mof_C 	C 	0.27036	0.491	0.6456	0.019
Mof_H 	H 	0.2518	0.4615	0.6124	0.027
Mof_C 	C 	0.11178	0.9246	0.7974	0.09
Mof_H 	H 	0.1076	0.9612	0.7444	0.01
Mof_C 	C 	0.35311	0.4039	0.5188	-0.141
Mof_H 	H 	0.3691	0.411	0.5738	0.073
Mof_C 	C 	0.35477	0.299	0.2653	0.369
Mof_C 	C 	0.29427	0.4255	0.4365	-0.145
Mof_H 	H 	0.2701	0.4468	0.4366	0.082
Mof_C 	C 	0.33648	0.6481	0.1136	0.023
Mof_H 	H 	0.3436	0.6906	0.1565	0.021
Mof_N 	N 	0.28136	0.6208	0.8773	-0.172
Mof_C 	C 	0.32494	0.5843	0.7419	-0.147
Mof_H 	H 	0.3433	0.6154	0.7736	0.101
Mof_C 	C 	0.36428	0.3566	0.4369	0.068
Mof_H 	H 	0.3877	0.3318	0.4379	0.029
Mof_C 	C 	0.2616	0.5339	0.7336	-0.149
Mof_H 	H 	0.2374	0.5321	0.7596	0.088
Mof_C 	C 	0.37271	0.5515	0.2239	0.089
Mof_C 	C 	0.31535	0.5234	0.9817	-0.097
Mof_H 	H 	0.3081	0.4814	0.9382	0.077
Mof_C 	C 	0.12465	0.8153	0.9537	-0.093
Mof_H 	H 	0.1285	0.7787	0.0069	0.051
Mof_C 	C 	0.36723	0.594	0.3133	-0.143
Mof_H 	H 	0.3479	0.632	0.3178	0.085
Mof_O 	O 	0.04322	0.0051	0.7833	-0.555
Mof_C 	C 	0.09171	0.8608	0.9486	0.057
Mof_H 	H 	0.0739	0.8549	0.9995	0.027
Mof_C 	C 	0.30623	0.4916	0.6067	-0.062
Mof_C 	C 	0.42438	0.4796	0.3027	0.055
Mof_H 	H 	0.4433	0.4406	0.2991	0.025
Mof_O 	O 	0.02823	0.9568	0.9398	-0.245
Mof_C 	C 	0.4013	0.4937	0.2176	-0.133
Mof_H 	H 	0.4051	0.4646	0.1577	0.08
Mof_C 	C 	0.05005	0.9618	0.8616	0.412
Mof_C 	C 	0.3382	0.5061	0.0659	-0.031
Mof_H 	H 	0.3465	0.4528	0.0763	0.045
Mof_O 	O 	0.44347	0.5598	0.5556	-0.483
Mof_C 	C 	0.444	0.5091	0.4814	0.342
Mof_C 	C 	0.2495	0.1746	0.8797	0.124
Mof_C 	C 	0.28992	0.2704	0.7953	0.014
Mof_H 	H 	0.296	0.3005	0.7375	0.024
Mof_C 	C 	0.15139	0.0679	0.1351	-0.004
Mof_C 	C 	0.31285	0.276	0.8827	-0.054
Mof_O 	O 	0.11169	0.764	0.2794	-0.469
Mof_H 	H 	0.1028	0.7511	0.2242	0.262
Mof_C 	C 	0.30192	0.2339	0.9687	0.039
Mof_H 	H 	0.3157	0.2397	0.0282	0.018
Mof_O 	O 	0.03534	0.9478	0.4872	-0.424
Mof_C 	C 	0.3481	0.325	0.8784	0.078
Mof_C 	C 	0.16714	0.0421	0.6532	-0.038
Mof_H 	H 	0.1436	0.0475	0.6237	0.035
Mof_C 	C 	0.15845	0.8455	0.3545	-0.132
Mof_C 	C 	0.35493	0.3815	0.8014	-0.153
Mof_H 	H 	0.3368	0.3904	0.7518	0.085
Mof_C 	C 	0.08093	0.0236	0.3912	-0.144
Mof_C 	C 	0.41497	0.4143	0.8697	-0.154
Mof_C 	C 	0.21089	0.0796	0.7831	0.138
Mof_C 	C 	0.18245	0.9412	0.5189	0.088
Mof_O 	O 	0.16271	0.7923	0.1862	-0.296
Mof_C 	C 	0.25862	0.2209	0.7945	-0.141
Mof_H 	H 	0.2436	0.2185	0.7369	0.091
Mof_C 	C 	0.18595	0.1656	0.0298	-0.172
Mof_H 	H 	0.1939	0.2191	0.0185	0.088
Mof_C 	C 	0.19397	0.8791	0.3542	0.067
Mof_H 	H 	0.2099	0.8706	0.2993	0.022
Mof_C 	C 	0.19658	0.1041	0.9629	0.162
Mof_C 	C 	0.10979	0.0808	0.3964	0.039
Mof_H 	H 	0.1136	0.1102	0.4561	0.023
Mof_C 	C 	0.27073	0.1831	0.9682	-0.099
Mof_H 	H 	0.264	0.1548	0.0268	0.05
Mof_C 	C 	0.22964	0.991	0.6456	0.074
Mof_H 	H 	0.2482	0.9615	0.6124	0.018
Mof_C 	C 	0.38822	0.4246	0.7974	0.078
Mof_H 	H 	0.3924	0.4612	0.7444	-0.002
Mof_C 	C 	0.14689	0.9039	0.5188	-0.131
Mof_H 	H 	0.1309	0.911	0.5738	0.079
Mof_C 	C 	0.14523	0.799	0.2653	0.368
Mof_C 	C 	0.20573	0.9255	0.4365	-0.136
Mof_H 	H 	0.2299	0.9468	0.4366	0.088
Mof_C 	C 	0.16352	0.1481	0.1136	-0.001
Mof_H 	H 	0.1564	0.1906	0.1565	0.028
Mof_N 	N 	0.21864	0.1208	0.8773	-0.177
Mof_C 	C 	0.17506	0.0843	0.7419	-0.137
Mof_H 	H 	0.1567	0.1154	0.7736	0.093
Mof_C 	C 	0.13572	0.8566	0.4369	0.068
Mof_H 	H 	0.1123	0.8318	0.4379	0.032
Mof_C 	C 	0.2384	0.0339	0.7336	-0.211
Mof_H 	H 	0.2626	0.0321	0.7596	0.098
Mof_C 	C 	0.12729	0.0515	0.2239	0.012
Mof_C 	C 	0.18465	0.0234	0.9817	-0.135
Mof_H 	H 	0.1919	0.9814	0.9382	0.116
Mof_C 	C 	0.37535	0.3153	0.9537	-0.084
Mof_H 	H 	0.3715	0.2787	0.0069	0.047
Mof_C 	C 	0.13277	0.094	0.3133	-0.114
Mof_H 	H 	0.1521	0.132	0.3178	0.071
Mof_O 	O 	0.45678	0.5051	0.7833	-0.53
Mof_C 	C 	0.40829	0.3608	0.9486	0.044
Mof_H 	H 	0.4261	0.3549	0.9995	0.031
Mof_C 	C 	0.19377	0.9916	0.6067	-0.027
Mof_C 	C 	0.07562	0.9796	0.3027	0.077
Mof_H 	H 	0.0567	0.9406	0.2991	0.022
Mof_O 	O 	0.47177	0.4568	0.9398	-0.243
Mof_C 	C 	0.0987	0.9937	0.2176	-0.066
Mof_H 	H 	0.0949	0.9646	0.1577	0.064
Mof_C 	C 	0.44995	0.4618	0.8616	0.368
Mof_C 	C 	0.1618	0.0061	0.0659	-0.111
Mof_H 	H 	0.1535	0.9528	0.0763	0.097
Mof_O 	O 	0.05653	0.0598	0.5556	-0.462
Mof_C 	C 	0.056	0.0091	0.4814	0.291
Mof_C 	C 	0.7505	0.8254	0.8797	0.13
Mof_C 	C 	0.71008	0.7296	0.7953	0.017
Mof_H 	H 	0.704	0.6995	0.7375	0.023
Mof_C 	C 	0.84861	0.9321	0.1351	-0.084
Mof_C 	C 	0.68715	0.724	0.8827	-0.057
Mof_O 	O 	0.88831	0.236	0.2794	-0.467
Mof_H 	H 	0.8972	0.2489	0.2242	0.264
Mof_C 	C 	0.69808	0.7661	0.9687	0.043
Mof_H 	H 	0.6843	0.7603	0.0282	0.019
Mof_O 	O 	0.96466	0.0522	0.4872	-0.485
Mof_C 	C 	0.6519	0.675	0.8784	0.081
Mof_C 	C 	0.83286	0.9579	0.6532	0.08
Mof_H 	H 	0.8564	0.9525	0.6237	0.019
Mof_C 	C 	0.84155	0.1545	0.3545	-0.139
Mof_C 	C 	0.64507	0.6185	0.8014	-0.155
Mof_H 	H 	0.6632	0.6096	0.7518	0.085
Mof_C 	C 	0.91907	0.9764	0.3912	-0.088
Mof_C 	C 	0.58503	0.5857	0.8697	-0.155
Mof_C 	C 	0.78911	0.9204	0.7831	0.131
Mof_C 	C 	0.81755	0.0588	0.5189	0.093
Mof_O 	O 	0.83729	0.2077	0.1862	-0.299
Mof_C 	C 	0.74138	0.7791	0.7945	-0.144
Mof_H 	H 	0.7564	0.7815	0.7369	0.092
Mof_C 	C 	0.81405	0.8344	0.0298	-0.188
Mof_H 	H 	0.8061	0.7809	0.0185	0.095
Mof_C 	C 	0.80603	0.1209	0.3542	0.063
Mof_H 	H 	0.7901	0.1294	0.2993	0.014
Mof_C 	C 	0.80342	0.8959	0.9629	0.156
Mof_C 	C 	0.89021	0.9192	0.3964	0.074
Mof_H 	H 	0.8864	0.8898	0.4561	0.018
Mof_C 	C 	0.72927	0.8169	0.9682	-0.102
Mof_H 	H 	0.736	0.8452	0.0268	0.062
Mof_C 	C 	0.77036	0.009	0.6456	-0.036
Mof_H 	H 	0.7518	0.0385	0.6124	0.036
Mof_C 	C 	0.61178	0.5754	0.7974	0.08
Mof_H 	H 	0.6076	0.5388	0.7444	-0.003
Mof_C 	C 	0.85311	0.0961	0.5188	-0.15
Mof_H 	H 	0.8691	0.089	0.5738	0.07
Mof_C 	C 	0.85477	0.201	0.2653	0.368
Mof_C 	C 	0.79427	0.0745	0.4365	-0.152
Mof_H 	H 	0.7701	0.0532	0.4366	0.076
Mof_C 	C 	0.83648	0.8519	0.1136	0.047
Mof_H 	H 	0.8436	0.8094	0.1565	0.013
Mof_N 	N 	0.78136	0.8792	0.8773	-0.168
Mof_C 	C 	0.82494	0.9157	0.7419	-0.158
Mof_H 	H 	0.8433	0.8846	0.7736	0.11
Mof_C 	C 	0.86428	0.1434	0.4369	0.068
Mof_H 	H 	0.8877	0.1682	0.4379	0.03
Mof_C 	C 	0.7616	0.9661	0.7336	-0.086
Mof_H 	H 	0.7374	0.9679	0.7596	0.079
Mof_C 	C 	0.87271	0.9485	0.2239	0.163
Mof_C 	C 	0.81535	0.9766	0.9817	-0.061
Mof_H 	H 	0.8081	0.0186	0.9382	0.039
Mof_C 	C 	0.62465	0.6847	0.9537	-0.088
Mof_H 	H 	0.6285	0.7213	0.0069	0.05
Mof_C 	C 	0.86723	0.906	0.3133	-0.169
Mof_H 	H 	0.8479	0.868	0.3178	0.097
Mof_O 	O 	0.54322	0.4949	0.7833	-0.531
Mof_C 	C 	0.59171	0.6392	0.9486	0.047
Mof_H 	H 	0.5739	0.6451	0.9995	0.031
Mof_C 	C 	0.80623	0.0084	0.6067	-0.097
Mof_C 	C 	0.92438	0.0204	0.3027	0.029
Mof_H 	H 	0.9433	0.0594	0.2991	0.031
Mof_O 	O 	0.52823	0.5432	0.9398	-0.242
Mof_C 	C 	0.9013	0.0063	0.2176	-0.197
Mof_H 	H 	0.9051	0.0354	0.1577	0.096
Mof_C 	C 	0.55005	0.5382	0.8616	0.369
Mof_C 	C 	0.8382	0.9939	0.0659	0.051
Mof_H 	H 	0.8465	0.0472	0.0763	-0.007
Mof_O 	O 	0.94347	0.9402	0.5556	-0.451
Mof_C 	C 	0.944	0.9909	0.4814	0.383
Mof_Ce	Ce	-2.40343e-33	-6.57512e-33	0.64079	2.088
Mof_Ce	Ce	0.5	0.5	0.64079	2.297
Mof_C 	C 	0.7495	0.8254	0.3797	0.142
Mof_C 	C 	0.78992	0.7296	0.2953	0.027
Mof_H 	H 	0.796	0.6995	0.2375	0.017
Mof_C 	C 	0.65139	0.9321	0.6351	-0.091
Mof_C 	C 	0.81285	0.724	0.3827	-0.068
Mof_O 	O 	0.61169	0.236	0.7794	-0.468
Mof_H 	H 	0.6028	0.2489	0.7242	0.265
Mof_C 	C 	0.80192	0.7661	0.4687	0.02
Mof_H 	H 	0.8157	0.7603	0.5282	0.043
Mof_O 	O 	0.53534	0.0522	0.9872	-0.496
Mof_C 	C 	0.8481	0.675	0.3784	0.115
Mof_C 	C 	0.66714	0.9579	0.1532	0.078
Mof_H 	H 	0.6436	0.9525	0.1237	0.016
Mof_C 	C 	0.65845	0.1545	0.8545	-0.149
Mof_C 	C 	0.85493	0.6185	0.3014	-0.185
Mof_H 	H 	0.8368	0.6096	0.2518	0.095
Mof_C 	C 	0.58093	0.9764	0.8912	-0.103
Mof_C 	C 	0.91497	0.5857	0.3697	-0.182
Mof_C 	C 	0.71089	0.9204	0.2831	0.129
Mof_C 	C 	0.68245	0.0588	0.0189	0.07
Mof_O 	O 	0.66271	0.2077	0.6862	-0.297
Mof_C 	C 	0.75862	0.7791	0.2945	-0.155
Mof_H 	H 	0.7436	0.7815	0.2369	0.094
Mof_C 	C 	0.68595	0.8344	0.5298	-0.152
Mof_H 	H 	0.6939	0.7809	0.5185	0.092
Mof_C 	C 	0.69397	0.1209	0.8542	0.059
Mof_H 	H 	0.7099	0.1294	0.7993	0.017
Mof_C 	C 	0.69658	0.8959	0.4629	0.132
Mof_C 	C 	0.60979	0.9192	0.8964	0.086
Mof_H 	H 	0.6136	0.8898	0.9561	0.023
Mof_C 	C 	0.77073	0.8169	0.4682	-0.146
Mof_H 	H 	0.764	0.8452	0.5268	0.094
Mof_C 	C 	0.72964	0.009	0.1456	-0.041
Mof_H 	H 	0.7482	0.0385	0.1124	0.031
Mof_C 	C 	0.88822	0.5754	0.2974	0.107
Mof_H 	H 	0.8924	0.5388	0.2444	-0.012
Mof_C 	C 	0.64689	0.0961	0.0188	-0.194
Mof_H 	H 	0.6309	0.089	0.0738	0.078
Mof_C 	C 	0.64523	0.201	0.7653	0.374
Mof_C 	C 	0.70573	0.0745	0.9365	-0.115
Mof_H 	H 	0.7299	0.0532	0.9366	0.071
Mof_C 	C 	0.66352	0.8519	0.6136	0.043
Mof_H 	H 	0.6564	0.8094	0.6565	0.016
Mof_N 	N 	0.71864	0.8792	0.3773	-0.169
Mof_C 	C 	0.67506	0.9157	0.2419	-0.156
Mof_H 	H 	0.6567	0.8846	0.2736	0.107
Mof_C 	C 	0.63572	0.1434	0.9369	0.117
Mof_H 	H 	0.6123	0.1682	0.9379	0.018
Mof_C 	C 	0.7384	0.9661	0.2336	-0.083
Mof_H 	H 	0.7626	0.9679	0.2596	0.077
Mof_C 	C 	0.62729	0.9485	0.7239	0.173
Mof_C 	C 	0.68465	0.9766	0.4817	-0.092
Mof_H 	H 	0.6919	0.0186	0.4382	0.043
Mof_C 	C 	0.87535	0.6847	0.4537	-0.174
Mof_H 	H 	0.8715	0.7213	0.5069	0.1
Mof_C 	C 	0.63277	0.906	0.8133	-0.177
Mof_H 	H 	0.6521	0.868	0.8178	0.101
Mof_O 	O 	0.95678	0.4949	0.2833	-0.508
Mof_C 	C 	0.90829	0.6392	0.4486	0.096
Mof_H 	H 	0.9261	0.6451	0.4995	0.008
Mof_C 	C 	0.69377	0.0084	0.1067	-0.096
Mof_C 	C 	0.57562	0.0204	0.8027	0.042
Mof_H 	H 	0.5567	0.0594	0.7991	0.025
Mof_O 	O 	0.97177	0.5432	0.4398	-0.236
Mof_C 	C 	0.5987	0.0063	0.7176	-0.207
Mof_H 	H 	0.5949	0.0354	0.6577	0.104
Mof_C 	C 	0.94995	0.5382	0.3616	0.374
Mof_C 	C 	0.6618	0.9939	0.5659	0.09
Mof_H 	H 	0.6535	0.0472	0.5763	-0.012
Mof_O 	O 	0.55653	0.9402	0.0556	-0.492
Mof_C 	C 	0.556	0.9909	0.9814	0.416
Mof_C 	C 	0.2505	0.1746	0.3797	0.138
Mof_C 	C 	0.21008	0.2704	0.2953	0.026
Mof_H 	H 	0.204	0.3005	0.2375	0.017
Mof_C 	C 	0.34861	0.0679	0.6351	-0.015
Mof_C 	C 	0.18715	0.276	0.3827	-0.068
Mof_O 	O 	0.38831	0.764	0.7794	-0.466
Mof_H 	H 	0.3972	0.7511	0.7242	0.266
Mof_C 	C 	0.19808	0.2339	0.4687	0.017
Mof_H 	H 	0.1843	0.2397	0.5282	0.042
Mof_O 	O 	0.46466	0.9478	0.9872	-0.418
Mof_C 	C 	0.1519	0.325	0.3784	0.116
Mof_C 	C 	0.33286	0.0421	0.1532	-0.041
Mof_H 	H 	0.3564	0.0475	0.1237	0.033
Mof_C 	C 	0.34155	0.8455	0.8545	-0.14
Mof_C 	C 	0.14507	0.3815	0.3014	-0.189
Mof_H 	H 	0.1632	0.3904	0.2518	0.096
Mof_C 	C 	0.41907	0.0236	0.8912	-0.149
Mof_C 	C 	0.08503	0.4143	0.3697	-0.191
Mof_C 	C 	0.28911	0.0796	0.2831	0.137
Mof_C 	C 	0.31755	0.9412	0.0189	0.065
Mof_O 	O 	0.33729	0.7923	0.6862	-0.294
Mof_C 	C 	0.24138	0.2209	0.2945	-0.154
Mof_H 	H 	0.2564	0.2185	0.2369	0.094
Mof_C 	C 	0.31405	0.1656	0.5298	-0.138
Mof_H 	H 	0.3061	0.2191	0.5185	0.087
Mof_C 	C 	0.30603	0.8791	0.8542	0.061
Mof_H 	H 	0.2901	0.8706	0.7993	0.026
Mof_C 	C 	0.30342	0.1041	0.4629	0.142
Mof_C 	C 	0.39021	0.0808	0.8964	0.049
Mof_H 	H 	0.3864	0.1102	0.9561	0.031
Mof_C 	C 	0.22927	0.1831	0.4682	-0.147
Mof_H 	H 	0.236	0.1548	0.5268	0.085
Mof_C 	C 	0.27036	0.991	0.1456	0.073
Mof_H 	H 	0.2518	0.9615	0.1124	0.012
Mof_C 	C 	0.11178	0.4246	0.2974	0.11
Mof_H 	H 	0.1076	0.4612	0.2444	-0.015
Mof_C 	C 	0.35311	0.9039	0.0188	-0.171
Mof_H 	H 	0.3691	0.911	0.0738	0.087
Mof_C 	C 	0.35477	0.799	0.7653	0.373
Mof_C 	C 	0.29427	0.9255	0.9365	-0.101
Mof_H 	H 	0.2701	0.9468	0.9366	0.083
Mof_C 	C 	0.33648	0.1481	0.6136	-0.001
Mof_H 	H 	0.3436	0.1906	0.6565	0.031
Mof_N 	N 	0.28136	0.1208	0.3773	-0.179
Mof_C 	C 	0.32494	0.0843	0.2419	-0.136
Mof_H 	H 	0.3433	0.1154	0.2736	0.092
Mof_C 	C 	0.36428	0.8566	0.9369	0.112
Mof_H 	H 	0.3877	0.8318	0.9379	0.024
Mof_C 	C 	0.2616	0.0339	0.2336	-0.213
Mof_H 	H 	0.2374	0.0321	0.2596	0.097
Mof_C 	C 	0.37271	0.0515	0.7239	0.025
Mof_C 	C 	0.31535	0.0234	0.4817	-0.182
Mof_H 	H 	0.3081	0.9814	0.4382	0.128
Mof_C 	C 	0.12465	0.3153	0.4537	-0.179
Mof_H 	H 	0.1285	0.2787	0.5069	0.1
Mof_C 	C 	0.36723	0.094	0.8133	-0.119
Mof_H 	H 	0.3479	0.132	0.8178	0.075
Mof_O 	O 	0.04322	0.5051	0.2833	-0.526
Mof_C 	C 	0.09171	0.3608	0.4486	0.099
Mof_H 	H 	0.0739	0.3549	0.4995	0.001
Mof_C 	C 	0.30623	0.9916	0.1067	-0.025
Mof_C 	C 	0.42438	0.9796	0.8027	0.086
Mof_H 	H 	0.4433	0.9406	0.7991	0.026
Mof_O 	O 	0.02823	0.4568	0.4398	-0.262
Mof_C 	C 	0.4013	0.9937	0.7176	-0.074
Mof_H 	H 	0.4051	0.9646	0.6577	0.075
Mof_C 	C 	0.05005	0.4618	0.3616	0.376
Mof_C 	C 	0.3382	0.0061	0.5659	-0.059
Mof_H 	H 	0.3465	0.9528	0.5763	0.086
Mof_O 	O 	0.44347	0.0598	0.0556	-0.492
Mof_C 	C 	0.444	0.0091	0.9814	0.329
Mof_C 	C 	0.2495	0.6746	0.3797	0.141
Mof_C 	C 	0.28992	0.7704	0.2953	0.029
Mof_H 	H 	0.296	0.8005	0.2375	0.017
Mof_C 	C 	0.15139	0.5679	0.6351	-0.054
Mof_C 	C 	0.31285	0.776	0.3827	-0.07
Mof_O 	O 	0.11169	0.264	0.7794	-0.469
Mof_H 	H 	0.1028	0.2511	0.7242	0.264
Mof_C 	C 	0.30192	0.7339	0.4687	0.021
Mof_H 	H 	0.3157	0.7397	0.5282	0.042
Mof_O 	O 	0.03534	0.4478	0.9872	-0.472
Mof_C 	C 	0.3481	0.825	0.3784	0.122
Mof_C 	C 	0.16714	0.5421	0.1532	0.018
Mof_H 	H 	0.1436	0.5475	0.1237	0.024
Mof_C 	C 	0.15845	0.3455	0.8545	-0.146
Mof_C 	C 	0.35493	0.8815	0.3014	-0.191
Mof_H 	H 	0.3368	0.8904	0.2518	0.102
Mof_C 	C 	0.08093	0.5236	0.8912	-0.131
Mof_C 	C 	0.41497	0.9143	0.3697	-0.199
Mof_C 	C 	0.21089	0.5796	0.2831	0.133
Mof_C 	C 	0.18245	0.4412	0.0189	0.068
Mof_O 	O 	0.16271	0.2923	0.6862	-0.296
Mof_C 	C 	0.25862	0.7209	0.2945	-0.156
Mof_H 	H 	0.2436	0.7185	0.2369	0.095
Mof_C 	C 	0.18595	0.6656	0.5298	-0.145
Mof_H 	H 	0.1939	0.7191	0.5185	0.09
Mof_C 	C 	0.19397	0.3791	0.8542	0.061
Mof_H 	H 	0.2099	0.3706	0.7993	0.021
Mof_C 	C 	0.19658	0.6041	0.4629	0.137
Mof_C 	C 	0.10979	0.5808	0.8964	0.071
Mof_H 	H 	0.1136	0.6102	0.9561	0.025
Mof_C 	C 	0.27073	0.6831	0.4682	-0.148
Mof_H 	H 	0.264	0.6548	0.5268	0.09
Mof_C 	C 	0.22964	0.491	0.1456	0.016
Mof_H 	H 	0.2482	0.4615	0.1124	0.021
Mof_C 	C 	0.38822	0.9246	0.2974	0.124
Mof_H 	H 	0.3924	0.9612	0.2444	-0.003
Mof_C 	C 	0.14689	0.4039	0.0188	-0.184
Mof_H 	H 	0.1309	0.411	0.0738	0.082
Mof_C 	C 	0.14523	0.299	0.7653	0.374
Mof_C 	C 	0.20573	0.4255	0.9365	-0.108
Mof_H 	H 	0.2299	0.4468	0.9366	0.077
Mof_C 	C 	0.16352	0.6481	0.6136	0.021
Mof_H 	H 	0.1564	0.6906	0.6565	0.023
Mof_N 	N 	0.21864	0.6208	0.3773	-0.174
Mof_C 	C 	0.17506	0.5843	0.2419	-0.146
Mof_H 	H 	0.1567	0.6154	0.2736	0.099
Mof_C 	C 	0.13572	0.3566	0.9369	0.117
Mof_H 	H 	0.1123	0.3318	0.9379	0.018
Mof_C 	C 	0.2384	0.5339	0.2336	-0.148
Mof_H 	H 	0.2626	0.5321	0.2596	0.087
Mof_C 	C 	0.12729	0.5515	0.7239	0.1
Mof_C 	C 	0.18465	0.5234	0.4817	-0.138
Mof_H 	H 	0.1919	0.4814	0.4382	0.086
Mof_C 	C 	0.37535	0.8153	0.4537	-0.184
Mof_H 	H 	0.3715	0.7787	0.5069	0.103
Mof_C 	C 	0.13277	0.594	0.8133	-0.151
Mof_H 	H 	0.1521	0.632	0.8178	0.089
Mof_O 	O 	0.45678	0.0051	0.2833	-0.561
Mof_C 	C 	0.40829	0.8608	0.4486	0.111
Mof_H 	H 	0.4261	0.8549	0.4995	0.001
Mof_C 	C 	0.19377	0.4916	0.1067	-0.061
Mof_C 	C 	0.07562	0.4796	0.8027	0.067
Mof_H 	H 	0.0567	0.4406	0.7991	0.02
Mof_O 	O 	0.47177	0.9568	0.4398	-0.245
Mof_C 	C 	0.0987	0.4937	0.7176	-0.144
Mof_H 	H 	0.0949	0.4646	0.6577	0.089
Mof_C 	C 	0.44995	0.9618	0.3616	0.427
Mof_C 	C 	0.1618	0.5061	0.5659	0.015
Mof_H 	H 	0.1535	0.4528	0.5763	0.037
Mof_O 	O 	0.05653	0.5598	0.0556	-0.504
Mof_C 	C 	0.056	0.5091	0.9814	0.375
Mof_C 	C 	0.7505	0.3254	0.3797	0.139
Mof_C 	C 	0.71008	0.2296	0.2953	0.023
Mof_H 	H 	0.704	0.1995	0.2375	0.018
Mof_C 	C 	0.84861	0.4321	0.6351	-0.051
Mof_C 	C 	0.68715	0.224	0.3827	-0.065
Mof_O 	O 	0.88831	0.736	0.7794	-0.464
Mof_H 	H 	0.8972	0.7489	0.7242	0.269
Mof_C 	C 	0.69808	0.2661	0.4687	0.015
Mof_H 	H 	0.6843	0.2603	0.5282	0.043
Mof_O 	O 	0.96466	0.5522	0.9872	-0.45
Mof_C 	C 	0.6519	0.175	0.3784	0.108
Mof_C 	C 	0.83286	0.4579	0.1532	0.017
Mof_H 	H 	0.8564	0.4525	0.1237	0.024
Mof_C 	C 	0.84155	0.6545	0.8545	-0.142
Mof_C 	C 	0.64507	0.1185	0.3014	-0.182
Mof_H 	H 	0.6632	0.1096	0.2518	0.089
Mof_C 	C 	0.91907	0.4764	0.8912	-0.121
Mof_C 	C 	0.58503	0.0857	0.3697	-0.17
Mof_C 	C 	0.78911	0.4204	0.2831	0.133
Mof_C 	C 	0.81755	0.5588	0.0189	0.066
Mof_O 	O 	0.83729	0.7077	0.6862	-0.295
Mof_C 	C 	0.74138	0.2791	0.2945	-0.153
Mof_H 	H 	0.7564	0.2815	0.2369	0.093
Mof_C 	C 	0.81405	0.3344	0.5298	-0.144
Mof_H 	H 	0.8061	0.2809	0.5185	0.09
Mof_C 	C 	0.80603	0.6209	0.8542	0.058
Mof_H 	H 	0.7901	0.6294	0.7993	0.022
Mof_C 	C 	0.80342	0.3959	0.4629	0.136
Mof_C 	C 	0.89021	0.4192	0.8964	0.066
Mof_H 	H 	0.8864	0.3898	0.9561	0.028
Mof_C 	C 	0.72927	0.3169	0.4682	-0.145
Mof_H 	H 	0.736	0.3452	0.5268	0.089
Mof_C 	C 	0.77036	0.509	0.1456	0.016
Mof_H 	H 	0.7518	0.5385	0.1124	0.021
Mof_C 	C 	0.61178	0.0754	0.2974	0.092
Mof_H 	H 	0.6076	0.0388	0.2444	-0.022
Mof_C 	C 	0.85311	0.5961	0.0188	-0.18
Mof_H 	H 	0.8691	0.589	0.0738	0.083
Mof_C 	C 	0.85477	0.701	0.7653	0.372
Mof_C 	C 	0.79427	0.5745	0.9365	-0.107
Mof_H 	H 	0.7701	0.5532	0.9366	0.076
Mof_C 	C 	0.83648	0.3519	0.6136	0.02
Mof_H 	H 	0.8436	0.3094	0.6565	0.025
Mof_N 	N 	0.78136	0.3792	0.3773	-0.174
Mof_C 	C 	0.82494	0.4157	0.2419	-0.146
Mof_H 	H 	0.8433	0.3846	0.2736	0.1
Mof_C 	C 	0.86428	0.6434	0.9369	0.112
Mof_H 	H 	0.8877	0.6682	0.9379	0.024
Mof_C 	C 	0.7616	0.4661	0.2336	-0.148
Mof_H 	H 	0.7374	0.4679	0.2596	0.087
Mof_C 	C 	0.87271	0.4485	0.7239	0.097
Mof_C 	C 	0.81535	0.4766	0.4817	-0.137
Mof_H 	H 	0.8081	0.5186	0.4382	0.086
Mof_C 	C 	0.62465	0.1847	0.4537	-0.168
Mof_H 	H 	0.6285	0.2213	0.5069	0.096
Mof_C 	C 	0.86723	0.406	0.8133	-0.145
Mof_H 	H 	0.8479	0.368	0.8178	0.087
Mof_O 	O 	0.54322	0.9949	0.2833	-0.461
Mof_C 	C 	0.59171	0.1392	0.4486	0.082
Mof_H 	H 	0.5739	0.1451	0.4995	0.007
Mof_C 	C 	0.80623	0.5084	0.1067	-0.06
Mof_C 	C 	0.92438	0.5204	0.8027	0.062
Mof_H 	H 	0.9433	0.5594	0.7991	0.032
Mof_O 	O 	0.52823	0.0432	0.4398	-0.253
Mof_C 	C 	0.9013	0.5063	0.7176	-0.136
Mof_H 	H 	0.9051	0.5354	0.6577	0.09
Mof_C 	C 	0.55005	0.0382	0.3616	0.319
Mof_C 	C 	0.8382	0.4939	0.5659	0.014
Mof_H 	H 	0.8465	0.5472	0.5763	0.038
Mof_O 	O 	0.94347	0.4402	0.0556	-0.491
Mof_C 	C 	0.944	0.4909	0.9814	0.372
Mof_Ce	Ce	-1.44953e-33	0.5	0.14079	2.165
Mof_Ce	Ce	0.5	-8.2189e-34	0.14079	2.123
_end
