data_functionalizedCrystal
_audit_creation_method	'EQeq! by Chris Wilmer'
_symmetry_space_group_name_H-M	'P1'
_symmetry_Int_Tables_number	1
_symmetry_cell_setting	triclinic
loop_
_symmetry_equiv_pos_as_xyz
  x,y,z
_cell_length_a	25.5147
_cell_length_b	13.4137
_cell_length_c	14.6329
_cell_angle_alpha	90
_cell_angle_beta	101.966
_cell_angle_gamma	90
loop_
_atom_site_label
_atom_site_type_symbol
_atom_site_fract_x
_atom_site_fract_y
_atom_site_fract_z
_atom_site_charge
Mof_Ce	Ce	0.32595	0.30895	0.54866	2.318
Mof_O 	O 	0.2238	0.3468	0.4479	-0.671
Mof_O 	O 	0.2891	0.4507	0.4429	-0.547
Mof_O 	O 	0.2628	0.6444	0.1451	-0.619
Mof_O 	O 	0.1871	0.7293	0.1056	-0.552
Mof_O 	O 	0.4099	0.3447	0.4767	-0.342
Mof_O 	O 	0.4117	0.2008	0.5395	-0.338
Mof_O 	O 	0.4718	0.2335	0.4638	-0.139
Mof_N 	N 	0.4314	0.2594	0.4941	0.078
Mof_C 	C 	0.242	0.4256	0.4179	0.484
Mof_C 	C 	0.2044	0.4866	0.3477	-0.214
Mof_C 	C 	0.2263	0.5483	0.2881	0.131
Mof_H 	H 	0.2632	0.5532	0.295	-0.017
Mof_C 	C 	0.1927	0.6026	0.2183	-0.218
Mof_C 	C 	0.1376	0.5967	0.2107	0.064
Mof_H 	H 	0.1154	0.6341	0.165	0.031
Mof_C 	C 	0.1148	0.5373	0.2687	-0.08
Mof_C 	C 	0.1495	0.4825	0.3398	0.06
Mof_H 	H 	0.1351	0.4437	0.3812	-0.015
Mof_C 	C 	0.2157	0.6635	0.1515	0.541
Mof_C 	C 	0.0559	0.5344	0.2606	0.044
Mof_C 	C 	0.033	0.5323	0.3371	-0.059
Mof_H 	H 	0.0546	0.5308	0.3967	0.059
Mof_C 	C 	0.9776	0.5325	0.3261	-0.068
Mof_H 	H 	0.9627	0.5313	0.3789	0.067
Mof_Ce	Ce	0.82595	0.80895	0.54866	2.317
Mof_O 	O 	0.7238	0.8468	0.4479	-0.67
Mof_O 	O 	0.7891	0.9507	0.4429	-0.546
Mof_O 	O 	0.7628	0.1444	0.1451	-0.618
Mof_O 	O 	0.6871	0.2293	0.1056	-0.554
Mof_O 	O 	0.9099	0.8447	0.4767	-0.341
Mof_O 	O 	0.9117	0.7008	0.5395	-0.338
Mof_O 	O 	0.9718	0.7335	0.4638	-0.139
Mof_N 	N 	0.9314	0.7594	0.4941	0.078
Mof_C 	C 	0.742	0.9256	0.4179	0.484
Mof_C 	C 	0.7044	0.9866	0.3477	-0.213
Mof_C 	C 	0.7263	0.0483	0.2881	0.129
Mof_H 	H 	0.7632	0.0532	0.295	-0.017
Mof_C 	C 	0.6927	0.1026	0.2183	-0.219
Mof_C 	C 	0.6376	0.0967	0.2107	0.065
Mof_H 	H 	0.6154	0.1341	0.165	0.03
Mof_C 	C 	0.6148	0.0373	0.2687	-0.083
Mof_C 	C 	0.6495	0.9825	0.3398	0.063
Mof_H 	H 	0.6351	0.9437	0.3812	-0.016
Mof_C 	C 	0.7157	0.1635	0.1515	0.541
Mof_C 	C 	0.5559	0.0344	0.2606	0.046
Mof_C 	C 	0.533	0.0323	0.3371	-0.062
Mof_H 	H 	0.5546	0.0308	0.3967	0.06
Mof_C 	C 	0.4776	0.0325	0.3261	-0.065
Mof_H 	H 	0.4627	0.0313	0.3789	0.066
Mof_Ce	Ce	0.67405	0.30895	0.95134	2.324
Mof_O 	O 	0.7762	0.3468	0.0521	-0.67
Mof_O 	O 	0.7109	0.4507	0.0571	-0.547
Mof_O 	O 	0.7372	0.6444	0.3549	-0.618
Mof_O 	O 	0.8129	0.7293	0.3944	-0.553
Mof_O 	O 	0.5901	0.3447	0.0233	-0.342
Mof_O 	O 	0.5883	0.2008	0.9605	-0.336
Mof_O 	O 	0.5282	0.2335	0.0362	-0.139
Mof_N 	N 	0.5686	0.2594	0.0059	0.076
Mof_C 	C 	0.758	0.4256	0.0821	0.484
Mof_C 	C 	0.7956	0.4866	0.1523	-0.214
Mof_C 	C 	0.7737	0.5483	0.2119	0.131
Mof_H 	H 	0.7368	0.5532	0.205	-0.017
Mof_C 	C 	0.8073	0.6026	0.2817	-0.219
Mof_C 	C 	0.8624	0.5967	0.2893	0.065
Mof_H 	H 	0.8846	0.6341	0.335	0.03
Mof_C 	C 	0.8852	0.5373	0.2313	-0.082
Mof_C 	C 	0.8505	0.4825	0.1602	0.062
Mof_H 	H 	0.8649	0.4437	0.1188	-0.016
Mof_C 	C 	0.7843	0.6635	0.3485	0.542
Mof_C 	C 	0.9441	0.5344	0.2394	0.049
Mof_C 	C 	0.967	0.5323	0.1629	-0.066
Mof_H 	H 	0.9454	0.5308	0.1033	0.061
Mof_C 	C 	0.0224	0.5325	0.1739	-0.061
Mof_H 	H 	0.0373	0.5313	0.1211	0.064
Mof_Ce	Ce	0.17405	0.80895	0.95134	2.308
Mof_O 	O 	0.2762	0.8468	0.0521	-0.669
Mof_O 	O 	0.2109	0.9507	0.0571	-0.543
Mof_O 	O 	0.2372	0.1444	0.3549	-0.618
Mof_O 	O 	0.3129	0.2293	0.3944	-0.553
Mof_O 	O 	0.0901	0.8447	0.0233	-0.339
Mof_O 	O 	0.0883	0.7008	0.9605	-0.339
Mof_O 	O 	0.0282	0.7335	0.0362	-0.138
Mof_N 	N 	0.0686	0.7594	0.0059	0.079
Mof_C 	C 	0.258	0.9256	0.0821	0.483
Mof_C 	C 	0.2956	0.9866	0.1523	-0.212
Mof_C 	C 	0.2737	0.0483	0.2119	0.127
Mof_H 	H 	0.2368	0.0532	0.205	-0.017
Mof_C 	C 	0.3073	0.1026	0.2817	-0.219
Mof_C 	C 	0.3624	0.0967	0.2893	0.065
Mof_H 	H 	0.3846	0.1341	0.335	0.03
Mof_C 	C 	0.3852	0.0373	0.2313	-0.084
Mof_C 	C 	0.3505	0.9825	0.1602	0.063
Mof_H 	H 	0.3649	0.9437	0.1188	-0.015
Mof_C 	C 	0.2843	0.1635	0.3485	0.541
Mof_C 	C 	0.4441	0.0344	0.2394	0.046
Mof_C 	C 	0.467	0.0323	0.1629	-0.063
Mof_H 	H 	0.4454	0.0308	0.1033	0.06
Mof_C 	C 	0.5224	0.0325	0.1739	-0.065
Mof_H 	H 	0.5373	0.0313	0.1211	0.065
Mof_Ce	Ce	0.67405	0.69105	0.45134	2.319
Mof_O 	O 	0.7762	0.6532	0.5521	-0.67
Mof_O 	O 	0.7109	0.5493	0.5571	-0.546
Mof_O 	O 	0.7372	0.3556	0.8549	-0.618
Mof_O 	O 	0.8129	0.2707	0.8944	-0.551
Mof_O 	O 	0.5901	0.6553	0.5233	-0.341
Mof_O 	O 	0.5883	0.7992	0.4605	-0.338
Mof_O 	O 	0.5282	0.7665	0.5362	-0.139
Mof_N 	N 	0.5686	0.7406	0.5059	0.078
Mof_C 	C 	0.758	0.5744	0.5821	0.484
Mof_C 	C 	0.7956	0.5134	0.6523	-0.214
Mof_C 	C 	0.7737	0.4517	0.7119	0.131
Mof_H 	H 	0.7368	0.4468	0.705	-0.017
Mof_C 	C 	0.8073	0.3974	0.7817	-0.218
Mof_C 	C 	0.8624	0.4033	0.7893	0.064
Mof_H 	H 	0.8846	0.3659	0.835	0.031
Mof_C 	C 	0.8852	0.4627	0.7313	-0.08
Mof_C 	C 	0.8505	0.5175	0.6602	0.06
Mof_H 	H 	0.8649	0.5563	0.6188	-0.015
Mof_C 	C 	0.7843	0.3365	0.8485	0.541
Mof_C 	C 	0.9441	0.4656	0.7394	0.044
Mof_C 	C 	0.967	0.4677	0.6629	-0.059
Mof_H 	H 	0.9454	0.4692	0.6033	0.059
Mof_C 	C 	0.0224	0.4675	0.6739	-0.068
Mof_H 	H 	0.0373	0.4687	0.6211	0.067
Mof_Ce	Ce	0.17405	0.19105	0.45134	2.317
Mof_O 	O 	0.2762	0.1532	0.5521	-0.67
Mof_O 	O 	0.2109	0.0493	0.5571	-0.546
Mof_O 	O 	0.2372	0.8556	0.8549	-0.618
Mof_O 	O 	0.3129	0.7707	0.8944	-0.554
Mof_O 	O 	0.0901	0.1553	0.5233	-0.341
Mof_O 	O 	0.0883	0.2992	0.4605	-0.338
Mof_O 	O 	0.0282	0.2665	0.5362	-0.139
Mof_N 	N 	0.0686	0.2406	0.5059	0.078
Mof_C 	C 	0.258	0.0744	0.5821	0.484
Mof_C 	C 	0.2956	0.0134	0.6523	-0.213
Mof_C 	C 	0.2737	0.9517	0.7119	0.129
Mof_H 	H 	0.2368	0.9468	0.705	-0.017
Mof_C 	C 	0.3073	0.8974	0.7817	-0.219
Mof_C 	C 	0.3624	0.9033	0.7893	0.065
Mof_H 	H 	0.3846	0.8659	0.835	0.03
Mof_C 	C 	0.3852	0.9627	0.7313	-0.083
Mof_C 	C 	0.3505	0.0175	0.6602	0.063
Mof_H 	H 	0.3649	0.0563	0.6188	-0.016
Mof_C 	C 	0.2843	0.8365	0.8485	0.541
Mof_C 	C 	0.4441	0.9656	0.7394	0.046
Mof_C 	C 	0.467	0.9677	0.6629	-0.062
Mof_H 	H 	0.4454	0.9692	0.6033	0.06
Mof_C 	C 	0.5224	0.9675	0.6739	-0.065
Mof_H 	H 	0.5373	0.9687	0.6211	0.066
Mof_Ce	Ce	0.32595	0.69105	0.04866	2.324
Mof_O 	O 	0.2238	0.6532	0.9479	-0.67
Mof_O 	O 	0.2891	0.5493	0.9429	-0.547
Mof_O 	O 	0.2628	0.3556	0.6451	-0.618
Mof_O 	O 	0.1871	0.2707	0.6056	-0.553
Mof_O 	O 	0.4099	0.6553	0.9767	-0.342
Mof_O 	O 	0.4117	0.7992	0.0395	-0.336
Mof_O 	O 	0.4718	0.7665	0.9638	-0.139
Mof_N 	N 	0.4314	0.7406	0.9941	0.076
Mof_C 	C 	0.242	0.5744	0.9179	0.484
Mof_C 	C 	0.2044	0.5134	0.8477	-0.214
Mof_C 	C 	0.2263	0.4517	0.7881	0.131
Mof_H 	H 	0.2632	0.4468	0.795	-0.017
Mof_C 	C 	0.1927	0.3974	0.7183	-0.219
Mof_C 	C 	0.1376	0.4033	0.7107	0.065
Mof_H 	H 	0.1154	0.3659	0.665	0.03
Mof_C 	C 	0.1148	0.4627	0.7687	-0.082
Mof_C 	C 	0.1495	0.5175	0.8398	0.062
Mof_H 	H 	0.1351	0.5563	0.8812	-0.016
Mof_C 	C 	0.2157	0.3365	0.6515	0.542
Mof_C 	C 	0.0559	0.4656	0.7606	0.049
Mof_C 	C 	0.033	0.4677	0.8371	-0.066
Mof_H 	H 	0.0546	0.4692	0.8967	0.061
Mof_C 	C 	0.9776	0.4675	0.8261	-0.061
Mof_H 	H 	0.9627	0.4687	0.8789	0.064
Mof_Ce	Ce	0.82595	0.19105	0.04866	2.308
Mof_O 	O 	0.7238	0.1532	0.9479	-0.669
Mof_O 	O 	0.7891	0.0493	0.9429	-0.543
Mof_O 	O 	0.7628	0.8556	0.6451	-0.618
Mof_O 	O 	0.6871	0.7707	0.6056	-0.553
Mof_O 	O 	0.9099	0.1553	0.9767	-0.339
Mof_O 	O 	0.9117	0.2992	0.0395	-0.339
Mof_O 	O 	0.9718	0.2665	0.9638	-0.138
Mof_N 	N 	0.9314	0.2406	0.9941	0.079
Mof_C 	C 	0.742	0.0744	0.9179	0.483
Mof_C 	C 	0.7044	0.0134	0.8477	-0.212
Mof_C 	C 	0.7263	0.9517	0.7881	0.127
Mof_H 	H 	0.7632	0.9468	0.795	-0.017
Mof_C 	C 	0.6927	0.8974	0.7183	-0.219
Mof_C 	C 	0.6376	0.9033	0.7107	0.065
Mof_H 	H 	0.6154	0.8659	0.665	0.03
Mof_C 	C 	0.6148	0.9627	0.7687	-0.084
Mof_C 	C 	0.6495	0.0175	0.8398	0.063
Mof_H 	H 	0.6351	0.0563	0.8812	-0.015
Mof_C 	C 	0.7157	0.8365	0.6515	0.541
Mof_C 	C 	0.5559	0.9656	0.7606	0.046
Mof_C 	C 	0.533	0.9677	0.8371	-0.063
Mof_H 	H 	0.5546	0.9692	0.8967	0.06
Mof_C 	C 	0.4776	0.9675	0.8261	-0.065
Mof_H 	H 	0.4627	0.9687	0.8789	0.065
_end
