data_functionalizedCrystal
_audit_creation_method	'EQeq! by Chris Wilmer'
_symmetry_space_group_name_H-M	'P1'
_symmetry_Int_Tables_number	1
_symmetry_cell_setting	triclinic
loop_
_symmetry_equiv_pos_as_xyz
  x,y,z
_cell_length_a	10.3246
_cell_length_b	11.3359
_cell_length_c	22.316
_cell_angle_alpha	90
_cell_angle_beta	97.29
_cell_angle_gamma	90
loop_
_atom_site_label
_atom_site_type_symbol
_atom_site_fract_x
_atom_site_fract_y
_atom_site_fract_z
_atom_site_charge
Mof_Nd	Nd	0.8909	0.30963	0.77457	2.544
Mof_Nd	Nd	0.23839	0.58259	0.9355	2.196
Mof_Nd	Nd	0.6091	0.80963	0.72543	2.541
Mof_Nd	Nd	0.26161	0.08259	0.5645	2.192
Mof_Nd	Nd	0.1091	0.69037	0.22543	2.543
Mof_Nd	Nd	0.76161	0.41741	0.0645	2.195
Mof_Nd	Nd	0.3909	0.19037	0.27457	2.541
Mof_Nd	Nd	0.73839	0.91741	0.4355	2.192
Mof_H 	H 	0.3846	0.3767	0.8383	0.131
Mof_H 	H 	0.1637	0.5228	0.6647	0.124
Mof_H 	H 	0.5206	0.281	0.7102	0.227
Mof_H 	H 	0.3855	0.3166	0.7299	0.224
Mof_H 	H 	0.4803	0.4143	0.7114	0.233
Mof_H 	H 	0.3784	0.5887	0.5856	0.209
Mof_H 	H 	0.2349	0.6369	0.5761	0.221
Mof_H 	H 	0.3523	0.7244	0.5906	0.205
Mof_H 	H 	0.1154	0.8767	0.6617	0.131
Mof_H 	H 	0.3363	0.0228	0.8353	0.123
Mof_H 	H 	0.9794	0.781	0.7898	0.221
Mof_H 	H 	0.1145	0.8166	0.7701	0.22
Mof_H 	H 	0.0197	0.9143	0.7886	0.229
Mof_H 	H 	0.1216	0.0887	0.9144	0.208
Mof_H 	H 	0.2651	0.1369	0.9239	0.221
Mof_H 	H 	0.1477	0.2244	0.9094	0.204
Mof_H 	H 	0.6154	0.6233	0.1617	0.131
Mof_H 	H 	0.8363	0.4772	0.3353	0.124
Mof_H 	H 	0.4794	0.719	0.2898	0.227
Mof_H 	H 	0.6145	0.6834	0.2701	0.224
Mof_H 	H 	0.5197	0.5857	0.2886	0.233
Mof_H 	H 	0.6216	0.4113	0.4144	0.209
Mof_H 	H 	0.7651	0.3631	0.4239	0.221
Mof_H 	H 	0.6477	0.2756	0.4094	0.205
Mof_H 	H 	0.8846	0.1233	0.3383	0.131
Mof_H 	H 	0.6637	0.9772	0.1647	0.123
Mof_H 	H 	0.0206	0.219	0.2102	0.221
Mof_H 	H 	0.8855	0.1834	0.2299	0.22
Mof_H 	H 	0.9803	0.0857	0.2114	0.229
Mof_H 	H 	0.8784	0.9113	0.0856	0.208
Mof_H 	H 	0.7349	0.8631	0.0761	0.221
Mof_H 	H 	0.8523	0.7756	0.0906	0.204
Mof_C 	C 	0.6738	0.3508	0.8767	-0.101
Mof_C 	C 	0.5515	0.37	0.8938	-0.043
Mof_C 	C 	0.5373	0.3483	0.7953	0.315
Mof_C 	C 	0.805	0.3489	0.9128	0.476
Mof_C 	C 	0.4939	0.3838	0.9513	0.458
Mof_C 	C 	0.4753	0.3392	0.7309	-0.752
Mof_C 	C 	0.7356	0.5419	0.715	0.257
Mof_C 	C 	0.7958	0.5879	0.7769	0.271
Mof_C 	C 	0.3472	0.6412	0.7616	-0.109
Mof_C 	C 	0.242	0.5682	0.7472	-0.047
Mof_C 	C 	0.3124	0.6335	0.664	0.29
Mof_C 	C 	0.4182	0.6819	0.8196	0.465
Mof_C 	C 	0.1607	0.4896	0.782	0.453
Mof_C 	C 	0.3202	0.6471	0.5982	-0.721
Mof_C 	C 	0.8262	0.8508	0.6233	-0.099
Mof_C 	C 	0.9485	0.87	0.6062	-0.047
Mof_C 	C 	0.9627	0.8483	0.7047	0.308
Mof_C 	C 	0.695	0.8489	0.5872	0.475
Mof_C 	C 	0.0061	0.8838	0.5487	0.463
Mof_C 	C 	0.0247	0.8392	0.7691	-0.736
Mof_C 	C 	0.7644	0.0419	0.785	0.259
Mof_C 	C 	0.7042	0.0879	0.7231	0.271
Mof_C 	C 	0.1528	0.1412	0.7384	-0.108
Mof_C 	C 	0.258	0.0682	0.7528	-0.048
Mof_C 	C 	0.1876	0.1335	0.836	0.289
Mof_C 	C 	0.0818	0.1819	0.6804	0.463
Mof_C 	C 	0.3393	0.9896	0.718	0.454
Mof_C 	C 	0.1798	0.1471	0.9018	-0.719
Mof_C 	C 	0.3262	0.6492	0.1233	-0.101
Mof_C 	C 	0.4485	0.63	0.1062	-0.043
Mof_C 	C 	0.4627	0.6517	0.2047	0.315
Mof_C 	C 	0.195	0.6511	0.0872	0.476
Mof_C 	C 	0.5061	0.6162	0.0487	0.458
Mof_C 	C 	0.5247	0.6608	0.2691	-0.752
Mof_C 	C 	0.2644	0.4581	0.285	0.257
Mof_C 	C 	0.2042	0.4121	0.2231	0.271
Mof_C 	C 	0.6528	0.3588	0.2384	-0.109
Mof_C 	C 	0.758	0.4318	0.2528	-0.047
Mof_C 	C 	0.6876	0.3665	0.336	0.29
Mof_C 	C 	0.5818	0.3181	0.1804	0.465
Mof_C 	C 	0.8393	0.5104	0.218	0.453
Mof_C 	C 	0.6798	0.3529	0.4018	-0.721
Mof_C 	C 	0.1738	0.1492	0.3767	-0.099
Mof_C 	C 	0.0515	0.13	0.3938	-0.047
Mof_C 	C 	0.0373	0.1517	0.2953	0.308
Mof_C 	C 	0.305	0.1511	0.4128	0.475
Mof_C 	C 	0.9939	0.1162	0.4513	0.463
Mof_C 	C 	0.9753	0.1608	0.2309	-0.736
Mof_C 	C 	0.2356	0.9581	0.215	0.259
Mof_C 	C 	0.2958	0.9121	0.2769	0.271
Mof_C 	C 	0.8472	0.8588	0.2616	-0.108
Mof_C 	C 	0.742	0.9318	0.2472	-0.048
Mof_C 	C 	0.8124	0.8665	0.164	0.289
Mof_C 	C 	0.9182	0.8181	0.3196	0.463
Mof_C 	C 	0.6607	0.0104	0.282	0.454
Mof_C 	C 	0.8202	0.8529	0.0982	-0.719
Mof_N 	N 	0.6629	0.337	0.8155	-0.278
Mof_N 	N 	0.4678	0.3675	0.8414	-0.248
Mof_N 	N 	0.3905	0.6812	0.7091	-0.278
Mof_N 	N 	0.2229	0.5635	0.686	-0.24
Mof_N 	N 	0.8371	0.837	0.6845	-0.277
Mof_N 	N 	0.0322	0.8675	0.6586	-0.244
Mof_N 	N 	0.1095	0.1812	0.7909	-0.279
Mof_N 	N 	0.2771	0.0635	0.814	-0.24
Mof_N 	N 	0.3371	0.663	0.1845	-0.278
Mof_N 	N 	0.5322	0.6325	0.1586	-0.248
Mof_N 	N 	0.6095	0.3188	0.2909	-0.278
Mof_N 	N 	0.7771	0.4365	0.314	-0.24
Mof_N 	N 	0.1629	0.163	0.3155	-0.277
Mof_N 	N 	0.9678	0.1325	0.3414	-0.244
Mof_N 	N 	0.8905	0.8188	0.2091	-0.279
Mof_N 	N 	0.7229	0.9365	0.186	-0.24
Mof_O 	O 	0.9001	0.3211	0.88456	-0.586
Mof_O 	O 	0.8198	0.3748	0.96764	-0.641
Mof_O 	O 	0.5627	0.3657	0.00123	-0.536
Mof_O 	O 	0.3755	0.4105	0.94561	-0.553
Mof_O 	O 	0.7681	0.4414	0.69893	-0.469
Mof_O 	O 	0.6578	0.6092	0.68428	-0.476
Mof_O 	O 	0.8683	0.5188	0.80961	-0.493
Mof_O 	O 	0.7689	0.6914	0.79047	-0.496
Mof_O 	O 	0.5219	0.7377	0.81785	-0.515
Mof_O 	O 	0.3751	0.6587	0.8684	-0.574
Mof_O 	O 	0.1854	0.4812	0.83817	-0.589
Mof_O 	O 	0.0736	0.4356	0.75031	-0.549
Mof_O 	O 	0.5999	0.8211	0.61544	-0.586
Mof_O 	O 	0.6802	0.8748	0.53236	-0.641
Mof_O 	O 	0.9373	0.8657	0.49877	-0.539
Mof_O 	O 	0.1245	0.9105	0.55439	-0.553
Mof_O 	O 	0.7319	0.9414	0.80107	-0.47
Mof_O 	O 	0.8422	0.1092	0.81572	-0.476
Mof_O 	O 	0.6317	0.0188	0.69039	-0.493
Mof_O 	O 	0.7311	0.1914	0.70953	-0.496
Mof_O 	O 	0.9781	0.2377	0.68215	-0.514
Mof_O 	O 	0.1249	0.1587	0.6316	-0.574
Mof_O 	O 	0.3146	0.9812	0.66183	-0.588
Mof_O 	O 	0.4264	0.9356	0.74969	-0.549
Mof_O 	O 	0.0999	0.6789	0.11544	-0.586
Mof_O 	O 	0.1802	0.6252	0.03236	-0.641
Mof_O 	O 	0.4373	0.6343	0.99877	-0.536
Mof_O 	O 	0.6245	0.5895	0.05439	-0.553
Mof_O 	O 	0.2319	0.5586	0.30107	-0.469
Mof_O 	O 	0.3422	0.3908	0.31572	-0.476
Mof_O 	O 	0.1317	0.4812	0.19039	-0.493
Mof_O 	O 	0.2311	0.3086	0.20953	-0.496
Mof_O 	O 	0.4781	0.2623	0.18215	-0.515
Mof_O 	O 	0.6249	0.3413	0.1316	-0.574
Mof_O 	O 	0.8146	0.5188	0.16183	-0.589
Mof_O 	O 	0.9264	0.5644	0.24969	-0.549
Mof_O 	O 	0.4001	0.1789	0.38456	-0.586
Mof_O 	O 	0.3198	0.1252	0.46764	-0.641
Mof_O 	O 	0.0627	0.1343	0.50123	-0.539
Mof_O 	O 	0.8755	0.0895	0.44561	-0.553
Mof_O 	O 	0.2681	0.0586	0.19893	-0.47
Mof_O 	O 	0.1578	0.8908	0.18428	-0.476
Mof_O 	O 	0.3683	0.9812	0.30961	-0.493
Mof_O 	O 	0.2689	0.8086	0.29047	-0.496
Mof_O 	O 	0.0219	0.7623	0.31785	-0.514
Mof_O 	O 	0.8751	0.8413	0.3684	-0.574
Mof_O 	O 	0.6854	0.0188	0.33817	-0.588
Mof_O 	O 	0.5736	0.0644	0.25031	-0.549
_end
