data_functionalizedCrystal
_audit_creation_method	'EQeq! by Chris Wilmer'
_symmetry_space_group_name_H-M	'P1'
_symmetry_Int_Tables_number	1
_symmetry_cell_setting	triclinic
loop_
_symmetry_equiv_pos_as_xyz
  x,y,z
_cell_length_a	9.0553
_cell_length_b	9.0553
_cell_length_c	10.8872
_cell_angle_alpha	90
_cell_angle_beta	90
_cell_angle_gamma	120
loop_
_atom_site_label
_atom_site_type_symbol
_atom_site_fract_x
_atom_site_fract_y
_atom_site_fract_z
_atom_site_charge
Mof_Mn	Mn	0.03	0	0.5	0.884
Mof_Mn	Mn	0.97	0.97	0.83333	1.095
Mof_Mn	Mn	7.3339e-19	0.03	0.16667	0.881
Mof_H 	H 	0.374	0.247	0.597	0.244
Mof_H 	H 	0.5888	0.5145	0.5105	0.111
Mof_H 	H 	0.873	0.626	0.93033	0.25
Mof_H 	H 	0.9257	0.4112	0.84383	0.096
Mof_H 	H 	0.753	0.127	0.26367	0.245
Mof_H 	H 	0.4855	0.0743	0.17717	0.097
Mof_H 	H 	0.127	0.753	0.403	0.246
Mof_H 	H 	0.0743	0.4855	0.4895	0.096
Mof_H 	H 	0.247	0.374	0.06967	0.249
Mof_H 	H 	0.5145	0.5888	0.15617	0.115
Mof_H 	H 	0.626	0.873	0.73633	0.257
Mof_H 	H 	0.4112	0.9257	0.82283	0.104
Mof_C 	C 	0.3728	0.3235	0.43754	0.206
Mof_C 	C 	0.5233	0.4772	0.43935	-0.203
Mof_C 	C 	0.9507	0.6272	0.77087	0.223
Mof_C 	C 	0.9539	0.4767	0.77268	-0.149
Mof_C 	C 	0.6765	0.0493	0.10421	0.199
Mof_C 	C 	0.5228	0.0461	0.10602	-0.193
Mof_C 	C 	0.0493	0.6765	0.56246	0.199
Mof_C 	C 	0.0461	0.5228	0.56065	-0.19
Mof_C 	C 	0.3235	0.3728	0.22913	0.208
Mof_C 	C 	0.4772	0.5233	0.22732	-0.204
Mof_C 	C 	0.6272	0.9507	0.89579	0.215
Mof_C 	C 	0.4767	0.9539	0.89398	-0.162
Mof_C 	C 	0.7402	0.7402	0.33333	0.31
Mof_C 	C 	0.2693	0.2693	0.33333	-0
Mof_C 	C 	0.5755	0.5755	0.33333	0.05
Mof_C 	C 	-2.46364e-17	0.2598	0.66667	0.276
Mof_C 	C 	-2.46364e-17	0.7307	0.66667	-0.021
Mof_C 	C 	1.21255e-17	0.4245	0.66667	-0.004
Mof_C 	C 	0.2598	0	-0	0.275
Mof_C 	C 	0.7307	0	-0	-0.01
Mof_C 	C 	0.4245	0	-0	0.009
Mof_O 	O 	0.7827	0.8277	0.43051	-0.324
Mof_O 	O 	0.3097	0.2113	0.53484	-0.48
Mof_O 	O 	0.045	0.2173	0.76384	-0.402
Mof_O 	O 	0.9016	0.6903	0.86817	-0.482
Mof_O 	O 	0.1723	0.955	0.09718	-0.302
Mof_O 	O 	0.7887	0.0984	0.20151	-0.453
Mof_O 	O 	0.955	0.1723	0.56949	-0.313
Mof_O 	O 	0.0984	0.7887	0.46516	-0.454
Mof_O 	O 	0.8277	0.7827	0.23616	-0.32
Mof_O 	O 	0.2113	0.3097	0.13183	-0.48
Mof_O 	O 	0.2173	0.045	0.90282	-0.408
Mof_O 	O 	0.6903	0.9016	0.79849	-0.481
Mof_O 	O 	0.1227	0.1227	0.33333	-0.381
Mof_O 	O 	4.88874e-17	0.8773	0.66667	-0.364
Mof_O 	O 	0.8773	0	-0	-0.36
_end
