data_functionalizedCrystal
_audit_creation_method	'EQeq! by Chris Wilmer'
_symmetry_space_group_name_H-M	'P1'
_symmetry_Int_Tables_number	1
_symmetry_cell_setting	triclinic
loop_
_symmetry_equiv_pos_as_xyz
  x,y,z
_cell_length_a	15.116
_cell_length_b	15.393
_cell_length_c	18.225
_cell_angle_alpha	105.732
_cell_angle_beta	106.553
_cell_angle_gamma	104.405
loop_
_atom_site_label
_atom_site_type_symbol
_atom_site_fract_x
_atom_site_fract_y
_atom_site_fract_z
_atom_site_charge
Mof_Zn	Zn	0.19169	0.02708	0.93006	1.248
Mof_O 	O 	0.6249	0.7747	0.472	-0.163
Mof_O 	O 	0.0838	0.0408	0.8053	-0.322
Mof_O 	O 	0.4229	0.567	0.3794	-0.16
Mof_O 	O 	0.3105	0.7527	0.4826	-0.165
Mof_O 	O 	0.0435	0.9688	0.8859	-0.365
Mof_O 	O 	0.4248	0.8835	0.3961	-0.157
Mof_O 	O 	0.2346	0.1633	0.9953	-0.42
Mof_O 	O 	0.1201	0.9547	0.0619	-0.23
Mof_O 	O 	0.2429	0.9754	0.0141	-0.426
Mof_O 	O 	0.1089	0.1443	0.0429	-0.235
Mof_O 	O 	0.2785	0.0101	0.8706	-0.416
Mof_C 	C 	0.4688	0.7669	0.4813	-0.052
Mof_O 	O 	0.1659	0.8627	0.8141	-0.299
Mof_C 	C 	0.3476	0.6611	0.2176	-0.002
Mof_H 	H 	0.3228	0.6392	0.1604	0.038
Mof_C 	C 	0.4036	0.7848	0.3458	0.117
Mof_C 	C 	0.6116	0.8268	0.6038	-0.081
Mof_C 	C 	0.5709	0.7889	0.5197	0.127
Mof_C 	C 	0.3374	0.8171	0.2168	0.115
Mof_C 	C 	0.021	0.9879	0.8193	0.319
Mof_C 	C 	0.254	0.9121	0.1192	-0.115
Mof_C 	C 	0.323	0.4923	0.2022	0.111
Mof_C 	C 	0.423	0.7238	0.3867	-0.044
Mof_C 	C 	0.45	0.8209	0.6105	-0.09
Mof_C 	C 	0.9164	0.9394	0.7596	-0.1
Mof_C 	C 	0.402	0.6299	0.3416	0.124
Mof_C 	C 	0.4107	0.7804	0.5255	0.123
Mof_C 	C 	0.3618	0.5963	0.2547	-0.074
Mof_C 	C 	0.7532	0.8356	0.7213	-0.145
Mof_H 	H 	0.7081	0.7908	0.7306	0.087
Mof_C 	C 	0.7912	0.9286	0.6368	-0.14
Mof_H 	H 	0.7719	0.9467	0.5918	0.086
Mof_C 	C 	0.4377	0.9352	0.7282	-0.159
Mof_H 	H 	0.4992	0.9778	0.7378	0.09
Mof_C 	C 	0.2375	0.2989	0.0976	-0.089
Mof_C 	C 	0.85	0.8757	0.7731	0.057
Mof_H 	H 	0.8705	0.8587	0.8187	0.051
Mof_C 	C 	0.7232	0.8632	0.6539	0.099
Mof_C 	C 	0.3872	0.9606	0.7787	0.069
Mof_H 	H 	0.4142	0.0211	0.8207	0.027
Mof_C 	C 	0.2487	0.4282	0.2126	-0.134
Mof_H 	H 	0.2279	0.4486	0.2555	0.086
Mof_C 	C 	0.187	0.1917	0.0397	0.31
Mof_C 	C 	0.5535	0.8434	0.648	-0.002
Mof_H 	H 	0.5831	0.8707	0.7051	0.038
Mof_C 	C 	0.2061	0.3325	0.157	0.043
Mof_H 	H 	0.1537	0.2906	0.1617	0.036
Mof_C 	C 	0.355	0.4605	0.1415	-0.137
Mof_H 	H 	0.4035	0.5035	0.1336	0.085
Mof_C 	C 	0.2974	0.8969	0.7672	-0.121
Mof_C 	C 	0.3579	0.8188	0.1496	-0.149
Mof_H 	H 	0.3981	0.7862	0.1347	0.088
Mof_C 	C 	0.3965	0.8458	0.6628	0.115
Mof_C 	C 	0.369	0.7585	0.2621	-0.082
Mof_C 	C 	0.2763	0.8675	0.2372	-0.143
Mof_H 	H 	0.2639	0.8705	0.2848	0.093
Mof_C 	C 	0.2575	0.807	0.7048	0.063
Mof_H 	H 	0.1984	0.7629	0.698	0.027
Mof_C 	C 	0.3136	0.3593	0.0886	0.04
Mof_H 	H 	0.3383	0.3359	0.0492	0.038
Mof_C 	C 	0.8868	0.9632	0.6906	0.047
Mof_H 	H 	0.9343	0.0047	0.6807	0.034
Mof_C 	C 	0.3059	0.7824	0.6521	-0.154
Mof_H 	H 	0.2773	0.7227	0.6091	0.095
Mof_C 	C 	0.2031	0.9523	0.0609	0.343
Mof_C 	C 	0.2338	0.9128	0.1878	0.061
Mof_H 	H 	0.1918	0.9435	0.2015	0.032
Mof_C 	C 	0.2704	0.8298	0.4816	-0.248
Mof_H 	H 	0.2034	0.8028	0.4428	0.116
Mof_H 	H 	0.3091	0.8755	0.4658	0.117
Mof_H 	H 	0.2723	0.8617	0.5355	0.112
Mof_C 	C 	0.2417	0.9222	0.8187	0.329
Mof_C 	C 	0.5218	0.9444	0.4109	-0.261
Mof_H 	H 	0.5347	0.0087	0.4465	0.123
Mof_H 	H 	0.5261	0.9454	0.3596	0.117
Mof_H 	H 	0.5696	0.9199	0.4366	0.123
Mof_C 	C 	0.3185	0.8703	0.1003	0.054
Mof_H 	H 	0.3369	0.8747	0.0565	0.033
Mof_C 	C 	0.6675	0.7032	0.4782	-0.229
Mof_H 	H 	0.7295	0.7207	0.4717	0.109
Mof_H 	H 	0.6238	0.6421	0.4358	0.115
Mof_H 	H 	0.6778	0.6983	0.5311	0.106
Mof_C 	C 	0.3663	0.5481	0.4334	-0.275
Mof_H 	H 	0.4109	0.5521	0.4847	0.122
Mof_H 	H 	0.3165	0.4849	0.4061	0.117
Mof_H 	H 	0.3358	0.5954	0.4437	0.13
Mof_Zn	Zn	0.80831	0.97292	0.06994	1.247
Mof_O 	O 	0.3751	0.2253	0.528	-0.164
Mof_O 	O 	0.9162	0.9592	0.1947	-0.322
Mof_O 	O 	0.5771	0.433	0.6206	-0.16
Mof_O 	O 	0.6895	0.2473	0.5174	-0.165
Mof_O 	O 	0.9565	0.0312	0.1141	-0.365
Mof_O 	O 	0.5752	0.1165	0.6039	-0.157
Mof_O 	O 	0.7654	0.8367	0.0047	-0.42
Mof_O 	O 	0.8799	0.0453	0.9381	-0.23
Mof_O 	O 	0.7571	0.0246	0.9859	-0.426
Mof_O 	O 	0.8911	0.8557	0.9571	-0.235
Mof_O 	O 	0.7215	0.9899	0.1294	-0.416
Mof_C 	C 	0.5312	0.2331	0.5187	-0.052
Mof_O 	O 	0.8341	0.1373	0.1859	-0.299
Mof_C 	C 	0.6524	0.3389	0.7824	-0.002
Mof_H 	H 	0.6772	0.3608	0.8396	0.038
Mof_C 	C 	0.5964	0.2152	0.6542	0.117
Mof_C 	C 	0.3884	0.1732	0.3962	-0.081
Mof_C 	C 	0.4291	0.2111	0.4803	0.127
Mof_C 	C 	0.6626	0.1829	0.7832	0.115
Mof_C 	C 	0.979	0.0121	0.1807	0.319
Mof_C 	C 	0.746	0.0879	0.8808	-0.115
Mof_C 	C 	0.677	0.5077	0.7978	0.111
Mof_C 	C 	0.577	0.2762	0.6133	-0.044
Mof_C 	C 	0.55	0.1791	0.3895	-0.09
Mof_C 	C 	0.0836	0.0606	0.2404	-0.1
Mof_C 	C 	0.598	0.3701	0.6584	0.124
Mof_C 	C 	0.5893	0.2196	0.4745	0.123
Mof_C 	C 	0.6382	0.4037	0.7453	-0.074
Mof_C 	C 	0.2468	0.1644	0.2787	-0.145
Mof_H 	H 	0.2919	0.2092	0.2694	0.087
Mof_C 	C 	0.2088	0.0714	0.3632	-0.14
Mof_H 	H 	0.2281	0.0533	0.4082	0.086
Mof_C 	C 	0.5623	0.0648	0.2718	-0.159
Mof_H 	H 	0.5008	0.0222	0.2622	0.09
Mof_C 	C 	0.7625	0.7011	0.9024	-0.089
Mof_C 	C 	0.15	0.1243	0.2269	0.057
Mof_H 	H 	0.1295	0.1413	0.1813	0.051
Mof_C 	C 	0.2768	0.1368	0.3461	0.099
Mof_C 	C 	0.6128	0.0394	0.2213	0.069
Mof_H 	H 	0.5858	0.9789	0.1793	0.027
Mof_C 	C 	0.7513	0.5718	0.7874	-0.134
Mof_H 	H 	0.7721	0.5514	0.7445	0.086
Mof_C 	C 	0.813	0.8083	0.9603	0.31
Mof_C 	C 	0.4465	0.1566	0.352	-0.002
Mof_H 	H 	0.4169	0.1293	0.2949	0.038
Mof_C 	C 	0.7939	0.6675	0.843	0.043
Mof_H 	H 	0.8463	0.7094	0.8383	0.036
Mof_C 	C 	0.645	0.5395	0.8585	-0.137
Mof_H 	H 	0.5965	0.4965	0.8664	0.085
Mof_C 	C 	0.7026	0.1031	0.2328	-0.121
Mof_C 	C 	0.6421	0.1812	0.8504	-0.149
Mof_H 	H 	0.6019	0.2138	0.8653	0.088
Mof_C 	C 	0.6035	0.1542	0.3372	0.115
Mof_C 	C 	0.631	0.2415	0.7379	-0.082
Mof_C 	C 	0.7237	0.1325	0.7628	-0.143
Mof_H 	H 	0.7361	0.1295	0.7152	0.093
Mof_C 	C 	0.7425	0.193	0.2952	0.063
Mof_H 	H 	0.8016	0.2371	0.302	0.027
Mof_C 	C 	0.6864	0.6407	0.9114	0.04
Mof_H 	H 	0.6617	0.6641	0.9508	0.038
Mof_C 	C 	0.1132	0.0368	0.3094	0.047
Mof_H 	H 	0.0657	0.9953	0.3193	0.034
Mof_C 	C 	0.6941	0.2176	0.3479	-0.154
Mof_H 	H 	0.7227	0.2773	0.3909	0.095
Mof_C 	C 	0.7969	0.0477	0.9391	0.343
Mof_C 	C 	0.7662	0.0872	0.8122	0.061
Mof_H 	H 	0.8082	0.0565	0.7985	0.032
Mof_C 	C 	0.7296	0.1702	0.5184	-0.248
Mof_H 	H 	0.7966	0.1972	0.5572	0.116
Mof_H 	H 	0.6909	0.1245	0.5342	0.117
Mof_H 	H 	0.7277	0.1383	0.4645	0.112
Mof_C 	C 	0.7583	0.0778	0.1813	0.329
Mof_C 	C 	0.4782	0.0556	0.5891	-0.261
Mof_H 	H 	0.4653	0.9913	0.5535	0.123
Mof_H 	H 	0.4739	0.0546	0.6404	0.117
Mof_H 	H 	0.4304	0.0801	0.5634	0.123
Mof_C 	C 	0.6815	0.1297	0.8997	0.054
Mof_H 	H 	0.6631	0.1253	0.9435	0.033
Mof_C 	C 	0.3325	0.2968	0.5218	-0.229
Mof_H 	H 	0.2705	0.2793	0.5283	0.109
Mof_H 	H 	0.3762	0.3579	0.5642	0.115
Mof_H 	H 	0.3222	0.3017	0.4689	0.106
Mof_C 	C 	0.6337	0.4519	0.5666	-0.275
Mof_H 	H 	0.5891	0.4479	0.5153	0.122
Mof_H 	H 	0.6835	0.5151	0.5939	0.117
Mof_H 	H 	0.6642	0.4046	0.5563	0.13
_end
