data_functionalizedCrystal
_audit_creation_method	'EQeq! by Chris Wilmer'
_symmetry_space_group_name_H-M	'P1'
_symmetry_Int_Tables_number	1
_symmetry_cell_setting	triclinic
loop_
_symmetry_equiv_pos_as_xyz
  x,y,z
_cell_length_a	10.4425
_cell_length_b	11.4902
_cell_length_c	12.9208
_cell_angle_alpha	106.462
_cell_angle_beta	90.503
_cell_angle_gamma	93.335
loop_
_atom_site_label
_atom_site_type_symbol
_atom_site_fract_x
_atom_site_fract_y
_atom_site_fract_z
_atom_site_charge
Mof_Pr	Pr	0.52681	0.54603	0.6648	2.226
Mof_O 	O 	0.61501	0.72305	0.81615	-0.485
Mof_O 	O 	0.40551	0.71511	0.78492	-0.452
Mof_O 	O 	0.64775	0.49032	0.49085	-0.658
Mof_O 	O 	0.7143	0.5283	0.34338	-0.472
Mof_O 	O 	0.5127	0.32824	0.58583	-0.582
Mof_O 	O 	0.4601	0.27423	0.41012	-0.529
Mof_C 	C 	0.5068	0.7676	0.8335	0.324
Mof_C 	C 	0.5005	0.8886	0.9184	-0.096
Mof_C 	C 	0.554	0.9948	0.8985	0.041
Mof_C 	C 	0.6048	0.995	0.7957	-0.068
Mof_H 	H 	0.604	0.9209	0.7394	0.068
Mof_C 	C 	0.6543	0.0997	0.7775	-0.036
Mof_H 	H 	0.6867	0.098	0.7086	0.041
Mof_C 	C 	0.6575	0.2116	0.8614	-0.029
Mof_H 	H 	0.6935	0.2839	0.8483	0.006
Mof_C 	C 	0.6097	0.2158	0.9597	-0.073
Mof_H 	H 	0.6125	0.2912	0.0146	0.035
Mof_C 	C 	0.5548	0.1081	0.9821	0.034
Mof_C 	C 	0.7349	0.5114	0.4341	0.441
Mof_C 	C 	0.872	0.5061	0.4681	-0.159
Mof_C 	C 	0.9259	0.5958	0.5571	0.027
Mof_C 	C 	0.8554	0.6957	0.6164	-0.082
Mof_H 	H 	0.7699	0.7024	0.5941	0.026
Mof_C 	C 	0.9083	0.7807	0.7038	-0.042
Mof_H 	H 	0.8587	0.8446	0.7431	0.042
Mof_C 	C 	0.0378	0.7753	0.7372	-0.028
Mof_H 	H 	0.0746	0.8363	0.7977	0.04
Mof_C 	C 	0.109	0.6828	0.6824	-0.088
Mof_H 	H 	0.195	0.6798	0.7056	0.069
Mof_C 	C 	0.0564	0.5901	0.5908	0.046
Mof_C 	C 	0.4882	0.252	0.4958	0.504
Mof_C 	C 	0.4937	0.1205	0.4954	-0.152
Mof_C 	C 	0.3867	0.0617	0.528	0.021
Mof_C 	C 	0.2709	0.1214	0.5546	-0.017
Mof_H 	H 	0.267	0.2035	0.5536	0.014
Mof_C 	C 	0.1655	0.0617	0.5816	0.003
Mof_H 	H 	0.0876	0.1013	0.5964	0.015
Mof_C 	C 	0.1713	0.9412	0.5878	-0.019
Mof_H 	H 	0.0984	0.9019	0.61	0.029
Mof_C 	C 	0.2796	0.8812	0.5624	-0.034
Mof_H 	H 	0.2802	0.7994	0.5649	0.05
Mof_C 	C 	0.3949	0.9385	0.5315	0.012
Mof_C 	C 	0.38	0.054	0.5049	0.019
Mof_C 	C 	0.2534	0.0993	0.513	-0.046
Mof_H 	H 	0.2431	0.18	0.5103	0.036
Mof_C 	C 	0.1499	0.0296	0.5244	-0.042
Mof_H 	H 	0.068	0.0624	0.53	0.03
Mof_C 	C 	0.1595	0.9073	0.5282	-0.029
Mof_H 	H 	0.0843	0.8603	0.5361	0.026
Mof_C 	C 	0.2748	0.8579	0.5206	-0.024
Mof_H 	H 	0.2813	0.776	0.5214	-0.008
Mof_C 	C 	0.383	0.93	0.5116	0.027
Mof_Pr	Pr	0.47319	0.45397	0.3352	2.225
Mof_O 	O 	0.38499	0.27695	0.18385	-0.486
Mof_O 	O 	0.59449	0.28489	0.21508	-0.453
Mof_O 	O 	0.35225	0.50968	0.50915	-0.659
Mof_O 	O 	0.2857	0.4717	0.65662	-0.472
Mof_O 	O 	0.4873	0.67176	0.41417	-0.582
Mof_O 	O 	0.5399	0.72577	0.58988	-0.529
Mof_C 	C 	0.4932	0.2324	0.1665	0.324
Mof_C 	C 	0.4995	0.1114	0.0816	-0.096
Mof_C 	C 	0.446	0.0052	0.1015	0.041
Mof_C 	C 	0.3952	0.005	0.2043	-0.068
Mof_H 	H 	0.396	0.0791	0.2606	0.068
Mof_C 	C 	0.3457	0.9003	0.2225	-0.036
Mof_H 	H 	0.3133	0.902	0.2914	0.041
Mof_C 	C 	0.3425	0.7884	0.1386	-0.029
Mof_H 	H 	0.3065	0.7161	0.1517	0.006
Mof_C 	C 	0.3903	0.7842	0.0403	-0.073
Mof_H 	H 	0.3875	0.7088	0.9854	0.035
Mof_C 	C 	0.4452	0.8919	0.0179	0.034
Mof_C 	C 	0.2651	0.4886	0.5659	0.441
Mof_C 	C 	0.128	0.4939	0.5319	-0.159
Mof_C 	C 	0.0741	0.4042	0.4429	0.027
Mof_C 	C 	0.1446	0.3043	0.3836	-0.082
Mof_H 	H 	0.2301	0.2976	0.4059	0.026
Mof_C 	C 	0.0917	0.2193	0.2962	-0.042
Mof_H 	H 	0.1413	0.1554	0.2569	0.042
Mof_C 	C 	0.9622	0.2247	0.2628	-0.028
Mof_H 	H 	0.9254	0.1637	0.2023	0.04
Mof_C 	C 	0.891	0.3172	0.3176	-0.088
Mof_H 	H 	0.805	0.3202	0.2944	0.069
Mof_C 	C 	0.9436	0.4099	0.4092	0.046
Mof_C 	C 	0.5118	0.748	0.5042	0.504
Mof_C 	C 	0.5063	0.8795	0.5046	-0.152
Mof_C 	C 	0.6133	0.9383	0.472	0.021
Mof_C 	C 	0.7291	0.8786	0.4454	-0.017
Mof_H 	H 	0.733	0.7965	0.4464	0.014
Mof_C 	C 	0.8345	0.9383	0.4184	0.003
Mof_H 	H 	0.9124	0.8987	0.4036	0.015
Mof_C 	C 	0.8287	0.0588	0.4122	-0.019
Mof_H 	H 	0.9016	0.0981	0.39	0.029
Mof_C 	C 	0.7204	0.1188	0.4376	-0.034
Mof_H 	H 	0.7198	0.2006	0.4351	0.05
Mof_C 	C 	0.6051	0.0615	0.4685	0.012
Mof_C 	C 	0.62	0.946	0.4951	0.019
Mof_C 	C 	0.7466	0.9007	0.487	-0.046
Mof_H 	H 	0.7569	0.82	0.4897	0.036
Mof_C 	C 	0.8501	0.9704	0.4756	-0.042
Mof_H 	H 	0.932	0.9376	0.47	0.03
Mof_C 	C 	0.8405	0.0927	0.4718	-0.029
Mof_H 	H 	0.9157	0.1397	0.4639	0.026
Mof_C 	C 	0.7252	0.1421	0.4794	-0.024
Mof_H 	H 	0.7187	0.224	0.4786	-0.008
Mof_C 	C 	0.617	0.07	0.4884	0.027
_end
