data_functionalizedCrystal
_audit_creation_method	'EQeq! by Chris Wilmer'
_symmetry_space_group_name_H-M	'P1'
_symmetry_Int_Tables_number	1
_symmetry_cell_setting	triclinic
loop_
_symmetry_equiv_pos_as_xyz
  x,y,z
_cell_length_a	31.34
_cell_length_b	31.34
_cell_length_c	31.34
_cell_angle_alpha	90
_cell_angle_beta	90
_cell_angle_gamma	90
loop_
_atom_site_label
_atom_site_type_symbol
_atom_site_fract_x
_atom_site_fract_y
_atom_site_fract_z
_atom_site_charge
Mof_Ni	Ni	0.2161	0.036	0.0342	0.82
Mof_Ni	Ni	0.2161	0.536	0.5342	0.808
Mof_Ni	Ni	0.7161	0.036	0.5342	0.813
Mof_Ni	Ni	0.7161	0.536	0.0342	0.812
Mof_Ni	Ni	0.7839	0.964	0.0342	0.79
Mof_Ni	Ni	0.7839	0.464	0.5342	0.804
Mof_Ni	Ni	0.2839	0.964	0.5342	0.788
Mof_Ni	Ni	0.2839	0.464	0.0342	0.813
Mof_Ni	Ni	0.7839	0.036	0.9658	0.788
Mof_Ni	Ni	0.7839	0.536	0.4658	0.805
Mof_Ni	Ni	0.2839	0.036	0.4658	0.814
Mof_Ni	Ni	0.2839	0.536	0.9658	0.784
Mof_Ni	Ni	0.2161	0.964	0.9658	0.766
Mof_Ni	Ni	0.2161	0.464	0.4658	0.809
Mof_Ni	Ni	0.7161	0.964	0.4658	0.788
Mof_Ni	Ni	0.7161	0.464	0.9658	0.784
Mof_Ni	Ni	0.0342	0.2161	0.036	0.821
Mof_Ni	Ni	0.0342	0.7161	0.536	0.813
Mof_Ni	Ni	0.5342	0.2161	0.536	0.809
Mof_Ni	Ni	0.5342	0.7161	0.036	0.814
Mof_Ni	Ni	0.0342	0.7839	0.964	0.791
Mof_Ni	Ni	0.0342	0.2839	0.464	0.813
Mof_Ni	Ni	0.5342	0.7839	0.464	0.805
Mof_Ni	Ni	0.5342	0.2839	0.964	0.788
Mof_Ni	Ni	0.9658	0.7839	0.036	0.788
Mof_Ni	Ni	0.9658	0.2839	0.536	0.784
Mof_Ni	Ni	0.4658	0.7839	0.536	0.805
Mof_Ni	Ni	0.4658	0.2839	0.036	0.814
Mof_Ni	Ni	0.9658	0.2161	0.964	0.766
Mof_Ni	Ni	0.9658	0.7161	0.464	0.784
Mof_Ni	Ni	0.4658	0.2161	0.464	0.809
Mof_Ni	Ni	0.4658	0.7161	0.964	0.788
Mof_Ni	Ni	0.036	0.0342	0.2161	0.821
Mof_Ni	Ni	0.036	0.5342	0.7161	0.814
Mof_Ni	Ni	0.536	0.0342	0.7161	0.813
Mof_Ni	Ni	0.536	0.5342	0.2161	0.809
Mof_Ni	Ni	0.964	0.0342	0.7839	0.791
Mof_Ni	Ni	0.964	0.5342	0.2839	0.788
Mof_Ni	Ni	0.464	0.0342	0.2839	0.813
Mof_Ni	Ni	0.464	0.5342	0.7839	0.805
Mof_Ni	Ni	0.036	0.9658	0.7839	0.788
Mof_Ni	Ni	0.036	0.4658	0.2839	0.814
Mof_Ni	Ni	0.536	0.9658	0.2839	0.784
Mof_Ni	Ni	0.536	0.4658	0.7839	0.805
Mof_Ni	Ni	0.964	0.9658	0.2161	0.766
Mof_Ni	Ni	0.964	0.4658	0.7161	0.788
Mof_Ni	Ni	0.464	0.9658	0.7161	0.784
Mof_Ni	Ni	0.464	0.4658	0.2161	0.809
Mof_Ni	Ni	0.7839	0.964	0.9658	0.762
Mof_Ni	Ni	0.7839	0.464	0.4658	0.805
Mof_Ni	Ni	0.2839	0.964	0.4658	0.788
Mof_Ni	Ni	0.2839	0.464	0.9658	0.784
Mof_Ni	Ni	0.2161	0.036	0.9658	0.792
Mof_Ni	Ni	0.2161	0.536	0.4658	0.809
Mof_Ni	Ni	0.7161	0.036	0.4658	0.814
Mof_Ni	Ni	0.7161	0.536	0.9658	0.784
Mof_Ni	Ni	0.2161	0.964	0.0342	0.795
Mof_Ni	Ni	0.2161	0.464	0.5342	0.809
Mof_Ni	Ni	0.7161	0.964	0.5342	0.788
Mof_Ni	Ni	0.7161	0.464	0.0342	0.813
Mof_Ni	Ni	0.7839	0.036	0.0342	0.817
Mof_Ni	Ni	0.7839	0.536	0.5342	0.805
Mof_Ni	Ni	0.2839	0.036	0.5342	0.814
Mof_Ni	Ni	0.2839	0.536	0.0342	0.813
Mof_Ni	Ni	0.9658	0.7839	0.964	0.762
Mof_Ni	Ni	0.9658	0.2839	0.464	0.784
Mof_Ni	Ni	0.4658	0.7839	0.464	0.805
Mof_Ni	Ni	0.4658	0.2839	0.964	0.788
Mof_Ni	Ni	0.9658	0.2161	0.036	0.792
Mof_Ni	Ni	0.9658	0.7161	0.536	0.784
Mof_Ni	Ni	0.4658	0.2161	0.536	0.809
Mof_Ni	Ni	0.4658	0.7161	0.036	0.814
Mof_Ni	Ni	0.0342	0.2161	0.964	0.795
Mof_Ni	Ni	0.0342	0.7161	0.464	0.813
Mof_Ni	Ni	0.5342	0.2161	0.464	0.809
Mof_Ni	Ni	0.5342	0.7161	0.964	0.788
Mof_Ni	Ni	0.0342	0.7839	0.036	0.817
Mof_Ni	Ni	0.0342	0.2839	0.536	0.813
Mof_Ni	Ni	0.5342	0.7839	0.536	0.805
Mof_Ni	Ni	0.5342	0.2839	0.036	0.814
Mof_Ni	Ni	0.964	0.9658	0.7839	0.762
Mof_Ni	Ni	0.964	0.4658	0.2839	0.788
Mof_Ni	Ni	0.464	0.9658	0.2839	0.784
Mof_Ni	Ni	0.464	0.4658	0.7839	0.805
Mof_Ni	Ni	0.036	0.9658	0.2161	0.792
Mof_Ni	Ni	0.036	0.4658	0.7161	0.814
Mof_Ni	Ni	0.536	0.9658	0.7161	0.784
Mof_Ni	Ni	0.536	0.4658	0.2161	0.809
Mof_Ni	Ni	0.964	0.0342	0.2161	0.795
Mof_Ni	Ni	0.964	0.5342	0.7161	0.788
Mof_Ni	Ni	0.464	0.0342	0.7161	0.813
Mof_Ni	Ni	0.464	0.5342	0.2161	0.809
Mof_Ni	Ni	0.036	0.0342	0.7839	0.817
Mof_Ni	Ni	0.036	0.5342	0.2839	0.814
Mof_Ni	Ni	0.536	0.0342	0.2839	0.813
Mof_Ni	Ni	0.536	0.5342	0.7839	0.805
Mof_Ni	Ni	0.32147	0	-0	1.138
Mof_O 	O 	0.255	0	-0	-0.718
Mof_Ni	Ni	0.32147	0.5	0.5	1.121
Mof_O 	O 	0.255	0.5	0.5	-0.758
Mof_Ni	Ni	0.82147	0	0.5	1.129
Mof_O 	O 	0.755	0	0.5	-0.734
Mof_Ni	Ni	0.82147	0.5	-0	1.127
Mof_O 	O 	0.755	0.5	-0	-0.741
Mof_Ni	Ni	0.67853	0	-0	1.138
Mof_O 	O 	0.745	0	-0	-0.718
Mof_Ni	Ni	0.67853	0.5	0.5	1.121
Mof_O 	O 	0.745	0.5	0.5	-0.758
Mof_Ni	Ni	0.17853	0	0.5	1.131
Mof_O 	O 	0.245	0	0.5	-0.734
Mof_Ni	Ni	0.17853	0.5	-0	1.129
Mof_O 	O 	0.245	0.5	-0	-0.741
Mof_Ni	Ni	-0	0.32147	-0	1.138
Mof_O 	O 	-0	0.255	-0	-0.718
Mof_Ni	Ni	8.4353e-33	0.82147	0.5	1.127
Mof_O 	O 	1.8747e-33	0.755	0.5	-0.741
Mof_Ni	Ni	0.5	0.32147	0.5	1.121
Mof_O 	O 	0.5	0.255	0.5	-0.758
Mof_Ni	Ni	0.5	0.82147	-0	1.129
Mof_O 	O 	0.5	0.755	-0	-0.734
Mof_Ni	Ni	-0	0.67853	-0	1.138
Mof_O 	O 	6.5606e-33	0.745	-0	-0.718
Mof_Ni	Ni	1.8747e-33	0.17853	0.5	1.129
Mof_O 	O 	1.8747e-33	0.245	0.5	-0.741
Mof_Ni	Ni	0.5	0.67853	0.5	1.121
Mof_O 	O 	0.5	0.745	0.5	-0.758
Mof_Ni	Ni	0.5	0.17853	-0	1.131
Mof_O 	O 	0.5	0.245	-0	-0.734
Mof_Ni	Ni	1.20532e-33	0	0.32147	1.138
Mof_O 	O 	9.56097e-34	0	0.255	-0.718
Mof_Ni	Ni	3.08002e-33	0.5	0.82147	1.129
Mof_O 	O 	-3.7298e-33	0.5	0.755	-0.734
Mof_Ni	Ni	0.5	6.5606e-33	0.82147	1.127
Mof_O 	O 	0.5	0	0.755	-0.741
Mof_Ni	Ni	0.5	0.5	0.32147	1.121
Mof_O 	O 	0.5	0.5	0.255	-0.758
Mof_Ni	Ni	2.54408e-33	0	0.67853	1.138
Mof_O 	O 	9.3539e-33	6.5606e-33	0.745	-0.718
Mof_Ni	Ni	6.6938e-34	0.5	0.17853	1.131
Mof_O 	O 	7.4792e-33	0.5	0.245	-0.734
Mof_Ni	Ni	0.5	1.64015e-33	0.17853	1.129
Mof_O 	O 	0.5	3.2803e-33	0.245	-0.741
Mof_Ni	Ni	0.5	0.5	0.67853	1.121
Mof_O 	O 	0.5	0.5	0.745	-0.758
Mof_O 	O 	0.3255	0.0644	-0	-0.365
Mof_O 	O 	0.4323	0.1773	-0	-0.424
Mof_O 	O 	0.4084	0.2441	-0	-0.543
Mof_C 	C 	0.3586	0.1852	-0	-0.127
Mof_C 	C 	0.3468	0.1424	-0	0.04
Mof_H 	H 	0.368	0.1208	-0	0.041
Mof_C 	C 	0.3038	0.1313	-0	-0.108
Mof_C 	C 	0.2727	0.1629	-0	-0.044
Mof_H 	H 	0.2434	0.1553	-0	-0.026
Mof_C 	C 	0.2845	0.2057	-0	0.019
Mof_C 	C 	0.3275	0.2168	-0	-0.032
Mof_H 	H 	0.3356	0.246	-0	0.009
Mof_C 	C 	0.4034	0.2036	-0	0.395
Mof_C 	C 	0.2857	0.0849	-0	0.29
Mof_N 	N 	0.2439	0.2313	-0	-0.111
Mof_O 	O 	0.2526	0.0598	-0	-0.719
Mof_O 	O 	0.3255	0.5644	0.5	-0.376
Mof_O 	O 	0.4323	0.6773	0.5	-0.437
Mof_O 	O 	0.4084	0.7441	0.5	-0.558
Mof_C 	C 	0.3586	0.6852	0.5	-0.138
Mof_C 	C 	0.3468	0.6424	0.5	0.044
Mof_H 	H 	0.368	0.6208	0.5	0.033
Mof_C 	C 	0.3038	0.6313	0.5	-0.119
Mof_C 	C 	0.2727	0.6629	0.5	-0.041
Mof_H 	H 	0.2434	0.6553	0.5	-0.034
Mof_C 	C 	0.2845	0.7057	0.5	0.009
Mof_C 	C 	0.3275	0.7168	0.5	-0.029
Mof_H 	H 	0.3356	0.746	0.5	0.001
Mof_C 	C 	0.4034	0.7036	0.5	0.397
Mof_C 	C 	0.2857	0.5849	0.5	0.289
Mof_N 	N 	0.2439	0.7313	0.5	-0.115
Mof_O 	O 	0.2526	0.5598	0.5	-0.734
Mof_O 	O 	0.8255	0.0644	0.5	-0.379
Mof_O 	O 	0.9323	0.1773	0.5	-0.462
Mof_O 	O 	0.9084	0.2441	0.5	-0.57
Mof_C 	C 	0.8586	0.1852	0.5	-0.146
Mof_C 	C 	0.8468	0.1424	0.5	0.046
Mof_H 	H 	0.868	0.1208	0.5	0.027
Mof_C 	C 	0.8038	0.1313	0.5	-0.122
Mof_C 	C 	0.7727	0.1629	0.5	-0.04
Mof_H 	H 	0.7434	0.1553	0.5	-0.035
Mof_C 	C 	0.7845	0.2057	0.5	0.007
Mof_C 	C 	0.8275	0.2168	0.5	-0.027
Mof_H 	H 	0.8356	0.246	0.5	-0.001
Mof_C 	C 	0.9034	0.2036	0.5	0.398
Mof_C 	C 	0.7857	0.0849	0.5	0.289
Mof_N 	N 	0.7439	0.2313	0.5	-0.114
Mof_O 	O 	0.7526	0.0598	0.5	-0.735
Mof_O 	O 	0.8255	0.5644	-0	-0.371
Mof_O 	O 	0.9323	0.6773	-0	-0.452
Mof_O 	O 	0.9084	0.7441	-0	-0.56
Mof_C 	C 	0.8586	0.6852	-0	-0.139
Mof_C 	C 	0.8468	0.6424	-0	0.044
Mof_H 	H 	0.868	0.6208	-0	0.032
Mof_C 	C 	0.8038	0.6313	-0	-0.115
Mof_C 	C 	0.7727	0.6629	-0	-0.041
Mof_H 	H 	0.7434	0.6553	-0	-0.03
Mof_C 	C 	0.7845	0.7057	-0	0.012
Mof_C 	C 	0.8275	0.7168	-0	-0.028
Mof_H 	H 	0.8356	0.746	-0	0.002
Mof_C 	C 	0.9034	0.7036	-0	0.398
Mof_C 	C 	0.7857	0.5849	-0	0.291
Mof_N 	N 	0.7439	0.7313	-0	-0.112
Mof_O 	O 	0.7526	0.5598	-0	-0.72
Mof_O 	O 	0.6745	0.9356	-0	-0.391
Mof_O 	O 	0.5677	0.8227	-0	-0.429
Mof_O 	O 	0.5916	0.7559	-0	-0.544
Mof_C 	C 	0.6414	0.8148	-0	-0.134
Mof_C 	C 	0.6532	0.8576	-0	0.043
Mof_H 	H 	0.632	0.8792	-0	0.032
Mof_C 	C 	0.6962	0.8687	-0	-0.118
Mof_C 	C 	0.7273	0.8371	-0	-0.042
Mof_H 	H 	0.7566	0.8447	-0	-0.035
Mof_C 	C 	0.7155	0.7943	-0	0.013
Mof_C 	C 	0.6725	0.7832	-0	-0.03
Mof_H 	H 	0.6644	0.754	-0	0.007
Mof_C 	C 	0.5966	0.7964	-0	0.396
Mof_C 	C 	0.7143	0.9151	-0	0.287
Mof_N 	N 	0.7561	0.7687	-0	-0.114
Mof_O 	O 	0.7474	0.9402	-0	-0.74
Mof_O 	O 	0.6745	0.4356	0.5	-0.376
Mof_O 	O 	0.5677	0.3227	0.5	-0.436
Mof_O 	O 	0.5916	0.2559	0.5	-0.555
Mof_C 	C 	0.6414	0.3148	0.5	-0.138
Mof_C 	C 	0.6532	0.3576	0.5	0.044
Mof_H 	H 	0.632	0.3792	0.5	0.033
Mof_C 	C 	0.6962	0.3687	0.5	-0.119
Mof_C 	C 	0.7273	0.3371	0.5	-0.041
Mof_H 	H 	0.7566	0.3447	0.5	-0.037
Mof_C 	C 	0.7155	0.2943	0.5	0.009
Mof_C 	C 	0.6725	0.2832	0.5	-0.029
Mof_H 	H 	0.6644	0.254	0.5	0.003
Mof_C 	C 	0.5966	0.2964	0.5	0.396
Mof_C 	C 	0.7143	0.4151	0.5	0.288
Mof_N 	N 	0.7561	0.2687	0.5	-0.116
Mof_O 	O 	0.7474	0.4402	0.5	-0.735
Mof_O 	O 	0.1745	0.9356	0.5	-0.4
Mof_O 	O 	0.0677	0.8227	0.5	-0.44
Mof_O 	O 	0.0916	0.7559	0.5	-0.556
Mof_C 	C 	0.1414	0.8148	0.5	-0.141
Mof_C 	C 	0.1532	0.8576	0.5	0.045
Mof_H 	H 	0.132	0.8792	0.5	0.027
Mof_C 	C 	0.1962	0.8687	0.5	-0.125
Mof_C 	C 	0.2273	0.8371	0.5	-0.041
Mof_H 	H 	0.2566	0.8447	0.5	-0.039
Mof_C 	C 	0.2155	0.7943	0.5	0.007
Mof_C 	C 	0.1725	0.7832	0.5	-0.028
Mof_H 	H 	0.1644	0.754	0.5	0.002
Mof_C 	C 	0.0966	0.7964	0.5	0.396
Mof_C 	C 	0.2143	0.9151	0.5	0.286
Mof_N 	N 	0.2561	0.7687	0.5	-0.116
Mof_O 	O 	0.2474	0.9402	0.5	-0.753
Mof_O 	O 	0.1745	0.4356	-0	-0.366
Mof_O 	O 	0.0677	0.3227	-0	-0.424
Mof_O 	O 	0.0916	0.2559	-0	-0.541
Mof_C 	C 	0.1414	0.3148	-0	-0.126
Mof_C 	C 	0.1532	0.3576	-0	0.04
Mof_H 	H 	0.132	0.3792	-0	0.041
Mof_C 	C 	0.1962	0.3687	-0	-0.108
Mof_C 	C 	0.2273	0.3371	-0	-0.044
Mof_H 	H 	0.2566	0.3447	-0	-0.028
Mof_C 	C 	0.2155	0.2943	-0	0.019
Mof_C 	C 	0.1725	0.2832	-0	-0.033
Mof_H 	H 	0.1644	0.254	-0	0.01
Mof_C 	C 	0.0966	0.2964	-0	0.394
Mof_C 	C 	0.2143	0.4151	-0	0.29
Mof_N 	N 	0.2561	0.2687	-0	-0.111
Mof_O 	O 	0.2474	0.4402	-0	-0.719
Mof_O 	O 	0.6745	0.0644	-0	-0.365
Mof_O 	O 	0.5677	0.1773	-0	-0.424
Mof_O 	O 	0.5916	0.2441	-0	-0.543
Mof_C 	C 	0.6414	0.1852	-0	-0.128
Mof_C 	C 	0.6532	0.1424	-0	0.041
Mof_H 	H 	0.632	0.1208	-0	0.041
Mof_C 	C 	0.6962	0.1313	-0	-0.11
Mof_C 	C 	0.7273	0.1629	-0	-0.044
Mof_H 	H 	0.7566	0.1553	-0	-0.029
Mof_C 	C 	0.7155	0.2057	-0	0.017
Mof_C 	C 	0.6725	0.2168	-0	-0.032
Mof_H 	H 	0.6644	0.246	-0	0.008
Mof_C 	C 	0.5966	0.2036	-0	0.395
Mof_C 	C 	0.7143	0.0849	-0	0.289
Mof_N 	N 	0.7561	0.2313	-0	-0.113
Mof_O 	O 	0.7474	0.0598	-0	-0.721
Mof_O 	O 	0.6745	0.5644	0.5	-0.376
Mof_O 	O 	0.5677	0.6773	0.5	-0.437
Mof_O 	O 	0.5916	0.7441	0.5	-0.559
Mof_C 	C 	0.6414	0.6852	0.5	-0.139
Mof_C 	C 	0.6532	0.6424	0.5	0.044
Mof_H 	H 	0.632	0.6208	0.5	0.033
Mof_C 	C 	0.6962	0.6313	0.5	-0.12
Mof_C 	C 	0.7273	0.6629	0.5	-0.041
Mof_H 	H 	0.7566	0.6553	0.5	-0.038
Mof_C 	C 	0.7155	0.7057	0.5	0.007
Mof_C 	C 	0.6725	0.7168	0.5	-0.028
Mof_H 	H 	0.6644	0.746	0.5	-0
Mof_C 	C 	0.5966	0.7036	0.5	0.397
Mof_C 	C 	0.7143	0.5849	0.5	0.288
Mof_N 	N 	0.7561	0.7313	0.5	-0.116
Mof_O 	O 	0.7474	0.5598	0.5	-0.735
Mof_O 	O 	0.1745	0.0644	0.5	-0.374
Mof_O 	O 	0.0677	0.1773	0.5	-0.434
Mof_O 	O 	0.0916	0.2441	0.5	-0.555
Mof_C 	C 	0.1414	0.1852	0.5	-0.135
Mof_C 	C 	0.1532	0.1424	0.5	0.042
Mof_H 	H 	0.132	0.1208	0.5	0.036
Mof_C 	C 	0.1962	0.1313	0.5	-0.116
Mof_C 	C 	0.2273	0.1629	0.5	-0.043
Mof_H 	H 	0.2566	0.1553	0.5	-0.033
Mof_C 	C 	0.2155	0.2057	0.5	0.012
Mof_C 	C 	0.1725	0.2168	0.5	-0.03
Mof_H 	H 	0.1644	0.246	0.5	0.004
Mof_C 	C 	0.0966	0.2036	0.5	0.395
Mof_C 	C 	0.2143	0.0849	0.5	0.288
Mof_N 	N 	0.2561	0.2313	0.5	-0.114
Mof_O 	O 	0.2474	0.0598	0.5	-0.734
Mof_O 	O 	0.1745	0.5644	-0	-0.366
Mof_O 	O 	0.0677	0.6773	-0	-0.424
Mof_O 	O 	0.0916	0.7441	-0	-0.544
Mof_C 	C 	0.1414	0.6852	-0	-0.128
Mof_C 	C 	0.1532	0.6424	-0	0.041
Mof_H 	H 	0.132	0.6208	-0	0.041
Mof_C 	C 	0.1962	0.6313	-0	-0.109
Mof_C 	C 	0.2273	0.6629	-0	-0.044
Mof_H 	H 	0.2566	0.6553	-0	-0.028
Mof_C 	C 	0.2155	0.7057	-0	0.017
Mof_C 	C 	0.1725	0.7168	-0	-0.032
Mof_H 	H 	0.1644	0.746	-0	0.007
Mof_C 	C 	0.0966	0.7036	-0	0.394
Mof_C 	C 	0.2143	0.5849	-0	0.29
Mof_N 	N 	0.2561	0.7313	-0	-0.112
Mof_O 	O 	0.2474	0.5598	-0	-0.719
Mof_O 	O 	0.3255	0.9356	-0	-0.391
Mof_O 	O 	0.4323	0.8227	-0	-0.429
Mof_O 	O 	0.4084	0.7559	-0	-0.544
Mof_C 	C 	0.3586	0.8148	-0	-0.133
Mof_C 	C 	0.3468	0.8576	-0	0.043
Mof_H 	H 	0.368	0.8792	-0	0.033
Mof_C 	C 	0.3038	0.8687	-0	-0.117
Mof_C 	C 	0.2727	0.8371	-0	-0.043
Mof_H 	H 	0.2434	0.8447	-0	-0.032
Mof_C 	C 	0.2845	0.7943	-0	0.015
Mof_C 	C 	0.3275	0.7832	-0	-0.03
Mof_H 	H 	0.3356	0.754	-0	0.007
Mof_C 	C 	0.4034	0.7964	-0	0.396
Mof_C 	C 	0.2857	0.9151	-0	0.288
Mof_N 	N 	0.2439	0.7687	-0	-0.113
Mof_O 	O 	0.2526	0.9402	-0	-0.738
Mof_O 	O 	0.3255	0.4356	0.5	-0.376
Mof_O 	O 	0.4323	0.3227	0.5	-0.436
Mof_O 	O 	0.4084	0.2559	0.5	-0.555
Mof_C 	C 	0.3586	0.3148	0.5	-0.137
Mof_C 	C 	0.3468	0.3576	0.5	0.043
Mof_H 	H 	0.368	0.3792	0.5	0.033
Mof_C 	C 	0.3038	0.3687	0.5	-0.118
Mof_C 	C 	0.2727	0.3371	0.5	-0.042
Mof_H 	H 	0.2434	0.3447	0.5	-0.034
Mof_C 	C 	0.2845	0.2943	0.5	0.011
Mof_C 	C 	0.3275	0.2832	0.5	-0.029
Mof_H 	H 	0.3356	0.254	0.5	0.004
Mof_C 	C 	0.4034	0.2964	0.5	0.396
Mof_C 	C 	0.2857	0.4151	0.5	0.289
Mof_N 	N 	0.2439	0.2687	0.5	-0.114
Mof_O 	O 	0.2526	0.4402	0.5	-0.733
Mof_O 	O 	0.8255	0.9356	0.5	-0.405
Mof_O 	O 	0.9323	0.8227	0.5	-0.468
Mof_O 	O 	0.9084	0.7559	0.5	-0.572
Mof_C 	C 	0.8586	0.8148	0.5	-0.152
Mof_C 	C 	0.8468	0.8576	0.5	0.048
Mof_H 	H 	0.868	0.8792	0.5	0.019
Mof_C 	C 	0.8038	0.8687	0.5	-0.131
Mof_C 	C 	0.7727	0.8371	0.5	-0.039
Mof_H 	H 	0.7434	0.8447	0.5	-0.041
Mof_C 	C 	0.7845	0.7943	0.5	0.002
Mof_C 	C 	0.8275	0.7832	0.5	-0.025
Mof_H 	H 	0.8356	0.754	0.5	-0.003
Mof_C 	C 	0.9034	0.7964	0.5	0.4
Mof_C 	C 	0.7857	0.9151	0.5	0.287
Mof_N 	N 	0.7439	0.7687	0.5	-0.116
Mof_O 	O 	0.7526	0.9402	0.5	-0.754
Mof_O 	O 	0.8255	0.4356	-0	-0.371
Mof_O 	O 	0.9323	0.3227	-0	-0.451
Mof_O 	O 	0.9084	0.2559	-0	-0.556
Mof_C 	C 	0.8586	0.3148	-0	-0.137
Mof_C 	C 	0.8468	0.3576	-0	0.044
Mof_H 	H 	0.868	0.3792	-0	0.033
Mof_C 	C 	0.8038	0.3687	-0	-0.114
Mof_C 	C 	0.7727	0.3371	-0	-0.042
Mof_H 	H 	0.7434	0.3447	-0	-0.029
Mof_C 	C 	0.7845	0.2943	-0	0.014
Mof_C 	C 	0.8275	0.2832	-0	-0.029
Mof_H 	H 	0.8356	0.254	-0	0.005
Mof_C 	C 	0.9034	0.2964	-0	0.397
Mof_C 	C 	0.7857	0.4151	-0	0.291
Mof_N 	N 	0.7439	0.2687	-0	-0.112
Mof_O 	O 	0.7526	0.4402	-0	-0.72
Mof_O 	O 	-1.39869e-33	0.3255	0.0644	-0.365
Mof_O 	O 	-9.75381e-34	0.4323	0.1773	-0.424
Mof_O 	O 	4.19553e-33	0.4084	0.2441	-0.543
Mof_C 	C 	-4.22606e-33	0.3586	0.1852	-0.127
Mof_C 	C 	-2.74638e-33	0.3468	0.1424	0.04
Mof_H 	H 	-4.46752e-33	0.368	0.1208	0.041
Mof_C 	C 	4.92296e-34	0.3038	0.1313	-0.108
Mof_C 	C 	3.89108e-33	0.2727	0.1629	-0.044
Mof_H 	H 	2.22243e-33	0.2434	0.1553	-0.026
Mof_C 	C 	-8.68898e-34	0.2845	0.2057	0.019
Mof_C 	C 	7.37347e-33	0.3275	0.2168	-0.032
Mof_H 	H 	4.20265e-33	0.3356	0.246	0.009
Mof_C 	C 	2.40353e-33	0.4034	0.2036	0.395
Mof_C 	C 	-5.01751e-34	0.2857	0.0849	0.29
Mof_N 	N 	8.67236e-34	0.2439	0.2313	-0.111
Mof_O 	O 	1.45433e-33	0.2526	0.0598	-0.719
Mof_O 	O 	8.67676e-33	0.8255	0.5644	-0.371
Mof_O 	O 	2.53947e-33	0.9323	0.6773	-0.452
Mof_O 	O 	2.78993e-33	0.9084	0.7441	-0.56
Mof_C 	C 	2.56909e-33	0.8586	0.6852	-0.139
Mof_C 	C 	1.55298e-32	0.8468	0.6424	0.044
Mof_H 	H 	-4.23297e-33	0.868	0.6208	0.032
Mof_C 	C 	1.54882e-32	0.8038	0.6313	-0.115
Mof_C 	C 	2.48548e-33	0.7727	0.6629	-0.041
Mof_H 	H 	2.45698e-33	0.7434	0.6553	-0.03
Mof_C 	C 	2.64595e-33	0.7845	0.7057	0.012
Mof_C 	C 	9.24817e-33	0.8275	0.7168	-0.028
Mof_H 	H 	9.35765e-33	0.8356	0.746	0.002
Mof_C 	C 	9.19868e-33	0.9034	0.7036	0.398
Mof_C 	C 	-4.36757e-33	0.7857	0.5849	0.291
Mof_N 	N 	1.58631e-32	0.7439	0.7313	-0.112
Mof_O 	O 	-4.46168e-33	0.7526	0.5598	-0.72
Mof_O 	O 	0.5	0.3255	0.5644	-0.376
Mof_O 	O 	0.5	0.4323	0.6773	-0.437
Mof_O 	O 	0.5	0.4084	0.7441	-0.558
Mof_C 	C 	0.5	0.3586	0.6852	-0.138
Mof_C 	C 	0.5	0.3468	0.6424	0.044
Mof_H 	H 	0.5	0.368	0.6208	0.033
Mof_C 	C 	0.5	0.3038	0.6313	-0.119
Mof_C 	C 	0.5	0.2727	0.6629	-0.041
Mof_H 	H 	0.5	0.2434	0.6553	-0.034
Mof_C 	C 	0.5	0.2845	0.7057	0.009
Mof_C 	C 	0.5	0.3275	0.7168	-0.029
Mof_H 	H 	0.5	0.3356	0.746	0.001
Mof_C 	C 	0.5	0.4034	0.7036	0.397
Mof_C 	C 	0.5	0.2857	0.5849	0.289
Mof_N 	N 	0.5	0.2439	0.7313	-0.115
Mof_O 	O 	0.5	0.2526	0.5598	-0.734
Mof_O 	O 	0.5	0.8255	0.0644	-0.379
Mof_O 	O 	0.5	0.9323	0.1773	-0.462
Mof_O 	O 	0.5	0.9084	0.2441	-0.57
Mof_C 	C 	0.5	0.8586	0.1852	-0.146
Mof_C 	C 	0.5	0.8468	0.1424	0.046
Mof_H 	H 	0.5	0.868	0.1208	0.027
Mof_C 	C 	0.5	0.8038	0.1313	-0.122
Mof_C 	C 	0.5	0.7727	0.1629	-0.04
Mof_H 	H 	0.5	0.7434	0.1553	-0.035
Mof_C 	C 	0.5	0.7845	0.2057	0.007
Mof_C 	C 	0.5	0.8275	0.2168	-0.027
Mof_H 	H 	0.5	0.8356	0.246	-0.001
Mof_C 	C 	0.5	0.9034	0.2036	0.398
Mof_C 	C 	0.5	0.7857	0.0849	0.289
Mof_N 	N 	0.5	0.7439	0.2313	-0.114
Mof_O 	O 	0.5	0.7526	0.0598	-0.735
Mof_O 	O 	1.00685e-32	0.6745	0.9356	-0.391
Mof_O 	O 	1.62058e-32	0.5677	0.8227	-0.429
Mof_O 	O 	9.39477e-33	0.5916	0.7559	-0.544
Mof_C 	C 	-3.50559e-33	0.6414	0.8148	-0.134
Mof_C 	C 	-3.34511e-33	0.6532	0.8576	0.043
Mof_H 	H 	3.29647e-33	0.632	0.8792	0.032
Mof_C 	C 	3.2571e-33	0.6962	0.8687	-0.118
Mof_C 	C 	1.62598e-32	0.7273	0.8371	-0.042
Mof_H 	H 	3.16712e-33	0.7566	0.8447	-0.035
Mof_C 	C 	2.97815e-33	0.7155	0.7943	0.013
Mof_C 	C 	2.93653e-33	0.6725	0.7832	-0.03
Mof_H 	H 	9.38765e-33	0.6644	0.754	0.007
Mof_C 	C 	-3.57458e-33	0.5966	0.7964	0.396
Mof_C 	C 	9.99167e-33	0.7143	0.9151	0.287
Mof_N 	N 	-3.67843e-33	0.7561	0.7687	-0.114
Mof_O 	O 	-3.03541e-33	0.7474	0.9402	-0.74
Mof_O 	O 	4.91354e-33	0.1745	0.4356	-0.366
Mof_O 	O 	1.20993e-33	0.0677	0.3227	-0.424
Mof_O 	O 	-2.32083e-33	0.0916	0.2559	-0.541
Mof_C 	C 	4.46061e-33	0.1414	0.3148	-0.126
Mof_C 	C 	-5.21981e-33	0.1532	0.3576	0.04
Mof_H 	H 	-1.85853e-33	0.132	0.3792	0.041
Mof_C 	C 	4.6627e-33	0.1962	0.3687	-0.108
Mof_C 	C 	-2.01638e-33	0.2273	0.3371	-0.044
Mof_H 	H 	-5.26818e-33	0.2566	0.3447	-0.028
Mof_C 	C 	1.10345e-33	0.2155	0.2943	0.019
Mof_C 	C 	1.06183e-33	0.1725	0.2832	-0.033
Mof_H 	H 	9.52347e-34	0.1644	0.254	0.01
Mof_C 	C 	4.39162e-33	0.0966	0.2964	0.394
Mof_C 	C 	1.55638e-33	0.2143	0.4151	0.29
Mof_N 	N 	1.00746e-33	0.2561	0.2687	-0.111
Mof_O 	O 	1.65049e-33	0.2474	0.4402	-0.719
Mof_O 	O 	0.5	0.6745	0.4356	-0.376
Mof_O 	O 	0.5	0.5677	0.3227	-0.436
Mof_O 	O 	0.5	0.5916	0.2559	-0.555
Mof_C 	C 	0.5	0.6414	0.3148	-0.138
Mof_C 	C 	0.5	0.6532	0.3576	0.044
Mof_H 	H 	0.5	0.632	0.3792	0.033
Mof_C 	C 	0.5	0.6962	0.3687	-0.119
Mof_C 	C 	0.5	0.7273	0.3371	-0.041
Mof_H 	H 	0.5	0.7566	0.3447	-0.037
Mof_C 	C 	0.5	0.7155	0.2943	0.009
Mof_C 	C 	0.5	0.6725	0.2832	-0.029
Mof_H 	H 	0.5	0.6644	0.254	0.003
Mof_C 	C 	0.5	0.5966	0.2964	0.396
Mof_C 	C 	0.5	0.7143	0.4151	0.288
Mof_N 	N 	0.5	0.7561	0.2687	-0.116
Mof_O 	O 	0.5	0.7474	0.4402	-0.735
Mof_O 	O 	0.5	0.1745	0.9356	-0.4
Mof_O 	O 	0.5	0.0677	0.8227	-0.44
Mof_O 	O 	0.5	0.0916	0.7559	-0.556
Mof_C 	C 	0.5	0.1414	0.8148	-0.141
Mof_C 	C 	0.5	0.1532	0.8576	0.045
Mof_H 	H 	0.5	0.132	0.8792	0.027
Mof_C 	C 	0.5	0.1962	0.8687	-0.125
Mof_C 	C 	0.5	0.2273	0.8371	-0.041
Mof_H 	H 	0.5	0.2566	0.8447	-0.039
Mof_C 	C 	0.5	0.2155	0.7943	0.007
Mof_C 	C 	0.5	0.1725	0.7832	-0.028
Mof_H 	H 	0.5	0.1644	0.754	0.002
Mof_C 	C 	0.5	0.0966	0.7964	0.396
Mof_C 	C 	0.5	0.2143	0.9151	0.286
Mof_N 	N 	0.5	0.2561	0.7687	-0.116
Mof_O 	O 	0.5	0.2474	0.9402	-0.753
Mof_O 	O 	-1.39869e-33	0.6745	0.0644	-0.365
Mof_O 	O 	2.30492e-33	0.5677	0.1773	-0.424
Mof_O 	O 	1.07561e-32	0.5916	0.2441	-0.543
Mof_C 	C 	2.33454e-33	0.6414	0.1852	-0.128
Mof_C 	C 	-2.74638e-33	0.6532	0.1424	0.041
Mof_H 	H 	2.09308e-33	0.632	0.1208	0.041
Mof_C 	C 	4.92296e-34	0.6962	0.1313	-0.11
Mof_C 	C 	1.04517e-32	0.7273	0.1629	-0.044
Mof_H 	H 	-4.33817e-33	0.7566	0.1553	-0.029
Mof_C 	C 	-8.68898e-34	0.7155	0.2057	0.017
Mof_C 	C 	1.06538e-32	0.6725	0.2168	-0.032
Mof_H 	H 	4.20265e-33	0.6644	0.246	0.008
Mof_C 	C 	2.40353e-33	0.5966	0.2036	0.395
Mof_C 	C 	-3.78205e-33	0.7143	0.0849	0.289
Mof_N 	N 	-1.2254e-32	0.7561	0.2313	-0.113
Mof_O 	O 	-1.82597e-33	0.7474	0.0598	-0.721
Mof_O 	O 	-4.44444e-33	0.1745	0.5644	-0.366
Mof_O 	O 	-4.02113e-33	0.0677	0.6773	-0.424
Mof_O 	O 	9.35053e-33	0.0916	0.7441	-0.544
Mof_C 	C 	2.56909e-33	0.1414	0.6852	-0.128
Mof_C 	C 	2.40861e-33	0.1532	0.6424	0.041
Mof_H 	H 	2.32763e-33	0.132	0.6208	0.041
Mof_C 	C 	8.92759e-33	0.1962	0.6313	-0.109
Mof_C 	C 	2.48548e-33	0.2273	0.6629	-0.044
Mof_H 	H 	2.45698e-33	0.2566	0.6553	-0.028
Mof_C 	C 	2.64595e-33	0.2155	0.7057	0.017
Mof_C 	C 	2.68757e-33	0.1725	0.7168	-0.032
Mof_H 	H 	9.35765e-33	0.1644	0.746	0.007
Mof_C 	C 	2.63808e-33	0.0966	0.7036	0.394
Mof_C 	C 	-4.36757e-33	0.2143	0.5849	0.29
Mof_N 	N 	-3.81866e-33	0.2561	0.7313	-0.112
Mof_O 	O 	2.09891e-33	0.2474	0.5598	-0.719
Mof_O 	O 	0.5	0.6745	0.5644	-0.376
Mof_O 	O 	0.5	0.5677	0.6773	-0.437
Mof_O 	O 	0.5	0.5916	0.7441	-0.559
Mof_C 	C 	0.5	0.6414	0.6852	-0.139
Mof_C 	C 	0.5	0.6532	0.6424	0.044
Mof_H 	H 	0.5	0.632	0.6208	0.033
Mof_C 	C 	0.5	0.6962	0.6313	-0.12
Mof_C 	C 	0.5	0.7273	0.6629	-0.041
Mof_H 	H 	0.5	0.7566	0.6553	-0.038
Mof_C 	C 	0.5	0.7155	0.7057	0.007
Mof_C 	C 	0.5	0.6725	0.7168	-0.028
Mof_H 	H 	0.5	0.6644	0.746	-0
Mof_C 	C 	0.5	0.5966	0.7036	0.397
Mof_C 	C 	0.5	0.7143	0.5849	0.288
Mof_N 	N 	0.5	0.7561	0.7313	-0.116
Mof_O 	O 	0.5	0.7474	0.5598	-0.735
Mof_O 	O 	0.5	0.1745	0.0644	-0.374
Mof_O 	O 	0.5	0.0677	0.1773	-0.434
Mof_O 	O 	0.5	0.0916	0.2441	-0.555
Mof_C 	C 	0.5	0.1414	0.1852	-0.135
Mof_C 	C 	0.5	0.1532	0.1424	0.042
Mof_H 	H 	0.5	0.132	0.1208	0.036
Mof_C 	C 	0.5	0.1962	0.1313	-0.116
Mof_C 	C 	0.5	0.2273	0.1629	-0.043
Mof_H 	H 	0.5	0.2566	0.1553	-0.033
Mof_C 	C 	0.5	0.2155	0.2057	0.012
Mof_C 	C 	0.5	0.1725	0.2168	-0.03
Mof_H 	H 	0.5	0.1644	0.246	0.004
Mof_C 	C 	0.5	0.0966	0.2036	0.395
Mof_C 	C 	0.5	0.2143	0.0849	0.288
Mof_N 	N 	0.5	0.2561	0.2313	-0.114
Mof_O 	O 	0.5	0.2474	0.0598	-0.734
Mof_O 	O 	-3.05266e-33	0.3255	0.9356	-0.391
Mof_O 	O 	-3.47597e-33	0.4323	0.8227	-0.429
Mof_O 	O 	-1.0287e-32	0.4084	0.7559	-0.544
Mof_C 	C 	3.05501e-33	0.3586	0.8148	-0.133
Mof_C 	C 	3.21548e-33	0.3468	0.8576	0.043
Mof_H 	H 	9.85707e-33	0.368	0.8792	0.033
Mof_C 	C 	-3.30349e-33	0.3038	0.8687	-0.117
Mof_C 	C 	3.13862e-33	0.2727	0.8371	-0.043
Mof_H 	H 	9.72772e-33	0.2434	0.8447	-0.032
Mof_C 	C 	9.53875e-33	0.2845	0.7943	0.015
Mof_C 	C 	2.93653e-33	0.3275	0.7832	-0.03
Mof_H 	H 	9.38765e-33	0.3356	0.754	0.007
Mof_C 	C 	-3.57458e-33	0.4034	0.7964	0.396
Mof_C 	C 	9.99167e-33	0.2857	0.9151	0.288
Mof_N 	N 	2.88216e-33	0.2439	0.7687	-0.113
Mof_O 	O 	3.52519e-33	0.2526	0.9402	-0.738
Mof_O 	O 	4.91354e-33	0.8255	0.4356	-0.371
Mof_O 	O 	-2.07037e-33	0.9323	0.3227	-0.451
Mof_O 	O 	-5.60113e-33	0.9084	0.2559	-0.556
Mof_C 	C 	4.46061e-33	0.8586	0.3148	-0.137
Mof_C 	C 	1.34079e-33	0.8468	0.3576	0.044
Mof_H 	H 	-8.41912e-33	0.868	0.3792	0.033
Mof_C 	C 	4.6627e-33	0.8038	0.3687	-0.114
Mof_C 	C 	-2.01638e-33	0.7727	0.3371	-0.042
Mof_H 	H 	7.85302e-33	0.7434	0.3447	-0.029
Mof_C 	C 	1.10345e-33	0.7845	0.2943	0.014
Mof_C 	C 	1.06183e-33	0.8275	0.2832	-0.029
Mof_H 	H 	-5.60825e-33	0.8356	0.254	0.005
Mof_C 	C 	-8.72957e-33	0.9034	0.2964	0.397
Mof_C 	C 	1.55638e-33	0.7857	0.4151	0.291
Mof_N 	N 	4.28776e-33	0.7439	0.2687	-0.112
Mof_O 	O 	-1.62981e-33	0.7526	0.4402	-0.72
Mof_O 	O 	0.5	0.3255	0.4356	-0.376
Mof_O 	O 	0.5	0.4323	0.3227	-0.436
Mof_O 	O 	0.5	0.4084	0.2559	-0.555
Mof_C 	C 	0.5	0.3586	0.3148	-0.137
Mof_C 	C 	0.5	0.3468	0.3576	0.043
Mof_H 	H 	0.5	0.368	0.3792	0.033
Mof_C 	C 	0.5	0.3038	0.3687	-0.118
Mof_C 	C 	0.5	0.2727	0.3371	-0.042
Mof_H 	H 	0.5	0.2434	0.3447	-0.034
Mof_C 	C 	0.5	0.2845	0.2943	0.011
Mof_C 	C 	0.5	0.3275	0.2832	-0.029
Mof_H 	H 	0.5	0.3356	0.254	0.004
Mof_C 	C 	0.5	0.4034	0.2964	0.396
Mof_C 	C 	0.5	0.2857	0.4151	0.289
Mof_N 	N 	0.5	0.2439	0.2687	-0.114
Mof_O 	O 	0.5	0.2526	0.4402	-0.733
Mof_O 	O 	0.5	0.8255	0.9356	-0.405
Mof_O 	O 	0.5	0.9323	0.8227	-0.468
Mof_O 	O 	0.5	0.9084	0.7559	-0.572
Mof_C 	C 	0.5	0.8586	0.8148	-0.152
Mof_C 	C 	0.5	0.8468	0.8576	0.048
Mof_H 	H 	0.5	0.868	0.8792	0.019
Mof_C 	C 	0.5	0.8038	0.8687	-0.131
Mof_C 	C 	0.5	0.7727	0.8371	-0.039
Mof_H 	H 	0.5	0.7434	0.8447	-0.041
Mof_C 	C 	0.5	0.7845	0.7943	0.002
Mof_C 	C 	0.5	0.8275	0.7832	-0.025
Mof_H 	H 	0.5	0.8356	0.754	-0.003
Mof_C 	C 	0.5	0.9034	0.7964	0.4
Mof_C 	C 	0.5	0.7857	0.9151	0.287
Mof_N 	N 	0.5	0.7439	0.7687	-0.116
Mof_O 	O 	0.5	0.7526	0.9402	-0.754
Mof_O 	O 	0.0644	-3.2803e-33	0.3255	-0.365
Mof_O 	O 	0.1773	0	0.4323	-0.424
Mof_O 	O 	0.2441	3.2803e-33	0.4084	-0.543
Mof_C 	C 	0.1852	-3.2803e-33	0.3586	-0.127
Mof_C 	C 	0.1424	0	0.3468	0.04
Mof_H 	H 	0.1208	0	0.368	0.041
Mof_C 	C 	0.1313	-3.2803e-33	0.3038	-0.108
Mof_C 	C 	0.1629	3.2803e-33	0.2727	-0.044
Mof_H 	H 	0.1553	3.2803e-33	0.2434	-0.026
Mof_C 	C 	0.2057	0	0.2845	0.019
Mof_C 	C 	0.2168	3.2803e-33	0.3275	-0.032
Mof_H 	H 	0.246	3.2803e-33	0.3356	0.009
Mof_C 	C 	0.2036	0	0.4034	0.395
Mof_C 	C 	0.0849	0	0.2857	0.29
Mof_N 	N 	0.2313	0	0.2439	-0.111
Mof_O 	O 	0.0598	0	0.2526	-0.719
Mof_O 	O 	0.0644	0.5	0.8255	-0.379
Mof_O 	O 	0.1773	0.5	0.9323	-0.462
Mof_O 	O 	0.2441	0.5	0.9084	-0.57
Mof_C 	C 	0.1852	0.5	0.8586	-0.146
Mof_C 	C 	0.1424	0.5	0.8468	0.046
Mof_H 	H 	0.1208	0.5	0.868	0.027
Mof_C 	C 	0.1313	0.5	0.8038	-0.122
Mof_C 	C 	0.1629	0.5	0.7727	-0.04
Mof_H 	H 	0.1553	0.5	0.7434	-0.035
Mof_C 	C 	0.2057	0.5	0.7845	0.007
Mof_C 	C 	0.2168	0.5	0.8275	-0.027
Mof_H 	H 	0.246	0.5	0.8356	-0.001
Mof_C 	C 	0.2036	0.5	0.9034	0.398
Mof_C 	C 	0.0849	0.5	0.7857	0.289
Mof_N 	N 	0.2313	0.5	0.7439	-0.114
Mof_O 	O 	0.0598	0.5	0.7526	-0.735
Mof_O 	O 	0.5644	0	0.8255	-0.371
Mof_O 	O 	0.6773	0	0.9323	-0.452
Mof_O 	O 	0.7441	0	0.9084	-0.56
Mof_C 	C 	0.6852	6.5606e-33	0.8586	-0.139
Mof_C 	C 	0.6424	0	0.8468	0.044
Mof_H 	H 	0.6208	0	0.868	0.032
Mof_C 	C 	0.6313	6.5606e-33	0.8038	-0.115
Mof_C 	C 	0.6629	0	0.7727	-0.041
Mof_H 	H 	0.6553	0	0.7434	-0.03
Mof_C 	C 	0.7057	-6.5606e-33	0.7845	0.012
Mof_C 	C 	0.7168	0	0.8275	-0.028
Mof_H 	H 	0.746	0	0.8356	0.002
Mof_C 	C 	0.7036	0	0.9034	0.398
Mof_C 	C 	0.5849	0	0.7857	0.291
Mof_N 	N 	0.7313	6.5606e-33	0.7439	-0.112
Mof_O 	O 	0.5598	0	0.7526	-0.72
Mof_O 	O 	0.5644	0.5	0.3255	-0.376
Mof_O 	O 	0.6773	0.5	0.4323	-0.437
Mof_O 	O 	0.7441	0.5	0.4084	-0.558
Mof_C 	C 	0.6852	0.5	0.3586	-0.138
Mof_C 	C 	0.6424	0.5	0.3468	0.044
Mof_H 	H 	0.6208	0.5	0.368	0.033
Mof_C 	C 	0.6313	0.5	0.3038	-0.119
Mof_C 	C 	0.6629	0.5	0.2727	-0.041
Mof_H 	H 	0.6553	0.5	0.2434	-0.034
Mof_C 	C 	0.7057	0.5	0.2845	0.009
Mof_C 	C 	0.7168	0.5	0.3275	-0.029
Mof_H 	H 	0.746	0.5	0.3356	0.001
Mof_C 	C 	0.7036	0.5	0.4034	0.397
Mof_C 	C 	0.5849	0.5	0.2857	0.289
Mof_N 	N 	0.7313	0.5	0.2439	-0.115
Mof_O 	O 	0.5598	0.5	0.2526	-0.734
Mof_O 	O 	0.9356	0	0.6745	-0.391
Mof_O 	O 	0.8227	0	0.5677	-0.429
Mof_O 	O 	0.7559	6.5606e-33	0.5916	-0.544
Mof_C 	C 	0.8148	0	0.6414	-0.134
Mof_C 	C 	0.8576	0	0.6532	0.043
Mof_H 	H 	0.8792	0	0.632	0.032
Mof_C 	C 	0.8687	0	0.6962	-0.118
Mof_C 	C 	0.8371	6.5606e-33	0.7273	-0.042
Mof_H 	H 	0.8447	0	0.7566	-0.035
Mof_C 	C 	0.7943	-6.5606e-33	0.7155	0.013
Mof_C 	C 	0.7832	6.5606e-33	0.6725	-0.03
Mof_H 	H 	0.754	6.5606e-33	0.6644	0.007
Mof_C 	C 	0.7964	0	0.5966	0.396
Mof_C 	C 	0.9151	0	0.7143	0.287
Mof_N 	N 	0.7687	-6.5606e-33	0.7561	-0.114
Mof_O 	O 	0.9402	0	0.7474	-0.74
Mof_O 	O 	0.9356	0.5	0.1745	-0.4
Mof_O 	O 	0.8227	0.5	0.0677	-0.44
Mof_O 	O 	0.7559	0.5	0.0916	-0.556
Mof_C 	C 	0.8148	0.5	0.1414	-0.141
Mof_C 	C 	0.8576	0.5	0.1532	0.045
Mof_H 	H 	0.8792	0.5	0.132	0.027
Mof_C 	C 	0.8687	0.5	0.1962	-0.125
Mof_C 	C 	0.8371	0.5	0.2273	-0.041
Mof_H 	H 	0.8447	0.5	0.2566	-0.039
Mof_C 	C 	0.7943	0.5	0.2155	0.007
Mof_C 	C 	0.7832	0.5	0.1725	-0.028
Mof_H 	H 	0.754	0.5	0.1644	0.002
Mof_C 	C 	0.7964	0.5	0.0966	0.396
Mof_C 	C 	0.9151	0.5	0.2143	0.286
Mof_N 	N 	0.7687	0.5	0.2561	-0.116
Mof_O 	O 	0.9402	0.5	0.2474	-0.753
Mof_O 	O 	0.4356	0	0.1745	-0.366
Mof_O 	O 	0.3227	-8.20075e-34	0.0677	-0.424
Mof_O 	O 	0.2559	0	0.0916	-0.541
Mof_C 	C 	0.3148	1.64015e-33	0.1414	-0.126
Mof_C 	C 	0.3576	0	0.1532	0.04
Mof_H 	H 	0.3792	-1.64015e-33	0.132	0.041
Mof_C 	C 	0.3687	-1.64015e-33	0.1962	-0.108
Mof_C 	C 	0.3371	0	0.2273	-0.044
Mof_H 	H 	0.3447	0	0.2566	-0.028
Mof_C 	C 	0.2943	0	0.2155	0.019
Mof_C 	C 	0.2832	1.64015e-33	0.1725	-0.033
Mof_H 	H 	0.254	0	0.1644	0.01
Mof_C 	C 	0.2964	8.20075e-34	0.0966	0.394
Mof_C 	C 	0.4151	0	0.2143	0.29
Mof_N 	N 	0.2687	0	0.2561	-0.111
Mof_O 	O 	0.4402	0	0.2474	-0.719
Mof_O 	O 	0.4356	0.5	0.6745	-0.376
Mof_O 	O 	0.3227	0.5	0.5677	-0.436
Mof_O 	O 	0.2559	0.5	0.5916	-0.555
Mof_C 	C 	0.3148	0.5	0.6414	-0.138
Mof_C 	C 	0.3576	0.5	0.6532	0.044
Mof_H 	H 	0.3792	0.5	0.632	0.033
Mof_C 	C 	0.3687	0.5	0.6962	-0.119
Mof_C 	C 	0.3371	0.5	0.7273	-0.041
Mof_H 	H 	0.3447	0.5	0.7566	-0.037
Mof_C 	C 	0.2943	0.5	0.7155	0.009
Mof_C 	C 	0.2832	0.5	0.6725	-0.029
Mof_H 	H 	0.254	0.5	0.6644	0.003
Mof_C 	C 	0.2964	0.5	0.5966	0.396
Mof_C 	C 	0.4151	0.5	0.7143	0.288
Mof_N 	N 	0.2687	0.5	0.7561	-0.116
Mof_O 	O 	0.4402	0.5	0.7474	-0.735
Mof_O 	O 	0.0644	0	0.6745	-0.365
Mof_O 	O 	0.1773	0	0.5677	-0.424
Mof_O 	O 	0.2441	6.5606e-33	0.5916	-0.543
Mof_C 	C 	0.1852	0	0.6414	-0.128
Mof_C 	C 	0.1424	0	0.6532	0.041
Mof_H 	H 	0.1208	0	0.632	0.041
Mof_C 	C 	0.1313	0	0.6962	-0.11
Mof_C 	C 	0.1629	6.5606e-33	0.7273	-0.044
Mof_H 	H 	0.1553	0	0.7566	-0.029
Mof_C 	C 	0.2057	-6.5606e-33	0.7155	0.017
Mof_C 	C 	0.2168	6.5606e-33	0.6725	-0.032
Mof_H 	H 	0.246	6.5606e-33	0.6644	0.008
Mof_C 	C 	0.2036	0	0.5966	0.395
Mof_C 	C 	0.0849	0	0.7143	0.289
Mof_N 	N 	0.2313	-6.5606e-33	0.7561	-0.113
Mof_O 	O 	0.0598	0	0.7474	-0.721
Mof_O 	O 	0.0644	0.5	0.1745	-0.374
Mof_O 	O 	0.1773	0.5	0.0677	-0.434
Mof_O 	O 	0.2441	0.5	0.0916	-0.555
Mof_C 	C 	0.1852	0.5	0.1414	-0.135
Mof_C 	C 	0.1424	0.5	0.1532	0.042
Mof_H 	H 	0.1208	0.5	0.132	0.036
Mof_C 	C 	0.1313	0.5	0.1962	-0.116
Mof_C 	C 	0.1629	0.5	0.2273	-0.043
Mof_H 	H 	0.1553	0.5	0.2566	-0.033
Mof_C 	C 	0.2057	0.5	0.2155	0.012
Mof_C 	C 	0.2168	0.5	0.1725	-0.03
Mof_H 	H 	0.246	0.5	0.1644	0.004
Mof_C 	C 	0.2036	0.5	0.0966	0.395
Mof_C 	C 	0.0849	0.5	0.2143	0.288
Mof_N 	N 	0.2313	0.5	0.2561	-0.114
Mof_O 	O 	0.0598	0.5	0.2474	-0.734
Mof_O 	O 	0.5644	0	0.1745	-0.366
Mof_O 	O 	0.6773	-8.20075e-34	0.0677	-0.424
Mof_O 	O 	0.7441	0	0.0916	-0.544
Mof_C 	C 	0.6852	1.64015e-33	0.1414	-0.128
Mof_C 	C 	0.6424	0	0.1532	0.041
Mof_H 	H 	0.6208	-1.64015e-33	0.132	0.041
Mof_C 	C 	0.6313	-1.64015e-33	0.1962	-0.109
Mof_C 	C 	0.6629	0	0.2273	-0.044
Mof_H 	H 	0.6553	0	0.2566	-0.028
Mof_C 	C 	0.7057	0	0.2155	0.017
Mof_C 	C 	0.7168	1.64015e-33	0.1725	-0.032
Mof_H 	H 	0.746	0	0.1644	0.007
Mof_C 	C 	0.7036	8.20075e-34	0.0966	0.394
Mof_C 	C 	0.5849	0	0.2143	0.29
Mof_N 	N 	0.7313	0	0.2561	-0.112
Mof_O 	O 	0.5598	0	0.2474	-0.719
Mof_O 	O 	0.5644	0.5	0.6745	-0.376
Mof_O 	O 	0.6773	0.5	0.5677	-0.437
Mof_O 	O 	0.7441	0.5	0.5916	-0.559
Mof_C 	C 	0.6852	0.5	0.6414	-0.139
Mof_C 	C 	0.6424	0.5	0.6532	0.044
Mof_H 	H 	0.6208	0.5	0.632	0.033
Mof_C 	C 	0.6313	0.5	0.6962	-0.12
Mof_C 	C 	0.6629	0.5	0.7273	-0.041
Mof_H 	H 	0.6553	0.5	0.7566	-0.038
Mof_C 	C 	0.7057	0.5	0.7155	0.007
Mof_C 	C 	0.7168	0.5	0.6725	-0.028
Mof_H 	H 	0.746	0.5	0.6644	-0
Mof_C 	C 	0.7036	0.5	0.5966	0.397
Mof_C 	C 	0.5849	0.5	0.7143	0.288
Mof_N 	N 	0.7313	0.5	0.7561	-0.116
Mof_O 	O 	0.5598	0.5	0.7474	-0.735
Mof_O 	O 	0.9356	-3.2803e-33	0.3255	-0.391
Mof_O 	O 	0.8227	0	0.4323	-0.429
Mof_O 	O 	0.7559	3.2803e-33	0.4084	-0.544
Mof_C 	C 	0.8148	-3.2803e-33	0.3586	-0.133
Mof_C 	C 	0.8576	0	0.3468	0.043
Mof_H 	H 	0.8792	0	0.368	0.033
Mof_C 	C 	0.8687	-3.2803e-33	0.3038	-0.117
Mof_C 	C 	0.8371	3.2803e-33	0.2727	-0.043
Mof_H 	H 	0.8447	3.2803e-33	0.2434	-0.032
Mof_C 	C 	0.7943	0	0.2845	0.015
Mof_C 	C 	0.7832	3.2803e-33	0.3275	-0.03
Mof_H 	H 	0.754	3.2803e-33	0.3356	0.007
Mof_C 	C 	0.7964	0	0.4034	0.396
Mof_C 	C 	0.9151	0	0.2857	0.288
Mof_N 	N 	0.7687	0	0.2439	-0.113
Mof_O 	O 	0.9402	0	0.2526	-0.738
Mof_O 	O 	0.9356	0.5	0.8255	-0.405
Mof_O 	O 	0.8227	0.5	0.9323	-0.468
Mof_O 	O 	0.7559	0.5	0.9084	-0.572
Mof_C 	C 	0.8148	0.5	0.8586	-0.152
Mof_C 	C 	0.8576	0.5	0.8468	0.048
Mof_H 	H 	0.8792	0.5	0.868	0.019
Mof_C 	C 	0.8687	0.5	0.8038	-0.131
Mof_C 	C 	0.8371	0.5	0.7727	-0.039
Mof_H 	H 	0.8447	0.5	0.7434	-0.041
Mof_C 	C 	0.7943	0.5	0.7845	0.002
Mof_C 	C 	0.7832	0.5	0.8275	-0.025
Mof_H 	H 	0.754	0.5	0.8356	-0.003
Mof_C 	C 	0.7964	0.5	0.9034	0.4
Mof_C 	C 	0.9151	0.5	0.7857	0.287
Mof_N 	N 	0.7687	0.5	0.7439	-0.116
Mof_O 	O 	0.9402	0.5	0.7526	-0.754
Mof_O 	O 	0.4356	0	0.8255	-0.371
Mof_O 	O 	0.3227	0	0.9323	-0.451
Mof_O 	O 	0.2559	0	0.9084	-0.556
Mof_C 	C 	0.3148	6.5606e-33	0.8586	-0.137
Mof_C 	C 	0.3576	0	0.8468	0.044
Mof_H 	H 	0.3792	0	0.868	0.033
Mof_C 	C 	0.3687	6.5606e-33	0.8038	-0.114
Mof_C 	C 	0.3371	0	0.7727	-0.042
Mof_H 	H 	0.3447	0	0.7434	-0.029
Mof_C 	C 	0.2943	-6.5606e-33	0.7845	0.014
Mof_C 	C 	0.2832	0	0.8275	-0.029
Mof_H 	H 	0.254	0	0.8356	0.005
Mof_C 	C 	0.2964	0	0.9034	0.397
Mof_C 	C 	0.4151	0	0.7857	0.291
Mof_N 	N 	0.2687	6.5606e-33	0.7439	-0.112
Mof_O 	O 	0.4402	0	0.7526	-0.72
Mof_O 	O 	0.4356	0.5	0.3255	-0.376
Mof_O 	O 	0.3227	0.5	0.4323	-0.436
Mof_O 	O 	0.2559	0.5	0.4084	-0.555
Mof_C 	C 	0.3148	0.5	0.3586	-0.137
Mof_C 	C 	0.3576	0.5	0.3468	0.043
Mof_H 	H 	0.3792	0.5	0.368	0.033
Mof_C 	C 	0.3687	0.5	0.3038	-0.118
Mof_C 	C 	0.3371	0.5	0.2727	-0.042
Mof_H 	H 	0.3447	0.5	0.2434	-0.034
Mof_C 	C 	0.2943	0.5	0.2845	0.011
Mof_C 	C 	0.2832	0.5	0.3275	-0.029
Mof_H 	H 	0.254	0.5	0.3356	0.004
Mof_C 	C 	0.2964	0.5	0.4034	0.396
Mof_C 	C 	0.4151	0.5	0.2857	0.289
Mof_N 	N 	0.2687	0.5	0.2439	-0.114
Mof_O 	O 	0.4402	0.5	0.2526	-0.733
_end
