data_functionalizedCrystal
_audit_creation_method	'EQeq! by Chris Wilmer'
_symmetry_space_group_name_H-M	'P1'
_symmetry_Int_Tables_number	1
_symmetry_cell_setting	triclinic
loop_
_symmetry_equiv_pos_as_xyz
  x,y,z
_cell_length_a	29.106
_cell_length_b	29.106
_cell_length_c	23.417
_cell_angle_alpha	90
_cell_angle_beta	90
_cell_angle_gamma	120
loop_
_atom_site_label
_atom_site_type_symbol
_atom_site_fract_x
_atom_site_fract_y
_atom_site_fract_z
_atom_site_charge
Mof_O 	O 	0.43413	0.71377	0.9828	-0.4
Mof_O 	O 	0.39683	0.62573	0.9731	-0.406
Mof_C 	C 	0.4337	0.6704	0.9883	0.371
Mof_C 	C 	0.482	0.6726	0.0142	-0.108
Mof_C 	C 	0.5293	0.7193	0.0213	0.035
Mof_H 	H 	0.531	0.752	0.0129	0.034
Mof_C 	C 	0.5749	0.7195	0.0406	-0.092
Mof_H 	H 	0.6072	0.7522	0.0444	0.071
Mof_C 	C 	0.5735	0.6729	0.0541	0.037
Mof_C 	C 	0.5246	0.6265	0.0525	-0.094
Mof_H 	H 	0.5219	0.5944	0.0659	0.062
Mof_C 	C 	0.4802	0.626	0.0319	0.035
Mof_H 	H 	0.4477	0.5933	0.0298	0.035
Mof_C 	C 	0.6226	0.6717	0.0696	0.077
Mof_C 	C 	0.6221	0.6233	0.0687	-0.119
Mof_H 	H 	0.5908	0.5917	0.0578	0.069
Mof_C 	C 	0.7136	0.5684	0.0865	-0.116
Mof_H 	H 	0.7468	0.6005	0.0886	0.068
Mof_C 	C 	0.7119	0.5202	0.0867	0.076
Mof_H 	H 	0.7444	0.5199	0.0893	0.013
Mof_O 	O 	0.1008	0.0471	0.31613	-0.4
Mof_O 	O 	0.0635	0.95906	0.30643	-0.401
Mof_C 	C 	0.10037	0.00373	0.32163	0.366
Mof_C 	C 	0.14867	0.00593	0.34753	-0.113
Mof_C 	C 	0.19597	0.05263	0.35463	0.035
Mof_H 	H 	0.19767	0.08533	0.34623	0.034
Mof_C 	C 	0.24157	0.05283	0.37393	-0.091
Mof_H 	H 	0.27387	0.08553	0.37773	0.071
Mof_C 	C 	0.24017	0.00623	0.38743	0.031
Mof_C 	C 	0.19127	0.95983	0.38583	-0.088
Mof_H 	H 	0.18857	0.92773	0.39923	0.06
Mof_C 	C 	0.14687	0.95933	0.36523	0.039
Mof_H 	H 	0.11437	0.92663	0.36313	0.033
Mof_C 	C 	0.28927	0.00503	0.40293	0.072
Mof_C 	C 	0.28877	0.95663	0.40203	-0.115
Mof_H 	H 	0.25747	0.92503	0.39113	0.067
Mof_C 	C 	0.38027	0.90173	0.41983	-0.115
Mof_H 	H 	0.41347	0.93383	0.42193	0.068
Mof_C 	C 	0.37857	0.85353	0.42003	0.075
Mof_H 	H 	0.41107	0.85323	0.42263	0.013
Mof_O 	O 	0.76746	0.38044	0.64947	-0.401
Mof_O 	O 	0.73016	0.2924	0.63977	-0.407
Mof_C 	C 	0.76703	0.33707	0.65497	0.371
Mof_C 	C 	0.81533	0.33927	0.68087	-0.109
Mof_C 	C 	0.86263	0.38597	0.68797	0.034
Mof_H 	H 	0.86433	0.41867	0.67957	0.033
Mof_C 	C 	0.90823	0.38617	0.70727	-0.092
Mof_H 	H 	0.94053	0.41887	0.71107	0.072
Mof_C 	C 	0.90683	0.33957	0.72077	0.036
Mof_C 	C 	0.85793	0.29317	0.71917	-0.094
Mof_H 	H 	0.85523	0.26107	0.73257	0.061
Mof_C 	C 	0.81353	0.29267	0.69857	0.035
Mof_H 	H 	0.78103	0.25997	0.69647	0.034
Mof_C 	C 	0.95593	0.33837	0.73627	0.079
Mof_C 	C 	0.95543	0.28997	0.73537	-0.113
Mof_H 	H 	0.92413	0.25837	0.72447	0.066
Mof_C 	C 	0.04693	0.23507	0.75317	-0.116
Mof_H 	H 	0.08013	0.26717	0.75527	0.067
Mof_C 	C 	0.04523	0.18687	0.75337	0.073
Mof_H 	H 	0.07773	0.18657	0.75597	0.013
Mof_O 	O 	0.28623	0.72036	0.9828	-0.401
Mof_O 	O 	0.37427	0.7711	0.9731	-0.407
Mof_C 	C 	0.3296	0.7633	0.9883	0.371
Mof_C 	C 	0.3274	0.8094	0.0142	-0.11
Mof_C 	C 	0.2807	0.81	0.0213	0.035
Mof_H 	H 	0.248	0.779	0.0129	0.032
Mof_C 	C 	0.2805	0.8554	0.0406	-0.094
Mof_H 	H 	0.2478	0.855	0.0444	0.07
Mof_C 	C 	0.3271	0.9006	0.0541	0.037
Mof_C 	C 	0.3735	0.8981	0.0525	-0.095
Mof_H 	H 	0.4056	0.9275	0.0659	0.062
Mof_C 	C 	0.374	0.8542	0.0319	0.035
Mof_H 	H 	0.4067	0.8544	0.0298	0.034
Mof_C 	C 	0.3283	0.9509	0.0696	0.074
Mof_C 	C 	0.3767	0.9988	0.0687	-0.111
Mof_H 	H 	0.4083	0.9991	0.0578	0.067
Mof_C 	C 	0.4316	0.1452	0.0865	-0.118
Mof_H 	H 	0.3995	0.1463	0.0886	0.067
Mof_C 	C 	0.4798	0.1917	0.0867	0.075
Mof_H 	H 	0.4801	0.2245	0.0893	0.012
Mof_O 	O 	0.9529	0.05369	0.31613	-0.403
Mof_O 	O 	0.04094	0.10443	0.30643	-0.412
Mof_C 	C 	0.99627	0.09663	0.32163	0.377
Mof_C 	C 	0.99407	0.14273	0.34753	-0.105
Mof_C 	C 	0.94737	0.14333	0.35463	0.035
Mof_H 	H 	0.91467	0.11233	0.34623	0.032
Mof_C 	C 	0.94717	0.18873	0.37393	-0.094
Mof_H 	H 	0.91447	0.18833	0.37773	0.071
Mof_C 	C 	0.99377	0.23393	0.38743	0.041
Mof_C 	C 	0.04017	0.23143	0.38583	-0.101
Mof_H 	H 	0.07227	0.26083	0.39923	0.062
Mof_C 	C 	0.04067	0.18753	0.36523	0.03
Mof_H 	H 	0.07337	0.18773	0.36313	0.035
Mof_C 	C 	0.99497	0.28423	0.40293	0.081
Mof_C 	C 	0.04337	0.33213	0.40203	-0.125
Mof_H 	H 	0.07497	0.33243	0.39113	0.069
Mof_C 	C 	0.09827	0.47853	0.41983	-0.118
Mof_H 	H 	0.06617	0.47963	0.42193	0.066
Mof_C 	C 	0.14647	0.52503	0.42003	0.076
Mof_H 	H 	0.14677	0.55783	0.42263	0.012
Mof_O 	O 	0.61956	0.38703	0.64947	-0.401
Mof_O 	O 	0.7076	0.43777	0.63977	-0.406
Mof_C 	C 	0.66293	0.42997	0.65497	0.371
Mof_C 	C 	0.66073	0.47607	0.68087	-0.109
Mof_C 	C 	0.61403	0.47667	0.68797	0.034
Mof_H 	H 	0.58133	0.44567	0.67957	0.033
Mof_C 	C 	0.61383	0.52207	0.70727	-0.093
Mof_H 	H 	0.58113	0.52167	0.71107	0.07
Mof_C 	C 	0.66043	0.56727	0.72077	0.036
Mof_C 	C 	0.70683	0.56477	0.71917	-0.095
Mof_H 	H 	0.73893	0.59417	0.73257	0.061
Mof_C 	C 	0.70733	0.52087	0.69857	0.034
Mof_H 	H 	0.74003	0.52107	0.69647	0.034
Mof_C 	C 	0.66163	0.61757	0.73627	0.076
Mof_C 	C 	0.71003	0.66547	0.73537	-0.12
Mof_H 	H 	0.74163	0.66577	0.72447	0.068
Mof_C 	C 	0.76493	0.81187	0.75317	-0.116
Mof_H 	H 	0.73283	0.81297	0.75527	0.067
Mof_C 	C 	0.81313	0.85837	0.75337	0.075
Mof_H 	H 	0.81343	0.89117	0.75597	0.012
Mof_O 	O 	0.27964	0.56587	0.9828	-0.401
Mof_O 	O 	0.2289	0.60317	0.9731	-0.407
Mof_C 	C 	0.2367	0.5663	0.9883	0.37
Mof_C 	C 	0.1906	0.518	0.0142	-0.109
Mof_C 	C 	0.19	0.4707	0.0213	0.033
Mof_H 	H 	0.221	0.469	0.0129	0.033
Mof_C 	C 	0.1446	0.4251	0.0406	-0.092
Mof_H 	H 	0.145	0.3928	0.0444	0.07
Mof_C 	C 	0.0994	0.4265	0.0541	0.034
Mof_C 	C 	0.1019	0.4754	0.0525	-0.094
Mof_H 	H 	0.0725	0.4781	0.0659	0.06
Mof_C 	C 	0.1458	0.5198	0.0319	0.033
Mof_H 	H 	0.1456	0.5523	0.0298	0.034
Mof_C 	C 	0.0491	0.3774	0.0696	0.078
Mof_C 	C 	0.0012	0.3779	0.0687	-0.129
Mof_H 	H 	0.0009	0.4092	0.0578	0.069
Mof_C 	C 	0.8548	0.2864	0.0865	-0.115
Mof_H 	H 	0.8537	0.2532	0.0886	0.067
Mof_C 	C 	0.8083	0.2881	0.0867	0.075
Mof_H 	H 	0.7755	0.2556	0.0893	0.012
Mof_O 	O 	0.94631	0.8992	0.31613	-0.397
Mof_O 	O 	0.89557	0.9365	0.30643	-0.403
Mof_C 	C 	0.90337	0.89963	0.32163	0.37
Mof_C 	C 	0.85727	0.85133	0.34753	-0.108
Mof_C 	C 	0.85667	0.80403	0.35463	0.034
Mof_H 	H 	0.88767	0.80233	0.34623	0.034
Mof_C 	C 	0.81127	0.75843	0.37393	-0.092
Mof_H 	H 	0.81167	0.72613	0.37773	0.07
Mof_C 	C 	0.76607	0.75983	0.38743	0.035
Mof_C 	C 	0.76857	0.80873	0.38583	-0.094
Mof_H 	H 	0.73917	0.81143	0.39923	0.061
Mof_C 	C 	0.81247	0.85313	0.36523	0.034
Mof_H 	H 	0.81227	0.88563	0.36313	0.035
Mof_C 	C 	0.71577	0.71073	0.40293	0.076
Mof_C 	C 	0.66787	0.71123	0.40203	-0.12
Mof_H 	H 	0.66757	0.74253	0.39113	0.068
Mof_C 	C 	0.52147	0.61973	0.41983	-0.117
Mof_H 	H 	0.52037	0.58653	0.42193	0.067
Mof_C 	C 	0.47497	0.62143	0.42003	0.075
Mof_H 	H 	0.44217	0.58893	0.42263	0.012
Mof_O 	O 	0.61297	0.23254	0.64947	-0.401
Mof_O 	O 	0.56223	0.26984	0.63977	-0.407
Mof_C 	C 	0.57003	0.23297	0.65497	0.371
Mof_C 	C 	0.52393	0.18467	0.68087	-0.109
Mof_C 	C 	0.52333	0.13737	0.68797	0.034
Mof_H 	H 	0.55433	0.13567	0.67957	0.033
Mof_C 	C 	0.47793	0.09177	0.70727	-0.093
Mof_H 	H 	0.47833	0.05947	0.71107	0.069
Mof_C 	C 	0.43273	0.09317	0.72077	0.035
Mof_C 	C 	0.43523	0.14207	0.71917	-0.095
Mof_H 	H 	0.40583	0.14477	0.73257	0.061
Mof_C 	C 	0.47913	0.18647	0.69857	0.034
Mof_H 	H 	0.47893	0.21897	0.69647	0.034
Mof_C 	C 	0.38243	0.04407	0.73627	0.074
Mof_C 	C 	0.33453	0.04457	0.73537	-0.118
Mof_H 	H 	0.33423	0.07587	0.72447	0.067
Mof_C 	C 	0.18813	0.95307	0.75317	-0.111
Mof_H 	H 	0.18703	0.91987	0.75527	0.066
Mof_C 	C 	0.14163	0.95477	0.75337	0.079
Mof_H 	H 	0.10883	0.92227	0.75597	0.011
Mof_O 	O 	0.71377	0.43413	0.5172	-0.401
Mof_O 	O 	0.62573	0.39683	0.5269	-0.407
Mof_C 	C 	0.6704	0.4337	0.5117	0.371
Mof_C 	C 	0.6726	0.482	0.4858	-0.109
Mof_C 	C 	0.7193	0.5293	0.4787	0.034
Mof_H 	H 	0.752	0.531	0.4871	0.033
Mof_C 	C 	0.7195	0.5749	0.4594	-0.093
Mof_H 	H 	0.7522	0.6072	0.4556	0.07
Mof_C 	C 	0.6729	0.5735	0.4459	0.036
Mof_C 	C 	0.6265	0.5246	0.4475	-0.095
Mof_H 	H 	0.5944	0.5219	0.4341	0.061
Mof_C 	C 	0.626	0.4802	0.4681	0.034
Mof_H 	H 	0.5933	0.4477	0.4702	0.034
Mof_C 	C 	0.6717	0.6226	0.4304	0.076
Mof_C 	C 	0.6233	0.6221	0.4313	-0.12
Mof_H 	H 	0.5917	0.5908	0.4422	0.068
Mof_C 	C 	0.5684	0.7136	0.4135	-0.117
Mof_H 	H 	0.6005	0.7468	0.4114	0.067
Mof_C 	C 	0.5202	0.7119	0.4133	0.075
Mof_H 	H 	0.5199	0.7444	0.4107	0.012
Mof_O 	O 	0.38044	0.76746	0.85053	-0.401
Mof_O 	O 	0.2924	0.73016	0.86023	-0.407
Mof_C 	C 	0.33707	0.76703	0.84503	0.371
Mof_C 	C 	0.33927	0.81533	0.81913	-0.109
Mof_C 	C 	0.38597	0.86263	0.81203	0.034
Mof_H 	H 	0.41867	0.86433	0.82043	0.033
Mof_C 	C 	0.38617	0.90823	0.79273	-0.092
Mof_H 	H 	0.41887	0.94053	0.78893	0.072
Mof_C 	C 	0.33957	0.90683	0.77923	0.036
Mof_C 	C 	0.29317	0.85793	0.78083	-0.094
Mof_H 	H 	0.26107	0.85523	0.76743	0.061
Mof_C 	C 	0.29267	0.81353	0.80143	0.035
Mof_H 	H 	0.25997	0.78103	0.80353	0.034
Mof_C 	C 	0.33837	0.95593	0.76373	0.079
Mof_C 	C 	0.28997	0.95543	0.76463	-0.113
Mof_H 	H 	0.25837	0.92413	0.77553	0.066
Mof_C 	C 	0.23507	0.04693	0.74683	-0.116
Mof_H 	H 	0.26717	0.08013	0.74473	0.067
Mof_C 	C 	0.18687	0.04523	0.74663	0.073
Mof_H 	H 	0.18657	0.07773	0.74403	0.013
Mof_O 	O 	0.0471	0.1008	0.18387	-0.401
Mof_O 	O 	0.95906	0.0635	0.19357	-0.402
Mof_C 	C 	0.00373	0.10037	0.17837	0.365
Mof_C 	C 	0.00593	0.14867	0.15247	-0.114
Mof_C 	C 	0.05263	0.19597	0.14537	0.034
Mof_H 	H 	0.08533	0.19767	0.15377	0.033
Mof_C 	C 	0.05283	0.24157	0.12607	-0.092
Mof_H 	H 	0.08553	0.27387	0.12227	0.07
Mof_C 	C 	0.00623	0.24017	0.11257	0.03
Mof_C 	C 	0.95983	0.19127	0.11417	-0.089
Mof_H 	H 	0.92773	0.18857	0.10077	0.06
Mof_C 	C 	0.95933	0.14687	0.13477	0.039
Mof_H 	H 	0.92663	0.11437	0.13687	0.033
Mof_C 	C 	0.00503	0.28927	0.09707	0.072
Mof_C 	C 	0.95663	0.28877	0.09797	-0.115
Mof_H 	H 	0.92503	0.25747	0.10887	0.067
Mof_C 	C 	0.90173	0.38027	0.08017	-0.115
Mof_H 	H 	0.93383	0.41347	0.07807	0.068
Mof_C 	C 	0.85353	0.37857	0.07997	0.075
Mof_H 	H 	0.85323	0.41107	0.07737	0.013
Mof_O 	O 	0.72036	0.28623	0.5172	-0.401
Mof_O 	O 	0.7711	0.37427	0.5269	-0.407
Mof_C 	C 	0.7633	0.3296	0.5117	0.371
Mof_C 	C 	0.8094	0.3274	0.4858	-0.11
Mof_C 	C 	0.81	0.2807	0.4787	0.035
Mof_H 	H 	0.779	0.248	0.4871	0.032
Mof_C 	C 	0.8554	0.2805	0.4594	-0.094
Mof_H 	H 	0.855	0.2478	0.4556	0.071
Mof_C 	C 	0.9006	0.3271	0.4459	0.037
Mof_C 	C 	0.8981	0.3735	0.4475	-0.095
Mof_H 	H 	0.9275	0.4056	0.4341	0.062
Mof_C 	C 	0.8542	0.374	0.4681	0.035
Mof_H 	H 	0.8544	0.4067	0.4702	0.034
Mof_C 	C 	0.9509	0.3283	0.4304	0.074
Mof_C 	C 	0.9988	0.3767	0.4313	-0.111
Mof_H 	H 	0.9991	0.4083	0.4422	0.067
Mof_C 	C 	0.1452	0.4316	0.4135	-0.118
Mof_H 	H 	0.1463	0.3995	0.4114	0.067
Mof_C 	C 	0.1917	0.4798	0.4133	0.075
Mof_H 	H 	0.2245	0.4801	0.4107	0.012
Mof_O 	O 	0.38703	0.61956	0.85053	-0.401
Mof_O 	O 	0.43777	0.7076	0.86023	-0.406
Mof_C 	C 	0.42997	0.66293	0.84503	0.371
Mof_C 	C 	0.47607	0.66073	0.81913	-0.109
Mof_C 	C 	0.47667	0.61403	0.81203	0.034
Mof_H 	H 	0.44567	0.58133	0.82043	0.033
Mof_C 	C 	0.52207	0.61383	0.79273	-0.093
Mof_H 	H 	0.52167	0.58113	0.78893	0.07
Mof_C 	C 	0.56727	0.66043	0.77923	0.036
Mof_C 	C 	0.56477	0.70683	0.78083	-0.095
Mof_H 	H 	0.59417	0.73893	0.76743	0.061
Mof_C 	C 	0.52087	0.70733	0.80143	0.034
Mof_H 	H 	0.52107	0.74003	0.80353	0.034
Mof_C 	C 	0.61757	0.66163	0.76373	0.076
Mof_C 	C 	0.66547	0.71003	0.76463	-0.12
Mof_H 	H 	0.66577	0.74163	0.77553	0.068
Mof_C 	C 	0.81187	0.76493	0.74683	-0.116
Mof_H 	H 	0.81297	0.73283	0.74473	0.067
Mof_C 	C 	0.85837	0.81313	0.74663	0.075
Mof_H 	H 	0.89117	0.81343	0.74403	0.012
Mof_O 	O 	0.05369	0.9529	0.18387	-0.403
Mof_O 	O 	0.10443	0.04094	0.19357	-0.412
Mof_C 	C 	0.09663	0.99627	0.17837	0.377
Mof_C 	C 	0.14273	0.99407	0.15247	-0.105
Mof_C 	C 	0.14333	0.94737	0.14537	0.035
Mof_H 	H 	0.11233	0.91467	0.15377	0.032
Mof_C 	C 	0.18873	0.94717	0.12607	-0.094
Mof_H 	H 	0.18833	0.91447	0.12227	0.07
Mof_C 	C 	0.23393	0.99377	0.11257	0.041
Mof_C 	C 	0.23143	0.04017	0.11417	-0.101
Mof_H 	H 	0.26083	0.07227	0.10077	0.062
Mof_C 	C 	0.18753	0.04067	0.13477	0.03
Mof_H 	H 	0.18773	0.07337	0.13687	0.035
Mof_C 	C 	0.28423	0.99497	0.09707	0.08
Mof_C 	C 	0.33213	0.04337	0.09797	-0.125
Mof_H 	H 	0.33243	0.07497	0.10887	0.069
Mof_C 	C 	0.47853	0.09827	0.08017	-0.118
Mof_H 	H 	0.47963	0.06617	0.07807	0.066
Mof_C 	C 	0.52503	0.14647	0.07997	0.076
Mof_H 	H 	0.55783	0.14677	0.07737	0.012
Mof_O 	O 	0.56587	0.27964	0.5172	-0.401
Mof_O 	O 	0.60317	0.2289	0.5269	-0.407
Mof_C 	C 	0.5663	0.2367	0.5117	0.37
Mof_C 	C 	0.518	0.1906	0.4858	-0.109
Mof_C 	C 	0.4707	0.19	0.4787	0.033
Mof_H 	H 	0.469	0.221	0.4871	0.033
Mof_C 	C 	0.4251	0.1446	0.4594	-0.092
Mof_H 	H 	0.3928	0.145	0.4556	0.07
Mof_C 	C 	0.4265	0.0994	0.4459	0.034
Mof_C 	C 	0.4754	0.1019	0.4475	-0.094
Mof_H 	H 	0.4781	0.0725	0.4341	0.06
Mof_C 	C 	0.5198	0.1458	0.4681	0.033
Mof_H 	H 	0.5523	0.1456	0.4702	0.034
Mof_C 	C 	0.3774	0.0491	0.4304	0.078
Mof_C 	C 	0.3779	0.0012	0.4313	-0.129
Mof_H 	H 	0.4092	0.0009	0.4422	0.069
Mof_C 	C 	0.2864	0.8548	0.4135	-0.115
Mof_H 	H 	0.2532	0.8537	0.4114	0.067
Mof_C 	C 	0.2881	0.8083	0.4133	0.075
Mof_H 	H 	0.2556	0.7755	0.4107	0.012
Mof_O 	O 	0.23254	0.61297	0.85053	-0.401
Mof_O 	O 	0.26984	0.56223	0.86023	-0.407
Mof_C 	C 	0.23297	0.57003	0.84503	0.371
Mof_C 	C 	0.18467	0.52393	0.81913	-0.109
Mof_C 	C 	0.13737	0.52333	0.81203	0.034
Mof_H 	H 	0.13567	0.55433	0.82043	0.033
Mof_C 	C 	0.09177	0.47793	0.79273	-0.093
Mof_H 	H 	0.05947	0.47833	0.78893	0.069
Mof_C 	C 	0.09317	0.43273	0.77923	0.035
Mof_C 	C 	0.14207	0.43523	0.78083	-0.095
Mof_H 	H 	0.14477	0.40583	0.76743	0.061
Mof_C 	C 	0.18647	0.47913	0.80143	0.034
Mof_H 	H 	0.21897	0.47893	0.80353	0.034
Mof_C 	C 	0.04407	0.38243	0.76373	0.074
Mof_C 	C 	0.04457	0.33453	0.76463	-0.118
Mof_H 	H 	0.07587	0.33423	0.77553	0.067
Mof_C 	C 	0.95307	0.18813	0.74683	-0.111
Mof_H 	H 	0.91987	0.18703	0.74473	0.066
Mof_C 	C 	0.95477	0.14163	0.74663	0.079
Mof_H 	H 	0.92227	0.10883	0.74403	0.011
Mof_O 	O 	0.8992	0.94631	0.18387	-0.397
Mof_O 	O 	0.9365	0.89557	0.19357	-0.403
Mof_C 	C 	0.89963	0.90337	0.17837	0.37
Mof_C 	C 	0.85133	0.85727	0.15247	-0.108
Mof_C 	C 	0.80403	0.85667	0.14537	0.034
Mof_H 	H 	0.80233	0.88767	0.15377	0.034
Mof_C 	C 	0.75843	0.81127	0.12607	-0.092
Mof_H 	H 	0.72613	0.81167	0.12227	0.07
Mof_C 	C 	0.75983	0.76607	0.11257	0.035
Mof_C 	C 	0.80873	0.76857	0.11417	-0.094
Mof_H 	H 	0.81143	0.73917	0.10077	0.061
Mof_C 	C 	0.85313	0.81247	0.13477	0.034
Mof_H 	H 	0.88563	0.81227	0.13687	0.035
Mof_C 	C 	0.71073	0.71577	0.09707	0.076
Mof_C 	C 	0.71123	0.66787	0.09797	-0.12
Mof_H 	H 	0.74253	0.66757	0.10887	0.068
Mof_C 	C 	0.61973	0.52147	0.08017	-0.117
Mof_H 	H 	0.58653	0.52037	0.07807	0.067
Mof_C 	C 	0.62143	0.47497	0.07997	0.075
Mof_H 	H 	0.58893	0.44217	0.07737	0.012
Mof_O 	O 	0.56587	0.28623	0.0172	-0.401
Mof_O 	O 	0.60317	0.37427	0.0269	-0.407
Mof_C 	C 	0.5663	0.3296	0.0117	0.371
Mof_C 	C 	0.518	0.3274	0.9858	-0.109
Mof_C 	C 	0.4707	0.2807	0.9787	0.034
Mof_H 	H 	0.469	0.248	0.9871	0.033
Mof_C 	C 	0.4251	0.2805	0.9594	-0.093
Mof_H 	H 	0.3928	0.2478	0.9556	0.07
Mof_C 	C 	0.4265	0.3271	0.9459	0.036
Mof_C 	C 	0.4754	0.3735	0.9475	-0.095
Mof_H 	H 	0.4781	0.4056	0.9341	0.061
Mof_C 	C 	0.5198	0.374	0.9681	0.034
Mof_H 	H 	0.5523	0.4067	0.9702	0.034
Mof_C 	C 	0.3774	0.3283	0.9304	0.076
Mof_C 	C 	0.3779	0.3767	0.9313	-0.12
Mof_H 	H 	0.4092	0.4083	0.9422	0.068
Mof_C 	C 	0.2864	0.4316	0.9135	-0.117
Mof_H 	H 	0.2532	0.3995	0.9114	0.067
Mof_C 	C 	0.2881	0.4798	0.9133	0.075
Mof_H 	H 	0.2556	0.4801	0.9107	0.012
Mof_O 	O 	0.23254	0.61956	0.35053	-0.401
Mof_O 	O 	0.26984	0.7076	0.36023	-0.407
Mof_C 	C 	0.23297	0.66293	0.34503	0.371
Mof_C 	C 	0.18467	0.66073	0.31913	-0.109
Mof_C 	C 	0.13737	0.61403	0.31203	0.034
Mof_H 	H 	0.13567	0.58133	0.32043	0.033
Mof_C 	C 	0.09177	0.61383	0.29273	-0.093
Mof_H 	H 	0.05947	0.58113	0.28893	0.069
Mof_C 	C 	0.09317	0.66043	0.27923	0.035
Mof_C 	C 	0.14207	0.70683	0.28083	-0.095
Mof_H 	H 	0.14477	0.73893	0.26743	0.061
Mof_C 	C 	0.18647	0.70733	0.30143	0.034
Mof_H 	H 	0.21897	0.74003	0.30353	0.034
Mof_C 	C 	0.04407	0.66163	0.26373	0.074
Mof_C 	C 	0.04457	0.71003	0.26463	-0.118
Mof_H 	H 	0.07587	0.74163	0.27553	0.067
Mof_C 	C 	0.95307	0.76493	0.24683	-0.11
Mof_H 	H 	0.91987	0.73283	0.24473	0.066
Mof_C 	C 	0.95477	0.81313	0.24663	0.079
Mof_H 	H 	0.92227	0.81343	0.24403	0.011
Mof_O 	O 	0.8992	0.9529	0.68387	-0.4
Mof_O 	O 	0.9365	0.04094	0.69357	-0.409
Mof_C 	C 	0.89963	0.99627	0.67837	0.377
Mof_C 	C 	0.85133	0.99407	0.65247	-0.103
Mof_C 	C 	0.80403	0.94737	0.64537	0.034
Mof_H 	H 	0.80233	0.91467	0.65377	0.033
Mof_C 	C 	0.75843	0.94717	0.62607	-0.093
Mof_H 	H 	0.72613	0.91447	0.62227	0.071
Mof_C 	C 	0.75983	0.99377	0.61257	0.041
Mof_C 	C 	0.80873	0.04017	0.61417	-0.1
Mof_H 	H 	0.81143	0.07227	0.60077	0.062
Mof_C 	C 	0.85313	0.04067	0.63477	0.029
Mof_H 	H 	0.88563	0.07337	0.63687	0.036
Mof_C 	C 	0.71073	0.99497	0.59707	0.081
Mof_C 	C 	0.71123	0.04337	0.59797	-0.125
Mof_H 	H 	0.74253	0.07497	0.60887	0.069
Mof_C 	C 	0.61973	0.09827	0.58017	-0.118
Mof_H 	H 	0.58653	0.06617	0.57807	0.066
Mof_C 	C 	0.62143	0.14647	0.57997	0.075
Mof_H 	H 	0.58893	0.14677	0.57737	0.012
Mof_O 	O 	0.71377	0.27964	0.0172	-0.401
Mof_O 	O 	0.62573	0.2289	0.0269	-0.407
Mof_C 	C 	0.6704	0.2367	0.0117	0.37
Mof_C 	C 	0.6726	0.1906	0.9858	-0.109
Mof_C 	C 	0.7193	0.19	0.9787	0.034
Mof_H 	H 	0.752	0.221	0.9871	0.033
Mof_C 	C 	0.7195	0.1446	0.9594	-0.092
Mof_H 	H 	0.7522	0.145	0.9556	0.07
Mof_C 	C 	0.6729	0.0994	0.9459	0.034
Mof_C 	C 	0.6265	0.1019	0.9475	-0.094
Mof_H 	H 	0.5944	0.0725	0.9341	0.06
Mof_C 	C 	0.626	0.1458	0.9681	0.034
Mof_H 	H 	0.5933	0.1456	0.9702	0.034
Mof_C 	C 	0.6717	0.0491	0.9304	0.078
Mof_C 	C 	0.6233	0.0012	0.9313	-0.129
Mof_H 	H 	0.5917	0.0009	0.9422	0.069
Mof_C 	C 	0.5684	0.8548	0.9135	-0.116
Mof_H 	H 	0.6005	0.8537	0.9114	0.067
Mof_C 	C 	0.5202	0.8083	0.9133	0.075
Mof_H 	H 	0.5199	0.7755	0.9107	0.012
Mof_O 	O 	0.38044	0.61297	0.35053	-0.401
Mof_O 	O 	0.2924	0.56223	0.36023	-0.406
Mof_C 	C 	0.33707	0.57003	0.34503	0.371
Mof_C 	C 	0.33927	0.52393	0.31913	-0.109
Mof_C 	C 	0.38597	0.52333	0.31203	0.034
Mof_H 	H 	0.41867	0.55433	0.32043	0.033
Mof_C 	C 	0.38617	0.47793	0.29273	-0.093
Mof_H 	H 	0.41887	0.47833	0.28893	0.07
Mof_C 	C 	0.33957	0.43273	0.27923	0.036
Mof_C 	C 	0.29317	0.43523	0.28083	-0.095
Mof_H 	H 	0.26107	0.40583	0.26743	0.061
Mof_C 	C 	0.29267	0.47913	0.30143	0.034
Mof_H 	H 	0.25997	0.47893	0.30353	0.034
Mof_C 	C 	0.33837	0.38243	0.26373	0.076
Mof_C 	C 	0.28997	0.33453	0.26463	-0.12
Mof_H 	H 	0.25837	0.33423	0.27553	0.068
Mof_C 	C 	0.23507	0.18813	0.24683	-0.117
Mof_H 	H 	0.26717	0.18703	0.24473	0.067
Mof_C 	C 	0.18687	0.14163	0.24663	0.075
Mof_H 	H 	0.18657	0.10883	0.24403	0.012
Mof_O 	O 	0.0471	0.94631	0.68387	-0.398
Mof_O 	O 	0.95906	0.89557	0.69357	-0.4
Mof_C 	C 	0.00373	0.90337	0.67837	0.364
Mof_C 	C 	0.00593	0.85727	0.65247	-0.113
Mof_C 	C 	0.05263	0.85667	0.64537	0.034
Mof_H 	H 	0.08533	0.88767	0.65377	0.033
Mof_C 	C 	0.05283	0.81127	0.62607	-0.092
Mof_H 	H 	0.08553	0.81167	0.62227	0.07
Mof_C 	C 	0.00623	0.76607	0.61257	0.03
Mof_C 	C 	0.95983	0.76857	0.61417	-0.088
Mof_H 	H 	0.92773	0.73917	0.60077	0.06
Mof_C 	C 	0.95933	0.81247	0.63477	0.039
Mof_H 	H 	0.92663	0.81227	0.63687	0.034
Mof_C 	C 	0.00503	0.71577	0.59707	0.071
Mof_C 	C 	0.95663	0.66787	0.59797	-0.115
Mof_H 	H 	0.92503	0.66757	0.60887	0.067
Mof_C 	C 	0.90173	0.52147	0.58017	-0.115
Mof_H 	H 	0.93383	0.52037	0.57807	0.068
Mof_C 	C 	0.85353	0.47497	0.57997	0.075
Mof_H 	H 	0.85323	0.44217	0.57737	0.012
Mof_O 	O 	0.72036	0.43413	0.0172	-0.401
Mof_O 	O 	0.7711	0.39683	0.0269	-0.407
Mof_C 	C 	0.7633	0.4337	0.0117	0.371
Mof_C 	C 	0.8094	0.482	0.9858	-0.11
Mof_C 	C 	0.81	0.5293	0.9787	0.035
Mof_H 	H 	0.779	0.531	0.9871	0.033
Mof_C 	C 	0.8554	0.5749	0.9594	-0.094
Mof_H 	H 	0.855	0.6072	0.9556	0.071
Mof_C 	C 	0.9006	0.5735	0.9459	0.037
Mof_C 	C 	0.8981	0.5246	0.9475	-0.096
Mof_H 	H 	0.9275	0.5219	0.9341	0.062
Mof_C 	C 	0.8542	0.4802	0.9681	0.035
Mof_H 	H 	0.8544	0.4477	0.9702	0.034
Mof_C 	C 	0.9509	0.6226	0.9304	0.074
Mof_C 	C 	0.9988	0.6221	0.9313	-0.111
Mof_H 	H 	0.9991	0.5908	0.9422	0.067
Mof_C 	C 	0.1452	0.7136	0.9135	-0.118
Mof_H 	H 	0.1463	0.7468	0.9114	0.068
Mof_C 	C 	0.1917	0.7119	0.9133	0.076
Mof_H 	H 	0.2245	0.7444	0.9107	0.012
Mof_O 	O 	0.38703	0.76746	0.35053	-0.401
Mof_O 	O 	0.43777	0.73016	0.36023	-0.406
Mof_C 	C 	0.42997	0.76703	0.34503	0.371
Mof_C 	C 	0.47607	0.81533	0.31913	-0.109
Mof_C 	C 	0.47667	0.86263	0.31203	0.034
Mof_H 	H 	0.44567	0.86433	0.32043	0.033
Mof_C 	C 	0.52207	0.90823	0.29273	-0.092
Mof_H 	H 	0.52167	0.94053	0.28893	0.072
Mof_C 	C 	0.56727	0.90683	0.27923	0.036
Mof_C 	C 	0.56477	0.85793	0.28083	-0.094
Mof_H 	H 	0.59417	0.85523	0.26743	0.061
Mof_C 	C 	0.52087	0.81353	0.30143	0.035
Mof_H 	H 	0.52107	0.78103	0.30353	0.034
Mof_C 	C 	0.61757	0.95593	0.26373	0.079
Mof_C 	C 	0.66547	0.95543	0.26463	-0.112
Mof_H 	H 	0.66577	0.92413	0.27553	0.066
Mof_C 	C 	0.81187	0.04693	0.24683	-0.115
Mof_H 	H 	0.81297	0.08013	0.24473	0.067
Mof_C 	C 	0.85837	0.04523	0.24663	0.073
Mof_H 	H 	0.89117	0.07773	0.24403	0.013
Mof_O 	O 	0.05369	0.1008	0.68387	-0.403
Mof_O 	O 	0.10443	0.0635	0.69357	-0.408
Mof_C 	C 	0.09663	0.10037	0.67837	0.371
Mof_C 	C 	0.14273	0.14867	0.65247	-0.11
Mof_C 	C 	0.14333	0.19597	0.64537	0.034
Mof_H 	H 	0.11233	0.19767	0.65377	0.032
Mof_C 	C 	0.18873	0.24157	0.62607	-0.093
Mof_H 	H 	0.18833	0.27387	0.62227	0.07
Mof_C 	C 	0.23393	0.24017	0.61257	0.036
Mof_C 	C 	0.23143	0.19127	0.61417	-0.095
Mof_H 	H 	0.26083	0.18857	0.60077	0.061
Mof_C 	C 	0.18753	0.14687	0.63477	0.035
Mof_H 	H 	0.18773	0.11437	0.63687	0.034
Mof_C 	C 	0.28423	0.28927	0.59707	0.076
Mof_C 	C 	0.33213	0.28877	0.59797	-0.12
Mof_H 	H 	0.33243	0.25747	0.60887	0.068
Mof_C 	C 	0.47853	0.38027	0.58017	-0.117
Mof_H 	H 	0.47963	0.41347	0.57807	0.067
Mof_C 	C 	0.52503	0.37857	0.57997	0.075
Mof_H 	H 	0.55783	0.41107	0.57737	0.012
Mof_O 	O 	0.28623	0.56587	0.4828	-0.401
Mof_O 	O 	0.37427	0.60317	0.4731	-0.407
Mof_C 	C 	0.3296	0.5663	0.4883	0.371
Mof_C 	C 	0.3274	0.518	0.5142	-0.109
Mof_C 	C 	0.2807	0.4707	0.5213	0.034
Mof_H 	H 	0.248	0.469	0.5129	0.033
Mof_C 	C 	0.2805	0.4251	0.5406	-0.093
Mof_H 	H 	0.2478	0.3928	0.5444	0.07
Mof_C 	C 	0.3271	0.4265	0.5541	0.035
Mof_C 	C 	0.3735	0.4754	0.5525	-0.095
Mof_H 	H 	0.4056	0.4781	0.5659	0.061
Mof_C 	C 	0.374	0.5198	0.5319	0.034
Mof_H 	H 	0.4067	0.5523	0.5298	0.034
Mof_C 	C 	0.3283	0.3774	0.5696	0.076
Mof_C 	C 	0.3767	0.3779	0.5687	-0.12
Mof_H 	H 	0.4083	0.4092	0.5578	0.068
Mof_C 	C 	0.4316	0.2864	0.5865	-0.117
Mof_H 	H 	0.3995	0.2532	0.5886	0.067
Mof_C 	C 	0.4798	0.2881	0.5867	0.075
Mof_H 	H 	0.4801	0.2556	0.5893	0.012
Mof_O 	O 	0.9529	0.8992	0.81613	-0.4
Mof_O 	O 	0.04094	0.9365	0.80643	-0.409
Mof_C 	C 	0.99627	0.89963	0.82163	0.377
Mof_C 	C 	0.99407	0.85133	0.84753	-0.104
Mof_C 	C 	0.94737	0.80403	0.85463	0.034
Mof_H 	H 	0.91467	0.80233	0.84623	0.033
Mof_C 	C 	0.94717	0.75843	0.87393	-0.093
Mof_H 	H 	0.91447	0.72613	0.87773	0.071
Mof_C 	C 	0.99377	0.75983	0.88743	0.041
Mof_C 	C 	0.04017	0.80873	0.88583	-0.1
Mof_H 	H 	0.07227	0.81143	0.89923	0.062
Mof_C 	C 	0.04067	0.85313	0.86523	0.029
Mof_H 	H 	0.07337	0.88563	0.86313	0.036
Mof_C 	C 	0.99497	0.71073	0.90293	0.081
Mof_C 	C 	0.04337	0.71123	0.90203	-0.125
Mof_H 	H 	0.07497	0.74253	0.89113	0.069
Mof_C 	C 	0.09827	0.61973	0.91983	-0.118
Mof_H 	H 	0.06617	0.58653	0.92193	0.066
Mof_C 	C 	0.14647	0.62143	0.92003	0.075
Mof_H 	H 	0.14677	0.58893	0.92263	0.012
Mof_O 	O 	0.61956	0.23254	0.14947	-0.401
Mof_O 	O 	0.7076	0.26984	0.13977	-0.406
Mof_C 	C 	0.66293	0.23297	0.15497	0.371
Mof_C 	C 	0.66073	0.18467	0.18087	-0.109
Mof_C 	C 	0.61403	0.13737	0.18797	0.034
Mof_H 	H 	0.58133	0.13567	0.17957	0.033
Mof_C 	C 	0.61383	0.09177	0.20727	-0.093
Mof_H 	H 	0.58113	0.05947	0.21107	0.069
Mof_C 	C 	0.66043	0.09317	0.22077	0.035
Mof_C 	C 	0.70683	0.14207	0.21917	-0.095
Mof_H 	H 	0.73893	0.14477	0.23257	0.061
Mof_C 	C 	0.70733	0.18647	0.19857	0.034
Mof_H 	H 	0.74003	0.21897	0.19647	0.034
Mof_C 	C 	0.66163	0.04407	0.23627	0.074
Mof_C 	C 	0.71003	0.04457	0.23537	-0.118
Mof_H 	H 	0.74163	0.07587	0.22447	0.067
Mof_C 	C 	0.76493	0.95307	0.25317	-0.11
Mof_H 	H 	0.73283	0.91987	0.25527	0.066
Mof_C 	C 	0.81313	0.95477	0.25337	0.079
Mof_H 	H 	0.81343	0.92227	0.25597	0.011
Mof_O 	O 	0.27964	0.71377	0.4828	-0.401
Mof_O 	O 	0.2289	0.62573	0.4731	-0.407
Mof_C 	C 	0.2367	0.6704	0.4883	0.37
Mof_C 	C 	0.1906	0.6726	0.5142	-0.109
Mof_C 	C 	0.19	0.7193	0.5213	0.033
Mof_H 	H 	0.221	0.752	0.5129	0.033
Mof_C 	C 	0.1446	0.7195	0.5406	-0.092
Mof_H 	H 	0.145	0.7522	0.5444	0.07
Mof_C 	C 	0.0994	0.6729	0.5541	0.034
Mof_C 	C 	0.1019	0.6265	0.5525	-0.094
Mof_H 	H 	0.0725	0.5944	0.5659	0.06
Mof_C 	C 	0.1458	0.626	0.5319	0.033
Mof_H 	H 	0.1456	0.5933	0.5298	0.034
Mof_C 	C 	0.0491	0.6717	0.5696	0.078
Mof_C 	C 	0.0012	0.6233	0.5687	-0.129
Mof_H 	H 	0.0009	0.5917	0.5578	0.069
Mof_C 	C 	0.8548	0.5684	0.5865	-0.115
Mof_H 	H 	0.8537	0.6005	0.5886	0.067
Mof_C 	C 	0.8083	0.5202	0.5867	0.075
Mof_H 	H 	0.7755	0.5199	0.5893	0.012
Mof_O 	O 	0.94631	0.0471	0.81613	-0.398
Mof_O 	O 	0.89557	0.95906	0.80643	-0.4
Mof_C 	C 	0.90337	0.00373	0.82163	0.364
Mof_C 	C 	0.85727	0.00593	0.84753	-0.113
Mof_C 	C 	0.85667	0.05263	0.85463	0.034
Mof_H 	H 	0.88767	0.08533	0.84623	0.033
Mof_C 	C 	0.81127	0.05283	0.87393	-0.092
Mof_H 	H 	0.81167	0.08553	0.87773	0.07
Mof_C 	C 	0.76607	0.00623	0.88743	0.03
Mof_C 	C 	0.76857	0.95983	0.88583	-0.088
Mof_H 	H 	0.73917	0.92773	0.89923	0.06
Mof_C 	C 	0.81247	0.95933	0.86523	0.039
Mof_H 	H 	0.81227	0.92663	0.86313	0.034
Mof_C 	C 	0.71577	0.00503	0.90293	0.071
Mof_C 	C 	0.66787	0.95663	0.90203	-0.115
Mof_H 	H 	0.66757	0.92503	0.89113	0.067
Mof_C 	C 	0.52147	0.90173	0.91983	-0.115
Mof_H 	H 	0.52037	0.93383	0.92193	0.068
Mof_C 	C 	0.47497	0.85353	0.92003	0.075
Mof_H 	H 	0.44217	0.85323	0.92263	0.012
Mof_O 	O 	0.61297	0.38044	0.14947	-0.401
Mof_O 	O 	0.56223	0.2924	0.13977	-0.406
Mof_C 	C 	0.57003	0.33707	0.15497	0.371
Mof_C 	C 	0.52393	0.33927	0.18087	-0.109
Mof_C 	C 	0.52333	0.38597	0.18797	0.034
Mof_H 	H 	0.55433	0.41867	0.17957	0.033
Mof_C 	C 	0.47793	0.38617	0.20727	-0.093
Mof_H 	H 	0.47833	0.41887	0.21107	0.07
Mof_C 	C 	0.43273	0.33957	0.22077	0.036
Mof_C 	C 	0.43523	0.29317	0.21917	-0.095
Mof_H 	H 	0.40583	0.26107	0.23257	0.061
Mof_C 	C 	0.47913	0.29267	0.19857	0.034
Mof_H 	H 	0.47893	0.25997	0.19647	0.034
Mof_C 	C 	0.38243	0.33837	0.23627	0.076
Mof_C 	C 	0.33453	0.28997	0.23537	-0.12
Mof_H 	H 	0.33423	0.25837	0.22447	0.068
Mof_C 	C 	0.18813	0.23507	0.25317	-0.117
Mof_H 	H 	0.18703	0.26717	0.25527	0.067
Mof_C 	C 	0.14163	0.18687	0.25337	0.075
Mof_H 	H 	0.10883	0.18657	0.25597	0.012
Mof_O 	O 	0.43413	0.72036	0.4828	-0.401
Mof_O 	O 	0.39683	0.7711	0.4731	-0.406
Mof_C 	C 	0.4337	0.7633	0.4883	0.371
Mof_C 	C 	0.482	0.8094	0.5142	-0.11
Mof_C 	C 	0.5293	0.81	0.5213	0.035
Mof_H 	H 	0.531	0.779	0.5129	0.033
Mof_C 	C 	0.5749	0.8554	0.5406	-0.094
Mof_H 	H 	0.6072	0.855	0.5444	0.071
Mof_C 	C 	0.5735	0.9006	0.5541	0.037
Mof_C 	C 	0.5246	0.8981	0.5525	-0.095
Mof_H 	H 	0.5219	0.9275	0.5659	0.062
Mof_C 	C 	0.4802	0.8542	0.5319	0.035
Mof_H 	H 	0.4477	0.8544	0.5298	0.034
Mof_C 	C 	0.6226	0.9509	0.5696	0.074
Mof_C 	C 	0.6221	0.9988	0.5687	-0.111
Mof_H 	H 	0.5908	0.9991	0.5578	0.067
Mof_C 	C 	0.7136	0.1452	0.5865	-0.118
Mof_H 	H 	0.7468	0.1463	0.5886	0.068
Mof_C 	C 	0.7119	0.1917	0.5867	0.076
Mof_H 	H 	0.7444	0.2245	0.5893	0.012
Mof_O 	O 	0.1008	0.05369	0.81613	-0.403
Mof_O 	O 	0.0635	0.10443	0.80643	-0.408
Mof_C 	C 	0.10037	0.09663	0.82163	0.371
Mof_C 	C 	0.14867	0.14273	0.84753	-0.11
Mof_C 	C 	0.19597	0.14333	0.85463	0.034
Mof_H 	H 	0.19767	0.11233	0.84623	0.032
Mof_C 	C 	0.24157	0.18873	0.87393	-0.093
Mof_H 	H 	0.27387	0.18833	0.87773	0.07
Mof_C 	C 	0.24017	0.23393	0.88743	0.036
Mof_C 	C 	0.19127	0.23143	0.88583	-0.095
Mof_H 	H 	0.18857	0.26083	0.89923	0.061
Mof_C 	C 	0.14687	0.18753	0.86523	0.035
Mof_H 	H 	0.11437	0.18773	0.86313	0.034
Mof_C 	C 	0.28927	0.28423	0.90293	0.076
Mof_C 	C 	0.28877	0.33213	0.90203	-0.12
Mof_H 	H 	0.25747	0.33243	0.89113	0.068
Mof_C 	C 	0.38027	0.47853	0.91983	-0.117
Mof_H 	H 	0.41347	0.47963	0.92193	0.067
Mof_C 	C 	0.37857	0.52503	0.92003	0.075
Mof_H 	H 	0.41107	0.55783	0.92263	0.012
Mof_O 	O 	0.76746	0.38703	0.14947	-0.401
Mof_O 	O 	0.73016	0.43777	0.13977	-0.406
Mof_C 	C 	0.76703	0.42997	0.15497	0.371
Mof_C 	C 	0.81533	0.47607	0.18087	-0.109
Mof_C 	C 	0.86263	0.47667	0.18797	0.034
Mof_H 	H 	0.86433	0.44567	0.17957	0.033
Mof_C 	C 	0.90823	0.52207	0.20727	-0.092
Mof_H 	H 	0.94053	0.52167	0.21107	0.072
Mof_C 	C 	0.90683	0.56727	0.22077	0.036
Mof_C 	C 	0.85793	0.56477	0.21917	-0.094
Mof_H 	H 	0.85523	0.59417	0.23257	0.061
Mof_C 	C 	0.81353	0.52087	0.19857	0.035
Mof_H 	H 	0.78103	0.52107	0.19647	0.034
Mof_C 	C 	0.95593	0.61757	0.23627	0.079
Mof_C 	C 	0.95543	0.66547	0.23537	-0.112
Mof_H 	H 	0.92413	0.66577	0.22447	0.066
Mof_C 	C 	0.04693	0.81187	0.25317	-0.115
Mof_H 	H 	0.08013	0.81297	0.25527	0.067
Mof_C 	C 	0.04523	0.85837	0.25337	0.073
Mof_H 	H 	0.07773	0.89117	0.25597	0.013
Mof_Ni	Ni	0.66667	0.40217	0.08333	1.126
Mof_N 	N 	0.66667	0.47378	0.08333	-0.207
Mof_N 	N 	0.66667	0.71778	0.08333	-0.13
Mof_C 	C 	0.66667	0.62148	0.08333	0.055
Mof_C 	C 	0.66667	0.57008	0.08333	0.049
Mof_Ni	Ni	0.59783	0.26449	0.08333	1.126
Mof_N 	N 	0.52622	0.19288	0.08333	-0.207
Mof_N 	N 	0.28222	0.94888	0.08333	-0.13
Mof_C 	C 	0.37852	0.04518	0.08333	0.049
Mof_C 	C 	0.42992	0.09658	0.08333	0.05
Mof_Ni	Ni	0.73551	0.33333	0.08333	1.126
Mof_N 	N 	0.80712	0.33333	0.08333	-0.207
Mof_N 	N 	0.05112	0.33333	0.08333	-0.13
Mof_C 	C 	0.95482	0.33333	0.08333	0.062
Mof_C 	C 	0.90342	0.33333	0.08333	0.047
Mof_Ni	Ni	0.40217	0.66667	0.41667	1.126
Mof_N 	N 	0.47378	0.66667	0.41667	-0.207
Mof_N 	N 	0.71778	0.66667	0.41667	-0.13
Mof_C 	C 	0.62148	0.66667	0.41667	0.055
Mof_C 	C 	0.57008	0.66667	0.41667	0.049
Mof_Ni	Ni	0.06884	0	0.75	1.124
Mof_N 	N 	0.14045	0	0.75	-0.21
Mof_N 	N 	0.38445	0	0.75	-0.133
Mof_C 	C 	0.28815	0	0.75	0.049
Mof_C 	C 	0.23675	0	0.75	0.043
Mof_Ni	Ni	0.26449	0.59783	0.41667	1.126
Mof_N 	N 	0.19288	0.52622	0.41667	-0.207
Mof_N 	N 	0.94888	0.28222	0.41667	-0.13
Mof_C 	C 	0.04518	0.37852	0.41667	0.049
Mof_C 	C 	0.09658	0.42992	0.41667	0.05
Mof_Ni	Ni	0.93116	0.93116	0.75	1.128
Mof_N 	N 	0.85955	0.85955	0.75	-0.207
Mof_N 	N 	0.61555	0.61555	0.75	-0.13
Mof_C 	C 	0.71185	0.71185	0.75	0.055
Mof_C 	C 	0.76325	0.76325	0.75	0.048
Mof_Ni	Ni	0.33333	0.73551	0.41667	1.126
Mof_N 	N 	0.33333	0.80712	0.41667	-0.207
Mof_N 	N 	0.33333	0.05112	0.41667	-0.13
Mof_C 	C 	0.33333	0.95482	0.41667	0.062
Mof_C 	C 	0.33333	0.90342	0.41667	0.047
Mof_Ni	Ni	-1.10528e-18	0.06884	0.75	1.124
Mof_N 	N 	-7.72262e-18	0.14045	0.75	-0.21
Mof_N 	N 	-2.09573e-17	0.38445	0.75	-0.133
Mof_C 	C 	-2.09573e-17	0.28815	0.75	0.049
Mof_C 	C 	-7.72262e-18	0.23675	0.75	0.043
Mof_Ni	Ni	0.33333	0.59783	0.91667	1.126
Mof_N 	N 	0.33333	0.52622	0.91667	-0.207
Mof_N 	N 	0.33333	0.28222	0.91667	-0.13
Mof_C 	C 	0.33333	0.37852	0.91667	0.055
Mof_C 	C 	0.33333	0.42992	0.91667	0.048
Mof_Ni	Ni	-2.4632e-17	0.93116	0.25	1.125
Mof_N 	N 	-7.75707e-17	0.85955	0.25	-0.21
Mof_N 	N 	-2.4632e-17	0.61555	0.25	-0.133
Mof_C 	C 	-2.4632e-17	0.71185	0.25	0.048
Mof_C 	C 	-7.75707e-17	0.76325	0.25	0.043
Mof_Ni	Ni	0.40217	0.73551	0.91667	1.126
Mof_N 	N 	0.47378	0.80712	0.91667	-0.207
Mof_N 	N 	0.71778	0.05112	0.91667	-0.13
Mof_C 	C 	0.62148	0.95482	0.91667	0.062
Mof_C 	C 	0.57008	0.90342	0.91667	0.047
Mof_Ni	Ni	0.06884	0.06884	0.25	1.126
Mof_N 	N 	0.14045	0.14045	0.25	-0.207
Mof_N 	N 	0.38445	0.38445	0.25	-0.13
Mof_C 	C 	0.28815	0.28815	0.25	0.055
Mof_C 	C 	0.23675	0.23675	0.25	0.048
Mof_Ni	Ni	0.26449	0.66667	0.91667	1.126
Mof_N 	N 	0.19288	0.66667	0.91667	-0.207
Mof_N 	N 	0.94888	0.66667	0.91667	-0.13
Mof_C 	C 	0.04518	0.66667	0.91667	0.049
Mof_C 	C 	0.09658	0.66667	0.91667	0.05
Mof_Ni	Ni	0.93116	2.93869e-33	0.25	1.125
Mof_N 	N 	0.85955	2.93869e-33	0.25	-0.21
Mof_N 	N 	0.61555	2.93869e-33	0.25	-0.133
Mof_C 	C 	0.71185	2.93869e-33	0.25	0.048
Mof_C 	C 	0.76325	2.93869e-33	0.25	0.043
Mof_Ni	Ni	0.59783	0.33333	0.58333	1.126
Mof_N 	N 	0.52622	0.33333	0.58333	-0.207
Mof_N 	N 	0.28222	0.33333	0.58333	-0.13
Mof_C 	C 	0.37852	0.33333	0.58333	0.055
Mof_C 	C 	0.42992	0.33333	0.58333	0.048
Mof_Ni	Ni	0.73551	0.40217	0.58333	1.126
Mof_N 	N 	0.80712	0.47378	0.58333	-0.207
Mof_N 	N 	0.05112	0.71778	0.58333	-0.13
Mof_C 	C 	0.95482	0.62148	0.58333	0.062
Mof_C 	C 	0.90342	0.57008	0.58333	0.047
Mof_Ni	Ni	0.66667	0.26449	0.58333	1.126
Mof_N 	N 	0.66667	0.19288	0.58333	-0.207
Mof_N 	N 	0.66667	0.94888	0.58333	-0.13
Mof_C 	C 	0.66667	0.04518	0.58333	0.049
Mof_C 	C 	0.66667	0.09658	0.58333	0.05
Mof_O 	O 	0.66667	0.33333	0.08333	-0.716
Mof_O 	O 	-0	0	0.75	-0.718
Mof_O 	O 	0.33333	0.66667	0.41667	-0.716
Mof_O 	O 	0.33333	0.66667	0.91667	-0.716
Mof_O 	O 	-0	2.93869e-33	0.25	-0.718
Mof_O 	O 	0.66667	0.33333	0.58333	-0.716
Mof_H 	H 	0.66667	0.33333	0.126	0.126
Mof_H 	H 	0.33333	0.66667	0.45933	0.126
Mof_H 	H 	5.87738e-33	1.17548e-32	0.79267	0.123
Mof_H 	H 	0.33333	0.66667	0.374	0.126
Mof_H 	H 	-1.17548e-32	0	0.70733	0.123
Mof_H 	H 	0.66667	0.33333	0.04067	0.126
Mof_H 	H 	0.33333	0.66667	0.874	0.126
Mof_H 	H 	1.46934e-33	2.93869e-33	0.20733	0.123
Mof_H 	H 	0.66667	0.33333	0.54067	0.126
Mof_H 	H 	0.66667	0.33333	0.626	0.126
Mof_H 	H 	0.33333	0.66667	0.95933	0.126
Mof_H 	H 	-0	0	0.29267	0.123
_end
