data_functionalizedCrystal
_audit_creation_method	'EQeq! by Chris Wilmer'
_symmetry_space_group_name_H-M	'P1'
_symmetry_Int_Tables_number	1
_symmetry_cell_setting	triclinic
loop_
_symmetry_equiv_pos_as_xyz
  x,y,z
_cell_length_a	12.4903
_cell_length_b	12.4903
_cell_length_c	22.4855
_cell_angle_alpha	82.4179
_cell_angle_beta	81.509
_cell_angle_gamma	119.779
loop_
_atom_site_label
_atom_site_type_symbol
_atom_site_fract_x
_atom_site_fract_y
_atom_site_fract_z
_atom_site_charge
Mof_Dy	Dy	0.90601	0.42845	0.13999	1.853
Mof_Dy	Dy	0.93156	0.954	0.63999	1.85
Mof_Cu	Cu	0.42201	0.20861	0.92106	0.898
Mof_Cu	Cu	0.37033	0.65693	0.42106	0.898
Mof_H 	H 	0.304	0.5253	0.9885	0.074
Mof_H 	H 	0.4312	0.4675	0.9349	0.005
Mof_H 	H 	0.0555	0.1555	0.0694	0.072
Mof_H 	H 	0.0157	0.9587	0.0768	0.057
Mof_H 	H 	0.1587	0.7536	0.0235	0.064
Mof_H 	H 	0.3328	0.935	0.9616	0.05
Mof_H 	H 	0.383	0.3476	0.7158	0.059
Mof_H 	H 	0.1892	0.9966	0.8774	0.017
Mof_H 	H 	0.1015	0.9869	0.7942	0.075
Mof_H 	H 	0.5524	0.5129	0.7267	0.071
Mof_H 	H 	0.8055	0.6387	0.8306	0.077
Mof_H 	H 	0.6836	0.4457	0.9001	0.029
Mof_H 	H 	0.9862	0.7075	0.4885	0.072
Mof_H 	H 	0.0976	0.6339	0.4349	0.007
Mof_H 	H 	0.2751	0.8751	0.5694	0.072
Mof_H 	H 	0.4645	0.9075	0.5768	0.058
Mof_H 	H 	0.7229	0.8178	0.5235	0.065
Mof_H 	H 	0.6034	0.7056	0.4616	0.049
Mof_H 	H 	0.4366	0.9012	0.2158	0.059
Mof_H 	H 	0.626	0.9334	0.3774	0.016
Mof_H 	H 	0.7189	0.1043	0.2942	0.072
Mof_H 	H 	0.2604	0.7209	0.2267	0.071
Mof_H 	H 	0.0307	0.3639	0.3306	0.077
Mof_H 	H 	0.1542	0.4163	0.4001	0.029
Mof_C 	C 	0.0753	0.3771	0.0698	0.278
Mof_C 	C 	0.1639	0.346	0.0345	-0.005
Mof_C 	C 	0.2785	0.4402	0.9941	-0.094
Mof_C 	C 	0.3543	0.4045	0.9622	0.061
Mof_C 	C 	0.1313	0.2202	0.0421	-0.085
Mof_C 	C 	0.2124	0.1925	0.0089	0.058
Mof_C 	C 	0.1872	0.0612	0.0146	0.032
Mof_C 	C 	0.0793	0.9527	0.053	-0.041
Mof_C 	C 	0.1638	0.8309	0.0215	-0.025
Mof_C 	C 	0.0672	0.8362	0.0556	-0.061
Mof_C 	C 	0.2674	0.9397	0.9845	0.029
Mof_C 	C 	0.9498	0.7144	0.0958	0.392
Mof_C 	C 	0.1787	0.1614	0.6883	0.386
Mof_C 	C 	0.2321	0.1659	0.7456	-0.043
Mof_C 	C 	0.3423	0.2753	0.7482	-0.058
Mof_C 	C 	0.39	0.2743	0.7997	0.047
Mof_C 	C 	0.2285	0.0678	0.8445	0.05
Mof_C 	C 	0.1751	0.0612	0.7947	-0.058
Mof_C 	C 	0.5096	0.3862	0.8054	0.044
Mof_C 	C 	0.5799	0.5005	0.7618	-0.077
Mof_C 	C 	0.6915	0.5962	0.7707	-0.015
Mof_C 	C 	0.7307	0.5755	0.8236	-0.075
Mof_C 	C 	0.6568	0.4601	0.8651	0.049
Mof_C 	C 	0.7724	0.7222	0.7238	0.304
Mof_C 	C 	0.0531	0.8549	0.5698	0.283
Mof_C 	C 	0.1195	0.8016	0.5345	-0.008
Mof_C 	C 	0.0657	0.7274	0.4941	-0.089
Mof_C 	C 	0.1333	0.6835	0.4622	0.059
Mof_C 	C 	0.2377	0.8266	0.5421	-0.082
Mof_C 	C 	0.2986	0.7787	0.5089	0.056
Mof_C 	C 	0.4242	0.7982	0.5146	0.041
Mof_C 	C 	0.4943	0.8677	0.553	-0.049
Mof_C 	C 	0.6476	0.8147	0.5215	-0.031
Mof_C 	C 	0.6082	0.8772	0.5556	-0.059
Mof_C 	C 	0.5758	0.7481	0.4845	0.034
Mof_C 	C 	0.6898	0.9544	0.5958	0.393
Mof_C 	C 	0.6503	0.133	0.1883	0.388
Mof_C 	C 	0.5885	0.0223	0.2456	-0.046
Mof_C 	C 	0.4765	0.9095	0.2482	-0.056
Mof_C 	C 	0.426	0.8103	0.2997	0.046
Mof_C 	C 	0.5877	0.927	0.3445	0.049
Mof_C 	C 	0.6441	0.0302	0.2947	-0.053
Mof_C 	C 	0.3084	0.685	0.3054	0.045
Mof_C 	C 	0.2377	0.6583	0.2618	-0.077
Mof_C 	C 	0.1331	0.5378	0.2707	-0.014
Mof_C 	C 	0.1009	0.4457	0.3236	-0.076
Mof_C 	C 	0.1748	0.4781	0.3651	0.049
Mof_C 	C 	0.054	0.5038	0.2238	0.304
Mof_N 	N 	0.3226	0.2837	0.9687	-0.197
Mof_N 	N 	0.27905	0.0528	0.97975	-0.2
Mof_N 	N 	0.33513	0.1731	0.84777	-0.203
Mof_N 	N 	0.54717	0.3668	0.85723	-0.213
Mof_N 	N 	0.2476	0.7087	0.4687	-0.197
Mof_N 	N 	0.46745	0.7412	0.47975	-0.203
Mof_N 	N 	0.47913	0.8171	0.34777	-0.202
Mof_N 	N 	0.27597	0.5956	0.35723	-0.213
Mof_Cl	Cl	0.56456	0.20695	0.97419	-0.445
Mof_Cl	Cl	0.31886	0.46125	0.47419	-0.446
Mof_O 	O 	0.0944	0.48786	0.05574	-0.39
Mof_O 	O 	0.9841	0.2923	0.1132	-0.402
Mof_O 	O 	0.8724	0.7206	0.133	-0.304
Mof_O 	O 	0.94297	0.61385	0.08618	-0.515
Mof_O 	O 	0.0707	0.0672	0.6943	-0.507
Mof_O 	O 	0.2443	0.2479	0.6412	-0.298
Mof_O 	O 	0.7375	0.7419	0.6772	-0.401
Mof_O 	O 	0.8744	0.8034	0.7332	-0.421
Mof_O 	O 	0.9564	0.84986	0.55574	-0.392
Mof_O 	O 	0.0945	0.9027	0.6132	-0.402
Mof_O 	O 	0.6464	0.9946	0.633	-0.304
Mof_O 	O 	0.79997	0.97085	0.58618	-0.515
Mof_O 	O 	0.7385	0.235	0.1943	-0.507
Mof_O 	O 	0.6109	0.1145	0.1412	-0.299
Mof_O 	O 	0.0809	0.5853	0.1772	-0.401
Mof_O 	O 	0.9634	0.3924	0.2332	-0.42
Mof_Dy	Dy	0.06844	0.046	0.36001	1.851
Mof_Dy	Dy	0.09399	0.57155	0.86001	1.854
Mof_Cu	Cu	0.62967	0.34307	0.57894	0.898
Mof_Cu	Cu	0.57799	0.79139	0.07894	0.898
Mof_H 	H 	0.0138	0.2925	0.5115	0.072
Mof_H 	H 	0.9024	0.3661	0.5651	0.007
Mof_H 	H 	0.7249	0.1249	0.4306	0.072
Mof_H 	H 	0.5355	0.0925	0.4232	0.058
Mof_H 	H 	0.2771	0.1822	0.4765	0.065
Mof_H 	H 	0.3966	0.2944	0.5384	0.049
Mof_H 	H 	0.5634	0.0988	0.7842	0.059
Mof_H 	H 	0.374	0.0666	0.6226	0.016
Mof_H 	H 	0.2811	0.8957	0.7058	0.072
Mof_H 	H 	0.7396	0.2791	0.7733	0.071
Mof_H 	H 	0.9693	0.6361	0.6694	0.077
Mof_H 	H 	0.8458	0.5837	0.5999	0.029
Mof_H 	H 	0.696	0.4747	0.0115	0.074
Mof_H 	H 	0.5688	0.5325	0.0651	0.005
Mof_H 	H 	0.9445	0.8445	0.9306	0.072
Mof_H 	H 	0.9843	0.0413	0.9232	0.057
Mof_H 	H 	0.8413	0.2464	0.9765	0.064
Mof_H 	H 	0.6672	0.065	0.0384	0.05
Mof_H 	H 	0.617	0.6524	0.2842	0.059
Mof_H 	H 	0.8108	0.0034	0.1226	0.017
Mof_H 	H 	0.8985	0.0131	0.2058	0.075
Mof_H 	H 	0.4476	0.4871	0.2733	0.071
Mof_H 	H 	0.1945	0.3613	0.1694	0.077
Mof_H 	H 	0.3164	0.5543	0.0999	0.029
Mof_C 	C 	0.9469	0.1451	0.4302	0.283
Mof_C 	C 	0.8805	0.1984	0.4655	-0.008
Mof_C 	C 	0.9343	0.2726	0.5059	-0.089
Mof_C 	C 	0.8667	0.3165	0.5378	0.059
Mof_C 	C 	0.7623	0.1734	0.4579	-0.082
Mof_C 	C 	0.7014	0.2213	0.4911	0.056
Mof_C 	C 	0.5758	0.2018	0.4854	0.041
Mof_C 	C 	0.5057	0.1323	0.447	-0.049
Mof_C 	C 	0.3524	0.1853	0.4785	-0.031
Mof_C 	C 	0.3918	0.1228	0.4444	-0.059
Mof_C 	C 	0.4242	0.2519	0.5155	0.034
Mof_C 	C 	0.3102	0.0456	0.4042	0.393
Mof_C 	C 	0.3497	0.867	0.8117	0.388
Mof_C 	C 	0.4115	0.9777	0.7544	-0.046
Mof_C 	C 	0.5235	0.0905	0.7518	-0.056
Mof_C 	C 	0.574	0.1897	0.7003	0.046
Mof_C 	C 	0.4123	0.073	0.6555	0.049
Mof_C 	C 	0.3559	0.9698	0.7053	-0.053
Mof_C 	C 	0.6916	0.315	0.6946	0.045
Mof_C 	C 	0.7623	0.3417	0.7382	-0.077
Mof_C 	C 	0.8669	0.4622	0.7293	-0.014
Mof_C 	C 	0.8991	0.5543	0.6764	-0.076
Mof_C 	C 	0.8252	0.5219	0.6349	0.049
Mof_C 	C 	0.946	0.4962	0.7762	0.304
Mof_C 	C 	0.9247	0.6229	0.9302	0.278
Mof_C 	C 	0.8361	0.654	0.9655	-0.005
Mof_C 	C 	0.7215	0.5598	0.0059	-0.094
Mof_C 	C 	0.6457	0.5955	0.0378	0.061
Mof_C 	C 	0.8687	0.7798	0.9579	-0.085
Mof_C 	C 	0.7876	0.8075	0.9911	0.058
Mof_C 	C 	0.8128	0.9388	0.9854	0.032
Mof_C 	C 	0.9207	0.0473	0.947	-0.041
Mof_C 	C 	0.8362	0.1691	0.9785	-0.025
Mof_C 	C 	0.9328	0.1638	0.9444	-0.061
Mof_C 	C 	0.7326	0.0603	0.0155	0.029
Mof_C 	C 	0.0502	0.2856	0.9042	0.392
Mof_C 	C 	0.8213	0.8386	0.3117	0.386
Mof_C 	C 	0.7679	0.8341	0.2544	-0.043
Mof_C 	C 	0.6577	0.7247	0.2518	-0.058
Mof_C 	C 	0.61	0.7257	0.2003	0.047
Mof_C 	C 	0.7715	0.9322	0.1555	0.05
Mof_C 	C 	0.8249	0.9388	0.2053	-0.058
Mof_C 	C 	0.4904	0.6138	0.1946	0.044
Mof_C 	C 	0.4201	0.4995	0.2382	-0.077
Mof_C 	C 	0.3085	0.4038	0.2293	-0.015
Mof_C 	C 	0.2693	0.4245	0.1764	-0.075
Mof_C 	C 	0.3432	0.5399	0.1349	0.049
Mof_C 	C 	0.2276	0.2778	0.2762	0.304
Mof_N 	N 	0.7524	0.2913	0.5313	-0.197
Mof_N 	N 	0.53255	0.2588	0.52025	-0.203
Mof_N 	N 	0.52087	0.1829	0.65223	-0.202
Mof_N 	N 	0.72403	0.4044	0.64277	-0.213
Mof_N 	N 	0.6774	0.7163	0.0313	-0.197
Mof_N 	N 	0.72095	0.9472	0.02025	-0.2
Mof_N 	N 	0.66487	0.8269	0.15223	-0.203
Mof_N 	N 	0.45283	0.6332	0.14277	-0.213
Mof_Cl	Cl	0.68114	0.53875	0.52581	-0.446
Mof_Cl	Cl	0.43544	0.79305	0.02581	-0.445
Mof_O 	O 	0.0436	0.15014	0.44426	-0.392
Mof_O 	O 	0.9055	0.0973	0.3868	-0.402
Mof_O 	O 	0.3536	0.0054	0.367	-0.304
Mof_O 	O 	0.20003	0.02915	0.41382	-0.515
Mof_O 	O 	0.2615	0.765	0.8057	-0.507
Mof_O 	O 	0.3891	0.8855	0.8588	-0.299
Mof_O 	O 	0.9191	0.4147	0.8228	-0.401
Mof_O 	O 	0.0366	0.6076	0.7668	-0.42
Mof_O 	O 	0.9056	0.51214	0.94426	-0.39
Mof_O 	O 	0.0159	0.7077	0.8868	-0.402
Mof_O 	O 	0.1276	0.2794	0.867	-0.304
Mof_O 	O 	0.05703	0.38615	0.91382	-0.515
Mof_O 	O 	0.9293	0.9328	0.3057	-0.507
Mof_O 	O 	0.7557	0.7521	0.3588	-0.298
Mof_O 	O 	0.2625	0.2581	0.3228	-0.401
Mof_O 	O 	0.1256	0.1966	0.2668	-0.421
_end
