data_functionalizedCrystal
_audit_creation_method	'EQeq! by Chris Wilmer'
_symmetry_space_group_name_H-M	'P1'
_symmetry_Int_Tables_number	1
_symmetry_cell_setting	triclinic
loop_
_symmetry_equiv_pos_as_xyz
  x,y,z
_cell_length_a	25.791
_cell_length_b	25.791
_cell_length_c	11.1284
_cell_angle_alpha	90
_cell_angle_beta	90
_cell_angle_gamma	120
loop_
_atom_site_label
_atom_site_type_symbol
_atom_site_fract_x
_atom_site_fract_y
_atom_site_fract_z
_atom_site_charge
Mof_S 	S 	0.6735	0.19479	0.87524	-0.095
Mof_N 	N 	0.5654	0.09032	0.92212	-0.161
Mof_C 	C 	0.61063	0.13373	0.9031	0.048
Mof_N 	N 	0.26868	0.87751	0.42433	-0.144
Mof_N 	N 	0.30851	0.8604	0.38979	-0.212
Mof_H 	H 	0.30317	0.83753	0.32813	0.122
Mof_N 	N 	0.45172	0.9812	0.80919	-0.139
Mof_N 	N 	0.45123	0.02882	0.75805	-0.212
Mof_H 	H 	0.47107	0.06513	0.78613	0.117
Mof_C 	C 	0.29347	0.91128	0.52233	0.223
Mof_C 	C 	0.3494	0.91618	0.54873	-0.155
Mof_C 	C 	0.35738	0.88274	0.46133	0.241
Mof_C 	C 	0.40816	0.8725	0.43693	-0.677
Mof_H 	H 	0.40117	0.83613	0.47683	0.207
Mof_H 	H 	0.44497	0.90613	0.46693	0.214
Mof_H 	H 	0.41157	0.86853	0.35103	0.222
Mof_C 	C 	0.26165	0.93695	0.58993	-0.657
Mof_H 	H 	0.25697	0.96483	0.53883	0.216
Mof_H 	H 	0.28477	0.95783	0.66053	0.214
Mof_H 	H 	0.22247	0.90493	0.61443	0.219
Mof_C 	C 	0.41673	0.01369	0.65933	0.227
Mof_C 	C 	0.39208	0.95262	0.64403	-0.139
Mof_C 	C 	0.41583	0.93433	0.73963	0.215
Mof_C 	C 	0.40473	0.87303	0.76543	-0.634
Mof_H 	H 	0.43907	0.86993	0.74003	0.203
Mof_H 	H 	0.36937	0.84393	0.72193	0.194
Mof_H 	H 	0.39847	0.86523	0.85093	0.21
Mof_C 	C 	0.41101	0.05907	0.58703	-0.665
Mof_H 	H 	0.38717	0.07223	0.63093	0.215
Mof_H 	H 	0.39157	0.04143	0.51123	0.214
Mof_H 	H 	0.45047	0.09303	0.57183	0.209
Mof_S 	S 	0.3265	0.80521	0.12476	-0.107
Mof_N 	N 	0.4346	0.90968	0.07788	-0.165
Mof_C 	C 	0.38937	0.86627	0.0969	0.045
Mof_N 	N 	0.73132	0.12249	0.57567	-0.142
Mof_N 	N 	0.69149	0.1396	0.61021	-0.21
Mof_H 	H 	0.69683	0.16247	0.67187	0.122
Mof_N 	N 	0.54828	0.0188	0.19081	-0.147
Mof_N 	N 	0.54877	0.97118	0.24195	-0.211
Mof_H 	H 	0.52893	0.93487	0.21387	0.117
Mof_C 	C 	0.70653	0.08872	0.47767	0.218
Mof_C 	C 	0.6506	0.08382	0.45127	-0.15
Mof_C 	C 	0.64262	0.11726	0.53867	0.237
Mof_C 	C 	0.59184	0.1275	0.56307	-0.672
Mof_H 	H 	0.59883	0.16387	0.52317	0.205
Mof_H 	H 	0.55503	0.09387	0.53307	0.212
Mof_H 	H 	0.58843	0.13147	0.64897	0.22
Mof_C 	C 	0.73835	0.06305	0.41007	-0.65
Mof_H 	H 	0.74303	0.03517	0.46117	0.212
Mof_H 	H 	0.71523	0.04217	0.33947	0.21
Mof_H 	H 	0.77753	0.09507	0.38557	0.216
Mof_C 	C 	0.58327	0.98631	0.34067	0.244
Mof_C 	C 	0.60792	0.04738	0.35597	-0.152
Mof_C 	C 	0.58417	0.06567	0.26037	0.216
Mof_C 	C 	0.59527	0.12697	0.23457	-0.628
Mof_H 	H 	0.56093	0.13007	0.25997	0.2
Mof_H 	H 	0.63063	0.15607	0.27807	0.191
Mof_H 	H 	0.60153	0.13477	0.14907	0.202
Mof_C 	C 	0.58899	0.94093	0.41297	-0.682
Mof_H 	H 	0.61283	0.92777	0.36907	0.221
Mof_H 	H 	0.60843	0.95857	0.48877	0.222
Mof_H 	H 	0.54953	0.90697	0.42817	0.215
Mof_Cd	Cd	0.5	0	-0	0.34
Mof_N 	N 	0.45582	0.05783	0.091	-0.144
Mof_N 	N 	0.47293	0.11477	0.05646	-0.221
Mof_H 	H 	0.4958	0.1323	0.9948	0.134
Mof_N 	N 	0.35213	0.13718	0.47586	-0.145
Mof_N 	N 	0.30451	0.08907	0.42472	-0.212
Mof_H 	H 	0.2682	0.0726	0.4528	0.117
Mof_C 	C 	0.42205	0.04885	0.189	0.211
Mof_C 	C 	0.41715	0.09988	0.2154	-0.149
Mof_C 	C 	0.45059	0.1413	0.128	0.234
Mof_C 	C 	0.46083	0.20232	0.1036	-0.665
Mof_H 	H 	0.4972	0.2317	0.1435	0.202
Mof_H 	H 	0.4272	0.2055	0.1336	0.209
Mof_H 	H 	0.4648	0.2097	0.0177	0.213
Mof_C 	C 	0.39638	0.99136	0.2566	-0.64
Mof_H 	H 	0.3685	0.9588	0.2055	0.209
Mof_H 	H 	0.3755	0.9936	0.3272	0.21
Mof_H 	H 	0.4284	0.9842	0.2811	0.215
Mof_C 	C 	0.31964	0.0697	0.326	0.238
Mof_C 	C 	0.38071	0.10612	0.3107	-0.149
Mof_C 	C 	0.399	0.14816	0.4063	0.217
Mof_C 	C 	0.4603	0.19836	0.4321	-0.632
Mof_H 	H 	0.4634	0.2358	0.4067	0.201
Mof_H 	H 	0.4894	0.1921	0.3886	0.192
Mof_H 	H 	0.4681	0.1999	0.5176	0.206
Mof_C 	C 	0.27426	0.0186	0.2537	-0.687
Mof_H 	H 	0.2611	0.9816	0.2976	0.224
Mof_H 	H 	0.2919	0.0168	0.1779	0.217
Mof_H 	H 	0.2403	0.0241	0.2385	0.214
Mof_S 	S 	0.13854	0.14538	0.54191	-0.102
Mof_N 	N 	0.24301	0.14175	0.58879	-0.165
Mof_C 	C 	0.1996	0.14357	0.56977	0.047
Mof_N 	N 	0.21085	0.2755	0.24233	-0.142
Mof_N 	N 	0.19374	0.21856	0.27687	-0.209
Mof_H 	H 	0.17087	0.20103	0.33853	0.121
Mof_N 	N 	0.31454	0.19615	0.85747	-0.147
Mof_N 	N 	0.36216	0.24426	0.90861	-0.205
Mof_H 	H 	0.39847	0.26073	0.88053	0.118
Mof_C 	C 	0.24462	0.28448	0.14433	0.215
Mof_C 	C 	0.24952	0.23345	0.11793	-0.147
Mof_C 	C 	0.21608	0.19203	0.20533	0.233
Mof_C 	C 	0.20584	0.13101	0.22973	-0.665
Mof_H 	H 	0.16947	0.10163	0.18983	0.2
Mof_H 	H 	0.23947	0.12783	0.19973	0.209
Mof_H 	H 	0.20187	0.12363	0.31563	0.218
Mof_C 	C 	0.27029	0.34197	0.07673	-0.641
Mof_H 	H 	0.29817	0.37453	0.12783	0.209
Mof_H 	H 	0.29117	0.33973	0.00613	0.204
Mof_H 	H 	0.23827	0.34913	0.05223	0.211
Mof_C 	C 	0.34703	0.26363	0.00733	0.226
Mof_C 	C 	0.28596	0.22721	0.02263	-0.16
Mof_C 	C 	0.26767	0.18517	0.92703	0.235
Mof_C 	C 	0.20637	0.13497	0.90123	-0.652
Mof_H 	H 	0.20327	0.09753	0.92663	0.21
Mof_H 	H 	0.17727	0.14123	0.94473	0.202
Mof_H 	H 	0.19857	0.13343	0.81573	0.212
Mof_C 	C 	0.39241	0.31473	0.07963	-0.664
Mof_H 	H 	0.40557	0.35173	0.03573	0.211
Mof_H 	H 	0.37477	0.31653	0.15543	0.215
Mof_H 	H 	0.42637	0.30923	0.09483	0.207
Mof_S 	S 	0.52812	0.18796	0.79143	-0.098
Mof_N 	N 	0.42365	0.19159	0.74455	-0.164
Mof_C 	C 	0.46706	0.18977	0.76357	0.048
Mof_Cd	Cd	0.33333	0.16667	0.66667	0.356
Mof_S 	S 	0.34017	0.52812	0.20857	-0.103
Mof_N 	N 	0.23207	0.42365	0.25545	-0.165
Mof_C 	C 	0.2773	0.46706	0.23643	0.046
Mof_N 	N 	0.93534	0.21085	0.75767	-0.144
Mof_N 	N 	0.97517	0.19374	0.72313	-0.209
Mof_H 	H 	0.96983	0.17087	0.66147	0.122
Mof_N 	N 	0.11838	0.31454	0.14253	-0.142
Mof_N 	N 	0.11789	0.36216	0.09139	-0.219
Mof_H 	H 	0.13773	0.39847	0.11947	0.116
Mof_C 	C 	0.96013	0.24462	0.85567	0.233
Mof_C 	C 	0.01606	0.24952	0.88207	-0.162
Mof_C 	C 	0.02404	0.21608	0.79467	0.241
Mof_C 	C 	0.07482	0.20584	0.77027	-0.678
Mof_H 	H 	0.06783	0.16947	0.81017	0.209
Mof_H 	H 	0.11163	0.23947	0.80027	0.216
Mof_H 	H 	0.07823	0.20187	0.68437	0.221
Mof_C 	C 	0.92831	0.27029	0.92327	-0.673
Mof_H 	H 	0.92363	0.29817	0.87217	0.221
Mof_H 	H 	0.95143	0.29117	0.99387	0.223
Mof_H 	H 	0.88913	0.23827	0.94777	0.226
Mof_C 	C 	0.08339	0.34703	0.99267	0.244
Mof_C 	C 	0.05874	0.28596	0.97737	-0.129
Mof_C 	C 	0.08249	0.26767	0.07297	0.194
Mof_C 	C 	0.07139	0.20637	0.09877	-0.604
Mof_H 	H 	0.10573	0.20327	0.07337	0.19
Mof_H 	H 	0.03603	0.17727	0.05527	0.179
Mof_H 	H 	0.06513	0.19857	0.18427	0.197
Mof_C 	C 	0.07767	0.39241	0.92037	-0.684
Mof_H 	H 	0.05383	0.40557	0.96427	0.224
Mof_H 	H 	0.05823	0.37477	0.84457	0.22
Mof_H 	H 	0.11713	0.42637	0.90517	0.217
Mof_S 	S 	0.99317	0.13854	0.45809	-0.095
Mof_N 	N 	0.10127	0.24301	0.41121	-0.163
Mof_C 	C 	0.05604	0.1996	0.43023	0.043
Mof_N 	N 	0.39799	0.45582	0.909	-0.139
Mof_N 	N 	0.35816	0.47293	0.94354	-0.2
Mof_H 	H 	0.3635	0.4958	0.0052	0.111
Mof_N 	N 	0.21495	0.35213	0.52414	-0.145
Mof_N 	N 	0.21544	0.30451	0.57528	-0.212
Mof_H 	H 	0.1956	0.2682	0.5472	0.117
Mof_C 	C 	0.3732	0.42205	0.811	0.223
Mof_C 	C 	0.31727	0.41715	0.7846	-0.153
Mof_C 	C 	0.30929	0.45059	0.872	0.243
Mof_C 	C 	0.25851	0.46083	0.8964	-0.682
Mof_H 	H 	0.2655	0.4972	0.8565	0.21
Mof_H 	H 	0.2217	0.4272	0.8664	0.217
Mof_H 	H 	0.2551	0.4648	0.9823	0.229
Mof_C 	C 	0.40502	0.39638	0.7434	-0.656
Mof_H 	H 	0.4097	0.3685	0.7945	0.217
Mof_H 	H 	0.3819	0.3755	0.6728	0.213
Mof_H 	H 	0.4442	0.4284	0.7189	0.219
Mof_C 	C 	0.24994	0.31964	0.674	0.238
Mof_C 	C 	0.27459	0.38071	0.6893	-0.146
Mof_C 	C 	0.25084	0.399	0.5937	0.216
Mof_C 	C 	0.26194	0.4603	0.5679	-0.632
Mof_H 	H 	0.2276	0.4634	0.5933	0.202
Mof_H 	H 	0.2973	0.4894	0.6114	0.193
Mof_H 	H 	0.2682	0.4681	0.4824	0.206
Mof_C 	C 	0.25566	0.27426	0.7463	-0.68
Mof_H 	H 	0.2795	0.2611	0.7024	0.22
Mof_H 	H 	0.2751	0.2919	0.8221	0.223
Mof_H 	H 	0.2162	0.2403	0.7615	0.215
Mof_Cd	Cd	0.16667	0.33333	0.33333	0.356
Mof_N 	N 	0.12249	0.39116	0.42433	-0.142
Mof_N 	N 	0.1396	0.4481	0.38979	-0.21
Mof_H 	H 	0.16247	0.46563	0.32813	0.122
Mof_N 	N 	0.0188	0.47051	0.80919	-0.144
Mof_N 	N 	0.97118	0.4224	0.75805	-0.211
Mof_H 	H 	0.93487	0.40593	0.78613	0.118
Mof_C 	C 	0.08872	0.38218	0.52233	0.218
Mof_C 	C 	0.08382	0.43321	0.54873	-0.15
Mof_C 	C 	0.11726	0.47463	0.46133	0.237
Mof_C 	C 	0.1275	0.53565	0.43693	-0.672
Mof_H 	H 	0.16387	0.56503	0.47683	0.206
Mof_H 	H 	0.09387	0.53883	0.46693	0.212
Mof_H 	H 	0.13147	0.54303	0.35103	0.22
Mof_C 	C 	0.06305	0.32469	0.58993	-0.649
Mof_H 	H 	0.03517	0.29213	0.53883	0.212
Mof_H 	H 	0.04217	0.32693	0.66053	0.21
Mof_H 	H 	0.09507	0.31753	0.61443	0.216
Mof_C 	C 	0.98631	0.40303	0.65933	0.243
Mof_C 	C 	0.04738	0.43945	0.64403	-0.153
Mof_C 	C 	0.06567	0.48149	0.73963	0.219
Mof_C 	C 	0.12697	0.53169	0.76543	-0.639
Mof_H 	H 	0.13007	0.56913	0.74003	0.204
Mof_H 	H 	0.15607	0.52543	0.72193	0.195
Mof_H 	H 	0.13477	0.53323	0.85093	0.211
Mof_C 	C 	0.94093	0.35193	0.58703	-0.682
Mof_H 	H 	0.92777	0.31493	0.63093	0.221
Mof_H 	H 	0.95857	0.35013	0.51123	0.222
Mof_H 	H 	0.90697	0.35743	0.57183	0.214
Mof_S 	S 	0.80521	0.47871	0.87524	-0.094
Mof_N 	N 	0.90968	0.47508	0.92212	-0.159
Mof_C 	C 	0.86627	0.4769	0.9031	0.05
Mof_N 	N 	0.87751	0.60884	0.57567	-0.143
Mof_N 	N 	0.8604	0.5519	0.61021	-0.211
Mof_H 	H 	0.83753	0.53437	0.67187	0.122
Mof_N 	N 	0.9812	0.52949	0.19081	-0.141
Mof_N 	N 	0.02882	0.5776	0.24195	-0.212
Mof_H 	H 	0.06513	0.59407	0.21387	0.116
Mof_C 	C 	0.91128	0.61782	0.47767	0.223
Mof_C 	C 	0.91618	0.56679	0.45127	-0.155
Mof_C 	C 	0.88274	0.52537	0.53867	0.241
Mof_C 	C 	0.8725	0.46435	0.56307	-0.676
Mof_H 	H 	0.83613	0.43497	0.52317	0.206
Mof_H 	H 	0.90613	0.46117	0.53307	0.214
Mof_H 	H 	0.86853	0.45697	0.64897	0.221
Mof_C 	C 	0.93695	0.67531	0.41007	-0.658
Mof_H 	H 	0.96483	0.70787	0.46117	0.217
Mof_H 	H 	0.95783	0.67307	0.33947	0.215
Mof_H 	H 	0.90493	0.68247	0.38557	0.219
Mof_C 	C 	0.01369	0.59697	0.34067	0.227
Mof_C 	C 	0.95262	0.56055	0.35597	-0.138
Mof_C 	C 	0.93433	0.51851	0.26037	0.212
Mof_C 	C 	0.87303	0.46831	0.23457	-0.623
Mof_H 	H 	0.86993	0.43087	0.25997	0.199
Mof_H 	H 	0.84393	0.47457	0.27807	0.19
Mof_H 	H 	0.86523	0.46677	0.14907	0.201
Mof_C 	C 	0.05907	0.64807	0.41297	-0.665
Mof_H 	H 	0.07223	0.68507	0.36907	0.215
Mof_H 	H 	0.04143	0.64987	0.48877	0.214
Mof_H 	H 	0.09303	0.64257	0.42817	0.209
Mof_S 	S 	0.19479	0.52129	0.12476	-0.107
Mof_N 	N 	0.09032	0.52492	0.07788	-0.166
Mof_C 	C 	0.13373	0.5231	0.0969	0.044
Mof_Cd	Cd	-0	0.5	-0	0.34
Mof_S 	S 	0.00683	0.86146	0.54191	-0.106
Mof_N 	N 	0.89873	0.75699	0.58879	-0.165
Mof_C 	C 	0.94396	0.8004	0.56977	0.052
Mof_N 	N 	0.60201	0.54418	0.091	-0.144
Mof_N 	N 	0.64184	0.52707	0.05646	-0.221
Mof_H 	H 	0.6365	0.5042	0.9948	0.134
Mof_N 	N 	0.78505	0.64787	0.47586	-0.145
Mof_N 	N 	0.78456	0.69549	0.42472	-0.211
Mof_H 	H 	0.8044	0.7318	0.4528	0.117
Mof_C 	C 	0.6268	0.57795	0.189	0.218
Mof_C 	C 	0.68273	0.58285	0.2154	-0.152
Mof_C 	C 	0.69071	0.54941	0.128	0.235
Mof_C 	C 	0.74149	0.53917	0.1036	-0.666
Mof_H 	H 	0.7345	0.5028	0.1435	0.202
Mof_H 	H 	0.7783	0.5728	0.1336	0.209
Mof_H 	H 	0.7449	0.5352	0.0177	0.213
Mof_C 	C 	0.59498	0.60362	0.2566	-0.651
Mof_H 	H 	0.5903	0.6315	0.2055	0.212
Mof_H 	H 	0.6181	0.6245	0.3272	0.211
Mof_H 	H 	0.5558	0.5716	0.2811	0.217
Mof_C 	C 	0.75006	0.68036	0.326	0.233
Mof_C 	C 	0.72541	0.61929	0.3107	-0.146
Mof_C 	C 	0.74916	0.601	0.4063	0.215
Mof_C 	C 	0.73806	0.5397	0.4321	-0.63
Mof_H 	H 	0.7724	0.5366	0.4067	0.201
Mof_H 	H 	0.7027	0.5106	0.3886	0.192
Mof_H 	H 	0.7318	0.5319	0.5176	0.205
Mof_C 	C 	0.74434	0.72574	0.2537	-0.668
Mof_H 	H 	0.7205	0.7389	0.2976	0.216
Mof_H 	H 	0.7249	0.7081	0.1779	0.213
Mof_H 	H 	0.7838	0.7597	0.2385	0.209
Mof_S 	S 	0.65983	0.47188	0.79143	-0.098
Mof_N 	N 	0.76793	0.57635	0.74455	-0.164
Mof_C 	C 	0.7227	0.53294	0.76357	0.048
Mof_N 	N 	0.06466	0.78915	0.24233	-0.141
Mof_N 	N 	0.02483	0.80626	0.27687	-0.212
Mof_H 	H 	0.03017	0.82913	0.33853	0.121
Mof_N 	N 	0.88162	0.68546	0.85747	-0.147
Mof_N 	N 	0.88211	0.63784	0.90861	-0.205
Mof_H 	H 	0.86227	0.60153	0.88053	0.118
Mof_C 	C 	0.03987	0.75538	0.14433	0.207
Mof_C 	C 	0.98394	0.75048	0.11793	-0.142
Mof_C 	C 	0.97596	0.78392	0.20533	0.237
Mof_C 	C 	0.92518	0.79416	0.22973	-0.67
Mof_H 	H 	0.93217	0.83053	0.18983	0.204
Mof_H 	H 	0.88837	0.76053	0.19973	0.21
Mof_H 	H 	0.92177	0.79813	0.31563	0.22
Mof_C 	C 	0.07169	0.72971	0.07673	-0.634
Mof_H 	H 	0.07637	0.70183	0.12783	0.207
Mof_H 	H 	0.04857	0.70883	0.00613	0.201
Mof_H 	H 	0.11087	0.76173	0.05223	0.208
Mof_C 	C 	0.91661	0.65297	0.00733	0.228
Mof_C 	C 	0.94126	0.71404	0.02263	-0.162
Mof_C 	C 	0.91751	0.73233	0.92703	0.236
Mof_C 	C 	0.92861	0.79363	0.90123	-0.657
Mof_H 	H 	0.89427	0.79673	0.92663	0.212
Mof_H 	H 	0.96397	0.82273	0.94473	0.205
Mof_H 	H 	0.93487	0.80143	0.81573	0.214
Mof_C 	C 	0.92233	0.60759	0.07963	-0.668
Mof_H 	H 	0.94617	0.59443	0.03573	0.214
Mof_H 	H 	0.94177	0.62523	0.15543	0.217
Mof_H 	H 	0.88287	0.57363	0.09483	0.208
Mof_Cd	Cd	0.83333	0.66667	0.66667	0.357
Mof_N 	N 	0.78915	0.7245	0.75767	-0.144
Mof_N 	N 	0.80626	0.78144	0.72313	-0.212
Mof_H 	H 	0.82913	0.79897	0.66147	0.122
Mof_N 	N 	0.68546	0.80385	0.14253	-0.142
Mof_N 	N 	0.63784	0.75574	0.09139	-0.219
Mof_H 	H 	0.60153	0.73927	0.11947	0.116
Mof_C 	C 	0.75538	0.71552	0.85567	0.226
Mof_C 	C 	0.75048	0.76655	0.88207	-0.157
Mof_C 	C 	0.78392	0.80797	0.79467	0.245
Mof_C 	C 	0.79416	0.86899	0.77027	-0.683
Mof_H 	H 	0.83053	0.89837	0.81017	0.212
Mof_H 	H 	0.76053	0.87217	0.80027	0.218
Mof_H 	H 	0.79813	0.87637	0.68437	0.223
Mof_C 	C 	0.72971	0.65803	0.92327	-0.667
Mof_H 	H 	0.70183	0.62547	0.87217	0.219
Mof_H 	H 	0.70883	0.66027	0.99387	0.22
Mof_H 	H 	0.76173	0.65087	0.94777	0.225
Mof_C 	C 	0.65297	0.73637	0.99267	0.246
Mof_C 	C 	0.71404	0.77279	0.97737	-0.132
Mof_C 	C 	0.73233	0.81483	0.07297	0.197
Mof_C 	C 	0.79363	0.86503	0.09877	-0.611
Mof_H 	H 	0.79673	0.90247	0.07337	0.194
Mof_H 	H 	0.82273	0.85877	0.05527	0.183
Mof_H 	H 	0.80143	0.86657	0.18427	0.2
Mof_C 	C 	0.60759	0.68527	0.92037	-0.686
Mof_H 	H 	0.59443	0.64827	0.96427	0.225
Mof_H 	H 	0.62523	0.68347	0.84457	0.221
Mof_H 	H 	0.57363	0.69077	0.90517	0.218
Mof_S 	S 	0.47188	0.81204	0.20857	-0.103
Mof_N 	N 	0.57635	0.80841	0.25545	-0.165
Mof_C 	C 	0.53294	0.81023	0.23643	0.046
Mof_N 	N 	0.54418	0.94217	0.909	-0.139
Mof_N 	N 	0.52707	0.88523	0.94354	-0.2
Mof_H 	H 	0.5042	0.8677	0.0052	0.111
Mof_N 	N 	0.64787	0.86282	0.52414	-0.144
Mof_N 	N 	0.69549	0.91093	0.57528	-0.211
Mof_H 	H 	0.7318	0.9274	0.5472	0.117
Mof_C 	C 	0.57795	0.95115	0.811	0.23
Mof_C 	C 	0.58285	0.90012	0.7846	-0.156
Mof_C 	C 	0.54941	0.8587	0.872	0.244
Mof_C 	C 	0.53917	0.79768	0.8964	-0.683
Mof_H 	H 	0.5028	0.7683	0.8565	0.211
Mof_H 	H 	0.5728	0.7945	0.8664	0.217
Mof_H 	H 	0.5352	0.7903	0.9823	0.229
Mof_C 	C 	0.60362	0.00864	0.7434	-0.668
Mof_H 	H 	0.6315	0.0412	0.7945	0.219
Mof_H 	H 	0.6245	0.0064	0.6728	0.215
Mof_H 	H 	0.5716	0.0158	0.7189	0.221
Mof_C 	C 	0.68036	0.9303	0.674	0.232
Mof_C 	C 	0.61929	0.89388	0.6893	-0.142
Mof_C 	C 	0.601	0.85184	0.5937	0.214
Mof_C 	C 	0.5397	0.80164	0.5679	-0.63
Mof_H 	H 	0.5366	0.7642	0.5933	0.201
Mof_H 	H 	0.5106	0.8079	0.6114	0.192
Mof_H 	H 	0.5319	0.8001	0.4824	0.205
Mof_C 	C 	0.72574	0.9814	0.7463	-0.661
Mof_H 	H 	0.7389	0.0184	0.7024	0.211
Mof_H 	H 	0.7081	0.9832	0.8221	0.218
Mof_H 	H 	0.7597	0.9759	0.7615	0.21
Mof_S 	S 	0.86146	0.85462	0.45809	-0.099
Mof_N 	N 	0.75699	0.85825	0.41121	-0.164
Mof_C 	C 	0.8004	0.85643	0.43023	0.047
Mof_Cd	Cd	0.66667	0.83333	0.33333	0.356
Mof_N 	N 	0.94217	0.39799	0.091	-0.144
Mof_N 	N 	0.88523	0.35816	0.05646	-0.221
Mof_H 	H 	0.8677	0.3635	0.9948	0.134
Mof_N 	N 	0.86282	0.21495	0.47586	-0.144
Mof_N 	N 	0.91093	0.21544	0.42472	-0.21
Mof_H 	H 	0.9274	0.1956	0.4528	0.117
Mof_C 	C 	0.95115	0.3732	0.189	0.225
Mof_C 	C 	0.90012	0.31727	0.2154	-0.155
Mof_C 	C 	0.8587	0.30929	0.128	0.237
Mof_C 	C 	0.79768	0.25851	0.1036	-0.668
Mof_H 	H 	0.7683	0.2655	0.1435	0.203
Mof_H 	H 	0.7945	0.2217	0.1336	0.21
Mof_H 	H 	0.7903	0.2551	0.0177	0.213
Mof_C 	C 	0.00864	0.40502	0.2566	-0.663
Mof_H 	H 	0.0412	0.4097	0.2055	0.214
Mof_H 	H 	0.0064	0.3819	0.3272	0.213
Mof_H 	H 	0.0158	0.4442	0.2811	0.219
Mof_C 	C 	0.9303	0.24994	0.326	0.228
Mof_C 	C 	0.89388	0.27459	0.3107	-0.142
Mof_C 	C 	0.85184	0.25084	0.4063	0.214
Mof_C 	C 	0.80164	0.26194	0.4321	-0.629
Mof_H 	H 	0.7642	0.2276	0.4067	0.201
Mof_H 	H 	0.8079	0.2973	0.3886	0.192
Mof_H 	H 	0.8001	0.2682	0.5176	0.205
Mof_C 	C 	0.9814	0.25566	0.2537	-0.649
Mof_H 	H 	0.0184	0.2795	0.2976	0.208
Mof_H 	H 	0.9832	0.2751	0.1779	0.209
Mof_H 	H 	0.9759	0.2162	0.2385	0.205
Mof_S 	S 	0.85462	0.99317	0.54191	-0.093
Mof_N 	N 	0.85825	0.10127	0.58879	-0.163
Mof_C 	C 	0.85643	0.05604	0.56977	0.042
Mof_N 	N 	0.7245	0.93534	0.24233	-0.143
Mof_N 	N 	0.78144	0.97517	0.27687	-0.207
Mof_H 	H 	0.79897	0.96983	0.33853	0.122
Mof_N 	N 	0.80385	0.11838	0.85747	-0.147
Mof_N 	N 	0.75574	0.11789	0.90861	-0.205
Mof_H 	H 	0.73927	0.13773	0.88053	0.117
Mof_C 	C 	0.71552	0.96013	0.14433	0.222
Mof_C 	C 	0.76655	0.01606	0.11793	-0.153
Mof_C 	C 	0.80797	0.02404	0.20533	0.231
Mof_C 	C 	0.86899	0.07482	0.22973	-0.665
Mof_H 	H 	0.89837	0.06783	0.18983	0.202
Mof_H 	H 	0.87217	0.11163	0.19973	0.209
Mof_H 	H 	0.87637	0.07823	0.31563	0.218
Mof_C 	C 	0.65803	0.92831	0.07673	-0.648
Mof_H 	H 	0.62547	0.92363	0.12783	0.212
Mof_H 	H 	0.66027	0.95143	0.00613	0.208
Mof_H 	H 	0.65087	0.88913	0.05223	0.213
Mof_C 	C 	0.73637	0.08339	0.00733	0.224
Mof_C 	C 	0.77279	0.05874	0.02263	-0.158
Mof_C 	C 	0.81483	0.08249	0.92703	0.233
Mof_C 	C 	0.86503	0.07139	0.90123	-0.652
Mof_H 	H 	0.90247	0.10573	0.92663	0.211
Mof_H 	H 	0.85877	0.03603	0.94473	0.202
Mof_H 	H 	0.86657	0.06513	0.81573	0.212
Mof_C 	C 	0.68527	0.07767	0.07963	-0.661
Mof_H 	H 	0.64827	0.05383	0.03573	0.21
Mof_H 	H 	0.68347	0.05823	0.15543	0.213
Mof_H 	H 	0.69077	0.11713	0.09483	0.206
Mof_S 	S 	0.81204	0.34017	0.79143	-0.098
Mof_N 	N 	0.80841	0.23207	0.74455	-0.164
Mof_C 	C 	0.81023	0.2773	0.76357	0.048
Mof_Cd	Cd	0.83333	0.16667	0.66667	0.356
Mof_N 	N 	0.60884	0.73132	0.42433	-0.143
Mof_N 	N 	0.5519	0.69149	0.38979	-0.21
Mof_H 	H 	0.53437	0.69683	0.32813	0.122
Mof_N 	N 	0.52949	0.54828	0.80919	-0.142
Mof_N 	N 	0.5776	0.54877	0.75805	-0.212
Mof_H 	H 	0.59407	0.52893	0.78613	0.118
Mof_C 	C 	0.61782	0.70653	0.52233	0.22
Mof_C 	C 	0.56679	0.6506	0.54873	-0.152
Mof_C 	C 	0.52537	0.64262	0.46133	0.239
Mof_C 	C 	0.46435	0.59184	0.43693	-0.674
Mof_H 	H 	0.43497	0.59883	0.47683	0.206
Mof_H 	H 	0.46117	0.55503	0.46693	0.213
Mof_H 	H 	0.45697	0.58843	0.35103	0.221
Mof_C 	C 	0.67531	0.73835	0.58993	-0.653
Mof_H 	H 	0.70787	0.74303	0.53883	0.214
Mof_H 	H 	0.67307	0.71523	0.66053	0.212
Mof_H 	H 	0.68247	0.77753	0.61443	0.217
Mof_C 	C 	0.59697	0.58327	0.65933	0.236
Mof_C 	C 	0.56055	0.60792	0.64403	-0.147
Mof_C 	C 	0.51851	0.58417	0.73963	0.217
Mof_C 	C 	0.46831	0.59527	0.76543	-0.636
Mof_H 	H 	0.43087	0.56093	0.74003	0.204
Mof_H 	H 	0.47457	0.63063	0.72193	0.194
Mof_H 	H 	0.46677	0.60153	0.85093	0.21
Mof_C 	C 	0.64807	0.58899	0.58703	-0.674
Mof_H 	H 	0.68507	0.61283	0.63093	0.218
Mof_H 	H 	0.64987	0.60843	0.51123	0.218
Mof_H 	H 	0.64257	0.54953	0.57183	0.212
Mof_S 	S 	0.52129	0.3265	0.87524	-0.094
Mof_N 	N 	0.52492	0.4346	0.92212	-0.16
Mof_C 	C 	0.5231	0.38937	0.9031	0.05
Mof_N 	N 	0.39116	0.26868	0.57567	-0.143
Mof_N 	N 	0.4481	0.30851	0.61021	-0.21
Mof_H 	H 	0.46563	0.30317	0.67187	0.122
Mof_N 	N 	0.47051	0.45172	0.19081	-0.145
Mof_N 	N 	0.4224	0.45123	0.24195	-0.212
Mof_H 	H 	0.40593	0.47107	0.21387	0.117
Mof_C 	C 	0.38218	0.29347	0.47767	0.221
Mof_C 	C 	0.43321	0.3494	0.45127	-0.153
Mof_C 	C 	0.47463	0.35738	0.53867	0.239
Mof_C 	C 	0.53565	0.40816	0.56307	-0.674
Mof_H 	H 	0.56503	0.40117	0.52317	0.206
Mof_H 	H 	0.53883	0.44497	0.53307	0.213
Mof_H 	H 	0.54303	0.41157	0.64897	0.22
Mof_C 	C 	0.32469	0.26165	0.41007	-0.654
Mof_H 	H 	0.29213	0.25697	0.46117	0.214
Mof_H 	H 	0.32693	0.28477	0.33947	0.213
Mof_H 	H 	0.31753	0.22247	0.38557	0.218
Mof_C 	C 	0.40303	0.41673	0.34067	0.235
Mof_C 	C 	0.43945	0.39208	0.35597	-0.145
Mof_C 	C 	0.48149	0.41583	0.26037	0.214
Mof_C 	C 	0.53169	0.40473	0.23457	-0.626
Mof_H 	H 	0.56913	0.43907	0.25997	0.199
Mof_H 	H 	0.52543	0.36937	0.27807	0.19
Mof_H 	H 	0.53323	0.39847	0.14907	0.202
Mof_C 	C 	0.35193	0.41101	0.41297	-0.674
Mof_H 	H 	0.31493	0.38717	0.36907	0.218
Mof_H 	H 	0.35013	0.39157	0.48877	0.218
Mof_H 	H 	0.35743	0.45047	0.42817	0.212
Mof_S 	S 	0.47871	0.6735	0.12476	-0.107
Mof_N 	N 	0.47508	0.5654	0.07788	-0.166
Mof_C 	C 	0.4769	0.61063	0.0969	0.045
Mof_Cd	Cd	0.5	0.5	-0	0.344
Mof_N 	N 	0.2755	0.06466	0.75767	-0.143
Mof_N 	N 	0.21856	0.02483	0.72313	-0.214
Mof_H 	H 	0.20103	0.03017	0.66147	0.122
Mof_N 	N 	0.19615	0.88162	0.14253	-0.142
Mof_N 	N 	0.24426	0.88211	0.09139	-0.219
Mof_H 	H 	0.26073	0.86227	0.11947	0.116
Mof_C 	C 	0.28448	0.03987	0.85567	0.22
Mof_C 	C 	0.23345	0.98394	0.88207	-0.152
Mof_C 	C 	0.19203	0.97596	0.79467	0.247
Mof_C 	C 	0.13101	0.92518	0.77027	-0.683
Mof_H 	H 	0.10163	0.93217	0.81017	0.211
Mof_H 	H 	0.12783	0.88837	0.80027	0.217
Mof_H 	H 	0.12363	0.92177	0.68437	0.224
Mof_C 	C 	0.34197	0.07169	0.92327	-0.66
Mof_H 	H 	0.37453	0.07637	0.87217	0.217
Mof_H 	H 	0.33973	0.04857	0.99387	0.217
Mof_H 	H 	0.34913	0.11087	0.94777	0.223
Mof_C 	C 	0.26363	0.91661	0.99267	0.248
Mof_C 	C 	0.22721	0.94126	0.97737	-0.133
Mof_C 	C 	0.18517	0.91751	0.07297	0.197
Mof_C 	C 	0.13497	0.92861	0.09877	-0.61
Mof_H 	H 	0.09753	0.89427	0.07337	0.192
Mof_H 	H 	0.14123	0.96397	0.05527	0.183
Mof_H 	H 	0.13343	0.93487	0.18427	0.2
Mof_C 	C 	0.31473	0.92233	0.92037	-0.69
Mof_H 	H 	0.35173	0.94617	0.96427	0.228
Mof_H 	H 	0.31653	0.94177	0.84457	0.223
Mof_H 	H 	0.30923	0.88287	0.90517	0.219
Mof_S 	S 	0.18796	0.65983	0.20857	-0.102
Mof_N 	N 	0.19159	0.76793	0.25545	-0.165
Mof_C 	C 	0.18977	0.7227	0.23643	0.046
Mof_N 	N 	0.05783	0.60201	0.909	-0.139
Mof_N 	N 	0.11477	0.64184	0.94354	-0.2
Mof_H 	H 	0.1323	0.6365	0.0052	0.11
Mof_N 	N 	0.13718	0.78505	0.52414	-0.145
Mof_N 	N 	0.08907	0.78456	0.57528	-0.213
Mof_H 	H 	0.0726	0.8044	0.5472	0.117
Mof_C 	C 	0.04885	0.6268	0.811	0.217
Mof_C 	C 	0.09988	0.68273	0.7846	-0.15
Mof_C 	C 	0.1413	0.69071	0.872	0.242
Mof_C 	C 	0.20232	0.74149	0.8964	-0.681
Mof_H 	H 	0.2317	0.7345	0.8565	0.21
Mof_H 	H 	0.2055	0.7783	0.8664	0.217
Mof_H 	H 	0.2097	0.7449	0.9823	0.228
Mof_C 	C 	0.99136	0.59498	0.7434	-0.646
Mof_H 	H 	0.9588	0.5903	0.7945	0.214
Mof_H 	H 	0.9936	0.6181	0.6728	0.212
Mof_H 	H 	0.9842	0.5558	0.7189	0.217
Mof_C 	C 	0.0697	0.75006	0.674	0.242
Mof_C 	C 	0.10612	0.72541	0.6893	-0.149
Mof_C 	C 	0.14816	0.74916	0.5937	0.217
Mof_C 	C 	0.19836	0.73806	0.5679	-0.633
Mof_H 	H 	0.2358	0.7724	0.5933	0.202
Mof_H 	H 	0.1921	0.7027	0.6114	0.193
Mof_H 	H 	0.1999	0.7318	0.4824	0.206
Mof_C 	C 	0.0186	0.74434	0.7463	-0.697
Mof_H 	H 	0.9816	0.7205	0.7024	0.227
Mof_H 	H 	0.0168	0.7249	0.8221	0.227
Mof_H 	H 	0.0241	0.7838	0.7615	0.218
Mof_S 	S 	0.14538	0.00683	0.45809	-0.108
Mof_N 	N 	0.14175	0.89873	0.41121	-0.165
Mof_C 	C 	0.14357	0.94396	0.43023	0.053
Mof_Cd	Cd	0.16667	0.83333	0.33333	0.356
_end
