data_functionalizedCrystal
_audit_creation_method	'EQeq! by Chris Wilmer'
_symmetry_space_group_name_H-M	'P1'
_symmetry_Int_Tables_number	1
_symmetry_cell_setting	triclinic
loop_
_symmetry_equiv_pos_as_xyz
  x,y,z
_cell_length_a	31.864
_cell_length_b	31.864
_cell_length_c	12.846
_cell_angle_alpha	90
_cell_angle_beta	90
_cell_angle_gamma	120
loop_
_atom_site_label
_atom_site_type_symbol
_atom_site_fract_x
_atom_site_fract_y
_atom_site_fract_z
_atom_site_charge
Mof_C 	C 	0.02159	0.29412	0.034	0.466
Mof_C 	C 	0.05546	0.27527	0.0227	-0.404
Mof_H 	H 	0.0692	0.2765	0.9581	0.151
Mof_C 	C 	0.06643	0.25664	0.1033	0.235
Mof_H 	H 	0.0501	0.2549	0.1646	-0.037
Mof_C 	C 	0.10012	0.23843	0.1108	-0.235
Mof_C 	C 	0.13111	0.24046	0.032	0.339
Mof_C 	C 	0.16487	0.2255	0.0496	-0.344
Mof_H 	H 	0.1855	0.2273	0.9963	0.136
Mof_C 	C 	0.1677	0.20793	0.1467	0.199
Mof_H 	H 	0.1907	0.1986	0.1586	-0.071
Mof_C 	C 	0.1368	0.204	0.2249	-0.253
Mof_H 	H 	0.1381	0.1914	0.2893	0.108
Mof_C 	C 	0.10353	0.21904	0.2073	0.146
Mof_H 	H 	0.0826	0.2162	0.2609	-0.024
Mof_C 	C 	0.91098	0.24013	0.8149	0.089
Mof_H 	H 	0.9155	0.2508	0.8835	-0.046
Mof_C 	C 	0.86566	0.20358	0.7853	-0.146
Mof_H 	H 	0.8406	0.1902	0.8338	0.069
Mof_C 	C 	0.85732	0.18671	0.6836	0.056
Mof_C 	C 	0.89677	0.20916	0.6155	-0.136
Mof_H 	H 	0.8932	0.1997	0.546	0.072
Mof_C 	C 	0.94085	0.24519	0.6512	0.077
Mof_H 	H 	0.9666	0.2594	0.6046	-0.033
Mof_N 	N 	0.94852	0.26086	0.7501	-0.282
Mof_O 	O 	0.01044	0.30035	0.1245	-0.512
Mof_O 	O 	0.00454	0.30376	0.9547	-0.574
Mof_O 	O 	0.12857	0.25786	0.9382	-0.481
Mof_H 	H 	0.1555	0.2714	0.9112	0.236
Mof_Zn	Zn	0.01673	0.30926	0.80286	1.178
Mof_C 	C 	0.68826	0.62745	0.36733	0.466
Mof_C 	C 	0.72213	0.6086	0.35603	-0.404
Mof_H 	H 	0.73587	0.60983	0.29143	0.153
Mof_C 	C 	0.7331	0.58997	0.43663	0.236
Mof_H 	H 	0.71677	0.58823	0.49793	-0.036
Mof_C 	C 	0.76679	0.57176	0.44413	-0.235
Mof_C 	C 	0.79778	0.57379	0.36533	0.34
Mof_C 	C 	0.83154	0.55883	0.38293	-0.343
Mof_H 	H 	0.85217	0.56063	0.32963	0.137
Mof_C 	C 	0.83437	0.54126	0.48003	0.2
Mof_H 	H 	0.85737	0.53193	0.49193	-0.07
Mof_C 	C 	0.80347	0.53733	0.55823	-0.253
Mof_H 	H 	0.80477	0.52473	0.62263	0.109
Mof_C 	C 	0.7702	0.55237	0.54063	0.147
Mof_H 	H 	0.74927	0.54953	0.59423	-0.023
Mof_C 	C 	0.57765	0.57346	0.14823	0.09
Mof_H 	H 	0.58217	0.58413	0.21683	-0.045
Mof_C 	C 	0.53233	0.53691	0.11863	-0.145
Mof_H 	H 	0.50727	0.52353	0.16713	0.07
Mof_C 	C 	0.52399	0.52004	0.01693	0.056
Mof_C 	C 	0.56344	0.54249	0.94883	-0.135
Mof_H 	H 	0.55987	0.53303	0.87933	0.073
Mof_C 	C 	0.60752	0.57852	0.98453	0.078
Mof_H 	H 	0.63327	0.59273	0.93793	-0.032
Mof_N 	N 	0.61519	0.59419	0.08343	-0.282
Mof_O 	O 	0.67711	0.63368	0.45783	-0.512
Mof_O 	O 	0.67121	0.63709	0.28803	-0.573
Mof_O 	O 	0.79524	0.59119	0.27153	-0.481
Mof_H 	H 	0.82217	0.60473	0.24453	0.236
Mof_Zn	Zn	0.68339	0.6426	0.13619	1.178
Mof_C 	C 	0.35492	0.96079	0.70067	0.466
Mof_C 	C 	0.38879	0.94194	0.68937	-0.404
Mof_H 	H 	0.40253	0.94317	0.62477	0.153
Mof_C 	C 	0.39976	0.92331	0.76997	0.236
Mof_H 	H 	0.38343	0.92157	0.83127	-0.036
Mof_C 	C 	0.43345	0.9051	0.77747	-0.235
Mof_C 	C 	0.46444	0.90713	0.69867	0.34
Mof_C 	C 	0.4982	0.89217	0.71627	-0.343
Mof_H 	H 	0.51883	0.89397	0.66297	0.137
Mof_C 	C 	0.50103	0.8746	0.81337	0.2
Mof_H 	H 	0.52403	0.86527	0.82527	-0.07
Mof_C 	C 	0.47013	0.87067	0.89157	-0.253
Mof_H 	H 	0.47143	0.85807	0.95597	0.108
Mof_C 	C 	0.43686	0.88571	0.87397	0.147
Mof_H 	H 	0.41593	0.88287	0.92757	-0.023
Mof_C 	C 	0.24431	0.9068	0.48157	0.09
Mof_H 	H 	0.24883	0.91747	0.55017	-0.045
Mof_C 	C 	0.19899	0.87025	0.45197	-0.145
Mof_H 	H 	0.17393	0.85687	0.50047	0.07
Mof_C 	C 	0.19065	0.85338	0.35027	0.057
Mof_C 	C 	0.2301	0.87583	0.28217	-0.135
Mof_H 	H 	0.22653	0.86637	0.21267	0.073
Mof_C 	C 	0.27418	0.91186	0.31787	0.078
Mof_H 	H 	0.29993	0.92607	0.27127	-0.032
Mof_N 	N 	0.28185	0.92753	0.41677	-0.282
Mof_O 	O 	0.34377	0.96702	0.79117	-0.512
Mof_O 	O 	0.33787	0.97043	0.62137	-0.573
Mof_O 	O 	0.4619	0.92453	0.60487	-0.48
Mof_H 	H 	0.48883	0.93807	0.57787	0.236
Mof_Zn	Zn	0.35006	0.97593	0.46953	1.178
Mof_C 	C 	0.70588	0.72747	0.034	0.466
Mof_C 	C 	0.72473	0.78019	0.0227	-0.404
Mof_H 	H 	0.7235	0.7927	0.9581	0.153
Mof_C 	C 	0.74336	0.80979	0.1033	0.236
Mof_H 	H 	0.7451	0.7952	0.1646	-0.036
Mof_C 	C 	0.76157	0.86169	0.1108	-0.234
Mof_C 	C 	0.75954	0.89065	0.032	0.339
Mof_C 	C 	0.7745	0.93937	0.0496	-0.342
Mof_H 	H 	0.7727	0.9582	0.9963	0.137
Mof_C 	C 	0.79207	0.95977	0.1467	0.199
Mof_H 	H 	0.8014	0.9921	0.1586	-0.07
Mof_C 	C 	0.796	0.9328	0.2249	-0.252
Mof_H 	H 	0.8086	0.9467	0.2893	0.108
Mof_C 	C 	0.78096	0.88449	0.2073	0.147
Mof_H 	H 	0.7838	0.8664	0.2609	-0.023
Mof_C 	C 	0.75987	0.67085	0.8149	0.09
Mof_H 	H 	0.7492	0.6647	0.8835	-0.045
Mof_C 	C 	0.79642	0.66208	0.7853	-0.145
Mof_H 	H 	0.8098	0.6504	0.8338	0.07
Mof_C 	C 	0.81329	0.67061	0.6836	0.057
Mof_C 	C 	0.79084	0.68761	0.6155	-0.135
Mof_H 	H 	0.8003	0.6935	0.546	0.073
Mof_C 	C 	0.75481	0.69566	0.6512	0.078
Mof_H 	H 	0.7406	0.7072	0.6046	-0.032
Mof_N 	N 	0.73914	0.68766	0.7501	-0.282
Mof_O 	O 	0.69965	0.71009	0.1245	-0.512
Mof_O 	O 	0.69624	0.70078	0.9547	-0.573
Mof_O 	O 	0.74214	0.87071	0.9382	-0.48
Mof_H 	H 	0.7286	0.8841	0.9112	0.236
Mof_Zn	Zn	0.69074	0.70746	0.80286	1.178
Mof_C 	C 	0.37255	0.0608	0.36733	0.466
Mof_C 	C 	0.3914	0.11352	0.35603	-0.404
Mof_H 	H 	0.39017	0.12603	0.29143	0.153
Mof_C 	C 	0.41003	0.14312	0.43663	0.236
Mof_H 	H 	0.41177	0.12853	0.49793	-0.036
Mof_C 	C 	0.42824	0.19502	0.44413	-0.235
Mof_C 	C 	0.42621	0.22398	0.36533	0.34
Mof_C 	C 	0.44117	0.2727	0.38293	-0.343
Mof_H 	H 	0.43937	0.29153	0.32963	0.137
Mof_C 	C 	0.45874	0.2931	0.48003	0.2
Mof_H 	H 	0.46807	0.32543	0.49193	-0.07
Mof_C 	C 	0.46267	0.26613	0.55823	-0.253
Mof_H 	H 	0.47527	0.28003	0.62263	0.109
Mof_C 	C 	0.44763	0.21782	0.54063	0.147
Mof_H 	H 	0.45047	0.19973	0.59423	-0.023
Mof_C 	C 	0.42654	0.00418	0.14823	0.087
Mof_H 	H 	0.41587	0.99803	0.21683	-0.044
Mof_C 	C 	0.46309	0.99541	0.11863	-0.142
Mof_H 	H 	0.47647	0.98373	0.16713	0.069
Mof_C 	C 	0.47996	0.00394	0.01693	0.055
Mof_C 	C 	0.45751	0.02094	0.94883	-0.133
Mof_H 	H 	0.46697	0.02683	0.87933	0.073
Mof_C 	C 	0.42148	0.02899	0.98453	0.078
Mof_H 	H 	0.40727	0.04053	0.93793	-0.032
Mof_N 	N 	0.40581	0.02099	0.08343	-0.282
Mof_O 	O 	0.36632	0.04342	0.45783	-0.512
Mof_O 	O 	0.36291	0.03411	0.28803	-0.573
Mof_O 	O 	0.40881	0.20404	0.27153	-0.481
Mof_H 	H 	0.39527	0.21743	0.24453	0.236
Mof_Zn	Zn	0.3574	0.0408	0.13619	1.178
Mof_C 	C 	0.03921	0.39414	0.70067	0.466
Mof_C 	C 	0.05806	0.44686	0.68937	-0.404
Mof_H 	H 	0.05683	0.45937	0.62477	0.153
Mof_C 	C 	0.07669	0.47646	0.76997	0.236
Mof_H 	H 	0.07843	0.46187	0.83127	-0.036
Mof_C 	C 	0.0949	0.52836	0.77747	-0.235
Mof_C 	C 	0.09287	0.55732	0.69867	0.34
Mof_C 	C 	0.10783	0.60604	0.71627	-0.343
Mof_H 	H 	0.10603	0.62487	0.66297	0.137
Mof_C 	C 	0.1254	0.62644	0.81337	0.2
Mof_H 	H 	0.13473	0.65877	0.82527	-0.07
Mof_C 	C 	0.12933	0.59947	0.89157	-0.253
Mof_H 	H 	0.14193	0.61337	0.95597	0.108
Mof_C 	C 	0.11429	0.55116	0.87397	0.147
Mof_H 	H 	0.11713	0.53307	0.92757	-0.023
Mof_C 	C 	0.0932	0.33752	0.48157	0.09
Mof_H 	H 	0.08253	0.33137	0.55017	-0.045
Mof_C 	C 	0.12975	0.32875	0.45197	-0.145
Mof_H 	H 	0.14313	0.31707	0.50047	0.07
Mof_C 	C 	0.14662	0.33728	0.35027	0.057
Mof_C 	C 	0.12417	0.35428	0.28217	-0.135
Mof_H 	H 	0.13363	0.36017	0.21267	0.073
Mof_C 	C 	0.08814	0.36233	0.31787	0.078
Mof_H 	H 	0.07393	0.37387	0.27127	-0.032
Mof_N 	N 	0.07247	0.35433	0.41677	-0.282
Mof_O 	O 	0.03298	0.37676	0.79117	-0.512
Mof_O 	O 	0.02957	0.36745	0.62137	-0.573
Mof_O 	O 	0.07547	0.53738	0.60487	-0.48
Mof_H 	H 	0.06193	0.55077	0.57787	0.236
Mof_Zn	Zn	0.02407	0.37413	0.46953	1.178
Mof_C 	C 	0.27253	0.97841	0.034	0.467
Mof_C 	C 	0.21981	0.94454	0.0227	-0.402
Mof_H 	H 	0.2073	0.9308	0.9581	0.151
Mof_C 	C 	0.19021	0.93357	0.1033	0.234
Mof_H 	H 	0.2048	0.9499	0.1646	-0.036
Mof_C 	C 	0.13831	0.89988	0.1108	-0.233
Mof_C 	C 	0.10935	0.86889	0.032	0.339
Mof_C 	C 	0.06063	0.83513	0.0496	-0.34
Mof_H 	H 	0.0418	0.8145	0.9963	0.135
Mof_C 	C 	0.04023	0.8323	0.1467	0.198
Mof_H 	H 	0.0079	0.8093	0.1586	-0.069
Mof_C 	C 	0.0672	0.8632	0.2249	-0.251
Mof_H 	H 	0.0533	0.8619	0.2893	0.108
Mof_C 	C 	0.11551	0.89647	0.2073	0.146
Mof_H 	H 	0.1336	0.9174	0.2609	-0.022
Mof_C 	C 	0.32915	0.08902	0.8149	0.09
Mof_H 	H 	0.3353	0.0845	0.8835	-0.045
Mof_C 	C 	0.33792	0.13434	0.7853	-0.145
Mof_H 	H 	0.3496	0.1594	0.8338	0.07
Mof_C 	C 	0.32939	0.14268	0.6836	0.057
Mof_C 	C 	0.31239	0.10323	0.6155	-0.135
Mof_H 	H 	0.3065	0.1068	0.546	0.073
Mof_C 	C 	0.30434	0.05915	0.6512	0.078
Mof_H 	H 	0.2928	0.0334	0.6046	-0.032
Mof_N 	N 	0.31234	0.05148	0.7501	-0.282
Mof_O 	O 	0.28991	0.98956	0.1245	-0.512
Mof_O 	O 	0.29922	0.99546	0.9547	-0.574
Mof_O 	O 	0.12929	0.87143	0.9382	-0.481
Mof_H 	H 	0.1159	0.8445	0.9112	0.236
Mof_Zn	Zn	0.29254	0.98327	0.80286	1.178
Mof_C 	C 	0.9392	0.31174	0.36733	0.466
Mof_C 	C 	0.88648	0.27787	0.35603	-0.404
Mof_H 	H 	0.87397	0.26413	0.29143	0.153
Mof_C 	C 	0.85688	0.2669	0.43663	0.236
Mof_H 	H 	0.87147	0.28323	0.49793	-0.036
Mof_C 	C 	0.80498	0.23321	0.44413	-0.235
Mof_C 	C 	0.77602	0.20222	0.36533	0.34
Mof_C 	C 	0.7273	0.16846	0.38293	-0.343
Mof_H 	H 	0.70847	0.14783	0.32963	0.137
Mof_C 	C 	0.7069	0.16563	0.48003	0.2
Mof_H 	H 	0.67457	0.14263	0.49193	-0.07
Mof_C 	C 	0.73387	0.19653	0.55823	-0.253
Mof_H 	H 	0.71997	0.19523	0.62263	0.109
Mof_C 	C 	0.78218	0.2298	0.54063	0.147
Mof_H 	H 	0.80027	0.25073	0.59423	-0.023
Mof_C 	C 	0.99582	0.42235	0.14823	0.087
Mof_H 	H 	0.00197	0.41783	0.21683	-0.044
Mof_C 	C 	0.00459	0.46767	0.11863	-0.142
Mof_H 	H 	0.01627	0.49273	0.16713	0.069
Mof_C 	C 	0.99606	0.47601	0.01693	0.055
Mof_C 	C 	0.97906	0.43656	0.94883	-0.133
Mof_H 	H 	0.97317	0.44013	0.87933	0.073
Mof_C 	C 	0.97101	0.39248	0.98453	0.078
Mof_H 	H 	0.95947	0.36673	0.93793	-0.032
Mof_N 	N 	0.97901	0.38481	0.08343	-0.282
Mof_O 	O 	0.95658	0.32289	0.45783	-0.512
Mof_O 	O 	0.96589	0.32879	0.28803	-0.573
Mof_O 	O 	0.79596	0.20476	0.27153	-0.481
Mof_H 	H 	0.78257	0.17783	0.24453	0.236
Mof_Zn	Zn	0.9592	0.31661	0.13619	1.178
Mof_C 	C 	0.60586	0.64508	0.70067	0.466
Mof_C 	C 	0.55314	0.61121	0.68937	-0.404
Mof_H 	H 	0.54063	0.59747	0.62477	0.153
Mof_C 	C 	0.52354	0.60024	0.76997	0.236
Mof_H 	H 	0.53813	0.61657	0.83127	-0.036
Mof_C 	C 	0.47164	0.56655	0.77747	-0.235
Mof_C 	C 	0.44268	0.53556	0.69867	0.34
Mof_C 	C 	0.39396	0.5018	0.71627	-0.343
Mof_H 	H 	0.37513	0.48117	0.66297	0.137
Mof_C 	C 	0.37356	0.49897	0.81337	0.2
Mof_H 	H 	0.34123	0.47597	0.82527	-0.07
Mof_C 	C 	0.40053	0.52987	0.89157	-0.253
Mof_H 	H 	0.38663	0.52857	0.95597	0.109
Mof_C 	C 	0.44884	0.56314	0.87397	0.147
Mof_H 	H 	0.46693	0.58407	0.92757	-0.023
Mof_C 	C 	0.66248	0.75569	0.48157	0.09
Mof_H 	H 	0.66863	0.75117	0.55017	-0.045
Mof_C 	C 	0.67125	0.80101	0.45197	-0.145
Mof_H 	H 	0.68293	0.82607	0.50047	0.07
Mof_C 	C 	0.66272	0.80935	0.35027	0.057
Mof_C 	C 	0.64572	0.7699	0.28217	-0.135
Mof_H 	H 	0.63983	0.77347	0.21267	0.073
Mof_C 	C 	0.63767	0.72582	0.31787	0.078
Mof_H 	H 	0.62613	0.70007	0.27127	-0.032
Mof_N 	N 	0.64567	0.71815	0.41677	-0.282
Mof_O 	O 	0.62324	0.65623	0.79117	-0.512
Mof_O 	O 	0.63255	0.66213	0.62137	-0.573
Mof_O 	O 	0.46262	0.5381	0.60487	-0.48
Mof_H 	H 	0.44923	0.51117	0.57787	0.236
Mof_Zn	Zn	0.62587	0.64994	0.46953	1.178
Mof_C 	C 	0.97841	0.70588	0.966	0.467
Mof_C 	C 	0.94454	0.72473	0.9773	-0.403
Mof_H 	H 	0.9308	0.7235	0.0419	0.152
Mof_C 	C 	0.93357	0.74336	0.8967	0.236
Mof_H 	H 	0.9499	0.7451	0.8354	-0.036
Mof_C 	C 	0.89988	0.76157	0.8892	-0.234
Mof_C 	C 	0.86889	0.75954	0.968	0.34
Mof_C 	C 	0.83513	0.7745	0.9504	-0.343
Mof_H 	H 	0.8145	0.7727	0.0037	0.137
Mof_C 	C 	0.8323	0.79207	0.8533	0.2
Mof_H 	H 	0.8093	0.8014	0.8414	-0.07
Mof_C 	C 	0.8632	0.796	0.7751	-0.252
Mof_H 	H 	0.8619	0.8086	0.7107	0.109
Mof_C 	C 	0.89647	0.78096	0.7927	0.147
Mof_H 	H 	0.9174	0.7838	0.7391	-0.023
Mof_C 	C 	0.08902	0.75987	0.1851	0.09
Mof_H 	H 	0.0845	0.7492	0.1165	-0.045
Mof_C 	C 	0.13434	0.79642	0.2147	-0.145
Mof_H 	H 	0.1594	0.8098	0.1662	0.07
Mof_C 	C 	0.14268	0.81329	0.3164	0.057
Mof_C 	C 	0.10323	0.79084	0.3845	-0.135
Mof_H 	H 	0.1068	0.8003	0.454	0.073
Mof_C 	C 	0.05915	0.75481	0.3488	0.078
Mof_H 	H 	0.0334	0.7406	0.3954	-0.032
Mof_N 	N 	0.05148	0.73914	0.2499	-0.282
Mof_O 	O 	0.98956	0.69965	0.8755	-0.512
Mof_O 	O 	0.99546	0.69624	0.0453	-0.574
Mof_O 	O 	0.87143	0.74214	0.0618	-0.481
Mof_H 	H 	0.8445	0.7286	0.0888	0.236
Mof_Zn	Zn	0.98327	0.69074	0.19714	1.178
Mof_C 	C 	0.64508	0.03921	0.29933	0.466
Mof_C 	C 	0.61121	0.05806	0.31063	-0.404
Mof_H 	H 	0.59747	0.05683	0.37523	0.153
Mof_C 	C 	0.60024	0.07669	0.23003	0.236
Mof_H 	H 	0.61657	0.07843	0.16873	-0.036
Mof_C 	C 	0.56655	0.0949	0.22253	-0.235
Mof_C 	C 	0.53556	0.09287	0.30133	0.34
Mof_C 	C 	0.5018	0.10783	0.28373	-0.343
Mof_H 	H 	0.48117	0.10603	0.33703	0.137
Mof_C 	C 	0.49897	0.1254	0.18663	0.2
Mof_H 	H 	0.47597	0.13473	0.17473	-0.07
Mof_C 	C 	0.52987	0.12933	0.10843	-0.253
Mof_H 	H 	0.52857	0.14193	0.04403	0.108
Mof_C 	C 	0.56314	0.11429	0.12603	0.147
Mof_H 	H 	0.58407	0.11713	0.07243	-0.023
Mof_C 	C 	0.75569	0.0932	0.51843	0.09
Mof_H 	H 	0.75117	0.08253	0.44983	-0.045
Mof_C 	C 	0.80101	0.12975	0.54803	-0.145
Mof_H 	H 	0.82607	0.14313	0.49953	0.07
Mof_C 	C 	0.80935	0.14662	0.64973	0.057
Mof_C 	C 	0.7699	0.12417	0.71783	-0.135
Mof_H 	H 	0.77347	0.13363	0.78733	0.073
Mof_C 	C 	0.72582	0.08814	0.68213	0.078
Mof_H 	H 	0.70007	0.07393	0.72873	-0.032
Mof_N 	N 	0.71815	0.07247	0.58323	-0.282
Mof_O 	O 	0.65623	0.03298	0.20883	-0.512
Mof_O 	O 	0.66213	0.02957	0.37863	-0.573
Mof_O 	O 	0.5381	0.07547	0.39513	-0.48
Mof_H 	H 	0.51117	0.06193	0.42213	0.236
Mof_Zn	Zn	0.64994	0.02407	0.53047	1.178
Mof_C 	C 	0.31174	0.37255	0.63267	0.466
Mof_C 	C 	0.27787	0.3914	0.64397	-0.404
Mof_H 	H 	0.26413	0.39017	0.70857	0.153
Mof_C 	C 	0.2669	0.41003	0.56337	0.236
Mof_H 	H 	0.28323	0.41177	0.50207	-0.036
Mof_C 	C 	0.23321	0.42824	0.55587	-0.235
Mof_C 	C 	0.20222	0.42621	0.63467	0.34
Mof_C 	C 	0.16846	0.44117	0.61707	-0.343
Mof_H 	H 	0.14783	0.43937	0.67037	0.137
Mof_C 	C 	0.16563	0.45874	0.51997	0.2
Mof_H 	H 	0.14263	0.46807	0.50807	-0.07
Mof_C 	C 	0.19653	0.46267	0.44177	-0.253
Mof_H 	H 	0.19523	0.47527	0.37737	0.109
Mof_C 	C 	0.2298	0.44763	0.45937	0.147
Mof_H 	H 	0.25073	0.45047	0.40577	-0.023
Mof_C 	C 	0.42235	0.42654	0.85177	0.09
Mof_H 	H 	0.41783	0.41587	0.78317	-0.045
Mof_C 	C 	0.46767	0.46309	0.88137	-0.145
Mof_H 	H 	0.49273	0.47647	0.83287	0.07
Mof_C 	C 	0.47601	0.47996	0.98307	0.056
Mof_C 	C 	0.43656	0.45751	0.05117	-0.135
Mof_H 	H 	0.44013	0.46697	0.12067	0.073
Mof_C 	C 	0.39248	0.42148	0.01547	0.078
Mof_H 	H 	0.36673	0.40727	0.06207	-0.032
Mof_N 	N 	0.38481	0.40581	0.91657	-0.282
Mof_O 	O 	0.32289	0.36632	0.54217	-0.512
Mof_O 	O 	0.32879	0.36291	0.71197	-0.573
Mof_O 	O 	0.20476	0.40881	0.72847	-0.481
Mof_H 	H 	0.17783	0.39527	0.75547	0.236
Mof_Zn	Zn	0.31661	0.3574	0.86381	1.178
Mof_C 	C 	0.29412	0.27253	0.966	0.466
Mof_C 	C 	0.27527	0.21981	0.9773	-0.404
Mof_H 	H 	0.2765	0.2073	0.0419	0.153
Mof_C 	C 	0.25664	0.19021	0.8967	0.236
Mof_H 	H 	0.2549	0.2048	0.8354	-0.036
Mof_C 	C 	0.23843	0.13831	0.8892	-0.234
Mof_C 	C 	0.24046	0.10935	0.968	0.339
Mof_C 	C 	0.2255	0.06063	0.9504	-0.342
Mof_H 	H 	0.2273	0.0418	0.0037	0.137
Mof_C 	C 	0.20793	0.04023	0.8533	0.199
Mof_H 	H 	0.1986	0.0079	0.8414	-0.07
Mof_C 	C 	0.204	0.0672	0.7751	-0.252
Mof_H 	H 	0.1914	0.0533	0.7107	0.108
Mof_C 	C 	0.21904	0.11551	0.7927	0.147
Mof_H 	H 	0.2162	0.1336	0.7391	-0.023
Mof_C 	C 	0.24013	0.32915	0.1851	0.09
Mof_H 	H 	0.2508	0.3353	0.1165	-0.045
Mof_C 	C 	0.20358	0.33792	0.2147	-0.145
Mof_H 	H 	0.1902	0.3496	0.1662	0.07
Mof_C 	C 	0.18671	0.32939	0.3164	0.057
Mof_C 	C 	0.20916	0.31239	0.3845	-0.135
Mof_H 	H 	0.1997	0.3065	0.454	0.073
Mof_C 	C 	0.24519	0.30434	0.3488	0.078
Mof_H 	H 	0.2594	0.2928	0.3954	-0.032
Mof_N 	N 	0.26086	0.31234	0.2499	-0.282
Mof_O 	O 	0.30035	0.28991	0.8755	-0.512
Mof_O 	O 	0.30376	0.29922	0.0453	-0.573
Mof_O 	O 	0.25786	0.12929	0.0618	-0.48
Mof_H 	H 	0.2714	0.1159	0.0888	0.236
Mof_Zn	Zn	0.30926	0.29254	0.19714	1.178
Mof_C 	C 	0.96079	0.60586	0.29933	0.466
Mof_C 	C 	0.94194	0.55314	0.31063	-0.404
Mof_H 	H 	0.94317	0.54063	0.37523	0.153
Mof_C 	C 	0.92331	0.52354	0.23003	0.236
Mof_H 	H 	0.92157	0.53813	0.16873	-0.036
Mof_C 	C 	0.9051	0.47164	0.22253	-0.235
Mof_C 	C 	0.90713	0.44268	0.30133	0.34
Mof_C 	C 	0.89217	0.39396	0.28373	-0.343
Mof_H 	H 	0.89397	0.37513	0.33703	0.137
Mof_C 	C 	0.8746	0.37356	0.18663	0.2
Mof_H 	H 	0.86527	0.34123	0.17473	-0.07
Mof_C 	C 	0.87067	0.40053	0.10843	-0.253
Mof_H 	H 	0.85807	0.38663	0.04403	0.108
Mof_C 	C 	0.88571	0.44884	0.12603	0.147
Mof_H 	H 	0.88287	0.46693	0.07243	-0.023
Mof_C 	C 	0.9068	0.66248	0.51843	0.09
Mof_H 	H 	0.91747	0.66863	0.44983	-0.045
Mof_C 	C 	0.87025	0.67125	0.54803	-0.145
Mof_H 	H 	0.85687	0.68293	0.49953	0.07
Mof_C 	C 	0.85338	0.66272	0.64973	0.057
Mof_C 	C 	0.87583	0.64572	0.71783	-0.135
Mof_H 	H 	0.86637	0.63983	0.78733	0.073
Mof_C 	C 	0.91186	0.63767	0.68213	0.078
Mof_H 	H 	0.92607	0.62613	0.72873	-0.032
Mof_N 	N 	0.92753	0.64567	0.58323	-0.282
Mof_O 	O 	0.96702	0.62324	0.20883	-0.512
Mof_O 	O 	0.97043	0.63255	0.37863	-0.573
Mof_O 	O 	0.92453	0.46262	0.39513	-0.48
Mof_H 	H 	0.93807	0.44923	0.42213	0.236
Mof_Zn	Zn	0.97593	0.62587	0.53047	1.178
Mof_C 	C 	0.62745	0.9392	0.63267	0.466
Mof_C 	C 	0.6086	0.88648	0.64397	-0.404
Mof_H 	H 	0.60983	0.87397	0.70857	0.153
Mof_C 	C 	0.58997	0.85688	0.56337	0.236
Mof_H 	H 	0.58823	0.87147	0.50207	-0.036
Mof_C 	C 	0.57176	0.80498	0.55587	-0.235
Mof_C 	C 	0.57379	0.77602	0.63467	0.34
Mof_C 	C 	0.55883	0.7273	0.61707	-0.343
Mof_H 	H 	0.56063	0.70847	0.67037	0.137
Mof_C 	C 	0.54126	0.7069	0.51997	0.2
Mof_H 	H 	0.53193	0.67457	0.50807	-0.07
Mof_C 	C 	0.53733	0.73387	0.44177	-0.253
Mof_H 	H 	0.52473	0.71997	0.37737	0.109
Mof_C 	C 	0.55237	0.78218	0.45937	0.147
Mof_H 	H 	0.54953	0.80027	0.40577	-0.023
Mof_C 	C 	0.57346	0.99582	0.85177	0.087
Mof_H 	H 	0.58413	0.00197	0.78317	-0.044
Mof_C 	C 	0.53691	0.00459	0.88137	-0.142
Mof_H 	H 	0.52353	0.01627	0.83287	0.069
Mof_C 	C 	0.52004	0.99606	0.98307	0.055
Mof_C 	C 	0.54249	0.97906	0.05117	-0.133
Mof_H 	H 	0.53303	0.97317	0.12067	0.073
Mof_C 	C 	0.57852	0.97101	0.01547	0.078
Mof_H 	H 	0.59273	0.95947	0.06207	-0.032
Mof_N 	N 	0.59419	0.97901	0.91657	-0.282
Mof_O 	O 	0.63368	0.95658	0.54217	-0.512
Mof_O 	O 	0.63709	0.96589	0.71197	-0.573
Mof_O 	O 	0.59119	0.79596	0.72847	-0.481
Mof_H 	H 	0.60473	0.78257	0.75547	0.236
Mof_Zn	Zn	0.6426	0.9592	0.86381	1.178
Mof_C 	C 	0.72747	0.02159	0.966	0.467
Mof_C 	C 	0.78019	0.05546	0.9773	-0.402
Mof_H 	H 	0.7927	0.0692	0.0419	0.151
Mof_C 	C 	0.80979	0.06643	0.8967	0.234
Mof_H 	H 	0.7952	0.0501	0.8354	-0.036
Mof_C 	C 	0.86169	0.10012	0.8892	-0.233
Mof_C 	C 	0.89065	0.13111	0.968	0.339
Mof_C 	C 	0.93937	0.16487	0.9504	-0.34
Mof_H 	H 	0.9582	0.1855	0.0037	0.135
Mof_C 	C 	0.95977	0.1677	0.8533	0.198
Mof_H 	H 	0.9921	0.1907	0.8414	-0.069
Mof_C 	C 	0.9328	0.1368	0.7751	-0.251
Mof_H 	H 	0.9467	0.1381	0.7107	0.108
Mof_C 	C 	0.88449	0.10353	0.7927	0.146
Mof_H 	H 	0.8664	0.0826	0.7391	-0.022
Mof_C 	C 	0.67085	0.91098	0.1851	0.09
Mof_H 	H 	0.6647	0.9155	0.1165	-0.045
Mof_C 	C 	0.66208	0.86566	0.2147	-0.145
Mof_H 	H 	0.6504	0.8406	0.1662	0.07
Mof_C 	C 	0.67061	0.85732	0.3164	0.057
Mof_C 	C 	0.68761	0.89677	0.3845	-0.135
Mof_H 	H 	0.6935	0.8932	0.454	0.073
Mof_C 	C 	0.69566	0.94085	0.3488	0.078
Mof_H 	H 	0.7072	0.9666	0.3954	-0.032
Mof_N 	N 	0.68766	0.94852	0.2499	-0.282
Mof_O 	O 	0.71009	0.01044	0.8755	-0.512
Mof_O 	O 	0.70078	0.00454	0.0453	-0.574
Mof_O 	O 	0.87071	0.12857	0.0618	-0.481
Mof_H 	H 	0.8841	0.1555	0.0888	0.236
Mof_Zn	Zn	0.70746	0.01673	0.19714	1.178
Mof_C 	C 	0.39414	0.35492	0.29933	0.466
Mof_C 	C 	0.44686	0.38879	0.31063	-0.404
Mof_H 	H 	0.45937	0.40253	0.37523	0.153
Mof_C 	C 	0.47646	0.39976	0.23003	0.236
Mof_H 	H 	0.46187	0.38343	0.16873	-0.036
Mof_C 	C 	0.52836	0.43345	0.22253	-0.235
Mof_C 	C 	0.55732	0.46444	0.30133	0.34
Mof_C 	C 	0.60604	0.4982	0.28373	-0.343
Mof_H 	H 	0.62487	0.51883	0.33703	0.137
Mof_C 	C 	0.62644	0.50103	0.18663	0.2
Mof_H 	H 	0.65877	0.52403	0.17473	-0.07
Mof_C 	C 	0.59947	0.47013	0.10843	-0.253
Mof_H 	H 	0.61337	0.47143	0.04403	0.109
Mof_C 	C 	0.55116	0.43686	0.12603	0.147
Mof_H 	H 	0.53307	0.41593	0.07243	-0.023
Mof_C 	C 	0.33752	0.24431	0.51843	0.09
Mof_H 	H 	0.33137	0.24883	0.44983	-0.045
Mof_C 	C 	0.32875	0.19899	0.54803	-0.145
Mof_H 	H 	0.31707	0.17393	0.49953	0.07
Mof_C 	C 	0.33728	0.19065	0.64973	0.057
Mof_C 	C 	0.35428	0.2301	0.71783	-0.135
Mof_H 	H 	0.36017	0.22653	0.78733	0.073
Mof_C 	C 	0.36233	0.27418	0.68213	0.078
Mof_H 	H 	0.37387	0.29993	0.72873	-0.032
Mof_N 	N 	0.35433	0.28185	0.58323	-0.282
Mof_O 	O 	0.37676	0.34377	0.20883	-0.512
Mof_O 	O 	0.36745	0.33787	0.37863	-0.573
Mof_O 	O 	0.53738	0.4619	0.39513	-0.48
Mof_H 	H 	0.55077	0.48883	0.42213	0.236
Mof_Zn	Zn	0.37413	0.35006	0.53047	1.178
Mof_C 	C 	0.0608	0.68826	0.63267	0.466
Mof_C 	C 	0.11352	0.72213	0.64397	-0.404
Mof_H 	H 	0.12603	0.73587	0.70857	0.153
Mof_C 	C 	0.14312	0.7331	0.56337	0.236
Mof_H 	H 	0.12853	0.71677	0.50207	-0.036
Mof_C 	C 	0.19502	0.76679	0.55587	-0.235
Mof_C 	C 	0.22398	0.79778	0.63467	0.34
Mof_C 	C 	0.2727	0.83154	0.61707	-0.343
Mof_H 	H 	0.29153	0.85217	0.67037	0.137
Mof_C 	C 	0.2931	0.83437	0.51997	0.2
Mof_H 	H 	0.32543	0.85737	0.50807	-0.07
Mof_C 	C 	0.26613	0.80347	0.44177	-0.253
Mof_H 	H 	0.28003	0.80477	0.37737	0.109
Mof_C 	C 	0.21782	0.7702	0.45937	0.147
Mof_H 	H 	0.19973	0.74927	0.40577	-0.023
Mof_C 	C 	0.00418	0.57765	0.85177	0.087
Mof_H 	H 	0.99803	0.58217	0.78317	-0.044
Mof_C 	C 	0.99541	0.53233	0.88137	-0.142
Mof_H 	H 	0.98373	0.50727	0.83287	0.069
Mof_C 	C 	0.00394	0.52399	0.98307	0.055
Mof_C 	C 	0.02094	0.56344	0.05117	-0.133
Mof_H 	H 	0.02683	0.55987	0.12067	0.073
Mof_C 	C 	0.02899	0.60752	0.01547	0.078
Mof_H 	H 	0.04053	0.63327	0.06207	-0.032
Mof_N 	N 	0.02099	0.61519	0.91657	-0.282
Mof_O 	O 	0.04342	0.67711	0.54217	-0.512
Mof_O 	O 	0.03411	0.67121	0.71197	-0.573
Mof_O 	O 	0.20404	0.79524	0.72847	-0.481
Mof_H 	H 	0.21743	0.82217	0.75547	0.236
Mof_Zn	Zn	0.0408	0.68339	0.86381	1.178
_end
