data_functionalizedCrystal
_audit_creation_method	'EQeq! by Chris Wilmer'
_symmetry_space_group_name_H-M	'P1'
_symmetry_Int_Tables_number	1
_symmetry_cell_setting	triclinic
loop_
_symmetry_equiv_pos_as_xyz
  x,y,z
_cell_length_a	16.6121
_cell_length_b	16.6202
_cell_length_c	22.1631
_cell_angle_alpha	90
_cell_angle_beta	90
_cell_angle_gamma	90
loop_
_atom_site_label
_atom_site_type_symbol
_atom_site_fract_x
_atom_site_fract_y
_atom_site_fract_z
_atom_site_charge
Mof_O 	O 	0.91631	0.41562	0.55085	-0.448
Mof_C 	C 	0.7992	0.2989	0.5537	0.075
Mof_H 	H 	0.8198	0.3197	0.5905	0.033
Mof_C 	C 	0.7396	0.2401	0.5555	-0.15
Mof_H 	H 	0.7192	0.2208	0.5928	0.095
Mof_N 	N 	0.9407	0.4387	0.934	-0.204
Mof_C 	C 	0.0497	0.5446	0.6849	0.048
Mof_H 	H 	0.0872	0.5772	0.6637	0.013
Mof_C 	C 	0.0504	0.5467	0.7455	-0.129
Mof_H 	H 	0.0873	0.5819	0.7648	0.067
Mof_C 	C 	0.9461	0.4453	0.8744	0.243
Mof_C 	C 	0.8903	0.3911	0.8456	-0.134
Mof_H 	H 	0.8822	0.3848	0.8034	0.087
Mof_C 	C 	0.852	0.3512	0.8897	0.015
Mof_H 	H 	0.8207	0.3036	0.8863	0.063
Mof_C 	C 	0.8693	0.3969	0.9436	0.061
Mof_O 	O 	0.08369	0.58438	0.55085	-0.483
Mof_C 	C 	0.2008	0.7011	0.5537	0.077
Mof_H 	H 	0.1802	0.6803	0.5905	0.025
Mof_C 	C 	0.2604	0.7599	0.5555	-0.156
Mof_H 	H 	0.2808	0.7792	0.5928	0.095
Mof_N 	N 	0.0593	0.5613	0.934	-0.225
Mof_C 	C 	0.9503	0.4554	0.6849	0.097
Mof_H 	H 	0.9128	0.4228	0.6637	0.01
Mof_C 	C 	0.9496	0.4533	0.7455	-0.076
Mof_H 	H 	0.9127	0.4181	0.7648	0.056
Mof_C 	C 	0.0539	0.5547	0.8744	0.18
Mof_C 	C 	0.1097	0.6089	0.8456	-0.114
Mof_H 	H 	0.1178	0.6152	0.8034	0.068
Mof_C 	C 	0.148	0.6488	0.8897	-0.013
Mof_H 	H 	0.1793	0.6964	0.8863	0.067
Mof_C 	C 	0.1307	0.6031	0.9436	0.079
Mof_O 	O 	0.08369	0.41562	0.44915	-0.484
Mof_C 	C 	0.2008	0.2989	0.4463	0.077
Mof_H 	H 	0.1802	0.3197	0.4095	0.025
Mof_C 	C 	0.2604	0.2401	0.4445	-0.157
Mof_H 	H 	0.2808	0.2208	0.4072	0.095
Mof_N 	N 	0.0593	0.4387	0.066	-0.219
Mof_C 	C 	0.9503	0.5446	0.3151	0.098
Mof_H 	H 	0.9128	0.5772	0.3363	0.012
Mof_C 	C 	0.9496	0.5467	0.2545	-0.073
Mof_H 	H 	0.9127	0.5819	0.2352	0.057
Mof_C 	C 	0.0539	0.4453	0.1256	0.176
Mof_C 	C 	0.1097	0.3911	0.1544	-0.105
Mof_H 	H 	0.1178	0.3848	0.1966	0.066
Mof_C 	C 	0.148	0.3512	0.1103	-0.022
Mof_H 	H 	0.1793	0.3036	0.1137	0.078
Mof_C 	C 	0.1307	0.3969	0.0564	0.111
Mof_O 	O 	0.91631	0.58438	0.44915	-0.448
Mof_C 	C 	0.7992	0.7011	0.4463	0.076
Mof_H 	H 	0.8198	0.6803	0.4095	0.035
Mof_C 	C 	0.7396	0.7599	0.4445	-0.148
Mof_H 	H 	0.7192	0.7792	0.4072	0.1
Mof_N 	N 	0.9407	0.5613	0.066	-0.198
Mof_C 	C 	0.0497	0.4554	0.3151	0.048
Mof_H 	H 	0.0872	0.4228	0.3363	0.014
Mof_C 	C 	0.0504	0.4533	0.2545	-0.128
Mof_H 	H 	0.0873	0.4181	0.2352	0.067
Mof_C 	C 	0.9461	0.5547	0.1256	0.241
Mof_C 	C 	0.8903	0.6089	0.1544	-0.124
Mof_H 	H 	0.8822	0.6152	0.1966	0.086
Mof_C 	C 	0.852	0.6488	0.1103	0.006
Mof_H 	H 	0.8207	0.6964	0.1137	0.078
Mof_C 	C 	0.8693	0.6031	0.0564	0.095
Mof_O 	O 	0.08369	0.58438	0.44915	-0.483
Mof_C 	C 	0.2008	0.7011	0.4463	0.078
Mof_H 	H 	0.1802	0.6803	0.4095	0.026
Mof_C 	C 	0.2604	0.7599	0.4445	-0.155
Mof_H 	H 	0.2808	0.7792	0.4072	0.097
Mof_N 	N 	0.0593	0.5613	0.066	-0.219
Mof_C 	C 	0.9503	0.4554	0.3151	0.097
Mof_H 	H 	0.9128	0.4228	0.3363	0.011
Mof_C 	C 	0.9496	0.4533	0.2545	-0.073
Mof_H 	H 	0.9127	0.4181	0.2352	0.057
Mof_C 	C 	0.0539	0.5547	0.1256	0.176
Mof_C 	C 	0.1097	0.6089	0.1544	-0.104
Mof_H 	H 	0.1178	0.6152	0.1966	0.067
Mof_C 	C 	0.148	0.6488	0.1103	-0.022
Mof_H 	H 	0.1793	0.6964	0.1137	0.08
Mof_C 	C 	0.1307	0.6031	0.0564	0.111
Mof_O 	O 	0.91631	0.41562	0.44915	-0.449
Mof_C 	C 	0.7992	0.2989	0.4463	0.076
Mof_H 	H 	0.8198	0.3197	0.4095	0.034
Mof_C 	C 	0.7396	0.2401	0.4445	-0.15
Mof_H 	H 	0.7192	0.2208	0.4072	0.097
Mof_N 	N 	0.9407	0.4387	0.066	-0.198
Mof_C 	C 	0.0497	0.5446	0.3151	0.048
Mof_H 	H 	0.0872	0.5772	0.3363	0.014
Mof_C 	C 	0.0504	0.5467	0.2545	-0.128
Mof_H 	H 	0.0873	0.5819	0.2352	0.068
Mof_C 	C 	0.9461	0.4453	0.1256	0.241
Mof_C 	C 	0.8903	0.3911	0.1544	-0.125
Mof_H 	H 	0.8822	0.3848	0.1966	0.086
Mof_C 	C 	0.852	0.3512	0.1103	0.006
Mof_H 	H 	0.8207	0.3036	0.1137	0.076
Mof_C 	C 	0.8693	0.3969	0.0564	0.095
Mof_O 	O 	0.91631	0.58438	0.55085	-0.449
Mof_C 	C 	0.7992	0.7011	0.5537	0.076
Mof_H 	H 	0.8198	0.6803	0.5905	0.034
Mof_C 	C 	0.7396	0.7599	0.5555	-0.149
Mof_H 	H 	0.7192	0.7792	0.5928	0.098
Mof_N 	N 	0.9407	0.5613	0.934	-0.204
Mof_C 	C 	0.0497	0.4554	0.6849	0.048
Mof_H 	H 	0.0872	0.4228	0.6637	0.013
Mof_C 	C 	0.0504	0.4533	0.7455	-0.13
Mof_H 	H 	0.0873	0.4181	0.7648	0.067
Mof_C 	C 	0.9461	0.5547	0.8744	0.243
Mof_C 	C 	0.8903	0.6089	0.8456	-0.133
Mof_H 	H 	0.8822	0.6152	0.8034	0.087
Mof_C 	C 	0.852	0.6488	0.8897	0.015
Mof_H 	H 	0.8207	0.6964	0.8863	0.065
Mof_C 	C 	0.8693	0.6031	0.9436	0.061
Mof_O 	O 	0.08369	0.41562	0.55085	-0.484
Mof_C 	C 	0.2008	0.2989	0.5537	0.077
Mof_H 	H 	0.1802	0.3197	0.5905	0.024
Mof_C 	C 	0.2604	0.2401	0.5555	-0.157
Mof_H 	H 	0.2808	0.2208	0.5928	0.093
Mof_N 	N 	0.0593	0.4387	0.934	-0.225
Mof_C 	C 	0.9503	0.5446	0.6849	0.098
Mof_H 	H 	0.9128	0.5772	0.6637	0.011
Mof_C 	C 	0.9496	0.5467	0.7455	-0.075
Mof_H 	H 	0.9127	0.5819	0.7648	0.057
Mof_C 	C 	0.0539	0.4453	0.8744	0.18
Mof_C 	C 	0.1097	0.3911	0.8456	-0.115
Mof_H 	H 	0.1178	0.3848	0.8034	0.067
Mof_C 	C 	0.148	0.3512	0.8897	-0.013
Mof_H 	H 	0.1793	0.3036	0.8863	0.065
Mof_C 	C 	0.1307	0.3969	0.9436	0.079
Mof_Zn	Zn	1.93295e-32	0.5	0.56538	1.208
Mof_N 	N 	1.15197e-32	0.5	0.6535	-0.321
Mof_C 	C 	-4.34239e-33	0.5	0.7813	0.157
Mof_C 	C 	1.25041e-32	0.5	0.8503	-0.397
Mof_Zn	Zn	-6.07658e-33	0.5	0.43462	1.208
Mof_N 	N 	-2.39205e-33	0.5	0.3465	-0.321
Mof_C 	C 	7.282e-33	0.5	0.2187	0.153
Mof_C 	C 	4.87417e-33	0.5	0.1497	-0.392
Mof_Zn	Zn	0.5	0	0.5	1.167
Mof_N 	N 	0.5	0.1233	0.5	-0.287
Mof_N 	N 	0.5	0.8767	0.5	-0.281
Mof_N 	N 	0.6215	0	0.5	-0.298
Mof_N 	N 	0.3785	0	0.5	-0.298
Mof_C 	C 	0.8932	0.3936	0.5	0.404
Mof_C 	C 	0.8292	0.3278	0.5	-0.127
Mof_C 	C 	0.7102	0.2101	0.5	0.121
Mof_C 	C 	0.6458	0.146	0.5	-0.143
Mof_C 	C 	0.6729	0.0655	0.5	0.11
Mof_C 	C 	0.7553	0.04	0.5	-0.108
Mof_H 	H 	0.8013	0.074	0.5	0.084
Mof_C 	C 	0.5655	0.172	0.5	0.105
Mof_C 	C 	0.5404	0.2553	0.5	-0.073
Mof_H 	H 	0.5745	0.3012	0.5	0.068
Mof_C 	C 	0.1068	0.6064	0.5	0.406
Mof_C 	C 	0.1708	0.6722	0.5	-0.14
Mof_C 	C 	0.2898	0.7899	0.5	0.122
Mof_C 	C 	0.3542	0.854	0.5	-0.139
Mof_C 	C 	0.3271	0.9345	0.5	0.105
Mof_C 	C 	0.2447	0.96	0.5	-0.04
Mof_H 	H 	0.1987	0.926	0.5	0.055
Mof_C 	C 	0.4345	0.828	0.5	0.107
Mof_C 	C 	0.4596	0.7447	0.5	-0.073
Mof_H 	H 	0.4255	0.6988	0.5	0.069
Mof_C 	C 	0.1068	0.3936	0.5	0.406
Mof_C 	C 	0.1708	0.3278	0.5	-0.141
Mof_C 	C 	0.2898	0.2101	0.5	0.122
Mof_C 	C 	0.3542	0.146	0.5	-0.145
Mof_C 	C 	0.3271	0.0655	0.5	0.107
Mof_C 	C 	0.2447	0.04	0.5	-0.111
Mof_H 	H 	0.1987	0.074	0.5	0.071
Mof_C 	C 	0.4345	0.172	0.5	0.105
Mof_C 	C 	0.4596	0.2553	0.5	-0.074
Mof_H 	H 	0.4255	0.3012	0.5	0.069
Mof_C 	C 	0.8932	0.6064	0.5	0.404
Mof_C 	C 	0.8292	0.6722	0.5	-0.126
Mof_C 	C 	0.7102	0.7899	0.5	0.121
Mof_C 	C 	0.6458	0.854	0.5	-0.137
Mof_C 	C 	0.6729	0.9345	0.5	0.108
Mof_C 	C 	0.7553	0.96	0.5	-0.036
Mof_H 	H 	0.8013	0.926	0.5	0.067
Mof_C 	C 	0.5655	0.828	0.5	0.107
Mof_C 	C 	0.5404	0.7447	0.5	-0.073
Mof_H 	H 	0.5745	0.6988	0.5	0.069
Mof_Mn	Mn	4.12533e-33	0.5	-0	0.942
Mof_C 	C 	0.879	0.361	-0	0.081
Mof_C 	C 	0.813	0.2982	-0	-0.139
Mof_C 	C 	0.7331	0.3303	-0	0.281
Mof_C 	C 	0.6648	0.2788	-0	0.171
Mof_C 	C 	0.6767	0.1941	-0	0.233
Mof_C 	C 	0.7565	0.1616	-0	0.172
Mof_C 	C 	0.8248	0.2136	-0	0.294
Mof_F 	F 	0.7239	0.4108	-0	-0.364
Mof_F 	F 	0.5899	0.3106	-0	-0.284
Mof_F 	F 	0.6128	0.143	-0	-0.292
Mof_F 	F 	0.767	0.0814	-0	-0.281
Mof_F 	F 	0.8999	0.183	-0	-0.339
Mof_C 	C 	0.121	0.639	-0	0.044
Mof_C 	C 	0.187	0.7018	-0	-0.134
Mof_C 	C 	0.2669	0.6697	-0	0.279
Mof_C 	C 	0.3352	0.7212	-0	0.171
Mof_C 	C 	0.3233	0.8059	-0	0.233
Mof_C 	C 	0.2435	0.8384	-0	0.171
Mof_C 	C 	0.1752	0.7864	-0	0.287
Mof_F 	F 	0.2761	0.5892	-0	-0.363
Mof_F 	F 	0.4101	0.6894	-0	-0.283
Mof_F 	F 	0.3872	0.857	-0	-0.287
Mof_F 	F 	0.233	0.9186	-0	-0.279
Mof_F 	F 	0.1001	0.817	-0	-0.364
Mof_C 	C 	0.121	0.361	-0	0.043
Mof_C 	C 	0.187	0.2982	-0	-0.134
Mof_C 	C 	0.2669	0.3303	-0	0.279
Mof_C 	C 	0.3352	0.2788	-0	0.17
Mof_C 	C 	0.3233	0.1941	-0	0.231
Mof_C 	C 	0.2435	0.1616	-0	0.169
Mof_C 	C 	0.1752	0.2136	-0	0.285
Mof_F 	F 	0.2761	0.4108	-0	-0.363
Mof_F 	F 	0.4101	0.3106	-0	-0.284
Mof_F 	F 	0.3872	0.143	-0	-0.294
Mof_F 	F 	0.233	0.0814	-0	-0.29
Mof_F 	F 	0.1001	0.183	-0	-0.369
Mof_C 	C 	0.879	0.639	-0	0.082
Mof_C 	C 	0.813	0.7018	-0	-0.139
Mof_C 	C 	0.7331	0.6697	-0	0.282
Mof_C 	C 	0.6648	0.7212	-0	0.172
Mof_C 	C 	0.6767	0.8059	-0	0.235
Mof_C 	C 	0.7565	0.8384	-0	0.175
Mof_C 	C 	0.8248	0.7864	-0	0.296
Mof_F 	F 	0.7239	0.5892	-0	-0.364
Mof_F 	F 	0.5899	0.6894	-0	-0.282
Mof_F 	F 	0.6128	0.857	-0	-0.286
Mof_F 	F 	0.767	0.9186	-0	-0.269
Mof_F 	F 	0.8999	0.817	-0	-0.335
_end
