data_functionalizedCrystal
_audit_creation_method	'EQeq! by Chris Wilmer'
_symmetry_space_group_name_H-M	'P1'
_symmetry_Int_Tables_number	1
_symmetry_cell_setting	triclinic
loop_
_symmetry_equiv_pos_as_xyz
  x,y,z
_cell_length_a	12.6974
_cell_length_b	16.7309
_cell_length_c	14.8076
_cell_angle_alpha	90
_cell_angle_beta	91.452
_cell_angle_gamma	90
loop_
_atom_site_label
_atom_site_type_symbol
_atom_site_fract_x
_atom_site_fract_y
_atom_site_fract_z
_atom_site_charge
Mof_Sm	Sm	0.3769	0.19836	0.05535	2.141
Mof_O 	O 	0.3269	0.0715	0.1362	-0.443
Mof_O 	O 	0.3786	0.1729	0.2194	-0.49
Mof_O 	O 	0.5225	0.7328	0.0645	-0.512
Mof_O 	O 	0.6929	0.7169	0.0797	-0.647
Mof_O 	O 	0.2913	0.8856	0.4438	-0.555
Mof_O 	O 	0.1443	0.8301	0.3855	-0.564
Mof_N 	N 	0.3269	0.969	0.2873	-0.057
Mof_N 	N 	0.4087	0.847	0.2679	-0.172
Mof_C 	C 	0.3474	0.1006	0.2129	0.355
Mof_C 	C 	0.3332	0.0545	0.299	-0.23
Mof_H 	H 	0.3917	0.0665	0.3401	0.071
Mof_H 	H 	0.2693	0.0728	0.327	0.091
Mof_C 	C 	0.6018	0.7138	0.1126	0.482
Mof_C 	C 	0.5886	0.6888	0.2103	-0.313
Mof_H 	H 	0.5777	0.6315	0.2131	0.121
Mof_H 	H 	0.6524	0.7014	0.2448	0.127
Mof_C 	C 	0.2217	0.8769	0.384	0.547
Mof_C 	C 	0.2282	0.9271	0.2977	-0.336
Mof_H 	H 	0.2169	0.8923	0.246	0.136
Mof_H 	H 	0.1715	0.966	0.2972	0.131
Mof_C 	C 	0.4148	0.9268	0.268	0.154
Mof_Sm	Sm	0.8769	0.69836	0.05535	2.129
Mof_O 	O 	0.8269	0.5715	0.1362	-0.444
Mof_O 	O 	0.8786	0.6729	0.2194	-0.491
Mof_O 	O 	0.0225	0.2328	0.0645	-0.509
Mof_O 	O 	0.1929	0.2169	0.0797	-0.647
Mof_O 	O 	0.7913	0.3856	0.4438	-0.555
Mof_O 	O 	0.6443	0.3301	0.3855	-0.564
Mof_N 	N 	0.8269	0.469	0.2873	-0.057
Mof_N 	N 	0.9087	0.347	0.2679	-0.175
Mof_C 	C 	0.8474	0.6006	0.2129	0.354
Mof_C 	C 	0.8332	0.5545	0.299	-0.229
Mof_H 	H 	0.8917	0.5665	0.3401	0.069
Mof_H 	H 	0.7693	0.5728	0.327	0.091
Mof_C 	C 	0.1018	0.2138	0.1126	0.483
Mof_C 	C 	0.0886	0.1888	0.2103	-0.313
Mof_H 	H 	0.0777	0.1315	0.2131	0.123
Mof_H 	H 	0.1524	0.2014	0.2448	0.127
Mof_C 	C 	0.7217	0.3769	0.384	0.546
Mof_C 	C 	0.7282	0.4271	0.2977	-0.336
Mof_H 	H 	0.7169	0.3923	0.246	0.134
Mof_H 	H 	0.6715	0.466	0.2972	0.13
Mof_C 	C 	0.9148	0.4268	0.268	0.147
Mof_Sm	Sm	0.6231	0.19836	0.44465	2.139
Mof_O 	O 	0.6731	0.0715	0.3638	-0.444
Mof_O 	O 	0.6214	0.1729	0.2806	-0.49
Mof_O 	O 	0.4775	0.7328	0.4355	-0.513
Mof_O 	O 	0.3071	0.7169	0.4203	-0.649
Mof_O 	O 	0.7087	0.8856	0.0562	-0.555
Mof_O 	O 	0.8557	0.8301	0.1145	-0.565
Mof_N 	N 	0.6731	0.969	0.2127	-0.057
Mof_N 	N 	0.5913	0.847	0.2321	-0.172
Mof_C 	C 	0.6526	0.1006	0.2871	0.355
Mof_C 	C 	0.6668	0.0545	0.201	-0.229
Mof_H 	H 	0.6083	0.0665	0.1599	0.07
Mof_H 	H 	0.7307	0.0728	0.173	0.09
Mof_C 	C 	0.3982	0.7138	0.3874	0.483
Mof_C 	C 	0.4114	0.6888	0.2897	-0.313
Mof_H 	H 	0.4223	0.6315	0.2869	0.121
Mof_H 	H 	0.3476	0.7014	0.2552	0.127
Mof_C 	C 	0.7783	0.8769	0.116	0.545
Mof_C 	C 	0.7718	0.9271	0.2023	-0.334
Mof_H 	H 	0.7831	0.8923	0.254	0.134
Mof_H 	H 	0.8285	0.966	0.2028	0.129
Mof_C 	C 	0.5852	0.9268	0.232	0.154
Mof_Sm	Sm	0.1231	0.69836	0.44465	2.143
Mof_O 	O 	0.1731	0.5715	0.3638	-0.443
Mof_O 	O 	0.1214	0.6729	0.2806	-0.488
Mof_O 	O 	0.9775	0.2328	0.4355	-0.516
Mof_O 	O 	0.8071	0.2169	0.4203	-0.649
Mof_O 	O 	0.2087	0.3856	0.0562	-0.552
Mof_O 	O 	0.3557	0.3301	0.1145	-0.564
Mof_N 	N 	0.1731	0.469	0.2127	-0.057
Mof_N 	N 	0.0913	0.347	0.2321	-0.173
Mof_C 	C 	0.1526	0.6006	0.2871	0.356
Mof_C 	C 	0.1668	0.5545	0.201	-0.229
Mof_H 	H 	0.1083	0.5665	0.1599	0.073
Mof_H 	H 	0.2307	0.5728	0.173	0.092
Mof_C 	C 	0.8982	0.2138	0.3874	0.484
Mof_C 	C 	0.9114	0.1888	0.2897	-0.32
Mof_H 	H 	0.9223	0.1315	0.2869	0.121
Mof_H 	H 	0.8476	0.2014	0.2552	0.128
Mof_C 	C 	0.2783	0.3769	0.116	0.546
Mof_C 	C 	0.2718	0.4271	0.2023	-0.335
Mof_H 	H 	0.2831	0.3923	0.254	0.134
Mof_H 	H 	0.3285	0.466	0.2028	0.13
Mof_C 	C 	0.0852	0.4268	0.232	0.155
Mof_Sm	Sm	0.6231	0.80165	0.94465	2.141
Mof_O 	O 	0.6731	0.9285	0.8638	-0.444
Mof_O 	O 	0.6214	0.8271	0.7806	-0.49
Mof_O 	O 	0.4775	0.2672	0.9355	-0.512
Mof_O 	O 	0.3071	0.2831	0.9203	-0.648
Mof_O 	O 	0.7087	0.1144	0.5562	-0.555
Mof_O 	O 	0.8557	0.1699	0.6145	-0.565
Mof_N 	N 	0.6731	0.031	0.7127	-0.057
Mof_N 	N 	0.5913	0.153	0.7321	-0.172
Mof_C 	C 	0.6526	0.8994	0.7871	0.355
Mof_C 	C 	0.6668	0.9455	0.701	-0.229
Mof_H 	H 	0.6083	0.9335	0.6599	0.07
Mof_H 	H 	0.7307	0.9272	0.673	0.091
Mof_C 	C 	0.3982	0.2862	0.8874	0.483
Mof_C 	C 	0.4114	0.3112	0.7897	-0.313
Mof_H 	H 	0.4223	0.3685	0.7869	0.121
Mof_H 	H 	0.3476	0.2986	0.7552	0.127
Mof_C 	C 	0.7783	0.1231	0.616	0.546
Mof_C 	C 	0.7718	0.0729	0.7023	-0.335
Mof_H 	H 	0.7831	0.1077	0.754	0.135
Mof_H 	H 	0.8285	0.034	0.7028	0.13
Mof_C 	C 	0.5852	0.0732	0.732	0.154
Mof_Sm	Sm	0.1231	0.30165	0.94465	2.136
Mof_O 	O 	0.1731	0.4285	0.8638	-0.443
Mof_O 	O 	0.1214	0.3271	0.7806	-0.489
Mof_O 	O 	0.9775	0.7672	0.9355	-0.512
Mof_O 	O 	0.8071	0.7831	0.9203	-0.647
Mof_O 	O 	0.2087	0.6144	0.5562	-0.555
Mof_O 	O 	0.3557	0.6699	0.6145	-0.564
Mof_N 	N 	0.1731	0.531	0.7127	-0.057
Mof_N 	N 	0.0913	0.653	0.7321	-0.172
Mof_C 	C 	0.1526	0.3994	0.7871	0.355
Mof_C 	C 	0.1668	0.4455	0.701	-0.229
Mof_H 	H 	0.1083	0.4335	0.6599	0.071
Mof_H 	H 	0.2307	0.4272	0.673	0.091
Mof_C 	C 	0.8982	0.7862	0.8874	0.483
Mof_C 	C 	0.9114	0.8112	0.7897	-0.315
Mof_H 	H 	0.9223	0.8685	0.7869	0.121
Mof_H 	H 	0.8476	0.7986	0.7552	0.127
Mof_C 	C 	0.2783	0.6231	0.616	0.546
Mof_C 	C 	0.2718	0.5729	0.7023	-0.335
Mof_H 	H 	0.2831	0.6077	0.754	0.134
Mof_H 	H 	0.3285	0.534	0.7028	0.13
Mof_C 	C 	0.0852	0.5732	0.732	0.154
Mof_Sm	Sm	0.3769	0.80165	0.55535	2.139
Mof_O 	O 	0.3269	0.9285	0.6362	-0.444
Mof_O 	O 	0.3786	0.8271	0.7194	-0.49
Mof_O 	O 	0.5225	0.2672	0.5645	-0.513
Mof_O 	O 	0.6929	0.2831	0.5797	-0.648
Mof_O 	O 	0.2913	0.1144	0.9438	-0.555
Mof_O 	O 	0.1443	0.1699	0.8855	-0.564
Mof_N 	N 	0.3269	0.031	0.7873	-0.057
Mof_N 	N 	0.4087	0.153	0.7679	-0.172
Mof_C 	C 	0.3474	0.8994	0.7129	0.355
Mof_C 	C 	0.3332	0.9455	0.799	-0.229
Mof_H 	H 	0.3917	0.9335	0.8401	0.071
Mof_H 	H 	0.2693	0.9272	0.827	0.091
Mof_C 	C 	0.6018	0.2862	0.6126	0.483
Mof_C 	C 	0.5886	0.3112	0.7103	-0.313
Mof_H 	H 	0.5777	0.3685	0.7131	0.121
Mof_H 	H 	0.6524	0.2986	0.7448	0.127
Mof_C 	C 	0.2217	0.1231	0.884	0.546
Mof_C 	C 	0.2282	0.0729	0.7977	-0.336
Mof_H 	H 	0.2169	0.1077	0.746	0.135
Mof_H 	H 	0.1715	0.034	0.7972	0.13
Mof_C 	C 	0.4148	0.0732	0.768	0.154
Mof_Sm	Sm	0.8769	0.30165	0.55535	2.136
Mof_O 	O 	0.8269	0.4285	0.6362	-0.444
Mof_O 	O 	0.8786	0.3271	0.7194	-0.49
Mof_O 	O 	0.0225	0.7672	0.5645	-0.512
Mof_O 	O 	0.1929	0.7831	0.5797	-0.648
Mof_O 	O 	0.7913	0.6144	0.9438	-0.552
Mof_O 	O 	0.6443	0.6699	0.8855	-0.564
Mof_N 	N 	0.8269	0.531	0.7873	-0.057
Mof_N 	N 	0.9087	0.653	0.7679	-0.173
Mof_C 	C 	0.8474	0.3994	0.7129	0.355
Mof_C 	C 	0.8332	0.4455	0.799	-0.229
Mof_H 	H 	0.8917	0.4335	0.8401	0.071
Mof_H 	H 	0.7693	0.4272	0.827	0.091
Mof_C 	C 	0.1018	0.7862	0.6126	0.483
Mof_C 	C 	0.0886	0.8112	0.7103	-0.313
Mof_H 	H 	0.0777	0.8685	0.7131	0.121
Mof_H 	H 	0.1524	0.7986	0.7448	0.127
Mof_C 	C 	0.7217	0.6231	0.884	0.546
Mof_C 	C 	0.7282	0.5729	0.7977	-0.335
Mof_H 	H 	0.7169	0.6077	0.746	0.134
Mof_H 	H 	0.6715	0.534	0.7972	0.13
Mof_C 	C 	0.9148	0.5732	0.768	0.152
Mof_N 	N 	0.5	0.7293	0.25	-0.05
Mof_N 	N 	0.5	0.971	0.25	-0.171
Mof_C 	C 	0.5	0.8111	0.25	0.158
Mof_N 	N 	1.12975e-18	0.2293	0.25	-0.047
Mof_N 	N 	1.12083e-33	0.471	0.25	-0.166
Mof_C 	C 	1.12975e-18	0.3111	0.25	0.164
Mof_N 	N 	0.5	0.2707	0.75	-0.05
Mof_N 	N 	0.5	0.029	0.75	-0.171
Mof_C 	C 	0.5	0.1889	0.75	0.158
Mof_N 	N 	-4.51898e-18	0.7707	0.75	-0.049
Mof_N 	N 	3.36249e-33	0.529	0.75	-0.17
Mof_C 	C 	3.36249e-33	0.6889	0.75	0.159
_end
