data_functionalizedCrystal
_audit_creation_method	'EQeq! by Chris Wilmer'
_symmetry_space_group_name_H-M	'P1'
_symmetry_Int_Tables_number	1
_symmetry_cell_setting	triclinic
loop_
_symmetry_equiv_pos_as_xyz
  x,y,z
_cell_length_a	26.925
_cell_length_b	26.925
_cell_length_c	26.925
_cell_angle_alpha	90
_cell_angle_beta	90
_cell_angle_gamma	90
loop_
_atom_site_label
_atom_site_type_symbol
_atom_site_fract_x
_atom_site_fract_y
_atom_site_fract_z
_atom_site_charge
Mof_O 	O 	0.44746	0.05035	0.1488	-0.436
Mof_O 	O 	0.4486	0.0488	0.2311	-0.436
Mof_C 	C 	0.294	0.1447	0.197	0.038
Mof_C 	C 	0.4306	0.062	0.19	0.382
Mof_C 	C 	0.36	0.1064	0.1491	0.041
Mof_H 	H 	0.3736	0.098	0.1185	0.015
Mof_C 	C 	0.3194	0.1291	0.2409	-0.123
Mof_H 	H 	0.3059	0.136	0.2719	0.074
Mof_C 	C 	0.315	0.1337	0.1509	-0.119
Mof_H 	H 	0.2997	0.1441	0.1217	0.058
Mof_C 	C 	0.3637	0.1039	0.2375	0.048
Mof_H 	H 	0.3803	0.0947	0.2664	0.023
Mof_C 	C 	0.2164	0.1694	0.2412	-0.112
Mof_H 	H 	0.2211	0.1426	0.2625	0.063
Mof_C 	C 	0.384	0.092	0.1921	-0.135
Mof_C 	C 	0.2491	0.1767	0.2019	0.037
Mof_O 	O 	0.55254	0.94965	0.1488	-0.392
Mof_O 	O 	0.5514	0.9512	0.2311	-0.393
Mof_C 	C 	0.706	0.8553	0.197	0.037
Mof_C 	C 	0.5694	0.938	0.19	0.376
Mof_C 	C 	0.64	0.8936	0.1491	0.036
Mof_H 	H 	0.6264	0.902	0.1185	0.033
Mof_C 	C 	0.6806	0.8709	0.2409	-0.106
Mof_H 	H 	0.6941	0.864	0.2719	0.074
Mof_C 	C 	0.685	0.8663	0.1509	-0.103
Mof_H 	H 	0.7003	0.8559	0.1217	0.065
Mof_C 	C 	0.6363	0.8961	0.2375	0.042
Mof_H 	H 	0.6197	0.9053	0.2664	0.04
Mof_C 	C 	0.7836	0.8306	0.2412	-0.117
Mof_H 	H 	0.7789	0.8574	0.2625	0.078
Mof_C 	C 	0.616	0.908	0.1921	-0.109
Mof_C 	C 	0.7509	0.8233	0.2019	0.053
Mof_O 	O 	0.55254	0.05035	0.8512	-0.421
Mof_O 	O 	0.5514	0.0488	0.7689	-0.434
Mof_C 	C 	0.706	0.1447	0.803	0.04
Mof_C 	C 	0.5694	0.062	0.81	0.38
Mof_C 	C 	0.64	0.1064	0.8509	0.042
Mof_H 	H 	0.6264	0.098	0.8815	0.033
Mof_C 	C 	0.6806	0.1291	0.7591	-0.118
Mof_H 	H 	0.6941	0.136	0.7281	0.074
Mof_C 	C 	0.685	0.1337	0.8491	-0.111
Mof_H 	H 	0.7003	0.1441	0.8783	0.075
Mof_C 	C 	0.6363	0.1039	0.7625	0.047
Mof_H 	H 	0.6197	0.0947	0.7336	0.026
Mof_C 	C 	0.7836	0.1694	0.7588	-0.115
Mof_H 	H 	0.7789	0.1426	0.7375	0.07
Mof_C 	C 	0.616	0.092	0.8079	-0.127
Mof_C 	C 	0.7509	0.1767	0.7981	0.05
Mof_O 	O 	0.44746	0.94965	0.8512	-0.379
Mof_O 	O 	0.4486	0.9512	0.7689	-0.39
Mof_C 	C 	0.294	0.8553	0.803	0.037
Mof_C 	C 	0.4306	0.938	0.81	0.373
Mof_C 	C 	0.36	0.8936	0.8509	0.036
Mof_H 	H 	0.3736	0.902	0.8815	0.048
Mof_C 	C 	0.3194	0.8709	0.7591	-0.103
Mof_H 	H 	0.3059	0.864	0.7281	0.074
Mof_C 	C 	0.315	0.8663	0.8491	-0.097
Mof_H 	H 	0.2997	0.8559	0.8783	0.077
Mof_C 	C 	0.3637	0.8961	0.7625	0.04
Mof_H 	H 	0.3803	0.9053	0.7336	0.041
Mof_C 	C 	0.2164	0.8306	0.7588	-0.116
Mof_H 	H 	0.2211	0.8574	0.7375	0.077
Mof_C 	C 	0.384	0.908	0.8079	-0.103
Mof_C 	C 	0.2491	0.8233	0.7981	0.055
Mof_O 	O 	0.1488	0.44746	0.05035	-0.435
Mof_O 	O 	0.2311	0.4486	0.0488	-0.435
Mof_C 	C 	0.197	0.294	0.1447	0.039
Mof_C 	C 	0.19	0.4306	0.062	0.383
Mof_C 	C 	0.1491	0.36	0.1064	0.042
Mof_H 	H 	0.1185	0.3736	0.098	0.016
Mof_C 	C 	0.2409	0.3194	0.1291	-0.122
Mof_H 	H 	0.2719	0.3059	0.136	0.075
Mof_C 	C 	0.1509	0.315	0.1337	-0.118
Mof_H 	H 	0.1217	0.2997	0.1441	0.059
Mof_C 	C 	0.2375	0.3637	0.1039	0.049
Mof_H 	H 	0.2664	0.3803	0.0947	0.024
Mof_C 	C 	0.2412	0.2164	0.1694	-0.111
Mof_H 	H 	0.2625	0.2211	0.1426	0.064
Mof_C 	C 	0.1921	0.384	0.092	-0.134
Mof_C 	C 	0.2019	0.2491	0.1767	0.038
Mof_O 	O 	0.1488	0.55254	0.94965	-0.391
Mof_O 	O 	0.2311	0.5514	0.9512	-0.392
Mof_C 	C 	0.197	0.706	0.8553	0.038
Mof_C 	C 	0.19	0.5694	0.938	0.377
Mof_C 	C 	0.1491	0.64	0.8936	0.037
Mof_H 	H 	0.1185	0.6264	0.902	0.034
Mof_C 	C 	0.2409	0.6806	0.8709	-0.105
Mof_H 	H 	0.2719	0.6941	0.864	0.075
Mof_C 	C 	0.1509	0.685	0.8663	-0.102
Mof_H 	H 	0.1217	0.7003	0.8559	0.066
Mof_C 	C 	0.2375	0.6363	0.8961	0.043
Mof_H 	H 	0.2664	0.6197	0.9053	0.04
Mof_C 	C 	0.2412	0.7836	0.8306	-0.117
Mof_H 	H 	0.2625	0.7789	0.8574	0.078
Mof_C 	C 	0.1921	0.616	0.908	-0.109
Mof_C 	C 	0.2019	0.7509	0.8233	0.053
Mof_O 	O 	0.8512	0.55254	0.05035	-0.421
Mof_O 	O 	0.7689	0.5514	0.0488	-0.434
Mof_C 	C 	0.803	0.706	0.1447	0.04
Mof_C 	C 	0.81	0.5694	0.062	0.38
Mof_C 	C 	0.8509	0.64	0.1064	0.042
Mof_H 	H 	0.8815	0.6264	0.098	0.033
Mof_C 	C 	0.7591	0.6806	0.1291	-0.118
Mof_H 	H 	0.7281	0.6941	0.136	0.074
Mof_C 	C 	0.8491	0.685	0.1337	-0.111
Mof_H 	H 	0.8783	0.7003	0.1441	0.075
Mof_C 	C 	0.7625	0.6363	0.1039	0.047
Mof_H 	H 	0.7336	0.6197	0.0947	0.026
Mof_C 	C 	0.7588	0.7836	0.1694	-0.115
Mof_H 	H 	0.7375	0.7789	0.1426	0.07
Mof_C 	C 	0.8079	0.616	0.092	-0.127
Mof_C 	C 	0.7981	0.7509	0.1767	0.05
Mof_O 	O 	0.8512	0.44746	0.94965	-0.379
Mof_O 	O 	0.7689	0.4486	0.9512	-0.39
Mof_C 	C 	0.803	0.294	0.8553	0.037
Mof_C 	C 	0.81	0.4306	0.938	0.373
Mof_C 	C 	0.8509	0.36	0.8936	0.036
Mof_H 	H 	0.8815	0.3736	0.902	0.048
Mof_C 	C 	0.7591	0.3194	0.8709	-0.103
Mof_H 	H 	0.7281	0.3059	0.864	0.074
Mof_C 	C 	0.8491	0.315	0.8663	-0.097
Mof_H 	H 	0.8783	0.2997	0.8559	0.077
Mof_C 	C 	0.7625	0.3637	0.8961	0.04
Mof_H 	H 	0.7336	0.3803	0.9053	0.041
Mof_C 	C 	0.7588	0.2164	0.8306	-0.116
Mof_H 	H 	0.7375	0.2211	0.8574	0.077
Mof_C 	C 	0.8079	0.384	0.908	-0.103
Mof_C 	C 	0.7981	0.2491	0.8233	0.055
Mof_O 	O 	0.05035	0.1488	0.44746	-0.435
Mof_O 	O 	0.0488	0.2311	0.4486	-0.435
Mof_C 	C 	0.1447	0.197	0.294	0.039
Mof_C 	C 	0.062	0.19	0.4306	0.383
Mof_C 	C 	0.1064	0.1491	0.36	0.042
Mof_H 	H 	0.098	0.1185	0.3736	0.016
Mof_C 	C 	0.1291	0.2409	0.3194	-0.122
Mof_H 	H 	0.136	0.2719	0.3059	0.075
Mof_C 	C 	0.1337	0.1509	0.315	-0.118
Mof_H 	H 	0.1441	0.1217	0.2997	0.059
Mof_C 	C 	0.1039	0.2375	0.3637	0.049
Mof_H 	H 	0.0947	0.2664	0.3803	0.024
Mof_C 	C 	0.1694	0.2412	0.2164	-0.111
Mof_H 	H 	0.1426	0.2625	0.2211	0.064
Mof_C 	C 	0.092	0.1921	0.384	-0.134
Mof_C 	C 	0.1767	0.2019	0.2491	0.038
Mof_O 	O 	0.94965	0.1488	0.55254	-0.391
Mof_O 	O 	0.9512	0.2311	0.5514	-0.392
Mof_C 	C 	0.8553	0.197	0.706	0.038
Mof_C 	C 	0.938	0.19	0.5694	0.377
Mof_C 	C 	0.8936	0.1491	0.64	0.037
Mof_H 	H 	0.902	0.1185	0.6264	0.034
Mof_C 	C 	0.8709	0.2409	0.6806	-0.105
Mof_H 	H 	0.864	0.2719	0.6941	0.075
Mof_C 	C 	0.8663	0.1509	0.685	-0.102
Mof_H 	H 	0.8559	0.1217	0.7003	0.066
Mof_C 	C 	0.8961	0.2375	0.6363	0.043
Mof_H 	H 	0.9053	0.2664	0.6197	0.04
Mof_C 	C 	0.8306	0.2412	0.7836	-0.117
Mof_H 	H 	0.8574	0.2625	0.7789	0.078
Mof_C 	C 	0.908	0.1921	0.616	-0.109
Mof_C 	C 	0.8233	0.2019	0.7509	0.053
Mof_O 	O 	0.05035	0.8512	0.55254	-0.421
Mof_O 	O 	0.0488	0.7689	0.5514	-0.434
Mof_C 	C 	0.1447	0.803	0.706	0.04
Mof_C 	C 	0.062	0.81	0.5694	0.38
Mof_C 	C 	0.1064	0.8509	0.64	0.042
Mof_H 	H 	0.098	0.8815	0.6264	0.033
Mof_C 	C 	0.1291	0.7591	0.6806	-0.118
Mof_H 	H 	0.136	0.7281	0.6941	0.074
Mof_C 	C 	0.1337	0.8491	0.685	-0.111
Mof_H 	H 	0.1441	0.8783	0.7003	0.075
Mof_C 	C 	0.1039	0.7625	0.6363	0.047
Mof_H 	H 	0.0947	0.7336	0.6197	0.026
Mof_C 	C 	0.1694	0.7588	0.7836	-0.115
Mof_H 	H 	0.1426	0.7375	0.7789	0.07
Mof_C 	C 	0.092	0.8079	0.616	-0.127
Mof_C 	C 	0.1767	0.7981	0.7509	0.05
Mof_O 	O 	0.94965	0.8512	0.44746	-0.379
Mof_O 	O 	0.9512	0.7689	0.4486	-0.39
Mof_C 	C 	0.8553	0.803	0.294	0.037
Mof_C 	C 	0.938	0.81	0.4306	0.373
Mof_C 	C 	0.8936	0.8509	0.36	0.036
Mof_H 	H 	0.902	0.8815	0.3736	0.048
Mof_C 	C 	0.8709	0.7591	0.3194	-0.103
Mof_H 	H 	0.864	0.7281	0.3059	0.074
Mof_C 	C 	0.8663	0.8491	0.315	-0.097
Mof_H 	H 	0.8559	0.8783	0.2997	0.077
Mof_C 	C 	0.8961	0.7625	0.3637	0.04
Mof_H 	H 	0.9053	0.7336	0.3803	0.041
Mof_C 	C 	0.8306	0.7588	0.2164	-0.116
Mof_H 	H 	0.8574	0.7375	0.2211	0.077
Mof_C 	C 	0.908	0.8079	0.384	-0.103
Mof_C 	C 	0.8233	0.7981	0.2491	0.055
Mof_O 	O 	0.55254	0.94965	0.8512	-0.378
Mof_O 	O 	0.5514	0.9512	0.7689	-0.39
Mof_C 	C 	0.706	0.8553	0.803	0.038
Mof_C 	C 	0.5694	0.938	0.81	0.374
Mof_C 	C 	0.64	0.8936	0.8509	0.036
Mof_H 	H 	0.6264	0.902	0.8815	0.049
Mof_C 	C 	0.6806	0.8709	0.7591	-0.102
Mof_H 	H 	0.6941	0.864	0.7281	0.074
Mof_C 	C 	0.685	0.8663	0.8491	-0.096
Mof_H 	H 	0.7003	0.8559	0.8783	0.08
Mof_C 	C 	0.6363	0.8961	0.7625	0.04
Mof_H 	H 	0.6197	0.9053	0.7336	0.041
Mof_C 	C 	0.7836	0.8306	0.7588	-0.118
Mof_H 	H 	0.7789	0.8574	0.7375	0.08
Mof_C 	C 	0.616	0.908	0.8079	-0.103
Mof_C 	C 	0.7509	0.8233	0.7981	0.06
Mof_O 	O 	0.44746	0.05035	0.8512	-0.422
Mof_O 	O 	0.4486	0.0488	0.7689	-0.434
Mof_C 	C 	0.294	0.1447	0.803	0.039
Mof_C 	C 	0.4306	0.062	0.81	0.38
Mof_C 	C 	0.36	0.1064	0.8509	0.041
Mof_H 	H 	0.3736	0.098	0.8815	0.032
Mof_C 	C 	0.3194	0.1291	0.7591	-0.119
Mof_H 	H 	0.3059	0.136	0.7281	0.074
Mof_C 	C 	0.315	0.1337	0.8491	-0.112
Mof_H 	H 	0.2997	0.1441	0.8783	0.072
Mof_C 	C 	0.3637	0.1039	0.7625	0.047
Mof_H 	H 	0.3803	0.0947	0.7336	0.026
Mof_C 	C 	0.2164	0.1694	0.7588	-0.113
Mof_H 	H 	0.2211	0.1426	0.7375	0.067
Mof_C 	C 	0.384	0.092	0.8079	-0.127
Mof_C 	C 	0.2491	0.1767	0.7981	0.045
Mof_O 	O 	0.44746	0.94965	0.1488	-0.391
Mof_O 	O 	0.4486	0.9512	0.2311	-0.392
Mof_C 	C 	0.294	0.8553	0.197	0.037
Mof_C 	C 	0.4306	0.938	0.19	0.377
Mof_C 	C 	0.36	0.8936	0.1491	0.036
Mof_H 	H 	0.3736	0.902	0.1185	0.033
Mof_C 	C 	0.3194	0.8709	0.2409	-0.106
Mof_H 	H 	0.3059	0.864	0.2719	0.075
Mof_C 	C 	0.315	0.8663	0.1509	-0.103
Mof_H 	H 	0.2997	0.8559	0.1217	0.063
Mof_C 	C 	0.3637	0.8961	0.2375	0.043
Mof_H 	H 	0.3803	0.9053	0.2664	0.039
Mof_C 	C 	0.2164	0.8306	0.2412	-0.114
Mof_H 	H 	0.2211	0.8574	0.2625	0.074
Mof_C 	C 	0.384	0.908	0.1921	-0.11
Mof_C 	C 	0.2491	0.8233	0.2019	0.048
Mof_O 	O 	0.55254	0.05035	0.1488	-0.434
Mof_O 	O 	0.5514	0.0488	0.2311	-0.435
Mof_C 	C 	0.706	0.1447	0.197	0.039
Mof_C 	C 	0.5694	0.062	0.19	0.383
Mof_C 	C 	0.64	0.1064	0.1491	0.042
Mof_H 	H 	0.6264	0.098	0.1185	0.017
Mof_C 	C 	0.6806	0.1291	0.2409	-0.121
Mof_H 	H 	0.6941	0.136	0.2719	0.075
Mof_C 	C 	0.685	0.1337	0.1509	-0.117
Mof_H 	H 	0.7003	0.1441	0.1217	0.062
Mof_C 	C 	0.6363	0.1039	0.2375	0.05
Mof_H 	H 	0.6197	0.0947	0.2664	0.025
Mof_C 	C 	0.7836	0.1694	0.2412	-0.113
Mof_H 	H 	0.7789	0.1426	0.2625	0.068
Mof_C 	C 	0.616	0.092	0.1921	-0.133
Mof_C 	C 	0.7509	0.1767	0.2019	0.043
Mof_O 	O 	0.8512	0.55254	0.94965	-0.378
Mof_O 	O 	0.7689	0.5514	0.9512	-0.39
Mof_C 	C 	0.803	0.706	0.8553	0.038
Mof_C 	C 	0.81	0.5694	0.938	0.374
Mof_C 	C 	0.8509	0.64	0.8936	0.036
Mof_H 	H 	0.8815	0.6264	0.902	0.049
Mof_C 	C 	0.7591	0.6806	0.8709	-0.102
Mof_H 	H 	0.7281	0.6941	0.864	0.074
Mof_C 	C 	0.8491	0.685	0.8663	-0.096
Mof_H 	H 	0.8783	0.7003	0.8559	0.08
Mof_C 	C 	0.7625	0.6363	0.8961	0.04
Mof_H 	H 	0.7336	0.6197	0.9053	0.041
Mof_C 	C 	0.7588	0.7836	0.8306	-0.118
Mof_H 	H 	0.7375	0.7789	0.8574	0.08
Mof_C 	C 	0.8079	0.616	0.908	-0.103
Mof_C 	C 	0.7981	0.7509	0.8233	0.06
Mof_O 	O 	0.8512	0.44746	0.05035	-0.422
Mof_O 	O 	0.7689	0.4486	0.0488	-0.434
Mof_C 	C 	0.803	0.294	0.1447	0.039
Mof_C 	C 	0.81	0.4306	0.062	0.38
Mof_C 	C 	0.8509	0.36	0.1064	0.041
Mof_H 	H 	0.8815	0.3736	0.098	0.032
Mof_C 	C 	0.7591	0.3194	0.1291	-0.119
Mof_H 	H 	0.7281	0.3059	0.136	0.074
Mof_C 	C 	0.8491	0.315	0.1337	-0.112
Mof_H 	H 	0.8783	0.2997	0.1441	0.072
Mof_C 	C 	0.7625	0.3637	0.1039	0.047
Mof_H 	H 	0.7336	0.3803	0.0947	0.026
Mof_C 	C 	0.7588	0.2164	0.1694	-0.113
Mof_H 	H 	0.7375	0.2211	0.1426	0.067
Mof_C 	C 	0.8079	0.384	0.092	-0.127
Mof_C 	C 	0.7981	0.2491	0.1767	0.045
Mof_O 	O 	0.1488	0.44746	0.94965	-0.391
Mof_O 	O 	0.2311	0.4486	0.9512	-0.392
Mof_C 	C 	0.197	0.294	0.8553	0.037
Mof_C 	C 	0.19	0.4306	0.938	0.377
Mof_C 	C 	0.1491	0.36	0.8936	0.036
Mof_H 	H 	0.1185	0.3736	0.902	0.033
Mof_C 	C 	0.2409	0.3194	0.8709	-0.106
Mof_H 	H 	0.2719	0.3059	0.864	0.075
Mof_C 	C 	0.1509	0.315	0.8663	-0.103
Mof_H 	H 	0.1217	0.2997	0.8559	0.063
Mof_C 	C 	0.2375	0.3637	0.8961	0.043
Mof_H 	H 	0.2664	0.3803	0.9053	0.039
Mof_C 	C 	0.2412	0.2164	0.8306	-0.114
Mof_H 	H 	0.2625	0.2211	0.8574	0.074
Mof_C 	C 	0.1921	0.384	0.908	-0.11
Mof_C 	C 	0.2019	0.2491	0.8233	0.048
Mof_O 	O 	0.1488	0.55254	0.05035	-0.434
Mof_O 	O 	0.2311	0.5514	0.0488	-0.435
Mof_C 	C 	0.197	0.706	0.1447	0.039
Mof_C 	C 	0.19	0.5694	0.062	0.383
Mof_C 	C 	0.1491	0.64	0.1064	0.042
Mof_H 	H 	0.1185	0.6264	0.098	0.017
Mof_C 	C 	0.2409	0.6806	0.1291	-0.121
Mof_H 	H 	0.2719	0.6941	0.136	0.075
Mof_C 	C 	0.1509	0.685	0.1337	-0.117
Mof_H 	H 	0.1217	0.7003	0.1441	0.062
Mof_C 	C 	0.2375	0.6363	0.1039	0.05
Mof_H 	H 	0.2664	0.6197	0.0947	0.025
Mof_C 	C 	0.2412	0.7836	0.1694	-0.113
Mof_H 	H 	0.2625	0.7789	0.1426	0.068
Mof_C 	C 	0.1921	0.616	0.092	-0.133
Mof_C 	C 	0.2019	0.7509	0.1767	0.043
Mof_O 	O 	0.94965	0.8512	0.55254	-0.378
Mof_O 	O 	0.9512	0.7689	0.5514	-0.39
Mof_C 	C 	0.8553	0.803	0.706	0.038
Mof_C 	C 	0.938	0.81	0.5694	0.374
Mof_C 	C 	0.8936	0.8509	0.64	0.036
Mof_H 	H 	0.902	0.8815	0.6264	0.049
Mof_C 	C 	0.8709	0.7591	0.6806	-0.102
Mof_H 	H 	0.864	0.7281	0.6941	0.074
Mof_C 	C 	0.8663	0.8491	0.685	-0.096
Mof_H 	H 	0.8559	0.8783	0.7003	0.08
Mof_C 	C 	0.8961	0.7625	0.6363	0.04
Mof_H 	H 	0.9053	0.7336	0.6197	0.041
Mof_C 	C 	0.8306	0.7588	0.7836	-0.118
Mof_H 	H 	0.8574	0.7375	0.7789	0.08
Mof_C 	C 	0.908	0.8079	0.616	-0.103
Mof_C 	C 	0.8233	0.7981	0.7509	0.06
Mof_O 	O 	0.05035	0.8512	0.44746	-0.422
Mof_O 	O 	0.0488	0.7689	0.4486	-0.434
Mof_C 	C 	0.1447	0.803	0.294	0.039
Mof_C 	C 	0.062	0.81	0.4306	0.38
Mof_C 	C 	0.1064	0.8509	0.36	0.041
Mof_H 	H 	0.098	0.8815	0.3736	0.032
Mof_C 	C 	0.1291	0.7591	0.3194	-0.119
Mof_H 	H 	0.136	0.7281	0.3059	0.074
Mof_C 	C 	0.1337	0.8491	0.315	-0.112
Mof_H 	H 	0.1441	0.8783	0.2997	0.072
Mof_C 	C 	0.1039	0.7625	0.3637	0.047
Mof_H 	H 	0.0947	0.7336	0.3803	0.026
Mof_C 	C 	0.1694	0.7588	0.2164	-0.113
Mof_H 	H 	0.1426	0.7375	0.2211	0.067
Mof_C 	C 	0.092	0.8079	0.384	-0.127
Mof_C 	C 	0.1767	0.7981	0.2491	0.045
Mof_O 	O 	0.94965	0.1488	0.44746	-0.391
Mof_O 	O 	0.9512	0.2311	0.4486	-0.392
Mof_C 	C 	0.8553	0.197	0.294	0.037
Mof_C 	C 	0.938	0.19	0.4306	0.377
Mof_C 	C 	0.8936	0.1491	0.36	0.036
Mof_H 	H 	0.902	0.1185	0.3736	0.033
Mof_C 	C 	0.8709	0.2409	0.3194	-0.106
Mof_H 	H 	0.864	0.2719	0.3059	0.075
Mof_C 	C 	0.8663	0.1509	0.315	-0.103
Mof_H 	H 	0.8559	0.1217	0.2997	0.063
Mof_C 	C 	0.8961	0.2375	0.3637	0.043
Mof_H 	H 	0.9053	0.2664	0.3803	0.039
Mof_C 	C 	0.8306	0.2412	0.2164	-0.114
Mof_H 	H 	0.8574	0.2625	0.2211	0.074
Mof_C 	C 	0.908	0.1921	0.384	-0.11
Mof_C 	C 	0.8233	0.2019	0.2491	0.048
Mof_O 	O 	0.05035	0.1488	0.55254	-0.434
Mof_O 	O 	0.0488	0.2311	0.5514	-0.435
Mof_C 	C 	0.1447	0.197	0.706	0.039
Mof_C 	C 	0.062	0.19	0.5694	0.383
Mof_C 	C 	0.1064	0.1491	0.64	0.042
Mof_H 	H 	0.098	0.1185	0.6264	0.017
Mof_C 	C 	0.1291	0.2409	0.6806	-0.121
Mof_H 	H 	0.136	0.2719	0.6941	0.075
Mof_C 	C 	0.1337	0.1509	0.685	-0.117
Mof_H 	H 	0.1441	0.1217	0.7003	0.062
Mof_C 	C 	0.1039	0.2375	0.6363	0.05
Mof_H 	H 	0.0947	0.2664	0.6197	0.025
Mof_C 	C 	0.1694	0.2412	0.7836	-0.113
Mof_H 	H 	0.1426	0.2625	0.7789	0.068
Mof_C 	C 	0.092	0.1921	0.616	-0.133
Mof_C 	C 	0.1767	0.2019	0.7509	0.043
Mof_Cu	Cu	0.5	-1.29325e-33	0.14413	0.876
Mof_Cu	Cu	0.5	0	0.2407	0.885
Mof_Cu	Cu	0.5	0	0.85587	0.882
Mof_Cu	Cu	0.5	-5.17301e-33	0.7593	0.885
Mof_Cu	Cu	0.14413	0.5	-0	0.876
Mof_Cu	Cu	0.2407	0.5	-0	0.885
Mof_Cu	Cu	0.85587	0.5	-0	0.882
Mof_Cu	Cu	0.7593	0.5	-0	0.885
Mof_Cu	Cu	7.04771e-33	0.14413	0.5	0.876
Mof_Cu	Cu	7.04771e-33	0.2407	0.5	0.885
Mof_Cu	Cu	7.04771e-33	0.85587	0.5	0.882
Mof_Cu	Cu	1.8747e-33	0.7593	0.5	0.885
Mof_O 	O 	0.94746	0.55035	0.6488	-0.384
Mof_O 	O 	0.9486	0.5488	0.7311	-0.389
Mof_C 	C 	0.794	0.6447	0.697	0.033
Mof_C 	C 	0.9306	0.562	0.69	0.373
Mof_C 	C 	0.86	0.6064	0.6491	0.032
Mof_H 	H 	0.8736	0.598	0.6185	0.039
Mof_C 	C 	0.8194	0.6291	0.7409	-0.104
Mof_H 	H 	0.8059	0.636	0.7719	0.072
Mof_C 	C 	0.815	0.6337	0.6509	-0.101
Mof_H 	H 	0.7997	0.6441	0.6217	0.068
Mof_C 	C 	0.8637	0.6039	0.7375	0.038
Mof_H 	H 	0.8803	0.5947	0.7664	0.04
Mof_C 	C 	0.7164	0.6694	0.7412	-0.118
Mof_H 	H 	0.7211	0.6426	0.7625	0.074
Mof_C 	C 	0.884	0.592	0.6921	-0.106
Mof_C 	C 	0.7491	0.6767	0.7019	0.053
Mof_O 	O 	0.05254	0.44965	0.6488	-0.429
Mof_O 	O 	0.0514	0.4512	0.7311	-0.434
Mof_C 	C 	0.206	0.3553	0.697	0.042
Mof_C 	C 	0.0694	0.438	0.69	0.383
Mof_C 	C 	0.14	0.3936	0.6491	0.044
Mof_H 	H 	0.1264	0.402	0.6185	0.027
Mof_C 	C 	0.1806	0.3709	0.7409	-0.117
Mof_H 	H 	0.1941	0.364	0.7719	0.076
Mof_C 	C 	0.185	0.3663	0.6509	-0.112
Mof_H 	H 	0.2003	0.3559	0.6217	0.07
Mof_C 	C 	0.1363	0.3961	0.7375	0.05
Mof_H 	H 	0.1197	0.4053	0.7664	0.027
Mof_C 	C 	0.2836	0.3306	0.7412	-0.114
Mof_H 	H 	0.2789	0.3574	0.7625	0.072
Mof_C 	C 	0.116	0.408	0.6921	-0.128
Mof_C 	C 	0.2509	0.3233	0.7019	0.047
Mof_O 	O 	0.05254	0.55035	0.3512	-0.429
Mof_O 	O 	0.0514	0.5488	0.2689	-0.436
Mof_C 	C 	0.206	0.6447	0.303	0.042
Mof_C 	C 	0.0694	0.562	0.31	0.384
Mof_C 	C 	0.14	0.6064	0.3509	0.045
Mof_H 	H 	0.1264	0.598	0.3815	0.026
Mof_C 	C 	0.1806	0.6291	0.2591	-0.119
Mof_H 	H 	0.1941	0.636	0.2281	0.077
Mof_C 	C 	0.185	0.6337	0.3491	-0.113
Mof_H 	H 	0.2003	0.6441	0.3783	0.07
Mof_C 	C 	0.1363	0.6039	0.2625	0.052
Mof_H 	H 	0.1197	0.5947	0.2336	0.025
Mof_C 	C 	0.2836	0.6694	0.2588	-0.113
Mof_H 	H 	0.2789	0.6426	0.2375	0.071
Mof_C 	C 	0.116	0.592	0.3079	-0.13
Mof_C 	C 	0.2509	0.6767	0.2981	0.047
Mof_O 	O 	0.94746	0.44965	0.3512	-0.385
Mof_O 	O 	0.9486	0.4512	0.2689	-0.392
Mof_C 	C 	0.794	0.3553	0.303	0.036
Mof_C 	C 	0.9306	0.438	0.31	0.374
Mof_C 	C 	0.86	0.3936	0.3509	0.034
Mof_H 	H 	0.8736	0.402	0.3815	0.039
Mof_C 	C 	0.8194	0.3709	0.2591	-0.107
Mof_H 	H 	0.8059	0.364	0.2281	0.074
Mof_C 	C 	0.815	0.3663	0.3491	-0.103
Mof_H 	H 	0.7997	0.3559	0.3783	0.068
Mof_C 	C 	0.8637	0.3961	0.2625	0.04
Mof_H 	H 	0.8803	0.4053	0.2336	0.038
Mof_C 	C 	0.7164	0.3306	0.2588	-0.114
Mof_H 	H 	0.7211	0.3574	0.2375	0.072
Mof_C 	C 	0.884	0.408	0.3079	-0.109
Mof_C 	C 	0.7491	0.3233	0.2981	0.049
Mof_O 	O 	0.6488	0.94746	0.55035	-0.384
Mof_O 	O 	0.7311	0.9486	0.5488	-0.389
Mof_C 	C 	0.697	0.794	0.6447	0.033
Mof_C 	C 	0.69	0.9306	0.562	0.373
Mof_C 	C 	0.6491	0.86	0.6064	0.032
Mof_H 	H 	0.6185	0.8736	0.598	0.039
Mof_C 	C 	0.7409	0.8194	0.6291	-0.104
Mof_H 	H 	0.7719	0.8059	0.636	0.072
Mof_C 	C 	0.6509	0.815	0.6337	-0.101
Mof_H 	H 	0.6217	0.7997	0.6441	0.068
Mof_C 	C 	0.7375	0.8637	0.6039	0.038
Mof_H 	H 	0.7664	0.8803	0.5947	0.04
Mof_C 	C 	0.7412	0.7164	0.6694	-0.118
Mof_H 	H 	0.7625	0.7211	0.6426	0.074
Mof_C 	C 	0.6921	0.884	0.592	-0.106
Mof_C 	C 	0.7019	0.7491	0.6767	0.053
Mof_O 	O 	0.6488	0.05254	0.44965	-0.429
Mof_O 	O 	0.7311	0.0514	0.4512	-0.434
Mof_C 	C 	0.697	0.206	0.3553	0.042
Mof_C 	C 	0.69	0.0694	0.438	0.383
Mof_C 	C 	0.6491	0.14	0.3936	0.044
Mof_H 	H 	0.6185	0.1264	0.402	0.027
Mof_C 	C 	0.7409	0.1806	0.3709	-0.117
Mof_H 	H 	0.7719	0.1941	0.364	0.076
Mof_C 	C 	0.6509	0.185	0.3663	-0.112
Mof_H 	H 	0.6217	0.2003	0.3559	0.07
Mof_C 	C 	0.7375	0.1363	0.3961	0.05
Mof_H 	H 	0.7664	0.1197	0.4053	0.027
Mof_C 	C 	0.7412	0.2836	0.3306	-0.114
Mof_H 	H 	0.7625	0.2789	0.3574	0.072
Mof_C 	C 	0.6921	0.116	0.408	-0.128
Mof_C 	C 	0.7019	0.2509	0.3233	0.047
Mof_O 	O 	0.3512	0.05254	0.55035	-0.429
Mof_O 	O 	0.2689	0.0514	0.5488	-0.436
Mof_C 	C 	0.303	0.206	0.6447	0.042
Mof_C 	C 	0.31	0.0694	0.562	0.384
Mof_C 	C 	0.3509	0.14	0.6064	0.045
Mof_H 	H 	0.3815	0.1264	0.598	0.026
Mof_C 	C 	0.2591	0.1806	0.6291	-0.119
Mof_H 	H 	0.2281	0.1941	0.636	0.077
Mof_C 	C 	0.3491	0.185	0.6337	-0.113
Mof_H 	H 	0.3783	0.2003	0.6441	0.07
Mof_C 	C 	0.2625	0.1363	0.6039	0.052
Mof_H 	H 	0.2336	0.1197	0.5947	0.025
Mof_C 	C 	0.2588	0.2836	0.6694	-0.113
Mof_H 	H 	0.2375	0.2789	0.6426	0.071
Mof_C 	C 	0.3079	0.116	0.592	-0.13
Mof_C 	C 	0.2981	0.2509	0.6767	0.047
Mof_O 	O 	0.3512	0.94746	0.44965	-0.385
Mof_O 	O 	0.2689	0.9486	0.4512	-0.392
Mof_C 	C 	0.303	0.794	0.3553	0.036
Mof_C 	C 	0.31	0.9306	0.438	0.374
Mof_C 	C 	0.3509	0.86	0.3936	0.034
Mof_H 	H 	0.3815	0.8736	0.402	0.039
Mof_C 	C 	0.2591	0.8194	0.3709	-0.107
Mof_H 	H 	0.2281	0.8059	0.364	0.074
Mof_C 	C 	0.3491	0.815	0.3663	-0.103
Mof_H 	H 	0.3783	0.7997	0.3559	0.068
Mof_C 	C 	0.2625	0.8637	0.3961	0.04
Mof_H 	H 	0.2336	0.8803	0.4053	0.038
Mof_C 	C 	0.2588	0.7164	0.3306	-0.114
Mof_H 	H 	0.2375	0.7211	0.3574	0.072
Mof_C 	C 	0.3079	0.884	0.408	-0.109
Mof_C 	C 	0.2981	0.7491	0.3233	0.049
Mof_O 	O 	0.55035	0.6488	0.94746	-0.384
Mof_O 	O 	0.5488	0.7311	0.9486	-0.389
Mof_C 	C 	0.6447	0.697	0.794	0.033
Mof_C 	C 	0.562	0.69	0.9306	0.373
Mof_C 	C 	0.6064	0.6491	0.86	0.032
Mof_H 	H 	0.598	0.6185	0.8736	0.039
Mof_C 	C 	0.6291	0.7409	0.8194	-0.104
Mof_H 	H 	0.636	0.7719	0.8059	0.072
Mof_C 	C 	0.6337	0.6509	0.815	-0.101
Mof_H 	H 	0.6441	0.6217	0.7997	0.068
Mof_C 	C 	0.6039	0.7375	0.8637	0.038
Mof_H 	H 	0.5947	0.7664	0.8803	0.04
Mof_C 	C 	0.6694	0.7412	0.7164	-0.118
Mof_H 	H 	0.6426	0.7625	0.7211	0.074
Mof_C 	C 	0.592	0.6921	0.884	-0.106
Mof_C 	C 	0.6767	0.7019	0.7491	0.053
Mof_O 	O 	0.44965	0.6488	0.05254	-0.429
Mof_O 	O 	0.4512	0.7311	0.0514	-0.434
Mof_C 	C 	0.3553	0.697	0.206	0.042
Mof_C 	C 	0.438	0.69	0.0694	0.383
Mof_C 	C 	0.3936	0.6491	0.14	0.044
Mof_H 	H 	0.402	0.6185	0.1264	0.027
Mof_C 	C 	0.3709	0.7409	0.1806	-0.117
Mof_H 	H 	0.364	0.7719	0.1941	0.076
Mof_C 	C 	0.3663	0.6509	0.185	-0.112
Mof_H 	H 	0.3559	0.6217	0.2003	0.07
Mof_C 	C 	0.3961	0.7375	0.1363	0.05
Mof_H 	H 	0.4053	0.7664	0.1197	0.027
Mof_C 	C 	0.3306	0.7412	0.2836	-0.114
Mof_H 	H 	0.3574	0.7625	0.2789	0.072
Mof_C 	C 	0.408	0.6921	0.116	-0.128
Mof_C 	C 	0.3233	0.7019	0.2509	0.047
Mof_O 	O 	0.55035	0.3512	0.05254	-0.429
Mof_O 	O 	0.5488	0.2689	0.0514	-0.436
Mof_C 	C 	0.6447	0.303	0.206	0.042
Mof_C 	C 	0.562	0.31	0.0694	0.384
Mof_C 	C 	0.6064	0.3509	0.14	0.045
Mof_H 	H 	0.598	0.3815	0.1264	0.026
Mof_C 	C 	0.6291	0.2591	0.1806	-0.119
Mof_H 	H 	0.636	0.2281	0.1941	0.077
Mof_C 	C 	0.6337	0.3491	0.185	-0.113
Mof_H 	H 	0.6441	0.3783	0.2003	0.07
Mof_C 	C 	0.6039	0.2625	0.1363	0.052
Mof_H 	H 	0.5947	0.2336	0.1197	0.025
Mof_C 	C 	0.6694	0.2588	0.2836	-0.113
Mof_H 	H 	0.6426	0.2375	0.2789	0.071
Mof_C 	C 	0.592	0.3079	0.116	-0.13
Mof_C 	C 	0.6767	0.2981	0.2509	0.047
Mof_O 	O 	0.44965	0.3512	0.94746	-0.385
Mof_O 	O 	0.4512	0.2689	0.9486	-0.392
Mof_C 	C 	0.3553	0.303	0.794	0.036
Mof_C 	C 	0.438	0.31	0.9306	0.374
Mof_C 	C 	0.3936	0.3509	0.86	0.034
Mof_H 	H 	0.402	0.3815	0.8736	0.039
Mof_C 	C 	0.3709	0.2591	0.8194	-0.107
Mof_H 	H 	0.364	0.2281	0.8059	0.074
Mof_C 	C 	0.3663	0.3491	0.815	-0.103
Mof_H 	H 	0.3559	0.3783	0.7997	0.068
Mof_C 	C 	0.3961	0.2625	0.8637	0.04
Mof_H 	H 	0.4053	0.2336	0.8803	0.038
Mof_C 	C 	0.3306	0.2588	0.7164	-0.114
Mof_H 	H 	0.3574	0.2375	0.7211	0.072
Mof_C 	C 	0.408	0.3079	0.884	-0.109
Mof_C 	C 	0.3233	0.2981	0.7491	0.049
Mof_O 	O 	0.05254	0.44965	0.3512	-0.429
Mof_O 	O 	0.0514	0.4512	0.2689	-0.436
Mof_C 	C 	0.206	0.3553	0.303	0.043
Mof_C 	C 	0.0694	0.438	0.31	0.384
Mof_C 	C 	0.14	0.3936	0.3509	0.045
Mof_H 	H 	0.1264	0.402	0.3815	0.026
Mof_C 	C 	0.1806	0.3709	0.2591	-0.12
Mof_H 	H 	0.1941	0.364	0.2281	0.077
Mof_C 	C 	0.185	0.3663	0.3491	-0.114
Mof_H 	H 	0.2003	0.3559	0.3783	0.07
Mof_C 	C 	0.1363	0.3961	0.2625	0.052
Mof_H 	H 	0.1197	0.4053	0.2336	0.025
Mof_C 	C 	0.2836	0.3306	0.2588	-0.111
Mof_H 	H 	0.2789	0.3574	0.2375	0.071
Mof_C 	C 	0.116	0.408	0.3079	-0.13
Mof_C 	C 	0.2509	0.3233	0.2981	0.046
Mof_O 	O 	0.94746	0.55035	0.3512	-0.384
Mof_O 	O 	0.9486	0.5488	0.2689	-0.392
Mof_C 	C 	0.794	0.6447	0.303	0.035
Mof_C 	C 	0.9306	0.562	0.31	0.373
Mof_C 	C 	0.86	0.6064	0.3509	0.034
Mof_H 	H 	0.8736	0.598	0.3815	0.039
Mof_C 	C 	0.8194	0.6291	0.2591	-0.107
Mof_H 	H 	0.8059	0.636	0.2281	0.073
Mof_C 	C 	0.815	0.6337	0.3491	-0.102
Mof_H 	H 	0.7997	0.6441	0.3783	0.068
Mof_C 	C 	0.8637	0.6039	0.2625	0.04
Mof_H 	H 	0.8803	0.5947	0.2336	0.038
Mof_C 	C 	0.7164	0.6694	0.2588	-0.115
Mof_H 	H 	0.7211	0.6426	0.2375	0.072
Mof_C 	C 	0.884	0.592	0.3079	-0.108
Mof_C 	C 	0.7491	0.6767	0.2981	0.051
Mof_O 	O 	0.94746	0.44965	0.6488	-0.384
Mof_O 	O 	0.9486	0.4512	0.7311	-0.39
Mof_C 	C 	0.794	0.3553	0.697	0.034
Mof_C 	C 	0.9306	0.438	0.69	0.373
Mof_C 	C 	0.86	0.3936	0.6491	0.033
Mof_H 	H 	0.8736	0.402	0.6185	0.039
Mof_C 	C 	0.8194	0.3709	0.7409	-0.105
Mof_H 	H 	0.8059	0.364	0.7719	0.073
Mof_C 	C 	0.815	0.3663	0.6509	-0.101
Mof_H 	H 	0.7997	0.3559	0.6217	0.068
Mof_C 	C 	0.8637	0.3961	0.7375	0.038
Mof_H 	H 	0.8803	0.4053	0.7664	0.04
Mof_C 	C 	0.7164	0.3306	0.7412	-0.117
Mof_H 	H 	0.7211	0.3574	0.7625	0.073
Mof_C 	C 	0.884	0.408	0.6921	-0.107
Mof_C 	C 	0.7491	0.3233	0.7019	0.051
Mof_O 	O 	0.05254	0.55035	0.6488	-0.428
Mof_O 	O 	0.0514	0.5488	0.7311	-0.434
Mof_C 	C 	0.206	0.6447	0.697	0.041
Mof_C 	C 	0.0694	0.562	0.69	0.383
Mof_C 	C 	0.14	0.6064	0.6491	0.043
Mof_H 	H 	0.1264	0.598	0.6185	0.027
Mof_C 	C 	0.1806	0.6291	0.7409	-0.117
Mof_H 	H 	0.1941	0.636	0.7719	0.075
Mof_C 	C 	0.185	0.6337	0.6509	-0.112
Mof_H 	H 	0.2003	0.6441	0.6217	0.069
Mof_C 	C 	0.1363	0.6039	0.7375	0.05
Mof_H 	H 	0.1197	0.5947	0.7664	0.028
Mof_C 	C 	0.2836	0.6694	0.7412	-0.116
Mof_H 	H 	0.2789	0.6426	0.7625	0.073
Mof_C 	C 	0.116	0.592	0.6921	-0.128
Mof_C 	C 	0.2509	0.6767	0.7019	0.049
Mof_O 	O 	0.3512	0.05254	0.44965	-0.429
Mof_O 	O 	0.2689	0.0514	0.4512	-0.436
Mof_C 	C 	0.303	0.206	0.3553	0.043
Mof_C 	C 	0.31	0.0694	0.438	0.384
Mof_C 	C 	0.3509	0.14	0.3936	0.045
Mof_H 	H 	0.3815	0.1264	0.402	0.026
Mof_C 	C 	0.2591	0.1806	0.3709	-0.12
Mof_H 	H 	0.2281	0.1941	0.364	0.077
Mof_C 	C 	0.3491	0.185	0.3663	-0.114
Mof_H 	H 	0.3783	0.2003	0.3559	0.07
Mof_C 	C 	0.2625	0.1363	0.3961	0.052
Mof_H 	H 	0.2336	0.1197	0.4053	0.025
Mof_C 	C 	0.2588	0.2836	0.3306	-0.111
Mof_H 	H 	0.2375	0.2789	0.3574	0.071
Mof_C 	C 	0.3079	0.116	0.408	-0.13
Mof_C 	C 	0.2981	0.2509	0.3233	0.046
Mof_O 	O 	0.3512	0.94746	0.55035	-0.384
Mof_O 	O 	0.2689	0.9486	0.5488	-0.392
Mof_C 	C 	0.303	0.794	0.6447	0.035
Mof_C 	C 	0.31	0.9306	0.562	0.373
Mof_C 	C 	0.3509	0.86	0.6064	0.034
Mof_H 	H 	0.3815	0.8736	0.598	0.039
Mof_C 	C 	0.2591	0.8194	0.6291	-0.107
Mof_H 	H 	0.2281	0.8059	0.636	0.073
Mof_C 	C 	0.3491	0.815	0.6337	-0.102
Mof_H 	H 	0.3783	0.7997	0.6441	0.068
Mof_C 	C 	0.2625	0.8637	0.6039	0.04
Mof_H 	H 	0.2336	0.8803	0.5947	0.038
Mof_C 	C 	0.2588	0.7164	0.6694	-0.115
Mof_H 	H 	0.2375	0.7211	0.6426	0.072
Mof_C 	C 	0.3079	0.884	0.592	-0.108
Mof_C 	C 	0.2981	0.7491	0.6767	0.051
Mof_O 	O 	0.6488	0.94746	0.44965	-0.384
Mof_O 	O 	0.7311	0.9486	0.4512	-0.39
Mof_C 	C 	0.697	0.794	0.3553	0.034
Mof_C 	C 	0.69	0.9306	0.438	0.373
Mof_C 	C 	0.6491	0.86	0.3936	0.033
Mof_H 	H 	0.6185	0.8736	0.402	0.039
Mof_C 	C 	0.7409	0.8194	0.3709	-0.105
Mof_H 	H 	0.7719	0.8059	0.364	0.073
Mof_C 	C 	0.6509	0.815	0.3663	-0.101
Mof_H 	H 	0.6217	0.7997	0.3559	0.068
Mof_C 	C 	0.7375	0.8637	0.3961	0.038
Mof_H 	H 	0.7664	0.8803	0.4053	0.04
Mof_C 	C 	0.7412	0.7164	0.3306	-0.117
Mof_H 	H 	0.7625	0.7211	0.3574	0.073
Mof_C 	C 	0.6921	0.884	0.408	-0.107
Mof_C 	C 	0.7019	0.7491	0.3233	0.051
Mof_O 	O 	0.6488	0.05254	0.55035	-0.428
Mof_O 	O 	0.7311	0.0514	0.5488	-0.434
Mof_C 	C 	0.697	0.206	0.6447	0.041
Mof_C 	C 	0.69	0.0694	0.562	0.383
Mof_C 	C 	0.6491	0.14	0.6064	0.043
Mof_H 	H 	0.6185	0.1264	0.598	0.027
Mof_C 	C 	0.7409	0.1806	0.6291	-0.117
Mof_H 	H 	0.7719	0.1941	0.636	0.075
Mof_C 	C 	0.6509	0.185	0.6337	-0.112
Mof_H 	H 	0.6217	0.2003	0.6441	0.069
Mof_C 	C 	0.7375	0.1363	0.6039	0.05
Mof_H 	H 	0.7664	0.1197	0.5947	0.028
Mof_C 	C 	0.7412	0.2836	0.6694	-0.116
Mof_H 	H 	0.7625	0.2789	0.6426	0.073
Mof_C 	C 	0.6921	0.116	0.592	-0.128
Mof_C 	C 	0.7019	0.2509	0.6767	0.049
Mof_O 	O 	0.44965	0.3512	0.05254	-0.429
Mof_O 	O 	0.4512	0.2689	0.0514	-0.436
Mof_C 	C 	0.3553	0.303	0.206	0.043
Mof_C 	C 	0.438	0.31	0.0694	0.384
Mof_C 	C 	0.3936	0.3509	0.14	0.045
Mof_H 	H 	0.402	0.3815	0.1264	0.026
Mof_C 	C 	0.3709	0.2591	0.1806	-0.12
Mof_H 	H 	0.364	0.2281	0.1941	0.077
Mof_C 	C 	0.3663	0.3491	0.185	-0.114
Mof_H 	H 	0.3559	0.3783	0.2003	0.07
Mof_C 	C 	0.3961	0.2625	0.1363	0.052
Mof_H 	H 	0.4053	0.2336	0.1197	0.025
Mof_C 	C 	0.3306	0.2588	0.2836	-0.111
Mof_H 	H 	0.3574	0.2375	0.2789	0.071
Mof_C 	C 	0.408	0.3079	0.116	-0.13
Mof_C 	C 	0.3233	0.2981	0.2509	0.046
Mof_O 	O 	0.55035	0.3512	0.94746	-0.384
Mof_O 	O 	0.5488	0.2689	0.9486	-0.392
Mof_C 	C 	0.6447	0.303	0.794	0.035
Mof_C 	C 	0.562	0.31	0.9306	0.373
Mof_C 	C 	0.6064	0.3509	0.86	0.034
Mof_H 	H 	0.598	0.3815	0.8736	0.039
Mof_C 	C 	0.6291	0.2591	0.8194	-0.107
Mof_H 	H 	0.636	0.2281	0.8059	0.073
Mof_C 	C 	0.6337	0.3491	0.815	-0.102
Mof_H 	H 	0.6441	0.3783	0.7997	0.068
Mof_C 	C 	0.6039	0.2625	0.8637	0.04
Mof_H 	H 	0.5947	0.2336	0.8803	0.038
Mof_C 	C 	0.6694	0.2588	0.7164	-0.115
Mof_H 	H 	0.6426	0.2375	0.7211	0.072
Mof_C 	C 	0.592	0.3079	0.884	-0.108
Mof_C 	C 	0.6767	0.2981	0.7491	0.051
Mof_O 	O 	0.44965	0.6488	0.94746	-0.384
Mof_O 	O 	0.4512	0.7311	0.9486	-0.39
Mof_C 	C 	0.3553	0.697	0.794	0.034
Mof_C 	C 	0.438	0.69	0.9306	0.373
Mof_C 	C 	0.3936	0.6491	0.86	0.033
Mof_H 	H 	0.402	0.6185	0.8736	0.039
Mof_C 	C 	0.3709	0.7409	0.8194	-0.105
Mof_H 	H 	0.364	0.7719	0.8059	0.073
Mof_C 	C 	0.3663	0.6509	0.815	-0.101
Mof_H 	H 	0.3559	0.6217	0.7997	0.068
Mof_C 	C 	0.3961	0.7375	0.8637	0.038
Mof_H 	H 	0.4053	0.7664	0.8803	0.04
Mof_C 	C 	0.3306	0.7412	0.7164	-0.117
Mof_H 	H 	0.3574	0.7625	0.7211	0.073
Mof_C 	C 	0.408	0.6921	0.884	-0.107
Mof_C 	C 	0.3233	0.7019	0.7491	0.051
Mof_O 	O 	0.55035	0.6488	0.05254	-0.428
Mof_O 	O 	0.5488	0.7311	0.0514	-0.434
Mof_C 	C 	0.6447	0.697	0.206	0.041
Mof_C 	C 	0.562	0.69	0.0694	0.383
Mof_C 	C 	0.6064	0.6491	0.14	0.043
Mof_H 	H 	0.598	0.6185	0.1264	0.027
Mof_C 	C 	0.6291	0.7409	0.1806	-0.117
Mof_H 	H 	0.636	0.7719	0.1941	0.075
Mof_C 	C 	0.6337	0.6509	0.185	-0.112
Mof_H 	H 	0.6441	0.6217	0.2003	0.069
Mof_C 	C 	0.6039	0.7375	0.1363	0.05
Mof_H 	H 	0.5947	0.7664	0.1197	0.028
Mof_C 	C 	0.6694	0.7412	0.2836	-0.116
Mof_H 	H 	0.6426	0.7625	0.2789	0.073
Mof_C 	C 	0.592	0.6921	0.116	-0.128
Mof_C 	C 	0.6767	0.7019	0.2509	0.049
Mof_Cu	Cu	-2.75791e-33	0.5	0.64413	0.879
Mof_Cu	Cu	7.95019e-33	0.5	0.7407	0.886
Mof_Cu	Cu	1.16803e-32	0.5	0.35587	0.879
Mof_Cu	Cu	8.73173e-33	0.5	0.2593	0.884
Mof_Cu	Cu	0.64413	5.17301e-33	0.5	0.879
Mof_Cu	Cu	0.7407	5.17301e-33	0.5	0.886
Mof_Cu	Cu	0.35587	5.17301e-33	0.5	0.879
Mof_Cu	Cu	0.2593	5.17301e-33	0.5	0.884
Mof_Cu	Cu	0.5	0.64413	-0	0.879
Mof_Cu	Cu	0.5	0.7407	-0	0.886
Mof_Cu	Cu	0.5	0.35587	-0	0.879
Mof_Cu	Cu	0.5	0.2593	-0	0.884
_end
