data_functionalizedCrystal
_audit_creation_method	'EQeq! by Chris Wilmer'
_symmetry_space_group_name_H-M	'P1'
_symmetry_Int_Tables_number	1
_symmetry_cell_setting	triclinic
loop_
_symmetry_equiv_pos_as_xyz
  x,y,z
_cell_length_a	10.7575
_cell_length_b	15.318
_cell_length_c	29.3906
_cell_angle_alpha	81.112
_cell_angle_beta	87.711
_cell_angle_gamma	84.536
loop_
_atom_site_label
_atom_site_type_symbol
_atom_site_fract_x
_atom_site_fract_y
_atom_site_fract_z
_atom_site_charge
Mof_Zn	Zn	0.27361	0.64965	0.6918	1.22
Mof_Zn	Zn	0.30113	0.87076	0.17906	1.22
Mof_Zn	Zn	0.20491	0.1431	0.19025	1.223
Mof_Zn	Zn	0.23574	0.39167	0.68358	1.218
Mof_N 	N 	0.1901	0.09368	0.26199	-0.232
Mof_N 	N 	0.2456	0.60058	0.76373	-0.23
Mof_N 	N 	0.2872	0.70377	0.61896	-0.212
Mof_N 	N 	0.2761	0.81712	0.25016	-0.225
Mof_N 	N 	0.2169	0.3334	0.75476	-0.222
Mof_N 	N 	0.26	0.44175	0.61158	-0.232
Mof_O 	O 	0.3099	0.26608	0.20332	-0.354
Mof_O 	O 	0.1899	0.79567	0.6977	-0.364
Mof_O 	O 	0.4108	0.7512	0.16935	-0.414
Mof_O 	O 	0.41003	0.41831	0.69598	-0.489
Mof_N 	N 	0.2563	0.10749	0.95382	-0.141
Mof_O 	O 	0.3672	0.06957	0.18156	-0.512
Mof_O 	O 	0.05136	0.08478	0.17797	-0.469
Mof_O 	O 	0.148	0.28671	0.66787	-0.438
Mof_O 	O 	0.42351	0.56508	0.68172	-0.496
Mof_O 	O 	0.209	0.74303	0.16594	-0.383
Mof_O 	O 	0.3481	0.24194	0.67309	-0.347
Mof_O 	O 	0.0814	0.47568	0.69245	-0.499
Mof_O 	O 	0.1072	0.26647	0.19679	-0.413
Mof_O 	O 	0.09825	0.62212	0.6811	-0.494
Mof_O 	O 	0.1314	0.94335	0.1875	-0.502
Mof_N 	N 	0.2677	0.14849	0.90886	-0.137
Mof_N 	N 	0.2322	0.19785	0.11788	-0.213
Mof_N 	N 	0.2987	0.92099	0.10685	-0.231
Mof_N 	N 	0.2867	0.61496	0.45531	-0.142
Mof_N 	N 	0.2148	0.8768	0.46307	-0.143
Mof_C 	C 	0.1847	0.2392	0.84347	-0.024
Mof_C 	C 	0.3041	0.7836	0.52647	-0.038
Mof_N 	N 	0.3085	0.64938	0.40952	-0.138
Mof_O 	O 	0.3879	0.74778	0.70463	-0.394
Mof_C 	C 	0.1567	0.019	0.35455	-0.016
Mof_O 	O 	0.45327	0.93063	0.1917	-0.481
Mof_C 	C 	0.1842	0.5281	0.85444	-0.03
Mof_C 	C 	0.3028	0.246	0.82284	-0.085
Mof_H 	H 	0.3732	0.2187	0.8384	0.077
Mof_C 	C 	0.1389	0.7567	0.31031	-0.103
Mof_H 	H 	0.0582	0.7438	0.3197	0.079
Mof_C 	C 	0.1686	0.1883	0.89007	0.235
Mof_C 	C 	0.1632	0.7959	0.26614	0.066
Mof_H 	H 	0.0971	0.8085	0.246	0.009
Mof_C 	C 	0.3179	0.707	0.16803	0.353
Mof_C 	C 	0.2368	0.7363	0.34121	-0.022
Mof_N 	N 	0.1921	0.3755	0.9611	-0.142
Mof_N 	N 	0.2281	0.9169	0.41711	-0.134
Mof_C 	C 	0.3128	0.8273	0.47765	0.24
Mof_C 	C 	0.8116	0.0243	0.19312	0.029
Mof_H 	H 	0.8183	0.0842	0.1938	0.036
Mof_C 	C 	0.2144	0.6931	0.38896	0.23
Mof_C 	C 	0.9155	0.9713	0.19096	-0.264
Mof_H 	H 	0.9083	0.9108	0.193	0.133
Mof_C 	C 	0.3706	0.79775	0.27955	0.053
Mof_H 	H 	0.4501	0.8117	0.2691	0.023
Mof_C 	C 	0.6852	0.5315	0.69163	0.013
Mof_C 	C 	0.8199	0.5125	0.69236	0.059
Mof_H 	H 	0.8521	0.4536	0.6937	0.024
Mof_C 	C 	0.3148	0.2933	0.77937	0.053
Mof_H 	H 	0.3946	0.2978	0.7663	0.025
Mof_C 	C 	0.3368	0.9024	0.69681	-0.208
Mof_H 	H 	0.4195	0.9106	0.7018	0.117
Mof_N 	N 	0.2183	0.4152	0.91632	-0.138
Mof_C 	C 	0.5827	0.0466	0.19139	-0.291
Mof_H 	H 	0.5864	0.107	0.1911	0.142
Mof_C 	C 	0.2846	0.3228	0.97832	0.245
Mof_C 	C 	0.355	0.7579	0.32472	-0.088
Mof_H 	H 	0.423	0.7456	0.344	0.074
Mof_C 	C 	0.4056	0.3047	0.95345	-0.754
Mof_H 	H 	0.3917	0.3106	0.921	0.269
Mof_H 	H 	0.4406	0.2456	0.9644	0.254
Mof_H 	H 	0.4625	0.3464	0.9589	0.248
Mof_C 	C 	0.1525	0.487	0.90219	0.234
Mof_C 	C 	0.0826	0.2817	0.81818	-0.097
Mof_H 	H 	0.0018	0.2793	0.8306	0.078
Mof_C 	C 	0.3008	0.8107	0.70023	0.342
Mof_C 	C 	0.1406	0.9771	0.40309	0.211
Mof_C 	C 	0.3459	0.2081	0.09906	0.044
Mof_H 	H 	0.4149	0.1886	0.1172	0.012
Mof_C 	C 	0.1034	0.3267	0.77488	0.06
Mof_H 	H 	0.0346	0.3543	0.7585	0.014
Mof_C 	C 	0.6882	0.994	0.19451	0.047
Mof_H 	H 	0.6823	0.9331	0.1978	0.031
Mof_C 	C 	0.2655	0.2788	0.02624	-0.041
Mof_C 	C 	0.0765	0.0882	0.33355	-0.09
Mof_H 	H 	0.0091	0.1112	0.3502	0.067
Mof_C 	C 	0.2745	0.4866	0.82856	-0.076
Mof_H 	H 	0.3164	0.433	0.8411	0.061
Mof_C 	C 	0.9001	0.5736	0.69118	-0.29
Mof_H 	H 	0.8678	0.6318	0.692	0.145
Mof_C 	C 	0.0426	0.0017	0.18548	0.462
Mof_C 	C 	0.203	0.3063	0.1991	0.342
Mof_C 	C 	0.6074	0.4687	0.69246	-0.233
Mof_C 	C 	0.2568	0.973	0.68702	0.012
Mof_H 	H 	0.1742	0.9635	0.6829	0.038
Mof_C 	C 	0.3045	0.9898	0.01242	-0.05
Mof_C 	C 	0.2065	0.5424	0.54349	-0.07
Mof_H 	H 	0.1574	0.5923	0.5301	0.051
Mof_C 	C 	0.3026	0.524	0.78443	0.044
Mof_H 	H 	0.3644	0.4946	0.7679	0.003
Mof_C 	C 	0.0373	0.5551	0.68861	0.477
Mof_C 	C 	0.293	0.4997	0.51708	-0.046
Mof_C 	C 	0.3107	0.5319	0.46731	0.245
Mof_C 	C 	0.3662	0.2461	0.05419	-0.078
Mof_H 	H 	0.4474	0.25	0.0425	0.042
Mof_C 	C 	0.1351	0.228	0.09088	0.037
Mof_H 	H 	0.055	0.2212	0.1032	0.009
Mof_C 	C 	0.2371	0.2264	0.67032	0.356
Mof_C 	C 	0.4082	0.741	0.54997	-0.075
Mof_H 	H 	0.486	0.7381	0.535	0.039
Mof_C 	C 	0.1916	0.7842	0.55093	-0.07
Mof_H 	H 	0.1193	0.812	0.5368	0.041
Mof_C 	C 	0.4689	0.4862	0.68973	0.451
Mof_C 	C 	0.2288	0.0286	0.04372	-0.071
Mof_H 	H 	0.1766	0.0794	0.0338	0.056
Mof_C 	C 	0.2873	0.0639	0.68221	0.026
Mof_H 	H 	0.37	0.0739	0.6859	0.035
Mof_C 	C 	0.0966	0.1233	0.28782	0.059
Mof_H 	H 	0.0416	0.17	0.2746	0.022
Mof_C 	C 	0.1864	0.744	0.59597	0.035
Mof_H 	H 	0.1093	0.7446	0.6114	0.016
Mof_C 	C 	0.4587	0.0128	0.18828	0.47
Mof_C 	C 	0.2574	0.554	0.17994	0.03
Mof_H 	H 	0.1751	0.5786	0.1812	0.031
Mof_C 	C 	0.3956	0.7031	0.59548	0.042
Mof_H 	H 	0.4666	0.6756	0.6105	0.012
Mof_C 	C 	0.4314	0.8118	0.45039	-0.75
Mof_H 	H 	0.4168	0.8314	0.4183	0.266
Mof_H 	H 	0.4588	0.7496	0.4551	0.255
Mof_H 	H 	0.4946	0.8443	0.4603	0.247
Mof_C 	C 	0.1474	0.2685	0.04601	-0.075
Mof_H 	H 	0.0768	0.289	0.0289	0.044
Mof_C 	C 	0.0856	0.7028	0.41014	-0.731
Mof_H 	H 	0.037	0.6586	0.4017	0.25
Mof_H 	H 	0.0463	0.7608	0.3993	0.249
Mof_H 	H 	0.0909	0.6951	0.4431	0.253
Mof_C 	C 	0.2773	0.4578	0.18673	0.01
Mof_H 	H 	0.359	0.432	0.1855	0.043
Mof_C 	C 	0.3087	0.0291	0.9631	0.243
Mof_C 	C 	0.1274	0.608	0.83328	-0.084
Mof_H 	H 	0.0672	0.6397	0.8494	0.066
Mof_C 	C 	0.187	0.4051	0.19446	-0.205
Mof_H 	H 	0.1062	0.4316	0.1973	0.113
Mof_C 	C 	0.3441	0.6092	0.17226	-0.225
Mof_H 	H 	0.4265	0.586	0.1693	0.116
Mof_C 	C 	0.1591	0.641	0.78866	0.055
Mof_H 	H 	0.118	0.6944	0.7752	0.022
Mof_C 	C 	0.2552	0.9886	0.32751	-0.091
Mof_H 	H 	0.3122	0.9424	0.3399	0.065
Mof_C 	C 	0.2684	0.0268	0.28254	0.058
Mof_H 	H 	0.3353	0.0053	0.2652	-0.001
Mof_C 	C 	0.0538	0.5315	0.92972	-0.732
Mof_H 	H 	0.0791	0.5875	0.9349	0.239
Mof_H 	H 	0.0413	0.4948	0.9588	0.245
Mof_H 	H 	0.9772	0.5411	0.9133	0.243
Mof_C 	C 	0.2294	0.9934	0.0895	0.037
Mof_H 	H 	0.1777	0.0223	0.1097	0.003
Mof_C 	C 	0.0421	0.1862	0.91242	-0.729
Mof_H 	H 	0.9949	0.1471	0.8989	0.246
Mof_H 	H 	0.9999	0.2449	0.908	0.247
Mof_H 	H 	0.0498	0.1654	0.9448	0.255
Mof_C 	C 	0.2055	0.1334	0.67288	-0.223
Mof_H 	H 	0.1236	0.1238	0.6676	0.112
Mof_C 	C 	0.1921	0.5116	0.58963	0.037
Mof_H 	H 	0.1314	0.5413	0.6065	0.003
Mof_C 	C 	0.3717	0.8823	0.07702	0.035
Mof_H 	H 	0.4225	0.8315	0.088	0.003
Mof_C 	C 	0.0323	0.0077	0.43133	-0.684
Mof_H 	H 	0.0402	0.0675	0.4361	0.225
Mof_H 	H 	0.0304	0.9698	0.4606	0.228
Mof_H 	H 	0.9564	0.0056	0.4156	0.225
Mof_C 	C 	0.3532	0.469	0.4349	-0.769
Mof_H 	H 	0.2839	0.4388	0.4278	0.255
Mof_H 	H 	0.4171	0.4264	0.4489	0.255
Mof_H 	H 	0.3861	0.5011	0.4071	0.273
Mof_C 	C 	0.3736	0.9783	0.92798	-0.769
Mof_H 	H 	0.3191	0.9376	0.9196	0.256
Mof_H 	H 	0.4482	0.9459	0.9407	0.257
Mof_H 	H 	0.395	0.0188	0.9012	0.274
Mof_C 	C 	0.3761	0.9137	0.03045	-0.074
Mof_H 	H 	0.4279	0.8832	0.011	0.036
Mof_C 	C 	0.3641	0.4273	0.54006	-0.077
Mof_H 	H 	0.4249	0.396	0.524	0.041
Mof_C 	C 	0.3448	0.4016	0.58655	0.043
Mof_H 	H 	0.3945	0.3531	0.6011	0.005
Mof_H 	H 	0.655	0.594	0.6912	0.04
Mof_H 	H 	0.638	0.406	0.6945	0.119
Mof_Zn	Zn	0.72639	0.35035	0.3082	1.221
Mof_Zn	Zn	0.69887	0.12924	0.82094	1.221
Mof_Zn	Zn	0.79509	0.8569	0.80975	1.224
Mof_Zn	Zn	0.76426	0.60833	0.31642	1.219
Mof_N 	N 	0.8099	0.90632	0.73801	-0.232
Mof_N 	N 	0.7544	0.39942	0.23627	-0.23
Mof_N 	N 	0.7128	0.29623	0.38104	-0.212
Mof_N 	N 	0.7239	0.18288	0.74984	-0.225
Mof_N 	N 	0.7831	0.6666	0.24524	-0.222
Mof_N 	N 	0.74	0.55825	0.38842	-0.232
Mof_O 	O 	0.6901	0.73392	0.79668	-0.354
Mof_O 	O 	0.8101	0.20433	0.3023	-0.364
Mof_O 	O 	0.5892	0.2488	0.83065	-0.414
Mof_O 	O 	0.58997	0.58169	0.30402	-0.489
Mof_N 	N 	0.7437	0.89251	0.04618	-0.141
Mof_O 	O 	0.6328	0.93043	0.81844	-0.512
Mof_O 	O 	0.94864	0.91522	0.82203	-0.469
Mof_O 	O 	0.852	0.71329	0.33213	-0.438
Mof_O 	O 	0.57649	0.43492	0.31828	-0.496
Mof_O 	O 	0.791	0.25697	0.83406	-0.383
Mof_O 	O 	0.6519	0.75806	0.32691	-0.347
Mof_O 	O 	0.9186	0.52432	0.30755	-0.499
Mof_O 	O 	0.8928	0.73353	0.80321	-0.413
Mof_O 	O 	0.90175	0.37788	0.3189	-0.494
Mof_O 	O 	0.8686	0.05665	0.8125	-0.502
Mof_N 	N 	0.7323	0.85151	0.09114	-0.137
Mof_N 	N 	0.7678	0.80215	0.88212	-0.213
Mof_N 	N 	0.7013	0.07901	0.89315	-0.231
Mof_N 	N 	0.7133	0.38504	0.54469	-0.142
Mof_N 	N 	0.7852	0.1232	0.53693	-0.143
Mof_C 	C 	0.8153	0.7608	0.15653	-0.024
Mof_C 	C 	0.6959	0.2164	0.47353	-0.038
Mof_N 	N 	0.6915	0.35062	0.59048	-0.138
Mof_O 	O 	0.6121	0.25222	0.29537	-0.394
Mof_C 	C 	0.8433	0.981	0.64545	-0.016
Mof_O 	O 	0.54673	0.06937	0.8083	-0.481
Mof_C 	C 	0.8158	0.4719	0.14556	-0.03
Mof_C 	C 	0.6972	0.754	0.17716	-0.085
Mof_H 	H 	0.6268	0.7813	0.1616	0.077
Mof_C 	C 	0.8611	0.2433	0.68969	-0.103
Mof_H 	H 	0.9418	0.2562	0.6803	0.079
Mof_C 	C 	0.8314	0.8117	0.10993	0.235
Mof_C 	C 	0.8368	0.2041	0.73386	0.066
Mof_H 	H 	0.9029	0.1915	0.754	0.009
Mof_C 	C 	0.6821	0.293	0.83197	0.353
Mof_C 	C 	0.7632	0.2637	0.65879	-0.022
Mof_N 	N 	0.8079	0.6245	0.0389	-0.142
Mof_N 	N 	0.7719	0.0831	0.58289	-0.134
Mof_C 	C 	0.6872	0.1727	0.52235	0.24
Mof_C 	C 	0.1884	0.9757	0.80688	0.029
Mof_H 	H 	0.1817	0.9158	0.8062	0.036
Mof_C 	C 	0.7856	0.3069	0.61104	0.23
Mof_C 	C 	0.0845	0.0287	0.80904	-0.264
Mof_H 	H 	0.0917	0.0892	0.807	0.133
Mof_C 	C 	0.6294	0.20225	0.72045	0.053
Mof_H 	H 	0.5499	0.1883	0.7309	0.023
Mof_C 	C 	0.3148	0.4685	0.30837	0.013
Mof_C 	C 	0.1801	0.4875	0.30764	0.059
Mof_H 	H 	0.1479	0.5464	0.3063	0.024
Mof_C 	C 	0.6852	0.7067	0.22063	0.053
Mof_H 	H 	0.6054	0.7022	0.2337	0.025
Mof_C 	C 	0.6632	0.0976	0.30319	-0.208
Mof_H 	H 	0.5805	0.0894	0.2982	0.117
Mof_N 	N 	0.7817	0.5848	0.08368	-0.138
Mof_C 	C 	0.4173	0.9534	0.80861	-0.291
Mof_H 	H 	0.4136	0.893	0.8089	0.142
Mof_C 	C 	0.7154	0.6772	0.02168	0.245
Mof_C 	C 	0.645	0.2421	0.67528	-0.088
Mof_H 	H 	0.577	0.2544	0.656	0.074
Mof_C 	C 	0.5944	0.6953	0.04655	-0.754
Mof_H 	H 	0.6083	0.6894	0.079	0.269
Mof_H 	H 	0.5594	0.7544	0.0356	0.254
Mof_H 	H 	0.5375	0.6536	0.0411	0.248
Mof_C 	C 	0.8475	0.513	0.09781	0.234
Mof_C 	C 	0.9174	0.7183	0.18182	-0.097
Mof_H 	H 	0.9982	0.7207	0.1694	0.078
Mof_C 	C 	0.6992	0.1893	0.29977	0.342
Mof_C 	C 	0.8594	0.0229	0.59691	0.211
Mof_C 	C 	0.6541	0.7919	0.90094	0.044
Mof_H 	H 	0.5851	0.8114	0.8828	0.012
Mof_C 	C 	0.8966	0.6733	0.22512	0.06
Mof_H 	H 	0.9654	0.6457	0.2415	0.014
Mof_C 	C 	0.3118	0.006	0.80549	0.047
Mof_H 	H 	0.3177	0.0669	0.8022	0.031
Mof_C 	C 	0.7345	0.7212	0.97376	-0.041
Mof_C 	C 	0.9235	0.9118	0.66645	-0.09
Mof_H 	H 	0.9909	0.8888	0.6498	0.067
Mof_C 	C 	0.7255	0.5134	0.17144	-0.076
Mof_H 	H 	0.6836	0.567	0.1589	0.061
Mof_C 	C 	0.0999	0.4264	0.30882	-0.29
Mof_H 	H 	0.1322	0.3682	0.308	0.145
Mof_C 	C 	0.9574	0.9983	0.81452	0.462
Mof_C 	C 	0.797	0.6937	0.8009	0.342
Mof_C 	C 	0.3926	0.5313	0.30754	-0.233
Mof_C 	C 	0.7432	0.027	0.31298	0.012
Mof_H 	H 	0.8258	0.0365	0.3171	0.038
Mof_C 	C 	0.6955	0.0102	0.98758	-0.05
Mof_C 	C 	0.7935	0.4576	0.45651	-0.07
Mof_H 	H 	0.8426	0.4077	0.4699	0.051
Mof_C 	C 	0.6974	0.476	0.21557	0.044
Mof_H 	H 	0.6356	0.5054	0.2321	0.003
Mof_C 	C 	0.9627	0.4449	0.31139	0.477
Mof_C 	C 	0.707	0.5003	0.48292	-0.046
Mof_C 	C 	0.6893	0.4681	0.53269	0.245
Mof_C 	C 	0.6338	0.7539	0.94581	-0.078
Mof_H 	H 	0.5526	0.75	0.9575	0.042
Mof_C 	C 	0.8649	0.772	0.90912	0.037
Mof_H 	H 	0.945	0.7788	0.8968	0.009
Mof_C 	C 	0.7629	0.7736	0.32968	0.356
Mof_C 	C 	0.5918	0.259	0.45003	-0.075
Mof_H 	H 	0.514	0.2619	0.465	0.039
Mof_C 	C 	0.8084	0.2158	0.44907	-0.07
Mof_H 	H 	0.8807	0.188	0.4632	0.041
Mof_C 	C 	0.5311	0.5138	0.31027	0.451
Mof_C 	C 	0.7712	0.9714	0.95628	-0.071
Mof_H 	H 	0.8234	0.9206	0.9662	0.056
Mof_C 	C 	0.7127	0.9361	0.31779	0.026
Mof_H 	H 	0.63	0.9261	0.3141	0.035
Mof_C 	C 	0.9034	0.8767	0.71218	0.059
Mof_H 	H 	0.9584	0.83	0.7254	0.022
Mof_C 	C 	0.8136	0.256	0.40403	0.035
Mof_H 	H 	0.8907	0.2554	0.3886	0.016
Mof_C 	C 	0.5413	0.9872	0.81172	0.47
Mof_C 	C 	0.7426	0.446	0.82006	0.03
Mof_H 	H 	0.8249	0.4214	0.8188	0.031
Mof_C 	C 	0.6044	0.2969	0.40452	0.042
Mof_H 	H 	0.5334	0.3244	0.3895	0.012
Mof_C 	C 	0.5686	0.1882	0.54961	-0.75
Mof_H 	H 	0.5832	0.1686	0.5817	0.266
Mof_H 	H 	0.5412	0.2504	0.5449	0.255
Mof_H 	H 	0.5054	0.1557	0.5397	0.247
Mof_C 	C 	0.8526	0.7315	0.95399	-0.075
Mof_H 	H 	0.9232	0.711	0.9711	0.044
Mof_C 	C 	0.9144	0.2972	0.58986	-0.731
Mof_H 	H 	0.963	0.3414	0.5983	0.25
Mof_H 	H 	0.9537	0.2392	0.6007	0.249
Mof_H 	H 	0.9091	0.3049	0.5569	0.253
Mof_C 	C 	0.7227	0.5422	0.81327	0.01
Mof_H 	H 	0.641	0.568	0.8145	0.043
Mof_C 	C 	0.6913	0.9709	0.0369	0.243
Mof_C 	C 	0.8726	0.392	0.16672	-0.084
Mof_H 	H 	0.9328	0.3603	0.1506	0.066
Mof_C 	C 	0.813	0.5949	0.80554	-0.205
Mof_H 	H 	0.8938	0.5684	0.8027	0.113
Mof_C 	C 	0.6559	0.3908	0.82774	-0.225
Mof_H 	H 	0.5735	0.414	0.8307	0.116
Mof_C 	C 	0.8409	0.359	0.21134	0.055
Mof_H 	H 	0.882	0.3056	0.2248	0.022
Mof_C 	C 	0.7448	0.0114	0.67249	-0.091
Mof_H 	H 	0.6878	0.0576	0.6601	0.065
Mof_C 	C 	0.7316	0.9732	0.71746	0.058
Mof_H 	H 	0.6647	0.9947	0.7348	-0.001
Mof_C 	C 	0.9462	0.4685	0.07028	-0.732
Mof_H 	H 	0.9209	0.4125	0.0651	0.239
Mof_H 	H 	0.9587	0.5052	0.0412	0.245
Mof_H 	H 	0.0228	0.4589	0.0867	0.243
Mof_C 	C 	0.7706	0.0066	0.9105	0.037
Mof_H 	H 	0.8223	0.9777	0.8903	0.003
Mof_C 	C 	0.9579	0.8138	0.08758	-0.729
Mof_H 	H 	0.0051	0.8529	0.1011	0.246
Mof_H 	H 	0.0001	0.7551	0.092	0.247
Mof_H 	H 	0.9502	0.8346	0.0552	0.255
Mof_C 	C 	0.7945	0.8666	0.32712	-0.223
Mof_H 	H 	0.8764	0.8762	0.3324	0.112
Mof_C 	C 	0.8079	0.4884	0.41037	0.037
Mof_H 	H 	0.8686	0.4587	0.3935	0.003
Mof_C 	C 	0.6283	0.1177	0.92298	0.035
Mof_H 	H 	0.5775	0.1685	0.912	0.003
Mof_C 	C 	0.9677	0.9923	0.56867	-0.684
Mof_H 	H 	0.9598	0.9325	0.5639	0.225
Mof_H 	H 	0.9696	0.0302	0.5394	0.228
Mof_H 	H 	0.0436	0.9944	0.5844	0.225
Mof_C 	C 	0.6468	0.531	0.5651	-0.769
Mof_H 	H 	0.7161	0.5612	0.5722	0.255
Mof_H 	H 	0.5829	0.5736	0.5511	0.255
Mof_H 	H 	0.6139	0.4989	0.5929	0.273
Mof_C 	C 	0.6264	0.0217	0.07202	-0.769
Mof_H 	H 	0.6809	0.0624	0.0804	0.256
Mof_H 	H 	0.5518	0.0541	0.0593	0.257
Mof_H 	H 	0.605	0.9812	0.0988	0.274
Mof_C 	C 	0.6239	0.0863	0.96955	-0.074
Mof_H 	H 	0.5721	0.1168	0.989	0.036
Mof_C 	C 	0.6359	0.5727	0.45994	-0.077
Mof_H 	H 	0.5751	0.604	0.476	0.041
Mof_C 	C 	0.6552	0.5984	0.41345	0.043
Mof_H 	H 	0.6055	0.6469	0.3989	0.005
Mof_H 	H 	0.345	0.406	0.3088	0.04
Mof_H 	H 	0.362	0.594	0.3055	0.119
_end
