data_functionalizedCrystal
_audit_creation_method	'EQeq! by Chris Wilmer'
_symmetry_space_group_name_H-M	'P1'
_symmetry_Int_Tables_number	1
_symmetry_cell_setting	triclinic
loop_
_symmetry_equiv_pos_as_xyz
  x,y,z
_cell_length_a	19.3184
_cell_length_b	19.3184
_cell_length_c	19.3184
_cell_angle_alpha	90
_cell_angle_beta	90
_cell_angle_gamma	90
loop_
_atom_site_label
_atom_site_type_symbol
_atom_site_fract_x
_atom_site_fract_y
_atom_site_fract_z
_atom_site_charge
Mof_N 	N 	0.45636	0.5328	0.0965	-0.237
Mof_C 	C 	0.3124	0.5586	0.2149	0.004
Mof_C 	C 	0.252	0.5604	0.1799	-0.047
Mof_H 	H 	0.2527	0.5623	0.1308	0.034
Mof_C 	C 	0.1869	0.5597	0.2154	-0.071
Mof_H 	H 	0.1445	0.5599	0.1905	0.04
Mof_C 	C 	0.3884	0.5275	0.1134	-0.016
Mof_H 	H 	0.3536	0.5073	0.0851	0.009
Mof_C 	C 	0.4858	0.5625	0.1493	0.07
Mof_H 	H 	0.5339	0.5722	0.1524	-0.005
Mof_C 	C 	0.4385	0.5782	0.1998	-0.121
Mof_H 	H 	0.4475	0.6007	0.2426	0.067
Mof_C 	C 	0.3778	0.5557	0.177	0.025
Mof_N 	N 	0.04364	0.9672	0.0965	-0.215
Mof_C 	C 	0.1876	0.9414	0.2149	0.027
Mof_C 	C 	0.248	0.9396	0.1799	-0.062
Mof_H 	H 	0.2473	0.9377	0.1308	0.046
Mof_C 	C 	0.3131	0.9403	0.2154	-0.048
Mof_H 	H 	0.3555	0.9401	0.1905	0.045
Mof_C 	C 	0.1116	0.9725	0.1134	-0.001
Mof_H 	H 	0.1464	0.9927	0.0851	0.019
Mof_C 	C 	0.0142	0.9375	0.1493	-0.042
Mof_H 	H 	0.9661	0.9278	0.1524	0.069
Mof_C 	C 	0.0615	0.9218	0.1998	-0.056
Mof_H 	H 	0.0525	0.8993	0.2426	0.037
Mof_C 	C 	0.1222	0.9443	0.177	-0.005
Mof_N 	N 	0.04364	0.5328	0.4035	-0.222
Mof_C 	C 	0.1876	0.5586	0.2851	0.028
Mof_C 	C 	0.248	0.5604	0.3201	-0.068
Mof_H 	H 	0.2473	0.5623	0.3692	0.05
Mof_C 	C 	0.3131	0.5597	0.2846	-0.047
Mof_H 	H 	0.3555	0.5599	0.3095	0.042
Mof_C 	C 	0.1116	0.5275	0.3866	-0.002
Mof_H 	H 	0.1464	0.5073	0.4149	0.016
Mof_C 	C 	0.0142	0.5625	0.3507	-0.054
Mof_H 	H 	0.9661	0.5722	0.3476	0.068
Mof_C 	C 	0.0615	0.5782	0.3002	-0.054
Mof_H 	H 	0.0525	0.6007	0.2574	0.03
Mof_C 	C 	0.1222	0.5557	0.323	-0.012
Mof_N 	N 	0.45636	0.9672	0.4035	-0.219
Mof_C 	C 	0.3124	0.9414	0.2851	0.011
Mof_C 	C 	0.252	0.9396	0.3201	-0.047
Mof_H 	H 	0.2527	0.9377	0.3692	0.047
Mof_C 	C 	0.1869	0.9403	0.2846	-0.062
Mof_H 	H 	0.1445	0.9401	0.3095	0.049
Mof_C 	C 	0.3884	0.9725	0.3866	-0.01
Mof_H 	H 	0.3536	0.9927	0.4149	0.037
Mof_C 	C 	0.4858	0.9375	0.3507	0.075
Mof_H 	H 	0.5339	0.9278	0.3476	0
Mof_C 	C 	0.4385	0.9218	0.3002	-0.118
Mof_H 	H 	0.4475	0.8993	0.2574	0.068
Mof_C 	C 	0.3778	0.9443	0.323	0.03
Mof_N 	N 	0.0965	0.45636	0.5328	-0.238
Mof_C 	C 	0.2149	0.3124	0.5586	0.003
Mof_C 	C 	0.1799	0.252	0.5604	-0.048
Mof_H 	H 	0.1308	0.2527	0.5623	0.033
Mof_C 	C 	0.2154	0.1869	0.5597	-0.071
Mof_H 	H 	0.1905	0.1445	0.5599	0.04
Mof_C 	C 	0.1134	0.3884	0.5275	-0.016
Mof_H 	H 	0.0851	0.3536	0.5073	0.009
Mof_C 	C 	0.1493	0.4858	0.5625	0.07
Mof_H 	H 	0.1524	0.5339	0.5722	-0.005
Mof_C 	C 	0.1998	0.4385	0.5782	-0.121
Mof_H 	H 	0.2426	0.4475	0.6007	0.067
Mof_C 	C 	0.177	0.3778	0.5557	0.025
Mof_N 	N 	0.0965	0.04364	0.9672	-0.215
Mof_C 	C 	0.2149	0.1876	0.9414	0.027
Mof_C 	C 	0.1799	0.248	0.9396	-0.062
Mof_H 	H 	0.1308	0.2473	0.9377	0.046
Mof_C 	C 	0.2154	0.3131	0.9403	-0.048
Mof_H 	H 	0.1905	0.3555	0.9401	0.045
Mof_C 	C 	0.1134	0.1116	0.9725	-0.001
Mof_H 	H 	0.0851	0.1464	0.9927	0.019
Mof_C 	C 	0.1493	0.0142	0.9375	-0.042
Mof_H 	H 	0.1524	0.9661	0.9278	0.069
Mof_C 	C 	0.1998	0.0615	0.9218	-0.056
Mof_H 	H 	0.2426	0.0525	0.8993	0.037
Mof_C 	C 	0.177	0.1222	0.9443	-0.005
Mof_N 	N 	0.4035	0.04364	0.5328	-0.222
Mof_C 	C 	0.2851	0.1876	0.5586	0.028
Mof_C 	C 	0.3201	0.248	0.5604	-0.068
Mof_H 	H 	0.3692	0.2473	0.5623	0.05
Mof_C 	C 	0.2846	0.3131	0.5597	-0.047
Mof_H 	H 	0.3095	0.3555	0.5599	0.042
Mof_C 	C 	0.3866	0.1116	0.5275	-0.002
Mof_H 	H 	0.4149	0.1464	0.5073	0.016
Mof_C 	C 	0.3507	0.0142	0.5625	-0.054
Mof_H 	H 	0.3476	0.9661	0.5722	0.068
Mof_C 	C 	0.3002	0.0615	0.5782	-0.054
Mof_H 	H 	0.2574	0.0525	0.6007	0.03
Mof_C 	C 	0.323	0.1222	0.5557	-0.012
Mof_N 	N 	0.4035	0.45636	0.9672	-0.219
Mof_C 	C 	0.2851	0.3124	0.9414	0.011
Mof_C 	C 	0.3201	0.252	0.9396	-0.047
Mof_H 	H 	0.3692	0.2527	0.9377	0.047
Mof_C 	C 	0.2846	0.1869	0.9403	-0.062
Mof_H 	H 	0.3095	0.1445	0.9401	0.049
Mof_C 	C 	0.3866	0.3884	0.9725	-0.01
Mof_H 	H 	0.4149	0.3536	0.9927	0.037
Mof_C 	C 	0.3507	0.4858	0.9375	0.075
Mof_H 	H 	0.3476	0.5339	0.9278	0
Mof_C 	C 	0.3002	0.4385	0.9218	-0.118
Mof_H 	H 	0.2574	0.4475	0.8993	0.068
Mof_C 	C 	0.323	0.3778	0.9443	0.03
Mof_N 	N 	0.5328	0.0965	0.45636	-0.238
Mof_C 	C 	0.5586	0.2149	0.3124	0.003
Mof_C 	C 	0.5604	0.1799	0.252	-0.048
Mof_H 	H 	0.5623	0.1308	0.2527	0.033
Mof_C 	C 	0.5597	0.2154	0.1869	-0.071
Mof_H 	H 	0.5599	0.1905	0.1445	0.04
Mof_C 	C 	0.5275	0.1134	0.3884	-0.016
Mof_H 	H 	0.5073	0.0851	0.3536	0.009
Mof_C 	C 	0.5625	0.1493	0.4858	0.07
Mof_H 	H 	0.5722	0.1524	0.5339	-0.005
Mof_C 	C 	0.5782	0.1998	0.4385	-0.121
Mof_H 	H 	0.6007	0.2426	0.4475	0.067
Mof_C 	C 	0.5557	0.177	0.3778	0.025
Mof_N 	N 	0.9672	0.0965	0.04364	-0.215
Mof_C 	C 	0.9414	0.2149	0.1876	0.027
Mof_C 	C 	0.9396	0.1799	0.248	-0.062
Mof_H 	H 	0.9377	0.1308	0.2473	0.046
Mof_C 	C 	0.9403	0.2154	0.3131	-0.048
Mof_H 	H 	0.9401	0.1905	0.3555	0.045
Mof_C 	C 	0.9725	0.1134	0.1116	-0.001
Mof_H 	H 	0.9927	0.0851	0.1464	0.019
Mof_C 	C 	0.9375	0.1493	0.0142	-0.042
Mof_H 	H 	0.9278	0.1524	0.9661	0.069
Mof_C 	C 	0.9218	0.1998	0.0615	-0.056
Mof_H 	H 	0.8993	0.2426	0.0525	0.037
Mof_C 	C 	0.9443	0.177	0.1222	-0.005
Mof_N 	N 	0.5328	0.4035	0.04364	-0.222
Mof_C 	C 	0.5586	0.2851	0.1876	0.028
Mof_C 	C 	0.5604	0.3201	0.248	-0.068
Mof_H 	H 	0.5623	0.3692	0.2473	0.05
Mof_C 	C 	0.5597	0.2846	0.3131	-0.047
Mof_H 	H 	0.5599	0.3095	0.3555	0.042
Mof_C 	C 	0.5275	0.3866	0.1116	-0.002
Mof_H 	H 	0.5073	0.4149	0.1464	0.016
Mof_C 	C 	0.5625	0.3507	0.0142	-0.054
Mof_H 	H 	0.5722	0.3476	0.9661	0.068
Mof_C 	C 	0.5782	0.3002	0.0615	-0.054
Mof_H 	H 	0.6007	0.2574	0.0525	0.03
Mof_C 	C 	0.5557	0.323	0.1222	-0.012
Mof_N 	N 	0.9672	0.4035	0.45636	-0.219
Mof_C 	C 	0.9414	0.2851	0.3124	0.011
Mof_C 	C 	0.9396	0.3201	0.252	-0.047
Mof_H 	H 	0.9377	0.3692	0.2527	0.047
Mof_C 	C 	0.9403	0.2846	0.1869	-0.062
Mof_H 	H 	0.9401	0.3095	0.1445	0.049
Mof_C 	C 	0.9725	0.3866	0.3884	-0.01
Mof_H 	H 	0.9927	0.4149	0.3536	0.037
Mof_C 	C 	0.9375	0.3507	0.4858	0.075
Mof_H 	H 	0.9278	0.3476	0.5339	0
Mof_C 	C 	0.9218	0.3002	0.4385	-0.118
Mof_H 	H 	0.8993	0.2574	0.4475	0.068
Mof_C 	C 	0.9443	0.323	0.3778	0.03
Mof_N 	N 	0.54364	0.4672	0.9035	-0.221
Mof_C 	C 	0.6876	0.4414	0.7851	0.023
Mof_C 	C 	0.748	0.4396	0.8201	-0.06
Mof_H 	H 	0.7473	0.4377	0.8692	0.058
Mof_C 	C 	0.8131	0.4403	0.7846	-0.037
Mof_H 	H 	0.8555	0.4401	0.8095	0.051
Mof_C 	C 	0.6116	0.4725	0.8866	-0.009
Mof_H 	H 	0.6464	0.4927	0.9149	0.038
Mof_C 	C 	0.5142	0.4375	0.8507	0.068
Mof_H 	H 	0.4661	0.4278	0.8476	-0.002
Mof_C 	C 	0.5615	0.4218	0.8002	-0.116
Mof_H 	H 	0.5525	0.3993	0.7574	0.066
Mof_C 	C 	0.6222	0.4443	0.823	0.024
Mof_N 	N 	0.95636	0.0328	0.9035	-0.233
Mof_C 	C 	0.8124	0.0586	0.7851	-0.001
Mof_C 	C 	0.752	0.0604	0.8201	-0.046
Mof_H 	H 	0.7527	0.0623	0.8692	0.046
Mof_C 	C 	0.6869	0.0597	0.7846	-0.06
Mof_H 	H 	0.6445	0.0599	0.8095	0.047
Mof_C 	C 	0.8884	0.0275	0.8866	-0.024
Mof_H 	H 	0.8536	0.0073	0.9149	0.031
Mof_C 	C 	0.9858	0.0625	0.8507	0.182
Mof_H 	H 	0.0339	0.0722	0.8476	-0.074
Mof_C 	C 	0.9385	0.0782	0.8002	-0.181
Mof_H 	H 	0.9475	0.1007	0.7574	0.097
Mof_C 	C 	0.8778	0.0557	0.823	0.054
Mof_N 	N 	0.95636	0.4672	0.5965	-0.237
Mof_C 	C 	0.8124	0.4414	0.7149	-0.003
Mof_C 	C 	0.752	0.4396	0.6799	-0.04
Mof_H 	H 	0.7527	0.4377	0.6308	0.042
Mof_C 	C 	0.6869	0.4403	0.7154	-0.061
Mof_H 	H 	0.6445	0.4401	0.6905	0.049
Mof_C 	C 	0.8884	0.4725	0.6134	-0.023
Mof_H 	H 	0.8536	0.4927	0.5851	0.031
Mof_C 	C 	0.9858	0.4375	0.6493	0.191
Mof_H 	H 	0.0339	0.4278	0.6524	-0.073
Mof_C 	C 	0.9385	0.4218	0.6998	-0.183
Mof_H 	H 	0.9475	0.3993	0.7426	0.103
Mof_C 	C 	0.8778	0.4443	0.677	0.06
Mof_N 	N 	0.54364	0.0328	0.5965	-0.239
Mof_C 	C 	0.6876	0.0586	0.7149	0.015
Mof_C 	C 	0.748	0.0604	0.6799	-0.06
Mof_H 	H 	0.7473	0.0623	0.6308	0.044
Mof_C 	C 	0.8131	0.0597	0.7154	-0.046
Mof_H 	H 	0.8555	0.0599	0.6905	0.043
Mof_C 	C 	0.6116	0.0275	0.6134	-0.015
Mof_H 	H 	0.6464	0.0073	0.5851	0.011
Mof_C 	C 	0.5142	0.0625	0.6493	0.063
Mof_H 	H 	0.4661	0.0722	0.6524	-0.007
Mof_C 	C 	0.5615	0.0782	0.6998	-0.119
Mof_H 	H 	0.5525	0.1007	0.7426	0.065
Mof_C 	C 	0.6222	0.0557	0.677	0.019
Mof_N 	N 	0.9035	0.54364	0.4672	-0.221
Mof_C 	C 	0.7851	0.6876	0.4414	0.023
Mof_C 	C 	0.8201	0.748	0.4396	-0.06
Mof_H 	H 	0.8692	0.7473	0.4377	0.058
Mof_C 	C 	0.7846	0.8131	0.4403	-0.037
Mof_H 	H 	0.8095	0.8555	0.4401	0.051
Mof_C 	C 	0.8866	0.6116	0.4725	-0.009
Mof_H 	H 	0.9149	0.6464	0.4927	0.038
Mof_C 	C 	0.8507	0.5142	0.4375	0.068
Mof_H 	H 	0.8476	0.4661	0.4278	-0.002
Mof_C 	C 	0.8002	0.5615	0.4218	-0.116
Mof_H 	H 	0.7574	0.5525	0.3993	0.066
Mof_C 	C 	0.823	0.6222	0.4443	0.024
Mof_N 	N 	0.9035	0.95636	0.0328	-0.233
Mof_C 	C 	0.7851	0.8124	0.0586	-0.001
Mof_C 	C 	0.8201	0.752	0.0604	-0.046
Mof_H 	H 	0.8692	0.7527	0.0623	0.046
Mof_C 	C 	0.7846	0.6869	0.0597	-0.06
Mof_H 	H 	0.8095	0.6445	0.0599	0.047
Mof_C 	C 	0.8866	0.8884	0.0275	-0.024
Mof_H 	H 	0.9149	0.8536	0.0073	0.031
Mof_C 	C 	0.8507	0.9858	0.0625	0.182
Mof_H 	H 	0.8476	0.0339	0.0722	-0.074
Mof_C 	C 	0.8002	0.9385	0.0782	-0.181
Mof_H 	H 	0.7574	0.9475	0.1007	0.097
Mof_C 	C 	0.823	0.8778	0.0557	0.054
Mof_N 	N 	0.5965	0.95636	0.4672	-0.237
Mof_C 	C 	0.7149	0.8124	0.4414	-0.003
Mof_C 	C 	0.6799	0.752	0.4396	-0.04
Mof_H 	H 	0.6308	0.7527	0.4377	0.042
Mof_C 	C 	0.7154	0.6869	0.4403	-0.061
Mof_H 	H 	0.6905	0.6445	0.4401	0.049
Mof_C 	C 	0.6134	0.8884	0.4725	-0.023
Mof_H 	H 	0.5851	0.8536	0.4927	0.031
Mof_C 	C 	0.6493	0.9858	0.4375	0.191
Mof_H 	H 	0.6524	0.0339	0.4278	-0.073
Mof_C 	C 	0.6998	0.9385	0.4218	-0.183
Mof_H 	H 	0.7426	0.9475	0.3993	0.103
Mof_C 	C 	0.677	0.8778	0.4443	0.06
Mof_N 	N 	0.5965	0.54364	0.0328	-0.239
Mof_C 	C 	0.7149	0.6876	0.0586	0.015
Mof_C 	C 	0.6799	0.748	0.0604	-0.06
Mof_H 	H 	0.6308	0.7473	0.0623	0.044
Mof_C 	C 	0.7154	0.8131	0.0597	-0.046
Mof_H 	H 	0.6905	0.8555	0.0599	0.043
Mof_C 	C 	0.6134	0.6116	0.0275	-0.015
Mof_H 	H 	0.5851	0.6464	0.0073	0.011
Mof_C 	C 	0.6493	0.5142	0.0625	0.063
Mof_H 	H 	0.6524	0.4661	0.0722	-0.007
Mof_C 	C 	0.6998	0.5615	0.0782	-0.119
Mof_H 	H 	0.7426	0.5525	0.1007	0.065
Mof_C 	C 	0.677	0.6222	0.0557	0.019
Mof_N 	N 	0.4672	0.9035	0.54364	-0.221
Mof_C 	C 	0.4414	0.7851	0.6876	0.023
Mof_C 	C 	0.4396	0.8201	0.748	-0.06
Mof_H 	H 	0.4377	0.8692	0.7473	0.058
Mof_C 	C 	0.4403	0.7846	0.8131	-0.037
Mof_H 	H 	0.4401	0.8095	0.8555	0.051
Mof_C 	C 	0.4725	0.8866	0.6116	-0.009
Mof_H 	H 	0.4927	0.9149	0.6464	0.038
Mof_C 	C 	0.4375	0.8507	0.5142	0.068
Mof_H 	H 	0.4278	0.8476	0.4661	-0.002
Mof_C 	C 	0.4218	0.8002	0.5615	-0.116
Mof_H 	H 	0.3993	0.7574	0.5525	0.066
Mof_C 	C 	0.4443	0.823	0.6222	0.024
Mof_N 	N 	0.0328	0.9035	0.95636	-0.233
Mof_C 	C 	0.0586	0.7851	0.8124	-0.001
Mof_C 	C 	0.0604	0.8201	0.752	-0.046
Mof_H 	H 	0.0623	0.8692	0.7527	0.046
Mof_C 	C 	0.0597	0.7846	0.6869	-0.06
Mof_H 	H 	0.0599	0.8095	0.6445	0.047
Mof_C 	C 	0.0275	0.8866	0.8884	-0.024
Mof_H 	H 	0.0073	0.9149	0.8536	0.031
Mof_C 	C 	0.0625	0.8507	0.9858	0.182
Mof_H 	H 	0.0722	0.8476	0.0339	-0.074
Mof_C 	C 	0.0782	0.8002	0.9385	-0.181
Mof_H 	H 	0.1007	0.7574	0.9475	0.097
Mof_C 	C 	0.0557	0.823	0.8778	0.054
Mof_N 	N 	0.4672	0.5965	0.95636	-0.237
Mof_C 	C 	0.4414	0.7149	0.8124	-0.003
Mof_C 	C 	0.4396	0.6799	0.752	-0.04
Mof_H 	H 	0.4377	0.6308	0.7527	0.042
Mof_C 	C 	0.4403	0.7154	0.6869	-0.061
Mof_H 	H 	0.4401	0.6905	0.6445	0.049
Mof_C 	C 	0.4725	0.6134	0.8884	-0.023
Mof_H 	H 	0.4927	0.5851	0.8536	0.031
Mof_C 	C 	0.4375	0.6493	0.9858	0.191
Mof_H 	H 	0.4278	0.6524	0.0339	-0.073
Mof_C 	C 	0.4218	0.6998	0.9385	-0.183
Mof_H 	H 	0.3993	0.7426	0.9475	0.103
Mof_C 	C 	0.4443	0.677	0.8778	0.06
Mof_N 	N 	0.0328	0.5965	0.54364	-0.239
Mof_C 	C 	0.0586	0.7149	0.6876	0.015
Mof_C 	C 	0.0604	0.6799	0.748	-0.06
Mof_H 	H 	0.0623	0.6308	0.7473	0.044
Mof_C 	C 	0.0597	0.7154	0.8131	-0.046
Mof_H 	H 	0.0599	0.6905	0.8555	0.043
Mof_C 	C 	0.0275	0.6134	0.6116	-0.015
Mof_H 	H 	0.0073	0.5851	0.6464	0.011
Mof_C 	C 	0.0625	0.6493	0.5142	0.063
Mof_H 	H 	0.0722	0.6524	0.4661	-0.007
Mof_C 	C 	0.0782	0.6998	0.5615	-0.119
Mof_H 	H 	0.1007	0.7426	0.5525	0.065
Mof_C 	C 	0.0557	0.677	0.6222	0.019
Mof_Co	Co	0.5	0.5	-0	1.098
Mof_Co	Co	-0	0	-0	1.055
Mof_Co	Co	-5.12802e-33	0.5	0.5	1.098
Mof_Co	Co	0.5	0	0.5	1.098
_end
