data_functionalizedCrystal
_audit_creation_method	'EQeq! by Chris Wilmer'
_symmetry_space_group_name_H-M	'P1'
_symmetry_Int_Tables_number	1
_symmetry_cell_setting	triclinic
loop_
_symmetry_equiv_pos_as_xyz
  x,y,z
_cell_length_a	10.9464
_cell_length_b	15.9076
_cell_length_c	16.1604
_cell_angle_alpha	89.592
_cell_angle_beta	89.682
_cell_angle_gamma	86.288
loop_
_atom_site_label
_atom_site_type_symbol
_atom_site_fract_x
_atom_site_fract_y
_atom_site_fract_z
_atom_site_charge
Mof_Fe	Fe	0.97332	0.27936	0.2476	0.669
Mof_N 	N 	0.0103	0.20069	0.14052	-0.176
Mof_N 	N 	0.9883	0.02749	0.02612	-0.094
Mof_N 	N 	0.9394	0.35747	0.3544	-0.178
Mof_N 	N 	0.9671	0.48743	0.52769	-0.091
Mof_N 	N 	0.9533	0.16981	0.32284	-0.18
Mof_N 	N 	0.9995	0.03318	0.48014	-0.095
Mof_N 	N 	0.9993	0.38767	0.17369	-0.182
Mof_N 	N 	0.0423	0.5223	0.00743	-0.092
Mof_N 	N 	0.167	0.27182	0.2773	-0.177
Mof_N 	N 	0.4883	0.26432	0.28773	-0.092
Mof_N 	N 	0.7796	0.28212	0.22095	-0.178
Mof_N 	N 	0.4599	0.26284	0.21458	-0.092
Mof_C 	C 	0.0362	0.1561	0.0869	0.058
Mof_C 	C 	0.0671	0.1003	0.0142	0.086
Mof_C 	C 	0.2038	0.0736	0.0138	-0.172
Mof_H 	H 	0.2263	0.0471	0.0676	0.075
Mof_H 	H 	0.2211	0.0312	0.97	0.08
Mof_C 	C 	0.2811	0.1475	0.9987	-0.021
Mof_H 	H 	0.3684	0.1272	0.9959	0.02
Mof_H 	H 	0.2708	0.187	0.0456	0.034
Mof_C 	C 	0.246	0.1939	0.9187	-0.136
Mof_H 	H 	0.2947	0.2439	0.9127	0.055
Mof_H 	H 	0.265	0.1564	0.8711	0.059
Mof_C 	C 	0.111	0.2214	0.9186	-0.019
Mof_H 	H 	0.0895	0.2475	0.8644	0.021
Mof_H 	H 	0.0947	0.2646	0.9617	0.033
Mof_C 	C 	0.0304	0.1487	0.9346	-0.174
Mof_H 	H 	0.037	0.1097	0.8871	0.081
Mof_H 	H 	0.944	0.1708	0.9392	0.074
Mof_C 	C 	0.9227	0.38692	0.4181	0.068
Mof_C 	C 	0.8984	0.41333	0.50472	0.08
Mof_C 	C 	0.9411	0.3393	0.56207	-0.168
Mof_H 	H 	0.027	0.321	0.5486	0.074
Mof_H 	H 	0.9382	0.3586	0.6202	0.076
Mof_C 	C 	0.8613	0.2649	0.5531	-0.025
Mof_H 	H 	0.8721	0.2412	0.4969	0.037
Mof_H 	H 	0.8877	0.2204	0.5935	0.024
Mof_C 	C 	0.7274	0.291	0.5674	-0.132
Mof_H 	H 	0.7151	0.3086	0.6256	0.058
Mof_H 	H 	0.6778	0.2422	0.5577	0.054
Mof_C 	C 	0.6841	0.3629	0.5105	-0.023
Mof_H 	H 	0.5982	0.3808	0.5243	0.021
Mof_H 	H 	0.6863	0.3428	0.4526	0.034
Mof_C 	C 	0.7623	0.4383	0.5172	-0.17
Mof_H 	H 	0.7498	0.4641	0.5724	0.076
Mof_H 	H 	0.7356	0.481	0.4751	0.075
Mof_C 	C 	0.9428	0.1089	0.35874	0.061
Mof_C 	C 	0.9181	0.031	0.40578	0.083
Mof_C 	C 	0.9458	0.953	0.3529	-0.17
Mof_H 	H 	0.9368	0.9019	0.3872	0.08
Mof_H 	H 	0.0316	0.952	0.3331	0.074
Mof_C 	C 	0.8601	0.9517	0.2788	-0.023
Mof_H 	H 	0.8762	0.999	0.241	0.034
Mof_H 	H 	0.8767	0.8985	0.2481	0.022
Mof_C 	C 	0.7272	0.9591	0.3057	-0.132
Mof_H 	H 	0.7086	0.9081	0.3376	0.058
Mof_H 	H 	0.6744	0.9622	0.2561	0.053
Mof_C 	C 	0.6985	0.0369	0.3587	-0.024
Mof_H 	H 	0.7066	0.0881	0.3245	0.036
Mof_H 	H 	0.6127	0.0372	0.3785	0.022
Mof_C 	C 	0.7834	0.0391	0.4327	-0.171
Mof_H 	H 	0.7669	0.9924	0.4711	0.079
Mof_H 	H 	0.7668	0.0927	0.4626	0.074
Mof_C 	C 	0.0364	0.4421	0.13684	0.07
Mof_C 	C 	0.0946	0.51032	0.09147	0.082
Mof_C 	C 	0.2317	0.4862	0.0838	-0.171
Mof_H 	H 	0.2435	0.4289	0.0605	0.076
Mof_H 	H 	0.2691	0.5257	0.045	0.077
Mof_C 	C 	0.296	0.4884	0.1668	-0.024
Mof_H 	H 	0.2674	0.443	0.2028	0.038
Mof_H 	H 	0.3852	0.4775	0.1581	0.025
Mof_C 	C 	0.2723	0.5723	0.2098	-0.132
Mof_H 	H 	0.3097	0.6169	0.1772	0.058
Mof_H 	H 	0.3112	0.5696	0.265	0.055
Mof_C 	C 	0.136	0.5944	0.2197	-0.024
Mof_H 	H 	0.1233	0.6509	0.2448	0.021
Mof_H 	H 	0.1005	0.5531	0.2575	0.035
Mof_C 	C 	0.0705	0.59405	0.13666	-0.17
Mof_H 	H 	0.0985	0.6403	0.1015	0.077
Mof_H 	H 	0.9813	0.6045	0.1459	0.075
Mof_C 	C 	0.2637	0.26483	0.30367	0.067
Mof_C 	C 	0.3838	0.25949	0.34614	0.081
Mof_C 	C 	0.4042	0.1751	0.392	-0.169
Mof_H 	H 	0.3943	0.1287	0.3527	0.075
Mof_H 	H 	0.4892	0.1696	0.413	0.076
Mof_C 	C 	0.3163	0.1666	0.4638	-0.024
Mof_H 	H 	0.3378	0.1133	0.4939	0.022
Mof_H 	H 	0.2322	0.1639	0.4422	0.036
Mof_C 	C 	0.3195	0.2399	0.5234	-0.131
Mof_H 	H 	0.2567	0.2343	0.567	0.054
Mof_H 	H 	0.4006	0.2385	0.5504	0.057
Mof_C 	C 	0.2958	0.3232	0.4788	-0.026
Mof_H 	H 	0.3034	0.3697	0.5185	0.025
Mof_H 	H 	0.211	0.3272	0.4575	0.038
Mof_C 	C 	0.385	0.3336	0.40682	-0.167
Mof_H 	H 	0.4688	0.3371	0.4288	0.076
Mof_H 	H 	0.3624	0.3869	0.377	0.074
Mof_C 	C 	0.683	0.27394	0.19701	0.067
Mof_C 	C 	0.5653	0.25946	0.15616	0.081
Mof_C 	C 	0.5743	0.1702	0.1199	-0.168
Mof_H 	H 	0.6021	0.1295	0.1636	0.075
Mof_H 	H 	0.4921	0.1557	0.1018	0.077
Mof_C 	C 	0.6627	0.1622	0.0467	-0.025
Mof_H 	H 	0.7472	0.1677	0.0666	0.037
Mof_H 	H 	0.6591	0.1056	0.0221	0.024
Mof_C 	C 	0.6326	0.2289	0.9807	-0.133
Mof_H 	H 	0.695	0.2239	0.9362	0.054
Mof_H 	H 	0.5521	0.2193	0.9561	0.058
Mof_C 	C 	0.6292	0.3166	0.0167	-0.022
Mof_H 	H 	0.6055	0.3583	0.973	0.021
Mof_H 	H 	0.712	0.3282	0.0361	0.034
Mof_C 	C 	0.5392	0.3266	0.0885	-0.17
Mof_H 	H 	0.455	0.3222	0.0676	0.076
Mof_H 	H 	0.5439	0.3833	0.1127	0.074
Mof_Fe	Fe	0.02668	0.72064	0.7524	0.668
Mof_N 	N 	0.9897	0.79931	0.85948	-0.177
Mof_N 	N 	0.0117	0.97251	0.97388	-0.095
Mof_N 	N 	0.0606	0.64253	0.6456	-0.179
Mof_N 	N 	0.0329	0.51257	0.47231	-0.092
Mof_N 	N 	0.0467	0.83019	0.67716	-0.181
Mof_N 	N 	0.0005	0.96682	0.51986	-0.095
Mof_N 	N 	0.0007	0.61233	0.82631	-0.182
Mof_N 	N 	0.9577	0.4777	0.99257	-0.092
Mof_N 	N 	0.833	0.72818	0.7227	-0.177
Mof_N 	N 	0.5117	0.73568	0.71227	-0.092
Mof_N 	N 	0.2204	0.71788	0.77905	-0.178
Mof_N 	N 	0.5401	0.73716	0.78542	-0.092
Mof_C 	C 	0.9638	0.8439	0.9131	0.058
Mof_C 	C 	0.9329	0.8997	0.9858	0.086
Mof_C 	C 	0.7962	0.9264	0.9862	-0.172
Mof_H 	H 	0.7737	0.9529	0.9324	0.075
Mof_H 	H 	0.7789	0.9688	0.03	0.08
Mof_C 	C 	0.7189	0.8525	0.0013	-0.021
Mof_H 	H 	0.6316	0.8728	0.0041	0.02
Mof_H 	H 	0.7292	0.813	0.9544	0.034
Mof_C 	C 	0.754	0.8061	0.0813	-0.136
Mof_H 	H 	0.7053	0.7561	0.0873	0.055
Mof_H 	H 	0.735	0.8436	0.1289	0.059
Mof_C 	C 	0.889	0.7786	0.0814	-0.019
Mof_H 	H 	0.9105	0.7525	0.1356	0.021
Mof_H 	H 	0.9053	0.7354	0.0383	0.033
Mof_C 	C 	0.9696	0.8513	0.0654	-0.174
Mof_H 	H 	0.963	0.8903	0.1129	0.081
Mof_H 	H 	0.056	0.8292	0.0608	0.074
Mof_C 	C 	0.0773	0.61308	0.5819	0.068
Mof_C 	C 	0.1016	0.58667	0.49528	0.08
Mof_C 	C 	0.0589	0.6607	0.43793	-0.168
Mof_H 	H 	0.973	0.679	0.4514	0.074
Mof_H 	H 	0.0618	0.6414	0.3798	0.076
Mof_C 	C 	0.1387	0.7351	0.4469	-0.025
Mof_H 	H 	0.1279	0.7588	0.5031	0.037
Mof_H 	H 	0.1123	0.7796	0.4065	0.024
Mof_C 	C 	0.2726	0.709	0.4326	-0.132
Mof_H 	H 	0.2849	0.6914	0.3744	0.058
Mof_H 	H 	0.3222	0.7578	0.4423	0.054
Mof_C 	C 	0.3159	0.6371	0.4895	-0.023
Mof_H 	H 	0.4018	0.6192	0.4757	0.021
Mof_H 	H 	0.3137	0.6572	0.5474	0.034
Mof_C 	C 	0.2377	0.5617	0.4828	-0.17
Mof_H 	H 	0.2502	0.5359	0.4276	0.076
Mof_H 	H 	0.2644	0.519	0.5249	0.075
Mof_C 	C 	0.0572	0.8911	0.64126	0.061
Mof_C 	C 	0.0819	0.969	0.59422	0.083
Mof_C 	C 	0.0542	0.047	0.6471	-0.17
Mof_H 	H 	0.0632	0.0981	0.6128	0.08
Mof_H 	H 	0.9684	0.048	0.6669	0.074
Mof_C 	C 	0.1399	0.0483	0.7212	-0.023
Mof_H 	H 	0.1238	0.001	0.759	0.034
Mof_H 	H 	0.1233	0.1015	0.7519	0.022
Mof_C 	C 	0.2728	0.0409	0.6943	-0.132
Mof_H 	H 	0.2914	0.0919	0.6624	0.058
Mof_H 	H 	0.3256	0.0378	0.7439	0.053
Mof_C 	C 	0.3015	0.9631	0.6413	-0.024
Mof_H 	H 	0.2934	0.9119	0.6755	0.036
Mof_H 	H 	0.3873	0.9628	0.6215	0.022
Mof_C 	C 	0.2166	0.9609	0.5673	-0.171
Mof_H 	H 	0.2331	0.0076	0.5289	0.079
Mof_H 	H 	0.2332	0.9073	0.5374	0.074
Mof_C 	C 	0.9636	0.5579	0.86316	0.07
Mof_C 	C 	0.9054	0.48968	0.90853	0.082
Mof_C 	C 	0.7683	0.5138	0.9162	-0.171
Mof_H 	H 	0.7565	0.5711	0.9395	0.076
Mof_H 	H 	0.7309	0.4743	0.955	0.077
Mof_C 	C 	0.704	0.5116	0.8332	-0.024
Mof_H 	H 	0.7326	0.557	0.7972	0.038
Mof_H 	H 	0.6148	0.5225	0.8419	0.025
Mof_C 	C 	0.7277	0.4277	0.7902	-0.132
Mof_H 	H 	0.6903	0.3831	0.8228	0.058
Mof_H 	H 	0.6888	0.4304	0.735	0.055
Mof_C 	C 	0.864	0.4056	0.7803	-0.024
Mof_H 	H 	0.8767	0.3491	0.7552	0.021
Mof_H 	H 	0.8995	0.4469	0.7425	0.035
Mof_C 	C 	0.9295	0.40595	0.86334	-0.17
Mof_H 	H 	0.9015	0.3597	0.8985	0.077
Mof_H 	H 	0.0187	0.3955	0.8541	0.075
Mof_C 	C 	0.7363	0.73517	0.69633	0.067
Mof_C 	C 	0.6162	0.74051	0.65386	0.081
Mof_C 	C 	0.5958	0.8249	0.608	-0.169
Mof_H 	H 	0.6057	0.8713	0.6473	0.075
Mof_H 	H 	0.5108	0.8304	0.587	0.076
Mof_C 	C 	0.6837	0.8334	0.5362	-0.024
Mof_H 	H 	0.6622	0.8867	0.5061	0.022
Mof_H 	H 	0.7678	0.8361	0.5578	0.036
Mof_C 	C 	0.6805	0.7601	0.4766	-0.131
Mof_H 	H 	0.7433	0.7657	0.433	0.054
Mof_H 	H 	0.5994	0.7615	0.4496	0.057
Mof_C 	C 	0.7042	0.6768	0.5212	-0.026
Mof_H 	H 	0.6966	0.6303	0.4815	0.025
Mof_H 	H 	0.789	0.6728	0.5425	0.038
Mof_C 	C 	0.615	0.6664	0.59318	-0.167
Mof_H 	H 	0.5312	0.6629	0.5712	0.076
Mof_H 	H 	0.6376	0.6131	0.623	0.074
Mof_C 	C 	0.317	0.72606	0.80299	0.067
Mof_C 	C 	0.4347	0.74054	0.84384	0.081
Mof_C 	C 	0.4257	0.8298	0.8801	-0.168
Mof_H 	H 	0.3979	0.8705	0.8364	0.075
Mof_H 	H 	0.5079	0.8443	0.8982	0.077
Mof_C 	C 	0.3373	0.8378	0.9533	-0.025
Mof_H 	H 	0.2528	0.8323	0.9334	0.037
Mof_H 	H 	0.3409	0.8944	0.9779	0.024
Mof_C 	C 	0.3674	0.7711	0.0193	-0.133
Mof_H 	H 	0.305	0.7761	0.0638	0.054
Mof_H 	H 	0.4479	0.7807	0.0439	0.058
Mof_C 	C 	0.3708	0.6834	0.9833	-0.022
Mof_H 	H 	0.3945	0.6417	0.027	0.021
Mof_H 	H 	0.288	0.6718	0.9639	0.034
Mof_C 	C 	0.4608	0.6734	0.9115	-0.17
Mof_H 	H 	0.545	0.6778	0.9324	0.076
Mof_H 	H 	0.4561	0.6167	0.8873	0.074
_end
