data_functionalizedCrystal
_audit_creation_method	'EQeq! by Chris Wilmer'
_symmetry_space_group_name_H-M	'P1'
_symmetry_Int_Tables_number	1
_symmetry_cell_setting	triclinic
loop_
_symmetry_equiv_pos_as_xyz
  x,y,z
_cell_length_a	14.226
_cell_length_b	15.117
_cell_length_c	17.557
_cell_angle_alpha	90
_cell_angle_beta	90
_cell_angle_gamma	90
loop_
_atom_site_label
_atom_site_type_symbol
_atom_site_fract_x
_atom_site_fract_y
_atom_site_fract_z
_atom_site_charge
Mof_Zn	Zn	0.0532	0.7242	0.341	1.259
Mof_Al	Al	0.9447	0.4022	0.4377	6.011
Mof_Al	Al	0.0766	0.1045	0.4306	6.548
Mof_Al	Al	0.7111	0.6597	0.4622	7.246
Mof_P 	P 	0.0501	0.9048	0.4262	1.352
Mof_P 	P 	0.915	0.6002	0.425	1.455
Mof_P 	P 	0.0608	0.7293	0.1588	1.479
Mof_P 	P 	0.2148	0.6608	0.4506	1.445
Mof_O 	O 	0.0432	0.0001	0.3975	-1.862
Mof_O 	O 	0.9447	0.5084	0.3994	-1.825
Mof_O 	O 	0.0523	0.8394	0.357	-0.692
Mof_O 	O 	0.0558	0.8285	0.1371	-1.804
Mof_O 	O 	0.9506	0.6703	0.3703	-0.753
Mof_O 	O 	0.9721	0.6831	0.1291	-1.999
Mof_O 	O 	0.303	0.6063	0.427	-1.912
Mof_O 	O 	0.8063	0.6053	0.4351	-2.247
Mof_O 	O 	0.9573	0.6168	0.5049	-1.927
Mof_O 	O 	0.9641	0.8826	0.4753	-1.943
Mof_O 	O 	0.1617	0.6058	0.5102	-1.813
Mof_O 	O 	0.0722	0.7158	0.2426	-0.689
Mof_O 	O 	0.1514	0.6715	0.3817	-0.786
Mof_O 	O 	0.2473	0.7463	0.4864	-2.12
Mof_O 	O 	0.1397	0.8998	0.477	-2.224
Mof_O 	O 	0.1496	0.6936	0.1181	-2.14
Mof_Zn	Zn	0.4468	0.2758	0.841	1.263
Mof_Al	Al	0.5553	0.5978	0.9377	6.031
Mof_Al	Al	0.4234	0.8955	0.9306	6.536
Mof_Al	Al	0.7889	0.3403	0.9622	7.141
Mof_P 	P 	0.4499	0.0952	0.9262	1.392
Mof_P 	P 	0.585	0.3998	0.925	1.451
Mof_P 	P 	0.4392	0.2707	0.6588	1.516
Mof_P 	P 	0.2852	0.3392	0.9506	1.452
Mof_O 	O 	0.4568	0.9999	0.8975	-1.89
Mof_O 	O 	0.5553	0.4916	0.8994	-1.83
Mof_O 	O 	0.4477	0.1606	0.857	-0.684
Mof_O 	O 	0.4442	0.1715	0.6371	-1.857
Mof_O 	O 	0.5494	0.3297	0.8703	-0.763
Mof_O 	O 	0.5279	0.3169	0.6291	-2.014
Mof_O 	O 	0.197	0.3937	0.927	-1.923
Mof_O 	O 	0.6937	0.3947	0.9351	-2.226
Mof_O 	O 	0.5427	0.3832	0.0049	-1.93
Mof_O 	O 	0.5359	0.1174	0.9753	-1.963
Mof_O 	O 	0.3383	0.3942	0.0102	-1.823
Mof_O 	O 	0.4278	0.2842	0.7426	-0.686
Mof_O 	O 	0.3486	0.3285	0.8817	-0.782
Mof_O 	O 	0.2527	0.2537	0.9864	-2.093
Mof_O 	O 	0.3603	0.1002	0.977	-2.191
Mof_O 	O 	0.3504	0.3064	0.6181	-2.162
Mof_Zn	Zn	0.9468	0.2242	0.159	1.262
Mof_Al	Al	0.0553	0.9022	0.0623	5.767
Mof_Al	Al	0.9234	0.6045	0.0694	6.63
Mof_Al	Al	0.2889	0.1597	0.0378	7.141
Mof_P 	P 	0.9499	0.4048	0.0738	1.407
Mof_P 	P 	0.085	0.1002	0.075	1.409
Mof_P 	P 	0.9392	0.2293	0.3412	1.501
Mof_P 	P 	0.7852	0.1608	0.0494	1.437
Mof_O 	O 	0.9568	0.5001	0.1025	-1.899
Mof_O 	O 	0.0553	0.0084	0.1006	-1.756
Mof_O 	O 	0.9477	0.3394	0.143	-0.685
Mof_O 	O 	0.9442	0.3285	0.3629	-1.849
Mof_O 	O 	0.0494	0.1703	0.1297	-0.755
Mof_O 	O 	0.0279	0.1831	0.3709	-2.002
Mof_O 	O 	0.697	0.1063	0.073	-1.907
Mof_O 	O 	0.1937	0.1053	0.0649	-2.216
Mof_O 	O 	0.0427	0.1168	0.9951	-1.828
Mof_O 	O 	0.0359	0.3826	0.0247	-2.002
Mof_O 	O 	0.8383	0.1058	0.9898	-1.774
Mof_O 	O 	0.9278	0.2158	0.2574	-0.688
Mof_O 	O 	0.8486	0.1715	0.1183	-0.781
Mof_O 	O 	0.7527	0.2463	0.0136	-2.094
Mof_O 	O 	0.8603	0.3998	0.023	-2.198
Mof_O 	O 	0.8504	0.1936	0.3819	-2.159
Mof_Zn	Zn	0.5532	0.7758	0.659	1.263
Mof_Al	Al	0.4447	0.0978	0.5623	6.052
Mof_Al	Al	0.5766	0.3955	0.5694	6.556
Mof_Al	Al	0.2111	0.8403	0.5378	7.219
Mof_P 	P 	0.5501	0.5952	0.5738	1.394
Mof_P 	P 	0.415	0.8998	0.575	1.457
Mof_P 	P 	0.5608	0.7707	0.8412	1.508
Mof_P 	P 	0.7148	0.8392	0.5494	1.448
Mof_O 	O 	0.5432	0.4999	0.6025	-1.889
Mof_O 	O 	0.4447	0.9916	0.6006	-1.84
Mof_O 	O 	0.5523	0.6606	0.643	-0.687
Mof_O 	O 	0.5558	0.6715	0.8629	-1.853
Mof_O 	O 	0.4506	0.8297	0.6297	-0.765
Mof_O 	O 	0.4721	0.8169	0.8709	-2.007
Mof_O 	O 	0.803	0.8937	0.573	-1.906
Mof_O 	O 	0.3063	0.8947	0.5649	-2.246
Mof_O 	O 	0.4573	0.8832	0.4951	-1.94
Mof_O 	O 	0.4641	0.6174	0.5247	-1.97
Mof_O 	O 	0.6617	0.8942	0.4898	-1.818
Mof_O 	O 	0.5722	0.7842	0.7574	-0.686
Mof_O 	O 	0.6514	0.8285	0.6183	-0.784
Mof_O 	O 	0.7473	0.7537	0.5136	-2.125
Mof_O 	O 	0.6397	0.6002	0.523	-2.226
Mof_O 	O 	0.6496	0.8064	0.8819	-2.14
Mof_Zn	Zn	0.9468	0.2758	0.659	1.259
Mof_Al	Al	0.0553	0.5978	0.5623	6.011
Mof_Al	Al	0.9234	0.8955	0.5694	6.548
Mof_Al	Al	0.2889	0.3403	0.5378	7.246
Mof_P 	P 	0.9499	0.0952	0.5738	1.352
Mof_P 	P 	0.085	0.3998	0.575	1.455
Mof_P 	P 	0.9392	0.2707	0.8412	1.479
Mof_P 	P 	0.7852	0.3392	0.5494	1.445
Mof_O 	O 	0.9568	0.9999	0.6025	-1.862
Mof_O 	O 	0.0553	0.4916	0.6006	-1.825
Mof_O 	O 	0.9477	0.1606	0.643	-0.692
Mof_O 	O 	0.9442	0.1715	0.8629	-1.804
Mof_O 	O 	0.0494	0.3297	0.6297	-0.753
Mof_O 	O 	0.0279	0.3169	0.8709	-1.999
Mof_O 	O 	0.697	0.3937	0.573	-1.912
Mof_O 	O 	0.1937	0.3947	0.5649	-2.247
Mof_O 	O 	0.0427	0.3832	0.4951	-1.927
Mof_O 	O 	0.0359	0.1174	0.5247	-1.943
Mof_O 	O 	0.8383	0.3942	0.4898	-1.813
Mof_O 	O 	0.9278	0.2842	0.7574	-0.689
Mof_O 	O 	0.8486	0.3285	0.6183	-0.786
Mof_O 	O 	0.7527	0.2537	0.5136	-2.12
Mof_O 	O 	0.8603	0.1002	0.523	-2.224
Mof_O 	O 	0.8504	0.3064	0.8819	-2.14
Mof_Zn	Zn	0.5532	0.7242	0.159	1.263
Mof_Al	Al	0.4447	0.4022	0.0623	6.031
Mof_Al	Al	0.5766	0.1045	0.0694	6.536
Mof_Al	Al	0.2111	0.6597	0.0378	7.141
Mof_P 	P 	0.5501	0.9048	0.0738	1.392
Mof_P 	P 	0.415	0.6002	0.075	1.451
Mof_P 	P 	0.5608	0.7293	0.3412	1.516
Mof_P 	P 	0.7148	0.6608	0.0494	1.452
Mof_O 	O 	0.5432	0.0001	0.1025	-1.89
Mof_O 	O 	0.4447	0.5084	0.1006	-1.83
Mof_O 	O 	0.5523	0.8394	0.143	-0.684
Mof_O 	O 	0.5558	0.8285	0.3629	-1.857
Mof_O 	O 	0.4506	0.6703	0.1297	-0.763
Mof_O 	O 	0.4721	0.6831	0.3709	-2.014
Mof_O 	O 	0.803	0.6063	0.073	-1.923
Mof_O 	O 	0.3063	0.6053	0.0649	-2.226
Mof_O 	O 	0.4573	0.6168	0.9951	-1.93
Mof_O 	O 	0.4641	0.8826	0.0247	-1.963
Mof_O 	O 	0.6617	0.6058	0.9898	-1.823
Mof_O 	O 	0.5722	0.7158	0.2574	-0.686
Mof_O 	O 	0.6514	0.6715	0.1183	-0.782
Mof_O 	O 	0.7473	0.7463	0.0136	-2.093
Mof_O 	O 	0.6397	0.8998	0.023	-2.191
Mof_O 	O 	0.6496	0.6936	0.3819	-2.162
Mof_Zn	Zn	0.0532	0.7758	0.841	1.262
Mof_Al	Al	0.9447	0.0978	0.9377	5.767
Mof_Al	Al	0.0766	0.3955	0.9306	6.63
Mof_Al	Al	0.7111	0.8403	0.9622	7.141
Mof_P 	P 	0.0501	0.5952	0.9262	1.407
Mof_P 	P 	0.915	0.8998	0.925	1.409
Mof_P 	P 	0.0608	0.7707	0.6588	1.501
Mof_P 	P 	0.2148	0.8392	0.9506	1.437
Mof_O 	O 	0.0432	0.4999	0.8975	-1.899
Mof_O 	O 	0.9447	0.9916	0.8994	-1.756
Mof_O 	O 	0.0523	0.6606	0.857	-0.685
Mof_O 	O 	0.0558	0.6715	0.6371	-1.849
Mof_O 	O 	0.9506	0.8297	0.8703	-0.755
Mof_O 	O 	0.9721	0.8169	0.6291	-2.002
Mof_O 	O 	0.303	0.8937	0.927	-1.907
Mof_O 	O 	0.8063	0.8947	0.9351	-2.216
Mof_O 	O 	0.9573	0.8832	0.0049	-1.828
Mof_O 	O 	0.9641	0.6174	0.9753	-2.002
Mof_O 	O 	0.1617	0.8942	0.0102	-1.774
Mof_O 	O 	0.0722	0.7842	0.7426	-0.688
Mof_O 	O 	0.1514	0.8285	0.8817	-0.781
Mof_O 	O 	0.2473	0.7537	0.9864	-2.094
Mof_O 	O 	0.1397	0.6002	0.977	-2.198
Mof_O 	O 	0.1496	0.8064	0.6181	-2.159
Mof_Zn	Zn	0.4468	0.2242	0.341	1.263
Mof_Al	Al	0.5553	0.9022	0.4377	6.052
Mof_Al	Al	0.4234	0.6045	0.4306	6.556
Mof_Al	Al	0.7889	0.1597	0.4622	7.219
Mof_P 	P 	0.4499	0.4048	0.4262	1.394
Mof_P 	P 	0.585	0.1002	0.425	1.457
Mof_P 	P 	0.4392	0.2293	0.1588	1.508
Mof_P 	P 	0.2852	0.1608	0.4506	1.448
Mof_O 	O 	0.4568	0.5001	0.3975	-1.889
Mof_O 	O 	0.5553	0.0084	0.3994	-1.84
Mof_O 	O 	0.4477	0.3394	0.357	-0.687
Mof_O 	O 	0.4442	0.3285	0.1371	-1.853
Mof_O 	O 	0.5494	0.1703	0.3703	-0.765
Mof_O 	O 	0.5279	0.1831	0.1291	-2.007
Mof_O 	O 	0.197	0.1063	0.427	-1.906
Mof_O 	O 	0.6937	0.1053	0.4351	-2.246
Mof_O 	O 	0.5427	0.1168	0.5049	-1.94
Mof_O 	O 	0.5359	0.3826	0.4753	-1.97
Mof_O 	O 	0.3383	0.1058	0.5102	-1.818
Mof_O 	O 	0.4278	0.2158	0.2426	-0.686
Mof_O 	O 	0.3486	0.1715	0.3817	-0.784
Mof_O 	O 	0.2527	0.2463	0.4864	-2.125
Mof_O 	O 	0.3603	0.3998	0.477	-2.226
Mof_O 	O 	0.3504	0.1936	0.1181	-2.14
_end
