data_functionalizedCrystal
_audit_creation_method	'EQeq! by Chris Wilmer'
_symmetry_space_group_name_H-M	'P1'
_symmetry_Int_Tables_number	1
_symmetry_cell_setting	triclinic
loop_
_symmetry_equiv_pos_as_xyz
  x,y,z
_cell_length_a	9.0238
_cell_length_b	9.0392
_cell_length_c	13.8071
_cell_angle_alpha	95.965
_cell_angle_beta	96.049
_cell_angle_gamma	110.228
loop_
_atom_site_label
_atom_site_type_symbol
_atom_site_fract_x
_atom_site_fract_y
_atom_site_fract_z
_atom_site_charge
Mof_Zn	Zn	0.97132	0.13261	0.89652	1.227
Mof_Zn	Zn	0.28221	0.7176	0.75007	1.237
Mof_Zn	Zn	0.86704	0.02871	0.60324	1.23
Mof_P 	P 	0.0563	0.8178	0.88412	0.437
Mof_H 	H 	0.942	0.749	0.8	-0.036
Mof_P 	P 	0.1816	0.9433	0.61577	0.429
Mof_H 	H 	0.259	0.057	0.703	-0.031
Mof_P 	P 	0.0548	0.3662	0.73236	0.477
Mof_H 	H 	0.956	0.441	0.756	-0.063
Mof_P 	P 	0.6334	0.9449	0.76714	0.466
Mof_H 	H 	0.555	0.045	0.742	-0.056
Mof_O 	O 	0.094	0.9948	0.892	-0.465
Mof_O 	O 	0.9896	0.7487	0.9724	-0.427
Mof_O 	O 	0.2034	0.7782	0.8668	-0.428
Mof_O 	O 	0.2214	0.7967	0.6334	-0.428
Mof_O 	O 	0.004	0.9047	0.6075	-0.465
Mof_O 	O 	0.2504	0.0103	0.5272	-0.426
Mof_O 	O 	0.97	0.254	0.6402	-0.467
Mof_O 	O 	0.207	0.4894	0.7146	-0.422
Mof_O 	O 	0.09	0.2855	0.8181	-0.451
Mof_O 	O 	0.714	0.9104	0.6813	-0.45
Mof_O 	O 	0.5103	0.7913	0.785	-0.42
Mof_O 	O 	0.746	0.0315	0.8601	-0.468
Mof_Zn	Zn	0.02868	0.86739	0.10348	1.227
Mof_Zn	Zn	0.71779	0.2824	0.24993	1.237
Mof_Zn	Zn	0.13296	0.97129	0.39676	1.23
Mof_P 	P 	0.9437	0.1822	0.11588	0.437
Mof_H 	H 	0.058	0.251	0.2	-0.036
Mof_P 	P 	0.8184	0.0567	0.38423	0.429
Mof_H 	H 	0.741	0.943	0.297	-0.031
Mof_P 	P 	0.9452	0.6338	0.26764	0.477
Mof_H 	H 	0.044	0.559	0.244	-0.063
Mof_P 	P 	0.3666	0.0551	0.23286	0.466
Mof_H 	H 	0.445	0.955	0.258	-0.056
Mof_O 	O 	0.906	0.0052	0.108	-0.465
Mof_O 	O 	0.0104	0.2513	0.0276	-0.427
Mof_O 	O 	0.7966	0.2218	0.1332	-0.428
Mof_O 	O 	0.7786	0.2033	0.3666	-0.428
Mof_O 	O 	0.996	0.0953	0.3925	-0.465
Mof_O 	O 	0.7496	0.9897	0.4728	-0.426
Mof_O 	O 	0.03	0.746	0.3598	-0.467
Mof_O 	O 	0.793	0.5106	0.2854	-0.422
Mof_O 	O 	0.91	0.7145	0.1819	-0.451
Mof_O 	O 	0.286	0.0896	0.3187	-0.45
Mof_O 	O 	0.4897	0.2087	0.215	-0.42
Mof_O 	O 	0.254	0.9685	0.1399	-0.468
_end
