data_functionalizedCrystal
_audit_creation_method	'EQeq! by Chris Wilmer'
_symmetry_space_group_name_H-M	'P1'
_symmetry_Int_Tables_number	1
_symmetry_cell_setting	triclinic
loop_
_symmetry_equiv_pos_as_xyz
  x,y,z
_cell_length_a	7.5781
_cell_length_b	9.8113
_cell_length_c	11.7986
_cell_angle_alpha	114.06
_cell_angle_beta	108.045
_cell_angle_gamma	91.344
loop_
_atom_site_label
_atom_site_type_symbol
_atom_site_fract_x
_atom_site_fract_y
_atom_site_fract_z
_atom_site_charge
Mof_Cd	Cd	0.24247	0.48197	0.00163	0.441
Mof_O 	O 	0.14	0.2281	0.8476	-0.208
Mof_O 	O 	0.4109	0.4325	0.8504	-0.251
Mof_O 	O 	0.9359	0.4174	0.8583	-0.25
Mof_O 	O 	0.643	0.601	0.8392	-0.201
Mof_C 	C 	0.964	0.26	0.808	0.173
Mof_C 	C 	0.808	0.147	0.688	-0.013
Mof_C 	C 	0.613	0.179	0.6495	-0.07
Mof_H 	H 	0.5712	0.2673	0.6994	0.073
Mof_C 	C 	0.508	0.069	0.5368	0.031
Mof_C 	C 	0.836	0.999	0.622	-0.023
Mof_H 	H 	0.953	0.9703	0.6558	0.06
Mof_C 	C 	0.434	0.52	0.798	0.183
Mof_C 	C 	0.303	0.522	0.6823	-0.03
Mof_C 	C 	0.355	0.564	0.596	-0.018
Mof_H 	H 	0.4845	0.5955	0.616	0.054
Mof_C 	C 	0.226	0.562	0.484	-0.066
Mof_H 	H 	0.266	0.5825	0.4233	0.067
Mof_C 	C 	0.09	0.483	0.6576	-0.066
Mof_H 	H 	0.0389	0.4664	0.7162	0.076
Mof_C 	C 	0.008	0.524	0.4595	0.03
Mof_C 	C 	0.299	0.105	0.488	-0.059
Mof_H 	H 	0.2712	0.2008	0.5367	0.065
Mof_Cd	Cd	0.75753	0.51803	0.99837	0.442
Mof_O 	O 	0.86	0.7719	0.1524	-0.207
Mof_O 	O 	0.5891	0.5675	0.1496	-0.25
Mof_O 	O 	0.0641	0.5826	0.1417	-0.249
Mof_O 	O 	0.357	0.399	0.1608	-0.201
Mof_C 	C 	0.036	0.74	0.192	0.173
Mof_C 	C 	0.192	0.853	0.312	-0.013
Mof_C 	C 	0.387	0.821	0.3505	-0.07
Mof_H 	H 	0.4288	0.7327	0.3006	0.073
Mof_C 	C 	0.492	0.931	0.4632	0.031
Mof_C 	C 	0.164	0.001	0.378	-0.023
Mof_H 	H 	0.047	0.0297	0.3442	0.06
Mof_C 	C 	0.566	0.48	0.202	0.183
Mof_C 	C 	0.697	0.478	0.3177	-0.03
Mof_C 	C 	0.645	0.436	0.404	-0.018
Mof_H 	H 	0.5155	0.4045	0.384	0.054
Mof_C 	C 	0.774	0.438	0.516	-0.066
Mof_H 	H 	0.734	0.4175	0.5767	0.067
Mof_C 	C 	0.91	0.517	0.3424	-0.066
Mof_H 	H 	0.9611	0.5336	0.2838	0.076
Mof_C 	C 	0.992	0.476	0.5405	0.03
Mof_C 	C 	0.701	0.895	0.512	-0.059
Mof_H 	H 	0.7288	0.7992	0.4633	0.065
_end
