data_functionalizedCrystal
_audit_creation_method	'EQeq! by Chris Wilmer'
_symmetry_space_group_name_H-M	'P1'
_symmetry_Int_Tables_number	1
_symmetry_cell_setting	triclinic
loop_
_symmetry_equiv_pos_as_xyz
  x,y,z
_cell_length_a	8.622
_cell_length_b	14.066
_cell_length_c	15.0818
_cell_angle_alpha	115.214
_cell_angle_beta	106.609
_cell_angle_gamma	90
loop_
_atom_site_label
_atom_site_type_symbol
_atom_site_fract_x
_atom_site_fract_y
_atom_site_fract_z
_atom_site_charge
Mof_Gd	Gd	0.50555	0.00553	0.54536	1.849
Mof_Gd	Gd	0.96019	0.99447	0.45464	1.782
Mof_H 	H 	0.4449	0.8018	0.6646	-0.016
Mof_H 	H 	0.4534	0.6469	0.6888	0.073
Mof_H 	H 	0.9782	0.5582	0.5332	0.039
Mof_H 	H 	0.9611	0.7185	0.522	-0.037
Mof_H 	H 	0.4256	0.5317	0.746	0.071
Mof_H 	H 	0.4586	0.3645	0.7376	0.018
Mof_H 	H 	0.0651	0.2326	0.4846	-0.016
Mof_H 	H 	0.0402	0.3964	0.483	0.09
Mof_H 	H 	0.3977	0.7193	0.2268	-0.052
Mof_H 	H 	0.33	0.5653	0.0732	0.123
Mof_H 	H 	0.8589	0.5765	0.0532	0.165
Mof_H 	H 	0.9373	0.7207	0.2132	-0.123
Mof_H 	H 	0.7803	0.1982	0.3354	-0.021
Mof_H 	H 	0.7646	0.3531	0.3112	0.072
Mof_H 	H 	0.445	0.4418	0.4668	0.085
Mof_H 	H 	0.4391	0.2815	0.478	0.006
Mof_H 	H 	0.6796	0.4683	0.254	0.065
Mof_H 	H 	0.721	0.6355	0.2624	0.018
Mof_H 	H 	0.5805	0.7674	0.5154	-0.026
Mof_H 	H 	0.5572	0.6036	0.517	0.074
Mof_H 	H 	0.1709	0.2807	0.7732	-0.034
Mof_H 	H 	0.2568	0.4347	0.9268	0.099
Mof_H 	H 	0.8057	0.4235	0.9468	0.102
Mof_H 	H 	0.7241	0.2793	0.7868	-0.023
Mof_C 	C 	0.2	0.8714	0.5736	0.516
Mof_C 	C 	0.2034	0.7737	0.5912	-0.215
Mof_C 	C 	0.3504	0.7542	0.6398	0.104
Mof_C 	C 	0.3559	0.6592	0.6518	-0.146
Mof_C 	C 	0.2168	0.5842	0.609	0.05
Mof_C 	C 	0.0715	0.6072	0.561	-0.099
Mof_C 	C 	0.0614	0.7029	0.5528	0.147
Mof_C 	C 	0.2287	0.4801	0.6134	0.059
Mof_C 	C 	0.3562	0.4719	0.6924	-0.129
Mof_C 	C 	0.3747	0.3718	0.6874	0.061
Mof_C 	C 	0.2686	0.2824	0.6086	-0.15
Mof_C 	C 	0.1403	0.2919	0.5346	0.092
Mof_C 	C 	0.1225	0.3904	0.535	-0.144
Mof_C 	C 	0.311	0.1742	0.599	0.408
Mof_C 	C 	0.2226	0.8335	0.3326	0.583
Mof_C 	C 	0.1789	0.7345	0.2358	-0.395
Mof_C 	C 	0.2888	0.6889	0.1936	0.281
Mof_C 	C 	0.2483	0.5958	0.1006	-0.285
Mof_C 	C 	0.0831	0.548	0.0482	0.211
Mof_C 	C 	0.9695	0.6006	0.089	-0.434
Mof_C 	C 	0.0169	0.6899	0.1838	0.408
Mof_C 	C 	0.6264	0.1286	0.4264	0.51
Mof_C 	C 	0.6122	0.2263	0.4088	-0.206
Mof_C 	C 	0.7106	0.2458	0.3602	0.099
Mof_C 	C 	0.7041	0.3408	0.3482	-0.157
Mof_C 	C 	0.6078	0.4158	0.391	0.068
Mof_C 	C 	0.5105	0.3928	0.439	-0.153
Mof_C 	C 	0.5086	0.2971	0.4472	0.098
Mof_C 	C 	0.6153	0.5199	0.3866	0.041
Mof_C 	C 	0.6638	0.5281	0.3076	-0.123
Mof_C 	C 	0.6873	0.6282	0.3126	0.054
Mof_C 	C 	0.66	0.7176	0.3914	-0.151
Mof_C 	C 	0.6057	0.7081	0.4654	0.084
Mof_C 	C 	0.5875	0.6096	0.465	-0.138
Mof_C 	C 	0.712	0.8258	0.401	0.406
Mof_C 	C 	0.89	0.1665	0.6674	0.556
Mof_C 	C 	0.9431	0.2655	0.7642	-0.34
Mof_C 	C 	0.0952	0.3111	0.8064	0.244
Mof_C 	C 	0.1477	0.4042	0.8994	-0.208
Mof_C 	C 	0.0349	0.452	0.9518	0.098
Mof_C 	C 	0.8805	0.3994	0.911	-0.241
Mof_C 	C 	0.8331	0.3101	0.8162	0.186
Mof_O 	O 	0.3265	0.9167	0.5834	-0.548
Mof_O 	O 	0.0585	0.9015	0.5512	-0.446
Mof_O 	O 	0.2255	0.0924	0.5188	-0.518
Mof_O 	O 	0.4324	0.1677	0.6618	-0.439
Mof_O 	O 	0.3666	0.8735	0.3784	-0.517
Mof_O 	O 	0.1066	0.875	0.3636	-0.511
Mof_O 	O 	0.7431	0.0833	0.4166	-0.55
Mof_O 	O 	0.5073	0.0985	0.4488	-0.476
Mof_O 	O 	0.7067	0.9076	0.4812	-0.53
Mof_O 	O 	0.7706	0.8323	0.3382	-0.438
Mof_O 	O 	0.9882	0.1265	0.6216	-0.526
Mof_O 	O 	0.743	0.125	0.6364	-0.534
_end
