data_functionalizedCrystal
_audit_creation_method	'EQeq! by Chris Wilmer'
_symmetry_space_group_name_H-M	'P1'
_symmetry_Int_Tables_number	1
_symmetry_cell_setting	triclinic
loop_
_symmetry_equiv_pos_as_xyz
  x,y,z
_cell_length_a	12.2679
_cell_length_b	13.9199
_cell_length_c	13.9199
_cell_angle_alpha	78.8032
_cell_angle_beta	63.8541
_cell_angle_gamma	63.8541
loop_
_atom_site_label
_atom_site_type_symbol
_atom_site_fract_x
_atom_site_fract_y
_atom_site_fract_z
_atom_site_charge
Mof_V 	V 	0.66259	0.50353	0.20691	1.845
Mof_V 	V 	0.08728	0.49904	0.79766	1.803
Mof_V 	V 	0.65354	0.37736	0.43356	1.738
Mof_V 	V 	0.37303	0.49647	0.79309	1.845
Mof_V 	V 	0.38398	0.50096	0.20234	1.832
Mof_V 	V 	0.46446	0.62264	0.56644	1.739
Mof_V 	V 	0.8695	0.79309	0.50353	1.848
Mof_V 	V 	0.88494	0.20234	0.49904	1.848
Mof_V 	V 	0.0871	0.56644	0.37736	1.724
Mof_V 	V 	0.16612	0.20691	0.49647	1.845
Mof_V 	V 	0.58632	0.79766	0.50096	1.834
Mof_V 	V 	0.0309	0.43356	0.62264	1.727
Mof_Ni	Ni	0.95433	0.33243	0.00227	1.142
Mof_Ni	Ni	0.62662	0.22877	0.76867	1.125
Mof_Ni	Ni	0.28903	0.66757	0.99773	1.128
Mof_Ni	Ni	0.62406	0.77123	0.23133	1.125
Mof_Ni	Ni	0.9566	0.99773	0.33243	1.141
Mof_Ni	Ni	0.39529	0.23133	0.22877	1.125
Mof_Ni	Ni	0.28676	0.00227	0.66757	1.125
Mof_Ni	Ni	0.85539	0.76867	0.77123	1.127
Mof_H 	H 	0.6671	0.4448	0.9906	0.006
Mof_H 	H 	0.5652	0.3995	0.9141	0.019
Mof_H 	H 	0.8974	0.1601	0.7683	0.049
Mof_H 	H 	0.0757	0.32	0.3072	-0.069
Mof_H 	H 	0.9389	0.348	0.2234	0.077
Mof_H 	H 	0.2399	0.2866	0.9458	0.01
Mof_H 	H 	0.1025	0.5552	0.0094	0.035
Mof_H 	H 	0.8788	0.6005	0.0859	-0.016
Mof_H 	H 	0.8258	0.8399	0.2317	-0.011
Mof_H 	H 	0.7029	0.68	0.6928	-0.028
Mof_H 	H 	0.5103	0.652	0.7766	-0.007
Mof_H 	H 	0.4723	0.7134	0.0542	0.008
Mof_H 	H 	0.6577	0.0094	0.4448	0.003
Mof_H 	H 	0.4793	0.0859	0.3995	0.017
Mof_H 	H 	0.6657	0.2317	0.1601	0.016
Mof_H 	H 	0.3829	0.6928	0.32	-0.033
Mof_H 	H 	0.1623	0.7766	0.348	-0.026
Mof_H 	H 	0.1857	0.0542	0.2866	-0.003
Mof_H 	H 	0.1119	0.9906	0.5552	-0.043
Mof_H 	H 	0.9647	0.9141	0.6005	0.142
Mof_H 	H 	0.0575	0.7683	0.8399	0.029
Mof_H 	H 	0.3957	0.3072	0.68	-0.034
Mof_H 	H 	0.2869	0.2234	0.652	-0.009
Mof_H 	H 	0.5265	0.9458	0.7134	0.024
Mof_C 	C 	0.7152	0.385	0.9464	-0.007
Mof_C 	C 	0.6543	0.358	0.8998	-0.007
Mof_C 	C 	0.8475	0.2181	0.8149	0.015
Mof_C 	C 	0.9069	0.2453	0.8619	-0
Mof_C 	C 	0.0541	0.1828	0.8406	0.269
Mof_C 	C 	0.1112	0.3127	0.2333	0.049
Mof_C 	C 	0.0291	0.3293	0.1823	-0.133
Mof_C 	C 	0.2048	0.293	0.0198	0.047
Mof_C 	C 	0.2897	0.2749	0.0701	-0.072
Mof_C 	C 	0.4342	0.2412	0.0114	0.336
Mof_C 	C 	0.0466	0.615	0.0536	-0.135
Mof_C 	C 	0.9121	0.642	0.1002	0.114
Mof_C 	C 	0.8805	0.7819	0.1851	0.144
Mof_C 	C 	0.0141	0.7547	0.1381	-0.162
Mof_C 	C 	0.0775	0.8172	0.1594	0.291
Mof_C 	C 	0.6572	0.6873	0.7667	-0.01
Mof_C 	C 	0.5407	0.6707	0.8177	0.012
Mof_C 	C 	0.5176	0.707	0.9802	0.065
Mof_C 	C 	0.6347	0.7251	0.9299	-0.08
Mof_C 	C 	0.6868	0.7588	0.9886	0.351
Mof_C 	C 	0.6616	0.0536	0.385	-0.013
Mof_C 	C 	0.5541	0.1002	0.358	-0.007
Mof_C 	C 	0.6624	0.1851	0.2181	0.044
Mof_C 	C 	0.7688	0.1381	0.2453	-0.079
Mof_C 	C 	0.8947	0.1594	0.1828	0.34
Mof_C 	C 	0.3445	0.7667	0.3127	-0.016
Mof_C 	C 	0.2114	0.8177	0.3293	0.011
Mof_C 	C 	0.2246	0.9802	0.293	0.067
Mof_C 	C 	0.3598	0.9299	0.2749	-0.084
Mof_C 	C 	0.4456	0.9886	0.2412	0.35
Mof_C 	C 	0.1002	0.9464	0.615	0.093
Mof_C 	C 	0.0123	0.8998	0.642	-0.249
Mof_C 	C 	0.0656	0.8149	0.7819	-0.056
Mof_C 	C 	0.1522	0.8619	0.7547	-0.048
Mof_C 	C 	0.2369	0.8406	0.8172	0.327
Mof_C 	C 	0.4239	0.2333	0.6873	-0.011
Mof_C 	C 	0.3584	0.1823	0.6707	0.009
Mof_C 	C 	0.4978	0.0198	0.707	0.04
Mof_C 	C 	0.5646	0.0701	0.7251	-0.071
Mof_C 	C 	0.6754	0.0114	0.7588	0.331
Mof_N 	N 	0.844	0.3259	0.9287	-0.197
Mof_N 	N 	0.7198	0.273	0.8342	-0.197
Mof_N 	N 	0.2398	0.2866	0.1768	-0.204
Mof_N 	N 	0.0749	0.3192	0.076	-0.2
Mof_N 	N 	0.0986	0.6741	0.0713	-0.165
Mof_N 	N 	0.827	0.727	0.1658	-0.237
Mof_N 	N 	0.7032	0.7134	0.8232	-0.189
Mof_N 	N 	0.4701	0.6808	0.924	-0.207
Mof_N 	N 	0.7727	0.0713	0.3259	-0.195
Mof_N 	N 	0.554	0.1658	0.273	-0.206
Mof_N 	N 	0.4166	0.8232	0.2866	-0.19
Mof_N 	N 	0.1509	0.924	0.3192	-0.227
Mof_N 	N 	0.1699	0.9287	0.6741	-0.221
Mof_N 	N 	0.9928	0.8342	0.727	-0.098
Mof_N 	N 	0.5264	0.1768	0.7134	-0.193
Mof_N 	N 	0.3941	0.076	0.6808	-0.203
Mof_O 	O 	0.0978	0.2115	0.8917	-0.404
Mof_O 	O 	0.1164	0.1095	0.7729	-0.405
Mof_O 	O 	0.5045	0.2157	0.0647	-0.376
Mof_O 	O 	0.4722	0.2423	0.9113	-0.405
Mof_O 	O 	0.798	0.4613	0.0985	-0.672
Mof_O 	O 	0.5115	0.388	0.7456	-0.724
Mof_O 	O 	0.6754	0.3966	0.3004	-0.882
Mof_O 	O 	0.5217	0.5289	0.1833	-0.814
Mof_O 	O 	0.9992	0.4481	0.8997	-0.665
Mof_O 	O 	0.7831	0.2148	0.6266	-0.727
Mof_O 	O 	0.1363	0.4324	0.6766	-0.891
Mof_O 	O 	0.201	0.7885	0.1083	-0.387
Mof_O 	O 	0.9988	0.8905	0.2271	-0.347
Mof_O 	O 	0.7849	0.7843	0.9353	-0.365
Mof_O 	O 	0.6258	0.7577	0.0887	-0.413
Mof_O 	O 	0.3578	0.5387	0.9015	-0.677
Mof_O 	O 	0.6451	0.612	0.2544	-0.723
Mof_O 	O 	0.3724	0.6034	0.6996	-0.885
Mof_O 	O 	0.2339	0.4711	0.8167	-0.827
Mof_O 	O 	0.347	0.5519	0.1003	-0.719
Mof_O 	O 	0.6245	0.7852	0.3734	-0.735
Mof_O 	O 	0.2453	0.5676	0.3234	-0.881
Mof_O 	O 	0.9895	0.1083	0.2115	-0.365
Mof_O 	O 	0.8893	0.2271	0.1095	-0.391
Mof_O 	O 	0.5692	0.9353	0.2157	-0.376
Mof_O 	O 	0.3835	0.0887	0.2423	-0.413
Mof_O 	O 	0.8965	0.9015	0.4613	-0.665
Mof_O 	O 	0.2571	0.2544	0.388	-0.727
Mof_O 	O 	0.9758	0.6996	0.3966	-0.842
Mof_O 	O 	0.705	0.8167	0.5289	-0.81
Mof_O 	O 	0.8989	0.1003	0.4481	-0.701
Mof_O 	O 	0.4097	0.3734	0.2148	-0.74
Mof_O 	O 	0.8129	0.3234	0.4324	-0.857
Mof_O 	O 	0.3093	0.8917	0.7885	-0.389
Mof_O 	O 	0.2259	0.7729	0.8905	-0.405
Mof_O 	O 	0.7202	0.0647	0.7843	-0.365
Mof_O 	O 	0.7145	0.9113	0.7577	-0.398
Mof_O 	O 	0.2593	0.0985	0.5387	-0.68
Mof_O 	O 	0.8995	0.7456	0.612	-0.708
Mof_O 	O 	0.072	0.3004	0.6034	-0.901
Mof_O 	O 	0.0506	0.1833	0.4711	-0.844
Mof_O 	O 	0.4473	0.8997	0.5519	-0.714
Mof_O 	O 	0.9979	0.6266	0.7852	-0.693
Mof_O 	O 	0.5687	0.6766	0.5676	-0.869
Mof_O 	O 	0.5496	0.5	0.5	-0.978
Mof_O 	O 	0.0496	0.5	0.5	-1.003
_end
