data_functionalizedCrystal
_audit_creation_method	'EQeq! by Chris Wilmer'
_symmetry_space_group_name_H-M	'P1'
_symmetry_Int_Tables_number	1
_symmetry_cell_setting	triclinic
loop_
_symmetry_equiv_pos_as_xyz
  x,y,z
_cell_length_a	7.859
_cell_length_b	13.253
_cell_length_c	17.452
_cell_angle_alpha	90
_cell_angle_beta	105.258
_cell_angle_gamma	90
loop_
_atom_site_label
_atom_site_type_symbol
_atom_site_fract_x
_atom_site_fract_y
_atom_site_fract_z
_atom_site_charge
Mof_Cu	Cu	0.72744	0.60358	0.55339	0.928
Mof_O 	O 	0.83	0.5035	0.4976	-0.633
Mof_H 	H 	0.7462	0.4494	0.4757	0.212
Mof_N 	N 	0.6909	0.6924	0.4555	-0.178
Mof_C 	C 	0.7753	0.4262	0.6597	0.381
Mof_Cu	Cu	0.9518	0.5505	0.42103	0.921
Mof_O 	O 	0.9161	0.3938	0.6477	-0.413
Mof_N 	N 	0.8089	0.6804	0.4097	-0.179
Mof_C 	C 	0.7084	0.3676	0.7192	-0.099
Mof_O 	O 	0.69	0.5013	0.6286	-0.42
Mof_N 	N 	0.6576	0.8167	0.3732	-0.094
Mof_C 	C 	0.5477	0.3924	0.734	0.008
Mof_H 	H 	0.4812	0.4457	0.707	0.041
Mof_O 	O 	0.0061	0.177	0.9071	-0.362
Mof_N 	N 	0.598	0.906	0.3336	-0.25
Mof_H 	H 	0.5195	0.9418	0.347	0.151
Mof_H 	H 	0.6415	0.9258	0.2957	0.154
Mof_C 	C 	0.4873	0.3377	0.7888	-0.051
Mof_H 	H 	0.379	0.3537	0.7978	0.066
Mof_O 	O 	0.8216	0.0607	0.8393	-0.364
Mof_C 	C 	0.587	0.2582	0.8312	-0.025
Mof_O 	O 	0.6271	0.1605	0.9488	-0.318
Mof_C 	C 	0.5214	0.2023	0.8924	0.313
Mof_O 	O 	0.3551	0.2039	0.8838	-0.365
Mof_C 	C 	0.7475	0.2349	0.8165	-0.06
Mof_C 	C 	0.8675	0.1511	0.8589	0.334
Mof_C 	C 	0.8072	0.2886	0.7604	0.028
Mof_H 	H 	0.9141	0.2716	0.7504	0.046
Mof_C 	C 	0.7876	0.7578	0.3619	0.104
Mof_H 	H 	0.8528	0.7702	0.3255	0.013
Mof_C 	C 	0.6022	0.7757	0.4331	0.102
Mof_H 	H 	0.5158	0.8022	0.4549	0.012
Mof_Cu	Cu	0.27256	0.10358	0.94661	0.927
Mof_O 	O 	0.17	0.0035	0.0024	-0.634
Mof_H 	H 	0.2538	0.9494	0.0243	0.21
Mof_N 	N 	0.3091	0.1924	0.0445	-0.179
Mof_C 	C 	0.2247	0.9262	0.8403	0.383
Mof_Cu	Cu	0.0482	0.0505	0.07897	0.921
Mof_O 	O 	0.0839	0.8938	0.8523	-0.413
Mof_N 	N 	0.1911	0.1804	0.0903	-0.179
Mof_C 	C 	0.2916	0.8676	0.7808	-0.099
Mof_O 	O 	0.31	0.0013	0.8714	-0.421
Mof_N 	N 	0.3424	0.3167	0.1268	-0.094
Mof_C 	C 	0.4523	0.8924	0.766	0.008
Mof_H 	H 	0.5188	0.9457	0.793	0.041
Mof_O 	O 	0.9939	0.677	0.5929	-0.362
Mof_N 	N 	0.402	0.406	0.1664	-0.25
Mof_H 	H 	0.4805	0.4418	0.153	0.151
Mof_H 	H 	0.3585	0.4258	0.2043	0.154
Mof_C 	C 	0.5127	0.8377	0.7112	-0.051
Mof_H 	H 	0.621	0.8537	0.7022	0.066
Mof_O 	O 	0.1784	0.5607	0.6607	-0.364
Mof_C 	C 	0.413	0.7582	0.6688	-0.025
Mof_O 	O 	0.3729	0.6605	0.5512	-0.318
Mof_C 	C 	0.4786	0.7023	0.6076	0.313
Mof_O 	O 	0.6449	0.7039	0.6162	-0.365
Mof_C 	C 	0.2525	0.7349	0.6835	-0.06
Mof_C 	C 	0.1325	0.6511	0.6411	0.334
Mof_C 	C 	0.1928	0.7886	0.7396	0.028
Mof_H 	H 	0.0859	0.7716	0.7496	0.046
Mof_C 	C 	0.2124	0.2578	0.1381	0.104
Mof_H 	H 	0.1472	0.2702	0.1745	0.013
Mof_C 	C 	0.3978	0.2757	0.0669	0.102
Mof_H 	H 	0.4842	0.3022	0.0451	0.012
Mof_Cu	Cu	0.27256	0.39642	0.44661	0.927
Mof_O 	O 	0.17	0.4965	0.5024	-0.634
Mof_H 	H 	0.2538	0.5506	0.5243	0.211
Mof_N 	N 	0.3091	0.3076	0.5445	-0.179
Mof_C 	C 	0.2247	0.5738	0.3403	0.381
Mof_Cu	Cu	0.0482	0.4495	0.57897	0.921
Mof_O 	O 	0.0839	0.6062	0.3523	-0.413
Mof_N 	N 	0.1911	0.3196	0.5903	-0.179
Mof_C 	C 	0.2916	0.6324	0.2808	-0.099
Mof_O 	O 	0.31	0.4987	0.3714	-0.42
Mof_N 	N 	0.3424	0.1833	0.6268	-0.094
Mof_C 	C 	0.4523	0.6076	0.266	0.008
Mof_H 	H 	0.5188	0.5543	0.293	0.041
Mof_O 	O 	0.9939	0.823	0.0929	-0.362
Mof_N 	N 	0.402	0.094	0.6664	-0.25
Mof_H 	H 	0.4805	0.0582	0.653	0.151
Mof_H 	H 	0.3585	0.0742	0.7043	0.154
Mof_C 	C 	0.5127	0.6623	0.2112	-0.051
Mof_H 	H 	0.621	0.6463	0.2022	0.066
Mof_O 	O 	0.1784	0.9393	0.1607	-0.364
Mof_C 	C 	0.413	0.7418	0.1688	-0.025
Mof_O 	O 	0.3729	0.8395	0.0512	-0.318
Mof_C 	C 	0.4786	0.7977	0.1076	0.313
Mof_O 	O 	0.6449	0.7961	0.1162	-0.365
Mof_C 	C 	0.2525	0.7651	0.1835	-0.06
Mof_C 	C 	0.1325	0.8489	0.1411	0.334
Mof_C 	C 	0.1928	0.7114	0.2396	0.028
Mof_H 	H 	0.0859	0.7284	0.2496	0.046
Mof_C 	C 	0.2124	0.2422	0.6381	0.104
Mof_H 	H 	0.1472	0.2298	0.6745	0.013
Mof_C 	C 	0.3978	0.2243	0.5669	0.102
Mof_H 	H 	0.4842	0.1978	0.5451	0.012
Mof_Cu	Cu	0.72744	0.89642	0.05339	0.927
Mof_O 	O 	0.83	0.9965	0.9976	-0.634
Mof_H 	H 	0.7462	0.0506	0.9757	0.21
Mof_N 	N 	0.6909	0.8076	0.9555	-0.179
Mof_C 	C 	0.7753	0.0738	0.1597	0.383
Mof_Cu	Cu	0.9518	0.9495	0.92103	0.921
Mof_O 	O 	0.9161	0.1062	0.1477	-0.413
Mof_N 	N 	0.8089	0.8196	0.9097	-0.179
Mof_C 	C 	0.7084	0.1324	0.2192	-0.099
Mof_O 	O 	0.69	0.9987	0.1286	-0.421
Mof_N 	N 	0.6576	0.6833	0.8732	-0.094
Mof_C 	C 	0.5477	0.1076	0.234	0.008
Mof_H 	H 	0.4812	0.0543	0.207	0.041
Mof_O 	O 	0.0061	0.323	0.4071	-0.362
Mof_N 	N 	0.598	0.594	0.8336	-0.25
Mof_H 	H 	0.5195	0.5582	0.847	0.151
Mof_H 	H 	0.6415	0.5742	0.7957	0.154
Mof_C 	C 	0.4873	0.1623	0.2888	-0.051
Mof_H 	H 	0.379	0.1463	0.2978	0.066
Mof_O 	O 	0.8216	0.4393	0.3393	-0.364
Mof_C 	C 	0.587	0.2418	0.3312	-0.025
Mof_O 	O 	0.6271	0.3395	0.4488	-0.318
Mof_C 	C 	0.5214	0.2977	0.3924	0.313
Mof_O 	O 	0.3551	0.2961	0.3838	-0.365
Mof_C 	C 	0.7475	0.2651	0.3165	-0.06
Mof_C 	C 	0.8675	0.3489	0.3589	0.334
Mof_C 	C 	0.8072	0.2114	0.2604	0.028
Mof_H 	H 	0.9141	0.2284	0.2504	0.046
Mof_C 	C 	0.7876	0.7422	0.8619	0.104
Mof_H 	H 	0.8528	0.7298	0.8255	0.013
Mof_C 	C 	0.6022	0.7243	0.9331	0.102
Mof_H 	H 	0.5158	0.6978	0.9549	0.012
_end
