data_functionalizedCrystal
_audit_creation_method	'EQeq! by Chris Wilmer'
_symmetry_space_group_name_H-M	'P1'
_symmetry_Int_Tables_number	1
_symmetry_cell_setting	triclinic
loop_
_symmetry_equiv_pos_as_xyz
  x,y,z
_cell_length_a	10.0616
_cell_length_b	12.8746
_cell_length_c	12.922
_cell_angle_alpha	71.2174
_cell_angle_beta	67.0877
_cell_angle_gamma	66.9985
loop_
_atom_site_label
_atom_site_type_symbol
_atom_site_fract_x
_atom_site_fract_y
_atom_site_fract_z
_atom_site_charge
Mof_Co	Co	0.96789	0.61341	0.89699	1.175
Mof_Co	Co	0.25042	0.16668	0.26298	1.189
Mof_Co	Co	0.47829	0.88659	0.60301	1.182
Mof_Co	Co	0.68008	0.33332	0.23702	1.189
Mof_Co	Co	0.03211	0.38659	0.10301	1.175
Mof_Co	Co	0.74958	0.83332	0.73702	1.189
Mof_Co	Co	0.52171	0.11341	0.39699	1.182
Mof_Co	Co	0.31992	0.66668	0.76298	1.189
Mof_H 	H 	0.8551	0.879	0.1616	0.062
Mof_H 	H 	0.9986	0.7456	0.0468	0.014
Mof_H 	H 	0.6356	0.7318	0.0136	-0.002
Mof_H 	H 	0.4844	0.8761	0.1153	0.063
Mof_H 	H 	0.136	0.9592	0.7418	0.006
Mof_H 	H 	0.0148	0.0161	0.5965	0.163
Mof_H 	H 	0.1377	0.9112	0.5382	0.153
Mof_H 	H 	0.8957	0.621	0.3384	0.063
Mof_H 	H 	0.791	0.7544	0.4532	0.011
Mof_H 	H 	0.381	0.7682	0.4864	-0.002
Mof_H 	H 	0.4758	0.6239	0.3847	0.064
Mof_H 	H 	0.837	0.5408	0.7582	0.001
Mof_H 	H 	0.6274	0.4839	0.9035	0.167
Mof_H 	H 	0.5871	0.5888	0.9618	0.153
Mof_H 	H 	0.1449	0.121	0.8384	0.062
Mof_H 	H 	0.0014	0.2544	0.9532	0.014
Mof_H 	H 	0.3644	0.2682	0.9864	-0.002
Mof_H 	H 	0.5156	0.1239	0.8847	0.063
Mof_H 	H 	0.864	0.0408	0.2582	0.006
Mof_H 	H 	0.9852	0.9839	0.4035	0.163
Mof_H 	H 	0.8623	0.0888	0.4618	0.153
Mof_H 	H 	0.1043	0.379	0.6616	0.063
Mof_H 	H 	0.209	0.2456	0.5468	0.011
Mof_H 	H 	0.619	0.2318	0.5136	-0.002
Mof_H 	H 	0.5242	0.3761	0.6153	0.064
Mof_H 	H 	0.163	0.4592	0.2418	0.001
Mof_H 	H 	0.3726	0.5161	0.0965	0.167
Mof_H 	H 	0.4129	0.4112	0.0382	0.153
Mof_C 	C 	0.5528	0.9854	0.2218	0.362
Mof_C 	C 	0.6533	0.8927	0.1509	-0.042
Mof_C 	C 	0.8072	0.8518	0.1298	-0.058
Mof_C 	C 	0.8918	0.7709	0.0623	0.05
Mof_C 	C 	0.6819	0.7644	0.0414	0.033
Mof_C 	C 	0.5904	0.8486	0.1042	-0.056
Mof_C 	C 	0.0334	0.8378	0.7532	0.313
Mof_C 	C 	0.1524	0.9044	0.695	0.113
Mof_C 	C 	0.1226	0.9688	0.5806	-0.425
Mof_C 	C 	0.2194	0.0473	0.5021	0.476
Mof_C 	C 	0.76	0.5146	0.2782	0.363
Mof_C 	C 	0.6969	0.6073	0.3491	-0.04
Mof_C 	C 	0.7888	0.6482	0.3702	-0.06
Mof_C 	C 	0.725	0.7291	0.4377	0.051
Mof_C 	C 	0.4877	0.7356	0.4586	0.033
Mof_C 	C 	0.5432	0.6514	0.3958	-0.057
Mof_C 	C 	0.6244	0.6622	0.7468	0.3
Mof_C 	C 	0.7518	0.5956	0.805	0.118
Mof_C 	C 	0.672	0.5312	0.9194	-0.432
Mof_C 	C 	0.7688	0.4527	0.9979	0.462
Mof_C 	C 	0.4472	0.0146	0.7782	0.362
Mof_C 	C 	0.3467	0.1073	0.8491	-0.042
Mof_C 	C 	0.1928	0.1482	0.8702	-0.058
Mof_C 	C 	0.1082	0.2291	0.9377	0.05
Mof_C 	C 	0.3181	0.2356	0.9586	0.033
Mof_C 	C 	0.4096	0.1514	0.8958	-0.056
Mof_C 	C 	0.9666	0.1622	0.2468	0.313
Mof_C 	C 	0.8476	0.0956	0.305	0.113
Mof_C 	C 	0.8774	0.0312	0.4194	-0.425
Mof_C 	C 	0.7806	0.9527	0.4979	0.476
Mof_C 	C 	0.24	0.4854	0.7218	0.363
Mof_C 	C 	0.3031	0.3927	0.6509	-0.04
Mof_C 	C 	0.2112	0.3518	0.6298	-0.06
Mof_C 	C 	0.275	0.2709	0.5623	0.051
Mof_C 	C 	0.5123	0.2644	0.5414	0.033
Mof_C 	C 	0.4568	0.3486	0.6042	-0.057
Mof_C 	C 	0.3756	0.3378	0.2532	0.3
Mof_C 	C 	0.2482	0.4044	0.195	0.118
Mof_C 	C 	0.328	0.4688	0.0806	-0.432
Mof_C 	C 	0.2312	0.5473	0.0021	0.462
Mof_N 	N 	0.8335	0.7256	0.0172	-0.214
Mof_N 	N 	0.5763	0.7744	0.4828	-0.217
Mof_N 	N 	0.1665	0.2744	0.9828	-0.214
Mof_N 	N 	0.4237	0.2256	0.5172	-0.217
Mof_O 	O 	0.61066	0.00618	0.2795	-0.422
Mof_O 	O 	0.41986	0.03068	0.2152	-0.449
Mof_O 	O 	0.08321	0.73218	0.794	-0.534
Mof_O 	O 	0.8964	0.8914	0.7638	-0.421
Mof_O 	O 	0.29973	0.82434	0.6792	-0.508
Mof_O 	O 	0.35693	0.02364	0.4981	-0.558
Mof_O 	O 	0.1576	0.1237	0.4327	-0.486
Mof_O 	O 	0.89634	0.49382	0.2205	-0.42
Mof_O 	O 	0.66574	0.46932	0.2848	-0.448
Mof_O 	O 	0.60939	0.76782	0.706	-0.534
Mof_O 	O 	0.5516	0.6086	0.7362	-0.41
Mof_O 	O 	0.80327	0.67566	0.8208	-0.512
Mof_O 	O 	0.87867	0.47636	0.0019	-0.545
Mof_O 	O 	0.714	0.3763	0.0673	-0.477
Mof_O 	O 	0.38934	0.99382	0.7205	-0.422
Mof_O 	O 	0.58014	0.96932	0.7848	-0.449
Mof_O 	O 	0.91679	0.26782	0.206	-0.534
Mof_O 	O 	0.1036	0.1086	0.2362	-0.421
Mof_O 	O 	0.70027	0.17566	0.3208	-0.508
Mof_O 	O 	0.64307	0.97636	0.5019	-0.558
Mof_O 	O 	0.8424	0.8763	0.5673	-0.486
Mof_O 	O 	0.10366	0.50618	0.7795	-0.42
Mof_O 	O 	0.33426	0.53068	0.7152	-0.448
Mof_O 	O 	0.39061	0.23218	0.294	-0.534
Mof_O 	O 	0.4484	0.3914	0.2638	-0.41
Mof_O 	O 	0.19673	0.32434	0.1792	-0.512
Mof_O 	O 	0.12133	0.52364	0.9981	-0.545
Mof_O 	O 	0.286	0.6237	0.9327	-0.477
_end
