data_functionalizedCrystal
_audit_creation_method	'EQeq! by Chris Wilmer'
_symmetry_space_group_name_H-M	'P1'
_symmetry_Int_Tables_number	1
_symmetry_cell_setting	triclinic
loop_
_symmetry_equiv_pos_as_xyz
  x,y,z
_cell_length_a	44.0612
_cell_length_b	44.0612
_cell_length_c	44.0612
_cell_angle_alpha	60
_cell_angle_beta	60
_cell_angle_gamma	60
loop_
_atom_site_label
_atom_site_type_symbol
_atom_site_fract_x
_atom_site_fract_y
_atom_site_fract_z
_atom_site_charge
Mof_Cu	Cu	0.99474	0.8523	0.24016	0.712
Mof_Cu	Cu	0.3523	0.49474	0.9128	0.712
Mof_Cu	Cu	0.74016	0.9128	0.49474	0.712
Mof_Cu	Cu	0.4128	0.24016	0.8523	0.712
Mof_Cu	Cu	0.99474	0.24016	0.9128	0.712
Mof_Cu	Cu	0.3523	0.9128	0.24016	0.712
Mof_Cu	Cu	0.74016	0.49474	0.8523	0.712
Mof_Cu	Cu	0.4128	0.8523	0.49474	0.712
Mof_Cu	Cu	0.99474	0.9128	0.8523	0.712
Mof_Cu	Cu	0.3523	0.24016	0.49474	0.712
Mof_Cu	Cu	0.74016	0.8523	0.9128	0.712
Mof_Cu	Cu	0.4128	0.49474	0.24016	0.712
Mof_Cu	Cu	0.6477	0.50526	0.75984	0.712
Mof_Cu	Cu	0.00526	0.1477	0.0872	0.712
Mof_Cu	Cu	0.5872	0.75984	0.50526	0.712
Mof_Cu	Cu	0.25984	0.0872	0.1477	0.712
Mof_Cu	Cu	0.25984	0.50526	0.0872	0.712
Mof_Cu	Cu	0.5872	0.1477	0.75984	0.712
Mof_Cu	Cu	0.00526	0.75984	0.1477	0.712
Mof_Cu	Cu	0.6477	0.0872	0.50526	0.712
Mof_Cu	Cu	0.5872	0.50526	0.1477	0.712
Mof_Cu	Cu	0.25984	0.1477	0.50526	0.712
Mof_Cu	Cu	0.6477	0.75984	0.0872	0.712
Mof_Cu	Cu	0.00526	0.0872	0.75984	0.712
Mof_Cu	Cu	0.00526	0.1477	0.75984	0.712
Mof_Cu	Cu	0.6477	0.50526	0.0872	0.712
Mof_Cu	Cu	0.25984	0.0872	0.50526	0.712
Mof_Cu	Cu	0.5872	0.75984	0.1477	0.712
Mof_Cu	Cu	0.00526	0.75984	0.0872	0.712
Mof_Cu	Cu	0.6477	0.0872	0.75984	0.712
Mof_Cu	Cu	0.25984	0.50526	0.1477	0.712
Mof_Cu	Cu	0.5872	0.1477	0.50526	0.712
Mof_Cu	Cu	0.00526	0.0872	0.1477	0.712
Mof_Cu	Cu	0.6477	0.75984	0.50526	0.712
Mof_Cu	Cu	0.25984	0.1477	0.0872	0.712
Mof_Cu	Cu	0.5872	0.50526	0.75984	0.712
Mof_Cu	Cu	0.3523	0.49474	0.24016	0.712
Mof_Cu	Cu	0.99474	0.8523	0.9128	0.712
Mof_Cu	Cu	0.4128	0.24016	0.49474	0.712
Mof_Cu	Cu	0.74016	0.9128	0.8523	0.712
Mof_Cu	Cu	0.74016	0.49474	0.9128	0.712
Mof_Cu	Cu	0.4128	0.8523	0.24016	0.712
Mof_Cu	Cu	0.99474	0.24016	0.8523	0.712
Mof_Cu	Cu	0.3523	0.9128	0.49474	0.712
Mof_Cu	Cu	0.4128	0.49474	0.8523	0.712
Mof_Cu	Cu	0.74016	0.8523	0.49474	0.712
Mof_Cu	Cu	0.3523	0.24016	0.9128	0.712
Mof_Cu	Cu	0.99474	0.9128	0.24016	0.712
Mof_Cu	Cu	0.14011	0.64011	0.57967	0.714
Mof_Cu	Cu	0.20256	0.70256	0.39232	0.718
Mof_Cu	Cu	0.14011	0.64011	0.64011	0.714
Mof_Cu	Cu	0.20256	0.70256	0.70256	0.718
Mof_Cu	Cu	0.07967	0.64011	0.64011	0.714
Mof_Cu	Cu	0.89232	0.70256	0.70256	0.718
Mof_Cu	Cu	0.14011	0.57967	0.64011	0.714
Mof_Cu	Cu	0.20256	0.39232	0.70256	0.718
Mof_Cu	Cu	0.85989	0.35989	0.42033	0.714
Mof_Cu	Cu	0.79744	0.29744	0.60768	0.718
Mof_Cu	Cu	0.85989	0.35989	0.35989	0.714
Mof_Cu	Cu	0.79744	0.29744	0.29744	0.718
Mof_Cu	Cu	0.85989	0.42033	0.35989	0.714
Mof_Cu	Cu	0.79744	0.60768	0.29744	0.718
Mof_Cu	Cu	0.92033	0.35989	0.35989	0.714
Mof_Cu	Cu	0.10768	0.29744	0.29744	0.718
Mof_Cu	Cu	0.18281	0.74297	0.33125	0.713
Mof_Cu	Cu	0.03079	0.84599	0.27723	0.717
Mof_Cu	Cu	0.95569	0.87153	0.30125	0.72
Mof_Cu	Cu	0.24297	0.68281	0.74297	0.713
Mof_Cu	Cu	0.34599	0.53079	0.84599	0.717
Mof_Cu	Cu	0.37153	0.45569	0.87153	0.72
Mof_Cu	Cu	0.83125	0.74297	0.68281	0.713
Mof_Cu	Cu	0.77723	0.84599	0.53079	0.717
Mof_Cu	Cu	0.80125	0.87153	0.45569	0.72
Mof_Cu	Cu	0.24297	0.33125	0.74297	0.713
Mof_Cu	Cu	0.34599	0.27723	0.84599	0.717
Mof_Cu	Cu	0.37153	0.30125	0.87153	0.72
Mof_Cu	Cu	0.18281	0.33125	0.74297	0.713
Mof_Cu	Cu	0.03079	0.27723	0.84599	0.717
Mof_Cu	Cu	0.95569	0.30125	0.87153	0.72
Mof_Cu	Cu	0.24297	0.74297	0.33125	0.713
Mof_Cu	Cu	0.34599	0.84599	0.27723	0.717
Mof_Cu	Cu	0.37153	0.87153	0.30125	0.72
Mof_Cu	Cu	0.83125	0.68281	0.74297	0.713
Mof_Cu	Cu	0.77723	0.53079	0.84599	0.717
Mof_Cu	Cu	0.80125	0.45569	0.87153	0.72
Mof_Cu	Cu	0.24297	0.74297	0.68281	0.713
Mof_Cu	Cu	0.34599	0.84599	0.53079	0.717
Mof_Cu	Cu	0.37153	0.87153	0.45569	0.72
Mof_Cu	Cu	0.18281	0.74297	0.74297	0.713
Mof_Cu	Cu	0.03079	0.84599	0.84599	0.717
Mof_Cu	Cu	0.95569	0.87153	0.87153	0.72
Mof_Cu	Cu	0.24297	0.33125	0.68281	0.713
Mof_Cu	Cu	0.34599	0.27723	0.53079	0.717
Mof_Cu	Cu	0.37153	0.30125	0.45569	0.72
Mof_Cu	Cu	0.83125	0.74297	0.74297	0.713
Mof_Cu	Cu	0.77723	0.84599	0.84599	0.717
Mof_Cu	Cu	0.80125	0.87153	0.87153	0.72
Mof_Cu	Cu	0.24297	0.68281	0.33125	0.713
Mof_Cu	Cu	0.34599	0.53079	0.27723	0.717
Mof_Cu	Cu	0.37153	0.45569	0.30125	0.72
Mof_Cu	Cu	0.75703	0.31719	0.66875	0.713
Mof_Cu	Cu	0.65401	0.46921	0.72277	0.717
Mof_Cu	Cu	0.62847	0.54431	0.69875	0.72
Mof_Cu	Cu	0.81719	0.25703	0.25703	0.713
Mof_Cu	Cu	0.96921	0.15401	0.15401	0.717
Mof_Cu	Cu	0.04431	0.12847	0.12847	0.72
Mof_Cu	Cu	0.75703	0.66875	0.31719	0.713
Mof_Cu	Cu	0.65401	0.72277	0.46921	0.717
Mof_Cu	Cu	0.62847	0.69875	0.54431	0.72
Mof_Cu	Cu	0.16875	0.25703	0.25703	0.713
Mof_Cu	Cu	0.22277	0.15401	0.15401	0.717
Mof_Cu	Cu	0.19875	0.12847	0.12847	0.72
Mof_Cu	Cu	0.16875	0.31719	0.25703	0.713
Mof_Cu	Cu	0.22277	0.46921	0.15401	0.717
Mof_Cu	Cu	0.19875	0.54431	0.12847	0.72
Mof_Cu	Cu	0.75703	0.25703	0.66875	0.713
Mof_Cu	Cu	0.65401	0.15401	0.72277	0.717
Mof_Cu	Cu	0.62847	0.12847	0.69875	0.72
Mof_Cu	Cu	0.81719	0.66875	0.25703	0.713
Mof_Cu	Cu	0.96921	0.72277	0.15401	0.717
Mof_Cu	Cu	0.04431	0.69875	0.12847	0.719
Mof_Cu	Cu	0.75703	0.25703	0.31719	0.712
Mof_Cu	Cu	0.65401	0.15401	0.46921	0.716
Mof_Cu	Cu	0.62847	0.12847	0.54431	0.719
Mof_Cu	Cu	0.75703	0.31719	0.25703	0.712
Mof_Cu	Cu	0.65401	0.46921	0.15401	0.716
Mof_Cu	Cu	0.62847	0.54431	0.12847	0.719
Mof_Cu	Cu	0.16875	0.25703	0.31719	0.712
Mof_Cu	Cu	0.22277	0.15401	0.46921	0.716
Mof_Cu	Cu	0.19875	0.12847	0.54431	0.719
Mof_Cu	Cu	0.75703	0.66875	0.25703	0.712
Mof_Cu	Cu	0.65401	0.72277	0.15401	0.716
Mof_Cu	Cu	0.62847	0.69875	0.12847	0.719
Mof_Cu	Cu	0.81719	0.25703	0.66875	0.712
Mof_Cu	Cu	0.96921	0.15401	0.72277	0.716
Mof_Cu	Cu	0.04431	0.12847	0.69875	0.719
Mof_H 	H 	0.2042	0.6702	0.512	0.057
Mof_H 	H 	0.1892	0.7246	0.4512	0.034
Mof_H 	H 	0.1008	0.7864	0.3614	0.054
Mof_H 	H 	0.1379	0.8275	0.3027	0.048
Mof_H 	H 	0.161	0.8168	0.2662	0.049
Mof_H 	H 	0.0522	0.7862	0.34	0.036
Mof_H 	H 	0.112	0.8492	0.2486	0.044
Mof_H 	H 	0.089	0.8598	0.2848	0.04
Mof_H 	H 	0.9785	0.8709	0.1697	0.035
Mof_H 	H 	0.0219	0.8553	0.1569	0.039
Mof_H 	H 	0.0553	0.8001	0.1953	0.048
Mof_H 	H 	0.0331	0.7757	0.2325	0.047
Mof_H 	H 	0.9431	0.8357	0.2263	0.033
Mof_H 	H 	0.9635	0.7985	0.2517	0.033
Mof_H 	H 	0.8966	0.9234	0.35	0.044
Mof_H 	H 	0.8746	0.9282	0.328	0.043
Mof_H 	H 	0.1702	0.7042	0.6136	0.057
Mof_H 	H 	0.2246	0.6892	0.635	0.034
Mof_H 	H 	0.2864	0.6008	0.7514	0.054
Mof_H 	H 	0.3275	0.6379	0.7319	0.048
Mof_H 	H 	0.3168	0.661	0.756	0.049
Mof_H 	H 	0.2862	0.5522	0.8216	0.036
Mof_H 	H 	0.3492	0.612	0.7902	0.044
Mof_H 	H 	0.3598	0.589	0.7664	0.04
Mof_H 	H 	0.3709	0.4785	0.9809	0.035
Mof_H 	H 	0.3553	0.5219	0.9659	0.039
Mof_H 	H 	0.3001	0.5553	0.9493	0.048
Mof_H 	H 	0.2757	0.5331	0.9587	0.047
Mof_H 	H 	0.3357	0.4431	0.9949	0.033
Mof_H 	H 	0.2985	0.4635	0.9863	0.033
Mof_H 	H 	0.4234	0.3966	0.83	0.044
Mof_H 	H 	0.4282	0.3746	0.8692	0.043
Mof_H 	H 	0.012	0.6136	0.7042	0.057
Mof_H 	H 	0.9512	0.635	0.6892	0.034
Mof_H 	H 	0.8614	0.7514	0.6008	0.054
Mof_H 	H 	0.8027	0.7319	0.6379	0.048
Mof_H 	H 	0.7662	0.756	0.661	0.049
Mof_H 	H 	0.84	0.8216	0.5522	0.036
Mof_H 	H 	0.7486	0.7902	0.612	0.044
Mof_H 	H 	0.7848	0.7664	0.589	0.04
Mof_H 	H 	0.6697	0.9809	0.4785	0.035
Mof_H 	H 	0.6569	0.9659	0.5219	0.039
Mof_H 	H 	0.6953	0.9493	0.5553	0.048
Mof_H 	H 	0.7325	0.9587	0.5331	0.047
Mof_H 	H 	0.7263	0.9949	0.4431	0.033
Mof_H 	H 	0.7517	0.9863	0.4635	0.033
Mof_H 	H 	0.85	0.83	0.3966	0.044
Mof_H 	H 	0.828	0.8692	0.3746	0.043
Mof_H 	H 	0.1136	0.512	0.6702	0.057
Mof_H 	H 	0.135	0.4512	0.7246	0.034
Mof_H 	H 	0.2514	0.3614	0.7864	0.054
Mof_H 	H 	0.2319	0.3027	0.8275	0.048
Mof_H 	H 	0.256	0.2662	0.8168	0.049
Mof_H 	H 	0.3216	0.34	0.7862	0.036
Mof_H 	H 	0.2902	0.2486	0.8492	0.044
Mof_H 	H 	0.2664	0.2848	0.8598	0.04
Mof_H 	H 	0.4809	0.1697	0.8709	0.035
Mof_H 	H 	0.4659	0.1569	0.8553	0.039
Mof_H 	H 	0.4493	0.1953	0.8001	0.048
Mof_H 	H 	0.4587	0.2325	0.7757	0.047
Mof_H 	H 	0.4949	0.2263	0.8357	0.033
Mof_H 	H 	0.4863	0.2517	0.7985	0.033
Mof_H 	H 	0.33	0.35	0.9234	0.044
Mof_H 	H 	0.3692	0.328	0.9282	0.043
Mof_H 	H 	0.2042	0.512	0.6136	0.057
Mof_H 	H 	0.1892	0.4512	0.635	0.034
Mof_H 	H 	0.1008	0.3614	0.7514	0.054
Mof_H 	H 	0.1379	0.3027	0.7319	0.048
Mof_H 	H 	0.161	0.2662	0.756	0.049
Mof_H 	H 	0.0522	0.34	0.8216	0.036
Mof_H 	H 	0.112	0.2486	0.7902	0.044
Mof_H 	H 	0.089	0.2848	0.7664	0.04
Mof_H 	H 	0.9785	0.1697	0.9809	0.035
Mof_H 	H 	0.0219	0.1569	0.9659	0.039
Mof_H 	H 	0.0553	0.1953	0.9493	0.048
Mof_H 	H 	0.0331	0.2325	0.9587	0.047
Mof_H 	H 	0.9431	0.2263	0.9949	0.033
Mof_H 	H 	0.9635	0.2517	0.9863	0.033
Mof_H 	H 	0.8966	0.35	0.83	0.044
Mof_H 	H 	0.8746	0.328	0.8692	0.043
Mof_H 	H 	0.1702	0.6136	0.512	0.057
Mof_H 	H 	0.2246	0.635	0.4512	0.034
Mof_H 	H 	0.2864	0.7514	0.3614	0.054
Mof_H 	H 	0.3275	0.7319	0.3027	0.048
Mof_H 	H 	0.3168	0.756	0.2662	0.049
Mof_H 	H 	0.2862	0.8216	0.34	0.036
Mof_H 	H 	0.3492	0.7902	0.2486	0.044
Mof_H 	H 	0.3598	0.7664	0.2848	0.04
Mof_H 	H 	0.3709	0.9809	0.1697	0.035
Mof_H 	H 	0.3553	0.9659	0.1569	0.039
Mof_H 	H 	0.3001	0.9493	0.1953	0.048
Mof_H 	H 	0.2757	0.9587	0.2325	0.047
Mof_H 	H 	0.3357	0.9949	0.2263	0.033
Mof_H 	H 	0.2985	0.9863	0.2517	0.033
Mof_H 	H 	0.4234	0.83	0.35	0.044
Mof_H 	H 	0.4282	0.8692	0.328	0.043
Mof_H 	H 	0.012	0.7042	0.6702	0.057
Mof_H 	H 	0.9512	0.6892	0.7246	0.034
Mof_H 	H 	0.8614	0.6008	0.7864	0.054
Mof_H 	H 	0.8027	0.6379	0.8275	0.048
Mof_H 	H 	0.7662	0.661	0.8168	0.049
Mof_H 	H 	0.84	0.5522	0.7862	0.036
Mof_H 	H 	0.7486	0.612	0.8492	0.044
Mof_H 	H 	0.7848	0.589	0.8598	0.04
Mof_H 	H 	0.6697	0.4785	0.8709	0.035
Mof_H 	H 	0.6569	0.5219	0.8553	0.039
Mof_H 	H 	0.6953	0.5553	0.8001	0.048
Mof_H 	H 	0.7325	0.5331	0.7757	0.047
Mof_H 	H 	0.7263	0.4431	0.8357	0.033
Mof_H 	H 	0.7517	0.4635	0.7985	0.033
Mof_H 	H 	0.85	0.3966	0.9234	0.044
Mof_H 	H 	0.828	0.3746	0.9282	0.043
Mof_H 	H 	0.1136	0.6702	0.7042	0.057
Mof_H 	H 	0.135	0.7246	0.6892	0.034
Mof_H 	H 	0.2514	0.7864	0.6008	0.054
Mof_H 	H 	0.2319	0.8275	0.6379	0.048
Mof_H 	H 	0.256	0.8168	0.661	0.049
Mof_H 	H 	0.3216	0.7862	0.5522	0.036
Mof_H 	H 	0.2902	0.8492	0.612	0.044
Mof_H 	H 	0.2664	0.8598	0.589	0.04
Mof_H 	H 	0.4809	0.8709	0.4785	0.035
Mof_H 	H 	0.4659	0.8553	0.5219	0.039
Mof_H 	H 	0.4493	0.8001	0.5553	0.048
Mof_H 	H 	0.4587	0.7757	0.5331	0.047
Mof_H 	H 	0.4949	0.8357	0.4431	0.033
Mof_H 	H 	0.4863	0.7985	0.4635	0.033
Mof_H 	H 	0.33	0.9234	0.3966	0.044
Mof_H 	H 	0.3692	0.9282	0.3746	0.043
Mof_H 	H 	0.2042	0.6136	0.6702	0.057
Mof_H 	H 	0.1892	0.635	0.7246	0.034
Mof_H 	H 	0.1008	0.7514	0.7864	0.054
Mof_H 	H 	0.1379	0.7319	0.8275	0.048
Mof_H 	H 	0.161	0.756	0.8168	0.049
Mof_H 	H 	0.0522	0.8216	0.7862	0.036
Mof_H 	H 	0.112	0.7902	0.8492	0.044
Mof_H 	H 	0.089	0.7664	0.8598	0.04
Mof_H 	H 	0.9785	0.9809	0.8709	0.035
Mof_H 	H 	0.0219	0.9659	0.8553	0.039
Mof_H 	H 	0.0553	0.9493	0.8001	0.048
Mof_H 	H 	0.0331	0.9587	0.7757	0.047
Mof_H 	H 	0.9431	0.9949	0.8357	0.033
Mof_H 	H 	0.9635	0.9863	0.7985	0.033
Mof_H 	H 	0.8966	0.83	0.9234	0.044
Mof_H 	H 	0.8746	0.8692	0.9282	0.043
Mof_H 	H 	0.1702	0.512	0.7042	0.057
Mof_H 	H 	0.2246	0.4512	0.6892	0.034
Mof_H 	H 	0.2864	0.3614	0.6008	0.054
Mof_H 	H 	0.3275	0.3027	0.6379	0.048
Mof_H 	H 	0.3168	0.2662	0.661	0.049
Mof_H 	H 	0.2862	0.34	0.5522	0.036
Mof_H 	H 	0.3492	0.2486	0.612	0.044
Mof_H 	H 	0.3598	0.2848	0.589	0.04
Mof_H 	H 	0.3709	0.1697	0.4785	0.035
Mof_H 	H 	0.3553	0.1569	0.5219	0.039
Mof_H 	H 	0.3001	0.1953	0.5553	0.048
Mof_H 	H 	0.2757	0.2325	0.5331	0.047
Mof_H 	H 	0.3357	0.2263	0.4431	0.033
Mof_H 	H 	0.2985	0.2517	0.4635	0.033
Mof_H 	H 	0.4234	0.35	0.3966	0.044
Mof_H 	H 	0.4282	0.328	0.3746	0.043
Mof_H 	H 	0.012	0.6702	0.6136	0.057
Mof_H 	H 	0.9512	0.7246	0.635	0.034
Mof_H 	H 	0.8614	0.7864	0.7514	0.054
Mof_H 	H 	0.8027	0.8275	0.7319	0.048
Mof_H 	H 	0.7662	0.8168	0.756	0.049
Mof_H 	H 	0.84	0.7862	0.8216	0.036
Mof_H 	H 	0.7486	0.8492	0.7902	0.044
Mof_H 	H 	0.7848	0.8598	0.7664	0.04
Mof_H 	H 	0.6697	0.8709	0.9809	0.035
Mof_H 	H 	0.6569	0.8553	0.9659	0.039
Mof_H 	H 	0.6953	0.8001	0.9493	0.048
Mof_H 	H 	0.7325	0.7757	0.9587	0.047
Mof_H 	H 	0.7263	0.8357	0.9949	0.033
Mof_H 	H 	0.7517	0.7985	0.9863	0.033
Mof_H 	H 	0.85	0.9234	0.83	0.044
Mof_H 	H 	0.828	0.9282	0.8692	0.043
Mof_H 	H 	0.1136	0.7042	0.512	0.057
Mof_H 	H 	0.135	0.6892	0.4512	0.034
Mof_H 	H 	0.2514	0.6008	0.3614	0.054
Mof_H 	H 	0.2319	0.6379	0.3027	0.048
Mof_H 	H 	0.256	0.661	0.2662	0.049
Mof_H 	H 	0.3216	0.5522	0.34	0.036
Mof_H 	H 	0.2902	0.612	0.2486	0.044
Mof_H 	H 	0.2664	0.589	0.2848	0.04
Mof_H 	H 	0.4809	0.4785	0.1697	0.035
Mof_H 	H 	0.4659	0.5219	0.1569	0.039
Mof_H 	H 	0.4493	0.5553	0.1953	0.048
Mof_H 	H 	0.4587	0.5331	0.2325	0.047
Mof_H 	H 	0.4949	0.4431	0.2263	0.033
Mof_H 	H 	0.4863	0.4635	0.2517	0.033
Mof_H 	H 	0.33	0.3966	0.35	0.044
Mof_H 	H 	0.3692	0.3746	0.328	0.043
Mof_H 	H 	0.8298	0.2958	0.488	0.057
Mof_H 	H 	0.7754	0.3108	0.5488	0.034
Mof_H 	H 	0.7136	0.3992	0.6386	0.054
Mof_H 	H 	0.6725	0.3621	0.6973	0.048
Mof_H 	H 	0.6832	0.339	0.7338	0.049
Mof_H 	H 	0.7138	0.4478	0.66	0.036
Mof_H 	H 	0.6508	0.388	0.7514	0.044
Mof_H 	H 	0.6402	0.411	0.7152	0.04
Mof_H 	H 	0.6291	0.5215	0.8303	0.035
Mof_H 	H 	0.6447	0.4781	0.8431	0.039
Mof_H 	H 	0.6999	0.4447	0.8047	0.048
Mof_H 	H 	0.7243	0.4669	0.7675	0.047
Mof_H 	H 	0.6643	0.5569	0.7737	0.033
Mof_H 	H 	0.7015	0.5365	0.7483	0.033
Mof_H 	H 	0.5766	0.6034	0.65	0.044
Mof_H 	H 	0.5718	0.6254	0.672	0.043
Mof_H 	H 	0.7958	0.3298	0.3864	0.057
Mof_H 	H 	0.8108	0.2754	0.365	0.034
Mof_H 	H 	0.8992	0.2136	0.2486	0.054
Mof_H 	H 	0.8621	0.1725	0.2681	0.048
Mof_H 	H 	0.839	0.1832	0.244	0.049
Mof_H 	H 	0.9478	0.2138	0.1784	0.036
Mof_H 	H 	0.888	0.1508	0.2098	0.044
Mof_H 	H 	0.911	0.1402	0.2336	0.04
Mof_H 	H 	0.0215	0.1291	0.0191	0.035
Mof_H 	H 	0.9781	0.1447	0.0341	0.039
Mof_H 	H 	0.9447	0.1999	0.0507	0.048
Mof_H 	H 	0.9669	0.2243	0.0413	0.047
Mof_H 	H 	0.0569	0.1643	0.0051	0.033
Mof_H 	H 	0.0365	0.2015	0.0137	0.033
Mof_H 	H 	0.1034	0.0766	0.17	0.044
Mof_H 	H 	0.1254	0.0718	0.1308	0.043
Mof_H 	H 	0.8864	0.488	0.2958	0.057
Mof_H 	H 	0.865	0.5488	0.3108	0.034
Mof_H 	H 	0.7486	0.6386	0.3992	0.054
Mof_H 	H 	0.7681	0.6973	0.3621	0.048
Mof_H 	H 	0.744	0.7338	0.339	0.049
Mof_H 	H 	0.6784	0.66	0.4478	0.036
Mof_H 	H 	0.7098	0.7514	0.388	0.044
Mof_H 	H 	0.7336	0.7152	0.411	0.04
Mof_H 	H 	0.5191	0.8303	0.5215	0.035
Mof_H 	H 	0.5341	0.8431	0.4781	0.039
Mof_H 	H 	0.5507	0.8047	0.4447	0.048
Mof_H 	H 	0.5413	0.7675	0.4669	0.047
Mof_H 	H 	0.5051	0.7737	0.5569	0.033
Mof_H 	H 	0.5137	0.7483	0.5365	0.033
Mof_H 	H 	0.67	0.65	0.6034	0.044
Mof_H 	H 	0.6308	0.672	0.6254	0.043
Mof_H 	H 	0.988	0.3864	0.3298	0.057
Mof_H 	H 	0.0488	0.365	0.2754	0.034
Mof_H 	H 	0.1386	0.2486	0.2136	0.054
Mof_H 	H 	0.1973	0.2681	0.1725	0.048
Mof_H 	H 	0.2338	0.244	0.1832	0.049
Mof_H 	H 	0.16	0.1784	0.2138	0.036
Mof_H 	H 	0.2514	0.2098	0.1508	0.044
Mof_H 	H 	0.2152	0.2336	0.1402	0.04
Mof_H 	H 	0.3303	0.0191	0.1291	0.035
Mof_H 	H 	0.3431	0.0341	0.1447	0.039
Mof_H 	H 	0.3047	0.0507	0.1999	0.048
Mof_H 	H 	0.2675	0.0413	0.2243	0.047
Mof_H 	H 	0.2737	0.0051	0.1643	0.033
Mof_H 	H 	0.2483	0.0137	0.2015	0.033
Mof_H 	H 	0.15	0.17	0.0766	0.044
Mof_H 	H 	0.172	0.1308	0.0718	0.043
Mof_H 	H 	0.988	0.2958	0.3864	0.057
Mof_H 	H 	0.0488	0.3108	0.365	0.034
Mof_H 	H 	0.1386	0.3992	0.2486	0.054
Mof_H 	H 	0.1973	0.3621	0.2681	0.048
Mof_H 	H 	0.2338	0.339	0.244	0.049
Mof_H 	H 	0.16	0.4478	0.1784	0.036
Mof_H 	H 	0.2514	0.388	0.2098	0.044
Mof_H 	H 	0.2152	0.411	0.2336	0.04
Mof_H 	H 	0.3303	0.5215	0.0191	0.035
Mof_H 	H 	0.3431	0.4781	0.0341	0.039
Mof_H 	H 	0.3047	0.4447	0.0507	0.048
Mof_H 	H 	0.2675	0.4669	0.0413	0.047
Mof_H 	H 	0.2737	0.5569	0.0051	0.033
Mof_H 	H 	0.2483	0.5365	0.0137	0.033
Mof_H 	H 	0.15	0.6034	0.17	0.044
Mof_H 	H 	0.172	0.6254	0.1308	0.043
Mof_H 	H 	0.8864	0.3298	0.488	0.057
Mof_H 	H 	0.865	0.2754	0.5488	0.034
Mof_H 	H 	0.7486	0.2136	0.6386	0.054
Mof_H 	H 	0.7681	0.1725	0.6973	0.048
Mof_H 	H 	0.744	0.1832	0.7338	0.049
Mof_H 	H 	0.6784	0.2138	0.66	0.036
Mof_H 	H 	0.7098	0.1508	0.7514	0.044
Mof_H 	H 	0.7336	0.1402	0.7152	0.04
Mof_H 	H 	0.5191	0.1291	0.8303	0.035
Mof_H 	H 	0.5341	0.1447	0.8431	0.039
Mof_H 	H 	0.5507	0.1999	0.8047	0.048
Mof_H 	H 	0.5413	0.2243	0.7675	0.047
Mof_H 	H 	0.5051	0.1643	0.7737	0.033
Mof_H 	H 	0.5137	0.2015	0.7483	0.033
Mof_H 	H 	0.67	0.0766	0.65	0.044
Mof_H 	H 	0.6308	0.0718	0.672	0.043
Mof_H 	H 	0.7958	0.488	0.3298	0.057
Mof_H 	H 	0.8108	0.5488	0.2754	0.034
Mof_H 	H 	0.8992	0.6386	0.2136	0.054
Mof_H 	H 	0.8621	0.6973	0.1725	0.048
Mof_H 	H 	0.839	0.7338	0.1832	0.049
Mof_H 	H 	0.9478	0.66	0.2138	0.036
Mof_H 	H 	0.888	0.7514	0.1508	0.044
Mof_H 	H 	0.911	0.7152	0.1402	0.04
Mof_H 	H 	0.0215	0.8303	0.1291	0.035
Mof_H 	H 	0.9781	0.8431	0.1447	0.039
Mof_H 	H 	0.9447	0.8047	0.1999	0.048
Mof_H 	H 	0.9669	0.7675	0.2243	0.047
Mof_H 	H 	0.0569	0.7737	0.1643	0.033
Mof_H 	H 	0.0365	0.7483	0.2015	0.033
Mof_H 	H 	0.1034	0.65	0.0766	0.044
Mof_H 	H 	0.1254	0.672	0.0718	0.043
Mof_H 	H 	0.8298	0.3864	0.2958	0.057
Mof_H 	H 	0.7754	0.365	0.3108	0.034
Mof_H 	H 	0.7136	0.2486	0.3992	0.054
Mof_H 	H 	0.6725	0.2681	0.3621	0.048
Mof_H 	H 	0.6832	0.244	0.339	0.049
Mof_H 	H 	0.7138	0.1784	0.4478	0.036
Mof_H 	H 	0.6508	0.2098	0.388	0.044
Mof_H 	H 	0.6402	0.2336	0.411	0.04
Mof_H 	H 	0.6291	0.0191	0.5215	0.035
Mof_H 	H 	0.6447	0.0341	0.4781	0.039
Mof_H 	H 	0.6999	0.0507	0.4447	0.048
Mof_H 	H 	0.7243	0.0413	0.4669	0.047
Mof_H 	H 	0.6643	0.0051	0.5569	0.033
Mof_H 	H 	0.7015	0.0137	0.5365	0.033
Mof_H 	H 	0.5766	0.17	0.6034	0.044
Mof_H 	H 	0.5718	0.1308	0.6254	0.043
Mof_H 	H 	0.8864	0.2958	0.3298	0.057
Mof_H 	H 	0.865	0.3108	0.2754	0.034
Mof_H 	H 	0.7486	0.3992	0.2136	0.054
Mof_H 	H 	0.7681	0.3621	0.1725	0.048
Mof_H 	H 	0.744	0.339	0.1832	0.049
Mof_H 	H 	0.6784	0.4478	0.2138	0.036
Mof_H 	H 	0.7098	0.388	0.1508	0.044
Mof_H 	H 	0.7336	0.411	0.1402	0.04
Mof_H 	H 	0.5191	0.5215	0.1291	0.035
Mof_H 	H 	0.5341	0.4781	0.1447	0.039
Mof_H 	H 	0.5507	0.4447	0.1999	0.048
Mof_H 	H 	0.5413	0.4669	0.2243	0.047
Mof_H 	H 	0.5051	0.5569	0.1643	0.033
Mof_H 	H 	0.5137	0.5365	0.2015	0.033
Mof_H 	H 	0.67	0.6034	0.0766	0.044
Mof_H 	H 	0.6308	0.6254	0.0718	0.043
Mof_H 	H 	0.988	0.3298	0.2958	0.057
Mof_H 	H 	0.0488	0.2754	0.3108	0.034
Mof_H 	H 	0.1386	0.2136	0.3992	0.054
Mof_H 	H 	0.1973	0.1725	0.3621	0.048
Mof_H 	H 	0.2338	0.1832	0.339	0.049
Mof_H 	H 	0.16	0.2138	0.4478	0.036
Mof_H 	H 	0.2514	0.1508	0.388	0.044
Mof_H 	H 	0.2152	0.1402	0.411	0.04
Mof_H 	H 	0.3303	0.1291	0.5215	0.035
Mof_H 	H 	0.3431	0.1447	0.4781	0.039
Mof_H 	H 	0.3047	0.1999	0.4447	0.048
Mof_H 	H 	0.2675	0.2243	0.4669	0.047
Mof_H 	H 	0.2737	0.1643	0.5569	0.033
Mof_H 	H 	0.2483	0.2015	0.5365	0.033
Mof_H 	H 	0.15	0.0766	0.6034	0.044
Mof_H 	H 	0.172	0.0718	0.6254	0.043
Mof_H 	H 	0.8298	0.488	0.3864	0.057
Mof_H 	H 	0.7754	0.5488	0.365	0.034
Mof_H 	H 	0.7136	0.6386	0.2486	0.054
Mof_H 	H 	0.6725	0.6973	0.2681	0.048
Mof_H 	H 	0.6832	0.7338	0.244	0.049
Mof_H 	H 	0.7138	0.66	0.1784	0.036
Mof_H 	H 	0.6508	0.7514	0.2098	0.044
Mof_H 	H 	0.6402	0.7152	0.2336	0.04
Mof_H 	H 	0.6291	0.8303	0.0191	0.035
Mof_H 	H 	0.6447	0.8431	0.0341	0.039
Mof_H 	H 	0.6999	0.8047	0.0507	0.048
Mof_H 	H 	0.7243	0.7675	0.0413	0.047
Mof_H 	H 	0.6643	0.7737	0.0051	0.033
Mof_H 	H 	0.7015	0.7483	0.0137	0.033
Mof_H 	H 	0.5766	0.65	0.17	0.044
Mof_H 	H 	0.5718	0.672	0.1308	0.043
Mof_H 	H 	0.7958	0.3864	0.488	0.057
Mof_H 	H 	0.8108	0.365	0.5488	0.034
Mof_H 	H 	0.8992	0.2486	0.6386	0.054
Mof_H 	H 	0.8621	0.2681	0.6973	0.048
Mof_H 	H 	0.839	0.244	0.7338	0.049
Mof_H 	H 	0.9478	0.1784	0.66	0.036
Mof_H 	H 	0.888	0.2098	0.7514	0.044
Mof_H 	H 	0.911	0.2336	0.7152	0.04
Mof_H 	H 	0.0215	0.0191	0.8303	0.035
Mof_H 	H 	0.9781	0.0341	0.8431	0.039
Mof_H 	H 	0.9447	0.0507	0.8047	0.048
Mof_H 	H 	0.9669	0.0413	0.7675	0.047
Mof_H 	H 	0.0569	0.0051	0.7737	0.033
Mof_H 	H 	0.0365	0.0137	0.7483	0.033
Mof_H 	H 	0.1034	0.17	0.65	0.044
Mof_H 	H 	0.1254	0.1308	0.672	0.043
Mof_H 	H 	0.7958	0.3298	0.488	0.057
Mof_H 	H 	0.8108	0.2754	0.5488	0.034
Mof_H 	H 	0.8992	0.2136	0.6386	0.054
Mof_H 	H 	0.8621	0.1725	0.6973	0.048
Mof_H 	H 	0.839	0.1832	0.7338	0.049
Mof_H 	H 	0.9478	0.2138	0.66	0.036
Mof_H 	H 	0.888	0.1508	0.7514	0.044
Mof_H 	H 	0.911	0.1402	0.7152	0.04
Mof_H 	H 	0.0215	0.1291	0.8303	0.035
Mof_H 	H 	0.9781	0.1447	0.8431	0.039
Mof_H 	H 	0.9447	0.1999	0.8047	0.048
Mof_H 	H 	0.9669	0.2243	0.7675	0.047
Mof_H 	H 	0.0569	0.1643	0.7737	0.033
Mof_H 	H 	0.0365	0.2015	0.7483	0.033
Mof_H 	H 	0.1034	0.0766	0.65	0.044
Mof_H 	H 	0.1254	0.0718	0.672	0.043
Mof_H 	H 	0.8298	0.2958	0.3864	0.057
Mof_H 	H 	0.7754	0.3108	0.365	0.034
Mof_H 	H 	0.7136	0.3992	0.2486	0.054
Mof_H 	H 	0.6725	0.3621	0.2681	0.048
Mof_H 	H 	0.6832	0.339	0.244	0.049
Mof_H 	H 	0.7138	0.4478	0.1784	0.036
Mof_H 	H 	0.6508	0.388	0.2098	0.044
Mof_H 	H 	0.6402	0.411	0.2336	0.04
Mof_H 	H 	0.6291	0.5215	0.0191	0.035
Mof_H 	H 	0.6447	0.4781	0.0341	0.039
Mof_H 	H 	0.6999	0.4447	0.0507	0.048
Mof_H 	H 	0.7243	0.4669	0.0413	0.047
Mof_H 	H 	0.6643	0.5569	0.0051	0.033
Mof_H 	H 	0.7015	0.5365	0.0137	0.033
Mof_H 	H 	0.5766	0.6034	0.17	0.044
Mof_H 	H 	0.5718	0.6254	0.1308	0.043
Mof_H 	H 	0.988	0.3864	0.2958	0.057
Mof_H 	H 	0.0488	0.365	0.3108	0.034
Mof_H 	H 	0.1386	0.2486	0.3992	0.054
Mof_H 	H 	0.1973	0.2681	0.3621	0.048
Mof_H 	H 	0.2338	0.244	0.339	0.049
Mof_H 	H 	0.16	0.1784	0.4478	0.036
Mof_H 	H 	0.2514	0.2098	0.388	0.044
Mof_H 	H 	0.2152	0.2336	0.411	0.04
Mof_H 	H 	0.3303	0.0191	0.5215	0.035
Mof_H 	H 	0.3431	0.0341	0.4781	0.039
Mof_H 	H 	0.3047	0.0507	0.4447	0.048
Mof_H 	H 	0.2675	0.0413	0.4669	0.047
Mof_H 	H 	0.2737	0.0051	0.5569	0.033
Mof_H 	H 	0.2483	0.0137	0.5365	0.033
Mof_H 	H 	0.15	0.17	0.6034	0.044
Mof_H 	H 	0.172	0.1308	0.6254	0.043
Mof_H 	H 	0.8864	0.488	0.3298	0.057
Mof_H 	H 	0.865	0.5488	0.2754	0.034
Mof_H 	H 	0.7486	0.6386	0.2136	0.054
Mof_H 	H 	0.7681	0.6973	0.1725	0.048
Mof_H 	H 	0.744	0.7338	0.1832	0.049
Mof_H 	H 	0.6784	0.66	0.2138	0.036
Mof_H 	H 	0.7098	0.7514	0.1508	0.044
Mof_H 	H 	0.7336	0.7152	0.1402	0.04
Mof_H 	H 	0.5191	0.8303	0.1291	0.035
Mof_H 	H 	0.5341	0.8431	0.1447	0.039
Mof_H 	H 	0.5507	0.8047	0.1999	0.048
Mof_H 	H 	0.5413	0.7675	0.2243	0.047
Mof_H 	H 	0.5051	0.7737	0.1643	0.033
Mof_H 	H 	0.5137	0.7483	0.2015	0.033
Mof_H 	H 	0.67	0.65	0.0766	0.044
Mof_H 	H 	0.6308	0.672	0.0718	0.043
Mof_H 	H 	0.7958	0.488	0.3864	0.057
Mof_H 	H 	0.8108	0.5488	0.365	0.034
Mof_H 	H 	0.8992	0.6386	0.2486	0.054
Mof_H 	H 	0.8621	0.6973	0.2681	0.048
Mof_H 	H 	0.839	0.7338	0.244	0.049
Mof_H 	H 	0.9478	0.66	0.1784	0.036
Mof_H 	H 	0.888	0.7514	0.2098	0.044
Mof_H 	H 	0.911	0.7152	0.2336	0.04
Mof_H 	H 	0.0215	0.8303	0.0191	0.035
Mof_H 	H 	0.9781	0.8431	0.0341	0.039
Mof_H 	H 	0.9447	0.8047	0.0507	0.048
Mof_H 	H 	0.9669	0.7675	0.0413	0.047
Mof_H 	H 	0.0569	0.7737	0.0051	0.033
Mof_H 	H 	0.0365	0.7483	0.0137	0.033
Mof_H 	H 	0.1034	0.65	0.17	0.044
Mof_H 	H 	0.1254	0.672	0.1308	0.043
Mof_H 	H 	0.8298	0.3864	0.488	0.057
Mof_H 	H 	0.7754	0.365	0.5488	0.034
Mof_H 	H 	0.7136	0.2486	0.6386	0.054
Mof_H 	H 	0.6725	0.2681	0.6973	0.048
Mof_H 	H 	0.6832	0.244	0.7338	0.049
Mof_H 	H 	0.7138	0.1784	0.66	0.036
Mof_H 	H 	0.6508	0.2098	0.7514	0.044
Mof_H 	H 	0.6402	0.2336	0.7152	0.04
Mof_H 	H 	0.6291	0.0191	0.8303	0.035
Mof_H 	H 	0.6447	0.0341	0.8431	0.039
Mof_H 	H 	0.6999	0.0507	0.8047	0.048
Mof_H 	H 	0.7243	0.0413	0.7675	0.047
Mof_H 	H 	0.6643	0.0051	0.7737	0.033
Mof_H 	H 	0.7015	0.0137	0.7483	0.033
Mof_H 	H 	0.5766	0.17	0.65	0.044
Mof_H 	H 	0.5718	0.1308	0.672	0.043
Mof_H 	H 	0.988	0.2958	0.3298	0.057
Mof_H 	H 	0.0488	0.3108	0.2754	0.034
Mof_H 	H 	0.1386	0.3992	0.2136	0.054
Mof_H 	H 	0.1973	0.3621	0.1725	0.048
Mof_H 	H 	0.2338	0.339	0.1832	0.049
Mof_H 	H 	0.16	0.4478	0.2138	0.036
Mof_H 	H 	0.2514	0.388	0.1508	0.044
Mof_H 	H 	0.2152	0.411	0.1402	0.04
Mof_H 	H 	0.3303	0.5215	0.1291	0.035
Mof_H 	H 	0.3431	0.4781	0.1447	0.039
Mof_H 	H 	0.3047	0.4447	0.1999	0.048
Mof_H 	H 	0.2675	0.4669	0.2243	0.047
Mof_H 	H 	0.2737	0.5569	0.1643	0.033
Mof_H 	H 	0.2483	0.5365	0.2015	0.033
Mof_H 	H 	0.15	0.6034	0.0766	0.044
Mof_H 	H 	0.172	0.6254	0.0718	0.043
Mof_H 	H 	0.8864	0.3298	0.2958	0.057
Mof_H 	H 	0.865	0.2754	0.3108	0.034
Mof_H 	H 	0.7486	0.2136	0.3992	0.054
Mof_H 	H 	0.7681	0.1725	0.3621	0.048
Mof_H 	H 	0.744	0.1832	0.339	0.049
Mof_H 	H 	0.6784	0.2138	0.4478	0.036
Mof_H 	H 	0.7098	0.1508	0.388	0.044
Mof_H 	H 	0.7336	0.1402	0.411	0.04
Mof_H 	H 	0.5191	0.1291	0.5215	0.035
Mof_H 	H 	0.5341	0.1447	0.4781	0.039
Mof_H 	H 	0.5507	0.1999	0.4447	0.048
Mof_H 	H 	0.5413	0.2243	0.4669	0.047
Mof_H 	H 	0.5051	0.1643	0.5569	0.033
Mof_H 	H 	0.5137	0.2015	0.5365	0.033
Mof_H 	H 	0.67	0.0766	0.6034	0.044
Mof_H 	H 	0.6308	0.0718	0.6254	0.043
Mof_H 	H 	0.7958	0.3864	0.3298	0.057
Mof_H 	H 	0.8108	0.365	0.2754	0.034
Mof_H 	H 	0.8992	0.2486	0.2136	0.054
Mof_H 	H 	0.8621	0.2681	0.1725	0.048
Mof_H 	H 	0.839	0.244	0.1832	0.049
Mof_H 	H 	0.9478	0.1784	0.2138	0.036
Mof_H 	H 	0.888	0.2098	0.1508	0.044
Mof_H 	H 	0.911	0.2336	0.1402	0.04
Mof_H 	H 	0.0215	0.0191	0.1291	0.035
Mof_H 	H 	0.9781	0.0341	0.1447	0.039
Mof_H 	H 	0.9447	0.0507	0.1999	0.048
Mof_H 	H 	0.9669	0.0413	0.2243	0.047
Mof_H 	H 	0.0569	0.0051	0.1643	0.033
Mof_H 	H 	0.0365	0.0137	0.2015	0.033
Mof_H 	H 	0.1034	0.17	0.0766	0.044
Mof_H 	H 	0.1254	0.1308	0.0718	0.043
Mof_H 	H 	0.8298	0.488	0.2958	0.057
Mof_H 	H 	0.7754	0.5488	0.3108	0.034
Mof_H 	H 	0.7136	0.6386	0.3992	0.054
Mof_H 	H 	0.6725	0.6973	0.3621	0.048
Mof_H 	H 	0.6832	0.7338	0.339	0.049
Mof_H 	H 	0.7138	0.66	0.4478	0.036
Mof_H 	H 	0.6508	0.7514	0.388	0.044
Mof_H 	H 	0.6402	0.7152	0.411	0.04
Mof_H 	H 	0.6291	0.8303	0.5215	0.035
Mof_H 	H 	0.6447	0.8431	0.4781	0.039
Mof_H 	H 	0.6999	0.8047	0.4447	0.048
Mof_H 	H 	0.7243	0.7675	0.4669	0.047
Mof_H 	H 	0.6643	0.7737	0.5569	0.033
Mof_H 	H 	0.7015	0.7483	0.5365	0.033
Mof_H 	H 	0.5766	0.65	0.6034	0.044
Mof_H 	H 	0.5718	0.672	0.6254	0.043
Mof_H 	H 	0.988	0.3298	0.3864	0.057
Mof_H 	H 	0.0488	0.2754	0.365	0.034
Mof_H 	H 	0.1386	0.2136	0.2486	0.054
Mof_H 	H 	0.1973	0.1725	0.2681	0.048
Mof_H 	H 	0.2338	0.1832	0.244	0.049
Mof_H 	H 	0.16	0.2138	0.1784	0.036
Mof_H 	H 	0.2514	0.1508	0.2098	0.044
Mof_H 	H 	0.2152	0.1402	0.2336	0.04
Mof_H 	H 	0.3303	0.1291	0.0191	0.035
Mof_H 	H 	0.3431	0.1447	0.0341	0.039
Mof_H 	H 	0.3047	0.1999	0.0507	0.048
Mof_H 	H 	0.2675	0.2243	0.0413	0.047
Mof_H 	H 	0.2737	0.1643	0.0051	0.033
Mof_H 	H 	0.2483	0.2015	0.0137	0.033
Mof_H 	H 	0.15	0.0766	0.17	0.044
Mof_H 	H 	0.172	0.0718	0.1308	0.043
Mof_H 	H 	0.8864	0.2958	0.488	0.057
Mof_H 	H 	0.865	0.3108	0.5488	0.034
Mof_H 	H 	0.7486	0.3992	0.6386	0.054
Mof_H 	H 	0.7681	0.3621	0.6973	0.048
Mof_H 	H 	0.744	0.339	0.7338	0.049
Mof_H 	H 	0.6784	0.4478	0.66	0.036
Mof_H 	H 	0.7098	0.388	0.7514	0.044
Mof_H 	H 	0.7336	0.411	0.7152	0.04
Mof_H 	H 	0.5191	0.5215	0.8303	0.035
Mof_H 	H 	0.5341	0.4781	0.8431	0.039
Mof_H 	H 	0.5507	0.4447	0.8047	0.048
Mof_H 	H 	0.5413	0.4669	0.7675	0.047
Mof_H 	H 	0.5051	0.5569	0.7737	0.033
Mof_H 	H 	0.5137	0.5365	0.7483	0.033
Mof_H 	H 	0.67	0.6034	0.65	0.044
Mof_H 	H 	0.6308	0.6254	0.672	0.043
Mof_H 	H 	0.1702	0.7042	0.512	0.057
Mof_H 	H 	0.2246	0.6892	0.4512	0.034
Mof_H 	H 	0.2864	0.6008	0.3614	0.054
Mof_H 	H 	0.3275	0.6379	0.3027	0.048
Mof_H 	H 	0.3168	0.661	0.2662	0.049
Mof_H 	H 	0.2862	0.5522	0.34	0.036
Mof_H 	H 	0.3492	0.612	0.2486	0.044
Mof_H 	H 	0.3598	0.589	0.2848	0.04
Mof_H 	H 	0.3709	0.4785	0.1697	0.035
Mof_H 	H 	0.3553	0.5219	0.1569	0.039
Mof_H 	H 	0.3001	0.5553	0.1953	0.048
Mof_H 	H 	0.2757	0.5331	0.2325	0.047
Mof_H 	H 	0.3357	0.4431	0.2263	0.033
Mof_H 	H 	0.2985	0.4635	0.2517	0.033
Mof_H 	H 	0.4234	0.3966	0.35	0.044
Mof_H 	H 	0.4282	0.3746	0.328	0.043
Mof_H 	H 	0.2042	0.6702	0.6136	0.057
Mof_H 	H 	0.1892	0.7246	0.635	0.034
Mof_H 	H 	0.1008	0.7864	0.7514	0.054
Mof_H 	H 	0.1379	0.8275	0.7319	0.048
Mof_H 	H 	0.161	0.8168	0.756	0.049
Mof_H 	H 	0.0522	0.7862	0.8216	0.036
Mof_H 	H 	0.112	0.8492	0.7902	0.044
Mof_H 	H 	0.089	0.8598	0.7664	0.04
Mof_H 	H 	0.9785	0.8709	0.9809	0.035
Mof_H 	H 	0.0219	0.8553	0.9659	0.039
Mof_H 	H 	0.0553	0.8001	0.9493	0.048
Mof_H 	H 	0.0331	0.7757	0.9587	0.047
Mof_H 	H 	0.9431	0.8357	0.9949	0.033
Mof_H 	H 	0.9635	0.7985	0.9863	0.033
Mof_H 	H 	0.8966	0.9234	0.83	0.044
Mof_H 	H 	0.8746	0.9282	0.8692	0.043
Mof_H 	H 	0.1136	0.512	0.7042	0.057
Mof_H 	H 	0.135	0.4512	0.6892	0.034
Mof_H 	H 	0.2514	0.3614	0.6008	0.054
Mof_H 	H 	0.2319	0.3027	0.6379	0.048
Mof_H 	H 	0.256	0.2662	0.661	0.049
Mof_H 	H 	0.3216	0.34	0.5522	0.036
Mof_H 	H 	0.2902	0.2486	0.612	0.044
Mof_H 	H 	0.2664	0.2848	0.589	0.04
Mof_H 	H 	0.4809	0.1697	0.4785	0.035
Mof_H 	H 	0.4659	0.1569	0.5219	0.039
Mof_H 	H 	0.4493	0.1953	0.5553	0.048
Mof_H 	H 	0.4587	0.2325	0.5331	0.047
Mof_H 	H 	0.4949	0.2263	0.4431	0.033
Mof_H 	H 	0.4863	0.2517	0.4635	0.033
Mof_H 	H 	0.33	0.35	0.3966	0.044
Mof_H 	H 	0.3692	0.328	0.3746	0.043
Mof_H 	H 	0.012	0.6136	0.6702	0.057
Mof_H 	H 	0.9512	0.635	0.7246	0.034
Mof_H 	H 	0.8614	0.7514	0.7864	0.054
Mof_H 	H 	0.8027	0.7319	0.8275	0.048
Mof_H 	H 	0.7662	0.756	0.8168	0.049
Mof_H 	H 	0.84	0.8216	0.7862	0.036
Mof_H 	H 	0.7486	0.7902	0.8492	0.044
Mof_H 	H 	0.7848	0.7664	0.8598	0.04
Mof_H 	H 	0.6697	0.9809	0.8709	0.035
Mof_H 	H 	0.6569	0.9659	0.8553	0.039
Mof_H 	H 	0.6953	0.9493	0.8001	0.048
Mof_H 	H 	0.7325	0.9587	0.7757	0.047
Mof_H 	H 	0.7263	0.9949	0.8357	0.033
Mof_H 	H 	0.7517	0.9863	0.7985	0.033
Mof_H 	H 	0.85	0.83	0.9234	0.044
Mof_H 	H 	0.828	0.8692	0.9282	0.043
Mof_H 	H 	0.012	0.7042	0.6136	0.057
Mof_H 	H 	0.9512	0.6892	0.635	0.034
Mof_H 	H 	0.8614	0.6008	0.7514	0.054
Mof_H 	H 	0.8027	0.6379	0.7319	0.048
Mof_H 	H 	0.7662	0.661	0.756	0.049
Mof_H 	H 	0.84	0.5522	0.8216	0.036
Mof_H 	H 	0.7486	0.612	0.7902	0.044
Mof_H 	H 	0.7848	0.589	0.7664	0.04
Mof_H 	H 	0.6697	0.4785	0.9809	0.035
Mof_H 	H 	0.6569	0.5219	0.9659	0.039
Mof_H 	H 	0.6953	0.5553	0.9493	0.048
Mof_H 	H 	0.7325	0.5331	0.9587	0.047
Mof_H 	H 	0.7263	0.4431	0.9949	0.033
Mof_H 	H 	0.7517	0.4635	0.9863	0.033
Mof_H 	H 	0.85	0.3966	0.83	0.044
Mof_H 	H 	0.828	0.3746	0.8692	0.043
Mof_H 	H 	0.1136	0.6702	0.512	0.057
Mof_H 	H 	0.135	0.7246	0.4512	0.034
Mof_H 	H 	0.2514	0.7864	0.3614	0.054
Mof_H 	H 	0.2319	0.8275	0.3027	0.048
Mof_H 	H 	0.256	0.8168	0.2662	0.049
Mof_H 	H 	0.3216	0.7862	0.34	0.036
Mof_H 	H 	0.2902	0.8492	0.2486	0.044
Mof_H 	H 	0.2664	0.8598	0.2848	0.04
Mof_H 	H 	0.4809	0.8709	0.1697	0.035
Mof_H 	H 	0.4659	0.8553	0.1569	0.039
Mof_H 	H 	0.4493	0.8001	0.1953	0.048
Mof_H 	H 	0.4587	0.7757	0.2325	0.047
Mof_H 	H 	0.4949	0.8357	0.2263	0.033
Mof_H 	H 	0.4863	0.7985	0.2517	0.033
Mof_H 	H 	0.33	0.9234	0.35	0.044
Mof_H 	H 	0.3692	0.9282	0.328	0.043
Mof_H 	H 	0.2042	0.512	0.6702	0.057
Mof_H 	H 	0.1892	0.4512	0.7246	0.034
Mof_H 	H 	0.1008	0.3614	0.7864	0.054
Mof_H 	H 	0.1379	0.3027	0.8275	0.048
Mof_H 	H 	0.161	0.2662	0.8168	0.049
Mof_H 	H 	0.0522	0.34	0.7862	0.036
Mof_H 	H 	0.112	0.2486	0.8492	0.044
Mof_H 	H 	0.089	0.2848	0.8598	0.04
Mof_H 	H 	0.9785	0.1697	0.8709	0.035
Mof_H 	H 	0.0219	0.1569	0.8553	0.039
Mof_H 	H 	0.0553	0.1953	0.8001	0.048
Mof_H 	H 	0.0331	0.2325	0.7757	0.047
Mof_H 	H 	0.9431	0.2263	0.8357	0.033
Mof_H 	H 	0.9635	0.2517	0.7985	0.033
Mof_H 	H 	0.8966	0.35	0.9234	0.044
Mof_H 	H 	0.8746	0.328	0.9282	0.043
Mof_H 	H 	0.1702	0.6136	0.7042	0.057
Mof_H 	H 	0.2246	0.635	0.6892	0.034
Mof_H 	H 	0.2864	0.7514	0.6008	0.054
Mof_H 	H 	0.3275	0.7319	0.6379	0.048
Mof_H 	H 	0.3168	0.756	0.661	0.049
Mof_H 	H 	0.2862	0.8216	0.5522	0.036
Mof_H 	H 	0.3492	0.7902	0.612	0.044
Mof_H 	H 	0.3598	0.7664	0.589	0.04
Mof_H 	H 	0.3709	0.9809	0.4785	0.035
Mof_H 	H 	0.3553	0.9659	0.5219	0.039
Mof_H 	H 	0.3001	0.9493	0.5553	0.048
Mof_H 	H 	0.2757	0.9587	0.5331	0.047
Mof_H 	H 	0.3357	0.9949	0.4431	0.033
Mof_H 	H 	0.2985	0.9863	0.4635	0.033
Mof_H 	H 	0.4234	0.83	0.3966	0.044
Mof_H 	H 	0.4282	0.8692	0.3746	0.043
Mof_H 	H 	0.1136	0.7042	0.6702	0.057
Mof_H 	H 	0.135	0.6892	0.7246	0.034
Mof_H 	H 	0.2514	0.6008	0.7864	0.054
Mof_H 	H 	0.2319	0.6379	0.8275	0.048
Mof_H 	H 	0.256	0.661	0.8168	0.049
Mof_H 	H 	0.3216	0.5522	0.7862	0.036
Mof_H 	H 	0.2902	0.612	0.8492	0.044
Mof_H 	H 	0.2664	0.589	0.8598	0.04
Mof_H 	H 	0.4809	0.4785	0.8709	0.035
Mof_H 	H 	0.4659	0.5219	0.8553	0.039
Mof_H 	H 	0.4493	0.5553	0.8001	0.048
Mof_H 	H 	0.4587	0.5331	0.7757	0.047
Mof_H 	H 	0.4949	0.4431	0.8357	0.033
Mof_H 	H 	0.4863	0.4635	0.7985	0.033
Mof_H 	H 	0.33	0.3966	0.9234	0.044
Mof_H 	H 	0.3692	0.3746	0.9282	0.043
Mof_H 	H 	0.012	0.6702	0.7042	0.057
Mof_H 	H 	0.9512	0.7246	0.6892	0.034
Mof_H 	H 	0.8614	0.7864	0.6008	0.054
Mof_H 	H 	0.8027	0.8275	0.6379	0.048
Mof_H 	H 	0.7662	0.8168	0.661	0.049
Mof_H 	H 	0.84	0.7862	0.5522	0.036
Mof_H 	H 	0.7486	0.8492	0.612	0.044
Mof_H 	H 	0.7848	0.8598	0.589	0.04
Mof_H 	H 	0.6697	0.8709	0.4785	0.035
Mof_H 	H 	0.6569	0.8553	0.5219	0.039
Mof_H 	H 	0.6953	0.8001	0.5553	0.048
Mof_H 	H 	0.7325	0.7757	0.5331	0.047
Mof_H 	H 	0.7263	0.8357	0.4431	0.033
Mof_H 	H 	0.7517	0.7985	0.4635	0.033
Mof_H 	H 	0.85	0.9234	0.3966	0.044
Mof_H 	H 	0.828	0.9282	0.3746	0.043
Mof_H 	H 	0.1702	0.512	0.6136	0.057
Mof_H 	H 	0.2246	0.4512	0.635	0.034
Mof_H 	H 	0.2864	0.3614	0.7514	0.054
Mof_H 	H 	0.3275	0.3027	0.7319	0.048
Mof_H 	H 	0.3168	0.2662	0.756	0.049
Mof_H 	H 	0.2862	0.34	0.8216	0.036
Mof_H 	H 	0.3492	0.2486	0.7902	0.044
Mof_H 	H 	0.3598	0.2848	0.7664	0.04
Mof_H 	H 	0.3709	0.1697	0.9809	0.035
Mof_H 	H 	0.3553	0.1569	0.9659	0.039
Mof_H 	H 	0.3001	0.1953	0.9493	0.048
Mof_H 	H 	0.2757	0.2325	0.9587	0.047
Mof_H 	H 	0.3357	0.2263	0.9949	0.033
Mof_H 	H 	0.2985	0.2517	0.9863	0.033
Mof_H 	H 	0.4234	0.35	0.83	0.044
Mof_H 	H 	0.4282	0.328	0.8692	0.043
Mof_H 	H 	0.2042	0.6136	0.512	0.057
Mof_H 	H 	0.1892	0.635	0.4512	0.034
Mof_H 	H 	0.1008	0.7514	0.3614	0.054
Mof_H 	H 	0.1379	0.7319	0.3027	0.048
Mof_H 	H 	0.161	0.756	0.2662	0.049
Mof_H 	H 	0.0522	0.8216	0.34	0.036
Mof_H 	H 	0.112	0.7902	0.2486	0.044
Mof_H 	H 	0.089	0.7664	0.2848	0.04
Mof_H 	H 	0.9785	0.9809	0.1697	0.035
Mof_H 	H 	0.0219	0.9659	0.1569	0.039
Mof_H 	H 	0.0553	0.9493	0.1953	0.048
Mof_H 	H 	0.0331	0.9587	0.2325	0.047
Mof_H 	H 	0.9431	0.9949	0.2263	0.033
Mof_H 	H 	0.9635	0.9863	0.2517	0.033
Mof_H 	H 	0.8966	0.83	0.35	0.044
Mof_H 	H 	0.8746	0.8692	0.328	0.043
Mof_C 	C 	0.1385	0.8167	0.2877	-0.088
Mof_C 	C 	0.1039	0.8391	0.2755	-0.062
Mof_C 	C 	0.9998	0.8484	0.17	-0.052
Mof_C 	C 	0.0338	0.7924	0.2074	-0.093
Mof_C 	C 	0.9653	0.8139	0.2261	-0.046
Mof_C 	C 	0.8821	0.9127	0.3499	-0.068
Mof_C 	C 	0.3167	0.6385	0.7571	-0.088
Mof_C 	C 	0.3391	0.6039	0.7815	-0.062
Mof_C 	C 	0.3484	0.4998	0.9818	-0.052
Mof_C 	C 	0.2924	0.5338	0.9664	-0.093
Mof_C 	C 	0.3139	0.4653	0.9947	-0.046
Mof_C 	C 	0.4127	0.3821	0.8553	-0.068
Mof_C 	C 	0.7877	0.7571	0.6385	-0.088
Mof_C 	C 	0.7755	0.7815	0.6039	-0.062
Mof_C 	C 	0.67	0.9818	0.4998	-0.052
Mof_C 	C 	0.7074	0.9664	0.5338	-0.093
Mof_C 	C 	0.7261	0.9947	0.4653	-0.046
Mof_C 	C 	0.8499	0.8553	0.3821	-0.068
Mof_C 	C 	0.2571	0.2877	0.8167	-0.088
Mof_C 	C 	0.2815	0.2755	0.8391	-0.062
Mof_C 	C 	0.4818	0.17	0.8484	-0.052
Mof_C 	C 	0.4664	0.2074	0.7924	-0.093
Mof_C 	C 	0.4947	0.2261	0.8139	-0.046
Mof_C 	C 	0.3553	0.3499	0.9127	-0.068
Mof_C 	C 	0.1385	0.2877	0.7571	-0.088
Mof_C 	C 	0.1039	0.2755	0.7815	-0.062
Mof_C 	C 	0.9998	0.17	0.9818	-0.052
Mof_C 	C 	0.0338	0.2074	0.9664	-0.093
Mof_C 	C 	0.9653	0.2261	0.9947	-0.046
Mof_C 	C 	0.8821	0.3499	0.8553	-0.068
Mof_C 	C 	0.3167	0.7571	0.2877	-0.088
Mof_C 	C 	0.3391	0.7815	0.2755	-0.062
Mof_C 	C 	0.3484	0.9818	0.17	-0.052
Mof_C 	C 	0.2924	0.9664	0.2074	-0.093
Mof_C 	C 	0.3139	0.9947	0.2261	-0.046
Mof_C 	C 	0.4127	0.8553	0.3499	-0.068
Mof_C 	C 	0.7877	0.6385	0.8167	-0.088
Mof_C 	C 	0.7755	0.6039	0.8391	-0.062
Mof_C 	C 	0.67	0.4998	0.8484	-0.052
Mof_C 	C 	0.7074	0.5338	0.7924	-0.093
Mof_C 	C 	0.7261	0.4653	0.8139	-0.046
Mof_C 	C 	0.8499	0.3821	0.9127	-0.068
Mof_C 	C 	0.2571	0.8167	0.6385	-0.088
Mof_C 	C 	0.2815	0.8391	0.6039	-0.062
Mof_C 	C 	0.4818	0.8484	0.4998	-0.052
Mof_C 	C 	0.4664	0.7924	0.5338	-0.093
Mof_C 	C 	0.4947	0.8139	0.4653	-0.046
Mof_C 	C 	0.3553	0.9127	0.3821	-0.068
Mof_C 	C 	0.1385	0.7571	0.8167	-0.088
Mof_C 	C 	0.1039	0.7815	0.8391	-0.062
Mof_C 	C 	0.9998	0.9818	0.8484	-0.052
Mof_C 	C 	0.0338	0.9664	0.7924	-0.093
Mof_C 	C 	0.9653	0.9947	0.8139	-0.046
Mof_C 	C 	0.8821	0.8553	0.9127	-0.068
Mof_C 	C 	0.3167	0.2877	0.6385	-0.088
Mof_C 	C 	0.3391	0.2755	0.6039	-0.062
Mof_C 	C 	0.3484	0.17	0.4998	-0.052
Mof_C 	C 	0.2924	0.2074	0.5338	-0.093
Mof_C 	C 	0.3139	0.2261	0.4653	-0.046
Mof_C 	C 	0.4127	0.3499	0.3821	-0.068
Mof_C 	C 	0.7877	0.8167	0.7571	-0.088
Mof_C 	C 	0.7755	0.8391	0.7815	-0.062
Mof_C 	C 	0.67	0.8484	0.9818	-0.052
Mof_C 	C 	0.7074	0.7924	0.9664	-0.093
Mof_C 	C 	0.7261	0.8139	0.9947	-0.046
Mof_C 	C 	0.8499	0.9127	0.8553	-0.068
Mof_C 	C 	0.2571	0.6385	0.2877	-0.088
Mof_C 	C 	0.2815	0.6039	0.2755	-0.062
Mof_C 	C 	0.4818	0.4998	0.17	-0.052
Mof_C 	C 	0.4664	0.5338	0.2074	-0.093
Mof_C 	C 	0.4947	0.4653	0.2261	-0.046
Mof_C 	C 	0.3553	0.3821	0.3499	-0.068
Mof_C 	C 	0.6833	0.3615	0.7123	-0.088
Mof_C 	C 	0.6609	0.3961	0.7245	-0.062
Mof_C 	C 	0.6516	0.5002	0.83	-0.052
Mof_C 	C 	0.7076	0.4662	0.7926	-0.093
Mof_C 	C 	0.6861	0.5347	0.7739	-0.046
Mof_C 	C 	0.5873	0.6179	0.6501	-0.068
Mof_C 	C 	0.8615	0.1833	0.2429	-0.088
Mof_C 	C 	0.8961	0.1609	0.2185	-0.062
Mof_C 	C 	0.0002	0.1516	0.0182	-0.052
Mof_C 	C 	0.9662	0.2076	0.0336	-0.093
Mof_C 	C 	0.0347	0.1861	0.0053	-0.046
Mof_C 	C 	0.1179	0.0873	0.1447	-0.068
Mof_C 	C 	0.7429	0.7123	0.3615	-0.088
Mof_C 	C 	0.7185	0.7245	0.3961	-0.062
Mof_C 	C 	0.5182	0.83	0.5002	-0.052
Mof_C 	C 	0.5336	0.7926	0.4662	-0.093
Mof_C 	C 	0.5053	0.7739	0.5347	-0.046
Mof_C 	C 	0.6447	0.6501	0.6179	-0.068
Mof_C 	C 	0.2123	0.2429	0.1833	-0.088
Mof_C 	C 	0.2245	0.2185	0.1609	-0.062
Mof_C 	C 	0.33	0.0182	0.1516	-0.052
Mof_C 	C 	0.2926	0.0336	0.2076	-0.093
Mof_C 	C 	0.2739	0.0053	0.1861	-0.046
Mof_C 	C 	0.1501	0.1447	0.0873	-0.068
Mof_C 	C 	0.2123	0.3615	0.2429	-0.088
Mof_C 	C 	0.2245	0.3961	0.2185	-0.062
Mof_C 	C 	0.33	0.5002	0.0182	-0.052
Mof_C 	C 	0.2926	0.4662	0.0336	-0.093
Mof_C 	C 	0.2739	0.5347	0.0053	-0.046
Mof_C 	C 	0.1501	0.6179	0.1447	-0.068
Mof_C 	C 	0.7429	0.1833	0.7123	-0.088
Mof_C 	C 	0.7185	0.1609	0.7245	-0.062
Mof_C 	C 	0.5182	0.1516	0.83	-0.052
Mof_C 	C 	0.5336	0.2076	0.7926	-0.093
Mof_C 	C 	0.5053	0.1861	0.7739	-0.046
Mof_C 	C 	0.6447	0.0873	0.6501	-0.068
Mof_C 	C 	0.8615	0.7123	0.1833	-0.088
Mof_C 	C 	0.8961	0.7245	0.1609	-0.062
Mof_C 	C 	0.0002	0.83	0.1516	-0.052
Mof_C 	C 	0.9662	0.7926	0.2076	-0.093
Mof_C 	C 	0.0347	0.7739	0.1861	-0.046
Mof_C 	C 	0.1179	0.6501	0.0873	-0.068
Mof_C 	C 	0.6833	0.2429	0.3615	-0.088
Mof_C 	C 	0.6609	0.2185	0.3961	-0.062
Mof_C 	C 	0.6516	0.0182	0.5002	-0.052
Mof_C 	C 	0.7076	0.0336	0.4662	-0.093
Mof_C 	C 	0.6861	0.0053	0.5347	-0.046
Mof_C 	C 	0.5873	0.1447	0.6179	-0.068
Mof_C 	C 	0.7429	0.3615	0.1833	-0.088
Mof_C 	C 	0.7185	0.3961	0.1609	-0.062
Mof_C 	C 	0.5182	0.5002	0.1516	-0.052
Mof_C 	C 	0.5336	0.4662	0.2076	-0.093
Mof_C 	C 	0.5053	0.5347	0.1861	-0.046
Mof_C 	C 	0.6447	0.6179	0.0873	-0.068
Mof_C 	C 	0.2123	0.1833	0.3615	-0.088
Mof_C 	C 	0.2245	0.1609	0.3961	-0.062
Mof_C 	C 	0.33	0.1516	0.5002	-0.052
Mof_C 	C 	0.2926	0.2076	0.4662	-0.093
Mof_C 	C 	0.2739	0.1861	0.5347	-0.046
Mof_C 	C 	0.1501	0.0873	0.6179	-0.068
Mof_C 	C 	0.6833	0.7123	0.2429	-0.088
Mof_C 	C 	0.6609	0.7245	0.2185	-0.062
Mof_C 	C 	0.6516	0.83	0.0182	-0.052
Mof_C 	C 	0.7076	0.7926	0.0336	-0.093
Mof_C 	C 	0.6861	0.7739	0.0053	-0.046
Mof_C 	C 	0.5873	0.6501	0.1447	-0.068
Mof_C 	C 	0.8615	0.2429	0.7123	-0.088
Mof_C 	C 	0.8961	0.2185	0.7245	-0.062
Mof_C 	C 	0.0002	0.0182	0.83	-0.052
Mof_C 	C 	0.9662	0.0336	0.7926	-0.093
Mof_C 	C 	0.0347	0.0053	0.7739	-0.046
Mof_C 	C 	0.1179	0.1447	0.6501	-0.068
Mof_C 	C 	0.8615	0.1833	0.7123	-0.088
Mof_C 	C 	0.8961	0.1609	0.7245	-0.062
Mof_C 	C 	0.0002	0.1516	0.83	-0.052
Mof_C 	C 	0.9662	0.2076	0.7926	-0.093
Mof_C 	C 	0.0347	0.1861	0.7739	-0.046
Mof_C 	C 	0.1179	0.0873	0.6501	-0.068
Mof_C 	C 	0.6833	0.3615	0.2429	-0.088
Mof_C 	C 	0.6609	0.3961	0.2185	-0.062
Mof_C 	C 	0.6516	0.5002	0.0182	-0.052
Mof_C 	C 	0.7076	0.4662	0.0336	-0.093
Mof_C 	C 	0.6861	0.5347	0.0053	-0.046
Mof_C 	C 	0.5873	0.6179	0.1447	-0.068
Mof_C 	C 	0.2123	0.2429	0.3615	-0.088
Mof_C 	C 	0.2245	0.2185	0.3961	-0.062
Mof_C 	C 	0.33	0.0182	0.5002	-0.052
Mof_C 	C 	0.2926	0.0336	0.4662	-0.093
Mof_C 	C 	0.2739	0.0053	0.5347	-0.046
Mof_C 	C 	0.1501	0.1447	0.6179	-0.068
Mof_C 	C 	0.7429	0.7123	0.1833	-0.088
Mof_C 	C 	0.7185	0.7245	0.1609	-0.062
Mof_C 	C 	0.5182	0.83	0.1516	-0.052
Mof_C 	C 	0.5336	0.7926	0.2076	-0.093
Mof_C 	C 	0.5053	0.7739	0.1861	-0.046
Mof_C 	C 	0.6447	0.6501	0.0873	-0.068
Mof_C 	C 	0.8615	0.7123	0.2429	-0.088
Mof_C 	C 	0.8961	0.7245	0.2185	-0.062
Mof_C 	C 	0.0002	0.83	0.0182	-0.052
Mof_C 	C 	0.9662	0.7926	0.0336	-0.093
Mof_C 	C 	0.0347	0.7739	0.0053	-0.046
Mof_C 	C 	0.1179	0.6501	0.1447	-0.068
Mof_C 	C 	0.6833	0.2429	0.7123	-0.088
Mof_C 	C 	0.6609	0.2185	0.7245	-0.062
Mof_C 	C 	0.6516	0.0182	0.83	-0.052
Mof_C 	C 	0.7076	0.0336	0.7926	-0.093
Mof_C 	C 	0.6861	0.0053	0.7739	-0.046
Mof_C 	C 	0.5873	0.1447	0.6501	-0.068
Mof_C 	C 	0.2123	0.3615	0.1833	-0.088
Mof_C 	C 	0.2245	0.3961	0.1609	-0.062
Mof_C 	C 	0.33	0.5002	0.1516	-0.052
Mof_C 	C 	0.2926	0.4662	0.2076	-0.093
Mof_C 	C 	0.2739	0.5347	0.1861	-0.046
Mof_C 	C 	0.1501	0.6179	0.0873	-0.068
Mof_C 	C 	0.7429	0.1833	0.3615	-0.088
Mof_C 	C 	0.7185	0.1609	0.3961	-0.062
Mof_C 	C 	0.5182	0.1516	0.5002	-0.052
Mof_C 	C 	0.5336	0.2076	0.4662	-0.093
Mof_C 	C 	0.5053	0.1861	0.5347	-0.046
Mof_C 	C 	0.6447	0.0873	0.6179	-0.068
Mof_C 	C 	0.8615	0.2429	0.1833	-0.088
Mof_C 	C 	0.8961	0.2185	0.1609	-0.062
Mof_C 	C 	0.0002	0.0182	0.1516	-0.052
Mof_C 	C 	0.9662	0.0336	0.2076	-0.093
Mof_C 	C 	0.0347	0.0053	0.1861	-0.046
Mof_C 	C 	0.1179	0.1447	0.0873	-0.068
Mof_C 	C 	0.6833	0.7123	0.3615	-0.088
Mof_C 	C 	0.6609	0.7245	0.3961	-0.062
Mof_C 	C 	0.6516	0.83	0.5002	-0.052
Mof_C 	C 	0.7076	0.7926	0.4662	-0.093
Mof_C 	C 	0.6861	0.7739	0.5347	-0.046
Mof_C 	C 	0.5873	0.6501	0.6179	-0.068
Mof_C 	C 	0.2123	0.1833	0.2429	-0.088
Mof_C 	C 	0.2245	0.1609	0.2185	-0.062
Mof_C 	C 	0.33	0.1516	0.0182	-0.052
Mof_C 	C 	0.2926	0.2076	0.0336	-0.093
Mof_C 	C 	0.2739	0.1861	0.0053	-0.046
Mof_C 	C 	0.1501	0.0873	0.1447	-0.068
Mof_C 	C 	0.7429	0.3615	0.7123	-0.088
Mof_C 	C 	0.7185	0.3961	0.7245	-0.062
Mof_C 	C 	0.5182	0.5002	0.83	-0.052
Mof_C 	C 	0.5336	0.4662	0.7926	-0.093
Mof_C 	C 	0.5053	0.5347	0.7739	-0.046
Mof_C 	C 	0.6447	0.6179	0.6501	-0.068
Mof_C 	C 	0.3167	0.6385	0.2877	-0.088
Mof_C 	C 	0.3391	0.6039	0.2755	-0.062
Mof_C 	C 	0.3484	0.4998	0.17	-0.052
Mof_C 	C 	0.2924	0.5338	0.2074	-0.093
Mof_C 	C 	0.3139	0.4653	0.2261	-0.046
Mof_C 	C 	0.4127	0.3821	0.3499	-0.068
Mof_C 	C 	0.1385	0.8167	0.7571	-0.088
Mof_C 	C 	0.1039	0.8391	0.7815	-0.062
Mof_C 	C 	0.9998	0.8484	0.9818	-0.052
Mof_C 	C 	0.0338	0.7924	0.9664	-0.093
Mof_C 	C 	0.9653	0.8139	0.9947	-0.046
Mof_C 	C 	0.8821	0.9127	0.8553	-0.068
Mof_C 	C 	0.2571	0.2877	0.6385	-0.088
Mof_C 	C 	0.2815	0.2755	0.6039	-0.062
Mof_C 	C 	0.4818	0.17	0.4998	-0.052
Mof_C 	C 	0.4664	0.2074	0.5338	-0.093
Mof_C 	C 	0.4947	0.2261	0.4653	-0.046
Mof_C 	C 	0.3553	0.3499	0.3821	-0.068
Mof_C 	C 	0.7877	0.7571	0.8167	-0.088
Mof_C 	C 	0.7755	0.7815	0.8391	-0.062
Mof_C 	C 	0.67	0.9818	0.8484	-0.052
Mof_C 	C 	0.7074	0.9664	0.7924	-0.093
Mof_C 	C 	0.7261	0.9947	0.8139	-0.046
Mof_C 	C 	0.8499	0.8553	0.9127	-0.068
Mof_C 	C 	0.7877	0.6385	0.7571	-0.088
Mof_C 	C 	0.7755	0.6039	0.7815	-0.062
Mof_C 	C 	0.67	0.4998	0.9818	-0.052
Mof_C 	C 	0.7074	0.5338	0.9664	-0.093
Mof_C 	C 	0.7261	0.4653	0.9947	-0.046
Mof_C 	C 	0.8499	0.3821	0.8553	-0.068
Mof_C 	C 	0.2571	0.8167	0.2877	-0.088
Mof_C 	C 	0.2815	0.8391	0.2755	-0.062
Mof_C 	C 	0.4818	0.8484	0.17	-0.052
Mof_C 	C 	0.4664	0.7924	0.2074	-0.093
Mof_C 	C 	0.4947	0.8139	0.2261	-0.046
Mof_C 	C 	0.3553	0.9127	0.3499	-0.068
Mof_C 	C 	0.1385	0.2877	0.8167	-0.088
Mof_C 	C 	0.1039	0.2755	0.8391	-0.062
Mof_C 	C 	0.9998	0.17	0.8484	-0.052
Mof_C 	C 	0.0338	0.2074	0.7924	-0.093
Mof_C 	C 	0.9653	0.2261	0.8139	-0.046
Mof_C 	C 	0.8821	0.3499	0.9127	-0.068
Mof_C 	C 	0.3167	0.7571	0.6385	-0.088
Mof_C 	C 	0.3391	0.7815	0.6039	-0.062
Mof_C 	C 	0.3484	0.9818	0.4998	-0.052
Mof_C 	C 	0.2924	0.9664	0.5338	-0.093
Mof_C 	C 	0.3139	0.9947	0.4653	-0.046
Mof_C 	C 	0.4127	0.8553	0.3821	-0.068
Mof_C 	C 	0.2571	0.6385	0.8167	-0.088
Mof_C 	C 	0.2815	0.6039	0.8391	-0.062
Mof_C 	C 	0.4818	0.4998	0.8484	-0.052
Mof_C 	C 	0.4664	0.5338	0.7924	-0.093
Mof_C 	C 	0.4947	0.4653	0.8139	-0.046
Mof_C 	C 	0.3553	0.3821	0.9127	-0.068
Mof_C 	C 	0.7877	0.8167	0.6385	-0.088
Mof_C 	C 	0.7755	0.8391	0.6039	-0.062
Mof_C 	C 	0.67	0.8484	0.4998	-0.052
Mof_C 	C 	0.7074	0.7924	0.5338	-0.093
Mof_C 	C 	0.7261	0.8139	0.4653	-0.046
Mof_C 	C 	0.8499	0.9127	0.3821	-0.068
Mof_C 	C 	0.3167	0.2877	0.7571	-0.088
Mof_C 	C 	0.3391	0.2755	0.7815	-0.062
Mof_C 	C 	0.3484	0.17	0.9818	-0.052
Mof_C 	C 	0.2924	0.2074	0.9664	-0.093
Mof_C 	C 	0.3139	0.2261	0.9947	-0.046
Mof_C 	C 	0.4127	0.3499	0.8553	-0.068
Mof_C 	C 	0.1385	0.7571	0.2877	-0.088
Mof_C 	C 	0.1039	0.7815	0.2755	-0.062
Mof_C 	C 	0.9998	0.9818	0.17	-0.052
Mof_C 	C 	0.0338	0.9664	0.2074	-0.093
Mof_C 	C 	0.9653	0.9947	0.2261	-0.046
Mof_C 	C 	0.8821	0.8553	0.3499	-0.068
Mof_C 	C 	0.1837	0.6837	0.5041	-0.1
Mof_C 	C 	0.1979	0.6979	0.4605	-0.054
Mof_C 	C 	0.1837	0.6837	0.6285	-0.1
Mof_C 	C 	0.1979	0.6979	0.6437	-0.054
Mof_C 	C 	0.0041	0.6285	0.6837	-0.1
Mof_C 	C 	0.9605	0.6437	0.6979	-0.054
Mof_C 	C 	0.1285	0.5041	0.6837	-0.1
Mof_C 	C 	0.1437	0.4605	0.6979	-0.054
Mof_C 	C 	0.1837	0.5041	0.6285	-0.1
Mof_C 	C 	0.1979	0.4605	0.6437	-0.054
Mof_C 	C 	0.1837	0.6285	0.5041	-0.1
Mof_C 	C 	0.1979	0.6437	0.4605	-0.054
Mof_C 	C 	0.0041	0.6837	0.6837	-0.1
Mof_C 	C 	0.9605	0.6979	0.6979	-0.054
Mof_C 	C 	0.1285	0.6837	0.6837	-0.1
Mof_C 	C 	0.1437	0.6979	0.6979	-0.054
Mof_C 	C 	0.1837	0.6285	0.6837	-0.1
Mof_C 	C 	0.1979	0.6437	0.6979	-0.054
Mof_C 	C 	0.1837	0.5041	0.6837	-0.1
Mof_C 	C 	0.1979	0.4605	0.6979	-0.054
Mof_C 	C 	0.0041	0.6837	0.6285	-0.1
Mof_C 	C 	0.9605	0.6979	0.6437	-0.054
Mof_C 	C 	0.1285	0.6837	0.5041	-0.1
Mof_C 	C 	0.1437	0.6979	0.4605	-0.054
Mof_C 	C 	0.8163	0.3163	0.4959	-0.1
Mof_C 	C 	0.8021	0.3021	0.5395	-0.054
Mof_C 	C 	0.8163	0.3163	0.3715	-0.1
Mof_C 	C 	0.8021	0.3021	0.3563	-0.054
Mof_C 	C 	0.8715	0.4959	0.3163	-0.1
Mof_C 	C 	0.8563	0.5395	0.3021	-0.054
Mof_C 	C 	0.9959	0.3715	0.3163	-0.1
Mof_C 	C 	0.0395	0.3563	0.3021	-0.054
Mof_C 	C 	0.9959	0.3163	0.3715	-0.1
Mof_C 	C 	0.0395	0.3021	0.3563	-0.054
Mof_C 	C 	0.8715	0.3163	0.4959	-0.1
Mof_C 	C 	0.8563	0.3021	0.5395	-0.054
Mof_C 	C 	0.8163	0.4959	0.3163	-0.1
Mof_C 	C 	0.8021	0.5395	0.3021	-0.054
Mof_C 	C 	0.8163	0.3715	0.3163	-0.1
Mof_C 	C 	0.8021	0.3563	0.3021	-0.054
Mof_C 	C 	0.8715	0.3163	0.3163	-0.1
Mof_C 	C 	0.8563	0.3021	0.3021	-0.054
Mof_C 	C 	0.9959	0.3163	0.3163	-0.1
Mof_C 	C 	0.0395	0.3021	0.3021	-0.054
Mof_C 	C 	0.8163	0.4959	0.3715	-0.1
Mof_C 	C 	0.8021	0.5395	0.3563	-0.054
Mof_C 	C 	0.8163	0.3715	0.4959	-0.1
Mof_C 	C 	0.8021	0.3563	0.5395	-0.054
Mof_C 	C 	0.1019	0.7759	0.3463	-0.103
Mof_C 	C 	0.0674	0.801	0.3306	-0.056
Mof_C 	C 	0.2759	0.6019	0.7759	-0.103
Mof_C 	C 	0.301	0.5674	0.801	-0.056
Mof_C 	C 	0.8463	0.7759	0.6019	-0.103
Mof_C 	C 	0.8306	0.801	0.5674	-0.056
Mof_C 	C 	0.2759	0.3463	0.7759	-0.103
Mof_C 	C 	0.301	0.3306	0.801	-0.056
Mof_C 	C 	0.1019	0.3463	0.7759	-0.103
Mof_C 	C 	0.0674	0.3306	0.801	-0.056
Mof_C 	C 	0.2759	0.7759	0.3463	-0.103
Mof_C 	C 	0.301	0.801	0.3306	-0.056
Mof_C 	C 	0.8463	0.6019	0.7759	-0.103
Mof_C 	C 	0.8306	0.5674	0.801	-0.056
Mof_C 	C 	0.2759	0.7759	0.6019	-0.103
Mof_C 	C 	0.301	0.801	0.5674	-0.056
Mof_C 	C 	0.1019	0.7759	0.7759	-0.103
Mof_C 	C 	0.0674	0.801	0.801	-0.056
Mof_C 	C 	0.2759	0.3463	0.6019	-0.103
Mof_C 	C 	0.301	0.3306	0.5674	-0.056
Mof_C 	C 	0.8463	0.7759	0.7759	-0.103
Mof_C 	C 	0.8306	0.801	0.801	-0.056
Mof_C 	C 	0.2759	0.6019	0.3463	-0.103
Mof_C 	C 	0.301	0.5674	0.3306	-0.056
Mof_C 	C 	0.7241	0.3981	0.6537	-0.103
Mof_C 	C 	0.699	0.4326	0.6694	-0.056
Mof_C 	C 	0.8981	0.2241	0.2241	-0.103
Mof_C 	C 	0.9326	0.199	0.199	-0.056
Mof_C 	C 	0.7241	0.6537	0.3981	-0.103
Mof_C 	C 	0.699	0.6694	0.4326	-0.056
Mof_C 	C 	0.1537	0.2241	0.2241	-0.103
Mof_C 	C 	0.1694	0.199	0.199	-0.056
Mof_C 	C 	0.1537	0.3981	0.2241	-0.103
Mof_C 	C 	0.1694	0.4326	0.199	-0.056
Mof_C 	C 	0.7241	0.2241	0.6537	-0.103
Mof_C 	C 	0.699	0.199	0.6694	-0.056
Mof_C 	C 	0.8981	0.6537	0.2241	-0.103
Mof_C 	C 	0.9326	0.6694	0.199	-0.056
Mof_C 	C 	0.7241	0.2241	0.3981	-0.103
Mof_C 	C 	0.699	0.199	0.4326	-0.056
Mof_C 	C 	0.7241	0.3981	0.2241	-0.103
Mof_C 	C 	0.699	0.4326	0.199	-0.056
Mof_C 	C 	0.1537	0.2241	0.3981	-0.103
Mof_C 	C 	0.1694	0.199	0.4326	-0.056
Mof_C 	C 	0.7241	0.6537	0.2241	-0.103
Mof_C 	C 	0.699	0.6694	0.199	-0.056
Mof_C 	C 	0.8981	0.2241	0.6537	-0.103
Mof_C 	C 	0.9326	0.199	0.6694	-0.056
Mof_I 	I 	0.99306	0.79904	0.30794	-0.579
Mof_I 	I 	0.29904	0.49306	0.89996	-0.579
Mof_I 	I 	0.80794	0.89996	0.49306	-0.579
Mof_I 	I 	0.39996	0.30794	0.79904	-0.579
Mof_I 	I 	0.99306	0.30794	0.89996	-0.579
Mof_I 	I 	0.29904	0.89996	0.30794	-0.579
Mof_I 	I 	0.80794	0.49306	0.79904	-0.579
Mof_I 	I 	0.39996	0.79904	0.49306	-0.579
Mof_I 	I 	0.99306	0.89996	0.79904	-0.579
Mof_I 	I 	0.29904	0.30794	0.49306	-0.579
Mof_I 	I 	0.80794	0.79904	0.89996	-0.579
Mof_I 	I 	0.39996	0.49306	0.30794	-0.579
Mof_I 	I 	0.70096	0.50694	0.69206	-0.579
Mof_I 	I 	0.00694	0.20096	0.10004	-0.579
Mof_I 	I 	0.60004	0.69206	0.50694	-0.579
Mof_I 	I 	0.19206	0.10004	0.20096	-0.579
Mof_I 	I 	0.19206	0.50694	0.10004	-0.579
Mof_I 	I 	0.60004	0.20096	0.69206	-0.579
Mof_I 	I 	0.00694	0.69206	0.20096	-0.579
Mof_I 	I 	0.70096	0.10004	0.50694	-0.579
Mof_I 	I 	0.60004	0.50694	0.20096	-0.579
Mof_I 	I 	0.19206	0.20096	0.50694	-0.579
Mof_I 	I 	0.70096	0.69206	0.10004	-0.579
Mof_I 	I 	0.00694	0.10004	0.69206	-0.579
Mof_I 	I 	0.00694	0.20096	0.69206	-0.579
Mof_I 	I 	0.70096	0.50694	0.10004	-0.579
Mof_I 	I 	0.19206	0.10004	0.50694	-0.579
Mof_I 	I 	0.60004	0.69206	0.20096	-0.579
Mof_I 	I 	0.00694	0.69206	0.10004	-0.579
Mof_I 	I 	0.70096	0.10004	0.69206	-0.579
Mof_I 	I 	0.19206	0.50694	0.20096	-0.579
Mof_I 	I 	0.60004	0.20096	0.50694	-0.579
Mof_I 	I 	0.00694	0.10004	0.20096	-0.579
Mof_I 	I 	0.70096	0.69206	0.50694	-0.579
Mof_I 	I 	0.19206	0.20096	0.10004	-0.579
Mof_I 	I 	0.60004	0.50694	0.69206	-0.579
Mof_I 	I 	0.29904	0.49306	0.30794	-0.579
Mof_I 	I 	0.99306	0.79904	0.89996	-0.579
Mof_I 	I 	0.39996	0.30794	0.49306	-0.579
Mof_I 	I 	0.80794	0.89996	0.79904	-0.579
Mof_I 	I 	0.80794	0.49306	0.89996	-0.579
Mof_I 	I 	0.39996	0.79904	0.30794	-0.579
Mof_I 	I 	0.99306	0.30794	0.79904	-0.579
Mof_I 	I 	0.29904	0.89996	0.49306	-0.579
Mof_I 	I 	0.39996	0.49306	0.79904	-0.579
Mof_I 	I 	0.80794	0.79904	0.49306	-0.579
Mof_I 	I 	0.29904	0.30794	0.89996	-0.579
Mof_I 	I 	0.99306	0.89996	0.30794	-0.579
Mof_I 	I 	0.09931	0.70207	0.59931	-0.584
Mof_I 	I 	0.20207	0.59931	0.59931	-0.584
Mof_I 	I 	0.09931	0.59931	0.59931	-0.584
Mof_I 	I 	0.09931	0.59931	0.70207	-0.584
Mof_I 	I 	0.79793	0.40069	0.40069	-0.584
Mof_I 	I 	0.90069	0.29793	0.40069	-0.584
Mof_I 	I 	0.90069	0.40069	0.40069	-0.584
Mof_I 	I 	0.90069	0.40069	0.29793	-0.584
Mof_I 	I 	0.24339	0.74339	0.26983	-0.593
Mof_I 	I 	0.24339	0.74339	0.74339	-0.593
Mof_I 	I 	0.76983	0.74339	0.74339	-0.593
Mof_I 	I 	0.24339	0.26983	0.74339	-0.593
Mof_I 	I 	0.75661	0.25661	0.73017	-0.593
Mof_I 	I 	0.75661	0.25661	0.25661	-0.593
Mof_I 	I 	0.75661	0.73017	0.25661	-0.593
Mof_I 	I 	0.23017	0.25661	0.25661	-0.593
Mof_I 	I 	0.17479	0.77787	0.37255	-0.577
Mof_I 	I 	0.27787	0.67479	0.67479	-0.577
Mof_I 	I 	0.87255	0.67479	0.67479	-0.577
Mof_I 	I 	0.17479	0.37255	0.77787	-0.577
Mof_I 	I 	0.17479	0.37255	0.67479	-0.577
Mof_I 	I 	0.27787	0.67479	0.37255	-0.577
Mof_I 	I 	0.87255	0.67479	0.77787	-0.577
Mof_I 	I 	0.17479	0.77787	0.67479	-0.577
Mof_I 	I 	0.17479	0.67479	0.77787	-0.577
Mof_I 	I 	0.27787	0.37255	0.67479	-0.577
Mof_I 	I 	0.87255	0.77787	0.67479	-0.577
Mof_I 	I 	0.17479	0.67479	0.37255	-0.577
Mof_I 	I 	0.72213	0.32521	0.62745	-0.577
Mof_I 	I 	0.82521	0.22213	0.32521	-0.577
Mof_I 	I 	0.82521	0.62745	0.32521	-0.577
Mof_I 	I 	0.12745	0.32521	0.22213	-0.577
Mof_I 	I 	0.12745	0.32521	0.32521	-0.577
Mof_I 	I 	0.82521	0.22213	0.62745	-0.577
Mof_I 	I 	0.82521	0.62745	0.22213	-0.577
Mof_I 	I 	0.72213	0.32521	0.32521	-0.577
Mof_I 	I 	0.82521	0.32521	0.22213	-0.577
Mof_I 	I 	0.12745	0.22213	0.32521	-0.577
Mof_I 	I 	0.72213	0.62745	0.32521	-0.577
Mof_I 	I 	0.82521	0.32521	0.62745	-0.577
Mof_I 	I 	0.0582	0.86992	0.20196	-0.579
Mof_I 	I 	0.93357	0.91263	0.24117	-0.597
Mof_I 	I 	0.36992	0.5582	0.86992	-0.579
Mof_I 	I 	0.41263	0.43357	0.91263	-0.597
Mof_I 	I 	0.70196	0.86992	0.5582	-0.579
Mof_I 	I 	0.74117	0.91263	0.43357	-0.597
Mof_I 	I 	0.36992	0.20196	0.86992	-0.579
Mof_I 	I 	0.41263	0.24117	0.91263	-0.597
Mof_I 	I 	0.0582	0.20196	0.86992	-0.579
Mof_I 	I 	0.93357	0.24117	0.91263	-0.597
Mof_I 	I 	0.36992	0.86992	0.20196	-0.579
Mof_I 	I 	0.41263	0.91263	0.24117	-0.597
Mof_I 	I 	0.70196	0.5582	0.86992	-0.579
Mof_I 	I 	0.74117	0.43357	0.91263	-0.597
Mof_I 	I 	0.36992	0.86992	0.5582	-0.579
Mof_I 	I 	0.41263	0.91263	0.43357	-0.597
Mof_I 	I 	0.0582	0.86992	0.86992	-0.579
Mof_I 	I 	0.93357	0.91263	0.91263	-0.597
Mof_I 	I 	0.36992	0.20196	0.5582	-0.579
Mof_I 	I 	0.41263	0.24117	0.43357	-0.597
Mof_I 	I 	0.70196	0.86992	0.86992	-0.579
Mof_I 	I 	0.74117	0.91263	0.91263	-0.597
Mof_I 	I 	0.36992	0.5582	0.20196	-0.579
Mof_I 	I 	0.41263	0.43357	0.24117	-0.597
Mof_I 	I 	0.63008	0.4418	0.79804	-0.579
Mof_I 	I 	0.58737	0.56643	0.75883	-0.597
Mof_I 	I 	0.9418	0.13008	0.13008	-0.579
Mof_I 	I 	0.06643	0.08737	0.08737	-0.597
Mof_I 	I 	0.63008	0.79804	0.4418	-0.579
Mof_I 	I 	0.58737	0.75883	0.56643	-0.597
Mof_I 	I 	0.29804	0.13008	0.13008	-0.579
Mof_I 	I 	0.25883	0.08737	0.08737	-0.597
Mof_I 	I 	0.29804	0.4418	0.13008	-0.579
Mof_I 	I 	0.25883	0.56643	0.08737	-0.597
Mof_I 	I 	0.63008	0.13008	0.79804	-0.579
Mof_I 	I 	0.58737	0.08737	0.75883	-0.597
Mof_I 	I 	0.9418	0.79804	0.13008	-0.579
Mof_I 	I 	0.06643	0.75883	0.08737	-0.597
Mof_I 	I 	0.63008	0.13008	0.4418	-0.579
Mof_I 	I 	0.58737	0.08737	0.56643	-0.597
Mof_I 	I 	0.63008	0.4418	0.13008	-0.579
Mof_I 	I 	0.58737	0.56643	0.08737	-0.597
Mof_I 	I 	0.29804	0.13008	0.4418	-0.579
Mof_I 	I 	0.25883	0.08737	0.56643	-0.597
Mof_I 	I 	0.63008	0.79804	0.13008	-0.579
Mof_I 	I 	0.58737	0.75883	0.08737	-0.597
Mof_I 	I 	0.9418	0.13008	0.79804	-0.579
Mof_I 	I 	0.06643	0.08737	0.75883	-0.597
Mof_N 	N 	0.9983	0.8259	0.2079	-0.169
Mof_N 	N 	0.3259	0.4983	0.9679	-0.169
Mof_N 	N 	0.7079	0.9679	0.4983	-0.169
Mof_N 	N 	0.4679	0.2079	0.8259	-0.169
Mof_N 	N 	0.9983	0.2079	0.9679	-0.169
Mof_N 	N 	0.3259	0.9679	0.2079	-0.169
Mof_N 	N 	0.7079	0.4983	0.8259	-0.169
Mof_N 	N 	0.4679	0.8259	0.4983	-0.169
Mof_N 	N 	0.9983	0.9679	0.8259	-0.169
Mof_N 	N 	0.3259	0.2079	0.4983	-0.169
Mof_N 	N 	0.7079	0.8259	0.9679	-0.169
Mof_N 	N 	0.4679	0.4983	0.2079	-0.169
Mof_N 	N 	0.6741	0.5017	0.7921	-0.169
Mof_N 	N 	0.0017	0.1741	0.0321	-0.169
Mof_N 	N 	0.5321	0.7921	0.5017	-0.169
Mof_N 	N 	0.2921	0.0321	0.1741	-0.169
Mof_N 	N 	0.2921	0.5017	0.0321	-0.169
Mof_N 	N 	0.5321	0.1741	0.7921	-0.169
Mof_N 	N 	0.0017	0.7921	0.1741	-0.169
Mof_N 	N 	0.6741	0.0321	0.5017	-0.169
Mof_N 	N 	0.5321	0.5017	0.1741	-0.169
Mof_N 	N 	0.2921	0.1741	0.5017	-0.169
Mof_N 	N 	0.6741	0.7921	0.0321	-0.169
Mof_N 	N 	0.0017	0.0321	0.7921	-0.169
Mof_N 	N 	0.0017	0.1741	0.7921	-0.169
Mof_N 	N 	0.6741	0.5017	0.0321	-0.169
Mof_N 	N 	0.2921	0.0321	0.5017	-0.169
Mof_N 	N 	0.5321	0.7921	0.1741	-0.169
Mof_N 	N 	0.0017	0.7921	0.0321	-0.169
Mof_N 	N 	0.6741	0.0321	0.7921	-0.169
Mof_N 	N 	0.2921	0.5017	0.1741	-0.169
Mof_N 	N 	0.5321	0.1741	0.5017	-0.169
Mof_N 	N 	0.0017	0.0321	0.1741	-0.169
Mof_N 	N 	0.6741	0.7921	0.5017	-0.169
Mof_N 	N 	0.2921	0.1741	0.0321	-0.169
Mof_N 	N 	0.5321	0.5017	0.7921	-0.169
Mof_N 	N 	0.3259	0.4983	0.2079	-0.169
Mof_N 	N 	0.9983	0.8259	0.9679	-0.169
Mof_N 	N 	0.4679	0.2079	0.4983	-0.169
Mof_N 	N 	0.7079	0.9679	0.8259	-0.169
Mof_N 	N 	0.7079	0.4983	0.9679	-0.169
Mof_N 	N 	0.4679	0.8259	0.2079	-0.169
Mof_N 	N 	0.9983	0.2079	0.8259	-0.169
Mof_N 	N 	0.3259	0.9679	0.4983	-0.169
Mof_N 	N 	0.4679	0.4983	0.8259	-0.169
Mof_N 	N 	0.7079	0.8259	0.4983	-0.169
Mof_N 	N 	0.3259	0.2079	0.9679	-0.169
Mof_N 	N 	0.9983	0.9679	0.2079	-0.169
Mof_N 	N 	0.1594	0.6594	0.5218	-0.169
Mof_N 	N 	0.184	0.684	0.448	-0.183
Mof_N 	N 	0.1594	0.6594	0.6594	-0.169
Mof_N 	N 	0.184	0.684	0.684	-0.183
Mof_N 	N 	0.0218	0.6594	0.6594	-0.169
Mof_N 	N 	0.948	0.684	0.684	-0.183
Mof_N 	N 	0.1594	0.5218	0.6594	-0.169
Mof_N 	N 	0.184	0.448	0.684	-0.183
Mof_N 	N 	0.8406	0.3406	0.4782	-0.169
Mof_N 	N 	0.816	0.316	0.552	-0.183
Mof_N 	N 	0.8406	0.3406	0.3406	-0.169
Mof_N 	N 	0.816	0.316	0.316	-0.183
Mof_N 	N 	0.8406	0.4782	0.3406	-0.169
Mof_N 	N 	0.816	0.552	0.316	-0.183
Mof_N 	N 	0.9782	0.3406	0.3406	-0.169
Mof_N 	N 	0.052	0.316	0.316	-0.183
Mof_N 	N 	0.1373	0.7757	0.3113	-0.163
Mof_N 	N 	0.0789	0.8159	0.2893	-0.182
Mof_N 	N 	0.9074	0.8728	0.347	-0.184
Mof_N 	N 	0.2757	0.6373	0.7757	-0.163
Mof_N 	N 	0.3159	0.5789	0.8159	-0.182
Mof_N 	N 	0.3728	0.4074	0.8728	-0.184
Mof_N 	N 	0.8113	0.7757	0.6373	-0.163
Mof_N 	N 	0.7893	0.8159	0.5789	-0.182
Mof_N 	N 	0.847	0.8728	0.4074	-0.184
Mof_N 	N 	0.2757	0.3113	0.7757	-0.163
Mof_N 	N 	0.3159	0.2893	0.8159	-0.182
Mof_N 	N 	0.3728	0.347	0.8728	-0.184
Mof_N 	N 	0.1373	0.3113	0.7757	-0.163
Mof_N 	N 	0.0789	0.2893	0.8159	-0.182
Mof_N 	N 	0.9074	0.347	0.8728	-0.184
Mof_N 	N 	0.2757	0.7757	0.3113	-0.163
Mof_N 	N 	0.3159	0.8159	0.2893	-0.182
Mof_N 	N 	0.3728	0.8728	0.347	-0.184
Mof_N 	N 	0.8113	0.6373	0.7757	-0.163
Mof_N 	N 	0.7893	0.5789	0.8159	-0.182
Mof_N 	N 	0.847	0.4074	0.8728	-0.184
Mof_N 	N 	0.2757	0.7757	0.6373	-0.163
Mof_N 	N 	0.3159	0.8159	0.5789	-0.182
Mof_N 	N 	0.3728	0.8728	0.4074	-0.184
Mof_N 	N 	0.1373	0.7757	0.7757	-0.163
Mof_N 	N 	0.0789	0.8159	0.8159	-0.182
Mof_N 	N 	0.9074	0.8728	0.8728	-0.184
Mof_N 	N 	0.2757	0.3113	0.6373	-0.163
Mof_N 	N 	0.3159	0.2893	0.5789	-0.182
Mof_N 	N 	0.3728	0.347	0.4074	-0.184
Mof_N 	N 	0.8113	0.7757	0.7757	-0.163
Mof_N 	N 	0.7893	0.8159	0.8159	-0.182
Mof_N 	N 	0.847	0.8728	0.8728	-0.184
Mof_N 	N 	0.2757	0.6373	0.3113	-0.163
Mof_N 	N 	0.3159	0.5789	0.2893	-0.182
Mof_N 	N 	0.3728	0.4074	0.347	-0.184
Mof_N 	N 	0.7243	0.3627	0.6887	-0.163
Mof_N 	N 	0.6841	0.4211	0.7107	-0.182
Mof_N 	N 	0.6272	0.5926	0.653	-0.184
Mof_N 	N 	0.8627	0.2243	0.2243	-0.163
Mof_N 	N 	0.9211	0.1841	0.1841	-0.182
Mof_N 	N 	0.0926	0.1272	0.1272	-0.184
Mof_N 	N 	0.7243	0.6887	0.3627	-0.163
Mof_N 	N 	0.6841	0.7107	0.4211	-0.182
Mof_N 	N 	0.6272	0.653	0.5926	-0.184
Mof_N 	N 	0.1887	0.2243	0.2243	-0.163
Mof_N 	N 	0.2107	0.1841	0.1841	-0.182
Mof_N 	N 	0.153	0.1272	0.1272	-0.184
Mof_N 	N 	0.1887	0.3627	0.2243	-0.163
Mof_N 	N 	0.2107	0.4211	0.1841	-0.182
Mof_N 	N 	0.153	0.5926	0.1272	-0.184
Mof_N 	N 	0.7243	0.2243	0.6887	-0.163
Mof_N 	N 	0.6841	0.1841	0.7107	-0.182
Mof_N 	N 	0.6272	0.1272	0.653	-0.184
Mof_N 	N 	0.8627	0.6887	0.2243	-0.163
Mof_N 	N 	0.9211	0.7107	0.1841	-0.182
Mof_N 	N 	0.0926	0.653	0.1272	-0.184
Mof_N 	N 	0.7243	0.2243	0.3627	-0.163
Mof_N 	N 	0.6841	0.1841	0.4211	-0.182
Mof_N 	N 	0.6272	0.1272	0.5926	-0.184
Mof_N 	N 	0.7243	0.3627	0.2243	-0.163
Mof_N 	N 	0.6841	0.4211	0.1841	-0.182
Mof_N 	N 	0.6272	0.5926	0.1272	-0.184
Mof_N 	N 	0.1887	0.2243	0.3627	-0.163
Mof_N 	N 	0.2107	0.1841	0.4211	-0.182
Mof_N 	N 	0.153	0.1272	0.5926	-0.184
Mof_N 	N 	0.7243	0.6887	0.2243	-0.163
Mof_N 	N 	0.6841	0.7107	0.1841	-0.182
Mof_N 	N 	0.6272	0.653	0.1272	-0.184
Mof_N 	N 	0.8627	0.2243	0.6887	-0.163
Mof_N 	N 	0.9211	0.1841	0.7107	-0.182
Mof_N 	N 	0.0926	0.1272	0.653	-0.184
_end
