data_functionalizedCrystal
_audit_creation_method	'EQeq! by Chris Wilmer'
_symmetry_space_group_name_H-M	'P1'
_symmetry_Int_Tables_number	1
_symmetry_cell_setting	triclinic
loop_
_symmetry_equiv_pos_as_xyz
  x,y,z
_cell_length_a	16.7622
_cell_length_b	34.4419
_cell_length_c	18.4473
_cell_angle_alpha	90
_cell_angle_beta	90
_cell_angle_gamma	90
loop_
_atom_site_label
_atom_site_type_symbol
_atom_site_fract_x
_atom_site_fract_y
_atom_site_fract_z
_atom_site_charge
Mof_Ti	Ti	0.34691	0.17775	0.82996	1.395
Mof_Ti	Ti	0.22486	0.16174	0.67204	1.376
Mof_Ti	Ti	0.65309	0.82225	0.82996	1.395
Mof_Ti	Ti	0.77514	0.83826	0.67204	1.377
Mof_Ti	Ti	0.84691	0.32225	0.17004	1.396
Mof_Ti	Ti	0.72486	0.33826	0.32796	1.377
Mof_Ti	Ti	0.15309	0.67775	0.17004	1.396
Mof_Ti	Ti	0.27514	0.66174	0.32796	1.377
Mof_Cd	Cd	0.37731	0.00581	0.25016	0.462
Mof_Cd	Cd	0.62269	0.99419	0.25016	0.461
Mof_Cd	Cd	0.87731	0.49419	0.74984	0.462
Mof_Cd	Cd	0.12269	0.50581	0.74984	0.462
Mof_Cd	Cd	0.5	2.37028e-33	0.4106	0.449
Mof_Cd	Cd	7.17261e-33	0.5	0.5894	0.448
Mof_H 	H 	0.3413	0.0526	0.0068	-0.009
Mof_H 	H 	0.4528	0.1267	0.1411	-0.075
Mof_H 	H 	0.5221	0.2172	0.1471	0.435
Mof_H 	H 	0.5343	0.1721	0.1511	0.465
Mof_H 	H 	0.4504	0.1901	0.1675	0.438
Mof_H 	H 	0.5766	0.2158	0.0182	0.448
Mof_H 	H 	0.5352	0.19	0.9592	0.455
Mof_H 	H 	0.5854	0.1705	0.0209	0.463
Mof_H 	H 	0.4465	0.2472	0.05	0.43
Mof_H 	H 	0.3719	0.2214	0.0674	0.438
Mof_H 	H 	0.4062	0.2227	0.9884	0.468
Mof_H 	H 	0.3779	0.0946	0.8499	-0.03
Mof_H 	H 	0.3074	0.071	0.8845	0.006
Mof_H 	H 	0.2384	0.1384	0.9611	0.02
Mof_H 	H 	0.1811	0.0792	0.9406	0.062
Mof_H 	H 	0.1327	0.0953	0.8744	0.044
Mof_H 	H 	0.0431	0.0931	0.972	0.029
Mof_H 	H 	0.1034	0.1148	0.023	0.031
Mof_H 	H 	0.0074	0.1582	0.9874	0
Mof_H 	H 	0.022	0.1482	0.9055	0.013
Mof_H 	H 	0.0852	0.2079	0.9319	0.014
Mof_H 	H 	0.1342	0.1884	0.9948	0.032
Mof_H 	H 	0.1496	0.1698	0.8463	-0.011
Mof_H 	H 	0.1642	0.2469	0.8767	-0.022
Mof_H 	H 	0.1907	0.2284	0.8032	0.004
Mof_H 	H 	0.179	0.3097	0.8362	-0.032
Mof_H 	H 	0.3967	0.3552	0.8027	-0.089
Mof_H 	H 	0.5822	0.2695	0.8731	0.457
Mof_H 	H 	0.5019	0.2468	0.883	0.476
Mof_H 	H 	0.5137	0.2872	0.9206	0.475
Mof_H 	H 	0.5924	0.3268	0.7984	0.446
Mof_H 	H 	0.5274	0.3471	0.8465	0.467
Mof_H 	H 	0.5172	0.3457	0.762	0.455
Mof_H 	H 	0.5631	0.268	0.7357	0.5
Mof_H 	H 	0.4846	0.2849	0.7019	0.518
Mof_H 	H 	0.4823	0.2457	0.7451	0.528
Mof_H 	H 	0.0862	0.4282	0.8344	0.011
Mof_H 	H 	0.1472	0.3699	0.8639	0.059
Mof_H 	H 	0.3314	0.3966	0.7337	0.071
Mof_H 	H 	0.2704	0.4549	0.7042	-0
Mof_H 	H 	0.1749	0.0776	0.3738	-0.04
Mof_H 	H 	0.3604	0.0507	0.5023	0.023
Mof_H 	H 	0.0505	0.1854	0.452	0.35
Mof_H 	H 	0.139	0.1818	0.4253	0.361
Mof_H 	H 	0.1195	0.1796	0.5083	0.384
Mof_H 	H 	0.9823	0.1251	0.5067	0.348
Mof_H 	H 	0.0542	0.1202	0.5603	0.358
Mof_H 	H 	0.0288	0.0856	0.51	0.363
Mof_H 	H 	0.0051	0.1275	0.3701	0.329
Mof_H 	H 	0.0481	0.0873	0.3774	0.348
Mof_H 	H 	0.0918	0.1222	0.34	0.337
Mof_H 	H 	0.3595	0.1564	0.5365	0.024
Mof_H 	H 	0.4978	0.1539	0.6294	0.041
Mof_H 	H 	0.482	0.1243	0.566	0.067
Mof_H 	H 	0.4923	0.1735	0.4817	0.049
Mof_H 	H 	0.5707	0.1716	0.5278	0.035
Mof_H 	H 	0.5319	0.236	0.5125	0.017
Mof_H 	H 	0.5288	0.2252	0.5954	0.011
Mof_H 	H 	0.3941	0.2254	0.5018	0.037
Mof_H 	H 	0.4087	0.2562	0.5632	0.025
Mof_H 	H 	0.3953	0.2065	0.6534	-0.007
Mof_H 	H 	0.2901	0.2465	0.6972	0.018
Mof_H 	H 	0.3015	0.2685	0.6235	0.004
Mof_H 	H 	0.2085	0.3178	0.6303	-0.013
Mof_H 	H 	0.9769	0.2965	0.6705	-0.092
Mof_H 	H 	0.0002	0.2154	0.8016	0.46
Mof_H 	H 	0.0409	0.1825	0.756	0.485
Mof_H 	H 	0.9493	0.1804	0.7729	0.453
Mof_H 	H 	0.9244	0.1736	0.6395	0.476
Mof_H 	H 	0.0161	0.1771	0.6242	0.496
Mof_H 	H 	0.9559	0.205	0.585	0.486
Mof_H 	H 	0.8994	0.2589	0.7383	0.505
Mof_H 	H 	0.8559	0.2214	0.7109	0.497
Mof_H 	H 	0.8828	0.2533	0.6554	0.517
Mof_H 	H 	0.137	0.4347	0.5562	0.006
Mof_H 	H 	0.1697	0.3704	0.5795	0.075
Mof_H 	H 	0.9634	0.3568	0.6874	0.073
Mof_H 	H 	0.9307	0.421	0.6642	0.019
Mof_H 	H 	0.2997	0.0819	0.6541	-0.013
Mof_H 	H 	0.3815	0.0829	0.6131	0.031
Mof_H 	H 	0.6587	0.9474	0.0068	-0.01
Mof_H 	H 	0.5472	0.8733	0.1411	-0.075
Mof_H 	H 	0.4779	0.7828	0.1471	0.435
Mof_H 	H 	0.4657	0.8279	0.1511	0.465
Mof_H 	H 	0.5496	0.8099	0.1675	0.438
Mof_H 	H 	0.4234	0.7842	0.0182	0.448
Mof_H 	H 	0.4648	0.81	0.9592	0.455
Mof_H 	H 	0.4146	0.8295	0.0209	0.463
Mof_H 	H 	0.5535	0.7528	0.05	0.43
Mof_H 	H 	0.6281	0.7786	0.0674	0.438
Mof_H 	H 	0.5938	0.7773	0.9884	0.468
Mof_H 	H 	0.6221	0.9054	0.8499	-0.031
Mof_H 	H 	0.6926	0.929	0.8845	0.006
Mof_H 	H 	0.7616	0.8616	0.9611	0.02
Mof_H 	H 	0.8189	0.9208	0.9406	0.062
Mof_H 	H 	0.8673	0.9047	0.8744	0.044
Mof_H 	H 	0.9569	0.9069	0.972	0.029
Mof_H 	H 	0.8966	0.8852	0.023	0.03
Mof_H 	H 	0.9926	0.8418	0.9874	-0
Mof_H 	H 	0.978	0.8518	0.9055	0.013
Mof_H 	H 	0.9148	0.7921	0.9319	0.014
Mof_H 	H 	0.8658	0.8116	0.9948	0.032
Mof_H 	H 	0.8504	0.8302	0.8463	-0.011
Mof_H 	H 	0.8358	0.7531	0.8767	-0.022
Mof_H 	H 	0.8093	0.7716	0.8032	0.004
Mof_H 	H 	0.821	0.6903	0.8362	-0.032
Mof_H 	H 	0.6033	0.6448	0.8027	-0.089
Mof_H 	H 	0.4178	0.7305	0.8731	0.457
Mof_H 	H 	0.4981	0.7532	0.883	0.476
Mof_H 	H 	0.4863	0.7128	0.9206	0.475
Mof_H 	H 	0.4076	0.6732	0.7984	0.446
Mof_H 	H 	0.4726	0.6529	0.8465	0.467
Mof_H 	H 	0.4828	0.6543	0.762	0.455
Mof_H 	H 	0.4369	0.732	0.7357	0.5
Mof_H 	H 	0.5154	0.7151	0.7019	0.518
Mof_H 	H 	0.5177	0.7543	0.7451	0.528
Mof_H 	H 	0.9138	0.5718	0.8344	0.011
Mof_H 	H 	0.8528	0.6301	0.8639	0.059
Mof_H 	H 	0.6686	0.6034	0.7337	0.071
Mof_H 	H 	0.7296	0.5451	0.7042	-0
Mof_H 	H 	0.8251	0.9224	0.3738	-0.041
Mof_H 	H 	0.6396	0.9493	0.5023	0.023
Mof_H 	H 	0.9495	0.8146	0.452	0.349
Mof_H 	H 	0.861	0.8182	0.4253	0.361
Mof_H 	H 	0.8805	0.8204	0.5083	0.385
Mof_H 	H 	0.0177	0.8749	0.5067	0.35
Mof_H 	H 	0.9458	0.8798	0.5603	0.359
Mof_H 	H 	0.9712	0.9144	0.51	0.364
Mof_H 	H 	0.9949	0.8725	0.3701	0.328
Mof_H 	H 	0.9519	0.9127	0.3774	0.347
Mof_H 	H 	0.9082	0.8778	0.34	0.337
Mof_H 	H 	0.6405	0.8436	0.5365	0.024
Mof_H 	H 	0.5022	0.8461	0.6294	0.041
Mof_H 	H 	0.518	0.8757	0.566	0.067
Mof_H 	H 	0.5077	0.8265	0.4817	0.049
Mof_H 	H 	0.4293	0.8284	0.5278	0.035
Mof_H 	H 	0.4681	0.764	0.5125	0.017
Mof_H 	H 	0.4712	0.7748	0.5954	0.011
Mof_H 	H 	0.6059	0.7746	0.5018	0.037
Mof_H 	H 	0.5913	0.7438	0.5632	0.025
Mof_H 	H 	0.6047	0.7935	0.6534	-0.007
Mof_H 	H 	0.7099	0.7535	0.6972	0.018
Mof_H 	H 	0.6985	0.7315	0.6235	0.004
Mof_H 	H 	0.7915	0.6822	0.6303	-0.012
Mof_H 	H 	0.0231	0.7035	0.6705	-0.09
Mof_H 	H 	0.9998	0.7846	0.8016	0.456
Mof_H 	H 	0.9591	0.8175	0.756	0.481
Mof_H 	H 	0.0507	0.8196	0.7729	0.45
Mof_H 	H 	0.0756	0.8264	0.6395	0.474
Mof_H 	H 	0.9839	0.8229	0.6242	0.492
Mof_H 	H 	0.0441	0.795	0.585	0.483
Mof_H 	H 	0.1006	0.7411	0.7383	0.503
Mof_H 	H 	0.1441	0.7786	0.7109	0.495
Mof_H 	H 	0.1172	0.7467	0.6554	0.515
Mof_H 	H 	0.863	0.5653	0.5562	0.006
Mof_H 	H 	0.8303	0.6296	0.5795	0.075
Mof_H 	H 	0.0366	0.6432	0.6874	0.072
Mof_H 	H 	0.0693	0.579	0.6642	0.019
Mof_H 	H 	0.7003	0.9181	0.6541	-0.014
Mof_H 	H 	0.6185	0.9171	0.6131	0.031
Mof_H 	H 	0.8413	0.4474	0.9932	-0.01
Mof_H 	H 	0.9528	0.3733	0.8589	-0.076
Mof_H 	H 	0.0221	0.2828	0.8529	0.44
Mof_H 	H 	0.0343	0.3279	0.8489	0.47
Mof_H 	H 	0.9504	0.3099	0.8325	0.442
Mof_H 	H 	0.0766	0.2842	0.9818	0.451
Mof_H 	H 	0.0352	0.31	0.0408	0.459
Mof_H 	H 	0.0854	0.3295	0.9791	0.467
Mof_H 	H 	0.9465	0.2528	0.95	0.433
Mof_H 	H 	0.8719	0.2786	0.9326	0.441
Mof_H 	H 	0.9062	0.2773	0.0116	0.472
Mof_H 	H 	0.8779	0.4054	0.1501	-0.031
Mof_H 	H 	0.8074	0.429	0.1155	0.006
Mof_H 	H 	0.7384	0.3616	0.0389	0.02
Mof_H 	H 	0.6811	0.4208	0.0594	0.063
Mof_H 	H 	0.6327	0.4047	0.1256	0.045
Mof_H 	H 	0.5431	0.4069	0.028	0.028
Mof_H 	H 	0.6034	0.3852	0.977	0.028
Mof_H 	H 	0.5074	0.3418	0.0126	0.001
Mof_H 	H 	0.522	0.3518	0.0945	0.014
Mof_H 	H 	0.5852	0.2921	0.0681	0.014
Mof_H 	H 	0.6342	0.3116	0.0052	0.032
Mof_H 	H 	0.6496	0.3302	0.1537	-0.011
Mof_H 	H 	0.6642	0.2531	0.1233	-0.022
Mof_H 	H 	0.6907	0.2716	0.1968	0.005
Mof_H 	H 	0.679	0.1903	0.1638	-0.031
Mof_H 	H 	0.8967	0.1448	0.1973	-0.088
Mof_H 	H 	0.0822	0.2305	0.1269	0.453
Mof_H 	H 	0.0019	0.2532	0.117	0.472
Mof_H 	H 	0.0137	0.2128	0.0794	0.471
Mof_H 	H 	0.0924	0.1732	0.2016	0.442
Mof_H 	H 	0.0274	0.1529	0.1535	0.463
Mof_H 	H 	0.0172	0.1543	0.238	0.451
Mof_H 	H 	0.0631	0.232	0.2643	0.494
Mof_H 	H 	0.9846	0.2151	0.2981	0.51
Mof_H 	H 	0.9823	0.2543	0.2549	0.52
Mof_H 	H 	0.5862	0.0718	0.1656	0.011
Mof_H 	H 	0.6472	0.1301	0.1361	0.059
Mof_H 	H 	0.8314	0.1034	0.2663	0.07
Mof_H 	H 	0.7704	0.0451	0.2958	-0
Mof_H 	H 	0.6749	0.4224	0.6262	-0.041
Mof_H 	H 	0.8604	0.4493	0.4977	0.023
Mof_H 	H 	0.5505	0.3146	0.548	0.349
Mof_H 	H 	0.639	0.3182	0.5747	0.361
Mof_H 	H 	0.6195	0.3204	0.4917	0.385
Mof_H 	H 	0.4823	0.3749	0.4933	0.35
Mof_H 	H 	0.5542	0.3798	0.4397	0.359
Mof_H 	H 	0.5288	0.4144	0.49	0.364
Mof_H 	H 	0.5051	0.3725	0.6299	0.328
Mof_H 	H 	0.5481	0.4127	0.6226	0.348
Mof_H 	H 	0.5918	0.3778	0.66	0.337
Mof_H 	H 	0.8595	0.3436	0.4635	0.024
Mof_H 	H 	0.9978	0.3461	0.3706	0.042
Mof_H 	H 	0.982	0.3757	0.434	0.068
Mof_H 	H 	0.9923	0.3265	0.5183	0.047
Mof_H 	H 	0.0707	0.3284	0.4722	0.034
Mof_H 	H 	0.0319	0.264	0.4875	0.018
Mof_H 	H 	0.0288	0.2748	0.4046	0.012
Mof_H 	H 	0.8941	0.2746	0.4982	0.037
Mof_H 	H 	0.9087	0.2438	0.4368	0.024
Mof_H 	H 	0.8953	0.2935	0.3466	-0.006
Mof_H 	H 	0.7901	0.2535	0.3028	0.018
Mof_H 	H 	0.8015	0.2315	0.3765	0.004
Mof_H 	H 	0.7085	0.1822	0.3697	-0.012
Mof_H 	H 	0.4769	0.2035	0.3295	-0.09
Mof_H 	H 	0.5002	0.2846	0.1984	0.456
Mof_H 	H 	0.5409	0.3175	0.244	0.481
Mof_H 	H 	0.4493	0.3196	0.2271	0.45
Mof_H 	H 	0.4244	0.3264	0.3605	0.474
Mof_H 	H 	0.5161	0.3229	0.3758	0.492
Mof_H 	H 	0.4559	0.295	0.415	0.483
Mof_H 	H 	0.3994	0.2411	0.2617	0.503
Mof_H 	H 	0.3559	0.2786	0.2891	0.496
Mof_H 	H 	0.3828	0.2467	0.3446	0.515
Mof_H 	H 	0.637	0.0653	0.4438	0.006
Mof_H 	H 	0.6697	0.1296	0.4205	0.075
Mof_H 	H 	0.4634	0.1432	0.3126	0.072
Mof_H 	H 	0.4307	0.079	0.3358	0.019
Mof_H 	H 	0.7997	0.4181	0.3459	-0.013
Mof_H 	H 	0.8815	0.4171	0.3869	0.031
Mof_H 	H 	0.1587	0.5526	0.9932	-0.01
Mof_H 	H 	0.0472	0.6267	0.8589	-0.075
Mof_H 	H 	0.9779	0.7172	0.8529	0.437
Mof_H 	H 	0.9657	0.6721	0.8489	0.467
Mof_H 	H 	0.0496	0.6901	0.8325	0.439
Mof_H 	H 	0.9234	0.7158	0.9818	0.45
Mof_H 	H 	0.9648	0.69	0.0408	0.458
Mof_H 	H 	0.9146	0.6705	0.9791	0.466
Mof_H 	H 	0.0535	0.7472	0.95	0.432
Mof_H 	H 	0.1281	0.7214	0.9326	0.44
Mof_H 	H 	0.0938	0.7227	0.0116	0.471
Mof_H 	H 	0.1221	0.5946	0.1501	-0.03
Mof_H 	H 	0.1926	0.571	0.1155	0.006
Mof_H 	H 	0.2616	0.6384	0.0389	0.02
Mof_H 	H 	0.3189	0.5792	0.0594	0.063
Mof_H 	H 	0.3673	0.5953	0.1256	0.045
Mof_H 	H 	0.4569	0.5931	0.028	0.028
Mof_H 	H 	0.3966	0.6148	0.977	0.028
Mof_H 	H 	0.4926	0.6582	0.0126	0.001
Mof_H 	H 	0.478	0.6482	0.0945	0.014
Mof_H 	H 	0.4148	0.7079	0.0681	0.014
Mof_H 	H 	0.3658	0.6884	0.0052	0.032
Mof_H 	H 	0.3504	0.6698	0.1537	-0.011
Mof_H 	H 	0.3358	0.7469	0.1233	-0.022
Mof_H 	H 	0.3093	0.7284	0.1968	0.004
Mof_H 	H 	0.321	0.8097	0.1638	-0.032
Mof_H 	H 	0.1033	0.8552	0.1973	-0.089
Mof_H 	H 	0.9178	0.7695	0.1269	0.457
Mof_H 	H 	0.9981	0.7468	0.117	0.476
Mof_H 	H 	0.9863	0.7872	0.0794	0.475
Mof_H 	H 	0.9076	0.8268	0.2016	0.446
Mof_H 	H 	0.9726	0.8471	0.1535	0.467
Mof_H 	H 	0.9828	0.8457	0.238	0.455
Mof_H 	H 	0.9369	0.768	0.2643	0.5
Mof_H 	H 	0.0154	0.7849	0.2981	0.518
Mof_H 	H 	0.0177	0.7457	0.2549	0.528
Mof_H 	H 	0.4138	0.9282	0.1656	0.011
Mof_H 	H 	0.3528	0.8699	0.1361	0.059
Mof_H 	H 	0.1686	0.8966	0.2663	0.071
Mof_H 	H 	0.2296	0.9549	0.2958	-0.001
Mof_H 	H 	0.3251	0.5776	0.6262	-0.041
Mof_H 	H 	0.1396	0.5507	0.4977	0.023
Mof_H 	H 	0.4495	0.6854	0.548	0.35
Mof_H 	H 	0.361	0.6818	0.5747	0.361
Mof_H 	H 	0.3805	0.6796	0.4917	0.385
Mof_H 	H 	0.5177	0.6251	0.4933	0.35
Mof_H 	H 	0.4458	0.6202	0.4397	0.359
Mof_H 	H 	0.4712	0.5856	0.49	0.364
Mof_H 	H 	0.4949	0.6275	0.6299	0.328
Mof_H 	H 	0.4519	0.5873	0.6226	0.348
Mof_H 	H 	0.4082	0.6222	0.66	0.337
Mof_H 	H 	0.1405	0.6564	0.4635	0.024
Mof_H 	H 	0.0022	0.6539	0.3706	0.041
Mof_H 	H 	0.018	0.6243	0.434	0.067
Mof_H 	H 	0.0077	0.6735	0.5183	0.049
Mof_H 	H 	0.9293	0.6716	0.4722	0.035
Mof_H 	H 	0.9681	0.736	0.4875	0.017
Mof_H 	H 	0.9712	0.7252	0.4046	0.011
Mof_H 	H 	0.1059	0.7254	0.4982	0.037
Mof_H 	H 	0.0913	0.7562	0.4368	0.025
Mof_H 	H 	0.1047	0.7065	0.3466	-0.007
Mof_H 	H 	0.2099	0.7465	0.3028	0.018
Mof_H 	H 	0.1985	0.7685	0.3765	0.004
Mof_H 	H 	0.2915	0.8178	0.3697	-0.012
Mof_H 	H 	0.5231	0.7965	0.3295	-0.09
Mof_H 	H 	0.4998	0.7154	0.1984	0.456
Mof_H 	H 	0.4591	0.6825	0.244	0.481
Mof_H 	H 	0.5507	0.6804	0.2271	0.45
Mof_H 	H 	0.5756	0.6736	0.3605	0.474
Mof_H 	H 	0.4839	0.6771	0.3758	0.492
Mof_H 	H 	0.5441	0.705	0.415	0.483
Mof_H 	H 	0.6006	0.7589	0.2617	0.503
Mof_H 	H 	0.6441	0.7214	0.2891	0.496
Mof_H 	H 	0.6172	0.7533	0.3446	0.515
Mof_H 	H 	0.363	0.9347	0.4438	0.006
Mof_H 	H 	0.3303	0.8704	0.4205	0.075
Mof_H 	H 	0.5366	0.8568	0.3126	0.072
Mof_H 	H 	0.5693	0.921	0.3358	0.019
Mof_H 	H 	0.2003	0.5819	0.3459	-0.013
Mof_H 	H 	0.1185	0.5829	0.3869	0.031
Mof_C 	C 	0.393	0.0561	0.1417	0.386
Mof_C 	C 	0.3966	0.08513	0.083	-0.245
Mof_C 	C 	0.3647	0.07668	0.0153	0.137
Mof_C 	C 	0.3677	0.1042	0.9602	-0.213
Mof_C 	C 	0.4027	0.14017	0.973	0.391
Mof_C 	C 	0.4345	0.14861	0.0407	-0.492
Mof_C 	C 	0.4315	0.1211	0.0957	0.259
Mof_C 	C 	0.4751	0.1889	0.0568	1.039
Mof_C 	C 	0.4976	0.1924	0.1385	-1.472
Mof_C 	C 	0.5501	0.1915	0.0093	-1.51
Mof_C 	C 	0.4197	0.2233	0.0389	-1.484
Mof_C 	C 	0.3344	0.0959	0.8844	0.041
Mof_C 	C 	0.2138	0.1347	0.9134	0.018
Mof_C 	C 	0.1541	0.1019	0.9216	-0.137
Mof_C 	C 	0.0837	0.1132	0.9736	-0.08
Mof_C 	C 	0.0479	0.1511	0.9523	-0.069
Mof_C 	C 	0.1106	0.184	0.9475	-0.13
Mof_C 	C 	0.1745	0.1726	0.8941	0.012
Mof_C 	C 	0.2098	0.2368	0.8503	0.06
Mof_C 	C 	0.2675	0.26987	0.8385	-0.223
Mof_C 	C 	0.2339	0.3066	0.8317	0.106
Mof_C 	C 	0.2823	0.33856	0.8183	-0.187
Mof_C 	C 	0.3643	0.33382	0.8116	0.24
Mof_C 	C 	0.3979	0.2971	0.8184	-0.534
Mof_C 	C 	0.3496	0.26513	0.8318	0.426
Mof_C 	C 	0.4908	0.2926	0.8104	1.163
Mof_C 	C 	0.5254	0.2721	0.8782	-1.584
Mof_C 	C 	0.5363	0.3318	0.8037	-1.533
Mof_C 	C 	0.5066	0.2709	0.7422	-1.724
Mof_C 	C 	0.1354	0.4219	0.8142	0.077
Mof_C 	C 	0.1719	0.3869	0.8319	-0.17
Mof_C 	C 	0.2454	0.3774	0.8017	0.134
Mof_C 	C 	0.2823	0.4029	0.7539	-0.176
Mof_C 	C 	0.2457	0.4379	0.7362	0.08
Mof_C 	C 	0.3074	0.0336	0.371	0.309
Mof_C 	C 	0.2722	0.05986	0.4295	-0.168
Mof_C 	C 	0.2029	0.081	0.4169	0.16
Mof_C 	C 	0.1755	0.1071	0.4686	-0.36
Mof_C 	C 	0.2173	0.11211	0.533	0.333
Mof_C 	C 	0.2866	0.091	0.5456	-0.163
Mof_C 	C 	0.314	0.0649	0.4939	0.069
Mof_C 	C 	0.091	0.128	0.4546	0.765
Mof_C 	C 	0.101	0.1731	0.4606	-1.203
Mof_C 	C 	0.0337	0.1133	0.5134	-1.198
Mof_C 	C 	0.0554	0.115	0.3778	-1.135
Mof_C 	C 	0.383	0.1608	0.5844	0.014
Mof_C 	C 	0.4745	0.151	0.5815	-0.13
Mof_C 	C 	0.5143	0.1779	0.5297	-0.077
Mof_C 	C 	0.5052	0.22	0.5484	-0.073
Mof_C 	C 	0.4164	0.2292	0.5498	-0.125
Mof_C 	C 	0.3719	0.2025	0.6053	0.008
Mof_C 	C 	0.2704	0.2487	0.648	0.027
Mof_C 	C 	0.1848	0.26118	0.65	-0.197
Mof_C 	C 	0.1678	0.3004	0.6413	0.088
Mof_C 	C 	0.0899	0.31364	0.6489	-0.169
Mof_C 	C 	0.029	0.28766	0.6653	0.233
Mof_C 	C 	0.0461	0.24844	0.6741	-0.535
Mof_C 	C 	0.124	0.2352	0.6664	0.407
Mof_C 	C 	0.975	0.2204	0.6914	1.19
Mof_C 	C 	0.9931	0.1975	0.7622	-1.567
Mof_C 	C 	0.9671	0.1913	0.6293	-1.636
Mof_C 	C 	0.8962	0.2403	0.6998	-1.728
Mof_C 	C 	0.1022	0.41907	0.5825	0.08
Mof_C 	C 	0.1218	0.3806	0.5965	-0.167
Mof_C 	C 	0.0698	0.35723	0.6358	0.124
Mof_C 	C 	0.9982	0.3724	0.6611	-0.165
Mof_C 	C 	0.9786	0.4109	0.6472	0.081
Mof_C 	C 	0.3296	0.0952	0.6167	-0.001
Mof_C 	C 	0.607	0.9439	0.1417	0.386
Mof_C 	C 	0.6034	0.91487	0.083	-0.245
Mof_C 	C 	0.6353	0.92332	0.0153	0.137
Mof_C 	C 	0.6323	0.8958	0.9602	-0.213
Mof_C 	C 	0.5973	0.85983	0.973	0.391
Mof_C 	C 	0.5655	0.85139	0.0407	-0.492
Mof_C 	C 	0.5685	0.8789	0.0957	0.259
Mof_C 	C 	0.5249	0.8111	0.0568	1.039
Mof_C 	C 	0.5024	0.8076	0.1385	-1.472
Mof_C 	C 	0.4499	0.8085	0.0093	-1.51
Mof_C 	C 	0.5803	0.7767	0.0389	-1.484
Mof_C 	C 	0.6656	0.9041	0.8844	0.042
Mof_C 	C 	0.7862	0.8653	0.9134	0.018
Mof_C 	C 	0.8459	0.8981	0.9216	-0.137
Mof_C 	C 	0.9163	0.8868	0.9736	-0.08
Mof_C 	C 	0.9521	0.8489	0.9523	-0.068
Mof_C 	C 	0.8894	0.816	0.9475	-0.13
Mof_C 	C 	0.8255	0.8274	0.8941	0.012
Mof_C 	C 	0.7902	0.7632	0.8503	0.06
Mof_C 	C 	0.7325	0.73013	0.8385	-0.223
Mof_C 	C 	0.7661	0.6934	0.8317	0.106
Mof_C 	C 	0.7177	0.66144	0.8183	-0.187
Mof_C 	C 	0.6357	0.66618	0.8116	0.24
Mof_C 	C 	0.6021	0.7029	0.8184	-0.534
Mof_C 	C 	0.6504	0.73487	0.8318	0.426
Mof_C 	C 	0.5092	0.7074	0.8104	1.163
Mof_C 	C 	0.4746	0.7279	0.8782	-1.584
Mof_C 	C 	0.4637	0.6682	0.8037	-1.533
Mof_C 	C 	0.4934	0.7291	0.7422	-1.724
Mof_C 	C 	0.8646	0.5781	0.8142	0.077
Mof_C 	C 	0.8281	0.6131	0.8319	-0.17
Mof_C 	C 	0.7546	0.6226	0.8017	0.134
Mof_C 	C 	0.7177	0.5971	0.7539	-0.176
Mof_C 	C 	0.7543	0.5621	0.7362	0.08
Mof_C 	C 	0.6926	0.9664	0.371	0.309
Mof_C 	C 	0.7278	0.94014	0.4295	-0.168
Mof_C 	C 	0.7971	0.919	0.4169	0.16
Mof_C 	C 	0.8245	0.8929	0.4686	-0.36
Mof_C 	C 	0.7827	0.88789	0.533	0.334
Mof_C 	C 	0.7134	0.909	0.5456	-0.163
Mof_C 	C 	0.686	0.9351	0.4939	0.069
Mof_C 	C 	0.909	0.872	0.4546	0.766
Mof_C 	C 	0.899	0.8269	0.4606	-1.203
Mof_C 	C 	0.9663	0.8867	0.5134	-1.201
Mof_C 	C 	0.9446	0.885	0.3778	-1.135
Mof_C 	C 	0.617	0.8392	0.5844	0.014
Mof_C 	C 	0.5255	0.849	0.5815	-0.13
Mof_C 	C 	0.4857	0.8221	0.5297	-0.077
Mof_C 	C 	0.4948	0.78	0.5484	-0.073
Mof_C 	C 	0.5836	0.7708	0.5498	-0.125
Mof_C 	C 	0.6281	0.7975	0.6053	0.008
Mof_C 	C 	0.7296	0.7513	0.648	0.026
Mof_C 	C 	0.8152	0.73882	0.65	-0.196
Mof_C 	C 	0.8322	0.6996	0.6413	0.087
Mof_C 	C 	0.9101	0.68636	0.6489	-0.167
Mof_C 	C 	0.971	0.71234	0.6653	0.229
Mof_C 	C 	0.9539	0.75156	0.6741	-0.532
Mof_C 	C 	0.876	0.7648	0.6664	0.406
Mof_C 	C 	0.025	0.7796	0.6914	1.184
Mof_C 	C 	0.0069	0.8025	0.7622	-1.554
Mof_C 	C 	0.0329	0.8087	0.6293	-1.626
Mof_C 	C 	0.1038	0.7597	0.6998	-1.72
Mof_C 	C 	0.8978	0.58093	0.5825	0.079
Mof_C 	C 	0.8782	0.6194	0.5965	-0.166
Mof_C 	C 	0.9302	0.64277	0.6358	0.122
Mof_C 	C 	0.0018	0.6276	0.6611	-0.163
Mof_C 	C 	0.0214	0.5891	0.6472	0.081
Mof_C 	C 	0.6704	0.9048	0.6167	-0.001
Mof_C 	C 	0.893	0.4439	0.8583	0.386
Mof_C 	C 	0.8966	0.41487	0.917	-0.246
Mof_C 	C 	0.8647	0.42332	0.9847	0.136
Mof_C 	C 	0.8677	0.3958	0.0398	-0.213
Mof_C 	C 	0.9027	0.35983	0.027	0.393
Mof_C 	C 	0.9345	0.35139	0.9593	-0.496
Mof_C 	C 	0.9315	0.3789	0.9043	0.261
Mof_C 	C 	0.9751	0.3111	0.9432	1.046
Mof_C 	C 	0.9976	0.3076	0.8615	-1.486
Mof_C 	C 	0.0501	0.3085	0.9907	-1.521
Mof_C 	C 	0.9197	0.2767	0.9611	-1.495
Mof_C 	C 	0.8344	0.4041	0.1156	0.042
Mof_C 	C 	0.7138	0.3653	0.0866	0.019
Mof_C 	C 	0.6541	0.3981	0.0784	-0.139
Mof_C 	C 	0.5837	0.3868	0.0264	-0.076
Mof_C 	C 	0.5479	0.3489	0.0477	-0.071
Mof_C 	C 	0.6106	0.316	0.0525	-0.129
Mof_C 	C 	0.6745	0.3274	0.1059	0.012
Mof_C 	C 	0.7098	0.2632	0.1497	0.059
Mof_C 	C 	0.7675	0.23013	0.1615	-0.221
Mof_C 	C 	0.7339	0.1934	0.1683	0.104
Mof_C 	C 	0.7823	0.16144	0.1817	-0.185
Mof_C 	C 	0.8643	0.16618	0.1884	0.237
Mof_C 	C 	0.8979	0.2029	0.1816	-0.529
Mof_C 	C 	0.8496	0.23487	0.1682	0.424
Mof_C 	C 	0.9908	0.2074	0.1896	1.149
Mof_C 	C 	0.0254	0.2279	0.1218	-1.57
Mof_C 	C 	0.0363	0.1682	0.1963	-1.52
Mof_C 	C 	0.0066	0.2291	0.2578	-1.701
Mof_C 	C 	0.6354	0.0781	0.1858	0.077
Mof_C 	C 	0.6719	0.1131	0.1681	-0.17
Mof_C 	C 	0.7454	0.1226	0.1983	0.133
Mof_C 	C 	0.7823	0.0971	0.2461	-0.176
Mof_C 	C 	0.7457	0.0621	0.2638	0.08
Mof_C 	C 	0.8074	0.4664	0.629	0.309
Mof_C 	C 	0.7722	0.44014	0.5705	-0.168
Mof_C 	C 	0.7029	0.419	0.5831	0.16
Mof_C 	C 	0.6755	0.3929	0.5314	-0.36
Mof_C 	C 	0.7173	0.38789	0.467	0.334
Mof_C 	C 	0.7866	0.409	0.4544	-0.163
Mof_C 	C 	0.814	0.4351	0.5061	0.069
Mof_C 	C 	0.591	0.372	0.5454	0.766
Mof_C 	C 	0.601	0.3269	0.5394	-1.204
Mof_C 	C 	0.5337	0.3867	0.4866	-1.202
Mof_C 	C 	0.5554	0.385	0.6222	-1.135
Mof_C 	C 	0.883	0.3392	0.4156	0.015
Mof_C 	C 	0.9745	0.349	0.4185	-0.133
Mof_C 	C 	0.0143	0.3221	0.4703	-0.072
Mof_C 	C 	0.0052	0.28	0.4516	-0.075
Mof_C 	C 	0.9164	0.2708	0.4502	-0.125
Mof_C 	C 	0.8719	0.2975	0.3947	0.007
Mof_C 	C 	0.7704	0.2513	0.352	0.026
Mof_C 	C 	0.6848	0.23882	0.35	-0.196
Mof_C 	C 	0.6678	0.1996	0.3587	0.087
Mof_C 	C 	0.5899	0.18636	0.3511	-0.167
Mof_C 	C 	0.529	0.21234	0.3347	0.23
Mof_C 	C 	0.5461	0.25156	0.3259	-0.533
Mof_C 	C 	0.624	0.2648	0.3336	0.406
Mof_C 	C 	0.475	0.2796	0.3086	1.185
Mof_C 	C 	0.4931	0.3025	0.2378	-1.555
Mof_C 	C 	0.4671	0.3087	0.3707	-1.627
Mof_C 	C 	0.3962	0.2597	0.3002	-1.722
Mof_C 	C 	0.6022	0.08093	0.4175	0.079
Mof_C 	C 	0.6218	0.1194	0.4035	-0.166
Mof_C 	C 	0.5698	0.14277	0.3642	0.123
Mof_C 	C 	0.4982	0.1276	0.3389	-0.163
Mof_C 	C 	0.4786	0.0891	0.3528	0.081
Mof_C 	C 	0.8296	0.4048	0.3833	-0.001
Mof_C 	C 	0.107	0.5561	0.8583	0.386
Mof_C 	C 	0.1034	0.58513	0.917	-0.246
Mof_C 	C 	0.1353	0.57668	0.9847	0.136
Mof_C 	C 	0.1323	0.6042	0.0398	-0.212
Mof_C 	C 	0.0973	0.64017	0.027	0.393
Mof_C 	C 	0.0655	0.64861	0.9593	-0.494
Mof_C 	C 	0.0685	0.6211	0.9043	0.26
Mof_C 	C 	0.0249	0.6889	0.9432	1.044
Mof_C 	C 	0.0024	0.6924	0.8615	-1.477
Mof_C 	C 	0.9499	0.6915	0.9907	-1.519
Mof_C 	C 	0.0803	0.7233	0.9611	-1.493
Mof_C 	C 	0.1656	0.5959	0.1156	0.041
Mof_C 	C 	0.2862	0.6347	0.0866	0.019
Mof_C 	C 	0.3459	0.6019	0.0784	-0.139
Mof_C 	C 	0.4163	0.6132	0.0264	-0.076
Mof_C 	C 	0.4521	0.6511	0.0477	-0.071
Mof_C 	C 	0.3894	0.684	0.0525	-0.129
Mof_C 	C 	0.3255	0.6726	0.1059	0.012
Mof_C 	C 	0.2902	0.7368	0.1497	0.06
Mof_C 	C 	0.2325	0.76987	0.1615	-0.223
Mof_C 	C 	0.2661	0.8066	0.1683	0.106
Mof_C 	C 	0.2177	0.83856	0.1817	-0.187
Mof_C 	C 	0.1357	0.83382	0.1884	0.24
Mof_C 	C 	0.1021	0.7971	0.1816	-0.534
Mof_C 	C 	0.1504	0.76513	0.1682	0.426
Mof_C 	C 	0.0092	0.7926	0.1896	1.163
Mof_C 	C 	0.9746	0.7721	0.1218	-1.584
Mof_C 	C 	0.9637	0.8318	0.1963	-1.533
Mof_C 	C 	0.9934	0.7709	0.2578	-1.724
Mof_C 	C 	0.3646	0.9219	0.1858	0.077
Mof_C 	C 	0.3281	0.8869	0.1681	-0.17
Mof_C 	C 	0.2546	0.8774	0.1983	0.134
Mof_C 	C 	0.2177	0.9029	0.2461	-0.176
Mof_C 	C 	0.2543	0.9379	0.2638	0.08
Mof_C 	C 	0.1926	0.5336	0.629	0.309
Mof_C 	C 	0.2278	0.55986	0.5705	-0.168
Mof_C 	C 	0.2971	0.581	0.5831	0.16
Mof_C 	C 	0.3245	0.6071	0.5314	-0.36
Mof_C 	C 	0.2827	0.61211	0.467	0.334
Mof_C 	C 	0.2134	0.591	0.4544	-0.163
Mof_C 	C 	0.186	0.5649	0.5061	0.069
Mof_C 	C 	0.409	0.628	0.5454	0.766
Mof_C 	C 	0.399	0.6731	0.5394	-1.204
Mof_C 	C 	0.4663	0.6133	0.4866	-1.202
Mof_C 	C 	0.4446	0.615	0.6222	-1.135
Mof_C 	C 	0.117	0.6608	0.4156	0.014
Mof_C 	C 	0.0255	0.651	0.4185	-0.13
Mof_C 	C 	0.9857	0.6779	0.4703	-0.078
Mof_C 	C 	0.9948	0.72	0.4516	-0.073
Mof_C 	C 	0.0836	0.7292	0.4502	-0.126
Mof_C 	C 	0.1281	0.7025	0.3947	0.008
Mof_C 	C 	0.2296	0.7487	0.352	0.026
Mof_C 	C 	0.3152	0.76118	0.35	-0.196
Mof_C 	C 	0.3322	0.8004	0.3587	0.087
Mof_C 	C 	0.4101	0.81364	0.3511	-0.167
Mof_C 	C 	0.471	0.78766	0.3347	0.23
Mof_C 	C 	0.4539	0.74844	0.3259	-0.532
Mof_C 	C 	0.376	0.7352	0.3336	0.406
Mof_C 	C 	0.525	0.7204	0.3086	1.184
Mof_C 	C 	0.5069	0.6975	0.2378	-1.554
Mof_C 	C 	0.5329	0.6913	0.3707	-1.626
Mof_C 	C 	0.6038	0.7403	0.3002	-1.721
Mof_C 	C 	0.3978	0.91907	0.4175	0.079
Mof_C 	C 	0.3782	0.8806	0.4035	-0.166
Mof_C 	C 	0.4302	0.85723	0.3642	0.123
Mof_C 	C 	0.5018	0.8724	0.3389	-0.163
Mof_C 	C 	0.5214	0.9109	0.3528	0.081
Mof_C 	C 	0.1704	0.5952	0.3833	-0.001
Mof_Br	Br	0.5	2.37028e-33	0.55057	-0.316
Mof_Br	Br	-2.88606e-33	0.5	0.44943	-0.316
Mof_N 	N 	0.279	0.126	0.8629	-0.235
Mof_N 	N 	0.2389	0.2034	0.8883	-0.204
Mof_N 	N 	0.3407	0.1368	0.6385	-0.223
Mof_N 	N 	0.2823	0.2106	0.6099	-0.197
Mof_N 	N 	0.1723	0.4474	0.7664	-0.153
Mof_N 	N 	0.0306	0.43422	0.6079	-0.143
Mof_N 	N 	0.721	0.874	0.8629	-0.235
Mof_N 	N 	0.7611	0.7966	0.8883	-0.204
Mof_N 	N 	0.6593	0.8632	0.6385	-0.223
Mof_N 	N 	0.7177	0.7894	0.6099	-0.197
Mof_N 	N 	0.8277	0.5526	0.7664	-0.153
Mof_N 	N 	0.9694	0.56578	0.6079	-0.144
Mof_N 	N 	0.779	0.374	0.1371	-0.235
Mof_N 	N 	0.7389	0.2966	0.1117	-0.204
Mof_N 	N 	0.8407	0.3632	0.3615	-0.223
Mof_N 	N 	0.7823	0.2894	0.3901	-0.197
Mof_N 	N 	0.6723	0.0526	0.2336	-0.153
Mof_N 	N 	0.5306	0.06578	0.3921	-0.143
Mof_N 	N 	0.221	0.626	0.1371	-0.235
Mof_N 	N 	0.2611	0.7034	0.1117	-0.204
Mof_N 	N 	0.1593	0.6368	0.3615	-0.223
Mof_N 	N 	0.2177	0.7106	0.3901	-0.197
Mof_N 	N 	0.3277	0.9474	0.2336	-0.154
Mof_N 	N 	0.4694	0.93422	0.3921	-0.144
Mof_O 	O 	0.4199	0.0646	0.2015	-0.31
Mof_O 	O 	0.3601	0.0246	0.1317	-0.311
Mof_O 	O 	0.4	0.1673	0.9201	-0.553
Mof_O 	O 	0.3795	0.2293	0.8313	-0.584
Mof_O 	O 	0.2819	0.17896	0.7502	-0.702
Mof_O 	O 	0.3676	0.0129	0.3835	-0.306
Mof_O 	O 	0.2748	0.0343	0.3073	-0.289
Mof_O 	O 	0.1923	0.1381	0.5816	-0.53
Mof_O 	O 	0.1397	0.19693	0.6764	-0.564
Mof_O 	O 	0.5801	0.9354	0.2015	-0.31
Mof_O 	O 	0.6399	0.9754	0.1317	-0.311
Mof_O 	O 	0.6	0.8327	0.9201	-0.553
Mof_O 	O 	0.6205	0.7707	0.8313	-0.584
Mof_O 	O 	0.7181	0.82104	0.7502	-0.702
Mof_O 	O 	0.6324	0.9871	0.3835	-0.306
Mof_O 	O 	0.7252	0.9657	0.3073	-0.29
Mof_O 	O 	0.8077	0.8619	0.5816	-0.53
Mof_O 	O 	0.8603	0.80307	0.6764	-0.563
Mof_O 	O 	0.9199	0.4354	0.7985	-0.31
Mof_O 	O 	0.8601	0.4754	0.8683	-0.311
Mof_O 	O 	0.9	0.3327	0.0799	-0.554
Mof_O 	O 	0.8795	0.2707	0.1687	-0.583
Mof_O 	O 	0.7819	0.32104	0.2498	-0.702
Mof_O 	O 	0.8676	0.4871	0.6165	-0.306
Mof_O 	O 	0.7748	0.4657	0.6927	-0.289
Mof_O 	O 	0.6923	0.3619	0.4184	-0.53
Mof_O 	O 	0.6397	0.30307	0.3236	-0.563
Mof_O 	O 	0.0801	0.5646	0.7985	-0.31
Mof_O 	O 	0.1399	0.5246	0.8683	-0.311
Mof_O 	O 	0.1	0.6673	0.0799	-0.554
Mof_O 	O 	0.1205	0.7293	0.1687	-0.584
Mof_O 	O 	0.2181	0.67896	0.2498	-0.702
Mof_O 	O 	0.1324	0.5129	0.6165	-0.306
Mof_O 	O 	0.2252	0.5343	0.6927	-0.289
Mof_O 	O 	0.3077	0.6381	0.4184	-0.53
Mof_O 	O 	0.3603	0.69693	0.3236	-0.563
Mof_O 	O 	0.5	2.37028e-33	0.2818	-0.249
Mof_O 	O 	1.24446e-32	0.5	0.7182	-0.249
_end
