data_functionalizedCrystal
_audit_creation_method	'EQeq! by Chris Wilmer'
_symmetry_space_group_name_H-M	'P1'
_symmetry_Int_Tables_number	1
_symmetry_cell_setting	triclinic
loop_
_symmetry_equiv_pos_as_xyz
  x,y,z
_cell_length_a	15.9684
_cell_length_b	15.9684
_cell_length_c	33.649
_cell_angle_alpha	90
_cell_angle_beta	90
_cell_angle_gamma	120
loop_
_atom_site_label
_atom_site_type_symbol
_atom_site_fract_x
_atom_site_fract_y
_atom_site_fract_z
_atom_site_charge
Mof_C 	C 	0.9143	0.5819	0.9423	0.453
Mof_C 	C 	0.8708	0.6405	0.9532	-0.189
Mof_C 	C 	0.8317	0.6304	0.991	0.104
Mof_H 	H 	0.836	0.5891	0.0093	0.01
Mof_C 	C 	0.7862	0.6821	0.00147	-0.174
Mof_H 	H 	0.7601	0.6753	0.0268	0.086
Mof_C 	C 	0.7798	0.7439	0.9741	0.104
Mof_C 	C 	0.8188	0.754	0.9363	-0.169
Mof_H 	H 	0.8145	0.7953	0.918	0.094
Mof_C 	C 	0.8644	0.7023	0.92588	0.103
Mof_H 	H 	0.8905	0.7091	0.9006	0.009
Mof_C 	C 	0.7243	0.7962	0.9835	-0.056
Mof_C 	C 	0.7753	0.896	0.9881	-0.056
Mof_H 	H 	0.8423	0.9297	0.9856	0.05
Mof_C 	C 	0.7261	0.9463	0.9967	0.011
Mof_C 	C 	0.6282	0.893	0.0007	-0.059
Mof_H 	H 	0.5955	0.9258	0.0071	0.054
Mof_C 	C 	0.5735	0.7932	0.996	-0.045
Mof_C 	C 	0.6253	0.7421	0.9869	0.068
Mof_C 	C 	0.4683	0.7392	0.998	0.056
Mof_C 	C 	0.266	0.625	0.9991	-0.092
Mof_C 	C 	0.4184	0.6914	0.9629	-0.059
Mof_H 	H 	0.4522	0.6977	0.9395	0.038
Mof_C 	C 	0.3173	0.6344	0.9637	-0.018
Mof_H 	H 	0.2839	0.6026	0.9409	0.044
Mof_C 	C 	0.3165	0.6724	0.0333	0.02
Mof_H 	H 	0.2833	0.6666	0.0567	0.029
Mof_C 	C 	0.4167	0.7283	0.0323	-0.059
Mof_H 	H 	0.4498	0.7593	0.0553	0.056
Mof_C 	C 	0.1584	0.5582	0.9997	0.349
Mof_N 	N 	0.5719	0.6404	0.9836	-0.372
Mof_H 	H 	0.6061	0.6234	0.9675	0.126
Mof_H 	H 	0.5172	0.6258	0.9704	0.115
Mof_O 	O 	0.1129	0.5366	0.0325	-0.32
Mof_O 	O 	0.1201	0.5297	0.9673	-0.484
Mof_O 	O 	0.9162	0.5249	0.9674	-0.517
Mof_O 	O 	0.9461	0.5929	0.9073	-0.519
Mof_Zn	Zn	0.5319	0.55007	0.03182	1.221
Mof_C 	C 	0.4129	0.7479	0.9678	-0.057
Mof_H 	H 	0.4433	0.7918	0.9472	0.044
Mof_C 	C 	0.3119	0.6911	0.9684	0.017
Mof_H 	H 	0.2754	0.6975	0.9483	0.028
Mof_C 	C 	0.3204	0.6159	0.0295	-0.016
Mof_H 	H 	0.2897	0.5722	0.0501	0.037
Mof_C 	C 	0.4215	0.673	0.0289	-0.06
Mof_H 	H 	0.4577	0.6669	0.0492	0.021
Mof_C 	C 	0.4181	0.3324	0.60897	0.452
Mof_C 	C 	0.3595	0.2303	0.61987	-0.191
Mof_C 	C 	0.3696	0.2013	0.65767	0.105
Mof_H 	H 	0.4109	0.2469	0.67597	0.008
Mof_C 	C 	0.3179	0.1041	0.66814	-0.177
Mof_H 	H 	0.3247	0.0848	0.69347	0.086
Mof_C 	C 	0.2561	0.0359	0.64077	0.106
Mof_C 	C 	0.246	0.0648	0.60297	-0.171
Mof_H 	H 	0.2047	0.0192	0.58467	0.094
Mof_C 	C 	0.2977	0.1621	0.59255	0.104
Mof_H 	H 	0.2909	0.1814	0.56727	0.008
Mof_C 	C 	0.2038	0.9281	0.65017	-0.058
Mof_C 	C 	0.104	0.8793	0.65477	-0.057
Mof_H 	H 	0.0703	0.9126	0.65227	0.049
Mof_C 	C 	0.0537	0.7798	0.66337	0.011
Mof_C 	C 	0.107	0.7352	0.66737	-0.061
Mof_H 	H 	0.0742	0.6697	0.67377	0.053
Mof_C 	C 	0.2068	0.7803	0.66267	-0.046
Mof_C 	C 	0.2579	0.8832	0.65357	0.067
Mof_C 	C 	0.2608	0.7291	0.66467	0.055
Mof_C 	C 	0.375	0.641	0.66577	-0.093
Mof_C 	C 	0.3086	0.727	0.62957	-0.06
Mof_H 	H 	0.3023	0.7545	0.60617	0.037
Mof_C 	C 	0.3656	0.6829	0.63037	-0.019
Mof_H 	H 	0.3974	0.6813	0.60757	0.043
Mof_C 	C 	0.3276	0.6441	0.69997	0.019
Mof_H 	H 	0.3334	0.6167	0.72337	0.028
Mof_C 	C 	0.2717	0.6884	0.69897	-0.06
Mof_H 	H 	0.2407	0.6905	0.72197	0.055
Mof_C 	C 	0.4418	0.6002	0.66637	0.347
Mof_N 	N 	0.3596	0.9315	0.65027	-0.372
Mof_H 	H 	0.3766	0.9827	0.63417	0.126
Mof_H 	H 	0.3742	0.8914	0.63707	0.115
Mof_O 	O 	0.4634	0.5763	0.69917	-0.32
Mof_O 	O 	0.4703	0.5904	0.63397	-0.485
Mof_O 	O 	0.4751	0.3913	0.63407	-0.516
Mof_O 	O 	0.4071	0.3532	0.57397	-0.518
Mof_Zn	Zn	0.44993	0.98183	0.69849	1.221
Mof_C 	C 	0.2521	0.665	0.63447	-0.057
Mof_H 	H 	0.2082	0.6515	0.61387	0.044
Mof_C 	C 	0.3089	0.6208	0.63507	0.017
Mof_H 	H 	0.3025	0.5779	0.61497	0.028
Mof_C 	C 	0.3841	0.7045	0.69617	-0.016
Mof_H 	H 	0.4278	0.7175	0.71677	0.037
Mof_C 	C 	0.327	0.7485	0.69557	-0.06
Mof_H 	H 	0.3331	0.7908	0.71587	0.021
Mof_C 	C 	0.6676	0.0857	0.27563	0.452
Mof_C 	C 	0.7697	0.1292	0.28653	-0.192
Mof_C 	C 	0.7987	0.1683	0.32433	0.105
Mof_H 	H 	0.7531	0.164	0.34263	0.008
Mof_C 	C 	0.8959	0.2138	0.3348	-0.178
Mof_H 	H 	0.9152	0.2399	0.36013	0.086
Mof_C 	C 	0.9641	0.2202	0.30743	0.107
Mof_C 	C 	0.9352	0.1812	0.26963	-0.172
Mof_H 	H 	0.9808	0.1855	0.25133	0.094
Mof_C 	C 	0.8379	0.1356	0.25921	0.104
Mof_H 	H 	0.8186	0.1095	0.23393	0.008
Mof_C 	C 	0.0719	0.2757	0.31683	-0.059
Mof_C 	C 	0.1207	0.2247	0.32143	-0.057
Mof_H 	H 	0.0874	0.1577	0.31893	0.049
Mof_C 	C 	0.2202	0.2739	0.33003	0.011
Mof_C 	C 	0.2648	0.3718	0.33403	-0.06
Mof_H 	H 	0.3303	0.4045	0.34043	0.053
Mof_C 	C 	0.2197	0.4265	0.32933	-0.046
Mof_C 	C 	0.1168	0.3747	0.32023	0.067
Mof_C 	C 	0.2709	0.5317	0.33133	0.055
Mof_C 	C 	0.359	0.734	0.33243	-0.093
Mof_C 	C 	0.273	0.5816	0.29623	-0.06
Mof_H 	H 	0.2455	0.5478	0.27283	0.037
Mof_C 	C 	0.3171	0.6827	0.29703	-0.019
Mof_H 	H 	0.3187	0.7161	0.27423	0.043
Mof_C 	C 	0.3559	0.6835	0.36663	0.019
Mof_H 	H 	0.3833	0.7167	0.39003	0.028
Mof_C 	C 	0.3116	0.5833	0.36563	-0.06
Mof_H 	H 	0.3095	0.5502	0.38863	0.055
Mof_C 	C 	0.3998	0.8416	0.33303	0.347
Mof_N 	N 	0.0685	0.4281	0.31693	-0.372
Mof_H 	H 	0.0173	0.3939	0.30083	0.126
Mof_H 	H 	0.1086	0.4828	0.30373	0.115
Mof_O 	O 	0.4237	0.8871	0.36583	-0.319
Mof_O 	O 	0.4096	0.8799	0.30063	-0.484
Mof_O 	O 	0.6087	0.0838	0.30073	-0.517
Mof_O 	O 	0.6468	0.0539	0.24063	-0.519
Mof_Zn	Zn	0.01817	0.4681	0.36515	1.221
Mof_C 	C 	0.335	0.5871	0.30113	-0.057
Mof_H 	H 	0.3485	0.5567	0.28053	0.044
Mof_C 	C 	0.3792	0.6881	0.30173	0.017
Mof_H 	H 	0.4221	0.7246	0.28163	0.028
Mof_C 	C 	0.2955	0.6796	0.36283	-0.016
Mof_H 	H 	0.2825	0.7103	0.38343	0.037
Mof_C 	C 	0.2515	0.5785	0.36223	-0.06
Mof_H 	H 	0.2092	0.5423	0.38253	0.021
Mof_C 	C 	0.0857	0.4181	0.4423	0.452
Mof_C 	C 	0.1292	0.3595	0.4532	-0.191
Mof_C 	C 	0.1683	0.3696	0.491	0.104
Mof_H 	H 	0.164	0.4109	0.5093	0.008
Mof_C 	C 	0.2138	0.3179	0.50147	-0.176
Mof_H 	H 	0.2399	0.3247	0.5268	0.085
Mof_C 	C 	0.2202	0.2561	0.4741	0.104
Mof_C 	C 	0.1812	0.246	0.4363	-0.17
Mof_H 	H 	0.1855	0.2047	0.418	0.093
Mof_C 	C 	0.1356	0.2977	0.42588	0.103
Mof_H 	H 	0.1095	0.2909	0.4006	0.008
Mof_C 	C 	0.2757	0.2038	0.4835	-0.057
Mof_C 	C 	0.2247	0.104	0.4881	-0.058
Mof_H 	H 	0.1577	0.0703	0.4856	0.05
Mof_C 	C 	0.2739	0.0537	0.4967	0.011
Mof_C 	C 	0.3718	0.107	0.5007	-0.061
Mof_H 	H 	0.4045	0.0742	0.5071	0.053
Mof_C 	C 	0.4265	0.2068	0.496	-0.046
Mof_C 	C 	0.3747	0.2579	0.4869	0.067
Mof_C 	C 	0.5317	0.2608	0.498	0.054
Mof_C 	C 	0.734	0.375	0.4991	-0.093
Mof_C 	C 	0.5816	0.3086	0.4629	-0.06
Mof_H 	H 	0.5478	0.3023	0.4395	0.037
Mof_C 	C 	0.6827	0.3656	0.4637	-0.019
Mof_H 	H 	0.7161	0.3974	0.4409	0.043
Mof_C 	C 	0.6835	0.3276	0.5333	0.019
Mof_H 	H 	0.7167	0.3334	0.5567	0.028
Mof_C 	C 	0.5833	0.2717	0.5323	-0.06
Mof_H 	H 	0.5502	0.2407	0.5553	0.055
Mof_C 	C 	0.8416	0.4418	0.4997	0.347
Mof_N 	N 	0.4281	0.3596	0.4836	-0.371
Mof_H 	H 	0.3939	0.3766	0.4675	0.126
Mof_H 	H 	0.4828	0.3742	0.4704	0.115
Mof_O 	O 	0.8871	0.4634	0.5325	-0.319
Mof_O 	O 	0.8799	0.4703	0.4673	-0.484
Mof_O 	O 	0.0838	0.4751	0.4674	-0.517
Mof_O 	O 	0.0539	0.4071	0.4073	-0.519
Mof_Zn	Zn	0.4681	0.44993	0.53182	1.221
Mof_C 	C 	0.5871	0.2521	0.4678	-0.057
Mof_H 	H 	0.5567	0.2082	0.4472	0.044
Mof_C 	C 	0.6881	0.3089	0.4684	0.017
Mof_H 	H 	0.7246	0.3025	0.4483	0.028
Mof_C 	C 	0.6796	0.3841	0.5295	-0.016
Mof_H 	H 	0.7103	0.4278	0.5501	0.037
Mof_C 	C 	0.5785	0.327	0.5289	-0.06
Mof_H 	H 	0.5423	0.3331	0.5492	0.021
Mof_C 	C 	0.5819	0.6676	0.10897	0.452
Mof_C 	C 	0.6405	0.7697	0.11987	-0.191
Mof_C 	C 	0.6304	0.7987	0.15767	0.105
Mof_H 	H 	0.5891	0.7531	0.17597	0.008
Mof_C 	C 	0.6821	0.8959	0.16814	-0.177
Mof_H 	H 	0.6753	0.9152	0.19347	0.086
Mof_C 	C 	0.7439	0.9641	0.14077	0.107
Mof_C 	C 	0.754	0.9352	0.10297	-0.171
Mof_H 	H 	0.7953	0.9808	0.08467	0.094
Mof_C 	C 	0.7023	0.8379	0.09255	0.104
Mof_H 	H 	0.7091	0.8186	0.06727	0.008
Mof_C 	C 	0.7962	0.0719	0.15017	-0.058
Mof_C 	C 	0.896	0.1207	0.15477	-0.057
Mof_H 	H 	0.9297	0.0874	0.15227	0.049
Mof_C 	C 	0.9463	0.2202	0.16337	0.011
Mof_C 	C 	0.893	0.2648	0.16737	-0.061
Mof_H 	H 	0.9258	0.3303	0.17377	0.053
Mof_C 	C 	0.7932	0.2197	0.16267	-0.046
Mof_C 	C 	0.7421	0.1168	0.15357	0.067
Mof_C 	C 	0.7392	0.2709	0.16467	0.055
Mof_C 	C 	0.625	0.359	0.16577	-0.093
Mof_C 	C 	0.6914	0.273	0.12957	-0.06
Mof_H 	H 	0.6977	0.2455	0.10617	0.037
Mof_C 	C 	0.6344	0.3171	0.13037	-0.019
Mof_H 	H 	0.6026	0.3187	0.10757	0.043
Mof_C 	C 	0.6724	0.3559	0.19997	0.019
Mof_H 	H 	0.6666	0.3833	0.22337	0.028
Mof_C 	C 	0.7283	0.3116	0.19897	-0.06
Mof_H 	H 	0.7593	0.3095	0.22197	0.055
Mof_C 	C 	0.5582	0.3998	0.16637	0.347
Mof_N 	N 	0.6404	0.0685	0.15027	-0.372
Mof_H 	H 	0.6234	0.0173	0.13417	0.126
Mof_H 	H 	0.6258	0.1086	0.13707	0.115
Mof_O 	O 	0.5366	0.4237	0.19917	-0.32
Mof_O 	O 	0.5297	0.4096	0.13397	-0.485
Mof_O 	O 	0.5249	0.6087	0.13407	-0.516
Mof_O 	O 	0.5929	0.6468	0.07397	-0.518
Mof_Zn	Zn	0.55007	0.01817	0.19849	1.221
Mof_C 	C 	0.7479	0.335	0.13447	-0.057
Mof_H 	H 	0.7918	0.3485	0.11387	0.044
Mof_C 	C 	0.6911	0.3792	0.13507	0.017
Mof_H 	H 	0.6975	0.4221	0.11497	0.028
Mof_C 	C 	0.6159	0.2955	0.19617	-0.016
Mof_H 	H 	0.5722	0.2825	0.21677	0.037
Mof_C 	C 	0.673	0.2515	0.19557	-0.06
Mof_H 	H 	0.6669	0.2092	0.21587	0.021
Mof_C 	C 	0.3324	0.9143	0.77563	0.452
Mof_C 	C 	0.2303	0.8708	0.78653	-0.192
Mof_C 	C 	0.2013	0.8317	0.82433	0.105
Mof_H 	H 	0.2469	0.836	0.84263	0.008
Mof_C 	C 	0.1041	0.7862	0.8348	-0.178
Mof_H 	H 	0.0848	0.7601	0.86013	0.086
Mof_C 	C 	0.0359	0.7798	0.80743	0.107
Mof_C 	C 	0.0648	0.8188	0.76963	-0.172
Mof_H 	H 	0.0192	0.8145	0.75133	0.094
Mof_C 	C 	0.1621	0.8644	0.75921	0.104
Mof_H 	H 	0.1814	0.8905	0.73393	0.008
Mof_C 	C 	0.9281	0.7243	0.81683	-0.059
Mof_C 	C 	0.8793	0.7753	0.82143	-0.057
Mof_H 	H 	0.9126	0.8423	0.81893	0.049
Mof_C 	C 	0.7798	0.7261	0.83003	0.011
Mof_C 	C 	0.7352	0.6282	0.83403	-0.06
Mof_H 	H 	0.6697	0.5955	0.84043	0.053
Mof_C 	C 	0.7803	0.5735	0.82933	-0.046
Mof_C 	C 	0.8832	0.6253	0.82023	0.067
Mof_C 	C 	0.7291	0.4683	0.83133	0.055
Mof_C 	C 	0.641	0.266	0.83243	-0.093
Mof_C 	C 	0.727	0.4184	0.79623	-0.06
Mof_H 	H 	0.7545	0.4522	0.77283	0.037
Mof_C 	C 	0.6829	0.3173	0.79703	-0.019
Mof_H 	H 	0.6813	0.2839	0.77423	0.043
Mof_C 	C 	0.6441	0.3165	0.86663	0.019
Mof_H 	H 	0.6167	0.2833	0.89003	0.028
Mof_C 	C 	0.6884	0.4167	0.86563	-0.06
Mof_H 	H 	0.6905	0.4498	0.88863	0.055
Mof_C 	C 	0.6002	0.1584	0.83303	0.347
Mof_N 	N 	0.9315	0.5719	0.81693	-0.372
Mof_H 	H 	0.9827	0.6061	0.80083	0.126
Mof_H 	H 	0.8914	0.5172	0.80373	0.115
Mof_O 	O 	0.5763	0.1129	0.86583	-0.319
Mof_O 	O 	0.5904	0.1201	0.80063	-0.484
Mof_O 	O 	0.3913	0.9162	0.80073	-0.517
Mof_O 	O 	0.3532	0.9461	0.74063	-0.519
Mof_Zn	Zn	0.98183	0.5319	0.86515	1.221
Mof_C 	C 	0.665	0.4129	0.80113	-0.057
Mof_H 	H 	0.6515	0.4433	0.78053	0.044
Mof_C 	C 	0.6208	0.3119	0.80173	0.017
Mof_H 	H 	0.5779	0.2754	0.78163	0.028
Mof_C 	C 	0.7045	0.3204	0.86283	-0.016
Mof_H 	H 	0.7175	0.2897	0.88343	0.037
Mof_C 	C 	0.7485	0.4215	0.86223	-0.06
Mof_H 	H 	0.7908	0.4577	0.88253	0.021
Mof_C 	C 	0.5819	0.9143	0.72437	0.452
Mof_C 	C 	0.6405	0.8708	0.71347	-0.191
Mof_C 	C 	0.6304	0.8317	0.67567	0.104
Mof_H 	H 	0.5891	0.836	0.65737	0.008
Mof_C 	C 	0.6821	0.7862	0.6652	-0.176
Mof_H 	H 	0.6753	0.7601	0.63987	0.085
Mof_C 	C 	0.7439	0.7798	0.69257	0.104
Mof_C 	C 	0.754	0.8188	0.73037	-0.17
Mof_H 	H 	0.7953	0.8145	0.74867	0.093
Mof_C 	C 	0.7023	0.8644	0.74079	0.103
Mof_H 	H 	0.7091	0.8905	0.76607	0.008
Mof_C 	C 	0.7962	0.7243	0.68317	-0.057
Mof_C 	C 	0.896	0.7753	0.67857	-0.058
Mof_H 	H 	0.9297	0.8423	0.68107	0.05
Mof_C 	C 	0.9463	0.7261	0.66997	0.011
Mof_C 	C 	0.893	0.6282	0.66597	-0.061
Mof_H 	H 	0.9258	0.5955	0.65957	0.053
Mof_C 	C 	0.7932	0.5735	0.67067	-0.046
Mof_C 	C 	0.7421	0.6253	0.67977	0.067
Mof_C 	C 	0.7392	0.4683	0.66867	0.054
Mof_C 	C 	0.625	0.266	0.66757	-0.093
Mof_C 	C 	0.6914	0.4184	0.70377	-0.06
Mof_H 	H 	0.6977	0.4522	0.72717	0.037
Mof_C 	C 	0.6344	0.3173	0.70297	-0.019
Mof_H 	H 	0.6026	0.2839	0.72577	0.043
Mof_C 	C 	0.6724	0.3165	0.63337	0.019
Mof_H 	H 	0.6666	0.2833	0.60997	0.028
Mof_C 	C 	0.7283	0.4167	0.63437	-0.06
Mof_H 	H 	0.7593	0.4498	0.61137	0.055
Mof_C 	C 	0.5582	0.1584	0.66697	0.347
Mof_N 	N 	0.6404	0.5719	0.68307	-0.372
Mof_H 	H 	0.6234	0.6061	0.69917	0.126
Mof_H 	H 	0.6258	0.5172	0.69627	0.115
Mof_O 	O 	0.5366	0.1129	0.63417	-0.319
Mof_O 	O 	0.5297	0.1201	0.69937	-0.484
Mof_O 	O 	0.5249	0.9162	0.69927	-0.517
Mof_O 	O 	0.5929	0.9461	0.75937	-0.519
Mof_Zn	Zn	0.55007	0.5319	0.63485	1.221
Mof_C 	C 	0.7479	0.4129	0.69887	-0.057
Mof_H 	H 	0.7918	0.4433	0.71947	0.044
Mof_C 	C 	0.6911	0.3119	0.69827	0.017
Mof_H 	H 	0.6975	0.2754	0.71837	0.028
Mof_C 	C 	0.6159	0.3204	0.63717	-0.016
Mof_H 	H 	0.5722	0.2897	0.61657	0.037
Mof_C 	C 	0.673	0.4215	0.63777	-0.06
Mof_H 	H 	0.6669	0.4577	0.61747	0.021
Mof_C 	C 	0.3324	0.4181	0.0577	0.452
Mof_C 	C 	0.2303	0.3595	0.0468	-0.189
Mof_C 	C 	0.2013	0.3696	0.009	0.102
Mof_H 	H 	0.2469	0.4109	0.9907	0.009
Mof_C 	C 	0.1041	0.3179	0.99853	-0.174
Mof_H 	H 	0.0848	0.3247	0.9732	0.085
Mof_C 	C 	0.0359	0.2561	0.0259	0.104
Mof_C 	C 	0.0648	0.246	0.0637	-0.169
Mof_H 	H 	0.0192	0.2047	0.082	0.093
Mof_C 	C 	0.1621	0.2977	0.07412	0.102
Mof_H 	H 	0.1814	0.2909	0.0994	0.009
Mof_C 	C 	0.9281	0.2038	0.0165	-0.057
Mof_C 	C 	0.8793	0.104	0.0119	-0.058
Mof_H 	H 	0.9126	0.0703	0.0144	0.05
Mof_C 	C 	0.7798	0.0537	0.0033	0.011
Mof_C 	C 	0.7352	0.107	0.9993	-0.06
Mof_H 	H 	0.6697	0.0742	0.9929	0.053
Mof_C 	C 	0.7803	0.2068	0.004	-0.046
Mof_C 	C 	0.8832	0.2579	0.0131	0.067
Mof_C 	C 	0.7291	0.2608	0.002	0.054
Mof_C 	C 	0.641	0.375	0.0009	-0.093
Mof_C 	C 	0.727	0.3086	0.0371	-0.06
Mof_H 	H 	0.7545	0.3023	0.0605	0.037
Mof_C 	C 	0.6829	0.3656	0.0363	-0.018
Mof_H 	H 	0.6813	0.3974	0.0591	0.043
Mof_C 	C 	0.6441	0.3276	0.9667	0.019
Mof_H 	H 	0.6167	0.3334	0.9433	0.028
Mof_C 	C 	0.6884	0.2717	0.9677	-0.06
Mof_H 	H 	0.6905	0.2407	0.9447	0.055
Mof_C 	C 	0.6002	0.4418	0.0003	0.347
Mof_N 	N 	0.9315	0.3596	0.0164	-0.372
Mof_H 	H 	0.9827	0.3766	0.0325	0.126
Mof_H 	H 	0.8914	0.3742	0.0296	0.115
Mof_O 	O 	0.5763	0.4634	0.9675	-0.32
Mof_O 	O 	0.5904	0.4703	0.0327	-0.485
Mof_O 	O 	0.3913	0.4751	0.0326	-0.516
Mof_O 	O 	0.3532	0.4071	0.0927	-0.518
Mof_Zn	Zn	0.98183	0.44993	0.96818	1.221
Mof_C 	C 	0.665	0.2521	0.0322	-0.057
Mof_H 	H 	0.6515	0.2082	0.0528	0.044
Mof_C 	C 	0.6208	0.3089	0.0316	0.017
Mof_H 	H 	0.5779	0.3025	0.0517	0.028
Mof_C 	C 	0.7045	0.3841	0.9705	-0.016
Mof_H 	H 	0.7175	0.4278	0.9499	0.037
Mof_C 	C 	0.7485	0.327	0.9711	-0.06
Mof_H 	H 	0.7908	0.3331	0.9508	0.021
Mof_C 	C 	0.0857	0.6676	0.39103	0.452
Mof_C 	C 	0.1292	0.7697	0.38013	-0.192
Mof_C 	C 	0.1683	0.7987	0.34233	0.105
Mof_H 	H 	0.164	0.7531	0.32403	0.008
Mof_C 	C 	0.2138	0.8959	0.33186	-0.178
Mof_H 	H 	0.2399	0.9152	0.30653	0.086
Mof_C 	C 	0.2202	0.9641	0.35923	0.107
Mof_C 	C 	0.1812	0.9352	0.39703	-0.172
Mof_H 	H 	0.1855	0.9808	0.41533	0.094
Mof_C 	C 	0.1356	0.8379	0.40745	0.104
Mof_H 	H 	0.1095	0.8186	0.43273	0.008
Mof_C 	C 	0.2757	0.0719	0.34983	-0.058
Mof_C 	C 	0.2247	0.1207	0.34523	-0.057
Mof_H 	H 	0.1577	0.0874	0.34773	0.049
Mof_C 	C 	0.2739	0.2202	0.33663	0.011
Mof_C 	C 	0.3718	0.2648	0.33263	-0.06
Mof_H 	H 	0.4045	0.3303	0.32623	0.053
Mof_C 	C 	0.4265	0.2197	0.33733	-0.046
Mof_C 	C 	0.3747	0.1168	0.34643	0.067
Mof_C 	C 	0.5317	0.2709	0.33533	0.055
Mof_C 	C 	0.734	0.359	0.33423	-0.093
Mof_C 	C 	0.5816	0.273	0.37043	-0.06
Mof_H 	H 	0.5478	0.2455	0.39383	0.037
Mof_C 	C 	0.6827	0.3171	0.36963	-0.019
Mof_H 	H 	0.7161	0.3187	0.39243	0.043
Mof_C 	C 	0.6835	0.3559	0.30003	0.019
Mof_H 	H 	0.7167	0.3833	0.27663	0.028
Mof_C 	C 	0.5833	0.3116	0.30103	-0.06
Mof_H 	H 	0.5502	0.3095	0.27803	0.055
Mof_C 	C 	0.8416	0.3998	0.33363	0.347
Mof_N 	N 	0.4281	0.0685	0.34973	-0.372
Mof_H 	H 	0.3939	0.0173	0.36583	0.126
Mof_H 	H 	0.4828	0.1086	0.36293	0.115
Mof_O 	O 	0.8871	0.4237	0.30083	-0.319
Mof_O 	O 	0.8799	0.4096	0.36603	-0.484
Mof_O 	O 	0.0838	0.6087	0.36593	-0.517
Mof_O 	O 	0.0539	0.6468	0.42603	-0.519
Mof_Zn	Zn	0.4681	0.01817	0.30151	1.221
Mof_C 	C 	0.5871	0.335	0.36553	-0.057
Mof_H 	H 	0.5567	0.3485	0.38613	0.044
Mof_C 	C 	0.6881	0.3792	0.36493	0.017
Mof_H 	H 	0.7246	0.4221	0.38503	0.028
Mof_C 	C 	0.6796	0.2955	0.30383	-0.016
Mof_H 	H 	0.7103	0.2825	0.28323	0.037
Mof_C 	C 	0.5785	0.2515	0.30443	-0.06
Mof_H 	H 	0.5423	0.2092	0.28413	0.021
Mof_C 	C 	0.4181	0.0857	0.22437	0.452
Mof_C 	C 	0.3595	0.1292	0.21347	-0.191
Mof_C 	C 	0.3696	0.1683	0.17567	0.104
Mof_H 	H 	0.4109	0.164	0.15737	0.008
Mof_C 	C 	0.3179	0.2138	0.1652	-0.176
Mof_H 	H 	0.3247	0.2399	0.13987	0.085
Mof_C 	C 	0.2561	0.2202	0.19257	0.104
Mof_C 	C 	0.246	0.1812	0.23037	-0.17
Mof_H 	H 	0.2047	0.1855	0.24867	0.093
Mof_C 	C 	0.2977	0.1356	0.24079	0.103
Mof_H 	H 	0.2909	0.1095	0.26607	0.008
Mof_C 	C 	0.2038	0.2757	0.18317	-0.057
Mof_C 	C 	0.104	0.2247	0.17857	-0.057
Mof_H 	H 	0.0703	0.1577	0.18107	0.049
Mof_C 	C 	0.0537	0.2739	0.16997	0.011
Mof_C 	C 	0.107	0.3718	0.16597	-0.061
Mof_H 	H 	0.0742	0.4045	0.15957	0.053
Mof_C 	C 	0.2068	0.4265	0.17067	-0.046
Mof_C 	C 	0.2579	0.3747	0.17977	0.067
Mof_C 	C 	0.2608	0.5317	0.16867	0.054
Mof_C 	C 	0.375	0.734	0.16757	-0.093
Mof_C 	C 	0.3086	0.5816	0.20377	-0.06
Mof_H 	H 	0.3023	0.5478	0.22717	0.037
Mof_C 	C 	0.3656	0.6827	0.20297	-0.019
Mof_H 	H 	0.3974	0.7161	0.22577	0.043
Mof_C 	C 	0.3276	0.6835	0.13337	0.019
Mof_H 	H 	0.3334	0.7167	0.10997	0.028
Mof_C 	C 	0.2717	0.5833	0.13437	-0.06
Mof_H 	H 	0.2407	0.5502	0.11137	0.055
Mof_C 	C 	0.4418	0.8416	0.16697	0.347
Mof_N 	N 	0.3596	0.4281	0.18307	-0.372
Mof_H 	H 	0.3766	0.3939	0.19917	0.126
Mof_H 	H 	0.3742	0.4828	0.19627	0.115
Mof_O 	O 	0.4634	0.8871	0.13417	-0.319
Mof_O 	O 	0.4703	0.8799	0.19937	-0.484
Mof_O 	O 	0.4751	0.0838	0.19927	-0.517
Mof_O 	O 	0.4071	0.0539	0.25937	-0.519
Mof_Zn	Zn	0.44993	0.4681	0.13485	1.221
Mof_C 	C 	0.2521	0.5871	0.19887	-0.057
Mof_H 	H 	0.2082	0.5567	0.21947	0.044
Mof_C 	C 	0.3089	0.6881	0.19827	0.017
Mof_H 	H 	0.3025	0.7246	0.21837	0.028
Mof_C 	C 	0.3841	0.6796	0.13717	-0.016
Mof_H 	H 	0.4278	0.7103	0.11657	0.037
Mof_C 	C 	0.327	0.5785	0.13777	-0.06
Mof_H 	H 	0.3331	0.5423	0.11747	0.021
Mof_C 	C 	0.6676	0.5819	0.5577	0.452
Mof_C 	C 	0.7697	0.6405	0.5468	-0.191
Mof_C 	C 	0.7987	0.6304	0.509	0.105
Mof_H 	H 	0.7531	0.5891	0.4907	0.008
Mof_C 	C 	0.8959	0.6821	0.49853	-0.177
Mof_H 	H 	0.9152	0.6753	0.4732	0.086
Mof_C 	C 	0.9641	0.7439	0.5259	0.106
Mof_C 	C 	0.9352	0.754	0.5637	-0.171
Mof_H 	H 	0.9808	0.7953	0.582	0.094
Mof_C 	C 	0.8379	0.7023	0.57412	0.104
Mof_H 	H 	0.8186	0.7091	0.5994	0.008
Mof_C 	C 	0.0719	0.7962	0.5165	-0.058
Mof_C 	C 	0.1207	0.896	0.5119	-0.057
Mof_H 	H 	0.0874	0.9297	0.5144	0.049
Mof_C 	C 	0.2202	0.9463	0.5033	0.011
Mof_C 	C 	0.2648	0.893	0.4993	-0.061
Mof_H 	H 	0.3303	0.9258	0.4929	0.053
Mof_C 	C 	0.2197	0.7932	0.504	-0.046
Mof_C 	C 	0.1168	0.7421	0.5131	0.067
Mof_C 	C 	0.2709	0.7392	0.502	0.055
Mof_C 	C 	0.359	0.625	0.5009	-0.093
Mof_C 	C 	0.273	0.6914	0.5371	-0.06
Mof_H 	H 	0.2455	0.6977	0.5605	0.037
Mof_C 	C 	0.3171	0.6344	0.5363	-0.019
Mof_H 	H 	0.3187	0.6026	0.5591	0.043
Mof_C 	C 	0.3559	0.6724	0.4667	0.019
Mof_H 	H 	0.3833	0.6666	0.4433	0.028
Mof_C 	C 	0.3116	0.7283	0.4677	-0.06
Mof_H 	H 	0.3095	0.7593	0.4447	0.055
Mof_C 	C 	0.3998	0.5582	0.5003	0.347
Mof_N 	N 	0.0685	0.6404	0.5164	-0.372
Mof_H 	H 	0.0173	0.6234	0.5325	0.126
Mof_H 	H 	0.1086	0.6258	0.5296	0.115
Mof_O 	O 	0.4237	0.5366	0.4675	-0.32
Mof_O 	O 	0.4096	0.5297	0.5327	-0.485
Mof_O 	O 	0.6087	0.5249	0.5326	-0.516
Mof_O 	O 	0.6468	0.5929	0.5927	-0.518
Mof_Zn	Zn	0.01817	0.55007	0.46818	1.221
Mof_C 	C 	0.335	0.7479	0.5322	-0.057
Mof_H 	H 	0.3485	0.7918	0.5528	0.044
Mof_C 	C 	0.3792	0.6911	0.5316	0.017
Mof_H 	H 	0.4221	0.6975	0.5517	0.028
Mof_C 	C 	0.2955	0.6159	0.4705	-0.016
Mof_H 	H 	0.2825	0.5722	0.4499	0.037
Mof_C 	C 	0.2515	0.673	0.4711	-0.06
Mof_H 	H 	0.2092	0.6669	0.4508	0.021
Mof_C 	C 	0.9143	0.3324	0.89103	0.452
Mof_C 	C 	0.8708	0.2303	0.88013	-0.192
Mof_C 	C 	0.8317	0.2013	0.84233	0.105
Mof_H 	H 	0.836	0.2469	0.82403	0.008
Mof_C 	C 	0.7862	0.1041	0.83186	-0.178
Mof_H 	H 	0.7601	0.0848	0.80653	0.086
Mof_C 	C 	0.7798	0.0359	0.85923	0.107
Mof_C 	C 	0.8188	0.0648	0.89703	-0.172
Mof_H 	H 	0.8145	0.0192	0.91533	0.094
Mof_C 	C 	0.8644	0.1621	0.90745	0.104
Mof_H 	H 	0.8905	0.1814	0.93273	0.008
Mof_C 	C 	0.7243	0.9281	0.84983	-0.059
Mof_C 	C 	0.7753	0.8793	0.84523	-0.057
Mof_H 	H 	0.8423	0.9126	0.84773	0.049
Mof_C 	C 	0.7261	0.7798	0.83663	0.011
Mof_C 	C 	0.6282	0.7352	0.83263	-0.06
Mof_H 	H 	0.5955	0.6697	0.82623	0.053
Mof_C 	C 	0.5735	0.7803	0.83733	-0.046
Mof_C 	C 	0.6253	0.8832	0.84643	0.067
Mof_C 	C 	0.4683	0.7291	0.83533	0.055
Mof_C 	C 	0.266	0.641	0.83423	-0.093
Mof_C 	C 	0.4184	0.727	0.87043	-0.06
Mof_H 	H 	0.4522	0.7545	0.89383	0.037
Mof_C 	C 	0.3173	0.6829	0.86963	-0.019
Mof_H 	H 	0.2839	0.6813	0.89243	0.043
Mof_C 	C 	0.3165	0.6441	0.80003	0.019
Mof_H 	H 	0.2833	0.6167	0.77663	0.028
Mof_C 	C 	0.4167	0.6884	0.80103	-0.06
Mof_H 	H 	0.4498	0.6905	0.77803	0.055
Mof_C 	C 	0.1584	0.6002	0.83363	0.347
Mof_N 	N 	0.5719	0.9315	0.84973	-0.372
Mof_H 	H 	0.6061	0.9827	0.86583	0.126
Mof_H 	H 	0.5172	0.8914	0.86293	0.115
Mof_O 	O 	0.1129	0.5763	0.80083	-0.319
Mof_O 	O 	0.1201	0.5904	0.86603	-0.484
Mof_O 	O 	0.9162	0.3913	0.86593	-0.517
Mof_O 	O 	0.9461	0.3532	0.92603	-0.519
Mof_Zn	Zn	0.5319	0.98183	0.80151	1.221
Mof_C 	C 	0.4129	0.665	0.86553	-0.057
Mof_H 	H 	0.4433	0.6515	0.88613	0.044
Mof_C 	C 	0.3119	0.6208	0.86493	0.017
Mof_H 	H 	0.2754	0.5779	0.88503	0.028
Mof_C 	C 	0.3204	0.7045	0.80383	-0.016
Mof_H 	H 	0.2897	0.7175	0.78323	0.037
Mof_C 	C 	0.4215	0.7485	0.80443	-0.06
Mof_H 	H 	0.4577	0.7908	0.78413	0.021
_end
