data_functionalizedCrystal
_audit_creation_method	'EQeq! by Chris Wilmer'
_symmetry_space_group_name_H-M	'P1'
_symmetry_Int_Tables_number	1
_symmetry_cell_setting	triclinic
loop_
_symmetry_equiv_pos_as_xyz
  x,y,z
_cell_length_a	13.5285
_cell_length_b	13.5285
_cell_length_c	14.277
_cell_angle_alpha	61.7197
_cell_angle_beta	61.7197
_cell_angle_gamma	60
loop_
_atom_site_label
_atom_site_type_symbol
_atom_site_fract_x
_atom_site_fract_y
_atom_site_fract_z
_atom_site_charge
Mof_Li	Li	0.40725	0.09275	0.75	0.836
Mof_Li	Li	0.09275	0.75	0.75	0.881
Mof_Li	Li	0.75	0.40725	0.75	0.938
Mof_Li	Li	0.59275	0.90725	0.25	0.911
Mof_Li	Li	0.90725	0.25	0.25	0.867
Mof_Li	Li	0.25	0.59275	0.25	0.804
Mof_Mo	Mo	-0	0	-0	0.415
Mof_Mo	Mo	0.5	0.5	0.5	0.766
Mof_C 	C 	0.15797	0.05077	0.89239	-0.179
Mof_C 	C 	0.05077	0.89887	0.89239	-0.135
Mof_C 	C 	0.89887	0.15797	0.89239	-0.131
Mof_C 	C 	0.34203	0.60113	0.60761	-0.226
Mof_C 	C 	0.44923	0.34203	0.60761	-0.231
Mof_C 	C 	0.60113	0.44923	0.60761	-0.222
Mof_C 	C 	0.84203	0.94923	0.10761	-0.133
Mof_C 	C 	0.94923	0.10113	0.10761	-0.177
Mof_C 	C 	0.10113	0.84203	0.10761	-0.181
Mof_C 	C 	0.65797	0.39887	0.39239	-0.229
Mof_C 	C 	0.55077	0.65797	0.39239	-0.224
Mof_C 	C 	0.39887	0.55077	0.39239	-0.233
Mof_N 	N 	0.24243	0.07693	0.83491	-0.348
Mof_N 	N 	0.07693	0.84573	0.83491	-0.353
Mof_N 	N 	0.84573	0.24243	0.83491	-0.359
Mof_N 	N 	0.25757	0.65427	0.66509	-0.334
Mof_N 	N 	0.42307	0.25757	0.66509	-0.331
Mof_N 	N 	0.65427	0.42307	0.66509	-0.341
Mof_N 	N 	0.75757	0.92307	0.16509	-0.356
Mof_N 	N 	0.92307	0.15427	0.16509	-0.351
Mof_N 	N 	0.15427	0.75757	0.16509	-0.344
Mof_N 	N 	0.74243	0.34573	0.33491	-0.335
Mof_N 	N 	0.57693	0.74243	0.33491	-0.338
Mof_N 	N 	0.34573	0.57693	0.33491	-0.327
_end
