data_functionalizedCrystal
_audit_creation_method	'EQeq! by Chris Wilmer'
_symmetry_space_group_name_H-M	'P1'
_symmetry_Int_Tables_number	1
_symmetry_cell_setting	triclinic
loop_
_symmetry_equiv_pos_as_xyz
  x,y,z
_cell_length_a	19.5189
_cell_length_b	19.5189
_cell_length_c	24.253
_cell_angle_alpha	90
_cell_angle_beta	90
_cell_angle_gamma	90
loop_
_atom_site_label
_atom_site_type_symbol
_atom_site_fract_x
_atom_site_fract_y
_atom_site_fract_z
_atom_site_charge
Mof_O 	O 	0.0562	0.541	0.2877	-0.575
Mof_O 	O 	0.0023	0.6023	0.229	-0.653
Mof_O 	O 	0.1609	0.7781	0.4511	-0.569
Mof_O 	O 	0.1914	0.6738	0.4356	-0.465
Mof_O 	O 	0.009	0.8989	0.3299	-0.66
Mof_O 	O 	0.9525	0.8458	0.2617	-0.501
Mof_O 	O 	0.1415	0.3181	0.3249	-0.253
Mof_C 	C 	0.0344	0.5966	0.2749	0.513
Mof_C 	C 	0.1534	0.7239	0.4256	0.386
Mof_C 	C 	0.9901	0.846	0.3013	0.504
Mof_C 	C 	0.0442	0.66	0.3059	-0.251
Mof_C 	C 	0.013	0.7205	0.2911	0.168
Mof_H 	H 	0.9838	0.7212	0.2608	-0.022
Mof_C 	C 	0.0241	0.7799	0.3204	-0.216
Mof_C 	C 	0.0686	0.7797	0.3654	0.124
Mof_H 	H 	0.076	0.8197	0.3854	0.027
Mof_C 	C 	0.102	0.7191	0.3804	-0.174
Mof_C 	C 	0.0891	0.6594	0.3505	0.132
Mof_H 	H 	0.1107	0.6188	0.3604	-0.01
Mof_C 	C 	0.1541	0.2794	0.2856	0.115
Mof_H 	H 	0.1535	0.2946	0.248	-0.015
Mof_H 	H 	0.1898	0.132	0.2481	0.203
Mof_H 	H 	0.139	0.1862	0.2236	0.066
Mof_H 	H 	0.217	0.2039	0.2296	0.107
Mof_H 	H 	0.1876	0.1319	0.353	0.219
Mof_H 	H 	0.2192	0.2027	0.3699	0.138
Mof_H 	H 	0.1406	0.1892	0.3779	0.095
Mof_N 	N 	0.1668	0.2072	0.3003	0.006
Mof_O 	O 	0.0194	0.4362	0.3975	-0.57
Mof_H 	H 	0.9822	0.4589	0.3984	0.252
Mof_H 	H 	0.0353	0.4187	0.4269	0.229
Mof_O 	O 	0.4438	0.959	0.2877	-0.572
Mof_O 	O 	0.4977	0.8977	0.229	-0.653
Mof_O 	O 	0.3391	0.7219	0.4511	-0.569
Mof_O 	O 	0.3086	0.8262	0.4356	-0.464
Mof_O 	O 	0.491	0.6011	0.3299	-0.679
Mof_O 	O 	0.5475	0.6542	0.2617	-0.505
Mof_O 	O 	0.3585	0.1819	0.3249	-0.252
Mof_C 	C 	0.4656	0.9034	0.2749	0.513
Mof_C 	C 	0.3466	0.7761	0.4256	0.388
Mof_C 	C 	0.5099	0.654	0.3013	0.523
Mof_C 	C 	0.4558	0.84	0.3059	-0.25
Mof_C 	C 	0.487	0.7795	0.2911	0.166
Mof_H 	H 	0.5162	0.7788	0.2608	-0.019
Mof_C 	C 	0.4759	0.7201	0.3204	-0.224
Mof_C 	C 	0.4314	0.7203	0.3654	0.129
Mof_H 	H 	0.424	0.6803	0.3854	0.025
Mof_C 	C 	0.398	0.7809	0.3804	-0.176
Mof_C 	C 	0.4109	0.8406	0.3505	0.133
Mof_H 	H 	0.3893	0.8812	0.3604	-0.009
Mof_C 	C 	0.3459	0.2206	0.2856	0.115
Mof_H 	H 	0.3465	0.2054	0.248	-0.015
Mof_H 	H 	0.3102	0.368	0.2481	0.205
Mof_H 	H 	0.361	0.3138	0.2236	0.068
Mof_H 	H 	0.283	0.2961	0.2296	0.108
Mof_H 	H 	0.3124	0.3681	0.353	0.221
Mof_H 	H 	0.2808	0.2973	0.3699	0.139
Mof_H 	H 	0.3594	0.3108	0.3779	0.096
Mof_N 	N 	0.3332	0.2928	0.3003	0.007
Mof_O 	O 	0.4806	0.0638	0.3975	-0.562
Mof_H 	H 	0.5178	0.0411	0.3984	0.247
Mof_H 	H 	0.4647	0.0813	0.4269	0.226
Mof_O 	O 	0.959	0.0562	0.7877	-0.564
Mof_O 	O 	0.8977	0.0023	0.729	-0.641
Mof_O 	O 	0.7219	0.1609	0.9511	-0.496
Mof_O 	O 	0.8262	0.1914	0.9356	-0.41
Mof_O 	O 	0.6011	0.009	0.8299	-0.671
Mof_O 	O 	0.6542	0.9525	0.7617	-0.503
Mof_O 	O 	0.1819	0.1415	0.8249	-0.249
Mof_C 	C 	0.9034	0.0344	0.7749	0.51
Mof_C 	C 	0.7761	0.1534	0.9256	0.375
Mof_C 	C 	0.654	0.9901	0.8013	0.519
Mof_C 	C 	0.84	0.0442	0.8059	-0.244
Mof_C 	C 	0.7795	0.013	0.7911	0.172
Mof_H 	H 	0.7788	0.9838	0.7608	-0.023
Mof_C 	C 	0.7201	0.0241	0.8204	-0.216
Mof_C 	C 	0.7203	0.0686	0.8654	0.124
Mof_H 	H 	0.6803	0.076	0.8854	0.035
Mof_C 	C 	0.7809	0.102	0.8804	-0.159
Mof_C 	C 	0.8406	0.0891	0.8505	0.128
Mof_H 	H 	0.8812	0.1107	0.8604	-0.002
Mof_C 	C 	0.2206	0.1541	0.7856	0.112
Mof_H 	H 	0.2054	0.1535	0.748	-0.013
Mof_H 	H 	0.368	0.1898	0.7481	0.209
Mof_H 	H 	0.3138	0.139	0.7236	0.074
Mof_H 	H 	0.2961	0.217	0.7296	0.112
Mof_H 	H 	0.3681	0.1876	0.853	0.229
Mof_H 	H 	0.2973	0.2192	0.8699	0.149
Mof_H 	H 	0.3108	0.1406	0.8779	0.11
Mof_N 	N 	0.2928	0.1668	0.8003	0.014
Mof_O 	O 	0.0638	0.0194	0.8975	-0.586
Mof_H 	H 	0.0411	0.9822	0.8984	0.271
Mof_H 	H 	0.0813	0.0353	0.9269	0.245
Mof_O 	O 	0.541	0.4438	0.7877	-0.573
Mof_O 	O 	0.6023	0.4977	0.729	-0.652
Mof_O 	O 	0.7781	0.3391	0.9511	-0.496
Mof_O 	O 	0.6738	0.3086	0.9356	-0.411
Mof_O 	O 	0.8989	0.491	0.8299	-0.672
Mof_O 	O 	0.8458	0.5475	0.7617	-0.503
Mof_O 	O 	0.3181	0.3585	0.8249	-0.249
Mof_C 	C 	0.5966	0.4656	0.7749	0.512
Mof_C 	C 	0.7239	0.3466	0.9256	0.375
Mof_C 	C 	0.846	0.5099	0.8013	0.522
Mof_C 	C 	0.66	0.4558	0.8059	-0.243
Mof_C 	C 	0.7205	0.487	0.7911	0.162
Mof_H 	H 	0.7212	0.5162	0.7608	-0.016
Mof_C 	C 	0.7799	0.4759	0.8204	-0.215
Mof_C 	C 	0.7797	0.4314	0.8654	0.123
Mof_H 	H 	0.8197	0.424	0.8854	0.036
Mof_C 	C 	0.7191	0.398	0.8804	-0.159
Mof_C 	C 	0.6594	0.4109	0.8505	0.127
Mof_H 	H 	0.6188	0.3893	0.8604	-0.003
Mof_C 	C 	0.2794	0.3459	0.7856	0.112
Mof_H 	H 	0.2946	0.3465	0.748	-0.013
Mof_H 	H 	0.132	0.3102	0.7481	0.208
Mof_H 	H 	0.1862	0.361	0.7236	0.075
Mof_H 	H 	0.2039	0.283	0.7296	0.112
Mof_H 	H 	0.1319	0.3124	0.853	0.229
Mof_H 	H 	0.2027	0.2808	0.8699	0.147
Mof_H 	H 	0.1892	0.3594	0.8779	0.11
Mof_N 	N 	0.2072	0.3332	0.8003	0.014
Mof_O 	O 	0.4362	0.4806	0.8975	-0.572
Mof_H 	H 	0.4589	0.5178	0.8984	0.26
Mof_H 	H 	0.4187	0.4647	0.9269	0.244
Mof_O 	O 	0.9438	0.041	0.2123	-0.566
Mof_O 	O 	0.9977	0.1023	0.271	-0.639
Mof_O 	O 	0.8391	0.2781	0.0489	-0.561
Mof_O 	O 	0.8086	0.1738	0.0644	-0.462
Mof_O 	O 	0.991	0.3989	0.1701	-0.679
Mof_O 	O 	0.0475	0.3458	0.2383	-0.505
Mof_O 	O 	0.8585	0.8181	0.1751	-0.254
Mof_C 	C 	0.9656	0.0966	0.2251	0.513
Mof_C 	C 	0.8466	0.2239	0.0744	0.388
Mof_C 	C 	0.0099	0.346	0.1987	0.515
Mof_C 	C 	0.9558	0.16	0.1941	-0.258
Mof_C 	C 	0.987	0.2205	0.2089	0.184
Mof_H 	H 	0.0162	0.2212	0.2392	-0.03
Mof_C 	C 	0.9759	0.2799	0.1796	-0.23
Mof_C 	C 	0.9314	0.2797	0.1346	0.134
Mof_H 	H 	0.924	0.3197	0.1146	0.016
Mof_C 	C 	0.898	0.2191	0.1196	-0.189
Mof_C 	C 	0.9109	0.1594	0.1495	0.139
Mof_H 	H 	0.8893	0.1188	0.1396	-0.015
Mof_C 	C 	0.8459	0.7794	0.2144	0.115
Mof_H 	H 	0.8465	0.7946	0.252	-0.014
Mof_H 	H 	0.8102	0.632	0.2519	0.203
Mof_H 	H 	0.861	0.6862	0.2764	0.072
Mof_H 	H 	0.783	0.7039	0.2704	0.109
Mof_H 	H 	0.8124	0.6319	0.147	0.215
Mof_H 	H 	0.7808	0.7027	0.1301	0.131
Mof_H 	H 	0.8594	0.6892	0.1221	0.084
Mof_N 	N 	0.8332	0.7072	0.1997	0.004
Mof_O 	O 	0.9806	0.9362	0.1025	-0.568
Mof_H 	H 	0.0178	0.9589	0.1016	0.246
Mof_H 	H 	0.9647	0.9187	0.0731	0.214
Mof_O 	O 	0.5562	0.459	0.2123	-0.574
Mof_O 	O 	0.5023	0.3977	0.271	-0.653
Mof_O 	O 	0.6609	0.2219	0.0489	-0.561
Mof_O 	O 	0.6914	0.3262	0.0644	-0.463
Mof_O 	O 	0.509	0.1011	0.1701	-0.685
Mof_O 	O 	0.4525	0.1542	0.2383	-0.506
Mof_O 	O 	0.6415	0.6819	0.1751	-0.254
Mof_C 	C 	0.5344	0.4034	0.2251	0.514
Mof_C 	C 	0.6534	0.2761	0.0744	0.388
Mof_C 	C 	0.4901	0.154	0.1987	0.523
Mof_C 	C 	0.5442	0.34	0.1941	-0.255
Mof_C 	C 	0.513	0.2795	0.2089	0.168
Mof_H 	H 	0.4838	0.2788	0.2392	-0.02
Mof_C 	C 	0.5241	0.2201	0.1796	-0.231
Mof_C 	C 	0.5686	0.2203	0.1346	0.133
Mof_H 	H 	0.576	0.1803	0.1146	0.016
Mof_C 	C 	0.602	0.2809	0.1196	-0.189
Mof_C 	C 	0.5891	0.3406	0.1495	0.136
Mof_H 	H 	0.6107	0.3812	0.1396	-0.015
Mof_C 	C 	0.6541	0.7206	0.2144	0.116
Mof_H 	H 	0.6535	0.7054	0.252	-0.013
Mof_H 	H 	0.6898	0.868	0.2519	0.203
Mof_H 	H 	0.639	0.8138	0.2764	0.072
Mof_H 	H 	0.717	0.7961	0.2704	0.109
Mof_H 	H 	0.6876	0.8681	0.147	0.215
Mof_H 	H 	0.7192	0.7973	0.1301	0.131
Mof_H 	H 	0.6406	0.8108	0.1221	0.084
Mof_N 	N 	0.6668	0.7928	0.1997	0.004
Mof_O 	O 	0.5194	0.5638	0.1025	-0.557
Mof_H 	H 	0.4822	0.5411	0.1016	0.236
Mof_H 	H 	0.5353	0.5813	0.0731	0.212
Mof_O 	O 	0.041	0.5562	0.7123	-0.573
Mof_O 	O 	0.1023	0.5023	0.771	-0.651
Mof_O 	O 	0.2781	0.6609	0.5489	-0.569
Mof_O 	O 	0.1738	0.6914	0.5644	-0.464
Mof_O 	O 	0.3989	0.509	0.6701	-0.679
Mof_O 	O 	0.3458	0.4525	0.7383	-0.505
Mof_O 	O 	0.8181	0.6415	0.6751	-0.251
Mof_C 	C 	0.0966	0.5344	0.7251	0.513
Mof_C 	C 	0.2239	0.6534	0.5744	0.388
Mof_C 	C 	0.346	0.4901	0.6987	0.523
Mof_C 	C 	0.16	0.5442	0.6941	-0.249
Mof_C 	C 	0.2205	0.513	0.7089	0.166
Mof_H 	H 	0.2212	0.4838	0.7392	-0.017
Mof_C 	C 	0.2799	0.5241	0.6796	-0.224
Mof_C 	C 	0.2797	0.5686	0.6346	0.129
Mof_H 	H 	0.3197	0.576	0.6146	0.025
Mof_C 	C 	0.2191	0.602	0.6196	-0.176
Mof_C 	C 	0.1594	0.5891	0.6495	0.133
Mof_H 	H 	0.1188	0.6107	0.6396	-0.01
Mof_C 	C 	0.7794	0.6541	0.7144	0.113
Mof_H 	H 	0.7946	0.6535	0.752	-0.011
Mof_H 	H 	0.632	0.6898	0.7519	0.208
Mof_H 	H 	0.6862	0.639	0.7764	0.08
Mof_H 	H 	0.7039	0.717	0.7704	0.114
Mof_H 	H 	0.6319	0.6876	0.647	0.223
Mof_H 	H 	0.7027	0.7192	0.6301	0.14
Mof_H 	H 	0.6892	0.6406	0.6221	0.097
Mof_N 	N 	0.7072	0.6668	0.6997	0.011
Mof_O 	O 	0.9362	0.5194	0.6025	-0.565
Mof_H 	H 	0.9589	0.4822	0.6016	0.249
Mof_H 	H 	0.9187	0.5353	0.5731	0.228
Mof_O 	O 	0.459	0.9438	0.7123	-0.573
Mof_O 	O 	0.3977	0.9977	0.771	-0.649
Mof_O 	O 	0.2219	0.8391	0.5489	-0.568
Mof_O 	O 	0.3262	0.8086	0.5644	-0.464
Mof_O 	O 	0.1011	0.991	0.6701	-0.659
Mof_O 	O 	0.1542	0.0475	0.7383	-0.5
Mof_O 	O 	0.6819	0.8585	0.6751	-0.252
Mof_C 	C 	0.4034	0.9656	0.7251	0.514
Mof_C 	C 	0.2761	0.8466	0.5744	0.388
Mof_C 	C 	0.154	0.0099	0.6987	0.5
Mof_C 	C 	0.34	0.9558	0.6941	-0.251
Mof_C 	C 	0.2795	0.987	0.7089	0.173
Mof_H 	H 	0.2788	0.0162	0.7392	-0.024
Mof_C 	C 	0.2201	0.9759	0.6796	-0.213
Mof_C 	C 	0.2203	0.9314	0.6346	0.124
Mof_H 	H 	0.1803	0.924	0.6146	0.028
Mof_C 	C 	0.2809	0.898	0.6196	-0.174
Mof_C 	C 	0.3406	0.9109	0.6495	0.133
Mof_H 	H 	0.3812	0.8893	0.6396	-0.01
Mof_C 	C 	0.7206	0.8459	0.7144	0.113
Mof_H 	H 	0.7054	0.8465	0.752	-0.011
Mof_H 	H 	0.868	0.8102	0.7519	0.206
Mof_H 	H 	0.8138	0.861	0.7764	0.078
Mof_H 	H 	0.7961	0.783	0.7704	0.113
Mof_H 	H 	0.8681	0.8124	0.647	0.222
Mof_H 	H 	0.7973	0.7808	0.6301	0.14
Mof_H 	H 	0.8108	0.8594	0.6221	0.097
Mof_N 	N 	0.7928	0.8332	0.6997	0.01
Mof_O 	O 	0.5638	0.9806	0.6025	-0.563
Mof_H 	H 	0.5411	0.0178	0.6016	0.247
Mof_H 	H 	0.5813	0.9647	0.5731	0.227
Mof_O 	O 	0.9438	0.459	0.7123	-0.573
Mof_O 	O 	0.9977	0.3977	0.771	-0.649
Mof_O 	O 	0.8391	0.2219	0.5489	-0.568
Mof_O 	O 	0.8086	0.3262	0.5644	-0.464
Mof_O 	O 	0.991	0.1011	0.6701	-0.659
Mof_O 	O 	0.0475	0.1542	0.7383	-0.5
Mof_O 	O 	0.8585	0.6819	0.6751	-0.252
Mof_C 	C 	0.9656	0.4034	0.7251	0.514
Mof_C 	C 	0.8466	0.2761	0.5744	0.388
Mof_C 	C 	0.0099	0.154	0.6987	0.5
Mof_C 	C 	0.9558	0.34	0.6941	-0.251
Mof_C 	C 	0.987	0.2795	0.7089	0.173
Mof_H 	H 	0.0162	0.2788	0.7392	-0.024
Mof_C 	C 	0.9759	0.2201	0.6796	-0.213
Mof_C 	C 	0.9314	0.2203	0.6346	0.124
Mof_H 	H 	0.924	0.1803	0.6146	0.028
Mof_C 	C 	0.898	0.2809	0.6196	-0.174
Mof_C 	C 	0.9109	0.3406	0.6495	0.133
Mof_H 	H 	0.8893	0.3812	0.6396	-0.01
Mof_C 	C 	0.8459	0.7206	0.7144	0.113
Mof_H 	H 	0.8465	0.7054	0.752	-0.011
Mof_H 	H 	0.8102	0.868	0.7519	0.206
Mof_H 	H 	0.861	0.8138	0.7764	0.078
Mof_H 	H 	0.783	0.7961	0.7704	0.113
Mof_H 	H 	0.8124	0.8681	0.647	0.222
Mof_H 	H 	0.7808	0.7973	0.6301	0.14
Mof_H 	H 	0.8594	0.8108	0.6221	0.097
Mof_N 	N 	0.8332	0.7928	0.6997	0.01
Mof_O 	O 	0.9806	0.5638	0.6025	-0.563
Mof_H 	H 	0.0178	0.5411	0.6016	0.247
Mof_H 	H 	0.9647	0.5813	0.5731	0.227
Mof_O 	O 	0.5562	0.041	0.7123	-0.573
Mof_O 	O 	0.5023	0.1023	0.771	-0.651
Mof_O 	O 	0.6609	0.2781	0.5489	-0.569
Mof_O 	O 	0.6914	0.1738	0.5644	-0.464
Mof_O 	O 	0.509	0.3989	0.6701	-0.679
Mof_O 	O 	0.4525	0.3458	0.7383	-0.505
Mof_O 	O 	0.6415	0.8181	0.6751	-0.251
Mof_C 	C 	0.5344	0.0966	0.7251	0.513
Mof_C 	C 	0.6534	0.2239	0.5744	0.388
Mof_C 	C 	0.4901	0.346	0.6987	0.523
Mof_C 	C 	0.5442	0.16	0.6941	-0.249
Mof_C 	C 	0.513	0.2205	0.7089	0.166
Mof_H 	H 	0.4838	0.2212	0.7392	-0.017
Mof_C 	C 	0.5241	0.2799	0.6796	-0.224
Mof_C 	C 	0.5686	0.2797	0.6346	0.129
Mof_H 	H 	0.576	0.3197	0.6146	0.025
Mof_C 	C 	0.602	0.2191	0.6196	-0.176
Mof_C 	C 	0.5891	0.1594	0.6495	0.133
Mof_H 	H 	0.6107	0.1188	0.6396	-0.01
Mof_C 	C 	0.6541	0.7794	0.7144	0.113
Mof_H 	H 	0.6535	0.7946	0.752	-0.011
Mof_H 	H 	0.6898	0.632	0.7519	0.208
Mof_H 	H 	0.639	0.6862	0.7764	0.08
Mof_H 	H 	0.717	0.7039	0.7704	0.114
Mof_H 	H 	0.6876	0.6319	0.647	0.223
Mof_H 	H 	0.7192	0.7027	0.6301	0.14
Mof_H 	H 	0.6406	0.6892	0.6221	0.097
Mof_N 	N 	0.6668	0.7072	0.6997	0.011
Mof_O 	O 	0.5194	0.9362	0.6025	-0.565
Mof_H 	H 	0.4822	0.9589	0.6016	0.249
Mof_H 	H 	0.5353	0.9187	0.5731	0.228
Mof_O 	O 	0.041	0.9438	0.2123	-0.566
Mof_O 	O 	0.1023	0.9977	0.271	-0.639
Mof_O 	O 	0.2781	0.8391	0.0489	-0.561
Mof_O 	O 	0.1738	0.8086	0.0644	-0.462
Mof_O 	O 	0.3989	0.991	0.1701	-0.679
Mof_O 	O 	0.3458	0.0475	0.2383	-0.505
Mof_O 	O 	0.8181	0.8585	0.1751	-0.254
Mof_C 	C 	0.0966	0.9656	0.2251	0.513
Mof_C 	C 	0.2239	0.8466	0.0744	0.388
Mof_C 	C 	0.346	0.0099	0.1987	0.515
Mof_C 	C 	0.16	0.9558	0.1941	-0.258
Mof_C 	C 	0.2205	0.987	0.2089	0.184
Mof_H 	H 	0.2212	0.0162	0.2392	-0.03
Mof_C 	C 	0.2799	0.9759	0.1796	-0.23
Mof_C 	C 	0.2797	0.9314	0.1346	0.134
Mof_H 	H 	0.3197	0.924	0.1146	0.016
Mof_C 	C 	0.2191	0.898	0.1196	-0.189
Mof_C 	C 	0.1594	0.9109	0.1495	0.139
Mof_H 	H 	0.1188	0.8893	0.1396	-0.015
Mof_C 	C 	0.7794	0.8459	0.2144	0.115
Mof_H 	H 	0.7946	0.8465	0.252	-0.014
Mof_H 	H 	0.632	0.8102	0.2519	0.203
Mof_H 	H 	0.6862	0.861	0.2764	0.072
Mof_H 	H 	0.7039	0.783	0.2704	0.109
Mof_H 	H 	0.6319	0.8124	0.147	0.215
Mof_H 	H 	0.7027	0.7808	0.1301	0.131
Mof_H 	H 	0.6892	0.8594	0.1221	0.084
Mof_N 	N 	0.7072	0.8332	0.1997	0.004
Mof_O 	O 	0.9362	0.9806	0.1025	-0.568
Mof_H 	H 	0.9589	0.0178	0.1016	0.246
Mof_H 	H 	0.9187	0.9647	0.0731	0.214
Mof_O 	O 	0.459	0.5562	0.2123	-0.574
Mof_O 	O 	0.3977	0.5023	0.271	-0.653
Mof_O 	O 	0.2219	0.6609	0.0489	-0.561
Mof_O 	O 	0.3262	0.6914	0.0644	-0.463
Mof_O 	O 	0.1011	0.509	0.1701	-0.685
Mof_O 	O 	0.1542	0.4525	0.2383	-0.506
Mof_O 	O 	0.6819	0.6415	0.1751	-0.254
Mof_C 	C 	0.4034	0.5344	0.2251	0.514
Mof_C 	C 	0.2761	0.6534	0.0744	0.388
Mof_C 	C 	0.154	0.4901	0.1987	0.523
Mof_C 	C 	0.34	0.5442	0.1941	-0.255
Mof_C 	C 	0.2795	0.513	0.2089	0.168
Mof_H 	H 	0.2788	0.4838	0.2392	-0.02
Mof_C 	C 	0.2201	0.5241	0.1796	-0.231
Mof_C 	C 	0.2203	0.5686	0.1346	0.133
Mof_H 	H 	0.1803	0.576	0.1146	0.016
Mof_C 	C 	0.2809	0.602	0.1196	-0.189
Mof_C 	C 	0.3406	0.5891	0.1495	0.136
Mof_H 	H 	0.3812	0.6107	0.1396	-0.015
Mof_C 	C 	0.7206	0.6541	0.2144	0.116
Mof_H 	H 	0.7054	0.6535	0.252	-0.013
Mof_H 	H 	0.868	0.6898	0.2519	0.203
Mof_H 	H 	0.8138	0.639	0.2764	0.072
Mof_H 	H 	0.7961	0.717	0.2704	0.109
Mof_H 	H 	0.8681	0.6876	0.147	0.215
Mof_H 	H 	0.7973	0.7192	0.1301	0.131
Mof_H 	H 	0.8108	0.6406	0.1221	0.084
Mof_N 	N 	0.7928	0.6668	0.1997	0.004
Mof_O 	O 	0.5638	0.5194	0.1025	-0.557
Mof_H 	H 	0.5411	0.4822	0.1016	0.236
Mof_H 	H 	0.5813	0.5353	0.0731	0.212
Mof_O 	O 	0.0562	0.959	0.7877	-0.564
Mof_O 	O 	0.0023	0.8977	0.729	-0.641
Mof_O 	O 	0.1609	0.7219	0.9511	-0.496
Mof_O 	O 	0.1914	0.8262	0.9356	-0.41
Mof_O 	O 	0.009	0.6011	0.8299	-0.671
Mof_O 	O 	0.9525	0.6542	0.7617	-0.503
Mof_O 	O 	0.1415	0.1819	0.8249	-0.249
Mof_C 	C 	0.0344	0.9034	0.7749	0.51
Mof_C 	C 	0.1534	0.7761	0.9256	0.375
Mof_C 	C 	0.9901	0.654	0.8013	0.519
Mof_C 	C 	0.0442	0.84	0.8059	-0.244
Mof_C 	C 	0.013	0.7795	0.7911	0.172
Mof_H 	H 	0.9838	0.7788	0.7608	-0.023
Mof_C 	C 	0.0241	0.7201	0.8204	-0.216
Mof_C 	C 	0.0686	0.7203	0.8654	0.124
Mof_H 	H 	0.076	0.6803	0.8854	0.035
Mof_C 	C 	0.102	0.7809	0.8804	-0.159
Mof_C 	C 	0.0891	0.8406	0.8505	0.128
Mof_H 	H 	0.1107	0.8812	0.8604	-0.002
Mof_C 	C 	0.1541	0.2206	0.7856	0.112
Mof_H 	H 	0.1535	0.2054	0.748	-0.013
Mof_H 	H 	0.1898	0.368	0.7481	0.209
Mof_H 	H 	0.139	0.3138	0.7236	0.074
Mof_H 	H 	0.217	0.2961	0.7296	0.112
Mof_H 	H 	0.1876	0.3681	0.853	0.229
Mof_H 	H 	0.2192	0.2973	0.8699	0.149
Mof_H 	H 	0.1406	0.3108	0.8779	0.11
Mof_N 	N 	0.1668	0.2928	0.8003	0.014
Mof_O 	O 	0.0194	0.0638	0.8975	-0.586
Mof_H 	H 	0.9822	0.0411	0.8984	0.271
Mof_H 	H 	0.0353	0.0813	0.9269	0.245
Mof_O 	O 	0.4438	0.541	0.7877	-0.573
Mof_O 	O 	0.4977	0.6023	0.729	-0.652
Mof_O 	O 	0.3391	0.7781	0.9511	-0.496
Mof_O 	O 	0.3086	0.6738	0.9356	-0.411
Mof_O 	O 	0.491	0.8989	0.8299	-0.672
Mof_O 	O 	0.5475	0.8458	0.7617	-0.503
Mof_O 	O 	0.3585	0.3181	0.8249	-0.249
Mof_C 	C 	0.4656	0.5966	0.7749	0.512
Mof_C 	C 	0.3466	0.7239	0.9256	0.375
Mof_C 	C 	0.5099	0.846	0.8013	0.522
Mof_C 	C 	0.4558	0.66	0.8059	-0.243
Mof_C 	C 	0.487	0.7205	0.7911	0.162
Mof_H 	H 	0.5162	0.7212	0.7608	-0.016
Mof_C 	C 	0.4759	0.7799	0.8204	-0.215
Mof_C 	C 	0.4314	0.7797	0.8654	0.123
Mof_H 	H 	0.424	0.8197	0.8854	0.036
Mof_C 	C 	0.398	0.7191	0.8804	-0.159
Mof_C 	C 	0.4109	0.6594	0.8505	0.127
Mof_H 	H 	0.3893	0.6188	0.8604	-0.003
Mof_C 	C 	0.3459	0.2794	0.7856	0.112
Mof_H 	H 	0.3465	0.2946	0.748	-0.013
Mof_H 	H 	0.3102	0.132	0.7481	0.208
Mof_H 	H 	0.361	0.1862	0.7236	0.075
Mof_H 	H 	0.283	0.2039	0.7296	0.112
Mof_H 	H 	0.3124	0.1319	0.853	0.229
Mof_H 	H 	0.2808	0.2027	0.8699	0.147
Mof_H 	H 	0.3594	0.1892	0.8779	0.11
Mof_N 	N 	0.3332	0.2072	0.8003	0.014
Mof_O 	O 	0.4806	0.4362	0.8975	-0.572
Mof_H 	H 	0.5178	0.4589	0.8984	0.26
Mof_H 	H 	0.4647	0.4187	0.9269	0.244
Mof_O 	O 	0.959	0.4438	0.2877	-0.572
Mof_O 	O 	0.8977	0.4977	0.229	-0.653
Mof_O 	O 	0.7219	0.3391	0.4511	-0.569
Mof_O 	O 	0.8262	0.3086	0.4356	-0.464
Mof_O 	O 	0.6011	0.491	0.3299	-0.679
Mof_O 	O 	0.6542	0.5475	0.2617	-0.505
Mof_O 	O 	0.1819	0.3585	0.3249	-0.252
Mof_C 	C 	0.9034	0.4656	0.2749	0.513
Mof_C 	C 	0.7761	0.3466	0.4256	0.388
Mof_C 	C 	0.654	0.5099	0.3013	0.523
Mof_C 	C 	0.84	0.4558	0.3059	-0.25
Mof_C 	C 	0.7795	0.487	0.2911	0.166
Mof_H 	H 	0.7788	0.5162	0.2608	-0.019
Mof_C 	C 	0.7201	0.4759	0.3204	-0.224
Mof_C 	C 	0.7203	0.4314	0.3654	0.129
Mof_H 	H 	0.6803	0.424	0.3854	0.025
Mof_C 	C 	0.7809	0.398	0.3804	-0.176
Mof_C 	C 	0.8406	0.4109	0.3505	0.133
Mof_H 	H 	0.8812	0.3893	0.3604	-0.009
Mof_C 	C 	0.2206	0.3459	0.2856	0.115
Mof_H 	H 	0.2054	0.3465	0.248	-0.015
Mof_H 	H 	0.368	0.3102	0.2481	0.205
Mof_H 	H 	0.3138	0.361	0.2236	0.068
Mof_H 	H 	0.2961	0.283	0.2296	0.108
Mof_H 	H 	0.3681	0.3124	0.353	0.221
Mof_H 	H 	0.2973	0.2808	0.3699	0.139
Mof_H 	H 	0.3108	0.3594	0.3779	0.096
Mof_N 	N 	0.2928	0.3332	0.3003	0.007
Mof_O 	O 	0.0638	0.4806	0.3975	-0.562
Mof_H 	H 	0.0411	0.5178	0.3984	0.247
Mof_H 	H 	0.0813	0.4647	0.4269	0.226
Mof_O 	O 	0.541	0.0562	0.2877	-0.574
Mof_O 	O 	0.6023	0.0023	0.229	-0.652
Mof_O 	O 	0.7781	0.1609	0.4511	-0.568
Mof_O 	O 	0.6738	0.1914	0.4356	-0.464
Mof_O 	O 	0.8989	0.009	0.3299	-0.659
Mof_O 	O 	0.8458	0.9525	0.2617	-0.5
Mof_O 	O 	0.3181	0.1415	0.3249	-0.252
Mof_C 	C 	0.5966	0.0344	0.2749	0.514
Mof_C 	C 	0.7239	0.1534	0.4256	0.387
Mof_C 	C 	0.846	0.9901	0.3013	0.505
Mof_C 	C 	0.66	0.0442	0.3059	-0.25
Mof_C 	C 	0.7205	0.013	0.2911	0.169
Mof_H 	H 	0.7212	0.9838	0.2608	-0.021
Mof_C 	C 	0.7799	0.0241	0.3204	-0.215
Mof_C 	C 	0.7797	0.0686	0.3654	0.125
Mof_H 	H 	0.8197	0.076	0.3854	0.028
Mof_C 	C 	0.7191	0.102	0.3804	-0.174
Mof_C 	C 	0.6594	0.0891	0.3505	0.132
Mof_H 	H 	0.6188	0.1107	0.3604	-0.01
Mof_C 	C 	0.2794	0.1541	0.2856	0.115
Mof_H 	H 	0.2946	0.1535	0.248	-0.015
Mof_H 	H 	0.132	0.1898	0.2481	0.203
Mof_H 	H 	0.1862	0.139	0.2236	0.066
Mof_H 	H 	0.2039	0.217	0.2296	0.107
Mof_H 	H 	0.1319	0.1876	0.353	0.219
Mof_H 	H 	0.2027	0.2192	0.3699	0.138
Mof_H 	H 	0.1892	0.1406	0.3779	0.095
Mof_N 	N 	0.2072	0.1668	0.3003	0.006
Mof_O 	O 	0.4362	0.0194	0.3975	-0.57
Mof_H 	H 	0.4589	0.9822	0.3984	0.252
Mof_H 	H 	0.4187	0.0353	0.4269	0.229
Mof_In	In	0.99606	0.50394	0.18996	2.676
Mof_Ca	Ca	0.07921	0.42079	0.31218	1.507
Mof_Cl	Cl	0.95749	0.54251	0.10279	-0.728
Mof_In	In	0.50394	0.99606	0.18996	2.676
Mof_Ca	Ca	0.42079	0.07921	0.31218	1.507
Mof_Cl	Cl	0.54251	0.95749	0.10279	-0.728
Mof_In	In	0.99606	0.99606	0.68996	2.631
Mof_Ca	Ca	0.07921	0.07921	0.81218	1.506
Mof_Cl	Cl	0.95749	0.95749	0.60279	-0.702
Mof_In	In	0.50394	0.50394	0.68996	2.676
Mof_Ca	Ca	0.42079	0.42079	0.81218	1.519
Mof_Cl	Cl	0.54251	0.54251	0.60279	-0.703
Mof_In	In	0.00394	0.00394	0.31004	2.619
Mof_Ca	Ca	0.92079	0.92079	0.18782	1.493
Mof_Cl	Cl	0.04251	0.04251	0.39721	-0.702
Mof_In	In	0.49606	0.49606	0.31004	2.677
Mof_Ca	Ca	0.57921	0.57921	0.18782	1.501
Mof_Cl	Cl	0.45749	0.45749	0.39721	-0.703
Mof_In	In	0.00394	0.49606	0.81004	2.674
Mof_Ca	Ca	0.92079	0.57921	0.68782	1.509
Mof_Cl	Cl	0.04251	0.45749	0.89721	-0.676
Mof_In	In	0.49606	0.00394	0.81004	2.674
Mof_Ca	Ca	0.57921	0.92079	0.68782	1.509
Mof_Cl	Cl	0.45749	0.04251	0.89721	-0.676
Mof_In	In	0.25	0.75	0.5	2.517
Mof_In	In	0.75	0.25	-0	2.254
Mof_In	In	0.75	0.25	0.5	2.517
Mof_In	In	0.25	0.75	-0	2.254
Mof_C 	C 	0.179	0.179	0.2459	-0.685
Mof_C 	C 	0.1796	0.1796	0.3548	-0.775
Mof_C 	C 	0.321	0.321	0.2459	-0.692
Mof_C 	C 	0.3204	0.3204	0.3548	-0.781
Mof_C 	C 	0.321	0.179	0.7459	-0.716
Mof_C 	C 	0.3204	0.1796	0.8548	-0.826
Mof_C 	C 	0.179	0.321	0.7459	-0.716
Mof_C 	C 	0.1796	0.3204	0.8548	-0.826
Mof_C 	C 	0.821	0.679	0.2541	-0.693
Mof_C 	C 	0.8204	0.6796	0.1452	-0.745
Mof_C 	C 	0.679	0.821	0.2541	-0.693
Mof_C 	C 	0.6796	0.8204	0.1452	-0.745
Mof_C 	C 	0.679	0.679	0.7541	-0.72
Mof_C 	C 	0.6796	0.6796	0.6452	-0.791
Mof_C 	C 	0.821	0.821	0.7541	-0.715
Mof_C 	C 	0.8204	0.8204	0.6452	-0.787
_end
