data_functionalizedCrystal
_audit_creation_method	'EQeq! by Chris Wilmer'
_symmetry_space_group_name_H-M	'P1'
_symmetry_Int_Tables_number	1
_symmetry_cell_setting	triclinic
loop_
_symmetry_equiv_pos_as_xyz
  x,y,z
_cell_length_a	5.5418
_cell_length_b	11.8831
_cell_length_c	22.6515
_cell_angle_alpha	101.607
_cell_angle_beta	90
_cell_angle_gamma	90
loop_
_atom_site_label
_atom_site_type_symbol
_atom_site_fract_x
_atom_site_fract_y
_atom_site_fract_z
_atom_site_charge
Mof_Ca	Ca	0.76526	0.60227	0.04209	1.568
Mof_Ca	Ca	0.26526	0.89773	0.45791	1.567
Mof_Ca	Ca	0.23474	0.39773	0.95791	1.568
Mof_Ca	Ca	0.73474	0.10227	0.54209	1.567
Mof_H 	H 	0.2123	0.1075	0.119	0.072
Mof_H 	H 	0.2117	0.9776	0.2141	0.07
Mof_H 	H 	0.573	0.824	0.166	0.074
Mof_H 	H 	0.1236	0.2798	0.0902	0.005
Mof_H 	H 	0.4892	0.8273	0.2672	0.025
Mof_H 	H 	0.131	0.9743	0.3145	0.006
Mof_H 	H 	0.5615	0.9834	0.059	0.09
Mof_H 	H 	0.4727	0.1575	0.0318	0.015
Mof_H 	H 	0.7123	0.3925	0.381	0.075
Mof_H 	H 	0.7117	0.5224	0.2859	0.072
Mof_H 	H 	0.073	0.676	0.334	0.075
Mof_H 	H 	0.6236	0.2202	0.4098	0.003
Mof_H 	H 	0.9892	0.6727	0.2328	0.022
Mof_H 	H 	0.631	0.5257	0.1855	0.005
Mof_H 	H 	0.0615	0.5166	0.441	0.092
Mof_H 	H 	0.9727	0.3425	0.4682	0.011
Mof_H 	H 	0.7877	0.8925	0.881	0.073
Mof_H 	H 	0.7883	0.0224	0.7859	0.071
Mof_H 	H 	0.427	0.176	0.834	0.074
Mof_H 	H 	0.8764	0.7202	0.9098	0.005
Mof_H 	H 	0.5108	0.1727	0.7328	0.025
Mof_H 	H 	0.869	0.0257	0.6855	0.006
Mof_H 	H 	0.4385	0.0166	0.941	0.09
Mof_H 	H 	0.5273	0.8425	0.9682	0.015
Mof_H 	H 	0.2877	0.6075	0.619	0.075
Mof_H 	H 	0.2883	0.4776	0.7141	0.072
Mof_H 	H 	0.927	0.324	0.666	0.075
Mof_H 	H 	0.3764	0.7798	0.5902	0.003
Mof_H 	H 	0.0108	0.3273	0.7672	0.022
Mof_H 	H 	0.369	0.4743	0.8145	0.005
Mof_H 	H 	0.9385	0.4834	0.559	0.092
Mof_H 	H 	0.0273	0.6575	0.5318	0.011
Mof_C 	C 	0.7542	0.89194	0.36572	0.483
Mof_C 	C 	0.7329	0.34409	0.03583	0.462
Mof_C 	C 	0.0661	0.1172	0.10049	-0.102
Mof_C 	C 	0.069	0.9457	0.22476	-0.098
Mof_C 	C 	0.6841	0.8541	0.19575	-0.091
Mof_C 	C 	0.9026	0.89861	0.18105	-0.003
Mof_C 	C 	0.0119	0.2202	0.08361	0.07
Mof_C 	C 	0.6354	0.85566	0.25634	0.051
Mof_C 	C 	0.8033	0.89927	0.30059	-0.165
Mof_C 	C 	0.7916	0.2347	0.05689	-0.174
Mof_C 	C 	0.0192	0.9446	0.28482	0.061
Mof_C 	C 	0.8982	0.02872	0.08934	0.01
Mof_C 	C 	0.6745	0.0425	0.06462	-0.107
Mof_C 	C 	0.6222	0.1467	0.04841	0.07
Mof_C 	C 	0.2542	0.60806	0.13428	0.484
Mof_C 	C 	0.2329	0.15591	0.46417	0.462
Mof_C 	C 	0.5661	0.3828	0.39951	-0.109
Mof_C 	C 	0.569	0.5543	0.27524	-0.101
Mof_C 	C 	0.1841	0.6459	0.30425	-0.094
Mof_C 	C 	0.4026	0.60139	0.31895	-0
Mof_C 	C 	0.5119	0.2798	0.41639	0.072
Mof_C 	C 	0.1354	0.64434	0.24366	0.055
Mof_C 	C 	0.3033	0.60073	0.19941	-0.168
Mof_C 	C 	0.2916	0.2653	0.44311	-0.175
Mof_C 	C 	0.5192	0.5554	0.21518	0.063
Mof_C 	C 	0.3982	0.47128	0.41066	0.017
Mof_C 	C 	0.1745	0.4575	0.43538	-0.113
Mof_C 	C 	0.1222	0.3533	0.45159	0.075
Mof_C 	C 	0.2458	0.10806	0.63428	0.483
Mof_C 	C 	0.2671	0.65591	0.96417	0.462
Mof_C 	C 	0.9339	0.8828	0.89951	-0.102
Mof_C 	C 	0.931	0.0543	0.77524	-0.098
Mof_C 	C 	0.3159	0.1459	0.80425	-0.091
Mof_C 	C 	0.0974	0.10139	0.81895	-0.003
Mof_C 	C 	0.9881	0.7798	0.91639	0.07
Mof_C 	C 	0.3646	0.14434	0.74366	0.051
Mof_C 	C 	0.1967	0.10073	0.69941	-0.165
Mof_C 	C 	0.2084	0.7653	0.94311	-0.174
Mof_C 	C 	0.9808	0.0554	0.71518	0.061
Mof_C 	C 	0.1018	0.97128	0.91066	0.01
Mof_C 	C 	0.3255	0.9575	0.93538	-0.107
Mof_C 	C 	0.3778	0.8533	0.95159	0.07
Mof_C 	C 	0.7458	0.39194	0.86572	0.484
Mof_C 	C 	0.7671	0.84409	0.53583	0.462
Mof_C 	C 	0.4339	0.6172	0.60049	-0.109
Mof_C 	C 	0.431	0.4457	0.72476	-0.101
Mof_C 	C 	0.8159	0.3541	0.69575	-0.094
Mof_C 	C 	0.5974	0.39861	0.68105	-0
Mof_C 	C 	0.4881	0.7202	0.58361	0.072
Mof_C 	C 	0.8646	0.35566	0.75634	0.055
Mof_C 	C 	0.6967	0.39927	0.80059	-0.168
Mof_C 	C 	0.7084	0.7347	0.55689	-0.175
Mof_C 	C 	0.4808	0.4446	0.78482	0.063
Mof_C 	C 	0.6018	0.52872	0.58934	0.017
Mof_C 	C 	0.8255	0.5425	0.56462	-0.113
Mof_C 	C 	0.8778	0.6467	0.54841	0.075
Mof_S 	S 	0.97582	0.89286	0.10471	0.315
Mof_S 	S 	0.47582	0.60714	0.39529	0.313
Mof_S 	S 	0.02418	0.10714	0.89529	0.315
Mof_S 	S 	0.52418	0.39286	0.60471	0.313
Mof_O 	O 	0.5166	0.3684	0.02971	-0.514
Mof_O 	O 	0.2327	0.87936	0.09816	-0.252
Mof_O 	O 	0.8172	0.81014	0.06786	-0.361
Mof_O 	O 	0.5386	0.8821	0.38009	-0.48
Mof_O 	O 	0.9082	0.40727	0.02701	-0.59
Mof_O 	O 	0.9336	0.89351	0.39909	-0.509
Mof_O 	O 	0.0166	0.1316	0.47029	-0.514
Mof_O 	O 	0.7327	0.62064	0.40184	-0.252
Mof_O 	O 	0.3172	0.68986	0.43214	-0.361
Mof_O 	O 	0.0386	0.6179	0.11991	-0.479
Mof_O 	O 	0.4082	0.09273	0.47299	-0.589
Mof_O 	O 	0.4336	0.60649	0.10091	-0.51
Mof_O 	O 	0.4834	0.6316	0.97029	-0.514
Mof_O 	O 	0.7673	0.12064	0.90184	-0.252
Mof_O 	O 	0.1828	0.18986	0.93214	-0.361
Mof_O 	O 	0.4614	0.1179	0.61991	-0.48
Mof_O 	O 	0.0918	0.59273	0.97299	-0.59
Mof_O 	O 	0.0664	0.10649	0.60091	-0.509
Mof_O 	O 	0.9834	0.8684	0.52971	-0.514
Mof_O 	O 	0.2673	0.37936	0.59816	-0.252
Mof_O 	O 	0.6828	0.31014	0.56786	-0.361
Mof_O 	O 	0.9614	0.3821	0.88009	-0.479
Mof_O 	O 	0.5918	0.90727	0.52701	-0.589
Mof_O 	O 	0.5664	0.39351	0.89909	-0.51
_end
