data_functionalizedCrystal
_audit_creation_method	'EQeq! by Chris Wilmer'
_symmetry_space_group_name_H-M	'P1'
_symmetry_Int_Tables_number	1
_symmetry_cell_setting	triclinic
loop_
_symmetry_equiv_pos_as_xyz
  x,y,z
_cell_length_a	24.748
_cell_length_b	32.354
_cell_length_c	21.712
_cell_angle_alpha	90
_cell_angle_beta	90
_cell_angle_gamma	90
loop_
_atom_site_label
_atom_site_type_symbol
_atom_site_fract_x
_atom_site_fract_y
_atom_site_fract_z
_atom_site_charge
Mof_C 	C 	0.5914	0.3229	0.2089	-0.121
Mof_C 	C 	0.5685	0.3093	0.2628	0.063
Mof_H 	H 	0.5428	0.2884	0.2615	0.046
Mof_C 	C 	0.5832	0.3263	0.3201	-0.124
Mof_C 	C 	0.6248	0.3565	0.321	0.054
Mof_H 	H 	0.6397	0.3654	0.358	0.038
Mof_C 	C 	0.6425	0.3723	0.2655	-0.094
Mof_C 	C 	0.6255	0.3578	0.2104	0.055
Mof_H 	H 	0.6361	0.3707	0.1741	0.039
Mof_C 	C 	0.5707	0.3067	0.1498	0.372
Mof_C 	C 	0.5655	0.3097	0.382	0.422
Mof_C 	C 	0.8254	0.4443	0.6317	0.427
Mof_C 	C 	0.8164	0.4388	0.4006	0.349
Mof_C 	C 	0.8739	0.3918	0.4596	0.073
Mof_H 	H 	0.8811	0.3786	0.4225	0.036
Mof_C 	C 	0.8409	0.4247	0.4593	-0.126
Mof_C 	C 	0.8232	0.4413	0.5134	0.067
Mof_H 	H 	0.7992	0.4634	0.513	0.046
Mof_C 	C 	0.8412	0.4248	0.5702	-0.127
Mof_C 	C 	0.883	0.394	0.5697	0.068
Mof_H 	H 	0.8997	0.3861	0.6062	0.03
Mof_C 	C 	0.8982	0.3763	0.5139	-0.124
Mof_O 	O 	0.5433	0.2745	0.1509	-0.385
Mof_O 	O 	0.5938	0.3223	0.1019	-0.412
Mof_O 	O 	0.691	0.4329	0.2088	-0.329
Mof_O 	O 	0.7443	0.38681	0.2731	-0.34
Mof_O 	O 	0.6858	0.4373	0.3204	-0.324
Mof_O 	O 	0.5516	0.26726	0.0137	-0.523
Mof_O 	O 	0.4592	0.22908	0.0124	-0.52
Mof_O 	O 	0.7858	0.4701	0.4012	-0.367
Mof_O 	O 	0.8316	0.4221	0.6762	-0.447
Mof_O 	O 	0.7971	0.4757	0.6303	-0.405
Mof_O 	O 	0.5332	0.2799	0.3809	-0.4
Mof_O 	O 	0.5751	0.3319	0.4253	-0.447
Mof_O 	O 	0.8394	0.4233	0.3513	-0.397
Mof_O 	O 	0.939	0.3116	0.5682	-0.318
Mof_O 	O 	0.997	0.3573	0.5175	-0.368
Mof_S 	S 	0.69501	0.41073	0.2668	0.485
Mof_S 	S 	0.94647	0.33648	0.5132	0.572
Mof_Cu	Cu	0.50808	0.24579	0.94505	0.957
Mof_Cu	Cu	0.82347	0.42376	0.26319	0.913
Mof_Cu	Cu	0.57767	0.32398	0.01391	0.906
Mof_Cu	Cu	0.506	0.24623	0.08346	0.931
Mof_O 	O 	0.9392	0.3154	0.4588	-0.328
Mof_C 	C 	0.5914	0.8229	0.7089	-0.116
Mof_C 	C 	0.5685	0.8093	0.7628	0.061
Mof_H 	H 	0.5428	0.7884	0.7615	0.049
Mof_C 	C 	0.5832	0.8263	0.8201	-0.116
Mof_C 	C 	0.6248	0.8565	0.821	0.051
Mof_H 	H 	0.6397	0.8654	0.858	0.045
Mof_C 	C 	0.6425	0.8723	0.7655	-0.088
Mof_C 	C 	0.6255	0.8578	0.7104	0.053
Mof_H 	H 	0.6361	0.8707	0.6741	0.044
Mof_C 	C 	0.5707	0.8067	0.6498	0.372
Mof_C 	C 	0.5655	0.8097	0.882	0.42
Mof_C 	C 	0.8254	0.9443	0.1317	0.422
Mof_C 	C 	0.8164	0.9388	0.9006	0.34
Mof_C 	C 	0.8739	0.8918	0.9596	0.104
Mof_H 	H 	0.8811	0.8786	0.9225	0.034
Mof_C 	C 	0.8409	0.9247	0.9593	-0.077
Mof_C 	C 	0.8232	0.9413	0.0134	0.005
Mof_H 	H 	0.7992	0.9634	0.013	0.056
Mof_C 	C 	0.8412	0.9248	0.0702	-0.114
Mof_C 	C 	0.883	0.894	0.0697	0.065
Mof_H 	H 	0.8997	0.8861	0.1062	0.032
Mof_C 	C 	0.8982	0.8763	0.0139	-0.15
Mof_O 	O 	0.5433	0.7745	0.6509	-0.382
Mof_O 	O 	0.5938	0.8223	0.6019	-0.406
Mof_O 	O 	0.691	0.9329	0.7088	-0.325
Mof_O 	O 	0.7443	0.88681	0.7731	-0.336
Mof_O 	O 	0.6858	0.9373	0.8204	-0.318
Mof_O 	O 	0.5516	0.76726	0.5137	-0.504
Mof_O 	O 	0.4592	0.72908	0.5124	-0.501
Mof_O 	O 	0.7858	0.9701	0.9012	-0.354
Mof_O 	O 	0.8316	0.9221	0.1762	-0.448
Mof_O 	O 	0.7971	0.9757	0.1303	-0.406
Mof_O 	O 	0.5332	0.7799	0.8809	-0.394
Mof_O 	O 	0.5751	0.8319	0.9253	-0.428
Mof_O 	O 	0.8394	0.9233	0.8513	-0.391
Mof_O 	O 	0.939	0.8116	0.0682	-0.312
Mof_O 	O 	0.997	0.8573	0.0175	-0.369
Mof_S 	S 	0.69501	0.91073	0.7668	0.483
Mof_S 	S 	0.94647	0.83648	0.0132	0.521
Mof_Cu	Cu	0.50808	0.74579	0.44505	0.943
Mof_Cu	Cu	0.82347	0.92376	0.76319	0.914
Mof_Cu	Cu	0.57767	0.82398	0.51391	0.918
Mof_Cu	Cu	0.506	0.74623	0.58346	0.932
Mof_O 	O 	0.9392	0.8154	0.9588	-0.286
Mof_C 	C 	0.0914	0.3229	0.7089	-0.116
Mof_C 	C 	0.0685	0.3093	0.7628	0.061
Mof_H 	H 	0.0428	0.2884	0.7615	0.049
Mof_C 	C 	0.0832	0.3263	0.8201	-0.116
Mof_C 	C 	0.1248	0.3565	0.821	0.051
Mof_H 	H 	0.1397	0.3654	0.858	0.045
Mof_C 	C 	0.1425	0.3723	0.7655	-0.088
Mof_C 	C 	0.1255	0.3578	0.7104	0.053
Mof_H 	H 	0.1361	0.3707	0.6741	0.044
Mof_C 	C 	0.0707	0.3067	0.6498	0.372
Mof_C 	C 	0.0655	0.3097	0.882	0.42
Mof_C 	C 	0.3254	0.4443	0.1317	0.422
Mof_C 	C 	0.3164	0.4388	0.9006	0.34
Mof_C 	C 	0.3739	0.3918	0.9596	0.104
Mof_H 	H 	0.3811	0.3786	0.9225	0.033
Mof_C 	C 	0.3409	0.4247	0.9593	-0.077
Mof_C 	C 	0.3232	0.4413	0.0134	0.004
Mof_H 	H 	0.2992	0.4634	0.013	0.056
Mof_C 	C 	0.3412	0.4248	0.0702	-0.114
Mof_C 	C 	0.383	0.394	0.0697	0.065
Mof_H 	H 	0.3997	0.3861	0.1062	0.032
Mof_C 	C 	0.3982	0.3763	0.0139	-0.15
Mof_O 	O 	0.0433	0.2745	0.6509	-0.382
Mof_O 	O 	0.0938	0.3223	0.6019	-0.406
Mof_O 	O 	0.191	0.4329	0.7088	-0.325
Mof_O 	O 	0.2443	0.38681	0.7731	-0.336
Mof_O 	O 	0.1858	0.4373	0.8204	-0.318
Mof_O 	O 	0.0516	0.26726	0.5137	-0.504
Mof_O 	O 	0.9592	0.22908	0.5124	-0.501
Mof_O 	O 	0.2858	0.4701	0.9012	-0.354
Mof_O 	O 	0.3316	0.4221	0.1762	-0.448
Mof_O 	O 	0.2971	0.4757	0.1303	-0.406
Mof_O 	O 	0.0332	0.2799	0.8809	-0.394
Mof_O 	O 	0.0751	0.3319	0.9253	-0.428
Mof_O 	O 	0.3394	0.4233	0.8513	-0.391
Mof_O 	O 	0.439	0.3116	0.0682	-0.312
Mof_O 	O 	0.497	0.3573	0.0175	-0.369
Mof_S 	S 	0.19501	0.41073	0.7668	0.483
Mof_S 	S 	0.44647	0.33648	0.0132	0.52
Mof_Cu	Cu	0.00808	0.24579	0.44505	0.943
Mof_Cu	Cu	0.32347	0.42376	0.76319	0.914
Mof_Cu	Cu	0.07767	0.32398	0.51391	0.918
Mof_Cu	Cu	0.006	0.24623	0.58346	0.932
Mof_O 	O 	0.4392	0.3154	0.9588	-0.285
Mof_C 	C 	0.0914	0.8229	0.2089	-0.12
Mof_C 	C 	0.0685	0.8093	0.2628	0.064
Mof_H 	H 	0.0428	0.7884	0.2615	0.047
Mof_C 	C 	0.0832	0.8263	0.3201	-0.123
Mof_C 	C 	0.1248	0.8565	0.321	0.055
Mof_H 	H 	0.1397	0.8654	0.358	0.039
Mof_C 	C 	0.1425	0.8723	0.2655	-0.093
Mof_C 	C 	0.1255	0.8578	0.2104	0.056
Mof_H 	H 	0.1361	0.8707	0.1741	0.04
Mof_C 	C 	0.0707	0.8067	0.1498	0.373
Mof_C 	C 	0.0655	0.8097	0.382	0.423
Mof_C 	C 	0.3254	0.9443	0.6317	0.428
Mof_C 	C 	0.3164	0.9388	0.4006	0.35
Mof_C 	C 	0.3739	0.8918	0.4596	0.074
Mof_H 	H 	0.3811	0.8786	0.4225	0.037
Mof_C 	C 	0.3409	0.9247	0.4593	-0.125
Mof_C 	C 	0.3232	0.9413	0.5134	0.068
Mof_H 	H 	0.2992	0.9634	0.513	0.047
Mof_C 	C 	0.3412	0.9248	0.5702	-0.126
Mof_C 	C 	0.383	0.894	0.5697	0.069
Mof_H 	H 	0.3997	0.8861	0.6062	0.031
Mof_C 	C 	0.3982	0.8763	0.5139	-0.123
Mof_O 	O 	0.0433	0.7745	0.1509	-0.384
Mof_O 	O 	0.0938	0.8223	0.1019	-0.411
Mof_O 	O 	0.191	0.9329	0.2088	-0.327
Mof_O 	O 	0.2443	0.88681	0.2731	-0.339
Mof_O 	O 	0.1858	0.9373	0.3204	-0.323
Mof_O 	O 	0.0516	0.76726	0.0137	-0.522
Mof_O 	O 	0.9592	0.72908	0.0124	-0.52
Mof_O 	O 	0.2858	0.9701	0.4012	-0.367
Mof_O 	O 	0.3316	0.9221	0.6762	-0.447
Mof_O 	O 	0.2971	0.9757	0.6303	-0.405
Mof_O 	O 	0.0332	0.7799	0.3809	-0.4
Mof_O 	O 	0.0751	0.8319	0.4253	-0.447
Mof_O 	O 	0.3394	0.9233	0.3513	-0.397
Mof_O 	O 	0.439	0.8116	0.5682	-0.318
Mof_O 	O 	0.497	0.8573	0.5175	-0.368
Mof_S 	S 	0.19501	0.91073	0.2668	0.485
Mof_S 	S 	0.44647	0.83648	0.5132	0.572
Mof_Cu	Cu	0.00808	0.74579	0.94505	0.957
Mof_Cu	Cu	0.32347	0.92376	0.26319	0.913
Mof_Cu	Cu	0.07767	0.82398	0.01391	0.906
Mof_Cu	Cu	0.006	0.74623	0.08346	0.931
Mof_O 	O 	0.4392	0.8154	0.4588	-0.328
Mof_C 	C 	0.4086	0.6771	0.2089	-0.12
Mof_C 	C 	0.4315	0.6907	0.2628	0.064
Mof_H 	H 	0.4572	0.7116	0.2615	0.047
Mof_C 	C 	0.4168	0.6737	0.3201	-0.123
Mof_C 	C 	0.3752	0.6435	0.321	0.055
Mof_H 	H 	0.3603	0.6346	0.358	0.039
Mof_C 	C 	0.3575	0.6277	0.2655	-0.093
Mof_C 	C 	0.3745	0.6422	0.2104	0.056
Mof_H 	H 	0.3639	0.6293	0.1741	0.04
Mof_C 	C 	0.4293	0.6933	0.1498	0.373
Mof_C 	C 	0.4345	0.6903	0.382	0.423
Mof_C 	C 	0.1746	0.5557	0.6317	0.428
Mof_C 	C 	0.1836	0.5612	0.4006	0.35
Mof_C 	C 	0.1261	0.6082	0.4596	0.074
Mof_H 	H 	0.1189	0.6214	0.4225	0.037
Mof_C 	C 	0.1591	0.5753	0.4593	-0.125
Mof_C 	C 	0.1768	0.5587	0.5134	0.068
Mof_H 	H 	0.2008	0.5366	0.513	0.047
Mof_C 	C 	0.1588	0.5752	0.5702	-0.126
Mof_C 	C 	0.117	0.606	0.5697	0.069
Mof_H 	H 	0.1003	0.6139	0.6062	0.031
Mof_C 	C 	0.1018	0.6237	0.5139	-0.123
Mof_O 	O 	0.4567	0.7255	0.1509	-0.384
Mof_O 	O 	0.4062	0.6777	0.1019	-0.411
Mof_O 	O 	0.309	0.5671	0.2088	-0.328
Mof_O 	O 	0.2557	0.61319	0.2731	-0.339
Mof_O 	O 	0.3142	0.5627	0.3204	-0.323
Mof_O 	O 	0.4484	0.73274	0.0137	-0.522
Mof_O 	O 	0.5408	0.77092	0.0124	-0.52
Mof_O 	O 	0.2142	0.5299	0.4012	-0.367
Mof_O 	O 	0.1684	0.5779	0.6762	-0.447
Mof_O 	O 	0.2029	0.5243	0.6303	-0.405
Mof_O 	O 	0.4668	0.7201	0.3809	-0.4
Mof_O 	O 	0.4249	0.6681	0.4253	-0.447
Mof_O 	O 	0.1606	0.5767	0.3513	-0.397
Mof_O 	O 	0.061	0.6884	0.5682	-0.318
Mof_O 	O 	0.003	0.6427	0.5175	-0.368
Mof_S 	S 	0.30499	0.58927	0.2668	0.485
Mof_S 	S 	0.05353	0.66352	0.5132	0.572
Mof_Cu	Cu	0.49192	0.75421	0.94505	0.957
Mof_Cu	Cu	0.17653	0.57624	0.26319	0.913
Mof_Cu	Cu	0.42233	0.67602	0.01391	0.906
Mof_Cu	Cu	0.494	0.75377	0.08346	0.931
Mof_O 	O 	0.0608	0.6846	0.4588	-0.328
Mof_C 	C 	0.4086	0.1771	0.7089	-0.116
Mof_C 	C 	0.4315	0.1907	0.7628	0.061
Mof_H 	H 	0.4572	0.2116	0.7615	0.049
Mof_C 	C 	0.4168	0.1737	0.8201	-0.116
Mof_C 	C 	0.3752	0.1435	0.821	0.051
Mof_H 	H 	0.3603	0.1346	0.858	0.045
Mof_C 	C 	0.3575	0.1277	0.7655	-0.088
Mof_C 	C 	0.3745	0.1422	0.7104	0.053
Mof_H 	H 	0.3639	0.1293	0.6741	0.044
Mof_C 	C 	0.4293	0.1933	0.6498	0.372
Mof_C 	C 	0.4345	0.1903	0.882	0.42
Mof_C 	C 	0.1746	0.0557	0.1317	0.422
Mof_C 	C 	0.1836	0.0612	0.9006	0.34
Mof_C 	C 	0.1261	0.1082	0.9596	0.104
Mof_H 	H 	0.1189	0.1214	0.9225	0.034
Mof_C 	C 	0.1591	0.0753	0.9593	-0.077
Mof_C 	C 	0.1768	0.0587	0.0134	0.005
Mof_H 	H 	0.2008	0.0366	0.013	0.056
Mof_C 	C 	0.1588	0.0752	0.0702	-0.114
Mof_C 	C 	0.117	0.106	0.0697	0.065
Mof_H 	H 	0.1003	0.1139	0.1062	0.032
Mof_C 	C 	0.1018	0.1237	0.0139	-0.15
Mof_O 	O 	0.4567	0.2255	0.6509	-0.382
Mof_O 	O 	0.4062	0.1777	0.6019	-0.406
Mof_O 	O 	0.309	0.0671	0.7088	-0.325
Mof_O 	O 	0.2557	0.11319	0.7731	-0.336
Mof_O 	O 	0.3142	0.0627	0.8204	-0.318
Mof_O 	O 	0.4484	0.23274	0.5137	-0.504
Mof_O 	O 	0.5408	0.27092	0.5124	-0.501
Mof_O 	O 	0.2142	0.0299	0.9012	-0.354
Mof_O 	O 	0.1684	0.0779	0.1762	-0.448
Mof_O 	O 	0.2029	0.0243	0.1303	-0.406
Mof_O 	O 	0.4668	0.2201	0.8809	-0.394
Mof_O 	O 	0.4249	0.1681	0.9253	-0.428
Mof_O 	O 	0.1606	0.0767	0.8513	-0.391
Mof_O 	O 	0.061	0.1884	0.0682	-0.312
Mof_O 	O 	0.003	0.1427	0.0175	-0.369
Mof_S 	S 	0.30499	0.08927	0.7668	0.483
Mof_S 	S 	0.05353	0.16352	0.0132	0.521
Mof_Cu	Cu	0.49192	0.25421	0.44505	0.943
Mof_Cu	Cu	0.17653	0.07624	0.76319	0.914
Mof_Cu	Cu	0.42233	0.17602	0.51391	0.918
Mof_Cu	Cu	0.494	0.25377	0.58346	0.932
Mof_O 	O 	0.0608	0.1846	0.9588	-0.286
Mof_C 	C 	0.9086	0.6771	0.7089	-0.116
Mof_C 	C 	0.9315	0.6907	0.7628	0.061
Mof_H 	H 	0.9572	0.7116	0.7615	0.049
Mof_C 	C 	0.9168	0.6737	0.8201	-0.116
Mof_C 	C 	0.8752	0.6435	0.821	0.051
Mof_H 	H 	0.8603	0.6346	0.858	0.045
Mof_C 	C 	0.8575	0.6277	0.7655	-0.088
Mof_C 	C 	0.8745	0.6422	0.7104	0.053
Mof_H 	H 	0.8639	0.6293	0.6741	0.044
Mof_C 	C 	0.9293	0.6933	0.6498	0.372
Mof_C 	C 	0.9345	0.6903	0.882	0.42
Mof_C 	C 	0.6746	0.5557	0.1317	0.422
Mof_C 	C 	0.6836	0.5612	0.9006	0.34
Mof_C 	C 	0.6261	0.6082	0.9596	0.104
Mof_H 	H 	0.6189	0.6214	0.9225	0.033
Mof_C 	C 	0.6591	0.5753	0.9593	-0.077
Mof_C 	C 	0.6768	0.5587	0.0134	0.004
Mof_H 	H 	0.7008	0.5366	0.013	0.056
Mof_C 	C 	0.6588	0.5752	0.0702	-0.114
Mof_C 	C 	0.617	0.606	0.0697	0.065
Mof_H 	H 	0.6003	0.6139	0.1062	0.032
Mof_C 	C 	0.6018	0.6237	0.0139	-0.15
Mof_O 	O 	0.9567	0.7255	0.6509	-0.382
Mof_O 	O 	0.9062	0.6777	0.6019	-0.406
Mof_O 	O 	0.809	0.5671	0.7088	-0.325
Mof_O 	O 	0.7557	0.61319	0.7731	-0.336
Mof_O 	O 	0.8142	0.5627	0.8204	-0.318
Mof_O 	O 	0.9484	0.73274	0.5137	-0.504
Mof_O 	O 	0.0408	0.77092	0.5124	-0.501
Mof_O 	O 	0.7142	0.5299	0.9012	-0.354
Mof_O 	O 	0.6684	0.5779	0.1762	-0.448
Mof_O 	O 	0.7029	0.5243	0.1303	-0.406
Mof_O 	O 	0.9668	0.7201	0.8809	-0.394
Mof_O 	O 	0.9249	0.6681	0.9253	-0.428
Mof_O 	O 	0.6606	0.5767	0.8513	-0.391
Mof_O 	O 	0.561	0.6884	0.0682	-0.312
Mof_O 	O 	0.503	0.6427	0.0175	-0.369
Mof_S 	S 	0.80499	0.58927	0.7668	0.483
Mof_S 	S 	0.55353	0.66352	0.0132	0.52
Mof_Cu	Cu	0.99192	0.75421	0.44505	0.943
Mof_Cu	Cu	0.67653	0.57624	0.76319	0.914
Mof_Cu	Cu	0.92233	0.67602	0.51391	0.918
Mof_Cu	Cu	0.994	0.75377	0.58346	0.932
Mof_O 	O 	0.5608	0.6846	0.9588	-0.285
Mof_C 	C 	0.9086	0.1771	0.2089	-0.12
Mof_C 	C 	0.9315	0.1907	0.2628	0.064
Mof_H 	H 	0.9572	0.2116	0.2615	0.047
Mof_C 	C 	0.9168	0.1737	0.3201	-0.123
Mof_C 	C 	0.8752	0.1435	0.321	0.055
Mof_H 	H 	0.8603	0.1346	0.358	0.039
Mof_C 	C 	0.8575	0.1277	0.2655	-0.093
Mof_C 	C 	0.8745	0.1422	0.2104	0.056
Mof_H 	H 	0.8639	0.1293	0.1741	0.04
Mof_C 	C 	0.9293	0.1933	0.1498	0.373
Mof_C 	C 	0.9345	0.1903	0.382	0.423
Mof_C 	C 	0.6746	0.0557	0.6317	0.428
Mof_C 	C 	0.6836	0.0612	0.4006	0.35
Mof_C 	C 	0.6261	0.1082	0.4596	0.074
Mof_H 	H 	0.6189	0.1214	0.4225	0.037
Mof_C 	C 	0.6591	0.0753	0.4593	-0.125
Mof_C 	C 	0.6768	0.0587	0.5134	0.068
Mof_H 	H 	0.7008	0.0366	0.513	0.047
Mof_C 	C 	0.6588	0.0752	0.5702	-0.126
Mof_C 	C 	0.617	0.106	0.5697	0.069
Mof_H 	H 	0.6003	0.1139	0.6062	0.031
Mof_C 	C 	0.6018	0.1237	0.5139	-0.123
Mof_O 	O 	0.9567	0.2255	0.1509	-0.384
Mof_O 	O 	0.9062	0.1777	0.1019	-0.411
Mof_O 	O 	0.809	0.0671	0.2088	-0.327
Mof_O 	O 	0.7557	0.11319	0.2731	-0.339
Mof_O 	O 	0.8142	0.0627	0.3204	-0.323
Mof_O 	O 	0.9484	0.23274	0.0137	-0.522
Mof_O 	O 	0.0408	0.27092	0.0124	-0.52
Mof_O 	O 	0.7142	0.0299	0.4012	-0.367
Mof_O 	O 	0.6684	0.0779	0.6762	-0.447
Mof_O 	O 	0.7029	0.0243	0.6303	-0.405
Mof_O 	O 	0.9668	0.2201	0.3809	-0.4
Mof_O 	O 	0.9249	0.1681	0.4253	-0.447
Mof_O 	O 	0.6606	0.0767	0.3513	-0.397
Mof_O 	O 	0.561	0.1884	0.5682	-0.318
Mof_O 	O 	0.503	0.1427	0.5175	-0.368
Mof_S 	S 	0.80499	0.08927	0.2668	0.485
Mof_S 	S 	0.55353	0.16352	0.5132	0.572
Mof_Cu	Cu	0.99192	0.25421	0.94505	0.957
Mof_Cu	Cu	0.67653	0.07624	0.26319	0.913
Mof_Cu	Cu	0.92233	0.17602	0.01391	0.906
Mof_Cu	Cu	0.994	0.25377	0.08346	0.931
Mof_O 	O 	0.5608	0.1846	0.4588	-0.328
Mof_C 	C 	0.8414	0.9271	0.4589	-0.118
Mof_C 	C 	0.8185	0.9407	0.5128	0.063
Mof_H 	H 	0.7928	0.9616	0.5115	0.048
Mof_C 	C 	0.8332	0.9237	0.5701	-0.121
Mof_C 	C 	0.8748	0.8935	0.571	0.054
Mof_H 	H 	0.8897	0.8846	0.608	0.04
Mof_C 	C 	0.8925	0.8777	0.5155	-0.091
Mof_C 	C 	0.8755	0.8922	0.4604	0.054
Mof_H 	H 	0.8861	0.8793	0.4241	0.043
Mof_C 	C 	0.8207	0.9433	0.3998	0.372
Mof_C 	C 	0.8155	0.9403	0.632	0.422
Mof_C 	C 	0.0754	0.8057	0.8817	0.426
Mof_C 	C 	0.0664	0.8112	0.6506	0.349
Mof_C 	C 	0.1239	0.8582	0.7096	0.072
Mof_H 	H 	0.1311	0.8714	0.6725	0.038
Mof_C 	C 	0.0909	0.8253	0.7093	-0.122
Mof_C 	C 	0.0732	0.8087	0.7634	0.065
Mof_H 	H 	0.0492	0.7866	0.763	0.048
Mof_C 	C 	0.0912	0.8252	0.8202	-0.121
Mof_C 	C 	0.133	0.856	0.8197	0.067
Mof_H 	H 	0.1497	0.8639	0.8562	0.037
Mof_C 	C 	0.1482	0.8737	0.7639	-0.119
Mof_O 	O 	0.7933	0.9755	0.4009	-0.383
Mof_O 	O 	0.8438	0.9277	0.3519	-0.407
Mof_O 	O 	0.941	0.8171	0.4588	-0.326
Mof_O 	O 	0.9943	0.86319	0.5231	-0.338
Mof_O 	O 	0.9358	0.8127	0.5704	-0.322
Mof_O 	O 	0.8016	0.98274	0.2637	-0.504
Mof_O 	O 	0.7092	0.02092	0.2624	-0.502
Mof_O 	O 	0.0358	0.7799	0.6512	-0.367
Mof_O 	O 	0.0816	0.8279	0.9262	-0.428
Mof_O 	O 	0.0471	0.7743	0.8803	-0.399
Mof_O 	O 	0.7832	0.9701	0.6309	-0.4
Mof_O 	O 	0.8251	0.9181	0.6753	-0.447
Mof_O 	O 	0.0894	0.8267	0.6013	-0.396
Mof_O 	O 	0.189	0.9384	0.8182	-0.314
Mof_O 	O 	0.247	0.8927	0.7675	-0.366
Mof_S 	S 	0.94501	0.83927	0.5168	0.484
Mof_S 	S 	0.19647	0.91352	0.7632	0.57
Mof_Cu	Cu	0.75808	0.00421	0.19505	0.943
Mof_Cu	Cu	0.07347	0.82624	0.51319	0.913
Mof_Cu	Cu	0.82767	0.92602	0.26391	0.917
Mof_Cu	Cu	0.756	0.00377	0.33346	0.932
Mof_O 	O 	0.1892	0.9346	0.7088	-0.327
Mof_C 	C 	0.8414	0.4271	0.9589	-0.076
Mof_C 	C 	0.8185	0.4407	0.0128	0.005
Mof_H 	H 	0.7928	0.4616	0.0115	0.055
Mof_C 	C 	0.8332	0.4237	0.0701	-0.113
Mof_C 	C 	0.8748	0.3935	0.071	0.058
Mof_H 	H 	0.8897	0.3846	0.108	0.037
Mof_C 	C 	0.8925	0.3777	0.0155	-0.131
Mof_C 	C 	0.8755	0.3922	0.9604	0.098
Mof_H 	H 	0.8861	0.3793	0.9241	0.034
Mof_C 	C 	0.8207	0.4433	0.8998	0.364
Mof_C 	C 	0.8155	0.4403	0.132	0.417
Mof_C 	C 	0.0754	0.3057	0.3817	0.429
Mof_C 	C 	0.0664	0.3112	0.1506	0.351
Mof_C 	C 	0.1239	0.3582	0.2096	0.076
Mof_H 	H 	0.1311	0.3714	0.1725	0.035
Mof_C 	C 	0.0909	0.3253	0.2093	-0.127
Mof_C 	C 	0.0732	0.3087	0.2634	0.069
Mof_H 	H 	0.0492	0.2866	0.263	0.046
Mof_C 	C 	0.0912	0.3252	0.3202	-0.127
Mof_C 	C 	0.133	0.356	0.3197	0.07
Mof_H 	H 	0.1497	0.3639	0.3562	0.031
Mof_C 	C 	0.1482	0.3737	0.2639	-0.125
Mof_O 	O 	0.7933	0.4755	0.9009	-0.37
Mof_O 	O 	0.8438	0.4277	0.8519	-0.402
Mof_O 	O 	0.941	0.3171	0.9588	-0.289
Mof_O 	O 	0.9943	0.36319	0.0231	-0.342
Mof_O 	O 	0.9358	0.3127	0.0704	-0.318
Mof_O 	O 	0.8016	0.48274	0.7637	-0.503
Mof_O 	O 	0.7092	0.52092	0.7624	-0.501
Mof_O 	O 	0.0358	0.2799	0.1512	-0.368
Mof_O 	O 	0.0816	0.3279	0.4262	-0.448
Mof_O 	O 	0.0471	0.2743	0.3803	-0.405
Mof_O 	O 	0.7832	0.4701	0.1309	-0.402
Mof_O 	O 	0.8251	0.4181	0.1753	-0.447
Mof_O 	O 	0.0894	0.3267	0.1013	-0.401
Mof_O 	O 	0.189	0.4384	0.3182	-0.319
Mof_O 	O 	0.247	0.3927	0.2675	-0.369
Mof_S 	S 	0.94501	0.33927	0.0168	0.444
Mof_S 	S 	0.19647	0.41352	0.2632	0.573
Mof_Cu	Cu	0.75808	0.50421	0.69505	0.943
Mof_Cu	Cu	0.07347	0.32624	0.01319	0.902
Mof_Cu	Cu	0.82767	0.42602	0.76391	0.918
Mof_Cu	Cu	0.756	0.50377	0.83346	0.932
Mof_O 	O 	0.1892	0.4346	0.2088	-0.33
Mof_C 	C 	0.3414	0.9271	0.9589	-0.077
Mof_C 	C 	0.3185	0.9407	0.0128	0.005
Mof_H 	H 	0.2928	0.9616	0.0115	0.055
Mof_C 	C 	0.3332	0.9237	0.0701	-0.113
Mof_C 	C 	0.3748	0.8935	0.071	0.058
Mof_H 	H 	0.3897	0.8846	0.108	0.037
Mof_C 	C 	0.3925	0.8777	0.0155	-0.131
Mof_C 	C 	0.3755	0.8922	0.9604	0.099
Mof_H 	H 	0.3861	0.8793	0.9241	0.034
Mof_C 	C 	0.3207	0.9433	0.8998	0.364
Mof_C 	C 	0.3155	0.9403	0.132	0.417
Mof_C 	C 	0.5754	0.8057	0.3817	0.429
Mof_C 	C 	0.5664	0.8112	0.1506	0.351
Mof_C 	C 	0.6239	0.8582	0.2096	0.076
Mof_H 	H 	0.6311	0.8714	0.1725	0.035
Mof_C 	C 	0.5909	0.8253	0.2093	-0.127
Mof_C 	C 	0.5732	0.8087	0.2634	0.069
Mof_H 	H 	0.5492	0.7866	0.263	0.046
Mof_C 	C 	0.5912	0.8252	0.3202	-0.127
Mof_C 	C 	0.633	0.856	0.3197	0.07
Mof_H 	H 	0.6497	0.8639	0.3562	0.031
Mof_C 	C 	0.6482	0.8737	0.2639	-0.125
Mof_O 	O 	0.2933	0.9755	0.9009	-0.37
Mof_O 	O 	0.3438	0.9277	0.8519	-0.402
Mof_O 	O 	0.441	0.8171	0.9588	-0.288
Mof_O 	O 	0.4943	0.86319	0.0231	-0.342
Mof_O 	O 	0.4358	0.8127	0.0704	-0.318
Mof_O 	O 	0.3016	0.98274	0.7637	-0.503
Mof_O 	O 	0.2092	0.02092	0.7624	-0.501
Mof_O 	O 	0.5358	0.7799	0.1512	-0.368
Mof_O 	O 	0.5816	0.8279	0.4262	-0.448
Mof_O 	O 	0.5471	0.7743	0.3803	-0.405
Mof_O 	O 	0.2832	0.9701	0.1309	-0.402
Mof_O 	O 	0.3251	0.9181	0.1753	-0.447
Mof_O 	O 	0.5894	0.8267	0.1013	-0.401
Mof_O 	O 	0.689	0.9384	0.3182	-0.319
Mof_O 	O 	0.747	0.8927	0.2675	-0.369
Mof_S 	S 	0.44501	0.83927	0.0168	0.444
Mof_S 	S 	0.69647	0.91352	0.2632	0.573
Mof_Cu	Cu	0.25808	0.00421	0.69505	0.943
Mof_Cu	Cu	0.57347	0.82624	0.01319	0.902
Mof_Cu	Cu	0.32767	0.92602	0.76391	0.918
Mof_Cu	Cu	0.256	0.00377	0.83346	0.933
Mof_O 	O 	0.6892	0.9346	0.2088	-0.33
Mof_C 	C 	0.3414	0.4271	0.4589	-0.118
Mof_C 	C 	0.3185	0.4407	0.5128	0.063
Mof_H 	H 	0.2928	0.4616	0.5115	0.048
Mof_C 	C 	0.3332	0.4237	0.5701	-0.121
Mof_C 	C 	0.3748	0.3935	0.571	0.054
Mof_H 	H 	0.3897	0.3846	0.608	0.04
Mof_C 	C 	0.3925	0.3777	0.5155	-0.092
Mof_C 	C 	0.3755	0.3922	0.4604	0.054
Mof_H 	H 	0.3861	0.3793	0.4241	0.043
Mof_C 	C 	0.3207	0.4433	0.3998	0.372
Mof_C 	C 	0.3155	0.4403	0.632	0.422
Mof_C 	C 	0.5754	0.3057	0.8817	0.425
Mof_C 	C 	0.5664	0.3112	0.6506	0.349
Mof_C 	C 	0.6239	0.3582	0.7096	0.072
Mof_H 	H 	0.6311	0.3714	0.6725	0.038
Mof_C 	C 	0.5909	0.3253	0.7093	-0.122
Mof_C 	C 	0.5732	0.3087	0.7634	0.065
Mof_H 	H 	0.5492	0.2866	0.763	0.048
Mof_C 	C 	0.5912	0.3252	0.8202	-0.121
Mof_C 	C 	0.633	0.356	0.8197	0.067
Mof_H 	H 	0.6497	0.3639	0.8562	0.037
Mof_C 	C 	0.6482	0.3737	0.7639	-0.119
Mof_O 	O 	0.2933	0.4755	0.4009	-0.383
Mof_O 	O 	0.3438	0.4277	0.3519	-0.407
Mof_O 	O 	0.441	0.3171	0.4588	-0.326
Mof_O 	O 	0.4943	0.36319	0.5231	-0.338
Mof_O 	O 	0.4358	0.3127	0.5704	-0.322
Mof_O 	O 	0.3016	0.48274	0.2637	-0.504
Mof_O 	O 	0.2092	0.52092	0.2624	-0.502
Mof_O 	O 	0.5358	0.2799	0.6512	-0.367
Mof_O 	O 	0.5816	0.3279	0.9262	-0.428
Mof_O 	O 	0.5471	0.2743	0.8803	-0.398
Mof_O 	O 	0.2832	0.4701	0.6309	-0.4
Mof_O 	O 	0.3251	0.4181	0.6753	-0.447
Mof_O 	O 	0.5894	0.3267	0.6013	-0.396
Mof_O 	O 	0.689	0.4384	0.8182	-0.314
Mof_O 	O 	0.747	0.3927	0.7675	-0.366
Mof_S 	S 	0.44501	0.33927	0.5168	0.484
Mof_S 	S 	0.69647	0.41352	0.7632	0.57
Mof_Cu	Cu	0.25808	0.50421	0.19505	0.943
Mof_Cu	Cu	0.57347	0.32624	0.51319	0.913
Mof_Cu	Cu	0.32767	0.42602	0.26391	0.917
Mof_Cu	Cu	0.256	0.50377	0.33346	0.932
Mof_O 	O 	0.6892	0.4346	0.7088	-0.327
Mof_C 	C 	0.6586	0.5729	0.4589	-0.118
Mof_C 	C 	0.6815	0.5593	0.5128	0.063
Mof_H 	H 	0.7072	0.5384	0.5115	0.048
Mof_C 	C 	0.6668	0.5763	0.5701	-0.121
Mof_C 	C 	0.6252	0.6065	0.571	0.054
Mof_H 	H 	0.6103	0.6154	0.608	0.04
Mof_C 	C 	0.6075	0.6223	0.5155	-0.092
Mof_C 	C 	0.6245	0.6078	0.4604	0.054
Mof_H 	H 	0.6139	0.6207	0.4241	0.043
Mof_C 	C 	0.6793	0.5567	0.3998	0.372
Mof_C 	C 	0.6845	0.5597	0.632	0.422
Mof_C 	C 	0.4246	0.6943	0.8817	0.425
Mof_C 	C 	0.4336	0.6888	0.6506	0.349
Mof_C 	C 	0.3761	0.6418	0.7096	0.072
Mof_H 	H 	0.3689	0.6286	0.6725	0.038
Mof_C 	C 	0.4091	0.6747	0.7093	-0.122
Mof_C 	C 	0.4268	0.6913	0.7634	0.065
Mof_H 	H 	0.4508	0.7134	0.763	0.048
Mof_C 	C 	0.4088	0.6748	0.8202	-0.121
Mof_C 	C 	0.367	0.644	0.8197	0.067
Mof_H 	H 	0.3503	0.6361	0.8562	0.037
Mof_C 	C 	0.3518	0.6263	0.7639	-0.119
Mof_O 	O 	0.7067	0.5245	0.4009	-0.383
Mof_O 	O 	0.6562	0.5723	0.3519	-0.407
Mof_O 	O 	0.559	0.6829	0.4588	-0.326
Mof_O 	O 	0.5057	0.63681	0.5231	-0.338
Mof_O 	O 	0.5642	0.6873	0.5704	-0.322
Mof_O 	O 	0.6984	0.51726	0.2637	-0.504
Mof_O 	O 	0.7908	0.47908	0.2624	-0.502
Mof_O 	O 	0.4642	0.7201	0.6512	-0.367
Mof_O 	O 	0.4184	0.6721	0.9262	-0.428
Mof_O 	O 	0.4529	0.7257	0.8803	-0.398
Mof_O 	O 	0.7168	0.5299	0.6309	-0.4
Mof_O 	O 	0.6749	0.5819	0.6753	-0.447
Mof_O 	O 	0.4106	0.6733	0.6013	-0.396
Mof_O 	O 	0.311	0.5616	0.8182	-0.314
Mof_O 	O 	0.253	0.6073	0.7675	-0.366
Mof_S 	S 	0.55499	0.66073	0.5168	0.484
Mof_S 	S 	0.30353	0.58648	0.7632	0.57
Mof_Cu	Cu	0.74192	0.49579	0.19505	0.943
Mof_Cu	Cu	0.42653	0.67376	0.51319	0.913
Mof_Cu	Cu	0.67233	0.57398	0.26391	0.917
Mof_Cu	Cu	0.744	0.49623	0.33346	0.932
Mof_O 	O 	0.3108	0.5654	0.7088	-0.327
Mof_C 	C 	0.6586	0.0729	0.9589	-0.077
Mof_C 	C 	0.6815	0.0593	0.0128	0.005
Mof_H 	H 	0.7072	0.0384	0.0115	0.055
Mof_C 	C 	0.6668	0.0763	0.0701	-0.113
Mof_C 	C 	0.6252	0.1065	0.071	0.058
Mof_H 	H 	0.6103	0.1154	0.108	0.037
Mof_C 	C 	0.6075	0.1223	0.0155	-0.131
Mof_C 	C 	0.6245	0.1078	0.9604	0.099
Mof_H 	H 	0.6139	0.1207	0.9241	0.034
Mof_C 	C 	0.6793	0.0567	0.8998	0.364
Mof_C 	C 	0.6845	0.0597	0.132	0.417
Mof_C 	C 	0.4246	0.1943	0.3817	0.429
Mof_C 	C 	0.4336	0.1888	0.1506	0.351
Mof_C 	C 	0.3761	0.1418	0.2096	0.076
Mof_H 	H 	0.3689	0.1286	0.1725	0.035
Mof_C 	C 	0.4091	0.1747	0.2093	-0.127
Mof_C 	C 	0.4268	0.1913	0.2634	0.069
Mof_H 	H 	0.4508	0.2134	0.263	0.046
Mof_C 	C 	0.4088	0.1748	0.3202	-0.127
Mof_C 	C 	0.367	0.144	0.3197	0.07
Mof_H 	H 	0.3503	0.1361	0.3562	0.031
Mof_C 	C 	0.3518	0.1263	0.2639	-0.125
Mof_O 	O 	0.7067	0.0245	0.9009	-0.37
Mof_O 	O 	0.6562	0.0723	0.8519	-0.402
Mof_O 	O 	0.559	0.1829	0.9588	-0.288
Mof_O 	O 	0.5057	0.13681	0.0231	-0.342
Mof_O 	O 	0.5642	0.1873	0.0704	-0.318
Mof_O 	O 	0.6984	0.01726	0.7637	-0.503
Mof_O 	O 	0.7908	0.97908	0.7624	-0.501
Mof_O 	O 	0.4642	0.2201	0.1512	-0.368
Mof_O 	O 	0.4184	0.1721	0.4262	-0.448
Mof_O 	O 	0.4529	0.2257	0.3803	-0.405
Mof_O 	O 	0.7168	0.0299	0.1309	-0.402
Mof_O 	O 	0.6749	0.0819	0.1753	-0.447
Mof_O 	O 	0.4106	0.1733	0.1013	-0.401
Mof_O 	O 	0.311	0.0616	0.3182	-0.319
Mof_O 	O 	0.253	0.1073	0.2675	-0.369
Mof_S 	S 	0.55499	0.16073	0.0168	0.444
Mof_S 	S 	0.30353	0.08648	0.2632	0.573
Mof_Cu	Cu	0.74192	0.99579	0.69505	0.943
Mof_Cu	Cu	0.42653	0.17376	0.01319	0.902
Mof_Cu	Cu	0.67233	0.07398	0.76391	0.918
Mof_Cu	Cu	0.744	0.99623	0.83346	0.933
Mof_O 	O 	0.3108	0.0654	0.2088	-0.33
Mof_C 	C 	0.1586	0.5729	0.9589	-0.076
Mof_C 	C 	0.1815	0.5593	0.0128	0.005
Mof_H 	H 	0.2072	0.5384	0.0115	0.055
Mof_C 	C 	0.1668	0.5763	0.0701	-0.113
Mof_C 	C 	0.1252	0.6065	0.071	0.058
Mof_H 	H 	0.1103	0.6154	0.108	0.037
Mof_C 	C 	0.1075	0.6223	0.0155	-0.131
Mof_C 	C 	0.1245	0.6078	0.9604	0.098
Mof_H 	H 	0.1139	0.6207	0.9241	0.034
Mof_C 	C 	0.1793	0.5567	0.8998	0.364
Mof_C 	C 	0.1845	0.5597	0.132	0.417
Mof_C 	C 	0.9246	0.6943	0.3817	0.429
Mof_C 	C 	0.9336	0.6888	0.1506	0.351
Mof_C 	C 	0.8761	0.6418	0.2096	0.076
Mof_H 	H 	0.8689	0.6286	0.1725	0.035
Mof_C 	C 	0.9091	0.6747	0.2093	-0.127
Mof_C 	C 	0.9268	0.6913	0.2634	0.069
Mof_H 	H 	0.9508	0.7134	0.263	0.046
Mof_C 	C 	0.9088	0.6748	0.3202	-0.127
Mof_C 	C 	0.867	0.644	0.3197	0.07
Mof_H 	H 	0.8503	0.6361	0.3562	0.031
Mof_C 	C 	0.8518	0.6263	0.2639	-0.125
Mof_O 	O 	0.2067	0.5245	0.9009	-0.37
Mof_O 	O 	0.1562	0.5723	0.8519	-0.402
Mof_O 	O 	0.059	0.6829	0.9588	-0.289
Mof_O 	O 	0.0057	0.63681	0.0231	-0.342
Mof_O 	O 	0.0642	0.6873	0.0704	-0.318
Mof_O 	O 	0.1984	0.51726	0.7637	-0.503
Mof_O 	O 	0.2908	0.47908	0.7624	-0.501
Mof_O 	O 	0.9642	0.7201	0.1512	-0.368
Mof_O 	O 	0.9184	0.6721	0.4262	-0.448
Mof_O 	O 	0.9529	0.7257	0.3803	-0.405
Mof_O 	O 	0.2168	0.5299	0.1309	-0.402
Mof_O 	O 	0.1749	0.5819	0.1753	-0.447
Mof_O 	O 	0.9106	0.6733	0.1013	-0.401
Mof_O 	O 	0.811	0.5616	0.3182	-0.319
Mof_O 	O 	0.753	0.6073	0.2675	-0.369
Mof_S 	S 	0.05499	0.66073	0.0168	0.444
Mof_S 	S 	0.80353	0.58648	0.2632	0.573
Mof_Cu	Cu	0.24192	0.49579	0.69505	0.943
Mof_Cu	Cu	0.92653	0.67376	0.01319	0.902
Mof_Cu	Cu	0.17233	0.57398	0.76391	0.918
Mof_Cu	Cu	0.244	0.49623	0.83346	0.932
Mof_O 	O 	0.8108	0.5654	0.2088	-0.33
Mof_C 	C 	0.1586	0.0729	0.4589	-0.118
Mof_C 	C 	0.1815	0.0593	0.5128	0.063
Mof_H 	H 	0.2072	0.0384	0.5115	0.048
Mof_C 	C 	0.1668	0.0763	0.5701	-0.121
Mof_C 	C 	0.1252	0.1065	0.571	0.054
Mof_H 	H 	0.1103	0.1154	0.608	0.04
Mof_C 	C 	0.1075	0.1223	0.5155	-0.091
Mof_C 	C 	0.1245	0.1078	0.4604	0.054
Mof_H 	H 	0.1139	0.1207	0.4241	0.043
Mof_C 	C 	0.1793	0.0567	0.3998	0.372
Mof_C 	C 	0.1845	0.0597	0.632	0.422
Mof_C 	C 	0.9246	0.1943	0.8817	0.426
Mof_C 	C 	0.9336	0.1888	0.6506	0.349
Mof_C 	C 	0.8761	0.1418	0.7096	0.072
Mof_H 	H 	0.8689	0.1286	0.6725	0.038
Mof_C 	C 	0.9091	0.1747	0.7093	-0.122
Mof_C 	C 	0.9268	0.1913	0.7634	0.065
Mof_H 	H 	0.9508	0.2134	0.763	0.048
Mof_C 	C 	0.9088	0.1748	0.8202	-0.121
Mof_C 	C 	0.867	0.144	0.8197	0.067
Mof_H 	H 	0.8503	0.1361	0.8562	0.037
Mof_C 	C 	0.8518	0.1263	0.7639	-0.119
Mof_O 	O 	0.2067	0.0245	0.4009	-0.383
Mof_O 	O 	0.1562	0.0723	0.3519	-0.407
Mof_O 	O 	0.059	0.1829	0.4588	-0.326
Mof_O 	O 	0.0057	0.13681	0.5231	-0.338
Mof_O 	O 	0.0642	0.1873	0.5704	-0.322
Mof_O 	O 	0.1984	0.01726	0.2637	-0.504
Mof_O 	O 	0.2908	0.97908	0.2624	-0.502
Mof_O 	O 	0.9642	0.2201	0.6512	-0.367
Mof_O 	O 	0.9184	0.1721	0.9262	-0.428
Mof_O 	O 	0.9529	0.2257	0.8803	-0.399
Mof_O 	O 	0.2168	0.0299	0.6309	-0.4
Mof_O 	O 	0.1749	0.0819	0.6753	-0.447
Mof_O 	O 	0.9106	0.1733	0.6013	-0.396
Mof_O 	O 	0.811	0.0616	0.8182	-0.314
Mof_O 	O 	0.753	0.1073	0.7675	-0.366
Mof_S 	S 	0.05499	0.16073	0.5168	0.484
Mof_S 	S 	0.80353	0.08648	0.7632	0.57
Mof_Cu	Cu	0.24192	0.99579	0.19505	0.943
Mof_Cu	Cu	0.92653	0.17376	0.51319	0.913
Mof_Cu	Cu	0.17233	0.07398	0.26391	0.917
Mof_Cu	Cu	0.244	0.99623	0.33346	0.932
Mof_O 	O 	0.8108	0.0654	0.7088	-0.327
_end
