data_functionalizedCrystal
_audit_creation_method	'EQeq! by Chris Wilmer'
_symmetry_space_group_name_H-M	'P1'
_symmetry_Int_Tables_number	1
_symmetry_cell_setting	triclinic
loop_
_symmetry_equiv_pos_as_xyz
  x,y,z
_cell_length_a	10.508
_cell_length_b	10.464
_cell_length_c	6.336
_cell_angle_alpha	90
_cell_angle_beta	115.49
_cell_angle_gamma	90
loop_
_atom_site_label
_atom_site_type_symbol
_atom_site_fract_x
_atom_site_fract_y
_atom_site_fract_z
_atom_site_charge
Mof_C 	C 	0.3151	0.2097	0.5461	-0.064
Mof_H 	H 	0.3964	0.2646	0.5839	0.015
Mof_H 	H 	0.3246	0.1688	0.6896	-0.004
Mof_N 	N 	0.315	0.1116	0.3825	-0.271
Mof_H 	H 	0.3021	0.1496	0.2474	0.061
Mof_H 	H 	0.2411	0.0593	0.3519	0.052
Mof_C 	C 	0.8151	0.7097	0.5461	-0.065
Mof_H 	H 	0.8964	0.7646	0.5839	0.043
Mof_H 	H 	0.8246	0.6688	0.6896	0.021
Mof_N 	N 	0.815	0.6116	0.3825	-0.265
Mof_H 	H 	0.8021	0.6496	0.2474	0.084
Mof_H 	H 	0.7411	0.5593	0.3519	0.082
Mof_C 	C 	0.6849	0.2097	0.9539	0.035
Mof_H 	H 	0.6036	0.2646	0.9161	-0.009
Mof_H 	H 	0.6754	0.1688	0.8104	-0.029
Mof_N 	N 	0.685	0.1116	0.1175	-0.296
Mof_H 	H 	0.6979	0.1496	0.2526	0.076
Mof_H 	H 	0.7589	0.0593	0.1481	0.071
Mof_C 	C 	0.1849	0.7097	0.9539	0.039
Mof_H 	H 	0.1036	0.7646	0.9161	-0.021
Mof_H 	H 	0.1754	0.6688	0.8104	-0.031
Mof_N 	N 	0.185	0.6116	0.1175	-0.299
Mof_H 	H 	0.1979	0.6496	0.2526	0.077
Mof_H 	H 	0.2589	0.5593	0.1481	0.081
Mof_C 	C 	0.6849	0.7903	0.4539	-0.022
Mof_H 	H 	0.6036	0.7354	0.4161	0.006
Mof_H 	H 	0.6754	0.8312	0.3104	0.005
Mof_N 	N 	0.685	0.8884	0.6175	-0.281
Mof_H 	H 	0.6979	0.8504	0.7526	0.1
Mof_H 	H 	0.7589	0.9407	0.6481	0.116
Mof_C 	C 	0.1849	0.2903	0.4539	-0.018
Mof_H 	H 	0.1036	0.2354	0.4161	-0.022
Mof_H 	H 	0.1754	0.3312	0.3104	-0.022
Mof_N 	N 	0.185	0.3884	0.6175	-0.288
Mof_H 	H 	0.1979	0.3504	0.7526	0.076
Mof_H 	H 	0.2589	0.4407	0.6481	0.086
Mof_C 	C 	0.3151	0.7903	0.0461	-0.119
Mof_H 	H 	0.3964	0.7354	0.0839	0.031
Mof_H 	H 	0.3246	0.8312	0.1896	0.027
Mof_N 	N 	0.315	0.8884	0.8825	-0.247
Mof_H 	H 	0.3021	0.8504	0.7474	0.083
Mof_H 	H 	0.2411	0.9407	0.8519	0.096
Mof_C 	C 	0.8151	0.2903	0.0461	-0.122
Mof_H 	H 	0.8964	0.2354	0.0839	0.042
Mof_H 	H 	0.8246	0.3312	0.1896	0.028
Mof_N 	N 	0.815	0.3884	0.8825	-0.246
Mof_H 	H 	0.8021	0.3504	0.7474	0.082
Mof_H 	H 	0.7411	0.4407	0.8519	0.086
Mof_Ag	Ag	0.5	0	0.5	0.307
Mof_Ag	Ag	1.61685e-33	0.5	0.5	0.309
Mof_Ag	Ag	0.5	0	-0	0.261
Mof_Ag	Ag	-5.01768e-33	0.5	-0	0.263
_end
