data_functionalizedCrystal
_audit_creation_method	'EQeq! by Chris Wilmer'
_symmetry_space_group_name_H-M	'P1'
_symmetry_Int_Tables_number	1
_symmetry_cell_setting	triclinic
loop_
_symmetry_equiv_pos_as_xyz
  x,y,z
_cell_length_a	12.5566
_cell_length_b	12.5566
_cell_length_c	25.085
_cell_angle_alpha	90
_cell_angle_beta	90
_cell_angle_gamma	95.0511
loop_
_atom_site_label
_atom_site_type_symbol
_atom_site_fract_x
_atom_site_fract_y
_atom_site_fract_z
_atom_site_charge
Mof_Zn	Zn	0.75	0.75	0.16248	1.242
Mof_Zn	Zn	0.75	0.75	0.66248	1.242
Mof_H 	H 	0.1348	0.624	0.8264	0.012
Mof_H 	H 	0.9999	0.6443	0.7648	0.072
Mof_H 	H 	0.9886	0.9496	0.8093	0.081
Mof_H 	H 	0.1229	0.9237	0.8733	0.028
Mof_H 	H 	0.4148	0.881	0.9732	0.006
Mof_H 	H 	0.5447	0.8557	0.0377	0.065
Mof_H 	H 	0.4502	0.543	0.0413	0.066
Mof_H 	H 	0.3184	0.5712	0.9776	0.019
Mof_H 	H 	0.3652	0.876	0.8264	0.013
Mof_H 	H 	0.5001	0.8557	0.7648	0.073
Mof_H 	H 	0.5114	0.5504	0.8093	0.082
Mof_H 	H 	0.3771	0.5763	0.8733	0.03
Mof_H 	H 	0.0852	0.619	0.9732	0.008
Mof_H 	H 	0.9553	0.6443	0.0377	0.066
Mof_H 	H 	0.0498	0.957	0.0413	0.067
Mof_H 	H 	0.1816	0.9288	0.9776	0.02
Mof_H 	H 	0.624	0.1348	0.3264	0.013
Mof_H 	H 	0.6443	0.9999	0.2648	0.074
Mof_H 	H 	0.9496	0.9886	0.3093	0.082
Mof_H 	H 	0.9237	0.1229	0.3733	0.029
Mof_H 	H 	0.881	0.4148	0.4732	0.007
Mof_H 	H 	0.8557	0.5447	0.5377	0.066
Mof_H 	H 	0.543	0.4502	0.5413	0.067
Mof_H 	H 	0.5712	0.3184	0.4776	0.02
Mof_H 	H 	0.876	0.3652	0.3264	0.013
Mof_H 	H 	0.8557	0.5001	0.2648	0.073
Mof_H 	H 	0.5504	0.5114	0.3093	0.082
Mof_H 	H 	0.5763	0.3771	0.3733	0.03
Mof_H 	H 	0.619	0.0852	0.4732	0.007
Mof_H 	H 	0.6443	0.9553	0.5377	0.066
Mof_H 	H 	0.957	0.0498	0.5413	0.067
Mof_H 	H 	0.9288	0.1816	0.4776	0.02
Mof_Pd	Pd	0.25	0.75	0.91192	0.505
Mof_Pd	Pd	0.75	0.25	0.41192	0.505
Mof_C 	C 	0.0977	0.8669	0.8503	0.048
Mof_C 	C 	0.0176	0.8826	0.8122	-0.065
Mof_C 	C 	0.983	0.7986	0.7791	-0.023
Mof_C 	C 	0.8983	0.8139	0.7376	0.333
Mof_C 	C 	0.0254	0.7036	0.7862	-0.067
Mof_C 	C 	0.1048	0.6906	0.8232	0.053
Mof_C 	C 	0.3664	0.6292	0.9893	0.047
Mof_C 	C 	0.4438	0.6128	0.0278	-0.06
Mof_C 	C 	0.5116	0.6988	0.0464	-0.029
Mof_C 	C 	0.4991	0.7961	0.0257	-0.06
Mof_C 	C 	0.4229	0.8115	0.9866	0.05
Mof_C 	C 	0.5959	0.6817	0.0859	0.314
Mof_C 	C 	0.4023	0.6331	0.8503	0.048
Mof_C 	C 	0.4824	0.6174	0.8122	-0.064
Mof_C 	C 	0.517	0.7014	0.7791	-0.024
Mof_C 	C 	0.6017	0.6861	0.7376	0.333
Mof_C 	C 	0.4746	0.7964	0.7862	-0.067
Mof_C 	C 	0.3952	0.8094	0.8232	0.053
Mof_C 	C 	0.1336	0.8708	0.9893	0.047
Mof_C 	C 	0.0562	0.8872	0.0278	-0.06
Mof_C 	C 	0.9884	0.8012	0.0464	-0.03
Mof_C 	C 	0.0009	0.7039	0.0257	-0.059
Mof_C 	C 	0.0771	0.6885	0.9866	0.049
Mof_C 	C 	0.9041	0.8183	0.0859	0.314
Mof_C 	C 	0.8669	0.0977	0.3503	0.048
Mof_C 	C 	0.8826	0.0176	0.3122	-0.065
Mof_C 	C 	0.7986	0.983	0.2791	-0.023
Mof_C 	C 	0.8139	0.8983	0.2376	0.333
Mof_C 	C 	0.7036	0.0254	0.2862	-0.067
Mof_C 	C 	0.6906	0.1048	0.3232	0.053
Mof_C 	C 	0.6292	0.3664	0.4893	0.048
Mof_C 	C 	0.6128	0.4438	0.5278	-0.061
Mof_C 	C 	0.6988	0.5116	0.5464	-0.029
Mof_C 	C 	0.7961	0.4991	0.5257	-0.06
Mof_C 	C 	0.8115	0.4229	0.4866	0.05
Mof_C 	C 	0.6817	0.5959	0.5859	0.314
Mof_C 	C 	0.6331	0.4023	0.3503	0.048
Mof_C 	C 	0.6174	0.4824	0.3122	-0.064
Mof_C 	C 	0.7014	0.517	0.2791	-0.024
Mof_C 	C 	0.6861	0.6017	0.2376	0.333
Mof_C 	C 	0.7964	0.4746	0.2862	-0.067
Mof_C 	C 	0.8094	0.3952	0.3232	0.053
Mof_C 	C 	0.8708	0.1336	0.4893	0.048
Mof_C 	C 	0.8872	0.0562	0.5278	-0.061
Mof_C 	C 	0.8012	0.9884	0.5464	-0.029
Mof_C 	C 	0.7039	0.0009	0.5257	-0.061
Mof_C 	C 	0.6885	0.0771	0.4866	0.05
Mof_C 	C 	0.8183	0.9041	0.5859	0.313
Mof_N 	N 	0.3594	0.7276	0.9688	-0.173
Mof_N 	N 	0.1391	0.7725	0.8542	-0.172
Mof_N 	N 	0.1406	0.7724	0.9688	-0.173
Mof_N 	N 	0.3609	0.7275	0.8542	-0.172
Mof_N 	N 	0.7276	0.3594	0.4688	-0.173
Mof_N 	N 	0.7725	0.1391	0.3542	-0.172
Mof_N 	N 	0.7724	0.1406	0.4688	-0.173
Mof_N 	N 	0.7275	0.3609	0.3542	-0.172
Mof_O 	O 	0.8767	0.7365	0.7073	-0.43
Mof_O 	O 	0.8585	0.8979	0.7366	-0.292
Mof_O 	O 	0.6263	0.7597	0.1152	-0.42
Mof_O 	O 	0.6346	0.592	0.0877	-0.284
Mof_O 	O 	0.6233	0.7635	0.7073	-0.43
Mof_O 	O 	0.6415	0.6021	0.7366	-0.292
Mof_O 	O 	0.8737	0.7403	0.1152	-0.42
Mof_O 	O 	0.8654	0.908	0.0877	-0.284
Mof_O 	O 	0.7365	0.8767	0.2073	-0.43
Mof_O 	O 	0.8979	0.8585	0.2366	-0.292
Mof_O 	O 	0.7597	0.6263	0.6152	-0.42
Mof_O 	O 	0.592	0.6346	0.5877	-0.284
Mof_O 	O 	0.7635	0.6233	0.2073	-0.43
Mof_O 	O 	0.6021	0.6415	0.2366	-0.292
Mof_O 	O 	0.7403	0.8737	0.6152	-0.42
Mof_O 	O 	0.908	0.8654	0.5877	-0.284
Mof_Zn	Zn	0.25	0.25	0.33752	1.243
Mof_Zn	Zn	0.25	0.25	0.83752	1.243
Mof_H 	H 	0.376	0.8652	0.6736	0.013
Mof_H 	H 	0.3557	0.0001	0.7352	0.074
Mof_H 	H 	0.0504	0.0114	0.6907	0.082
Mof_H 	H 	0.0763	0.8771	0.6267	0.029
Mof_H 	H 	0.119	0.5852	0.5268	0.007
Mof_H 	H 	0.1443	0.4553	0.4623	0.066
Mof_H 	H 	0.457	0.5498	0.4587	0.067
Mof_H 	H 	0.4288	0.6816	0.5224	0.02
Mof_H 	H 	0.124	0.6348	0.6736	0.013
Mof_H 	H 	0.1443	0.4999	0.7352	0.073
Mof_H 	H 	0.4496	0.4886	0.6907	0.082
Mof_H 	H 	0.4237	0.6229	0.6267	0.03
Mof_H 	H 	0.381	0.9148	0.5268	0.007
Mof_H 	H 	0.3557	0.0447	0.4623	0.066
Mof_H 	H 	0.043	0.9502	0.4587	0.067
Mof_H 	H 	0.0712	0.8184	0.5224	0.02
Mof_H 	H 	0.8652	0.376	0.1736	0.013
Mof_H 	H 	0.0001	0.3557	0.2352	0.073
Mof_H 	H 	0.0114	0.0504	0.1907	0.082
Mof_H 	H 	0.8771	0.0763	0.1267	0.029
Mof_H 	H 	0.5852	0.119	0.0268	0.007
Mof_H 	H 	0.4553	0.1443	0.9623	0.066
Mof_H 	H 	0.5498	0.457	0.9587	0.067
Mof_H 	H 	0.6816	0.4288	0.0224	0.02
Mof_H 	H 	0.6348	0.124	0.1736	0.013
Mof_H 	H 	0.4999	0.1443	0.2352	0.073
Mof_H 	H 	0.4886	0.4496	0.1907	0.082
Mof_H 	H 	0.6229	0.4237	0.1267	0.03
Mof_H 	H 	0.9148	0.381	0.0268	0.008
Mof_H 	H 	0.0447	0.3557	0.9623	0.066
Mof_H 	H 	0.9502	0.043	0.9587	0.067
Mof_H 	H 	0.8184	0.0712	0.0224	0.02
Mof_Pd	Pd	0.25	0.75	0.58808	0.505
Mof_Pd	Pd	0.75	0.25	0.08808	0.505
Mof_C 	C 	0.1331	0.9023	0.6497	0.048
Mof_C 	C 	0.1174	0.9824	0.6878	-0.065
Mof_C 	C 	0.2014	0.017	0.7209	-0.023
Mof_C 	C 	0.1861	0.1017	0.7624	0.333
Mof_C 	C 	0.2964	0.9746	0.7138	-0.067
Mof_C 	C 	0.3094	0.8952	0.6768	0.053
Mof_C 	C 	0.3708	0.6336	0.5107	0.048
Mof_C 	C 	0.3872	0.5562	0.4722	-0.061
Mof_C 	C 	0.3012	0.4884	0.4536	-0.029
Mof_C 	C 	0.2039	0.5009	0.4743	-0.06
Mof_C 	C 	0.1885	0.5771	0.5134	0.05
Mof_C 	C 	0.3183	0.4041	0.4141	0.314
Mof_C 	C 	0.3669	0.5977	0.6497	0.048
Mof_C 	C 	0.3826	0.5176	0.6878	-0.064
Mof_C 	C 	0.2986	0.483	0.7209	-0.024
Mof_C 	C 	0.3139	0.3983	0.7624	0.333
Mof_C 	C 	0.2036	0.5254	0.7138	-0.067
Mof_C 	C 	0.1906	0.6048	0.6768	0.053
Mof_C 	C 	0.1292	0.8664	0.5107	0.048
Mof_C 	C 	0.1128	0.9438	0.4722	-0.061
Mof_C 	C 	0.1988	0.0116	0.4536	-0.029
Mof_C 	C 	0.2961	0.9991	0.4743	-0.061
Mof_C 	C 	0.3115	0.9229	0.5134	0.05
Mof_C 	C 	0.1817	0.0959	0.4141	0.313
Mof_C 	C 	0.9023	0.1331	0.1497	0.048
Mof_C 	C 	0.9824	0.1174	0.1878	-0.065
Mof_C 	C 	0.017	0.2014	0.2209	-0.023
Mof_C 	C 	0.1017	0.1861	0.2624	0.333
Mof_C 	C 	0.9746	0.2964	0.2138	-0.067
Mof_C 	C 	0.8952	0.3094	0.1768	0.053
Mof_C 	C 	0.6336	0.3708	0.0107	0.047
Mof_C 	C 	0.5562	0.3872	0.9722	-0.06
Mof_C 	C 	0.4884	0.3012	0.9536	-0.029
Mof_C 	C 	0.5009	0.2039	0.9743	-0.06
Mof_C 	C 	0.5771	0.1885	0.0134	0.05
Mof_C 	C 	0.4041	0.3183	0.9141	0.314
Mof_C 	C 	0.5977	0.3669	0.1497	0.048
Mof_C 	C 	0.5176	0.3826	0.1878	-0.064
Mof_C 	C 	0.483	0.2986	0.2209	-0.024
Mof_C 	C 	0.3983	0.3139	0.2624	0.333
Mof_C 	C 	0.5254	0.2036	0.2138	-0.067
Mof_C 	C 	0.6048	0.1906	0.1768	0.053
Mof_C 	C 	0.8664	0.1292	0.0107	0.047
Mof_C 	C 	0.9438	0.1128	0.9722	-0.06
Mof_C 	C 	0.0116	0.1988	0.9536	-0.03
Mof_C 	C 	0.9991	0.2961	0.9743	-0.059
Mof_C 	C 	0.9229	0.3115	0.0134	0.049
Mof_C 	C 	0.0959	0.1817	0.9141	0.314
Mof_N 	N 	0.2724	0.6406	0.5312	-0.173
Mof_N 	N 	0.2275	0.8609	0.6458	-0.172
Mof_N 	N 	0.2276	0.8594	0.5312	-0.173
Mof_N 	N 	0.2725	0.6391	0.6458	-0.172
Mof_N 	N 	0.6406	0.2724	0.0312	-0.173
Mof_N 	N 	0.8609	0.2275	0.1458	-0.172
Mof_N 	N 	0.8594	0.2276	0.0312	-0.173
Mof_N 	N 	0.6391	0.2725	0.1458	-0.172
Mof_O 	O 	0.2635	0.1233	0.7927	-0.43
Mof_O 	O 	0.1021	0.1415	0.7634	-0.292
Mof_O 	O 	0.2403	0.3737	0.3848	-0.42
Mof_O 	O 	0.408	0.3654	0.4123	-0.284
Mof_O 	O 	0.2365	0.3767	0.7927	-0.43
Mof_O 	O 	0.3979	0.3585	0.7634	-0.292
Mof_O 	O 	0.2597	0.1263	0.3848	-0.42
Mof_O 	O 	0.092	0.1346	0.4123	-0.284
Mof_O 	O 	0.1233	0.2635	0.2927	-0.43
Mof_O 	O 	0.1415	0.1021	0.2634	-0.292
Mof_O 	O 	0.3737	0.2403	0.8848	-0.42
Mof_O 	O 	0.3654	0.408	0.9123	-0.284
Mof_O 	O 	0.3767	0.2365	0.2927	-0.43
Mof_O 	O 	0.3585	0.3979	0.2634	-0.292
Mof_O 	O 	0.1263	0.2597	0.8848	-0.42
Mof_O 	O 	0.1346	0.092	0.9123	-0.284
_end
