data_functionalizedCrystal
_audit_creation_method	'EQeq! by Chris Wilmer'
_symmetry_space_group_name_H-M	'P1'
_symmetry_Int_Tables_number	1
_symmetry_cell_setting	triclinic
loop_
_symmetry_equiv_pos_as_xyz
  x,y,z
_cell_length_a	10.464
_cell_length_b	10.607
_cell_length_c	11.353
_cell_angle_alpha	83.08
_cell_angle_beta	74.54
_cell_angle_gamma	69.67
loop_
_atom_site_label
_atom_site_type_symbol
_atom_site_fract_x
_atom_site_fract_y
_atom_site_fract_z
_atom_site_charge
Mof_Gd	Gd	0.58787	0.59859	0.62986	1.685
Mof_O 	O 	0.3967	0.6189	0.4044	-0.497
Mof_O 	O 	0.4725	0.745	0.4923	-0.473
Mof_O 	O 	0.2769	0.2506	0.4454	-0.451
Mof_O 	O 	0.0466	0.3196	0.4542	-0.429
Mof_O 	O 	0.879	0.0601	0.2576	-0.11
Mof_O 	O 	0.9519	0.8486	0.2736	-0.097
Mof_O 	O 	0.0046	0.4401	0.669	-0.441
Mof_O 	O 	0.7741	0.4945	0.7194	-0.506
Mof_O 	O 	0.532	0.4757	0.1638	-0.362
Mof_O 	O 	0.6595	0.3883	0.2971	-0.384
Mof_O 	O 	0.175	0.2511	0.1563	-0.133
Mof_O 	O 	0.2707	0.2323	0.9652	-0.107
Mof_N 	N 	0.9618	0.9562	0.2831	0.01
Mof_N 	N 	0.1681	0.2624	0.0504	-0.005
Mof_C 	C 	0.282	0.8535	0.4041	-0.117
Mof_C 	C 	0.2801	0.98	0.4311	0.045
Mof_H 	H 	0.3509	0.9861	0.4628	0.046
Mof_C 	C 	0.174	0.0954	0.4107	-0.068
Mof_C 	C 	0.0671	0.0872	0.3634	-0.091
Mof_H 	H 	0.9932	0.1637	0.3522	0.124
Mof_C 	C 	0.0742	0.9622	0.3338	0.063
Mof_C 	C 	0.1783	0.8453	0.3531	-0.019
Mof_H 	H 	0.1793	0.7627	0.3325	0.056
Mof_C 	C 	0.3924	0.7295	0.4349	0.473
Mof_C 	C 	0.1685	0.2319	0.4389	0.405
Mof_C 	C 	0.8962	0.4159	0.8756	-0.054
Mof_C 	C 	0.7734	0.4416	0.9682	0.018
Mof_H 	H 	0.6867	0.4818	0.9493	0.059
Mof_C 	C 	0.7803	0.4071	0.0888	-0.048
Mof_C 	C 	0.91	0.3485	0.1167	-0.012
Mof_H 	H 	0.9158	0.3261	0.1973	0.081
Mof_C 	C 	0.0308	0.3237	0.0227	0.056
Mof_C 	C 	0.0249	0.3564	0.9023	-0.066
Mof_H 	H 	0.1068	0.3384	0.8402	0.096
Mof_C 	C 	0.8893	0.4538	0.7455	0.471
Mof_C 	C 	0.6471	0.4273	0.1887	0.308
Mof_Gd	Gd	0.41213	0.40141	0.37014	1.672
Mof_O 	O 	0.6033	0.3811	0.5956	-0.499
Mof_O 	O 	0.5275	0.255	0.5077	-0.474
Mof_O 	O 	0.7231	0.7494	0.5546	-0.454
Mof_O 	O 	0.9534	0.6804	0.5458	-0.398
Mof_O 	O 	0.121	0.9399	0.7424	-0.122
Mof_O 	O 	0.0481	0.1514	0.7264	-0.12
Mof_O 	O 	0.9954	0.5599	0.331	-0.371
Mof_O 	O 	0.2259	0.5055	0.2806	-0.493
Mof_O 	O 	0.468	0.5243	0.8362	-0.36
Mof_O 	O 	0.3405	0.6117	0.7029	-0.384
Mof_O 	O 	0.825	0.7489	0.8437	-0.118
Mof_O 	O 	0.7293	0.7677	0.0348	-0.106
Mof_N 	N 	0.0382	0.0438	0.7169	-0.009
Mof_N 	N 	0.8319	0.7376	0.9496	-0.011
Mof_C 	C 	0.718	0.1465	0.5959	-0.134
Mof_C 	C 	0.7199	0.02	0.5689	0.079
Mof_H 	H 	0.6491	0.0139	0.5372	0.035
Mof_C 	C 	0.826	0.9046	0.5893	-0.121
Mof_C 	C 	0.9329	0.9128	0.6366	0.06
Mof_H 	H 	0.0068	0.8363	0.6478	0.025
Mof_C 	C 	0.9258	0.0378	0.6662	0.064
Mof_C 	C 	0.8217	0.1547	0.6469	0.003
Mof_H 	H 	0.8207	0.2373	0.6675	0.062
Mof_C 	C 	0.6076	0.2705	0.5651	0.48
Mof_C 	C 	0.8315	0.7681	0.5611	0.424
Mof_C 	C 	0.1038	0.5841	0.1244	-0.106
Mof_C 	C 	0.2266	0.5584	0.0318	0.013
Mof_H 	H 	0.3133	0.5182	0.0507	0.061
Mof_C 	C 	0.2197	0.5929	0.9112	-0.022
Mof_C 	C 	0.09	0.6515	0.8833	-0.113
Mof_H 	H 	0.0842	0.6739	0.8027	0.1
Mof_C 	C 	0.9692	0.6763	0.9773	0.128
Mof_C 	C 	0.9751	0.6436	0.0977	-0.004
Mof_H 	H 	0.8932	0.6616	0.1598	0.081
Mof_C 	C 	0.1107	0.5462	0.2545	0.4
Mof_C 	C 	0.3529	0.5727	0.8113	0.297
Mof_Cu	Cu	2.96502e-17	0.5	0.5	0.909
_end
