data_functionalizedCrystal
_audit_creation_method	'EQeq! by Chris Wilmer'
_symmetry_space_group_name_H-M	'P1'
_symmetry_Int_Tables_number	1
_symmetry_cell_setting	triclinic
loop_
_symmetry_equiv_pos_as_xyz
  x,y,z
_cell_length_a	12.6139
_cell_length_b	15.7005
_cell_length_c	16.6473
_cell_angle_alpha	90
_cell_angle_beta	90
_cell_angle_gamma	90
loop_
_atom_site_label
_atom_site_type_symbol
_atom_site_fract_x
_atom_site_fract_y
_atom_site_fract_z
_atom_site_charge
Mof_Cd	Cd	0.89942	0.00386	0.58115	0.481
Mof_C 	C 	0.90338	0.26358	0.90928	0.002
Mof_C 	C 	0.80388	0.0898	0.86693	-0.067
Mof_H 	H 	0.7742	0.0365	0.8578	0.095
Mof_O 	O 	0.90817	0.13507	0.67619	-0.202
Mof_O 	O 	0.97377	0.37538	0.00314	-0.242
Mof_O 	O 	0.99608	0.40238	0.87339	-0.237
Mof_C 	C 	0.85954	0.13297	0.81125	0.022
Mof_C 	C 	0.96079	0.35424	0.93098	0.271
Mof_C 	C 	0.86754	0.08401	0.72909	0.192
Mof_O 	O 	0.70677	0.14232	0.05872	-0.191
Mof_C 	C 	0.84576	0.22031	0.96408	-0.048
Mof_H 	H 	0.8369	0.2427	0.0154	0.093
Mof_C 	C 	0.90788	0.21918	0.83267	-0.045
Mof_H 	H 	0.9447	0.2466	0.7918	0.088
Mof_C 	C 	0.79502	0.1351	0.94269	0.013
Mof_C 	C 	0.72928	0.08998	0.99974	0.19
Mof_O 	O 	0.83468	0.99731	0.71499	-0.19
Mof_O 	O 	0.69655	0.00315	0.98289	-0.231
Mof_Cd	Cd	0.60058	0.99614	0.08115	0.482
Mof_C 	C 	0.59662	0.73642	0.40928	0.001
Mof_C 	C 	0.69612	0.9102	0.36693	-0.065
Mof_H 	H 	0.7258	0.9635	0.3578	0.096
Mof_O 	O 	0.59183	0.86493	0.17619	-0.202
Mof_O 	O 	0.52623	0.62462	0.50314	-0.244
Mof_O 	O 	0.50392	0.59762	0.37339	-0.237
Mof_C 	C 	0.64046	0.86703	0.31125	0.021
Mof_C 	C 	0.53921	0.64576	0.43098	0.273
Mof_C 	C 	0.63246	0.91599	0.22909	0.192
Mof_O 	O 	0.79323	0.85768	0.55872	-0.193
Mof_C 	C 	0.65424	0.77969	0.46408	-0.043
Mof_H 	H 	0.6631	0.7573	0.5154	0.09
Mof_C 	C 	0.59212	0.78082	0.33267	-0.044
Mof_H 	H 	0.5553	0.7534	0.2918	0.088
Mof_C 	C 	0.70498	0.8649	0.44269	0.012
Mof_C 	C 	0.77072	0.91002	0.49974	0.193
Mof_O 	O 	0.66532	0.00269	0.21499	-0.19
Mof_O 	O 	0.80345	0.99685	0.48289	-0.23
Mof_Cd	Cd	0.10058	0.50386	0.91885	0.484
Mof_C 	C 	0.09662	0.76358	0.59072	0.001
Mof_C 	C 	0.19612	0.5898	0.63307	-0.064
Mof_H 	H 	0.2258	0.5365	0.6422	0.096
Mof_O 	O 	0.09183	0.63507	0.82381	-0.202
Mof_O 	O 	0.02623	0.87538	0.49686	-0.244
Mof_O 	O 	0.00392	0.90238	0.62661	-0.237
Mof_C 	C 	0.14046	0.63297	0.68875	0.021
Mof_C 	C 	0.03921	0.85424	0.56902	0.273
Mof_C 	C 	0.13246	0.58401	0.77091	0.194
Mof_O 	O 	0.29323	0.64232	0.44128	-0.193
Mof_C 	C 	0.15424	0.72031	0.53592	-0.043
Mof_H 	H 	0.1631	0.7427	0.4846	0.09
Mof_C 	C 	0.09212	0.71918	0.66733	-0.044
Mof_H 	H 	0.0553	0.7466	0.7082	0.088
Mof_C 	C 	0.20498	0.6351	0.55731	0.012
Mof_C 	C 	0.27072	0.58998	0.50026	0.193
Mof_O 	O 	0.16532	0.49731	0.78501	-0.192
Mof_O 	O 	0.30345	0.50315	0.51711	-0.231
Mof_Cd	Cd	0.39942	0.49614	0.41885	0.483
Mof_C 	C 	0.40338	0.23642	0.09072	0
Mof_C 	C 	0.30388	0.4102	0.13307	-0.064
Mof_H 	H 	0.2742	0.4635	0.1422	0.096
Mof_O 	O 	0.40817	0.36493	0.32381	-0.202
Mof_O 	O 	0.47377	0.12462	0.99686	-0.246
Mof_O 	O 	0.49608	0.09762	0.12661	-0.237
Mof_C 	C 	0.35954	0.36703	0.18875	0.021
Mof_C 	C 	0.46079	0.14576	0.06902	0.276
Mof_C 	C 	0.36754	0.41599	0.27091	0.194
Mof_O 	O 	0.20677	0.35768	0.94128	-0.193
Mof_C 	C 	0.34576	0.27969	0.03592	-0.04
Mof_H 	H 	0.3369	0.2573	0.9846	0.088
Mof_C 	C 	0.40788	0.28082	0.16733	-0.043
Mof_H 	H 	0.4447	0.2534	0.2082	0.087
Mof_C 	C 	0.29502	0.3649	0.05731	0.011
Mof_C 	C 	0.22928	0.41002	0.00026	0.194
Mof_O 	O 	0.33468	0.50269	0.28501	-0.192
Mof_O 	O 	0.19655	0.49685	0.01711	-0.231
Mof_Cd	Cd	0.10058	0.99614	0.41885	0.482
Mof_C 	C 	0.09662	0.73642	0.09072	0.003
Mof_C 	C 	0.19612	0.9102	0.13307	-0.066
Mof_H 	H 	0.2258	0.9635	0.1422	0.096
Mof_O 	O 	0.09183	0.86493	0.32381	-0.202
Mof_O 	O 	0.02623	0.62462	0.99686	-0.242
Mof_O 	O 	0.00392	0.59762	0.12661	-0.237
Mof_C 	C 	0.14046	0.86703	0.18875	0.022
Mof_C 	C 	0.03921	0.64576	0.06902	0.271
Mof_C 	C 	0.13246	0.91599	0.27091	0.192
Mof_O 	O 	0.29323	0.85768	0.94128	-0.191
Mof_C 	C 	0.15424	0.77969	0.03592	-0.048
Mof_H 	H 	0.1631	0.7573	0.9846	0.093
Mof_C 	C 	0.09212	0.78082	0.16733	-0.045
Mof_H 	H 	0.0553	0.7534	0.2082	0.088
Mof_C 	C 	0.20498	0.8649	0.05731	0.013
Mof_C 	C 	0.27072	0.91002	0.00026	0.19
Mof_O 	O 	0.16532	0.00269	0.28501	-0.19
Mof_O 	O 	0.30345	0.99685	0.01711	-0.231
Mof_Cd	Cd	0.39942	0.00386	0.91885	0.482
Mof_C 	C 	0.40338	0.26358	0.59072	0.001
Mof_C 	C 	0.30388	0.0898	0.63307	-0.065
Mof_H 	H 	0.2742	0.0365	0.6422	0.096
Mof_O 	O 	0.40817	0.13507	0.82381	-0.202
Mof_O 	O 	0.47377	0.37538	0.49686	-0.244
Mof_O 	O 	0.49608	0.40238	0.62661	-0.237
Mof_C 	C 	0.35954	0.13297	0.68875	0.021
Mof_C 	C 	0.46079	0.35424	0.56902	0.273
Mof_C 	C 	0.36754	0.08401	0.77091	0.192
Mof_O 	O 	0.20677	0.14232	0.44128	-0.193
Mof_C 	C 	0.34576	0.22031	0.53592	-0.043
Mof_H 	H 	0.3369	0.2427	0.4846	0.09
Mof_C 	C 	0.40788	0.21918	0.66733	-0.044
Mof_H 	H 	0.4447	0.2466	0.7082	0.088
Mof_C 	C 	0.29502	0.1351	0.55731	0.012
Mof_C 	C 	0.22928	0.08998	0.50026	0.193
Mof_O 	O 	0.33468	0.99731	0.78501	-0.19
Mof_O 	O 	0.19655	0.00315	0.51711	-0.23
Mof_Cd	Cd	0.89942	0.49614	0.08115	0.484
Mof_C 	C 	0.90338	0.23642	0.40928	0.001
Mof_C 	C 	0.80388	0.4102	0.36693	-0.064
Mof_H 	H 	0.7742	0.4635	0.3578	0.096
Mof_O 	O 	0.90817	0.36493	0.17619	-0.202
Mof_O 	O 	0.97377	0.12462	0.50314	-0.244
Mof_O 	O 	0.99608	0.09762	0.37339	-0.237
Mof_C 	C 	0.85954	0.36703	0.31125	0.021
Mof_C 	C 	0.96079	0.14576	0.43098	0.273
Mof_C 	C 	0.86754	0.41599	0.22909	0.194
Mof_O 	O 	0.70677	0.35768	0.55872	-0.193
Mof_C 	C 	0.84576	0.27969	0.46408	-0.043
Mof_H 	H 	0.8369	0.2573	0.5154	0.09
Mof_C 	C 	0.90788	0.28082	0.33267	-0.044
Mof_H 	H 	0.9447	0.2534	0.2918	0.088
Mof_C 	C 	0.79502	0.3649	0.44269	0.012
Mof_C 	C 	0.72928	0.41002	0.49974	0.193
Mof_O 	O 	0.83468	0.50269	0.21499	-0.192
Mof_O 	O 	0.69655	0.49685	0.48289	-0.231
Mof_Cd	Cd	0.60058	0.50386	0.58115	0.483
Mof_C 	C 	0.59662	0.76358	0.90928	0
Mof_C 	C 	0.69612	0.5898	0.86693	-0.064
Mof_H 	H 	0.7258	0.5365	0.8578	0.096
Mof_O 	O 	0.59183	0.63507	0.67619	-0.202
Mof_O 	O 	0.52623	0.87538	0.00314	-0.246
Mof_O 	O 	0.50392	0.90238	0.87339	-0.237
Mof_C 	C 	0.64046	0.63297	0.81125	0.021
Mof_C 	C 	0.53921	0.85424	0.93098	0.276
Mof_C 	C 	0.63246	0.58401	0.72909	0.194
Mof_O 	O 	0.79323	0.64232	0.05872	-0.193
Mof_C 	C 	0.65424	0.72031	0.96408	-0.04
Mof_H 	H 	0.6631	0.7427	0.0154	0.088
Mof_C 	C 	0.59212	0.71918	0.83267	-0.043
Mof_H 	H 	0.5553	0.7466	0.7918	0.087
Mof_C 	C 	0.70498	0.6351	0.94269	0.011
Mof_C 	C 	0.77072	0.58998	0.99974	0.194
Mof_O 	O 	0.66532	0.49731	0.71499	-0.192
Mof_O 	O 	0.80345	0.50315	0.98289	-0.231
_end
