data_functionalizedCrystal
_audit_creation_method	'EQeq! by Chris Wilmer'
_symmetry_space_group_name_H-M	'P1'
_symmetry_Int_Tables_number	1
_symmetry_cell_setting	triclinic
loop_
_symmetry_equiv_pos_as_xyz
  x,y,z
_cell_length_a	16.137
_cell_length_b	7.605
_cell_length_c	16.14
_cell_angle_alpha	90
_cell_angle_beta	119.984
_cell_angle_gamma	90
loop_
_atom_site_label
_atom_site_type_symbol
_atom_site_fract_x
_atom_site_fract_y
_atom_site_fract_z
_atom_site_charge
Mof_Mn	Mn	0.18312	0.3767	0.33396	1.03
Mof_Mn	Mn	0.334	0.8766	0.15101	0.804
Mof_Mn	Mn	0.84923	0.87659	0.18289	0.805
Mof_Mn	Mn	0.66678	0.35722	0.33332	1.034
Mof_C 	C 	0.0145	0.6125	0.289	0.403
Mof_H 	H 	0.9967	0.5782	0.2256	-0.078
Mof_C 	C 	0.2265	0.6319	0.2169	0.437
Mof_H 	H 	0.2883	0.6246	0.2721	-0.097
Mof_C 	C 	0.7397	0.6026	0.2361	0.452
Mof_H 	H 	0.7968	0.595	0.2963	-0.103
Mof_C 	C 	0.3005	0.6058	0.5075	0.416
Mof_H 	H 	0.2423	0.5931	0.5083	-0.091
Mof_C 	C 	0.2742	0.6118	0.9861	0.396
Mof_H 	H 	0.2291	0.5773	0.0043	-0.078
Mof_C 	C 	0.4957	0.6037	0.2604	0.465
Mof_H 	H 	0.4976	0.5941	0.2026	-0.106
Mof_C 	C 	0.0117	0.1315	0.2279	0.405
Mof_H 	H 	0.02	0.1219	0.2903	-0.05
Mof_C 	C 	0.7938	0.1055	0.2988	0.386
Mof_H 	H 	0.7357	0.095	0.2397	-0.046
Mof_C 	C 	0.7829	0.63	0.0105	0.431
Mof_H 	H 	0.7288	0.6181	0.0187	-0.093
Mof_C 	C 	0.5067	0.1057	0.2074	0.382
Mof_H 	H 	0.5069	0.0942	0.2661	-0.044
Mof_C 	C 	0.7654	0.6032	0.5057	0.467
Mof_H 	H 	0.7063	0.5925	0.5048	-0.108
Mof_C 	C 	0.2888	0.1127	0.274	0.396
Mof_H 	H 	0.2253	0.0795	0.228	-0.042
Mof_O 	O 	0.2185	0.724	0.1482	-0.368
Mof_O 	O 	0.082	0.5306	0.3563	-0.348
Mof_O 	O 	0.7398	0.7057	0.1752	-0.38
Mof_O 	O 	0.9684	0.7366	0.2989	-0.361
Mof_O 	O 	0.6718	0.5103	0.2243	-0.373
Mof_O 	O 	0.1614	0.5507	0.2188	-0.371
Mof_O 	O 	0.0704	0.2238	0.2184	-0.324
Mof_O 	O 	0.776	0.5115	0.4478	-0.373
Mof_O 	O 	0.8645	0.0218	0.3073	-0.237
Mof_O 	O 	0.5692	0.2037	0.2069	-0.31
Mof_O 	O 	0.3562	0.0308	0.2746	-0.248
Mof_O 	O 	0.3072	0.5224	0.4432	-0.343
Mof_O 	O 	0.852	0.724	0.0702	-0.362
Mof_O 	O 	0.3307	0.7368	0.0312	-0.356
Mof_O 	O 	0.2746	0.5309	0.9185	-0.345
Mof_O 	O 	0.7928	0.2029	0.3619	-0.31
Mof_O 	O 	0.4434	0.0211	0.1362	-0.232
Mof_O 	O 	0.5527	0.5121	0.3281	-0.377
Mof_O 	O 	0.9426	0.0502	0.1616	-0.255
Mof_O 	O 	0.7813	0.5531	0.9423	-0.368
Mof_O 	O 	0.362	0.7021	0.5692	-0.365
Mof_O 	O 	0.8245	0.7065	0.5642	-0.392
Mof_O 	O 	0.436	0.7075	0.2603	-0.389
Mof_O 	O 	0.2994	0.2367	0.3305	-0.319
Mof_Mn	Mn	0.81688	0.8767	0.66604	0.808
Mof_Mn	Mn	0.666	0.3766	0.84899	1.027
Mof_Mn	Mn	0.15077	0.37659	0.81711	1.026
Mof_Mn	Mn	0.33322	0.85722	0.66668	0.808
Mof_C 	C 	0.9855	0.1125	0.711	0.416
Mof_H 	H 	0.0033	0.0782	0.7744	-0.053
Mof_C 	C 	0.7735	0.1319	0.7831	0.421
Mof_H 	H 	0.7117	0.1246	0.7279	-0.053
Mof_C 	C 	0.2603	0.1026	0.7639	0.432
Mof_H 	H 	0.2032	0.095	0.7037	-0.059
Mof_C 	C 	0.6995	0.1058	0.4925	0.402
Mof_H 	H 	0.7577	0.0931	0.4917	-0.05
Mof_C 	C 	0.7258	0.1118	0.0139	0.408
Mof_H 	H 	0.7709	0.0773	0.9957	-0.05
Mof_C 	C 	0.5043	0.1037	0.7396	0.444
Mof_H 	H 	0.5024	0.0941	0.7974	-0.062
Mof_C 	C 	0.9883	0.6315	0.7721	0.434
Mof_H 	H 	0.98	0.6219	0.7097	-0.093
Mof_C 	C 	0.2062	0.6055	0.7012	0.4
Mof_H 	H 	0.2643	0.595	0.7603	-0.087
Mof_C 	C 	0.2171	0.13	0.9895	0.4
Mof_H 	H 	0.2712	0.1181	0.9813	-0.048
Mof_C 	C 	0.4933	0.6057	0.7926	0.395
Mof_H 	H 	0.4931	0.5942	0.7339	-0.084
Mof_C 	C 	0.2346	0.1032	0.4943	0.447
Mof_H 	H 	0.2937	0.0925	0.4952	-0.062
Mof_C 	C 	0.7112	0.6127	0.726	0.418
Mof_H 	H 	0.7747	0.5795	0.772	-0.087
Mof_O 	O 	0.7815	0.224	0.8518	-0.325
Mof_O 	O 	0.918	0.0306	0.6437	-0.253
Mof_O 	O 	0.2602	0.2057	0.8248	-0.339
Mof_O 	O 	0.0316	0.2366	0.7011	-0.329
Mof_O 	O 	0.3282	0.0103	0.7757	-0.266
Mof_O 	O 	0.8386	0.0507	0.7812	-0.267
Mof_O 	O 	0.9296	0.7238	0.7816	-0.369
Mof_O 	O 	0.224	0.0115	0.5522	-0.266
Mof_O 	O 	0.1355	0.5218	0.6927	-0.342
Mof_O 	O 	0.4308	0.7037	0.7931	-0.354
Mof_O 	O 	0.6438	0.5308	0.7254	-0.351
Mof_O 	O 	0.6928	0.0224	0.5568	-0.239
Mof_O 	O 	0.148	0.224	0.9298	-0.319
Mof_O 	O 	0.6693	0.2368	0.9688	-0.324
Mof_O 	O 	0.7254	0.0309	0.0815	-0.249
Mof_O 	O 	0.2072	0.7029	0.6381	-0.354
Mof_O 	O 	0.5566	0.5211	0.8638	-0.338
Mof_O 	O 	0.4473	0.0121	0.6719	-0.268
Mof_O 	O 	0.0574	0.5502	0.8384	-0.368
Mof_O 	O 	0.2187	0.0531	0.0577	-0.258
Mof_O 	O 	0.638	0.2021	0.4308	-0.322
Mof_O 	O 	0.1755	0.2065	0.4358	-0.351
Mof_O 	O 	0.564	0.2075	0.7397	-0.347
Mof_O 	O 	0.7006	0.7367	0.6695	-0.367
_end
