data_functionalizedCrystal
_audit_creation_method	'EQeq! by Chris Wilmer'
_symmetry_space_group_name_H-M	'P1'
_symmetry_Int_Tables_number	1
_symmetry_cell_setting	triclinic
loop_
_symmetry_equiv_pos_as_xyz
  x,y,z
_cell_length_a	18.378
_cell_length_b	11.4146
_cell_length_c	18.8736
_cell_angle_alpha	90
_cell_angle_beta	108.426
_cell_angle_gamma	90
loop_
_atom_site_label
_atom_site_type_symbol
_atom_site_fract_x
_atom_site_fract_y
_atom_site_fract_z
_atom_site_charge
Mof_Dy	Dy	0.0009	0.93449	0.39795	2.018
Mof_O 	O 	0.9233	0.1004	0.3882	-0.508
Mof_O 	O 	0.9034	0.8114	0.4182	-0.481
Mof_O 	O 	0.5873	0.4764	0.3358	-0.534
Mof_O 	O 	0.921	0.9285	0.5141	-0.548
Mof_O 	O 	0.9245	0.1734	0.4981	-0.541
Mof_O 	O 	0.5891	0.4288	0.2219	-0.513
Mof_N 	N 	0.833	0.2088	0.2613	-0.107
Mof_C 	C 	0.8976	0.1671	0.4279	0.496
Mof_C 	C 	0.8306	0.2446	0.3902	-0.175
Mof_C 	C 	0.8007	0.2556	0.3109	0.138
Mof_C 	C 	0.7325	0.3188	0.2809	-0.071
Mof_H 	H 	0.7117	0.3273	0.2283	0.076
Mof_C 	C 	0.7934	0.3	0.4344	0.032
Mof_H 	H 	0.8146	0.2953	0.4872	0.019
Mof_C 	C 	0.7267	0.3616	0.4034	-0.031
Mof_H 	H 	0.7023	0.399	0.4348	0.027
Mof_C 	C 	0.8843	0.8483	0.473	0.449
Mof_C 	C 	0.815	0.7954	0.4869	-0.134
Mof_C 	C 	0.7756	0.7011	0.4434	0.116
Mof_C 	C 	0.79	0.8412	0.5434	-0.045
Mof_H 	H 	0.8183	0.9028	0.5736	0.063
Mof_C 	C 	0.6188	0.4291	0.2918	0.458
Mof_C 	C 	0.6948	0.3692	0.3261	-0.1
Mof_N 	N 	0.797	0.6477	0.3885	-0.104
Mof_Dy	Dy	0.5009	0.43449	0.39795	2.011
Mof_O 	O 	0.4233	0.6004	0.3882	-0.507
Mof_O 	O 	0.4034	0.3114	0.4182	-0.479
Mof_O 	O 	0.0873	0.9764	0.3358	-0.533
Mof_O 	O 	0.421	0.4285	0.5141	-0.546
Mof_O 	O 	0.4245	0.6734	0.4981	-0.539
Mof_O 	O 	0.0891	0.9288	0.2219	-0.509
Mof_N 	N 	0.333	0.7088	0.2613	-0.107
Mof_C 	C 	0.3976	0.6671	0.4279	0.496
Mof_C 	C 	0.3306	0.7446	0.3902	-0.175
Mof_C 	C 	0.3007	0.7556	0.3109	0.138
Mof_C 	C 	0.2325	0.8188	0.2809	-0.071
Mof_H 	H 	0.2117	0.8273	0.2283	0.076
Mof_C 	C 	0.2934	0.8	0.4344	0.032
Mof_H 	H 	0.3146	0.7953	0.4872	0.018
Mof_C 	C 	0.2267	0.8616	0.4034	-0.032
Mof_H 	H 	0.2023	0.899	0.4348	0.027
Mof_C 	C 	0.3843	0.3483	0.473	0.448
Mof_C 	C 	0.315	0.2954	0.4869	-0.134
Mof_C 	C 	0.2756	0.2011	0.4434	0.116
Mof_C 	C 	0.29	0.3412	0.5434	-0.045
Mof_H 	H 	0.3183	0.4028	0.5736	0.062
Mof_C 	C 	0.1188	0.9291	0.2918	0.457
Mof_C 	C 	0.1948	0.8692	0.3261	-0.1
Mof_N 	N 	0.297	0.1477	0.3885	-0.104
Mof_Dy	Dy	0.9991	0.93449	0.10205	1.992
Mof_O 	O 	0.0767	0.1004	0.1118	-0.5
Mof_O 	O 	0.0966	0.8114	0.0818	-0.476
Mof_O 	O 	0.4127	0.4764	0.1642	-0.533
Mof_O 	O 	0.079	0.9285	0.9859	-0.542
Mof_O 	O 	0.0755	0.1734	0.0019	-0.532
Mof_O 	O 	0.4109	0.4288	0.2781	-0.512
Mof_N 	N 	0.167	0.2088	0.2387	-0.105
Mof_C 	C 	0.1024	0.1671	0.0721	0.493
Mof_C 	C 	0.1694	0.2446	0.1098	-0.172
Mof_C 	C 	0.1993	0.2556	0.1891	0.138
Mof_C 	C 	0.2675	0.3188	0.2191	-0.07
Mof_H 	H 	0.2883	0.3273	0.2717	0.076
Mof_C 	C 	0.2066	0.3	0.0656	0.031
Mof_H 	H 	0.1854	0.2953	0.0128	0.021
Mof_C 	C 	0.2733	0.3616	0.0966	-0.03
Mof_H 	H 	0.2977	0.399	0.0652	0.027
Mof_C 	C 	0.1157	0.8483	0.027	0.446
Mof_C 	C 	0.185	0.7954	0.0131	-0.134
Mof_C 	C 	0.2244	0.7011	0.0566	0.116
Mof_C 	C 	0.21	0.8412	0.9566	-0.046
Mof_H 	H 	0.1817	0.9028	0.9264	0.064
Mof_C 	C 	0.3812	0.4291	0.2082	0.459
Mof_C 	C 	0.3052	0.3692	0.1739	-0.101
Mof_N 	N 	0.203	0.6477	0.1115	-0.104
Mof_Dy	Dy	0.4991	0.43449	0.10205	2.013
Mof_O 	O 	0.5767	0.6004	0.1118	-0.508
Mof_O 	O 	0.5966	0.3114	0.0818	-0.479
Mof_O 	O 	0.9127	0.9764	0.1642	-0.533
Mof_O 	O 	0.579	0.4285	0.9859	-0.546
Mof_O 	O 	0.5755	0.6734	0.0019	-0.541
Mof_O 	O 	0.9109	0.9288	0.2781	-0.513
Mof_N 	N 	0.667	0.7088	0.2387	-0.107
Mof_C 	C 	0.6024	0.6671	0.0721	0.496
Mof_C 	C 	0.6694	0.7446	0.1098	-0.176
Mof_C 	C 	0.6993	0.7556	0.1891	0.138
Mof_C 	C 	0.7675	0.8188	0.2191	-0.071
Mof_H 	H 	0.7883	0.8273	0.2717	0.076
Mof_C 	C 	0.7066	0.8	0.0656	0.031
Mof_H 	H 	0.6854	0.7953	0.0128	0.017
Mof_C 	C 	0.7733	0.8616	0.0966	-0.032
Mof_H 	H 	0.7977	0.899	0.0652	0.025
Mof_C 	C 	0.6157	0.3483	0.027	0.448
Mof_C 	C 	0.685	0.2954	0.0131	-0.134
Mof_C 	C 	0.7244	0.2011	0.0566	0.117
Mof_C 	C 	0.71	0.3412	0.9566	-0.046
Mof_H 	H 	0.6817	0.4028	0.9264	0.062
Mof_C 	C 	0.8812	0.9291	0.2082	0.458
Mof_C 	C 	0.8052	0.8692	0.1739	-0.101
Mof_N 	N 	0.703	0.1477	0.1115	-0.104
Mof_Dy	Dy	0.9991	0.06551	0.60205	2.019
Mof_O 	O 	0.0767	0.8996	0.6118	-0.507
Mof_O 	O 	0.0966	0.1886	0.5818	-0.48
Mof_O 	O 	0.4127	0.5236	0.6642	-0.533
Mof_O 	O 	0.079	0.0715	0.4859	-0.547
Mof_O 	O 	0.0755	0.8266	0.5019	-0.54
Mof_O 	O 	0.4109	0.5712	0.7781	-0.512
Mof_N 	N 	0.167	0.7912	0.7387	-0.106
Mof_C 	C 	0.1024	0.8329	0.5721	0.496
Mof_C 	C 	0.1694	0.7554	0.6098	-0.175
Mof_C 	C 	0.1993	0.7444	0.6891	0.138
Mof_C 	C 	0.2675	0.6812	0.7191	-0.071
Mof_H 	H 	0.2883	0.6727	0.7717	0.076
Mof_C 	C 	0.2066	0.7	0.5656	0.032
Mof_H 	H 	0.1854	0.7047	0.5128	0.019
Mof_C 	C 	0.2733	0.6384	0.5966	-0.031
Mof_H 	H 	0.2977	0.601	0.5652	0.027
Mof_C 	C 	0.1157	0.1517	0.527	0.449
Mof_C 	C 	0.185	0.2046	0.5131	-0.134
Mof_C 	C 	0.2244	0.2989	0.5566	0.116
Mof_C 	C 	0.21	0.1588	0.4566	-0.045
Mof_H 	H 	0.1817	0.0972	0.4264	0.063
Mof_C 	C 	0.3812	0.5709	0.7082	0.458
Mof_C 	C 	0.3052	0.6308	0.6739	-0.1
Mof_N 	N 	0.203	0.3523	0.6115	-0.104
Mof_Dy	Dy	0.4991	0.56551	0.60205	2.011
Mof_O 	O 	0.5767	0.3996	0.6118	-0.507
Mof_O 	O 	0.5966	0.6886	0.5818	-0.479
Mof_O 	O 	0.9127	0.0236	0.6642	-0.533
Mof_O 	O 	0.579	0.5715	0.4859	-0.546
Mof_O 	O 	0.5755	0.3266	0.5019	-0.539
Mof_O 	O 	0.9109	0.0712	0.7781	-0.509
Mof_N 	N 	0.667	0.2912	0.7387	-0.107
Mof_C 	C 	0.6024	0.3329	0.5721	0.496
Mof_C 	C 	0.6694	0.2554	0.6098	-0.175
Mof_C 	C 	0.6993	0.2444	0.6891	0.138
Mof_C 	C 	0.7675	0.1812	0.7191	-0.071
Mof_H 	H 	0.7883	0.1727	0.7717	0.076
Mof_C 	C 	0.7066	0.2	0.5656	0.032
Mof_H 	H 	0.6854	0.2047	0.5128	0.018
Mof_C 	C 	0.7733	0.1384	0.5966	-0.032
Mof_H 	H 	0.7977	0.101	0.5652	0.027
Mof_C 	C 	0.6157	0.6517	0.527	0.448
Mof_C 	C 	0.685	0.7046	0.5131	-0.134
Mof_C 	C 	0.7244	0.7989	0.5566	0.116
Mof_C 	C 	0.71	0.6588	0.4566	-0.045
Mof_H 	H 	0.6817	0.5972	0.4264	0.062
Mof_C 	C 	0.8812	0.0709	0.7082	0.457
Mof_C 	C 	0.8052	0.1308	0.6739	-0.1
Mof_N 	N 	0.703	0.8523	0.6115	-0.104
Mof_Dy	Dy	0.0009	0.06551	0.89795	1.992
Mof_O 	O 	0.9233	0.8996	0.8882	-0.5
Mof_O 	O 	0.9034	0.1886	0.9182	-0.476
Mof_O 	O 	0.5873	0.5236	0.8358	-0.533
Mof_O 	O 	0.921	0.0715	0.0141	-0.542
Mof_O 	O 	0.9245	0.8266	0.9981	-0.532
Mof_O 	O 	0.5891	0.5712	0.7219	-0.512
Mof_N 	N 	0.833	0.7912	0.7613	-0.105
Mof_C 	C 	0.8976	0.8329	0.9279	0.493
Mof_C 	C 	0.8306	0.7554	0.8902	-0.172
Mof_C 	C 	0.8007	0.7444	0.8109	0.138
Mof_C 	C 	0.7325	0.6812	0.7809	-0.07
Mof_H 	H 	0.7117	0.6727	0.7283	0.076
Mof_C 	C 	0.7934	0.7	0.9344	0.031
Mof_H 	H 	0.8146	0.7047	0.9872	0.021
Mof_C 	C 	0.7267	0.6384	0.9034	-0.03
Mof_H 	H 	0.7023	0.601	0.9348	0.027
Mof_C 	C 	0.8843	0.1517	0.973	0.446
Mof_C 	C 	0.815	0.2046	0.9869	-0.134
Mof_C 	C 	0.7756	0.2989	0.9434	0.116
Mof_C 	C 	0.79	0.1588	0.0434	-0.046
Mof_H 	H 	0.8183	0.0972	0.0736	0.064
Mof_C 	C 	0.6188	0.5709	0.7918	0.459
Mof_C 	C 	0.6948	0.6308	0.8261	-0.101
Mof_N 	N 	0.797	0.3523	0.8885	-0.104
Mof_Dy	Dy	0.5009	0.56551	0.89795	2.013
Mof_O 	O 	0.4233	0.3996	0.8882	-0.508
Mof_O 	O 	0.4034	0.6886	0.9182	-0.479
Mof_O 	O 	0.0873	0.0236	0.8358	-0.533
Mof_O 	O 	0.421	0.5715	0.0141	-0.546
Mof_O 	O 	0.4245	0.3266	0.9981	-0.541
Mof_O 	O 	0.0891	0.0712	0.7219	-0.513
Mof_N 	N 	0.333	0.2912	0.7613	-0.107
Mof_C 	C 	0.3976	0.3329	0.9279	0.496
Mof_C 	C 	0.3306	0.2554	0.8902	-0.176
Mof_C 	C 	0.3007	0.2444	0.8109	0.138
Mof_C 	C 	0.2325	0.1812	0.7809	-0.071
Mof_H 	H 	0.2117	0.1727	0.7283	0.076
Mof_C 	C 	0.2934	0.2	0.9344	0.031
Mof_H 	H 	0.3146	0.2047	0.9872	0.017
Mof_C 	C 	0.2267	0.1384	0.9034	-0.032
Mof_H 	H 	0.2023	0.101	0.9348	0.025
Mof_C 	C 	0.3843	0.6517	0.973	0.448
Mof_C 	C 	0.315	0.7046	0.9869	-0.134
Mof_C 	C 	0.2756	0.7989	0.9434	0.117
Mof_C 	C 	0.29	0.6588	0.0434	-0.046
Mof_H 	H 	0.3183	0.5972	0.0736	0.062
Mof_C 	C 	0.1188	0.0709	0.7918	0.458
Mof_C 	C 	0.1948	0.1308	0.8261	-0.101
Mof_N 	N 	0.297	0.8523	0.8885	-0.104
_end
