data_functionalizedCrystal
_audit_creation_method	'EQeq! by Chris Wilmer'
_symmetry_space_group_name_H-M	'P1'
_symmetry_Int_Tables_number	1
_symmetry_cell_setting	triclinic
loop_
_symmetry_equiv_pos_as_xyz
  x,y,z
_cell_length_a	13.4003
_cell_length_b	13.4003
_cell_length_c	24.3669
_cell_angle_alpha	90
_cell_angle_beta	90
_cell_angle_gamma	90
loop_
_atom_site_label
_atom_site_type_symbol
_atom_site_fract_x
_atom_site_fract_y
_atom_site_fract_z
_atom_site_charge
Mof_Cd	Cd	0.88472	0.42743	0.15551	0.475
Mof_O 	O 	0.7253	0.4221	0.2031	-0.297
Mof_O 	O 	0.8655	0.4042	0.25	-0.296
Mof_O 	O 	0.6925	0.0808	0.3854	-0.293
Mof_O 	O 	0.5584	0.0869	0.3324	-0.327
Mof_O 	O 	0.8439	0.2732	0.1238	-0.297
Mof_O 	O 	0.9206	0.3684	0.0657	-0.269
Mof_C 	C 	0.7155	0.3762	0.2975	-0.176
Mof_C 	C 	0.669	0.274	0.2935	0.729
Mof_C 	C 	0.6388	0.2446	0.3508	-0.466
Mof_H 	H 	0.5724	0.2724	0.358	0.172
Mof_C 	C 	0.7113	0.2935	0.3892	0.113
Mof_H 	H 	0.7539	0.2448	0.407	0.013
Mof_H 	H 	0.6771	0.3326	0.417	-0.002
Mof_C 	C 	0.7705	0.36	0.3501	-0.165
Mof_H 	H 	0.783	0.4239	0.3675	0.089
Mof_H 	H 	0.8344	0.3291	0.3424	0.08
Mof_C 	C 	0.6252	0.4419	0.3005	-0.316
Mof_H 	H 	0.6457	0.5104	0.3028	0.118
Mof_H 	H 	0.5868	0.4249	0.3325	0.108
Mof_H 	H 	0.5851	0.4323	0.2683	0.104
Mof_C 	C 	0.5806	0.259	0.2561	-1.208
Mof_H 	H 	0.6014	0.2664	0.2186	0.395
Mof_H 	H 	0.5304	0.308	0.2644	0.376
Mof_H 	H 	0.5538	0.1934	0.2615	0.408
Mof_C 	C 	0.7333	0.1967	0.2674	-1.238
Mof_H 	H 	0.7527	0.2187	0.2314	0.399
Mof_H 	H 	0.6968	0.1353	0.2645	0.41
Mof_H 	H 	0.7917	0.1863	0.2894	0.402
Mof_C 	C 	0.7695	0.4038	0.2465	0.3
Mof_C 	C 	0.6338	0.1305	0.36	0.392
Mof_C 	C 	0.8893	0.1975	0.0356	-0.076
Mof_C 	C 	0.894	0.0948	0.0626	-0.005
Mof_C 	C 	0.8871	0.2891	0.0781	0.31
Mof_C 	C 	0.7825	0.1774	0.0158	0.026
Mof_C 	C 	0.9552	0.219	0.9856	0.017
Mof_C 	C 	0.725	0.114	0.057	-0.009
Mof_Cd	Cd	0.11528	0.57257	0.15551	0.476
Mof_O 	O 	0.2747	0.5779	0.2031	-0.296
Mof_O 	O 	0.1345	0.5958	0.25	-0.296
Mof_O 	O 	0.3075	0.9192	0.3854	-0.293
Mof_O 	O 	0.4416	0.9131	0.3324	-0.327
Mof_O 	O 	0.1561	0.7268	0.1238	-0.297
Mof_O 	O 	0.0794	0.6316	0.0657	-0.269
Mof_C 	C 	0.2845	0.6238	0.2975	-0.176
Mof_C 	C 	0.331	0.726	0.2935	0.729
Mof_C 	C 	0.3612	0.7554	0.3508	-0.466
Mof_H 	H 	0.4276	0.7276	0.358	0.172
Mof_C 	C 	0.2887	0.7065	0.3892	0.113
Mof_H 	H 	0.2461	0.7552	0.407	0.013
Mof_H 	H 	0.3229	0.6674	0.417	-0.002
Mof_C 	C 	0.2295	0.64	0.3501	-0.165
Mof_H 	H 	0.217	0.5761	0.3675	0.089
Mof_H 	H 	0.1656	0.6709	0.3424	0.08
Mof_C 	C 	0.3748	0.5581	0.3005	-0.316
Mof_H 	H 	0.3543	0.4896	0.3028	0.118
Mof_H 	H 	0.4132	0.5751	0.3325	0.108
Mof_H 	H 	0.4149	0.5677	0.2683	0.104
Mof_C 	C 	0.4194	0.741	0.2561	-1.208
Mof_H 	H 	0.3986	0.7336	0.2186	0.395
Mof_H 	H 	0.4696	0.692	0.2644	0.376
Mof_H 	H 	0.4462	0.8066	0.2615	0.408
Mof_C 	C 	0.2667	0.8033	0.2674	-1.238
Mof_H 	H 	0.2473	0.7813	0.2314	0.399
Mof_H 	H 	0.3032	0.8647	0.2645	0.41
Mof_H 	H 	0.2083	0.8137	0.2894	0.402
Mof_C 	C 	0.2305	0.5962	0.2465	0.3
Mof_C 	C 	0.3662	0.8695	0.36	0.392
Mof_C 	C 	0.1107	0.8025	0.0356	-0.076
Mof_C 	C 	0.106	0.9052	0.0626	-0.005
Mof_C 	C 	0.1129	0.7109	0.0781	0.31
Mof_C 	C 	0.2175	0.8226	0.0158	0.026
Mof_C 	C 	0.0448	0.781	0.9856	0.017
Mof_C 	C 	0.275	0.886	0.057	-0.009
Mof_Cd	Cd	0.07257	0.38472	0.65551	0.476
Mof_O 	O 	0.0779	0.2253	0.7031	-0.296
Mof_O 	O 	0.0958	0.3655	0.75	-0.296
Mof_O 	O 	0.4192	0.1925	0.8854	-0.293
Mof_O 	O 	0.4131	0.0584	0.8324	-0.327
Mof_O 	O 	0.2268	0.3439	0.6238	-0.297
Mof_O 	O 	0.1316	0.4206	0.5657	-0.268
Mof_C 	C 	0.1238	0.2155	0.7975	-0.177
Mof_C 	C 	0.226	0.169	0.7935	0.73
Mof_C 	C 	0.2554	0.1388	0.8508	-0.466
Mof_H 	H 	0.2276	0.0724	0.858	0.172
Mof_C 	C 	0.2065	0.2113	0.8892	0.113
Mof_H 	H 	0.2552	0.2539	0.907	0.013
Mof_H 	H 	0.1674	0.1771	0.917	-0.002
Mof_C 	C 	0.14	0.2705	0.8501	-0.164
Mof_H 	H 	0.0761	0.283	0.8675	0.089
Mof_H 	H 	0.1709	0.3344	0.8424	0.08
Mof_C 	C 	0.0581	0.1252	0.8005	-0.314
Mof_H 	H 	0.9896	0.1457	0.8028	0.117
Mof_H 	H 	0.0751	0.0868	0.8325	0.108
Mof_H 	H 	0.0677	0.0851	0.7683	0.104
Mof_C 	C 	0.241	0.0806	0.7561	-1.208
Mof_H 	H 	0.2336	0.1014	0.7186	0.395
Mof_H 	H 	0.192	0.0304	0.7644	0.376
Mof_H 	H 	0.3066	0.0538	0.7615	0.408
Mof_C 	C 	0.3033	0.2333	0.7674	-1.239
Mof_H 	H 	0.2813	0.2527	0.7314	0.399
Mof_H 	H 	0.3647	0.1968	0.7645	0.41
Mof_H 	H 	0.3137	0.2917	0.7894	0.402
Mof_C 	C 	0.0962	0.2695	0.7465	0.3
Mof_C 	C 	0.3695	0.1338	0.86	0.392
Mof_C 	C 	0.3025	0.3893	0.5356	-0.076
Mof_C 	C 	0.4052	0.394	0.5626	-0.005
Mof_C 	C 	0.2109	0.3871	0.5781	0.31
Mof_C 	C 	0.3226	0.2825	0.5158	0.026
Mof_C 	C 	0.281	0.4552	0.4856	0.017
Mof_C 	C 	0.386	0.225	0.557	-0.009
Mof_Cd	Cd	0.92743	0.61528	0.65551	0.476
Mof_O 	O 	0.9221	0.7747	0.7031	-0.296
Mof_O 	O 	0.9042	0.6345	0.75	-0.296
Mof_O 	O 	0.5808	0.8075	0.8854	-0.293
Mof_O 	O 	0.5869	0.9416	0.8324	-0.327
Mof_O 	O 	0.7732	0.6561	0.6238	-0.297
Mof_O 	O 	0.8684	0.5794	0.5657	-0.268
Mof_C 	C 	0.8762	0.7845	0.7975	-0.177
Mof_C 	C 	0.774	0.831	0.7935	0.73
Mof_C 	C 	0.7446	0.8612	0.8508	-0.466
Mof_H 	H 	0.7724	0.9276	0.858	0.172
Mof_C 	C 	0.7935	0.7887	0.8892	0.113
Mof_H 	H 	0.7448	0.7461	0.907	0.013
Mof_H 	H 	0.8326	0.8229	0.917	-0.002
Mof_C 	C 	0.86	0.7295	0.8501	-0.164
Mof_H 	H 	0.9239	0.717	0.8675	0.089
Mof_H 	H 	0.8291	0.6656	0.8424	0.08
Mof_C 	C 	0.9419	0.8748	0.8005	-0.314
Mof_H 	H 	0.0104	0.8543	0.8028	0.117
Mof_H 	H 	0.9249	0.9132	0.8325	0.108
Mof_H 	H 	0.9323	0.9149	0.7683	0.104
Mof_C 	C 	0.759	0.9194	0.7561	-1.208
Mof_H 	H 	0.7664	0.8986	0.7186	0.395
Mof_H 	H 	0.808	0.9696	0.7644	0.376
Mof_H 	H 	0.6934	0.9462	0.7615	0.408
Mof_C 	C 	0.6967	0.7667	0.7674	-1.239
Mof_H 	H 	0.7187	0.7473	0.7314	0.399
Mof_H 	H 	0.6353	0.8032	0.7645	0.41
Mof_H 	H 	0.6863	0.7083	0.7894	0.402
Mof_C 	C 	0.9038	0.7305	0.7465	0.3
Mof_C 	C 	0.6305	0.8662	0.86	0.392
Mof_C 	C 	0.6975	0.6107	0.5356	-0.076
Mof_C 	C 	0.5948	0.606	0.5626	-0.005
Mof_C 	C 	0.7891	0.6129	0.5781	0.31
Mof_C 	C 	0.6774	0.7175	0.5158	0.026
Mof_C 	C 	0.719	0.5448	0.4856	0.017
Mof_C 	C 	0.614	0.775	0.557	-0.009
Mof_Cd	Cd	0.61528	0.92743	0.34449	0.476
Mof_O 	O 	0.7747	0.9221	0.2969	-0.296
Mof_O 	O 	0.6345	0.9042	0.25	-0.296
Mof_O 	O 	0.8075	0.5808	0.1146	-0.293
Mof_O 	O 	0.9416	0.5869	0.1676	-0.327
Mof_O 	O 	0.6561	0.7732	0.3762	-0.297
Mof_O 	O 	0.5794	0.8684	0.4343	-0.268
Mof_C 	C 	0.7845	0.8762	0.2025	-0.177
Mof_C 	C 	0.831	0.774	0.2065	0.73
Mof_C 	C 	0.8612	0.7446	0.1492	-0.466
Mof_H 	H 	0.9276	0.7724	0.142	0.172
Mof_C 	C 	0.7887	0.7935	0.1108	0.113
Mof_H 	H 	0.7461	0.7448	0.093	0.013
Mof_H 	H 	0.8229	0.8326	0.083	-0.002
Mof_C 	C 	0.7295	0.86	0.1499	-0.164
Mof_H 	H 	0.717	0.9239	0.1325	0.089
Mof_H 	H 	0.6656	0.8291	0.1576	0.08
Mof_C 	C 	0.8748	0.9419	0.1995	-0.314
Mof_H 	H 	0.8543	0.0104	0.1972	0.117
Mof_H 	H 	0.9132	0.9249	0.1675	0.108
Mof_H 	H 	0.9149	0.9323	0.2317	0.104
Mof_C 	C 	0.9194	0.759	0.2439	-1.208
Mof_H 	H 	0.8986	0.7664	0.2814	0.395
Mof_H 	H 	0.9696	0.808	0.2356	0.376
Mof_H 	H 	0.9462	0.6934	0.2385	0.408
Mof_C 	C 	0.7667	0.6967	0.2326	-1.239
Mof_H 	H 	0.7473	0.7187	0.2686	0.399
Mof_H 	H 	0.8032	0.6353	0.2355	0.41
Mof_H 	H 	0.7083	0.6863	0.2106	0.402
Mof_C 	C 	0.7305	0.9038	0.2535	0.3
Mof_C 	C 	0.8662	0.6305	0.14	0.392
Mof_C 	C 	0.6107	0.6975	0.4644	-0.076
Mof_C 	C 	0.606	0.5948	0.4374	-0.005
Mof_C 	C 	0.6129	0.7891	0.4219	0.31
Mof_C 	C 	0.7175	0.6774	0.4842	0.026
Mof_C 	C 	0.5448	0.719	0.5144	0.017
Mof_C 	C 	0.775	0.614	0.443	-0.009
Mof_Cd	Cd	0.38472	0.07257	0.34449	0.476
Mof_O 	O 	0.2253	0.0779	0.2969	-0.296
Mof_O 	O 	0.3655	0.0958	0.25	-0.296
Mof_O 	O 	0.1925	0.4192	0.1146	-0.293
Mof_O 	O 	0.0584	0.4131	0.1676	-0.327
Mof_O 	O 	0.3439	0.2268	0.3762	-0.297
Mof_O 	O 	0.4206	0.1316	0.4343	-0.268
Mof_C 	C 	0.2155	0.1238	0.2025	-0.177
Mof_C 	C 	0.169	0.226	0.2065	0.73
Mof_C 	C 	0.1388	0.2554	0.1492	-0.466
Mof_H 	H 	0.0724	0.2276	0.142	0.172
Mof_C 	C 	0.2113	0.2065	0.1108	0.113
Mof_H 	H 	0.2539	0.2552	0.093	0.013
Mof_H 	H 	0.1771	0.1674	0.083	-0.002
Mof_C 	C 	0.2705	0.14	0.1499	-0.164
Mof_H 	H 	0.283	0.0761	0.1325	0.089
Mof_H 	H 	0.3344	0.1709	0.1576	0.08
Mof_C 	C 	0.1252	0.0581	0.1995	-0.314
Mof_H 	H 	0.1457	0.9896	0.1972	0.117
Mof_H 	H 	0.0868	0.0751	0.1675	0.108
Mof_H 	H 	0.0851	0.0677	0.2317	0.104
Mof_C 	C 	0.0806	0.241	0.2439	-1.208
Mof_H 	H 	0.1014	0.2336	0.2814	0.395
Mof_H 	H 	0.0304	0.192	0.2356	0.376
Mof_H 	H 	0.0538	0.3066	0.2385	0.408
Mof_C 	C 	0.2333	0.3033	0.2326	-1.239
Mof_H 	H 	0.2527	0.2813	0.2686	0.399
Mof_H 	H 	0.1968	0.3647	0.2355	0.41
Mof_H 	H 	0.2917	0.3137	0.2106	0.402
Mof_C 	C 	0.2695	0.0962	0.2535	0.3
Mof_C 	C 	0.1338	0.3695	0.14	0.392
Mof_C 	C 	0.3893	0.3025	0.4644	-0.076
Mof_C 	C 	0.394	0.4052	0.4374	-0.005
Mof_C 	C 	0.3871	0.2109	0.4219	0.31
Mof_C 	C 	0.2825	0.3226	0.4842	0.026
Mof_C 	C 	0.4552	0.281	0.5144	0.017
Mof_C 	C 	0.225	0.386	0.443	-0.009
Mof_Cd	Cd	0.42743	0.88472	0.84449	0.476
Mof_O 	O 	0.4221	0.7253	0.7969	-0.296
Mof_O 	O 	0.4042	0.8655	0.75	-0.296
Mof_O 	O 	0.0808	0.6925	0.6146	-0.293
Mof_O 	O 	0.0869	0.5584	0.6676	-0.327
Mof_O 	O 	0.2732	0.8439	0.8762	-0.297
Mof_O 	O 	0.3684	0.9206	0.9343	-0.268
Mof_C 	C 	0.3762	0.7155	0.7025	-0.176
Mof_C 	C 	0.274	0.669	0.7065	0.729
Mof_C 	C 	0.2446	0.6388	0.6492	-0.466
Mof_H 	H 	0.2724	0.5724	0.642	0.172
Mof_C 	C 	0.2935	0.7113	0.6108	0.113
Mof_H 	H 	0.2448	0.7539	0.593	0.012
Mof_H 	H 	0.3326	0.6771	0.583	-0.002
Mof_C 	C 	0.36	0.7705	0.6499	-0.165
Mof_H 	H 	0.4239	0.783	0.6325	0.089
Mof_H 	H 	0.3291	0.8344	0.6576	0.08
Mof_C 	C 	0.4419	0.6252	0.6995	-0.316
Mof_H 	H 	0.5104	0.6457	0.6972	0.118
Mof_H 	H 	0.4249	0.5868	0.6675	0.108
Mof_H 	H 	0.4323	0.5851	0.7317	0.104
Mof_C 	C 	0.259	0.5806	0.7439	-1.208
Mof_H 	H 	0.2664	0.6014	0.7814	0.395
Mof_H 	H 	0.308	0.5304	0.7356	0.376
Mof_H 	H 	0.1934	0.5538	0.7385	0.408
Mof_C 	C 	0.1967	0.7333	0.7326	-1.238
Mof_H 	H 	0.2187	0.7527	0.7686	0.399
Mof_H 	H 	0.1353	0.6968	0.7355	0.41
Mof_H 	H 	0.1863	0.7917	0.7106	0.402
Mof_C 	C 	0.4038	0.7695	0.7535	0.3
Mof_C 	C 	0.1305	0.6338	0.64	0.392
Mof_C 	C 	0.1975	0.8893	0.9644	-0.076
Mof_C 	C 	0.0948	0.894	0.9374	-0.005
Mof_C 	C 	0.2891	0.8871	0.9219	0.31
Mof_C 	C 	0.1774	0.7825	0.9842	0.026
Mof_C 	C 	0.219	0.9552	0.0144	0.016
Mof_C 	C 	0.114	0.725	0.943	-0.009
Mof_Cd	Cd	0.57257	0.11528	0.84449	0.476
Mof_O 	O 	0.5779	0.2747	0.7969	-0.296
Mof_O 	O 	0.5958	0.1345	0.75	-0.296
Mof_O 	O 	0.9192	0.3075	0.6146	-0.293
Mof_O 	O 	0.9131	0.4416	0.6676	-0.327
Mof_O 	O 	0.7268	0.1561	0.8762	-0.297
Mof_O 	O 	0.6316	0.0794	0.9343	-0.268
Mof_C 	C 	0.6238	0.2845	0.7025	-0.176
Mof_C 	C 	0.726	0.331	0.7065	0.729
Mof_C 	C 	0.7554	0.3612	0.6492	-0.466
Mof_H 	H 	0.7276	0.4276	0.642	0.172
Mof_C 	C 	0.7065	0.2887	0.6108	0.113
Mof_H 	H 	0.7552	0.2461	0.593	0.012
Mof_H 	H 	0.6674	0.3229	0.583	-0.002
Mof_C 	C 	0.64	0.2295	0.6499	-0.165
Mof_H 	H 	0.5761	0.217	0.6325	0.089
Mof_H 	H 	0.6709	0.1656	0.6576	0.08
Mof_C 	C 	0.5581	0.3748	0.6995	-0.316
Mof_H 	H 	0.4896	0.3543	0.6972	0.118
Mof_H 	H 	0.5751	0.4132	0.6675	0.108
Mof_H 	H 	0.5677	0.4149	0.7317	0.104
Mof_C 	C 	0.741	0.4194	0.7439	-1.208
Mof_H 	H 	0.7336	0.3986	0.7814	0.395
Mof_H 	H 	0.692	0.4696	0.7356	0.376
Mof_H 	H 	0.8066	0.4462	0.7385	0.408
Mof_C 	C 	0.8033	0.2667	0.7326	-1.238
Mof_H 	H 	0.7813	0.2473	0.7686	0.399
Mof_H 	H 	0.8647	0.3032	0.7355	0.41
Mof_H 	H 	0.8137	0.2083	0.7106	0.402
Mof_C 	C 	0.5962	0.2305	0.7535	0.3
Mof_C 	C 	0.8695	0.3662	0.64	0.392
Mof_C 	C 	0.8025	0.1107	0.9644	-0.076
Mof_C 	C 	0.9052	0.106	0.9374	-0.005
Mof_C 	C 	0.7109	0.1129	0.9219	0.31
Mof_C 	C 	0.8226	0.2175	0.9842	0.026
Mof_C 	C 	0.781	0.0448	0.0144	0.016
Mof_C 	C 	0.886	0.275	0.943	-0.009
Mof_C 	C 	0.7281	0.2719	-0	0.003
Mof_C 	C 	0.2719	0.7281	-0	0.003
Mof_C 	C 	0.2281	0.2281	0.5	0.003
Mof_C 	C 	0.7719	0.7719	0.5	0.003
_end
