data_functionalizedCrystal
_audit_creation_method	'EQeq! by Chris Wilmer'
_symmetry_space_group_name_H-M	'P1'
_symmetry_Int_Tables_number	1
_symmetry_cell_setting	triclinic
loop_
_symmetry_equiv_pos_as_xyz
  x,y,z
_cell_length_a	7.4083
_cell_length_b	10.89
_cell_length_c	13.632
_cell_angle_alpha	66.67
_cell_angle_beta	78.17
_cell_angle_gamma	71.78
loop_
_atom_site_label
_atom_site_type_symbol
_atom_site_fract_x
_atom_site_fract_y
_atom_site_fract_z
_atom_site_charge
Mof_O 	O 	0.8351	0.70163	0.95828	-0.303
Mof_N 	N 	0.6891	0.4792	0.01587	-0.282
Mof_N 	N 	0.9756	0.4866	0.16161	-0.235
Mof_C 	C 	0.6593	0.7276	0.95287	0.311
Mof_C 	C 	0.6139	0.3709	0.04385	0.041
Mof_C 	C 	0.5764	0.6071	0.97337	0.135
Mof_C 	C 	0.9636	0.3706	0.2448	0.067
Mof_C 	C 	0.9866	0.5949	0.183	0.058
Mof_O 	O 	0.5402	0.84233	0.93736	-0.309
Mof_C 	C 	0.7467	0.2282	0.0939	0.262
Mof_H 	H 	0.9541	0.2938	0.2313	0.025
Mof_C 	C 	0.9643	0.3578	0.3502	-0.091
Mof_C 	C 	0.9908	0.5907	0.2851	-0.086
Mof_H 	H 	0.9918	0.6787	0.1245	0.001
Mof_O 	O 	0.8596	0.1814	0.02686	-0.306
Mof_O 	O 	0.736	0.1764	0.19354	-0.264
Mof_H 	H 	0.9526	0.2739	0.407	0.068
Mof_C 	C 	0.9821	0.4674	0.3733	0.025
Mof_H 	H 	0.9995	0.6696	0.2959	0.094
Mof_N 	N 	0.5009	0.8536	0.16128	-0.248
Mof_C 	C 	0.9894	0.4526	0.484	0.157
Mof_C 	C 	0.4409	0.7384	0.1892	0.078
Mof_C 	C 	0.56	0.8747	0.2387	0.08
Mof_H 	H 	0.9778	0.3669	0.5383	0.011
Mof_H 	H 	0.3957	0.7236	0.1355	-0.055
Mof_C 	C 	0.4416	0.6404	0.2921	-0.166
Mof_C 	C 	0.56	0.7837	0.3442	-0.148
Mof_H 	H 	0.6035	0.955	0.2204	0.056
Mof_H 	H 	0.4012	0.5595	0.3075	0.068
Mof_C 	C 	0.5026	0.662	0.3732	0.116
Mof_H 	H 	0.599	0.804	0.3971	0.11
Mof_C 	C 	0.5072	0.5656	0.4839	-0.096
Mof_H 	H 	0.5214	0.5971	0.537	0.078
Mof_O 	O 	0.1649	0.29837	0.04172	-0.56
Mof_N 	N 	0.3109	0.5208	0.98413	-0.057
Mof_N 	N 	0.0244	0.5134	0.83839	-0.233
Mof_C 	C 	0.3407	0.2724	0.04713	0.385
Mof_C 	C 	0.3861	0.6291	0.95615	0.007
Mof_C 	C 	0.4236	0.3929	0.02663	-0.243
Mof_C 	C 	0.0364	0.6294	0.7552	0.099
Mof_C 	C 	0.0134	0.4051	0.817	0.09
Mof_O 	O 	0.4598	0.15767	0.06264	-0.522
Mof_C 	C 	0.2533	0.7718	0.9061	0.267
Mof_H 	H 	0.0459	0.7062	0.7687	0.003
Mof_C 	C 	0.0357	0.6422	0.6498	-0.199
Mof_C 	C 	0.0092	0.4093	0.7149	-0.197
Mof_H 	H 	0.0082	0.3213	0.8755	0.026
Mof_O 	O 	0.1404	0.8186	0.97314	-0.189
Mof_O 	O 	0.264	0.8236	0.80646	-0.198
Mof_H 	H 	0.0474	0.7261	0.593	0.101
Mof_C 	C 	0.0179	0.5326	0.6267	0.177
Mof_H 	H 	0.0005	0.3304	0.7041	0.07
Mof_N 	N 	0.4991	0.1464	0.83872	-0.228
Mof_C 	C 	0.0106	0.5474	0.516	-0.319
Mof_C 	C 	0.5591	0.2616	0.8108	0.079
Mof_C 	C 	0.44	0.1253	0.7613	0.072
Mof_H 	H 	0.0222	0.6331	0.4617	0.106
Mof_H 	H 	0.6043	0.2764	0.8645	0.059
Mof_C 	C 	0.5584	0.3596	0.7079	-0.132
Mof_C 	C 	0.44	0.2163	0.6558	-0.143
Mof_H 	H 	0.3965	0.045	0.7796	-0.022
Mof_H 	H 	0.5988	0.4405	0.6925	0.103
Mof_C 	C 	0.4974	0.338	0.6268	0.096
Mof_H 	H 	0.401	0.196	0.6029	0.058
Mof_C 	C 	0.4928	0.4344	0.5161	-0.067
Mof_H 	H 	0.4786	0.4029	0.463	0.044
Mof_Zn	Zn	-2.97589e-17	0.5	-0	1.119
Mof_Zn	Zn	0.5	0	-0	1.096
_end
