data_functionalizedCrystal
_audit_creation_method	'EQeq! by Chris Wilmer'
_symmetry_space_group_name_H-M	'P1'
_symmetry_Int_Tables_number	1
_symmetry_cell_setting	triclinic
loop_
_symmetry_equiv_pos_as_xyz
  x,y,z
_cell_length_a	18.8235
_cell_length_b	18.8235
_cell_length_c	18.8235
_cell_angle_alpha	90
_cell_angle_beta	90
_cell_angle_gamma	90
loop_
_atom_site_label
_atom_site_type_symbol
_atom_site_fract_x
_atom_site_fract_y
_atom_site_fract_z
_atom_site_charge
Mof_Fe	Fe	0.14071	0	0.5	0.488
Mof_Fe	Fe	0.85929	0	0.5	0.515
Mof_Fe	Fe	0.5	0.14071	-0	0.488
Mof_Fe	Fe	0.5	0.85929	-0	0.515
Mof_Fe	Fe	8.09729e-33	0.5	0.14071	0.488
Mof_Fe	Fe	1.83612e-32	0.5	0.85929	0.515
Mof_Fe	Fe	9.44441e-33	0.14071	0.5	0.488
Mof_Fe	Fe	1.70141e-32	0.85929	0.5	0.515
Mof_Fe	Fe	0.14071	0.5	-0	0.488
Mof_Fe	Fe	0.85929	0.5	-0	0.515
Mof_Fe	Fe	0.5	0	0.85929	0.515
Mof_Fe	Fe	0.5	0	0.14071	0.488
Mof_H 	H 	0.1081	0.2607	0.7393	0.065
Mof_H 	H 	0.8919	0.7393	0.7393	0.089
Mof_H 	H 	0.8919	0.2607	0.2607	0.083
Mof_H 	H 	0.1081	0.7393	0.2607	0.065
Mof_H 	H 	0.7393	0.1081	0.2607	0.065
Mof_H 	H 	0.7393	0.8919	0.7393	0.089
Mof_H 	H 	0.2607	0.8919	0.2607	0.082
Mof_H 	H 	0.2607	0.1081	0.7393	0.064
Mof_H 	H 	0.2607	0.7393	0.1081	0.064
Mof_H 	H 	0.7393	0.7393	0.8919	0.088
Mof_H 	H 	0.2607	0.2607	0.8919	0.082
Mof_H 	H 	0.7393	0.2607	0.1081	0.064
Mof_H 	H 	0.2607	0.1081	0.2607	0.061
Mof_H 	H 	0.7393	0.8919	0.2607	0.085
Mof_H 	H 	0.2607	0.8919	0.7393	0.085
Mof_H 	H 	0.7393	0.1081	0.7393	0.068
Mof_H 	H 	0.1081	0.7393	0.7393	0.068
Mof_H 	H 	0.8919	0.7393	0.2607	0.085
Mof_H 	H 	0.8919	0.2607	0.7393	0.085
Mof_H 	H 	0.1081	0.2607	0.2607	0.061
Mof_H 	H 	0.7393	0.2607	0.8919	0.085
Mof_H 	H 	0.7393	0.7393	0.1081	0.068
Mof_H 	H 	0.2607	0.2607	0.1081	0.061
Mof_H 	H 	0.2607	0.7393	0.8919	0.085
Mof_C 	C 	0.14956	0.24031	0.75969	-0.073
Mof_C 	C 	0.85044	0.75969	0.75969	-0.076
Mof_C 	C 	0.85044	0.24031	0.24031	-0.073
Mof_C 	C 	0.14956	0.75969	0.24031	-0.073
Mof_C 	C 	0.75969	0.14956	0.24031	-0.073
Mof_C 	C 	0.75969	0.85044	0.75969	-0.076
Mof_C 	C 	0.24031	0.85044	0.24031	-0.073
Mof_C 	C 	0.24031	0.14956	0.75969	-0.073
Mof_C 	C 	0.24031	0.75969	0.14956	-0.073
Mof_C 	C 	0.75969	0.75969	0.85044	-0.076
Mof_C 	C 	0.24031	0.24031	0.85044	-0.073
Mof_C 	C 	0.75969	0.24031	0.14956	-0.073
Mof_C 	C 	0.24031	0.14956	0.24031	-0.072
Mof_C 	C 	0.75969	0.85044	0.24031	-0.075
Mof_C 	C 	0.24031	0.85044	0.75969	-0.075
Mof_C 	C 	0.75969	0.14956	0.75969	-0.074
Mof_C 	C 	0.14956	0.75969	0.75969	-0.074
Mof_C 	C 	0.85044	0.75969	0.24031	-0.075
Mof_C 	C 	0.85044	0.24031	0.75969	-0.075
Mof_C 	C 	0.14956	0.24031	0.24031	-0.072
Mof_C 	C 	0.75969	0.24031	0.85044	-0.075
Mof_C 	C 	0.75969	0.75969	0.14956	-0.074
Mof_C 	C 	0.24031	0.24031	0.14956	-0.072
Mof_C 	C 	0.24031	0.75969	0.85044	-0.075
Mof_C 	C 	0.14881	0.14881	0.66572	0.104
Mof_C 	C 	0.18003	0.18003	0.72942	0.014
Mof_C 	C 	0.85119	0.85119	0.66572	0.118
Mof_C 	C 	0.81997	0.81997	0.72942	0.037
Mof_C 	C 	0.85119	0.14881	0.33428	0.11
Mof_C 	C 	0.81997	0.18003	0.27058	0.02
Mof_C 	C 	0.14881	0.85119	0.33428	0.11
Mof_C 	C 	0.18003	0.81997	0.27058	0.02
Mof_C 	C 	0.66572	0.14881	0.14881	0.104
Mof_C 	C 	0.72942	0.18003	0.18003	0.014
Mof_C 	C 	0.66572	0.85119	0.85119	0.118
Mof_C 	C 	0.72942	0.81997	0.81997	0.037
Mof_C 	C 	0.33428	0.85119	0.14881	0.11
Mof_C 	C 	0.27058	0.81997	0.18003	0.02
Mof_C 	C 	0.33428	0.14881	0.85119	0.11
Mof_C 	C 	0.27058	0.18003	0.81997	0.02
Mof_C 	C 	0.14881	0.66572	0.14881	0.104
Mof_C 	C 	0.18003	0.72942	0.18003	0.014
Mof_C 	C 	0.85119	0.66572	0.85119	0.118
Mof_C 	C 	0.81997	0.72942	0.81997	0.037
Mof_C 	C 	0.14881	0.33428	0.85119	0.11
Mof_C 	C 	0.18003	0.27058	0.81997	0.02
Mof_C 	C 	0.85119	0.33428	0.14881	0.11
Mof_C 	C 	0.81997	0.27058	0.18003	0.02
Mof_C 	C 	0.14881	0.14881	0.33428	0.103
Mof_C 	C 	0.18003	0.18003	0.27058	0.008
Mof_C 	C 	0.85119	0.85119	0.33428	0.117
Mof_C 	C 	0.81997	0.81997	0.27058	0.031
Mof_C 	C 	0.14881	0.85119	0.66572	0.111
Mof_C 	C 	0.18003	0.81997	0.72942	0.026
Mof_C 	C 	0.85119	0.14881	0.66572	0.111
Mof_C 	C 	0.81997	0.18003	0.72942	0.026
Mof_C 	C 	0.14881	0.66572	0.85119	0.111
Mof_C 	C 	0.18003	0.72942	0.81997	0.026
Mof_C 	C 	0.85119	0.66572	0.14881	0.111
Mof_C 	C 	0.81997	0.72942	0.18003	0.026
Mof_C 	C 	0.85119	0.33428	0.85119	0.117
Mof_C 	C 	0.81997	0.27058	0.81997	0.031
Mof_C 	C 	0.14881	0.33428	0.14881	0.103
Mof_C 	C 	0.18003	0.27058	0.18003	0.008
Mof_C 	C 	0.66572	0.14881	0.85119	0.111
Mof_C 	C 	0.72942	0.18003	0.81997	0.026
Mof_C 	C 	0.66572	0.85119	0.14881	0.111
Mof_C 	C 	0.72942	0.81997	0.18003	0.026
Mof_C 	C 	0.33428	0.14881	0.14881	0.103
Mof_C 	C 	0.27058	0.18003	0.18003	0.008
Mof_C 	C 	0.33428	0.85119	0.85119	0.117
Mof_C 	C 	0.27058	0.81997	0.81997	0.031
Mof_N 	N 	0.13083	0.08129	0.57831	-0.114
Mof_N 	N 	0.17458	0.09125	0.63333	-0.103
Mof_N 	N 	0.86917	0.91871	0.57831	-0.086
Mof_N 	N 	0.82542	0.90875	0.63333	-0.08
Mof_N 	N 	0.86917	0.08129	0.42169	-0.11
Mof_N 	N 	0.82542	0.09125	0.36667	-0.101
Mof_N 	N 	0.13083	0.91871	0.42169	-0.092
Mof_N 	N 	0.17458	0.90875	0.36667	-0.084
Mof_N 	N 	0.57831	0.13083	0.08129	-0.114
Mof_N 	N 	0.63333	0.17458	0.09125	-0.103
Mof_N 	N 	0.57831	0.86917	0.91871	-0.086
Mof_N 	N 	0.63333	0.82542	0.90875	-0.08
Mof_N 	N 	0.42169	0.86917	0.08129	-0.11
Mof_N 	N 	0.36667	0.82542	0.09125	-0.101
Mof_N 	N 	0.42169	0.13083	0.91871	-0.092
Mof_N 	N 	0.36667	0.17458	0.90875	-0.084
Mof_N 	N 	0.08129	0.57831	0.13083	-0.114
Mof_N 	N 	0.09125	0.63333	0.17458	-0.103
Mof_N 	N 	0.91871	0.57831	0.86917	-0.086
Mof_N 	N 	0.90875	0.63333	0.82542	-0.08
Mof_N 	N 	0.08129	0.42169	0.86917	-0.11
Mof_N 	N 	0.09125	0.36667	0.82542	-0.101
Mof_N 	N 	0.91871	0.42169	0.13083	-0.092
Mof_N 	N 	0.90875	0.36667	0.17458	-0.084
Mof_N 	N 	0.08129	0.13083	0.42169	-0.115
Mof_N 	N 	0.09125	0.17458	0.36667	-0.104
Mof_N 	N 	0.91871	0.86917	0.42169	-0.087
Mof_N 	N 	0.90875	0.82542	0.36667	-0.081
Mof_N 	N 	0.08129	0.86917	0.57831	-0.109
Mof_N 	N 	0.09125	0.82542	0.63333	-0.1
Mof_N 	N 	0.91871	0.13083	0.57831	-0.091
Mof_N 	N 	0.90875	0.17458	0.63333	-0.083
Mof_N 	N 	0.13083	0.57831	0.91871	-0.091
Mof_N 	N 	0.17458	0.63333	0.90875	-0.083
Mof_N 	N 	0.86917	0.57831	0.08129	-0.109
Mof_N 	N 	0.82542	0.63333	0.09125	-0.1
Mof_N 	N 	0.86917	0.42169	0.91871	-0.087
Mof_N 	N 	0.82542	0.36667	0.90875	-0.081
Mof_N 	N 	0.13083	0.42169	0.08129	-0.115
Mof_N 	N 	0.17458	0.36667	0.09125	-0.104
Mof_N 	N 	0.57831	0.08129	0.86917	-0.109
Mof_N 	N 	0.63333	0.09125	0.82542	-0.1
Mof_N 	N 	0.57831	0.91871	0.13083	-0.091
Mof_N 	N 	0.63333	0.90875	0.17458	-0.083
Mof_N 	N 	0.42169	0.08129	0.13083	-0.115
Mof_N 	N 	0.36667	0.09125	0.17458	-0.104
Mof_N 	N 	0.42169	0.91871	0.86917	-0.087
Mof_N 	N 	0.36667	0.90875	0.82542	-0.081
Mof_N 	N 	0.86917	0.91871	0.42169	-0.087
Mof_N 	N 	0.82542	0.90875	0.36667	-0.081
Mof_N 	N 	0.13083	0.08129	0.42169	-0.115
Mof_N 	N 	0.17458	0.09125	0.36667	-0.104
Mof_N 	N 	0.13083	0.91871	0.57831	-0.091
Mof_N 	N 	0.17458	0.90875	0.63333	-0.083
Mof_N 	N 	0.86917	0.08129	0.57831	-0.109
Mof_N 	N 	0.82542	0.09125	0.63333	-0.1
Mof_N 	N 	0.42169	0.86917	0.91871	-0.087
Mof_N 	N 	0.36667	0.82542	0.90875	-0.081
Mof_N 	N 	0.42169	0.13083	0.08129	-0.115
Mof_N 	N 	0.36667	0.17458	0.09125	-0.104
Mof_N 	N 	0.57831	0.13083	0.91871	-0.091
Mof_N 	N 	0.63333	0.17458	0.90875	-0.083
Mof_N 	N 	0.57831	0.86917	0.08129	-0.109
Mof_N 	N 	0.63333	0.82542	0.09125	-0.1
Mof_N 	N 	0.91871	0.42169	0.86917	-0.087
Mof_N 	N 	0.90875	0.36667	0.82542	-0.081
Mof_N 	N 	0.08129	0.42169	0.13083	-0.115
Mof_N 	N 	0.09125	0.36667	0.17458	-0.104
Mof_N 	N 	0.91871	0.57831	0.13083	-0.091
Mof_N 	N 	0.90875	0.63333	0.17458	-0.083
Mof_N 	N 	0.08129	0.57831	0.86917	-0.109
Mof_N 	N 	0.09125	0.63333	0.82542	-0.1
Mof_N 	N 	0.91871	0.86917	0.57831	-0.086
Mof_N 	N 	0.90875	0.82542	0.63333	-0.08
Mof_N 	N 	0.08129	0.13083	0.57831	-0.114
Mof_N 	N 	0.09125	0.17458	0.63333	-0.103
Mof_N 	N 	0.91871	0.13083	0.42169	-0.092
Mof_N 	N 	0.90875	0.17458	0.36667	-0.084
Mof_N 	N 	0.08129	0.86917	0.42169	-0.11
Mof_N 	N 	0.09125	0.82542	0.36667	-0.101
Mof_N 	N 	0.86917	0.42169	0.08129	-0.11
Mof_N 	N 	0.82542	0.36667	0.09125	-0.101
Mof_N 	N 	0.13083	0.42169	0.91871	-0.092
Mof_N 	N 	0.17458	0.36667	0.90875	-0.084
Mof_N 	N 	0.13083	0.57831	0.08129	-0.114
Mof_N 	N 	0.17458	0.63333	0.09125	-0.103
Mof_N 	N 	0.86917	0.57831	0.91871	-0.086
Mof_N 	N 	0.82542	0.63333	0.90875	-0.08
Mof_N 	N 	0.42169	0.91871	0.13083	-0.092
Mof_N 	N 	0.36667	0.90875	0.17458	-0.084
Mof_N 	N 	0.42169	0.08129	0.86917	-0.11
Mof_N 	N 	0.36667	0.09125	0.82542	-0.101
Mof_N 	N 	0.57831	0.91871	0.86917	-0.086
Mof_N 	N 	0.63333	0.90875	0.82542	-0.08
Mof_N 	N 	0.57831	0.08129	0.13083	-0.114
Mof_N 	N 	0.63333	0.09125	0.17458	-0.103
_end
