data_functionalizedCrystal
_audit_creation_method	'EQeq! by Chris Wilmer'
_symmetry_space_group_name_H-M	'P1'
_symmetry_Int_Tables_number	1
_symmetry_cell_setting	triclinic
loop_
_symmetry_equiv_pos_as_xyz
  x,y,z
_cell_length_a	14.3228
_cell_length_b	14.3228
_cell_length_c	14.3228
_cell_angle_alpha	90
_cell_angle_beta	90
_cell_angle_gamma	90
loop_
_atom_site_label
_atom_site_type_symbol
_atom_site_fract_x
_atom_site_fract_y
_atom_site_fract_z
_atom_site_charge
Mof_Cu	Cu	0.5	2.14786e-33	0.25	0.851
Mof_Cu	Cu	0.5	8.59145e-33	0.75	0.858
Mof_Cu	Cu	0.25	0.5	-0	0.851
Mof_Cu	Cu	0.75	0.5	-0	0.858
Mof_Cu	Cu	1.04662e-32	0.25	0.5	0.851
Mof_Cu	Cu	1.47619e-32	0.75	0.5	0.858
Mof_Cu	Cu	0.5	0.25	-0	0.851
Mof_Cu	Cu	1.14035e-32	0.5	0.75	0.858
Mof_Cu	Cu	1.16767e-32	0.5	0.25	0.851
Mof_Cu	Cu	0.5	0.75	-0	0.858
Mof_Cu	Cu	0.25	4.29573e-33	0.5	0.851
Mof_Cu	Cu	0.75	4.29573e-33	0.5	0.858
Mof_O 	O 	0.5	0.8596	0.2501	-0.319
Mof_O 	O 	1.14039e-32	0.3596	0.7501	-0.548
Mof_O 	O 	0.5	0.1404	0.2501	-0.485
Mof_O 	O 	1.99953e-32	0.6404	0.7501	-0.51
Mof_O 	O 	0.5	0.8596	0.7499	-0.285
Mof_O 	O 	9.52843e-33	0.3596	0.2499	-0.613
Mof_O 	O 	0.5	0.1404	0.7499	-0.448
Mof_O 	O 	9.52843e-33	0.6404	0.2499	-0.573
Mof_O 	O 	0.2501	0.5	0.8596	-0.319
Mof_O 	O 	0.7501	4.29573e-33	0.3596	-0.548
Mof_O 	O 	0.2501	0.5	0.1404	-0.485
Mof_O 	O 	0.7501	0	0.6404	-0.51
Mof_O 	O 	0.7499	0.5	0.8596	-0.285
Mof_O 	O 	0.2499	4.29573e-33	0.3596	-0.613
Mof_O 	O 	0.7499	0.5	0.1404	-0.448
Mof_O 	O 	0.2499	0	0.6404	-0.573
Mof_O 	O 	0.8596	0.2501	0.5	-0.319
Mof_O 	O 	0.3596	0.7501	-0	-0.548
Mof_O 	O 	0.1404	0.2501	0.5	-0.485
Mof_O 	O 	0.6404	0.7501	-0	-0.51
Mof_O 	O 	0.8596	0.7499	0.5	-0.285
Mof_O 	O 	0.3596	0.2499	-0	-0.613
Mof_O 	O 	0.1404	0.7499	0.5	-0.448
Mof_O 	O 	0.6404	0.2499	-0	-0.573
Mof_O 	O 	0.8596	0.5	0.7499	-0.285
Mof_O 	O 	0.3596	2.14786e-33	0.2499	-0.613
Mof_O 	O 	0.1404	0.5	0.7499	-0.448
Mof_O 	O 	0.6404	2.14786e-33	0.2499	-0.573
Mof_O 	O 	0.8596	0.5	0.2501	-0.319
Mof_O 	O 	0.3596	8.59145e-33	0.7501	-0.548
Mof_O 	O 	0.1404	0.5	0.2501	-0.485
Mof_O 	O 	0.6404	8.59145e-33	0.7501	-0.51
Mof_O 	O 	0.5	0.2501	0.1404	-0.485
Mof_O 	O 	1.9584e-32	0.7501	0.6404	-0.51
Mof_O 	O 	0.5	0.2501	0.8596	-0.319
Mof_O 	O 	1.42355e-32	0.7501	0.3596	-0.548
Mof_O 	O 	0.5	0.7499	0.1404	-0.448
Mof_O 	O 	1.09926e-32	0.2499	0.6404	-0.573
Mof_O 	O 	0.5	0.7499	0.8596	-0.285
Mof_O 	O 	5.64401e-33	0.2499	0.3596	-0.613
Mof_O 	O 	0.2501	0.8596	0.5	-0.319
Mof_O 	O 	0.7501	0.3596	-0	-0.548
Mof_O 	O 	0.2501	0.1404	0.5	-0.485
Mof_O 	O 	0.7501	0.6404	-0	-0.51
Mof_O 	O 	0.7499	0.8596	0.5	-0.285
Mof_O 	O 	0.2499	0.3596	-0	-0.613
Mof_O 	O 	0.7499	0.1404	0.5	-0.448
Mof_O 	O 	0.2499	0.6404	-0	-0.573
Mof_C 	C 	0.5	0.8376	0.1624	0.644
Mof_O 	O 	0.5	0.8993	0.1007	-0.648
Mof_C 	C 	2.4836e-33	0.3376	0.6624	0.831
Mof_O 	O 	2.25226e-33	0.3993	0.6007	-1.263
Mof_C 	C 	0.5	0.1624	0.1624	0.673
Mof_O 	O 	0.5	0.1007	0.1007	-0.853
Mof_C 	C 	2.4836e-33	0.6624	0.6624	0.823
Mof_O 	O 	1.08437e-32	0.6007	0.6007	-1.257
Mof_C 	C 	0.5	0.8376	0.8376	0.615
Mof_O 	O 	0.5	0.8993	0.8993	-0.45
Mof_C 	C 	1.2658e-33	0.3376	0.3376	0.839
Mof_O 	O 	1.49714e-33	0.3993	0.3993	-1.269
Mof_C 	C 	0.5	0.1624	0.8376	0.644
Mof_O 	O 	0.5	0.1007	0.8993	-0.648
Mof_C 	C 	5.56152e-33	0.6624	0.3376	0.831
Mof_O 	O 	5.79286e-33	0.6007	0.3993	-1.263
Mof_C 	C 	0.1624	0.5	0.8376	0.644
Mof_O 	O 	0.1007	0.5	0.8993	-0.648
Mof_C 	C 	0.6624	0	0.3376	0.831
Mof_O 	O 	0.6007	0	0.3993	-1.263
Mof_C 	C 	0.1624	0.5	0.1624	0.673
Mof_O 	O 	0.1007	0.5	0.1007	-0.853
Mof_C 	C 	0.6624	0	0.6624	0.823
Mof_O 	O 	0.6007	4.29573e-33	0.6007	-1.257
Mof_C 	C 	0.8376	0.5	0.8376	0.615
Mof_O 	O 	0.8993	0.5	0.8993	-0.45
Mof_C 	C 	0.3376	0	0.3376	0.839
Mof_O 	O 	0.3993	0	0.3993	-1.269
Mof_C 	C 	0.8376	0.5	0.1624	0.644
Mof_O 	O 	0.8993	0.5	0.1007	-0.648
Mof_C 	C 	0.3376	0	0.6624	0.831
Mof_O 	O 	0.3993	4.29573e-33	0.6007	-1.263
Mof_C 	C 	0.8376	0.1624	0.5	0.644
Mof_O 	O 	0.8993	0.1007	0.5	-0.648
Mof_C 	C 	0.3376	0.6624	-0	0.831
Mof_O 	O 	0.3993	0.6007	-0	-1.263
Mof_C 	C 	0.1624	0.1624	0.5	0.673
Mof_O 	O 	0.1007	0.1007	0.5	-0.853
Mof_C 	C 	0.6624	0.6624	-0	0.823
Mof_O 	O 	0.6007	0.6007	-0	-1.257
Mof_C 	C 	0.8376	0.8376	0.5	0.615
Mof_O 	O 	0.8993	0.8993	0.5	-0.45
Mof_C 	C 	0.3376	0.3376	-0	0.839
Mof_O 	O 	0.3993	0.3993	-0	-1.269
Mof_C 	C 	0.1624	0.8376	0.5	0.644
Mof_O 	O 	0.1007	0.8993	0.5	-0.648
Mof_C 	C 	0.6624	0.3376	-0	0.831
Mof_O 	O 	0.6007	0.3993	-0	-1.263
Mof_Li	Li	0.5	0	-0	1.843
Mof_Li	Li	1.04662e-32	0.5	0.5	4.052
Mof_Li	Li	4.29573e-33	0.5	-0	1.843
Mof_Li	Li	0.5	4.29573e-33	0.5	4.052
Mof_Li	Li	6.17043e-33	4.29573e-33	0.5	1.843
Mof_Li	Li	0.5	0.5	-0	4.052
_end
