data_functionalizedCrystal
_audit_creation_method	'EQeq! by Chris Wilmer'
_symmetry_space_group_name_H-M	'P1'
_symmetry_Int_Tables_number	1
_symmetry_cell_setting	triclinic
loop_
_symmetry_equiv_pos_as_xyz
  x,y,z
_cell_length_a	9.5193
_cell_length_b	10.9534
_cell_length_c	11.4935
_cell_angle_alpha	91.786
_cell_angle_beta	113.8
_cell_angle_gamma	105.469
loop_
_atom_site_label
_atom_site_type_symbol
_atom_site_fract_x
_atom_site_fract_y
_atom_site_fract_z
_atom_site_charge
Mof_Co	Co	2.04256e-17	0.5	0.5	1.123
Mof_Mo	Mo	0.41889	0.62111	0.74983	1.404
Mof_Mo	Mo	0.51151	0.64734	0.06347	1.042
Mof_Mo	Mo	0.52394	0.92865	0.86002	0.906
Mof_Mo	Mo	0.58111	0.37889	0.25017	1.409
Mof_Mo	Mo	0.48849	0.35266	0.93653	0.974
Mof_Mo	Mo	0.47606	0.07135	0.13998	1.069
Mof_H 	H 	0.8898	0.5706	0.222	-0.05
Mof_H 	H 	0.2506	0.7632	0.5407	-0.039
Mof_H 	H 	0.3314	0.9196	0.4321	0.06
Mof_H 	H 	0.1871	0.9023	0.2117	-0.081
Mof_H 	H 	0.9497	0.5824	0.735	0.012
Mof_H 	H 	0.7986	0.6812	0.3948	-0.051
Mof_H 	H 	0.6711	0.8081	0.4501	0.017
Mof_H 	H 	0.6806	0.8206	0.6557	0.004
Mof_H 	H 	0.1306	0.7682	0.8962	0.085
Mof_H 	H 	0.1987	0.7785	0.039	0.079
Mof_H 	H 	0.1102	0.4294	0.778	0.042
Mof_H 	H 	0.7494	0.2368	0.4593	0
Mof_H 	H 	0.6686	0.0804	0.5679	0.033
Mof_H 	H 	0.8129	0.0977	0.7883	0.027
Mof_H 	H 	0.0503	0.4176	0.265	-0.016
Mof_H 	H 	0.2014	0.3188	0.6052	-0.054
Mof_H 	H 	0.3289	0.1919	0.5499	0.032
Mof_H 	H 	0.3194	0.1794	0.3443	0.013
Mof_H 	H 	0.8694	0.2318	0.1038	0.111
Mof_H 	H 	0.8013	0.2215	0.961	0.05
Mof_C 	C 	0.9115	0.7153	0.057	0.198
Mof_C 	C 	0.0201	0.7332	0.1944	-0.266
Mof_C 	C 	0.9801	0.6417	0.2648	0.201
Mof_C 	C 	0.1923	0.7542	0.452	0.089
Mof_C 	C 	0.2409	0.8493	0.3871	-0.228
Mof_C 	C 	0.1556	0.8399	0.2568	0.119
Mof_C 	C 	0.8236	0.7008	0.8477	0.099
Mof_C 	C 	0.8177	0.7018	0.7174	-0.092
Mof_C 	C 	0.8926	0.6283	0.6771	0.027
Mof_C 	C 	0.8042	0.6865	0.4776	0.043
Mof_C 	C 	0.7265	0.7628	0.5098	-0.135
Mof_C 	C 	0.7324	0.7706	0.6316	-0.011
Mof_C 	C 	0.0885	0.2847	0.943	-0
Mof_C 	C 	0.9799	0.2668	0.8056	0.068
Mof_C 	C 	0.0199	0.3583	0.7352	-0.127
Mof_C 	C 	0.8077	0.2458	0.548	0.016
Mof_C 	C 	0.7591	0.1507	0.6129	-0.062
Mof_C 	C 	0.8444	0.1601	0.7432	-0.08
Mof_C 	C 	0.1764	0.2992	0.1523	0.104
Mof_C 	C 	0.1823	0.2982	0.2826	-0.106
Mof_C 	C 	0.1074	0.3717	0.3229	0.028
Mof_C 	C 	0.1958	0.3135	0.5224	0.042
Mof_C 	C 	0.2735	0.2372	0.4902	-0.14
Mof_C 	C 	0.2676	0.2294	0.3684	-0.001
Mof_N 	N 	0.7544	0.6821	0.007	-0.175
Mof_N 	N 	0.6995	0.674	0.8755	-0.221
Mof_N 	N 	0.9598	0.7275	0.9586	-0.134
Mof_N 	N 	0.1168	0.7626	0.9655	-0.269
Mof_N 	N 	0.0652	0.6503	0.392	-0.29
Mof_N 	N 	0.8865	0.6205	0.5589	-0.231
Mof_N 	N 	0.2456	0.3179	0.993	-0.169
Mof_N 	N 	0.3005	0.326	0.1245	-0.205
Mof_N 	N 	0.0402	0.2725	0.0414	-0.116
Mof_N 	N 	0.8832	0.2374	0.0345	-0.193
Mof_N 	N 	0.9348	0.3497	0.608	-0.173
Mof_N 	N 	0.1135	0.3795	0.4411	-0.249
Mof_O 	O 	0.4298	0.5103	0.8855	-0.656
Mof_O 	O 	0.4764	0.7897	0.7209	-0.602
Mof_O 	O 	0.2081	0.58	0.6694	-0.642
Mof_O 	O 	0.4668	0.7441	0.9283	-0.626
Mof_O 	O 	0.5702	0.4897	0.1145	-0.639
Mof_O 	O 	0.5236	0.2103	0.2791	-0.611
Mof_O 	O 	0.7919	0.42	0.3306	-0.616
Mof_O 	O 	0.5332	0.2559	0.0717	-0.59
Mof_O 	O 	0.5	0	-0	-0.58
_end
