data_functionalizedCrystal
_audit_creation_method	'EQeq! by Chris Wilmer'
_symmetry_space_group_name_H-M	'P1'
_symmetry_Int_Tables_number	1
_symmetry_cell_setting	triclinic
loop_
_symmetry_equiv_pos_as_xyz
  x,y,z
_cell_length_a	26.7741
_cell_length_b	10.0535
_cell_length_c	22.0865
_cell_angle_alpha	90
_cell_angle_beta	97.275
_cell_angle_gamma	90
loop_
_atom_site_label
_atom_site_type_symbol
_atom_site_fract_x
_atom_site_fract_y
_atom_site_fract_z
_atom_site_charge
Mof_Zn	Zn	0.10045	0.66797	0.49271	1.149
Mof_Mo	Mo	0.2013	0.47477	0.4374	1.539
Mof_Mo	Mo	0.30752	0.54722	0.51933	1.046
Mof_Mo	Mo	0.39159	0.31742	0.55436	1.58
Mof_Mo	Mo	0.29442	0.2359	0.45034	1.507
Mof_Mo	Mo	0.47626	0.1372	0.47173	0.924
Mof_C 	C 	0.02615	0.5268	0.7477	-0.064
Mof_C 	C 	0.0518	0.6477	0.7467	0.002
Mof_C 	C 	0.02572	0.7676	0.7479	-0.064
Mof_C 	C 	0.0523	0.3956	0.7438	-0.059
Mof_H 	H 	0.0309	0.3356	0.7177	0.034
Mof_H 	H 	0.0832	0.4084	0.7259	0.027
Mof_C 	C 	0.07366	0.3938	0.8586	0.079
Mof_H 	H 	0.0736	0.4849	0.8656	-0.078
Mof_C 	C 	0.0791	0.1874	0.8696	0.054
Mof_H 	H 	0.0845	0.1046	0.888	-0.066
Mof_C 	C 	0.1082	0.6456	0.7451	-0.071
Mof_H 	H 	0.1238	0.7169	0.7704	0.028
Mof_H 	H 	0.1219	0.5619	0.7617	0.023
Mof_C 	C 	0.09203	0.6486	0.6294	0.102
Mof_H 	H 	0.058	0.6267	0.6244	-0.069
Mof_C 	C 	0.165	0.6946	0.6134	0.084
Mof_H 	H 	0.1924	0.7134	0.5928	-0.058
Mof_C 	C 	0.0541	0.8968	0.7461	-0.07
Mof_H 	H 	0.0377	0.9645	0.7679	0.052
Mof_H 	H 	0.0881	0.8853	0.7665	0.044
Mof_C 	C 	0.0231	0.9287	0.6345	0.051
Mof_H 	H 	0.9927	0.8832	0.6331	-0.027
Mof_C 	C 	0.0831	0.0401	0.6112	0.062
Mof_H 	H 	0.1033	0.0899	0.5885	-0.041
Mof_N 	N 	0.08352	0.3022	0.90101	-0.342
Mof_N 	N 	0.06386	0.3373	0.8047	-0.113
Mof_N 	N 	0.06655	0.2022	0.8107	-0.122
Mof_N 	N 	0.11856	0.6711	0.58476	-0.323
Mof_N 	N 	0.12017	0.6614	0.6826	-0.1
Mof_N 	N 	0.16813	0.6886	0.6736	-0.118
Mof_N 	N 	0.03876	0.9894	0.5876	-0.3
Mof_N 	N 	0.05612	0.941	0.68348	-0.074
Mof_N 	N 	0.0955	0.0135	0.669	-0.188
Mof_H 	H 	0.1223	0.0366	0.6923	0.095
Mof_O 	O 	0.16771	0.5798	0.47939	-0.761
Mof_O 	O 	0.1692	0.3158	0.46026	-0.761
Mof_O 	O 	0.26368	0.5692	0.44351	-0.639
Mof_O 	O 	0.34553	0.4382	0.58321	-0.626
Mof_O 	O 	0.43605	0.4362	0.53944	-0.744
Mof_O 	O 	0.41737	0.1968	0.49525	-0.678
Mof_O 	O 	0.33905	0.3774	0.47071	-0.64
Mof_O 	O 	0.24879	0.1177	0.48538	-0.705
Mof_O 	O 	0.2507	0.3167	0.39646	-0.625
Mof_O 	O 	0.45931	0.9606	0.50569	-0.67
Mof_Zn	Zn	0.60045	0.16797	0.49271	1.148
Mof_Mo	Mo	0.7013	0.97477	0.4374	1.601
Mof_Mo	Mo	0.80752	0.04722	0.51933	0.995
Mof_Mo	Mo	0.89159	0.81742	0.55436	1.592
Mof_Mo	Mo	0.79442	0.7359	0.45034	1.517
Mof_Mo	Mo	0.97626	0.6372	0.47173	0.994
Mof_C 	C 	0.52615	0.0268	0.7477	-0.035
Mof_C 	C 	0.5518	0.1477	0.7467	-0.026
Mof_C 	C 	0.52572	0.2676	0.7479	-0.014
Mof_C 	C 	0.5523	0.8956	0.7438	-0.052
Mof_H 	H 	0.5309	0.8356	0.7177	0.045
Mof_H 	H 	0.5832	0.9084	0.7259	0.035
Mof_C 	C 	0.57366	0.8938	0.8586	0.087
Mof_H 	H 	0.5736	0.9849	0.8656	-0.065
Mof_C 	C 	0.5791	0.6874	0.8696	0.06
Mof_H 	H 	0.5845	0.6046	0.888	-0.054
Mof_C 	C 	0.6082	0.1456	0.7451	-0.056
Mof_H 	H 	0.6238	0.2169	0.7704	0.02
Mof_H 	H 	0.6219	0.0619	0.7617	0.01
Mof_C 	C 	0.59203	0.1486	0.6294	0.097
Mof_H 	H 	0.558	0.1267	0.6244	-0.068
Mof_C 	C 	0.665	0.1946	0.6134	0.077
Mof_H 	H 	0.6924	0.2134	0.5928	-0.059
Mof_C 	C 	0.5541	0.3968	0.7461	-0.084
Mof_H 	H 	0.5377	0.4645	0.7679	0.056
Mof_H 	H 	0.5881	0.3853	0.7665	0.042
Mof_C 	C 	0.5231	0.4287	0.6345	0.096
Mof_H 	H 	0.4927	0.3832	0.6331	-0.062
Mof_C 	C 	0.5831	0.5401	0.6112	0.1
Mof_H 	H 	0.6033	0.5899	0.5885	-0.049
Mof_N 	N 	0.58352	0.8022	0.90101	-0.338
Mof_N 	N 	0.56386	0.8373	0.8047	-0.108
Mof_N 	N 	0.56655	0.7022	0.8107	-0.112
Mof_N 	N 	0.61856	0.1711	0.58476	-0.324
Mof_N 	N 	0.62017	0.1614	0.6826	-0.104
Mof_N 	N 	0.66813	0.1886	0.6736	-0.122
Mof_N 	N 	0.53876	0.4894	0.5876	-0.327
Mof_N 	N 	0.55612	0.441	0.68348	-0.09
Mof_N 	N 	0.5955	0.5135	0.669	-0.182
Mof_H 	H 	0.6223	0.5366	0.6923	0.103
Mof_O 	O 	0.66771	0.0798	0.47939	-0.785
Mof_O 	O 	0.6692	0.8158	0.46026	-0.768
Mof_O 	O 	0.76368	0.0692	0.44351	-0.655
Mof_O 	O 	0.84553	0.9382	0.58321	-0.608
Mof_O 	O 	0.93605	0.9362	0.53944	-0.727
Mof_O 	O 	0.91737	0.6968	0.49525	-0.683
Mof_O 	O 	0.83905	0.8774	0.47071	-0.63
Mof_O 	O 	0.74879	0.6177	0.48538	-0.699
Mof_O 	O 	0.7507	0.8167	0.39646	-0.625
Mof_O 	O 	0.95931	0.4606	0.50569	-0.672
Mof_Zn	Zn	0.89955	0.66797	0.00729	1.146
Mof_Mo	Mo	0.7987	0.47477	0.0626	1.524
Mof_Mo	Mo	0.69248	0.54722	0.98067	1.101
Mof_Mo	Mo	0.60841	0.31742	0.94564	1.619
Mof_Mo	Mo	0.70558	0.2359	0.04966	1.477
Mof_Mo	Mo	0.52374	0.1372	0.02827	0.894
Mof_C 	C 	0.97385	0.5268	0.7523	0.042
Mof_C 	C 	0.9482	0.6477	0.7533	-0.061
Mof_C 	C 	0.97428	0.7676	0.7521	0.042
Mof_C 	C 	0.9477	0.3956	0.7562	-0.109
Mof_H 	H 	0.9691	0.3356	0.7823	0.064
Mof_H 	H 	0.9168	0.4084	0.7741	0.042
Mof_C 	C 	0.92634	0.3938	0.6414	0.085
Mof_H 	H 	0.9264	0.4849	0.6344	-0.074
Mof_C 	C 	0.9209	0.1874	0.6304	0.062
Mof_H 	H 	0.9155	0.1046	0.612	-0.062
Mof_C 	C 	0.8918	0.6456	0.7549	-0.036
Mof_H 	H 	0.8762	0.7169	0.7296	0.017
Mof_H 	H 	0.8781	0.5619	0.7383	0.012
Mof_C 	C 	0.90797	0.6486	0.8706	0.102
Mof_H 	H 	0.942	0.6267	0.8756	-0.057
Mof_C 	C 	0.835	0.6946	0.8866	0.084
Mof_H 	H 	0.8076	0.7134	0.9072	-0.052
Mof_C 	C 	0.9459	0.8968	0.7539	-0.111
Mof_H 	H 	0.9623	0.9645	0.7321	0.078
Mof_H 	H 	0.9119	0.8853	0.7335	0.056
Mof_C 	C 	0.9769	0.9287	0.8655	0.152
Mof_H 	H 	0.0073	0.8832	0.8669	-0.093
Mof_C 	C 	0.9169	0.0401	0.8888	0.064
Mof_H 	H 	0.8967	0.0899	0.9115	-0.037
Mof_N 	N 	0.91648	0.3022	0.59899	-0.338
Mof_N 	N 	0.93614	0.3373	0.6953	-0.101
Mof_N 	N 	0.93345	0.2022	0.6893	-0.116
Mof_N 	N 	0.88144	0.6711	0.91524	-0.312
Mof_N 	N 	0.87983	0.6614	0.8174	-0.104
Mof_N 	N 	0.83187	0.6886	0.8264	-0.118
Mof_N 	N 	0.96124	0.9894	0.9124	-0.299
Mof_N 	N 	0.94388	0.941	0.81652	-0.082
Mof_N 	N 	0.9045	0.0135	0.831	-0.187
Mof_H 	H 	0.8777	0.0366	0.8077	0.095
Mof_O 	O 	0.83229	0.5798	0.02061	-0.771
Mof_O 	O 	0.8308	0.3158	0.03974	-0.771
Mof_O 	O 	0.73632	0.5692	0.05649	-0.657
Mof_O 	O 	0.65447	0.4382	0.91679	-0.637
Mof_O 	O 	0.56395	0.4362	0.96056	-0.736
Mof_O 	O 	0.58263	0.1968	0.00475	-0.696
Mof_O 	O 	0.66095	0.3774	0.02929	-0.661
Mof_O 	O 	0.75121	0.1177	0.01462	-0.714
Mof_O 	O 	0.7493	0.3167	0.10354	-0.62
Mof_O 	O 	0.54069	0.9606	0.99431	-0.65
Mof_Zn	Zn	0.39955	0.16797	0.00729	1.144
Mof_Mo	Mo	0.2987	0.97477	0.0626	1.576
Mof_Mo	Mo	0.19248	0.04722	0.98067	1.038
Mof_Mo	Mo	0.10841	0.81742	0.94564	1.632
Mof_Mo	Mo	0.20558	0.7359	0.04966	1.482
Mof_Mo	Mo	0.02374	0.6372	0.02827	0.883
Mof_C 	C 	0.47385	0.0268	0.7523	-0.036
Mof_C 	C 	0.4482	0.1477	0.7533	-0.025
Mof_C 	C 	0.47428	0.2676	0.7521	-0.014
Mof_C 	C 	0.4477	0.8956	0.7562	-0.052
Mof_H 	H 	0.4691	0.8356	0.7823	0.045
Mof_H 	H 	0.4168	0.9084	0.7741	0.035
Mof_C 	C 	0.42634	0.8938	0.6414	0.088
Mof_H 	H 	0.4264	0.9849	0.6344	-0.066
Mof_C 	C 	0.4209	0.6874	0.6304	0.059
Mof_H 	H 	0.4155	0.6046	0.612	-0.053
Mof_C 	C 	0.3918	0.1456	0.7549	-0.056
Mof_H 	H 	0.3762	0.2169	0.7296	0.021
Mof_H 	H 	0.3781	0.0619	0.7383	0.01
Mof_C 	C 	0.40797	0.1486	0.8706	0.097
Mof_H 	H 	0.442	0.1267	0.8756	-0.066
Mof_C 	C 	0.335	0.1946	0.8866	0.078
Mof_H 	H 	0.3076	0.2134	0.9072	-0.054
Mof_C 	C 	0.4459	0.3968	0.7539	-0.085
Mof_H 	H 	0.4623	0.4645	0.7321	0.056
Mof_H 	H 	0.4119	0.3853	0.7335	0.043
Mof_C 	C 	0.4769	0.4287	0.8655	0.098
Mof_H 	H 	0.5073	0.3832	0.8669	-0.062
Mof_C 	C 	0.4169	0.5401	0.8888	0.102
Mof_H 	H 	0.3967	0.5899	0.9115	-0.046
Mof_N 	N 	0.41648	0.8022	0.59899	-0.338
Mof_N 	N 	0.43614	0.8373	0.6953	-0.108
Mof_N 	N 	0.43345	0.7022	0.6893	-0.112
Mof_N 	N 	0.38144	0.1711	0.91524	-0.316
Mof_N 	N 	0.37983	0.1614	0.8174	-0.104
Mof_N 	N 	0.33187	0.1886	0.8264	-0.122
Mof_N 	N 	0.46124	0.4894	0.9124	-0.321
Mof_N 	N 	0.44388	0.441	0.81652	-0.09
Mof_N 	N 	0.4045	0.5135	0.831	-0.182
Mof_H 	H 	0.3777	0.5366	0.8077	0.104
Mof_O 	O 	0.33229	0.0798	0.02061	-0.791
Mof_O 	O 	0.3308	0.8158	0.03974	-0.779
Mof_O 	O 	0.23632	0.0692	0.05649	-0.667
Mof_O 	O 	0.15447	0.9382	0.91679	-0.615
Mof_O 	O 	0.06395	0.9362	0.96056	-0.728
Mof_O 	O 	0.08263	0.6968	0.00475	-0.693
Mof_O 	O 	0.16095	0.8774	0.02929	-0.651
Mof_O 	O 	0.25121	0.6177	0.01462	-0.713
Mof_O 	O 	0.2493	0.8167	0.10354	-0.619
Mof_O 	O 	0.04069	0.4606	0.99431	-0.675
Mof_Zn	Zn	0.89955	0.33203	0.50729	1.15
Mof_Mo	Mo	0.7987	0.52523	0.5626	1.539
Mof_Mo	Mo	0.69248	0.45278	0.48067	1.044
Mof_Mo	Mo	0.60841	0.68258	0.44564	1.595
Mof_Mo	Mo	0.70558	0.7641	0.54966	1.526
Mof_Mo	Mo	0.52374	0.8628	0.52827	0.974
Mof_C 	C 	0.97385	0.4732	0.2523	0.045
Mof_C 	C 	0.9482	0.3523	0.2533	-0.062
Mof_C 	C 	0.97428	0.2324	0.2521	0.044
Mof_C 	C 	0.9477	0.6044	0.2562	-0.111
Mof_H 	H 	0.9691	0.6644	0.2823	0.069
Mof_H 	H 	0.9168	0.5916	0.2741	0.044
Mof_C 	C 	0.92634	0.6062	0.1414	0.087
Mof_H 	H 	0.9264	0.5151	0.1344	-0.074
Mof_C 	C 	0.9209	0.8126	0.1304	0.063
Mof_H 	H 	0.9155	0.8954	0.112	-0.043
Mof_C 	C 	0.8918	0.3544	0.2549	-0.036
Mof_H 	H 	0.8762	0.2831	0.2296	0.014
Mof_H 	H 	0.8781	0.4381	0.2383	0.012
Mof_C 	C 	0.90797	0.3514	0.3706	0.099
Mof_H 	H 	0.942	0.3733	0.3756	-0.06
Mof_C 	C 	0.835	0.3054	0.3866	0.078
Mof_H 	H 	0.8076	0.2866	0.4072	-0.058
Mof_C 	C 	0.9459	0.1032	0.2539	-0.104
Mof_H 	H 	0.9623	0.0355	0.2321	0.064
Mof_H 	H 	0.9119	0.1147	0.2335	0.045
Mof_C 	C 	0.9769	0.0713	0.3655	0.147
Mof_H 	H 	0.0073	0.1168	0.3669	-0.1
Mof_C 	C 	0.9169	0.9599	0.3888	0.131
Mof_H 	H 	0.8967	0.9101	0.4115	-0.055
Mof_N 	N 	0.91648	0.6978	0.09899	-0.336
Mof_N 	N 	0.93614	0.6627	0.1953	-0.1
Mof_N 	N 	0.93345	0.7978	0.1893	-0.105
Mof_N 	N 	0.88144	0.3289	0.41524	-0.323
Mof_N 	N 	0.87983	0.3386	0.3174	-0.106
Mof_N 	N 	0.83187	0.3114	0.3264	-0.122
Mof_N 	N 	0.96124	0.0106	0.4124	-0.346
Mof_N 	N 	0.94388	0.059	0.31652	-0.104
Mof_N 	N 	0.9045	0.9865	0.331	-0.178
Mof_H 	H 	0.8777	0.9634	0.3077	0.109
Mof_O 	O 	0.83229	0.4202	0.52061	-0.761
Mof_O 	O 	0.8308	0.6842	0.53974	-0.761
Mof_O 	O 	0.73632	0.4308	0.55649	-0.639
Mof_O 	O 	0.65447	0.5618	0.41679	-0.629
Mof_O 	O 	0.56395	0.5638	0.46056	-0.747
Mof_O 	O 	0.58263	0.8032	0.50475	-0.676
Mof_O 	O 	0.66095	0.6226	0.52929	-0.643
Mof_O 	O 	0.75121	0.8823	0.51462	-0.691
Mof_O 	O 	0.7493	0.6833	0.60354	-0.623
Mof_O 	O 	0.54069	0.0394	0.49431	-0.697
Mof_Zn	Zn	0.39955	0.83203	0.50729	1.149
Mof_Mo	Mo	0.2987	0.02523	0.5626	1.471
Mof_Mo	Mo	0.19248	0.95278	0.48067	1.096
Mof_Mo	Mo	0.10841	0.18258	0.44564	1.583
Mof_Mo	Mo	0.20558	0.2641	0.54966	1.515
Mof_Mo	Mo	0.02374	0.3628	0.52827	0.906
Mof_C 	C 	0.47385	0.9732	0.2523	0.009
Mof_C 	C 	0.4482	0.8523	0.2533	-0.031
Mof_C 	C 	0.47428	0.7324	0.2521	-0.011
Mof_C 	C 	0.4477	0.1044	0.2562	-0.111
Mof_H 	H 	0.4691	0.1644	0.2823	0.056
Mof_H 	H 	0.4168	0.0916	0.2741	0.036
Mof_C 	C 	0.42634	0.1062	0.1414	0.08
Mof_H 	H 	0.4264	0.0151	0.1344	-0.085
Mof_C 	C 	0.4209	0.3126	0.1304	0.057
Mof_H 	H 	0.4155	0.3954	0.112	-0.052
Mof_C 	C 	0.3918	0.8544	0.2549	-0.053
Mof_H 	H 	0.3762	0.7831	0.2296	0.022
Mof_H 	H 	0.3781	0.9381	0.2383	0.025
Mof_C 	C 	0.40797	0.8514	0.3706	0.103
Mof_H 	H 	0.442	0.8733	0.3756	-0.062
Mof_C 	C 	0.335	0.8054	0.3866	0.083
Mof_H 	H 	0.3076	0.7866	0.4072	-0.058
Mof_C 	C 	0.4459	0.6032	0.2539	-0.086
Mof_H 	H 	0.4623	0.5355	0.2321	0.057
Mof_H 	H 	0.4119	0.6147	0.2335	0.044
Mof_C 	C 	0.4769	0.5713	0.3655	0.096
Mof_H 	H 	0.5073	0.6168	0.3669	-0.062
Mof_C 	C 	0.4169	0.4599	0.3888	0.099
Mof_H 	H 	0.3967	0.4101	0.4115	-0.049
Mof_N 	N 	0.41648	0.1978	0.09899	-0.339
Mof_N 	N 	0.43614	0.1627	0.1953	-0.106
Mof_N 	N 	0.43345	0.2978	0.1893	-0.113
Mof_N 	N 	0.38144	0.8289	0.41524	-0.322
Mof_N 	N 	0.37983	0.8386	0.3174	-0.102
Mof_N 	N 	0.33187	0.8114	0.3264	-0.118
Mof_N 	N 	0.46124	0.5106	0.4124	-0.326
Mof_N 	N 	0.44388	0.559	0.31652	-0.09
Mof_N 	N 	0.4045	0.4865	0.331	-0.182
Mof_H 	H 	0.3777	0.4634	0.3077	0.102
Mof_O 	O 	0.33229	0.9202	0.52061	-0.735
Mof_O 	O 	0.3308	0.1842	0.53974	-0.754
Mof_O 	O 	0.23632	0.9308	0.55649	-0.62
Mof_O 	O 	0.15447	0.0618	0.41679	-0.647
Mof_O 	O 	0.06395	0.0638	0.46056	-0.76
Mof_O 	O 	0.08263	0.3032	0.50475	-0.671
Mof_O 	O 	0.16095	0.1226	0.52929	-0.654
Mof_O 	O 	0.25121	0.3823	0.51462	-0.697
Mof_O 	O 	0.2493	0.1833	0.60354	-0.624
Mof_O 	O 	0.04069	0.5394	0.49431	-0.695
Mof_Zn	Zn	0.10045	0.33203	0.99271	1.153
Mof_Mo	Mo	0.2013	0.52523	0.9374	1.556
Mof_Mo	Mo	0.30752	0.45278	0.01933	0.992
Mof_Mo	Mo	0.39159	0.68258	0.05436	1.55
Mof_Mo	Mo	0.29442	0.7641	0.95034	1.562
Mof_Mo	Mo	0.47626	0.8628	0.97173	1.01
Mof_C 	C 	0.02615	0.4732	0.2477	-0.066
Mof_C 	C 	0.0518	0.3523	0.2467	0.005
Mof_C 	C 	0.02572	0.2324	0.2479	-0.07
Mof_C 	C 	0.0523	0.6044	0.2438	-0.059
Mof_H 	H 	0.0309	0.6644	0.2177	0.038
Mof_H 	H 	0.0832	0.5916	0.2259	0.029
Mof_C 	C 	0.07366	0.6062	0.3586	0.081
Mof_H 	H 	0.0736	0.5151	0.3656	-0.079
Mof_C 	C 	0.0791	0.8126	0.3696	0.054
Mof_H 	H 	0.0845	0.8954	0.388	-0.044
Mof_C 	C 	0.1082	0.3544	0.2451	-0.073
Mof_H 	H 	0.1238	0.2831	0.2704	0.026
Mof_H 	H 	0.1219	0.4381	0.2617	0.024
Mof_C 	C 	0.09203	0.3514	0.1294	0.098
Mof_H 	H 	0.058	0.3733	0.1244	-0.072
Mof_C 	C 	0.165	0.3054	0.1134	0.077
Mof_H 	H 	0.1924	0.2866	0.0928	-0.063
Mof_C 	C 	0.0541	0.1032	0.2461	-0.058
Mof_H 	H 	0.0377	0.0355	0.2679	0.035
Mof_H 	H 	0.0881	0.1147	0.2665	0.03
Mof_C 	C 	0.0231	0.0713	0.1345	0.035
Mof_H 	H 	0.9927	0.1168	0.1331	-0.025
Mof_C 	C 	0.0831	0.9599	0.1112	0.128
Mof_H 	H 	0.1033	0.9101	0.0885	-0.059
Mof_N 	N 	0.08352	0.6978	0.40101	-0.34
Mof_N 	N 	0.06386	0.6627	0.3047	-0.112
Mof_N 	N 	0.06655	0.7978	0.3107	-0.11
Mof_N 	N 	0.11856	0.3289	0.08476	-0.333
Mof_N 	N 	0.12017	0.3386	0.1826	-0.101
Mof_N 	N 	0.16813	0.3114	0.1736	-0.122
Mof_N 	N 	0.03876	0.0106	0.0876	-0.342
Mof_N 	N 	0.05612	0.059	0.18348	-0.095
Mof_N 	N 	0.0955	0.9865	0.169	-0.178
Mof_H 	H 	0.1223	0.9634	0.1923	0.109
Mof_O 	O 	0.16771	0.4202	0.97939	-0.75
Mof_O 	O 	0.1692	0.6842	0.96026	-0.75
Mof_O 	O 	0.26368	0.4308	0.94351	-0.621
Mof_O 	O 	0.34553	0.5618	0.08321	-0.617
Mof_O 	O 	0.43605	0.5638	0.03944	-0.751
Mof_O 	O 	0.41737	0.8032	0.99525	-0.654
Mof_O 	O 	0.33905	0.6226	0.97071	-0.621
Mof_O 	O 	0.24879	0.8823	0.98538	-0.672
Mof_O 	O 	0.2507	0.6833	0.89646	-0.63
Mof_O 	O 	0.45931	0.0394	0.00569	-0.715
Mof_Zn	Zn	0.60045	0.83203	0.99271	1.155
Mof_Mo	Mo	0.7013	0.02523	0.9374	1.478
Mof_Mo	Mo	0.80752	0.95278	0.01933	1.032
Mof_Mo	Mo	0.89159	0.18258	0.05436	1.552
Mof_Mo	Mo	0.79442	0.2641	0.95034	1.545
Mof_Mo	Mo	0.97626	0.3628	0.97173	1.015
Mof_C 	C 	0.52615	0.9732	0.2477	0.009
Mof_C 	C 	0.5518	0.8523	0.2467	-0.031
Mof_C 	C 	0.52572	0.7324	0.2479	-0.011
Mof_C 	C 	0.5523	0.1044	0.2438	-0.111
Mof_H 	H 	0.5309	0.1644	0.2177	0.057
Mof_H 	H 	0.5832	0.0916	0.2259	0.036
Mof_C 	C 	0.57366	0.1062	0.3586	0.079
Mof_H 	H 	0.5736	0.0151	0.3656	-0.085
Mof_C 	C 	0.5791	0.3126	0.3696	0.057
Mof_H 	H 	0.5845	0.3954	0.388	-0.053
Mof_C 	C 	0.6082	0.8544	0.2451	-0.052
Mof_H 	H 	0.6238	0.7831	0.2704	0.021
Mof_H 	H 	0.6219	0.9381	0.2617	0.024
Mof_C 	C 	0.59203	0.8514	0.1294	0.102
Mof_H 	H 	0.558	0.8733	0.1244	-0.066
Mof_C 	C 	0.665	0.8054	0.1134	0.082
Mof_H 	H 	0.6924	0.7866	0.0928	-0.063
Mof_C 	C 	0.5541	0.6032	0.2461	-0.086
Mof_H 	H 	0.5377	0.5355	0.2679	0.056
Mof_H 	H 	0.5881	0.6147	0.2665	0.043
Mof_C 	C 	0.5231	0.5713	0.1345	0.094
Mof_H 	H 	0.4927	0.6168	0.1331	-0.062
Mof_C 	C 	0.5831	0.4599	0.1112	0.097
Mof_H 	H 	0.6033	0.4101	0.0885	-0.052
Mof_N 	N 	0.58352	0.1978	0.40101	-0.34
Mof_N 	N 	0.56386	0.1627	0.3047	-0.106
Mof_N 	N 	0.56655	0.2978	0.3107	-0.113
Mof_N 	N 	0.61856	0.8289	0.08476	-0.332
Mof_N 	N 	0.62017	0.8386	0.1826	-0.102
Mof_N 	N 	0.66813	0.8114	0.1736	-0.119
Mof_N 	N 	0.53876	0.5106	0.0876	-0.33
Mof_N 	N 	0.55612	0.559	0.18348	-0.09
Mof_N 	N 	0.5955	0.4865	0.169	-0.182
Mof_H 	H 	0.6223	0.4634	0.1923	0.102
Mof_O 	O 	0.66771	0.9202	0.97939	-0.721
Mof_O 	O 	0.6692	0.1842	0.96026	-0.744
Mof_O 	O 	0.76368	0.9308	0.94351	-0.598
Mof_O 	O 	0.84553	0.0618	0.08321	-0.634
Mof_O 	O 	0.93605	0.0638	0.03944	-0.75
Mof_O 	O 	0.91737	0.3032	0.99525	-0.664
Mof_O 	O 	0.83905	0.1226	0.97071	-0.634
Mof_O 	O 	0.74879	0.3823	0.98538	-0.684
Mof_O 	O 	0.7507	0.1833	0.89646	-0.629
Mof_O 	O 	0.95931	0.5394	0.00569	-0.69
Mof_Zn	Zn	0.5	0.5	0.5	1.138
Mof_Zn	Zn	1.74231e-33	0	0.5	1.121
Mof_Zn	Zn	0.5	0.5	-0	1.128
Mof_Zn	Zn	-0	0	-0	1.112
_end
