data_functionalizedCrystal
_audit_creation_method	'EQeq! by Chris Wilmer'
_symmetry_space_group_name_H-M	'P1'
_symmetry_Int_Tables_number	1
_symmetry_cell_setting	triclinic
loop_
_symmetry_equiv_pos_as_xyz
  x,y,z
_cell_length_a	10.932
_cell_length_b	16.713
_cell_length_c	18.893
_cell_angle_alpha	90
_cell_angle_beta	90
_cell_angle_gamma	90
loop_
_atom_site_label
_atom_site_type_symbol
_atom_site_fract_x
_atom_site_fract_y
_atom_site_fract_z
_atom_site_charge
Mof_Tb	Tb	0.29423	0.25	0.70461	1.953
Mof_Tb	Tb	0.20577	0.75	0.20461	1.953
Mof_Tb	Tb	0.70577	0.75	0.29539	1.954
Mof_Tb	Tb	0.79423	0.25	0.79539	1.954
Mof_H 	H 	0.5385	0.0104	0.819	-0.015
Mof_H 	H 	0.4805	0.3279	0.9582	0.081
Mof_H 	H 	0.9743	0.75	0.9135	0.055
Mof_H 	H 	0.9714	0.8934	0.6352	0.119
Mof_H 	H 	0.2498	0.0468	0.5126	0.002
Mof_H 	H 	0.9615	0.9896	0.319	-0.017
Mof_H 	H 	0.3218	0.0706	0.9626	0.096
Mof_H 	H 	0.364	0.25	0.2069	0.284
Mof_H 	H 	0.7498	0.4532	0.9874	0.003
Mof_H 	H 	0.6782	0.9294	0.0374	0.096
Mof_H 	H 	0.1782	0.5706	0.4626	0.099
Mof_H 	H 	0.5286	0.3934	0.1352	0.119
Mof_H 	H 	0.2502	0.9532	0.0126	0.004
Mof_H 	H 	0.5195	0.8279	0.0418	0.081
Mof_H 	H 	0.5385	0.4896	0.819	-0.014
Mof_H 	H 	0.0747	0.3209	0.4795	0.094
Mof_H 	H 	0.4615	0.9896	0.181	-0.015
Mof_H 	H 	0.4743	0.75	0.5865	0.057
Mof_H 	H 	0.8218	0.4294	0.5374	0.099
Mof_H 	H 	0.5195	0.6721	0.0418	0.081
Mof_H 	H 	0.0747	0.1791	0.4795	0.094
Mof_H 	H 	0.0195	0.6721	0.4582	0.082
Mof_H 	H 	0.9644	0.25	0.9696	0.038
Mof_H 	H 	0.3218	0.4294	0.9626	0.099
Mof_H 	H 	0.9805	0.1721	0.5418	0.082
Mof_H 	H 	0.8218	0.0706	0.5374	0.1
Mof_H 	H 	0.4615	0.5104	0.181	-0.014
Mof_H 	H 	0.5286	0.1066	0.1352	0.119
Mof_H 	H 	0.9805	0.3279	0.5418	0.082
Mof_H 	H 	0.5747	0.1791	0.0205	0.094
Mof_H 	H 	0.4644	0.25	0.5304	0.034
Mof_H 	H 	0.4253	0.6791	0.9795	0.094
Mof_H 	H 	0.9615	0.5104	0.319	-0.014
Mof_H 	H 	0.0195	0.8279	0.4582	0.082
Mof_H 	H 	0.636	0.75	0.7931	0.284
Mof_H 	H 	0.6782	0.5706	0.0374	0.099
Mof_H 	H 	0.0356	0.75	0.0304	0.038
Mof_H 	H 	0.0385	0.0104	0.681	-0.017
Mof_H 	H 	0.2498	0.4532	0.5126	0.003
Mof_H 	H 	0.0385	0.4896	0.681	-0.014
Mof_H 	H 	0.2502	0.5468	0.0126	0.003
Mof_H 	H 	0.0286	0.1066	0.3648	0.119
Mof_H 	H 	0.7498	0.0468	0.9874	0.004
Mof_H 	H 	0.864	0.25	0.2931	0.284
Mof_H 	H 	0.4805	0.1721	0.9582	0.081
Mof_H 	H 	0.5747	0.3209	0.0205	0.094
Mof_H 	H 	0.4714	0.8934	0.8648	0.119
Mof_H 	H 	0.1835	0.75	0.4092	0.013
Mof_H 	H 	0.0257	0.25	0.0865	0.055
Mof_H 	H 	0.7502	0.9532	0.4874	0.002
Mof_H 	H 	0.4253	0.8209	0.9795	0.094
Mof_H 	H 	0.5257	0.25	0.4135	0.057
Mof_H 	H 	0.136	0.75	0.7069	0.284
Mof_H 	H 	0.1782	0.9294	0.4626	0.1
Mof_H 	H 	0.0286	0.3934	0.3648	0.119
Mof_H 	H 	0.8165	0.25	0.5908	0.013
Mof_H 	H 	0.5356	0.75	0.4696	0.034
Mof_H 	H 	0.9253	0.6791	0.5205	0.094
Mof_H 	H 	0.4714	0.6066	0.8648	0.119
Mof_H 	H 	0.7502	0.5468	0.4874	0.003
Mof_H 	H 	0.9714	0.6066	0.6352	0.119
Mof_H 	H 	0.9253	0.8209	0.5205	0.094
Mof_H 	H 	0.6835	0.75	0.0908	0.015
Mof_H 	H 	0.3165	0.25	0.9092	0.015
Mof_C 	C 	0.8996	0.75	0.147	0.533
Mof_C 	C 	0.9744	0.4248	0.3907	-0.216
Mof_C 	C 	0.6919	0.4836	0.9634	0.111
Mof_C 	C 	0.0635	0.8995	0.5421	0.179
Mof_C 	C 	0.2945	0.75	0.5703	-0.091
Mof_C 	C 	0.4331	0.4943	0.1368	0.129
Mof_C 	C 	0.7424	0.75	0.0553	-0.013
Mof_C 	C 	0.0669	0.5057	0.6368	0.129
Mof_C 	C 	0.3508	0.0543	0.0066	-0.198
Mof_C 	C 	0.1496	0.4579	0.6018	-0.182
Mof_C 	C 	0.8078	0.8815	0.3683	0.352
Mof_C 	C 	0.5635	0.6005	0.9579	0.178
Mof_C 	C 	0.741	0.25	0.3521	0.379
Mof_C 	C 	0.3632	0.75	0.428	-0.168
Mof_C 	C 	0.6919	0.0164	0.9634	0.108
Mof_C 	C 	0.8508	0.4457	0.4934	-0.204
Mof_C 	C 	0.0669	0.9943	0.6368	0.136
Mof_C 	C 	0.4152	0.75	0.5511	-0.033
Mof_C 	C 	0.8081	0.5164	0.4634	0.112
Mof_C 	C 	0.0635	0.6005	0.5421	0.178
Mof_C 	C 	0.9744	0.0752	0.3907	-0.219
Mof_C 	C 	0.9365	0.3995	0.4579	0.178
Mof_C 	C 	0.5117	0.8246	0.9908	-0.188
Mof_C 	C 	0.4883	0.3246	0.0092	-0.189
Mof_C 	C 	0.8081	0.9836	0.4634	0.112
Mof_C 	C 	0.3081	0.9836	0.0366	0.108
Mof_C 	C 	0.8078	0.6185	0.3683	0.351
Mof_C 	C 	0.0471	0.25	0.9811	0.019
Mof_C 	C 	0.1492	0.9457	0.5066	-0.204
Mof_C 	C 	0.9152	0.75	0.9489	-0.026
Mof_C 	C 	0.3996	0.75	0.353	0.537
Mof_C 	C 	0.5635	0.8995	0.9579	0.176
Mof_C 	C 	0.3081	0.5164	0.0366	0.111
Mof_C 	C 	0.1919	0.0164	0.5366	0.112
Mof_C 	C 	0.4365	0.1005	0.0421	0.176
Mof_C 	C 	0.9365	0.1005	0.4579	0.179
Mof_C 	C 	0.9883	0.1754	0.4908	-0.19
Mof_C 	C 	0.6922	0.1185	0.8683	0.351
Mof_C 	C 	0.4744	0.4248	0.1093	-0.216
Mof_C 	C 	0.0256	0.9248	0.6093	-0.219
Mof_C 	C 	0.1368	0.25	0.928	-0.163
Mof_C 	C 	0.3504	0.9579	0.1018	-0.182
Mof_C 	C 	0.6496	0.0421	0.8982	-0.182
Mof_C 	C 	0.241	0.25	0.1479	0.38
Mof_C 	C 	0.3508	0.4457	0.0066	-0.202
Mof_C 	C 	0.9331	0.0057	0.3632	0.136
Mof_C 	C 	0.7067	0.75	0.9816	0.077
Mof_C 	C 	0.759	0.75	0.8521	0.38
Mof_C 	C 	0.6496	0.4579	0.8982	-0.182
Mof_C 	C 	0.3078	0.8815	0.1317	0.351
Mof_C 	C 	0.3504	0.5421	0.1018	-0.182
Mof_C 	C 	0.5669	0.5057	0.8632	0.129
Mof_C 	C 	0.0117	0.8246	0.5092	-0.19
Mof_C 	C 	0.5471	0.25	0.5189	0.028
Mof_C 	C 	0.4883	0.1754	0.0092	-0.188
Mof_C 	C 	0.7055	0.25	0.4297	-0.091
Mof_C 	C 	0.1922	0.3815	0.6317	0.351
Mof_C 	C 	0.3078	0.6185	0.1317	0.351
Mof_C 	C 	0.9331	0.4943	0.3632	0.129
Mof_C 	C 	0.7576	0.25	0.5553	-0.008
Mof_C 	C 	0.6492	0.5543	0.9934	-0.202
Mof_C 	C 	0.4365	0.3995	0.0421	0.178
Mof_C 	C 	0.7933	0.25	0.4816	0.074
Mof_C 	C 	0.0848	0.25	0.0511	-0.026
Mof_C 	C 	0.9883	0.3246	0.4908	-0.19
Mof_C 	C 	0.0256	0.5752	0.6093	-0.216
Mof_C 	C 	0.4744	0.0752	0.1093	-0.216
Mof_C 	C 	0.5669	0.9943	0.8632	0.131
Mof_C 	C 	0.7945	0.75	0.9297	-0.095
Mof_C 	C 	0.2067	0.75	0.5184	0.074
Mof_C 	C 	0.259	0.75	0.6479	0.379
Mof_C 	C 	0.2424	0.75	0.4447	-0.008
Mof_C 	C 	0.1492	0.5543	0.5066	-0.204
Mof_C 	C 	0.8632	0.75	0.072	-0.163
Mof_C 	C 	0.5117	0.6754	0.9908	-0.189
Mof_C 	C 	0.4331	0.0057	0.1368	0.131
Mof_C 	C 	0.2576	0.25	0.9447	-0.013
Mof_C 	C 	0.2933	0.25	0.0184	0.077
Mof_C 	C 	0.0117	0.6754	0.5092	-0.19
Mof_C 	C 	0.6492	0.9457	0.9934	-0.198
Mof_C 	C 	0.5256	0.5752	0.8907	-0.216
Mof_C 	C 	0.6922	0.3815	0.8683	0.351
Mof_C 	C 	0.8504	0.9579	0.3982	-0.186
Mof_C 	C 	0.6004	0.25	0.647	0.537
Mof_C 	C 	0.1496	0.0421	0.6018	-0.186
Mof_C 	C 	0.5848	0.25	0.4489	-0.033
Mof_C 	C 	0.1922	0.1185	0.6317	0.352
Mof_C 	C 	0.1919	0.4836	0.5366	0.112
Mof_C 	C 	0.4529	0.75	0.4811	0.028
Mof_C 	C 	0.5256	0.9248	0.8907	-0.216
Mof_C 	C 	0.1004	0.25	0.853	0.533
Mof_C 	C 	0.2055	0.25	0.0703	-0.095
Mof_C 	C 	0.9529	0.75	0.0189	0.019
Mof_C 	C 	0.8504	0.5421	0.3982	-0.182
Mof_C 	C 	0.6368	0.25	0.572	-0.168
Mof_C 	C 	0.8508	0.0543	0.4934	-0.204
Mof_N 	N 	0.4244	0.25	0.035	-0.06
Mof_N 	N 	0.9244	0.25	0.465	-0.059
Mof_N 	N 	0.5756	0.75	0.965	-0.06
Mof_N 	N 	0.0756	0.75	0.535	-0.059
Mof_O 	O 	0.6592	0.25	0.3074	-0.283
Mof_O 	O 	0.1592	0.25	0.1926	-0.284
Mof_O 	O 	0.356	0.25	0.1638	-0.475
Mof_O 	O 	0.2147	0.8467	0.1081	-0.438
Mof_O 	O 	0.6853	0.25	0.693	-0.584
Mof_O 	O 	0.9889	0.25	0.8362	-0.576
Mof_O 	O 	0.7147	0.8467	0.3919	-0.438
Mof_O 	O 	0.1371	0.3502	0.6838	-0.463
Mof_O 	O 	0.8629	0.8502	0.3162	-0.464
Mof_O 	O 	0.3629	0.6498	0.1838	-0.463
Mof_O 	O 	0.644	0.75	0.8362	-0.475
Mof_O 	O 	0.1853	0.25	0.807	-0.583
Mof_O 	O 	0.4889	0.25	0.6638	-0.577
Mof_O 	O 	0.8629	0.6498	0.3162	-0.463
Mof_O 	O 	0.856	0.25	0.3362	-0.475
Mof_O 	O 	0.7853	0.1533	0.8919	-0.438
Mof_O 	O 	0.7853	0.3467	0.8919	-0.438
Mof_O 	O 	0.2853	0.3467	0.6081	-0.438
Mof_O 	O 	0.0111	0.75	0.1638	-0.576
Mof_O 	O 	0.144	0.75	0.6638	-0.475
Mof_O 	O 	0.3147	0.75	0.307	-0.584
Mof_O 	O 	0.6371	0.1498	0.8162	-0.463
Mof_O 	O 	0.3408	0.75	0.6926	-0.283
Mof_O 	O 	0.8408	0.75	0.8074	-0.284
Mof_O 	O 	0.3629	0.8502	0.1838	-0.463
Mof_O 	O 	0.2147	0.6533	0.1081	-0.438
Mof_O 	O 	0.7147	0.6533	0.3919	-0.438
Mof_O 	O 	0.1371	0.1498	0.6838	-0.464
Mof_O 	O 	0.8147	0.75	0.193	-0.583
Mof_O 	O 	0.2853	0.1533	0.6081	-0.438
Mof_O 	O 	0.5111	0.75	0.3362	-0.577
Mof_O 	O 	0.6371	0.3502	0.8162	-0.463
_end
