data_functionalizedCrystal
_audit_creation_method	'EQeq! by Chris Wilmer'
_symmetry_space_group_name_H-M	'P1'
_symmetry_Int_Tables_number	1
_symmetry_cell_setting	triclinic
loop_
_symmetry_equiv_pos_as_xyz
  x,y,z
_cell_length_a	10.08
_cell_length_b	13.063
_cell_length_c	17.815
_cell_angle_alpha	79.029
_cell_angle_beta	86.325
_cell_angle_gamma	78.211
loop_
_atom_site_label
_atom_site_type_symbol
_atom_site_fract_x
_atom_site_fract_y
_atom_site_fract_z
_atom_site_charge
Mof_Cd	Cd	0.95709	0.90344	0.80099	0.429
Mof_Cd	Cd	0.04291	0.09656	0.19901	0.43
Mof_H 	H 	0.5932	0.1876	0.6962	0.032
Mof_H 	H 	0.4708	0.9177	0.7896	0.043
Mof_H 	H 	0.1967	0.1771	0.7048	0.036
Mof_H 	H 	0.2131	0.7355	0.7232	0.041
Mof_H 	H 	0.1862	0.5786	0.6715	0.062
Mof_H 	H 	0.829	0.7189	0.7434	0.017
Mof_H 	H 	0.8243	0.5815	0.6595	0.081
Mof_H 	H 	0.9642	0.5275	0.6275	0.083
Mof_H 	H 	0.0726	0.4508	0.796	0.079
Mof_H 	H 	0.0606	0.2961	0.882	0.07
Mof_H 	H 	0.7393	0.2618	0.7721	0.068
Mof_H 	H 	0.7564	0.4147	0.6845	0.068
Mof_H 	H 	0.8918	0.107	0.8661	0.093
Mof_H 	H 	0.7848	0.1763	0.913	0.082
Mof_H 	H 	0.1538	0.0994	0.9099	0.045
Mof_H 	H 	0.2377	0.07	0.0377	0.035
Mof_H 	H 	0.8495	0.1687	0.0485	0.019
Mof_H 	H 	0.4068	0.8124	0.3038	0.032
Mof_H 	H 	0.5292	0.0823	0.2104	0.043
Mof_H 	H 	0.8033	0.8229	0.2952	0.036
Mof_H 	H 	0.7869	0.2645	0.2768	0.041
Mof_H 	H 	0.8138	0.4214	0.3285	0.062
Mof_H 	H 	0.171	0.2811	0.2566	0.017
Mof_H 	H 	0.1757	0.4185	0.3405	0.081
Mof_H 	H 	0.0358	0.4725	0.3725	0.083
Mof_H 	H 	0.9274	0.5492	0.204	0.079
Mof_H 	H 	0.9394	0.7039	0.118	0.07
Mof_H 	H 	0.2607	0.7382	0.2279	0.068
Mof_H 	H 	0.2436	0.5853	0.3155	0.068
Mof_H 	H 	0.1082	0.893	0.1339	0.093
Mof_H 	H 	0.2152	0.8237	0.087	0.082
Mof_H 	H 	0.8462	0.9006	0.0901	0.045
Mof_H 	H 	0.7623	0.93	0.9623	0.035
Mof_H 	H 	0.1505	0.8313	0.9515	0.019
Mof_C 	C 	0.3871	0.1987	0.69581	-0.116
Mof_C 	C 	0.5238	0.1502	0.7108	0.049
Mof_C 	C 	0.5512	0.0451	0.74801	-0.105
Mof_C 	C 	0.6945	0.9899	0.76817	0.313
Mof_C 	C 	0.4489	0.9889	0.76658	0.038
Mof_C 	C 	0.3122	0.0354	0.75197	-0.113
Mof_C 	C 	0.2046	0.9755	0.77211	0.318
Mof_C 	C 	0.2857	0.1432	0.71556	0.054
Mof_C 	C 	0.1322	0.7124	0.72134	0.014
Mof_C 	C 	0.1183	0.626	0.69187	-0.018
Mof_C 	C 	0.9215	0.7036	0.7321	0.089
Mof_C 	C 	0.9165	0.54734	0.67321	-0.132
Mof_C 	C 	0.9157	0.44754	0.73178	0.079
Mof_C 	C 	0.0061	0.41258	0.79128	-0.067
Mof_C 	C 	0.9971	0.3206	0.8437	-0.066
Mof_C 	C 	0.896	0.265	0.8401	0.077
Mof_C 	C 	0.8053	0.3001	0.7774	-0.065
Mof_C 	C 	0.8161	0.3914	0.7247	-0.074
Mof_C 	C 	0.8773	0.1666	0.8929	-0.139
Mof_C 	C 	0.1018	0.1098	0.95379	-0.002
Mof_C 	C 	0.1476	0.0949	0.02437	0.012
Mof_C 	C 	0.9375	0.148	0.03011	0.09
Mof_C 	C 	0.6129	0.8013	0.30419	-0.116
Mof_C 	C 	0.4762	0.8498	0.2892	0.049
Mof_C 	C 	0.4488	0.9549	0.25199	-0.105
Mof_C 	C 	0.3055	0.0101	0.23183	0.313
Mof_C 	C 	0.5511	0.0111	0.23342	0.038
Mof_C 	C 	0.6878	0.9646	0.24803	-0.113
Mof_C 	C 	0.7954	0.0245	0.22789	0.318
Mof_C 	C 	0.7143	0.8568	0.28444	0.054
Mof_C 	C 	0.8678	0.2876	0.27866	0.014
Mof_C 	C 	0.8817	0.374	0.30813	-0.018
Mof_C 	C 	0.0785	0.2964	0.2679	0.089
Mof_C 	C 	0.0835	0.45266	0.32679	-0.132
Mof_C 	C 	0.0843	0.55246	0.26822	0.079
Mof_C 	C 	0.9939	0.58742	0.20872	-0.067
Mof_C 	C 	0.0029	0.6794	0.1563	-0.066
Mof_C 	C 	0.104	0.735	0.1599	0.077
Mof_C 	C 	0.1947	0.6999	0.2226	-0.065
Mof_C 	C 	0.1839	0.6086	0.2753	-0.074
Mof_C 	C 	0.1227	0.8334	0.1071	-0.139
Mof_C 	C 	0.8982	0.8902	0.04621	-0.002
Mof_C 	C 	0.8524	0.9051	0.97563	0.012
Mof_C 	C 	0.0625	0.852	0.96989	0.09
Mof_S 	S 	0.34497	0.33415	0.65077	0.551
Mof_S 	S 	0.65503	0.66585	0.34923	0.551
Mof_N 	N 	0.0065	0.7602	0.74817	-0.145
Mof_N 	N 	0.9785	0.62448	0.69898	-0.103
Mof_N 	N 	0.9682	0.1424	0.95775	-0.103
Mof_N 	N 	0.0448	0.1211	0.07355	-0.147
Mof_N 	N 	0.9935	0.2398	0.25183	-0.145
Mof_N 	N 	0.0215	0.37552	0.30102	-0.103
Mof_N 	N 	0.0318	0.8576	0.04225	-0.103
Mof_N 	N 	0.9552	0.8789	0.92645	-0.147
Mof_O 	O 	0.4579	0.35669	0.60061	-0.303
Mof_O 	O 	0.3251	0.39309	0.70982	-0.284
Mof_O 	O 	0.2277	0.34037	0.60888	-0.289
Mof_O 	O 	0.7873	0.04222	0.75257	-0.286
Mof_O 	O 	0.7185	0.89547	0.79658	-0.288
Mof_O 	O 	0.2313	0.88182	0.80544	-0.272
Mof_O 	O 	0.0842	0.02237	0.75746	-0.29
Mof_O 	O 	0.5421	0.64331	0.39939	-0.303
Mof_O 	O 	0.6749	0.60691	0.29018	-0.284
Mof_O 	O 	0.7723	0.65963	0.39112	-0.289
Mof_O 	O 	0.2127	0.95778	0.24743	-0.286
Mof_O 	O 	0.2815	0.10453	0.20342	-0.288
Mof_O 	O 	0.7687	0.11818	0.19456	-0.272
Mof_O 	O 	0.9158	0.97763	0.24254	-0.29
Mof_Cd	Cd	0.5	0.5	0.5	0.429
Mof_H 	H 	0.8514	0.4995	0.4802	0.04
Mof_H 	H 	0.0332	0.351	0.535	0.06
Mof_H 	H 	0.6828	0.2573	0.5595	0.024
Mof_H 	H 	0.0303	0.1665	0.6159	0.097
Mof_H 	H 	0.8894	0.1362	0.6405	0.104
Mof_H 	H 	0.0267	0.9552	0.629	0.066
Mof_H 	H 	0.9262	0.1741	0.4459	0.071
Mof_H 	H 	0.6314	0.7073	0.5142	0.029
Mof_H 	H 	0.5235	0.6974	0.7322	0.047
Mof_H 	H 	0.4654	0.5427	0.6869	0.049
Mof_H 	H 	0.7378	0.827	0.6045	0.081
Mof_H 	H 	0.6283	0.8612	0.6665	0.089
Mof_H 	H 	0.3767	0.9095	0.5914	0.065
Mof_H 	H 	0.7315	0.9641	0.5018	0.063
Mof_H 	H 	0.1486	0.5005	0.5198	0.04
Mof_H 	H 	0.9668	0.649	0.465	0.06
Mof_H 	H 	0.3172	0.7427	0.4405	0.024
Mof_H 	H 	0.9697	0.8335	0.3841	0.097
Mof_H 	H 	0.1106	0.8638	0.3595	0.104
Mof_H 	H 	0.9733	0.0448	0.371	0.066
Mof_H 	H 	0.0738	0.8259	0.5541	0.071
Mof_H 	H 	0.3686	0.2927	0.4858	0.029
Mof_H 	H 	0.4765	0.3026	0.2678	0.047
Mof_H 	H 	0.5346	0.4573	0.3131	0.049
Mof_H 	H 	0.2622	0.173	0.3955	0.081
Mof_H 	H 	0.3717	0.1388	0.3335	0.089
Mof_H 	H 	0.6233	0.0905	0.4086	0.065
Mof_H 	H 	0.2685	0.0359	0.4982	0.063
Mof_C 	C 	0.839	0.4318	0.50298	0.018
Mof_C 	C 	0.9415	0.3499	0.53316	-0.024
Mof_C 	C 	0.7478	0.2994	0.5462	0.083
Mof_C 	C 	0.9446	0.1609	0.59683	-0.153
Mof_C 	C 	0.9713	0.0786	0.54489	0.081
Mof_C 	C 	0.0155	0.9743	0.57644	-0.081
Mof_C 	C 	0.9562	0.1035	0.46869	-0.08
Mof_C 	C 	0.5964	0.6854	0.56289	0.076
Mof_C 	C 	0.5379	0.6819	0.68312	-0.009
Mof_C 	C 	0.506	0.5952	0.65733	0.01
Mof_C 	C 	0.6416	0.8382	0.61742	-0.145
Mof_C 	C 	0.5674	0.9213	0.55849	0.076
Mof_C 	C 	0.4277	0.9455	0.55403	-0.066
Mof_C 	C 	0.6373	0.9778	0.50127	-0.074
Mof_C 	C 	0.161	0.5682	0.49702	0.018
Mof_C 	C 	0.0585	0.6501	0.46684	-0.024
Mof_C 	C 	0.2522	0.7006	0.4538	0.083
Mof_C 	C 	0.0554	0.8391	0.40317	-0.153
Mof_C 	C 	0.0287	0.9214	0.45511	0.081
Mof_C 	C 	0.9845	0.0257	0.42356	-0.081
Mof_C 	C 	0.0438	0.8965	0.53131	-0.08
Mof_C 	C 	0.4036	0.3146	0.43711	0.076
Mof_C 	C 	0.4621	0.3181	0.31688	-0.009
Mof_C 	C 	0.494	0.4048	0.34267	0.01
Mof_C 	C 	0.3584	0.1618	0.38258	-0.145
Mof_C 	C 	0.4326	0.0787	0.44151	0.076
Mof_C 	C 	0.5723	0.0545	0.44597	-0.066
Mof_C 	C 	0.3627	0.0222	0.49873	-0.074
Mof_N 	N 	0.7195	0.4012	0.51075	-0.137
Mof_N 	N 	0.8771	0.26561	0.56004	-0.097
Mof_N 	N 	0.5433	0.5999	0.58351	-0.138
Mof_N 	N 	0.5933	0.7376	0.62285	-0.1
Mof_N 	N 	0.2805	0.5988	0.48925	-0.137
Mof_N 	N 	0.1229	0.73439	0.43996	-0.097
Mof_N 	N 	0.4567	0.4001	0.41649	-0.138
Mof_N 	N 	0.4067	0.2624	0.37715	-0.1
_end
