data_functionalizedCrystal
_audit_creation_method	'EQeq! by Chris Wilmer'
_symmetry_space_group_name_H-M	'P1'
_symmetry_Int_Tables_number	1
_symmetry_cell_setting	triclinic
loop_
_symmetry_equiv_pos_as_xyz
  x,y,z
_cell_length_a	6.843
_cell_length_b	15.159
_cell_length_c	15.159
_cell_angle_alpha	62.2226
_cell_angle_beta	81.3458
_cell_angle_gamma	98.6542
loop_
_atom_site_label
_atom_site_type_symbol
_atom_site_fract_x
_atom_site_fract_y
_atom_site_fract_z
_atom_site_charge
Mof_Fe	Fe	0.8919	0.6849	0.5862	0.833
Mof_Fe	Fe	0.4781	0.5862	0.7289	0.833
Mof_Fe	Fe	0.207	0.7289	0.6849	0.833
Mof_Fe	Fe	0.1081	0.3151	0.4138	0.833
Mof_Fe	Fe	0.5219	0.4138	0.2711	0.833
Mof_Fe	Fe	0.793	0.2711	0.3151	0.833
Mof_H 	H 	0.6465	0.0186	0.538	0.071
Mof_H 	H 	0.1845	0.538	0.4434	0.071
Mof_H 	H 	0.6279	0.4434	0.0186	0.071
Mof_H 	H 	0.3535	0.9814	0.462	0.071
Mof_H 	H 	0.8155	0.462	0.5566	0.071
Mof_H 	H 	0.3721	0.5566	0.9814	0.071
Mof_C 	C 	0.6634	0.8221	0.6157	0.304
Mof_C 	C 	0.8315	0.9124	0.5428	-0.148
Mof_C 	C 	0.0332	0.8968	0.5353	0.221
Mof_C 	C 	0.8047	0.008	0.5229	-0.069
Mof_C 	C 	0.2791	0.6157	0.5622	0.304
Mof_C 	C 	0.3743	0.5428	0.5448	-0.148
Mof_C 	C 	0.5685	0.5353	0.5679	0.221
Mof_C 	C 	0.3276	0.5229	0.4691	-0.069
Mof_C 	C 	0.8413	0.5622	0.8221	0.304
Mof_C 	C 	0.9191	0.5448	0.9124	-0.146
Mof_C 	C 	0.1364	0.5679	0.8968	0.22
Mof_C 	C 	0.7967	0.4691	0.008	-0.07
Mof_C 	C 	0.3366	0.1779	0.3843	0.304
Mof_C 	C 	0.1685	0.0876	0.4572	-0.148
Mof_C 	C 	0.9668	0.1032	0.4647	0.221
Mof_C 	C 	0.1953	0.992	0.4771	-0.069
Mof_C 	C 	0.7209	0.3843	0.4378	0.304
Mof_C 	C 	0.6257	0.4572	0.4552	-0.148
Mof_C 	C 	0.4315	0.4647	0.4321	0.221
Mof_C 	C 	0.6724	0.4771	0.5309	-0.069
Mof_C 	C 	0.1587	0.4378	0.1779	0.304
Mof_C 	C 	0.0809	0.4552	0.0876	-0.146
Mof_C 	C 	0.8636	0.4321	0.1032	0.22
Mof_C 	C 	0.2033	0.5309	0.992	-0.07
Mof_O 	O 	0.6796	0.7287	0.648	-0.453
Mof_O 	O 	0.4791	0.8583	0.6165	-0.315
Mof_O 	O 	0.071	0.8086	0.5686	-0.444
Mof_O 	O 	0.3276	0.648	0.6233	-0.453
Mof_O 	O 	0.0956	0.6165	0.5252	-0.315
Mof_O 	O 	0.6396	0.5686	0.6228	-0.444
Mof_O 	O 	0.9509	0.6233	0.7287	-0.453
Mof_O 	O 	0.6208	0.5252	0.8583	-0.315
Mof_O 	O 	0.2624	0.6228	0.8086	-0.444
Mof_O 	O 	0.3204	0.2713	0.352	-0.453
Mof_O 	O 	0.5209	0.1417	0.3835	-0.315
Mof_O 	O 	0.929	0.1914	0.4314	-0.444
Mof_O 	O 	0.6724	0.352	0.3767	-0.453
Mof_O 	O 	0.9044	0.3835	0.4748	-0.315
Mof_O 	O 	0.3604	0.4314	0.3772	-0.444
Mof_O 	O 	0.0491	0.3767	0.2713	-0.453
Mof_O 	O 	0.3792	0.4748	0.1417	-0.315
Mof_O 	O 	0.7376	0.3772	0.1914	-0.444
_end
