data_functionalizedCrystal
_audit_creation_method	'EQeq! by Chris Wilmer'
_symmetry_space_group_name_H-M	'P1'
_symmetry_Int_Tables_number	1
_symmetry_cell_setting	triclinic
loop_
_symmetry_equiv_pos_as_xyz
  x,y,z
_cell_length_a	26.3167
_cell_length_b	26.3167
_cell_length_c	26.3167
_cell_angle_alpha	90
_cell_angle_beta	90
_cell_angle_gamma	90
loop_
_atom_site_label
_atom_site_type_symbol
_atom_site_fract_x
_atom_site_fract_y
_atom_site_fract_z
_atom_site_charge
Mof_O 	O 	0.18034	0.73992	0.95144	-0.376
Mof_O 	O 	0.18034	0.23992	0.45144	-0.414
Mof_O 	O 	0.68034	0.73992	0.45144	-0.405
Mof_O 	O 	0.68034	0.23992	0.95144	-0.375
Mof_O 	O 	0.81966	0.26008	0.95144	-0.37
Mof_O 	O 	0.81966	0.76008	0.45144	-0.4
Mof_O 	O 	0.31966	0.26008	0.45144	-0.41
Mof_O 	O 	0.31966	0.76008	0.95144	-0.372
Mof_O 	O 	0.81966	0.73992	0.04856	-0.419
Mof_O 	O 	0.81966	0.23992	0.54856	-0.403
Mof_O 	O 	0.31966	0.73992	0.54856	-0.405
Mof_O 	O 	0.31966	0.23992	0.04856	-0.429
Mof_O 	O 	0.18034	0.26008	0.04856	-0.434
Mof_O 	O 	0.18034	0.76008	0.54856	-0.411
Mof_O 	O 	0.68034	0.26008	0.54856	-0.409
Mof_O 	O 	0.68034	0.76008	0.04856	-0.425
Mof_O 	O 	0.95144	0.18034	0.73992	-0.376
Mof_O 	O 	0.95144	0.68034	0.23992	-0.375
Mof_O 	O 	0.45144	0.18034	0.23992	-0.414
Mof_O 	O 	0.45144	0.68034	0.73992	-0.405
Mof_O 	O 	0.95144	0.81966	0.26008	-0.37
Mof_O 	O 	0.95144	0.31966	0.76008	-0.372
Mof_O 	O 	0.45144	0.81966	0.76008	-0.4
Mof_O 	O 	0.45144	0.31966	0.26008	-0.41
Mof_O 	O 	0.04856	0.81966	0.73992	-0.419
Mof_O 	O 	0.04856	0.31966	0.23992	-0.429
Mof_O 	O 	0.54856	0.81966	0.23992	-0.403
Mof_O 	O 	0.54856	0.31966	0.73992	-0.405
Mof_O 	O 	0.04856	0.18034	0.26008	-0.434
Mof_O 	O 	0.04856	0.68034	0.76008	-0.425
Mof_O 	O 	0.54856	0.18034	0.76008	-0.411
Mof_O 	O 	0.54856	0.68034	0.26008	-0.409
Mof_O 	O 	0.73992	0.95144	0.18034	-0.376
Mof_O 	O 	0.73992	0.45144	0.68034	-0.405
Mof_O 	O 	0.23992	0.95144	0.68034	-0.375
Mof_O 	O 	0.23992	0.45144	0.18034	-0.414
Mof_O 	O 	0.26008	0.95144	0.81966	-0.37
Mof_O 	O 	0.26008	0.45144	0.31966	-0.41
Mof_O 	O 	0.76008	0.95144	0.31966	-0.372
Mof_O 	O 	0.76008	0.45144	0.81966	-0.4
Mof_O 	O 	0.73992	0.04856	0.81966	-0.419
Mof_O 	O 	0.73992	0.54856	0.31966	-0.405
Mof_O 	O 	0.23992	0.04856	0.31966	-0.429
Mof_O 	O 	0.23992	0.54856	0.81966	-0.403
Mof_O 	O 	0.26008	0.04856	0.18034	-0.434
Mof_O 	O 	0.26008	0.54856	0.68034	-0.409
Mof_O 	O 	0.76008	0.04856	0.68034	-0.425
Mof_O 	O 	0.76008	0.54856	0.18034	-0.411
Mof_O 	O 	0.73992	0.18034	0.04856	-0.43
Mof_O 	O 	0.73992	0.68034	0.54856	-0.405
Mof_O 	O 	0.23992	0.18034	0.54856	-0.414
Mof_O 	O 	0.23992	0.68034	0.04856	-0.428
Mof_O 	O 	0.26008	0.81966	0.04856	-0.423
Mof_O 	O 	0.26008	0.31966	0.54856	-0.41
Mof_O 	O 	0.76008	0.81966	0.54856	-0.4
Mof_O 	O 	0.76008	0.31966	0.04856	-0.425
Mof_O 	O 	0.73992	0.81966	0.95144	-0.366
Mof_O 	O 	0.73992	0.31966	0.45144	-0.406
Mof_O 	O 	0.23992	0.81966	0.45144	-0.403
Mof_O 	O 	0.23992	0.31966	0.95144	-0.375
Mof_O 	O 	0.26008	0.18034	0.95144	-0.38
Mof_O 	O 	0.26008	0.68034	0.45144	-0.409
Mof_O 	O 	0.76008	0.18034	0.45144	-0.411
Mof_O 	O 	0.76008	0.68034	0.95144	-0.372
Mof_O 	O 	0.18034	0.95144	0.26008	-0.38
Mof_O 	O 	0.18034	0.45144	0.76008	-0.411
Mof_O 	O 	0.68034	0.95144	0.76008	-0.372
Mof_O 	O 	0.68034	0.45144	0.26008	-0.409
Mof_O 	O 	0.81966	0.95144	0.73992	-0.366
Mof_O 	O 	0.81966	0.45144	0.23992	-0.403
Mof_O 	O 	0.31966	0.95144	0.23992	-0.375
Mof_O 	O 	0.31966	0.45144	0.73992	-0.406
Mof_O 	O 	0.81966	0.04856	0.26008	-0.423
Mof_O 	O 	0.81966	0.54856	0.76008	-0.4
Mof_O 	O 	0.31966	0.04856	0.76008	-0.425
Mof_O 	O 	0.31966	0.54856	0.26008	-0.41
Mof_O 	O 	0.18034	0.04856	0.73992	-0.43
Mof_O 	O 	0.18034	0.54856	0.23992	-0.414
Mof_O 	O 	0.68034	0.04856	0.23992	-0.428
Mof_O 	O 	0.68034	0.54856	0.73992	-0.405
Mof_O 	O 	0.95144	0.73992	0.81966	-0.366
Mof_O 	O 	0.95144	0.23992	0.31966	-0.375
Mof_O 	O 	0.45144	0.73992	0.31966	-0.406
Mof_O 	O 	0.45144	0.23992	0.81966	-0.403
Mof_O 	O 	0.95144	0.26008	0.18034	-0.38
Mof_O 	O 	0.95144	0.76008	0.68034	-0.372
Mof_O 	O 	0.45144	0.26008	0.68034	-0.409
Mof_O 	O 	0.45144	0.76008	0.18034	-0.411
Mof_O 	O 	0.04856	0.73992	0.18034	-0.43
Mof_O 	O 	0.04856	0.23992	0.68034	-0.428
Mof_O 	O 	0.54856	0.73992	0.68034	-0.405
Mof_O 	O 	0.54856	0.23992	0.18034	-0.414
Mof_O 	O 	0.04856	0.26008	0.81966	-0.423
Mof_O 	O 	0.04856	0.76008	0.31966	-0.425
Mof_O 	O 	0.54856	0.26008	0.31966	-0.41
Mof_O 	O 	0.54856	0.76008	0.81966	-0.4
Mof_O 	O 	0.81966	0.26008	0.04856	-0.423
Mof_O 	O 	0.81966	0.76008	0.54856	-0.4
Mof_O 	O 	0.31966	0.26008	0.54856	-0.41
Mof_O 	O 	0.31966	0.76008	0.04856	-0.425
Mof_O 	O 	0.18034	0.73992	0.04856	-0.43
Mof_O 	O 	0.18034	0.23992	0.54856	-0.414
Mof_O 	O 	0.68034	0.73992	0.54856	-0.405
Mof_O 	O 	0.68034	0.23992	0.04856	-0.428
Mof_O 	O 	0.18034	0.26008	0.95144	-0.38
Mof_O 	O 	0.18034	0.76008	0.45144	-0.411
Mof_O 	O 	0.68034	0.26008	0.45144	-0.409
Mof_O 	O 	0.68034	0.76008	0.95144	-0.372
Mof_O 	O 	0.81966	0.73992	0.95144	-0.366
Mof_O 	O 	0.81966	0.23992	0.45144	-0.403
Mof_O 	O 	0.31966	0.73992	0.45144	-0.406
Mof_O 	O 	0.31966	0.23992	0.95144	-0.375
Mof_O 	O 	0.04856	0.81966	0.26008	-0.423
Mof_O 	O 	0.04856	0.31966	0.76008	-0.425
Mof_O 	O 	0.54856	0.81966	0.76008	-0.4
Mof_O 	O 	0.54856	0.31966	0.26008	-0.41
Mof_O 	O 	0.04856	0.18034	0.73992	-0.43
Mof_O 	O 	0.04856	0.68034	0.23992	-0.428
Mof_O 	O 	0.54856	0.18034	0.23992	-0.414
Mof_O 	O 	0.54856	0.68034	0.73992	-0.405
Mof_O 	O 	0.95144	0.18034	0.26008	-0.38
Mof_O 	O 	0.95144	0.68034	0.76008	-0.372
Mof_O 	O 	0.45144	0.18034	0.76008	-0.411
Mof_O 	O 	0.45144	0.68034	0.26008	-0.409
Mof_O 	O 	0.95144	0.81966	0.73992	-0.366
Mof_O 	O 	0.95144	0.31966	0.23992	-0.375
Mof_O 	O 	0.45144	0.81966	0.23992	-0.403
Mof_O 	O 	0.45144	0.31966	0.73992	-0.406
Mof_O 	O 	0.26008	0.04856	0.81966	-0.423
Mof_O 	O 	0.26008	0.54856	0.31966	-0.41
Mof_O 	O 	0.76008	0.04856	0.31966	-0.425
Mof_O 	O 	0.76008	0.54856	0.81966	-0.4
Mof_O 	O 	0.73992	0.04856	0.18034	-0.43
Mof_O 	O 	0.73992	0.54856	0.68034	-0.405
Mof_O 	O 	0.23992	0.04856	0.68034	-0.428
Mof_O 	O 	0.23992	0.54856	0.18034	-0.414
Mof_O 	O 	0.26008	0.95144	0.18034	-0.38
Mof_O 	O 	0.26008	0.45144	0.68034	-0.409
Mof_O 	O 	0.76008	0.95144	0.68034	-0.372
Mof_O 	O 	0.76008	0.45144	0.18034	-0.411
Mof_O 	O 	0.73992	0.95144	0.81966	-0.366
Mof_O 	O 	0.73992	0.45144	0.31966	-0.406
Mof_O 	O 	0.23992	0.95144	0.31966	-0.375
Mof_O 	O 	0.23992	0.45144	0.81966	-0.403
Mof_O 	O 	0.26008	0.81966	0.95144	-0.37
Mof_O 	O 	0.26008	0.31966	0.45144	-0.41
Mof_O 	O 	0.76008	0.81966	0.45144	-0.4
Mof_O 	O 	0.76008	0.31966	0.95144	-0.372
Mof_O 	O 	0.73992	0.18034	0.95144	-0.376
Mof_O 	O 	0.73992	0.68034	0.45144	-0.405
Mof_O 	O 	0.23992	0.18034	0.45144	-0.414
Mof_O 	O 	0.23992	0.68034	0.95144	-0.375
Mof_O 	O 	0.26008	0.18034	0.04856	-0.434
Mof_O 	O 	0.26008	0.68034	0.54856	-0.409
Mof_O 	O 	0.76008	0.18034	0.54856	-0.411
Mof_O 	O 	0.76008	0.68034	0.04856	-0.425
Mof_O 	O 	0.73992	0.81966	0.04856	-0.419
Mof_O 	O 	0.73992	0.31966	0.54856	-0.405
Mof_O 	O 	0.23992	0.81966	0.54856	-0.403
Mof_O 	O 	0.23992	0.31966	0.04856	-0.429
Mof_O 	O 	0.81966	0.04856	0.73992	-0.419
Mof_O 	O 	0.81966	0.54856	0.23992	-0.403
Mof_O 	O 	0.31966	0.04856	0.23992	-0.429
Mof_O 	O 	0.31966	0.54856	0.73992	-0.405
Mof_O 	O 	0.18034	0.04856	0.26008	-0.434
Mof_O 	O 	0.18034	0.54856	0.76008	-0.411
Mof_O 	O 	0.68034	0.04856	0.76008	-0.425
Mof_O 	O 	0.68034	0.54856	0.26008	-0.409
Mof_O 	O 	0.18034	0.95144	0.73992	-0.376
Mof_O 	O 	0.18034	0.45144	0.23992	-0.414
Mof_O 	O 	0.68034	0.95144	0.23992	-0.375
Mof_O 	O 	0.68034	0.45144	0.73992	-0.405
Mof_O 	O 	0.81966	0.95144	0.26008	-0.37
Mof_O 	O 	0.81966	0.45144	0.76008	-0.4
Mof_O 	O 	0.31966	0.95144	0.76008	-0.372
Mof_O 	O 	0.31966	0.45144	0.26008	-0.41
Mof_O 	O 	0.04856	0.26008	0.18034	-0.434
Mof_O 	O 	0.04856	0.76008	0.68034	-0.425
Mof_O 	O 	0.54856	0.26008	0.68034	-0.409
Mof_O 	O 	0.54856	0.76008	0.18034	-0.411
Mof_O 	O 	0.04856	0.73992	0.81966	-0.419
Mof_O 	O 	0.04856	0.23992	0.31966	-0.429
Mof_O 	O 	0.54856	0.73992	0.31966	-0.405
Mof_O 	O 	0.54856	0.23992	0.81966	-0.403
Mof_O 	O 	0.95144	0.26008	0.81966	-0.37
Mof_O 	O 	0.95144	0.76008	0.31966	-0.372
Mof_O 	O 	0.45144	0.26008	0.31966	-0.41
Mof_O 	O 	0.45144	0.76008	0.81966	-0.4
Mof_O 	O 	0.95144	0.73992	0.18034	-0.376
Mof_O 	O 	0.95144	0.23992	0.68034	-0.375
Mof_O 	O 	0.45144	0.73992	0.68034	-0.405
Mof_O 	O 	0.45144	0.23992	0.18034	-0.414
Mof_Cu	Cu	0.21473	0.78527	-0	0.873
Mof_Cu	Cu	0.21473	0.28527	0.5	0.9
Mof_Cu	Cu	0.71473	0.78527	0.5	0.903
Mof_Cu	Cu	0.71473	0.28527	-0	0.873
Mof_Cu	Cu	0.78527	0.21473	-0	0.873
Mof_Cu	Cu	0.78527	0.71473	0.5	0.903
Mof_Cu	Cu	0.28527	0.21473	0.5	0.9
Mof_Cu	Cu	0.28527	0.71473	-0	0.873
Mof_Cu	Cu	0.78527	0.78527	-0	0.876
Mof_Cu	Cu	0.78527	0.28527	0.5	0.903
Mof_Cu	Cu	0.28527	0.78527	0.5	0.903
Mof_Cu	Cu	0.28527	0.28527	-0	0.873
Mof_Cu	Cu	0.21473	0.21473	-0	0.87
Mof_Cu	Cu	0.21473	0.71473	0.5	0.9
Mof_Cu	Cu	0.71473	0.21473	0.5	0.9
Mof_Cu	Cu	0.71473	0.71473	-0	0.873
Mof_Cu	Cu	-2.59579e-33	0.21473	0.78527	0.873
Mof_Cu	Cu	3.83963e-33	0.71473	0.28527	0.873
Mof_Cu	Cu	0.5	0.21473	0.28527	0.9
Mof_Cu	Cu	0.5	0.71473	0.78527	0.903
Mof_Cu	Cu	-4.73497e-33	0.78527	0.21473	0.873
Mof_Cu	Cu	2.67981e-33	0.28527	0.71473	0.873
Mof_Cu	Cu	0.5	0.78527	0.71473	0.903
Mof_Cu	Cu	0.5	0.28527	0.21473	0.9
Mof_Cu	Cu	-8.13587e-33	0.78527	0.78527	0.876
Mof_Cu	Cu	1.06959e-33	0.28527	0.28527	0.873
Mof_Cu	Cu	0.5	0.78527	0.28527	0.903
Mof_Cu	Cu	0.5	0.28527	0.78527	0.903
Mof_Cu	Cu	8.05109e-34	0.21473	0.21473	0.87
Mof_Cu	Cu	2.67981e-33	0.71473	0.71473	0.873
Mof_Cu	Cu	0.5	0.21473	0.71473	0.9
Mof_Cu	Cu	0.5	0.71473	0.21473	0.9
Mof_Cu	Cu	0.78527	0	0.21473	0.873
Mof_Cu	Cu	0.78527	0.5	0.71473	0.903
Mof_Cu	Cu	0.28527	0	0.71473	0.873
Mof_Cu	Cu	0.28527	0.5	0.21473	0.9
Mof_Cu	Cu	0.21473	-5.54008e-33	0.78527	0.873
Mof_Cu	Cu	0.21473	0.5	0.28527	0.9
Mof_Cu	Cu	0.71473	0	0.28527	0.873
Mof_Cu	Cu	0.71473	0.5	0.78527	0.903
Mof_Cu	Cu	0.78527	-5.54008e-33	0.78527	0.876
Mof_Cu	Cu	0.78527	0.5	0.28527	0.903
Mof_Cu	Cu	0.28527	0	0.28527	0.873
Mof_Cu	Cu	0.28527	0.5	0.78527	0.903
Mof_Cu	Cu	0.21473	0	0.21473	0.87
Mof_Cu	Cu	0.21473	0.5	0.71473	0.9
Mof_Cu	Cu	0.71473	0	0.71473	0.873
Mof_Cu	Cu	0.71473	0.5	0.21473	0.9
Mof_C 	C 	0.20124	0.70124	0.93375	0.371
Mof_C 	C 	0.17793	0.67793	0.88729	-0.11
Mof_C 	C 	0.20124	0.20124	0.43375	0.382
Mof_C 	C 	0.17793	0.17793	0.38729	-0.132
Mof_C 	C 	0.70124	0.70124	0.43375	0.378
Mof_C 	C 	0.67793	0.67793	0.38729	-0.117
Mof_C 	C 	0.79876	0.29876	0.93375	0.37
Mof_C 	C 	0.82207	0.32207	0.88729	-0.099
Mof_C 	C 	0.79876	0.79876	0.43375	0.376
Mof_C 	C 	0.82207	0.82207	0.38729	-0.105
Mof_C 	C 	0.79876	0.70124	0.06625	0.38
Mof_C 	C 	0.82207	0.67793	0.11271	-0.121
Mof_C 	C 	0.79876	0.20124	0.56625	0.379
Mof_C 	C 	0.82207	0.17793	0.61271	-0.117
Mof_C 	C 	0.20124	0.29876	0.06625	0.384
Mof_C 	C 	0.17793	0.32207	0.11271	-0.137
Mof_C 	C 	0.20124	0.79876	0.56625	0.379
Mof_C 	C 	0.17793	0.82207	0.61271	-0.117
Mof_C 	C 	0.70124	0.79876	0.06625	0.38
Mof_C 	C 	0.67793	0.82207	0.11271	-0.121
Mof_C 	C 	0.93375	0.20124	0.70124	0.371
Mof_C 	C 	0.88729	0.17793	0.67793	-0.11
Mof_C 	C 	0.43375	0.20124	0.20124	0.382
Mof_C 	C 	0.38729	0.17793	0.17793	-0.132
Mof_C 	C 	0.43375	0.70124	0.70124	0.378
Mof_C 	C 	0.38729	0.67793	0.67793	-0.117
Mof_C 	C 	0.93375	0.79876	0.29876	0.37
Mof_C 	C 	0.88729	0.82207	0.32207	-0.099
Mof_C 	C 	0.43375	0.79876	0.79876	0.376
Mof_C 	C 	0.38729	0.82207	0.82207	-0.105
Mof_C 	C 	0.06625	0.79876	0.70124	0.38
Mof_C 	C 	0.11271	0.82207	0.67793	-0.121
Mof_C 	C 	0.56625	0.79876	0.20124	0.379
Mof_C 	C 	0.61271	0.82207	0.17793	-0.117
Mof_C 	C 	0.06625	0.20124	0.29876	0.384
Mof_C 	C 	0.11271	0.17793	0.32207	-0.137
Mof_C 	C 	0.06625	0.70124	0.79876	0.38
Mof_C 	C 	0.11271	0.67793	0.82207	-0.121
Mof_C 	C 	0.56625	0.20124	0.79876	0.379
Mof_C 	C 	0.61271	0.17793	0.82207	-0.117
Mof_C 	C 	0.70124	0.93375	0.20124	0.371
Mof_C 	C 	0.67793	0.88729	0.17793	-0.11
Mof_C 	C 	0.70124	0.43375	0.70124	0.378
Mof_C 	C 	0.67793	0.38729	0.67793	-0.117
Mof_C 	C 	0.29876	0.93375	0.79876	0.37
Mof_C 	C 	0.32207	0.88729	0.82207	-0.099
Mof_C 	C 	0.29876	0.43375	0.29876	0.381
Mof_C 	C 	0.32207	0.38729	0.32207	-0.122
Mof_C 	C 	0.79876	0.43375	0.79876	0.376
Mof_C 	C 	0.82207	0.38729	0.82207	-0.105
Mof_C 	C 	0.70124	0.06625	0.79876	0.38
Mof_C 	C 	0.67793	0.11271	0.82207	-0.121
Mof_C 	C 	0.70124	0.56625	0.29876	0.379
Mof_C 	C 	0.67793	0.61271	0.32207	-0.118
Mof_C 	C 	0.29876	0.06625	0.20124	0.384
Mof_C 	C 	0.32207	0.11271	0.17793	-0.137
Mof_C 	C 	0.29876	0.56625	0.70124	0.379
Mof_C 	C 	0.32207	0.61271	0.67793	-0.118
Mof_C 	C 	0.79876	0.06625	0.70124	0.38
Mof_C 	C 	0.82207	0.11271	0.67793	-0.121
Mof_C 	C 	0.70124	0.20124	0.06625	0.383
Mof_C 	C 	0.67793	0.17793	0.11271	-0.134
Mof_C 	C 	0.70124	0.70124	0.56625	0.377
Mof_C 	C 	0.67793	0.67793	0.61271	-0.116
Mof_C 	C 	0.29876	0.79876	0.06625	0.381
Mof_C 	C 	0.32207	0.82207	0.11271	-0.123
Mof_C 	C 	0.29876	0.29876	0.56625	0.381
Mof_C 	C 	0.32207	0.32207	0.61271	-0.121
Mof_C 	C 	0.79876	0.79876	0.56625	0.376
Mof_C 	C 	0.82207	0.82207	0.61271	-0.103
Mof_C 	C 	0.70124	0.79876	0.93375	0.369
Mof_C 	C 	0.67793	0.82207	0.88729	-0.097
Mof_C 	C 	0.70124	0.29876	0.43375	0.379
Mof_C 	C 	0.67793	0.32207	0.38729	-0.119
Mof_C 	C 	0.29876	0.20124	0.93375	0.373
Mof_C 	C 	0.32207	0.17793	0.88729	-0.113
Mof_C 	C 	0.29876	0.70124	0.43375	0.379
Mof_C 	C 	0.32207	0.67793	0.38729	-0.119
Mof_C 	C 	0.79876	0.70124	0.93375	0.369
Mof_C 	C 	0.82207	0.67793	0.88729	-0.097
Mof_C 	C 	0.20124	0.93375	0.29876	0.373
Mof_C 	C 	0.17793	0.88729	0.32207	-0.113
Mof_C 	C 	0.20124	0.43375	0.79876	0.379
Mof_C 	C 	0.17793	0.38729	0.82207	-0.118
Mof_C 	C 	0.70124	0.93375	0.79876	0.369
Mof_C 	C 	0.67793	0.88729	0.82207	-0.097
Mof_C 	C 	0.79876	0.93375	0.70124	0.369
Mof_C 	C 	0.82207	0.88729	0.67793	-0.097
Mof_C 	C 	0.79876	0.43375	0.20124	0.379
Mof_C 	C 	0.82207	0.38729	0.17793	-0.118
Mof_C 	C 	0.79876	0.06625	0.29876	0.381
Mof_C 	C 	0.82207	0.11271	0.32207	-0.123
Mof_C 	C 	0.79876	0.56625	0.79876	0.376
Mof_C 	C 	0.82207	0.61271	0.82207	-0.103
Mof_C 	C 	0.20124	0.06625	0.70124	0.383
Mof_C 	C 	0.17793	0.11271	0.67793	-0.134
Mof_C 	C 	0.20124	0.56625	0.20124	0.382
Mof_C 	C 	0.17793	0.61271	0.17793	-0.131
Mof_C 	C 	0.70124	0.56625	0.70124	0.377
Mof_C 	C 	0.67793	0.61271	0.67793	-0.116
Mof_C 	C 	0.93375	0.70124	0.79876	0.369
Mof_C 	C 	0.88729	0.67793	0.82207	-0.097
Mof_C 	C 	0.43375	0.70124	0.29876	0.379
Mof_C 	C 	0.38729	0.67793	0.32207	-0.119
Mof_C 	C 	0.93375	0.29876	0.20124	0.373
Mof_C 	C 	0.88729	0.32207	0.17793	-0.113
Mof_C 	C 	0.93375	0.79876	0.70124	0.369
Mof_C 	C 	0.88729	0.82207	0.67793	-0.097
Mof_C 	C 	0.43375	0.29876	0.70124	0.379
Mof_C 	C 	0.38729	0.32207	0.67793	-0.119
Mof_C 	C 	0.06625	0.70124	0.20124	0.383
Mof_C 	C 	0.11271	0.67793	0.17793	-0.134
Mof_C 	C 	0.56625	0.70124	0.70124	0.377
Mof_C 	C 	0.61271	0.67793	0.67793	-0.116
Mof_C 	C 	0.06625	0.29876	0.79876	0.381
Mof_C 	C 	0.11271	0.32207	0.82207	-0.123
Mof_C 	C 	0.56625	0.29876	0.29876	0.381
Mof_C 	C 	0.61271	0.32207	0.32207	-0.121
Mof_C 	C 	0.56625	0.79876	0.79876	0.376
Mof_C 	C 	0.61271	0.82207	0.82207	-0.103
Mof_C 	C 	0.79876	0.29876	0.06625	0.381
Mof_C 	C 	0.82207	0.32207	0.11271	-0.123
Mof_C 	C 	0.20124	0.70124	0.06625	0.383
Mof_C 	C 	0.17793	0.67793	0.11271	-0.134
Mof_C 	C 	0.20124	0.20124	0.56625	0.382
Mof_C 	C 	0.17793	0.17793	0.61271	-0.131
Mof_C 	C 	0.20124	0.29876	0.93375	0.373
Mof_C 	C 	0.17793	0.32207	0.88729	-0.113
Mof_C 	C 	0.20124	0.79876	0.43375	0.379
Mof_C 	C 	0.17793	0.82207	0.38729	-0.118
Mof_C 	C 	0.79876	0.20124	0.43375	0.379
Mof_C 	C 	0.82207	0.17793	0.38729	-0.118
Mof_C 	C 	0.06625	0.79876	0.29876	0.381
Mof_C 	C 	0.11271	0.82207	0.32207	-0.123
Mof_C 	C 	0.06625	0.20124	0.70124	0.383
Mof_C 	C 	0.11271	0.17793	0.67793	-0.134
Mof_C 	C 	0.56625	0.20124	0.20124	0.382
Mof_C 	C 	0.61271	0.17793	0.17793	-0.131
Mof_C 	C 	0.93375	0.20124	0.29876	0.373
Mof_C 	C 	0.88729	0.17793	0.32207	-0.113
Mof_C 	C 	0.43375	0.20124	0.79876	0.379
Mof_C 	C 	0.38729	0.17793	0.82207	-0.118
Mof_C 	C 	0.43375	0.79876	0.20124	0.379
Mof_C 	C 	0.38729	0.82207	0.17793	-0.118
Mof_C 	C 	0.29876	0.06625	0.79876	0.381
Mof_C 	C 	0.32207	0.11271	0.82207	-0.123
Mof_C 	C 	0.29876	0.56625	0.29876	0.381
Mof_C 	C 	0.32207	0.61271	0.32207	-0.121
Mof_C 	C 	0.70124	0.06625	0.20124	0.383
Mof_C 	C 	0.67793	0.11271	0.17793	-0.134
Mof_C 	C 	0.29876	0.93375	0.20124	0.373
Mof_C 	C 	0.32207	0.88729	0.17793	-0.113
Mof_C 	C 	0.29876	0.43375	0.70124	0.379
Mof_C 	C 	0.32207	0.38729	0.67793	-0.119
Mof_C 	C 	0.70124	0.43375	0.29876	0.379
Mof_C 	C 	0.67793	0.38729	0.32207	-0.119
Mof_C 	C 	0.29876	0.79876	0.93375	0.37
Mof_C 	C 	0.32207	0.82207	0.88729	-0.099
Mof_C 	C 	0.29876	0.29876	0.43375	0.381
Mof_C 	C 	0.32207	0.32207	0.38729	-0.122
Mof_C 	C 	0.70124	0.20124	0.93375	0.371
Mof_C 	C 	0.67793	0.17793	0.88729	-0.11
Mof_C 	C 	0.29876	0.20124	0.06625	0.384
Mof_C 	C 	0.32207	0.17793	0.11271	-0.137
Mof_C 	C 	0.29876	0.70124	0.56625	0.379
Mof_C 	C 	0.32207	0.67793	0.61271	-0.118
Mof_C 	C 	0.70124	0.29876	0.56625	0.379
Mof_C 	C 	0.67793	0.32207	0.61271	-0.118
Mof_C 	C 	0.79876	0.56625	0.20124	0.379
Mof_C 	C 	0.82207	0.61271	0.17793	-0.117
Mof_C 	C 	0.20124	0.06625	0.29876	0.384
Mof_C 	C 	0.17793	0.11271	0.32207	-0.137
Mof_C 	C 	0.20124	0.56625	0.79876	0.379
Mof_C 	C 	0.17793	0.61271	0.82207	-0.117
Mof_C 	C 	0.20124	0.93375	0.70124	0.371
Mof_C 	C 	0.17793	0.88729	0.67793	-0.11
Mof_C 	C 	0.20124	0.43375	0.20124	0.382
Mof_C 	C 	0.17793	0.38729	0.17793	-0.132
Mof_C 	C 	0.79876	0.93375	0.29876	0.37
Mof_C 	C 	0.82207	0.88729	0.32207	-0.099
Mof_C 	C 	0.06625	0.29876	0.20124	0.384
Mof_C 	C 	0.11271	0.32207	0.17793	-0.137
Mof_C 	C 	0.56625	0.29876	0.70124	0.379
Mof_C 	C 	0.61271	0.32207	0.67793	-0.118
Mof_C 	C 	0.56625	0.70124	0.29876	0.379
Mof_C 	C 	0.61271	0.67793	0.32207	-0.118
Mof_C 	C 	0.93375	0.29876	0.79876	0.37
Mof_C 	C 	0.88729	0.32207	0.82207	-0.099
Mof_C 	C 	0.43375	0.29876	0.29876	0.381
Mof_C 	C 	0.38729	0.32207	0.32207	-0.122
Mof_C 	C 	0.93375	0.70124	0.20124	0.371
Mof_C 	C 	0.88729	0.67793	0.17793	-0.11
Mof_C 	C 	0.19967	0.63445	0.86555	0.058
Mof_H 	H 	0.22852	0.62002	0.87998	0.049
Mof_C 	C 	0.69967	0.63445	0.36555	0.06
Mof_H 	H 	0.72852	0.62002	0.37998	0.044
Mof_C 	C 	0.80033	0.36555	0.86555	0.053
Mof_H 	H 	0.77148	0.37998	0.87998	0.052
Mof_C 	C 	0.30033	0.36555	0.36555	0.064
Mof_H 	H 	0.27148	0.37998	0.37998	0.04
Mof_C 	C 	0.30033	0.86555	0.86555	0.052
Mof_H 	H 	0.27148	0.87998	0.87998	0.056
Mof_C 	C 	0.80033	0.63445	0.13445	0.061
Mof_H 	H 	0.77148	0.62002	0.12002	0.038
Mof_C 	C 	0.30033	0.63445	0.63445	0.061
Mof_H 	H 	0.27148	0.62002	0.62002	0.041
Mof_C 	C 	0.19967	0.36555	0.13445	0.069
Mof_H 	H 	0.22852	0.37998	0.12002	0.033
Mof_C 	C 	0.19967	0.86555	0.63445	0.058
Mof_H 	H 	0.22852	0.87998	0.62002	0.049
Mof_C 	C 	0.69967	0.36555	0.63445	0.06
Mof_H 	H 	0.72852	0.37998	0.62002	0.044
Mof_C 	C 	0.86555	0.19967	0.63445	0.058
Mof_H 	H 	0.87998	0.22852	0.62002	0.049
Mof_C 	C 	0.86555	0.69967	0.13445	0.059
Mof_H 	H 	0.87998	0.72852	0.12002	0.045
Mof_C 	C 	0.86555	0.80033	0.36555	0.053
Mof_H 	H 	0.87998	0.77148	0.37998	0.052
Mof_C 	C 	0.86555	0.30033	0.86555	0.052
Mof_H 	H 	0.87998	0.27148	0.87998	0.056
Mof_C 	C 	0.13445	0.80033	0.63445	0.061
Mof_H 	H 	0.12002	0.77148	0.62002	0.038
Mof_C 	C 	0.13445	0.30033	0.13445	0.07
Mof_H 	H 	0.12002	0.27148	0.12002	0.027
Mof_C 	C 	0.63445	0.30033	0.63445	0.061
Mof_H 	H 	0.62002	0.27148	0.62002	0.041
Mof_C 	C 	0.13445	0.19967	0.36555	0.069
Mof_H 	H 	0.12002	0.22852	0.37998	0.033
Mof_C 	C 	0.13445	0.69967	0.86555	0.059
Mof_H 	H 	0.12002	0.72852	0.87998	0.045
Mof_C 	C 	0.63445	0.19967	0.86555	0.058
Mof_H 	H 	0.62002	0.22852	0.87998	0.049
Mof_C 	C 	0.63445	0.86555	0.19967	0.058
Mof_H 	H 	0.62002	0.87998	0.22852	0.049
Mof_C 	C 	0.63445	0.36555	0.69967	0.06
Mof_H 	H 	0.62002	0.37998	0.72852	0.044
Mof_C 	C 	0.36555	0.86555	0.80033	0.053
Mof_H 	H 	0.37998	0.87998	0.77148	0.052
Mof_C 	C 	0.36555	0.36555	0.30033	0.064
Mof_H 	H 	0.37998	0.37998	0.27148	0.04
Mof_C 	C 	0.86555	0.86555	0.30033	0.052
Mof_H 	H 	0.87998	0.87998	0.27148	0.056
Mof_C 	C 	0.63445	0.13445	0.80033	0.061
Mof_H 	H 	0.62002	0.12002	0.77148	0.038
Mof_C 	C 	0.63445	0.63445	0.30033	0.061
Mof_H 	H 	0.62002	0.62002	0.27148	0.041
Mof_C 	C 	0.36555	0.13445	0.19967	0.069
Mof_H 	H 	0.37998	0.12002	0.22852	0.033
Mof_C 	C 	0.36555	0.63445	0.69967	0.06
Mof_H 	H 	0.37998	0.62002	0.72852	0.044
Mof_C 	C 	0.86555	0.63445	0.19967	0.058
Mof_H 	H 	0.87998	0.62002	0.22852	0.049
Mof_C 	C 	0.63445	0.19967	0.13445	0.067
Mof_H 	H 	0.62002	0.22852	0.12002	0.033
Mof_C 	C 	0.63445	0.69967	0.63445	0.059
Mof_H 	H 	0.62002	0.72852	0.62002	0.045
Mof_C 	C 	0.36555	0.80033	0.13445	0.062
Mof_H 	H 	0.37998	0.77148	0.12002	0.037
Mof_C 	C 	0.36555	0.30033	0.63445	0.063
Mof_H 	H 	0.37998	0.27148	0.62002	0.04
Mof_C 	C 	0.86555	0.80033	0.63445	0.052
Mof_H 	H 	0.87998	0.77148	0.62002	0.053
Mof_C 	C 	0.63445	0.80033	0.86555	0.052
Mof_H 	H 	0.62002	0.77148	0.87998	0.053
Mof_C 	C 	0.63445	0.30033	0.36555	0.063
Mof_H 	H 	0.62002	0.27148	0.37998	0.04
Mof_C 	C 	0.36555	0.19967	0.86555	0.06
Mof_H 	H 	0.37998	0.22852	0.87998	0.048
Mof_C 	C 	0.36555	0.69967	0.36555	0.062
Mof_H 	H 	0.37998	0.72852	0.37998	0.044
Mof_C 	C 	0.86555	0.69967	0.86555	0.049
Mof_H 	H 	0.87998	0.72852	0.87998	0.06
Mof_C 	C 	0.19967	0.86555	0.36555	0.06
Mof_H 	H 	0.22852	0.87998	0.37998	0.048
Mof_C 	C 	0.69967	0.86555	0.86555	0.049
Mof_H 	H 	0.72852	0.87998	0.87998	0.06
Mof_C 	C 	0.80033	0.86555	0.63445	0.052
Mof_H 	H 	0.77148	0.87998	0.62002	0.053
Mof_C 	C 	0.30033	0.86555	0.13445	0.061
Mof_H 	H 	0.27148	0.87998	0.12002	0.041
Mof_C 	C 	0.80033	0.13445	0.36555	0.062
Mof_H 	H 	0.77148	0.12002	0.37998	0.037
Mof_C 	C 	0.80033	0.63445	0.86555	0.052
Mof_H 	H 	0.77148	0.62002	0.87998	0.053
Mof_C 	C 	0.30033	0.13445	0.86555	0.061
Mof_H 	H 	0.27148	0.12002	0.87998	0.041
Mof_C 	C 	0.19967	0.13445	0.63445	0.067
Mof_H 	H 	0.22852	0.12002	0.62002	0.033
Mof_C 	C 	0.69967	0.13445	0.13445	0.068
Mof_H 	H 	0.72852	0.12002	0.12002	0.03
Mof_C 	C 	0.69967	0.63445	0.63445	0.059
Mof_H 	H 	0.72852	0.62002	0.62002	0.045
Mof_C 	C 	0.86555	0.63445	0.80033	0.052
Mof_H 	H 	0.87998	0.62002	0.77148	0.053
Mof_C 	C 	0.86555	0.13445	0.30033	0.061
Mof_H 	H 	0.87998	0.12002	0.27148	0.041
Mof_C 	C 	0.86555	0.36555	0.19967	0.06
Mof_H 	H 	0.87998	0.37998	0.22852	0.048
Mof_C 	C 	0.86555	0.86555	0.69967	0.049
Mof_H 	H 	0.87998	0.87998	0.72852	0.06
Mof_C 	C 	0.13445	0.63445	0.19967	0.067
Mof_H 	H 	0.12002	0.62002	0.22852	0.033
Mof_C 	C 	0.13445	0.13445	0.69967	0.068
Mof_H 	H 	0.12002	0.12002	0.72852	0.03
Mof_C 	C 	0.63445	0.63445	0.69967	0.059
Mof_H 	H 	0.62002	0.62002	0.72852	0.045
Mof_C 	C 	0.13445	0.36555	0.80033	0.062
Mof_H 	H 	0.12002	0.37998	0.77148	0.037
Mof_C 	C 	0.13445	0.86555	0.30033	0.061
Mof_H 	H 	0.12002	0.87998	0.27148	0.041
Mof_C 	C 	0.63445	0.86555	0.80033	0.052
Mof_H 	H 	0.62002	0.87998	0.77148	0.053
Mof_C 	C 	0.80033	0.36555	0.13445	0.062
Mof_H 	H 	0.77148	0.37998	0.12002	0.037
Mof_C 	C 	0.30033	0.36555	0.63445	0.063
Mof_H 	H 	0.27148	0.37998	0.62002	0.04
Mof_C 	C 	0.19967	0.63445	0.13445	0.067
Mof_H 	H 	0.22852	0.62002	0.12002	0.033
Mof_C 	C 	0.19967	0.36555	0.86555	0.06
Mof_H 	H 	0.22852	0.37998	0.87998	0.048
Mof_C 	C 	0.69967	0.36555	0.36555	0.062
Mof_H 	H 	0.72852	0.37998	0.37998	0.044
Mof_C 	C 	0.30033	0.63445	0.36555	0.063
Mof_H 	H 	0.27148	0.62002	0.37998	0.04
Mof_C 	C 	0.13445	0.80033	0.36555	0.062
Mof_H 	H 	0.12002	0.77148	0.37998	0.037
Mof_C 	C 	0.13445	0.30033	0.86555	0.061
Mof_H 	H 	0.12002	0.27148	0.87998	0.041
Mof_C 	C 	0.13445	0.19967	0.63445	0.067
Mof_H 	H 	0.12002	0.22852	0.62002	0.033
Mof_C 	C 	0.13445	0.69967	0.13445	0.068
Mof_H 	H 	0.12002	0.72852	0.12002	0.03
Mof_C 	C 	0.86555	0.19967	0.36555	0.06
Mof_H 	H 	0.87998	0.22852	0.37998	0.048
Mof_C 	C 	0.86555	0.30033	0.13445	0.061
Mof_H 	H 	0.87998	0.27148	0.12002	0.041
Mof_C 	C 	0.36555	0.13445	0.80033	0.062
Mof_H 	H 	0.37998	0.12002	0.77148	0.037
Mof_C 	C 	0.36555	0.63445	0.30033	0.063
Mof_H 	H 	0.37998	0.62002	0.27148	0.04
Mof_C 	C 	0.63445	0.13445	0.19967	0.067
Mof_H 	H 	0.62002	0.12002	0.22852	0.033
Mof_C 	C 	0.36555	0.86555	0.19967	0.06
Mof_H 	H 	0.37998	0.87998	0.22852	0.048
Mof_C 	C 	0.36555	0.36555	0.69967	0.062
Mof_H 	H 	0.37998	0.37998	0.72852	0.044
Mof_C 	C 	0.63445	0.36555	0.30033	0.063
Mof_H 	H 	0.62002	0.37998	0.27148	0.04
Mof_C 	C 	0.36555	0.80033	0.86555	0.053
Mof_H 	H 	0.37998	0.77148	0.87998	0.052
Mof_C 	C 	0.36555	0.30033	0.36555	0.064
Mof_H 	H 	0.37998	0.27148	0.37998	0.04
Mof_C 	C 	0.63445	0.69967	0.36555	0.06
Mof_H 	H 	0.62002	0.72852	0.37998	0.044
Mof_C 	C 	0.36555	0.19967	0.13445	0.069
Mof_H 	H 	0.37998	0.22852	0.12002	0.033
Mof_C 	C 	0.36555	0.69967	0.63445	0.06
Mof_H 	H 	0.37998	0.72852	0.62002	0.044
Mof_C 	C 	0.63445	0.80033	0.13445	0.061
Mof_H 	H 	0.62002	0.77148	0.12002	0.038
Mof_C 	C 	0.80033	0.13445	0.63445	0.061
Mof_H 	H 	0.77148	0.12002	0.62002	0.038
Mof_C 	C 	0.30033	0.13445	0.13445	0.07
Mof_H 	H 	0.27148	0.12002	0.12002	0.027
Mof_C 	C 	0.19967	0.13445	0.36555	0.069
Mof_H 	H 	0.22852	0.12002	0.37998	0.033
Mof_C 	C 	0.69967	0.13445	0.86555	0.059
Mof_H 	H 	0.72852	0.12002	0.87998	0.045
Mof_C 	C 	0.69967	0.86555	0.13445	0.059
Mof_H 	H 	0.72852	0.87998	0.12002	0.045
Mof_C 	C 	0.80033	0.86555	0.36555	0.053
Mof_H 	H 	0.77148	0.87998	0.37998	0.052
Mof_C 	C 	0.13445	0.36555	0.19967	0.069
Mof_H 	H 	0.12002	0.37998	0.22852	0.033
Mof_C 	C 	0.13445	0.86555	0.69967	0.059
Mof_H 	H 	0.12002	0.87998	0.72852	0.045
Mof_C 	C 	0.13445	0.63445	0.80033	0.061
Mof_H 	H 	0.12002	0.62002	0.77148	0.038
Mof_C 	C 	0.13445	0.13445	0.30033	0.07
Mof_H 	H 	0.12002	0.12002	0.27148	0.027
Mof_C 	C 	0.86555	0.36555	0.80033	0.053
Mof_H 	H 	0.87998	0.37998	0.77148	0.052
Mof_C 	C 	0.86555	0.13445	0.69967	0.059
Mof_H 	H 	0.87998	0.12002	0.72852	0.045
_end
