data_functionalizedCrystal
_audit_creation_method	'EQeq! by Chris Wilmer'
_symmetry_space_group_name_H-M	'P1'
_symmetry_Int_Tables_number	1
_symmetry_cell_setting	triclinic
loop_
_symmetry_equiv_pos_as_xyz
  x,y,z
_cell_length_a	24.601
_cell_length_b	16.546
_cell_length_c	65.775
_cell_angle_alpha	90
_cell_angle_beta	90
_cell_angle_gamma	90
loop_
_atom_site_label
_atom_site_type_symbol
_atom_site_fract_x
_atom_site_fract_y
_atom_site_fract_z
_atom_site_charge
Mof_C 	C 	0.51365	0.1521	0.9819	0.039
Mof_H 	H 	0.5208	0.1246	0.9695	0.013
Mof_C 	C 	0.46271	0.1836	0.98743	-0.051
Mof_H 	H 	0.4301	0.1805	0.9798	0.043
Mof_C 	C 	0.46927	0.2204	0.00638	-0.105
Mof_H 	H 	0.4421	0.2476	0.014	0.062
Mof_C 	C 	0.52397	0.2091	0.01185	0.113
Mof_C 	C 	0.5517	0.2382	0.02907	-0.127
Mof_C 	C 	0.60724	0.2371	0.03215	0.115
Mof_C 	C 	0.63634	0.2752	0.04797	-0.11
Mof_H 	H 	0.6213	0.3026	0.0593	0.064
Mof_C 	C 	0.6898	0.2651	0.04386	-0.043
Mof_H 	H 	0.7194	0.2852	0.0517	0.039
Mof_C 	C 	0.69366	0.2189	0.02562	0.032
Mof_H 	H 	0.7268	0.2034	0.0193	0.017
Mof_C 	C 	0.51564	0.2731	0.0454	0.091
Mof_C 	C 	0.4908	0.3455	0.04334	-0.169
Mof_H 	H 	0.4986	0.3785	0.0319	0.082
Mof_C 	C 	0.4534	0.372	0.05807	0.092
Mof_H 	H 	0.4361	0.4227	0.0562	-0.022
Mof_C 	C 	0.4651	0.2566	0.07689	0.085
Mof_C 	C 	0.4509	0.2065	0.09466	-0.108
Mof_H 	H 	0.4225	0.2225	0.1036	0.035
Mof_C 	C 	0.4819	0.1299	0.09841	-0.006
Mof_H 	H 	0.4764	0.0993	0.1105	0.023
Mof_C 	C 	0.5159	0.1068	0.08502	-0.067
Mof_H 	H 	0.5331	0.0561	0.087	0.049
Mof_C 	C 	0.5294	0.1502	0.06789	-0.021
Mof_H 	H 	0.5562	0.1286	0.059	0.041
Mof_C 	C 	0.5043	0.229	0.06259	-0.066
Mof_C 	C 	0.40343	0.2177	0.22863	0.047
Mof_H 	H 	0.4071	0.1946	0.2418	0.011
Mof_C 	C 	0.41	0.1725	0.21031	-0.056
Mof_H 	H 	0.419	0.1169	0.2089	0.046
Mof_C 	C 	0.40017	0.2282	0.19508	-0.096
Mof_H 	H 	0.4014	0.2177	0.1809	0.061
Mof_C 	C 	0.38813	0.3021	0.20401	0.101
Mof_C 	C 	0.3271	0.3672	0.1612	-0.055
Mof_H 	H 	0.2935	0.3602	0.1681	-0.137
Mof_C 	C 	0.3302	0.3699	0.1395	0.112
Mof_H 	H 	0.2971	0.3678	0.1321	-0.151
Mof_C 	C 	0.2765	0.3594	0.1288	0.202
Mof_H 	H 	0.2758	0.3599	0.1143	-0.063
Mof_C 	C 	0.2281	0.349	0.1393	-0.117
Mof_H 	H 	0.1955	0.3466	0.1315	0.058
Mof_C 	C 	0.224	0.3421	0.1598	-0.139
Mof_H 	H 	0.1904	0.3326	0.1666	0.066
Mof_C 	C 	0.2757	0.3504	0.1707	0.265
Mof_H 	H 	0.2752	0.3443	0.185	-0.056
Mof_N 	N 	0.5508	0.1659	0.99639	-0.207
Mof_N 	N 	0.64382	0.2002	0.01853	-0.203
Mof_N 	N 	0.44164	0.3304	0.0741	-0.205
Mof_N 	N 	0.39188	0.294	0.2256	-0.206
Mof_C 	C 	0.51365	0.6521	0.4819	0.039
Mof_H 	H 	0.5208	0.6246	0.4695	0.013
Mof_C 	C 	0.46271	0.6836	0.48743	-0.051
Mof_H 	H 	0.4301	0.6805	0.4798	0.043
Mof_C 	C 	0.46927	0.7204	0.50638	-0.105
Mof_H 	H 	0.4421	0.7476	0.514	0.062
Mof_C 	C 	0.52397	0.7091	0.51185	0.113
Mof_C 	C 	0.5517	0.7382	0.52907	-0.127
Mof_C 	C 	0.60724	0.7371	0.53215	0.115
Mof_C 	C 	0.63634	0.7752	0.54797	-0.11
Mof_H 	H 	0.6213	0.8026	0.5593	0.064
Mof_C 	C 	0.6898	0.7651	0.54386	-0.043
Mof_H 	H 	0.7194	0.7852	0.5517	0.039
Mof_C 	C 	0.69366	0.7189	0.52562	0.033
Mof_H 	H 	0.7268	0.7034	0.5193	0.018
Mof_C 	C 	0.51564	0.7731	0.5454	0.092
Mof_C 	C 	0.4908	0.8455	0.54334	-0.168
Mof_H 	H 	0.4986	0.8785	0.5319	0.083
Mof_C 	C 	0.4534	0.872	0.55807	0.093
Mof_H 	H 	0.4361	0.9227	0.5562	-0.021
Mof_C 	C 	0.4651	0.7566	0.57689	0.086
Mof_C 	C 	0.4509	0.7065	0.59466	-0.107
Mof_H 	H 	0.4225	0.7225	0.6036	0.036
Mof_C 	C 	0.4819	0.6299	0.59841	-0.005
Mof_H 	H 	0.4764	0.5993	0.6105	0.024
Mof_C 	C 	0.5159	0.6068	0.58502	-0.066
Mof_H 	H 	0.5331	0.5561	0.587	0.05
Mof_C 	C 	0.5294	0.6502	0.56789	-0.02
Mof_H 	H 	0.5562	0.6286	0.559	0.042
Mof_C 	C 	0.5043	0.729	0.56259	-0.065
Mof_C 	C 	0.40343	0.7177	0.72863	0.048
Mof_H 	H 	0.4071	0.6946	0.7418	0.012
Mof_C 	C 	0.41	0.6725	0.71031	-0.055
Mof_H 	H 	0.419	0.6169	0.7089	0.047
Mof_C 	C 	0.40017	0.7282	0.69508	-0.095
Mof_H 	H 	0.4014	0.7177	0.6809	0.062
Mof_C 	C 	0.38813	0.8021	0.70401	0.102
Mof_C 	C 	0.3271	0.8672	0.6612	-0.054
Mof_H 	H 	0.2935	0.8602	0.6681	-0.136
Mof_C 	C 	0.3302	0.8699	0.6395	0.113
Mof_H 	H 	0.2971	0.8678	0.6321	-0.15
Mof_C 	C 	0.2765	0.8594	0.6288	0.203
Mof_H 	H 	0.2758	0.8599	0.6143	-0.062
Mof_C 	C 	0.2281	0.849	0.6393	-0.116
Mof_H 	H 	0.1955	0.8466	0.6315	0.059
Mof_C 	C 	0.224	0.8421	0.6598	-0.138
Mof_H 	H 	0.1904	0.8326	0.6666	0.067
Mof_C 	C 	0.2757	0.8504	0.6707	0.266
Mof_H 	H 	0.2752	0.8443	0.685	-0.055
Mof_N 	N 	0.5508	0.6659	0.49639	-0.206
Mof_N 	N 	0.64382	0.7002	0.51853	-0.202
Mof_N 	N 	0.44164	0.8304	0.5741	-0.204
Mof_N 	N 	0.39188	0.794	0.7256	-0.205
Mof_C 	C 	0.01365	0.1521	0.4819	0.04
Mof_H 	H 	0.0208	0.1246	0.4695	0.014
Mof_C 	C 	0.96271	0.1836	0.48743	-0.05
Mof_H 	H 	0.9301	0.1805	0.4798	0.044
Mof_C 	C 	0.96927	0.2204	0.50638	-0.104
Mof_H 	H 	0.9421	0.2476	0.514	0.063
Mof_C 	C 	0.02397	0.2091	0.51185	0.114
Mof_C 	C 	0.0517	0.2382	0.52907	-0.126
Mof_C 	C 	0.10724	0.2371	0.53215	0.116
Mof_C 	C 	0.13634	0.2752	0.54797	-0.109
Mof_H 	H 	0.1213	0.3026	0.5593	0.065
Mof_C 	C 	0.1898	0.2651	0.54386	-0.042
Mof_H 	H 	0.2194	0.2852	0.5517	0.04
Mof_C 	C 	0.19366	0.2189	0.52562	0.033
Mof_H 	H 	0.2268	0.2034	0.5193	0.018
Mof_C 	C 	0.01564	0.2731	0.5454	0.092
Mof_C 	C 	0.9908	0.3455	0.54334	-0.168
Mof_H 	H 	0.9986	0.3785	0.5319	0.083
Mof_C 	C 	0.9534	0.372	0.55807	0.093
Mof_H 	H 	0.9361	0.4227	0.5562	-0.021
Mof_C 	C 	0.9651	0.2566	0.57689	0.086
Mof_C 	C 	0.9509	0.2065	0.59466	-0.107
Mof_H 	H 	0.9225	0.2225	0.6036	0.036
Mof_C 	C 	0.9819	0.1299	0.59841	-0.005
Mof_H 	H 	0.9764	0.0993	0.6105	0.024
Mof_C 	C 	0.0159	0.1068	0.58502	-0.067
Mof_H 	H 	0.0331	0.0561	0.587	0.05
Mof_C 	C 	0.0294	0.1502	0.56789	-0.02
Mof_H 	H 	0.0562	0.1286	0.559	0.042
Mof_C 	C 	0.0043	0.229	0.56259	-0.066
Mof_C 	C 	0.90343	0.2177	0.72863	0.048
Mof_H 	H 	0.9071	0.1946	0.7418	0.012
Mof_C 	C 	0.91	0.1725	0.71031	-0.055
Mof_H 	H 	0.919	0.1169	0.7089	0.048
Mof_C 	C 	0.90017	0.2282	0.69508	-0.095
Mof_H 	H 	0.9014	0.2177	0.6809	0.062
Mof_C 	C 	0.88813	0.3021	0.70401	0.102
Mof_C 	C 	0.8271	0.3672	0.6612	-0.054
Mof_H 	H 	0.7935	0.3602	0.6681	-0.136
Mof_C 	C 	0.8302	0.3699	0.6395	0.113
Mof_H 	H 	0.7971	0.3678	0.6321	-0.15
Mof_C 	C 	0.7765	0.3594	0.6288	0.203
Mof_H 	H 	0.7758	0.3599	0.6143	-0.062
Mof_C 	C 	0.7281	0.349	0.6393	-0.116
Mof_H 	H 	0.6955	0.3466	0.6315	0.059
Mof_C 	C 	0.724	0.3421	0.6598	-0.138
Mof_H 	H 	0.6904	0.3326	0.6666	0.067
Mof_C 	C 	0.7757	0.3504	0.6707	0.266
Mof_H 	H 	0.7752	0.3443	0.685	-0.055
Mof_N 	N 	0.0508	0.1659	0.49639	-0.206
Mof_N 	N 	0.14382	0.2002	0.51853	-0.202
Mof_N 	N 	0.94164	0.3304	0.5741	-0.204
Mof_N 	N 	0.89188	0.294	0.7256	-0.205
Mof_C 	C 	0.01365	0.6521	0.9819	0.04
Mof_H 	H 	0.0208	0.6246	0.9695	0.014
Mof_C 	C 	0.96271	0.6836	0.98743	-0.05
Mof_H 	H 	0.9301	0.6805	0.9798	0.044
Mof_C 	C 	0.96927	0.7204	0.00638	-0.104
Mof_H 	H 	0.9421	0.7476	0.014	0.063
Mof_C 	C 	0.02397	0.7091	0.01185	0.114
Mof_C 	C 	0.0517	0.7382	0.02907	-0.126
Mof_C 	C 	0.10724	0.7371	0.03215	0.117
Mof_C 	C 	0.13634	0.7752	0.04797	-0.109
Mof_H 	H 	0.1213	0.8026	0.0593	0.065
Mof_C 	C 	0.1898	0.7651	0.04386	-0.042
Mof_H 	H 	0.2194	0.7852	0.0517	0.04
Mof_C 	C 	0.19366	0.7189	0.02562	0.033
Mof_H 	H 	0.2268	0.7034	0.0193	0.018
Mof_C 	C 	0.01564	0.7731	0.0454	0.092
Mof_C 	C 	0.9908	0.8455	0.04334	-0.168
Mof_H 	H 	0.9986	0.8785	0.0319	0.083
Mof_C 	C 	0.9534	0.872	0.05807	0.093
Mof_H 	H 	0.9361	0.9227	0.0562	-0.021
Mof_C 	C 	0.9651	0.7566	0.07689	0.086
Mof_C 	C 	0.9509	0.7065	0.09466	-0.107
Mof_H 	H 	0.9225	0.7225	0.1036	0.036
Mof_C 	C 	0.9819	0.6299	0.09841	-0.006
Mof_H 	H 	0.9764	0.5993	0.1105	0.024
Mof_C 	C 	0.0159	0.6068	0.08502	-0.066
Mof_H 	H 	0.0331	0.5561	0.087	0.05
Mof_C 	C 	0.0294	0.6502	0.06789	-0.02
Mof_H 	H 	0.0562	0.6286	0.059	0.042
Mof_C 	C 	0.0043	0.729	0.06259	-0.065
Mof_C 	C 	0.90343	0.7177	0.22863	0.048
Mof_H 	H 	0.9071	0.6946	0.2418	0.012
Mof_C 	C 	0.91	0.6725	0.21031	-0.055
Mof_H 	H 	0.919	0.6169	0.2089	0.047
Mof_C 	C 	0.90017	0.7282	0.19508	-0.095
Mof_H 	H 	0.9014	0.7177	0.1809	0.062
Mof_C 	C 	0.88813	0.8021	0.20401	0.102
Mof_C 	C 	0.8271	0.8672	0.1612	-0.054
Mof_H 	H 	0.7935	0.8602	0.1681	-0.136
Mof_C 	C 	0.8302	0.8699	0.1395	0.113
Mof_H 	H 	0.7971	0.8678	0.1321	-0.15
Mof_C 	C 	0.7765	0.8594	0.1288	0.203
Mof_H 	H 	0.7758	0.8599	0.1143	-0.062
Mof_C 	C 	0.7281	0.849	0.1393	-0.116
Mof_H 	H 	0.6955	0.8466	0.1315	0.059
Mof_C 	C 	0.724	0.8421	0.1598	-0.138
Mof_H 	H 	0.6904	0.8326	0.1666	0.067
Mof_C 	C 	0.7757	0.8504	0.1707	0.266
Mof_H 	H 	0.7752	0.8443	0.185	-0.055
Mof_N 	N 	0.0508	0.6659	0.99639	-0.206
Mof_N 	N 	0.14382	0.7002	0.01853	-0.202
Mof_N 	N 	0.94164	0.8304	0.0741	-0.204
Mof_N 	N 	0.89188	0.794	0.2256	-0.205
Mof_C 	C 	0.23635	0.5979	0.9819	0.04
Mof_H 	H 	0.2292	0.6254	0.9695	0.014
Mof_C 	C 	0.28729	0.5664	0.98743	-0.05
Mof_H 	H 	0.3199	0.5695	0.9798	0.044
Mof_C 	C 	0.28073	0.5296	0.00638	-0.104
Mof_H 	H 	0.3079	0.5024	0.014	0.063
Mof_C 	C 	0.22603	0.5409	0.01185	0.114
Mof_C 	C 	0.1983	0.5118	0.02907	-0.126
Mof_C 	C 	0.14276	0.5129	0.03215	0.116
Mof_C 	C 	0.11366	0.4748	0.04797	-0.109
Mof_H 	H 	0.1287	0.4474	0.0593	0.065
Mof_C 	C 	0.0602	0.4849	0.04386	-0.042
Mof_H 	H 	0.0306	0.4648	0.0517	0.04
Mof_C 	C 	0.05634	0.5311	0.02562	0.033
Mof_H 	H 	0.0232	0.5466	0.0193	0.018
Mof_C 	C 	0.23436	0.4769	0.0454	0.092
Mof_C 	C 	0.2592	0.4045	0.04334	-0.168
Mof_H 	H 	0.2514	0.3715	0.0319	0.083
Mof_C 	C 	0.2966	0.378	0.05807	0.093
Mof_H 	H 	0.3139	0.3273	0.0562	-0.021
Mof_C 	C 	0.2849	0.4934	0.07689	0.086
Mof_C 	C 	0.2991	0.5435	0.09466	-0.107
Mof_H 	H 	0.3275	0.5275	0.1036	0.036
Mof_C 	C 	0.2681	0.6201	0.09841	-0.005
Mof_H 	H 	0.2736	0.6507	0.1105	0.024
Mof_C 	C 	0.2341	0.6432	0.08502	-0.066
Mof_H 	H 	0.2169	0.6939	0.087	0.05
Mof_C 	C 	0.2206	0.5998	0.06789	-0.02
Mof_H 	H 	0.1938	0.6214	0.059	0.042
Mof_C 	C 	0.2457	0.521	0.06259	-0.065
Mof_C 	C 	0.34657	0.5323	0.22863	0.048
Mof_H 	H 	0.3429	0.5554	0.2418	0.012
Mof_C 	C 	0.34	0.5775	0.21031	-0.055
Mof_H 	H 	0.331	0.6331	0.2089	0.047
Mof_C 	C 	0.34983	0.5218	0.19508	-0.095
Mof_H 	H 	0.3486	0.5323	0.1809	0.062
Mof_C 	C 	0.36187	0.4479	0.20401	0.102
Mof_C 	C 	0.4229	0.3828	0.1612	-0.054
Mof_H 	H 	0.4565	0.3898	0.1681	-0.136
Mof_C 	C 	0.4198	0.3801	0.1395	0.113
Mof_H 	H 	0.4529	0.3822	0.1321	-0.15
Mof_C 	C 	0.4735	0.3906	0.1288	0.203
Mof_H 	H 	0.4742	0.3901	0.1143	-0.062
Mof_C 	C 	0.5219	0.401	0.1393	-0.116
Mof_H 	H 	0.5545	0.4034	0.1315	0.059
Mof_C 	C 	0.526	0.4079	0.1598	-0.138
Mof_H 	H 	0.5596	0.4174	0.1666	0.067
Mof_C 	C 	0.4743	0.3996	0.1707	0.266
Mof_H 	H 	0.4748	0.4057	0.185	-0.055
Mof_N 	N 	0.1992	0.5841	0.99639	-0.206
Mof_N 	N 	0.10618	0.5498	0.01853	-0.202
Mof_N 	N 	0.30836	0.4196	0.0741	-0.204
Mof_N 	N 	0.35812	0.456	0.2256	-0.205
Mof_C 	C 	0.23635	0.0979	0.4819	0.04
Mof_H 	H 	0.2292	0.1254	0.4695	0.014
Mof_C 	C 	0.28729	0.0664	0.48743	-0.05
Mof_H 	H 	0.3199	0.0695	0.4798	0.044
Mof_C 	C 	0.28073	0.0296	0.50638	-0.104
Mof_H 	H 	0.3079	0.0024	0.514	0.063
Mof_C 	C 	0.22603	0.0409	0.51185	0.114
Mof_C 	C 	0.1983	0.0118	0.52907	-0.126
Mof_C 	C 	0.14276	0.0129	0.53215	0.116
Mof_C 	C 	0.11366	0.9748	0.54797	-0.109
Mof_H 	H 	0.1287	0.9474	0.5593	0.065
Mof_C 	C 	0.0602	0.9849	0.54386	-0.042
Mof_H 	H 	0.0306	0.9648	0.5517	0.04
Mof_C 	C 	0.05634	0.0311	0.52562	0.033
Mof_H 	H 	0.0232	0.0466	0.5193	0.018
Mof_C 	C 	0.23436	0.9769	0.5454	0.092
Mof_C 	C 	0.2592	0.9045	0.54334	-0.168
Mof_H 	H 	0.2514	0.8715	0.5319	0.083
Mof_C 	C 	0.2966	0.878	0.55807	0.093
Mof_H 	H 	0.3139	0.8273	0.5562	-0.021
Mof_C 	C 	0.2849	0.9934	0.57689	0.086
Mof_C 	C 	0.2991	0.0435	0.59466	-0.107
Mof_H 	H 	0.3275	0.0275	0.6036	0.036
Mof_C 	C 	0.2681	0.1201	0.59841	-0.005
Mof_H 	H 	0.2736	0.1507	0.6105	0.024
Mof_C 	C 	0.2341	0.1432	0.58502	-0.066
Mof_H 	H 	0.2169	0.1939	0.587	0.05
Mof_C 	C 	0.2206	0.0998	0.56789	-0.02
Mof_H 	H 	0.1938	0.1214	0.559	0.042
Mof_C 	C 	0.2457	0.021	0.56259	-0.065
Mof_C 	C 	0.34657	0.0323	0.72863	0.048
Mof_H 	H 	0.3429	0.0554	0.7418	0.012
Mof_C 	C 	0.34	0.0775	0.71031	-0.055
Mof_H 	H 	0.331	0.1331	0.7089	0.047
Mof_C 	C 	0.34983	0.0218	0.69508	-0.095
Mof_H 	H 	0.3486	0.0323	0.6809	0.062
Mof_C 	C 	0.36187	0.9479	0.70401	0.102
Mof_C 	C 	0.4229	0.8828	0.6612	-0.054
Mof_H 	H 	0.4565	0.8898	0.6681	-0.136
Mof_C 	C 	0.4198	0.8801	0.6395	0.113
Mof_H 	H 	0.4529	0.8822	0.6321	-0.15
Mof_C 	C 	0.4735	0.8906	0.6288	0.203
Mof_H 	H 	0.4742	0.8901	0.6143	-0.062
Mof_C 	C 	0.5219	0.901	0.6393	-0.116
Mof_H 	H 	0.5545	0.9034	0.6315	0.059
Mof_C 	C 	0.526	0.9079	0.6598	-0.138
Mof_H 	H 	0.5596	0.9174	0.6666	0.067
Mof_C 	C 	0.4743	0.8996	0.6707	0.266
Mof_H 	H 	0.4748	0.9057	0.685	-0.055
Mof_N 	N 	0.1992	0.0841	0.49639	-0.206
Mof_N 	N 	0.10618	0.0498	0.51853	-0.202
Mof_N 	N 	0.30836	0.9196	0.5741	-0.204
Mof_N 	N 	0.35812	0.956	0.7256	-0.205
Mof_C 	C 	0.73635	0.5979	0.4819	0.04
Mof_H 	H 	0.7292	0.6254	0.4695	0.014
Mof_C 	C 	0.78729	0.5664	0.48743	-0.05
Mof_H 	H 	0.8199	0.5695	0.4798	0.044
Mof_C 	C 	0.78073	0.5296	0.50638	-0.104
Mof_H 	H 	0.8079	0.5024	0.514	0.063
Mof_C 	C 	0.72603	0.5409	0.51185	0.114
Mof_C 	C 	0.6983	0.5118	0.52907	-0.126
Mof_C 	C 	0.64276	0.5129	0.53215	0.116
Mof_C 	C 	0.61366	0.4748	0.54797	-0.109
Mof_H 	H 	0.6287	0.4474	0.5593	0.065
Mof_C 	C 	0.5602	0.4849	0.54386	-0.042
Mof_H 	H 	0.5306	0.4648	0.5517	0.04
Mof_C 	C 	0.55634	0.5311	0.52562	0.033
Mof_H 	H 	0.5232	0.5466	0.5193	0.018
Mof_C 	C 	0.73436	0.4769	0.5454	0.092
Mof_C 	C 	0.7592	0.4045	0.54334	-0.168
Mof_H 	H 	0.7514	0.3715	0.5319	0.083
Mof_C 	C 	0.7966	0.378	0.55807	0.093
Mof_H 	H 	0.8139	0.3273	0.5562	-0.021
Mof_C 	C 	0.7849	0.4934	0.57689	0.086
Mof_C 	C 	0.7991	0.5435	0.59466	-0.107
Mof_H 	H 	0.8275	0.5275	0.6036	0.036
Mof_C 	C 	0.7681	0.6201	0.59841	-0.005
Mof_H 	H 	0.7736	0.6507	0.6105	0.024
Mof_C 	C 	0.7341	0.6432	0.58502	-0.066
Mof_H 	H 	0.7169	0.6939	0.587	0.05
Mof_C 	C 	0.7206	0.5998	0.56789	-0.02
Mof_H 	H 	0.6938	0.6214	0.559	0.042
Mof_C 	C 	0.7457	0.521	0.56259	-0.065
Mof_C 	C 	0.84657	0.5323	0.72863	0.048
Mof_H 	H 	0.8429	0.5554	0.7418	0.012
Mof_C 	C 	0.84	0.5775	0.71031	-0.055
Mof_H 	H 	0.831	0.6331	0.7089	0.047
Mof_C 	C 	0.84983	0.5218	0.69508	-0.095
Mof_H 	H 	0.8486	0.5323	0.6809	0.062
Mof_C 	C 	0.86187	0.4479	0.70401	0.102
Mof_C 	C 	0.9229	0.3828	0.6612	-0.054
Mof_H 	H 	0.9565	0.3898	0.6681	-0.136
Mof_C 	C 	0.9198	0.3801	0.6395	0.113
Mof_H 	H 	0.9529	0.3822	0.6321	-0.15
Mof_C 	C 	0.9735	0.3906	0.6288	0.203
Mof_H 	H 	0.9742	0.3901	0.6143	-0.062
Mof_C 	C 	0.0219	0.401	0.6393	-0.116
Mof_H 	H 	0.0545	0.4034	0.6315	0.059
Mof_C 	C 	0.026	0.4079	0.6598	-0.138
Mof_H 	H 	0.0596	0.4174	0.6666	0.067
Mof_C 	C 	0.9743	0.3996	0.6707	0.266
Mof_H 	H 	0.9748	0.4057	0.685	-0.055
Mof_N 	N 	0.6992	0.5841	0.49639	-0.206
Mof_N 	N 	0.60618	0.5498	0.51853	-0.202
Mof_N 	N 	0.80836	0.4196	0.5741	-0.204
Mof_N 	N 	0.85812	0.456	0.7256	-0.206
Mof_C 	C 	0.73635	0.0979	0.9819	0.04
Mof_H 	H 	0.7292	0.1254	0.9695	0.014
Mof_C 	C 	0.78729	0.0664	0.98743	-0.05
Mof_H 	H 	0.8199	0.0695	0.9798	0.044
Mof_C 	C 	0.78073	0.0296	0.00638	-0.104
Mof_H 	H 	0.8079	0.0024	0.014	0.063
Mof_C 	C 	0.72603	0.0409	0.01185	0.114
Mof_C 	C 	0.6983	0.0118	0.02907	-0.126
Mof_C 	C 	0.64276	0.0129	0.03215	0.116
Mof_C 	C 	0.61366	0.9748	0.04797	-0.109
Mof_H 	H 	0.6287	0.9474	0.0593	0.065
Mof_C 	C 	0.5602	0.9849	0.04386	-0.042
Mof_H 	H 	0.5306	0.9648	0.0517	0.04
Mof_C 	C 	0.55634	0.0311	0.02562	0.033
Mof_H 	H 	0.5232	0.0466	0.0193	0.018
Mof_C 	C 	0.73436	0.9769	0.0454	0.092
Mof_C 	C 	0.7592	0.9045	0.04334	-0.168
Mof_H 	H 	0.7514	0.8715	0.0319	0.083
Mof_C 	C 	0.7966	0.878	0.05807	0.093
Mof_H 	H 	0.8139	0.8273	0.0562	-0.021
Mof_C 	C 	0.7849	0.9934	0.07689	0.085
Mof_C 	C 	0.7991	0.0435	0.09466	-0.107
Mof_H 	H 	0.8275	0.0275	0.1036	0.036
Mof_C 	C 	0.7681	0.1201	0.09841	-0.006
Mof_H 	H 	0.7736	0.1507	0.1105	0.024
Mof_C 	C 	0.7341	0.1432	0.08502	-0.066
Mof_H 	H 	0.7169	0.1939	0.087	0.05
Mof_C 	C 	0.7206	0.0998	0.06789	-0.021
Mof_H 	H 	0.6938	0.1214	0.059	0.042
Mof_C 	C 	0.7457	0.021	0.06259	-0.065
Mof_C 	C 	0.84657	0.0323	0.22863	0.048
Mof_H 	H 	0.8429	0.0554	0.2418	0.012
Mof_C 	C 	0.84	0.0775	0.21031	-0.055
Mof_H 	H 	0.831	0.1331	0.2089	0.048
Mof_C 	C 	0.84983	0.0218	0.19508	-0.095
Mof_H 	H 	0.8486	0.0323	0.1809	0.062
Mof_C 	C 	0.86187	0.9479	0.20401	0.102
Mof_C 	C 	0.9229	0.8828	0.1612	-0.054
Mof_H 	H 	0.9565	0.8898	0.1681	-0.136
Mof_C 	C 	0.9198	0.8801	0.1395	0.113
Mof_H 	H 	0.9529	0.8822	0.1321	-0.15
Mof_C 	C 	0.9735	0.8906	0.1288	0.203
Mof_H 	H 	0.9742	0.8901	0.1143	-0.062
Mof_C 	C 	0.0219	0.901	0.1393	-0.116
Mof_H 	H 	0.0545	0.9034	0.1315	0.059
Mof_C 	C 	0.026	0.9079	0.1598	-0.138
Mof_H 	H 	0.0596	0.9174	0.1666	0.067
Mof_C 	C 	0.9743	0.8996	0.1707	0.266
Mof_H 	H 	0.9748	0.9057	0.185	-0.055
Mof_N 	N 	0.6992	0.0841	0.99639	-0.206
Mof_N 	N 	0.60618	0.0498	0.01853	-0.202
Mof_N 	N 	0.80836	0.9196	0.0741	-0.204
Mof_N 	N 	0.85812	0.956	0.2256	-0.206
Mof_C 	C 	0.76365	0.8479	0.2319	0.04
Mof_H 	H 	0.7708	0.8754	0.2195	0.014
Mof_C 	C 	0.71271	0.8164	0.23743	-0.05
Mof_H 	H 	0.6801	0.8195	0.2298	0.044
Mof_C 	C 	0.71927	0.7796	0.25638	-0.104
Mof_H 	H 	0.6921	0.7524	0.264	0.063
Mof_C 	C 	0.77397	0.7909	0.26185	0.114
Mof_C 	C 	0.8017	0.7618	0.27907	-0.126
Mof_C 	C 	0.85724	0.7629	0.28215	0.116
Mof_C 	C 	0.88634	0.7248	0.29797	-0.109
Mof_H 	H 	0.8713	0.6974	0.3093	0.065
Mof_C 	C 	0.9398	0.7349	0.29386	-0.042
Mof_H 	H 	0.9694	0.7148	0.3017	0.04
Mof_C 	C 	0.94366	0.7811	0.27562	0.033
Mof_H 	H 	0.9768	0.7966	0.2693	0.018
Mof_C 	C 	0.76564	0.7269	0.2954	0.092
Mof_C 	C 	0.7408	0.6545	0.29334	-0.168
Mof_H 	H 	0.7486	0.6215	0.2819	0.083
Mof_C 	C 	0.7034	0.628	0.30807	0.093
Mof_H 	H 	0.6861	0.5773	0.3062	-0.021
Mof_C 	C 	0.7151	0.7434	0.32689	0.086
Mof_C 	C 	0.7009	0.7935	0.34466	-0.107
Mof_H 	H 	0.6725	0.7775	0.3536	0.036
Mof_C 	C 	0.7319	0.8701	0.34841	-0.005
Mof_H 	H 	0.7264	0.9007	0.3605	0.024
Mof_C 	C 	0.7659	0.8932	0.33502	-0.066
Mof_H 	H 	0.7831	0.9439	0.337	0.05
Mof_C 	C 	0.7794	0.8498	0.31789	-0.02
Mof_H 	H 	0.8062	0.8714	0.309	0.042
Mof_C 	C 	0.7543	0.771	0.31259	-0.065
Mof_C 	C 	0.65343	0.7823	0.47863	0.048
Mof_H 	H 	0.6571	0.8054	0.4918	0.012
Mof_C 	C 	0.66	0.8275	0.46031	-0.055
Mof_H 	H 	0.669	0.8831	0.4589	0.047
Mof_C 	C 	0.65017	0.7718	0.44508	-0.095
Mof_H 	H 	0.6514	0.7823	0.4309	0.062
Mof_C 	C 	0.63813	0.6979	0.45401	0.102
Mof_C 	C 	0.5771	0.6328	0.4112	-0.054
Mof_H 	H 	0.5435	0.6398	0.4181	-0.136
Mof_C 	C 	0.5802	0.6301	0.3895	0.113
Mof_H 	H 	0.5471	0.6322	0.3821	-0.15
Mof_C 	C 	0.5265	0.6406	0.3788	0.203
Mof_H 	H 	0.5258	0.6401	0.3643	-0.062
Mof_C 	C 	0.4781	0.651	0.3893	-0.116
Mof_H 	H 	0.4455	0.6534	0.3815	0.059
Mof_C 	C 	0.474	0.6579	0.4098	-0.138
Mof_H 	H 	0.4404	0.6674	0.4166	0.067
Mof_C 	C 	0.5257	0.6496	0.4207	0.266
Mof_H 	H 	0.5252	0.6557	0.435	-0.055
Mof_N 	N 	0.8008	0.8341	0.24639	-0.206
Mof_N 	N 	0.89382	0.7998	0.26853	-0.202
Mof_N 	N 	0.69164	0.6696	0.3241	-0.204
Mof_N 	N 	0.64188	0.706	0.4756	-0.205
Mof_C 	C 	0.76365	0.3479	0.7319	0.04
Mof_H 	H 	0.7708	0.3754	0.7195	0.014
Mof_C 	C 	0.71271	0.3164	0.73743	-0.05
Mof_H 	H 	0.6801	0.3195	0.7298	0.044
Mof_C 	C 	0.71927	0.2796	0.75638	-0.104
Mof_H 	H 	0.6921	0.2524	0.764	0.063
Mof_C 	C 	0.77397	0.2909	0.76185	0.114
Mof_C 	C 	0.8017	0.2618	0.77907	-0.126
Mof_C 	C 	0.85724	0.2629	0.78215	0.116
Mof_C 	C 	0.88634	0.2248	0.79797	-0.109
Mof_H 	H 	0.8713	0.1974	0.8093	0.065
Mof_C 	C 	0.9398	0.2349	0.79386	-0.042
Mof_H 	H 	0.9694	0.2148	0.8017	0.04
Mof_C 	C 	0.94366	0.2811	0.77562	0.033
Mof_H 	H 	0.9768	0.2966	0.7693	0.018
Mof_C 	C 	0.76564	0.2269	0.7954	0.092
Mof_C 	C 	0.7408	0.1545	0.79334	-0.168
Mof_H 	H 	0.7486	0.1215	0.7819	0.083
Mof_C 	C 	0.7034	0.128	0.80807	0.093
Mof_H 	H 	0.6861	0.0773	0.8062	-0.021
Mof_C 	C 	0.7151	0.2434	0.82689	0.086
Mof_C 	C 	0.7009	0.2935	0.84466	-0.107
Mof_H 	H 	0.6725	0.2775	0.8536	0.036
Mof_C 	C 	0.7319	0.3701	0.84841	-0.005
Mof_H 	H 	0.7264	0.4007	0.8605	0.024
Mof_C 	C 	0.7659	0.3932	0.83502	-0.066
Mof_H 	H 	0.7831	0.4439	0.837	0.05
Mof_C 	C 	0.7794	0.3498	0.81789	-0.02
Mof_H 	H 	0.8062	0.3714	0.809	0.042
Mof_C 	C 	0.7543	0.271	0.81259	-0.065
Mof_C 	C 	0.65343	0.2823	0.97863	0.048
Mof_H 	H 	0.6571	0.3054	0.9918	0.012
Mof_C 	C 	0.66	0.3275	0.96031	-0.055
Mof_H 	H 	0.669	0.3831	0.9589	0.047
Mof_C 	C 	0.65017	0.2718	0.94508	-0.095
Mof_H 	H 	0.6514	0.2823	0.9309	0.062
Mof_C 	C 	0.63813	0.1979	0.95401	0.102
Mof_C 	C 	0.5771	0.1328	0.9112	-0.054
Mof_H 	H 	0.5435	0.1398	0.9181	-0.136
Mof_C 	C 	0.5802	0.1301	0.8895	0.113
Mof_H 	H 	0.5471	0.1322	0.8821	-0.15
Mof_C 	C 	0.5265	0.1406	0.8788	0.203
Mof_H 	H 	0.5258	0.1401	0.8643	-0.062
Mof_C 	C 	0.4781	0.151	0.8893	-0.116
Mof_H 	H 	0.4455	0.1534	0.8815	0.059
Mof_C 	C 	0.474	0.1579	0.9098	-0.138
Mof_H 	H 	0.4404	0.1674	0.9166	0.067
Mof_C 	C 	0.5257	0.1496	0.9207	0.266
Mof_H 	H 	0.5252	0.1557	0.935	-0.055
Mof_N 	N 	0.8008	0.3341	0.74639	-0.206
Mof_N 	N 	0.89382	0.2998	0.76853	-0.202
Mof_N 	N 	0.69164	0.1696	0.8241	-0.204
Mof_N 	N 	0.64188	0.206	0.9756	-0.205
Mof_C 	C 	0.26365	0.8479	0.7319	0.04
Mof_H 	H 	0.2708	0.8754	0.7195	0.014
Mof_C 	C 	0.21271	0.8164	0.73743	-0.05
Mof_H 	H 	0.1801	0.8195	0.7298	0.044
Mof_C 	C 	0.21927	0.7796	0.75638	-0.104
Mof_H 	H 	0.1921	0.7524	0.764	0.063
Mof_C 	C 	0.27397	0.7909	0.76185	0.114
Mof_C 	C 	0.3017	0.7618	0.77907	-0.126
Mof_C 	C 	0.35724	0.7629	0.78215	0.116
Mof_C 	C 	0.38634	0.7248	0.79797	-0.109
Mof_H 	H 	0.3713	0.6974	0.8093	0.065
Mof_C 	C 	0.4398	0.7349	0.79386	-0.042
Mof_H 	H 	0.4694	0.7148	0.8017	0.04
Mof_C 	C 	0.44366	0.7811	0.77562	0.033
Mof_H 	H 	0.4768	0.7966	0.7693	0.018
Mof_C 	C 	0.26564	0.7269	0.7954	0.092
Mof_C 	C 	0.2408	0.6545	0.79334	-0.168
Mof_H 	H 	0.2486	0.6215	0.7819	0.083
Mof_C 	C 	0.2034	0.628	0.80807	0.093
Mof_H 	H 	0.1861	0.5773	0.8062	-0.021
Mof_C 	C 	0.2151	0.7434	0.82689	0.086
Mof_C 	C 	0.2009	0.7935	0.84466	-0.107
Mof_H 	H 	0.1725	0.7775	0.8536	0.036
Mof_C 	C 	0.2319	0.8701	0.84841	-0.005
Mof_H 	H 	0.2264	0.9007	0.8605	0.024
Mof_C 	C 	0.2659	0.8932	0.83502	-0.066
Mof_H 	H 	0.2831	0.9439	0.837	0.05
Mof_C 	C 	0.2794	0.8498	0.81789	-0.02
Mof_H 	H 	0.3062	0.8714	0.809	0.042
Mof_C 	C 	0.2543	0.771	0.81259	-0.065
Mof_C 	C 	0.15343	0.7823	0.97863	0.048
Mof_H 	H 	0.1571	0.8054	0.9918	0.012
Mof_C 	C 	0.16	0.8275	0.96031	-0.055
Mof_H 	H 	0.169	0.8831	0.9589	0.048
Mof_C 	C 	0.15017	0.7718	0.94508	-0.095
Mof_H 	H 	0.1514	0.7823	0.9309	0.062
Mof_C 	C 	0.13813	0.6979	0.95401	0.102
Mof_C 	C 	0.0771	0.6328	0.9112	-0.054
Mof_H 	H 	0.0435	0.6398	0.9181	-0.136
Mof_C 	C 	0.0802	0.6301	0.8895	0.113
Mof_H 	H 	0.0471	0.6322	0.8821	-0.15
Mof_C 	C 	0.0265	0.6406	0.8788	0.203
Mof_H 	H 	0.0258	0.6401	0.8643	-0.062
Mof_C 	C 	0.9781	0.651	0.8893	-0.116
Mof_H 	H 	0.9455	0.6534	0.8815	0.059
Mof_C 	C 	0.974	0.6579	0.9098	-0.138
Mof_H 	H 	0.9404	0.6674	0.9166	0.067
Mof_C 	C 	0.0257	0.6496	0.9207	0.266
Mof_H 	H 	0.0252	0.6557	0.935	-0.055
Mof_N 	N 	0.3008	0.8341	0.74639	-0.206
Mof_N 	N 	0.39382	0.7998	0.76853	-0.202
Mof_N 	N 	0.19164	0.6696	0.8241	-0.204
Mof_N 	N 	0.14188	0.706	0.9756	-0.205
Mof_C 	C 	0.26365	0.3479	0.2319	0.04
Mof_H 	H 	0.2708	0.3754	0.2195	0.014
Mof_C 	C 	0.21271	0.3164	0.23743	-0.05
Mof_H 	H 	0.1801	0.3195	0.2298	0.044
Mof_C 	C 	0.21927	0.2796	0.25638	-0.104
Mof_H 	H 	0.1921	0.2524	0.264	0.063
Mof_C 	C 	0.27397	0.2909	0.26185	0.114
Mof_C 	C 	0.3017	0.2618	0.27907	-0.126
Mof_C 	C 	0.35724	0.2629	0.28215	0.116
Mof_C 	C 	0.38634	0.2248	0.29797	-0.109
Mof_H 	H 	0.3713	0.1974	0.3093	0.065
Mof_C 	C 	0.4398	0.2349	0.29386	-0.042
Mof_H 	H 	0.4694	0.2148	0.3017	0.04
Mof_C 	C 	0.44366	0.2811	0.27562	0.033
Mof_H 	H 	0.4768	0.2966	0.2693	0.018
Mof_C 	C 	0.26564	0.2269	0.2954	0.092
Mof_C 	C 	0.2408	0.1545	0.29334	-0.168
Mof_H 	H 	0.2486	0.1215	0.2819	0.083
Mof_C 	C 	0.2034	0.128	0.30807	0.093
Mof_H 	H 	0.1861	0.0773	0.3062	-0.021
Mof_C 	C 	0.2151	0.2434	0.32689	0.086
Mof_C 	C 	0.2009	0.2935	0.34466	-0.107
Mof_H 	H 	0.1725	0.2775	0.3536	0.036
Mof_C 	C 	0.2319	0.3701	0.34841	-0.005
Mof_H 	H 	0.2264	0.4007	0.3605	0.024
Mof_C 	C 	0.2659	0.3932	0.33502	-0.066
Mof_H 	H 	0.2831	0.4439	0.337	0.05
Mof_C 	C 	0.2794	0.3498	0.31789	-0.02
Mof_H 	H 	0.3062	0.3714	0.309	0.042
Mof_C 	C 	0.2543	0.271	0.31259	-0.065
Mof_C 	C 	0.15343	0.2823	0.47863	0.048
Mof_H 	H 	0.1571	0.3054	0.4918	0.012
Mof_C 	C 	0.16	0.3275	0.46031	-0.055
Mof_H 	H 	0.169	0.3831	0.4589	0.047
Mof_C 	C 	0.15017	0.2718	0.44508	-0.095
Mof_H 	H 	0.1514	0.2823	0.4309	0.062
Mof_C 	C 	0.13813	0.1979	0.45401	0.102
Mof_C 	C 	0.0771	0.1328	0.4112	-0.054
Mof_H 	H 	0.0435	0.1398	0.4181	-0.136
Mof_C 	C 	0.0802	0.1301	0.3895	0.113
Mof_H 	H 	0.0471	0.1322	0.3821	-0.15
Mof_C 	C 	0.0265	0.1406	0.3788	0.203
Mof_H 	H 	0.0258	0.1401	0.3643	-0.062
Mof_C 	C 	0.9781	0.151	0.3893	-0.116
Mof_H 	H 	0.9455	0.1534	0.3815	0.059
Mof_C 	C 	0.974	0.1579	0.4098	-0.138
Mof_H 	H 	0.9404	0.1674	0.4166	0.067
Mof_C 	C 	0.0257	0.1496	0.4207	0.266
Mof_H 	H 	0.0252	0.1557	0.435	-0.055
Mof_N 	N 	0.3008	0.3341	0.24639	-0.206
Mof_N 	N 	0.39382	0.2998	0.26853	-0.202
Mof_N 	N 	0.19164	0.1696	0.3241	-0.204
Mof_N 	N 	0.14188	0.206	0.4756	-0.205
Mof_C 	C 	0.48635	0.4021	0.2319	0.04
Mof_H 	H 	0.4792	0.3746	0.2195	0.014
Mof_C 	C 	0.53729	0.4336	0.23743	-0.05
Mof_H 	H 	0.5699	0.4305	0.2298	0.044
Mof_C 	C 	0.53073	0.4704	0.25638	-0.104
Mof_H 	H 	0.5579	0.4976	0.264	0.063
Mof_C 	C 	0.47603	0.4591	0.26185	0.114
Mof_C 	C 	0.4483	0.4882	0.27907	-0.126
Mof_C 	C 	0.39276	0.4871	0.28215	0.116
Mof_C 	C 	0.36366	0.5252	0.29797	-0.109
Mof_H 	H 	0.3787	0.5526	0.3093	0.065
Mof_C 	C 	0.3102	0.5151	0.29386	-0.042
Mof_H 	H 	0.2806	0.5352	0.3017	0.04
Mof_C 	C 	0.30634	0.4689	0.27562	0.033
Mof_H 	H 	0.2732	0.4534	0.2693	0.018
Mof_C 	C 	0.48436	0.5231	0.2954	0.092
Mof_C 	C 	0.5092	0.5955	0.29334	-0.168
Mof_H 	H 	0.5014	0.6285	0.2819	0.083
Mof_C 	C 	0.5466	0.622	0.30807	0.093
Mof_H 	H 	0.5639	0.6727	0.3062	-0.021
Mof_C 	C 	0.5349	0.5066	0.32689	0.086
Mof_C 	C 	0.5491	0.4565	0.34466	-0.107
Mof_H 	H 	0.5775	0.4725	0.3536	0.036
Mof_C 	C 	0.5181	0.3799	0.34841	-0.005
Mof_H 	H 	0.5236	0.3493	0.3605	0.024
Mof_C 	C 	0.4841	0.3568	0.33502	-0.066
Mof_H 	H 	0.4669	0.3061	0.337	0.05
Mof_C 	C 	0.4706	0.4002	0.31789	-0.02
Mof_H 	H 	0.4438	0.3786	0.309	0.042
Mof_C 	C 	0.4957	0.479	0.31259	-0.065
Mof_C 	C 	0.59657	0.4677	0.47863	0.048
Mof_H 	H 	0.5929	0.4446	0.4918	0.012
Mof_C 	C 	0.59	0.4225	0.46031	-0.055
Mof_H 	H 	0.581	0.3669	0.4589	0.047
Mof_C 	C 	0.59983	0.4782	0.44508	-0.095
Mof_H 	H 	0.5986	0.4677	0.4309	0.062
Mof_C 	C 	0.61187	0.5521	0.45401	0.102
Mof_C 	C 	0.6729	0.6172	0.4112	-0.054
Mof_H 	H 	0.7065	0.6102	0.4181	-0.136
Mof_C 	C 	0.6698	0.6199	0.3895	0.113
Mof_H 	H 	0.7029	0.6178	0.3821	-0.15
Mof_C 	C 	0.7235	0.6094	0.3788	0.203
Mof_H 	H 	0.7242	0.6099	0.3643	-0.062
Mof_C 	C 	0.7719	0.599	0.3893	-0.116
Mof_H 	H 	0.8045	0.5966	0.3815	0.059
Mof_C 	C 	0.776	0.5921	0.4098	-0.138
Mof_H 	H 	0.8096	0.5826	0.4166	0.067
Mof_C 	C 	0.7243	0.6004	0.4207	0.266
Mof_H 	H 	0.7248	0.5943	0.435	-0.055
Mof_N 	N 	0.4492	0.4159	0.24639	-0.206
Mof_N 	N 	0.35618	0.4502	0.26853	-0.202
Mof_N 	N 	0.55836	0.5804	0.3241	-0.204
Mof_N 	N 	0.60812	0.544	0.4756	-0.205
Mof_C 	C 	0.48635	0.9021	0.7319	0.04
Mof_H 	H 	0.4792	0.8746	0.7195	0.014
Mof_C 	C 	0.53729	0.9336	0.73743	-0.05
Mof_H 	H 	0.5699	0.9305	0.7298	0.044
Mof_C 	C 	0.53073	0.9704	0.75638	-0.104
Mof_H 	H 	0.5579	0.9976	0.764	0.063
Mof_C 	C 	0.47603	0.9591	0.76185	0.114
Mof_C 	C 	0.4483	0.9882	0.77907	-0.126
Mof_C 	C 	0.39276	0.9871	0.78215	0.117
Mof_C 	C 	0.36366	0.0252	0.79797	-0.109
Mof_H 	H 	0.3787	0.0526	0.8093	0.065
Mof_C 	C 	0.3102	0.0151	0.79386	-0.042
Mof_H 	H 	0.2806	0.0352	0.8017	0.04
Mof_C 	C 	0.30634	0.9689	0.77562	0.033
Mof_H 	H 	0.2732	0.9534	0.7693	0.018
Mof_C 	C 	0.48436	0.0231	0.7954	0.092
Mof_C 	C 	0.5092	0.0955	0.79334	-0.168
Mof_H 	H 	0.5014	0.1285	0.7819	0.083
Mof_C 	C 	0.5466	0.122	0.80807	0.093
Mof_H 	H 	0.5639	0.1727	0.8062	-0.021
Mof_C 	C 	0.5349	0.0066	0.82689	0.086
Mof_C 	C 	0.5491	0.9565	0.84466	-0.107
Mof_H 	H 	0.5775	0.9725	0.8536	0.036
Mof_C 	C 	0.5181	0.8799	0.84841	-0.006
Mof_H 	H 	0.5236	0.8493	0.8605	0.024
Mof_C 	C 	0.4841	0.8568	0.83502	-0.066
Mof_H 	H 	0.4669	0.8061	0.837	0.05
Mof_C 	C 	0.4706	0.9002	0.81789	-0.02
Mof_H 	H 	0.4438	0.8786	0.809	0.042
Mof_C 	C 	0.4957	0.979	0.81259	-0.065
Mof_C 	C 	0.59657	0.9677	0.97863	0.048
Mof_H 	H 	0.5929	0.9446	0.9918	0.012
Mof_C 	C 	0.59	0.9225	0.96031	-0.055
Mof_H 	H 	0.581	0.8669	0.9589	0.047
Mof_C 	C 	0.59983	0.9782	0.94508	-0.095
Mof_H 	H 	0.5986	0.9677	0.9309	0.062
Mof_C 	C 	0.61187	0.0521	0.95401	0.102
Mof_C 	C 	0.6729	0.1172	0.9112	-0.054
Mof_H 	H 	0.7065	0.1102	0.9181	-0.136
Mof_C 	C 	0.6698	0.1199	0.8895	0.113
Mof_H 	H 	0.7029	0.1178	0.8821	-0.15
Mof_C 	C 	0.7235	0.1094	0.8788	0.203
Mof_H 	H 	0.7242	0.1099	0.8643	-0.062
Mof_C 	C 	0.7719	0.099	0.8893	-0.116
Mof_H 	H 	0.8045	0.0966	0.8815	0.059
Mof_C 	C 	0.776	0.0921	0.9098	-0.138
Mof_H 	H 	0.8096	0.0826	0.9166	0.067
Mof_C 	C 	0.7243	0.1004	0.9207	0.266
Mof_H 	H 	0.7248	0.0943	0.935	-0.055
Mof_N 	N 	0.4492	0.9159	0.74639	-0.206
Mof_N 	N 	0.35618	0.9502	0.76853	-0.202
Mof_N 	N 	0.55836	0.0804	0.8241	-0.204
Mof_N 	N 	0.60812	0.044	0.9756	-0.205
Mof_C 	C 	0.98635	0.4021	0.7319	0.04
Mof_H 	H 	0.9792	0.3746	0.7195	0.014
Mof_C 	C 	0.03729	0.4336	0.73743	-0.05
Mof_H 	H 	0.0699	0.4305	0.7298	0.044
Mof_C 	C 	0.03073	0.4704	0.75638	-0.104
Mof_H 	H 	0.0579	0.4976	0.764	0.063
Mof_C 	C 	0.97603	0.4591	0.76185	0.114
Mof_C 	C 	0.9483	0.4882	0.77907	-0.126
Mof_C 	C 	0.89276	0.4871	0.78215	0.116
Mof_C 	C 	0.86366	0.5252	0.79797	-0.109
Mof_H 	H 	0.8787	0.5526	0.8093	0.065
Mof_C 	C 	0.8102	0.5151	0.79386	-0.042
Mof_H 	H 	0.7806	0.5352	0.8017	0.04
Mof_C 	C 	0.80634	0.4689	0.77562	0.033
Mof_H 	H 	0.7732	0.4534	0.7693	0.018
Mof_C 	C 	0.98436	0.5231	0.7954	0.092
Mof_C 	C 	0.0092	0.5955	0.79334	-0.168
Mof_H 	H 	0.0014	0.6285	0.7819	0.083
Mof_C 	C 	0.0466	0.622	0.80807	0.093
Mof_H 	H 	0.0639	0.6727	0.8062	-0.021
Mof_C 	C 	0.0349	0.5066	0.82689	0.086
Mof_C 	C 	0.0491	0.4565	0.84466	-0.107
Mof_H 	H 	0.0775	0.4725	0.8536	0.036
Mof_C 	C 	0.0181	0.3799	0.84841	-0.006
Mof_H 	H 	0.0236	0.3493	0.8605	0.024
Mof_C 	C 	0.9841	0.3568	0.83502	-0.066
Mof_H 	H 	0.9669	0.3061	0.837	0.05
Mof_C 	C 	0.9706	0.4002	0.81789	-0.02
Mof_H 	H 	0.9438	0.3786	0.809	0.042
Mof_C 	C 	0.9957	0.479	0.81259	-0.065
Mof_C 	C 	0.09657	0.4677	0.97863	0.048
Mof_H 	H 	0.0929	0.4446	0.9918	0.012
Mof_C 	C 	0.09	0.4225	0.96031	-0.055
Mof_H 	H 	0.081	0.3669	0.9589	0.047
Mof_C 	C 	0.09983	0.4782	0.94508	-0.095
Mof_H 	H 	0.0986	0.4677	0.9309	0.062
Mof_C 	C 	0.11187	0.5521	0.95401	0.102
Mof_C 	C 	0.1729	0.6172	0.9112	-0.054
Mof_H 	H 	0.2065	0.6102	0.9181	-0.136
Mof_C 	C 	0.1698	0.6199	0.8895	0.113
Mof_H 	H 	0.2029	0.6178	0.8821	-0.15
Mof_C 	C 	0.2235	0.6094	0.8788	0.203
Mof_H 	H 	0.2242	0.6099	0.8643	-0.062
Mof_C 	C 	0.2719	0.599	0.8893	-0.116
Mof_H 	H 	0.3045	0.5966	0.8815	0.059
Mof_C 	C 	0.276	0.5921	0.9098	-0.138
Mof_H 	H 	0.3096	0.5826	0.9166	0.067
Mof_C 	C 	0.2243	0.6004	0.9207	0.266
Mof_H 	H 	0.2248	0.5943	0.935	-0.055
Mof_N 	N 	0.9492	0.4159	0.74639	-0.206
Mof_N 	N 	0.85618	0.4502	0.76853	-0.202
Mof_N 	N 	0.05836	0.5804	0.8241	-0.204
Mof_N 	N 	0.10812	0.544	0.9756	-0.205
Mof_C 	C 	0.98635	0.9021	0.2319	0.04
Mof_H 	H 	0.9792	0.8746	0.2195	0.014
Mof_C 	C 	0.03729	0.9336	0.23743	-0.049
Mof_H 	H 	0.0699	0.9305	0.2298	0.043
Mof_C 	C 	0.03073	0.9704	0.25638	-0.104
Mof_H 	H 	0.0579	0.9976	0.264	0.063
Mof_C 	C 	0.97603	0.9591	0.26185	0.114
Mof_C 	C 	0.9483	0.9882	0.27907	-0.126
Mof_C 	C 	0.89276	0.9871	0.28215	0.116
Mof_C 	C 	0.86366	0.0252	0.29797	-0.109
Mof_H 	H 	0.8787	0.0526	0.3093	0.065
Mof_C 	C 	0.8102	0.0151	0.29386	-0.042
Mof_H 	H 	0.7806	0.0352	0.3017	0.04
Mof_C 	C 	0.80634	0.9689	0.27562	0.033
Mof_H 	H 	0.7732	0.9534	0.2693	0.018
Mof_C 	C 	0.98436	0.0231	0.2954	0.093
Mof_C 	C 	0.0092	0.0955	0.29334	-0.169
Mof_H 	H 	0.0014	0.1285	0.2819	0.083
Mof_C 	C 	0.0466	0.122	0.30807	0.093
Mof_H 	H 	0.0639	0.1727	0.3062	-0.021
Mof_C 	C 	0.0349	0.0066	0.32689	0.086
Mof_C 	C 	0.0491	0.9565	0.34466	-0.107
Mof_H 	H 	0.0775	0.9725	0.3536	0.036
Mof_C 	C 	0.0181	0.8799	0.34841	-0.005
Mof_H 	H 	0.0236	0.8493	0.3605	0.024
Mof_C 	C 	0.9841	0.8568	0.33502	-0.067
Mof_H 	H 	0.9669	0.8061	0.337	0.05
Mof_C 	C 	0.9706	0.9002	0.31789	-0.02
Mof_H 	H 	0.9438	0.8786	0.309	0.042
Mof_C 	C 	0.9957	0.979	0.31259	-0.066
Mof_C 	C 	0.09657	0.9677	0.47863	0.048
Mof_H 	H 	0.0929	0.9446	0.4918	0.012
Mof_C 	C 	0.09	0.9225	0.46031	-0.055
Mof_H 	H 	0.081	0.8669	0.4589	0.048
Mof_C 	C 	0.09983	0.9782	0.44508	-0.095
Mof_H 	H 	0.0986	0.9677	0.4309	0.062
Mof_C 	C 	0.11187	0.0521	0.45401	0.102
Mof_C 	C 	0.1729	0.1172	0.4112	-0.054
Mof_H 	H 	0.2065	0.1102	0.4181	-0.136
Mof_C 	C 	0.1698	0.1199	0.3895	0.113
Mof_H 	H 	0.2029	0.1178	0.3821	-0.15
Mof_C 	C 	0.2235	0.1094	0.3788	0.203
Mof_H 	H 	0.2242	0.1099	0.3643	-0.062
Mof_C 	C 	0.2719	0.099	0.3893	-0.116
Mof_H 	H 	0.3045	0.0966	0.3815	0.059
Mof_C 	C 	0.276	0.0921	0.4098	-0.138
Mof_H 	H 	0.3096	0.0826	0.4166	0.067
Mof_C 	C 	0.2243	0.1004	0.4207	0.266
Mof_H 	H 	0.2248	0.0943	0.435	-0.055
Mof_N 	N 	0.9492	0.9159	0.24639	-0.206
Mof_N 	N 	0.85618	0.9502	0.26853	-0.202
Mof_N 	N 	0.05836	0.0804	0.3241	-0.204
Mof_N 	N 	0.10812	0.044	0.4756	-0.206
Mof_Ag	Ag	0.375	0.375	0.09567	0.577
Mof_C 	C 	0.375	0.375	0.19477	-0.099
Mof_C 	C 	0.375	0.375	0.17153	0.039
Mof_N 	N 	0.375	0.375	0.12934	-0.225
Mof_Ag	Ag	0.375	0.875	0.59567	0.577
Mof_C 	C 	0.375	0.875	0.69477	-0.099
Mof_C 	C 	0.375	0.875	0.67153	0.039
Mof_N 	N 	0.375	0.875	0.62934	-0.225
Mof_Ag	Ag	0.875	0.375	0.59567	0.577
Mof_C 	C 	0.875	0.375	0.69477	-0.099
Mof_C 	C 	0.875	0.375	0.67153	0.039
Mof_N 	N 	0.875	0.375	0.62934	-0.225
Mof_Ag	Ag	0.875	0.875	0.09567	0.577
Mof_C 	C 	0.875	0.875	0.19477	-0.099
Mof_C 	C 	0.875	0.875	0.17153	0.039
Mof_N 	N 	0.875	0.875	0.12934	-0.225
Mof_Ag	Ag	0.625	0.625	0.34567	0.577
Mof_C 	C 	0.625	0.625	0.44477	-0.099
Mof_C 	C 	0.625	0.625	0.42153	0.039
Mof_N 	N 	0.625	0.625	0.37934	-0.225
Mof_Ag	Ag	0.625	0.125	0.84567	0.577
Mof_C 	C 	0.625	0.125	0.94477	-0.099
Mof_C 	C 	0.625	0.125	0.92153	0.039
Mof_N 	N 	0.625	0.125	0.87934	-0.225
Mof_Ag	Ag	0.125	0.625	0.84567	0.577
Mof_C 	C 	0.125	0.625	0.94477	-0.099
Mof_C 	C 	0.125	0.625	0.92153	0.039
Mof_N 	N 	0.125	0.625	0.87934	-0.225
Mof_Ag	Ag	0.125	0.125	0.34567	0.577
Mof_C 	C 	0.125	0.125	0.44477	-0.099
Mof_C 	C 	0.125	0.125	0.42153	0.039
Mof_N 	N 	0.125	0.125	0.37934	-0.225
Mof_Fe	Fe	0.625	0.125	0.99639	0.771
Mof_Fe	Fe	0.625	0.625	0.49639	0.771
Mof_Fe	Fe	0.125	0.625	0.99639	0.771
Mof_Fe	Fe	0.125	0.125	0.49639	0.771
Mof_Fe	Fe	0.875	0.875	0.24639	0.771
Mof_Fe	Fe	0.875	0.375	0.74639	0.771
Mof_Fe	Fe	0.375	0.375	0.24639	0.771
Mof_Fe	Fe	0.375	0.875	0.74639	0.771
Mof_C 	C 	0.23635	0.1521	0.7681	0.04
Mof_H 	H 	0.2292	0.1246	0.7805	0.014
Mof_C 	C 	0.28729	0.1836	0.76257	-0.05
Mof_H 	H 	0.3199	0.1805	0.7702	0.044
Mof_C 	C 	0.28073	0.2204	0.74362	-0.104
Mof_H 	H 	0.3079	0.2476	0.736	0.063
Mof_C 	C 	0.22603	0.2091	0.73815	0.114
Mof_C 	C 	0.1983	0.2382	0.72093	-0.126
Mof_C 	C 	0.14276	0.2371	0.71785	0.116
Mof_C 	C 	0.11366	0.2752	0.70203	-0.109
Mof_H 	H 	0.1287	0.3026	0.6907	0.065
Mof_C 	C 	0.0602	0.2651	0.70614	-0.042
Mof_H 	H 	0.0306	0.2852	0.6983	0.04
Mof_C 	C 	0.05634	0.2189	0.72438	0.033
Mof_H 	H 	0.0232	0.2034	0.7307	0.018
Mof_C 	C 	0.23436	0.2731	0.7046	0.092
Mof_C 	C 	0.2592	0.3455	0.70666	-0.168
Mof_H 	H 	0.2514	0.3785	0.7181	0.083
Mof_C 	C 	0.2966	0.372	0.69193	0.093
Mof_H 	H 	0.3139	0.4227	0.6938	-0.021
Mof_C 	C 	0.2849	0.2566	0.67311	0.086
Mof_C 	C 	0.2991	0.2065	0.65534	-0.107
Mof_H 	H 	0.3275	0.2225	0.6464	0.036
Mof_C 	C 	0.2681	0.1299	0.65159	-0.005
Mof_H 	H 	0.2736	0.0993	0.6395	0.024
Mof_C 	C 	0.2341	0.1068	0.66498	-0.066
Mof_H 	H 	0.2169	0.0561	0.663	0.05
Mof_C 	C 	0.2206	0.1502	0.68211	-0.02
Mof_H 	H 	0.1938	0.1286	0.691	0.042
Mof_C 	C 	0.2457	0.229	0.68741	-0.065
Mof_C 	C 	0.34657	0.2177	0.52137	0.048
Mof_H 	H 	0.3429	0.1946	0.5082	0.012
Mof_C 	C 	0.34	0.1725	0.53969	-0.055
Mof_H 	H 	0.331	0.1169	0.5411	0.047
Mof_C 	C 	0.34983	0.2282	0.55492	-0.095
Mof_H 	H 	0.3486	0.2177	0.5691	0.062
Mof_C 	C 	0.36187	0.3021	0.54599	0.102
Mof_C 	C 	0.4229	0.3672	0.5888	-0.054
Mof_H 	H 	0.4565	0.3602	0.5819	-0.136
Mof_C 	C 	0.4198	0.3699	0.6105	0.113
Mof_H 	H 	0.4529	0.3678	0.6179	-0.15
Mof_C 	C 	0.4735	0.3594	0.6212	0.203
Mof_H 	H 	0.4742	0.3599	0.6357	-0.062
Mof_C 	C 	0.5219	0.349	0.6107	-0.116
Mof_H 	H 	0.5545	0.3466	0.6185	0.059
Mof_C 	C 	0.526	0.3421	0.5902	-0.138
Mof_H 	H 	0.5596	0.3326	0.5834	0.067
Mof_C 	C 	0.4743	0.3504	0.5793	0.266
Mof_H 	H 	0.4748	0.3443	0.565	-0.055
Mof_N 	N 	0.1992	0.1659	0.75361	-0.206
Mof_N 	N 	0.10618	0.2002	0.73147	-0.202
Mof_N 	N 	0.30836	0.3304	0.6759	-0.204
Mof_N 	N 	0.35812	0.294	0.5244	-0.205
Mof_C 	C 	0.23635	0.6521	0.2681	0.04
Mof_H 	H 	0.2292	0.6246	0.2805	0.014
Mof_C 	C 	0.28729	0.6836	0.26257	-0.05
Mof_H 	H 	0.3199	0.6805	0.2702	0.044
Mof_C 	C 	0.28073	0.7204	0.24362	-0.104
Mof_H 	H 	0.3079	0.7476	0.236	0.063
Mof_C 	C 	0.22603	0.7091	0.23815	0.114
Mof_C 	C 	0.1983	0.7382	0.22093	-0.126
Mof_C 	C 	0.14276	0.7371	0.21785	0.116
Mof_C 	C 	0.11366	0.7752	0.20203	-0.109
Mof_H 	H 	0.1287	0.8026	0.1907	0.065
Mof_C 	C 	0.0602	0.7651	0.20614	-0.042
Mof_H 	H 	0.0306	0.7852	0.1983	0.04
Mof_C 	C 	0.05634	0.7189	0.22438	0.033
Mof_H 	H 	0.0232	0.7034	0.2307	0.018
Mof_C 	C 	0.23436	0.7731	0.2046	0.092
Mof_C 	C 	0.2592	0.8455	0.20666	-0.168
Mof_H 	H 	0.2514	0.8785	0.2181	0.083
Mof_C 	C 	0.2966	0.872	0.19193	0.093
Mof_H 	H 	0.3139	0.9227	0.1938	-0.021
Mof_C 	C 	0.2849	0.7566	0.17311	0.086
Mof_C 	C 	0.2991	0.7065	0.15534	-0.107
Mof_H 	H 	0.3275	0.7225	0.1464	0.036
Mof_C 	C 	0.2681	0.6299	0.15159	-0.005
Mof_H 	H 	0.2736	0.5993	0.1395	0.024
Mof_C 	C 	0.2341	0.6068	0.16498	-0.066
Mof_H 	H 	0.2169	0.5561	0.163	0.05
Mof_C 	C 	0.2206	0.6502	0.18211	-0.02
Mof_H 	H 	0.1938	0.6286	0.191	0.042
Mof_C 	C 	0.2457	0.729	0.18741	-0.065
Mof_C 	C 	0.34657	0.7177	0.02137	0.048
Mof_H 	H 	0.3429	0.6946	0.0082	0.012
Mof_C 	C 	0.34	0.6725	0.03969	-0.055
Mof_H 	H 	0.331	0.6169	0.0411	0.047
Mof_C 	C 	0.34983	0.7282	0.05492	-0.095
Mof_H 	H 	0.3486	0.7177	0.0691	0.062
Mof_C 	C 	0.36187	0.8021	0.04599	0.102
Mof_C 	C 	0.4229	0.8672	0.0888	-0.054
Mof_H 	H 	0.4565	0.8602	0.0819	-0.136
Mof_C 	C 	0.4198	0.8699	0.1105	0.113
Mof_H 	H 	0.4529	0.8678	0.1179	-0.15
Mof_C 	C 	0.4735	0.8594	0.1212	0.203
Mof_H 	H 	0.4742	0.8599	0.1357	-0.062
Mof_C 	C 	0.5219	0.849	0.1107	-0.116
Mof_H 	H 	0.5545	0.8466	0.1185	0.059
Mof_C 	C 	0.526	0.8421	0.0902	-0.138
Mof_H 	H 	0.5596	0.8326	0.0834	0.067
Mof_C 	C 	0.4743	0.8504	0.0793	0.266
Mof_H 	H 	0.4748	0.8443	0.065	-0.055
Mof_N 	N 	0.1992	0.6659	0.25361	-0.206
Mof_N 	N 	0.10618	0.7002	0.23147	-0.202
Mof_N 	N 	0.30836	0.8304	0.1759	-0.204
Mof_N 	N 	0.35812	0.794	0.0244	-0.205
Mof_C 	C 	0.73635	0.1521	0.2681	0.04
Mof_H 	H 	0.7292	0.1246	0.2805	0.014
Mof_C 	C 	0.78729	0.1836	0.26257	-0.05
Mof_H 	H 	0.8199	0.1805	0.2702	0.044
Mof_C 	C 	0.78073	0.2204	0.24362	-0.104
Mof_H 	H 	0.8079	0.2476	0.236	0.063
Mof_C 	C 	0.72603	0.2091	0.23815	0.114
Mof_C 	C 	0.6983	0.2382	0.22093	-0.126
Mof_C 	C 	0.64276	0.2371	0.21785	0.116
Mof_C 	C 	0.61366	0.2752	0.20203	-0.109
Mof_H 	H 	0.6287	0.3026	0.1907	0.065
Mof_C 	C 	0.5602	0.2651	0.20614	-0.042
Mof_H 	H 	0.5306	0.2852	0.1983	0.04
Mof_C 	C 	0.55634	0.2189	0.22438	0.033
Mof_H 	H 	0.5232	0.2034	0.2307	0.018
Mof_C 	C 	0.73436	0.2731	0.2046	0.092
Mof_C 	C 	0.7592	0.3455	0.20666	-0.168
Mof_H 	H 	0.7514	0.3785	0.2181	0.083
Mof_C 	C 	0.7966	0.372	0.19193	0.093
Mof_H 	H 	0.8139	0.4227	0.1938	-0.021
Mof_C 	C 	0.7849	0.2566	0.17311	0.086
Mof_C 	C 	0.7991	0.2065	0.15534	-0.107
Mof_H 	H 	0.8275	0.2225	0.1464	0.036
Mof_C 	C 	0.7681	0.1299	0.15159	-0.005
Mof_H 	H 	0.7736	0.0993	0.1395	0.024
Mof_C 	C 	0.7341	0.1068	0.16498	-0.066
Mof_H 	H 	0.7169	0.0561	0.163	0.05
Mof_C 	C 	0.7206	0.1502	0.18211	-0.02
Mof_H 	H 	0.6938	0.1286	0.191	0.042
Mof_C 	C 	0.7457	0.229	0.18741	-0.065
Mof_C 	C 	0.84657	0.2177	0.02137	0.048
Mof_H 	H 	0.8429	0.1946	0.0082	0.012
Mof_C 	C 	0.84	0.1725	0.03969	-0.055
Mof_H 	H 	0.831	0.1169	0.0411	0.048
Mof_C 	C 	0.84983	0.2282	0.05492	-0.095
Mof_H 	H 	0.8486	0.2177	0.0691	0.062
Mof_C 	C 	0.86187	0.3021	0.04599	0.102
Mof_C 	C 	0.9229	0.3672	0.0888	-0.054
Mof_H 	H 	0.9565	0.3602	0.0819	-0.136
Mof_C 	C 	0.9198	0.3699	0.1105	0.113
Mof_H 	H 	0.9529	0.3678	0.1179	-0.15
Mof_C 	C 	0.9735	0.3594	0.1212	0.203
Mof_H 	H 	0.9742	0.3599	0.1357	-0.062
Mof_C 	C 	0.0219	0.349	0.1107	-0.116
Mof_H 	H 	0.0545	0.3466	0.1185	0.059
Mof_C 	C 	0.026	0.3421	0.0902	-0.138
Mof_H 	H 	0.0596	0.3326	0.0834	0.067
Mof_C 	C 	0.9743	0.3504	0.0793	0.266
Mof_H 	H 	0.9748	0.3443	0.065	-0.055
Mof_N 	N 	0.6992	0.1659	0.25361	-0.206
Mof_N 	N 	0.60618	0.2002	0.23147	-0.202
Mof_N 	N 	0.80836	0.3304	0.1759	-0.204
Mof_N 	N 	0.85812	0.294	0.0244	-0.205
Mof_C 	C 	0.73635	0.6521	0.7681	0.04
Mof_H 	H 	0.7292	0.6246	0.7805	0.014
Mof_C 	C 	0.78729	0.6836	0.76257	-0.05
Mof_H 	H 	0.8199	0.6805	0.7702	0.044
Mof_C 	C 	0.78073	0.7204	0.74362	-0.104
Mof_H 	H 	0.8079	0.7476	0.736	0.063
Mof_C 	C 	0.72603	0.7091	0.73815	0.114
Mof_C 	C 	0.6983	0.7382	0.72093	-0.126
Mof_C 	C 	0.64276	0.7371	0.71785	0.116
Mof_C 	C 	0.61366	0.7752	0.70203	-0.109
Mof_H 	H 	0.6287	0.8026	0.6907	0.065
Mof_C 	C 	0.5602	0.7651	0.70614	-0.042
Mof_H 	H 	0.5306	0.7852	0.6983	0.04
Mof_C 	C 	0.55634	0.7189	0.72438	0.033
Mof_H 	H 	0.5232	0.7034	0.7307	0.018
Mof_C 	C 	0.73436	0.7731	0.7046	0.092
Mof_C 	C 	0.7592	0.8455	0.70666	-0.168
Mof_H 	H 	0.7514	0.8785	0.7181	0.083
Mof_C 	C 	0.7966	0.872	0.69193	0.093
Mof_H 	H 	0.8139	0.9227	0.6938	-0.021
Mof_C 	C 	0.7849	0.7566	0.67311	0.086
Mof_C 	C 	0.7991	0.7065	0.65534	-0.107
Mof_H 	H 	0.8275	0.7225	0.6464	0.036
Mof_C 	C 	0.7681	0.6299	0.65159	-0.005
Mof_H 	H 	0.7736	0.5993	0.6395	0.024
Mof_C 	C 	0.7341	0.6068	0.66498	-0.066
Mof_H 	H 	0.7169	0.5561	0.663	0.05
Mof_C 	C 	0.7206	0.6502	0.68211	-0.02
Mof_H 	H 	0.6938	0.6286	0.691	0.042
Mof_C 	C 	0.7457	0.729	0.68741	-0.065
Mof_C 	C 	0.84657	0.7177	0.52137	0.048
Mof_H 	H 	0.8429	0.6946	0.5082	0.012
Mof_C 	C 	0.84	0.6725	0.53969	-0.055
Mof_H 	H 	0.831	0.6169	0.5411	0.047
Mof_C 	C 	0.84983	0.7282	0.55492	-0.095
Mof_H 	H 	0.8486	0.7177	0.5691	0.062
Mof_C 	C 	0.86187	0.8021	0.54599	0.102
Mof_C 	C 	0.9229	0.8672	0.5888	-0.054
Mof_H 	H 	0.9565	0.8602	0.5819	-0.136
Mof_C 	C 	0.9198	0.8699	0.6105	0.113
Mof_H 	H 	0.9529	0.8678	0.6179	-0.15
Mof_C 	C 	0.9735	0.8594	0.6212	0.203
Mof_H 	H 	0.9742	0.8599	0.6357	-0.062
Mof_C 	C 	0.0219	0.849	0.6107	-0.116
Mof_H 	H 	0.0545	0.8466	0.6185	0.059
Mof_C 	C 	0.026	0.8421	0.5902	-0.138
Mof_H 	H 	0.0596	0.8326	0.5834	0.067
Mof_C 	C 	0.9743	0.8504	0.5793	0.266
Mof_H 	H 	0.9748	0.8443	0.565	-0.055
Mof_N 	N 	0.6992	0.6659	0.75361	-0.206
Mof_N 	N 	0.60618	0.7002	0.73147	-0.202
Mof_N 	N 	0.80836	0.8304	0.6759	-0.204
Mof_N 	N 	0.85812	0.794	0.5244	-0.205
Mof_C 	C 	0.51365	0.5979	0.7681	0.04
Mof_H 	H 	0.5208	0.6254	0.7805	0.014
Mof_C 	C 	0.46271	0.5664	0.76257	-0.05
Mof_H 	H 	0.4301	0.5695	0.7702	0.044
Mof_C 	C 	0.46927	0.5296	0.74362	-0.104
Mof_H 	H 	0.4421	0.5024	0.736	0.063
Mof_C 	C 	0.52397	0.5409	0.73815	0.114
Mof_C 	C 	0.5517	0.5118	0.72093	-0.126
Mof_C 	C 	0.60724	0.5129	0.71785	0.116
Mof_C 	C 	0.63634	0.4748	0.70203	-0.109
Mof_H 	H 	0.6213	0.4474	0.6907	0.065
Mof_C 	C 	0.6898	0.4849	0.70614	-0.042
Mof_H 	H 	0.7194	0.4648	0.6983	0.04
Mof_C 	C 	0.69366	0.5311	0.72438	0.033
Mof_H 	H 	0.7268	0.5466	0.7307	0.018
Mof_C 	C 	0.51564	0.4769	0.7046	0.092
Mof_C 	C 	0.4908	0.4045	0.70666	-0.168
Mof_H 	H 	0.4986	0.3715	0.7181	0.083
Mof_C 	C 	0.4534	0.378	0.69193	0.093
Mof_H 	H 	0.4361	0.3273	0.6938	-0.021
Mof_C 	C 	0.4651	0.4934	0.67311	0.086
Mof_C 	C 	0.4509	0.5435	0.65534	-0.107
Mof_H 	H 	0.4225	0.5275	0.6464	0.036
Mof_C 	C 	0.4819	0.6201	0.65159	-0.005
Mof_H 	H 	0.4764	0.6507	0.6395	0.024
Mof_C 	C 	0.5159	0.6432	0.66498	-0.066
Mof_H 	H 	0.5331	0.6939	0.663	0.05
Mof_C 	C 	0.5294	0.5998	0.68211	-0.02
Mof_H 	H 	0.5562	0.6214	0.691	0.042
Mof_C 	C 	0.5043	0.521	0.68741	-0.065
Mof_C 	C 	0.40343	0.5323	0.52137	0.048
Mof_H 	H 	0.4071	0.5554	0.5082	0.012
Mof_C 	C 	0.41	0.5775	0.53969	-0.055
Mof_H 	H 	0.419	0.6331	0.5411	0.047
Mof_C 	C 	0.40017	0.5218	0.55492	-0.095
Mof_H 	H 	0.4014	0.5323	0.5691	0.062
Mof_C 	C 	0.38813	0.4479	0.54599	0.102
Mof_C 	C 	0.3271	0.3828	0.5888	-0.054
Mof_H 	H 	0.2935	0.3898	0.5819	-0.136
Mof_C 	C 	0.3302	0.3801	0.6105	0.113
Mof_H 	H 	0.2971	0.3822	0.6179	-0.15
Mof_C 	C 	0.2765	0.3906	0.6212	0.203
Mof_H 	H 	0.2758	0.3901	0.6357	-0.062
Mof_C 	C 	0.2281	0.401	0.6107	-0.116
Mof_H 	H 	0.1955	0.4034	0.6185	0.059
Mof_C 	C 	0.224	0.4079	0.5902	-0.138
Mof_H 	H 	0.1904	0.4174	0.5834	0.067
Mof_C 	C 	0.2757	0.3996	0.5793	0.266
Mof_H 	H 	0.2752	0.4057	0.565	-0.055
Mof_N 	N 	0.5508	0.5841	0.75361	-0.206
Mof_N 	N 	0.64382	0.5498	0.73147	-0.202
Mof_N 	N 	0.44164	0.4196	0.6759	-0.204
Mof_N 	N 	0.39188	0.456	0.5244	-0.205
Mof_C 	C 	0.51365	0.0979	0.2681	0.04
Mof_H 	H 	0.5208	0.1254	0.2805	0.014
Mof_C 	C 	0.46271	0.0664	0.26257	-0.05
Mof_H 	H 	0.4301	0.0695	0.2702	0.044
Mof_C 	C 	0.46927	0.0296	0.24362	-0.104
Mof_H 	H 	0.4421	0.0024	0.236	0.063
Mof_C 	C 	0.52397	0.0409	0.23815	0.114
Mof_C 	C 	0.5517	0.0118	0.22093	-0.126
Mof_C 	C 	0.60724	0.0129	0.21785	0.117
Mof_C 	C 	0.63634	0.9748	0.20203	-0.109
Mof_H 	H 	0.6213	0.9474	0.1907	0.065
Mof_C 	C 	0.6898	0.9849	0.20614	-0.042
Mof_H 	H 	0.7194	0.9648	0.1983	0.04
Mof_C 	C 	0.69366	0.0311	0.22438	0.033
Mof_H 	H 	0.7268	0.0466	0.2307	0.018
Mof_C 	C 	0.51564	0.9769	0.2046	0.092
Mof_C 	C 	0.4908	0.9045	0.20666	-0.168
Mof_H 	H 	0.4986	0.8715	0.2181	0.083
Mof_C 	C 	0.4534	0.878	0.19193	0.093
Mof_H 	H 	0.4361	0.8273	0.1938	-0.021
Mof_C 	C 	0.4651	0.9934	0.17311	0.086
Mof_C 	C 	0.4509	0.0435	0.15534	-0.107
Mof_H 	H 	0.4225	0.0275	0.1464	0.036
Mof_C 	C 	0.4819	0.1201	0.15159	-0.006
Mof_H 	H 	0.4764	0.1507	0.1395	0.024
Mof_C 	C 	0.5159	0.1432	0.16498	-0.066
Mof_H 	H 	0.5331	0.1939	0.163	0.05
Mof_C 	C 	0.5294	0.0998	0.18211	-0.02
Mof_H 	H 	0.5562	0.1214	0.191	0.042
Mof_C 	C 	0.5043	0.021	0.18741	-0.065
Mof_C 	C 	0.40343	0.0323	0.02137	0.048
Mof_H 	H 	0.4071	0.0554	0.0082	0.012
Mof_C 	C 	0.41	0.0775	0.03969	-0.055
Mof_H 	H 	0.419	0.1331	0.0411	0.047
Mof_C 	C 	0.40017	0.0218	0.05492	-0.095
Mof_H 	H 	0.4014	0.0323	0.0691	0.062
Mof_C 	C 	0.38813	0.9479	0.04599	0.102
Mof_C 	C 	0.3271	0.8828	0.0888	-0.054
Mof_H 	H 	0.2935	0.8898	0.0819	-0.136
Mof_C 	C 	0.3302	0.8801	0.1105	0.113
Mof_H 	H 	0.2971	0.8822	0.1179	-0.15
Mof_C 	C 	0.2765	0.8906	0.1212	0.203
Mof_H 	H 	0.2758	0.8901	0.1357	-0.062
Mof_C 	C 	0.2281	0.901	0.1107	-0.116
Mof_H 	H 	0.1955	0.9034	0.1185	0.059
Mof_C 	C 	0.224	0.9079	0.0902	-0.138
Mof_H 	H 	0.1904	0.9174	0.0834	0.067
Mof_C 	C 	0.2757	0.8996	0.0793	0.266
Mof_H 	H 	0.2752	0.9057	0.065	-0.055
Mof_N 	N 	0.5508	0.0841	0.25361	-0.206
Mof_N 	N 	0.64382	0.0498	0.23147	-0.202
Mof_N 	N 	0.44164	0.9196	0.1759	-0.204
Mof_N 	N 	0.39188	0.956	0.0244	-0.205
Mof_C 	C 	0.01365	0.5979	0.2681	0.04
Mof_H 	H 	0.0208	0.6254	0.2805	0.014
Mof_C 	C 	0.96271	0.5664	0.26257	-0.05
Mof_H 	H 	0.9301	0.5695	0.2702	0.044
Mof_C 	C 	0.96927	0.5296	0.24362	-0.104
Mof_H 	H 	0.9421	0.5024	0.236	0.063
Mof_C 	C 	0.02397	0.5409	0.23815	0.114
Mof_C 	C 	0.0517	0.5118	0.22093	-0.126
Mof_C 	C 	0.10724	0.5129	0.21785	0.116
Mof_C 	C 	0.13634	0.4748	0.20203	-0.109
Mof_H 	H 	0.1213	0.4474	0.1907	0.065
Mof_C 	C 	0.1898	0.4849	0.20614	-0.042
Mof_H 	H 	0.2194	0.4648	0.1983	0.04
Mof_C 	C 	0.19366	0.5311	0.22438	0.033
Mof_H 	H 	0.2268	0.5466	0.2307	0.018
Mof_C 	C 	0.01564	0.4769	0.2046	0.092
Mof_C 	C 	0.9908	0.4045	0.20666	-0.168
Mof_H 	H 	0.9986	0.3715	0.2181	0.083
Mof_C 	C 	0.9534	0.378	0.19193	0.093
Mof_H 	H 	0.9361	0.3273	0.1938	-0.021
Mof_C 	C 	0.9651	0.4934	0.17311	0.086
Mof_C 	C 	0.9509	0.5435	0.15534	-0.107
Mof_H 	H 	0.9225	0.5275	0.1464	0.036
Mof_C 	C 	0.9819	0.6201	0.15159	-0.006
Mof_H 	H 	0.9764	0.6507	0.1395	0.024
Mof_C 	C 	0.0159	0.6432	0.16498	-0.066
Mof_H 	H 	0.0331	0.6939	0.163	0.05
Mof_C 	C 	0.0294	0.5998	0.18211	-0.02
Mof_H 	H 	0.0562	0.6214	0.191	0.042
Mof_C 	C 	0.0043	0.521	0.18741	-0.065
Mof_C 	C 	0.90343	0.5323	0.02137	0.048
Mof_H 	H 	0.9071	0.5554	0.0082	0.012
Mof_C 	C 	0.91	0.5775	0.03969	-0.055
Mof_H 	H 	0.919	0.6331	0.0411	0.047
Mof_C 	C 	0.90017	0.5218	0.05492	-0.095
Mof_H 	H 	0.9014	0.5323	0.0691	0.062
Mof_C 	C 	0.88813	0.4479	0.04599	0.102
Mof_C 	C 	0.8271	0.3828	0.0888	-0.054
Mof_H 	H 	0.7935	0.3898	0.0819	-0.136
Mof_C 	C 	0.8302	0.3801	0.1105	0.113
Mof_H 	H 	0.7971	0.3822	0.1179	-0.15
Mof_C 	C 	0.7765	0.3906	0.1212	0.203
Mof_H 	H 	0.7758	0.3901	0.1357	-0.062
Mof_C 	C 	0.7281	0.401	0.1107	-0.116
Mof_H 	H 	0.6955	0.4034	0.1185	0.059
Mof_C 	C 	0.724	0.4079	0.0902	-0.138
Mof_H 	H 	0.6904	0.4174	0.0834	0.067
Mof_C 	C 	0.7757	0.3996	0.0793	0.266
Mof_H 	H 	0.7752	0.4057	0.065	-0.055
Mof_N 	N 	0.0508	0.5841	0.25361	-0.206
Mof_N 	N 	0.14382	0.5498	0.23147	-0.202
Mof_N 	N 	0.94164	0.4196	0.1759	-0.204
Mof_N 	N 	0.89188	0.456	0.0244	-0.205
Mof_C 	C 	0.01365	0.0979	0.7681	0.04
Mof_H 	H 	0.0208	0.1254	0.7805	0.014
Mof_C 	C 	0.96271	0.0664	0.76257	-0.049
Mof_H 	H 	0.9301	0.0695	0.7702	0.043
Mof_C 	C 	0.96927	0.0296	0.74362	-0.104
Mof_H 	H 	0.9421	0.0024	0.736	0.063
Mof_C 	C 	0.02397	0.0409	0.73815	0.114
Mof_C 	C 	0.0517	0.0118	0.72093	-0.126
Mof_C 	C 	0.10724	0.0129	0.71785	0.116
Mof_C 	C 	0.13634	0.9748	0.70203	-0.109
Mof_H 	H 	0.1213	0.9474	0.6907	0.065
Mof_C 	C 	0.1898	0.9849	0.70614	-0.042
Mof_H 	H 	0.2194	0.9648	0.6983	0.04
Mof_C 	C 	0.19366	0.0311	0.72438	0.033
Mof_H 	H 	0.2268	0.0466	0.7307	0.018
Mof_C 	C 	0.01564	0.9769	0.7046	0.093
Mof_C 	C 	0.9908	0.9045	0.70666	-0.169
Mof_H 	H 	0.9986	0.8715	0.7181	0.083
Mof_C 	C 	0.9534	0.878	0.69193	0.093
Mof_H 	H 	0.9361	0.8273	0.6938	-0.021
Mof_C 	C 	0.9651	0.9934	0.67311	0.086
Mof_C 	C 	0.9509	0.0435	0.65534	-0.107
Mof_H 	H 	0.9225	0.0275	0.6464	0.036
Mof_C 	C 	0.9819	0.1201	0.65159	-0.005
Mof_H 	H 	0.9764	0.1507	0.6395	0.024
Mof_C 	C 	0.0159	0.1432	0.66498	-0.067
Mof_H 	H 	0.0331	0.1939	0.663	0.05
Mof_C 	C 	0.0294	0.0998	0.68211	-0.02
Mof_H 	H 	0.0562	0.1214	0.691	0.042
Mof_C 	C 	0.0043	0.021	0.68741	-0.066
Mof_C 	C 	0.90343	0.0323	0.52137	0.048
Mof_H 	H 	0.9071	0.0554	0.5082	0.012
Mof_C 	C 	0.91	0.0775	0.53969	-0.055
Mof_H 	H 	0.919	0.1331	0.5411	0.048
Mof_C 	C 	0.90017	0.0218	0.55492	-0.095
Mof_H 	H 	0.9014	0.0323	0.5691	0.062
Mof_C 	C 	0.88813	0.9479	0.54599	0.102
Mof_C 	C 	0.8271	0.8828	0.5888	-0.054
Mof_H 	H 	0.7935	0.8898	0.5819	-0.136
Mof_C 	C 	0.8302	0.8801	0.6105	0.113
Mof_H 	H 	0.7971	0.8822	0.6179	-0.15
Mof_C 	C 	0.7765	0.8906	0.6212	0.203
Mof_H 	H 	0.7758	0.8901	0.6357	-0.062
Mof_C 	C 	0.7281	0.901	0.6107	-0.116
Mof_H 	H 	0.6955	0.9034	0.6185	0.059
Mof_C 	C 	0.724	0.9079	0.5902	-0.138
Mof_H 	H 	0.6904	0.9174	0.5834	0.067
Mof_C 	C 	0.7757	0.8996	0.5793	0.266
Mof_H 	H 	0.7752	0.9057	0.565	-0.055
Mof_N 	N 	0.0508	0.0841	0.75361	-0.206
Mof_N 	N 	0.14382	0.0498	0.73147	-0.202
Mof_N 	N 	0.94164	0.9196	0.6759	-0.204
Mof_N 	N 	0.89188	0.956	0.5244	-0.206
Mof_C 	C 	0.48635	0.8479	0.0181	0.04
Mof_H 	H 	0.4792	0.8754	0.0305	0.014
Mof_C 	C 	0.53729	0.8164	0.01257	-0.05
Mof_H 	H 	0.5699	0.8195	0.0202	0.044
Mof_C 	C 	0.53073	0.7796	0.99362	-0.104
Mof_H 	H 	0.5579	0.7524	0.986	0.063
Mof_C 	C 	0.47603	0.7909	0.98815	0.114
Mof_C 	C 	0.4483	0.7618	0.97093	-0.126
Mof_C 	C 	0.39276	0.7629	0.96785	0.116
Mof_C 	C 	0.36366	0.7248	0.95203	-0.109
Mof_H 	H 	0.3787	0.6974	0.9407	0.065
Mof_C 	C 	0.3102	0.7349	0.95614	-0.042
Mof_H 	H 	0.2806	0.7148	0.9483	0.04
Mof_C 	C 	0.30634	0.7811	0.97438	0.033
Mof_H 	H 	0.2732	0.7966	0.9807	0.018
Mof_C 	C 	0.48436	0.7269	0.9546	0.092
Mof_C 	C 	0.5092	0.6545	0.95666	-0.168
Mof_H 	H 	0.5014	0.6215	0.9681	0.083
Mof_C 	C 	0.5466	0.628	0.94193	0.093
Mof_H 	H 	0.5639	0.5773	0.9438	-0.021
Mof_C 	C 	0.5349	0.7434	0.92311	0.086
Mof_C 	C 	0.5491	0.7935	0.90534	-0.107
Mof_H 	H 	0.5775	0.7775	0.8964	0.036
Mof_C 	C 	0.5181	0.8701	0.90159	-0.005
Mof_H 	H 	0.5236	0.9007	0.8895	0.024
Mof_C 	C 	0.4841	0.8932	0.91498	-0.066
Mof_H 	H 	0.4669	0.9439	0.913	0.05
Mof_C 	C 	0.4706	0.8498	0.93211	-0.02
Mof_H 	H 	0.4438	0.8714	0.941	0.042
Mof_C 	C 	0.4957	0.771	0.93741	-0.065
Mof_C 	C 	0.59657	0.7823	0.77137	0.048
Mof_H 	H 	0.5929	0.8054	0.7582	0.012
Mof_C 	C 	0.59	0.8275	0.78969	-0.055
Mof_H 	H 	0.581	0.8831	0.7911	0.047
Mof_C 	C 	0.59983	0.7718	0.80492	-0.095
Mof_H 	H 	0.5986	0.7823	0.8191	0.062
Mof_C 	C 	0.61187	0.6979	0.79599	0.102
Mof_C 	C 	0.6729	0.6328	0.8388	-0.054
Mof_H 	H 	0.7065	0.6398	0.8319	-0.136
Mof_C 	C 	0.6698	0.6301	0.8605	0.113
Mof_H 	H 	0.7029	0.6322	0.8679	-0.15
Mof_C 	C 	0.7235	0.6406	0.8712	0.203
Mof_H 	H 	0.7242	0.6401	0.8857	-0.062
Mof_C 	C 	0.7719	0.651	0.8607	-0.116
Mof_H 	H 	0.8045	0.6534	0.8685	0.059
Mof_C 	C 	0.776	0.6579	0.8402	-0.138
Mof_H 	H 	0.8096	0.6674	0.8334	0.067
Mof_C 	C 	0.7243	0.6496	0.8293	0.266
Mof_H 	H 	0.7248	0.6557	0.815	-0.055
Mof_N 	N 	0.4492	0.8341	0.00361	-0.206
Mof_N 	N 	0.35618	0.7998	0.98147	-0.202
Mof_N 	N 	0.55836	0.6696	0.9259	-0.204
Mof_N 	N 	0.60812	0.706	0.7744	-0.205
Mof_C 	C 	0.48635	0.3479	0.5181	0.04
Mof_H 	H 	0.4792	0.3754	0.5305	0.014
Mof_C 	C 	0.53729	0.3164	0.51257	-0.05
Mof_H 	H 	0.5699	0.3195	0.5202	0.044
Mof_C 	C 	0.53073	0.2796	0.49362	-0.104
Mof_H 	H 	0.5579	0.2524	0.486	0.063
Mof_C 	C 	0.47603	0.2909	0.48815	0.114
Mof_C 	C 	0.4483	0.2618	0.47093	-0.126
Mof_C 	C 	0.39276	0.2629	0.46785	0.116
Mof_C 	C 	0.36366	0.2248	0.45203	-0.109
Mof_H 	H 	0.3787	0.1974	0.4407	0.065
Mof_C 	C 	0.3102	0.2349	0.45614	-0.042
Mof_H 	H 	0.2806	0.2148	0.4483	0.04
Mof_C 	C 	0.30634	0.2811	0.47438	0.033
Mof_H 	H 	0.2732	0.2966	0.4807	0.018
Mof_C 	C 	0.48436	0.2269	0.4546	0.092
Mof_C 	C 	0.5092	0.1545	0.45666	-0.168
Mof_H 	H 	0.5014	0.1215	0.4681	0.083
Mof_C 	C 	0.5466	0.128	0.44193	0.093
Mof_H 	H 	0.5639	0.0773	0.4438	-0.021
Mof_C 	C 	0.5349	0.2434	0.42311	0.086
Mof_C 	C 	0.5491	0.2935	0.40534	-0.107
Mof_H 	H 	0.5775	0.2775	0.3964	0.036
Mof_C 	C 	0.5181	0.3701	0.40159	-0.005
Mof_H 	H 	0.5236	0.4007	0.3895	0.024
Mof_C 	C 	0.4841	0.3932	0.41498	-0.066
Mof_H 	H 	0.4669	0.4439	0.413	0.05
Mof_C 	C 	0.4706	0.3498	0.43211	-0.02
Mof_H 	H 	0.4438	0.3714	0.441	0.042
Mof_C 	C 	0.4957	0.271	0.43741	-0.065
Mof_C 	C 	0.59657	0.2823	0.27137	0.048
Mof_H 	H 	0.5929	0.3054	0.2582	0.012
Mof_C 	C 	0.59	0.3275	0.28969	-0.055
Mof_H 	H 	0.581	0.3831	0.2911	0.047
Mof_C 	C 	0.59983	0.2718	0.30492	-0.095
Mof_H 	H 	0.5986	0.2823	0.3191	0.062
Mof_C 	C 	0.61187	0.1979	0.29599	0.102
Mof_C 	C 	0.6729	0.1328	0.3388	-0.054
Mof_H 	H 	0.7065	0.1398	0.3319	-0.136
Mof_C 	C 	0.6698	0.1301	0.3605	0.113
Mof_H 	H 	0.7029	0.1322	0.3679	-0.15
Mof_C 	C 	0.7235	0.1406	0.3712	0.203
Mof_H 	H 	0.7242	0.1401	0.3857	-0.062
Mof_C 	C 	0.7719	0.151	0.3607	-0.116
Mof_H 	H 	0.8045	0.1534	0.3685	0.059
Mof_C 	C 	0.776	0.1579	0.3402	-0.138
Mof_H 	H 	0.8096	0.1674	0.3334	0.067
Mof_C 	C 	0.7243	0.1496	0.3293	0.266
Mof_H 	H 	0.7248	0.1557	0.315	-0.055
Mof_N 	N 	0.4492	0.3341	0.50361	-0.206
Mof_N 	N 	0.35618	0.2998	0.48147	-0.202
Mof_N 	N 	0.55836	0.1696	0.4259	-0.204
Mof_N 	N 	0.60812	0.206	0.2744	-0.205
Mof_C 	C 	0.98635	0.8479	0.5181	0.04
Mof_H 	H 	0.9792	0.8754	0.5305	0.014
Mof_C 	C 	0.03729	0.8164	0.51257	-0.05
Mof_H 	H 	0.0699	0.8195	0.5202	0.044
Mof_C 	C 	0.03073	0.7796	0.49362	-0.104
Mof_H 	H 	0.0579	0.7524	0.486	0.063
Mof_C 	C 	0.97603	0.7909	0.48815	0.114
Mof_C 	C 	0.9483	0.7618	0.47093	-0.126
Mof_C 	C 	0.89276	0.7629	0.46785	0.116
Mof_C 	C 	0.86366	0.7248	0.45203	-0.109
Mof_H 	H 	0.8787	0.6974	0.4407	0.065
Mof_C 	C 	0.8102	0.7349	0.45614	-0.042
Mof_H 	H 	0.7806	0.7148	0.4483	0.04
Mof_C 	C 	0.80634	0.7811	0.47438	0.033
Mof_H 	H 	0.7732	0.7966	0.4807	0.018
Mof_C 	C 	0.98436	0.7269	0.4546	0.092
Mof_C 	C 	0.0092	0.6545	0.45666	-0.168
Mof_H 	H 	0.0014	0.6215	0.4681	0.083
Mof_C 	C 	0.0466	0.628	0.44193	0.093
Mof_H 	H 	0.0639	0.5773	0.4438	-0.021
Mof_C 	C 	0.0349	0.7434	0.42311	0.086
Mof_C 	C 	0.0491	0.7935	0.40534	-0.107
Mof_H 	H 	0.0775	0.7775	0.3964	0.036
Mof_C 	C 	0.0181	0.8701	0.40159	-0.005
Mof_H 	H 	0.0236	0.9007	0.3895	0.024
Mof_C 	C 	0.9841	0.8932	0.41498	-0.067
Mof_H 	H 	0.9669	0.9439	0.413	0.05
Mof_C 	C 	0.9706	0.8498	0.43211	-0.02
Mof_H 	H 	0.9438	0.8714	0.441	0.042
Mof_C 	C 	0.9957	0.771	0.43741	-0.066
Mof_C 	C 	0.09657	0.7823	0.27137	0.048
Mof_H 	H 	0.0929	0.8054	0.2582	0.012
Mof_C 	C 	0.09	0.8275	0.28969	-0.055
Mof_H 	H 	0.081	0.8831	0.2911	0.048
Mof_C 	C 	0.09983	0.7718	0.30492	-0.095
Mof_H 	H 	0.0986	0.7823	0.3191	0.062
Mof_C 	C 	0.11187	0.6979	0.29599	0.102
Mof_C 	C 	0.1729	0.6328	0.3388	-0.054
Mof_H 	H 	0.2065	0.6398	0.3319	-0.136
Mof_C 	C 	0.1698	0.6301	0.3605	0.113
Mof_H 	H 	0.2029	0.6322	0.3679	-0.15
Mof_C 	C 	0.2235	0.6406	0.3712	0.203
Mof_H 	H 	0.2242	0.6401	0.3857	-0.062
Mof_C 	C 	0.2719	0.651	0.3607	-0.116
Mof_H 	H 	0.3045	0.6534	0.3685	0.059
Mof_C 	C 	0.276	0.6579	0.3402	-0.138
Mof_H 	H 	0.3096	0.6674	0.3334	0.067
Mof_C 	C 	0.2243	0.6496	0.3293	0.266
Mof_H 	H 	0.2248	0.6557	0.315	-0.055
Mof_N 	N 	0.9492	0.8341	0.50361	-0.206
Mof_N 	N 	0.85618	0.7998	0.48147	-0.202
Mof_N 	N 	0.05836	0.6696	0.4259	-0.204
Mof_N 	N 	0.10812	0.706	0.2744	-0.205
Mof_C 	C 	0.98635	0.3479	0.0181	0.04
Mof_H 	H 	0.9792	0.3754	0.0305	0.014
Mof_C 	C 	0.03729	0.3164	0.01257	-0.05
Mof_H 	H 	0.0699	0.3195	0.0202	0.044
Mof_C 	C 	0.03073	0.2796	0.99362	-0.104
Mof_H 	H 	0.0579	0.2524	0.986	0.063
Mof_C 	C 	0.97603	0.2909	0.98815	0.114
Mof_C 	C 	0.9483	0.2618	0.97093	-0.126
Mof_C 	C 	0.89276	0.2629	0.96785	0.117
Mof_C 	C 	0.86366	0.2248	0.95203	-0.109
Mof_H 	H 	0.8787	0.1974	0.9407	0.065
Mof_C 	C 	0.8102	0.2349	0.95614	-0.042
Mof_H 	H 	0.7806	0.2148	0.9483	0.04
Mof_C 	C 	0.80634	0.2811	0.97438	0.033
Mof_H 	H 	0.7732	0.2966	0.9807	0.018
Mof_C 	C 	0.98436	0.2269	0.9546	0.092
Mof_C 	C 	0.0092	0.1545	0.95666	-0.168
Mof_H 	H 	0.0014	0.1215	0.9681	0.083
Mof_C 	C 	0.0466	0.128	0.94193	0.093
Mof_H 	H 	0.0639	0.0773	0.9438	-0.021
Mof_C 	C 	0.0349	0.2434	0.92311	0.086
Mof_C 	C 	0.0491	0.2935	0.90534	-0.107
Mof_H 	H 	0.0775	0.2775	0.8964	0.036
Mof_C 	C 	0.0181	0.3701	0.90159	-0.006
Mof_H 	H 	0.0236	0.4007	0.8895	0.024
Mof_C 	C 	0.9841	0.3932	0.91498	-0.066
Mof_H 	H 	0.9669	0.4439	0.913	0.05
Mof_C 	C 	0.9706	0.3498	0.93211	-0.02
Mof_H 	H 	0.9438	0.3714	0.941	0.042
Mof_C 	C 	0.9957	0.271	0.93741	-0.065
Mof_C 	C 	0.09657	0.2823	0.77137	0.048
Mof_H 	H 	0.0929	0.3054	0.7582	0.012
Mof_C 	C 	0.09	0.3275	0.78969	-0.055
Mof_H 	H 	0.081	0.3831	0.7911	0.047
Mof_C 	C 	0.09983	0.2718	0.80492	-0.095
Mof_H 	H 	0.0986	0.2823	0.8191	0.062
Mof_C 	C 	0.11187	0.1979	0.79599	0.102
Mof_C 	C 	0.1729	0.1328	0.8388	-0.054
Mof_H 	H 	0.2065	0.1398	0.8319	-0.136
Mof_C 	C 	0.1698	0.1301	0.8605	0.113
Mof_H 	H 	0.2029	0.1322	0.8679	-0.15
Mof_C 	C 	0.2235	0.1406	0.8712	0.203
Mof_H 	H 	0.2242	0.1401	0.8857	-0.062
Mof_C 	C 	0.2719	0.151	0.8607	-0.116
Mof_H 	H 	0.3045	0.1534	0.8685	0.059
Mof_C 	C 	0.276	0.1579	0.8402	-0.138
Mof_H 	H 	0.3096	0.1674	0.8334	0.067
Mof_C 	C 	0.2243	0.1496	0.8293	0.266
Mof_H 	H 	0.2248	0.1557	0.815	-0.055
Mof_N 	N 	0.9492	0.3341	0.00361	-0.206
Mof_N 	N 	0.85618	0.2998	0.98147	-0.202
Mof_N 	N 	0.05836	0.1696	0.9259	-0.204
Mof_N 	N 	0.10812	0.206	0.7744	-0.205
Mof_C 	C 	0.76365	0.4021	0.0181	0.04
Mof_H 	H 	0.7708	0.3746	0.0305	0.014
Mof_C 	C 	0.71271	0.4336	0.01257	-0.05
Mof_H 	H 	0.6801	0.4305	0.0202	0.044
Mof_C 	C 	0.71927	0.4704	0.99362	-0.104
Mof_H 	H 	0.6921	0.4976	0.986	0.063
Mof_C 	C 	0.77397	0.4591	0.98815	0.114
Mof_C 	C 	0.8017	0.4882	0.97093	-0.126
Mof_C 	C 	0.85724	0.4871	0.96785	0.116
Mof_C 	C 	0.88634	0.5252	0.95203	-0.109
Mof_H 	H 	0.8713	0.5526	0.9407	0.065
Mof_C 	C 	0.9398	0.5151	0.95614	-0.042
Mof_H 	H 	0.9694	0.5352	0.9483	0.04
Mof_C 	C 	0.94366	0.4689	0.97438	0.033
Mof_H 	H 	0.9768	0.4534	0.9807	0.018
Mof_C 	C 	0.76564	0.5231	0.9546	0.092
Mof_C 	C 	0.7408	0.5955	0.95666	-0.168
Mof_H 	H 	0.7486	0.6285	0.9681	0.083
Mof_C 	C 	0.7034	0.622	0.94193	0.093
Mof_H 	H 	0.6861	0.6727	0.9438	-0.021
Mof_C 	C 	0.7151	0.5066	0.92311	0.086
Mof_C 	C 	0.7009	0.4565	0.90534	-0.107
Mof_H 	H 	0.6725	0.4725	0.8964	0.036
Mof_C 	C 	0.7319	0.3799	0.90159	-0.005
Mof_H 	H 	0.7264	0.3493	0.8895	0.024
Mof_C 	C 	0.7659	0.3568	0.91498	-0.066
Mof_H 	H 	0.7831	0.3061	0.913	0.05
Mof_C 	C 	0.7794	0.4002	0.93211	-0.02
Mof_H 	H 	0.8062	0.3786	0.941	0.042
Mof_C 	C 	0.7543	0.479	0.93741	-0.065
Mof_C 	C 	0.65343	0.4677	0.77137	0.048
Mof_H 	H 	0.6571	0.4446	0.7582	0.012
Mof_C 	C 	0.66	0.4225	0.78969	-0.055
Mof_H 	H 	0.669	0.3669	0.7911	0.047
Mof_C 	C 	0.65017	0.4782	0.80492	-0.095
Mof_H 	H 	0.6514	0.4677	0.8191	0.062
Mof_C 	C 	0.63813	0.5521	0.79599	0.102
Mof_C 	C 	0.5771	0.6172	0.8388	-0.054
Mof_H 	H 	0.5435	0.6102	0.8319	-0.136
Mof_C 	C 	0.5802	0.6199	0.8605	0.113
Mof_H 	H 	0.5471	0.6178	0.8679	-0.15
Mof_C 	C 	0.5265	0.6094	0.8712	0.203
Mof_H 	H 	0.5258	0.6099	0.8857	-0.062
Mof_C 	C 	0.4781	0.599	0.8607	-0.116
Mof_H 	H 	0.4455	0.5966	0.8685	0.059
Mof_C 	C 	0.474	0.5921	0.8402	-0.138
Mof_H 	H 	0.4404	0.5826	0.8334	0.067
Mof_C 	C 	0.5257	0.6004	0.8293	0.266
Mof_H 	H 	0.5252	0.5943	0.815	-0.055
Mof_N 	N 	0.8008	0.4159	0.00361	-0.206
Mof_N 	N 	0.89382	0.4502	0.98147	-0.202
Mof_N 	N 	0.69164	0.5804	0.9259	-0.204
Mof_N 	N 	0.64188	0.544	0.7744	-0.205
Mof_C 	C 	0.76365	0.9021	0.5181	0.04
Mof_H 	H 	0.7708	0.8746	0.5305	0.014
Mof_C 	C 	0.71271	0.9336	0.51257	-0.05
Mof_H 	H 	0.6801	0.9305	0.5202	0.044
Mof_C 	C 	0.71927	0.9704	0.49362	-0.104
Mof_H 	H 	0.6921	0.9976	0.486	0.063
Mof_C 	C 	0.77397	0.9591	0.48815	0.114
Mof_C 	C 	0.8017	0.9882	0.47093	-0.126
Mof_C 	C 	0.85724	0.9871	0.46785	0.116
Mof_C 	C 	0.88634	0.0252	0.45203	-0.109
Mof_H 	H 	0.8713	0.0526	0.4407	0.065
Mof_C 	C 	0.9398	0.0151	0.45614	-0.042
Mof_H 	H 	0.9694	0.0352	0.4483	0.04
Mof_C 	C 	0.94366	0.9689	0.47438	0.033
Mof_H 	H 	0.9768	0.9534	0.4807	0.018
Mof_C 	C 	0.76564	0.0231	0.4546	0.092
Mof_C 	C 	0.7408	0.0955	0.45666	-0.168
Mof_H 	H 	0.7486	0.1285	0.4681	0.083
Mof_C 	C 	0.7034	0.122	0.44193	0.093
Mof_H 	H 	0.6861	0.1727	0.4438	-0.021
Mof_C 	C 	0.7151	0.0066	0.42311	0.086
Mof_C 	C 	0.7009	0.9565	0.40534	-0.107
Mof_H 	H 	0.6725	0.9725	0.3964	0.036
Mof_C 	C 	0.7319	0.8799	0.40159	-0.005
Mof_H 	H 	0.7264	0.8493	0.3895	0.024
Mof_C 	C 	0.7659	0.8568	0.41498	-0.066
Mof_H 	H 	0.7831	0.8061	0.413	0.05
Mof_C 	C 	0.7794	0.9002	0.43211	-0.02
Mof_H 	H 	0.8062	0.8786	0.441	0.042
Mof_C 	C 	0.7543	0.979	0.43741	-0.065
Mof_C 	C 	0.65343	0.9677	0.27137	0.048
Mof_H 	H 	0.6571	0.9446	0.2582	0.012
Mof_C 	C 	0.66	0.9225	0.28969	-0.055
Mof_H 	H 	0.669	0.8669	0.2911	0.047
Mof_C 	C 	0.65017	0.9782	0.30492	-0.095
Mof_H 	H 	0.6514	0.9677	0.3191	0.062
Mof_C 	C 	0.63813	0.0521	0.29599	0.102
Mof_C 	C 	0.5771	0.1172	0.3388	-0.054
Mof_H 	H 	0.5435	0.1102	0.3319	-0.136
Mof_C 	C 	0.5802	0.1199	0.3605	0.113
Mof_H 	H 	0.5471	0.1178	0.3679	-0.15
Mof_C 	C 	0.5265	0.1094	0.3712	0.203
Mof_H 	H 	0.5258	0.1099	0.3857	-0.062
Mof_C 	C 	0.4781	0.099	0.3607	-0.116
Mof_H 	H 	0.4455	0.0966	0.3685	0.059
Mof_C 	C 	0.474	0.0921	0.3402	-0.138
Mof_H 	H 	0.4404	0.0826	0.3334	0.067
Mof_C 	C 	0.5257	0.1004	0.3293	0.266
Mof_H 	H 	0.5252	0.0943	0.315	-0.055
Mof_N 	N 	0.8008	0.9159	0.50361	-0.206
Mof_N 	N 	0.89382	0.9502	0.48147	-0.202
Mof_N 	N 	0.69164	0.0804	0.4259	-0.204
Mof_N 	N 	0.64188	0.044	0.2744	-0.205
Mof_C 	C 	0.26365	0.4021	0.5181	0.04
Mof_H 	H 	0.2708	0.3746	0.5305	0.014
Mof_C 	C 	0.21271	0.4336	0.51257	-0.05
Mof_H 	H 	0.1801	0.4305	0.5202	0.044
Mof_C 	C 	0.21927	0.4704	0.49362	-0.104
Mof_H 	H 	0.1921	0.4976	0.486	0.063
Mof_C 	C 	0.27397	0.4591	0.48815	0.114
Mof_C 	C 	0.3017	0.4882	0.47093	-0.126
Mof_C 	C 	0.35724	0.4871	0.46785	0.116
Mof_C 	C 	0.38634	0.5252	0.45203	-0.109
Mof_H 	H 	0.3713	0.5526	0.4407	0.065
Mof_C 	C 	0.4398	0.5151	0.45614	-0.042
Mof_H 	H 	0.4694	0.5352	0.4483	0.04
Mof_C 	C 	0.44366	0.4689	0.47438	0.033
Mof_H 	H 	0.4768	0.4534	0.4807	0.018
Mof_C 	C 	0.26564	0.5231	0.4546	0.092
Mof_C 	C 	0.2408	0.5955	0.45666	-0.168
Mof_H 	H 	0.2486	0.6285	0.4681	0.083
Mof_C 	C 	0.2034	0.622	0.44193	0.093
Mof_H 	H 	0.1861	0.6727	0.4438	-0.021
Mof_C 	C 	0.2151	0.5066	0.42311	0.086
Mof_C 	C 	0.2009	0.4565	0.40534	-0.107
Mof_H 	H 	0.1725	0.4725	0.3964	0.036
Mof_C 	C 	0.2319	0.3799	0.40159	-0.005
Mof_H 	H 	0.2264	0.3493	0.3895	0.024
Mof_C 	C 	0.2659	0.3568	0.41498	-0.066
Mof_H 	H 	0.2831	0.3061	0.413	0.05
Mof_C 	C 	0.2794	0.4002	0.43211	-0.02
Mof_H 	H 	0.3062	0.3786	0.441	0.042
Mof_C 	C 	0.2543	0.479	0.43741	-0.065
Mof_C 	C 	0.15343	0.4677	0.27137	0.048
Mof_H 	H 	0.1571	0.4446	0.2582	0.012
Mof_C 	C 	0.16	0.4225	0.28969	-0.055
Mof_H 	H 	0.169	0.3669	0.2911	0.047
Mof_C 	C 	0.15017	0.4782	0.30492	-0.095
Mof_H 	H 	0.1514	0.4677	0.3191	0.062
Mof_C 	C 	0.13813	0.5521	0.29599	0.102
Mof_C 	C 	0.0771	0.6172	0.3388	-0.054
Mof_H 	H 	0.0435	0.6102	0.3319	-0.136
Mof_C 	C 	0.0802	0.6199	0.3605	0.113
Mof_H 	H 	0.0471	0.6178	0.3679	-0.15
Mof_C 	C 	0.0265	0.6094	0.3712	0.203
Mof_H 	H 	0.0258	0.6099	0.3857	-0.062
Mof_C 	C 	0.9781	0.599	0.3607	-0.116
Mof_H 	H 	0.9455	0.5966	0.3685	0.059
Mof_C 	C 	0.974	0.5921	0.3402	-0.138
Mof_H 	H 	0.9404	0.5826	0.3334	0.067
Mof_C 	C 	0.0257	0.6004	0.3293	0.266
Mof_H 	H 	0.0252	0.5943	0.315	-0.055
Mof_N 	N 	0.3008	0.4159	0.50361	-0.206
Mof_N 	N 	0.39382	0.4502	0.48147	-0.202
Mof_N 	N 	0.19164	0.5804	0.4259	-0.204
Mof_N 	N 	0.14188	0.544	0.2744	-0.206
Mof_C 	C 	0.26365	0.9021	0.0181	0.04
Mof_H 	H 	0.2708	0.8746	0.0305	0.014
Mof_C 	C 	0.21271	0.9336	0.01257	-0.05
Mof_H 	H 	0.1801	0.9305	0.0202	0.044
Mof_C 	C 	0.21927	0.9704	0.99362	-0.104
Mof_H 	H 	0.1921	0.9976	0.986	0.063
Mof_C 	C 	0.27397	0.9591	0.98815	0.114
Mof_C 	C 	0.3017	0.9882	0.97093	-0.126
Mof_C 	C 	0.35724	0.9871	0.96785	0.116
Mof_C 	C 	0.38634	0.0252	0.95203	-0.109
Mof_H 	H 	0.3713	0.0526	0.9407	0.065
Mof_C 	C 	0.4398	0.0151	0.95614	-0.042
Mof_H 	H 	0.4694	0.0352	0.9483	0.04
Mof_C 	C 	0.44366	0.9689	0.97438	0.033
Mof_H 	H 	0.4768	0.9534	0.9807	0.018
Mof_C 	C 	0.26564	0.0231	0.9546	0.092
Mof_C 	C 	0.2408	0.0955	0.95666	-0.168
Mof_H 	H 	0.2486	0.1285	0.9681	0.083
Mof_C 	C 	0.2034	0.122	0.94193	0.093
Mof_H 	H 	0.1861	0.1727	0.9438	-0.021
Mof_C 	C 	0.2151	0.0066	0.92311	0.085
Mof_C 	C 	0.2009	0.9565	0.90534	-0.107
Mof_H 	H 	0.1725	0.9725	0.8964	0.036
Mof_C 	C 	0.2319	0.8799	0.90159	-0.006
Mof_H 	H 	0.2264	0.8493	0.8895	0.024
Mof_C 	C 	0.2659	0.8568	0.91498	-0.066
Mof_H 	H 	0.2831	0.8061	0.913	0.05
Mof_C 	C 	0.2794	0.9002	0.93211	-0.021
Mof_H 	H 	0.3062	0.8786	0.941	0.042
Mof_C 	C 	0.2543	0.979	0.93741	-0.065
Mof_C 	C 	0.15343	0.9677	0.77137	0.048
Mof_H 	H 	0.1571	0.9446	0.7582	0.012
Mof_C 	C 	0.16	0.9225	0.78969	-0.055
Mof_H 	H 	0.169	0.8669	0.7911	0.048
Mof_C 	C 	0.15017	0.9782	0.80492	-0.095
Mof_H 	H 	0.1514	0.9677	0.8191	0.062
Mof_C 	C 	0.13813	0.0521	0.79599	0.102
Mof_C 	C 	0.0771	0.1172	0.8388	-0.054
Mof_H 	H 	0.0435	0.1102	0.8319	-0.136
Mof_C 	C 	0.0802	0.1199	0.8605	0.113
Mof_H 	H 	0.0471	0.1178	0.8679	-0.15
Mof_C 	C 	0.0265	0.1094	0.8712	0.203
Mof_H 	H 	0.0258	0.1099	0.8857	-0.062
Mof_C 	C 	0.9781	0.099	0.8607	-0.116
Mof_H 	H 	0.9455	0.0966	0.8685	0.059
Mof_C 	C 	0.974	0.0921	0.8402	-0.138
Mof_H 	H 	0.9404	0.0826	0.8334	0.067
Mof_C 	C 	0.0257	0.1004	0.8293	0.266
Mof_H 	H 	0.0252	0.0943	0.815	-0.055
Mof_N 	N 	0.3008	0.9159	0.00361	-0.206
Mof_N 	N 	0.39382	0.9502	0.98147	-0.202
Mof_N 	N 	0.19164	0.0804	0.9259	-0.204
Mof_N 	N 	0.14188	0.044	0.7744	-0.206
Mof_Ag	Ag	0.375	0.375	0.65433	0.577
Mof_C 	C 	0.375	0.375	0.55523	-0.099
Mof_C 	C 	0.375	0.375	0.57847	0.039
Mof_N 	N 	0.375	0.375	0.62066	-0.225
Mof_Ag	Ag	0.375	0.875	0.15433	0.577
Mof_C 	C 	0.375	0.875	0.05523	-0.099
Mof_C 	C 	0.375	0.875	0.07847	0.039
Mof_N 	N 	0.375	0.875	0.12066	-0.225
Mof_Ag	Ag	0.875	0.375	0.15433	0.577
Mof_C 	C 	0.875	0.375	0.05523	-0.099
Mof_C 	C 	0.875	0.375	0.07847	0.039
Mof_N 	N 	0.875	0.375	0.12066	-0.225
Mof_Ag	Ag	0.875	0.875	0.65433	0.577
Mof_C 	C 	0.875	0.875	0.55523	-0.099
Mof_C 	C 	0.875	0.875	0.57847	0.039
Mof_N 	N 	0.875	0.875	0.62066	-0.225
Mof_Ag	Ag	0.625	0.625	0.90433	0.577
Mof_C 	C 	0.625	0.625	0.80523	-0.099
Mof_C 	C 	0.625	0.625	0.82847	0.039
Mof_N 	N 	0.625	0.625	0.87066	-0.225
Mof_Ag	Ag	0.625	0.125	0.40433	0.577
Mof_C 	C 	0.625	0.125	0.30523	-0.099
Mof_C 	C 	0.625	0.125	0.32847	0.039
Mof_N 	N 	0.625	0.125	0.37066	-0.225
Mof_Ag	Ag	0.125	0.625	0.40433	0.577
Mof_C 	C 	0.125	0.625	0.30523	-0.099
Mof_C 	C 	0.125	0.625	0.32847	0.039
Mof_N 	N 	0.125	0.625	0.37066	-0.225
Mof_Ag	Ag	0.125	0.125	0.90433	0.577
Mof_C 	C 	0.125	0.125	0.80523	-0.099
Mof_C 	C 	0.125	0.125	0.82847	0.039
Mof_N 	N 	0.125	0.125	0.87066	-0.225
Mof_Fe	Fe	0.125	0.125	0.75361	0.771
Mof_Fe	Fe	0.125	0.625	0.25361	0.771
Mof_Fe	Fe	0.625	0.625	0.75361	0.771
Mof_Fe	Fe	0.625	0.125	0.25361	0.771
Mof_Fe	Fe	0.375	0.875	0.00361	0.771
Mof_Fe	Fe	0.375	0.375	0.50361	0.771
Mof_Fe	Fe	0.875	0.375	0.00361	0.771
Mof_Fe	Fe	0.875	0.875	0.50361	0.771
_end
