data_functionalizedCrystal
_audit_creation_method	'EQeq! by Chris Wilmer'
_symmetry_space_group_name_H-M	'P1'
_symmetry_Int_Tables_number	1
_symmetry_cell_setting	triclinic
loop_
_symmetry_equiv_pos_as_xyz
  x,y,z
_cell_length_a	14.704
_cell_length_b	17.244
_cell_length_c	24.516
_cell_angle_alpha	105.772
_cell_angle_beta	90
_cell_angle_gamma	90
loop_
_atom_site_label
_atom_site_type_symbol
_atom_site_fract_x
_atom_site_fract_y
_atom_site_fract_z
_atom_site_charge
Mof_Cr	Cr	0.5241	0.20996	0.5906	2.177
Mof_Cr	Cr	0.50638	0.21686	0.34446	2.191
Mof_Cr	Cr	0.51038	0.20675	0.8412	2.168
Mof_Cr	Cr	0.01618	0.28954	0.407	2.153
Mof_Cr	Cr	0.0241	0.29004	0.9094	2.16
Mof_Cr	Cr	0.00638	0.28314	0.15554	2.184
Mof_Cr	Cr	0.01038	0.29325	0.6588	2.156
Mof_Cr	Cr	0.51618	0.21046	0.093	2.165
Mof_Cr	Cr	0.4759	0.79004	0.4094	2.178
Mof_Cr	Cr	0.49362	0.78314	0.65554	2.192
Mof_Cr	Cr	0.48962	0.79325	0.1588	2.169
Mof_Cr	Cr	0.98382	0.71046	0.593	2.154
Mof_Cr	Cr	0.9759	0.70996	0.0906	2.16
Mof_Cr	Cr	0.99362	0.71686	0.84446	2.184
Mof_Cr	Cr	0.98962	0.70675	0.3412	2.156
Mof_Cr	Cr	0.48382	0.78954	0.907	2.165
Mof_Ag	Ag	0.32304	0.25412	0.75179	0.881
Mof_Ag	Ag	0.71155	0.24543	0.50106	0.891
Mof_Ag	Ag	0.69801	0.0826	0.36076	0.658
Mof_Ag	Ag	0.32494	0.08405	0.60701	0.667
Mof_Ag	Ag	0.55385	0.99383	0.62598	0.875
Mof_Ag	Ag	0.31343	0.2531	0.25122	0.929
Mof_Ag	Ag	0.82304	0.24588	0.74821	0.884
Mof_Ag	Ag	0.21155	0.25457	0.99894	0.887
Mof_Ag	Ag	0.19801	0.4174	0.13924	0.654
Mof_Ag	Ag	0.82494	0.41595	0.89299	0.673
Mof_Ag	Ag	0.05385	0.50617	0.87402	0.877
Mof_Ag	Ag	0.81343	0.2469	0.24878	0.931
Mof_Ag	Ag	0.67696	0.74588	0.24821	0.881
Mof_Ag	Ag	0.28845	0.75457	0.49894	0.891
Mof_Ag	Ag	0.30199	0.9174	0.63924	0.658
Mof_Ag	Ag	0.67506	0.91595	0.39299	0.667
Mof_Ag	Ag	0.44615	0.00617	0.37402	0.875
Mof_Ag	Ag	0.68657	0.7469	0.74878	0.929
Mof_Ag	Ag	0.17696	0.75412	0.25179	0.884
Mof_Ag	Ag	0.78845	0.74543	0.00106	0.887
Mof_Ag	Ag	0.80199	0.5826	0.86076	0.654
Mof_Ag	Ag	0.17506	0.58405	0.10701	0.673
Mof_Ag	Ag	0.94615	0.49383	0.12598	0.877
Mof_Ag	Ag	0.18657	0.7531	0.75122	0.931
Mof_C 	C 	0.3846	0.3168	0.5893	0.242
Mof_C 	C 	0.3763	0.2929	0.6452	0.283
Mof_C 	C 	0.6727	0.2731	0.6563	0.261
Mof_C 	C 	0.6619	0.185	0.6601	0.276
Mof_C 	C 	0.554	0.1094	0.4821	0.31
Mof_C 	C 	0.4629	0.0826	0.5022	0.278
Mof_C 	C 	0.3592	0.2862	0.4115	0.245
Mof_C 	C 	0.3626	0.1965	0.4125	0.285
Mof_C 	C 	0.6594	0.2941	0.3975	0.266
Mof_C 	C 	0.6528	0.3154	0.3401	0.256
Mof_C 	C 	0.5535	0.084	0.2563	0.28
Mof_C 	C 	0.4651	0.1186	0.2373	0.276
Mof_C 	C 	0.4695	0.1098	0.7341	0.325
Mof_C 	C 	0.5588	0.0752	0.7521	0.249
Mof_C 	C 	0.6555	0.3068	0.837	0.268
Mof_C 	C 	0.665	0.2837	0.8943	0.272
Mof_C 	C 	0.3672	0.1889	0.9105	0.264
Mof_C 	C 	0.3644	0.2772	0.9071	0.26
Mof_C 	C 	0.8659	0.208	0.354	0.271
Mof_C 	C 	0.8731	0.1882	0.4115	0.252
Mof_C 	C 	0.9573	0.4169	0.4949	0.273
Mof_C 	C 	0.0492	0.389	0.5145	0.266
Mof_C 	C 	0.1677	0.2285	0.3425	0.26
Mof_C 	C 	0.1579	0.3169	0.3393	0.264
Mof_C 	C 	0.8846	0.1832	0.9107	0.241
Mof_C 	C 	0.8763	0.2071	0.8548	0.283
Mof_C 	C 	0.1727	0.2269	0.8437	0.26
Mof_C 	C 	0.1619	0.315	0.8399	0.276
Mof_C 	C 	0.054	0.3906	0.0179	0.309
Mof_C 	C 	0.9629	0.4174	0.9978	0.282
Mof_C 	C 	0.8592	0.2138	0.0885	0.244
Mof_C 	C 	0.8626	0.3035	0.0875	0.285
Mof_C 	C 	0.1594	0.2059	0.1025	0.265
Mof_C 	C 	0.1528	0.1846	0.1599	0.255
Mof_C 	C 	0.0535	0.416	0.2437	0.279
Mof_C 	C 	0.9651	0.3814	0.2627	0.278
Mof_C 	C 	0.9695	0.3902	0.7659	0.328
Mof_C 	C 	0.0588	0.4248	0.7479	0.246
Mof_C 	C 	0.1555	0.1932	0.663	0.268
Mof_C 	C 	0.165	0.2163	0.6057	0.272
Mof_C 	C 	0.8672	0.3111	0.5895	0.264
Mof_C 	C 	0.8644	0.2228	0.5929	0.26
Mof_C 	C 	0.3659	0.292	0.146	0.271
Mof_C 	C 	0.3731	0.3118	0.0885	0.252
Mof_C 	C 	0.4573	0.0831	0.0051	0.272
Mof_C 	C 	0.5492	0.111	0.9855	0.267
Mof_C 	C 	0.6677	0.2715	0.1575	0.26
Mof_C 	C 	0.6579	0.1831	0.1607	0.265
Mof_C 	C 	0.6154	0.6832	0.4107	0.242
Mof_C 	C 	0.6237	0.7071	0.3548	0.283
Mof_C 	C 	0.3273	0.7269	0.3437	0.261
Mof_C 	C 	0.3381	0.815	0.3399	0.276
Mof_C 	C 	0.446	0.8906	0.5179	0.31
Mof_C 	C 	0.5371	0.9174	0.4978	0.278
Mof_C 	C 	0.6408	0.7138	0.5885	0.245
Mof_C 	C 	0.6374	0.8035	0.5875	0.285
Mof_C 	C 	0.3406	0.7059	0.6025	0.266
Mof_C 	C 	0.3472	0.6846	0.6599	0.256
Mof_C 	C 	0.4465	0.916	0.7437	0.28
Mof_C 	C 	0.5349	0.8814	0.7627	0.276
Mof_C 	C 	0.5305	0.8902	0.2659	0.325
Mof_C 	C 	0.4412	0.9248	0.2479	0.249
Mof_C 	C 	0.3445	0.6932	0.163	0.268
Mof_C 	C 	0.335	0.7163	0.1057	0.272
Mof_C 	C 	0.6328	0.8111	0.0895	0.264
Mof_C 	C 	0.6356	0.7228	0.0929	0.26
Mof_C 	C 	0.1341	0.792	0.646	0.271
Mof_C 	C 	0.1269	0.8118	0.5885	0.252
Mof_C 	C 	0.0427	0.5831	0.5051	0.273
Mof_C 	C 	0.9508	0.611	0.4855	0.266
Mof_C 	C 	0.8323	0.7715	0.6575	0.26
Mof_C 	C 	0.8421	0.6831	0.6607	0.264
Mof_C 	C 	0.1154	0.8168	0.0893	0.241
Mof_C 	C 	0.1237	0.7929	0.1452	0.283
Mof_C 	C 	0.8273	0.7731	0.1563	0.26
Mof_C 	C 	0.8381	0.685	0.1601	0.276
Mof_C 	C 	0.946	0.6094	0.9821	0.309
Mof_C 	C 	0.0371	0.5826	0.0022	0.282
Mof_C 	C 	0.1408	0.7862	0.9115	0.244
Mof_C 	C 	0.1374	0.6965	0.9125	0.285
Mof_C 	C 	0.8406	0.7941	0.8975	0.265
Mof_C 	C 	0.8472	0.8154	0.8401	0.255
Mof_C 	C 	0.9465	0.584	0.7563	0.279
Mof_C 	C 	0.0349	0.6186	0.7373	0.278
Mof_C 	C 	0.0305	0.6098	0.2341	0.328
Mof_C 	C 	0.9412	0.5752	0.2521	0.246
Mof_C 	C 	0.8445	0.8068	0.337	0.268
Mof_C 	C 	0.835	0.7837	0.3943	0.272
Mof_C 	C 	0.1328	0.6889	0.4105	0.264
Mof_C 	C 	0.1356	0.7772	0.4071	0.26
Mof_C 	C 	0.6341	0.708	0.854	0.271
Mof_C 	C 	0.6269	0.6882	0.9115	0.252
Mof_C 	C 	0.5427	0.9169	0.9949	0.272
Mof_C 	C 	0.4508	0.889	0.0145	0.267
Mof_C 	C 	0.3323	0.7285	0.8425	0.26
Mof_C 	C 	0.3421	0.8169	0.8393	0.265
Mof_O 	O 	0.4537	0.2845	0.5586	-0.519
Mof_O 	O 	0.3284	0.361	0.5761	-0.151
Mof_O 	O 	0.4381	0.2451	0.6532	-0.612
Mof_O 	O 	0.3129	0.3192	0.6777	-0.307
Mof_O 	O 	0.6151	0.2928	0.6236	-0.558
Mof_O 	O 	0.7332	0.3154	0.6833	-0.283
Mof_O 	O 	0.5976	0.1453	0.6296	-0.601
Mof_O 	O 	0.714	0.1573	0.6893	-0.316
Mof_O 	O 	0.5926	0.1676	0.5182	-0.644
Mof_O 	O 	0.5852	0.0729	0.4349	-0.422
Mof_O 	O 	0.4438	0.1193	0.5538	-0.626
Mof_O 	O 	0.4159	0.0294	0.4714	-0.342
Mof_O 	O 	0.4217	0.3048	0.3793	-0.533
Mof_O 	O 	0.3009	0.331	0.4371	-0.172
Mof_O 	O 	0.4297	0.1561	0.3845	-0.614
Mof_O 	O 	0.3063	0.1706	0.4394	-0.212
Mof_O 	O 	0.596	0.2489	0.4065	-0.601
Mof_O 	O 	0.7233	0.3201	0.4298	-0.29
Mof_O 	O 	0.5828	0.2862	0.3111	-0.55
Mof_O 	O 	0.7123	0.3565	0.3261	-0.235
Mof_O 	O 	0.5786	0.1199	0.3068	-0.629
Mof_O 	O 	0.5914	0.0259	0.2241	-0.215
Mof_O 	O 	0.4339	0.1812	0.2751	-0.634
Mof_O 	O 	0.4293	0.0867	0.1916	-0.193
Mof_O 	O 	0.4377	0.1712	0.7706	-0.64
Mof_O 	O 	0.4359	0.077	0.687	-0.419
Mof_O 	O 	0.582	0.1114	0.8038	-0.493
Mof_O 	O 	0.5986	0.0183	0.721	-0.296
Mof_O 	O 	0.5852	0.278	0.8079	-0.547
Mof_O 	O 	0.7139	0.3493	0.8231	-0.364
Mof_O 	O 	0.5996	0.24	0.9027	-0.507
Mof_O 	O 	0.7287	0.3078	0.9256	-0.262
Mof_O 	O 	0.4321	0.1466	0.8802	-0.497
Mof_O 	O 	0.3123	0.1641	0.9389	-0.287
Mof_O 	O 	0.4265	0.296	0.8764	-0.546
Mof_O 	O 	0.3049	0.3229	0.9327	-0.285
Mof_O 	O 	0.9298	0.2516	0.3436	-0.563
Mof_O 	O 	0.8005	0.1831	0.323	-0.381
Mof_O 	O 	0.9438	0.2179	0.4409	-0.517
Mof_O 	O 	0.8141	0.1479	0.4272	-0.361
Mof_O 	O 	0.9368	0.3813	0.4435	-0.489
Mof_O 	O 	0.9127	0.4703	0.5271	-0.166
Mof_O 	O 	0.0857	0.3296	0.4777	-0.482
Mof_O 	O 	0.0829	0.4243	0.5607	-0.148
Mof_O 	O 	0.1083	0.2067	0.3741	-0.507
Mof_O 	O 	0.2291	0.1862	0.317	-0.279
Mof_O 	O 	0.0895	0.3545	0.3682	-0.488
Mof_O 	O 	0.2117	0.3464	0.3126	-0.296
Mof_O 	O 	0.9537	0.2155	0.9414	-0.512
Mof_O 	O 	0.8284	0.139	0.9239	-0.149
Mof_O 	O 	0.9381	0.2549	0.8468	-0.606
Mof_O 	O 	0.8129	0.1808	0.8223	-0.306
Mof_O 	O 	0.1151	0.2072	0.8764	-0.557
Mof_O 	O 	0.2332	0.1846	0.8167	-0.284
Mof_O 	O 	0.0976	0.3547	0.8704	-0.6
Mof_O 	O 	0.214	0.3427	0.8107	-0.317
Mof_O 	O 	0.0926	0.3324	0.9818	-0.643
Mof_O 	O 	0.0852	0.4271	0.0651	-0.422
Mof_O 	O 	0.9438	0.3807	0.9462	-0.623
Mof_O 	O 	0.9159	0.4706	0.0286	-0.343
Mof_O 	O 	0.9217	0.1952	0.1207	-0.529
Mof_O 	O 	0.8009	0.169	0.0629	-0.171
Mof_O 	O 	0.9297	0.3439	0.1155	-0.612
Mof_O 	O 	0.8063	0.3294	0.0606	-0.212
Mof_O 	O 	0.096	0.2511	0.0935	-0.6
Mof_O 	O 	0.2233	0.1799	0.0702	-0.29
Mof_O 	O 	0.0828	0.2138	0.1889	-0.551
Mof_O 	O 	0.2123	0.1435	0.1739	-0.236
Mof_O 	O 	0.0786	0.3801	0.1932	-0.628
Mof_O 	O 	0.0914	0.4741	0.2759	-0.215
Mof_O 	O 	0.9339	0.3188	0.2249	-0.632
Mof_O 	O 	0.9293	0.4133	0.3084	-0.192
Mof_O 	O 	0.9377	0.3288	0.7294	-0.636
Mof_O 	O 	0.9359	0.423	0.813	-0.418
Mof_O 	O 	0.082	0.3886	0.6962	-0.491
Mof_O 	O 	0.0986	0.4817	0.779	-0.296
Mof_O 	O 	0.0852	0.222	0.6921	-0.547
Mof_O 	O 	0.2139	0.1507	0.6769	-0.365
Mof_O 	O 	0.0996	0.26	0.5973	-0.507
Mof_O 	O 	0.2287	0.1922	0.5744	-0.262
Mof_O 	O 	0.9321	0.3534	0.6198	-0.493
Mof_O 	O 	0.8123	0.3359	0.5611	-0.286
Mof_O 	O 	0.9265	0.204	0.6236	-0.54
Mof_O 	O 	0.8049	0.1771	0.5673	-0.284
Mof_O 	O 	0.4298	0.2484	0.1564	-0.567
Mof_O 	O 	0.3005	0.3169	0.177	-0.382
Mof_O 	O 	0.4438	0.2821	0.0591	-0.522
Mof_O 	O 	0.3141	0.3521	0.0728	-0.361
Mof_O 	O 	0.4368	0.1187	0.0565	-0.492
Mof_O 	O 	0.4127	0.0297	0.9729	-0.168
Mof_O 	O 	0.5857	0.1704	0.0223	-0.483
Mof_O 	O 	0.5829	0.0757	0.9393	-0.148
Mof_O 	O 	0.6083	0.2933	0.1259	-0.507
Mof_O 	O 	0.7291	0.3138	0.183	-0.279
Mof_O 	O 	0.5895	0.1455	0.1318	-0.489
Mof_O 	O 	0.7117	0.1536	0.1874	-0.295
Mof_O 	O 	0.5463	0.7155	0.4414	-0.519
Mof_O 	O 	0.6716	0.639	0.4239	-0.151
Mof_O 	O 	0.5619	0.7549	0.3468	-0.612
Mof_O 	O 	0.6871	0.6808	0.3223	-0.307
Mof_O 	O 	0.3849	0.7072	0.3764	-0.558
Mof_O 	O 	0.2668	0.6846	0.3167	-0.283
Mof_O 	O 	0.4024	0.8547	0.3704	-0.601
Mof_O 	O 	0.286	0.8427	0.3107	-0.316
Mof_O 	O 	0.4074	0.8324	0.4818	-0.644
Mof_O 	O 	0.4148	0.9271	0.5651	-0.422
Mof_O 	O 	0.5562	0.8807	0.4462	-0.626
Mof_O 	O 	0.5841	0.9706	0.5286	-0.342
Mof_O 	O 	0.5783	0.6952	0.6207	-0.533
Mof_O 	O 	0.6991	0.669	0.5629	-0.172
Mof_O 	O 	0.5703	0.8439	0.6155	-0.614
Mof_O 	O 	0.6937	0.8294	0.5606	-0.212
Mof_O 	O 	0.404	0.7511	0.5935	-0.601
Mof_O 	O 	0.2767	0.6799	0.5702	-0.29
Mof_O 	O 	0.4172	0.7138	0.6889	-0.55
Mof_O 	O 	0.2877	0.6435	0.6739	-0.235
Mof_O 	O 	0.4214	0.8801	0.6932	-0.629
Mof_O 	O 	0.4086	0.9741	0.7759	-0.215
Mof_O 	O 	0.5661	0.8188	0.7249	-0.634
Mof_O 	O 	0.5707	0.9133	0.8084	-0.193
Mof_O 	O 	0.5623	0.8288	0.2294	-0.64
Mof_O 	O 	0.5641	0.923	0.313	-0.419
Mof_O 	O 	0.418	0.8886	0.1962	-0.493
Mof_O 	O 	0.4014	0.9817	0.279	-0.296
Mof_O 	O 	0.4148	0.722	0.1921	-0.547
Mof_O 	O 	0.2861	0.6507	0.1769	-0.364
Mof_O 	O 	0.4004	0.76	0.0973	-0.507
Mof_O 	O 	0.2713	0.6922	0.0744	-0.262
Mof_O 	O 	0.5679	0.8534	0.1198	-0.497
Mof_O 	O 	0.6877	0.8359	0.0611	-0.287
Mof_O 	O 	0.5735	0.704	0.1236	-0.546
Mof_O 	O 	0.6951	0.6771	0.0673	-0.285
Mof_O 	O 	0.0702	0.7484	0.6564	-0.563
Mof_O 	O 	0.1995	0.8169	0.677	-0.381
Mof_O 	O 	0.0562	0.7821	0.5591	-0.517
Mof_O 	O 	0.1859	0.8521	0.5728	-0.361
Mof_O 	O 	0.0632	0.6187	0.5565	-0.489
Mof_O 	O 	0.0873	0.5297	0.4729	-0.166
Mof_O 	O 	0.9143	0.6704	0.5223	-0.482
Mof_O 	O 	0.9171	0.5757	0.4393	-0.148
Mof_O 	O 	0.8917	0.7933	0.6259	-0.507
Mof_O 	O 	0.7709	0.8138	0.683	-0.279
Mof_O 	O 	0.9105	0.6455	0.6318	-0.488
Mof_O 	O 	0.7883	0.6536	0.6874	-0.296
Mof_O 	O 	0.0463	0.7845	0.0586	-0.512
Mof_O 	O 	0.1716	0.861	0.0761	-0.149
Mof_O 	O 	0.0619	0.7451	0.1532	-0.606
Mof_O 	O 	0.1871	0.8192	0.1777	-0.306
Mof_O 	O 	0.8849	0.7928	0.1236	-0.557
Mof_O 	O 	0.7668	0.8154	0.1833	-0.284
Mof_O 	O 	0.9024	0.6453	0.1296	-0.6
Mof_O 	O 	0.786	0.6573	0.1893	-0.317
Mof_O 	O 	0.9074	0.6676	0.0182	-0.643
Mof_O 	O 	0.9148	0.5729	0.9349	-0.422
Mof_O 	O 	0.0562	0.6193	0.0538	-0.623
Mof_O 	O 	0.0841	0.5294	0.9714	-0.343
Mof_O 	O 	0.0783	0.8048	0.8793	-0.529
Mof_O 	O 	0.1991	0.831	0.9371	-0.171
Mof_O 	O 	0.0703	0.6561	0.8845	-0.612
Mof_O 	O 	0.1937	0.6706	0.9394	-0.212
Mof_O 	O 	0.904	0.7489	0.9065	-0.6
Mof_O 	O 	0.7767	0.8201	0.9298	-0.29
Mof_O 	O 	0.9172	0.7862	0.8111	-0.551
Mof_O 	O 	0.7877	0.8565	0.8261	-0.236
Mof_O 	O 	0.9214	0.6199	0.8068	-0.628
Mof_O 	O 	0.9086	0.5259	0.7241	-0.215
Mof_O 	O 	0.0661	0.6812	0.7751	-0.632
Mof_O 	O 	0.0707	0.5867	0.6916	-0.192
Mof_O 	O 	0.0623	0.6712	0.2706	-0.636
Mof_O 	O 	0.0641	0.577	0.187	-0.418
Mof_O 	O 	0.918	0.6114	0.3038	-0.491
Mof_O 	O 	0.9014	0.5183	0.221	-0.296
Mof_O 	O 	0.9148	0.778	0.3079	-0.547
Mof_O 	O 	0.7861	0.8493	0.3231	-0.365
Mof_O 	O 	0.9004	0.74	0.4027	-0.507
Mof_O 	O 	0.7713	0.8078	0.4256	-0.262
Mof_O 	O 	0.0679	0.6466	0.3802	-0.493
Mof_O 	O 	0.1877	0.6641	0.4389	-0.286
Mof_O 	O 	0.0735	0.796	0.3764	-0.54
Mof_O 	O 	0.1951	0.8229	0.4327	-0.284
Mof_O 	O 	0.5702	0.7516	0.8436	-0.567
Mof_O 	O 	0.6995	0.6831	0.823	-0.382
Mof_O 	O 	0.5562	0.7179	0.9409	-0.522
Mof_O 	O 	0.6859	0.6479	0.9272	-0.361
Mof_O 	O 	0.5632	0.8813	0.9435	-0.492
Mof_O 	O 	0.5873	0.9703	0.0271	-0.168
Mof_O 	O 	0.4143	0.8296	0.9777	-0.483
Mof_O 	O 	0.4171	0.9243	0.0607	-0.148
Mof_O 	O 	0.3917	0.7067	0.8741	-0.507
Mof_O 	O 	0.2709	0.6862	0.817	-0.279
Mof_O 	O 	0.4105	0.8545	0.8682	-0.489
Mof_O 	O 	0.2883	0.8464	0.8126	-0.295
_end
