data_functionalizedCrystal
_audit_creation_method	'EQeq! by Chris Wilmer'
_symmetry_space_group_name_H-M	'P1'
_symmetry_Int_Tables_number	1
_symmetry_cell_setting	triclinic
loop_
_symmetry_equiv_pos_as_xyz
  x,y,z
_cell_length_a	24.1205
_cell_length_b	24.1205
_cell_length_c	24.1205
_cell_angle_alpha	109.461
_cell_angle_beta	109.461
_cell_angle_gamma	109.461
loop_
_atom_site_label
_atom_site_type_symbol
_atom_site_fract_x
_atom_site_fract_y
_atom_site_fract_z
_atom_site_charge
Mof_Er	Er	0.40152	0.35207	0.85207	2.082
Mof_Er	Er	0.85207	0.40152	0.35207	2.082
Mof_Er	Er	0.35207	0.85207	0.40152	2.082
Mof_Er	Er	0.85207	0.90152	0.35207	2.082
Mof_Er	Er	0.90152	0.35207	0.85207	2.082
Mof_Er	Er	0.35207	0.85207	0.90152	2.082
Mof_Er	Er	0.30283	0.30283	0.30283	2.09
Mof_Er	Er	0.80283	0.80283	0.80283	2.089
Mof_H 	H 	0.349	0.4768	0.0273	0.152
Mof_H 	H 	0.39	0.7153	0.2122	0.152
Mof_H 	H 	0.6685	0.6761	0.308	0.154
Mof_H 	H 	0.4825	0.5262	0.3529	0.176
Mof_H 	H 	0.4646	0.6648	0.192	0.057
Mof_H 	H 	0.5345	0.6673	0.2087	0.053
Mof_H 	H 	0.3776	0.5364	0.1533	0.058
Mof_H 	H 	0.3932	0.5353	0.2216	0.059
Mof_H 	H 	0.5137	0.6356	0.3305	0.043
Mof_H 	H 	0.5037	0.6892	0.3115	0.043
Mof_H 	H 	0.5469	0.5728	0.2353	0.031
Mof_H 	H 	0.4773	0.52	0.1681	0.03
Mof_H 	H 	0.5234	0.704	0.1336	0.263
Mof_H 	H 	0.5407	0.7302	0.0574	-0.16
Mof_H 	H 	0.5168	0.647	0.9569	0.269
Mof_H 	H 	0.4349	0.5451	0.9241	-0.117
Mof_H 	H 	0.2917	0.3616	0.934	0.037
Mof_H 	H 	0.3581	0.3727	0.9894	0.048
Mof_H 	H 	0.3567	0.3645	0.0866	0.093
Mof_H 	H 	0.3142	0.374	0.1598	0.019
Mof_H 	H 	0.2053	0.3539	0.1208	0.116
Mof_H 	H 	0.1487	0.3477	0.0192	0.022
Mof_H 	H 	0.209	0.38	0.9692	0.09
Mof_H 	H 	0.2836	0.5001	0.1729	0.22
Mof_H 	H 	0.1798	0.4705	0.165	-0.121
Mof_H 	H 	0.1612	0.5537	0.2189	0.218
Mof_H 	H 	0.2331	0.6601	0.2497	-0.083
Mof_H 	H 	0.4278	0.8451	0.2876	0.077
Mof_H 	H 	0.4722	0.8288	0.3375	0.086
Mof_H 	H 	0.572	0.8333	0.3349	0.129
Mof_H 	H 	0.6386	0.8366	0.286	-0.015
Mof_H 	H 	0.6133	0.8534	0.1946	0.151
Mof_H 	H 	0.5145	0.8554	0.1465	-0.009
Mof_H 	H 	0.4386	0.8299	0.1822	0.126
Mof_H 	H 	0.5741	0.7365	0.4263	0.17
Mof_H 	H 	0.6457	0.8396	0.5255	-0.052
Mof_H 	H 	0.7469	0.9111	0.5394	0.148
Mof_H 	H 	0.7821	0.8708	0.4668	-0.033
Mof_H 	H 	0.7722	0.7087	0.2839	0.088
Mof_H 	H 	0.7179	0.7177	0.235	0.096
Mof_H 	H 	0.6223	0.627	0.1405	0.145
Mof_H 	H 	0.5616	0.5149	0.0616	-0.027
Mof_H 	H 	0.5764	0.4374	0.0913	0.165
Mof_H 	H 	0.6846	0.4782	0.1787	-0.023
Mof_H 	H 	0.7403	0.5885	0.2626	0.14
Mof_H 	H 	0.5372	0.4664	0.1846	0.375
Mof_H 	H 	0.5358	0.3639	0.1538	-0.341
Mof_H 	H 	0.4945	0.305	0.1976	0.431
Mof_H 	H 	0.4491	0.3311	0.2589	-0.256
Mof_H 	H 	0.3683	0.4834	0.3485	0.048
Mof_H 	H 	0.424	0.4937	0.4142	0.032
Mof_H 	H 	0.3618	0.5781	0.3476	0.104
Mof_H 	H 	0.4033	0.6921	0.3883	0.003
Mof_H 	H 	0.4982	0.7672	0.4916	0.129
Mof_H 	H 	0.5452	0.7271	0.5582	0.01
Mof_H 	H 	0.5234	0.6174	0.504	0.1
Mof_H 	H 	0.0273	0.349	0.4768	0.152
Mof_H 	H 	0.2122	0.39	0.7153	0.152
Mof_H 	H 	0.308	0.6685	0.6761	0.154
Mof_H 	H 	0.3529	0.4825	0.5262	0.176
Mof_H 	H 	0.192	0.4646	0.6648	0.057
Mof_H 	H 	0.2087	0.5345	0.6673	0.053
Mof_H 	H 	0.1533	0.3776	0.5364	0.058
Mof_H 	H 	0.2216	0.3932	0.5353	0.059
Mof_H 	H 	0.3305	0.5137	0.6356	0.043
Mof_H 	H 	0.3115	0.5037	0.6892	0.043
Mof_H 	H 	0.2353	0.5469	0.5728	0.031
Mof_H 	H 	0.1681	0.4773	0.52	0.03
Mof_H 	H 	0.1336	0.5234	0.704	0.263
Mof_H 	H 	0.0574	0.5407	0.7302	-0.16
Mof_H 	H 	0.9569	0.5168	0.647	0.269
Mof_H 	H 	0.9241	0.4349	0.5451	-0.117
Mof_H 	H 	0.934	0.2917	0.3616	0.037
Mof_H 	H 	0.9894	0.3581	0.3727	0.048
Mof_H 	H 	0.0866	0.3567	0.3645	0.093
Mof_H 	H 	0.1598	0.3142	0.374	0.019
Mof_H 	H 	0.1208	0.2053	0.3539	0.116
Mof_H 	H 	0.0192	0.1487	0.3477	0.022
Mof_H 	H 	0.9692	0.209	0.38	0.09
Mof_H 	H 	0.1729	0.2836	0.5001	0.22
Mof_H 	H 	0.165	0.1798	0.4705	-0.121
Mof_H 	H 	0.2189	0.1612	0.5537	0.218
Mof_H 	H 	0.2497	0.2331	0.6601	-0.083
Mof_H 	H 	0.2876	0.4278	0.8451	0.077
Mof_H 	H 	0.3375	0.4722	0.8288	0.086
Mof_H 	H 	0.3349	0.572	0.8333	0.129
Mof_H 	H 	0.286	0.6386	0.8366	-0.015
Mof_H 	H 	0.1946	0.6133	0.8534	0.151
Mof_H 	H 	0.1465	0.5145	0.8554	-0.009
Mof_H 	H 	0.1822	0.4386	0.8299	0.126
Mof_H 	H 	0.4263	0.5741	0.7365	0.17
Mof_H 	H 	0.5255	0.6457	0.8396	-0.052
Mof_H 	H 	0.5394	0.7469	0.9111	0.148
Mof_H 	H 	0.4668	0.7821	0.8708	-0.033
Mof_H 	H 	0.2839	0.7722	0.7087	0.088
Mof_H 	H 	0.235	0.7179	0.7177	0.096
Mof_H 	H 	0.1405	0.6223	0.627	0.145
Mof_H 	H 	0.0616	0.5616	0.5149	-0.027
Mof_H 	H 	0.0913	0.5764	0.4374	0.165
Mof_H 	H 	0.1787	0.6846	0.4782	-0.023
Mof_H 	H 	0.2626	0.7403	0.5885	0.14
Mof_H 	H 	0.1846	0.5372	0.4664	0.375
Mof_H 	H 	0.1538	0.5358	0.3639	-0.341
Mof_H 	H 	0.1976	0.4945	0.305	0.431
Mof_H 	H 	0.2589	0.4491	0.3311	-0.256
Mof_H 	H 	0.3485	0.3683	0.4834	0.048
Mof_H 	H 	0.4142	0.424	0.4937	0.032
Mof_H 	H 	0.3476	0.3618	0.5781	0.104
Mof_H 	H 	0.3883	0.4033	0.6921	0.003
Mof_H 	H 	0.4916	0.4982	0.7672	0.129
Mof_H 	H 	0.5582	0.5452	0.7271	0.01
Mof_H 	H 	0.504	0.5234	0.6174	0.1
Mof_H 	H 	0.4768	0.0273	0.349	0.152
Mof_H 	H 	0.7153	0.2122	0.39	0.152
Mof_H 	H 	0.6761	0.308	0.6685	0.154
Mof_H 	H 	0.5262	0.3529	0.4825	0.176
Mof_H 	H 	0.6648	0.192	0.4646	0.057
Mof_H 	H 	0.6673	0.2087	0.5345	0.053
Mof_H 	H 	0.5364	0.1533	0.3776	0.058
Mof_H 	H 	0.5353	0.2216	0.3932	0.059
Mof_H 	H 	0.6356	0.3305	0.5137	0.043
Mof_H 	H 	0.6892	0.3115	0.5037	0.043
Mof_H 	H 	0.5728	0.2353	0.5469	0.031
Mof_H 	H 	0.52	0.1681	0.4773	0.03
Mof_H 	H 	0.704	0.1336	0.5234	0.263
Mof_H 	H 	0.7302	0.0574	0.5407	-0.16
Mof_H 	H 	0.647	0.9569	0.5168	0.269
Mof_H 	H 	0.5451	0.9241	0.4349	-0.117
Mof_H 	H 	0.3616	0.934	0.2917	0.037
Mof_H 	H 	0.3727	0.9894	0.3581	0.048
Mof_H 	H 	0.3645	0.0866	0.3567	0.093
Mof_H 	H 	0.374	0.1598	0.3142	0.019
Mof_H 	H 	0.3539	0.1208	0.2053	0.116
Mof_H 	H 	0.3477	0.0192	0.1487	0.022
Mof_H 	H 	0.38	0.9692	0.209	0.09
Mof_H 	H 	0.5001	0.1729	0.2836	0.22
Mof_H 	H 	0.4705	0.165	0.1798	-0.121
Mof_H 	H 	0.5537	0.2189	0.1612	0.218
Mof_H 	H 	0.6601	0.2497	0.2331	-0.083
Mof_H 	H 	0.8451	0.2876	0.4278	0.077
Mof_H 	H 	0.8288	0.3375	0.4722	0.086
Mof_H 	H 	0.8333	0.3349	0.572	0.129
Mof_H 	H 	0.8366	0.286	0.6386	-0.015
Mof_H 	H 	0.8534	0.1946	0.6133	0.151
Mof_H 	H 	0.8554	0.1465	0.5145	-0.009
Mof_H 	H 	0.8299	0.1822	0.4386	0.126
Mof_H 	H 	0.7365	0.4263	0.5741	0.17
Mof_H 	H 	0.8396	0.5255	0.6457	-0.052
Mof_H 	H 	0.9111	0.5394	0.7469	0.148
Mof_H 	H 	0.8708	0.4668	0.7821	-0.033
Mof_H 	H 	0.7087	0.2839	0.7722	0.088
Mof_H 	H 	0.7177	0.235	0.7179	0.096
Mof_H 	H 	0.627	0.1405	0.6223	0.145
Mof_H 	H 	0.5149	0.0616	0.5616	-0.027
Mof_H 	H 	0.4374	0.0913	0.5764	0.165
Mof_H 	H 	0.4782	0.1787	0.6846	-0.023
Mof_H 	H 	0.5885	0.2626	0.7403	0.14
Mof_H 	H 	0.4664	0.1846	0.5372	0.375
Mof_H 	H 	0.3639	0.1538	0.5358	-0.341
Mof_H 	H 	0.305	0.1976	0.4945	0.431
Mof_H 	H 	0.3311	0.2589	0.4491	-0.256
Mof_H 	H 	0.4834	0.3485	0.3683	0.048
Mof_H 	H 	0.4937	0.4142	0.424	0.032
Mof_H 	H 	0.5781	0.3476	0.3618	0.104
Mof_H 	H 	0.6921	0.3883	0.4033	0.003
Mof_H 	H 	0.7672	0.4916	0.4982	0.129
Mof_H 	H 	0.7271	0.5582	0.5452	0.01
Mof_H 	H 	0.6174	0.504	0.5234	0.1
Mof_H 	H 	0.9768	0.849	0.5273	0.151
Mof_H 	H 	0.2153	0.89	0.7122	0.152
Mof_H 	H 	0.1761	0.1685	0.808	0.154
Mof_H 	H 	0.0262	0.9825	0.8529	0.175
Mof_H 	H 	0.1648	0.9646	0.692	0.057
Mof_H 	H 	0.1673	0.0345	0.7087	0.053
Mof_H 	H 	0.0364	0.8776	0.6533	0.058
Mof_H 	H 	0.0353	0.8932	0.7216	0.059
Mof_H 	H 	0.1356	0.0137	0.8305	0.043
Mof_H 	H 	0.1892	0.0037	0.8115	0.043
Mof_H 	H 	0.0728	0.0469	0.7353	0.031
Mof_H 	H 	0.02	0.9773	0.6681	0.03
Mof_H 	H 	0.204	0.0234	0.6336	0.262
Mof_H 	H 	0.2302	0.0407	0.5574	-0.158
Mof_H 	H 	0.147	0.0168	0.4569	0.268
Mof_H 	H 	0.0451	0.9349	0.4241	-0.117
Mof_H 	H 	0.8616	0.7917	0.434	0.038
Mof_H 	H 	0.8727	0.8581	0.4894	0.048
Mof_H 	H 	0.8645	0.8567	0.5866	0.094
Mof_H 	H 	0.874	0.8142	0.6598	0.018
Mof_H 	H 	0.8539	0.7053	0.6208	0.117
Mof_H 	H 	0.8477	0.6487	0.5192	0.021
Mof_H 	H 	0.88	0.709	0.4692	0.091
Mof_H 	H 	0.0001	0.7836	0.6729	0.22
Mof_H 	H 	0.9705	0.6798	0.665	-0.121
Mof_H 	H 	0.0537	0.6612	0.7189	0.217
Mof_H 	H 	0.1601	0.7331	0.7497	-0.083
Mof_H 	H 	0.3451	0.9278	0.7876	0.077
Mof_H 	H 	0.3288	0.9722	0.8375	0.086
Mof_H 	H 	0.3333	0.072	0.8349	0.129
Mof_H 	H 	0.3366	0.1386	0.786	-0.015
Mof_H 	H 	0.3534	0.1133	0.6946	0.151
Mof_H 	H 	0.3554	0.0145	0.6465	-0.009
Mof_H 	H 	0.3299	0.9386	0.6822	0.126
Mof_H 	H 	0.2365	0.0741	0.9263	0.169
Mof_H 	H 	0.3396	0.1457	0.0255	-0.05
Mof_H 	H 	0.4111	0.2469	0.0394	0.147
Mof_H 	H 	0.3708	0.2821	0.9668	-0.031
Mof_H 	H 	0.2087	0.2722	0.7839	0.089
Mof_H 	H 	0.2177	0.2179	0.735	0.097
Mof_H 	H 	0.127	0.1223	0.6405	0.146
Mof_H 	H 	0.0149	0.0616	0.5616	-0.028
Mof_H 	H 	0.9374	0.0764	0.5913	0.167
Mof_H 	H 	0.9782	0.1846	0.6787	-0.025
Mof_H 	H 	0.0885	0.2403	0.7626	0.141
Mof_H 	H 	0.9664	0.0372	0.6846	0.375
Mof_H 	H 	0.8639	0.0358	0.6538	-0.341
Mof_H 	H 	0.805	0.9945	0.6976	0.431
Mof_H 	H 	0.8311	0.9491	0.7589	-0.256
Mof_H 	H 	0.9834	0.8683	0.8485	0.049
Mof_H 	H 	0.9937	0.924	0.9142	0.034
Mof_H 	H 	0.0781	0.8618	0.8476	0.107
Mof_H 	H 	0.1921	0.9033	0.8883	-0
Mof_H 	H 	0.2672	0.9982	0.9916	0.133
Mof_H 	H 	0.2271	0.0452	0.0582	0.006
Mof_H 	H 	0.1174	0.0234	0.004	0.104
Mof_H 	H 	0.849	0.5273	0.9768	0.151
Mof_H 	H 	0.89	0.7122	0.2153	0.152
Mof_H 	H 	0.1685	0.808	0.1761	0.154
Mof_H 	H 	0.9825	0.8529	0.0262	0.175
Mof_H 	H 	0.9646	0.692	0.1648	0.057
Mof_H 	H 	0.0345	0.7087	0.1673	0.053
Mof_H 	H 	0.8776	0.6533	0.0364	0.058
Mof_H 	H 	0.8932	0.7216	0.0353	0.059
Mof_H 	H 	0.0137	0.8305	0.1356	0.043
Mof_H 	H 	0.0037	0.8115	0.1892	0.043
Mof_H 	H 	0.0469	0.7353	0.0728	0.031
Mof_H 	H 	0.9773	0.6681	0.02	0.03
Mof_H 	H 	0.0234	0.6336	0.204	0.262
Mof_H 	H 	0.0407	0.5574	0.2302	-0.158
Mof_H 	H 	0.0168	0.4569	0.147	0.268
Mof_H 	H 	0.9349	0.4241	0.0451	-0.117
Mof_H 	H 	0.7917	0.434	0.8616	0.038
Mof_H 	H 	0.8581	0.4894	0.8727	0.048
Mof_H 	H 	0.8567	0.5866	0.8645	0.094
Mof_H 	H 	0.8142	0.6598	0.874	0.018
Mof_H 	H 	0.7053	0.6208	0.8539	0.117
Mof_H 	H 	0.6487	0.5192	0.8477	0.021
Mof_H 	H 	0.709	0.4692	0.88	0.091
Mof_H 	H 	0.7836	0.6729	0.0001	0.22
Mof_H 	H 	0.6798	0.665	0.9705	-0.121
Mof_H 	H 	0.6612	0.7189	0.0537	0.217
Mof_H 	H 	0.7331	0.7497	0.1601	-0.083
Mof_H 	H 	0.9278	0.7876	0.3451	0.077
Mof_H 	H 	0.9722	0.8375	0.3288	0.086
Mof_H 	H 	0.072	0.8349	0.3333	0.129
Mof_H 	H 	0.1386	0.786	0.3366	-0.015
Mof_H 	H 	0.1133	0.6946	0.3534	0.151
Mof_H 	H 	0.0145	0.6465	0.3554	-0.009
Mof_H 	H 	0.9386	0.6822	0.3299	0.126
Mof_H 	H 	0.0741	0.9263	0.2365	0.169
Mof_H 	H 	0.1457	0.0255	0.3396	-0.05
Mof_H 	H 	0.2469	0.0394	0.4111	0.147
Mof_H 	H 	0.2821	0.9668	0.3708	-0.031
Mof_H 	H 	0.2722	0.7839	0.2087	0.089
Mof_H 	H 	0.2179	0.735	0.2177	0.097
Mof_H 	H 	0.1223	0.6405	0.127	0.146
Mof_H 	H 	0.0616	0.5616	0.0149	-0.028
Mof_H 	H 	0.0764	0.5913	0.9374	0.167
Mof_H 	H 	0.1846	0.6787	0.9782	-0.025
Mof_H 	H 	0.2403	0.7626	0.0885	0.141
Mof_H 	H 	0.0372	0.6846	0.9664	0.375
Mof_H 	H 	0.0358	0.6538	0.8639	-0.341
Mof_H 	H 	0.9945	0.6976	0.805	0.431
Mof_H 	H 	0.9491	0.7589	0.8311	-0.256
Mof_H 	H 	0.8683	0.8485	0.9834	0.049
Mof_H 	H 	0.924	0.9142	0.9937	0.034
Mof_H 	H 	0.8618	0.8476	0.0781	0.107
Mof_H 	H 	0.9033	0.8883	0.1921	-0
Mof_H 	H 	0.9982	0.9916	0.2672	0.133
Mof_H 	H 	0.0452	0.0582	0.2271	0.006
Mof_H 	H 	0.0234	0.004	0.1174	0.104
Mof_H 	H 	0.5273	0.9768	0.849	0.151
Mof_H 	H 	0.7122	0.2153	0.89	0.152
Mof_H 	H 	0.808	0.1761	0.1685	0.154
Mof_H 	H 	0.8529	0.0262	0.9825	0.175
Mof_H 	H 	0.692	0.1648	0.9646	0.057
Mof_H 	H 	0.7087	0.1673	0.0345	0.053
Mof_H 	H 	0.6533	0.0364	0.8776	0.058
Mof_H 	H 	0.7216	0.0353	0.8932	0.059
Mof_H 	H 	0.8305	0.1356	0.0137	0.043
Mof_H 	H 	0.8115	0.1892	0.0037	0.043
Mof_H 	H 	0.7353	0.0728	0.0469	0.031
Mof_H 	H 	0.6681	0.02	0.9773	0.03
Mof_H 	H 	0.6336	0.204	0.0234	0.262
Mof_H 	H 	0.5574	0.2302	0.0407	-0.158
Mof_H 	H 	0.4569	0.147	0.0168	0.268
Mof_H 	H 	0.4241	0.0451	0.9349	-0.117
Mof_H 	H 	0.434	0.8616	0.7917	0.038
Mof_H 	H 	0.4894	0.8727	0.8581	0.048
Mof_H 	H 	0.5866	0.8645	0.8567	0.094
Mof_H 	H 	0.6598	0.874	0.8142	0.018
Mof_H 	H 	0.6208	0.8539	0.7053	0.117
Mof_H 	H 	0.5192	0.8477	0.6487	0.021
Mof_H 	H 	0.4692	0.88	0.709	0.091
Mof_H 	H 	0.6729	0.0001	0.7836	0.22
Mof_H 	H 	0.665	0.9705	0.6798	-0.121
Mof_H 	H 	0.7189	0.0537	0.6612	0.217
Mof_H 	H 	0.7497	0.1601	0.7331	-0.083
Mof_H 	H 	0.7876	0.3451	0.9278	0.077
Mof_H 	H 	0.8375	0.3288	0.9722	0.086
Mof_H 	H 	0.8349	0.3333	0.072	0.129
Mof_H 	H 	0.786	0.3366	0.1386	-0.015
Mof_H 	H 	0.6946	0.3534	0.1133	0.151
Mof_H 	H 	0.6465	0.3554	0.0145	-0.009
Mof_H 	H 	0.6822	0.3299	0.9386	0.126
Mof_H 	H 	0.9263	0.2365	0.0741	0.169
Mof_H 	H 	0.0255	0.3396	0.1457	-0.05
Mof_H 	H 	0.0394	0.4111	0.2469	0.147
Mof_H 	H 	0.9668	0.3708	0.2821	-0.031
Mof_H 	H 	0.7839	0.2087	0.2722	0.089
Mof_H 	H 	0.735	0.2177	0.2179	0.097
Mof_H 	H 	0.6405	0.127	0.1223	0.146
Mof_H 	H 	0.5616	0.0149	0.0616	-0.028
Mof_H 	H 	0.5913	0.9374	0.0764	0.167
Mof_H 	H 	0.6787	0.9782	0.1846	-0.025
Mof_H 	H 	0.7626	0.0885	0.2403	0.141
Mof_H 	H 	0.6846	0.9664	0.0372	0.375
Mof_H 	H 	0.6538	0.8639	0.0358	-0.341
Mof_H 	H 	0.6976	0.805	0.9945	0.431
Mof_H 	H 	0.7589	0.8311	0.9491	-0.256
Mof_H 	H 	0.8485	0.9834	0.8683	0.049
Mof_H 	H 	0.9142	0.9937	0.924	0.034
Mof_H 	H 	0.8476	0.0781	0.8618	0.107
Mof_H 	H 	0.8883	0.1921	0.9033	-0
Mof_H 	H 	0.9916	0.2672	0.9982	0.133
Mof_H 	H 	0.0582	0.2271	0.0452	0.006
Mof_H 	H 	0.004	0.1174	0.0234	0.104
Mof_C 	C 	0.476	0.6016	0.2273	0.024
Mof_C 	C 	0.4865	0.6374	0.1894	-0.025
Mof_C 	C 	0.4028	0.5642	0.2023	-0.032
Mof_C 	C 	0.5193	0.6566	0.3033	0.015
Mof_C 	C 	0.4982	0.55	0.2165	0.05
Mof_C 	C 	0.3955	0.4773	0.977	0.424
Mof_C 	C 	0.4458	0.5507	0.0087	-0.448
Mof_C 	C 	0.4721	0.6043	0.071	0.47
Mof_C 	C 	0.5075	0.67	0.0902	-0.638
Mof_C 	C 	0.5192	0.6848	0.0457	0.588
Mof_C 	C 	0.5015	0.6378	0.9853	-0.651
Mof_C 	C 	0.4597	0.5766	0.9704	0.486
Mof_C 	C 	0.3255	0.3882	0.9819	-0.01
Mof_C 	C 	0.2909	0.3788	0.0241	0.088
Mof_C 	C 	0.3187	0.3698	0.0776	-0.158
Mof_C 	C 	0.2901	0.3685	0.1174	0.091
Mof_C 	C 	0.2265	0.3594	0.0956	-0.165
Mof_C 	C 	0.1939	0.3584	0.0371	0.086
Mof_C 	C 	0.2283	0.3732	0.005	-0.157
Mof_C 	C 	0.3568	0.7328	0.278	0.419
Mof_C 	C 	0.3087	0.6507	0.2474	-0.363
Mof_C 	C 	0.3193	0.5991	0.2212	0.406
Mof_C 	C 	0.2734	0.5335	0.1911	-0.52
Mof_C 	C 	0.2128	0.516	0.1873	0.46
Mof_C 	C 	0.2001	0.5637	0.2153	-0.521
Mof_C 	C 	0.2465	0.6279	0.2385	0.379
Mof_C 	C 	0.4477	0.8165	0.2903	-0.144
Mof_C 	C 	0.4953	0.824	0.2601	0.192
Mof_C 	C 	0.5576	0.832	0.2933	-0.261
Mof_C 	C 	0.5992	0.8384	0.2666	0.187
Mof_C 	C 	0.5838	0.8471	0.2118	-0.259
Mof_C 	C 	0.5243	0.8465	0.1822	0.183
Mof_C 	C 	0.4803	0.8332	0.2047	-0.257
Mof_C 	C 	0.7287	0.7738	0.3517	0.381
Mof_C 	C 	0.6939	0.7878	0.3944	-0.281
Mof_C 	C 	0.6303	0.7496	0.3831	0.338
Mof_C 	C 	0.6148	0.7665	0.4327	-0.372
Mof_C 	C 	0.6577	0.8269	0.4923	0.264
Mof_C 	C 	0.7184	0.8677	0.5015	-0.319
Mof_C 	C 	0.7375	0.8456	0.4559	0.234
Mof_C 	C 	0.7243	0.6939	0.2599	-0.172
Mof_C 	C 	0.6837	0.6187	0.2125	0.229
Mof_C 	C 	0.6324	0.5964	0.1508	-0.304
Mof_C 	C 	0.5958	0.5297	0.1044	0.231
Mof_C 	C 	0.6079	0.4835	0.1184	-0.304
Mof_C 	C 	0.668	0.507	0.174	0.219
Mof_C 	C 	0.7026	0.5732	0.222	-0.293
Mof_C 	C 	0.4345	0.4365	0.3112	0.529
Mof_C 	C 	0.4584	0.4152	0.2585	-0.661
Mof_C 	C 	0.4828	0.4488	0.2293	0.666
Mof_C 	C 	0.516	0.436	0.1963	-0.959
Mof_C 	C 	0.5179	0.3784	0.1806	1.065
Mof_C 	C 	0.4927	0.3446	0.2063	-1.142
Mof_C 	C 	0.4648	0.3598	0.243	0.887
Mof_C 	C 	0.4167	0.5076	0.3803	-0.01
Mof_C 	C 	0.4448	0.5881	0.416	0.106
Mof_C 	C 	0.4042	0.6095	0.386	-0.189
Mof_C 	C 	0.4264	0.6764	0.4127	0.129
Mof_C 	C 	0.4816	0.7208	0.4745	-0.197
Mof_C 	C 	0.5136	0.6982	0.5122	0.114
Mof_C 	C 	0.498	0.6324	0.4811	-0.18
Mof_C 	C 	0.2273	0.476	0.6016	0.024
Mof_C 	C 	0.1894	0.4865	0.6374	-0.025
Mof_C 	C 	0.2023	0.4028	0.5642	-0.032
Mof_C 	C 	0.3033	0.5193	0.6566	0.015
Mof_C 	C 	0.2165	0.4982	0.55	0.05
Mof_C 	C 	0.977	0.3955	0.4773	0.424
Mof_C 	C 	0.0087	0.4458	0.5507	-0.448
Mof_C 	C 	0.071	0.4721	0.6043	0.47
Mof_C 	C 	0.0902	0.5075	0.67	-0.638
Mof_C 	C 	0.0457	0.5192	0.6848	0.588
Mof_C 	C 	0.9853	0.5015	0.6378	-0.651
Mof_C 	C 	0.9704	0.4597	0.5766	0.486
Mof_C 	C 	0.9819	0.3255	0.3882	-0.01
Mof_C 	C 	0.0241	0.2909	0.3788	0.088
Mof_C 	C 	0.0776	0.3187	0.3698	-0.158
Mof_C 	C 	0.1174	0.2901	0.3685	0.091
Mof_C 	C 	0.0956	0.2265	0.3594	-0.165
Mof_C 	C 	0.0371	0.1939	0.3584	0.086
Mof_C 	C 	0.005	0.2283	0.3732	-0.157
Mof_C 	C 	0.278	0.3568	0.7328	0.419
Mof_C 	C 	0.2474	0.3087	0.6507	-0.363
Mof_C 	C 	0.2212	0.3193	0.5991	0.406
Mof_C 	C 	0.1911	0.2734	0.5335	-0.52
Mof_C 	C 	0.1873	0.2128	0.516	0.46
Mof_C 	C 	0.2153	0.2001	0.5637	-0.521
Mof_C 	C 	0.2385	0.2465	0.6279	0.379
Mof_C 	C 	0.2903	0.4477	0.8165	-0.144
Mof_C 	C 	0.2601	0.4953	0.824	0.192
Mof_C 	C 	0.2933	0.5576	0.832	-0.261
Mof_C 	C 	0.2666	0.5992	0.8384	0.187
Mof_C 	C 	0.2118	0.5838	0.8471	-0.259
Mof_C 	C 	0.1822	0.5243	0.8465	0.183
Mof_C 	C 	0.2047	0.4803	0.8332	-0.257
Mof_C 	C 	0.3517	0.7287	0.7738	0.381
Mof_C 	C 	0.3944	0.6939	0.7878	-0.281
Mof_C 	C 	0.3831	0.6303	0.7496	0.338
Mof_C 	C 	0.4327	0.6148	0.7665	-0.372
Mof_C 	C 	0.4923	0.6577	0.8269	0.264
Mof_C 	C 	0.5015	0.7184	0.8677	-0.319
Mof_C 	C 	0.4559	0.7375	0.8456	0.234
Mof_C 	C 	0.2599	0.7243	0.6939	-0.172
Mof_C 	C 	0.2125	0.6837	0.6187	0.229
Mof_C 	C 	0.1508	0.6324	0.5964	-0.304
Mof_C 	C 	0.1044	0.5958	0.5297	0.231
Mof_C 	C 	0.1184	0.6079	0.4835	-0.304
Mof_C 	C 	0.174	0.668	0.507	0.219
Mof_C 	C 	0.222	0.7026	0.5732	-0.293
Mof_C 	C 	0.3112	0.4345	0.4365	0.529
Mof_C 	C 	0.2585	0.4584	0.4152	-0.661
Mof_C 	C 	0.2293	0.4828	0.4488	0.666
Mof_C 	C 	0.1963	0.516	0.436	-0.959
Mof_C 	C 	0.1806	0.5179	0.3784	1.065
Mof_C 	C 	0.2063	0.4927	0.3446	-1.142
Mof_C 	C 	0.243	0.4648	0.3598	0.887
Mof_C 	C 	0.3803	0.4167	0.5076	-0.01
Mof_C 	C 	0.416	0.4448	0.5881	0.106
Mof_C 	C 	0.386	0.4042	0.6095	-0.189
Mof_C 	C 	0.4127	0.4264	0.6764	0.129
Mof_C 	C 	0.4745	0.4816	0.7208	-0.197
Mof_C 	C 	0.5122	0.5136	0.6982	0.114
Mof_C 	C 	0.4811	0.498	0.6324	-0.18
Mof_C 	C 	0.6016	0.2273	0.476	0.024
Mof_C 	C 	0.6374	0.1894	0.4865	-0.025
Mof_C 	C 	0.5642	0.2023	0.4028	-0.032
Mof_C 	C 	0.6566	0.3033	0.5193	0.015
Mof_C 	C 	0.55	0.2165	0.4982	0.05
Mof_C 	C 	0.4773	0.977	0.3955	0.424
Mof_C 	C 	0.5507	0.0087	0.4458	-0.448
Mof_C 	C 	0.6043	0.071	0.4721	0.47
Mof_C 	C 	0.67	0.0902	0.5075	-0.638
Mof_C 	C 	0.6848	0.0457	0.5192	0.588
Mof_C 	C 	0.6378	0.9853	0.5015	-0.651
Mof_C 	C 	0.5766	0.9704	0.4597	0.486
Mof_C 	C 	0.3882	0.9819	0.3255	-0.01
Mof_C 	C 	0.3788	0.0241	0.2909	0.088
Mof_C 	C 	0.3698	0.0776	0.3187	-0.158
Mof_C 	C 	0.3685	0.1174	0.2901	0.091
Mof_C 	C 	0.3594	0.0956	0.2265	-0.165
Mof_C 	C 	0.3584	0.0371	0.1939	0.086
Mof_C 	C 	0.3732	0.005	0.2283	-0.157
Mof_C 	C 	0.7328	0.278	0.3568	0.419
Mof_C 	C 	0.6507	0.2474	0.3087	-0.363
Mof_C 	C 	0.5991	0.2212	0.3193	0.406
Mof_C 	C 	0.5335	0.1911	0.2734	-0.52
Mof_C 	C 	0.516	0.1873	0.2128	0.46
Mof_C 	C 	0.5637	0.2153	0.2001	-0.521
Mof_C 	C 	0.6279	0.2385	0.2465	0.379
Mof_C 	C 	0.8165	0.2903	0.4477	-0.144
Mof_C 	C 	0.824	0.2601	0.4953	0.192
Mof_C 	C 	0.832	0.2933	0.5576	-0.261
Mof_C 	C 	0.8384	0.2666	0.5992	0.187
Mof_C 	C 	0.8471	0.2118	0.5838	-0.259
Mof_C 	C 	0.8465	0.1822	0.5243	0.183
Mof_C 	C 	0.8332	0.2047	0.4803	-0.257
Mof_C 	C 	0.7738	0.3517	0.7287	0.381
Mof_C 	C 	0.7878	0.3944	0.6939	-0.281
Mof_C 	C 	0.7496	0.3831	0.6303	0.338
Mof_C 	C 	0.7665	0.4327	0.6148	-0.372
Mof_C 	C 	0.8269	0.4923	0.6577	0.264
Mof_C 	C 	0.8677	0.5015	0.7184	-0.319
Mof_C 	C 	0.8456	0.4559	0.7375	0.234
Mof_C 	C 	0.6939	0.2599	0.7243	-0.172
Mof_C 	C 	0.6187	0.2125	0.6837	0.229
Mof_C 	C 	0.5964	0.1508	0.6324	-0.304
Mof_C 	C 	0.5297	0.1044	0.5958	0.231
Mof_C 	C 	0.4835	0.1184	0.6079	-0.304
Mof_C 	C 	0.507	0.174	0.668	0.219
Mof_C 	C 	0.5732	0.222	0.7026	-0.293
Mof_C 	C 	0.4365	0.3112	0.4345	0.529
Mof_C 	C 	0.4152	0.2585	0.4584	-0.661
Mof_C 	C 	0.4488	0.2293	0.4828	0.666
Mof_C 	C 	0.436	0.1963	0.516	-0.959
Mof_C 	C 	0.3784	0.1806	0.5179	1.065
Mof_C 	C 	0.3446	0.2063	0.4927	-1.142
Mof_C 	C 	0.3598	0.243	0.4648	0.887
Mof_C 	C 	0.5076	0.3803	0.4167	-0.01
Mof_C 	C 	0.5881	0.416	0.4448	0.106
Mof_C 	C 	0.6095	0.386	0.4042	-0.189
Mof_C 	C 	0.6764	0.4127	0.4264	0.129
Mof_C 	C 	0.7208	0.4745	0.4816	-0.197
Mof_C 	C 	0.6982	0.5122	0.5136	0.114
Mof_C 	C 	0.6324	0.4811	0.498	-0.18
Mof_C 	C 	0.1016	0.976	0.7273	0.024
Mof_C 	C 	0.1374	0.9865	0.6894	-0.026
Mof_C 	C 	0.0642	0.9028	0.7023	-0.032
Mof_C 	C 	0.1566	0.0193	0.8033	0.015
Mof_C 	C 	0.05	0.9982	0.7165	0.05
Mof_C 	C 	0.9773	0.8955	0.477	0.424
Mof_C 	C 	0.0507	0.9458	0.5087	-0.447
Mof_C 	C 	0.1043	0.9721	0.571	0.468
Mof_C 	C 	0.17	0.0075	0.5902	-0.635
Mof_C 	C 	0.1848	0.0192	0.5457	0.585
Mof_C 	C 	0.1378	0.0015	0.4853	-0.648
Mof_C 	C 	0.0766	0.9597	0.4704	0.484
Mof_C 	C 	0.8882	0.8255	0.4819	-0.011
Mof_C 	C 	0.8788	0.7909	0.5241	0.088
Mof_C 	C 	0.8698	0.8187	0.5776	-0.159
Mof_C 	C 	0.8685	0.7901	0.6174	0.092
Mof_C 	C 	0.8594	0.7265	0.5956	-0.166
Mof_C 	C 	0.8584	0.6939	0.5371	0.087
Mof_C 	C 	0.8732	0.7283	0.505	-0.158
Mof_C 	C 	0.2328	0.8568	0.778	0.419
Mof_C 	C 	0.1507	0.8087	0.7474	-0.362
Mof_C 	C 	0.0991	0.8193	0.7212	0.405
Mof_C 	C 	0.0335	0.7734	0.6911	-0.519
Mof_C 	C 	0.016	0.7128	0.6873	0.459
Mof_C 	C 	0.0637	0.7001	0.7153	-0.52
Mof_C 	C 	0.1279	0.7465	0.7385	0.378
Mof_C 	C 	0.3165	0.9477	0.7903	-0.144
Mof_C 	C 	0.324	0.9953	0.7601	0.192
Mof_C 	C 	0.332	0.0576	0.7933	-0.261
Mof_C 	C 	0.3384	0.0992	0.7666	0.187
Mof_C 	C 	0.3471	0.0838	0.7118	-0.258
Mof_C 	C 	0.3465	0.0243	0.6822	0.183
Mof_C 	C 	0.3332	0.9803	0.7047	-0.257
Mof_C 	C 	0.2738	0.2287	0.8517	0.38
Mof_C 	C 	0.2878	0.1939	0.8944	-0.279
Mof_C 	C 	0.2496	0.1303	0.8831	0.336
Mof_C 	C 	0.2665	0.1148	0.9327	-0.368
Mof_C 	C 	0.3269	0.1577	0.9923	0.259
Mof_C 	C 	0.3677	0.2184	0.0015	-0.314
Mof_C 	C 	0.3456	0.2375	0.9559	0.23
Mof_C 	C 	0.1939	0.2243	0.7599	-0.173
Mof_C 	C 	0.1187	0.1837	0.7125	0.231
Mof_C 	C 	0.0964	0.1324	0.6508	-0.307
Mof_C 	C 	0.0297	0.0958	0.6044	0.234
Mof_C 	C 	0.9835	0.1079	0.6184	-0.308
Mof_C 	C 	0.007	0.168	0.674	0.223
Mof_C 	C 	0.0732	0.2026	0.722	-0.296
Mof_C 	C 	0.9365	0.9345	0.8112	0.528
Mof_C 	C 	0.9152	0.9584	0.7585	-0.66
Mof_C 	C 	0.9488	0.9828	0.7293	0.666
Mof_C 	C 	0.936	0.016	0.6963	-0.959
Mof_C 	C 	0.8784	0.0179	0.6806	1.064
Mof_C 	C 	0.8446	0.9927	0.7063	-1.141
Mof_C 	C 	0.8598	0.9648	0.743	0.886
Mof_C 	C 	0.0076	0.9167	0.8803	-0.016
Mof_C 	C 	0.0881	0.9448	0.916	0.113
Mof_C 	C 	0.1095	0.9042	0.886	-0.197
Mof_C 	C 	0.1764	0.9264	0.9127	0.139
Mof_C 	C 	0.2208	0.9816	0.9745	-0.208
Mof_C 	C 	0.1982	0.0136	0.0122	0.125
Mof_C 	C 	0.1324	0.998	0.9811	-0.19
Mof_C 	C 	0.976	0.7273	0.1016	0.024
Mof_C 	C 	0.9865	0.6894	0.1374	-0.026
Mof_C 	C 	0.9028	0.7023	0.0642	-0.032
Mof_C 	C 	0.0193	0.8033	0.1566	0.015
Mof_C 	C 	0.9982	0.7165	0.05	0.05
Mof_C 	C 	0.8955	0.477	0.9773	0.424
Mof_C 	C 	0.9458	0.5087	0.0507	-0.447
Mof_C 	C 	0.9721	0.571	0.1043	0.468
Mof_C 	C 	0.0075	0.5902	0.17	-0.635
Mof_C 	C 	0.0192	0.5457	0.1848	0.585
Mof_C 	C 	0.0015	0.4853	0.1378	-0.648
Mof_C 	C 	0.9597	0.4704	0.0766	0.484
Mof_C 	C 	0.8255	0.4819	0.8882	-0.011
Mof_C 	C 	0.7909	0.5241	0.8788	0.088
Mof_C 	C 	0.8187	0.5776	0.8698	-0.159
Mof_C 	C 	0.7901	0.6174	0.8685	0.092
Mof_C 	C 	0.7265	0.5956	0.8594	-0.166
Mof_C 	C 	0.6939	0.5371	0.8584	0.087
Mof_C 	C 	0.7283	0.505	0.8732	-0.158
Mof_C 	C 	0.8568	0.778	0.2328	0.419
Mof_C 	C 	0.8087	0.7474	0.1507	-0.362
Mof_C 	C 	0.8193	0.7212	0.0991	0.405
Mof_C 	C 	0.7734	0.6911	0.0335	-0.519
Mof_C 	C 	0.7128	0.6873	0.016	0.459
Mof_C 	C 	0.7001	0.7153	0.0637	-0.52
Mof_C 	C 	0.7465	0.7385	0.1279	0.378
Mof_C 	C 	0.9477	0.7903	0.3165	-0.144
Mof_C 	C 	0.9953	0.7601	0.324	0.192
Mof_C 	C 	0.0576	0.7933	0.332	-0.261
Mof_C 	C 	0.0992	0.7666	0.3384	0.187
Mof_C 	C 	0.0838	0.7118	0.3471	-0.258
Mof_C 	C 	0.0243	0.6822	0.3465	0.183
Mof_C 	C 	0.9803	0.7047	0.3332	-0.257
Mof_C 	C 	0.2287	0.8517	0.2738	0.38
Mof_C 	C 	0.1939	0.8944	0.2878	-0.279
Mof_C 	C 	0.1303	0.8831	0.2496	0.336
Mof_C 	C 	0.1148	0.9327	0.2665	-0.368
Mof_C 	C 	0.1577	0.9923	0.3269	0.259
Mof_C 	C 	0.2184	0.0015	0.3677	-0.314
Mof_C 	C 	0.2375	0.9559	0.3456	0.23
Mof_C 	C 	0.2243	0.7599	0.1939	-0.173
Mof_C 	C 	0.1837	0.7125	0.1187	0.231
Mof_C 	C 	0.1324	0.6508	0.0964	-0.307
Mof_C 	C 	0.0958	0.6044	0.0297	0.234
Mof_C 	C 	0.1079	0.6184	0.9835	-0.308
Mof_C 	C 	0.168	0.674	0.007	0.223
Mof_C 	C 	0.2026	0.722	0.0732	-0.296
Mof_C 	C 	0.9345	0.8112	0.9365	0.528
Mof_C 	C 	0.9584	0.7585	0.9152	-0.66
Mof_C 	C 	0.9828	0.7293	0.9488	0.666
Mof_C 	C 	0.016	0.6963	0.936	-0.959
Mof_C 	C 	0.0179	0.6806	0.8784	1.064
Mof_C 	C 	0.9927	0.7063	0.8446	-1.141
Mof_C 	C 	0.9648	0.743	0.8598	0.886
Mof_C 	C 	0.9167	0.8803	0.0076	-0.016
Mof_C 	C 	0.9448	0.916	0.0881	0.113
Mof_C 	C 	0.9042	0.886	0.1095	-0.197
Mof_C 	C 	0.9264	0.9127	0.1764	0.139
Mof_C 	C 	0.9816	0.9745	0.2208	-0.208
Mof_C 	C 	0.0136	0.0122	0.1982	0.125
Mof_C 	C 	0.998	0.9811	0.1324	-0.19
Mof_C 	C 	0.7273	0.1016	0.976	0.024
Mof_C 	C 	0.6894	0.1374	0.9865	-0.026
Mof_C 	C 	0.7023	0.0642	0.9028	-0.032
Mof_C 	C 	0.8033	0.1566	0.0193	0.015
Mof_C 	C 	0.7165	0.05	0.9982	0.05
Mof_C 	C 	0.477	0.9773	0.8955	0.424
Mof_C 	C 	0.5087	0.0507	0.9458	-0.447
Mof_C 	C 	0.571	0.1043	0.9721	0.468
Mof_C 	C 	0.5902	0.17	0.0075	-0.635
Mof_C 	C 	0.5457	0.1848	0.0192	0.585
Mof_C 	C 	0.4853	0.1378	0.0015	-0.648
Mof_C 	C 	0.4704	0.0766	0.9597	0.484
Mof_C 	C 	0.4819	0.8882	0.8255	-0.011
Mof_C 	C 	0.5241	0.8788	0.7909	0.088
Mof_C 	C 	0.5776	0.8698	0.8187	-0.159
Mof_C 	C 	0.6174	0.8685	0.7901	0.092
Mof_C 	C 	0.5956	0.8594	0.7265	-0.166
Mof_C 	C 	0.5371	0.8584	0.6939	0.087
Mof_C 	C 	0.505	0.8732	0.7283	-0.158
Mof_C 	C 	0.778	0.2328	0.8568	0.419
Mof_C 	C 	0.7474	0.1507	0.8087	-0.362
Mof_C 	C 	0.7212	0.0991	0.8193	0.405
Mof_C 	C 	0.6911	0.0335	0.7734	-0.519
Mof_C 	C 	0.6873	0.016	0.7128	0.459
Mof_C 	C 	0.7153	0.0637	0.7001	-0.52
Mof_C 	C 	0.7385	0.1279	0.7465	0.378
Mof_C 	C 	0.7903	0.3165	0.9477	-0.144
Mof_C 	C 	0.7601	0.324	0.9953	0.192
Mof_C 	C 	0.7933	0.332	0.0576	-0.261
Mof_C 	C 	0.7666	0.3384	0.0992	0.187
Mof_C 	C 	0.7118	0.3471	0.0838	-0.258
Mof_C 	C 	0.6822	0.3465	0.0243	0.183
Mof_C 	C 	0.7047	0.3332	0.9803	-0.257
Mof_C 	C 	0.8517	0.2738	0.2287	0.38
Mof_C 	C 	0.8944	0.2878	0.1939	-0.279
Mof_C 	C 	0.8831	0.2496	0.1303	0.336
Mof_C 	C 	0.9327	0.2665	0.1148	-0.368
Mof_C 	C 	0.9923	0.3269	0.1577	0.259
Mof_C 	C 	0.0015	0.3677	0.2184	-0.314
Mof_C 	C 	0.9559	0.3456	0.2375	0.23
Mof_C 	C 	0.7599	0.1939	0.2243	-0.173
Mof_C 	C 	0.7125	0.1187	0.1837	0.231
Mof_C 	C 	0.6508	0.0964	0.1324	-0.307
Mof_C 	C 	0.6044	0.0297	0.0958	0.234
Mof_C 	C 	0.6184	0.9835	0.1079	-0.308
Mof_C 	C 	0.674	0.007	0.168	0.223
Mof_C 	C 	0.722	0.0732	0.2026	-0.296
Mof_C 	C 	0.8112	0.9365	0.9345	0.528
Mof_C 	C 	0.7585	0.9152	0.9584	-0.66
Mof_C 	C 	0.7293	0.9488	0.9828	0.666
Mof_C 	C 	0.6963	0.936	0.016	-0.959
Mof_C 	C 	0.6806	0.8784	0.0179	1.064
Mof_C 	C 	0.7063	0.8446	0.9927	-1.141
Mof_C 	C 	0.743	0.8598	0.9648	0.886
Mof_C 	C 	0.8803	0.0076	0.9167	-0.016
Mof_C 	C 	0.916	0.0881	0.9448	0.113
Mof_C 	C 	0.886	0.1095	0.9042	-0.197
Mof_C 	C 	0.9127	0.1764	0.9264	0.139
Mof_C 	C 	0.9745	0.2208	0.9816	-0.208
Mof_C 	C 	0.0122	0.1982	0.0136	0.125
Mof_C 	C 	0.9811	0.1324	0.998	-0.19
Mof_N 	N 	0.355	0.4498	0.9991	-0.268
Mof_N 	N 	0.3954	0.7446	0.2486	-0.249
Mof_N 	N 	0.699	0.7074	0.308	-0.238
Mof_N 	N 	0.4491	0.493	0.3475	-0.34
Mof_N 	N 	0.5086	0.4663	0.8731	0.06
Mof_N 	N 	0.3927	0.2624	0.7363	0.063
Mof_N 	N 	0.4827	0.3278	0.9439	0.061
Mof_N 	N 	0.1949	0.3105	0.2214	0.064
Mof_N 	N 	0.9991	0.355	0.4498	-0.268
Mof_N 	N 	0.2486	0.3954	0.7446	-0.249
Mof_N 	N 	0.308	0.699	0.7074	-0.238
Mof_N 	N 	0.3475	0.4491	0.493	-0.34
Mof_N 	N 	0.8731	0.5086	0.4663	0.06
Mof_N 	N 	0.7363	0.3927	0.2624	0.063
Mof_N 	N 	0.9439	0.4827	0.3278	0.061
Mof_N 	N 	0.2214	0.1949	0.3105	0.064
Mof_N 	N 	0.4498	0.9991	0.355	-0.268
Mof_N 	N 	0.7446	0.2486	0.3954	-0.249
Mof_N 	N 	0.7074	0.308	0.699	-0.238
Mof_N 	N 	0.493	0.3475	0.4491	-0.34
Mof_N 	N 	0.4663	0.8731	0.5086	0.06
Mof_N 	N 	0.2624	0.7363	0.3927	0.063
Mof_N 	N 	0.3278	0.9439	0.4827	0.061
Mof_N 	N 	0.3105	0.2214	0.1949	0.064
Mof_N 	N 	0.9498	0.855	0.4991	-0.268
Mof_N 	N 	0.2446	0.8954	0.7486	-0.249
Mof_N 	N 	0.2074	0.199	0.808	-0.238
Mof_N 	N 	0.993	0.9491	0.8475	-0.338
Mof_N 	N 	0.9663	0.0086	0.3731	0.06
Mof_N 	N 	0.7624	0.8927	0.2363	0.063
Mof_N 	N 	0.8278	0.9827	0.4439	0.061
Mof_N 	N 	0.8105	0.6949	0.7214	0.064
Mof_N 	N 	0.855	0.4991	0.9498	-0.268
Mof_N 	N 	0.8954	0.7486	0.2446	-0.249
Mof_N 	N 	0.199	0.808	0.2074	-0.238
Mof_N 	N 	0.9491	0.8475	0.993	-0.338
Mof_N 	N 	0.0086	0.3731	0.9663	0.06
Mof_N 	N 	0.8927	0.2363	0.7624	0.063
Mof_N 	N 	0.9827	0.4439	0.8278	0.061
Mof_N 	N 	0.6949	0.7214	0.8105	0.064
Mof_N 	N 	0.4991	0.9498	0.855	-0.268
Mof_N 	N 	0.7486	0.2446	0.8954	-0.249
Mof_N 	N 	0.808	0.2074	0.199	-0.238
Mof_N 	N 	0.8475	0.993	0.9491	-0.338
Mof_N 	N 	0.3731	0.9663	0.0086	0.06
Mof_N 	N 	0.2363	0.7624	0.8927	0.063
Mof_N 	N 	0.4439	0.8278	0.9827	0.061
Mof_N 	N 	0.7214	0.8105	0.6949	0.064
Mof_O 	O 	0.4553	0.5836	0.1139	-0.276
Mof_O 	O 	0.3836	0.6199	0.2258	-0.26
Mof_O 	O 	0.5892	0.6908	0.3228	-0.27
Mof_O 	O 	0.4804	0.5117	0.2468	-0.318
Mof_O 	O 	0.3952	0.4325	0.93	-0.477
Mof_O 	O 	0.3482	0.7727	0.3142	-0.516
Mof_O 	O 	0.7778	0.8188	0.3563	-0.491
Mof_O 	O 	0.3903	0.3851	0.3072	-0.5
Mof_O 	O 	0.5197	0.4396	0.9094	-0.268
Mof_O 	O 	0.4474	0.4502	0.8373	-0.275
Mof_O 	O 	0.5544	0.5199	0.8862	-0.124
Mof_O 	O 	0.3525	0.2409	0.7554	-0.279
Mof_O 	O 	0.4377	0.3248	0.7702	-0.278
Mof_O 	O 	0.3932	0.2223	0.6874	-0.122
Mof_O 	O 	0.4619	0.2957	0.8813	-0.277
Mof_O 	O 	0.4606	0.3664	0.9643	-0.276
Mof_O 	O 	0.5225	0.3198	0.9847	-0.121
Mof_O 	O 	0.2552	0.3527	0.2425	-0.275
Mof_O 	O 	0.185	0.2677	0.2411	-0.274
Mof_O 	O 	0.1485	0.3215	0.1944	-0.122
Mof_O 	O 	0.1139	0.4553	0.5836	-0.276
Mof_O 	O 	0.2258	0.3836	0.6199	-0.26
Mof_O 	O 	0.3228	0.5892	0.6908	-0.27
Mof_O 	O 	0.2468	0.4804	0.5117	-0.318
Mof_O 	O 	0.93	0.3952	0.4325	-0.477
Mof_O 	O 	0.3142	0.3482	0.7727	-0.516
Mof_O 	O 	0.3563	0.7778	0.8188	-0.491
Mof_O 	O 	0.3072	0.3903	0.3851	-0.5
Mof_O 	O 	0.9094	0.5197	0.4396	-0.268
Mof_O 	O 	0.8373	0.4474	0.4502	-0.275
Mof_O 	O 	0.8862	0.5544	0.5199	-0.124
Mof_O 	O 	0.7554	0.3525	0.2409	-0.279
Mof_O 	O 	0.7702	0.4377	0.3248	-0.278
Mof_O 	O 	0.6874	0.3932	0.2223	-0.122
Mof_O 	O 	0.8813	0.4619	0.2957	-0.277
Mof_O 	O 	0.9643	0.4606	0.3664	-0.276
Mof_O 	O 	0.9847	0.5225	0.3198	-0.121
Mof_O 	O 	0.2425	0.2552	0.3527	-0.275
Mof_O 	O 	0.2411	0.185	0.2677	-0.274
Mof_O 	O 	0.1944	0.1485	0.3215	-0.122
Mof_O 	O 	0.5836	0.1139	0.4553	-0.276
Mof_O 	O 	0.6199	0.2258	0.3836	-0.26
Mof_O 	O 	0.6908	0.3228	0.5892	-0.27
Mof_O 	O 	0.5117	0.2468	0.4804	-0.318
Mof_O 	O 	0.4325	0.93	0.3952	-0.477
Mof_O 	O 	0.7727	0.3142	0.3482	-0.516
Mof_O 	O 	0.8188	0.3563	0.7778	-0.491
Mof_O 	O 	0.3851	0.3072	0.3903	-0.5
Mof_O 	O 	0.4396	0.9094	0.5197	-0.268
Mof_O 	O 	0.4502	0.8373	0.4474	-0.275
Mof_O 	O 	0.5199	0.8862	0.5544	-0.124
Mof_O 	O 	0.2409	0.7554	0.3525	-0.279
Mof_O 	O 	0.3248	0.7702	0.4377	-0.278
Mof_O 	O 	0.2223	0.6874	0.3932	-0.122
Mof_O 	O 	0.2957	0.8813	0.4619	-0.277
Mof_O 	O 	0.3664	0.9643	0.4606	-0.276
Mof_O 	O 	0.3198	0.9847	0.5225	-0.121
Mof_O 	O 	0.3527	0.2425	0.2552	-0.275
Mof_O 	O 	0.2677	0.2411	0.185	-0.274
Mof_O 	O 	0.3215	0.1944	0.1485	-0.122
Mof_O 	O 	0.0836	0.9553	0.6139	-0.275
Mof_O 	O 	0.1199	0.8836	0.7258	-0.26
Mof_O 	O 	0.1908	0.0892	0.8228	-0.27
Mof_O 	O 	0.0117	0.9804	0.7468	-0.318
Mof_O 	O 	0.9325	0.8952	0.43	-0.477
Mof_O 	O 	0.2727	0.8482	0.8142	-0.516
Mof_O 	O 	0.3188	0.2778	0.8563	-0.491
Mof_O 	O 	0.8851	0.8903	0.8072	-0.5
Mof_O 	O 	0.9396	0.0197	0.4094	-0.268
Mof_O 	O 	0.9502	0.9474	0.3373	-0.275
Mof_O 	O 	0.0199	0.0544	0.3862	-0.124
Mof_O 	O 	0.7409	0.8525	0.2554	-0.279
Mof_O 	O 	0.8248	0.9377	0.2702	-0.278
Mof_O 	O 	0.7223	0.8932	0.1874	-0.122
Mof_O 	O 	0.7957	0.9619	0.3813	-0.277
Mof_O 	O 	0.8664	0.9606	0.4643	-0.276
Mof_O 	O 	0.8198	0.0225	0.4847	-0.121
Mof_O 	O 	0.8527	0.7552	0.7425	-0.275
Mof_O 	O 	0.7677	0.685	0.7411	-0.274
Mof_O 	O 	0.8215	0.6485	0.6944	-0.122
Mof_O 	O 	0.9553	0.6139	0.0836	-0.275
Mof_O 	O 	0.8836	0.7258	0.1199	-0.26
Mof_O 	O 	0.0892	0.8228	0.1908	-0.27
Mof_O 	O 	0.9804	0.7468	0.0117	-0.318
Mof_O 	O 	0.8952	0.43	0.9325	-0.477
Mof_O 	O 	0.8482	0.8142	0.2727	-0.516
Mof_O 	O 	0.2778	0.8563	0.3188	-0.491
Mof_O 	O 	0.8903	0.8072	0.8851	-0.5
Mof_O 	O 	0.0197	0.4094	0.9396	-0.268
Mof_O 	O 	0.9474	0.3373	0.9502	-0.275
Mof_O 	O 	0.0544	0.3862	0.0199	-0.124
Mof_O 	O 	0.8525	0.2554	0.7409	-0.279
Mof_O 	O 	0.9377	0.2702	0.8248	-0.278
Mof_O 	O 	0.8932	0.1874	0.7223	-0.122
Mof_O 	O 	0.9619	0.3813	0.7957	-0.277
Mof_O 	O 	0.9606	0.4643	0.8664	-0.276
Mof_O 	O 	0.0225	0.4847	0.8198	-0.121
Mof_O 	O 	0.7552	0.7425	0.8527	-0.275
Mof_O 	O 	0.685	0.7411	0.7677	-0.274
Mof_O 	O 	0.6485	0.6944	0.8215	-0.122
Mof_O 	O 	0.6139	0.0836	0.9553	-0.275
Mof_O 	O 	0.7258	0.1199	0.8836	-0.26
Mof_O 	O 	0.8228	0.1908	0.0892	-0.27
Mof_O 	O 	0.7468	0.0117	0.9804	-0.318
Mof_O 	O 	0.43	0.9325	0.8952	-0.477
Mof_O 	O 	0.8142	0.2727	0.8482	-0.516
Mof_O 	O 	0.8563	0.3188	0.2778	-0.491
Mof_O 	O 	0.8072	0.8851	0.8903	-0.5
Mof_O 	O 	0.4094	0.9396	0.0197	-0.268
Mof_O 	O 	0.3373	0.9502	0.9474	-0.275
Mof_O 	O 	0.3862	0.0199	0.0544	-0.124
Mof_O 	O 	0.2554	0.7409	0.8525	-0.279
Mof_O 	O 	0.2702	0.8248	0.9377	-0.278
Mof_O 	O 	0.1874	0.7223	0.8932	-0.122
Mof_O 	O 	0.3813	0.7957	0.9619	-0.277
Mof_O 	O 	0.4643	0.8664	0.9606	-0.276
Mof_O 	O 	0.4847	0.8198	0.0225	-0.121
Mof_O 	O 	0.7425	0.8527	0.7552	-0.275
Mof_O 	O 	0.7411	0.7677	0.685	-0.274
Mof_O 	O 	0.6944	0.8215	0.6485	-0.122
_end
