data_functionalizedCrystal
_audit_creation_method	'EQeq! by Chris Wilmer'
_symmetry_space_group_name_H-M	'P1'
_symmetry_Int_Tables_number	1
_symmetry_cell_setting	triclinic
loop_
_symmetry_equiv_pos_as_xyz
  x,y,z
_cell_length_a	8.165
_cell_length_b	8.215
_cell_length_c	8.215
_cell_angle_alpha	94.1831
_cell_angle_beta	117.653
_cell_angle_gamma	62.3472
loop_
_atom_site_label
_atom_site_type_symbol
_atom_site_fract_x
_atom_site_fract_y
_atom_site_fract_z
_atom_site_charge
Mof_Ho	Ho	0.75	0.06649	0.06649	2.273
Mof_Ho	Ho	0.25	0.93351	0.93351	1.563
Mof_C 	C 	0.94358	0.94903	0.50695	0.021
Mof_C 	C 	0.55642	0.50695	0.94903	0.167
Mof_C 	C 	0.05642	0.05097	0.49305	0.514
Mof_C 	C 	0.44358	0.49305	0.05097	0.34
Mof_O 	O 	0.8027	0.94558	0.3563	-0.447
Mof_O 	O 	0.99693	0.12141	0.33273	-0.543
Mof_O 	O 	0.6973	0.3563	0.94558	-0.479
Mof_O 	O 	0.50307	0.33273	0.12141	-0.432
Mof_O 	O 	0.1973	0.05442	0.6437	-0.409
Mof_O 	O 	0.00307	0.87859	0.66727	-0.365
Mof_O 	O 	0.3027	0.6437	0.05442	-0.376
Mof_O 	O 	0.49693	0.66727	0.87859	-0.435
Mof_F 	F 	-0	0	-0	-0.676
Mof_F 	F 	0.5	0	-0	-0.716
_end
