data_functionalizedCrystal
_audit_creation_method	'EQeq! by Chris Wilmer'
_symmetry_space_group_name_H-M	'P1'
_symmetry_Int_Tables_number	1
_symmetry_cell_setting	triclinic
loop_
_symmetry_equiv_pos_as_xyz
  x,y,z
_cell_length_a	38.4594
_cell_length_b	38.4594
_cell_length_c	38.4594
_cell_angle_alpha	60
_cell_angle_beta	60
_cell_angle_gamma	60
loop_
_atom_site_label
_atom_site_type_symbol
_atom_site_fract_x
_atom_site_fract_y
_atom_site_fract_z
_atom_site_charge
Mof_Cu	Cu	0.72494	0	0.27506	0.883
Mof_Cu	Cu	0.79452	0	0.20548	0.903
Mof_Cu	Cu	-4.52207e-17	0.72494	-0	0.866
Mof_Cu	Cu	-0	0.79452	-0	0.887
Mof_Cu	Cu	0.27506	4.52207e-17	0.72494	0.883
Mof_Cu	Cu	0.20548	0	0.79452	0.903
Mof_Cu	Cu	2.26104e-17	0.27506	-0	0.866
Mof_Cu	Cu	-0	0.20548	-0	0.885
Mof_Cu	Cu	0.72494	0.27506	-0	0.884
Mof_Cu	Cu	0.79452	0.20548	-0	0.904
Mof_Cu	Cu	1.69578e-17	0	0.27506	0.867
Mof_Cu	Cu	-3.39156e-17	0	0.20548	0.886
Mof_Cu	Cu	0.27506	0.72494	-0	0.884
Mof_Cu	Cu	0.20548	0.79452	-0	0.904
Mof_Cu	Cu	-2.26104e-17	4.52207e-17	0.72494	0.867
Mof_Cu	Cu	-9.04415e-17	0	0.79452	0.888
Mof_Cu	Cu	0.72494	0	-0	0.867
Mof_Cu	Cu	0.79452	0	-0	0.888
Mof_Cu	Cu	-6.78311e-17	0.27506	0.72494	0.884
Mof_Cu	Cu	-4.52207e-17	0.20548	0.79452	0.904
Mof_Cu	Cu	0.27506	0	-0	0.867
Mof_Cu	Cu	0.20548	0	-0	0.886
Mof_Cu	Cu	-9.60941e-17	0.72494	0.27506	0.884
Mof_Cu	Cu	-5.65259e-17	0.79452	0.20548	0.904
Mof_Cu	Cu	0.6099	0.0884	0.6099	0.802
Mof_Cu	Cu	0.0884	0.6099	0.6918	0.802
Mof_Cu	Cu	0.6099	0.6918	0.6099	0.804
Mof_Cu	Cu	0.6918	0.6099	0.0884	0.802
Mof_Cu	Cu	0.6099	0.6099	0.6918	0.804
Mof_Cu	Cu	0.0884	0.6918	0.6099	0.802
Mof_Cu	Cu	0.6099	0.6099	0.0884	0.802
Mof_Cu	Cu	0.6918	0.0884	0.6099	0.802
Mof_Cu	Cu	0.6099	0.6918	0.0884	0.802
Mof_Cu	Cu	0.0884	0.6099	0.6099	0.802
Mof_Cu	Cu	0.6099	0.0884	0.6918	0.802
Mof_Cu	Cu	0.6918	0.6099	0.6099	0.804
Mof_Cu	Cu	0.9116	0.3901	0.3901	0.804
Mof_Cu	Cu	0.3901	0.9116	0.3082	0.803
Mof_Cu	Cu	0.3082	0.3901	0.3901	0.801
Mof_Cu	Cu	0.3901	0.3082	0.9116	0.803
Mof_Cu	Cu	0.3901	0.3901	0.3082	0.801
Mof_Cu	Cu	0.3082	0.9116	0.3901	0.803
Mof_Cu	Cu	0.3901	0.3901	0.9116	0.804
Mof_Cu	Cu	0.9116	0.3082	0.3901	0.803
Mof_Cu	Cu	0.3082	0.3901	0.9116	0.803
Mof_Cu	Cu	0.3901	0.9116	0.3901	0.804
Mof_Cu	Cu	0.9116	0.3901	0.3082	0.803
Mof_Cu	Cu	0.3901	0.3082	0.3901	0.801
Mof_H 	H 	0.7604	0.0278	0.3458	0.033
Mof_H 	H 	0.6877	0.0629	0.4577	0.022
Mof_H 	H 	0.727	0.0414	0.3988	0.054
Mof_H 	H 	0.0278	0.7604	0.866	0.037
Mof_H 	H 	0.0629	0.6877	0.7917	0.024
Mof_H 	H 	0.0414	0.727	0.8328	0.056
Mof_H 	H 	0.3458	0.866	0.7604	0.041
Mof_H 	H 	0.4577	0.7917	0.6877	0.027
Mof_H 	H 	0.3988	0.8328	0.727	0.059
Mof_H 	H 	0.866	0.3458	0.0278	0.036
Mof_H 	H 	0.7917	0.4577	0.0629	0.024
Mof_H 	H 	0.8328	0.3988	0.0414	0.056
Mof_H 	H 	0.7604	0.3458	0.866	0.041
Mof_H 	H 	0.6877	0.4577	0.7917	0.027
Mof_H 	H 	0.727	0.3988	0.8328	0.059
Mof_H 	H 	0.0278	0.866	0.3458	0.036
Mof_H 	H 	0.0629	0.7917	0.4577	0.024
Mof_H 	H 	0.0414	0.8328	0.3988	0.056
Mof_H 	H 	0.3458	0.7604	0.0278	0.033
Mof_H 	H 	0.4577	0.6877	0.0629	0.022
Mof_H 	H 	0.3988	0.727	0.0414	0.054
Mof_H 	H 	0.866	0.0278	0.7604	0.037
Mof_H 	H 	0.7917	0.0629	0.6877	0.024
Mof_H 	H 	0.8328	0.0414	0.727	0.056
Mof_H 	H 	0.7604	0.866	0.0278	0.037
Mof_H 	H 	0.6877	0.7917	0.0629	0.024
Mof_H 	H 	0.727	0.8328	0.0414	0.056
Mof_H 	H 	0.0278	0.3458	0.7604	0.033
Mof_H 	H 	0.0629	0.4577	0.6877	0.022
Mof_H 	H 	0.0414	0.3988	0.727	0.054
Mof_H 	H 	0.3458	0.0278	0.866	0.036
Mof_H 	H 	0.4577	0.0629	0.7917	0.024
Mof_H 	H 	0.3988	0.0414	0.8328	0.056
Mof_H 	H 	0.866	0.7604	0.3458	0.041
Mof_H 	H 	0.7917	0.6877	0.4577	0.027
Mof_H 	H 	0.8328	0.727	0.3988	0.059
Mof_H 	H 	0.9722	0.2396	0.6542	0.041
Mof_H 	H 	0.9371	0.3123	0.5423	0.026
Mof_H 	H 	0.9586	0.273	0.6012	0.059
Mof_H 	H 	0.2396	0.9722	0.134	0.037
Mof_H 	H 	0.3123	0.9371	0.2083	0.025
Mof_H 	H 	0.273	0.9586	0.1672	0.057
Mof_H 	H 	0.134	0.6542	0.2396	0.032
Mof_H 	H 	0.2083	0.5423	0.3123	0.022
Mof_H 	H 	0.1672	0.6012	0.273	0.054
Mof_H 	H 	0.6542	0.134	0.9722	0.038
Mof_H 	H 	0.5423	0.2083	0.9371	0.025
Mof_H 	H 	0.6012	0.1672	0.9586	0.057
Mof_H 	H 	0.6542	0.2396	0.134	0.032
Mof_H 	H 	0.5423	0.3123	0.2083	0.022
Mof_H 	H 	0.6012	0.273	0.1672	0.054
Mof_H 	H 	0.134	0.9722	0.6542	0.038
Mof_H 	H 	0.2083	0.9371	0.5423	0.025
Mof_H 	H 	0.1672	0.9586	0.6012	0.057
Mof_H 	H 	0.2396	0.6542	0.9722	0.041
Mof_H 	H 	0.3123	0.5423	0.9371	0.026
Mof_H 	H 	0.273	0.6012	0.9586	0.059
Mof_H 	H 	0.9722	0.134	0.2396	0.037
Mof_H 	H 	0.9371	0.2083	0.3123	0.025
Mof_H 	H 	0.9586	0.1672	0.273	0.057
Mof_H 	H 	0.134	0.2396	0.9722	0.037
Mof_H 	H 	0.2083	0.3123	0.9371	0.025
Mof_H 	H 	0.1672	0.273	0.9586	0.057
Mof_H 	H 	0.6542	0.9722	0.2396	0.041
Mof_H 	H 	0.5423	0.9371	0.3123	0.026
Mof_H 	H 	0.6012	0.9586	0.273	0.059
Mof_H 	H 	0.9722	0.6542	0.134	0.038
Mof_H 	H 	0.9371	0.5423	0.2083	0.025
Mof_H 	H 	0.9586	0.6012	0.1672	0.057
Mof_H 	H 	0.2396	0.134	0.6542	0.032
Mof_H 	H 	0.3123	0.2083	0.5423	0.022
Mof_H 	H 	0.273	0.1672	0.6012	0.054
Mof_H 	H 	0.2396	0.9722	0.6542	0.041
Mof_H 	H 	0.3123	0.9371	0.5423	0.026
Mof_H 	H 	0.273	0.9586	0.6012	0.059
Mof_H 	H 	0.9722	0.2396	0.134	0.037
Mof_H 	H 	0.9371	0.3123	0.2083	0.025
Mof_H 	H 	0.9586	0.273	0.1672	0.057
Mof_H 	H 	0.6542	0.134	0.2396	0.032
Mof_H 	H 	0.5423	0.2083	0.3123	0.022
Mof_H 	H 	0.6012	0.1672	0.273	0.054
Mof_H 	H 	0.134	0.6542	0.9722	0.038
Mof_H 	H 	0.2083	0.5423	0.9371	0.025
Mof_H 	H 	0.1672	0.6012	0.9586	0.057
Mof_H 	H 	0.2396	0.6542	0.134	0.032
Mof_H 	H 	0.3123	0.5423	0.2083	0.022
Mof_H 	H 	0.273	0.6012	0.1672	0.054
Mof_H 	H 	0.9722	0.134	0.6542	0.038
Mof_H 	H 	0.9371	0.2083	0.5423	0.025
Mof_H 	H 	0.9586	0.1672	0.6012	0.057
Mof_H 	H 	0.6542	0.2396	0.9722	0.041
Mof_H 	H 	0.5423	0.3123	0.9371	0.026
Mof_H 	H 	0.6012	0.273	0.9586	0.059
Mof_H 	H 	0.134	0.9722	0.2396	0.037
Mof_H 	H 	0.2083	0.9371	0.3123	0.025
Mof_H 	H 	0.1672	0.9586	0.273	0.057
Mof_H 	H 	0.2396	0.134	0.9722	0.037
Mof_H 	H 	0.3123	0.2083	0.9371	0.025
Mof_H 	H 	0.273	0.1672	0.9586	0.057
Mof_H 	H 	0.9722	0.6542	0.2396	0.041
Mof_H 	H 	0.9371	0.5423	0.3123	0.026
Mof_H 	H 	0.9586	0.6012	0.273	0.059
Mof_H 	H 	0.6542	0.9722	0.134	0.038
Mof_H 	H 	0.5423	0.9371	0.2083	0.025
Mof_H 	H 	0.6012	0.9586	0.1672	0.057
Mof_H 	H 	0.134	0.2396	0.6542	0.032
Mof_H 	H 	0.2083	0.3123	0.5423	0.022
Mof_H 	H 	0.1672	0.273	0.6012	0.054
Mof_H 	H 	0.0278	0.7604	0.3458	0.033
Mof_H 	H 	0.0629	0.6877	0.4577	0.022
Mof_H 	H 	0.0414	0.727	0.3988	0.054
Mof_H 	H 	0.7604	0.0278	0.866	0.037
Mof_H 	H 	0.6877	0.0629	0.7917	0.024
Mof_H 	H 	0.727	0.0414	0.8328	0.056
Mof_H 	H 	0.866	0.3458	0.7604	0.041
Mof_H 	H 	0.7917	0.4577	0.6877	0.027
Mof_H 	H 	0.8328	0.3988	0.727	0.059
Mof_H 	H 	0.3458	0.866	0.0278	0.036
Mof_H 	H 	0.4577	0.7917	0.0629	0.024
Mof_H 	H 	0.3988	0.8328	0.0414	0.056
Mof_H 	H 	0.3458	0.7604	0.866	0.041
Mof_H 	H 	0.4577	0.6877	0.7917	0.027
Mof_H 	H 	0.3988	0.727	0.8328	0.059
Mof_H 	H 	0.866	0.0278	0.3458	0.036
Mof_H 	H 	0.7917	0.0629	0.4577	0.024
Mof_H 	H 	0.8328	0.0414	0.3988	0.056
Mof_H 	H 	0.7604	0.3458	0.0278	0.033
Mof_H 	H 	0.6877	0.4577	0.0629	0.022
Mof_H 	H 	0.727	0.3988	0.0414	0.054
Mof_H 	H 	0.0278	0.866	0.7604	0.037
Mof_H 	H 	0.0629	0.7917	0.6877	0.024
Mof_H 	H 	0.0414	0.8328	0.727	0.056
Mof_H 	H 	0.866	0.7604	0.0278	0.037
Mof_H 	H 	0.7917	0.6877	0.0629	0.024
Mof_H 	H 	0.8328	0.727	0.0414	0.056
Mof_H 	H 	0.3458	0.0278	0.7604	0.033
Mof_H 	H 	0.4577	0.0629	0.6877	0.022
Mof_H 	H 	0.3988	0.0414	0.727	0.054
Mof_H 	H 	0.0278	0.3458	0.866	0.036
Mof_H 	H 	0.0629	0.4577	0.7917	0.024
Mof_H 	H 	0.0414	0.3988	0.8328	0.056
Mof_H 	H 	0.7604	0.866	0.3458	0.041
Mof_H 	H 	0.6877	0.7917	0.4577	0.027
Mof_H 	H 	0.727	0.8328	0.3988	0.059
Mof_H 	H 	0.8687	0.0157	0.2469	0.041
Mof_H 	H 	0.0157	0.8687	0.8687	0.046
Mof_H 	H 	0.2469	0.8687	0.8687	0.051
Mof_H 	H 	0.8687	0.2469	0.0157	0.041
Mof_H 	H 	0.8687	0.2469	0.8687	0.051
Mof_H 	H 	0.0157	0.8687	0.2469	0.041
Mof_H 	H 	0.2469	0.8687	0.0157	0.041
Mof_H 	H 	0.8687	0.0157	0.8687	0.046
Mof_H 	H 	0.8687	0.8687	0.0157	0.046
Mof_H 	H 	0.0157	0.2469	0.8687	0.041
Mof_H 	H 	0.2469	0.0157	0.8687	0.041
Mof_H 	H 	0.8687	0.8687	0.2469	0.051
Mof_H 	H 	0.9843	0.1313	0.7531	0.049
Mof_H 	H 	0.1313	0.9843	0.1313	0.045
Mof_H 	H 	0.1313	0.7531	0.1313	0.038
Mof_H 	H 	0.7531	0.1313	0.9843	0.049
Mof_H 	H 	0.7531	0.1313	0.1313	0.038
Mof_H 	H 	0.1313	0.9843	0.7531	0.049
Mof_H 	H 	0.1313	0.7531	0.9843	0.049
Mof_H 	H 	0.9843	0.1313	0.1313	0.045
Mof_H 	H 	0.1313	0.1313	0.9843	0.045
Mof_H 	H 	0.7531	0.9843	0.1313	0.049
Mof_H 	H 	0.9843	0.7531	0.1313	0.049
Mof_H 	H 	0.1313	0.1313	0.7531	0.038
Mof_C 	C 	0.81158	0.02138	0.29302	-0.115
Mof_C 	C 	0.78937	0.02611	0.33229	0.012
Mof_C 	C 	0.7927	0.0175	0.2737	0.293
Mof_C 	C 	0.7174	0.0584	0.4458	-0.005
Mof_C 	C 	0.74058	0.04572	0.41068	-0.095
Mof_C 	C 	0.02138	0.81158	0.87402	-0.107
Mof_C 	C 	0.02611	0.78937	0.85223	0.008
Mof_C 	C 	0.0175	0.7927	0.9161	0.289
Mof_C 	C 	0.0584	0.7174	0.7784	-0.005
Mof_C 	C 	0.04572	0.74058	0.80302	-0.094
Mof_C 	C 	0.29302	0.87402	0.81158	-0.1
Mof_C 	C 	0.33229	0.85223	0.78937	0.006
Mof_C 	C 	0.2737	0.9161	0.7927	0.287
Mof_C 	C 	0.4458	0.7784	0.7174	-0.003
Mof_C 	C 	0.41068	0.80302	0.74058	-0.092
Mof_C 	C 	0.87402	0.29302	0.02138	-0.112
Mof_C 	C 	0.85223	0.33229	0.02611	0.011
Mof_C 	C 	0.9161	0.2737	0.0175	0.29
Mof_C 	C 	0.7784	0.4458	0.0584	-0.005
Mof_C 	C 	0.80302	0.41068	0.04572	-0.095
Mof_C 	C 	0.81158	0.29302	0.87402	-0.1
Mof_C 	C 	0.78937	0.33229	0.85223	0.006
Mof_C 	C 	0.7927	0.2737	0.9161	0.287
Mof_C 	C 	0.7174	0.4458	0.7784	-0.003
Mof_C 	C 	0.74058	0.41068	0.80302	-0.092
Mof_C 	C 	0.02138	0.87402	0.29302	-0.112
Mof_C 	C 	0.02611	0.85223	0.33229	0.011
Mof_C 	C 	0.0175	0.9161	0.2737	0.29
Mof_C 	C 	0.0584	0.7784	0.4458	-0.005
Mof_C 	C 	0.04572	0.80302	0.41068	-0.095
Mof_C 	C 	0.29302	0.81158	0.02138	-0.115
Mof_C 	C 	0.33229	0.78937	0.02611	0.012
Mof_C 	C 	0.2737	0.7927	0.0175	0.293
Mof_C 	C 	0.4458	0.7174	0.0584	-0.005
Mof_C 	C 	0.41068	0.74058	0.04572	-0.095
Mof_C 	C 	0.87402	0.02138	0.81158	-0.107
Mof_C 	C 	0.85223	0.02611	0.78937	0.008
Mof_C 	C 	0.9161	0.0175	0.7927	0.289
Mof_C 	C 	0.7784	0.0584	0.7174	-0.005
Mof_C 	C 	0.80302	0.04572	0.74058	-0.094
Mof_C 	C 	0.81158	0.87402	0.02138	-0.107
Mof_C 	C 	0.78937	0.85223	0.02611	0.008
Mof_C 	C 	0.7927	0.9161	0.0175	0.289
Mof_C 	C 	0.7174	0.7784	0.0584	-0.005
Mof_C 	C 	0.74058	0.80302	0.04572	-0.094
Mof_C 	C 	0.02138	0.29302	0.81158	-0.115
Mof_C 	C 	0.02611	0.33229	0.78937	0.012
Mof_C 	C 	0.0175	0.2737	0.7927	0.293
Mof_C 	C 	0.0584	0.4458	0.7174	-0.005
Mof_C 	C 	0.04572	0.41068	0.74058	-0.095
Mof_C 	C 	0.29302	0.02138	0.87402	-0.112
Mof_C 	C 	0.33229	0.02611	0.85223	0.011
Mof_C 	C 	0.2737	0.0175	0.9161	0.29
Mof_C 	C 	0.4458	0.0584	0.7784	-0.005
Mof_C 	C 	0.41068	0.04572	0.80302	-0.095
Mof_C 	C 	0.87402	0.81158	0.29302	-0.1
Mof_C 	C 	0.85223	0.78937	0.33229	0.006
Mof_C 	C 	0.9161	0.7927	0.2737	0.287
Mof_C 	C 	0.7784	0.7174	0.4458	-0.003
Mof_C 	C 	0.80302	0.74058	0.41068	-0.092
Mof_C 	C 	0.97862	0.18842	0.70698	-0.102
Mof_C 	C 	0.97389	0.21063	0.66771	0.007
Mof_C 	C 	0.9825	0.2073	0.7263	0.288
Mof_C 	C 	0.9416	0.2826	0.5542	-0.003
Mof_C 	C 	0.95428	0.25942	0.58932	-0.092
Mof_C 	C 	0.18842	0.97862	0.12598	-0.108
Mof_C 	C 	0.21063	0.97389	0.14777	0.009
Mof_C 	C 	0.2073	0.9825	0.0839	0.289
Mof_C 	C 	0.2826	0.9416	0.2216	-0.004
Mof_C 	C 	0.25942	0.95428	0.19698	-0.093
Mof_C 	C 	0.12598	0.70698	0.18842	-0.119
Mof_C 	C 	0.14777	0.66771	0.21063	0.014
Mof_C 	C 	0.0839	0.7263	0.2073	0.294
Mof_C 	C 	0.2216	0.5542	0.2826	-0.006
Mof_C 	C 	0.19698	0.58932	0.25942	-0.096
Mof_C 	C 	0.70698	0.12598	0.97862	-0.104
Mof_C 	C 	0.66771	0.14777	0.97389	0.007
Mof_C 	C 	0.7263	0.0839	0.9825	0.288
Mof_C 	C 	0.5542	0.2216	0.9416	-0.004
Mof_C 	C 	0.58932	0.19698	0.95428	-0.093
Mof_C 	C 	0.70698	0.18842	0.12598	-0.119
Mof_C 	C 	0.66771	0.21063	0.14777	0.014
Mof_C 	C 	0.7263	0.2073	0.0839	0.294
Mof_C 	C 	0.5542	0.2826	0.2216	-0.006
Mof_C 	C 	0.58932	0.25942	0.19698	-0.096
Mof_C 	C 	0.12598	0.97862	0.70698	-0.104
Mof_C 	C 	0.14777	0.97389	0.66771	0.007
Mof_C 	C 	0.0839	0.9825	0.7263	0.288
Mof_C 	C 	0.2216	0.9416	0.5542	-0.004
Mof_C 	C 	0.19698	0.95428	0.58932	-0.093
Mof_C 	C 	0.18842	0.70698	0.97862	-0.102
Mof_C 	C 	0.21063	0.66771	0.97389	0.007
Mof_C 	C 	0.2073	0.7263	0.9825	0.288
Mof_C 	C 	0.2826	0.5542	0.9416	-0.003
Mof_C 	C 	0.25942	0.58932	0.95428	-0.092
Mof_C 	C 	0.97862	0.12598	0.18842	-0.108
Mof_C 	C 	0.97389	0.14777	0.21063	0.009
Mof_C 	C 	0.9825	0.0839	0.2073	0.289
Mof_C 	C 	0.9416	0.2216	0.2826	-0.004
Mof_C 	C 	0.95428	0.19698	0.25942	-0.093
Mof_C 	C 	0.12598	0.18842	0.97862	-0.108
Mof_C 	C 	0.14777	0.21063	0.97389	0.009
Mof_C 	C 	0.0839	0.2073	0.9825	0.289
Mof_C 	C 	0.2216	0.2826	0.9416	-0.004
Mof_C 	C 	0.19698	0.25942	0.95428	-0.093
Mof_C 	C 	0.70698	0.97862	0.18842	-0.102
Mof_C 	C 	0.66771	0.97389	0.21063	0.007
Mof_C 	C 	0.7263	0.9825	0.2073	0.288
Mof_C 	C 	0.5542	0.9416	0.2826	-0.003
Mof_C 	C 	0.58932	0.95428	0.25942	-0.092
Mof_C 	C 	0.97862	0.70698	0.12598	-0.104
Mof_C 	C 	0.97389	0.66771	0.14777	0.007
Mof_C 	C 	0.9825	0.7263	0.0839	0.288
Mof_C 	C 	0.9416	0.5542	0.2216	-0.004
Mof_C 	C 	0.95428	0.58932	0.19698	-0.093
Mof_C 	C 	0.18842	0.12598	0.70698	-0.119
Mof_C 	C 	0.21063	0.14777	0.66771	0.014
Mof_C 	C 	0.2073	0.0839	0.7263	0.294
Mof_C 	C 	0.2826	0.2216	0.5542	-0.006
Mof_C 	C 	0.25942	0.19698	0.58932	-0.096
Mof_C 	C 	0.18842	0.97862	0.70698	-0.102
Mof_C 	C 	0.21063	0.97389	0.66771	0.007
Mof_C 	C 	0.2073	0.9825	0.7263	0.288
Mof_C 	C 	0.2826	0.9416	0.5542	-0.003
Mof_C 	C 	0.25942	0.95428	0.58932	-0.092
Mof_C 	C 	0.97862	0.18842	0.12598	-0.108
Mof_C 	C 	0.97389	0.21063	0.14777	0.009
Mof_C 	C 	0.9825	0.2073	0.0839	0.289
Mof_C 	C 	0.9416	0.2826	0.2216	-0.004
Mof_C 	C 	0.95428	0.25942	0.19698	-0.093
Mof_C 	C 	0.70698	0.12598	0.18842	-0.119
Mof_C 	C 	0.66771	0.14777	0.21063	0.014
Mof_C 	C 	0.7263	0.0839	0.2073	0.294
Mof_C 	C 	0.5542	0.2216	0.2826	-0.006
Mof_C 	C 	0.58932	0.19698	0.25942	-0.096
Mof_C 	C 	0.12598	0.70698	0.97862	-0.104
Mof_C 	C 	0.14777	0.66771	0.97389	0.007
Mof_C 	C 	0.0839	0.7263	0.9825	0.288
Mof_C 	C 	0.2216	0.5542	0.9416	-0.004
Mof_C 	C 	0.19698	0.58932	0.95428	-0.093
Mof_C 	C 	0.18842	0.70698	0.12598	-0.119
Mof_C 	C 	0.21063	0.66771	0.14777	0.014
Mof_C 	C 	0.2073	0.7263	0.0839	0.294
Mof_C 	C 	0.2826	0.5542	0.2216	-0.006
Mof_C 	C 	0.25942	0.58932	0.19698	-0.096
Mof_C 	C 	0.97862	0.12598	0.70698	-0.104
Mof_C 	C 	0.97389	0.14777	0.66771	0.007
Mof_C 	C 	0.9825	0.0839	0.7263	0.288
Mof_C 	C 	0.9416	0.2216	0.5542	-0.004
Mof_C 	C 	0.95428	0.19698	0.58932	-0.093
Mof_C 	C 	0.70698	0.18842	0.97862	-0.102
Mof_C 	C 	0.66771	0.21063	0.97389	0.007
Mof_C 	C 	0.7263	0.2073	0.9825	0.288
Mof_C 	C 	0.5542	0.2826	0.9416	-0.003
Mof_C 	C 	0.58932	0.25942	0.95428	-0.092
Mof_C 	C 	0.12598	0.97862	0.18842	-0.108
Mof_C 	C 	0.14777	0.97389	0.21063	0.009
Mof_C 	C 	0.0839	0.9825	0.2073	0.289
Mof_C 	C 	0.2216	0.9416	0.2826	-0.004
Mof_C 	C 	0.19698	0.95428	0.25942	-0.093
Mof_C 	C 	0.18842	0.12598	0.97862	-0.108
Mof_C 	C 	0.21063	0.14777	0.97389	0.009
Mof_C 	C 	0.2073	0.0839	0.9825	0.289
Mof_C 	C 	0.2826	0.2216	0.9416	-0.004
Mof_C 	C 	0.25942	0.19698	0.95428	-0.093
Mof_C 	C 	0.97862	0.70698	0.18842	-0.102
Mof_C 	C 	0.97389	0.66771	0.21063	0.007
Mof_C 	C 	0.9825	0.7263	0.2073	0.288
Mof_C 	C 	0.9416	0.5542	0.2826	-0.003
Mof_C 	C 	0.95428	0.58932	0.25942	-0.092
Mof_C 	C 	0.70698	0.97862	0.12598	-0.104
Mof_C 	C 	0.66771	0.97389	0.14777	0.007
Mof_C 	C 	0.7263	0.9825	0.0839	0.288
Mof_C 	C 	0.5542	0.9416	0.2216	-0.004
Mof_C 	C 	0.58932	0.95428	0.19698	-0.093
Mof_C 	C 	0.12598	0.18842	0.70698	-0.119
Mof_C 	C 	0.14777	0.21063	0.66771	0.014
Mof_C 	C 	0.0839	0.2073	0.7263	0.294
Mof_C 	C 	0.2216	0.2826	0.5542	-0.006
Mof_C 	C 	0.19698	0.25942	0.58932	-0.096
Mof_C 	C 	0.02138	0.81158	0.29302	-0.115
Mof_C 	C 	0.02611	0.78937	0.33229	0.012
Mof_C 	C 	0.0175	0.7927	0.2737	0.293
Mof_C 	C 	0.0584	0.7174	0.4458	-0.005
Mof_C 	C 	0.04572	0.74058	0.41068	-0.095
Mof_C 	C 	0.81158	0.02138	0.87402	-0.107
Mof_C 	C 	0.78937	0.02611	0.85223	0.008
Mof_C 	C 	0.7927	0.0175	0.9161	0.289
Mof_C 	C 	0.7174	0.0584	0.7784	-0.005
Mof_C 	C 	0.74058	0.04572	0.80302	-0.094
Mof_C 	C 	0.87402	0.29302	0.81158	-0.1
Mof_C 	C 	0.85223	0.33229	0.78937	0.006
Mof_C 	C 	0.9161	0.2737	0.7927	0.287
Mof_C 	C 	0.7784	0.4458	0.7174	-0.003
Mof_C 	C 	0.80302	0.41068	0.74058	-0.092
Mof_C 	C 	0.29302	0.87402	0.02138	-0.112
Mof_C 	C 	0.33229	0.85223	0.02611	0.011
Mof_C 	C 	0.2737	0.9161	0.0175	0.29
Mof_C 	C 	0.4458	0.7784	0.0584	-0.005
Mof_C 	C 	0.41068	0.80302	0.04572	-0.095
Mof_C 	C 	0.29302	0.81158	0.87402	-0.1
Mof_C 	C 	0.33229	0.78937	0.85223	0.006
Mof_C 	C 	0.2737	0.7927	0.9161	0.287
Mof_C 	C 	0.4458	0.7174	0.7784	-0.003
Mof_C 	C 	0.41068	0.74058	0.80302	-0.092
Mof_C 	C 	0.87402	0.02138	0.29302	-0.112
Mof_C 	C 	0.85223	0.02611	0.33229	0.011
Mof_C 	C 	0.9161	0.0175	0.2737	0.29
Mof_C 	C 	0.7784	0.0584	0.4458	-0.005
Mof_C 	C 	0.80302	0.04572	0.41068	-0.095
Mof_C 	C 	0.81158	0.29302	0.02138	-0.115
Mof_C 	C 	0.78937	0.33229	0.02611	0.012
Mof_C 	C 	0.7927	0.2737	0.0175	0.293
Mof_C 	C 	0.7174	0.4458	0.0584	-0.005
Mof_C 	C 	0.74058	0.41068	0.04572	-0.095
Mof_C 	C 	0.02138	0.87402	0.81158	-0.107
Mof_C 	C 	0.02611	0.85223	0.78937	0.008
Mof_C 	C 	0.0175	0.9161	0.7927	0.289
Mof_C 	C 	0.0584	0.7784	0.7174	-0.005
Mof_C 	C 	0.04572	0.80302	0.74058	-0.094
Mof_C 	C 	0.87402	0.81158	0.02138	-0.107
Mof_C 	C 	0.85223	0.78937	0.02611	0.008
Mof_C 	C 	0.9161	0.7927	0.0175	0.289
Mof_C 	C 	0.7784	0.7174	0.0584	-0.005
Mof_C 	C 	0.80302	0.74058	0.04572	-0.094
Mof_C 	C 	0.29302	0.02138	0.81158	-0.115
Mof_C 	C 	0.33229	0.02611	0.78937	0.012
Mof_C 	C 	0.2737	0.0175	0.7927	0.293
Mof_C 	C 	0.4458	0.0584	0.7174	-0.005
Mof_C 	C 	0.41068	0.04572	0.74058	-0.095
Mof_C 	C 	0.02138	0.29302	0.87402	-0.112
Mof_C 	C 	0.02611	0.33229	0.85223	0.011
Mof_C 	C 	0.0175	0.2737	0.9161	0.29
Mof_C 	C 	0.0584	0.4458	0.7784	-0.005
Mof_C 	C 	0.04572	0.41068	0.80302	-0.095
Mof_C 	C 	0.81158	0.87402	0.29302	-0.1
Mof_C 	C 	0.78937	0.85223	0.33229	0.006
Mof_C 	C 	0.7927	0.9161	0.2737	0.287
Mof_C 	C 	0.7174	0.7784	0.4458	-0.003
Mof_C 	C 	0.74058	0.80302	0.41068	-0.092
Mof_C 	C 	0.8534	0.0192	0.274	0.052
Mof_C 	C 	0.7354	0.065	0.4642	-0.055
Mof_C 	C 	0.7844	0.039	0.3922	0.049
Mof_C 	C 	0.8097	0.0283	0.3523	-0.035
Mof_C 	C 	0.7168	0.0608	0.5056	0.098
Mof_C 	C 	0.0192	0.8534	0.8534	0.048
Mof_C 	C 	0.065	0.7354	0.7354	-0.054
Mof_C 	C 	0.039	0.7844	0.7844	0.049
Mof_C 	C 	0.0283	0.8097	0.8097	-0.031
Mof_C 	C 	0.0608	0.7168	0.7168	0.098
Mof_C 	C 	0.274	0.8534	0.8534	0.045
Mof_C 	C 	0.4642	0.7354	0.7354	-0.054
Mof_C 	C 	0.3922	0.7844	0.7844	0.051
Mof_C 	C 	0.3523	0.8097	0.8097	-0.025
Mof_C 	C 	0.5056	0.7168	0.7168	0.102
Mof_C 	C 	0.8534	0.274	0.0192	0.052
Mof_C 	C 	0.7354	0.4642	0.065	-0.055
Mof_C 	C 	0.7844	0.3922	0.039	0.049
Mof_C 	C 	0.8097	0.3523	0.0283	-0.035
Mof_C 	C 	0.7168	0.5056	0.0608	0.098
Mof_C 	C 	0.8534	0.274	0.8534	0.045
Mof_C 	C 	0.7354	0.4642	0.7354	-0.054
Mof_C 	C 	0.7844	0.3922	0.7844	0.051
Mof_C 	C 	0.8097	0.3523	0.8097	-0.025
Mof_C 	C 	0.7168	0.5056	0.7168	0.102
Mof_C 	C 	0.0192	0.8534	0.274	0.052
Mof_C 	C 	0.065	0.7354	0.4642	-0.055
Mof_C 	C 	0.039	0.7844	0.3922	0.049
Mof_C 	C 	0.0283	0.8097	0.3523	-0.035
Mof_C 	C 	0.0608	0.7168	0.5056	0.098
Mof_C 	C 	0.274	0.8534	0.0192	0.052
Mof_C 	C 	0.4642	0.7354	0.065	-0.055
Mof_C 	C 	0.3922	0.7844	0.039	0.049
Mof_C 	C 	0.3523	0.8097	0.0283	-0.035
Mof_C 	C 	0.5056	0.7168	0.0608	0.098
Mof_C 	C 	0.8534	0.0192	0.8534	0.048
Mof_C 	C 	0.7354	0.065	0.7354	-0.054
Mof_C 	C 	0.7844	0.039	0.7844	0.049
Mof_C 	C 	0.8097	0.0283	0.8097	-0.031
Mof_C 	C 	0.7168	0.0608	0.7168	0.098
Mof_C 	C 	0.8534	0.8534	0.0192	0.048
Mof_C 	C 	0.7354	0.7354	0.065	-0.054
Mof_C 	C 	0.7844	0.7844	0.039	0.049
Mof_C 	C 	0.8097	0.8097	0.0283	-0.031
Mof_C 	C 	0.7168	0.7168	0.0608	0.098
Mof_C 	C 	0.0192	0.274	0.8534	0.052
Mof_C 	C 	0.065	0.4642	0.7354	-0.055
Mof_C 	C 	0.039	0.3922	0.7844	0.049
Mof_C 	C 	0.0283	0.3523	0.8097	-0.035
Mof_C 	C 	0.0608	0.5056	0.7168	0.098
Mof_C 	C 	0.274	0.0192	0.8534	0.052
Mof_C 	C 	0.4642	0.065	0.7354	-0.055
Mof_C 	C 	0.3922	0.039	0.7844	0.049
Mof_C 	C 	0.3523	0.0283	0.8097	-0.035
Mof_C 	C 	0.5056	0.0608	0.7168	0.098
Mof_C 	C 	0.8534	0.8534	0.274	0.045
Mof_C 	C 	0.7354	0.7354	0.4642	-0.054
Mof_C 	C 	0.7844	0.7844	0.3922	0.051
Mof_C 	C 	0.8097	0.8097	0.3523	-0.025
Mof_C 	C 	0.7168	0.7168	0.5056	0.102
Mof_C 	C 	0.9808	0.1466	0.726	0.046
Mof_C 	C 	0.935	0.2646	0.5358	-0.054
Mof_C 	C 	0.961	0.2156	0.6078	0.05
Mof_C 	C 	0.9717	0.1903	0.6477	-0.028
Mof_C 	C 	0.9392	0.2832	0.4944	0.101
Mof_C 	C 	0.1466	0.9808	0.1466	0.049
Mof_C 	C 	0.2646	0.935	0.2646	-0.055
Mof_C 	C 	0.2156	0.961	0.2156	0.05
Mof_C 	C 	0.1903	0.9717	0.1903	-0.031
Mof_C 	C 	0.2832	0.9392	0.2832	0.1
Mof_C 	C 	0.1466	0.726	0.1466	0.055
Mof_C 	C 	0.2646	0.5358	0.2646	-0.055
Mof_C 	C 	0.2156	0.6078	0.2156	0.049
Mof_C 	C 	0.1903	0.6477	0.1903	-0.039
Mof_C 	C 	0.2832	0.4944	0.2832	0.096
Mof_C 	C 	0.726	0.1466	0.9808	0.046
Mof_C 	C 	0.5358	0.2646	0.935	-0.054
Mof_C 	C 	0.6078	0.2156	0.961	0.05
Mof_C 	C 	0.6477	0.1903	0.9717	-0.028
Mof_C 	C 	0.4944	0.2832	0.9392	0.101
Mof_C 	C 	0.726	0.1466	0.1466	0.055
Mof_C 	C 	0.5358	0.2646	0.2646	-0.055
Mof_C 	C 	0.6078	0.2156	0.2156	0.049
Mof_C 	C 	0.6477	0.1903	0.1903	-0.039
Mof_C 	C 	0.4944	0.2832	0.2832	0.096
Mof_C 	C 	0.1466	0.9808	0.726	0.046
Mof_C 	C 	0.2646	0.935	0.5358	-0.054
Mof_C 	C 	0.2156	0.961	0.6078	0.05
Mof_C 	C 	0.1903	0.9717	0.6477	-0.028
Mof_C 	C 	0.2832	0.9392	0.4944	0.101
Mof_C 	C 	0.1466	0.726	0.9808	0.046
Mof_C 	C 	0.2646	0.5358	0.935	-0.054
Mof_C 	C 	0.2156	0.6078	0.961	0.05
Mof_C 	C 	0.1903	0.6477	0.9717	-0.028
Mof_C 	C 	0.2832	0.4944	0.9392	0.101
Mof_C 	C 	0.9808	0.1466	0.1466	0.049
Mof_C 	C 	0.935	0.2646	0.2646	-0.055
Mof_C 	C 	0.961	0.2156	0.2156	0.05
Mof_C 	C 	0.9717	0.1903	0.1903	-0.031
Mof_C 	C 	0.9392	0.2832	0.2832	0.1
Mof_C 	C 	0.1466	0.1466	0.9808	0.049
Mof_C 	C 	0.2646	0.2646	0.935	-0.055
Mof_C 	C 	0.2156	0.2156	0.961	0.05
Mof_C 	C 	0.1903	0.1903	0.9717	-0.031
Mof_C 	C 	0.2832	0.2832	0.9392	0.1
Mof_C 	C 	0.726	0.9808	0.1466	0.046
Mof_C 	C 	0.5358	0.935	0.2646	-0.054
Mof_C 	C 	0.6078	0.961	0.2156	0.05
Mof_C 	C 	0.6477	0.9717	0.1903	-0.028
Mof_C 	C 	0.4944	0.9392	0.2832	0.101
Mof_C 	C 	0.9808	0.726	0.1466	0.046
Mof_C 	C 	0.935	0.5358	0.2646	-0.054
Mof_C 	C 	0.961	0.6078	0.2156	0.05
Mof_C 	C 	0.9717	0.6477	0.1903	-0.028
Mof_C 	C 	0.9392	0.4944	0.2832	0.101
Mof_C 	C 	0.1466	0.1466	0.726	0.055
Mof_C 	C 	0.2646	0.2646	0.5358	-0.055
Mof_C 	C 	0.2156	0.2156	0.6078	0.049
Mof_C 	C 	0.1903	0.1903	0.6477	-0.039
Mof_C 	C 	0.2832	0.2832	0.4944	0.096
Mof_N 	N 	0.6747	0.0645	0.5301	-0.112
Mof_N 	N 	0.6667	0.0681	0.5637	-0.183
Mof_N 	N 	0.0645	0.6747	0.7307	-0.111
Mof_N 	N 	0.0681	0.6667	0.7015	-0.182
Mof_N 	N 	0.5301	0.7307	0.6747	-0.109
Mof_N 	N 	0.5637	0.7015	0.6667	-0.18
Mof_N 	N 	0.7307	0.5301	0.0645	-0.111
Mof_N 	N 	0.7015	0.5637	0.0681	-0.182
Mof_N 	N 	0.6747	0.5301	0.7307	-0.109
Mof_N 	N 	0.6667	0.5637	0.7015	-0.18
Mof_N 	N 	0.0645	0.7307	0.5301	-0.111
Mof_N 	N 	0.0681	0.7015	0.5637	-0.182
Mof_N 	N 	0.5301	0.6747	0.0645	-0.112
Mof_N 	N 	0.5637	0.6667	0.0681	-0.183
Mof_N 	N 	0.7307	0.0645	0.6747	-0.111
Mof_N 	N 	0.7015	0.0681	0.6667	-0.182
Mof_N 	N 	0.6747	0.7307	0.0645	-0.111
Mof_N 	N 	0.6667	0.7015	0.0681	-0.182
Mof_N 	N 	0.0645	0.5301	0.6747	-0.112
Mof_N 	N 	0.0681	0.5637	0.6667	-0.183
Mof_N 	N 	0.5301	0.0645	0.7307	-0.111
Mof_N 	N 	0.5637	0.0681	0.7015	-0.182
Mof_N 	N 	0.7307	0.6747	0.5301	-0.109
Mof_N 	N 	0.7015	0.6667	0.5637	-0.18
Mof_N 	N 	0.9355	0.3253	0.4699	-0.109
Mof_N 	N 	0.9319	0.3333	0.4363	-0.181
Mof_N 	N 	0.3253	0.9355	0.2693	-0.11
Mof_N 	N 	0.3333	0.9319	0.2985	-0.181
Mof_N 	N 	0.2693	0.4699	0.3253	-0.113
Mof_N 	N 	0.2985	0.4363	0.3333	-0.183
Mof_N 	N 	0.4699	0.2693	0.9355	-0.11
Mof_N 	N 	0.4363	0.2985	0.9319	-0.181
Mof_N 	N 	0.4699	0.3253	0.2693	-0.113
Mof_N 	N 	0.4363	0.3333	0.2985	-0.183
Mof_N 	N 	0.2693	0.9355	0.4699	-0.11
Mof_N 	N 	0.2985	0.9319	0.4363	-0.181
Mof_N 	N 	0.3253	0.4699	0.9355	-0.109
Mof_N 	N 	0.3333	0.4363	0.9319	-0.181
Mof_N 	N 	0.9355	0.2693	0.3253	-0.11
Mof_N 	N 	0.9319	0.2985	0.3333	-0.181
Mof_N 	N 	0.2693	0.3253	0.9355	-0.11
Mof_N 	N 	0.2985	0.3333	0.9319	-0.181
Mof_N 	N 	0.4699	0.9355	0.3253	-0.109
Mof_N 	N 	0.4363	0.9319	0.3333	-0.181
Mof_N 	N 	0.9355	0.4699	0.2693	-0.11
Mof_N 	N 	0.9319	0.4363	0.2985	-0.181
Mof_N 	N 	0.3253	0.2693	0.4699	-0.113
Mof_N 	N 	0.3333	0.2985	0.4363	-0.183
Mof_N 	N 	0.3253	0.9355	0.4699	-0.109
Mof_N 	N 	0.3333	0.9319	0.4363	-0.181
Mof_N 	N 	0.9355	0.3253	0.2693	-0.11
Mof_N 	N 	0.9319	0.3333	0.2985	-0.181
Mof_N 	N 	0.4699	0.2693	0.3253	-0.113
Mof_N 	N 	0.4363	0.2985	0.3333	-0.183
Mof_N 	N 	0.2693	0.4699	0.9355	-0.11
Mof_N 	N 	0.2985	0.4363	0.9319	-0.181
Mof_N 	N 	0.3253	0.4699	0.2693	-0.113
Mof_N 	N 	0.3333	0.4363	0.2985	-0.183
Mof_N 	N 	0.9355	0.2693	0.4699	-0.11
Mof_N 	N 	0.9319	0.2985	0.4363	-0.181
Mof_N 	N 	0.4699	0.3253	0.9355	-0.109
Mof_N 	N 	0.4363	0.3333	0.9319	-0.181
Mof_N 	N 	0.2693	0.9355	0.3253	-0.11
Mof_N 	N 	0.2985	0.9319	0.3333	-0.181
Mof_N 	N 	0.3253	0.2693	0.9355	-0.11
Mof_N 	N 	0.3333	0.2985	0.9319	-0.181
Mof_N 	N 	0.9355	0.4699	0.3253	-0.109
Mof_N 	N 	0.9319	0.4363	0.3333	-0.181
Mof_N 	N 	0.4699	0.9355	0.2693	-0.11
Mof_N 	N 	0.4363	0.9319	0.2985	-0.181
Mof_N 	N 	0.2693	0.3253	0.4699	-0.113
Mof_N 	N 	0.2985	0.3333	0.4363	-0.183
Mof_N 	N 	0.0645	0.6747	0.5301	-0.112
Mof_N 	N 	0.0681	0.6667	0.5637	-0.183
Mof_N 	N 	0.6747	0.0645	0.7307	-0.111
Mof_N 	N 	0.6667	0.0681	0.7015	-0.182
Mof_N 	N 	0.7307	0.5301	0.6747	-0.109
Mof_N 	N 	0.7015	0.5637	0.6667	-0.18
Mof_N 	N 	0.5301	0.7307	0.0645	-0.111
Mof_N 	N 	0.5637	0.7015	0.0681	-0.182
Mof_N 	N 	0.5301	0.6747	0.7307	-0.109
Mof_N 	N 	0.5637	0.6667	0.7015	-0.18
Mof_N 	N 	0.7307	0.0645	0.5301	-0.111
Mof_N 	N 	0.7015	0.0681	0.5637	-0.182
Mof_N 	N 	0.6747	0.5301	0.0645	-0.112
Mof_N 	N 	0.6667	0.5637	0.0681	-0.183
Mof_N 	N 	0.0645	0.7307	0.6747	-0.111
Mof_N 	N 	0.0681	0.7015	0.6667	-0.182
Mof_N 	N 	0.7307	0.6747	0.0645	-0.111
Mof_N 	N 	0.7015	0.6667	0.0681	-0.182
Mof_N 	N 	0.5301	0.0645	0.6747	-0.112
Mof_N 	N 	0.5637	0.0681	0.6667	-0.183
Mof_N 	N 	0.0645	0.5301	0.7307	-0.111
Mof_N 	N 	0.0681	0.5637	0.7015	-0.182
Mof_N 	N 	0.6747	0.7307	0.5301	-0.109
Mof_N 	N 	0.6667	0.7015	0.5637	-0.18
Mof_O 	O 	0.75669	0.00951	0.29481	-0.387
Mof_O 	O 	0.81456	0.01086	0.23354	-0.373
Mof_O 	O 	0.00951	0.75669	0.93899	-0.369
Mof_O 	O 	0.01086	0.81456	0.94104	-0.355
Mof_O 	O 	0.29481	0.93899	0.75669	-0.359
Mof_O 	O 	0.23354	0.94104	0.81456	-0.346
Mof_O 	O 	0.93899	0.29481	0.00951	-0.37
Mof_O 	O 	0.94104	0.23354	0.01086	-0.358
Mof_O 	O 	0.75669	0.29481	0.93899	-0.359
Mof_O 	O 	0.81456	0.23354	0.94104	-0.346
Mof_O 	O 	0.00951	0.93899	0.29481	-0.37
Mof_O 	O 	0.01086	0.94104	0.23354	-0.358
Mof_O 	O 	0.29481	0.75669	0.00951	-0.387
Mof_O 	O 	0.23354	0.81456	0.01086	-0.373
Mof_O 	O 	0.93899	0.00951	0.75669	-0.369
Mof_O 	O 	0.94104	0.01086	0.81456	-0.355
Mof_O 	O 	0.75669	0.93899	0.00951	-0.369
Mof_O 	O 	0.81456	0.94104	0.01086	-0.355
Mof_O 	O 	0.00951	0.29481	0.75669	-0.387
Mof_O 	O 	0.01086	0.23354	0.81456	-0.373
Mof_O 	O 	0.29481	0.00951	0.93899	-0.37
Mof_O 	O 	0.23354	0.01086	0.94104	-0.358
Mof_O 	O 	0.93899	0.75669	0.29481	-0.359
Mof_O 	O 	0.94104	0.81456	0.23354	-0.346
Mof_O 	O 	0.99049	0.24331	0.70519	-0.359
Mof_O 	O 	0.98914	0.18544	0.76646	-0.347
Mof_O 	O 	0.24331	0.99049	0.06101	-0.368
Mof_O 	O 	0.18544	0.98914	0.05896	-0.356
Mof_O 	O 	0.06101	0.70519	0.24331	-0.387
Mof_O 	O 	0.05896	0.76646	0.18544	-0.374
Mof_O 	O 	0.70519	0.06101	0.99049	-0.368
Mof_O 	O 	0.76646	0.05896	0.98914	-0.353
Mof_O 	O 	0.70519	0.24331	0.06101	-0.387
Mof_O 	O 	0.76646	0.18544	0.05896	-0.374
Mof_O 	O 	0.06101	0.99049	0.70519	-0.368
Mof_O 	O 	0.05896	0.98914	0.76646	-0.353
Mof_O 	O 	0.24331	0.70519	0.99049	-0.359
Mof_O 	O 	0.18544	0.76646	0.98914	-0.347
Mof_O 	O 	0.99049	0.06101	0.24331	-0.368
Mof_O 	O 	0.98914	0.05896	0.18544	-0.356
Mof_O 	O 	0.06101	0.24331	0.99049	-0.368
Mof_O 	O 	0.05896	0.18544	0.98914	-0.356
Mof_O 	O 	0.70519	0.99049	0.24331	-0.359
Mof_O 	O 	0.76646	0.98914	0.18544	-0.347
Mof_O 	O 	0.99049	0.70519	0.06101	-0.368
Mof_O 	O 	0.98914	0.76646	0.05896	-0.353
Mof_O 	O 	0.24331	0.06101	0.70519	-0.387
Mof_O 	O 	0.18544	0.05896	0.76646	-0.374
Mof_O 	O 	0.24331	0.99049	0.70519	-0.359
Mof_O 	O 	0.18544	0.98914	0.76646	-0.347
Mof_O 	O 	0.99049	0.24331	0.06101	-0.368
Mof_O 	O 	0.98914	0.18544	0.05896	-0.356
Mof_O 	O 	0.70519	0.06101	0.24331	-0.387
Mof_O 	O 	0.76646	0.05896	0.18544	-0.374
Mof_O 	O 	0.06101	0.70519	0.99049	-0.368
Mof_O 	O 	0.05896	0.76646	0.98914	-0.353
Mof_O 	O 	0.24331	0.70519	0.06101	-0.387
Mof_O 	O 	0.18544	0.76646	0.05896	-0.374
Mof_O 	O 	0.99049	0.06101	0.70519	-0.368
Mof_O 	O 	0.98914	0.05896	0.76646	-0.353
Mof_O 	O 	0.70519	0.24331	0.99049	-0.359
Mof_O 	O 	0.76646	0.18544	0.98914	-0.347
Mof_O 	O 	0.06101	0.99049	0.24331	-0.368
Mof_O 	O 	0.05896	0.98914	0.18544	-0.356
Mof_O 	O 	0.24331	0.06101	0.99049	-0.368
Mof_O 	O 	0.18544	0.05896	0.98914	-0.356
Mof_O 	O 	0.99049	0.70519	0.24331	-0.359
Mof_O 	O 	0.98914	0.76646	0.18544	-0.347
Mof_O 	O 	0.70519	0.99049	0.06101	-0.368
Mof_O 	O 	0.76646	0.98914	0.05896	-0.353
Mof_O 	O 	0.06101	0.24331	0.70519	-0.387
Mof_O 	O 	0.05896	0.18544	0.76646	-0.374
Mof_O 	O 	0.00951	0.75669	0.29481	-0.387
Mof_O 	O 	0.01086	0.81456	0.23354	-0.373
Mof_O 	O 	0.75669	0.00951	0.93899	-0.369
Mof_O 	O 	0.81456	0.01086	0.94104	-0.355
Mof_O 	O 	0.93899	0.29481	0.75669	-0.359
Mof_O 	O 	0.94104	0.23354	0.81456	-0.346
Mof_O 	O 	0.29481	0.93899	0.00951	-0.37
Mof_O 	O 	0.23354	0.94104	0.01086	-0.358
Mof_O 	O 	0.29481	0.75669	0.93899	-0.359
Mof_O 	O 	0.23354	0.81456	0.94104	-0.346
Mof_O 	O 	0.93899	0.00951	0.29481	-0.37
Mof_O 	O 	0.94104	0.01086	0.23354	-0.358
Mof_O 	O 	0.75669	0.29481	0.00951	-0.387
Mof_O 	O 	0.81456	0.23354	0.01086	-0.373
Mof_O 	O 	0.00951	0.93899	0.75669	-0.369
Mof_O 	O 	0.01086	0.94104	0.81456	-0.355
Mof_O 	O 	0.93899	0.75669	0.00951	-0.369
Mof_O 	O 	0.94104	0.81456	0.01086	-0.355
Mof_O 	O 	0.29481	0.00951	0.75669	-0.387
Mof_O 	O 	0.23354	0.01086	0.81456	-0.373
Mof_O 	O 	0.00951	0.29481	0.93899	-0.37
Mof_O 	O 	0.01086	0.23354	0.94104	-0.358
Mof_O 	O 	0.75669	0.93899	0.29481	-0.359
Mof_O 	O 	0.81456	0.94104	0.23354	-0.346
Mof_O 	O 	0.6308	0.1076	0.6308	-0.671
Mof_O 	O 	0.1076	0.6308	0.6308	-0.671
Mof_O 	O 	0.6308	0.6308	0.6308	-0.67
Mof_O 	O 	0.6308	0.6308	0.1076	-0.671
Mof_O 	O 	0.8924	0.3692	0.3692	-0.67
Mof_O 	O 	0.3692	0.8924	0.3692	-0.67
Mof_O 	O 	0.3692	0.3692	0.3692	-0.672
Mof_O 	O 	0.3692	0.3692	0.8924	-0.67
_end
