data_functionalizedCrystal
_audit_creation_method	'EQeq! by Chris Wilmer'
_symmetry_space_group_name_H-M	'P1'
_symmetry_Int_Tables_number	1
_symmetry_cell_setting	triclinic
loop_
_symmetry_equiv_pos_as_xyz
  x,y,z
_cell_length_a	25.8735
_cell_length_b	25.8735
_cell_length_c	6.8486
_cell_angle_alpha	90
_cell_angle_beta	90
_cell_angle_gamma	120
loop_
_atom_site_label
_atom_site_type_symbol
_atom_site_fract_x
_atom_site_fract_y
_atom_site_fract_z
_atom_site_charge
Mof_Co	Co	0.3786	0.349	0.151	1.161
Mof_O 	O 	0.3287	0.2959	0.3637	-0.626
Mof_O 	O 	0.3026	0.2291	0.5987	-0.455
Mof_O 	O 	0.3577	0.2758	0.0022	-0.528
Mof_C 	C 	0.3191	0.2476	0.4286	0.445
Mof_C 	C 	0.3282	0.2069	0.2898	-0.181
Mof_C 	C 	0.3465	0.2239	0.0908	0.181
Mof_C 	C 	0.3506	0.1816	0.9756	-0.068
Mof_H 	H 	0.3577	0.1913	0.832	0.067
Mof_Co	Co	0.04527	0.68233	0.48433	1.162
Mof_O 	O 	0.99537	0.62923	0.69703	-0.625
Mof_O 	O 	0.96927	0.56243	0.93203	-0.454
Mof_O 	O 	0.02437	0.60913	0.33553	-0.527
Mof_C 	C 	0.98577	0.58093	0.76193	0.445
Mof_C 	C 	0.99487	0.54023	0.62313	-0.181
Mof_C 	C 	0.01317	0.55723	0.42413	0.181
Mof_C 	C 	0.01727	0.51493	0.30893	-0.069
Mof_H 	H 	0.02437	0.52463	0.16533	0.068
Mof_Co	Co	0.71193	0.01567	0.81767	1.162
Mof_O 	O 	0.66203	0.96257	0.03037	-0.624
Mof_O 	O 	0.63593	0.89577	0.26537	-0.454
Mof_O 	O 	0.69103	0.94247	0.66887	-0.527
Mof_C 	C 	0.65243	0.91427	0.09527	0.446
Mof_C 	C 	0.66153	0.87357	0.95647	-0.181
Mof_C 	C 	0.67983	0.89057	0.75747	0.181
Mof_C 	C 	0.68393	0.84827	0.64227	-0.069
Mof_H 	H 	0.69103	0.85797	0.49867	0.068
Mof_Co	Co	0.651	0.0296	0.151	1.162
Mof_O 	O 	0.7041	0.0328	0.3637	-0.624
Mof_O 	O 	0.7709	0.0735	0.5987	-0.454
Mof_O 	O 	0.7242	0.0819	0.0022	-0.527
Mof_C 	C 	0.7524	0.0715	0.4286	0.445
Mof_C 	C 	0.7931	0.1213	0.2898	-0.181
Mof_C 	C 	0.7761	0.1226	0.0908	0.18
Mof_C 	C 	0.8184	0.169	0.9756	-0.067
Mof_H 	H 	0.8087	0.1664	0.832	0.067
Mof_Co	Co	0.31767	0.36293	0.48433	1.162
Mof_O 	O 	0.37077	0.36613	0.69703	-0.625
Mof_O 	O 	0.43757	0.40683	0.93203	-0.455
Mof_O 	O 	0.39087	0.41523	0.33553	-0.527
Mof_C 	C 	0.41907	0.40483	0.76193	0.445
Mof_C 	C 	0.45977	0.45463	0.62313	-0.181
Mof_C 	C 	0.44277	0.45593	0.42413	0.181
Mof_C 	C 	0.48507	0.50233	0.30893	-0.069
Mof_H 	H 	0.47537	0.49973	0.16533	0.067
Mof_Co	Co	0.98433	0.69627	0.81767	1.162
Mof_O 	O 	0.03743	0.69947	0.03037	-0.624
Mof_O 	O 	0.10423	0.74017	0.26537	-0.455
Mof_O 	O 	0.05753	0.74857	0.66887	-0.527
Mof_C 	C 	0.08573	0.73817	0.09527	0.446
Mof_C 	C 	0.12643	0.78797	0.95647	-0.182
Mof_C 	C 	0.10943	0.78927	0.75747	0.181
Mof_C 	C 	0.15173	0.83567	0.64227	-0.069
Mof_H 	H 	0.14203	0.83307	0.49867	0.068
Mof_Co	Co	0.9704	0.6214	0.151	1.162
Mof_O 	O 	0.9672	0.6713	0.3637	-0.625
Mof_O 	O 	0.9265	0.6974	0.5987	-0.454
Mof_O 	O 	0.9181	0.6423	0.0022	-0.527
Mof_C 	C 	0.9285	0.6809	0.4286	0.445
Mof_C 	C 	0.8787	0.6718	0.2898	-0.181
Mof_C 	C 	0.8774	0.6535	0.0908	0.181
Mof_C 	C 	0.831	0.6494	0.9756	-0.068
Mof_H 	H 	0.8336	0.6423	0.832	0.067
Mof_Co	Co	0.63707	0.95473	0.48433	1.162
Mof_O 	O 	0.63387	0.00463	0.69703	-0.624
Mof_O 	O 	0.59317	0.03073	0.93203	-0.454
Mof_O 	O 	0.58477	0.97563	0.33553	-0.527
Mof_C 	C 	0.59517	0.01423	0.76193	0.445
Mof_C 	C 	0.54537	0.00513	0.62313	-0.181
Mof_C 	C 	0.54407	0.98683	0.42413	0.181
Mof_C 	C 	0.49767	0.98273	0.30893	-0.069
Mof_H 	H 	0.50027	0.97563	0.16533	0.068
Mof_Co	Co	0.30373	0.28807	0.81767	1.162
Mof_O 	O 	0.30053	0.33797	0.03037	-0.625
Mof_O 	O 	0.25983	0.36407	0.26537	-0.454
Mof_O 	O 	0.25143	0.30897	0.66887	-0.527
Mof_C 	C 	0.26183	0.34757	0.09527	0.445
Mof_C 	C 	0.21203	0.33847	0.95647	-0.181
Mof_C 	C 	0.21073	0.32017	0.75747	0.181
Mof_C 	C 	0.16433	0.31607	0.64227	-0.069
Mof_H 	H 	0.16693	0.30897	0.49867	0.068
Mof_Co	Co	0.6214	0.651	0.849	1.162
Mof_O 	O 	0.6713	0.7041	0.6363	-0.625
Mof_O 	O 	0.6974	0.7709	0.4013	-0.454
Mof_O 	O 	0.6423	0.7242	0.9978	-0.527
Mof_C 	C 	0.6809	0.7524	0.5714	0.445
Mof_C 	C 	0.6718	0.7931	0.7102	-0.181
Mof_C 	C 	0.6535	0.7761	0.9092	0.181
Mof_C 	C 	0.6494	0.8184	0.0244	-0.068
Mof_H 	H 	0.6423	0.8087	0.168	0.067
Mof_Co	Co	0.28807	0.98433	0.18233	1.162
Mof_O 	O 	0.33797	0.03743	0.96963	-0.624
Mof_O 	O 	0.36407	0.10423	0.73463	-0.454
Mof_O 	O 	0.30897	0.05753	0.33113	-0.527
Mof_C 	C 	0.34757	0.08573	0.90473	0.446
Mof_C 	C 	0.33847	0.12643	0.04353	-0.181
Mof_C 	C 	0.32017	0.10943	0.24253	0.181
Mof_C 	C 	0.31607	0.15173	0.35773	-0.069
Mof_H 	H 	0.30897	0.14203	0.50133	0.068
Mof_Co	Co	0.95473	0.31767	0.51567	1.162
Mof_O 	O 	0.00463	0.37077	0.30297	-0.625
Mof_O 	O 	0.03073	0.43757	0.06797	-0.454
Mof_O 	O 	0.97563	0.39087	0.66447	-0.527
Mof_C 	C 	0.01423	0.41907	0.23807	0.445
Mof_C 	C 	0.00513	0.45977	0.37687	-0.181
Mof_C 	C 	0.98683	0.44277	0.57587	0.181
Mof_C 	C 	0.98273	0.48507	0.69107	-0.069
Mof_H 	H 	0.97563	0.47537	0.83467	0.068
Mof_Co	Co	0.349	0.9704	0.849	1.162
Mof_O 	O 	0.2959	0.9672	0.6363	-0.624
Mof_O 	O 	0.2291	0.9265	0.4013	-0.454
Mof_O 	O 	0.2758	0.9181	0.9978	-0.527
Mof_C 	C 	0.2476	0.9285	0.5714	0.445
Mof_C 	C 	0.2069	0.8787	0.7102	-0.181
Mof_C 	C 	0.2239	0.8774	0.9092	0.18
Mof_C 	C 	0.1816	0.831	0.0244	-0.067
Mof_H 	H 	0.1913	0.8336	0.168	0.067
Mof_Co	Co	0.01567	0.30373	0.18233	1.162
Mof_O 	O 	0.96257	0.30053	0.96963	-0.624
Mof_O 	O 	0.89577	0.25983	0.73463	-0.455
Mof_O 	O 	0.94247	0.25143	0.33113	-0.527
Mof_C 	C 	0.91427	0.26183	0.90473	0.446
Mof_C 	C 	0.87357	0.21203	0.04353	-0.182
Mof_C 	C 	0.89057	0.21073	0.24253	0.181
Mof_C 	C 	0.84827	0.16433	0.35773	-0.069
Mof_H 	H 	0.85797	0.16693	0.50133	0.068
Mof_Co	Co	0.68233	0.63707	0.51567	1.162
Mof_O 	O 	0.62923	0.63387	0.30297	-0.625
Mof_O 	O 	0.56243	0.59317	0.06797	-0.455
Mof_O 	O 	0.60913	0.58477	0.66447	-0.527
Mof_C 	C 	0.58093	0.59517	0.23807	0.445
Mof_C 	C 	0.54023	0.54537	0.37687	-0.181
Mof_C 	C 	0.55723	0.54407	0.57587	0.181
Mof_C 	C 	0.51493	0.49767	0.69107	-0.069
Mof_H 	H 	0.52463	0.50027	0.83467	0.067
Mof_Co	Co	0.0296	0.3786	0.849	1.162
Mof_O 	O 	0.0328	0.3287	0.6363	-0.625
Mof_O 	O 	0.0735	0.3026	0.4013	-0.454
Mof_O 	O 	0.0819	0.3577	0.9978	-0.527
Mof_C 	C 	0.0715	0.3191	0.5714	0.445
Mof_C 	C 	0.1213	0.3282	0.7102	-0.181
Mof_C 	C 	0.1226	0.3465	0.9092	0.181
Mof_C 	C 	0.169	0.3506	0.0244	-0.068
Mof_H 	H 	0.1664	0.3577	0.168	0.067
Mof_Co	Co	0.69627	0.71193	0.18233	1.162
Mof_O 	O 	0.69947	0.66203	0.96963	-0.625
Mof_O 	O 	0.74017	0.63593	0.73463	-0.454
Mof_O 	O 	0.74857	0.69103	0.33113	-0.527
Mof_C 	C 	0.73817	0.65243	0.90473	0.445
Mof_C 	C 	0.78797	0.66153	0.04353	-0.181
Mof_C 	C 	0.78927	0.67983	0.24253	0.181
Mof_C 	C 	0.83567	0.68393	0.35773	-0.069
Mof_H 	H 	0.83307	0.69103	0.50133	0.068
Mof_Co	Co	0.36293	0.04527	0.51567	1.162
Mof_O 	O 	0.36613	0.99537	0.30297	-0.624
Mof_O 	O 	0.40683	0.96927	0.06797	-0.454
Mof_O 	O 	0.41523	0.02437	0.66447	-0.527
Mof_C 	C 	0.40483	0.98577	0.23807	0.445
Mof_C 	C 	0.45463	0.99487	0.37687	-0.181
Mof_C 	C 	0.45593	0.01317	0.57587	0.181
Mof_C 	C 	0.50233	0.01727	0.69107	-0.069
Mof_H 	H 	0.49973	0.02437	0.83467	0.068
_end
