data_functionalizedCrystal
_audit_creation_method	'EQeq! by Chris Wilmer'
_symmetry_space_group_name_H-M	'P1'
_symmetry_Int_Tables_number	1
_symmetry_cell_setting	triclinic
loop_
_symmetry_equiv_pos_as_xyz
  x,y,z
_cell_length_a	15.437
_cell_length_b	15.985
_cell_length_c	16.475
_cell_angle_alpha	90
_cell_angle_beta	90.145
_cell_angle_gamma	90
loop_
_atom_site_label
_atom_site_type_symbol
_atom_site_fract_x
_atom_site_fract_y
_atom_site_fract_z
_atom_site_charge
Mof_C 	C 	0.4555	0.7662	0.8486	-0.042
Mof_H 	H 	0.4403	0.7186	0.8161	-0.006
Mof_H 	H 	0.5174	0.7704	0.8524	-0.028
Mof_H 	H 	0.4327	0.816	0.8239	0.014
Mof_C 	C 	0.4177	0.7563	0.9326	-0.295
Mof_C 	C 	0.4419	0.8104	0.9961	0.172
Mof_C 	C 	0.5015	0.8816	0.9794	-0.509
Mof_H 	H 	0.4904	0.9249	0.0194	0.158
Mof_H 	H 	0.4866	0.9046	0.9267	0.168
Mof_C 	C 	0.5977	0.8631	0.98	0.548
Mof_C 	C 	0.4429	0.8495	0.1418	-0.011
Mof_H 	H 	0.4998	0.8701	0.1298	-0.023
Mof_H 	H 	0.4447	0.8171	0.1909	-0.038
Mof_H 	H 	0.404	0.8958	0.1487	0.013
Mof_C 	C 	0.4118	0.7956	0.0733	-0.324
Mof_C 	C 	0.3549	0.7301	0.0895	0.144
Mof_C 	C 	0.3293	0.6751	0.0255	-0.327
Mof_C 	C 	0.3616	0.6898	0.9484	0.159
Mof_C 	C 	0.2739	0.6	0.0435	0.024
Mof_H 	H 	0.2801	0.5596	0.0008	-0.054
Mof_H 	H 	0.2144	0.6168	0.0473	0.017
Mof_H 	H 	0.2919	0.5755	0.0941	-0.045
Mof_C 	C 	0.3382	0.6319	0.8786	-0.571
Mof_H 	H 	0.2857	0.6017	0.8924	0.181
Mof_H 	H 	0.3261	0.6654	0.8308	0.181
Mof_C 	C 	0.4089	0.5695	0.8588	0.609
Mof_C 	C 	0.379	0.6529	0.2227	0.641
Mof_C 	C 	0.3223	0.7134	0.1754	-0.566
Mof_H 	H 	0.3196	0.7661	0.2047	0.164
Mof_H 	H 	0.264	0.691	0.1724	0.183
Mof_O 	O 	0.6224	0.7918	0.002	-0.763
Mof_O 	O 	0.6461	0.9215	0.9602	-0.382
Mof_O 	O 	0.4584	0.5441	0.9097	-0.995
Mof_O 	O 	0.4088	0.5466	0.7837	-0.611
Mof_O 	O 	0.4315	0.6087	0.1825	-0.881
Mof_O 	O 	0.7975	0.8757	0.0091	-0.693
Mof_O 	O 	0.3697	0.6489	0.2972	-0.705
Mof_K 	K 	0.53422	0.62756	0.04738	3.22
Mof_C 	C 	0.9555	0.2662	0.8486	0.03
Mof_H 	H 	0.9403	0.2186	0.8161	-0.025
Mof_H 	H 	0.0174	0.2704	0.8524	-0.053
Mof_H 	H 	0.9327	0.316	0.8239	-0.005
Mof_C 	C 	0.9177	0.2563	0.9326	-0.324
Mof_C 	C 	0.9419	0.3104	0.9961	0.226
Mof_C 	C 	0.0015	0.3816	0.9794	-0.596
Mof_H 	H 	0.9904	0.4249	0.0194	0.192
Mof_H 	H 	0.9866	0.4046	0.9267	0.204
Mof_C 	C 	0.0977	0.3631	0.98	0.594
Mof_C 	C 	0.9429	0.3495	0.1418	-0.008
Mof_H 	H 	0.9998	0.3701	0.1298	-0.015
Mof_H 	H 	0.9447	0.3171	0.1909	-0.033
Mof_H 	H 	0.904	0.3958	0.1487	0.013
Mof_C 	C 	0.9118	0.2956	0.0733	-0.34
Mof_C 	C 	0.8549	0.2301	0.0895	0.162
Mof_C 	C 	0.8293	0.1751	0.0255	-0.336
Mof_C 	C 	0.8616	0.1898	0.9484	0.185
Mof_C 	C 	0.7739	0.1	0.0435	0.034
Mof_H 	H 	0.7801	0.0596	0.0008	-0.056
Mof_H 	H 	0.7144	0.1168	0.0473	0.013
Mof_H 	H 	0.7919	0.0755	0.0941	-0.045
Mof_C 	C 	0.8382	0.1319	0.8786	-0.579
Mof_H 	H 	0.7857	0.1017	0.8924	0.185
Mof_H 	H 	0.8261	0.1654	0.8308	0.185
Mof_C 	C 	0.9089	0.0695	0.8588	0.609
Mof_C 	C 	0.879	0.1529	0.2227	0.641
Mof_C 	C 	0.8223	0.2134	0.1754	-0.572
Mof_H 	H 	0.8196	0.2661	0.2047	0.166
Mof_H 	H 	0.764	0.191	0.1724	0.185
Mof_O 	O 	0.1224	0.2918	0.002	-0.785
Mof_O 	O 	0.1461	0.4215	0.9602	-0.386
Mof_O 	O 	0.9584	0.0441	0.9097	-0.972
Mof_O 	O 	0.9088	0.0466	0.7837	-0.603
Mof_O 	O 	0.9315	0.1087	0.1825	-0.859
Mof_O 	O 	0.2975	0.3757	0.0091	-0.706
Mof_O 	O 	0.8697	0.1489	0.2972	-0.707
Mof_K 	K 	0.03422	0.12756	0.04738	3.084
Mof_C 	C 	0.5445	0.7662	0.6514	-0.093
Mof_H 	H 	0.5597	0.7186	0.6839	0.008
Mof_H 	H 	0.4826	0.7704	0.6476	-0.015
Mof_H 	H 	0.5673	0.816	0.6761	0.03
Mof_C 	C 	0.5823	0.7563	0.5674	-0.249
Mof_C 	C 	0.5581	0.8104	0.5039	0.109
Mof_C 	C 	0.4985	0.8816	0.5206	-0.509
Mof_H 	H 	0.5096	0.9249	0.4806	0.171
Mof_H 	H 	0.5134	0.9046	0.5733	0.167
Mof_C 	C 	0.4023	0.8631	0.52	0.521
Mof_C 	C 	0.5571	0.8495	0.3582	-0.082
Mof_H 	H 	0.5002	0.8701	0.3702	-0
Mof_H 	H 	0.5553	0.8171	0.3091	-0.017
Mof_H 	H 	0.596	0.8958	0.3513	0.035
Mof_C 	C 	0.5882	0.7956	0.4267	-0.258
Mof_C 	C 	0.6451	0.7301	0.4105	0.091
Mof_C 	C 	0.6707	0.6751	0.4745	-0.244
Mof_C 	C 	0.6384	0.6898	0.5516	0.081
Mof_C 	C 	0.7261	0.6	0.4565	-0.077
Mof_H 	H 	0.7199	0.5596	0.4992	-0.011
Mof_H 	H 	0.7856	0.6168	0.4527	0.052
Mof_H 	H 	0.7081	0.5755	0.4059	-0.013
Mof_C 	C 	0.6618	0.6319	0.6214	-0.531
Mof_H 	H 	0.7143	0.6017	0.6076	0.162
Mof_H 	H 	0.6739	0.6654	0.6692	0.169
Mof_C 	C 	0.5911	0.5695	0.6412	0.595
Mof_C 	C 	0.621	0.6529	0.2773	0.631
Mof_C 	C 	0.6777	0.7134	0.3246	-0.537
Mof_H 	H 	0.6804	0.7661	0.2953	0.154
Mof_H 	H 	0.736	0.691	0.3276	0.174
Mof_O 	O 	0.3776	0.7918	0.498	-0.745
Mof_O 	O 	0.3539	0.9215	0.5398	-0.383
Mof_O 	O 	0.5416	0.5441	0.5903	-0.998
Mof_O 	O 	0.5912	0.5466	0.7163	-0.606
Mof_O 	O 	0.5685	0.6087	0.3175	-0.885
Mof_O 	O 	0.2025	0.8757	0.4909	-0.671
Mof_O 	O 	0.6303	0.6489	0.2028	-0.697
Mof_K 	K 	0.46578	0.62756	0.45262	3.313
Mof_C 	C 	0.0445	0.2662	0.6514	-0.214
Mof_H 	H 	0.0597	0.2186	0.6839	0.042
Mof_H 	H 	0.9826	0.2704	0.6476	0.031
Mof_H 	H 	0.0673	0.316	0.6761	0.065
Mof_C 	C 	0.0823	0.2563	0.5674	-0.192
Mof_C 	C 	0.0581	0.3104	0.5039	0.028
Mof_C 	C 	0.9985	0.3816	0.5206	-0.366
Mof_H 	H 	0.0096	0.4249	0.4806	0.117
Mof_H 	H 	0.0134	0.4046	0.5733	0.114
Mof_C 	C 	0.9023	0.3631	0.52	0.481
Mof_C 	C 	0.0571	0.3495	0.3582	-0.11
Mof_H 	H 	0.0002	0.3701	0.3702	0.001
Mof_H 	H 	0.0553	0.3171	0.3091	-0.015
Mof_H 	H 	0.096	0.3958	0.3513	0.042
Mof_C 	C 	0.0882	0.2956	0.4267	-0.222
Mof_C 	C 	0.1451	0.2301	0.4105	0.064
Mof_C 	C 	0.1707	0.1751	0.4745	-0.223
Mof_C 	C 	0.1384	0.1898	0.5516	0.044
Mof_C 	C 	0.2261	0.1	0.4565	-0.103
Mof_H 	H 	0.2199	0.0596	0.4992	-0.003
Mof_H 	H 	0.2856	0.1168	0.4527	0.061
Mof_H 	H 	0.2081	0.0755	0.4059	-0.007
Mof_C 	C 	0.1618	0.1319	0.6214	-0.513
Mof_H 	H 	0.2143	0.1017	0.6076	0.158
Mof_H 	H 	0.1739	0.1654	0.6692	0.163
Mof_C 	C 	0.0911	0.0695	0.6412	0.588
Mof_C 	C 	0.121	0.1529	0.2773	0.625
Mof_C 	C 	0.1777	0.2134	0.3246	-0.523
Mof_H 	H 	0.1804	0.2661	0.2953	0.149
Mof_H 	H 	0.236	0.191	0.3276	0.169
Mof_O 	O 	0.8776	0.2918	0.498	-0.737
Mof_O 	O 	0.8539	0.4215	0.5398	-0.368
Mof_O 	O 	0.0416	0.0441	0.5903	-1.001
Mof_O 	O 	0.0912	0.0466	0.7163	-0.603
Mof_O 	O 	0.0685	0.1087	0.3175	-0.898
Mof_O 	O 	0.7025	0.3757	0.4909	-0.676
Mof_O 	O 	0.1303	0.1489	0.2028	-0.691
Mof_K 	K 	0.96578	0.12756	0.45262	3.4
Mof_C 	C 	0.5445	0.2338	0.1514	-0.143
Mof_H 	H 	0.5597	0.2814	0.1839	0.022
Mof_H 	H 	0.4826	0.2296	0.1476	-0.004
Mof_H 	H 	0.5673	0.184	0.1761	0.045
Mof_C 	C 	0.5823	0.2437	0.0674	-0.202
Mof_C 	C 	0.5581	0.1896	0.0039	0.036
Mof_C 	C 	0.4985	0.1184	0.0206	-0.535
Mof_H 	H 	0.5096	0.0751	0.9806	0.206
Mof_H 	H 	0.5134	0.0954	0.0733	0.173
Mof_C 	C 	0.4023	0.1369	0.02	0.479
Mof_C 	C 	0.5571	0.1505	0.8582	-0.17
Mof_H 	H 	0.5002	0.1299	0.8702	0.03
Mof_H 	H 	0.5553	0.1829	0.8091	0.007
Mof_H 	H 	0.596	0.1042	0.8513	0.065
Mof_C 	C 	0.5882	0.2044	0.9267	-0.175
Mof_C 	C 	0.6451	0.2699	0.9105	0.031
Mof_C 	C 	0.6707	0.3249	0.9745	-0.156
Mof_C 	C 	0.6384	0.3102	0.0516	-0.004
Mof_C 	C 	0.7261	0.4	0.9565	-0.179
Mof_H 	H 	0.7199	0.4404	0.9992	0.03
Mof_H 	H 	0.7856	0.3832	0.9527	0.088
Mof_H 	H 	0.7081	0.4245	0.9059	0.018
Mof_C 	C 	0.6618	0.3681	0.1214	-0.488
Mof_H 	H 	0.7143	0.3983	0.1076	0.142
Mof_H 	H 	0.6739	0.3346	0.1692	0.155
Mof_C 	C 	0.5911	0.4305	0.1412	0.58
Mof_C 	C 	0.621	0.3471	0.7773	0.624
Mof_C 	C 	0.6777	0.2866	0.8246	-0.505
Mof_H 	H 	0.6804	0.2339	0.7953	0.144
Mof_H 	H 	0.736	0.309	0.8276	0.164
Mof_O 	O 	0.3776	0.2082	0.998	-0.707
Mof_O 	O 	0.3539	0.0785	0.0398	-0.39
Mof_O 	O 	0.5416	0.4559	0.0903	-1.005
Mof_O 	O 	0.5912	0.4534	0.2163	-0.603
Mof_O 	O 	0.5685	0.3913	0.8175	-0.894
Mof_O 	O 	0.2025	0.1243	0.9909	-0.627
Mof_O 	O 	0.6303	0.3511	0.7028	-0.701
Mof_K 	K 	0.46578	0.37244	0.95262	3.433
Mof_C 	C 	0.0445	0.7338	0.1514	-0.33
Mof_H 	H 	0.0597	0.7814	0.1839	0.075
Mof_H 	H 	0.9826	0.7296	0.1476	0.071
Mof_H 	H 	0.0673	0.684	0.1761	0.099
Mof_C 	C 	0.0823	0.7437	0.0674	-0.112
Mof_C 	C 	0.0581	0.6896	0.0039	-0.075
Mof_C 	C 	0.9985	0.6184	0.0206	-0.332
Mof_H 	H 	0.0096	0.5751	0.9806	0.128
Mof_H 	H 	0.0134	0.5954	0.0733	0.096
Mof_C 	C 	0.9023	0.6369	0.02	0.445
Mof_C 	C 	0.0571	0.6505	0.8582	-0.226
Mof_H 	H 	0.0002	0.6299	0.8702	0.041
Mof_H 	H 	0.0553	0.6829	0.8091	0.021
Mof_H 	H 	0.096	0.6042	0.8513	0.08
Mof_C 	C 	0.0882	0.7044	0.9267	-0.117
Mof_C 	C 	0.1451	0.7699	0.9105	-0.006
Mof_C 	C 	0.1707	0.8249	0.9745	-0.121
Mof_C 	C 	0.1384	0.8102	0.0516	-0.05
Mof_C 	C 	0.2261	0.9	0.9565	-0.219
Mof_H 	H 	0.2199	0.9404	0.9992	0.042
Mof_H 	H 	0.2856	0.8832	0.9527	0.1
Mof_H 	H 	0.2081	0.9245	0.9059	0.029
Mof_C 	C 	0.1618	0.8681	0.1214	-0.461
Mof_H 	H 	0.2143	0.8983	0.1076	0.136
Mof_H 	H 	0.1739	0.8346	0.1692	0.146
Mof_C 	C 	0.0911	0.9305	0.1412	0.568
Mof_C 	C 	0.121	0.8471	0.7773	0.615
Mof_C 	C 	0.1777	0.7866	0.8246	-0.483
Mof_H 	H 	0.1804	0.7339	0.7953	0.136
Mof_H 	H 	0.236	0.809	0.8276	0.157
Mof_O 	O 	0.8776	0.7082	0.998	-0.713
Mof_O 	O 	0.8539	0.5785	0.0398	-0.369
Mof_O 	O 	0.0416	0.9559	0.0903	-0.995
Mof_O 	O 	0.0912	0.9534	0.2163	-0.603
Mof_O 	O 	0.0685	0.8913	0.8175	-0.898
Mof_O 	O 	0.7025	0.6243	0.9909	-0.653
Mof_O 	O 	0.1303	0.8511	0.7028	-0.696
Mof_K 	K 	0.96578	0.87244	0.95262	3.435
Mof_C 	C 	0.4555	0.2338	0.3486	-0.089
Mof_H 	H 	0.4403	0.2814	0.3161	0.005
Mof_H 	H 	0.5174	0.2296	0.3524	-0.017
Mof_H 	H 	0.4327	0.184	0.3239	0.028
Mof_C 	C 	0.4177	0.2437	0.4326	-0.251
Mof_C 	C 	0.4419	0.1896	0.4961	0.111
Mof_C 	C 	0.5015	0.1184	0.4794	-0.511
Mof_H 	H 	0.4904	0.0751	0.5194	0.173
Mof_H 	H 	0.4866	0.0954	0.4267	0.169
Mof_C 	C 	0.5977	0.1369	0.48	0.522
Mof_C 	C 	0.4429	0.1505	0.6418	-0.078
Mof_H 	H 	0.4998	0.1299	0.6298	-0.001
Mof_H 	H 	0.4447	0.1829	0.6909	-0.02
Mof_H 	H 	0.404	0.1042	0.6487	0.035
Mof_C 	C 	0.4118	0.2044	0.5733	-0.26
Mof_C 	C 	0.3549	0.2699	0.5895	0.093
Mof_C 	C 	0.3293	0.3249	0.5255	-0.245
Mof_C 	C 	0.3616	0.3102	0.4484	0.082
Mof_C 	C 	0.2739	0.4	0.5435	-0.077
Mof_H 	H 	0.2801	0.4404	0.5008	-0.011
Mof_H 	H 	0.2144	0.3832	0.5473	0.054
Mof_H 	H 	0.2919	0.4245	0.5941	-0.013
Mof_C 	C 	0.3382	0.3681	0.3786	-0.531
Mof_H 	H 	0.2857	0.3983	0.3924	0.162
Mof_H 	H 	0.3261	0.3346	0.3308	0.168
Mof_C 	C 	0.4089	0.4305	0.3588	0.595
Mof_C 	C 	0.379	0.3471	0.7227	0.636
Mof_C 	C 	0.3223	0.2866	0.6754	-0.54
Mof_H 	H 	0.3196	0.2339	0.7047	0.156
Mof_H 	H 	0.264	0.309	0.6724	0.175
Mof_O 	O 	0.6224	0.2082	0.502	-0.746
Mof_O 	O 	0.6461	0.0785	0.4602	-0.382
Mof_O 	O 	0.4584	0.4559	0.4097	-0.998
Mof_O 	O 	0.4088	0.4534	0.2837	-0.608
Mof_O 	O 	0.4315	0.3913	0.6825	-0.888
Mof_O 	O 	0.7975	0.1243	0.5091	-0.682
Mof_O 	O 	0.3697	0.3511	0.7972	-0.709
Mof_K 	K 	0.53422	0.37244	0.54738	3.316
Mof_C 	C 	0.9555	0.7338	0.3486	0.056
Mof_H 	H 	0.9403	0.7814	0.3161	-0.034
Mof_H 	H 	0.0174	0.7296	0.3524	-0.073
Mof_H 	H 	0.9327	0.684	0.3239	-0.012
Mof_C 	C 	0.9177	0.7437	0.4326	-0.317
Mof_C 	C 	0.9419	0.6896	0.4961	0.2
Mof_C 	C 	0.0015	0.6184	0.4794	-0.661
Mof_H 	H 	0.9904	0.5751	0.5194	0.23
Mof_H 	H 	0.9866	0.5954	0.4267	0.228
Mof_C 	C 	0.0977	0.6369	0.48	0.564
Mof_C 	C 	0.9429	0.6505	0.6418	-0.039
Mof_H 	H 	0.9998	0.6299	0.6298	-0.007
Mof_H 	H 	0.9447	0.6829	0.6909	-0.028
Mof_H 	H 	0.904	0.6042	0.6487	0.023
Mof_C 	C 	0.9118	0.7044	0.5733	-0.302
Mof_C 	C 	0.8549	0.7699	0.5895	0.124
Mof_C 	C 	0.8293	0.8249	0.5255	-0.272
Mof_C 	C 	0.8616	0.8102	0.4484	0.123
Mof_C 	C 	0.7739	0.9	0.5435	-0.042
Mof_H 	H 	0.7801	0.9404	0.5008	-0.023
Mof_H 	H 	0.7144	0.8832	0.5473	0.041
Mof_H 	H 	0.7919	0.9245	0.5941	-0.024
Mof_C 	C 	0.8382	0.8681	0.3786	-0.551
Mof_H 	H 	0.7857	0.8983	0.3924	0.167
Mof_H 	H 	0.8261	0.8346	0.3308	0.176
Mof_C 	C 	0.9089	0.9305	0.3588	0.601
Mof_C 	C 	0.879	0.8471	0.7227	0.639
Mof_C 	C 	0.8223	0.7866	0.6754	-0.554
Mof_H 	H 	0.8196	0.7339	0.7047	0.16
Mof_H 	H 	0.764	0.809	0.6724	0.179
Mof_O 	O 	0.1224	0.7082	0.502	-0.755
Mof_O 	O 	0.1461	0.5785	0.4602	-0.397
Mof_O 	O 	0.9584	0.9559	0.4097	-0.992
Mof_O 	O 	0.9088	0.9534	0.2837	-0.601
Mof_O 	O 	0.9315	0.8913	0.6825	-0.876
Mof_O 	O 	0.2975	0.6243	0.5091	-0.676
Mof_O 	O 	0.8697	0.8511	0.7972	-0.711
Mof_K 	K 	0.03422	0.87244	0.54738	3.237
Mof_Zn	Zn	0.5	0.46868	0.75	1.179
Mof_Zn	Zn	3.00873e-33	0.96868	0.75	1.173
Mof_Zn	Zn	0.5	0.53132	0.25	1.18
Mof_Zn	Zn	1.09237e-19	0.03132	0.25	1.173
Mof_Zn	Zn	0.75	0.75	-0	1.142
Mof_Zn	Zn	0.25	0.75	0.5	1.149
Mof_Zn	Zn	0.25	0.25	-0	1.138
Mof_Zn	Zn	0.75	0.25	0.5	1.148
_end
