data_functionalizedCrystal
_audit_creation_method	'EQeq! by Chris Wilmer'
_symmetry_space_group_name_H-M	'P1'
_symmetry_Int_Tables_number	1
_symmetry_cell_setting	triclinic
loop_
_symmetry_equiv_pos_as_xyz
  x,y,z
_cell_length_a	15.1431
_cell_length_b	15.2322
_cell_length_c	16.0597
_cell_angle_alpha	98.484
_cell_angle_beta	102.682
_cell_angle_gamma	104.206
loop_
_atom_site_label
_atom_site_type_symbol
_atom_site_fract_x
_atom_site_fract_y
_atom_site_fract_z
_atom_site_charge
Mof_C 	C 	0.3761	0.981	0.3121	0.385
Mof_C 	C 	0.3739	0.0786	0.31	-0.111
Mof_C 	C 	0.376	0.1386	0.3841	0.032
Mof_H 	H 	0.3811	0.1186	0.4378	0.038
Mof_C 	C 	0.3707	0.228	0.3812	-0.097
Mof_H 	H 	0.3708	0.2678	0.4326	0.065
Mof_C 	C 	0.3654	0.2603	0.3036	0.038
Mof_C 	C 	0.3675	0.2004	0.2302	-0.097
Mof_H 	H 	0.3669	0.2214	0.1773	0.064
Mof_C 	C 	0.3704	0.1104	0.2331	0.037
Mof_H 	H 	0.3699	0.0702	0.1817	0.039
Mof_C 	C 	0.1834	0.7885	0.2757	0.386
Mof_C 	C 	0.0881	0.7964	0.2812	-0.118
Mof_C 	C 	0.0207	0.7973	0.2085	0.042
Mof_H 	H 	0.0334	0.79	0.1529	0.033
Mof_C 	C 	0.9348	0.8086	0.2154	-0.1
Mof_H 	H 	0.8899	0.8097	0.1642	0.063
Mof_C 	C 	0.912	0.8184	0.2941	0.039
Mof_C 	C 	0.9811	0.8178	0.3673	-0.101
Mof_H 	H 	0.9683	0.8249	0.4229	0.063
Mof_C 	C 	0.0663	0.8072	0.3614	0.042
Mof_H 	H 	0.1117	0.8072	0.4127	0.031
Mof_C 	C 	0.3476	0.6351	0.2932	0.386
Mof_C 	C 	0.3499	0.5371	0.2956	-0.111
Mof_C 	C 	0.3179	0.4685	0.2199	0.036
Mof_H 	H 	0.2928	0.483	0.1657	0.034
Mof_C 	C 	0.3222	0.3787	0.2225	-0.098
Mof_H 	H 	0.2993	0.3325	0.1701	0.063
Mof_C 	C 	0.3593	0.3556	0.3008	0.038
Mof_C 	C 	0.3971	0.4266	0.3767	-0.099
Mof_H 	H 	0.426	0.4132	0.4302	0.062
Mof_C 	C 	0.3923	0.5161	0.3739	0.035
Mof_H 	H 	0.418	0.5634	0.4255	0.031
Mof_C 	C 	0.5394	0.8318	0.3184	0.385
Mof_C 	C 	0.6389	0.8364	0.3134	-0.122
Mof_C 	C 	0.657	0.8185	0.234	0.047
Mof_H 	H 	0.6082	0.8093	0.1823	0.032
Mof_C 	C 	0.7456	0.8137	0.2277	-0.105
Mof_H 	H 	0.7562	0.8005	0.1716	0.065
Mof_C 	C 	0.8183	0.8277	0.3011	0.046
Mof_C 	C 	0.7995	0.8476	0.3809	-0.106
Mof_H 	H 	0.8482	0.857	0.4329	0.065
Mof_C 	C 	0.7118	0.8542	0.3871	0.046
Mof_H 	H 	0.7019	0.8713	0.4429	0.028
Mof_C 	C 	0.3803	0.7644	0.5608	0.059
Mof_H 	H 	0.3777	0.707	0.5264	0.008
Mof_C 	C 	0.3765	0.7682	0.6469	-0.089
Mof_H 	H 	0.3691	0.7138	0.6701	0.057
Mof_C 	C 	0.3836	0.8515	0.6977	0.006
Mof_C 	C 	0.3924	0.9283	0.6604	-0.086
Mof_H 	H 	0.3974	0.987	0.6939	0.079
Mof_C 	C 	0.3937	0.9189	0.5745	0.058
Mof_H 	H 	0.3993	0.9721	0.5494	0.018
Mof_C 	C 	0.3895	0.8693	0.7951	0.199
Mof_C 	C 	0.4058	0.8511	0.0648	0.117
Mof_H 	H 	0.4505	0.8946	0.1134	0.005
Mof_C 	C 	0.4122	0.8587	0.9815	-0.209
Mof_H 	H 	0.4599	0.9075	0.973	0.127
Mof_C 	C 	0.3475	0.7935	0.9099	0.22
Mof_C 	C 	0.2806	0.7255	0.9251	-0.237
Mof_H 	H 	0.2364	0.6795	0.878	0.111
Mof_C 	C 	0.2776	0.7242	0.0099	0.139
Mof_H 	H 	0.2289	0.6773	0.0196	-0.023
Mof_N 	N 	0.3875	0.8381	0.5248	-0.243
Mof_N 	N 	0.3493	0.7944	0.823	-0.25
Mof_H 	H 	0.3222	0.7421	0.7841	0.126
Mof_N 	N 	0.3385	0.7844	0.0789	-0.27
Mof_O 	O 	0.3617	0.9273	0.24	-0.456
Mof_O 	O 	0.3904	0.9598	0.3858	-0.458
Mof_O 	O 	0.2426	0.7944	0.3461	-0.468
Mof_O 	O 	0.1975	0.7766	0.201	-0.447
Mof_O 	O 	0.317	0.6529	0.2198	-0.453
Mof_O 	O 	0.3776	0.6917	0.3657	-0.465
Mof_O 	O 	0.5264	0.8541	0.3929	-0.447
Mof_O 	O 	0.4767	0.8052	0.2475	-0.468
Mof_O 	O 	0.4252	0.949	0.8419	-0.225
Mof_Zn	Zn	0.38853	0.82902	0.39747	1.215
Mof_Zn	Zn	0.33348	0.78512	0.20377	1.217
Mof_C 	C 	0.6239	0.019	0.6879	0.386
Mof_C 	C 	0.6261	0.9214	0.69	-0.11
Mof_C 	C 	0.624	0.8614	0.6159	0.033
Mof_H 	H 	0.6189	0.8814	0.5622	0.039
Mof_C 	C 	0.6293	0.772	0.6188	-0.097
Mof_H 	H 	0.6292	0.7322	0.5674	0.065
Mof_C 	C 	0.6346	0.7397	0.6964	0.038
Mof_C 	C 	0.6325	0.7996	0.7698	-0.097
Mof_H 	H 	0.6331	0.7786	0.8227	0.064
Mof_C 	C 	0.6296	0.8896	0.7669	0.037
Mof_H 	H 	0.6301	0.9298	0.8183	0.039
Mof_C 	C 	0.8166	0.2115	0.7243	0.386
Mof_C 	C 	0.9119	0.2036	0.7188	-0.118
Mof_C 	C 	0.9793	0.2027	0.7915	0.042
Mof_H 	H 	0.9666	0.21	0.8471	0.033
Mof_C 	C 	0.0652	0.1914	0.7846	-0.1
Mof_H 	H 	0.1101	0.1903	0.8358	0.063
Mof_C 	C 	0.088	0.1816	0.7059	0.039
Mof_C 	C 	0.0189	0.1822	0.6327	-0.101
Mof_H 	H 	0.0317	0.1751	0.5771	0.063
Mof_C 	C 	0.9337	0.1928	0.6386	0.042
Mof_H 	H 	0.8883	0.1928	0.5873	0.031
Mof_C 	C 	0.6524	0.3649	0.7068	0.386
Mof_C 	C 	0.6501	0.4629	0.7044	-0.111
Mof_C 	C 	0.6821	0.5315	0.7801	0.036
Mof_H 	H 	0.7072	0.517	0.8343	0.034
Mof_C 	C 	0.6778	0.6213	0.7775	-0.098
Mof_H 	H 	0.7007	0.6675	0.8299	0.063
Mof_C 	C 	0.6407	0.6444	0.6992	0.038
Mof_C 	C 	0.6029	0.5734	0.6233	-0.099
Mof_H 	H 	0.574	0.5868	0.5698	0.062
Mof_C 	C 	0.6077	0.4839	0.6261	0.035
Mof_H 	H 	0.582	0.4366	0.5745	0.031
Mof_C 	C 	0.4606	0.1682	0.6816	0.385
Mof_C 	C 	0.3611	0.1636	0.6866	-0.122
Mof_C 	C 	0.343	0.1815	0.766	0.047
Mof_H 	H 	0.3918	0.1907	0.8177	0.032
Mof_C 	C 	0.2544	0.1863	0.7723	-0.105
Mof_H 	H 	0.2438	0.1995	0.8284	0.065
Mof_C 	C 	0.1817	0.1723	0.6989	0.046
Mof_C 	C 	0.2005	0.1524	0.6191	-0.106
Mof_H 	H 	0.1518	0.143	0.5671	0.065
Mof_C 	C 	0.2882	0.1458	0.6129	0.046
Mof_H 	H 	0.2981	0.1287	0.5571	0.028
Mof_C 	C 	0.6197	0.2356	0.4392	0.059
Mof_H 	H 	0.6223	0.293	0.4736	0.008
Mof_C 	C 	0.6235	0.2318	0.3531	-0.089
Mof_H 	H 	0.6309	0.2862	0.3299	0.057
Mof_C 	C 	0.6164	0.1485	0.3023	0.006
Mof_C 	C 	0.6076	0.0717	0.3396	-0.086
Mof_H 	H 	0.6026	0.013	0.3061	0.079
Mof_C 	C 	0.6063	0.0811	0.4255	0.058
Mof_H 	H 	0.6007	0.0279	0.4506	0.018
Mof_C 	C 	0.6105	0.1307	0.2049	0.199
Mof_C 	C 	0.5942	0.1489	0.9352	0.117
Mof_H 	H 	0.5495	0.1054	0.8866	0.005
Mof_C 	C 	0.5878	0.1413	0.0185	-0.209
Mof_H 	H 	0.5401	0.0925	0.027	0.127
Mof_C 	C 	0.6525	0.2065	0.0901	0.22
Mof_C 	C 	0.7194	0.2745	0.0749	-0.237
Mof_H 	H 	0.7636	0.3205	0.122	0.111
Mof_C 	C 	0.7224	0.2758	0.9901	0.139
Mof_H 	H 	0.7711	0.3227	0.9804	-0.023
Mof_N 	N 	0.6125	0.1619	0.4752	-0.243
Mof_N 	N 	0.6507	0.2056	0.177	-0.25
Mof_H 	H 	0.6778	0.2579	0.2159	0.126
Mof_N 	N 	0.6615	0.2156	0.9211	-0.27
Mof_O 	O 	0.6383	0.0727	0.76	-0.456
Mof_O 	O 	0.6096	0.0402	0.6142	-0.458
Mof_O 	O 	0.7574	0.2056	0.6539	-0.468
Mof_O 	O 	0.8025	0.2234	0.799	-0.447
Mof_O 	O 	0.683	0.3471	0.7802	-0.453
Mof_O 	O 	0.6224	0.3083	0.6343	-0.465
Mof_O 	O 	0.4736	0.1459	0.6071	-0.447
Mof_O 	O 	0.5233	0.1948	0.7525	-0.468
Mof_O 	O 	0.5748	0.051	0.1581	-0.225
Mof_Zn	Zn	0.61147	0.17098	0.60253	1.215
Mof_Zn	Zn	0.66652	0.21488	0.79623	1.217
_end
