data_functionalizedCrystal
_audit_creation_method	'EQeq! by Chris Wilmer'
_symmetry_space_group_name_H-M	'P1'
_symmetry_Int_Tables_number	1
_symmetry_cell_setting	triclinic
loop_
_symmetry_equiv_pos_as_xyz
  x,y,z
_cell_length_a	11.7603
_cell_length_b	18.7107
_cell_length_c	18.7107
_cell_angle_alpha	90
_cell_angle_beta	90
_cell_angle_gamma	90
loop_
_atom_site_label
_atom_site_type_symbol
_atom_site_fract_x
_atom_site_fract_y
_atom_site_fract_z
_atom_site_charge
Mof_Zn	Zn	0.64386	0.28571	0.78162	1.236
Mof_Zn	Zn	0.64386	0.71429	0.21838	1.236
Mof_Zn	Zn	0.14386	0.21838	0.28571	1.235
Mof_Zn	Zn	0.14386	0.78162	0.71429	1.235
Mof_Zn	Zn	0.64386	0.78571	0.71838	1.235
Mof_Zn	Zn	0.64386	0.21429	0.28162	1.235
Mof_Zn	Zn	0.14386	0.71838	0.21429	1.235
Mof_Zn	Zn	0.14386	0.28162	0.78571	1.235
Mof_Co	Co	0.81794	0.15389	0.82168	1.125
Mof_Co	Co	0.81794	0.84611	0.17832	1.125
Mof_Co	Co	0.31794	0.17832	0.15389	1.126
Mof_Co	Co	0.31794	0.82168	0.84611	1.126
Mof_Co	Co	0.81794	0.65389	0.67832	1.125
Mof_Co	Co	0.81794	0.34611	0.32168	1.125
Mof_Co	Co	0.31794	0.67832	0.34611	1.126
Mof_Co	Co	0.31794	0.32168	0.65389	1.126
Mof_H 	H 	0.0898	0.2717	0.5087	0.026
Mof_H 	H 	0.7098	0.221	0.5567	0.048
Mof_H 	H 	0.0898	0.7283	0.4913	0.026
Mof_H 	H 	0.7098	0.779	0.4433	0.048
Mof_H 	H 	0.5898	0.4913	0.2717	0.036
Mof_H 	H 	0.2098	0.4433	0.221	0.046
Mof_H 	H 	0.5898	0.5087	0.7283	0.036
Mof_H 	H 	0.2098	0.5567	0.779	0.046
Mof_H 	H 	0.0898	0.7717	0.9913	0.026
Mof_H 	H 	0.7098	0.721	0.9433	0.048
Mof_H 	H 	0.0898	0.2283	0.0087	0.026
Mof_H 	H 	0.7098	0.279	0.0567	0.048
Mof_H 	H 	0.5898	0.9913	0.2283	0.036
Mof_H 	H 	0.2098	0.9433	0.279	0.046
Mof_H 	H 	0.5898	0.0087	0.7717	0.036
Mof_H 	H 	0.2098	0.0567	0.721	0.046
Mof_C 	C 	0.8101	0.2409	0.6783	0.366
Mof_C 	C 	0.8594	0.2458	0.6047	-0.042
Mof_C 	C 	0.9715	0.262	0.5887	-0.106
Mof_C 	C 	0.0119	0.2621	0.518	0.052
Mof_C 	C 	0.939	0.2482	0.4624	-0.1
Mof_C 	C 	0.8229	0.2332	0.4755	-0.067
Mof_C 	C 	0.7871	0.2319	0.547	-0.008
Mof_C 	C 	0.0577	0.2821	0.6448	0.399
Mof_C 	C 	0.9925	0.2518	0.3894	0.33
Mof_C 	C 	0.7333	0.2208	0.4199	0.32
Mof_C 	C 	0.8101	0.7591	0.3217	0.366
Mof_C 	C 	0.8594	0.7542	0.3953	-0.042
Mof_C 	C 	0.9715	0.738	0.4113	-0.106
Mof_C 	C 	0.0119	0.7379	0.482	0.052
Mof_C 	C 	0.939	0.7518	0.5376	-0.1
Mof_C 	C 	0.8229	0.7668	0.5245	-0.067
Mof_C 	C 	0.7871	0.7681	0.453	-0.008
Mof_C 	C 	0.0577	0.7179	0.3552	0.399
Mof_C 	C 	0.9925	0.7482	0.6106	0.33
Mof_C 	C 	0.7333	0.7792	0.5801	0.32
Mof_C 	C 	0.3101	0.3217	0.2409	0.371
Mof_C 	C 	0.3594	0.3953	0.2458	-0.054
Mof_C 	C 	0.4715	0.4113	0.262	-0.074
Mof_C 	C 	0.5119	0.482	0.2621	0.013
Mof_C 	C 	0.439	0.5376	0.2482	-0.078
Mof_C 	C 	0.3229	0.5245	0.2332	-0.077
Mof_C 	C 	0.2871	0.453	0.2319	0.004
Mof_C 	C 	0.5577	0.3552	0.2821	0.383
Mof_C 	C 	0.4925	0.6106	0.2518	0.335
Mof_C 	C 	0.2333	0.5801	0.2208	0.324
Mof_C 	C 	0.3101	0.6783	0.7591	0.371
Mof_C 	C 	0.3594	0.6047	0.7542	-0.054
Mof_C 	C 	0.4715	0.5887	0.738	-0.074
Mof_C 	C 	0.5119	0.518	0.7379	0.013
Mof_C 	C 	0.439	0.4624	0.7518	-0.078
Mof_C 	C 	0.3229	0.4755	0.7668	-0.077
Mof_C 	C 	0.2871	0.547	0.7681	0.004
Mof_C 	C 	0.5577	0.6448	0.7179	0.383
Mof_C 	C 	0.4925	0.3894	0.7482	0.335
Mof_C 	C 	0.2333	0.4199	0.7792	0.324
Mof_C 	C 	0.8101	0.7409	0.8217	0.366
Mof_C 	C 	0.8594	0.7458	0.8953	-0.042
Mof_C 	C 	0.9715	0.762	0.9113	-0.105
Mof_C 	C 	0.0119	0.7621	0.982	0.051
Mof_C 	C 	0.939	0.7482	0.0376	-0.1
Mof_C 	C 	0.8229	0.7332	0.0245	-0.068
Mof_C 	C 	0.7871	0.7319	0.953	-0.008
Mof_C 	C 	0.0577	0.7821	0.8552	0.399
Mof_C 	C 	0.9925	0.7518	0.1106	0.33
Mof_C 	C 	0.7333	0.7208	0.0801	0.32
Mof_C 	C 	0.8101	0.2591	0.1783	0.366
Mof_C 	C 	0.8594	0.2542	0.1047	-0.042
Mof_C 	C 	0.9715	0.238	0.0887	-0.105
Mof_C 	C 	0.0119	0.2379	0.018	0.051
Mof_C 	C 	0.939	0.2518	0.9624	-0.1
Mof_C 	C 	0.8229	0.2668	0.9755	-0.068
Mof_C 	C 	0.7871	0.2681	0.047	-0.008
Mof_C 	C 	0.0577	0.2179	0.1448	0.399
Mof_C 	C 	0.9925	0.2482	0.8894	0.33
Mof_C 	C 	0.7333	0.2792	0.9199	0.32
Mof_C 	C 	0.3101	0.8217	0.2591	0.371
Mof_C 	C 	0.3594	0.8953	0.2542	-0.054
Mof_C 	C 	0.4715	0.9113	0.238	-0.074
Mof_C 	C 	0.5119	0.982	0.2379	0.013
Mof_C 	C 	0.439	0.0376	0.2518	-0.078
Mof_C 	C 	0.3229	0.0245	0.2668	-0.077
Mof_C 	C 	0.2871	0.953	0.2681	0.004
Mof_C 	C 	0.5577	0.8552	0.2179	0.383
Mof_C 	C 	0.4925	0.1106	0.2482	0.335
Mof_C 	C 	0.2333	0.0801	0.2792	0.324
Mof_C 	C 	0.3101	0.1783	0.7409	0.371
Mof_C 	C 	0.3594	0.1047	0.7458	-0.054
Mof_C 	C 	0.4715	0.0887	0.762	-0.074
Mof_C 	C 	0.5119	0.018	0.7621	0.013
Mof_C 	C 	0.439	0.9624	0.7482	-0.078
Mof_C 	C 	0.3229	0.9755	0.7332	-0.077
Mof_C 	C 	0.2871	0.047	0.7319	0.004
Mof_C 	C 	0.5577	0.1448	0.7821	0.383
Mof_C 	C 	0.4925	0.8894	0.7518	0.335
Mof_C 	C 	0.2333	0.9199	0.7208	0.324
Mof_O 	O 	0.8268	0.1871	0.7149	-0.441
Mof_O 	O 	0.7404	0.292	0.6952	-0.448
Mof_O 	O 	0.0312	0.2774	0.709	-0.472
Mof_O 	O 	0.1531	0.3053	0.6226	-0.486
Mof_O 	O 	0.073	0.2075	0.3795	-0.418
Mof_O 	O 	0.9713	0.3021	0.3454	-0.473
Mof_O 	O 	0.7598	0.2374	0.3544	-0.545
Mof_O 	O 	0.6388	0.1996	0.4354	-0.301
Mof_O 	O 	0.8268	0.8129	0.2851	-0.441
Mof_O 	O 	0.7404	0.708	0.3048	-0.448
Mof_O 	O 	0.0312	0.7226	0.291	-0.472
Mof_O 	O 	0.1531	0.6947	0.3774	-0.486
Mof_O 	O 	0.073	0.7925	0.6205	-0.418
Mof_O 	O 	0.9713	0.6979	0.6546	-0.473
Mof_O 	O 	0.7598	0.7626	0.6456	-0.545
Mof_O 	O 	0.6388	0.8004	0.5646	-0.301
Mof_O 	O 	0.3268	0.2851	0.1871	-0.441
Mof_O 	O 	0.2404	0.3048	0.292	-0.447
Mof_O 	O 	0.5312	0.291	0.2774	-0.472
Mof_O 	O 	0.6531	0.3774	0.3053	-0.484
Mof_O 	O 	0.573	0.6205	0.2075	-0.426
Mof_O 	O 	0.4713	0.6546	0.3021	-0.47
Mof_O 	O 	0.2598	0.6456	0.2374	-0.545
Mof_O 	O 	0.1388	0.5646	0.1996	-0.299
Mof_O 	O 	0.3268	0.7149	0.8129	-0.441
Mof_O 	O 	0.2404	0.6952	0.708	-0.447
Mof_O 	O 	0.5312	0.709	0.7226	-0.472
Mof_O 	O 	0.6531	0.6226	0.6947	-0.484
Mof_O 	O 	0.573	0.3795	0.7925	-0.426
Mof_O 	O 	0.4713	0.3454	0.6979	-0.47
Mof_O 	O 	0.2598	0.3544	0.7626	-0.545
Mof_O 	O 	0.1388	0.4354	0.8004	-0.299
Mof_O 	O 	0.8268	0.6871	0.7851	-0.441
Mof_O 	O 	0.7404	0.792	0.8048	-0.448
Mof_O 	O 	0.0312	0.7774	0.791	-0.472
Mof_O 	O 	0.1531	0.8053	0.8774	-0.486
Mof_O 	O 	0.073	0.7075	0.1205	-0.418
Mof_O 	O 	0.9713	0.8021	0.1546	-0.473
Mof_O 	O 	0.7598	0.7374	0.1456	-0.545
Mof_O 	O 	0.6388	0.6996	0.0646	-0.301
Mof_O 	O 	0.8268	0.3129	0.2149	-0.441
Mof_O 	O 	0.7404	0.208	0.1952	-0.448
Mof_O 	O 	0.0312	0.2226	0.209	-0.472
Mof_O 	O 	0.1531	0.1947	0.1226	-0.486
Mof_O 	O 	0.073	0.2925	0.8795	-0.418
Mof_O 	O 	0.9713	0.1979	0.8454	-0.473
Mof_O 	O 	0.7598	0.2626	0.8544	-0.545
Mof_O 	O 	0.6388	0.3004	0.9354	-0.301
Mof_O 	O 	0.3268	0.7851	0.3129	-0.441
Mof_O 	O 	0.2404	0.8048	0.208	-0.447
Mof_O 	O 	0.5312	0.791	0.2226	-0.472
Mof_O 	O 	0.6531	0.8774	0.1947	-0.484
Mof_O 	O 	0.573	0.1205	0.2925	-0.426
Mof_O 	O 	0.4713	0.1546	0.1979	-0.47
Mof_O 	O 	0.2598	0.1456	0.2626	-0.545
Mof_O 	O 	0.1388	0.0646	0.3004	-0.299
Mof_O 	O 	0.3268	0.2149	0.6871	-0.441
Mof_O 	O 	0.2404	0.1952	0.792	-0.447
Mof_O 	O 	0.5312	0.209	0.7774	-0.472
Mof_O 	O 	0.6531	0.1226	0.8053	-0.484
Mof_O 	O 	0.573	0.8795	0.7075	-0.426
Mof_O 	O 	0.4713	0.8454	0.8021	-0.47
Mof_O 	O 	0.2598	0.8544	0.7374	-0.545
Mof_O 	O 	0.1388	0.9354	0.6996	-0.299
_end
