data_functionalizedCrystal
_audit_creation_method	'EQeq! by Chris Wilmer'
_symmetry_space_group_name_H-M	'P1'
_symmetry_Int_Tables_number	1
_symmetry_cell_setting	triclinic
loop_
_symmetry_equiv_pos_as_xyz
  x,y,z
_cell_length_a	17.15
_cell_length_b	12.284
_cell_length_c	11.144
_cell_angle_alpha	90
_cell_angle_beta	127.549
_cell_angle_gamma	90
loop_
_atom_site_label
_atom_site_type_symbol
_atom_site_fract_x
_atom_site_fract_y
_atom_site_fract_z
_atom_site_charge
Mof_Sm	Sm	0.21681	0.35192	0.12023	2.174
Mof_O 	O 	0.1648	0.3555	0.2745	-0.602
Mof_O 	O 	0.226	0.1683	0.2084	-0.608
Mof_O 	O 	0.1287	0.3156	0.428	-0.39
Mof_O 	O 	0.2004	0.0164	0.2849	-0.675
Mof_C 	C 	0.1398	0.2889	0.3321	0.576
Mof_C 	C 	0.1189	0.1716	0.2793	-0.662
Mof_C 	C 	0.1878	0.1161	0.2569	0.683
Mof_O 	O 	0.051	0.2575	0.9411	-0.519
Mof_O 	O 	0.1595	0.2096	0.9083	-0.69
Mof_C 	C 	0.0757	0.201	0.8758	0.505
Mof_H 	H 	0.054	0.167	0.185	0.224
Mof_H 	H 	0.029	0.074	0.711	0.113
Mof_H 	H 	0.119	0.126	0.364	0.163
Mof_Sm	Sm	0.71681	0.85192	0.12023	2.143
Mof_O 	O 	0.6648	0.8555	0.2745	-0.602
Mof_O 	O 	0.726	0.6683	0.2084	-0.607
Mof_O 	O 	0.6287	0.8156	0.428	-0.398
Mof_O 	O 	0.7004	0.5164	0.2849	-0.676
Mof_C 	C 	0.6398	0.7889	0.3321	0.57
Mof_C 	C 	0.6189	0.6716	0.2793	-0.653
Mof_C 	C 	0.6878	0.6161	0.2569	0.676
Mof_O 	O 	0.551	0.7575	0.9411	-0.537
Mof_O 	O 	0.6595	0.7096	0.9083	-0.697
Mof_C 	C 	0.5757	0.701	0.8758	0.531
Mof_H 	H 	0.554	0.667	0.185	0.21
Mof_H 	H 	0.529	0.574	0.711	0.131
Mof_H 	H 	0.619	0.626	0.364	0.155
Mof_Sm	Sm	0.78319	0.35192	0.37977	2.152
Mof_O 	O 	0.8352	0.3555	0.2255	-0.606
Mof_O 	O 	0.774	0.1683	0.2916	-0.602
Mof_O 	O 	0.8713	0.3156	0.072	-0.408
Mof_O 	O 	0.7996	0.0164	0.2151	-0.672
Mof_C 	C 	0.8602	0.2889	0.1679	0.565
Mof_C 	C 	0.8811	0.1716	0.2207	-0.646
Mof_C 	C 	0.8122	0.1161	0.2431	0.671
Mof_O 	O 	0.949	0.2575	0.5589	-0.544
Mof_O 	O 	0.8405	0.2096	0.5917	-0.688
Mof_C 	C 	0.9243	0.201	0.6242	0.468
Mof_H 	H 	0.946	0.167	0.315	0.197
Mof_H 	H 	0.971	0.074	0.789	0.073
Mof_H 	H 	0.881	0.126	0.136	0.148
Mof_Sm	Sm	0.28319	0.85192	0.37977	2.173
Mof_O 	O 	0.3352	0.8555	0.2255	-0.605
Mof_O 	O 	0.274	0.6683	0.2916	-0.604
Mof_O 	O 	0.3713	0.8156	0.072	-0.402
Mof_O 	O 	0.2996	0.5164	0.2151	-0.677
Mof_C 	C 	0.3602	0.7889	0.1679	0.572
Mof_C 	C 	0.3811	0.6716	0.2207	-0.656
Mof_C 	C 	0.3122	0.6161	0.2431	0.678
Mof_O 	O 	0.449	0.7575	0.5589	-0.544
Mof_O 	O 	0.3405	0.7096	0.5917	-0.703
Mof_C 	C 	0.4243	0.701	0.6242	0.533
Mof_H 	H 	0.446	0.667	0.315	0.212
Mof_H 	H 	0.471	0.574	0.789	0.132
Mof_H 	H 	0.381	0.626	0.136	0.154
Mof_Sm	Sm	0.78319	0.64808	0.87977	2.161
Mof_O 	O 	0.8352	0.6445	0.7255	-0.607
Mof_O 	O 	0.774	0.8317	0.7916	-0.602
Mof_O 	O 	0.8713	0.6844	0.572	-0.409
Mof_O 	O 	0.7996	0.9836	0.7151	-0.674
Mof_C 	C 	0.8602	0.7111	0.6679	0.566
Mof_C 	C 	0.8811	0.8284	0.7207	-0.647
Mof_C 	C 	0.8122	0.8839	0.7431	0.673
Mof_O 	O 	0.949	0.7425	0.0589	-0.546
Mof_O 	O 	0.8405	0.7904	0.0917	-0.689
Mof_C 	C 	0.9243	0.799	0.1242	0.468
Mof_H 	H 	0.946	0.833	0.815	0.198
Mof_H 	H 	0.971	0.926	0.289	0.074
Mof_H 	H 	0.881	0.874	0.636	0.147
Mof_Sm	Sm	0.28319	0.14808	0.87977	2.172
Mof_O 	O 	0.3352	0.1445	0.7255	-0.604
Mof_O 	O 	0.274	0.3317	0.7916	-0.603
Mof_O 	O 	0.3713	0.1844	0.572	-0.399
Mof_O 	O 	0.2996	0.4836	0.7151	-0.676
Mof_C 	C 	0.3602	0.2111	0.6679	0.572
Mof_C 	C 	0.3811	0.3284	0.7207	-0.655
Mof_C 	C 	0.3122	0.3839	0.7431	0.679
Mof_O 	O 	0.449	0.2425	0.0589	-0.543
Mof_O 	O 	0.3405	0.2904	0.0917	-0.703
Mof_C 	C 	0.4243	0.299	0.1242	0.532
Mof_H 	H 	0.446	0.333	0.815	0.212
Mof_H 	H 	0.471	0.426	0.289	0.131
Mof_H 	H 	0.381	0.374	0.636	0.155
Mof_Sm	Sm	0.21681	0.64808	0.62023	2.182
Mof_O 	O 	0.1648	0.6445	0.7745	-0.6
Mof_O 	O 	0.226	0.8317	0.7084	-0.606
Mof_O 	O 	0.1287	0.6844	0.928	-0.386
Mof_O 	O 	0.2004	0.9836	0.7849	-0.671
Mof_C 	C 	0.1398	0.7111	0.8321	0.578
Mof_C 	C 	0.1189	0.8284	0.7793	-0.662
Mof_C 	C 	0.1878	0.8839	0.7569	0.684
Mof_O 	O 	0.051	0.7425	0.4411	-0.522
Mof_O 	O 	0.1595	0.7904	0.4083	-0.692
Mof_C 	C 	0.0757	0.799	0.3758	0.506
Mof_H 	H 	0.054	0.833	0.685	0.226
Mof_H 	H 	0.029	0.926	0.211	0.113
Mof_H 	H 	0.119	0.874	0.864	0.167
Mof_Sm	Sm	0.71681	0.14808	0.62023	2.155
Mof_O 	O 	0.6648	0.1445	0.7745	-0.603
Mof_O 	O 	0.726	0.3317	0.7084	-0.607
Mof_O 	O 	0.6287	0.1844	0.928	-0.398
Mof_O 	O 	0.7004	0.4836	0.7849	-0.677
Mof_C 	C 	0.6398	0.2111	0.8321	0.571
Mof_C 	C 	0.6189	0.3284	0.7793	-0.655
Mof_C 	C 	0.6878	0.3839	0.7569	0.677
Mof_O 	O 	0.551	0.2425	0.4411	-0.542
Mof_O 	O 	0.6595	0.2904	0.4083	-0.7
Mof_C 	C 	0.5757	0.299	0.3758	0.532
Mof_H 	H 	0.554	0.333	0.685	0.211
Mof_H 	H 	0.529	0.426	0.211	0.131
Mof_H 	H 	0.619	0.374	0.864	0.156
Mof_C 	C 	2.94086e-33	0.1251	0.75	-0.405
Mof_C 	C 	0.5	0.6251	0.75	-0.524
Mof_C 	C 	-1.52695e-17	0.8749	0.25	-0.407
Mof_C 	C 	0.5	0.3749	0.25	-0.524
_end
