data_functionalizedCrystal
_audit_creation_method	'EQeq! by Chris Wilmer'
_symmetry_space_group_name_H-M	'P1'
_symmetry_Int_Tables_number	1
_symmetry_cell_setting	triclinic
loop_
_symmetry_equiv_pos_as_xyz
  x,y,z
_cell_length_a	33.786
_cell_length_b	33.786
_cell_length_c	8.417
_cell_angle_alpha	90
_cell_angle_beta	90
_cell_angle_gamma	120
loop_
_atom_site_label
_atom_site_type_symbol
_atom_site_fract_x
_atom_site_fract_y
_atom_site_fract_z
_atom_site_charge
Mof_Ag	Ag	0.14745	0.32186	0.5046	0.442
Mof_O 	O 	0.33579	0.33034	0.7852	-0.215
Mof_N 	N 	0.20642	0.34187	0.6621	-0.193
Mof_N 	N 	0.2793	0.19753	0.6163	-0.199
Mof_C 	C 	0.21927	0.37744	0.761	0.05
Mof_H 	H 	0.2027	0.3933	0.7598	-0.017
Mof_C 	C 	0.25576	0.39191	0.8648	-0.119
Mof_H 	H 	0.2636	0.417	0.9341	0.049
Mof_C 	C 	0.28063	0.3695	0.8664	0.005
Mof_H 	H 	0.3064	0.3794	0.9341	0.042
Mof_C 	C 	0.26681	0.332	0.7659	-0.067
Mof_C 	C 	0.23	0.31953	0.6665	0.043
Mof_H 	H 	0.2209	0.294	0.5982	-0.001
Mof_C 	C 	0.29469	0.30859	0.7613	0.172
Mof_C 	C 	0.27161	0.25873	0.728	-0.067
Mof_C 	C 	0.22809	0.22797	0.7838	0.011
Mof_H 	H 	0.2106	0.2383	0.8406	0.016
Mof_C 	C 	0.2108	0.18161	0.754	-0.112
Mof_H 	H 	0.1813	0.1596	0.7914	0.054
Mof_C 	C 	0.23695	0.1682	0.6698	0.055
Mof_H 	H 	0.2245	0.1366	0.6483	-0.019
Mof_C 	C 	0.29613	0.24195	0.6464	0.05
Mof_H 	H 	0.3261	0.263	0.6108	0.014
Mof_Ag	Ag	0.81412	0.65519	0.83793	0.443
Mof_O 	O 	0.00246	0.66367	0.11853	-0.214
Mof_N 	N 	0.87309	0.6752	0.99543	-0.192
Mof_N 	N 	0.94597	0.53086	0.94963	-0.198
Mof_C 	C 	0.88594	0.71077	0.09433	0.051
Mof_H 	H 	0.86937	0.72663	0.09313	-0.016
Mof_C 	C 	0.92243	0.72524	0.19813	-0.119
Mof_H 	H 	0.93027	0.75033	0.26743	0.049
Mof_C 	C 	0.9473	0.70283	0.19973	0.005
Mof_H 	H 	0.97307	0.71273	0.26743	0.042
Mof_C 	C 	0.93348	0.66533	0.09923	-0.067
Mof_C 	C 	0.89667	0.65286	0.99983	0.043
Mof_H 	H 	0.88757	0.62733	0.93153	-0.001
Mof_C 	C 	0.96136	0.64192	0.09463	0.172
Mof_C 	C 	0.93828	0.59206	0.06133	-0.067
Mof_C 	C 	0.89476	0.5613	0.11713	0.011
Mof_H 	H 	0.87727	0.57163	0.17393	0.016
Mof_C 	C 	0.87747	0.51494	0.08733	-0.112
Mof_H 	H 	0.84797	0.49293	0.12473	0.054
Mof_C 	C 	0.90362	0.50153	0.00313	0.055
Mof_H 	H 	0.89117	0.46993	0.98163	-0.019
Mof_C 	C 	0.9628	0.57528	0.97973	0.051
Mof_H 	H 	0.99277	0.59633	0.94413	0.014
Mof_Ag	Ag	0.48079	0.98852	0.17127	0.443
Mof_O 	O 	0.66912	0.99701	0.45187	-0.214
Mof_N 	N 	0.53975	0.00854	0.32877	-0.192
Mof_N 	N 	0.61263	0.8642	0.28297	-0.198
Mof_C 	C 	0.5526	0.04411	0.42767	0.051
Mof_H 	H 	0.53603	0.05997	0.42647	-0.016
Mof_C 	C 	0.58909	0.05858	0.53147	-0.119
Mof_H 	H 	0.59693	0.08367	0.60077	0.049
Mof_C 	C 	0.61396	0.03617	0.53307	0.005
Mof_H 	H 	0.63973	0.04607	0.60077	0.042
Mof_C 	C 	0.60014	0.99867	0.43257	-0.067
Mof_C 	C 	0.56333	0.9862	0.33317	0.043
Mof_H 	H 	0.55423	0.96067	0.26487	-0.001
Mof_C 	C 	0.62802	0.97526	0.42797	0.172
Mof_C 	C 	0.60494	0.9254	0.39467	-0.067
Mof_C 	C 	0.56142	0.89464	0.45047	0.011
Mof_H 	H 	0.54393	0.90497	0.50727	0.016
Mof_C 	C 	0.54413	0.84828	0.42067	-0.112
Mof_H 	H 	0.51463	0.82627	0.45807	0.054
Mof_C 	C 	0.57028	0.83487	0.33647	0.055
Mof_H 	H 	0.55783	0.80327	0.31497	-0.019
Mof_C 	C 	0.62946	0.90862	0.31307	0.05
Mof_H 	H 	0.65943	0.92967	0.27747	0.014
Mof_Ag	Ag	0.67814	0.8256	0.5046	0.443
Mof_O 	O 	0.66966	0.00545	0.7852	-0.214
Mof_N 	N 	0.65813	0.86455	0.6621	-0.192
Mof_N 	N 	0.80247	0.08177	0.6163	-0.198
Mof_C 	C 	0.62256	0.84183	0.761	0.051
Mof_H 	H 	0.6067	0.8094	0.7598	-0.016
Mof_C 	C 	0.60809	0.86385	0.8648	-0.119
Mof_H 	H 	0.583	0.8466	0.9341	0.049
Mof_C 	C 	0.6305	0.91113	0.8664	0.005
Mof_H 	H 	0.6206	0.927	0.9341	0.042
Mof_C 	C 	0.668	0.93481	0.7659	-0.067
Mof_C 	C 	0.68047	0.91047	0.6665	0.043
Mof_H 	H 	0.706	0.9269	0.5982	-0.001
Mof_C 	C 	0.69141	0.9861	0.7613	0.172
Mof_C 	C 	0.74127	0.01288	0.728	-0.067
Mof_C 	C 	0.77203	0.00012	0.7838	0.011
Mof_H 	H 	0.7617	0.9723	0.8406	0.016
Mof_C 	C 	0.81839	0.02919	0.754	-0.112
Mof_H 	H 	0.8404	0.0217	0.7914	0.054
Mof_C 	C 	0.8318	0.06875	0.6698	0.055
Mof_H 	H 	0.8634	0.0879	0.6483	-0.019
Mof_C 	C 	0.75805	0.05418	0.6464	0.05
Mof_H 	H 	0.737	0.0631	0.6108	0.014
Mof_Ag	Ag	0.34481	0.15893	0.83793	0.443
Mof_O 	O 	0.33633	0.33878	0.11853	-0.214
Mof_N 	N 	0.3248	0.19788	0.99543	-0.192
Mof_N 	N 	0.46914	0.4151	0.94963	-0.198
Mof_C 	C 	0.28923	0.17516	0.09433	0.051
Mof_H 	H 	0.27337	0.14273	0.09313	-0.016
Mof_C 	C 	0.27476	0.19718	0.19813	-0.119
Mof_H 	H 	0.24967	0.17993	0.26743	0.049
Mof_C 	C 	0.29717	0.24446	0.19973	0.005
Mof_H 	H 	0.28727	0.26033	0.26743	0.042
Mof_C 	C 	0.33467	0.26814	0.09923	-0.067
Mof_C 	C 	0.34714	0.2438	0.99983	0.043
Mof_H 	H 	0.37267	0.26023	0.93153	-0.001
Mof_C 	C 	0.35808	0.31943	0.09463	0.172
Mof_C 	C 	0.40794	0.34621	0.06133	-0.067
Mof_C 	C 	0.4387	0.33345	0.11713	0.011
Mof_H 	H 	0.42837	0.30563	0.17393	0.016
Mof_C 	C 	0.48506	0.36252	0.08733	-0.112
Mof_H 	H 	0.50707	0.35503	0.12473	0.054
Mof_C 	C 	0.49847	0.40208	0.00313	0.056
Mof_H 	H 	0.53007	0.42123	0.98163	-0.019
Mof_C 	C 	0.42472	0.38751	0.97973	0.05
Mof_H 	H 	0.40367	0.39643	0.94413	0.014
Mof_Ag	Ag	0.01148	0.49226	0.17127	0.443
Mof_O 	O 	0.00299	0.67212	0.45187	-0.214
Mof_N 	N 	0.99146	0.53122	0.32877	-0.192
Mof_N 	N 	0.1358	0.74844	0.28297	-0.198
Mof_C 	C 	0.95589	0.5085	0.42767	0.051
Mof_H 	H 	0.94003	0.47607	0.42647	-0.016
Mof_C 	C 	0.94142	0.53052	0.53147	-0.119
Mof_H 	H 	0.91633	0.51327	0.60077	0.049
Mof_C 	C 	0.96383	0.5778	0.53307	0.005
Mof_H 	H 	0.95393	0.59367	0.60077	0.042
Mof_C 	C 	0.00133	0.60148	0.43257	-0.067
Mof_C 	C 	0.0138	0.57714	0.33317	0.043
Mof_H 	H 	0.03933	0.59357	0.26487	-0.001
Mof_C 	C 	0.02474	0.65277	0.42797	0.172
Mof_C 	C 	0.0746	0.67955	0.39467	-0.067
Mof_C 	C 	0.10536	0.66679	0.45047	0.011
Mof_H 	H 	0.09503	0.63897	0.50727	0.016
Mof_C 	C 	0.15172	0.69586	0.42067	-0.112
Mof_H 	H 	0.17373	0.68837	0.45807	0.054
Mof_C 	C 	0.16513	0.73542	0.33647	0.055
Mof_H 	H 	0.19673	0.75457	0.31497	-0.019
Mof_C 	C 	0.09138	0.72085	0.31307	0.051
Mof_H 	H 	0.07033	0.72977	0.27747	0.014
Mof_Ag	Ag	0.1744	0.85255	0.5046	0.443
Mof_O 	O 	0.99455	0.66421	0.7852	-0.214
Mof_N 	N 	0.13545	0.79358	0.6621	-0.192
Mof_N 	N 	0.91823	0.7207	0.6163	-0.198
Mof_C 	C 	0.15817	0.78073	0.761	0.051
Mof_H 	H 	0.1906	0.7973	0.7598	-0.016
Mof_C 	C 	0.13615	0.74424	0.8648	-0.119
Mof_H 	H 	0.1534	0.7364	0.9341	0.049
Mof_C 	C 	0.08887	0.71937	0.8664	0.005
Mof_H 	H 	0.073	0.6936	0.9341	0.042
Mof_C 	C 	0.06519	0.73319	0.7659	-0.067
Mof_C 	C 	0.08953	0.77	0.6665	0.043
Mof_H 	H 	0.0731	0.7791	0.5982	-0.001
Mof_C 	C 	0.0139	0.70531	0.7613	0.171
Mof_C 	C 	0.98712	0.72839	0.728	-0.067
Mof_C 	C 	0.99988	0.77191	0.7838	0.011
Mof_H 	H 	0.0277	0.7894	0.8406	0.016
Mof_C 	C 	0.97081	0.7892	0.754	-0.112
Mof_H 	H 	0.9783	0.8187	0.7914	0.054
Mof_C 	C 	0.93125	0.76305	0.6698	0.055
Mof_H 	H 	0.9121	0.7755	0.6483	-0.019
Mof_C 	C 	0.94582	0.70387	0.6464	0.05
Mof_H 	H 	0.9369	0.6739	0.6108	0.014
Mof_Ag	Ag	0.84107	0.18588	0.83793	0.443
Mof_O 	O 	0.66122	0.99754	0.11853	-0.214
Mof_N 	N 	0.80212	0.12691	0.99543	-0.192
Mof_N 	N 	0.5849	0.05403	0.94963	-0.198
Mof_C 	C 	0.82484	0.11406	0.09433	0.051
Mof_H 	H 	0.85727	0.13063	0.09313	-0.016
Mof_C 	C 	0.80282	0.07757	0.19813	-0.119
Mof_H 	H 	0.82007	0.06973	0.26743	0.049
Mof_C 	C 	0.75554	0.0527	0.19973	0.005
Mof_H 	H 	0.73967	0.02693	0.26743	0.042
Mof_C 	C 	0.73186	0.06652	0.09923	-0.067
Mof_C 	C 	0.7562	0.10333	0.99983	0.043
Mof_H 	H 	0.73977	0.11243	0.93153	-0.001
Mof_C 	C 	0.68057	0.03864	0.09463	0.172
Mof_C 	C 	0.65379	0.06172	0.06133	-0.067
Mof_C 	C 	0.66655	0.10524	0.11713	0.011
Mof_H 	H 	0.69437	0.12273	0.17393	0.016
Mof_C 	C 	0.63748	0.12253	0.08733	-0.112
Mof_H 	H 	0.64497	0.15203	0.12473	0.054
Mof_C 	C 	0.59792	0.09638	0.00313	0.055
Mof_H 	H 	0.57877	0.10883	0.98163	-0.019
Mof_C 	C 	0.61249	0.0372	0.97973	0.051
Mof_H 	H 	0.60357	0.00723	0.94413	0.014
Mof_Ag	Ag	0.50774	0.51921	0.17127	0.443
Mof_O 	O 	0.32788	0.33088	0.45187	-0.214
Mof_N 	N 	0.46878	0.46025	0.32877	-0.192
Mof_N 	N 	0.25156	0.38737	0.28297	-0.198
Mof_C 	C 	0.4915	0.4474	0.42767	0.051
Mof_H 	H 	0.52393	0.46397	0.42647	-0.016
Mof_C 	C 	0.46948	0.41091	0.53147	-0.119
Mof_H 	H 	0.48673	0.40307	0.60077	0.049
Mof_C 	C 	0.4222	0.38604	0.53307	0.005
Mof_H 	H 	0.40633	0.36027	0.60077	0.042
Mof_C 	C 	0.39852	0.39986	0.43257	-0.067
Mof_C 	C 	0.42286	0.43667	0.33317	0.043
Mof_H 	H 	0.40643	0.44577	0.26487	-0.001
Mof_C 	C 	0.34723	0.37198	0.42797	0.172
Mof_C 	C 	0.32045	0.39506	0.39467	-0.067
Mof_C 	C 	0.33321	0.43858	0.45047	0.011
Mof_H 	H 	0.36103	0.45607	0.50727	0.016
Mof_C 	C 	0.30414	0.45587	0.42067	-0.112
Mof_H 	H 	0.31163	0.48537	0.45807	0.054
Mof_C 	C 	0.26458	0.42972	0.33647	0.055
Mof_H 	H 	0.24543	0.44217	0.31497	-0.019
Mof_C 	C 	0.27915	0.37054	0.31307	0.05
Mof_H 	H 	0.27023	0.34057	0.27747	0.014
Mof_Ag	Ag	0.85255	0.67814	0.4954	0.443
Mof_O 	O 	0.66421	0.66966	0.2148	-0.214
Mof_N 	N 	0.79358	0.65813	0.3379	-0.192
Mof_N 	N 	0.7207	0.80247	0.3837	-0.198
Mof_C 	C 	0.78073	0.62256	0.239	0.051
Mof_H 	H 	0.7973	0.6067	0.2402	-0.016
Mof_C 	C 	0.74424	0.60809	0.1352	-0.119
Mof_H 	H 	0.7364	0.583	0.0659	0.049
Mof_C 	C 	0.71937	0.6305	0.1336	0.005
Mof_H 	H 	0.6936	0.6206	0.0659	0.042
Mof_C 	C 	0.73319	0.668	0.2341	-0.067
Mof_C 	C 	0.77	0.68047	0.3335	0.043
Mof_H 	H 	0.7791	0.706	0.4018	-0.001
Mof_C 	C 	0.70531	0.69141	0.2387	0.172
Mof_C 	C 	0.72839	0.74127	0.272	-0.067
Mof_C 	C 	0.77191	0.77203	0.2162	0.011
Mof_H 	H 	0.7894	0.7617	0.1594	0.016
Mof_C 	C 	0.7892	0.81839	0.246	-0.112
Mof_H 	H 	0.8187	0.8404	0.2086	0.054
Mof_C 	C 	0.76305	0.8318	0.3302	0.055
Mof_H 	H 	0.7755	0.8634	0.3517	-0.019
Mof_C 	C 	0.70387	0.75805	0.3536	0.05
Mof_H 	H 	0.6739	0.737	0.3892	0.014
Mof_Ag	Ag	0.51921	0.01148	0.82873	0.443
Mof_O 	O 	0.33088	0.00299	0.54813	-0.214
Mof_N 	N 	0.46025	0.99146	0.67123	-0.192
Mof_N 	N 	0.38737	0.1358	0.71703	-0.198
Mof_C 	C 	0.4474	0.95589	0.57233	0.051
Mof_H 	H 	0.46397	0.94003	0.57353	-0.016
Mof_C 	C 	0.41091	0.94142	0.46853	-0.119
Mof_H 	H 	0.40307	0.91633	0.39923	0.049
Mof_C 	C 	0.38604	0.96383	0.46693	0.005
Mof_H 	H 	0.36027	0.95393	0.39923	0.042
Mof_C 	C 	0.39986	0.00133	0.56743	-0.067
Mof_C 	C 	0.43667	0.0138	0.66683	0.043
Mof_H 	H 	0.44577	0.03933	0.73513	-0.001
Mof_C 	C 	0.37198	0.02474	0.57203	0.172
Mof_C 	C 	0.39506	0.0746	0.60533	-0.067
Mof_C 	C 	0.43858	0.10536	0.54953	0.011
Mof_H 	H 	0.45607	0.09503	0.49273	0.016
Mof_C 	C 	0.45587	0.15172	0.57933	-0.112
Mof_H 	H 	0.48537	0.17373	0.54193	0.054
Mof_C 	C 	0.42972	0.16513	0.66353	0.055
Mof_H 	H 	0.44217	0.19673	0.68503	-0.019
Mof_C 	C 	0.37054	0.09138	0.68693	0.05
Mof_H 	H 	0.34057	0.07033	0.72253	0.014
Mof_Ag	Ag	0.18588	0.34481	0.16207	0.443
Mof_O 	O 	0.99754	0.33633	0.88147	-0.214
Mof_N 	N 	0.12691	0.3248	0.00457	-0.192
Mof_N 	N 	0.05403	0.46914	0.05037	-0.198
Mof_C 	C 	0.11406	0.28923	0.90567	0.051
Mof_H 	H 	0.13063	0.27337	0.90687	-0.016
Mof_C 	C 	0.07757	0.27476	0.80187	-0.119
Mof_H 	H 	0.06973	0.24967	0.73257	0.049
Mof_C 	C 	0.0527	0.29717	0.80027	0.005
Mof_H 	H 	0.02693	0.28727	0.73257	0.042
Mof_C 	C 	0.06652	0.33467	0.90077	-0.067
Mof_C 	C 	0.10333	0.34714	0.00017	0.043
Mof_H 	H 	0.11243	0.37267	0.06847	-0.001
Mof_C 	C 	0.03864	0.35808	0.90537	0.172
Mof_C 	C 	0.06172	0.40794	0.93867	-0.067
Mof_C 	C 	0.10524	0.4387	0.88287	0.011
Mof_H 	H 	0.12273	0.42837	0.82607	0.016
Mof_C 	C 	0.12253	0.48506	0.91267	-0.112
Mof_H 	H 	0.15203	0.50707	0.87527	0.054
Mof_C 	C 	0.09638	0.49847	0.99687	0.055
Mof_H 	H 	0.10883	0.53007	0.01837	-0.019
Mof_C 	C 	0.0372	0.42472	0.02027	0.051
Mof_H 	H 	0.00723	0.40367	0.05587	0.014
Mof_Ag	Ag	0.32186	0.1744	0.4954	0.443
Mof_O 	O 	0.33034	0.99455	0.2148	-0.214
Mof_N 	N 	0.34187	0.13545	0.3379	-0.192
Mof_N 	N 	0.19753	0.91823	0.3837	-0.198
Mof_C 	C 	0.37744	0.15817	0.239	0.051
Mof_H 	H 	0.3933	0.1906	0.2402	-0.016
Mof_C 	C 	0.39191	0.13615	0.1352	-0.119
Mof_H 	H 	0.417	0.1534	0.0659	0.049
Mof_C 	C 	0.3695	0.08887	0.1336	0.005
Mof_H 	H 	0.3794	0.073	0.0659	0.042
Mof_C 	C 	0.332	0.06519	0.2341	-0.067
Mof_C 	C 	0.31953	0.08953	0.3335	0.043
Mof_H 	H 	0.294	0.0731	0.4018	-0.001
Mof_C 	C 	0.30859	0.0139	0.2387	0.172
Mof_C 	C 	0.25873	0.98712	0.272	-0.067
Mof_C 	C 	0.22797	0.99988	0.2162	0.011
Mof_H 	H 	0.2383	0.0277	0.1594	0.016
Mof_C 	C 	0.18161	0.97081	0.246	-0.112
Mof_H 	H 	0.1596	0.9783	0.2086	0.054
Mof_C 	C 	0.1682	0.93125	0.3302	0.055
Mof_H 	H 	0.1366	0.9121	0.3517	-0.019
Mof_C 	C 	0.24195	0.94582	0.3536	0.05
Mof_H 	H 	0.263	0.9369	0.3892	0.014
Mof_Ag	Ag	0.98852	0.50774	0.82873	0.443
Mof_O 	O 	0.99701	0.32788	0.54813	-0.214
Mof_N 	N 	0.00854	0.46878	0.67123	-0.192
Mof_N 	N 	0.8642	0.25156	0.71703	-0.198
Mof_C 	C 	0.04411	0.4915	0.57233	0.051
Mof_H 	H 	0.05997	0.52393	0.57353	-0.016
Mof_C 	C 	0.05858	0.46948	0.46853	-0.119
Mof_H 	H 	0.08367	0.48673	0.39923	0.049
Mof_C 	C 	0.03617	0.4222	0.46693	0.005
Mof_H 	H 	0.04607	0.40633	0.39923	0.042
Mof_C 	C 	0.99867	0.39852	0.56743	-0.067
Mof_C 	C 	0.9862	0.42286	0.66683	0.043
Mof_H 	H 	0.96067	0.40643	0.73513	-0.001
Mof_C 	C 	0.97526	0.34723	0.57203	0.172
Mof_C 	C 	0.9254	0.32045	0.60533	-0.067
Mof_C 	C 	0.89464	0.33321	0.54953	0.011
Mof_H 	H 	0.90497	0.36103	0.49273	0.016
Mof_C 	C 	0.84828	0.30414	0.57933	-0.112
Mof_H 	H 	0.82627	0.31163	0.54193	0.054
Mof_C 	C 	0.83487	0.26458	0.66353	0.055
Mof_H 	H 	0.80327	0.24543	0.68503	-0.019
Mof_C 	C 	0.90862	0.27915	0.68693	0.051
Mof_H 	H 	0.92967	0.27023	0.72253	0.014
Mof_Ag	Ag	0.65519	0.84107	0.16207	0.443
Mof_O 	O 	0.66367	0.66122	0.88147	-0.214
Mof_N 	N 	0.6752	0.80212	0.00457	-0.192
Mof_N 	N 	0.53086	0.5849	0.05037	-0.198
Mof_C 	C 	0.71077	0.82484	0.90567	0.051
Mof_H 	H 	0.72663	0.85727	0.90687	-0.016
Mof_C 	C 	0.72524	0.80282	0.80187	-0.119
Mof_H 	H 	0.75033	0.82007	0.73257	0.049
Mof_C 	C 	0.70283	0.75554	0.80027	0.005
Mof_H 	H 	0.71273	0.73967	0.73257	0.042
Mof_C 	C 	0.66533	0.73186	0.90077	-0.067
Mof_C 	C 	0.65286	0.7562	0.00017	0.043
Mof_H 	H 	0.62733	0.73977	0.06847	-0.001
Mof_C 	C 	0.64192	0.68057	0.90537	0.172
Mof_C 	C 	0.59206	0.65379	0.93867	-0.067
Mof_C 	C 	0.5613	0.66655	0.88287	0.011
Mof_H 	H 	0.57163	0.69437	0.82607	0.016
Mof_C 	C 	0.51494	0.63748	0.91267	-0.112
Mof_H 	H 	0.49293	0.64497	0.87527	0.054
Mof_C 	C 	0.50153	0.59792	0.99687	0.056
Mof_H 	H 	0.46993	0.57877	0.01837	-0.019
Mof_C 	C 	0.57528	0.61249	0.02027	0.05
Mof_H 	H 	0.59633	0.60357	0.05587	0.014
Mof_Ag	Ag	0.8256	0.14745	0.4954	0.443
Mof_O 	O 	0.00545	0.33579	0.2148	-0.214
Mof_N 	N 	0.86455	0.20642	0.3379	-0.192
Mof_N 	N 	0.08177	0.2793	0.3837	-0.198
Mof_C 	C 	0.84183	0.21927	0.239	0.051
Mof_H 	H 	0.8094	0.2027	0.2402	-0.016
Mof_C 	C 	0.86385	0.25576	0.1352	-0.119
Mof_H 	H 	0.8466	0.2636	0.0659	0.049
Mof_C 	C 	0.91113	0.28063	0.1336	0.005
Mof_H 	H 	0.927	0.3064	0.0659	0.042
Mof_C 	C 	0.93481	0.26681	0.2341	-0.067
Mof_C 	C 	0.91047	0.23	0.3335	0.043
Mof_H 	H 	0.9269	0.2209	0.4018	-0.001
Mof_C 	C 	0.9861	0.29469	0.2387	0.171
Mof_C 	C 	0.01288	0.27161	0.272	-0.067
Mof_C 	C 	0.00012	0.22809	0.2162	0.011
Mof_H 	H 	0.9723	0.2106	0.1594	0.016
Mof_C 	C 	0.02919	0.2108	0.246	-0.112
Mof_H 	H 	0.0217	0.1813	0.2086	0.054
Mof_C 	C 	0.06875	0.23695	0.3302	0.055
Mof_H 	H 	0.0879	0.2245	0.3517	-0.019
Mof_C 	C 	0.05418	0.29613	0.3536	0.05
Mof_H 	H 	0.0631	0.3261	0.3892	0.014
Mof_Ag	Ag	0.49226	0.48079	0.82873	0.443
Mof_O 	O 	0.67212	0.66912	0.54813	-0.214
Mof_N 	N 	0.53122	0.53975	0.67123	-0.192
Mof_N 	N 	0.74844	0.61263	0.71703	-0.198
Mof_C 	C 	0.5085	0.5526	0.57233	0.051
Mof_H 	H 	0.47607	0.53603	0.57353	-0.016
Mof_C 	C 	0.53052	0.58909	0.46853	-0.119
Mof_H 	H 	0.51327	0.59693	0.39923	0.049
Mof_C 	C 	0.5778	0.61396	0.46693	0.005
Mof_H 	H 	0.59367	0.63973	0.39923	0.042
Mof_C 	C 	0.60148	0.60014	0.56743	-0.067
Mof_C 	C 	0.57714	0.56333	0.66683	0.043
Mof_H 	H 	0.59357	0.55423	0.73513	-0.001
Mof_C 	C 	0.65277	0.62802	0.57203	0.172
Mof_C 	C 	0.67955	0.60494	0.60533	-0.067
Mof_C 	C 	0.66679	0.56142	0.54953	0.011
Mof_H 	H 	0.63897	0.54393	0.49273	0.016
Mof_C 	C 	0.69586	0.54413	0.57933	-0.112
Mof_H 	H 	0.68837	0.51463	0.54193	0.054
Mof_C 	C 	0.73542	0.57028	0.66353	0.055
Mof_H 	H 	0.75457	0.55783	0.68503	-0.019
Mof_C 	C 	0.72085	0.62946	0.68693	0.05
Mof_H 	H 	0.72977	0.65943	0.72253	0.014
Mof_Ag	Ag	0.15893	0.81412	0.16207	0.443
Mof_O 	O 	0.33878	0.00246	0.88147	-0.214
Mof_N 	N 	0.19788	0.87309	0.00457	-0.192
Mof_N 	N 	0.4151	0.94597	0.05037	-0.198
Mof_C 	C 	0.17516	0.88594	0.90567	0.051
Mof_H 	H 	0.14273	0.86937	0.90687	-0.016
Mof_C 	C 	0.19718	0.92243	0.80187	-0.119
Mof_H 	H 	0.17993	0.93027	0.73257	0.049
Mof_C 	C 	0.24446	0.9473	0.80027	0.005
Mof_H 	H 	0.26033	0.97307	0.73257	0.042
Mof_C 	C 	0.26814	0.93348	0.90077	-0.067
Mof_C 	C 	0.2438	0.89667	0.00017	0.043
Mof_H 	H 	0.26023	0.88757	0.06847	-0.001
Mof_C 	C 	0.31943	0.96136	0.90537	0.172
Mof_C 	C 	0.34621	0.93828	0.93867	-0.067
Mof_C 	C 	0.33345	0.89476	0.88287	0.011
Mof_H 	H 	0.30563	0.87727	0.82607	0.016
Mof_C 	C 	0.36252	0.87747	0.91267	-0.112
Mof_H 	H 	0.35503	0.84797	0.87527	0.054
Mof_C 	C 	0.40208	0.90362	0.99687	0.055
Mof_H 	H 	0.42123	0.89117	0.01837	-0.019
Mof_C 	C 	0.38751	0.9628	0.02027	0.051
Mof_H 	H 	0.39643	0.99277	0.05587	0.014
_end
