data_functionalizedCrystal
_audit_creation_method	'EQeq! by Chris Wilmer'
_symmetry_space_group_name_H-M	'P1'
_symmetry_Int_Tables_number	1
_symmetry_cell_setting	triclinic
loop_
_symmetry_equiv_pos_as_xyz
  x,y,z
_cell_length_a	6.4628
_cell_length_b	6.8519
_cell_length_c	7.6936
_cell_angle_alpha	111.646
_cell_angle_beta	95.779
_cell_angle_gamma	91.028
loop_
_atom_site_label
_atom_site_type_symbol
_atom_site_fract_x
_atom_site_fract_y
_atom_site_fract_z
_atom_site_charge
Mof_Ho	Ho	0.87615	0.78055	0.06815	1.862
Mof_Ho	Ho	0.12385	0.21945	0.93185	1.862
Mof_P 	P 	0.32992	0.74765	0.97945	0.512
Mof_P 	P 	0.67008	0.25235	0.02055	0.512
Mof_H 	H 	0.3622	0.7204	0.7978	-0.076
Mof_H 	H 	0.6378	0.2796	0.2022	-0.076
Mof_C 	C 	0.0577	0.9036	0.5005	0.264
Mof_C 	C 	0.9423	0.0964	0.4995	0.264
Mof_O 	O 	0.1989	0.9418	0.0353	-0.599
Mof_O 	O 	0.5326	0.7778	0.1055	-0.492
Mof_O 	O 	0.182	0.5701	0.9769	-0.607
Mof_O 	O 	0.0508	0.7536	0.3455	-0.432
Mof_O 	O 	0.8516	0.0856	0.3449	-0.432
Mof_O 	O 	0.8011	0.0582	0.9647	-0.599
Mof_O 	O 	0.4674	0.2222	0.8945	-0.492
Mof_O 	O 	0.818	0.4299	0.0231	-0.607
Mof_O 	O 	0.9492	0.2464	0.6545	-0.432
Mof_O 	O 	0.1484	0.9144	0.6551	-0.432
_end
