data_functionalizedCrystal
_audit_creation_method	'EQeq! by Chris Wilmer'
_symmetry_space_group_name_H-M	'P1'
_symmetry_Int_Tables_number	1
_symmetry_cell_setting	triclinic
loop_
_symmetry_equiv_pos_as_xyz
  x,y,z
_cell_length_a	7.7399
_cell_length_b	9.951
_cell_length_c	15.091
_cell_angle_alpha	90
_cell_angle_beta	98.51
_cell_angle_gamma	90
loop_
_atom_site_label
_atom_site_type_symbol
_atom_site_fract_x
_atom_site_fract_y
_atom_site_fract_z
_atom_site_charge
Mof_Ce	Ce	0.35723	0.0434	0.64044	2.662
Mof_Ce	Ce	0.14277	0.5434	0.85956	2.652
Mof_Ce	Ce	0.64277	0.9566	0.35956	2.663
Mof_Ce	Ce	0.85723	0.4566	0.14044	2.653
Mof_H 	H 	0.118	0.302	0.4822	-0.045
Mof_H 	H 	0.325	0.61	0.6316	-0.103
Mof_H 	H 	0.295	0.607	0.3612	-0.066
Mof_H 	H 	0.382	0.802	0.0178	-0.037
Mof_H 	H 	0.175	0.11	0.8684	-0.083
Mof_H 	H 	0.205	0.107	0.1388	-0.06
Mof_H 	H 	0.882	0.698	0.5178	-0.045
Mof_H 	H 	0.675	0.39	0.3684	-0.103
Mof_H 	H 	0.705	0.393	0.6388	-0.066
Mof_H 	H 	0.618	0.198	0.9822	-0.037
Mof_H 	H 	0.825	0.89	0.1316	-0.083
Mof_H 	H 	0.795	0.893	0.8612	-0.06
Mof_C 	C 	0.1912	0.3638	0.65403	0.588
Mof_C 	C 	0.2199	0.44125	0.57256	-0.345
Mof_C 	C 	0.1704	0.386	0.48816	0.196
Mof_C 	C 	0.2737	0.5664	0.41811	0.183
Mof_C 	C 	0.3251	0.6309	0.49923	-0.34
Mof_C 	C 	0.2953	0.5684	0.5778	0.274
Mof_C 	C 	0.4114	0.7663	0.50131	0.65
Mof_C 	C 	0.9569	0.96797	0.53829	0.275
Mof_C 	C 	0.3088	0.8638	0.84597	0.574
Mof_C 	C 	0.2801	0.94125	0.92744	-0.302
Mof_C 	C 	0.3296	0.886	0.01184	0.17
Mof_C 	C 	0.2263	0.0664	0.08189	0.165
Mof_C 	C 	0.1749	0.1309	0.00077	-0.285
Mof_C 	C 	0.2047	0.0684	0.9222	0.206
Mof_C 	C 	0.0886	0.2663	0.99869	0.605
Mof_C 	C 	0.5431	0.46797	0.96171	0.279
Mof_C 	C 	0.8088	0.6362	0.34597	0.588
Mof_C 	C 	0.7801	0.55875	0.42744	-0.345
Mof_C 	C 	0.8296	0.614	0.51184	0.196
Mof_C 	C 	0.7263	0.4336	0.58189	0.183
Mof_C 	C 	0.6749	0.3691	0.50077	-0.34
Mof_C 	C 	0.7047	0.4316	0.4222	0.274
Mof_C 	C 	0.5886	0.2337	0.49869	0.65
Mof_C 	C 	0.0431	0.03203	0.46171	0.275
Mof_C 	C 	0.6912	0.1362	0.15403	0.574
Mof_C 	C 	0.7199	0.05875	0.07256	-0.302
Mof_C 	C 	0.6704	0.114	0.98816	0.17
Mof_C 	C 	0.7737	0.9336	0.91811	0.165
Mof_C 	C 	0.8251	0.8691	0.99923	-0.285
Mof_C 	C 	0.7953	0.9316	0.0778	0.206
Mof_C 	C 	0.9114	0.7337	0.00131	0.605
Mof_C 	C 	0.4569	0.53203	0.03829	0.279
Mof_N 	N 	0.1932	0.44597	0.41179	-0.217
Mof_N 	N 	0.3068	0.94597	0.08821	-0.211
Mof_N 	N 	0.8068	0.55403	0.58821	-0.217
Mof_N 	N 	0.6932	0.05403	0.91179	-0.211
Mof_O 	O 	0.16351	0.23861	0.64493	-0.634
Mof_O 	O 	0.1961	0.42423	0.72685	-0.685
Mof_O 	O 	0.4719	0.80262	0.43308	-0.706
Mof_O 	O 	0.4166	0.83408	0.57182	-0.69
Mof_O 	O 	0.0531	0.94721	0.61127	-0.497
Mof_O 	O 	0.79755	0.94016	0.52055	-0.501
Mof_O 	O 	0.33649	0.73861	0.85507	-0.627
Mof_O 	O 	0.3039	0.92423	0.77315	-0.677
Mof_O 	O 	0.0281	0.30262	0.06692	-0.685
Mof_O 	O 	0.0834	0.33408	0.92818	-0.684
Mof_O 	O 	0.4469	0.44721	0.88873	-0.502
Mof_O 	O 	0.70245	0.44016	0.97945	-0.498
Mof_O 	O 	0.83649	0.76139	0.35507	-0.634
Mof_O 	O 	0.8039	0.57577	0.27315	-0.685
Mof_O 	O 	0.5281	0.19738	0.56692	-0.706
Mof_O 	O 	0.5834	0.16592	0.42818	-0.69
Mof_O 	O 	0.9469	0.05279	0.38873	-0.497
Mof_O 	O 	0.20245	0.05984	0.47945	-0.501
Mof_O 	O 	0.66351	0.26139	0.14493	-0.627
Mof_O 	O 	0.6961	0.07577	0.22685	-0.677
Mof_O 	O 	0.9719	0.69738	0.93308	-0.685
Mof_O 	O 	0.9166	0.66592	0.07182	-0.684
Mof_O 	O 	0.5531	0.55279	0.11127	-0.502
Mof_O 	O 	0.29755	0.55984	0.02055	-0.498
_end
