data_functionalizedCrystal
_audit_creation_method	'EQeq! by Chris Wilmer'
_symmetry_space_group_name_H-M	'P1'
_symmetry_Int_Tables_number	1
_symmetry_cell_setting	triclinic
loop_
_symmetry_equiv_pos_as_xyz
  x,y,z
_cell_length_a	25.4936
_cell_length_b	11.6771
_cell_length_c	13.4533
_cell_angle_alpha	90
_cell_angle_beta	93.638
_cell_angle_gamma	90
loop_
_atom_site_label
_atom_site_type_symbol
_atom_site_fract_x
_atom_site_fract_y
_atom_site_fract_z
_atom_site_charge
Mof_U 	U 	0.30714	0.05074	0.05497	0.012
Mof_P 	P 	0.3363	0.09996	0.32221	0.446
Mof_P 	P 	0.24016	0.28532	0.16068	0.444
Mof_P 	P 	0.44522	0.96979	0.12008	0.43
Mof_O 	O 	0.34268	0.0283	0.4145	-0.192
Mof_O 	O 	0.31649	0.0305	0.233	-0.212
Mof_O 	O 	0.39009	0.1601	0.3029	-0.426
Mof_H 	H 	0.4065	0.1204	0.2653	0.31
Mof_O 	O 	0.18739	0.2998	0.2157	-0.396
Mof_H 	H 	0.1842	0.3668	0.2326	0.292
Mof_O 	O 	0.24478	0.3777	0.0826	-0.18
Mof_O 	O 	0.24051	0.1635	0.124	-0.165
Mof_O 	O 	0.47293	0.8635	0.1659	-0.182
Mof_O 	O 	0.38694	0.9519	0.1068	-0.178
Mof_O 	O 	0.45898	0.0744	0.188	-0.4
Mof_H 	H 	0.4859	0.0609	0.2226	0.207
Mof_C 	C 	0.2942	0.2201	0.341	-0.184
Mof_H 	H 	0.259	0.192	0.3494	0.124
Mof_H 	H 	0.3063	0.2583	0.4023	0.121
Mof_C 	C 	0.2918	0.3088	0.2556	-0.211
Mof_H 	H 	0.3251	0.3083	0.2248	0.14
Mof_H 	H 	0.2873	0.3843	0.2839	0.128
Mof_C 	C 	0.4699	0.9961	0.9991	-0.197
Mof_H 	H 	0.4581	0.9349	0.9543	0.13
Mof_H 	H 	0.455	0.0671	0.9728	0.131
Mof_U 	U 	0.80714	0.55074	0.05497	0.011
Mof_P 	P 	0.8363	0.59996	0.32221	0.447
Mof_P 	P 	0.74016	0.78532	0.16068	0.444
Mof_P 	P 	0.94522	0.46979	0.12008	0.434
Mof_O 	O 	0.84268	0.5283	0.4145	-0.191
Mof_O 	O 	0.81649	0.5305	0.233	-0.212
Mof_O 	O 	0.89009	0.6601	0.3029	-0.425
Mof_H 	H 	0.9065	0.6204	0.2653	0.31
Mof_O 	O 	0.68739	0.7998	0.2157	-0.395
Mof_H 	H 	0.6842	0.8668	0.2326	0.293
Mof_O 	O 	0.74478	0.8777	0.0826	-0.18
Mof_O 	O 	0.74051	0.6635	0.124	-0.165
Mof_O 	O 	0.97293	0.3635	0.1659	-0.182
Mof_O 	O 	0.88694	0.4519	0.1068	-0.177
Mof_O 	O 	0.95898	0.5744	0.188	-0.402
Mof_H 	H 	0.9859	0.5609	0.2226	0.207
Mof_C 	C 	0.7942	0.7201	0.341	-0.184
Mof_H 	H 	0.759	0.692	0.3494	0.124
Mof_H 	H 	0.8063	0.7583	0.4023	0.121
Mof_C 	C 	0.7918	0.8088	0.2556	-0.211
Mof_H 	H 	0.8251	0.8083	0.2248	0.139
Mof_H 	H 	0.7873	0.8843	0.2839	0.128
Mof_C 	C 	0.9699	0.4961	0.9991	-0.202
Mof_H 	H 	0.9581	0.4349	0.9543	0.13
Mof_H 	H 	0.955	0.5671	0.9728	0.134
Mof_U 	U 	0.69286	0.05074	0.44503	0.012
Mof_P 	P 	0.6637	0.09996	0.17779	0.447
Mof_P 	P 	0.75984	0.28532	0.33932	0.445
Mof_P 	P 	0.55478	0.96979	0.37992	0.434
Mof_O 	O 	0.65732	0.0283	0.0855	-0.19
Mof_O 	O 	0.68351	0.0305	0.267	-0.211
Mof_O 	O 	0.60991	0.1601	0.1971	-0.424
Mof_H 	H 	0.5935	0.1204	0.2347	0.311
Mof_O 	O 	0.81261	0.2998	0.2843	-0.395
Mof_H 	H 	0.8158	0.3668	0.2674	0.293
Mof_O 	O 	0.75522	0.3777	0.4174	-0.179
Mof_O 	O 	0.75949	0.1635	0.376	-0.164
Mof_O 	O 	0.52707	0.8635	0.3341	-0.182
Mof_O 	O 	0.61306	0.9519	0.3932	-0.177
Mof_O 	O 	0.54102	0.0744	0.312	-0.401
Mof_H 	H 	0.5141	0.0609	0.2774	0.207
Mof_C 	C 	0.7058	0.2201	0.159	-0.184
Mof_H 	H 	0.741	0.192	0.1506	0.124
Mof_H 	H 	0.6937	0.2583	0.0977	0.121
Mof_C 	C 	0.7082	0.3088	0.2444	-0.211
Mof_H 	H 	0.6749	0.3083	0.2752	0.14
Mof_H 	H 	0.7127	0.3843	0.2161	0.128
Mof_C 	C 	0.5301	0.9961	0.5009	-0.201
Mof_H 	H 	0.5419	0.9349	0.5457	0.13
Mof_H 	H 	0.545	0.0671	0.5272	0.134
Mof_U 	U 	0.19286	0.55074	0.44503	0.012
Mof_P 	P 	0.1637	0.59996	0.17779	0.447
Mof_P 	P 	0.25984	0.78532	0.33932	0.444
Mof_P 	P 	0.05478	0.46979	0.37992	0.434
Mof_O 	O 	0.15732	0.5283	0.0855	-0.191
Mof_O 	O 	0.18351	0.5305	0.267	-0.212
Mof_O 	O 	0.10991	0.6601	0.1971	-0.425
Mof_H 	H 	0.0935	0.6204	0.2347	0.311
Mof_O 	O 	0.31261	0.7998	0.2843	-0.395
Mof_H 	H 	0.3158	0.8668	0.2674	0.293
Mof_O 	O 	0.25522	0.8777	0.4174	-0.179
Mof_O 	O 	0.25949	0.6635	0.376	-0.164
Mof_O 	O 	0.02707	0.3635	0.3341	-0.182
Mof_O 	O 	0.11306	0.4519	0.3932	-0.177
Mof_O 	O 	0.04102	0.5744	0.312	-0.402
Mof_H 	H 	0.0141	0.5609	0.2774	0.207
Mof_C 	C 	0.2058	0.7201	0.159	-0.184
Mof_H 	H 	0.241	0.692	0.1506	0.123
Mof_H 	H 	0.1937	0.7583	0.0977	0.121
Mof_C 	C 	0.2082	0.8088	0.2444	-0.211
Mof_H 	H 	0.1749	0.8083	0.2752	0.14
Mof_H 	H 	0.2127	0.8843	0.2161	0.127
Mof_C 	C 	0.0301	0.4961	0.5009	-0.202
Mof_H 	H 	0.0419	0.4349	0.5457	0.13
Mof_H 	H 	0.045	0.5671	0.5272	0.134
Mof_U 	U 	0.69286	0.94926	0.94503	0.013
Mof_P 	P 	0.6637	0.90004	0.67779	0.447
Mof_P 	P 	0.75984	0.71468	0.83932	0.445
Mof_P 	P 	0.55478	0.03021	0.87992	0.431
Mof_O 	O 	0.65732	0.9717	0.5855	-0.191
Mof_O 	O 	0.68351	0.9695	0.767	-0.211
Mof_O 	O 	0.60991	0.8399	0.6971	-0.425
Mof_H 	H 	0.5935	0.8796	0.7347	0.311
Mof_O 	O 	0.81261	0.7002	0.7843	-0.395
Mof_H 	H 	0.8158	0.6332	0.7674	0.293
Mof_O 	O 	0.75522	0.6223	0.9174	-0.179
Mof_O 	O 	0.75949	0.8365	0.876	-0.164
Mof_O 	O 	0.52707	0.1365	0.8341	-0.182
Mof_O 	O 	0.61306	0.0481	0.8932	-0.178
Mof_O 	O 	0.54102	0.9256	0.812	-0.4
Mof_H 	H 	0.5141	0.9391	0.7774	0.207
Mof_C 	C 	0.7058	0.7799	0.659	-0.184
Mof_H 	H 	0.741	0.808	0.6506	0.124
Mof_H 	H 	0.6937	0.7417	0.5977	0.121
Mof_C 	C 	0.7082	0.6912	0.7444	-0.211
Mof_H 	H 	0.6749	0.6917	0.7752	0.14
Mof_H 	H 	0.7127	0.6157	0.7161	0.128
Mof_C 	C 	0.5301	0.0039	0.0009	-0.197
Mof_H 	H 	0.5419	0.0651	0.0457	0.13
Mof_H 	H 	0.545	0.9329	0.0272	0.131
Mof_U 	U 	0.19286	0.44926	0.94503	0.011
Mof_P 	P 	0.1637	0.40004	0.67779	0.447
Mof_P 	P 	0.25984	0.21468	0.83932	0.444
Mof_P 	P 	0.05478	0.53021	0.87992	0.434
Mof_O 	O 	0.15732	0.4717	0.5855	-0.191
Mof_O 	O 	0.18351	0.4695	0.767	-0.212
Mof_O 	O 	0.10991	0.3399	0.6971	-0.425
Mof_H 	H 	0.0935	0.3796	0.7347	0.31
Mof_O 	O 	0.31261	0.2002	0.7843	-0.395
Mof_H 	H 	0.3158	0.1332	0.7674	0.293
Mof_O 	O 	0.25522	0.1223	0.9174	-0.18
Mof_O 	O 	0.25949	0.3365	0.876	-0.165
Mof_O 	O 	0.02707	0.6365	0.8341	-0.182
Mof_O 	O 	0.11306	0.5481	0.8932	-0.177
Mof_O 	O 	0.04102	0.4256	0.812	-0.402
Mof_H 	H 	0.0141	0.4391	0.7774	0.207
Mof_C 	C 	0.2058	0.2799	0.659	-0.184
Mof_H 	H 	0.241	0.308	0.6506	0.124
Mof_H 	H 	0.1937	0.2417	0.5977	0.121
Mof_C 	C 	0.2082	0.1912	0.7444	-0.211
Mof_H 	H 	0.1749	0.1917	0.7752	0.139
Mof_H 	H 	0.2127	0.1157	0.7161	0.128
Mof_C 	C 	0.0301	0.5039	0.0009	-0.202
Mof_H 	H 	0.0419	0.5651	0.0457	0.13
Mof_H 	H 	0.045	0.4329	0.0272	0.134
Mof_U 	U 	0.30714	0.94926	0.55497	0.012
Mof_P 	P 	0.3363	0.90004	0.82221	0.447
Mof_P 	P 	0.24016	0.71468	0.66068	0.445
Mof_P 	P 	0.44522	0.03021	0.62008	0.434
Mof_O 	O 	0.34268	0.9717	0.9145	-0.19
Mof_O 	O 	0.31649	0.9695	0.733	-0.211
Mof_O 	O 	0.39009	0.8399	0.8029	-0.424
Mof_H 	H 	0.4065	0.8796	0.7653	0.311
Mof_O 	O 	0.18739	0.7002	0.7157	-0.395
Mof_H 	H 	0.1842	0.6332	0.7326	0.293
Mof_O 	O 	0.24478	0.6223	0.5826	-0.179
Mof_O 	O 	0.24051	0.8365	0.624	-0.164
Mof_O 	O 	0.47293	0.1365	0.6659	-0.182
Mof_O 	O 	0.38694	0.0481	0.6068	-0.177
Mof_O 	O 	0.45898	0.9256	0.688	-0.401
Mof_H 	H 	0.4859	0.9391	0.7226	0.207
Mof_C 	C 	0.2942	0.7799	0.841	-0.184
Mof_H 	H 	0.259	0.808	0.8494	0.124
Mof_H 	H 	0.3063	0.7417	0.9023	0.121
Mof_C 	C 	0.2918	0.6912	0.7556	-0.211
Mof_H 	H 	0.3251	0.6917	0.7248	0.14
Mof_H 	H 	0.2873	0.6157	0.7839	0.128
Mof_C 	C 	0.4699	0.0039	0.4991	-0.201
Mof_H 	H 	0.4581	0.0651	0.4543	0.13
Mof_H 	H 	0.455	0.9329	0.4728	0.134
Mof_U 	U 	0.80714	0.44926	0.55497	0.012
Mof_P 	P 	0.8363	0.40004	0.82221	0.447
Mof_P 	P 	0.74016	0.21468	0.66068	0.444
Mof_P 	P 	0.94522	0.53021	0.62008	0.434
Mof_O 	O 	0.84268	0.4717	0.9145	-0.191
Mof_O 	O 	0.81649	0.4695	0.733	-0.212
Mof_O 	O 	0.89009	0.3399	0.8029	-0.425
Mof_H 	H 	0.9065	0.3796	0.7653	0.311
Mof_O 	O 	0.68739	0.2002	0.7157	-0.395
Mof_H 	H 	0.6842	0.1332	0.7326	0.293
Mof_O 	O 	0.74478	0.1223	0.5826	-0.179
Mof_O 	O 	0.74051	0.3365	0.624	-0.164
Mof_O 	O 	0.97293	0.6365	0.6659	-0.182
Mof_O 	O 	0.88694	0.5481	0.6068	-0.177
Mof_O 	O 	0.95898	0.4256	0.688	-0.402
Mof_H 	H 	0.9859	0.4391	0.7226	0.207
Mof_C 	C 	0.7942	0.2799	0.841	-0.184
Mof_H 	H 	0.759	0.308	0.8494	0.123
Mof_H 	H 	0.8063	0.2417	0.9023	0.121
Mof_C 	C 	0.7918	0.1912	0.7556	-0.211
Mof_H 	H 	0.8251	0.1917	0.7248	0.14
Mof_H 	H 	0.7873	0.1157	0.7839	0.127
Mof_C 	C 	0.9699	0.5039	0.4991	-0.202
Mof_H 	H 	0.9581	0.5651	0.4543	0.13
Mof_H 	H 	0.955	0.4329	0.4728	0.134
_end
