data_functionalizedCrystal
_audit_creation_method	'EQeq! by Chris Wilmer'
_symmetry_space_group_name_H-M	'P1'
_symmetry_Int_Tables_number	1
_symmetry_cell_setting	triclinic
loop_
_symmetry_equiv_pos_as_xyz
  x,y,z
_cell_length_a	19.6801
_cell_length_b	15.1165
_cell_length_c	6.6716
_cell_angle_alpha	90
_cell_angle_beta	103.757
_cell_angle_gamma	90
loop_
_atom_site_label
_atom_site_type_symbol
_atom_site_fract_x
_atom_site_fract_y
_atom_site_fract_z
_atom_site_charge
Mof_Ga	Ga	0.4963	0.25	0.5141	3.697
Mof_O 	O 	0.4996	0.3147	0.2581	-1.637
Mof_O 	O 	0.0009	0.5553	0.2518	-1.831
Mof_O 	O 	0.9157	0.0777	0.8691	-0.358
Mof_O 	O 	0.9318	0.0821	0.5493	-0.497
Mof_O 	O 	0.5559	0.1485	0.4429	-0.895
Mof_O 	O 	0.5867	0.1836	0.147	-0.857
Mof_C 	C 	0.8182	0.1063	0.5875	-0.079
Mof_C 	C 	0.7708	0.1045	0.7114	-0.073
Mof_C 	C 	0.6997	0.1201	0.6337	0.054
Mof_C 	C 	0.6749	0.1382	0.4266	-0.23
Mof_C 	C 	0.7215	0.14	0.3038	0.044
Mof_C 	C 	0.7925	0.1245	0.381	-0.068
Mof_C 	C 	0.8939	0.0878	0.6759	0.442
Mof_C 	C 	0.6004	0.1573	0.3335	0.596
Mof_H 	H 	0.7879	0.0913	0.8584	0.057
Mof_H 	H 	0.6679	0.1186	0.7269	-0.005
Mof_H 	H 	0.7039	0.1534	0.1576	-0.007
Mof_H 	H 	0.8241	0.1262	0.2873	0.048
Mof_O 	O 	0.408	0.3003	0.8712	-0.855
Mof_O 	O 	0.4357	0.3518	0.5756	-0.857
Mof_O 	O 	0.0568	0.3993	0.4448	-0.818
Mof_O 	O 	0.0885	0.4314	0.1405	-0.737
Mof_C 	C 	0.3175	0.3548	0.5989	-0.132
Mof_C 	C 	0.2661	0.339	0.709	-0.002
Mof_C 	C 	0.1948	0.356	0.6237	0.009
Mof_C 	C 	0.176	0.3893	0.4251	-0.144
Mof_C 	C 	0.2266	0.4049	0.3156	-0.003
Mof_C 	C 	0.2979	0.3882	0.3993	0.007
Mof_C 	C 	0.393	0.335	0.6893	0.57
Mof_C 	C 	0.1012	0.4085	0.3313	0.51
Mof_H 	H 	0.2803	0.3152	0.8492	0.063
Mof_H 	H 	0.1594	0.3451	0.7028	0.029
Mof_H 	H 	0.212	0.4288	0.1757	0.02
Mof_H 	H 	0.333	0.3995	0.3191	0.015
Mof_H 	H 	0.495	0.3737	0.276	0.499
Mof_H 	H 	0.995	0.6146	0.263	0.782
Mof_Ga	Ga	0.5037	0.75	0.9859	4.04
Mof_O 	O 	0.5004	0.8147	0.2419	-1.783
Mof_O 	O 	0.9991	0.0553	0.2482	-0.542
Mof_O 	O 	0.0843	0.5777	0.6309	-0.778
Mof_O 	O 	0.0682	0.5821	0.9507	-0.832
Mof_O 	O 	0.4441	0.6485	0.0571	-0.979
Mof_O 	O 	0.4133	0.6836	0.353	-0.895
Mof_C 	C 	0.1818	0.6063	0.9125	0.032
Mof_C 	C 	0.2292	0.6045	0.7886	-0.16
Mof_C 	C 	0.3003	0.6201	0.8663	0.254
Mof_C 	C 	0.3251	0.6382	0.0734	-0.393
Mof_C 	C 	0.2785	0.64	0.1962	0.18
Mof_C 	C 	0.2075	0.6245	0.119	-0.219
Mof_C 	C 	0.1061	0.5878	0.8241	0.546
Mof_C 	C 	0.3996	0.6573	0.1665	0.688
Mof_H 	H 	0.2121	0.5913	0.6416	0.08
Mof_H 	H 	0.3321	0.6186	0.7731	-0.045
Mof_H 	H 	0.2961	0.6534	0.3424	-0.022
Mof_H 	H 	0.1759	0.6262	0.2127	0.077
Mof_O 	O 	0.592	0.8003	0.6288	-0.95
Mof_O 	O 	0.5643	0.8518	0.9244	-0.857
Mof_O 	O 	0.9432	0.8993	0.0552	-0.367
Mof_O 	O 	0.9115	0.9314	0.3595	-0.374
Mof_C 	C 	0.6825	0.8548	0.9011	-0.015
Mof_C 	C 	0.7339	0.839	0.791	-0.044
Mof_C 	C 	0.8052	0.856	0.8763	0.125
Mof_C 	C 	0.824	0.8893	0.0749	-0.17
Mof_C 	C 	0.7734	0.9049	0.1844	0.06
Mof_C 	C 	0.7021	0.8882	0.1007	-0.09
Mof_C 	C 	0.607	0.835	0.8107	0.587
Mof_C 	C 	0.8988	0.9085	0.1687	0.417
Mof_H 	H 	0.7197	0.8152	0.6508	0.066
Mof_H 	H 	0.8406	0.8451	0.7972	0.038
Mof_H 	H 	0.788	0.9288	0.3243	0.067
Mof_H 	H 	0.667	0.8995	0.1809	0.07
Mof_H 	H 	0.505	0.8737	0.224	0.564
Mof_H 	H 	0.005	0.1146	0.237	-0.001
Mof_Ga	Ga	0.5037	0.75	0.4859	3.755
Mof_O 	O 	0.5004	0.6853	0.7419	-1.764
Mof_O 	O 	0.9991	0.4447	0.7482	-0.922
Mof_O 	O 	0.0843	0.9223	0.1309	-0.516
Mof_O 	O 	0.0682	0.9179	0.4507	-0.635
Mof_O 	O 	0.4441	0.8515	0.5571	-0.862
Mof_O 	O 	0.4133	0.8164	0.853	-0.877
Mof_C 	C 	0.1818	0.8937	0.4125	-0.083
Mof_C 	C 	0.2292	0.8955	0.2886	-0.03
Mof_C 	C 	0.3003	0.8799	0.3663	0.07
Mof_C 	C 	0.3251	0.8618	0.5734	-0.18
Mof_C 	C 	0.2785	0.86	0.6962	0.061
Mof_C 	C 	0.2075	0.8755	0.619	-0.013
Mof_C 	C 	0.1061	0.9122	0.3241	0.484
Mof_C 	C 	0.3996	0.8427	0.6665	0.638
Mof_H 	H 	0.2121	0.9087	0.1416	0.056
Mof_H 	H 	0.3321	0.8814	0.2731	0.012
Mof_H 	H 	0.2961	0.8466	0.8424	0.051
Mof_H 	H 	0.1759	0.8738	0.7127	0.068
Mof_O 	O 	0.592	0.6997	0.1288	-1.051
Mof_O 	O 	0.5643	0.6482	0.4244	-0.895
Mof_O 	O 	0.9432	0.6007	0.5552	-0.622
Mof_O 	O 	0.9115	0.5686	0.8595	-0.541
Mof_C 	C 	0.6825	0.6452	0.4011	-0.186
Mof_C 	C 	0.7339	0.661	0.291	0.04
Mof_C 	C 	0.8052	0.644	0.3763	-0.04
Mof_C 	C 	0.824	0.6107	0.5749	-0.075
Mof_C 	C 	0.7734	0.5951	0.6844	-0.045
Mof_C 	C 	0.7021	0.6118	0.6007	0.051
Mof_C 	C 	0.607	0.665	0.3107	0.626
Mof_C 	C 	0.8988	0.5915	0.6687	0.455
Mof_H 	H 	0.7197	0.6848	0.1508	0.01
Mof_H 	H 	0.8406	0.6549	0.2972	0.044
Mof_H 	H 	0.788	0.5712	0.8243	0.073
Mof_H 	H 	0.667	0.6005	0.6809	0.017
Mof_H 	H 	0.505	0.6263	0.724	0.559
Mof_H 	H 	0.005	0.3854	0.737	0.126
Mof_Ga	Ga	0.4963	0.25	0.0141	3.372
Mof_O 	O 	0.4996	0.1853	0.7581	-1.616
Mof_O 	O 	0.0009	0.9447	0.7518	-1.176
Mof_O 	O 	0.9157	0.4223	0.3691	-0.61
Mof_O 	O 	0.9318	0.4179	0.0493	-0.703
Mof_O 	O 	0.5559	0.3515	0.9429	-0.766
Mof_O 	O 	0.5867	0.3164	0.647	-0.837
Mof_C 	C 	0.8182	0.3937	0.0875	-0.327
Mof_C 	C 	0.7708	0.3955	0.2114	0.143
Mof_C 	C 	0.6997	0.3799	0.1337	-0.192
Mof_C 	C 	0.6749	0.3618	0.9266	0.029
Mof_C 	C 	0.7215	0.36	0.8038	-0.138
Mof_C 	C 	0.7925	0.3755	0.881	0.227
Mof_C 	C 	0.8939	0.4122	0.1759	0.659
Mof_C 	C 	0.6004	0.3427	0.8335	0.528
Mof_H 	H 	0.7879	0.4087	0.3584	-0.005
Mof_H 	H 	0.6679	0.3814	0.2269	0.069
Mof_H 	H 	0.7039	0.3466	0.6576	0.085
Mof_H 	H 	0.8241	0.3738	0.7873	0
Mof_O 	O 	0.408	0.1997	0.3712	-0.974
Mof_O 	O 	0.4357	0.1482	0.0756	-0.901
Mof_O 	O 	0.0568	0.1007	0.9448	-0.529
Mof_O 	O 	0.0885	0.0686	0.6405	-0.598
Mof_C 	C 	0.3175	0.1452	0.0989	-0.373
Mof_C 	C 	0.2661	0.161	0.209	0.155
Mof_C 	C 	0.1948	0.144	0.1237	-0.272
Mof_C 	C 	0.176	0.1107	0.9251	0.092
Mof_C 	C 	0.2266	0.0951	0.8156	-0.201
Mof_C 	C 	0.2979	0.1118	0.8993	0.233
Mof_C 	C 	0.393	0.165	0.1893	0.632
Mof_C 	C 	0.1012	0.0915	0.8313	0.334
Mof_H 	H 	0.2803	0.1848	0.3492	-0.019
Mof_H 	H 	0.1594	0.1549	0.2028	0.08
Mof_H 	H 	0.212	0.0712	0.6757	0.062
Mof_H 	H 	0.333	0.1005	0.8191	-0.061
Mof_H 	H 	0.495	0.1263	0.776	0.499
Mof_H 	H 	0.995	0.8854	0.763	0.657
Mof_Ga	Ga	-3.27358e-33	0.5	-0	2.749
Mof_Ga	Ga	7.86659e-34	0	0.5	1.903
Mof_Ga	Ga	7.86659e-34	0.5	0.5	2.829
Mof_Ga	Ga	-0	0	-0	1.37
_end
