data_functionalizedCrystal
_audit_creation_method	'EQeq! by Chris Wilmer'
_symmetry_space_group_name_H-M	'P1'
_symmetry_Int_Tables_number	1
_symmetry_cell_setting	triclinic
loop_
_symmetry_equiv_pos_as_xyz
  x,y,z
_cell_length_a	35.2654
_cell_length_b	15.1124
_cell_length_c	30.914
_cell_angle_alpha	90
_cell_angle_beta	102.128
_cell_angle_gamma	90
loop_
_atom_site_label
_atom_site_type_symbol
_atom_site_fract_x
_atom_site_fract_y
_atom_site_fract_z
_atom_site_charge
Mof_I 	I 	0.73988	0.22634	0.30832	-0.38
Mof_I 	I 	0.52579	0.648	0.63668	-0.351
Mof_I 	I 	0.63349	0.17496	0.20499	-0.394
Mof_I 	I 	0.61545	0.73778	0.56152	-0.378
Mof_I 	I 	0.89697	0.72878	0.90258	-0.381
Mof_I 	I 	0.85488	0.58585	0.01048	-0.369
Mof_Zn	Zn	0.57967	0.62016	0.59511	1.164
Mof_Zn	Zn	0.67741	0.14121	0.28001	1.162
Mof_Zn	Zn	0.87524	0.58939	0.93649	1.164
Mof_N 	N 	0.68862	0.993	0.7804	-0.276
Mof_N 	N 	0.83237	0.5284	0.89065	-0.278
Mof_N 	N 	0.64314	0.1592	0.326	-0.279
Mof_N 	N 	0.68222	0.3176	0.7483	-0.136
Mof_N 	N 	0.41978	0.0002	0.4394	-0.277
Mof_N 	N 	0.61968	0.5483	0.64072	-0.275
Mof_N 	N 	0.53693	0.1555	0.41065	-0.133
Mof_N 	N 	0.71942	0.4448	0.77143	-0.141
Mof_N 	N 	0.57371	0.2832	0.43847	-0.133
Mof_N 	N 	0.52077	0.2376	0.46997	-0.147
Mof_N 	N 	0.56438	0.5217	0.5487	-0.276
Mof_N 	N 	0.73709	0.3072	0.807	-0.14
Mof_C 	C 	0.66592	0.4536	0.7089	0.071
Mof_C 	C 	0.51527	0.1723	0.44042	0.089
Mof_C 	C 	0.8098	0.5713	0.8575	0.082
Mof_H 	H 	0.8142	0.6312	0.8538	-0.008
Mof_C 	C 	0.69006	0.4025	0.7452	0.099
Mof_C 	C 	0.54942	0.2929	0.46636	0.088
Mof_C 	C 	0.59322	0.1941	0.382	0.077
Mof_C 	C 	0.77353	0.4403	0.8333	0.058
Mof_C 	C 	0.5664	0.212	0.41207	0.101
Mof_C 	C 	0.6538	0.212	0.361	0.082
Mof_H 	H 	0.6785	0.2367	0.3664	-0.014
Mof_C 	C 	0.55443	0.3734	0.49467	0.064
Mof_C 	C 	0.6724	0.5426	0.7019	-0.143
Mof_H 	H 	0.6924	0.5724	0.7205	0.086
Mof_C 	C 	0.48233	0.1122	0.4405	0.059
Mof_C 	C 	0.7976	0.3957	0.8672	-0.132
Mof_H 	H 	0.7946	0.3353	0.8711	0.093
Mof_C 	C 	0.70703	0.2726	0.7787	0.103
Mof_C 	C 	0.52907	0.3912	0.5223	-0.134
Mof_H 	H 	0.5084	0.3535	0.5231	0.082
Mof_C 	C 	0.4379	0.0384	0.4766	0.089
Mof_H 	H 	0.4294	0.0262	0.5025	-0.012
Mof_C 	C 	0.7277	0.1195	0.8052	-0.133
Mof_H 	H 	0.7504	0.1423	0.8226	0.084
Mof_C 	C 	0.53514	0.4661	0.5487	0.082
Mof_H 	H 	0.5181	0.478	0.5671	-0.014
Mof_C 	C 	0.6077	0.123	0.319	0.086
Mof_H 	H 	0.6001	0.0861	0.2946	-0.021
Mof_C 	C 	0.74155	0.3944	0.8022	0.085
Mof_C 	C 	0.7007	0.1752	0.7798	0.065
Mof_C 	C 	0.7802	0.5303	0.8283	-0.137
Mof_H 	H 	0.7647	0.5623	0.8054	0.096
Mof_C 	C 	0.5822	0.1377	0.3461	-0.136
Mof_H 	H 	0.558	0.1105	0.3406	0.093
Mof_C 	C 	0.6619	0.0477	0.7563	0.068
Mof_H 	H 	0.6392	0.0236	0.7397	-0.015
Mof_C 	C 	0.6491	0.5866	0.6674	0.087
Mof_H 	H 	0.6543	0.6457	0.6626	-0.015
Mof_C 	C 	0.8263	0.4418	0.895	0.079
Mof_H 	H 	0.8422	0.4115	0.9181	-0.003
Mof_C 	C 	0.6673	0.1378	0.7555	-0.128
Mof_H 	H 	0.6483	0.1736	0.7385	0.087
Mof_C 	C 	0.5837	0.4317	0.4934	-0.129
Mof_H 	H 	0.6006	0.422	0.4745	0.087
Mof_C 	C 	0.5881	0.5056	0.5206	0.069
Mof_H 	H 	0.6081	0.5452	0.5195	-0.013
Mof_C 	C 	0.6297	0.2316	0.3896	-0.131
Mof_H 	H 	0.6379	0.2693	0.4136	0.092
Mof_C 	C 	0.4318	0.0183	0.4019	0.081
Mof_H 	H 	0.419	0.9921	0.3756	-0.018
Mof_C 	C 	0.4687	0.0951	0.4787	-0.138
Mof_H 	H 	0.4802	0.1217	0.5053	0.086
Mof_C 	C 	0.6349	0.414	0.6816	-0.137
Mof_H 	H 	0.6288	0.3551	0.6857	0.101
Mof_C 	C 	0.6129	0.4633	0.6479	0.086
Mof_H 	H 	0.5922	0.4357	0.6291	-0.008
Mof_C 	C 	0.7205	0.0288	0.8043	0.078
Mof_H 	H 	0.7389	0.9918	0.8213	-0.015
Mof_C 	C 	0.4625	0.0742	0.401	-0.134
Mof_H 	H 	0.4698	0.0865	0.3745	0.092
Mof_I 	I 	0.23988	0.72634	0.30832	-0.379
Mof_I 	I 	0.02579	0.148	0.63668	-0.35
Mof_I 	I 	0.13349	0.67496	0.20499	-0.393
Mof_I 	I 	0.11545	0.23778	0.56152	-0.377
Mof_I 	I 	0.39697	0.22878	0.90258	-0.38
Mof_I 	I 	0.35488	0.08585	0.01048	-0.368
Mof_Zn	Zn	0.07967	0.12016	0.59511	1.165
Mof_Zn	Zn	0.17741	0.64121	0.28001	1.163
Mof_Zn	Zn	0.37524	0.08939	0.93649	1.164
Mof_N 	N 	0.18862	0.493	0.7804	-0.276
Mof_N 	N 	0.33237	0.0284	0.89065	-0.277
Mof_N 	N 	0.14314	0.6592	0.326	-0.278
Mof_N 	N 	0.18222	0.8176	0.7483	-0.135
Mof_N 	N 	0.91978	0.5002	0.4394	-0.276
Mof_N 	N 	0.11968	0.0483	0.64072	-0.275
Mof_N 	N 	0.03693	0.6555	0.41065	-0.132
Mof_N 	N 	0.21942	0.9448	0.77143	-0.141
Mof_N 	N 	0.07371	0.7832	0.43847	-0.134
Mof_N 	N 	0.02077	0.7376	0.46997	-0.147
Mof_N 	N 	0.06438	0.0217	0.5487	-0.276
Mof_N 	N 	0.23709	0.8072	0.807	-0.14
Mof_C 	C 	0.16592	0.9536	0.7089	0.072
Mof_C 	C 	0.01527	0.6723	0.44042	0.089
Mof_C 	C 	0.3098	0.0713	0.8575	0.083
Mof_H 	H 	0.3142	0.1312	0.8538	-0.008
Mof_C 	C 	0.19006	0.9025	0.7452	0.099
Mof_C 	C 	0.04942	0.7929	0.46636	0.088
Mof_C 	C 	0.09322	0.6941	0.382	0.077
Mof_C 	C 	0.27353	0.9403	0.8333	0.059
Mof_C 	C 	0.0664	0.712	0.41207	0.101
Mof_C 	C 	0.1538	0.712	0.361	0.082
Mof_H 	H 	0.1785	0.7367	0.3664	-0.014
Mof_C 	C 	0.05443	0.8734	0.49467	0.064
Mof_C 	C 	0.1724	0.0426	0.7019	-0.144
Mof_H 	H 	0.1924	0.0724	0.7205	0.086
Mof_C 	C 	0.98233	0.6122	0.4405	0.059
Mof_C 	C 	0.2976	0.8957	0.8672	-0.133
Mof_H 	H 	0.2946	0.8353	0.8711	0.094
Mof_C 	C 	0.20703	0.7726	0.7787	0.103
Mof_C 	C 	0.02907	0.8912	0.5223	-0.134
Mof_H 	H 	0.0084	0.8535	0.5231	0.082
Mof_C 	C 	0.9379	0.5384	0.4766	0.089
Mof_H 	H 	0.9294	0.5262	0.5025	-0.012
Mof_C 	C 	0.2277	0.6195	0.8052	-0.133
Mof_H 	H 	0.2504	0.6423	0.8226	0.085
Mof_C 	C 	0.03514	0.9661	0.5487	0.083
Mof_H 	H 	0.0181	0.978	0.5671	-0.014
Mof_C 	C 	0.1077	0.623	0.319	0.086
Mof_H 	H 	0.1001	0.5861	0.2946	-0.022
Mof_C 	C 	0.24155	0.8944	0.8022	0.085
Mof_C 	C 	0.2007	0.6752	0.7798	0.065
Mof_C 	C 	0.2802	0.0303	0.8283	-0.138
Mof_H 	H 	0.2647	0.0623	0.8054	0.096
Mof_C 	C 	0.0822	0.6377	0.3461	-0.136
Mof_H 	H 	0.058	0.6105	0.3406	0.093
Mof_C 	C 	0.1619	0.5477	0.7563	0.068
Mof_H 	H 	0.1392	0.5236	0.7397	-0.015
Mof_C 	C 	0.1491	0.0866	0.6674	0.087
Mof_H 	H 	0.1543	0.1457	0.6626	-0.015
Mof_C 	C 	0.3263	0.9418	0.895	0.08
Mof_H 	H 	0.3422	0.9115	0.9181	-0.003
Mof_C 	C 	0.1673	0.6378	0.7555	-0.129
Mof_H 	H 	0.1483	0.6736	0.7385	0.087
Mof_C 	C 	0.0837	0.9317	0.4934	-0.129
Mof_H 	H 	0.1006	0.922	0.4745	0.087
Mof_C 	C 	0.0881	0.0056	0.5206	0.068
Mof_H 	H 	0.1081	0.0452	0.5195	-0.013
Mof_C 	C 	0.1297	0.7316	0.3896	-0.131
Mof_H 	H 	0.1379	0.7693	0.4136	0.092
Mof_C 	C 	0.9318	0.5183	0.4019	0.081
Mof_H 	H 	0.919	0.4921	0.3756	-0.017
Mof_C 	C 	0.9687	0.5951	0.4787	-0.137
Mof_H 	H 	0.9802	0.6217	0.5053	0.086
Mof_C 	C 	0.1349	0.914	0.6816	-0.137
Mof_H 	H 	0.1288	0.8551	0.6857	0.101
Mof_C 	C 	0.1129	0.9633	0.6479	0.086
Mof_H 	H 	0.0922	0.9357	0.6291	-0.008
Mof_C 	C 	0.2205	0.5288	0.8043	0.08
Mof_H 	H 	0.2389	0.4918	0.8213	-0.015
Mof_C 	C 	0.9625	0.5742	0.401	-0.134
Mof_H 	H 	0.9698	0.5865	0.3745	0.092
Mof_I 	I 	0.73988	0.77366	0.80832	-0.379
Mof_I 	I 	0.52579	0.352	0.13668	-0.35
Mof_I 	I 	0.63349	0.82504	0.70499	-0.393
Mof_I 	I 	0.61545	0.26222	0.06152	-0.377
Mof_I 	I 	0.89697	0.27122	0.40258	-0.38
Mof_I 	I 	0.85488	0.41415	0.51048	-0.368
Mof_Zn	Zn	0.57967	0.37984	0.09511	1.165
Mof_Zn	Zn	0.67741	0.85879	0.78001	1.163
Mof_Zn	Zn	0.87524	0.41061	0.43649	1.165
Mof_N 	N 	0.68862	0.007	0.2804	-0.276
Mof_N 	N 	0.83237	0.4716	0.39065	-0.277
Mof_N 	N 	0.64314	0.8408	0.826	-0.278
Mof_N 	N 	0.68222	0.6824	0.2483	-0.135
Mof_N 	N 	0.41978	0.9998	0.9394	-0.276
Mof_N 	N 	0.61968	0.4517	0.14072	-0.274
Mof_N 	N 	0.53693	0.8445	0.91065	-0.132
Mof_N 	N 	0.71942	0.5552	0.27143	-0.141
Mof_N 	N 	0.57371	0.7168	0.93847	-0.133
Mof_N 	N 	0.52077	0.7624	0.96997	-0.147
Mof_N 	N 	0.56438	0.4783	0.0487	-0.276
Mof_N 	N 	0.73709	0.6928	0.307	-0.14
Mof_C 	C 	0.66592	0.5464	0.2089	0.071
Mof_C 	C 	0.51527	0.8277	0.94042	0.089
Mof_C 	C 	0.8098	0.4287	0.3575	0.082
Mof_H 	H 	0.8142	0.3688	0.3538	-0.008
Mof_C 	C 	0.69006	0.5975	0.2452	0.099
Mof_C 	C 	0.54942	0.7071	0.96636	0.088
Mof_C 	C 	0.59322	0.8059	0.882	0.077
Mof_C 	C 	0.77353	0.5597	0.3333	0.058
Mof_C 	C 	0.5664	0.788	0.91207	0.101
Mof_C 	C 	0.6538	0.788	0.861	0.082
Mof_H 	H 	0.6785	0.7633	0.8664	-0.014
Mof_C 	C 	0.55443	0.6266	0.99467	0.064
Mof_C 	C 	0.6724	0.4574	0.2019	-0.143
Mof_H 	H 	0.6924	0.4276	0.2205	0.086
Mof_C 	C 	0.48233	0.8878	0.9405	0.059
Mof_C 	C 	0.7976	0.6043	0.3672	-0.132
Mof_H 	H 	0.7946	0.6647	0.3711	0.093
Mof_C 	C 	0.70703	0.7274	0.2787	0.103
Mof_C 	C 	0.52907	0.6088	0.0223	-0.134
Mof_H 	H 	0.5084	0.6465	0.0231	0.082
Mof_C 	C 	0.4379	0.9616	0.9766	0.089
Mof_H 	H 	0.4294	0.9738	0.0025	-0.013
Mof_C 	C 	0.7277	0.8805	0.3052	-0.133
Mof_H 	H 	0.7504	0.8577	0.3226	0.085
Mof_C 	C 	0.53514	0.5339	0.0487	0.083
Mof_H 	H 	0.5181	0.522	0.0671	-0.014
Mof_C 	C 	0.6077	0.877	0.819	0.086
Mof_H 	H 	0.6001	0.9139	0.7946	-0.021
Mof_C 	C 	0.74155	0.6056	0.3022	0.085
Mof_C 	C 	0.7007	0.8248	0.2798	0.065
Mof_C 	C 	0.7802	0.4697	0.3283	-0.137
Mof_H 	H 	0.7647	0.4377	0.3054	0.096
Mof_C 	C 	0.5822	0.8623	0.8461	-0.136
Mof_H 	H 	0.558	0.8895	0.8406	0.093
Mof_C 	C 	0.6619	0.9523	0.2563	0.068
Mof_H 	H 	0.6392	0.9764	0.2397	-0.015
Mof_C 	C 	0.6491	0.4134	0.1674	0.087
Mof_H 	H 	0.6543	0.3543	0.1626	-0.015
Mof_C 	C 	0.8263	0.5582	0.395	0.079
Mof_H 	H 	0.8422	0.5885	0.4181	-0.003
Mof_C 	C 	0.6673	0.8622	0.2555	-0.128
Mof_H 	H 	0.6483	0.8264	0.2385	0.087
Mof_C 	C 	0.5837	0.5683	0.9934	-0.129
Mof_H 	H 	0.6006	0.578	0.9745	0.087
Mof_C 	C 	0.5881	0.4944	0.0206	0.069
Mof_H 	H 	0.6081	0.4548	0.0195	-0.014
Mof_C 	C 	0.6297	0.7684	0.8896	-0.131
Mof_H 	H 	0.6379	0.7307	0.9136	0.092
Mof_C 	C 	0.4318	0.9817	0.9019	0.082
Mof_H 	H 	0.419	0.0079	0.8756	-0.018
Mof_C 	C 	0.4687	0.9049	0.9787	-0.137
Mof_H 	H 	0.4802	0.8783	0.0053	0.086
Mof_C 	C 	0.6349	0.586	0.1816	-0.137
Mof_H 	H 	0.6288	0.6449	0.1857	0.101
Mof_C 	C 	0.6129	0.5367	0.1479	0.086
Mof_H 	H 	0.5922	0.5643	0.1291	-0.008
Mof_C 	C 	0.7205	0.9712	0.3043	0.079
Mof_H 	H 	0.7389	0.0082	0.3213	-0.015
Mof_C 	C 	0.4625	0.9258	0.901	-0.134
Mof_H 	H 	0.4698	0.9135	0.8745	0.093
Mof_I 	I 	0.23988	0.27366	0.80832	-0.379
Mof_I 	I 	0.02579	0.852	0.13668	-0.35
Mof_I 	I 	0.13349	0.32504	0.70499	-0.393
Mof_I 	I 	0.11545	0.76222	0.06152	-0.377
Mof_I 	I 	0.39697	0.77122	0.40258	-0.38
Mof_I 	I 	0.35488	0.91415	0.51048	-0.368
Mof_Zn	Zn	0.07967	0.87984	0.09511	1.165
Mof_Zn	Zn	0.17741	0.35879	0.78001	1.163
Mof_Zn	Zn	0.37524	0.91061	0.43649	1.165
Mof_N 	N 	0.18862	0.507	0.2804	-0.276
Mof_N 	N 	0.33237	0.9716	0.39065	-0.277
Mof_N 	N 	0.14314	0.3408	0.826	-0.278
Mof_N 	N 	0.18222	0.1824	0.2483	-0.135
Mof_N 	N 	0.91978	0.4998	0.9394	-0.276
Mof_N 	N 	0.11968	0.9517	0.14072	-0.275
Mof_N 	N 	0.03693	0.3445	0.91065	-0.132
Mof_N 	N 	0.21942	0.0552	0.27143	-0.141
Mof_N 	N 	0.07371	0.2168	0.93847	-0.134
Mof_N 	N 	0.02077	0.2624	0.96997	-0.147
Mof_N 	N 	0.06438	0.9783	0.0487	-0.276
Mof_N 	N 	0.23709	0.1928	0.307	-0.14
Mof_C 	C 	0.16592	0.0464	0.2089	0.072
Mof_C 	C 	0.01527	0.3277	0.94042	0.089
Mof_C 	C 	0.3098	0.9287	0.3575	0.083
Mof_H 	H 	0.3142	0.8688	0.3538	-0.008
Mof_C 	C 	0.19006	0.0975	0.2452	0.099
Mof_C 	C 	0.04942	0.2071	0.96636	0.088
Mof_C 	C 	0.09322	0.3059	0.882	0.077
Mof_C 	C 	0.27353	0.0597	0.3333	0.059
Mof_C 	C 	0.0664	0.288	0.91207	0.101
Mof_C 	C 	0.1538	0.288	0.861	0.082
Mof_H 	H 	0.1785	0.2633	0.8664	-0.014
Mof_C 	C 	0.05443	0.1266	0.99467	0.063
Mof_C 	C 	0.1724	0.9574	0.2019	-0.144
Mof_H 	H 	0.1924	0.9276	0.2205	0.087
Mof_C 	C 	0.98233	0.3878	0.9405	0.059
Mof_C 	C 	0.2976	0.1043	0.3672	-0.132
Mof_H 	H 	0.2946	0.1647	0.3711	0.093
Mof_C 	C 	0.20703	0.2274	0.2787	0.103
Mof_C 	C 	0.02907	0.1088	0.0223	-0.134
Mof_H 	H 	0.0084	0.1465	0.0231	0.082
Mof_C 	C 	0.9379	0.4616	0.9766	0.089
Mof_H 	H 	0.9294	0.4738	0.0025	-0.012
Mof_C 	C 	0.2277	0.3805	0.3052	-0.133
Mof_H 	H 	0.2504	0.3577	0.3226	0.085
Mof_C 	C 	0.03514	0.0339	0.0487	0.083
Mof_H 	H 	0.0181	0.022	0.0671	-0.014
Mof_C 	C 	0.1077	0.377	0.819	0.086
Mof_H 	H 	0.1001	0.4139	0.7946	-0.022
Mof_C 	C 	0.24155	0.1056	0.3022	0.085
Mof_C 	C 	0.2007	0.3248	0.2798	0.065
Mof_C 	C 	0.2802	0.9697	0.3283	-0.137
Mof_H 	H 	0.2647	0.9377	0.3054	0.096
Mof_C 	C 	0.0822	0.3623	0.8461	-0.136
Mof_H 	H 	0.058	0.3895	0.8406	0.093
Mof_C 	C 	0.1619	0.4523	0.2563	0.068
Mof_H 	H 	0.1392	0.4764	0.2397	-0.015
Mof_C 	C 	0.1491	0.9134	0.1674	0.087
Mof_H 	H 	0.1543	0.8543	0.1626	-0.015
Mof_C 	C 	0.3263	0.0582	0.395	0.079
Mof_H 	H 	0.3422	0.0885	0.4181	-0.003
Mof_C 	C 	0.1673	0.3622	0.2555	-0.129
Mof_H 	H 	0.1483	0.3264	0.2385	0.087
Mof_C 	C 	0.0837	0.0683	0.9934	-0.129
Mof_H 	H 	0.1006	0.078	0.9745	0.087
Mof_C 	C 	0.0881	0.9944	0.0206	0.068
Mof_H 	H 	0.1081	0.9548	0.0195	-0.013
Mof_C 	C 	0.1297	0.2684	0.8896	-0.131
Mof_H 	H 	0.1379	0.2307	0.9136	0.092
Mof_C 	C 	0.9318	0.4817	0.9019	0.081
Mof_H 	H 	0.919	0.5079	0.8756	-0.017
Mof_C 	C 	0.9687	0.4049	0.9787	-0.138
Mof_H 	H 	0.9802	0.3783	0.0053	0.086
Mof_C 	C 	0.1349	0.086	0.1816	-0.138
Mof_H 	H 	0.1288	0.1449	0.1857	0.101
Mof_C 	C 	0.1129	0.0367	0.1479	0.086
Mof_H 	H 	0.0922	0.0643	0.1291	-0.008
Mof_C 	C 	0.2205	0.4712	0.3043	0.08
Mof_H 	H 	0.2389	0.5082	0.3213	-0.015
Mof_C 	C 	0.9625	0.4258	0.901	-0.134
Mof_H 	H 	0.9698	0.4135	0.8745	0.092
Mof_I 	I 	0.26012	0.22634	0.19168	-0.379
Mof_I 	I 	0.47421	0.648	0.86332	-0.35
Mof_I 	I 	0.36651	0.17496	0.29501	-0.393
Mof_I 	I 	0.38455	0.73778	0.93848	-0.377
Mof_I 	I 	0.10303	0.72878	0.59742	-0.38
Mof_I 	I 	0.14512	0.58585	0.48952	-0.368
Mof_Zn	Zn	0.42033	0.62016	0.90489	1.165
Mof_Zn	Zn	0.32259	0.14121	0.21999	1.163
Mof_Zn	Zn	0.12476	0.58939	0.56351	1.165
Mof_N 	N 	0.31138	0.993	0.7196	-0.276
Mof_N 	N 	0.16763	0.5284	0.60935	-0.277
Mof_N 	N 	0.35686	0.1592	0.174	-0.278
Mof_N 	N 	0.31778	0.3176	0.7517	-0.135
Mof_N 	N 	0.58022	0.0002	0.0606	-0.276
Mof_N 	N 	0.38032	0.5483	0.85928	-0.274
Mof_N 	N 	0.46307	0.1555	0.08935	-0.132
Mof_N 	N 	0.28058	0.4448	0.72857	-0.141
Mof_N 	N 	0.42629	0.2832	0.06153	-0.133
Mof_N 	N 	0.47923	0.2376	0.03003	-0.147
Mof_N 	N 	0.43562	0.5217	0.9513	-0.276
Mof_N 	N 	0.26291	0.3072	0.693	-0.14
Mof_C 	C 	0.33408	0.4536	0.7911	0.071
Mof_C 	C 	0.48473	0.1723	0.05958	0.089
Mof_C 	C 	0.1902	0.5713	0.6425	0.082
Mof_H 	H 	0.1858	0.6312	0.6462	-0.008
Mof_C 	C 	0.30994	0.4025	0.7548	0.099
Mof_C 	C 	0.45058	0.2929	0.03364	0.088
Mof_C 	C 	0.40678	0.1941	0.118	0.077
Mof_C 	C 	0.22647	0.4403	0.6667	0.058
Mof_C 	C 	0.4336	0.212	0.08793	0.101
Mof_C 	C 	0.3462	0.212	0.139	0.082
Mof_H 	H 	0.3215	0.2367	0.1336	-0.014
Mof_C 	C 	0.44557	0.3734	0.00533	0.064
Mof_C 	C 	0.3276	0.5426	0.7981	-0.143
Mof_H 	H 	0.3076	0.5724	0.7795	0.086
Mof_C 	C 	0.51767	0.1122	0.0595	0.059
Mof_C 	C 	0.2024	0.3957	0.6328	-0.132
Mof_H 	H 	0.2054	0.3353	0.6289	0.093
Mof_C 	C 	0.29297	0.2726	0.7213	0.103
Mof_C 	C 	0.47093	0.3912	0.9777	-0.134
Mof_H 	H 	0.4916	0.3535	0.9769	0.082
Mof_C 	C 	0.5621	0.0384	0.0234	0.089
Mof_H 	H 	0.5706	0.0262	0.9975	-0.013
Mof_C 	C 	0.2723	0.1195	0.6948	-0.133
Mof_H 	H 	0.2496	0.1423	0.6774	0.085
Mof_C 	C 	0.46486	0.4661	0.9513	0.083
Mof_H 	H 	0.4819	0.478	0.9329	-0.014
Mof_C 	C 	0.3923	0.123	0.181	0.086
Mof_H 	H 	0.3999	0.0861	0.2054	-0.021
Mof_C 	C 	0.25845	0.3944	0.6978	0.085
Mof_C 	C 	0.2993	0.1752	0.7202	0.065
Mof_C 	C 	0.2198	0.5303	0.6717	-0.137
Mof_H 	H 	0.2353	0.5623	0.6946	0.096
Mof_C 	C 	0.4178	0.1377	0.1539	-0.136
Mof_H 	H 	0.442	0.1105	0.1594	0.093
Mof_C 	C 	0.3381	0.0477	0.7437	0.068
Mof_H 	H 	0.3608	0.0236	0.7603	-0.015
Mof_C 	C 	0.3509	0.5866	0.8326	0.087
Mof_H 	H 	0.3457	0.6457	0.8374	-0.015
Mof_C 	C 	0.1737	0.4418	0.605	0.079
Mof_H 	H 	0.1578	0.4115	0.5819	-0.003
Mof_C 	C 	0.3327	0.1378	0.7445	-0.128
Mof_H 	H 	0.3517	0.1736	0.7615	0.087
Mof_C 	C 	0.4163	0.4317	0.0066	-0.129
Mof_H 	H 	0.3994	0.422	0.0255	0.087
Mof_C 	C 	0.4119	0.5056	0.9794	0.069
Mof_H 	H 	0.3919	0.5452	0.9805	-0.014
Mof_C 	C 	0.3703	0.2316	0.1104	-0.131
Mof_H 	H 	0.3621	0.2693	0.0864	0.092
Mof_C 	C 	0.5682	0.0183	0.0981	0.082
Mof_H 	H 	0.581	0.9921	0.1244	-0.018
Mof_C 	C 	0.5313	0.0951	0.0213	-0.137
Mof_H 	H 	0.5198	0.1217	0.9947	0.086
Mof_C 	C 	0.3651	0.414	0.8184	-0.137
Mof_H 	H 	0.3712	0.3551	0.8143	0.101
Mof_C 	C 	0.3871	0.4633	0.8521	0.086
Mof_H 	H 	0.4078	0.4357	0.8709	-0.008
Mof_C 	C 	0.2795	0.0288	0.6957	0.079
Mof_H 	H 	0.2611	0.9918	0.6787	-0.015
Mof_C 	C 	0.5375	0.0742	0.099	-0.134
Mof_H 	H 	0.5302	0.0865	0.1255	0.093
Mof_I 	I 	0.76012	0.72634	0.19168	-0.379
Mof_I 	I 	0.97421	0.148	0.86332	-0.35
Mof_I 	I 	0.86651	0.67496	0.29501	-0.393
Mof_I 	I 	0.88455	0.23778	0.93848	-0.377
Mof_I 	I 	0.60303	0.22878	0.59742	-0.38
Mof_I 	I 	0.64512	0.08585	0.48952	-0.368
Mof_Zn	Zn	0.92033	0.12016	0.90489	1.165
Mof_Zn	Zn	0.82259	0.64121	0.21999	1.163
Mof_Zn	Zn	0.62476	0.08939	0.56351	1.165
Mof_N 	N 	0.81138	0.493	0.7196	-0.276
Mof_N 	N 	0.66763	0.0284	0.60935	-0.277
Mof_N 	N 	0.85686	0.6592	0.174	-0.278
Mof_N 	N 	0.81778	0.8176	0.7517	-0.135
Mof_N 	N 	0.08022	0.5002	0.0606	-0.276
Mof_N 	N 	0.88032	0.0483	0.85928	-0.275
Mof_N 	N 	0.96307	0.6555	0.08935	-0.132
Mof_N 	N 	0.78058	0.9448	0.72857	-0.141
Mof_N 	N 	0.92629	0.7832	0.06153	-0.134
Mof_N 	N 	0.97923	0.7376	0.03003	-0.147
Mof_N 	N 	0.93562	0.0217	0.9513	-0.276
Mof_N 	N 	0.76291	0.8072	0.693	-0.14
Mof_C 	C 	0.83408	0.9536	0.7911	0.072
Mof_C 	C 	0.98473	0.6723	0.05958	0.089
Mof_C 	C 	0.6902	0.0713	0.6425	0.083
Mof_H 	H 	0.6858	0.1312	0.6462	-0.008
Mof_C 	C 	0.80994	0.9025	0.7548	0.099
Mof_C 	C 	0.95058	0.7929	0.03364	0.088
Mof_C 	C 	0.90678	0.6941	0.118	0.077
Mof_C 	C 	0.72647	0.9403	0.6667	0.059
Mof_C 	C 	0.9336	0.712	0.08793	0.101
Mof_C 	C 	0.8462	0.712	0.139	0.082
Mof_H 	H 	0.8215	0.7367	0.1336	-0.014
Mof_C 	C 	0.94557	0.8734	0.00533	0.063
Mof_C 	C 	0.8276	0.0426	0.7981	-0.144
Mof_H 	H 	0.8076	0.0724	0.7795	0.087
Mof_C 	C 	0.01767	0.6122	0.0595	0.059
Mof_C 	C 	0.7024	0.8957	0.6328	-0.132
Mof_H 	H 	0.7054	0.8353	0.6289	0.093
Mof_C 	C 	0.79297	0.7726	0.7213	0.103
Mof_C 	C 	0.97093	0.8912	0.9777	-0.134
Mof_H 	H 	0.9916	0.8535	0.9769	0.082
Mof_C 	C 	0.0621	0.5384	0.0234	0.089
Mof_H 	H 	0.0706	0.5262	0.9975	-0.012
Mof_C 	C 	0.7723	0.6195	0.6948	-0.133
Mof_H 	H 	0.7496	0.6423	0.6774	0.085
Mof_C 	C 	0.96486	0.9661	0.9513	0.083
Mof_H 	H 	0.9819	0.978	0.9329	-0.014
Mof_C 	C 	0.8923	0.623	0.181	0.086
Mof_H 	H 	0.8999	0.5861	0.2054	-0.022
Mof_C 	C 	0.75845	0.8944	0.6978	0.085
Mof_C 	C 	0.7993	0.6752	0.7202	0.065
Mof_C 	C 	0.7198	0.0303	0.6717	-0.137
Mof_H 	H 	0.7353	0.0623	0.6946	0.096
Mof_C 	C 	0.9178	0.6377	0.1539	-0.136
Mof_H 	H 	0.942	0.6105	0.1594	0.093
Mof_C 	C 	0.8381	0.5477	0.7437	0.068
Mof_H 	H 	0.8608	0.5236	0.7603	-0.015
Mof_C 	C 	0.8509	0.0866	0.8326	0.087
Mof_H 	H 	0.8457	0.1457	0.8374	-0.015
Mof_C 	C 	0.6737	0.9418	0.605	0.079
Mof_H 	H 	0.6578	0.9115	0.5819	-0.003
Mof_C 	C 	0.8327	0.6378	0.7445	-0.129
Mof_H 	H 	0.8517	0.6736	0.7615	0.087
Mof_C 	C 	0.9163	0.9317	0.0066	-0.129
Mof_H 	H 	0.8994	0.922	0.0255	0.087
Mof_C 	C 	0.9119	0.0056	0.9794	0.068
Mof_H 	H 	0.8919	0.0452	0.9805	-0.013
Mof_C 	C 	0.8703	0.7316	0.1104	-0.131
Mof_H 	H 	0.8621	0.7693	0.0864	0.092
Mof_C 	C 	0.0682	0.5183	0.0981	0.081
Mof_H 	H 	0.081	0.4921	0.1244	-0.017
Mof_C 	C 	0.0313	0.5951	0.0213	-0.138
Mof_H 	H 	0.0198	0.6217	0.9947	0.086
Mof_C 	C 	0.8651	0.914	0.8184	-0.138
Mof_H 	H 	0.8712	0.8551	0.8143	0.101
Mof_C 	C 	0.8871	0.9633	0.8521	0.086
Mof_H 	H 	0.9078	0.9357	0.8709	-0.008
Mof_C 	C 	0.7795	0.5288	0.6957	0.08
Mof_H 	H 	0.7611	0.4918	0.6787	-0.015
Mof_C 	C 	0.0375	0.5742	0.099	-0.134
Mof_H 	H 	0.0302	0.5865	0.1255	0.092
Mof_I 	I 	0.26012	0.77366	0.69168	-0.379
Mof_I 	I 	0.47421	0.352	0.36332	-0.35
Mof_I 	I 	0.36651	0.82504	0.79501	-0.393
Mof_I 	I 	0.38455	0.26222	0.43848	-0.377
Mof_I 	I 	0.10303	0.27122	0.09742	-0.38
Mof_I 	I 	0.14512	0.41415	0.98952	-0.368
Mof_Zn	Zn	0.42033	0.37984	0.40489	1.165
Mof_Zn	Zn	0.32259	0.85879	0.71999	1.163
Mof_Zn	Zn	0.12476	0.41061	0.06351	1.165
Mof_N 	N 	0.31138	0.007	0.2196	-0.275
Mof_N 	N 	0.16763	0.4716	0.10935	-0.277
Mof_N 	N 	0.35686	0.8408	0.674	-0.278
Mof_N 	N 	0.31778	0.6824	0.2517	-0.135
Mof_N 	N 	0.58022	0.9998	0.5606	-0.276
Mof_N 	N 	0.38032	0.4517	0.35928	-0.274
Mof_N 	N 	0.46307	0.8445	0.58935	-0.132
Mof_N 	N 	0.28058	0.5552	0.22857	-0.141
Mof_N 	N 	0.42629	0.7168	0.56153	-0.133
Mof_N 	N 	0.47923	0.7624	0.53003	-0.147
Mof_N 	N 	0.43562	0.4783	0.4513	-0.276
Mof_N 	N 	0.26291	0.6928	0.193	-0.14
Mof_C 	C 	0.33408	0.5464	0.2911	0.071
Mof_C 	C 	0.48473	0.8277	0.55958	0.089
Mof_C 	C 	0.1902	0.4287	0.1425	0.082
Mof_H 	H 	0.1858	0.3688	0.1462	-0.008
Mof_C 	C 	0.30994	0.5975	0.2548	0.099
Mof_C 	C 	0.45058	0.7071	0.53364	0.088
Mof_C 	C 	0.40678	0.8059	0.618	0.077
Mof_C 	C 	0.22647	0.5597	0.1667	0.058
Mof_C 	C 	0.4336	0.788	0.58793	0.101
Mof_C 	C 	0.3462	0.788	0.639	0.082
Mof_H 	H 	0.3215	0.7633	0.6336	-0.014
Mof_C 	C 	0.44557	0.6266	0.50533	0.064
Mof_C 	C 	0.3276	0.4574	0.2981	-0.143
Mof_H 	H 	0.3076	0.4276	0.2795	0.086
Mof_C 	C 	0.51767	0.8878	0.5595	0.059
Mof_C 	C 	0.2024	0.6043	0.1328	-0.132
Mof_H 	H 	0.2054	0.6647	0.1289	0.093
Mof_C 	C 	0.29297	0.7274	0.2213	0.103
Mof_C 	C 	0.47093	0.6088	0.4777	-0.134
Mof_H 	H 	0.4916	0.6465	0.4769	0.082
Mof_C 	C 	0.5621	0.9616	0.5234	0.089
Mof_H 	H 	0.5706	0.9738	0.4975	-0.012
Mof_C 	C 	0.2723	0.8805	0.1948	-0.133
Mof_H 	H 	0.2496	0.8577	0.1774	0.084
Mof_C 	C 	0.46486	0.5339	0.4513	0.082
Mof_H 	H 	0.4819	0.522	0.4329	-0.014
Mof_C 	C 	0.3923	0.877	0.681	0.086
Mof_H 	H 	0.3999	0.9139	0.7054	-0.021
Mof_C 	C 	0.25845	0.6056	0.1978	0.085
Mof_C 	C 	0.2993	0.8248	0.2202	0.065
Mof_C 	C 	0.2198	0.4697	0.1717	-0.137
Mof_H 	H 	0.2353	0.4377	0.1946	0.096
Mof_C 	C 	0.4178	0.8623	0.6539	-0.136
Mof_H 	H 	0.442	0.8895	0.6594	0.093
Mof_C 	C 	0.3381	0.9523	0.2437	0.068
Mof_H 	H 	0.3608	0.9764	0.2603	-0.015
Mof_C 	C 	0.3509	0.4134	0.3326	0.087
Mof_H 	H 	0.3457	0.3543	0.3374	-0.015
Mof_C 	C 	0.1737	0.5582	0.105	0.079
Mof_H 	H 	0.1578	0.5885	0.0819	-0.003
Mof_C 	C 	0.3327	0.8622	0.2445	-0.128
Mof_H 	H 	0.3517	0.8264	0.2615	0.087
Mof_C 	C 	0.4163	0.5683	0.5066	-0.129
Mof_H 	H 	0.3994	0.578	0.5255	0.087
Mof_C 	C 	0.4119	0.4944	0.4794	0.069
Mof_H 	H 	0.3919	0.4548	0.4805	-0.013
Mof_C 	C 	0.3703	0.7684	0.6104	-0.131
Mof_H 	H 	0.3621	0.7307	0.5864	0.092
Mof_C 	C 	0.5682	0.9817	0.5981	0.081
Mof_H 	H 	0.581	0.0079	0.6244	-0.018
Mof_C 	C 	0.5313	0.9049	0.5213	-0.138
Mof_H 	H 	0.5198	0.8783	0.4947	0.086
Mof_C 	C 	0.3651	0.586	0.3184	-0.137
Mof_H 	H 	0.3712	0.6449	0.3143	0.101
Mof_C 	C 	0.3871	0.5367	0.3521	0.086
Mof_H 	H 	0.4078	0.5643	0.3709	-0.008
Mof_C 	C 	0.2795	0.9712	0.1957	0.078
Mof_H 	H 	0.2611	0.0082	0.1787	-0.015
Mof_C 	C 	0.5375	0.9258	0.599	-0.134
Mof_H 	H 	0.5302	0.9135	0.6255	0.092
Mof_I 	I 	0.76012	0.27366	0.69168	-0.379
Mof_I 	I 	0.97421	0.852	0.36332	-0.35
Mof_I 	I 	0.86651	0.32504	0.79501	-0.393
Mof_I 	I 	0.88455	0.76222	0.43848	-0.377
Mof_I 	I 	0.60303	0.77122	0.09742	-0.38
Mof_I 	I 	0.64512	0.91415	0.98952	-0.368
Mof_Zn	Zn	0.92033	0.87984	0.40489	1.165
Mof_Zn	Zn	0.82259	0.35879	0.71999	1.163
Mof_Zn	Zn	0.62476	0.91061	0.06351	1.164
Mof_N 	N 	0.81138	0.507	0.2196	-0.276
Mof_N 	N 	0.66763	0.9716	0.10935	-0.277
Mof_N 	N 	0.85686	0.3408	0.674	-0.278
Mof_N 	N 	0.81778	0.1824	0.2517	-0.135
Mof_N 	N 	0.08022	0.4998	0.5606	-0.276
Mof_N 	N 	0.88032	0.9517	0.35928	-0.275
Mof_N 	N 	0.96307	0.3445	0.58935	-0.132
Mof_N 	N 	0.78058	0.0552	0.22857	-0.141
Mof_N 	N 	0.92629	0.2168	0.56153	-0.134
Mof_N 	N 	0.97923	0.2624	0.53003	-0.147
Mof_N 	N 	0.93562	0.9783	0.4513	-0.276
Mof_N 	N 	0.76291	0.1928	0.193	-0.14
Mof_C 	C 	0.83408	0.0464	0.2911	0.072
Mof_C 	C 	0.98473	0.3277	0.55958	0.089
Mof_C 	C 	0.6902	0.9287	0.1425	0.083
Mof_H 	H 	0.6858	0.8688	0.1462	-0.008
Mof_C 	C 	0.80994	0.0975	0.2548	0.099
Mof_C 	C 	0.95058	0.2071	0.53364	0.088
Mof_C 	C 	0.90678	0.3059	0.618	0.077
Mof_C 	C 	0.72647	0.0597	0.1667	0.059
Mof_C 	C 	0.9336	0.288	0.58793	0.101
Mof_C 	C 	0.8462	0.288	0.639	0.082
Mof_H 	H 	0.8215	0.2633	0.6336	-0.014
Mof_C 	C 	0.94557	0.1266	0.50533	0.064
Mof_C 	C 	0.8276	0.9574	0.2981	-0.144
Mof_H 	H 	0.8076	0.9276	0.2795	0.086
Mof_C 	C 	0.01767	0.3878	0.5595	0.059
Mof_C 	C 	0.7024	0.1043	0.1328	-0.133
Mof_H 	H 	0.7054	0.1647	0.1289	0.094
Mof_C 	C 	0.79297	0.2274	0.2213	0.103
Mof_C 	C 	0.97093	0.1088	0.4777	-0.134
Mof_H 	H 	0.9916	0.1465	0.4769	0.082
Mof_C 	C 	0.0621	0.4616	0.5234	0.089
Mof_H 	H 	0.0706	0.4738	0.4975	-0.012
Mof_C 	C 	0.7723	0.3805	0.1948	-0.133
Mof_H 	H 	0.7496	0.3577	0.1774	0.085
Mof_C 	C 	0.96486	0.0339	0.4513	0.083
Mof_H 	H 	0.9819	0.022	0.4329	-0.014
Mof_C 	C 	0.8923	0.377	0.681	0.086
Mof_H 	H 	0.8999	0.4139	0.7054	-0.022
Mof_C 	C 	0.75845	0.1056	0.1978	0.085
Mof_C 	C 	0.7993	0.3248	0.2202	0.065
Mof_C 	C 	0.7198	0.9697	0.1717	-0.138
Mof_H 	H 	0.7353	0.9377	0.1946	0.096
Mof_C 	C 	0.9178	0.3623	0.6539	-0.136
Mof_H 	H 	0.942	0.3895	0.6594	0.093
Mof_C 	C 	0.8381	0.4523	0.2437	0.068
Mof_H 	H 	0.8608	0.4764	0.2603	-0.015
Mof_C 	C 	0.8509	0.9134	0.3326	0.087
Mof_H 	H 	0.8457	0.8543	0.3374	-0.015
Mof_C 	C 	0.6737	0.0582	0.105	0.08
Mof_H 	H 	0.6578	0.0885	0.0819	-0.003
Mof_C 	C 	0.8327	0.3622	0.2445	-0.129
Mof_H 	H 	0.8517	0.3264	0.2615	0.087
Mof_C 	C 	0.9163	0.0683	0.5066	-0.129
Mof_H 	H 	0.8994	0.078	0.5255	0.087
Mof_C 	C 	0.9119	0.9944	0.4794	0.068
Mof_H 	H 	0.8919	0.9548	0.4805	-0.013
Mof_C 	C 	0.8703	0.2684	0.6104	-0.131
Mof_H 	H 	0.8621	0.2307	0.5864	0.092
Mof_C 	C 	0.0682	0.4817	0.5981	0.081
Mof_H 	H 	0.081	0.5079	0.6244	-0.017
Mof_C 	C 	0.0313	0.4049	0.5213	-0.137
Mof_H 	H 	0.0198	0.3783	0.4947	0.086
Mof_C 	C 	0.8651	0.086	0.3184	-0.137
Mof_H 	H 	0.8712	0.1449	0.3143	0.101
Mof_C 	C 	0.8871	0.0367	0.3521	0.086
Mof_H 	H 	0.9078	0.0643	0.3709	-0.008
Mof_C 	C 	0.7795	0.4712	0.1957	0.08
Mof_H 	H 	0.7611	0.5082	0.1787	-0.015
Mof_C 	C 	0.0375	0.4258	0.599	-0.134
Mof_H 	H 	0.0302	0.4135	0.6255	0.092
_end
