data_functionalizedCrystal
_audit_creation_method	'EQeq! by Chris Wilmer'
_symmetry_space_group_name_H-M	'P1'
_symmetry_Int_Tables_number	1
_symmetry_cell_setting	triclinic
loop_
_symmetry_equiv_pos_as_xyz
  x,y,z
_cell_length_a	12.2383
_cell_length_b	25.491
_cell_length_c	7.5539
_cell_angle_alpha	90
_cell_angle_beta	94.329
_cell_angle_gamma	90
loop_
_atom_site_label
_atom_site_type_symbol
_atom_site_fract_x
_atom_site_fract_y
_atom_site_fract_z
_atom_site_charge
Mof_C 	C 	0.8652	0.8896	0.3928	-0.083
Mof_C 	C 	0.8647	0.9574	0.9122	-0.07
Mof_C 	C 	0.7657	0.75594	0.7571	0.035
Mof_H 	H 	0.7028	0.7503	0.6825	0.022
Mof_C 	C 	0.8215	0.71271	0.83	-0.035
Mof_H 	H 	0.7955	0.679	0.8055	0.049
Mof_C 	C 	0.9148	0.72001	0.9379	-0.078
Mof_C 	C 	0.9527	0.77076	0.966	0.036
Mof_H 	H 	0.0177	0.7772	0.0345	-0.009
Mof_C 	C 	0.8925	0.8111	0.8908	0.001
Mof_H 	H 	0.9184	0.845	0.9112	0.01
Mof_C 	C 	0.9722	0.6737	0.0303	0.376
Mof_Mn	Mn	0.68809	0.87537	0.70307	0.757
Mof_N 	N 	0.7928	0.88396	0.4784	-0.167
Mof_N 	N 	0.7926	0.93132	0.8597	-0.178
Mof_N 	N 	0.7979	0.80516	0.7888	-0.162
Mof_O 	O 	0.0738	0.67752	0.0652	-0.39
Mof_O 	O 	0.9131	0.63492	0.0661	-0.37
Mof_C 	C 	0.3652	0.3896	0.3928	-0.116
Mof_C 	C 	0.3647	0.4574	0.9122	-0.12
Mof_C 	C 	0.2657	0.25594	0.7571	0.052
Mof_H 	H 	0.2028	0.2503	0.6825	0.017
Mof_C 	C 	0.3215	0.21271	0.83	-0.067
Mof_H 	H 	0.2955	0.179	0.8055	0.058
Mof_C 	C 	0.4148	0.22001	0.9379	-0.034
Mof_C 	C 	0.4527	0.27076	0.966	-0.061
Mof_H 	H 	0.5177	0.2772	0.0345	0.042
Mof_C 	C 	0.3925	0.3111	0.8908	0.047
Mof_H 	H 	0.4184	0.345	0.9112	-0.017
Mof_C 	C 	0.4722	0.1737	0.0303	0.325
Mof_Mn	Mn	0.18809	0.37537	0.70307	0.741
Mof_N 	N 	0.2928	0.38396	0.4784	-0.164
Mof_N 	N 	0.2926	0.43132	0.8597	-0.173
Mof_N 	N 	0.2979	0.30516	0.7888	-0.174
Mof_O 	O 	0.5738	0.17752	0.0652	-0.361
Mof_O 	O 	0.4131	0.13492	0.0661	-0.366
Mof_C 	C 	0.1348	0.8896	0.1072	-0.107
Mof_C 	C 	0.1353	0.9574	0.5878	-0.099
Mof_C 	C 	0.2343	0.75594	0.7429	0.072
Mof_H 	H 	0.2972	0.7503	0.8175	0.01
Mof_C 	C 	0.1785	0.71271	0.67	-0.104
Mof_H 	H 	0.2045	0.679	0.6945	0.069
Mof_C 	C 	0.0852	0.72001	0.5621	0.013
Mof_C 	C 	0.0473	0.77076	0.534	-0.181
Mof_H 	H 	0.9823	0.7772	0.4655	0.11
Mof_C 	C 	0.1075	0.8111	0.6092	0.103
Mof_H 	H 	0.0816	0.845	0.5888	-0.043
Mof_C 	C 	0.0278	0.6737	0.4697	0.277
Mof_Mn	Mn	0.31191	0.87537	0.79693	0.757
Mof_N 	N 	0.2072	0.88396	0.0216	-0.167
Mof_N 	N 	0.2074	0.93132	0.6403	-0.174
Mof_N 	N 	0.2021	0.80516	0.7112	-0.189
Mof_O 	O 	0.9262	0.67752	0.4348	-0.328
Mof_O 	O 	0.0869	0.63492	0.4339	-0.357
Mof_C 	C 	0.6348	0.3896	0.1072	-0.114
Mof_C 	C 	0.6353	0.4574	0.5878	-0.125
Mof_C 	C 	0.7343	0.25594	0.7429	0.054
Mof_H 	H 	0.7972	0.2503	0.8175	0.016
Mof_C 	C 	0.6785	0.21271	0.67	-0.07
Mof_H 	H 	0.7045	0.179	0.6945	0.059
Mof_C 	C 	0.5852	0.22001	0.5621	-0.034
Mof_C 	C 	0.5473	0.27076	0.534	-0.082
Mof_H 	H 	0.4823	0.2772	0.4655	0.055
Mof_C 	C 	0.6075	0.3111	0.6092	0.057
Mof_H 	H 	0.5816	0.345	0.5888	-0.022
Mof_C 	C 	0.5278	0.1737	0.4697	0.33
Mof_Mn	Mn	0.81191	0.37537	0.79693	0.76
Mof_N 	N 	0.7072	0.38396	0.0216	-0.166
Mof_N 	N 	0.7074	0.43132	0.6403	-0.169
Mof_N 	N 	0.7021	0.30516	0.7112	-0.177
Mof_O 	O 	0.4262	0.17752	0.4348	-0.359
Mof_O 	O 	0.5869	0.13492	0.4339	-0.363
Mof_C 	C 	0.1348	0.1104	0.6072	-0.108
Mof_C 	C 	0.1353	0.0426	0.0878	-0.117
Mof_C 	C 	0.2343	0.24406	0.2429	0.071
Mof_H 	H 	0.2972	0.2497	0.3175	0.009
Mof_C 	C 	0.1785	0.28729	0.17	-0.106
Mof_H 	H 	0.2045	0.321	0.1945	0.067
Mof_C 	C 	0.0852	0.27999	0.0621	0.012
Mof_C 	C 	0.0473	0.22924	0.034	-0.2
Mof_H 	H 	0.9823	0.2228	0.9655	0.122
Mof_C 	C 	0.1075	0.1889	0.1092	0.11
Mof_H 	H 	0.0816	0.155	0.0888	-0.048
Mof_C 	C 	0.0278	0.3263	0.9697	0.281
Mof_Mn	Mn	0.31191	0.12463	0.29693	0.745
Mof_N 	N 	0.2072	0.11604	0.5216	-0.165
Mof_N 	N 	0.2074	0.06868	0.1403	-0.176
Mof_N 	N 	0.2021	0.19484	0.2112	-0.191
Mof_O 	O 	0.9262	0.32248	0.9348	-0.327
Mof_O 	O 	0.0869	0.36508	0.9339	-0.356
Mof_C 	C 	0.6348	0.6104	0.6072	-0.113
Mof_C 	C 	0.6353	0.5426	0.0878	-0.126
Mof_C 	C 	0.7343	0.74406	0.2429	0.053
Mof_H 	H 	0.7972	0.7497	0.3175	0.015
Mof_C 	C 	0.6785	0.78729	0.17	-0.072
Mof_H 	H 	0.7045	0.821	0.1945	0.057
Mof_C 	C 	0.5852	0.77999	0.0621	-0.035
Mof_C 	C 	0.5473	0.72924	0.034	-0.102
Mof_H 	H 	0.4823	0.7228	0.9655	0.067
Mof_C 	C 	0.6075	0.6889	0.1092	0.064
Mof_H 	H 	0.5816	0.655	0.0888	-0.028
Mof_C 	C 	0.5278	0.8263	0.9697	0.336
Mof_Mn	Mn	0.81191	0.62463	0.29693	0.753
Mof_N 	N 	0.7072	0.61604	0.5216	-0.162
Mof_N 	N 	0.7074	0.56868	0.1403	-0.171
Mof_N 	N 	0.7021	0.69484	0.2112	-0.18
Mof_O 	O 	0.4262	0.82248	0.9348	-0.358
Mof_O 	O 	0.5869	0.86508	0.9339	-0.36
Mof_C 	C 	0.8652	0.1104	0.8928	-0.081
Mof_C 	C 	0.8647	0.0426	0.4122	-0.094
Mof_C 	C 	0.7657	0.24406	0.2571	0.032
Mof_H 	H 	0.7028	0.2497	0.1825	0.021
Mof_C 	C 	0.8215	0.28729	0.33	-0.034
Mof_H 	H 	0.7955	0.321	0.3055	0.045
Mof_C 	C 	0.9148	0.27999	0.4379	-0.084
Mof_C 	C 	0.9527	0.22924	0.466	0.022
Mof_H 	H 	0.0177	0.2228	0.5345	0
Mof_C 	C 	0.8925	0.1889	0.3908	0.006
Mof_H 	H 	0.9184	0.155	0.4112	0.006
Mof_C 	C 	0.9722	0.3263	0.5303	0.385
Mof_Mn	Mn	0.68809	0.12463	0.20307	0.744
Mof_N 	N 	0.7928	0.11604	0.9784	-0.165
Mof_N 	N 	0.7926	0.06868	0.3597	-0.177
Mof_N 	N 	0.7979	0.19484	0.2888	-0.163
Mof_O 	O 	0.0738	0.32248	0.5652	-0.391
Mof_O 	O 	0.9131	0.36508	0.5661	-0.37
Mof_C 	C 	0.3652	0.6104	0.8928	-0.114
Mof_C 	C 	0.3647	0.5426	0.4122	-0.131
Mof_C 	C 	0.2657	0.74406	0.2571	0.051
Mof_H 	H 	0.2028	0.7497	0.1825	0.015
Mof_C 	C 	0.3215	0.78729	0.33	-0.07
Mof_H 	H 	0.2955	0.821	0.3055	0.057
Mof_C 	C 	0.4148	0.77999	0.4379	-0.035
Mof_C 	C 	0.4527	0.72924	0.466	-0.081
Mof_H 	H 	0.5177	0.7228	0.5345	0.055
Mof_C 	C 	0.3925	0.6889	0.3908	0.055
Mof_H 	H 	0.4184	0.655	0.4112	-0.023
Mof_C 	C 	0.4722	0.8263	0.5303	0.331
Mof_Mn	Mn	0.18809	0.62463	0.20307	0.735
Mof_N 	N 	0.2928	0.61604	0.9784	-0.16
Mof_N 	N 	0.2926	0.56868	0.3597	-0.172
Mof_N 	N 	0.2979	0.69484	0.2888	-0.176
Mof_O 	O 	0.5738	0.82248	0.5652	-0.36
Mof_O 	O 	0.4131	0.86508	0.5661	-0.362
Mof_Ag	Ag	6.22237e-34	0.89711	0.25	0.377
Mof_Ag	Ag	0.5	0.39711	0.25	0.408
Mof_Ag	Ag	6.04758e-18	0.10289	0.75	0.374
Mof_Ag	Ag	0.5	0.60289	0.75	0.42
Mof_Ag	Ag	-0	0	-0	0.249
Mof_Ag	Ag	0.5	0.5	-0	0.312
Mof_Ag	Ag	3.02379e-18	0	0.5	0.265
Mof_Ag	Ag	0.5	0.5	0.5	0.332
_end
