data_functionalizedCrystal
_audit_creation_method	'EQeq! by Chris Wilmer'
_symmetry_space_group_name_H-M	'P1'
_symmetry_Int_Tables_number	1
_symmetry_cell_setting	triclinic
loop_
_symmetry_equiv_pos_as_xyz
  x,y,z
_cell_length_a	15.2246
_cell_length_b	15.2246
_cell_length_c	16.686
_cell_angle_alpha	106.342
_cell_angle_beta	106.342
_cell_angle_gamma	110.907
loop_
_atom_site_label
_atom_site_type_symbol
_atom_site_fract_x
_atom_site_fract_y
_atom_site_fract_z
_atom_site_charge
Mof_Ni	Ni	-0	0.5	-0	1.021
Mof_Ni	Ni	0.5	0	0.5	1.047
Mof_Ni	Ni	1.81211e-17	0	0.5	1.024
Mof_Ni	Ni	-0	0	-0	0.996
Mof_Mo	Mo	0.87129	0.12871	0.75	1.053
Mof_Mo	Mo	0.12871	0.87129	0.25	1.056
Mof_H 	H 	0.1283	0.4221	0.9015	0.031
Mof_H 	H 	0.2385	0.5195	0.9657	0.069
Mof_H 	H 	0.0971	0.3527	0.018	0.013
Mof_H 	H 	0.2152	0.4272	0.081	0.043
Mof_H 	H 	0.0061	0.3965	0.1897	0.077
Mof_H 	H 	0.9688	0.3314	0.084	0.112
Mof_H 	H 	0.1686	0.6302	0.9557	0.087
Mof_H 	H 	0.1404	0.5546	0.8555	0.076
Mof_H 	H 	0.8384	0.0262	0.4045	-0.057
Mof_H 	H 	0.7939	0.9619	0.298	0.009
Mof_H 	H 	0.7524	0.8602	0.4111	0.054
Mof_H 	H 	0.7259	0.7851	0.3107	0.053
Mof_H 	H 	0.8781	0.7487	0.5289	0.069
Mof_H 	H 	0.8502	0.84	0.5458	0.066
Mof_H 	H 	0.9425	0.1019	0.3278	0.092
Mof_H 	H 	0.9826	0.0212	0.334	0.072
Mof_H 	H 	0.1526	0.5444	0.2643	0.102
Mof_H 	H 	0.2199	0.5843	0.214	0.089
Mof_H 	H 	0.2602	0.4794	0.3231	-0.016
Mof_H 	H 	0.3255	0.5133	0.2693	-0.031
Mof_H 	H 	0.8725	0.6637	0.3973	0.109
Mof_H 	H 	0.8976	0.7328	0.3449	0.1
Mof_H 	H 	0.6973	0.5695	0.2804	0.005
Mof_H 	H 	0.7373	0.6303	0.2251	-0.008
Mof_H 	H 	0.1904	0.5634	0.0729	0.094
Mof_H 	H 	0.978	0.4596	0.8362	0.147
Mof_H 	H 	0.8937	0.8773	0.3328	0.12
Mof_H 	H 	0.9775	0.1527	0.4834	0.145
Mof_H 	H 	0.4086	0.6546	0.364	0.156
Mof_H 	H 	0.8534	0.5744	0.2315	0.166
Mof_H 	H 	0.5779	0.8717	0.5985	0.058
Mof_H 	H 	0.4805	0.7615	0.5343	0.066
Mof_H 	H 	0.6473	0.9029	0.482	0.065
Mof_H 	H 	0.5728	0.7848	0.419	0.057
Mof_H 	H 	0.6035	0.9939	0.3103	0.026
Mof_H 	H 	0.6686	0.0312	0.416	-0.034
Mof_H 	H 	0.3698	0.8314	0.5443	0.066
Mof_H 	H 	0.4454	0.8596	0.6445	0.089
Mof_H 	H 	0.9738	0.1616	0.0955	0.134
Mof_H 	H 	0.0381	0.2061	0.202	0.113
Mof_H 	H 	0.1398	0.2476	0.0889	0.027
Mof_H 	H 	0.2149	0.2741	0.1893	0.057
Mof_H 	H 	0.2513	0.1219	0.9711	0.044
Mof_H 	H 	0.16	0.1498	0.9542	0.038
Mof_H 	H 	0.8981	0.0575	0.1722	0.013
Mof_H 	H 	0.9788	0.0174	0.166	0.014
Mof_H 	H 	0.4556	0.8474	0.2357	0.099
Mof_H 	H 	0.4157	0.7801	0.286	0.086
Mof_H 	H 	0.5206	0.7398	0.1769	-0.017
Mof_H 	H 	0.4867	0.6745	0.2307	-0.032
Mof_H 	H 	0.3363	0.1275	0.1027	0.054
Mof_H 	H 	0.2672	0.1024	0.1551	0.052
Mof_H 	H 	0.4305	0.3027	0.2196	0.013
Mof_H 	H 	0.3697	0.2627	0.2749	0.007
Mof_H 	H 	0.4366	0.8096	0.4271	0.097
Mof_H 	H 	0.5404	0.022	0.6638	0.054
Mof_H 	H 	0.1227	0.1063	0.1672	0.089
Mof_H 	H 	0.8473	0.0225	0.0166	0.027
Mof_H 	H 	0.3454	0.5914	0.136	0.152
Mof_H 	H 	0.4256	0.1466	0.2685	0.144
Mof_H 	H 	0.8717	0.5779	0.0985	0.07
Mof_H 	H 	0.7615	0.4805	0.0343	0.066
Mof_H 	H 	0.9029	0.6473	0.982	0.088
Mof_H 	H 	0.7848	0.5728	0.919	0.071
Mof_H 	H 	0.9939	0.6035	0.8103	0.034
Mof_H 	H 	0.0312	0.6686	0.916	-0.015
Mof_H 	H 	0.8314	0.3698	0.0443	0.037
Mof_H 	H 	0.8596	0.4454	0.1445	0.074
Mof_H 	H 	0.1616	0.9738	0.5955	0.142
Mof_H 	H 	0.2061	0.0381	0.702	0.118
Mof_H 	H 	0.2476	0.1398	0.5889	0.04
Mof_H 	H 	0.2741	0.2149	0.6893	0.06
Mof_H 	H 	0.1219	0.2513	0.4711	0.045
Mof_H 	H 	0.1498	0.16	0.4542	0.042
Mof_H 	H 	0.0575	0.8981	0.6722	0.015
Mof_H 	H 	0.0174	0.9788	0.666	0.013
Mof_H 	H 	0.8474	0.4556	0.7357	0.102
Mof_H 	H 	0.7801	0.4157	0.786	0.087
Mof_H 	H 	0.7398	0.5206	0.6769	-0.006
Mof_H 	H 	0.6745	0.4867	0.7307	-0.024
Mof_H 	H 	0.1275	0.3363	0.6027	0.076
Mof_H 	H 	0.1024	0.2672	0.6551	0.063
Mof_H 	H 	0.3027	0.4305	0.7196	0.021
Mof_H 	H 	0.2627	0.3697	0.7749	0.012
Mof_H 	H 	0.8096	0.4366	0.9271	0.103
Mof_H 	H 	0.022	0.5404	0.1638	0.054
Mof_H 	H 	0.1063	0.1227	0.6672	0.09
Mof_H 	H 	0.0225	0.8473	0.5166	0.048
Mof_H 	H 	0.5914	0.3454	0.636	0.154
Mof_H 	H 	0.1466	0.4256	0.7685	0.146
Mof_H 	H 	0.4221	0.1283	0.4015	0.043
Mof_H 	H 	0.5195	0.2385	0.4657	0.071
Mof_H 	H 	0.3527	0.0971	0.518	0.039
Mof_H 	H 	0.4272	0.2152	0.581	0.059
Mof_H 	H 	0.3965	0.0061	0.6897	0.083
Mof_H 	H 	0.3314	0.9688	0.584	0.123
Mof_H 	H 	0.6302	0.1686	0.4557	0.057
Mof_H 	H 	0.5546	0.1404	0.3555	0.06
Mof_H 	H 	0.0262	0.8384	0.9045	-0.038
Mof_H 	H 	0.9619	0.7939	0.798	0.018
Mof_H 	H 	0.8602	0.7524	0.9111	0.066
Mof_H 	H 	0.7851	0.7259	0.8107	0.056
Mof_H 	H 	0.7487	0.8781	0.0289	0.07
Mof_H 	H 	0.84	0.8502	0.0458	0.07
Mof_H 	H 	0.1019	0.9425	0.8278	0.09
Mof_H 	H 	0.0212	0.9826	0.834	0.068
Mof_H 	H 	0.5444	0.1526	0.7643	0.105
Mof_H 	H 	0.5843	0.2199	0.714	0.089
Mof_H 	H 	0.4794	0.2602	0.8231	-0.004
Mof_H 	H 	0.5133	0.3255	0.7693	-0.023
Mof_H 	H 	0.6637	0.8725	0.8973	0.129
Mof_H 	H 	0.7328	0.8976	0.8449	0.109
Mof_H 	H 	0.5695	0.6973	0.7804	0.014
Mof_H 	H 	0.6303	0.7373	0.7251	-0.002
Mof_H 	H 	0.5634	0.1904	0.5729	0.098
Mof_H 	H 	0.4596	0.978	0.3362	0.152
Mof_H 	H 	0.8773	0.8937	0.8328	0.12
Mof_H 	H 	0.1527	0.9775	0.9834	0.162
Mof_H 	H 	0.6546	0.4086	0.864	0.158
Mof_H 	H 	0.5744	0.8534	0.7315	0.166
Mof_C 	C 	0.90235	0.26625	0.8559	-0.11
Mof_C 	C 	0.92116	0.25544	0.7138	-0.124
Mof_C 	C 	0.89417	0.07003	0.6294	-0.127
Mof_C 	C 	0.81472	0.96388	0.7018	-0.09
Mof_C 	C 	0.16453	0.49347	0.9476	-0.001
Mof_C 	C 	0.14664	0.42176	0.0663	-0.066
Mof_C 	C 	0.01422	0.39978	0.1348	-0.211
Mof_C 	C 	0.12876	0.55824	0.9103	-0.133
Mof_C 	C 	0.85164	0.98936	0.3563	0.124
Mof_C 	C 	0.77968	0.82712	0.3734	-0.044
Mof_C 	C 	0.87965	0.80515	0.5122	-0.066
Mof_C 	C 	0.95185	0.06015	0.3597	-0.189
Mof_C 	C 	0.1939	0.5293	0.2329	-0.202
Mof_C 	C 	0.28549	0.53131	0.3008	0.195
Mof_C 	C 	0.84334	0.69246	0.3587	-0.182
Mof_C 	C 	0.7574	0.6044	0.2703	0.144
Mof_C 	C 	0.73375	0.09765	0.6441	-0.148
Mof_C 	C 	0.74456	0.07884	0.7862	-0.16
Mof_C 	C 	0.92997	0.10583	0.8706	-0.114
Mof_C 	C 	0.03612	0.18528	0.7982	-0.195
Mof_C 	C 	0.50653	0.83547	0.5524	-0.064
Mof_C 	C 	0.57824	0.85336	0.4337	-0.069
Mof_C 	C 	0.60022	0.98578	0.3652	0.097
Mof_C 	C 	0.44176	0.87124	0.5897	-0.119
Mof_C 	C 	0.01064	0.14836	0.1437	-0.322
Mof_C 	C 	0.17288	0.22032	0.1266	-0.058
Mof_C 	C 	0.19485	0.12035	0.9878	0.006
Mof_C 	C 	0.93985	0.04815	0.1403	0.015
Mof_C 	C 	0.4707	0.8061	0.2671	-0.195
Mof_C 	C 	0.46869	0.71451	0.1992	0.197
Mof_C 	C 	0.30754	0.15666	0.1413	-0.135
Mof_C 	C 	0.3956	0.2426	0.2297	0.107
Mof_C 	C 	0.09765	0.73375	0.1441	-0.159
Mof_C 	C 	0.07884	0.74456	0.2862	-0.167
Mof_C 	C 	0.10583	0.92997	0.3706	-0.122
Mof_C 	C 	0.18528	0.03612	0.2982	-0.206
Mof_C 	C 	0.83547	0.50653	0.0524	-0.136
Mof_C 	C 	0.85336	0.57824	0.9337	-0.08
Mof_C 	C 	0.98578	0.60022	0.8652	0.08
Mof_C 	C 	0.87124	0.44176	0.0897	-0.084
Mof_C 	C 	0.14836	0.01064	0.6437	-0.322
Mof_C 	C 	0.22032	0.17288	0.6266	-0.059
Mof_C 	C 	0.12035	0.19485	0.4878	-0.06
Mof_C 	C 	0.04815	0.93985	0.6403	0.02
Mof_C 	C 	0.8061	0.4707	0.7671	-0.19
Mof_C 	C 	0.71451	0.46869	0.6992	0.183
Mof_C 	C 	0.15666	0.30754	0.6413	-0.144
Mof_C 	C 	0.2426	0.3956	0.7297	0.107
Mof_C 	C 	0.26625	0.90235	0.3559	-0.12
Mof_C 	C 	0.25544	0.92116	0.2138	-0.129
Mof_C 	C 	0.07003	0.89417	0.1294	-0.136
Mof_C 	C 	0.96388	0.81472	0.2018	-0.095
Mof_C 	C 	0.49347	0.16453	0.4476	-0.08
Mof_C 	C 	0.42176	0.14664	0.5663	-0.081
Mof_C 	C 	0.39978	0.01422	0.6348	-0.214
Mof_C 	C 	0.55824	0.12876	0.4103	-0.097
Mof_C 	C 	0.98936	0.85164	0.8563	0.103
Mof_C 	C 	0.82712	0.77968	0.8734	-0.044
Mof_C 	C 	0.80515	0.87965	0.0122	-0.124
Mof_C 	C 	0.06015	0.95185	0.8597	-0.173
Mof_C 	C 	0.5293	0.1939	0.7329	-0.197
Mof_C 	C 	0.53131	0.28549	0.8008	0.181
Mof_C 	C 	0.69246	0.84334	0.8587	-0.189
Mof_C 	C 	0.6044	0.7574	0.7703	0.142
Mof_N 	N 	0.92106	0.34168	0.9164	-0.156
Mof_N 	N 	0.94478	0.32402	0.6977	-0.065
Mof_N 	N 	0.90978	0.03676	0.5666	-0.184
Mof_N 	N 	0.7893	0.8793	0.6806	-0.081
Mof_N 	N 	0.14158	0.49962	0.0269	-0.285
Mof_N 	N 	0.12613	0.43087	0.1502	-0.076
Mof_N 	N 	0.01586	0.52174	0.8867	-0.3
Mof_N 	N 	0.87468	0.90764	0.3754	-0.259
Mof_N 	N 	0.81522	0.76178	0.4112	-0.081
Mof_N 	N 	0.00982	0.11938	0.46	-0.294
Mof_N 	N 	0.65832	0.07894	0.5836	-0.194
Mof_N 	N 	0.67598	0.05522	0.8023	-0.079
Mof_N 	N 	0.96324	0.09022	0.9334	-0.155
Mof_N 	N 	0.1207	0.2107	0.8194	-0.063
Mof_N 	N 	0.50038	0.85842	0.4731	-0.238
Mof_N 	N 	0.56913	0.87387	0.3498	-0.097
Mof_N 	N 	0.47826	0.98414	0.6133	-0.166
Mof_N 	N 	0.09236	0.12532	0.1246	-0.239
Mof_N 	N 	0.23822	0.18478	0.0888	-0.125
Mof_N 	N 	0.88062	0.99018	0.04	-0.18
Mof_N 	N 	0.07894	0.65832	0.0836	-0.209
Mof_N 	N 	0.05522	0.67598	0.3023	-0.085
Mof_N 	N 	0.09022	0.96324	0.4334	-0.176
Mof_N 	N 	0.2107	0.1207	0.3194	-0.068
Mof_N 	N 	0.85842	0.50038	0.9731	-0.198
Mof_N 	N 	0.87387	0.56913	0.8498	-0.092
Mof_N 	N 	0.98414	0.47826	0.1133	-0.174
Mof_N 	N 	0.12532	0.09236	0.6246	-0.233
Mof_N 	N 	0.18478	0.23822	0.5888	-0.092
Mof_N 	N 	0.99018	0.88062	0.54	-0.186
Mof_N 	N 	0.34168	0.92106	0.4164	-0.176
Mof_N 	N 	0.32402	0.94478	0.1977	-0.071
Mof_N 	N 	0.03676	0.90978	0.0666	-0.199
Mof_N 	N 	0.8793	0.7893	0.1806	-0.086
Mof_N 	N 	0.49962	0.14158	0.5269	-0.248
Mof_N 	N 	0.43087	0.12613	0.6502	-0.073
Mof_N 	N 	0.52174	0.01586	0.3867	-0.323
Mof_N 	N 	0.90764	0.87468	0.8754	-0.246
Mof_N 	N 	0.76178	0.81522	0.9112	-0.052
Mof_N 	N 	0.11938	0.00982	0.96	-0.288
Mof_O 	O 	0.34642	0.62274	0.3716	-0.332
Mof_O 	O 	0.79281	0.53645	0.2387	-0.306
Mof_O 	O 	0.37726	0.65358	0.1284	-0.346
Mof_O 	O 	0.46355	0.20719	0.2613	-0.299
Mof_O 	O 	0.65358	0.37726	0.6284	-0.326
Mof_O 	O 	0.20719	0.46355	0.7613	-0.291
Mof_O 	O 	0.62274	0.34642	0.8716	-0.313
Mof_O 	O 	0.53645	0.79281	0.7387	-0.297
_end
