data_functionalizedCrystal
_audit_creation_method	'EQeq! by Chris Wilmer'
_symmetry_space_group_name_H-M	'P1'
_symmetry_Int_Tables_number	1
_symmetry_cell_setting	triclinic
loop_
_symmetry_equiv_pos_as_xyz
  x,y,z
_cell_length_a	24.6059
_cell_length_b	24.6059
_cell_length_c	24.6059
_cell_angle_alpha	90
_cell_angle_beta	90
_cell_angle_gamma	90
loop_
_atom_site_label
_atom_site_type_symbol
_atom_site_fract_x
_atom_site_fract_y
_atom_site_fract_z
_atom_site_charge
Mof_Ag	Ag	0.57277	0.42723	0.57277	0.496
Mof_Ag	Ag	0.70141	0.29859	0.70141	0.468
Mof_C 	C 	0.62468	0.37532	0.62468	-0.112
Mof_C 	C 	0.64974	0.35026	0.64974	-0.094
Mof_Ag	Ag	0.57277	0.92723	0.07277	0.446
Mof_Ag	Ag	0.70141	0.79859	0.20141	0.466
Mof_C 	C 	0.62468	0.87532	0.12468	-0.109
Mof_C 	C 	0.64974	0.85026	0.14974	-0.1
Mof_Ag	Ag	0.07277	0.42723	0.07277	0.514
Mof_Ag	Ag	0.20141	0.29859	0.20141	0.472
Mof_C 	C 	0.12468	0.37532	0.12468	-0.109
Mof_C 	C 	0.14974	0.35026	0.14974	-0.088
Mof_Ag	Ag	0.07277	0.92723	0.57277	0.446
Mof_Ag	Ag	0.20141	0.79859	0.70141	0.466
Mof_C 	C 	0.12468	0.87532	0.62468	-0.109
Mof_C 	C 	0.14974	0.85026	0.64974	-0.1
Mof_Ag	Ag	0.42723	0.57277	0.57277	0.495
Mof_Ag	Ag	0.29859	0.70141	0.70141	0.467
Mof_C 	C 	0.37532	0.62468	0.62468	-0.113
Mof_C 	C 	0.35026	0.64974	0.64974	-0.095
Mof_Ag	Ag	0.42723	0.07277	0.07277	0.514
Mof_Ag	Ag	0.29859	0.20141	0.20141	0.472
Mof_C 	C 	0.37532	0.12468	0.12468	-0.109
Mof_C 	C 	0.35026	0.14974	0.14974	-0.088
Mof_Ag	Ag	0.92723	0.57277	0.07277	0.446
Mof_Ag	Ag	0.79859	0.70141	0.20141	0.466
Mof_C 	C 	0.87532	0.62468	0.12468	-0.109
Mof_C 	C 	0.85026	0.64974	0.14974	-0.1
Mof_Ag	Ag	0.92723	0.07277	0.57277	0.446
Mof_Ag	Ag	0.79859	0.20141	0.70141	0.466
Mof_C 	C 	0.87532	0.12468	0.62468	-0.109
Mof_C 	C 	0.85026	0.14974	0.64974	-0.1
Mof_Ag	Ag	0.42723	0.42723	0.42723	0.497
Mof_Ag	Ag	0.29859	0.29859	0.29859	0.466
Mof_C 	C 	0.37532	0.37532	0.37532	-0.112
Mof_C 	C 	0.35026	0.35026	0.35026	-0.092
Mof_Ag	Ag	0.42723	0.92723	0.92723	0.382
Mof_Ag	Ag	0.29859	0.79859	0.79859	0.459
Mof_C 	C 	0.37532	0.87532	0.87532	-0.107
Mof_C 	C 	0.35026	0.85026	0.85026	-0.11
Mof_Ag	Ag	0.92723	0.42723	0.92723	0.382
Mof_Ag	Ag	0.79859	0.29859	0.79859	0.459
Mof_C 	C 	0.87532	0.37532	0.87532	-0.107
Mof_C 	C 	0.85026	0.35026	0.85026	-0.11
Mof_Ag	Ag	0.92723	0.92723	0.42723	0.382
Mof_Ag	Ag	0.79859	0.79859	0.29859	0.459
Mof_C 	C 	0.87532	0.87532	0.37532	-0.107
Mof_C 	C 	0.85026	0.85026	0.35026	-0.11
Mof_Ag	Ag	0.57277	0.57277	0.42723	0.495
Mof_Ag	Ag	0.70141	0.70141	0.29859	0.467
Mof_C 	C 	0.62468	0.62468	0.37532	-0.113
Mof_C 	C 	0.64974	0.64974	0.35026	-0.095
Mof_Ag	Ag	0.57277	0.07277	0.92723	0.446
Mof_Ag	Ag	0.70141	0.20141	0.79859	0.466
Mof_C 	C 	0.62468	0.12468	0.87532	-0.109
Mof_C 	C 	0.64974	0.14974	0.85026	-0.1
Mof_Ag	Ag	0.07277	0.57277	0.92723	0.446
Mof_Ag	Ag	0.20141	0.70141	0.79859	0.466
Mof_C 	C 	0.12468	0.62468	0.87532	-0.109
Mof_C 	C 	0.14974	0.64974	0.85026	-0.1
Mof_Ag	Ag	0.07277	0.07277	0.42723	0.514
Mof_Ag	Ag	0.20141	0.20141	0.29859	0.472
Mof_C 	C 	0.12468	0.12468	0.37532	-0.109
Mof_C 	C 	0.14974	0.14974	0.35026	-0.088
Mof_Ag	Ag	0.42723	0.57277	0.42723	0.496
Mof_Ag	Ag	0.29859	0.70141	0.29859	0.466
Mof_C 	C 	0.37532	0.62468	0.37532	-0.112
Mof_C 	C 	0.35026	0.64974	0.35026	-0.094
Mof_Ag	Ag	0.42723	0.07277	0.92723	0.447
Mof_Ag	Ag	0.29859	0.20141	0.79859	0.465
Mof_C 	C 	0.37532	0.12468	0.87532	-0.108
Mof_C 	C 	0.35026	0.14974	0.85026	-0.099
Mof_Ag	Ag	0.92723	0.57277	0.92723	0.381
Mof_Ag	Ag	0.79859	0.70141	0.79859	0.46
Mof_C 	C 	0.87532	0.62468	0.87532	-0.108
Mof_C 	C 	0.85026	0.64974	0.85026	-0.111
Mof_Ag	Ag	0.92723	0.07277	0.42723	0.447
Mof_Ag	Ag	0.79859	0.20141	0.29859	0.465
Mof_C 	C 	0.87532	0.12468	0.37532	-0.108
Mof_C 	C 	0.85026	0.14974	0.35026	-0.099
Mof_Ag	Ag	0.57277	0.42723	0.42723	0.496
Mof_Ag	Ag	0.70141	0.29859	0.29859	0.466
Mof_C 	C 	0.62468	0.37532	0.37532	-0.112
Mof_C 	C 	0.64974	0.35026	0.35026	-0.094
Mof_Ag	Ag	0.57277	0.92723	0.92723	0.381
Mof_Ag	Ag	0.70141	0.79859	0.79859	0.46
Mof_C 	C 	0.62468	0.87532	0.87532	-0.108
Mof_C 	C 	0.64974	0.85026	0.85026	-0.111
Mof_Ag	Ag	0.07277	0.42723	0.92723	0.447
Mof_Ag	Ag	0.20141	0.29859	0.79859	0.465
Mof_C 	C 	0.12468	0.37532	0.87532	-0.108
Mof_C 	C 	0.14974	0.35026	0.85026	-0.099
Mof_Ag	Ag	0.07277	0.92723	0.42723	0.447
Mof_Ag	Ag	0.20141	0.79859	0.29859	0.465
Mof_C 	C 	0.12468	0.87532	0.37532	-0.108
Mof_C 	C 	0.14974	0.85026	0.35026	-0.099
Mof_Ag	Ag	0.42723	0.42723	0.57277	0.496
Mof_Ag	Ag	0.29859	0.29859	0.70141	0.466
Mof_C 	C 	0.37532	0.37532	0.62468	-0.112
Mof_C 	C 	0.35026	0.35026	0.64974	-0.094
Mof_Ag	Ag	0.42723	0.92723	0.07277	0.447
Mof_Ag	Ag	0.29859	0.79859	0.20141	0.465
Mof_C 	C 	0.37532	0.87532	0.12468	-0.108
Mof_C 	C 	0.35026	0.85026	0.14974	-0.099
Mof_Ag	Ag	0.92723	0.42723	0.07277	0.447
Mof_Ag	Ag	0.79859	0.29859	0.20141	0.465
Mof_C 	C 	0.87532	0.37532	0.12468	-0.108
Mof_C 	C 	0.85026	0.35026	0.14974	-0.099
Mof_Ag	Ag	0.92723	0.92723	0.57277	0.381
Mof_Ag	Ag	0.79859	0.79859	0.70141	0.46
Mof_C 	C 	0.87532	0.87532	0.62468	-0.108
Mof_C 	C 	0.85026	0.85026	0.64974	-0.111
Mof_Ag	Ag	0.57277	0.57277	0.57277	0.494
Mof_Ag	Ag	0.70141	0.70141	0.70141	0.468
Mof_C 	C 	0.62468	0.62468	0.62468	-0.114
Mof_C 	C 	0.64974	0.64974	0.64974	-0.097
Mof_Ag	Ag	0.57277	0.07277	0.07277	0.513
Mof_Ag	Ag	0.70141	0.20141	0.20141	0.473
Mof_C 	C 	0.62468	0.12468	0.12468	-0.11
Mof_C 	C 	0.64974	0.14974	0.14974	-0.089
Mof_Ag	Ag	0.07277	0.57277	0.07277	0.513
Mof_Ag	Ag	0.20141	0.70141	0.20141	0.473
Mof_C 	C 	0.12468	0.62468	0.12468	-0.11
Mof_C 	C 	0.14974	0.64974	0.14974	-0.089
Mof_Ag	Ag	0.07277	0.07277	0.57277	0.513
Mof_Ag	Ag	0.20141	0.20141	0.70141	0.473
Mof_C 	C 	0.12468	0.12468	0.62468	-0.11
Mof_C 	C 	0.14974	0.14974	0.64974	-0.089
Mof_I 	I 	0.5	0.5	0.63138	-0.495
Mof_I 	I 	0.5	0	0.13138	-0.441
Mof_I 	I 	-1.20187e-33	0.5	0.13138	-0.441
Mof_I 	I 	2.3673e-33	0	0.63138	-0.389
Mof_I 	I 	0.5	0.5	0.36862	-0.49
Mof_I 	I 	0.5	0	0.86862	-0.426
Mof_I 	I 	-1.02989e-32	0.5	0.86862	-0.426
Mof_I 	I 	1.3821e-33	0	0.36862	-0.385
Mof_I 	I 	0.63138	0.5	0.5	-0.495
Mof_I 	I 	0.63138	0	-0	-0.389
Mof_I 	I 	0.13138	0.5	-0	-0.441
Mof_I 	I 	0.13138	0	0.5	-0.441
Mof_I 	I 	0.36862	0.5	0.5	-0.49
Mof_I 	I 	0.36862	0	-0	-0.385
Mof_I 	I 	0.86862	0.5	-0	-0.426
Mof_I 	I 	0.86862	0	0.5	-0.426
Mof_I 	I 	0.5	0.63138	0.5	-0.495
Mof_I 	I 	0.5	0.13138	-0	-0.441
Mof_I 	I 	-0	0.63138	-0	-0.389
Mof_I 	I 	-4.90316e-33	0.13138	0.5	-0.441
Mof_I 	I 	0.5	0.36862	0.5	-0.49
Mof_I 	I 	0.5	0.86862	-0	-0.426
Mof_I 	I 	-0	0.36862	-0	-0.385
Mof_I 	I 	-4.90316e-33	0.86862	0.5	-0.426
Mof_I 	I 	0.6836	0.3164	0.8164	-0.399
Mof_I 	I 	0.3164	0.6836	0.8164	-0.399
Mof_I 	I 	0.3164	0.3164	0.1836	-0.379
Mof_I 	I 	0.6836	0.6836	0.1836	-0.379
Mof_I 	I 	0.8164	0.6836	0.3164	-0.399
Mof_I 	I 	0.8164	0.1836	0.8164	-0.403
Mof_I 	I 	0.8164	0.3164	0.6836	-0.399
Mof_I 	I 	0.8164	0.8164	0.1836	-0.403
Mof_I 	I 	0.1836	0.3164	0.3164	-0.379
Mof_I 	I 	0.1836	0.8164	0.8164	-0.403
Mof_I 	I 	0.1836	0.6836	0.6836	-0.379
Mof_I 	I 	0.1836	0.1836	0.1836	-0.363
Mof_I 	I 	0.3164	0.8164	0.6836	-0.399
Mof_I 	I 	0.6836	0.8164	0.3164	-0.399
Mof_I 	I 	0.3164	0.1836	0.3164	-0.379
Mof_I 	I 	0.6836	0.1836	0.6836	-0.379
Mof_I 	I 	0.3164	0.6836	0.1836	-0.379
Mof_I 	I 	0.6836	0.3164	0.1836	-0.379
Mof_I 	I 	0.3164	0.3164	0.8164	-0.399
Mof_I 	I 	0.6836	0.6836	0.8164	-0.399
Mof_I 	I 	0.6836	0.8164	0.6836	-0.399
Mof_I 	I 	0.3164	0.8164	0.3164	-0.399
Mof_I 	I 	0.3164	0.1836	0.6836	-0.379
Mof_I 	I 	0.6836	0.1836	0.3164	-0.379
Mof_I 	I 	0.8164	0.3164	0.3164	-0.399
Mof_I 	I 	0.8164	0.8164	0.8164	-0.422
Mof_I 	I 	0.8164	0.6836	0.6836	-0.399
Mof_I 	I 	0.8164	0.1836	0.1836	-0.383
Mof_I 	I 	0.1836	0.3164	0.6836	-0.379
Mof_I 	I 	0.1836	0.8164	0.1836	-0.383
Mof_I 	I 	0.1836	0.6836	0.3164	-0.379
Mof_I 	I 	0.1836	0.1836	0.8164	-0.383
_end
