data_functionalizedCrystal
_audit_creation_method	'EQeq! by Chris Wilmer'
_symmetry_space_group_name_H-M	'P1'
_symmetry_Int_Tables_number	1
_symmetry_cell_setting	triclinic
loop_
_symmetry_equiv_pos_as_xyz
  x,y,z
_cell_length_a	8.1015
_cell_length_b	12.9463
_cell_length_c	12.4223
_cell_angle_alpha	90
_cell_angle_beta	97.778
_cell_angle_gamma	90
loop_
_atom_site_label
_atom_site_type_symbol
_atom_site_fract_x
_atom_site_fract_y
_atom_site_fract_z
_atom_site_charge
Mof_Cs	Cs	0.96903	0.21217	0.72862	4.172
Mof_Cs	Cs	0.49202	0.13402	0.89315	2.41
Mof_S 	S 	0.663	0.42034	0.64421	0.912
Mof_S 	S 	0.30769	0.40929	0.69877	0.999
Mof_S 	S 	0.44825	0.23456	0.57756	0.997
Mof_C 	C 	0.4525	0.37296	0.60513	-0.687
Mof_H 	H 	0.411	0.4073	0.5345	0.069
Mof_O 	O 	0.7609	0.37009	0.57026	-1.035
Mof_O 	O 	0.7125	0.38885	0.75686	-0.904
Mof_O 	O 	0.6533	0.53153	0.63094	-0.952
Mof_O 	O 	0.3563	0.51103	0.73921	-1.039
Mof_O 	O 	0.3257	0.33082	0.784	-0.995
Mof_O 	O 	0.1457	0.40737	0.63319	-1.116
Mof_O 	O 	0.5571	0.18475	0.66391	-0.994
Mof_O 	O 	0.2725	0.20635	0.57289	-0.93
Mof_O 	O 	0.5051	0.2234	0.47198	-0.948
Mof_Cs	Cs	0.53097	0.71217	0.77138	4.242
Mof_Cs	Cs	0.00798	0.63402	0.60685	2.422
Mof_S 	S 	0.837	0.92034	0.85579	0.938
Mof_S 	S 	0.19231	0.90929	0.80123	0.981
Mof_S 	S 	0.05175	0.73456	0.92244	0.989
Mof_C 	C 	0.0475	0.87296	0.89487	-0.691
Mof_H 	H 	0.089	0.9073	0.9655	0.072
Mof_O 	O 	0.7391	0.87009	0.92974	-1.042
Mof_O 	O 	0.7875	0.88885	0.74314	-0.906
Mof_O 	O 	0.8467	0.03153	0.86906	-0.969
Mof_O 	O 	0.1437	0.01103	0.76079	-1.017
Mof_O 	O 	0.1743	0.83082	0.716	-0.999
Mof_O 	O 	0.3543	0.90737	0.86681	-1.119
Mof_O 	O 	0.9429	0.68475	0.83609	-0.994
Mof_O 	O 	0.2275	0.70635	0.92711	-0.936
Mof_O 	O 	0.9949	0.7234	0.02802	-0.929
Mof_Cs	Cs	0.03097	0.78783	0.27138	4.171
Mof_Cs	Cs	0.50798	0.86598	0.10685	2.409
Mof_S 	S 	0.337	0.57966	0.35579	0.912
Mof_S 	S 	0.69231	0.59071	0.30123	0.999
Mof_S 	S 	0.55175	0.76544	0.42244	0.997
Mof_C 	C 	0.5475	0.62704	0.39487	-0.687
Mof_H 	H 	0.589	0.5927	0.4655	0.069
Mof_O 	O 	0.2391	0.62991	0.42974	-1.035
Mof_O 	O 	0.2875	0.61115	0.24314	-0.904
Mof_O 	O 	0.3467	0.46847	0.36906	-0.952
Mof_O 	O 	0.6437	0.48897	0.26079	-1.039
Mof_O 	O 	0.6743	0.66918	0.216	-0.995
Mof_O 	O 	0.8543	0.59263	0.36681	-1.116
Mof_O 	O 	0.4429	0.81525	0.33609	-0.994
Mof_O 	O 	0.7275	0.79365	0.42711	-0.93
Mof_O 	O 	0.4949	0.7766	0.52802	-0.948
Mof_Cs	Cs	0.46903	0.28783	0.22862	4.242
Mof_Cs	Cs	0.99202	0.36598	0.39315	2.422
Mof_S 	S 	0.163	0.07966	0.14421	0.938
Mof_S 	S 	0.80769	0.09071	0.19877	0.981
Mof_S 	S 	0.94825	0.26544	0.07756	0.989
Mof_C 	C 	0.9525	0.12704	0.10513	-0.691
Mof_H 	H 	0.911	0.0927	0.0345	0.072
Mof_O 	O 	0.2609	0.12991	0.07026	-1.042
Mof_O 	O 	0.2125	0.11115	0.25686	-0.906
Mof_O 	O 	0.1533	0.96847	0.13094	-0.969
Mof_O 	O 	0.8563	0.98897	0.23921	-1.017
Mof_O 	O 	0.8257	0.16918	0.284	-0.999
Mof_O 	O 	0.6457	0.09263	0.13319	-1.119
Mof_O 	O 	0.0571	0.31525	0.16391	-0.994
Mof_O 	O 	0.7725	0.29365	0.07289	-0.936
Mof_O 	O 	0.0051	0.2766	0.97198	-0.929
_end
