data_functionalizedCrystal
_audit_creation_method	'EQeq! by Chris Wilmer'
_symmetry_space_group_name_H-M	'P1'
_symmetry_Int_Tables_number	1
_symmetry_cell_setting	triclinic
loop_
_symmetry_equiv_pos_as_xyz
  x,y,z
_cell_length_a	12.283
_cell_length_b	21.743
_cell_length_c	22.757
_cell_angle_alpha	90
_cell_angle_beta	91.631
_cell_angle_gamma	90
loop_
_atom_site_label
_atom_site_type_symbol
_atom_site_fract_x
_atom_site_fract_y
_atom_site_fract_z
_atom_site_charge
Mof_Ce	Ce	0.85323	0.11443	0.91654	3.16
Mof_Ce	Ce	0.36671	0.21126	0.91477	2.999
Mof_Ce	Ce	0.14677	0.61443	0.58346	3.169
Mof_Ce	Ce	0.63329	0.71126	0.58523	2.999
Mof_Ce	Ce	0.14677	0.88557	0.08346	3.16
Mof_Ce	Ce	0.63329	0.78874	0.08523	2.999
Mof_Ce	Ce	0.85323	0.38557	0.41654	3.169
Mof_Ce	Ce	0.36671	0.28874	0.41477	2.999
Mof_H 	H 	0.8768	0.0677	0.7622	0.004
Mof_H 	H 	0.7954	0.0821	0.6666	0.083
Mof_H 	H 	0.5429	0.1536	0.7399	0.032
Mof_H 	H 	0.3644	0.2372	0.7591	0.024
Mof_H 	H 	0.2734	0.2181	0.6714	0.084
Mof_H 	H 	0.0167	0.1668	0.7604	0.014
Mof_H 	H 	0.1232	0.5677	0.7378	0.004
Mof_H 	H 	0.2046	0.5821	0.8334	0.083
Mof_H 	H 	0.4571	0.6536	0.7601	0.031
Mof_H 	H 	0.6356	0.7372	0.7409	0.023
Mof_H 	H 	0.7266	0.7181	0.8286	0.084
Mof_H 	H 	0.9833	0.6668	0.7396	0.013
Mof_H 	H 	0.1232	0.9323	0.2378	0.003
Mof_H 	H 	0.2046	0.9179	0.3334	0.082
Mof_H 	H 	0.4571	0.8464	0.2601	0.031
Mof_H 	H 	0.6356	0.7628	0.2409	0.023
Mof_H 	H 	0.7266	0.7819	0.3286	0.084
Mof_H 	H 	0.9833	0.8332	0.2396	0.014
Mof_H 	H 	0.8768	0.4323	0.2622	0.004
Mof_H 	H 	0.7954	0.4179	0.1666	0.083
Mof_H 	H 	0.5429	0.3464	0.2399	0.031
Mof_H 	H 	0.3644	0.2628	0.2591	0.023
Mof_H 	H 	0.2734	0.2819	0.1714	0.084
Mof_H 	H 	0.0167	0.3332	0.2604	0.013
Mof_W 	W 	0.68323	0.53414	0.64833	1.455
Mof_W 	W 	0.75856	0.40329	0.58863	1.441
Mof_W 	W 	0.94097	0.48721	0.66417	1.445
Mof_W 	W 	0.00605	0.35692	0.75653	1.371
Mof_W 	W 	0.80359	0.28147	0.8219	1.39
Mof_W 	W 	0.82629	0.27134	0.67575	1.367
Mof_W 	W 	0.54778	0.31948	0.65874	1.363
Mof_W 	W 	0.52912	0.33342	0.80471	1.39
Mof_W 	W 	0.46712	0.45432	0.71849	1.327
Mof_W 	W 	0.65663	0.5448	0.80536	1.401
Mof_W 	W 	0.92068	0.49903	0.8216	1.379
Mof_W 	W 	0.72149	0.42114	0.8914	1.478
Mof_W 	W 	0.31677	0.03414	0.85167	1.455
Mof_W 	W 	0.24144	0.90329	0.91137	1.441
Mof_W 	W 	0.05903	0.98721	0.83583	1.444
Mof_W 	W 	0.99395	0.85692	0.74347	1.369
Mof_W 	W 	0.19641	0.78147	0.6781	1.39
Mof_W 	W 	0.17371	0.77134	0.82425	1.367
Mof_W 	W 	0.45222	0.81948	0.84126	1.363
Mof_W 	W 	0.47088	0.83342	0.69529	1.39
Mof_W 	W 	0.53288	0.95432	0.78151	1.327
Mof_W 	W 	0.34337	0.0448	0.69464	1.402
Mof_W 	W 	0.07932	0.99903	0.6784	1.378
Mof_W 	W 	0.27851	0.92114	0.6086	1.478
Mof_W 	W 	0.31677	0.46586	0.35167	1.455
Mof_W 	W 	0.24144	0.59671	0.41137	1.441
Mof_W 	W 	0.05903	0.51279	0.33583	1.445
Mof_W 	W 	0.99395	0.64308	0.24347	1.371
Mof_W 	W 	0.19641	0.71853	0.1781	1.39
Mof_W 	W 	0.17371	0.72866	0.32425	1.367
Mof_W 	W 	0.45222	0.68052	0.34126	1.363
Mof_W 	W 	0.47088	0.66658	0.19529	1.39
Mof_W 	W 	0.53288	0.54568	0.28151	1.327
Mof_W 	W 	0.34337	0.4552	0.19464	1.401
Mof_W 	W 	0.07932	0.50097	0.1784	1.379
Mof_W 	W 	0.27851	0.57886	0.1086	1.478
Mof_W 	W 	0.68323	0.96586	0.14833	1.455
Mof_W 	W 	0.75856	0.09671	0.08863	1.441
Mof_W 	W 	0.94097	0.01279	0.16417	1.444
Mof_W 	W 	0.00605	0.14308	0.25653	1.369
Mof_W 	W 	0.80359	0.21853	0.3219	1.39
Mof_W 	W 	0.82629	0.22866	0.17575	1.367
Mof_W 	W 	0.54778	0.18052	0.15874	1.363
Mof_W 	W 	0.52912	0.16658	0.30471	1.39
Mof_W 	W 	0.46712	0.04568	0.21849	1.327
Mof_W 	W 	0.65663	0.9552	0.30536	1.402
Mof_W 	W 	0.92068	0.00097	0.3216	1.378
Mof_W 	W 	0.72149	0.07886	0.3914	1.478
Mof_C 	C 	0.807	0.0878	0.7581	0.089
Mof_C 	C 	0.76	0.095	0.7015	-0.005
Mof_C 	C 	0.616	0.1377	0.7431	0.122
Mof_C 	C 	0.661	0.1312	0.8006	-0.097
Mof_C 	C 	0.605	0.1478	0.8593	0.536
Mof_C 	C 	0.294	0.2183	0.7598	0.084
Mof_C 	C 	0.238	0.211	0.7079	0.012
Mof_C 	C 	0.091	0.1799	0.7597	0.128
Mof_C 	C 	0.149	0.1849	0.8096	-0.128
Mof_C 	C 	0.114	0.1741	0.8681	0.487
Mof_C 	C 	0.193	0.5878	0.7419	0.089
Mof_C 	C 	0.24	0.595	0.7985	-0.005
Mof_C 	C 	0.384	0.6377	0.7569	0.123
Mof_C 	C 	0.339	0.6312	0.6994	-0.097
Mof_C 	C 	0.395	0.6478	0.6407	0.537
Mof_C 	C 	0.706	0.7183	0.7402	0.084
Mof_C 	C 	0.762	0.711	0.7921	0.012
Mof_C 	C 	0.909	0.6799	0.7403	0.128
Mof_C 	C 	0.851	0.6849	0.6904	-0.128
Mof_C 	C 	0.886	0.6741	0.6319	0.488
Mof_C 	C 	0.193	0.9122	0.2419	0.089
Mof_C 	C 	0.24	0.905	0.2985	-0.005
Mof_C 	C 	0.384	0.8623	0.2569	0.122
Mof_C 	C 	0.339	0.8688	0.1994	-0.097
Mof_C 	C 	0.395	0.8522	0.1407	0.536
Mof_C 	C 	0.706	0.7817	0.2402	0.084
Mof_C 	C 	0.762	0.789	0.2921	0.012
Mof_C 	C 	0.909	0.8201	0.2403	0.128
Mof_C 	C 	0.851	0.8151	0.1904	-0.128
Mof_C 	C 	0.886	0.8259	0.1319	0.487
Mof_C 	C 	0.807	0.4122	0.2581	0.089
Mof_C 	C 	0.76	0.405	0.2015	-0.005
Mof_C 	C 	0.616	0.3623	0.2431	0.123
Mof_C 	C 	0.661	0.3688	0.3006	-0.097
Mof_C 	C 	0.605	0.3522	0.3593	0.537
Mof_C 	C 	0.294	0.2817	0.2598	0.084
Mof_C 	C 	0.238	0.289	0.2079	0.012
Mof_C 	C 	0.091	0.3201	0.2597	0.128
Mof_C 	C 	0.149	0.3151	0.3096	-0.128
Mof_C 	C 	0.114	0.3259	0.3681	0.488
Mof_N 	N 	0.2588	0.202	0.8098	-0.234
Mof_N 	N 	0.136	0.193	0.7066	-0.094
Mof_N 	N 	0.7604	0.107	0.8053	-0.228
Mof_N 	N 	0.658	0.1226	0.6978	-0.102
Mof_N 	N 	0.7412	0.702	0.6902	-0.234
Mof_N 	N 	0.864	0.693	0.7934	-0.094
Mof_N 	N 	0.2396	0.607	0.6947	-0.228
Mof_N 	N 	0.342	0.6226	0.8022	-0.102
Mof_N 	N 	0.7412	0.798	0.1902	-0.234
Mof_N 	N 	0.864	0.807	0.2934	-0.094
Mof_N 	N 	0.2396	0.893	0.1947	-0.228
Mof_N 	N 	0.342	0.8774	0.3022	-0.102
Mof_N 	N 	0.2588	0.298	0.3098	-0.234
Mof_N 	N 	0.136	0.307	0.2066	-0.094
Mof_N 	N 	0.7604	0.393	0.3053	-0.228
Mof_N 	N 	0.658	0.3774	0.1978	-0.102
Mof_O 	O 	0.7736	0.45	0.6683	-0.496
Mof_O 	O 	0.8226	0.3426	0.7447	-0.417
Mof_O 	O 	0.601	0.3847	0.7293	-0.419
Mof_O 	O 	0.757	0.4564	0.7964	-0.377
Mof_O 	O 	0.1402	0.3415	0.7625	-0.394
Mof_O 	O 	0.8193	0.2186	0.8712	-0.639
Mof_O 	O 	0.855	0.205	0.6363	-0.337
Mof_O 	O 	0.466	0.2771	0.6134	-0.346
Mof_O 	O 	0.4335	0.2919	0.8459	-0.633
Mof_O 	O 	0.3391	0.4844	0.7087	-0.37
Mof_O 	O 	0.6075	0.613	0.8271	-0.378
Mof_O 	O 	0.02	0.5418	0.8564	-0.372
Mof_O 	O 	0.7068	0.4169	0.9623	-0.405
Mof_O 	O 	0.6939	0.4843	0.5767	-0.445
Mof_O 	O 	0.8396	0.5508	0.643	-0.492
Mof_O 	O 	0.549	0.4946	0.6606	-0.515
Mof_O 	O 	0.683	0.5635	0.726	-0.542
Mof_O 	O 	0.901	0.4472	0.5912	-0.458
Mof_O 	O 	0.621	0.3691	0.6018	-0.491
Mof_O 	O 	0.828	0.332	0.6157	-0.516
Mof_O 	O 	0.0043	0.4154	0.6953	-0.517
Mof_O 	O 	0.9438	0.5187	0.7425	-0.527
Mof_O 	O 	0.959	0.3002	0.8142	-0.496
Mof_O 	O 	0.968	0.2965	0.696	-0.465
Mof_O 	O 	0.9826	0.4223	0.8096	-0.536
Mof_O 	O 	0.8144	0.2303	0.7489	-0.464
Mof_O 	O 	0.6563	0.285	0.8098	-0.558
Mof_O 	O 	0.793	0.3477	0.8764	-0.537
Mof_O 	O 	0.6716	0.2734	0.6707	-0.515
Mof_O 	O 	0.497	0.2868	0.7291	-0.46
Mof_O 	O 	0.444	0.3889	0.6603	-0.412
Mof_O 	O 	0.427	0.3975	0.7779	-0.475
Mof_O 	O 	0.589	0.3876	0.8572	-0.536
Mof_O 	O 	0.531	0.5052	0.7789	-0.51
Mof_O 	O 	0.8072	0.5604	0.8233	-0.464
Mof_O 	O 	0.6489	0.4963	0.8748	-0.48
Mof_O 	O 	0.851	0.4602	0.8862	-0.516
Mof_O 	O 	0.5149	0.1723	0.8498	-0.574
Mof_O 	O 	0.6547	0.136	0.9042	-0.606
Mof_O 	O 	0.7694	0.3903	0.5138	-0.645
Mof_O 	O 	0.9175	0.2067	0.9841	-0.351
Mof_O 	O 	0.001	0.071	0.9858	-0.355
Mof_O 	O 	0.764	0.0125	0.9287	-0.37
Mof_O 	O 	0.0501	0.527	0.638	-0.629
Mof_O 	O 	0.009	0.1524	0.8671	-0.582
Mof_O 	O 	0.487	0.2869	0.9711	-0.36
Mof_O 	O 	0.248	0.3047	0.9206	-0.429
Mof_O 	O 	0.303	0.2096	0.0187	-0.349
Mof_O 	O 	0.502	0.1503	0.9794	-0.329
Mof_O 	O 	0.166	0.1798	0.9138	-0.552
Mof_O 	O 	0.6511	0.5979	0.6104	-0.654
Mof_O 	O 	0.2264	0.95	0.8317	-0.496
Mof_O 	O 	0.1774	0.8426	0.7553	-0.417
Mof_O 	O 	0.399	0.8847	0.7707	-0.419
Mof_O 	O 	0.243	0.9564	0.7036	-0.378
Mof_O 	O 	0.8598	0.8415	0.7375	-0.394
Mof_O 	O 	0.1807	0.7186	0.6288	-0.64
Mof_O 	O 	0.145	0.705	0.8637	-0.336
Mof_O 	O 	0.534	0.7771	0.8866	-0.346
Mof_O 	O 	0.5665	0.7919	0.6541	-0.633
Mof_O 	O 	0.6609	0.9844	0.7913	-0.369
Mof_O 	O 	0.3925	0.113	0.6729	-0.378
Mof_O 	O 	0.98	0.0418	0.6436	-0.374
Mof_O 	O 	0.2932	0.9169	0.5377	-0.404
Mof_O 	O 	0.3061	0.9843	0.9233	-0.445
Mof_O 	O 	0.1604	0.0508	0.857	-0.491
Mof_O 	O 	0.451	0.9946	0.8394	-0.515
Mof_O 	O 	0.317	0.0635	0.774	-0.542
Mof_O 	O 	0.099	0.9472	0.9088	-0.458
Mof_O 	O 	0.379	0.8691	0.8982	-0.491
Mof_O 	O 	0.172	0.832	0.8843	-0.515
Mof_O 	O 	0.9957	0.9154	0.8047	-0.516
Mof_O 	O 	0.0562	0.0187	0.7575	-0.523
Mof_O 	O 	0.041	0.8002	0.6858	-0.495
Mof_O 	O 	0.032	0.7965	0.804	-0.464
Mof_O 	O 	0.0174	0.9223	0.6904	-0.536
Mof_O 	O 	0.1856	0.7303	0.7511	-0.464
Mof_O 	O 	0.3437	0.785	0.6902	-0.559
Mof_O 	O 	0.207	0.8477	0.6236	-0.536
Mof_O 	O 	0.3284	0.7734	0.8293	-0.515
Mof_O 	O 	0.503	0.7868	0.7709	-0.46
Mof_O 	O 	0.556	0.8889	0.8397	-0.412
Mof_O 	O 	0.573	0.8975	0.7221	-0.475
Mof_O 	O 	0.411	0.8876	0.6428	-0.536
Mof_O 	O 	0.469	0.0052	0.7211	-0.51
Mof_O 	O 	0.1928	0.0604	0.6767	-0.462
Mof_O 	O 	0.3511	0.9963	0.6252	-0.48
Mof_O 	O 	0.149	0.9602	0.6138	-0.516
Mof_O 	O 	0.4851	0.6723	0.6502	-0.574
Mof_O 	O 	0.3453	0.636	0.5958	-0.607
Mof_O 	O 	0.2306	0.8903	0.9862	-0.644
Mof_O 	O 	0.0825	0.7067	0.5159	-0.35
Mof_O 	O 	0.999	0.571	0.5142	-0.358
Mof_O 	O 	0.236	0.5125	0.5713	-0.369
Mof_O 	O 	0.9499	0.027	0.862	-0.631
Mof_O 	O 	0.991	0.6524	0.6329	-0.585
Mof_O 	O 	0.513	0.7869	0.5289	-0.36
Mof_O 	O 	0.752	0.8047	0.5794	-0.429
Mof_O 	O 	0.697	0.7096	0.4813	-0.348
Mof_O 	O 	0.498	0.6503	0.5206	-0.329
Mof_O 	O 	0.834	0.6798	0.5862	-0.553
Mof_O 	O 	0.3489	0.0979	0.8896	-0.654
Mof_O 	O 	0.2264	0.55	0.3317	-0.496
Mof_O 	O 	0.1774	0.6574	0.2553	-0.417
Mof_O 	O 	0.399	0.6153	0.2707	-0.419
Mof_O 	O 	0.243	0.5436	0.2036	-0.377
Mof_O 	O 	0.8598	0.6585	0.2375	-0.394
Mof_O 	O 	0.1807	0.7814	0.1288	-0.639
Mof_O 	O 	0.145	0.795	0.3637	-0.337
Mof_O 	O 	0.534	0.7229	0.3866	-0.346
Mof_O 	O 	0.5665	0.7081	0.1541	-0.633
Mof_O 	O 	0.6609	0.5156	0.2913	-0.37
Mof_O 	O 	0.3925	0.387	0.1729	-0.378
Mof_O 	O 	0.98	0.4582	0.1436	-0.372
Mof_O 	O 	0.2932	0.5831	0.0377	-0.405
Mof_O 	O 	0.3061	0.5157	0.4233	-0.445
Mof_O 	O 	0.1604	0.4492	0.357	-0.492
Mof_O 	O 	0.451	0.5054	0.3394	-0.515
Mof_O 	O 	0.317	0.4365	0.274	-0.542
Mof_O 	O 	0.099	0.5528	0.4088	-0.458
Mof_O 	O 	0.379	0.6309	0.3982	-0.491
Mof_O 	O 	0.172	0.668	0.3843	-0.516
Mof_O 	O 	0.9957	0.5846	0.3047	-0.517
Mof_O 	O 	0.0562	0.4813	0.2575	-0.527
Mof_O 	O 	0.041	0.6998	0.1858	-0.496
Mof_O 	O 	0.032	0.7035	0.304	-0.465
Mof_O 	O 	0.0174	0.5777	0.1904	-0.536
Mof_O 	O 	0.1856	0.7697	0.2511	-0.464
Mof_O 	O 	0.3437	0.715	0.1902	-0.558
Mof_O 	O 	0.207	0.6523	0.1236	-0.537
Mof_O 	O 	0.3284	0.7266	0.3293	-0.515
Mof_O 	O 	0.503	0.7132	0.2709	-0.46
Mof_O 	O 	0.556	0.6111	0.3397	-0.412
Mof_O 	O 	0.573	0.6025	0.2221	-0.475
Mof_O 	O 	0.411	0.6124	0.1428	-0.536
Mof_O 	O 	0.469	0.4948	0.2211	-0.51
Mof_O 	O 	0.1928	0.4396	0.1767	-0.464
Mof_O 	O 	0.3511	0.5037	0.1252	-0.48
Mof_O 	O 	0.149	0.5398	0.1138	-0.516
Mof_O 	O 	0.4851	0.8277	0.1502	-0.574
Mof_O 	O 	0.3453	0.864	0.0958	-0.606
Mof_O 	O 	0.2306	0.6097	0.4862	-0.645
Mof_O 	O 	0.0825	0.7933	0.0159	-0.351
Mof_O 	O 	0.999	0.929	0.0142	-0.355
Mof_O 	O 	0.236	0.9875	0.0713	-0.37
Mof_O 	O 	0.9499	0.473	0.362	-0.629
Mof_O 	O 	0.991	0.8476	0.1329	-0.582
Mof_O 	O 	0.513	0.7131	0.0289	-0.36
Mof_O 	O 	0.752	0.6953	0.0794	-0.429
Mof_O 	O 	0.697	0.7904	0.9813	-0.349
Mof_O 	O 	0.498	0.8497	0.0206	-0.329
Mof_O 	O 	0.834	0.8202	0.0862	-0.552
Mof_O 	O 	0.3489	0.4021	0.3896	-0.654
Mof_O 	O 	0.7736	0.05	0.1683	-0.496
Mof_O 	O 	0.8226	0.1574	0.2447	-0.417
Mof_O 	O 	0.601	0.1153	0.2293	-0.419
Mof_O 	O 	0.757	0.0436	0.2964	-0.378
Mof_O 	O 	0.1402	0.1585	0.2625	-0.394
Mof_O 	O 	0.8193	0.2814	0.3712	-0.64
Mof_O 	O 	0.855	0.295	0.1363	-0.336
Mof_O 	O 	0.466	0.2229	0.1134	-0.346
Mof_O 	O 	0.4335	0.2081	0.3459	-0.633
Mof_O 	O 	0.3391	0.0156	0.2087	-0.369
Mof_O 	O 	0.6075	0.887	0.3271	-0.378
Mof_O 	O 	0.02	0.9582	0.3564	-0.374
Mof_O 	O 	0.7068	0.0831	0.4623	-0.404
Mof_O 	O 	0.6939	0.0157	0.0767	-0.445
Mof_O 	O 	0.8396	0.9492	0.143	-0.491
Mof_O 	O 	0.549	0.0054	0.1606	-0.515
Mof_O 	O 	0.683	0.9365	0.226	-0.542
Mof_O 	O 	0.901	0.0528	0.0912	-0.458
Mof_O 	O 	0.621	0.1309	0.1018	-0.491
Mof_O 	O 	0.828	0.168	0.1157	-0.515
Mof_O 	O 	0.0043	0.0846	0.1953	-0.516
Mof_O 	O 	0.9438	0.9813	0.2425	-0.523
Mof_O 	O 	0.959	0.1998	0.3142	-0.495
Mof_O 	O 	0.968	0.2035	0.196	-0.464
Mof_O 	O 	0.9826	0.0777	0.3096	-0.536
Mof_O 	O 	0.8144	0.2697	0.2489	-0.464
Mof_O 	O 	0.6563	0.215	0.3098	-0.559
Mof_O 	O 	0.793	0.1523	0.3764	-0.536
Mof_O 	O 	0.6716	0.2266	0.1707	-0.515
Mof_O 	O 	0.497	0.2132	0.2291	-0.46
Mof_O 	O 	0.444	0.1111	0.1603	-0.412
Mof_O 	O 	0.427	0.1025	0.2779	-0.475
Mof_O 	O 	0.589	0.1124	0.3572	-0.536
Mof_O 	O 	0.531	0.9948	0.2789	-0.51
Mof_O 	O 	0.8072	0.9396	0.3233	-0.462
Mof_O 	O 	0.6489	0.0037	0.3748	-0.48
Mof_O 	O 	0.851	0.0398	0.3862	-0.516
Mof_O 	O 	0.5149	0.3277	0.3498	-0.574
Mof_O 	O 	0.6547	0.364	0.4042	-0.607
Mof_O 	O 	0.7694	0.1097	0.0138	-0.644
Mof_O 	O 	0.9175	0.2933	0.4841	-0.35
Mof_O 	O 	0.001	0.429	0.4858	-0.358
Mof_O 	O 	0.764	0.4875	0.4287	-0.369
Mof_O 	O 	0.0501	0.973	0.138	-0.631
Mof_O 	O 	0.009	0.3476	0.3671	-0.585
Mof_O 	O 	0.487	0.2131	0.4711	-0.36
Mof_O 	O 	0.248	0.1953	0.4206	-0.429
Mof_O 	O 	0.303	0.2904	0.5187	-0.348
Mof_O 	O 	0.502	0.3497	0.4794	-0.329
Mof_O 	O 	0.166	0.3202	0.4138	-0.553
Mof_O 	O 	0.6511	0.9021	0.1104	-0.654
Mof_H 	H 	0.9927	0.3338	0.9074	0.155
Mof_H 	H 	0.0255	0.332	0.9745	0.16
Mof_H 	H 	0.1039	0.3044	0.9282	0.162
Mof_H 	H 	0.9941	0.2711	0.9414	0.156
Mof_N 	N 	0.029	0.3103	0.9378	-0.379
Mof_H 	H 	0.1856	0.4282	0.8342	0.151
Mof_H 	H 	0.28	0.4499	0.877	0.154
Mof_H 	H 	0.3005	0.397	0.8318	0.172
Mof_H 	H 	0.2263	0.3853	0.8856	0.163
Mof_N 	N 	0.248	0.4151	0.8572	-0.382
Mof_H 	H 	0.0073	0.8338	0.5926	0.156
Mof_H 	H 	0.9745	0.832	0.5255	0.16
Mof_H 	H 	0.8961	0.8044	0.5718	0.162
Mof_H 	H 	0.0059	0.7711	0.5586	0.158
Mof_N 	N 	0.971	0.8103	0.5622	-0.381
Mof_H 	H 	0.8144	0.9282	0.6658	0.151
Mof_H 	H 	0.72	0.9499	0.623	0.155
Mof_H 	H 	0.6995	0.897	0.6682	0.173
Mof_H 	H 	0.7737	0.8853	0.6144	0.164
Mof_N 	N 	0.752	0.9151	0.6428	-0.382
Mof_H 	H 	0.0073	0.6662	0.0926	0.155
Mof_H 	H 	0.9745	0.668	0.0255	0.16
Mof_H 	H 	0.8961	0.6956	0.0718	0.162
Mof_H 	H 	0.0059	0.7289	0.0586	0.156
Mof_N 	N 	0.971	0.6897	0.0622	-0.379
Mof_H 	H 	0.8144	0.5718	0.1658	0.151
Mof_H 	H 	0.72	0.5501	0.123	0.154
Mof_H 	H 	0.6995	0.603	0.1682	0.172
Mof_H 	H 	0.7737	0.6147	0.1144	0.163
Mof_N 	N 	0.752	0.5849	0.1428	-0.382
Mof_H 	H 	0.9927	0.1662	0.4074	0.156
Mof_H 	H 	0.0255	0.168	0.4745	0.16
Mof_H 	H 	0.1039	0.1956	0.4282	0.162
Mof_H 	H 	0.9941	0.2289	0.4414	0.158
Mof_N 	N 	0.029	0.1897	0.4378	-0.381
Mof_H 	H 	0.1856	0.0718	0.3342	0.151
Mof_H 	H 	0.28	0.0501	0.377	0.155
Mof_H 	H 	0.3005	0.103	0.3318	0.173
Mof_H 	H 	0.2263	0.1147	0.3856	0.164
Mof_N 	N 	0.248	0.0849	0.3572	-0.382
_end
