data_functionalizedCrystal
_audit_creation_method	'EQeq! by Chris Wilmer'
_symmetry_space_group_name_H-M	'P1'
_symmetry_Int_Tables_number	1
_symmetry_cell_setting	triclinic
loop_
_symmetry_equiv_pos_as_xyz
  x,y,z
_cell_length_a	6.5017
_cell_length_b	10.155
_cell_length_c	16.3582
_cell_angle_alpha	87.041
_cell_angle_beta	87.177
_cell_angle_gamma	81.427
loop_
_atom_site_label
_atom_site_type_symbol
_atom_site_fract_x
_atom_site_fract_y
_atom_site_fract_z
_atom_site_charge
Mof_Co	Co	0.86578	0.50211	0.26905	1.101
Mof_Co	Co	0.02927	0.84552	0.99664	1.152
Mof_O 	O 	0.2022	0.00351	0.96482	-0.585
Mof_H 	H 	0.2951	0.006	0.9049	0.084
Mof_O 	O 	0.1572	0.58969	0.27394	-0.401
Mof_O 	O 	0.8522	0.71101	0.25593	-0.428
Mof_O 	O 	0.7383	0.20621	0.27031	-0.329
Mof_O 	O 	0.0058	0.31412	0.28765	-0.44
Mof_O 	O 	0.4137	0.13503	0.09857	-0.488
Mof_O 	O 	0.0728	0.14191	0.12089	-0.498
Mof_O 	O 	0.4701	0.84145	0.08791	-0.475
Mof_O 	O 	0.1397	0.81151	0.11239	-0.496
Mof_N 	N 	0.7738	0.5299	0.3935	-0.237
Mof_N 	N 	0.6889	0.6292	0.50948	-0.113
Mof_C 	C 	0.7081	0.6445	0.42743	0.088
Mof_H 	H 	0.6787	0.7257	0.3983	0.002
Mof_C 	C 	0.7943	0.4364	0.45792	0.015
Mof_H 	H 	0.8366	0.3454	0.4529	0.013
Mof_C 	C 	0.7436	0.4969	0.52962	-0.012
Mof_H 	H 	0.7457	0.4565	0.582	0.04
Mof_C 	C 	0.6252	0.7316	0.57008	-0.061
Mof_H 	H 	0.74	0.7342	0.6054	0.062
Mof_H 	H 	0.5098	0.7062	0.6041	0.055
Mof_C 	C 	0.5608	0.8694	0.53231	-0.069
Mof_C 	C 	0.706	0.9429	0.49483	0.129
Mof_H 	H 	0.8454	0.9053	0.4911	-0.007
Mof_C 	C 	0.3533	0.9287	0.53702	0.123
Mof_H 	H 	0.2533	0.8815	0.5619	-0.004
Mof_C 	C 	0.1407	0.8275	0.27997	-0.076
Mof_H 	H 	0.1803	0.8214	0.3372	0.062
Mof_C 	C 	0.9835	0.9558	0.26999	-0.054
Mof_H 	H 	0.9334	0.9635	0.2148	0.086
Mof_H 	H 	0.8651	0.9507	0.3079	0.07
Mof_C 	C 	0.0815	0.0795	0.28618	-0.081
Mof_H 	H 	0.1197	0.0696	0.3436	0.046
Mof_C 	C 	0.285	0.0885	0.2359	-0.2
Mof_H 	H 	0.3497	0.1593	0.2583	0.099
Mof_C 	C 	0.4359	0.9578	0.24743	0.034
Mof_H 	H 	0.5596	0.9627	0.2124	0.039
Mof_H 	H 	0.4781	0.9486	0.3037	0.041
Mof_C 	C 	0.3425	0.8335	0.2276	-0.15
Mof_H 	H 	0.4421	0.7553	0.2437	0.067
Mof_C 	C 	0.0429	0.7034	0.26698	0.299
Mof_C 	C 	0.3124	0.828	0.13572	0.382
Mof_C 	C 	0.9255	0.2083	0.27927	0.297
Mof_C 	C 	0.2535	0.1253	0.14495	0.38
Mof_Co	Co	0.13422	0.49789	0.73095	1.109
Mof_Co	Co	0.97073	0.15448	0.00336	1.061
Mof_O 	O 	0.7978	0.99649	0.03518	-0.63
Mof_H 	H 	0.7049	0.994	0.0951	0.106
Mof_O 	O 	0.8428	0.41031	0.72606	-0.391
Mof_O 	O 	0.1478	0.28899	0.74407	-0.415
Mof_O 	O 	0.2617	0.79379	0.72969	-0.3
Mof_O 	O 	0.9942	0.68588	0.71235	-0.439
Mof_O 	O 	0.5863	0.86497	0.90143	-0.405
Mof_O 	O 	0.9272	0.85809	0.87911	-0.446
Mof_O 	O 	0.5299	0.15855	0.91209	-0.427
Mof_O 	O 	0.8603	0.18849	0.88761	-0.448
Mof_N 	N 	0.2262	0.4701	0.6065	-0.234
Mof_N 	N 	0.3111	0.3708	0.49052	-0.092
Mof_C 	C 	0.2919	0.3555	0.57257	0.078
Mof_H 	H 	0.3213	0.2743	0.6017	0.002
Mof_C 	C 	0.2057	0.5636	0.54208	0.018
Mof_H 	H 	0.1634	0.6546	0.5471	0.021
Mof_C 	C 	0.2564	0.5031	0.47038	-0.018
Mof_H 	H 	0.2543	0.5435	0.418	0.044
Mof_C 	C 	0.3748	0.2684	0.42992	-0.216
Mof_H 	H 	0.26	0.2658	0.3946	0.105
Mof_H 	H 	0.4902	0.2938	0.3959	0.097
Mof_C 	C 	0.4392	0.1306	0.46769	0.198
Mof_C 	C 	0.294	0.0571	0.50517	-0.273
Mof_H 	H 	0.1546	0.0947	0.5089	0.114
Mof_C 	C 	0.6467	0.0713	0.46298	-0.281
Mof_H 	H 	0.7467	0.1185	0.4381	0.115
Mof_C 	C 	0.8593	0.1725	0.72003	-0.07
Mof_H 	H 	0.8197	0.1786	0.6628	0.049
Mof_C 	C 	0.0165	0.0442	0.73001	-0.133
Mof_H 	H 	0.0666	0.0365	0.7852	0.088
Mof_H 	H 	0.1349	0.0493	0.6921	0.07
Mof_C 	C 	0.9185	0.9205	0.71382	-0.035
Mof_H 	H 	0.8803	0.9304	0.6564	0.06
Mof_C 	C 	0.715	0.9115	0.7641	-0.099
Mof_H 	H 	0.6503	0.8407	0.7417	0.082
Mof_C 	C 	0.5641	0.0422	0.75257	-0.091
Mof_H 	H 	0.4404	0.0373	0.7876	0.057
Mof_H 	H 	0.5219	0.0514	0.6963	0.052
Mof_C 	C 	0.6575	0.1665	0.7724	-0.122
Mof_H 	H 	0.5579	0.2447	0.7563	0.064
Mof_C 	C 	0.9571	0.2966	0.73302	0.289
Mof_C 	C 	0.6876	0.172	0.86428	0.353
Mof_C 	C 	0.0745	0.7917	0.72073	0.305
Mof_C 	C 	0.7465	0.8747	0.85505	0.363
Mof_Co	Co	0.5	0	-0	1.103
_end
