data_functionalizedCrystal
_audit_creation_method	'EQeq! by Chris Wilmer'
_symmetry_space_group_name_H-M	'P1'
_symmetry_Int_Tables_number	1
_symmetry_cell_setting	triclinic
loop_
_symmetry_equiv_pos_as_xyz
  x,y,z
_cell_length_a	9.7669
_cell_length_b	19.1321
_cell_length_c	19.139
_cell_angle_alpha	90
_cell_angle_beta	90
_cell_angle_gamma	90
loop_
_atom_site_label
_atom_site_type_symbol
_atom_site_fract_x
_atom_site_fract_y
_atom_site_fract_z
_atom_site_charge
Mof_U 	U 	0.98489	0.23478	0.24913	0.012
Mof_U 	U 	0.28929	0.00314	0.74185	0.015
Mof_P 	P 	0.0725	0.10782	0.11375	0.385
Mof_P 	P 	0.3766	0.12444	0.87158	0.432
Mof_P 	P 	0.4131	0.12749	0.61974	0.432
Mof_P 	P 	0.1117	0.10901	0.37779	0.389
Mof_O 	O 	0.9879	0.0511	0.0789	-0.213
Mof_O 	O 	0.1919	0.0773	0.1544	-0.165
Mof_O 	O 	0.9849	0.1555	0.1595	-0.169
Mof_O 	O 	0.4557	0.1796	0.8323	-0.176
Mof_O 	O 	0.473	0.0731	0.9061	-0.424
Mof_H 	H 	0.444	0.0332	0.9006	0.312
Mof_O 	O 	0.2696	0.0896	0.8238	-0.174
Mof_O 	O 	0.4818	0.1814	0.6656	-0.175
Mof_O 	O 	0.3016	0.0861	0.6557	-0.181
Mof_O 	O 	0.5244	0.0796	0.59	-0.422
Mof_H 	H 	0.504	0.0387	0.5974	0.313
Mof_O 	O 	0.2188	0.0772	0.3303	-0.168
Mof_O 	O 	0.0124	0.1552	0.3381	-0.17
Mof_O 	O 	0.0382	0.0534	0.4202	-0.218
Mof_C 	C 	0.1474	0.1609	0.0459	-0.019
Mof_C 	C 	0.2168	0.1285	0.9911	-0.013
Mof_H 	H 	0.2193	0.0799	0.9887	0.067
Mof_C 	C 	0.283	0.1682	0.9395	-0.028
Mof_C 	C 	0.2758	0.2395	0.9437	-0.021
Mof_H 	H 	0.3184	0.2665	0.9096	0.08
Mof_C 	C 	0.2061	0.2729	0.998	-0.025
Mof_H 	H 	0.2015	0.3214	0.9998	0.079
Mof_C 	C 	0.1437	0.2324	0.0495	-0.027
Mof_H 	H 	0.0992	0.2542	0.0866	0.085
Mof_C 	C 	0.3343	0.1702	0.5462	-0.023
Mof_C 	C 	0.2623	0.1319	0.4982	-0.015
Mof_H 	H 	0.2541	0.0839	0.5047	0.07
Mof_C 	C 	0.2015	0.1622	0.4408	-0.018
Mof_C 	C 	0.2152	0.2356	0.4324	-0.029
Mof_H 	H 	0.1761	0.2576	0.3939	0.088
Mof_C 	C 	0.2851	0.2738	0.4802	-0.021
Mof_H 	H 	0.2933	0.3219	0.4741	0.078
Mof_C 	C 	0.3444	0.2427	0.5378	-0.024
Mof_H 	H 	0.3906	0.2696	0.5707	0.079
Mof_U 	U 	0.51511	0.76522	0.74913	0.013
Mof_U 	U 	0.21071	0.99686	0.24185	0.016
Mof_P 	P 	0.4275	0.89218	0.61375	0.387
Mof_P 	P 	0.1234	0.87556	0.37158	0.432
Mof_P 	P 	0.0869	0.87251	0.11974	0.432
Mof_P 	P 	0.3883	0.89099	0.87779	0.389
Mof_O 	O 	0.5121	0.9489	0.5789	-0.214
Mof_O 	O 	0.3081	0.9227	0.6544	-0.165
Mof_O 	O 	0.5151	0.8445	0.6595	-0.17
Mof_O 	O 	0.0443	0.8204	0.3323	-0.175
Mof_O 	O 	0.027	0.9269	0.4061	-0.424
Mof_H 	H 	0.056	0.9668	0.4006	0.312
Mof_O 	O 	0.2304	0.9104	0.3238	-0.174
Mof_O 	O 	0.0182	0.8186	0.1656	-0.175
Mof_O 	O 	0.1984	0.9139	0.1557	-0.181
Mof_O 	O 	0.9756	0.9204	0.09	-0.422
Mof_H 	H 	0.996	0.9613	0.0974	0.313
Mof_O 	O 	0.2812	0.9228	0.8303	-0.167
Mof_O 	O 	0.4876	0.8448	0.8381	-0.17
Mof_O 	O 	0.4618	0.9466	0.9202	-0.217
Mof_C 	C 	0.3526	0.8391	0.5459	-0.019
Mof_C 	C 	0.2832	0.8715	0.4911	-0.013
Mof_H 	H 	0.2807	0.9201	0.4887	0.067
Mof_C 	C 	0.217	0.8318	0.4395	-0.028
Mof_C 	C 	0.2242	0.7605	0.4437	-0.021
Mof_H 	H 	0.1816	0.7335	0.4096	0.08
Mof_C 	C 	0.2939	0.7271	0.498	-0.026
Mof_H 	H 	0.2985	0.6786	0.4998	0.079
Mof_C 	C 	0.3563	0.7676	0.5495	-0.026
Mof_H 	H 	0.4008	0.7458	0.5866	0.085
Mof_C 	C 	0.1657	0.8298	0.0462	-0.025
Mof_C 	C 	0.2377	0.8681	0.9982	-0.011
Mof_H 	H 	0.2459	0.9161	0.0047	0.068
Mof_C 	C 	0.2985	0.8378	0.9408	-0.019
Mof_C 	C 	0.2848	0.7644	0.9324	-0.029
Mof_H 	H 	0.3239	0.7424	0.8939	0.088
Mof_C 	C 	0.2149	0.7262	0.9802	-0.02
Mof_H 	H 	0.2067	0.6781	0.9741	0.078
Mof_C 	C 	0.1556	0.7573	0.0378	-0.024
Mof_H 	H 	0.1094	0.7304	0.0707	0.079
Mof_U 	U 	0.01511	0.73478	0.25087	0.013
Mof_U 	U 	0.71071	0.50314	0.75815	0.016
Mof_P 	P 	0.9275	0.60782	0.38625	0.386
Mof_P 	P 	0.6234	0.62444	0.62842	0.432
Mof_P 	P 	0.5869	0.62749	0.88026	0.432
Mof_P 	P 	0.8883	0.60901	0.12221	0.389
Mof_O 	O 	0.0121	0.5511	0.4211	-0.214
Mof_O 	O 	0.8081	0.5773	0.3456	-0.165
Mof_O 	O 	0.0151	0.6555	0.3405	-0.169
Mof_O 	O 	0.5443	0.6796	0.6677	-0.176
Mof_O 	O 	0.527	0.5731	0.5939	-0.424
Mof_H 	H 	0.556	0.5332	0.5994	0.312
Mof_O 	O 	0.7304	0.5896	0.6762	-0.174
Mof_O 	O 	0.5182	0.6814	0.8344	-0.175
Mof_O 	O 	0.6984	0.5861	0.8443	-0.181
Mof_O 	O 	0.4756	0.5796	0.91	-0.422
Mof_H 	H 	0.496	0.5387	0.9026	0.313
Mof_O 	O 	0.7812	0.5772	0.1697	-0.168
Mof_O 	O 	0.9876	0.6552	0.1619	-0.17
Mof_O 	O 	0.9618	0.5534	0.0798	-0.217
Mof_C 	C 	0.8526	0.6609	0.4541	-0.019
Mof_C 	C 	0.7832	0.6285	0.5089	-0.013
Mof_H 	H 	0.7807	0.5799	0.5113	0.067
Mof_C 	C 	0.717	0.6682	0.5605	-0.028
Mof_C 	C 	0.7242	0.7395	0.5563	-0.021
Mof_H 	H 	0.6816	0.7665	0.5904	0.08
Mof_C 	C 	0.7939	0.7729	0.502	-0.026
Mof_H 	H 	0.7985	0.8214	0.5002	0.079
Mof_C 	C 	0.8563	0.7324	0.4505	-0.026
Mof_H 	H 	0.9008	0.7542	0.4134	0.084
Mof_C 	C 	0.6657	0.6702	0.9538	-0.024
Mof_C 	C 	0.7377	0.6319	0.0018	-0.014
Mof_H 	H 	0.7459	0.5839	0.9953	0.069
Mof_C 	C 	0.7985	0.6622	0.0592	-0.019
Mof_C 	C 	0.7848	0.7356	0.0676	-0.029
Mof_H 	H 	0.8239	0.7576	0.1061	0.088
Mof_C 	C 	0.7149	0.7738	0.0198	-0.021
Mof_H 	H 	0.7067	0.8219	0.0259	0.078
Mof_C 	C 	0.6556	0.7427	0.9622	-0.024
Mof_H 	H 	0.6094	0.7696	0.9293	0.079
Mof_U 	U 	0.48489	0.26522	0.75087	0.013
Mof_U 	U 	0.78929	0.49686	0.25815	0.016
Mof_P 	P 	0.5725	0.39218	0.88625	0.387
Mof_P 	P 	0.8766	0.37556	0.12842	0.432
Mof_P 	P 	0.9131	0.37251	0.38026	0.432
Mof_P 	P 	0.6117	0.39099	0.62221	0.389
Mof_O 	O 	0.4879	0.4489	0.9211	-0.214
Mof_O 	O 	0.6919	0.4227	0.8456	-0.165
Mof_O 	O 	0.4849	0.3445	0.8405	-0.17
Mof_O 	O 	0.9557	0.3204	0.1677	-0.176
Mof_O 	O 	0.973	0.4269	0.0939	-0.424
Mof_H 	H 	0.944	0.4668	0.0994	0.312
Mof_O 	O 	0.7696	0.4104	0.1762	-0.174
Mof_O 	O 	0.9818	0.3186	0.3344	-0.175
Mof_O 	O 	0.8016	0.4139	0.3443	-0.181
Mof_O 	O 	0.0244	0.4204	0.41	-0.422
Mof_H 	H 	0.004	0.4613	0.4026	0.313
Mof_O 	O 	0.7188	0.4228	0.6697	-0.168
Mof_O 	O 	0.5124	0.3448	0.6619	-0.17
Mof_O 	O 	0.5382	0.4466	0.5798	-0.217
Mof_C 	C 	0.6474	0.3391	0.9541	-0.019
Mof_C 	C 	0.7168	0.3715	0.0089	-0.012
Mof_H 	H 	0.7193	0.4201	0.0113	0.067
Mof_C 	C 	0.783	0.3318	0.0605	-0.027
Mof_C 	C 	0.7758	0.2605	0.0563	-0.022
Mof_H 	H 	0.8184	0.2335	0.0904	0.08
Mof_C 	C 	0.7061	0.2271	0.002	-0.024
Mof_H 	H 	0.7015	0.1786	0.0002	0.079
Mof_C 	C 	0.6437	0.2676	0.9505	-0.028
Mof_H 	H 	0.5992	0.2458	0.9134	0.085
Mof_C 	C 	0.8343	0.3298	0.4538	-0.023
Mof_C 	C 	0.7623	0.3681	0.5018	-0.015
Mof_H 	H 	0.7541	0.4161	0.4953	0.07
Mof_C 	C 	0.7015	0.3378	0.5592	-0.018
Mof_C 	C 	0.7152	0.2644	0.5676	-0.03
Mof_H 	H 	0.6761	0.2424	0.6061	0.088
Mof_C 	C 	0.7851	0.2262	0.5198	-0.021
Mof_H 	H 	0.7933	0.1781	0.5259	0.078
Mof_C 	C 	0.8444	0.2573	0.4622	-0.024
Mof_H 	H 	0.8906	0.2304	0.4293	0.079
_end
