data_functionalizedCrystal
_audit_creation_method	'EQeq! by Chris Wilmer'
_symmetry_space_group_name_H-M	'P1'
_symmetry_Int_Tables_number	1
_symmetry_cell_setting	triclinic
loop_
_symmetry_equiv_pos_as_xyz
  x,y,z
_cell_length_a	38.1277
_cell_length_b	38.1277
_cell_length_c	38.1277
_cell_angle_alpha	109.471
_cell_angle_beta	109.471
_cell_angle_gamma	109.471
loop_
_atom_site_label
_atom_site_type_symbol
_atom_site_fract_x
_atom_site_fract_y
_atom_site_fract_z
_atom_site_charge
Mof_Zr	Zr	0.99493	0.94126	0.44121	3.214
Mof_Zr	Zr	0.44121	0.99493	0.94126	3.214
Mof_Zr	Zr	0.05367	0.49995	0.05874	3.217
Mof_Zr	Zr	0.49995	0.44628	0.44121	3.216
Mof_Zr	Zr	0.50005	0.55372	0.55879	3.216
Mof_Zr	Zr	0.94633	0.00507	0.44628	3.217
Mof_Zr	Zr	0.44121	0.49995	0.44628	3.216
Mof_Zr	Zr	0.05874	0.05367	0.49995	3.217
Mof_Zr	Zr	0.94633	0.50005	0.94126	3.215
Mof_Zr	Zr	0.55372	0.55879	0.50005	3.216
Mof_Zr	Zr	0.55879	0.50005	0.55372	3.216
Mof_Zr	Zr	0.94126	0.44121	0.99493	3.214
Mof_Zr	Zr	0.50005	0.94126	0.94633	3.215
Mof_Zr	Zr	0.99493	0.55372	0.05367	3.215
Mof_Zr	Zr	0.44628	0.44121	0.49995	3.216
Mof_Zr	Zr	0.05874	0.55879	0.00507	3.218
Mof_Zr	Zr	0.55879	0.00507	0.05874	3.218
Mof_Zr	Zr	0.05367	0.99493	0.55372	3.215
Mof_Zr	Zr	0.49995	0.05874	0.05367	3.217
Mof_Zr	Zr	0.44628	0.94633	0.00507	3.217
Mof_Zr	Zr	0.55372	0.05367	0.99493	3.215
Mof_Zr	Zr	0.94126	0.94633	0.50005	3.215
Mof_Zr	Zr	0.00507	0.44628	0.94633	3.217
Mof_Zr	Zr	0.00507	0.05874	0.55879	3.218
Mof_H 	H 	0.9195	0.8301	0.5976	0.096
Mof_H 	H 	0.1666	0.7766	0.1178	0.097
Mof_H 	H 	0.8242	0.7242	0.049	0.045
Mof_H 	H 	0.4537	0.3248	0.6041	0.097
Mof_H 	H 	0.0805	0.6781	0.9106	0.101
Mof_H 	H 	0.1758	0.2758	0.951	0.055
Mof_H 	H 	0.2024	0.6382	0.0832	0.013
Mof_H 	H 	0.4358	0.555	0.6382	0.011
Mof_H 	H 	0.5791	0.9101	0.1784	0.099
Mof_H 	H 	0.4378	0.3068	0.3636	0.002
Mof_H 	H 	0.6364	0.9432	0.0742	-0.001
Mof_H 	H 	0.0495	0.6239	0.1932	0.01
Mof_H 	H 	0.1289	0.4537	0.8496	0.097
Mof_H 	H 	0.6781	0.9106	0.0805	0.101
Mof_H 	H 	0.5478	0.7355	0.3381	0.051
Mof_H 	H 	0.3381	0.5478	0.7355	0.051
Mof_H 	H 	0.049	0.3248	0.2248	0.046
Mof_H 	H 	0.3381	0.6026	0.7903	0.051
Mof_H 	H 	0.1	0.8242	0.7752	0.054
Mof_H 	H 	0.0899	0.669	0.2683	0.1
Mof_H 	H 	0.7242	0.9	0.6752	0.045
Mof_H 	H 	0.951	0.6752	0.7752	0.054
Mof_H 	H 	0.3219	0.0894	0.9195	0.098
Mof_H 	H 	0.2498	0.1485	0.8987	0.062
Mof_H 	H 	0.2629	0.6007	0.8636	0.058
Mof_H 	H 	0.5622	0.6932	0.6364	0.002
Mof_H 	H 	0.6041	0.2793	0.1504	0.097
Mof_H 	H 	0.1877	0.4522	0.7903	0.052
Mof_H 	H 	0.9464	0.0776	0.3754	0.005
Mof_H 	H 	0.2793	0.6752	0.1289	0.097
Mof_H 	H 	0.3618	0.9168	0.7976	0.009
Mof_H 	H 	0.6239	0.1932	0.0495	0.01
Mof_H 	H 	0.0488	0.8822	0.6588	0.093
Mof_H 	H 	0.7766	0.61	0.6588	0.096
Mof_H 	H 	0.7752	0.1	0.8242	0.054
Mof_H 	H 	0.1877	0.3974	0.7355	0.052
Mof_H 	H 	0.7355	0.3381	0.5478	0.051
Mof_H 	H 	0.8334	0.2234	0.8822	0.096
Mof_H 	H 	0.1312	0.7022	0.0776	0.005
Mof_H 	H 	0.9106	0.2325	0.8301	0.099
Mof_H 	H 	0.7903	0.3381	0.6026	0.051
Mof_H 	H 	0.0832	0.445	0.8808	0.012
Mof_H 	H 	0.7976	0.8808	0.4358	0.01
Mof_H 	H 	0.5791	0.4007	0.669	0.099
Mof_H 	H 	0.7675	0.6781	0.5976	0.098
Mof_H 	H 	0.8688	0.2978	0.9224	-0
Mof_H 	H 	0.2758	0.951	0.1758	0.055
Mof_H 	H 	0.39	0.1666	0.0488	0.094
Mof_H 	H 	0.3412	0.9512	0.1178	0.1
Mof_H 	H 	0.1013	0.2498	0.3511	0.058
Mof_H 	H 	0.0832	0.2024	0.6382	0.013
Mof_H 	H 	0.6246	0.0536	0.9224	-0.001
Mof_H 	H 	0.6619	0.3974	0.2097	0.052
Mof_H 	H 	0.6239	0.5744	0.4307	0.008
Mof_H 	H 	0.3248	0.6041	0.4537	0.097
Mof_H 	H 	0.3993	0.6622	0.2629	0.059
Mof_H 	H 	0.8496	0.1289	0.4537	0.097
Mof_H 	H 	0.4209	0.0899	0.8216	0.1
Mof_H 	H 	0.5478	0.2097	0.8123	0.051
Mof_H 	H 	0.8242	0.7752	0.1	0.054
Mof_H 	H 	0.5976	0.7675	0.6781	0.098
Mof_H 	H 	0.9168	0.555	0.1192	0.009
Mof_H 	H 	0.9505	0.3761	0.8068	0.006
Mof_H 	H 	0.1485	0.8987	0.2498	0.062
Mof_H 	H 	0.2978	0.429	0.3754	0.002
Mof_H 	H 	0.4307	0.6239	0.5744	0.008
Mof_H 	H 	0.331	0.4209	0.5993	0.1
Mof_H 	H 	0.7502	0.6489	0.8987	0.061
Mof_H 	H 	0.7355	0.1877	0.3974	0.052
Mof_H 	H 	0.6619	0.4522	0.2645	0.052
Mof_H 	H 	0.6588	0.0488	0.8822	0.093
Mof_H 	H 	0.8301	0.5976	0.9195	0.096
Mof_H 	H 	0.4522	0.7903	0.1877	0.052
Mof_H 	H 	0.0805	0.1699	0.4024	0.102
Mof_H 	H 	0.2234	0.39	0.3412	0.097
Mof_H 	H 	0.8808	0.4358	0.7976	0.01
Mof_H 	H 	0.1192	0.5642	0.2024	0.011
Mof_H 	H 	0.6781	0.5976	0.7675	0.098
Mof_H 	H 	0.0899	0.8216	0.4209	0.1
Mof_H 	H 	0.9432	0.3068	0.869	-0.001
Mof_H 	H 	0.6026	0.2645	0.8123	0.051
Mof_H 	H 	0.3618	0.5642	0.445	0.011
Mof_H 	H 	0.3248	0.8711	0.7207	0.096
Mof_H 	H 	0.2248	0.049	0.3248	0.046
Mof_H 	H 	0.1192	0.9168	0.555	0.009
Mof_H 	H 	0.7317	0.9101	0.331	0.099
Mof_H 	H 	0.0776	0.1312	0.7022	0.005
Mof_H 	H 	0.6752	0.3959	0.5463	0.097
Mof_H 	H 	0.429	0.1312	0.0536	0.002
Mof_H 	H 	0.9464	0.571	0.8688	0.003
Mof_H 	H 	0.2629	0.3993	0.6622	0.059
Mof_H 	H 	0.6382	0.4358	0.555	0.011
Mof_H 	H 	0.9224	0.6246	0.0536	-0.001
Mof_H 	H 	0.8822	0.8334	0.2234	0.096
Mof_H 	H 	0.6752	0.7242	0.9	0.045
Mof_H 	H 	0.5463	0.1504	0.8711	0.096
Mof_H 	H 	0.5622	0.9258	0.869	0.002
Mof_H 	H 	0.8515	0.1013	0.7502	0.057
Mof_H 	H 	0.6752	0.1289	0.2793	0.097
Mof_H 	H 	0.7022	0.571	0.6246	0.002
Mof_H 	H 	0.9512	0.61	0.8334	0.099
Mof_H 	H 	0.0536	0.429	0.1312	0.002
Mof_H 	H 	0.0742	0.131	0.4378	0.002
Mof_H 	H 	0.3974	0.7355	0.1877	0.052
Mof_H 	H 	0.7317	0.4007	0.8216	0.099
Mof_H 	H 	0.8216	0.7317	0.4007	0.099
Mof_H 	H 	0.5744	0.9505	0.1437	0.006
Mof_H 	H 	0.7766	0.1178	0.1666	0.097
Mof_H 	H 	0.8636	0.2629	0.6007	0.058
Mof_H 	H 	0.7903	0.1877	0.4522	0.052
Mof_H 	H 	0.3068	0.3636	0.4378	0.002
Mof_H 	H 	0.1437	0.5744	0.9505	0.006
Mof_H 	H 	0.6041	0.4537	0.3248	0.097
Mof_H 	H 	0.4007	0.8216	0.7317	0.099
Mof_H 	H 	0.2325	0.3219	0.4024	0.1
Mof_H 	H 	0.2683	0.5993	0.1784	0.099
Mof_H 	H 	0.445	0.8808	0.0832	0.012
Mof_H 	H 	0.2097	0.8123	0.5478	0.051
Mof_H 	H 	0.4537	0.8496	0.1289	0.097
Mof_H 	H 	0.4007	0.669	0.5791	0.099
Mof_H 	H 	0.0495	0.8563	0.4256	0.01
Mof_H 	H 	0.3412	0.2234	0.39	0.097
Mof_H 	H 	0.2234	0.8822	0.8334	0.096
Mof_H 	H 	0.6489	0.8987	0.7502	0.061
Mof_H 	H 	0.9224	0.8688	0.2978	-0
Mof_H 	H 	0.6007	0.3378	0.7371	0.059
Mof_H 	H 	0.3761	0.4256	0.5693	0.008
Mof_H 	H 	0.7022	0.0776	0.1312	0.005
Mof_H 	H 	0.6364	0.5622	0.6932	0.002
Mof_H 	H 	0.9168	0.7976	0.3618	0.009
Mof_H 	H 	0.869	0.9432	0.3068	-0.001
Mof_H 	H 	0.3636	0.0568	0.9258	0.005
Mof_H 	H 	0.1178	0.1666	0.7766	0.097
Mof_H 	H 	0.5993	0.1784	0.2683	0.099
Mof_H 	H 	0.4256	0.5693	0.3761	0.008
Mof_H 	H 	0.2248	0.9	0.1758	0.046
Mof_H 	H 	0.429	0.3754	0.2978	0.002
Mof_H 	H 	0.9258	0.869	0.5622	0.002
Mof_H 	H 	0.2645	0.8123	0.6026	0.051
Mof_H 	H 	0.1932	0.0495	0.6239	0.01
Mof_H 	H 	0.1699	0.0894	0.7675	0.1
Mof_H 	H 	0.8563	0.4256	0.0495	0.01
Mof_H 	H 	0.8496	0.3959	0.7207	0.097
Mof_H 	H 	0.1504	0.8711	0.5463	0.096
Mof_H 	H 	0.7207	0.3248	0.8711	0.096
Mof_H 	H 	0.3219	0.4024	0.2325	0.1
Mof_H 	H 	0.0568	0.6932	0.131	0.005
Mof_H 	H 	0.61	0.8334	0.9512	0.099
Mof_H 	H 	0.7752	0.951	0.6752	0.054
Mof_H 	H 	0.5993	0.331	0.4209	0.1
Mof_H 	H 	0.9106	0.0805	0.6781	0.101
Mof_H 	H 	0.1504	0.6041	0.2793	0.097
Mof_H 	H 	0.9195	0.3219	0.0894	0.098
Mof_H 	H 	0.9512	0.1178	0.3412	0.1
Mof_H 	H 	0.9101	0.331	0.7317	0.099
Mof_H 	H 	0.8563	0.8068	0.4307	0.007
Mof_H 	H 	0.131	0.4378	0.0742	0.002
Mof_H 	H 	0.6932	0.6364	0.5622	0.002
Mof_H 	H 	0.571	0.8688	0.9464	0.003
Mof_H 	H 	0.331	0.7317	0.9101	0.099
Mof_H 	H 	0.3959	0.7207	0.8496	0.097
Mof_H 	H 	0.1312	0.0536	0.429	0.002
Mof_H 	H 	0.5463	0.6752	0.3959	0.097
Mof_H 	H 	0.8987	0.7502	0.6489	0.061
Mof_H 	H 	0.7207	0.8496	0.3959	0.097
Mof_H 	H 	0.5744	0.4307	0.6239	0.008
Mof_H 	H 	0.0536	0.9224	0.6246	-0.001
Mof_H 	H 	0.4307	0.8563	0.8068	0.007
Mof_H 	H 	0.9	0.6752	0.7242	0.045
Mof_H 	H 	0.2645	0.6619	0.4522	0.052
Mof_H 	H 	0.4358	0.7976	0.8808	0.01
Mof_H 	H 	0.555	0.1192	0.9168	0.009
Mof_H 	H 	0.4256	0.0495	0.8563	0.01
Mof_H 	H 	0.9258	0.3636	0.0568	0.005
Mof_H 	H 	0.7675	0.1699	0.0894	0.1
Mof_H 	H 	0.4024	0.2325	0.3219	0.1
Mof_H 	H 	0.2024	0.1192	0.5642	0.011
Mof_H 	H 	0.6246	0.7022	0.571	0.002
Mof_H 	H 	0.7502	0.8515	0.1013	0.057
Mof_H 	H 	0.2498	0.3511	0.1013	0.058
Mof_H 	H 	0.61	0.6588	0.7766	0.096
Mof_H 	H 	0.2978	0.9224	0.8688	-0
Mof_H 	H 	0.5642	0.445	0.3618	0.011
Mof_H 	H 	0.6588	0.7766	0.61	0.096
Mof_H 	H 	0.3974	0.2097	0.6619	0.052
Mof_H 	H 	0.4024	0.0805	0.1699	0.102
Mof_H 	H 	0.8123	0.5478	0.2097	0.051
Mof_H 	H 	0.8301	0.9106	0.2325	0.099
Mof_H 	H 	0.0488	0.39	0.1666	0.094
Mof_H 	H 	0.1666	0.0488	0.39	0.094
Mof_H 	H 	0.6752	0.7752	0.951	0.054
Mof_H 	H 	0.8711	0.7207	0.3248	0.096
Mof_H 	H 	0.3378	0.7371	0.6007	0.059
Mof_H 	H 	0.0742	0.6364	0.9432	-0.001
Mof_H 	H 	0.1013	0.7502	0.8515	0.057
Mof_H 	H 	0.6026	0.7903	0.3381	0.051
Mof_H 	H 	0.669	0.2683	0.0899	0.1
Mof_H 	H 	0.9	0.1758	0.2248	0.046
Mof_H 	H 	0.3959	0.5463	0.6752	0.097
Mof_H 	H 	0.1932	0.5693	0.1437	0.008
Mof_H 	H 	0.4209	0.5993	0.331	0.1
Mof_H 	H 	0.445	0.3618	0.5642	0.011
Mof_H 	H 	0.1758	0.2248	0.9	0.046
Mof_H 	H 	0.1784	0.2683	0.5993	0.099
Mof_H 	H 	0.2325	0.8301	0.9106	0.099
Mof_H 	H 	0.2758	0.1	0.3248	0.055
Mof_H 	H 	0.3511	0.1013	0.2498	0.058
Mof_H 	H 	0.8068	0.9505	0.3761	0.006
Mof_H 	H 	0.8808	0.0832	0.445	0.012
Mof_H 	H 	0.6932	0.131	0.0568	0.005
Mof_H 	H 	0.049	0.8242	0.7242	0.045
Mof_H 	H 	0.7242	0.049	0.8242	0.045
Mof_H 	H 	0.7371	0.3993	0.1364	0.06
Mof_H 	H 	0.2097	0.6619	0.3974	0.052
Mof_H 	H 	0.9505	0.1437	0.5744	0.006
Mof_H 	H 	0.669	0.5791	0.4007	0.099
Mof_H 	H 	0.1	0.3248	0.2758	0.055
Mof_H 	H 	0.5642	0.2024	0.1192	0.011
Mof_H 	H 	0.1364	0.7371	0.3993	0.06
Mof_H 	H 	0.8711	0.5463	0.1504	0.096
Mof_H 	H 	0.9101	0.1784	0.5791	0.099
Mof_H 	H 	0.8068	0.4307	0.8563	0.007
Mof_H 	H 	0.1437	0.1932	0.5693	0.008
Mof_H 	H 	0.0894	0.9195	0.3219	0.098
Mof_H 	H 	0.39	0.3412	0.2234	0.097
Mof_H 	H 	0.8822	0.6588	0.0488	0.093
Mof_H 	H 	0.555	0.6382	0.4358	0.011
Mof_H 	H 	0.3248	0.2248	0.049	0.046
Mof_H 	H 	0.3636	0.4378	0.3068	0.002
Mof_H 	H 	0.8987	0.2498	0.1485	0.062
Mof_H 	H 	0.131	0.0568	0.6932	0.005
Mof_H 	H 	0.6007	0.8636	0.2629	0.058
Mof_H 	H 	0.0568	0.9258	0.3636	0.005
Mof_H 	H 	0.3754	0.9464	0.0776	0.005
Mof_H 	H 	0.9432	0.0742	0.6364	-0.001
Mof_H 	H 	0.6382	0.0832	0.2024	0.013
Mof_H 	H 	0.0894	0.7675	0.1699	0.1
Mof_H 	H 	0.4522	0.2645	0.6619	0.052
Mof_H 	H 	0.8216	0.4209	0.0899	0.1
Mof_H 	H 	0.8688	0.9464	0.571	0.003
Mof_H 	H 	0.2683	0.0899	0.669	0.1
Mof_H 	H 	0.5976	0.9195	0.8301	0.096
Mof_H 	H 	0.5693	0.1437	0.1932	0.008
Mof_H 	H 	0.4378	0.0742	0.131	0.002
Mof_H 	H 	0.0776	0.3754	0.9464	0.005
Mof_H 	H 	0.571	0.6246	0.7022	0.002
Mof_H 	H 	0.7371	0.6007	0.3378	0.059
Mof_H 	H 	0.3761	0.8068	0.9505	0.006
Mof_H 	H 	0.1178	0.3412	0.9512	0.1
Mof_H 	H 	0.3068	0.869	0.9432	-0.001
Mof_H 	H 	0.1289	0.2793	0.6752	0.097
Mof_H 	H 	0.7976	0.3618	0.9168	0.009
Mof_H 	H 	0.951	0.1758	0.2758	0.055
Mof_H 	H 	0.6622	0.2629	0.3993	0.059
Mof_H 	H 	0.1699	0.4024	0.0805	0.102
Mof_H 	H 	0.869	0.5622	0.9258	0.002
Mof_H 	H 	0.5693	0.3761	0.4256	0.008
Mof_H 	H 	0.8334	0.9512	0.61	0.099
Mof_H 	H 	0.3754	0.2978	0.429	0.002
Mof_H 	H 	0.3248	0.2758	0.1	0.055
Mof_H 	H 	0.3993	0.1364	0.7371	0.06
Mof_H 	H 	0.1784	0.5791	0.9101	0.099
Mof_H 	H 	0.2793	0.1504	0.6041	0.097
Mof_H 	H 	0.8123	0.6026	0.2645	0.051
Mof_C 	C 	0.14687	0.36811	0.01678	0.157
Mof_C 	C 	0.4836	0.64185	0.36315	0.154
Mof_C 	C 	0.2346	0.50291	0.79451	0.012
Mof_C 	C 	0.76451	0.4632	0.17329	0.003
Mof_C 	C 	0.66214	0.1829	0.32524	-0.071
Mof_C 	C 	0.16096	0.25489	0.60893	-0.193
Mof_C 	C 	0.19389	0.2646	0.95929	-0.072
Mof_C 	C 	0.36315	0.7213	0.87955	0.154
Mof_C 	C 	0.61906	0.71553	0.59281	0.137
Mof_C 	C 	0.92004	0.49399	0.06229	0.534
Mof_C 	C 	0.85656	0.24049	0.88013	-0.192
Mof_C 	C 	0.08987	0.98994	0.39947	-0.232
Mof_C 	C 	0.12045	0.63685	0.2787	0.154
Mof_C 	C 	0.66802	0.86316	0.69474	0.011
Mof_C 	C 	0.87728	0.97375	0.59281	0.13
Mof_C 	C 	0.5368	0.30131	0.71009	0.003
Mof_C 	C 	0.55991	0.79451	0.2916	0.012
Mof_C 	C 	0.14344	0.75951	0.11987	-0.187
Mof_C 	C 	0.17419	0.82612	0.84687	-0.069
Mof_C 	C 	0.36849	0.07879	0.95108	0.14
Mof_C 	C 	0.98994	0.39947	0.08987	-0.232
Mof_C 	C 	0.97925	0.82612	0.65193	-0.063
Mof_C 	C 	0.60893	0.35404	0.44797	-0.194
Mof_C 	C 	0.59047	0.98994	0.90007	-0.235
Mof_C 	C 	0.7233	0.71974	0.93984	0.003
Mof_C 	C 	0.40719	0.38094	0.28447	0.139
Mof_C 	C 	0.7799	0.78346	0.06016	0.015
Mof_C 	C 	0.41741	0.04892	0.12771	0.146
Mof_C 	C 	0.30131	0.71009	0.5368	0.003
Mof_C 	C 	0.7103	0.63151	0.58259	0.142
Mof_C 	C 	0.13804	0.21005	0.58901	0.123
Mof_C 	C 	0.34382	0.39676	0.24558	-0.197
Mof_C 	C 	0.52725	0.63049	0.41536	0.111
Mof_C 	C 	0.4632	0.69869	0.28991	0.003
Mof_C 	C 	0.7372	0.4209	0.1581	-0.07
Mof_C 	C 	0.98322	0.35133	0.13009	0.12
Mof_C 	C 	0.78346	0.00356	0.7233	0.028
Mof_C 	C 	0.7084	0.44009	0.20549	0.012
Mof_C 	C 	0.47829	0.86945	0.13084	-0.188
Mof_C 	C 	0.85775	0.93771	0.4317	0.534
Mof_C 	C 	0.09993	0.08987	0.6904	-0.222
Mof_C 	C 	0.0153	0.7494	0.7647	0.001
Mof_C 	C 	0.10324	0.47275	0.88811	0.111
Mof_C 	C 	0.02672	0.19514	0.33198	0.024
Mof_C 	C 	0.11189	0.58464	0.21513	0.111
Mof_C 	C 	0.33198	0.02672	0.19514	0.024
Mof_C 	C 	0.63151	0.58259	0.7103	0.142
Mof_C 	C 	0.15825	0.5164	0.87955	0.153
Mof_C 	C 	0.90176	0.24558	0.84882	-0.199
Mof_C 	C 	0.60893	0.16096	0.25489	-0.193
Mof_C 	C 	0.49399	0.57395	0.4317	0.534
Mof_C 	C 	0.13084	0.26139	0.65255	-0.187
Mof_C 	C 	0.54903	0.41099	0.62104	0.124
Mof_C 	C 	0.43197	0.35687	0.42506	0.545
Mof_C 	C 	0.41099	0.62104	0.54903	0.124
Mof_C 	C 	0.72353	0.81492	0.03665	-0.005
Mof_C 	C 	0.58464	0.47275	0.36951	0.111
Mof_C 	C 	0.09393	0.64596	0.25489	-0.193
Mof_C 	C 	0.87728	0.28447	0.90353	0.139
Mof_C 	C 	0.07996	0.14225	0.57395	0.533
Mof_C 	C 	0.90353	0.61906	0.02625	0.147
Mof_C 	C 	0.91013	0.01006	0.60053	-0.218
Mof_C 	C 	0.07071	0.30531	0.2646	-0.059
Mof_C 	C 	0.1829	0.32524	0.66214	-0.071
Mof_C 	C 	0.5791	0.8419	0.2628	-0.07
Mof_C 	C 	0.02625	0.40719	0.12272	0.146
Mof_C 	C 	0.10714	0.19032	0.59764	-0.194
Mof_C 	C 	0.67268	0.84687	0.02075	-0.071
Mof_C 	C 	0.78487	0.36951	0.89676	0.112
Mof_C 	C 	0.21654	0.99644	0.2767	-0.009
Mof_C 	C 	0.75951	0.61607	0.63964	-0.189
Mof_C 	C 	0.39107	0.83904	0.74511	-0.195
Mof_C 	C 	0.14687	0.13009	0.77876	0.137
Mof_C 	C 	0.32524	0.66214	0.1829	-0.071
Mof_C 	C 	0.5164	0.87955	0.15825	0.153
Mof_C 	C 	0.37896	0.78995	0.92799	0.124
Mof_C 	C 	0.5368	0.82671	0.23549	0.002
Mof_C 	C 	0.39116	0.52171	0.65255	-0.189
Mof_C 	C 	0.97925	0.32732	0.15313	-0.061
Mof_C 	C 	0.22124	0.85313	0.86991	0.139
Mof_C 	C 	0.90607	0.16096	0.55203	-0.194
Mof_C 	C 	0.92799	0.37896	0.78995	0.124
Mof_C 	C 	0.92004	0.85775	0.42605	0.534
Mof_C 	C 	0.08318	0.89286	0.4905	-0.195
Mof_C 	C 	0.35687	0.9249	0.93181	0.545
Mof_C 	C 	0.52644	0.84284	0.207	0.013
Mof_C 	C 	0.25334	0.79366	0.573	-0.052
Mof_C 	C 	0.72353	0.68688	0.90861	0.006
Mof_C 	C 	0.7213	0.87955	0.36315	0.154
Mof_C 	C 	0.97375	0.09647	0.38094	0.129
Mof_C 	C 	0.52076	0.33786	0.6631	-0.072
Mof_C 	C 	0.3369	0.47924	0.66214	-0.071
Mof_C 	C 	0.25489	0.09393	0.64596	-0.193
Mof_C 	C 	0.77876	0.14687	0.13009	0.137
Mof_C 	C 	0.73861	0.86945	0.39116	-0.189
Mof_C 	C 	0.0798	0.2494	0.3292	-0.064
Mof_C 	C 	0.7506	0.8304	0.0798	-0.064
Mof_C 	C 	0.5791	0.3163	0.7372	-0.07
Mof_C 	C 	0.79366	0.573	0.25334	-0.052
Mof_C 	C 	0.2346	0.04071	0.30531	-0.023
Mof_C 	C 	0.36416	0.15716	0.6836	0.014
Mof_C 	C 	0.21513	0.63049	0.10324	0.111
Mof_C 	C 	0.90007	0.59047	0.98994	-0.235
Mof_C 	C 	0.41536	0.78487	0.88811	0.111
Mof_C 	C 	0.63049	0.41536	0.52725	0.111
Mof_C 	C 	0.7341	0.9847	0.7494	-0.008
Mof_C 	C 	0.17388	0.34807	0.02075	-0.07
Mof_C 	C 	0.03665	0.72353	0.81492	-0.005
Mof_C 	C 	0.6837	0.2628	0.4209	-0.07
Mof_C 	C 	0.5683	0.14225	0.06229	0.534
Mof_C 	C 	0.68688	0.96335	0.77827	0.01
Mof_C 	C 	0.427	0.74666	0.20634	-0.051
Mof_C 	C 	0.40732	0.4905	0.59764	-0.195
Mof_C 	C 	0.16842	0.97328	0.30526	0.005
Mof_C 	C 	0.85313	0.63189	0.98322	0.12
Mof_C 	C 	0.9202	0.2494	0.1696	-0.076
Mof_C 	C 	0.54032	0.22066	0.79366	-0.051
Mof_C 	C 	0.85766	0.1829	0.52076	-0.071
Mof_C 	C 	0.02357	0.38393	0.14344	-0.172
Mof_C 	C 	0.12771	0.07879	0.7103	0.142
Mof_C 	C 	0.86945	0.39116	0.73861	-0.189
Mof_C 	C 	0.79451	0.2916	0.55991	0.012
Mof_C 	C 	0.2346	0.92929	0.19389	-0.037
Mof_C 	C 	0.66802	0.97328	0.80486	0.004
Mof_C 	C 	0.81492	0.09139	0.77827	-0.002
Mof_C 	C 	0.71974	0.99644	0.7799	-0.009
Mof_C 	C 	0.3163	0.7372	0.5791	-0.07
Mof_C 	C 	0.26831	0.7654	0.55991	0.012
Mof_C 	C 	0.40878	0.69869	0.23549	0.003
Mof_C 	C 	0.39676	0.05294	0.15118	-0.202
Mof_C 	C 	0.36315	0.4836	0.64185	0.154
Mof_C 	C 	0.38393	0.14344	0.02357	-0.172
Mof_C 	C 	0.80611	0.7354	0.04071	-0.025
Mof_C 	C 	0.2628	0.4209	0.6837	-0.07
Mof_C 	C 	0.59047	0.6904	0.60053	-0.225
Mof_C 	C 	0.02625	0.90353	0.61906	0.147
Mof_C 	C 	0.8171	0.67476	0.33786	-0.072
Mof_C 	C 	0.84687	0.02075	0.67268	-0.071
Mof_C 	C 	0.2916	0.49709	0.73169	0.012
Mof_C 	C 	0.24558	0.84882	0.90176	-0.199
Mof_C 	C 	0.2646	0.95929	0.19389	-0.072
Mof_C 	C 	0.40236	0.59268	0.5095	-0.195
Mof_C 	C 	0.55203	0.90607	0.16096	-0.194
Mof_C 	C 	0.82581	0.17388	0.15313	-0.064
Mof_C 	C 	0.30526	0.33198	0.13684	0.017
Mof_C 	C 	0.90007	0.91013	0.3096	-0.229
Mof_C 	C 	0.86991	0.01678	0.64867	0.156
Mof_C 	C 	0.01678	0.64867	0.86991	0.156
Mof_C 	C 	0.4209	0.6837	0.2628	-0.07
Mof_C 	C 	0.82612	0.84687	0.17419	-0.069
Mof_C 	C 	0.17329	0.71009	0.40878	0.003
Mof_C 	C 	0.2916	0.55991	0.79451	0.012
Mof_C 	C 	0.51615	0.25235	0.7362	-0.005
Mof_C 	C 	0.12272	0.71553	0.09647	0.137
Mof_C 	C 	0.01006	0.09993	0.40953	-0.215
Mof_C 	C 	0.80968	0.40236	0.89286	-0.197
Mof_C 	C 	0.19032	0.59764	0.10714	-0.194
Mof_C 	C 	0.9249	0.93181	0.35687	0.545
Mof_C 	C 	0.0153	0.2506	0.2659	0.001
Mof_C 	C 	0.39116	0.73861	0.86945	-0.189
Mof_C 	C 	0.90176	0.05294	0.65618	-0.203
Mof_C 	C 	0.06819	0.99309	0.42506	0.531
Mof_C 	C 	0.06229	0.92004	0.49399	0.534
Mof_C 	C 	0.65618	0.90176	0.05294	-0.203
Mof_C 	C 	0.28991	0.59122	0.82671	0.002
Mof_C 	C 	0.8304	0.0798	0.7506	-0.064
Mof_C 	C 	0.52171	0.65255	0.39116	-0.189
Mof_C 	C 	0.60324	0.94706	0.84882	-0.191
Mof_C 	C 	0.61607	0.85656	0.97643	-0.207
Mof_C 	C 	0.93181	0.00691	0.57494	0.558
Mof_C 	C 	0.33786	0.8171	0.67476	-0.072
Mof_C 	C 	0.82671	0.28991	0.59122	0.002
Mof_C 	C 	0.36951	0.89676	0.78487	0.112
Mof_C 	C 	0.24558	0.34382	0.39676	-0.197
Mof_C 	C 	0.85656	0.97643	0.61607	-0.207
Mof_C 	C 	0.41099	0.86196	0.78995	0.124
Mof_C 	C 	0.57395	0.4317	0.49399	0.534
Mof_C 	C 	0.4836	0.12045	0.84175	0.154
Mof_C 	C 	0.41536	0.52725	0.63049	0.111
Mof_C 	C 	0.59281	0.87728	0.97375	0.13
Mof_C 	C 	0.69469	0.7654	0.95929	-0.073
Mof_C 	C 	0.34807	0.17419	0.32732	-0.067
Mof_C 	C 	0.63049	0.10324	0.21513	0.111
Mof_C 	C 	0.06016	0.7799	0.78346	0.015
Mof_C 	C 	0.36951	0.58464	0.47275	0.111
Mof_C 	C 	0.31944	0.793	0.63584	0.013
Mof_C 	C 	0.91682	0.40732	0.80968	-0.197
Mof_C 	C 	0.47356	0.68056	0.3164	0.013
Mof_C 	C 	0.87955	0.15825	0.5164	0.153
Mof_C 	C 	0.34745	0.60884	0.47829	-0.189
Mof_C 	C 	0.47829	0.34745	0.60884	-0.189
Mof_C 	C 	0.25334	0.68034	0.45968	-0.051
Mof_C 	C 	0.04892	0.63151	0.92121	0.146
Mof_C 	C 	0.83904	0.74511	0.39107	-0.195
Mof_C 	C 	0.64313	0.0751	0.06819	0.544
Mof_C 	C 	0.78995	0.92799	0.37896	0.124
Mof_C 	C 	0.16096	0.55203	0.90607	-0.194
Mof_C 	C 	0.41741	0.2897	0.36849	0.144
Mof_C 	C 	0.15313	0.97925	0.32732	-0.061
Mof_C 	C 	0.6708	0.9202	0.7506	-0.077
Mof_C 	C 	0.7354	0.92929	0.69469	-0.037
Mof_C 	C 	0.25489	0.60893	0.16096	-0.193
Mof_C 	C 	0.4632	0.17329	0.76451	0.003
Mof_C 	C 	0.7494	0.7341	0.9847	-0.008
Mof_C 	C 	0.2628	0.5791	0.8419	-0.07
Mof_C 	C 	0.96335	0.27647	0.18508	0.011
Mof_C 	C 	0.3164	0.47356	0.68056	0.013
Mof_C 	C 	0.47356	0.15716	0.793	0.014
Mof_C 	C 	0.0751	0.43197	0.00691	0.558
Mof_C 	C 	0.5683	0.50601	0.42605	0.534
Mof_C 	C 	0.793	0.63584	0.31944	0.013
Mof_C 	C 	0.63964	0.75951	0.61607	-0.189
Mof_C 	C 	0.86945	0.13084	0.47829	-0.188
Mof_C 	C 	0.75951	0.11987	0.14344	-0.187
Mof_C 	C 	0.5095	0.91682	0.10714	-0.195
Mof_C 	C 	0.3292	0.0798	0.2494	-0.064
Mof_C 	C 	0.67476	0.33786	0.8171	-0.072
Mof_C 	C 	0.85313	0.86991	0.22124	0.139
Mof_C 	C 	0.207	0.52644	0.84284	0.013
Mof_C 	C 	0.14225	0.57395	0.07996	0.533
Mof_C 	C 	0.2638	0.48385	0.74765	-0.005
Mof_C 	C 	0.76451	0.59122	0.30131	0.002
Mof_C 	C 	0.94706	0.34382	0.09824	-0.189
Mof_C 	C 	0.7354	0.04071	0.80611	-0.025
Mof_C 	C 	0.38094	0.28447	0.40719	0.139
Mof_C 	C 	0.2201	0.28026	0.00356	0.029
Mof_C 	C 	0.50291	0.26831	0.7084	0.012
Mof_C 	C 	0.2494	0.1696	0.9202	-0.076
Mof_C 	C 	0.62104	0.21005	0.07201	0.124
Mof_C 	C 	0.87229	0.92121	0.2897	0.144
Mof_C 	C 	0.06819	0.64313	0.0751	0.544
Mof_C 	C 	0.80968	0.91682	0.40732	-0.197
Mof_C 	C 	0.32732	0.15313	0.97925	-0.061
Mof_C 	C 	0.15825	0.2787	0.64185	0.153
Mof_C 	C 	0.35687	0.42506	0.43197	0.545
Mof_C 	C 	0.80486	0.83158	0.13684	0.016
Mof_C 	C 	0.39947	0.40953	0.3096	-0.225
Mof_C 	C 	0.47924	0.66214	0.3369	-0.071
Mof_C 	C 	0.42605	0.92004	0.85775	0.534
Mof_C 	C 	0.22124	0.35133	0.36811	0.14
Mof_C 	C 	0.40732	0.80968	0.91682	-0.197
Mof_C 	C 	0.59764	0.40732	0.4905	-0.195
Mof_C 	C 	0.5095	0.40236	0.59268	-0.195
Mof_C 	C 	0.13009	0.77876	0.14687	0.137
Mof_C 	C 	0.82581	0.67268	0.65193	-0.066
Mof_C 	C 	0.2494	0.3292	0.0798	-0.064
Mof_C 	C 	0.65193	0.82581	0.67268	-0.066
Mof_C 	C 	0.77934	0.31966	0.573	-0.052
Mof_C 	C 	0.69469	0.7354	0.92929	-0.037
Mof_C 	C 	0.59764	0.10714	0.19032	-0.194
Mof_C 	C 	0.03665	0.22173	0.31312	-0.004
Mof_C 	C 	0.7362	0.51615	0.25235	-0.005
Mof_C 	C 	0.77827	0.81492	0.09139	-0.002
Mof_C 	C 	0.02075	0.67268	0.84687	-0.071
Mof_C 	C 	0.45097	0.07201	0.86196	0.124
Mof_C 	C 	0.40953	0.3096	0.39947	-0.225
Mof_C 	C 	0.77876	0.64867	0.63189	0.137
Mof_C 	C 	0.04892	0.12771	0.41741	0.146
Mof_C 	C 	0.15118	0.09824	0.75442	-0.193
Mof_C 	C 	0.64185	0.15825	0.2787	0.153
Mof_C 	C 	0.97328	0.30526	0.16842	0.005
Mof_C 	C 	0.27647	0.31312	0.09139	-0.001
Mof_C 	C 	0.10714	0.5095	0.91682	-0.195
Mof_C 	C 	0.31944	0.6836	0.52644	0.013
Mof_C 	C 	0.45968	0.77934	0.20634	-0.051
Mof_C 	C 	0.34807	0.02075	0.17388	-0.07
Mof_C 	C 	0.2897	0.36849	0.41741	0.144
Mof_C 	C 	0.78487	0.88811	0.41536	0.111
Mof_C 	C 	0.6904	0.60053	0.59047	-0.225
Mof_C 	C 	0.06016	0.2767	0.28026	0.016
Mof_C 	C 	0.58464	0.21513	0.11189	0.111
Mof_C 	C 	0.36811	0.01678	0.14687	0.157
Mof_C 	C 	0.49399	0.06229	0.92004	0.534
Mof_C 	C 	0.60884	0.47829	0.34745	-0.189
Mof_C 	C 	0.92799	0.13804	0.54903	0.123
Mof_C 	C 	0.7494	0.7647	0.0153	0.001
Mof_C 	C 	0.35815	0.84175	0.7213	0.154
Mof_C 	C 	0.10324	0.21513	0.63049	0.111
Mof_C 	C 	0.00691	0.0751	0.43197	0.558
Mof_C 	C 	0.21005	0.58901	0.13804	0.123
Mof_C 	C 	0.71009	0.5368	0.30131	0.003
Mof_C 	C 	0.86316	0.19514	0.16842	0.012
Mof_C 	C 	0.14344	0.02357	0.38393	-0.172
Mof_C 	C 	0.83158	0.13684	0.80486	0.016
Mof_C 	C 	0.11189	0.89676	0.52725	0.112
Mof_C 	C 	0.97643	0.11987	0.36036	-0.205
Mof_C 	C 	0.95108	0.36849	0.07879	0.14
Mof_C 	C 	0.58901	0.13804	0.21005	0.123
Mof_C 	C 	0.73861	0.34745	0.86916	-0.19
Mof_C 	C 	0.93984	0.7233	0.71974	0.003
Mof_C 	C 	0.7654	0.95929	0.69469	-0.073
Mof_C 	C 	0.49709	0.73169	0.2916	0.012
Mof_C 	C 	0.89676	0.78487	0.36951	0.112
Mof_C 	C 	0.57494	0.56803	0.64313	0.545
Mof_C 	C 	0.86316	0.69474	0.66802	0.011
Mof_C 	C 	0.84882	0.90176	0.24558	-0.199
Mof_C 	C 	0.75442	0.15118	0.09824	-0.193
Mof_C 	C 	0.7654	0.07071	0.80611	-0.06
Mof_C 	C 	0.17388	0.15313	0.82581	-0.064
Mof_C 	C 	0.573	0.77934	0.31966	-0.052
Mof_C 	C 	0.04071	0.80611	0.7354	-0.025
Mof_C 	C 	0.65193	0.97925	0.82612	-0.063
Mof_C 	C 	0.12771	0.41741	0.04892	0.146
Mof_C 	C 	0.84175	0.7213	0.35815	0.154
Mof_C 	C 	0.60324	0.75442	0.65618	-0.196
Mof_C 	C 	0.14234	0.8171	0.47924	-0.072
Mof_C 	C 	0.42506	0.06819	0.99309	0.531
Mof_C 	C 	0.39947	0.08987	0.98994	-0.232
Mof_C 	C 	0.63685	0.5164	0.35815	0.154
Mof_C 	C 	0.97328	0.80486	0.66802	0.004
Mof_C 	C 	0.88811	0.10324	0.47275	0.111
Mof_C 	C 	0.64867	0.63189	0.77876	0.137
Mof_C 	C 	0.89286	0.4905	0.08318	-0.195
Mof_C 	C 	0.4209	0.1581	0.7372	-0.07
Mof_C 	C 	0.00691	0.57494	0.93181	0.558
Mof_C 	C 	0.7084	0.50291	0.26831	0.012
Mof_C 	C 	0.97375	0.59281	0.87728	0.13
Mof_C 	C 	0.52076	0.85766	0.1829	-0.071
Mof_C 	C 	0.6631	0.52076	0.33786	-0.072
Mof_C 	C 	0.71553	0.59281	0.61906	0.137
Mof_C 	C 	0.68056	0.207	0.36416	0.013
Mof_C 	C 	0.40719	0.12272	0.02625	0.146
Mof_C 	C 	0.52644	0.31944	0.6836	0.013
Mof_C 	C 	0.47924	0.14234	0.8171	-0.072
Mof_C 	C 	0.0798	0.7506	0.8304	-0.064
Mof_C 	C 	0.55203	0.39107	0.64596	-0.194
Mof_C 	C 	0.26139	0.65255	0.13084	-0.187
Mof_C 	C 	0.6836	0.36416	0.15716	0.014
Mof_C 	C 	0.74666	0.20634	0.427	-0.051
Mof_C 	C 	0.40953	0.01006	0.09993	-0.215
Mof_C 	C 	0.09824	0.75442	0.15118	-0.193
Mof_C 	C 	0.06229	0.5683	0.14225	0.534
Mof_C 	C 	0.49709	0.20549	0.7654	0.012
Mof_C 	C 	0.09824	0.94706	0.34382	-0.189
Mof_C 	C 	0.793	0.47356	0.15716	0.014
Mof_C 	C 	0.55991	0.26831	0.7654	0.012
Mof_C 	C 	0.93771	0.4317	0.85775	0.534
Mof_C 	C 	0.18508	0.90861	0.22173	0.007
Mof_C 	C 	0.45968	0.25334	0.68034	-0.051
Mof_C 	C 	0.96335	0.77827	0.68688	0.01
Mof_C 	C 	0.73169	0.2916	0.49709	0.012
Mof_C 	C 	0.42605	0.5683	0.50601	0.534
Mof_C 	C 	0.6631	0.32524	0.14234	-0.071
Mof_C 	C 	0.2767	0.28026	0.06016	0.016
Mof_C 	C 	0.7213	0.35815	0.84175	0.154
Mof_C 	C 	0.01678	0.14687	0.36811	0.157
Mof_C 	C 	0.12045	0.84175	0.4836	0.154
Mof_C 	C 	0.58901	0.37896	0.45097	0.124
Mof_C 	C 	0.56803	0.64313	0.57494	0.545
Mof_C 	C 	0.39107	0.64596	0.55203	-0.194
Mof_C 	C 	0.36811	0.22124	0.35133	0.14
Mof_C 	C 	0.2767	0.21654	0.99644	-0.009
Mof_C 	C 	0.86916	0.73861	0.34745	-0.19
Mof_C 	C 	0.04071	0.30531	0.2346	-0.023
Mof_C 	C 	0.67476	0.85766	0.3369	-0.072
Mof_C 	C 	0.22173	0.18508	0.90861	0.007
Mof_C 	C 	0.68034	0.45968	0.25334	-0.051
Mof_C 	C 	0.02357	0.88013	0.63964	-0.174
Mof_C 	C 	0.19032	0.08318	0.59268	-0.194
Mof_C 	C 	0.2346	0.44009	0.73169	0.012
Mof_C 	C 	0.63151	0.92121	0.04892	0.146
Mof_C 	C 	0.66214	0.3369	0.47924	-0.071
Mof_C 	C 	0.89676	0.52725	0.11189	0.112
Mof_C 	C 	0.38094	0.97375	0.09647	0.129
Mof_C 	C 	0.07201	0.86196	0.45097	0.124
Mof_C 	C 	0.40236	0.89286	0.80968	-0.197
Mof_C 	C 	0.20549	0.7654	0.49709	0.012
Mof_C 	C 	0.64185	0.36315	0.4836	0.154
Mof_C 	C 	0.11987	0.14344	0.75951	-0.187
Mof_C 	C 	0.93771	0.07996	0.50601	0.533
Mof_C 	C 	0.63189	0.98322	0.85313	0.12
Mof_C 	C 	0.60884	0.26139	0.13055	-0.188
Mof_C 	C 	0.83904	0.44797	0.09393	-0.194
Mof_C 	C 	0.12272	0.02625	0.40719	0.146
Mof_C 	C 	0.92929	0.19389	0.2346	-0.037
Mof_C 	C 	0.86196	0.78995	0.41099	0.124
Mof_C 	C 	0.07879	0.7103	0.12771	0.142
Mof_C 	C 	0.50601	0.42605	0.5683	0.534
Mof_C 	C 	0.50601	0.93771	0.07996	0.533
Mof_C 	C 	0.91682	0.10714	0.5095	-0.195
Mof_C 	C 	0.44797	0.09393	0.83904	-0.194
Mof_C 	C 	0.26831	0.7084	0.50291	0.012
Mof_C 	C 	0.13055	0.86916	0.52171	-0.189
Mof_C 	C 	0.32524	0.14234	0.6631	-0.071
Mof_C 	C 	0.84284	0.207	0.52644	0.013
Mof_C 	C 	0.19514	0.16842	0.86316	0.012
Mof_C 	C 	0.80611	0.7654	0.07071	-0.06
Mof_C 	C 	0.80486	0.66802	0.97328	0.004
Mof_C 	C 	0.9847	0.7494	0.7341	-0.008
Mof_C 	C 	0.79366	0.54032	0.22066	-0.051
Mof_C 	C 	0.88811	0.41536	0.78487	0.111
Mof_C 	C 	0.00356	0.2201	0.28026	0.029
Mof_C 	C 	0.16842	0.86316	0.19514	0.012
Mof_C 	C 	0.91013	0.3096	0.90007	-0.229
Mof_C 	C 	0.32732	0.34807	0.17419	-0.067
Mof_C 	C 	0.44009	0.73169	0.2346	0.012
Mof_C 	C 	0.8419	0.2628	0.5791	-0.07
Mof_C 	C 	0.74666	0.31966	0.54032	-0.051
Mof_C 	C 	0.21005	0.07201	0.62104	0.124
Mof_C 	C 	0.90353	0.87728	0.28447	0.139
Mof_C 	C 	0.2201	0.21654	0.93984	0.003
Mof_C 	C 	0.89286	0.80968	0.40236	-0.197
Mof_C 	C 	0.65618	0.60324	0.75442	-0.196
Mof_C 	C 	0.68056	0.3164	0.47356	0.013
Mof_C 	C 	0.7654	0.55991	0.26831	0.012
Mof_C 	C 	0.07879	0.95108	0.36849	0.14
Mof_C 	C 	0.40878	0.17329	0.71009	0.003
Mof_C 	C 	0.28447	0.40719	0.38094	0.139
Mof_C 	C 	0.1696	0.9202	0.2494	-0.076
Mof_C 	C 	0.88013	0.63964	0.02357	-0.174
Mof_C 	C 	0.17329	0.76451	0.4632	0.003
Mof_C 	C 	0.8171	0.47924	0.14234	-0.072
Mof_C 	C 	0.90607	0.35404	0.74511	-0.195
Mof_C 	C 	0.85775	0.42605	0.92004	0.534
Mof_C 	C 	0.34745	0.86916	0.73861	-0.19
Mof_C 	C 	0.36036	0.24049	0.38393	-0.19
Mof_C 	C 	0.573	0.25334	0.79366	-0.052
Mof_C 	C 	0.00356	0.7233	0.78346	0.028
Mof_C 	C 	0.63964	0.02357	0.88013	-0.174
Mof_C 	C 	0.36416	0.68056	0.207	0.013
Mof_C 	C 	0.13055	0.60884	0.26139	-0.188
Mof_C 	C 	0.92121	0.2897	0.87229	0.144
Mof_C 	C 	0.95108	0.87229	0.58259	0.14
Mof_C 	C 	0.68688	0.90861	0.72353	0.006
Mof_C 	C 	0.22005	0.7362	0.48385	-0.005
Mof_C 	C 	0.7372	0.5791	0.3163	-0.07
Mof_C 	C 	0.02672	0.69474	0.83158	0.023
Mof_C 	C 	0.9249	0.56803	0.99309	0.532
Mof_C 	C 	0.63685	0.2787	0.12045	0.154
Mof_C 	C 	0.5164	0.35815	0.63685	0.154
Mof_C 	C 	0.2506	0.2353	0.9847	-0.008
Mof_C 	C 	0.14225	0.06229	0.5683	0.534
Mof_C 	C 	0.7647	0.0153	0.7494	0.001
Mof_C 	C 	0.86196	0.45097	0.07201	0.124
Mof_C 	C 	0.21513	0.11189	0.58464	0.111
Mof_C 	C 	0.59268	0.5095	0.40236	-0.195
Mof_C 	C 	0.2353	0.9847	0.2506	-0.008
Mof_C 	C 	0.59122	0.82671	0.28991	0.002
Mof_C 	C 	0.28026	0.00356	0.2201	0.029
Mof_C 	C 	0.99644	0.7799	0.71974	-0.009
Mof_C 	C 	0.31312	0.09139	0.27647	-0.001
Mof_C 	C 	0.78995	0.41099	0.86196	0.124
Mof_C 	C 	0.59281	0.61906	0.71553	0.137
Mof_C 	C 	0.28447	0.90353	0.87728	0.139
Mof_C 	C 	0.60053	0.91013	0.01006	-0.218
Mof_C 	C 	0.54032	0.74666	0.31966	-0.051
Mof_C 	C 	0.78346	0.06016	0.7799	0.015
Mof_C 	C 	0.15313	0.82581	0.17388	-0.064
Mof_C 	C 	0.81492	0.03665	0.72353	-0.005
Mof_C 	C 	0.58259	0.95108	0.87229	0.14
Mof_C 	C 	0.90861	0.22173	0.18508	0.007
Mof_C 	C 	0.19514	0.33198	0.02672	0.024
Mof_C 	C 	0.97643	0.61607	0.85656	-0.207
Mof_C 	C 	0.07071	0.80611	0.7654	-0.06
Mof_C 	C 	0.4905	0.59764	0.40732	-0.195
Mof_C 	C 	0.3164	0.63584	0.84284	0.013
Mof_C 	C 	0.95929	0.69469	0.7654	-0.073
Mof_C 	C 	0.99644	0.2767	0.21654	-0.009
Mof_C 	C 	0.84687	0.17419	0.82612	-0.069
Mof_C 	C 	0.02075	0.17388	0.34807	-0.07
Mof_C 	C 	0.36036	0.97643	0.11987	-0.205
Mof_C 	C 	0.35133	0.13009	0.98322	0.12
Mof_C 	C 	0.47275	0.36951	0.58464	0.111
Mof_C 	C 	0.69869	0.28991	0.4632	0.003
Mof_C 	C 	0.64596	0.25489	0.09393	-0.193
Mof_C 	C 	0.9847	0.2506	0.2353	-0.008
Mof_C 	C 	0.39676	0.24558	0.34382	-0.197
Mof_C 	C 	0.11987	0.36036	0.97643	-0.205
Mof_C 	C 	0.65255	0.39116	0.52171	-0.189
Mof_C 	C 	0.7362	0.48385	0.22005	-0.005
Mof_C 	C 	0.69474	0.83158	0.02672	0.023
Mof_C 	C 	0.0751	0.06819	0.64313	0.544
Mof_C 	C 	0.28026	0.06016	0.2767	0.016
Mof_C 	C 	0.31966	0.573	0.77934	-0.052
Mof_C 	C 	0.56803	0.99309	0.9249	0.532
Mof_C 	C 	0.85766	0.3369	0.67476	-0.072
Mof_C 	C 	0.61607	0.63964	0.75951	-0.189
Mof_C 	C 	0.7506	0.6708	0.9202	-0.077
Mof_C 	C 	0.13084	0.47829	0.86945	-0.188
Mof_C 	C 	0.42506	0.43197	0.35687	0.545
Mof_C 	C 	0.54903	0.92799	0.13804	0.123
Mof_C 	C 	0.38393	0.36036	0.24049	-0.19
Mof_C 	C 	0.44009	0.20549	0.7084	0.012
Mof_C 	C 	0.7654	0.49709	0.20549	0.012
Mof_C 	C 	0.15716	0.793	0.47356	0.014
Mof_C 	C 	0.63584	0.84284	0.3164	0.013
Mof_C 	C 	0.15716	0.6836	0.36416	0.014
Mof_C 	C 	0.48385	0.74765	0.2638	-0.005
Mof_C 	C 	0.44797	0.60893	0.35404	-0.194
Mof_C 	C 	0.207	0.36416	0.68056	0.013
Mof_C 	C 	0.58259	0.7103	0.63151	0.142
Mof_C 	C 	0.20634	0.45968	0.77934	-0.051
Mof_C 	C 	0.86916	0.52171	0.13055	-0.189
Mof_C 	C 	0.82612	0.65193	0.97925	-0.063
Mof_C 	C 	0.75442	0.65618	0.60324	-0.196
Mof_C 	C 	0.73169	0.2346	0.44009	0.012
Mof_C 	C 	0.83158	0.02672	0.69474	0.023
Mof_C 	C 	0.59268	0.19032	0.08318	-0.194
Mof_C 	C 	0.28991	0.4632	0.69869	0.003
Mof_C 	C 	0.61906	0.02625	0.90353	0.147
Mof_C 	C 	0.24049	0.38393	0.36036	-0.19
Mof_C 	C 	0.7799	0.71974	0.99644	-0.009
Mof_C 	C 	0.2646	0.07071	0.30531	-0.059
Mof_C 	C 	0.30531	0.2346	0.04071	-0.023
Mof_C 	C 	0.35133	0.36811	0.22124	0.14
Mof_C 	C 	0.22173	0.31312	0.03665	-0.004
Mof_C 	C 	0.86991	0.22124	0.85313	0.139
Mof_C 	C 	0.1581	0.7372	0.4209	-0.07
Mof_C 	C 	0.21654	0.93984	0.2201	0.003
Mof_C 	C 	0.08987	0.6904	0.09993	-0.222
Mof_C 	C 	0.52171	0.13055	0.86916	-0.189
Mof_C 	C 	0.1829	0.52076	0.85766	-0.071
Mof_C 	C 	0.13684	0.80486	0.83158	0.016
Mof_C 	C 	0.2897	0.87229	0.92121	0.144
Mof_C 	C 	0.35404	0.44797	0.60893	-0.194
Mof_C 	C 	0.2506	0.2659	0.0153	0.001
Mof_C 	C 	0.35815	0.63685	0.5164	0.154
Mof_C 	C 	0.84284	0.3164	0.63584	0.013
Mof_C 	C 	0.3369	0.67476	0.85766	-0.072
Mof_C 	C 	0.77995	0.2638	0.51615	-0.005
Mof_C 	C 	0.62104	0.54903	0.41099	0.124
Mof_C 	C 	0.93181	0.35687	0.9249	0.545
Mof_C 	C 	0.93984	0.2201	0.21654	0.003
Mof_C 	C 	0.64596	0.55203	0.39107	-0.194
Mof_C 	C 	0.98322	0.85313	0.63189	0.12
Mof_C 	C 	0.3096	0.90007	0.91013	-0.229
Mof_C 	C 	0.20549	0.7084	0.44009	0.012
Mof_C 	C 	0.68034	0.427	0.22066	-0.051
Mof_C 	C 	0.09139	0.27647	0.31312	-0.001
Mof_C 	C 	0.4317	0.49399	0.57395	0.534
Mof_C 	C 	0.34382	0.09824	0.94706	-0.189
Mof_C 	C 	0.94706	0.84882	0.60324	-0.191
Mof_C 	C 	0.25235	0.7362	0.51615	-0.005
Mof_C 	C 	0.33198	0.13684	0.30526	0.017
Mof_C 	C 	0.84882	0.60324	0.94706	-0.191
Mof_C 	C 	0.17419	0.32732	0.34807	-0.067
Mof_C 	C 	0.92121	0.04892	0.63151	0.146
Mof_C 	C 	0.6836	0.52644	0.31944	0.013
Mof_C 	C 	0.24049	0.88013	0.85656	-0.192
Mof_C 	C 	0.4317	0.85775	0.93771	0.534
Mof_C 	C 	0.92929	0.69469	0.7354	-0.037
Mof_C 	C 	0.9202	0.7506	0.6708	-0.077
Mof_C 	C 	0.87955	0.36315	0.7213	0.154
Mof_C 	C 	0.82671	0.23549	0.5368	0.002
Mof_C 	C 	0.98994	0.90007	0.59047	-0.235
Mof_C 	C 	0.19389	0.2346	0.92929	-0.037
Mof_C 	C 	0.59122	0.30131	0.76451	0.002
Mof_C 	C 	0.30131	0.76451	0.59122	0.002
Mof_C 	C 	0.05294	0.65618	0.90176	-0.203
Mof_C 	C 	0.87229	0.58259	0.95108	0.14
Mof_C 	C 	0.64867	0.86991	0.01678	0.156
Mof_C 	C 	0.01006	0.60053	0.91013	-0.218
Mof_C 	C 	0.22066	0.68034	0.427	-0.051
Mof_C 	C 	0.6904	0.09993	0.08987	-0.222
Mof_C 	C 	0.74511	0.90607	0.35404	-0.195
Mof_C 	C 	0.30531	0.2646	0.07071	-0.059
Mof_C 	C 	0.77827	0.68688	0.96335	0.01
Mof_C 	C 	0.23549	0.40878	0.69869	0.003
Mof_C 	C 	0.47275	0.88811	0.10324	0.111
Mof_C 	C 	0.71974	0.93984	0.7233	0.003
Mof_C 	C 	0.60053	0.59047	0.6904	-0.225
Mof_C 	C 	0.2787	0.64185	0.15825	0.153
Mof_C 	C 	0.09139	0.77827	0.81492	-0.002
Mof_C 	C 	0.23549	0.5368	0.82671	0.002
Mof_C 	C 	0.99309	0.42506	0.06819	0.531
Mof_C 	C 	0.2787	0.12045	0.63685	0.154
Mof_C 	C 	0.33786	0.6631	0.52076	-0.072
Mof_C 	C 	0.26139	0.13055	0.60884	-0.188
Mof_C 	C 	0.90861	0.72353	0.68688	0.006
Mof_C 	C 	0.09993	0.40953	0.01006	-0.215
Mof_C 	C 	0.4905	0.08318	0.89286	-0.195
Mof_C 	C 	0.20634	0.427	0.74666	-0.051
Mof_C 	C 	0.15118	0.39676	0.05294	-0.202
Mof_C 	C 	0.18508	0.96335	0.27647	0.011
Mof_C 	C 	0.48385	0.22005	0.7362	-0.005
Mof_C 	C 	0.69869	0.23549	0.40878	0.003
Mof_C 	C 	0.13804	0.54903	0.92799	0.123
Mof_C 	C 	0.63584	0.31944	0.793	0.013
Mof_C 	C 	0.3096	0.39947	0.40953	-0.225
Mof_C 	C 	0.65255	0.13084	0.26139	-0.187
Mof_C 	C 	0.13009	0.98322	0.35133	0.12
Mof_C 	C 	0.09647	0.38094	0.97375	0.129
Mof_C 	C 	0.67268	0.65193	0.82581	-0.066
Mof_C 	C 	0.84175	0.4836	0.12045	0.154
Mof_C 	C 	0.09647	0.12272	0.71553	0.137
Mof_C 	C 	0.74765	0.2638	0.48385	-0.005
Mof_C 	C 	0.2638	0.51615	0.77995	-0.005
Mof_C 	C 	0.71009	0.40878	0.17329	0.003
Mof_C 	C 	0.71553	0.09647	0.12272	0.137
Mof_C 	C 	0.36849	0.41741	0.2897	0.144
Mof_C 	C 	0.08318	0.59268	0.19032	-0.194
Mof_C 	C 	0.30526	0.16842	0.97328	0.005
Mof_C 	C 	0.63189	0.77876	0.64867	0.137
Mof_C 	C 	0.7103	0.12771	0.07879	0.142
Mof_C 	C 	0.22066	0.79366	0.54032	-0.051
Mof_C 	C 	0.43197	0.00691	0.0751	0.558
Mof_C 	C 	0.95929	0.19389	0.2646	-0.072
Mof_C 	C 	0.74511	0.39107	0.83904	-0.195
Mof_C 	C 	0.99309	0.9249	0.56803	0.532
Mof_C 	C 	0.09393	0.83904	0.44797	-0.194
Mof_C 	C 	0.05294	0.15118	0.39676	-0.202
Mof_C 	C 	0.57494	0.93181	0.00691	0.558
Mof_C 	C 	0.427	0.22066	0.68034	-0.051
Mof_C 	C 	0.7233	0.78346	0.00356	0.028
Mof_C 	C 	0.64313	0.57494	0.56803	0.545
Mof_C 	C 	0.07201	0.62104	0.21005	0.124
Mof_C 	C 	0.79451	0.2346	0.50291	0.012
Mof_C 	C 	0.13684	0.30526	0.33198	0.017
Mof_C 	C 	0.88013	0.85656	0.24049	-0.192
Mof_C 	C 	0.50291	0.79451	0.2346	0.012
Mof_C 	C 	0.52725	0.11189	0.89676	0.112
Mof_C 	C 	0.27647	0.18508	0.96335	0.011
Mof_C 	C 	0.07996	0.50601	0.93771	0.533
Mof_C 	C 	0.77934	0.20634	0.45968	-0.051
Mof_C 	C 	0.14234	0.6631	0.32524	-0.071
Mof_C 	C 	0.35404	0.74511	0.90607	-0.195
Mof_C 	C 	0.45097	0.58901	0.37896	0.124
Mof_C 	C 	0.2659	0.0153	0.2506	0.001
Mof_C 	C 	0.57395	0.07996	0.14225	0.533
Mof_C 	C 	0.51615	0.77995	0.2638	-0.005
Mof_C 	C 	0.37896	0.45097	0.58901	0.124
Mof_C 	C 	0.69474	0.66802	0.86316	0.011
Mof_C 	C 	0.31312	0.03665	0.22173	-0.004
Mof_C 	C 	0.31966	0.54032	0.74666	-0.051
Mof_O 	O 	-2.13156e-17	0	0.44466	-1.218
Mof_O 	O 	0.45777	0.5314	0.58393	-0.647
Mof_O 	O 	0.5314	0.07363	0.94747	-0.648
Mof_O 	O 	0.94733	0.00484	0.50249	-1.235
Mof_O 	O 	0.94249	0.94733	0.44484	-1.245
Mof_O 	O 	0.6267	0.05015	0.08023	-0.637
Mof_O 	O 	0.62272	0.08073	0.03823	-0.645
Mof_O 	O 	0.45423	0.57669	0.54164	-0.647
Mof_O 	O 	0.45801	0.37728	0.41551	-0.649
Mof_O 	O 	0.45836	0.54577	0.42331	-0.647
Mof_O 	O 	0.05751	0.05267	0.55516	-1.234
Mof_O 	O 	0.6267	0.54647	0.57655	-0.64
Mof_O 	O 	0.3733	0.45353	0.42345	-0.64
Mof_O 	O 	0.99516	0.94249	0.49765	-1.248
Mof_O 	O 	0.92637	0.45777	0.87384	-0.649
Mof_O 	O 	0.03008	0.45353	0.08023	-0.628
Mof_O 	O 	0.57669	0.12246	0.03505	-0.643
Mof_O 	O 	0.41551	0.45801	0.37728	-0.649
Mof_O 	O 	0.49751	0.05267	0.99516	-1.244
Mof_O 	O 	0.55516	0.05751	0.05267	-1.234
Mof_O 	O 	0.12246	0.54577	0.08741	-0.647
Mof_O 	O 	0.87384	0.92637	0.45777	-0.649
Mof_O 	O 	0.45353	0.42345	0.3733	-0.64
Mof_O 	O 	0.05015	0.42345	0.96992	-0.65
Mof_O 	O 	0.44484	0.49751	0.50235	-1.238
Mof_O 	O 	0.05751	0.50235	0.00484	-1.23
Mof_O 	O 	0.96177	0.0425	0.58449	-0.656
Mof_O 	O 	0.03505	0.91259	0.45836	-0.643
Mof_O 	O 	0.44484	0.94249	0.94733	-1.245
Mof_O 	O 	0.96992	0.54647	0.91977	-0.654
Mof_O 	O 	0.0425	0.58449	0.96177	-0.656
Mof_O 	O 	0.42331	0.87754	0.96495	-0.652
Mof_O 	O 	0.87384	0.41607	0.94747	-0.65
Mof_O 	O 	0.45801	0.0425	0.08073	-0.65
Mof_O 	O 	0.54577	0.42331	0.45836	-0.647
Mof_O 	O 	0.05267	0.99516	0.49751	-1.244
Mof_O 	O 	0.08023	0.03008	0.45353	-0.628
Mof_O 	O 	0.94747	0.5314	0.07363	-0.648
Mof_O 	O 	0.54647	0.91977	0.96992	-0.654
Mof_O 	O 	0.12246	0.03505	0.57669	-0.643
Mof_O 	O 	0.54199	0.62272	0.58449	-0.649
Mof_O 	O 	-2.13156e-17	0.44466	-0	-1.218
Mof_O 	O 	0.4686	0.41607	0.54223	-0.647
Mof_O 	O 	0.57669	0.54164	0.45423	-0.647
Mof_O 	O 	0.58449	0.96177	0.0425	-0.656
Mof_O 	O 	1.06578e-17	0	0.55534	-1.218
Mof_O 	O 	0.42331	0.45836	0.54577	-0.647
Mof_O 	O 	0.08741	0.12246	0.54577	-0.647
Mof_O 	O 	0.49751	0.50235	0.44484	-1.238
Mof_O 	O 	0.94249	0.49765	0.99516	-1.248
Mof_O 	O 	0.41607	0.94747	0.87384	-0.65
Mof_O 	O 	0.91927	0.54199	0.9575	-0.65
Mof_O 	O 	0.12616	0.58393	0.05253	-0.644
Mof_O 	O 	0.91259	0.87754	0.45423	-0.648
Mof_O 	O 	0.96177	0.37728	0.91927	-0.656
Mof_O 	O 	0.57655	0.03008	0.94985	-0.633
Mof_O 	O 	0.5314	0.58393	0.45777	-0.647
Mof_O 	O 	0.58393	0.05253	0.12616	-0.644
Mof_O 	O 	0.44466	0	-0	-1.218
Mof_O 	O 	0.08073	0.45801	0.0425	-0.65
Mof_O 	O 	0.49765	0.55516	0.50249	-1.238
Mof_O 	O 	0.05253	0.12616	0.58393	-0.644
Mof_O 	O 	0.92637	0.05253	0.4686	-0.646
Mof_O 	O 	0.54647	0.57655	0.6267	-0.64
Mof_O 	O 	0.03823	0.62272	0.08073	-0.645
Mof_O 	O 	0.91259	0.45836	0.03505	-0.643
Mof_O 	O 	0.91977	0.96992	0.54647	-0.654
Mof_O 	O 	0.41607	0.54223	0.4686	-0.647
Mof_O 	O 	0.45836	0.03505	0.91259	-0.643
Mof_O 	O 	0.07363	0.54223	0.12616	-0.645
Mof_O 	O 	0.42345	0.96992	0.05015	-0.65
Mof_O 	O 	0.94747	0.87384	0.41607	-0.65
Mof_O 	O 	0.00484	0.05751	0.50235	-1.23
Mof_O 	O 	0.96992	0.05015	0.42345	-0.65
Mof_O 	O 	0.87754	0.96495	0.42331	-0.652
Mof_O 	O 	0.42345	0.3733	0.45353	-0.64
Mof_O 	O 	0.50235	0.44484	0.49751	-1.238
Mof_O 	O 	0.12616	0.07363	0.54223	-0.645
Mof_O 	O 	0.00484	0.50249	0.94733	-1.235
Mof_O 	O 	0.9575	0.91927	0.54199	-0.65
Mof_O 	O 	0.94985	0.91977	0.3733	-0.646
Mof_O 	O 	0.96495	0.08741	0.54164	-0.652
Mof_O 	O 	0.4686	0.92637	0.05253	-0.646
Mof_O 	O 	0.55516	0.50249	0.49765	-1.238
Mof_O 	O 	0.44466	0.44466	0.44466	-1.233
Mof_O 	O 	0.03823	0.9575	0.41551	-0.645
Mof_O 	O 	-4.26311e-17	0.55534	-0	-1.218
Mof_O 	O 	0.94733	0.44484	0.94249	-1.245
Mof_O 	O 	0.49765	0.99516	0.94249	-1.248
Mof_O 	O 	0.87754	0.45423	0.91259	-0.648
Mof_O 	O 	0.58449	0.54199	0.62272	-0.649
Mof_O 	O 	0.45777	0.87384	0.92637	-0.649
Mof_O 	O 	0.62272	0.58449	0.54199	-0.649
Mof_O 	O 	0.50249	0.49765	0.55516	-1.238
Mof_O 	O 	0.54577	0.08741	0.12246	-0.647
Mof_O 	O 	0.08023	0.6267	0.05015	-0.637
Mof_O 	O 	0.91977	0.3733	0.94985	-0.646
Mof_O 	O 	0.57655	0.6267	0.54647	-0.64
Mof_O 	O 	0.54223	0.12616	0.07363	-0.645
Mof_O 	O 	0.03505	0.57669	0.12246	-0.643
Mof_O 	O 	0.58393	0.45777	0.5314	-0.647
Mof_O 	O 	0.54199	0.9575	0.91927	-0.65
Mof_O 	O 	0.50235	0.00484	0.05751	-1.23
Mof_O 	O 	0.05015	0.08023	0.6267	-0.637
Mof_O 	O 	0.3733	0.94985	0.91977	-0.646
Mof_O 	O 	0.41551	0.03823	0.9575	-0.645
Mof_O 	O 	0.03008	0.94985	0.57655	-0.633
Mof_O 	O 	0.55534	0	-0	-1.218
Mof_O 	O 	0.05267	0.55516	0.05751	-1.234
Mof_O 	O 	0.50249	0.94733	0.00484	-1.235
Mof_O 	O 	0.45353	0.08023	0.03008	-0.628
Mof_O 	O 	0.54164	0.45423	0.57669	-0.647
Mof_O 	O 	0.37728	0.41551	0.45801	-0.649
Mof_O 	O 	0.96495	0.42331	0.87754	-0.652
Mof_O 	O 	0.37728	0.91927	0.96177	-0.656
Mof_O 	O 	0.08741	0.54164	0.96495	-0.652
Mof_O 	O 	0.94985	0.57655	0.03008	-0.633
Mof_O 	O 	0.08073	0.03823	0.62272	-0.645
Mof_O 	O 	0.05253	0.4686	0.92637	-0.646
Mof_O 	O 	0.54223	0.4686	0.41607	-0.647
Mof_O 	O 	0.9575	0.41551	0.03823	-0.645
Mof_O 	O 	0.91927	0.96177	0.37728	-0.656
Mof_O 	O 	0.99516	0.49751	0.05267	-1.244
Mof_O 	O 	0.45423	0.91259	0.87754	-0.648
Mof_O 	O 	0.07363	0.94747	0.5314	-0.648
Mof_O 	O 	0.0425	0.08073	0.45801	-0.65
Mof_O 	O 	0.55534	0.55534	0.55534	-1.233
Mof_O 	O 	0.54164	0.96495	0.08741	-0.652
_end
