data_functionalizedCrystal
_audit_creation_method	'EQeq! by Chris Wilmer'
_symmetry_space_group_name_H-M	'P1'
_symmetry_Int_Tables_number	1
_symmetry_cell_setting	triclinic
loop_
_symmetry_equiv_pos_as_xyz
  x,y,z
_cell_length_a	7.7782
_cell_length_b	9.9174
_cell_length_c	12.7946
_cell_angle_alpha	99.559
_cell_angle_beta	94.03
_cell_angle_gamma	94.803
loop_
_atom_site_label
_atom_site_type_symbol
_atom_site_fract_x
_atom_site_fract_y
_atom_site_fract_z
_atom_site_charge
Mof_Zn	Zn	0.06072	0.61808	0.13647	1.234
Mof_Zn	Zn	0.45431	0.14424	0.12316	1.235
Mof_Zn	Zn	0.77007	0.56377	0.5006	1.229
Mof_P 	P 	0.07832	0.66381	0.39125	0.44
Mof_H 	H 	0.222	0.748	0.437	-0.022
Mof_P 	P 	0.23942	0.36886	0.04032	0.448
Mof_H 	H 	0.388	0.452	0.055	-0.049
Mof_P 	P 	0.51433	0.35205	0.34672	0.454
Mof_H 	H 	0.432	0.438	0.296	-0.071
Mof_P 	P 	0.25925	0.85431	0.04232	0.463
Mof_H 	H 	0.101	0.903	0.031	-0.035
Mof_O 	O 	0.0475	0.702	0.28313	-0.425
Mof_O 	O 	0.9301	0.704	0.45815	-0.416
Mof_O 	O 	0.1142	0.5162	0.38796	-0.477
Mof_O 	O 	0.1661	0.3707	0.92879	-0.45
Mof_O 	O 	0.2722	0.2257	0.0569	-0.449
Mof_O 	O 	0.1257	0.4322	0.12434	-0.449
Mof_O 	O 	0.6972	0.4205	0.38008	-0.442
Mof_O 	O 	0.4143	0.3362	0.44164	-0.457
Mof_O 	O 	0.5207	0.2177	0.27292	-0.413
Mof_O 	O 	0.2397	0.7166	0.0748	-0.451
Mof_O 	O 	0.3712	0.9572	0.12413	-0.452
Mof_O 	O 	0.3194	0.8469	0.93162	-0.445
Mof_Zn	Zn	0.93928	0.38192	0.86353	1.234
Mof_Zn	Zn	0.54569	0.85576	0.87684	1.235
Mof_Zn	Zn	0.22993	0.43623	0.4994	1.229
Mof_P 	P 	0.92168	0.33619	0.60875	0.44
Mof_H 	H 	0.778	0.252	0.563	-0.022
Mof_P 	P 	0.76058	0.63114	0.95968	0.448
Mof_H 	H 	0.612	0.548	0.945	-0.049
Mof_P 	P 	0.48567	0.64795	0.65328	0.454
Mof_H 	H 	0.568	0.562	0.704	-0.071
Mof_P 	P 	0.74075	0.14569	0.95768	0.463
Mof_H 	H 	0.899	0.097	0.969	-0.035
Mof_O 	O 	0.9525	0.298	0.71687	-0.425
Mof_O 	O 	0.0699	0.296	0.54185	-0.416
Mof_O 	O 	0.8858	0.4838	0.61204	-0.477
Mof_O 	O 	0.8339	0.6293	0.07121	-0.45
Mof_O 	O 	0.7278	0.7743	0.9431	-0.449
Mof_O 	O 	0.8743	0.5678	0.87566	-0.449
Mof_O 	O 	0.3028	0.5795	0.61992	-0.442
Mof_O 	O 	0.5857	0.6638	0.55836	-0.457
Mof_O 	O 	0.4793	0.7823	0.72708	-0.413
Mof_O 	O 	0.7603	0.2834	0.9252	-0.451
Mof_O 	O 	0.6288	0.0428	0.87587	-0.452
Mof_O 	O 	0.6806	0.1531	0.06838	-0.445
_end
