data_functionalizedCrystal
_audit_creation_method	'EQeq! by Chris Wilmer'
_symmetry_space_group_name_H-M	'P1'
_symmetry_Int_Tables_number	1
_symmetry_cell_setting	triclinic
loop_
_symmetry_equiv_pos_as_xyz
  x,y,z
_cell_length_a	21.3477
_cell_length_b	22.9862
_cell_length_c	24.297
_cell_angle_alpha	90
_cell_angle_beta	90
_cell_angle_gamma	90
loop_
_atom_site_label
_atom_site_type_symbol
_atom_site_fract_x
_atom_site_fract_y
_atom_site_fract_z
_atom_site_charge
Mof_Zn	Zn	0.93796	0.99819	0.21204	1.172
Mof_N 	N 	0.9611	0.066	0.1661	-0.287
Mof_N 	N 	0.9919	0.1196	0.0963	-0.139
Mof_N 	N 	0.9191	0.0689	0.8364	-0.291
Mof_N 	N 	0.8833	0.1185	0.9062	-0.129
Mof_N 	N 	0.8054	0.23	0.4056	-0.121
Mof_N 	N 	0.7533	0.2294	0.4844	-0.281
Mof_N 	N 	0.8635	0.0221	0.2557	-0.287
Mof_N 	N 	0.777	0.0687	0.2777	-0.115
Mof_C 	C 	0.9841	0.0672	0.1146	0.098
Mof_H 	H 	0.9936	0.0332	0.0939	-0.029
Mof_C 	C 	0.9748	0.1597	0.1364	0.002
Mof_H 	H 	0.9772	0.201	0.1347	0.02
Mof_C 	C 	0.9541	0.1264	0.1784	-0.013
Mof_H 	H 	0.9371	0.1412	0.2117	0.007
Mof_C 	C 	0.0167	0.1334	0.041	0.053
Mof_C 	C 	0.9703	0.1177	0.9942	-0.028
Mof_C 	C 	0.9151	0.1611	0.9943	-0.003
Mof_C 	C 	0.8588	0.133	0.9638	0.009
Mof_C 	C 	0.8929	0.0649	0.8843	0.095
Mof_H 	H 	0.882	0.0293	0.9017	-0.027
Mof_C 	C 	0.9021	0.1546	0.872	0.023
Mof_H 	H 	0.9025	0.1956	0.8772	0.015
Mof_C 	C 	0.9229	0.1253	0.824	-0.008
Mof_H 	H 	0.9366	0.1421	0.7904	-0.002
Mof_C 	C 	0.7553	0.2502	0.4316	0.07
Mof_H 	H 	0.7251	0.2754	0.4158	-0.019
Mof_C 	C 	0.808	0.1912	0.4902	-0.036
Mof_H 	H 	0.8197	0.1678	0.5207	0.016
Mof_C 	C 	0.8368	0.1975	0.4427	0.019
Mof_H 	H 	0.8764	0.1804	0.4351	0.019
Mof_C 	C 	0.8182	0.2415	0.3467	-0.046
Mof_H 	H 	0.7894	0.2723	0.3335	0.038
Mof_H 	H 	0.8616	0.256	0.3427	0.038
Mof_C 	C 	0.8098	0.1864	0.3106	-0.092
Mof_H 	H 	0.8158	0.1965	0.2714	0.047
Mof_H 	H 	0.8414	0.1568	0.3209	0.056
Mof_C 	C 	0.7437	0.1619	0.3194	-0.091
Mof_H 	H 	0.7126	0.1938	0.3169	0.047
Mof_H 	H 	0.7406	0.1445	0.3565	0.057
Mof_C 	C 	0.7293	0.1153	0.2753	-0.047
Mof_H 	H 	0.6872	0.0986	0.2819	0.039
Mof_H 	H 	0.7295	0.1334	0.2384	0.038
Mof_C 	C 	0.8242	0.062	0.2406	0.085
Mof_H 	H 	0.8279	0.084	0.2076	-0.026
Mof_C 	C 	0.7858	0.0272	0.3204	-0.016
Mof_H 	H 	0.7602	0.0202	0.3517	0.031
Mof_C 	C 	0.8412	0.9993	0.305	0.006
Mof_H 	H 	0.8608	0.969	0.3252	-0
Mof_C 	C 	0.9659	0.1547	0.001	-0.022
Mof_C 	C 	0.9086	0.1135	0.006	-0.004
Mof_Zn	Zn	0.93796	0.49819	0.71204	1.171
Mof_N 	N 	0.9611	0.566	0.6661	-0.289
Mof_N 	N 	0.9919	0.6196	0.5963	-0.141
Mof_N 	N 	0.9191	0.5689	0.3364	-0.292
Mof_N 	N 	0.8833	0.6185	0.4062	-0.129
Mof_N 	N 	0.8054	0.73	0.9056	-0.121
Mof_N 	N 	0.7533	0.7294	0.9844	-0.281
Mof_N 	N 	0.8635	0.5221	0.7557	-0.287
Mof_N 	N 	0.777	0.5687	0.7777	-0.115
Mof_C 	C 	0.9841	0.5672	0.6146	0.098
Mof_H 	H 	0.9936	0.5332	0.5939	-0.03
Mof_C 	C 	0.9748	0.6597	0.6364	0.002
Mof_H 	H 	0.9772	0.701	0.6347	0.02
Mof_C 	C 	0.9541	0.6264	0.6784	-0.013
Mof_H 	H 	0.9371	0.6412	0.7117	0.007
Mof_C 	C 	0.0167	0.6334	0.541	0.054
Mof_C 	C 	0.9703	0.6177	0.4942	-0.019
Mof_C 	C 	0.9151	0.6611	0.4943	0.005
Mof_C 	C 	0.8588	0.633	0.4638	0.008
Mof_C 	C 	0.8929	0.5649	0.3843	0.095
Mof_H 	H 	0.882	0.5293	0.4017	-0.027
Mof_C 	C 	0.9021	0.6546	0.372	0.022
Mof_H 	H 	0.9025	0.6956	0.3772	0.015
Mof_C 	C 	0.9229	0.6253	0.324	-0.008
Mof_H 	H 	0.9366	0.6421	0.2904	-0.002
Mof_C 	C 	0.7553	0.7502	0.9316	0.07
Mof_H 	H 	0.7251	0.7754	0.9158	-0.019
Mof_C 	C 	0.808	0.6912	0.9902	-0.035
Mof_H 	H 	0.8197	0.6678	0.0207	0.016
Mof_C 	C 	0.8368	0.6975	0.9427	0.019
Mof_H 	H 	0.8764	0.6804	0.9351	0.019
Mof_C 	C 	0.8182	0.7415	0.8467	-0.046
Mof_H 	H 	0.7894	0.7723	0.8335	0.038
Mof_H 	H 	0.8616	0.756	0.8427	0.038
Mof_C 	C 	0.8098	0.6864	0.8106	-0.092
Mof_H 	H 	0.8158	0.6965	0.7714	0.047
Mof_H 	H 	0.8414	0.6568	0.8209	0.056
Mof_C 	C 	0.7437	0.6619	0.8194	-0.091
Mof_H 	H 	0.7126	0.6938	0.8169	0.047
Mof_H 	H 	0.7406	0.6445	0.8565	0.057
Mof_C 	C 	0.7293	0.6153	0.7753	-0.047
Mof_H 	H 	0.6872	0.5986	0.7819	0.039
Mof_H 	H 	0.7295	0.6334	0.7384	0.038
Mof_C 	C 	0.8242	0.562	0.7406	0.085
Mof_H 	H 	0.8279	0.584	0.7076	-0.026
Mof_C 	C 	0.7858	0.5272	0.8204	-0.017
Mof_H 	H 	0.7602	0.5202	0.8517	0.031
Mof_C 	C 	0.8412	0.4993	0.805	0.006
Mof_H 	H 	0.8608	0.469	0.8252	-0
Mof_C 	C 	0.9659	0.6547	0.501	-0.034
Mof_C 	C 	0.9086	0.6135	0.506	-0.01
Mof_Zn	Zn	0.43796	0.99819	0.71204	1.175
Mof_N 	N 	0.4611	0.066	0.6661	-0.285
Mof_N 	N 	0.4919	0.1196	0.5963	-0.126
Mof_N 	N 	0.4191	0.0689	0.3364	-0.29
Mof_N 	N 	0.3833	0.1185	0.4062	-0.129
Mof_N 	N 	0.3054	0.23	0.9056	-0.12
Mof_N 	N 	0.2533	0.2294	0.9844	-0.281
Mof_N 	N 	0.3635	0.0221	0.7557	-0.286
Mof_N 	N 	0.277	0.0687	0.7777	-0.115
Mof_C 	C 	0.4841	0.0672	0.6146	0.099
Mof_H 	H 	0.4936	0.0332	0.5939	-0.022
Mof_C 	C 	0.4748	0.1597	0.6364	0.004
Mof_H 	H 	0.4772	0.201	0.6347	0.026
Mof_C 	C 	0.4541	0.1264	0.6784	-0.009
Mof_H 	H 	0.4371	0.1412	0.7117	0.008
Mof_C 	C 	0.5167	0.1334	0.541	0.013
Mof_C 	C 	0.4703	0.1177	0.4942	-0.026
Mof_C 	C 	0.4151	0.1611	0.4943	-0.019
Mof_C 	C 	0.3588	0.133	0.4638	0.014
Mof_C 	C 	0.3929	0.0649	0.3843	0.097
Mof_H 	H 	0.382	0.0293	0.4017	-0.026
Mof_C 	C 	0.4021	0.1546	0.372	0.025
Mof_H 	H 	0.4025	0.1956	0.3772	0.018
Mof_C 	C 	0.4229	0.1253	0.324	-0.005
Mof_H 	H 	0.4366	0.1421	0.2904	0.003
Mof_C 	C 	0.2553	0.2502	0.9316	0.07
Mof_H 	H 	0.2251	0.2754	0.9158	-0.018
Mof_C 	C 	0.308	0.1912	0.9902	-0.035
Mof_H 	H 	0.3197	0.1678	0.0207	0.018
Mof_C 	C 	0.3368	0.1975	0.9427	0.02
Mof_H 	H 	0.3764	0.1804	0.9351	0.021
Mof_C 	C 	0.3182	0.2415	0.8467	-0.046
Mof_H 	H 	0.2894	0.2723	0.8335	0.038
Mof_H 	H 	0.3616	0.256	0.8427	0.039
Mof_C 	C 	0.3098	0.1864	0.8106	-0.093
Mof_H 	H 	0.3158	0.1965	0.7714	0.048
Mof_H 	H 	0.3414	0.1568	0.8209	0.057
Mof_C 	C 	0.2437	0.1619	0.8194	-0.091
Mof_H 	H 	0.2126	0.1938	0.8169	0.049
Mof_H 	H 	0.2406	0.1445	0.8565	0.058
Mof_C 	C 	0.2293	0.1153	0.7753	-0.047
Mof_H 	H 	0.1872	0.0986	0.7819	0.04
Mof_H 	H 	0.2295	0.1334	0.7384	0.039
Mof_C 	C 	0.3242	0.062	0.7406	0.085
Mof_H 	H 	0.3279	0.084	0.7076	-0.026
Mof_C 	C 	0.2858	0.0272	0.8204	-0.017
Mof_H 	H 	0.2602	0.0202	0.8517	0.032
Mof_C 	C 	0.3412	0.9993	0.805	0.007
Mof_H 	H 	0.3608	0.969	0.8252	0.002
Mof_C 	C 	0.4659	0.1547	0.501	0.012
Mof_C 	C 	0.4086	0.1135	0.506	-0.001
Mof_Zn	Zn	0.43796	0.49819	0.21204	1.175
Mof_N 	N 	0.4611	0.566	0.1661	-0.285
Mof_N 	N 	0.4919	0.6196	0.0963	-0.126
Mof_N 	N 	0.4191	0.5689	0.8364	-0.29
Mof_N 	N 	0.3833	0.6185	0.9062	-0.129
Mof_N 	N 	0.3054	0.73	0.4056	-0.12
Mof_N 	N 	0.2533	0.7294	0.4844	-0.281
Mof_N 	N 	0.3635	0.5221	0.2557	-0.286
Mof_N 	N 	0.277	0.5687	0.2777	-0.115
Mof_C 	C 	0.4841	0.5672	0.1146	0.099
Mof_H 	H 	0.4936	0.5332	0.0939	-0.022
Mof_C 	C 	0.4748	0.6597	0.1364	0.004
Mof_H 	H 	0.4772	0.701	0.1347	0.026
Mof_C 	C 	0.4541	0.6264	0.1784	-0.009
Mof_H 	H 	0.4371	0.6412	0.2117	0.008
Mof_C 	C 	0.5167	0.6334	0.041	0.013
Mof_C 	C 	0.4703	0.6177	0.9942	-0.023
Mof_C 	C 	0.4151	0.6611	0.9943	-0.016
Mof_C 	C 	0.3588	0.633	0.9638	0.014
Mof_C 	C 	0.3929	0.5649	0.8843	0.097
Mof_H 	H 	0.382	0.5293	0.9017	-0.026
Mof_C 	C 	0.4021	0.6546	0.872	0.025
Mof_H 	H 	0.4025	0.6956	0.8772	0.018
Mof_C 	C 	0.4229	0.6253	0.824	-0.005
Mof_H 	H 	0.4366	0.6421	0.7904	0.003
Mof_C 	C 	0.2553	0.7502	0.4316	0.07
Mof_H 	H 	0.2251	0.7754	0.4158	-0.018
Mof_C 	C 	0.308	0.6912	0.4902	-0.034
Mof_H 	H 	0.3197	0.6678	0.5207	0.017
Mof_C 	C 	0.3368	0.6975	0.4427	0.02
Mof_H 	H 	0.3764	0.6804	0.4351	0.021
Mof_C 	C 	0.3182	0.7415	0.3467	-0.046
Mof_H 	H 	0.2894	0.7723	0.3335	0.038
Mof_H 	H 	0.3616	0.756	0.3427	0.039
Mof_C 	C 	0.3098	0.6864	0.3106	-0.093
Mof_H 	H 	0.3158	0.6965	0.2714	0.048
Mof_H 	H 	0.3414	0.6568	0.3209	0.057
Mof_C 	C 	0.2437	0.6619	0.3194	-0.091
Mof_H 	H 	0.2126	0.6938	0.3169	0.049
Mof_H 	H 	0.2406	0.6445	0.3565	0.058
Mof_C 	C 	0.2293	0.6153	0.2753	-0.047
Mof_H 	H 	0.1872	0.5986	0.2819	0.04
Mof_H 	H 	0.2295	0.6334	0.2384	0.039
Mof_C 	C 	0.3242	0.562	0.2406	0.085
Mof_H 	H 	0.3279	0.584	0.2076	-0.026
Mof_C 	C 	0.2858	0.5272	0.3204	-0.016
Mof_H 	H 	0.2602	0.5202	0.3517	0.032
Mof_C 	C 	0.3412	0.4993	0.305	0.006
Mof_H 	H 	0.3608	0.469	0.3252	0.002
Mof_C 	C 	0.4659	0.6547	0.001	0.009
Mof_C 	C 	0.4086	0.6135	0.006	-0.003
Mof_Zn	Zn	0.93796	0.00181	0.78796	1.171
Mof_N 	N 	0.9611	0.934	0.8339	-0.288
Mof_N 	N 	0.9919	0.8804	0.9037	-0.14
Mof_N 	N 	0.9191	0.9311	0.1636	-0.292
Mof_N 	N 	0.8833	0.8815	0.0938	-0.129
Mof_N 	N 	0.8054	0.77	0.5944	-0.121
Mof_N 	N 	0.7533	0.7706	0.5156	-0.281
Mof_N 	N 	0.8635	0.9779	0.7443	-0.287
Mof_N 	N 	0.777	0.9313	0.7223	-0.115
Mof_C 	C 	0.9841	0.9328	0.8854	0.098
Mof_H 	H 	0.9936	0.9668	0.9061	-0.029
Mof_C 	C 	0.9748	0.8403	0.8636	0.002
Mof_H 	H 	0.9772	0.799	0.8653	0.02
Mof_C 	C 	0.9541	0.8736	0.8216	-0.013
Mof_H 	H 	0.9371	0.8588	0.7883	0.007
Mof_C 	C 	0.0167	0.8666	0.959	0.053
Mof_C 	C 	0.9703	0.8823	0.0058	-0.028
Mof_C 	C 	0.9151	0.8389	0.0057	-0.003
Mof_C 	C 	0.8588	0.867	0.0362	0.009
Mof_C 	C 	0.8929	0.9351	0.1157	0.095
Mof_H 	H 	0.882	0.9707	0.0983	-0.027
Mof_C 	C 	0.9021	0.8454	0.128	0.023
Mof_H 	H 	0.9025	0.8044	0.1228	0.015
Mof_C 	C 	0.9229	0.8747	0.176	-0.008
Mof_H 	H 	0.9366	0.8579	0.2096	-0.002
Mof_C 	C 	0.7553	0.7498	0.5684	0.07
Mof_H 	H 	0.7251	0.7246	0.5842	-0.019
Mof_C 	C 	0.808	0.8088	0.5098	-0.036
Mof_H 	H 	0.8197	0.8322	0.4793	0.016
Mof_C 	C 	0.8368	0.8025	0.5573	0.019
Mof_H 	H 	0.8764	0.8196	0.5649	0.019
Mof_C 	C 	0.8182	0.7585	0.6533	-0.046
Mof_H 	H 	0.7894	0.7277	0.6665	0.038
Mof_H 	H 	0.8616	0.744	0.6573	0.038
Mof_C 	C 	0.8098	0.8136	0.6894	-0.092
Mof_H 	H 	0.8158	0.8035	0.7286	0.047
Mof_H 	H 	0.8414	0.8432	0.6791	0.056
Mof_C 	C 	0.7437	0.8381	0.6806	-0.091
Mof_H 	H 	0.7126	0.8062	0.6831	0.047
Mof_H 	H 	0.7406	0.8555	0.6435	0.057
Mof_C 	C 	0.7293	0.8847	0.7247	-0.047
Mof_H 	H 	0.6872	0.9014	0.7181	0.039
Mof_H 	H 	0.7295	0.8666	0.7616	0.038
Mof_C 	C 	0.8242	0.938	0.7594	0.085
Mof_H 	H 	0.8279	0.916	0.7924	-0.026
Mof_C 	C 	0.7858	0.9728	0.6796	-0.016
Mof_H 	H 	0.7602	0.9798	0.6483	0.031
Mof_C 	C 	0.8412	0.0007	0.695	0.006
Mof_H 	H 	0.8608	0.031	0.6748	-0
Mof_C 	C 	0.9659	0.8453	0.999	-0.022
Mof_C 	C 	0.9086	0.8865	0.994	-0.004
Mof_Zn	Zn	0.93796	0.50181	0.28796	1.171
Mof_N 	N 	0.9611	0.434	0.3339	-0.289
Mof_N 	N 	0.9919	0.3804	0.4037	-0.141
Mof_N 	N 	0.9191	0.4311	0.6636	-0.292
Mof_N 	N 	0.8833	0.3815	0.5938	-0.129
Mof_N 	N 	0.8054	0.27	0.0944	-0.121
Mof_N 	N 	0.7533	0.2706	0.0156	-0.281
Mof_N 	N 	0.8635	0.4779	0.2443	-0.287
Mof_N 	N 	0.777	0.4313	0.2223	-0.115
Mof_C 	C 	0.9841	0.4328	0.3854	0.098
Mof_H 	H 	0.9936	0.4668	0.4061	-0.03
Mof_C 	C 	0.9748	0.3403	0.3636	0.002
Mof_H 	H 	0.9772	0.299	0.3653	0.02
Mof_C 	C 	0.9541	0.3736	0.3216	-0.013
Mof_H 	H 	0.9371	0.3588	0.2883	0.007
Mof_C 	C 	0.0167	0.3666	0.459	0.054
Mof_C 	C 	0.9703	0.3823	0.5058	-0.019
Mof_C 	C 	0.9151	0.3389	0.5057	0.005
Mof_C 	C 	0.8588	0.367	0.5362	0.008
Mof_C 	C 	0.8929	0.4351	0.6157	0.095
Mof_H 	H 	0.882	0.4707	0.5983	-0.027
Mof_C 	C 	0.9021	0.3454	0.628	0.022
Mof_H 	H 	0.9025	0.3044	0.6228	0.015
Mof_C 	C 	0.9229	0.3747	0.676	-0.008
Mof_H 	H 	0.9366	0.3579	0.7096	-0.002
Mof_C 	C 	0.7553	0.2498	0.0684	0.07
Mof_H 	H 	0.7251	0.2246	0.0842	-0.019
Mof_C 	C 	0.808	0.3088	0.0098	-0.035
Mof_H 	H 	0.8197	0.3322	0.9793	0.016
Mof_C 	C 	0.8368	0.3025	0.0573	0.019
Mof_H 	H 	0.8764	0.3196	0.0649	0.019
Mof_C 	C 	0.8182	0.2585	0.1533	-0.046
Mof_H 	H 	0.7894	0.2277	0.1665	0.038
Mof_H 	H 	0.8616	0.244	0.1573	0.038
Mof_C 	C 	0.8098	0.3136	0.1894	-0.092
Mof_H 	H 	0.8158	0.3035	0.2286	0.047
Mof_H 	H 	0.8414	0.3432	0.1791	0.056
Mof_C 	C 	0.7437	0.3381	0.1806	-0.091
Mof_H 	H 	0.7126	0.3062	0.1831	0.047
Mof_H 	H 	0.7406	0.3555	0.1435	0.057
Mof_C 	C 	0.7293	0.3847	0.2247	-0.047
Mof_H 	H 	0.6872	0.4014	0.2181	0.039
Mof_H 	H 	0.7295	0.3666	0.2616	0.038
Mof_C 	C 	0.8242	0.438	0.2594	0.085
Mof_H 	H 	0.8279	0.416	0.2924	-0.026
Mof_C 	C 	0.7858	0.4728	0.1796	-0.017
Mof_H 	H 	0.7602	0.4798	0.1483	0.031
Mof_C 	C 	0.8412	0.5007	0.195	0.006
Mof_H 	H 	0.8608	0.531	0.1748	-0
Mof_C 	C 	0.9659	0.3453	0.499	-0.034
Mof_C 	C 	0.9086	0.3865	0.494	-0.01
Mof_Zn	Zn	0.43796	0.00181	0.28796	1.175
Mof_N 	N 	0.4611	0.934	0.3339	-0.285
Mof_N 	N 	0.4919	0.8804	0.4037	-0.126
Mof_N 	N 	0.4191	0.9311	0.6636	-0.29
Mof_N 	N 	0.3833	0.8815	0.5938	-0.129
Mof_N 	N 	0.3054	0.77	0.0944	-0.12
Mof_N 	N 	0.2533	0.7706	0.0156	-0.281
Mof_N 	N 	0.3635	0.9779	0.2443	-0.286
Mof_N 	N 	0.277	0.9313	0.2223	-0.115
Mof_C 	C 	0.4841	0.9328	0.3854	0.099
Mof_H 	H 	0.4936	0.9668	0.4061	-0.022
Mof_C 	C 	0.4748	0.8403	0.3636	0.004
Mof_H 	H 	0.4772	0.799	0.3653	0.026
Mof_C 	C 	0.4541	0.8736	0.3216	-0.009
Mof_H 	H 	0.4371	0.8588	0.2883	0.008
Mof_C 	C 	0.5167	0.8666	0.459	0.013
Mof_C 	C 	0.4703	0.8823	0.5058	-0.026
Mof_C 	C 	0.4151	0.8389	0.5057	-0.019
Mof_C 	C 	0.3588	0.867	0.5362	0.014
Mof_C 	C 	0.3929	0.9351	0.6157	0.097
Mof_H 	H 	0.382	0.9707	0.5983	-0.026
Mof_C 	C 	0.4021	0.8454	0.628	0.025
Mof_H 	H 	0.4025	0.8044	0.6228	0.018
Mof_C 	C 	0.4229	0.8747	0.676	-0.005
Mof_H 	H 	0.4366	0.8579	0.7096	0.003
Mof_C 	C 	0.2553	0.7498	0.0684	0.07
Mof_H 	H 	0.2251	0.7246	0.0842	-0.018
Mof_C 	C 	0.308	0.8088	0.0098	-0.035
Mof_H 	H 	0.3197	0.8322	0.9793	0.018
Mof_C 	C 	0.3368	0.8025	0.0573	0.02
Mof_H 	H 	0.3764	0.8196	0.0649	0.021
Mof_C 	C 	0.3182	0.7585	0.1533	-0.046
Mof_H 	H 	0.2894	0.7277	0.1665	0.038
Mof_H 	H 	0.3616	0.744	0.1573	0.039
Mof_C 	C 	0.3098	0.8136	0.1894	-0.093
Mof_H 	H 	0.3158	0.8035	0.2286	0.048
Mof_H 	H 	0.3414	0.8432	0.1791	0.057
Mof_C 	C 	0.2437	0.8381	0.1806	-0.091
Mof_H 	H 	0.2126	0.8062	0.1831	0.049
Mof_H 	H 	0.2406	0.8555	0.1435	0.058
Mof_C 	C 	0.2293	0.8847	0.2247	-0.047
Mof_H 	H 	0.1872	0.9014	0.2181	0.04
Mof_H 	H 	0.2295	0.8666	0.2616	0.039
Mof_C 	C 	0.3242	0.938	0.2594	0.085
Mof_H 	H 	0.3279	0.916	0.2924	-0.026
Mof_C 	C 	0.2858	0.9728	0.1796	-0.017
Mof_H 	H 	0.2602	0.9798	0.1483	0.032
Mof_C 	C 	0.3412	0.0007	0.195	0.007
Mof_H 	H 	0.3608	0.031	0.1748	0.002
Mof_C 	C 	0.4659	0.8453	0.499	0.012
Mof_C 	C 	0.4086	0.8865	0.494	-0.001
Mof_Zn	Zn	0.43796	0.50181	0.78796	1.175
Mof_N 	N 	0.4611	0.434	0.8339	-0.285
Mof_N 	N 	0.4919	0.3804	0.9037	-0.126
Mof_N 	N 	0.4191	0.4311	0.1636	-0.29
Mof_N 	N 	0.3833	0.3815	0.0938	-0.129
Mof_N 	N 	0.3054	0.27	0.5944	-0.12
Mof_N 	N 	0.2533	0.2706	0.5156	-0.281
Mof_N 	N 	0.3635	0.4779	0.7443	-0.286
Mof_N 	N 	0.277	0.4313	0.7223	-0.115
Mof_C 	C 	0.4841	0.4328	0.8854	0.099
Mof_H 	H 	0.4936	0.4668	0.9061	-0.022
Mof_C 	C 	0.4748	0.3403	0.8636	0.004
Mof_H 	H 	0.4772	0.299	0.8653	0.026
Mof_C 	C 	0.4541	0.3736	0.8216	-0.009
Mof_H 	H 	0.4371	0.3588	0.7883	0.008
Mof_C 	C 	0.5167	0.3666	0.959	0.013
Mof_C 	C 	0.4703	0.3823	0.0058	-0.023
Mof_C 	C 	0.4151	0.3389	0.0057	-0.016
Mof_C 	C 	0.3588	0.367	0.0362	0.014
Mof_C 	C 	0.3929	0.4351	0.1157	0.097
Mof_H 	H 	0.382	0.4707	0.0983	-0.026
Mof_C 	C 	0.4021	0.3454	0.128	0.025
Mof_H 	H 	0.4025	0.3044	0.1228	0.018
Mof_C 	C 	0.4229	0.3747	0.176	-0.005
Mof_H 	H 	0.4366	0.3579	0.2096	0.003
Mof_C 	C 	0.2553	0.2498	0.5684	0.07
Mof_H 	H 	0.2251	0.2246	0.5842	-0.018
Mof_C 	C 	0.308	0.3088	0.5098	-0.034
Mof_H 	H 	0.3197	0.3322	0.4793	0.017
Mof_C 	C 	0.3368	0.3025	0.5573	0.02
Mof_H 	H 	0.3764	0.3196	0.5649	0.021
Mof_C 	C 	0.3182	0.2585	0.6533	-0.046
Mof_H 	H 	0.2894	0.2277	0.6665	0.038
Mof_H 	H 	0.3616	0.244	0.6573	0.039
Mof_C 	C 	0.3098	0.3136	0.6894	-0.093
Mof_H 	H 	0.3158	0.3035	0.7286	0.048
Mof_H 	H 	0.3414	0.3432	0.6791	0.057
Mof_C 	C 	0.2437	0.3381	0.6806	-0.091
Mof_H 	H 	0.2126	0.3062	0.6831	0.049
Mof_H 	H 	0.2406	0.3555	0.6435	0.058
Mof_C 	C 	0.2293	0.3847	0.7247	-0.047
Mof_H 	H 	0.1872	0.4014	0.7181	0.04
Mof_H 	H 	0.2295	0.3666	0.7616	0.039
Mof_C 	C 	0.3242	0.438	0.7594	0.085
Mof_H 	H 	0.3279	0.416	0.7924	-0.026
Mof_C 	C 	0.2858	0.4728	0.6796	-0.016
Mof_H 	H 	0.2602	0.4798	0.6483	0.032
Mof_C 	C 	0.3412	0.5007	0.695	0.006
Mof_H 	H 	0.3608	0.531	0.6748	0.002
Mof_C 	C 	0.4659	0.3453	0.999	0.009
Mof_C 	C 	0.4086	0.3865	0.994	-0.003
Mof_Zn	Zn	0.68796	0.74819	0.03796	1.175
Mof_N 	N 	0.7111	0.816	0.0839	-0.285
Mof_N 	N 	0.7419	0.8696	0.1537	-0.126
Mof_N 	N 	0.6691	0.8189	0.4136	-0.29
Mof_N 	N 	0.6333	0.8685	0.3438	-0.129
Mof_N 	N 	0.5554	0.98	0.8444	-0.12
Mof_N 	N 	0.5033	0.9794	0.7656	-0.281
Mof_N 	N 	0.6135	0.7721	0.9943	-0.285
Mof_N 	N 	0.527	0.8187	0.9723	-0.115
Mof_C 	C 	0.7341	0.8172	0.1354	0.099
Mof_H 	H 	0.7436	0.7832	0.1561	-0.023
Mof_C 	C 	0.7248	0.9097	0.1136	0.004
Mof_H 	H 	0.7272	0.951	0.1153	0.026
Mof_C 	C 	0.7041	0.8764	0.0716	-0.009
Mof_H 	H 	0.6871	0.8912	0.0383	0.008
Mof_C 	C 	0.7667	0.8834	0.209	0.012
Mof_C 	C 	0.7203	0.8677	0.2558	-0.028
Mof_C 	C 	0.6651	0.9111	0.2557	-0.02
Mof_C 	C 	0.6088	0.883	0.2862	0.014
Mof_C 	C 	0.6429	0.8149	0.3657	0.096
Mof_H 	H 	0.632	0.7793	0.3483	-0.026
Mof_C 	C 	0.6521	0.9046	0.378	0.025
Mof_H 	H 	0.6525	0.9456	0.3728	0.018
Mof_C 	C 	0.6729	0.8753	0.426	-0.005
Mof_H 	H 	0.6866	0.8921	0.4596	0.003
Mof_C 	C 	0.5053	0.0002	0.8184	0.07
Mof_H 	H 	0.4751	0.0254	0.8342	-0.019
Mof_C 	C 	0.558	0.9412	0.7598	-0.035
Mof_H 	H 	0.5697	0.9178	0.7293	0.017
Mof_C 	C 	0.5868	0.9475	0.8073	0.02
Mof_H 	H 	0.6264	0.9304	0.8149	0.021
Mof_C 	C 	0.5682	0.9915	0.9033	-0.044
Mof_H 	H 	0.5394	0.0223	0.9165	0.037
Mof_H 	H 	0.6116	0.006	0.9073	0.038
Mof_C 	C 	0.5598	0.9364	0.9394	-0.094
Mof_H 	H 	0.5658	0.9465	0.9786	0.048
Mof_H 	H 	0.5914	0.9068	0.9291	0.058
Mof_C 	C 	0.4937	0.9119	0.9306	-0.09
Mof_H 	H 	0.4626	0.9438	0.9331	0.048
Mof_H 	H 	0.4906	0.8945	0.8935	0.057
Mof_C 	C 	0.4793	0.8653	0.9747	-0.046
Mof_H 	H 	0.4372	0.8486	0.9681	0.038
Mof_H 	H 	0.4795	0.8834	0.0116	0.038
Mof_C 	C 	0.5742	0.812	0.0094	0.085
Mof_H 	H 	0.5779	0.834	0.0424	-0.026
Mof_C 	C 	0.5358	0.7772	0.9296	-0.016
Mof_H 	H 	0.5102	0.7702	0.8983	0.031
Mof_C 	C 	0.5912	0.7493	0.945	0.006
Mof_H 	H 	0.6108	0.719	0.9248	0.002
Mof_C 	C 	0.7159	0.9047	0.249	0.015
Mof_C 	C 	0.6586	0.8635	0.244	-0
Mof_Zn	Zn	0.68796	0.24819	0.53796	1.175
Mof_N 	N 	0.7111	0.316	0.5839	-0.285
Mof_N 	N 	0.7419	0.3696	0.6537	-0.126
Mof_N 	N 	0.6691	0.3189	0.9136	-0.29
Mof_N 	N 	0.6333	0.3685	0.8438	-0.129
Mof_N 	N 	0.5554	0.48	0.3444	-0.12
Mof_N 	N 	0.5033	0.4794	0.2656	-0.281
Mof_N 	N 	0.6135	0.2721	0.4943	-0.286
Mof_N 	N 	0.527	0.3187	0.4723	-0.115
Mof_C 	C 	0.7341	0.3172	0.6354	0.099
Mof_H 	H 	0.7436	0.2832	0.6561	-0.023
Mof_C 	C 	0.7248	0.4097	0.6136	0.004
Mof_H 	H 	0.7272	0.451	0.6153	0.026
Mof_C 	C 	0.7041	0.3764	0.5716	-0.009
Mof_H 	H 	0.6871	0.3912	0.5383	0.008
Mof_C 	C 	0.7667	0.3834	0.709	0.012
Mof_C 	C 	0.7203	0.3677	0.7558	-0.028
Mof_C 	C 	0.6651	0.4111	0.7557	-0.02
Mof_C 	C 	0.6088	0.383	0.7862	0.014
Mof_C 	C 	0.6429	0.3149	0.8657	0.096
Mof_H 	H 	0.632	0.2793	0.8483	-0.026
Mof_C 	C 	0.6521	0.4046	0.878	0.025
Mof_H 	H 	0.6525	0.4456	0.8728	0.018
Mof_C 	C 	0.6729	0.3753	0.926	-0.005
Mof_H 	H 	0.6866	0.3921	0.9596	0.003
Mof_C 	C 	0.5053	0.5002	0.3184	0.07
Mof_H 	H 	0.4751	0.5254	0.3342	-0.019
Mof_C 	C 	0.558	0.4412	0.2598	-0.035
Mof_H 	H 	0.5697	0.4178	0.2293	0.017
Mof_C 	C 	0.5868	0.4475	0.3073	0.02
Mof_H 	H 	0.6264	0.4304	0.3149	0.021
Mof_C 	C 	0.5682	0.4915	0.4033	-0.045
Mof_H 	H 	0.5394	0.5223	0.4165	0.038
Mof_H 	H 	0.6116	0.506	0.4073	0.039
Mof_C 	C 	0.5598	0.4364	0.4394	-0.093
Mof_H 	H 	0.5658	0.4465	0.4786	0.048
Mof_H 	H 	0.5914	0.4068	0.4291	0.057
Mof_C 	C 	0.4937	0.4119	0.4306	-0.09
Mof_H 	H 	0.4626	0.4438	0.4331	0.047
Mof_H 	H 	0.4906	0.3945	0.3935	0.057
Mof_C 	C 	0.4793	0.3653	0.4747	-0.047
Mof_H 	H 	0.4372	0.3486	0.4681	0.039
Mof_H 	H 	0.4795	0.3834	0.5116	0.038
Mof_C 	C 	0.5742	0.312	0.5094	0.085
Mof_H 	H 	0.5779	0.334	0.5424	-0.026
Mof_C 	C 	0.5358	0.2772	0.4296	-0.016
Mof_H 	H 	0.5102	0.2702	0.3983	0.031
Mof_C 	C 	0.5912	0.2493	0.445	0.006
Mof_H 	H 	0.6108	0.219	0.4248	0.002
Mof_C 	C 	0.7159	0.4047	0.749	0.015
Mof_C 	C 	0.6586	0.3635	0.744	-0
Mof_Zn	Zn	0.18796	0.74819	0.53796	1.175
Mof_N 	N 	0.2111	0.816	0.5839	-0.285
Mof_N 	N 	0.2419	0.8696	0.6537	-0.126
Mof_N 	N 	0.1691	0.8189	0.9136	-0.289
Mof_N 	N 	0.1333	0.8685	0.8438	-0.128
Mof_N 	N 	0.0554	0.98	0.3444	-0.124
Mof_N 	N 	0.0033	0.9794	0.2656	-0.279
Mof_N 	N 	0.1135	0.7721	0.4943	-0.285
Mof_N 	N 	0.027	0.8187	0.4723	-0.104
Mof_C 	C 	0.2341	0.8172	0.6354	0.1
Mof_H 	H 	0.2436	0.7832	0.6561	-0.022
Mof_C 	C 	0.2248	0.9097	0.6136	0.004
Mof_H 	H 	0.2272	0.951	0.6153	0.026
Mof_C 	C 	0.2041	0.8764	0.5716	-0.008
Mof_H 	H 	0.1871	0.8912	0.5383	0.009
Mof_C 	C 	0.2667	0.8834	0.709	0.013
Mof_C 	C 	0.2203	0.8677	0.7558	-0.03
Mof_C 	C 	0.1651	0.9111	0.7557	-0.023
Mof_C 	C 	0.1088	0.883	0.7862	0.022
Mof_C 	C 	0.1429	0.8149	0.8657	0.099
Mof_H 	H 	0.132	0.7793	0.8483	-0.024
Mof_C 	C 	0.1521	0.9046	0.878	0.027
Mof_H 	H 	0.1525	0.9456	0.8728	0.02
Mof_C 	C 	0.1729	0.8753	0.926	-0.004
Mof_H 	H 	0.1866	0.8921	0.9596	0.004
Mof_C 	C 	0.0053	0.0002	0.3184	0.116
Mof_H 	H 	0.9751	0.0254	0.3342	-0.05
Mof_C 	C 	0.058	0.9412	0.2598	-0.031
Mof_H 	H 	0.0697	0.9178	0.2293	0.021
Mof_C 	C 	0.0868	0.9475	0.3073	0.02
Mof_H 	H 	0.1264	0.9304	0.3149	0.022
Mof_C 	C 	0.0682	0.9915	0.4033	-0.054
Mof_H 	H 	0.0394	0.0223	0.4165	0.048
Mof_H 	H 	0.1116	0.006	0.4073	0.043
Mof_C 	C 	0.0598	0.9364	0.4394	-0.059
Mof_H 	H 	0.0658	0.9465	0.4786	0.042
Mof_H 	H 	0.0914	0.9068	0.4291	0.05
Mof_C 	C 	0.9937	0.9119	0.4306	-0.12
Mof_H 	H 	0.9626	0.9438	0.4331	0.05
Mof_H 	H 	0.9906	0.8945	0.3935	0.056
Mof_C 	C 	0.9793	0.8653	0.4747	-0.057
Mof_H 	H 	0.9372	0.8486	0.4681	0.038
Mof_H 	H 	0.9795	0.8834	0.5116	0.033
Mof_C 	C 	0.0742	0.812	0.5094	0.088
Mof_H 	H 	0.0779	0.834	0.5424	-0.022
Mof_C 	C 	0.0358	0.7772	0.4296	-0.012
Mof_H 	H 	0.0102	0.7702	0.3983	0.039
Mof_C 	C 	0.0912	0.7493	0.445	0.009
Mof_H 	H 	0.1108	0.719	0.4248	0.004
Mof_C 	C 	0.2159	0.9047	0.749	0.019
Mof_C 	C 	0.1586	0.8635	0.744	0.003
Mof_Zn	Zn	0.18796	0.24819	0.03796	1.176
Mof_N 	N 	0.2111	0.316	0.0839	-0.285
Mof_N 	N 	0.2419	0.3696	0.1537	-0.126
Mof_N 	N 	0.1691	0.3189	0.4136	-0.289
Mof_N 	N 	0.1333	0.3685	0.3438	-0.128
Mof_N 	N 	0.0554	0.48	0.8444	-0.124
Mof_N 	N 	0.0033	0.4794	0.7656	-0.279
Mof_N 	N 	0.1135	0.2721	0.9943	-0.285
Mof_N 	N 	0.027	0.3187	0.9723	-0.105
Mof_C 	C 	0.2341	0.3172	0.1354	0.1
Mof_H 	H 	0.2436	0.2832	0.1561	-0.022
Mof_C 	C 	0.2248	0.4097	0.1136	0.004
Mof_H 	H 	0.2272	0.451	0.1153	0.026
Mof_C 	C 	0.2041	0.3764	0.0716	-0.008
Mof_H 	H 	0.1871	0.3912	0.0383	0.009
Mof_C 	C 	0.2667	0.3834	0.209	0.013
Mof_C 	C 	0.2203	0.3677	0.2558	-0.03
Mof_C 	C 	0.1651	0.4111	0.2557	-0.023
Mof_C 	C 	0.1088	0.383	0.2862	0.022
Mof_C 	C 	0.1429	0.3149	0.3657	0.099
Mof_H 	H 	0.132	0.2793	0.3483	-0.024
Mof_C 	C 	0.1521	0.4046	0.378	0.027
Mof_H 	H 	0.1525	0.4456	0.3728	0.02
Mof_C 	C 	0.1729	0.3753	0.426	-0.004
Mof_H 	H 	0.1866	0.3921	0.4596	0.004
Mof_C 	C 	0.0053	0.5002	0.8184	0.116
Mof_H 	H 	0.9751	0.5254	0.8342	-0.05
Mof_C 	C 	0.058	0.4412	0.7598	-0.031
Mof_H 	H 	0.0697	0.4178	0.7293	0.021
Mof_C 	C 	0.0868	0.4475	0.8073	0.02
Mof_H 	H 	0.1264	0.4304	0.8149	0.022
Mof_C 	C 	0.0682	0.4915	0.9033	-0.054
Mof_H 	H 	0.0394	0.5223	0.9165	0.048
Mof_H 	H 	0.1116	0.506	0.9073	0.042
Mof_C 	C 	0.0598	0.4364	0.9394	-0.059
Mof_H 	H 	0.0658	0.4465	0.9786	0.042
Mof_H 	H 	0.0914	0.4068	0.9291	0.05
Mof_C 	C 	0.9937	0.4119	0.9306	-0.12
Mof_H 	H 	0.9626	0.4438	0.9331	0.05
Mof_H 	H 	0.9906	0.3945	0.8935	0.056
Mof_C 	C 	0.9793	0.3653	0.9747	-0.057
Mof_H 	H 	0.9372	0.3486	0.9681	0.038
Mof_H 	H 	0.9795	0.3834	0.0116	0.034
Mof_C 	C 	0.0742	0.312	0.0094	0.088
Mof_H 	H 	0.0779	0.334	0.0424	-0.022
Mof_C 	C 	0.0358	0.2772	0.9296	-0.012
Mof_H 	H 	0.0102	0.2702	0.8983	0.039
Mof_C 	C 	0.0912	0.2493	0.945	0.008
Mof_H 	H 	0.1108	0.219	0.9248	0.004
Mof_C 	C 	0.2159	0.4047	0.249	0.019
Mof_C 	C 	0.1586	0.3635	0.244	0.003
Mof_Zn	Zn	0.68796	0.75181	0.46204	1.175
Mof_N 	N 	0.7111	0.684	0.4161	-0.285
Mof_N 	N 	0.7419	0.6304	0.3463	-0.126
Mof_N 	N 	0.6691	0.6811	0.0864	-0.29
Mof_N 	N 	0.6333	0.6315	0.1562	-0.129
Mof_N 	N 	0.5554	0.52	0.6556	-0.12
Mof_N 	N 	0.5033	0.5206	0.7344	-0.281
Mof_N 	N 	0.6135	0.7279	0.5057	-0.286
Mof_N 	N 	0.527	0.6813	0.5277	-0.115
Mof_C 	C 	0.7341	0.6828	0.3646	0.099
Mof_H 	H 	0.7436	0.7168	0.3439	-0.023
Mof_C 	C 	0.7248	0.5903	0.3864	0.004
Mof_H 	H 	0.7272	0.549	0.3847	0.026
Mof_C 	C 	0.7041	0.6236	0.4284	-0.009
Mof_H 	H 	0.6871	0.6088	0.4617	0.008
Mof_C 	C 	0.7667	0.6166	0.291	0.012
Mof_C 	C 	0.7203	0.6323	0.2442	-0.028
Mof_C 	C 	0.6651	0.5889	0.2443	-0.02
Mof_C 	C 	0.6088	0.617	0.2138	0.014
Mof_C 	C 	0.6429	0.6851	0.1343	0.096
Mof_H 	H 	0.632	0.7207	0.1517	-0.026
Mof_C 	C 	0.6521	0.5954	0.122	0.025
Mof_H 	H 	0.6525	0.5544	0.1272	0.018
Mof_C 	C 	0.6729	0.6247	0.074	-0.005
Mof_H 	H 	0.6866	0.6079	0.0404	0.003
Mof_C 	C 	0.5053	0.4998	0.6816	0.07
Mof_H 	H 	0.4751	0.4746	0.6658	-0.019
Mof_C 	C 	0.558	0.5588	0.7402	-0.035
Mof_H 	H 	0.5697	0.5822	0.7707	0.017
Mof_C 	C 	0.5868	0.5525	0.6927	0.02
Mof_H 	H 	0.6264	0.5696	0.6851	0.021
Mof_C 	C 	0.5682	0.5085	0.5967	-0.045
Mof_H 	H 	0.5394	0.4777	0.5835	0.038
Mof_H 	H 	0.6116	0.494	0.5927	0.039
Mof_C 	C 	0.5598	0.5636	0.5606	-0.093
Mof_H 	H 	0.5658	0.5535	0.5214	0.048
Mof_H 	H 	0.5914	0.5932	0.5709	0.057
Mof_C 	C 	0.4937	0.5881	0.5694	-0.09
Mof_H 	H 	0.4626	0.5562	0.5669	0.047
Mof_H 	H 	0.4906	0.6055	0.6065	0.057
Mof_C 	C 	0.4793	0.6347	0.5253	-0.047
Mof_H 	H 	0.4372	0.6514	0.5319	0.039
Mof_H 	H 	0.4795	0.6166	0.4884	0.038
Mof_C 	C 	0.5742	0.688	0.4906	0.085
Mof_H 	H 	0.5779	0.666	0.4576	-0.026
Mof_C 	C 	0.5358	0.7228	0.5704	-0.016
Mof_H 	H 	0.5102	0.7298	0.6017	0.031
Mof_C 	C 	0.5912	0.7507	0.555	0.006
Mof_H 	H 	0.6108	0.781	0.5752	0.002
Mof_C 	C 	0.7159	0.5953	0.251	0.015
Mof_C 	C 	0.6586	0.6365	0.256	-0
Mof_Zn	Zn	0.68796	0.25181	0.96204	1.175
Mof_N 	N 	0.7111	0.184	0.9161	-0.285
Mof_N 	N 	0.7419	0.1304	0.8463	-0.126
Mof_N 	N 	0.6691	0.1811	0.5864	-0.29
Mof_N 	N 	0.6333	0.1315	0.6562	-0.129
Mof_N 	N 	0.5554	0.02	0.1556	-0.12
Mof_N 	N 	0.5033	0.0206	0.2344	-0.281
Mof_N 	N 	0.6135	0.2279	0.0057	-0.285
Mof_N 	N 	0.527	0.1813	0.0277	-0.115
Mof_C 	C 	0.7341	0.1828	0.8646	0.099
Mof_H 	H 	0.7436	0.2168	0.8439	-0.023
Mof_C 	C 	0.7248	0.0903	0.8864	0.004
Mof_H 	H 	0.7272	0.049	0.8847	0.026
Mof_C 	C 	0.7041	0.1236	0.9284	-0.009
Mof_H 	H 	0.6871	0.1088	0.9617	0.008
Mof_C 	C 	0.7667	0.1166	0.791	0.012
Mof_C 	C 	0.7203	0.1323	0.7442	-0.028
Mof_C 	C 	0.6651	0.0889	0.7443	-0.02
Mof_C 	C 	0.6088	0.117	0.7138	0.014
Mof_C 	C 	0.6429	0.1851	0.6343	0.096
Mof_H 	H 	0.632	0.2207	0.6517	-0.026
Mof_C 	C 	0.6521	0.0954	0.622	0.025
Mof_H 	H 	0.6525	0.0544	0.6272	0.018
Mof_C 	C 	0.6729	0.1247	0.574	-0.005
Mof_H 	H 	0.6866	0.1079	0.5404	0.003
Mof_C 	C 	0.5053	0.9998	0.1816	0.07
Mof_H 	H 	0.4751	0.9746	0.1658	-0.019
Mof_C 	C 	0.558	0.0588	0.2402	-0.035
Mof_H 	H 	0.5697	0.0822	0.2707	0.017
Mof_C 	C 	0.5868	0.0525	0.1927	0.02
Mof_H 	H 	0.6264	0.0696	0.1851	0.021
Mof_C 	C 	0.5682	0.0085	0.0967	-0.044
Mof_H 	H 	0.5394	0.9777	0.0835	0.037
Mof_H 	H 	0.6116	0.994	0.0927	0.038
Mof_C 	C 	0.5598	0.0636	0.0606	-0.094
Mof_H 	H 	0.5658	0.0535	0.0214	0.048
Mof_H 	H 	0.5914	0.0932	0.0709	0.058
Mof_C 	C 	0.4937	0.0881	0.0694	-0.09
Mof_H 	H 	0.4626	0.0562	0.0669	0.048
Mof_H 	H 	0.4906	0.1055	0.1065	0.057
Mof_C 	C 	0.4793	0.1347	0.0253	-0.046
Mof_H 	H 	0.4372	0.1514	0.0319	0.038
Mof_H 	H 	0.4795	0.1166	0.9884	0.038
Mof_C 	C 	0.5742	0.188	0.9906	0.085
Mof_H 	H 	0.5779	0.166	0.9576	-0.026
Mof_C 	C 	0.5358	0.2228	0.0704	-0.016
Mof_H 	H 	0.5102	0.2298	0.1017	0.031
Mof_C 	C 	0.5912	0.2507	0.055	0.006
Mof_H 	H 	0.6108	0.281	0.0752	0.002
Mof_C 	C 	0.7159	0.0953	0.751	0.015
Mof_C 	C 	0.6586	0.1365	0.756	-0
Mof_Zn	Zn	0.18796	0.75181	0.96204	1.176
Mof_N 	N 	0.2111	0.684	0.9161	-0.285
Mof_N 	N 	0.2419	0.6304	0.8463	-0.126
Mof_N 	N 	0.1691	0.6811	0.5864	-0.289
Mof_N 	N 	0.1333	0.6315	0.6562	-0.128
Mof_N 	N 	0.0554	0.52	0.1556	-0.124
Mof_N 	N 	0.0033	0.5206	0.2344	-0.279
Mof_N 	N 	0.1135	0.7279	0.0057	-0.285
Mof_N 	N 	0.027	0.6813	0.0277	-0.105
Mof_C 	C 	0.2341	0.6828	0.8646	0.1
Mof_H 	H 	0.2436	0.7168	0.8439	-0.022
Mof_C 	C 	0.2248	0.5903	0.8864	0.004
Mof_H 	H 	0.2272	0.549	0.8847	0.026
Mof_C 	C 	0.2041	0.6236	0.9284	-0.008
Mof_H 	H 	0.1871	0.6088	0.9617	0.009
Mof_C 	C 	0.2667	0.6166	0.791	0.013
Mof_C 	C 	0.2203	0.6323	0.7442	-0.03
Mof_C 	C 	0.1651	0.5889	0.7443	-0.023
Mof_C 	C 	0.1088	0.617	0.7138	0.022
Mof_C 	C 	0.1429	0.6851	0.6343	0.099
Mof_H 	H 	0.132	0.7207	0.6517	-0.024
Mof_C 	C 	0.1521	0.5954	0.622	0.027
Mof_H 	H 	0.1525	0.5544	0.6272	0.02
Mof_C 	C 	0.1729	0.6247	0.574	-0.004
Mof_H 	H 	0.1866	0.6079	0.5404	0.004
Mof_C 	C 	0.0053	0.4998	0.1816	0.116
Mof_H 	H 	0.9751	0.4746	0.1658	-0.05
Mof_C 	C 	0.058	0.5588	0.2402	-0.031
Mof_H 	H 	0.0697	0.5822	0.2707	0.021
Mof_C 	C 	0.0868	0.5525	0.1927	0.02
Mof_H 	H 	0.1264	0.5696	0.1851	0.022
Mof_C 	C 	0.0682	0.5085	0.0967	-0.054
Mof_H 	H 	0.0394	0.4777	0.0835	0.048
Mof_H 	H 	0.1116	0.494	0.0927	0.042
Mof_C 	C 	0.0598	0.5636	0.0606	-0.059
Mof_H 	H 	0.0658	0.5535	0.0214	0.042
Mof_H 	H 	0.0914	0.5932	0.0709	0.05
Mof_C 	C 	0.9937	0.5881	0.0694	-0.12
Mof_H 	H 	0.9626	0.5562	0.0669	0.05
Mof_H 	H 	0.9906	0.6055	0.1065	0.056
Mof_C 	C 	0.9793	0.6347	0.0253	-0.057
Mof_H 	H 	0.9372	0.6514	0.0319	0.038
Mof_H 	H 	0.9795	0.6166	0.9884	0.034
Mof_C 	C 	0.0742	0.688	0.9906	0.088
Mof_H 	H 	0.0779	0.666	0.9576	-0.022
Mof_C 	C 	0.0358	0.7228	0.0704	-0.012
Mof_H 	H 	0.0102	0.7298	0.1017	0.039
Mof_C 	C 	0.0912	0.7507	0.055	0.008
Mof_H 	H 	0.1108	0.781	0.0752	0.004
Mof_C 	C 	0.2159	0.5953	0.751	0.019
Mof_C 	C 	0.1586	0.6365	0.756	0.003
Mof_Zn	Zn	0.18796	0.25181	0.46204	1.175
Mof_N 	N 	0.2111	0.184	0.4161	-0.285
Mof_N 	N 	0.2419	0.1304	0.3463	-0.126
Mof_N 	N 	0.1691	0.1811	0.0864	-0.289
Mof_N 	N 	0.1333	0.1315	0.1562	-0.128
Mof_N 	N 	0.0554	0.02	0.6556	-0.124
Mof_N 	N 	0.0033	0.0206	0.7344	-0.279
Mof_N 	N 	0.1135	0.2279	0.5057	-0.285
Mof_N 	N 	0.027	0.1813	0.5277	-0.104
Mof_C 	C 	0.2341	0.1828	0.3646	0.1
Mof_H 	H 	0.2436	0.2168	0.3439	-0.022
Mof_C 	C 	0.2248	0.0903	0.3864	0.004
Mof_H 	H 	0.2272	0.049	0.3847	0.026
Mof_C 	C 	0.2041	0.1236	0.4284	-0.008
Mof_H 	H 	0.1871	0.1088	0.4617	0.009
Mof_C 	C 	0.2667	0.1166	0.291	0.013
Mof_C 	C 	0.2203	0.1323	0.2442	-0.03
Mof_C 	C 	0.1651	0.0889	0.2443	-0.023
Mof_C 	C 	0.1088	0.117	0.2138	0.022
Mof_C 	C 	0.1429	0.1851	0.1343	0.099
Mof_H 	H 	0.132	0.2207	0.1517	-0.024
Mof_C 	C 	0.1521	0.0954	0.122	0.027
Mof_H 	H 	0.1525	0.0544	0.1272	0.02
Mof_C 	C 	0.1729	0.1247	0.074	-0.004
Mof_H 	H 	0.1866	0.1079	0.0404	0.004
Mof_C 	C 	0.0053	0.9998	0.6816	0.116
Mof_H 	H 	0.9751	0.9746	0.6658	-0.05
Mof_C 	C 	0.058	0.0588	0.7402	-0.031
Mof_H 	H 	0.0697	0.0822	0.7707	0.021
Mof_C 	C 	0.0868	0.0525	0.6927	0.02
Mof_H 	H 	0.1264	0.0696	0.6851	0.022
Mof_C 	C 	0.0682	0.0085	0.5967	-0.054
Mof_H 	H 	0.0394	0.9777	0.5835	0.048
Mof_H 	H 	0.1116	0.994	0.5927	0.043
Mof_C 	C 	0.0598	0.0636	0.5606	-0.059
Mof_H 	H 	0.0658	0.0535	0.5214	0.042
Mof_H 	H 	0.0914	0.0932	0.5709	0.05
Mof_C 	C 	0.9937	0.0881	0.5694	-0.12
Mof_H 	H 	0.9626	0.0562	0.5669	0.05
Mof_H 	H 	0.9906	0.1055	0.6065	0.056
Mof_C 	C 	0.9793	0.1347	0.5253	-0.057
Mof_H 	H 	0.9372	0.1514	0.5319	0.038
Mof_H 	H 	0.9795	0.1166	0.4884	0.033
Mof_C 	C 	0.0742	0.188	0.4906	0.088
Mof_H 	H 	0.0779	0.166	0.4576	-0.022
Mof_C 	C 	0.0358	0.2228	0.5704	-0.012
Mof_H 	H 	0.0102	0.2298	0.6017	0.039
Mof_C 	C 	0.0912	0.2507	0.555	0.009
Mof_H 	H 	0.1108	0.281	0.5752	0.004
Mof_C 	C 	0.2159	0.0953	0.251	0.019
Mof_C 	C 	0.1586	0.1365	0.256	0.003
_end
