data_functionalizedCrystal
_audit_creation_method	'EQeq! by Chris Wilmer'
_symmetry_space_group_name_H-M	'P1'
_symmetry_Int_Tables_number	1
_symmetry_cell_setting	triclinic
loop_
_symmetry_equiv_pos_as_xyz
  x,y,z
_cell_length_a	12.5059
_cell_length_b	26.1708
_cell_length_c	26.2509
_cell_angle_alpha	90
_cell_angle_beta	90
_cell_angle_gamma	90
loop_
_atom_site_label
_atom_site_type_symbol
_atom_site_fract_x
_atom_site_fract_y
_atom_site_fract_z
_atom_site_charge
Mof_Zn	Zn	0.41896	0.0066	0.45884	1.196
Mof_Zn	Zn	0.58104	0.9934	0.95884	1.194
Mof_Zn	Zn	0.58104	0.5066	0.04116	1.195
Mof_Zn	Zn	0.41896	0.4934	0.54116	1.195
Mof_Zn	Zn	0.58104	0.9934	0.54116	1.195
Mof_Zn	Zn	0.41896	0.0066	0.04116	1.194
Mof_Zn	Zn	0.41896	0.4934	0.95884	1.195
Mof_Zn	Zn	0.58104	0.5066	0.45884	1.195
Mof_Zn	Zn	0.51333	0.80343	0.75	1.201
Mof_Zn	Zn	0.34984	0.72066	0.75	1.192
Mof_Zn	Zn	0.48667	0.19657	0.25	1.201
Mof_Zn	Zn	0.65016	0.27934	0.25	1.192
Mof_Zn	Zn	0.48667	0.30343	0.75	1.201
Mof_Zn	Zn	0.65016	0.22066	0.75	1.192
Mof_Zn	Zn	0.51333	0.69657	0.25	1.201
Mof_Zn	Zn	0.34984	0.77934	0.25	1.192
Mof_H 	H 	0.0772	0.7399	0.5541	0.052
Mof_H 	H 	0.9836	0.7749	0.574	0.049
Mof_H 	H 	0.1622	0.7815	0.6185	0.086
Mof_H 	H 	0.3997	0.8849	0.6251	0.054
Mof_H 	H 	0.1957	0.8865	0.5078	0.091
Mof_H 	H 	0.9317	0.8238	0.4737	0.049
Mof_H 	H 	0.8397	0.8047	0.5099	0.05
Mof_H 	H 	0.7488	0.8667	0.4713	0.085
Mof_H 	H 	0.7129	0.7553	0.3667	0.09
Mof_H 	H 	0.5095	0.8737	0.3682	0.055
Mof_H 	H 	0.9228	0.2601	0.0541	0.051
Mof_H 	H 	0.0164	0.2251	0.074	0.049
Mof_H 	H 	0.8378	0.2185	0.1185	0.086
Mof_H 	H 	0.6003	0.1151	0.1251	0.054
Mof_H 	H 	0.8043	0.1135	0.0078	0.09
Mof_H 	H 	0.0683	0.1762	0.9737	0.048
Mof_H 	H 	0.1603	0.1953	0.0099	0.046
Mof_H 	H 	0.2512	0.1333	0.9713	0.086
Mof_H 	H 	0.2871	0.2447	0.8667	0.09
Mof_H 	H 	0.4905	0.1263	0.8682	0.055
Mof_H 	H 	0.9228	0.2399	0.9459	0.051
Mof_H 	H 	0.0164	0.2749	0.926	0.049
Mof_H 	H 	0.8378	0.2815	0.8815	0.086
Mof_H 	H 	0.6003	0.3849	0.8749	0.054
Mof_H 	H 	0.8043	0.3865	0.9922	0.091
Mof_H 	H 	0.0683	0.3238	0.0263	0.049
Mof_H 	H 	0.1603	0.3047	0.9901	0.051
Mof_H 	H 	0.2512	0.3667	0.0287	0.085
Mof_H 	H 	0.2871	0.2553	0.1333	0.09
Mof_H 	H 	0.4905	0.3737	0.1318	0.054
Mof_H 	H 	0.0772	0.7601	0.4459	0.052
Mof_H 	H 	0.9836	0.7251	0.426	0.049
Mof_H 	H 	0.1622	0.7185	0.3815	0.086
Mof_H 	H 	0.3997	0.6151	0.3749	0.054
Mof_H 	H 	0.1957	0.6135	0.4922	0.091
Mof_H 	H 	0.9317	0.6762	0.5263	0.049
Mof_H 	H 	0.8397	0.6953	0.4901	0.05
Mof_H 	H 	0.7488	0.6333	0.5287	0.085
Mof_H 	H 	0.7129	0.7447	0.6333	0.09
Mof_H 	H 	0.5095	0.6263	0.6318	0.055
Mof_H 	H 	0.9228	0.2601	0.4459	0.052
Mof_H 	H 	0.0164	0.2251	0.426	0.049
Mof_H 	H 	0.8378	0.2185	0.3815	0.086
Mof_H 	H 	0.6003	0.1151	0.3749	0.054
Mof_H 	H 	0.8043	0.1135	0.4922	0.091
Mof_H 	H 	0.0683	0.1762	0.5263	0.049
Mof_H 	H 	0.1603	0.1953	0.4901	0.05
Mof_H 	H 	0.2512	0.1333	0.5287	0.085
Mof_H 	H 	0.2871	0.2447	0.6333	0.09
Mof_H 	H 	0.4905	0.1263	0.6318	0.055
Mof_H 	H 	0.0772	0.7399	0.9459	0.052
Mof_H 	H 	0.9836	0.7749	0.926	0.049
Mof_H 	H 	0.1622	0.7815	0.8815	0.086
Mof_H 	H 	0.3997	0.8849	0.8749	0.054
Mof_H 	H 	0.1957	0.8865	0.9922	0.091
Mof_H 	H 	0.9317	0.8238	0.0263	0.049
Mof_H 	H 	0.8397	0.8047	0.9901	0.049
Mof_H 	H 	0.7488	0.8667	0.0287	0.085
Mof_H 	H 	0.7129	0.7553	0.1333	0.09
Mof_H 	H 	0.5095	0.8737	0.1318	0.055
Mof_H 	H 	0.0772	0.7601	0.0541	0.052
Mof_H 	H 	0.9836	0.7251	0.074	0.049
Mof_H 	H 	0.1622	0.7185	0.1185	0.086
Mof_H 	H 	0.3997	0.6151	0.1251	0.054
Mof_H 	H 	0.1957	0.6135	0.0078	0.091
Mof_H 	H 	0.9317	0.6762	0.9737	0.049
Mof_H 	H 	0.8397	0.6953	0.0099	0.05
Mof_H 	H 	0.7488	0.6333	0.9713	0.085
Mof_H 	H 	0.7129	0.7447	0.8667	0.09
Mof_H 	H 	0.5095	0.6263	0.8682	0.055
Mof_H 	H 	0.9228	0.2399	0.5541	0.052
Mof_H 	H 	0.0164	0.2749	0.574	0.05
Mof_H 	H 	0.8378	0.2815	0.6185	0.086
Mof_H 	H 	0.6003	0.3849	0.6251	0.054
Mof_H 	H 	0.8043	0.3865	0.5078	0.091
Mof_H 	H 	0.0683	0.3238	0.4737	0.049
Mof_H 	H 	0.1603	0.3047	0.5099	0.05
Mof_H 	H 	0.2512	0.3667	0.4713	0.085
Mof_H 	H 	0.2871	0.2553	0.3667	0.09
Mof_H 	H 	0.4905	0.3737	0.3682	0.055
Mof_C 	C 	0.3299	0.8054	0.67771	0.38
Mof_C 	C 	0.0279	0.76685	0.5447	-0.01
Mof_C 	C 	0.166	0.82945	0.55856	0.171
Mof_C 	C 	0.1985	0.80907	0.60441	-0.12
Mof_C 	C 	0.286	0.83011	0.62939	-0.045
Mof_C 	C 	0.3403	0.87139	0.60859	-0.012
Mof_C 	C 	0.3057	0.89236	0.5631	-0.048
Mof_C 	C 	0.2191	0.87206	0.53816	-0.109
Mof_C 	C 	0.3693	0.93501	0.53847	0.378
Mof_C 	C 	0.8877	0.79465	0.48269	-0.007
Mof_C 	C 	0.6223	0.87778	0.42339	-0.049
Mof_C 	C 	0.7123	0.85279	0.44376	-0.117
Mof_C 	C 	0.7459	0.80722	0.4223	0.173
Mof_C 	C 	0.6901	0.78594	0.38094	-0.109
Mof_C 	C 	0.5808	0.92528	0.44908	0.378
Mof_C 	C 	0.6017	0.8106	0.36153	-0.048
Mof_C 	C 	0.5681	0.85682	0.38207	-0.009
Mof_C 	C 	0.5392	0.78443	0.31919	0.384
Mof_C 	C 	0.6701	0.1946	0.17771	0.38
Mof_C 	C 	0.9721	0.23315	0.0447	-0.008
Mof_C 	C 	0.834	0.17055	0.05856	0.171
Mof_C 	C 	0.8015	0.19093	0.10441	-0.12
Mof_C 	C 	0.714	0.16989	0.12939	-0.044
Mof_C 	C 	0.6597	0.12861	0.10859	-0.013
Mof_C 	C 	0.6943	0.10764	0.0631	-0.047
Mof_C 	C 	0.7809	0.12794	0.03816	-0.11
Mof_C 	C 	0.6307	0.06499	0.03847	0.375
Mof_C 	C 	0.1123	0.20535	0.98269	-0
Mof_C 	C 	0.3777	0.12222	0.92339	-0.048
Mof_C 	C 	0.2877	0.14721	0.94376	-0.118
Mof_C 	C 	0.2541	0.19278	0.9223	0.174
Mof_C 	C 	0.3099	0.21406	0.88094	-0.11
Mof_C 	C 	0.4192	0.07472	0.94908	0.378
Mof_C 	C 	0.3983	0.1894	0.86153	-0.048
Mof_C 	C 	0.4319	0.14318	0.88207	-0.01
Mof_C 	C 	0.4608	0.21557	0.81919	0.384
Mof_C 	C 	0.6701	0.3054	0.82229	0.38
Mof_C 	C 	0.9721	0.26685	0.9553	-0.007
Mof_C 	C 	0.834	0.32945	0.94144	0.171
Mof_C 	C 	0.8015	0.30907	0.89559	-0.12
Mof_C 	C 	0.714	0.33011	0.87061	-0.045
Mof_C 	C 	0.6597	0.37139	0.89141	-0.012
Mof_C 	C 	0.6943	0.39236	0.9369	-0.048
Mof_C 	C 	0.7809	0.37206	0.96184	-0.109
Mof_C 	C 	0.6307	0.43501	0.96153	0.379
Mof_C 	C 	0.1123	0.29465	0.01731	-0.008
Mof_C 	C 	0.3777	0.37778	0.07661	-0.049
Mof_C 	C 	0.2877	0.35279	0.05624	-0.117
Mof_C 	C 	0.2541	0.30722	0.0777	0.172
Mof_C 	C 	0.3099	0.28594	0.11906	-0.109
Mof_C 	C 	0.4192	0.42528	0.05092	0.379
Mof_C 	C 	0.3983	0.3106	0.13847	-0.049
Mof_C 	C 	0.4319	0.35682	0.11793	-0.009
Mof_C 	C 	0.4608	0.28443	0.18081	0.384
Mof_C 	C 	0.3299	0.6946	0.32229	0.38
Mof_C 	C 	0.0279	0.73315	0.4553	-0.01
Mof_C 	C 	0.166	0.67055	0.44144	0.171
Mof_C 	C 	0.1985	0.69093	0.39559	-0.12
Mof_C 	C 	0.286	0.66989	0.37061	-0.045
Mof_C 	C 	0.3403	0.62861	0.39141	-0.012
Mof_C 	C 	0.3057	0.60764	0.4369	-0.048
Mof_C 	C 	0.2191	0.62794	0.46184	-0.109
Mof_C 	C 	0.3693	0.56499	0.46153	0.378
Mof_C 	C 	0.8877	0.70535	0.51731	-0.007
Mof_C 	C 	0.6223	0.62222	0.57661	-0.049
Mof_C 	C 	0.7123	0.64721	0.55624	-0.117
Mof_C 	C 	0.7459	0.69278	0.5777	0.173
Mof_C 	C 	0.6901	0.71406	0.61906	-0.109
Mof_C 	C 	0.5808	0.57472	0.55092	0.379
Mof_C 	C 	0.6017	0.6894	0.63847	-0.048
Mof_C 	C 	0.5681	0.64318	0.61793	-0.009
Mof_C 	C 	0.5392	0.71557	0.68081	0.384
Mof_C 	C 	0.6701	0.1946	0.32229	0.38
Mof_C 	C 	0.9721	0.23315	0.4553	-0.011
Mof_C 	C 	0.834	0.17055	0.44144	0.171
Mof_C 	C 	0.8015	0.19093	0.39559	-0.12
Mof_C 	C 	0.714	0.16989	0.37061	-0.045
Mof_C 	C 	0.6597	0.12861	0.39141	-0.012
Mof_C 	C 	0.6943	0.10764	0.4369	-0.048
Mof_C 	C 	0.7809	0.12794	0.46184	-0.109
Mof_C 	C 	0.6307	0.06499	0.46153	0.378
Mof_C 	C 	0.1123	0.20535	0.51731	-0.008
Mof_C 	C 	0.3777	0.12222	0.57661	-0.049
Mof_C 	C 	0.2877	0.14721	0.55624	-0.117
Mof_C 	C 	0.2541	0.19278	0.5777	0.173
Mof_C 	C 	0.3099	0.21406	0.61906	-0.109
Mof_C 	C 	0.4192	0.07472	0.55092	0.378
Mof_C 	C 	0.3983	0.1894	0.63847	-0.048
Mof_C 	C 	0.4319	0.14318	0.61793	-0.009
Mof_C 	C 	0.4608	0.21557	0.68081	0.384
Mof_C 	C 	0.3299	0.8054	0.82229	0.38
Mof_C 	C 	0.0279	0.76685	0.9553	-0.01
Mof_C 	C 	0.166	0.82945	0.94144	0.171
Mof_C 	C 	0.1985	0.80907	0.89559	-0.12
Mof_C 	C 	0.286	0.83011	0.87061	-0.044
Mof_C 	C 	0.3403	0.87139	0.89141	-0.012
Mof_C 	C 	0.3057	0.89236	0.9369	-0.047
Mof_C 	C 	0.2191	0.87206	0.96184	-0.109
Mof_C 	C 	0.3693	0.93501	0.96153	0.376
Mof_C 	C 	0.8877	0.79465	0.01731	-0.006
Mof_C 	C 	0.6223	0.87778	0.07661	-0.048
Mof_C 	C 	0.7123	0.85279	0.05624	-0.117
Mof_C 	C 	0.7459	0.80722	0.0777	0.173
Mof_C 	C 	0.6901	0.78594	0.11906	-0.109
Mof_C 	C 	0.5808	0.92528	0.05092	0.378
Mof_C 	C 	0.6017	0.8106	0.13847	-0.048
Mof_C 	C 	0.5681	0.85682	0.11793	-0.009
Mof_C 	C 	0.5392	0.78443	0.18081	0.384
Mof_C 	C 	0.3299	0.6946	0.17771	0.38
Mof_C 	C 	0.0279	0.73315	0.0447	-0.01
Mof_C 	C 	0.166	0.67055	0.05856	0.171
Mof_C 	C 	0.1985	0.69093	0.10441	-0.12
Mof_C 	C 	0.286	0.66989	0.12939	-0.045
Mof_C 	C 	0.3403	0.62861	0.10859	-0.012
Mof_C 	C 	0.3057	0.60764	0.0631	-0.048
Mof_C 	C 	0.2191	0.62794	0.03816	-0.109
Mof_C 	C 	0.3693	0.56499	0.03847	0.377
Mof_C 	C 	0.8877	0.70535	0.98269	-0.008
Mof_C 	C 	0.6223	0.62222	0.92339	-0.049
Mof_C 	C 	0.7123	0.64721	0.94376	-0.117
Mof_C 	C 	0.7459	0.69278	0.9223	0.173
Mof_C 	C 	0.6901	0.71406	0.88094	-0.109
Mof_C 	C 	0.5808	0.57472	0.94908	0.378
Mof_C 	C 	0.6017	0.6894	0.86153	-0.048
Mof_C 	C 	0.5681	0.64318	0.88207	-0.009
Mof_C 	C 	0.5392	0.71557	0.81919	0.384
Mof_C 	C 	0.6701	0.3054	0.67771	0.38
Mof_C 	C 	0.9721	0.26685	0.5447	-0.011
Mof_C 	C 	0.834	0.32945	0.55856	0.171
Mof_C 	C 	0.8015	0.30907	0.60441	-0.12
Mof_C 	C 	0.714	0.33011	0.62939	-0.045
Mof_C 	C 	0.6597	0.37139	0.60859	-0.012
Mof_C 	C 	0.6943	0.39236	0.5631	-0.048
Mof_C 	C 	0.7809	0.37206	0.53816	-0.109
Mof_C 	C 	0.6307	0.43501	0.53847	0.378
Mof_C 	C 	0.1123	0.29465	0.48269	-0.008
Mof_C 	C 	0.3777	0.37778	0.42339	-0.049
Mof_C 	C 	0.2877	0.35279	0.44376	-0.117
Mof_C 	C 	0.2541	0.30722	0.4223	0.173
Mof_C 	C 	0.3099	0.28594	0.38094	-0.109
Mof_C 	C 	0.4192	0.42528	0.44908	0.379
Mof_C 	C 	0.3983	0.3106	0.36153	-0.048
Mof_C 	C 	0.4319	0.35682	0.38207	-0.009
Mof_C 	C 	0.4608	0.28443	0.31919	0.384
Mof_C 	C 	0.9585	0.75	0.5	0.031
Mof_C 	C 	0.0415	0.25	-0	0.027
Mof_C 	C 	0.0415	0.25	0.5	0.032
Mof_C 	C 	0.9585	0.75	-0	0.031
Mof_O 	O 	0.4103	0.82737	0.69716	-0.484
Mof_O 	O 	0.2862	0.76619	0.69414	-0.473
Mof_O 	O 	0.0853	0.81112	0.52835	-0.22
Mof_O 	O 	0.333	0.95461	0.49829	-0.469
Mof_O 	O 	0.4549	0.94715	0.56008	-0.483
Mof_O 	O 	0.8281	0.77807	0.43958	-0.223
Mof_O 	O 	0.6259	0.93866	0.48937	-0.474
Mof_O 	O 	0.4559	0.80614	0.30424	-0.471
Mof_O 	O 	0.5022	0.94693	0.42823	-0.469
Mof_O 	O 	0.5761	0.74294	0.30368	-0.481
Mof_O 	O 	0.5897	0.17263	0.19716	-0.484
Mof_O 	O 	0.7138	0.23381	0.19414	-0.473
Mof_O 	O 	0.9147	0.18888	0.02835	-0.221
Mof_O 	O 	0.667	0.04539	0.99829	-0.466
Mof_O 	O 	0.5451	0.05285	0.06008	-0.483
Mof_O 	O 	0.1719	0.22193	0.93958	-0.224
Mof_O 	O 	0.3741	0.06134	0.98937	-0.473
Mof_O 	O 	0.5441	0.19386	0.80424	-0.471
Mof_O 	O 	0.4978	0.05307	0.92823	-0.469
Mof_O 	O 	0.4239	0.25706	0.80368	-0.481
Mof_O 	O 	0.5897	0.32737	0.80284	-0.484
Mof_O 	O 	0.7138	0.26619	0.80586	-0.473
Mof_O 	O 	0.9147	0.31112	0.97165	-0.22
Mof_O 	O 	0.667	0.45461	0.00171	-0.471
Mof_O 	O 	0.5451	0.44715	0.93992	-0.483
Mof_O 	O 	0.1719	0.27807	0.06042	-0.223
Mof_O 	O 	0.3741	0.43866	0.01063	-0.475
Mof_O 	O 	0.5441	0.30614	0.19576	-0.472
Mof_O 	O 	0.4978	0.44693	0.07177	-0.47
Mof_O 	O 	0.4239	0.24294	0.19632	-0.481
Mof_O 	O 	0.4103	0.67263	0.30284	-0.484
Mof_O 	O 	0.2862	0.73381	0.30586	-0.473
Mof_O 	O 	0.0853	0.68888	0.47165	-0.22
Mof_O 	O 	0.333	0.54539	0.50171	-0.469
Mof_O 	O 	0.4549	0.55285	0.43992	-0.483
Mof_O 	O 	0.8281	0.72193	0.56042	-0.223
Mof_O 	O 	0.6259	0.56134	0.51063	-0.475
Mof_O 	O 	0.4559	0.69386	0.69576	-0.472
Mof_O 	O 	0.5022	0.55307	0.57177	-0.47
Mof_O 	O 	0.5761	0.75706	0.69632	-0.481
Mof_O 	O 	0.5897	0.17263	0.30284	-0.484
Mof_O 	O 	0.7138	0.23381	0.30586	-0.473
Mof_O 	O 	0.9147	0.18888	0.47165	-0.22
Mof_O 	O 	0.667	0.04539	0.50171	-0.469
Mof_O 	O 	0.5451	0.05285	0.43992	-0.483
Mof_O 	O 	0.1719	0.22193	0.56042	-0.223
Mof_O 	O 	0.3741	0.06134	0.51063	-0.474
Mof_O 	O 	0.5441	0.19386	0.69576	-0.471
Mof_O 	O 	0.4978	0.05307	0.57177	-0.469
Mof_O 	O 	0.4239	0.25706	0.69632	-0.481
Mof_O 	O 	0.4103	0.82737	0.80284	-0.484
Mof_O 	O 	0.2862	0.76619	0.80586	-0.473
Mof_O 	O 	0.0853	0.81112	0.97165	-0.22
Mof_O 	O 	0.333	0.95461	0.00171	-0.468
Mof_O 	O 	0.4549	0.94715	0.93992	-0.483
Mof_O 	O 	0.8281	0.77807	0.06042	-0.223
Mof_O 	O 	0.6259	0.93866	0.01063	-0.474
Mof_O 	O 	0.4559	0.80614	0.19576	-0.471
Mof_O 	O 	0.5022	0.94693	0.07177	-0.469
Mof_O 	O 	0.5761	0.74294	0.19632	-0.481
Mof_O 	O 	0.4103	0.67263	0.19716	-0.484
Mof_O 	O 	0.2862	0.73381	0.19414	-0.473
Mof_O 	O 	0.0853	0.68888	0.02835	-0.22
Mof_O 	O 	0.333	0.54539	0.99829	-0.469
Mof_O 	O 	0.4549	0.55285	0.06008	-0.483
Mof_O 	O 	0.8281	0.72193	0.93958	-0.223
Mof_O 	O 	0.6259	0.56134	0.98937	-0.474
Mof_O 	O 	0.4559	0.69386	0.80424	-0.472
Mof_O 	O 	0.5022	0.55307	0.92823	-0.47
Mof_O 	O 	0.5761	0.75706	0.80368	-0.481
Mof_O 	O 	0.5897	0.32737	0.69716	-0.484
Mof_O 	O 	0.7138	0.26619	0.69414	-0.473
Mof_O 	O 	0.9147	0.31112	0.52835	-0.22
Mof_O 	O 	0.667	0.45461	0.49829	-0.469
Mof_O 	O 	0.5451	0.44715	0.56008	-0.483
Mof_O 	O 	0.1719	0.27807	0.43958	-0.223
Mof_O 	O 	0.3741	0.43866	0.48937	-0.475
Mof_O 	O 	0.5441	0.30614	0.30424	-0.472
Mof_O 	O 	0.4978	0.44693	0.42823	-0.47
Mof_O 	O 	0.4239	0.24294	0.30368	-0.481
_end
