data_functionalizedCrystal
_audit_creation_method	'EQeq! by Chris Wilmer'
_symmetry_space_group_name_H-M	'P1'
_symmetry_Int_Tables_number	1
_symmetry_cell_setting	triclinic
loop_
_symmetry_equiv_pos_as_xyz
  x,y,z
_cell_length_a	14.309
_cell_length_b	14.309
_cell_length_c	63.9
_cell_angle_alpha	90
_cell_angle_beta	90
_cell_angle_gamma	90
loop_
_atom_site_label
_atom_site_type_symbol
_atom_site_fract_x
_atom_site_fract_y
_atom_site_fract_z
_atom_site_charge
Mof_Sm	Sm	0.52019	0.27694	0.56202	2.243
Mof_O 	O 	0.8711	0.4597	0.42877	-0.671
Mof_O 	O 	0.6161	0.2818	0.53172	-0.552
Mof_O 	O 	0.5944	0.1315	0.53439	-0.651
Mof_O 	O 	0.9035	0.374	0.4705	-0.539
Mof_O 	O 	0.7544	0.405	0.46395	-0.546
Mof_O 	O 	0.8199	0.3692	0.32949	-0.433
Mof_O 	O 	0.821	0.4947	0.34865	-0.503
Mof_O 	O 	0.4914	0.4266	0.54916	-0.649
Mof_O 	O 	0.0051	0.3861	0.43044	-0.593
Mof_C 	C 	0.6333	0.2008	0.52549	0.493
Mof_C 	C 	0.701	0.1875	0.50788	-0.269
Mof_C 	C 	0.7258	0.2661	0.49663	0.17
Mof_H 	H 	0.6977	0.323	0.4998	-0.006
Mof_C 	C 	0.7911	0.2626	0.48075	-0.236
Mof_C 	C 	0.8186	0.3547	0.47056	0.536
Mof_C 	C 	0.8293	0.1766	0.47542	0.157
Mof_C 	C 	0.8023	0.0977	0.48654	-0.233
Mof_H 	H 	0.8278	0.0399	0.4831	0.09
Mof_C 	C 	0.7371	0.1039	0.50294	0.162
Mof_H 	H 	0.7192	0.0507	0.5103	-0.056
Mof_C 	C 	0.8945	0.1668	0.45726	-0.058
Mof_C 	C 	0.8732	0.2079	0.43752	-0.046
Mof_H 	H 	0.8178	0.241	0.4358	0.047
Mof_C 	C 	0.9339	0.1991	0.42086	0.053
Mof_C 	C 	0.9139	0.2514	0.40144	0.113
Mof_C 	C 	0.9062	0.3472	0.4021	-0.22
Mof_C 	C 	0.8811	0.3979	0.38434	0.134
Mof_H 	H 	0.875	0.4625	0.3852	-0.007
Mof_C 	C 	0.8651	0.3532	0.36565	-0.158
Mof_C 	C 	0.8352	0.4105	0.3468	0.374
Mof_C 	C 	0.8729	0.2571	0.36502	0.096
Mof_H 	H 	0.8621	0.2259	0.3525	0.005
Mof_C 	C 	0.8956	0.2076	0.38212	-0.169
Mof_H 	H 	0.8992	0.1428	0.3812	0.082
Mof_C 	C 	0.0156	0.1495	0.42326	-0.12
Mof_H 	H 	0.0557	0.1426	0.4119	0.026
Mof_C 	C 	0.039	0.1098	0.44238	-0.158
Mof_H 	H 	0.0949	0.0775	0.4439	0.043
Mof_C 	C 	0.979	0.1186	0.45905	0.083
Mof_H 	H 	0.995	0.0919	0.4718	0.01
Mof_C 	C 	0.9295	0.4012	0.42185	0.588
Mof_Sm	Sm	0.02019	0.77694	0.06202	1.97
Mof_O 	O 	0.3711	0.9597	0.92877	-0.57
Mof_O 	O 	0.1161	0.7818	0.03172	-0.533
Mof_O 	O 	0.0944	0.6315	0.03439	-0.645
Mof_O 	O 	0.4035	0.874	0.9705	-0.54
Mof_O 	O 	0.2544	0.905	0.96395	-0.485
Mof_O 	O 	0.3199	0.8692	0.82949	-0.396
Mof_O 	O 	0.321	0.9947	0.84865	-0.442
Mof_O 	O 	0.9914	0.9266	0.04916	-0.403
Mof_O 	O 	0.5051	0.8861	0.93044	-0.473
Mof_C 	C 	0.1333	0.7008	0.02549	0.481
Mof_C 	C 	0.201	0.6875	0.00788	-0.253
Mof_C 	C 	0.2258	0.7661	0.99663	0.152
Mof_H 	H 	0.1977	0.823	0.9998	0.002
Mof_C 	C 	0.2911	0.7626	0.98075	-0.22
Mof_C 	C 	0.3186	0.8547	0.97056	0.516
Mof_C 	C 	0.3293	0.6766	0.97542	0.13
Mof_C 	C 	0.3023	0.5977	0.98654	-0.212
Mof_H 	H 	0.3278	0.5399	0.9831	0.096
Mof_C 	C 	0.2371	0.6039	0.00294	0.144
Mof_H 	H 	0.2192	0.5507	0.0103	-0.031
Mof_C 	C 	0.3945	0.6668	0.95726	-0.017
Mof_C 	C 	0.3732	0.7079	0.93752	-0.055
Mof_H 	H 	0.3178	0.741	0.9358	0.053
Mof_C 	C 	0.4339	0.6991	0.92086	-0.004
Mof_C 	C 	0.4139	0.7514	0.90144	0.097
Mof_C 	C 	0.4062	0.8472	0.9021	-0.178
Mof_C 	C 	0.3811	0.8979	0.88434	0.098
Mof_H 	H 	0.375	0.9625	0.8852	0.016
Mof_C 	C 	0.3651	0.8532	0.86565	-0.138
Mof_C 	C 	0.3352	0.9105	0.8468	0.354
Mof_C 	C 	0.3729	0.7571	0.86502	0.077
Mof_H 	H 	0.3621	0.7259	0.8525	0.009
Mof_C 	C 	0.3956	0.7076	0.88212	-0.16
Mof_H 	H 	0.3992	0.6428	0.8812	0.077
Mof_C 	C 	0.5156	0.6495	0.92326	-0.061
Mof_H 	H 	0.5557	0.6426	0.9119	0.042
Mof_C 	C 	0.539	0.6098	0.94238	-0.026
Mof_H 	H 	0.5949	0.5775	0.9439	0.033
Mof_C 	C 	0.479	0.6186	0.95905	-0.055
Mof_H 	H 	0.495	0.5919	0.9718	0.044
Mof_C 	C 	0.4295	0.9012	0.92185	0.463
Mof_Sm	Sm	0.47981	0.72306	0.56202	2.26
Mof_O 	O 	0.1289	0.5403	0.42877	-0.634
Mof_O 	O 	0.3839	0.7182	0.53172	-0.554
Mof_O 	O 	0.4056	0.8685	0.53439	-0.623
Mof_O 	O 	0.0965	0.626	0.4705	-0.597
Mof_O 	O 	0.2456	0.595	0.46395	-0.545
Mof_O 	O 	0.1801	0.6308	0.32949	-0.439
Mof_O 	O 	0.179	0.5053	0.34865	-0.523
Mof_O 	O 	0.5086	0.5734	0.54916	-0.65
Mof_O 	O 	0.9949	0.6139	0.43044	-0.409
Mof_C 	C 	0.3667	0.7992	0.52549	0.486
Mof_C 	C 	0.299	0.8125	0.50788	-0.246
Mof_C 	C 	0.2742	0.7339	0.49663	0.155
Mof_H 	H 	0.3023	0.677	0.4998	-0.004
Mof_C 	C 	0.2089	0.7374	0.48075	-0.231
Mof_C 	C 	0.1814	0.6453	0.47056	0.538
Mof_C 	C 	0.1707	0.8234	0.47542	0.123
Mof_C 	C 	0.1977	0.9023	0.48654	-0.202
Mof_H 	H 	0.1722	0.9601	0.4831	0.11
Mof_C 	C 	0.2629	0.8961	0.50294	0.144
Mof_H 	H 	0.2808	0.9493	0.5103	-0.006
Mof_C 	C 	0.1055	0.8332	0.45726	0.008
Mof_C 	C 	0.1268	0.7921	0.43752	-0.041
Mof_H 	H 	0.1822	0.759	0.4358	0.052
Mof_C 	C 	0.0661	0.8009	0.42086	-0.084
Mof_C 	C 	0.0861	0.7486	0.40144	0.116
Mof_C 	C 	0.0938	0.6528	0.4021	-0.197
Mof_C 	C 	0.1189	0.6021	0.38434	0.107
Mof_H 	H 	0.125	0.5375	0.3852	-0.018
Mof_C 	C 	0.1349	0.6468	0.36565	-0.171
Mof_C 	C 	0.1648	0.5895	0.3468	0.368
Mof_C 	C 	0.1271	0.7429	0.36502	0.098
Mof_H 	H 	0.1379	0.7741	0.3525	-0.001
Mof_C 	C 	0.1044	0.7924	0.38212	-0.193
Mof_H 	H 	0.1008	0.8572	0.3812	0.089
Mof_C 	C 	0.9844	0.8505	0.42326	0.016
Mof_H 	H 	0.9443	0.8574	0.4119	0.044
Mof_C 	C 	0.961	0.8902	0.44238	0.082
Mof_H 	H 	0.9051	0.9225	0.4439	0.024
Mof_C 	C 	0.021	0.8814	0.45905	-0.171
Mof_H 	H 	0.005	0.9081	0.4718	0.07
Mof_C 	C 	0.0705	0.5988	0.42185	0.391
Mof_Sm	Sm	0.97981	0.22306	0.06202	2.516
Mof_O 	O 	0.6289	0.0403	0.92877	-0.724
Mof_O 	O 	0.8839	0.2182	0.03172	-0.571
Mof_O 	O 	0.9056	0.3685	0.03439	-0.624
Mof_O 	O 	0.5965	0.126	0.9705	-0.592
Mof_O 	O 	0.7456	0.095	0.96395	-0.604
Mof_O 	O 	0.6801	0.1308	0.82949	-0.476
Mof_O 	O 	0.679	0.0053	0.84865	-0.58
Mof_O 	O 	0.0086	0.0734	0.04916	-0.648
Mof_O 	O 	0.4949	0.1139	0.93044	-0.524
Mof_C 	C 	0.8667	0.2992	0.02549	0.496
Mof_C 	C 	0.799	0.3125	0.00788	-0.26
Mof_C 	C 	0.7742	0.2339	0.99663	0.173
Mof_H 	H 	0.8023	0.177	0.9998	-0.012
Mof_C 	C 	0.7089	0.2374	0.98075	-0.246
Mof_C 	C 	0.6814	0.1453	0.97056	0.556
Mof_C 	C 	0.6707	0.3234	0.97542	0.148
Mof_C 	C 	0.6977	0.4023	0.98654	-0.221
Mof_H 	H 	0.6722	0.4601	0.9831	0.104
Mof_C 	C 	0.7629	0.3961	0.00294	0.161
Mof_H 	H 	0.7808	0.4493	0.0103	-0.03
Mof_C 	C 	0.6055	0.3332	0.95726	-0.03
Mof_C 	C 	0.6268	0.2921	0.93752	-0.033
Mof_H 	H 	0.6822	0.259	0.9358	0.047
Mof_C 	C 	0.5661	0.3009	0.92086	-0.027
Mof_C 	C 	0.5861	0.2486	0.90144	0.13
Mof_C 	C 	0.5938	0.1528	0.9021	-0.237
Mof_C 	C 	0.6189	0.1021	0.88434	0.14
Mof_H 	H 	0.625	0.0375	0.8852	-0.038
Mof_C 	C 	0.6349	0.1468	0.86565	-0.189
Mof_C 	C 	0.6648	0.0895	0.8468	0.385
Mof_C 	C 	0.6271	0.2429	0.86502	0.115
Mof_H 	H 	0.6379	0.2741	0.8525	-0.005
Mof_C 	C 	0.6044	0.2924	0.88212	-0.2
Mof_H 	H 	0.6008	0.3572	0.8812	0.092
Mof_C 	C 	0.4844	0.3505	0.92326	-0.043
Mof_H 	H 	0.4443	0.3574	0.9119	0.029
Mof_C 	C 	0.461	0.3902	0.94238	-0.041
Mof_H 	H 	0.4051	0.4225	0.9439	0.033
Mof_C 	C 	0.521	0.3814	0.95905	-0.041
Mof_H 	H 	0.505	0.4081	0.9718	0.038
Mof_C 	C 	0.5705	0.0988	0.92185	0.511
Mof_Sm	Sm	0.27694	0.47981	0.43798	2.229
Mof_O 	O 	0.4597	0.1289	0.57123	-0.634
Mof_O 	O 	0.2818	0.3839	0.46828	-0.555
Mof_O 	O 	0.1315	0.4056	0.46561	-0.651
Mof_O 	O 	0.374	0.0965	0.5295	-0.598
Mof_O 	O 	0.405	0.2456	0.53605	-0.549
Mof_O 	O 	0.3692	0.1801	0.67051	-0.445
Mof_O 	O 	0.4947	0.179	0.65135	-0.52
Mof_O 	O 	0.4266	0.5086	0.45084	-0.647
Mof_O 	O 	0.3861	0.9949	0.56956	-0.409
Mof_C 	C 	0.2008	0.3667	0.47451	0.488
Mof_C 	C 	0.1875	0.299	0.49212	-0.264
Mof_C 	C 	0.2661	0.2742	0.50337	0.158
Mof_H 	H 	0.323	0.3023	0.5002	-0.007
Mof_C 	C 	0.2626	0.2089	0.51925	-0.237
Mof_C 	C 	0.3547	0.1814	0.52944	0.54
Mof_C 	C 	0.1766	0.1707	0.52458	0.116
Mof_C 	C 	0.0977	0.1977	0.51346	-0.216
Mof_H 	H 	0.0399	0.1722	0.5169	0.07
Mof_C 	C 	0.1039	0.2629	0.49706	0.142
Mof_H 	H 	0.0507	0.2808	0.4897	-0.052
Mof_C 	C 	0.1668	0.1055	0.54274	-0.005
Mof_C 	C 	0.2079	0.1268	0.56248	-0.046
Mof_H 	H 	0.241	0.1822	0.5642	0.047
Mof_C 	C 	0.1991	0.0661	0.57914	-0.096
Mof_C 	C 	0.2514	0.0861	0.59856	0.108
Mof_C 	C 	0.3472	0.0938	0.5979	-0.195
Mof_C 	C 	0.3979	0.1189	0.61566	0.102
Mof_H 	H 	0.4625	0.125	0.6148	-0.015
Mof_C 	C 	0.3532	0.1349	0.63435	-0.17
Mof_C 	C 	0.4105	0.1648	0.6532	0.366
Mof_C 	C 	0.2571	0.1271	0.63498	0.089
Mof_H 	H 	0.2259	0.1379	0.6475	-0.012
Mof_C 	C 	0.2076	0.1044	0.61788	-0.191
Mof_H 	H 	0.1428	0.1008	0.6188	0.061
Mof_C 	C 	0.1495	0.9844	0.57674	0.01
Mof_H 	H 	0.1426	0.9443	0.5881	0.024
Mof_C 	C 	0.1098	0.961	0.55762	0.07
Mof_H 	H 	0.0775	0.9051	0.5561	-0.011
Mof_C 	C 	0.1186	0.021	0.54095	-0.187
Mof_H 	H 	0.0919	0.005	0.5282	0.043
Mof_C 	C 	0.4012	0.0705	0.57815	0.389
Mof_Sm	Sm	0.77694	0.97981	0.93798	2.546
Mof_O 	O 	0.9597	0.6289	0.07123	-0.578
Mof_O 	O 	0.7818	0.8839	0.96828	-0.554
Mof_O 	O 	0.6315	0.9056	0.96561	-0.622
Mof_O 	O 	0.874	0.5965	0.0295	-0.541
Mof_O 	O 	0.905	0.7456	0.03605	-0.484
Mof_O 	O 	0.8692	0.6801	0.17051	-0.4
Mof_O 	O 	0.9947	0.679	0.15135	-0.443
Mof_O 	O 	0.9266	0.0086	0.95084	-0.57
Mof_O 	O 	0.8861	0.4949	0.06956	-0.475
Mof_C 	C 	0.7008	0.8667	0.97451	0.489
Mof_C 	C 	0.6875	0.799	0.99212	-0.237
Mof_C 	C 	0.7661	0.7742	0.00337	0.149
Mof_H 	H 	0.823	0.8023	0.0002	0.016
Mof_C 	C 	0.7626	0.7089	0.01925	-0.212
Mof_C 	C 	0.8547	0.6814	0.02944	0.516
Mof_C 	C 	0.6766	0.6707	0.02458	0.128
Mof_C 	C 	0.5977	0.6977	0.01346	-0.202
Mof_H 	H 	0.5399	0.6722	0.0169	0.097
Mof_C 	C 	0.6039	0.7629	0.99706	0.143
Mof_H 	H 	0.5507	0.7808	0.9897	-0.023
Mof_C 	C 	0.6668	0.6055	0.04274	-0.012
Mof_C 	C 	0.7079	0.6268	0.06248	-0.055
Mof_H 	H 	0.741	0.6822	0.0642	0.058
Mof_C 	C 	0.6991	0.5661	0.07914	-0.002
Mof_C 	C 	0.7514	0.5861	0.09856	0.097
Mof_C 	C 	0.8472	0.5938	0.0979	-0.18
Mof_C 	C 	0.8979	0.6189	0.11566	0.098
Mof_H 	H 	0.9625	0.625	0.1148	0.016
Mof_C 	C 	0.8532	0.6349	0.13435	-0.139
Mof_C 	C 	0.9105	0.6648	0.1532	0.353
Mof_C 	C 	0.7571	0.6271	0.13498	0.077
Mof_H 	H 	0.7259	0.6379	0.1475	0.009
Mof_C 	C 	0.7076	0.6044	0.11788	-0.161
Mof_H 	H 	0.6428	0.6008	0.1188	0.079
Mof_C 	C 	0.6495	0.4844	0.07674	-0.063
Mof_H 	H 	0.6426	0.4443	0.0881	0.038
Mof_C 	C 	0.6098	0.461	0.05762	-0.024
Mof_H 	H 	0.5775	0.4051	0.0561	0.026
Mof_C 	C 	0.6186	0.521	0.04095	-0.059
Mof_H 	H 	0.5919	0.505	0.0282	0.044
Mof_C 	C 	0.9012	0.5705	0.07815	0.466
Mof_Sm	Sm	0.72306	0.52019	0.43798	2.273
Mof_O 	O 	0.5403	0.8711	0.57123	-0.67
Mof_O 	O 	0.7182	0.6161	0.46828	-0.551
Mof_O 	O 	0.8685	0.5944	0.46561	-0.623
Mof_O 	O 	0.626	0.9035	0.5295	-0.538
Mof_O 	O 	0.595	0.7544	0.53605	-0.542
Mof_O 	O 	0.6308	0.8199	0.67051	-0.428
Mof_O 	O 	0.5053	0.821	0.65135	-0.506
Mof_O 	O 	0.5734	0.4914	0.45084	-0.652
Mof_O 	O 	0.6139	0.0051	0.56956	-0.59
Mof_C 	C 	0.7992	0.6333	0.47451	0.49
Mof_C 	C 	0.8125	0.701	0.49212	-0.25
Mof_C 	C 	0.7339	0.7258	0.50337	0.166
Mof_H 	H 	0.677	0.6977	0.5002	-0.003
Mof_C 	C 	0.7374	0.7911	0.51925	-0.23
Mof_C 	C 	0.6453	0.8186	0.52944	0.534
Mof_C 	C 	0.8234	0.8293	0.52458	0.161
Mof_C 	C 	0.9023	0.8023	0.51346	-0.218
Mof_H 	H 	0.9601	0.8278	0.5169	0.128
Mof_C 	C 	0.8961	0.7371	0.49706	0.162
Mof_H 	H 	0.9493	0.7192	0.4897	-0.011
Mof_C 	C 	0.8332	0.8945	0.54274	-0.042
Mof_C 	C 	0.7921	0.8732	0.56248	-0.042
Mof_H 	H 	0.759	0.8178	0.5642	0.052
Mof_C 	C 	0.8009	0.9339	0.57914	0.06
Mof_C 	C 	0.7486	0.9139	0.59856	0.121
Mof_C 	C 	0.6528	0.9062	0.5979	-0.222
Mof_C 	C 	0.6021	0.8811	0.61566	0.137
Mof_H 	H 	0.5375	0.875	0.6148	-0.009
Mof_C 	C 	0.6468	0.8651	0.63435	-0.159
Mof_C 	C 	0.5895	0.8352	0.6532	0.375
Mof_C 	C 	0.7429	0.8729	0.63498	0.104
Mof_H 	H 	0.7741	0.8621	0.6475	0.015
Mof_C 	C 	0.7924	0.8956	0.61788	-0.171
Mof_H 	H 	0.8572	0.8992	0.6188	0.107
Mof_C 	C 	0.8505	0.0156	0.57674	-0.11
Mof_H 	H 	0.8574	0.0557	0.5881	0.047
Mof_C 	C 	0.8902	0.039	0.55762	-0.131
Mof_H 	H 	0.9225	0.0949	0.5561	0.076
Mof_C 	C 	0.8814	0.979	0.54095	0.083
Mof_H 	H 	0.9081	0.995	0.5282	0.04
Mof_C 	C 	0.5988	0.9295	0.57815	0.587
Mof_Sm	Sm	0.22306	0.02019	0.93798	1.909
Mof_O 	O 	0.0403	0.3711	0.07123	-0.722
Mof_O 	O 	0.2182	0.1161	0.96828	-0.55
Mof_O 	O 	0.3685	0.0944	0.96561	-0.647
Mof_O 	O 	0.126	0.4035	0.0295	-0.592
Mof_O 	O 	0.095	0.2544	0.03605	-0.611
Mof_O 	O 	0.1308	0.3199	0.17051	-0.474
Mof_O 	O 	0.0053	0.321	0.15135	-0.584
Mof_O 	O 	0.0734	0.9914	0.95084	-0.461
Mof_O 	O 	0.1139	0.5051	0.06956	-0.522
Mof_C 	C 	0.2992	0.1333	0.97451	0.489
Mof_C 	C 	0.3125	0.201	0.99212	-0.277
Mof_C 	C 	0.2339	0.2258	0.00337	0.176
Mof_H 	H 	0.177	0.1977	0.0002	-0.027
Mof_C 	C 	0.2374	0.2911	0.01925	-0.256
Mof_C 	C 	0.1453	0.3186	0.02944	0.558
Mof_C 	C 	0.3234	0.3293	0.02458	0.151
Mof_C 	C 	0.4023	0.3023	0.01346	-0.233
Mof_H 	H 	0.4601	0.3278	0.0169	0.102
Mof_C 	C 	0.3961	0.2371	0.99706	0.163
Mof_H 	H 	0.4493	0.2192	0.9897	-0.039
Mof_C 	C 	0.3332	0.3945	0.04274	-0.036
Mof_C 	C 	0.2921	0.3732	0.06248	-0.032
Mof_H 	H 	0.259	0.3178	0.0642	0.041
Mof_C 	C 	0.3009	0.4339	0.07914	-0.03
Mof_C 	C 	0.2486	0.4139	0.09856	0.131
Mof_C 	C 	0.1528	0.4062	0.0979	-0.236
Mof_C 	C 	0.1021	0.3811	0.11566	0.141
Mof_H 	H 	0.0375	0.375	0.1148	-0.04
Mof_C 	C 	0.1468	0.3651	0.13435	-0.19
Mof_C 	C 	0.0895	0.3352	0.1532	0.388
Mof_C 	C 	0.2429	0.3729	0.13498	0.116
Mof_H 	H 	0.2741	0.3621	0.1475	-0.006
Mof_C 	C 	0.2924	0.3956	0.11788	-0.201
Mof_H 	H 	0.3572	0.3992	0.1188	0.09
Mof_C 	C 	0.3505	0.5156	0.07674	-0.039
Mof_H 	H 	0.3574	0.5557	0.0881	0.032
Mof_C 	C 	0.3902	0.539	0.05762	-0.045
Mof_H 	H 	0.4225	0.5949	0.0561	0.04
Mof_C 	C 	0.3814	0.479	0.04095	-0.037
Mof_H 	H 	0.4081	0.495	0.0282	0.037
Mof_C 	C 	0.0988	0.4295	0.07815	0.51
Mof_Sm	Sm	0.97981	0.27694	0.18798	2.534
Mof_O 	O 	0.6289	0.4597	0.32123	-0.669
Mof_O 	O 	0.8839	0.2818	0.21828	-0.559
Mof_O 	O 	0.9056	0.1315	0.21561	-0.603
Mof_O 	O 	0.5965	0.374	0.2795	-0.602
Mof_O 	O 	0.7456	0.405	0.28605	-0.552
Mof_O 	O 	0.6801	0.3692	0.42051	-0.443
Mof_O 	O 	0.679	0.4947	0.40135	-0.513
Mof_O 	O 	0.0086	0.4266	0.20084	-0.674
Mof_O 	O 	0.4949	0.3861	0.31956	-0.525
Mof_C 	C 	0.8667	0.2008	0.22451	0.48
Mof_C 	C 	0.799	0.1875	0.24212	-0.247
Mof_C 	C 	0.7742	0.2661	0.25337	0.159
Mof_H 	H 	0.8023	0.323	0.2502	0.002
Mof_C 	C 	0.7089	0.2626	0.26925	-0.233
Mof_C 	C 	0.6814	0.3547	0.27944	0.548
Mof_C 	C 	0.6707	0.1766	0.27458	0.135
Mof_C 	C 	0.6977	0.0977	0.26346	-0.215
Mof_H 	H 	0.6722	0.0399	0.2669	0.08
Mof_C 	C 	0.7629	0.1039	0.24706	0.144
Mof_H 	H 	0.7808	0.0507	0.2397	-0.042
Mof_C 	C 	0.6055	0.1668	0.29274	-0.028
Mof_C 	C 	0.6268	0.2079	0.31248	-0.046
Mof_H 	H 	0.6822	0.241	0.3142	0.049
Mof_C 	C 	0.5661	0.1991	0.32914	-0.02
Mof_C 	C 	0.5861	0.2514	0.34856	0.111
Mof_C 	C 	0.5938	0.3472	0.3479	-0.21
Mof_C 	C 	0.6189	0.3979	0.36566	0.118
Mof_H 	H 	0.625	0.4625	0.3648	-0.011
Mof_C 	C 	0.6349	0.3532	0.38435	-0.166
Mof_C 	C 	0.6648	0.4105	0.4032	0.368
Mof_C 	C 	0.6271	0.2571	0.38498	0.093
Mof_H 	H 	0.6379	0.2259	0.3975	-0.004
Mof_C 	C 	0.6044	0.2076	0.36788	-0.181
Mof_H 	H 	0.6008	0.1428	0.3688	0.073
Mof_C 	C 	0.4844	0.1495	0.32674	-0.057
Mof_H 	H 	0.4443	0.1426	0.3381	0.023
Mof_C 	C 	0.461	0.1098	0.30762	-0.043
Mof_H 	H 	0.4051	0.0775	0.3061	0.013
Mof_C 	C 	0.521	0.1186	0.29095	-0.055
Mof_H 	H 	0.505	0.0919	0.2782	0.027
Mof_C 	C 	0.5705	0.4012	0.32815	0.494
Mof_Sm	Sm	0.47981	0.77694	0.68798	2.259
Mof_O 	O 	0.1289	0.9597	0.82123	-0.541
Mof_O 	O 	0.3839	0.7818	0.71828	-0.55
Mof_O 	O 	0.4056	0.6315	0.71561	-0.67
Mof_O 	O 	0.0965	0.874	0.7795	-0.535
Mof_O 	O 	0.2456	0.905	0.78605	-0.477
Mof_O 	O 	0.1801	0.8692	0.92051	-0.401
Mof_O 	O 	0.179	0.9947	0.90135	-0.447
Mof_O 	O 	0.5086	0.9266	0.70084	-0.549
Mof_O 	O 	0.9949	0.8861	0.81956	-0.367
Mof_C 	C 	0.3667	0.7008	0.72451	0.497
Mof_C 	C 	0.299	0.6875	0.74212	-0.252
Mof_C 	C 	0.2742	0.7661	0.75337	0.148
Mof_H 	H 	0.3023	0.823	0.7502	0.008
Mof_C 	C 	0.2089	0.7626	0.76925	-0.213
Mof_C 	C 	0.1814	0.8547	0.77944	0.507
Mof_C 	C 	0.1707	0.6766	0.77458	0.11
Mof_C 	C 	0.1977	0.5977	0.76346	-0.203
Mof_H 	H 	0.1722	0.5399	0.7669	0.088
Mof_C 	C 	0.2629	0.6039	0.74706	0.14
Mof_H 	H 	0.2808	0.5507	0.7397	-0.032
Mof_C 	C 	0.1055	0.6668	0.79274	0.012
Mof_C 	C 	0.1268	0.7079	0.81248	-0.056
Mof_H 	H 	0.1822	0.741	0.8142	0.056
Mof_C 	C 	0.0661	0.6991	0.82914	-0.072
Mof_C 	C 	0.0861	0.7514	0.84856	0.093
Mof_C 	C 	0.0938	0.8472	0.8479	-0.166
Mof_C 	C 	0.1189	0.8979	0.86566	0.082
Mof_H 	H 	0.125	0.9625	0.8648	0.013
Mof_C 	C 	0.1349	0.8532	0.88435	-0.143
Mof_C 	C 	0.1648	0.9105	0.9032	0.351
Mof_C 	C 	0.1271	0.7571	0.88498	0.073
Mof_H 	H 	0.1379	0.7259	0.8975	0.002
Mof_C 	C 	0.1044	0.7076	0.86788	-0.17
Mof_H 	H 	0.1008	0.6428	0.8688	0.068
Mof_C 	C 	0.9844	0.6495	0.82674	-0.003
Mof_H 	H 	0.9443	0.6426	0.8381	0.04
Mof_C 	C 	0.961	0.6098	0.80762	0.084
Mof_H 	H 	0.9051	0.5775	0.8061	0.003
Mof_C 	C 	0.021	0.6186	0.79095	-0.185
Mof_H 	H 	0.005	0.5919	0.7782	0.059
Mof_C 	C 	0.0705	0.9012	0.82815	0.369
Mof_Sm	Sm	0.02019	0.72306	0.18798	1.964
Mof_O 	O 	0.3711	0.5403	0.32123	-0.663
Mof_O 	O 	0.1161	0.7182	0.21828	-0.537
Mof_O 	O 	0.0944	0.8685	0.21561	-0.598
Mof_O 	O 	0.4035	0.626	0.2795	-0.601
Mof_O 	O 	0.2544	0.595	0.28605	-0.553
Mof_O 	O 	0.3199	0.6308	0.42051	-0.434
Mof_O 	O 	0.321	0.5053	0.40135	-0.518
Mof_O 	O 	0.9914	0.5734	0.20084	-0.496
Mof_O 	O 	0.5051	0.6139	0.31956	-0.521
Mof_C 	C 	0.1333	0.7992	0.22451	0.47
Mof_C 	C 	0.201	0.8125	0.24212	-0.247
Mof_C 	C 	0.2258	0.7339	0.25337	0.159
Mof_H 	H 	0.1977	0.677	0.2502	-0.01
Mof_C 	C 	0.2911	0.7374	0.26925	-0.237
Mof_C 	C 	0.3186	0.6453	0.27944	0.547
Mof_C 	C 	0.3293	0.8234	0.27458	0.142
Mof_C 	C 	0.3023	0.9023	0.26346	-0.211
Mof_H 	H 	0.3278	0.9601	0.2669	0.118
Mof_C 	C 	0.2371	0.8961	0.24706	0.148
Mof_H 	H 	0.2192	0.9493	0.2397	-0.006
Mof_C 	C 	0.3945	0.8332	0.29274	-0.02
Mof_C 	C 	0.3732	0.7921	0.31248	-0.041
Mof_H 	H 	0.3178	0.759	0.3142	0.049
Mof_C 	C 	0.4339	0.8009	0.32914	-0.014
Mof_C 	C 	0.4139	0.7486	0.34856	0.12
Mof_C 	C 	0.4062	0.6528	0.3479	-0.21
Mof_C 	C 	0.3811	0.6021	0.36566	0.123
Mof_H 	H 	0.375	0.5375	0.3648	-0.015
Mof_C 	C 	0.3651	0.6468	0.38435	-0.166
Mof_C 	C 	0.3352	0.5895	0.4032	0.372
Mof_C 	C 	0.3729	0.7429	0.38498	0.102
Mof_H 	H 	0.3621	0.7741	0.3975	0.006
Mof_C 	C 	0.3956	0.7924	0.36788	-0.183
Mof_H 	H 	0.3992	0.8572	0.3688	0.097
Mof_C 	C 	0.5156	0.8505	0.32674	-0.045
Mof_H 	H 	0.5557	0.8574	0.3381	0.047
Mof_C 	C 	0.539	0.8902	0.30762	-0.027
Mof_H 	H 	0.5949	0.9225	0.3061	0.054
Mof_C 	C 	0.479	0.8814	0.29095	-0.042
Mof_H 	H 	0.495	0.9081	0.2782	0.055
Mof_C 	C 	0.4295	0.5988	0.32815	0.491
Mof_Sm	Sm	0.52019	0.22306	0.68798	2.224
Mof_O 	O 	0.8711	0.0403	0.82123	-0.727
Mof_O 	O 	0.6161	0.2182	0.71828	-0.564
Mof_O 	O 	0.5944	0.3685	0.71561	-0.672
Mof_O 	O 	0.9035	0.126	0.7795	-0.529
Mof_O 	O 	0.7544	0.095	0.78605	-0.599
Mof_O 	O 	0.8199	0.1308	0.92051	-0.465
Mof_O 	O 	0.821	0.0053	0.90135	-0.569
Mof_O 	O 	0.4914	0.0734	0.70084	-0.621
Mof_O 	O 	0.0051	0.1139	0.81956	-0.591
Mof_C 	C 	0.6333	0.2992	0.72451	0.509
Mof_C 	C 	0.701	0.3125	0.74212	-0.281
Mof_C 	C 	0.7258	0.2339	0.75337	0.183
Mof_H 	H 	0.6977	0.177	0.7502	-0.02
Mof_C 	C 	0.7911	0.2374	0.76925	-0.248
Mof_C 	C 	0.8186	0.1453	0.77944	0.544
Mof_C 	C 	0.8293	0.3234	0.77458	0.17
Mof_C 	C 	0.8023	0.4023	0.76346	-0.24
Mof_H 	H 	0.8278	0.4601	0.7669	0.113
Mof_C 	C 	0.7371	0.3961	0.74706	0.178
Mof_H 	H 	0.7192	0.4493	0.7397	-0.043
Mof_C 	C 	0.8945	0.3332	0.79274	-0.058
Mof_C 	C 	0.8732	0.2921	0.81248	-0.033
Mof_H 	H 	0.8178	0.259	0.8142	0.044
Mof_C 	C 	0.9339	0.3009	0.82914	0.045
Mof_C 	C 	0.9139	0.2486	0.84856	0.132
Mof_C 	C 	0.9062	0.1528	0.8479	-0.247
Mof_C 	C 	0.8811	0.1021	0.86566	0.155
Mof_H 	H 	0.875	0.0375	0.8648	-0.034
Mof_C 	C 	0.8651	0.1468	0.88435	-0.182
Mof_C 	C 	0.8352	0.0895	0.9032	0.39
Mof_C 	C 	0.8729	0.2429	0.88498	0.118
Mof_H 	H 	0.8621	0.2741	0.8975	0.004
Mof_C 	C 	0.8956	0.2924	0.86788	-0.188
Mof_H 	H 	0.8992	0.3572	0.8688	0.101
Mof_C 	C 	0.0156	0.3505	0.82674	-0.104
Mof_H 	H 	0.0557	0.3574	0.8381	0.032
Mof_C 	C 	0.039	0.3902	0.80762	-0.152
Mof_H 	H 	0.0949	0.4225	0.8061	0.063
Mof_C 	C 	0.979	0.3814	0.79095	0.091
Mof_H 	H 	0.995	0.4081	0.7782	0.022
Mof_C 	C 	0.9295	0.0988	0.82815	0.605
Mof_Sm	Sm	0.22306	0.47981	0.31202	2.21
Mof_O 	O 	0.0403	0.1289	0.17877	-0.693
Mof_O 	O 	0.2182	0.3839	0.28172	-0.568
Mof_O 	O 	0.3685	0.4056	0.28439	-0.672
Mof_O 	O 	0.126	0.0965	0.2205	-0.589
Mof_O 	O 	0.095	0.2456	0.21395	-0.604
Mof_O 	O 	0.1308	0.1801	0.07949	-0.479
Mof_O 	O 	0.0053	0.179	0.09865	-0.588
Mof_O 	O 	0.0734	0.5086	0.29916	-0.619
Mof_O 	O 	0.1139	0.9949	0.18044	-0.41
Mof_C 	C 	0.2992	0.3667	0.27549	0.504
Mof_C 	C 	0.3125	0.299	0.25788	-0.277
Mof_C 	C 	0.2339	0.2742	0.24663	0.172
Mof_H 	H 	0.177	0.3023	0.2498	-0.021
Mof_C 	C 	0.2374	0.2089	0.23075	-0.25
Mof_C 	C 	0.1453	0.1814	0.22056	0.549
Mof_C 	C 	0.3234	0.1707	0.22542	0.131
Mof_C 	C 	0.4023	0.1977	0.23654	-0.224
Mof_H 	H 	0.4601	0.1722	0.2331	0.095
Mof_C 	C 	0.3961	0.2629	0.25294	0.159
Mof_H 	H 	0.4493	0.2808	0.2603	-0.039
Mof_C 	C 	0.3332	0.1055	0.20726	-0.008
Mof_C 	C 	0.2921	0.1268	0.18752	-0.032
Mof_H 	H 	0.259	0.1822	0.1858	0.044
Mof_C 	C 	0.3009	0.0661	0.17086	-0.101
Mof_C 	C 	0.2486	0.0861	0.15144	0.128
Mof_C 	C 	0.1528	0.0938	0.1521	-0.223
Mof_C 	C 	0.1021	0.1189	0.13434	0.125
Mof_H 	H 	0.0375	0.125	0.1352	-0.042
Mof_C 	C 	0.1468	0.1349	0.11565	-0.194
Mof_C 	C 	0.0895	0.1648	0.0968	0.383
Mof_C 	C 	0.2429	0.1271	0.11502	0.112
Mof_H 	H 	0.2741	0.1379	0.1025	-0.013
Mof_C 	C 	0.2924	0.1044	0.13212	-0.21
Mof_H 	H 	0.3572	0.1008	0.1312	0.081
Mof_C 	C 	0.3505	0.9844	0.17326	0.022
Mof_H 	H 	0.3574	0.9443	0.1619	0.03
Mof_C 	C 	0.3902	0.961	0.19238	0.067
Mof_H 	H 	0.4225	0.9051	0.1939	0.01
Mof_C 	C 	0.3814	0.021	0.20905	-0.169
Mof_H 	H 	0.4081	0.005	0.2218	0.053
Mof_C 	C 	0.0988	0.0705	0.17185	0.41
Mof_Sm	Sm	0.72306	0.97981	0.81202	2.552
Mof_O 	O 	0.5403	0.6289	0.67877	-0.668
Mof_O 	O 	0.7182	0.8839	0.78172	-0.558
Mof_O 	O 	0.8685	0.9056	0.78439	-0.577
Mof_O 	O 	0.626	0.5965	0.7205	-0.601
Mof_O 	O 	0.595	0.7456	0.71395	-0.549
Mof_O 	O 	0.6308	0.6801	0.57949	-0.437
Mof_O 	O 	0.5053	0.679	0.59865	-0.516
Mof_O 	O 	0.5734	0.0086	0.79916	-0.674
Mof_O 	O 	0.6139	0.4949	0.68044	-0.524
Mof_C 	C 	0.7992	0.8667	0.77549	0.478
Mof_C 	C 	0.8125	0.799	0.75788	-0.23
Mof_C 	C 	0.7339	0.7742	0.74663	0.157
Mof_H 	H 	0.677	0.8023	0.7498	0.004
Mof_C 	C 	0.7374	0.7089	0.73075	-0.228
Mof_C 	C 	0.6453	0.6814	0.72056	0.547
Mof_C 	C 	0.8234	0.6707	0.72542	0.14
Mof_C 	C 	0.9023	0.6977	0.73654	-0.201
Mof_H 	H 	0.9601	0.6722	0.7331	0.118
Mof_C 	C 	0.8961	0.7629	0.75294	0.146
Mof_H 	H 	0.9493	0.7808	0.7603	0.001
Mof_C 	C 	0.8332	0.6055	0.70726	-0.015
Mof_C 	C 	0.7921	0.6268	0.68752	-0.042
Mof_H 	H 	0.759	0.6822	0.6858	0.054
Mof_C 	C 	0.8009	0.5661	0.67086	-0.011
Mof_C 	C 	0.7486	0.5861	0.65144	0.119
Mof_C 	C 	0.6528	0.5938	0.6521	-0.212
Mof_C 	C 	0.6021	0.6189	0.63434	0.123
Mof_H 	H 	0.5375	0.625	0.6352	-0.014
Mof_C 	C 	0.6468	0.6349	0.61565	-0.167
Mof_C 	C 	0.5895	0.6648	0.5968	0.37
Mof_C 	C 	0.7429	0.6271	0.61502	0.101
Mof_H 	H 	0.7741	0.6379	0.6025	0.007
Mof_C 	C 	0.7924	0.6044	0.63212	-0.183
Mof_H 	H 	0.8572	0.6008	0.6312	0.099
Mof_C 	C 	0.8505	0.4844	0.67326	-0.048
Mof_H 	H 	0.8574	0.4443	0.6619	0.043
Mof_C 	C 	0.8902	0.461	0.69238	-0.024
Mof_H 	H 	0.9225	0.4051	0.6939	0.047
Mof_C 	C 	0.8814	0.521	0.70905	-0.046
Mof_H 	H 	0.9081	0.505	0.7218	0.055
Mof_C 	C 	0.5988	0.5705	0.67185	0.494
Mof_Sm	Sm	0.77694	0.52019	0.31202	2.272
Mof_O 	O 	0.9597	0.8711	0.17877	-0.578
Mof_O 	O 	0.7818	0.6161	0.28172	-0.547
Mof_O 	O 	0.6315	0.5944	0.28439	-0.67
Mof_O 	O 	0.874	0.9035	0.2205	-0.48
Mof_O 	O 	0.905	0.7544	0.21395	-0.477
Mof_O 	O 	0.8692	0.8199	0.07949	-0.392
Mof_O 	O 	0.9947	0.821	0.09865	-0.434
Mof_O 	O 	0.9266	0.4914	0.29916	-0.55
Mof_O 	O 	0.8861	0.0051	0.18044	-0.537
Mof_C 	C 	0.7008	0.6333	0.27549	0.502
Mof_C 	C 	0.6875	0.701	0.25788	-0.257
Mof_C 	C 	0.7661	0.7258	0.24663	0.16
Mof_H 	H 	0.823	0.6977	0.2498	0.009
Mof_C 	C 	0.7626	0.7911	0.23075	-0.214
Mof_C 	C 	0.8547	0.8186	0.22056	0.504
Mof_C 	C 	0.6766	0.8293	0.22542	0.149
Mof_C 	C 	0.5977	0.8023	0.23654	-0.22
Mof_H 	H 	0.5399	0.8278	0.2331	0.107
Mof_C 	C 	0.6039	0.7371	0.25294	0.16
Mof_H 	H 	0.5507	0.7192	0.2603	-0.036
Mof_C 	C 	0.6668	0.8945	0.20726	-0.04
Mof_C 	C 	0.7079	0.8732	0.18752	-0.055
Mof_H 	H 	0.741	0.8178	0.1858	0.055
Mof_C 	C 	0.6991	0.9339	0.17086	0.068
Mof_C 	C 	0.7514	0.9139	0.15144	0.098
Mof_C 	C 	0.8472	0.9062	0.1521	-0.189
Mof_C 	C 	0.8979	0.8811	0.13434	0.111
Mof_H 	H 	0.9625	0.875	0.1352	0.02
Mof_C 	C 	0.8532	0.8651	0.11565	-0.132
Mof_C 	C 	0.9105	0.8352	0.0968	0.358
Mof_C 	C 	0.7571	0.8729	0.11502	0.08
Mof_H 	H 	0.7259	0.8621	0.1025	0.018
Mof_C 	C 	0.7076	0.8956	0.13212	-0.149
Mof_H 	H 	0.6428	0.8992	0.1312	0.087
Mof_C 	C 	0.6495	0.0156	0.17326	-0.123
Mof_H 	H 	0.6426	0.0557	0.1619	0.041
Mof_C 	C 	0.6098	0.039	0.19238	-0.134
Mof_H 	H 	0.5775	0.0949	0.1939	0.056
Mof_C 	C 	0.6186	0.979	0.20905	0.072
Mof_H 	H 	0.5919	0.995	0.2218	0.029
Mof_C 	C 	0.9012	0.9295	0.17185	0.554
Mof_Sm	Sm	0.27694	0.02019	0.81202	1.926
Mof_O 	O 	0.4597	0.3711	0.67877	-0.664
Mof_O 	O 	0.2818	0.1161	0.78172	-0.537
Mof_O 	O 	0.1315	0.0944	0.78439	-0.626
Mof_O 	O 	0.374	0.4035	0.7205	-0.601
Mof_O 	O 	0.405	0.2544	0.71395	-0.557
Mof_O 	O 	0.3692	0.3199	0.57949	-0.439
Mof_O 	O 	0.4947	0.321	0.59865	-0.515
Mof_O 	O 	0.4266	0.9914	0.79916	-0.491
Mof_O 	O 	0.3861	0.5051	0.68044	-0.523
Mof_C 	C 	0.2008	0.1333	0.77549	0.472
Mof_C 	C 	0.1875	0.201	0.75788	-0.265
Mof_C 	C 	0.2661	0.2258	0.74663	0.162
Mof_H 	H 	0.323	0.1977	0.7498	-0.013
Mof_C 	C 	0.2626	0.2911	0.73075	-0.243
Mof_C 	C 	0.3547	0.3186	0.72056	0.548
Mof_C 	C 	0.1766	0.3293	0.72542	0.137
Mof_C 	C 	0.0977	0.3023	0.73654	-0.226
Mof_H 	H 	0.0399	0.3278	0.7331	0.078
Mof_C 	C 	0.1039	0.2371	0.75294	0.147
Mof_H 	H 	0.0507	0.2192	0.7603	-0.052
Mof_C 	C 	0.1668	0.3945	0.70726	-0.034
Mof_C 	C 	0.2079	0.3732	0.68752	-0.045
Mof_H 	H 	0.241	0.3178	0.6858	0.044
Mof_C 	C 	0.1991	0.4339	0.67086	-0.023
Mof_C 	C 	0.2514	0.4139	0.65144	0.111
Mof_C 	C 	0.3472	0.4062	0.6521	-0.208
Mof_C 	C 	0.3979	0.3811	0.63434	0.119
Mof_H 	H 	0.4625	0.375	0.6352	-0.012
Mof_C 	C 	0.3532	0.3651	0.61565	-0.166
Mof_C 	C 	0.4105	0.3352	0.5968	0.37
Mof_C 	C 	0.2571	0.3729	0.61502	0.094
Mof_H 	H 	0.2259	0.3621	0.6025	-0.005
Mof_C 	C 	0.2076	0.3956	0.63212	-0.181
Mof_H 	H 	0.1428	0.3992	0.6312	0.07
Mof_C 	C 	0.1495	0.5156	0.67326	-0.054
Mof_H 	H 	0.1426	0.5557	0.6619	0.027
Mof_C 	C 	0.1098	0.539	0.69238	-0.046
Mof_H 	H 	0.0775	0.5949	0.6939	0.021
Mof_C 	C 	0.1186	0.479	0.70905	-0.05
Mof_H 	H 	0.0919	0.495	0.7218	0.026
Mof_C 	C 	0.4012	0.4295	0.67185	0.491
Mof_Sm	Sm	-7.73622e-33	0.5	0.45983	2.153
Mof_Sm	Sm	0.5	0	0.95983	2.143
Mof_Sm	Sm	0.5	0	0.54017	2.153
Mof_Sm	Sm	6.72597e-34	0.5	0.04017	2.143
Mof_Sm	Sm	0.5	0.5	0.29017	2.377
Mof_Sm	Sm	-1.76406e-32	-3.0871e-32	0.79017	1.92
Mof_Sm	Sm	3.51335e-33	0	0.20983	1.922
Mof_Sm	Sm	0.5	0.5	0.70983	2.377
Mof_C 	C 	0.5	0.5	0.5581	0.807
Mof_H 	H 	0.5	0.5	0.5727	-0.312
Mof_C 	C 	-2.88606e-33	-1.92944e-33	0.0581	0.492
Mof_H 	H 	-2.64161e-33	-3.85888e-33	0.0727	-0.258
Mof_C 	C 	0.5	0.5	0.4419	0.807
Mof_H 	H 	0.5	0.5	0.4273	-0.312
Mof_C 	C 	-4.59711e-32	-3.0871e-32	0.9419	0.477
Mof_H 	H 	-1.53445e-32	0	0.9273	-0.254
Mof_C 	C 	-4.50463e-33	0.5	0.1919	0.643
Mof_H 	H 	-4.74908e-33	0.5	0.1773	-0.284
Mof_C 	C 	0.5	-3.0871e-32	0.6919	0.646
Mof_H 	H 	0.5	3.0871e-32	0.6773	-0.284
Mof_C 	C 	-1.02768e-32	0.5	0.3081	0.645
Mof_H 	H 	-1.00323e-32	0.5	0.3227	-0.284
Mof_C 	C 	0.5	-3.0871e-32	0.8081	0.64
Mof_H 	H 	0.5	0	0.8227	-0.283
_end
