data_functionalizedCrystal
_audit_creation_method	'EQeq! by Chris Wilmer'
_symmetry_space_group_name_H-M	'P1'
_symmetry_Int_Tables_number	1
_symmetry_cell_setting	triclinic
loop_
_symmetry_equiv_pos_as_xyz
  x,y,z
_cell_length_a	34.651
_cell_length_b	14.9888
_cell_length_c	30.113
_cell_angle_alpha	90
_cell_angle_beta	100.735
_cell_angle_gamma	90
loop_
_atom_site_label
_atom_site_type_symbol
_atom_site_fract_x
_atom_site_fract_y
_atom_site_fract_z
_atom_site_charge
Mof_Zn	Zn	0.16838	0.3635	0.76855	1.376
Mof_I 	I 	0.12346	0.34561	0.69263	0.542
Mof_I 	I 	0.23033	0.2722	0.79546	-0.17
Mof_Zn	Zn	0.86789	0.59983	0.94978	0.671
Mof_I 	I 	0.84213	0.5741	0.02138	2.046
Mof_I 	I 	0.8823	0.74384	0.91713	-1.049
Mof_Zn	Zn	0.07813	0.87215	0.09215	1.156
Mof_I 	I 	0.02395	0.84306	0.1366	-0.183
Mof_I 	I 	0.11705	0.7613	0.055	-0.144
Mof_N 	N 	0.1375	0.3503	0.8212	-0.34
Mof_C 	C 	0.1481	0.2955	0.856	0.058
Mof_H 	H 	0.173	0.2675	0.8596	-0.057
Mof_C 	C 	0.1244	0.2773	0.8873	-0.119
Mof_H 	H 	0.1327	0.2364	0.9113	0.039
Mof_C 	C 	0.08888	0.3197	0.883	0.044
Mof_C 	C 	0.0777	0.3766	0.8459	-0.119
Mof_H 	H 	0.0529	0.4058	0.8413	0.082
Mof_C 	C 	0.1026	0.3897	0.8167	0.096
Mof_H 	H 	0.0947	0.4289	0.7919	-0.037
Mof_N 	N 	0.91567	0.5165	0.95261	-0.303
Mof_C 	C 	0.93178	0.4699	0.9893	0.064
Mof_H 	H 	0.9213	0.476	0.0161	-0.017
Mof_C 	C 	0.96349	0.4129	0.98929	-0.117
Mof_H 	H 	0.9743	0.3799	0.0156	0.083
Mof_C 	C 	0.9789	0.4049	0.95057	0.051
Mof_C 	C 	0.9616	0.4518	0.9123	-0.134
Mof_H 	H 	0.9712	0.4465	0.8849	0.076
Mof_C 	C 	0.93	0.5064	0.9152	0.079
Mof_H 	H 	0.918	0.5383	0.8889	-0.021
Mof_N 	N 	0.06027	0.9754	0.04634	-0.268
Mof_C 	C 	0.03234	0.034	0.0517	0.073
Mof_H 	H 	0.0162	0.021	0.0732	-0.007
Mof_C 	C 	0.02585	0.1121	0.02756	-0.112
Mof_H 	H 	0.0059	0.1522	0.0327	0.077
Mof_C 	C 	0.04874	0.1316	0.99567	0.046
Mof_C 	C 	0.07704	0.0687	0.98852	-0.113
Mof_H 	H 	0.0928	0.0787	0.9663	0.071
Mof_C 	C 	0.0815	0.9924	0.01422	0.06
Mof_H 	H 	0.1004	0.9497	0.0091	-0.007
Mof_C 	C 	0.06281	0.303	0.91593	0.064
Mof_N 	N 	0.03404	0.3617	0.91736	-0.139
Mof_C 	C 	0.01196	0.3426	0.94813	0.074
Mof_N 	N 	0.01609	0.2724	0.97582	-0.147
Mof_C 	C 	0.04455	0.2159	0.96961	0.072
Mof_N 	N 	0.06917	0.2286	0.94057	-0.155
Mof_N 	N 	0.18438	0.5003	0.77569	-0.351
Mof_C 	C 	0.164	0.5541	0.7473	0.13
Mof_H 	H 	0.144	0.5298	0.7247	-0.049
Mof_C 	C 	0.1698	0.6455	0.7479	-0.161
Mof_H 	H 	0.1544	0.6823	0.7257	0.106
Mof_C 	C 	0.19794	0.6823	0.78076	0.097
Mof_C 	C 	0.2197	0.6257	0.8107	-0.136
Mof_H 	H 	0.2401	0.6475	0.8336	0.106
Mof_C 	C 	0.2112	0.5336	0.8069	0.096
Mof_H 	H 	0.2259	0.4942	0.8283	-0.08
Mof_N 	N 	0.32698	0.0349	0.90126	-0.312
Mof_C 	C 	0.3038	0.0801	0.8686	0.071
Mof_H 	H 	0.3072	0.1428	0.867	-0.01
Mof_C 	C 	0.27522	0.0401	0.8373	-0.133
Mof_H 	H 	0.2595	0.0746	0.8144	0.102
Mof_C 	C 	0.26951	0.9488	0.83946	0.064
Mof_C 	C 	0.29334	0.9012	0.87319	-0.11
Mof_H 	H 	0.2902	0.8386	0.8759	0.103
Mof_C 	C 	0.32184	0.9463	0.9029	0.063
Mof_H 	H 	0.3386	0.9132	0.9256	0.001
Mof_N 	N 	0.11928	0.057	0.63789	-0.27
Mof_C 	C 	0.14752	0.098	0.66691	0.065
Mof_H 	H 	0.1514	0.1601	0.6631	0.021
Mof_C 	C 	0.1715	0.0543	0.70242	-0.114
Mof_H 	H 	0.1909	0.0862	0.7228	0.101
Mof_C 	C 	0.16649	0.9636	0.70757	0.06
Mof_C 	C 	0.1382	0.9209	0.6767	-0.119
Mof_H 	H 	0.1346	0.8583	0.6786	0.108
Mof_C 	C 	0.1153	0.9695	0.6429	0.077
Mof_H 	H 	0.0957	0.9391	0.6221	0.009
Mof_C 	C 	0.20448	0.7808	0.78056	0.106
Mof_N 	N 	0.23306	0.8161	0.81139	-0.122
Mof_C 	C 	0.2387	0.9038	0.80609	0.1
Mof_N 	N 	0.21865	0.9546	0.77347	-0.14
Mof_C 	C 	0.19033	0.9123	0.74503	0.102
Mof_N 	N 	0.18135	0.8256	0.74766	-0.129
Mof_Zn	Zn	0.1777	0.3651	0.7787	-0.31
Mof_I 	I 	0.1334	0.3344	0.7029	-0.267
Mof_I 	I 	0.241	0.2838	0.8085	-0.377
Mof_Zn	Zn	0.1956	0.3636	0.8018	1.072
Mof_I 	I 	0.1623	0.3115	0.7257	-1.174
Mof_I 	I 	0.2597	0.3067	0.8454	-0.019
Mof_Zn	Zn	0.8607	0.5817	0.9601	0.585
Mof_I 	I 	0.8337	0.5283	0.0321	-2.45
Mof_I 	I 	0.8728	0.7374	0.9371	0.559
Mof_I 	I 	0.0223	0.8441	0.1315	-0.146
Mof_I 	I 	0.1126	0.7609	0.0484	-0.168
Mof_Zn	Zn	0.66838	0.8635	0.76855	1.376
Mof_I 	I 	0.62346	0.84561	0.69263	0.542
Mof_I 	I 	0.73033	0.7722	0.79546	-0.17
Mof_Zn	Zn	0.36789	0.09983	0.94978	0.671
Mof_I 	I 	0.34213	0.0741	0.02138	2.043
Mof_I 	I 	0.3823	0.24384	0.91713	-1.049
Mof_Zn	Zn	0.57813	0.37215	0.09215	1.156
Mof_I 	I 	0.52395	0.34306	0.1366	-0.182
Mof_I 	I 	0.61705	0.2613	0.055	-0.144
Mof_N 	N 	0.6375	0.8503	0.8212	-0.34
Mof_C 	C 	0.6481	0.7955	0.856	0.058
Mof_H 	H 	0.673	0.7675	0.8596	-0.057
Mof_C 	C 	0.6244	0.7773	0.8873	-0.119
Mof_H 	H 	0.6327	0.7364	0.9113	0.039
Mof_C 	C 	0.58888	0.8197	0.883	0.044
Mof_C 	C 	0.5777	0.8766	0.8459	-0.119
Mof_H 	H 	0.5529	0.9058	0.8413	0.082
Mof_C 	C 	0.6026	0.8897	0.8167	0.096
Mof_H 	H 	0.5947	0.9289	0.7919	-0.037
Mof_N 	N 	0.41567	0.0165	0.95261	-0.303
Mof_C 	C 	0.43178	0.9699	0.9893	0.064
Mof_H 	H 	0.4213	0.976	0.0161	-0.017
Mof_C 	C 	0.46349	0.9129	0.98929	-0.117
Mof_H 	H 	0.4743	0.8799	0.0156	0.083
Mof_C 	C 	0.4789	0.9049	0.95057	0.051
Mof_C 	C 	0.4616	0.9518	0.9123	-0.134
Mof_H 	H 	0.4712	0.9465	0.8849	0.076
Mof_C 	C 	0.43	0.0064	0.9152	0.078
Mof_H 	H 	0.418	0.0383	0.8889	-0.021
Mof_N 	N 	0.56027	0.4754	0.04634	-0.268
Mof_C 	C 	0.53234	0.534	0.0517	0.073
Mof_H 	H 	0.5162	0.521	0.0732	-0.007
Mof_C 	C 	0.52585	0.6121	0.02756	-0.112
Mof_H 	H 	0.5059	0.6522	0.0327	0.077
Mof_C 	C 	0.54874	0.6316	0.99567	0.046
Mof_C 	C 	0.57704	0.5687	0.98852	-0.113
Mof_H 	H 	0.5928	0.5787	0.9663	0.071
Mof_C 	C 	0.5815	0.4924	0.01422	0.061
Mof_H 	H 	0.6004	0.4497	0.0091	-0.007
Mof_C 	C 	0.56281	0.803	0.91593	0.064
Mof_N 	N 	0.53404	0.8617	0.91736	-0.139
Mof_C 	C 	0.51196	0.8426	0.94813	0.074
Mof_N 	N 	0.51609	0.7724	0.97582	-0.147
Mof_C 	C 	0.54455	0.7159	0.96961	0.072
Mof_N 	N 	0.56917	0.7286	0.94057	-0.155
Mof_N 	N 	0.68438	0.0003	0.77569	-0.351
Mof_C 	C 	0.664	0.0541	0.7473	0.13
Mof_H 	H 	0.644	0.0298	0.7247	-0.049
Mof_C 	C 	0.6698	0.1455	0.7479	-0.161
Mof_H 	H 	0.6544	0.1823	0.7257	0.106
Mof_C 	C 	0.69794	0.1823	0.78076	0.097
Mof_C 	C 	0.7197	0.1257	0.8107	-0.136
Mof_H 	H 	0.7401	0.1475	0.8336	0.106
Mof_C 	C 	0.7112	0.0336	0.8069	0.096
Mof_H 	H 	0.7259	0.9942	0.8283	-0.08
Mof_N 	N 	0.82698	0.5349	0.90126	-0.312
Mof_C 	C 	0.8038	0.5801	0.8686	0.071
Mof_H 	H 	0.8072	0.6428	0.867	-0.01
Mof_C 	C 	0.77522	0.5401	0.8373	-0.133
Mof_H 	H 	0.7595	0.5746	0.8144	0.102
Mof_C 	C 	0.76951	0.4488	0.83946	0.064
Mof_C 	C 	0.79334	0.4012	0.87319	-0.11
Mof_H 	H 	0.7902	0.3386	0.8759	0.103
Mof_C 	C 	0.82184	0.4463	0.9029	0.063
Mof_H 	H 	0.8386	0.4132	0.9256	0.001
Mof_N 	N 	0.61928	0.557	0.63789	-0.27
Mof_C 	C 	0.64752	0.598	0.66691	0.066
Mof_H 	H 	0.6514	0.6601	0.6631	0.021
Mof_C 	C 	0.6715	0.5543	0.70242	-0.114
Mof_H 	H 	0.6909	0.5862	0.7228	0.101
Mof_C 	C 	0.66649	0.4636	0.70757	0.06
Mof_C 	C 	0.6382	0.4209	0.6767	-0.119
Mof_H 	H 	0.6346	0.3583	0.6786	0.108
Mof_C 	C 	0.6153	0.4695	0.6429	0.077
Mof_H 	H 	0.5957	0.4391	0.6221	0.009
Mof_C 	C 	0.70448	0.2808	0.78056	0.106
Mof_N 	N 	0.73306	0.3161	0.81139	-0.122
Mof_C 	C 	0.7387	0.4038	0.80609	0.1
Mof_N 	N 	0.71865	0.4546	0.77347	-0.14
Mof_C 	C 	0.69033	0.4123	0.74503	0.102
Mof_N 	N 	0.68135	0.3256	0.74766	-0.129
Mof_Zn	Zn	0.6777	0.8651	0.7787	-0.31
Mof_I 	I 	0.6334	0.8344	0.7029	-0.267
Mof_I 	I 	0.741	0.7838	0.8085	-0.377
Mof_Zn	Zn	0.6956	0.8636	0.8018	1.072
Mof_I 	I 	0.6623	0.8115	0.7257	-1.174
Mof_I 	I 	0.7597	0.8067	0.8454	-0.019
Mof_Zn	Zn	0.3607	0.0817	0.9601	0.586
Mof_I 	I 	0.3337	0.0283	0.0321	-2.448
Mof_I 	I 	0.3728	0.2374	0.9371	0.559
Mof_I 	I 	0.5223	0.3441	0.1315	-0.146
Mof_I 	I 	0.6126	0.2609	0.0484	-0.168
Mof_Zn	Zn	0.16838	0.6365	0.26855	1.376
Mof_I 	I 	0.12346	0.65439	0.19263	0.542
Mof_I 	I 	0.23033	0.7278	0.29546	-0.17
Mof_Zn	Zn	0.86789	0.40017	0.44978	0.671
Mof_I 	I 	0.84213	0.4259	0.52138	2.046
Mof_I 	I 	0.8823	0.25616	0.41713	-1.05
Mof_Zn	Zn	0.07813	0.12785	0.59215	1.156
Mof_I 	I 	0.02395	0.15694	0.6366	-0.183
Mof_I 	I 	0.11705	0.2387	0.555	-0.144
Mof_N 	N 	0.1375	0.6497	0.3212	-0.34
Mof_C 	C 	0.1481	0.7045	0.356	0.058
Mof_H 	H 	0.173	0.7325	0.3596	-0.057
Mof_C 	C 	0.1244	0.7227	0.3873	-0.119
Mof_H 	H 	0.1327	0.7636	0.4113	0.039
Mof_C 	C 	0.08888	0.6803	0.383	0.044
Mof_C 	C 	0.0777	0.6234	0.3459	-0.119
Mof_H 	H 	0.0529	0.5942	0.3413	0.082
Mof_C 	C 	0.1026	0.6103	0.3167	0.096
Mof_H 	H 	0.0947	0.5711	0.2919	-0.037
Mof_N 	N 	0.91567	0.4835	0.45261	-0.303
Mof_C 	C 	0.93178	0.5301	0.4893	0.064
Mof_H 	H 	0.9213	0.524	0.5161	-0.017
Mof_C 	C 	0.96349	0.5871	0.48929	-0.117
Mof_H 	H 	0.9743	0.6201	0.5156	0.083
Mof_C 	C 	0.9789	0.5951	0.45057	0.051
Mof_C 	C 	0.9616	0.5482	0.4123	-0.134
Mof_H 	H 	0.9712	0.5535	0.3849	0.076
Mof_C 	C 	0.93	0.4936	0.4152	0.079
Mof_H 	H 	0.918	0.4617	0.3889	-0.021
Mof_N 	N 	0.06027	0.0246	0.54634	-0.268
Mof_C 	C 	0.03234	0.966	0.5517	0.072
Mof_H 	H 	0.0162	0.979	0.5732	-0.007
Mof_C 	C 	0.02585	0.8879	0.52756	-0.112
Mof_H 	H 	0.0059	0.8478	0.5327	0.077
Mof_C 	C 	0.04874	0.8684	0.49567	0.046
Mof_C 	C 	0.07704	0.9313	0.48852	-0.113
Mof_H 	H 	0.0928	0.9213	0.4663	0.071
Mof_C 	C 	0.0815	0.0076	0.51422	0.06
Mof_H 	H 	0.1004	0.0503	0.5091	-0.007
Mof_C 	C 	0.06281	0.697	0.41593	0.064
Mof_N 	N 	0.03404	0.6383	0.41736	-0.139
Mof_C 	C 	0.01196	0.6574	0.44813	0.074
Mof_N 	N 	0.01609	0.7276	0.47582	-0.147
Mof_C 	C 	0.04455	0.7841	0.46961	0.072
Mof_N 	N 	0.06917	0.7714	0.44057	-0.155
Mof_N 	N 	0.18438	0.4997	0.27569	-0.351
Mof_C 	C 	0.164	0.4459	0.2473	0.13
Mof_H 	H 	0.144	0.4702	0.2247	-0.049
Mof_C 	C 	0.1698	0.3545	0.2479	-0.161
Mof_H 	H 	0.1544	0.3177	0.2257	0.106
Mof_C 	C 	0.19794	0.3177	0.28076	0.097
Mof_C 	C 	0.2197	0.3743	0.3107	-0.136
Mof_H 	H 	0.2401	0.3525	0.3336	0.106
Mof_C 	C 	0.2112	0.4664	0.3069	0.096
Mof_H 	H 	0.2259	0.5058	0.3283	-0.08
Mof_N 	N 	0.32698	0.9651	0.40126	-0.312
Mof_C 	C 	0.3038	0.9199	0.3686	0.071
Mof_H 	H 	0.3072	0.8572	0.367	-0.01
Mof_C 	C 	0.27522	0.9599	0.3373	-0.132
Mof_H 	H 	0.2595	0.9254	0.3144	0.102
Mof_C 	C 	0.26951	0.0512	0.33946	0.064
Mof_C 	C 	0.29334	0.0988	0.37319	-0.11
Mof_H 	H 	0.2902	0.1614	0.3759	0.103
Mof_C 	C 	0.32184	0.0537	0.4029	0.063
Mof_H 	H 	0.3386	0.0868	0.4256	0.001
Mof_N 	N 	0.11928	0.943	0.13789	-0.27
Mof_C 	C 	0.14752	0.902	0.16691	0.066
Mof_H 	H 	0.1514	0.8399	0.1631	0.021
Mof_C 	C 	0.1715	0.9457	0.20242	-0.114
Mof_H 	H 	0.1909	0.9138	0.2228	0.101
Mof_C 	C 	0.16649	0.0364	0.20757	0.06
Mof_C 	C 	0.1382	0.0791	0.1767	-0.119
Mof_H 	H 	0.1346	0.1417	0.1786	0.108
Mof_C 	C 	0.1153	0.0305	0.1429	0.077
Mof_H 	H 	0.0957	0.0609	0.1221	0.009
Mof_C 	C 	0.20448	0.2192	0.28056	0.106
Mof_N 	N 	0.23306	0.1839	0.31139	-0.122
Mof_C 	C 	0.2387	0.0962	0.30609	0.1
Mof_N 	N 	0.21865	0.0454	0.27347	-0.14
Mof_C 	C 	0.19033	0.0877	0.24503	0.102
Mof_N 	N 	0.18135	0.1744	0.24766	-0.129
Mof_Zn	Zn	0.1777	0.6349	0.2787	-0.31
Mof_I 	I 	0.1334	0.6656	0.2029	-0.267
Mof_I 	I 	0.241	0.7162	0.3085	-0.377
Mof_Zn	Zn	0.1956	0.6364	0.3018	1.072
Mof_I 	I 	0.1623	0.6885	0.2257	-1.174
Mof_I 	I 	0.2597	0.6933	0.3454	-0.019
Mof_Zn	Zn	0.8607	0.4183	0.4601	0.585
Mof_I 	I 	0.8337	0.4717	0.5321	-2.45
Mof_I 	I 	0.8728	0.2626	0.4371	0.559
Mof_I 	I 	0.0223	0.1559	0.6315	-0.146
Mof_I 	I 	0.1126	0.2391	0.5484	-0.168
Mof_Zn	Zn	0.66838	0.1365	0.26855	1.376
Mof_I 	I 	0.62346	0.15439	0.19263	0.542
Mof_I 	I 	0.73033	0.2278	0.29546	-0.17
Mof_Zn	Zn	0.36789	0.90017	0.44978	0.671
Mof_I 	I 	0.34213	0.9259	0.52138	2.043
Mof_I 	I 	0.3823	0.75616	0.41713	-1.049
Mof_Zn	Zn	0.57813	0.62785	0.59215	1.156
Mof_I 	I 	0.52395	0.65694	0.6366	-0.182
Mof_I 	I 	0.61705	0.7387	0.555	-0.144
Mof_N 	N 	0.6375	0.1497	0.3212	-0.34
Mof_C 	C 	0.6481	0.2045	0.356	0.058
Mof_H 	H 	0.673	0.2325	0.3596	-0.057
Mof_C 	C 	0.6244	0.2227	0.3873	-0.119
Mof_H 	H 	0.6327	0.2636	0.4113	0.039
Mof_C 	C 	0.58888	0.1803	0.383	0.044
Mof_C 	C 	0.5777	0.1234	0.3459	-0.119
Mof_H 	H 	0.5529	0.0942	0.3413	0.082
Mof_C 	C 	0.6026	0.1103	0.3167	0.096
Mof_H 	H 	0.5947	0.0711	0.2919	-0.037
Mof_N 	N 	0.41567	0.9835	0.45261	-0.303
Mof_C 	C 	0.43178	0.0301	0.4893	0.063
Mof_H 	H 	0.4213	0.024	0.5161	-0.017
Mof_C 	C 	0.46349	0.0871	0.48929	-0.117
Mof_H 	H 	0.4743	0.1201	0.5156	0.083
Mof_C 	C 	0.4789	0.0951	0.45057	0.051
Mof_C 	C 	0.4616	0.0482	0.4123	-0.134
Mof_H 	H 	0.4712	0.0535	0.3849	0.076
Mof_C 	C 	0.43	0.9936	0.4152	0.079
Mof_H 	H 	0.418	0.9617	0.3889	-0.021
Mof_N 	N 	0.56027	0.5246	0.54634	-0.268
Mof_C 	C 	0.53234	0.466	0.5517	0.073
Mof_H 	H 	0.5162	0.479	0.5732	-0.007
Mof_C 	C 	0.52585	0.3879	0.52756	-0.112
Mof_H 	H 	0.5059	0.3478	0.5327	0.077
Mof_C 	C 	0.54874	0.3684	0.49567	0.046
Mof_C 	C 	0.57704	0.4313	0.48852	-0.113
Mof_H 	H 	0.5928	0.4213	0.4663	0.071
Mof_C 	C 	0.5815	0.5076	0.51422	0.061
Mof_H 	H 	0.6004	0.5503	0.5091	-0.007
Mof_C 	C 	0.56281	0.197	0.41593	0.064
Mof_N 	N 	0.53404	0.1383	0.41736	-0.139
Mof_C 	C 	0.51196	0.1574	0.44813	0.074
Mof_N 	N 	0.51609	0.2276	0.47582	-0.147
Mof_C 	C 	0.54455	0.2841	0.46961	0.072
Mof_N 	N 	0.56917	0.2714	0.44057	-0.155
Mof_N 	N 	0.68438	0.9997	0.27569	-0.351
Mof_C 	C 	0.664	0.9459	0.2473	0.13
Mof_H 	H 	0.644	0.9702	0.2247	-0.049
Mof_C 	C 	0.6698	0.8545	0.2479	-0.161
Mof_H 	H 	0.6544	0.8177	0.2257	0.106
Mof_C 	C 	0.69794	0.8177	0.28076	0.097
Mof_C 	C 	0.7197	0.8743	0.3107	-0.136
Mof_H 	H 	0.7401	0.8525	0.3336	0.106
Mof_C 	C 	0.7112	0.9664	0.3069	0.097
Mof_H 	H 	0.7259	0.0058	0.3283	-0.08
Mof_N 	N 	0.82698	0.4651	0.40126	-0.312
Mof_C 	C 	0.8038	0.4199	0.3686	0.071
Mof_H 	H 	0.8072	0.3572	0.367	-0.01
Mof_C 	C 	0.77522	0.4599	0.3373	-0.133
Mof_H 	H 	0.7595	0.4254	0.3144	0.102
Mof_C 	C 	0.76951	0.5512	0.33946	0.064
Mof_C 	C 	0.79334	0.5988	0.37319	-0.11
Mof_H 	H 	0.7902	0.6614	0.3759	0.103
Mof_C 	C 	0.82184	0.5537	0.4029	0.063
Mof_H 	H 	0.8386	0.5868	0.4256	0.001
Mof_N 	N 	0.61928	0.443	0.13789	-0.27
Mof_C 	C 	0.64752	0.402	0.16691	0.066
Mof_H 	H 	0.6514	0.3399	0.1631	0.021
Mof_C 	C 	0.6715	0.4457	0.20242	-0.114
Mof_H 	H 	0.6909	0.4138	0.2228	0.101
Mof_C 	C 	0.66649	0.5364	0.20757	0.06
Mof_C 	C 	0.6382	0.5791	0.1767	-0.119
Mof_H 	H 	0.6346	0.6417	0.1786	0.108
Mof_C 	C 	0.6153	0.5305	0.1429	0.077
Mof_H 	H 	0.5957	0.5609	0.1221	0.009
Mof_C 	C 	0.70448	0.7192	0.28056	0.106
Mof_N 	N 	0.73306	0.6839	0.31139	-0.122
Mof_C 	C 	0.7387	0.5962	0.30609	0.1
Mof_N 	N 	0.71865	0.5454	0.27347	-0.14
Mof_C 	C 	0.69033	0.5877	0.24503	0.102
Mof_N 	N 	0.68135	0.6744	0.24766	-0.129
Mof_Zn	Zn	0.6777	0.1349	0.2787	-0.31
Mof_I 	I 	0.6334	0.1656	0.2029	-0.267
Mof_I 	I 	0.741	0.2162	0.3085	-0.377
Mof_Zn	Zn	0.6956	0.1364	0.3018	1.072
Mof_I 	I 	0.6623	0.1885	0.2257	-1.174
Mof_I 	I 	0.7597	0.1933	0.3454	-0.019
Mof_Zn	Zn	0.3607	0.9183	0.4601	0.586
Mof_I 	I 	0.3337	0.9717	0.5321	-2.449
Mof_I 	I 	0.3728	0.7626	0.4371	0.559
Mof_I 	I 	0.5223	0.6559	0.6315	-0.146
Mof_I 	I 	0.6126	0.7391	0.5484	-0.168
Mof_Zn	Zn	0.83162	0.3635	0.73145	1.376
Mof_I 	I 	0.87654	0.34561	0.80737	0.542
Mof_I 	I 	0.76967	0.2722	0.70454	-0.17
Mof_Zn	Zn	0.13211	0.59983	0.55022	0.671
Mof_I 	I 	0.15787	0.5741	0.47862	2.046
Mof_I 	I 	0.1177	0.74384	0.58287	-1.05
Mof_Zn	Zn	0.92187	0.87215	0.40785	1.156
Mof_I 	I 	0.97605	0.84306	0.3634	-0.183
Mof_I 	I 	0.88295	0.7613	0.445	-0.144
Mof_N 	N 	0.8625	0.3503	0.6788	-0.34
Mof_C 	C 	0.8519	0.2955	0.644	0.058
Mof_H 	H 	0.827	0.2675	0.6404	-0.057
Mof_C 	C 	0.8756	0.2773	0.6127	-0.119
Mof_H 	H 	0.8673	0.2364	0.5887	0.039
Mof_C 	C 	0.91112	0.3197	0.617	0.044
Mof_C 	C 	0.9223	0.3766	0.6541	-0.119
Mof_H 	H 	0.9471	0.4058	0.6587	0.082
Mof_C 	C 	0.8974	0.3897	0.6833	0.096
Mof_H 	H 	0.9053	0.4289	0.7081	-0.037
Mof_N 	N 	0.08433	0.5165	0.54739	-0.303
Mof_C 	C 	0.06822	0.4699	0.5107	0.064
Mof_H 	H 	0.0787	0.476	0.4839	-0.017
Mof_C 	C 	0.03651	0.4129	0.51071	-0.117
Mof_H 	H 	0.0257	0.3799	0.4844	0.083
Mof_C 	C 	0.0211	0.4049	0.54943	0.051
Mof_C 	C 	0.0384	0.4518	0.5877	-0.134
Mof_H 	H 	0.0288	0.4465	0.6151	0.076
Mof_C 	C 	0.07	0.5064	0.5848	0.079
Mof_H 	H 	0.082	0.5383	0.6111	-0.021
Mof_N 	N 	0.93973	0.9754	0.45366	-0.268
Mof_C 	C 	0.96766	0.034	0.4483	0.072
Mof_H 	H 	0.9838	0.021	0.4268	-0.007
Mof_C 	C 	0.97415	0.1121	0.47244	-0.112
Mof_H 	H 	0.9941	0.1522	0.4673	0.077
Mof_C 	C 	0.95126	0.1316	0.50433	0.046
Mof_C 	C 	0.92296	0.0687	0.51148	-0.113
Mof_H 	H 	0.9072	0.0787	0.5337	0.071
Mof_C 	C 	0.9185	0.9924	0.48578	0.06
Mof_H 	H 	0.8996	0.9497	0.4909	-0.007
Mof_C 	C 	0.93719	0.303	0.58407	0.064
Mof_N 	N 	0.96596	0.3617	0.58264	-0.139
Mof_C 	C 	0.98804	0.3426	0.55187	0.074
Mof_N 	N 	0.98391	0.2724	0.52418	-0.147
Mof_C 	C 	0.95545	0.2159	0.53039	0.072
Mof_N 	N 	0.93083	0.2286	0.55943	-0.155
Mof_N 	N 	0.81562	0.5003	0.72431	-0.351
Mof_C 	C 	0.836	0.5541	0.7527	0.13
Mof_H 	H 	0.856	0.5298	0.7753	-0.049
Mof_C 	C 	0.8302	0.6455	0.7521	-0.161
Mof_H 	H 	0.8456	0.6823	0.7743	0.106
Mof_C 	C 	0.80206	0.6823	0.71924	0.097
Mof_C 	C 	0.7803	0.6257	0.6893	-0.136
Mof_H 	H 	0.7599	0.6475	0.6664	0.106
Mof_C 	C 	0.7888	0.5336	0.6931	0.096
Mof_H 	H 	0.7741	0.4942	0.6717	-0.08
Mof_N 	N 	0.67302	0.0349	0.59874	-0.312
Mof_C 	C 	0.6962	0.0801	0.6314	0.071
Mof_H 	H 	0.6928	0.1428	0.633	-0.01
Mof_C 	C 	0.72478	0.0401	0.6627	-0.132
Mof_H 	H 	0.7405	0.0746	0.6856	0.102
Mof_C 	C 	0.73049	0.9488	0.66054	0.064
Mof_C 	C 	0.70666	0.9012	0.62681	-0.11
Mof_H 	H 	0.7098	0.8386	0.6241	0.103
Mof_C 	C 	0.67816	0.9463	0.5971	0.063
Mof_H 	H 	0.6614	0.9132	0.5744	0.001
Mof_N 	N 	0.88072	0.057	0.86211	-0.27
Mof_C 	C 	0.85248	0.098	0.83309	0.066
Mof_H 	H 	0.8486	0.1601	0.8369	0.021
Mof_C 	C 	0.8285	0.0543	0.79758	-0.114
Mof_H 	H 	0.8091	0.0862	0.7772	0.101
Mof_C 	C 	0.83351	0.9636	0.79243	0.06
Mof_C 	C 	0.8618	0.9209	0.8233	-0.119
Mof_H 	H 	0.8654	0.8583	0.8214	0.108
Mof_C 	C 	0.8847	0.9695	0.8571	0.077
Mof_H 	H 	0.9043	0.9391	0.8779	0.009
Mof_C 	C 	0.79552	0.7808	0.71944	0.106
Mof_N 	N 	0.76694	0.8161	0.68861	-0.122
Mof_C 	C 	0.7613	0.9038	0.69391	0.1
Mof_N 	N 	0.78135	0.9546	0.72653	-0.14
Mof_C 	C 	0.80967	0.9123	0.75497	0.102
Mof_N 	N 	0.81865	0.8256	0.75234	-0.129
Mof_Zn	Zn	0.8223	0.3651	0.7213	-0.31
Mof_I 	I 	0.8666	0.3344	0.7971	-0.267
Mof_I 	I 	0.759	0.2838	0.6915	-0.377
Mof_Zn	Zn	0.8044	0.3636	0.6982	1.072
Mof_I 	I 	0.8377	0.3115	0.7743	-1.174
Mof_I 	I 	0.7403	0.3067	0.6546	-0.019
Mof_Zn	Zn	0.1393	0.5817	0.5399	0.585
Mof_I 	I 	0.1663	0.5283	0.4679	-2.45
Mof_I 	I 	0.1272	0.7374	0.5629	0.559
Mof_I 	I 	0.9777	0.8441	0.3685	-0.146
Mof_I 	I 	0.8874	0.7609	0.4516	-0.168
Mof_Zn	Zn	0.33162	0.8635	0.73145	1.376
Mof_I 	I 	0.37654	0.84561	0.80737	0.542
Mof_I 	I 	0.26967	0.7722	0.70454	-0.17
Mof_Zn	Zn	0.63211	0.09983	0.55022	0.671
Mof_I 	I 	0.65787	0.0741	0.47862	2.043
Mof_I 	I 	0.6177	0.24384	0.58287	-1.049
Mof_Zn	Zn	0.42187	0.37215	0.40785	1.156
Mof_I 	I 	0.47605	0.34306	0.3634	-0.182
Mof_I 	I 	0.38295	0.2613	0.445	-0.144
Mof_N 	N 	0.3625	0.8503	0.6788	-0.34
Mof_C 	C 	0.3519	0.7955	0.644	0.058
Mof_H 	H 	0.327	0.7675	0.6404	-0.057
Mof_C 	C 	0.3756	0.7773	0.6127	-0.119
Mof_H 	H 	0.3673	0.7364	0.5887	0.039
Mof_C 	C 	0.41112	0.8197	0.617	0.044
Mof_C 	C 	0.4223	0.8766	0.6541	-0.119
Mof_H 	H 	0.4471	0.9058	0.6587	0.082
Mof_C 	C 	0.3974	0.8897	0.6833	0.096
Mof_H 	H 	0.4053	0.9289	0.7081	-0.037
Mof_N 	N 	0.58433	0.0165	0.54739	-0.303
Mof_C 	C 	0.56822	0.9699	0.5107	0.063
Mof_H 	H 	0.5787	0.976	0.4839	-0.017
Mof_C 	C 	0.53651	0.9129	0.51071	-0.117
Mof_H 	H 	0.5257	0.8799	0.4844	0.083
Mof_C 	C 	0.5211	0.9049	0.54943	0.051
Mof_C 	C 	0.5384	0.9518	0.5877	-0.134
Mof_H 	H 	0.5288	0.9465	0.6151	0.076
Mof_C 	C 	0.57	0.0064	0.5848	0.079
Mof_H 	H 	0.582	0.0383	0.6111	-0.021
Mof_N 	N 	0.43973	0.4754	0.45366	-0.268
Mof_C 	C 	0.46766	0.534	0.4483	0.073
Mof_H 	H 	0.4838	0.521	0.4268	-0.007
Mof_C 	C 	0.47415	0.6121	0.47244	-0.112
Mof_H 	H 	0.4941	0.6522	0.4673	0.077
Mof_C 	C 	0.45126	0.6316	0.50433	0.046
Mof_C 	C 	0.42296	0.5687	0.51148	-0.113
Mof_H 	H 	0.4072	0.5787	0.5337	0.071
Mof_C 	C 	0.4185	0.4924	0.48578	0.061
Mof_H 	H 	0.3996	0.4497	0.4909	-0.007
Mof_C 	C 	0.43719	0.803	0.58407	0.064
Mof_N 	N 	0.46596	0.8617	0.58264	-0.139
Mof_C 	C 	0.48804	0.8426	0.55187	0.074
Mof_N 	N 	0.48391	0.7724	0.52418	-0.147
Mof_C 	C 	0.45545	0.7159	0.53039	0.072
Mof_N 	N 	0.43083	0.7286	0.55943	-0.155
Mof_N 	N 	0.31562	0.0003	0.72431	-0.351
Mof_C 	C 	0.336	0.0541	0.7527	0.13
Mof_H 	H 	0.356	0.0298	0.7753	-0.049
Mof_C 	C 	0.3302	0.1455	0.7521	-0.161
Mof_H 	H 	0.3456	0.1823	0.7743	0.106
Mof_C 	C 	0.30206	0.1823	0.71924	0.097
Mof_C 	C 	0.2803	0.1257	0.6893	-0.136
Mof_H 	H 	0.2599	0.1475	0.6664	0.106
Mof_C 	C 	0.2888	0.0336	0.6931	0.097
Mof_H 	H 	0.2741	0.9942	0.6717	-0.08
Mof_N 	N 	0.17302	0.5349	0.59874	-0.312
Mof_C 	C 	0.1962	0.5801	0.6314	0.071
Mof_H 	H 	0.1928	0.6428	0.633	-0.01
Mof_C 	C 	0.22478	0.5401	0.6627	-0.133
Mof_H 	H 	0.2405	0.5746	0.6856	0.102
Mof_C 	C 	0.23049	0.4488	0.66054	0.064
Mof_C 	C 	0.20666	0.4012	0.62681	-0.11
Mof_H 	H 	0.2098	0.3386	0.6241	0.103
Mof_C 	C 	0.17816	0.4463	0.5971	0.063
Mof_H 	H 	0.1614	0.4132	0.5744	0.001
Mof_N 	N 	0.38072	0.557	0.86211	-0.27
Mof_C 	C 	0.35248	0.598	0.83309	0.066
Mof_H 	H 	0.3486	0.6601	0.8369	0.021
Mof_C 	C 	0.3285	0.5543	0.79758	-0.114
Mof_H 	H 	0.3091	0.5862	0.7772	0.101
Mof_C 	C 	0.33351	0.4636	0.79243	0.06
Mof_C 	C 	0.3618	0.4209	0.8233	-0.119
Mof_H 	H 	0.3654	0.3583	0.8214	0.108
Mof_C 	C 	0.3847	0.4695	0.8571	0.077
Mof_H 	H 	0.4043	0.4391	0.8779	0.009
Mof_C 	C 	0.29552	0.2808	0.71944	0.106
Mof_N 	N 	0.26694	0.3161	0.68861	-0.122
Mof_C 	C 	0.2613	0.4038	0.69391	0.1
Mof_N 	N 	0.28135	0.4546	0.72653	-0.14
Mof_C 	C 	0.30967	0.4123	0.75497	0.102
Mof_N 	N 	0.31865	0.3256	0.75234	-0.129
Mof_Zn	Zn	0.3223	0.8651	0.7213	-0.31
Mof_I 	I 	0.3666	0.8344	0.7971	-0.267
Mof_I 	I 	0.259	0.7838	0.6915	-0.377
Mof_Zn	Zn	0.3044	0.8636	0.6982	1.072
Mof_I 	I 	0.3377	0.8115	0.7743	-1.174
Mof_I 	I 	0.2403	0.8067	0.6546	-0.019
Mof_Zn	Zn	0.6393	0.0817	0.5399	0.586
Mof_I 	I 	0.6663	0.0283	0.4679	-2.449
Mof_I 	I 	0.6272	0.2374	0.5629	0.559
Mof_I 	I 	0.4777	0.3441	0.3685	-0.146
Mof_I 	I 	0.3874	0.2609	0.4516	-0.168
Mof_Zn	Zn	0.83162	0.6365	0.23145	1.376
Mof_I 	I 	0.87654	0.65439	0.30737	0.542
Mof_I 	I 	0.76967	0.7278	0.20454	-0.17
Mof_Zn	Zn	0.13211	0.40017	0.05022	0.671
Mof_I 	I 	0.15787	0.4259	0.97862	2.046
Mof_I 	I 	0.1177	0.25616	0.08287	-1.049
Mof_Zn	Zn	0.92187	0.12785	0.90785	1.156
Mof_I 	I 	0.97605	0.15694	0.8634	-0.183
Mof_I 	I 	0.88295	0.2387	0.945	-0.144
Mof_N 	N 	0.8625	0.6497	0.1788	-0.34
Mof_C 	C 	0.8519	0.7045	0.144	0.058
Mof_H 	H 	0.827	0.7325	0.1404	-0.057
Mof_C 	C 	0.8756	0.7227	0.1127	-0.119
Mof_H 	H 	0.8673	0.7636	0.0887	0.039
Mof_C 	C 	0.91112	0.6803	0.117	0.044
Mof_C 	C 	0.9223	0.6234	0.1541	-0.119
Mof_H 	H 	0.9471	0.5942	0.1587	0.082
Mof_C 	C 	0.8974	0.6103	0.1833	0.096
Mof_H 	H 	0.9053	0.5711	0.2081	-0.037
Mof_N 	N 	0.08433	0.4835	0.04739	-0.303
Mof_C 	C 	0.06822	0.5301	0.0107	0.064
Mof_H 	H 	0.0787	0.524	0.9839	-0.017
Mof_C 	C 	0.03651	0.5871	0.01071	-0.117
Mof_H 	H 	0.0257	0.6201	0.9844	0.083
Mof_C 	C 	0.0211	0.5951	0.04943	0.051
Mof_C 	C 	0.0384	0.5482	0.0877	-0.134
Mof_H 	H 	0.0288	0.5535	0.1151	0.076
Mof_C 	C 	0.07	0.4936	0.0848	0.079
Mof_H 	H 	0.082	0.4617	0.1111	-0.021
Mof_N 	N 	0.93973	0.0246	0.95366	-0.268
Mof_C 	C 	0.96766	0.966	0.9483	0.073
Mof_H 	H 	0.9838	0.979	0.9268	-0.007
Mof_C 	C 	0.97415	0.8879	0.97244	-0.112
Mof_H 	H 	0.9941	0.8478	0.9673	0.077
Mof_C 	C 	0.95126	0.8684	0.00433	0.046
Mof_C 	C 	0.92296	0.9313	0.01148	-0.113
Mof_H 	H 	0.9072	0.9213	0.0337	0.071
Mof_C 	C 	0.9185	0.0076	0.98578	0.06
Mof_H 	H 	0.8996	0.0503	0.9909	-0.007
Mof_C 	C 	0.93719	0.697	0.08407	0.064
Mof_N 	N 	0.96596	0.6383	0.08264	-0.139
Mof_C 	C 	0.98804	0.6574	0.05187	0.074
Mof_N 	N 	0.98391	0.7276	0.02418	-0.147
Mof_C 	C 	0.95545	0.7841	0.03039	0.072
Mof_N 	N 	0.93083	0.7714	0.05943	-0.155
Mof_N 	N 	0.81562	0.4997	0.22431	-0.351
Mof_C 	C 	0.836	0.4459	0.2527	0.13
Mof_H 	H 	0.856	0.4702	0.2753	-0.049
Mof_C 	C 	0.8302	0.3545	0.2521	-0.161
Mof_H 	H 	0.8456	0.3177	0.2743	0.106
Mof_C 	C 	0.80206	0.3177	0.21924	0.097
Mof_C 	C 	0.7803	0.3743	0.1893	-0.136
Mof_H 	H 	0.7599	0.3525	0.1664	0.106
Mof_C 	C 	0.7888	0.4664	0.1931	0.096
Mof_H 	H 	0.7741	0.5058	0.1717	-0.08
Mof_N 	N 	0.67302	0.9651	0.09874	-0.312
Mof_C 	C 	0.6962	0.9199	0.1314	0.071
Mof_H 	H 	0.6928	0.8572	0.133	-0.01
Mof_C 	C 	0.72478	0.9599	0.1627	-0.133
Mof_H 	H 	0.7405	0.9254	0.1856	0.102
Mof_C 	C 	0.73049	0.0512	0.16054	0.064
Mof_C 	C 	0.70666	0.0988	0.12681	-0.11
Mof_H 	H 	0.7098	0.1614	0.1241	0.103
Mof_C 	C 	0.67816	0.0537	0.0971	0.063
Mof_H 	H 	0.6614	0.0868	0.0744	0.001
Mof_N 	N 	0.88072	0.943	0.36211	-0.27
Mof_C 	C 	0.85248	0.902	0.33309	0.065
Mof_H 	H 	0.8486	0.8399	0.3369	0.021
Mof_C 	C 	0.8285	0.9457	0.29758	-0.114
Mof_H 	H 	0.8091	0.9138	0.2772	0.101
Mof_C 	C 	0.83351	0.0364	0.29243	0.06
Mof_C 	C 	0.8618	0.0791	0.3233	-0.119
Mof_H 	H 	0.8654	0.1417	0.3214	0.108
Mof_C 	C 	0.8847	0.0305	0.3571	0.077
Mof_H 	H 	0.9043	0.0609	0.3779	0.009
Mof_C 	C 	0.79552	0.2192	0.21944	0.106
Mof_N 	N 	0.76694	0.1839	0.18861	-0.122
Mof_C 	C 	0.7613	0.0962	0.19391	0.1
Mof_N 	N 	0.78135	0.0454	0.22653	-0.14
Mof_C 	C 	0.80967	0.0877	0.25497	0.102
Mof_N 	N 	0.81865	0.1744	0.25234	-0.129
Mof_Zn	Zn	0.8223	0.6349	0.2213	-0.31
Mof_I 	I 	0.8666	0.6656	0.2971	-0.267
Mof_I 	I 	0.759	0.7162	0.1915	-0.377
Mof_Zn	Zn	0.8044	0.6364	0.1982	1.072
Mof_I 	I 	0.8377	0.6885	0.2743	-1.174
Mof_I 	I 	0.7403	0.6933	0.1546	-0.019
Mof_Zn	Zn	0.1393	0.4183	0.0399	0.585
Mof_I 	I 	0.1663	0.4717	0.9679	-2.45
Mof_I 	I 	0.1272	0.2626	0.0629	0.559
Mof_I 	I 	0.9777	0.1559	0.8685	-0.146
Mof_I 	I 	0.8874	0.2391	0.9516	-0.168
Mof_Zn	Zn	0.33162	0.1365	0.23145	1.376
Mof_I 	I 	0.37654	0.15439	0.30737	0.542
Mof_I 	I 	0.26967	0.2278	0.20454	-0.17
Mof_Zn	Zn	0.63211	0.90017	0.05022	0.671
Mof_I 	I 	0.65787	0.9259	0.97862	2.043
Mof_I 	I 	0.6177	0.75616	0.08287	-1.049
Mof_Zn	Zn	0.42187	0.62785	0.90785	1.156
Mof_I 	I 	0.47605	0.65694	0.8634	-0.182
Mof_I 	I 	0.38295	0.7387	0.945	-0.144
Mof_N 	N 	0.3625	0.1497	0.1788	-0.34
Mof_C 	C 	0.3519	0.2045	0.144	0.058
Mof_H 	H 	0.327	0.2325	0.1404	-0.057
Mof_C 	C 	0.3756	0.2227	0.1127	-0.119
Mof_H 	H 	0.3673	0.2636	0.0887	0.039
Mof_C 	C 	0.41112	0.1803	0.117	0.044
Mof_C 	C 	0.4223	0.1234	0.1541	-0.119
Mof_H 	H 	0.4471	0.0942	0.1587	0.082
Mof_C 	C 	0.3974	0.1103	0.1833	0.096
Mof_H 	H 	0.4053	0.0711	0.2081	-0.037
Mof_N 	N 	0.58433	0.9835	0.04739	-0.303
Mof_C 	C 	0.56822	0.0301	0.0107	0.064
Mof_H 	H 	0.5787	0.024	0.9839	-0.017
Mof_C 	C 	0.53651	0.0871	0.01071	-0.117
Mof_H 	H 	0.5257	0.1201	0.9844	0.083
Mof_C 	C 	0.5211	0.0951	0.04943	0.051
Mof_C 	C 	0.5384	0.0482	0.0877	-0.134
Mof_H 	H 	0.5288	0.0535	0.1151	0.076
Mof_C 	C 	0.57	0.9936	0.0848	0.078
Mof_H 	H 	0.582	0.9617	0.1111	-0.021
Mof_N 	N 	0.43973	0.5246	0.95366	-0.268
Mof_C 	C 	0.46766	0.466	0.9483	0.073
Mof_H 	H 	0.4838	0.479	0.9268	-0.007
Mof_C 	C 	0.47415	0.3879	0.97244	-0.112
Mof_H 	H 	0.4941	0.3478	0.9673	0.077
Mof_C 	C 	0.45126	0.3684	0.00433	0.046
Mof_C 	C 	0.42296	0.4313	0.01148	-0.113
Mof_H 	H 	0.4072	0.4213	0.0337	0.071
Mof_C 	C 	0.4185	0.5076	0.98578	0.061
Mof_H 	H 	0.3996	0.5503	0.9909	-0.007
Mof_C 	C 	0.43719	0.197	0.08407	0.064
Mof_N 	N 	0.46596	0.1383	0.08264	-0.139
Mof_C 	C 	0.48804	0.1574	0.05187	0.074
Mof_N 	N 	0.48391	0.2276	0.02418	-0.147
Mof_C 	C 	0.45545	0.2841	0.03039	0.072
Mof_N 	N 	0.43083	0.2714	0.05943	-0.155
Mof_N 	N 	0.31562	0.9997	0.22431	-0.351
Mof_C 	C 	0.336	0.9459	0.2527	0.13
Mof_H 	H 	0.356	0.9702	0.2753	-0.049
Mof_C 	C 	0.3302	0.8545	0.2521	-0.161
Mof_H 	H 	0.3456	0.8177	0.2743	0.106
Mof_C 	C 	0.30206	0.8177	0.21924	0.097
Mof_C 	C 	0.2803	0.8743	0.1893	-0.136
Mof_H 	H 	0.2599	0.8525	0.1664	0.106
Mof_C 	C 	0.2888	0.9664	0.1931	0.096
Mof_H 	H 	0.2741	0.0058	0.1717	-0.08
Mof_N 	N 	0.17302	0.4651	0.09874	-0.312
Mof_C 	C 	0.1962	0.4199	0.1314	0.071
Mof_H 	H 	0.1928	0.3572	0.133	-0.01
Mof_C 	C 	0.22478	0.4599	0.1627	-0.133
Mof_H 	H 	0.2405	0.4254	0.1856	0.102
Mof_C 	C 	0.23049	0.5512	0.16054	0.064
Mof_C 	C 	0.20666	0.5988	0.12681	-0.11
Mof_H 	H 	0.2098	0.6614	0.1241	0.103
Mof_C 	C 	0.17816	0.5537	0.0971	0.063
Mof_H 	H 	0.1614	0.5868	0.0744	0.001
Mof_N 	N 	0.38072	0.443	0.36211	-0.27
Mof_C 	C 	0.35248	0.402	0.33309	0.066
Mof_H 	H 	0.3486	0.3399	0.3369	0.021
Mof_C 	C 	0.3285	0.4457	0.29758	-0.114
Mof_H 	H 	0.3091	0.4138	0.2772	0.101
Mof_C 	C 	0.33351	0.5364	0.29243	0.06
Mof_C 	C 	0.3618	0.5791	0.3233	-0.119
Mof_H 	H 	0.3654	0.6417	0.3214	0.108
Mof_C 	C 	0.3847	0.5305	0.3571	0.077
Mof_H 	H 	0.4043	0.5609	0.3779	0.009
Mof_C 	C 	0.29552	0.7192	0.21944	0.106
Mof_N 	N 	0.26694	0.6839	0.18861	-0.122
Mof_C 	C 	0.2613	0.5962	0.19391	0.1
Mof_N 	N 	0.28135	0.5454	0.22653	-0.14
Mof_C 	C 	0.30967	0.5877	0.25497	0.102
Mof_N 	N 	0.31865	0.6744	0.25234	-0.129
Mof_Zn	Zn	0.3223	0.1349	0.2213	-0.31
Mof_I 	I 	0.3666	0.1656	0.2971	-0.267
Mof_I 	I 	0.259	0.2162	0.1915	-0.377
Mof_Zn	Zn	0.3044	0.1364	0.1982	1.072
Mof_I 	I 	0.3377	0.1885	0.2743	-1.174
Mof_I 	I 	0.2403	0.1933	0.1546	-0.019
Mof_Zn	Zn	0.6393	0.9183	0.0399	0.586
Mof_I 	I 	0.6663	0.9717	0.9679	-2.448
Mof_I 	I 	0.6272	0.7626	0.0629	0.559
Mof_I 	I 	0.4777	0.6559	0.8685	-0.146
Mof_I 	I 	0.3874	0.7391	0.9516	-0.168
_end
