data_functionalizedCrystal
_audit_creation_method	'EQeq! by Chris Wilmer'
_symmetry_space_group_name_H-M	'P1'
_symmetry_Int_Tables_number	1
_symmetry_cell_setting	triclinic
loop_
_symmetry_equiv_pos_as_xyz
  x,y,z
_cell_length_a	6.722
_cell_length_b	14.239
_cell_length_c	22.88
_cell_angle_alpha	90
_cell_angle_beta	90
_cell_angle_gamma	90
loop_
_atom_site_label
_atom_site_type_symbol
_atom_site_fract_x
_atom_site_fract_y
_atom_site_fract_z
_atom_site_charge
Mof_Tb	Tb	0.75	0.95243	0.64044	2.174
Mof_Tb	Tb	0.25	0.54757	0.14044	2.18
Mof_Tb	Tb	0.25	0.04757	0.35956	2.174
Mof_Tb	Tb	0.75	0.45243	0.85956	2.18
Mof_H 	H 	0.75	0.9873	0.7947	0.024
Mof_H 	H 	0.75	0.9074	0.8816	0.084
Mof_H 	H 	0.75	0.7479	0.8831	0.045
Mof_H 	H 	0.75	0.7692	0.5354	0.005
Mof_H 	H 	0.75	0.7388	0.4374	0.106
Mof_H 	H 	0.75	0.8622	0.3712	0.002
Mof_H 	H 	0.25	0.5127	0.2947	0.025
Mof_H 	H 	0.25	0.5926	0.3816	0.085
Mof_H 	H 	0.25	0.7521	0.3831	0.046
Mof_H 	H 	0.25	0.7308	0.0354	0.005
Mof_H 	H 	0.25	0.7612	0.9374	0.106
Mof_H 	H 	0.25	0.6378	0.8712	0.002
Mof_H 	H 	0.25	0.0127	0.2053	0.024
Mof_H 	H 	0.25	0.0926	0.1184	0.084
Mof_H 	H 	0.25	0.2521	0.1169	0.045
Mof_H 	H 	0.25	0.2308	0.4646	0.005
Mof_H 	H 	0.25	0.2612	0.5626	0.106
Mof_H 	H 	0.25	0.1378	0.6288	0.002
Mof_H 	H 	0.75	0.4873	0.7053	0.025
Mof_H 	H 	0.75	0.4074	0.6184	0.085
Mof_H 	H 	0.75	0.2479	0.6169	0.046
Mof_H 	H 	0.75	0.2692	0.9646	0.005
Mof_H 	H 	0.75	0.2388	0.0626	0.106
Mof_H 	H 	0.75	0.3622	0.1288	0.002
Mof_C 	C 	0.75	0.922	0.7943	0.075
Mof_C 	C 	0.75	0.8741	0.8467	-0.109
Mof_C 	C 	0.75	0.78	0.8477	0.02
Mof_C 	C 	0.75	0.7302	0.7947	-0.052
Mof_C 	C 	0.75	0.6232	0.7972	0.311
Mof_C 	C 	0.75	0.7808	0.7426	-0.012
Mof_C 	C 	0.75	0.7347	0.6837	0.35
Mof_C 	C 	0.75	0.8195	0.5095	0.137
Mof_C 	C 	0.75	0.8006	0.4506	-0.176
Mof_C 	C 	0.75	0.8739	0.4112	0.118
Mof_C 	C 	0.75	0.9665	0.4325	-0.205
Mof_C 	C 	0.75	0.0455	0.3888	0.54
Mof_C 	C 	0.75	0.9796	0.4934	0.026
Mof_C 	C 	0.75	0.0765	0.5206	0.31
Mof_C 	C 	0.25	0.578	0.2943	0.075
Mof_C 	C 	0.25	0.6259	0.3467	-0.108
Mof_C 	C 	0.25	0.72	0.3477	0.02
Mof_C 	C 	0.25	0.7698	0.2947	-0.051
Mof_C 	C 	0.25	0.8768	0.2972	0.311
Mof_C 	C 	0.25	0.7192	0.2426	-0.012
Mof_C 	C 	0.25	0.7653	0.1837	0.35
Mof_C 	C 	0.25	0.6805	0.0095	0.138
Mof_C 	C 	0.25	0.6994	0.9506	-0.176
Mof_C 	C 	0.25	0.6261	0.9112	0.118
Mof_C 	C 	0.25	0.5335	0.9325	-0.205
Mof_C 	C 	0.25	0.4545	0.8888	0.54
Mof_C 	C 	0.25	0.5204	0.9934	0.028
Mof_C 	C 	0.25	0.4235	0.0206	0.307
Mof_C 	C 	0.25	0.078	0.2057	0.075
Mof_C 	C 	0.25	0.1259	0.1533	-0.109
Mof_C 	C 	0.25	0.22	0.1523	0.02
Mof_C 	C 	0.25	0.2698	0.2053	-0.052
Mof_C 	C 	0.25	0.3768	0.2028	0.311
Mof_C 	C 	0.25	0.2192	0.2574	-0.012
Mof_C 	C 	0.25	0.2653	0.3163	0.35
Mof_C 	C 	0.25	0.1805	0.4905	0.137
Mof_C 	C 	0.25	0.1994	0.5494	-0.176
Mof_C 	C 	0.25	0.1261	0.5888	0.118
Mof_C 	C 	0.25	0.0335	0.5675	-0.205
Mof_C 	C 	0.25	0.9545	0.6112	0.54
Mof_C 	C 	0.25	0.0204	0.5066	0.026
Mof_C 	C 	0.25	0.9235	0.4794	0.31
Mof_C 	C 	0.75	0.422	0.7057	0.075
Mof_C 	C 	0.75	0.3741	0.6533	-0.108
Mof_C 	C 	0.75	0.28	0.6523	0.02
Mof_C 	C 	0.75	0.2302	0.7053	-0.051
Mof_C 	C 	0.75	0.1232	0.7028	0.311
Mof_C 	C 	0.75	0.2808	0.7574	-0.012
Mof_C 	C 	0.75	0.2347	0.8163	0.35
Mof_C 	C 	0.75	0.3195	0.9905	0.138
Mof_C 	C 	0.75	0.3006	0.0494	-0.176
Mof_C 	C 	0.75	0.3739	0.0888	0.118
Mof_C 	C 	0.75	0.4665	0.0675	-0.205
Mof_C 	C 	0.75	0.5455	0.1112	0.54
Mof_C 	C 	0.75	0.4796	0.0066	0.028
Mof_C 	C 	0.75	0.5765	0.9794	0.307
Mof_N 	N 	0.75	0.8757	0.7413	-0.224
Mof_N 	N 	0.75	0.9066	0.5313	-0.234
Mof_N 	N 	0.25	0.6243	0.2413	-0.224
Mof_N 	N 	0.25	0.5934	0.0313	-0.234
Mof_N 	N 	0.25	0.1243	0.2587	-0.224
Mof_N 	N 	0.25	0.0934	0.4687	-0.234
Mof_N 	N 	0.75	0.3757	0.7587	-0.224
Mof_N 	N 	0.75	0.4066	0.9687	-0.234
Mof_O 	O 	0.913	0.5802	0.80339	-0.406
Mof_O 	O 	0.9155	0.0755	0.37073	-0.539
Mof_O 	O 	0.087	0.9198	0.30339	-0.403
Mof_O 	O 	0.0845	0.4245	0.87073	-0.541
Mof_O 	O 	0.413	0.4198	0.19661	-0.403
Mof_O 	O 	0.4155	0.9245	0.62927	-0.541
Mof_O 	O 	0.587	0.0802	0.69661	-0.402
Mof_O 	O 	0.5845	0.5755	0.12927	-0.542
Mof_O 	O 	0.087	0.4198	0.19661	-0.406
Mof_O 	O 	0.0845	0.9245	0.62927	-0.539
Mof_O 	O 	0.913	0.0802	0.69661	-0.403
Mof_O 	O 	0.9155	0.5755	0.12927	-0.541
Mof_O 	O 	0.587	0.5802	0.80339	-0.403
Mof_O 	O 	0.5845	0.0755	0.37073	-0.541
Mof_O 	O 	0.413	0.9198	0.30339	-0.402
Mof_O 	O 	0.4155	0.4245	0.87073	-0.542
Mof_O 	O 	0.75	0.7888	0.6402	-0.466
Mof_O 	O 	0.75	0.6471	0.681	-0.242
Mof_O 	O 	0.75	0.0779	0.5767	-0.479
Mof_O 	O 	0.75	0.1452	0.487	-0.246
Mof_O 	O 	0.25	0.7112	0.1402	-0.466
Mof_O 	O 	0.25	0.8529	0.181	-0.24
Mof_O 	O 	0.25	0.4221	0.0767	-0.48
Mof_O 	O 	0.25	0.3548	0.987	-0.245
Mof_O 	O 	0.25	0.2112	0.3598	-0.466
Mof_O 	O 	0.25	0.3529	0.319	-0.242
Mof_O 	O 	0.25	0.9221	0.4233	-0.479
Mof_O 	O 	0.25	0.8548	0.513	-0.246
Mof_O 	O 	0.75	0.2888	0.8598	-0.466
Mof_O 	O 	0.75	0.1471	0.819	-0.24
Mof_O 	O 	0.75	0.5779	0.9233	-0.48
Mof_O 	O 	0.75	0.6452	0.013	-0.245
_end
