data_functionalizedCrystal
_audit_creation_method	'EQeq! by Chris Wilmer'
_symmetry_space_group_name_H-M	'P1'
_symmetry_Int_Tables_number	1
_symmetry_cell_setting	triclinic
loop_
_symmetry_equiv_pos_as_xyz
  x,y,z
_cell_length_a	17.6286
_cell_length_b	13.0929
_cell_length_c	11.0727
_cell_angle_alpha	90
_cell_angle_beta	95.599
_cell_angle_gamma	90
loop_
_atom_site_label
_atom_site_type_symbol
_atom_site_fract_x
_atom_site_fract_y
_atom_site_fract_z
_atom_site_charge
Mof_Co	Co	0.5787	0.56424	0.99732	1.124
Mof_N 	N 	0.8695	0.9398	0.1633	-0.207
Mof_N 	N 	0.9068	0.9864	0.256	-0.164
Mof_N 	N 	0.8732	0.9768	0.3571	-0.216
Mof_C 	C 	0.8086	0.8923	0.2085	0.035
Mof_C 	C 	0.8119	0.9159	0.3304	0.084
Mof_C 	C 	0.7581	0.878	0.4024	-0.147
Mof_H 	H 	0.7617	0.8907	0.4854	0.07
Mof_C 	C 	0.6999	0.8217	0.3469	0.039
Mof_H 	H 	0.6615	0.7989	0.3923	0.023
Mof_C 	C 	0.6961	0.7966	0.2214	-0.091
Mof_C 	C 	0.7492	0.8322	0.1497	-0.05
Mof_H 	H 	0.7464	0.8179	0.0671	0.058
Mof_C 	C 	0.6331	0.7267	0.1711	0.362
Mof_O 	O 	0.479	0.5772	0.0674	-0.713
Mof_H 	H 	0.465	0.635	0.016	0.147
Mof_O 	O 	0.6363	0.6924	0.0647	-0.452
Mof_O 	O 	0.5815	0.7085	0.2389	-0.433
Mof_Co	Co	0.0787	0.06424	0.99732	1.098
Mof_N 	N 	0.3695	0.4398	0.1633	-0.213
Mof_N 	N 	0.4068	0.4864	0.256	-0.188
Mof_N 	N 	0.3732	0.4768	0.3571	-0.224
Mof_C 	C 	0.3086	0.3923	0.2085	0.028
Mof_C 	C 	0.3119	0.4159	0.3304	0.083
Mof_C 	C 	0.2581	0.378	0.4024	-0.155
Mof_H 	H 	0.2617	0.3907	0.4854	0.068
Mof_C 	C 	0.1999	0.3217	0.3469	0.04
Mof_H 	H 	0.1615	0.2989	0.3923	0.013
Mof_C 	C 	0.1961	0.2966	0.2214	-0.102
Mof_C 	C 	0.2492	0.3322	0.1497	-0.05
Mof_H 	H 	0.2464	0.3179	0.0671	0.055
Mof_C 	C 	0.1331	0.2267	0.1711	0.362
Mof_O 	O 	0.979	0.0772	0.0674	-0.65
Mof_H 	H 	0.965	0.135	0.016	0.162
Mof_O 	O 	0.1363	0.1924	0.0647	-0.466
Mof_O 	O 	0.0815	0.2085	0.2389	-0.461
Mof_Co	Co	0.4213	0.56424	0.50268	1.12
Mof_N 	N 	0.1305	0.9398	0.3367	-0.218
Mof_N 	N 	0.0932	0.9864	0.244	-0.2
Mof_N 	N 	0.1268	0.9768	0.1429	-0.229
Mof_C 	C 	0.1914	0.8923	0.2915	0.027
Mof_C 	C 	0.1881	0.9159	0.1696	0.08
Mof_C 	C 	0.2419	0.878	0.0976	-0.151
Mof_H 	H 	0.2383	0.8907	0.0146	0.07
Mof_C 	C 	0.3001	0.8217	0.1531	0.037
Mof_H 	H 	0.3385	0.7989	0.1077	0.022
Mof_C 	C 	0.3039	0.7966	0.2786	-0.093
Mof_C 	C 	0.2508	0.8322	0.3503	-0.055
Mof_H 	H 	0.2536	0.8179	0.4329	0.059
Mof_C 	C 	0.3669	0.7267	0.3289	0.36
Mof_O 	O 	0.521	0.5772	0.4326	-0.712
Mof_H 	H 	0.535	0.635	0.484	0.148
Mof_O 	O 	0.3637	0.6924	0.4353	-0.451
Mof_O 	O 	0.4185	0.7085	0.2611	-0.433
Mof_Co	Co	0.9213	0.06424	0.50268	1.145
Mof_N 	N 	0.6305	0.4398	0.3367	-0.213
Mof_N 	N 	0.5932	0.4864	0.244	-0.187
Mof_N 	N 	0.6268	0.4768	0.1429	-0.223
Mof_C 	C 	0.6914	0.3923	0.2915	0.037
Mof_C 	C 	0.6881	0.4159	0.1696	0.08
Mof_C 	C 	0.7419	0.378	0.0976	-0.141
Mof_H 	H 	0.7383	0.3907	0.0146	0.07
Mof_C 	C 	0.8001	0.3217	0.1531	0.033
Mof_H 	H 	0.8385	0.2989	0.1077	0.034
Mof_C 	C 	0.8039	0.2966	0.2786	-0.078
Mof_C 	C 	0.7508	0.3322	0.3503	-0.057
Mof_H 	H 	0.7536	0.3179	0.4329	0.064
Mof_C 	C 	0.8669	0.2267	0.3289	0.356
Mof_O 	O 	0.021	0.0772	0.4326	-0.757
Mof_H 	H 	0.035	0.135	0.484	0.132
Mof_O 	O 	0.8637	0.1924	0.4353	-0.431
Mof_O 	O 	0.9185	0.2085	0.2611	-0.388
Mof_Co	Co	0.4213	0.43576	0.00268	1.119
Mof_N 	N 	0.1305	0.0602	0.8367	-0.218
Mof_N 	N 	0.0932	0.0136	0.744	-0.201
Mof_N 	N 	0.1268	0.0232	0.6429	-0.229
Mof_C 	C 	0.1914	0.1077	0.7915	0.028
Mof_C 	C 	0.1881	0.0841	0.6696	0.08
Mof_C 	C 	0.2419	0.122	0.5976	-0.151
Mof_H 	H 	0.2383	0.1093	0.5146	0.07
Mof_C 	C 	0.3001	0.1783	0.6531	0.037
Mof_H 	H 	0.3385	0.2011	0.6077	0.023
Mof_C 	C 	0.3039	0.2034	0.7786	-0.092
Mof_C 	C 	0.2508	0.1678	0.8503	-0.055
Mof_H 	H 	0.2536	0.1821	0.9329	0.059
Mof_C 	C 	0.3669	0.2733	0.8289	0.36
Mof_O 	O 	0.521	0.4228	0.9326	-0.71
Mof_H 	H 	0.535	0.365	0.984	0.149
Mof_O 	O 	0.3637	0.3076	0.9353	-0.45
Mof_O 	O 	0.4185	0.2915	0.7611	-0.433
Mof_Co	Co	0.9213	0.93576	0.00268	1.141
Mof_N 	N 	0.6305	0.5602	0.8367	-0.212
Mof_N 	N 	0.5932	0.5136	0.744	-0.187
Mof_N 	N 	0.6268	0.5232	0.6429	-0.222
Mof_C 	C 	0.6914	0.6077	0.7915	0.038
Mof_C 	C 	0.6881	0.5841	0.6696	0.08
Mof_C 	C 	0.7419	0.622	0.5976	-0.14
Mof_H 	H 	0.7383	0.6093	0.5146	0.071
Mof_C 	C 	0.8001	0.6783	0.6531	0.033
Mof_H 	H 	0.8385	0.7011	0.6077	0.035
Mof_C 	C 	0.8039	0.7034	0.7786	-0.077
Mof_C 	C 	0.7508	0.6678	0.8503	-0.057
Mof_H 	H 	0.7536	0.6821	0.9329	0.067
Mof_C 	C 	0.8669	0.7733	0.8289	0.355
Mof_O 	O 	0.021	0.9228	0.9326	-0.755
Mof_H 	H 	0.035	0.865	0.984	0.134
Mof_O 	O 	0.8637	0.8076	0.9353	-0.427
Mof_O 	O 	0.9185	0.7915	0.7611	-0.387
Mof_Co	Co	0.5787	0.43576	0.49732	1.121
Mof_N 	N 	0.8695	0.0602	0.6633	-0.207
Mof_N 	N 	0.9068	0.0136	0.756	-0.164
Mof_N 	N 	0.8732	0.0232	0.8571	-0.215
Mof_C 	C 	0.8086	0.1077	0.7085	0.037
Mof_C 	C 	0.8119	0.0841	0.8304	0.084
Mof_C 	C 	0.7581	0.122	0.9024	-0.146
Mof_H 	H 	0.7617	0.1093	0.9854	0.071
Mof_C 	C 	0.6999	0.1783	0.8469	0.039
Mof_H 	H 	0.6615	0.2011	0.8923	0.024
Mof_C 	C 	0.6961	0.2034	0.7214	-0.09
Mof_C 	C 	0.7492	0.1678	0.6497	-0.05
Mof_H 	H 	0.7464	0.1821	0.5671	0.06
Mof_C 	C 	0.6331	0.2733	0.6711	0.362
Mof_O 	O 	0.479	0.4228	0.5674	-0.712
Mof_H 	H 	0.465	0.365	0.516	0.148
Mof_O 	O 	0.6363	0.3076	0.5647	-0.45
Mof_O 	O 	0.5815	0.2915	0.7389	-0.432
Mof_Co	Co	0.0787	0.93576	0.49732	1.098
Mof_N 	N 	0.3695	0.5602	0.6633	-0.213
Mof_N 	N 	0.4068	0.5136	0.756	-0.187
Mof_N 	N 	0.3732	0.5232	0.8571	-0.223
Mof_C 	C 	0.3086	0.6077	0.7085	0.028
Mof_C 	C 	0.3119	0.5841	0.8304	0.084
Mof_C 	C 	0.2581	0.622	0.9024	-0.155
Mof_H 	H 	0.2617	0.6093	0.9854	0.07
Mof_C 	C 	0.1999	0.6783	0.8469	0.041
Mof_H 	H 	0.1615	0.7011	0.8923	0.014
Mof_C 	C 	0.1961	0.7034	0.7214	-0.102
Mof_C 	C 	0.2492	0.6678	0.6497	-0.05
Mof_H 	H 	0.2464	0.6821	0.5671	0.055
Mof_C 	C 	0.1331	0.7733	0.6711	0.362
Mof_O 	O 	0.979	0.9228	0.5674	-0.648
Mof_H 	H 	0.965	0.865	0.516	0.163
Mof_O 	O 	0.1363	0.8076	0.5647	-0.467
Mof_O 	O 	0.0815	0.7915	0.7389	-0.461
Mof_Co	Co	0.5	0.59353	0.25	1.151
Mof_Co	Co	6.46201e-34	0.09353	0.25	1.104
Mof_Co	Co	0.5	0.40647	0.75	1.151
Mof_Co	Co	1.9386e-33	0.90647	0.75	1.103
_end
