data_functionalizedCrystal
_audit_creation_method	'EQeq! by Chris Wilmer'
_symmetry_space_group_name_H-M	'P1'
_symmetry_Int_Tables_number	1
_symmetry_cell_setting	triclinic
loop_
_symmetry_equiv_pos_as_xyz
  x,y,z
_cell_length_a	12.7695
_cell_length_b	12.7695
_cell_length_c	17.727
_cell_angle_alpha	90
_cell_angle_beta	90
_cell_angle_gamma	120
loop_
_atom_site_label
_atom_site_type_symbol
_atom_site_fract_x
_atom_site_fract_y
_atom_site_fract_z
_atom_site_charge
Mof_O 	O 	0.9406	0.3496	0.0846	-0.301
Mof_O 	O 	0.8201	0.3875	0.1544	-0.502
Mof_C 	C 	0.873	0.3309	0.1405	0.408
Mof_C 	C 	0.824	0.202	0.1774	-0.112
Mof_H 	H 	0.7595	0.1394	0.1477	0.069
Mof_H 	H 	0.8881	0.1832	0.1841	0.068
Mof_C 	C 	0.899	0.277	0.2097	-0.065
Mof_H 	H 	0.921	0.2178	0.1959	0.016
Mof_H 	H 	0.9622	0.3398	0.2403	0.054
Mof_O 	O 	0.6504	0.591	0.0846	-0.315
Mof_O 	O 	0.6125	0.4326	0.1544	-0.508
Mof_C 	C 	0.6691	0.5421	0.1405	0.411
Mof_C 	C 	0.798	0.622	0.1774	-0.084
Mof_H 	H 	0.8606	0.6201	0.1477	0.076
Mof_H 	H 	0.8168	0.7049	0.1841	0.042
Mof_C 	C 	0.723	0.622	0.2097	-0.093
Mof_H 	H 	0.7822	0.7032	0.1959	0.045
Mof_H 	H 	0.6602	0.6224	0.2403	0.041
Mof_O 	O 	0.409	0.0594	0.0846	-0.326
Mof_O 	O 	0.5674	0.1799	0.1544	-0.509
Mof_C 	C 	0.4579	0.127	0.1405	0.403
Mof_C 	C 	0.378	0.176	0.1774	-0.073
Mof_H 	H 	0.3799	0.2405	0.1477	0.061
Mof_H 	H 	0.2951	0.1119	0.1841	0.024
Mof_C 	C 	0.378	0.101	0.2097	-0.089
Mof_H 	H 	0.2968	0.079	0.1959	0.043
Mof_H 	H 	0.3776	0.0378	0.2403	0.018
Mof_O 	O 	0.0594	0.6504	0.0846	-0.323
Mof_O 	O 	0.1799	0.6125	0.1544	-0.509
Mof_C 	C 	0.127	0.6691	0.1405	0.406
Mof_C 	C 	0.176	0.798	0.1774	-0.067
Mof_H 	H 	0.2405	0.8606	0.1477	0.068
Mof_H 	H 	0.1119	0.8168	0.1841	0.022
Mof_C 	C 	0.101	0.723	0.2097	-0.1
Mof_H 	H 	0.079	0.7822	0.1959	0.053
Mof_H 	H 	0.0378	0.6602	0.2403	0.021
Mof_O 	O 	0.3496	0.409	0.0846	-0.32
Mof_O 	O 	0.3875	0.5674	0.1544	-0.507
Mof_C 	C 	0.3309	0.4579	0.1405	0.406
Mof_C 	C 	0.202	0.378	0.1774	-0.096
Mof_H 	H 	0.1394	0.3799	0.1477	0.062
Mof_H 	H 	0.1832	0.2951	0.1841	0.047
Mof_C 	C 	0.277	0.378	0.2097	-0.072
Mof_H 	H 	0.2178	0.2968	0.1959	0.025
Mof_H 	H 	0.3398	0.3776	0.2403	0.035
Mof_O 	O 	0.591	0.9406	0.0846	-0.299
Mof_O 	O 	0.4326	0.8201	0.1544	-0.502
Mof_C 	C 	0.5421	0.873	0.1405	0.41
Mof_C 	C 	0.622	0.824	0.1774	-0.106
Mof_H 	H 	0.6201	0.7595	0.1477	0.075
Mof_H 	H 	0.7049	0.8881	0.1841	0.065
Mof_C 	C 	0.622	0.899	0.2097	-0.075
Mof_H 	H 	0.7032	0.921	0.1959	0.026
Mof_H 	H 	0.6224	0.9622	0.2403	0.057
Mof_O 	O 	0.3496	0.9406	0.4154	-0.291
Mof_O 	O 	0.3875	0.8201	0.3456	-0.499
Mof_C 	C 	0.3309	0.873	0.3595	0.408
Mof_C 	C 	0.202	0.824	0.3226	-0.11
Mof_H 	H 	0.1394	0.7595	0.3523	0.072
Mof_H 	H 	0.1832	0.8881	0.3159	0.069
Mof_C 	C 	0.277	0.899	0.2903	-0.068
Mof_H 	H 	0.2178	0.921	0.3041	0.018
Mof_H 	H 	0.3398	0.9622	0.2597	0.055
Mof_O 	O 	0.591	0.6504	0.4154	-0.304
Mof_O 	O 	0.4326	0.6125	0.3456	-0.504
Mof_C 	C 	0.5421	0.6691	0.3595	0.411
Mof_C 	C 	0.622	0.798	0.3226	-0.082
Mof_H 	H 	0.6201	0.8606	0.3523	0.079
Mof_H 	H 	0.7049	0.8168	0.3159	0.043
Mof_C 	C 	0.622	0.723	0.2903	-0.096
Mof_H 	H 	0.7032	0.7822	0.3041	0.046
Mof_H 	H 	0.6224	0.6602	0.2597	0.042
Mof_O 	O 	0.0594	0.409	0.4154	-0.315
Mof_O 	O 	0.1799	0.5674	0.3456	-0.505
Mof_C 	C 	0.127	0.4579	0.3595	0.403
Mof_C 	C 	0.176	0.378	0.3226	-0.07
Mof_H 	H 	0.2405	0.3799	0.3523	0.064
Mof_H 	H 	0.1119	0.2951	0.3159	0.025
Mof_C 	C 	0.101	0.378	0.2903	-0.092
Mof_H 	H 	0.079	0.2968	0.3041	0.045
Mof_H 	H 	0.0378	0.3776	0.2597	0.02
Mof_O 	O 	0.6504	0.0594	0.4154	-0.313
Mof_O 	O 	0.6125	0.1799	0.3456	-0.506
Mof_C 	C 	0.6691	0.127	0.3595	0.406
Mof_C 	C 	0.798	0.176	0.3226	-0.064
Mof_H 	H 	0.8606	0.2405	0.3523	0.072
Mof_H 	H 	0.8168	0.1119	0.3159	0.023
Mof_C 	C 	0.723	0.101	0.2903	-0.103
Mof_H 	H 	0.7822	0.079	0.3041	0.055
Mof_H 	H 	0.6602	0.0378	0.2597	0.023
Mof_O 	O 	0.409	0.3496	0.4154	-0.309
Mof_O 	O 	0.5674	0.3875	0.3456	-0.503
Mof_C 	C 	0.4579	0.3309	0.3595	0.406
Mof_C 	C 	0.378	0.202	0.3226	-0.093
Mof_H 	H 	0.3799	0.1394	0.3523	0.065
Mof_H 	H 	0.2951	0.1832	0.3159	0.048
Mof_C 	C 	0.378	0.277	0.2903	-0.075
Mof_H 	H 	0.2968	0.2178	0.3041	0.026
Mof_H 	H 	0.3776	0.3398	0.2597	0.036
Mof_O 	O 	0.9406	0.591	0.4154	-0.289
Mof_O 	O 	0.8201	0.4326	0.3456	-0.499
Mof_C 	C 	0.873	0.5421	0.3595	0.411
Mof_C 	C 	0.824	0.622	0.3226	-0.104
Mof_H 	H 	0.7595	0.6201	0.3523	0.078
Mof_H 	H 	0.8881	0.7049	0.3159	0.066
Mof_C 	C 	0.899	0.622	0.2903	-0.078
Mof_H 	H 	0.921	0.7032	0.3041	0.028
Mof_H 	H 	0.9622	0.6224	0.2597	0.058
Mof_O 	O 	0.0594	0.6504	0.9154	-0.28
Mof_O 	O 	0.1799	0.6125	0.8456	-0.495
Mof_C 	C 	0.127	0.6691	0.8595	0.402
Mof_C 	C 	0.176	0.798	0.8226	-0.059
Mof_H 	H 	0.2405	0.8606	0.8523	0.077
Mof_H 	H 	0.1119	0.8168	0.8159	0.022
Mof_C 	C 	0.101	0.723	0.7903	-0.105
Mof_H 	H 	0.079	0.7822	0.8041	0.058
Mof_H 	H 	0.0378	0.6602	0.7597	0.024
Mof_O 	O 	0.3496	0.409	0.9154	-0.276
Mof_O 	O 	0.3875	0.5674	0.8456	-0.493
Mof_C 	C 	0.3309	0.4579	0.8595	0.402
Mof_C 	C 	0.202	0.378	0.8226	-0.088
Mof_H 	H 	0.1394	0.3799	0.8523	0.071
Mof_H 	H 	0.1832	0.2951	0.8159	0.048
Mof_C 	C 	0.277	0.378	0.7903	-0.077
Mof_H 	H 	0.2178	0.2968	0.8041	0.03
Mof_H 	H 	0.3398	0.3776	0.7597	0.037
Mof_O 	O 	0.591	0.9406	0.9154	-0.257
Mof_O 	O 	0.4326	0.8201	0.8456	-0.489
Mof_C 	C 	0.5421	0.873	0.8595	0.406
Mof_C 	C 	0.622	0.824	0.8226	-0.098
Mof_H 	H 	0.6201	0.7595	0.8523	0.084
Mof_H 	H 	0.7049	0.8881	0.8159	0.065
Mof_C 	C 	0.622	0.899	0.7903	-0.081
Mof_H 	H 	0.7032	0.921	0.8041	0.031
Mof_H 	H 	0.6224	0.9622	0.7597	0.059
Mof_O 	O 	0.9406	0.3496	0.9154	-0.259
Mof_O 	O 	0.8201	0.3875	0.8456	-0.488
Mof_C 	C 	0.873	0.3309	0.8595	0.404
Mof_C 	C 	0.824	0.202	0.8226	-0.104
Mof_H 	H 	0.7595	0.1394	0.8523	0.077
Mof_H 	H 	0.8881	0.1832	0.8159	0.067
Mof_C 	C 	0.899	0.277	0.7903	-0.071
Mof_H 	H 	0.921	0.2178	0.8041	0.022
Mof_H 	H 	0.9622	0.3398	0.7597	0.056
Mof_O 	O 	0.6504	0.591	0.9154	-0.272
Mof_O 	O 	0.6125	0.4326	0.8456	-0.494
Mof_C 	C 	0.6691	0.5421	0.8595	0.406
Mof_C 	C 	0.798	0.622	0.8226	-0.076
Mof_H 	H 	0.8606	0.6201	0.8523	0.084
Mof_H 	H 	0.8168	0.7049	0.8159	0.042
Mof_C 	C 	0.723	0.622	0.7903	-0.098
Mof_H 	H 	0.7822	0.7032	0.8041	0.05
Mof_H 	H 	0.6602	0.6224	0.7597	0.043
Mof_O 	O 	0.409	0.0594	0.9154	-0.282
Mof_O 	O 	0.5674	0.1799	0.8456	-0.495
Mof_C 	C 	0.4579	0.127	0.8595	0.399
Mof_C 	C 	0.378	0.176	0.8226	-0.065
Mof_H 	H 	0.3799	0.2405	0.8523	0.07
Mof_H 	H 	0.2951	0.1119	0.8159	0.025
Mof_C 	C 	0.378	0.101	0.7903	-0.094
Mof_H 	H 	0.2968	0.079	0.8041	0.048
Mof_H 	H 	0.3776	0.0378	0.7597	0.021
Mof_O 	O 	0.6504	0.0594	0.5846	-0.313
Mof_O 	O 	0.6125	0.1799	0.6544	-0.506
Mof_C 	C 	0.6691	0.127	0.6405	0.406
Mof_C 	C 	0.798	0.176	0.6774	-0.064
Mof_H 	H 	0.8606	0.2405	0.6477	0.071
Mof_H 	H 	0.8168	0.1119	0.6841	0.023
Mof_C 	C 	0.723	0.101	0.7097	-0.102
Mof_H 	H 	0.7822	0.079	0.6959	0.055
Mof_H 	H 	0.6602	0.0378	0.7403	0.022
Mof_O 	O 	0.409	0.3496	0.5846	-0.309
Mof_O 	O 	0.5674	0.3875	0.6544	-0.504
Mof_C 	C 	0.4579	0.3309	0.6405	0.406
Mof_C 	C 	0.378	0.202	0.6774	-0.093
Mof_H 	H 	0.3799	0.1394	0.6477	0.065
Mof_H 	H 	0.2951	0.1832	0.6841	0.048
Mof_C 	C 	0.378	0.277	0.7097	-0.075
Mof_H 	H 	0.2968	0.2178	0.6959	0.027
Mof_H 	H 	0.3776	0.3398	0.7403	0.035
Mof_O 	O 	0.9406	0.591	0.5846	-0.289
Mof_O 	O 	0.8201	0.4326	0.6544	-0.5
Mof_C 	C 	0.873	0.5421	0.6405	0.41
Mof_C 	C 	0.824	0.622	0.6774	-0.103
Mof_H 	H 	0.7595	0.6201	0.6477	0.078
Mof_H 	H 	0.8881	0.7049	0.6841	0.065
Mof_C 	C 	0.899	0.622	0.7097	-0.078
Mof_H 	H 	0.921	0.7032	0.6959	0.029
Mof_H 	H 	0.9622	0.6224	0.7403	0.057
Mof_O 	O 	0.3496	0.9406	0.5846	-0.291
Mof_O 	O 	0.3875	0.8201	0.6544	-0.499
Mof_C 	C 	0.3309	0.873	0.6405	0.408
Mof_C 	C 	0.202	0.824	0.6774	-0.109
Mof_H 	H 	0.1394	0.7595	0.6477	0.072
Mof_H 	H 	0.1832	0.8881	0.6841	0.068
Mof_C 	C 	0.277	0.899	0.7097	-0.068
Mof_H 	H 	0.2178	0.921	0.6959	0.019
Mof_H 	H 	0.3398	0.9622	0.7403	0.054
Mof_O 	O 	0.591	0.6504	0.5846	-0.304
Mof_O 	O 	0.4326	0.6125	0.6544	-0.505
Mof_C 	C 	0.5421	0.6691	0.6405	0.411
Mof_C 	C 	0.622	0.798	0.6774	-0.081
Mof_H 	H 	0.6201	0.8606	0.6477	0.079
Mof_H 	H 	0.7049	0.8168	0.6841	0.043
Mof_C 	C 	0.622	0.723	0.7097	-0.096
Mof_H 	H 	0.7032	0.7822	0.6959	0.047
Mof_H 	H 	0.6224	0.6602	0.7403	0.041
Mof_O 	O 	0.0594	0.409	0.5846	-0.315
Mof_O 	O 	0.1799	0.5674	0.6544	-0.506
Mof_C 	C 	0.127	0.4579	0.6405	0.403
Mof_C 	C 	0.176	0.378	0.6774	-0.07
Mof_H 	H 	0.2405	0.3799	0.6477	0.064
Mof_H 	H 	0.1119	0.2951	0.6841	0.026
Mof_C 	C 	0.101	0.378	0.7097	-0.091
Mof_H 	H 	0.079	0.2968	0.6959	0.045
Mof_H 	H 	0.0378	0.3776	0.7403	0.02
Mof_Eu	Eu	0.66667	0.33333	0.25	2.502
Mof_Eu	Eu	0.33333	0.66667	0.25	2.502
Mof_Eu	Eu	0.33333	0.66667	0.75	2.506
Mof_Eu	Eu	0.66667	0.33333	0.75	2.506
Mof_Cd	Cd	-0	0.5	-0	0.403
Mof_Cd	Cd	0.5	0.5	-0	0.433
Mof_Cd	Cd	0.5	0	-0	0.403
Mof_Cd	Cd	0.5	1.00841e-32	0.5	0.463
Mof_Cd	Cd	0.5	0.5	0.5	0.494
Mof_Cd	Cd	-3.95898e-17	0.5	0.5	0.463
Mof_O 	O 	0.7798	0.2202	0.25	-0.314
Mof_O 	O 	0.7798	0.5596	0.25	-0.31
Mof_O 	O 	0.4404	0.2202	0.25	-0.317
Mof_O 	O 	0.2202	0.7798	0.25	-0.314
Mof_O 	O 	0.2202	0.4404	0.25	-0.317
Mof_O 	O 	0.5596	0.7798	0.25	-0.31
Mof_O 	O 	0.2202	0.7798	0.75	-0.314
Mof_O 	O 	0.2202	0.4404	0.75	-0.318
Mof_O 	O 	0.5596	0.7798	0.75	-0.311
Mof_O 	O 	0.7798	0.2202	0.75	-0.314
Mof_O 	O 	0.7798	0.5596	0.75	-0.311
Mof_O 	O 	0.4404	0.2202	0.75	-0.318
_end
