data_functionalizedCrystal
_audit_creation_method	'EQeq! by Chris Wilmer'
_symmetry_space_group_name_H-M	'P1'
_symmetry_Int_Tables_number	1
_symmetry_cell_setting	triclinic
loop_
_symmetry_equiv_pos_as_xyz
  x,y,z
_cell_length_a	47.326
_cell_length_b	47.326
_cell_length_c	47.326
_cell_angle_alpha	90
_cell_angle_beta	90
_cell_angle_gamma	90
loop_
_atom_site_label
_atom_site_type_symbol
_atom_site_fract_x
_atom_site_fract_y
_atom_site_fract_z
_atom_site_charge
Mof_O 	O 	0.21295	0.25402	0.02957	-0.339
Mof_F 	F 	0.2092	0.2477	0.0882	-0.292
Mof_F 	F 	0.1842	0.2716	0.1328	-0.28
Mof_F 	F 	0.1829	0.3588	0.0829	-0.288
Mof_F 	F 	0.2069	0.3345	0.0376	-0.266
Mof_C 	C 	0.2036	0.2742	0.0863	0.287
Mof_C 	C 	0.1901	0.2868	0.1092	0.256
Mof_C 	C 	0.1827	0.3166	0.1081	-0.374
Mof_C 	C 	0.1889	0.3311	0.0842	0.253
Mof_C 	C 	0.2024	0.3185	0.0613	0.253
Mof_O 	O 	0.21295	0.75402	0.52957	-0.339
Mof_F 	F 	0.2092	0.7477	0.5882	-0.292
Mof_F 	F 	0.1842	0.7716	0.6328	-0.28
Mof_F 	F 	0.1829	0.8588	0.5829	-0.288
Mof_F 	F 	0.2069	0.8345	0.5376	-0.265
Mof_C 	C 	0.2036	0.7742	0.5863	0.287
Mof_C 	C 	0.1901	0.7868	0.6092	0.256
Mof_C 	C 	0.1827	0.8166	0.6081	-0.374
Mof_C 	C 	0.1889	0.8311	0.5842	0.253
Mof_C 	C 	0.2024	0.8185	0.5613	0.253
Mof_O 	O 	0.71295	0.25402	0.52957	-0.339
Mof_F 	F 	0.7092	0.2477	0.5882	-0.292
Mof_F 	F 	0.6842	0.2716	0.6328	-0.28
Mof_F 	F 	0.6829	0.3588	0.5829	-0.288
Mof_F 	F 	0.7069	0.3345	0.5376	-0.265
Mof_C 	C 	0.7036	0.2742	0.5863	0.287
Mof_C 	C 	0.6901	0.2868	0.6092	0.256
Mof_C 	C 	0.6827	0.3166	0.6081	-0.374
Mof_C 	C 	0.6889	0.3311	0.5842	0.253
Mof_C 	C 	0.7024	0.3185	0.5613	0.253
Mof_O 	O 	0.71295	0.75402	0.02957	-0.339
Mof_F 	F 	0.7092	0.7477	0.0882	-0.292
Mof_F 	F 	0.6842	0.7716	0.1328	-0.28
Mof_F 	F 	0.6829	0.8588	0.0829	-0.288
Mof_F 	F 	0.7069	0.8345	0.0376	-0.265
Mof_C 	C 	0.7036	0.7742	0.0863	0.287
Mof_C 	C 	0.6901	0.7868	0.1092	0.256
Mof_C 	C 	0.6827	0.8166	0.1081	-0.374
Mof_C 	C 	0.6889	0.8311	0.0842	0.253
Mof_C 	C 	0.7024	0.8185	0.0613	0.254
Mof_O 	O 	0.78705	0.74598	0.02957	-0.338
Mof_F 	F 	0.7908	0.7523	0.0882	-0.291
Mof_F 	F 	0.8158	0.7284	0.1328	-0.279
Mof_F 	F 	0.8171	0.6412	0.0829	-0.287
Mof_F 	F 	0.7931	0.6655	0.0376	-0.265
Mof_C 	C 	0.7964	0.7258	0.0863	0.288
Mof_C 	C 	0.8099	0.7132	0.1092	0.257
Mof_C 	C 	0.8173	0.6834	0.1081	-0.373
Mof_C 	C 	0.8111	0.6689	0.0842	0.254
Mof_C 	C 	0.7976	0.6815	0.0613	0.254
Mof_O 	O 	0.78705	0.24598	0.52957	-0.338
Mof_F 	F 	0.7908	0.2523	0.5882	-0.291
Mof_F 	F 	0.8158	0.2284	0.6328	-0.279
Mof_F 	F 	0.8171	0.1412	0.5829	-0.287
Mof_F 	F 	0.7931	0.1655	0.5376	-0.264
Mof_C 	C 	0.7964	0.2258	0.5863	0.288
Mof_C 	C 	0.8099	0.2132	0.6092	0.257
Mof_C 	C 	0.8173	0.1834	0.6081	-0.373
Mof_C 	C 	0.8111	0.1689	0.5842	0.254
Mof_C 	C 	0.7976	0.1815	0.5613	0.254
Mof_O 	O 	0.28705	0.74598	0.52957	-0.338
Mof_F 	F 	0.2908	0.7523	0.5882	-0.291
Mof_F 	F 	0.3158	0.7284	0.6328	-0.279
Mof_F 	F 	0.3171	0.6412	0.5829	-0.287
Mof_F 	F 	0.2931	0.6655	0.5376	-0.264
Mof_C 	C 	0.2964	0.7258	0.5863	0.288
Mof_C 	C 	0.3099	0.7132	0.6092	0.257
Mof_C 	C 	0.3173	0.6834	0.6081	-0.373
Mof_C 	C 	0.3111	0.6689	0.5842	0.254
Mof_C 	C 	0.2976	0.6815	0.5613	0.254
Mof_O 	O 	0.28705	0.24598	0.02957	-0.338
Mof_F 	F 	0.2908	0.2523	0.0882	-0.291
Mof_F 	F 	0.3158	0.2284	0.1328	-0.279
Mof_F 	F 	0.3171	0.1412	0.0829	-0.287
Mof_F 	F 	0.2931	0.1655	0.0376	-0.265
Mof_C 	C 	0.2964	0.2258	0.0863	0.288
Mof_C 	C 	0.3099	0.2132	0.1092	0.257
Mof_C 	C 	0.3173	0.1834	0.1081	-0.373
Mof_C 	C 	0.3111	0.1689	0.0842	0.254
Mof_C 	C 	0.2976	0.1815	0.0613	0.254
Mof_O 	O 	0.78705	0.25402	0.97043	-0.337
Mof_F 	F 	0.7908	0.2477	0.9118	-0.291
Mof_F 	F 	0.8158	0.2716	0.8672	-0.279
Mof_F 	F 	0.8171	0.3588	0.9171	-0.287
Mof_F 	F 	0.7931	0.3345	0.9624	-0.264
Mof_C 	C 	0.7964	0.2742	0.9137	0.288
Mof_C 	C 	0.8099	0.2868	0.8908	0.257
Mof_C 	C 	0.8173	0.3166	0.8919	-0.373
Mof_C 	C 	0.8111	0.3311	0.9158	0.255
Mof_C 	C 	0.7976	0.3185	0.9387	0.254
Mof_O 	O 	0.78705	0.75402	0.47043	-0.338
Mof_F 	F 	0.7908	0.7477	0.4118	-0.291
Mof_F 	F 	0.8158	0.7716	0.3672	-0.279
Mof_F 	F 	0.8171	0.8588	0.4171	-0.287
Mof_F 	F 	0.7931	0.8345	0.4624	-0.264
Mof_C 	C 	0.7964	0.7742	0.4137	0.288
Mof_C 	C 	0.8099	0.7868	0.3908	0.257
Mof_C 	C 	0.8173	0.8166	0.3919	-0.373
Mof_C 	C 	0.8111	0.8311	0.4158	0.254
Mof_C 	C 	0.7976	0.8185	0.4387	0.254
Mof_O 	O 	0.28705	0.25402	0.47043	-0.338
Mof_F 	F 	0.2908	0.2477	0.4118	-0.291
Mof_F 	F 	0.3158	0.2716	0.3672	-0.279
Mof_F 	F 	0.3171	0.3588	0.4171	-0.287
Mof_F 	F 	0.2931	0.3345	0.4624	-0.264
Mof_C 	C 	0.2964	0.2742	0.4137	0.288
Mof_C 	C 	0.3099	0.2868	0.3908	0.257
Mof_C 	C 	0.3173	0.3166	0.3919	-0.373
Mof_C 	C 	0.3111	0.3311	0.4158	0.254
Mof_C 	C 	0.2976	0.3185	0.4387	0.254
Mof_O 	O 	0.28705	0.75402	0.97043	-0.337
Mof_F 	F 	0.2908	0.7477	0.9118	-0.291
Mof_F 	F 	0.3158	0.7716	0.8672	-0.279
Mof_F 	F 	0.3171	0.8588	0.9171	-0.287
Mof_F 	F 	0.2931	0.8345	0.9624	-0.264
Mof_C 	C 	0.2964	0.7742	0.9137	0.288
Mof_C 	C 	0.3099	0.7868	0.8908	0.257
Mof_C 	C 	0.3173	0.8166	0.8919	-0.373
Mof_C 	C 	0.3111	0.8311	0.9158	0.255
Mof_C 	C 	0.2976	0.8185	0.9387	0.254
Mof_O 	O 	0.21295	0.74598	0.97043	-0.337
Mof_F 	F 	0.2092	0.7523	0.9118	-0.291
Mof_F 	F 	0.1842	0.7284	0.8672	-0.279
Mof_F 	F 	0.1829	0.6412	0.9171	-0.287
Mof_F 	F 	0.2069	0.6655	0.9624	-0.264
Mof_C 	C 	0.2036	0.7258	0.9137	0.288
Mof_C 	C 	0.1901	0.7132	0.8908	0.257
Mof_C 	C 	0.1827	0.6834	0.8919	-0.373
Mof_C 	C 	0.1889	0.6689	0.9158	0.255
Mof_C 	C 	0.2024	0.6815	0.9387	0.254
Mof_O 	O 	0.21295	0.24598	0.47043	-0.338
Mof_F 	F 	0.2092	0.2523	0.4118	-0.291
Mof_F 	F 	0.1842	0.2284	0.3672	-0.279
Mof_F 	F 	0.1829	0.1412	0.4171	-0.287
Mof_F 	F 	0.2069	0.1655	0.4624	-0.264
Mof_C 	C 	0.2036	0.2258	0.4137	0.288
Mof_C 	C 	0.1901	0.2132	0.3908	0.257
Mof_C 	C 	0.1827	0.1834	0.3919	-0.373
Mof_C 	C 	0.1889	0.1689	0.4158	0.254
Mof_C 	C 	0.2024	0.1815	0.4387	0.254
Mof_O 	O 	0.71295	0.74598	0.47043	-0.338
Mof_F 	F 	0.7092	0.7523	0.4118	-0.291
Mof_F 	F 	0.6842	0.7284	0.3672	-0.279
Mof_F 	F 	0.6829	0.6412	0.4171	-0.287
Mof_F 	F 	0.7069	0.6655	0.4624	-0.264
Mof_C 	C 	0.7036	0.7258	0.4137	0.288
Mof_C 	C 	0.6901	0.7132	0.3908	0.257
Mof_C 	C 	0.6827	0.6834	0.3919	-0.373
Mof_C 	C 	0.6889	0.6689	0.4158	0.254
Mof_C 	C 	0.7024	0.6815	0.4387	0.254
Mof_O 	O 	0.71295	0.24598	0.97043	-0.337
Mof_F 	F 	0.7092	0.2523	0.9118	-0.291
Mof_F 	F 	0.6842	0.2284	0.8672	-0.279
Mof_F 	F 	0.6829	0.1412	0.9171	-0.287
Mof_F 	F 	0.7069	0.1655	0.9624	-0.264
Mof_C 	C 	0.7036	0.2258	0.9137	0.288
Mof_C 	C 	0.6901	0.2132	0.8908	0.257
Mof_C 	C 	0.6827	0.1834	0.8919	-0.373
Mof_C 	C 	0.6889	0.1689	0.9158	0.255
Mof_C 	C 	0.7024	0.1815	0.9387	0.254
Mof_O 	O 	0.02957	0.21295	0.25402	-0.338
Mof_F 	F 	0.0882	0.2092	0.2477	-0.291
Mof_F 	F 	0.1328	0.1842	0.2716	-0.279
Mof_F 	F 	0.0829	0.1829	0.3588	-0.287
Mof_F 	F 	0.0376	0.2069	0.3345	-0.265
Mof_C 	C 	0.0863	0.2036	0.2742	0.288
Mof_C 	C 	0.1092	0.1901	0.2868	0.257
Mof_C 	C 	0.1081	0.1827	0.3166	-0.373
Mof_C 	C 	0.0842	0.1889	0.3311	0.254
Mof_C 	C 	0.0613	0.2024	0.3185	0.254
Mof_O 	O 	0.02957	0.71295	0.75402	-0.338
Mof_F 	F 	0.0882	0.7092	0.7477	-0.291
Mof_F 	F 	0.1328	0.6842	0.7716	-0.279
Mof_F 	F 	0.0829	0.6829	0.8588	-0.287
Mof_F 	F 	0.0376	0.7069	0.8345	-0.264
Mof_C 	C 	0.0863	0.7036	0.7742	0.288
Mof_C 	C 	0.1092	0.6901	0.7868	0.257
Mof_C 	C 	0.1081	0.6827	0.8166	-0.373
Mof_C 	C 	0.0842	0.6889	0.8311	0.254
Mof_C 	C 	0.0613	0.7024	0.8185	0.254
Mof_O 	O 	0.52957	0.21295	0.75402	-0.338
Mof_F 	F 	0.5882	0.2092	0.7477	-0.291
Mof_F 	F 	0.6328	0.1842	0.7716	-0.279
Mof_F 	F 	0.5829	0.1829	0.8588	-0.287
Mof_F 	F 	0.5376	0.2069	0.8345	-0.264
Mof_C 	C 	0.5863	0.2036	0.7742	0.288
Mof_C 	C 	0.6092	0.1901	0.7868	0.257
Mof_C 	C 	0.6081	0.1827	0.8166	-0.373
Mof_C 	C 	0.5842	0.1889	0.8311	0.254
Mof_C 	C 	0.5613	0.2024	0.8185	0.254
Mof_O 	O 	0.52957	0.71295	0.25402	-0.338
Mof_F 	F 	0.5882	0.7092	0.2477	-0.291
Mof_F 	F 	0.6328	0.6842	0.2716	-0.279
Mof_F 	F 	0.5829	0.6829	0.3588	-0.287
Mof_F 	F 	0.5376	0.7069	0.3345	-0.264
Mof_C 	C 	0.5863	0.7036	0.2742	0.288
Mof_C 	C 	0.6092	0.6901	0.2868	0.257
Mof_C 	C 	0.6081	0.6827	0.3166	-0.373
Mof_C 	C 	0.5842	0.6889	0.3311	0.254
Mof_C 	C 	0.5613	0.7024	0.3185	0.254
Mof_O 	O 	0.02957	0.78705	0.74598	-0.338
Mof_F 	F 	0.0882	0.7908	0.7523	-0.291
Mof_F 	F 	0.1328	0.8158	0.7284	-0.279
Mof_F 	F 	0.0829	0.8171	0.6412	-0.287
Mof_F 	F 	0.0376	0.7931	0.6655	-0.265
Mof_C 	C 	0.0863	0.7964	0.7258	0.288
Mof_C 	C 	0.1092	0.8099	0.7132	0.257
Mof_C 	C 	0.1081	0.8173	0.6834	-0.373
Mof_C 	C 	0.0842	0.8111	0.6689	0.254
Mof_C 	C 	0.0613	0.7976	0.6815	0.254
Mof_O 	O 	0.02957	0.28705	0.24598	-0.338
Mof_F 	F 	0.0882	0.2908	0.2523	-0.291
Mof_F 	F 	0.1328	0.3158	0.2284	-0.279
Mof_F 	F 	0.0829	0.3171	0.1412	-0.287
Mof_F 	F 	0.0376	0.2931	0.1655	-0.265
Mof_C 	C 	0.0863	0.2964	0.2258	0.288
Mof_C 	C 	0.1092	0.3099	0.2132	0.257
Mof_C 	C 	0.1081	0.3173	0.1834	-0.373
Mof_C 	C 	0.0842	0.3111	0.1689	0.254
Mof_C 	C 	0.0613	0.2976	0.1815	0.254
Mof_O 	O 	0.52957	0.78705	0.24598	-0.338
Mof_F 	F 	0.5882	0.7908	0.2523	-0.291
Mof_F 	F 	0.6328	0.8158	0.2284	-0.279
Mof_F 	F 	0.5829	0.8171	0.1412	-0.287
Mof_F 	F 	0.5376	0.7931	0.1655	-0.264
Mof_C 	C 	0.5863	0.7964	0.2258	0.288
Mof_C 	C 	0.6092	0.8099	0.2132	0.257
Mof_C 	C 	0.6081	0.8173	0.1834	-0.373
Mof_C 	C 	0.5842	0.8111	0.1689	0.254
Mof_C 	C 	0.5613	0.7976	0.1815	0.254
Mof_O 	O 	0.52957	0.28705	0.74598	-0.338
Mof_F 	F 	0.5882	0.2908	0.7523	-0.291
Mof_F 	F 	0.6328	0.3158	0.7284	-0.279
Mof_F 	F 	0.5829	0.3171	0.6412	-0.287
Mof_F 	F 	0.5376	0.2931	0.6655	-0.264
Mof_C 	C 	0.5863	0.2964	0.7258	0.288
Mof_C 	C 	0.6092	0.3099	0.7132	0.257
Mof_C 	C 	0.6081	0.3173	0.6834	-0.373
Mof_C 	C 	0.5842	0.3111	0.6689	0.254
Mof_C 	C 	0.5613	0.2976	0.6815	0.254
Mof_O 	O 	0.97043	0.78705	0.25402	-0.337
Mof_F 	F 	0.9118	0.7908	0.2477	-0.291
Mof_F 	F 	0.8672	0.8158	0.2716	-0.279
Mof_F 	F 	0.9171	0.8171	0.3588	-0.287
Mof_F 	F 	0.9624	0.7931	0.3345	-0.264
Mof_C 	C 	0.9137	0.7964	0.2742	0.288
Mof_C 	C 	0.8908	0.8099	0.2868	0.257
Mof_C 	C 	0.8919	0.8173	0.3166	-0.373
Mof_C 	C 	0.9158	0.8111	0.3311	0.255
Mof_C 	C 	0.9387	0.7976	0.3185	0.254
Mof_O 	O 	0.97043	0.28705	0.75402	-0.337
Mof_F 	F 	0.9118	0.2908	0.7477	-0.291
Mof_F 	F 	0.8672	0.3158	0.7716	-0.279
Mof_F 	F 	0.9171	0.3171	0.8588	-0.287
Mof_F 	F 	0.9624	0.2931	0.8345	-0.264
Mof_C 	C 	0.9137	0.2964	0.7742	0.288
Mof_C 	C 	0.8908	0.3099	0.7868	0.257
Mof_C 	C 	0.8919	0.3173	0.8166	-0.373
Mof_C 	C 	0.9158	0.3111	0.8311	0.255
Mof_C 	C 	0.9387	0.2976	0.8185	0.254
Mof_O 	O 	0.47043	0.78705	0.75402	-0.338
Mof_F 	F 	0.4118	0.7908	0.7477	-0.291
Mof_F 	F 	0.3672	0.8158	0.7716	-0.279
Mof_F 	F 	0.4171	0.8171	0.8588	-0.287
Mof_F 	F 	0.4624	0.7931	0.8345	-0.264
Mof_C 	C 	0.4137	0.7964	0.7742	0.288
Mof_C 	C 	0.3908	0.8099	0.7868	0.257
Mof_C 	C 	0.3919	0.8173	0.8166	-0.373
Mof_C 	C 	0.4158	0.8111	0.8311	0.254
Mof_C 	C 	0.4387	0.7976	0.8185	0.254
Mof_O 	O 	0.47043	0.28705	0.25402	-0.338
Mof_F 	F 	0.4118	0.2908	0.2477	-0.291
Mof_F 	F 	0.3672	0.3158	0.2716	-0.279
Mof_F 	F 	0.4171	0.3171	0.3588	-0.287
Mof_F 	F 	0.4624	0.2931	0.3345	-0.264
Mof_C 	C 	0.4137	0.2964	0.2742	0.288
Mof_C 	C 	0.3908	0.3099	0.2868	0.257
Mof_C 	C 	0.3919	0.3173	0.3166	-0.373
Mof_C 	C 	0.4158	0.3111	0.3311	0.254
Mof_C 	C 	0.4387	0.2976	0.3185	0.254
Mof_O 	O 	0.97043	0.21295	0.74598	-0.337
Mof_F 	F 	0.9118	0.2092	0.7523	-0.291
Mof_F 	F 	0.8672	0.1842	0.7284	-0.279
Mof_F 	F 	0.9171	0.1829	0.6412	-0.287
Mof_F 	F 	0.9624	0.2069	0.6655	-0.264
Mof_C 	C 	0.9137	0.2036	0.7258	0.288
Mof_C 	C 	0.8908	0.1901	0.7132	0.257
Mof_C 	C 	0.8919	0.1827	0.6834	-0.373
Mof_C 	C 	0.9158	0.1889	0.6689	0.255
Mof_C 	C 	0.9387	0.2024	0.6815	0.254
Mof_O 	O 	0.97043	0.71295	0.24598	-0.337
Mof_F 	F 	0.9118	0.7092	0.2523	-0.291
Mof_F 	F 	0.8672	0.6842	0.2284	-0.279
Mof_F 	F 	0.9171	0.6829	0.1412	-0.287
Mof_F 	F 	0.9624	0.7069	0.1655	-0.264
Mof_C 	C 	0.9137	0.7036	0.2258	0.288
Mof_C 	C 	0.8908	0.6901	0.2132	0.257
Mof_C 	C 	0.8919	0.6827	0.1834	-0.373
Mof_C 	C 	0.9158	0.6889	0.1689	0.255
Mof_C 	C 	0.9387	0.7024	0.1815	0.254
Mof_O 	O 	0.47043	0.21295	0.24598	-0.338
Mof_F 	F 	0.4118	0.2092	0.2523	-0.291
Mof_F 	F 	0.3672	0.1842	0.2284	-0.279
Mof_F 	F 	0.4171	0.1829	0.1412	-0.287
Mof_F 	F 	0.4624	0.2069	0.1655	-0.264
Mof_C 	C 	0.4137	0.2036	0.2258	0.288
Mof_C 	C 	0.3908	0.1901	0.2132	0.257
Mof_C 	C 	0.3919	0.1827	0.1834	-0.373
Mof_C 	C 	0.4158	0.1889	0.1689	0.254
Mof_C 	C 	0.4387	0.2024	0.1815	0.254
Mof_O 	O 	0.47043	0.71295	0.74598	-0.338
Mof_F 	F 	0.4118	0.7092	0.7523	-0.291
Mof_F 	F 	0.3672	0.6842	0.7284	-0.279
Mof_F 	F 	0.4171	0.6829	0.6412	-0.287
Mof_F 	F 	0.4624	0.7069	0.6655	-0.264
Mof_C 	C 	0.4137	0.7036	0.7258	0.288
Mof_C 	C 	0.3908	0.6901	0.7132	0.257
Mof_C 	C 	0.3919	0.6827	0.6834	-0.373
Mof_C 	C 	0.4158	0.6889	0.6689	0.254
Mof_C 	C 	0.4387	0.7024	0.6815	0.254
Mof_O 	O 	0.25402	0.02957	0.21295	-0.338
Mof_F 	F 	0.2477	0.0882	0.2092	-0.291
Mof_F 	F 	0.2716	0.1328	0.1842	-0.279
Mof_F 	F 	0.3588	0.0829	0.1829	-0.287
Mof_F 	F 	0.3345	0.0376	0.2069	-0.265
Mof_C 	C 	0.2742	0.0863	0.2036	0.288
Mof_C 	C 	0.2868	0.1092	0.1901	0.257
Mof_C 	C 	0.3166	0.1081	0.1827	-0.373
Mof_C 	C 	0.3311	0.0842	0.1889	0.254
Mof_C 	C 	0.3185	0.0613	0.2024	0.254
Mof_O 	O 	0.25402	0.52957	0.71295	-0.338
Mof_F 	F 	0.2477	0.5882	0.7092	-0.291
Mof_F 	F 	0.2716	0.6328	0.6842	-0.279
Mof_F 	F 	0.3588	0.5829	0.6829	-0.287
Mof_F 	F 	0.3345	0.5376	0.7069	-0.264
Mof_C 	C 	0.2742	0.5863	0.7036	0.288
Mof_C 	C 	0.2868	0.6092	0.6901	0.257
Mof_C 	C 	0.3166	0.6081	0.6827	-0.373
Mof_C 	C 	0.3311	0.5842	0.6889	0.254
Mof_C 	C 	0.3185	0.5613	0.7024	0.254
Mof_O 	O 	0.75402	0.02957	0.71295	-0.338
Mof_F 	F 	0.7477	0.0882	0.7092	-0.291
Mof_F 	F 	0.7716	0.1328	0.6842	-0.279
Mof_F 	F 	0.8588	0.0829	0.6829	-0.287
Mof_F 	F 	0.8345	0.0376	0.7069	-0.264
Mof_C 	C 	0.7742	0.0863	0.7036	0.288
Mof_C 	C 	0.7868	0.1092	0.6901	0.257
Mof_C 	C 	0.8166	0.1081	0.6827	-0.373
Mof_C 	C 	0.8311	0.0842	0.6889	0.254
Mof_C 	C 	0.8185	0.0613	0.7024	0.254
Mof_O 	O 	0.75402	0.52957	0.21295	-0.338
Mof_F 	F 	0.7477	0.5882	0.2092	-0.291
Mof_F 	F 	0.7716	0.6328	0.1842	-0.279
Mof_F 	F 	0.8588	0.5829	0.1829	-0.287
Mof_F 	F 	0.8345	0.5376	0.2069	-0.264
Mof_C 	C 	0.7742	0.5863	0.2036	0.288
Mof_C 	C 	0.7868	0.6092	0.1901	0.257
Mof_C 	C 	0.8166	0.6081	0.1827	-0.373
Mof_C 	C 	0.8311	0.5842	0.1889	0.254
Mof_C 	C 	0.8185	0.5613	0.2024	0.254
Mof_O 	O 	0.74598	0.02957	0.78705	-0.338
Mof_F 	F 	0.7523	0.0882	0.7908	-0.291
Mof_F 	F 	0.7284	0.1328	0.8158	-0.279
Mof_F 	F 	0.6412	0.0829	0.8171	-0.287
Mof_F 	F 	0.6655	0.0376	0.7931	-0.265
Mof_C 	C 	0.7258	0.0863	0.7964	0.288
Mof_C 	C 	0.7132	0.1092	0.8099	0.257
Mof_C 	C 	0.6834	0.1081	0.8173	-0.373
Mof_C 	C 	0.6689	0.0842	0.8111	0.254
Mof_C 	C 	0.6815	0.0613	0.7976	0.254
Mof_O 	O 	0.74598	0.52957	0.28705	-0.338
Mof_F 	F 	0.7523	0.5882	0.2908	-0.291
Mof_F 	F 	0.7284	0.6328	0.3158	-0.279
Mof_F 	F 	0.6412	0.5829	0.3171	-0.287
Mof_F 	F 	0.6655	0.5376	0.2931	-0.264
Mof_C 	C 	0.7258	0.5863	0.2964	0.288
Mof_C 	C 	0.7132	0.6092	0.3099	0.257
Mof_C 	C 	0.6834	0.6081	0.3173	-0.373
Mof_C 	C 	0.6689	0.5842	0.3111	0.254
Mof_C 	C 	0.6815	0.5613	0.2976	0.254
Mof_O 	O 	0.24598	0.02957	0.28705	-0.338
Mof_F 	F 	0.2523	0.0882	0.2908	-0.291
Mof_F 	F 	0.2284	0.1328	0.3158	-0.279
Mof_F 	F 	0.1412	0.0829	0.3171	-0.287
Mof_F 	F 	0.1655	0.0376	0.2931	-0.265
Mof_C 	C 	0.2258	0.0863	0.2964	0.288
Mof_C 	C 	0.2132	0.1092	0.3099	0.257
Mof_C 	C 	0.1834	0.1081	0.3173	-0.373
Mof_C 	C 	0.1689	0.0842	0.3111	0.254
Mof_C 	C 	0.1815	0.0613	0.2976	0.254
Mof_O 	O 	0.24598	0.52957	0.78705	-0.338
Mof_F 	F 	0.2523	0.5882	0.7908	-0.291
Mof_F 	F 	0.2284	0.6328	0.8158	-0.279
Mof_F 	F 	0.1412	0.5829	0.8171	-0.287
Mof_F 	F 	0.1655	0.5376	0.7931	-0.264
Mof_C 	C 	0.2258	0.5863	0.7964	0.288
Mof_C 	C 	0.2132	0.6092	0.8099	0.257
Mof_C 	C 	0.1834	0.6081	0.8173	-0.373
Mof_C 	C 	0.1689	0.5842	0.8111	0.254
Mof_C 	C 	0.1815	0.5613	0.7976	0.254
Mof_O 	O 	0.25402	0.97043	0.78705	-0.337
Mof_F 	F 	0.2477	0.9118	0.7908	-0.291
Mof_F 	F 	0.2716	0.8672	0.8158	-0.279
Mof_F 	F 	0.3588	0.9171	0.8171	-0.287
Mof_F 	F 	0.3345	0.9624	0.7931	-0.264
Mof_C 	C 	0.2742	0.9137	0.7964	0.288
Mof_C 	C 	0.2868	0.8908	0.8099	0.257
Mof_C 	C 	0.3166	0.8919	0.8173	-0.373
Mof_C 	C 	0.3311	0.9158	0.8111	0.255
Mof_C 	C 	0.3185	0.9387	0.7976	0.254
Mof_O 	O 	0.25402	0.47043	0.28705	-0.338
Mof_F 	F 	0.2477	0.4118	0.2908	-0.291
Mof_F 	F 	0.2716	0.3672	0.3158	-0.279
Mof_F 	F 	0.3588	0.4171	0.3171	-0.287
Mof_F 	F 	0.3345	0.4624	0.2931	-0.264
Mof_C 	C 	0.2742	0.4137	0.2964	0.288
Mof_C 	C 	0.2868	0.3908	0.3099	0.257
Mof_C 	C 	0.3166	0.3919	0.3173	-0.373
Mof_C 	C 	0.3311	0.4158	0.3111	0.254
Mof_C 	C 	0.3185	0.4387	0.2976	0.254
Mof_O 	O 	0.75402	0.97043	0.28705	-0.337
Mof_F 	F 	0.7477	0.9118	0.2908	-0.291
Mof_F 	F 	0.7716	0.8672	0.3158	-0.279
Mof_F 	F 	0.8588	0.9171	0.3171	-0.287
Mof_F 	F 	0.8345	0.9624	0.2931	-0.264
Mof_C 	C 	0.7742	0.9137	0.2964	0.288
Mof_C 	C 	0.7868	0.8908	0.3099	0.257
Mof_C 	C 	0.8166	0.8919	0.3173	-0.373
Mof_C 	C 	0.8311	0.9158	0.3111	0.255
Mof_C 	C 	0.8185	0.9387	0.2976	0.254
Mof_O 	O 	0.75402	0.47043	0.78705	-0.338
Mof_F 	F 	0.7477	0.4118	0.7908	-0.291
Mof_F 	F 	0.7716	0.3672	0.8158	-0.279
Mof_F 	F 	0.8588	0.4171	0.8171	-0.287
Mof_F 	F 	0.8345	0.4624	0.7931	-0.264
Mof_C 	C 	0.7742	0.4137	0.7964	0.288
Mof_C 	C 	0.7868	0.3908	0.8099	0.257
Mof_C 	C 	0.8166	0.3919	0.8173	-0.373
Mof_C 	C 	0.8311	0.4158	0.8111	0.254
Mof_C 	C 	0.8185	0.4387	0.7976	0.254
Mof_O 	O 	0.74598	0.97043	0.21295	-0.337
Mof_F 	F 	0.7523	0.9118	0.2092	-0.291
Mof_F 	F 	0.7284	0.8672	0.1842	-0.279
Mof_F 	F 	0.6412	0.9171	0.1829	-0.287
Mof_F 	F 	0.6655	0.9624	0.2069	-0.264
Mof_C 	C 	0.7258	0.9137	0.2036	0.288
Mof_C 	C 	0.7132	0.8908	0.1901	0.257
Mof_C 	C 	0.6834	0.8919	0.1827	-0.373
Mof_C 	C 	0.6689	0.9158	0.1889	0.255
Mof_C 	C 	0.6815	0.9387	0.2024	0.254
Mof_O 	O 	0.74598	0.47043	0.71295	-0.338
Mof_F 	F 	0.7523	0.4118	0.7092	-0.291
Mof_F 	F 	0.7284	0.3672	0.6842	-0.279
Mof_F 	F 	0.6412	0.4171	0.6829	-0.287
Mof_F 	F 	0.6655	0.4624	0.7069	-0.264
Mof_C 	C 	0.7258	0.4137	0.7036	0.288
Mof_C 	C 	0.7132	0.3908	0.6901	0.257
Mof_C 	C 	0.6834	0.3919	0.6827	-0.373
Mof_C 	C 	0.6689	0.4158	0.6889	0.254
Mof_C 	C 	0.6815	0.4387	0.7024	0.254
Mof_O 	O 	0.24598	0.97043	0.71295	-0.337
Mof_F 	F 	0.2523	0.9118	0.7092	-0.291
Mof_F 	F 	0.2284	0.8672	0.6842	-0.279
Mof_F 	F 	0.1412	0.9171	0.6829	-0.287
Mof_F 	F 	0.1655	0.9624	0.7069	-0.264
Mof_C 	C 	0.2258	0.9137	0.7036	0.288
Mof_C 	C 	0.2132	0.8908	0.6901	0.257
Mof_C 	C 	0.1834	0.8919	0.6827	-0.373
Mof_C 	C 	0.1689	0.9158	0.6889	0.255
Mof_C 	C 	0.1815	0.9387	0.7024	0.254
Mof_O 	O 	0.24598	0.47043	0.21295	-0.338
Mof_F 	F 	0.2523	0.4118	0.2092	-0.291
Mof_F 	F 	0.2284	0.3672	0.1842	-0.279
Mof_F 	F 	0.1412	0.4171	0.1829	-0.287
Mof_F 	F 	0.1655	0.4624	0.2069	-0.264
Mof_C 	C 	0.2258	0.4137	0.2036	0.288
Mof_C 	C 	0.2132	0.3908	0.1901	0.257
Mof_C 	C 	0.1834	0.3919	0.1827	-0.373
Mof_C 	C 	0.1689	0.4158	0.1889	0.254
Mof_C 	C 	0.1815	0.4387	0.2024	0.254
Mof_O 	O 	0.25402	0.21295	0.97043	-0.338
Mof_F 	F 	0.2477	0.2092	0.9118	-0.291
Mof_F 	F 	0.2716	0.1842	0.8672	-0.279
Mof_F 	F 	0.3588	0.1829	0.9171	-0.287
Mof_F 	F 	0.3345	0.2069	0.9624	-0.264
Mof_C 	C 	0.2742	0.2036	0.9137	0.288
Mof_C 	C 	0.2868	0.1901	0.8908	0.257
Mof_C 	C 	0.3166	0.1827	0.8919	-0.373
Mof_C 	C 	0.3311	0.1889	0.9158	0.255
Mof_C 	C 	0.3185	0.2024	0.9387	0.254
Mof_O 	O 	0.25402	0.71295	0.47043	-0.338
Mof_F 	F 	0.2477	0.7092	0.4118	-0.291
Mof_F 	F 	0.2716	0.6842	0.3672	-0.279
Mof_F 	F 	0.3588	0.6829	0.4171	-0.287
Mof_F 	F 	0.3345	0.7069	0.4624	-0.264
Mof_C 	C 	0.2742	0.7036	0.4137	0.288
Mof_C 	C 	0.2868	0.6901	0.3908	0.257
Mof_C 	C 	0.3166	0.6827	0.3919	-0.373
Mof_C 	C 	0.3311	0.6889	0.4158	0.254
Mof_C 	C 	0.3185	0.7024	0.4387	0.254
Mof_O 	O 	0.75402	0.21295	0.47043	-0.338
Mof_F 	F 	0.7477	0.2092	0.4118	-0.291
Mof_F 	F 	0.7716	0.1842	0.3672	-0.279
Mof_F 	F 	0.8588	0.1829	0.4171	-0.287
Mof_F 	F 	0.8345	0.2069	0.4624	-0.264
Mof_C 	C 	0.7742	0.2036	0.4137	0.288
Mof_C 	C 	0.7868	0.1901	0.3908	0.257
Mof_C 	C 	0.8166	0.1827	0.3919	-0.373
Mof_C 	C 	0.8311	0.1889	0.4158	0.254
Mof_C 	C 	0.8185	0.2024	0.4387	0.254
Mof_O 	O 	0.75402	0.71295	0.97043	-0.337
Mof_F 	F 	0.7477	0.7092	0.9118	-0.291
Mof_F 	F 	0.7716	0.6842	0.8672	-0.279
Mof_F 	F 	0.8588	0.6829	0.9171	-0.287
Mof_F 	F 	0.8345	0.7069	0.9624	-0.264
Mof_C 	C 	0.7742	0.7036	0.9137	0.288
Mof_C 	C 	0.7868	0.6901	0.8908	0.257
Mof_C 	C 	0.8166	0.6827	0.8919	-0.373
Mof_C 	C 	0.8311	0.6889	0.9158	0.255
Mof_C 	C 	0.8185	0.7024	0.9387	0.254
Mof_O 	O 	0.74598	0.78705	0.97043	-0.337
Mof_F 	F 	0.7523	0.7908	0.9118	-0.291
Mof_F 	F 	0.7284	0.8158	0.8672	-0.279
Mof_F 	F 	0.6412	0.8171	0.9171	-0.287
Mof_F 	F 	0.6655	0.7931	0.9624	-0.264
Mof_C 	C 	0.7258	0.7964	0.9137	0.288
Mof_C 	C 	0.7132	0.8099	0.8908	0.257
Mof_C 	C 	0.6834	0.8173	0.8919	-0.373
Mof_C 	C 	0.6689	0.8111	0.9158	0.255
Mof_C 	C 	0.6815	0.7976	0.9387	0.254
Mof_O 	O 	0.74598	0.28705	0.47043	-0.338
Mof_F 	F 	0.7523	0.2908	0.4118	-0.291
Mof_F 	F 	0.7284	0.3158	0.3672	-0.279
Mof_F 	F 	0.6412	0.3171	0.4171	-0.287
Mof_F 	F 	0.6655	0.2931	0.4624	-0.264
Mof_C 	C 	0.7258	0.2964	0.4137	0.288
Mof_C 	C 	0.7132	0.3099	0.3908	0.257
Mof_C 	C 	0.6834	0.3173	0.3919	-0.373
Mof_C 	C 	0.6689	0.3111	0.4158	0.254
Mof_C 	C 	0.6815	0.2976	0.4387	0.254
Mof_O 	O 	0.24598	0.78705	0.47043	-0.338
Mof_F 	F 	0.2523	0.7908	0.4118	-0.291
Mof_F 	F 	0.2284	0.8158	0.3672	-0.279
Mof_F 	F 	0.1412	0.8171	0.4171	-0.287
Mof_F 	F 	0.1655	0.7931	0.4624	-0.264
Mof_C 	C 	0.2258	0.7964	0.4137	0.288
Mof_C 	C 	0.2132	0.8099	0.3908	0.257
Mof_C 	C 	0.1834	0.8173	0.3919	-0.373
Mof_C 	C 	0.1689	0.8111	0.4158	0.254
Mof_C 	C 	0.1815	0.7976	0.4387	0.254
Mof_O 	O 	0.24598	0.28705	0.97043	-0.337
Mof_F 	F 	0.2523	0.2908	0.9118	-0.291
Mof_F 	F 	0.2284	0.3158	0.8672	-0.279
Mof_F 	F 	0.1412	0.3171	0.9171	-0.287
Mof_F 	F 	0.1655	0.2931	0.9624	-0.264
Mof_C 	C 	0.2258	0.2964	0.9137	0.288
Mof_C 	C 	0.2132	0.3099	0.8908	0.257
Mof_C 	C 	0.1834	0.3173	0.8919	-0.373
Mof_C 	C 	0.1689	0.3111	0.9158	0.254
Mof_C 	C 	0.1815	0.2976	0.9387	0.254
Mof_O 	O 	0.25402	0.78705	0.02957	-0.338
Mof_F 	F 	0.2477	0.7908	0.0882	-0.291
Mof_F 	F 	0.2716	0.8158	0.1328	-0.279
Mof_F 	F 	0.3588	0.8171	0.0829	-0.287
Mof_F 	F 	0.3345	0.7931	0.0376	-0.264
Mof_C 	C 	0.2742	0.7964	0.0863	0.288
Mof_C 	C 	0.2868	0.8099	0.1092	0.257
Mof_C 	C 	0.3166	0.8173	0.1081	-0.373
Mof_C 	C 	0.3311	0.8111	0.0842	0.254
Mof_C 	C 	0.3185	0.7976	0.0613	0.254
Mof_O 	O 	0.25402	0.28705	0.52957	-0.338
Mof_F 	F 	0.2477	0.2908	0.5882	-0.291
Mof_F 	F 	0.2716	0.3158	0.6328	-0.279
Mof_F 	F 	0.3588	0.3171	0.5829	-0.287
Mof_F 	F 	0.3345	0.2931	0.5376	-0.264
Mof_C 	C 	0.2742	0.2964	0.5863	0.288
Mof_C 	C 	0.2868	0.3099	0.6092	0.257
Mof_C 	C 	0.3166	0.3173	0.6081	-0.373
Mof_C 	C 	0.3311	0.3111	0.5842	0.254
Mof_C 	C 	0.3185	0.2976	0.5613	0.254
Mof_O 	O 	0.75402	0.78705	0.52957	-0.338
Mof_F 	F 	0.7477	0.7908	0.5882	-0.291
Mof_F 	F 	0.7716	0.8158	0.6328	-0.279
Mof_F 	F 	0.8588	0.8171	0.5829	-0.287
Mof_F 	F 	0.8345	0.7931	0.5376	-0.264
Mof_C 	C 	0.7742	0.7964	0.5863	0.288
Mof_C 	C 	0.7868	0.8099	0.6092	0.257
Mof_C 	C 	0.8166	0.8173	0.6081	-0.373
Mof_C 	C 	0.8311	0.8111	0.5842	0.254
Mof_C 	C 	0.8185	0.7976	0.5613	0.254
Mof_O 	O 	0.75402	0.28705	0.02957	-0.338
Mof_F 	F 	0.7477	0.2908	0.0882	-0.291
Mof_F 	F 	0.7716	0.3158	0.1328	-0.279
Mof_F 	F 	0.8588	0.3171	0.0829	-0.287
Mof_F 	F 	0.8345	0.2931	0.0376	-0.264
Mof_C 	C 	0.7742	0.2964	0.0863	0.288
Mof_C 	C 	0.7868	0.3099	0.1092	0.257
Mof_C 	C 	0.8166	0.3173	0.1081	-0.373
Mof_C 	C 	0.8311	0.3111	0.0842	0.254
Mof_C 	C 	0.8185	0.2976	0.0613	0.254
Mof_O 	O 	0.74598	0.21295	0.02957	-0.338
Mof_F 	F 	0.7523	0.2092	0.0882	-0.291
Mof_F 	F 	0.7284	0.1842	0.1328	-0.279
Mof_F 	F 	0.6412	0.1829	0.0829	-0.287
Mof_F 	F 	0.6655	0.2069	0.0376	-0.265
Mof_C 	C 	0.7258	0.2036	0.0863	0.288
Mof_C 	C 	0.7132	0.1901	0.1092	0.257
Mof_C 	C 	0.6834	0.1827	0.1081	-0.373
Mof_C 	C 	0.6689	0.1889	0.0842	0.254
Mof_C 	C 	0.6815	0.2024	0.0613	0.254
Mof_O 	O 	0.74598	0.71295	0.52957	-0.338
Mof_F 	F 	0.7523	0.7092	0.5882	-0.291
Mof_F 	F 	0.7284	0.6842	0.6328	-0.279
Mof_F 	F 	0.6412	0.6829	0.5829	-0.287
Mof_F 	F 	0.6655	0.7069	0.5376	-0.264
Mof_C 	C 	0.7258	0.7036	0.5863	0.288
Mof_C 	C 	0.7132	0.6901	0.6092	0.257
Mof_C 	C 	0.6834	0.6827	0.6081	-0.373
Mof_C 	C 	0.6689	0.6889	0.5842	0.254
Mof_C 	C 	0.6815	0.7024	0.5613	0.254
Mof_O 	O 	0.24598	0.21295	0.52957	-0.338
Mof_F 	F 	0.2523	0.2092	0.5882	-0.291
Mof_F 	F 	0.2284	0.1842	0.6328	-0.279
Mof_F 	F 	0.1412	0.1829	0.5829	-0.287
Mof_F 	F 	0.1655	0.2069	0.5376	-0.264
Mof_C 	C 	0.2258	0.2036	0.5863	0.288
Mof_C 	C 	0.2132	0.1901	0.6092	0.257
Mof_C 	C 	0.1834	0.1827	0.6081	-0.373
Mof_C 	C 	0.1689	0.1889	0.5842	0.254
Mof_C 	C 	0.1815	0.2024	0.5613	0.254
Mof_O 	O 	0.24598	0.71295	0.02957	-0.338
Mof_F 	F 	0.2523	0.7092	0.0882	-0.291
Mof_F 	F 	0.2284	0.6842	0.1328	-0.279
Mof_F 	F 	0.1412	0.6829	0.0829	-0.287
Mof_F 	F 	0.1655	0.7069	0.0376	-0.265
Mof_C 	C 	0.2258	0.7036	0.0863	0.288
Mof_C 	C 	0.2132	0.6901	0.1092	0.257
Mof_C 	C 	0.1834	0.6827	0.1081	-0.373
Mof_C 	C 	0.1689	0.6889	0.0842	0.254
Mof_C 	C 	0.1815	0.7024	0.0613	0.254
Mof_O 	O 	0.21295	0.02957	0.74598	-0.338
Mof_F 	F 	0.2092	0.0882	0.7523	-0.291
Mof_F 	F 	0.1842	0.1328	0.7284	-0.279
Mof_F 	F 	0.1829	0.0829	0.6412	-0.287
Mof_F 	F 	0.2069	0.0376	0.6655	-0.265
Mof_C 	C 	0.2036	0.0863	0.7258	0.288
Mof_C 	C 	0.1901	0.1092	0.7132	0.257
Mof_C 	C 	0.1827	0.1081	0.6834	-0.373
Mof_C 	C 	0.1889	0.0842	0.6689	0.254
Mof_C 	C 	0.2024	0.0613	0.6815	0.254
Mof_O 	O 	0.21295	0.52957	0.24598	-0.338
Mof_F 	F 	0.2092	0.5882	0.2523	-0.291
Mof_F 	F 	0.1842	0.6328	0.2284	-0.279
Mof_F 	F 	0.1829	0.5829	0.1412	-0.287
Mof_F 	F 	0.2069	0.5376	0.1655	-0.264
Mof_C 	C 	0.2036	0.5863	0.2258	0.288
Mof_C 	C 	0.1901	0.6092	0.2132	0.257
Mof_C 	C 	0.1827	0.6081	0.1834	-0.373
Mof_C 	C 	0.1889	0.5842	0.1689	0.254
Mof_C 	C 	0.2024	0.5613	0.1815	0.254
Mof_O 	O 	0.71295	0.02957	0.24598	-0.338
Mof_F 	F 	0.7092	0.0882	0.2523	-0.291
Mof_F 	F 	0.6842	0.1328	0.2284	-0.279
Mof_F 	F 	0.6829	0.0829	0.1412	-0.287
Mof_F 	F 	0.7069	0.0376	0.1655	-0.265
Mof_C 	C 	0.7036	0.0863	0.2258	0.288
Mof_C 	C 	0.6901	0.1092	0.2132	0.257
Mof_C 	C 	0.6827	0.1081	0.1834	-0.373
Mof_C 	C 	0.6889	0.0842	0.1689	0.254
Mof_C 	C 	0.7024	0.0613	0.1815	0.254
Mof_O 	O 	0.71295	0.52957	0.74598	-0.338
Mof_F 	F 	0.7092	0.5882	0.7523	-0.291
Mof_F 	F 	0.6842	0.6328	0.7284	-0.279
Mof_F 	F 	0.6829	0.5829	0.6412	-0.287
Mof_F 	F 	0.7069	0.5376	0.6655	-0.264
Mof_C 	C 	0.7036	0.5863	0.7258	0.288
Mof_C 	C 	0.6901	0.6092	0.7132	0.257
Mof_C 	C 	0.6827	0.6081	0.6834	-0.373
Mof_C 	C 	0.6889	0.5842	0.6689	0.254
Mof_C 	C 	0.7024	0.5613	0.6815	0.254
Mof_O 	O 	0.78705	0.02957	0.25402	-0.338
Mof_F 	F 	0.7908	0.0882	0.2477	-0.291
Mof_F 	F 	0.8158	0.1328	0.2716	-0.279
Mof_F 	F 	0.8171	0.0829	0.3588	-0.287
Mof_F 	F 	0.7931	0.0376	0.3345	-0.264
Mof_C 	C 	0.7964	0.0863	0.2742	0.288
Mof_C 	C 	0.8099	0.1092	0.2868	0.257
Mof_C 	C 	0.8173	0.1081	0.3166	-0.373
Mof_C 	C 	0.8111	0.0842	0.3311	0.254
Mof_C 	C 	0.7976	0.0613	0.3185	0.254
Mof_O 	O 	0.78705	0.52957	0.75402	-0.338
Mof_F 	F 	0.7908	0.5882	0.7477	-0.291
Mof_F 	F 	0.8158	0.6328	0.7716	-0.279
Mof_F 	F 	0.8171	0.5829	0.8588	-0.287
Mof_F 	F 	0.7931	0.5376	0.8345	-0.264
Mof_C 	C 	0.7964	0.5863	0.7742	0.288
Mof_C 	C 	0.8099	0.6092	0.7868	0.257
Mof_C 	C 	0.8173	0.6081	0.8166	-0.373
Mof_C 	C 	0.8111	0.5842	0.8311	0.254
Mof_C 	C 	0.7976	0.5613	0.8185	0.254
Mof_O 	O 	0.28705	0.02957	0.75402	-0.338
Mof_F 	F 	0.2908	0.0882	0.7477	-0.291
Mof_F 	F 	0.3158	0.1328	0.7716	-0.279
Mof_F 	F 	0.3171	0.0829	0.8588	-0.287
Mof_F 	F 	0.2931	0.0376	0.8345	-0.264
Mof_C 	C 	0.2964	0.0863	0.7742	0.288
Mof_C 	C 	0.3099	0.1092	0.7868	0.257
Mof_C 	C 	0.3173	0.1081	0.8166	-0.373
Mof_C 	C 	0.3111	0.0842	0.8311	0.254
Mof_C 	C 	0.2976	0.0613	0.8185	0.254
Mof_O 	O 	0.28705	0.52957	0.25402	-0.338
Mof_F 	F 	0.2908	0.5882	0.2477	-0.291
Mof_F 	F 	0.3158	0.6328	0.2716	-0.279
Mof_F 	F 	0.3171	0.5829	0.3588	-0.287
Mof_F 	F 	0.2931	0.5376	0.3345	-0.264
Mof_C 	C 	0.2964	0.5863	0.2742	0.288
Mof_C 	C 	0.3099	0.6092	0.2868	0.257
Mof_C 	C 	0.3173	0.6081	0.3166	-0.373
Mof_C 	C 	0.3111	0.5842	0.3311	0.254
Mof_C 	C 	0.2976	0.5613	0.3185	0.254
Mof_O 	O 	0.78705	0.97043	0.74598	-0.337
Mof_F 	F 	0.7908	0.9118	0.7523	-0.291
Mof_F 	F 	0.8158	0.8672	0.7284	-0.279
Mof_F 	F 	0.8171	0.9171	0.6412	-0.287
Mof_F 	F 	0.7931	0.9624	0.6655	-0.264
Mof_C 	C 	0.7964	0.9137	0.7258	0.288
Mof_C 	C 	0.8099	0.8908	0.7132	0.257
Mof_C 	C 	0.8173	0.8919	0.6834	-0.373
Mof_C 	C 	0.8111	0.9158	0.6689	0.255
Mof_C 	C 	0.7976	0.9387	0.6815	0.254
Mof_O 	O 	0.78705	0.47043	0.24598	-0.338
Mof_F 	F 	0.7908	0.4118	0.2523	-0.291
Mof_F 	F 	0.8158	0.3672	0.2284	-0.279
Mof_F 	F 	0.8171	0.4171	0.1412	-0.287
Mof_F 	F 	0.7931	0.4624	0.1655	-0.264
Mof_C 	C 	0.7964	0.4137	0.2258	0.288
Mof_C 	C 	0.8099	0.3908	0.2132	0.257
Mof_C 	C 	0.8173	0.3919	0.1834	-0.373
Mof_C 	C 	0.8111	0.4158	0.1689	0.254
Mof_C 	C 	0.7976	0.4387	0.1815	0.254
Mof_O 	O 	0.28705	0.97043	0.24598	-0.337
Mof_F 	F 	0.2908	0.9118	0.2523	-0.291
Mof_F 	F 	0.3158	0.8672	0.2284	-0.279
Mof_F 	F 	0.3171	0.9171	0.1412	-0.287
Mof_F 	F 	0.2931	0.9624	0.1655	-0.264
Mof_C 	C 	0.2964	0.9137	0.2258	0.288
Mof_C 	C 	0.3099	0.8908	0.2132	0.257
Mof_C 	C 	0.3173	0.8919	0.1834	-0.373
Mof_C 	C 	0.3111	0.9158	0.1689	0.254
Mof_C 	C 	0.2976	0.9387	0.1815	0.254
Mof_O 	O 	0.28705	0.47043	0.74598	-0.338
Mof_F 	F 	0.2908	0.4118	0.7523	-0.291
Mof_F 	F 	0.3158	0.3672	0.7284	-0.279
Mof_F 	F 	0.3171	0.4171	0.6412	-0.287
Mof_F 	F 	0.2931	0.4624	0.6655	-0.264
Mof_C 	C 	0.2964	0.4137	0.7258	0.288
Mof_C 	C 	0.3099	0.3908	0.7132	0.257
Mof_C 	C 	0.3173	0.3919	0.6834	-0.373
Mof_C 	C 	0.3111	0.4158	0.6689	0.254
Mof_C 	C 	0.2976	0.4387	0.6815	0.254
Mof_O 	O 	0.21295	0.97043	0.25402	-0.338
Mof_F 	F 	0.2092	0.9118	0.2477	-0.291
Mof_F 	F 	0.1842	0.8672	0.2716	-0.279
Mof_F 	F 	0.1829	0.9171	0.3588	-0.287
Mof_F 	F 	0.2069	0.9624	0.3345	-0.264
Mof_C 	C 	0.2036	0.9137	0.2742	0.288
Mof_C 	C 	0.1901	0.8908	0.2868	0.257
Mof_C 	C 	0.1827	0.8919	0.3166	-0.373
Mof_C 	C 	0.1889	0.9158	0.3311	0.255
Mof_C 	C 	0.2024	0.9387	0.3185	0.254
Mof_O 	O 	0.21295	0.47043	0.75402	-0.338
Mof_F 	F 	0.2092	0.4118	0.7477	-0.291
Mof_F 	F 	0.1842	0.3672	0.7716	-0.279
Mof_F 	F 	0.1829	0.4171	0.8588	-0.287
Mof_F 	F 	0.2069	0.4624	0.8345	-0.264
Mof_C 	C 	0.2036	0.4137	0.7742	0.288
Mof_C 	C 	0.1901	0.3908	0.7868	0.257
Mof_C 	C 	0.1827	0.3919	0.8166	-0.373
Mof_C 	C 	0.1889	0.4158	0.8311	0.254
Mof_C 	C 	0.2024	0.4387	0.8185	0.254
Mof_O 	O 	0.71295	0.97043	0.75402	-0.337
Mof_F 	F 	0.7092	0.9118	0.7477	-0.291
Mof_F 	F 	0.6842	0.8672	0.7716	-0.279
Mof_F 	F 	0.6829	0.9171	0.8588	-0.287
Mof_F 	F 	0.7069	0.9624	0.8345	-0.264
Mof_C 	C 	0.7036	0.9137	0.7742	0.288
Mof_C 	C 	0.6901	0.8908	0.7868	0.257
Mof_C 	C 	0.6827	0.8919	0.8166	-0.373
Mof_C 	C 	0.6889	0.9158	0.8311	0.255
Mof_C 	C 	0.7024	0.9387	0.8185	0.254
Mof_O 	O 	0.71295	0.47043	0.25402	-0.338
Mof_F 	F 	0.7092	0.4118	0.2477	-0.291
Mof_F 	F 	0.6842	0.3672	0.2716	-0.279
Mof_F 	F 	0.6829	0.4171	0.3588	-0.287
Mof_F 	F 	0.7069	0.4624	0.3345	-0.264
Mof_C 	C 	0.7036	0.4137	0.2742	0.288
Mof_C 	C 	0.6901	0.3908	0.2868	0.257
Mof_C 	C 	0.6827	0.3919	0.3166	-0.373
Mof_C 	C 	0.6889	0.4158	0.3311	0.254
Mof_C 	C 	0.7024	0.4387	0.3185	0.254
Mof_O 	O 	0.02957	0.25402	0.78705	-0.338
Mof_F 	F 	0.0882	0.2477	0.7908	-0.291
Mof_F 	F 	0.1328	0.2716	0.8158	-0.279
Mof_F 	F 	0.0829	0.3588	0.8171	-0.287
Mof_F 	F 	0.0376	0.3345	0.7931	-0.264
Mof_C 	C 	0.0863	0.2742	0.7964	0.288
Mof_C 	C 	0.1092	0.2868	0.8099	0.257
Mof_C 	C 	0.1081	0.3166	0.8173	-0.373
Mof_C 	C 	0.0842	0.3311	0.8111	0.254
Mof_C 	C 	0.0613	0.3185	0.7976	0.254
Mof_O 	O 	0.02957	0.75402	0.28705	-0.338
Mof_F 	F 	0.0882	0.7477	0.2908	-0.291
Mof_F 	F 	0.1328	0.7716	0.3158	-0.279
Mof_F 	F 	0.0829	0.8588	0.3171	-0.287
Mof_F 	F 	0.0376	0.8345	0.2931	-0.264
Mof_C 	C 	0.0863	0.7742	0.2964	0.288
Mof_C 	C 	0.1092	0.7868	0.3099	0.257
Mof_C 	C 	0.1081	0.8166	0.3173	-0.373
Mof_C 	C 	0.0842	0.8311	0.3111	0.254
Mof_C 	C 	0.0613	0.8185	0.2976	0.254
Mof_O 	O 	0.52957	0.25402	0.28705	-0.338
Mof_F 	F 	0.5882	0.2477	0.2908	-0.291
Mof_F 	F 	0.6328	0.2716	0.3158	-0.279
Mof_F 	F 	0.5829	0.3588	0.3171	-0.287
Mof_F 	F 	0.5376	0.3345	0.2931	-0.264
Mof_C 	C 	0.5863	0.2742	0.2964	0.288
Mof_C 	C 	0.6092	0.2868	0.3099	0.257
Mof_C 	C 	0.6081	0.3166	0.3173	-0.373
Mof_C 	C 	0.5842	0.3311	0.3111	0.254
Mof_C 	C 	0.5613	0.3185	0.2976	0.254
Mof_O 	O 	0.52957	0.75402	0.78705	-0.338
Mof_F 	F 	0.5882	0.7477	0.7908	-0.291
Mof_F 	F 	0.6328	0.7716	0.8158	-0.279
Mof_F 	F 	0.5829	0.8588	0.8171	-0.287
Mof_F 	F 	0.5376	0.8345	0.7931	-0.264
Mof_C 	C 	0.5863	0.7742	0.7964	0.288
Mof_C 	C 	0.6092	0.7868	0.8099	0.257
Mof_C 	C 	0.6081	0.8166	0.8173	-0.373
Mof_C 	C 	0.5842	0.8311	0.8111	0.254
Mof_C 	C 	0.5613	0.8185	0.7976	0.254
Mof_O 	O 	0.02957	0.74598	0.21295	-0.338
Mof_F 	F 	0.0882	0.7523	0.2092	-0.291
Mof_F 	F 	0.1328	0.7284	0.1842	-0.279
Mof_F 	F 	0.0829	0.6412	0.1829	-0.287
Mof_F 	F 	0.0376	0.6655	0.2069	-0.265
Mof_C 	C 	0.0863	0.7258	0.2036	0.288
Mof_C 	C 	0.1092	0.7132	0.1901	0.257
Mof_C 	C 	0.1081	0.6834	0.1827	-0.373
Mof_C 	C 	0.0842	0.6689	0.1889	0.254
Mof_C 	C 	0.0613	0.6815	0.2024	0.254
Mof_O 	O 	0.02957	0.24598	0.71295	-0.338
Mof_F 	F 	0.0882	0.2523	0.7092	-0.291
Mof_F 	F 	0.1328	0.2284	0.6842	-0.279
Mof_F 	F 	0.0829	0.1412	0.6829	-0.287
Mof_F 	F 	0.0376	0.1655	0.7069	-0.265
Mof_C 	C 	0.0863	0.2258	0.7036	0.288
Mof_C 	C 	0.1092	0.2132	0.6901	0.257
Mof_C 	C 	0.1081	0.1834	0.6827	-0.373
Mof_C 	C 	0.0842	0.1689	0.6889	0.254
Mof_C 	C 	0.0613	0.1815	0.7024	0.254
Mof_O 	O 	0.52957	0.74598	0.71295	-0.338
Mof_F 	F 	0.5882	0.7523	0.7092	-0.291
Mof_F 	F 	0.6328	0.7284	0.6842	-0.279
Mof_F 	F 	0.5829	0.6412	0.6829	-0.287
Mof_F 	F 	0.5376	0.6655	0.7069	-0.264
Mof_C 	C 	0.5863	0.7258	0.7036	0.288
Mof_C 	C 	0.6092	0.7132	0.6901	0.257
Mof_C 	C 	0.6081	0.6834	0.6827	-0.373
Mof_C 	C 	0.5842	0.6689	0.6889	0.254
Mof_C 	C 	0.5613	0.6815	0.7024	0.254
Mof_O 	O 	0.52957	0.24598	0.21295	-0.338
Mof_F 	F 	0.5882	0.2523	0.2092	-0.291
Mof_F 	F 	0.6328	0.2284	0.1842	-0.279
Mof_F 	F 	0.5829	0.1412	0.1829	-0.287
Mof_F 	F 	0.5376	0.1655	0.2069	-0.264
Mof_C 	C 	0.5863	0.2258	0.2036	0.288
Mof_C 	C 	0.6092	0.2132	0.1901	0.257
Mof_C 	C 	0.6081	0.1834	0.1827	-0.373
Mof_C 	C 	0.5842	0.1689	0.1889	0.254
Mof_C 	C 	0.5613	0.1815	0.2024	0.254
Mof_O 	O 	0.97043	0.25402	0.21295	-0.338
Mof_F 	F 	0.9118	0.2477	0.2092	-0.291
Mof_F 	F 	0.8672	0.2716	0.1842	-0.279
Mof_F 	F 	0.9171	0.3588	0.1829	-0.287
Mof_F 	F 	0.9624	0.3345	0.2069	-0.264
Mof_C 	C 	0.9137	0.2742	0.2036	0.288
Mof_C 	C 	0.8908	0.2868	0.1901	0.257
Mof_C 	C 	0.8919	0.3166	0.1827	-0.373
Mof_C 	C 	0.9158	0.3311	0.1889	0.255
Mof_C 	C 	0.9387	0.3185	0.2024	0.254
Mof_O 	O 	0.97043	0.75402	0.71295	-0.337
Mof_F 	F 	0.9118	0.7477	0.7092	-0.291
Mof_F 	F 	0.8672	0.7716	0.6842	-0.279
Mof_F 	F 	0.9171	0.8588	0.6829	-0.287
Mof_F 	F 	0.9624	0.8345	0.7069	-0.264
Mof_C 	C 	0.9137	0.7742	0.7036	0.288
Mof_C 	C 	0.8908	0.7868	0.6901	0.257
Mof_C 	C 	0.8919	0.8166	0.6827	-0.373
Mof_C 	C 	0.9158	0.8311	0.6889	0.255
Mof_C 	C 	0.9387	0.8185	0.7024	0.254
Mof_O 	O 	0.47043	0.25402	0.71295	-0.338
Mof_F 	F 	0.4118	0.2477	0.7092	-0.291
Mof_F 	F 	0.3672	0.2716	0.6842	-0.279
Mof_F 	F 	0.4171	0.3588	0.6829	-0.287
Mof_F 	F 	0.4624	0.3345	0.7069	-0.264
Mof_C 	C 	0.4137	0.2742	0.7036	0.288
Mof_C 	C 	0.3908	0.2868	0.6901	0.257
Mof_C 	C 	0.3919	0.3166	0.6827	-0.373
Mof_C 	C 	0.4158	0.3311	0.6889	0.254
Mof_C 	C 	0.4387	0.3185	0.7024	0.254
Mof_O 	O 	0.47043	0.75402	0.21295	-0.338
Mof_F 	F 	0.4118	0.7477	0.2092	-0.291
Mof_F 	F 	0.3672	0.7716	0.1842	-0.279
Mof_F 	F 	0.4171	0.8588	0.1829	-0.287
Mof_F 	F 	0.4624	0.8345	0.2069	-0.264
Mof_C 	C 	0.4137	0.7742	0.2036	0.288
Mof_C 	C 	0.3908	0.7868	0.1901	0.257
Mof_C 	C 	0.3919	0.8166	0.1827	-0.373
Mof_C 	C 	0.4158	0.8311	0.1889	0.254
Mof_C 	C 	0.4387	0.8185	0.2024	0.254
Mof_O 	O 	0.97043	0.74598	0.78705	-0.337
Mof_F 	F 	0.9118	0.7523	0.7908	-0.291
Mof_F 	F 	0.8672	0.7284	0.8158	-0.279
Mof_F 	F 	0.9171	0.6412	0.8171	-0.287
Mof_F 	F 	0.9624	0.6655	0.7931	-0.264
Mof_C 	C 	0.9137	0.7258	0.7964	0.288
Mof_C 	C 	0.8908	0.7132	0.8099	0.257
Mof_C 	C 	0.8919	0.6834	0.8173	-0.373
Mof_C 	C 	0.9158	0.6689	0.8111	0.255
Mof_C 	C 	0.9387	0.6815	0.7976	0.254
Mof_O 	O 	0.97043	0.24598	0.28705	-0.337
Mof_F 	F 	0.9118	0.2523	0.2908	-0.291
Mof_F 	F 	0.8672	0.2284	0.3158	-0.279
Mof_F 	F 	0.9171	0.1412	0.3171	-0.287
Mof_F 	F 	0.9624	0.1655	0.2931	-0.264
Mof_C 	C 	0.9137	0.2258	0.2964	0.288
Mof_C 	C 	0.8908	0.2132	0.3099	0.257
Mof_C 	C 	0.8919	0.1834	0.3173	-0.373
Mof_C 	C 	0.9158	0.1689	0.3111	0.254
Mof_C 	C 	0.9387	0.1815	0.2976	0.254
Mof_O 	O 	0.47043	0.74598	0.28705	-0.338
Mof_F 	F 	0.4118	0.7523	0.2908	-0.291
Mof_F 	F 	0.3672	0.7284	0.3158	-0.279
Mof_F 	F 	0.4171	0.6412	0.3171	-0.287
Mof_F 	F 	0.4624	0.6655	0.2931	-0.264
Mof_C 	C 	0.4137	0.7258	0.2964	0.288
Mof_C 	C 	0.3908	0.7132	0.3099	0.257
Mof_C 	C 	0.3919	0.6834	0.3173	-0.373
Mof_C 	C 	0.4158	0.6689	0.3111	0.254
Mof_C 	C 	0.4387	0.6815	0.2976	0.254
Mof_O 	O 	0.47043	0.24598	0.78705	-0.338
Mof_F 	F 	0.4118	0.2523	0.7908	-0.291
Mof_F 	F 	0.3672	0.2284	0.8158	-0.279
Mof_F 	F 	0.4171	0.1412	0.8171	-0.287
Mof_F 	F 	0.4624	0.1655	0.7931	-0.264
Mof_C 	C 	0.4137	0.2258	0.7964	0.288
Mof_C 	C 	0.3908	0.2132	0.8099	0.257
Mof_C 	C 	0.3919	0.1834	0.8173	-0.373
Mof_C 	C 	0.4158	0.1689	0.8111	0.254
Mof_C 	C 	0.4387	0.1815	0.7976	0.254
Mof_O 	O 	0.78705	0.74598	0.97043	-0.338
Mof_F 	F 	0.7908	0.7523	0.9118	-0.292
Mof_F 	F 	0.8158	0.7284	0.8672	-0.278
Mof_F 	F 	0.8171	0.6412	0.9171	-0.289
Mof_F 	F 	0.7931	0.6655	0.9624	-0.263
Mof_C 	C 	0.7964	0.7258	0.9137	0.291
Mof_C 	C 	0.8099	0.7132	0.8908	0.248
Mof_C 	C 	0.8111	0.6689	0.9158	0.268
Mof_C 	C 	0.7976	0.6815	0.9387	0.249
Mof_O 	O 	0.78705	0.24598	0.47043	-0.338
Mof_F 	F 	0.7908	0.2523	0.4118	-0.292
Mof_F 	F 	0.8158	0.2284	0.3672	-0.278
Mof_F 	F 	0.8171	0.1412	0.4171	-0.289
Mof_F 	F 	0.7931	0.1655	0.4624	-0.263
Mof_C 	C 	0.7964	0.2258	0.4137	0.291
Mof_C 	C 	0.8099	0.2132	0.3908	0.248
Mof_C 	C 	0.8111	0.1689	0.4158	0.268
Mof_C 	C 	0.7976	0.1815	0.4387	0.249
Mof_O 	O 	0.28705	0.74598	0.47043	-0.338
Mof_F 	F 	0.2908	0.7523	0.4118	-0.292
Mof_F 	F 	0.3158	0.7284	0.3672	-0.278
Mof_F 	F 	0.3171	0.6412	0.4171	-0.289
Mof_F 	F 	0.2931	0.6655	0.4624	-0.263
Mof_C 	C 	0.2964	0.7258	0.4137	0.291
Mof_C 	C 	0.3099	0.7132	0.3908	0.248
Mof_C 	C 	0.3111	0.6689	0.4158	0.268
Mof_C 	C 	0.2976	0.6815	0.4387	0.249
Mof_O 	O 	0.28705	0.24598	0.97043	-0.338
Mof_F 	F 	0.2908	0.2523	0.9118	-0.292
Mof_F 	F 	0.3158	0.2284	0.8672	-0.278
Mof_F 	F 	0.3171	0.1412	0.9171	-0.289
Mof_F 	F 	0.2931	0.1655	0.9624	-0.263
Mof_C 	C 	0.2964	0.2258	0.9137	0.291
Mof_C 	C 	0.3099	0.2132	0.8908	0.248
Mof_C 	C 	0.3111	0.1689	0.9158	0.268
Mof_C 	C 	0.2976	0.1815	0.9387	0.249
Mof_O 	O 	0.21295	0.25402	0.97043	-0.338
Mof_F 	F 	0.2092	0.2477	0.9118	-0.292
Mof_F 	F 	0.1842	0.2716	0.8672	-0.278
Mof_F 	F 	0.1829	0.3588	0.9171	-0.289
Mof_F 	F 	0.2069	0.3345	0.9624	-0.263
Mof_C 	C 	0.2036	0.2742	0.9137	0.291
Mof_C 	C 	0.1901	0.2868	0.8908	0.248
Mof_C 	C 	0.1889	0.3311	0.9158	0.268
Mof_C 	C 	0.2024	0.3185	0.9387	0.249
Mof_O 	O 	0.21295	0.75402	0.47043	-0.338
Mof_F 	F 	0.2092	0.7477	0.4118	-0.292
Mof_F 	F 	0.1842	0.7716	0.3672	-0.278
Mof_F 	F 	0.1829	0.8588	0.4171	-0.289
Mof_F 	F 	0.2069	0.8345	0.4624	-0.263
Mof_C 	C 	0.2036	0.7742	0.4137	0.291
Mof_C 	C 	0.1901	0.7868	0.3908	0.248
Mof_C 	C 	0.1889	0.8311	0.4158	0.268
Mof_C 	C 	0.2024	0.8185	0.4387	0.249
Mof_O 	O 	0.71295	0.25402	0.47043	-0.338
Mof_F 	F 	0.7092	0.2477	0.4118	-0.292
Mof_F 	F 	0.6842	0.2716	0.3672	-0.278
Mof_F 	F 	0.6829	0.3588	0.4171	-0.289
Mof_F 	F 	0.7069	0.3345	0.4624	-0.263
Mof_C 	C 	0.7036	0.2742	0.4137	0.291
Mof_C 	C 	0.6901	0.2868	0.3908	0.248
Mof_C 	C 	0.6889	0.3311	0.4158	0.268
Mof_C 	C 	0.7024	0.3185	0.4387	0.249
Mof_O 	O 	0.71295	0.75402	0.97043	-0.338
Mof_F 	F 	0.7092	0.7477	0.9118	-0.292
Mof_F 	F 	0.6842	0.7716	0.8672	-0.278
Mof_F 	F 	0.6829	0.8588	0.9171	-0.289
Mof_F 	F 	0.7069	0.8345	0.9624	-0.263
Mof_C 	C 	0.7036	0.7742	0.9137	0.291
Mof_C 	C 	0.6901	0.7868	0.8908	0.248
Mof_C 	C 	0.6889	0.8311	0.9158	0.268
Mof_C 	C 	0.7024	0.8185	0.9387	0.249
Mof_O 	O 	0.21295	0.74598	0.02957	-0.339
Mof_F 	F 	0.2092	0.7523	0.0882	-0.292
Mof_F 	F 	0.1842	0.7284	0.1328	-0.278
Mof_F 	F 	0.1829	0.6412	0.0829	-0.289
Mof_F 	F 	0.2069	0.6655	0.0376	-0.264
Mof_C 	C 	0.2036	0.7258	0.0863	0.291
Mof_C 	C 	0.1901	0.7132	0.1092	0.248
Mof_C 	C 	0.1889	0.6689	0.0842	0.268
Mof_C 	C 	0.2024	0.6815	0.0613	0.249
Mof_O 	O 	0.21295	0.24598	0.52957	-0.338
Mof_F 	F 	0.2092	0.2523	0.5882	-0.292
Mof_F 	F 	0.1842	0.2284	0.6328	-0.278
Mof_F 	F 	0.1829	0.1412	0.5829	-0.289
Mof_F 	F 	0.2069	0.1655	0.5376	-0.263
Mof_C 	C 	0.2036	0.2258	0.5863	0.291
Mof_C 	C 	0.1901	0.2132	0.6092	0.248
Mof_C 	C 	0.1889	0.1689	0.5842	0.268
Mof_C 	C 	0.2024	0.1815	0.5613	0.249
Mof_O 	O 	0.71295	0.74598	0.52957	-0.338
Mof_F 	F 	0.7092	0.7523	0.5882	-0.292
Mof_F 	F 	0.6842	0.7284	0.6328	-0.278
Mof_F 	F 	0.6829	0.6412	0.5829	-0.289
Mof_F 	F 	0.7069	0.6655	0.5376	-0.263
Mof_C 	C 	0.7036	0.7258	0.5863	0.291
Mof_C 	C 	0.6901	0.7132	0.6092	0.248
Mof_C 	C 	0.6889	0.6689	0.5842	0.268
Mof_C 	C 	0.7024	0.6815	0.5613	0.249
Mof_O 	O 	0.71295	0.24598	0.02957	-0.338
Mof_F 	F 	0.7092	0.2523	0.0882	-0.292
Mof_F 	F 	0.6842	0.2284	0.1328	-0.278
Mof_F 	F 	0.6829	0.1412	0.0829	-0.29
Mof_F 	F 	0.7069	0.1655	0.0376	-0.264
Mof_C 	C 	0.7036	0.2258	0.0863	0.291
Mof_C 	C 	0.6901	0.2132	0.1092	0.248
Mof_C 	C 	0.6889	0.1689	0.0842	0.268
Mof_C 	C 	0.7024	0.1815	0.0613	0.249
Mof_O 	O 	0.78705	0.25402	0.02957	-0.338
Mof_F 	F 	0.7908	0.2477	0.0882	-0.292
Mof_F 	F 	0.8158	0.2716	0.1328	-0.278
Mof_F 	F 	0.8171	0.3588	0.0829	-0.289
Mof_F 	F 	0.7931	0.3345	0.0376	-0.264
Mof_C 	C 	0.7964	0.2742	0.0863	0.291
Mof_C 	C 	0.8099	0.2868	0.1092	0.248
Mof_C 	C 	0.8111	0.3311	0.0842	0.268
Mof_C 	C 	0.7976	0.3185	0.0613	0.249
Mof_O 	O 	0.78705	0.75402	0.52957	-0.338
Mof_F 	F 	0.7908	0.7477	0.5882	-0.292
Mof_F 	F 	0.8158	0.7716	0.6328	-0.278
Mof_F 	F 	0.8171	0.8588	0.5829	-0.289
Mof_F 	F 	0.7931	0.8345	0.5376	-0.263
Mof_C 	C 	0.7964	0.7742	0.5863	0.291
Mof_C 	C 	0.8099	0.7868	0.6092	0.248
Mof_C 	C 	0.8111	0.8311	0.5842	0.268
Mof_C 	C 	0.7976	0.8185	0.5613	0.249
Mof_O 	O 	0.28705	0.25402	0.52957	-0.338
Mof_F 	F 	0.2908	0.2477	0.5882	-0.292
Mof_F 	F 	0.3158	0.2716	0.6328	-0.278
Mof_F 	F 	0.3171	0.3588	0.5829	-0.289
Mof_F 	F 	0.2931	0.3345	0.5376	-0.263
Mof_C 	C 	0.2964	0.2742	0.5863	0.291
Mof_C 	C 	0.3099	0.2868	0.6092	0.248
Mof_C 	C 	0.3111	0.3311	0.5842	0.268
Mof_C 	C 	0.2976	0.3185	0.5613	0.249
Mof_O 	O 	0.28705	0.75402	0.02957	-0.338
Mof_F 	F 	0.2908	0.7477	0.0882	-0.292
Mof_F 	F 	0.3158	0.7716	0.1328	-0.278
Mof_F 	F 	0.3171	0.8588	0.0829	-0.289
Mof_F 	F 	0.2931	0.8345	0.0376	-0.264
Mof_C 	C 	0.2964	0.7742	0.0863	0.291
Mof_C 	C 	0.3099	0.7868	0.1092	0.248
Mof_C 	C 	0.3111	0.8311	0.0842	0.268
Mof_C 	C 	0.2976	0.8185	0.0613	0.249
Mof_O 	O 	0.97043	0.78705	0.74598	-0.338
Mof_F 	F 	0.9118	0.7908	0.7523	-0.292
Mof_F 	F 	0.8672	0.8158	0.7284	-0.278
Mof_F 	F 	0.9171	0.8171	0.6412	-0.289
Mof_F 	F 	0.9624	0.7931	0.6655	-0.263
Mof_C 	C 	0.9137	0.7964	0.7258	0.291
Mof_C 	C 	0.8908	0.8099	0.7132	0.248
Mof_C 	C 	0.9158	0.8111	0.6689	0.268
Mof_C 	C 	0.9387	0.7976	0.6815	0.249
Mof_O 	O 	0.97043	0.28705	0.24598	-0.338
Mof_F 	F 	0.9118	0.2908	0.2523	-0.292
Mof_F 	F 	0.8672	0.3158	0.2284	-0.278
Mof_F 	F 	0.9171	0.3171	0.1412	-0.289
Mof_F 	F 	0.9624	0.2931	0.1655	-0.263
Mof_C 	C 	0.9137	0.2964	0.2258	0.291
Mof_C 	C 	0.8908	0.3099	0.2132	0.248
Mof_C 	C 	0.9158	0.3111	0.1689	0.268
Mof_C 	C 	0.9387	0.2976	0.1815	0.249
Mof_O 	O 	0.47043	0.78705	0.24598	-0.338
Mof_F 	F 	0.4118	0.7908	0.2523	-0.292
Mof_F 	F 	0.3672	0.8158	0.2284	-0.278
Mof_F 	F 	0.4171	0.8171	0.1412	-0.289
Mof_F 	F 	0.4624	0.7931	0.1655	-0.263
Mof_C 	C 	0.4137	0.7964	0.2258	0.291
Mof_C 	C 	0.3908	0.8099	0.2132	0.248
Mof_C 	C 	0.4158	0.8111	0.1689	0.268
Mof_C 	C 	0.4387	0.7976	0.1815	0.249
Mof_O 	O 	0.47043	0.28705	0.74598	-0.338
Mof_F 	F 	0.4118	0.2908	0.7523	-0.292
Mof_F 	F 	0.3672	0.3158	0.7284	-0.278
Mof_F 	F 	0.4171	0.3171	0.6412	-0.289
Mof_F 	F 	0.4624	0.2931	0.6655	-0.263
Mof_C 	C 	0.4137	0.2964	0.7258	0.291
Mof_C 	C 	0.3908	0.3099	0.7132	0.248
Mof_C 	C 	0.4158	0.3111	0.6689	0.268
Mof_C 	C 	0.4387	0.2976	0.6815	0.249
Mof_O 	O 	0.97043	0.21295	0.25402	-0.338
Mof_F 	F 	0.9118	0.2092	0.2477	-0.292
Mof_F 	F 	0.8672	0.1842	0.2716	-0.278
Mof_F 	F 	0.9171	0.1829	0.3588	-0.289
Mof_F 	F 	0.9624	0.2069	0.3345	-0.263
Mof_C 	C 	0.9137	0.2036	0.2742	0.291
Mof_C 	C 	0.8908	0.1901	0.2868	0.248
Mof_C 	C 	0.9158	0.1889	0.3311	0.268
Mof_C 	C 	0.9387	0.2024	0.3185	0.249
Mof_O 	O 	0.97043	0.71295	0.75402	-0.338
Mof_F 	F 	0.9118	0.7092	0.7477	-0.292
Mof_F 	F 	0.8672	0.6842	0.7716	-0.278
Mof_F 	F 	0.9171	0.6829	0.8588	-0.289
Mof_F 	F 	0.9624	0.7069	0.8345	-0.263
Mof_C 	C 	0.9137	0.7036	0.7742	0.291
Mof_C 	C 	0.8908	0.6901	0.7868	0.248
Mof_C 	C 	0.9158	0.6889	0.8311	0.268
Mof_C 	C 	0.9387	0.7024	0.8185	0.249
Mof_O 	O 	0.47043	0.21295	0.75402	-0.338
Mof_F 	F 	0.4118	0.2092	0.7477	-0.292
Mof_F 	F 	0.3672	0.1842	0.7716	-0.278
Mof_F 	F 	0.4171	0.1829	0.8588	-0.289
Mof_F 	F 	0.4624	0.2069	0.8345	-0.263
Mof_C 	C 	0.4137	0.2036	0.7742	0.291
Mof_C 	C 	0.3908	0.1901	0.7868	0.248
Mof_C 	C 	0.4158	0.1889	0.8311	0.268
Mof_C 	C 	0.4387	0.2024	0.8185	0.249
Mof_O 	O 	0.47043	0.71295	0.25402	-0.338
Mof_F 	F 	0.4118	0.7092	0.2477	-0.292
Mof_F 	F 	0.3672	0.6842	0.2716	-0.278
Mof_F 	F 	0.4171	0.6829	0.3588	-0.289
Mof_F 	F 	0.4624	0.7069	0.3345	-0.263
Mof_C 	C 	0.4137	0.7036	0.2742	0.291
Mof_C 	C 	0.3908	0.6901	0.2868	0.248
Mof_C 	C 	0.4158	0.6889	0.3311	0.268
Mof_C 	C 	0.4387	0.7024	0.3185	0.249
Mof_O 	O 	0.02957	0.21295	0.74598	-0.339
Mof_F 	F 	0.0882	0.2092	0.7523	-0.292
Mof_F 	F 	0.1328	0.1842	0.7284	-0.278
Mof_F 	F 	0.0829	0.1829	0.6412	-0.289
Mof_F 	F 	0.0376	0.2069	0.6655	-0.264
Mof_C 	C 	0.0863	0.2036	0.7258	0.291
Mof_C 	C 	0.1092	0.1901	0.7132	0.248
Mof_C 	C 	0.0842	0.1889	0.6689	0.268
Mof_C 	C 	0.0613	0.2024	0.6815	0.249
Mof_O 	O 	0.02957	0.71295	0.24598	-0.338
Mof_F 	F 	0.0882	0.7092	0.2523	-0.292
Mof_F 	F 	0.1328	0.6842	0.2284	-0.278
Mof_F 	F 	0.0829	0.6829	0.1412	-0.29
Mof_F 	F 	0.0376	0.7069	0.1655	-0.264
Mof_C 	C 	0.0863	0.7036	0.2258	0.291
Mof_C 	C 	0.1092	0.6901	0.2132	0.248
Mof_C 	C 	0.0842	0.6889	0.1689	0.268
Mof_C 	C 	0.0613	0.7024	0.1815	0.249
Mof_O 	O 	0.52957	0.21295	0.24598	-0.338
Mof_F 	F 	0.5882	0.2092	0.2523	-0.292
Mof_F 	F 	0.6328	0.1842	0.2284	-0.278
Mof_F 	F 	0.5829	0.1829	0.1412	-0.289
Mof_F 	F 	0.5376	0.2069	0.1655	-0.263
Mof_C 	C 	0.5863	0.2036	0.2258	0.291
Mof_C 	C 	0.6092	0.1901	0.2132	0.248
Mof_C 	C 	0.5842	0.1889	0.1689	0.268
Mof_C 	C 	0.5613	0.2024	0.1815	0.249
Mof_O 	O 	0.52957	0.71295	0.74598	-0.338
Mof_F 	F 	0.5882	0.7092	0.7523	-0.292
Mof_F 	F 	0.6328	0.6842	0.7284	-0.278
Mof_F 	F 	0.5829	0.6829	0.6412	-0.289
Mof_F 	F 	0.5376	0.7069	0.6655	-0.263
Mof_C 	C 	0.5863	0.7036	0.7258	0.291
Mof_C 	C 	0.6092	0.6901	0.7132	0.248
Mof_C 	C 	0.5842	0.6889	0.6689	0.268
Mof_C 	C 	0.5613	0.7024	0.6815	0.249
Mof_O 	O 	0.02957	0.78705	0.25402	-0.338
Mof_F 	F 	0.0882	0.7908	0.2477	-0.292
Mof_F 	F 	0.1328	0.8158	0.2716	-0.278
Mof_F 	F 	0.0829	0.8171	0.3588	-0.289
Mof_F 	F 	0.0376	0.7931	0.3345	-0.264
Mof_C 	C 	0.0863	0.7964	0.2742	0.291
Mof_C 	C 	0.1092	0.8099	0.2868	0.248
Mof_C 	C 	0.0842	0.8111	0.3311	0.268
Mof_C 	C 	0.0613	0.7976	0.3185	0.249
Mof_O 	O 	0.02957	0.28705	0.75402	-0.338
Mof_F 	F 	0.0882	0.2908	0.7477	-0.292
Mof_F 	F 	0.1328	0.3158	0.7716	-0.278
Mof_F 	F 	0.0829	0.3171	0.8588	-0.289
Mof_F 	F 	0.0376	0.2931	0.8345	-0.264
Mof_C 	C 	0.0863	0.2964	0.7742	0.291
Mof_C 	C 	0.1092	0.3099	0.7868	0.248
Mof_C 	C 	0.0842	0.3111	0.8311	0.268
Mof_C 	C 	0.0613	0.2976	0.8185	0.249
Mof_O 	O 	0.52957	0.78705	0.75402	-0.338
Mof_F 	F 	0.5882	0.7908	0.7477	-0.292
Mof_F 	F 	0.6328	0.8158	0.7716	-0.278
Mof_F 	F 	0.5829	0.8171	0.8588	-0.289
Mof_F 	F 	0.5376	0.7931	0.8345	-0.263
Mof_C 	C 	0.5863	0.7964	0.7742	0.291
Mof_C 	C 	0.6092	0.8099	0.7868	0.248
Mof_C 	C 	0.5842	0.8111	0.8311	0.268
Mof_C 	C 	0.5613	0.7976	0.8185	0.249
Mof_O 	O 	0.52957	0.28705	0.25402	-0.338
Mof_F 	F 	0.5882	0.2908	0.2477	-0.292
Mof_F 	F 	0.6328	0.3158	0.2716	-0.278
Mof_F 	F 	0.5829	0.3171	0.3588	-0.289
Mof_F 	F 	0.5376	0.2931	0.3345	-0.263
Mof_C 	C 	0.5863	0.2964	0.2742	0.291
Mof_C 	C 	0.6092	0.3099	0.2868	0.248
Mof_C 	C 	0.5842	0.3111	0.3311	0.268
Mof_C 	C 	0.5613	0.2976	0.3185	0.249
Mof_O 	O 	0.74598	0.97043	0.78705	-0.338
Mof_F 	F 	0.7523	0.9118	0.7908	-0.292
Mof_F 	F 	0.7284	0.8672	0.8158	-0.278
Mof_F 	F 	0.6412	0.9171	0.8171	-0.289
Mof_F 	F 	0.6655	0.9624	0.7931	-0.263
Mof_C 	C 	0.7258	0.9137	0.7964	0.291
Mof_C 	C 	0.7132	0.8908	0.8099	0.248
Mof_C 	C 	0.6689	0.9158	0.8111	0.268
Mof_C 	C 	0.6815	0.9387	0.7976	0.249
Mof_O 	O 	0.74598	0.47043	0.28705	-0.338
Mof_F 	F 	0.7523	0.4118	0.2908	-0.292
Mof_F 	F 	0.7284	0.3672	0.3158	-0.278
Mof_F 	F 	0.6412	0.4171	0.3171	-0.289
Mof_F 	F 	0.6655	0.4624	0.2931	-0.263
Mof_C 	C 	0.7258	0.4137	0.2964	0.291
Mof_C 	C 	0.7132	0.3908	0.3099	0.248
Mof_C 	C 	0.6689	0.4158	0.3111	0.268
Mof_C 	C 	0.6815	0.4387	0.2976	0.249
Mof_O 	O 	0.24598	0.97043	0.28705	-0.338
Mof_F 	F 	0.2523	0.9118	0.2908	-0.292
Mof_F 	F 	0.2284	0.8672	0.3158	-0.278
Mof_F 	F 	0.1412	0.9171	0.3171	-0.289
Mof_F 	F 	0.1655	0.9624	0.2931	-0.263
Mof_C 	C 	0.2258	0.9137	0.2964	0.291
Mof_C 	C 	0.2132	0.8908	0.3099	0.248
Mof_C 	C 	0.1689	0.9158	0.3111	0.268
Mof_C 	C 	0.1815	0.9387	0.2976	0.249
Mof_O 	O 	0.24598	0.47043	0.78705	-0.338
Mof_F 	F 	0.2523	0.4118	0.7908	-0.292
Mof_F 	F 	0.2284	0.3672	0.8158	-0.278
Mof_F 	F 	0.1412	0.4171	0.8171	-0.289
Mof_F 	F 	0.1655	0.4624	0.7931	-0.263
Mof_C 	C 	0.2258	0.4137	0.7964	0.291
Mof_C 	C 	0.2132	0.3908	0.8099	0.248
Mof_C 	C 	0.1689	0.4158	0.8111	0.268
Mof_C 	C 	0.1815	0.4387	0.7976	0.249
Mof_O 	O 	0.25402	0.97043	0.21295	-0.338
Mof_F 	F 	0.2477	0.9118	0.2092	-0.292
Mof_F 	F 	0.2716	0.8672	0.1842	-0.278
Mof_F 	F 	0.3588	0.9171	0.1829	-0.289
Mof_F 	F 	0.3345	0.9624	0.2069	-0.263
Mof_C 	C 	0.2742	0.9137	0.2036	0.291
Mof_C 	C 	0.2868	0.8908	0.1901	0.248
Mof_C 	C 	0.3311	0.9158	0.1889	0.268
Mof_C 	C 	0.3185	0.9387	0.2024	0.249
Mof_O 	O 	0.25402	0.47043	0.71295	-0.338
Mof_F 	F 	0.2477	0.4118	0.7092	-0.292
Mof_F 	F 	0.2716	0.3672	0.6842	-0.278
Mof_F 	F 	0.3588	0.4171	0.6829	-0.289
Mof_F 	F 	0.3345	0.4624	0.7069	-0.263
Mof_C 	C 	0.2742	0.4137	0.7036	0.291
Mof_C 	C 	0.2868	0.3908	0.6901	0.248
Mof_C 	C 	0.3311	0.4158	0.6889	0.268
Mof_C 	C 	0.3185	0.4387	0.7024	0.249
Mof_O 	O 	0.75402	0.97043	0.71295	-0.338
Mof_F 	F 	0.7477	0.9118	0.7092	-0.292
Mof_F 	F 	0.7716	0.8672	0.6842	-0.278
Mof_F 	F 	0.8588	0.9171	0.6829	-0.289
Mof_F 	F 	0.8345	0.9624	0.7069	-0.263
Mof_C 	C 	0.7742	0.9137	0.7036	0.291
Mof_C 	C 	0.7868	0.8908	0.6901	0.248
Mof_C 	C 	0.8311	0.9158	0.6889	0.268
Mof_C 	C 	0.8185	0.9387	0.7024	0.249
Mof_O 	O 	0.75402	0.47043	0.21295	-0.338
Mof_F 	F 	0.7477	0.4118	0.2092	-0.292
Mof_F 	F 	0.7716	0.3672	0.1842	-0.278
Mof_F 	F 	0.8588	0.4171	0.1829	-0.289
Mof_F 	F 	0.8345	0.4624	0.2069	-0.263
Mof_C 	C 	0.7742	0.4137	0.2036	0.291
Mof_C 	C 	0.7868	0.3908	0.1901	0.248
Mof_C 	C 	0.8311	0.4158	0.1889	0.268
Mof_C 	C 	0.8185	0.4387	0.2024	0.249
Mof_O 	O 	0.74598	0.02957	0.21295	-0.339
Mof_F 	F 	0.7523	0.0882	0.2092	-0.292
Mof_F 	F 	0.7284	0.1328	0.1842	-0.278
Mof_F 	F 	0.6412	0.0829	0.1829	-0.289
Mof_F 	F 	0.6655	0.0376	0.2069	-0.264
Mof_C 	C 	0.7258	0.0863	0.2036	0.291
Mof_C 	C 	0.7132	0.1092	0.1901	0.248
Mof_C 	C 	0.6689	0.0842	0.1889	0.268
Mof_C 	C 	0.6815	0.0613	0.2024	0.249
Mof_O 	O 	0.74598	0.52957	0.71295	-0.338
Mof_F 	F 	0.7523	0.5882	0.7092	-0.292
Mof_F 	F 	0.7284	0.6328	0.6842	-0.278
Mof_F 	F 	0.6412	0.5829	0.6829	-0.289
Mof_F 	F 	0.6655	0.5376	0.7069	-0.263
Mof_C 	C 	0.7258	0.5863	0.7036	0.291
Mof_C 	C 	0.7132	0.6092	0.6901	0.248
Mof_C 	C 	0.6689	0.5842	0.6889	0.268
Mof_C 	C 	0.6815	0.5613	0.7024	0.249
Mof_O 	O 	0.24598	0.02957	0.71295	-0.338
Mof_F 	F 	0.2523	0.0882	0.7092	-0.292
Mof_F 	F 	0.2284	0.1328	0.6842	-0.278
Mof_F 	F 	0.1412	0.0829	0.6829	-0.29
Mof_F 	F 	0.1655	0.0376	0.7069	-0.264
Mof_C 	C 	0.2258	0.0863	0.7036	0.291
Mof_C 	C 	0.2132	0.1092	0.6901	0.248
Mof_C 	C 	0.1689	0.0842	0.6889	0.268
Mof_C 	C 	0.1815	0.0613	0.7024	0.249
Mof_O 	O 	0.24598	0.52957	0.21295	-0.338
Mof_F 	F 	0.2523	0.5882	0.2092	-0.292
Mof_F 	F 	0.2284	0.6328	0.1842	-0.278
Mof_F 	F 	0.1412	0.5829	0.1829	-0.289
Mof_F 	F 	0.1655	0.5376	0.2069	-0.263
Mof_C 	C 	0.2258	0.5863	0.2036	0.291
Mof_C 	C 	0.2132	0.6092	0.1901	0.248
Mof_C 	C 	0.1689	0.5842	0.1889	0.268
Mof_C 	C 	0.1815	0.5613	0.2024	0.249
Mof_O 	O 	0.25402	0.02957	0.78705	-0.338
Mof_F 	F 	0.2477	0.0882	0.7908	-0.292
Mof_F 	F 	0.2716	0.1328	0.8158	-0.278
Mof_F 	F 	0.3588	0.0829	0.8171	-0.289
Mof_F 	F 	0.3345	0.0376	0.7931	-0.264
Mof_C 	C 	0.2742	0.0863	0.7964	0.291
Mof_C 	C 	0.2868	0.1092	0.8099	0.248
Mof_C 	C 	0.3311	0.0842	0.8111	0.268
Mof_C 	C 	0.3185	0.0613	0.7976	0.249
Mof_O 	O 	0.25402	0.52957	0.28705	-0.338
Mof_F 	F 	0.2477	0.5882	0.2908	-0.292
Mof_F 	F 	0.2716	0.6328	0.3158	-0.278
Mof_F 	F 	0.3588	0.5829	0.3171	-0.289
Mof_F 	F 	0.3345	0.5376	0.2931	-0.263
Mof_C 	C 	0.2742	0.5863	0.2964	0.291
Mof_C 	C 	0.2868	0.6092	0.3099	0.248
Mof_C 	C 	0.3311	0.5842	0.3111	0.268
Mof_C 	C 	0.3185	0.5613	0.2976	0.249
Mof_O 	O 	0.75402	0.02957	0.28705	-0.338
Mof_F 	F 	0.7477	0.0882	0.2908	-0.292
Mof_F 	F 	0.7716	0.1328	0.3158	-0.278
Mof_F 	F 	0.8588	0.0829	0.3171	-0.289
Mof_F 	F 	0.8345	0.0376	0.2931	-0.264
Mof_C 	C 	0.7742	0.0863	0.2964	0.291
Mof_C 	C 	0.7868	0.1092	0.3099	0.248
Mof_C 	C 	0.8311	0.0842	0.3111	0.268
Mof_C 	C 	0.8185	0.0613	0.2976	0.249
Mof_O 	O 	0.75402	0.52957	0.78705	-0.338
Mof_F 	F 	0.7477	0.5882	0.7908	-0.292
Mof_F 	F 	0.7716	0.6328	0.8158	-0.278
Mof_F 	F 	0.8588	0.5829	0.8171	-0.289
Mof_F 	F 	0.8345	0.5376	0.7931	-0.263
Mof_C 	C 	0.7742	0.5863	0.7964	0.291
Mof_C 	C 	0.7868	0.6092	0.8099	0.248
Mof_C 	C 	0.8311	0.5842	0.8111	0.268
Mof_C 	C 	0.8185	0.5613	0.7976	0.249
Mof_O 	O 	0.74598	0.78705	0.02957	-0.338
Mof_F 	F 	0.7523	0.7908	0.0882	-0.292
Mof_F 	F 	0.7284	0.8158	0.1328	-0.278
Mof_F 	F 	0.6412	0.8171	0.0829	-0.289
Mof_F 	F 	0.6655	0.7931	0.0376	-0.264
Mof_C 	C 	0.7258	0.7964	0.0863	0.291
Mof_C 	C 	0.7132	0.8099	0.1092	0.248
Mof_C 	C 	0.6689	0.8111	0.0842	0.268
Mof_C 	C 	0.6815	0.7976	0.0613	0.249
Mof_O 	O 	0.74598	0.28705	0.52957	-0.338
Mof_F 	F 	0.7523	0.2908	0.5882	-0.292
Mof_F 	F 	0.7284	0.3158	0.6328	-0.278
Mof_F 	F 	0.6412	0.3171	0.5829	-0.289
Mof_F 	F 	0.6655	0.2931	0.5376	-0.263
Mof_C 	C 	0.7258	0.2964	0.5863	0.291
Mof_C 	C 	0.7132	0.3099	0.6092	0.248
Mof_C 	C 	0.6689	0.3111	0.5842	0.268
Mof_C 	C 	0.6815	0.2976	0.5613	0.249
Mof_O 	O 	0.24598	0.78705	0.52957	-0.338
Mof_F 	F 	0.2523	0.7908	0.5882	-0.292
Mof_F 	F 	0.2284	0.8158	0.6328	-0.278
Mof_F 	F 	0.1412	0.8171	0.5829	-0.289
Mof_F 	F 	0.1655	0.7931	0.5376	-0.263
Mof_C 	C 	0.2258	0.7964	0.5863	0.291
Mof_C 	C 	0.2132	0.8099	0.6092	0.248
Mof_C 	C 	0.1689	0.8111	0.5842	0.268
Mof_C 	C 	0.1815	0.7976	0.5613	0.249
Mof_O 	O 	0.24598	0.28705	0.02957	-0.338
Mof_F 	F 	0.2523	0.2908	0.0882	-0.292
Mof_F 	F 	0.2284	0.3158	0.1328	-0.278
Mof_F 	F 	0.1412	0.3171	0.0829	-0.29
Mof_F 	F 	0.1655	0.2931	0.0376	-0.264
Mof_C 	C 	0.2258	0.2964	0.0863	0.291
Mof_C 	C 	0.2132	0.3099	0.1092	0.248
Mof_C 	C 	0.1689	0.3111	0.0842	0.268
Mof_C 	C 	0.1815	0.2976	0.0613	0.249
Mof_O 	O 	0.25402	0.21295	0.02957	-0.339
Mof_F 	F 	0.2477	0.2092	0.0882	-0.292
Mof_F 	F 	0.2716	0.1842	0.1328	-0.278
Mof_F 	F 	0.3588	0.1829	0.0829	-0.289
Mof_F 	F 	0.3345	0.2069	0.0376	-0.264
Mof_C 	C 	0.2742	0.2036	0.0863	0.291
Mof_C 	C 	0.2868	0.1901	0.1092	0.248
Mof_C 	C 	0.3311	0.1889	0.0842	0.268
Mof_C 	C 	0.3185	0.2024	0.0613	0.249
Mof_O 	O 	0.25402	0.71295	0.52957	-0.338
Mof_F 	F 	0.2477	0.7092	0.5882	-0.292
Mof_F 	F 	0.2716	0.6842	0.6328	-0.278
Mof_F 	F 	0.3588	0.6829	0.5829	-0.289
Mof_F 	F 	0.3345	0.7069	0.5376	-0.263
Mof_C 	C 	0.2742	0.7036	0.5863	0.291
Mof_C 	C 	0.2868	0.6901	0.6092	0.248
Mof_C 	C 	0.3311	0.6889	0.5842	0.268
Mof_C 	C 	0.3185	0.7024	0.5613	0.249
Mof_O 	O 	0.75402	0.21295	0.52957	-0.338
Mof_F 	F 	0.7477	0.2092	0.5882	-0.292
Mof_F 	F 	0.7716	0.1842	0.6328	-0.278
Mof_F 	F 	0.8588	0.1829	0.5829	-0.289
Mof_F 	F 	0.8345	0.2069	0.5376	-0.263
Mof_C 	C 	0.7742	0.2036	0.5863	0.291
Mof_C 	C 	0.7868	0.1901	0.6092	0.248
Mof_C 	C 	0.8311	0.1889	0.5842	0.268
Mof_C 	C 	0.8185	0.2024	0.5613	0.249
Mof_O 	O 	0.75402	0.71295	0.02957	-0.338
Mof_F 	F 	0.7477	0.7092	0.0882	-0.292
Mof_F 	F 	0.7716	0.6842	0.1328	-0.278
Mof_F 	F 	0.8588	0.6829	0.0829	-0.289
Mof_F 	F 	0.8345	0.7069	0.0376	-0.264
Mof_C 	C 	0.7742	0.7036	0.0863	0.291
Mof_C 	C 	0.7868	0.6901	0.1092	0.248
Mof_C 	C 	0.8311	0.6889	0.0842	0.268
Mof_C 	C 	0.8185	0.7024	0.0613	0.249
Mof_O 	O 	0.74598	0.21295	0.97043	-0.338
Mof_F 	F 	0.7523	0.2092	0.9118	-0.292
Mof_F 	F 	0.7284	0.1842	0.8672	-0.278
Mof_F 	F 	0.6412	0.1829	0.9171	-0.289
Mof_F 	F 	0.6655	0.2069	0.9624	-0.263
Mof_C 	C 	0.7258	0.2036	0.9137	0.291
Mof_C 	C 	0.7132	0.1901	0.8908	0.248
Mof_C 	C 	0.6689	0.1889	0.9158	0.268
Mof_C 	C 	0.6815	0.2024	0.9387	0.249
Mof_O 	O 	0.74598	0.71295	0.47043	-0.338
Mof_F 	F 	0.7523	0.7092	0.4118	-0.292
Mof_F 	F 	0.7284	0.6842	0.3672	-0.278
Mof_F 	F 	0.6412	0.6829	0.4171	-0.289
Mof_F 	F 	0.6655	0.7069	0.4624	-0.263
Mof_C 	C 	0.7258	0.7036	0.4137	0.291
Mof_C 	C 	0.7132	0.6901	0.3908	0.248
Mof_C 	C 	0.6689	0.6889	0.4158	0.268
Mof_C 	C 	0.6815	0.7024	0.4387	0.249
Mof_O 	O 	0.24598	0.21295	0.47043	-0.338
Mof_F 	F 	0.2523	0.2092	0.4118	-0.292
Mof_F 	F 	0.2284	0.1842	0.3672	-0.278
Mof_F 	F 	0.1412	0.1829	0.4171	-0.289
Mof_F 	F 	0.1655	0.2069	0.4624	-0.263
Mof_C 	C 	0.2258	0.2036	0.4137	0.291
Mof_C 	C 	0.2132	0.1901	0.3908	0.248
Mof_C 	C 	0.1689	0.1889	0.4158	0.268
Mof_C 	C 	0.1815	0.2024	0.4387	0.249
Mof_O 	O 	0.24598	0.71295	0.97043	-0.338
Mof_F 	F 	0.2523	0.7092	0.9118	-0.292
Mof_F 	F 	0.2284	0.6842	0.8672	-0.278
Mof_F 	F 	0.1412	0.6829	0.9171	-0.289
Mof_F 	F 	0.1655	0.7069	0.9624	-0.263
Mof_C 	C 	0.2258	0.7036	0.9137	0.291
Mof_C 	C 	0.2132	0.6901	0.8908	0.248
Mof_C 	C 	0.1689	0.6889	0.9158	0.268
Mof_C 	C 	0.1815	0.7024	0.9387	0.249
Mof_O 	O 	0.25402	0.78705	0.97043	-0.338
Mof_F 	F 	0.2477	0.7908	0.9118	-0.292
Mof_F 	F 	0.2716	0.8158	0.8672	-0.278
Mof_F 	F 	0.3588	0.8171	0.9171	-0.289
Mof_F 	F 	0.3345	0.7931	0.9624	-0.263
Mof_C 	C 	0.2742	0.7964	0.9137	0.291
Mof_C 	C 	0.2868	0.8099	0.8908	0.248
Mof_C 	C 	0.3311	0.8111	0.9158	0.268
Mof_C 	C 	0.3185	0.7976	0.9387	0.249
Mof_O 	O 	0.25402	0.28705	0.47043	-0.338
Mof_F 	F 	0.2477	0.2908	0.4118	-0.292
Mof_F 	F 	0.2716	0.3158	0.3672	-0.278
Mof_F 	F 	0.3588	0.3171	0.4171	-0.289
Mof_F 	F 	0.3345	0.2931	0.4624	-0.263
Mof_C 	C 	0.2742	0.2964	0.4137	0.291
Mof_C 	C 	0.2868	0.3099	0.3908	0.248
Mof_C 	C 	0.3311	0.3111	0.4158	0.268
Mof_C 	C 	0.3185	0.2976	0.4387	0.249
Mof_O 	O 	0.75402	0.78705	0.47043	-0.338
Mof_F 	F 	0.7477	0.7908	0.4118	-0.292
Mof_F 	F 	0.7716	0.8158	0.3672	-0.278
Mof_F 	F 	0.8588	0.8171	0.4171	-0.289
Mof_F 	F 	0.8345	0.7931	0.4624	-0.263
Mof_C 	C 	0.7742	0.7964	0.4137	0.291
Mof_C 	C 	0.7868	0.8099	0.3908	0.248
Mof_C 	C 	0.8311	0.8111	0.4158	0.268
Mof_C 	C 	0.8185	0.7976	0.4387	0.249
Mof_O 	O 	0.75402	0.28705	0.97043	-0.338
Mof_F 	F 	0.7477	0.2908	0.9118	-0.292
Mof_F 	F 	0.7716	0.3158	0.8672	-0.278
Mof_F 	F 	0.8588	0.3171	0.9171	-0.289
Mof_F 	F 	0.8345	0.2931	0.9624	-0.263
Mof_C 	C 	0.7742	0.2964	0.9137	0.291
Mof_C 	C 	0.7868	0.3099	0.8908	0.248
Mof_C 	C 	0.8311	0.3111	0.9158	0.268
Mof_C 	C 	0.8185	0.2976	0.9387	0.249
Mof_O 	O 	0.78705	0.97043	0.25402	-0.338
Mof_F 	F 	0.7908	0.9118	0.2477	-0.292
Mof_F 	F 	0.8158	0.8672	0.2716	-0.278
Mof_F 	F 	0.8171	0.9171	0.3588	-0.289
Mof_F 	F 	0.7931	0.9624	0.3345	-0.263
Mof_C 	C 	0.7964	0.9137	0.2742	0.291
Mof_C 	C 	0.8099	0.8908	0.2868	0.248
Mof_C 	C 	0.8111	0.9158	0.3311	0.268
Mof_C 	C 	0.7976	0.9387	0.3185	0.249
Mof_O 	O 	0.78705	0.47043	0.75402	-0.338
Mof_F 	F 	0.7908	0.4118	0.7477	-0.292
Mof_F 	F 	0.8158	0.3672	0.7716	-0.278
Mof_F 	F 	0.8171	0.4171	0.8588	-0.289
Mof_F 	F 	0.7931	0.4624	0.8345	-0.263
Mof_C 	C 	0.7964	0.4137	0.7742	0.291
Mof_C 	C 	0.8099	0.3908	0.7868	0.248
Mof_C 	C 	0.8111	0.4158	0.8311	0.268
Mof_C 	C 	0.7976	0.4387	0.8185	0.249
Mof_O 	O 	0.28705	0.97043	0.75402	-0.338
Mof_F 	F 	0.2908	0.9118	0.7477	-0.292
Mof_F 	F 	0.3158	0.8672	0.7716	-0.278
Mof_F 	F 	0.3171	0.9171	0.8588	-0.289
Mof_F 	F 	0.2931	0.9624	0.8345	-0.263
Mof_C 	C 	0.2964	0.9137	0.7742	0.291
Mof_C 	C 	0.3099	0.8908	0.7868	0.248
Mof_C 	C 	0.3111	0.9158	0.8311	0.268
Mof_C 	C 	0.2976	0.9387	0.8185	0.249
Mof_O 	O 	0.28705	0.47043	0.25402	-0.338
Mof_F 	F 	0.2908	0.4118	0.2477	-0.292
Mof_F 	F 	0.3158	0.3672	0.2716	-0.278
Mof_F 	F 	0.3171	0.4171	0.3588	-0.289
Mof_F 	F 	0.2931	0.4624	0.3345	-0.263
Mof_C 	C 	0.2964	0.4137	0.2742	0.291
Mof_C 	C 	0.3099	0.3908	0.2868	0.248
Mof_C 	C 	0.3111	0.4158	0.3311	0.268
Mof_C 	C 	0.2976	0.4387	0.3185	0.249
Mof_O 	O 	0.21295	0.97043	0.74598	-0.338
Mof_F 	F 	0.2092	0.9118	0.7523	-0.292
Mof_F 	F 	0.1842	0.8672	0.7284	-0.278
Mof_F 	F 	0.1829	0.9171	0.6412	-0.289
Mof_F 	F 	0.2069	0.9624	0.6655	-0.263
Mof_C 	C 	0.2036	0.9137	0.7258	0.291
Mof_C 	C 	0.1901	0.8908	0.7132	0.248
Mof_C 	C 	0.1889	0.9158	0.6689	0.268
Mof_C 	C 	0.2024	0.9387	0.6815	0.249
Mof_O 	O 	0.21295	0.47043	0.24598	-0.338
Mof_F 	F 	0.2092	0.4118	0.2523	-0.292
Mof_F 	F 	0.1842	0.3672	0.2284	-0.278
Mof_F 	F 	0.1829	0.4171	0.1412	-0.289
Mof_F 	F 	0.2069	0.4624	0.1655	-0.263
Mof_C 	C 	0.2036	0.4137	0.2258	0.291
Mof_C 	C 	0.1901	0.3908	0.2132	0.248
Mof_C 	C 	0.1889	0.4158	0.1689	0.268
Mof_C 	C 	0.2024	0.4387	0.1815	0.249
Mof_O 	O 	0.71295	0.97043	0.24598	-0.338
Mof_F 	F 	0.7092	0.9118	0.2523	-0.292
Mof_F 	F 	0.6842	0.8672	0.2284	-0.278
Mof_F 	F 	0.6829	0.9171	0.1412	-0.289
Mof_F 	F 	0.7069	0.9624	0.1655	-0.263
Mof_C 	C 	0.7036	0.9137	0.2258	0.291
Mof_C 	C 	0.6901	0.8908	0.2132	0.248
Mof_C 	C 	0.6889	0.9158	0.1689	0.268
Mof_C 	C 	0.7024	0.9387	0.1815	0.249
Mof_O 	O 	0.71295	0.47043	0.74598	-0.338
Mof_F 	F 	0.7092	0.4118	0.7523	-0.292
Mof_F 	F 	0.6842	0.3672	0.7284	-0.278
Mof_F 	F 	0.6829	0.4171	0.6412	-0.289
Mof_F 	F 	0.7069	0.4624	0.6655	-0.263
Mof_C 	C 	0.7036	0.4137	0.7258	0.291
Mof_C 	C 	0.6901	0.3908	0.7132	0.248
Mof_C 	C 	0.6889	0.4158	0.6689	0.268
Mof_C 	C 	0.7024	0.4387	0.6815	0.249
Mof_O 	O 	0.21295	0.02957	0.25402	-0.339
Mof_F 	F 	0.2092	0.0882	0.2477	-0.292
Mof_F 	F 	0.1842	0.1328	0.2716	-0.278
Mof_F 	F 	0.1829	0.0829	0.3588	-0.289
Mof_F 	F 	0.2069	0.0376	0.3345	-0.264
Mof_C 	C 	0.2036	0.0863	0.2742	0.291
Mof_C 	C 	0.1901	0.1092	0.2868	0.248
Mof_C 	C 	0.1889	0.0842	0.3311	0.268
Mof_C 	C 	0.2024	0.0613	0.3185	0.249
Mof_O 	O 	0.21295	0.52957	0.75402	-0.338
Mof_F 	F 	0.2092	0.5882	0.7477	-0.292
Mof_F 	F 	0.1842	0.6328	0.7716	-0.278
Mof_F 	F 	0.1829	0.5829	0.8588	-0.289
Mof_F 	F 	0.2069	0.5376	0.8345	-0.263
Mof_C 	C 	0.2036	0.5863	0.7742	0.291
Mof_C 	C 	0.1901	0.6092	0.7868	0.248
Mof_C 	C 	0.1889	0.5842	0.8311	0.268
Mof_C 	C 	0.2024	0.5613	0.8185	0.249
Mof_O 	O 	0.71295	0.02957	0.75402	-0.338
Mof_F 	F 	0.7092	0.0882	0.7477	-0.292
Mof_F 	F 	0.6842	0.1328	0.7716	-0.278
Mof_F 	F 	0.6829	0.0829	0.8588	-0.289
Mof_F 	F 	0.7069	0.0376	0.8345	-0.264
Mof_C 	C 	0.7036	0.0863	0.7742	0.291
Mof_C 	C 	0.6901	0.1092	0.7868	0.248
Mof_C 	C 	0.6889	0.0842	0.8311	0.268
Mof_C 	C 	0.7024	0.0613	0.8185	0.249
Mof_O 	O 	0.71295	0.52957	0.25402	-0.338
Mof_F 	F 	0.7092	0.5882	0.2477	-0.292
Mof_F 	F 	0.6842	0.6328	0.2716	-0.278
Mof_F 	F 	0.6829	0.5829	0.3588	-0.289
Mof_F 	F 	0.7069	0.5376	0.3345	-0.263
Mof_C 	C 	0.7036	0.5863	0.2742	0.291
Mof_C 	C 	0.6901	0.6092	0.2868	0.248
Mof_C 	C 	0.6889	0.5842	0.3311	0.268
Mof_C 	C 	0.7024	0.5613	0.3185	0.249
Mof_O 	O 	0.78705	0.02957	0.74598	-0.338
Mof_F 	F 	0.7908	0.0882	0.7523	-0.292
Mof_F 	F 	0.8158	0.1328	0.7284	-0.278
Mof_F 	F 	0.8171	0.0829	0.6412	-0.289
Mof_F 	F 	0.7931	0.0376	0.6655	-0.264
Mof_C 	C 	0.7964	0.0863	0.7258	0.291
Mof_C 	C 	0.8099	0.1092	0.7132	0.248
Mof_C 	C 	0.8111	0.0842	0.6689	0.268
Mof_C 	C 	0.7976	0.0613	0.6815	0.249
Mof_O 	O 	0.78705	0.52957	0.24598	-0.338
Mof_F 	F 	0.7908	0.5882	0.2523	-0.292
Mof_F 	F 	0.8158	0.6328	0.2284	-0.278
Mof_F 	F 	0.8171	0.5829	0.1412	-0.289
Mof_F 	F 	0.7931	0.5376	0.1655	-0.263
Mof_C 	C 	0.7964	0.5863	0.2258	0.291
Mof_C 	C 	0.8099	0.6092	0.2132	0.248
Mof_C 	C 	0.8111	0.5842	0.1689	0.268
Mof_C 	C 	0.7976	0.5613	0.1815	0.249
Mof_O 	O 	0.28705	0.02957	0.24598	-0.338
Mof_F 	F 	0.2908	0.0882	0.2523	-0.292
Mof_F 	F 	0.3158	0.1328	0.2284	-0.278
Mof_F 	F 	0.3171	0.0829	0.1412	-0.29
Mof_F 	F 	0.2931	0.0376	0.1655	-0.264
Mof_C 	C 	0.2964	0.0863	0.2258	0.291
Mof_C 	C 	0.3099	0.1092	0.2132	0.248
Mof_C 	C 	0.3111	0.0842	0.1689	0.268
Mof_C 	C 	0.2976	0.0613	0.1815	0.249
Mof_O 	O 	0.28705	0.52957	0.74598	-0.338
Mof_F 	F 	0.2908	0.5882	0.7523	-0.292
Mof_F 	F 	0.3158	0.6328	0.7284	-0.278
Mof_F 	F 	0.3171	0.5829	0.6412	-0.289
Mof_F 	F 	0.2931	0.5376	0.6655	-0.263
Mof_C 	C 	0.2964	0.5863	0.7258	0.291
Mof_C 	C 	0.3099	0.6092	0.7132	0.248
Mof_C 	C 	0.3111	0.5842	0.6689	0.268
Mof_C 	C 	0.2976	0.5613	0.6815	0.249
Mof_O 	O 	0.97043	0.74598	0.21295	-0.338
Mof_F 	F 	0.9118	0.7523	0.2092	-0.292
Mof_F 	F 	0.8672	0.7284	0.1842	-0.278
Mof_F 	F 	0.9171	0.6412	0.1829	-0.289
Mof_F 	F 	0.9624	0.6655	0.2069	-0.263
Mof_C 	C 	0.9137	0.7258	0.2036	0.291
Mof_C 	C 	0.8908	0.7132	0.1901	0.248
Mof_C 	C 	0.9158	0.6689	0.1889	0.268
Mof_C 	C 	0.9387	0.6815	0.2024	0.249
Mof_O 	O 	0.97043	0.24598	0.71295	-0.338
Mof_F 	F 	0.9118	0.2523	0.7092	-0.292
Mof_F 	F 	0.8672	0.2284	0.6842	-0.278
Mof_F 	F 	0.9171	0.1412	0.6829	-0.289
Mof_F 	F 	0.9624	0.1655	0.7069	-0.263
Mof_C 	C 	0.9137	0.2258	0.7036	0.291
Mof_C 	C 	0.8908	0.2132	0.6901	0.248
Mof_C 	C 	0.9158	0.1689	0.6889	0.268
Mof_C 	C 	0.9387	0.1815	0.7024	0.249
Mof_O 	O 	0.47043	0.74598	0.71295	-0.338
Mof_F 	F 	0.4118	0.7523	0.7092	-0.292
Mof_F 	F 	0.3672	0.7284	0.6842	-0.278
Mof_F 	F 	0.4171	0.6412	0.6829	-0.289
Mof_F 	F 	0.4624	0.6655	0.7069	-0.263
Mof_C 	C 	0.4137	0.7258	0.7036	0.291
Mof_C 	C 	0.3908	0.7132	0.6901	0.248
Mof_C 	C 	0.4158	0.6689	0.6889	0.268
Mof_C 	C 	0.4387	0.6815	0.7024	0.249
Mof_O 	O 	0.47043	0.24598	0.21295	-0.338
Mof_F 	F 	0.4118	0.2523	0.2092	-0.292
Mof_F 	F 	0.3672	0.2284	0.1842	-0.278
Mof_F 	F 	0.4171	0.1412	0.1829	-0.289
Mof_F 	F 	0.4624	0.1655	0.2069	-0.263
Mof_C 	C 	0.4137	0.2258	0.2036	0.291
Mof_C 	C 	0.3908	0.2132	0.1901	0.248
Mof_C 	C 	0.4158	0.1689	0.1889	0.268
Mof_C 	C 	0.4387	0.1815	0.2024	0.249
Mof_O 	O 	0.97043	0.25402	0.78705	-0.338
Mof_F 	F 	0.9118	0.2477	0.7908	-0.292
Mof_F 	F 	0.8672	0.2716	0.8158	-0.278
Mof_F 	F 	0.9171	0.3588	0.8171	-0.289
Mof_F 	F 	0.9624	0.3345	0.7931	-0.263
Mof_C 	C 	0.9137	0.2742	0.7964	0.291
Mof_C 	C 	0.8908	0.2868	0.8099	0.248
Mof_C 	C 	0.9158	0.3311	0.8111	0.268
Mof_C 	C 	0.9387	0.3185	0.7976	0.249
Mof_O 	O 	0.97043	0.75402	0.28705	-0.338
Mof_F 	F 	0.9118	0.7477	0.2908	-0.292
Mof_F 	F 	0.8672	0.7716	0.3158	-0.278
Mof_F 	F 	0.9171	0.8588	0.3171	-0.289
Mof_F 	F 	0.9624	0.8345	0.2931	-0.263
Mof_C 	C 	0.9137	0.7742	0.2964	0.291
Mof_C 	C 	0.8908	0.7868	0.3099	0.248
Mof_C 	C 	0.9158	0.8311	0.3111	0.268
Mof_C 	C 	0.9387	0.8185	0.2976	0.249
Mof_O 	O 	0.47043	0.25402	0.28705	-0.338
Mof_F 	F 	0.4118	0.2477	0.2908	-0.292
Mof_F 	F 	0.3672	0.2716	0.3158	-0.278
Mof_F 	F 	0.4171	0.3588	0.3171	-0.289
Mof_F 	F 	0.4624	0.3345	0.2931	-0.263
Mof_C 	C 	0.4137	0.2742	0.2964	0.291
Mof_C 	C 	0.3908	0.2868	0.3099	0.248
Mof_C 	C 	0.4158	0.3311	0.3111	0.268
Mof_C 	C 	0.4387	0.3185	0.2976	0.249
Mof_O 	O 	0.47043	0.75402	0.78705	-0.338
Mof_F 	F 	0.4118	0.7477	0.7908	-0.292
Mof_F 	F 	0.3672	0.7716	0.8158	-0.278
Mof_F 	F 	0.4171	0.8588	0.8171	-0.289
Mof_F 	F 	0.4624	0.8345	0.7931	-0.263
Mof_C 	C 	0.4137	0.7742	0.7964	0.291
Mof_C 	C 	0.3908	0.7868	0.8099	0.248
Mof_C 	C 	0.4158	0.8311	0.8111	0.268
Mof_C 	C 	0.4387	0.8185	0.7976	0.249
Mof_O 	O 	0.02957	0.74598	0.78705	-0.338
Mof_F 	F 	0.0882	0.7523	0.7908	-0.292
Mof_F 	F 	0.1328	0.7284	0.8158	-0.278
Mof_F 	F 	0.0829	0.6412	0.8171	-0.289
Mof_F 	F 	0.0376	0.6655	0.7931	-0.264
Mof_C 	C 	0.0863	0.7258	0.7964	0.291
Mof_C 	C 	0.1092	0.7132	0.8099	0.248
Mof_C 	C 	0.0842	0.6689	0.8111	0.268
Mof_C 	C 	0.0613	0.6815	0.7976	0.249
Mof_O 	O 	0.02957	0.24598	0.28705	-0.338
Mof_F 	F 	0.0882	0.2523	0.2908	-0.292
Mof_F 	F 	0.1328	0.2284	0.3158	-0.278
Mof_F 	F 	0.0829	0.1412	0.3171	-0.29
Mof_F 	F 	0.0376	0.1655	0.2931	-0.264
Mof_C 	C 	0.0863	0.2258	0.2964	0.291
Mof_C 	C 	0.1092	0.2132	0.3099	0.248
Mof_C 	C 	0.0842	0.1689	0.3111	0.268
Mof_C 	C 	0.0613	0.1815	0.2976	0.249
Mof_O 	O 	0.52957	0.74598	0.28705	-0.338
Mof_F 	F 	0.5882	0.7523	0.2908	-0.292
Mof_F 	F 	0.6328	0.7284	0.3158	-0.278
Mof_F 	F 	0.5829	0.6412	0.3171	-0.289
Mof_F 	F 	0.5376	0.6655	0.2931	-0.263
Mof_C 	C 	0.5863	0.7258	0.2964	0.291
Mof_C 	C 	0.6092	0.7132	0.3099	0.248
Mof_C 	C 	0.5842	0.6689	0.3111	0.268
Mof_C 	C 	0.5613	0.6815	0.2976	0.249
Mof_O 	O 	0.52957	0.24598	0.78705	-0.338
Mof_F 	F 	0.5882	0.2523	0.7908	-0.292
Mof_F 	F 	0.6328	0.2284	0.8158	-0.278
Mof_F 	F 	0.5829	0.1412	0.8171	-0.289
Mof_F 	F 	0.5376	0.1655	0.7931	-0.263
Mof_C 	C 	0.5863	0.2258	0.7964	0.291
Mof_C 	C 	0.6092	0.2132	0.8099	0.248
Mof_C 	C 	0.5842	0.1689	0.8111	0.268
Mof_C 	C 	0.5613	0.1815	0.7976	0.249
Mof_O 	O 	0.02957	0.25402	0.21295	-0.339
Mof_F 	F 	0.0882	0.2477	0.2092	-0.292
Mof_F 	F 	0.1328	0.2716	0.1842	-0.278
Mof_F 	F 	0.0829	0.3588	0.1829	-0.289
Mof_F 	F 	0.0376	0.3345	0.2069	-0.264
Mof_C 	C 	0.0863	0.2742	0.2036	0.291
Mof_C 	C 	0.1092	0.2868	0.1901	0.248
Mof_C 	C 	0.0842	0.3311	0.1889	0.268
Mof_C 	C 	0.0613	0.3185	0.2024	0.249
Mof_O 	O 	0.02957	0.75402	0.71295	-0.338
Mof_F 	F 	0.0882	0.7477	0.7092	-0.292
Mof_F 	F 	0.1328	0.7716	0.6842	-0.278
Mof_F 	F 	0.0829	0.8588	0.6829	-0.289
Mof_F 	F 	0.0376	0.8345	0.7069	-0.264
Mof_C 	C 	0.0863	0.7742	0.7036	0.291
Mof_C 	C 	0.1092	0.7868	0.6901	0.248
Mof_C 	C 	0.0842	0.8311	0.6889	0.268
Mof_C 	C 	0.0613	0.8185	0.7024	0.249
Mof_O 	O 	0.52957	0.25402	0.71295	-0.338
Mof_F 	F 	0.5882	0.2477	0.7092	-0.292
Mof_F 	F 	0.6328	0.2716	0.6842	-0.278
Mof_F 	F 	0.5829	0.3588	0.6829	-0.289
Mof_F 	F 	0.5376	0.3345	0.7069	-0.263
Mof_C 	C 	0.5863	0.2742	0.7036	0.291
Mof_C 	C 	0.6092	0.2868	0.6901	0.248
Mof_C 	C 	0.5842	0.3311	0.6889	0.268
Mof_C 	C 	0.5613	0.3185	0.7024	0.249
Mof_O 	O 	0.52957	0.75402	0.21295	-0.338
Mof_F 	F 	0.5882	0.7477	0.2092	-0.292
Mof_F 	F 	0.6328	0.7716	0.1842	-0.278
Mof_F 	F 	0.5829	0.8588	0.1829	-0.289
Mof_F 	F 	0.5376	0.8345	0.2069	-0.263
Mof_C 	C 	0.5863	0.7742	0.2036	0.291
Mof_C 	C 	0.6092	0.7868	0.1901	0.248
Mof_C 	C 	0.5842	0.8311	0.1889	0.268
Mof_C 	C 	0.5613	0.8185	0.2024	0.249
Mof_Cu	Cu	0.22988	0.22988	-0	0.947
Mof_Cu	Cu	0.22988	0.72988	0.5	0.947
Mof_Cu	Cu	0.72988	0.22988	0.5	0.947
Mof_Cu	Cu	0.72988	0.72988	-0	0.947
Mof_Cu	Cu	0.77012	0.77012	-0	0.947
Mof_Cu	Cu	0.77012	0.27012	0.5	0.947
Mof_Cu	Cu	0.27012	0.77012	0.5	0.947
Mof_Cu	Cu	0.27012	0.27012	-0	0.947
Mof_Cu	Cu	0.77012	0.22988	-0	0.947
Mof_Cu	Cu	0.77012	0.72988	0.5	0.947
Mof_Cu	Cu	0.27012	0.22988	0.5	0.947
Mof_Cu	Cu	0.27012	0.72988	-0	0.947
Mof_Cu	Cu	0.22988	0.77012	-0	0.947
Mof_Cu	Cu	0.22988	0.27012	0.5	0.947
Mof_Cu	Cu	0.72988	0.77012	0.5	0.947
Mof_Cu	Cu	0.72988	0.27012	-0	0.947
Mof_Cu	Cu	8.61912e-34	0.22988	0.22988	0.947
Mof_Cu	Cu	1.79782e-32	0.72988	0.72988	0.947
Mof_Cu	Cu	0.5	0.22988	0.72988	0.947
Mof_Cu	Cu	0.5	0.72988	0.22988	0.947
Mof_Cu	Cu	1.81291e-32	0.77012	0.77012	0.947
Mof_Cu	Cu	4.82319e-33	0.27012	0.27012	0.947
Mof_Cu	Cu	0.5	0.77012	0.27012	0.947
Mof_Cu	Cu	0.5	0.27012	0.77012	0.947
Mof_Cu	Cu	6.57752e-33	0.77012	0.22988	0.947
Mof_Cu	Cu	1.03574e-32	0.27012	0.72988	0.947
Mof_Cu	Cu	0.5	0.77012	0.72988	0.947
Mof_Cu	Cu	0.5	0.27012	0.22988	0.947
Mof_Cu	Cu	2.88749e-33	0.22988	0.77012	0.947
Mof_Cu	Cu	1.05388e-32	0.72988	0.27012	0.947
Mof_Cu	Cu	0.5	0.22988	0.27012	0.947
Mof_Cu	Cu	0.5	0.72988	0.77012	0.947
Mof_Cu	Cu	0.22988	0	0.22988	0.947
Mof_Cu	Cu	0.22988	0.5	0.72988	0.947
Mof_Cu	Cu	0.72988	7.62081e-33	0.72988	0.947
Mof_Cu	Cu	0.72988	0.5	0.22988	0.947
Mof_Cu	Cu	0.77012	7.62081e-33	0.77012	0.947
Mof_Cu	Cu	0.77012	0.5	0.27012	0.947
Mof_Cu	Cu	0.27012	1.9052e-33	0.27012	0.947
Mof_Cu	Cu	0.27012	0.5	0.77012	0.947
Mof_Cu	Cu	0.22988	7.62081e-33	0.77012	0.947
Mof_Cu	Cu	0.22988	0.5	0.27012	0.947
Mof_Cu	Cu	0.72988	1.9052e-33	0.27012	0.947
Mof_Cu	Cu	0.72988	0.5	0.77012	0.947
Mof_Cu	Cu	0.77012	0	0.22988	0.947
Mof_Cu	Cu	0.77012	0.5	0.72988	0.947
Mof_Cu	Cu	0.27012	7.62081e-33	0.72988	0.947
Mof_Cu	Cu	0.27012	0.5	0.22988	0.947
Mof_C 	C 	0.22496	0.27504	0.0382	0.567
Mof_C 	C 	0.20972	0.29028	0.0624	-0.335
Mof_C 	C 	0.16911	0.33089	0.1333	0.664
Mof_C 	C 	0.22496	0.77504	0.5382	0.567
Mof_C 	C 	0.20972	0.79028	0.5624	-0.335
Mof_C 	C 	0.16911	0.83089	0.6333	0.664
Mof_C 	C 	0.77504	0.72496	0.0382	0.567
Mof_C 	C 	0.79028	0.70972	0.0624	-0.335
Mof_C 	C 	0.83089	0.66911	0.1333	0.664
Mof_C 	C 	0.77504	0.22496	0.5382	0.567
Mof_C 	C 	0.79028	0.20972	0.5624	-0.335
Mof_C 	C 	0.83089	0.16911	0.6333	0.664
Mof_C 	C 	0.27504	0.22496	0.0382	0.567
Mof_C 	C 	0.29028	0.20972	0.0624	-0.335
Mof_C 	C 	0.33089	0.16911	0.1333	0.664
Mof_C 	C 	0.77504	0.27504	0.9618	0.567
Mof_C 	C 	0.79028	0.29028	0.9376	-0.335
Mof_C 	C 	0.83089	0.33089	0.8667	0.664
Mof_C 	C 	0.77504	0.77504	0.4618	0.567
Mof_C 	C 	0.79028	0.79028	0.4376	-0.335
Mof_C 	C 	0.83089	0.83089	0.3667	0.664
Mof_C 	C 	0.27504	0.27504	0.4618	0.567
Mof_C 	C 	0.29028	0.29028	0.4376	-0.335
Mof_C 	C 	0.33089	0.33089	0.3667	0.664
Mof_C 	C 	0.22496	0.72496	0.9618	0.567
Mof_C 	C 	0.20972	0.70972	0.9376	-0.335
Mof_C 	C 	0.16911	0.66911	0.8667	0.664
Mof_C 	C 	0.22496	0.22496	0.4618	0.567
Mof_C 	C 	0.20972	0.20972	0.4376	-0.335
Mof_C 	C 	0.16911	0.16911	0.3667	0.664
Mof_C 	C 	0.0382	0.22496	0.27504	0.567
Mof_C 	C 	0.0624	0.20972	0.29028	-0.335
Mof_C 	C 	0.1333	0.16911	0.33089	0.664
Mof_C 	C 	0.5382	0.22496	0.77504	0.567
Mof_C 	C 	0.5624	0.20972	0.79028	-0.335
Mof_C 	C 	0.6333	0.16911	0.83089	0.664
Mof_C 	C 	0.0382	0.77504	0.72496	0.567
Mof_C 	C 	0.0624	0.79028	0.70972	-0.335
Mof_C 	C 	0.1333	0.83089	0.66911	0.664
Mof_C 	C 	0.0382	0.27504	0.22496	0.567
Mof_C 	C 	0.0624	0.29028	0.20972	-0.335
Mof_C 	C 	0.1333	0.33089	0.16911	0.664
Mof_C 	C 	0.5382	0.77504	0.22496	0.567
Mof_C 	C 	0.5624	0.79028	0.20972	-0.335
Mof_C 	C 	0.6333	0.83089	0.16911	0.664
Mof_C 	C 	0.9618	0.77504	0.27504	0.567
Mof_C 	C 	0.9376	0.79028	0.29028	-0.335
Mof_C 	C 	0.8667	0.83089	0.33089	0.664
Mof_C 	C 	0.4618	0.77504	0.77504	0.567
Mof_C 	C 	0.4376	0.79028	0.79028	-0.335
Mof_C 	C 	0.3667	0.83089	0.83089	0.664
Mof_C 	C 	0.4618	0.27504	0.27504	0.567
Mof_C 	C 	0.4376	0.29028	0.29028	-0.335
Mof_C 	C 	0.3667	0.33089	0.33089	0.664
Mof_C 	C 	0.9618	0.22496	0.72496	0.567
Mof_C 	C 	0.9376	0.20972	0.70972	-0.335
Mof_C 	C 	0.8667	0.16911	0.66911	0.664
Mof_C 	C 	0.4618	0.22496	0.22496	0.567
Mof_C 	C 	0.4376	0.20972	0.20972	-0.335
Mof_C 	C 	0.3667	0.16911	0.16911	0.664
Mof_C 	C 	0.27504	0.0382	0.22496	0.567
Mof_C 	C 	0.29028	0.0624	0.20972	-0.335
Mof_C 	C 	0.33089	0.1333	0.16911	0.664
Mof_C 	C 	0.27504	0.5382	0.72496	0.567
Mof_C 	C 	0.29028	0.5624	0.70972	-0.335
Mof_C 	C 	0.33089	0.6333	0.66911	0.664
Mof_C 	C 	0.72496	0.0382	0.77504	0.567
Mof_C 	C 	0.70972	0.0624	0.79028	-0.335
Mof_C 	C 	0.66911	0.1333	0.83089	0.664
Mof_C 	C 	0.72496	0.5382	0.27504	0.567
Mof_C 	C 	0.70972	0.5624	0.29028	-0.335
Mof_C 	C 	0.66911	0.6333	0.33089	0.664
Mof_C 	C 	0.22496	0.0382	0.27504	0.567
Mof_C 	C 	0.20972	0.0624	0.29028	-0.335
Mof_C 	C 	0.16911	0.1333	0.33089	0.664
Mof_C 	C 	0.27504	0.9618	0.77504	0.567
Mof_C 	C 	0.29028	0.9376	0.79028	-0.335
Mof_C 	C 	0.33089	0.8667	0.83089	0.664
Mof_C 	C 	0.27504	0.4618	0.27504	0.567
Mof_C 	C 	0.29028	0.4376	0.29028	-0.335
Mof_C 	C 	0.33089	0.3667	0.33089	0.664
Mof_C 	C 	0.72496	0.9618	0.22496	0.567
Mof_C 	C 	0.70972	0.9376	0.20972	-0.335
Mof_C 	C 	0.66911	0.8667	0.16911	0.664
Mof_C 	C 	0.72496	0.4618	0.72496	0.567
Mof_C 	C 	0.70972	0.4376	0.70972	-0.335
Mof_C 	C 	0.66911	0.3667	0.66911	0.664
Mof_C 	C 	0.22496	0.4618	0.22496	0.567
Mof_C 	C 	0.20972	0.4376	0.20972	-0.335
Mof_C 	C 	0.16911	0.3667	0.16911	0.664
Mof_C 	C 	0.27504	0.22496	0.9618	0.567
Mof_C 	C 	0.29028	0.20972	0.9376	-0.335
Mof_C 	C 	0.33089	0.16911	0.8667	0.664
Mof_C 	C 	0.27504	0.72496	0.4618	0.567
Mof_C 	C 	0.29028	0.70972	0.4376	-0.335
Mof_C 	C 	0.33089	0.66911	0.3667	0.664
Mof_C 	C 	0.72496	0.77504	0.9618	0.567
Mof_C 	C 	0.70972	0.79028	0.9376	-0.335
Mof_C 	C 	0.66911	0.83089	0.8667	0.664
Mof_C 	C 	0.72496	0.27504	0.4618	0.567
Mof_C 	C 	0.70972	0.29028	0.4376	-0.335
Mof_C 	C 	0.66911	0.33089	0.3667	0.664
Mof_C 	C 	0.22496	0.27504	0.9618	0.567
Mof_C 	C 	0.20972	0.29028	0.9376	-0.335
Mof_C 	C 	0.16911	0.33089	0.8667	0.664
Mof_C 	C 	0.27504	0.77504	0.0382	0.567
Mof_C 	C 	0.29028	0.79028	0.0624	-0.335
Mof_C 	C 	0.33089	0.83089	0.1333	0.664
Mof_C 	C 	0.27504	0.27504	0.5382	0.567
Mof_C 	C 	0.29028	0.29028	0.5624	-0.335
Mof_C 	C 	0.33089	0.33089	0.6333	0.664
Mof_C 	C 	0.72496	0.22496	0.0382	0.567
Mof_C 	C 	0.70972	0.20972	0.0624	-0.335
Mof_C 	C 	0.66911	0.16911	0.1333	0.664
Mof_C 	C 	0.72496	0.72496	0.5382	0.567
Mof_C 	C 	0.70972	0.70972	0.5624	-0.335
Mof_C 	C 	0.66911	0.66911	0.6333	0.664
Mof_C 	C 	0.22496	0.22496	0.5382	0.567
Mof_C 	C 	0.20972	0.20972	0.5624	-0.335
Mof_C 	C 	0.16911	0.16911	0.6333	0.664
Mof_C 	C 	0.22496	0.0382	0.72496	0.567
Mof_C 	C 	0.20972	0.0624	0.70972	-0.335
Mof_C 	C 	0.16911	0.1333	0.66911	0.664
Mof_C 	C 	0.22496	0.5382	0.22496	0.567
Mof_C 	C 	0.20972	0.5624	0.20972	-0.335
Mof_C 	C 	0.16911	0.6333	0.16911	0.664
Mof_C 	C 	0.77504	0.0382	0.27504	0.567
Mof_C 	C 	0.79028	0.0624	0.29028	-0.335
Mof_C 	C 	0.83089	0.1333	0.33089	0.664
Mof_C 	C 	0.77504	0.5382	0.77504	0.567
Mof_C 	C 	0.79028	0.5624	0.79028	-0.335
Mof_C 	C 	0.83089	0.6333	0.83089	0.664
Mof_C 	C 	0.27504	0.5382	0.27504	0.567
Mof_C 	C 	0.29028	0.5624	0.29028	-0.335
Mof_C 	C 	0.33089	0.6333	0.33089	0.664
Mof_C 	C 	0.77504	0.9618	0.72496	0.567
Mof_C 	C 	0.79028	0.9376	0.70972	-0.335
Mof_C 	C 	0.83089	0.8667	0.66911	0.664
Mof_C 	C 	0.77504	0.4618	0.22496	0.567
Mof_C 	C 	0.79028	0.4376	0.20972	-0.335
Mof_C 	C 	0.83089	0.3667	0.16911	0.664
Mof_C 	C 	0.27504	0.9618	0.22496	0.567
Mof_C 	C 	0.29028	0.9376	0.20972	-0.335
Mof_C 	C 	0.33089	0.8667	0.16911	0.664
Mof_C 	C 	0.22496	0.9618	0.27504	0.567
Mof_C 	C 	0.20972	0.9376	0.29028	-0.335
Mof_C 	C 	0.16911	0.8667	0.33089	0.664
Mof_C 	C 	0.22496	0.4618	0.77504	0.567
Mof_C 	C 	0.20972	0.4376	0.79028	-0.335
Mof_C 	C 	0.16911	0.3667	0.83089	0.664
Mof_C 	C 	0.0382	0.27504	0.77504	0.567
Mof_C 	C 	0.0624	0.29028	0.79028	-0.335
Mof_C 	C 	0.1333	0.33089	0.83089	0.664
Mof_C 	C 	0.5382	0.27504	0.27504	0.567
Mof_C 	C 	0.5624	0.29028	0.29028	-0.335
Mof_C 	C 	0.6333	0.33089	0.33089	0.664
Mof_C 	C 	0.0382	0.72496	0.22496	0.567
Mof_C 	C 	0.0624	0.70972	0.20972	-0.335
Mof_C 	C 	0.1333	0.66911	0.16911	0.664
Mof_C 	C 	0.5382	0.72496	0.72496	0.567
Mof_C 	C 	0.5624	0.70972	0.70972	-0.335
Mof_C 	C 	0.6333	0.66911	0.66911	0.664
Mof_C 	C 	0.5382	0.22496	0.22496	0.567
Mof_C 	C 	0.5624	0.20972	0.20972	-0.335
Mof_C 	C 	0.6333	0.16911	0.16911	0.664
Mof_C 	C 	0.9618	0.27504	0.22496	0.567
Mof_C 	C 	0.9376	0.29028	0.20972	-0.335
Mof_C 	C 	0.8667	0.33089	0.16911	0.664
Mof_C 	C 	0.4618	0.27504	0.72496	0.567
Mof_C 	C 	0.4376	0.29028	0.70972	-0.335
Mof_C 	C 	0.3667	0.33089	0.66911	0.664
Mof_C 	C 	0.9618	0.72496	0.77504	0.567
Mof_C 	C 	0.9376	0.70972	0.79028	-0.335
Mof_C 	C 	0.8667	0.66911	0.83089	0.664
Mof_C 	C 	0.9618	0.22496	0.27504	0.567
Mof_C 	C 	0.9376	0.20972	0.29028	-0.335
Mof_C 	C 	0.8667	0.16911	0.33089	0.664
Mof_C 	C 	0.4618	0.72496	0.27504	0.567
Mof_C 	C 	0.4376	0.70972	0.29028	-0.335
Mof_C 	C 	0.3667	0.66911	0.33089	0.664
Mof_C 	C 	0.77504	0.72496	0.9618	0.567
Mof_C 	C 	0.79028	0.70972	0.9376	-0.335
Mof_C 	C 	0.83089	0.66911	0.8667	0.664
Mof_C 	C 	0.77504	0.22496	0.4618	0.567
Mof_C 	C 	0.79028	0.20972	0.4376	-0.335
Mof_C 	C 	0.83089	0.16911	0.3667	0.664
Mof_C 	C 	0.22496	0.77504	0.4618	0.567
Mof_C 	C 	0.20972	0.79028	0.4376	-0.335
Mof_C 	C 	0.16911	0.83089	0.3667	0.664
Mof_C 	C 	0.22496	0.72496	0.0382	0.567
Mof_C 	C 	0.20972	0.70972	0.0624	-0.335
Mof_C 	C 	0.16911	0.66911	0.1333	0.664
Mof_C 	C 	0.77504	0.27504	0.0382	0.567
Mof_C 	C 	0.79028	0.29028	0.0624	-0.335
Mof_C 	C 	0.83089	0.33089	0.1333	0.664
Mof_C 	C 	0.77504	0.77504	0.5382	0.567
Mof_C 	C 	0.79028	0.79028	0.5624	-0.335
Mof_C 	C 	0.83089	0.83089	0.6333	0.664
Mof_C 	C 	0.9618	0.77504	0.72496	0.567
Mof_C 	C 	0.9376	0.79028	0.70972	-0.335
Mof_C 	C 	0.8667	0.83089	0.66911	0.664
Mof_C 	C 	0.4618	0.77504	0.22496	0.567
Mof_C 	C 	0.4376	0.79028	0.20972	-0.335
Mof_C 	C 	0.3667	0.83089	0.16911	0.664
Mof_C 	C 	0.4618	0.22496	0.77504	0.567
Mof_C 	C 	0.4376	0.20972	0.79028	-0.335
Mof_C 	C 	0.3667	0.16911	0.83089	0.664
Mof_C 	C 	0.0382	0.22496	0.72496	0.567
Mof_C 	C 	0.0624	0.20972	0.70972	-0.335
Mof_C 	C 	0.1333	0.16911	0.66911	0.664
Mof_C 	C 	0.0382	0.77504	0.27504	0.567
Mof_C 	C 	0.0624	0.79028	0.29028	-0.335
Mof_C 	C 	0.1333	0.83089	0.33089	0.664
Mof_C 	C 	0.5382	0.77504	0.77504	0.567
Mof_C 	C 	0.5624	0.79028	0.79028	-0.335
Mof_C 	C 	0.6333	0.83089	0.83089	0.664
Mof_C 	C 	0.72496	0.9618	0.77504	0.567
Mof_C 	C 	0.70972	0.9376	0.79028	-0.335
Mof_C 	C 	0.66911	0.8667	0.83089	0.664
Mof_C 	C 	0.72496	0.4618	0.27504	0.567
Mof_C 	C 	0.70972	0.4376	0.29028	-0.335
Mof_C 	C 	0.66911	0.3667	0.33089	0.664
Mof_C 	C 	0.27504	0.4618	0.72496	0.567
Mof_C 	C 	0.29028	0.4376	0.70972	-0.335
Mof_C 	C 	0.33089	0.3667	0.66911	0.664
Mof_C 	C 	0.72496	0.0382	0.22496	0.567
Mof_C 	C 	0.70972	0.0624	0.20972	-0.335
Mof_C 	C 	0.66911	0.1333	0.16911	0.664
Mof_C 	C 	0.72496	0.5382	0.72496	0.567
Mof_C 	C 	0.70972	0.5624	0.70972	-0.335
Mof_C 	C 	0.66911	0.6333	0.66911	0.664
Mof_C 	C 	0.27504	0.0382	0.77504	0.567
Mof_C 	C 	0.29028	0.0624	0.79028	-0.335
Mof_C 	C 	0.33089	0.1333	0.83089	0.664
Mof_C 	C 	0.72496	0.77504	0.0382	0.567
Mof_C 	C 	0.70972	0.79028	0.0624	-0.335
Mof_C 	C 	0.66911	0.83089	0.1333	0.664
Mof_C 	C 	0.72496	0.27504	0.5382	0.567
Mof_C 	C 	0.70972	0.29028	0.5624	-0.335
Mof_C 	C 	0.66911	0.33089	0.6333	0.664
Mof_C 	C 	0.27504	0.72496	0.5382	0.567
Mof_C 	C 	0.29028	0.70972	0.5624	-0.335
Mof_C 	C 	0.33089	0.66911	0.6333	0.664
Mof_C 	C 	0.72496	0.22496	0.9618	0.567
Mof_C 	C 	0.70972	0.20972	0.9376	-0.335
Mof_C 	C 	0.66911	0.16911	0.8667	0.664
Mof_C 	C 	0.72496	0.72496	0.4618	0.567
Mof_C 	C 	0.70972	0.70972	0.4376	-0.335
Mof_C 	C 	0.66911	0.66911	0.3667	0.664
Mof_C 	C 	0.27504	0.77504	0.9618	0.567
Mof_C 	C 	0.29028	0.79028	0.9376	-0.335
Mof_C 	C 	0.33089	0.83089	0.8667	0.664
Mof_C 	C 	0.77504	0.9618	0.27504	0.567
Mof_C 	C 	0.79028	0.9376	0.29028	-0.335
Mof_C 	C 	0.83089	0.8667	0.33089	0.664
Mof_C 	C 	0.77504	0.4618	0.77504	0.567
Mof_C 	C 	0.79028	0.4376	0.79028	-0.335
Mof_C 	C 	0.83089	0.3667	0.83089	0.664
Mof_C 	C 	0.22496	0.9618	0.72496	0.567
Mof_C 	C 	0.20972	0.9376	0.70972	-0.335
Mof_C 	C 	0.16911	0.8667	0.66911	0.664
Mof_C 	C 	0.22496	0.5382	0.77504	0.567
Mof_C 	C 	0.20972	0.5624	0.79028	-0.335
Mof_C 	C 	0.16911	0.6333	0.83089	0.664
Mof_C 	C 	0.77504	0.0382	0.72496	0.567
Mof_C 	C 	0.79028	0.0624	0.70972	-0.335
Mof_C 	C 	0.83089	0.1333	0.66911	0.664
Mof_C 	C 	0.77504	0.5382	0.22496	0.567
Mof_C 	C 	0.79028	0.5624	0.20972	-0.335
Mof_C 	C 	0.83089	0.6333	0.16911	0.664
Mof_C 	C 	0.9618	0.72496	0.22496	0.567
Mof_C 	C 	0.9376	0.70972	0.20972	-0.335
Mof_C 	C 	0.8667	0.66911	0.16911	0.664
Mof_C 	C 	0.4618	0.72496	0.72496	0.567
Mof_C 	C 	0.4376	0.70972	0.70972	-0.335
Mof_C 	C 	0.3667	0.66911	0.66911	0.664
Mof_C 	C 	0.9618	0.27504	0.77504	0.567
Mof_C 	C 	0.9376	0.29028	0.79028	-0.335
Mof_C 	C 	0.8667	0.33089	0.83089	0.664
Mof_C 	C 	0.0382	0.72496	0.77504	0.567
Mof_C 	C 	0.0624	0.70972	0.79028	-0.335
Mof_C 	C 	0.1333	0.66911	0.83089	0.664
Mof_C 	C 	0.5382	0.72496	0.27504	0.567
Mof_C 	C 	0.5624	0.70972	0.29028	-0.335
Mof_C 	C 	0.6333	0.66911	0.33089	0.664
Mof_C 	C 	0.5382	0.27504	0.72496	0.567
Mof_C 	C 	0.5624	0.29028	0.70972	-0.335
Mof_C 	C 	0.6333	0.33089	0.66911	0.664
Mof_C 	C 	0.14548	0.3194	0.14548	-0.564
Mof_H 	H 	0.1375	0.3033	0.1375	0.378
Mof_C 	C 	0.14548	0.8194	0.64548	-0.564
Mof_H 	H 	0.1375	0.8033	0.6375	0.378
Mof_C 	C 	0.64548	0.3194	0.64548	-0.564
Mof_H 	H 	0.6375	0.3033	0.6375	0.378
Mof_C 	C 	0.64548	0.8194	0.14548	-0.564
Mof_H 	H 	0.6375	0.8033	0.1375	0.378
Mof_C 	C 	0.85452	0.6806	0.14548	-0.564
Mof_H 	H 	0.8625	0.6967	0.1375	0.378
Mof_C 	C 	0.85452	0.1806	0.64548	-0.564
Mof_H 	H 	0.8625	0.1967	0.6375	0.378
Mof_C 	C 	0.35452	0.6806	0.64548	-0.564
Mof_H 	H 	0.3625	0.6967	0.6375	0.378
Mof_C 	C 	0.35452	0.1806	0.14548	-0.564
Mof_H 	H 	0.3625	0.1967	0.1375	0.378
Mof_C 	C 	0.85452	0.3194	0.85452	-0.564
Mof_H 	H 	0.8625	0.3033	0.8625	0.378
Mof_C 	C 	0.85452	0.8194	0.35452	-0.564
Mof_H 	H 	0.8625	0.8033	0.3625	0.378
Mof_C 	C 	0.35452	0.3194	0.35452	-0.564
Mof_H 	H 	0.3625	0.3033	0.3625	0.378
Mof_C 	C 	0.35452	0.8194	0.85452	-0.564
Mof_H 	H 	0.3625	0.8033	0.8625	0.378
Mof_C 	C 	0.14548	0.6806	0.85452	-0.564
Mof_H 	H 	0.1375	0.6967	0.8625	0.378
Mof_C 	C 	0.14548	0.1806	0.35452	-0.564
Mof_H 	H 	0.1375	0.1967	0.3625	0.378
Mof_C 	C 	0.64548	0.6806	0.35452	-0.564
Mof_H 	H 	0.6375	0.6967	0.3625	0.378
Mof_C 	C 	0.64548	0.1806	0.85452	-0.564
Mof_H 	H 	0.6375	0.1967	0.8625	0.378
Mof_C 	C 	0.14548	0.14548	0.3194	-0.564
Mof_H 	H 	0.1375	0.1375	0.3033	0.378
Mof_C 	C 	0.14548	0.64548	0.8194	-0.564
Mof_H 	H 	0.1375	0.6375	0.8033	0.378
Mof_C 	C 	0.64548	0.14548	0.8194	-0.564
Mof_H 	H 	0.6375	0.1375	0.8033	0.378
Mof_C 	C 	0.64548	0.64548	0.3194	-0.564
Mof_H 	H 	0.6375	0.6375	0.3033	0.378
Mof_C 	C 	0.14548	0.85452	0.6806	-0.564
Mof_H 	H 	0.1375	0.8625	0.6967	0.378
Mof_C 	C 	0.14548	0.35452	0.1806	-0.564
Mof_H 	H 	0.1375	0.3625	0.1967	0.378
Mof_C 	C 	0.64548	0.85452	0.1806	-0.564
Mof_H 	H 	0.6375	0.8625	0.1967	0.378
Mof_C 	C 	0.64548	0.35452	0.6806	-0.564
Mof_H 	H 	0.6375	0.3625	0.6967	0.378
Mof_C 	C 	0.85452	0.85452	0.3194	-0.564
Mof_H 	H 	0.8625	0.8625	0.3033	0.378
Mof_C 	C 	0.85452	0.35452	0.8194	-0.564
Mof_H 	H 	0.8625	0.3625	0.8033	0.378
Mof_C 	C 	0.35452	0.85452	0.8194	-0.564
Mof_H 	H 	0.3625	0.8625	0.8033	0.378
Mof_C 	C 	0.35452	0.35452	0.3194	-0.564
Mof_H 	H 	0.3625	0.3625	0.3033	0.378
Mof_C 	C 	0.85452	0.14548	0.6806	-0.564
Mof_H 	H 	0.8625	0.1375	0.6967	0.378
Mof_C 	C 	0.85452	0.64548	0.1806	-0.564
Mof_H 	H 	0.8625	0.6375	0.1967	0.378
Mof_C 	C 	0.35452	0.14548	0.1806	-0.564
Mof_H 	H 	0.3625	0.1375	0.1967	0.378
Mof_C 	C 	0.35452	0.64548	0.6806	-0.564
Mof_H 	H 	0.3625	0.6375	0.6967	0.378
Mof_C 	C 	0.3194	0.14548	0.14548	-0.564
Mof_H 	H 	0.3033	0.1375	0.1375	0.378
Mof_C 	C 	0.3194	0.64548	0.64548	-0.564
Mof_H 	H 	0.3033	0.6375	0.6375	0.378
Mof_C 	C 	0.8194	0.14548	0.64548	-0.564
Mof_H 	H 	0.8033	0.1375	0.6375	0.378
Mof_C 	C 	0.8194	0.64548	0.14548	-0.564
Mof_H 	H 	0.8033	0.6375	0.1375	0.378
Mof_C 	C 	0.6806	0.14548	0.85452	-0.564
Mof_H 	H 	0.6967	0.1375	0.8625	0.378
Mof_C 	C 	0.6806	0.64548	0.35452	-0.564
Mof_H 	H 	0.6967	0.6375	0.3625	0.378
Mof_C 	C 	0.1806	0.14548	0.35452	-0.564
Mof_H 	H 	0.1967	0.1375	0.3625	0.378
Mof_C 	C 	0.1806	0.64548	0.85452	-0.564
Mof_H 	H 	0.1967	0.6375	0.8625	0.378
Mof_C 	C 	0.3194	0.85452	0.85452	-0.564
Mof_H 	H 	0.3033	0.8625	0.8625	0.378
Mof_C 	C 	0.3194	0.35452	0.35452	-0.564
Mof_H 	H 	0.3033	0.3625	0.3625	0.378
Mof_C 	C 	0.8194	0.85452	0.35452	-0.564
Mof_H 	H 	0.8033	0.8625	0.3625	0.378
Mof_C 	C 	0.8194	0.35452	0.85452	-0.564
Mof_H 	H 	0.8033	0.3625	0.8625	0.378
Mof_C 	C 	0.6806	0.85452	0.14548	-0.564
Mof_H 	H 	0.6967	0.8625	0.1375	0.378
Mof_C 	C 	0.6806	0.35452	0.64548	-0.564
Mof_H 	H 	0.6967	0.3625	0.6375	0.378
Mof_C 	C 	0.1806	0.85452	0.64548	-0.564
Mof_H 	H 	0.1967	0.8625	0.6375	0.378
Mof_C 	C 	0.1806	0.35452	0.14548	-0.564
Mof_H 	H 	0.1967	0.3625	0.1375	0.378
Mof_C 	C 	0.3194	0.14548	0.85452	-0.564
Mof_H 	H 	0.3033	0.1375	0.8625	0.378
Mof_C 	C 	0.3194	0.64548	0.35452	-0.564
Mof_H 	H 	0.3033	0.6375	0.3625	0.378
Mof_C 	C 	0.8194	0.14548	0.35452	-0.564
Mof_H 	H 	0.8033	0.1375	0.3625	0.378
Mof_C 	C 	0.8194	0.64548	0.85452	-0.564
Mof_H 	H 	0.8033	0.6375	0.8625	0.378
Mof_C 	C 	0.6806	0.85452	0.85452	-0.564
Mof_H 	H 	0.6967	0.8625	0.8625	0.378
Mof_C 	C 	0.6806	0.35452	0.35452	-0.564
Mof_H 	H 	0.6967	0.3625	0.3625	0.378
Mof_C 	C 	0.1806	0.85452	0.35452	-0.564
Mof_H 	H 	0.1967	0.8625	0.3625	0.378
Mof_C 	C 	0.1806	0.35452	0.85452	-0.564
Mof_H 	H 	0.1967	0.3625	0.8625	0.378
Mof_C 	C 	0.3194	0.85452	0.14548	-0.564
Mof_H 	H 	0.3033	0.8625	0.1375	0.378
Mof_C 	C 	0.3194	0.35452	0.64548	-0.564
Mof_H 	H 	0.3033	0.3625	0.6375	0.378
Mof_C 	C 	0.8194	0.85452	0.64548	-0.564
Mof_H 	H 	0.8033	0.8625	0.6375	0.378
Mof_C 	C 	0.8194	0.35452	0.14548	-0.564
Mof_H 	H 	0.8033	0.3625	0.1375	0.378
Mof_C 	C 	0.6806	0.14548	0.14548	-0.564
Mof_H 	H 	0.6967	0.1375	0.1375	0.378
Mof_C 	C 	0.6806	0.64548	0.64548	-0.564
Mof_H 	H 	0.6967	0.6375	0.6375	0.378
Mof_C 	C 	0.1806	0.14548	0.64548	-0.564
Mof_H 	H 	0.1967	0.1375	0.6375	0.378
Mof_C 	C 	0.1806	0.64548	0.14548	-0.564
Mof_H 	H 	0.1967	0.6375	0.1375	0.378
Mof_C 	C 	0.14548	0.14548	0.6806	-0.564
Mof_H 	H 	0.1375	0.1375	0.6967	0.378
Mof_C 	C 	0.14548	0.64548	0.1806	-0.564
Mof_H 	H 	0.1375	0.6375	0.1967	0.378
Mof_C 	C 	0.64548	0.14548	0.1806	-0.564
Mof_H 	H 	0.6375	0.1375	0.1967	0.378
Mof_C 	C 	0.64548	0.64548	0.6806	-0.564
Mof_H 	H 	0.6375	0.6375	0.6967	0.378
Mof_C 	C 	0.85452	0.14548	0.3194	-0.564
Mof_H 	H 	0.8625	0.1375	0.3033	0.378
Mof_C 	C 	0.85452	0.64548	0.8194	-0.564
Mof_H 	H 	0.8625	0.6375	0.8033	0.378
Mof_C 	C 	0.35452	0.14548	0.8194	-0.564
Mof_H 	H 	0.3625	0.1375	0.8033	0.378
Mof_C 	C 	0.35452	0.64548	0.3194	-0.564
Mof_H 	H 	0.3625	0.6375	0.3033	0.378
Mof_C 	C 	0.85452	0.85452	0.6806	-0.564
Mof_H 	H 	0.8625	0.8625	0.6967	0.378
Mof_C 	C 	0.85452	0.35452	0.1806	-0.564
Mof_H 	H 	0.8625	0.3625	0.1967	0.378
Mof_C 	C 	0.35452	0.85452	0.1806	-0.564
Mof_H 	H 	0.3625	0.8625	0.1967	0.378
Mof_C 	C 	0.35452	0.35452	0.6806	-0.564
Mof_H 	H 	0.3625	0.3625	0.6967	0.378
Mof_C 	C 	0.14548	0.85452	0.3194	-0.564
Mof_H 	H 	0.1375	0.8625	0.3033	0.378
Mof_C 	C 	0.14548	0.35452	0.8194	-0.564
Mof_H 	H 	0.1375	0.3625	0.8033	0.378
Mof_C 	C 	0.64548	0.85452	0.8194	-0.564
Mof_H 	H 	0.6375	0.8625	0.8033	0.378
Mof_C 	C 	0.64548	0.35452	0.3194	-0.564
Mof_H 	H 	0.6375	0.3625	0.3033	0.378
Mof_C 	C 	0.14548	0.3194	0.85452	-0.564
Mof_H 	H 	0.1375	0.3033	0.8625	0.378
Mof_C 	C 	0.14548	0.8194	0.35452	-0.564
Mof_H 	H 	0.1375	0.8033	0.3625	0.378
Mof_C 	C 	0.64548	0.3194	0.35452	-0.564
Mof_H 	H 	0.6375	0.3033	0.3625	0.378
Mof_C 	C 	0.64548	0.8194	0.85452	-0.564
Mof_H 	H 	0.6375	0.8033	0.8625	0.378
Mof_C 	C 	0.14548	0.6806	0.14548	-0.564
Mof_H 	H 	0.1375	0.6967	0.1375	0.378
Mof_C 	C 	0.14548	0.1806	0.64548	-0.564
Mof_H 	H 	0.1375	0.1967	0.6375	0.378
Mof_C 	C 	0.64548	0.6806	0.64548	-0.564
Mof_H 	H 	0.6375	0.6967	0.6375	0.378
Mof_C 	C 	0.64548	0.1806	0.14548	-0.564
Mof_H 	H 	0.6375	0.1967	0.1375	0.378
Mof_C 	C 	0.85452	0.3194	0.14548	-0.564
Mof_H 	H 	0.8625	0.3033	0.1375	0.378
Mof_C 	C 	0.85452	0.8194	0.64548	-0.564
Mof_H 	H 	0.8625	0.8033	0.6375	0.378
Mof_C 	C 	0.35452	0.3194	0.64548	-0.564
Mof_H 	H 	0.3625	0.3033	0.6375	0.378
Mof_C 	C 	0.35452	0.8194	0.14548	-0.564
Mof_H 	H 	0.3625	0.8033	0.1375	0.378
Mof_C 	C 	0.85452	0.6806	0.85452	-0.564
Mof_H 	H 	0.8625	0.6967	0.8625	0.378
Mof_C 	C 	0.85452	0.1806	0.35452	-0.564
Mof_H 	H 	0.8625	0.1967	0.3625	0.378
Mof_C 	C 	0.35452	0.6806	0.35452	-0.564
Mof_H 	H 	0.3625	0.6967	0.3625	0.378
Mof_C 	C 	0.35452	0.1806	0.85452	-0.564
Mof_H 	H 	0.3625	0.1967	0.8625	0.378
_end
