data_functionalizedCrystal
_audit_creation_method	'EQeq! by Chris Wilmer'
_symmetry_space_group_name_H-M	'P1'
_symmetry_Int_Tables_number	1
_symmetry_cell_setting	triclinic
loop_
_symmetry_equiv_pos_as_xyz
  x,y,z
_cell_length_a	14.3807
_cell_length_b	14.3807
_cell_length_c	14.3552
_cell_angle_alpha	90
_cell_angle_beta	90
_cell_angle_gamma	120
loop_
_atom_site_label
_atom_site_type_symbol
_atom_site_fract_x
_atom_site_fract_y
_atom_site_fract_z
_atom_site_charge
Mof_Zn	Zn	0.58507	0.25785	0.83541	1.217
Mof_P 	P 	0.5327	0.22012	0.6195	0.445
Mof_P 	P 	0.36435	0.2087	0.75924	0.422
Mof_O 	O 	0.4649	0.1036	0.5932	-0.458
Mof_O 	O 	0.6028	0.2372	0.7036	-0.482
Mof_O 	O 	0.4481	0.2516	0.8368	-0.431
Mof_O 	O 	0.2836	0.2428	0.7719	-0.222
Mof_O 	O 	0.3134	0.0883	0.7471	-0.459
Mof_C 	C 	0.4399	0.2709	0.6507	-0.042
Mof_O 	O 	0.3672	0.2479	0.5739	-0.337
Mof_H 	H 	0.306	0.2239	0.5938	0.22
Mof_C 	C 	0.5068	0.3921	0.6582	-0.043
Mof_H 	H 	0.561	0.4092	0.7057	0.037
Mof_H 	H 	0.544	0.4195	0.5995	0.066
Mof_N 	N 	0.4502	0.449	0.6801	-0.107
Mof_C 	C 	0.4686	0.5109	0.7558	0.107
Mof_H 	H 	0.5165	0.5204	0.8033	-0.005
Mof_C 	C 	0.3752	0.4522	0.6266	0.007
Mof_H 	H 	0.3469	0.4154	0.5711	0.065
Mof_C 	C 	0.3489	0.521	0.6705	0.007
Mof_H 	H 	0.3	0.5407	0.6494	0.019
Mof_N 	N 	0.4087	0.5557	0.7525	-0.268
Mof_O 	O 	0.5955	0.2857	0.5372	-0.433
Mof_Zn	Zn	0.74215	0.32722	0.50208	1.219
Mof_P 	P 	0.77988	0.31258	0.28617	0.445
Mof_P 	P 	0.7913	0.15565	0.42591	0.421
Mof_O 	O 	0.8964	0.3613	0.25987	-0.416
Mof_O 	O 	0.7628	0.3656	0.37027	-0.475
Mof_O 	O 	0.7484	0.1965	0.50347	-0.432
Mof_O 	O 	0.7572	0.0408	0.43857	-0.222
Mof_O 	O 	0.9117	0.2251	0.41377	-0.42
Mof_C 	C 	0.7291	0.169	0.31737	-0.044
Mof_O 	O 	0.7521	0.1193	0.24057	-0.339
Mof_H 	H 	0.7761	0.0821	0.26047	0.224
Mof_C 	C 	0.6079	0.1147	0.32487	-0.031
Mof_H 	H 	0.5908	0.1518	0.37237	0.025
Mof_H 	H 	0.5805	0.1245	0.26617	0.051
Mof_N 	N 	0.551	0.0012	0.34677	-0.159
Mof_C 	C 	0.4891	0.9577	0.42247	0.156
Mof_H 	H 	0.4796	0.9961	0.46997	-0.005
Mof_C 	C 	0.5478	0.923	0.29327	0.066
Mof_H 	H 	0.5846	0.9315	0.23777	0.059
Mof_C 	C 	0.479	0.8279	0.33717	-0.011
Mof_H 	H 	0.4593	0.7593	0.31607	0.03
Mof_N 	N 	0.4443	0.853	0.41917	-0.269
Mof_O 	O 	0.7143	0.3098	0.20387	-0.431
Mof_Zn	Zn	0.67278	0.41493	0.16874	1.217
Mof_P 	P 	0.68742	0.4673	0.95283	0.466
Mof_P 	P 	0.84435	0.63565	0.09257	0.411
Mof_O 	O 	0.6387	0.5351	0.92653	-0.433
Mof_O 	O 	0.6344	0.3972	0.03693	-0.502
Mof_O 	O 	0.8035	0.5519	0.17013	-0.421
Mof_O 	O 	0.9592	0.7164	0.10523	-0.189
Mof_O 	O 	0.7749	0.6866	0.08043	-0.438
Mof_C 	C 	0.831	0.5601	0.98403	-0.035
Mof_O 	O 	0.8807	0.6328	0.90723	-0.33
Mof_H 	H 	0.9179	0.694	0.92713	0.247
Mof_C 	C 	0.8853	0.4932	0.99153	0.024
Mof_H 	H 	0.8482	0.439	0.03903	0.009
Mof_H 	H 	0.8755	0.456	0.93283	0.056
Mof_N 	N 	0.9988	0.5498	0.01343	-0.096
Mof_C 	C 	0.0423	0.5314	0.08913	0.05
Mof_H 	H 	0.0039	0.4835	0.13663	-0.011
Mof_C 	C 	0.077	0.6248	0.95993	0.058
Mof_H 	H 	0.0685	0.6531	0.90443	0.038
Mof_C 	C 	0.1721	0.6511	0.00383	-0.099
Mof_H 	H 	0.2407	0.7	0.98273	0.075
Mof_N 	N 	0.147	0.5913	0.08583	-0.252
Mof_O 	O 	0.6902	0.4045	0.87053	-0.431
Mof_Zn	Zn	0.25785	0.58507	0.16459	1.215
Mof_P 	P 	0.22012	0.5327	0.3805	0.446
Mof_P 	P 	0.2087	0.36435	0.24076	0.422
Mof_O 	O 	0.1036	0.4649	0.4068	-0.46
Mof_O 	O 	0.2372	0.6028	0.2964	-0.485
Mof_O 	O 	0.2516	0.4481	0.1632	-0.44
Mof_O 	O 	0.2428	0.2836	0.2281	-0.229
Mof_O 	O 	0.0883	0.3134	0.2529	-0.464
Mof_C 	C 	0.2709	0.4399	0.3493	-0.043
Mof_O 	O 	0.2479	0.3672	0.4261	-0.337
Mof_H 	H 	0.2239	0.306	0.4062	0.219
Mof_C 	C 	0.3921	0.5068	0.3418	-0.043
Mof_H 	H 	0.4092	0.561	0.2943	0.037
Mof_H 	H 	0.4195	0.544	0.4005	0.066
Mof_N 	N 	0.449	0.4502	0.3199	-0.108
Mof_C 	C 	0.5109	0.4686	0.2442	0.105
Mof_H 	H 	0.5204	0.5165	0.1967	-0.008
Mof_C 	C 	0.4522	0.3752	0.3734	0.007
Mof_H 	H 	0.4154	0.3469	0.4289	0.065
Mof_C 	C 	0.521	0.3489	0.3295	0.006
Mof_H 	H 	0.5407	0.3	0.3506	0.019
Mof_N 	N 	0.5557	0.4087	0.2475	-0.269
Mof_O 	O 	0.2857	0.5955	0.4628	-0.433
Mof_Zn	Zn	0.32722	0.74215	0.49792	1.218
Mof_P 	P 	0.31258	0.77988	0.71383	0.446
Mof_P 	P 	0.15565	0.7913	0.57409	0.421
Mof_O 	O 	0.3613	0.8964	0.74013	-0.418
Mof_O 	O 	0.3656	0.7628	0.62973	-0.475
Mof_O 	O 	0.1965	0.7484	0.49653	-0.434
Mof_O 	O 	0.0408	0.7572	0.56143	-0.226
Mof_O 	O 	0.2251	0.9117	0.58623	-0.423
Mof_C 	C 	0.169	0.7291	0.68263	-0.046
Mof_O 	O 	0.1193	0.7521	0.75943	-0.334
Mof_H 	H 	0.0821	0.7761	0.73953	0.222
Mof_C 	C 	0.1147	0.6079	0.67513	-0.03
Mof_H 	H 	0.1518	0.5908	0.62763	0.025
Mof_H 	H 	0.1245	0.5805	0.73383	0.053
Mof_N 	N 	0.0012	0.551	0.65323	-0.166
Mof_C 	C 	0.9577	0.4891	0.57753	0.164
Mof_H 	H 	0.9961	0.4796	0.53003	-0.005
Mof_C 	C 	0.923	0.5478	0.70673	0.076
Mof_H 	H 	0.9315	0.5846	0.76223	0.06
Mof_C 	C 	0.8279	0.479	0.66283	-0.012
Mof_H 	H 	0.7593	0.4593	0.68393	0.031
Mof_N 	N 	0.853	0.4443	0.58083	-0.269
Mof_O 	O 	0.3098	0.7143	0.79613	-0.43
Mof_Zn	Zn	0.41493	0.67278	0.83126	1.218
Mof_P 	P 	0.4673	0.68742	0.04717	0.421
Mof_P 	P 	0.63565	0.84435	0.90743	0.431
Mof_O 	O 	0.5351	0.6387	0.07347	-0.443
Mof_O 	O 	0.3972	0.6344	0.96307	-0.462
Mof_O 	O 	0.5519	0.8035	0.82987	-0.421
Mof_O 	O 	0.7164	0.9592	0.89477	-0.175
Mof_O 	O 	0.6866	0.7749	0.91957	-0.421
Mof_C 	C 	0.5601	0.831	0.01597	-0.03
Mof_O 	O 	0.6328	0.8807	0.09277	-0.332
Mof_H 	H 	0.694	0.9179	0.07287	0.234
Mof_C 	C 	0.4932	0.8853	0.00847	-0.145
Mof_H 	H 	0.439	0.8482	0.96097	0.086
Mof_H 	H 	0.456	0.8755	0.06717	0.095
Mof_N 	N 	0.5498	0.9988	0.98657	-0.009
Mof_C 	C 	0.5314	0.0423	0.91087	0.047
Mof_H 	H 	0.4835	0.0039	0.86337	-0.004
Mof_C 	C 	0.6248	0.077	0.04007	-0.155
Mof_H 	H 	0.6531	0.0685	0.09557	0.111
Mof_C 	C 	0.6511	0.1721	0.99617	0.136
Mof_H 	H 	0.7	0.2407	0.01727	-0.038
Mof_N 	N 	0.5913	0.147	0.91417	-0.277
Mof_O 	O 	0.4045	0.6902	0.12947	-0.432
Mof_Zn	Zn	0.34366	0	0.66667	1.214
Mof_Zn	Zn	4.76895e-17	0.34366	0.33333	1.212
Mof_Zn	Zn	0.65634	0.65634	-0	1.222
_end
