data_functionalizedCrystal
_audit_creation_method	'EQeq! by Chris Wilmer'
_symmetry_space_group_name_H-M	'P1'
_symmetry_Int_Tables_number	1
_symmetry_cell_setting	triclinic
loop_
_symmetry_equiv_pos_as_xyz
  x,y,z
_cell_length_a	14.6702
_cell_length_b	16.3686
_cell_length_c	16.5747
_cell_angle_alpha	90
_cell_angle_beta	90
_cell_angle_gamma	90
loop_
_atom_site_label
_atom_site_type_symbol
_atom_site_fract_x
_atom_site_fract_y
_atom_site_fract_z
_atom_site_charge
Mof_O 	O 	0.7622	0.1166	0.5348	-0.448
Mof_O 	O 	0.7735	0.0716	0.4162	-0.497
Mof_O 	O 	0.9574	0.3571	0.6154	-0.549
Mof_O 	O 	0.0552	0.4031	0.5241	-0.742
Mof_O 	O 	0.6016	0.9322	0.7225	-0.477
Mof_O 	O 	0.6311	0.0347	0.6344	-0.502
Mof_O 	O 	0.859	0.2533	0.7234	-0.36
Mof_O 	O 	0.934	0.2206	0.8307	-0.36
Mof_C 	C 	0.9652	0.2663	0.262	-0.486
Mof_H 	H 	0.9377	0.3145	0.2396	0.191
Mof_H 	H 	0.9398	0.2256	0.2393	0.226
Mof_C 	C 	0.7973	0.1203	0.4662	0.418
Mof_C 	C 	0.9926	0.3587	0.5462	0.761
Mof_C 	C 	0.854	0.19	0.4453	-0.166
Mof_C 	C 	0.8901	0.2419	0.5058	0.18
Mof_H 	H 	0.8752	0.2339	0.5579	-0.003
Mof_C 	C 	0.9508	0.3049	0.4846	-0.344
Mof_C 	C 	0.9748	0.3144	0.4039	0.342
Mof_H 	H 	0.0109	0.349	0.392	-0.174
Mof_C 	C 	0.9392	0.2652	0.3434	0.042
Mof_C 	C 	0.8766	0.2052	0.3647	-0.007
Mof_H 	H 	0.8491	0.1744	0.3244	0.043
Mof_C 	C 	0.6355	0.0015	0.7028	0.318
Mof_C 	C 	0.8713	0.2057	0.7848	0.252
Mof_C 	C 	0.6873	0.0456	0.768	0.072
Mof_C 	C 	0.6789	0.0208	0.8463	-0.384
Mof_H 	H 	0.6399	0.9779	0.8593	0.232
Mof_C 	C 	0.7287	0.0597	0.9071	0.281
Mof_C 	C 	0.7845	0.1211	0.8878	-0.367
Mof_H 	H 	0.8111	0.1445	0.9231	0.221
Mof_C 	C 	0.8003	0.1444	0.8058	0.11
Mof_C 	C 	0.7466	0.1078	0.7479	-0.147
Mof_H 	H 	0.7504	0.1253	0.6946	0.107
Mof_C 	C 	0.7339	0.0307	0.9869	-0.23
Mof_H 	H 	0.6833	0.0564	0.0133	0.047
Mof_H 	H 	0.7872	0.0384	0.9941	0.128
Mof_O 	O 	0.2622	0.6166	0.5348	-0.457
Mof_O 	O 	0.2735	0.5716	0.4162	-0.487
Mof_O 	O 	0.4574	0.8571	0.6154	-0.553
Mof_O 	O 	0.5552	0.9031	0.5241	-0.561
Mof_O 	O 	0.1016	0.4322	0.7225	-0.564
Mof_O 	O 	0.1311	0.5347	0.6344	-0.544
Mof_O 	O 	0.359	0.7533	0.7234	-0.404
Mof_O 	O 	0.434	0.7206	0.8307	-0.431
Mof_C 	C 	0.4652	0.7663	0.262	-0.075
Mof_H 	H 	0.4377	0.8145	0.2396	0.063
Mof_H 	H 	0.4398	0.7256	0.2393	0.068
Mof_C 	C 	0.2973	0.6203	0.4662	0.399
Mof_C 	C 	0.4926	0.8587	0.5462	0.558
Mof_C 	C 	0.354	0.69	0.4453	-0.126
Mof_C 	C 	0.3901	0.7419	0.5058	0.078
Mof_H 	H 	0.3752	0.7339	0.5579	0.028
Mof_C 	C 	0.4508	0.8049	0.4846	-0.174
Mof_C 	C 	0.4748	0.8144	0.4039	-0.002
Mof_H 	H 	0.5109	0.849	0.392	0.049
Mof_C 	C 	0.4392	0.7652	0.3434	0
Mof_C 	C 	0.3766	0.7052	0.3647	-0.009
Mof_H 	H 	0.3491	0.6744	0.3244	0.048
Mof_C 	C 	0.1355	0.5015	0.7028	0.466
Mof_C 	C 	0.3713	0.7057	0.7848	0.278
Mof_C 	C 	0.1873	0.5456	0.768	-0.04
Mof_C 	C 	0.1789	0.5208	0.8463	-0.176
Mof_H 	H 	0.1399	0.4779	0.8593	0.095
Mof_C 	C 	0.2287	0.5597	0.9071	0.288
Mof_C 	C 	0.2845	0.6211	0.8878	-0.345
Mof_H 	H 	0.3111	0.6445	0.9231	0.206
Mof_C 	C 	0.3003	0.6444	0.8058	0.067
Mof_C 	C 	0.2466	0.6078	0.7479	-0.066
Mof_H 	H 	0.2504	0.6253	0.6946	0.08
Mof_C 	C 	0.2339	0.5307	0.9869	-0.456
Mof_H 	H 	0.1833	0.5564	0.0133	0.132
Mof_H 	H 	0.2872	0.5384	0.9941	0.251
Mof_O 	O 	0.2378	0.8834	0.0348	-0.422
Mof_O 	O 	0.2265	0.9284	0.9162	-0.379
Mof_O 	O 	0.0426	0.6429	0.1154	-0.481
Mof_O 	O 	0.9448	0.5969	0.0241	-0.48
Mof_O 	O 	0.3984	0.0678	0.2225	-0.672
Mof_O 	O 	0.3689	0.9653	0.1344	-0.496
Mof_O 	O 	0.141	0.7467	0.2234	-0.413
Mof_O 	O 	0.066	0.7794	0.3307	-0.462
Mof_C 	C 	0.0348	0.7337	0.762	0.289
Mof_H 	H 	0.0623	0.6855	0.7396	-0.056
Mof_H 	H 	0.0602	0.7744	0.7393	-0.071
Mof_C 	C 	0.2027	0.8797	0.9662	0.359
Mof_C 	C 	0.0074	0.6413	0.0462	0.232
Mof_C 	C 	0.146	0.81	0.9453	0.103
Mof_C 	C 	0.1099	0.7581	0.0058	-0.329
Mof_H 	H 	0.1248	0.7661	0.0579	0.163
Mof_C 	C 	0.0492	0.6951	0.9846	0.268
Mof_C 	C 	0.0252	0.6856	0.9039	-0.584
Mof_H 	H 	0.9891	0.651	0.892	0.373
Mof_C 	C 	0.0608	0.7348	0.8434	0.101
Mof_C 	C 	0.1234	0.7948	0.8647	-0.149
Mof_H 	H 	0.1509	0.8256	0.8244	0.1
Mof_C 	C 	0.3645	0.9985	0.2028	0.643
Mof_C 	C 	0.1287	0.7943	0.2848	0.32
Mof_C 	C 	0.3127	0.9544	0.268	-0.204
Mof_C 	C 	0.3211	0.9792	0.3463	0.138
Mof_H 	H 	0.3601	0.0221	0.3593	-0.071
Mof_C 	C 	0.2713	0.9403	0.4071	0.151
Mof_C 	C 	0.2155	0.8789	0.3878	-0.192
Mof_H 	H 	0.1889	0.8555	0.4231	0.122
Mof_C 	C 	0.1997	0.8556	0.3058	-0.043
Mof_C 	C 	0.2534	0.8922	0.2479	0.063
Mof_H 	H 	0.2496	0.8747	0.1946	0.037
Mof_C 	C 	0.2661	0.9693	0.4869	-0.49
Mof_H 	H 	0.3167	0.9436	0.5133	0.207
Mof_H 	H 	0.2128	0.9616	0.4941	0.268
Mof_O 	O 	0.7378	0.3834	0.0348	-0.476
Mof_O 	O 	0.7265	0.4284	0.9162	-0.445
Mof_O 	O 	0.5426	0.1429	0.1154	-0.526
Mof_O 	O 	0.4448	0.0969	0.0241	-0.574
Mof_O 	O 	0.8984	0.5678	0.2225	-0.511
Mof_O 	O 	0.8689	0.4653	0.1344	-0.515
Mof_O 	O 	0.641	0.2467	0.2234	-0.424
Mof_O 	O 	0.566	0.2794	0.3307	-0.449
Mof_C 	C 	0.5348	0.2337	0.762	-0.136
Mof_H 	H 	0.5623	0.1855	0.7396	0.076
Mof_H 	H 	0.5602	0.2744	0.7393	0.094
Mof_C 	C 	0.7027	0.3797	0.9662	0.395
Mof_C 	C 	0.5074	0.1413	0.0462	0.394
Mof_C 	C 	0.646	0.31	0.9453	0.084
Mof_C 	C 	0.6099	0.2581	0.0058	-0.271
Mof_H 	H 	0.6248	0.2661	0.0579	0.143
Mof_C 	C 	0.5492	0.1951	0.9846	0.147
Mof_C 	C 	0.5252	0.1856	0.9039	-0.283
Mof_H 	H 	0.4891	0.151	0.892	0.172
Mof_C 	C 	0.5608	0.2348	0.8434	0.17
Mof_C 	C 	0.6234	0.2948	0.8647	-0.168
Mof_H 	H 	0.6509	0.3256	0.8244	0.103
Mof_C 	C 	0.8645	0.4985	0.2028	0.479
Mof_C 	C 	0.6287	0.2943	0.2848	0.304
Mof_C 	C 	0.8127	0.4544	0.268	-0.081
Mof_C 	C 	0.8211	0.4792	0.3463	-0.091
Mof_H 	H 	0.8601	0.5221	0.3593	0.079
Mof_C 	C 	0.7713	0.4403	0.4071	0.15
Mof_C 	C 	0.7155	0.3789	0.3878	-0.219
Mof_H 	H 	0.6889	0.3555	0.4231	0.138
Mof_C 	C 	0.6997	0.3556	0.3058	-0.001
Mof_C 	C 	0.7534	0.3922	0.2479	-0.022
Mof_H 	H 	0.7496	0.3747	0.1946	0.061
Mof_C 	C 	0.7661	0.4693	0.4869	-0.268
Mof_H 	H 	0.8167	0.4436	0.5133	0.126
Mof_H 	H 	0.7128	0.4616	0.4941	0.145
Mof_O 	O 	0.2378	0.1166	0.9652	-0.375
Mof_O 	O 	0.2265	0.0716	0.0838	-0.485
Mof_O 	O 	0.0426	0.3571	0.8846	-0.54
Mof_O 	O 	0.9448	0.4031	0.9759	-0.484
Mof_O 	O 	0.3984	0.9322	0.7775	-0.48
Mof_O 	O 	0.3689	0.0347	0.8656	-0.475
Mof_O 	O 	0.141	0.2533	0.7766	-0.397
Mof_O 	O 	0.066	0.2206	0.6693	-0.468
Mof_C 	C 	0.0348	0.2663	0.238	0.235
Mof_H 	H 	0.0623	0.3145	0.2604	-0.041
Mof_H 	H 	0.0602	0.2256	0.2607	-0.067
Mof_C 	C 	0.2027	0.1203	0.0338	0.359
Mof_C 	C 	0.0074	0.3587	0.9538	0.502
Mof_C 	C 	0.146	0.19	0.0547	-0.268
Mof_C 	C 	0.1099	0.2419	0.9942	0.287
Mof_H 	H 	0.1248	0.2339	0.9421	-0.043
Mof_C 	C 	0.0492	0.3049	0.0154	-0.29
Mof_C 	C 	0.0252	0.3144	0.0961	-0.129
Mof_H 	H 	0.9891	0.349	0.108	0.154
Mof_C 	C 	0.0608	0.2652	0.1566	-0.13
Mof_C 	C 	0.1234	0.2052	0.1353	0.093
Mof_H 	H 	0.1509	0.1744	0.1756	0
Mof_C 	C 	0.3645	0.0015	0.7972	0.331
Mof_C 	C 	0.1287	0.2057	0.7152	0.297
Mof_C 	C 	0.3127	0.0456	0.732	-0.003
Mof_C 	C 	0.3211	0.0208	0.6537	-0.276
Mof_H 	H 	0.3601	0.9779	0.6407	0.188
Mof_C 	C 	0.2713	0.0597	0.5929	0.088
Mof_C 	C 	0.2155	0.1211	0.6122	-0.177
Mof_H 	H 	0.1889	0.1445	0.5769	0.109
Mof_C 	C 	0.1997	0.1444	0.6942	-0.008
Mof_C 	C 	0.2534	0.1078	0.7521	-0.069
Mof_H 	H 	0.2496	0.1253	0.8054	0.077
Mof_C 	C 	0.2661	0.0307	0.5131	-0.001
Mof_H 	H 	0.3167	0.0564	0.4867	0.024
Mof_H 	H 	0.2128	0.0384	0.5059	-0.01
Mof_O 	O 	0.7378	0.6166	0.9652	-0.378
Mof_O 	O 	0.7265	0.5716	0.0838	-0.463
Mof_O 	O 	0.5426	0.8571	0.8846	-0.572
Mof_O 	O 	0.4448	0.9031	0.9759	-0.532
Mof_O 	O 	0.8984	0.4322	0.7775	-0.509
Mof_O 	O 	0.8689	0.5347	0.8656	-0.502
Mof_O 	O 	0.641	0.7533	0.7766	-0.402
Mof_O 	O 	0.566	0.7206	0.6693	-0.444
Mof_C 	C 	0.5348	0.7663	0.238	-0.205
Mof_H 	H 	0.5623	0.8145	0.2604	0.098
Mof_H 	H 	0.5602	0.7256	0.2607	0.116
Mof_C 	C 	0.7027	0.6203	0.0338	0.367
Mof_C 	C 	0.5074	0.8587	0.9538	0.666
Mof_C 	C 	0.646	0.69	0.0547	-0.261
Mof_C 	C 	0.6099	0.7419	0.9942	0.347
Mof_H 	H 	0.6248	0.7339	0.9421	-0.056
Mof_C 	C 	0.5492	0.8049	0.0154	-0.403
Mof_C 	C 	0.5252	0.8144	0.0961	0.136
Mof_H 	H 	0.4891	0.849	0.108	-0.016
Mof_C 	C 	0.5608	0.7652	0.1566	-0.035
Mof_C 	C 	0.6234	0.7052	0.1353	0.056
Mof_H 	H 	0.6509	0.6744	0.1756	0.028
Mof_C 	C 	0.8645	0.5015	0.7972	0.473
Mof_C 	C 	0.6287	0.7057	0.7152	0.3
Mof_C 	C 	0.8127	0.5456	0.732	-0.078
Mof_C 	C 	0.8211	0.5208	0.6537	-0.095
Mof_H 	H 	0.8601	0.4779	0.6407	0.08
Mof_C 	C 	0.7713	0.5597	0.5929	0.152
Mof_C 	C 	0.7155	0.6211	0.6122	-0.225
Mof_H 	H 	0.6889	0.6445	0.5769	0.141
Mof_C 	C 	0.6997	0.6444	0.6942	0.007
Mof_C 	C 	0.7534	0.6078	0.7521	-0.029
Mof_H 	H 	0.7496	0.6253	0.8054	0.069
Mof_C 	C 	0.7661	0.5307	0.5131	-0.264
Mof_H 	H 	0.8167	0.5564	0.4867	0.125
Mof_H 	H 	0.7128	0.5384	0.5059	0.144
Mof_O 	O 	0.7622	0.8834	0.4652	-0.395
Mof_O 	O 	0.7735	0.9284	0.5838	-0.399
Mof_O 	O 	0.9574	0.6429	0.3846	-0.538
Mof_O 	O 	0.0552	0.5969	0.4759	-0.732
Mof_O 	O 	0.6016	0.0678	0.2775	-0.68
Mof_O 	O 	0.6311	0.9653	0.3656	-0.519
Mof_O 	O 	0.859	0.7467	0.2766	-0.376
Mof_O 	O 	0.934	0.7794	0.1693	-0.384
Mof_C 	C 	0.9652	0.7337	0.738	-0.728
Mof_H 	H 	0.9377	0.6855	0.7604	0.258
Mof_H 	H 	0.9398	0.7744	0.7607	0.331
Mof_C 	C 	0.7973	0.8797	0.5338	0.374
Mof_C 	C 	0.9926	0.6413	0.4538	0.73
Mof_C 	C 	0.854	0.81	0.5547	-0.077
Mof_C 	C 	0.8901	0.7581	0.4942	0.107
Mof_H 	H 	0.8752	0.7661	0.4421	0.03
Mof_C 	C 	0.9508	0.6951	0.5154	-0.26
Mof_C 	C 	0.9748	0.6856	0.5961	0.194
Mof_H 	H 	0.0109	0.651	0.608	-0.108
Mof_C 	C 	0.9392	0.7348	0.6566	0.205
Mof_C 	C 	0.8766	0.7948	0.6353	-0.116
Mof_H 	H 	0.8491	0.8256	0.6756	0.099
Mof_C 	C 	0.6355	0.9985	0.2972	0.666
Mof_C 	C 	0.8713	0.7943	0.2152	0.333
Mof_C 	C 	0.6873	0.9544	0.232	-0.25
Mof_C 	C 	0.6789	0.9792	0.1537	0.22
Mof_H 	H 	0.6399	0.0221	0.1407	-0.106
Mof_C 	C 	0.7287	0.9403	0.0929	0.026
Mof_C 	C 	0.7845	0.8789	0.1122	-0.081
Mof_H 	H 	0.8111	0.8555	0.0769	0.083
Mof_C 	C 	0.8003	0.8556	0.1942	-0.076
Mof_C 	C 	0.7466	0.8922	0.2521	0.109
Mof_H 	H 	0.7504	0.8747	0.3054	0.029
Mof_C 	C 	0.7339	0.9693	0.0131	-0.302
Mof_H 	H 	0.6833	0.9436	0.9867	0.197
Mof_H 	H 	0.7872	0.9616	0.0059	0.178
Mof_O 	O 	0.2622	0.3834	0.4652	-0.451
Mof_O 	O 	0.2735	0.4284	0.5838	-0.48
Mof_O 	O 	0.4574	0.1429	0.3846	-0.56
Mof_O 	O 	0.5552	0.0969	0.4759	-0.61
Mof_O 	O 	0.1016	0.5678	0.2775	-0.574
Mof_O 	O 	0.1311	0.4653	0.3656	-0.552
Mof_O 	O 	0.359	0.2467	0.2766	-0.424
Mof_O 	O 	0.434	0.2794	0.1693	-0.463
Mof_C 	C 	0.4652	0.2337	0.738	-0.294
Mof_H 	H 	0.4377	0.1855	0.7604	0.12
Mof_H 	H 	0.4398	0.2744	0.7607	0.151
Mof_C 	C 	0.2973	0.3797	0.5338	0.38
Mof_C 	C 	0.4926	0.1413	0.4538	0.545
Mof_C 	C 	0.354	0.31	0.5547	-0.081
Mof_C 	C 	0.3901	0.2581	0.4942	0.034
Mof_H 	H 	0.3752	0.2661	0.4421	0.043
Mof_C 	C 	0.4508	0.1951	0.5154	-0.125
Mof_C 	C 	0.4748	0.1856	0.5961	-0.113
Mof_H 	H 	0.5109	0.151	0.608	0.088
Mof_C 	C 	0.4392	0.2348	0.6566	0.127
Mof_C 	C 	0.3766	0.2948	0.6353	-0.089
Mof_H 	H 	0.3491	0.3256	0.6756	0.076
Mof_C 	C 	0.1355	0.4985	0.2972	0.507
Mof_C 	C 	0.3713	0.2943	0.2152	0.337
Mof_C 	C 	0.1873	0.4544	0.232	-0.159
Mof_C 	C 	0.1789	0.4792	0.1537	0.011
Mof_H 	H 	0.1399	0.5221	0.1407	0.018
Mof_C 	C 	0.2287	0.4403	0.0929	-0.018
Mof_C 	C 	0.2845	0.3789	0.1122	-0.052
Mof_H 	H 	0.3111	0.3555	0.0769	0.058
Mof_C 	C 	0.3003	0.3556	0.1942	-0.085
Mof_C 	C 	0.2466	0.3922	0.2521	0.059
Mof_H 	H 	0.2504	0.3747	0.3054	0.037
Mof_C 	C 	0.2339	0.4693	0.0131	-0.063
Mof_H 	H 	0.1833	0.4436	0.9867	0.104
Mof_H 	H 	0.2872	0.4616	0.0059	0.035
Mof_Tb	Tb	0.66159	0	0.5	2.17
Mof_Tb	Tb	0.16159	0.5	0.5	2.478
Mof_Tb	Tb	0.33841	0	-0	1.977
Mof_Tb	Tb	0.83841	0.5	-0	2.219
Mof_Tb	Tb	0.5	0.83227	0.75	2.38
Mof_Tb	Tb	3.17711e-33	0.33227	0.75	2.136
Mof_Tb	Tb	0.5	0.16773	0.25	2.412
Mof_Tb	Tb	-8.45464e-33	0.66773	0.25	2.13
_end
