data_functionalizedCrystal
_audit_creation_method	'EQeq! by Chris Wilmer'
_symmetry_space_group_name_H-M	'P1'
_symmetry_Int_Tables_number	1
_symmetry_cell_setting	triclinic
loop_
_symmetry_equiv_pos_as_xyz
  x,y,z
_cell_length_a	13.9877
_cell_length_b	11.9198
_cell_length_c	23.0454
_cell_angle_alpha	90
_cell_angle_beta	104.269
_cell_angle_gamma	90
loop_
_atom_site_label
_atom_site_type_symbol
_atom_site_fract_x
_atom_site_fract_y
_atom_site_fract_z
_atom_site_charge
Mof_Ga	Ga	0.87215	0.54176	0.55326	4.839
Mof_Ga	Ga	0.8406	0.6752	0.41129	4.614
Mof_Ga	Ga	0.99755	0.13163	0.43825	4.657
Mof_P 	P 	0.04793	0.65693	0.50613	0.892
Mof_P 	P 	0.96089	0.55784	0.33069	1.001
Mof_P 	P 	0.85088	0.92969	0.43814	1.113
Mof_P 	P 	0.11594	0.22948	0.35888	1.113
Mof_O 	O 	0.759	0.0006	0.4328	-1.025
Mof_O 	O 	0.0624	0.5412	0.37229	-1.133
Mof_O 	O 	0.1377	0.6015	0.49149	-0.987
Mof_O 	O 	0.1336	0.3194	0.40501	-1.308
Mof_O 	O 	0.0014	0.5829	0.54509	-1.343
Mof_O 	O 	0.8065	0.6179	0.47829	-1.769
Mof_O 	O 	0.9764	0.6978	0.44918	-1.136
Mof_O 	O 	0.2038	0.1513	0.36525	-1.048
Mof_O 	O 	0.8729	0.5685	0.35954	-1.14
Mof_O 	O 	0.9315	0.4538	0.28953	-1.048
Mof_O 	O 	0.9644	0.6635	0.29274	-0.293
Mof_O 	O 	0.8312	0.8301	0.39573	-1.191
Mof_O 	O 	0.933	0.9985	0.42189	-1.281
Mof_O 	O 	0.8863	0.8911	0.50455	-1.125
Mof_O 	O 	0.0881	0.7662	0.54319	-1.047
Mof_O 	O 	0.0255	0.1584	0.36547	-1.355
Mof_O 	O 	0.0926	0.2747	0.29491	-1.156
Mof_Ga	Ga	0.37215	0.04176	0.55326	4.658
Mof_Ga	Ga	0.3406	0.1752	0.41129	4.591
Mof_Ga	Ga	0.49755	0.63163	0.43825	4.067
Mof_P 	P 	0.54793	0.15693	0.50613	0.992
Mof_P 	P 	0.46089	0.05784	0.33069	0.94
Mof_P 	P 	0.35088	0.42969	0.43814	1.107
Mof_P 	P 	0.61594	0.72948	0.35888	1.132
Mof_O 	O 	0.259	0.5006	0.4328	-1
Mof_O 	O 	0.5624	0.0412	0.37229	-1.074
Mof_O 	O 	0.6377	0.1015	0.49149	-1.004
Mof_O 	O 	0.6336	0.8194	0.40501	-1.311
Mof_O 	O 	0.5014	0.0829	0.54509	-1.261
Mof_O 	O 	0.3065	0.1179	0.47829	-1.758
Mof_O 	O 	0.4764	0.1978	0.44918	-1.241
Mof_O 	O 	0.7038	0.6513	0.36525	-1.038
Mof_O 	O 	0.3729	0.0685	0.35954	-1.141
Mof_O 	O 	0.4315	0.9538	0.28953	-1.227
Mof_O 	O 	0.4644	0.1635	0.29274	-0.351
Mof_O 	O 	0.3312	0.3301	0.39573	-1.197
Mof_O 	O 	0.433	0.4985	0.42189	-1.218
Mof_O 	O 	0.3863	0.3911	0.50455	-1.271
Mof_O 	O 	0.5881	0.2662	0.54319	-1.135
Mof_O 	O 	0.5255	0.6584	0.36547	-1.178
Mof_O 	O 	0.5926	0.7747	0.29491	-1.25
Mof_Ga	Ga	0.12785	0.54176	0.94674	4.47
Mof_Ga	Ga	0.1594	0.6752	0.08871	4.571
Mof_Ga	Ga	0.00245	0.13163	0.06175	3.497
Mof_P 	P 	0.95207	0.65693	0.99387	1.076
Mof_P 	P 	0.03911	0.55784	0.16931	0.832
Mof_P 	P 	0.14912	0.92969	0.06186	1.102
Mof_P 	P 	0.88406	0.22948	0.14112	1.102
Mof_O 	O 	0.241	0.0006	0.0672	-1.01
Mof_O 	O 	0.9376	0.5412	0.12771	-0.99
Mof_O 	O 	0.8623	0.6015	0.00851	-1.02
Mof_O 	O 	0.8664	0.3194	0.09499	-1.289
Mof_O 	O 	0.9986	0.5829	0.95491	-1.173
Mof_O 	O 	0.1935	0.6179	0.02171	-1.735
Mof_O 	O 	0.0236	0.6978	0.05082	-1.338
Mof_O 	O 	0.7962	0.1513	0.13475	-1.017
Mof_O 	O 	0.1271	0.5685	0.14046	-1.129
Mof_O 	O 	0.0685	0.4538	0.21047	-1.119
Mof_O 	O 	0.0356	0.6635	0.20726	-0.392
Mof_O 	O 	0.1688	0.8301	0.10427	-1.208
Mof_O 	O 	0.067	0.9985	0.07811	-1.163
Mof_O 	O 	0.1137	0.8911	0.99545	-1.415
Mof_O 	O 	0.9119	0.7662	0.95681	-1.225
Mof_O 	O 	0.9745	0.1584	0.13453	-0.973
Mof_O 	O 	0.9074	0.2747	0.20509	-1.073
Mof_Ga	Ga	0.62785	0.04176	0.94674	4.589
Mof_Ga	Ga	0.6594	0.1752	0.08871	4.592
Mof_Ga	Ga	0.50245	0.63163	0.06175	4.075
Mof_P 	P 	0.45207	0.15693	0.99387	0.961
Mof_P 	P 	0.53911	0.05784	0.16931	0.94
Mof_P 	P 	0.64912	0.42969	0.06186	1.127
Mof_P 	P 	0.38406	0.72948	0.14112	1.129
Mof_O 	O 	0.741	0.5006	0.0672	-1.049
Mof_O 	O 	0.4376	0.0412	0.12771	-1.066
Mof_O 	O 	0.3623	0.1015	0.00851	-0.989
Mof_O 	O 	0.3664	0.8194	0.09499	-1.304
Mof_O 	O 	0.4986	0.0829	0.95491	-1.254
Mof_O 	O 	0.6935	0.1179	0.02171	-1.729
Mof_O 	O 	0.5236	0.1978	0.05082	-1.225
Mof_O 	O 	0.2962	0.6513	0.13475	-1.035
Mof_O 	O 	0.6271	0.0685	0.14046	-1.129
Mof_O 	O 	0.5685	0.9538	0.21047	-1.222
Mof_O 	O 	0.5356	0.1635	0.20726	-0.35
Mof_O 	O 	0.6688	0.3301	0.10427	-1.199
Mof_O 	O 	0.567	0.4985	0.07811	-1.218
Mof_O 	O 	0.6137	0.3911	0.99545	-1.284
Mof_O 	O 	0.4119	0.2662	0.95681	-1.141
Mof_O 	O 	0.4745	0.6584	0.13453	-1.177
Mof_O 	O 	0.4074	0.7747	0.20509	-1.254
Mof_Ga	Ga	0.12785	0.45824	0.44674	4.473
Mof_Ga	Ga	0.1594	0.3248	0.58871	4.574
Mof_Ga	Ga	0.00245	0.86837	0.56175	3.5
Mof_P 	P 	0.95207	0.34307	0.49387	1.092
Mof_P 	P 	0.03911	0.44216	0.66931	0.834
Mof_P 	P 	0.14912	0.07031	0.56186	1.11
Mof_P 	P 	0.88406	0.77052	0.64112	1.102
Mof_O 	O 	0.241	0.9994	0.5672	-1.023
Mof_O 	O 	0.9376	0.4588	0.62771	-0.989
Mof_O 	O 	0.8623	0.3985	0.50851	-1.027
Mof_O 	O 	0.8664	0.6806	0.59499	-1.287
Mof_O 	O 	0.9986	0.4171	0.45491	-1.17
Mof_O 	O 	0.1935	0.3821	0.52171	-1.74
Mof_O 	O 	0.0236	0.3022	0.55082	-1.344
Mof_O 	O 	0.7962	0.8487	0.63475	-1.019
Mof_O 	O 	0.1271	0.4315	0.64046	-1.13
Mof_O 	O 	0.0685	0.5462	0.71047	-1.122
Mof_O 	O 	0.0356	0.3365	0.70726	-0.39
Mof_O 	O 	0.1688	0.1699	0.60427	-1.209
Mof_O 	O 	0.067	0.0015	0.57811	-1.161
Mof_O 	O 	0.1137	0.1089	0.49545	-1.423
Mof_O 	O 	0.9119	0.2338	0.45681	-1.228
Mof_O 	O 	0.9745	0.8416	0.63453	-0.978
Mof_O 	O 	0.9074	0.7253	0.70509	-1.079
Mof_Ga	Ga	0.62785	0.95824	0.44674	4.659
Mof_Ga	Ga	0.6594	0.8248	0.58871	4.593
Mof_Ga	Ga	0.50245	0.36837	0.56175	4.071
Mof_P 	P 	0.45207	0.84307	0.49387	0.992
Mof_P 	P 	0.53911	0.94216	0.66931	0.939
Mof_P 	P 	0.64912	0.57031	0.56186	1.117
Mof_P 	P 	0.38406	0.27052	0.64112	1.131
Mof_O 	O 	0.741	0.4994	0.5672	-1.046
Mof_O 	O 	0.4376	0.9588	0.62771	-1.075
Mof_O 	O 	0.3623	0.8985	0.50851	-1.012
Mof_O 	O 	0.3664	0.1806	0.59499	-1.309
Mof_O 	O 	0.4986	0.9171	0.45491	-1.264
Mof_O 	O 	0.6935	0.8821	0.52171	-1.752
Mof_O 	O 	0.5236	0.8022	0.55082	-1.241
Mof_O 	O 	0.2962	0.3487	0.63475	-1.036
Mof_O 	O 	0.6271	0.9315	0.64046	-1.132
Mof_O 	O 	0.5685	0.0462	0.71047	-1.22
Mof_O 	O 	0.5356	0.8365	0.70726	-0.35
Mof_O 	O 	0.6688	0.6699	0.60427	-1.199
Mof_O 	O 	0.567	0.5015	0.57811	-1.218
Mof_O 	O 	0.6137	0.6089	0.49545	-1.274
Mof_O 	O 	0.4119	0.7338	0.45681	-1.142
Mof_O 	O 	0.4745	0.3416	0.63453	-1.176
Mof_O 	O 	0.4074	0.2253	0.70509	-1.254
Mof_Ga	Ga	0.87215	0.45824	0.05326	4.87
Mof_Ga	Ga	0.8406	0.3248	0.91129	4.607
Mof_Ga	Ga	0.99755	0.86837	0.93825	4.631
Mof_P 	P 	0.04793	0.34307	0.00613	0.911
Mof_P 	P 	0.96089	0.44216	0.83069	0.999
Mof_P 	P 	0.85088	0.07031	0.93814	1.089
Mof_P 	P 	0.11594	0.77052	0.85888	1.113
Mof_O 	O 	0.759	0.9994	0.9328	-1.01
Mof_O 	O 	0.0624	0.4588	0.87229	-1.13
Mof_O 	O 	0.1377	0.3985	0.99149	-0.997
Mof_O 	O 	0.1336	0.6806	0.90501	-1.306
Mof_O 	O 	0.0014	0.4171	0.04509	-1.349
Mof_O 	O 	0.8065	0.3821	0.97829	-1.782
Mof_O 	O 	0.9764	0.3022	0.94918	-1.148
Mof_O 	O 	0.2038	0.8487	0.86525	-1.046
Mof_O 	O 	0.8729	0.4315	0.85954	-1.139
Mof_O 	O 	0.9315	0.5462	0.78953	-1.054
Mof_O 	O 	0.9644	0.3365	0.79274	-0.295
Mof_O 	O 	0.8312	0.1699	0.89573	-1.188
Mof_O 	O 	0.933	0.0015	0.92189	-1.28
Mof_O 	O 	0.8863	0.1089	0.00455	-1.104
Mof_O 	O 	0.0881	0.2338	0.04319	-1.045
Mof_O 	O 	0.0255	0.8416	0.86547	-1.346
Mof_O 	O 	0.0926	0.7253	0.79491	-1.159
Mof_Ga	Ga	0.37215	0.95824	0.05326	4.622
Mof_Ga	Ga	0.3406	0.8248	0.91129	4.586
Mof_Ga	Ga	0.49755	0.36837	0.93825	4.057
Mof_P 	P 	0.54793	0.84307	0.00613	0.995
Mof_P 	P 	0.46089	0.94216	0.83069	0.938
Mof_P 	P 	0.35088	0.57031	0.93814	1.101
Mof_P 	P 	0.61594	0.27052	0.85888	1.128
Mof_O 	O 	0.259	0.4994	0.9328	-1.001
Mof_O 	O 	0.5624	0.9588	0.87229	-1.062
Mof_O 	O 	0.6377	0.8985	0.99149	-0.998
Mof_O 	O 	0.6336	0.1806	0.90501	-1.302
Mof_O 	O 	0.5014	0.9171	0.04509	-1.256
Mof_O 	O 	0.3065	0.8821	0.97829	-1.753
Mof_O 	O 	0.4764	0.8022	0.94918	-1.242
Mof_O 	O 	0.7038	0.3487	0.86525	-1.037
Mof_O 	O 	0.3729	0.9315	0.85954	-1.138
Mof_O 	O 	0.4315	0.0462	0.78953	-1.228
Mof_O 	O 	0.4644	0.8365	0.79274	-0.351
Mof_O 	O 	0.3312	0.6699	0.89573	-1.196
Mof_O 	O 	0.433	0.5015	0.92189	-1.217
Mof_O 	O 	0.3863	0.6089	0.00455	-1.265
Mof_O 	O 	0.5881	0.7338	0.04319	-1.135
Mof_O 	O 	0.5255	0.3416	0.86547	-1.176
Mof_O 	O 	0.5926	0.2253	0.79491	-1.249
Mof_Ga	Ga	1.52648e-17	0.36604	0.25	3.773
Mof_Ga	Ga	0.5	0.86604	0.25	4.379
Mof_Ga	Ga	6.1059e-17	0.63396	0.75	3.794
Mof_Ga	Ga	0.5	0.13396	0.75	4.378
_end
