data_functionalizedCrystal
_audit_creation_method	'EQeq! by Chris Wilmer'
_symmetry_space_group_name_H-M	'P1'
_symmetry_Int_Tables_number	1
_symmetry_cell_setting	triclinic
loop_
_symmetry_equiv_pos_as_xyz
  x,y,z
_cell_length_a	13.4801
_cell_length_b	13.4801
_cell_length_c	24.582
_cell_angle_alpha	90
_cell_angle_beta	90
_cell_angle_gamma	90
loop_
_atom_site_label
_atom_site_type_symbol
_atom_site_fract_x
_atom_site_fract_y
_atom_site_fract_z
_atom_site_charge
Mof_O 	O 	0.1613	0.0388	0.05893	-0.283
Mof_O 	O 	0.2065	0.1945	0.06833	-0.285
Mof_C 	C 	0.2119	0.1056	0.08212	0.317
Mof_C 	C 	0.2807	0.0778	0.1279	-0.108
Mof_C 	C 	0.2984	0.9797	0.141	0.045
Mof_H 	H 	0.2646	0.929	0.1224	0.036
Mof_C 	C 	0.3663	0.9558	0.1817	-0.145
Mof_H 	H 	0.3788	0.8888	0.1898	0.086
Mof_C 	C 	0.4161	0.0297	0.21054	0.114
Mof_C 	C 	0.3968	0.1271	0.197	-0.149
Mof_H 	H 	0.4299	0.1782	0.2156	0.086
Mof_C 	C 	0.3296	0.151	0.1564	0.058
Mof_H 	H 	0.3171	0.2179	0.1482	0.025
Mof_O 	O 	0.6613	0.5388	0.55893	-0.286
Mof_O 	O 	0.7065	0.6945	0.56833	-0.282
Mof_C 	C 	0.7119	0.6056	0.58212	0.319
Mof_C 	C 	0.7807	0.5778	0.6279	-0.112
Mof_C 	C 	0.7984	0.4797	0.641	0.049
Mof_H 	H 	0.7646	0.429	0.6224	0.035
Mof_C 	C 	0.8663	0.4558	0.6817	-0.136
Mof_H 	H 	0.8788	0.3888	0.6898	0.082
Mof_C 	C 	0.9161	0.5297	0.71054	0.1
Mof_C 	C 	0.8968	0.6271	0.697	-0.145
Mof_H 	H 	0.9299	0.6782	0.7156	0.082
Mof_C 	C 	0.8296	0.651	0.6564	0.057
Mof_H 	H 	0.8171	0.7179	0.6482	0.026
Mof_O 	O 	0.8387	0.9612	0.05893	-0.293
Mof_O 	O 	0.7935	0.8055	0.06833	-0.289
Mof_C 	C 	0.7881	0.8944	0.08212	0.32
Mof_C 	C 	0.7193	0.9222	0.1279	-0.123
Mof_C 	C 	0.7016	0.0203	0.141	0.056
Mof_H 	H 	0.7354	0.071	0.1224	0.033
Mof_C 	C 	0.6337	0.0442	0.1817	-0.133
Mof_H 	H 	0.6212	0.1112	0.1898	0.081
Mof_C 	C 	0.5839	0.9703	0.21054	0.096
Mof_C 	C 	0.6032	0.8729	0.197	-0.147
Mof_H 	H 	0.5701	0.8218	0.2156	0.084
Mof_C 	C 	0.6704	0.849	0.1564	0.059
Mof_H 	H 	0.6829	0.7821	0.1482	0.024
Mof_O 	O 	0.3387	0.4612	0.55893	-0.286
Mof_O 	O 	0.2935	0.3055	0.56833	-0.28
Mof_C 	C 	0.2881	0.3944	0.58212	0.319
Mof_C 	C 	0.2193	0.4222	0.6279	-0.113
Mof_C 	C 	0.2016	0.5203	0.641	0.052
Mof_H 	H 	0.2354	0.571	0.6224	0.034
Mof_C 	C 	0.1337	0.5442	0.6817	-0.139
Mof_H 	H 	0.1212	0.6112	0.6898	0.085
Mof_C 	C 	0.0839	0.4703	0.71054	0.107
Mof_C 	C 	0.1032	0.3729	0.697	-0.147
Mof_H 	H 	0.0701	0.3218	0.7156	0.087
Mof_C 	C 	0.1704	0.349	0.6564	0.06
Mof_H 	H 	0.1829	0.2821	0.6482	0.028
Mof_O 	O 	0.9612	0.1613	0.05893	-0.291
Mof_O 	O 	0.8055	0.2065	0.06833	-0.288
Mof_C 	C 	0.8944	0.2119	0.08212	0.32
Mof_C 	C 	0.9222	0.2807	0.1279	-0.122
Mof_C 	C 	0.0203	0.2984	0.141	0.057
Mof_H 	H 	0.071	0.2646	0.1224	0.033
Mof_C 	C 	0.0442	0.3663	0.1817	-0.133
Mof_H 	H 	0.1112	0.3788	0.1898	0.081
Mof_C 	C 	0.9703	0.4161	0.21054	0.096
Mof_C 	C 	0.8729	0.3968	0.197	-0.147
Mof_H 	H 	0.8218	0.4299	0.2156	0.084
Mof_C 	C 	0.849	0.3296	0.1564	0.059
Mof_H 	H 	0.7821	0.3171	0.1482	0.024
Mof_O 	O 	0.4612	0.6613	0.55893	-0.286
Mof_O 	O 	0.3055	0.7065	0.56833	-0.281
Mof_C 	C 	0.3944	0.7119	0.58212	0.318
Mof_C 	C 	0.4222	0.7807	0.6279	-0.112
Mof_C 	C 	0.5203	0.7984	0.641	0.049
Mof_H 	H 	0.571	0.7646	0.6224	0.035
Mof_C 	C 	0.5442	0.8663	0.6817	-0.136
Mof_H 	H 	0.6112	0.8788	0.6898	0.082
Mof_C 	C 	0.4703	0.9161	0.71054	0.1
Mof_C 	C 	0.3729	0.8968	0.697	-0.145
Mof_H 	H 	0.3218	0.9299	0.7156	0.083
Mof_C 	C 	0.349	0.8296	0.6564	0.056
Mof_H 	H 	0.2821	0.8171	0.6482	0.027
Mof_O 	O 	0.0388	0.8387	0.05893	-0.286
Mof_O 	O 	0.1945	0.7935	0.06833	-0.287
Mof_C 	C 	0.1056	0.7881	0.08212	0.316
Mof_C 	C 	0.0778	0.7193	0.1279	-0.109
Mof_C 	C 	0.9797	0.7016	0.141	0.044
Mof_H 	H 	0.929	0.7354	0.1224	0.034
Mof_C 	C 	0.9558	0.6337	0.1817	-0.147
Mof_H 	H 	0.8888	0.6212	0.1898	0.085
Mof_C 	C 	0.0297	0.5839	0.21054	0.113
Mof_C 	C 	0.1271	0.6032	0.197	-0.151
Mof_H 	H 	0.1782	0.5701	0.2156	0.085
Mof_C 	C 	0.151	0.6704	0.1564	0.058
Mof_H 	H 	0.2179	0.6829	0.1482	0.024
Mof_O 	O 	0.5388	0.3387	0.55893	-0.286
Mof_O 	O 	0.6945	0.2935	0.56833	-0.281
Mof_C 	C 	0.6056	0.2881	0.58212	0.32
Mof_C 	C 	0.5778	0.2193	0.6279	-0.114
Mof_C 	C 	0.4797	0.2016	0.641	0.053
Mof_H 	H 	0.429	0.2354	0.6224	0.034
Mof_C 	C 	0.4558	0.1337	0.6817	-0.14
Mof_H 	H 	0.3888	0.1212	0.6898	0.085
Mof_C 	C 	0.5297	0.0839	0.71054	0.108
Mof_C 	C 	0.6271	0.1032	0.697	-0.148
Mof_H 	H 	0.6782	0.0701	0.7156	0.086
Mof_C 	C 	0.651	0.1704	0.6564	0.06
Mof_H 	H 	0.7179	0.1829	0.6482	0.026
Mof_O 	O 	0.8387	0.9612	0.94107	-0.264
Mof_O 	O 	0.7935	0.8055	0.93167	-0.26
Mof_C 	C 	0.7881	0.8944	0.91788	0.315
Mof_C 	C 	0.7193	0.9222	0.8721	-0.111
Mof_C 	C 	0.7016	0.0203	0.859	0.054
Mof_H 	H 	0.7354	0.071	0.8776	0.038
Mof_C 	C 	0.6337	0.0442	0.8183	-0.127
Mof_H 	H 	0.6212	0.1112	0.8102	0.082
Mof_C 	C 	0.5839	0.9703	0.78946	0.093
Mof_C 	C 	0.6032	0.8729	0.803	-0.14
Mof_H 	H 	0.5701	0.8218	0.7844	0.084
Mof_C 	C 	0.6704	0.849	0.8436	0.055
Mof_H 	H 	0.6829	0.7821	0.8518	0.031
Mof_O 	O 	0.3387	0.4612	0.44107	-0.286
Mof_O 	O 	0.2935	0.3055	0.43167	-0.28
Mof_C 	C 	0.2881	0.3944	0.41788	0.319
Mof_C 	C 	0.2193	0.4222	0.3721	-0.114
Mof_C 	C 	0.2016	0.5203	0.359	0.053
Mof_H 	H 	0.2354	0.571	0.3776	0.034
Mof_C 	C 	0.1337	0.5442	0.3183	-0.14
Mof_H 	H 	0.1212	0.6112	0.3102	0.085
Mof_C 	C 	0.0839	0.4703	0.28946	0.108
Mof_C 	C 	0.1032	0.3729	0.303	-0.149
Mof_H 	H 	0.0701	0.3218	0.2844	0.087
Mof_C 	C 	0.1704	0.349	0.3436	0.06
Mof_H 	H 	0.1829	0.2821	0.3518	0.027
Mof_O 	O 	0.1613	0.0388	0.94107	-0.255
Mof_O 	O 	0.2065	0.1945	0.93167	-0.258
Mof_C 	C 	0.2119	0.1056	0.91788	0.312
Mof_C 	C 	0.2807	0.0778	0.8721	-0.097
Mof_C 	C 	0.2984	0.9797	0.859	0.042
Mof_H 	H 	0.2646	0.929	0.8776	0.04
Mof_C 	C 	0.3663	0.9558	0.8183	-0.14
Mof_H 	H 	0.3788	0.8888	0.8102	0.086
Mof_C 	C 	0.4161	0.0297	0.78946	0.111
Mof_C 	C 	0.3968	0.1271	0.803	-0.144
Mof_H 	H 	0.4299	0.1782	0.7844	0.085
Mof_C 	C 	0.3296	0.151	0.8436	0.054
Mof_H 	H 	0.3171	0.2179	0.8518	0.032
Mof_O 	O 	0.6613	0.5388	0.44107	-0.286
Mof_O 	O 	0.7065	0.6945	0.43167	-0.282
Mof_C 	C 	0.7119	0.6056	0.41788	0.319
Mof_C 	C 	0.7807	0.5778	0.3721	-0.113
Mof_C 	C 	0.7984	0.4797	0.359	0.05
Mof_H 	H 	0.7646	0.429	0.3776	0.035
Mof_C 	C 	0.8663	0.4558	0.3183	-0.138
Mof_H 	H 	0.8788	0.3888	0.3102	0.083
Mof_C 	C 	0.9161	0.5297	0.28946	0.101
Mof_C 	C 	0.8968	0.6271	0.303	-0.146
Mof_H 	H 	0.9299	0.6782	0.2844	0.083
Mof_C 	C 	0.8296	0.651	0.3436	0.057
Mof_H 	H 	0.8171	0.7179	0.3518	0.026
Mof_O 	O 	0.0388	0.8387	0.94107	-0.257
Mof_O 	O 	0.1945	0.7935	0.93167	-0.259
Mof_C 	C 	0.1056	0.7881	0.91788	0.312
Mof_C 	C 	0.0778	0.7193	0.8721	-0.098
Mof_C 	C 	0.9797	0.7016	0.859	0.042
Mof_H 	H 	0.929	0.7354	0.8776	0.04
Mof_C 	C 	0.9558	0.6337	0.8183	-0.141
Mof_H 	H 	0.8888	0.6212	0.8102	0.086
Mof_C 	C 	0.0297	0.5839	0.78946	0.111
Mof_C 	C 	0.1271	0.6032	0.803	-0.144
Mof_H 	H 	0.1782	0.5701	0.7844	0.085
Mof_C 	C 	0.151	0.6704	0.8436	0.054
Mof_H 	H 	0.2179	0.6829	0.8518	0.032
Mof_O 	O 	0.5388	0.3387	0.44107	-0.286
Mof_O 	O 	0.6945	0.2935	0.43167	-0.281
Mof_C 	C 	0.6056	0.2881	0.41788	0.32
Mof_C 	C 	0.5778	0.2193	0.3721	-0.115
Mof_C 	C 	0.4797	0.2016	0.359	0.053
Mof_H 	H 	0.429	0.2354	0.3776	0.034
Mof_C 	C 	0.4558	0.1337	0.3183	-0.141
Mof_H 	H 	0.3888	0.1212	0.3102	0.086
Mof_C 	C 	0.5297	0.0839	0.28946	0.108
Mof_C 	C 	0.6271	0.1032	0.303	-0.149
Mof_H 	H 	0.6782	0.0701	0.2844	0.087
Mof_C 	C 	0.651	0.1704	0.3436	0.061
Mof_H 	H 	0.7179	0.1829	0.3518	0.026
Mof_O 	O 	0.9612	0.1613	0.94107	-0.263
Mof_O 	O 	0.8055	0.2065	0.93167	-0.26
Mof_C 	C 	0.8944	0.2119	0.91788	0.316
Mof_C 	C 	0.9222	0.2807	0.8721	-0.11
Mof_C 	C 	0.0203	0.2984	0.859	0.054
Mof_H 	H 	0.071	0.2646	0.8776	0.039
Mof_C 	C 	0.0442	0.3663	0.8183	-0.127
Mof_H 	H 	0.1112	0.3788	0.8102	0.082
Mof_C 	C 	0.9703	0.4161	0.78946	0.093
Mof_C 	C 	0.8729	0.3968	0.803	-0.14
Mof_H 	H 	0.8218	0.4299	0.7844	0.084
Mof_C 	C 	0.849	0.3296	0.8436	0.055
Mof_H 	H 	0.7821	0.3171	0.8518	0.031
Mof_O 	O 	0.4612	0.6613	0.44107	-0.286
Mof_O 	O 	0.3055	0.7065	0.43167	-0.281
Mof_C 	C 	0.3944	0.7119	0.41788	0.318
Mof_C 	C 	0.4222	0.7807	0.3721	-0.113
Mof_C 	C 	0.5203	0.7984	0.359	0.049
Mof_H 	H 	0.571	0.7646	0.3776	0.035
Mof_C 	C 	0.5442	0.8663	0.3183	-0.137
Mof_H 	H 	0.6112	0.8788	0.3102	0.082
Mof_C 	C 	0.4703	0.9161	0.28946	0.101
Mof_C 	C 	0.3729	0.8968	0.303	-0.146
Mof_H 	H 	0.3218	0.9299	0.2844	0.083
Mof_C 	C 	0.349	0.8296	0.3436	0.057
Mof_H 	H 	0.2821	0.8171	0.3518	0.027
Mof_Cd	Cd	0.09122	0.17813	-0	0.428
Mof_Cd	Cd	0.59122	0.67813	0.5	0.465
Mof_Cd	Cd	0.90878	0.82187	-0	0.419
Mof_Cd	Cd	0.40878	0.32187	0.5	0.467
Mof_Cd	Cd	0.82187	0.09122	-0	0.427
Mof_Cd	Cd	0.32187	0.59122	0.5	0.466
Mof_Cd	Cd	0.17813	0.90878	-0	0.42
Mof_Cd	Cd	0.67813	0.40878	0.5	0.466
Mof_C 	C 	0.5	0	0.25	-0.122
Mof_C 	C 	-3.94195e-33	0.5	0.25	-0.122
Mof_C 	C 	0.5	-1.13026e-32	0.75	-0.12
Mof_C 	C 	-4.00823e-32	0.5	0.75	-0.12
_end
