data_functionalizedCrystal
_audit_creation_method	'EQeq! by Chris Wilmer'
_symmetry_space_group_name_H-M	'P1'
_symmetry_Int_Tables_number	1
_symmetry_cell_setting	triclinic
loop_
_symmetry_equiv_pos_as_xyz
  x,y,z
_cell_length_a	24.704
_cell_length_b	5.7098
_cell_length_c	26.335
_cell_angle_alpha	90
_cell_angle_beta	114.87
_cell_angle_gamma	90
loop_
_atom_site_label
_atom_site_type_symbol
_atom_site_fract_x
_atom_site_fract_y
_atom_site_fract_z
_atom_site_charge
Mof_Zn	Zn	0.25723	0.2236	0.53989	1.158
Mof_S 	S 	0.1007	0.0194	0.72125	0.271
Mof_S 	S 	0.50656	0.4639	0.39274	0.369
Mof_O 	O 	0.2417	0.8379	0.55103	-0.941
Mof_O 	O 	0.2203	0.4796	0.57097	-0.563
Mof_O 	O 	0.8381	0.5063	0.5749	-0.748
Mof_O 	O 	0.81689	0.8598	0.53735	-0.777
Mof_O 	O 	0.1238	0.8826	0.77158	-0.283
Mof_O 	O 	0.1037	0.2715	0.7247	-0.245
Mof_O 	O 	0.30545	0.4559	0.50219	-0.989
Mof_O 	O 	0.51896	0.7117	0.39648	-0.326
Mof_O 	O 	0.55487	0.2979	0.41797	-0.647
Mof_O 	O 	0.3323	0.3518	0.11687	-0.838
Mof_O 	O 	0.3615	0.9828	0.13997	-0.863
Mof_O 	O 	0.31928	0.0733	0.50006	-0.998
Mof_C 	C 	0.2208	0.697	0.575	0.521
Mof_C 	C 	0.1931	0.7893	0.6127	-0.244
Mof_C 	C 	0.1638	0.0054	0.6034	0.134
Mof_H 	H 	0.1638	0.1035	0.5752	-0.034
Mof_C 	C 	0.1356	0.0723	0.6354	-0.143
Mof_H 	H 	0.1152	0.214	0.6283	0.087
Mof_C 	C 	0.1371	0.9297	0.6788	0.022
Mof_C 	C 	0.167	0.717	0.6891	-0.151
Mof_H 	H 	0.1687	0.6222	0.7184	0.087
Mof_C 	C 	0.1938	0.6492	0.656	0.111
Mof_H 	H 	0.2132	0.5053	0.6625	-0.011
Mof_C 	C 	0.0251	0.9388	0.6814	0.054
Mof_C 	C 	0.9891	0.0846	0.6387	-0.171
Mof_H 	H 	0.0034	0.2279	0.6328	0.094
Mof_C 	C 	0.9321	0.0151	0.6052	0.133
Mof_H 	H 	0.9076	0.1129	0.5765	-0.06
Mof_C 	C 	0.9106	0.8041	0.6133	-0.273
Mof_C 	C 	0.9465	0.6583	0.6566	0.144
Mof_H 	H 	0.9317	0.516	0.6624	-0.017
Mof_C 	C 	0.0044	0.7249	0.6912	-0.167
Mof_H 	H 	0.0289	0.6284	0.7202	0.107
Mof_C 	C 	0.8492	0.7142	0.5713	0.609
Mof_C 	C 	0.3301	0.2803	0.4905	0.69
Mof_C 	C 	0.3733	0.3251	0.466	-0.458
Mof_C 	C 	0.3738	0.5389	0.4408	0.292
Mof_H 	H 	0.3464	0.6541	0.4387	-0.202
Mof_C 	C 	0.4144	0.5808	0.4192	-0.278
Mof_H 	H 	0.4145	0.7243	0.4026	0.111
Mof_C 	C 	0.4556	0.4083	0.422	0.084
Mof_C 	C 	0.456	0.1962	0.446	-0.241
Mof_H 	H 	0.4839	0.0824	0.4486	0.117
Mof_C 	C 	0.4127	0.1541	0.467	0.256
Mof_H 	H 	0.4109	0.0077	0.4817	-0.103
Mof_C 	C 	0.4667	0.3885	0.3221	-0.025
Mof_C 	C 	0.4259	0.5481	0.2858	-0.14
Mof_H 	H 	0.4207	0.6939	0.2988	0.069
Mof_C 	C 	0.3934	0.4883	0.2303	0.126
Mof_H 	H 	0.3666	0.5951	0.2059	-0.059
Mof_C 	C 	0.4004	0.2702	0.2106	-0.292
Mof_C 	C 	0.4426	0.1156	0.2472	0.123
Mof_H 	H 	0.4483	0.9714	0.2338	-0.031
Mof_C 	C 	0.4761	0.1706	0.3028	-0.119
Mof_H 	H 	0.504	0.0658	0.3267	0.031
Mof_C 	C 	0.362	0.193	0.1508	0.677
Mof_Na	Na	0.65016	0.2163	0.42502	2.853
Mof_Na	Na	0.2292	0.7791	0.45251	2.097
Mof_Zn	Zn	0.74277	0.7236	0.96011	1.157
Mof_S 	S 	0.8993	0.5194	0.77875	0.239
Mof_S 	S 	0.49344	0.9639	0.10726	0.356
Mof_O 	O 	0.7583	0.3379	0.94897	-0.93
Mof_O 	O 	0.7797	0.9796	0.92903	-0.544
Mof_O 	O 	0.1619	0.0063	0.9251	-0.742
Mof_O 	O 	0.18311	0.3598	0.96265	-0.788
Mof_O 	O 	0.8762	0.3826	0.72842	-0.271
Mof_O 	O 	0.8963	0.7715	0.7753	-0.236
Mof_O 	O 	0.69455	0.9559	0.99781	-0.98
Mof_O 	O 	0.48104	0.2117	0.10352	-0.324
Mof_O 	O 	0.44513	0.7979	0.08203	-0.647
Mof_O 	O 	0.6677	0.8518	0.38313	-0.828
Mof_O 	O 	0.6385	0.4828	0.36003	-0.848
Mof_O 	O 	0.68072	0.5733	0.99994	-1.008
Mof_C 	C 	0.7792	0.197	0.925	0.495
Mof_C 	C 	0.8069	0.2893	0.8873	-0.222
Mof_C 	C 	0.8362	0.5054	0.8966	0.114
Mof_H 	H 	0.8362	0.6035	0.9248	-0.029
Mof_C 	C 	0.8644	0.5723	0.8646	-0.155
Mof_H 	H 	0.8848	0.714	0.8717	0.093
Mof_C 	C 	0.8629	0.4297	0.8212	0.045
Mof_C 	C 	0.833	0.217	0.8109	-0.156
Mof_H 	H 	0.8313	0.1222	0.7816	0.085
Mof_C 	C 	0.8062	0.1492	0.844	0.105
Mof_H 	H 	0.7868	0.0053	0.8375	-0.016
Mof_C 	C 	0.9749	0.4388	0.8186	0.079
Mof_C 	C 	0.0109	0.5846	0.8613	-0.205
Mof_H 	H 	0.9966	0.7279	0.8672	0.107
Mof_C 	C 	0.0679	0.5151	0.8948	0.175
Mof_H 	H 	0.0924	0.6129	0.9235	-0.073
Mof_C 	C 	0.0894	0.3041	0.8867	-0.302
Mof_C 	C 	0.0535	0.1583	0.8434	0.162
Mof_H 	H 	0.0683	0.016	0.8376	-0.022
Mof_C 	C 	0.9956	0.2249	0.8088	-0.188
Mof_H 	H 	0.9711	0.1284	0.7798	0.113
Mof_C 	C 	0.1508	0.2142	0.9287	0.617
Mof_C 	C 	0.6699	0.7803	0.0095	0.685
Mof_C 	C 	0.6267	0.8251	0.034	-0.444
Mof_C 	C 	0.6262	0.0389	0.0592	0.273
Mof_H 	H 	0.6536	0.1541	0.0613	-0.196
Mof_C 	C 	0.5856	0.0808	0.0808	-0.278
Mof_H 	H 	0.5855	0.2243	0.0974	0.112
Mof_C 	C 	0.5444	0.9083	0.078	0.092
Mof_C 	C 	0.544	0.6962	0.054	-0.242
Mof_H 	H 	0.5161	0.5824	0.0514	0.117
Mof_C 	C 	0.5873	0.6541	0.033	0.251
Mof_H 	H 	0.5891	0.5077	0.0183	-0.106
Mof_C 	C 	0.5333	0.8885	0.1779	0.004
Mof_C 	C 	0.5741	0.0481	0.2142	-0.196
Mof_H 	H 	0.5793	0.1939	0.2012	0.088
Mof_C 	C 	0.6066	0.9883	0.2697	0.189
Mof_H 	H 	0.6334	0.0951	0.2941	-0.088
Mof_C 	C 	0.5996	0.7702	0.2894	-0.313
Mof_C 	C 	0.5574	0.6156	0.2528	0.136
Mof_H 	H 	0.5517	0.4714	0.2662	-0.033
Mof_C 	C 	0.5239	0.6706	0.1972	-0.141
Mof_H 	H 	0.496	0.5658	0.1733	0.039
Mof_C 	C 	0.638	0.693	0.3492	0.668
Mof_Na	Na	0.34984	0.7163	0.07498	2.871
Mof_Na	Na	0.7708	0.2791	0.04749	2.094
Mof_Zn	Zn	0.74277	0.7764	0.46011	1.158
Mof_S 	S 	0.8993	0.9806	0.27875	0.271
Mof_S 	S 	0.49344	0.5361	0.60726	0.369
Mof_O 	O 	0.7583	0.1621	0.44897	-0.941
Mof_O 	O 	0.7797	0.5204	0.42903	-0.563
Mof_O 	O 	0.1619	0.4937	0.4251	-0.748
Mof_O 	O 	0.18311	0.1402	0.46265	-0.777
Mof_O 	O 	0.8762	0.1174	0.22842	-0.283
Mof_O 	O 	0.8963	0.7285	0.2753	-0.245
Mof_O 	O 	0.69455	0.5441	0.49781	-0.989
Mof_O 	O 	0.48104	0.2883	0.60352	-0.326
Mof_O 	O 	0.44513	0.7021	0.58203	-0.647
Mof_O 	O 	0.6677	0.6482	0.88313	-0.838
Mof_O 	O 	0.6385	0.0172	0.86003	-0.863
Mof_O 	O 	0.68072	0.9267	0.49994	-0.998
Mof_C 	C 	0.7792	0.303	0.425	0.521
Mof_C 	C 	0.8069	0.2107	0.3873	-0.244
Mof_C 	C 	0.8362	0.9946	0.3966	0.134
Mof_H 	H 	0.8362	0.8965	0.4248	-0.034
Mof_C 	C 	0.8644	0.9277	0.3646	-0.143
Mof_H 	H 	0.8848	0.786	0.3717	0.087
Mof_C 	C 	0.8629	0.0703	0.3212	0.022
Mof_C 	C 	0.833	0.283	0.3109	-0.151
Mof_H 	H 	0.8313	0.3778	0.2816	0.087
Mof_C 	C 	0.8062	0.3508	0.344	0.111
Mof_H 	H 	0.7868	0.4947	0.3375	-0.011
Mof_C 	C 	0.9749	0.0612	0.3186	0.054
Mof_C 	C 	0.0109	0.9154	0.3613	-0.171
Mof_H 	H 	0.9966	0.7721	0.3672	0.094
Mof_C 	C 	0.0679	0.9849	0.3948	0.133
Mof_H 	H 	0.0924	0.8871	0.4235	-0.06
Mof_C 	C 	0.0894	0.1959	0.3867	-0.273
Mof_C 	C 	0.0535	0.3417	0.3434	0.144
Mof_H 	H 	0.0683	0.484	0.3376	-0.017
Mof_C 	C 	0.9956	0.2751	0.3088	-0.167
Mof_H 	H 	0.9711	0.3716	0.2798	0.107
Mof_C 	C 	0.1508	0.2858	0.4287	0.609
Mof_C 	C 	0.6699	0.7197	0.5095	0.69
Mof_C 	C 	0.6267	0.6749	0.534	-0.458
Mof_C 	C 	0.6262	0.4611	0.5592	0.292
Mof_H 	H 	0.6536	0.3459	0.5613	-0.202
Mof_C 	C 	0.5856	0.4192	0.5808	-0.278
Mof_H 	H 	0.5855	0.2757	0.5974	0.111
Mof_C 	C 	0.5444	0.5917	0.578	0.084
Mof_C 	C 	0.544	0.8038	0.554	-0.241
Mof_H 	H 	0.5161	0.9176	0.5514	0.117
Mof_C 	C 	0.5873	0.8459	0.533	0.256
Mof_H 	H 	0.5891	0.9923	0.5183	-0.103
Mof_C 	C 	0.5333	0.6115	0.6779	-0.025
Mof_C 	C 	0.5741	0.4519	0.7142	-0.14
Mof_H 	H 	0.5793	0.3061	0.7012	0.069
Mof_C 	C 	0.6066	0.5117	0.7697	0.126
Mof_H 	H 	0.6334	0.4049	0.7941	-0.059
Mof_C 	C 	0.5996	0.7298	0.7894	-0.292
Mof_C 	C 	0.5574	0.8844	0.7528	0.123
Mof_H 	H 	0.5517	0.0286	0.7662	-0.031
Mof_C 	C 	0.5239	0.8294	0.6972	-0.119
Mof_H 	H 	0.496	0.9342	0.6733	0.031
Mof_C 	C 	0.638	0.807	0.8492	0.677
Mof_Na	Na	0.34984	0.7837	0.57498	2.853
Mof_Na	Na	0.7708	0.2209	0.54749	2.097
Mof_Zn	Zn	0.25723	0.2764	0.03989	1.157
Mof_S 	S 	0.1007	0.4806	0.22125	0.239
Mof_S 	S 	0.50656	0.0361	0.89274	0.356
Mof_O 	O 	0.2417	0.6621	0.05103	-0.93
Mof_O 	O 	0.2203	0.0204	0.07097	-0.544
Mof_O 	O 	0.8381	0.9937	0.0749	-0.742
Mof_O 	O 	0.81689	0.6402	0.03735	-0.788
Mof_O 	O 	0.1238	0.6174	0.27158	-0.271
Mof_O 	O 	0.1037	0.2285	0.2247	-0.236
Mof_O 	O 	0.30545	0.0441	0.00219	-0.98
Mof_O 	O 	0.51896	0.7883	0.89648	-0.324
Mof_O 	O 	0.55487	0.2021	0.91797	-0.647
Mof_O 	O 	0.3323	0.1482	0.61687	-0.828
Mof_O 	O 	0.3615	0.5172	0.63997	-0.848
Mof_O 	O 	0.31928	0.4267	6e-05	-1.008
Mof_C 	C 	0.2208	0.803	0.075	0.495
Mof_C 	C 	0.1931	0.7107	0.1127	-0.222
Mof_C 	C 	0.1638	0.4946	0.1034	0.114
Mof_H 	H 	0.1638	0.3965	0.0752	-0.029
Mof_C 	C 	0.1356	0.4277	0.1354	-0.155
Mof_H 	H 	0.1152	0.286	0.1283	0.093
Mof_C 	C 	0.1371	0.5703	0.1788	0.045
Mof_C 	C 	0.167	0.783	0.1891	-0.156
Mof_H 	H 	0.1687	0.8778	0.2184	0.085
Mof_C 	C 	0.1938	0.8508	0.156	0.105
Mof_H 	H 	0.2132	0.9947	0.1625	-0.016
Mof_C 	C 	0.0251	0.5612	0.1814	0.079
Mof_C 	C 	0.9891	0.4154	0.1387	-0.205
Mof_H 	H 	0.0034	0.2721	0.1328	0.107
Mof_C 	C 	0.9321	0.4849	0.1052	0.175
Mof_H 	H 	0.9076	0.3871	0.0765	-0.073
Mof_C 	C 	0.9106	0.6959	0.1133	-0.302
Mof_C 	C 	0.9465	0.8417	0.1566	0.162
Mof_H 	H 	0.9317	0.984	0.1624	-0.022
Mof_C 	C 	0.0044	0.7751	0.1912	-0.188
Mof_H 	H 	0.0289	0.8716	0.2202	0.113
Mof_C 	C 	0.8492	0.7858	0.0713	0.617
Mof_C 	C 	0.3301	0.2197	0.9905	0.685
Mof_C 	C 	0.3733	0.1749	0.966	-0.444
Mof_C 	C 	0.3738	0.9611	0.9408	0.273
Mof_H 	H 	0.3464	0.8459	0.9387	-0.196
Mof_C 	C 	0.4144	0.9192	0.9192	-0.278
Mof_H 	H 	0.4145	0.7757	0.9026	0.112
Mof_C 	C 	0.4556	0.0917	0.922	0.092
Mof_C 	C 	0.456	0.3038	0.946	-0.242
Mof_H 	H 	0.4839	0.4176	0.9486	0.117
Mof_C 	C 	0.4127	0.3459	0.967	0.251
Mof_H 	H 	0.4109	0.4923	0.9817	-0.106
Mof_C 	C 	0.4667	0.1115	0.8221	0.004
Mof_C 	C 	0.4259	0.9519	0.7858	-0.196
Mof_H 	H 	0.4207	0.8061	0.7988	0.088
Mof_C 	C 	0.3934	0.0117	0.7303	0.189
Mof_H 	H 	0.3666	0.9049	0.7059	-0.088
Mof_C 	C 	0.4004	0.2298	0.7106	-0.313
Mof_C 	C 	0.4426	0.3844	0.7472	0.136
Mof_H 	H 	0.4483	0.5286	0.7338	-0.033
Mof_C 	C 	0.4761	0.3294	0.8028	-0.141
Mof_H 	H 	0.504	0.4342	0.8267	0.039
Mof_C 	C 	0.362	0.307	0.6508	0.668
Mof_Na	Na	0.65016	0.2837	0.92502	2.871
Mof_Na	Na	0.2292	0.7209	0.95251	2.094
_end
