data_functionalizedCrystal
_audit_creation_method	'EQeq! by Chris Wilmer'
_symmetry_space_group_name_H-M	'P1'
_symmetry_Int_Tables_number	1
_symmetry_cell_setting	triclinic
loop_
_symmetry_equiv_pos_as_xyz
  x,y,z
_cell_length_a	11.477
_cell_length_b	11.477
_cell_length_c	22.585
_cell_angle_alpha	90
_cell_angle_beta	90
_cell_angle_gamma	120
loop_
_atom_site_label
_atom_site_type_symbol
_atom_site_fract_x
_atom_site_fract_y
_atom_site_fract_z
_atom_site_charge
Mof_Cd	Cd	0.5301	0.76505	0.91667	0.534
Mof_Cd	Cd	0.23495	0.4699	0.58333	0.523
Mof_Cd	Cd	0.23495	0.76505	0.25	0.521
Mof_Cd	Cd	0.4699	0.23495	0.41667	0.522
Mof_Cd	Cd	0.76505	0.5301	0.08333	0.523
Mof_Cd	Cd	0.76505	0.23495	0.75	0.521
Mof_B 	B 	0.6477	0.6477	-0	1.789
Mof_B 	B 	1.58452e-17	0.3523	0.66667	1.717
Mof_B 	B 	0.3523	9.79812e-33	0.33333	1.703
Mof_B 	B 	0.3523	0.3523	0.5	1.985
Mof_B 	B 	3.9607e-18	0.6477	0.16667	1.709
Mof_B 	B 	0.6477	0	0.83333	1.687
Mof_H 	H 	0.8578	0.8146	0.89	0.028
Mof_H 	H 	0.824	0.6589	0.9201	0
Mof_H 	H 	0.9007	0.8054	0.9641	0.031
Mof_H 	H 	0.3337	0.5823	0.0351	-0.013
Mof_H 	H 	0.4655	0.6261	0.0862	-0.005
Mof_H 	H 	0.3967	0.4723	0.0474	-0.025
Mof_H 	H 	0.9568	0.1422	0.55667	-0.006
Mof_H 	H 	0.8349	0.176	0.58677	-0.043
Mof_H 	H 	0.9047	0.0993	0.63077	-0.043
Mof_H 	H 	0.2486	0.6663	0.70177	0.002
Mof_H 	H 	0.1606	0.5345	0.75287	-0.028
Mof_H 	H 	0.0756	0.6033	0.71407	-0.035
Mof_H 	H 	0.1854	0.0432	0.22333	-0.03
Mof_H 	H 	0.3411	0.1651	0.25343	-0.01
Mof_H 	H 	0.1946	0.0953	0.29743	-0.024
Mof_H 	H 	0.4177	0.7514	0.36843	0.011
Mof_H 	H 	0.3739	0.8394	0.41953	0.013
Mof_H 	H 	0.5277	0.9244	0.38073	0.029
Mof_H 	H 	0.1422	0.1854	0.39	-0.04
Mof_H 	H 	0.176	0.3411	0.4201	-0.044
Mof_H 	H 	0.0993	0.1946	0.4641	-0.06
Mof_H 	H 	0.6663	0.4177	0.5351	0.004
Mof_H 	H 	0.5345	0.3739	0.5862	-0.018
Mof_H 	H 	0.6033	0.5277	0.5474	-0.008
Mof_H 	H 	0.0432	0.8578	0.05667	-0.015
Mof_H 	H 	0.1651	0.824	0.08677	-0.004
Mof_H 	H 	0.0953	0.9007	0.13077	0.003
Mof_H 	H 	0.7514	0.3337	0.20177	0
Mof_H 	H 	0.8394	0.4655	0.25287	0.009
Mof_H 	H 	0.9244	0.3967	0.21407	0.014
Mof_H 	H 	0.8146	0.9568	0.72333	0.024
Mof_H 	H 	0.6589	0.8349	0.75343	-0.029
Mof_H 	H 	0.8054	0.9047	0.79743	-0.011
Mof_H 	H 	0.5823	0.2486	0.86843	-0.004
Mof_H 	H 	0.6261	0.1606	0.91953	-0.021
Mof_H 	H 	0.4723	0.0756	0.88073	-0.043
Mof_H 	H 	0.0432	0.1854	0.77667	-0.029
Mof_H 	H 	0.1651	0.3411	0.74657	-0.01
Mof_H 	H 	0.0953	0.1946	0.70257	-0.025
Mof_H 	H 	0.7514	0.4177	0.63157	0.01
Mof_H 	H 	0.8394	0.3739	0.58047	0.011
Mof_H 	H 	0.9244	0.5277	0.61927	0.027
Mof_H 	H 	0.8146	0.8578	0.11	0.02
Mof_H 	H 	0.6589	0.824	0.0799	-0.02
Mof_H 	H 	0.8054	0.9007	0.0359	-0.012
Mof_H 	H 	0.5823	0.3337	0.9649	-0.008
Mof_H 	H 	0.6261	0.4655	0.9138	-0.025
Mof_H 	H 	0.4723	0.3967	0.9526	-0.027
Mof_H 	H 	0.1422	0.9568	0.44333	-0.004
Mof_H 	H 	0.176	0.8349	0.41323	-0.042
Mof_H 	H 	0.0993	0.9047	0.36923	-0.041
Mof_H 	H 	0.6663	0.2486	0.29823	0.001
Mof_H 	H 	0.5345	0.1606	0.24713	-0.029
Mof_H 	H 	0.6033	0.0756	0.28593	-0.037
Mof_H 	H 	0.9568	0.8146	0.27667	0.023
Mof_H 	H 	0.8349	0.6589	0.24657	-0.029
Mof_H 	H 	0.9047	0.8054	0.20257	-0.011
Mof_H 	H 	0.2486	0.5823	0.13157	-0.011
Mof_H 	H 	0.1606	0.6261	0.08047	-0.041
Mof_H 	H 	0.0756	0.4723	0.11927	-0.055
Mof_H 	H 	0.1854	0.1422	0.61	-0.04
Mof_H 	H 	0.3411	0.176	0.5799	-0.044
Mof_H 	H 	0.1946	0.0993	0.5359	-0.061
Mof_H 	H 	0.4177	0.6663	0.4649	0.004
Mof_H 	H 	0.3739	0.5345	0.4138	-0.018
Mof_H 	H 	0.5277	0.6033	0.4526	-0.008
Mof_H 	H 	0.8578	0.0432	0.94333	0.013
Mof_H 	H 	0.824	0.1651	0.91323	0.013
Mof_H 	H 	0.9007	0.0953	0.86923	0.01
Mof_H 	H 	0.3337	0.7514	0.79823	0.002
Mof_H 	H 	0.4655	0.8394	0.74713	0.011
Mof_H 	H 	0.3967	0.9244	0.78593	0.018
Mof_C 	C 	0.9619	0.5122	0.9682	0.352
Mof_C 	C 	0.8282	0.7533	0.9295	0.19
Mof_C 	C 	0.4229	0.5765	0.0446	0.12
Mof_C 	C 	0.5503	0.0381	0.63487	-0.022
Mof_C 	C 	0.9251	0.1718	0.59617	0.315
Mof_C 	C 	0.1536	0.5771	0.71127	0.175
Mof_C 	C 	0.4878	0.4497	0.30153	0.132
Mof_C 	C 	0.2467	0.0749	0.26283	0.106
Mof_C 	C 	0.4235	0.8464	0.37793	0.152
Mof_C 	C 	0.0381	0.4878	0.4682	-0.013
Mof_C 	C 	0.1718	0.2467	0.4295	0.258
Mof_C 	C 	0.5771	0.4235	0.5446	0.195
Mof_C 	C 	0.4497	0.9619	0.13487	0.267
Mof_C 	C 	0.0749	0.8282	0.09617	0.099
Mof_C 	C 	0.8464	0.4229	0.21127	0.158
Mof_C 	C 	0.5122	0.5503	0.80153	0.132
Mof_C 	C 	0.7533	0.9251	0.76283	0.301
Mof_C 	C 	0.5765	0.1536	0.87793	0.173
Mof_C 	C 	0.4497	0.4878	0.69847	0.132
Mof_C 	C 	0.0749	0.2467	0.73717	0.113
Mof_C 	C 	0.8464	0.4235	0.62207	0.154
Mof_C 	C 	0.5122	0.9619	0.0318	0.196
Mof_C 	C 	0.7533	0.8282	0.0705	0.207
Mof_C 	C 	0.5765	0.4229	0.9554	0.242
Mof_C 	C 	0.0381	0.5503	0.36513	-0.014
Mof_C 	C 	0.1718	0.9251	0.40383	0.318
Mof_C 	C 	0.5771	0.1536	0.28873	0.174
Mof_C 	C 	0.5503	0.5122	0.19847	0.129
Mof_C 	C 	0.9251	0.7533	0.23717	0.298
Mof_C 	C 	0.1536	0.5765	0.12207	0.185
Mof_C 	C 	0.4878	0.0381	0.5318	-0.021
Mof_C 	C 	0.2467	0.1718	0.5705	0.259
Mof_C 	C 	0.4235	0.5771	0.4554	0.195
Mof_C 	C 	0.9619	0.4497	0.86513	0.287
Mof_C 	C 	0.8282	0.0749	0.90383	0.078
Mof_C 	C 	0.4229	0.8464	0.78873	0.155
Mof_C 	C 	0.0335	0.51675	0.91667	-0.394
Mof_C 	C 	0.1749	0.58745	0.91667	0.198
Mof_C 	C 	0.48325	0.9665	0.58333	0.075
Mof_C 	C 	0.41255	0.8251	0.58333	0.088
Mof_C 	C 	0.48325	0.51675	0.25	-0.154
Mof_C 	C 	0.41255	0.58745	0.25	0.132
Mof_C 	C 	0.9665	0.48325	0.41667	0.064
Mof_C 	C 	0.8251	0.41255	0.41667	0.09
Mof_C 	C 	0.51675	0.0335	0.08333	-0.346
Mof_C 	C 	0.58745	0.1749	0.08333	0.153
Mof_C 	C 	0.51675	0.48325	0.75	-0.154
Mof_C 	C 	0.58745	0.41255	0.75	0.134
Mof_N 	N 	0.9011	0.5087	0.0084	-0.238
Mof_N 	N 	0.6076	0.0989	0.67507	-0.129
Mof_N 	N 	0.4913	0.3924	0.34173	-0.155
Mof_N 	N 	0.0989	0.4913	0.5084	-0.128
Mof_N 	N 	0.3924	0.9011	0.17507	-0.18
Mof_N 	N 	0.5087	0.6076	0.84173	-0.159
Mof_N 	N 	0.3924	0.4913	0.65827	-0.155
Mof_N 	N 	0.5087	0.9011	0.9916	-0.128
Mof_N 	N 	0.0989	0.6076	0.32493	-0.131
Mof_N 	N 	0.6076	0.5087	0.15827	-0.159
Mof_N 	N 	0.4913	0.0989	0.4916	-0.127
Mof_N 	N 	0.9011	0.3924	0.82493	-0.186
Mof_N 	N 	0.2886	0.6443	0.91667	-0.174
Mof_N 	N 	0.3557	0.7114	0.58333	-0.132
Mof_N 	N 	0.3557	0.6443	0.25	-0.155
Mof_N 	N 	0.7114	0.3557	0.41667	-0.134
Mof_N 	N 	0.6443	0.2886	0.08333	-0.177
Mof_N 	N 	0.6443	0.3557	0.75	-0.155
Mof_O 	O 	0.7062	0.7293	0.9471	-0.652
Mof_O 	O 	0.5183	0.6405	0.9987	-0.628
Mof_O 	O 	0.0231	0.2938	0.61377	-0.742
Mof_O 	O 	0.1222	0.4817	0.66537	-0.684
Mof_O 	O 	0.2707	0.9769	0.28043	-0.572
Mof_O 	O 	0.3595	0.8778	0.33203	-0.627
Mof_O 	O 	0.2938	0.2707	0.4471	-0.745
Mof_O 	O 	0.4817	0.3595	0.4987	-0.736
Mof_O 	O 	0.9769	0.7062	0.11377	-0.571
Mof_O 	O 	0.8778	0.5183	0.16537	-0.633
Mof_O 	O 	0.7293	0.0231	0.78043	-0.732
Mof_O 	O 	0.6405	0.1222	0.83203	-0.679
Mof_O 	O 	0.9769	0.2707	0.71957	-0.58
Mof_O 	O 	0.8778	0.3595	0.66797	-0.633
Mof_O 	O 	0.7293	0.7062	0.0529	-0.688
Mof_O 	O 	0.6405	0.5183	0.0013	-0.739
Mof_O 	O 	0.2938	0.0231	0.38623	-0.742
Mof_O 	O 	0.4817	0.1222	0.33463	-0.681
Mof_O 	O 	0.0231	0.7293	0.21957	-0.733
Mof_O 	O 	0.1222	0.6405	0.16797	-0.686
Mof_O 	O 	0.2707	0.2938	0.5529	-0.745
Mof_O 	O 	0.3595	0.4817	0.5013	-0.736
Mof_O 	O 	0.7062	0.9769	0.88623	-0.552
Mof_O 	O 	0.5183	0.8778	0.83463	-0.624
_end
