data_functionalizedCrystal
_audit_creation_method	'EQeq! by Chris Wilmer'
_symmetry_space_group_name_H-M	'P1'
_symmetry_Int_Tables_number	1
_symmetry_cell_setting	triclinic
loop_
_symmetry_equiv_pos_as_xyz
  x,y,z
_cell_length_a	12.126
_cell_length_b	12.6787
_cell_length_c	21.568
_cell_angle_alpha	82.7587
_cell_angle_beta	74.717
_cell_angle_gamma	61.4318
loop_
_atom_site_label
_atom_site_type_symbol
_atom_site_fract_x
_atom_site_fract_y
_atom_site_fract_z
_atom_site_charge
Mof_Ho	Ho	0.77001	0.73918	0.47434	1.891
Mof_Ho	Ho	0.49081	0.73918	0.02566	1.885
Mof_Ho	Ho	0.22999	0.26082	0.52566	1.886
Mof_Ho	Ho	0.50919	0.26082	0.97434	1.889
Mof_Ho	Ho	0.78513	0.42974	0.25	1.514
Mof_Ho	Ho	0.21487	0.57026	0.75	1.52
Mof_Ho	Ho	0.24693	0.50614	0.25	1.976
Mof_Ho	Ho	0.75307	0.49386	0.75	1.975
Mof_H 	H 	0.0289	0.87	0.4144	0.045
Mof_H 	H 	0.42	0.7022	0.3804	0.052
Mof_H 	H 	0.0642	0.0422	0.4052	0.064
Mof_H 	H 	0.3662	0.806	0.481	0.077
Mof_H 	H 	0.5947	0.8784	0.3356	0.069
Mof_H 	H 	0.4182	0.0606	0.3461	0.048
Mof_H 	H 	0.1011	0.87	0.0856	0.045
Mof_H 	H 	0.8778	0.7022	0.1196	0.052
Mof_H 	H 	0.8936	0.0422	0.0948	0.063
Mof_H 	H 	0.8278	0.806	0.019	0.075
Mof_H 	H 	0.5269	0.8784	0.1644	0.069
Mof_H 	H 	0.5212	0.0606	0.1539	0.048
Mof_H 	H 	0.9711	0.13	0.5856	0.044
Mof_H 	H 	0.58	0.2978	0.6196	0.058
Mof_H 	H 	0.9358	0.9578	0.5948	0.048
Mof_H 	H 	0.6338	0.194	0.519	0.057
Mof_H 	H 	0.4053	0.1216	0.6644	0.045
Mof_H 	H 	0.5818	0.9394	0.6539	0.075
Mof_H 	H 	0.8989	0.13	0.9144	0.043
Mof_H 	H 	0.1222	0.2978	0.8804	0.059
Mof_H 	H 	0.1064	0.9578	0.9052	0.046
Mof_H 	H 	0.1722	0.194	0.981	0.057
Mof_H 	H 	0.4731	0.1216	0.8356	0.045
Mof_H 	H 	0.4788	0.9394	0.8461	0.076
Mof_C 	C 	0.7173	0.6374	0.3523	0.415
Mof_C 	C 	0.2787	0.3046	0.3614	0.424
Mof_C 	C 	0.0047	0.717	0.3478	0.4
Mof_C 	C 	0.1216	0.721	0.3599	-0.046
Mof_C 	C 	0.1116	0.8088	0.3948	-0.026
Mof_C 	C 	0.2228	0.8088	0.4016	-0.012
Mof_C 	C 	0.3413	0.7102	0.3747	-0.033
Mof_C 	C 	0.3421	0.6258	0.3403	-0.029
Mof_C 	C 	0.4622	0.5176	0.3044	0.391
Mof_C 	C 	0.0287	0.2466	0.457	0.347
Mof_C 	C 	0.1263	0.1134	0.4586	0.002
Mof_C 	C 	0.1262	0.0236	0.4297	-0.112
Mof_C 	C 	0.2166	0.9042	0.436	0.079
Mof_C 	C 	0.3044	0.8852	0.4734	-0.123
Mof_C 	C 	0.2993	0.9814	0.4985	0.101
Mof_C 	C 	0.3704	1.92973e-23	0.5418	0.199
Mof_C 	C 	0.6581	0.7158	0.2993	-0.026
Mof_C 	C 	0.6001	0.8378	0.3	-0.059
Mof_C 	C 	0.3586	0.2228	0.3039	-0.047
Mof_C 	C 	0.4194	0.1012	0.3059	-0.023
Mof_C 	C 	0.6453	0.6374	0.1477	0.415
Mof_C 	C 	0.4167	0.3046	0.1386	0.424
Mof_C 	C 	0.2783	0.717	0.1522	0.402
Mof_C 	C 	0.1574	0.721	0.1401	-0.046
Mof_C 	C 	0.0796	0.8088	0.1052	-0.029
Mof_C 	C 	0.9684	0.8088	0.0984	-0.009
Mof_C 	C 	0.9485	0.7102	0.1253	-0.032
Mof_C 	C 	0.0321	0.6258	0.1597	-0.031
Mof_C 	C 	0.0202	0.5176	0.1956	0.389
Mof_C 	C 	0.7247	0.2466	0.043	0.35
Mof_C 	C 	0.7603	0.1134	0.0414	0.001
Mof_C 	C 	0.8502	0.0236	0.0703	-0.109
Mof_C 	C 	0.8792	0.9042	0.064	0.075
Mof_C 	C 	0.8104	0.8852	0.0266	-0.12
Mof_C 	C 	0.7193	0.9814	0.0015	0.096
Mof_C 	C 	0.6296	1.92973e-23	0.9582	0.199
Mof_C 	C 	0.6261	0.7158	0.2007	-0.026
Mof_C 	C 	0.5621	0.8378	0.2	-0.06
Mof_C 	C 	0.4186	0.2228	0.1961	-0.047
Mof_C 	C 	0.4794	0.1012	0.1941	-0.023
Mof_C 	C 	0.2827	0.3626	0.6477	0.421
Mof_C 	C 	0.7213	0.6954	0.6386	0.417
Mof_C 	C 	0.9953	0.283	0.6522	0.402
Mof_C 	C 	0.8784	0.279	0.6401	-0.043
Mof_C 	C 	0.8884	0.1912	0.6052	-0.044
Mof_C 	C 	0.7772	0.1912	0.5984	0.015
Mof_C 	C 	0.6587	0.2898	0.6253	-0.05
Mof_C 	C 	0.6579	0.3742	0.6597	-0.024
Mof_C 	C 	0.5378	0.4824	0.6956	0.389
Mof_C 	C 	0.9713	0.7534	0.543	0.363
Mof_C 	C 	0.8737	0.8866	0.5414	-0.026
Mof_C 	C 	0.8738	0.9764	0.5703	-0.023
Mof_C 	C 	0.7834	0.0958	0.564	-0.003
Mof_C 	C 	0.6956	0.1148	0.5266	-0.066
Mof_C 	C 	0.7007	0.0186	0.5015	0.024
Mof_C 	C 	0.6296	0	0.4582	0.228
Mof_C 	C 	0.3419	0.2842	0.7007	-0.045
Mof_C 	C 	0.3999	0.1622	0.7	-0.019
Mof_C 	C 	0.6414	0.7772	0.6961	-0.026
Mof_C 	C 	0.5806	0.8988	0.6941	-0.066
Mof_C 	C 	0.3547	0.3626	0.8523	0.421
Mof_C 	C 	0.5833	0.6954	0.8614	0.417
Mof_C 	C 	0.7217	0.283	0.8478	0.4
Mof_C 	C 	0.8426	0.279	0.8599	-0.043
Mof_C 	C 	0.9204	0.1912	0.8948	-0.042
Mof_C 	C 	0.0316	0.1912	0.9016	0.015
Mof_C 	C 	0.0515	0.2898	0.8747	-0.053
Mof_C 	C 	0.9679	0.3742	0.8403	-0.022
Mof_C 	C 	0.9798	0.4824	0.8044	0.391
Mof_C 	C 	0.2753	0.7534	0.957	0.36
Mof_C 	C 	0.2397	0.8866	0.9586	-0.026
Mof_C 	C 	0.1498	0.9764	0.9297	-0.022
Mof_C 	C 	0.1208	0.0958	0.936	-0.004
Mof_C 	C 	0.1896	0.1148	0.9734	-0.065
Mof_C 	C 	0.2807	0.0186	0.9985	0.021
Mof_C 	C 	0.3704	1.20608e-24	0.0418	0.232
Mof_C 	C 	0.3739	0.2842	0.7993	-0.045
Mof_C 	C 	0.4379	0.1622	0.8	-0.019
Mof_C 	C 	0.5814	0.7772	0.8039	-0.025
Mof_C 	C 	0.5206	0.8988	0.8059	-0.066
Mof_C 	C 	0.5488	0.9024	0.25	0.052
Mof_C 	C 	0.4812	0.0376	0.25	-0.023
Mof_C 	C 	0.4512	0.0976	0.75	-0.028
Mof_C 	C 	0.5188	0.9624	0.75	0.06
Mof_N 	N 	0.2344	0.6328	0.3307	-0.199
Mof_N 	N 	0.2108	0.0892	0.4938	-0.223
Mof_N 	N 	0.1328	0.6328	0.1693	-0.199
Mof_N 	N 	0.7	0.0892	0.0062	-0.221
Mof_N 	N 	0.7656	0.3672	0.6693	-0.201
Mof_N 	N 	0.7892	0.9108	0.5062	-0.187
Mof_N 	N 	0.8672	0.3672	0.8307	-0.201
Mof_N 	N 	0.3	0.9108	0.9938	-0.184
Mof_N 	N 	0.6726	0.6548	0.25	-0.162
Mof_N 	N 	0.3576	0.2848	0.25	-0.195
Mof_N 	N 	0.3274	0.3452	0.75	-0.155
Mof_N 	N 	0.6424	0.7152	0.75	-0.202
Mof_O 	O 	0.0312	0.6496	0.302	-0.456
Mof_O 	O 	0.8961	0.777	0.3819	-0.483
Mof_O 	O 	0.4483	0.4514	0.2743	-0.485
Mof_O 	O 	0.5692	0.5096	0.31	-0.442
Mof_O 	O 	0.0415	0.3146	0.4893	-0.464
Mof_O 	O 	0.9527	0.2786	0.423	-0.294
Mof_O 	O 	0.3982	0.0906	0.5336	-0.44
Mof_O 	O 	0.3867	0.9066	0.5815	-0.215
Mof_O 	O 	0.7789	0.5268	0.3426	-0.436
Mof_O 	O 	0.6905	0.6906	0.4041	-0.51
Mof_O 	O 	0.2181	0.414	0.3525	-0.494
Mof_O 	O 	0.2877	0.2504	0.4148	-0.498
Mof_O 	O 	0.3192	0.6496	0.198	-0.456
Mof_O 	O 	0.3269	0.777	0.1181	-0.486
Mof_O 	O 	0.1003	0.4514	0.2257	-0.485
Mof_O 	O 	0.9212	0.5096	0.19	-0.441
Mof_O 	O 	0.6439	0.3146	0.0107	-0.464
Mof_O 	O 	0.7687	0.2786	0.077	-0.296
Mof_O 	O 	0.5112	0.0906	0.9664	-0.44
Mof_O 	O 	0.7067	0.9066	0.9185	-0.212
Mof_O 	O 	0.6943	0.5268	0.1574	-0.437
Mof_O 	O 	0.6189	0.6906	0.0959	-0.51
Mof_O 	O 	0.3679	0.414	0.1475	-0.493
Mof_O 	O 	0.4619	0.2504	0.0852	-0.499
Mof_O 	O 	0.9688	0.3504	0.698	-0.457
Mof_O 	O 	0.1039	0.223	0.6181	-0.492
Mof_O 	O 	0.5517	0.5486	0.7257	-0.484
Mof_O 	O 	0.4308	0.4904	0.69	-0.442
Mof_O 	O 	0.9585	0.6854	0.5107	-0.467
Mof_O 	O 	0.0473	0.7214	0.577	-0.299
Mof_O 	O 	0.6018	0.9094	0.4664	-0.43
Mof_O 	O 	0.6133	0.0934	0.4185	-0.236
Mof_O 	O 	0.2211	0.4732	0.6574	-0.439
Mof_O 	O 	0.3095	0.3094	0.5959	-0.512
Mof_O 	O 	0.7819	0.586	0.6475	-0.491
Mof_O 	O 	0.7123	0.7496	0.5852	-0.494
Mof_O 	O 	0.6808	0.3504	0.802	-0.458
Mof_O 	O 	0.6731	0.223	0.8819	-0.49
Mof_O 	O 	0.8997	0.5486	0.7743	-0.484
Mof_O 	O 	0.0788	0.4904	0.81	-0.443
Mof_O 	O 	0.3561	0.6854	0.9893	-0.465
Mof_O 	O 	0.2313	0.7214	0.923	-0.296
Mof_O 	O 	0.4888	0.9094	0.0336	-0.432
Mof_O 	O 	0.2933	0.0934	0.0815	-0.237
Mof_O 	O 	0.3057	0.4732	0.8426	-0.438
Mof_O 	O 	0.3811	0.3094	0.9041	-0.513
Mof_O 	O 	0.6321	0.586	0.8525	-0.491
Mof_O 	O 	0.5381	0.7496	0.9148	-0.492
_end
