data_functionalizedCrystal
_audit_creation_method	'EQeq! by Chris Wilmer'
_symmetry_space_group_name_H-M	'P1'
_symmetry_Int_Tables_number	1
_symmetry_cell_setting	triclinic
loop_
_symmetry_equiv_pos_as_xyz
  x,y,z
_cell_length_a	7.3338
_cell_length_b	7.3338
_cell_length_c	24.41
_cell_angle_alpha	90
_cell_angle_beta	90
_cell_angle_gamma	120
loop_
_atom_site_label
_atom_site_type_symbol
_atom_site_fract_x
_atom_site_fract_y
_atom_site_fract_z
_atom_site_charge
Mof_O 	O 	0.3372	0.451	0.1323	-0.349
Mof_O 	O 	0.92	0.2995	0.9646	-0.298
Mof_O 	O 	0.1426	0.4201	0.0339	-0.345
Mof_C 	C 	0.0317	0.4335	0.9993	0.409
Mof_H 	H 	0.0299	0.5593	0.9985	-0.075
Mof_O 	O 	0.549	0.8862	0.46563	-0.312
Mof_O 	O 	0.7005	0.6205	0.29793	-0.319
Mof_O 	O 	0.5799	0.7225	0.36723	-0.328
Mof_C 	C 	0.5665	0.5982	0.33263	0.438
Mof_H 	H 	0.4407	0.4706	0.33183	-0.083
Mof_O 	O 	0.1138	0.6628	0.79897	-0.333
Mof_O 	O 	0.3795	0.08	0.63127	-0.349
Mof_O 	O 	0.2775	0.8574	0.70057	-0.345
Mof_C 	C 	0.4018	0.9683	0.66597	0.468
Mof_H 	H 	0.5294	0.9701	0.66517	-0.084
Mof_O 	O 	0.6628	0.549	0.6323	-0.336
Mof_O 	O 	0.08	0.7005	0.4646	-0.342
Mof_O 	O 	0.8574	0.5799	0.5339	-0.338
Mof_C 	C 	0.9683	0.5665	0.4993	0.468
Mof_H 	H 	0.9701	0.4407	0.4985	-0.086
Mof_O 	O 	0.451	0.1138	0.96563	-0.324
Mof_O 	O 	0.2995	0.3795	0.79793	-0.333
Mof_O 	O 	0.4201	0.2775	0.86723	-0.342
Mof_C 	C 	0.4335	0.4018	0.83263	0.439
Mof_H 	H 	0.5593	0.5294	0.83183	-0.078
Mof_O 	O 	0.8862	0.3372	0.29897	-0.32
Mof_O 	O 	0.6205	0.92	0.13127	-0.292
Mof_O 	O 	0.7225	0.1426	0.20057	-0.324
Mof_C 	C 	0.5982	0.0317	0.16597	0.389
Mof_H 	H 	0.4706	0.0299	0.16517	-0.074
Mof_O 	O 	0.451	0.3372	0.20103	-0.348
Mof_O 	O 	0.2995	0.92	0.36873	-0.297
Mof_O 	O 	0.4201	0.1426	0.29943	-0.332
Mof_C 	C 	0.4335	0.0317	0.33403	0.389
Mof_H 	H 	0.5593	0.0299	0.33483	-0.072
Mof_O 	O 	0.8862	0.549	0.8677	-0.311
Mof_O 	O 	0.6205	0.7005	0.0354	-0.316
Mof_O 	O 	0.7225	0.5799	0.9661	-0.313
Mof_C 	C 	0.5982	0.5665	0.0007	0.415
Mof_H 	H 	0.4706	0.4407	0.0015	-0.079
Mof_O 	O 	0.6628	0.1138	0.53437	-0.333
Mof_O 	O 	0.08	0.3795	0.70207	-0.35
Mof_O 	O 	0.8574	0.2775	0.63277	-0.345
Mof_C 	C 	0.9683	0.4018	0.66737	0.47
Mof_H 	H 	0.9701	0.5294	0.66817	-0.084
Mof_O 	O 	0.549	0.6628	0.70103	-0.336
Mof_O 	O 	0.7005	0.08	0.86873	-0.34
Mof_O 	O 	0.5799	0.8574	0.79943	-0.337
Mof_C 	C 	0.5665	0.9683	0.83403	0.466
Mof_H 	H 	0.4407	0.9701	0.83483	-0.085
Mof_O 	O 	0.1138	0.451	0.3677	-0.339
Mof_O 	O 	0.3795	0.2995	0.5354	-0.333
Mof_O 	O 	0.2775	0.4201	0.4661	-0.343
Mof_C 	C 	0.4018	0.4335	0.5007	0.439
Mof_H 	H 	0.5294	0.5593	0.5015	-0.078
Mof_O 	O 	0.3372	0.8862	0.03437	-0.317
Mof_O 	O 	0.92	0.6205	0.20207	-0.292
Mof_O 	O 	0.1426	0.7225	0.13277	-0.325
Mof_C 	C 	0.0317	0.5982	0.16737	0.39
Mof_H 	H 	0.0299	0.4706	0.16817	-0.075
Mof_Cu	Cu	0.36398	0.68199	0.08333	0.956
Mof_Cu	Cu	0.31801	0.68199	0.41667	0.957
Mof_Cu	Cu	0.31801	0.63602	0.75	0.957
Mof_Cu	Cu	0.63602	0.31801	0.58333	0.957
Mof_Cu	Cu	0.68199	0.31801	0.91667	0.957
Mof_Cu	Cu	0.68199	0.36398	0.25	0.956
Mof_C 	C 	0.474	0.474	0.16667	0.414
Mof_H 	H 	0.6008	0.6008	0.16667	-0.073
Mof_C 	C 	0.526	0	0.5	0.371
Mof_H 	H 	0.3992	0	0.5	-0.07
Mof_C 	C 	-3.97094e-17	0.526	0.83333	0.37
Mof_H 	H 	-1.4712e-17	0.3992	0.83333	-0.07
Mof_C 	C 	0.526	0.526	0.66667	0.411
Mof_H 	H 	0.3992	0.3992	0.66667	-0.077
Mof_C 	C 	0.474	0	-0	0.352
Mof_H 	H 	0.6008	0	-0	-0.065
Mof_C 	C 	1.41139e-17	0.474	0.33333	0.375
Mof_H 	H 	1.41139e-17	0.6008	0.33333	-0.069
_end
