data_functionalizedCrystal
_audit_creation_method	'EQeq! by Chris Wilmer'
_symmetry_space_group_name_H-M	'P1'
_symmetry_Int_Tables_number	1
_symmetry_cell_setting	triclinic
loop_
_symmetry_equiv_pos_as_xyz
  x,y,z
_cell_length_a	28.519
_cell_length_b	13.8219
_cell_length_c	44.097
_cell_angle_alpha	90
_cell_angle_beta	90
_cell_angle_gamma	90
loop_
_atom_site_label
_atom_site_type_symbol
_atom_site_fract_x
_atom_site_fract_y
_atom_site_fract_z
_atom_site_charge
Mof_C 	C 	0.0434	0.0173	0.5461	0.075
Mof_H 	H 	0.0322	0.0562	0.5623	-0.014
Mof_C 	C 	0.0521	0.0609	0.5187	-0.125
Mof_H 	H 	0.0478	0.1286	0.5163	0.096
Mof_C 	C 	0.0673	0.0041	0.4944	0.06
Mof_C 	C 	0.0719	0.9049	0.4991	-0.12
Mof_H 	H 	0.0815	0.8635	0.4831	0.085
Mof_C 	C 	0.0623	0.8677	0.5274	0.073
Mof_H 	H 	0.0647	0.7997	0.5302	-0.005
Mof_C 	C 	0.0802	0.0499	0.4654	0.096
Mof_C 	C 	0.0861	0.1824	0.4364	0.09
Mof_C 	C 	0.1181	0.0434	0.4207	0.103
Mof_C 	C 	0.0732	0.2854	0.4307	0.054
Mof_C 	C 	0.0492	0.3394	0.4526	-0.128
Mof_H 	H 	0.0418	0.312	0.4718	0.093
Mof_C 	C 	0.0365	0.4341	0.4457	0.077
Mof_H 	H 	0.0205	0.471	0.4607	-0.01
Mof_C 	C 	0.0693	0.4233	0.399	0.085
Mof_H 	H 	0.0771	0.4534	0.3803	-0.007
Mof_C 	C 	0.0833	0.3295	0.4032	-0.134
Mof_H 	H 	0.0995	0.2955	0.3876	0.101
Mof_C 	C 	0.1435	0.9872	0.3972	0.066
Mof_C 	C 	0.1661	0.0312	0.3736	-0.127
Mof_H 	H 	0.1645	0.0995	0.3713	0.089
Mof_C 	C 	0.1909	0.977	0.3533	0.082
Mof_H 	H 	0.207	0.0093	0.3374	-0.014
Mof_C 	C 	0.1704	0.8366	0.3771	0.071
Mof_H 	H 	0.1711	0.768	0.3781	-0.01
Mof_C 	C 	0.1454	0.887	0.3989	-0.113
Mof_H 	H 	0.1298	0.8535	0.4148	0.078
Mof_C 	C 	0.3138	0.112	0.7732	0.068
Mof_H 	H 	0.3411	0.13	0.7841	-0.008
Mof_C 	C 	0.3191	0.0767	0.7441	-0.116
Mof_H 	H 	0.3494	0.0702	0.7354	0.081
Mof_C 	C 	0.2802	0.0513	0.72792	0.051
Mof_C 	C 	0.2365	0.0585	0.74203	-0.108
Mof_H 	H 	0.2089	0.0403	0.7315	0.081
Mof_C 	C 	0.2338	0.0926	0.7715	0.06
Mof_H 	H 	0.2041	0.095	0.7813	0.003
Mof_C 	C 	0.2825	0.0207	0.69589	0.104
Mof_C 	C 	0.3232	0.9827	0.65396	0.101
Mof_C 	C 	0.2441	0.9844	0.65215	0.102
Mof_C 	C 	0.3688	0.9671	0.63839	0.056
Mof_C 	C 	0.4109	0.9787	0.6537	-0.117
Mof_H 	H 	0.4112	0.0002	0.6741	0.082
Mof_C 	C 	0.4523	0.9586	0.6388	0.076
Mof_H 	H 	0.4809	0.9659	0.6496	-0.012
Mof_C 	C 	0.4134	0.9208	0.5948	0.068
Mof_H 	H 	0.4144	0.9016	0.5741	-0.008
Mof_C 	C 	0.3701	0.9389	0.60811	-0.111
Mof_H 	H 	0.342	0.9322	0.5968	0.079
Mof_C 	C 	0.1993	0.9677	0.6361	0.055
Mof_C 	C 	0.1969	0.9362	0.6067	-0.127
Mof_H 	H 	0.2245	0.9286	0.5949	0.081
Mof_C 	C 	0.1531	0.9158	0.5948	0.081
Mof_H 	H 	0.1515	0.892	0.5746	-0.017
Mof_C 	C 	0.1157	0.9636	0.6379	0.06
Mof_H 	H 	0.0873	0.9764	0.6484	-0.011
Mof_C 	C 	0.1576	0.983	0.6521	-0.117
Mof_H 	H 	0.1582	0.0063	0.6724	0.081
Mof_N 	N 	0.0499	0.9224	0.55107	-0.275
Mof_N 	N 	0.0697	0.1438	0.46181	-0.142
Mof_N 	N 	0.1112	0.1372	0.41542	-0.135
Mof_N 	N 	0.1028	0.9952	0.44499	-0.139
Mof_N 	N 	0.0458	0.4752	0.41915	-0.278
Mof_N 	N 	0.1937	0.8809	0.3549	-0.276
Mof_N 	N 	0.2719	0.122	0.78662	-0.27
Mof_N 	N 	0.3241	0.0079	0.68328	-0.139
Mof_N 	N 	0.2841	0.9708	0.637	-0.138
Mof_N 	N 	0.2412	0.0101	0.68134	-0.139
Mof_N 	N 	0.454	0.9294	0.61012	-0.268
Mof_N 	N 	0.1135	0.9274	0.60984	-0.272
Mof_I 	I 	0.98705	0.96172	0.6248	-0.366
Mof_I 	I 	0.06356	0.69114	0.5938	-0.386
Mof_I 	I 	0.20059	0.63388	0.31867	-0.373
Mof_I 	I 	0.3202	0.81438	0.34374	-0.376
Mof_I 	I 	0.06402	0.6834	0.36593	-0.369
Mof_I 	I 	0.00176	0.69499	0.45922	-0.394
Mof_Zn	Zn	0.0495	0.87228	0.59502	1.163
Mof_Zn	Zn	0.23548	0.80157	0.32644	1.165
Mof_Zn	Zn	0.01788	0.60843	0.4089	1.163
Mof_C 	C 	0.4566	0.9827	0.0461	0.072
Mof_H 	H 	0.4678	0.9438	0.0623	-0.015
Mof_C 	C 	0.4479	0.9391	0.0187	-0.125
Mof_H 	H 	0.4522	0.8714	0.0163	0.095
Mof_C 	C 	0.4327	0.9959	0.9944	0.057
Mof_C 	C 	0.4281	0.0951	0.9991	-0.119
Mof_H 	H 	0.4185	0.1365	0.9831	0.083
Mof_C 	C 	0.4377	0.1323	0.0274	0.072
Mof_H 	H 	0.4353	0.2003	0.0302	-0.006
Mof_C 	C 	0.4198	0.9501	0.9654	0.094
Mof_C 	C 	0.4139	0.8176	0.9364	0.088
Mof_C 	C 	0.3819	0.9566	0.9207	0.1
Mof_C 	C 	0.4268	0.7146	0.9307	0.053
Mof_C 	C 	0.4508	0.6606	0.9526	-0.129
Mof_H 	H 	0.4582	0.688	0.9718	0.092
Mof_C 	C 	0.4635	0.5659	0.9457	0.076
Mof_H 	H 	0.4795	0.529	0.9607	-0.011
Mof_C 	C 	0.4307	0.5767	0.899	0.084
Mof_H 	H 	0.4229	0.5466	0.8803	-0.008
Mof_C 	C 	0.4167	0.6705	0.9032	-0.135
Mof_H 	H 	0.4005	0.7045	0.8876	0.1
Mof_C 	C 	0.3565	0.0128	0.8972	0.068
Mof_C 	C 	0.3339	0.9688	0.8736	-0.133
Mof_H 	H 	0.3355	0.9005	0.8713	0.09
Mof_C 	C 	0.3091	0.023	0.8533	0.085
Mof_H 	H 	0.293	0.9907	0.8374	-0.017
Mof_C 	C 	0.3296	0.1634	0.8771	0.071
Mof_H 	H 	0.3289	0.232	0.8781	-0.012
Mof_C 	C 	0.3546	0.113	0.8989	-0.116
Mof_H 	H 	0.3702	0.1465	0.9148	0.077
Mof_C 	C 	0.1862	0.888	0.2732	0.067
Mof_H 	H 	0.1589	0.87	0.2841	-0.009
Mof_C 	C 	0.1809	0.9233	0.2441	-0.117
Mof_H 	H 	0.1506	0.9298	0.2354	0.08
Mof_C 	C 	0.2198	0.9487	0.22792	0.05
Mof_C 	C 	0.2635	0.9415	0.24203	-0.109
Mof_H 	H 	0.2911	0.9597	0.2315	0.08
Mof_C 	C 	0.2662	0.9074	0.2715	0.059
Mof_H 	H 	0.2959	0.905	0.2813	0.002
Mof_C 	C 	0.2175	0.9793	0.19589	0.103
Mof_C 	C 	0.1768	0.0173	0.15396	0.101
Mof_C 	C 	0.2559	0.0156	0.15215	0.102
Mof_C 	C 	0.1312	0.0329	0.13839	0.055
Mof_C 	C 	0.0891	0.0213	0.1537	-0.115
Mof_H 	H 	0.0888	0.9998	0.1741	0.081
Mof_C 	C 	0.0477	0.0414	0.1388	0.075
Mof_H 	H 	0.0191	0.0341	0.1496	-0.011
Mof_C 	C 	0.0866	0.0792	0.0948	0.068
Mof_H 	H 	0.0856	0.0984	0.0741	-0.008
Mof_C 	C 	0.1299	0.0611	0.10811	-0.11
Mof_H 	H 	0.158	0.0678	0.0968	0.079
Mof_C 	C 	0.3007	0.0323	0.1361	0.054
Mof_C 	C 	0.3031	0.0638	0.1067	-0.126
Mof_H 	H 	0.2755	0.0714	0.0949	0.081
Mof_C 	C 	0.3469	0.0842	0.0948	0.08
Mof_H 	H 	0.3485	0.108	0.0746	-0.017
Mof_C 	C 	0.3843	0.0364	0.1379	0.059
Mof_H 	H 	0.4127	0.0236	0.1484	-0.01
Mof_C 	C 	0.3424	0.017	0.1521	-0.115
Mof_H 	H 	0.3418	0.9937	0.1724	0.079
Mof_N 	N 	0.4501	0.0776	0.05107	-0.275
Mof_N 	N 	0.4303	0.8562	0.96181	-0.142
Mof_N 	N 	0.3888	0.8628	0.91542	-0.135
Mof_N 	N 	0.3972	0.0048	0.94499	-0.138
Mof_N 	N 	0.4542	0.5248	0.91915	-0.278
Mof_N 	N 	0.3063	0.1191	0.8549	-0.277
Mof_N 	N 	0.2281	0.878	0.28662	-0.27
Mof_N 	N 	0.1759	0.9921	0.18328	-0.14
Mof_N 	N 	0.2159	0.0292	0.137	-0.138
Mof_N 	N 	0.2588	0.9899	0.18134	-0.139
Mof_N 	N 	0.046	0.0706	0.11012	-0.267
Mof_N 	N 	0.3865	0.0726	0.10984	-0.272
Mof_I 	I 	0.51295	0.03828	0.1248	-0.367
Mof_I 	I 	0.43644	0.30886	0.0938	-0.386
Mof_I 	I 	0.29941	0.36612	0.81867	-0.373
Mof_I 	I 	0.1798	0.18562	0.84374	-0.376
Mof_I 	I 	0.43598	0.3166	0.86593	-0.369
Mof_I 	I 	0.49824	0.30501	0.95922	-0.394
Mof_Zn	Zn	0.4505	0.12772	0.09502	1.163
Mof_Zn	Zn	0.26452	0.19843	0.82644	1.165
Mof_Zn	Zn	0.48212	0.39157	0.9089	1.163
Mof_C 	C 	0.9566	0.5173	0.9539	0.073
Mof_H 	H 	0.9678	0.5562	0.9377	-0.015
Mof_C 	C 	0.9479	0.5609	0.9813	-0.125
Mof_H 	H 	0.9522	0.6286	0.9837	0.095
Mof_C 	C 	0.9327	0.5041	0.0056	0.058
Mof_C 	C 	0.9281	0.4049	0.0009	-0.12
Mof_H 	H 	0.9185	0.3635	0.0169	0.083
Mof_C 	C 	0.9377	0.3677	0.9726	0.072
Mof_H 	H 	0.9353	0.2997	0.9698	-0.006
Mof_C 	C 	0.9198	0.5499	0.0346	0.094
Mof_C 	C 	0.9139	0.6824	0.0636	0.088
Mof_C 	C 	0.8819	0.5434	0.0793	0.101
Mof_C 	C 	0.9268	0.7854	0.0693	0.053
Mof_C 	C 	0.9508	0.8394	0.0474	-0.129
Mof_H 	H 	0.9582	0.812	0.0282	0.092
Mof_C 	C 	0.9635	0.9341	0.0543	0.076
Mof_H 	H 	0.9795	0.971	0.0393	-0.011
Mof_C 	C 	0.9307	0.9233	0.101	0.084
Mof_H 	H 	0.9229	0.9534	0.1197	-0.008
Mof_C 	C 	0.9167	0.8295	0.0968	-0.135
Mof_H 	H 	0.9005	0.7955	0.1124	0.1
Mof_C 	C 	0.8565	0.4872	0.1028	0.067
Mof_C 	C 	0.8339	0.5312	0.1264	-0.131
Mof_H 	H 	0.8355	0.5995	0.1287	0.089
Mof_C 	C 	0.8091	0.477	0.1467	0.083
Mof_H 	H 	0.793	0.5093	0.1626	-0.016
Mof_C 	C 	0.8296	0.3366	0.1229	0.071
Mof_H 	H 	0.8289	0.268	0.1219	-0.012
Mof_C 	C 	0.8546	0.387	0.1011	-0.115
Mof_H 	H 	0.8702	0.3535	0.0852	0.077
Mof_C 	C 	0.6862	0.612	0.7268	0.067
Mof_H 	H 	0.6589	0.63	0.7159	-0.009
Mof_C 	C 	0.6809	0.5767	0.7559	-0.117
Mof_H 	H 	0.6506	0.5702	0.7646	0.08
Mof_C 	C 	0.7198	0.5513	0.77208	0.05
Mof_C 	C 	0.7635	0.5585	0.75797	-0.109
Mof_H 	H 	0.7911	0.5403	0.7685	0.08
Mof_C 	C 	0.7662	0.5926	0.7285	0.059
Mof_H 	H 	0.7959	0.595	0.7187	0.002
Mof_C 	C 	0.7175	0.5207	0.80411	0.103
Mof_C 	C 	0.6768	0.4827	0.84604	0.1
Mof_C 	C 	0.7559	0.4844	0.84785	0.101
Mof_C 	C 	0.6312	0.4671	0.86161	0.056
Mof_C 	C 	0.5891	0.4787	0.8463	-0.116
Mof_H 	H 	0.5888	0.5002	0.8259	0.081
Mof_C 	C 	0.5477	0.4586	0.8612	0.076
Mof_H 	H 	0.5191	0.4659	0.8504	-0.012
Mof_C 	C 	0.5866	0.4208	0.9052	0.068
Mof_H 	H 	0.5856	0.4016	0.9259	-0.008
Mof_C 	C 	0.6299	0.4389	0.89189	-0.11
Mof_H 	H 	0.658	0.4322	0.9032	0.079
Mof_C 	C 	0.8007	0.4677	0.8639	0.054
Mof_C 	C 	0.8031	0.4362	0.8933	-0.126
Mof_H 	H 	0.7755	0.4286	0.9051	0.081
Mof_C 	C 	0.8469	0.4158	0.9052	0.08
Mof_H 	H 	0.8485	0.392	0.9254	-0.017
Mof_C 	C 	0.8843	0.4636	0.8621	0.059
Mof_H 	H 	0.9127	0.4764	0.8516	-0.01
Mof_C 	C 	0.8424	0.483	0.8479	-0.115
Mof_H 	H 	0.8418	0.5063	0.8276	0.08
Mof_N 	N 	0.9501	0.4224	0.94893	-0.275
Mof_N 	N 	0.9303	0.6438	0.03819	-0.142
Mof_N 	N 	0.8888	0.6372	0.08458	-0.135
Mof_N 	N 	0.8972	0.4952	0.05501	-0.139
Mof_N 	N 	0.9542	0.9752	0.08085	-0.278
Mof_N 	N 	0.8063	0.3809	0.1451	-0.277
Mof_N 	N 	0.7281	0.622	0.71338	-0.27
Mof_N 	N 	0.6759	0.5079	0.81672	-0.139
Mof_N 	N 	0.7159	0.4708	0.863	-0.138
Mof_N 	N 	0.7588	0.5101	0.81866	-0.139
Mof_N 	N 	0.546	0.4294	0.88988	-0.268
Mof_N 	N 	0.8865	0.4274	0.89016	-0.272
Mof_I 	I 	0.01295	0.46172	0.8752	-0.366
Mof_I 	I 	0.93644	0.19114	0.9062	-0.386
Mof_I 	I 	0.79941	0.13388	0.18133	-0.374
Mof_I 	I 	0.6798	0.31438	0.15626	-0.376
Mof_I 	I 	0.93598	0.1834	0.13407	-0.37
Mof_I 	I 	0.99824	0.19499	0.04078	-0.394
Mof_Zn	Zn	0.9505	0.37228	0.90498	1.163
Mof_Zn	Zn	0.76452	0.30157	0.17356	1.165
Mof_Zn	Zn	0.98212	0.10843	0.0911	1.163
Mof_C 	C 	0.5434	0.4827	0.4539	0.073
Mof_H 	H 	0.5322	0.4438	0.4377	-0.015
Mof_C 	C 	0.5521	0.4391	0.4813	-0.125
Mof_H 	H 	0.5478	0.3714	0.4837	0.095
Mof_C 	C 	0.5673	0.4959	0.5056	0.058
Mof_C 	C 	0.5719	0.5951	0.5009	-0.12
Mof_H 	H 	0.5815	0.6365	0.5169	0.083
Mof_C 	C 	0.5623	0.6323	0.4726	0.072
Mof_H 	H 	0.5647	0.7003	0.4698	-0.006
Mof_C 	C 	0.5802	0.4501	0.5346	0.094
Mof_C 	C 	0.5861	0.3176	0.5636	0.088
Mof_C 	C 	0.6181	0.4566	0.5793	0.101
Mof_C 	C 	0.5732	0.2146	0.5693	0.053
Mof_C 	C 	0.5492	0.1606	0.5474	-0.129
Mof_H 	H 	0.5418	0.188	0.5282	0.092
Mof_C 	C 	0.5365	0.0659	0.5543	0.076
Mof_H 	H 	0.5205	0.029	0.5393	-0.011
Mof_C 	C 	0.5693	0.0767	0.601	0.084
Mof_H 	H 	0.5771	0.0466	0.6197	-0.008
Mof_C 	C 	0.5833	0.1705	0.5968	-0.135
Mof_H 	H 	0.5995	0.2045	0.6124	0.1
Mof_C 	C 	0.6435	0.5128	0.6028	0.067
Mof_C 	C 	0.6661	0.4688	0.6264	-0.131
Mof_H 	H 	0.6645	0.4005	0.6287	0.089
Mof_C 	C 	0.6909	0.523	0.6467	0.083
Mof_H 	H 	0.707	0.4907	0.6626	-0.016
Mof_C 	C 	0.6704	0.6634	0.6229	0.071
Mof_H 	H 	0.6711	0.732	0.6219	-0.012
Mof_C 	C 	0.6454	0.613	0.6011	-0.115
Mof_H 	H 	0.6298	0.6465	0.5852	0.077
Mof_C 	C 	0.8138	0.388	0.2268	0.067
Mof_H 	H 	0.8411	0.37	0.2159	-0.009
Mof_C 	C 	0.8191	0.4233	0.2559	-0.117
Mof_H 	H 	0.8494	0.4298	0.2646	0.08
Mof_C 	C 	0.7802	0.4487	0.27208	0.05
Mof_C 	C 	0.7365	0.4415	0.25797	-0.109
Mof_H 	H 	0.7089	0.4597	0.2685	0.08
Mof_C 	C 	0.7338	0.4074	0.2285	0.059
Mof_H 	H 	0.7041	0.405	0.2187	0.002
Mof_C 	C 	0.7825	0.4793	0.30411	0.103
Mof_C 	C 	0.8232	0.5173	0.34604	0.1
Mof_C 	C 	0.7441	0.5156	0.34785	0.101
Mof_C 	C 	0.8688	0.5329	0.36161	0.056
Mof_C 	C 	0.9109	0.5213	0.3463	-0.116
Mof_H 	H 	0.9112	0.4998	0.3259	0.081
Mof_C 	C 	0.9523	0.5414	0.3612	0.076
Mof_H 	H 	0.9809	0.5341	0.3504	-0.012
Mof_C 	C 	0.9134	0.5792	0.4052	0.068
Mof_H 	H 	0.9144	0.5984	0.4259	-0.008
Mof_C 	C 	0.8701	0.5611	0.39189	-0.11
Mof_H 	H 	0.842	0.5678	0.4032	0.079
Mof_C 	C 	0.6993	0.5323	0.3639	0.054
Mof_C 	C 	0.6969	0.5638	0.3933	-0.126
Mof_H 	H 	0.7245	0.5714	0.4051	0.081
Mof_C 	C 	0.6531	0.5842	0.4052	0.08
Mof_H 	H 	0.6515	0.608	0.4254	-0.017
Mof_C 	C 	0.6157	0.5364	0.3621	0.059
Mof_H 	H 	0.5873	0.5236	0.3516	-0.01
Mof_C 	C 	0.6576	0.517	0.3479	-0.115
Mof_H 	H 	0.6582	0.4937	0.3276	0.079
Mof_N 	N 	0.5499	0.5776	0.44893	-0.275
Mof_N 	N 	0.5697	0.3562	0.53819	-0.142
Mof_N 	N 	0.6112	0.3628	0.58458	-0.135
Mof_N 	N 	0.6028	0.5048	0.55501	-0.139
Mof_N 	N 	0.5458	0.0248	0.58085	-0.278
Mof_N 	N 	0.6937	0.6191	0.6451	-0.277
Mof_N 	N 	0.7719	0.378	0.21338	-0.27
Mof_N 	N 	0.8241	0.4921	0.31672	-0.139
Mof_N 	N 	0.7841	0.5292	0.363	-0.138
Mof_N 	N 	0.7412	0.4899	0.31866	-0.139
Mof_N 	N 	0.954	0.5706	0.38988	-0.268
Mof_N 	N 	0.6135	0.5726	0.39016	-0.272
Mof_I 	I 	0.48705	0.53828	0.3752	-0.367
Mof_I 	I 	0.56356	0.80886	0.4062	-0.386
Mof_I 	I 	0.70059	0.86612	0.68133	-0.373
Mof_I 	I 	0.8202	0.68562	0.65626	-0.376
Mof_I 	I 	0.56402	0.8166	0.63407	-0.369
Mof_I 	I 	0.50176	0.80501	0.54078	-0.394
Mof_Zn	Zn	0.5495	0.62772	0.40498	1.163
Mof_Zn	Zn	0.73548	0.69843	0.67356	1.165
Mof_Zn	Zn	0.51788	0.89157	0.5911	1.163
Mof_C 	C 	0.9566	0.9827	0.4539	0.074
Mof_H 	H 	0.9678	0.9438	0.4377	-0.015
Mof_C 	C 	0.9479	0.9391	0.4813	-0.126
Mof_H 	H 	0.9522	0.8714	0.4837	0.095
Mof_C 	C 	0.9327	0.9959	0.5056	0.059
Mof_C 	C 	0.9281	0.0951	0.5009	-0.121
Mof_H 	H 	0.9185	0.1365	0.5169	0.084
Mof_C 	C 	0.9377	0.1323	0.4726	0.072
Mof_H 	H 	0.9353	0.2003	0.4698	-0.006
Mof_C 	C 	0.9198	0.9501	0.5346	0.095
Mof_C 	C 	0.9139	0.8176	0.5636	0.089
Mof_C 	C 	0.8819	0.9566	0.5793	0.102
Mof_C 	C 	0.9268	0.7146	0.5693	0.053
Mof_C 	C 	0.9508	0.6606	0.5474	-0.129
Mof_H 	H 	0.9582	0.688	0.5282	0.092
Mof_C 	C 	0.9635	0.5659	0.5543	0.076
Mof_H 	H 	0.9795	0.529	0.5393	-0.011
Mof_C 	C 	0.9307	0.5767	0.601	0.084
Mof_H 	H 	0.9229	0.5466	0.6197	-0.008
Mof_C 	C 	0.9167	0.6705	0.5968	-0.135
Mof_H 	H 	0.9005	0.7045	0.6124	0.1
Mof_C 	C 	0.8565	0.0128	0.6028	0.065
Mof_C 	C 	0.8339	0.9688	0.6264	-0.128
Mof_H 	H 	0.8355	0.9005	0.6287	0.088
Mof_C 	C 	0.8091	0.023	0.6467	0.081
Mof_H 	H 	0.793	0.9907	0.6626	-0.015
Mof_C 	C 	0.8296	0.1634	0.6229	0.07
Mof_H 	H 	0.8289	0.232	0.6219	-0.011
Mof_C 	C 	0.8546	0.113	0.6011	-0.114
Mof_H 	H 	0.8702	0.1465	0.5852	0.077
Mof_C 	C 	0.6862	0.888	0.2268	0.067
Mof_H 	H 	0.6589	0.87	0.2159	-0.009
Mof_C 	C 	0.6809	0.9233	0.2559	-0.117
Mof_H 	H 	0.6506	0.9298	0.2646	0.08
Mof_C 	C 	0.7198	0.9487	0.27208	0.05
Mof_C 	C 	0.7635	0.9415	0.25797	-0.109
Mof_H 	H 	0.7911	0.9597	0.2685	0.08
Mof_C 	C 	0.7662	0.9074	0.2285	0.059
Mof_H 	H 	0.7959	0.905	0.2187	0.002
Mof_C 	C 	0.7175	0.9793	0.30411	0.103
Mof_C 	C 	0.6768	0.0173	0.34604	0.1
Mof_C 	C 	0.7559	0.0156	0.34785	0.101
Mof_C 	C 	0.6312	0.0329	0.36161	0.056
Mof_C 	C 	0.5891	0.0213	0.3463	-0.117
Mof_H 	H 	0.5888	0.9998	0.3259	0.082
Mof_C 	C 	0.5477	0.0414	0.3612	0.076
Mof_H 	H 	0.5191	0.0341	0.3504	-0.012
Mof_C 	C 	0.5866	0.0792	0.4052	0.068
Mof_H 	H 	0.5856	0.0984	0.4259	-0.008
Mof_C 	C 	0.6299	0.0611	0.39189	-0.111
Mof_H 	H 	0.658	0.0678	0.4032	0.079
Mof_C 	C 	0.8007	0.0323	0.3639	0.055
Mof_C 	C 	0.8031	0.0638	0.3933	-0.127
Mof_H 	H 	0.7755	0.0714	0.4051	0.081
Mof_C 	C 	0.8469	0.0842	0.4052	0.081
Mof_H 	H 	0.8485	0.108	0.4254	-0.017
Mof_C 	C 	0.8843	0.0364	0.3621	0.06
Mof_H 	H 	0.9127	0.0236	0.3516	-0.011
Mof_C 	C 	0.8424	0.017	0.3479	-0.117
Mof_H 	H 	0.8418	0.9937	0.3276	0.081
Mof_N 	N 	0.9501	0.0776	0.44893	-0.275
Mof_N 	N 	0.9303	0.8562	0.53819	-0.142
Mof_N 	N 	0.8888	0.8628	0.58458	-0.135
Mof_N 	N 	0.8972	0.0048	0.55501	-0.139
Mof_N 	N 	0.9542	0.5248	0.58085	-0.278
Mof_N 	N 	0.8063	0.1191	0.6451	-0.276
Mof_N 	N 	0.7281	0.878	0.21338	-0.27
Mof_N 	N 	0.6759	0.9921	0.31672	-0.139
Mof_N 	N 	0.7159	0.0292	0.363	-0.138
Mof_N 	N 	0.7588	0.9899	0.31866	-0.139
Mof_N 	N 	0.546	0.0706	0.38988	-0.268
Mof_N 	N 	0.8865	0.0726	0.39016	-0.272
Mof_I 	I 	0.01295	0.03828	0.3752	-0.366
Mof_I 	I 	0.93644	0.30886	0.4062	-0.386
Mof_I 	I 	0.79941	0.36612	0.68133	-0.373
Mof_I 	I 	0.6798	0.18562	0.65626	-0.376
Mof_I 	I 	0.93598	0.3166	0.63407	-0.369
Mof_I 	I 	0.99824	0.30501	0.54078	-0.394
Mof_Zn	Zn	0.9505	0.12772	0.40498	1.163
Mof_Zn	Zn	0.76452	0.19843	0.67356	1.165
Mof_Zn	Zn	0.98212	0.39157	0.5911	1.163
Mof_C 	C 	0.5434	0.0173	0.9539	0.072
Mof_H 	H 	0.5322	0.0562	0.9377	-0.015
Mof_C 	C 	0.5521	0.0609	0.9813	-0.125
Mof_H 	H 	0.5478	0.1286	0.9837	0.095
Mof_C 	C 	0.5673	0.0041	0.0056	0.057
Mof_C 	C 	0.5719	0.9049	0.0009	-0.119
Mof_H 	H 	0.5815	0.8635	0.0169	0.083
Mof_C 	C 	0.5623	0.8677	0.9726	0.072
Mof_H 	H 	0.5647	0.7997	0.9698	-0.006
Mof_C 	C 	0.5802	0.0499	0.0346	0.094
Mof_C 	C 	0.5861	0.1824	0.0636	0.088
Mof_C 	C 	0.6181	0.0434	0.0793	0.1
Mof_C 	C 	0.5732	0.2854	0.0693	0.053
Mof_C 	C 	0.5492	0.3394	0.0474	-0.129
Mof_H 	H 	0.5418	0.312	0.0282	0.092
Mof_C 	C 	0.5365	0.4341	0.0543	0.076
Mof_H 	H 	0.5205	0.471	0.0393	-0.011
Mof_C 	C 	0.5693	0.4233	0.101	0.084
Mof_H 	H 	0.5771	0.4534	0.1197	-0.008
Mof_C 	C 	0.5833	0.3295	0.0968	-0.135
Mof_H 	H 	0.5995	0.2955	0.1124	0.1
Mof_C 	C 	0.6435	0.9872	0.1028	0.068
Mof_C 	C 	0.6661	0.0312	0.1264	-0.133
Mof_H 	H 	0.6645	0.0995	0.1287	0.09
Mof_C 	C 	0.6909	0.977	0.1467	0.085
Mof_H 	H 	0.707	0.0093	0.1626	-0.017
Mof_C 	C 	0.6704	0.8366	0.1229	0.071
Mof_H 	H 	0.6711	0.768	0.1219	-0.012
Mof_C 	C 	0.6454	0.887	0.1011	-0.116
Mof_H 	H 	0.6298	0.8535	0.0852	0.077
Mof_C 	C 	0.8138	0.112	0.7268	0.067
Mof_H 	H 	0.8411	0.13	0.7159	-0.009
Mof_C 	C 	0.8191	0.0767	0.7559	-0.117
Mof_H 	H 	0.8494	0.0702	0.7646	0.08
Mof_C 	C 	0.7802	0.0513	0.77208	0.05
Mof_C 	C 	0.7365	0.0585	0.75797	-0.109
Mof_H 	H 	0.7089	0.0403	0.7685	0.08
Mof_C 	C 	0.7338	0.0926	0.7285	0.059
Mof_H 	H 	0.7041	0.095	0.7187	0.002
Mof_C 	C 	0.7825	0.0207	0.80411	0.103
Mof_C 	C 	0.8232	0.9827	0.84604	0.101
Mof_C 	C 	0.7441	0.9844	0.84785	0.102
Mof_C 	C 	0.8688	0.9671	0.86161	0.055
Mof_C 	C 	0.9109	0.9787	0.8463	-0.115
Mof_H 	H 	0.9112	0.0002	0.8259	0.081
Mof_C 	C 	0.9523	0.9586	0.8612	0.075
Mof_H 	H 	0.9809	0.9659	0.8504	-0.011
Mof_C 	C 	0.9134	0.9208	0.9052	0.068
Mof_H 	H 	0.9144	0.9016	0.9259	-0.008
Mof_C 	C 	0.8701	0.9389	0.89189	-0.11
Mof_H 	H 	0.842	0.9322	0.9032	0.079
Mof_C 	C 	0.6993	0.9677	0.8639	0.054
Mof_C 	C 	0.6969	0.9362	0.8933	-0.126
Mof_H 	H 	0.7245	0.9286	0.9051	0.081
Mof_C 	C 	0.6531	0.9158	0.9052	0.08
Mof_H 	H 	0.6515	0.892	0.9254	-0.017
Mof_C 	C 	0.6157	0.9636	0.8621	0.059
Mof_H 	H 	0.5873	0.9764	0.8516	-0.01
Mof_C 	C 	0.6576	0.983	0.8479	-0.115
Mof_H 	H 	0.6582	0.0063	0.8276	0.079
Mof_N 	N 	0.5499	0.9224	0.94893	-0.275
Mof_N 	N 	0.5697	0.1438	0.03819	-0.142
Mof_N 	N 	0.6112	0.1372	0.08458	-0.135
Mof_N 	N 	0.6028	0.9952	0.05501	-0.138
Mof_N 	N 	0.5458	0.4752	0.08085	-0.278
Mof_N 	N 	0.6937	0.8809	0.1451	-0.277
Mof_N 	N 	0.7719	0.122	0.71338	-0.27
Mof_N 	N 	0.8241	0.0079	0.81672	-0.14
Mof_N 	N 	0.7841	0.9708	0.863	-0.138
Mof_N 	N 	0.7412	0.0101	0.81866	-0.139
Mof_N 	N 	0.954	0.9294	0.88988	-0.267
Mof_N 	N 	0.6135	0.9274	0.89016	-0.272
Mof_I 	I 	0.48705	0.96172	0.8752	-0.367
Mof_I 	I 	0.56356	0.69114	0.9062	-0.386
Mof_I 	I 	0.70059	0.63388	0.18133	-0.373
Mof_I 	I 	0.8202	0.81438	0.15626	-0.376
Mof_I 	I 	0.56402	0.6834	0.13407	-0.369
Mof_I 	I 	0.50176	0.69499	0.04078	-0.394
Mof_Zn	Zn	0.5495	0.87228	0.90498	1.163
Mof_Zn	Zn	0.73548	0.80157	0.17356	1.165
Mof_Zn	Zn	0.51788	0.60843	0.0911	1.163
Mof_C 	C 	0.0434	0.4827	0.0461	0.073
Mof_H 	H 	0.0322	0.4438	0.0623	-0.015
Mof_C 	C 	0.0521	0.4391	0.0187	-0.125
Mof_H 	H 	0.0478	0.3714	0.0163	0.095
Mof_C 	C 	0.0673	0.4959	0.9944	0.058
Mof_C 	C 	0.0719	0.5951	0.9991	-0.12
Mof_H 	H 	0.0815	0.6365	0.9831	0.083
Mof_C 	C 	0.0623	0.6323	0.0274	0.072
Mof_H 	H 	0.0647	0.7003	0.0302	-0.006
Mof_C 	C 	0.0802	0.4501	0.9654	0.094
Mof_C 	C 	0.0861	0.3176	0.9364	0.088
Mof_C 	C 	0.1181	0.4566	0.9207	0.101
Mof_C 	C 	0.0732	0.2146	0.9307	0.053
Mof_C 	C 	0.0492	0.1606	0.9526	-0.129
Mof_H 	H 	0.0418	0.188	0.9718	0.092
Mof_C 	C 	0.0365	0.0659	0.9457	0.076
Mof_H 	H 	0.0205	0.029	0.9607	-0.011
Mof_C 	C 	0.0693	0.0767	0.899	0.084
Mof_H 	H 	0.0771	0.0466	0.8803	-0.008
Mof_C 	C 	0.0833	0.1705	0.9032	-0.135
Mof_H 	H 	0.0995	0.2045	0.8876	0.1
Mof_C 	C 	0.1435	0.5128	0.8972	0.067
Mof_C 	C 	0.1661	0.4688	0.8736	-0.131
Mof_H 	H 	0.1645	0.4005	0.8713	0.089
Mof_C 	C 	0.1909	0.523	0.8533	0.083
Mof_H 	H 	0.207	0.4907	0.8374	-0.016
Mof_C 	C 	0.1704	0.6634	0.8771	0.071
Mof_H 	H 	0.1711	0.732	0.8781	-0.012
Mof_C 	C 	0.1454	0.613	0.8989	-0.115
Mof_H 	H 	0.1298	0.6465	0.9148	0.077
Mof_C 	C 	0.3138	0.388	0.2732	0.067
Mof_H 	H 	0.3411	0.37	0.2841	-0.009
Mof_C 	C 	0.3191	0.4233	0.2441	-0.117
Mof_H 	H 	0.3494	0.4298	0.2354	0.08
Mof_C 	C 	0.2802	0.4487	0.22792	0.05
Mof_C 	C 	0.2365	0.4415	0.24203	-0.109
Mof_H 	H 	0.2089	0.4597	0.2315	0.08
Mof_C 	C 	0.2338	0.4074	0.2715	0.059
Mof_H 	H 	0.2041	0.405	0.2813	0.002
Mof_C 	C 	0.2825	0.4793	0.19589	0.103
Mof_C 	C 	0.3232	0.5173	0.15396	0.1
Mof_C 	C 	0.2441	0.5156	0.15215	0.101
Mof_C 	C 	0.3688	0.5329	0.13839	0.056
Mof_C 	C 	0.4109	0.5213	0.1537	-0.116
Mof_H 	H 	0.4112	0.4998	0.1741	0.081
Mof_C 	C 	0.4523	0.5414	0.1388	0.076
Mof_H 	H 	0.4809	0.5341	0.1496	-0.012
Mof_C 	C 	0.4134	0.5792	0.0948	0.068
Mof_H 	H 	0.4144	0.5984	0.0741	-0.008
Mof_C 	C 	0.3701	0.5611	0.10811	-0.11
Mof_H 	H 	0.342	0.5678	0.0968	0.079
Mof_C 	C 	0.1993	0.5323	0.1361	0.054
Mof_C 	C 	0.1969	0.5638	0.1067	-0.126
Mof_H 	H 	0.2245	0.5714	0.0949	0.081
Mof_C 	C 	0.1531	0.5842	0.0948	0.08
Mof_H 	H 	0.1515	0.608	0.0746	-0.017
Mof_C 	C 	0.1157	0.5364	0.1379	0.059
Mof_H 	H 	0.0873	0.5236	0.1484	-0.01
Mof_C 	C 	0.1576	0.517	0.1521	-0.115
Mof_H 	H 	0.1582	0.4937	0.1724	0.08
Mof_N 	N 	0.0499	0.5776	0.05107	-0.275
Mof_N 	N 	0.0697	0.3562	0.96181	-0.142
Mof_N 	N 	0.1112	0.3628	0.91542	-0.135
Mof_N 	N 	0.1028	0.5048	0.94499	-0.139
Mof_N 	N 	0.0458	0.0248	0.91915	-0.278
Mof_N 	N 	0.1937	0.6191	0.8549	-0.277
Mof_N 	N 	0.2719	0.378	0.28662	-0.27
Mof_N 	N 	0.3241	0.4921	0.18328	-0.139
Mof_N 	N 	0.2841	0.5292	0.137	-0.138
Mof_N 	N 	0.2412	0.4899	0.18134	-0.139
Mof_N 	N 	0.454	0.5706	0.11012	-0.268
Mof_N 	N 	0.1135	0.5726	0.10984	-0.272
Mof_I 	I 	0.98705	0.53828	0.1248	-0.366
Mof_I 	I 	0.06356	0.80886	0.0938	-0.386
Mof_I 	I 	0.20059	0.86612	0.81867	-0.374
Mof_I 	I 	0.3202	0.68562	0.84374	-0.376
Mof_I 	I 	0.06402	0.8166	0.86593	-0.37
Mof_I 	I 	0.00176	0.80501	0.95922	-0.394
Mof_Zn	Zn	0.0495	0.62772	0.09502	1.163
Mof_Zn	Zn	0.23548	0.69843	0.82644	1.165
Mof_Zn	Zn	0.01788	0.89157	0.9089	1.163
Mof_C 	C 	0.4566	0.5173	0.5461	0.073
Mof_H 	H 	0.4678	0.5562	0.5623	-0.015
Mof_C 	C 	0.4479	0.5609	0.5187	-0.125
Mof_H 	H 	0.4522	0.6286	0.5163	0.095
Mof_C 	C 	0.4327	0.5041	0.4944	0.058
Mof_C 	C 	0.4281	0.4049	0.4991	-0.12
Mof_H 	H 	0.4185	0.3635	0.4831	0.083
Mof_C 	C 	0.4377	0.3677	0.5274	0.072
Mof_H 	H 	0.4353	0.2997	0.5302	-0.006
Mof_C 	C 	0.4198	0.5499	0.4654	0.094
Mof_C 	C 	0.4139	0.6824	0.4364	0.088
Mof_C 	C 	0.3819	0.5434	0.4207	0.101
Mof_C 	C 	0.4268	0.7854	0.4307	0.053
Mof_C 	C 	0.4508	0.8394	0.4526	-0.129
Mof_H 	H 	0.4582	0.812	0.4718	0.092
Mof_C 	C 	0.4635	0.9341	0.4457	0.076
Mof_H 	H 	0.4795	0.971	0.4607	-0.011
Mof_C 	C 	0.4307	0.9233	0.399	0.084
Mof_H 	H 	0.4229	0.9534	0.3803	-0.008
Mof_C 	C 	0.4167	0.8295	0.4032	-0.135
Mof_H 	H 	0.4005	0.7955	0.3876	0.1
Mof_C 	C 	0.3565	0.4872	0.3972	0.067
Mof_C 	C 	0.3339	0.5312	0.3736	-0.131
Mof_H 	H 	0.3355	0.5995	0.3713	0.089
Mof_C 	C 	0.3091	0.477	0.3533	0.083
Mof_H 	H 	0.293	0.5093	0.3374	-0.016
Mof_C 	C 	0.3296	0.3366	0.3771	0.071
Mof_H 	H 	0.3289	0.268	0.3781	-0.012
Mof_C 	C 	0.3546	0.387	0.3989	-0.115
Mof_H 	H 	0.3702	0.3535	0.4148	0.077
Mof_C 	C 	0.1862	0.612	0.7732	0.067
Mof_H 	H 	0.1589	0.63	0.7841	-0.009
Mof_C 	C 	0.1809	0.5767	0.7441	-0.117
Mof_H 	H 	0.1506	0.5702	0.7354	0.08
Mof_C 	C 	0.2198	0.5513	0.72792	0.05
Mof_C 	C 	0.2635	0.5585	0.74203	-0.109
Mof_H 	H 	0.2911	0.5403	0.7315	0.08
Mof_C 	C 	0.2662	0.5926	0.7715	0.059
Mof_H 	H 	0.2959	0.595	0.7813	0.002
Mof_C 	C 	0.2175	0.5207	0.69589	0.103
Mof_C 	C 	0.1768	0.4827	0.65396	0.1
Mof_C 	C 	0.2559	0.4844	0.65215	0.101
Mof_C 	C 	0.1312	0.4671	0.63839	0.056
Mof_C 	C 	0.0891	0.4787	0.6537	-0.116
Mof_H 	H 	0.0888	0.5002	0.6741	0.081
Mof_C 	C 	0.0477	0.4586	0.6388	0.076
Mof_H 	H 	0.0191	0.4659	0.6496	-0.012
Mof_C 	C 	0.0866	0.4208	0.5948	0.068
Mof_H 	H 	0.0856	0.4016	0.5741	-0.008
Mof_C 	C 	0.1299	0.4389	0.60811	-0.11
Mof_H 	H 	0.158	0.4322	0.5968	0.079
Mof_C 	C 	0.3007	0.4677	0.6361	0.054
Mof_C 	C 	0.3031	0.4362	0.6067	-0.126
Mof_H 	H 	0.2755	0.4286	0.5949	0.081
Mof_C 	C 	0.3469	0.4158	0.5948	0.08
Mof_H 	H 	0.3485	0.392	0.5746	-0.017
Mof_C 	C 	0.3843	0.4636	0.6379	0.059
Mof_H 	H 	0.4127	0.4764	0.6484	-0.01
Mof_C 	C 	0.3424	0.483	0.6521	-0.115
Mof_H 	H 	0.3418	0.5063	0.6724	0.079
Mof_N 	N 	0.4501	0.4224	0.55107	-0.275
Mof_N 	N 	0.4303	0.6438	0.46181	-0.142
Mof_N 	N 	0.3888	0.6372	0.41542	-0.135
Mof_N 	N 	0.3972	0.4952	0.44499	-0.139
Mof_N 	N 	0.4542	0.9752	0.41915	-0.278
Mof_N 	N 	0.3063	0.3809	0.3549	-0.277
Mof_N 	N 	0.2281	0.622	0.78662	-0.27
Mof_N 	N 	0.1759	0.5079	0.68328	-0.139
Mof_N 	N 	0.2159	0.4708	0.637	-0.138
Mof_N 	N 	0.2588	0.5101	0.68134	-0.139
Mof_N 	N 	0.046	0.4294	0.61012	-0.268
Mof_N 	N 	0.3865	0.4274	0.60984	-0.272
Mof_I 	I 	0.51295	0.46172	0.6248	-0.367
Mof_I 	I 	0.43644	0.19114	0.5938	-0.386
Mof_I 	I 	0.29941	0.13388	0.31867	-0.373
Mof_I 	I 	0.1798	0.31438	0.34374	-0.376
Mof_I 	I 	0.43598	0.1834	0.36593	-0.369
Mof_I 	I 	0.49824	0.19499	0.45922	-0.394
Mof_Zn	Zn	0.4505	0.37228	0.59502	1.163
Mof_Zn	Zn	0.26452	0.30157	0.32644	1.165
Mof_Zn	Zn	0.48212	0.10843	0.4089	1.163
_end
