data_functionalizedCrystal
_audit_creation_method	'EQeq! by Chris Wilmer'
_symmetry_space_group_name_H-M	'P1'
_symmetry_Int_Tables_number	1
_symmetry_cell_setting	triclinic
loop_
_symmetry_equiv_pos_as_xyz
  x,y,z
_cell_length_a	26.3296
_cell_length_b	26.3296
_cell_length_c	23.314
_cell_angle_alpha	90
_cell_angle_beta	90
_cell_angle_gamma	120
loop_
_atom_site_label
_atom_site_type_symbol
_atom_site_fract_x
_atom_site_fract_y
_atom_site_fract_z
_atom_site_charge
Mof_Cr	Cr	0.35819	0.00745	0.33737	1.785
Mof_Mn	Mn	0.59854	0.09557	0.32759	0.931
Mof_O 	O 	0.6742	0.27334	0.26663	-0.478
Mof_O 	O 	0.61543	0.2656	0.36023	-0.482
Mof_O 	O 	0.6516	0.17993	0.2746	-0.261
Mof_O 	O 	0.5916	0.1726	0.37304	-0.246
Mof_C 	C 	0.6496	0.2232	0.2915	0.261
Mof_C 	C 	0.6162	0.2186	0.3464	0.26
Mof_O 	O 	0.5196	0.0996	0.2792	-0.257
Mof_O 	O 	0.51768	0.04805	0.38222	-0.308
Mof_O 	O 	0.42268	0.0566	0.28422	-0.472
Mof_O 	O 	0.4238	0.02106	0.38842	-0.483
Mof_C 	C 	0.4725	0.0691	0.3032	0.254
Mof_C 	C 	0.473	0.0441	0.3635	0.288
Mof_O 	O 	0.29964	0.989	0.2768	-0.372
Mof_O 	O 	0.3542	0.93533	0.3091	-0.411
Mof_O 	O 	0.3175	0.8708	0.2385	-0.279
Mof_O 	O 	0.261	0.9285	0.2018	-0.2
Mof_C 	C 	0.3237	0.9142	0.2653	0.308
Mof_C 	C 	0.2911	0.9462	0.2449	0.255
Mof_O 	O 	0.35381	0.07648	0.3648	-0.485
Mof_O 	O 	0.29729	0.967	0.396	-0.259
Mof_O 	O 	0.3039	0.10006	0.4236	-0.313
Mof_O 	O 	0.2426	0.9851	0.4571	-0.036
Mof_C 	C 	0.315	0.0646	0.4018	0.37
Mof_C 	C 	0.2819	0.0004	0.4216	-0.061
Mof_Cr	Cr	0.02486	0.34078	0.6707	2.266
Mof_Mn	Mn	0.26521	0.4289	0.66092	0.962
Mof_O 	O 	0.34087	0.60667	0.59996	-0.473
Mof_O 	O 	0.2821	0.59893	0.69356	-0.478
Mof_O 	O 	0.31827	0.51326	0.60793	-0.259
Mof_O 	O 	0.25827	0.50593	0.70637	-0.245
Mof_C 	C 	0.31627	0.55653	0.62483	0.262
Mof_C 	C 	0.28287	0.55193	0.67973	0.261
Mof_O 	O 	0.18627	0.43293	0.61253	-0.245
Mof_O 	O 	0.18435	0.38138	0.71555	-0.278
Mof_O 	O 	0.08935	0.38993	0.61755	-0.494
Mof_O 	O 	0.09047	0.35439	0.72175	-0.503
Mof_C 	C 	0.13917	0.40243	0.63653	0.267
Mof_C 	C 	0.13967	0.37743	0.69683	0.298
Mof_O 	O 	0.96631	0.32233	0.61013	-0.542
Mof_O 	O 	0.02087	0.26866	0.64243	-0.466
Mof_O 	O 	0.98417	0.20413	0.57183	-0.291
Mof_O 	O 	0.92767	0.26183	0.53513	-0.24
Mof_C 	C 	0.99037	0.24753	0.59863	0.233
Mof_C 	C 	0.95777	0.27953	0.57823	0.278
Mof_O 	O 	0.02048	0.40981	0.69813	-0.448
Mof_O 	O 	0.96396	0.30033	0.72933	-0.539
Mof_O 	O 	0.97057	0.43339	0.75693	-0.284
Mof_O 	O 	0.90927	0.31843	0.79043	-0.258
Mof_C 	C 	0.98167	0.39793	0.73513	0.221
Mof_C 	C 	0.94857	0.33373	0.75493	0.269
Mof_Cr	Cr	0.69152	0.67412	0.00404	2.11
Mof_Mn	Mn	0.93187	0.76224	0.99426	0.962
Mof_O 	O 	0.00753	0.94001	0.9333	-0.335
Mof_O 	O 	0.94876	0.93227	0.0269	-0.435
Mof_O 	O 	0.98493	0.8466	0.94127	-0.252
Mof_O 	O 	0.92493	0.83927	0.03971	-0.248
Mof_C 	C 	0.98293	0.88987	0.95817	0.204
Mof_C 	C 	0.94953	0.88527	0.01307	0.259
Mof_O 	O 	0.85293	0.76627	0.94587	-0.245
Mof_O 	O 	0.85101	0.71472	0.04889	-0.281
Mof_O 	O 	0.75601	0.72327	0.95089	-0.48
Mof_O 	O 	0.75713	0.68773	0.05509	-0.491
Mof_C 	C 	0.80583	0.73577	0.96987	0.282
Mof_C 	C 	0.80633	0.71077	0.03017	0.283
Mof_O 	O 	0.63297	0.65567	0.94347	-0.479
Mof_O 	O 	0.68753	0.602	0.97577	-0.5
Mof_O 	O 	0.65083	0.53747	0.90517	-0.288
Mof_O 	O 	0.59433	0.59517	0.86847	-0.226
Mof_C 	C 	0.65703	0.58087	0.93197	0.31
Mof_C 	C 	0.62443	0.61287	0.91157	0.261
Mof_O 	O 	0.68714	0.74315	0.03147	-0.491
Mof_O 	O 	0.63062	0.63367	0.06267	-0.486
Mof_O 	O 	0.63723	0.76673	0.09027	-0.282
Mof_O 	O 	0.57593	0.65177	0.12377	-0.247
Mof_C 	C 	0.64833	0.73127	0.06847	0.298
Mof_C 	C 	0.61523	0.66707	0.08827	0.252
Mof_Cr	Cr	0.99255	0.35074	0.33737	1.97
Mof_Mn	Mn	0.90443	0.50297	0.32759	0.945
Mof_O 	O 	0.72666	0.40086	0.26663	-0.477
Mof_O 	O 	0.7344	0.34983	0.36023	-0.482
Mof_O 	O 	0.82007	0.47167	0.2746	-0.261
Mof_O 	O 	0.8274	0.419	0.37304	-0.247
Mof_C 	C 	0.7768	0.4264	0.2915	0.261
Mof_C 	C 	0.7814	0.3976	0.3464	0.26
Mof_O 	O 	0.9004	0.42	0.2792	-0.254
Mof_O 	O 	0.95195	0.46963	0.38222	-0.295
Mof_O 	O 	0.9434	0.36608	0.28422	-0.483
Mof_O 	O 	0.97894	0.40274	0.38842	-0.49
Mof_C 	C 	0.9309	0.4034	0.3032	0.261
Mof_C 	C 	0.9559	0.4289	0.3635	0.292
Mof_O 	O 	0.011	0.31064	0.2768	-0.437
Mof_O 	O 	0.06467	0.41887	0.3091	-0.462
Mof_O 	O 	0.1292	0.4467	0.2385	-0.284
Mof_O 	O 	0.0715	0.3325	0.2018	-0.219
Mof_C 	C 	0.0858	0.4095	0.2653	0.308
Mof_C 	C 	0.0538	0.3449	0.2449	0.259
Mof_O 	O 	0.92352	0.27733	0.3648	-0.493
Mof_O 	O 	0.033	0.33029	0.396	-0.377
Mof_O 	O 	0.89994	0.20384	0.4236	-0.301
Mof_O 	O 	0.0149	0.2575	0.4571	-0.145
Mof_C 	C 	0.9354	0.2504	0.4018	0.333
Mof_C 	C 	0.9996	0.2815	0.4216	0.098
Mof_Cr	Cr	0.65922	0.68407	0.6707	2.155
Mof_Mn	Mn	0.5711	0.8363	0.66092	0.966
Mof_O 	O 	0.39333	0.73419	0.59996	-0.47
Mof_O 	O 	0.40107	0.68316	0.69356	-0.479
Mof_O 	O 	0.48674	0.805	0.60793	-0.254
Mof_O 	O 	0.49407	0.75233	0.70637	-0.245
Mof_C 	C 	0.44347	0.75973	0.62483	0.262
Mof_C 	C 	0.44807	0.73093	0.67973	0.262
Mof_O 	O 	0.56707	0.75333	0.61253	-0.247
Mof_O 	O 	0.61862	0.80296	0.71555	-0.276
Mof_O 	O 	0.61007	0.69941	0.61755	-0.491
Mof_O 	O 	0.64561	0.73607	0.72175	-0.494
Mof_C 	C 	0.59757	0.73673	0.63653	0.268
Mof_C 	C 	0.62257	0.76223	0.69683	0.298
Mof_O 	O 	0.67767	0.64397	0.61013	-0.495
Mof_O 	O 	0.73134	0.7522	0.64243	-0.508
Mof_O 	O 	0.79587	0.78003	0.57183	-0.283
Mof_O 	O 	0.73817	0.66583	0.53513	-0.229
Mof_C 	C 	0.75247	0.74283	0.59863	0.31
Mof_C 	C 	0.72047	0.67823	0.57823	0.262
Mof_O 	O 	0.59019	0.61066	0.69813	-0.498
Mof_O 	O 	0.69967	0.66362	0.72933	-0.487
Mof_O 	O 	0.56661	0.53717	0.75693	-0.285
Mof_O 	O 	0.68157	0.59083	0.79043	-0.246
Mof_C 	C 	0.60207	0.58373	0.73513	0.3
Mof_C 	C 	0.66627	0.61483	0.75493	0.252
Mof_Cr	Cr	0.32588	0.01741	0.00404	1.75
Mof_Mn	Mn	0.23776	0.16964	0.99426	0.979
Mof_O 	O 	0.05999	0.06753	0.9333	-0.465
Mof_O 	O 	0.06773	0.0165	0.0269	-0.488
Mof_O 	O 	0.1534	0.13834	0.94127	-0.262
Mof_O 	O 	0.16073	0.08567	0.03971	-0.26
Mof_C 	C 	0.11013	0.09307	0.95817	0.271
Mof_C 	C 	0.11473	0.06427	0.01307	0.248
Mof_O 	O 	0.23373	0.08667	0.94587	-0.262
Mof_O 	O 	0.28528	0.1363	0.04889	-0.288
Mof_O 	O 	0.27673	0.03275	0.95089	-0.469
Mof_O 	O 	0.31227	0.06941	0.05509	-0.471
Mof_C 	C 	0.26423	0.07007	0.96987	0.274
Mof_C 	C 	0.28923	0.09557	0.03017	0.277
Mof_O 	O 	0.34433	0.97731	0.94347	-0.25
Mof_O 	O 	0.398	0.08554	0.97577	-0.488
Mof_O 	O 	0.46253	0.11337	0.90517	-0.315
Mof_O 	O 	0.40483	0.99917	0.86847	-0.016
Mof_C 	C 	0.41913	0.07617	0.93197	0.379
Mof_C 	C 	0.38713	0.01157	0.91157	-0.057
Mof_O 	O 	0.25685	0.944	0.03147	-0.394
Mof_O 	O 	0.36633	0.99696	0.06267	-0.367
Mof_O 	O 	0.23327	0.87051	0.09027	-0.274
Mof_O 	O 	0.34823	0.92417	0.12377	-0.225
Mof_C 	C 	0.26873	0.91707	0.06847	0.293
Mof_C 	C 	0.33293	0.94817	0.08827	0.246
Mof_Cr	Cr	0.64926	0.64181	0.33737	2.155
Mof_Mn	Mn	0.49703	0.40146	0.32759	0.961
Mof_O 	O 	0.59914	0.3258	0.26663	-0.477
Mof_O 	O 	0.65017	0.38457	0.36023	-0.482
Mof_O 	O 	0.52833	0.3484	0.2746	-0.263
Mof_O 	O 	0.581	0.4084	0.37304	-0.248
Mof_C 	C 	0.5736	0.3504	0.2915	0.261
Mof_C 	C 	0.6024	0.3838	0.3464	0.26
Mof_O 	O 	0.58	0.4804	0.2792	-0.25
Mof_O 	O 	0.53037	0.48232	0.38222	-0.281
Mof_O 	O 	0.63392	0.57732	0.28422	-0.492
Mof_O 	O 	0.59726	0.5762	0.38842	-0.498
Mof_C 	C 	0.5966	0.5275	0.3032	0.267
Mof_C 	C 	0.5711	0.527	0.3635	0.297
Mof_O 	O 	0.68936	0.70036	0.2768	-0.492
Mof_O 	O 	0.58113	0.6458	0.3091	-0.513
Mof_O 	O 	0.5533	0.6825	0.2385	-0.289
Mof_O 	O 	0.6675	0.739	0.2018	-0.225
Mof_C 	C 	0.5905	0.6763	0.2653	0.312
Mof_C 	C 	0.6551	0.7089	0.2449	0.262
Mof_O 	O 	0.72267	0.64619	0.3648	-0.499
Mof_O 	O 	0.66971	0.70271	0.396	-0.485
Mof_O 	O 	0.79616	0.6961	0.4236	-0.286
Mof_O 	O 	0.7425	0.7574	0.4571	-0.24
Mof_C 	C 	0.7496	0.685	0.4018	0.301
Mof_C 	C 	0.7185	0.7181	0.4216	0.251
Mof_Cr	Cr	0.31593	0.97514	0.6707	2.384
Mof_Mn	Mn	0.1637	0.73479	0.66092	0.965
Mof_O 	O 	0.26581	0.65913	0.59996	-0.471
Mof_O 	O 	0.31684	0.7179	0.69356	-0.477
Mof_O 	O 	0.195	0.68173	0.60793	-0.256
Mof_O 	O 	0.24767	0.74173	0.70637	-0.243
Mof_C 	C 	0.24027	0.68373	0.62483	0.262
Mof_C 	C 	0.26907	0.71713	0.67973	0.261
Mof_O 	O 	0.24667	0.81373	0.61253	-0.241
Mof_O 	O 	0.19704	0.81565	0.71555	-0.271
Mof_O 	O 	0.30059	0.91065	0.61755	-0.498
Mof_O 	O 	0.26393	0.90953	0.72175	-0.504
Mof_C 	C 	0.26327	0.86083	0.63653	0.269
Mof_C 	C 	0.23777	0.86033	0.69683	0.3
Mof_O 	O 	0.35603	0.03369	0.61013	-0.591
Mof_O 	O 	0.2478	0.97913	0.64243	-0.405
Mof_O 	O 	0.21997	0.01583	0.57183	-0.281
Mof_O 	O 	0.33417	0.07233	0.53513	-0.251
Mof_C 	C 	0.25717	0.00963	0.59863	0.151
Mof_C 	C 	0.32177	0.04223	0.57823	0.298
Mof_O 	O 	0.38934	0.97952	0.69813	-0.397
Mof_O 	O 	0.33638	0.03604	0.72933	-0.584
Mof_O 	O 	0.46283	0.02943	0.75693	-0.282
Mof_O 	O 	0.40917	0.09073	0.79043	-0.266
Mof_C 	C 	0.41627	0.01833	0.73513	0.142
Mof_C 	C 	0.38517	0.05143	0.75493	0.286
Mof_Cr	Cr	0.98259	0.30848	0.00404	1.93
Mof_Mn	Mn	0.83036	0.06813	0.99426	0.932
Mof_O 	O 	0.93247	0.99247	0.9333	-0.338
Mof_O 	O 	0.9835	0.05124	0.0269	-0.525
Mof_O 	O 	0.86166	0.01507	0.94127	-0.271
Mof_O 	O 	0.91433	0.07507	0.03971	-0.275
Mof_C 	C 	0.90693	0.01707	0.95817	0.133
Mof_C 	C 	0.93573	0.05047	0.01307	0.271
Mof_O 	O 	0.91333	0.14707	0.94587	-0.258
Mof_O 	O 	0.8637	0.14899	0.04889	-0.284
Mof_O 	O 	0.96725	0.24399	0.95089	-0.478
Mof_O 	O 	0.93059	0.24287	0.05509	-0.484
Mof_C 	C 	0.92993	0.19417	0.96987	0.278
Mof_C 	C 	0.90443	0.19367	0.03017	0.279
Mof_O 	O 	0.02269	0.36703	0.94347	-0.369
Mof_O 	O 	0.91446	0.31247	0.97577	-0.494
Mof_O 	O 	0.88663	0.34917	0.90517	-0.302
Mof_O 	O 	0.00083	0.40567	0.86847	-0.124
Mof_C 	C 	0.92383	0.34297	0.93197	0.343
Mof_C 	C 	0.98843	0.37557	0.91157	0.105
Mof_O 	O 	0.056	0.31286	0.03147	-0.448
Mof_O 	O 	0.00304	0.36938	0.06267	-0.426
Mof_O 	O 	0.12949	0.36277	0.09027	-0.283
Mof_O 	O 	0.07583	0.42407	0.12377	-0.235
Mof_C 	C 	0.08293	0.35167	0.06847	0.296
Mof_C 	C 	0.05183	0.38477	0.08827	0.248
Mof_Cr	Cr	0.99255	0.64181	0.83737	1.968
Mof_Mn	Mn	0.90443	0.40146	0.82759	0.946
Mof_O 	O 	0.72666	0.3258	0.76663	-0.477
Mof_O 	O 	0.7344	0.38457	0.86023	-0.48
Mof_O 	O 	0.82007	0.3484	0.7746	-0.261
Mof_O 	O 	0.8274	0.4084	0.87304	-0.245
Mof_C 	C 	0.7768	0.3504	0.7915	0.261
Mof_C 	C 	0.7814	0.3838	0.8464	0.26
Mof_O 	O 	0.9004	0.4804	0.7792	-0.253
Mof_O 	O 	0.95195	0.48232	0.88222	-0.292
Mof_O 	O 	0.9434	0.57732	0.78422	-0.482
Mof_O 	O 	0.97894	0.5762	0.88842	-0.487
Mof_C 	C 	0.9309	0.5275	0.8032	0.261
Mof_C 	C 	0.9559	0.527	0.8635	0.292
Mof_O 	O 	0.011	0.70036	0.7768	-0.429
Mof_O 	O 	0.06467	0.6458	0.8091	-0.46
Mof_O 	O 	0.1292	0.6825	0.7385	-0.283
Mof_O 	O 	0.0715	0.739	0.7018	-0.21
Mof_C 	C 	0.0858	0.6763	0.7653	0.31
Mof_C 	C 	0.0538	0.7089	0.7449	0.259
Mof_O 	O 	0.92352	0.64619	0.8648	-0.491
Mof_O 	O 	0.033	0.70271	0.896	-0.367
Mof_O 	O 	0.89994	0.6961	0.9236	-0.298
Mof_O 	O 	0.0149	0.7574	0.9571	-0.131
Mof_C 	C 	0.9354	0.685	0.9018	0.338
Mof_C 	C 	0.9996	0.7181	0.9216	0.094
Mof_Cr	Cr	0.65922	0.97514	0.1707	2.374
Mof_Mn	Mn	0.5711	0.73479	0.16092	0.962
Mof_O 	O 	0.39333	0.65913	0.09996	-0.475
Mof_O 	O 	0.40107	0.7179	0.19356	-0.478
Mof_O 	O 	0.48674	0.68173	0.10793	-0.261
Mof_O 	O 	0.49407	0.74173	0.20637	-0.244
Mof_C 	C 	0.44347	0.68373	0.12483	0.262
Mof_C 	C 	0.44807	0.71713	0.17973	0.26
Mof_O 	O 	0.56707	0.81373	0.11253	-0.244
Mof_O 	O 	0.61862	0.81565	0.21555	-0.275
Mof_O 	O 	0.61007	0.91065	0.11755	-0.5
Mof_O 	O 	0.64561	0.90953	0.22175	-0.507
Mof_C 	C 	0.59757	0.86083	0.13653	0.268
Mof_C 	C 	0.62257	0.86033	0.19683	0.299
Mof_O 	O 	0.67767	0.03369	0.11013	-0.59
Mof_O 	O 	0.73134	0.97913	0.14243	-0.416
Mof_O 	O 	0.79587	0.01583	0.07183	-0.294
Mof_O 	O 	0.73817	0.07233	0.03513	-0.257
Mof_C 	C 	0.75247	0.00963	0.09863	0.157
Mof_C 	C 	0.72047	0.04223	0.07823	0.295
Mof_O 	O 	0.59019	0.97952	0.19813	-0.4
Mof_O 	O 	0.69967	0.03604	0.22933	-0.585
Mof_O 	O 	0.56661	0.02943	0.25693	-0.283
Mof_O 	O 	0.68157	0.09073	0.29043	-0.268
Mof_C 	C 	0.60207	0.01833	0.23513	0.145
Mof_C 	C 	0.66627	0.05143	0.25493	0.285
Mof_Cr	Cr	0.32588	0.30848	0.50404	2.155
Mof_Mn	Mn	0.23776	0.06813	0.49426	0.914
Mof_O 	O 	0.05999	0.99247	0.4333	-0.284
Mof_O 	O 	0.06773	0.05124	0.5269	-0.469
Mof_O 	O 	0.1534	0.01507	0.44127	-0.258
Mof_O 	O 	0.16073	0.07507	0.53971	-0.259
Mof_C 	C 	0.11013	0.01707	0.45817	0.115
Mof_C 	C 	0.11473	0.05047	0.51307	0.286
Mof_O 	O 	0.23373	0.14707	0.44587	-0.248
Mof_O 	O 	0.28528	0.14899	0.54889	-0.278
Mof_O 	O 	0.27673	0.24399	0.45089	-0.492
Mof_O 	O 	0.31227	0.24287	0.55509	-0.498
Mof_C 	C 	0.26423	0.19417	0.46987	0.268
Mof_C 	C 	0.28923	0.19367	0.53017	0.297
Mof_O 	O 	0.34433	0.36703	0.44347	-0.494
Mof_O 	O 	0.398	0.31247	0.47577	-0.515
Mof_O 	O 	0.46253	0.34917	0.40517	-0.291
Mof_O 	O 	0.40483	0.40567	0.36847	-0.228
Mof_C 	C 	0.41913	0.34297	0.43197	0.311
Mof_C 	C 	0.38713	0.37557	0.41157	0.261
Mof_O 	O 	0.25685	0.31286	0.53147	-0.496
Mof_O 	O 	0.36633	0.36938	0.56267	-0.489
Mof_O 	O 	0.23327	0.36277	0.59027	-0.283
Mof_O 	O 	0.34823	0.42407	0.62377	-0.246
Mof_C 	C 	0.26873	0.35167	0.56847	0.3
Mof_C 	C 	0.33293	0.38477	0.58827	0.252
Mof_Cr	Cr	0.64926	0.00745	0.83737	1.788
Mof_Mn	Mn	0.49703	0.09557	0.82759	0.93
Mof_O 	O 	0.59914	0.27334	0.76663	-0.476
Mof_O 	O 	0.65017	0.2656	0.86023	-0.481
Mof_O 	O 	0.52833	0.17993	0.7746	-0.26
Mof_O 	O 	0.581	0.1726	0.87304	-0.244
Mof_C 	C 	0.5736	0.2232	0.7915	0.261
Mof_C 	C 	0.6024	0.2186	0.8464	0.26
Mof_O 	O 	0.58	0.0996	0.7792	-0.257
Mof_O 	O 	0.53037	0.04805	0.88222	-0.306
Mof_O 	O 	0.63392	0.0566	0.78422	-0.473
Mof_O 	O 	0.59726	0.02106	0.88842	-0.481
Mof_C 	C 	0.5966	0.0691	0.8032	0.255
Mof_C 	C 	0.5711	0.0441	0.8635	0.288
Mof_O 	O 	0.68936	0.989	0.7768	-0.377
Mof_O 	O 	0.58113	0.93533	0.8091	-0.411
Mof_O 	O 	0.5533	0.8708	0.7385	-0.278
Mof_O 	O 	0.6675	0.9285	0.7018	-0.205
Mof_C 	C 	0.5905	0.9142	0.7653	0.307
Mof_C 	C 	0.6551	0.9462	0.7449	0.256
Mof_O 	O 	0.72267	0.07648	0.8648	-0.486
Mof_O 	O 	0.66971	0.967	0.896	-0.263
Mof_O 	O 	0.79616	0.10006	0.9236	-0.313
Mof_O 	O 	0.7425	0.9851	0.9571	-0.041
Mof_C 	C 	0.7496	0.0646	0.9018	0.368
Mof_C 	C 	0.7185	0.0004	0.9216	-0.054
Mof_Cr	Cr	0.31593	0.34078	0.1707	2.153
Mof_Mn	Mn	0.1637	0.4289	0.16092	0.963
Mof_O 	O 	0.26581	0.60667	0.09996	-0.474
Mof_O 	O 	0.31684	0.59893	0.19356	-0.48
Mof_O 	O 	0.195	0.51326	0.10793	-0.258
Mof_O 	O 	0.24767	0.50593	0.20637	-0.246
Mof_C 	C 	0.24027	0.55653	0.12483	0.261
Mof_C 	C 	0.26907	0.55193	0.17973	0.261
Mof_O 	O 	0.24667	0.43293	0.11253	-0.25
Mof_O 	O 	0.19704	0.38138	0.21555	-0.28
Mof_O 	O 	0.30059	0.38993	0.11755	-0.493
Mof_O 	O 	0.26393	0.35439	0.22175	-0.497
Mof_C 	C 	0.26327	0.40243	0.13653	0.267
Mof_C 	C 	0.23777	0.37743	0.19683	0.297
Mof_O 	O 	0.35603	0.32233	0.11013	-0.497
Mof_O 	O 	0.2478	0.26866	0.14243	-0.515
Mof_O 	O 	0.21997	0.20413	0.07183	-0.296
Mof_O 	O 	0.33417	0.26183	0.03513	-0.237
Mof_C 	C 	0.25717	0.24753	0.09863	0.309
Mof_C 	C 	0.32177	0.27953	0.07823	0.261
Mof_O 	O 	0.38934	0.40981	0.19813	-0.499
Mof_O 	O 	0.33638	0.30033	0.22933	-0.491
Mof_O 	O 	0.46283	0.43339	0.25693	-0.286
Mof_O 	O 	0.40917	0.31843	0.29043	-0.249
Mof_C 	C 	0.41627	0.39793	0.23513	0.3
Mof_C 	C 	0.38517	0.33373	0.25493	0.252
Mof_Cr	Cr	0.98259	0.67412	0.50404	1.965
Mof_Mn	Mn	0.83036	0.76224	0.49426	0.964
Mof_O 	O 	0.93247	0.94001	0.4333	-0.42
Mof_O 	O 	0.9835	0.93227	0.5269	-0.431
Mof_O 	O 	0.86166	0.8466	0.44127	-0.251
Mof_O 	O 	0.91433	0.83927	0.53971	-0.244
Mof_C 	C 	0.90693	0.88987	0.45817	0.261
Mof_C 	C 	0.93573	0.88527	0.51307	0.261
Mof_O 	O 	0.91333	0.76627	0.44587	-0.251
Mof_O 	O 	0.8637	0.71472	0.54889	-0.282
Mof_O 	O 	0.96725	0.72327	0.45089	-0.48
Mof_O 	O 	0.93059	0.68773	0.55509	-0.486
Mof_C 	C 	0.92993	0.73577	0.46987	0.264
Mof_C 	C 	0.90443	0.71077	0.53017	0.294
Mof_O 	O 	0.02269	0.65567	0.44347	-0.374
Mof_O 	O 	0.91446	0.602	0.47577	-0.507
Mof_O 	O 	0.88663	0.53747	0.40517	-0.304
Mof_O 	O 	0.00083	0.59517	0.36847	-0.12
Mof_C 	C 	0.92383	0.58087	0.43197	0.346
Mof_C 	C 	0.98843	0.61287	0.41157	0.099
Mof_O 	O 	0.056	0.74315	0.53147	-0.439
Mof_O 	O 	0.00304	0.63367	0.56267	-0.426
Mof_O 	O 	0.12949	0.76673	0.59027	-0.274
Mof_O 	O 	0.07583	0.65177	0.62377	-0.235
Mof_C 	C 	0.08293	0.73127	0.56847	0.297
Mof_C 	C 	0.05183	0.66707	0.58827	0.25
Mof_Cr	Cr	0.35819	0.35074	0.83737	2.155
Mof_Mn	Mn	0.59854	0.50297	0.82759	0.962
Mof_O 	O 	0.6742	0.40086	0.76663	-0.476
Mof_O 	O 	0.61543	0.34983	0.86023	-0.48
Mof_O 	O 	0.6516	0.47167	0.7746	-0.261
Mof_O 	O 	0.5916	0.419	0.87304	-0.246
Mof_C 	C 	0.6496	0.4264	0.7915	0.262
Mof_C 	C 	0.6162	0.3976	0.8464	0.26
Mof_O 	O 	0.5196	0.42	0.7792	-0.249
Mof_O 	O 	0.51768	0.46963	0.88222	-0.278
Mof_O 	O 	0.42268	0.36608	0.78422	-0.492
Mof_O 	O 	0.4238	0.40274	0.88842	-0.495
Mof_C 	C 	0.4725	0.4034	0.8032	0.267
Mof_C 	C 	0.473	0.4289	0.8635	0.297
Mof_O 	O 	0.29964	0.31064	0.7768	-0.495
Mof_O 	O 	0.3542	0.41887	0.8091	-0.512
Mof_O 	O 	0.3175	0.4467	0.7385	-0.289
Mof_O 	O 	0.261	0.3325	0.7018	-0.228
Mof_C 	C 	0.3237	0.4095	0.7653	0.311
Mof_C 	C 	0.2911	0.3449	0.7449	0.262
Mof_O 	O 	0.35381	0.27733	0.8648	-0.499
Mof_O 	O 	0.29729	0.33029	0.896	-0.484
Mof_O 	O 	0.3039	0.20384	0.9236	-0.286
Mof_O 	O 	0.2426	0.2575	0.9571	-0.24
Mof_C 	C 	0.315	0.2504	0.9018	0.301
Mof_C 	C 	0.2819	0.2815	0.9216	0.252
Mof_Cr	Cr	0.02486	0.68407	0.1707	2.271
Mof_Mn	Mn	0.26521	0.8363	0.16092	0.966
Mof_O 	O 	0.34087	0.73419	0.09996	-0.472
Mof_O 	O 	0.2821	0.68316	0.19356	-0.479
Mof_O 	O 	0.31827	0.805	0.10793	-0.255
Mof_O 	O 	0.25827	0.75233	0.20637	-0.244
Mof_C 	C 	0.31627	0.75973	0.12483	0.262
Mof_C 	C 	0.28287	0.73093	0.17973	0.261
Mof_O 	O 	0.18627	0.75333	0.11253	-0.246
Mof_O 	O 	0.18435	0.80296	0.21555	-0.272
Mof_O 	O 	0.08935	0.69941	0.11755	-0.496
Mof_O 	O 	0.09047	0.73607	0.22175	-0.498
Mof_C 	C 	0.13917	0.73673	0.13653	0.269
Mof_C 	C 	0.13967	0.76223	0.19683	0.299
Mof_O 	O 	0.96631	0.64397	0.11013	-0.546
Mof_O 	O 	0.02087	0.7522	0.14243	-0.453
Mof_O 	O 	0.98417	0.78003	0.07183	-0.286
Mof_O 	O 	0.92767	0.66583	0.03513	-0.248
Mof_C 	C 	0.99037	0.74283	0.09863	0.228
Mof_C 	C 	0.95777	0.67823	0.07823	0.281
Mof_O 	O 	0.02048	0.61066	0.19813	-0.448
Mof_O 	O 	0.96396	0.66362	0.22933	-0.535
Mof_O 	O 	0.97057	0.53717	0.25693	-0.284
Mof_O 	O 	0.90927	0.59083	0.29043	-0.256
Mof_C 	C 	0.98167	0.58373	0.23513	0.22
Mof_C 	C 	0.94857	0.61483	0.25493	0.269
Mof_Cr	Cr	0.69152	0.01741	0.50404	1.787
Mof_Mn	Mn	0.93187	0.16964	0.49426	0.935
Mof_O 	O 	0.00753	0.06753	0.4333	-0.415
Mof_O 	O 	0.94876	0.0165	0.5269	-0.523
Mof_O 	O 	0.98493	0.13834	0.44127	-0.268
Mof_O 	O 	0.92493	0.08567	0.53971	-0.272
Mof_C 	C 	0.98293	0.09307	0.45817	0.186
Mof_C 	C 	0.94953	0.06427	0.51307	0.272
Mof_O 	O 	0.85293	0.08667	0.44587	-0.264
Mof_O 	O 	0.85101	0.1363	0.54889	-0.285
Mof_O 	O 	0.75601	0.03275	0.45089	-0.479
Mof_O 	O 	0.75713	0.06941	0.55509	-0.478
Mof_C 	C 	0.80583	0.07007	0.46987	0.262
Mof_C 	C 	0.80633	0.09557	0.53017	0.289
Mof_O 	O 	0.63297	0.97731	0.44347	-0.266
Mof_O 	O 	0.68753	0.08554	0.47577	-0.5
Mof_O 	O 	0.65083	0.11337	0.40517	-0.317
Mof_O 	O 	0.59433	0.99917	0.36847	-0.021
Mof_C 	C 	0.65703	0.07617	0.43197	0.378
Mof_C 	C 	0.62443	0.01157	0.41157	-0.053
Mof_O 	O 	0.68714	0.944	0.53147	-0.398
Mof_O 	O 	0.63062	0.99696	0.56267	-0.368
Mof_O 	O 	0.63723	0.87051	0.59027	-0.276
Mof_O 	O 	0.57593	0.92417	0.62377	-0.223
Mof_C 	C 	0.64833	0.91707	0.56847	0.295
Mof_C 	C 	0.61523	0.94817	0.58827	0.246
Mof_Cr	Cr	0.66667	0.33333	0.31186	2.103
Mof_Cr	Cr	0.33333	0.66667	0.64519	2.105
Mof_Cr	Cr	-1.44279e-32	-1.44279e-32	0.97853	1.965
Mof_Cr	Cr	0.66667	0.33333	0.81186	2.103
Mof_Cr	Cr	0.33333	0.66667	0.14519	2.104
Mof_Cr	Cr	-3.60699e-33	0	0.47853	1.925
_end
