data_functionalizedCrystal
_audit_creation_method	'EQeq! by Chris Wilmer'
_symmetry_space_group_name_H-M	'P1'
_symmetry_Int_Tables_number	1
_symmetry_cell_setting	triclinic
loop_
_symmetry_equiv_pos_as_xyz
  x,y,z
_cell_length_a	16.795
_cell_length_b	16.795
_cell_length_c	16.795
_cell_angle_alpha	90
_cell_angle_beta	90
_cell_angle_gamma	90
loop_
_atom_site_label
_atom_site_type_symbol
_atom_site_fract_x
_atom_site_fract_y
_atom_site_fract_z
_atom_site_charge
Mof_O 	O 	0.0949	0.5253	0.1954	-0.689
Mof_O 	O 	0.5949	0.0253	0.6954	-0.759
Mof_O 	O 	0.9051	0.4747	0.1954	-0.459
Mof_O 	O 	0.4051	0.9747	0.6954	-0.435
Mof_O 	O 	0.9051	0.5253	0.8046	-0.444
Mof_O 	O 	0.4051	0.0253	0.3046	-0.78
Mof_O 	O 	0.0949	0.4747	0.8046	-0.674
Mof_O 	O 	0.5949	0.9747	0.3046	-0.422
Mof_O 	O 	0.1954	0.0949	0.5253	-0.689
Mof_O 	O 	0.6954	0.5949	0.0253	-0.759
Mof_O 	O 	0.1954	0.9051	0.4747	-0.459
Mof_O 	O 	0.6954	0.4051	0.9747	-0.435
Mof_O 	O 	0.8046	0.9051	0.5253	-0.444
Mof_O 	O 	0.3046	0.4051	0.0253	-0.78
Mof_O 	O 	0.8046	0.0949	0.4747	-0.674
Mof_O 	O 	0.3046	0.5949	0.9747	-0.422
Mof_O 	O 	0.5253	0.1954	0.0949	-0.689
Mof_O 	O 	0.0253	0.6954	0.5949	-0.759
Mof_O 	O 	0.4747	0.1954	0.9051	-0.459
Mof_O 	O 	0.9747	0.6954	0.4051	-0.435
Mof_O 	O 	0.5253	0.8046	0.9051	-0.444
Mof_O 	O 	0.0253	0.3046	0.4051	-0.779
Mof_O 	O 	0.4747	0.8046	0.0949	-0.673
Mof_O 	O 	0.9747	0.3046	0.5949	-0.421
Mof_O 	O 	0.5253	0.0949	0.1954	-0.688
Mof_O 	O 	0.0253	0.5949	0.6954	-0.758
Mof_O 	O 	0.4747	0.9051	0.1954	-0.458
Mof_O 	O 	0.9747	0.4051	0.6954	-0.434
Mof_O 	O 	0.5253	0.9051	0.8046	-0.443
Mof_O 	O 	0.0253	0.4051	0.3046	-0.779
Mof_O 	O 	0.4747	0.0949	0.8046	-0.673
Mof_O 	O 	0.9747	0.5949	0.3046	-0.421
Mof_O 	O 	0.0949	0.1954	0.5253	-0.688
Mof_O 	O 	0.5949	0.6954	0.0253	-0.758
Mof_O 	O 	0.9051	0.1954	0.4747	-0.458
Mof_O 	O 	0.4051	0.6954	0.9747	-0.434
Mof_O 	O 	0.9051	0.8046	0.5253	-0.443
Mof_O 	O 	0.4051	0.3046	0.0253	-0.779
Mof_O 	O 	0.0949	0.8046	0.4747	-0.673
Mof_O 	O 	0.5949	0.3046	0.9747	-0.421
Mof_O 	O 	0.1954	0.5253	0.0949	-0.688
Mof_O 	O 	0.6954	0.0253	0.5949	-0.758
Mof_O 	O 	0.1954	0.4747	0.9051	-0.458
Mof_O 	O 	0.6954	0.9747	0.4051	-0.434
Mof_O 	O 	0.8046	0.5253	0.9051	-0.443
Mof_O 	O 	0.3046	0.0253	0.4051	-0.779
Mof_O 	O 	0.8046	0.4747	0.0949	-0.673
Mof_O 	O 	0.3046	0.9747	0.5949	-0.421
Mof_Al	Al	-1.72693e-33	0.5	0.25	1.753
Mof_Al	Al	2.81205e-33	0.5	0.75	1.865
Mof_Al	Al	0.5	0	0.25	1.753
Mof_Al	Al	0.25	0	0.5	1.753
Mof_Al	Al	0.75	0	0.5	1.865
Mof_Al	Al	0.25	0.5	-0	1.753
Mof_Al	Al	0.5	0.25	-0	1.753
Mof_Al	Al	0.5	0.75	-0	1.865
Mof_Al	Al	-3.45387e-33	0.25	0.5	1.753
Mof_Al	Al	0.5	-5.32857e-33	0.75	1.865
Mof_Al	Al	1.8747e-33	0.75	0.5	1.865
Mof_Al	Al	0.75	0.5	-0	1.865
Mof_Al	Al	-0	0.5	-0	0.595
Mof_Al	Al	0.5	0	0.5	2.655
Mof_Al	Al	1.8747e-33	0	0.5	0.595
Mof_Al	Al	0.5	0.5	-0	2.655
Mof_Al	Al	0.5	0	-0	0.595
Mof_Al	Al	1.8747e-33	0.5	0.5	2.655
Mof_P 	P 	0.12243	0.57089	0.12243	0.659
Mof_O 	O 	0.1418	0.6554	0.1418	-0.359
Mof_O 	O 	0.0576	0.5666	0.0576	-0.682
Mof_P 	P 	0.62243	0.07089	0.62243	0.772
Mof_O 	O 	0.6418	0.1554	0.6418	-0.255
Mof_O 	O 	0.5576	0.0666	0.5576	-0.995
Mof_P 	P 	0.87757	0.42911	0.12243	0.661
Mof_O 	O 	0.8582	0.3446	0.1418	-0.258
Mof_O 	O 	0.9424	0.4334	0.0576	-0.384
Mof_P 	P 	0.37757	0.92911	0.62243	0.747
Mof_O 	O 	0.3582	0.8446	0.6418	-0.211
Mof_O 	O 	0.4424	0.9334	0.5576	-0.723
Mof_P 	P 	0.87757	0.57089	0.87757	0.662
Mof_O 	O 	0.8582	0.6554	0.8582	-0.052
Mof_O 	O 	0.9424	0.5666	0.9424	-0.047
Mof_P 	P 	0.37757	0.07089	0.37757	0.762
Mof_O 	O 	0.3582	0.1554	0.3582	-0.308
Mof_O 	O 	0.4424	0.0666	0.4424	-0.992
Mof_P 	P 	0.12243	0.42911	0.87757	0.661
Mof_O 	O 	0.1418	0.3446	0.8582	-0.258
Mof_O 	O 	0.0576	0.4334	0.9424	-0.384
Mof_P 	P 	0.62243	0.92911	0.37757	0.747
Mof_O 	O 	0.6418	0.8446	0.3582	-0.211
Mof_O 	O 	0.5576	0.9334	0.4424	-0.723
Mof_P 	P 	0.12243	0.12243	0.57089	0.659
Mof_O 	O 	0.1418	0.1418	0.6554	-0.359
Mof_O 	O 	0.0576	0.0576	0.5666	-0.682
Mof_P 	P 	0.62243	0.62243	0.07089	0.772
Mof_O 	O 	0.6418	0.6418	0.1554	-0.255
Mof_O 	O 	0.5576	0.5576	0.0666	-0.995
Mof_P 	P 	0.12243	0.87757	0.42911	0.661
Mof_O 	O 	0.1418	0.8582	0.3446	-0.258
Mof_O 	O 	0.0576	0.9424	0.4334	-0.384
Mof_P 	P 	0.62243	0.37757	0.92911	0.747
Mof_O 	O 	0.6418	0.3582	0.8446	-0.211
Mof_O 	O 	0.5576	0.4424	0.9334	-0.723
Mof_P 	P 	0.87757	0.87757	0.57089	0.662
Mof_O 	O 	0.8582	0.8582	0.6554	-0.052
Mof_O 	O 	0.9424	0.9424	0.5666	-0.047
Mof_P 	P 	0.37757	0.37757	0.07089	0.762
Mof_O 	O 	0.3582	0.3582	0.1554	-0.308
Mof_O 	O 	0.4424	0.4424	0.0666	-0.992
Mof_P 	P 	0.87757	0.12243	0.42911	0.661
Mof_O 	O 	0.8582	0.1418	0.3446	-0.258
Mof_O 	O 	0.9424	0.0576	0.4334	-0.384
Mof_P 	P 	0.37757	0.62243	0.92911	0.747
Mof_O 	O 	0.3582	0.6418	0.8446	-0.211
Mof_O 	O 	0.4424	0.5576	0.9334	-0.723
Mof_P 	P 	0.57089	0.12243	0.12243	0.659
Mof_O 	O 	0.6554	0.1418	0.1418	-0.359
Mof_O 	O 	0.5666	0.0576	0.0576	-0.682
Mof_P 	P 	0.07089	0.62243	0.62243	0.772
Mof_O 	O 	0.1554	0.6418	0.6418	-0.255
Mof_O 	O 	0.0666	0.5576	0.5576	-0.995
Mof_P 	P 	0.42911	0.12243	0.87757	0.661
Mof_O 	O 	0.3446	0.1418	0.8582	-0.258
Mof_O 	O 	0.4334	0.0576	0.9424	-0.384
Mof_P 	P 	0.92911	0.62243	0.37757	0.747
Mof_O 	O 	0.8446	0.6418	0.3582	-0.211
Mof_O 	O 	0.9334	0.5576	0.4424	-0.723
Mof_P 	P 	0.57089	0.87757	0.87757	0.662
Mof_O 	O 	0.6554	0.8582	0.8582	-0.052
Mof_O 	O 	0.5666	0.9424	0.9424	-0.047
Mof_P 	P 	0.07089	0.37757	0.37757	0.762
Mof_O 	O 	0.1554	0.3582	0.3582	-0.308
Mof_O 	O 	0.0666	0.4424	0.4424	-0.992
Mof_P 	P 	0.42911	0.87757	0.12243	0.661
Mof_O 	O 	0.3446	0.8582	0.1418	-0.258
Mof_O 	O 	0.4334	0.9424	0.0576	-0.384
Mof_P 	P 	0.92911	0.37757	0.62243	0.747
Mof_O 	O 	0.8446	0.3582	0.6418	-0.211
Mof_O 	O 	0.9334	0.4424	0.5576	-0.723
_end
