data_functionalizedCrystal
_audit_creation_method	'EQeq! by Chris Wilmer'
_symmetry_space_group_name_H-M	'P1'
_symmetry_Int_Tables_number	1
_symmetry_cell_setting	triclinic
loop_
_symmetry_equiv_pos_as_xyz
  x,y,z
_cell_length_a	11.7079
_cell_length_b	12.8554
_cell_length_c	16.8605
_cell_angle_alpha	90
_cell_angle_beta	100.666
_cell_angle_gamma	90
loop_
_atom_site_label
_atom_site_type_symbol
_atom_site_fract_x
_atom_site_fract_y
_atom_site_fract_z
_atom_site_charge
Mof_Mn	Mn	0.74628	0.76846	0.22839	0.78
Mof_N 	N 	0.61074	0.89564	0.19832	-0.209
Mof_N 	N 	0.39155	0.16138	0.24729	-0.216
Mof_N 	N 	0.872	0.88691	0.20105	-0.219
Mof_N 	N 	0.7566	0.82617	0.35578	-0.212
Mof_N 	N 	0.70787	0.7884	0.60278	-0.218
Mof_N 	N 	0.11265	0.15605	0.22827	-0.222
Mof_N 	N 	0.992	0.0177	0.1565	-0.1
Mof_N 	N 	0.55914	0.07753	0.20807	-0.18
Mof_N 	N 	0.67251	0.87664	0.47185	-0.179
Mof_C 	C 	0.58035	0.97855	0.20509	0.175
Mof_C 	C 	0.46705	0.1158	0.23033	0.179
Mof_C 	C 	0.92101	0.95737	0.18454	0.184
Mof_C 	C 	0.71835	0.84555	0.41181	0.173
Mof_C 	C 	0.69296	0.82596	0.54026	0.175
Mof_C 	C 	0.04553	0.09709	0.19934	0.185
Mof_N 	N 	0.9551	0.0497	0.1595	-0.095
Mof_Mn	Mn	0.25372	0.26846	0.27162	0.779
Mof_N 	N 	0.38926	0.39564	0.30168	-0.21
Mof_N 	N 	0.60845	0.66138	0.25271	-0.217
Mof_N 	N 	0.128	0.38691	0.29895	-0.221
Mof_N 	N 	0.2434	0.32617	0.14422	-0.212
Mof_N 	N 	0.29213	0.2884	0.89722	-0.218
Mof_N 	N 	0.88735	0.65605	0.27173	-0.222
Mof_N 	N 	0.008	0.5177	0.3435	-0.102
Mof_N 	N 	0.44086	0.57753	0.29193	-0.181
Mof_N 	N 	0.32749	0.37664	0.02815	-0.178
Mof_C 	C 	0.41965	0.47855	0.29491	0.177
Mof_C 	C 	0.53295	0.6158	0.26967	0.179
Mof_C 	C 	0.07899	0.45737	0.31546	0.188
Mof_C 	C 	0.28165	0.34555	0.08819	0.173
Mof_C 	C 	0.30704	0.32596	0.95974	0.175
Mof_C 	C 	0.95447	0.59709	0.30066	0.187
Mof_N 	N 	0.0449	0.5497	0.3405	-0.096
Mof_Mn	Mn	0.25372	0.23154	0.77162	0.779
Mof_N 	N 	0.38926	0.10436	0.80168	-0.21
Mof_N 	N 	0.60845	0.83862	0.75271	-0.217
Mof_N 	N 	0.128	0.11309	0.79895	-0.22
Mof_N 	N 	0.2434	0.17383	0.64422	-0.212
Mof_N 	N 	0.29213	0.2116	0.39722	-0.218
Mof_N 	N 	0.88735	0.84395	0.77173	-0.222
Mof_N 	N 	0.008	0.9823	0.8435	-0.1
Mof_N 	N 	0.44086	0.92247	0.79193	-0.18
Mof_N 	N 	0.32749	0.12336	0.52815	-0.179
Mof_C 	C 	0.41965	0.02145	0.79491	0.175
Mof_C 	C 	0.53295	0.8842	0.76967	0.179
Mof_C 	C 	0.07899	0.04263	0.81546	0.184
Mof_C 	C 	0.28165	0.15445	0.58819	0.173
Mof_C 	C 	0.30704	0.17404	0.45974	0.175
Mof_C 	C 	0.95447	0.90291	0.80066	0.185
Mof_N 	N 	0.0449	0.9503	0.8405	-0.095
Mof_Mn	Mn	0.74628	0.73154	0.72839	0.779
Mof_N 	N 	0.61074	0.60436	0.69832	-0.21
Mof_N 	N 	0.39155	0.33862	0.74729	-0.217
Mof_N 	N 	0.872	0.61309	0.70105	-0.221
Mof_N 	N 	0.7566	0.67383	0.85578	-0.212
Mof_N 	N 	0.70787	0.7116	0.10278	-0.218
Mof_N 	N 	0.11265	0.34395	0.72827	-0.222
Mof_N 	N 	0.992	0.4823	0.6565	-0.102
Mof_N 	N 	0.55914	0.42247	0.70807	-0.181
Mof_N 	N 	0.67251	0.62336	0.97185	-0.178
Mof_C 	C 	0.58035	0.52145	0.70509	0.177
Mof_C 	C 	0.46705	0.3842	0.73033	0.179
Mof_C 	C 	0.92101	0.54263	0.68454	0.188
Mof_C 	C 	0.71835	0.65445	0.91181	0.173
Mof_C 	C 	0.69296	0.67404	0.04026	0.175
Mof_C 	C 	0.04553	0.40291	0.69934	0.187
Mof_N 	N 	0.9551	0.4503	0.6595	-0.096
_end
