data_functionalizedCrystal
_audit_creation_method	'EQeq! by Chris Wilmer'
_symmetry_space_group_name_H-M	'P1'
_symmetry_Int_Tables_number	1
_symmetry_cell_setting	triclinic
loop_
_symmetry_equiv_pos_as_xyz
  x,y,z
_cell_length_a	17.5448
_cell_length_b	13.5781
_cell_length_c	6.6642
_cell_angle_alpha	90
_cell_angle_beta	113.196
_cell_angle_gamma	90
loop_
_atom_site_label
_atom_site_type_symbol
_atom_site_fract_x
_atom_site_fract_y
_atom_site_fract_z
_atom_site_charge
Mof_O 	O 	0.90968	0.08077	0.83347	-0.471
Mof_O 	O 	0.92285	0.09654	0.51048	-0.74
Mof_O 	O 	0.73829	0.00569	0.74822	-0.303
Mof_O 	O 	0.75546	0.12453	0.99284	-0.111
Mof_C 	C 	0.81407	0.18053	0.55969	-0.071
Mof_C 	C 	0.75623	0.17603	0.65296	-0.031
Mof_C 	C 	0.81009	0.25377	0.4126	-0.003
Mof_H 	H 	0.849	0.257	0.34	0.071
Mof_C 	C 	0.89141	0.11366	0.648	0.555
Mof_C 	C 	0.74959	0.09465	0.79948	0.279
Mof_O 	O 	0.40968	0.58077	0.83347	-1.101
Mof_O 	O 	0.42285	0.59654	0.51048	-1.368
Mof_O 	O 	0.23829	0.50569	0.74822	-0.132
Mof_O 	O 	0.25546	0.62453	0.99284	-0.038
Mof_C 	C 	0.31407	0.68053	0.55969	-0.207
Mof_C 	C 	0.25623	0.67603	0.65296	0.097
Mof_C 	C 	0.31009	0.75377	0.4126	0.111
Mof_H 	H 	0.349	0.757	0.34	0.031
Mof_C 	C 	0.39141	0.61366	0.648	0.984
Mof_C 	C 	0.24959	0.59465	0.79948	0.234
Mof_O 	O 	0.09032	0.08077	0.66653	-0.822
Mof_O 	O 	0.07715	0.09654	0.98952	-0.497
Mof_O 	O 	0.26171	0.00569	0.75178	-0.323
Mof_O 	O 	0.24454	0.12453	0.50716	-0.296
Mof_C 	C 	0.18593	0.18053	0.94031	0.376
Mof_C 	C 	0.24377	0.17603	0.84704	-0.312
Mof_C 	C 	0.18991	0.25377	0.0874	-0.536
Mof_H 	H 	0.151	0.257	0.16	0.165
Mof_C 	C 	0.10859	0.11366	0.852	0.442
Mof_C 	C 	0.25041	0.09465	0.70052	0.393
Mof_O 	O 	0.59032	0.58077	0.66653	-1.354
Mof_O 	O 	0.57715	0.59654	0.98952	-1.004
Mof_O 	O 	0.76171	0.50569	0.75178	-0.124
Mof_O 	O 	0.74454	0.62453	0.50716	-0.199
Mof_C 	C 	0.68593	0.68053	0.94031	0.254
Mof_C 	C 	0.74377	0.67603	0.84704	-0.165
Mof_C 	C 	0.68991	0.75377	0.0874	-0.405
Mof_H 	H 	0.651	0.757	0.16	0.162
Mof_C 	C 	0.60859	0.61366	0.852	0.873
Mof_C 	C 	0.75041	0.59465	0.70052	0.355
Mof_O 	O 	0.09032	0.91923	0.16653	-0.555
Mof_O 	O 	0.07715	0.90346	0.48952	-0.651
Mof_O 	O 	0.26171	0.99431	0.25178	-0.046
Mof_O 	O 	0.24454	0.87547	0.00716	-0.225
Mof_C 	C 	0.18593	0.81947	0.44031	-0.017
Mof_C 	C 	0.24377	0.82397	0.34704	-0.037
Mof_C 	C 	0.18991	0.74623	0.5874	-0.028
Mof_H 	H 	0.151	0.743	0.66	0.102
Mof_C 	C 	0.10859	0.88634	0.352	0.572
Mof_C 	C 	0.25041	0.90535	0.20052	0.277
Mof_O 	O 	0.59032	0.41923	0.16653	-1.286
Mof_O 	O 	0.57715	0.40346	0.48952	-1.36
Mof_O 	O 	0.76171	0.49431	0.25178	-0.229
Mof_O 	O 	0.74454	0.37547	0.00716	-0.305
Mof_C 	C 	0.68593	0.31947	0.44031	-0.203
Mof_C 	C 	0.74377	0.32397	0.34704	0.026
Mof_C 	C 	0.68991	0.24623	0.5874	0.086
Mof_H 	H 	0.651	0.243	0.66	0.056
Mof_C 	C 	0.60859	0.38634	0.352	0.984
Mof_C 	C 	0.75041	0.40535	0.20052	0.278
Mof_O 	O 	0.90968	0.91923	0.33347	-0.628
Mof_O 	O 	0.92285	0.90346	0.01048	-0.518
Mof_O 	O 	0.73829	0.99431	0.24822	-0.037
Mof_O 	O 	0.75546	0.87547	0.49284	-0.047
Mof_C 	C 	0.81407	0.81947	0.05969	-0.457
Mof_C 	C 	0.75623	0.82397	0.15296	0.249
Mof_C 	C 	0.81009	0.74623	0.9126	0.48
Mof_H 	H 	0.849	0.743	0.84	0.007
Mof_C 	C 	0.89141	0.88634	0.148	0.685
Mof_C 	C 	0.74959	0.90535	0.29948	0.173
Mof_O 	O 	0.40968	0.41923	0.33347	-1.45
Mof_O 	O 	0.42285	0.40346	0.01048	-1.326
Mof_O 	O 	0.23829	0.49431	0.24822	-0.24
Mof_O 	O 	0.25546	0.37547	0.49284	-0.148
Mof_C 	C 	0.31407	0.31947	0.05969	-0.673
Mof_C 	C 	0.25623	0.32397	0.15296	0.303
Mof_C 	C 	0.31009	0.24623	0.9126	0.601
Mof_H 	H 	0.349	0.243	0.84	-0.077
Mof_C 	C 	0.39141	0.38634	0.148	1.099
Mof_C 	C 	0.24959	0.40535	0.29948	0.163
Mof_Al	Al	-0	0	-0	1.655
Mof_Al	Al	0.5	0.5	-0	4.633
Mof_Al	Al	9.92558e-34	0	0.5	2.85
Mof_Al	Al	0.5	0.5	0.5	5.853
Mof_O 	O 	1.9477e-17	0.93793	0.75	-0.664
Mof_O 	O 	0.5	0.43793	0.75	-1.731
Mof_O 	O 	-4.86925e-18	0.06207	0.25	-1.088
Mof_O 	O 	0.5	0.56207	0.25	-1.875
_end
