data_functionalizedCrystal
_audit_creation_method	'EQeq! by Chris Wilmer'
_symmetry_space_group_name_H-M	'P1'
_symmetry_Int_Tables_number	1
_symmetry_cell_setting	triclinic
loop_
_symmetry_equiv_pos_as_xyz
  x,y,z
_cell_length_a	17.4675
_cell_length_b	17.4675
_cell_length_c	57.836
_cell_angle_alpha	90
_cell_angle_beta	90
_cell_angle_gamma	90
loop_
_atom_site_label
_atom_site_type_symbol
_atom_site_fract_x
_atom_site_fract_y
_atom_site_fract_z
_atom_site_charge
Mof_Co	Co	0.13414	0.40394	0.58759	1.131
Mof_Co	Co	0.12284	0.22682	0.61999	1.134
Mof_N 	N 	0.74357	0.09011	0.58769	-0.233
Mof_N 	N 	0.12489	0.4719	0.55707	-0.246
Mof_O 	O 	0.25473	0.12098	0.6439	-0.468
Mof_O 	O 	0.23212	0.19559	0.61286	-0.461
Mof_O 	O 	0.13312	0.81063	0.43436	-0.46
Mof_O 	O 	0.0905	0.7089	0.41454	-0.462
Mof_O 	O 	0.13101	0.34225	0.61809	-0.832
Mof_H 	H 	0.1713	0.3543	0.6255	0.266
Mof_C 	C 	0.7003	0.1426	0.57785	0.073
Mof_H 	H 	0.7241	0.178	0.5677	0.003
Mof_C 	C 	0.62284	0.1491	0.58143	-0.13
Mof_H 	H 	0.5951	0.1883	0.5737	0.071
Mof_C 	C 	0.58518	0.10048	0.59583	0.057
Mof_C 	C 	0.62974	0.0407	0.60449	-0.128
Mof_H 	H 	0.6062	0.0014	0.6133	0.068
Mof_C 	C 	0.70596	0.03796	0.60044	0.057
Mof_H 	H 	0.7344	0.997	0.607	0.006
Mof_C 	C 	0.50427	0.11024	0.60231	0.031
Mof_C 	C 	0.45096	0.1421	0.58744	-0.101
Mof_H 	H 	0.4656	0.1552	0.5721	0.059
Mof_C 	C 	0.37677	0.1549	0.59464	0.038
Mof_H 	H 	0.341	0.1769	0.5842	0.026
Mof_C 	C 	0.35346	0.13643	0.61686	-0.125
Mof_C 	C 	0.40551	0.1019	0.63115	0.041
Mof_H 	H 	0.3905	0.0878	0.6463	0.022
Mof_C 	C 	0.47887	0.0874	0.62398	-0.104
Mof_H 	H 	0.513	0.0612	0.634	0.059
Mof_C 	C 	0.27358	0.1523	0.62512	0.37
Mof_C 	C 	0.0801	0.4529	0.53974	-0.014
Mof_H 	H 	0.0501	0.4077	0.5412	0.022
Mof_C 	C 	0.0739	0.4949	0.51925	-0.049
Mof_H 	H 	0.0401	0.4787	0.5073	0.044
Mof_C 	C 	0.11756	0.56058	0.51652	0.092
Mof_C 	C 	0.1594	0.5857	0.53633	-0.009
Mof_H 	H 	0.1856	0.6333	0.5361	0.028
Mof_C 	C 	0.1614	0.5405	0.55557	-0.065
Mof_H 	H 	0.1898	0.5578	0.5686	0.046
Mof_C 	C 	0.11523	0.60714	0.49511	0.013
Mof_C 	C 	0.1208	0.572	0.47336	-0.099
Mof_H 	H 	0.126	0.518	0.4723	0.057
Mof_C 	C 	0.11875	0.6161	0.45357	0.04
Mof_H 	H 	0.1216	0.5919	0.4389	0.008
Mof_C 	C 	0.11259	0.69515	0.45473	-0.134
Mof_C 	C 	0.1096	0.72973	0.47608	0.042
Mof_H 	H 	0.1073	0.784	0.4771	0.023
Mof_C 	C 	0.1098	0.68635	0.49615	-0.096
Mof_H 	H 	0.1061	0.7111	0.5107	0.056
Mof_C 	C 	0.11254	0.74238	0.43303	0.389
Mof_C 	C 	0.1671	0.45	0.5375	0.072
Mof_H 	H 	0.1971	0.4047	0.5382	0.002
Mof_C 	C 	0.1666	0.4914	0.51757	-0.123
Mof_H 	H 	0.1969	0.4764	0.5047	0.067
Mof_C 	C 	0.0793	0.5774	0.53537	-0.179
Mof_H 	H 	0.0464	0.6207	0.5356	0.084
Mof_C 	C 	0.087	0.5319	0.55494	0.163
Mof_H 	H 	0.0602	0.5485	0.5683	-0.045
Mof_Co	Co	0.63414	0.90394	0.08759	1.129
Mof_Co	Co	0.62284	0.72682	0.11999	1.132
Mof_N 	N 	0.24357	0.59011	0.08769	-0.233
Mof_N 	N 	0.62489	0.9719	0.05707	-0.248
Mof_O 	O 	0.75473	0.62098	0.1439	-0.471
Mof_O 	O 	0.73212	0.69559	0.11286	-0.464
Mof_O 	O 	0.63312	0.31063	0.93436	-0.462
Mof_O 	O 	0.5905	0.2089	0.91454	-0.465
Mof_O 	O 	0.63101	0.84225	0.11809	-0.833
Mof_H 	H 	0.6713	0.8543	0.1255	0.265
Mof_C 	C 	0.2003	0.6426	0.07785	0.067
Mof_H 	H 	0.2241	0.678	0.0677	0.004
Mof_C 	C 	0.12284	0.6491	0.08143	-0.119
Mof_H 	H 	0.0951	0.6883	0.0737	0.068
Mof_C 	C 	0.08518	0.60048	0.09583	0.041
Mof_C 	C 	0.12974	0.5407	0.10449	-0.119
Mof_H 	H 	0.1062	0.5014	0.1133	0.066
Mof_C 	C 	0.20596	0.53796	0.10044	0.055
Mof_H 	H 	0.2344	0.497	0.107	0.006
Mof_C 	C 	0.00427	0.61024	0.10231	0.07
Mof_C 	C 	0.95096	0.6421	0.08744	-0.135
Mof_H 	H 	0.9656	0.6552	0.0721	0.068
Mof_C 	C 	0.87677	0.6549	0.09464	0.062
Mof_H 	H 	0.841	0.6769	0.0842	0.018
Mof_C 	C 	0.85346	0.63643	0.11686	-0.145
Mof_C 	C 	0.90551	0.6019	0.13115	0.072
Mof_H 	H 	0.8905	0.5878	0.1463	0.011
Mof_C 	C 	0.97887	0.5874	0.12398	-0.151
Mof_H 	H 	0.013	0.5612	0.134	0.08
Mof_C 	C 	0.77358	0.6523	0.12512	0.377
Mof_C 	C 	0.5801	0.9529	0.03974	-0.015
Mof_H 	H 	0.5501	0.9077	0.0412	0.02
Mof_C 	C 	0.5739	0.9949	0.01925	-0.05
Mof_H 	H 	0.5401	0.9787	0.0073	0.041
Mof_C 	C 	0.61756	0.06058	0.01652	0.092
Mof_C 	C 	0.6594	0.0857	0.03633	-0.009
Mof_H 	H 	0.6856	0.1333	0.0361	0.027
Mof_C 	C 	0.6614	0.0405	0.05557	-0.066
Mof_H 	H 	0.6898	0.0578	0.0686	0.046
Mof_C 	C 	0.61523	0.10714	0.99511	0.012
Mof_C 	C 	0.6208	0.072	0.97336	-0.1
Mof_H 	H 	0.626	0.018	0.9723	0.055
Mof_C 	C 	0.61875	0.1161	0.95357	0.039
Mof_H 	H 	0.6216	0.0919	0.9389	0.007
Mof_C 	C 	0.61259	0.19515	0.95473	-0.135
Mof_C 	C 	0.6096	0.22973	0.97608	0.041
Mof_H 	H 	0.6073	0.284	0.9771	0.022
Mof_C 	C 	0.6098	0.18635	0.99615	-0.097
Mof_H 	H 	0.6061	0.2111	0.0107	0.055
Mof_C 	C 	0.61254	0.24238	0.93303	0.389
Mof_C 	C 	0.6671	0.95	0.0375	0.072
Mof_H 	H 	0.6971	0.9047	0.0382	0.001
Mof_C 	C 	0.6666	0.9914	0.01757	-0.124
Mof_H 	H 	0.6969	0.9764	0.0047	0.067
Mof_C 	C 	0.5793	0.0774	0.03537	-0.18
Mof_H 	H 	0.5464	0.1207	0.0356	0.082
Mof_C 	C 	0.587	0.0319	0.05494	0.164
Mof_H 	H 	0.5602	0.0485	0.0683	-0.047
Mof_Co	Co	0.36586	0.59606	0.08759	1.13
Mof_Co	Co	0.37716	0.77318	0.11999	1.132
Mof_N 	N 	0.75643	0.90989	0.08769	-0.237
Mof_N 	N 	0.37511	0.5281	0.05707	-0.247
Mof_O 	O 	0.24527	0.87902	0.1439	-0.468
Mof_O 	O 	0.26788	0.80441	0.11286	-0.461
Mof_O 	O 	0.36688	0.18937	0.93436	-0.462
Mof_O 	O 	0.4095	0.2911	0.91454	-0.465
Mof_O 	O 	0.36899	0.65775	0.11809	-0.834
Mof_H 	H 	0.3287	0.6457	0.1255	0.266
Mof_C 	C 	0.7997	0.8574	0.07785	0.078
Mof_H 	H 	0.7759	0.822	0.0677	0.001
Mof_C 	C 	0.87716	0.8509	0.08143	-0.142
Mof_H 	H 	0.9049	0.8117	0.0737	0.074
Mof_C 	C 	0.91482	0.89952	0.09583	0.074
Mof_C 	C 	0.87026	0.9593	0.10449	-0.139
Mof_H 	H 	0.8938	0.9986	0.1133	0.071
Mof_C 	C 	0.79404	0.96204	0.10044	0.062
Mof_H 	H 	0.7656	0.003	0.107	0.004
Mof_C 	C 	0.99573	0.88976	0.10231	-0.007
Mof_C 	C 	0.04904	0.8579	0.08744	-0.069
Mof_H 	H 	0.0344	0.8448	0.0721	0.051
Mof_C 	C 	0.12323	0.8451	0.09464	0.015
Mof_H 	H 	0.159	0.8231	0.0842	0.034
Mof_C 	C 	0.14654	0.86357	0.11686	-0.105
Mof_C 	C 	0.09449	0.8981	0.13115	0.012
Mof_H 	H 	0.1095	0.9122	0.1463	0.033
Mof_C 	C 	0.02113	0.9126	0.12398	-0.058
Mof_H 	H 	0.987	0.9388	0.134	0.04
Mof_C 	C 	0.22642	0.8477	0.12512	0.363
Mof_C 	C 	0.4199	0.5471	0.03974	-0.015
Mof_H 	H 	0.4499	0.5923	0.0412	0.02
Mof_C 	C 	0.4261	0.5051	0.01925	-0.049
Mof_H 	H 	0.4599	0.5213	0.0073	0.041
Mof_C 	C 	0.38244	0.43942	0.01652	0.091
Mof_C 	C 	0.3406	0.4143	0.03633	-0.008
Mof_H 	H 	0.3144	0.3667	0.0361	0.028
Mof_C 	C 	0.3386	0.4595	0.05557	-0.066
Mof_H 	H 	0.3102	0.4422	0.0686	0.046
Mof_C 	C 	0.38477	0.39286	0.99511	0.012
Mof_C 	C 	0.3792	0.428	0.97336	-0.1
Mof_H 	H 	0.374	0.482	0.9723	0.056
Mof_C 	C 	0.38125	0.3839	0.95357	0.039
Mof_H 	H 	0.3784	0.4081	0.9389	0.007
Mof_C 	C 	0.38741	0.30485	0.95473	-0.135
Mof_C 	C 	0.3904	0.27027	0.97608	0.041
Mof_H 	H 	0.3927	0.216	0.9771	0.022
Mof_C 	C 	0.3902	0.31365	0.99615	-0.097
Mof_H 	H 	0.3939	0.2889	0.0107	0.055
Mof_C 	C 	0.38746	0.25762	0.93303	0.389
Mof_C 	C 	0.3329	0.55	0.0375	0.072
Mof_H 	H 	0.3029	0.5953	0.0382	0.002
Mof_C 	C 	0.3334	0.5086	0.01757	-0.123
Mof_H 	H 	0.3031	0.5236	0.0047	0.068
Mof_C 	C 	0.4207	0.4226	0.03537	-0.179
Mof_H 	H 	0.4536	0.3793	0.0356	0.082
Mof_C 	C 	0.413	0.4681	0.05494	0.163
Mof_H 	H 	0.4398	0.4515	0.0683	-0.047
Mof_Co	Co	0.86586	0.09606	0.58759	1.129
Mof_Co	Co	0.87716	0.27318	0.61999	1.131
Mof_N 	N 	0.25643	0.40989	0.58769	-0.235
Mof_N 	N 	0.87511	0.0281	0.55707	-0.248
Mof_O 	O 	0.74527	0.37902	0.6439	-0.469
Mof_O 	O 	0.76788	0.30441	0.61286	-0.462
Mof_O 	O 	0.86688	0.68937	0.43436	-0.463
Mof_O 	O 	0.9095	0.7911	0.41454	-0.468
Mof_O 	O 	0.86899	0.15775	0.61809	-0.835
Mof_H 	H 	0.8287	0.1457	0.6255	0.266
Mof_C 	C 	0.2997	0.3574	0.57785	0.073
Mof_H 	H 	0.2759	0.322	0.5677	0.002
Mof_C 	C 	0.37716	0.3509	0.58143	-0.131
Mof_H 	H 	0.4049	0.3117	0.5737	0.072
Mof_C 	C 	0.41482	0.39952	0.59583	0.058
Mof_C 	C 	0.37026	0.4593	0.60449	-0.13
Mof_H 	H 	0.3938	0.4986	0.6133	0.069
Mof_C 	C 	0.29404	0.46204	0.60044	0.06
Mof_H 	H 	0.2656	0.503	0.607	0.004
Mof_C 	C 	0.49573	0.38976	0.60231	0.031
Mof_C 	C 	0.54904	0.3579	0.58744	-0.101
Mof_H 	H 	0.5344	0.3448	0.5721	0.059
Mof_C 	C 	0.62323	0.3451	0.59464	0.038
Mof_H 	H 	0.659	0.3231	0.5842	0.026
Mof_C 	C 	0.64654	0.36357	0.61686	-0.125
Mof_C 	C 	0.59449	0.3981	0.63115	0.041
Mof_H 	H 	0.6095	0.4122	0.6463	0.023
Mof_C 	C 	0.52113	0.4126	0.62398	-0.104
Mof_H 	H 	0.487	0.4388	0.634	0.059
Mof_C 	C 	0.72642	0.3477	0.62512	0.369
Mof_C 	C 	0.9199	0.0471	0.53974	-0.016
Mof_H 	H 	0.9499	0.0923	0.5412	0.018
Mof_C 	C 	0.9261	0.0051	0.51925	-0.05
Mof_H 	H 	0.9599	0.0213	0.5073	0.038
Mof_C 	C 	0.88244	0.93942	0.51652	0.092
Mof_C 	C 	0.8406	0.9143	0.53633	-0.008
Mof_H 	H 	0.8144	0.8667	0.5361	0.027
Mof_C 	C 	0.8386	0.9595	0.55557	-0.066
Mof_H 	H 	0.8102	0.9422	0.5686	0.046
Mof_C 	C 	0.88477	0.89286	0.49511	0.011
Mof_C 	C 	0.8792	0.928	0.47336	-0.101
Mof_H 	H 	0.874	0.982	0.4723	0.054
Mof_C 	C 	0.88125	0.8839	0.45357	0.038
Mof_H 	H 	0.8784	0.9081	0.4389	0.006
Mof_C 	C 	0.88741	0.80485	0.45473	-0.136
Mof_C 	C 	0.8904	0.77027	0.47608	0.04
Mof_H 	H 	0.8927	0.716	0.4771	0.021
Mof_C 	C 	0.8902	0.81365	0.49615	-0.098
Mof_H 	H 	0.8939	0.7889	0.5107	0.054
Mof_C 	C 	0.88746	0.75762	0.43303	0.388
Mof_C 	C 	0.8329	0.05	0.5375	0.073
Mof_H 	H 	0.8029	0.0953	0.5382	0.001
Mof_C 	C 	0.8334	0.0086	0.51757	-0.124
Mof_H 	H 	0.8031	0.0236	0.5047	0.067
Mof_C 	C 	0.9207	0.9226	0.53537	-0.181
Mof_H 	H 	0.9536	0.8793	0.5356	0.08
Mof_C 	C 	0.913	0.9681	0.55494	0.164
Mof_H 	H 	0.9398	0.9515	0.5683	-0.049
Mof_Co	Co	0.34606	0.38414	0.83759	1.13
Mof_Co	Co	0.52318	0.37284	0.86999	1.132
Mof_N 	N 	0.65989	0.99357	0.83769	-0.234
Mof_N 	N 	0.2781	0.37489	0.80707	-0.247
Mof_O 	O 	0.62902	0.50473	0.8939	-0.469
Mof_O 	O 	0.55441	0.48212	0.86286	-0.462
Mof_O 	O 	0.93937	0.38312	0.68436	-0.472
Mof_O 	O 	0.0411	0.3405	0.66454	-0.467
Mof_O 	O 	0.40775	0.38101	0.86809	-0.833
Mof_H 	H 	0.3957	0.4213	0.8755	0.266
Mof_C 	C 	0.6074	0.9503	0.82785	0.073
Mof_H 	H 	0.572	0.9741	0.8177	0.003
Mof_C 	C 	0.6009	0.87284	0.83143	-0.131
Mof_H 	H 	0.5617	0.8451	0.8237	0.072
Mof_C 	C 	0.64952	0.83518	0.84583	0.058
Mof_C 	C 	0.7093	0.87974	0.85449	-0.13
Mof_H 	H 	0.7486	0.8562	0.8633	0.069
Mof_C 	C 	0.71204	0.95596	0.85044	0.06
Mof_H 	H 	0.753	0.9844	0.857	0.005
Mof_C 	C 	0.63976	0.75427	0.85231	0.031
Mof_C 	C 	0.6079	0.70096	0.83744	-0.101
Mof_H 	H 	0.5948	0.7156	0.8221	0.059
Mof_C 	C 	0.5951	0.62677	0.84464	0.038
Mof_H 	H 	0.5731	0.591	0.8342	0.026
Mof_C 	C 	0.61357	0.60346	0.86686	-0.125
Mof_C 	C 	0.6481	0.65551	0.88115	0.041
Mof_H 	H 	0.6622	0.6405	0.8963	0.023
Mof_C 	C 	0.6626	0.72887	0.87398	-0.104
Mof_H 	H 	0.6888	0.763	0.884	0.059
Mof_C 	C 	0.5977	0.52358	0.87512	0.37
Mof_C 	C 	0.2971	0.3301	0.78974	-0.015
Mof_H 	H 	0.3423	0.3001	0.7912	0.02
Mof_C 	C 	0.2551	0.3239	0.76925	-0.048
Mof_H 	H 	0.2713	0.2901	0.7573	0.04
Mof_C 	C 	0.18942	0.36756	0.76652	0.086
Mof_C 	C 	0.1643	0.4094	0.78633	-0.008
Mof_H 	H 	0.1167	0.4356	0.7861	0.028
Mof_C 	C 	0.2095	0.4114	0.80557	-0.065
Mof_H 	H 	0.1922	0.4398	0.8186	0.046
Mof_C 	C 	0.14286	0.36523	0.74511	0.023
Mof_C 	C 	0.178	0.3708	0.72336	-0.11
Mof_H 	H 	0.232	0.376	0.7223	0.059
Mof_C 	C 	0.1339	0.36875	0.70357	0.051
Mof_H 	H 	0.1581	0.3716	0.6889	0.003
Mof_C 	C 	0.05485	0.36259	0.70473	-0.15
Mof_C 	C 	0.02027	0.3596	0.72608	0.07
Mof_H 	H 	0.966	0.3573	0.7271	0.008
Mof_C 	C 	0.06365	0.3598	0.74615	-0.114
Mof_H 	H 	0.0389	0.3561	0.7607	0.063
Mof_C 	C 	0.00762	0.36254	0.68303	0.405
Mof_C 	C 	0.3	0.4171	0.7875	0.071
Mof_H 	H 	0.3453	0.4471	0.7882	0.002
Mof_C 	C 	0.2586	0.4166	0.76757	-0.121
Mof_H 	H 	0.2736	0.4469	0.7547	0.067
Mof_C 	C 	0.1726	0.3293	0.78537	-0.177
Mof_H 	H 	0.1293	0.2964	0.7856	0.082
Mof_C 	C 	0.2181	0.337	0.80494	0.161
Mof_H 	H 	0.2015	0.3102	0.8183	-0.046
Mof_Co	Co	0.84606	0.88414	0.33759	1.129
Mof_Co	Co	0.02318	0.87284	0.36999	1.135
Mof_N 	N 	0.15989	0.49357	0.33769	-0.235
Mof_N 	N 	0.7781	0.87489	0.30707	-0.247
Mof_O 	O 	0.12902	0.00473	0.3939	-0.469
Mof_O 	O 	0.05441	0.98212	0.36286	-0.462
Mof_O 	O 	0.43937	0.88312	0.18436	-0.462
Mof_O 	O 	0.5411	0.8405	0.16454	-0.465
Mof_O 	O 	0.90775	0.88101	0.36809	-0.837
Mof_H 	H 	0.8957	0.9213	0.3755	0.265
Mof_C 	C 	0.1074	0.4503	0.32785	0.074
Mof_H 	H 	0.072	0.4741	0.3177	0.004
Mof_C 	C 	0.1009	0.37284	0.33143	-0.13
Mof_H 	H 	0.0617	0.3451	0.3237	0.074
Mof_C 	C 	0.14952	0.33518	0.34583	0.059
Mof_C 	C 	0.2093	0.37974	0.35449	-0.13
Mof_H 	H 	0.2486	0.3562	0.3633	0.069
Mof_C 	C 	0.21204	0.45596	0.35044	0.061
Mof_H 	H 	0.253	0.4844	0.357	0.004
Mof_C 	C 	0.13976	0.25427	0.35231	0.032
Mof_C 	C 	0.1079	0.20096	0.33744	-0.1
Mof_H 	H 	0.0948	0.2156	0.3221	0.061
Mof_C 	C 	0.0951	0.12677	0.34464	0.039
Mof_H 	H 	0.0731	0.091	0.3342	0.028
Mof_C 	C 	0.11357	0.10346	0.36686	-0.124
Mof_C 	C 	0.1481	0.15551	0.38115	0.042
Mof_H 	H 	0.1622	0.1405	0.3963	0.023
Mof_C 	C 	0.1626	0.22887	0.37398	-0.103
Mof_H 	H 	0.1888	0.263	0.384	0.06
Mof_C 	C 	0.0977	0.02358	0.37512	0.372
Mof_C 	C 	0.7971	0.8301	0.28974	-0.015
Mof_H 	H 	0.8423	0.8001	0.2912	0.02
Mof_C 	C 	0.7551	0.8239	0.26925	-0.049
Mof_H 	H 	0.7713	0.7901	0.2573	0.041
Mof_C 	C 	0.68942	0.86756	0.26652	0.091
Mof_C 	C 	0.6643	0.9094	0.28633	-0.009
Mof_H 	H 	0.6167	0.9356	0.2861	0.027
Mof_C 	C 	0.7095	0.9114	0.30557	-0.066
Mof_H 	H 	0.6922	0.9398	0.3186	0.046
Mof_C 	C 	0.64286	0.86523	0.24511	0.012
Mof_C 	C 	0.678	0.8708	0.22336	-0.1
Mof_H 	H 	0.732	0.876	0.2223	0.055
Mof_C 	C 	0.6339	0.86875	0.20357	0.039
Mof_H 	H 	0.6581	0.8716	0.1889	0.007
Mof_C 	C 	0.55485	0.86259	0.20473	-0.135
Mof_C 	C 	0.52027	0.8596	0.22608	0.041
Mof_H 	H 	0.466	0.8573	0.2271	0.022
Mof_C 	C 	0.56365	0.8598	0.24615	-0.097
Mof_H 	H 	0.5389	0.8561	0.2607	0.055
Mof_C 	C 	0.50762	0.86254	0.18303	0.389
Mof_C 	C 	0.8	0.9171	0.2875	0.072
Mof_H 	H 	0.8453	0.9471	0.2882	0.001
Mof_C 	C 	0.7586	0.9166	0.26757	-0.123
Mof_H 	H 	0.7736	0.9469	0.2547	0.066
Mof_C 	C 	0.6726	0.8293	0.28537	-0.179
Mof_H 	H 	0.6293	0.7964	0.2856	0.082
Mof_C 	C 	0.7181	0.837	0.30494	0.163
Mof_H 	H 	0.7015	0.8102	0.3183	-0.047
Mof_Co	Co	0.15394	0.61586	0.33759	1.13
Mof_Co	Co	0.97682	0.62716	0.36999	1.129
Mof_N 	N 	0.84011	0.00643	0.33769	-0.234
Mof_N 	N 	0.2219	0.62511	0.30707	-0.247
Mof_O 	O 	0.87098	0.49527	0.3939	-0.47
Mof_O 	O 	0.94559	0.51788	0.36286	-0.465
Mof_O 	O 	0.56063	0.61688	0.18436	-0.462
Mof_O 	O 	0.4589	0.6595	0.16454	-0.465
Mof_O 	O 	0.09225	0.61899	0.36809	-0.831
Mof_H 	H 	0.1043	0.5787	0.3755	0.266
Mof_C 	C 	0.8926	0.0497	0.32785	0.072
Mof_H 	H 	0.928	0.0259	0.3177	0.002
Mof_C 	C 	0.8991	0.12716	0.33143	-0.131
Mof_H 	H 	0.9383	0.1549	0.3237	0.069
Mof_C 	C 	0.85048	0.16482	0.34583	0.057
Mof_C 	C 	0.7907	0.12026	0.35449	-0.13
Mof_H 	H 	0.7514	0.1438	0.3633	0.069
Mof_C 	C 	0.78796	0.04404	0.35044	0.06
Mof_H 	H 	0.747	0.0156	0.357	0.005
Mof_C 	C 	0.86024	0.24573	0.35231	0.031
Mof_C 	C 	0.8921	0.29904	0.33744	-0.102
Mof_H 	H 	0.9052	0.2844	0.3221	0.058
Mof_C 	C 	0.9049	0.37323	0.34464	0.038
Mof_H 	H 	0.9269	0.409	0.3342	0.024
Mof_C 	C 	0.88643	0.39654	0.36686	-0.126
Mof_C 	C 	0.8519	0.34449	0.38115	0.041
Mof_H 	H 	0.8378	0.3595	0.3963	0.022
Mof_C 	C 	0.8374	0.27113	0.37398	-0.105
Mof_H 	H 	0.8112	0.237	0.384	0.059
Mof_C 	C 	0.9023	0.47642	0.37512	0.369
Mof_C 	C 	0.2029	0.6699	0.28974	-0.015
Mof_H 	H 	0.1577	0.6999	0.2912	0.02
Mof_C 	C 	0.2449	0.6761	0.26925	-0.049
Mof_H 	H 	0.2287	0.7099	0.2573	0.041
Mof_C 	C 	0.31058	0.63244	0.26652	0.091
Mof_C 	C 	0.3357	0.5906	0.28633	-0.008
Mof_H 	H 	0.3833	0.5644	0.2861	0.028
Mof_C 	C 	0.2905	0.5886	0.30557	-0.066
Mof_H 	H 	0.3078	0.5602	0.3186	0.046
Mof_C 	C 	0.35714	0.63477	0.24511	0.013
Mof_C 	C 	0.322	0.6292	0.22336	-0.1
Mof_H 	H 	0.268	0.624	0.2223	0.056
Mof_C 	C 	0.3661	0.63125	0.20357	0.039
Mof_H 	H 	0.3419	0.6284	0.1889	0.007
Mof_C 	C 	0.44515	0.63741	0.20473	-0.135
Mof_C 	C 	0.47973	0.6404	0.22608	0.041
Mof_H 	H 	0.534	0.6427	0.2271	0.022
Mof_C 	C 	0.43635	0.6402	0.24615	-0.097
Mof_H 	H 	0.4611	0.6439	0.2607	0.055
Mof_C 	C 	0.49238	0.63746	0.18303	0.389
Mof_C 	C 	0.2	0.5829	0.2875	0.072
Mof_H 	H 	0.1547	0.5529	0.2882	0.002
Mof_C 	C 	0.2414	0.5834	0.26757	-0.123
Mof_H 	H 	0.2264	0.5531	0.2547	0.068
Mof_C 	C 	0.3274	0.6707	0.28537	-0.179
Mof_H 	H 	0.3707	0.7036	0.2856	0.082
Mof_C 	C 	0.2819	0.663	0.30494	0.163
Mof_H 	H 	0.2985	0.6898	0.3183	-0.047
Mof_Co	Co	0.65394	0.11586	0.83759	1.129
Mof_Co	Co	0.47682	0.12716	0.86999	1.132
Mof_N 	N 	0.34011	0.50643	0.83769	-0.235
Mof_N 	N 	0.7219	0.12511	0.80707	-0.248
Mof_O 	O 	0.37098	0.99527	0.8939	-0.469
Mof_O 	O 	0.44559	0.01788	0.86286	-0.464
Mof_O 	O 	0.06063	0.11688	0.68436	-0.453
Mof_O 	O 	0.9589	0.1595	0.66454	-0.464
Mof_O 	O 	0.59225	0.11899	0.86809	-0.833
Mof_H 	H 	0.6043	0.0787	0.8755	0.265
Mof_C 	C 	0.3926	0.5497	0.82785	0.073
Mof_H 	H 	0.428	0.5259	0.8177	0.002
Mof_C 	C 	0.3991	0.62716	0.83143	-0.131
Mof_H 	H 	0.4383	0.6549	0.8237	0.072
Mof_C 	C 	0.35048	0.66482	0.84583	0.059
Mof_C 	C 	0.2907	0.62026	0.85449	-0.13
Mof_H 	H 	0.2514	0.6438	0.8633	0.07
Mof_C 	C 	0.28796	0.54404	0.85044	0.061
Mof_H 	H 	0.247	0.5156	0.857	0.004
Mof_C 	C 	0.36024	0.74573	0.85231	0.031
Mof_C 	C 	0.3921	0.79904	0.83744	-0.101
Mof_H 	H 	0.4052	0.7844	0.8221	0.059
Mof_C 	C 	0.4049	0.87323	0.84464	0.038
Mof_H 	H 	0.4269	0.909	0.8342	0.026
Mof_C 	C 	0.38643	0.89654	0.86686	-0.125
Mof_C 	C 	0.3519	0.84449	0.88115	0.042
Mof_H 	H 	0.3378	0.8595	0.8963	0.023
Mof_C 	C 	0.3374	0.77113	0.87398	-0.104
Mof_H 	H 	0.3112	0.737	0.884	0.06
Mof_C 	C 	0.4023	0.97642	0.87512	0.372
Mof_C 	C 	0.7029	0.1699	0.78974	-0.015
Mof_H 	H 	0.6577	0.1999	0.7912	0.02
Mof_C 	C 	0.7449	0.1761	0.76925	-0.05
Mof_H 	H 	0.7287	0.2099	0.7573	0.041
Mof_C 	C 	0.81058	0.13244	0.76652	0.096
Mof_C 	C 	0.8357	0.0906	0.78633	-0.009
Mof_H 	H 	0.8833	0.0644	0.7861	0.027
Mof_C 	C 	0.7905	0.0886	0.80557	-0.066
Mof_H 	H 	0.8078	0.0602	0.8186	0.046
Mof_C 	C 	0.85714	0.13477	0.74511	0.002
Mof_C 	C 	0.822	0.1292	0.72336	-0.09
Mof_H 	H 	0.768	0.124	0.7223	0.052
Mof_C 	C 	0.8661	0.13125	0.70357	0.027
Mof_H 	H 	0.8419	0.1284	0.6889	0.011
Mof_C 	C 	0.94515	0.13741	0.70473	-0.121
Mof_C 	C 	0.97973	0.1404	0.72608	0.013
Mof_H 	H 	0.034	0.1427	0.7271	0.037
Mof_C 	C 	0.93635	0.1402	0.74615	-0.081
Mof_H 	H 	0.9611	0.1439	0.7607	0.048
Mof_C 	C 	0.99238	0.13746	0.68303	0.372
Mof_C 	C 	0.7	0.0829	0.7875	0.073
Mof_H 	H 	0.6547	0.0529	0.7882	0.001
Mof_C 	C 	0.7414	0.0834	0.76757	-0.125
Mof_H 	H 	0.7264	0.0531	0.7547	0.068
Mof_C 	C 	0.8274	0.1707	0.78537	-0.182
Mof_H 	H 	0.8707	0.2036	0.7856	0.082
Mof_C 	C 	0.7819	0.163	0.80494	0.165
Mof_H 	H 	0.7985	0.1898	0.8183	-0.048
Mof_Co	Co	0.86586	0.59606	0.41241	1.129
Mof_Co	Co	0.87716	0.77318	0.38001	1.131
Mof_N 	N 	0.25643	0.90989	0.41231	-0.234
Mof_N 	N 	0.87511	0.5281	0.44293	-0.248
Mof_O 	O 	0.74527	0.87902	0.3561	-0.47
Mof_O 	O 	0.76788	0.80441	0.38714	-0.463
Mof_O 	O 	0.86688	0.18937	0.56564	-0.463
Mof_O 	O 	0.9095	0.2911	0.58546	-0.468
Mof_O 	O 	0.86899	0.65775	0.38191	-0.835
Mof_H 	H 	0.8287	0.6457	0.3745	0.266
Mof_C 	C 	0.2997	0.8574	0.42215	0.073
Mof_H 	H 	0.2759	0.822	0.4323	0.003
Mof_C 	C 	0.37716	0.8509	0.41857	-0.13
Mof_H 	H 	0.4049	0.8117	0.4263	0.071
Mof_C 	C 	0.41482	0.89952	0.40417	0.057
Mof_C 	C 	0.37026	0.9593	0.39551	-0.128
Mof_H 	H 	0.3938	0.9986	0.3867	0.068
Mof_C 	C 	0.29404	0.96204	0.39956	0.057
Mof_H 	H 	0.2656	0.003	0.393	0.006
Mof_C 	C 	0.49573	0.88976	0.39769	0.031
Mof_C 	C 	0.54904	0.8579	0.41256	-0.101
Mof_H 	H 	0.5344	0.8448	0.4279	0.059
Mof_C 	C 	0.62323	0.8451	0.40536	0.038
Mof_H 	H 	0.659	0.8231	0.4158	0.026
Mof_C 	C 	0.64654	0.86357	0.38314	-0.125
Mof_C 	C 	0.59449	0.8981	0.36885	0.041
Mof_H 	H 	0.6095	0.9122	0.3537	0.022
Mof_C 	C 	0.52113	0.9126	0.37602	-0.104
Mof_H 	H 	0.487	0.9388	0.366	0.059
Mof_C 	C 	0.72642	0.8477	0.37488	0.369
Mof_C 	C 	0.9199	0.5471	0.46026	-0.016
Mof_H 	H 	0.9499	0.5923	0.4588	0.018
Mof_C 	C 	0.9261	0.5051	0.48075	-0.049
Mof_H 	H 	0.9599	0.5213	0.4927	0.037
Mof_C 	C 	0.88244	0.43942	0.48348	0.09
Mof_C 	C 	0.8406	0.4143	0.46367	-0.008
Mof_H 	H 	0.8144	0.3667	0.4639	0.027
Mof_C 	C 	0.8386	0.4595	0.44443	-0.066
Mof_H 	H 	0.8102	0.4422	0.4314	0.046
Mof_C 	C 	0.88477	0.39286	0.50489	0.011
Mof_C 	C 	0.8792	0.428	0.52664	-0.101
Mof_H 	H 	0.874	0.482	0.5277	0.055
Mof_C 	C 	0.88125	0.3839	0.54643	0.039
Mof_H 	H 	0.8784	0.4081	0.5611	0.006
Mof_C 	C 	0.88741	0.30485	0.54527	-0.136
Mof_C 	C 	0.8904	0.27027	0.52392	0.04
Mof_H 	H 	0.8927	0.216	0.5229	0.021
Mof_C 	C 	0.8902	0.31365	0.50385	-0.098
Mof_H 	H 	0.8939	0.2889	0.4893	0.054
Mof_C 	C 	0.88746	0.25762	0.56697	0.388
Mof_C 	C 	0.8329	0.55	0.4625	0.072
Mof_H 	H 	0.8029	0.5953	0.4618	0.002
Mof_C 	C 	0.8334	0.5086	0.48243	-0.123
Mof_H 	H 	0.8031	0.5236	0.4953	0.067
Mof_C 	C 	0.9207	0.4226	0.46463	-0.18
Mof_H 	H 	0.9536	0.3793	0.4644	0.08
Mof_C 	C 	0.913	0.4681	0.44506	0.163
Mof_H 	H 	0.9398	0.4515	0.4317	-0.048
Mof_Co	Co	0.36586	0.09606	0.91241	1.129
Mof_Co	Co	0.37716	0.27318	0.88001	1.132
Mof_N 	N 	0.75643	0.40989	0.91231	-0.237
Mof_N 	N 	0.37511	0.0281	0.94293	-0.248
Mof_O 	O 	0.24527	0.37902	0.8561	-0.467
Mof_O 	O 	0.26788	0.30441	0.88714	-0.461
Mof_O 	O 	0.36688	0.68937	0.06564	-0.462
Mof_O 	O 	0.4095	0.7911	0.08546	-0.465
Mof_O 	O 	0.36899	0.15775	0.88191	-0.834
Mof_H 	H 	0.3287	0.1457	0.8745	0.266
Mof_C 	C 	0.7997	0.3574	0.92215	0.079
Mof_H 	H 	0.7759	0.322	0.9323	0
Mof_C 	C 	0.87716	0.3509	0.91857	-0.143
Mof_H 	H 	0.9049	0.3117	0.9263	0.075
Mof_C 	C 	0.91482	0.39952	0.90417	0.076
Mof_C 	C 	0.87026	0.4593	0.89551	-0.142
Mof_H 	H 	0.8938	0.4986	0.8867	0.072
Mof_C 	C 	0.79404	0.46204	0.89956	0.066
Mof_H 	H 	0.7656	0.503	0.893	0.002
Mof_C 	C 	0.99573	0.38976	0.89769	-0.009
Mof_C 	C 	0.04904	0.3579	0.91256	-0.067
Mof_H 	H 	0.0344	0.3448	0.9279	0.05
Mof_C 	C 	0.12323	0.3451	0.90536	0.014
Mof_H 	H 	0.159	0.3231	0.9158	0.034
Mof_C 	C 	0.14654	0.36357	0.88314	-0.104
Mof_C 	C 	0.09449	0.3981	0.86885	0.011
Mof_H 	H 	0.1095	0.4122	0.8537	0.034
Mof_C 	C 	0.02113	0.4126	0.87602	-0.056
Mof_H 	H 	0.987	0.4388	0.866	0.039
Mof_C 	C 	0.22642	0.3477	0.87488	0.362
Mof_C 	C 	0.4199	0.0471	0.96026	-0.015
Mof_H 	H 	0.4499	0.0923	0.9588	0.02
Mof_C 	C 	0.4261	0.0051	0.98075	-0.049
Mof_H 	H 	0.4599	0.0213	0.9927	0.041
Mof_C 	C 	0.38244	0.93942	0.98348	0.092
Mof_C 	C 	0.3406	0.9143	0.96367	-0.008
Mof_H 	H 	0.3144	0.8667	0.9639	0.028
Mof_C 	C 	0.3386	0.9595	0.94443	-0.066
Mof_H 	H 	0.3102	0.9422	0.9314	0.047
Mof_C 	C 	0.38477	0.89286	0.00489	0.012
Mof_C 	C 	0.3792	0.928	0.02664	-0.1
Mof_H 	H 	0.374	0.982	0.0277	0.055
Mof_C 	C 	0.38125	0.8839	0.04643	0.039
Mof_H 	H 	0.3784	0.9081	0.0611	0.007
Mof_C 	C 	0.38741	0.80485	0.04527	-0.135
Mof_C 	C 	0.3904	0.77027	0.02392	0.041
Mof_H 	H 	0.3927	0.716	0.0229	0.022
Mof_C 	C 	0.3902	0.81365	0.00385	-0.097
Mof_H 	H 	0.3939	0.7889	0.9893	0.055
Mof_C 	C 	0.38746	0.75762	0.06697	0.389
Mof_C 	C 	0.3329	0.05	0.9625	0.073
Mof_H 	H 	0.3029	0.0953	0.9618	0.002
Mof_C 	C 	0.3334	0.0086	0.98243	-0.124
Mof_H 	H 	0.3031	0.0236	0.9953	0.068
Mof_C 	C 	0.4207	0.9226	0.96463	-0.18
Mof_H 	H 	0.4536	0.8793	0.9644	0.082
Mof_C 	C 	0.413	0.9681	0.94506	0.164
Mof_H 	H 	0.4398	0.9515	0.9317	-0.047
Mof_Co	Co	0.63414	0.40394	0.91241	1.13
Mof_Co	Co	0.62284	0.22682	0.88001	1.132
Mof_N 	N 	0.24357	0.09011	0.91231	-0.232
Mof_N 	N 	0.62489	0.4719	0.94293	-0.247
Mof_O 	O 	0.75473	0.12098	0.8561	-0.471
Mof_O 	O 	0.73212	0.19559	0.88714	-0.464
Mof_O 	O 	0.63312	0.81063	0.06564	-0.462
Mof_O 	O 	0.5905	0.7089	0.08546	-0.465
Mof_O 	O 	0.63101	0.34225	0.88191	-0.833
Mof_H 	H 	0.6713	0.3543	0.8745	0.265
Mof_C 	C 	0.2003	0.1426	0.92215	0.067
Mof_H 	H 	0.2241	0.178	0.9323	0.005
Mof_C 	C 	0.12284	0.1491	0.91857	-0.118
Mof_H 	H 	0.0951	0.1883	0.9263	0.068
Mof_C 	C 	0.08518	0.10048	0.90417	0.04
Mof_C 	C 	0.12974	0.0407	0.89551	-0.117
Mof_H 	H 	0.1062	0.0014	0.8867	0.065
Mof_C 	C 	0.20596	0.03796	0.89956	0.052
Mof_H 	H 	0.2344	0.997	0.893	0.008
Mof_C 	C 	0.00427	0.11024	0.89769	0.071
Mof_C 	C 	0.95096	0.1421	0.91256	-0.135
Mof_H 	H 	0.9656	0.1552	0.9279	0.068
Mof_C 	C 	0.87677	0.1549	0.90536	0.062
Mof_H 	H 	0.841	0.1769	0.9158	0.018
Mof_C 	C 	0.85346	0.13643	0.88314	-0.146
Mof_C 	C 	0.90551	0.1019	0.86885	0.072
Mof_H 	H 	0.8905	0.0878	0.8537	0.011
Mof_C 	C 	0.97887	0.0874	0.87602	-0.152
Mof_H 	H 	0.013	0.0612	0.866	0.08
Mof_C 	C 	0.77358	0.1523	0.87488	0.377
Mof_C 	C 	0.5801	0.4529	0.96026	-0.015
Mof_H 	H 	0.5501	0.4077	0.9588	0.02
Mof_C 	C 	0.5739	0.4949	0.98075	-0.049
Mof_H 	H 	0.5401	0.4787	0.9927	0.041
Mof_C 	C 	0.61756	0.56058	0.98348	0.091
Mof_C 	C 	0.6594	0.5857	0.96367	-0.009
Mof_H 	H 	0.6856	0.6333	0.9639	0.027
Mof_C 	C 	0.6614	0.5405	0.94443	-0.066
Mof_H 	H 	0.6898	0.5578	0.9314	0.046
Mof_C 	C 	0.61523	0.60714	0.00489	0.012
Mof_C 	C 	0.6208	0.572	0.02664	-0.1
Mof_H 	H 	0.626	0.518	0.0277	0.055
Mof_C 	C 	0.61875	0.6161	0.04643	0.039
Mof_H 	H 	0.6216	0.5919	0.0611	0.007
Mof_C 	C 	0.61259	0.69515	0.04527	-0.135
Mof_C 	C 	0.6096	0.72973	0.02392	0.041
Mof_H 	H 	0.6073	0.784	0.0229	0.022
Mof_C 	C 	0.6098	0.68635	0.00385	-0.097
Mof_H 	H 	0.6061	0.7111	0.9893	0.055
Mof_C 	C 	0.61254	0.74238	0.06697	0.389
Mof_C 	C 	0.6671	0.45	0.9625	0.072
Mof_H 	H 	0.6971	0.4047	0.9618	0.001
Mof_C 	C 	0.6666	0.4914	0.98243	-0.123
Mof_H 	H 	0.6969	0.4764	0.9953	0.067
Mof_C 	C 	0.5793	0.5774	0.96463	-0.179
Mof_H 	H 	0.5464	0.6207	0.9644	0.082
Mof_C 	C 	0.587	0.5319	0.94506	0.163
Mof_H 	H 	0.5602	0.5485	0.9317	-0.047
Mof_Co	Co	0.13414	0.90394	0.41241	1.13
Mof_Co	Co	0.12284	0.72682	0.38001	1.133
Mof_N 	N 	0.74357	0.59011	0.41231	-0.235
Mof_N 	N 	0.12489	0.9719	0.44293	-0.248
Mof_O 	O 	0.25473	0.62098	0.3561	-0.469
Mof_O 	O 	0.23212	0.69559	0.38714	-0.462
Mof_O 	O 	0.13312	0.31063	0.56564	-0.461
Mof_O 	O 	0.0905	0.2089	0.58546	-0.463
Mof_O 	O 	0.13101	0.84225	0.38191	-0.833
Mof_H 	H 	0.1713	0.8543	0.3745	0.265
Mof_C 	C 	0.7003	0.6426	0.42215	0.073
Mof_H 	H 	0.7241	0.678	0.4323	0.003
Mof_C 	C 	0.62284	0.6491	0.41857	-0.131
Mof_H 	H 	0.5951	0.6883	0.4263	0.072
Mof_C 	C 	0.58518	0.60048	0.40417	0.058
Mof_C 	C 	0.62974	0.5407	0.39551	-0.13
Mof_H 	H 	0.6062	0.5014	0.3867	0.069
Mof_C 	C 	0.70596	0.53796	0.39956	0.06
Mof_H 	H 	0.7344	0.497	0.393	0.004
Mof_C 	C 	0.50427	0.61024	0.39769	0.031
Mof_C 	C 	0.45096	0.6421	0.41256	-0.101
Mof_H 	H 	0.4656	0.6552	0.4279	0.059
Mof_C 	C 	0.37677	0.6549	0.40536	0.038
Mof_H 	H 	0.341	0.6769	0.4158	0.026
Mof_C 	C 	0.35346	0.63643	0.38314	-0.125
Mof_C 	C 	0.40551	0.6019	0.36885	0.041
Mof_H 	H 	0.3905	0.5878	0.3537	0.023
Mof_C 	C 	0.47887	0.5874	0.37602	-0.104
Mof_H 	H 	0.513	0.5612	0.366	0.059
Mof_C 	C 	0.27358	0.6523	0.37488	0.37
Mof_C 	C 	0.0801	0.9529	0.46026	-0.014
Mof_H 	H 	0.0501	0.9077	0.4588	0.022
Mof_C 	C 	0.0739	0.9949	0.48075	-0.05
Mof_H 	H 	0.0401	0.9787	0.4927	0.044
Mof_C 	C 	0.11756	0.06058	0.48348	0.093
Mof_C 	C 	0.1594	0.0857	0.46367	-0.009
Mof_H 	H 	0.1856	0.1333	0.4639	0.028
Mof_C 	C 	0.1614	0.0405	0.44443	-0.065
Mof_H 	H 	0.1898	0.0578	0.4314	0.047
Mof_C 	C 	0.11523	0.10714	0.50489	0.013
Mof_C 	C 	0.1208	0.072	0.52664	-0.098
Mof_H 	H 	0.126	0.018	0.5277	0.056
Mof_C 	C 	0.11875	0.1161	0.54643	0.04
Mof_H 	H 	0.1216	0.0919	0.5611	0.008
Mof_C 	C 	0.11259	0.19515	0.54527	-0.134
Mof_C 	C 	0.1096	0.22973	0.52392	0.042
Mof_H 	H 	0.1073	0.284	0.5229	0.023
Mof_C 	C 	0.1098	0.18635	0.50385	-0.096
Mof_H 	H 	0.1061	0.2111	0.4893	0.056
Mof_C 	C 	0.11254	0.24238	0.56697	0.389
Mof_C 	C 	0.1671	0.95	0.4625	0.073
Mof_H 	H 	0.1971	0.9047	0.4618	0.002
Mof_C 	C 	0.1666	0.9914	0.48243	-0.124
Mof_H 	H 	0.1969	0.9764	0.4953	0.068
Mof_C 	C 	0.0793	0.0774	0.46463	-0.18
Mof_H 	H 	0.0464	0.1207	0.4644	0.085
Mof_C 	C 	0.087	0.0319	0.44506	0.165
Mof_H 	H 	0.0602	0.0485	0.4317	-0.045
Mof_Co	Co	0.65394	0.61586	0.16241	1.13
Mof_Co	Co	0.47682	0.62716	0.13001	1.132
Mof_N 	N 	0.34011	0.00643	0.16231	-0.234
Mof_N 	N 	0.7219	0.62511	0.19293	-0.248
Mof_O 	O 	0.37098	0.49527	0.1061	-0.469
Mof_O 	O 	0.44559	0.51788	0.13714	-0.462
Mof_O 	O 	0.06063	0.61688	0.31564	-0.453
Mof_O 	O 	0.9589	0.6595	0.33546	-0.464
Mof_O 	O 	0.59225	0.61899	0.13191	-0.833
Mof_H 	H 	0.6043	0.5787	0.1245	0.265
Mof_C 	C 	0.3926	0.0497	0.17215	0.073
Mof_H 	H 	0.428	0.0259	0.1823	0.003
Mof_C 	C 	0.3991	0.12716	0.16857	-0.131
Mof_H 	H 	0.4383	0.1549	0.1763	0.072
Mof_C 	C 	0.35048	0.16482	0.15417	0.059
Mof_C 	C 	0.2907	0.12026	0.14551	-0.13
Mof_H 	H 	0.2514	0.1438	0.1367	0.07
Mof_C 	C 	0.28796	0.04404	0.14956	0.061
Mof_H 	H 	0.247	0.0156	0.143	0.005
Mof_C 	C 	0.36024	0.24573	0.14769	0.031
Mof_C 	C 	0.3921	0.29904	0.16256	-0.101
Mof_H 	H 	0.4052	0.2844	0.1779	0.059
Mof_C 	C 	0.4049	0.37323	0.15536	0.038
Mof_H 	H 	0.4269	0.409	0.1658	0.026
Mof_C 	C 	0.38643	0.39654	0.13314	-0.125
Mof_C 	C 	0.3519	0.34449	0.11885	0.041
Mof_H 	H 	0.3378	0.3595	0.1037	0.023
Mof_C 	C 	0.3374	0.27113	0.12602	-0.104
Mof_H 	H 	0.3112	0.237	0.116	0.06
Mof_C 	C 	0.4023	0.47642	0.12488	0.37
Mof_C 	C 	0.7029	0.6699	0.21026	-0.015
Mof_H 	H 	0.6577	0.6999	0.2088	0.02
Mof_C 	C 	0.7449	0.6761	0.23075	-0.05
Mof_H 	H 	0.7287	0.7099	0.2427	0.041
Mof_C 	C 	0.81058	0.63244	0.23348	0.096
Mof_C 	C 	0.8357	0.5906	0.21367	-0.009
Mof_H 	H 	0.8833	0.5644	0.2139	0.027
Mof_C 	C 	0.7905	0.5886	0.19443	-0.066
Mof_H 	H 	0.8078	0.5602	0.1814	0.046
Mof_C 	C 	0.85714	0.63477	0.25489	0.002
Mof_C 	C 	0.822	0.6292	0.27664	-0.09
Mof_H 	H 	0.768	0.624	0.2777	0.052
Mof_C 	C 	0.8661	0.63125	0.29643	0.028
Mof_H 	H 	0.8419	0.6284	0.3111	0.011
Mof_C 	C 	0.94515	0.63741	0.29527	-0.121
Mof_C 	C 	0.97973	0.6404	0.27392	0.013
Mof_H 	H 	0.034	0.6427	0.2729	0.037
Mof_C 	C 	0.93635	0.6402	0.25385	-0.081
Mof_H 	H 	0.9611	0.6439	0.2393	0.048
Mof_C 	C 	0.99238	0.63746	0.31697	0.373
Mof_C 	C 	0.7	0.5829	0.2125	0.073
Mof_H 	H 	0.6547	0.5529	0.2118	0.001
Mof_C 	C 	0.7414	0.5834	0.23243	-0.125
Mof_H 	H 	0.7264	0.5531	0.2453	0.068
Mof_C 	C 	0.8274	0.6707	0.21463	-0.182
Mof_H 	H 	0.8707	0.7036	0.2144	0.082
Mof_C 	C 	0.7819	0.663	0.19506	0.165
Mof_H 	H 	0.7985	0.6898	0.1817	-0.048
Mof_Co	Co	0.15394	0.11586	0.66241	1.13
Mof_Co	Co	0.97682	0.12716	0.63001	1.129
Mof_N 	N 	0.84011	0.50643	0.66231	-0.235
Mof_N 	N 	0.2219	0.12511	0.69293	-0.248
Mof_O 	O 	0.87098	0.99527	0.6061	-0.47
Mof_O 	O 	0.94559	0.01788	0.63714	-0.467
Mof_O 	O 	0.56063	0.11688	0.81564	-0.462
Mof_O 	O 	0.4589	0.1595	0.83546	-0.465
Mof_O 	O 	0.09225	0.11899	0.63191	-0.831
Mof_H 	H 	0.1043	0.0787	0.6245	0.266
Mof_C 	C 	0.8926	0.5497	0.67215	0.072
Mof_H 	H 	0.928	0.5259	0.6823	0.001
Mof_C 	C 	0.8991	0.62716	0.66857	-0.131
Mof_H 	H 	0.9383	0.6549	0.6763	0.069
Mof_C 	C 	0.85048	0.66482	0.65417	0.057
Mof_C 	C 	0.7907	0.62026	0.64551	-0.13
Mof_H 	H 	0.7514	0.6438	0.6367	0.069
Mof_C 	C 	0.78796	0.54404	0.64956	0.06
Mof_H 	H 	0.747	0.5156	0.643	0.004
Mof_C 	C 	0.86024	0.74573	0.64769	0.031
Mof_C 	C 	0.8921	0.79904	0.66256	-0.102
Mof_H 	H 	0.9052	0.7844	0.6779	0.058
Mof_C 	C 	0.9049	0.87323	0.65536	0.038
Mof_H 	H 	0.9269	0.909	0.6658	0.025
Mof_C 	C 	0.88643	0.89654	0.63314	-0.126
Mof_C 	C 	0.8519	0.84449	0.61885	0.042
Mof_H 	H 	0.8378	0.8595	0.6037	0.022
Mof_C 	C 	0.8374	0.77113	0.62602	-0.105
Mof_H 	H 	0.8112	0.737	0.616	0.059
Mof_C 	C 	0.9023	0.97642	0.62488	0.372
Mof_C 	C 	0.2029	0.1699	0.71026	-0.015
Mof_H 	H 	0.1577	0.1999	0.7088	0.02
Mof_C 	C 	0.2449	0.1761	0.73075	-0.049
Mof_H 	H 	0.2287	0.2099	0.7427	0.041
Mof_C 	C 	0.31058	0.13244	0.73348	0.091
Mof_C 	C 	0.3357	0.0906	0.71367	-0.008
Mof_H 	H 	0.3833	0.0644	0.7139	0.027
Mof_C 	C 	0.2905	0.0886	0.69443	-0.066
Mof_H 	H 	0.3078	0.0602	0.6814	0.046
Mof_C 	C 	0.35714	0.13477	0.75489	0.012
Mof_C 	C 	0.322	0.1292	0.77664	-0.1
Mof_H 	H 	0.268	0.124	0.7777	0.056
Mof_C 	C 	0.3661	0.13125	0.79643	0.039
Mof_H 	H 	0.3419	0.1284	0.8111	0.007
Mof_C 	C 	0.44515	0.13741	0.79527	-0.135
Mof_C 	C 	0.47973	0.1404	0.77392	0.041
Mof_H 	H 	0.534	0.1427	0.7729	0.022
Mof_C 	C 	0.43635	0.1402	0.75385	-0.097
Mof_H 	H 	0.4611	0.1439	0.7393	0.055
Mof_C 	C 	0.49238	0.13746	0.81697	0.389
Mof_C 	C 	0.2	0.0829	0.7125	0.072
Mof_H 	H 	0.1547	0.0529	0.7118	0.002
Mof_C 	C 	0.2414	0.0834	0.73243	-0.123
Mof_H 	H 	0.2264	0.0531	0.7453	0.067
Mof_C 	C 	0.3274	0.1707	0.71463	-0.179
Mof_H 	H 	0.3707	0.2036	0.7144	0.082
Mof_C 	C 	0.2819	0.163	0.69506	0.163
Mof_H 	H 	0.2985	0.1898	0.6817	-0.047
Mof_Co	Co	0.84606	0.38414	0.66241	1.13
Mof_Co	Co	0.02318	0.37284	0.63001	1.135
Mof_N 	N 	0.15989	0.99357	0.66231	-0.234
Mof_N 	N 	0.7781	0.37489	0.69293	-0.247
Mof_O 	O 	0.12902	0.50473	0.6061	-0.469
Mof_O 	O 	0.05441	0.48212	0.63714	-0.46
Mof_O 	O 	0.43937	0.38312	0.81564	-0.462
Mof_O 	O 	0.5411	0.3405	0.83546	-0.465
Mof_O 	O 	0.90775	0.38101	0.63191	-0.837
Mof_H 	H 	0.8957	0.4213	0.6245	0.265
Mof_C 	C 	0.1074	0.9503	0.67215	0.074
Mof_H 	H 	0.072	0.9741	0.6823	0.005
Mof_C 	C 	0.1009	0.87284	0.66857	-0.13
Mof_H 	H 	0.0617	0.8451	0.6763	0.074
Mof_C 	C 	0.14952	0.83518	0.65417	0.059
Mof_C 	C 	0.2093	0.87974	0.64551	-0.13
Mof_H 	H 	0.2486	0.8562	0.6367	0.069
Mof_C 	C 	0.21204	0.95596	0.64956	0.061
Mof_H 	H 	0.253	0.9844	0.643	0.005
Mof_C 	C 	0.13976	0.75427	0.64769	0.031
Mof_C 	C 	0.1079	0.70096	0.66256	-0.1
Mof_H 	H 	0.0948	0.7156	0.6779	0.06
Mof_C 	C 	0.0951	0.62677	0.65536	0.038
Mof_H 	H 	0.0731	0.591	0.6658	0.028
Mof_C 	C 	0.11357	0.60346	0.63314	-0.123
Mof_C 	C 	0.1481	0.65551	0.61885	0.041
Mof_H 	H 	0.1622	0.6405	0.6037	0.023
Mof_C 	C 	0.1626	0.72887	0.62602	-0.103
Mof_H 	H 	0.1888	0.763	0.616	0.06
Mof_C 	C 	0.0977	0.52358	0.62488	0.37
Mof_C 	C 	0.7971	0.3301	0.71026	-0.015
Mof_H 	H 	0.8423	0.3001	0.7088	0.02
Mof_C 	C 	0.7551	0.3239	0.73075	-0.049
Mof_H 	H 	0.7713	0.2901	0.7427	0.041
Mof_C 	C 	0.68942	0.36756	0.73348	0.091
Mof_C 	C 	0.6643	0.4094	0.71367	-0.009
Mof_H 	H 	0.6167	0.4356	0.7139	0.028
Mof_C 	C 	0.7095	0.4114	0.69443	-0.066
Mof_H 	H 	0.6922	0.4398	0.6814	0.046
Mof_C 	C 	0.64286	0.36523	0.75489	0.012
Mof_C 	C 	0.678	0.3708	0.77664	-0.1
Mof_H 	H 	0.732	0.376	0.7777	0.055
Mof_C 	C 	0.6339	0.36875	0.79643	0.039
Mof_H 	H 	0.6581	0.3716	0.8111	0.007
Mof_C 	C 	0.55485	0.36259	0.79527	-0.135
Mof_C 	C 	0.52027	0.3596	0.77392	0.041
Mof_H 	H 	0.466	0.3573	0.7729	0.022
Mof_C 	C 	0.56365	0.3598	0.75385	-0.097
Mof_H 	H 	0.5389	0.3561	0.7393	0.055
Mof_C 	C 	0.50762	0.36254	0.81697	0.389
Mof_C 	C 	0.8	0.4171	0.7125	0.072
Mof_H 	H 	0.8453	0.4471	0.7118	0.001
Mof_C 	C 	0.7586	0.4166	0.73243	-0.123
Mof_H 	H 	0.7736	0.4469	0.7453	0.067
Mof_C 	C 	0.6726	0.3293	0.71463	-0.179
Mof_H 	H 	0.6293	0.2964	0.7144	0.082
Mof_C 	C 	0.7181	0.337	0.69506	0.163
Mof_H 	H 	0.7015	0.3102	0.6817	-0.047
Mof_Co	Co	0.34606	0.88414	0.16241	1.129
Mof_Co	Co	0.52318	0.87284	0.13001	1.132
Mof_N 	N 	0.65989	0.49357	0.16231	-0.235
Mof_N 	N 	0.2781	0.87489	0.19293	-0.247
Mof_O 	O 	0.62902	0.00473	0.1061	-0.469
Mof_O 	O 	0.55441	0.98212	0.13714	-0.464
Mof_O 	O 	0.93937	0.88312	0.31564	-0.472
Mof_O 	O 	0.0411	0.8405	0.33546	-0.467
Mof_O 	O 	0.40775	0.88101	0.13191	-0.833
Mof_H 	H 	0.3957	0.9213	0.1245	0.265
Mof_C 	C 	0.6074	0.4503	0.17215	0.073
Mof_H 	H 	0.572	0.4741	0.1823	0.003
Mof_C 	C 	0.6009	0.37284	0.16857	-0.131
Mof_H 	H 	0.5617	0.3451	0.1763	0.072
Mof_C 	C 	0.64952	0.33518	0.15417	0.058
Mof_C 	C 	0.7093	0.37974	0.14551	-0.13
Mof_H 	H 	0.7486	0.3562	0.1367	0.068
Mof_C 	C 	0.71204	0.45596	0.14956	0.06
Mof_H 	H 	0.753	0.4844	0.143	0.004
Mof_C 	C 	0.63976	0.25427	0.14769	0.031
Mof_C 	C 	0.6079	0.20096	0.16256	-0.101
Mof_H 	H 	0.5948	0.2156	0.1779	0.059
Mof_C 	C 	0.5951	0.12677	0.15536	0.038
Mof_H 	H 	0.5731	0.091	0.1658	0.026
Mof_C 	C 	0.61357	0.10346	0.13314	-0.125
Mof_C 	C 	0.6481	0.15551	0.11885	0.042
Mof_H 	H 	0.6622	0.1405	0.1037	0.022
Mof_C 	C 	0.6626	0.22887	0.12602	-0.104
Mof_H 	H 	0.6888	0.263	0.116	0.059
Mof_C 	C 	0.5977	0.02358	0.12488	0.372
Mof_C 	C 	0.2971	0.8301	0.21026	-0.015
Mof_H 	H 	0.3423	0.8001	0.2088	0.02
Mof_C 	C 	0.2551	0.8239	0.23075	-0.048
Mof_H 	H 	0.2713	0.7901	0.2427	0.04
Mof_C 	C 	0.18942	0.86756	0.23348	0.086
Mof_C 	C 	0.1643	0.9094	0.21367	-0.008
Mof_H 	H 	0.1167	0.9356	0.2139	0.028
Mof_C 	C 	0.2095	0.9114	0.19443	-0.065
Mof_H 	H 	0.1922	0.9398	0.1814	0.046
Mof_C 	C 	0.14286	0.86523	0.25489	0.022
Mof_C 	C 	0.178	0.8708	0.27664	-0.11
Mof_H 	H 	0.232	0.876	0.2777	0.059
Mof_C 	C 	0.1339	0.86875	0.29643	0.051
Mof_H 	H 	0.1581	0.8716	0.3111	0.003
Mof_C 	C 	0.05485	0.86259	0.29527	-0.15
Mof_C 	C 	0.02027	0.8596	0.27392	0.069
Mof_H 	H 	0.966	0.8573	0.2729	0.008
Mof_C 	C 	0.06365	0.8598	0.25385	-0.113
Mof_H 	H 	0.0389	0.8561	0.2393	0.063
Mof_C 	C 	0.00762	0.86254	0.31697	0.405
Mof_C 	C 	0.3	0.9171	0.2125	0.071
Mof_H 	H 	0.3453	0.9471	0.2118	0.002
Mof_C 	C 	0.2586	0.9166	0.23243	-0.121
Mof_H 	H 	0.2736	0.9469	0.2453	0.066
Mof_C 	C 	0.1726	0.8293	0.21463	-0.177
Mof_H 	H 	0.1293	0.7964	0.2144	0.082
Mof_C 	C 	0.2181	0.837	0.19506	0.161
Mof_H 	H 	0.2015	0.8102	0.1817	-0.046
Mof_O 	O 	7.75906e-33	0.25	0.625	-0.642
Mof_O 	O 	0.5	0.75	0.125	-0.648
Mof_O 	O 	0.5	0.25	0.875	-0.648
Mof_O 	O 	-6.78864e-33	0.75	0.375	-0.642
_end
