data_functionalizedCrystal
_audit_creation_method	'EQeq! by Chris Wilmer'
_symmetry_space_group_name_H-M	'P1'
_symmetry_Int_Tables_number	1
_symmetry_cell_setting	triclinic
loop_
_symmetry_equiv_pos_as_xyz
  x,y,z
_cell_length_a	24.408
_cell_length_b	27.827
_cell_length_c	5.1509
_cell_angle_alpha	90
_cell_angle_beta	90
_cell_angle_gamma	90
loop_
_atom_site_label
_atom_site_type_symbol
_atom_site_fract_x
_atom_site_fract_y
_atom_site_fract_z
_atom_site_charge
Mof_Zn	Zn	0.46491	0.4507	0.28711	1.228
Mof_P 	P 	0.58125	0.50163	0.224	0.475
Mof_P 	P 	0.41671	0.35413	0.0768	0.495
Mof_O 	O 	0.57957	0.5097	0.936	-0.484
Mof_O 	O 	0.5417	0.4627	0.3187	-0.504
Mof_O 	O 	0.5697	0.54847	0.3722	-0.493
Mof_O 	O 	0.46338	0.3825	0.1991	-0.486
Mof_O 	O 	0.4159	0.363	0.7757	-0.479
Mof_H 	H 	0.4136	0.3926	0.7462	0.266
Mof_O 	O 	0.4211	0.3012	0.1051	-0.484
Mof_C 	C 	0.6479	0.4802	0.3142	-0.317
Mof_H 	H 	0.649	0.4775	0.5058	0.113
Mof_H 	H 	0.6523	0.4474	0.2429	0.108
Mof_C 	C 	0.3018	0.3539	0.0712	0.116
Mof_H 	H 	0.3017	0.3614	0.8832	-0.004
Mof_H 	H 	0.3031	0.3186	0.0908	-0.004
Mof_C 	C 	0.3524	0.3759	0.1957	-0.358
Mof_H 	H 	0.3508	0.3699	0.385	0.132
Mof_H 	H 	0.3512	0.4111	0.1694	0.113
Mof_C 	C 	0.6968	0.5098	0.2294	0.084
Mof_H 	H 	0.6971	0.5122	0.0376	-0.004
Mof_H 	H 	0.6934	0.5428	0.3003	-0.002
Mof_Zn	Zn	0.03509	0.0493	0.28711	1.228
Mof_P 	P 	0.91875	0.99837	0.224	0.473
Mof_P 	P 	0.08329	0.14587	0.0768	0.495
Mof_O 	O 	0.92043	0.9903	0.936	-0.484
Mof_O 	O 	0.9583	0.0373	0.3187	-0.502
Mof_O 	O 	0.9303	0.95153	0.3722	-0.493
Mof_O 	O 	0.03662	0.1175	0.1991	-0.486
Mof_O 	O 	0.0841	0.137	0.7757	-0.478
Mof_H 	H 	0.0864	0.1074	0.7462	0.265
Mof_O 	O 	0.0789	0.1988	0.1051	-0.484
Mof_C 	C 	0.8521	0.0198	0.3142	-0.312
Mof_H 	H 	0.851	0.0225	0.5058	0.112
Mof_H 	H 	0.8477	0.0526	0.2429	0.107
Mof_C 	C 	0.1982	0.1461	0.0712	0.116
Mof_H 	H 	0.1983	0.1386	0.8832	-0.004
Mof_H 	H 	0.1969	0.1814	0.0908	-0.004
Mof_C 	C 	0.1476	0.1241	0.1957	-0.358
Mof_H 	H 	0.1492	0.1301	0.385	0.132
Mof_H 	H 	0.1488	0.0889	0.1694	0.113
Mof_C 	C 	0.8032	0.9902	0.2294	0.078
Mof_H 	H 	0.8029	0.9878	0.0376	-0.003
Mof_H 	H 	0.8066	0.9572	0.3003	-0
Mof_Zn	Zn	0.53509	0.9507	0.71289	1.228
Mof_P 	P 	0.41875	0.00163	0.776	0.474
Mof_P 	P 	0.58329	0.85413	0.9232	0.495
Mof_O 	O 	0.42043	0.0097	0.064	-0.484
Mof_O 	O 	0.4583	0.9627	0.6813	-0.504
Mof_O 	O 	0.4303	0.04847	0.6278	-0.493
Mof_O 	O 	0.53662	0.8825	0.8009	-0.486
Mof_O 	O 	0.5841	0.863	0.2243	-0.479
Mof_H 	H 	0.5864	0.8926	0.2538	0.265
Mof_O 	O 	0.5789	0.8012	0.8949	-0.484
Mof_C 	C 	0.3521	0.9802	0.6858	-0.314
Mof_H 	H 	0.351	0.9775	0.4942	0.112
Mof_H 	H 	0.3477	0.9474	0.7571	0.107
Mof_C 	C 	0.6982	0.8539	0.9288	0.116
Mof_H 	H 	0.6983	0.8614	0.1168	-0.004
Mof_H 	H 	0.6969	0.8186	0.9092	-0.004
Mof_C 	C 	0.6476	0.8759	0.8043	-0.358
Mof_H 	H 	0.6492	0.8699	0.615	0.132
Mof_H 	H 	0.6488	0.9111	0.8306	0.113
Mof_C 	C 	0.3032	0.0098	0.7706	0.079
Mof_H 	H 	0.3029	0.0122	0.9624	-0.003
Mof_H 	H 	0.3066	0.0428	0.6997	-0.001
Mof_Zn	Zn	0.96491	0.5493	0.71289	1.228
Mof_P 	P 	0.08125	0.49837	0.776	0.475
Mof_P 	P 	0.91671	0.64587	0.9232	0.495
Mof_O 	O 	0.07957	0.4903	0.064	-0.484
Mof_O 	O 	0.0417	0.5373	0.6813	-0.504
Mof_O 	O 	0.0697	0.45153	0.6278	-0.493
Mof_O 	O 	0.96338	0.6175	0.8009	-0.486
Mof_O 	O 	0.9159	0.637	0.2243	-0.478
Mof_H 	H 	0.9136	0.6074	0.2538	0.266
Mof_O 	O 	0.9211	0.6988	0.8949	-0.484
Mof_C 	C 	0.1479	0.5198	0.6858	-0.317
Mof_H 	H 	0.149	0.5225	0.4942	0.113
Mof_H 	H 	0.1523	0.5526	0.7571	0.108
Mof_C 	C 	0.8018	0.6461	0.9288	0.116
Mof_H 	H 	0.8017	0.6386	0.1168	-0.004
Mof_H 	H 	0.8031	0.6814	0.9092	-0.004
Mof_C 	C 	0.8524	0.6241	0.8043	-0.358
Mof_H 	H 	0.8508	0.6301	0.615	0.132
Mof_H 	H 	0.8512	0.5889	0.8306	0.113
Mof_C 	C 	0.1968	0.4902	0.7706	0.084
Mof_H 	H 	0.1971	0.4878	0.9624	-0.004
Mof_H 	H 	0.1934	0.4572	0.6997	-0.002
Mof_Zn	Zn	0.53509	0.5493	0.71289	1.228
Mof_P 	P 	0.41875	0.49837	0.776	0.475
Mof_P 	P 	0.58329	0.64587	0.9232	0.495
Mof_O 	O 	0.42043	0.4903	0.064	-0.484
Mof_O 	O 	0.4583	0.5373	0.6813	-0.504
Mof_O 	O 	0.4303	0.45153	0.6278	-0.493
Mof_O 	O 	0.53662	0.6175	0.8009	-0.486
Mof_O 	O 	0.5841	0.637	0.2243	-0.479
Mof_H 	H 	0.5864	0.6074	0.2538	0.266
Mof_O 	O 	0.5789	0.6988	0.8949	-0.484
Mof_C 	C 	0.3521	0.5198	0.6858	-0.317
Mof_H 	H 	0.351	0.5225	0.4942	0.113
Mof_H 	H 	0.3477	0.5526	0.7571	0.108
Mof_C 	C 	0.6982	0.6461	0.9288	0.116
Mof_H 	H 	0.6983	0.6386	0.1168	-0.004
Mof_H 	H 	0.6969	0.6814	0.9092	-0.004
Mof_C 	C 	0.6476	0.6241	0.8043	-0.358
Mof_H 	H 	0.6492	0.6301	0.615	0.132
Mof_H 	H 	0.6488	0.5889	0.8306	0.113
Mof_C 	C 	0.3032	0.4902	0.7706	0.084
Mof_H 	H 	0.3029	0.4878	0.9624	-0.004
Mof_H 	H 	0.3066	0.4572	0.6997	-0.002
Mof_Zn	Zn	0.96491	0.9507	0.71289	1.228
Mof_P 	P 	0.08125	0.00163	0.776	0.473
Mof_P 	P 	0.91671	0.85413	0.9232	0.495
Mof_O 	O 	0.07957	0.0097	0.064	-0.484
Mof_O 	O 	0.0417	0.9627	0.6813	-0.502
Mof_O 	O 	0.0697	0.04847	0.6278	-0.493
Mof_O 	O 	0.96338	0.8825	0.8009	-0.486
Mof_O 	O 	0.9159	0.863	0.2243	-0.478
Mof_H 	H 	0.9136	0.8926	0.2538	0.265
Mof_O 	O 	0.9211	0.8012	0.8949	-0.484
Mof_C 	C 	0.1479	0.9802	0.6858	-0.312
Mof_H 	H 	0.149	0.9775	0.4942	0.112
Mof_H 	H 	0.1523	0.9474	0.7571	0.107
Mof_C 	C 	0.8018	0.8539	0.9288	0.116
Mof_H 	H 	0.8017	0.8614	0.1168	-0.004
Mof_H 	H 	0.8031	0.8186	0.9092	-0.004
Mof_C 	C 	0.8524	0.8759	0.8043	-0.358
Mof_H 	H 	0.8508	0.8699	0.615	0.132
Mof_H 	H 	0.8512	0.9111	0.8306	0.113
Mof_C 	C 	0.1968	0.0098	0.7706	0.078
Mof_H 	H 	0.1971	0.0122	0.9624	-0.003
Mof_H 	H 	0.1934	0.0428	0.6997	-0
Mof_Zn	Zn	0.46491	0.0493	0.28711	1.228
Mof_P 	P 	0.58125	0.99837	0.224	0.474
Mof_P 	P 	0.41671	0.14587	0.0768	0.495
Mof_O 	O 	0.57957	0.9903	0.936	-0.484
Mof_O 	O 	0.5417	0.0373	0.3187	-0.504
Mof_O 	O 	0.5697	0.95153	0.3722	-0.493
Mof_O 	O 	0.46338	0.1175	0.1991	-0.486
Mof_O 	O 	0.4159	0.137	0.7757	-0.479
Mof_H 	H 	0.4136	0.1074	0.7462	0.265
Mof_O 	O 	0.4211	0.1988	0.1051	-0.484
Mof_C 	C 	0.6479	0.0198	0.3142	-0.314
Mof_H 	H 	0.649	0.0225	0.5058	0.112
Mof_H 	H 	0.6523	0.0526	0.2429	0.107
Mof_C 	C 	0.3018	0.1461	0.0712	0.116
Mof_H 	H 	0.3017	0.1386	0.8832	-0.004
Mof_H 	H 	0.3031	0.1814	0.0908	-0.004
Mof_C 	C 	0.3524	0.1241	0.1957	-0.358
Mof_H 	H 	0.3508	0.1301	0.385	0.132
Mof_H 	H 	0.3512	0.0889	0.1694	0.113
Mof_C 	C 	0.6968	0.9902	0.2294	0.079
Mof_H 	H 	0.6971	0.9878	0.0376	-0.003
Mof_H 	H 	0.6934	0.9572	0.3003	-0.001
Mof_Zn	Zn	0.03509	0.4507	0.28711	1.228
Mof_P 	P 	0.91875	0.50163	0.224	0.475
Mof_P 	P 	0.08329	0.35413	0.0768	0.495
Mof_O 	O 	0.92043	0.5097	0.936	-0.484
Mof_O 	O 	0.9583	0.4627	0.3187	-0.504
Mof_O 	O 	0.9303	0.54847	0.3722	-0.493
Mof_O 	O 	0.03662	0.3825	0.1991	-0.486
Mof_O 	O 	0.0841	0.363	0.7757	-0.478
Mof_H 	H 	0.0864	0.3926	0.7462	0.266
Mof_O 	O 	0.0789	0.3012	0.1051	-0.484
Mof_C 	C 	0.8521	0.4802	0.3142	-0.317
Mof_H 	H 	0.851	0.4775	0.5058	0.113
Mof_H 	H 	0.8477	0.4474	0.2429	0.108
Mof_C 	C 	0.1982	0.3539	0.0712	0.116
Mof_H 	H 	0.1983	0.3614	0.8832	-0.004
Mof_H 	H 	0.1969	0.3186	0.0908	-0.004
Mof_C 	C 	0.1476	0.3759	0.1957	-0.358
Mof_H 	H 	0.1492	0.3699	0.385	0.132
Mof_H 	H 	0.1488	0.4111	0.1694	0.113
Mof_C 	C 	0.8032	0.5098	0.2294	0.084
Mof_H 	H 	0.8029	0.5122	0.0376	-0.004
Mof_H 	H 	0.8066	0.5428	0.3003	-0.002
Mof_Zn	Zn	0.46138	0.25	0.3061	1.131
Mof_Zn	Zn	0.03862	0.25	0.3061	1.131
Mof_Zn	Zn	0.53862	0.75	0.6939	1.131
Mof_Zn	Zn	0.96138	0.75	0.6939	1.131
Mof_C 	C 	0.75	0.4879	0.321	-0.241
Mof_H 	H 	0.75	0.4537	0.2687	0.077
Mof_H 	H 	0.75	0.4887	0.5132	0.084
Mof_C 	C 	0.75	0.0121	0.321	-0.235
Mof_H 	H 	0.75	0.0463	0.2687	0.075
Mof_H 	H 	0.75	0.0113	0.5132	0.083
Mof_C 	C 	0.25	0.9879	0.679	-0.235
Mof_H 	H 	0.25	0.9537	0.7313	0.075
Mof_H 	H 	0.25	0.9887	0.4868	0.083
Mof_C 	C 	0.25	0.5121	0.679	-0.241
Mof_H 	H 	0.25	0.5463	0.7313	0.077
Mof_H 	H 	0.25	0.5113	0.4868	0.084
Mof_C 	C 	0.25	0.3726	0.191	-0.278
Mof_H 	H 	0.25	0.4081	0.1786	0.101
Mof_H 	H 	0.25	0.3641	0.3778	0.104
Mof_C 	C 	0.25	0.1274	0.191	-0.278
Mof_H 	H 	0.25	0.0919	0.1786	0.101
Mof_H 	H 	0.25	0.1359	0.3778	0.104
Mof_C 	C 	0.75	0.8726	0.809	-0.278
Mof_H 	H 	0.75	0.9081	0.8214	0.101
Mof_H 	H 	0.75	0.8641	0.6222	0.104
Mof_C 	C 	0.75	0.6274	0.809	-0.278
Mof_H 	H 	0.75	0.5919	0.8214	0.101
Mof_H 	H 	0.75	0.6359	0.6222	0.104
_end
