data_functionalizedCrystal
_audit_creation_method	'EQeq! by Chris Wilmer'
_symmetry_space_group_name_H-M	'P1'
_symmetry_Int_Tables_number	1
_symmetry_cell_setting	triclinic
loop_
_symmetry_equiv_pos_as_xyz
  x,y,z
_cell_length_a	44.271
_cell_length_b	44.271
_cell_length_c	44.271
_cell_angle_alpha	90
_cell_angle_beta	90
_cell_angle_gamma	90
loop_
_atom_site_label
_atom_site_type_symbol
_atom_site_fract_x
_atom_site_fract_y
_atom_site_fract_z
_atom_site_charge
Mof_O 	O 	0.64409	0.53066	0.18761	-0.378
Mof_O 	O 	0.60851	0.53121	0.1517	-0.377
Mof_C 	C 	0.61934	0.54073	0.17559	0.327
Mof_C 	C 	0.60341	0.5645	0.19177	-0.036
Mof_C 	C 	0.6084	0.5718	0.22272	-0.335
Mof_H 	H 	0.6232	0.5606	0.233	0.191
Mof_C 	C 	0.5898	0.6231	0.288	1.655
Mof_N 	N 	0.6056	0.6255	0.3135	-0.564
Mof_C 	C 	0.6002	0.6337	0.2765	-1.662
Mof_H 	H 	0.5834	0.6455	0.2711	0.659
Mof_N 	N 	0.6161	0.6362	0.302	0.207
Mof_C 	C 	0.616	0.5771	0.2171	0.161
Mof_H 	H 	0.6334	0.5688	0.2259	-0.075
Mof_H 	H 	0.5724	0.6343	0.2831	-0.605
Mof_N 	N 	0.6231	0.5898	0.288	-1.171
Mof_O 	O 	0.64409	0.03066	0.68761	-0.379
Mof_O 	O 	0.60851	0.03121	0.6517	-0.378
Mof_C 	C 	0.61934	0.04073	0.67559	0.326
Mof_C 	C 	0.60341	0.0645	0.69177	-0.036
Mof_C 	C 	0.6084	0.0718	0.72272	-0.335
Mof_H 	H 	0.6232	0.0606	0.733	0.19
Mof_C 	C 	0.5898	0.1231	0.788	1.656
Mof_N 	N 	0.6056	0.1255	0.8135	-0.564
Mof_C 	C 	0.6002	0.1337	0.7765	-1.663
Mof_H 	H 	0.5834	0.1455	0.7711	0.66
Mof_N 	N 	0.6161	0.1362	0.802	0.207
Mof_C 	C 	0.616	0.0771	0.7171	0.161
Mof_H 	H 	0.6334	0.0688	0.7259	-0.075
Mof_H 	H 	0.5724	0.1343	0.7831	-0.605
Mof_N 	N 	0.6231	0.0898	0.788	-1.171
Mof_O 	O 	0.14409	0.53066	0.68761	-0.378
Mof_O 	O 	0.10851	0.53121	0.6517	-0.379
Mof_C 	C 	0.11934	0.54073	0.67559	0.326
Mof_C 	C 	0.10341	0.5645	0.69177	-0.037
Mof_C 	C 	0.1084	0.5718	0.72272	-0.336
Mof_H 	H 	0.1232	0.5606	0.733	0.19
Mof_C 	C 	0.0898	0.6231	0.788	1.655
Mof_N 	N 	0.1056	0.6255	0.8135	-0.565
Mof_C 	C 	0.1002	0.6337	0.7765	-1.664
Mof_H 	H 	0.0834	0.6455	0.7711	0.658
Mof_N 	N 	0.1161	0.6362	0.802	0.206
Mof_C 	C 	0.116	0.5771	0.7171	0.161
Mof_H 	H 	0.1334	0.5688	0.7259	-0.076
Mof_H 	H 	0.0724	0.6343	0.7831	-0.607
Mof_N 	N 	0.1231	0.5898	0.788	-1.172
Mof_O 	O 	0.14409	0.03066	0.18761	-0.38
Mof_O 	O 	0.10851	0.03121	0.1517	-0.379
Mof_C 	C 	0.11934	0.04073	0.17559	0.325
Mof_C 	C 	0.10341	0.0645	0.19177	-0.038
Mof_C 	C 	0.1084	0.0718	0.22272	-0.337
Mof_H 	H 	0.1232	0.0606	0.233	0.19
Mof_C 	C 	0.0898	0.1231	0.288	1.656
Mof_N 	N 	0.1056	0.1255	0.3135	-0.565
Mof_C 	C 	0.1002	0.1337	0.2765	-1.665
Mof_H 	H 	0.0834	0.1455	0.2711	0.659
Mof_N 	N 	0.1161	0.1362	0.302	0.206
Mof_C 	C 	0.116	0.0771	0.2171	0.161
Mof_H 	H 	0.1334	0.0688	0.2259	-0.076
Mof_H 	H 	0.0724	0.1343	0.2831	-0.607
Mof_N 	N 	0.1231	0.0898	0.288	-1.172
Mof_O 	O 	0.35591	0.46934	0.18761	-0.379
Mof_O 	O 	0.39149	0.46879	0.1517	-0.378
Mof_C 	C 	0.38066	0.45927	0.17559	0.326
Mof_C 	C 	0.39659	0.4355	0.19177	-0.037
Mof_C 	C 	0.3916	0.4282	0.22272	-0.336
Mof_H 	H 	0.3768	0.4394	0.233	0.19
Mof_C 	C 	0.4102	0.3769	0.288	1.655
Mof_N 	N 	0.3944	0.3745	0.3135	-0.565
Mof_C 	C 	0.3998	0.3663	0.2765	-1.663
Mof_H 	H 	0.4166	0.3545	0.2711	0.658
Mof_N 	N 	0.3839	0.3638	0.302	0.206
Mof_C 	C 	0.384	0.4229	0.2171	0.16
Mof_H 	H 	0.3666	0.4312	0.2259	-0.076
Mof_H 	H 	0.4276	0.3657	0.2831	-0.606
Mof_N 	N 	0.3769	0.4102	0.288	-1.172
Mof_O 	O 	0.35591	0.96934	0.68761	-0.377
Mof_O 	O 	0.39149	0.96879	0.6517	-0.377
Mof_C 	C 	0.38066	0.95927	0.67559	0.325
Mof_C 	C 	0.39659	0.9355	0.69177	-0.037
Mof_C 	C 	0.3916	0.9282	0.72272	-0.336
Mof_H 	H 	0.3768	0.9394	0.733	0.19
Mof_C 	C 	0.4102	0.8769	0.788	1.654
Mof_N 	N 	0.3944	0.8745	0.8135	-0.564
Mof_C 	C 	0.3998	0.8663	0.7765	-1.662
Mof_H 	H 	0.4166	0.8545	0.7711	0.658
Mof_N 	N 	0.3839	0.8638	0.802	0.206
Mof_C 	C 	0.384	0.9229	0.7171	0.16
Mof_H 	H 	0.3666	0.9312	0.7259	-0.076
Mof_H 	H 	0.4276	0.8657	0.7831	-0.606
Mof_N 	N 	0.3769	0.9102	0.788	-1.172
Mof_O 	O 	0.85591	0.46934	0.68761	-0.379
Mof_O 	O 	0.89149	0.46879	0.6517	-0.378
Mof_C 	C 	0.88066	0.45927	0.67559	0.326
Mof_C 	C 	0.89659	0.4355	0.69177	-0.037
Mof_C 	C 	0.8916	0.4282	0.72272	-0.335
Mof_H 	H 	0.8768	0.4394	0.733	0.19
Mof_C 	C 	0.9102	0.3769	0.788	1.654
Mof_N 	N 	0.8944	0.3745	0.8135	-0.564
Mof_C 	C 	0.8998	0.3663	0.7765	-1.662
Mof_H 	H 	0.9166	0.3545	0.7711	0.658
Mof_N 	N 	0.8839	0.3638	0.802	0.206
Mof_C 	C 	0.884	0.4229	0.7171	0.16
Mof_H 	H 	0.8666	0.4312	0.7259	-0.076
Mof_H 	H 	0.9276	0.3657	0.7831	-0.605
Mof_N 	N 	0.8769	0.4102	0.788	-1.172
Mof_O 	O 	0.85591	0.96934	0.18761	-0.377
Mof_O 	O 	0.89149	0.96879	0.1517	-0.377
Mof_C 	C 	0.88066	0.95927	0.17559	0.325
Mof_C 	C 	0.89659	0.9355	0.19177	-0.036
Mof_C 	C 	0.8916	0.9282	0.22272	-0.335
Mof_H 	H 	0.8768	0.9394	0.233	0.19
Mof_C 	C 	0.9102	0.8769	0.288	1.653
Mof_N 	N 	0.8944	0.8745	0.3135	-0.564
Mof_C 	C 	0.8998	0.8663	0.2765	-1.661
Mof_H 	H 	0.9166	0.8545	0.2711	0.658
Mof_N 	N 	0.8839	0.8638	0.302	0.206
Mof_C 	C 	0.884	0.9229	0.2171	0.159
Mof_H 	H 	0.8666	0.9312	0.2259	-0.076
Mof_H 	H 	0.9276	0.8657	0.2831	-0.605
Mof_N 	N 	0.8769	0.9102	0.288	-1.171
Mof_O 	O 	0.35591	0.53066	0.81239	-0.379
Mof_O 	O 	0.39149	0.53121	0.8483	-0.378
Mof_C 	C 	0.38066	0.54073	0.82441	0.326
Mof_C 	C 	0.39659	0.5645	0.80823	-0.037
Mof_C 	C 	0.3916	0.5718	0.77728	-0.336
Mof_H 	H 	0.3768	0.5606	0.767	0.19
Mof_C 	C 	0.4102	0.6231	0.712	1.654
Mof_N 	N 	0.3944	0.6255	0.6865	-0.565
Mof_C 	C 	0.3998	0.6337	0.7235	-1.663
Mof_H 	H 	0.4166	0.6455	0.7289	0.658
Mof_N 	N 	0.3839	0.6362	0.698	0.206
Mof_C 	C 	0.384	0.5771	0.7829	0.16
Mof_H 	H 	0.3666	0.5688	0.7741	-0.076
Mof_H 	H 	0.4276	0.6343	0.7169	-0.606
Mof_N 	N 	0.3769	0.5898	0.712	-1.172
Mof_O 	O 	0.35591	0.03066	0.31239	-0.38
Mof_O 	O 	0.39149	0.03121	0.3483	-0.379
Mof_C 	C 	0.38066	0.04073	0.32441	0.325
Mof_C 	C 	0.39659	0.0645	0.30823	-0.037
Mof_C 	C 	0.3916	0.0718	0.27728	-0.336
Mof_H 	H 	0.3768	0.0606	0.267	0.189
Mof_C 	C 	0.4102	0.1231	0.212	1.655
Mof_N 	N 	0.3944	0.1255	0.1865	-0.565
Mof_C 	C 	0.3998	0.1337	0.2235	-1.664
Mof_H 	H 	0.4166	0.1455	0.2289	0.659
Mof_N 	N 	0.3839	0.1362	0.198	0.206
Mof_C 	C 	0.384	0.0771	0.2829	0.16
Mof_H 	H 	0.3666	0.0688	0.2741	-0.076
Mof_H 	H 	0.4276	0.1343	0.2169	-0.606
Mof_N 	N 	0.3769	0.0898	0.212	-1.172
Mof_O 	O 	0.85591	0.53066	0.31239	-0.379
Mof_O 	O 	0.89149	0.53121	0.3483	-0.378
Mof_C 	C 	0.88066	0.54073	0.32441	0.326
Mof_C 	C 	0.89659	0.5645	0.30823	-0.037
Mof_C 	C 	0.8916	0.5718	0.27728	-0.335
Mof_H 	H 	0.8768	0.5606	0.267	0.19
Mof_C 	C 	0.9102	0.6231	0.212	1.654
Mof_N 	N 	0.8944	0.6255	0.1865	-0.564
Mof_C 	C 	0.8998	0.6337	0.2235	-1.662
Mof_H 	H 	0.9166	0.6455	0.2289	0.658
Mof_N 	N 	0.8839	0.6362	0.198	0.206
Mof_C 	C 	0.884	0.5771	0.2829	0.16
Mof_H 	H 	0.8666	0.5688	0.2741	-0.076
Mof_H 	H 	0.9276	0.6343	0.2169	-0.605
Mof_N 	N 	0.8769	0.5898	0.212	-1.172
Mof_O 	O 	0.85591	0.03066	0.81239	-0.38
Mof_O 	O 	0.89149	0.03121	0.8483	-0.379
Mof_C 	C 	0.88066	0.04073	0.82441	0.325
Mof_C 	C 	0.89659	0.0645	0.80823	-0.037
Mof_C 	C 	0.8916	0.0718	0.77728	-0.336
Mof_H 	H 	0.8768	0.0606	0.767	0.189
Mof_C 	C 	0.9102	0.1231	0.712	1.655
Mof_N 	N 	0.8944	0.1255	0.6865	-0.565
Mof_C 	C 	0.8998	0.1337	0.7235	-1.663
Mof_H 	H 	0.9166	0.1455	0.7289	0.658
Mof_N 	N 	0.8839	0.1362	0.698	0.206
Mof_C 	C 	0.884	0.0771	0.7829	0.16
Mof_H 	H 	0.8666	0.0688	0.7741	-0.076
Mof_H 	H 	0.9276	0.1343	0.7169	-0.606
Mof_N 	N 	0.8769	0.0898	0.712	-1.172
Mof_O 	O 	0.64409	0.46934	0.81239	-0.379
Mof_O 	O 	0.60851	0.46879	0.8483	-0.378
Mof_C 	C 	0.61934	0.45927	0.82441	0.326
Mof_C 	C 	0.60341	0.4355	0.80823	-0.037
Mof_C 	C 	0.6084	0.4282	0.77728	-0.336
Mof_H 	H 	0.6232	0.4394	0.767	0.19
Mof_C 	C 	0.5898	0.3769	0.712	1.654
Mof_N 	N 	0.6056	0.3745	0.6865	-0.565
Mof_C 	C 	0.6002	0.3663	0.7235	-1.663
Mof_H 	H 	0.5834	0.3545	0.7289	0.658
Mof_N 	N 	0.6161	0.3638	0.698	0.206
Mof_C 	C 	0.616	0.4229	0.7829	0.16
Mof_H 	H 	0.6334	0.4312	0.7741	-0.076
Mof_H 	H 	0.5724	0.3657	0.7169	-0.606
Mof_N 	N 	0.6231	0.4102	0.712	-1.172
Mof_O 	O 	0.64409	0.96934	0.31239	-0.377
Mof_O 	O 	0.60851	0.96879	0.3483	-0.377
Mof_C 	C 	0.61934	0.95927	0.32441	0.325
Mof_C 	C 	0.60341	0.9355	0.30823	-0.037
Mof_C 	C 	0.6084	0.9282	0.27728	-0.335
Mof_H 	H 	0.6232	0.9394	0.267	0.19
Mof_C 	C 	0.5898	0.8769	0.212	1.654
Mof_N 	N 	0.6056	0.8745	0.1865	-0.564
Mof_C 	C 	0.6002	0.8663	0.2235	-1.662
Mof_H 	H 	0.5834	0.8545	0.2289	0.658
Mof_N 	N 	0.6161	0.8638	0.198	0.206
Mof_C 	C 	0.616	0.9229	0.2829	0.16
Mof_H 	H 	0.6334	0.9312	0.2741	-0.076
Mof_H 	H 	0.5724	0.8657	0.2169	-0.606
Mof_N 	N 	0.6231	0.9102	0.212	-1.171
Mof_O 	O 	0.14409	0.46934	0.31239	-0.379
Mof_O 	O 	0.10851	0.46879	0.3483	-0.379
Mof_C 	C 	0.11934	0.45927	0.32441	0.326
Mof_C 	C 	0.10341	0.4355	0.30823	-0.037
Mof_C 	C 	0.1084	0.4282	0.27728	-0.336
Mof_H 	H 	0.1232	0.4394	0.267	0.19
Mof_C 	C 	0.0898	0.3769	0.212	1.655
Mof_N 	N 	0.1056	0.3745	0.1865	-0.565
Mof_C 	C 	0.1002	0.3663	0.2235	-1.664
Mof_H 	H 	0.0834	0.3545	0.2289	0.658
Mof_N 	N 	0.1161	0.3638	0.198	0.206
Mof_C 	C 	0.116	0.4229	0.2829	0.161
Mof_H 	H 	0.1334	0.4312	0.2741	-0.076
Mof_H 	H 	0.0724	0.3657	0.2169	-0.607
Mof_N 	N 	0.1231	0.4102	0.212	-1.172
Mof_O 	O 	0.14409	0.96934	0.81239	-0.377
Mof_O 	O 	0.10851	0.96879	0.8483	-0.377
Mof_C 	C 	0.11934	0.95927	0.82441	0.325
Mof_C 	C 	0.10341	0.9355	0.80823	-0.037
Mof_C 	C 	0.1084	0.9282	0.77728	-0.336
Mof_H 	H 	0.1232	0.9394	0.767	0.19
Mof_C 	C 	0.0898	0.8769	0.712	1.654
Mof_N 	N 	0.1056	0.8745	0.6865	-0.565
Mof_C 	C 	0.1002	0.8663	0.7235	-1.663
Mof_H 	H 	0.0834	0.8545	0.7289	0.658
Mof_N 	N 	0.1161	0.8638	0.698	0.206
Mof_C 	C 	0.116	0.9229	0.7829	0.16
Mof_H 	H 	0.1334	0.9312	0.7741	-0.076
Mof_H 	H 	0.0724	0.8657	0.7169	-0.606
Mof_N 	N 	0.1231	0.9102	0.712	-1.172
Mof_O 	O 	0.18761	0.64409	0.53066	-0.379
Mof_O 	O 	0.1517	0.60851	0.53121	-0.378
Mof_C 	C 	0.17559	0.61934	0.54073	0.326
Mof_C 	C 	0.19177	0.60341	0.5645	-0.037
Mof_C 	C 	0.22272	0.6084	0.5718	-0.336
Mof_H 	H 	0.233	0.6232	0.5606	0.19
Mof_C 	C 	0.288	0.5898	0.6231	1.654
Mof_N 	N 	0.3135	0.6056	0.6255	-0.565
Mof_C 	C 	0.2765	0.6002	0.6337	-1.663
Mof_H 	H 	0.2711	0.5834	0.6455	0.658
Mof_N 	N 	0.302	0.6161	0.6362	0.206
Mof_C 	C 	0.2171	0.616	0.5771	0.16
Mof_H 	H 	0.2259	0.6334	0.5688	-0.076
Mof_H 	H 	0.2831	0.5724	0.6343	-0.606
Mof_N 	N 	0.288	0.6231	0.5898	-1.172
Mof_O 	O 	0.18761	0.14409	0.03066	-0.38
Mof_O 	O 	0.1517	0.10851	0.03121	-0.379
Mof_C 	C 	0.17559	0.11934	0.04073	0.325
Mof_C 	C 	0.19177	0.10341	0.0645	-0.038
Mof_C 	C 	0.22272	0.1084	0.0718	-0.337
Mof_H 	H 	0.233	0.1232	0.0606	0.19
Mof_C 	C 	0.288	0.0898	0.1231	1.656
Mof_N 	N 	0.3135	0.1056	0.1255	-0.565
Mof_C 	C 	0.2765	0.1002	0.1337	-1.665
Mof_H 	H 	0.2711	0.0834	0.1455	0.659
Mof_N 	N 	0.302	0.1161	0.1362	0.206
Mof_C 	C 	0.2171	0.116	0.0771	0.161
Mof_H 	H 	0.2259	0.1334	0.0688	-0.076
Mof_H 	H 	0.2831	0.0724	0.1343	-0.607
Mof_N 	N 	0.288	0.1231	0.0898	-1.172
Mof_O 	O 	0.68761	0.64409	0.03066	-0.38
Mof_O 	O 	0.6517	0.60851	0.03121	-0.379
Mof_C 	C 	0.67559	0.61934	0.04073	0.325
Mof_C 	C 	0.69177	0.60341	0.0645	-0.037
Mof_C 	C 	0.72272	0.6084	0.0718	-0.336
Mof_H 	H 	0.733	0.6232	0.0606	0.189
Mof_C 	C 	0.788	0.5898	0.1231	1.655
Mof_N 	N 	0.8135	0.6056	0.1255	-0.565
Mof_C 	C 	0.7765	0.6002	0.1337	-1.664
Mof_H 	H 	0.7711	0.5834	0.1455	0.659
Mof_N 	N 	0.802	0.6161	0.1362	0.206
Mof_C 	C 	0.7171	0.616	0.0771	0.16
Mof_H 	H 	0.7259	0.6334	0.0688	-0.076
Mof_H 	H 	0.7831	0.5724	0.1343	-0.606
Mof_N 	N 	0.788	0.6231	0.0898	-1.172
Mof_O 	O 	0.68761	0.14409	0.53066	-0.379
Mof_O 	O 	0.6517	0.10851	0.53121	-0.379
Mof_C 	C 	0.67559	0.11934	0.54073	0.326
Mof_C 	C 	0.69177	0.10341	0.5645	-0.037
Mof_C 	C 	0.72272	0.1084	0.5718	-0.336
Mof_H 	H 	0.733	0.1232	0.5606	0.19
Mof_C 	C 	0.788	0.0898	0.6231	1.655
Mof_N 	N 	0.8135	0.1056	0.6255	-0.565
Mof_C 	C 	0.7765	0.1002	0.6337	-1.664
Mof_H 	H 	0.7711	0.0834	0.6455	0.658
Mof_N 	N 	0.802	0.1161	0.6362	0.206
Mof_C 	C 	0.7171	0.116	0.5771	0.161
Mof_H 	H 	0.7259	0.1334	0.5688	-0.076
Mof_H 	H 	0.7831	0.0724	0.6343	-0.607
Mof_N 	N 	0.788	0.1231	0.5898	-1.172
Mof_O 	O 	0.18761	0.35591	0.46934	-0.379
Mof_O 	O 	0.1517	0.39149	0.46879	-0.378
Mof_C 	C 	0.17559	0.38066	0.45927	0.326
Mof_C 	C 	0.19177	0.39659	0.4355	-0.037
Mof_C 	C 	0.22272	0.3916	0.4282	-0.336
Mof_H 	H 	0.233	0.3768	0.4394	0.19
Mof_C 	C 	0.288	0.4102	0.3769	1.655
Mof_N 	N 	0.3135	0.3944	0.3745	-0.565
Mof_C 	C 	0.2765	0.3998	0.3663	-1.663
Mof_H 	H 	0.2711	0.4166	0.3545	0.658
Mof_N 	N 	0.302	0.3839	0.3638	0.206
Mof_C 	C 	0.2171	0.384	0.4229	0.16
Mof_H 	H 	0.2259	0.3666	0.4312	-0.076
Mof_H 	H 	0.2831	0.4276	0.3657	-0.606
Mof_N 	N 	0.288	0.3769	0.4102	-1.172
Mof_O 	O 	0.18761	0.85591	0.96934	-0.377
Mof_O 	O 	0.1517	0.89149	0.96879	-0.377
Mof_C 	C 	0.17559	0.88066	0.95927	0.325
Mof_C 	C 	0.19177	0.89659	0.9355	-0.036
Mof_C 	C 	0.22272	0.8916	0.9282	-0.335
Mof_H 	H 	0.233	0.8768	0.9394	0.19
Mof_C 	C 	0.288	0.9102	0.8769	1.653
Mof_N 	N 	0.3135	0.8944	0.8745	-0.564
Mof_C 	C 	0.2765	0.8998	0.8663	-1.661
Mof_H 	H 	0.2711	0.9166	0.8545	0.658
Mof_N 	N 	0.302	0.8839	0.8638	0.206
Mof_C 	C 	0.2171	0.884	0.9229	0.159
Mof_H 	H 	0.2259	0.8666	0.9312	-0.076
Mof_H 	H 	0.2831	0.9276	0.8657	-0.605
Mof_N 	N 	0.288	0.8769	0.9102	-1.171
Mof_O 	O 	0.68761	0.35591	0.96934	-0.377
Mof_O 	O 	0.6517	0.39149	0.96879	-0.377
Mof_C 	C 	0.67559	0.38066	0.95927	0.325
Mof_C 	C 	0.69177	0.39659	0.9355	-0.037
Mof_C 	C 	0.72272	0.3916	0.9282	-0.336
Mof_H 	H 	0.733	0.3768	0.9394	0.19
Mof_C 	C 	0.788	0.4102	0.8769	1.654
Mof_N 	N 	0.8135	0.3944	0.8745	-0.564
Mof_C 	C 	0.7765	0.3998	0.8663	-1.662
Mof_H 	H 	0.7711	0.4166	0.8545	0.658
Mof_N 	N 	0.802	0.3839	0.8638	0.206
Mof_C 	C 	0.7171	0.384	0.9229	0.16
Mof_H 	H 	0.7259	0.3666	0.9312	-0.076
Mof_H 	H 	0.7831	0.4276	0.8657	-0.606
Mof_N 	N 	0.788	0.3769	0.9102	-1.172
Mof_O 	O 	0.68761	0.85591	0.46934	-0.379
Mof_O 	O 	0.6517	0.89149	0.46879	-0.378
Mof_C 	C 	0.67559	0.88066	0.45927	0.326
Mof_C 	C 	0.69177	0.89659	0.4355	-0.037
Mof_C 	C 	0.72272	0.8916	0.4282	-0.335
Mof_H 	H 	0.733	0.8768	0.4394	0.19
Mof_C 	C 	0.788	0.9102	0.3769	1.654
Mof_N 	N 	0.8135	0.8944	0.3745	-0.564
Mof_C 	C 	0.7765	0.8998	0.3663	-1.662
Mof_H 	H 	0.7711	0.9166	0.3545	0.658
Mof_N 	N 	0.802	0.8839	0.3638	0.206
Mof_C 	C 	0.7171	0.884	0.4229	0.16
Mof_H 	H 	0.7259	0.8666	0.4312	-0.076
Mof_H 	H 	0.7831	0.9276	0.3657	-0.605
Mof_N 	N 	0.788	0.8769	0.4102	-1.172
Mof_O 	O 	0.81239	0.35591	0.53066	-0.379
Mof_O 	O 	0.8483	0.39149	0.53121	-0.378
Mof_C 	C 	0.82441	0.38066	0.54073	0.326
Mof_C 	C 	0.80823	0.39659	0.5645	-0.037
Mof_C 	C 	0.77728	0.3916	0.5718	-0.336
Mof_H 	H 	0.767	0.3768	0.5606	0.19
Mof_C 	C 	0.712	0.4102	0.6231	1.654
Mof_N 	N 	0.6865	0.3944	0.6255	-0.565
Mof_C 	C 	0.7235	0.3998	0.6337	-1.663
Mof_H 	H 	0.7289	0.4166	0.6455	0.658
Mof_N 	N 	0.698	0.3839	0.6362	0.206
Mof_C 	C 	0.7829	0.384	0.5771	0.16
Mof_H 	H 	0.7741	0.3666	0.5688	-0.076
Mof_H 	H 	0.7169	0.4276	0.6343	-0.606
Mof_N 	N 	0.712	0.3769	0.5898	-1.172
Mof_O 	O 	0.81239	0.85591	0.03066	-0.38
Mof_O 	O 	0.8483	0.89149	0.03121	-0.379
Mof_C 	C 	0.82441	0.88066	0.04073	0.325
Mof_C 	C 	0.80823	0.89659	0.0645	-0.037
Mof_C 	C 	0.77728	0.8916	0.0718	-0.336
Mof_H 	H 	0.767	0.8768	0.0606	0.189
Mof_C 	C 	0.712	0.9102	0.1231	1.655
Mof_N 	N 	0.6865	0.8944	0.1255	-0.565
Mof_C 	C 	0.7235	0.8998	0.1337	-1.663
Mof_H 	H 	0.7289	0.9166	0.1455	0.658
Mof_N 	N 	0.698	0.8839	0.1362	0.206
Mof_C 	C 	0.7829	0.884	0.0771	0.16
Mof_H 	H 	0.7741	0.8666	0.0688	-0.076
Mof_H 	H 	0.7169	0.9276	0.1343	-0.606
Mof_N 	N 	0.712	0.8769	0.0898	-1.172
Mof_O 	O 	0.31239	0.35591	0.03066	-0.38
Mof_O 	O 	0.3483	0.39149	0.03121	-0.379
Mof_C 	C 	0.32441	0.38066	0.04073	0.325
Mof_C 	C 	0.30823	0.39659	0.0645	-0.037
Mof_C 	C 	0.27728	0.3916	0.0718	-0.336
Mof_H 	H 	0.267	0.3768	0.0606	0.189
Mof_C 	C 	0.212	0.4102	0.1231	1.655
Mof_N 	N 	0.1865	0.3944	0.1255	-0.565
Mof_C 	C 	0.2235	0.3998	0.1337	-1.664
Mof_H 	H 	0.2289	0.4166	0.1455	0.659
Mof_N 	N 	0.198	0.3839	0.1362	0.206
Mof_C 	C 	0.2829	0.384	0.0771	0.16
Mof_H 	H 	0.2741	0.3666	0.0688	-0.076
Mof_H 	H 	0.2169	0.4276	0.1343	-0.606
Mof_N 	N 	0.212	0.3769	0.0898	-1.172
Mof_O 	O 	0.31239	0.85591	0.53066	-0.379
Mof_O 	O 	0.3483	0.89149	0.53121	-0.378
Mof_C 	C 	0.32441	0.88066	0.54073	0.326
Mof_C 	C 	0.30823	0.89659	0.5645	-0.037
Mof_C 	C 	0.27728	0.8916	0.5718	-0.335
Mof_H 	H 	0.267	0.8768	0.5606	0.19
Mof_C 	C 	0.212	0.9102	0.6231	1.654
Mof_N 	N 	0.1865	0.8944	0.6255	-0.564
Mof_C 	C 	0.2235	0.8998	0.6337	-1.662
Mof_H 	H 	0.2289	0.9166	0.6455	0.658
Mof_N 	N 	0.198	0.8839	0.6362	0.206
Mof_C 	C 	0.2829	0.884	0.5771	0.16
Mof_H 	H 	0.2741	0.8666	0.5688	-0.076
Mof_H 	H 	0.2169	0.9276	0.6343	-0.605
Mof_N 	N 	0.212	0.8769	0.5898	-1.172
Mof_O 	O 	0.81239	0.64409	0.46934	-0.379
Mof_O 	O 	0.8483	0.60851	0.46879	-0.378
Mof_C 	C 	0.82441	0.61934	0.45927	0.326
Mof_C 	C 	0.80823	0.60341	0.4355	-0.037
Mof_C 	C 	0.77728	0.6084	0.4282	-0.336
Mof_H 	H 	0.767	0.6232	0.4394	0.19
Mof_C 	C 	0.712	0.5898	0.3769	1.654
Mof_N 	N 	0.6865	0.6056	0.3745	-0.565
Mof_C 	C 	0.7235	0.6002	0.3663	-1.663
Mof_H 	H 	0.7289	0.5834	0.3545	0.658
Mof_N 	N 	0.698	0.6161	0.3638	0.206
Mof_C 	C 	0.7829	0.616	0.4229	0.16
Mof_H 	H 	0.7741	0.6334	0.4312	-0.076
Mof_H 	H 	0.7169	0.5724	0.3657	-0.606
Mof_N 	N 	0.712	0.6231	0.4102	-1.172
Mof_O 	O 	0.81239	0.14409	0.96934	-0.377
Mof_O 	O 	0.8483	0.10851	0.96879	-0.377
Mof_C 	C 	0.82441	0.11934	0.95927	0.325
Mof_C 	C 	0.80823	0.10341	0.9355	-0.037
Mof_C 	C 	0.77728	0.1084	0.9282	-0.336
Mof_H 	H 	0.767	0.1232	0.9394	0.19
Mof_C 	C 	0.712	0.0898	0.8769	1.654
Mof_N 	N 	0.6865	0.1056	0.8745	-0.565
Mof_C 	C 	0.7235	0.1002	0.8663	-1.663
Mof_H 	H 	0.7289	0.0834	0.8545	0.658
Mof_N 	N 	0.698	0.1161	0.8638	0.206
Mof_C 	C 	0.7829	0.116	0.9229	0.16
Mof_H 	H 	0.7741	0.1334	0.9312	-0.076
Mof_H 	H 	0.7169	0.0724	0.8657	-0.606
Mof_N 	N 	0.712	0.1231	0.9102	-1.172
Mof_O 	O 	0.31239	0.64409	0.96934	-0.377
Mof_O 	O 	0.3483	0.60851	0.96879	-0.377
Mof_C 	C 	0.32441	0.61934	0.95927	0.325
Mof_C 	C 	0.30823	0.60341	0.9355	-0.037
Mof_C 	C 	0.27728	0.6084	0.9282	-0.335
Mof_H 	H 	0.267	0.6232	0.9394	0.19
Mof_C 	C 	0.212	0.5898	0.8769	1.654
Mof_N 	N 	0.1865	0.6056	0.8745	-0.564
Mof_C 	C 	0.2235	0.6002	0.8663	-1.662
Mof_H 	H 	0.2289	0.5834	0.8545	0.658
Mof_N 	N 	0.198	0.6161	0.8638	0.206
Mof_C 	C 	0.2829	0.616	0.9229	0.16
Mof_H 	H 	0.2741	0.6334	0.9312	-0.076
Mof_H 	H 	0.2169	0.5724	0.8657	-0.606
Mof_N 	N 	0.212	0.6231	0.9102	-1.171
Mof_O 	O 	0.31239	0.14409	0.46934	-0.379
Mof_O 	O 	0.3483	0.10851	0.46879	-0.379
Mof_C 	C 	0.32441	0.11934	0.45927	0.326
Mof_C 	C 	0.30823	0.10341	0.4355	-0.037
Mof_C 	C 	0.27728	0.1084	0.4282	-0.336
Mof_H 	H 	0.267	0.1232	0.4394	0.19
Mof_C 	C 	0.212	0.0898	0.3769	1.655
Mof_N 	N 	0.1865	0.1056	0.3745	-0.565
Mof_C 	C 	0.2235	0.1002	0.3663	-1.664
Mof_H 	H 	0.2289	0.0834	0.3545	0.658
Mof_N 	N 	0.198	0.1161	0.3638	0.206
Mof_C 	C 	0.2829	0.116	0.4229	0.161
Mof_H 	H 	0.2741	0.1334	0.4312	-0.076
Mof_H 	H 	0.2169	0.0724	0.3657	-0.607
Mof_N 	N 	0.212	0.1231	0.4102	-1.172
Mof_O 	O 	0.53066	0.18761	0.64409	-0.379
Mof_O 	O 	0.53121	0.1517	0.60851	-0.378
Mof_C 	C 	0.54073	0.17559	0.61934	0.326
Mof_C 	C 	0.5645	0.19177	0.60341	-0.037
Mof_C 	C 	0.5718	0.22272	0.6084	-0.336
Mof_H 	H 	0.5606	0.233	0.6232	0.19
Mof_C 	C 	0.6231	0.288	0.5898	1.654
Mof_N 	N 	0.6255	0.3135	0.6056	-0.565
Mof_C 	C 	0.6337	0.2765	0.6002	-1.663
Mof_H 	H 	0.6455	0.2711	0.5834	0.658
Mof_N 	N 	0.6362	0.302	0.6161	0.206
Mof_C 	C 	0.5771	0.2171	0.616	0.16
Mof_H 	H 	0.5688	0.2259	0.6334	-0.076
Mof_H 	H 	0.6343	0.2831	0.5724	-0.606
Mof_N 	N 	0.5898	0.288	0.6231	-1.172
Mof_O 	O 	0.53066	0.68761	0.14409	-0.379
Mof_O 	O 	0.53121	0.6517	0.10851	-0.379
Mof_C 	C 	0.54073	0.67559	0.11934	0.326
Mof_C 	C 	0.5645	0.69177	0.10341	-0.037
Mof_C 	C 	0.5718	0.72272	0.1084	-0.336
Mof_H 	H 	0.5606	0.733	0.1232	0.19
Mof_C 	C 	0.6231	0.788	0.0898	1.655
Mof_N 	N 	0.6255	0.8135	0.1056	-0.565
Mof_C 	C 	0.6337	0.7765	0.1002	-1.664
Mof_H 	H 	0.6455	0.7711	0.0834	0.658
Mof_N 	N 	0.6362	0.802	0.1161	0.206
Mof_C 	C 	0.5771	0.7171	0.116	0.161
Mof_H 	H 	0.5688	0.7259	0.1334	-0.076
Mof_H 	H 	0.6343	0.7831	0.0724	-0.607
Mof_N 	N 	0.5898	0.788	0.1231	-1.172
Mof_O 	O 	0.03066	0.18761	0.14409	-0.38
Mof_O 	O 	0.03121	0.1517	0.10851	-0.379
Mof_C 	C 	0.04073	0.17559	0.11934	0.325
Mof_C 	C 	0.0645	0.19177	0.10341	-0.038
Mof_C 	C 	0.0718	0.22272	0.1084	-0.337
Mof_H 	H 	0.0606	0.233	0.1232	0.19
Mof_C 	C 	0.1231	0.288	0.0898	1.656
Mof_N 	N 	0.1255	0.3135	0.1056	-0.565
Mof_C 	C 	0.1337	0.2765	0.1002	-1.665
Mof_H 	H 	0.1455	0.2711	0.0834	0.659
Mof_N 	N 	0.1362	0.302	0.1161	0.206
Mof_C 	C 	0.0771	0.2171	0.116	0.161
Mof_H 	H 	0.0688	0.2259	0.1334	-0.076
Mof_H 	H 	0.1343	0.2831	0.0724	-0.607
Mof_N 	N 	0.0898	0.288	0.1231	-1.172
Mof_O 	O 	0.03066	0.68761	0.64409	-0.38
Mof_O 	O 	0.03121	0.6517	0.60851	-0.379
Mof_C 	C 	0.04073	0.67559	0.61934	0.325
Mof_C 	C 	0.0645	0.69177	0.60341	-0.037
Mof_C 	C 	0.0718	0.72272	0.6084	-0.336
Mof_H 	H 	0.0606	0.733	0.6232	0.189
Mof_C 	C 	0.1231	0.788	0.5898	1.655
Mof_N 	N 	0.1255	0.8135	0.6056	-0.565
Mof_C 	C 	0.1337	0.7765	0.6002	-1.664
Mof_H 	H 	0.1455	0.7711	0.5834	0.659
Mof_N 	N 	0.1362	0.802	0.6161	0.206
Mof_C 	C 	0.0771	0.7171	0.616	0.16
Mof_H 	H 	0.0688	0.7259	0.6334	-0.076
Mof_H 	H 	0.1343	0.7831	0.5724	-0.606
Mof_N 	N 	0.0898	0.788	0.6231	-1.172
Mof_O 	O 	0.46934	0.18761	0.35591	-0.379
Mof_O 	O 	0.46879	0.1517	0.39149	-0.378
Mof_C 	C 	0.45927	0.17559	0.38066	0.326
Mof_C 	C 	0.4355	0.19177	0.39659	-0.037
Mof_C 	C 	0.4282	0.22272	0.3916	-0.336
Mof_H 	H 	0.4394	0.233	0.3768	0.19
Mof_C 	C 	0.3769	0.288	0.4102	1.655
Mof_N 	N 	0.3745	0.3135	0.3944	-0.565
Mof_C 	C 	0.3663	0.2765	0.3998	-1.663
Mof_H 	H 	0.3545	0.2711	0.4166	0.658
Mof_N 	N 	0.3638	0.302	0.3839	0.206
Mof_C 	C 	0.4229	0.2171	0.384	0.16
Mof_H 	H 	0.4312	0.2259	0.3666	-0.076
Mof_H 	H 	0.3657	0.2831	0.4276	-0.606
Mof_N 	N 	0.4102	0.288	0.3769	-1.172
Mof_O 	O 	0.46934	0.68761	0.85591	-0.379
Mof_O 	O 	0.46879	0.6517	0.89149	-0.378
Mof_C 	C 	0.45927	0.67559	0.88066	0.326
Mof_C 	C 	0.4355	0.69177	0.89659	-0.037
Mof_C 	C 	0.4282	0.72272	0.8916	-0.335
Mof_H 	H 	0.4394	0.733	0.8768	0.19
Mof_C 	C 	0.3769	0.788	0.9102	1.654
Mof_N 	N 	0.3745	0.8135	0.8944	-0.564
Mof_C 	C 	0.3663	0.7765	0.8998	-1.662
Mof_H 	H 	0.3545	0.7711	0.9166	0.658
Mof_N 	N 	0.3638	0.802	0.8839	0.206
Mof_C 	C 	0.4229	0.7171	0.884	0.16
Mof_H 	H 	0.4312	0.7259	0.8666	-0.076
Mof_H 	H 	0.3657	0.7831	0.9276	-0.605
Mof_N 	N 	0.4102	0.788	0.8769	-1.172
Mof_O 	O 	0.96934	0.18761	0.85591	-0.377
Mof_O 	O 	0.96879	0.1517	0.89149	-0.377
Mof_C 	C 	0.95927	0.17559	0.88066	0.325
Mof_C 	C 	0.9355	0.19177	0.89659	-0.036
Mof_C 	C 	0.9282	0.22272	0.8916	-0.335
Mof_H 	H 	0.9394	0.233	0.8768	0.19
Mof_C 	C 	0.8769	0.288	0.9102	1.653
Mof_N 	N 	0.8745	0.3135	0.8944	-0.564
Mof_C 	C 	0.8663	0.2765	0.8998	-1.661
Mof_H 	H 	0.8545	0.2711	0.9166	0.658
Mof_N 	N 	0.8638	0.302	0.8839	0.206
Mof_C 	C 	0.9229	0.2171	0.884	0.159
Mof_H 	H 	0.9312	0.2259	0.8666	-0.076
Mof_H 	H 	0.8657	0.2831	0.9276	-0.605
Mof_N 	N 	0.9102	0.288	0.8769	-1.171
Mof_O 	O 	0.96934	0.68761	0.35591	-0.377
Mof_O 	O 	0.96879	0.6517	0.39149	-0.377
Mof_C 	C 	0.95927	0.67559	0.38066	0.325
Mof_C 	C 	0.9355	0.69177	0.39659	-0.037
Mof_C 	C 	0.9282	0.72272	0.3916	-0.336
Mof_H 	H 	0.9394	0.733	0.3768	0.19
Mof_C 	C 	0.8769	0.788	0.4102	1.654
Mof_N 	N 	0.8745	0.8135	0.3944	-0.564
Mof_C 	C 	0.8663	0.7765	0.3998	-1.662
Mof_H 	H 	0.8545	0.7711	0.4166	0.658
Mof_N 	N 	0.8638	0.802	0.3839	0.206
Mof_C 	C 	0.9229	0.7171	0.384	0.16
Mof_H 	H 	0.9312	0.7259	0.3666	-0.076
Mof_H 	H 	0.8657	0.7831	0.4276	-0.606
Mof_N 	N 	0.9102	0.788	0.3769	-1.172
Mof_O 	O 	0.53066	0.81239	0.35591	-0.379
Mof_O 	O 	0.53121	0.8483	0.39149	-0.378
Mof_C 	C 	0.54073	0.82441	0.38066	0.326
Mof_C 	C 	0.5645	0.80823	0.39659	-0.037
Mof_C 	C 	0.5718	0.77728	0.3916	-0.336
Mof_H 	H 	0.5606	0.767	0.3768	0.19
Mof_C 	C 	0.6231	0.712	0.4102	1.654
Mof_N 	N 	0.6255	0.6865	0.3944	-0.565
Mof_C 	C 	0.6337	0.7235	0.3998	-1.663
Mof_H 	H 	0.6455	0.7289	0.4166	0.658
Mof_N 	N 	0.6362	0.698	0.3839	0.206
Mof_C 	C 	0.5771	0.7829	0.384	0.16
Mof_H 	H 	0.5688	0.7741	0.3666	-0.076
Mof_H 	H 	0.6343	0.7169	0.4276	-0.606
Mof_N 	N 	0.5898	0.712	0.3769	-1.172
Mof_O 	O 	0.53066	0.31239	0.85591	-0.379
Mof_O 	O 	0.53121	0.3483	0.89149	-0.378
Mof_C 	C 	0.54073	0.32441	0.88066	0.326
Mof_C 	C 	0.5645	0.30823	0.89659	-0.037
Mof_C 	C 	0.5718	0.27728	0.8916	-0.335
Mof_H 	H 	0.5606	0.267	0.8768	0.19
Mof_C 	C 	0.6231	0.212	0.9102	1.654
Mof_N 	N 	0.6255	0.1865	0.8944	-0.564
Mof_C 	C 	0.6337	0.2235	0.8998	-1.662
Mof_H 	H 	0.6455	0.2289	0.9166	0.658
Mof_N 	N 	0.6362	0.198	0.8839	0.206
Mof_C 	C 	0.5771	0.2829	0.884	0.16
Mof_H 	H 	0.5688	0.2741	0.8666	-0.076
Mof_H 	H 	0.6343	0.2169	0.9276	-0.605
Mof_N 	N 	0.5898	0.212	0.8769	-1.172
Mof_O 	O 	0.03066	0.81239	0.85591	-0.38
Mof_O 	O 	0.03121	0.8483	0.89149	-0.379
Mof_C 	C 	0.04073	0.82441	0.88066	0.325
Mof_C 	C 	0.0645	0.80823	0.89659	-0.037
Mof_C 	C 	0.0718	0.77728	0.8916	-0.336
Mof_H 	H 	0.0606	0.767	0.8768	0.189
Mof_C 	C 	0.1231	0.712	0.9102	1.655
Mof_N 	N 	0.1255	0.6865	0.8944	-0.565
Mof_C 	C 	0.1337	0.7235	0.8998	-1.663
Mof_H 	H 	0.1455	0.7289	0.9166	0.658
Mof_N 	N 	0.1362	0.698	0.8839	0.206
Mof_C 	C 	0.0771	0.7829	0.884	0.16
Mof_H 	H 	0.0688	0.7741	0.8666	-0.076
Mof_H 	H 	0.1343	0.7169	0.9276	-0.606
Mof_N 	N 	0.0898	0.712	0.8769	-1.172
Mof_O 	O 	0.03066	0.31239	0.35591	-0.38
Mof_O 	O 	0.03121	0.3483	0.39149	-0.379
Mof_C 	C 	0.04073	0.32441	0.38066	0.325
Mof_C 	C 	0.0645	0.30823	0.39659	-0.037
Mof_C 	C 	0.0718	0.27728	0.3916	-0.336
Mof_H 	H 	0.0606	0.267	0.3768	0.189
Mof_C 	C 	0.1231	0.212	0.4102	1.655
Mof_N 	N 	0.1255	0.1865	0.3944	-0.565
Mof_C 	C 	0.1337	0.2235	0.3998	-1.664
Mof_H 	H 	0.1455	0.2289	0.4166	0.659
Mof_N 	N 	0.1362	0.198	0.3839	0.206
Mof_C 	C 	0.0771	0.2829	0.384	0.16
Mof_H 	H 	0.0688	0.2741	0.3666	-0.076
Mof_H 	H 	0.1343	0.2169	0.4276	-0.606
Mof_N 	N 	0.0898	0.212	0.3769	-1.172
Mof_O 	O 	0.46934	0.81239	0.64409	-0.379
Mof_O 	O 	0.46879	0.8483	0.60851	-0.378
Mof_C 	C 	0.45927	0.82441	0.61934	0.326
Mof_C 	C 	0.4355	0.80823	0.60341	-0.037
Mof_C 	C 	0.4282	0.77728	0.6084	-0.336
Mof_H 	H 	0.4394	0.767	0.6232	0.19
Mof_C 	C 	0.3769	0.712	0.5898	1.654
Mof_N 	N 	0.3745	0.6865	0.6056	-0.565
Mof_C 	C 	0.3663	0.7235	0.6002	-1.663
Mof_H 	H 	0.3545	0.7289	0.5834	0.658
Mof_N 	N 	0.3638	0.698	0.6161	0.206
Mof_C 	C 	0.4229	0.7829	0.616	0.16
Mof_H 	H 	0.4312	0.7741	0.6334	-0.076
Mof_H 	H 	0.3657	0.7169	0.5724	-0.606
Mof_N 	N 	0.4102	0.712	0.6231	-1.172
Mof_O 	O 	0.46934	0.31239	0.14409	-0.379
Mof_O 	O 	0.46879	0.3483	0.10851	-0.379
Mof_C 	C 	0.45927	0.32441	0.11934	0.326
Mof_C 	C 	0.4355	0.30823	0.10341	-0.037
Mof_C 	C 	0.4282	0.27728	0.1084	-0.336
Mof_H 	H 	0.4394	0.267	0.1232	0.19
Mof_C 	C 	0.3769	0.212	0.0898	1.655
Mof_N 	N 	0.3745	0.1865	0.1056	-0.565
Mof_C 	C 	0.3663	0.2235	0.1002	-1.664
Mof_H 	H 	0.3545	0.2289	0.0834	0.658
Mof_N 	N 	0.3638	0.198	0.1161	0.206
Mof_C 	C 	0.4229	0.2829	0.116	0.161
Mof_H 	H 	0.4312	0.2741	0.1334	-0.076
Mof_H 	H 	0.3657	0.2169	0.0724	-0.607
Mof_N 	N 	0.4102	0.212	0.1231	-1.172
Mof_O 	O 	0.96934	0.81239	0.14409	-0.377
Mof_O 	O 	0.96879	0.8483	0.10851	-0.377
Mof_C 	C 	0.95927	0.82441	0.11934	0.325
Mof_C 	C 	0.9355	0.80823	0.10341	-0.037
Mof_C 	C 	0.9282	0.77728	0.1084	-0.336
Mof_H 	H 	0.9394	0.767	0.1232	0.19
Mof_C 	C 	0.8769	0.712	0.0898	1.654
Mof_N 	N 	0.8745	0.6865	0.1056	-0.565
Mof_C 	C 	0.8663	0.7235	0.1002	-1.663
Mof_H 	H 	0.8545	0.7289	0.0834	0.658
Mof_N 	N 	0.8638	0.698	0.1161	0.206
Mof_C 	C 	0.9229	0.7829	0.116	0.16
Mof_H 	H 	0.9312	0.7741	0.1334	-0.076
Mof_H 	H 	0.8657	0.7169	0.0724	-0.606
Mof_N 	N 	0.9102	0.712	0.1231	-1.172
Mof_O 	O 	0.96934	0.31239	0.64409	-0.377
Mof_O 	O 	0.96879	0.3483	0.60851	-0.377
Mof_C 	C 	0.95927	0.32441	0.61934	0.325
Mof_C 	C 	0.9355	0.30823	0.60341	-0.037
Mof_C 	C 	0.9282	0.27728	0.6084	-0.335
Mof_H 	H 	0.9394	0.267	0.6232	0.19
Mof_C 	C 	0.8769	0.212	0.5898	1.654
Mof_N 	N 	0.8745	0.1865	0.6056	-0.564
Mof_C 	C 	0.8663	0.2235	0.6002	-1.662
Mof_H 	H 	0.8545	0.2289	0.5834	0.658
Mof_N 	N 	0.8638	0.198	0.6161	0.206
Mof_C 	C 	0.9229	0.2829	0.616	0.16
Mof_H 	H 	0.9312	0.2741	0.6334	-0.076
Mof_H 	H 	0.8657	0.2169	0.5724	-0.606
Mof_N 	N 	0.9102	0.212	0.6231	-1.171
Mof_O 	O 	0.53066	0.64409	0.81239	-0.379
Mof_O 	O 	0.53121	0.60851	0.8483	-0.379
Mof_C 	C 	0.54073	0.61934	0.82441	0.326
Mof_C 	C 	0.5645	0.60341	0.80823	-0.037
Mof_C 	C 	0.5718	0.6084	0.77728	-0.336
Mof_H 	H 	0.5606	0.6232	0.767	0.19
Mof_C 	C 	0.6231	0.5898	0.712	1.654
Mof_N 	N 	0.6255	0.6056	0.6865	-0.565
Mof_C 	C 	0.6337	0.6002	0.7235	-1.663
Mof_H 	H 	0.6455	0.5834	0.7289	0.658
Mof_N 	N 	0.6362	0.6161	0.698	0.206
Mof_C 	C 	0.5771	0.616	0.7829	0.16
Mof_H 	H 	0.5688	0.6334	0.7741	-0.076
Mof_H 	H 	0.6343	0.5724	0.7169	-0.606
Mof_N 	N 	0.5898	0.6231	0.712	-1.172
Mof_O 	O 	0.53066	0.14409	0.31239	-0.379
Mof_O 	O 	0.53121	0.10851	0.3483	-0.379
Mof_C 	C 	0.54073	0.11934	0.32441	0.326
Mof_C 	C 	0.5645	0.10341	0.30823	-0.037
Mof_C 	C 	0.5718	0.1084	0.27728	-0.336
Mof_H 	H 	0.5606	0.1232	0.267	0.19
Mof_C 	C 	0.6231	0.0898	0.212	1.655
Mof_N 	N 	0.6255	0.1056	0.1865	-0.565
Mof_C 	C 	0.6337	0.1002	0.2235	-1.664
Mof_H 	H 	0.6455	0.0834	0.2289	0.658
Mof_N 	N 	0.6362	0.1161	0.198	0.206
Mof_C 	C 	0.5771	0.116	0.2829	0.161
Mof_H 	H 	0.5688	0.1334	0.2741	-0.076
Mof_H 	H 	0.6343	0.0724	0.2169	-0.607
Mof_N 	N 	0.5898	0.1231	0.212	-1.172
Mof_O 	O 	0.03066	0.64409	0.31239	-0.38
Mof_O 	O 	0.03121	0.60851	0.3483	-0.379
Mof_C 	C 	0.04073	0.61934	0.32441	0.325
Mof_C 	C 	0.0645	0.60341	0.30823	-0.038
Mof_C 	C 	0.0718	0.6084	0.27728	-0.336
Mof_H 	H 	0.0606	0.6232	0.267	0.189
Mof_C 	C 	0.1231	0.5898	0.212	1.655
Mof_N 	N 	0.1255	0.6056	0.1865	-0.565
Mof_C 	C 	0.1337	0.6002	0.2235	-1.664
Mof_H 	H 	0.1455	0.5834	0.2289	0.659
Mof_N 	N 	0.1362	0.6161	0.198	0.206
Mof_C 	C 	0.0771	0.616	0.2829	0.16
Mof_H 	H 	0.0688	0.6334	0.2741	-0.076
Mof_H 	H 	0.1343	0.5724	0.2169	-0.606
Mof_N 	N 	0.0898	0.6231	0.212	-1.172
Mof_O 	O 	0.03066	0.14409	0.81239	-0.38
Mof_O 	O 	0.03121	0.10851	0.8483	-0.379
Mof_C 	C 	0.04073	0.11934	0.82441	0.325
Mof_C 	C 	0.0645	0.10341	0.80823	-0.038
Mof_C 	C 	0.0718	0.1084	0.77728	-0.337
Mof_H 	H 	0.0606	0.1232	0.767	0.19
Mof_C 	C 	0.1231	0.0898	0.712	1.656
Mof_N 	N 	0.1255	0.1056	0.6865	-0.565
Mof_C 	C 	0.1337	0.1002	0.7235	-1.665
Mof_H 	H 	0.1455	0.0834	0.7289	0.659
Mof_N 	N 	0.1362	0.1161	0.698	0.206
Mof_C 	C 	0.0771	0.116	0.7829	0.161
Mof_H 	H 	0.0688	0.1334	0.7741	-0.076
Mof_H 	H 	0.1343	0.0724	0.7169	-0.607
Mof_N 	N 	0.0898	0.1231	0.712	-1.172
Mof_O 	O 	0.46934	0.35591	0.81239	-0.379
Mof_O 	O 	0.46879	0.39149	0.8483	-0.378
Mof_C 	C 	0.45927	0.38066	0.82441	0.326
Mof_C 	C 	0.4355	0.39659	0.80823	-0.037
Mof_C 	C 	0.4282	0.3916	0.77728	-0.336
Mof_H 	H 	0.4394	0.3768	0.767	0.19
Mof_C 	C 	0.3769	0.4102	0.712	1.655
Mof_N 	N 	0.3745	0.3944	0.6865	-0.565
Mof_C 	C 	0.3663	0.3998	0.7235	-1.663
Mof_H 	H 	0.3545	0.4166	0.7289	0.658
Mof_N 	N 	0.3638	0.3839	0.698	0.206
Mof_C 	C 	0.4229	0.384	0.7829	0.16
Mof_H 	H 	0.4312	0.3666	0.7741	-0.076
Mof_H 	H 	0.3657	0.4276	0.7169	-0.606
Mof_N 	N 	0.4102	0.3769	0.712	-1.172
Mof_O 	O 	0.46934	0.85591	0.31239	-0.379
Mof_O 	O 	0.46879	0.89149	0.3483	-0.378
Mof_C 	C 	0.45927	0.88066	0.32441	0.326
Mof_C 	C 	0.4355	0.89659	0.30823	-0.037
Mof_C 	C 	0.4282	0.8916	0.27728	-0.335
Mof_H 	H 	0.4394	0.8768	0.267	0.19
Mof_C 	C 	0.3769	0.9102	0.212	1.654
Mof_N 	N 	0.3745	0.8944	0.1865	-0.564
Mof_C 	C 	0.3663	0.8998	0.2235	-1.662
Mof_H 	H 	0.3545	0.9166	0.2289	0.658
Mof_N 	N 	0.3638	0.8839	0.198	0.206
Mof_C 	C 	0.4229	0.884	0.2829	0.16
Mof_H 	H 	0.4312	0.8666	0.2741	-0.076
Mof_H 	H 	0.3657	0.9276	0.2169	-0.605
Mof_N 	N 	0.4102	0.8769	0.212	-1.172
Mof_O 	O 	0.96934	0.35591	0.31239	-0.377
Mof_O 	O 	0.96879	0.39149	0.3483	-0.377
Mof_C 	C 	0.95927	0.38066	0.32441	0.325
Mof_C 	C 	0.9355	0.39659	0.30823	-0.037
Mof_C 	C 	0.9282	0.3916	0.27728	-0.336
Mof_H 	H 	0.9394	0.3768	0.267	0.19
Mof_C 	C 	0.8769	0.4102	0.212	1.654
Mof_N 	N 	0.8745	0.3944	0.1865	-0.564
Mof_C 	C 	0.8663	0.3998	0.2235	-1.662
Mof_H 	H 	0.8545	0.4166	0.2289	0.658
Mof_N 	N 	0.8638	0.3839	0.198	0.206
Mof_C 	C 	0.9229	0.384	0.2829	0.16
Mof_H 	H 	0.9312	0.3666	0.2741	-0.076
Mof_H 	H 	0.8657	0.4276	0.2169	-0.606
Mof_N 	N 	0.9102	0.3769	0.212	-1.171
Mof_O 	O 	0.96934	0.85591	0.81239	-0.377
Mof_O 	O 	0.96879	0.89149	0.8483	-0.377
Mof_C 	C 	0.95927	0.88066	0.82441	0.325
Mof_C 	C 	0.9355	0.89659	0.80823	-0.036
Mof_C 	C 	0.9282	0.8916	0.77728	-0.335
Mof_H 	H 	0.9394	0.8768	0.767	0.19
Mof_C 	C 	0.8769	0.9102	0.712	1.653
Mof_N 	N 	0.8745	0.8944	0.6865	-0.564
Mof_C 	C 	0.8663	0.8998	0.7235	-1.661
Mof_H 	H 	0.8545	0.9166	0.7289	0.658
Mof_N 	N 	0.8638	0.8839	0.698	0.206
Mof_C 	C 	0.9229	0.884	0.7829	0.159
Mof_H 	H 	0.9312	0.8666	0.7741	-0.076
Mof_H 	H 	0.8657	0.9276	0.7169	-0.605
Mof_N 	N 	0.9102	0.8769	0.712	-1.171
Mof_O 	O 	0.53066	0.35591	0.18761	-0.379
Mof_O 	O 	0.53121	0.39149	0.1517	-0.378
Mof_C 	C 	0.54073	0.38066	0.17559	0.326
Mof_C 	C 	0.5645	0.39659	0.19177	-0.037
Mof_C 	C 	0.5718	0.3916	0.22272	-0.336
Mof_H 	H 	0.5606	0.3768	0.233	0.19
Mof_C 	C 	0.6231	0.4102	0.288	1.654
Mof_N 	N 	0.6255	0.3944	0.3135	-0.565
Mof_C 	C 	0.6337	0.3998	0.2765	-1.663
Mof_H 	H 	0.6455	0.4166	0.2711	0.658
Mof_N 	N 	0.6362	0.3839	0.302	0.206
Mof_C 	C 	0.5771	0.384	0.2171	0.16
Mof_H 	H 	0.5688	0.3666	0.2259	-0.076
Mof_H 	H 	0.6343	0.4276	0.2831	-0.606
Mof_N 	N 	0.5898	0.3769	0.288	-1.172
Mof_O 	O 	0.53066	0.85591	0.68761	-0.379
Mof_O 	O 	0.53121	0.89149	0.6517	-0.378
Mof_C 	C 	0.54073	0.88066	0.67559	0.326
Mof_C 	C 	0.5645	0.89659	0.69177	-0.037
Mof_C 	C 	0.5718	0.8916	0.72272	-0.335
Mof_H 	H 	0.5606	0.8768	0.733	0.19
Mof_C 	C 	0.6231	0.9102	0.788	1.654
Mof_N 	N 	0.6255	0.8944	0.8135	-0.564
Mof_C 	C 	0.6337	0.8998	0.7765	-1.662
Mof_H 	H 	0.6455	0.9166	0.7711	0.658
Mof_N 	N 	0.6362	0.8839	0.802	0.206
Mof_C 	C 	0.5771	0.884	0.7171	0.16
Mof_H 	H 	0.5688	0.8666	0.7259	-0.076
Mof_H 	H 	0.6343	0.9276	0.7831	-0.605
Mof_N 	N 	0.5898	0.8769	0.788	-1.172
Mof_O 	O 	0.03066	0.35591	0.68761	-0.38
Mof_O 	O 	0.03121	0.39149	0.6517	-0.379
Mof_C 	C 	0.04073	0.38066	0.67559	0.325
Mof_C 	C 	0.0645	0.39659	0.69177	-0.037
Mof_C 	C 	0.0718	0.3916	0.72272	-0.336
Mof_H 	H 	0.0606	0.3768	0.733	0.189
Mof_C 	C 	0.1231	0.4102	0.788	1.655
Mof_N 	N 	0.1255	0.3944	0.8135	-0.565
Mof_C 	C 	0.1337	0.3998	0.7765	-1.664
Mof_H 	H 	0.1455	0.4166	0.7711	0.659
Mof_N 	N 	0.1362	0.3839	0.802	0.206
Mof_C 	C 	0.0771	0.384	0.7171	0.16
Mof_H 	H 	0.0688	0.3666	0.7259	-0.076
Mof_H 	H 	0.1343	0.4276	0.7831	-0.606
Mof_N 	N 	0.0898	0.3769	0.788	-1.172
Mof_O 	O 	0.03066	0.85591	0.18761	-0.379
Mof_O 	O 	0.03121	0.89149	0.1517	-0.379
Mof_C 	C 	0.04073	0.88066	0.17559	0.325
Mof_C 	C 	0.0645	0.89659	0.19177	-0.037
Mof_C 	C 	0.0718	0.8916	0.22272	-0.336
Mof_H 	H 	0.0606	0.8768	0.233	0.189
Mof_C 	C 	0.1231	0.9102	0.288	1.655
Mof_N 	N 	0.1255	0.8944	0.3135	-0.565
Mof_C 	C 	0.1337	0.8998	0.2765	-1.663
Mof_H 	H 	0.1455	0.9166	0.2711	0.658
Mof_N 	N 	0.1362	0.8839	0.302	0.206
Mof_C 	C 	0.0771	0.884	0.2171	0.16
Mof_H 	H 	0.0688	0.8666	0.2259	-0.076
Mof_H 	H 	0.1343	0.9276	0.2831	-0.606
Mof_N 	N 	0.0898	0.8769	0.288	-1.172
Mof_O 	O 	0.46934	0.64409	0.18761	-0.379
Mof_O 	O 	0.46879	0.60851	0.1517	-0.378
Mof_C 	C 	0.45927	0.61934	0.17559	0.326
Mof_C 	C 	0.4355	0.60341	0.19177	-0.037
Mof_C 	C 	0.4282	0.6084	0.22272	-0.336
Mof_H 	H 	0.4394	0.6232	0.233	0.19
Mof_C 	C 	0.3769	0.5898	0.288	1.654
Mof_N 	N 	0.3745	0.6056	0.3135	-0.565
Mof_C 	C 	0.3663	0.6002	0.2765	-1.663
Mof_H 	H 	0.3545	0.5834	0.2711	0.658
Mof_N 	N 	0.3638	0.6161	0.302	0.206
Mof_C 	C 	0.4229	0.616	0.2171	0.16
Mof_H 	H 	0.4312	0.6334	0.2259	-0.076
Mof_H 	H 	0.3657	0.5724	0.2831	-0.606
Mof_N 	N 	0.4102	0.6231	0.288	-1.172
Mof_O 	O 	0.46934	0.14409	0.68761	-0.379
Mof_O 	O 	0.46879	0.10851	0.6517	-0.379
Mof_C 	C 	0.45927	0.11934	0.67559	0.326
Mof_C 	C 	0.4355	0.10341	0.69177	-0.037
Mof_C 	C 	0.4282	0.1084	0.72272	-0.336
Mof_H 	H 	0.4394	0.1232	0.733	0.19
Mof_C 	C 	0.3769	0.0898	0.788	1.655
Mof_N 	N 	0.3745	0.1056	0.8135	-0.565
Mof_C 	C 	0.3663	0.1002	0.7765	-1.664
Mof_H 	H 	0.3545	0.0834	0.7711	0.658
Mof_N 	N 	0.3638	0.1161	0.802	0.206
Mof_C 	C 	0.4229	0.116	0.7171	0.161
Mof_H 	H 	0.4312	0.1334	0.7259	-0.076
Mof_H 	H 	0.3657	0.0724	0.7831	-0.607
Mof_N 	N 	0.4102	0.1231	0.788	-1.172
Mof_O 	O 	0.96934	0.64409	0.68761	-0.377
Mof_O 	O 	0.96879	0.60851	0.6517	-0.377
Mof_C 	C 	0.95927	0.61934	0.67559	0.325
Mof_C 	C 	0.9355	0.60341	0.69177	-0.037
Mof_C 	C 	0.9282	0.6084	0.72272	-0.336
Mof_H 	H 	0.9394	0.6232	0.733	0.19
Mof_C 	C 	0.8769	0.5898	0.788	1.654
Mof_N 	N 	0.8745	0.6056	0.8135	-0.564
Mof_C 	C 	0.8663	0.6002	0.7765	-1.662
Mof_H 	H 	0.8545	0.5834	0.7711	0.658
Mof_N 	N 	0.8638	0.6161	0.802	0.206
Mof_C 	C 	0.9229	0.616	0.7171	0.16
Mof_H 	H 	0.9312	0.6334	0.7259	-0.076
Mof_H 	H 	0.8657	0.5724	0.7831	-0.606
Mof_N 	N 	0.9102	0.6231	0.788	-1.172
Mof_O 	O 	0.96934	0.14409	0.18761	-0.377
Mof_O 	O 	0.96879	0.10851	0.1517	-0.377
Mof_C 	C 	0.95927	0.11934	0.17559	0.325
Mof_C 	C 	0.9355	0.10341	0.19177	-0.037
Mof_C 	C 	0.9282	0.1084	0.22272	-0.336
Mof_H 	H 	0.9394	0.1232	0.233	0.19
Mof_C 	C 	0.8769	0.0898	0.288	1.654
Mof_N 	N 	0.8745	0.1056	0.3135	-0.565
Mof_C 	C 	0.8663	0.1002	0.2765	-1.663
Mof_H 	H 	0.8545	0.0834	0.2711	0.658
Mof_N 	N 	0.8638	0.1161	0.302	0.206
Mof_C 	C 	0.9229	0.116	0.2171	0.16
Mof_H 	H 	0.9312	0.1334	0.2259	-0.076
Mof_H 	H 	0.8657	0.0724	0.2831	-0.606
Mof_N 	N 	0.9102	0.1231	0.288	-1.172
Mof_O 	O 	0.64409	0.18761	0.46934	-0.379
Mof_O 	O 	0.60851	0.1517	0.46879	-0.378
Mof_C 	C 	0.61934	0.17559	0.45927	0.326
Mof_C 	C 	0.60341	0.19177	0.4355	-0.037
Mof_C 	C 	0.6084	0.22272	0.4282	-0.336
Mof_H 	H 	0.6232	0.233	0.4394	0.19
Mof_C 	C 	0.5898	0.288	0.3769	1.654
Mof_N 	N 	0.6056	0.3135	0.3745	-0.565
Mof_C 	C 	0.6002	0.2765	0.3663	-1.663
Mof_H 	H 	0.5834	0.2711	0.3545	0.658
Mof_N 	N 	0.6161	0.302	0.3638	0.206
Mof_C 	C 	0.616	0.2171	0.4229	0.16
Mof_H 	H 	0.6334	0.2259	0.4312	-0.076
Mof_H 	H 	0.5724	0.2831	0.3657	-0.606
Mof_N 	N 	0.6231	0.288	0.4102	-1.172
Mof_O 	O 	0.64409	0.68761	0.96934	-0.377
Mof_O 	O 	0.60851	0.6517	0.96879	-0.377
Mof_C 	C 	0.61934	0.67559	0.95927	0.325
Mof_C 	C 	0.60341	0.69177	0.9355	-0.037
Mof_C 	C 	0.6084	0.72272	0.9282	-0.336
Mof_H 	H 	0.6232	0.733	0.9394	0.19
Mof_C 	C 	0.5898	0.788	0.8769	1.654
Mof_N 	N 	0.6056	0.8135	0.8745	-0.564
Mof_C 	C 	0.6002	0.7765	0.8663	-1.662
Mof_H 	H 	0.5834	0.7711	0.8545	0.658
Mof_N 	N 	0.6161	0.802	0.8638	0.206
Mof_C 	C 	0.616	0.7171	0.9229	0.16
Mof_H 	H 	0.6334	0.7259	0.9312	-0.076
Mof_H 	H 	0.5724	0.7831	0.8657	-0.606
Mof_N 	N 	0.6231	0.788	0.9102	-1.172
Mof_O 	O 	0.14409	0.18761	0.96934	-0.377
Mof_O 	O 	0.10851	0.1517	0.96879	-0.377
Mof_C 	C 	0.11934	0.17559	0.95927	0.325
Mof_C 	C 	0.10341	0.19177	0.9355	-0.037
Mof_C 	C 	0.1084	0.22272	0.9282	-0.336
Mof_H 	H 	0.1232	0.233	0.9394	0.19
Mof_C 	C 	0.0898	0.288	0.8769	1.654
Mof_N 	N 	0.1056	0.3135	0.8745	-0.565
Mof_C 	C 	0.1002	0.2765	0.8663	-1.663
Mof_H 	H 	0.0834	0.2711	0.8545	0.658
Mof_N 	N 	0.1161	0.302	0.8638	0.206
Mof_C 	C 	0.116	0.2171	0.9229	0.16
Mof_H 	H 	0.1334	0.2259	0.9312	-0.076
Mof_H 	H 	0.0724	0.2831	0.8657	-0.606
Mof_N 	N 	0.1231	0.288	0.9102	-1.172
Mof_O 	O 	0.14409	0.68761	0.46934	-0.379
Mof_O 	O 	0.10851	0.6517	0.46879	-0.379
Mof_C 	C 	0.11934	0.67559	0.45927	0.326
Mof_C 	C 	0.10341	0.69177	0.4355	-0.037
Mof_C 	C 	0.1084	0.72272	0.4282	-0.336
Mof_H 	H 	0.1232	0.733	0.4394	0.19
Mof_C 	C 	0.0898	0.788	0.3769	1.655
Mof_N 	N 	0.1056	0.8135	0.3745	-0.565
Mof_C 	C 	0.1002	0.7765	0.3663	-1.664
Mof_H 	H 	0.0834	0.7711	0.3545	0.658
Mof_N 	N 	0.1161	0.802	0.3638	0.206
Mof_C 	C 	0.116	0.7171	0.4229	0.161
Mof_H 	H 	0.1334	0.7259	0.4312	-0.076
Mof_H 	H 	0.0724	0.7831	0.3657	-0.607
Mof_N 	N 	0.1231	0.788	0.4102	-1.172
Mof_O 	O 	0.35591	0.18761	0.53066	-0.379
Mof_O 	O 	0.39149	0.1517	0.53121	-0.378
Mof_C 	C 	0.38066	0.17559	0.54073	0.326
Mof_C 	C 	0.39659	0.19177	0.5645	-0.037
Mof_C 	C 	0.3916	0.22272	0.5718	-0.336
Mof_H 	H 	0.3768	0.233	0.5606	0.19
Mof_C 	C 	0.4102	0.288	0.6231	1.654
Mof_N 	N 	0.3944	0.3135	0.6255	-0.565
Mof_C 	C 	0.3998	0.2765	0.6337	-1.663
Mof_H 	H 	0.4166	0.2711	0.6455	0.658
Mof_N 	N 	0.3839	0.302	0.6362	0.206
Mof_C 	C 	0.384	0.2171	0.5771	0.16
Mof_H 	H 	0.3666	0.2259	0.5688	-0.076
Mof_H 	H 	0.4276	0.2831	0.6343	-0.606
Mof_N 	N 	0.3769	0.288	0.5898	-1.172
Mof_O 	O 	0.35591	0.68761	0.03066	-0.38
Mof_O 	O 	0.39149	0.6517	0.03121	-0.379
Mof_C 	C 	0.38066	0.67559	0.04073	0.325
Mof_C 	C 	0.39659	0.69177	0.0645	-0.037
Mof_C 	C 	0.3916	0.72272	0.0718	-0.336
Mof_H 	H 	0.3768	0.733	0.0606	0.189
Mof_C 	C 	0.4102	0.788	0.1231	1.655
Mof_N 	N 	0.3944	0.8135	0.1255	-0.565
Mof_C 	C 	0.3998	0.7765	0.1337	-1.664
Mof_H 	H 	0.4166	0.7711	0.1455	0.659
Mof_N 	N 	0.3839	0.802	0.1362	0.206
Mof_C 	C 	0.384	0.7171	0.0771	0.16
Mof_H 	H 	0.3666	0.7259	0.0688	-0.076
Mof_H 	H 	0.4276	0.7831	0.1343	-0.606
Mof_N 	N 	0.3769	0.788	0.0898	-1.172
Mof_O 	O 	0.85591	0.18761	0.03066	-0.379
Mof_O 	O 	0.89149	0.1517	0.03121	-0.379
Mof_C 	C 	0.88066	0.17559	0.04073	0.325
Mof_C 	C 	0.89659	0.19177	0.0645	-0.037
Mof_C 	C 	0.8916	0.22272	0.0718	-0.336
Mof_H 	H 	0.8768	0.233	0.0606	0.189
Mof_C 	C 	0.9102	0.288	0.1231	1.655
Mof_N 	N 	0.8944	0.3135	0.1255	-0.565
Mof_C 	C 	0.8998	0.2765	0.1337	-1.663
Mof_H 	H 	0.9166	0.2711	0.1455	0.658
Mof_N 	N 	0.8839	0.302	0.1362	0.206
Mof_C 	C 	0.884	0.2171	0.0771	0.16
Mof_H 	H 	0.8666	0.2259	0.0688	-0.076
Mof_H 	H 	0.9276	0.2831	0.1343	-0.606
Mof_N 	N 	0.8769	0.288	0.0898	-1.172
Mof_O 	O 	0.85591	0.68761	0.53066	-0.379
Mof_O 	O 	0.89149	0.6517	0.53121	-0.378
Mof_C 	C 	0.88066	0.67559	0.54073	0.326
Mof_C 	C 	0.89659	0.69177	0.5645	-0.037
Mof_C 	C 	0.8916	0.72272	0.5718	-0.335
Mof_H 	H 	0.8768	0.733	0.5606	0.19
Mof_C 	C 	0.9102	0.788	0.6231	1.654
Mof_N 	N 	0.8944	0.8135	0.6255	-0.564
Mof_C 	C 	0.8998	0.7765	0.6337	-1.662
Mof_H 	H 	0.9166	0.7711	0.6455	0.658
Mof_N 	N 	0.8839	0.802	0.6362	0.206
Mof_C 	C 	0.884	0.7171	0.5771	0.16
Mof_H 	H 	0.8666	0.7259	0.5688	-0.076
Mof_H 	H 	0.9276	0.7831	0.6343	-0.605
Mof_N 	N 	0.8769	0.788	0.5898	-1.172
Mof_O 	O 	0.35591	0.81239	0.46934	-0.379
Mof_O 	O 	0.39149	0.8483	0.46879	-0.378
Mof_C 	C 	0.38066	0.82441	0.45927	0.326
Mof_C 	C 	0.39659	0.80823	0.4355	-0.037
Mof_C 	C 	0.3916	0.77728	0.4282	-0.336
Mof_H 	H 	0.3768	0.767	0.4394	0.19
Mof_C 	C 	0.4102	0.712	0.3769	1.655
Mof_N 	N 	0.3944	0.6865	0.3745	-0.565
Mof_C 	C 	0.3998	0.7235	0.3663	-1.663
Mof_H 	H 	0.4166	0.7289	0.3545	0.658
Mof_N 	N 	0.3839	0.698	0.3638	0.206
Mof_C 	C 	0.384	0.7829	0.4229	0.16
Mof_H 	H 	0.3666	0.7741	0.4312	-0.076
Mof_H 	H 	0.4276	0.7169	0.3657	-0.606
Mof_N 	N 	0.3769	0.712	0.4102	-1.172
Mof_O 	O 	0.35591	0.31239	0.96934	-0.377
Mof_O 	O 	0.39149	0.3483	0.96879	-0.377
Mof_C 	C 	0.38066	0.32441	0.95927	0.325
Mof_C 	C 	0.39659	0.30823	0.9355	-0.037
Mof_C 	C 	0.3916	0.27728	0.9282	-0.336
Mof_H 	H 	0.3768	0.267	0.9394	0.19
Mof_C 	C 	0.4102	0.212	0.8769	1.654
Mof_N 	N 	0.3944	0.1865	0.8745	-0.564
Mof_C 	C 	0.3998	0.2235	0.8663	-1.662
Mof_H 	H 	0.4166	0.2289	0.8545	0.658
Mof_N 	N 	0.3839	0.198	0.8638	0.206
Mof_C 	C 	0.384	0.2829	0.9229	0.16
Mof_H 	H 	0.3666	0.2741	0.9312	-0.076
Mof_H 	H 	0.4276	0.2169	0.8657	-0.606
Mof_N 	N 	0.3769	0.212	0.9102	-1.171
Mof_O 	O 	0.85591	0.81239	0.96934	-0.377
Mof_O 	O 	0.89149	0.8483	0.96879	-0.377
Mof_C 	C 	0.88066	0.82441	0.95927	0.325
Mof_C 	C 	0.89659	0.80823	0.9355	-0.036
Mof_C 	C 	0.8916	0.77728	0.9282	-0.335
Mof_H 	H 	0.8768	0.767	0.9394	0.19
Mof_C 	C 	0.9102	0.712	0.8769	1.653
Mof_N 	N 	0.8944	0.6865	0.8745	-0.564
Mof_C 	C 	0.8998	0.7235	0.8663	-1.661
Mof_H 	H 	0.9166	0.7289	0.8545	0.658
Mof_N 	N 	0.8839	0.698	0.8638	0.206
Mof_C 	C 	0.884	0.7829	0.9229	0.159
Mof_H 	H 	0.8666	0.7741	0.9312	-0.076
Mof_H 	H 	0.9276	0.7169	0.8657	-0.605
Mof_N 	N 	0.8769	0.712	0.9102	-1.171
Mof_O 	O 	0.85591	0.31239	0.46934	-0.379
Mof_O 	O 	0.89149	0.3483	0.46879	-0.378
Mof_C 	C 	0.88066	0.32441	0.45927	0.326
Mof_C 	C 	0.89659	0.30823	0.4355	-0.037
Mof_C 	C 	0.8916	0.27728	0.4282	-0.335
Mof_H 	H 	0.8768	0.267	0.4394	0.19
Mof_C 	C 	0.9102	0.212	0.3769	1.654
Mof_N 	N 	0.8944	0.1865	0.3745	-0.564
Mof_C 	C 	0.8998	0.2235	0.3663	-1.662
Mof_H 	H 	0.9166	0.2289	0.3545	0.658
Mof_N 	N 	0.8839	0.198	0.3638	0.206
Mof_C 	C 	0.884	0.2829	0.4229	0.16
Mof_H 	H 	0.8666	0.2741	0.4312	-0.076
Mof_H 	H 	0.9276	0.2169	0.3657	-0.605
Mof_N 	N 	0.8769	0.212	0.4102	-1.172
Mof_O 	O 	0.64409	0.81239	0.53066	-0.379
Mof_O 	O 	0.60851	0.8483	0.53121	-0.379
Mof_C 	C 	0.61934	0.82441	0.54073	0.326
Mof_C 	C 	0.60341	0.80823	0.5645	-0.037
Mof_C 	C 	0.6084	0.77728	0.5718	-0.336
Mof_H 	H 	0.6232	0.767	0.5606	0.19
Mof_C 	C 	0.5898	0.712	0.6231	1.654
Mof_N 	N 	0.6056	0.6865	0.6255	-0.565
Mof_C 	C 	0.6002	0.7235	0.6337	-1.663
Mof_H 	H 	0.5834	0.7289	0.6455	0.658
Mof_N 	N 	0.6161	0.698	0.6362	0.206
Mof_C 	C 	0.616	0.7829	0.5771	0.16
Mof_H 	H 	0.6334	0.7741	0.5688	-0.076
Mof_H 	H 	0.5724	0.7169	0.6343	-0.606
Mof_N 	N 	0.6231	0.712	0.5898	-1.172
Mof_O 	O 	0.64409	0.31239	0.03066	-0.38
Mof_O 	O 	0.60851	0.3483	0.03121	-0.379
Mof_C 	C 	0.61934	0.32441	0.04073	0.325
Mof_C 	C 	0.60341	0.30823	0.0645	-0.038
Mof_C 	C 	0.6084	0.27728	0.0718	-0.336
Mof_H 	H 	0.6232	0.267	0.0606	0.189
Mof_C 	C 	0.5898	0.212	0.1231	1.655
Mof_N 	N 	0.6056	0.1865	0.1255	-0.565
Mof_C 	C 	0.6002	0.2235	0.1337	-1.664
Mof_H 	H 	0.5834	0.2289	0.1455	0.659
Mof_N 	N 	0.6161	0.198	0.1362	0.206
Mof_C 	C 	0.616	0.2829	0.0771	0.16
Mof_H 	H 	0.6334	0.2741	0.0688	-0.076
Mof_H 	H 	0.5724	0.2169	0.1343	-0.606
Mof_N 	N 	0.6231	0.212	0.0898	-1.172
Mof_O 	O 	0.14409	0.81239	0.03066	-0.38
Mof_O 	O 	0.10851	0.8483	0.03121	-0.379
Mof_C 	C 	0.11934	0.82441	0.04073	0.325
Mof_C 	C 	0.10341	0.80823	0.0645	-0.038
Mof_C 	C 	0.1084	0.77728	0.0718	-0.337
Mof_H 	H 	0.1232	0.767	0.0606	0.19
Mof_C 	C 	0.0898	0.712	0.1231	1.656
Mof_N 	N 	0.1056	0.6865	0.1255	-0.565
Mof_C 	C 	0.1002	0.7235	0.1337	-1.665
Mof_H 	H 	0.0834	0.7289	0.1455	0.659
Mof_N 	N 	0.1161	0.698	0.1362	0.206
Mof_C 	C 	0.116	0.7829	0.0771	0.161
Mof_H 	H 	0.1334	0.7741	0.0688	-0.076
Mof_H 	H 	0.0724	0.7169	0.1343	-0.607
Mof_N 	N 	0.1231	0.712	0.0898	-1.172
Mof_O 	O 	0.14409	0.31239	0.53066	-0.379
Mof_O 	O 	0.10851	0.3483	0.53121	-0.379
Mof_C 	C 	0.11934	0.32441	0.54073	0.326
Mof_C 	C 	0.10341	0.30823	0.5645	-0.037
Mof_C 	C 	0.1084	0.27728	0.5718	-0.336
Mof_H 	H 	0.1232	0.267	0.5606	0.19
Mof_C 	C 	0.0898	0.212	0.6231	1.655
Mof_N 	N 	0.1056	0.1865	0.6255	-0.565
Mof_C 	C 	0.1002	0.2235	0.6337	-1.664
Mof_H 	H 	0.0834	0.2289	0.6455	0.658
Mof_N 	N 	0.1161	0.198	0.6362	0.206
Mof_C 	C 	0.116	0.2829	0.5771	0.161
Mof_H 	H 	0.1334	0.2741	0.5688	-0.076
Mof_H 	H 	0.0724	0.2169	0.6343	-0.607
Mof_N 	N 	0.1231	0.212	0.5898	-1.172
Mof_O 	O 	0.18761	0.53066	0.35591	-0.379
Mof_O 	O 	0.1517	0.53121	0.39149	-0.378
Mof_C 	C 	0.17559	0.54073	0.38066	0.326
Mof_C 	C 	0.19177	0.5645	0.39659	-0.037
Mof_C 	C 	0.22272	0.5718	0.3916	-0.336
Mof_H 	H 	0.233	0.5606	0.3768	0.19
Mof_C 	C 	0.288	0.6231	0.4102	1.654
Mof_N 	N 	0.3135	0.6255	0.3944	-0.565
Mof_C 	C 	0.2765	0.6337	0.3998	-1.663
Mof_H 	H 	0.2711	0.6455	0.4166	0.658
Mof_N 	N 	0.302	0.6362	0.3839	0.206
Mof_C 	C 	0.2171	0.5771	0.384	0.16
Mof_H 	H 	0.2259	0.5688	0.3666	-0.076
Mof_H 	H 	0.2831	0.6343	0.4276	-0.606
Mof_N 	N 	0.288	0.5898	0.3769	-1.172
Mof_O 	O 	0.18761	0.03066	0.85591	-0.379
Mof_O 	O 	0.1517	0.03121	0.89149	-0.379
Mof_C 	C 	0.17559	0.04073	0.88066	0.325
Mof_C 	C 	0.19177	0.0645	0.89659	-0.037
Mof_C 	C 	0.22272	0.0718	0.8916	-0.336
Mof_H 	H 	0.233	0.0606	0.8768	0.189
Mof_C 	C 	0.288	0.1231	0.9102	1.655
Mof_N 	N 	0.3135	0.1255	0.8944	-0.565
Mof_C 	C 	0.2765	0.1337	0.8998	-1.663
Mof_H 	H 	0.2711	0.1455	0.9166	0.658
Mof_N 	N 	0.302	0.1362	0.8839	0.206
Mof_C 	C 	0.2171	0.0771	0.884	0.16
Mof_H 	H 	0.2259	0.0688	0.8666	-0.076
Mof_H 	H 	0.2831	0.1343	0.9276	-0.606
Mof_N 	N 	0.288	0.0898	0.8769	-1.172
Mof_O 	O 	0.68761	0.53066	0.85591	-0.379
Mof_O 	O 	0.6517	0.53121	0.89149	-0.378
Mof_C 	C 	0.67559	0.54073	0.88066	0.326
Mof_C 	C 	0.69177	0.5645	0.89659	-0.037
Mof_C 	C 	0.72272	0.5718	0.8916	-0.335
Mof_H 	H 	0.733	0.5606	0.8768	0.19
Mof_C 	C 	0.788	0.6231	0.9102	1.654
Mof_N 	N 	0.8135	0.6255	0.8944	-0.564
Mof_C 	C 	0.7765	0.6337	0.8998	-1.662
Mof_H 	H 	0.7711	0.6455	0.9166	0.658
Mof_N 	N 	0.802	0.6362	0.8839	0.206
Mof_C 	C 	0.7171	0.5771	0.884	0.16
Mof_H 	H 	0.7259	0.5688	0.8666	-0.076
Mof_H 	H 	0.7831	0.6343	0.9276	-0.605
Mof_N 	N 	0.788	0.5898	0.8769	-1.172
Mof_O 	O 	0.68761	0.03066	0.35591	-0.38
Mof_O 	O 	0.6517	0.03121	0.39149	-0.379
Mof_C 	C 	0.67559	0.04073	0.38066	0.325
Mof_C 	C 	0.69177	0.0645	0.39659	-0.037
Mof_C 	C 	0.72272	0.0718	0.3916	-0.336
Mof_H 	H 	0.733	0.0606	0.3768	0.189
Mof_C 	C 	0.788	0.1231	0.4102	1.655
Mof_N 	N 	0.8135	0.1255	0.3944	-0.565
Mof_C 	C 	0.7765	0.1337	0.3998	-1.664
Mof_H 	H 	0.7711	0.1455	0.4166	0.659
Mof_N 	N 	0.802	0.1362	0.3839	0.206
Mof_C 	C 	0.7171	0.0771	0.384	0.16
Mof_H 	H 	0.7259	0.0688	0.3666	-0.076
Mof_H 	H 	0.7831	0.1343	0.4276	-0.606
Mof_N 	N 	0.788	0.0898	0.3769	-1.172
Mof_O 	O 	0.18761	0.46934	0.64409	-0.379
Mof_O 	O 	0.1517	0.46879	0.60851	-0.378
Mof_C 	C 	0.17559	0.45927	0.61934	0.326
Mof_C 	C 	0.19177	0.4355	0.60341	-0.037
Mof_C 	C 	0.22272	0.4282	0.6084	-0.336
Mof_H 	H 	0.233	0.4394	0.6232	0.19
Mof_C 	C 	0.288	0.3769	0.5898	1.654
Mof_N 	N 	0.3135	0.3745	0.6056	-0.565
Mof_C 	C 	0.2765	0.3663	0.6002	-1.663
Mof_H 	H 	0.2711	0.3545	0.5834	0.658
Mof_N 	N 	0.302	0.3638	0.6161	0.206
Mof_C 	C 	0.2171	0.4229	0.616	0.16
Mof_H 	H 	0.2259	0.4312	0.6334	-0.076
Mof_H 	H 	0.2831	0.3657	0.5724	-0.606
Mof_N 	N 	0.288	0.4102	0.6231	-1.172
Mof_O 	O 	0.18761	0.96934	0.14409	-0.377
Mof_O 	O 	0.1517	0.96879	0.10851	-0.377
Mof_C 	C 	0.17559	0.95927	0.11934	0.325
Mof_C 	C 	0.19177	0.9355	0.10341	-0.037
Mof_C 	C 	0.22272	0.9282	0.1084	-0.336
Mof_H 	H 	0.233	0.9394	0.1232	0.19
Mof_C 	C 	0.288	0.8769	0.0898	1.654
Mof_N 	N 	0.3135	0.8745	0.1056	-0.565
Mof_C 	C 	0.2765	0.8663	0.1002	-1.663
Mof_H 	H 	0.2711	0.8545	0.0834	0.658
Mof_N 	N 	0.302	0.8638	0.1161	0.206
Mof_C 	C 	0.2171	0.9229	0.116	0.16
Mof_H 	H 	0.2259	0.9312	0.1334	-0.076
Mof_H 	H 	0.2831	0.8657	0.0724	-0.606
Mof_N 	N 	0.288	0.9102	0.1231	-1.172
Mof_O 	O 	0.68761	0.46934	0.14409	-0.379
Mof_O 	O 	0.6517	0.46879	0.10851	-0.379
Mof_C 	C 	0.67559	0.45927	0.11934	0.326
Mof_C 	C 	0.69177	0.4355	0.10341	-0.037
Mof_C 	C 	0.72272	0.4282	0.1084	-0.336
Mof_H 	H 	0.733	0.4394	0.1232	0.19
Mof_C 	C 	0.788	0.3769	0.0898	1.655
Mof_N 	N 	0.8135	0.3745	0.1056	-0.565
Mof_C 	C 	0.7765	0.3663	0.1002	-1.664
Mof_H 	H 	0.7711	0.3545	0.0834	0.658
Mof_N 	N 	0.802	0.3638	0.1161	0.206
Mof_C 	C 	0.7171	0.4229	0.116	0.161
Mof_H 	H 	0.7259	0.4312	0.1334	-0.076
Mof_H 	H 	0.7831	0.3657	0.0724	-0.607
Mof_N 	N 	0.788	0.4102	0.1231	-1.172
Mof_O 	O 	0.68761	0.96934	0.64409	-0.377
Mof_O 	O 	0.6517	0.96879	0.60851	-0.377
Mof_C 	C 	0.67559	0.95927	0.61934	0.325
Mof_C 	C 	0.69177	0.9355	0.60341	-0.037
Mof_C 	C 	0.72272	0.9282	0.6084	-0.336
Mof_H 	H 	0.733	0.9394	0.6232	0.19
Mof_C 	C 	0.788	0.8769	0.5898	1.654
Mof_N 	N 	0.8135	0.8745	0.6056	-0.564
Mof_C 	C 	0.7765	0.8663	0.6002	-1.662
Mof_H 	H 	0.7711	0.8545	0.5834	0.658
Mof_N 	N 	0.802	0.8638	0.6161	0.206
Mof_C 	C 	0.7171	0.9229	0.616	0.16
Mof_H 	H 	0.7259	0.9312	0.6334	-0.076
Mof_H 	H 	0.7831	0.8657	0.5724	-0.606
Mof_N 	N 	0.788	0.9102	0.6231	-1.172
Mof_O 	O 	0.81239	0.53066	0.64409	-0.379
Mof_O 	O 	0.8483	0.53121	0.60851	-0.379
Mof_C 	C 	0.82441	0.54073	0.61934	0.326
Mof_C 	C 	0.80823	0.5645	0.60341	-0.037
Mof_C 	C 	0.77728	0.5718	0.6084	-0.336
Mof_H 	H 	0.767	0.5606	0.6232	0.19
Mof_C 	C 	0.712	0.6231	0.5898	1.654
Mof_N 	N 	0.6865	0.6255	0.6056	-0.565
Mof_C 	C 	0.7235	0.6337	0.6002	-1.663
Mof_H 	H 	0.7289	0.6455	0.5834	0.658
Mof_N 	N 	0.698	0.6362	0.6161	0.206
Mof_C 	C 	0.7829	0.5771	0.616	0.16
Mof_H 	H 	0.7741	0.5688	0.6334	-0.076
Mof_H 	H 	0.7169	0.6343	0.5724	-0.606
Mof_N 	N 	0.712	0.5898	0.6231	-1.172
Mof_O 	O 	0.81239	0.03066	0.14409	-0.38
Mof_O 	O 	0.8483	0.03121	0.10851	-0.379
Mof_C 	C 	0.82441	0.04073	0.11934	0.325
Mof_C 	C 	0.80823	0.0645	0.10341	-0.038
Mof_C 	C 	0.77728	0.0718	0.1084	-0.337
Mof_H 	H 	0.767	0.0606	0.1232	0.19
Mof_C 	C 	0.712	0.1231	0.0898	1.656
Mof_N 	N 	0.6865	0.1255	0.1056	-0.565
Mof_C 	C 	0.7235	0.1337	0.1002	-1.665
Mof_H 	H 	0.7289	0.1455	0.0834	0.659
Mof_N 	N 	0.698	0.1362	0.1161	0.206
Mof_C 	C 	0.7829	0.0771	0.116	0.161
Mof_H 	H 	0.7741	0.0688	0.1334	-0.076
Mof_H 	H 	0.7169	0.1343	0.0724	-0.607
Mof_N 	N 	0.712	0.0898	0.1231	-1.172
Mof_O 	O 	0.31239	0.53066	0.14409	-0.379
Mof_O 	O 	0.3483	0.53121	0.10851	-0.379
Mof_C 	C 	0.32441	0.54073	0.11934	0.326
Mof_C 	C 	0.30823	0.5645	0.10341	-0.037
Mof_C 	C 	0.27728	0.5718	0.1084	-0.336
Mof_H 	H 	0.267	0.5606	0.1232	0.19
Mof_C 	C 	0.212	0.6231	0.0898	1.655
Mof_N 	N 	0.1865	0.6255	0.1056	-0.565
Mof_C 	C 	0.2235	0.6337	0.1002	-1.664
Mof_H 	H 	0.2289	0.6455	0.0834	0.658
Mof_N 	N 	0.198	0.6362	0.1161	0.206
Mof_C 	C 	0.2829	0.5771	0.116	0.161
Mof_H 	H 	0.2741	0.5688	0.1334	-0.076
Mof_H 	H 	0.2169	0.6343	0.0724	-0.607
Mof_N 	N 	0.212	0.5898	0.1231	-1.172
Mof_O 	O 	0.31239	0.03066	0.64409	-0.38
Mof_O 	O 	0.3483	0.03121	0.60851	-0.379
Mof_C 	C 	0.32441	0.04073	0.61934	0.325
Mof_C 	C 	0.30823	0.0645	0.60341	-0.038
Mof_C 	C 	0.27728	0.0718	0.6084	-0.336
Mof_H 	H 	0.267	0.0606	0.6232	0.189
Mof_C 	C 	0.212	0.1231	0.5898	1.655
Mof_N 	N 	0.1865	0.1255	0.6056	-0.565
Mof_C 	C 	0.2235	0.1337	0.6002	-1.664
Mof_H 	H 	0.2289	0.1455	0.5834	0.659
Mof_N 	N 	0.198	0.1362	0.6161	0.206
Mof_C 	C 	0.2829	0.0771	0.616	0.16
Mof_H 	H 	0.2741	0.0688	0.6334	-0.076
Mof_H 	H 	0.2169	0.1343	0.5724	-0.606
Mof_N 	N 	0.212	0.0898	0.6231	-1.172
Mof_O 	O 	0.81239	0.46934	0.35591	-0.379
Mof_O 	O 	0.8483	0.46879	0.39149	-0.378
Mof_C 	C 	0.82441	0.45927	0.38066	0.326
Mof_C 	C 	0.80823	0.4355	0.39659	-0.037
Mof_C 	C 	0.77728	0.4282	0.3916	-0.336
Mof_H 	H 	0.767	0.4394	0.3768	0.19
Mof_C 	C 	0.712	0.3769	0.4102	1.655
Mof_N 	N 	0.6865	0.3745	0.3944	-0.565
Mof_C 	C 	0.7235	0.3663	0.3998	-1.663
Mof_H 	H 	0.7289	0.3545	0.4166	0.658
Mof_N 	N 	0.698	0.3638	0.3839	0.206
Mof_C 	C 	0.7829	0.4229	0.384	0.16
Mof_H 	H 	0.7741	0.4312	0.3666	-0.076
Mof_H 	H 	0.7169	0.3657	0.4276	-0.606
Mof_N 	N 	0.712	0.4102	0.3769	-1.172
Mof_O 	O 	0.81239	0.96934	0.85591	-0.377
Mof_O 	O 	0.8483	0.96879	0.89149	-0.377
Mof_C 	C 	0.82441	0.95927	0.88066	0.325
Mof_C 	C 	0.80823	0.9355	0.89659	-0.036
Mof_C 	C 	0.77728	0.9282	0.8916	-0.335
Mof_H 	H 	0.767	0.9394	0.8768	0.19
Mof_C 	C 	0.712	0.8769	0.9102	1.653
Mof_N 	N 	0.6865	0.8745	0.8944	-0.564
Mof_C 	C 	0.7235	0.8663	0.8998	-1.661
Mof_H 	H 	0.7289	0.8545	0.9166	0.658
Mof_N 	N 	0.698	0.8638	0.8839	0.206
Mof_C 	C 	0.7829	0.9229	0.884	0.159
Mof_H 	H 	0.7741	0.9312	0.8666	-0.076
Mof_H 	H 	0.7169	0.8657	0.9276	-0.605
Mof_N 	N 	0.712	0.9102	0.8769	-1.171
Mof_O 	O 	0.31239	0.46934	0.85591	-0.379
Mof_O 	O 	0.3483	0.46879	0.89149	-0.378
Mof_C 	C 	0.32441	0.45927	0.88066	0.326
Mof_C 	C 	0.30823	0.4355	0.89659	-0.037
Mof_C 	C 	0.27728	0.4282	0.8916	-0.335
Mof_H 	H 	0.267	0.4394	0.8768	0.19
Mof_C 	C 	0.212	0.3769	0.9102	1.654
Mof_N 	N 	0.1865	0.3745	0.8944	-0.564
Mof_C 	C 	0.2235	0.3663	0.8998	-1.662
Mof_H 	H 	0.2289	0.3545	0.9166	0.658
Mof_N 	N 	0.198	0.3638	0.8839	0.206
Mof_C 	C 	0.2829	0.4229	0.884	0.16
Mof_H 	H 	0.2741	0.4312	0.8666	-0.076
Mof_H 	H 	0.2169	0.3657	0.9276	-0.605
Mof_N 	N 	0.212	0.4102	0.8769	-1.172
Mof_O 	O 	0.31239	0.96934	0.35591	-0.377
Mof_O 	O 	0.3483	0.96879	0.39149	-0.377
Mof_C 	C 	0.32441	0.95927	0.38066	0.325
Mof_C 	C 	0.30823	0.9355	0.39659	-0.037
Mof_C 	C 	0.27728	0.9282	0.3916	-0.336
Mof_H 	H 	0.267	0.9394	0.3768	0.19
Mof_C 	C 	0.212	0.8769	0.4102	1.654
Mof_N 	N 	0.1865	0.8745	0.3944	-0.564
Mof_C 	C 	0.2235	0.8663	0.3998	-1.662
Mof_H 	H 	0.2289	0.8545	0.4166	0.658
Mof_N 	N 	0.198	0.8638	0.3839	0.206
Mof_C 	C 	0.2829	0.9229	0.384	0.16
Mof_H 	H 	0.2741	0.9312	0.3666	-0.076
Mof_H 	H 	0.2169	0.8657	0.4276	-0.606
Mof_N 	N 	0.212	0.9102	0.3769	-1.171
Mof_O 	O 	0.35591	0.46934	0.81239	-0.38
Mof_O 	O 	0.39149	0.46879	0.8483	-0.379
Mof_C 	C 	0.38066	0.45927	0.82441	0.327
Mof_C 	C 	0.39659	0.4355	0.80823	-0.039
Mof_C 	C 	0.3916	0.4282	0.77728	-0.324
Mof_H 	H 	0.3768	0.4394	0.767	0.181
Mof_N 	N 	0.3944	0.3745	0.6865	0.111
Mof_C 	C 	0.3998	0.3663	0.7235	1.823
Mof_H 	H 	0.4166	0.3545	0.7289	-0.688
Mof_N 	N 	0.3839	0.3638	0.698	-0.494
Mof_C 	C 	0.384	0.4229	0.7829	0.161
Mof_H 	H 	0.3666	0.4312	0.7741	-0.068
Mof_H 	H 	0.4276	0.3657	0.7169	0.426
Mof_O 	O 	0.35591	0.96934	0.31239	-0.377
Mof_O 	O 	0.39149	0.96879	0.3483	-0.377
Mof_C 	C 	0.38066	0.95927	0.32441	0.327
Mof_C 	C 	0.39659	0.9355	0.30823	-0.038
Mof_C 	C 	0.3916	0.9282	0.27728	-0.323
Mof_H 	H 	0.3768	0.9394	0.267	0.182
Mof_N 	N 	0.3944	0.8745	0.1865	0.111
Mof_C 	C 	0.3998	0.8663	0.2235	1.823
Mof_H 	H 	0.4166	0.8545	0.2289	-0.688
Mof_N 	N 	0.3839	0.8638	0.198	-0.494
Mof_C 	C 	0.384	0.9229	0.2829	0.16
Mof_H 	H 	0.3666	0.9312	0.2741	-0.067
Mof_H 	H 	0.4276	0.8657	0.2169	0.426
Mof_O 	O 	0.85591	0.46934	0.31239	-0.38
Mof_O 	O 	0.89149	0.46879	0.3483	-0.379
Mof_C 	C 	0.88066	0.45927	0.32441	0.327
Mof_C 	C 	0.89659	0.4355	0.30823	-0.039
Mof_C 	C 	0.8916	0.4282	0.27728	-0.323
Mof_H 	H 	0.8768	0.4394	0.267	0.181
Mof_N 	N 	0.8944	0.3745	0.1865	0.111
Mof_C 	C 	0.8998	0.3663	0.2235	1.823
Mof_H 	H 	0.9166	0.3545	0.2289	-0.687
Mof_N 	N 	0.8839	0.3638	0.198	-0.494
Mof_C 	C 	0.884	0.4229	0.2829	0.16
Mof_H 	H 	0.8666	0.4312	0.2741	-0.067
Mof_H 	H 	0.9276	0.3657	0.2169	0.426
Mof_O 	O 	0.85591	0.96934	0.81239	-0.377
Mof_O 	O 	0.89149	0.96879	0.8483	-0.377
Mof_C 	C 	0.88066	0.95927	0.82441	0.327
Mof_C 	C 	0.89659	0.9355	0.80823	-0.038
Mof_C 	C 	0.8916	0.9282	0.77728	-0.323
Mof_H 	H 	0.8768	0.9394	0.767	0.181
Mof_N 	N 	0.8944	0.8745	0.6865	0.111
Mof_C 	C 	0.8998	0.8663	0.7235	1.823
Mof_H 	H 	0.9166	0.8545	0.7289	-0.687
Mof_N 	N 	0.8839	0.8638	0.698	-0.494
Mof_C 	C 	0.884	0.9229	0.7829	0.16
Mof_H 	H 	0.8666	0.9312	0.7741	-0.067
Mof_H 	H 	0.9276	0.8657	0.7169	0.426
Mof_O 	O 	0.64409	0.53066	0.81239	-0.38
Mof_O 	O 	0.60851	0.53121	0.8483	-0.379
Mof_C 	C 	0.61934	0.54073	0.82441	0.327
Mof_C 	C 	0.60341	0.5645	0.80823	-0.039
Mof_C 	C 	0.6084	0.5718	0.77728	-0.324
Mof_H 	H 	0.6232	0.5606	0.767	0.181
Mof_N 	N 	0.6056	0.6255	0.6865	0.111
Mof_C 	C 	0.6002	0.6337	0.7235	1.823
Mof_H 	H 	0.5834	0.6455	0.7289	-0.688
Mof_N 	N 	0.6161	0.6362	0.698	-0.494
Mof_C 	C 	0.616	0.5771	0.7829	0.161
Mof_H 	H 	0.6334	0.5688	0.7741	-0.068
Mof_H 	H 	0.5724	0.6343	0.7169	0.426
Mof_O 	O 	0.64409	0.03066	0.31239	-0.38
Mof_O 	O 	0.60851	0.03121	0.3483	-0.379
Mof_C 	C 	0.61934	0.04073	0.32441	0.327
Mof_C 	C 	0.60341	0.0645	0.30823	-0.039
Mof_C 	C 	0.6084	0.0718	0.27728	-0.324
Mof_H 	H 	0.6232	0.0606	0.267	0.181
Mof_N 	N 	0.6056	0.1255	0.1865	0.111
Mof_C 	C 	0.6002	0.1337	0.2235	1.823
Mof_H 	H 	0.5834	0.1455	0.2289	-0.688
Mof_N 	N 	0.6161	0.1362	0.198	-0.494
Mof_C 	C 	0.616	0.0771	0.2829	0.161
Mof_H 	H 	0.6334	0.0688	0.2741	-0.068
Mof_H 	H 	0.5724	0.1343	0.2169	0.425
Mof_O 	O 	0.14409	0.53066	0.31239	-0.38
Mof_O 	O 	0.10851	0.53121	0.3483	-0.379
Mof_C 	C 	0.11934	0.54073	0.32441	0.327
Mof_C 	C 	0.10341	0.5645	0.30823	-0.039
Mof_C 	C 	0.1084	0.5718	0.27728	-0.324
Mof_H 	H 	0.1232	0.5606	0.267	0.181
Mof_N 	N 	0.1056	0.6255	0.1865	0.111
Mof_C 	C 	0.1002	0.6337	0.2235	1.823
Mof_H 	H 	0.0834	0.6455	0.2289	-0.688
Mof_N 	N 	0.1161	0.6362	0.198	-0.494
Mof_C 	C 	0.116	0.5771	0.2829	0.161
Mof_H 	H 	0.1334	0.5688	0.2741	-0.068
Mof_H 	H 	0.0724	0.6343	0.2169	0.425
Mof_O 	O 	0.14409	0.03066	0.81239	-0.38
Mof_O 	O 	0.10851	0.03121	0.8483	-0.38
Mof_C 	C 	0.11934	0.04073	0.82441	0.327
Mof_C 	C 	0.10341	0.0645	0.80823	-0.04
Mof_C 	C 	0.1084	0.0718	0.77728	-0.325
Mof_H 	H 	0.1232	0.0606	0.767	0.181
Mof_N 	N 	0.1056	0.1255	0.6865	0.111
Mof_C 	C 	0.1002	0.1337	0.7235	1.823
Mof_H 	H 	0.0834	0.1455	0.7289	-0.688
Mof_N 	N 	0.1161	0.1362	0.698	-0.494
Mof_C 	C 	0.116	0.0771	0.7829	0.161
Mof_H 	H 	0.1334	0.0688	0.7741	-0.068
Mof_H 	H 	0.0724	0.1343	0.7169	0.425
Mof_O 	O 	0.64409	0.46934	0.18761	-0.38
Mof_O 	O 	0.60851	0.46879	0.1517	-0.379
Mof_C 	C 	0.61934	0.45927	0.17559	0.327
Mof_C 	C 	0.60341	0.4355	0.19177	-0.039
Mof_C 	C 	0.6084	0.4282	0.22272	-0.324
Mof_H 	H 	0.6232	0.4394	0.233	0.181
Mof_N 	N 	0.6056	0.3745	0.3135	0.111
Mof_C 	C 	0.6002	0.3663	0.2765	1.823
Mof_H 	H 	0.5834	0.3545	0.2711	-0.688
Mof_N 	N 	0.6161	0.3638	0.302	-0.494
Mof_C 	C 	0.616	0.4229	0.2171	0.161
Mof_H 	H 	0.6334	0.4312	0.2259	-0.068
Mof_H 	H 	0.5724	0.3657	0.2831	0.426
Mof_O 	O 	0.64409	0.96934	0.68761	-0.377
Mof_O 	O 	0.60851	0.96879	0.6517	-0.377
Mof_C 	C 	0.61934	0.95927	0.67559	0.327
Mof_C 	C 	0.60341	0.9355	0.69177	-0.038
Mof_C 	C 	0.6084	0.9282	0.72272	-0.323
Mof_H 	H 	0.6232	0.9394	0.733	0.182
Mof_N 	N 	0.6056	0.8745	0.8135	0.111
Mof_C 	C 	0.6002	0.8663	0.7765	1.823
Mof_H 	H 	0.5834	0.8545	0.7711	-0.688
Mof_N 	N 	0.6161	0.8638	0.802	-0.495
Mof_C 	C 	0.616	0.9229	0.7171	0.16
Mof_H 	H 	0.6334	0.9312	0.7259	-0.067
Mof_H 	H 	0.5724	0.8657	0.7831	0.426
Mof_O 	O 	0.14409	0.46934	0.68761	-0.38
Mof_O 	O 	0.10851	0.46879	0.6517	-0.379
Mof_C 	C 	0.11934	0.45927	0.67559	0.327
Mof_C 	C 	0.10341	0.4355	0.69177	-0.039
Mof_C 	C 	0.1084	0.4282	0.72272	-0.324
Mof_H 	H 	0.1232	0.4394	0.733	0.181
Mof_N 	N 	0.1056	0.3745	0.8135	0.111
Mof_C 	C 	0.1002	0.3663	0.7765	1.823
Mof_H 	H 	0.0834	0.3545	0.7711	-0.688
Mof_N 	N 	0.1161	0.3638	0.802	-0.495
Mof_C 	C 	0.116	0.4229	0.7171	0.161
Mof_H 	H 	0.1334	0.4312	0.7259	-0.068
Mof_H 	H 	0.0724	0.3657	0.7831	0.425
Mof_O 	O 	0.14409	0.96934	0.18761	-0.377
Mof_O 	O 	0.10851	0.96879	0.1517	-0.378
Mof_C 	C 	0.11934	0.95927	0.17559	0.327
Mof_C 	C 	0.10341	0.9355	0.19177	-0.039
Mof_C 	C 	0.1084	0.9282	0.22272	-0.324
Mof_H 	H 	0.1232	0.9394	0.233	0.182
Mof_N 	N 	0.1056	0.8745	0.3135	0.111
Mof_C 	C 	0.1002	0.8663	0.2765	1.823
Mof_H 	H 	0.0834	0.8545	0.2711	-0.688
Mof_N 	N 	0.1161	0.8638	0.302	-0.495
Mof_C 	C 	0.116	0.9229	0.2171	0.161
Mof_H 	H 	0.1334	0.9312	0.2259	-0.068
Mof_H 	H 	0.0724	0.8657	0.2831	0.425
Mof_O 	O 	0.35591	0.53066	0.18761	-0.38
Mof_O 	O 	0.39149	0.53121	0.1517	-0.379
Mof_C 	C 	0.38066	0.54073	0.17559	0.327
Mof_C 	C 	0.39659	0.5645	0.19177	-0.039
Mof_C 	C 	0.3916	0.5718	0.22272	-0.324
Mof_H 	H 	0.3768	0.5606	0.233	0.181
Mof_N 	N 	0.3944	0.6255	0.3135	0.111
Mof_C 	C 	0.3998	0.6337	0.2765	1.823
Mof_H 	H 	0.4166	0.6455	0.2711	-0.688
Mof_N 	N 	0.3839	0.6362	0.302	-0.494
Mof_C 	C 	0.384	0.5771	0.2171	0.161
Mof_H 	H 	0.3666	0.5688	0.2259	-0.068
Mof_H 	H 	0.4276	0.6343	0.2831	0.426
Mof_O 	O 	0.35591	0.03066	0.68761	-0.38
Mof_O 	O 	0.39149	0.03121	0.6517	-0.379
Mof_C 	C 	0.38066	0.04073	0.67559	0.327
Mof_C 	C 	0.39659	0.0645	0.69177	-0.039
Mof_C 	C 	0.3916	0.0718	0.72272	-0.324
Mof_H 	H 	0.3768	0.0606	0.733	0.181
Mof_N 	N 	0.3944	0.1255	0.8135	0.111
Mof_C 	C 	0.3998	0.1337	0.7765	1.823
Mof_H 	H 	0.4166	0.1455	0.7711	-0.688
Mof_N 	N 	0.3839	0.1362	0.802	-0.495
Mof_C 	C 	0.384	0.0771	0.7171	0.161
Mof_H 	H 	0.3666	0.0688	0.7259	-0.068
Mof_H 	H 	0.4276	0.1343	0.7831	0.426
Mof_O 	O 	0.85591	0.53066	0.68761	-0.38
Mof_O 	O 	0.89149	0.53121	0.6517	-0.379
Mof_C 	C 	0.88066	0.54073	0.67559	0.327
Mof_C 	C 	0.89659	0.5645	0.69177	-0.039
Mof_C 	C 	0.8916	0.5718	0.72272	-0.323
Mof_H 	H 	0.8768	0.5606	0.733	0.181
Mof_N 	N 	0.8944	0.6255	0.8135	0.111
Mof_C 	C 	0.8998	0.6337	0.7765	1.823
Mof_H 	H 	0.9166	0.6455	0.7711	-0.687
Mof_N 	N 	0.8839	0.6362	0.802	-0.495
Mof_C 	C 	0.884	0.5771	0.7171	0.16
Mof_H 	H 	0.8666	0.5688	0.7259	-0.067
Mof_H 	H 	0.9276	0.6343	0.7831	0.426
Mof_O 	O 	0.85591	0.03066	0.18761	-0.38
Mof_O 	O 	0.89149	0.03121	0.1517	-0.379
Mof_C 	C 	0.88066	0.04073	0.17559	0.327
Mof_C 	C 	0.89659	0.0645	0.19177	-0.039
Mof_C 	C 	0.8916	0.0718	0.22272	-0.324
Mof_H 	H 	0.8768	0.0606	0.233	0.181
Mof_N 	N 	0.8944	0.1255	0.3135	0.111
Mof_C 	C 	0.8998	0.1337	0.2765	1.823
Mof_H 	H 	0.9166	0.1455	0.2711	-0.687
Mof_N 	N 	0.8839	0.1362	0.302	-0.494
Mof_C 	C 	0.884	0.0771	0.2171	0.16
Mof_H 	H 	0.8666	0.0688	0.2259	-0.067
Mof_H 	H 	0.9276	0.1343	0.2831	0.426
Mof_O 	O 	0.81239	0.35591	0.46934	-0.38
Mof_O 	O 	0.8483	0.39149	0.46879	-0.379
Mof_C 	C 	0.82441	0.38066	0.45927	0.327
Mof_C 	C 	0.80823	0.39659	0.4355	-0.039
Mof_C 	C 	0.77728	0.3916	0.4282	-0.324
Mof_H 	H 	0.767	0.3768	0.4394	0.181
Mof_N 	N 	0.6865	0.3944	0.3745	0.111
Mof_C 	C 	0.7235	0.3998	0.3663	1.823
Mof_H 	H 	0.7289	0.4166	0.3545	-0.688
Mof_N 	N 	0.698	0.3839	0.3638	-0.494
Mof_C 	C 	0.7829	0.384	0.4229	0.161
Mof_H 	H 	0.7741	0.3666	0.4312	-0.068
Mof_H 	H 	0.7169	0.4276	0.3657	0.426
Mof_O 	O 	0.81239	0.85591	0.96934	-0.377
Mof_O 	O 	0.8483	0.89149	0.96879	-0.377
Mof_C 	C 	0.82441	0.88066	0.95927	0.327
Mof_C 	C 	0.80823	0.89659	0.9355	-0.038
Mof_C 	C 	0.77728	0.8916	0.9282	-0.323
Mof_H 	H 	0.767	0.8768	0.9394	0.181
Mof_N 	N 	0.6865	0.8944	0.8745	0.111
Mof_C 	C 	0.7235	0.8998	0.8663	1.823
Mof_H 	H 	0.7289	0.9166	0.8545	-0.687
Mof_N 	N 	0.698	0.8839	0.8638	-0.494
Mof_C 	C 	0.7829	0.884	0.9229	0.16
Mof_H 	H 	0.7741	0.8666	0.9312	-0.067
Mof_H 	H 	0.7169	0.9276	0.8657	0.426
Mof_O 	O 	0.31239	0.35591	0.96934	-0.377
Mof_O 	O 	0.3483	0.39149	0.96879	-0.377
Mof_C 	C 	0.32441	0.38066	0.95927	0.327
Mof_C 	C 	0.30823	0.39659	0.9355	-0.038
Mof_C 	C 	0.27728	0.3916	0.9282	-0.323
Mof_H 	H 	0.267	0.3768	0.9394	0.182
Mof_N 	N 	0.1865	0.3944	0.8745	0.111
Mof_C 	C 	0.2235	0.3998	0.8663	1.823
Mof_H 	H 	0.2289	0.4166	0.8545	-0.688
Mof_N 	N 	0.198	0.3839	0.8638	-0.494
Mof_C 	C 	0.2829	0.384	0.9229	0.16
Mof_H 	H 	0.2741	0.3666	0.9312	-0.067
Mof_H 	H 	0.2169	0.4276	0.8657	0.426
Mof_O 	O 	0.31239	0.85591	0.46934	-0.38
Mof_O 	O 	0.3483	0.89149	0.46879	-0.379
Mof_C 	C 	0.32441	0.88066	0.45927	0.327
Mof_C 	C 	0.30823	0.89659	0.4355	-0.039
Mof_C 	C 	0.27728	0.8916	0.4282	-0.323
Mof_H 	H 	0.267	0.8768	0.4394	0.181
Mof_N 	N 	0.1865	0.8944	0.3745	0.111
Mof_C 	C 	0.2235	0.8998	0.3663	1.823
Mof_H 	H 	0.2289	0.9166	0.3545	-0.687
Mof_N 	N 	0.198	0.8839	0.3638	-0.494
Mof_C 	C 	0.2829	0.884	0.4229	0.16
Mof_H 	H 	0.2741	0.8666	0.4312	-0.067
Mof_H 	H 	0.2169	0.9276	0.3657	0.426
Mof_O 	O 	0.81239	0.64409	0.53066	-0.38
Mof_O 	O 	0.8483	0.60851	0.53121	-0.379
Mof_C 	C 	0.82441	0.61934	0.54073	0.327
Mof_C 	C 	0.80823	0.60341	0.5645	-0.039
Mof_C 	C 	0.77728	0.6084	0.5718	-0.324
Mof_H 	H 	0.767	0.6232	0.5606	0.181
Mof_N 	N 	0.6865	0.6056	0.6255	0.111
Mof_C 	C 	0.7235	0.6002	0.6337	1.823
Mof_H 	H 	0.7289	0.5834	0.6455	-0.688
Mof_N 	N 	0.698	0.6161	0.6362	-0.494
Mof_C 	C 	0.7829	0.616	0.5771	0.161
Mof_H 	H 	0.7741	0.6334	0.5688	-0.068
Mof_H 	H 	0.7169	0.5724	0.6343	0.426
Mof_O 	O 	0.81239	0.14409	0.03066	-0.38
Mof_O 	O 	0.8483	0.10851	0.03121	-0.38
Mof_C 	C 	0.82441	0.11934	0.04073	0.327
Mof_C 	C 	0.80823	0.10341	0.0645	-0.04
Mof_C 	C 	0.77728	0.1084	0.0718	-0.325
Mof_H 	H 	0.767	0.1232	0.0606	0.181
Mof_N 	N 	0.6865	0.1056	0.1255	0.111
Mof_C 	C 	0.7235	0.1002	0.1337	1.823
Mof_H 	H 	0.7289	0.0834	0.1455	-0.688
Mof_N 	N 	0.698	0.1161	0.1362	-0.494
Mof_C 	C 	0.7829	0.116	0.0771	0.161
Mof_H 	H 	0.7741	0.1334	0.0688	-0.068
Mof_H 	H 	0.7169	0.0724	0.1343	0.425
Mof_O 	O 	0.31239	0.64409	0.03066	-0.38
Mof_O 	O 	0.3483	0.60851	0.03121	-0.379
Mof_C 	C 	0.32441	0.61934	0.04073	0.327
Mof_C 	C 	0.30823	0.60341	0.0645	-0.039
Mof_C 	C 	0.27728	0.6084	0.0718	-0.324
Mof_H 	H 	0.267	0.6232	0.0606	0.181
Mof_N 	N 	0.1865	0.6056	0.1255	0.111
Mof_C 	C 	0.2235	0.6002	0.1337	1.823
Mof_H 	H 	0.2289	0.5834	0.1455	-0.688
Mof_N 	N 	0.198	0.6161	0.1362	-0.494
Mof_C 	C 	0.2829	0.616	0.0771	0.161
Mof_H 	H 	0.2741	0.6334	0.0688	-0.068
Mof_H 	H 	0.2169	0.5724	0.1343	0.425
Mof_O 	O 	0.31239	0.14409	0.53066	-0.38
Mof_O 	O 	0.3483	0.10851	0.53121	-0.379
Mof_C 	C 	0.32441	0.11934	0.54073	0.327
Mof_C 	C 	0.30823	0.10341	0.5645	-0.039
Mof_C 	C 	0.27728	0.1084	0.5718	-0.324
Mof_H 	H 	0.267	0.1232	0.5606	0.181
Mof_N 	N 	0.1865	0.1056	0.6255	0.111
Mof_C 	C 	0.2235	0.1002	0.6337	1.823
Mof_H 	H 	0.2289	0.0834	0.6455	-0.688
Mof_N 	N 	0.198	0.1161	0.6362	-0.494
Mof_C 	C 	0.2829	0.116	0.5771	0.161
Mof_H 	H 	0.2741	0.1334	0.5688	-0.068
Mof_H 	H 	0.2169	0.0724	0.6343	0.425
Mof_O 	O 	0.18761	0.64409	0.46934	-0.38
Mof_O 	O 	0.1517	0.60851	0.46879	-0.379
Mof_C 	C 	0.17559	0.61934	0.45927	0.327
Mof_C 	C 	0.19177	0.60341	0.4355	-0.039
Mof_C 	C 	0.22272	0.6084	0.4282	-0.324
Mof_H 	H 	0.233	0.6232	0.4394	0.181
Mof_N 	N 	0.3135	0.6056	0.3745	0.111
Mof_C 	C 	0.2765	0.6002	0.3663	1.823
Mof_H 	H 	0.2711	0.5834	0.3545	-0.688
Mof_N 	N 	0.302	0.6161	0.3638	-0.494
Mof_C 	C 	0.2171	0.616	0.4229	0.161
Mof_H 	H 	0.2259	0.6334	0.4312	-0.068
Mof_H 	H 	0.2831	0.5724	0.3657	0.426
Mof_O 	O 	0.18761	0.14409	0.96934	-0.377
Mof_O 	O 	0.1517	0.10851	0.96879	-0.378
Mof_C 	C 	0.17559	0.11934	0.95927	0.327
Mof_C 	C 	0.19177	0.10341	0.9355	-0.039
Mof_C 	C 	0.22272	0.1084	0.9282	-0.324
Mof_H 	H 	0.233	0.1232	0.9394	0.182
Mof_N 	N 	0.3135	0.1056	0.8745	0.111
Mof_C 	C 	0.2765	0.1002	0.8663	1.823
Mof_H 	H 	0.2711	0.0834	0.8545	-0.688
Mof_N 	N 	0.302	0.1161	0.8638	-0.495
Mof_C 	C 	0.2171	0.116	0.9229	0.161
Mof_H 	H 	0.2259	0.1334	0.9312	-0.068
Mof_H 	H 	0.2831	0.0724	0.8657	0.425
Mof_O 	O 	0.68761	0.64409	0.96934	-0.377
Mof_O 	O 	0.6517	0.60851	0.96879	-0.377
Mof_C 	C 	0.67559	0.61934	0.95927	0.327
Mof_C 	C 	0.69177	0.60341	0.9355	-0.038
Mof_C 	C 	0.72272	0.6084	0.9282	-0.323
Mof_H 	H 	0.733	0.6232	0.9394	0.182
Mof_N 	N 	0.8135	0.6056	0.8745	0.111
Mof_C 	C 	0.7765	0.6002	0.8663	1.823
Mof_H 	H 	0.7711	0.5834	0.8545	-0.688
Mof_N 	N 	0.802	0.6161	0.8638	-0.495
Mof_C 	C 	0.7171	0.616	0.9229	0.16
Mof_H 	H 	0.7259	0.6334	0.9312	-0.067
Mof_H 	H 	0.7831	0.5724	0.8657	0.426
Mof_O 	O 	0.68761	0.14409	0.46934	-0.38
Mof_O 	O 	0.6517	0.10851	0.46879	-0.379
Mof_C 	C 	0.67559	0.11934	0.45927	0.327
Mof_C 	C 	0.69177	0.10341	0.4355	-0.039
Mof_C 	C 	0.72272	0.1084	0.4282	-0.324
Mof_H 	H 	0.733	0.1232	0.4394	0.181
Mof_N 	N 	0.8135	0.1056	0.3745	0.111
Mof_C 	C 	0.7765	0.1002	0.3663	1.823
Mof_H 	H 	0.7711	0.0834	0.3545	-0.688
Mof_N 	N 	0.802	0.1161	0.3638	-0.495
Mof_C 	C 	0.7171	0.116	0.4229	0.161
Mof_H 	H 	0.7259	0.1334	0.4312	-0.068
Mof_H 	H 	0.7831	0.0724	0.3657	0.425
Mof_O 	O 	0.18761	0.35591	0.53066	-0.38
Mof_O 	O 	0.1517	0.39149	0.53121	-0.379
Mof_C 	C 	0.17559	0.38066	0.54073	0.327
Mof_C 	C 	0.19177	0.39659	0.5645	-0.039
Mof_C 	C 	0.22272	0.3916	0.5718	-0.324
Mof_H 	H 	0.233	0.3768	0.5606	0.181
Mof_N 	N 	0.3135	0.3944	0.6255	0.111
Mof_C 	C 	0.2765	0.3998	0.6337	1.823
Mof_H 	H 	0.2711	0.4166	0.6455	-0.688
Mof_N 	N 	0.302	0.3839	0.6362	-0.494
Mof_C 	C 	0.2171	0.384	0.5771	0.161
Mof_H 	H 	0.2259	0.3666	0.5688	-0.068
Mof_H 	H 	0.2831	0.4276	0.6343	0.426
Mof_O 	O 	0.18761	0.85591	0.03066	-0.38
Mof_O 	O 	0.1517	0.89149	0.03121	-0.379
Mof_C 	C 	0.17559	0.88066	0.04073	0.327
Mof_C 	C 	0.19177	0.89659	0.0645	-0.039
Mof_C 	C 	0.22272	0.8916	0.0718	-0.324
Mof_H 	H 	0.233	0.8768	0.0606	0.181
Mof_N 	N 	0.3135	0.8944	0.1255	0.111
Mof_C 	C 	0.2765	0.8998	0.1337	1.823
Mof_H 	H 	0.2711	0.9166	0.1455	-0.687
Mof_N 	N 	0.302	0.8839	0.1362	-0.494
Mof_C 	C 	0.2171	0.884	0.0771	0.16
Mof_H 	H 	0.2259	0.8666	0.0688	-0.067
Mof_H 	H 	0.2831	0.9276	0.1343	0.426
Mof_O 	O 	0.68761	0.35591	0.03066	-0.38
Mof_O 	O 	0.6517	0.39149	0.03121	-0.379
Mof_C 	C 	0.67559	0.38066	0.04073	0.327
Mof_C 	C 	0.69177	0.39659	0.0645	-0.039
Mof_C 	C 	0.72272	0.3916	0.0718	-0.324
Mof_H 	H 	0.733	0.3768	0.0606	0.181
Mof_N 	N 	0.8135	0.3944	0.1255	0.111
Mof_C 	C 	0.7765	0.3998	0.1337	1.823
Mof_H 	H 	0.7711	0.4166	0.1455	-0.688
Mof_N 	N 	0.802	0.3839	0.1362	-0.495
Mof_C 	C 	0.7171	0.384	0.0771	0.161
Mof_H 	H 	0.7259	0.3666	0.0688	-0.068
Mof_H 	H 	0.7831	0.4276	0.1343	0.426
Mof_O 	O 	0.68761	0.85591	0.53066	-0.38
Mof_O 	O 	0.6517	0.89149	0.53121	-0.379
Mof_C 	C 	0.67559	0.88066	0.54073	0.327
Mof_C 	C 	0.69177	0.89659	0.5645	-0.039
Mof_C 	C 	0.72272	0.8916	0.5718	-0.323
Mof_H 	H 	0.733	0.8768	0.5606	0.181
Mof_N 	N 	0.8135	0.8944	0.6255	0.111
Mof_C 	C 	0.7765	0.8998	0.6337	1.823
Mof_H 	H 	0.7711	0.9166	0.6455	-0.687
Mof_N 	N 	0.802	0.8839	0.6362	-0.495
Mof_C 	C 	0.7171	0.884	0.5771	0.16
Mof_H 	H 	0.7259	0.8666	0.5688	-0.067
Mof_H 	H 	0.7831	0.9276	0.6343	0.426
Mof_O 	O 	0.46934	0.81239	0.35591	-0.38
Mof_O 	O 	0.46879	0.8483	0.39149	-0.379
Mof_C 	C 	0.45927	0.82441	0.38066	0.327
Mof_C 	C 	0.4355	0.80823	0.39659	-0.039
Mof_C 	C 	0.4282	0.77728	0.3916	-0.324
Mof_H 	H 	0.4394	0.767	0.3768	0.181
Mof_N 	N 	0.3745	0.6865	0.3944	0.111
Mof_C 	C 	0.3663	0.7235	0.3998	1.823
Mof_H 	H 	0.3545	0.7289	0.4166	-0.688
Mof_N 	N 	0.3638	0.698	0.3839	-0.494
Mof_C 	C 	0.4229	0.7829	0.384	0.161
Mof_H 	H 	0.4312	0.7741	0.3666	-0.068
Mof_H 	H 	0.3657	0.7169	0.4276	0.426
Mof_O 	O 	0.46934	0.31239	0.85591	-0.38
Mof_O 	O 	0.46879	0.3483	0.89149	-0.379
Mof_C 	C 	0.45927	0.32441	0.88066	0.327
Mof_C 	C 	0.4355	0.30823	0.89659	-0.039
Mof_C 	C 	0.4282	0.27728	0.8916	-0.323
Mof_H 	H 	0.4394	0.267	0.8768	0.181
Mof_N 	N 	0.3745	0.1865	0.8944	0.111
Mof_C 	C 	0.3663	0.2235	0.8998	1.823
Mof_H 	H 	0.3545	0.2289	0.9166	-0.687
Mof_N 	N 	0.3638	0.198	0.8839	-0.494
Mof_C 	C 	0.4229	0.2829	0.884	0.16
Mof_H 	H 	0.4312	0.2741	0.8666	-0.067
Mof_H 	H 	0.3657	0.2169	0.9276	0.426
Mof_O 	O 	0.96934	0.81239	0.85591	-0.377
Mof_O 	O 	0.96879	0.8483	0.89149	-0.377
Mof_C 	C 	0.95927	0.82441	0.88066	0.327
Mof_C 	C 	0.9355	0.80823	0.89659	-0.038
Mof_C 	C 	0.9282	0.77728	0.8916	-0.323
Mof_H 	H 	0.9394	0.767	0.8768	0.181
Mof_N 	N 	0.8745	0.6865	0.8944	0.111
Mof_C 	C 	0.8663	0.7235	0.8998	1.823
Mof_H 	H 	0.8545	0.7289	0.9166	-0.687
Mof_N 	N 	0.8638	0.698	0.8839	-0.494
Mof_C 	C 	0.9229	0.7829	0.884	0.16
Mof_H 	H 	0.9312	0.7741	0.8666	-0.067
Mof_H 	H 	0.8657	0.7169	0.9276	0.426
Mof_O 	O 	0.96934	0.31239	0.35591	-0.377
Mof_O 	O 	0.96879	0.3483	0.39149	-0.377
Mof_C 	C 	0.95927	0.32441	0.38066	0.327
Mof_C 	C 	0.9355	0.30823	0.39659	-0.038
Mof_C 	C 	0.9282	0.27728	0.3916	-0.323
Mof_H 	H 	0.9394	0.267	0.3768	0.182
Mof_N 	N 	0.8745	0.1865	0.3944	0.111
Mof_C 	C 	0.8663	0.2235	0.3998	1.823
Mof_H 	H 	0.8545	0.2289	0.4166	-0.688
Mof_N 	N 	0.8638	0.198	0.3839	-0.494
Mof_C 	C 	0.9229	0.2829	0.384	0.16
Mof_H 	H 	0.9312	0.2741	0.3666	-0.067
Mof_H 	H 	0.8657	0.2169	0.4276	0.426
Mof_O 	O 	0.53066	0.81239	0.64409	-0.38
Mof_O 	O 	0.53121	0.8483	0.60851	-0.379
Mof_C 	C 	0.54073	0.82441	0.61934	0.327
Mof_C 	C 	0.5645	0.80823	0.60341	-0.039
Mof_C 	C 	0.5718	0.77728	0.6084	-0.324
Mof_H 	H 	0.5606	0.767	0.6232	0.181
Mof_N 	N 	0.6255	0.6865	0.6056	0.111
Mof_C 	C 	0.6337	0.7235	0.6002	1.823
Mof_H 	H 	0.6455	0.7289	0.5834	-0.688
Mof_N 	N 	0.6362	0.698	0.6161	-0.494
Mof_C 	C 	0.5771	0.7829	0.616	0.161
Mof_H 	H 	0.5688	0.7741	0.6334	-0.068
Mof_H 	H 	0.6343	0.7169	0.5724	0.426
Mof_O 	O 	0.53066	0.31239	0.14409	-0.38
Mof_O 	O 	0.53121	0.3483	0.10851	-0.379
Mof_C 	C 	0.54073	0.32441	0.11934	0.327
Mof_C 	C 	0.5645	0.30823	0.10341	-0.039
Mof_C 	C 	0.5718	0.27728	0.1084	-0.324
Mof_H 	H 	0.5606	0.267	0.1232	0.181
Mof_N 	N 	0.6255	0.1865	0.1056	0.111
Mof_C 	C 	0.6337	0.2235	0.1002	1.823
Mof_H 	H 	0.6455	0.2289	0.0834	-0.688
Mof_N 	N 	0.6362	0.198	0.1161	-0.494
Mof_C 	C 	0.5771	0.2829	0.116	0.161
Mof_H 	H 	0.5688	0.2741	0.1334	-0.068
Mof_H 	H 	0.6343	0.2169	0.0724	0.425
Mof_O 	O 	0.03066	0.81239	0.14409	-0.38
Mof_O 	O 	0.03121	0.8483	0.10851	-0.38
Mof_C 	C 	0.04073	0.82441	0.11934	0.327
Mof_C 	C 	0.0645	0.80823	0.10341	-0.04
Mof_C 	C 	0.0718	0.77728	0.1084	-0.325
Mof_H 	H 	0.0606	0.767	0.1232	0.181
Mof_N 	N 	0.1255	0.6865	0.1056	0.111
Mof_C 	C 	0.1337	0.7235	0.1002	1.823
Mof_H 	H 	0.1455	0.7289	0.0834	-0.688
Mof_N 	N 	0.1362	0.698	0.1161	-0.494
Mof_C 	C 	0.0771	0.7829	0.116	0.161
Mof_H 	H 	0.0688	0.7741	0.1334	-0.068
Mof_H 	H 	0.1343	0.7169	0.0724	0.425
Mof_O 	O 	0.03066	0.31239	0.64409	-0.38
Mof_O 	O 	0.03121	0.3483	0.60851	-0.379
Mof_C 	C 	0.04073	0.32441	0.61934	0.327
Mof_C 	C 	0.0645	0.30823	0.60341	-0.039
Mof_C 	C 	0.0718	0.27728	0.6084	-0.324
Mof_H 	H 	0.0606	0.267	0.6232	0.181
Mof_N 	N 	0.1255	0.1865	0.6056	0.111
Mof_C 	C 	0.1337	0.2235	0.6002	1.823
Mof_H 	H 	0.1455	0.2289	0.5834	-0.688
Mof_N 	N 	0.1362	0.198	0.6161	-0.494
Mof_C 	C 	0.0771	0.2829	0.616	0.161
Mof_H 	H 	0.0688	0.2741	0.6334	-0.068
Mof_H 	H 	0.1343	0.2169	0.5724	0.425
Mof_O 	O 	0.46934	0.18761	0.64409	-0.38
Mof_O 	O 	0.46879	0.1517	0.60851	-0.379
Mof_C 	C 	0.45927	0.17559	0.61934	0.327
Mof_C 	C 	0.4355	0.19177	0.60341	-0.039
Mof_C 	C 	0.4282	0.22272	0.6084	-0.324
Mof_H 	H 	0.4394	0.233	0.6232	0.181
Mof_N 	N 	0.3745	0.3135	0.6056	0.111
Mof_C 	C 	0.3663	0.2765	0.6002	1.823
Mof_H 	H 	0.3545	0.2711	0.5834	-0.688
Mof_N 	N 	0.3638	0.302	0.6161	-0.494
Mof_C 	C 	0.4229	0.2171	0.616	0.161
Mof_H 	H 	0.4312	0.2259	0.6334	-0.068
Mof_H 	H 	0.3657	0.2831	0.5724	0.426
Mof_O 	O 	0.46934	0.68761	0.14409	-0.38
Mof_O 	O 	0.46879	0.6517	0.10851	-0.379
Mof_C 	C 	0.45927	0.67559	0.11934	0.327
Mof_C 	C 	0.4355	0.69177	0.10341	-0.039
Mof_C 	C 	0.4282	0.72272	0.1084	-0.324
Mof_H 	H 	0.4394	0.733	0.1232	0.181
Mof_N 	N 	0.3745	0.8135	0.1056	0.111
Mof_C 	C 	0.3663	0.7765	0.1002	1.823
Mof_H 	H 	0.3545	0.7711	0.0834	-0.688
Mof_N 	N 	0.3638	0.802	0.1161	-0.495
Mof_C 	C 	0.4229	0.7171	0.116	0.161
Mof_H 	H 	0.4312	0.7259	0.1334	-0.068
Mof_H 	H 	0.3657	0.7831	0.0724	0.425
Mof_O 	O 	0.96934	0.18761	0.14409	-0.377
Mof_O 	O 	0.96879	0.1517	0.10851	-0.378
Mof_C 	C 	0.95927	0.17559	0.11934	0.327
Mof_C 	C 	0.9355	0.19177	0.10341	-0.039
Mof_C 	C 	0.9282	0.22272	0.1084	-0.324
Mof_H 	H 	0.9394	0.233	0.1232	0.182
Mof_N 	N 	0.8745	0.3135	0.1056	0.111
Mof_C 	C 	0.8663	0.2765	0.1002	1.823
Mof_H 	H 	0.8545	0.2711	0.0834	-0.688
Mof_N 	N 	0.8638	0.302	0.1161	-0.495
Mof_C 	C 	0.9229	0.2171	0.116	0.161
Mof_H 	H 	0.9312	0.2259	0.1334	-0.068
Mof_H 	H 	0.8657	0.2831	0.0724	0.425
Mof_O 	O 	0.96934	0.68761	0.64409	-0.377
Mof_O 	O 	0.96879	0.6517	0.60851	-0.377
Mof_C 	C 	0.95927	0.67559	0.61934	0.327
Mof_C 	C 	0.9355	0.69177	0.60341	-0.038
Mof_C 	C 	0.9282	0.72272	0.6084	-0.323
Mof_H 	H 	0.9394	0.733	0.6232	0.182
Mof_N 	N 	0.8745	0.8135	0.6056	0.111
Mof_C 	C 	0.8663	0.7765	0.6002	1.823
Mof_H 	H 	0.8545	0.7711	0.5834	-0.688
Mof_N 	N 	0.8638	0.802	0.6161	-0.495
Mof_C 	C 	0.9229	0.7171	0.616	0.16
Mof_H 	H 	0.9312	0.7259	0.6334	-0.067
Mof_H 	H 	0.8657	0.7831	0.5724	0.426
Mof_O 	O 	0.53066	0.18761	0.35591	-0.38
Mof_O 	O 	0.53121	0.1517	0.39149	-0.379
Mof_C 	C 	0.54073	0.17559	0.38066	0.327
Mof_C 	C 	0.5645	0.19177	0.39659	-0.039
Mof_C 	C 	0.5718	0.22272	0.3916	-0.324
Mof_H 	H 	0.5606	0.233	0.3768	0.181
Mof_N 	N 	0.6255	0.3135	0.3944	0.111
Mof_C 	C 	0.6337	0.2765	0.3998	1.823
Mof_H 	H 	0.6455	0.2711	0.4166	-0.688
Mof_N 	N 	0.6362	0.302	0.3839	-0.494
Mof_C 	C 	0.5771	0.2171	0.384	0.161
Mof_H 	H 	0.5688	0.2259	0.3666	-0.068
Mof_H 	H 	0.6343	0.2831	0.4276	0.426
Mof_O 	O 	0.53066	0.68761	0.85591	-0.38
Mof_O 	O 	0.53121	0.6517	0.89149	-0.379
Mof_C 	C 	0.54073	0.67559	0.88066	0.327
Mof_C 	C 	0.5645	0.69177	0.89659	-0.039
Mof_C 	C 	0.5718	0.72272	0.8916	-0.323
Mof_H 	H 	0.5606	0.733	0.8768	0.181
Mof_N 	N 	0.6255	0.8135	0.8944	0.111
Mof_C 	C 	0.6337	0.7765	0.8998	1.823
Mof_H 	H 	0.6455	0.7711	0.9166	-0.687
Mof_N 	N 	0.6362	0.802	0.8839	-0.495
Mof_C 	C 	0.5771	0.7171	0.884	0.16
Mof_H 	H 	0.5688	0.7259	0.8666	-0.067
Mof_H 	H 	0.6343	0.7831	0.9276	0.426
Mof_O 	O 	0.03066	0.18761	0.85591	-0.38
Mof_O 	O 	0.03121	0.1517	0.89149	-0.379
Mof_C 	C 	0.04073	0.17559	0.88066	0.327
Mof_C 	C 	0.0645	0.19177	0.89659	-0.039
Mof_C 	C 	0.0718	0.22272	0.8916	-0.324
Mof_H 	H 	0.0606	0.233	0.8768	0.181
Mof_N 	N 	0.1255	0.3135	0.8944	0.111
Mof_C 	C 	0.1337	0.2765	0.8998	1.823
Mof_H 	H 	0.1455	0.2711	0.9166	-0.687
Mof_N 	N 	0.1362	0.302	0.8839	-0.494
Mof_C 	C 	0.0771	0.2171	0.884	0.16
Mof_H 	H 	0.0688	0.2259	0.8666	-0.067
Mof_H 	H 	0.1343	0.2831	0.9276	0.426
Mof_O 	O 	0.03066	0.68761	0.35591	-0.38
Mof_O 	O 	0.03121	0.6517	0.39149	-0.379
Mof_C 	C 	0.04073	0.67559	0.38066	0.327
Mof_C 	C 	0.0645	0.69177	0.39659	-0.039
Mof_C 	C 	0.0718	0.72272	0.3916	-0.324
Mof_H 	H 	0.0606	0.733	0.3768	0.181
Mof_N 	N 	0.1255	0.8135	0.3944	0.111
Mof_C 	C 	0.1337	0.7765	0.3998	1.823
Mof_H 	H 	0.1455	0.7711	0.4166	-0.688
Mof_N 	N 	0.1362	0.802	0.3839	-0.495
Mof_C 	C 	0.0771	0.7171	0.384	0.161
Mof_H 	H 	0.0688	0.7259	0.3666	-0.068
Mof_H 	H 	0.1343	0.7831	0.4276	0.426
Mof_O 	O 	0.46934	0.35591	0.18761	-0.38
Mof_O 	O 	0.46879	0.39149	0.1517	-0.379
Mof_C 	C 	0.45927	0.38066	0.17559	0.327
Mof_C 	C 	0.4355	0.39659	0.19177	-0.039
Mof_C 	C 	0.4282	0.3916	0.22272	-0.324
Mof_H 	H 	0.4394	0.3768	0.233	0.181
Mof_N 	N 	0.3745	0.3944	0.3135	0.111
Mof_C 	C 	0.3663	0.3998	0.2765	1.823
Mof_H 	H 	0.3545	0.4166	0.2711	-0.688
Mof_N 	N 	0.3638	0.3839	0.302	-0.494
Mof_C 	C 	0.4229	0.384	0.2171	0.161
Mof_H 	H 	0.4312	0.3666	0.2259	-0.068
Mof_H 	H 	0.3657	0.4276	0.2831	0.426
Mof_O 	O 	0.46934	0.85591	0.68761	-0.38
Mof_O 	O 	0.46879	0.89149	0.6517	-0.379
Mof_C 	C 	0.45927	0.88066	0.67559	0.327
Mof_C 	C 	0.4355	0.89659	0.69177	-0.039
Mof_C 	C 	0.4282	0.8916	0.72272	-0.323
Mof_H 	H 	0.4394	0.8768	0.733	0.181
Mof_N 	N 	0.3745	0.8944	0.8135	0.111
Mof_C 	C 	0.3663	0.8998	0.7765	1.823
Mof_H 	H 	0.3545	0.9166	0.7711	-0.687
Mof_N 	N 	0.3638	0.8839	0.802	-0.495
Mof_C 	C 	0.4229	0.884	0.7171	0.16
Mof_H 	H 	0.4312	0.8666	0.7259	-0.067
Mof_H 	H 	0.3657	0.9276	0.7831	0.426
Mof_O 	O 	0.96934	0.35591	0.68761	-0.377
Mof_O 	O 	0.96879	0.39149	0.6517	-0.377
Mof_C 	C 	0.95927	0.38066	0.67559	0.327
Mof_C 	C 	0.9355	0.39659	0.69177	-0.038
Mof_C 	C 	0.9282	0.3916	0.72272	-0.323
Mof_H 	H 	0.9394	0.3768	0.733	0.182
Mof_N 	N 	0.8745	0.3944	0.8135	0.111
Mof_C 	C 	0.8663	0.3998	0.7765	1.823
Mof_H 	H 	0.8545	0.4166	0.7711	-0.688
Mof_N 	N 	0.8638	0.3839	0.802	-0.495
Mof_C 	C 	0.9229	0.384	0.7171	0.16
Mof_H 	H 	0.9312	0.3666	0.7259	-0.067
Mof_H 	H 	0.8657	0.4276	0.7831	0.426
Mof_O 	O 	0.96934	0.85591	0.18761	-0.377
Mof_O 	O 	0.96879	0.89149	0.1517	-0.377
Mof_C 	C 	0.95927	0.88066	0.17559	0.327
Mof_C 	C 	0.9355	0.89659	0.19177	-0.038
Mof_C 	C 	0.9282	0.8916	0.22272	-0.323
Mof_H 	H 	0.9394	0.8768	0.233	0.181
Mof_N 	N 	0.8745	0.8944	0.3135	0.111
Mof_C 	C 	0.8663	0.8998	0.2765	1.823
Mof_H 	H 	0.8545	0.9166	0.2711	-0.687
Mof_N 	N 	0.8638	0.8839	0.302	-0.494
Mof_C 	C 	0.9229	0.884	0.2171	0.16
Mof_H 	H 	0.9312	0.8666	0.2259	-0.067
Mof_H 	H 	0.8657	0.9276	0.2831	0.426
Mof_O 	O 	0.53066	0.64409	0.18761	-0.38
Mof_O 	O 	0.53121	0.60851	0.1517	-0.379
Mof_C 	C 	0.54073	0.61934	0.17559	0.327
Mof_C 	C 	0.5645	0.60341	0.19177	-0.039
Mof_C 	C 	0.5718	0.6084	0.22272	-0.324
Mof_H 	H 	0.5606	0.6232	0.233	0.181
Mof_N 	N 	0.6255	0.6056	0.3135	0.111
Mof_C 	C 	0.6337	0.6002	0.2765	1.823
Mof_H 	H 	0.6455	0.5834	0.2711	-0.688
Mof_N 	N 	0.6362	0.6161	0.302	-0.494
Mof_C 	C 	0.5771	0.616	0.2171	0.161
Mof_H 	H 	0.5688	0.6334	0.2259	-0.068
Mof_H 	H 	0.6343	0.5724	0.2831	0.426
Mof_O 	O 	0.53066	0.14409	0.68761	-0.38
Mof_O 	O 	0.53121	0.10851	0.6517	-0.379
Mof_C 	C 	0.54073	0.11934	0.67559	0.327
Mof_C 	C 	0.5645	0.10341	0.69177	-0.039
Mof_C 	C 	0.5718	0.1084	0.72272	-0.324
Mof_H 	H 	0.5606	0.1232	0.733	0.181
Mof_N 	N 	0.6255	0.1056	0.8135	0.111
Mof_C 	C 	0.6337	0.1002	0.7765	1.823
Mof_H 	H 	0.6455	0.0834	0.7711	-0.688
Mof_N 	N 	0.6362	0.1161	0.802	-0.495
Mof_C 	C 	0.5771	0.116	0.7171	0.161
Mof_H 	H 	0.5688	0.1334	0.7259	-0.068
Mof_H 	H 	0.6343	0.0724	0.7831	0.425
Mof_O 	O 	0.03066	0.64409	0.68761	-0.38
Mof_O 	O 	0.03121	0.60851	0.6517	-0.379
Mof_C 	C 	0.04073	0.61934	0.67559	0.327
Mof_C 	C 	0.0645	0.60341	0.69177	-0.039
Mof_C 	C 	0.0718	0.6084	0.72272	-0.324
Mof_H 	H 	0.0606	0.6232	0.733	0.181
Mof_N 	N 	0.1255	0.6056	0.8135	0.111
Mof_C 	C 	0.1337	0.6002	0.7765	1.823
Mof_H 	H 	0.1455	0.5834	0.7711	-0.688
Mof_N 	N 	0.1362	0.6161	0.802	-0.495
Mof_C 	C 	0.0771	0.616	0.7171	0.161
Mof_H 	H 	0.0688	0.6334	0.7259	-0.068
Mof_H 	H 	0.1343	0.5724	0.7831	0.426
Mof_O 	O 	0.03066	0.14409	0.18761	-0.38
Mof_O 	O 	0.03121	0.10851	0.1517	-0.38
Mof_C 	C 	0.04073	0.11934	0.17559	0.327
Mof_C 	C 	0.0645	0.10341	0.19177	-0.04
Mof_C 	C 	0.0718	0.1084	0.22272	-0.325
Mof_H 	H 	0.0606	0.1232	0.233	0.181
Mof_N 	N 	0.1255	0.1056	0.3135	0.111
Mof_C 	C 	0.1337	0.1002	0.2765	1.823
Mof_H 	H 	0.1455	0.0834	0.2711	-0.688
Mof_N 	N 	0.1362	0.1161	0.302	-0.494
Mof_C 	C 	0.0771	0.116	0.2171	0.161
Mof_H 	H 	0.0688	0.1334	0.2259	-0.068
Mof_H 	H 	0.1343	0.0724	0.2831	0.425
Mof_O 	O 	0.46934	0.64409	0.81239	-0.38
Mof_O 	O 	0.46879	0.60851	0.8483	-0.379
Mof_C 	C 	0.45927	0.61934	0.82441	0.327
Mof_C 	C 	0.4355	0.60341	0.80823	-0.039
Mof_C 	C 	0.4282	0.6084	0.77728	-0.324
Mof_H 	H 	0.4394	0.6232	0.767	0.181
Mof_N 	N 	0.3745	0.6056	0.6865	0.111
Mof_C 	C 	0.3663	0.6002	0.7235	1.823
Mof_H 	H 	0.3545	0.5834	0.7289	-0.688
Mof_N 	N 	0.3638	0.6161	0.698	-0.494
Mof_C 	C 	0.4229	0.616	0.7829	0.161
Mof_H 	H 	0.4312	0.6334	0.7741	-0.068
Mof_H 	H 	0.3657	0.5724	0.7169	0.426
Mof_O 	O 	0.46934	0.14409	0.31239	-0.38
Mof_O 	O 	0.46879	0.10851	0.3483	-0.379
Mof_C 	C 	0.45927	0.11934	0.32441	0.327
Mof_C 	C 	0.4355	0.10341	0.30823	-0.039
Mof_C 	C 	0.4282	0.1084	0.27728	-0.324
Mof_H 	H 	0.4394	0.1232	0.267	0.181
Mof_N 	N 	0.3745	0.1056	0.1865	0.111
Mof_C 	C 	0.3663	0.1002	0.2235	1.823
Mof_H 	H 	0.3545	0.0834	0.2289	-0.688
Mof_N 	N 	0.3638	0.1161	0.198	-0.494
Mof_C 	C 	0.4229	0.116	0.2829	0.161
Mof_H 	H 	0.4312	0.1334	0.2741	-0.068
Mof_H 	H 	0.3657	0.0724	0.2169	0.425
Mof_O 	O 	0.96934	0.64409	0.31239	-0.377
Mof_O 	O 	0.96879	0.60851	0.3483	-0.377
Mof_C 	C 	0.95927	0.61934	0.32441	0.327
Mof_C 	C 	0.9355	0.60341	0.30823	-0.038
Mof_C 	C 	0.9282	0.6084	0.27728	-0.323
Mof_H 	H 	0.9394	0.6232	0.267	0.182
Mof_N 	N 	0.8745	0.6056	0.1865	0.111
Mof_C 	C 	0.8663	0.6002	0.2235	1.823
Mof_H 	H 	0.8545	0.5834	0.2289	-0.688
Mof_N 	N 	0.8638	0.6161	0.198	-0.494
Mof_C 	C 	0.9229	0.616	0.2829	0.16
Mof_H 	H 	0.9312	0.6334	0.2741	-0.067
Mof_H 	H 	0.8657	0.5724	0.2169	0.426
Mof_O 	O 	0.96934	0.14409	0.81239	-0.378
Mof_O 	O 	0.96879	0.10851	0.8483	-0.378
Mof_C 	C 	0.95927	0.11934	0.82441	0.327
Mof_C 	C 	0.9355	0.10341	0.80823	-0.039
Mof_C 	C 	0.9282	0.1084	0.77728	-0.324
Mof_H 	H 	0.9394	0.1232	0.767	0.182
Mof_N 	N 	0.8745	0.1056	0.6865	0.111
Mof_C 	C 	0.8663	0.1002	0.7235	1.823
Mof_H 	H 	0.8545	0.0834	0.7289	-0.688
Mof_N 	N 	0.8638	0.1161	0.698	-0.495
Mof_C 	C 	0.9229	0.116	0.7829	0.161
Mof_H 	H 	0.9312	0.1334	0.7741	-0.068
Mof_H 	H 	0.8657	0.0724	0.7169	0.425
Mof_O 	O 	0.53066	0.35591	0.81239	-0.38
Mof_O 	O 	0.53121	0.39149	0.8483	-0.379
Mof_C 	C 	0.54073	0.38066	0.82441	0.327
Mof_C 	C 	0.5645	0.39659	0.80823	-0.039
Mof_C 	C 	0.5718	0.3916	0.77728	-0.324
Mof_H 	H 	0.5606	0.3768	0.767	0.181
Mof_N 	N 	0.6255	0.3944	0.6865	0.111
Mof_C 	C 	0.6337	0.3998	0.7235	1.823
Mof_H 	H 	0.6455	0.4166	0.7289	-0.688
Mof_N 	N 	0.6362	0.3839	0.698	-0.494
Mof_C 	C 	0.5771	0.384	0.7829	0.161
Mof_H 	H 	0.5688	0.3666	0.7741	-0.068
Mof_H 	H 	0.6343	0.4276	0.7169	0.426
Mof_O 	O 	0.53066	0.85591	0.31239	-0.38
Mof_O 	O 	0.53121	0.89149	0.3483	-0.379
Mof_C 	C 	0.54073	0.88066	0.32441	0.327
Mof_C 	C 	0.5645	0.89659	0.30823	-0.039
Mof_C 	C 	0.5718	0.8916	0.27728	-0.323
Mof_H 	H 	0.5606	0.8768	0.267	0.181
Mof_N 	N 	0.6255	0.8944	0.1865	0.111
Mof_C 	C 	0.6337	0.8998	0.2235	1.823
Mof_H 	H 	0.6455	0.9166	0.2289	-0.687
Mof_N 	N 	0.6362	0.8839	0.198	-0.494
Mof_C 	C 	0.5771	0.884	0.2829	0.16
Mof_H 	H 	0.5688	0.8666	0.2741	-0.067
Mof_H 	H 	0.6343	0.9276	0.2169	0.426
Mof_O 	O 	0.03066	0.35591	0.31239	-0.38
Mof_O 	O 	0.03121	0.39149	0.3483	-0.379
Mof_C 	C 	0.04073	0.38066	0.32441	0.327
Mof_C 	C 	0.0645	0.39659	0.30823	-0.039
Mof_C 	C 	0.0718	0.3916	0.27728	-0.324
Mof_H 	H 	0.0606	0.3768	0.267	0.181
Mof_N 	N 	0.1255	0.3944	0.1865	0.111
Mof_C 	C 	0.1337	0.3998	0.2235	1.823
Mof_H 	H 	0.1455	0.4166	0.2289	-0.688
Mof_N 	N 	0.1362	0.3839	0.198	-0.494
Mof_C 	C 	0.0771	0.384	0.2829	0.161
Mof_H 	H 	0.0688	0.3666	0.2741	-0.068
Mof_H 	H 	0.1343	0.4276	0.2169	0.425
Mof_O 	O 	0.03066	0.85591	0.81239	-0.38
Mof_O 	O 	0.03121	0.89149	0.8483	-0.379
Mof_C 	C 	0.04073	0.88066	0.82441	0.327
Mof_C 	C 	0.0645	0.89659	0.80823	-0.039
Mof_C 	C 	0.0718	0.8916	0.77728	-0.324
Mof_H 	H 	0.0606	0.8768	0.767	0.181
Mof_N 	N 	0.1255	0.8944	0.6865	0.111
Mof_C 	C 	0.1337	0.8998	0.7235	1.823
Mof_H 	H 	0.1455	0.9166	0.7289	-0.687
Mof_N 	N 	0.1362	0.8839	0.698	-0.494
Mof_C 	C 	0.0771	0.884	0.7829	0.16
Mof_H 	H 	0.0688	0.8666	0.7741	-0.068
Mof_H 	H 	0.1343	0.9276	0.7169	0.426
Mof_O 	O 	0.35591	0.81239	0.53066	-0.38
Mof_O 	O 	0.39149	0.8483	0.53121	-0.379
Mof_C 	C 	0.38066	0.82441	0.54073	0.327
Mof_C 	C 	0.39659	0.80823	0.5645	-0.039
Mof_C 	C 	0.3916	0.77728	0.5718	-0.324
Mof_H 	H 	0.3768	0.767	0.5606	0.181
Mof_N 	N 	0.3944	0.6865	0.6255	0.111
Mof_C 	C 	0.3998	0.7235	0.6337	1.823
Mof_H 	H 	0.4166	0.7289	0.6455	-0.688
Mof_N 	N 	0.3839	0.698	0.6362	-0.494
Mof_C 	C 	0.384	0.7829	0.5771	0.161
Mof_H 	H 	0.3666	0.7741	0.5688	-0.068
Mof_H 	H 	0.4276	0.7169	0.6343	0.426
Mof_O 	O 	0.35591	0.31239	0.03066	-0.38
Mof_O 	O 	0.39149	0.3483	0.03121	-0.379
Mof_C 	C 	0.38066	0.32441	0.04073	0.327
Mof_C 	C 	0.39659	0.30823	0.0645	-0.039
Mof_C 	C 	0.3916	0.27728	0.0718	-0.324
Mof_H 	H 	0.3768	0.267	0.0606	0.181
Mof_N 	N 	0.3944	0.1865	0.1255	0.111
Mof_C 	C 	0.3998	0.2235	0.1337	1.823
Mof_H 	H 	0.4166	0.2289	0.1455	-0.688
Mof_N 	N 	0.3839	0.198	0.1362	-0.494
Mof_C 	C 	0.384	0.2829	0.0771	0.161
Mof_H 	H 	0.3666	0.2741	0.0688	-0.068
Mof_H 	H 	0.4276	0.2169	0.1343	0.425
Mof_O 	O 	0.85591	0.81239	0.03066	-0.38
Mof_O 	O 	0.89149	0.8483	0.03121	-0.379
Mof_C 	C 	0.88066	0.82441	0.04073	0.327
Mof_C 	C 	0.89659	0.80823	0.0645	-0.039
Mof_C 	C 	0.8916	0.77728	0.0718	-0.324
Mof_H 	H 	0.8768	0.767	0.0606	0.181
Mof_N 	N 	0.8944	0.6865	0.1255	0.111
Mof_C 	C 	0.8998	0.7235	0.1337	1.823
Mof_H 	H 	0.9166	0.7289	0.1455	-0.687
Mof_N 	N 	0.8839	0.698	0.1362	-0.494
Mof_C 	C 	0.884	0.7829	0.0771	0.16
Mof_H 	H 	0.8666	0.7741	0.0688	-0.068
Mof_H 	H 	0.9276	0.7169	0.1343	0.426
Mof_O 	O 	0.85591	0.31239	0.53066	-0.38
Mof_O 	O 	0.89149	0.3483	0.53121	-0.379
Mof_C 	C 	0.88066	0.32441	0.54073	0.327
Mof_C 	C 	0.89659	0.30823	0.5645	-0.039
Mof_C 	C 	0.8916	0.27728	0.5718	-0.323
Mof_H 	H 	0.8768	0.267	0.5606	0.181
Mof_N 	N 	0.8944	0.1865	0.6255	0.111
Mof_C 	C 	0.8998	0.2235	0.6337	1.823
Mof_H 	H 	0.9166	0.2289	0.6455	-0.687
Mof_N 	N 	0.8839	0.198	0.6362	-0.494
Mof_C 	C 	0.884	0.2829	0.5771	0.16
Mof_H 	H 	0.8666	0.2741	0.5688	-0.067
Mof_H 	H 	0.9276	0.2169	0.6343	0.426
Mof_O 	O 	0.64409	0.81239	0.46934	-0.38
Mof_O 	O 	0.60851	0.8483	0.46879	-0.379
Mof_C 	C 	0.61934	0.82441	0.45927	0.327
Mof_C 	C 	0.60341	0.80823	0.4355	-0.039
Mof_C 	C 	0.6084	0.77728	0.4282	-0.324
Mof_H 	H 	0.6232	0.767	0.4394	0.181
Mof_N 	N 	0.6056	0.6865	0.3745	0.111
Mof_C 	C 	0.6002	0.7235	0.3663	1.823
Mof_H 	H 	0.5834	0.7289	0.3545	-0.688
Mof_N 	N 	0.6161	0.698	0.3638	-0.494
Mof_C 	C 	0.616	0.7829	0.4229	0.161
Mof_H 	H 	0.6334	0.7741	0.4312	-0.068
Mof_H 	H 	0.5724	0.7169	0.3657	0.426
Mof_O 	O 	0.64409	0.31239	0.96934	-0.377
Mof_O 	O 	0.60851	0.3483	0.96879	-0.377
Mof_C 	C 	0.61934	0.32441	0.95927	0.327
Mof_C 	C 	0.60341	0.30823	0.9355	-0.038
Mof_C 	C 	0.6084	0.27728	0.9282	-0.323
Mof_H 	H 	0.6232	0.267	0.9394	0.182
Mof_N 	N 	0.6056	0.1865	0.8745	0.111
Mof_C 	C 	0.6002	0.2235	0.8663	1.823
Mof_H 	H 	0.5834	0.2289	0.8545	-0.688
Mof_N 	N 	0.6161	0.198	0.8638	-0.494
Mof_C 	C 	0.616	0.2829	0.9229	0.16
Mof_H 	H 	0.6334	0.2741	0.9312	-0.067
Mof_H 	H 	0.5724	0.2169	0.8657	0.426
Mof_O 	O 	0.14409	0.81239	0.96934	-0.378
Mof_O 	O 	0.10851	0.8483	0.96879	-0.378
Mof_C 	C 	0.11934	0.82441	0.95927	0.327
Mof_C 	C 	0.10341	0.80823	0.9355	-0.039
Mof_C 	C 	0.1084	0.77728	0.9282	-0.324
Mof_H 	H 	0.1232	0.767	0.9394	0.182
Mof_N 	N 	0.1056	0.6865	0.8745	0.111
Mof_C 	C 	0.1002	0.7235	0.8663	1.823
Mof_H 	H 	0.0834	0.7289	0.8545	-0.688
Mof_N 	N 	0.1161	0.698	0.8638	-0.495
Mof_C 	C 	0.116	0.7829	0.9229	0.161
Mof_H 	H 	0.1334	0.7741	0.9312	-0.068
Mof_H 	H 	0.0724	0.7169	0.8657	0.425
Mof_O 	O 	0.14409	0.31239	0.46934	-0.38
Mof_O 	O 	0.10851	0.3483	0.46879	-0.379
Mof_C 	C 	0.11934	0.32441	0.45927	0.327
Mof_C 	C 	0.10341	0.30823	0.4355	-0.039
Mof_C 	C 	0.1084	0.27728	0.4282	-0.324
Mof_H 	H 	0.1232	0.267	0.4394	0.181
Mof_N 	N 	0.1056	0.1865	0.3745	0.111
Mof_C 	C 	0.1002	0.2235	0.3663	1.823
Mof_H 	H 	0.0834	0.2289	0.3545	-0.688
Mof_N 	N 	0.1161	0.198	0.3638	-0.494
Mof_C 	C 	0.116	0.2829	0.4229	0.161
Mof_H 	H 	0.1334	0.2741	0.4312	-0.068
Mof_H 	H 	0.0724	0.2169	0.3657	0.425
Mof_O 	O 	0.64409	0.18761	0.53066	-0.38
Mof_O 	O 	0.60851	0.1517	0.53121	-0.379
Mof_C 	C 	0.61934	0.17559	0.54073	0.327
Mof_C 	C 	0.60341	0.19177	0.5645	-0.039
Mof_C 	C 	0.6084	0.22272	0.5718	-0.324
Mof_H 	H 	0.6232	0.233	0.5606	0.181
Mof_N 	N 	0.6056	0.3135	0.6255	0.111
Mof_C 	C 	0.6002	0.2765	0.6337	1.823
Mof_H 	H 	0.5834	0.2711	0.6455	-0.688
Mof_N 	N 	0.6161	0.302	0.6362	-0.494
Mof_C 	C 	0.616	0.2171	0.5771	0.161
Mof_H 	H 	0.6334	0.2259	0.5688	-0.068
Mof_H 	H 	0.5724	0.2831	0.6343	0.426
Mof_O 	O 	0.64409	0.68761	0.03066	-0.38
Mof_O 	O 	0.60851	0.6517	0.03121	-0.379
Mof_C 	C 	0.61934	0.67559	0.04073	0.327
Mof_C 	C 	0.60341	0.69177	0.0645	-0.039
Mof_C 	C 	0.6084	0.72272	0.0718	-0.324
Mof_H 	H 	0.6232	0.733	0.0606	0.181
Mof_N 	N 	0.6056	0.8135	0.1255	0.111
Mof_C 	C 	0.6002	0.7765	0.1337	1.823
Mof_H 	H 	0.5834	0.7711	0.1455	-0.688
Mof_N 	N 	0.6161	0.802	0.1362	-0.495
Mof_C 	C 	0.616	0.7171	0.0771	0.161
Mof_H 	H 	0.6334	0.7259	0.0688	-0.068
Mof_H 	H 	0.5724	0.7831	0.1343	0.426
Mof_O 	O 	0.14409	0.18761	0.03066	-0.38
Mof_O 	O 	0.10851	0.1517	0.03121	-0.38
Mof_C 	C 	0.11934	0.17559	0.04073	0.327
Mof_C 	C 	0.10341	0.19177	0.0645	-0.04
Mof_C 	C 	0.1084	0.22272	0.0718	-0.325
Mof_H 	H 	0.1232	0.233	0.0606	0.181
Mof_N 	N 	0.1056	0.3135	0.1255	0.111
Mof_C 	C 	0.1002	0.2765	0.1337	1.823
Mof_H 	H 	0.0834	0.2711	0.1455	-0.688
Mof_N 	N 	0.1161	0.302	0.1362	-0.494
Mof_C 	C 	0.116	0.2171	0.0771	0.161
Mof_H 	H 	0.1334	0.2259	0.0688	-0.068
Mof_H 	H 	0.0724	0.2831	0.1343	0.425
Mof_O 	O 	0.14409	0.68761	0.53066	-0.38
Mof_O 	O 	0.10851	0.6517	0.53121	-0.379
Mof_C 	C 	0.11934	0.67559	0.54073	0.327
Mof_C 	C 	0.10341	0.69177	0.5645	-0.039
Mof_C 	C 	0.1084	0.72272	0.5718	-0.324
Mof_H 	H 	0.1232	0.733	0.5606	0.181
Mof_N 	N 	0.1056	0.8135	0.6255	0.111
Mof_C 	C 	0.1002	0.7765	0.6337	1.823
Mof_H 	H 	0.0834	0.7711	0.6455	-0.688
Mof_N 	N 	0.1161	0.802	0.6362	-0.495
Mof_C 	C 	0.116	0.7171	0.5771	0.161
Mof_H 	H 	0.1334	0.7259	0.5688	-0.068
Mof_H 	H 	0.0724	0.7831	0.6343	0.425
Mof_O 	O 	0.35591	0.18761	0.46934	-0.38
Mof_O 	O 	0.39149	0.1517	0.46879	-0.379
Mof_C 	C 	0.38066	0.17559	0.45927	0.327
Mof_C 	C 	0.39659	0.19177	0.4355	-0.039
Mof_C 	C 	0.3916	0.22272	0.4282	-0.324
Mof_H 	H 	0.3768	0.233	0.4394	0.181
Mof_N 	N 	0.3944	0.3135	0.3745	0.111
Mof_C 	C 	0.3998	0.2765	0.3663	1.823
Mof_H 	H 	0.4166	0.2711	0.3545	-0.688
Mof_N 	N 	0.3839	0.302	0.3638	-0.494
Mof_C 	C 	0.384	0.2171	0.4229	0.161
Mof_H 	H 	0.3666	0.2259	0.4312	-0.068
Mof_H 	H 	0.4276	0.2831	0.3657	0.426
Mof_O 	O 	0.35591	0.68761	0.96934	-0.377
Mof_O 	O 	0.39149	0.6517	0.96879	-0.377
Mof_C 	C 	0.38066	0.67559	0.95927	0.327
Mof_C 	C 	0.39659	0.69177	0.9355	-0.038
Mof_C 	C 	0.3916	0.72272	0.9282	-0.323
Mof_H 	H 	0.3768	0.733	0.9394	0.182
Mof_N 	N 	0.3944	0.8135	0.8745	0.111
Mof_C 	C 	0.3998	0.7765	0.8663	1.823
Mof_H 	H 	0.4166	0.7711	0.8545	-0.688
Mof_N 	N 	0.3839	0.802	0.8638	-0.495
Mof_C 	C 	0.384	0.7171	0.9229	0.16
Mof_H 	H 	0.3666	0.7259	0.9312	-0.067
Mof_H 	H 	0.4276	0.7831	0.8657	0.426
Mof_O 	O 	0.85591	0.18761	0.96934	-0.377
Mof_O 	O 	0.89149	0.1517	0.96879	-0.377
Mof_C 	C 	0.88066	0.17559	0.95927	0.327
Mof_C 	C 	0.89659	0.19177	0.9355	-0.038
Mof_C 	C 	0.8916	0.22272	0.9282	-0.323
Mof_H 	H 	0.8768	0.233	0.9394	0.181
Mof_N 	N 	0.8944	0.3135	0.8745	0.111
Mof_C 	C 	0.8998	0.2765	0.8663	1.823
Mof_H 	H 	0.9166	0.2711	0.8545	-0.687
Mof_N 	N 	0.8839	0.302	0.8638	-0.494
Mof_C 	C 	0.884	0.2171	0.9229	0.16
Mof_H 	H 	0.8666	0.2259	0.9312	-0.067
Mof_H 	H 	0.9276	0.2831	0.8657	0.426
Mof_O 	O 	0.85591	0.68761	0.46934	-0.38
Mof_O 	O 	0.89149	0.6517	0.46879	-0.379
Mof_C 	C 	0.88066	0.67559	0.45927	0.327
Mof_C 	C 	0.89659	0.69177	0.4355	-0.039
Mof_C 	C 	0.8916	0.72272	0.4282	-0.323
Mof_H 	H 	0.8768	0.733	0.4394	0.181
Mof_N 	N 	0.8944	0.8135	0.3745	0.111
Mof_C 	C 	0.8998	0.7765	0.3663	1.823
Mof_H 	H 	0.9166	0.7711	0.3545	-0.687
Mof_N 	N 	0.8839	0.802	0.3638	-0.495
Mof_C 	C 	0.884	0.7171	0.4229	0.16
Mof_H 	H 	0.8666	0.7259	0.4312	-0.067
Mof_H 	H 	0.9276	0.7831	0.3657	0.426
Mof_O 	O 	0.81239	0.46934	0.64409	-0.38
Mof_O 	O 	0.8483	0.46879	0.60851	-0.379
Mof_C 	C 	0.82441	0.45927	0.61934	0.327
Mof_C 	C 	0.80823	0.4355	0.60341	-0.039
Mof_C 	C 	0.77728	0.4282	0.6084	-0.324
Mof_H 	H 	0.767	0.4394	0.6232	0.181
Mof_N 	N 	0.6865	0.3745	0.6056	0.111
Mof_C 	C 	0.7235	0.3663	0.6002	1.823
Mof_H 	H 	0.7289	0.3545	0.5834	-0.688
Mof_N 	N 	0.698	0.3638	0.6161	-0.494
Mof_C 	C 	0.7829	0.4229	0.616	0.161
Mof_H 	H 	0.7741	0.4312	0.6334	-0.068
Mof_H 	H 	0.7169	0.3657	0.5724	0.426
Mof_O 	O 	0.81239	0.96934	0.14409	-0.378
Mof_O 	O 	0.8483	0.96879	0.10851	-0.378
Mof_C 	C 	0.82441	0.95927	0.11934	0.327
Mof_C 	C 	0.80823	0.9355	0.10341	-0.039
Mof_C 	C 	0.77728	0.9282	0.1084	-0.324
Mof_H 	H 	0.767	0.9394	0.1232	0.182
Mof_N 	N 	0.6865	0.8745	0.1056	0.111
Mof_C 	C 	0.7235	0.8663	0.1002	1.823
Mof_H 	H 	0.7289	0.8545	0.0834	-0.688
Mof_N 	N 	0.698	0.8638	0.1161	-0.495
Mof_C 	C 	0.7829	0.9229	0.116	0.161
Mof_H 	H 	0.7741	0.9312	0.1334	-0.068
Mof_H 	H 	0.7169	0.8657	0.0724	0.425
Mof_O 	O 	0.31239	0.46934	0.14409	-0.38
Mof_O 	O 	0.3483	0.46879	0.10851	-0.379
Mof_C 	C 	0.32441	0.45927	0.11934	0.327
Mof_C 	C 	0.30823	0.4355	0.10341	-0.039
Mof_C 	C 	0.27728	0.4282	0.1084	-0.324
Mof_H 	H 	0.267	0.4394	0.1232	0.181
Mof_N 	N 	0.1865	0.3745	0.1056	0.111
Mof_C 	C 	0.2235	0.3663	0.1002	1.823
Mof_H 	H 	0.2289	0.3545	0.0834	-0.688
Mof_N 	N 	0.198	0.3638	0.1161	-0.494
Mof_C 	C 	0.2829	0.4229	0.116	0.161
Mof_H 	H 	0.2741	0.4312	0.1334	-0.068
Mof_H 	H 	0.2169	0.3657	0.0724	0.425
Mof_O 	O 	0.31239	0.96934	0.64409	-0.377
Mof_O 	O 	0.3483	0.96879	0.60851	-0.377
Mof_C 	C 	0.32441	0.95927	0.61934	0.327
Mof_C 	C 	0.30823	0.9355	0.60341	-0.038
Mof_C 	C 	0.27728	0.9282	0.6084	-0.323
Mof_H 	H 	0.267	0.9394	0.6232	0.182
Mof_N 	N 	0.1865	0.8745	0.6056	0.111
Mof_C 	C 	0.2235	0.8663	0.6002	1.823
Mof_H 	H 	0.2289	0.8545	0.5834	-0.688
Mof_N 	N 	0.198	0.8638	0.6161	-0.494
Mof_C 	C 	0.2829	0.9229	0.616	0.16
Mof_H 	H 	0.2741	0.9312	0.6334	-0.067
Mof_H 	H 	0.2169	0.8657	0.5724	0.426
Mof_O 	O 	0.81239	0.53066	0.35591	-0.38
Mof_O 	O 	0.8483	0.53121	0.39149	-0.379
Mof_C 	C 	0.82441	0.54073	0.38066	0.327
Mof_C 	C 	0.80823	0.5645	0.39659	-0.039
Mof_C 	C 	0.77728	0.5718	0.3916	-0.324
Mof_H 	H 	0.767	0.5606	0.3768	0.181
Mof_N 	N 	0.6865	0.6255	0.3944	0.111
Mof_C 	C 	0.7235	0.6337	0.3998	1.823
Mof_H 	H 	0.7289	0.6455	0.4166	-0.688
Mof_N 	N 	0.698	0.6362	0.3839	-0.494
Mof_C 	C 	0.7829	0.5771	0.384	0.161
Mof_H 	H 	0.7741	0.5688	0.3666	-0.068
Mof_H 	H 	0.7169	0.6343	0.4276	0.426
Mof_O 	O 	0.81239	0.03066	0.85591	-0.38
Mof_O 	O 	0.8483	0.03121	0.89149	-0.379
Mof_C 	C 	0.82441	0.04073	0.88066	0.327
Mof_C 	C 	0.80823	0.0645	0.89659	-0.039
Mof_C 	C 	0.77728	0.0718	0.8916	-0.324
Mof_H 	H 	0.767	0.0606	0.8768	0.181
Mof_N 	N 	0.6865	0.1255	0.8944	0.111
Mof_C 	C 	0.7235	0.1337	0.8998	1.823
Mof_H 	H 	0.7289	0.1455	0.9166	-0.687
Mof_N 	N 	0.698	0.1362	0.8839	-0.494
Mof_C 	C 	0.7829	0.0771	0.884	0.16
Mof_H 	H 	0.7741	0.0688	0.8666	-0.068
Mof_H 	H 	0.7169	0.1343	0.9276	0.426
Mof_O 	O 	0.31239	0.53066	0.85591	-0.38
Mof_O 	O 	0.3483	0.53121	0.89149	-0.379
Mof_C 	C 	0.32441	0.54073	0.88066	0.327
Mof_C 	C 	0.30823	0.5645	0.89659	-0.039
Mof_C 	C 	0.27728	0.5718	0.8916	-0.323
Mof_H 	H 	0.267	0.5606	0.8768	0.181
Mof_N 	N 	0.1865	0.6255	0.8944	0.111
Mof_C 	C 	0.2235	0.6337	0.8998	1.823
Mof_H 	H 	0.2289	0.6455	0.9166	-0.687
Mof_N 	N 	0.198	0.6362	0.8839	-0.494
Mof_C 	C 	0.2829	0.5771	0.884	0.16
Mof_H 	H 	0.2741	0.5688	0.8666	-0.067
Mof_H 	H 	0.2169	0.6343	0.9276	0.426
Mof_O 	O 	0.31239	0.03066	0.35591	-0.38
Mof_O 	O 	0.3483	0.03121	0.39149	-0.379
Mof_C 	C 	0.32441	0.04073	0.38066	0.327
Mof_C 	C 	0.30823	0.0645	0.39659	-0.039
Mof_C 	C 	0.27728	0.0718	0.3916	-0.324
Mof_H 	H 	0.267	0.0606	0.3768	0.181
Mof_N 	N 	0.1865	0.1255	0.3944	0.111
Mof_C 	C 	0.2235	0.1337	0.3998	1.823
Mof_H 	H 	0.2289	0.1455	0.4166	-0.688
Mof_N 	N 	0.198	0.1362	0.3839	-0.494
Mof_C 	C 	0.2829	0.0771	0.384	0.161
Mof_H 	H 	0.2741	0.0688	0.3666	-0.068
Mof_H 	H 	0.2169	0.1343	0.4276	0.425
Mof_O 	O 	0.18761	0.46934	0.35591	-0.38
Mof_O 	O 	0.1517	0.46879	0.39149	-0.379
Mof_C 	C 	0.17559	0.45927	0.38066	0.327
Mof_C 	C 	0.19177	0.4355	0.39659	-0.039
Mof_C 	C 	0.22272	0.4282	0.3916	-0.324
Mof_H 	H 	0.233	0.4394	0.3768	0.181
Mof_N 	N 	0.3135	0.3745	0.3944	0.111
Mof_C 	C 	0.2765	0.3663	0.3998	1.823
Mof_H 	H 	0.2711	0.3545	0.4166	-0.688
Mof_N 	N 	0.302	0.3638	0.3839	-0.494
Mof_C 	C 	0.2171	0.4229	0.384	0.161
Mof_H 	H 	0.2259	0.4312	0.3666	-0.068
Mof_H 	H 	0.2831	0.3657	0.4276	0.426
Mof_O 	O 	0.18761	0.96934	0.85591	-0.377
Mof_O 	O 	0.1517	0.96879	0.89149	-0.377
Mof_C 	C 	0.17559	0.95927	0.88066	0.327
Mof_C 	C 	0.19177	0.9355	0.89659	-0.038
Mof_C 	C 	0.22272	0.9282	0.8916	-0.323
Mof_H 	H 	0.233	0.9394	0.8768	0.181
Mof_N 	N 	0.3135	0.8745	0.8944	0.111
Mof_C 	C 	0.2765	0.8663	0.8998	1.823
Mof_H 	H 	0.2711	0.8545	0.9166	-0.687
Mof_N 	N 	0.302	0.8638	0.8839	-0.494
Mof_C 	C 	0.2171	0.9229	0.884	0.16
Mof_H 	H 	0.2259	0.9312	0.8666	-0.067
Mof_H 	H 	0.2831	0.8657	0.9276	0.426
Mof_O 	O 	0.68761	0.46934	0.85591	-0.38
Mof_O 	O 	0.6517	0.46879	0.89149	-0.379
Mof_C 	C 	0.67559	0.45927	0.88066	0.327
Mof_C 	C 	0.69177	0.4355	0.89659	-0.039
Mof_C 	C 	0.72272	0.4282	0.8916	-0.323
Mof_H 	H 	0.733	0.4394	0.8768	0.181
Mof_N 	N 	0.8135	0.3745	0.8944	0.111
Mof_C 	C 	0.7765	0.3663	0.8998	1.823
Mof_H 	H 	0.7711	0.3545	0.9166	-0.687
Mof_N 	N 	0.802	0.3638	0.8839	-0.495
Mof_C 	C 	0.7171	0.4229	0.884	0.16
Mof_H 	H 	0.7259	0.4312	0.8666	-0.067
Mof_H 	H 	0.7831	0.3657	0.9276	0.426
Mof_O 	O 	0.68761	0.96934	0.35591	-0.377
Mof_O 	O 	0.6517	0.96879	0.39149	-0.377
Mof_C 	C 	0.67559	0.95927	0.38066	0.327
Mof_C 	C 	0.69177	0.9355	0.39659	-0.038
Mof_C 	C 	0.72272	0.9282	0.3916	-0.323
Mof_H 	H 	0.733	0.9394	0.3768	0.182
Mof_N 	N 	0.8135	0.8745	0.3944	0.111
Mof_C 	C 	0.7765	0.8663	0.3998	1.823
Mof_H 	H 	0.7711	0.8545	0.4166	-0.688
Mof_N 	N 	0.802	0.8638	0.3839	-0.495
Mof_C 	C 	0.7171	0.9229	0.384	0.16
Mof_H 	H 	0.7259	0.9312	0.3666	-0.067
Mof_H 	H 	0.7831	0.8657	0.4276	0.426
Mof_O 	O 	0.18761	0.53066	0.64409	-0.38
Mof_O 	O 	0.1517	0.53121	0.60851	-0.379
Mof_C 	C 	0.17559	0.54073	0.61934	0.327
Mof_C 	C 	0.19177	0.5645	0.60341	-0.039
Mof_C 	C 	0.22272	0.5718	0.6084	-0.324
Mof_H 	H 	0.233	0.5606	0.6232	0.181
Mof_N 	N 	0.3135	0.6255	0.6056	0.111
Mof_C 	C 	0.2765	0.6337	0.6002	1.823
Mof_H 	H 	0.2711	0.6455	0.5834	-0.688
Mof_N 	N 	0.302	0.6362	0.6161	-0.494
Mof_C 	C 	0.2171	0.5771	0.616	0.161
Mof_H 	H 	0.2259	0.5688	0.6334	-0.068
Mof_H 	H 	0.2831	0.6343	0.5724	0.426
Mof_O 	O 	0.18761	0.03066	0.14409	-0.38
Mof_O 	O 	0.1517	0.03121	0.10851	-0.38
Mof_C 	C 	0.17559	0.04073	0.11934	0.327
Mof_C 	C 	0.19177	0.0645	0.10341	-0.04
Mof_C 	C 	0.22272	0.0718	0.1084	-0.325
Mof_H 	H 	0.233	0.0606	0.1232	0.181
Mof_N 	N 	0.3135	0.1255	0.1056	0.111
Mof_C 	C 	0.2765	0.1337	0.1002	1.823
Mof_H 	H 	0.2711	0.1455	0.0834	-0.688
Mof_N 	N 	0.302	0.1362	0.1161	-0.494
Mof_C 	C 	0.2171	0.0771	0.116	0.161
Mof_H 	H 	0.2259	0.0688	0.1334	-0.068
Mof_H 	H 	0.2831	0.1343	0.0724	0.425
Mof_O 	O 	0.68761	0.53066	0.14409	-0.38
Mof_O 	O 	0.6517	0.53121	0.10851	-0.379
Mof_C 	C 	0.67559	0.54073	0.11934	0.327
Mof_C 	C 	0.69177	0.5645	0.10341	-0.039
Mof_C 	C 	0.72272	0.5718	0.1084	-0.324
Mof_H 	H 	0.733	0.5606	0.1232	0.181
Mof_N 	N 	0.8135	0.6255	0.1056	0.111
Mof_C 	C 	0.7765	0.6337	0.1002	1.823
Mof_H 	H 	0.7711	0.6455	0.0834	-0.688
Mof_N 	N 	0.802	0.6362	0.1161	-0.495
Mof_C 	C 	0.7171	0.5771	0.116	0.161
Mof_H 	H 	0.7259	0.5688	0.1334	-0.068
Mof_H 	H 	0.7831	0.6343	0.0724	0.425
Mof_O 	O 	0.68761	0.03066	0.64409	-0.38
Mof_O 	O 	0.6517	0.03121	0.60851	-0.379
Mof_C 	C 	0.67559	0.04073	0.61934	0.327
Mof_C 	C 	0.69177	0.0645	0.60341	-0.039
Mof_C 	C 	0.72272	0.0718	0.6084	-0.324
Mof_H 	H 	0.733	0.0606	0.6232	0.181
Mof_N 	N 	0.8135	0.1255	0.6056	0.111
Mof_C 	C 	0.7765	0.1337	0.6002	1.823
Mof_H 	H 	0.7711	0.1455	0.5834	-0.688
Mof_N 	N 	0.802	0.1362	0.6161	-0.495
Mof_C 	C 	0.7171	0.0771	0.616	0.161
Mof_H 	H 	0.7259	0.0688	0.6334	-0.068
Mof_H 	H 	0.7831	0.1343	0.5724	0.426
Mof_Cu	Cu	0.66919	0.5	0.16919	0.931
Mof_Cu	Cu	0.6267	0.5	0.1267	0.934
Mof_Cu	Cu	0.66919	-9.30984e-33	0.66919	0.93
Mof_Cu	Cu	0.6267	-4.65492e-33	0.6267	0.932
Mof_Cu	Cu	0.33081	0.5	0.16919	0.931
Mof_Cu	Cu	0.3733	0.5	0.1267	0.934
Mof_Cu	Cu	0.33081	-9.30984e-33	0.66919	0.93
Mof_Cu	Cu	0.3733	-4.65492e-33	0.6267	0.932
Mof_Cu	Cu	0.33081	0.5	0.83081	0.931
Mof_Cu	Cu	0.3733	0.5	0.8733	0.934
Mof_Cu	Cu	0.33081	2.32746e-33	0.33081	0.93
Mof_Cu	Cu	0.3733	-4.65492e-33	0.3733	0.932
Mof_Cu	Cu	0.66919	0.5	0.83081	0.931
Mof_Cu	Cu	0.6267	0.5	0.8733	0.934
Mof_Cu	Cu	0.66919	2.32746e-33	0.33081	0.93
Mof_Cu	Cu	0.6267	-4.65492e-33	0.3733	0.932
Mof_Cu	Cu	0.16919	0.66919	0.5	0.931
Mof_Cu	Cu	0.1267	0.6267	0.5	0.934
Mof_Cu	Cu	0.16919	0.16919	-0	0.93
Mof_Cu	Cu	0.1267	0.1267	-0	0.932
Mof_Cu	Cu	0.16919	0.33081	0.5	0.931
Mof_Cu	Cu	0.1267	0.3733	0.5	0.934
Mof_Cu	Cu	0.16919	0.83081	-0	0.93
Mof_Cu	Cu	0.1267	0.8733	-0	0.932
Mof_Cu	Cu	0.83081	0.33081	0.5	0.931
Mof_Cu	Cu	0.8733	0.3733	0.5	0.934
Mof_Cu	Cu	0.83081	0.83081	-0	0.93
Mof_Cu	Cu	0.8733	0.8733	-0	0.932
Mof_Cu	Cu	0.83081	0.66919	0.5	0.931
Mof_Cu	Cu	0.8733	0.6267	0.5	0.934
Mof_Cu	Cu	0.83081	0.16919	-0	0.93
Mof_Cu	Cu	0.8733	0.1267	-0	0.932
Mof_Cu	Cu	0.5	0.16919	0.66919	0.931
Mof_Cu	Cu	0.5	0.1267	0.6267	0.934
Mof_Cu	Cu	1.79809e-33	0.16919	0.16919	0.93
Mof_Cu	Cu	2.80251e-33	0.1267	0.1267	0.932
Mof_Cu	Cu	0.5	0.16919	0.33081	0.931
Mof_Cu	Cu	0.5	0.1267	0.3733	0.934
Mof_Cu	Cu	3.11504e-33	0.16919	0.83081	0.93
Mof_Cu	Cu	1.25842e-32	0.1267	0.8733	0.932
Mof_Cu	Cu	0.5	0.83081	0.33081	0.931
Mof_Cu	Cu	0.5	0.8733	0.3733	0.934
Mof_Cu	Cu	3.11504e-33	0.83081	0.83081	0.93
Mof_Cu	Cu	2.1894e-32	0.8733	0.8733	0.932
Mof_Cu	Cu	0.5	0.83081	0.66919	0.931
Mof_Cu	Cu	0.5	0.8733	0.6267	0.934
Mof_Cu	Cu	1.79809e-33	0.83081	0.16919	0.93
Mof_Cu	Cu	1.44398e-32	0.8733	0.1267	0.932
Mof_Cu	Cu	0.5	0.66919	0.83081	0.931
Mof_Cu	Cu	0.5	0.6267	0.8733	0.934
Mof_Cu	Cu	8.22272e-33	0.66919	0.33081	0.93
Mof_Cu	Cu	1.39965e-33	0.6267	0.3733	0.932
Mof_Cu	Cu	0.5	0.33081	0.83081	0.931
Mof_Cu	Cu	0.5	0.3733	0.8733	0.934
Mof_Cu	Cu	3.5678e-33	0.33081	0.33081	0.93
Mof_Cu	Cu	1.39965e-33	0.3733	0.3733	0.932
Mof_Cu	Cu	0.5	0.33081	0.16919	0.931
Mof_Cu	Cu	0.5	0.3733	0.1267	0.934
Mof_Cu	Cu	7.16398e-33	0.33081	0.66919	0.93
Mof_Cu	Cu	2.34975e-33	0.3733	0.6267	0.932
Mof_Cu	Cu	0.5	0.66919	0.16919	0.931
Mof_Cu	Cu	0.5	0.6267	0.1267	0.934
Mof_Cu	Cu	-2.14586e-33	0.66919	0.66919	0.93
Mof_Cu	Cu	1.16596e-32	0.6267	0.6267	0.932
Mof_Cu	Cu	0.66919	0.16919	0.5	0.931
Mof_Cu	Cu	0.6267	0.1267	0.5	0.934
Mof_Cu	Cu	0.66919	0.66919	-0	0.93
Mof_Cu	Cu	0.6267	0.6267	-0	0.932
Mof_Cu	Cu	0.33081	0.16919	0.5	0.931
Mof_Cu	Cu	0.3733	0.1267	0.5	0.934
Mof_Cu	Cu	0.33081	0.66919	-0	0.93
Mof_Cu	Cu	0.3733	0.6267	-0	0.932
Mof_Cu	Cu	0.33081	0.83081	0.5	0.931
Mof_Cu	Cu	0.3733	0.8733	0.5	0.934
Mof_Cu	Cu	0.33081	0.33081	-0	0.93
Mof_Cu	Cu	0.3733	0.3733	-0	0.932
Mof_Cu	Cu	0.66919	0.83081	0.5	0.931
Mof_Cu	Cu	0.6267	0.8733	0.5	0.934
Mof_Cu	Cu	0.66919	0.33081	-0	0.93
Mof_Cu	Cu	0.6267	0.3733	-0	0.932
Mof_Cu	Cu	0.16919	0.5	0.33081	0.931
Mof_Cu	Cu	0.1267	0.5	0.3733	0.934
Mof_Cu	Cu	0.16919	-9.30984e-33	0.83081	0.93
Mof_Cu	Cu	0.1267	0	0.8733	0.932
Mof_Cu	Cu	0.16919	0.5	0.66919	0.931
Mof_Cu	Cu	0.1267	0.5	0.6267	0.934
Mof_Cu	Cu	0.16919	-1.16373e-33	0.16919	0.93
Mof_Cu	Cu	0.1267	0	0.1267	0.932
Mof_Cu	Cu	0.83081	0.5	0.66919	0.931
Mof_Cu	Cu	0.8733	0.5	0.6267	0.934
Mof_Cu	Cu	0.83081	-1.16373e-33	0.16919	0.93
Mof_Cu	Cu	0.8733	0	0.1267	0.932
Mof_Cu	Cu	0.83081	0.5	0.33081	0.931
Mof_Cu	Cu	0.8733	0.5	0.3733	0.934
Mof_Cu	Cu	0.83081	-9.30984e-33	0.83081	0.93
Mof_Cu	Cu	0.8733	0	0.8733	0.932
Mof_O 	O 	0.708	0.5	0.1995	-0.101
Mof_O 	O 	0.708	-9.30984e-33	0.6995	-0.103
Mof_O 	O 	0.208	0.5	0.6995	-0.102
Mof_O 	O 	0.208	-2.32746e-33	0.1995	-0.103
Mof_O 	O 	0.292	0.5	0.1995	-0.101
Mof_O 	O 	0.292	-9.30984e-33	0.6995	-0.102
Mof_O 	O 	0.792	0.5	0.6995	-0.101
Mof_O 	O 	0.792	-2.32746e-33	0.1995	-0.101
Mof_O 	O 	0.292	0.5	0.8005	-0.102
Mof_O 	O 	0.292	-2.32746e-33	0.3005	-0.103
Mof_O 	O 	0.792	0.5	0.3005	-0.101
Mof_O 	O 	0.792	0	0.8005	-0.103
Mof_O 	O 	0.708	0.5	0.8005	-0.103
Mof_O 	O 	0.708	-2.32746e-33	0.3005	-0.103
Mof_O 	O 	0.208	0.5	0.3005	-0.103
Mof_O 	O 	0.208	0	0.8005	-0.104
Mof_O 	O 	0.1995	0.708	0.5	-0.101
Mof_O 	O 	0.1995	0.208	-0	-0.103
Mof_O 	O 	0.6995	0.708	-0	-0.103
Mof_O 	O 	0.6995	0.208	0.5	-0.102
Mof_O 	O 	0.1995	0.292	0.5	-0.101
Mof_O 	O 	0.1995	0.792	-0	-0.101
Mof_O 	O 	0.6995	0.292	-0	-0.102
Mof_O 	O 	0.6995	0.792	0.5	-0.101
Mof_O 	O 	0.8005	0.292	0.5	-0.102
Mof_O 	O 	0.8005	0.792	-0	-0.103
Mof_O 	O 	0.3005	0.292	-0	-0.103
Mof_O 	O 	0.3005	0.792	0.5	-0.101
Mof_O 	O 	0.8005	0.708	0.5	-0.103
Mof_O 	O 	0.8005	0.208	-0	-0.104
Mof_O 	O 	0.3005	0.708	-0	-0.103
Mof_O 	O 	0.3005	0.208	0.5	-0.103
Mof_O 	O 	0.5	0.1995	0.708	-0.101
Mof_O 	O 	0.5	0.6995	0.208	-0.102
Mof_O 	O 	7.79875e-34	0.1995	0.208	-0.103
Mof_O 	O 	1.19644e-32	0.6995	0.708	-0.103
Mof_O 	O 	0.5	0.1995	0.292	-0.101
Mof_O 	O 	0.5	0.6995	0.792	-0.101
Mof_O 	O 	2.96952e-33	0.1995	0.792	-0.101
Mof_O 	O 	8.07721e-33	0.6995	0.292	-0.102
Mof_O 	O 	0.5	0.8005	0.292	-0.102
Mof_O 	O 	0.5	0.3005	0.792	-0.101
Mof_O 	O 	-6.34032e-33	0.8005	0.792	-0.103
Mof_O 	O 	1.09482e-33	0.3005	0.292	-0.103
Mof_O 	O 	0.5	0.8005	0.708	-0.103
Mof_O 	O 	0.5	0.3005	0.208	-0.103
Mof_O 	O 	7.79875e-34	0.8005	0.208	-0.104
Mof_O 	O 	2.65457e-33	0.3005	0.708	-0.103
Mof_O 	O 	0.5	0.708	0.8005	-0.103
Mof_O 	O 	0.5	0.208	0.3005	-0.103
Mof_O 	O 	3.45416e-33	0.708	0.3005	-0.103
Mof_O 	O 	3.00139e-33	0.208	0.8005	-0.104
Mof_O 	O 	0.5	0.292	0.8005	-0.102
Mof_O 	O 	0.5	0.792	0.3005	-0.101
Mof_O 	O 	1.12669e-33	0.292	0.3005	-0.103
Mof_O 	O 	-6.30845e-33	0.792	0.8005	-0.103
Mof_O 	O 	0.5	0.292	0.1995	-0.101
Mof_O 	O 	0.5	0.792	0.6995	-0.101
Mof_O 	O 	1.19325e-32	0.292	0.6995	-0.102
Mof_O 	O 	5.40293e-33	0.792	0.1995	-0.101
Mof_O 	O 	0.5	0.708	0.1995	-0.101
Mof_O 	O 	0.5	0.208	0.6995	-0.102
Mof_O 	O 	2.6227e-33	0.708	0.6995	-0.103
Mof_O 	O 	7.48005e-34	0.208	0.1995	-0.103
Mof_O 	O 	0.708	0.1995	0.5	-0.101
Mof_O 	O 	0.708	0.6995	-0	-0.103
Mof_O 	O 	0.208	0.1995	-0	-0.103
Mof_O 	O 	0.208	0.6995	0.5	-0.102
Mof_O 	O 	0.292	0.1995	0.5	-0.101
Mof_O 	O 	0.292	0.6995	-0	-0.102
Mof_O 	O 	0.792	0.1995	-0	-0.101
Mof_O 	O 	0.792	0.6995	0.5	-0.101
Mof_O 	O 	0.292	0.8005	0.5	-0.102
Mof_O 	O 	0.292	0.3005	-0	-0.103
Mof_O 	O 	0.792	0.8005	-0	-0.103
Mof_O 	O 	0.792	0.3005	0.5	-0.101
Mof_O 	O 	0.708	0.8005	0.5	-0.103
Mof_O 	O 	0.708	0.3005	-0	-0.103
Mof_O 	O 	0.208	0.8005	-0	-0.104
Mof_O 	O 	0.208	0.3005	0.5	-0.103
Mof_O 	O 	0.1995	0.5	0.292	-0.101
Mof_O 	O 	0.1995	-9.30984e-33	0.792	-0.101
Mof_O 	O 	0.6995	0.5	0.792	-0.101
Mof_O 	O 	0.6995	-2.32746e-33	0.292	-0.102
Mof_O 	O 	0.1995	0.5	0.708	-0.101
Mof_O 	O 	0.1995	-2.32746e-33	0.208	-0.103
Mof_O 	O 	0.6995	0.5	0.208	-0.102
Mof_O 	O 	0.6995	-9.30984e-33	0.708	-0.103
Mof_O 	O 	0.8005	0.5	0.708	-0.103
Mof_O 	O 	0.8005	-2.32746e-33	0.208	-0.104
Mof_O 	O 	0.3005	0.5	0.208	-0.103
Mof_O 	O 	0.3005	-9.30984e-33	0.708	-0.103
Mof_O 	O 	0.8005	0.5	0.292	-0.102
Mof_O 	O 	0.8005	-9.30984e-33	0.792	-0.103
Mof_O 	O 	0.3005	0.5	0.792	-0.101
Mof_O 	O 	0.3005	-2.32746e-33	0.292	-0.103
Mof_O 	O 	0.59169	0.50782	0.09169	-0.088
Mof_O 	O 	0.59169	0.00782	0.59169	-0.106
Mof_O 	O 	0.40831	0.49218	0.09169	-0.088
Mof_O 	O 	0.40831	0.99218	0.59169	-0.069
Mof_O 	O 	0.90831	0.49218	0.59169	-0.088
Mof_O 	O 	0.40831	0.50782	0.90831	-0.088
Mof_O 	O 	0.40831	0.00782	0.40831	-0.106
Mof_O 	O 	0.90831	0.00782	0.90831	-0.106
Mof_O 	O 	0.59169	0.49218	0.90831	-0.088
Mof_O 	O 	0.59169	0.99218	0.40831	-0.069
Mof_O 	O 	0.09169	0.59169	0.50782	-0.088
Mof_O 	O 	0.09169	0.09169	0.00782	-0.106
Mof_O 	O 	0.59169	0.59169	0.00782	-0.106
Mof_O 	O 	0.09169	0.40831	0.49218	-0.088
Mof_O 	O 	0.09169	0.90831	0.99218	-0.069
Mof_O 	O 	0.59169	0.90831	0.49218	-0.088
Mof_O 	O 	0.90831	0.40831	0.50782	-0.088
Mof_O 	O 	0.90831	0.90831	0.00782	-0.106
Mof_O 	O 	0.90831	0.59169	0.49218	-0.088
Mof_O 	O 	0.90831	0.09169	0.99218	-0.069
Mof_O 	O 	0.50782	0.09169	0.59169	-0.088
Mof_O 	O 	0.00782	0.09169	0.09169	-0.106
Mof_O 	O 	0.00782	0.59169	0.59169	-0.106
Mof_O 	O 	0.49218	0.09169	0.40831	-0.088
Mof_O 	O 	0.49218	0.59169	0.90831	-0.088
Mof_O 	O 	0.99218	0.09169	0.90831	-0.069
Mof_O 	O 	0.50782	0.90831	0.40831	-0.088
Mof_O 	O 	0.00782	0.90831	0.90831	-0.106
Mof_O 	O 	0.49218	0.90831	0.59169	-0.088
Mof_O 	O 	0.99218	0.90831	0.09169	-0.069
Mof_O 	O 	0.50782	0.59169	0.90831	-0.088
Mof_O 	O 	0.00782	0.59169	0.40831	-0.106
Mof_O 	O 	0.49218	0.40831	0.90831	-0.088
Mof_O 	O 	0.99218	0.40831	0.40831	-0.069
Mof_O 	O 	0.99218	0.90831	0.90831	-0.069
Mof_O 	O 	0.50782	0.40831	0.09169	-0.088
Mof_O 	O 	0.50782	0.90831	0.59169	-0.088
Mof_O 	O 	0.00782	0.40831	0.59169	-0.106
Mof_O 	O 	0.49218	0.59169	0.09169	-0.088
Mof_O 	O 	0.99218	0.59169	0.59169	-0.069
Mof_O 	O 	0.59169	0.09169	0.49218	-0.088
Mof_O 	O 	0.59169	0.59169	0.99218	-0.069
Mof_O 	O 	0.40831	0.09169	0.50782	-0.088
Mof_O 	O 	0.40831	0.59169	0.00782	-0.106
Mof_O 	O 	0.90831	0.59169	0.50782	-0.088
Mof_O 	O 	0.40831	0.90831	0.49218	-0.088
Mof_O 	O 	0.40831	0.40831	0.99218	-0.069
Mof_O 	O 	0.90831	0.90831	0.99218	-0.069
Mof_O 	O 	0.59169	0.90831	0.50782	-0.088
Mof_O 	O 	0.59169	0.40831	0.00782	-0.106
Mof_O 	O 	0.09169	0.50782	0.40831	-0.088
Mof_O 	O 	0.09169	0.00782	0.90831	-0.106
Mof_O 	O 	0.59169	0.50782	0.90831	-0.088
Mof_O 	O 	0.09169	0.49218	0.59169	-0.088
Mof_O 	O 	0.09169	0.99218	0.09169	-0.07
Mof_O 	O 	0.59169	0.99218	0.59169	-0.069
Mof_O 	O 	0.90831	0.50782	0.59169	-0.088
Mof_O 	O 	0.90831	0.00782	0.09169	-0.106
Mof_O 	O 	0.90831	0.49218	0.40831	-0.088
Mof_O 	O 	0.90831	0.99218	0.90831	-0.069
Mof_O 	O 	0.40831	0.49218	0.90831	-0.088
Mof_O 	O 	0.40831	0.99218	0.40831	-0.069
Mof_O 	O 	0.59169	0.00782	0.40831	-0.106
Mof_O 	O 	0.59169	0.49218	0.09169	-0.088
Mof_O 	O 	0.40831	0.50782	0.09169	-0.088
Mof_O 	O 	0.40831	0.00782	0.59169	-0.106
Mof_O 	O 	0.90831	0.40831	0.49218	-0.088
Mof_O 	O 	0.90831	0.09169	0.00782	-0.106
Mof_O 	O 	0.09169	0.59169	0.49218	-0.088
Mof_O 	O 	0.09169	0.09169	0.99218	-0.07
Mof_O 	O 	0.09169	0.40831	0.50782	-0.088
Mof_O 	O 	0.09169	0.90831	0.00782	-0.106
Mof_O 	O 	0.49218	0.90831	0.40831	-0.088
Mof_O 	O 	0.00782	0.90831	0.09169	-0.106
Mof_O 	O 	0.49218	0.09169	0.59169	-0.088
Mof_O 	O 	0.99218	0.09169	0.09169	-0.07
Mof_O 	O 	0.50782	0.09169	0.40831	-0.088
Mof_O 	O 	0.00782	0.09169	0.90831	-0.106
Mof_O 	O 	0.49218	0.40831	0.09169	-0.088
Mof_O 	O 	0.99218	0.40831	0.59169	-0.069
Mof_O 	O 	0.50782	0.59169	0.09169	-0.088
Mof_O 	O 	0.99218	0.59169	0.40831	-0.069
Mof_O 	O 	0.50782	0.40831	0.90831	-0.088
Mof_O 	O 	0.00782	0.40831	0.40831	-0.106
Mof_O 	O 	0.40831	0.90831	0.50782	-0.088
Mof_O 	O 	0.40831	0.40831	0.00782	-0.106
Mof_O 	O 	0.59169	0.40831	0.99218	-0.069
Mof_O 	O 	0.59169	0.09169	0.50782	-0.088
Mof_O 	O 	0.40831	0.09169	0.49218	-0.088
Mof_O 	O 	0.40831	0.59169	0.99218	-0.069
Mof_O 	O 	0.90831	0.99218	0.09169	-0.069
Mof_O 	O 	0.90831	0.50782	0.40831	-0.088
Mof_O 	O 	0.09169	0.49218	0.40831	-0.088
Mof_O 	O 	0.09169	0.99218	0.90831	-0.069
Mof_O 	O 	0.09169	0.50782	0.59169	-0.088
Mof_O 	O 	0.09169	0.00782	0.09169	-0.106
Mof_C 	C 	0.57905	0.57905	0.17714	-0.028
Mof_H 	H 	0.5726	0.5726	0.158	0.086
Mof_C 	C 	0.5937	0.5937	0.239	-0.768
Mof_C 	C 	0.6025	0.6025	0.2709	0.603
Mof_C 	C 	0.6025	0.6025	0.2292	1.006
Mof_C 	C 	0.612	0.612	0.2604	-0.844
Mof_C 	C 	0.57905	0.07905	0.67714	-0.028
Mof_H 	H 	0.5726	0.0726	0.658	0.086
Mof_C 	C 	0.5937	0.0937	0.739	-0.77
Mof_C 	C 	0.6025	0.1025	0.7709	0.603
Mof_C 	C 	0.6025	0.1025	0.7292	1.008
Mof_C 	C 	0.612	0.112	0.7604	-0.844
Mof_C 	C 	0.07905	0.57905	0.67714	-0.028
Mof_H 	H 	0.0726	0.5726	0.658	0.086
Mof_C 	C 	0.0937	0.5937	0.739	-0.77
Mof_C 	C 	0.1025	0.6025	0.7709	0.603
Mof_C 	C 	0.1025	0.6025	0.7292	1.008
Mof_C 	C 	0.112	0.612	0.7604	-0.844
Mof_C 	C 	0.07905	0.07905	0.17714	-0.028
Mof_H 	H 	0.0726	0.0726	0.158	0.086
Mof_C 	C 	0.0937	0.0937	0.239	-0.772
Mof_C 	C 	0.1025	0.1025	0.2709	0.603
Mof_C 	C 	0.1025	0.1025	0.2292	1.01
Mof_C 	C 	0.112	0.112	0.2604	-0.844
Mof_C 	C 	0.42095	0.42095	0.17714	-0.028
Mof_H 	H 	0.4274	0.4274	0.158	0.086
Mof_C 	C 	0.4063	0.4063	0.239	-0.768
Mof_C 	C 	0.3975	0.3975	0.2709	0.603
Mof_C 	C 	0.3975	0.3975	0.2292	1.006
Mof_C 	C 	0.388	0.388	0.2604	-0.844
Mof_C 	C 	0.42095	0.92095	0.67714	-0.028
Mof_H 	H 	0.4274	0.9274	0.658	0.086
Mof_C 	C 	0.4063	0.9063	0.739	-0.766
Mof_C 	C 	0.3975	0.8975	0.7709	0.603
Mof_C 	C 	0.3975	0.8975	0.7292	1.004
Mof_C 	C 	0.388	0.888	0.7604	-0.844
Mof_C 	C 	0.92095	0.42095	0.67714	-0.028
Mof_H 	H 	0.9274	0.4274	0.658	0.086
Mof_C 	C 	0.9063	0.4063	0.739	-0.766
Mof_C 	C 	0.8975	0.3975	0.7709	0.603
Mof_C 	C 	0.8975	0.3975	0.7292	1.005
Mof_C 	C 	0.888	0.388	0.7604	-0.844
Mof_C 	C 	0.92095	0.92095	0.17714	-0.028
Mof_H 	H 	0.9274	0.9274	0.158	0.086
Mof_C 	C 	0.9063	0.9063	0.239	-0.764
Mof_C 	C 	0.8975	0.8975	0.2709	0.603
Mof_C 	C 	0.8975	0.8975	0.2292	1.003
Mof_C 	C 	0.888	0.888	0.2604	-0.844
Mof_C 	C 	0.42095	0.57905	0.82286	-0.028
Mof_H 	H 	0.4274	0.5726	0.842	0.086
Mof_C 	C 	0.4063	0.5937	0.761	-0.768
Mof_C 	C 	0.3975	0.6025	0.7291	0.603
Mof_C 	C 	0.3975	0.6025	0.7708	1.006
Mof_C 	C 	0.388	0.612	0.7396	-0.844
Mof_C 	C 	0.42095	0.07905	0.32286	-0.028
Mof_H 	H 	0.4274	0.0726	0.342	0.086
Mof_C 	C 	0.4063	0.0937	0.261	-0.77
Mof_C 	C 	0.3975	0.1025	0.2291	0.603
Mof_C 	C 	0.3975	0.1025	0.2708	1.008
Mof_C 	C 	0.388	0.112	0.2396	-0.844
Mof_C 	C 	0.92095	0.57905	0.32286	-0.028
Mof_H 	H 	0.9274	0.5726	0.342	0.086
Mof_C 	C 	0.9063	0.5937	0.261	-0.766
Mof_C 	C 	0.8975	0.6025	0.2291	0.603
Mof_C 	C 	0.8975	0.6025	0.2708	1.005
Mof_C 	C 	0.888	0.612	0.2396	-0.844
Mof_C 	C 	0.92095	0.07905	0.82286	-0.028
Mof_H 	H 	0.9274	0.0726	0.842	0.086
Mof_C 	C 	0.9063	0.0937	0.761	-0.768
Mof_C 	C 	0.8975	0.1025	0.7291	0.603
Mof_C 	C 	0.8975	0.1025	0.7708	1.007
Mof_C 	C 	0.888	0.112	0.7396	-0.844
Mof_C 	C 	0.57905	0.42095	0.82286	-0.028
Mof_H 	H 	0.5726	0.4274	0.842	0.086
Mof_C 	C 	0.5937	0.4063	0.761	-0.768
Mof_C 	C 	0.6025	0.3975	0.7291	0.603
Mof_C 	C 	0.6025	0.3975	0.7708	1.006
Mof_C 	C 	0.612	0.388	0.7396	-0.844
Mof_C 	C 	0.57905	0.92095	0.32286	-0.028
Mof_H 	H 	0.5726	0.9274	0.342	0.086
Mof_C 	C 	0.5937	0.9063	0.261	-0.766
Mof_C 	C 	0.6025	0.8975	0.2291	0.603
Mof_C 	C 	0.6025	0.8975	0.2708	1.004
Mof_C 	C 	0.612	0.888	0.2396	-0.844
Mof_C 	C 	0.07905	0.42095	0.32286	-0.028
Mof_H 	H 	0.0726	0.4274	0.342	0.086
Mof_C 	C 	0.0937	0.4063	0.261	-0.77
Mof_C 	C 	0.1025	0.3975	0.2291	0.603
Mof_C 	C 	0.1025	0.3975	0.2708	1.008
Mof_C 	C 	0.112	0.388	0.2396	-0.843
Mof_C 	C 	0.07905	0.92095	0.82286	-0.028
Mof_H 	H 	0.0726	0.9274	0.842	0.086
Mof_C 	C 	0.0937	0.9063	0.761	-0.768
Mof_C 	C 	0.1025	0.8975	0.7291	0.603
Mof_C 	C 	0.1025	0.8975	0.7708	1.006
Mof_C 	C 	0.112	0.888	0.7396	-0.844
Mof_C 	C 	0.17714	0.57905	0.57905	-0.028
Mof_H 	H 	0.158	0.5726	0.5726	0.086
Mof_C 	C 	0.239	0.5937	0.5937	-0.768
Mof_C 	C 	0.2709	0.6025	0.6025	0.603
Mof_C 	C 	0.2292	0.6025	0.6025	1.006
Mof_C 	C 	0.2604	0.612	0.612	-0.844
Mof_C 	C 	0.17714	0.07905	0.07905	-0.028
Mof_H 	H 	0.158	0.0726	0.0726	0.086
Mof_C 	C 	0.239	0.0937	0.0937	-0.772
Mof_C 	C 	0.2709	0.1025	0.1025	0.603
Mof_C 	C 	0.2292	0.1025	0.1025	1.01
Mof_C 	C 	0.2604	0.112	0.112	-0.844
Mof_C 	C 	0.67714	0.57905	0.07905	-0.028
Mof_H 	H 	0.658	0.5726	0.0726	0.086
Mof_C 	C 	0.739	0.5937	0.0937	-0.77
Mof_C 	C 	0.7709	0.6025	0.1025	0.603
Mof_C 	C 	0.7292	0.6025	0.1025	1.008
Mof_C 	C 	0.7604	0.612	0.112	-0.844
Mof_C 	C 	0.67714	0.07905	0.57905	-0.028
Mof_H 	H 	0.658	0.0726	0.5726	0.086
Mof_C 	C 	0.739	0.0937	0.5937	-0.77
Mof_C 	C 	0.7709	0.1025	0.6025	0.603
Mof_C 	C 	0.7292	0.1025	0.6025	1.008
Mof_C 	C 	0.7604	0.112	0.612	-0.844
Mof_C 	C 	0.17714	0.42095	0.42095	-0.028
Mof_H 	H 	0.158	0.4274	0.4274	0.086
Mof_C 	C 	0.239	0.4063	0.4063	-0.768
Mof_C 	C 	0.2709	0.3975	0.3975	0.603
Mof_C 	C 	0.2292	0.3975	0.3975	1.006
Mof_C 	C 	0.2604	0.388	0.388	-0.844
Mof_C 	C 	0.17714	0.92095	0.92095	-0.028
Mof_H 	H 	0.158	0.9274	0.9274	0.086
Mof_C 	C 	0.239	0.9063	0.9063	-0.764
Mof_C 	C 	0.2709	0.8975	0.8975	0.603
Mof_C 	C 	0.2292	0.8975	0.8975	1.003
Mof_C 	C 	0.2604	0.888	0.888	-0.844
Mof_C 	C 	0.67714	0.42095	0.92095	-0.028
Mof_H 	H 	0.658	0.4274	0.9274	0.086
Mof_C 	C 	0.739	0.4063	0.9063	-0.766
Mof_C 	C 	0.7709	0.3975	0.8975	0.603
Mof_C 	C 	0.7292	0.3975	0.8975	1.004
Mof_C 	C 	0.7604	0.388	0.888	-0.844
Mof_C 	C 	0.67714	0.92095	0.42095	-0.028
Mof_H 	H 	0.658	0.9274	0.4274	0.086
Mof_C 	C 	0.739	0.9063	0.4063	-0.766
Mof_C 	C 	0.7709	0.8975	0.3975	0.603
Mof_C 	C 	0.7292	0.8975	0.3975	1.005
Mof_C 	C 	0.7604	0.888	0.388	-0.844
Mof_C 	C 	0.82286	0.42095	0.57905	-0.028
Mof_H 	H 	0.842	0.4274	0.5726	0.086
Mof_C 	C 	0.761	0.4063	0.5937	-0.768
Mof_C 	C 	0.7291	0.3975	0.6025	0.603
Mof_C 	C 	0.7708	0.3975	0.6025	1.006
Mof_C 	C 	0.7396	0.388	0.612	-0.844
Mof_C 	C 	0.82286	0.92095	0.07905	-0.028
Mof_H 	H 	0.842	0.9274	0.0726	0.086
Mof_C 	C 	0.761	0.9063	0.0937	-0.768
Mof_C 	C 	0.7291	0.8975	0.1025	0.603
Mof_C 	C 	0.7708	0.8975	0.1025	1.007
Mof_C 	C 	0.7396	0.888	0.112	-0.844
Mof_C 	C 	0.32286	0.42095	0.07905	-0.028
Mof_H 	H 	0.342	0.4274	0.0726	0.086
Mof_C 	C 	0.261	0.4063	0.0937	-0.77
Mof_C 	C 	0.2291	0.3975	0.1025	0.603
Mof_C 	C 	0.2708	0.3975	0.1025	1.008
Mof_C 	C 	0.2396	0.388	0.112	-0.844
Mof_C 	C 	0.32286	0.92095	0.57905	-0.028
Mof_H 	H 	0.342	0.9274	0.5726	0.086
Mof_C 	C 	0.261	0.9063	0.5937	-0.766
Mof_C 	C 	0.2291	0.8975	0.6025	0.603
Mof_C 	C 	0.2708	0.8975	0.6025	1.005
Mof_C 	C 	0.2396	0.888	0.612	-0.844
Mof_C 	C 	0.82286	0.57905	0.42095	-0.028
Mof_H 	H 	0.842	0.5726	0.4274	0.086
Mof_C 	C 	0.761	0.5937	0.4063	-0.768
Mof_C 	C 	0.7291	0.6025	0.3975	0.603
Mof_C 	C 	0.7708	0.6025	0.3975	1.006
Mof_C 	C 	0.7396	0.612	0.388	-0.844
Mof_C 	C 	0.82286	0.07905	0.92095	-0.028
Mof_H 	H 	0.842	0.0726	0.9274	0.086
Mof_C 	C 	0.761	0.0937	0.9063	-0.768
Mof_C 	C 	0.7291	0.1025	0.8975	0.603
Mof_C 	C 	0.7708	0.1025	0.8975	1.006
Mof_C 	C 	0.7396	0.112	0.888	-0.844
Mof_C 	C 	0.32286	0.57905	0.92095	-0.028
Mof_H 	H 	0.342	0.5726	0.9274	0.086
Mof_C 	C 	0.261	0.5937	0.9063	-0.766
Mof_C 	C 	0.2291	0.6025	0.8975	0.603
Mof_C 	C 	0.2708	0.6025	0.8975	1.004
Mof_C 	C 	0.2396	0.612	0.888	-0.844
Mof_C 	C 	0.32286	0.07905	0.42095	-0.028
Mof_H 	H 	0.342	0.0726	0.4274	0.086
Mof_C 	C 	0.261	0.0937	0.4063	-0.77
Mof_C 	C 	0.2291	0.1025	0.3975	0.603
Mof_C 	C 	0.2708	0.1025	0.3975	1.008
Mof_C 	C 	0.2396	0.112	0.388	-0.843
Mof_C 	C 	0.57905	0.17714	0.57905	-0.028
Mof_H 	H 	0.5726	0.158	0.5726	0.086
Mof_C 	C 	0.5937	0.239	0.5937	-0.768
Mof_C 	C 	0.6025	0.2709	0.6025	0.603
Mof_C 	C 	0.6025	0.2292	0.6025	1.006
Mof_C 	C 	0.612	0.2604	0.612	-0.844
Mof_C 	C 	0.57905	0.67714	0.07905	-0.028
Mof_H 	H 	0.5726	0.658	0.0726	0.086
Mof_C 	C 	0.5937	0.739	0.0937	-0.77
Mof_C 	C 	0.6025	0.7709	0.1025	0.603
Mof_C 	C 	0.6025	0.7292	0.1025	1.008
Mof_C 	C 	0.612	0.7604	0.112	-0.844
Mof_C 	C 	0.07905	0.17714	0.07905	-0.028
Mof_H 	H 	0.0726	0.158	0.0726	0.086
Mof_C 	C 	0.0937	0.239	0.0937	-0.772
Mof_C 	C 	0.1025	0.2709	0.1025	0.603
Mof_C 	C 	0.1025	0.2292	0.1025	1.01
Mof_C 	C 	0.112	0.2604	0.112	-0.844
Mof_C 	C 	0.07905	0.67714	0.57905	-0.028
Mof_H 	H 	0.0726	0.658	0.5726	0.086
Mof_C 	C 	0.0937	0.739	0.5937	-0.77
Mof_C 	C 	0.1025	0.7709	0.6025	0.603
Mof_C 	C 	0.1025	0.7292	0.6025	1.008
Mof_C 	C 	0.112	0.7604	0.612	-0.844
Mof_C 	C 	0.42095	0.17714	0.42095	-0.028
Mof_H 	H 	0.4274	0.158	0.4274	0.086
Mof_C 	C 	0.4063	0.239	0.4063	-0.768
Mof_C 	C 	0.3975	0.2709	0.3975	0.603
Mof_C 	C 	0.3975	0.2292	0.3975	1.006
Mof_C 	C 	0.388	0.2604	0.388	-0.844
Mof_C 	C 	0.42095	0.67714	0.92095	-0.028
Mof_H 	H 	0.4274	0.658	0.9274	0.086
Mof_C 	C 	0.4063	0.739	0.9063	-0.766
Mof_C 	C 	0.3975	0.7709	0.8975	0.603
Mof_C 	C 	0.3975	0.7292	0.8975	1.005
Mof_C 	C 	0.388	0.7604	0.888	-0.844
Mof_C 	C 	0.92095	0.17714	0.92095	-0.028
Mof_H 	H 	0.9274	0.158	0.9274	0.086
Mof_C 	C 	0.9063	0.239	0.9063	-0.764
Mof_C 	C 	0.8975	0.2709	0.8975	0.603
Mof_C 	C 	0.8975	0.2292	0.8975	1.003
Mof_C 	C 	0.888	0.2604	0.888	-0.844
Mof_C 	C 	0.92095	0.67714	0.42095	-0.028
Mof_H 	H 	0.9274	0.658	0.4274	0.086
Mof_C 	C 	0.9063	0.739	0.4063	-0.766
Mof_C 	C 	0.8975	0.7709	0.3975	0.603
Mof_C 	C 	0.8975	0.7292	0.3975	1.004
Mof_C 	C 	0.888	0.7604	0.388	-0.844
Mof_C 	C 	0.57905	0.82286	0.42095	-0.028
Mof_H 	H 	0.5726	0.842	0.4274	0.086
Mof_C 	C 	0.5937	0.761	0.4063	-0.768
Mof_C 	C 	0.6025	0.7291	0.3975	0.603
Mof_C 	C 	0.6025	0.7708	0.3975	1.006
Mof_C 	C 	0.612	0.7396	0.388	-0.844
Mof_C 	C 	0.57905	0.32286	0.92095	-0.028
Mof_H 	H 	0.5726	0.342	0.9274	0.086
Mof_C 	C 	0.5937	0.261	0.9063	-0.766
Mof_C 	C 	0.6025	0.2291	0.8975	0.603
Mof_C 	C 	0.6025	0.2708	0.8975	1.005
Mof_C 	C 	0.612	0.2396	0.888	-0.844
Mof_C 	C 	0.07905	0.82286	0.92095	-0.028
Mof_H 	H 	0.0726	0.842	0.9274	0.086
Mof_C 	C 	0.0937	0.761	0.9063	-0.768
Mof_C 	C 	0.1025	0.7291	0.8975	0.603
Mof_C 	C 	0.1025	0.7708	0.8975	1.007
Mof_C 	C 	0.112	0.7396	0.888	-0.844
Mof_C 	C 	0.07905	0.32286	0.42095	-0.028
Mof_H 	H 	0.0726	0.342	0.4274	0.086
Mof_C 	C 	0.0937	0.261	0.4063	-0.77
Mof_C 	C 	0.1025	0.2291	0.3975	0.603
Mof_C 	C 	0.1025	0.2708	0.3975	1.008
Mof_C 	C 	0.112	0.2396	0.388	-0.844
Mof_C 	C 	0.42095	0.82286	0.57905	-0.028
Mof_H 	H 	0.4274	0.842	0.5726	0.086
Mof_C 	C 	0.4063	0.761	0.5937	-0.768
Mof_C 	C 	0.3975	0.7291	0.6025	0.603
Mof_C 	C 	0.3975	0.7708	0.6025	1.006
Mof_C 	C 	0.388	0.7396	0.612	-0.844
Mof_C 	C 	0.42095	0.32286	0.07905	-0.028
Mof_H 	H 	0.4274	0.342	0.0726	0.086
Mof_C 	C 	0.4063	0.261	0.0937	-0.77
Mof_C 	C 	0.3975	0.2291	0.1025	0.603
Mof_C 	C 	0.3975	0.2708	0.1025	1.008
Mof_C 	C 	0.388	0.2396	0.112	-0.843
Mof_C 	C 	0.92095	0.82286	0.07905	-0.028
Mof_H 	H 	0.9274	0.842	0.0726	0.086
Mof_C 	C 	0.9063	0.761	0.0937	-0.768
Mof_C 	C 	0.8975	0.7291	0.1025	0.603
Mof_C 	C 	0.8975	0.7708	0.1025	1.006
Mof_C 	C 	0.888	0.7396	0.112	-0.844
Mof_C 	C 	0.92095	0.32286	0.57905	-0.028
Mof_H 	H 	0.9274	0.342	0.5726	0.086
Mof_C 	C 	0.9063	0.261	0.5937	-0.766
Mof_C 	C 	0.8975	0.2291	0.6025	0.603
Mof_C 	C 	0.8975	0.2708	0.6025	1.004
Mof_C 	C 	0.888	0.2396	0.612	-0.844
Mof_C 	C 	0.57905	0.57905	0.82286	-0.028
Mof_H 	H 	0.5726	0.5726	0.842	0.086
Mof_C 	C 	0.5937	0.5937	0.761	-0.768
Mof_C 	C 	0.6025	0.6025	0.7291	0.603
Mof_C 	C 	0.6025	0.6025	0.7708	1.006
Mof_C 	C 	0.612	0.612	0.7396	-0.844
Mof_C 	C 	0.57905	0.07905	0.32286	-0.028
Mof_H 	H 	0.5726	0.0726	0.342	0.086
Mof_C 	C 	0.5937	0.0937	0.261	-0.77
Mof_C 	C 	0.6025	0.1025	0.2291	0.603
Mof_C 	C 	0.6025	0.1025	0.2708	1.008
Mof_C 	C 	0.612	0.112	0.2396	-0.843
Mof_C 	C 	0.07905	0.57905	0.32286	-0.028
Mof_H 	H 	0.0726	0.5726	0.342	0.086
Mof_C 	C 	0.0937	0.5937	0.261	-0.77
Mof_C 	C 	0.1025	0.6025	0.2291	0.603
Mof_C 	C 	0.1025	0.6025	0.2708	1.008
Mof_C 	C 	0.112	0.612	0.2396	-0.844
Mof_C 	C 	0.07905	0.07905	0.82286	-0.028
Mof_H 	H 	0.0726	0.0726	0.842	0.086
Mof_C 	C 	0.0937	0.0937	0.761	-0.773
Mof_C 	C 	0.1025	0.1025	0.7291	0.603
Mof_C 	C 	0.1025	0.1025	0.7708	1.01
Mof_C 	C 	0.112	0.112	0.7396	-0.844
Mof_C 	C 	0.42095	0.42095	0.82286	-0.028
Mof_H 	H 	0.4274	0.4274	0.842	0.086
Mof_C 	C 	0.4063	0.4063	0.761	-0.768
Mof_C 	C 	0.3975	0.3975	0.7291	0.603
Mof_C 	C 	0.3975	0.3975	0.7708	1.006
Mof_C 	C 	0.388	0.388	0.7396	-0.844
Mof_C 	C 	0.42095	0.92095	0.32286	-0.028
Mof_H 	H 	0.4274	0.9274	0.342	0.086
Mof_C 	C 	0.4063	0.9063	0.261	-0.766
Mof_C 	C 	0.3975	0.8975	0.2291	0.603
Mof_C 	C 	0.3975	0.8975	0.2708	1.005
Mof_C 	C 	0.388	0.888	0.2396	-0.844
Mof_C 	C 	0.92095	0.42095	0.32286	-0.028
Mof_H 	H 	0.9274	0.4274	0.342	0.086
Mof_C 	C 	0.9063	0.4063	0.261	-0.766
Mof_C 	C 	0.8975	0.3975	0.2291	0.603
Mof_C 	C 	0.8975	0.3975	0.2708	1.004
Mof_C 	C 	0.888	0.388	0.2396	-0.844
Mof_C 	C 	0.92095	0.92095	0.82286	-0.028
Mof_H 	H 	0.9274	0.9274	0.842	0.086
Mof_C 	C 	0.9063	0.9063	0.761	-0.764
Mof_C 	C 	0.8975	0.8975	0.7291	0.603
Mof_C 	C 	0.8975	0.8975	0.7708	1.003
Mof_C 	C 	0.888	0.888	0.7396	-0.844
Mof_C 	C 	0.57905	0.42095	0.17714	-0.028
Mof_H 	H 	0.5726	0.4274	0.158	0.086
Mof_C 	C 	0.5937	0.4063	0.239	-0.768
Mof_C 	C 	0.6025	0.3975	0.2709	0.603
Mof_C 	C 	0.6025	0.3975	0.2292	1.006
Mof_C 	C 	0.612	0.388	0.2604	-0.844
Mof_C 	C 	0.57905	0.92095	0.67714	-0.028
Mof_H 	H 	0.5726	0.9274	0.658	0.086
Mof_C 	C 	0.5937	0.9063	0.739	-0.766
Mof_C 	C 	0.6025	0.8975	0.7709	0.603
Mof_C 	C 	0.6025	0.8975	0.7292	1.005
Mof_C 	C 	0.612	0.888	0.7604	-0.844
Mof_C 	C 	0.07905	0.42095	0.67714	-0.028
Mof_H 	H 	0.0726	0.4274	0.658	0.086
Mof_C 	C 	0.0937	0.4063	0.739	-0.77
Mof_C 	C 	0.1025	0.3975	0.7709	0.603
Mof_C 	C 	0.1025	0.3975	0.7292	1.009
Mof_C 	C 	0.112	0.388	0.7604	-0.844
Mof_C 	C 	0.07905	0.92095	0.17714	-0.028
Mof_H 	H 	0.0726	0.9274	0.158	0.086
Mof_C 	C 	0.0937	0.9063	0.239	-0.768
Mof_C 	C 	0.1025	0.8975	0.2709	0.603
Mof_C 	C 	0.1025	0.8975	0.2292	1.007
Mof_C 	C 	0.112	0.888	0.2604	-0.844
Mof_C 	C 	0.42095	0.57905	0.17714	-0.028
Mof_H 	H 	0.4274	0.5726	0.158	0.086
Mof_C 	C 	0.4063	0.5937	0.239	-0.768
Mof_C 	C 	0.3975	0.6025	0.2709	0.603
Mof_C 	C 	0.3975	0.6025	0.2292	1.006
Mof_C 	C 	0.388	0.612	0.2604	-0.844
Mof_C 	C 	0.42095	0.07905	0.67714	-0.028
Mof_H 	H 	0.4274	0.0726	0.658	0.086
Mof_C 	C 	0.4063	0.0937	0.739	-0.77
Mof_C 	C 	0.3975	0.1025	0.7709	0.603
Mof_C 	C 	0.3975	0.1025	0.7292	1.008
Mof_C 	C 	0.388	0.112	0.7604	-0.844
Mof_C 	C 	0.92095	0.57905	0.67714	-0.028
Mof_H 	H 	0.9274	0.5726	0.658	0.086
Mof_C 	C 	0.9063	0.5937	0.739	-0.766
Mof_C 	C 	0.8975	0.6025	0.7709	0.603
Mof_C 	C 	0.8975	0.6025	0.7292	1.004
Mof_C 	C 	0.888	0.612	0.7604	-0.844
Mof_C 	C 	0.92095	0.07905	0.17714	-0.028
Mof_H 	H 	0.9274	0.0726	0.158	0.086
Mof_C 	C 	0.9063	0.0937	0.239	-0.768
Mof_C 	C 	0.8975	0.1025	0.2709	0.603
Mof_C 	C 	0.8975	0.1025	0.2292	1.006
Mof_C 	C 	0.888	0.112	0.2604	-0.844
Mof_C 	C 	0.57905	0.17714	0.42095	-0.028
Mof_H 	H 	0.5726	0.158	0.4274	0.086
Mof_C 	C 	0.5937	0.239	0.4063	-0.768
Mof_C 	C 	0.6025	0.2709	0.3975	0.603
Mof_C 	C 	0.6025	0.2292	0.3975	1.006
Mof_C 	C 	0.612	0.2604	0.388	-0.844
Mof_C 	C 	0.57905	0.67714	0.92095	-0.028
Mof_H 	H 	0.5726	0.658	0.9274	0.086
Mof_C 	C 	0.5937	0.739	0.9063	-0.766
Mof_C 	C 	0.6025	0.7709	0.8975	0.603
Mof_C 	C 	0.6025	0.7292	0.8975	1.004
Mof_C 	C 	0.612	0.7604	0.888	-0.844
Mof_C 	C 	0.07905	0.17714	0.92095	-0.028
Mof_H 	H 	0.0726	0.158	0.9274	0.086
Mof_C 	C 	0.0937	0.239	0.9063	-0.768
Mof_C 	C 	0.1025	0.2709	0.8975	0.603
Mof_C 	C 	0.1025	0.2292	0.8975	1.006
Mof_C 	C 	0.112	0.2604	0.888	-0.844
Mof_C 	C 	0.07905	0.67714	0.42095	-0.028
Mof_H 	H 	0.0726	0.658	0.4274	0.086
Mof_C 	C 	0.0937	0.739	0.4063	-0.77
Mof_C 	C 	0.1025	0.7709	0.3975	0.603
Mof_C 	C 	0.1025	0.7292	0.3975	1.008
Mof_C 	C 	0.112	0.7604	0.388	-0.844
Mof_C 	C 	0.42095	0.17714	0.57905	-0.028
Mof_H 	H 	0.4274	0.158	0.5726	0.086
Mof_C 	C 	0.4063	0.239	0.5937	-0.768
Mof_C 	C 	0.3975	0.2709	0.6025	0.603
Mof_C 	C 	0.3975	0.2292	0.6025	1.006
Mof_C 	C 	0.388	0.2604	0.612	-0.844
Mof_C 	C 	0.42095	0.67714	0.07905	-0.028
Mof_H 	H 	0.4274	0.658	0.0726	0.086
Mof_C 	C 	0.4063	0.739	0.0937	-0.77
Mof_C 	C 	0.3975	0.7709	0.1025	0.603
Mof_C 	C 	0.3975	0.7292	0.1025	1.009
Mof_C 	C 	0.388	0.7604	0.112	-0.844
Mof_C 	C 	0.92095	0.17714	0.07905	-0.028
Mof_H 	H 	0.9274	0.158	0.0726	0.086
Mof_C 	C 	0.9063	0.239	0.0937	-0.768
Mof_C 	C 	0.8975	0.2709	0.1025	0.603
Mof_C 	C 	0.8975	0.2292	0.1025	1.007
Mof_C 	C 	0.888	0.2604	0.112	-0.844
Mof_C 	C 	0.92095	0.67714	0.57905	-0.028
Mof_H 	H 	0.9274	0.658	0.5726	0.086
Mof_C 	C 	0.9063	0.739	0.5937	-0.766
Mof_C 	C 	0.8975	0.7709	0.6025	0.603
Mof_C 	C 	0.8975	0.7292	0.6025	1.005
Mof_C 	C 	0.888	0.7604	0.612	-0.844
Mof_C 	C 	0.42095	0.82286	0.42095	-0.028
Mof_H 	H 	0.4274	0.842	0.4274	0.086
Mof_C 	C 	0.4063	0.761	0.4063	-0.768
Mof_C 	C 	0.3975	0.7291	0.3975	0.603
Mof_C 	C 	0.3975	0.7708	0.3975	1.006
Mof_C 	C 	0.388	0.7396	0.388	-0.844
Mof_C 	C 	0.42095	0.32286	0.92095	-0.028
Mof_H 	H 	0.4274	0.342	0.9274	0.086
Mof_C 	C 	0.4063	0.261	0.9063	-0.766
Mof_C 	C 	0.3975	0.2291	0.8975	0.603
Mof_C 	C 	0.3975	0.2708	0.8975	1.004
Mof_C 	C 	0.388	0.2396	0.888	-0.844
Mof_C 	C 	0.92095	0.82286	0.92095	-0.028
Mof_H 	H 	0.9274	0.842	0.9274	0.086
Mof_C 	C 	0.9063	0.761	0.9063	-0.764
Mof_C 	C 	0.8975	0.7291	0.8975	0.603
Mof_C 	C 	0.8975	0.7708	0.8975	1.003
Mof_C 	C 	0.888	0.7396	0.888	-0.844
Mof_C 	C 	0.92095	0.32286	0.42095	-0.028
Mof_H 	H 	0.9274	0.342	0.4274	0.086
Mof_C 	C 	0.9063	0.261	0.4063	-0.766
Mof_C 	C 	0.8975	0.2291	0.3975	0.603
Mof_C 	C 	0.8975	0.2708	0.3975	1.005
Mof_C 	C 	0.888	0.2396	0.388	-0.844
Mof_C 	C 	0.57905	0.82286	0.57905	-0.028
Mof_H 	H 	0.5726	0.842	0.5726	0.086
Mof_C 	C 	0.5937	0.761	0.5937	-0.768
Mof_C 	C 	0.6025	0.7291	0.6025	0.603
Mof_C 	C 	0.6025	0.7708	0.6025	1.006
Mof_C 	C 	0.612	0.7396	0.612	-0.844
Mof_C 	C 	0.57905	0.32286	0.07905	-0.028
Mof_H 	H 	0.5726	0.342	0.0726	0.086
Mof_C 	C 	0.5937	0.261	0.0937	-0.77
Mof_C 	C 	0.6025	0.2291	0.1025	0.603
Mof_C 	C 	0.6025	0.2708	0.1025	1.008
Mof_C 	C 	0.612	0.2396	0.112	-0.844
Mof_C 	C 	0.07905	0.82286	0.07905	-0.028
Mof_H 	H 	0.0726	0.842	0.0726	0.086
Mof_C 	C 	0.0937	0.761	0.0937	-0.773
Mof_C 	C 	0.1025	0.7291	0.1025	0.603
Mof_C 	C 	0.1025	0.7708	0.1025	1.01
Mof_C 	C 	0.112	0.7396	0.112	-0.844
Mof_C 	C 	0.07905	0.32286	0.57905	-0.028
Mof_H 	H 	0.0726	0.342	0.5726	0.086
Mof_C 	C 	0.0937	0.261	0.5937	-0.77
Mof_C 	C 	0.1025	0.2291	0.6025	0.603
Mof_C 	C 	0.1025	0.2708	0.6025	1.008
Mof_C 	C 	0.112	0.2396	0.612	-0.843
Mof_C 	C 	0.17714	0.57905	0.42095	-0.028
Mof_H 	H 	0.158	0.5726	0.4274	0.086
Mof_C 	C 	0.239	0.5937	0.4063	-0.768
Mof_C 	C 	0.2709	0.6025	0.3975	0.603
Mof_C 	C 	0.2292	0.6025	0.3975	1.006
Mof_C 	C 	0.2604	0.612	0.388	-0.844
Mof_C 	C 	0.17714	0.07905	0.92095	-0.028
Mof_H 	H 	0.158	0.0726	0.9274	0.086
Mof_C 	C 	0.239	0.0937	0.9063	-0.768
Mof_C 	C 	0.2709	0.1025	0.8975	0.603
Mof_C 	C 	0.2292	0.1025	0.8975	1.007
Mof_C 	C 	0.2604	0.112	0.888	-0.844
Mof_C 	C 	0.67714	0.57905	0.92095	-0.028
Mof_H 	H 	0.658	0.5726	0.9274	0.086
Mof_C 	C 	0.739	0.5937	0.9063	-0.766
Mof_C 	C 	0.7709	0.6025	0.8975	0.603
Mof_C 	C 	0.7292	0.6025	0.8975	1.005
Mof_C 	C 	0.7604	0.612	0.888	-0.844
Mof_C 	C 	0.67714	0.07905	0.42095	-0.028
Mof_H 	H 	0.658	0.0726	0.4274	0.086
Mof_C 	C 	0.739	0.0937	0.4063	-0.77
Mof_C 	C 	0.7709	0.1025	0.3975	0.603
Mof_C 	C 	0.7292	0.1025	0.3975	1.009
Mof_C 	C 	0.7604	0.112	0.388	-0.844
Mof_C 	C 	0.17714	0.42095	0.57905	-0.028
Mof_H 	H 	0.158	0.4274	0.5726	0.086
Mof_C 	C 	0.239	0.4063	0.5937	-0.768
Mof_C 	C 	0.2709	0.3975	0.6025	0.603
Mof_C 	C 	0.2292	0.3975	0.6025	1.006
Mof_C 	C 	0.2604	0.388	0.612	-0.844
Mof_C 	C 	0.17714	0.92095	0.07905	-0.028
Mof_H 	H 	0.158	0.9274	0.0726	0.086
Mof_C 	C 	0.239	0.9063	0.0937	-0.768
Mof_C 	C 	0.2709	0.8975	0.1025	0.603
Mof_C 	C 	0.2292	0.8975	0.1025	1.006
Mof_C 	C 	0.2604	0.888	0.112	-0.844
Mof_C 	C 	0.67714	0.42095	0.07905	-0.028
Mof_H 	H 	0.658	0.4274	0.0726	0.086
Mof_C 	C 	0.739	0.4063	0.0937	-0.77
Mof_C 	C 	0.7709	0.3975	0.1025	0.603
Mof_C 	C 	0.7292	0.3975	0.1025	1.008
Mof_C 	C 	0.7604	0.388	0.112	-0.844
Mof_C 	C 	0.67714	0.92095	0.57905	-0.028
Mof_H 	H 	0.658	0.9274	0.5726	0.086
Mof_C 	C 	0.739	0.9063	0.5937	-0.766
Mof_C 	C 	0.7709	0.8975	0.6025	0.603
Mof_C 	C 	0.7292	0.8975	0.6025	1.004
Mof_C 	C 	0.7604	0.888	0.612	-0.844
Mof_C 	C 	0.82286	0.57905	0.57905	-0.028
Mof_H 	H 	0.842	0.5726	0.5726	0.086
Mof_C 	C 	0.761	0.5937	0.5937	-0.768
Mof_C 	C 	0.7291	0.6025	0.6025	0.603
Mof_C 	C 	0.7708	0.6025	0.6025	1.006
Mof_C 	C 	0.7396	0.612	0.612	-0.844
Mof_C 	C 	0.82286	0.07905	0.07905	-0.028
Mof_H 	H 	0.842	0.0726	0.0726	0.086
Mof_C 	C 	0.761	0.0937	0.0937	-0.773
Mof_C 	C 	0.7291	0.1025	0.1025	0.603
Mof_C 	C 	0.7708	0.1025	0.1025	1.01
Mof_C 	C 	0.7396	0.112	0.112	-0.844
Mof_C 	C 	0.32286	0.57905	0.07905	-0.028
Mof_H 	H 	0.342	0.5726	0.0726	0.086
Mof_C 	C 	0.261	0.5937	0.0937	-0.77
Mof_C 	C 	0.2291	0.6025	0.1025	0.603
Mof_C 	C 	0.2708	0.6025	0.1025	1.008
Mof_C 	C 	0.2396	0.612	0.112	-0.843
Mof_C 	C 	0.32286	0.07905	0.57905	-0.028
Mof_H 	H 	0.342	0.0726	0.5726	0.086
Mof_C 	C 	0.261	0.0937	0.5937	-0.77
Mof_C 	C 	0.2291	0.1025	0.6025	0.603
Mof_C 	C 	0.2708	0.1025	0.6025	1.008
Mof_C 	C 	0.2396	0.112	0.612	-0.844
Mof_C 	C 	0.82286	0.42095	0.42095	-0.028
Mof_H 	H 	0.842	0.4274	0.4274	0.086
Mof_C 	C 	0.761	0.4063	0.4063	-0.768
Mof_C 	C 	0.7291	0.3975	0.3975	0.603
Mof_C 	C 	0.7708	0.3975	0.3975	1.006
Mof_C 	C 	0.7396	0.388	0.388	-0.844
Mof_C 	C 	0.82286	0.92095	0.92095	-0.028
Mof_H 	H 	0.842	0.9274	0.9274	0.086
Mof_C 	C 	0.761	0.9063	0.9063	-0.764
Mof_C 	C 	0.7291	0.8975	0.8975	0.603
Mof_C 	C 	0.7708	0.8975	0.8975	1.003
Mof_C 	C 	0.7396	0.888	0.888	-0.844
Mof_C 	C 	0.32286	0.42095	0.92095	-0.028
Mof_H 	H 	0.342	0.4274	0.9274	0.086
Mof_C 	C 	0.261	0.4063	0.9063	-0.766
Mof_C 	C 	0.2291	0.3975	0.8975	0.603
Mof_C 	C 	0.2708	0.3975	0.8975	1.005
Mof_C 	C 	0.2396	0.388	0.888	-0.844
Mof_C 	C 	0.32286	0.92095	0.42095	-0.028
Mof_H 	H 	0.342	0.9274	0.4274	0.086
Mof_C 	C 	0.261	0.9063	0.4063	-0.766
Mof_C 	C 	0.2291	0.8975	0.3975	0.603
Mof_C 	C 	0.2708	0.8975	0.3975	1.004
Mof_C 	C 	0.2396	0.888	0.388	-0.844
Mof_Cu	Cu	0.6003	0.65383	0.34617	0.585
Mof_O 	O 	0.5688	0.6769	0.3231	-0.345
Mof_Cu	Cu	0.613	0.66472	0.33528	0.594
Mof_Cu	Cu	0.6003	0.15383	0.84617	0.585
Mof_O 	O 	0.5688	0.1769	0.8231	-0.345
Mof_Cu	Cu	0.613	0.16472	0.83528	0.594
Mof_Cu	Cu	0.1003	0.65383	0.84617	0.585
Mof_O 	O 	0.0688	0.6769	0.8231	-0.345
Mof_Cu	Cu	0.113	0.66472	0.83528	0.594
Mof_Cu	Cu	0.1003	0.15383	0.34617	0.585
Mof_O 	O 	0.0688	0.1769	0.3231	-0.345
Mof_Cu	Cu	0.113	0.16472	0.33528	0.594
Mof_Cu	Cu	0.3997	0.34617	0.34617	0.585
Mof_O 	O 	0.4312	0.3231	0.3231	-0.345
Mof_Cu	Cu	0.387	0.33528	0.33528	0.594
Mof_Cu	Cu	0.3997	0.84617	0.84617	0.585
Mof_O 	O 	0.4312	0.8231	0.8231	-0.344
Mof_Cu	Cu	0.387	0.83528	0.83528	0.594
Mof_Cu	Cu	0.8997	0.34617	0.84617	0.585
Mof_O 	O 	0.9312	0.3231	0.8231	-0.344
Mof_Cu	Cu	0.887	0.33528	0.83528	0.594
Mof_Cu	Cu	0.8997	0.84617	0.34617	0.585
Mof_O 	O 	0.9312	0.8231	0.3231	-0.344
Mof_Cu	Cu	0.887	0.83528	0.33528	0.594
Mof_Cu	Cu	0.3997	0.65383	0.65383	0.585
Mof_O 	O 	0.4312	0.6769	0.6769	-0.345
Mof_Cu	Cu	0.387	0.66472	0.66472	0.594
Mof_Cu	Cu	0.3997	0.15383	0.15383	0.585
Mof_O 	O 	0.4312	0.1769	0.1769	-0.345
Mof_Cu	Cu	0.387	0.16472	0.16472	0.594
Mof_Cu	Cu	0.8997	0.65383	0.15383	0.585
Mof_O 	O 	0.9312	0.6769	0.1769	-0.344
Mof_Cu	Cu	0.887	0.66472	0.16472	0.594
Mof_Cu	Cu	0.8997	0.15383	0.65383	0.585
Mof_O 	O 	0.9312	0.1769	0.6769	-0.344
Mof_Cu	Cu	0.887	0.16472	0.66472	0.594
Mof_Cu	Cu	0.6003	0.34617	0.65383	0.585
Mof_O 	O 	0.5688	0.3231	0.6769	-0.345
Mof_Cu	Cu	0.613	0.33528	0.66472	0.594
Mof_Cu	Cu	0.6003	0.84617	0.15383	0.585
Mof_O 	O 	0.5688	0.8231	0.1769	-0.345
Mof_Cu	Cu	0.613	0.83528	0.16472	0.594
Mof_Cu	Cu	0.1003	0.34617	0.15383	0.585
Mof_O 	O 	0.0688	0.3231	0.1769	-0.345
Mof_Cu	Cu	0.113	0.33528	0.16472	0.594
Mof_Cu	Cu	0.1003	0.84617	0.65383	0.585
Mof_O 	O 	0.0688	0.8231	0.6769	-0.345
Mof_Cu	Cu	0.113	0.83528	0.66472	0.594
Mof_Cu	Cu	0.34617	0.6003	0.65383	0.585
Mof_O 	O 	0.3231	0.5688	0.6769	-0.345
Mof_Cu	Cu	0.33528	0.613	0.66472	0.594
Mof_Cu	Cu	0.34617	0.1003	0.15383	0.585
Mof_O 	O 	0.3231	0.0688	0.1769	-0.345
Mof_Cu	Cu	0.33528	0.113	0.16472	0.594
Mof_Cu	Cu	0.84617	0.6003	0.15383	0.585
Mof_O 	O 	0.8231	0.5688	0.1769	-0.345
Mof_Cu	Cu	0.83528	0.613	0.16472	0.594
Mof_Cu	Cu	0.84617	0.1003	0.65383	0.585
Mof_O 	O 	0.8231	0.0688	0.6769	-0.345
Mof_Cu	Cu	0.83528	0.113	0.66472	0.594
Mof_Cu	Cu	0.34617	0.3997	0.34617	0.585
Mof_O 	O 	0.3231	0.4312	0.3231	-0.345
Mof_Cu	Cu	0.33528	0.387	0.33528	0.594
Mof_Cu	Cu	0.34617	0.8997	0.84617	0.585
Mof_O 	O 	0.3231	0.9312	0.8231	-0.344
Mof_Cu	Cu	0.33528	0.887	0.83528	0.594
Mof_Cu	Cu	0.84617	0.3997	0.84617	0.585
Mof_O 	O 	0.8231	0.4312	0.8231	-0.344
Mof_Cu	Cu	0.83528	0.387	0.83528	0.594
Mof_Cu	Cu	0.84617	0.8997	0.34617	0.585
Mof_O 	O 	0.8231	0.9312	0.3231	-0.344
Mof_Cu	Cu	0.83528	0.887	0.33528	0.594
Mof_Cu	Cu	0.65383	0.3997	0.65383	0.585
Mof_O 	O 	0.6769	0.4312	0.6769	-0.345
Mof_Cu	Cu	0.66472	0.387	0.66472	0.594
Mof_Cu	Cu	0.65383	0.8997	0.15383	0.585
Mof_O 	O 	0.6769	0.9312	0.1769	-0.344
Mof_Cu	Cu	0.66472	0.887	0.16472	0.594
Mof_Cu	Cu	0.15383	0.3997	0.15383	0.585
Mof_O 	O 	0.1769	0.4312	0.1769	-0.345
Mof_Cu	Cu	0.16472	0.387	0.16472	0.594
Mof_Cu	Cu	0.15383	0.8997	0.65383	0.585
Mof_O 	O 	0.1769	0.9312	0.6769	-0.344
Mof_Cu	Cu	0.16472	0.887	0.66472	0.594
Mof_Cu	Cu	0.65383	0.6003	0.34617	0.585
Mof_O 	O 	0.6769	0.5688	0.3231	-0.345
Mof_Cu	Cu	0.66472	0.613	0.33528	0.594
Mof_Cu	Cu	0.65383	0.1003	0.84617	0.585
Mof_O 	O 	0.6769	0.0688	0.8231	-0.345
Mof_Cu	Cu	0.66472	0.113	0.83528	0.594
Mof_Cu	Cu	0.15383	0.6003	0.84617	0.585
Mof_O 	O 	0.1769	0.5688	0.8231	-0.345
Mof_Cu	Cu	0.16472	0.613	0.83528	0.594
Mof_Cu	Cu	0.15383	0.1003	0.34617	0.585
Mof_O 	O 	0.1769	0.0688	0.3231	-0.345
Mof_Cu	Cu	0.16472	0.113	0.33528	0.594
Mof_Cu	Cu	0.65383	0.34617	0.6003	0.585
Mof_O 	O 	0.6769	0.3231	0.5688	-0.345
Mof_Cu	Cu	0.66472	0.33528	0.613	0.594
Mof_Cu	Cu	0.65383	0.84617	0.1003	0.585
Mof_O 	O 	0.6769	0.8231	0.0688	-0.345
Mof_Cu	Cu	0.66472	0.83528	0.113	0.594
Mof_Cu	Cu	0.15383	0.34617	0.1003	0.585
Mof_O 	O 	0.1769	0.3231	0.0688	-0.345
Mof_Cu	Cu	0.16472	0.33528	0.113	0.594
Mof_Cu	Cu	0.15383	0.84617	0.6003	0.585
Mof_O 	O 	0.1769	0.8231	0.5688	-0.345
Mof_Cu	Cu	0.16472	0.83528	0.613	0.594
Mof_Cu	Cu	0.34617	0.34617	0.3997	0.585
Mof_O 	O 	0.3231	0.3231	0.4312	-0.345
Mof_Cu	Cu	0.33528	0.33528	0.387	0.594
Mof_Cu	Cu	0.34617	0.84617	0.8997	0.585
Mof_O 	O 	0.3231	0.8231	0.9312	-0.344
Mof_Cu	Cu	0.33528	0.83528	0.887	0.594
Mof_Cu	Cu	0.84617	0.34617	0.8997	0.585
Mof_O 	O 	0.8231	0.3231	0.9312	-0.344
Mof_Cu	Cu	0.83528	0.33528	0.887	0.594
Mof_Cu	Cu	0.84617	0.84617	0.3997	0.585
Mof_O 	O 	0.8231	0.8231	0.4312	-0.344
Mof_Cu	Cu	0.83528	0.83528	0.387	0.594
Mof_Cu	Cu	0.65383	0.65383	0.3997	0.585
Mof_O 	O 	0.6769	0.6769	0.4312	-0.345
Mof_Cu	Cu	0.66472	0.66472	0.387	0.594
Mof_Cu	Cu	0.65383	0.15383	0.8997	0.585
Mof_O 	O 	0.6769	0.1769	0.9312	-0.344
Mof_Cu	Cu	0.66472	0.16472	0.887	0.594
Mof_Cu	Cu	0.15383	0.65383	0.8997	0.585
Mof_O 	O 	0.1769	0.6769	0.9312	-0.344
Mof_Cu	Cu	0.16472	0.66472	0.887	0.594
Mof_Cu	Cu	0.15383	0.15383	0.3997	0.585
Mof_O 	O 	0.1769	0.1769	0.4312	-0.345
Mof_Cu	Cu	0.16472	0.16472	0.387	0.594
Mof_Cu	Cu	0.34617	0.65383	0.6003	0.585
Mof_O 	O 	0.3231	0.6769	0.5688	-0.345
Mof_Cu	Cu	0.33528	0.66472	0.613	0.594
Mof_Cu	Cu	0.34617	0.15383	0.1003	0.585
Mof_O 	O 	0.3231	0.1769	0.0688	-0.345
Mof_Cu	Cu	0.33528	0.16472	0.113	0.594
Mof_Cu	Cu	0.84617	0.65383	0.1003	0.585
Mof_O 	O 	0.8231	0.6769	0.0688	-0.345
Mof_Cu	Cu	0.83528	0.66472	0.113	0.594
Mof_Cu	Cu	0.84617	0.15383	0.6003	0.585
Mof_O 	O 	0.8231	0.1769	0.5688	-0.345
Mof_Cu	Cu	0.83528	0.16472	0.613	0.594
Mof_Cu	Cu	0.65383	0.6003	0.65383	0.585
Mof_O 	O 	0.6769	0.5688	0.6769	-0.345
Mof_Cu	Cu	0.66472	0.613	0.66472	0.594
Mof_Cu	Cu	0.65383	0.1003	0.15383	0.585
Mof_O 	O 	0.6769	0.0688	0.1769	-0.345
Mof_Cu	Cu	0.66472	0.113	0.16472	0.594
Mof_Cu	Cu	0.15383	0.6003	0.15383	0.585
Mof_O 	O 	0.1769	0.5688	0.1769	-0.345
Mof_Cu	Cu	0.16472	0.613	0.16472	0.594
Mof_Cu	Cu	0.15383	0.1003	0.65383	0.585
Mof_O 	O 	0.1769	0.0688	0.6769	-0.345
Mof_Cu	Cu	0.16472	0.113	0.66472	0.594
Mof_Cu	Cu	0.34617	0.3997	0.65383	0.585
Mof_O 	O 	0.3231	0.4312	0.6769	-0.345
Mof_Cu	Cu	0.33528	0.387	0.66472	0.594
Mof_Cu	Cu	0.34617	0.8997	0.15383	0.585
Mof_O 	O 	0.3231	0.9312	0.1769	-0.344
Mof_Cu	Cu	0.33528	0.887	0.16472	0.594
Mof_Cu	Cu	0.84617	0.3997	0.15383	0.585
Mof_O 	O 	0.8231	0.4312	0.1769	-0.345
Mof_Cu	Cu	0.83528	0.387	0.16472	0.594
Mof_Cu	Cu	0.84617	0.8997	0.65383	0.585
Mof_O 	O 	0.8231	0.9312	0.6769	-0.344
Mof_Cu	Cu	0.83528	0.887	0.66472	0.594
Mof_Cu	Cu	0.65383	0.3997	0.34617	0.585
Mof_O 	O 	0.6769	0.4312	0.3231	-0.345
Mof_Cu	Cu	0.66472	0.387	0.33528	0.594
Mof_Cu	Cu	0.65383	0.8997	0.84617	0.585
Mof_O 	O 	0.6769	0.9312	0.8231	-0.344
Mof_Cu	Cu	0.66472	0.887	0.83528	0.594
Mof_Cu	Cu	0.15383	0.3997	0.84617	0.585
Mof_O 	O 	0.1769	0.4312	0.8231	-0.345
Mof_Cu	Cu	0.16472	0.387	0.83528	0.594
Mof_Cu	Cu	0.15383	0.8997	0.34617	0.585
Mof_O 	O 	0.1769	0.9312	0.3231	-0.344
Mof_Cu	Cu	0.16472	0.887	0.33528	0.594
Mof_Cu	Cu	0.34617	0.6003	0.34617	0.585
Mof_O 	O 	0.3231	0.5688	0.3231	-0.345
Mof_Cu	Cu	0.33528	0.613	0.33528	0.594
Mof_Cu	Cu	0.34617	0.1003	0.84617	0.585
Mof_O 	O 	0.3231	0.0688	0.8231	-0.345
Mof_Cu	Cu	0.33528	0.113	0.83528	0.594
Mof_Cu	Cu	0.84617	0.6003	0.84617	0.585
Mof_O 	O 	0.8231	0.5688	0.8231	-0.344
Mof_Cu	Cu	0.83528	0.613	0.83528	0.594
Mof_Cu	Cu	0.84617	0.1003	0.34617	0.585
Mof_O 	O 	0.8231	0.0688	0.3231	-0.345
Mof_Cu	Cu	0.83528	0.113	0.33528	0.594
Mof_Cu	Cu	0.6003	0.34617	0.34617	0.585
Mof_O 	O 	0.5688	0.3231	0.3231	-0.345
Mof_Cu	Cu	0.613	0.33528	0.33528	0.594
Mof_Cu	Cu	0.6003	0.84617	0.84617	0.585
Mof_O 	O 	0.5688	0.8231	0.8231	-0.344
Mof_Cu	Cu	0.613	0.83528	0.83528	0.594
Mof_Cu	Cu	0.1003	0.34617	0.84617	0.585
Mof_O 	O 	0.0688	0.3231	0.8231	-0.345
Mof_Cu	Cu	0.113	0.33528	0.83528	0.594
Mof_Cu	Cu	0.1003	0.84617	0.34617	0.585
Mof_O 	O 	0.0688	0.8231	0.3231	-0.345
Mof_Cu	Cu	0.113	0.83528	0.33528	0.594
Mof_Cu	Cu	0.3997	0.34617	0.65383	0.585
Mof_O 	O 	0.4312	0.3231	0.6769	-0.345
Mof_Cu	Cu	0.387	0.33528	0.66472	0.594
Mof_Cu	Cu	0.3997	0.84617	0.15383	0.585
Mof_O 	O 	0.4312	0.8231	0.1769	-0.345
Mof_Cu	Cu	0.387	0.83528	0.16472	0.594
Mof_Cu	Cu	0.8997	0.34617	0.15383	0.585
Mof_O 	O 	0.9312	0.3231	0.1769	-0.344
Mof_Cu	Cu	0.887	0.33528	0.16472	0.594
Mof_Cu	Cu	0.8997	0.84617	0.65383	0.585
Mof_O 	O 	0.9312	0.8231	0.6769	-0.344
Mof_Cu	Cu	0.887	0.83528	0.66472	0.594
Mof_Cu	Cu	0.3997	0.65383	0.34617	0.585
Mof_O 	O 	0.4312	0.6769	0.3231	-0.345
Mof_Cu	Cu	0.387	0.66472	0.33528	0.594
Mof_Cu	Cu	0.3997	0.15383	0.84617	0.585
Mof_O 	O 	0.4312	0.1769	0.8231	-0.345
Mof_Cu	Cu	0.387	0.16472	0.83528	0.594
Mof_Cu	Cu	0.8997	0.65383	0.84617	0.585
Mof_O 	O 	0.9312	0.6769	0.8231	-0.344
Mof_Cu	Cu	0.887	0.66472	0.83528	0.594
Mof_Cu	Cu	0.8997	0.15383	0.34617	0.585
Mof_O 	O 	0.9312	0.1769	0.3231	-0.344
Mof_Cu	Cu	0.887	0.16472	0.33528	0.594
Mof_Cu	Cu	0.6003	0.65383	0.65383	0.585
Mof_O 	O 	0.5688	0.6769	0.6769	-0.345
Mof_Cu	Cu	0.613	0.66472	0.66472	0.594
Mof_Cu	Cu	0.6003	0.15383	0.15383	0.585
Mof_O 	O 	0.5688	0.1769	0.1769	-0.345
Mof_Cu	Cu	0.613	0.16472	0.16472	0.594
Mof_Cu	Cu	0.1003	0.65383	0.15383	0.585
Mof_O 	O 	0.0688	0.6769	0.1769	-0.345
Mof_Cu	Cu	0.113	0.66472	0.16472	0.594
Mof_Cu	Cu	0.1003	0.15383	0.65383	0.585
Mof_O 	O 	0.0688	0.1769	0.6769	-0.345
Mof_Cu	Cu	0.113	0.16472	0.66472	0.594
Mof_Cu	Cu	0.34617	0.65383	0.3997	0.585
Mof_O 	O 	0.3231	0.6769	0.4312	-0.345
Mof_Cu	Cu	0.33528	0.66472	0.387	0.594
Mof_Cu	Cu	0.34617	0.15383	0.8997	0.585
Mof_O 	O 	0.3231	0.1769	0.9312	-0.344
Mof_Cu	Cu	0.33528	0.16472	0.887	0.594
Mof_Cu	Cu	0.84617	0.65383	0.8997	0.585
Mof_O 	O 	0.8231	0.6769	0.9312	-0.344
Mof_Cu	Cu	0.83528	0.66472	0.887	0.594
Mof_Cu	Cu	0.84617	0.15383	0.3997	0.585
Mof_O 	O 	0.8231	0.1769	0.4312	-0.345
Mof_Cu	Cu	0.83528	0.16472	0.387	0.594
Mof_Cu	Cu	0.34617	0.34617	0.6003	0.585
Mof_O 	O 	0.3231	0.3231	0.5688	-0.345
Mof_Cu	Cu	0.33528	0.33528	0.613	0.594
Mof_Cu	Cu	0.34617	0.84617	0.1003	0.585
Mof_O 	O 	0.3231	0.8231	0.0688	-0.345
Mof_Cu	Cu	0.33528	0.83528	0.113	0.594
Mof_Cu	Cu	0.84617	0.34617	0.1003	0.585
Mof_O 	O 	0.8231	0.3231	0.0688	-0.345
Mof_Cu	Cu	0.83528	0.33528	0.113	0.594
Mof_Cu	Cu	0.84617	0.84617	0.6003	0.585
Mof_O 	O 	0.8231	0.8231	0.5688	-0.344
Mof_Cu	Cu	0.83528	0.83528	0.613	0.594
Mof_Cu	Cu	0.65383	0.65383	0.6003	0.585
Mof_O 	O 	0.6769	0.6769	0.5688	-0.345
Mof_Cu	Cu	0.66472	0.66472	0.613	0.594
Mof_Cu	Cu	0.65383	0.15383	0.1003	0.585
Mof_O 	O 	0.6769	0.1769	0.0688	-0.345
Mof_Cu	Cu	0.66472	0.16472	0.113	0.594
Mof_Cu	Cu	0.15383	0.65383	0.1003	0.585
Mof_O 	O 	0.1769	0.6769	0.0688	-0.345
Mof_Cu	Cu	0.16472	0.66472	0.113	0.594
Mof_Cu	Cu	0.15383	0.15383	0.6003	0.585
Mof_O 	O 	0.1769	0.1769	0.5688	-0.345
Mof_Cu	Cu	0.16472	0.16472	0.613	0.594
Mof_Cu	Cu	0.65383	0.34617	0.3997	0.585
Mof_O 	O 	0.6769	0.3231	0.4312	-0.345
Mof_Cu	Cu	0.66472	0.33528	0.387	0.594
Mof_Cu	Cu	0.65383	0.84617	0.8997	0.585
Mof_O 	O 	0.6769	0.8231	0.9312	-0.344
Mof_Cu	Cu	0.66472	0.83528	0.887	0.594
Mof_Cu	Cu	0.15383	0.34617	0.8997	0.585
Mof_O 	O 	0.1769	0.3231	0.9312	-0.344
Mof_Cu	Cu	0.16472	0.33528	0.887	0.594
Mof_Cu	Cu	0.15383	0.84617	0.3997	0.585
Mof_O 	O 	0.1769	0.8231	0.4312	-0.345
Mof_Cu	Cu	0.16472	0.83528	0.387	0.594
Mof_O 	O 	0.6336	0.6336	0.3664	-0.337
Mof_O 	O 	0.6442	0.6442	0.3558	-0.481
Mof_O 	O 	0.6336	0.1336	0.8664	-0.337
Mof_O 	O 	0.6442	0.1442	0.8558	-0.481
Mof_O 	O 	0.1336	0.6336	0.8664	-0.337
Mof_O 	O 	0.1442	0.6442	0.8558	-0.481
Mof_O 	O 	0.1336	0.1336	0.3664	-0.338
Mof_O 	O 	0.1442	0.1442	0.3558	-0.481
Mof_O 	O 	0.3664	0.3664	0.3664	-0.337
Mof_O 	O 	0.3558	0.3558	0.3558	-0.481
Mof_O 	O 	0.3664	0.8664	0.8664	-0.336
Mof_O 	O 	0.3558	0.8558	0.8558	-0.481
Mof_O 	O 	0.8664	0.3664	0.8664	-0.336
Mof_O 	O 	0.8558	0.3558	0.8558	-0.481
Mof_O 	O 	0.8664	0.8664	0.3664	-0.336
Mof_O 	O 	0.8558	0.8558	0.3558	-0.481
Mof_O 	O 	0.3664	0.6336	0.6336	-0.337
Mof_O 	O 	0.3558	0.6442	0.6442	-0.481
Mof_O 	O 	0.3664	0.1336	0.1336	-0.338
Mof_O 	O 	0.3558	0.1442	0.1442	-0.481
Mof_O 	O 	0.8664	0.6336	0.1336	-0.337
Mof_O 	O 	0.8558	0.6442	0.1442	-0.481
Mof_O 	O 	0.8664	0.1336	0.6336	-0.337
Mof_O 	O 	0.8558	0.1442	0.6442	-0.481
Mof_O 	O 	0.6336	0.3664	0.6336	-0.337
Mof_O 	O 	0.6442	0.3558	0.6442	-0.481
Mof_O 	O 	0.6336	0.8664	0.1336	-0.337
Mof_O 	O 	0.6442	0.8558	0.1442	-0.481
Mof_O 	O 	0.1336	0.3664	0.1336	-0.338
Mof_O 	O 	0.1442	0.3558	0.1442	-0.481
Mof_O 	O 	0.1336	0.8664	0.6336	-0.337
Mof_O 	O 	0.1442	0.8558	0.6442	-0.481
Mof_O 	O 	0.6336	0.6336	0.6336	-0.337
Mof_O 	O 	0.6442	0.6442	0.6442	-0.481
Mof_O 	O 	0.6336	0.1336	0.1336	-0.338
Mof_O 	O 	0.6442	0.1442	0.1442	-0.481
Mof_O 	O 	0.1336	0.6336	0.1336	-0.338
Mof_O 	O 	0.1442	0.6442	0.1442	-0.481
Mof_O 	O 	0.1336	0.1336	0.6336	-0.338
Mof_O 	O 	0.1442	0.1442	0.6442	-0.481
Mof_O 	O 	0.3664	0.3664	0.6336	-0.337
Mof_O 	O 	0.3558	0.3558	0.6442	-0.481
Mof_O 	O 	0.3664	0.8664	0.1336	-0.337
Mof_O 	O 	0.3558	0.8558	0.1442	-0.481
Mof_O 	O 	0.8664	0.3664	0.1336	-0.337
Mof_O 	O 	0.8558	0.3558	0.1442	-0.481
Mof_O 	O 	0.8664	0.8664	0.6336	-0.336
Mof_O 	O 	0.8558	0.8558	0.6442	-0.481
Mof_O 	O 	0.6336	0.3664	0.3664	-0.337
Mof_O 	O 	0.6442	0.3558	0.3558	-0.481
Mof_O 	O 	0.6336	0.8664	0.8664	-0.336
Mof_O 	O 	0.6442	0.8558	0.8558	-0.481
Mof_O 	O 	0.1336	0.3664	0.8664	-0.337
Mof_O 	O 	0.1442	0.3558	0.8558	-0.481
Mof_O 	O 	0.1336	0.8664	0.3664	-0.337
Mof_O 	O 	0.1442	0.8558	0.3558	-0.481
Mof_O 	O 	0.3664	0.6336	0.3664	-0.337
Mof_O 	O 	0.3558	0.6442	0.3558	-0.481
Mof_O 	O 	0.3664	0.1336	0.8664	-0.337
Mof_O 	O 	0.3558	0.1442	0.8558	-0.481
Mof_O 	O 	0.8664	0.6336	0.8664	-0.336
Mof_O 	O 	0.8558	0.6442	0.8558	-0.481
Mof_O 	O 	0.8664	0.1336	0.3664	-0.337
Mof_O 	O 	0.8558	0.1442	0.3558	-0.481
_end
