data_functionalizedCrystal
_audit_creation_method	'EQeq! by Chris Wilmer'
_symmetry_space_group_name_H-M	'P1'
_symmetry_Int_Tables_number	1
_symmetry_cell_setting	triclinic
loop_
_symmetry_equiv_pos_as_xyz
  x,y,z
_cell_length_a	48.7999
_cell_length_b	48.7999
_cell_length_c	8.4529
_cell_angle_alpha	90
_cell_angle_beta	90
_cell_angle_gamma	120
loop_
_atom_site_label
_atom_site_type_symbol
_atom_site_fract_x
_atom_site_fract_y
_atom_site_fract_z
_atom_site_charge
Mof_K 	K 	0.82706	0.07445	0.43158	3.429
Mof_Eu	Eu	0.82765	0.15298	0.11809	2.306
Mof_S 	S 	0.84792	0.09178	0.06418	0.67
Mof_S 	S 	0.65891	0.91032	0.8988	0.674
Mof_O 	O 	0.82728	0.1332	0.8596	-0.725
Mof_O 	O 	0.82386	0.11444	0.6218	-0.928
Mof_O 	O 	0.84006	0.11159	0.163	-0.841
Mof_O 	O 	0.8541	0.07122	0.1647	-0.802
Mof_O 	O 	0.87188	0.1096	0.9496	-0.709
Mof_O 	O 	0.69302	0.87877	0.286	-0.545
Mof_O 	O 	0.67663	0.86058	0.0484	-0.724
Mof_O 	O 	0.63836	0.89452	0.0312	-0.654
Mof_O 	O 	0.65993	0.8884	0.7842	-0.589
Mof_O 	O 	0.65419	0.93422	0.8219	-0.334
Mof_C 	C 	0.80321	0.07694	0.8267	-0.201
Mof_C 	C 	0.81253	0.06626	0.9569	-0.182
Mof_C 	C 	0.79487	0.0349	0.0052	0.015
Mof_H 	H 	0.8013	0.0283	0.0938	-0.116
Mof_C 	C 	0.76818	0.01347	0.9251	-0.092
Mof_C 	C 	0.76037	0.02343	0.7914	-0.045
Mof_H 	H 	0.7434	0.0088	0.7311	-0.01
Mof_C 	C 	0.77718	0.05511	0.7416	-0.148
Mof_H 	H 	0.7708	0.0614	0.6515	-0.034
Mof_C 	C 	0.81949	0.11027	0.7648	0.535
Mof_C 	C 	0.74842	0.9805	0.9804	0.021
Mof_C 	C 	0.76054	0.96567	0.0773	-0.134
Mof_H 	H 	0.7818	0.9765	0.1054	-0.013
Mof_C 	C 	0.74136	0.93546	0.1309	0.009
Mof_H 	H 	0.7493	0.927	0.2039	-0.037
Mof_C 	C 	0.71039	0.91721	0.0791	-0.139
Mof_C 	C 	0.69822	0.9302	0.9795	-0.075
Mof_C 	C 	0.71706	0.96225	0.9339	-0.081
Mof_H 	H 	0.7081	0.9714	0.8709	0.064
Mof_C 	C 	0.69184	0.88328	0.14	0.435
Mof_K 	K 	0.49373	0.40778	0.76491	3.456
Mof_Eu	Eu	0.49432	0.48631	0.45142	2.305
Mof_S 	S 	0.51459	0.42511	0.39751	0.662
Mof_S 	S 	0.32558	0.24365	0.23213	0.669
Mof_O 	O 	0.49395	0.46653	0.19293	-0.724
Mof_O 	O 	0.49053	0.44777	0.95513	-0.915
Mof_O 	O 	0.50673	0.44492	0.49633	-0.841
Mof_O 	O 	0.52077	0.40455	0.49803	-0.804
Mof_O 	O 	0.53855	0.44293	0.28293	-0.706
Mof_O 	O 	0.35969	0.2121	0.61933	-0.544
Mof_O 	O 	0.3433	0.19391	0.38173	-0.723
Mof_O 	O 	0.30503	0.22785	0.36453	-0.651
Mof_O 	O 	0.3266	0.22173	0.11753	-0.589
Mof_O 	O 	0.32086	0.26755	0.15523	-0.337
Mof_C 	C 	0.46988	0.41027	0.16003	-0.188
Mof_C 	C 	0.4792	0.39959	0.29023	-0.181
Mof_C 	C 	0.46154	0.36823	0.33853	0.009
Mof_H 	H 	0.46797	0.36163	0.42713	-0.114
Mof_C 	C 	0.43485	0.3468	0.25843	-0.09
Mof_C 	C 	0.42704	0.35676	0.12473	-0.03
Mof_H 	H 	0.41007	0.34213	0.06443	-0.017
Mof_C 	C 	0.44385	0.38844	0.07493	-0.189
Mof_H 	H 	0.43747	0.39473	0.98483	-0.012
Mof_C 	C 	0.48616	0.4436	0.09813	0.509
Mof_C 	C 	0.41509	0.31383	0.31373	0.017
Mof_C 	C 	0.42721	0.299	0.41063	-0.135
Mof_H 	H 	0.44847	0.30983	0.43873	-0.016
Mof_C 	C 	0.40803	0.26879	0.46423	0.007
Mof_H 	H 	0.41597	0.26033	0.53723	-0.037
Mof_C 	C 	0.37706	0.25054	0.41243	-0.138
Mof_C 	C 	0.36489	0.26353	0.31283	-0.076
Mof_C 	C 	0.38373	0.29558	0.26723	-0.08
Mof_H 	H 	0.37477	0.30473	0.20423	0.061
Mof_C 	C 	0.35851	0.21661	0.47333	0.434
Mof_K 	K 	0.16039	0.74112	0.09825	3.402
Mof_Eu	Eu	0.16098	0.81965	0.78476	2.315
Mof_S 	S 	0.18125	0.75845	0.73085	0.658
Mof_S 	S 	0.99224	0.57699	0.56547	0.664
Mof_O 	O 	0.16061	0.79987	0.52627	-0.727
Mof_O 	O 	0.15719	0.78111	0.28847	-0.926
Mof_O 	O 	0.17339	0.77826	0.82967	-0.834
Mof_O 	O 	0.18743	0.73789	0.83137	-0.794
Mof_O 	O 	0.20521	0.77627	0.61627	-0.704
Mof_O 	O 	0.02635	0.54544	0.95267	-0.537
Mof_O 	O 	0.00996	0.52725	0.71507	-0.718
Mof_O 	O 	0.97169	0.56119	0.69787	-0.653
Mof_O 	O 	0.99326	0.55507	0.45087	-0.589
Mof_O 	O 	0.98752	0.60089	0.48857	-0.337
Mof_C 	C 	0.13654	0.74361	0.49337	-0.211
Mof_C 	C 	0.14586	0.73293	0.62357	-0.165
Mof_C 	C 	0.1282	0.70157	0.67187	-0.007
Mof_H 	H 	0.13463	0.69497	0.76047	-0.105
Mof_C 	C 	0.10151	0.68014	0.59177	-0.069
Mof_C 	C 	0.0937	0.6901	0.45807	-0.06
Mof_H 	H 	0.07673	0.67547	0.39777	-0.003
Mof_C 	C 	0.11051	0.72178	0.40827	-0.135
Mof_H 	H 	0.10413	0.72807	0.31817	-0.038
Mof_C 	C 	0.15282	0.77694	0.43147	0.538
Mof_C 	C 	0.08175	0.64717	0.64707	0.01
Mof_C 	C 	0.09387	0.63234	0.74397	-0.128
Mof_H 	H 	0.11513	0.64317	0.77207	-0.016
Mof_C 	C 	0.07469	0.60213	0.79757	0.004
Mof_H 	H 	0.08263	0.59367	0.87057	-0.033
Mof_C 	C 	0.04372	0.58388	0.74577	-0.134
Mof_C 	C 	0.03155	0.59687	0.64617	-0.073
Mof_C 	C 	0.05039	0.62892	0.60057	-0.076
Mof_H 	H 	0.04143	0.63807	0.53757	0.062
Mof_C 	C 	0.02517	0.54995	0.80667	0.433
Mof_K 	K 	0.92555	0.75261	0.43158	3.431
Mof_Eu	Eu	0.84702	0.67467	0.11809	2.307
Mof_S 	S 	0.90822	0.75614	0.06418	0.672
Mof_S 	S 	0.08968	0.74859	0.8988	0.675
Mof_O 	O 	0.8668	0.69408	0.8596	-0.724
Mof_O 	O 	0.88556	0.70942	0.6218	-0.927
Mof_O 	O 	0.88841	0.72847	0.163	-0.841
Mof_O 	O 	0.92878	0.78288	0.1647	-0.802
Mof_O 	O 	0.8904	0.76228	0.9496	-0.709
Mof_O 	O 	0.12123	0.81425	0.286	-0.545
Mof_O 	O 	0.13942	0.81605	0.0484	-0.724
Mof_O 	O 	0.10548	0.74384	0.0312	-0.654
Mof_O 	O 	0.1116	0.77153	0.7842	-0.589
Mof_O 	O 	0.06578	0.71997	0.8219	-0.334
Mof_C 	C 	0.92306	0.72627	0.8267	-0.201
Mof_C 	C 	0.93374	0.74627	0.9569	-0.182
Mof_C 	C 	0.9651	0.75997	0.0052	0.015
Mof_H 	H 	0.9717	0.773	0.0938	-0.116
Mof_C 	C 	0.98653	0.75471	0.9251	-0.092
Mof_C 	C 	0.97657	0.73694	0.7914	-0.045
Mof_H 	H 	0.9912	0.7346	0.7311	-0.01
Mof_C 	C 	0.94489	0.72207	0.7416	-0.149
Mof_H 	H 	0.9386	0.7094	0.6515	-0.034
Mof_C 	C 	0.88973	0.70922	0.7648	0.535
Mof_C 	C 	0.0195	0.76792	0.9804	0.021
Mof_C 	C 	0.03433	0.79487	0.0773	-0.134
Mof_H 	H 	0.0235	0.8053	0.1054	-0.012
Mof_C 	C 	0.06454	0.8059	0.1309	0.009
Mof_H 	H 	0.073	0.8223	0.2039	-0.037
Mof_C 	C 	0.08279	0.79318	0.0791	-0.139
Mof_C 	C 	0.0698	0.76802	0.9795	-0.075
Mof_C 	C 	0.03775	0.75481	0.9339	-0.081
Mof_H 	H 	0.0286	0.7367	0.8709	0.064
Mof_C 	C 	0.11672	0.80856	0.14	0.435
Mof_K 	K 	0.59222	0.08594	0.76491	3.456
Mof_Eu	Eu	0.51369	0.008	0.45142	2.293
Mof_S 	S 	0.57489	0.08947	0.39751	0.662
Mof_S 	S 	0.75635	0.08192	0.23213	0.669
Mof_O 	O 	0.53347	0.02741	0.19293	-0.723
Mof_O 	O 	0.55223	0.04275	0.95513	-0.915
Mof_O 	O 	0.55508	0.0618	0.49633	-0.839
Mof_O 	O 	0.59545	0.11621	0.49803	-0.804
Mof_O 	O 	0.55707	0.09561	0.28293	-0.705
Mof_O 	O 	0.7879	0.14758	0.61933	-0.544
Mof_O 	O 	0.80609	0.14938	0.38173	-0.723
Mof_O 	O 	0.77215	0.07717	0.36453	-0.651
Mof_O 	O 	0.77827	0.10486	0.11753	-0.589
Mof_O 	O 	0.73245	0.0533	0.15523	-0.338
Mof_C 	C 	0.58973	0.0596	0.16003	-0.188
Mof_C 	C 	0.60041	0.0796	0.29023	-0.181
Mof_C 	C 	0.63177	0.0933	0.33853	0.009
Mof_H 	H 	0.63837	0.10633	0.42713	-0.114
Mof_C 	C 	0.6532	0.08804	0.25843	-0.09
Mof_C 	C 	0.64324	0.07027	0.12473	-0.03
Mof_H 	H 	0.65787	0.06793	0.06443	-0.018
Mof_C 	C 	0.61156	0.0554	0.07493	-0.189
Mof_H 	H 	0.60527	0.04273	0.98483	-0.012
Mof_C 	C 	0.5564	0.04255	0.09813	0.508
Mof_C 	C 	0.68617	0.10125	0.31373	0.017
Mof_C 	C 	0.701	0.1282	0.41063	-0.135
Mof_H 	H 	0.69017	0.13863	0.43873	-0.016
Mof_C 	C 	0.73121	0.13923	0.46423	0.006
Mof_H 	H 	0.73967	0.15563	0.53723	-0.037
Mof_C 	C 	0.74946	0.12651	0.41243	-0.138
Mof_C 	C 	0.73647	0.10135	0.31283	-0.076
Mof_C 	C 	0.70442	0.08814	0.26723	-0.08
Mof_H 	H 	0.69527	0.07003	0.20423	0.061
Mof_C 	C 	0.78339	0.14189	0.47333	0.434
Mof_K 	K 	0.25888	0.41928	0.09825	3.401
Mof_Eu	Eu	0.18035	0.34134	0.78476	2.314
Mof_S 	S 	0.24155	0.42281	0.73085	0.658
Mof_S 	S 	0.42301	0.41526	0.56547	0.67
Mof_O 	O 	0.20013	0.36075	0.52627	-0.726
Mof_O 	O 	0.21889	0.37609	0.28847	-0.926
Mof_O 	O 	0.22174	0.39514	0.82967	-0.834
Mof_O 	O 	0.26211	0.44955	0.83137	-0.794
Mof_O 	O 	0.22373	0.42895	0.61627	-0.704
Mof_O 	O 	0.45456	0.48092	0.95267	-0.541
Mof_O 	O 	0.47275	0.48272	0.71507	-0.724
Mof_O 	O 	0.43881	0.41051	0.69787	-0.653
Mof_O 	O 	0.44493	0.4382	0.45087	-0.59
Mof_O 	O 	0.39911	0.38664	0.48857	-0.336
Mof_C 	C 	0.25639	0.39294	0.49337	-0.211
Mof_C 	C 	0.26707	0.41294	0.62357	-0.164
Mof_C 	C 	0.29843	0.42664	0.67187	-0.007
Mof_H 	H 	0.30503	0.43967	0.76047	-0.105
Mof_C 	C 	0.31986	0.42138	0.59177	-0.069
Mof_C 	C 	0.3099	0.40361	0.45807	-0.061
Mof_H 	H 	0.32453	0.40127	0.39777	-0.003
Mof_C 	C 	0.27822	0.38874	0.40827	-0.135
Mof_H 	H 	0.27193	0.37607	0.31817	-0.038
Mof_C 	C 	0.22306	0.37589	0.43147	0.538
Mof_C 	C 	0.35283	0.43459	0.64707	0.008
Mof_C 	C 	0.36766	0.46154	0.74397	-0.127
Mof_H 	H 	0.35683	0.47197	0.77207	-0.017
Mof_C 	C 	0.39787	0.47257	0.79757	0.002
Mof_H 	H 	0.40633	0.48897	0.87057	-0.033
Mof_C 	C 	0.41612	0.45985	0.74577	-0.134
Mof_C 	C 	0.40313	0.43469	0.64617	-0.079
Mof_C 	C 	0.37108	0.42148	0.60057	-0.074
Mof_H 	H 	0.36193	0.40337	0.53757	0.059
Mof_C 	C 	0.45005	0.47523	0.80667	0.433
Mof_K 	K 	0.24739	0.17294	0.43158	3.435
Mof_Eu	Eu	0.32533	0.17235	0.11809	2.307
Mof_S 	S 	0.24386	0.15208	0.06418	0.67
Mof_S 	S 	0.25141	0.34109	0.8988	0.676
Mof_O 	O 	0.30592	0.17272	0.8596	-0.724
Mof_O 	O 	0.29058	0.17614	0.6218	-0.928
Mof_O 	O 	0.27153	0.15994	0.163	-0.84
Mof_O 	O 	0.21712	0.1459	0.1647	-0.802
Mof_O 	O 	0.23772	0.12812	0.9496	-0.709
Mof_O 	O 	0.18575	0.30698	0.286	-0.545
Mof_O 	O 	0.18395	0.32337	0.0484	-0.724
Mof_O 	O 	0.25616	0.36164	0.0312	-0.654
Mof_O 	O 	0.22847	0.34007	0.7842	-0.589
Mof_O 	O 	0.28003	0.34581	0.8219	-0.335
Mof_C 	C 	0.27373	0.19679	0.8267	-0.205
Mof_C 	C 	0.25373	0.18747	0.9569	-0.178
Mof_C 	C 	0.24003	0.20513	0.0052	0.008
Mof_H 	H 	0.227	0.1987	0.0938	-0.112
Mof_C 	C 	0.24529	0.23182	0.9251	-0.08
Mof_C 	C 	0.26306	0.23963	0.7914	-0.052
Mof_H 	H 	0.2654	0.2566	0.7311	-0.005
Mof_C 	C 	0.27793	0.22282	0.7416	-0.143
Mof_H 	H 	0.2906	0.2292	0.6515	-0.036
Mof_C 	C 	0.29078	0.18051	0.7648	0.536
Mof_C 	C 	0.23208	0.25158	0.9804	0.009
Mof_C 	C 	0.20513	0.23946	0.0773	-0.127
Mof_H 	H 	0.1947	0.2182	0.1054	-0.017
Mof_C 	C 	0.1941	0.25864	0.1309	0.003
Mof_H 	H 	0.1777	0.2507	0.2039	-0.035
Mof_C 	C 	0.20682	0.28961	0.0791	-0.136
Mof_C 	C 	0.23198	0.30178	0.9795	-0.079
Mof_C 	C 	0.24519	0.28294	0.9339	-0.075
Mof_H 	H 	0.2633	0.2919	0.8709	0.061
Mof_C 	C 	0.19144	0.30816	0.14	0.434
Mof_K 	K 	0.91406	0.50627	0.76491	3.455
Mof_Eu	Eu	0.992	0.50568	0.45142	2.293
Mof_S 	S 	0.91053	0.48541	0.39751	0.662
Mof_S 	S 	0.91808	0.67442	0.23213	0.669
Mof_O 	O 	0.97259	0.50605	0.19293	-0.723
Mof_O 	O 	0.95725	0.50947	0.95513	-0.915
Mof_O 	O 	0.9382	0.49327	0.49633	-0.839
Mof_O 	O 	0.88379	0.47923	0.49803	-0.804
Mof_O 	O 	0.90439	0.46145	0.28293	-0.705
Mof_O 	O 	0.85242	0.64031	0.61933	-0.544
Mof_O 	O 	0.85062	0.6567	0.38173	-0.723
Mof_O 	O 	0.92283	0.69497	0.36453	-0.651
Mof_O 	O 	0.89514	0.6734	0.11753	-0.589
Mof_O 	O 	0.9467	0.67914	0.15523	-0.338
Mof_C 	C 	0.9404	0.53012	0.16003	-0.188
Mof_C 	C 	0.9204	0.5208	0.29023	-0.181
Mof_C 	C 	0.9067	0.53846	0.33853	0.009
Mof_H 	H 	0.89367	0.53203	0.42713	-0.114
Mof_C 	C 	0.91196	0.56515	0.25843	-0.09
Mof_C 	C 	0.92973	0.57296	0.12473	-0.03
Mof_H 	H 	0.93207	0.58993	0.06443	-0.018
Mof_C 	C 	0.9446	0.55615	0.07493	-0.189
Mof_H 	H 	0.95727	0.56253	0.98483	-0.012
Mof_C 	C 	0.95745	0.51384	0.09813	0.508
Mof_C 	C 	0.89875	0.58491	0.31373	0.017
Mof_C 	C 	0.8718	0.57279	0.41063	-0.135
Mof_H 	H 	0.86137	0.55153	0.43873	-0.016
Mof_C 	C 	0.86077	0.59197	0.46423	0.006
Mof_H 	H 	0.84437	0.58403	0.53723	-0.037
Mof_C 	C 	0.87349	0.62294	0.41243	-0.138
Mof_C 	C 	0.89865	0.63511	0.31283	-0.076
Mof_C 	C 	0.91186	0.61627	0.26723	-0.08
Mof_H 	H 	0.92997	0.62523	0.20423	0.061
Mof_C 	C 	0.85811	0.64149	0.47333	0.434
Mof_K 	K 	0.58072	0.83961	0.09825	3.402
Mof_Eu	Eu	0.65866	0.83902	0.78476	2.314
Mof_S 	S 	0.57719	0.81875	0.73085	0.658
Mof_S 	S 	0.58474	0.00776	0.56547	0.664
Mof_O 	O 	0.63925	0.83939	0.52627	-0.726
Mof_O 	O 	0.62391	0.84281	0.28847	-0.926
Mof_O 	O 	0.60486	0.82661	0.82967	-0.834
Mof_O 	O 	0.55045	0.81257	0.83137	-0.794
Mof_O 	O 	0.57105	0.79479	0.61627	-0.704
Mof_O 	O 	0.51908	0.97365	0.95267	-0.537
Mof_O 	O 	0.51728	0.99004	0.71507	-0.718
Mof_O 	O 	0.58949	0.02831	0.69787	-0.653
Mof_O 	O 	0.5618	0.00674	0.45087	-0.589
Mof_O 	O 	0.61336	0.01248	0.48857	-0.337
Mof_C 	C 	0.60706	0.86346	0.49337	-0.211
Mof_C 	C 	0.58706	0.85414	0.62357	-0.165
Mof_C 	C 	0.57336	0.8718	0.67187	-0.007
Mof_H 	H 	0.56033	0.86537	0.76047	-0.105
Mof_C 	C 	0.57862	0.89849	0.59177	-0.069
Mof_C 	C 	0.59639	0.9063	0.45807	-0.06
Mof_H 	H 	0.59873	0.92327	0.39777	-0.003
Mof_C 	C 	0.61126	0.88949	0.40827	-0.135
Mof_H 	H 	0.62393	0.89587	0.31817	-0.038
Mof_C 	C 	0.62411	0.84718	0.43147	0.538
Mof_C 	C 	0.56541	0.91825	0.64707	0.01
Mof_C 	C 	0.53846	0.90613	0.74397	-0.128
Mof_H 	H 	0.52803	0.88487	0.77207	-0.016
Mof_C 	C 	0.52743	0.92531	0.79757	0.004
Mof_H 	H 	0.51103	0.91737	0.87057	-0.033
Mof_C 	C 	0.54015	0.95628	0.74577	-0.134
Mof_C 	C 	0.56531	0.96845	0.64617	-0.073
Mof_C 	C 	0.57852	0.94961	0.60057	-0.076
Mof_H 	H 	0.59663	0.95857	0.53757	0.062
Mof_C 	C 	0.52477	0.97483	0.80667	0.433
Mof_K 	K 	0.92555	0.17294	0.93158	3.419
Mof_Eu	Eu	0.84702	0.17235	0.61809	2.312
Mof_S 	S 	0.90822	0.15208	0.56418	0.66
Mof_S 	S 	0.08968	0.34109	0.3988	0.669
Mof_O 	O 	0.8668	0.17272	0.3596	-0.725
Mof_O 	O 	0.88556	0.17614	0.1218	-0.926
Mof_O 	O 	0.88841	0.15994	0.663	-0.838
Mof_O 	O 	0.92878	0.1459	0.6647	-0.802
Mof_O 	O 	0.8904	0.12812	0.4496	-0.704
Mof_O 	O 	0.12123	0.30698	0.786	-0.546
Mof_O 	O 	0.13942	0.32337	0.5484	-0.724
Mof_O 	O 	0.10548	0.36164	0.5312	-0.652
Mof_O 	O 	0.1116	0.34007	0.2842	-0.589
Mof_O 	O 	0.06578	0.34581	0.3219	-0.336
Mof_C 	C 	0.92306	0.19679	0.3267	-0.208
Mof_C 	C 	0.93374	0.18747	0.4569	-0.169
Mof_C 	C 	0.9651	0.20513	0.5052	0.001
Mof_H 	H 	0.9717	0.1987	0.5938	-0.112
Mof_C 	C 	0.98653	0.23182	0.4251	-0.082
Mof_C 	C 	0.97657	0.23963	0.2914	-0.052
Mof_H 	H 	0.9912	0.2566	0.2311	-0.008
Mof_C 	C 	0.94489	0.22282	0.2416	-0.141
Mof_H 	H 	0.9386	0.2292	0.1515	-0.037
Mof_C 	C 	0.88973	0.18051	0.2648	0.537
Mof_C 	C 	0.0195	0.25158	0.4804	0.021
Mof_C 	C 	0.03433	0.23946	0.5773	-0.136
Mof_H 	H 	0.0235	0.2182	0.6054	-0.014
Mof_C 	C 	0.06454	0.25864	0.6309	0.009
Mof_H 	H 	0.073	0.2507	0.7039	-0.038
Mof_C 	C 	0.08279	0.28961	0.5791	-0.139
Mof_C 	C 	0.0698	0.30178	0.4795	-0.074
Mof_C 	C 	0.03775	0.28294	0.4339	-0.081
Mof_H 	H 	0.0286	0.2919	0.3709	0.063
Mof_C 	C 	0.11672	0.30816	0.64	0.435
Mof_K 	K 	0.59222	0.50627	0.26491	3.384
Mof_Eu	Eu	0.51369	0.50568	0.95142	2.331
Mof_S 	S 	0.57489	0.48541	0.89751	0.659
Mof_S 	S 	0.75635	0.67442	0.73213	0.666
Mof_O 	O 	0.53347	0.50605	0.69293	-0.728
Mof_O 	O 	0.55223	0.50947	0.45513	-0.924
Mof_O 	O 	0.55508	0.49327	0.99633	-0.831
Mof_O 	O 	0.59545	0.47923	0.99803	-0.789
Mof_O 	O 	0.55707	0.46145	0.78293	-0.704
Mof_O 	O 	0.7879	0.64031	0.11933	-0.552
Mof_O 	O 	0.80609	0.6567	0.88173	-0.726
Mof_O 	O 	0.77215	0.69497	0.86453	-0.65
Mof_O 	O 	0.77827	0.6734	0.61753	-0.588
Mof_O 	O 	0.73245	0.67914	0.65523	-0.335
Mof_C 	C 	0.58973	0.53012	0.66003	-0.21
Mof_C 	C 	0.60041	0.5208	0.79023	-0.165
Mof_C 	C 	0.63177	0.53846	0.83853	-0.003
Mof_H 	H 	0.63837	0.53203	0.92713	-0.105
Mof_C 	C 	0.6532	0.56515	0.75843	-0.075
Mof_C 	C 	0.64324	0.57296	0.62473	-0.057
Mof_H 	H 	0.65787	0.58993	0.56443	-0.004
Mof_C 	C 	0.61156	0.55615	0.57493	-0.137
Mof_H 	H 	0.60527	0.56253	0.48483	-0.037
Mof_C 	C 	0.5564	0.51384	0.59813	0.538
Mof_C 	C 	0.68617	0.58491	0.81373	0.022
Mof_C 	C 	0.701	0.57279	0.91063	-0.152
Mof_H 	H 	0.69017	0.55153	0.93873	-0.006
Mof_C 	C 	0.73121	0.59197	0.96423	0.044
Mof_H 	H 	0.73967	0.58403	0.03723	-0.058
Mof_C 	C 	0.74946	0.62294	0.91243	-0.153
Mof_C 	C 	0.73647	0.63511	0.81283	-0.068
Mof_C 	C 	0.70442	0.61627	0.76723	-0.085
Mof_H 	H 	0.69527	0.62523	0.70423	0.063
Mof_C 	C 	0.78339	0.64149	0.97333	0.448
Mof_K 	K 	0.25888	0.83961	0.59825	3.444
Mof_Eu	Eu	0.18035	0.83902	0.28476	2.312
Mof_S 	S 	0.24155	0.81875	0.23085	0.663
Mof_S 	S 	0.42301	0.00776	0.06547	0.625
Mof_O 	O 	0.20013	0.83939	0.02627	-0.729
Mof_O 	O 	0.21889	0.84281	0.78847	-0.929
Mof_O 	O 	0.22174	0.82661	0.32967	-0.841
Mof_O 	O 	0.26211	0.81257	0.33137	-0.804
Mof_O 	O 	0.22373	0.79479	0.11627	-0.706
Mof_O 	O 	0.45456	0.97365	0.45267	-0.542
Mof_O 	O 	0.47275	0.99004	0.21507	-0.726
Mof_O 	O 	0.43881	0.02831	0.19787	-0.643
Mof_O 	O 	0.44493	0.00674	0.95087	-0.573
Mof_O 	O 	0.39911	0.01248	0.98857	-0.319
Mof_C 	C 	0.25639	0.86346	0.99337	-0.192
Mof_C 	C 	0.26707	0.85414	0.12357	-0.185
Mof_C 	C 	0.29843	0.8718	0.17187	0.013
Mof_H 	H 	0.30503	0.86537	0.26047	-0.115
Mof_C 	C 	0.31986	0.89849	0.09177	-0.099
Mof_C 	C 	0.3099	0.9063	0.95807	-0.027
Mof_H 	H 	0.32453	0.92327	0.89777	-0.011
Mof_C 	C 	0.27822	0.88949	0.90827	-0.158
Mof_H 	H 	0.27193	0.89587	0.81817	-0.031
Mof_C 	C 	0.22306	0.84718	0.93147	0.538
Mof_C 	C 	0.35283	0.91825	0.14707	0.024
Mof_C 	C 	0.36766	0.90613	0.24397	-0.142
Mof_H 	H 	0.35683	0.88487	0.27207	-0.014
Mof_C 	C 	0.39787	0.92531	0.29757	0.013
Mof_H 	H 	0.40633	0.91737	0.37057	-0.04
Mof_C 	C 	0.41612	0.95628	0.24577	-0.146
Mof_C 	C 	0.40313	0.96845	0.14617	-0.062
Mof_C 	C 	0.37108	0.94961	0.10057	-0.09
Mof_H 	H 	0.36193	0.95857	0.03757	0.063
Mof_C 	C 	0.45005	0.97483	0.30667	0.438
Mof_K 	K 	0.24739	0.07445	0.93158	3.42
Mof_Eu	Eu	0.32533	0.15298	0.61809	2.312
Mof_S 	S 	0.24386	0.09178	0.56418	0.66
Mof_S 	S 	0.25141	0.91032	0.3988	0.669
Mof_O 	O 	0.30592	0.1332	0.3596	-0.726
Mof_O 	O 	0.29058	0.11444	0.1218	-0.926
Mof_O 	O 	0.27153	0.11159	0.663	-0.838
Mof_O 	O 	0.21712	0.07122	0.6647	-0.801
Mof_O 	O 	0.23772	0.1096	0.4496	-0.704
Mof_O 	O 	0.18575	0.87877	0.786	-0.546
Mof_O 	O 	0.18395	0.86058	0.5484	-0.724
Mof_O 	O 	0.25616	0.89452	0.5312	-0.652
Mof_O 	O 	0.22847	0.8884	0.2842	-0.589
Mof_O 	O 	0.28003	0.93422	0.3219	-0.336
Mof_C 	C 	0.27373	0.07694	0.3267	-0.208
Mof_C 	C 	0.25373	0.06626	0.4569	-0.169
Mof_C 	C 	0.24003	0.0349	0.5052	0.001
Mof_H 	H 	0.227	0.0283	0.5938	-0.112
Mof_C 	C 	0.24529	0.01347	0.4251	-0.082
Mof_C 	C 	0.26306	0.02343	0.2914	-0.052
Mof_H 	H 	0.2654	0.0088	0.2311	-0.008
Mof_C 	C 	0.27793	0.05511	0.2416	-0.141
Mof_H 	H 	0.2906	0.0614	0.1515	-0.037
Mof_C 	C 	0.29078	0.11027	0.2648	0.537
Mof_C 	C 	0.23208	0.9805	0.4804	0.021
Mof_C 	C 	0.20513	0.96567	0.5773	-0.136
Mof_H 	H 	0.1947	0.9765	0.6054	-0.013
Mof_C 	C 	0.1941	0.93546	0.6309	0.009
Mof_H 	H 	0.1777	0.927	0.7039	-0.038
Mof_C 	C 	0.20682	0.91721	0.5791	-0.139
Mof_C 	C 	0.23198	0.9302	0.4795	-0.074
Mof_C 	C 	0.24519	0.96225	0.4339	-0.081
Mof_H 	H 	0.2633	0.9714	0.3709	0.063
Mof_C 	C 	0.19144	0.88328	0.64	0.435
Mof_K 	K 	0.91406	0.40778	0.26491	3.383
Mof_Eu	Eu	0.992	0.48631	0.95142	2.319
Mof_S 	S 	0.91053	0.42511	0.89751	0.658
Mof_S 	S 	0.91808	0.24365	0.73213	0.666
Mof_O 	O 	0.97259	0.46653	0.69293	-0.727
Mof_O 	O 	0.95725	0.44777	0.45513	-0.923
Mof_O 	O 	0.9382	0.44492	0.99633	-0.829
Mof_O 	O 	0.88379	0.40455	0.99803	-0.789
Mof_O 	O 	0.90439	0.44293	0.78293	-0.704
Mof_O 	O 	0.85242	0.2121	0.11933	-0.552
Mof_O 	O 	0.85062	0.19391	0.88173	-0.726
Mof_O 	O 	0.92283	0.22785	0.86453	-0.65
Mof_O 	O 	0.89514	0.22173	0.61753	-0.588
Mof_O 	O 	0.9467	0.26755	0.65523	-0.336
Mof_C 	C 	0.9404	0.41027	0.66003	-0.21
Mof_C 	C 	0.9204	0.39959	0.79023	-0.165
Mof_C 	C 	0.9067	0.36823	0.83853	-0.003
Mof_H 	H 	0.89367	0.36163	0.92713	-0.105
Mof_C 	C 	0.91196	0.3468	0.75843	-0.075
Mof_C 	C 	0.92973	0.35676	0.62473	-0.057
Mof_H 	H 	0.93207	0.34213	0.56443	-0.005
Mof_C 	C 	0.9446	0.38844	0.57493	-0.137
Mof_H 	H 	0.95727	0.39473	0.48483	-0.038
Mof_C 	C 	0.95745	0.4436	0.59813	0.538
Mof_C 	C 	0.89875	0.31383	0.81373	0.022
Mof_C 	C 	0.8718	0.299	0.91063	-0.152
Mof_H 	H 	0.86137	0.30983	0.93873	-0.006
Mof_C 	C 	0.86077	0.26879	0.96423	0.044
Mof_H 	H 	0.84437	0.26033	0.03723	-0.058
Mof_C 	C 	0.87349	0.25054	0.91243	-0.153
Mof_C 	C 	0.89865	0.26353	0.81283	-0.068
Mof_C 	C 	0.91186	0.29558	0.76723	-0.085
Mof_H 	H 	0.92997	0.30473	0.70423	0.063
Mof_C 	C 	0.85811	0.21661	0.97333	0.448
Mof_K 	K 	0.58072	0.74112	0.59825	3.443
Mof_Eu	Eu	0.65866	0.81965	0.28476	2.311
Mof_S 	S 	0.57719	0.75845	0.23085	0.663
Mof_S 	S 	0.58474	0.57699	0.06547	0.631
Mof_O 	O 	0.63925	0.79987	0.02627	-0.729
Mof_O 	O 	0.62391	0.78111	0.78847	-0.929
Mof_O 	O 	0.60486	0.77826	0.32967	-0.841
Mof_O 	O 	0.55045	0.73789	0.33137	-0.804
Mof_O 	O 	0.57105	0.77627	0.11627	-0.706
Mof_O 	O 	0.51908	0.54544	0.45267	-0.546
Mof_O 	O 	0.51728	0.52725	0.21507	-0.731
Mof_O 	O 	0.58949	0.56119	0.19787	-0.643
Mof_O 	O 	0.5618	0.55507	0.95087	-0.574
Mof_O 	O 	0.61336	0.60089	0.98857	-0.318
Mof_C 	C 	0.60706	0.74361	0.99337	-0.192
Mof_C 	C 	0.58706	0.73293	0.12357	-0.185
Mof_C 	C 	0.57336	0.70157	0.17187	0.012
Mof_H 	H 	0.56033	0.69497	0.26047	-0.115
Mof_C 	C 	0.57862	0.68014	0.09177	-0.099
Mof_C 	C 	0.59639	0.6901	0.95807	-0.027
Mof_H 	H 	0.59873	0.67547	0.89777	-0.012
Mof_C 	C 	0.61126	0.72178	0.90827	-0.157
Mof_H 	H 	0.62393	0.72807	0.81817	-0.031
Mof_C 	C 	0.62411	0.77694	0.93147	0.538
Mof_C 	C 	0.56541	0.64717	0.14707	0.022
Mof_C 	C 	0.53846	0.63234	0.24397	-0.141
Mof_H 	H 	0.52803	0.64317	0.27207	-0.014
Mof_C 	C 	0.52743	0.60213	0.29757	0.012
Mof_H 	H 	0.51103	0.59367	0.37057	-0.039
Mof_C 	C 	0.54015	0.58388	0.24577	-0.146
Mof_C 	C 	0.56531	0.59687	0.14617	-0.068
Mof_C 	C 	0.57852	0.62892	0.10057	-0.088
Mof_H 	H 	0.59663	0.63807	0.03757	0.061
Mof_C 	C 	0.52477	0.54995	0.30667	0.438
Mof_K 	K 	0.82706	0.75261	0.93158	3.424
Mof_Eu	Eu	0.82765	0.67467	0.61809	2.312
Mof_S 	S 	0.84792	0.75614	0.56418	0.658
Mof_S 	S 	0.65891	0.74859	0.3988	0.67
Mof_O 	O 	0.82728	0.69408	0.3596	-0.726
Mof_O 	O 	0.82386	0.70942	0.1218	-0.927
Mof_O 	O 	0.84006	0.72847	0.663	-0.838
Mof_O 	O 	0.8541	0.78288	0.6647	-0.801
Mof_O 	O 	0.87188	0.76228	0.4496	-0.703
Mof_O 	O 	0.69302	0.81425	0.786	-0.545
Mof_O 	O 	0.67663	0.81605	0.5484	-0.724
Mof_O 	O 	0.63836	0.74384	0.5312	-0.652
Mof_O 	O 	0.65993	0.77153	0.2842	-0.589
Mof_O 	O 	0.65419	0.71997	0.3219	-0.337
Mof_C 	C 	0.80321	0.72627	0.3267	-0.211
Mof_C 	C 	0.81253	0.74627	0.4569	-0.166
Mof_C 	C 	0.79487	0.75997	0.5052	-0.006
Mof_H 	H 	0.8013	0.773	0.5938	-0.108
Mof_C 	C 	0.76818	0.75471	0.4251	-0.07
Mof_C 	C 	0.76037	0.73694	0.2914	-0.06
Mof_H 	H 	0.7434	0.7346	0.2311	-0.003
Mof_C 	C 	0.77718	0.72207	0.2416	-0.136
Mof_H 	H 	0.7708	0.7094	0.1515	-0.039
Mof_C 	C 	0.81949	0.70922	0.2648	0.538
Mof_C 	C 	0.74842	0.76792	0.4804	0.009
Mof_C 	C 	0.76054	0.79487	0.5773	-0.129
Mof_H 	H 	0.7818	0.8053	0.6054	-0.018
Mof_C 	C 	0.74136	0.8059	0.6309	0.003
Mof_H 	H 	0.7493	0.8223	0.7039	-0.037
Mof_C 	C 	0.71039	0.79318	0.5791	-0.136
Mof_C 	C 	0.69822	0.76802	0.4795	-0.078
Mof_C 	C 	0.71706	0.75481	0.4339	-0.074
Mof_H 	H 	0.7081	0.7367	0.3709	0.06
Mof_C 	C 	0.69184	0.80856	0.64	0.434
Mof_K 	K 	0.49373	0.08594	0.26491	3.383
Mof_Eu	Eu	0.49432	0.008	0.95142	2.319
Mof_S 	S 	0.51459	0.08947	0.89751	0.658
Mof_S 	S 	0.32558	0.08192	0.73213	0.666
Mof_O 	O 	0.49395	0.02741	0.69293	-0.727
Mof_O 	O 	0.49053	0.04275	0.45513	-0.924
Mof_O 	O 	0.50673	0.0618	0.99633	-0.829
Mof_O 	O 	0.52077	0.11621	0.99803	-0.789
Mof_O 	O 	0.53855	0.09561	0.78293	-0.704
Mof_O 	O 	0.35969	0.14758	0.11933	-0.552
Mof_O 	O 	0.3433	0.14938	0.88173	-0.726
Mof_O 	O 	0.30503	0.07717	0.86453	-0.65
Mof_O 	O 	0.3266	0.10486	0.61753	-0.588
Mof_O 	O 	0.32086	0.0533	0.65523	-0.336
Mof_C 	C 	0.46988	0.0596	0.66003	-0.21
Mof_C 	C 	0.4792	0.0796	0.79023	-0.165
Mof_C 	C 	0.46154	0.0933	0.83853	-0.003
Mof_H 	H 	0.46797	0.10633	0.92713	-0.105
Mof_C 	C 	0.43485	0.08804	0.75843	-0.075
Mof_C 	C 	0.42704	0.07027	0.62473	-0.057
Mof_H 	H 	0.41007	0.06793	0.56443	-0.005
Mof_C 	C 	0.44385	0.0554	0.57493	-0.137
Mof_H 	H 	0.43747	0.04273	0.48483	-0.038
Mof_C 	C 	0.48616	0.04255	0.59813	0.538
Mof_C 	C 	0.41509	0.10125	0.81373	0.022
Mof_C 	C 	0.42721	0.1282	0.91063	-0.152
Mof_H 	H 	0.44847	0.13863	0.93873	-0.006
Mof_C 	C 	0.40803	0.13923	0.96423	0.043
Mof_H 	H 	0.41597	0.15563	0.03723	-0.058
Mof_C 	C 	0.37706	0.12651	0.91243	-0.153
Mof_C 	C 	0.36489	0.10135	0.81283	-0.068
Mof_C 	C 	0.38373	0.08814	0.76723	-0.085
Mof_H 	H 	0.37477	0.07003	0.70423	0.063
Mof_C 	C 	0.35851	0.14189	0.97333	0.448
Mof_K 	K 	0.16039	0.41928	0.59825	3.443
Mof_Eu	Eu	0.16098	0.34134	0.28476	2.311
Mof_S 	S 	0.18125	0.42281	0.23085	0.663
Mof_S 	S 	0.99224	0.41526	0.06547	0.625
Mof_O 	O 	0.16061	0.36075	0.02627	-0.729
Mof_O 	O 	0.15719	0.37609	0.78847	-0.929
Mof_O 	O 	0.17339	0.39514	0.32967	-0.841
Mof_O 	O 	0.18743	0.44955	0.33137	-0.804
Mof_O 	O 	0.20521	0.42895	0.11627	-0.706
Mof_O 	O 	0.02635	0.48092	0.45267	-0.542
Mof_O 	O 	0.00996	0.48272	0.21507	-0.726
Mof_O 	O 	0.97169	0.41051	0.19787	-0.643
Mof_O 	O 	0.99326	0.4382	0.95087	-0.573
Mof_O 	O 	0.98752	0.38664	0.98857	-0.319
Mof_C 	C 	0.13654	0.39294	0.99337	-0.192
Mof_C 	C 	0.14586	0.41294	0.12357	-0.185
Mof_C 	C 	0.1282	0.42664	0.17187	0.013
Mof_H 	H 	0.13463	0.43967	0.26047	-0.115
Mof_C 	C 	0.10151	0.42138	0.09177	-0.099
Mof_C 	C 	0.0937	0.40361	0.95807	-0.027
Mof_H 	H 	0.07673	0.40127	0.89777	-0.011
Mof_C 	C 	0.11051	0.38874	0.90827	-0.158
Mof_H 	H 	0.10413	0.37607	0.81817	-0.031
Mof_C 	C 	0.15282	0.37589	0.93147	0.538
Mof_C 	C 	0.08175	0.43459	0.14707	0.024
Mof_C 	C 	0.09387	0.46154	0.24397	-0.142
Mof_H 	H 	0.11513	0.47197	0.27207	-0.014
Mof_C 	C 	0.07469	0.47257	0.29757	0.013
Mof_H 	H 	0.08263	0.48897	0.37057	-0.04
Mof_C 	C 	0.04372	0.45985	0.24577	-0.146
Mof_C 	C 	0.03155	0.43469	0.14617	-0.062
Mof_C 	C 	0.05039	0.42148	0.10057	-0.09
Mof_H 	H 	0.04143	0.40337	0.03757	0.063
Mof_C 	C 	0.02517	0.47523	0.30667	0.438
_end
