data_functionalizedCrystal
_audit_creation_method	'EQeq! by Chris Wilmer'
_symmetry_space_group_name_H-M	'P1'
_symmetry_Int_Tables_number	1
_symmetry_cell_setting	triclinic
loop_
_symmetry_equiv_pos_as_xyz
  x,y,z
_cell_length_a	10.608
_cell_length_b	24.651
_cell_length_c	7.239
_cell_angle_alpha	90
_cell_angle_beta	95.291
_cell_angle_gamma	90
loop_
_atom_site_label
_atom_site_type_symbol
_atom_site_fract_x
_atom_site_fract_y
_atom_site_fract_z
_atom_site_charge
Mof_O 	O 	0.834	0.6908	0.2342	-0.257
Mof_N 	N 	0.5014	0.8667	0.0986	-0.113
Mof_N 	N 	0.4992	0.9187	0.161	-0.072
Mof_C 	C 	0.6133	0.6911	0.2431	-0.068
Mof_C 	C 	0.7353	0.6619	0.2356	0.312
Mof_C 	C 	0.6121	0.7479	0.2429	-0.008
Mof_H 	H 	0.6877	0.7668	0.2379	0.064
Mof_O 	O 	0.7403	0.6122	0.2337	-0.259
Mof_O 	O 	0.5452	0.9497	0.7569	-0.239
Mof_H 	H 	0.6257	0.9497	0.7678	0.172
Mof_O 	O 	0.334	0.1908	0.2342	-0.284
Mof_N 	N 	0.0014	0.3667	0.0986	-0.133
Mof_N 	N 	0.9992	0.4187	0.161	-0.028
Mof_C 	C 	0.1133	0.1911	0.2431	-0.063
Mof_C 	C 	0.2353	0.1619	0.2356	0.311
Mof_C 	C 	0.1121	0.2479	0.2429	-0.005
Mof_H 	H 	0.1877	0.2668	0.2379	0.057
Mof_O 	O 	0.2403	0.1122	0.2337	-0.282
Mof_O 	O 	0.0452	0.4497	0.7569	-0.398
Mof_H 	H 	0.1257	0.4497	0.7678	0.224
Mof_O 	O 	0.166	0.6908	0.2658	-0.287
Mof_N 	N 	0.4986	0.8667	0.4014	-0.107
Mof_N 	N 	0.5008	0.9187	0.339	-0.07
Mof_C 	C 	0.3867	0.6911	0.2569	-0.075
Mof_C 	C 	0.2647	0.6619	0.2644	0.32
Mof_C 	C 	0.3879	0.7479	0.2571	-0.005
Mof_H 	H 	0.3123	0.7668	0.2621	0.057
Mof_O 	O 	0.2597	0.6122	0.2663	-0.279
Mof_O 	O 	0.4548	0.9497	0.7431	-0.233
Mof_H 	H 	0.3743	0.9497	0.7322	0.163
Mof_O 	O 	0.666	0.1908	0.2658	-0.279
Mof_N 	N 	0.9986	0.3667	0.4014	-0.054
Mof_N 	N 	0.0008	0.4187	0.339	-0.115
Mof_C 	C 	0.8867	0.1911	0.2569	-0.024
Mof_C 	C 	0.7647	0.1619	0.2644	0.307
Mof_C 	C 	0.8879	0.2479	0.2571	0.043
Mof_H 	H 	0.8123	0.2668	0.2621	0.051
Mof_O 	O 	0.7597	0.1122	0.2663	-0.263
Mof_O 	O 	0.9548	0.4497	0.7431	-0.067
Mof_H 	H 	0.8743	0.4497	0.7322	0.108
Mof_O 	O 	0.166	0.3092	0.7658	-0.277
Mof_N 	N 	0.4986	0.1333	0.9014	-0.097
Mof_N 	N 	0.5008	0.0813	0.839	-0.068
Mof_C 	C 	0.3867	0.3089	0.7569	-0.064
Mof_C 	C 	0.2647	0.3381	0.7644	0.319
Mof_C 	C 	0.3879	0.2521	0.7571	-0.008
Mof_H 	H 	0.3123	0.2332	0.7621	0.065
Mof_O 	O 	0.2597	0.3878	0.7663	-0.271
Mof_O 	O 	0.4548	0.0503	0.2431	-0.244
Mof_H 	H 	0.3743	0.0503	0.2322	0.149
Mof_O 	O 	0.666	0.8092	0.7658	-0.267
Mof_N 	N 	0.9986	0.6333	0.9014	-0.044
Mof_N 	N 	0.0008	0.5813	0.839	-0.104
Mof_C 	C 	0.8867	0.8089	0.7569	-0.009
Mof_C 	C 	0.7647	0.8381	0.7644	0.304
Mof_C 	C 	0.8879	0.7521	0.7571	0.036
Mof_H 	H 	0.8123	0.7332	0.7621	0.061
Mof_O 	O 	0.7597	0.8878	0.7663	-0.246
Mof_O 	O 	0.9548	0.5503	0.2431	-0.069
Mof_H 	H 	0.8743	0.5503	0.2322	0.102
Mof_O 	O 	0.834	0.3092	0.7342	-0.248
Mof_N 	N 	0.5014	0.1333	0.5986	-0.106
Mof_N 	N 	0.4992	0.0813	0.661	-0.075
Mof_C 	C 	0.6133	0.3089	0.7431	-0.058
Mof_C 	C 	0.7353	0.3381	0.7356	0.311
Mof_C 	C 	0.6121	0.2521	0.7429	-0.011
Mof_H 	H 	0.6877	0.2332	0.7379	0.072
Mof_O 	O 	0.7403	0.3878	0.7337	-0.251
Mof_O 	O 	0.5452	0.0503	0.2569	-0.25
Mof_H 	H 	0.6257	0.0503	0.2678	0.158
Mof_O 	O 	0.334	0.8092	0.7342	-0.272
Mof_N 	N 	0.0014	0.6333	0.5986	-0.123
Mof_N 	N 	0.9992	0.5813	0.661	-0.022
Mof_C 	C 	0.1133	0.8089	0.7431	-0.047
Mof_C 	C 	0.2353	0.8381	0.7356	0.308
Mof_C 	C 	0.1121	0.7521	0.7429	-0.011
Mof_H 	H 	0.1877	0.7332	0.7379	0.068
Mof_O 	O 	0.2403	0.8878	0.7337	-0.266
Mof_O 	O 	0.0452	0.5503	0.2569	-0.404
Mof_H 	H 	0.1257	0.5503	0.2678	0.219
Mof_Cd	Cd	0.5	0.86152	0.75	0.48
Mof_Cd	Cd	2.09593e-33	0.36152	0.75	0.434
Mof_Cd	Cd	0.5	0.13848	0.25	0.461
Mof_Cd	Cd	1.88481e-18	0.63848	0.25	0.416
Mof_Cd	Cd	0.5	0	-0	0.337
Mof_Cd	Cd	-1.33924e-32	0.5	-0	0.317
Mof_Cd	Cd	0.5	-1.67405e-33	0.5	0.365
Mof_Cd	Cd	3.76962e-18	0.5	0.5	0.345
Mof_C 	C 	0.5	0.7765	0.25	-0.023
Mof_C 	C 	0.5	0.6637	0.25	0.019
Mof_H 	H 	0.5	0.626	0.25	0.055
Mof_C 	C 	0.5	0.8364	0.25	0.129
Mof_C 	C 	6.98642e-34	0.2765	0.25	-0.068
Mof_C 	C 	1.88481e-18	0.1637	0.25	-0.052
Mof_H 	H 	6.98642e-34	0.126	0.25	0.059
Mof_C 	C 	6.98642e-34	0.3364	0.25	0.093
Mof_C 	C 	0.5	0.2235	0.75	-0.012
Mof_C 	C 	0.5	0.3363	0.75	0.014
Mof_H 	H 	0.5	0.374	0.75	0.061
Mof_C 	C 	0.5	0.1636	0.75	0.132
Mof_C 	C 	2.09593e-33	0.7235	0.75	-0.053
Mof_C 	C 	-7.53925e-18	0.8363	0.75	-0.06
Mof_H 	H 	7.53925e-18	0.874	0.75	0.072
Mof_C 	C 	2.09593e-33	0.6636	0.75	0.097
_end
