data_functionalizedCrystal
_audit_creation_method	'EQeq! by Chris Wilmer'
_symmetry_space_group_name_H-M	'P1'
_symmetry_Int_Tables_number	1
_symmetry_cell_setting	triclinic
loop_
_symmetry_equiv_pos_as_xyz
  x,y,z
_cell_length_a	26.4064
_cell_length_b	14.4412
_cell_length_c	25.3777
_cell_angle_alpha	90
_cell_angle_beta	113.333
_cell_angle_gamma	90
loop_
_atom_site_label
_atom_site_type_symbol
_atom_site_fract_x
_atom_site_fract_y
_atom_site_fract_z
_atom_site_charge
Mof_Eu	Eu	0.33476	0.58432	0.3017	2.474
Mof_Eu	Eu	0.28645	0.36395	0.1899	2.636
Mof_O 	O 	0.2441	0.6327	0.2832	-0.609
Mof_O 	O 	0.3703	0.436	0.2661	-0.643
Mof_O 	O 	0.2359	0.4801	0.1182	-0.516
Mof_O 	O 	0.4146	0.5661	0.2738	-0.493
Mof_O 	O 	0.2823	0.5477	0.2011	-0.682
Mof_C 	C 	0.4571	0.333	0.2555	0.139
Mof_H 	H 	0.4281	0.3003	0.2588	-0.02
Mof_C 	C 	0.4574	0.4288	0.2561	-0.198
Mof_C 	C 	0.2499	0.5522	0.1478	0.468
Mof_C 	C 	0.4119	0.4802	0.2658	0.431
Mof_C 	C 	0.1636	0.3175	0.2055	0.581
Mof_O 	O 	0.3402	0.6446	0.3928	-0.425
Mof_O 	O 	0.1853	0.9581	0.1462	-0.57
Mof_O 	O 	0.3443	0.6159	0.6415	-0.57
Mof_O 	O 	0.1726	0.7196	0.2786	-0.608
Mof_O 	O 	0.4132	0.5673	0.3964	-0.446
Mof_O 	O 	0.2403	0.2715	0.1056	-0.594
Mof_H 	H 	0.2609	0.2637	0.0888	0.319
Mof_O 	O 	0.1958	0.3305	0.1807	-0.584
Mof_C 	C 	0.2005	0.802	0.1291	-0.281
Mof_O 	O 	0.325	0.7263	0.5755	-0.324
Mof_C 	C 	0.1573	0.5583	0.2597	-0.317
Mof_C 	C 	0.1942	0.6433	0.2755	0.587
Mof_C 	C 	0.3972	0.5779	0.4828	-0.082
Mof_C 	C 	0.3705	0.6242	0.5125	0.043
Mof_H 	H 	0.3462	0.6719	0.4944	0.057
Mof_C 	C 	0.1735	0.4818	0.2386	0.276
Mof_H 	H 	0.2055	0.4843	0.2316	-0.109
Mof_C 	C 	0.3475	0.6523	0.5971	0.42
Mof_C 	C 	0.2253	0.7186	0.1545	0.208
Mof_H 	H 	0.2416	0.7139	0.1943	-0.057
Mof_C 	C 	0.3839	0.5976	0.4209	0.313
Mof_C 	C 	0.109	0.5571	0.2689	0.209
Mof_H 	H 	0.0968	0.6102	0.281	-0.034
Mof_C 	C 	0.1429	0.4002	0.2274	-0.311
Mof_C 	C 	0.2259	0.6441	0.1214	-0.247
Mof_C 	C 	0.3792	0.601	0.5682	-0.13
Mof_C 	C 	0.0965	0.3959	0.2395	0.201
Mof_H 	H 	0.0767	0.3409	0.2343	-0.03
Mof_C 	C 	0.0793	0.4755	0.2597	-0.263
Mof_H 	H 	0.0475	0.4734	0.2671	0.118
Mof_C 	C 	0.4346	0.5081	0.5103	0.031
Mof_H 	H 	0.4525	0.4765	0.4908	0.037
Mof_C 	C 	0.4165	0.5303	0.5953	0.05
Mof_H 	H 	0.4223	0.5128	0.6325	0.024
Mof_C 	C 	0.1766	0.8092	0.0708	0.177
Mof_H 	H 	0.1595	0.8641	0.0537	-0.017
Mof_C 	C 	0.4452	0.4855	0.5666	-0.107
Mof_H 	H 	0.4713	0.4405	0.5854	0.079
Mof_C 	C 	0.2029	0.6512	0.0623	0.151
Mof_H 	H 	0.2041	0.6014	0.0396	-0.005
Mof_C 	C 	0.1777	0.7343	0.037	-0.224
Mof_H 	H 	0.1617	0.7394	0.9973	0.111
Mof_O 	O 	0.2176	0.8659	0.2204	-0.659
Mof_C 	C 	0.2016	0.8818	0.1679	0.586
Mof_O 	O 	0.1474	0.2379	0.2134	-0.594
Mof_Eu	Eu	0.83476	0.08432	0.3017	2.474
Mof_Eu	Eu	0.78645	0.86395	0.1899	2.638
Mof_O 	O 	0.7441	0.1327	0.2832	-0.608
Mof_O 	O 	0.8703	0.936	0.2661	-0.642
Mof_O 	O 	0.7359	0.9801	0.1182	-0.514
Mof_O 	O 	0.9146	0.0661	0.2738	-0.493
Mof_O 	O 	0.7823	0.0477	0.2011	-0.681
Mof_C 	C 	0.9571	0.833	0.2555	0.141
Mof_H 	H 	0.9281	0.8003	0.2588	-0.02
Mof_C 	C 	0.9574	0.9288	0.2561	-0.198
Mof_C 	C 	0.7499	0.0522	0.1478	0.468
Mof_C 	C 	0.9119	0.9802	0.2658	0.431
Mof_C 	C 	0.6636	0.8175	0.2055	0.581
Mof_O 	O 	0.8402	0.1446	0.3928	-0.425
Mof_O 	O 	0.6853	0.4581	0.1462	-0.571
Mof_O 	O 	0.8443	0.1159	0.6415	-0.57
Mof_O 	O 	0.6726	0.2196	0.2786	-0.608
Mof_O 	O 	0.9132	0.0673	0.3964	-0.446
Mof_O 	O 	0.7403	0.7715	0.1056	-0.594
Mof_H 	H 	0.7609	0.7637	0.0888	0.319
Mof_O 	O 	0.6958	0.8305	0.1807	-0.584
Mof_C 	C 	0.7005	0.302	0.1291	-0.282
Mof_O 	O 	0.825	0.2263	0.5755	-0.324
Mof_C 	C 	0.6573	0.0583	0.2597	-0.317
Mof_C 	C 	0.6942	0.1433	0.2755	0.587
Mof_C 	C 	0.8972	0.0779	0.4828	-0.082
Mof_C 	C 	0.8705	0.1242	0.5125	0.043
Mof_H 	H 	0.8462	0.1719	0.4944	0.057
Mof_C 	C 	0.6735	0.9818	0.2386	0.277
Mof_H 	H 	0.7055	0.9843	0.2316	-0.109
Mof_C 	C 	0.8475	0.1523	0.5971	0.42
Mof_C 	C 	0.7253	0.2186	0.1545	0.209
Mof_H 	H 	0.7416	0.2139	0.1943	-0.057
Mof_C 	C 	0.8839	0.0976	0.4209	0.313
Mof_C 	C 	0.609	0.0571	0.2689	0.208
Mof_H 	H 	0.5968	0.1102	0.281	-0.034
Mof_C 	C 	0.6429	0.9002	0.2274	-0.311
Mof_C 	C 	0.7259	0.1441	0.1214	-0.248
Mof_C 	C 	0.8792	0.101	0.5682	-0.13
Mof_C 	C 	0.5965	0.8959	0.2395	0.201
Mof_H 	H 	0.5767	0.8409	0.2343	-0.029
Mof_C 	C 	0.5793	0.9755	0.2597	-0.262
Mof_H 	H 	0.5475	0.9734	0.2671	0.118
Mof_C 	C 	0.9346	0.0081	0.5103	0.031
Mof_H 	H 	0.9525	0.9765	0.4908	0.037
Mof_C 	C 	0.9165	0.0303	0.5953	0.05
Mof_H 	H 	0.9223	0.0128	0.6325	0.024
Mof_C 	C 	0.6766	0.3092	0.0708	0.18
Mof_H 	H 	0.6595	0.3641	0.0537	-0.018
Mof_C 	C 	0.9452	0.9855	0.5666	-0.107
Mof_H 	H 	0.9713	0.9405	0.5854	0.079
Mof_C 	C 	0.7029	0.1512	0.0623	0.154
Mof_H 	H 	0.7041	0.1014	0.0396	-0.007
Mof_C 	C 	0.6777	0.2343	0.037	-0.229
Mof_H 	H 	0.6617	0.2394	0.9973	0.114
Mof_O 	O 	0.7176	0.3659	0.2204	-0.659
Mof_C 	C 	0.7016	0.3818	0.1679	0.587
Mof_O 	O 	0.6474	0.7379	0.2134	-0.594
Mof_Eu	Eu	0.66524	0.58432	0.1983	2.475
Mof_Eu	Eu	0.71355	0.36395	0.3101	2.637
Mof_O 	O 	0.7559	0.6327	0.2168	-0.608
Mof_O 	O 	0.6297	0.436	0.2339	-0.642
Mof_O 	O 	0.7641	0.4801	0.3818	-0.515
Mof_O 	O 	0.5854	0.5661	0.2262	-0.492
Mof_O 	O 	0.7177	0.5477	0.2989	-0.681
Mof_C 	C 	0.5429	0.333	0.2445	0.139
Mof_H 	H 	0.5719	0.3003	0.2412	-0.02
Mof_C 	C 	0.5426	0.4288	0.2439	-0.198
Mof_C 	C 	0.7501	0.5522	0.3522	0.469
Mof_C 	C 	0.5881	0.4802	0.2342	0.431
Mof_C 	C 	0.8364	0.3175	0.2945	0.581
Mof_O 	O 	0.6598	0.6446	0.1072	-0.425
Mof_O 	O 	0.8147	0.9581	0.3538	-0.571
Mof_O 	O 	0.6557	0.6159	0.8585	-0.57
Mof_O 	O 	0.8274	0.7196	0.2214	-0.608
Mof_O 	O 	0.5868	0.5673	0.1036	-0.446
Mof_O 	O 	0.7597	0.2715	0.3944	-0.594
Mof_H 	H 	0.7391	0.2637	0.4112	0.319
Mof_O 	O 	0.8042	0.3305	0.3193	-0.584
Mof_C 	C 	0.7995	0.802	0.3709	-0.282
Mof_O 	O 	0.675	0.7263	0.9245	-0.324
Mof_C 	C 	0.8427	0.5583	0.2403	-0.317
Mof_C 	C 	0.8058	0.6433	0.2245	0.587
Mof_C 	C 	0.6028	0.5779	0.0172	-0.082
Mof_C 	C 	0.6295	0.6242	0.9875	0.043
Mof_H 	H 	0.6538	0.6719	0.0056	0.057
Mof_C 	C 	0.8265	0.4818	0.2614	0.276
Mof_H 	H 	0.7945	0.4843	0.2684	-0.109
Mof_C 	C 	0.6525	0.6523	0.9029	0.42
Mof_C 	C 	0.7747	0.7186	0.3455	0.209
Mof_H 	H 	0.7584	0.7139	0.3057	-0.057
Mof_C 	C 	0.6161	0.5976	0.0791	0.313
Mof_C 	C 	0.891	0.5571	0.2311	0.209
Mof_H 	H 	0.9032	0.6102	0.219	-0.034
Mof_C 	C 	0.8571	0.4002	0.2726	-0.311
Mof_C 	C 	0.7741	0.6441	0.3786	-0.247
Mof_C 	C 	0.6208	0.601	0.9318	-0.13
Mof_C 	C 	0.9035	0.3959	0.2605	0.201
Mof_H 	H 	0.9233	0.3409	0.2657	-0.029
Mof_C 	C 	0.9207	0.4755	0.2403	-0.263
Mof_H 	H 	0.9525	0.4734	0.2329	0.119
Mof_C 	C 	0.5654	0.5081	0.9897	0.03
Mof_H 	H 	0.5475	0.4765	0.0092	0.037
Mof_C 	C 	0.5835	0.5303	0.9047	0.05
Mof_H 	H 	0.5777	0.5128	0.8675	0.024
Mof_C 	C 	0.8234	0.8092	0.4292	0.179
Mof_H 	H 	0.8405	0.8641	0.4463	-0.017
Mof_C 	C 	0.5548	0.4855	0.9334	-0.107
Mof_H 	H 	0.5287	0.4405	0.9146	0.079
Mof_C 	C 	0.7971	0.6512	0.4377	0.153
Mof_H 	H 	0.7959	0.6014	0.4604	-0.006
Mof_C 	C 	0.8223	0.7343	0.463	-0.226
Mof_H 	H 	0.8383	0.7394	0.5027	0.113
Mof_O 	O 	0.7824	0.8659	0.2796	-0.659
Mof_C 	C 	0.7984	0.8818	0.3321	0.587
Mof_O 	O 	0.8526	0.2379	0.2866	-0.594
Mof_Eu	Eu	0.16524	0.08432	0.1983	2.474
Mof_Eu	Eu	0.21355	0.86395	0.3101	2.637
Mof_O 	O 	0.2559	0.1327	0.2168	-0.608
Mof_O 	O 	0.1297	0.936	0.2339	-0.643
Mof_O 	O 	0.2641	0.9801	0.3818	-0.514
Mof_O 	O 	0.0854	0.0661	0.2262	-0.493
Mof_O 	O 	0.2177	0.0477	0.2989	-0.681
Mof_C 	C 	0.0429	0.833	0.2445	0.14
Mof_H 	H 	0.0719	0.8003	0.2412	-0.02
Mof_C 	C 	0.0426	0.9288	0.2439	-0.199
Mof_C 	C 	0.2501	0.0522	0.3522	0.468
Mof_C 	C 	0.0881	0.9802	0.2342	0.431
Mof_C 	C 	0.3364	0.8175	0.2945	0.581
Mof_O 	O 	0.1598	0.1446	0.1072	-0.425
Mof_O 	O 	0.3147	0.4581	0.3538	-0.571
Mof_O 	O 	0.1557	0.1159	0.8585	-0.57
Mof_O 	O 	0.3274	0.2196	0.2214	-0.608
Mof_O 	O 	0.0868	0.0673	0.1036	-0.446
Mof_O 	O 	0.2597	0.7715	0.3944	-0.594
Mof_H 	H 	0.2391	0.7637	0.4112	0.319
Mof_O 	O 	0.3042	0.8305	0.3193	-0.584
Mof_C 	C 	0.2995	0.302	0.3709	-0.282
Mof_O 	O 	0.175	0.2263	0.9245	-0.324
Mof_C 	C 	0.3427	0.0583	0.2403	-0.317
Mof_C 	C 	0.3058	0.1433	0.2245	0.587
Mof_C 	C 	0.1028	0.0779	0.0172	-0.086
Mof_C 	C 	0.1295	0.1242	0.9875	0.046
Mof_H 	H 	0.1538	0.1719	0.0056	0.056
Mof_C 	C 	0.3265	0.9818	0.2614	0.277
Mof_H 	H 	0.2945	0.9843	0.2684	-0.109
Mof_C 	C 	0.1525	0.1523	0.9029	0.421
Mof_C 	C 	0.2747	0.2186	0.3455	0.209
Mof_H 	H 	0.2584	0.2139	0.3057	-0.057
Mof_C 	C 	0.1161	0.0976	0.0791	0.314
Mof_C 	C 	0.391	0.0571	0.2311	0.208
Mof_H 	H 	0.4032	0.1102	0.219	-0.034
Mof_C 	C 	0.3571	0.9002	0.2726	-0.311
Mof_C 	C 	0.2741	0.1441	0.3786	-0.247
Mof_C 	C 	0.1208	0.101	0.9318	-0.133
Mof_C 	C 	0.4035	0.8959	0.2605	0.201
Mof_H 	H 	0.4233	0.8409	0.2657	-0.029
Mof_C 	C 	0.4207	0.9755	0.2403	-0.262
Mof_H 	H 	0.4525	0.9734	0.2329	0.118
Mof_C 	C 	0.0654	0.0081	0.9897	0.035
Mof_H 	H 	0.0475	0.9765	0.0092	0.036
Mof_C 	C 	0.0835	0.0303	0.9047	0.054
Mof_H 	H 	0.0777	0.0128	0.8675	0.022
Mof_C 	C 	0.3234	0.3092	0.4292	0.178
Mof_H 	H 	0.3405	0.3641	0.4463	-0.017
Mof_C 	C 	0.0548	0.9855	0.9334	-0.113
Mof_H 	H 	0.0287	0.9405	0.9146	0.08
Mof_C 	C 	0.2971	0.1512	0.4377	0.153
Mof_H 	H 	0.2959	0.1014	0.4604	-0.006
Mof_C 	C 	0.3223	0.2343	0.463	-0.226
Mof_H 	H 	0.3383	0.2394	0.5027	0.113
Mof_O 	O 	0.2824	0.3659	0.2796	-0.659
Mof_C 	C 	0.2984	0.3818	0.3321	0.587
Mof_O 	O 	0.3526	0.7379	0.2866	-0.594
Mof_Eu	Eu	0.66524	0.41568	0.6983	2.475
Mof_Eu	Eu	0.71355	0.63605	0.8101	2.637
Mof_O 	O 	0.7559	0.3673	0.7168	-0.608
Mof_O 	O 	0.6297	0.564	0.7339	-0.642
Mof_O 	O 	0.7641	0.5199	0.8818	-0.514
Mof_O 	O 	0.5854	0.4339	0.7262	-0.492
Mof_O 	O 	0.7177	0.4523	0.7989	-0.681
Mof_C 	C 	0.5429	0.667	0.7445	0.139
Mof_H 	H 	0.5719	0.6997	0.7412	-0.02
Mof_C 	C 	0.5426	0.5712	0.7439	-0.198
Mof_C 	C 	0.7501	0.4478	0.8522	0.468
Mof_C 	C 	0.5881	0.5198	0.7342	0.431
Mof_C 	C 	0.8364	0.6825	0.7945	0.581
Mof_O 	O 	0.6598	0.3554	0.6072	-0.425
Mof_O 	O 	0.8147	0.0419	0.8538	-0.57
Mof_O 	O 	0.6557	0.3841	0.3585	-0.57
Mof_O 	O 	0.8274	0.2804	0.7214	-0.608
Mof_O 	O 	0.5868	0.4327	0.6036	-0.446
Mof_O 	O 	0.7597	0.7285	0.8944	-0.594
Mof_H 	H 	0.7391	0.7363	0.9112	0.319
Mof_O 	O 	0.8042	0.6695	0.8193	-0.584
Mof_C 	C 	0.7995	0.198	0.8709	-0.281
Mof_O 	O 	0.675	0.2737	0.4245	-0.324
Mof_C 	C 	0.8427	0.4417	0.7403	-0.317
Mof_C 	C 	0.8058	0.3567	0.7245	0.587
Mof_C 	C 	0.6028	0.4221	0.5172	-0.082
Mof_C 	C 	0.6295	0.3758	0.4875	0.043
Mof_H 	H 	0.6538	0.3281	0.5056	0.057
Mof_C 	C 	0.8265	0.5182	0.7614	0.276
Mof_H 	H 	0.7945	0.5157	0.7684	-0.109
Mof_C 	C 	0.6525	0.3477	0.4029	0.42
Mof_C 	C 	0.7747	0.2814	0.8455	0.208
Mof_H 	H 	0.7584	0.2861	0.8057	-0.057
Mof_C 	C 	0.6161	0.4024	0.5791	0.313
Mof_C 	C 	0.891	0.4429	0.7311	0.209
Mof_H 	H 	0.9032	0.3898	0.719	-0.034
Mof_C 	C 	0.8571	0.5998	0.7726	-0.311
Mof_C 	C 	0.7741	0.3559	0.8786	-0.247
Mof_C 	C 	0.6208	0.399	0.4318	-0.13
Mof_C 	C 	0.9035	0.6041	0.7605	0.201
Mof_H 	H 	0.9233	0.6591	0.7657	-0.029
Mof_C 	C 	0.9207	0.5245	0.7403	-0.263
Mof_H 	H 	0.9525	0.5266	0.7329	0.119
Mof_C 	C 	0.5654	0.4919	0.4897	0.031
Mof_H 	H 	0.5475	0.5235	0.5092	0.037
Mof_C 	C 	0.5835	0.4697	0.4047	0.05
Mof_H 	H 	0.5777	0.4872	0.3675	0.024
Mof_C 	C 	0.8234	0.1908	0.9292	0.177
Mof_H 	H 	0.8405	0.1359	0.9463	-0.017
Mof_C 	C 	0.5548	0.5145	0.4334	-0.107
Mof_H 	H 	0.5287	0.5595	0.4146	0.079
Mof_C 	C 	0.7971	0.3488	0.9377	0.151
Mof_H 	H 	0.7959	0.3986	0.9604	-0.005
Mof_C 	C 	0.8223	0.2657	0.963	-0.224
Mof_H 	H 	0.8383	0.2606	0.0027	0.112
Mof_O 	O 	0.7824	0.1341	0.7796	-0.659
Mof_C 	C 	0.7984	0.1182	0.8321	0.586
Mof_O 	O 	0.8526	0.7621	0.7866	-0.594
Mof_Eu	Eu	0.16524	0.91568	0.6983	2.474
Mof_Eu	Eu	0.21355	0.13605	0.8101	2.638
Mof_O 	O 	0.2559	0.8673	0.7168	-0.608
Mof_O 	O 	0.1297	0.064	0.7339	-0.643
Mof_O 	O 	0.2641	0.0199	0.8818	-0.514
Mof_O 	O 	0.0854	0.9339	0.7262	-0.493
Mof_O 	O 	0.2177	0.9523	0.7989	-0.681
Mof_C 	C 	0.0429	0.167	0.7445	0.141
Mof_H 	H 	0.0719	0.1997	0.7412	-0.02
Mof_C 	C 	0.0426	0.0712	0.7439	-0.199
Mof_C 	C 	0.2501	0.9478	0.8522	0.468
Mof_C 	C 	0.0881	0.0198	0.7342	0.432
Mof_C 	C 	0.3364	0.1825	0.7945	0.581
Mof_O 	O 	0.1598	0.8554	0.6072	-0.425
Mof_O 	O 	0.3147	0.5419	0.8538	-0.571
Mof_O 	O 	0.1557	0.8841	0.3585	-0.57
Mof_O 	O 	0.3274	0.7804	0.7214	-0.608
Mof_O 	O 	0.0868	0.9327	0.6036	-0.446
Mof_O 	O 	0.2597	0.2285	0.8944	-0.594
Mof_H 	H 	0.2391	0.2363	0.9112	0.319
Mof_O 	O 	0.3042	0.1695	0.8193	-0.584
Mof_C 	C 	0.2995	0.698	0.8709	-0.283
Mof_O 	O 	0.175	0.7737	0.4245	-0.324
Mof_C 	C 	0.3427	0.9417	0.7403	-0.317
Mof_C 	C 	0.3058	0.8567	0.7245	0.587
Mof_C 	C 	0.1028	0.9221	0.5172	-0.082
Mof_C 	C 	0.1295	0.8758	0.4875	0.043
Mof_H 	H 	0.1538	0.8281	0.5056	0.057
Mof_C 	C 	0.3265	0.0182	0.7614	0.277
Mof_H 	H 	0.2945	0.0157	0.7684	-0.109
Mof_C 	C 	0.1525	0.8477	0.4029	0.42
Mof_C 	C 	0.2747	0.7814	0.8455	0.209
Mof_H 	H 	0.2584	0.7861	0.8057	-0.057
Mof_C 	C 	0.1161	0.9024	0.5791	0.313
Mof_C 	C 	0.391	0.9429	0.7311	0.208
Mof_H 	H 	0.4032	0.8898	0.719	-0.034
Mof_C 	C 	0.3571	0.0998	0.7726	-0.311
Mof_C 	C 	0.2741	0.8559	0.8786	-0.248
Mof_C 	C 	0.1208	0.899	0.4318	-0.13
Mof_C 	C 	0.4035	0.1041	0.7605	0.201
Mof_H 	H 	0.4233	0.1591	0.7657	-0.029
Mof_C 	C 	0.4207	0.0245	0.7403	-0.262
Mof_H 	H 	0.4525	0.0266	0.7329	0.118
Mof_C 	C 	0.0654	0.9919	0.4897	0.031
Mof_H 	H 	0.0475	0.0235	0.5092	0.037
Mof_C 	C 	0.0835	0.9697	0.4047	0.05
Mof_H 	H 	0.0777	0.9872	0.3675	0.024
Mof_C 	C 	0.3234	0.6908	0.9292	0.18
Mof_H 	H 	0.3405	0.6359	0.9463	-0.018
Mof_C 	C 	0.0548	0.0145	0.4334	-0.108
Mof_H 	H 	0.0287	0.0595	0.4146	0.079
Mof_C 	C 	0.2971	0.8488	0.9377	0.154
Mof_H 	H 	0.2959	0.8986	0.9604	-0.007
Mof_C 	C 	0.3223	0.7657	0.963	-0.229
Mof_H 	H 	0.3383	0.7606	0.0027	0.114
Mof_O 	O 	0.2824	0.6341	0.7796	-0.659
Mof_C 	C 	0.2984	0.6182	0.8321	0.587
Mof_O 	O 	0.3526	0.2621	0.7866	-0.594
Mof_Eu	Eu	0.33476	0.41568	0.8017	2.475
Mof_Eu	Eu	0.28645	0.63605	0.6899	2.637
Mof_O 	O 	0.2441	0.3673	0.7832	-0.608
Mof_O 	O 	0.3703	0.564	0.7661	-0.642
Mof_O 	O 	0.2359	0.5199	0.6182	-0.515
Mof_O 	O 	0.4146	0.4339	0.7738	-0.492
Mof_O 	O 	0.2823	0.4523	0.7011	-0.681
Mof_C 	C 	0.4571	0.667	0.7555	0.139
Mof_H 	H 	0.4281	0.6997	0.7588	-0.02
Mof_C 	C 	0.4574	0.5712	0.7561	-0.198
Mof_C 	C 	0.2499	0.4478	0.6478	0.469
Mof_C 	C 	0.4119	0.5198	0.7658	0.431
Mof_C 	C 	0.1636	0.6825	0.7055	0.581
Mof_O 	O 	0.3402	0.3554	0.8928	-0.425
Mof_O 	O 	0.1853	0.0419	0.6462	-0.571
Mof_O 	O 	0.3443	0.3841	0.1415	-0.57
Mof_O 	O 	0.1726	0.2804	0.7786	-0.608
Mof_O 	O 	0.4132	0.4327	0.8964	-0.446
Mof_O 	O 	0.2403	0.7285	0.6056	-0.594
Mof_H 	H 	0.2609	0.7363	0.5888	0.319
Mof_O 	O 	0.1958	0.6695	0.6807	-0.584
Mof_C 	C 	0.2005	0.198	0.6291	-0.282
Mof_O 	O 	0.325	0.2737	0.0755	-0.324
Mof_C 	C 	0.1573	0.4417	0.7597	-0.317
Mof_C 	C 	0.1942	0.3567	0.7755	0.587
Mof_C 	C 	0.3972	0.4221	0.9828	-0.082
Mof_C 	C 	0.3705	0.3758	0.0125	0.043
Mof_H 	H 	0.3462	0.3281	0.9944	0.057
Mof_C 	C 	0.1735	0.5182	0.7386	0.276
Mof_H 	H 	0.2055	0.5157	0.7316	-0.109
Mof_C 	C 	0.3475	0.3477	0.0971	0.42
Mof_C 	C 	0.2253	0.2814	0.6545	0.209
Mof_H 	H 	0.2416	0.2861	0.6943	-0.057
Mof_C 	C 	0.3839	0.4024	0.9209	0.313
Mof_C 	C 	0.109	0.4429	0.7689	0.208
Mof_H 	H 	0.0968	0.3898	0.781	-0.034
Mof_C 	C 	0.1429	0.5998	0.7274	-0.311
Mof_C 	C 	0.2259	0.3559	0.6214	-0.248
Mof_C 	C 	0.3792	0.399	0.0682	-0.13
Mof_C 	C 	0.0965	0.6041	0.7395	0.201
Mof_H 	H 	0.0767	0.6591	0.7343	-0.03
Mof_C 	C 	0.0793	0.5245	0.7597	-0.263
Mof_H 	H 	0.0475	0.5266	0.7671	0.118
Mof_C 	C 	0.4346	0.4919	0.0103	0.031
Mof_H 	H 	0.4525	0.5235	0.9908	0.037
Mof_C 	C 	0.4165	0.4697	0.0953	0.05
Mof_H 	H 	0.4223	0.4872	0.1325	0.024
Mof_C 	C 	0.1766	0.1908	0.5708	0.178
Mof_H 	H 	0.1595	0.1359	0.5537	-0.017
Mof_C 	C 	0.4452	0.5145	0.0666	-0.107
Mof_H 	H 	0.4713	0.5595	0.0854	0.079
Mof_C 	C 	0.2029	0.3488	0.5623	0.153
Mof_H 	H 	0.2041	0.3986	0.5396	-0.006
Mof_C 	C 	0.1777	0.2657	0.537	-0.227
Mof_H 	H 	0.1617	0.2606	0.4973	0.113
Mof_O 	O 	0.2176	0.1341	0.7204	-0.659
Mof_C 	C 	0.2016	0.1182	0.6679	0.587
Mof_O 	O 	0.1474	0.7621	0.7134	-0.594
Mof_Eu	Eu	0.83476	0.91568	0.8017	2.474
Mof_Eu	Eu	0.78645	0.13605	0.6899	2.637
Mof_O 	O 	0.7441	0.8673	0.7832	-0.608
Mof_O 	O 	0.8703	0.064	0.7661	-0.642
Mof_O 	O 	0.7359	0.0199	0.6182	-0.514
Mof_O 	O 	0.9146	0.9339	0.7738	-0.492
Mof_O 	O 	0.7823	0.9523	0.7011	-0.681
Mof_C 	C 	0.9571	0.167	0.7555	0.142
Mof_H 	H 	0.9281	0.1997	0.7588	-0.021
Mof_C 	C 	0.9574	0.0712	0.7561	-0.198
Mof_C 	C 	0.7499	0.9478	0.6478	0.468
Mof_C 	C 	0.9119	0.0198	0.7658	0.432
Mof_C 	C 	0.6636	0.1825	0.7055	0.581
Mof_O 	O 	0.8402	0.8554	0.8928	-0.425
Mof_O 	O 	0.6853	0.5419	0.6462	-0.571
Mof_O 	O 	0.8443	0.8841	0.1415	-0.57
Mof_O 	O 	0.6726	0.7804	0.7786	-0.608
Mof_O 	O 	0.9132	0.9327	0.8964	-0.446
Mof_O 	O 	0.7403	0.2285	0.6056	-0.594
Mof_H 	H 	0.7609	0.2363	0.5888	0.319
Mof_O 	O 	0.6958	0.1695	0.6807	-0.584
Mof_C 	C 	0.7005	0.698	0.6291	-0.282
Mof_O 	O 	0.825	0.7737	0.0755	-0.324
Mof_C 	C 	0.6573	0.9417	0.7597	-0.317
Mof_C 	C 	0.6942	0.8567	0.7755	0.587
Mof_C 	C 	0.8972	0.9221	0.9828	-0.086
Mof_C 	C 	0.8705	0.8758	0.0125	0.047
Mof_H 	H 	0.8462	0.8281	0.9944	0.056
Mof_C 	C 	0.6735	0.0182	0.7386	0.277
Mof_H 	H 	0.7055	0.0157	0.7316	-0.109
Mof_C 	C 	0.8475	0.8477	0.0971	0.421
Mof_C 	C 	0.7253	0.7814	0.6545	0.209
Mof_H 	H 	0.7416	0.7861	0.6943	-0.057
Mof_C 	C 	0.8839	0.9024	0.9209	0.314
Mof_C 	C 	0.609	0.9429	0.7689	0.208
Mof_H 	H 	0.5968	0.8898	0.781	-0.034
Mof_C 	C 	0.6429	0.0998	0.7274	-0.311
Mof_C 	C 	0.7259	0.8559	0.6214	-0.247
Mof_C 	C 	0.8792	0.899	0.0682	-0.133
Mof_C 	C 	0.5965	0.1041	0.7395	0.201
Mof_H 	H 	0.5767	0.1591	0.7343	-0.029
Mof_C 	C 	0.5793	0.0245	0.7597	-0.262
Mof_H 	H 	0.5475	0.0266	0.7671	0.118
Mof_C 	C 	0.9346	0.9919	0.0103	0.035
Mof_H 	H 	0.9525	0.0235	0.9908	0.036
Mof_C 	C 	0.9165	0.9697	0.0953	0.054
Mof_H 	H 	0.9223	0.9872	0.1325	0.023
Mof_C 	C 	0.6766	0.6908	0.5708	0.178
Mof_H 	H 	0.6595	0.6359	0.5537	-0.017
Mof_C 	C 	0.9452	0.0145	0.0666	-0.113
Mof_H 	H 	0.9713	0.0595	0.0854	0.081
Mof_C 	C 	0.7029	0.8488	0.5623	0.153
Mof_H 	H 	0.7041	0.8986	0.5396	-0.006
Mof_C 	C 	0.6777	0.7657	0.537	-0.226
Mof_H 	H 	0.6617	0.7606	0.4973	0.113
Mof_O 	O 	0.7176	0.6341	0.7204	-0.659
Mof_C 	C 	0.7016	0.6182	0.6679	0.587
Mof_O 	O 	0.6474	0.2621	0.7134	-0.594
Mof_C 	C 	0.5	0.4774	0.25	0.122
Mof_H 	H 	0.5	0.5418	0.25	0.01
Mof_C 	C 	0.5	0.2872	0.25	-0.206
Mof_H 	H 	0.5	0.2228	0.25	0.104
Mof_C 	C 	1.27938e-17	0.9774	0.25	0.123
Mof_H 	H 	1.27938e-17	0.0418	0.25	0.009
Mof_C 	C 	2.55876e-17	0.7872	0.25	-0.209
Mof_H 	H 	1.25763e-33	0.7228	0.25	0.105
Mof_C 	C 	0.5	0.5226	0.75	0.122
Mof_H 	H 	0.5	0.4582	0.75	0.01
Mof_C 	C 	0.5	0.7128	0.75	-0.206
Mof_H 	H 	0.5	0.7772	0.75	0.104
Mof_C 	C 	3.77289e-33	0.0226	0.75	0.123
Mof_H 	H 	3.77289e-33	0.9582	0.75	0.009
Mof_C 	C 	3.77289e-33	0.2128	0.75	-0.21
Mof_H 	H 	3.77289e-33	0.2772	0.75	0.105
_end
