data_functionalizedCrystal
_audit_creation_method	'EQeq! by Chris Wilmer'
_symmetry_space_group_name_H-M	'P1'
_symmetry_Int_Tables_number	1
_symmetry_cell_setting	triclinic
loop_
_symmetry_equiv_pos_as_xyz
  x,y,z
_cell_length_a	7.7053
_cell_length_b	7.7053
_cell_length_c	14.8155
_cell_angle_alpha	90
_cell_angle_beta	90
_cell_angle_gamma	120
loop_
_atom_site_label
_atom_site_type_symbol
_atom_site_fract_x
_atom_site_fract_y
_atom_site_fract_z
_atom_site_charge
Mof_La	La	0.66667	0.33334	0.75	1.357
Mof_La	La	0.33333	0.66666	0.25	1.334
Mof_Cr	Cr	-0	-1.65689e-32	0.5	0.745
Mof_Cr	Cr	-0	0	-0	0.549
Mof_C 	C 	0.2516	0.1092	0.5807	-0.225
Mof_C 	C 	0.8576	0.7484	0.5807	-0.062
Mof_C 	C 	0.8908	0.1424	0.5807	-0.142
Mof_C 	C 	0.7484	0.8908	0.0807	-0.043
Mof_C 	C 	0.1424	0.2516	0.0807	-0.206
Mof_C 	C 	0.1092	0.8576	0.0807	-0.116
Mof_C 	C 	0.7484	0.8908	0.4193	-0.059
Mof_C 	C 	0.1424	0.2516	0.4193	-0.223
Mof_C 	C 	0.1092	0.8576	0.4193	-0.134
Mof_C 	C 	0.2516	0.1092	0.9193	-0.153
Mof_C 	C 	0.8576	0.7484	0.9193	0.006
Mof_C 	C 	0.8908	0.1424	0.9193	-0.072
Mof_N 	N 	0.3897	0.1698	0.6254	-0.208
Mof_N 	N 	0.7801	0.6103	0.6254	-0.21
Mof_N 	N 	0.8302	0.2199	0.6254	-0.205
Mof_N 	N 	0.6103	0.8302	0.1254	-0.218
Mof_N 	N 	0.2199	0.3897	0.1254	-0.216
Mof_N 	N 	0.1698	0.7801	0.1254	-0.221
Mof_N 	N 	0.6103	0.8302	0.3746	-0.206
Mof_N 	N 	0.2199	0.3897	0.3746	-0.204
Mof_N 	N 	0.1698	0.7801	0.3746	-0.21
Mof_N 	N 	0.3897	0.1698	0.8746	-0.22
Mof_N 	N 	0.7801	0.6103	0.8746	-0.221
Mof_N 	N 	0.8302	0.2199	0.8746	-0.217
_end
