data_functionalizedCrystal
_audit_creation_method	'EQeq! by Chris Wilmer'
_symmetry_space_group_name_H-M	'P1'
_symmetry_Int_Tables_number	1
_symmetry_cell_setting	triclinic
loop_
_symmetry_equiv_pos_as_xyz
  x,y,z
_cell_length_a	13.7506
_cell_length_b	17.8675
_cell_length_c	17.8675
_cell_angle_alpha	66.3412
_cell_angle_beta	75.1358
_cell_angle_gamma	104.864
loop_
_atom_site_label
_atom_site_type_symbol
_atom_site_fract_x
_atom_site_fract_y
_atom_site_fract_z
_atom_site_charge
Mof_Cd	Cd	0.92042	0.36654	0.22771	0.448
Mof_Cd	Cd	0.14813	0.22771	0.40575	0.449
Mof_Cd	Cd	0.55388	0.40575	0.36654	0.449
Mof_Cd	Cd	0.07958	0.63346	0.77229	0.448
Mof_Cd	Cd	0.85187	0.77229	0.59425	0.448
Mof_Cd	Cd	0.44612	0.59425	0.63346	0.448
Mof_H 	H 	0.7947	0.0367	0.4682	0.089
Mof_H 	H 	0.5721	0.0636	0.3658	0.087
Mof_H 	H 	0.6771	0.2154	0.2836	0.017
Mof_H 	H 	0.5552	0.9155	0.3887	0.077
Mof_H 	H 	0.6393	0.9152	0.5873	0.091
Mof_H 	H 	0.5594	0.76	0.6631	0.028
Mof_H 	H 	0.059	0.2614	0.1808	0.014
Mof_H 	H 	0.1208	0.218	0.0789	0.089
Mof_H 	H 	0.101	0.2759	0.9463	0.006
Mof_H 	H 	0.0135	0.3691	0.9204	0.096
Mof_H 	H 	0.9393	0.4022	0.0324	0.031
Mof_H 	H 	0.2629	0.4682	0.4951	0.089
Mof_H 	H 	0.9379	0.3658	0.5706	0.087
Mof_H 	H 	0.9607	0.2836	0.501	0.017
Mof_H 	H 	0.9439	0.3887	0.6958	0.077
Mof_H 	H 	0.2266	0.5873	0.4975	0.091
Mof_H 	H 	0.2225	0.6631	0.5769	0.028
Mof_H 	H 	0.2398	0.1808	0.5578	0.014
Mof_H 	H 	0.1997	0.0789	0.7031	0.088
Mof_H 	H 	0.0473	0.9463	0.7778	0.006
Mof_H 	H 	0.9339	0.9204	0.7105	0.096
Mof_H 	H 	0.9717	0.0324	0.5654	0.031
Mof_H 	H 	0.758	0.4951	0.0367	0.089
Mof_H 	H 	0.5085	0.5706	0.0636	0.087
Mof_H 	H 	0.4617	0.501	0.2154	0.017
Mof_H 	H 	0.6397	0.6958	0.9155	0.077
Mof_H 	H 	0.7241	0.4975	0.9152	0.091
Mof_H 	H 	0.7994	0.5769	0.76	0.028
Mof_H 	H 	0.7976	0.5578	0.2614	0.014
Mof_H 	H 	0.9028	0.7031	0.218	0.089
Mof_H 	H 	0.8251	0.7778	0.2759	0.005
Mof_H 	H 	0.6444	0.7105	0.3691	0.096
Mof_H 	H 	0.5371	0.5654	0.4022	0.031
Mof_H 	H 	0.2053	0.9633	0.5318	0.089
Mof_H 	H 	0.4279	0.9364	0.6342	0.087
Mof_H 	H 	0.3229	0.7846	0.7164	0.017
Mof_H 	H 	0.4448	0.0845	0.6113	0.077
Mof_H 	H 	0.3607	0.0848	0.4127	0.091
Mof_H 	H 	0.4406	0.24	0.3369	0.028
Mof_H 	H 	0.941	0.7386	0.8192	0.014
Mof_H 	H 	0.8792	0.782	0.9211	0.089
Mof_H 	H 	0.899	0.7241	0.0537	0.006
Mof_H 	H 	0.9865	0.6309	0.0796	0.096
Mof_H 	H 	0.0607	0.5978	0.9676	0.031
Mof_H 	H 	0.7371	0.5318	0.5049	0.089
Mof_H 	H 	0.0621	0.6342	0.4294	0.087
Mof_H 	H 	0.0393	0.7164	0.499	0.017
Mof_H 	H 	0.0561	0.6113	0.3042	0.077
Mof_H 	H 	0.7734	0.4127	0.5025	0.091
Mof_H 	H 	0.7775	0.3369	0.4231	0.028
Mof_H 	H 	0.7602	0.8192	0.4422	0.014
Mof_H 	H 	0.8003	0.9211	0.2969	0.088
Mof_H 	H 	0.9527	0.0537	0.2222	0.006
Mof_H 	H 	0.0661	0.0796	0.2895	0.096
Mof_H 	H 	0.0283	0.9676	0.4346	0.031
Mof_H 	H 	0.242	0.5049	0.9633	0.089
Mof_H 	H 	0.4915	0.4294	0.9364	0.087
Mof_H 	H 	0.5383	0.499	0.7846	0.017
Mof_H 	H 	0.3603	0.3042	0.0845	0.077
Mof_H 	H 	0.2759	0.5025	0.0848	0.091
Mof_H 	H 	0.2006	0.4231	0.24	0.028
Mof_H 	H 	0.2024	0.4422	0.7386	0.014
Mof_H 	H 	0.0972	0.2969	0.782	0.089
Mof_H 	H 	0.1749	0.2222	0.7241	0.005
Mof_H 	H 	0.3556	0.2895	0.6309	0.096
Mof_H 	H 	0.4629	0.4346	0.5978	0.031
Mof_C 	C 	0.8292	0.1614	0.3775	0.03
Mof_C 	C 	0.7701	0.0717	0.4294	-0.104
Mof_C 	C 	0.6714	0.0319	0.4247	0.062
Mof_C 	C 	0.6378	0.0869	0.3702	-0.136
Mof_C 	C 	0.7017	0.1785	0.3205	0.09
Mof_C 	C 	0.9398	0.2051	0.3765	0.266
Mof_C 	C 	0.5115	0.794	0.4901	0.013
Mof_C 	C 	0.5584	0.8851	0.4435	-0.084
Mof_C 	C 	0.6106	0.9333	0.4773	0.04
Mof_C 	C 	0.6082	0.8852	0.5615	-0.117
Mof_C 	C 	0.5591	0.7916	0.6074	0.076
Mof_C 	C 	0.4589	0.738	0.4578	0.276
Mof_C 	C 	0.0471	0.2827	0.1286	0.09
Mof_C 	C 	0.0863	0.2573	0.0669	-0.15
Mof_C 	C 	0.0735	0.2908	0.9891	0.083
Mof_C 	C 	0.0217	0.3451	0.9741	-0.14
Mof_C 	C 	0.9784	0.3662	0.0417	0.084
Mof_C 	C 	0.2067	0.3775	0.4611	0.03
Mof_C 	C 	0.1995	0.4294	0.4989	-0.104
Mof_C 	C 	0.0961	0.4247	0.5434	0.062
Mof_C 	C 	0.008	0.3702	0.5429	-0.137
Mof_C 	C 	0.0222	0.3205	0.501	0.09
Mof_C 	C 	0.3163	0.3765	0.4184	0.266
Mof_C 	C 	0.0016	0.4901	0.7159	0.013
Mof_C 	C 	0.0019	0.4435	0.6714	-0.085
Mof_C 	C 	0.0879	0.4773	0.5894	0.04
Mof_C 	C 	0.1697	0.5615	0.5533	-0.117
Mof_C 	C 	0.1665	0.6074	0.601	0.076
Mof_C 	C 	0.9167	0.4578	0.8042	0.276
Mof_C 	C 	0.1757	0.1286	0.5887	0.09
Mof_C 	C 	0.1532	0.0669	0.6758	-0.15
Mof_C 	C 	0.0626	0.9891	0.7201	0.082
Mof_C 	C 	0.9958	0.9741	0.6808	-0.139
Mof_C 	C 	0.0201	0.0417	0.5921	0.084
Mof_C 	C 	0.6678	0.4611	0.1614	0.03
Mof_C 	C 	0.6984	0.4989	0.0717	-0.104
Mof_C 	C 	0.6395	0.5434	0.0319	0.061
Mof_C 	C 	0.5509	0.5429	0.0869	-0.136
Mof_C 	C 	0.5232	0.501	0.1785	0.09
Mof_C 	C 	0.7347	0.4184	0.2051	0.266
Mof_C 	C 	0.7175	0.7159	0.794	0.013
Mof_C 	C 	0.6733	0.6714	0.8851	-0.084
Mof_C 	C 	0.6773	0.5894	0.9333	0.04
Mof_C 	C 	0.723	0.5533	0.8852	-0.117
Mof_C 	C 	0.7675	0.601	0.7916	0.076
Mof_C 	C 	0.7209	0.8042	0.738	0.275
Mof_C 	C 	0.7644	0.5887	0.2827	0.09
Mof_C 	C 	0.829	0.6758	0.2573	-0.152
Mof_C 	C 	0.7827	0.7201	0.2908	0.084
Mof_C 	C 	0.6766	0.6808	0.3451	-0.141
Mof_C 	C 	0.6122	0.5921	0.3662	0.085
Mof_C 	C 	0.1708	0.8386	0.6225	0.03
Mof_C 	C 	0.2299	0.9283	0.5706	-0.104
Mof_C 	C 	0.3286	0.9681	0.5753	0.062
Mof_C 	C 	0.3622	0.9131	0.6298	-0.136
Mof_C 	C 	0.2983	0.8215	0.6795	0.09
Mof_C 	C 	0.0602	0.7949	0.6235	0.266
Mof_C 	C 	0.4885	0.206	0.5099	0.013
Mof_C 	C 	0.4416	0.1149	0.5565	-0.084
Mof_C 	C 	0.3894	0.0667	0.5227	0.04
Mof_C 	C 	0.3918	0.1148	0.4385	-0.117
Mof_C 	C 	0.4409	0.2084	0.3926	0.076
Mof_C 	C 	0.5411	0.262	0.5422	0.276
Mof_C 	C 	0.9529	0.7173	0.8714	0.09
Mof_C 	C 	0.9137	0.7427	0.9331	-0.15
Mof_C 	C 	0.9265	0.7092	0.0109	0.083
Mof_C 	C 	0.9783	0.6549	0.0259	-0.14
Mof_C 	C 	0.0216	0.6338	0.9583	0.084
Mof_C 	C 	0.7933	0.6225	0.5389	0.03
Mof_C 	C 	0.8005	0.5706	0.5011	-0.104
Mof_C 	C 	0.9039	0.5753	0.4566	0.062
Mof_C 	C 	0.992	0.6298	0.4571	-0.137
Mof_C 	C 	0.9778	0.6795	0.499	0.09
Mof_C 	C 	0.6837	0.6235	0.5816	0.266
Mof_C 	C 	0.9984	0.5099	0.2841	0.013
Mof_C 	C 	0.9981	0.5565	0.3286	-0.085
Mof_C 	C 	0.9121	0.5227	0.4106	0.04
Mof_C 	C 	0.8303	0.4385	0.4467	-0.117
Mof_C 	C 	0.8335	0.3926	0.399	0.076
Mof_C 	C 	0.0833	0.5422	0.1958	0.276
Mof_C 	C 	0.8243	0.8714	0.4113	0.09
Mof_C 	C 	0.8468	0.9331	0.3242	-0.15
Mof_C 	C 	0.9374	0.0109	0.2799	0.082
Mof_C 	C 	0.0042	0.0259	0.3192	-0.139
Mof_C 	C 	0.9799	0.9583	0.4079	0.084
Mof_C 	C 	0.3322	0.5389	0.8386	0.03
Mof_C 	C 	0.3016	0.5011	0.9283	-0.104
Mof_C 	C 	0.3605	0.4566	0.9681	0.061
Mof_C 	C 	0.4491	0.4571	0.9131	-0.136
Mof_C 	C 	0.4768	0.499	0.8215	0.09
Mof_C 	C 	0.2653	0.5816	0.7949	0.266
Mof_C 	C 	0.2825	0.2841	0.206	0.013
Mof_C 	C 	0.3267	0.3286	0.1149	-0.084
Mof_C 	C 	0.3227	0.4106	0.0667	0.04
Mof_C 	C 	0.277	0.4467	0.1148	-0.117
Mof_C 	C 	0.2325	0.399	0.2084	0.076
Mof_C 	C 	0.2791	0.1958	0.262	0.275
Mof_C 	C 	0.2356	0.4113	0.7173	0.09
Mof_C 	C 	0.171	0.3242	0.7427	-0.152
Mof_C 	C 	0.2173	0.2799	0.7092	0.084
Mof_C 	C 	0.3234	0.3192	0.6549	-0.141
Mof_C 	C 	0.3878	0.4079	0.6338	0.085
Mof_N 	N 	0.7951	0.2148	0.3235	-0.141
Mof_N 	N 	0.5116	0.7467	0.5724	-0.129
Mof_N 	N 	0.9934	0.3355	0.1169	-0.15
Mof_N 	N 	0.1186	0.3235	0.4617	-0.141
Mof_N 	N 	0.084	0.5724	0.6809	-0.129
Mof_N 	N 	0.1103	0.1169	0.5476	-0.15
Mof_N 	N 	0.5803	0.4617	0.2148	-0.141
Mof_N 	N 	0.7649	0.6809	0.7467	-0.129
Mof_N 	N 	0.6579	0.5476	0.3355	-0.15
Mof_N 	N 	0.2049	0.7852	0.6765	-0.141
Mof_N 	N 	0.4884	0.2533	0.4276	-0.129
Mof_N 	N 	0.0066	0.6645	0.8831	-0.15
Mof_N 	N 	0.8814	0.6765	0.5383	-0.141
Mof_N 	N 	0.916	0.4276	0.3191	-0.129
Mof_N 	N 	0.8897	0.8831	0.4524	-0.15
Mof_N 	N 	0.4197	0.5383	0.7852	-0.141
Mof_N 	N 	0.2351	0.3191	0.2533	-0.129
Mof_N 	N 	0.3421	0.4524	0.6645	-0.15
Mof_O 	O 	0.9961	0.2868	0.3205	-0.269
Mof_O 	O 	0.9699	0.1567	0.4313	-0.269
Mof_O 	O 	0.4323	0.6554	0.4985	-0.263
Mof_O 	O 	0.4492	0.7788	0.387	-0.229
Mof_O 	O 	0.3166	0.3205	0.3927	-0.269
Mof_O 	O 	0.4012	0.4313	0.412	-0.269
Mof_O 	O 	0.9308	0.4985	0.8461	-0.263
Mof_O 	O 	0.8362	0.387	0.8342	-0.229
Mof_O 	O 	0.7093	0.3927	0.2868	-0.269
Mof_O 	O 	0.8132	0.412	0.1567	-0.269
Mof_O 	O 	0.7769	0.8461	0.6554	-0.263
Mof_O 	O 	0.6704	0.8342	0.7788	-0.229
Mof_O 	O 	0.0039	0.7132	0.6795	-0.269
Mof_O 	O 	0.0301	0.8433	0.5687	-0.269
Mof_O 	O 	0.5677	0.3446	0.5015	-0.263
Mof_O 	O 	0.5508	0.2212	0.613	-0.229
Mof_O 	O 	0.6834	0.6795	0.6073	-0.269
Mof_O 	O 	0.5988	0.5687	0.588	-0.269
Mof_O 	O 	0.0692	0.5015	0.1539	-0.263
Mof_O 	O 	0.1638	0.613	0.1658	-0.229
Mof_O 	O 	0.2907	0.6073	0.7132	-0.269
Mof_O 	O 	0.1868	0.588	0.8433	-0.269
Mof_O 	O 	0.2231	0.1539	0.3446	-0.263
Mof_O 	O 	0.3296	0.1658	0.2212	-0.229
_end
