data_functionalizedCrystal
_audit_creation_method	'EQeq! by Chris Wilmer'
_symmetry_space_group_name_H-M	'P1'
_symmetry_Int_Tables_number	1
_symmetry_cell_setting	triclinic
loop_
_symmetry_equiv_pos_as_xyz
  x,y,z
_cell_length_a	6.91
_cell_length_b	7.389
_cell_length_c	8.223
_cell_angle_alpha	90.08
_cell_angle_beta	109.83
_cell_angle_gamma	93.37
loop_
_atom_site_label
_atom_site_type_symbol
_atom_site_fract_x
_atom_site_fract_y
_atom_site_fract_z
_atom_site_charge
Mof_Ni	Ni	4.50658e-18	0.5	-0	0.964
Mof_Ni	Ni	0.5	0	-0	0.938
Mof_H 	H 	0.429	0.796	0.5375	0.085
Mof_H 	H 	0.571	0.204	0.4625	0.006
Mof_C 	C 	0.581	0.6613	0.8403	0.332
Mof_C 	C 	0.5395	0.5714	0.6668	-0.029
Mof_C 	C 	0.5812	0.3921	0.6428	-0.088
Mof_C 	C 	0.4579	0.677	0.5226	-0.013
Mof_C 	C 	0.6476	0.2605	0.788	0.346
Mof_C 	C 	0.419	0.3387	0.1597	0.38
Mof_C 	C 	0.4605	0.4286	0.3332	-0.135
Mof_C 	C 	0.4188	0.6079	0.3572	-0.063
Mof_C 	C 	0.5421	0.323	0.4774	0.041
Mof_C 	C 	0.3524	0.7395	0.212	0.339
Mof_O 	O 	0.4476	0.7644	0.851	-0.253
Mof_O 	O 	0.7451	0.6379	0.9615	-0.234
Mof_O 	O 	0.8293	0.2703	0.8954	-0.289
Mof_O 	O 	0.5125	0.1411	0.7897	-0.374
Mof_O 	O 	0.5524	0.2356	0.149	-0.501
Mof_O 	O 	0.2549	0.3621	0.0385	-0.58
Mof_O 	O 	0.1707	0.7297	0.1046	-0.507
Mof_O 	O 	0.4875	0.8589	0.2103	-0.365
_end
