data_functionalizedCrystal
_audit_creation_method	'EQeq! by Chris Wilmer'
_symmetry_space_group_name_H-M	'P1'
_symmetry_Int_Tables_number	1
_symmetry_cell_setting	triclinic
loop_
_symmetry_equiv_pos_as_xyz
  x,y,z
_cell_length_a	14.1504
_cell_length_b	19.257
_cell_length_c	19.43
_cell_angle_alpha	69.873
_cell_angle_beta	82.011
_cell_angle_gamma	75.484
loop_
_atom_site_label
_atom_site_type_symbol
_atom_site_fract_x
_atom_site_fract_y
_atom_site_fract_z
_atom_site_charge
Mof_Zn	Zn	0.14162	0.69482	0.07492	1.157
Mof_Zn	Zn	0.64648	0.87853	0.71009	1.21
Mof_Zn	Zn	0.65016	0.47337	0.42777	1.209
Mof_C 	C 	0.749	0.87124	0.83751	0.133
Mof_H 	H 	0.6921	0.9053	0.8446	-0.034
Mof_O 	O 	0.69393	0.79488	0.66766	-0.424
Mof_O 	O 	0.54488	0.84442	0.62735	-0.302
Mof_O 	O 	0.6585	0.97134	0.63065	-0.443
Mof_C 	C 	0.3849	0.59009	0.31822	-0.185
Mof_H 	H 	0.3326	0.6286	0.3237	0.1
Mof_C 	C 	0.4581	0.55915	0.36744	0.094
Mof_H 	H 	0.4544	0.5782	0.4059	-0.006
Mof_C 	C 	0.5386	0.47478	0.30688	0.104
Mof_H 	H 	0.5899	0.4349	0.3032	-0.015
Mof_O 	O 	0.60732	0.55435	0.47305	-0.447
Mof_O 	O 	0.75725	0.50603	0.51297	-0.32
Mof_C 	C 	0.7446	0.63029	0.56437	0.133
Mof_H 	H 	0.8067	0.6005	0.5608	-0.003
Mof_O 	O 	0.65724	0.37478	0.5024	-0.449
Mof_O 	O 	0.7038	0.33604	0.40571	-0.32
Mof_C 	C 	0.6961	0.1849	0.4932	-0.03
Mof_H 	H 	0.7211	0.1926	0.4449	0.055
Mof_C 	C 	0.9041	0.79365	0.88045	0.195
Mof_N 	N 	0.14839	0.74672	0.96186	-0.288
Mof_C 	C 	0.3988	0.78576	0.88992	0.163
Mof_C 	C 	0.4758	0.88769	0.82273	0.112
Mof_H 	H 	0.4796	0.9379	0.8118	-0.014
Mof_N 	N 	0.53968	0.84455	0.78713	-0.282
Mof_N 	N 	0.76067	0.84977	0.77759	-0.279
Mof_C 	C 	0.5598	0.72	0.57312	-0.114
Mof_C 	C 	0.7304	0.6881	0.59402	-0.269
Mof_C 	C 	0.6333	0.0223	0.6586	0.294
Mof_C 	C 	0.6467	0.10164	0.60894	-0.021
Mof_N 	N 	0.29237	0.67305	0.07258	-0.288
Mof_C 	C 	0.392	0.56154	0.25978	0.149
Mof_N 	N 	0.53496	0.50232	0.36213	-0.269
Mof_C 	C 	0.4686	0.50366	0.25514	-0.197
Mof_H 	H 	0.4738	0.4836	0.2172	0.099
Mof_N 	N 	0.14455	0.61465	0.1788	-0.285
Mof_C 	C 	0.8972	0.57144	0.24869	0.166
Mof_N 	N 	0.75469	0.51	0.34936	-0.285
Mof_C 	C 	0.6644	0.61713	0.53987	-0.141
Mof_C 	C 	0.5732	0.6635	0.54395	0.067
Mof_H 	H 	0.5202	0.6557	0.5264	0.021
Mof_C 	C 	0.6709	0.24432	0.52095	-0.067
Mof_C 	C 	0.8276	0.46705	0.32482	0.129
Mof_H 	H 	0.8306	0.4152	0.3405	-0.021
Mof_C 	C 	0.9438	0.6461	0.12386	0.096
Mof_C 	C 	0.8509	0.6545	0.09674	-0.085
Mof_H 	H 	0.799	0.6341	0.1238	0.059
Mof_C 	C 	0.8518	0.6974	0.02501	-0.09
Mof_H 	H 	0.8016	0.7113	0.9935	0.06
Mof_C 	C 	0.9462	0.71742	0.00705	0.104
Mof_C 	C 	0.9786	0.7602	0.93723	-0.18
Mof_C 	C 	0.8195	0.8441	0.88956	-0.266
Mof_C 	C 	0.0714	0.77354	0.91607	0.108
Mof_C 	C 	0.1048	0.81781	0.84464	-0.091
Mof_H 	H 	0.0672	0.8425	0.804	0.065
Mof_C 	C 	0.1995	0.81733	0.84689	-0.082
Mof_H 	H 	0.2393	0.8417	0.8087	0.063
Mof_C 	C 	0.2271	0.77126	0.92052	0.098
Mof_C 	C 	0.3213	0.75321	0.94508	-0.164
Mof_C 	C 	0.4058	0.86073	0.87407	-0.207
Mof_H 	H 	0.3637	0.8918	0.898	0.097
Mof_C 	C 	0.8441	0.80191	0.76664	0.123
Mof_H 	H 	0.8533	0.7874	0.7248	-0.023
Mof_C 	C 	0.6223	0.79615	0.63256	0.256
Mof_C 	C 	0.6378	0.73337	0.59934	0.06
Mof_C 	C 	0.6205	0.1616	0.6353	-0.101
Mof_C 	C 	0.6841	0.1131	0.5379	-0.011
Mof_C 	C 	0.5335	0.7731	0.80437	0.123
Mof_H 	H 	0.5778	0.7421	0.7814	-0.03
Mof_C 	C 	0.4644	0.74284	0.8548	-0.216
Mof_H 	H 	0.4625	0.6923	0.865	0.105
Mof_C 	C 	0.3519	0.70632	0.01489	0.096
Mof_C 	C 	0.4497	0.68725	0.03816	-0.086
Mof_H 	H 	0.5038	0.7025	0.0095	0.059
Mof_C 	C 	0.4488	0.64307	0.10943	-0.086
Mof_H 	H 	0.5021	0.6219	0.1387	0.059
Mof_C 	C 	0.3495	0.63499	0.13139	0.098
Mof_C 	C 	0.3163	0.59683	0.2022	-0.158
Mof_C 	C 	0.2206	0.58838	0.22507	0.1
Mof_C 	C 	0.0646	0.59031	0.22103	0.098
Mof_C 	C 	0.9737	0.60363	0.19504	-0.166
Mof_C 	C 	0.8152	0.6178	0.27072	-0.207
Mof_H 	H 	0.8061	0.6703	0.2516	0.1
Mof_C 	C 	0.7469	0.58446	0.32184	0.114
Mof_H 	H 	0.6933	0.6158	0.3375	-0.028
Mof_C 	C 	0.6796	0.55429	0.50741	0.328
Mof_C 	C 	0.6784	0.32341	0.47252	0.308
Mof_C 	C 	0.6327	0.23386	0.592	0.01
Mof_H 	H 	0.6154	0.274	0.6107	0.04
Mof_C 	C 	0.9021	0.4953	0.27562	-0.216
Mof_H 	H 	0.9548	0.4622	0.2614	0.106
Mof_C 	C 	0.0919	0.54911	0.29598	-0.08
Mof_H 	H 	0.0513	0.5277	0.3353	0.066
Mof_C 	C 	0.1882	0.5478	0.29781	-0.088
Mof_H 	H 	0.2259	0.5249	0.3386	0.077
Mof_N 	N 	0.00208	0.68433	0.06737	-0.29
Mof_O 	O 	0.59887	0.01361	0.72418	-0.327
Mof_C 	C 	0.9164	0.7739	0.81633	-0.242
Mof_H 	H 	0.738	0.083	0.51	0.045
Mof_H 	H 	0.766	0.6983	0.6137	0.179
Mof_H 	H 	0.965	0.7388	0.8052	0.121
Mof_H 	H 	0.494	0.745	0.581	0.085
Mof_H 	H 	0.804	0.8562	0.9298	0.129
Mof_H 	H 	0.592	0.1632	0.6731	0.089
Mof_Zn	Zn	0.85838	0.30518	0.92508	1.158
Mof_Zn	Zn	0.35352	0.12147	0.28991	1.211
Mof_Zn	Zn	0.34984	0.52663	0.57223	1.21
Mof_C 	C 	0.251	0.12876	0.16249	0.134
Mof_H 	H 	0.3079	0.0947	0.1554	-0.033
Mof_O 	O 	0.30607	0.20512	0.33234	-0.423
Mof_O 	O 	0.45512	0.15558	0.37265	-0.301
Mof_O 	O 	0.3415	0.02866	0.36935	-0.442
Mof_C 	C 	0.6151	0.40991	0.68178	-0.185
Mof_H 	H 	0.6674	0.3714	0.6763	0.1
Mof_C 	C 	0.5419	0.44085	0.63256	0.094
Mof_H 	H 	0.5456	0.4218	0.5941	-0.006
Mof_C 	C 	0.4614	0.52522	0.69312	0.104
Mof_H 	H 	0.4101	0.5651	0.6968	-0.015
Mof_O 	O 	0.39268	0.44565	0.52695	-0.447
Mof_O 	O 	0.24275	0.49397	0.48703	-0.32
Mof_C 	C 	0.2554	0.36971	0.43563	0.133
Mof_H 	H 	0.1933	0.3995	0.4392	-0.003
Mof_O 	O 	0.34276	0.62522	0.4976	-0.449
Mof_O 	O 	0.2962	0.66396	0.59429	-0.32
Mof_C 	C 	0.3039	0.8151	0.5068	-0.03
Mof_H 	H 	0.2789	0.8074	0.5551	0.055
Mof_C 	C 	0.0959	0.20635	0.11955	0.195
Mof_N 	N 	0.85161	0.25328	0.03814	-0.288
Mof_C 	C 	0.6012	0.21424	0.11008	0.163
Mof_C 	C 	0.5242	0.11231	0.17727	0.112
Mof_H 	H 	0.5204	0.0621	0.1882	-0.014
Mof_N 	N 	0.46032	0.15545	0.21287	-0.282
Mof_N 	N 	0.23933	0.15023	0.22241	-0.279
Mof_C 	C 	0.4402	0.28	0.42688	-0.114
Mof_C 	C 	0.2696	0.3119	0.40598	-0.269
Mof_C 	C 	0.3667	0.9777	0.3414	0.294
Mof_C 	C 	0.3533	0.89836	0.39106	-0.021
Mof_N 	N 	0.70763	0.32695	0.92742	-0.288
Mof_C 	C 	0.608	0.43846	0.74022	0.149
Mof_N 	N 	0.46504	0.49768	0.63787	-0.269
Mof_C 	C 	0.5314	0.49634	0.74486	-0.197
Mof_H 	H 	0.5262	0.5164	0.7828	0.099
Mof_N 	N 	0.85545	0.38535	0.8212	-0.285
Mof_C 	C 	0.1028	0.42856	0.75131	0.166
Mof_N 	N 	0.24531	0.49	0.65064	-0.285
Mof_C 	C 	0.3356	0.38287	0.46013	-0.141
Mof_C 	C 	0.4268	0.3365	0.45605	0.067
Mof_H 	H 	0.4798	0.3443	0.4736	0.021
Mof_C 	C 	0.3291	0.75568	0.47905	-0.067
Mof_C 	C 	0.1724	0.53295	0.67518	0.129
Mof_H 	H 	0.1694	0.5848	0.6595	-0.021
Mof_C 	C 	0.0562	0.3539	0.87614	0.096
Mof_C 	C 	0.1491	0.3455	0.90326	-0.085
Mof_H 	H 	0.201	0.3659	0.8762	0.059
Mof_C 	C 	0.1482	0.3026	0.97499	-0.09
Mof_H 	H 	0.1984	0.2887	0.0065	0.06
Mof_C 	C 	0.0538	0.28258	0.99295	0.104
Mof_C 	C 	0.0214	0.2398	0.06277	-0.18
Mof_C 	C 	0.1805	0.1559	0.11044	-0.266
Mof_C 	C 	0.9286	0.22646	0.08393	0.108
Mof_C 	C 	0.8952	0.18219	0.15536	-0.091
Mof_H 	H 	0.9328	0.1575	0.196	0.065
Mof_C 	C 	0.8005	0.18267	0.15311	-0.082
Mof_H 	H 	0.7607	0.1583	0.1913	0.063
Mof_C 	C 	0.7729	0.22874	0.07948	0.098
Mof_C 	C 	0.6787	0.24679	0.05492	-0.164
Mof_C 	C 	0.5942	0.13927	0.12593	-0.207
Mof_H 	H 	0.6363	0.1082	0.102	0.097
Mof_C 	C 	0.1559	0.19809	0.23336	0.123
Mof_H 	H 	0.1467	0.2126	0.2752	-0.023
Mof_C 	C 	0.3777	0.20385	0.36744	0.256
Mof_C 	C 	0.3622	0.26663	0.40066	0.06
Mof_C 	C 	0.3795	0.8384	0.3647	-0.101
Mof_C 	C 	0.3159	0.8869	0.4621	-0.011
Mof_C 	C 	0.4665	0.2269	0.19563	0.123
Mof_H 	H 	0.4222	0.2579	0.2186	-0.03
Mof_C 	C 	0.5356	0.25716	0.1452	-0.216
Mof_H 	H 	0.5375	0.3077	0.135	0.105
Mof_C 	C 	0.6481	0.29368	0.98511	0.096
Mof_C 	C 	0.5503	0.31275	0.96184	-0.086
Mof_H 	H 	0.4962	0.2975	0.9905	0.059
Mof_C 	C 	0.5512	0.35693	0.89057	-0.086
Mof_H 	H 	0.4979	0.3781	0.8613	0.059
Mof_C 	C 	0.6505	0.36501	0.86861	0.098
Mof_C 	C 	0.6837	0.40317	0.7978	-0.158
Mof_C 	C 	0.7794	0.41162	0.77493	0.1
Mof_C 	C 	0.9354	0.40969	0.77897	0.098
Mof_C 	C 	0.0263	0.39637	0.80496	-0.166
Mof_C 	C 	0.1848	0.3822	0.72928	-0.207
Mof_H 	H 	0.1939	0.3297	0.7484	0.1
Mof_C 	C 	0.2531	0.41554	0.67816	0.114
Mof_H 	H 	0.3067	0.3842	0.6625	-0.028
Mof_C 	C 	0.3204	0.44571	0.49259	0.328
Mof_C 	C 	0.3216	0.67659	0.52748	0.308
Mof_C 	C 	0.3673	0.76614	0.408	0.01
Mof_H 	H 	0.3846	0.726	0.3893	0.04
Mof_C 	C 	0.0979	0.5047	0.72438	-0.216
Mof_H 	H 	0.0452	0.5378	0.7386	0.106
Mof_C 	C 	0.9081	0.45089	0.70402	-0.08
Mof_H 	H 	0.9487	0.4723	0.6647	0.066
Mof_C 	C 	0.8118	0.4522	0.70219	-0.088
Mof_H 	H 	0.7741	0.4751	0.6614	0.077
Mof_N 	N 	0.99792	0.31567	0.93263	-0.29
Mof_O 	O 	0.40113	0.98639	0.27582	-0.327
Mof_C 	C 	0.0836	0.2261	0.18367	-0.242
Mof_H 	H 	0.262	0.917	0.49	0.045
Mof_H 	H 	0.234	0.3017	0.3863	0.179
Mof_H 	H 	0.035	0.2612	0.1948	0.121
Mof_H 	H 	0.506	0.255	0.419	0.085
Mof_H 	H 	0.196	0.1438	0.0702	0.129
Mof_H 	H 	0.408	0.8368	0.3269	0.089
_end
