data_functionalizedCrystal
_audit_creation_method	'EQeq! by Chris Wilmer'
_symmetry_space_group_name_H-M	'P1'
_symmetry_Int_Tables_number	1
_symmetry_cell_setting	triclinic
loop_
_symmetry_equiv_pos_as_xyz
  x,y,z
_cell_length_a	11.172
_cell_length_b	7.102
_cell_length_c	6.539
_cell_angle_alpha	90
_cell_angle_beta	109.472
_cell_angle_gamma	90
loop_
_atom_site_label
_atom_site_type_symbol
_atom_site_fract_x
_atom_site_fract_y
_atom_site_fract_z
_atom_site_charge
Mof_O 	O 	0.5071	0.0983	0.3346	-0.411
Mof_O 	O 	0.6704	0.1487	0.1147	-0.328
Mof_O 	O 	0.8461	0.2936	0.1182	-0.303
Mof_C 	C 	0.7356	0.2472	0.0336	0.238
Mof_H 	H 	0.6953	0.2898	0.8929	0.058
Mof_O 	O 	0.0071	0.5983	0.3346	-0.392
Mof_O 	O 	0.1704	0.6487	0.1147	-0.43
Mof_O 	O 	0.3461	0.7936	0.1182	-0.444
Mof_C 	C 	0.2356	0.7472	0.0336	0.275
Mof_H 	H 	0.1953	0.7898	0.8929	-0.015
Mof_O 	O 	0.4929	0.0983	0.6654	-0.369
Mof_O 	O 	0.3296	0.1487	0.8853	-0.422
Mof_O 	O 	0.1539	0.2936	0.8818	-0.483
Mof_C 	C 	0.2644	0.2472	0.9664	0.85
Mof_H 	H 	0.3047	0.2898	0.1071	-0.309
Mof_O 	O 	0.9929	0.5983	0.6654	-0.136
Mof_O 	O 	0.8296	0.6487	0.8853	-0.412
Mof_O 	O 	0.6539	0.7936	0.8818	-0.494
Mof_C 	C 	0.7644	0.7472	0.9664	0.835
Mof_H 	H 	0.8047	0.7898	0.1071	-0.305
Mof_Tm	Tm	0.5	0.95252	-0	1.241
Mof_Tm	Tm	3.22542e-33	0.45252	-0	1.164
Mof_C 	C 	0.5	0.0162	0.5	0.709
Mof_H 	H 	0.5	0.8852	0.5	-0.261
Mof_C 	C 	1.46304e-33	0.5162	0.5	0.206
Mof_H 	H 	1.46304e-33	0.3852	0.5	-0.062
_end
