data_functionalizedCrystal
_audit_creation_method	'EQeq! by Chris Wilmer'
_symmetry_space_group_name_H-M	'P1'
_symmetry_Int_Tables_number	1
_symmetry_cell_setting	triclinic
loop_
_symmetry_equiv_pos_as_xyz
  x,y,z
_cell_length_a	13.0943
_cell_length_b	26.7035
_cell_length_c	13.132
_cell_angle_alpha	90
_cell_angle_beta	115.872
_cell_angle_gamma	90
loop_
_atom_site_label
_atom_site_type_symbol
_atom_site_fract_x
_atom_site_fract_y
_atom_site_fract_z
_atom_site_charge
Mof_Eu	Eu	0.17896	0.50456	0.58141	2.418
Mof_Eu	Eu	0.54888	0.50655	0.99621	1.151
Mof_C 	C 	0.0226	0.5776	0.3881	0.546
Mof_C 	C 	0.988	0.6276	0.3349	-0.261
Mof_C 	C 	0.8844	0.6483	0.3202	0.143
Mof_H 	H 	0.8348	0.6294	0.3381	-0.024
Mof_C 	C 	0.8547	0.6963	0.2795	-0.204
Mof_H 	H 	0.7853	0.7096	0.2695	0.078
Mof_C 	C 	0.0608	0.656	0.3062	0.178
Mof_H 	H 	0.1303	0.6427	0.3166	-0.039
Mof_C 	C 	0.0305	0.7037	0.2623	-0.273
Mof_C 	C 	0.9283	0.7245	0.2537	0.087
Mof_C 	C 	0.9233	0.7765	0.2153	0.076
Mof_C 	C 	0.0943	0.7401	0.2226	0.595
Mof_C 	C 	0.0979	0.7219	0.1144	-1.029
Mof_H 	H 	0.1285	0.747	0.0838	0.33
Mof_H 	H 	0.019	0.7149	0.0618	0.316
Mof_H 	H 	0.1432	0.692	0.1279	0.323
Mof_C 	C 	0.2134	0.7505	0.3143	-1.138
Mof_H 	H 	0.2475	0.7765	0.2895	0.367
Mof_H 	H 	0.2576	0.7204	0.3256	0.348
Mof_H 	H 	0.2133	0.7601	0.3838	0.362
Mof_C 	C 	0.0187	0.7864	0.1985	-0.262
Mof_C 	C 	0.0363	0.8339	0.1667	0.161
Mof_H 	H 	0.1011	0.8407	0.1568	-0.034
Mof_C 	C 	0.8432	0.8135	0.1986	-0.191
Mof_H 	H 	0.7795	0.8072	0.2106	0.068
Mof_C 	C 	0.8608	0.8603	0.1634	0.127
Mof_H 	H 	0.8061	0.885	0.1486	-0.012
Mof_C 	C 	0.957	0.8713	0.1495	-0.245
Mof_C 	C 	0.9757	0.9231	0.1165	0.54
Mof_C 	C 	0.378	0.5814	0.7944	0.616
Mof_C 	C 	0.3977	0.6334	0.7623	-0.297
Mof_C 	C 	0.4795	0.6636	0.8419	0.213
Mof_H 	H 	0.5227	0.6517	0.9147	-0.038
Mof_C 	C 	0.3336	0.6505	0.653	0.162
Mof_H 	H 	0.2796	0.6298	0.5995	-0.042
Mof_C 	C 	0.3503	0.6986	0.6237	-0.217
Mof_H 	H 	0.3077	0.7105	0.5506	0.069
Mof_C 	C 	0.4313	0.729	0.7048	0.088
Mof_C 	C 	0.4968	0.7112	0.8133	-0.298
Mof_C 	C 	0.583	0.7504	0.8861	0.658
Mof_C 	C 	0.7027	0.7321	0.9266	-1.283
Mof_H 	H 	0.7142	0.7209	0.8638	0.418
Mof_H 	H 	0.7174	0.7052	0.9787	0.421
Mof_H 	H 	0.755	0.7591	0.9637	0.4
Mof_C 	C 	0.5598	0.7662	0.9862	-1.071
Mof_H 	H 	0.6068	0.7946	0.0231	0.338
Mof_H 	H 	0.5798	0.739	0.0383	0.347
Mof_H 	H 	0.4795	0.7745	0.9602	0.326
Mof_C 	C 	0.4668	0.7809	0.6968	0.095
Mof_C 	C 	0.5544	0.7936	0.801	-0.292
Mof_C 	C 	0.6044	0.8408	0.8168	0.196
Mof_H 	H 	0.6634	0.8497	0.8859	-0.046
Mof_C 	C 	0.425	0.8142	0.6098	-0.222
Mof_H 	H 	0.3639	0.8057	0.5419	0.075
Mof_C 	C 	0.4754	0.8615	0.6244	0.164
Mof_H 	H 	0.4492	0.8844	0.5651	-0.043
Mof_C 	C 	0.564	0.8741	0.7267	-0.293
Mof_C 	C 	0.6181	0.9254	0.7395	0.612
Mof_N 	N 	0.684	0.5624	0.896	0.083
Mof_O 	O 	0.9472	0.54769	0.3871	-0.649
Mof_O 	O 	0.126	0.5683	0.4379	-0.582
Mof_O 	O 	0.8897	0.95153	0.0747	-0.608
Mof_O 	O 	0.074	0.93482	0.1311	-0.588
Mof_O 	O 	0.3123	0.55324	0.7174	-0.667
Mof_O 	O 	0.4312	0.56854	0.8952	-0.612
Mof_O 	O 	0.576	0.9534	0.6546	-0.638
Mof_O 	O 	0.6951	0.93683	0.8305	-0.625
Mof_O 	O 	0.6878	0.5741	0.9892	-0.245
Mof_O 	O 	0.6142	0.5306	0.8509	-0.27
Mof_O 	O 	0.7315	0.588	0.857	-0.158
Mof_Eu	Eu	0.82104	0.00456	0.91859	2.408
Mof_Eu	Eu	0.45112	0.00655	0.50379	1.152
Mof_C 	C 	0.9774	0.0776	0.1119	0.545
Mof_C 	C 	0.012	0.1276	0.1651	-0.26
Mof_C 	C 	0.1156	0.1483	0.1798	0.143
Mof_H 	H 	0.1652	0.1294	0.1619	-0.024
Mof_C 	C 	0.1453	0.1963	0.2205	-0.203
Mof_H 	H 	0.2147	0.2096	0.2305	0.077
Mof_C 	C 	0.9392	0.156	0.1938	0.178
Mof_H 	H 	0.8697	0.1427	0.1834	-0.038
Mof_C 	C 	0.9695	0.2037	0.2377	-0.272
Mof_C 	C 	0.0717	0.2245	0.2463	0.086
Mof_C 	C 	0.0767	0.2765	0.2847	0.076
Mof_C 	C 	0.9057	0.2401	0.2774	0.597
Mof_C 	C 	0.9021	0.2219	0.3856	-1.032
Mof_H 	H 	0.8715	0.247	0.4162	0.331
Mof_H 	H 	0.981	0.2149	0.4382	0.317
Mof_H 	H 	0.8568	0.192	0.3721	0.324
Mof_C 	C 	0.7866	0.2505	0.1857	-1.143
Mof_H 	H 	0.7525	0.2765	0.2105	0.369
Mof_H 	H 	0.7424	0.2204	0.1744	0.35
Mof_H 	H 	0.7867	0.2601	0.1162	0.365
Mof_C 	C 	0.9813	0.2864	0.3015	-0.261
Mof_C 	C 	0.9637	0.3339	0.3333	0.165
Mof_H 	H 	0.8989	0.3407	0.3432	-0.035
Mof_C 	C 	0.1568	0.3135	0.3014	-0.191
Mof_H 	H 	0.2205	0.3072	0.2894	0.069
Mof_C 	C 	0.1392	0.3603	0.3366	0.128
Mof_H 	H 	0.1939	0.385	0.3514	-0.012
Mof_C 	C 	0.043	0.3713	0.3505	-0.247
Mof_C 	C 	0.0243	0.4231	0.3835	0.538
Mof_C 	C 	0.622	0.0814	0.7056	0.616
Mof_C 	C 	0.6023	0.1334	0.7377	-0.299
Mof_C 	C 	0.5205	0.1636	0.6581	0.216
Mof_H 	H 	0.4773	0.1517	0.5853	-0.04
Mof_C 	C 	0.6664	0.1505	0.847	0.163
Mof_H 	H 	0.7204	0.1298	0.9005	-0.043
Mof_C 	C 	0.6497	0.1986	0.8763	-0.218
Mof_H 	H 	0.6923	0.2105	0.9494	0.068
Mof_C 	C 	0.5687	0.229	0.7952	0.09
Mof_C 	C 	0.5032	0.2112	0.6867	-0.302
Mof_C 	C 	0.417	0.2504	0.6139	0.668
Mof_C 	C 	0.2973	0.2321	0.5734	-1.293
Mof_H 	H 	0.2858	0.2209	0.6362	0.421
Mof_H 	H 	0.2826	0.2052	0.5213	0.423
Mof_H 	H 	0.245	0.2591	0.5363	0.402
Mof_C 	C 	0.4402	0.2662	0.5138	-1.098
Mof_H 	H 	0.3932	0.2946	0.4769	0.348
Mof_H 	H 	0.4202	0.239	0.4617	0.357
Mof_H 	H 	0.5205	0.2745	0.5398	0.333
Mof_C 	C 	0.5332	0.2809	0.8032	0.096
Mof_C 	C 	0.4456	0.2936	0.699	-0.296
Mof_C 	C 	0.3956	0.3408	0.6832	0.198
Mof_H 	H 	0.3366	0.3497	0.6141	-0.048
Mof_C 	C 	0.575	0.3142	0.8902	-0.223
Mof_H 	H 	0.6361	0.3057	0.9581	0.074
Mof_C 	C 	0.5246	0.3615	0.8756	0.165
Mof_H 	H 	0.5508	0.3844	0.9349	-0.043
Mof_C 	C 	0.436	0.3741	0.7733	-0.295
Mof_C 	C 	0.3819	0.4254	0.7605	0.613
Mof_N 	N 	0.316	0.0624	0.604	0.083
Mof_O 	O 	0.0528	0.04769	0.1129	-0.645
Mof_O 	O 	0.874	0.0683	0.0621	-0.578
Mof_O 	O 	0.1103	0.45153	0.4253	-0.609
Mof_O 	O 	0.926	0.43482	0.3689	-0.586
Mof_O 	O 	0.6877	0.05324	0.7826	-0.666
Mof_O 	O 	0.5688	0.06854	0.6048	-0.613
Mof_O 	O 	0.424	0.4534	0.8454	-0.639
Mof_O 	O 	0.3049	0.43683	0.6695	-0.628
Mof_O 	O 	0.3122	0.0741	0.5108	-0.245
Mof_O 	O 	0.3858	0.0306	0.6491	-0.269
Mof_O 	O 	0.2685	0.088	0.643	-0.157
Mof_Eu	Eu	0.82104	0.49544	0.41859	2.418
Mof_Eu	Eu	0.45112	0.49345	0.00379	1.151
Mof_C 	C 	0.9774	0.4224	0.6119	0.546
Mof_C 	C 	0.012	0.3724	0.6651	-0.261
Mof_C 	C 	0.1156	0.3517	0.6798	0.143
Mof_H 	H 	0.1652	0.3706	0.6619	-0.024
Mof_C 	C 	0.1453	0.3037	0.7205	-0.204
Mof_H 	H 	0.2147	0.2904	0.7305	0.078
Mof_C 	C 	0.9392	0.344	0.6938	0.178
Mof_H 	H 	0.8697	0.3573	0.6834	-0.039
Mof_C 	C 	0.9695	0.2963	0.7377	-0.273
Mof_C 	C 	0.0717	0.2755	0.7463	0.087
Mof_C 	C 	0.0767	0.2235	0.7847	0.076
Mof_C 	C 	0.9057	0.2599	0.7774	0.595
Mof_C 	C 	0.9021	0.2781	0.8856	-1.029
Mof_H 	H 	0.8715	0.253	0.9162	0.33
Mof_H 	H 	0.981	0.2851	0.9382	0.316
Mof_H 	H 	0.8568	0.308	0.8721	0.323
Mof_C 	C 	0.7866	0.2495	0.6857	-1.138
Mof_H 	H 	0.7525	0.2235	0.7105	0.367
Mof_H 	H 	0.7424	0.2796	0.6744	0.348
Mof_H 	H 	0.7867	0.2399	0.6162	0.362
Mof_C 	C 	0.9813	0.2136	0.8015	-0.262
Mof_C 	C 	0.9637	0.1661	0.8333	0.161
Mof_H 	H 	0.8989	0.1593	0.8432	-0.034
Mof_C 	C 	0.1568	0.1865	0.8014	-0.191
Mof_H 	H 	0.2205	0.1928	0.7894	0.068
Mof_C 	C 	0.1392	0.1397	0.8366	0.127
Mof_H 	H 	0.1939	0.115	0.8514	-0.012
Mof_C 	C 	0.043	0.1287	0.8505	-0.245
Mof_C 	C 	0.0243	0.0769	0.8835	0.54
Mof_C 	C 	0.622	0.4186	0.2056	0.616
Mof_C 	C 	0.6023	0.3666	0.2377	-0.297
Mof_C 	C 	0.5205	0.3364	0.1581	0.213
Mof_H 	H 	0.4773	0.3483	0.0853	-0.038
Mof_C 	C 	0.6664	0.3495	0.347	0.162
Mof_H 	H 	0.7204	0.3702	0.4005	-0.042
Mof_C 	C 	0.6497	0.3014	0.3763	-0.217
Mof_H 	H 	0.6923	0.2895	0.4494	0.069
Mof_C 	C 	0.5687	0.271	0.2952	0.088
Mof_C 	C 	0.5032	0.2888	0.1867	-0.298
Mof_C 	C 	0.417	0.2496	0.1139	0.658
Mof_C 	C 	0.2973	0.2679	0.0734	-1.283
Mof_H 	H 	0.2858	0.2791	0.1362	0.418
Mof_H 	H 	0.2826	0.2948	0.0213	0.421
Mof_H 	H 	0.245	0.2409	0.0363	0.4
Mof_C 	C 	0.4402	0.2338	0.0138	-1.071
Mof_H 	H 	0.3932	0.2054	0.9769	0.338
Mof_H 	H 	0.4202	0.261	0.9617	0.347
Mof_H 	H 	0.5205	0.2255	0.0398	0.326
Mof_C 	C 	0.5332	0.2191	0.3032	0.095
Mof_C 	C 	0.4456	0.2064	0.199	-0.292
Mof_C 	C 	0.3956	0.1592	0.1832	0.196
Mof_H 	H 	0.3366	0.1503	0.1141	-0.046
Mof_C 	C 	0.575	0.1858	0.3902	-0.222
Mof_H 	H 	0.6361	0.1943	0.4581	0.075
Mof_C 	C 	0.5246	0.1385	0.3756	0.164
Mof_H 	H 	0.5508	0.1156	0.4349	-0.043
Mof_C 	C 	0.436	0.1259	0.2733	-0.293
Mof_C 	C 	0.3819	0.0746	0.2605	0.612
Mof_N 	N 	0.316	0.4376	0.104	0.083
Mof_O 	O 	0.0528	0.45231	0.6129	-0.649
Mof_O 	O 	0.874	0.4317	0.5621	-0.582
Mof_O 	O 	0.1103	0.04847	0.9253	-0.608
Mof_O 	O 	0.926	0.06518	0.8689	-0.588
Mof_O 	O 	0.6877	0.44676	0.2826	-0.667
Mof_O 	O 	0.5688	0.43146	0.1048	-0.612
Mof_O 	O 	0.424	0.0466	0.3454	-0.638
Mof_O 	O 	0.3049	0.06317	0.1695	-0.625
Mof_O 	O 	0.3122	0.4259	0.0108	-0.245
Mof_O 	O 	0.3858	0.4694	0.1491	-0.27
Mof_O 	O 	0.2685	0.412	0.143	-0.158
Mof_Eu	Eu	0.17896	0.99544	0.08141	2.408
Mof_Eu	Eu	0.54888	0.99345	0.49621	1.152
Mof_C 	C 	0.0226	0.9224	0.8881	0.545
Mof_C 	C 	0.988	0.8724	0.8349	-0.26
Mof_C 	C 	0.8844	0.8517	0.8202	0.143
Mof_H 	H 	0.8348	0.8706	0.8381	-0.024
Mof_C 	C 	0.8547	0.8037	0.7795	-0.203
Mof_H 	H 	0.7853	0.7904	0.7695	0.077
Mof_C 	C 	0.0608	0.844	0.8062	0.178
Mof_H 	H 	0.1303	0.8573	0.8166	-0.038
Mof_C 	C 	0.0305	0.7963	0.7623	-0.272
Mof_C 	C 	0.9283	0.7755	0.7537	0.086
Mof_C 	C 	0.9233	0.7235	0.7153	0.076
Mof_C 	C 	0.0943	0.7599	0.7226	0.597
Mof_C 	C 	0.0979	0.7781	0.6144	-1.032
Mof_H 	H 	0.1285	0.753	0.5838	0.331
Mof_H 	H 	0.019	0.7851	0.5618	0.317
Mof_H 	H 	0.1432	0.808	0.6279	0.324
Mof_C 	C 	0.2134	0.7495	0.8143	-1.143
Mof_H 	H 	0.2475	0.7235	0.7895	0.369
Mof_H 	H 	0.2576	0.7796	0.8256	0.35
Mof_H 	H 	0.2133	0.7399	0.8838	0.365
Mof_C 	C 	0.0187	0.7136	0.6985	-0.261
Mof_C 	C 	0.0363	0.6661	0.6667	0.165
Mof_H 	H 	0.1011	0.6593	0.6568	-0.035
Mof_C 	C 	0.8432	0.6865	0.6986	-0.191
Mof_H 	H 	0.7795	0.6928	0.7106	0.069
Mof_C 	C 	0.8608	0.6397	0.6634	0.128
Mof_H 	H 	0.8061	0.615	0.6486	-0.012
Mof_C 	C 	0.957	0.6287	0.6495	-0.247
Mof_C 	C 	0.9757	0.5769	0.6165	0.538
Mof_C 	C 	0.378	0.9186	0.2944	0.616
Mof_C 	C 	0.3977	0.8666	0.2623	-0.299
Mof_C 	C 	0.4795	0.8364	0.3419	0.216
Mof_H 	H 	0.5227	0.8483	0.4147	-0.04
Mof_C 	C 	0.3336	0.8495	0.153	0.163
Mof_H 	H 	0.2796	0.8702	0.0995	-0.043
Mof_C 	C 	0.3503	0.8014	0.1237	-0.218
Mof_H 	H 	0.3077	0.7895	0.0506	0.068
Mof_C 	C 	0.4313	0.771	0.2048	0.09
Mof_C 	C 	0.4968	0.7888	0.3133	-0.302
Mof_C 	C 	0.583	0.7496	0.3861	0.668
Mof_C 	C 	0.7027	0.7679	0.4266	-1.293
Mof_H 	H 	0.7142	0.7791	0.3638	0.421
Mof_H 	H 	0.7174	0.7948	0.4787	0.423
Mof_H 	H 	0.755	0.7409	0.4637	0.402
Mof_C 	C 	0.5598	0.7338	0.4862	-1.098
Mof_H 	H 	0.6068	0.7054	0.5231	0.348
Mof_H 	H 	0.5798	0.761	0.5383	0.357
Mof_H 	H 	0.4795	0.7255	0.4602	0.333
Mof_C 	C 	0.4668	0.7191	0.1968	0.096
Mof_C 	C 	0.5544	0.7064	0.301	-0.296
Mof_C 	C 	0.6044	0.6592	0.3168	0.198
Mof_H 	H 	0.6634	0.6503	0.3859	-0.048
Mof_C 	C 	0.425	0.6858	0.1098	-0.223
Mof_H 	H 	0.3639	0.6943	0.0419	0.074
Mof_C 	C 	0.4754	0.6385	0.1244	0.165
Mof_H 	H 	0.4492	0.6156	0.0651	-0.043
Mof_C 	C 	0.564	0.6259	0.2267	-0.295
Mof_C 	C 	0.6181	0.5746	0.2395	0.613
Mof_N 	N 	0.684	0.9376	0.396	0.083
Mof_O 	O 	0.9472	0.95231	0.8871	-0.645
Mof_O 	O 	0.126	0.9317	0.9379	-0.578
Mof_O 	O 	0.8897	0.54847	0.5747	-0.609
Mof_O 	O 	0.074	0.56518	0.6311	-0.586
Mof_O 	O 	0.3123	0.94676	0.2174	-0.666
Mof_O 	O 	0.4312	0.93146	0.3952	-0.613
Mof_O 	O 	0.576	0.5466	0.1546	-0.639
Mof_O 	O 	0.6951	0.56317	0.3305	-0.628
Mof_O 	O 	0.6878	0.9259	0.4892	-0.245
Mof_O 	O 	0.6142	0.9694	0.3509	-0.269
Mof_O 	O 	0.7315	0.912	0.357	-0.157
_end
