data_functionalizedCrystal
_audit_creation_method	'EQeq! by Chris Wilmer'
_symmetry_space_group_name_H-M	'P1'
_symmetry_Int_Tables_number	1
_symmetry_cell_setting	triclinic
loop_
_symmetry_equiv_pos_as_xyz
  x,y,z
_cell_length_a	30.4546
_cell_length_b	30.4546
_cell_length_c	30.4546
_cell_angle_alpha	80.2989
_cell_angle_beta	80.2989
_cell_angle_gamma	80.2989
loop_
_atom_site_label
_atom_site_type_symbol
_atom_site_fract_x
_atom_site_fract_y
_atom_site_fract_z
_atom_site_charge
Mof_Cd	Cd	0.81562	0.8122	0.29496	0.409
Mof_Cd	Cd	0.78573	0.81331	0.41971	0.515
Mof_Cd	Cd	0.74152	0.85512	0.52993	0.42
Mof_Cd	Cd	0.29496	0.81562	0.8122	0.409
Mof_Cd	Cd	0.41971	0.78573	0.81331	0.515
Mof_Cd	Cd	0.52993	0.74152	0.85512	0.42
Mof_Cd	Cd	0.8122	0.29496	0.81562	0.409
Mof_Cd	Cd	0.81331	0.41971	0.78573	0.515
Mof_Cd	Cd	0.85512	0.52993	0.74152	0.42
Mof_Cd	Cd	0.6878	0.68438	0.20504	0.409
Mof_Cd	Cd	0.68669	0.71427	0.08029	0.515
Mof_Cd	Cd	0.64488	0.75848	0.97007	0.421
Mof_Cd	Cd	0.68438	0.20504	0.6878	0.409
Mof_Cd	Cd	0.71427	0.08029	0.68669	0.515
Mof_Cd	Cd	0.75848	0.97007	0.64488	0.421
Mof_Cd	Cd	0.20504	0.6878	0.68438	0.409
Mof_Cd	Cd	0.08029	0.68669	0.71427	0.515
Mof_Cd	Cd	0.97007	0.64488	0.75848	0.421
Mof_Cd	Cd	0.18438	0.1878	0.70504	0.409
Mof_Cd	Cd	0.21427	0.18669	0.58029	0.515
Mof_Cd	Cd	0.25848	0.14488	0.47007	0.42
Mof_Cd	Cd	0.70504	0.18438	0.1878	0.409
Mof_Cd	Cd	0.58029	0.21427	0.18669	0.515
Mof_Cd	Cd	0.47007	0.25848	0.14488	0.42
Mof_Cd	Cd	0.1878	0.70504	0.18438	0.409
Mof_Cd	Cd	0.18669	0.58029	0.21427	0.515
Mof_Cd	Cd	0.14488	0.47007	0.25848	0.42
Mof_Cd	Cd	0.3122	0.31562	0.79496	0.409
Mof_Cd	Cd	0.31331	0.28573	0.91971	0.515
Mof_Cd	Cd	0.35512	0.24152	0.02993	0.421
Mof_Cd	Cd	0.31562	0.79496	0.3122	0.409
Mof_Cd	Cd	0.28573	0.91971	0.31331	0.515
Mof_Cd	Cd	0.24152	0.02993	0.35512	0.421
Mof_Cd	Cd	0.79496	0.3122	0.31562	0.409
Mof_Cd	Cd	0.91971	0.31331	0.28573	0.515
Mof_Cd	Cd	0.02993	0.35512	0.24152	0.421
Mof_H 	H 	0.8726	0.9067	0.416	0.104
Mof_H 	H 	0.9277	0.0159	0.3513	0.1
Mof_H 	H 	0.9121	0.0023	0.2833	0.004
Mof_H 	H 	0.8759	0.9405	0.2808	0.069
Mof_H 	H 	0.8693	0.9444	0.4773	-0.003
Mof_H 	H 	0.9162	0.9127	0.466	-0.01
Mof_H 	H 	0.8771	0.0248	0.6285	-0.004
Mof_H 	H 	0.8488	0.0432	0.5874	-0.005
Mof_H 	H 	0.8196	0.0973	0.6312	0.111
Mof_H 	H 	0.8356	0.2255	0.6373	0.077
Mof_H 	H 	0.9113	0.2106	0.6053	0.012
Mof_H 	H 	0.9393	0.1416	0.5827	0.098
Mof_H 	H 	0.0383	0.9641	0.5727	0.007
Mof_H 	H 	0.0477	0.9412	0.5277	0
Mof_H 	H 	0.0525	0.8207	0.6266	0.109
Mof_H 	H 	0.1876	0.8147	0.6106	0.073
Mof_H 	H 	0.1819	0.8872	0.5696	0.006
Mof_H 	H 	0.1111	0.9273	0.5577	0.098
Mof_H 	H 	0.8414	0.0443	0.5229	0.212
Mof_H 	H 	0.8453	0.0095	0.4881	0.216
Mof_H 	H 	0.8233	0.997	0.5394	0.217
Mof_H 	H 	0.9813	0.0222	0.6115	0.21
Mof_H 	H 	0.9408	0.0002	0.6431	0.219
Mof_H 	H 	0.9883	0.9698	0.6314	0.219
Mof_H 	H 	0.0084	0.9336	0.4561	0.221
Mof_H 	H 	0.0212	0.8986	0.499	0.227
Mof_H 	H 	0.98	0.8932	0.4751	0.22
Mof_H 	H 	0.7447	0.9232	0.3681	0.108
Mof_H 	H 	0.7802	0.0474	0.3269	0.105
Mof_H 	H 	0.7928	0.051	0.398	0.003
Mof_H 	H 	0.7806	0.9916	0.457	0.072
Mof_H 	H 	0.7601	0.9227	0.2839	0.004
Mof_H 	H 	0.7112	0.9397	0.3095	-0.007
Mof_H 	H 	0.785	0.9464	0.1174	-0.01
Mof_H 	H 	0.7448	0.9746	0.0916	-0.014
Mof_H 	H 	0.7199	0.8409	0.0864	0.107
Mof_H 	H 	0.742	0.8715	0.9503	0.075
Mof_H 	H 	0.768	0.9375	0.9582	0.011
Mof_H 	H 	0.7683	0.957	0.0281	0.088
Mof_H 	H 	0.6209	0.0591	0.1682	-0.006
Mof_H 	H 	0.6165	0.0592	0.2214	-0.002
Mof_H 	H 	0.5561	0.1064	0.195	0.116
Mof_H 	H 	0.427	0.107	0.1768	0.086
Mof_H 	H 	0.4403	0.0282	0.1877	0.009
Mof_H 	H 	0.5094	0.9897	0.2006	0.114
Mof_H 	H 	0.8111	0.9353	0.1786	0.216
Mof_H 	H 	0.7987	0.9195	0.2314	0.228
Mof_H 	H 	0.7874	0.8912	0.196	0.224
Mof_H 	H 	0.6569	0.9728	0.1084	0.218
Mof_H 	H 	0.632	0.0193	0.124	0.219
Mof_H 	H 	0.681	0.0169	0.0948	0.213
Mof_H 	H 	0.654	0.9813	0.3089	0.225
Mof_H 	H 	0.6587	0.0327	0.2891	0.227
Mof_H 	H 	0.6173	0.011	0.2802	0.227
Mof_H 	H 	0.416	0.8726	0.9067	0.105
Mof_H 	H 	0.3513	0.9277	0.0159	0.101
Mof_H 	H 	0.2833	0.9121	0.0023	0.005
Mof_H 	H 	0.2808	0.8759	0.9405	0.07
Mof_H 	H 	0.4773	0.8693	0.9444	-0.002
Mof_H 	H 	0.466	0.9162	0.9127	-0.009
Mof_H 	H 	0.6285	0.8771	0.0248	-0.003
Mof_H 	H 	0.5874	0.8488	0.0432	-0.004
Mof_H 	H 	0.6312	0.8196	0.0973	0.112
Mof_H 	H 	0.6373	0.8356	0.2255	0.078
Mof_H 	H 	0.6053	0.9113	0.2106	0.013
Mof_H 	H 	0.5827	0.9393	0.1416	0.099
Mof_H 	H 	0.5727	0.0383	0.9641	0.008
Mof_H 	H 	0.5277	0.0477	0.9412	0.001
Mof_H 	H 	0.6266	0.0525	0.8207	0.11
Mof_H 	H 	0.6106	0.1876	0.8147	0.074
Mof_H 	H 	0.5696	0.1819	0.8872	0.007
Mof_H 	H 	0.5577	0.1111	0.9273	0.099
Mof_H 	H 	0.5229	0.8414	0.0443	0.213
Mof_H 	H 	0.4881	0.8453	0.0095	0.217
Mof_H 	H 	0.5394	0.8233	0.997	0.218
Mof_H 	H 	0.6115	0.9813	0.0222	0.211
Mof_H 	H 	0.6431	0.9408	0.0002	0.22
Mof_H 	H 	0.6314	0.9883	0.9698	0.22
Mof_H 	H 	0.4561	0.0084	0.9336	0.221
Mof_H 	H 	0.499	0.0212	0.8986	0.227
Mof_H 	H 	0.4751	0.98	0.8932	0.22
Mof_H 	H 	0.3681	0.7447	0.9232	0.108
Mof_H 	H 	0.3269	0.7802	0.0474	0.105
Mof_H 	H 	0.398	0.7928	0.051	0.003
Mof_H 	H 	0.457	0.7806	0.9916	0.072
Mof_H 	H 	0.2839	0.7601	0.9227	0.004
Mof_H 	H 	0.3095	0.7112	0.9397	-0.007
Mof_H 	H 	0.1174	0.785	0.9464	-0.01
Mof_H 	H 	0.0916	0.7448	0.9746	-0.014
Mof_H 	H 	0.0864	0.7199	0.8409	0.107
Mof_H 	H 	0.9503	0.742	0.8715	0.075
Mof_H 	H 	0.9582	0.768	0.9375	0.011
Mof_H 	H 	0.0281	0.7683	0.957	0.088
Mof_H 	H 	0.1682	0.6209	0.0591	-0.006
Mof_H 	H 	0.2214	0.6165	0.0592	-0.002
Mof_H 	H 	0.195	0.5561	0.1064	0.116
Mof_H 	H 	0.1768	0.427	0.107	0.086
Mof_H 	H 	0.1877	0.4403	0.0282	0.009
Mof_H 	H 	0.2006	0.5094	0.9897	0.114
Mof_H 	H 	0.1786	0.8111	0.9353	0.216
Mof_H 	H 	0.2314	0.7987	0.9195	0.228
Mof_H 	H 	0.196	0.7874	0.8912	0.224
Mof_H 	H 	0.1084	0.6569	0.9728	0.218
Mof_H 	H 	0.124	0.632	0.0193	0.219
Mof_H 	H 	0.0948	0.681	0.0169	0.213
Mof_H 	H 	0.3089	0.654	0.9813	0.225
Mof_H 	H 	0.2891	0.6587	0.0327	0.227
Mof_H 	H 	0.2802	0.6173	0.011	0.227
Mof_H 	H 	0.9067	0.416	0.8726	0.105
Mof_H 	H 	0.0159	0.3513	0.9277	0.101
Mof_H 	H 	0.0023	0.2833	0.9121	0.005
Mof_H 	H 	0.9405	0.2808	0.8759	0.07
Mof_H 	H 	0.9444	0.4773	0.8693	-0.002
Mof_H 	H 	0.9127	0.466	0.9162	-0.009
Mof_H 	H 	0.0248	0.6285	0.8771	-0.003
Mof_H 	H 	0.0432	0.5874	0.8488	-0.004
Mof_H 	H 	0.0973	0.6312	0.8196	0.112
Mof_H 	H 	0.2255	0.6373	0.8356	0.078
Mof_H 	H 	0.2106	0.6053	0.9113	0.013
Mof_H 	H 	0.1416	0.5827	0.9393	0.099
Mof_H 	H 	0.9641	0.5727	0.0383	0.008
Mof_H 	H 	0.9412	0.5277	0.0477	0.001
Mof_H 	H 	0.8207	0.6266	0.0525	0.11
Mof_H 	H 	0.8147	0.6106	0.1876	0.074
Mof_H 	H 	0.8872	0.5696	0.1819	0.007
Mof_H 	H 	0.9273	0.5577	0.1111	0.099
Mof_H 	H 	0.0443	0.5229	0.8414	0.213
Mof_H 	H 	0.0095	0.4881	0.8453	0.217
Mof_H 	H 	0.997	0.5394	0.8233	0.218
Mof_H 	H 	0.0222	0.6115	0.9813	0.211
Mof_H 	H 	0.0002	0.6431	0.9408	0.22
Mof_H 	H 	0.9698	0.6314	0.9883	0.22
Mof_H 	H 	0.9336	0.4561	0.0084	0.221
Mof_H 	H 	0.8986	0.499	0.0212	0.227
Mof_H 	H 	0.8932	0.4751	0.98	0.22
Mof_H 	H 	0.9232	0.3681	0.7447	0.108
Mof_H 	H 	0.0474	0.3269	0.7802	0.105
Mof_H 	H 	0.051	0.398	0.7928	0.003
Mof_H 	H 	0.9916	0.457	0.7806	0.072
Mof_H 	H 	0.9227	0.2839	0.7601	0.004
Mof_H 	H 	0.9397	0.3095	0.7112	-0.007
Mof_H 	H 	0.9464	0.1174	0.785	-0.01
Mof_H 	H 	0.9746	0.0916	0.7448	-0.014
Mof_H 	H 	0.8409	0.0864	0.7199	0.107
Mof_H 	H 	0.8715	0.9503	0.742	0.075
Mof_H 	H 	0.9375	0.9582	0.768	0.011
Mof_H 	H 	0.957	0.0281	0.7683	0.088
Mof_H 	H 	0.0591	0.1682	0.6209	-0.006
Mof_H 	H 	0.0592	0.2214	0.6165	-0.002
Mof_H 	H 	0.1064	0.195	0.5561	0.116
Mof_H 	H 	0.107	0.1768	0.427	0.086
Mof_H 	H 	0.0282	0.1877	0.4403	0.009
Mof_H 	H 	0.9897	0.2006	0.5094	0.114
Mof_H 	H 	0.9353	0.1786	0.8111	0.216
Mof_H 	H 	0.9195	0.2314	0.7987	0.228
Mof_H 	H 	0.8912	0.196	0.7874	0.224
Mof_H 	H 	0.9728	0.1084	0.6569	0.218
Mof_H 	H 	0.0193	0.124	0.632	0.219
Mof_H 	H 	0.0169	0.0948	0.681	0.213
Mof_H 	H 	0.9813	0.3089	0.654	0.225
Mof_H 	H 	0.0327	0.2891	0.6587	0.227
Mof_H 	H 	0.011	0.2802	0.6173	0.227
Mof_H 	H 	0.5933	0.6274	0.084	0.105
Mof_H 	H 	0.4841	0.5723	0.1487	0.101
Mof_H 	H 	0.4977	0.5879	0.2167	0.005
Mof_H 	H 	0.5595	0.6241	0.2192	0.07
Mof_H 	H 	0.5556	0.6307	0.0227	-0.002
Mof_H 	H 	0.5873	0.5838	0.034	-0.009
Mof_H 	H 	0.4752	0.6229	0.8715	-0.003
Mof_H 	H 	0.4568	0.6512	0.9126	-0.004
Mof_H 	H 	0.4027	0.6804	0.8688	0.112
Mof_H 	H 	0.2745	0.6644	0.8627	0.078
Mof_H 	H 	0.2894	0.5887	0.8947	0.013
Mof_H 	H 	0.3584	0.5607	0.9173	0.099
Mof_H 	H 	0.5359	0.4617	0.9273	0.008
Mof_H 	H 	0.5588	0.4523	0.9723	0.001
Mof_H 	H 	0.6793	0.4475	0.8734	0.11
Mof_H 	H 	0.6853	0.3124	0.8894	0.074
Mof_H 	H 	0.6128	0.3181	0.9304	0.007
Mof_H 	H 	0.5727	0.3889	0.9423	0.099
Mof_H 	H 	0.4557	0.6586	0.9771	0.213
Mof_H 	H 	0.4905	0.6547	0.0119	0.217
Mof_H 	H 	0.503	0.6767	0.9606	0.217
Mof_H 	H 	0.4778	0.5187	0.8885	0.212
Mof_H 	H 	0.4998	0.5592	0.8569	0.221
Mof_H 	H 	0.5302	0.5117	0.8686	0.22
Mof_H 	H 	0.5664	0.4916	0.0439	0.222
Mof_H 	H 	0.6014	0.4788	0.001	0.228
Mof_H 	H 	0.6068	0.52	0.0249	0.221
Mof_H 	H 	0.5768	0.7553	0.1319	0.108
Mof_H 	H 	0.4526	0.7198	0.1731	0.105
Mof_H 	H 	0.449	0.7072	0.102	0.002
Mof_H 	H 	0.5084	0.7194	0.043	0.072
Mof_H 	H 	0.5773	0.7399	0.2161	0.004
Mof_H 	H 	0.5603	0.7888	0.1905	-0.007
Mof_H 	H 	0.5536	0.715	0.3826	-0.01
Mof_H 	H 	0.5254	0.7552	0.4084	-0.014
Mof_H 	H 	0.6591	0.7801	0.4136	0.107
Mof_H 	H 	0.6285	0.758	0.5497	0.075
Mof_H 	H 	0.5625	0.732	0.5418	0.011
Mof_H 	H 	0.543	0.7317	0.4719	0.088
Mof_H 	H 	0.4409	0.8791	0.3318	-0.007
Mof_H 	H 	0.4408	0.8835	0.2786	-0.002
Mof_H 	H 	0.3936	0.9439	0.305	0.116
Mof_H 	H 	0.393	0.073	0.3232	0.086
Mof_H 	H 	0.4718	0.0597	0.3123	0.008
Mof_H 	H 	0.5103	0.9906	0.2994	0.114
Mof_H 	H 	0.5647	0.6889	0.3214	0.216
Mof_H 	H 	0.5805	0.7013	0.2686	0.229
Mof_H 	H 	0.6088	0.7126	0.304	0.224
Mof_H 	H 	0.5272	0.8431	0.3916	0.218
Mof_H 	H 	0.4807	0.868	0.376	0.219
Mof_H 	H 	0.4831	0.819	0.4052	0.213
Mof_H 	H 	0.5187	0.846	0.1911	0.225
Mof_H 	H 	0.4673	0.8413	0.2109	0.228
Mof_H 	H 	0.489	0.8827	0.2198	0.227
Mof_H 	H 	0.6274	0.084	0.5933	0.105
Mof_H 	H 	0.5723	0.1487	0.4841	0.101
Mof_H 	H 	0.5879	0.2167	0.4977	0.005
Mof_H 	H 	0.6241	0.2192	0.5595	0.07
Mof_H 	H 	0.6307	0.0227	0.5556	-0.002
Mof_H 	H 	0.5838	0.034	0.5873	-0.009
Mof_H 	H 	0.6229	0.8715	0.4752	-0.003
Mof_H 	H 	0.6512	0.9126	0.4568	-0.004
Mof_H 	H 	0.6804	0.8688	0.4027	0.112
Mof_H 	H 	0.6644	0.8627	0.2745	0.078
Mof_H 	H 	0.5887	0.8947	0.2894	0.013
Mof_H 	H 	0.5607	0.9173	0.3584	0.099
Mof_H 	H 	0.4617	0.9273	0.5359	0.008
Mof_H 	H 	0.4523	0.9723	0.5588	0.001
Mof_H 	H 	0.4475	0.8734	0.6793	0.11
Mof_H 	H 	0.3124	0.8894	0.6853	0.074
Mof_H 	H 	0.3181	0.9304	0.6128	0.007
Mof_H 	H 	0.3889	0.9423	0.5727	0.099
Mof_H 	H 	0.6586	0.9771	0.4557	0.213
Mof_H 	H 	0.6547	0.0119	0.4905	0.217
Mof_H 	H 	0.6767	0.9606	0.503	0.217
Mof_H 	H 	0.5187	0.8885	0.4778	0.212
Mof_H 	H 	0.5592	0.8569	0.4998	0.221
Mof_H 	H 	0.5117	0.8686	0.5302	0.22
Mof_H 	H 	0.4916	0.0439	0.5664	0.222
Mof_H 	H 	0.4788	0.001	0.6014	0.228
Mof_H 	H 	0.52	0.0249	0.6068	0.221
Mof_H 	H 	0.7553	0.1319	0.5768	0.108
Mof_H 	H 	0.7198	0.1731	0.4526	0.105
Mof_H 	H 	0.7072	0.102	0.449	0.002
Mof_H 	H 	0.7194	0.043	0.5084	0.072
Mof_H 	H 	0.7399	0.2161	0.5773	0.004
Mof_H 	H 	0.7888	0.1905	0.5603	-0.007
Mof_H 	H 	0.715	0.3826	0.5536	-0.01
Mof_H 	H 	0.7552	0.4084	0.5254	-0.014
Mof_H 	H 	0.7801	0.4136	0.6591	0.107
Mof_H 	H 	0.758	0.5497	0.6285	0.075
Mof_H 	H 	0.732	0.5418	0.5625	0.011
Mof_H 	H 	0.7317	0.4719	0.543	0.088
Mof_H 	H 	0.8791	0.3318	0.4409	-0.007
Mof_H 	H 	0.8835	0.2786	0.4408	-0.002
Mof_H 	H 	0.9439	0.305	0.3936	0.116
Mof_H 	H 	0.073	0.3232	0.393	0.086
Mof_H 	H 	0.0597	0.3123	0.4718	0.008
Mof_H 	H 	0.9906	0.2994	0.5103	0.114
Mof_H 	H 	0.6889	0.3214	0.5647	0.216
Mof_H 	H 	0.7013	0.2686	0.5805	0.229
Mof_H 	H 	0.7126	0.304	0.6088	0.224
Mof_H 	H 	0.8431	0.3916	0.5272	0.218
Mof_H 	H 	0.868	0.376	0.4807	0.219
Mof_H 	H 	0.819	0.4052	0.4831	0.213
Mof_H 	H 	0.846	0.1911	0.5187	0.225
Mof_H 	H 	0.8413	0.2109	0.4673	0.228
Mof_H 	H 	0.8827	0.2198	0.489	0.227
Mof_H 	H 	0.084	0.5933	0.6274	0.105
Mof_H 	H 	0.1487	0.4841	0.5723	0.101
Mof_H 	H 	0.2167	0.4977	0.5879	0.005
Mof_H 	H 	0.2192	0.5595	0.6241	0.07
Mof_H 	H 	0.0227	0.5556	0.6307	-0.002
Mof_H 	H 	0.034	0.5873	0.5838	-0.009
Mof_H 	H 	0.8715	0.4752	0.6229	-0.003
Mof_H 	H 	0.9126	0.4568	0.6512	-0.004
Mof_H 	H 	0.8688	0.4027	0.6804	0.112
Mof_H 	H 	0.8627	0.2745	0.6644	0.078
Mof_H 	H 	0.8947	0.2894	0.5887	0.013
Mof_H 	H 	0.9173	0.3584	0.5607	0.099
Mof_H 	H 	0.9273	0.5359	0.4617	0.008
Mof_H 	H 	0.9723	0.5588	0.4523	0.001
Mof_H 	H 	0.8734	0.6793	0.4475	0.11
Mof_H 	H 	0.8894	0.6853	0.3124	0.074
Mof_H 	H 	0.9304	0.6128	0.3181	0.007
Mof_H 	H 	0.9423	0.5727	0.3889	0.099
Mof_H 	H 	0.9771	0.4557	0.6586	0.213
Mof_H 	H 	0.0119	0.4905	0.6547	0.217
Mof_H 	H 	0.9606	0.503	0.6767	0.217
Mof_H 	H 	0.8885	0.4778	0.5187	0.212
Mof_H 	H 	0.8569	0.4998	0.5592	0.221
Mof_H 	H 	0.8686	0.5302	0.5117	0.22
Mof_H 	H 	0.0439	0.5664	0.4916	0.222
Mof_H 	H 	0.001	0.6014	0.4788	0.228
Mof_H 	H 	0.0249	0.6068	0.52	0.221
Mof_H 	H 	0.1319	0.5768	0.7553	0.108
Mof_H 	H 	0.1731	0.4526	0.7198	0.105
Mof_H 	H 	0.102	0.449	0.7072	0.002
Mof_H 	H 	0.043	0.5084	0.7194	0.072
Mof_H 	H 	0.2161	0.5773	0.7399	0.004
Mof_H 	H 	0.1905	0.5603	0.7888	-0.007
Mof_H 	H 	0.3826	0.5536	0.715	-0.01
Mof_H 	H 	0.4084	0.5254	0.7552	-0.014
Mof_H 	H 	0.4136	0.6591	0.7801	0.107
Mof_H 	H 	0.5497	0.6285	0.758	0.075
Mof_H 	H 	0.5418	0.5625	0.732	0.011
Mof_H 	H 	0.4719	0.543	0.7317	0.088
Mof_H 	H 	0.3318	0.4409	0.8791	-0.007
Mof_H 	H 	0.2786	0.4408	0.8835	-0.002
Mof_H 	H 	0.305	0.3936	0.9439	0.116
Mof_H 	H 	0.3232	0.393	0.073	0.086
Mof_H 	H 	0.3123	0.4718	0.0597	0.008
Mof_H 	H 	0.2994	0.5103	0.9906	0.114
Mof_H 	H 	0.3214	0.5647	0.6889	0.216
Mof_H 	H 	0.2686	0.5805	0.7013	0.229
Mof_H 	H 	0.304	0.6088	0.7126	0.224
Mof_H 	H 	0.3916	0.5272	0.8431	0.218
Mof_H 	H 	0.376	0.4807	0.868	0.219
Mof_H 	H 	0.4052	0.4831	0.819	0.213
Mof_H 	H 	0.1911	0.5187	0.846	0.225
Mof_H 	H 	0.2109	0.4673	0.8413	0.228
Mof_H 	H 	0.2198	0.489	0.8827	0.227
Mof_H 	H 	0.1274	0.0933	0.584	0.105
Mof_H 	H 	0.0723	0.9841	0.6487	0.101
Mof_H 	H 	0.0879	0.9977	0.7167	0.005
Mof_H 	H 	0.1241	0.0595	0.7192	0.07
Mof_H 	H 	0.1307	0.0556	0.5227	-0.002
Mof_H 	H 	0.0838	0.0873	0.534	-0.009
Mof_H 	H 	0.1229	0.9752	0.3715	-0.003
Mof_H 	H 	0.1512	0.9568	0.4126	-0.004
Mof_H 	H 	0.1804	0.9027	0.3688	0.112
Mof_H 	H 	0.1644	0.7745	0.3627	0.078
Mof_H 	H 	0.0887	0.7894	0.3947	0.013
Mof_H 	H 	0.0607	0.8584	0.4173	0.099
Mof_H 	H 	0.9617	0.0359	0.4273	0.008
Mof_H 	H 	0.9523	0.0588	0.4723	0.001
Mof_H 	H 	0.9475	0.1793	0.3734	0.11
Mof_H 	H 	0.8124	0.1853	0.3894	0.074
Mof_H 	H 	0.8181	0.1128	0.4304	0.007
Mof_H 	H 	0.8889	0.0727	0.4423	0.099
Mof_H 	H 	0.1586	0.9557	0.4771	0.213
Mof_H 	H 	0.1547	0.9905	0.5119	0.217
Mof_H 	H 	0.1767	0.003	0.4606	0.218
Mof_H 	H 	0.0187	0.9778	0.3885	0.211
Mof_H 	H 	0.0592	0.9998	0.3569	0.22
Mof_H 	H 	0.0117	0.0302	0.3686	0.22
Mof_H 	H 	0.9916	0.0664	0.5439	0.221
Mof_H 	H 	0.9788	0.1014	0.501	0.227
Mof_H 	H 	0.02	0.1068	0.5249	0.22
Mof_H 	H 	0.2553	0.0768	0.6319	0.108
Mof_H 	H 	0.2198	0.9526	0.6731	0.105
Mof_H 	H 	0.2072	0.949	0.602	0.003
Mof_H 	H 	0.2194	0.0084	0.543	0.072
Mof_H 	H 	0.2399	0.0773	0.7161	0.004
Mof_H 	H 	0.2888	0.0603	0.6905	-0.007
Mof_H 	H 	0.215	0.0536	0.8826	-0.01
Mof_H 	H 	0.2552	0.0254	0.9084	-0.014
Mof_H 	H 	0.2801	0.1591	0.9136	0.107
Mof_H 	H 	0.258	0.1285	0.0497	0.075
Mof_H 	H 	0.232	0.0625	0.0418	0.011
Mof_H 	H 	0.2317	0.043	0.9719	0.088
Mof_H 	H 	0.3791	0.9409	0.8318	-0.006
Mof_H 	H 	0.3835	0.9408	0.7786	-0.002
Mof_H 	H 	0.4439	0.8936	0.805	0.116
Mof_H 	H 	0.573	0.893	0.8232	0.086
Mof_H 	H 	0.5597	0.9718	0.8123	0.009
Mof_H 	H 	0.4906	0.0103	0.7994	0.114
Mof_H 	H 	0.1889	0.0647	0.8214	0.216
Mof_H 	H 	0.2013	0.0805	0.7686	0.228
Mof_H 	H 	0.2126	0.1088	0.804	0.224
Mof_H 	H 	0.3431	0.0272	0.8916	0.218
Mof_H 	H 	0.368	0.9807	0.876	0.219
Mof_H 	H 	0.319	0.9831	0.9052	0.213
Mof_H 	H 	0.346	0.0187	0.6911	0.225
Mof_H 	H 	0.3413	0.9673	0.7109	0.227
Mof_H 	H 	0.3827	0.989	0.7198	0.227
Mof_H 	H 	0.584	0.1274	0.0933	0.105
Mof_H 	H 	0.6487	0.0723	0.9841	0.101
Mof_H 	H 	0.7167	0.0879	0.9977	0.005
Mof_H 	H 	0.7192	0.1241	0.0595	0.07
Mof_H 	H 	0.5227	0.1307	0.0556	-0.002
Mof_H 	H 	0.534	0.0838	0.0873	-0.009
Mof_H 	H 	0.3715	0.1229	0.9752	-0.003
Mof_H 	H 	0.4126	0.1512	0.9568	-0.004
Mof_H 	H 	0.3688	0.1804	0.9027	0.112
Mof_H 	H 	0.3627	0.1644	0.7745	0.078
Mof_H 	H 	0.3947	0.0887	0.7894	0.013
Mof_H 	H 	0.4173	0.0607	0.8584	0.099
Mof_H 	H 	0.4273	0.9617	0.0359	0.008
Mof_H 	H 	0.4723	0.9523	0.0588	0.001
Mof_H 	H 	0.3734	0.9475	0.1793	0.11
Mof_H 	H 	0.3894	0.8124	0.1853	0.074
Mof_H 	H 	0.4304	0.8181	0.1128	0.007
Mof_H 	H 	0.4423	0.8889	0.0727	0.099
Mof_H 	H 	0.4771	0.1586	0.9557	0.213
Mof_H 	H 	0.5119	0.1547	0.9905	0.217
Mof_H 	H 	0.4606	0.1767	0.003	0.218
Mof_H 	H 	0.3885	0.0187	0.9778	0.211
Mof_H 	H 	0.3569	0.0592	0.9998	0.22
Mof_H 	H 	0.3686	0.0117	0.0302	0.22
Mof_H 	H 	0.5439	0.9916	0.0664	0.221
Mof_H 	H 	0.501	0.9788	0.1014	0.227
Mof_H 	H 	0.5249	0.02	0.1068	0.22
Mof_H 	H 	0.6319	0.2553	0.0768	0.108
Mof_H 	H 	0.6731	0.2198	0.9526	0.105
Mof_H 	H 	0.602	0.2072	0.949	0.003
Mof_H 	H 	0.543	0.2194	0.0084	0.072
Mof_H 	H 	0.7161	0.2399	0.0773	0.004
Mof_H 	H 	0.6905	0.2888	0.0603	-0.007
Mof_H 	H 	0.8826	0.215	0.0536	-0.01
Mof_H 	H 	0.9084	0.2552	0.0254	-0.014
Mof_H 	H 	0.9136	0.2801	0.1591	0.107
Mof_H 	H 	0.0497	0.258	0.1285	0.075
Mof_H 	H 	0.0418	0.232	0.0625	0.011
Mof_H 	H 	0.9719	0.2317	0.043	0.088
Mof_H 	H 	0.8318	0.3791	0.9409	-0.006
Mof_H 	H 	0.7786	0.3835	0.9408	-0.002
Mof_H 	H 	0.805	0.4439	0.8936	0.116
Mof_H 	H 	0.8232	0.573	0.893	0.086
Mof_H 	H 	0.8123	0.5597	0.9718	0.009
Mof_H 	H 	0.7994	0.4906	0.0103	0.114
Mof_H 	H 	0.8214	0.1889	0.0647	0.216
Mof_H 	H 	0.7686	0.2013	0.0805	0.228
Mof_H 	H 	0.804	0.2126	0.1088	0.224
Mof_H 	H 	0.8916	0.3431	0.0272	0.218
Mof_H 	H 	0.876	0.368	0.9807	0.219
Mof_H 	H 	0.9052	0.319	0.9831	0.213
Mof_H 	H 	0.6911	0.346	0.0187	0.225
Mof_H 	H 	0.7109	0.3413	0.9673	0.227
Mof_H 	H 	0.7198	0.3827	0.989	0.227
Mof_H 	H 	0.0933	0.584	0.1274	0.105
Mof_H 	H 	0.9841	0.6487	0.0723	0.101
Mof_H 	H 	0.9977	0.7167	0.0879	0.005
Mof_H 	H 	0.0595	0.7192	0.1241	0.07
Mof_H 	H 	0.0556	0.5227	0.1307	-0.002
Mof_H 	H 	0.0873	0.534	0.0838	-0.009
Mof_H 	H 	0.9752	0.3715	0.1229	-0.003
Mof_H 	H 	0.9568	0.4126	0.1512	-0.004
Mof_H 	H 	0.9027	0.3688	0.1804	0.112
Mof_H 	H 	0.7745	0.3627	0.1644	0.078
Mof_H 	H 	0.7894	0.3947	0.0887	0.013
Mof_H 	H 	0.8584	0.4173	0.0607	0.099
Mof_H 	H 	0.0359	0.4273	0.9617	0.008
Mof_H 	H 	0.0588	0.4723	0.9523	0.001
Mof_H 	H 	0.1793	0.3734	0.9475	0.11
Mof_H 	H 	0.1853	0.3894	0.8124	0.074
Mof_H 	H 	0.1128	0.4304	0.8181	0.007
Mof_H 	H 	0.0727	0.4423	0.8889	0.099
Mof_H 	H 	0.9557	0.4771	0.1586	0.213
Mof_H 	H 	0.9905	0.5119	0.1547	0.217
Mof_H 	H 	0.003	0.4606	0.1767	0.218
Mof_H 	H 	0.9778	0.3885	0.0187	0.211
Mof_H 	H 	0.9998	0.3569	0.0592	0.22
Mof_H 	H 	0.0302	0.3686	0.0117	0.22
Mof_H 	H 	0.0664	0.5439	0.9916	0.221
Mof_H 	H 	0.1014	0.501	0.9788	0.227
Mof_H 	H 	0.1068	0.5249	0.02	0.22
Mof_H 	H 	0.0768	0.6319	0.2553	0.108
Mof_H 	H 	0.9526	0.6731	0.2198	0.105
Mof_H 	H 	0.949	0.602	0.2072	0.003
Mof_H 	H 	0.0084	0.543	0.2194	0.072
Mof_H 	H 	0.0773	0.7161	0.2399	0.004
Mof_H 	H 	0.0603	0.6905	0.2888	-0.007
Mof_H 	H 	0.0536	0.8826	0.215	-0.01
Mof_H 	H 	0.0254	0.9084	0.2552	-0.014
Mof_H 	H 	0.1591	0.9136	0.2801	0.107
Mof_H 	H 	0.1285	0.0497	0.258	0.075
Mof_H 	H 	0.0625	0.0418	0.232	0.011
Mof_H 	H 	0.043	0.9719	0.2317	0.088
Mof_H 	H 	0.9409	0.8318	0.3791	-0.006
Mof_H 	H 	0.9408	0.7786	0.3835	-0.002
Mof_H 	H 	0.8936	0.805	0.4439	0.116
Mof_H 	H 	0.893	0.8232	0.573	0.086
Mof_H 	H 	0.9718	0.8123	0.5597	0.009
Mof_H 	H 	0.0103	0.7994	0.4906	0.114
Mof_H 	H 	0.0647	0.8214	0.1889	0.216
Mof_H 	H 	0.0805	0.7686	0.2013	0.228
Mof_H 	H 	0.1088	0.804	0.2126	0.224
Mof_H 	H 	0.0272	0.8916	0.3431	0.218
Mof_H 	H 	0.9807	0.876	0.368	0.219
Mof_H 	H 	0.9831	0.9052	0.319	0.213
Mof_H 	H 	0.0187	0.6911	0.346	0.225
Mof_H 	H 	0.9673	0.7109	0.3413	0.227
Mof_H 	H 	0.989	0.7198	0.3827	0.227
Mof_H 	H 	0.4067	0.3726	0.916	0.105
Mof_H 	H 	0.5159	0.4277	0.8513	0.101
Mof_H 	H 	0.5023	0.4121	0.7833	0.005
Mof_H 	H 	0.4405	0.3759	0.7808	0.07
Mof_H 	H 	0.4444	0.3693	0.9773	-0.002
Mof_H 	H 	0.4127	0.4162	0.966	-0.009
Mof_H 	H 	0.5248	0.3771	0.1285	-0.003
Mof_H 	H 	0.5432	0.3488	0.0874	-0.004
Mof_H 	H 	0.5973	0.3196	0.1312	0.112
Mof_H 	H 	0.7255	0.3356	0.1373	0.078
Mof_H 	H 	0.7106	0.4113	0.1053	0.013
Mof_H 	H 	0.6416	0.4393	0.0827	0.099
Mof_H 	H 	0.4641	0.5383	0.0727	0.008
Mof_H 	H 	0.4412	0.5477	0.0277	0.001
Mof_H 	H 	0.3207	0.5525	0.1266	0.11
Mof_H 	H 	0.3147	0.6876	0.1106	0.074
Mof_H 	H 	0.3872	0.6819	0.0696	0.007
Mof_H 	H 	0.4273	0.6111	0.0577	0.099
Mof_H 	H 	0.5443	0.3414	0.0229	0.213
Mof_H 	H 	0.5095	0.3453	0.9881	0.217
Mof_H 	H 	0.497	0.3233	0.0394	0.217
Mof_H 	H 	0.5222	0.4813	0.1115	0.212
Mof_H 	H 	0.5002	0.4408	0.1431	0.221
Mof_H 	H 	0.4698	0.4883	0.1314	0.22
Mof_H 	H 	0.4336	0.5084	0.9561	0.222
Mof_H 	H 	0.3986	0.5212	0.999	0.228
Mof_H 	H 	0.3932	0.48	0.9751	0.221
Mof_H 	H 	0.4232	0.2447	0.8681	0.108
Mof_H 	H 	0.5474	0.2802	0.8269	0.105
Mof_H 	H 	0.551	0.2928	0.898	0.002
Mof_H 	H 	0.4916	0.2806	0.957	0.072
Mof_H 	H 	0.4227	0.2601	0.7839	0.004
Mof_H 	H 	0.4397	0.2112	0.8095	-0.007
Mof_H 	H 	0.4464	0.285	0.6174	-0.01
Mof_H 	H 	0.4746	0.2448	0.5916	-0.014
Mof_H 	H 	0.3409	0.2199	0.5864	0.107
Mof_H 	H 	0.3715	0.242	0.4503	0.075
Mof_H 	H 	0.4375	0.268	0.4582	0.011
Mof_H 	H 	0.457	0.2683	0.5281	0.088
Mof_H 	H 	0.5591	0.1209	0.6682	-0.007
Mof_H 	H 	0.5592	0.1165	0.7214	-0.002
Mof_H 	H 	0.6064	0.0561	0.695	0.116
Mof_H 	H 	0.607	0.927	0.6768	0.086
Mof_H 	H 	0.5282	0.9403	0.6877	0.008
Mof_H 	H 	0.4897	0.0094	0.7006	0.114
Mof_H 	H 	0.4353	0.3111	0.6786	0.216
Mof_H 	H 	0.4195	0.2987	0.7314	0.229
Mof_H 	H 	0.3912	0.2874	0.696	0.224
Mof_H 	H 	0.4728	0.1569	0.6084	0.218
Mof_H 	H 	0.5193	0.132	0.624	0.219
Mof_H 	H 	0.5169	0.181	0.5948	0.213
Mof_H 	H 	0.4813	0.154	0.8089	0.225
Mof_H 	H 	0.5327	0.1587	0.7891	0.228
Mof_H 	H 	0.511	0.1173	0.7802	0.227
Mof_H 	H 	0.3726	0.916	0.4067	0.105
Mof_H 	H 	0.4277	0.8513	0.5159	0.101
Mof_H 	H 	0.4121	0.7833	0.5023	0.005
Mof_H 	H 	0.3759	0.7808	0.4405	0.07
Mof_H 	H 	0.3693	0.9773	0.4444	-0.002
Mof_H 	H 	0.4162	0.966	0.4127	-0.009
Mof_H 	H 	0.3771	0.1285	0.5248	-0.003
Mof_H 	H 	0.3488	0.0874	0.5432	-0.004
Mof_H 	H 	0.3196	0.1312	0.5973	0.112
Mof_H 	H 	0.3356	0.1373	0.7255	0.078
Mof_H 	H 	0.4113	0.1053	0.7106	0.013
Mof_H 	H 	0.4393	0.0827	0.6416	0.099
Mof_H 	H 	0.5383	0.0727	0.4641	0.008
Mof_H 	H 	0.5477	0.0277	0.4412	0.001
Mof_H 	H 	0.5525	0.1266	0.3207	0.11
Mof_H 	H 	0.6876	0.1106	0.3147	0.074
Mof_H 	H 	0.6819	0.0696	0.3872	0.007
Mof_H 	H 	0.6111	0.0577	0.4273	0.099
Mof_H 	H 	0.3414	0.0229	0.5443	0.213
Mof_H 	H 	0.3453	0.9881	0.5095	0.217
Mof_H 	H 	0.3233	0.0394	0.497	0.217
Mof_H 	H 	0.4813	0.1115	0.5222	0.212
Mof_H 	H 	0.4408	0.1431	0.5002	0.221
Mof_H 	H 	0.4883	0.1314	0.4698	0.22
Mof_H 	H 	0.5084	0.9561	0.4336	0.222
Mof_H 	H 	0.5212	0.999	0.3986	0.228
Mof_H 	H 	0.48	0.9751	0.3932	0.221
Mof_H 	H 	0.2447	0.8681	0.4232	0.108
Mof_H 	H 	0.2802	0.8269	0.5474	0.105
Mof_H 	H 	0.2928	0.898	0.551	0.002
Mof_H 	H 	0.2806	0.957	0.4916	0.072
Mof_H 	H 	0.2601	0.7839	0.4227	0.004
Mof_H 	H 	0.2112	0.8095	0.4397	-0.007
Mof_H 	H 	0.285	0.6174	0.4464	-0.01
Mof_H 	H 	0.2448	0.5916	0.4746	-0.014
Mof_H 	H 	0.2199	0.5864	0.3409	0.107
Mof_H 	H 	0.242	0.4503	0.3715	0.075
Mof_H 	H 	0.268	0.4582	0.4375	0.011
Mof_H 	H 	0.2683	0.5281	0.457	0.088
Mof_H 	H 	0.1209	0.6682	0.5591	-0.007
Mof_H 	H 	0.1165	0.7214	0.5592	-0.002
Mof_H 	H 	0.0561	0.695	0.6064	0.116
Mof_H 	H 	0.927	0.6768	0.607	0.086
Mof_H 	H 	0.9403	0.6877	0.5282	0.008
Mof_H 	H 	0.0094	0.7006	0.4897	0.114
Mof_H 	H 	0.3111	0.6786	0.4353	0.216
Mof_H 	H 	0.2987	0.7314	0.4195	0.229
Mof_H 	H 	0.2874	0.696	0.3912	0.224
Mof_H 	H 	0.1569	0.6084	0.4728	0.218
Mof_H 	H 	0.132	0.624	0.5193	0.219
Mof_H 	H 	0.181	0.5948	0.5169	0.213
Mof_H 	H 	0.154	0.8089	0.4813	0.225
Mof_H 	H 	0.1587	0.7891	0.5327	0.228
Mof_H 	H 	0.1173	0.7802	0.511	0.227
Mof_H 	H 	0.916	0.4067	0.3726	0.105
Mof_H 	H 	0.8513	0.5159	0.4277	0.101
Mof_H 	H 	0.7833	0.5023	0.4121	0.005
Mof_H 	H 	0.7808	0.4405	0.3759	0.07
Mof_H 	H 	0.9773	0.4444	0.3693	-0.002
Mof_H 	H 	0.966	0.4127	0.4162	-0.009
Mof_H 	H 	0.1285	0.5248	0.3771	-0.003
Mof_H 	H 	0.0874	0.5432	0.3488	-0.004
Mof_H 	H 	0.1312	0.5973	0.3196	0.112
Mof_H 	H 	0.1373	0.7255	0.3356	0.078
Mof_H 	H 	0.1053	0.7106	0.4113	0.013
Mof_H 	H 	0.0827	0.6416	0.4393	0.099
Mof_H 	H 	0.0727	0.4641	0.5383	0.008
Mof_H 	H 	0.0277	0.4412	0.5477	0.001
Mof_H 	H 	0.1266	0.3207	0.5525	0.11
Mof_H 	H 	0.1106	0.3147	0.6876	0.074
Mof_H 	H 	0.0696	0.3872	0.6819	0.007
Mof_H 	H 	0.0577	0.4273	0.6111	0.099
Mof_H 	H 	0.0229	0.5443	0.3414	0.213
Mof_H 	H 	0.9881	0.5095	0.3453	0.217
Mof_H 	H 	0.0394	0.497	0.3233	0.217
Mof_H 	H 	0.1115	0.5222	0.4813	0.212
Mof_H 	H 	0.1431	0.5002	0.4408	0.221
Mof_H 	H 	0.1314	0.4698	0.4883	0.22
Mof_H 	H 	0.9561	0.4336	0.5084	0.222
Mof_H 	H 	0.999	0.3986	0.5212	0.228
Mof_H 	H 	0.9751	0.3932	0.48	0.221
Mof_H 	H 	0.8681	0.4232	0.2447	0.108
Mof_H 	H 	0.8269	0.5474	0.2802	0.105
Mof_H 	H 	0.898	0.551	0.2928	0.002
Mof_H 	H 	0.957	0.4916	0.2806	0.072
Mof_H 	H 	0.7839	0.4227	0.2601	0.004
Mof_H 	H 	0.8095	0.4397	0.2112	-0.007
Mof_H 	H 	0.6174	0.4464	0.285	-0.01
Mof_H 	H 	0.5916	0.4746	0.2448	-0.014
Mof_H 	H 	0.5864	0.3409	0.2199	0.107
Mof_H 	H 	0.4503	0.3715	0.242	0.075
Mof_H 	H 	0.4582	0.4375	0.268	0.011
Mof_H 	H 	0.5281	0.457	0.2683	0.088
Mof_H 	H 	0.6682	0.5591	0.1209	-0.007
Mof_H 	H 	0.7214	0.5592	0.1165	-0.002
Mof_H 	H 	0.695	0.6064	0.0561	0.116
Mof_H 	H 	0.6768	0.607	0.927	0.086
Mof_H 	H 	0.6877	0.5282	0.9403	0.008
Mof_H 	H 	0.7006	0.4897	0.0094	0.114
Mof_H 	H 	0.6786	0.4353	0.3111	0.216
Mof_H 	H 	0.7314	0.4195	0.2987	0.229
Mof_H 	H 	0.696	0.3912	0.2874	0.224
Mof_H 	H 	0.6084	0.4728	0.1569	0.218
Mof_H 	H 	0.624	0.5193	0.132	0.219
Mof_H 	H 	0.5948	0.5169	0.181	0.213
Mof_H 	H 	0.8089	0.4813	0.154	0.225
Mof_H 	H 	0.7891	0.5327	0.1587	0.228
Mof_H 	H 	0.7802	0.511	0.1173	0.227
Mof_C 	C 	0.84681	0.87833	0.3483	0.289
Mof_C 	C 	0.87022	0.918	0.34798	0.013
Mof_C 	C 	0.88026	0.92612	0.38895	-0.172
Mof_C 	C 	0.90148	0.96289	0.38979	0.218
Mof_C 	C 	0.91311	0.99083	0.35049	-0.201
Mof_C 	C 	0.90382	0.98282	0.31022	0.06
Mof_C 	C 	0.88231	0.94607	0.30875	-0.101
Mof_C 	C 	0.90221	0.94393	0.46949	0.134
Mof_C 	C 	0.92048	0.95957	0.50596	-0.221
Mof_C 	C 	0.89286	0.99102	0.53168	0.265
Mof_C 	C 	0.90838	0.00226	0.56894	-0.223
Mof_C 	C 	0.95142	0.98418	0.57893	0.282
Mof_C 	C 	0.98022	0.95687	0.55029	-0.222
Mof_C 	C 	0.96465	0.94428	0.51422	0.283
Mof_C 	C 	0.87944	0.03624	0.59594	0.135
Mof_C 	C 	0.88145	0.11362	0.60304	0.222
Mof_C 	C 	0.83788	0.12061	0.62504	-0.183
Mof_C 	C 	0.82135	0.1626	0.63786	0.018
Mof_C 	C 	0.84773	0.19643	0.62958	-0.105
Mof_C 	C 	0.89238	0.18788	0.60968	0.072
Mof_C 	C 	0.90887	0.14719	0.59653	-0.204
Mof_C 	C 	0.77362	0.17196	0.65916	0.281
Mof_C 	C 	0.02833	0.94237	0.55712	0.112
Mof_C 	C 	0.0748	0.87793	0.59045	0.21
Mof_C 	C 	0.07872	0.83446	0.61521	-0.161
Mof_C 	C 	0.12033	0.81186	0.62284	0.014
Mof_C 	C 	0.15894	0.83094	0.60574	-0.109
Mof_C 	C 	0.1556	0.8738	0.5814	0.059
Mof_C 	C 	0.11339	0.89759	0.57399	-0.196
Mof_C 	C 	0.12413	0.76539	0.65051	0.285
Mof_C 	C 	0.84655	0.01233	0.51939	-0.626
Mof_C 	C 	0.96679	0.99509	0.61979	-0.636
Mof_C 	C 	0.9964	0.91486	0.48333	-0.646
Mof_C 	C 	0.75495	0.91317	0.45431	0.268
Mof_C 	C 	0.76167	0.95177	0.41727	0.023
Mof_C 	C 	0.75411	0.94941	0.37421	-0.185
Mof_C 	C 	0.75989	0.98419	0.34049	0.229
Mof_C 	C 	0.77524	0.02294	0.35014	-0.194
Mof_C 	C 	0.78256	0.02496	0.39216	0.074
Mof_C 	C 	0.7758	0.9897	0.4274	-0.113
Mof_C 	C 	0.73588	0.94888	0.28578	0.132
Mof_C 	C 	0.7184	0.9626	0.241	-0.235
Mof_C 	C 	0.74358	0.94988	0.20148	0.302
Mof_C 	C 	0.72532	0.96202	0.16212	-0.23
Mof_C 	C 	0.68269	0.98889	0.16159	0.284
Mof_C 	C 	0.65999	0.00479	0.19989	-0.235
Mof_C 	C 	0.67689	0.99039	0.24059	0.294
Mof_C 	C 	0.75216	0.95036	0.11646	0.132
Mof_C 	C 	0.74355	0.90145	0.06475	0.187
Mof_C 	C 	0.72939	0.86075	0.06033	-0.145
Mof_C 	C 	0.72924	0.84964	0.01834	0.012
Mof_C 	C 	0.74283	0.87863	0.97933	-0.1
Mof_C 	C 	0.7577	0.9181	0.9843	0.055
Mof_C 	C 	0.75813	0.92973	0.02573	-0.183
Mof_C 	C 	0.71325	0.80605	0.01495	0.276
Mof_C 	C 	0.61876	0.03976	0.19796	0.134
Mof_C 	C 	0.53946	0.04466	0.19766	0.235
Mof_C 	C 	0.53244	0.09074	0.19244	-0.192
Mof_C 	C 	0.491	0.1154	0.1833	0.03
Mof_C 	C 	0.45582	0.09162	0.18202	-0.116
Mof_C 	C 	0.46394	0.04454	0.18864	0.086
Mof_C 	C 	0.50488	0.02158	0.19628	-0.224
Mof_C 	C 	0.48355	0.16475	0.17905	0.259
Mof_C 	C 	0.7892	0.9216	0.2019	-0.653
Mof_C 	C 	0.66119	0.00059	0.11829	-0.632
Mof_C 	C 	0.64931	0.00511	0.28351	-0.649
Mof_C 	C 	0.3483	0.84681	0.87833	0.289
Mof_C 	C 	0.34798	0.87022	0.918	0.013
Mof_C 	C 	0.38895	0.88026	0.92612	-0.172
Mof_C 	C 	0.38979	0.90148	0.96289	0.218
Mof_C 	C 	0.35049	0.91311	0.99083	-0.201
Mof_C 	C 	0.31022	0.90382	0.98282	0.06
Mof_C 	C 	0.30875	0.88231	0.94607	-0.101
Mof_C 	C 	0.46949	0.90221	0.94393	0.134
Mof_C 	C 	0.50596	0.92048	0.95957	-0.221
Mof_C 	C 	0.53168	0.89286	0.99102	0.265
Mof_C 	C 	0.56894	0.90838	0.00226	-0.223
Mof_C 	C 	0.57893	0.95142	0.98418	0.282
Mof_C 	C 	0.55029	0.98022	0.95687	-0.222
Mof_C 	C 	0.51422	0.96465	0.94428	0.283
Mof_C 	C 	0.59594	0.87944	0.03624	0.135
Mof_C 	C 	0.60304	0.88145	0.11362	0.222
Mof_C 	C 	0.62504	0.83788	0.12061	-0.183
Mof_C 	C 	0.63786	0.82135	0.1626	0.018
Mof_C 	C 	0.62958	0.84773	0.19643	-0.105
Mof_C 	C 	0.60968	0.89238	0.18788	0.072
Mof_C 	C 	0.59653	0.90887	0.14719	-0.204
Mof_C 	C 	0.65916	0.77362	0.17196	0.281
Mof_C 	C 	0.55712	0.02833	0.94237	0.112
Mof_C 	C 	0.59045	0.0748	0.87793	0.21
Mof_C 	C 	0.61521	0.07872	0.83446	-0.161
Mof_C 	C 	0.62284	0.12033	0.81186	0.014
Mof_C 	C 	0.60574	0.15894	0.83094	-0.109
Mof_C 	C 	0.5814	0.1556	0.8738	0.059
Mof_C 	C 	0.57399	0.11339	0.89759	-0.196
Mof_C 	C 	0.65051	0.12413	0.76539	0.285
Mof_C 	C 	0.51939	0.84655	0.01233	-0.626
Mof_C 	C 	0.61979	0.96679	0.99509	-0.636
Mof_C 	C 	0.48333	0.9964	0.91486	-0.646
Mof_C 	C 	0.45431	0.75495	0.91317	0.268
Mof_C 	C 	0.41727	0.76167	0.95177	0.023
Mof_C 	C 	0.37421	0.75411	0.94941	-0.185
Mof_C 	C 	0.34049	0.75989	0.98419	0.229
Mof_C 	C 	0.35014	0.77524	0.02294	-0.194
Mof_C 	C 	0.39216	0.78256	0.02496	0.074
Mof_C 	C 	0.4274	0.7758	0.9897	-0.113
Mof_C 	C 	0.28578	0.73588	0.94888	0.132
Mof_C 	C 	0.241	0.7184	0.9626	-0.235
Mof_C 	C 	0.20148	0.74358	0.94988	0.302
Mof_C 	C 	0.16212	0.72532	0.96202	-0.23
Mof_C 	C 	0.16159	0.68269	0.98889	0.284
Mof_C 	C 	0.19989	0.65999	0.00479	-0.235
Mof_C 	C 	0.24059	0.67689	0.99039	0.294
Mof_C 	C 	0.11646	0.75216	0.95036	0.132
Mof_C 	C 	0.06475	0.74355	0.90145	0.187
Mof_C 	C 	0.06033	0.72939	0.86075	-0.145
Mof_C 	C 	0.01834	0.72924	0.84964	0.012
Mof_C 	C 	0.97933	0.74283	0.87863	-0.1
Mof_C 	C 	0.9843	0.7577	0.9181	0.055
Mof_C 	C 	0.02573	0.75813	0.92973	-0.183
Mof_C 	C 	0.01495	0.71325	0.80605	0.276
Mof_C 	C 	0.19796	0.61876	0.03976	0.134
Mof_C 	C 	0.19766	0.53946	0.04466	0.235
Mof_C 	C 	0.19244	0.53244	0.09074	-0.192
Mof_C 	C 	0.1833	0.491	0.1154	0.03
Mof_C 	C 	0.18202	0.45582	0.09162	-0.116
Mof_C 	C 	0.18864	0.46394	0.04454	0.086
Mof_C 	C 	0.19628	0.50488	0.02158	-0.224
Mof_C 	C 	0.17905	0.48355	0.16475	0.259
Mof_C 	C 	0.2019	0.7892	0.9216	-0.653
Mof_C 	C 	0.11829	0.66119	0.00059	-0.632
Mof_C 	C 	0.28351	0.64931	0.00511	-0.649
Mof_C 	C 	0.87833	0.3483	0.84681	0.289
Mof_C 	C 	0.918	0.34798	0.87022	0.013
Mof_C 	C 	0.92612	0.38895	0.88026	-0.172
Mof_C 	C 	0.96289	0.38979	0.90148	0.218
Mof_C 	C 	0.99083	0.35049	0.91311	-0.201
Mof_C 	C 	0.98282	0.31022	0.90382	0.06
Mof_C 	C 	0.94607	0.30875	0.88231	-0.101
Mof_C 	C 	0.94393	0.46949	0.90221	0.134
Mof_C 	C 	0.95957	0.50596	0.92048	-0.221
Mof_C 	C 	0.99102	0.53168	0.89286	0.265
Mof_C 	C 	0.00226	0.56894	0.90838	-0.223
Mof_C 	C 	0.98418	0.57893	0.95142	0.282
Mof_C 	C 	0.95687	0.55029	0.98022	-0.222
Mof_C 	C 	0.94428	0.51422	0.96465	0.283
Mof_C 	C 	0.03624	0.59594	0.87944	0.135
Mof_C 	C 	0.11362	0.60304	0.88145	0.222
Mof_C 	C 	0.12061	0.62504	0.83788	-0.183
Mof_C 	C 	0.1626	0.63786	0.82135	0.018
Mof_C 	C 	0.19643	0.62958	0.84773	-0.105
Mof_C 	C 	0.18788	0.60968	0.89238	0.072
Mof_C 	C 	0.14719	0.59653	0.90887	-0.204
Mof_C 	C 	0.17196	0.65916	0.77362	0.281
Mof_C 	C 	0.94237	0.55712	0.02833	0.112
Mof_C 	C 	0.87793	0.59045	0.0748	0.21
Mof_C 	C 	0.83446	0.61521	0.07872	-0.161
Mof_C 	C 	0.81186	0.62284	0.12033	0.014
Mof_C 	C 	0.83094	0.60574	0.15894	-0.109
Mof_C 	C 	0.8738	0.5814	0.1556	0.059
Mof_C 	C 	0.89759	0.57399	0.11339	-0.196
Mof_C 	C 	0.76539	0.65051	0.12413	0.285
Mof_C 	C 	0.01233	0.51939	0.84655	-0.626
Mof_C 	C 	0.99509	0.61979	0.96679	-0.636
Mof_C 	C 	0.91486	0.48333	0.9964	-0.646
Mof_C 	C 	0.91317	0.45431	0.75495	0.268
Mof_C 	C 	0.95177	0.41727	0.76167	0.023
Mof_C 	C 	0.94941	0.37421	0.75411	-0.185
Mof_C 	C 	0.98419	0.34049	0.75989	0.229
Mof_C 	C 	0.02294	0.35014	0.77524	-0.194
Mof_C 	C 	0.02496	0.39216	0.78256	0.074
Mof_C 	C 	0.9897	0.4274	0.7758	-0.113
Mof_C 	C 	0.94888	0.28578	0.73588	0.132
Mof_C 	C 	0.9626	0.241	0.7184	-0.235
Mof_C 	C 	0.94988	0.20148	0.74358	0.302
Mof_C 	C 	0.96202	0.16212	0.72532	-0.23
Mof_C 	C 	0.98889	0.16159	0.68269	0.284
Mof_C 	C 	0.00479	0.19989	0.65999	-0.235
Mof_C 	C 	0.99039	0.24059	0.67689	0.294
Mof_C 	C 	0.95036	0.11646	0.75216	0.132
Mof_C 	C 	0.90145	0.06475	0.74355	0.187
Mof_C 	C 	0.86075	0.06033	0.72939	-0.145
Mof_C 	C 	0.84964	0.01834	0.72924	0.012
Mof_C 	C 	0.87863	0.97933	0.74283	-0.1
Mof_C 	C 	0.9181	0.9843	0.7577	0.055
Mof_C 	C 	0.92973	0.02573	0.75813	-0.183
Mof_C 	C 	0.80605	0.01495	0.71325	0.276
Mof_C 	C 	0.03976	0.19796	0.61876	0.134
Mof_C 	C 	0.04466	0.19766	0.53946	0.235
Mof_C 	C 	0.09074	0.19244	0.53244	-0.192
Mof_C 	C 	0.1154	0.1833	0.491	0.03
Mof_C 	C 	0.09162	0.18202	0.45582	-0.116
Mof_C 	C 	0.04454	0.18864	0.46394	0.086
Mof_C 	C 	0.02158	0.19628	0.50488	-0.224
Mof_C 	C 	0.16475	0.17905	0.48355	0.259
Mof_C 	C 	0.9216	0.2019	0.7892	-0.653
Mof_C 	C 	0.00059	0.11829	0.66119	-0.632
Mof_C 	C 	0.00511	0.28351	0.64931	-0.649
Mof_C 	C 	0.62167	0.65319	0.1517	0.289
Mof_C 	C 	0.582	0.62978	0.15202	0.013
Mof_C 	C 	0.57388	0.61974	0.11105	-0.173
Mof_C 	C 	0.53711	0.59852	0.11021	0.218
Mof_C 	C 	0.50917	0.58689	0.14951	-0.201
Mof_C 	C 	0.51718	0.59618	0.18978	0.06
Mof_C 	C 	0.55393	0.61769	0.19125	-0.101
Mof_C 	C 	0.55607	0.59779	0.03051	0.133
Mof_C 	C 	0.54043	0.57952	0.99404	-0.221
Mof_C 	C 	0.50898	0.60714	0.96832	0.264
Mof_C 	C 	0.49774	0.59162	0.93106	-0.223
Mof_C 	C 	0.51582	0.54858	0.92107	0.283
Mof_C 	C 	0.54313	0.51978	0.94971	-0.223
Mof_C 	C 	0.55572	0.53535	0.98578	0.283
Mof_C 	C 	0.46376	0.62056	0.90406	0.134
Mof_C 	C 	0.38638	0.61855	0.89696	0.222
Mof_C 	C 	0.37939	0.66212	0.87496	-0.183
Mof_C 	C 	0.3374	0.67865	0.86214	0.018
Mof_C 	C 	0.30357	0.65227	0.87042	-0.105
Mof_C 	C 	0.31212	0.60762	0.89032	0.072
Mof_C 	C 	0.35281	0.59113	0.90347	-0.204
Mof_C 	C 	0.32804	0.72638	0.84084	0.281
Mof_C 	C 	0.55763	0.47167	0.94288	0.113
Mof_C 	C 	0.62207	0.4252	0.90955	0.21
Mof_C 	C 	0.66554	0.42128	0.88479	-0.161
Mof_C 	C 	0.68814	0.37967	0.87716	0.014
Mof_C 	C 	0.66906	0.34106	0.89426	-0.109
Mof_C 	C 	0.6262	0.3444	0.9186	0.059
Mof_C 	C 	0.60241	0.38661	0.92601	-0.196
Mof_C 	C 	0.73461	0.37587	0.84949	0.285
Mof_C 	C 	0.48767	0.65345	0.98061	-0.624
Mof_C 	C 	0.50491	0.53321	0.88021	-0.639
Mof_C 	C 	0.58514	0.5036	0.01667	-0.648
Mof_C 	C 	0.58683	0.74505	0.04569	0.268
Mof_C 	C 	0.54823	0.73833	0.08273	0.023
Mof_C 	C 	0.55059	0.74589	0.12579	-0.185
Mof_C 	C 	0.51581	0.74011	0.15951	0.229
Mof_C 	C 	0.47706	0.72476	0.14986	-0.194
Mof_C 	C 	0.47504	0.71744	0.10784	0.074
Mof_C 	C 	0.5103	0.7242	0.0726	-0.114
Mof_C 	C 	0.55112	0.76412	0.21422	0.133
Mof_C 	C 	0.5374	0.7816	0.259	-0.235
Mof_C 	C 	0.55012	0.75642	0.29852	0.302
Mof_C 	C 	0.53798	0.77468	0.33788	-0.231
Mof_C 	C 	0.51111	0.81731	0.33841	0.284
Mof_C 	C 	0.49521	0.84001	0.30011	-0.236
Mof_C 	C 	0.50961	0.82311	0.25941	0.294
Mof_C 	C 	0.54964	0.74784	0.38354	0.132
Mof_C 	C 	0.59855	0.75645	0.43525	0.186
Mof_C 	C 	0.63925	0.77061	0.43967	-0.145
Mof_C 	C 	0.65036	0.77076	0.48166	0.013
Mof_C 	C 	0.62137	0.75717	0.52067	-0.1
Mof_C 	C 	0.5819	0.7423	0.5157	0.054
Mof_C 	C 	0.57027	0.74187	0.47427	-0.182
Mof_C 	C 	0.69395	0.78675	0.48505	0.276
Mof_C 	C 	0.46024	0.88124	0.30204	0.135
Mof_C 	C 	0.45534	0.96054	0.30234	0.235
Mof_C 	C 	0.40926	0.96756	0.30756	-0.192
Mof_C 	C 	0.3846	0.009	0.3167	0.031
Mof_C 	C 	0.40838	0.04418	0.31798	-0.116
Mof_C 	C 	0.45546	0.03606	0.31136	0.087
Mof_C 	C 	0.47842	0.99512	0.30372	-0.225
Mof_C 	C 	0.33525	0.01645	0.32095	0.259
Mof_C 	C 	0.5784	0.7108	0.2981	-0.653
Mof_C 	C 	0.49941	0.83881	0.38171	-0.633
Mof_C 	C 	0.49489	0.85069	0.21649	-0.65
Mof_C 	C 	0.65319	0.1517	0.62167	0.289
Mof_C 	C 	0.62978	0.15202	0.582	0.013
Mof_C 	C 	0.61974	0.11105	0.57388	-0.173
Mof_C 	C 	0.59852	0.11021	0.53711	0.218
Mof_C 	C 	0.58689	0.14951	0.50917	-0.201
Mof_C 	C 	0.59618	0.18978	0.51718	0.06
Mof_C 	C 	0.61769	0.19125	0.55393	-0.101
Mof_C 	C 	0.59779	0.03051	0.55607	0.133
Mof_C 	C 	0.57952	0.99404	0.54043	-0.221
Mof_C 	C 	0.60714	0.96832	0.50898	0.264
Mof_C 	C 	0.59162	0.93106	0.49774	-0.223
Mof_C 	C 	0.54858	0.92107	0.51582	0.283
Mof_C 	C 	0.51978	0.94971	0.54313	-0.223
Mof_C 	C 	0.53535	0.98578	0.55572	0.283
Mof_C 	C 	0.62056	0.90406	0.46376	0.134
Mof_C 	C 	0.61855	0.89696	0.38638	0.222
Mof_C 	C 	0.66212	0.87496	0.37939	-0.183
Mof_C 	C 	0.67865	0.86214	0.3374	0.018
Mof_C 	C 	0.65227	0.87042	0.30357	-0.105
Mof_C 	C 	0.60762	0.89032	0.31212	0.072
Mof_C 	C 	0.59113	0.90347	0.35281	-0.204
Mof_C 	C 	0.72638	0.84084	0.32804	0.281
Mof_C 	C 	0.47167	0.94288	0.55763	0.113
Mof_C 	C 	0.4252	0.90955	0.62207	0.21
Mof_C 	C 	0.42128	0.88479	0.66554	-0.161
Mof_C 	C 	0.37967	0.87716	0.68814	0.014
Mof_C 	C 	0.34106	0.89426	0.66906	-0.109
Mof_C 	C 	0.3444	0.9186	0.6262	0.059
Mof_C 	C 	0.38661	0.92601	0.60241	-0.196
Mof_C 	C 	0.37587	0.84949	0.73461	0.285
Mof_C 	C 	0.65345	0.98061	0.48767	-0.624
Mof_C 	C 	0.53321	0.88021	0.50491	-0.639
Mof_C 	C 	0.5036	0.01667	0.58514	-0.648
Mof_C 	C 	0.74505	0.04569	0.58683	0.268
Mof_C 	C 	0.73833	0.08273	0.54823	0.023
Mof_C 	C 	0.74589	0.12579	0.55059	-0.185
Mof_C 	C 	0.74011	0.15951	0.51581	0.229
Mof_C 	C 	0.72476	0.14986	0.47706	-0.194
Mof_C 	C 	0.71744	0.10784	0.47504	0.074
Mof_C 	C 	0.7242	0.0726	0.5103	-0.114
Mof_C 	C 	0.76412	0.21422	0.55112	0.133
Mof_C 	C 	0.7816	0.259	0.5374	-0.235
Mof_C 	C 	0.75642	0.29852	0.55012	0.302
Mof_C 	C 	0.77468	0.33788	0.53798	-0.231
Mof_C 	C 	0.81731	0.33841	0.51111	0.284
Mof_C 	C 	0.84001	0.30011	0.49521	-0.236
Mof_C 	C 	0.82311	0.25941	0.50961	0.294
Mof_C 	C 	0.74784	0.38354	0.54964	0.132
Mof_C 	C 	0.75645	0.43525	0.59855	0.186
Mof_C 	C 	0.77061	0.43967	0.63925	-0.145
Mof_C 	C 	0.77076	0.48166	0.65036	0.013
Mof_C 	C 	0.75717	0.52067	0.62137	-0.1
Mof_C 	C 	0.7423	0.5157	0.5819	0.054
Mof_C 	C 	0.74187	0.47427	0.57027	-0.182
Mof_C 	C 	0.78675	0.48505	0.69395	0.276
Mof_C 	C 	0.88124	0.30204	0.46024	0.135
Mof_C 	C 	0.96054	0.30234	0.45534	0.235
Mof_C 	C 	0.96756	0.30756	0.40926	-0.192
Mof_C 	C 	0.009	0.3167	0.3846	0.031
Mof_C 	C 	0.04418	0.31798	0.40838	-0.116
Mof_C 	C 	0.03606	0.31136	0.45546	0.087
Mof_C 	C 	0.99512	0.30372	0.47842	-0.225
Mof_C 	C 	0.01645	0.32095	0.33525	0.259
Mof_C 	C 	0.7108	0.2981	0.5784	-0.653
Mof_C 	C 	0.83881	0.38171	0.49941	-0.633
Mof_C 	C 	0.85069	0.21649	0.49489	-0.65
Mof_C 	C 	0.1517	0.62167	0.65319	0.289
Mof_C 	C 	0.15202	0.582	0.62978	0.013
Mof_C 	C 	0.11105	0.57388	0.61974	-0.173
Mof_C 	C 	0.11021	0.53711	0.59852	0.218
Mof_C 	C 	0.14951	0.50917	0.58689	-0.201
Mof_C 	C 	0.18978	0.51718	0.59618	0.06
Mof_C 	C 	0.19125	0.55393	0.61769	-0.101
Mof_C 	C 	0.03051	0.55607	0.59779	0.133
Mof_C 	C 	0.99404	0.54043	0.57952	-0.221
Mof_C 	C 	0.96832	0.50898	0.60714	0.264
Mof_C 	C 	0.93106	0.49774	0.59162	-0.223
Mof_C 	C 	0.92107	0.51582	0.54858	0.283
Mof_C 	C 	0.94971	0.54313	0.51978	-0.223
Mof_C 	C 	0.98578	0.55572	0.53535	0.283
Mof_C 	C 	0.90406	0.46376	0.62056	0.134
Mof_C 	C 	0.89696	0.38638	0.61855	0.222
Mof_C 	C 	0.87496	0.37939	0.66212	-0.183
Mof_C 	C 	0.86214	0.3374	0.67865	0.018
Mof_C 	C 	0.87042	0.30357	0.65227	-0.105
Mof_C 	C 	0.89032	0.31212	0.60762	0.072
Mof_C 	C 	0.90347	0.35281	0.59113	-0.204
Mof_C 	C 	0.84084	0.32804	0.72638	0.281
Mof_C 	C 	0.94288	0.55763	0.47167	0.113
Mof_C 	C 	0.90955	0.62207	0.4252	0.21
Mof_C 	C 	0.88479	0.66554	0.42128	-0.161
Mof_C 	C 	0.87716	0.68814	0.37967	0.014
Mof_C 	C 	0.89426	0.66906	0.34106	-0.109
Mof_C 	C 	0.9186	0.6262	0.3444	0.059
Mof_C 	C 	0.92601	0.60241	0.38661	-0.196
Mof_C 	C 	0.84949	0.73461	0.37587	0.285
Mof_C 	C 	0.98061	0.48767	0.65345	-0.624
Mof_C 	C 	0.88021	0.50491	0.53321	-0.639
Mof_C 	C 	0.01667	0.58514	0.5036	-0.648
Mof_C 	C 	0.04569	0.58683	0.74505	0.268
Mof_C 	C 	0.08273	0.54823	0.73833	0.023
Mof_C 	C 	0.12579	0.55059	0.74589	-0.185
Mof_C 	C 	0.15951	0.51581	0.74011	0.229
Mof_C 	C 	0.14986	0.47706	0.72476	-0.194
Mof_C 	C 	0.10784	0.47504	0.71744	0.074
Mof_C 	C 	0.0726	0.5103	0.7242	-0.114
Mof_C 	C 	0.21422	0.55112	0.76412	0.133
Mof_C 	C 	0.259	0.5374	0.7816	-0.235
Mof_C 	C 	0.29852	0.55012	0.75642	0.302
Mof_C 	C 	0.33788	0.53798	0.77468	-0.231
Mof_C 	C 	0.33841	0.51111	0.81731	0.284
Mof_C 	C 	0.30011	0.49521	0.84001	-0.236
Mof_C 	C 	0.25941	0.50961	0.82311	0.294
Mof_C 	C 	0.38354	0.54964	0.74784	0.132
Mof_C 	C 	0.43525	0.59855	0.75645	0.186
Mof_C 	C 	0.43967	0.63925	0.77061	-0.145
Mof_C 	C 	0.48166	0.65036	0.77076	0.013
Mof_C 	C 	0.52067	0.62137	0.75717	-0.1
Mof_C 	C 	0.5157	0.5819	0.7423	0.054
Mof_C 	C 	0.47427	0.57027	0.74187	-0.182
Mof_C 	C 	0.48505	0.69395	0.78675	0.276
Mof_C 	C 	0.30204	0.46024	0.88124	0.135
Mof_C 	C 	0.30234	0.45534	0.96054	0.235
Mof_C 	C 	0.30756	0.40926	0.96756	-0.192
Mof_C 	C 	0.3167	0.3846	0.009	0.031
Mof_C 	C 	0.31798	0.40838	0.04418	-0.116
Mof_C 	C 	0.31136	0.45546	0.03606	0.087
Mof_C 	C 	0.30372	0.47842	0.99512	-0.225
Mof_C 	C 	0.32095	0.33525	0.01645	0.259
Mof_C 	C 	0.2981	0.5784	0.7108	-0.653
Mof_C 	C 	0.38171	0.49941	0.83881	-0.633
Mof_C 	C 	0.21649	0.49489	0.85069	-0.65
Mof_C 	C 	0.15319	0.12167	0.6517	0.289
Mof_C 	C 	0.12978	0.082	0.65202	0.013
Mof_C 	C 	0.11974	0.07388	0.61105	-0.172
Mof_C 	C 	0.09852	0.03711	0.61021	0.218
Mof_C 	C 	0.08689	0.00917	0.64951	-0.201
Mof_C 	C 	0.09618	0.01718	0.68978	0.06
Mof_C 	C 	0.11769	0.05393	0.69125	-0.101
Mof_C 	C 	0.09779	0.05607	0.53051	0.134
Mof_C 	C 	0.07952	0.04043	0.49404	-0.221
Mof_C 	C 	0.10714	0.00898	0.46832	0.265
Mof_C 	C 	0.09162	0.99774	0.43106	-0.223
Mof_C 	C 	0.04858	0.01582	0.42107	0.282
Mof_C 	C 	0.01978	0.04313	0.44971	-0.222
Mof_C 	C 	0.03535	0.05572	0.48578	0.283
Mof_C 	C 	0.12056	0.96376	0.40406	0.135
Mof_C 	C 	0.11855	0.88638	0.39696	0.222
Mof_C 	C 	0.16212	0.87939	0.37496	-0.183
Mof_C 	C 	0.17865	0.8374	0.36214	0.018
Mof_C 	C 	0.15227	0.80357	0.37042	-0.105
Mof_C 	C 	0.10762	0.81212	0.39032	0.072
Mof_C 	C 	0.09113	0.85281	0.40347	-0.204
Mof_C 	C 	0.22638	0.82804	0.34084	0.281
Mof_C 	C 	0.97167	0.05763	0.44288	0.112
Mof_C 	C 	0.9252	0.12207	0.40955	0.21
Mof_C 	C 	0.92128	0.16554	0.38479	-0.161
Mof_C 	C 	0.87967	0.18814	0.37716	0.014
Mof_C 	C 	0.84106	0.16906	0.39426	-0.109
Mof_C 	C 	0.8444	0.1262	0.4186	0.059
Mof_C 	C 	0.88661	0.10241	0.42601	-0.196
Mof_C 	C 	0.87587	0.23461	0.34949	0.285
Mof_C 	C 	0.15345	0.98767	0.48061	-0.626
Mof_C 	C 	0.03321	0.00491	0.38021	-0.636
Mof_C 	C 	0.0036	0.08514	0.51667	-0.646
Mof_C 	C 	0.24505	0.08683	0.54569	0.268
Mof_C 	C 	0.23833	0.04823	0.58273	0.023
Mof_C 	C 	0.24589	0.05059	0.62579	-0.185
Mof_C 	C 	0.24011	0.01581	0.65951	0.229
Mof_C 	C 	0.22476	0.97706	0.64986	-0.194
Mof_C 	C 	0.21744	0.97504	0.60784	0.074
Mof_C 	C 	0.2242	0.0103	0.5726	-0.113
Mof_C 	C 	0.26412	0.05112	0.71422	0.132
Mof_C 	C 	0.2816	0.0374	0.759	-0.235
Mof_C 	C 	0.25642	0.05012	0.79852	0.302
Mof_C 	C 	0.27468	0.03798	0.83788	-0.23
Mof_C 	C 	0.31731	0.01111	0.83841	0.284
Mof_C 	C 	0.34001	0.99521	0.80011	-0.235
Mof_C 	C 	0.32311	0.00961	0.75941	0.294
Mof_C 	C 	0.24784	0.04964	0.88354	0.132
Mof_C 	C 	0.25645	0.09855	0.93525	0.187
Mof_C 	C 	0.27061	0.13925	0.93967	-0.145
Mof_C 	C 	0.27076	0.15036	0.98166	0.012
Mof_C 	C 	0.25717	0.12137	0.02067	-0.1
Mof_C 	C 	0.2423	0.0819	0.0157	0.055
Mof_C 	C 	0.24187	0.07027	0.97427	-0.183
Mof_C 	C 	0.28675	0.19395	0.98505	0.276
Mof_C 	C 	0.38124	0.96024	0.80204	0.134
Mof_C 	C 	0.46054	0.95534	0.80234	0.235
Mof_C 	C 	0.46756	0.90926	0.80756	-0.192
Mof_C 	C 	0.509	0.8846	0.8167	0.03
Mof_C 	C 	0.54418	0.90838	0.81798	-0.116
Mof_C 	C 	0.53606	0.95546	0.81136	0.086
Mof_C 	C 	0.49512	0.97842	0.80372	-0.224
Mof_C 	C 	0.51645	0.83525	0.82095	0.259
Mof_C 	C 	0.2108	0.0784	0.7981	-0.653
Mof_C 	C 	0.33881	0.99941	0.88171	-0.632
Mof_C 	C 	0.35069	0.99489	0.71649	-0.649
Mof_C 	C 	0.6517	0.15319	0.12167	0.289
Mof_C 	C 	0.65202	0.12978	0.082	0.013
Mof_C 	C 	0.61105	0.11974	0.07388	-0.172
Mof_C 	C 	0.61021	0.09852	0.03711	0.218
Mof_C 	C 	0.64951	0.08689	0.00917	-0.201
Mof_C 	C 	0.68978	0.09618	0.01718	0.06
Mof_C 	C 	0.69125	0.11769	0.05393	-0.101
Mof_C 	C 	0.53051	0.09779	0.05607	0.134
Mof_C 	C 	0.49404	0.07952	0.04043	-0.221
Mof_C 	C 	0.46832	0.10714	0.00898	0.265
Mof_C 	C 	0.43106	0.09162	0.99774	-0.223
Mof_C 	C 	0.42107	0.04858	0.01582	0.282
Mof_C 	C 	0.44971	0.01978	0.04313	-0.222
Mof_C 	C 	0.48578	0.03535	0.05572	0.283
Mof_C 	C 	0.40406	0.12056	0.96376	0.135
Mof_C 	C 	0.39696	0.11855	0.88638	0.222
Mof_C 	C 	0.37496	0.16212	0.87939	-0.183
Mof_C 	C 	0.36214	0.17865	0.8374	0.018
Mof_C 	C 	0.37042	0.15227	0.80357	-0.105
Mof_C 	C 	0.39032	0.10762	0.81212	0.072
Mof_C 	C 	0.40347	0.09113	0.85281	-0.204
Mof_C 	C 	0.34084	0.22638	0.82804	0.281
Mof_C 	C 	0.44288	0.97167	0.05763	0.112
Mof_C 	C 	0.40955	0.9252	0.12207	0.21
Mof_C 	C 	0.38479	0.92128	0.16554	-0.161
Mof_C 	C 	0.37716	0.87967	0.18814	0.014
Mof_C 	C 	0.39426	0.84106	0.16906	-0.109
Mof_C 	C 	0.4186	0.8444	0.1262	0.059
Mof_C 	C 	0.42601	0.88661	0.10241	-0.196
Mof_C 	C 	0.34949	0.87587	0.23461	0.285
Mof_C 	C 	0.48061	0.15345	0.98767	-0.626
Mof_C 	C 	0.38021	0.03321	0.00491	-0.636
Mof_C 	C 	0.51667	0.0036	0.08514	-0.646
Mof_C 	C 	0.54569	0.24505	0.08683	0.268
Mof_C 	C 	0.58273	0.23833	0.04823	0.023
Mof_C 	C 	0.62579	0.24589	0.05059	-0.185
Mof_C 	C 	0.65951	0.24011	0.01581	0.229
Mof_C 	C 	0.64986	0.22476	0.97706	-0.194
Mof_C 	C 	0.60784	0.21744	0.97504	0.074
Mof_C 	C 	0.5726	0.2242	0.0103	-0.113
Mof_C 	C 	0.71422	0.26412	0.05112	0.132
Mof_C 	C 	0.759	0.2816	0.0374	-0.235
Mof_C 	C 	0.79852	0.25642	0.05012	0.302
Mof_C 	C 	0.83788	0.27468	0.03798	-0.23
Mof_C 	C 	0.83841	0.31731	0.01111	0.284
Mof_C 	C 	0.80011	0.34001	0.99521	-0.235
Mof_C 	C 	0.75941	0.32311	0.00961	0.294
Mof_C 	C 	0.88354	0.24784	0.04964	0.132
Mof_C 	C 	0.93525	0.25645	0.09855	0.187
Mof_C 	C 	0.93967	0.27061	0.13925	-0.145
Mof_C 	C 	0.98166	0.27076	0.15036	0.012
Mof_C 	C 	0.02067	0.25717	0.12137	-0.1
Mof_C 	C 	0.0157	0.2423	0.0819	0.055
Mof_C 	C 	0.97427	0.24187	0.07027	-0.183
Mof_C 	C 	0.98505	0.28675	0.19395	0.276
Mof_C 	C 	0.80204	0.38124	0.96024	0.134
Mof_C 	C 	0.80234	0.46054	0.95534	0.235
Mof_C 	C 	0.80756	0.46756	0.90926	-0.192
Mof_C 	C 	0.8167	0.509	0.8846	0.03
Mof_C 	C 	0.81798	0.54418	0.90838	-0.116
Mof_C 	C 	0.81136	0.53606	0.95546	0.086
Mof_C 	C 	0.80372	0.49512	0.97842	-0.224
Mof_C 	C 	0.82095	0.51645	0.83525	0.259
Mof_C 	C 	0.7981	0.2108	0.0784	-0.653
Mof_C 	C 	0.88171	0.33881	0.99941	-0.632
Mof_C 	C 	0.71649	0.35069	0.99489	-0.649
Mof_C 	C 	0.12167	0.6517	0.15319	0.289
Mof_C 	C 	0.082	0.65202	0.12978	0.013
Mof_C 	C 	0.07388	0.61105	0.11974	-0.172
Mof_C 	C 	0.03711	0.61021	0.09852	0.218
Mof_C 	C 	0.00917	0.64951	0.08689	-0.201
Mof_C 	C 	0.01718	0.68978	0.09618	0.06
Mof_C 	C 	0.05393	0.69125	0.11769	-0.101
Mof_C 	C 	0.05607	0.53051	0.09779	0.134
Mof_C 	C 	0.04043	0.49404	0.07952	-0.221
Mof_C 	C 	0.00898	0.46832	0.10714	0.265
Mof_C 	C 	0.99774	0.43106	0.09162	-0.223
Mof_C 	C 	0.01582	0.42107	0.04858	0.282
Mof_C 	C 	0.04313	0.44971	0.01978	-0.222
Mof_C 	C 	0.05572	0.48578	0.03535	0.283
Mof_C 	C 	0.96376	0.40406	0.12056	0.135
Mof_C 	C 	0.88638	0.39696	0.11855	0.222
Mof_C 	C 	0.87939	0.37496	0.16212	-0.183
Mof_C 	C 	0.8374	0.36214	0.17865	0.018
Mof_C 	C 	0.80357	0.37042	0.15227	-0.105
Mof_C 	C 	0.81212	0.39032	0.10762	0.072
Mof_C 	C 	0.85281	0.40347	0.09113	-0.204
Mof_C 	C 	0.82804	0.34084	0.22638	0.281
Mof_C 	C 	0.05763	0.44288	0.97167	0.112
Mof_C 	C 	0.12207	0.40955	0.9252	0.21
Mof_C 	C 	0.16554	0.38479	0.92128	-0.161
Mof_C 	C 	0.18814	0.37716	0.87967	0.014
Mof_C 	C 	0.16906	0.39426	0.84106	-0.109
Mof_C 	C 	0.1262	0.4186	0.8444	0.059
Mof_C 	C 	0.10241	0.42601	0.88661	-0.196
Mof_C 	C 	0.23461	0.34949	0.87587	0.285
Mof_C 	C 	0.98767	0.48061	0.15345	-0.626
Mof_C 	C 	0.00491	0.38021	0.03321	-0.636
Mof_C 	C 	0.08514	0.51667	0.0036	-0.646
Mof_C 	C 	0.08683	0.54569	0.24505	0.268
Mof_C 	C 	0.04823	0.58273	0.23833	0.023
Mof_C 	C 	0.05059	0.62579	0.24589	-0.185
Mof_C 	C 	0.01581	0.65951	0.24011	0.229
Mof_C 	C 	0.97706	0.64986	0.22476	-0.194
Mof_C 	C 	0.97504	0.60784	0.21744	0.074
Mof_C 	C 	0.0103	0.5726	0.2242	-0.113
Mof_C 	C 	0.05112	0.71422	0.26412	0.132
Mof_C 	C 	0.0374	0.759	0.2816	-0.235
Mof_C 	C 	0.05012	0.79852	0.25642	0.302
Mof_C 	C 	0.03798	0.83788	0.27468	-0.23
Mof_C 	C 	0.01111	0.83841	0.31731	0.284
Mof_C 	C 	0.99521	0.80011	0.34001	-0.235
Mof_C 	C 	0.00961	0.75941	0.32311	0.294
Mof_C 	C 	0.04964	0.88354	0.24784	0.132
Mof_C 	C 	0.09855	0.93525	0.25645	0.187
Mof_C 	C 	0.13925	0.93967	0.27061	-0.145
Mof_C 	C 	0.15036	0.98166	0.27076	0.012
Mof_C 	C 	0.12137	0.02067	0.25717	-0.1
Mof_C 	C 	0.0819	0.0157	0.2423	0.055
Mof_C 	C 	0.07027	0.97427	0.24187	-0.183
Mof_C 	C 	0.19395	0.98505	0.28675	0.276
Mof_C 	C 	0.96024	0.80204	0.38124	0.134
Mof_C 	C 	0.95534	0.80234	0.46054	0.235
Mof_C 	C 	0.90926	0.80756	0.46756	-0.192
Mof_C 	C 	0.8846	0.8167	0.509	0.03
Mof_C 	C 	0.90838	0.81798	0.54418	-0.116
Mof_C 	C 	0.95546	0.81136	0.53606	0.086
Mof_C 	C 	0.97842	0.80372	0.49512	-0.224
Mof_C 	C 	0.83525	0.82095	0.51645	0.259
Mof_C 	C 	0.0784	0.7981	0.2108	-0.653
Mof_C 	C 	0.99941	0.88171	0.33881	-0.632
Mof_C 	C 	0.99489	0.71649	0.35069	-0.649
Mof_C 	C 	0.37833	0.34681	0.8483	0.289
Mof_C 	C 	0.418	0.37022	0.84798	0.013
Mof_C 	C 	0.42612	0.38026	0.88895	-0.173
Mof_C 	C 	0.46289	0.40148	0.88979	0.218
Mof_C 	C 	0.49083	0.41311	0.85049	-0.201
Mof_C 	C 	0.48282	0.40382	0.81022	0.06
Mof_C 	C 	0.44607	0.38231	0.80875	-0.101
Mof_C 	C 	0.44393	0.40221	0.96949	0.133
Mof_C 	C 	0.45957	0.42048	0.00596	-0.221
Mof_C 	C 	0.49102	0.39286	0.03168	0.264
Mof_C 	C 	0.50226	0.40838	0.06894	-0.223
Mof_C 	C 	0.48418	0.45142	0.07893	0.283
Mof_C 	C 	0.45687	0.48022	0.05029	-0.223
Mof_C 	C 	0.44428	0.46465	0.01422	0.283
Mof_C 	C 	0.53624	0.37944	0.09594	0.134
Mof_C 	C 	0.61362	0.38145	0.10304	0.222
Mof_C 	C 	0.62061	0.33788	0.12504	-0.183
Mof_C 	C 	0.6626	0.32135	0.13786	0.018
Mof_C 	C 	0.69643	0.34773	0.12958	-0.105
Mof_C 	C 	0.68788	0.39238	0.10968	0.072
Mof_C 	C 	0.64719	0.40887	0.09653	-0.204
Mof_C 	C 	0.67196	0.27362	0.15916	0.281
Mof_C 	C 	0.44237	0.52833	0.05712	0.113
Mof_C 	C 	0.37793	0.5748	0.09045	0.21
Mof_C 	C 	0.33446	0.57872	0.11521	-0.161
Mof_C 	C 	0.31186	0.62033	0.12284	0.014
Mof_C 	C 	0.33094	0.65894	0.10574	-0.109
Mof_C 	C 	0.3738	0.6556	0.0814	0.059
Mof_C 	C 	0.39759	0.61339	0.07399	-0.196
Mof_C 	C 	0.26539	0.62413	0.15051	0.285
Mof_C 	C 	0.51233	0.34655	0.01939	-0.624
Mof_C 	C 	0.49509	0.46679	0.11979	-0.639
Mof_C 	C 	0.41486	0.4964	0.98333	-0.648
Mof_C 	C 	0.41317	0.25495	0.95431	0.268
Mof_C 	C 	0.45177	0.26167	0.91727	0.023
Mof_C 	C 	0.44941	0.25411	0.87421	-0.185
Mof_C 	C 	0.48419	0.25989	0.84049	0.229
Mof_C 	C 	0.52294	0.27524	0.85014	-0.194
Mof_C 	C 	0.52496	0.28256	0.89216	0.074
Mof_C 	C 	0.4897	0.2758	0.9274	-0.114
Mof_C 	C 	0.44888	0.23588	0.78578	0.133
Mof_C 	C 	0.4626	0.2184	0.741	-0.235
Mof_C 	C 	0.44988	0.24358	0.70148	0.302
Mof_C 	C 	0.46202	0.22532	0.66212	-0.231
Mof_C 	C 	0.48889	0.18269	0.66159	0.284
Mof_C 	C 	0.50479	0.15999	0.69989	-0.236
Mof_C 	C 	0.49039	0.17689	0.74059	0.294
Mof_C 	C 	0.45036	0.25216	0.61646	0.132
Mof_C 	C 	0.40145	0.24355	0.56475	0.186
Mof_C 	C 	0.36075	0.22939	0.56033	-0.145
Mof_C 	C 	0.34964	0.22924	0.51834	0.013
Mof_C 	C 	0.37863	0.24283	0.47933	-0.1
Mof_C 	C 	0.4181	0.2577	0.4843	0.054
Mof_C 	C 	0.42973	0.25813	0.52573	-0.182
Mof_C 	C 	0.30605	0.21325	0.51495	0.276
Mof_C 	C 	0.53976	0.11876	0.69796	0.135
Mof_C 	C 	0.54466	0.03946	0.69766	0.235
Mof_C 	C 	0.59074	0.03244	0.69244	-0.192
Mof_C 	C 	0.6154	0.991	0.6833	0.031
Mof_C 	C 	0.59162	0.95582	0.68202	-0.116
Mof_C 	C 	0.54454	0.96394	0.68864	0.087
Mof_C 	C 	0.52158	0.00488	0.69628	-0.225
Mof_C 	C 	0.66475	0.98355	0.67905	0.259
Mof_C 	C 	0.4216	0.2892	0.7019	-0.653
Mof_C 	C 	0.50059	0.16119	0.61829	-0.633
Mof_C 	C 	0.50511	0.14931	0.78351	-0.65
Mof_C 	C 	0.34681	0.8483	0.37833	0.289
Mof_C 	C 	0.37022	0.84798	0.418	0.013
Mof_C 	C 	0.38026	0.88895	0.42612	-0.173
Mof_C 	C 	0.40148	0.88979	0.46289	0.218
Mof_C 	C 	0.41311	0.85049	0.49083	-0.201
Mof_C 	C 	0.40382	0.81022	0.48282	0.06
Mof_C 	C 	0.38231	0.80875	0.44607	-0.101
Mof_C 	C 	0.40221	0.96949	0.44393	0.133
Mof_C 	C 	0.42048	0.00596	0.45957	-0.221
Mof_C 	C 	0.39286	0.03168	0.49102	0.264
Mof_C 	C 	0.40838	0.06894	0.50226	-0.223
Mof_C 	C 	0.45142	0.07893	0.48418	0.283
Mof_C 	C 	0.48022	0.05029	0.45687	-0.223
Mof_C 	C 	0.46465	0.01422	0.44428	0.283
Mof_C 	C 	0.37944	0.09594	0.53624	0.134
Mof_C 	C 	0.38145	0.10304	0.61362	0.222
Mof_C 	C 	0.33788	0.12504	0.62061	-0.183
Mof_C 	C 	0.32135	0.13786	0.6626	0.018
Mof_C 	C 	0.34773	0.12958	0.69643	-0.105
Mof_C 	C 	0.39238	0.10968	0.68788	0.072
Mof_C 	C 	0.40887	0.09653	0.64719	-0.204
Mof_C 	C 	0.27362	0.15916	0.67196	0.281
Mof_C 	C 	0.52833	0.05712	0.44237	0.113
Mof_C 	C 	0.5748	0.09045	0.37793	0.21
Mof_C 	C 	0.57872	0.11521	0.33446	-0.161
Mof_C 	C 	0.62033	0.12284	0.31186	0.014
Mof_C 	C 	0.65894	0.10574	0.33094	-0.109
Mof_C 	C 	0.6556	0.0814	0.3738	0.059
Mof_C 	C 	0.61339	0.07399	0.39759	-0.196
Mof_C 	C 	0.62413	0.15051	0.26539	0.285
Mof_C 	C 	0.34655	0.01939	0.51233	-0.624
Mof_C 	C 	0.46679	0.11979	0.49509	-0.639
Mof_C 	C 	0.4964	0.98333	0.41486	-0.648
Mof_C 	C 	0.25495	0.95431	0.41317	0.268
Mof_C 	C 	0.26167	0.91727	0.45177	0.023
Mof_C 	C 	0.25411	0.87421	0.44941	-0.185
Mof_C 	C 	0.25989	0.84049	0.48419	0.229
Mof_C 	C 	0.27524	0.85014	0.52294	-0.194
Mof_C 	C 	0.28256	0.89216	0.52496	0.074
Mof_C 	C 	0.2758	0.9274	0.4897	-0.114
Mof_C 	C 	0.23588	0.78578	0.44888	0.133
Mof_C 	C 	0.2184	0.741	0.4626	-0.235
Mof_C 	C 	0.24358	0.70148	0.44988	0.302
Mof_C 	C 	0.22532	0.66212	0.46202	-0.231
Mof_C 	C 	0.18269	0.66159	0.48889	0.284
Mof_C 	C 	0.15999	0.69989	0.50479	-0.236
Mof_C 	C 	0.17689	0.74059	0.49039	0.294
Mof_C 	C 	0.25216	0.61646	0.45036	0.132
Mof_C 	C 	0.24355	0.56475	0.40145	0.186
Mof_C 	C 	0.22939	0.56033	0.36075	-0.145
Mof_C 	C 	0.22924	0.51834	0.34964	0.013
Mof_C 	C 	0.24283	0.47933	0.37863	-0.1
Mof_C 	C 	0.2577	0.4843	0.4181	0.054
Mof_C 	C 	0.25813	0.52573	0.42973	-0.182
Mof_C 	C 	0.21325	0.51495	0.30605	0.276
Mof_C 	C 	0.11876	0.69796	0.53976	0.135
Mof_C 	C 	0.03946	0.69766	0.54466	0.235
Mof_C 	C 	0.03244	0.69244	0.59074	-0.192
Mof_C 	C 	0.991	0.6833	0.6154	0.031
Mof_C 	C 	0.95582	0.68202	0.59162	-0.116
Mof_C 	C 	0.96394	0.68864	0.54454	0.087
Mof_C 	C 	0.00488	0.69628	0.52158	-0.225
Mof_C 	C 	0.98355	0.67905	0.66475	0.259
Mof_C 	C 	0.2892	0.7019	0.4216	-0.653
Mof_C 	C 	0.16119	0.61829	0.50059	-0.633
Mof_C 	C 	0.14931	0.78351	0.50511	-0.65
Mof_C 	C 	0.8483	0.37833	0.34681	0.289
Mof_C 	C 	0.84798	0.418	0.37022	0.013
Mof_C 	C 	0.88895	0.42612	0.38026	-0.173
Mof_C 	C 	0.88979	0.46289	0.40148	0.218
Mof_C 	C 	0.85049	0.49083	0.41311	-0.201
Mof_C 	C 	0.81022	0.48282	0.40382	0.06
Mof_C 	C 	0.80875	0.44607	0.38231	-0.101
Mof_C 	C 	0.96949	0.44393	0.40221	0.133
Mof_C 	C 	0.00596	0.45957	0.42048	-0.221
Mof_C 	C 	0.03168	0.49102	0.39286	0.264
Mof_C 	C 	0.06894	0.50226	0.40838	-0.223
Mof_C 	C 	0.07893	0.48418	0.45142	0.283
Mof_C 	C 	0.05029	0.45687	0.48022	-0.223
Mof_C 	C 	0.01422	0.44428	0.46465	0.283
Mof_C 	C 	0.09594	0.53624	0.37944	0.134
Mof_C 	C 	0.10304	0.61362	0.38145	0.222
Mof_C 	C 	0.12504	0.62061	0.33788	-0.183
Mof_C 	C 	0.13786	0.6626	0.32135	0.018
Mof_C 	C 	0.12958	0.69643	0.34773	-0.105
Mof_C 	C 	0.10968	0.68788	0.39238	0.072
Mof_C 	C 	0.09653	0.64719	0.40887	-0.204
Mof_C 	C 	0.15916	0.67196	0.27362	0.281
Mof_C 	C 	0.05712	0.44237	0.52833	0.113
Mof_C 	C 	0.09045	0.37793	0.5748	0.21
Mof_C 	C 	0.11521	0.33446	0.57872	-0.161
Mof_C 	C 	0.12284	0.31186	0.62033	0.014
Mof_C 	C 	0.10574	0.33094	0.65894	-0.109
Mof_C 	C 	0.0814	0.3738	0.6556	0.059
Mof_C 	C 	0.07399	0.39759	0.61339	-0.196
Mof_C 	C 	0.15051	0.26539	0.62413	0.285
Mof_C 	C 	0.01939	0.51233	0.34655	-0.624
Mof_C 	C 	0.11979	0.49509	0.46679	-0.639
Mof_C 	C 	0.98333	0.41486	0.4964	-0.648
Mof_C 	C 	0.95431	0.41317	0.25495	0.268
Mof_C 	C 	0.91727	0.45177	0.26167	0.023
Mof_C 	C 	0.87421	0.44941	0.25411	-0.185
Mof_C 	C 	0.84049	0.48419	0.25989	0.229
Mof_C 	C 	0.85014	0.52294	0.27524	-0.194
Mof_C 	C 	0.89216	0.52496	0.28256	0.074
Mof_C 	C 	0.9274	0.4897	0.2758	-0.114
Mof_C 	C 	0.78578	0.44888	0.23588	0.133
Mof_C 	C 	0.741	0.4626	0.2184	-0.235
Mof_C 	C 	0.70148	0.44988	0.24358	0.302
Mof_C 	C 	0.66212	0.46202	0.22532	-0.231
Mof_C 	C 	0.66159	0.48889	0.18269	0.284
Mof_C 	C 	0.69989	0.50479	0.15999	-0.236
Mof_C 	C 	0.74059	0.49039	0.17689	0.294
Mof_C 	C 	0.61646	0.45036	0.25216	0.132
Mof_C 	C 	0.56475	0.40145	0.24355	0.186
Mof_C 	C 	0.56033	0.36075	0.22939	-0.145
Mof_C 	C 	0.51834	0.34964	0.22924	0.013
Mof_C 	C 	0.47933	0.37863	0.24283	-0.1
Mof_C 	C 	0.4843	0.4181	0.2577	0.054
Mof_C 	C 	0.52573	0.42973	0.25813	-0.182
Mof_C 	C 	0.51495	0.30605	0.21325	0.276
Mof_C 	C 	0.69796	0.53976	0.11876	0.135
Mof_C 	C 	0.69766	0.54466	0.03946	0.235
Mof_C 	C 	0.69244	0.59074	0.03244	-0.192
Mof_C 	C 	0.6833	0.6154	0.991	0.031
Mof_C 	C 	0.68202	0.59162	0.95582	-0.116
Mof_C 	C 	0.68864	0.54454	0.96394	0.087
Mof_C 	C 	0.69628	0.52158	0.00488	-0.225
Mof_C 	C 	0.67905	0.66475	0.98355	0.259
Mof_C 	C 	0.7019	0.4216	0.2892	-0.653
Mof_C 	C 	0.61829	0.50059	0.16119	-0.633
Mof_C 	C 	0.78351	0.50511	0.14931	-0.65
Mof_O 	O 	0.83804	0.87248	0.31075	-0.293
Mof_O 	O 	0.83815	0.85423	0.38526	-0.285
Mof_O 	O 	0.9123	0.97331	0.42837	-0.267
Mof_O 	O 	0.90157	0.07531	0.58547	-0.271
Mof_O 	O 	0.75118	0.1416	0.67587	-0.288
Mof_O 	O 	0.75597	0.21282	0.6583	-0.284
Mof_O 	O 	0.03203	0.8979	0.58418	-0.252
Mof_O 	O 	0.08878	0.75239	0.67228	-0.271
Mof_O 	O 	0.16343	0.74403	0.64985	-0.293
Mof_O 	O 	0.76099	0.91667	0.49298	-0.291
Mof_O 	O 	0.74267	0.87884	0.44491	-0.283
Mof_O 	O 	0.75325	0.98625	0.29734	-0.259
Mof_O 	O 	0.73919	0.90936	0.11022	-0.24
Mof_O 	O 	0.69318	0.80638	0.98078	-0.27
Mof_O 	O 	0.71911	0.77404	0.04551	-0.264
Mof_O 	O 	0.57949	0.01779	0.20499	-0.268
Mof_O 	O 	0.44821	0.18561	0.16281	-0.256
Mof_O 	O 	0.51213	0.18629	0.1874	-0.264
Mof_O 	O 	0.31075	0.83804	0.87248	-0.293
Mof_O 	O 	0.38526	0.83815	0.85423	-0.285
Mof_O 	O 	0.42837	0.9123	0.97331	-0.267
Mof_O 	O 	0.58547	0.90157	0.07531	-0.271
Mof_O 	O 	0.67587	0.75118	0.1416	-0.288
Mof_O 	O 	0.6583	0.75597	0.21282	-0.284
Mof_O 	O 	0.58418	0.03203	0.8979	-0.252
Mof_O 	O 	0.67228	0.08878	0.75239	-0.271
Mof_O 	O 	0.64985	0.16343	0.74403	-0.293
Mof_O 	O 	0.49298	0.76099	0.91667	-0.291
Mof_O 	O 	0.44491	0.74267	0.87884	-0.283
Mof_O 	O 	0.29734	0.75325	0.98625	-0.259
Mof_O 	O 	0.11022	0.73919	0.90936	-0.24
Mof_O 	O 	0.98078	0.69318	0.80638	-0.27
Mof_O 	O 	0.04551	0.71911	0.77404	-0.264
Mof_O 	O 	0.20499	0.57949	0.01779	-0.268
Mof_O 	O 	0.16281	0.44821	0.18561	-0.256
Mof_O 	O 	0.1874	0.51213	0.18629	-0.264
Mof_O 	O 	0.87248	0.31075	0.83804	-0.293
Mof_O 	O 	0.85423	0.38526	0.83815	-0.285
Mof_O 	O 	0.97331	0.42837	0.9123	-0.267
Mof_O 	O 	0.07531	0.58547	0.90157	-0.271
Mof_O 	O 	0.1416	0.67587	0.75118	-0.288
Mof_O 	O 	0.21282	0.6583	0.75597	-0.284
Mof_O 	O 	0.8979	0.58418	0.03203	-0.252
Mof_O 	O 	0.75239	0.67228	0.08878	-0.271
Mof_O 	O 	0.74403	0.64985	0.16343	-0.293
Mof_O 	O 	0.91667	0.49298	0.76099	-0.291
Mof_O 	O 	0.87884	0.44491	0.74267	-0.283
Mof_O 	O 	0.98625	0.29734	0.75325	-0.259
Mof_O 	O 	0.90936	0.11022	0.73919	-0.24
Mof_O 	O 	0.80638	0.98078	0.69318	-0.27
Mof_O 	O 	0.77404	0.04551	0.71911	-0.264
Mof_O 	O 	0.01779	0.20499	0.57949	-0.268
Mof_O 	O 	0.18561	0.16281	0.44821	-0.256
Mof_O 	O 	0.18629	0.1874	0.51213	-0.264
Mof_O 	O 	0.62752	0.66196	0.18925	-0.293
Mof_O 	O 	0.64577	0.66185	0.11474	-0.285
Mof_O 	O 	0.52669	0.5877	0.07163	-0.267
Mof_O 	O 	0.42469	0.59843	0.91453	-0.271
Mof_O 	O 	0.3584	0.74882	0.82413	-0.288
Mof_O 	O 	0.28718	0.74403	0.8417	-0.284
Mof_O 	O 	0.6021	0.46797	0.91582	-0.252
Mof_O 	O 	0.74761	0.41122	0.82772	-0.271
Mof_O 	O 	0.75597	0.33657	0.85015	-0.293
Mof_O 	O 	0.58333	0.73901	0.00702	-0.291
Mof_O 	O 	0.62116	0.75733	0.05509	-0.283
Mof_O 	O 	0.51375	0.74675	0.20266	-0.259
Mof_O 	O 	0.59064	0.76081	0.38978	-0.24
Mof_O 	O 	0.69362	0.80682	0.51922	-0.27
Mof_O 	O 	0.72596	0.78089	0.45449	-0.264
Mof_O 	O 	0.48221	0.92051	0.29501	-0.268
Mof_O 	O 	0.31439	0.05179	0.33719	-0.256
Mof_O 	O 	0.31371	0.98787	0.3126	-0.264
Mof_O 	O 	0.66196	0.18925	0.62752	-0.293
Mof_O 	O 	0.66185	0.11474	0.64577	-0.285
Mof_O 	O 	0.5877	0.07163	0.52669	-0.267
Mof_O 	O 	0.59843	0.91453	0.42469	-0.271
Mof_O 	O 	0.74882	0.82413	0.3584	-0.288
Mof_O 	O 	0.74403	0.8417	0.28718	-0.284
Mof_O 	O 	0.46797	0.91582	0.6021	-0.252
Mof_O 	O 	0.41122	0.82772	0.74761	-0.271
Mof_O 	O 	0.33657	0.85015	0.75597	-0.293
Mof_O 	O 	0.73901	0.00702	0.58333	-0.291
Mof_O 	O 	0.75733	0.05509	0.62116	-0.283
Mof_O 	O 	0.74675	0.20266	0.51375	-0.259
Mof_O 	O 	0.76081	0.38978	0.59064	-0.24
Mof_O 	O 	0.80682	0.51922	0.69362	-0.27
Mof_O 	O 	0.78089	0.45449	0.72596	-0.264
Mof_O 	O 	0.92051	0.29501	0.48221	-0.268
Mof_O 	O 	0.05179	0.33719	0.31439	-0.256
Mof_O 	O 	0.98787	0.3126	0.31371	-0.264
Mof_O 	O 	0.18925	0.62752	0.66196	-0.293
Mof_O 	O 	0.11474	0.64577	0.66185	-0.285
Mof_O 	O 	0.07163	0.52669	0.5877	-0.267
Mof_O 	O 	0.91453	0.42469	0.59843	-0.271
Mof_O 	O 	0.82413	0.3584	0.74882	-0.288
Mof_O 	O 	0.8417	0.28718	0.74403	-0.284
Mof_O 	O 	0.91582	0.6021	0.46797	-0.252
Mof_O 	O 	0.82772	0.74761	0.41122	-0.271
Mof_O 	O 	0.85015	0.75597	0.33657	-0.293
Mof_O 	O 	0.00702	0.58333	0.73901	-0.291
Mof_O 	O 	0.05509	0.62116	0.75733	-0.283
Mof_O 	O 	0.20266	0.51375	0.74675	-0.259
Mof_O 	O 	0.38978	0.59064	0.76081	-0.24
Mof_O 	O 	0.51922	0.69362	0.80682	-0.27
Mof_O 	O 	0.45449	0.72596	0.78089	-0.264
Mof_O 	O 	0.29501	0.48221	0.92051	-0.268
Mof_O 	O 	0.33719	0.31439	0.05179	-0.256
Mof_O 	O 	0.3126	0.31371	0.98787	-0.264
Mof_O 	O 	0.16196	0.12752	0.68925	-0.293
Mof_O 	O 	0.16185	0.14577	0.61474	-0.285
Mof_O 	O 	0.0877	0.02669	0.57163	-0.267
Mof_O 	O 	0.09843	0.92469	0.41453	-0.271
Mof_O 	O 	0.24882	0.8584	0.32413	-0.288
Mof_O 	O 	0.24403	0.78718	0.3417	-0.284
Mof_O 	O 	0.96797	0.1021	0.41582	-0.252
Mof_O 	O 	0.91122	0.24761	0.32772	-0.271
Mof_O 	O 	0.83657	0.25597	0.35015	-0.293
Mof_O 	O 	0.23901	0.08333	0.50702	-0.291
Mof_O 	O 	0.25733	0.12116	0.55509	-0.283
Mof_O 	O 	0.24675	0.01375	0.70266	-0.259
Mof_O 	O 	0.26081	0.09064	0.88978	-0.24
Mof_O 	O 	0.30682	0.19362	0.01922	-0.27
Mof_O 	O 	0.28089	0.22596	0.95449	-0.264
Mof_O 	O 	0.42051	0.98221	0.79501	-0.268
Mof_O 	O 	0.55179	0.81439	0.83719	-0.256
Mof_O 	O 	0.48787	0.81371	0.8126	-0.264
Mof_O 	O 	0.68925	0.16196	0.12752	-0.293
Mof_O 	O 	0.61474	0.16185	0.14577	-0.285
Mof_O 	O 	0.57163	0.0877	0.02669	-0.267
Mof_O 	O 	0.41453	0.09843	0.92469	-0.271
Mof_O 	O 	0.32413	0.24882	0.8584	-0.288
Mof_O 	O 	0.3417	0.24403	0.78718	-0.284
Mof_O 	O 	0.41582	0.96797	0.1021	-0.252
Mof_O 	O 	0.32772	0.91122	0.24761	-0.271
Mof_O 	O 	0.35015	0.83657	0.25597	-0.293
Mof_O 	O 	0.50702	0.23901	0.08333	-0.291
Mof_O 	O 	0.55509	0.25733	0.12116	-0.283
Mof_O 	O 	0.70266	0.24675	0.01375	-0.259
Mof_O 	O 	0.88978	0.26081	0.09064	-0.24
Mof_O 	O 	0.01922	0.30682	0.19362	-0.27
Mof_O 	O 	0.95449	0.28089	0.22596	-0.264
Mof_O 	O 	0.79501	0.42051	0.98221	-0.268
Mof_O 	O 	0.83719	0.55179	0.81439	-0.256
Mof_O 	O 	0.8126	0.48787	0.81371	-0.264
Mof_O 	O 	0.12752	0.68925	0.16196	-0.293
Mof_O 	O 	0.14577	0.61474	0.16185	-0.285
Mof_O 	O 	0.02669	0.57163	0.0877	-0.267
Mof_O 	O 	0.92469	0.41453	0.09843	-0.271
Mof_O 	O 	0.8584	0.32413	0.24882	-0.288
Mof_O 	O 	0.78718	0.3417	0.24403	-0.284
Mof_O 	O 	0.1021	0.41582	0.96797	-0.252
Mof_O 	O 	0.24761	0.32772	0.91122	-0.271
Mof_O 	O 	0.25597	0.35015	0.83657	-0.293
Mof_O 	O 	0.08333	0.50702	0.23901	-0.291
Mof_O 	O 	0.12116	0.55509	0.25733	-0.283
Mof_O 	O 	0.01375	0.70266	0.24675	-0.259
Mof_O 	O 	0.09064	0.88978	0.26081	-0.24
Mof_O 	O 	0.19362	0.01922	0.30682	-0.27
Mof_O 	O 	0.22596	0.95449	0.28089	-0.264
Mof_O 	O 	0.98221	0.79501	0.42051	-0.268
Mof_O 	O 	0.81439	0.83719	0.55179	-0.256
Mof_O 	O 	0.81371	0.8126	0.48787	-0.264
Mof_O 	O 	0.37248	0.33804	0.81075	-0.293
Mof_O 	O 	0.35423	0.33815	0.88526	-0.285
Mof_O 	O 	0.47331	0.4123	0.92837	-0.267
Mof_O 	O 	0.57531	0.40157	0.08547	-0.271
Mof_O 	O 	0.6416	0.25118	0.17587	-0.288
Mof_O 	O 	0.71282	0.25597	0.1583	-0.284
Mof_O 	O 	0.3979	0.53203	0.08418	-0.252
Mof_O 	O 	0.25239	0.58878	0.17228	-0.271
Mof_O 	O 	0.24403	0.66343	0.14985	-0.293
Mof_O 	O 	0.41667	0.26099	0.99298	-0.291
Mof_O 	O 	0.37884	0.24267	0.94491	-0.283
Mof_O 	O 	0.48625	0.25325	0.79734	-0.259
Mof_O 	O 	0.40936	0.23919	0.61022	-0.24
Mof_O 	O 	0.30638	0.19318	0.48078	-0.27
Mof_O 	O 	0.27404	0.21911	0.54551	-0.264
Mof_O 	O 	0.51779	0.07949	0.70499	-0.268
Mof_O 	O 	0.68561	0.94821	0.66281	-0.256
Mof_O 	O 	0.68629	0.01213	0.6874	-0.264
Mof_O 	O 	0.33804	0.81075	0.37248	-0.293
Mof_O 	O 	0.33815	0.88526	0.35423	-0.285
Mof_O 	O 	0.4123	0.92837	0.47331	-0.267
Mof_O 	O 	0.40157	0.08547	0.57531	-0.271
Mof_O 	O 	0.25118	0.17587	0.6416	-0.288
Mof_O 	O 	0.25597	0.1583	0.71282	-0.284
Mof_O 	O 	0.53203	0.08418	0.3979	-0.252
Mof_O 	O 	0.58878	0.17228	0.25239	-0.271
Mof_O 	O 	0.66343	0.14985	0.24403	-0.293
Mof_O 	O 	0.26099	0.99298	0.41667	-0.291
Mof_O 	O 	0.24267	0.94491	0.37884	-0.283
Mof_O 	O 	0.25325	0.79734	0.48625	-0.259
Mof_O 	O 	0.23919	0.61022	0.40936	-0.24
Mof_O 	O 	0.19318	0.48078	0.30638	-0.27
Mof_O 	O 	0.21911	0.54551	0.27404	-0.264
Mof_O 	O 	0.07949	0.70499	0.51779	-0.268
Mof_O 	O 	0.94821	0.66281	0.68561	-0.256
Mof_O 	O 	0.01213	0.6874	0.68629	-0.264
Mof_O 	O 	0.81075	0.37248	0.33804	-0.293
Mof_O 	O 	0.88526	0.35423	0.33815	-0.285
Mof_O 	O 	0.92837	0.47331	0.4123	-0.267
Mof_O 	O 	0.08547	0.57531	0.40157	-0.271
Mof_O 	O 	0.17587	0.6416	0.25118	-0.288
Mof_O 	O 	0.1583	0.71282	0.25597	-0.284
Mof_O 	O 	0.08418	0.3979	0.53203	-0.252
Mof_O 	O 	0.17228	0.25239	0.58878	-0.271
Mof_O 	O 	0.14985	0.24403	0.66343	-0.293
Mof_O 	O 	0.99298	0.41667	0.26099	-0.291
Mof_O 	O 	0.94491	0.37884	0.24267	-0.283
Mof_O 	O 	0.79734	0.48625	0.25325	-0.259
Mof_O 	O 	0.61022	0.40936	0.23919	-0.24
Mof_O 	O 	0.48078	0.30638	0.19318	-0.27
Mof_O 	O 	0.54551	0.27404	0.21911	-0.264
Mof_O 	O 	0.70499	0.51779	0.07949	-0.268
Mof_O 	O 	0.66281	0.68561	0.94821	-0.256
Mof_O 	O 	0.6874	0.68629	0.01213	-0.264
_end
