data_functionalizedCrystal
_audit_creation_method	'EQeq! by Chris Wilmer'
_symmetry_space_group_name_H-M	'P1'
_symmetry_Int_Tables_number	1
_symmetry_cell_setting	triclinic
loop_
_symmetry_equiv_pos_as_xyz
  x,y,z
_cell_length_a	8.5173
_cell_length_b	9.7615
_cell_length_c	22.4055
_cell_angle_alpha	90
_cell_angle_beta	90
_cell_angle_gamma	92.285
loop_
_atom_site_label
_atom_site_type_symbol
_atom_site_fract_x
_atom_site_fract_y
_atom_site_fract_z
_atom_site_charge
Mof_Cd	Cd	0.6425	0.98226	0.34782	0.4
Mof_Cd	Cd	0.32982	0.72573	0.39793	0.447
Mof_Cd	Cd	0.3575	0.51774	0.84782	0.379
Mof_Cd	Cd	0.67018	0.77427	0.89793	0.458
Mof_Cd	Cd	0.3575	0.01774	0.65218	0.371
Mof_Cd	Cd	0.67018	0.27427	0.60207	0.454
Mof_Cd	Cd	0.6425	0.48226	0.15218	0.392
Mof_Cd	Cd	0.32982	0.22573	0.10207	0.444
Mof_Cd	Cd	9.88711e-20	0.5	0.5	0.395
Mof_Cd	Cd	-0	0	-0	0.372
Mof_H 	H 	0.9273	0.8155	0.4339	0.037
Mof_H 	H 	0.3819	0.026	0.2327	0.011
Mof_H 	H 	0.6901	0.3024	0.2836	0.007
Mof_H 	H 	0.6183	0.528	0.47	0.01
Mof_H 	H 	0.1267	0.1649	0.3642	0.4
Mof_H 	H 	0.3046	0.1951	0.3495	0.408
Mof_H 	H 	0.2477	0.1924	0.416	0.41
Mof_H 	H 	0.0727	0.6845	0.9339	0.013
Mof_H 	H 	0.6181	0.474	0.7327	0.017
Mof_H 	H 	0.3099	0.1976	0.7836	-0.003
Mof_H 	H 	0.3817	0.972	0.97	0.017
Mof_H 	H 	0.8733	0.3351	0.8642	0.442
Mof_H 	H 	0.6954	0.3049	0.8495	0.433
Mof_H 	H 	0.7523	0.3076	0.916	0.441
Mof_H 	H 	0.0727	0.1845	0.5661	0.009
Mof_H 	H 	0.6181	0.974	0.7673	0.019
Mof_H 	H 	0.3099	0.6976	0.7164	-0.001
Mof_H 	H 	0.3817	0.472	0.53	0.009
Mof_H 	H 	0.8733	0.8351	0.6358	0.45
Mof_H 	H 	0.6954	0.8049	0.6505	0.441
Mof_H 	H 	0.7523	0.8076	0.584	0.446
Mof_H 	H 	0.9273	0.3155	0.0661	0.036
Mof_H 	H 	0.3819	0.526	0.2673	0.014
Mof_H 	H 	0.6901	0.8024	0.2164	0.009
Mof_H 	H 	0.6183	0.028	0.03	0.004
Mof_H 	H 	0.1267	0.6649	0.1358	0.415
Mof_H 	H 	0.3046	0.6951	0.1505	0.422
Mof_H 	H 	0.2477	0.6924	0.084	0.421
Mof_C 	C 	0.8327	0.7649	0.4365	0.095
Mof_C 	C 	0.8307	0.2545	0.4148	0.111
Mof_C 	C 	0.6787	0.1412	0.4703	0.113
Mof_C 	C 	0.4443	0.1062	0.23462	0.091
Mof_C 	C 	0.6115	0.2555	0.2621	0.09
Mof_C 	C 	0.6654	0.6096	0.4562	0.098
Mof_C 	C 	0.2325	0.1521	0.3773	-1.213
Mof_C 	C 	0.2611	0.0017	0.3805	0.624
Mof_C 	C 	0.1673	0.7351	0.9365	0.092
Mof_C 	C 	0.1693	0.2455	0.9148	0.078
Mof_C 	C 	0.3213	0.3588	0.9703	0.128
Mof_C 	C 	0.5557	0.3938	0.73462	0.09
Mof_C 	C 	0.3885	0.2445	0.7621	0.087
Mof_C 	C 	0.3346	0.8904	0.9562	0.098
Mof_C 	C 	0.7675	0.3479	0.8773	-1.284
Mof_C 	C 	0.7389	0.4983	0.8805	0.672
Mof_C 	C 	0.1673	0.2351	0.5635	0.09
Mof_C 	C 	0.1693	0.7455	0.5852	0.08
Mof_C 	C 	0.3213	0.8588	0.5297	0.116
Mof_C 	C 	0.5557	0.8938	0.76538	0.09
Mof_C 	C 	0.3885	0.7445	0.7379	0.088
Mof_C 	C 	0.3346	0.3904	0.5438	0.095
Mof_C 	C 	0.7675	0.8479	0.6227	-1.307
Mof_C 	C 	0.7389	0.9983	0.6195	0.695
Mof_C 	C 	0.8327	0.2649	0.0635	0.092
Mof_C 	C 	0.8307	0.7545	0.0852	0.112
Mof_C 	C 	0.6787	0.6412	0.0297	0.102
Mof_C 	C 	0.4443	0.6062	0.26538	0.091
Mof_C 	C 	0.6115	0.7555	0.2379	0.091
Mof_C 	C 	0.6654	0.1096	0.0438	0.095
Mof_C 	C 	0.2325	0.6521	0.1227	-1.252
Mof_C 	C 	0.2611	0.5017	0.1195	0.659
Mof_N 	N 	0.5538	0.13	0.27676	-0.166
Mof_N 	N 	0.7289	0.1474	0.41399	-0.167
Mof_N 	N 	0.8184	0.642	0.46229	-0.141
Mof_N 	N 	0.8434	0.3131	0.46799	-0.104
Mof_N 	N 	0.6983	0.8074	0.41506	-0.111
Mof_N 	N 	0.5876	0.7063	0.42835	-0.115
Mof_N 	N 	0.434	0.2072	0.1965	-0.113
Mof_N 	N 	0.7442	0.2389	0.50445	-0.114
Mof_N 	N 	0.5449	0.3054	0.21392	-0.117
Mof_N 	N 	0.4462	0.37	0.77676	-0.166
Mof_N 	N 	0.2711	0.3526	0.91399	-0.166
Mof_N 	N 	0.1816	0.858	0.96229	-0.147
Mof_N 	N 	0.1566	0.1869	0.96799	-0.108
Mof_N 	N 	0.3017	0.6926	0.91506	-0.114
Mof_N 	N 	0.4124	0.7937	0.92835	-0.114
Mof_N 	N 	0.566	0.2928	0.6965	-0.112
Mof_N 	N 	0.2558	0.2611	0.00445	-0.132
Mof_N 	N 	0.4551	0.1946	0.71392	-0.12
Mof_N 	N 	0.4462	0.87	0.72324	-0.163
Mof_N 	N 	0.2711	0.8526	0.58601	-0.162
Mof_N 	N 	0.1816	0.358	0.53771	-0.155
Mof_N 	N 	0.1566	0.6869	0.53201	-0.115
Mof_N 	N 	0.3017	0.1926	0.58494	-0.115
Mof_N 	N 	0.4124	0.2937	0.57165	-0.116
Mof_N 	N 	0.566	0.7928	0.8035	-0.112
Mof_N 	N 	0.2558	0.7611	0.49555	-0.119
Mof_N 	N 	0.4551	0.6946	0.78608	-0.119
Mof_N 	N 	0.5538	0.63	0.22324	-0.164
Mof_N 	N 	0.7289	0.6474	0.08601	-0.163
Mof_N 	N 	0.8184	0.142	0.03771	-0.143
Mof_N 	N 	0.8434	0.8131	0.03201	-0.108
Mof_N 	N 	0.6983	0.3074	0.08494	-0.111
Mof_N 	N 	0.5876	0.2063	0.07165	-0.117
Mof_N 	N 	0.434	0.7072	0.3035	-0.113
Mof_N 	N 	0.7442	0.7389	0.99555	-0.1
Mof_N 	N 	0.5449	0.8054	0.28608	-0.116
Mof_Cl	Cl	0.15904	0.50857	0.3922	-0.419
Mof_Cl	Cl	0.84096	0.99143	0.8922	-0.373
Mof_Cl	Cl	0.84096	0.49143	0.6078	-0.384
Mof_Cl	Cl	0.15904	0.00857	0.1078	-0.427
Mof_O 	O 	0.1542	0.9153	0.36841	-0.372
Mof_O 	O 	0.3954	0.9647	0.39689	-0.386
Mof_O 	O 	0.8458	0.5847	0.86841	-0.367
Mof_O 	O 	0.6046	0.5353	0.89689	-0.402
Mof_O 	O 	0.8458	0.0847	0.63159	-0.379
Mof_O 	O 	0.6046	0.0353	0.60311	-0.415
Mof_O 	O 	0.1542	0.4153	0.13159	-0.39
Mof_O 	O 	0.3954	0.4647	0.10311	-0.404
_end
