data_functionalizedCrystal
_audit_creation_method	'EQeq! by Chris Wilmer'
_symmetry_space_group_name_H-M	'P1'
_symmetry_Int_Tables_number	1
_symmetry_cell_setting	triclinic
loop_
_symmetry_equiv_pos_as_xyz
  x,y,z
_cell_length_a	8.403
_cell_length_b	10.985
_cell_length_c	24.235
_cell_angle_alpha	90
_cell_angle_beta	90
_cell_angle_gamma	90
loop_
_atom_site_label
_atom_site_type_symbol
_atom_site_fract_x
_atom_site_fract_y
_atom_site_fract_z
_atom_site_charge
Mof_Ni	Ni	0.60223	0.11499	0.48555	1.089
Mof_O 	O 	0.6427	0.9497	0.44746	-0.385
Mof_O 	O 	0.86	0.8393	0.46401	-0.241
Mof_O 	O 	0.8419	0.15616	0.49065	-0.41
Mof_O 	O 	0.082	0.22645	0.46911	-0.4
Mof_O 	O 	0.1655	0.2657	0.27101	-0.148
Mof_O 	O 	0.1545	0.1003	0.22315	-0.149
Mof_N 	N 	0.1246	0.1587	0.2647	-0.017
Mof_N 	N 	0.5833	0.2005	0.40856	-0.266
Mof_N 	N 	0.8677	0.9788	0.05987	-0.261
Mof_C 	C 	0.8767	0.9892	0.39519	-0.086
Mof_C 	C 	0.9591	0.0977	0.40429	-0.037
Mof_C 	C 	0.0405	0.1518	0.36098	-0.097
Mof_H 	H 	0.0958	0.224	0.3667	0.086
Mof_C 	C 	0.0395	0.0993	0.31013	0.11
Mof_C 	C 	0.9577	0.9912	0.29966	-0.144
Mof_H 	H 	0.9582	0.9562	0.2647	0.1
Mof_C 	C 	0.8762	0.9379	0.34269	0.035
Mof_H 	H 	0.8198	0.8664	0.3365	0.032
Mof_C 	C 	0.7872	0.9213	0.44011	0.316
Mof_C 	C 	0.959	0.1629	0.45898	0.334
Mof_C 	C 	0.5157	0.1408	0.36683	0.164
Mof_H 	H 	0.4706	0.065	0.3738	-0.033
Mof_C 	C 	0.5095	0.1859	0.31406	-0.289
Mof_H 	H 	0.4599	0.1408	0.2865	0.143
Mof_C 	C 	0.5759	0.2968	0.3015	0.279
Mof_C 	C 	0.6484	0.3582	0.3444	-0.298
Mof_H 	H 	0.6974	0.4329	0.3382	0.146
Mof_C 	C 	0.6477	0.3077	0.39693	0.176
Mof_H 	H 	0.6949	0.3513	0.4255	-0.036
Mof_C 	C 	0.568	0.3526	0.24415	-0.429
Mof_H 	H 	0.6456	0.4178	0.242	0.164
Mof_H 	H 	0.4636	0.3885	0.2392	0.163
Mof_C 	C 	0.5986	0.2641	0.19649	0.219
Mof_H 	H 	0.517	0.2017	0.1966	-0.029
Mof_H 	H 	0.591	0.3079	0.1618	-0.026
Mof_C 	C 	0.7616	0.2039	0.20036	-0.447
Mof_H 	H 	0.842	0.2668	0.2036	0.176
Mof_H 	H 	0.7655	0.1552	0.2337	0.172
Mof_C 	C 	0.7632	0.9453	0.09815	0.181
Mof_H 	H 	0.7111	0.8713	0.0937	-0.021
Mof_C 	C 	0.7278	0.0142	0.144	-0.297
Mof_H 	H 	0.6538	0.9861	0.1695	0.141
Mof_C 	C 	0.8017	0.1243	0.15209	0.304
Mof_C 	C 	0.9106	0.1584	0.11321	-0.293
Mof_H 	H 	0.9652	0.2315	0.1171	0.154
Mof_C 	C 	0.9396	0.0851	0.06837	0.176
Mof_H 	H 	0.0138	0.1113	0.0425	-0.018
Mof_Ni	Ni	0.89777	0.88501	0.98555	1.088
Mof_O 	O 	0.8573	0.0503	0.94746	-0.387
Mof_O 	O 	0.64	0.1607	0.96401	-0.242
Mof_O 	O 	0.6581	0.84384	0.99065	-0.41
Mof_O 	O 	0.418	0.77355	0.96911	-0.4
Mof_O 	O 	0.3345	0.7343	0.77101	-0.148
Mof_O 	O 	0.3455	0.8997	0.72315	-0.149
Mof_N 	N 	0.3754	0.8413	0.7647	-0.017
Mof_N 	N 	0.9167	0.7995	0.90856	-0.266
Mof_N 	N 	0.6323	0.0212	0.55987	-0.262
Mof_C 	C 	0.6233	0.0108	0.89519	-0.087
Mof_C 	C 	0.5409	0.9023	0.90429	-0.036
Mof_C 	C 	0.4595	0.8482	0.86098	-0.098
Mof_H 	H 	0.4042	0.776	0.8667	0.087
Mof_C 	C 	0.4605	0.9007	0.81013	0.11
Mof_C 	C 	0.5423	0.0088	0.79966	-0.145
Mof_H 	H 	0.5418	0.0438	0.7647	0.101
Mof_C 	C 	0.6238	0.0621	0.84269	0.036
Mof_H 	H 	0.6802	0.1336	0.8365	0.032
Mof_C 	C 	0.7128	0.0787	0.94011	0.316
Mof_C 	C 	0.541	0.8371	0.95898	0.334
Mof_C 	C 	0.9843	0.8592	0.86683	0.164
Mof_H 	H 	0.0294	0.935	0.8738	-0.033
Mof_C 	C 	0.9905	0.8141	0.81406	-0.287
Mof_H 	H 	0.0401	0.8592	0.7865	0.142
Mof_C 	C 	0.9241	0.7032	0.8015	0.277
Mof_C 	C 	0.8516	0.6418	0.8444	-0.297
Mof_H 	H 	0.8026	0.5671	0.8382	0.146
Mof_C 	C 	0.8523	0.6923	0.89693	0.175
Mof_H 	H 	0.8051	0.6487	0.9255	-0.036
Mof_C 	C 	0.932	0.6474	0.74415	-0.427
Mof_H 	H 	0.8544	0.5822	0.742	0.163
Mof_H 	H 	0.0364	0.6115	0.7392	0.162
Mof_C 	C 	0.9014	0.7359	0.69649	0.217
Mof_H 	H 	0.983	0.7983	0.6966	-0.028
Mof_H 	H 	0.909	0.6921	0.6618	-0.026
Mof_C 	C 	0.7384	0.7961	0.70036	-0.445
Mof_H 	H 	0.658	0.7332	0.7036	0.175
Mof_H 	H 	0.7345	0.8448	0.7337	0.172
Mof_C 	C 	0.7368	0.0547	0.59815	0.177
Mof_H 	H 	0.7889	0.1287	0.5937	-0.02
Mof_C 	C 	0.7722	0.9858	0.644	-0.291
Mof_H 	H 	0.8462	0.0139	0.6695	0.139
Mof_C 	C 	0.6983	0.8757	0.65209	0.302
Mof_C 	C 	0.5894	0.8416	0.61321	-0.293
Mof_H 	H 	0.5348	0.7685	0.6171	0.154
Mof_C 	C 	0.5604	0.9149	0.56837	0.178
Mof_H 	H 	0.4862	0.8887	0.5425	-0.02
Mof_Ni	Ni	0.39777	0.61499	0.01445	1.088
Mof_O 	O 	0.3573	0.4497	0.05254	-0.387
Mof_O 	O 	0.14	0.3393	0.03599	-0.242
Mof_O 	O 	0.1581	0.65616	0.00935	-0.41
Mof_O 	O 	0.918	0.72645	0.03089	-0.399
Mof_O 	O 	0.8345	0.7657	0.22899	-0.148
Mof_O 	O 	0.8455	0.6003	0.27685	-0.149
Mof_N 	N 	0.8754	0.6587	0.2353	-0.018
Mof_N 	N 	0.4167	0.7005	0.09144	-0.266
Mof_N 	N 	0.1323	0.4788	0.44013	-0.262
Mof_C 	C 	0.1233	0.4892	0.10481	-0.089
Mof_C 	C 	0.0409	0.5977	0.09571	-0.034
Mof_C 	C 	0.9595	0.6518	0.13902	-0.099
Mof_H 	H 	0.9042	0.724	0.1333	0.087
Mof_C 	C 	0.9605	0.5993	0.18987	0.112
Mof_C 	C 	0.0423	0.4912	0.20034	-0.147
Mof_H 	H 	0.0418	0.4562	0.2353	0.101
Mof_C 	C 	0.1238	0.4379	0.15731	0.038
Mof_H 	H 	0.1802	0.3664	0.1635	0.031
Mof_C 	C 	0.2128	0.4213	0.05989	0.317
Mof_C 	C 	0.041	0.6629	0.04102	0.333
Mof_C 	C 	0.4843	0.6408	0.13317	0.164
Mof_H 	H 	0.5294	0.565	0.1262	-0.033
Mof_C 	C 	0.4905	0.6859	0.18594	-0.288
Mof_H 	H 	0.5401	0.6408	0.2135	0.143
Mof_C 	C 	0.4241	0.7968	0.1985	0.278
Mof_C 	C 	0.3516	0.8582	0.1556	-0.298
Mof_H 	H 	0.3026	0.9329	0.1618	0.146
Mof_C 	C 	0.3523	0.8077	0.10307	0.176
Mof_H 	H 	0.3051	0.8513	0.0745	-0.036
Mof_C 	C 	0.432	0.8526	0.25585	-0.428
Mof_H 	H 	0.3544	0.9178	0.258	0.163
Mof_H 	H 	0.5364	0.8885	0.2608	0.163
Mof_C 	C 	0.4014	0.7641	0.30351	0.218
Mof_H 	H 	0.483	0.7017	0.3034	-0.029
Mof_H 	H 	0.409	0.8079	0.3382	-0.026
Mof_C 	C 	0.2384	0.7039	0.29964	-0.447
Mof_H 	H 	0.158	0.7668	0.2964	0.175
Mof_H 	H 	0.2345	0.6552	0.2663	0.172
Mof_C 	C 	0.2368	0.4453	0.40185	0.181
Mof_H 	H 	0.2889	0.3713	0.4063	-0.021
Mof_C 	C 	0.2722	0.5142	0.356	-0.296
Mof_H 	H 	0.3462	0.4861	0.3305	0.141
Mof_C 	C 	0.1983	0.6243	0.34791	0.304
Mof_C 	C 	0.0894	0.6584	0.38679	-0.293
Mof_H 	H 	0.0348	0.7315	0.3829	0.153
Mof_C 	C 	0.0604	0.5851	0.43163	0.176
Mof_H 	H 	0.9862	0.6113	0.4575	-0.018
Mof_Ni	Ni	0.10223	0.38501	0.51445	1.088
Mof_O 	O 	0.1427	0.5503	0.55254	-0.387
Mof_O 	O 	0.36	0.6607	0.53599	-0.242
Mof_O 	O 	0.3419	0.34384	0.50935	-0.41
Mof_O 	O 	0.582	0.27355	0.53089	-0.4
Mof_O 	O 	0.6655	0.2343	0.72899	-0.148
Mof_O 	O 	0.6545	0.3997	0.77685	-0.149
Mof_N 	N 	0.6246	0.3413	0.7353	-0.018
Mof_N 	N 	0.0833	0.2995	0.59144	-0.266
Mof_N 	N 	0.3677	0.5212	0.94013	-0.262
Mof_C 	C 	0.3767	0.5108	0.60481	-0.089
Mof_C 	C 	0.4591	0.4023	0.59571	-0.034
Mof_C 	C 	0.5405	0.3482	0.63902	-0.099
Mof_H 	H 	0.5958	0.276	0.6333	0.087
Mof_C 	C 	0.5395	0.4007	0.68987	0.112
Mof_C 	C 	0.4577	0.5088	0.70034	-0.147
Mof_H 	H 	0.4582	0.5438	0.7353	0.101
Mof_C 	C 	0.3762	0.5621	0.65731	0.037
Mof_H 	H 	0.3198	0.6336	0.6635	0.031
Mof_C 	C 	0.2872	0.5787	0.55989	0.317
Mof_C 	C 	0.459	0.3371	0.54102	0.334
Mof_C 	C 	0.0157	0.3592	0.63317	0.162
Mof_H 	H 	0.9706	0.435	0.6262	-0.032
Mof_C 	C 	0.0095	0.3141	0.68594	-0.286
Mof_H 	H 	0.9599	0.3592	0.7135	0.142
Mof_C 	C 	0.0759	0.2032	0.6985	0.277
Mof_C 	C 	0.1484	0.1418	0.6556	-0.296
Mof_H 	H 	0.1974	0.0671	0.6618	0.146
Mof_C 	C 	0.1477	0.1923	0.60307	0.175
Mof_H 	H 	0.1949	0.1487	0.5745	-0.035
Mof_C 	C 	0.068	0.1474	0.75585	-0.424
Mof_H 	H 	0.1456	0.0822	0.758	0.163
Mof_H 	H 	0.9636	0.1115	0.7608	0.161
Mof_C 	C 	0.0986	0.2359	0.80351	0.216
Mof_H 	H 	0.017	0.2983	0.8034	-0.028
Mof_H 	H 	0.091	0.1921	0.8382	-0.025
Mof_C 	C 	0.2616	0.2961	0.79964	-0.446
Mof_H 	H 	0.342	0.2332	0.7964	0.176
Mof_H 	H 	0.2655	0.3448	0.7663	0.172
Mof_C 	C 	0.2632	0.5547	0.90185	0.181
Mof_H 	H 	0.2111	0.6287	0.9063	-0.021
Mof_C 	C 	0.2278	0.4858	0.856	-0.297
Mof_H 	H 	0.1538	0.5139	0.8305	0.141
Mof_C 	C 	0.3017	0.3757	0.84791	0.305
Mof_C 	C 	0.4106	0.3416	0.88679	-0.294
Mof_H 	H 	0.4652	0.2685	0.8829	0.155
Mof_C 	C 	0.4396	0.4149	0.93163	0.178
Mof_H 	H 	0.5138	0.3887	0.9575	-0.019
_end
