data_functionalizedCrystal
_audit_creation_method	'EQeq! by Chris Wilmer'
_symmetry_space_group_name_H-M	'P1'
_symmetry_Int_Tables_number	1
_symmetry_cell_setting	triclinic
loop_
_symmetry_equiv_pos_as_xyz
  x,y,z
_cell_length_a	33.48
_cell_length_b	33.48
_cell_length_c	105.59
_cell_angle_alpha	90
_cell_angle_beta	90
_cell_angle_gamma	120
loop_
_atom_site_label
_atom_site_type_symbol
_atom_site_fract_x
_atom_site_fract_y
_atom_site_fract_z
_atom_site_charge
Mof_Zn	Zn	0.77898	0.40121	0.03962	1.228
Mof_O 	O 	0.7222	0.3817	0.03097	-0.673
Mof_O 	O 	0.8257	0.4185	0.02634	-0.469
Mof_O 	O 	0.7964	0.4551	0.04914	-0.483
Mof_O 	O 	0.784	0.3594	0.05005	-0.514
Mof_Zn	Zn	0.7391	0.4417	0.0234	1.231
Mof_C 	C 	0.8223	0.4413	0.01729	0.376
Mof_C 	C 	0.7857	0.4865	0.04567	0.333
Mof_O 	O 	0.7958	0.4559	0.01466	-0.489
Mof_O 	O 	0.7597	0.4855	0.03682	-0.484
Mof_O 	O 	0.7089	0.4609	0.01148	-0.508
Mof_O 	O 	0.6793	0.3879	0.05389	-0.492
Mof_C 	C 	0.8594	0.4508	0.00707	-0.105
Mof_C 	C 	0.8047	0.5281	0.05462	-0.09
Mof_C 	C 	0.8618	0.4749	0.99556	0.052
Mof_C 	C 	0.8915	0.4382	0.00822	0.057
Mof_C 	C 	0.833	0.5336	0.06569	0.03
Mof_C 	C 	0.8012	0.5657	0.05127	0.031
Mof_C 	C 	0.8942	0.4836	0.98717	-0.127
Mof_H 	H 	0.84	0.4845	0.994	0.028
Mof_H 	H 	0.8908	0.4219	0.0157	0.034
Mof_C 	C 	0.9256	0.447	0.9994	-0.136
Mof_C 	C 	0.8518	0.5731	0.07317	-0.119
Mof_H 	H 	0.8388	0.5094	0.0679	0.03
Mof_H 	H 	0.7872	0.566	0.0435	0.037
Mof_C 	C 	0.8188	0.605	0.05963	-0.12
Mof_C 	C 	0.9268	0.4691	0.98817	0.092
Mof_H 	H 	0.8957	0.5011	0.9799	0.086
Mof_H 	H 	0.9479	0.438	0.001	0.076
Mof_C 	C 	0.8435	0.6079	0.07022	0.088
Mof_H 	H 	0.8703	0.5758	0.0803	0.081
Mof_H 	H 	0.8131	0.6294	0.0577	0.069
Mof_C 	C 	0.9603	0.4751	0.97818	-0.045
Mof_C 	C 	0.8588	0.6498	0.07836	-0.036
Mof_H 	H 	0.9921	0.4941	0.9814	0.05
Mof_H 	H 	0.9559	0.4446	0.9757	0.056
Mof_O 	O 	0.9539	0.4965	0.96774	-0.197
Mof_H 	H 	0.8757	0.6781	0.0732	0.043
Mof_H 	H 	0.8317	0.6496	0.0822	0.052
Mof_O 	O 	0.8875	0.6489	0.08787	-0.213
Mof_C 	C 	0.9903	0.5177	0.95921	0.105
Mof_C 	C 	0.9077	0.6855	0.09548	0.137
Mof_C 	C 	0.0245	0.5055	0.95893	-0.076
Mof_C 	C 	0.9818	0.5381	0.94822	0.015
Mof_C 	C 	0.8968	0.7196	0.09558	-0.112
Mof_C 	C 	0.9312	0.68	0.10635	-0.014
Mof_H 	H 	0.0235	0.4829	0.9646	0.064
Mof_C 	C 	0.0603	0.5272	0.95016	-0.089
Mof_C 	C 	0.0169	0.5582	0.93991	-0.043
Mof_C 	C 	0.9438	0.5469	0.9458	-0.094
Mof_C 	C 	0.9184	0.7554	0.105	-0.051
Mof_H 	H 	0.8757	0.7198	0.0896	0.075
Mof_C 	C 	0.9526	0.7141	0.11521	-0.014
Mof_C 	C 	0.9434	0.6436	0.10815	-0.075
Mof_H 	H 	0.0879	0.5259	0.9511	0.066
Mof_C 	C 	0.0544	0.5515	0.93969	0.144
Mof_C 	C 	0.0086	0.588	0.93026	-0.048
Mof_H 	H 	0.9182	0.5313	0.9521	0.065
Mof_C 	C 	0.929	0.5338	0.9335	0.046
Mof_C 	C 	0.9665	0.5976	0.9465	0.044
Mof_C 	C 	0.9455	0.7498	0.1154	0.095
Mof_H 	H 	0.9154	0.7821	0.1046	0.053
Mof_C 	C 	0.9826	0.7112	0.12437	-0.059
Mof_H 	H 	0.9287	0.6184	0.1017	0.064
Mof_C 	C 	0.9921	0.6639	0.10855	0.045
Mof_C 	C 	0.9251	0.6268	0.12191	0.03
Mof_O 	O 	0.0866	0.5725	0.93094	-0.227
Mof_H 	H 	0.0338	0.6035	0.9238	0.052
Mof_C 	C 	0.9618	0.5532	0.9245	0.006
Mof_C 	C 	0.0002	0.6201	0.9376	0.012
Mof_C 	C 	0.8846	0.5037	0.9294	-0.083
Mof_C 	C 	0.9542	0.6233	0.9545	-0.086
Mof_O 	O 	0.9626	0.7869	0.12418	-0.191
Mof_H 	H 	0.9988	0.7388	0.13	0.058
Mof_C 	C 	0.0137	0.6999	0.11726	0.013
Mof_C 	C 	0.9477	0.666	0.13138	0.019
Mof_C 	C 	0.0201	0.6522	0.10137	-0.088
Mof_C 	C 	0.8952	0.5823	0.12564	-0.077
Mof_C 	C 	0.12	0.5645	0.93005	0.015
Mof_C 	C 	0.9493	0.5407	0.9105	-0.068
Mof_C 	C 	0.0237	0.6629	0.93583	-0.056
Mof_C 	C 	0.8777	0.4917	0.914	-0.042
Mof_H 	H 	0.8593	0.4906	0.9351	0.055
Mof_C 	C 	0.9782	0.6686	0.9536	-0.007
Mof_H 	H 	0.9295	0.6085	0.9604	0.059
Mof_C 	C 	0.9445	0.8157	0.12557	-0.057
Mof_C 	C 	0.0586	0.7217	0.1186	-0.064
Mof_C 	C 	0.9368	0.6555	0.14378	-0.069
Mof_H 	H 	0.0055	0.6265	0.0958	0.067
Mof_C 	C 	0.0667	0.6753	0.1019	-0.015
Mof_H 	H 	0.8812	0.5579	0.1197	0.062
Mof_C 	C 	0.8861	0.5744	0.13864	-0.026
Mof_H 	H 	0.1069	0.5309	0.9289	0.038
Mof_H 	H 	0.1368	0.5729	0.9382	0.037
Mof_C 	C 	0.1543	0.589	0.91969	0.083
Mof_H 	H 	0.9725	0.555	0.9042	0.049
Mof_C 	C 	0.9058	0.5096	0.907	-0.017
Mof_H 	H 	0.0478	0.675	0.9297	0.047
Mof_C 	C 	0.0139	0.6937	0.943	-0.051
Mof_H 	H 	0.8483	0.4685	0.9111	0.041
Mof_H 	H 	0.9733	0.6865	0.9597	0.033
Mof_H 	H 	0.9104	0.7974	0.126	0.059
Mof_H 	H 	0.9532	0.837	0.1183	0.051
Mof_C 	C 	0.9634	0.8418	0.1373	0.111
Mof_C 	C 	0.0844	0.7081	0.1112	-0.035
Mof_H 	H 	0.0734	0.7465	0.1244	0.051
Mof_C 	C 	0.9057	0.6132	0.14751	-0.031
Mof_H 	H 	0.9518	0.679	0.15	0.052
Mof_H 	H 	0.0854	0.6694	0.0963	0.035
Mof_H 	H 	0.8673	0.5439	0.1417	0.042
Mof_C 	C 	0.1428	0.6103	0.91042	-0.122
Mof_C 	C 	0.1979	0.5922	0.91853	-0.146
Mof_H 	H 	0.8992	0.5029	0.8983	0.031
Mof_H 	H 	0.028	0.7259	0.9414	0.044
Mof_C 	C 	0.9527	0.877	0.1412	-0.161
Mof_C 	C 	0.9852	0.8314	0.1458	-0.135
Mof_H 	H 	0.1166	0.7226	0.1128	0.04
Mof_H 	H 	0.896	0.6081	0.1561	0.042
Mof_H 	H 	0.114	0.6092	0.911	0.087
Mof_C 	C 	0.1714	0.6335	0.90009	0.071
Mof_C 	C 	0.2248	0.6146	0.90838	0.098
Mof_H 	H 	0.2083	0.579	0.9248	0.083
Mof_H 	H 	0.9358	0.8865	0.136	0.083
Mof_C 	C 	0.969	0.896	0.15328	0.114
Mof_C 	C 	0.0073	0.8584	0.15779	0.068
Mof_H 	H 	0.9874	0.8045	0.1444	0.092
Mof_H 	H 	0.1618	0.6467	0.8937	0.026
Mof_C 	C 	0.2153	0.6366	0.89959	-0.16
Mof_H 	H 	0.2529	0.6143	0.9075	0.011
Mof_H 	H 	0.9598	0.9172	0.156	0.013
Mof_C 	C 	0.9942	0.8897	0.16117	-0.183
Mof_H 	H 	0.0287	0.854	0.1626	0.024
Mof_C 	C 	0.2473	0.6635	0.8892	0.424
Mof_C 	C 	0.0154	0.9184	0.1719	0.437
Mof_O 	O 	0.9934	0.9365	0.17579	-0.339
Mof_Zn	Zn	0.44565	0.73454	0.37295	1.227
Mof_O 	O 	0.38887	0.71503	0.3643	-0.674
Mof_O 	O 	0.49237	0.75183	0.35967	-0.47
Mof_O 	O 	0.46307	0.78843	0.38247	-0.484
Mof_O 	O 	0.45067	0.69273	0.38338	-0.515
Mof_Zn	Zn	0.40577	0.77503	0.35673	1.23
Mof_C 	C 	0.48897	0.77463	0.35062	0.375
Mof_C 	C 	0.45237	0.81983	0.379	0.332
Mof_O 	O 	0.46247	0.78923	0.34799	-0.49
Mof_O 	O 	0.42637	0.81883	0.37015	-0.484
Mof_O 	O 	0.37557	0.79423	0.34481	-0.509
Mof_O 	O 	0.34597	0.72123	0.38722	-0.493
Mof_C 	C 	0.52607	0.78413	0.3404	-0.106
Mof_C 	C 	0.47137	0.86143	0.38795	-0.09
Mof_C 	C 	0.52847	0.80823	0.32889	0.05
Mof_C 	C 	0.55817	0.77153	0.34155	0.055
Mof_C 	C 	0.49967	0.86693	0.39902	0.028
Mof_C 	C 	0.46787	0.89903	0.3846	0.029
Mof_C 	C 	0.56087	0.81693	0.3205	-0.128
Mof_H 	H 	0.50667	0.81783	0.32733	0.027
Mof_H 	H 	0.55747	0.75523	0.34903	0.033
Mof_C 	C 	0.59227	0.78033	0.33273	-0.136
Mof_C 	C 	0.51847	0.90643	0.4065	-0.117
Mof_H 	H 	0.50547	0.84273	0.40123	0.029
Mof_H 	H 	0.45387	0.89933	0.37683	0.037
Mof_C 	C 	0.48547	0.93833	0.39296	-0.118
Mof_C 	C 	0.59347	0.80243	0.3215	0.09
Mof_H 	H 	0.56237	0.83443	0.31323	0.084
Mof_H 	H 	0.61457	0.77133	0.33433	0.074
Mof_C 	C 	0.51017	0.94123	0.40355	0.084
Mof_H 	H 	0.53697	0.90913	0.41363	0.079
Mof_H 	H 	0.47977	0.96273	0.39103	0.068
Mof_C 	C 	0.62697	0.80843	0.31151	-0.045
Mof_C 	C 	0.52547	0.98313	0.41169	-0.027
Mof_H 	H 	0.65877	0.82743	0.31473	0.047
Mof_H 	H 	0.62257	0.77793	0.30903	0.054
Mof_O 	O 	0.62057	0.82983	0.30107	-0.196
Mof_H 	H 	0.54237	0.01143	0.40653	0.036
Mof_H 	H 	0.49837	0.98293	0.41553	0.051
Mof_O 	O 	0.55417	0.98223	0.4212	-0.212
Mof_C 	C 	0.65697	0.85103	0.29254	0.101
Mof_C 	C 	0.57437	0.01883	0.42881	0.138
Mof_C 	C 	0.69117	0.83883	0.29226	-0.069
Mof_C 	C 	0.64847	0.87143	0.28155	0.009
Mof_C 	C 	0.56347	0.05293	0.42891	-0.115
Mof_C 	C 	0.59787	0.01333	0.43968	-0.027
Mof_H 	H 	0.69017	0.81623	0.29793	0.063
Mof_C 	C 	0.72697	0.86053	0.28349	-0.09
Mof_C 	C 	0.68357	0.89153	0.27324	-0.038
Mof_C 	C 	0.61047	0.88023	0.27913	-0.089
Mof_C 	C 	0.58507	0.08873	0.43833	-0.048
Mof_H 	H 	0.54237	0.05313	0.42293	0.075
Mof_C 	C 	0.61927	0.04743	0.44854	-0.004
Mof_C 	C 	0.61007	0.97693	0.44148	-0.054
Mof_H 	H 	0.75457	0.85923	0.28443	0.067
Mof_C 	C 	0.72107	0.88483	0.27302	0.144
Mof_C 	C 	0.67527	0.92133	0.26359	-0.046
Mof_H 	H 	0.58487	0.86463	0.28543	0.064
Mof_C 	C 	0.59567	0.86713	0.26683	0.045
Mof_C 	C 	0.63317	0.93093	0.27983	0.035
Mof_C 	C 	0.61217	0.08313	0.44873	0.09
Mof_H 	H 	0.58207	0.11543	0.43793	0.051
Mof_C 	C 	0.64927	0.04453	0.4577	-0.081
Mof_H 	H 	0.59537	0.95173	0.43503	0.058
Mof_C 	C 	0.65877	0.99723	0.44188	0.018
Mof_C 	C 	0.59177	0.96013	0.45524	0.024
Mof_O 	O 	0.75327	0.90583	0.26427	-0.226
Mof_H 	H 	0.70047	0.93683	0.25713	0.052
Mof_C 	C 	0.62847	0.88653	0.25783	0.002
Mof_C 	C 	0.66687	0.95343	0.27093	0.016
Mof_C 	C 	0.55127	0.83703	0.26273	-0.083
Mof_C 	C 	0.62087	0.95663	0.28783	-0.071
Mof_O 	O 	0.62927	0.12023	0.45751	-0.189
Mof_H 	H 	0.66547	0.07213	0.46333	0.062
Mof_C 	C 	0.68037	0.03323	0.45059	0.039
Mof_C 	C 	0.61437	0.99933	0.46471	0.026
Mof_C 	C 	0.68677	0.98553	0.4347	-0.051
Mof_C 	C 	0.56187	0.91563	0.45897	-0.073
Mof_C 	C 	0.78667	0.89783	0.26338	0.015
Mof_C 	C 	0.61597	0.87403	0.24383	-0.066
Mof_C 	C 	0.69037	0.99623	0.26916	-0.045
Mof_C 	C 	0.54437	0.82503	0.24733	-0.04
Mof_H 	H 	0.52597	0.82393	0.26843	0.056
Mof_C 	C 	0.64487	0.00193	0.28693	-0.024
Mof_H 	H 	0.59617	0.94183	0.29373	0.055
Mof_C 	C 	0.61117	0.14903	0.4589	-0.065
Mof_C 	C 	0.72527	0.05503	0.45193	-0.09
Mof_C 	C 	0.60347	0.98883	0.47711	-0.064
Mof_H 	H 	0.67217	0.95983	0.42913	0.058
Mof_C 	C 	0.73337	0.00863	0.43523	-0.048
Mof_H 	H 	0.54787	0.89123	0.45303	0.06
Mof_C 	C 	0.55277	0.90773	0.47197	-0.027
Mof_H 	H 	0.77357	0.86423	0.26223	0.039
Mof_H 	H 	0.80347	0.90623	0.27153	0.037
Mof_C 	C 	0.82097	0.92233	0.25302	0.084
Mof_H 	H 	0.63917	0.88833	0.23753	0.048
Mof_C 	C 	0.57247	0.84293	0.24033	-0.019
Mof_H 	H 	0.71447	0.00833	0.26303	0.041
Mof_C 	C 	0.68057	0.02703	0.27633	-0.05
Mof_H 	H 	0.51497	0.80183	0.24443	0.04
Mof_H 	H 	0.63997	0.01983	0.29303	0.036
Mof_H 	H 	0.57707	0.13073	0.45933	0.062
Mof_H 	H 	0.61987	0.17033	0.45163	0.052
Mof_C 	C 	0.63007	0.17513	0.47063	0.123
Mof_C 	C 	0.75107	0.04143	0.44453	-0.01
Mof_H 	H 	0.74007	0.07983	0.45773	0.061
Mof_C 	C 	0.57237	0.94653	0.48084	-0.032
Mof_H 	H 	0.61847	0.01233	0.48333	0.046
Mof_H 	H 	0.75207	0.00273	0.42963	0.045
Mof_H 	H 	0.53397	0.87723	0.47503	0.042
Mof_C 	C 	0.80947	0.94363	0.24375	-0.122
Mof_C 	C 	0.86457	0.92553	0.25186	-0.146
Mof_H 	H 	0.56587	0.83623	0.23163	0.031
Mof_H 	H 	0.69467	0.05923	0.27473	0.044
Mof_C 	C 	0.61937	0.21033	0.47453	-0.178
Mof_C 	C 	0.65187	0.16473	0.47913	-0.155
Mof_H 	H 	0.78327	0.05593	0.44613	0.032
Mof_H 	H 	0.56267	0.94143	0.48943	0.044
Mof_H 	H 	0.78067	0.94253	0.24433	0.088
Mof_C 	C 	0.83807	0.96683	0.23342	0.072
Mof_C 	C 	0.89147	0.94793	0.24171	0.1
Mof_H 	H 	0.87497	0.91233	0.25813	0.084
Mof_H 	H 	0.60247	0.21983	0.46933	0.088
Mof_C 	C 	0.63567	0.22933	0.48661	0.136
Mof_C 	C 	0.67397	0.19173	0.49112	0.095
Mof_H 	H 	0.65407	0.13783	0.47773	0.097
Mof_H 	H 	0.82847	0.98003	0.22703	0.027
Mof_C 	C 	0.88197	0.96993	0.23292	-0.161
Mof_H 	H 	0.91957	0.94763	0.24083	0.012
Mof_H 	H 	0.62647	0.25053	0.48933	0.005
Mof_C 	C 	0.66087	0.22303	0.4945	-0.214
Mof_H 	H 	0.69537	0.18733	0.49593	0.016
Mof_C 	C 	0.91397	0.99683	0.22253	0.43
Mof_C 	C 	0.68207	0.25173	0.50523	0.459
Mof_O 	O 	0.66007	0.26983	0.50912	-0.349
Mof_Zn	Zn	0.11231	0.06788	0.70629	1.227
Mof_O 	O 	0.05553	0.04837	0.69764	-0.676
Mof_O 	O 	0.15903	0.08517	0.69301	-0.47
Mof_O 	O 	0.12973	0.12177	0.71581	-0.484
Mof_O 	O 	0.11733	0.02607	0.71672	-0.521
Mof_Zn	Zn	0.07243	0.10837	0.69007	1.23
Mof_C 	C 	0.15563	0.10797	0.68396	0.375
Mof_C 	C 	0.11903	0.15317	0.71234	0.333
Mof_O 	O 	0.12913	0.12257	0.68133	-0.49
Mof_O 	O 	0.09303	0.15217	0.70349	-0.486
Mof_O 	O 	0.04223	0.12757	0.67815	-0.503
Mof_O 	O 	0.01263	0.05457	0.72056	-0.494
Mof_C 	C 	0.19273	0.11747	0.67374	-0.106
Mof_C 	C 	0.13803	0.19477	0.72129	-0.091
Mof_C 	C 	0.19513	0.14157	0.66223	0.05
Mof_C 	C 	0.22483	0.10487	0.67489	0.055
Mof_C 	C 	0.16633	0.20027	0.73236	0.029
Mof_C 	C 	0.13453	0.23237	0.71794	0.03
Mof_C 	C 	0.22753	0.15027	0.65384	-0.128
Mof_H 	H 	0.17333	0.15117	0.66067	0.027
Mof_H 	H 	0.22413	0.08857	0.68237	0.033
Mof_C 	C 	0.25893	0.11367	0.66607	-0.136
Mof_C 	C 	0.18513	0.23977	0.73984	-0.119
Mof_H 	H 	0.17213	0.17607	0.73457	0.029
Mof_H 	H 	0.12053	0.23267	0.71017	0.036
Mof_C 	C 	0.15213	0.27167	0.7263	-0.121
Mof_C 	C 	0.26013	0.13577	0.65484	0.09
Mof_H 	H 	0.22903	0.16777	0.64657	0.084
Mof_H 	H 	0.28123	0.10467	0.66767	0.073
Mof_C 	C 	0.17683	0.27457	0.73689	0.087
Mof_H 	H 	0.20363	0.24247	0.74697	0.08
Mof_H 	H 	0.14643	0.29607	0.72437	0.067
Mof_C 	C 	0.29363	0.14177	0.64485	-0.045
Mof_C 	C 	0.19213	0.31647	0.74503	-0.036
Mof_H 	H 	0.32543	0.16077	0.64807	0.047
Mof_H 	H 	0.28923	0.11127	0.64237	0.054
Mof_O 	O 	0.28723	0.16317	0.63441	-0.197
Mof_H 	H 	0.20903	0.34477	0.73987	0.042
Mof_H 	H 	0.16503	0.31627	0.74887	0.052
Mof_O 	O 	0.22083	0.31557	0.75454	-0.214
Mof_C 	C 	0.32363	0.18437	0.62588	0.102
Mof_C 	C 	0.24103	0.35217	0.76215	0.141
Mof_C 	C 	0.35783	0.17217	0.6256	-0.07
Mof_C 	C 	0.31513	0.20477	0.61489	0.008
Mof_C 	C 	0.23013	0.38627	0.76225	-0.115
Mof_C 	C 	0.26453	0.34667	0.77302	-0.022
Mof_H 	H 	0.35683	0.14957	0.63127	0.063
Mof_C 	C 	0.39363	0.19387	0.61683	-0.09
Mof_C 	C 	0.35023	0.22487	0.60658	-0.036
Mof_C 	C 	0.27713	0.21357	0.61247	-0.085
Mof_C 	C 	0.25173	0.42207	0.77167	-0.048
Mof_H 	H 	0.20903	0.38647	0.75627	0.076
Mof_C 	C 	0.28593	0.38077	0.78188	-0.006
Mof_C 	C 	0.27673	0.31027	0.77482	-0.06
Mof_H 	H 	0.42123	0.19257	0.61777	0.066
Mof_C 	C 	0.38773	0.21817	0.60636	0.143
Mof_C 	C 	0.34193	0.25467	0.59693	-0.052
Mof_H 	H 	0.25153	0.19797	0.61877	0.062
Mof_C 	C 	0.26233	0.20047	0.60017	0.042
Mof_C 	C 	0.29983	0.26427	0.61317	0.03
Mof_C 	C 	0.27883	0.41647	0.78207	0.091
Mof_H 	H 	0.24873	0.44877	0.77127	0.051
Mof_C 	C 	0.31593	0.37787	0.79104	-0.077
Mof_H 	H 	0.26203	0.28507	0.76837	0.059
Mof_C 	C 	0.32543	0.33057	0.77522	0.018
Mof_C 	C 	0.25843	0.29347	0.78858	0.024
Mof_O 	O 	0.41993	0.23917	0.59761	-0.227
Mof_H 	H 	0.36713	0.27017	0.59047	0.053
Mof_C 	C 	0.29513	0.21987	0.59117	0.005
Mof_C 	C 	0.33353	0.28677	0.60427	0.027
Mof_C 	C 	0.21793	0.17037	0.59607	-0.08
Mof_C 	C 	0.28753	0.28997	0.62117	-0.074
Mof_O 	O 	0.29593	0.45357	0.79085	-0.189
Mof_H 	H 	0.33213	0.40547	0.79667	0.061
Mof_C 	C 	0.34703	0.36657	0.78393	0.04
Mof_C 	C 	0.28103	0.33267	0.79805	0.025
Mof_C 	C 	0.35343	0.31887	0.76804	-0.062
Mof_C 	C 	0.22853	0.24897	0.79231	-0.072
Mof_C 	C 	0.45333	0.23117	0.59672	0.015
Mof_C 	C 	0.28263	0.20737	0.57717	-0.07
Mof_C 	C 	0.35703	0.32957	0.6025	-0.068
Mof_C 	C 	0.21103	0.15837	0.58067	-0.045
Mof_H 	H 	0.19263	0.15727	0.60177	0.054
Mof_C 	C 	0.31153	0.33527	0.62027	-0.022
Mof_H 	H 	0.26283	0.27517	0.62707	0.054
Mof_C 	C 	0.27783	0.48237	0.79224	-0.065
Mof_C 	C 	0.39193	0.38837	0.78527	-0.087
Mof_C 	C 	0.27013	0.32217	0.81045	-0.075
Mof_H 	H 	0.33883	0.29317	0.76247	0.061
Mof_C 	C 	0.40003	0.34197	0.76857	-0.036
Mof_H 	H 	0.21453	0.22457	0.78637	0.06
Mof_C 	C 	0.21943	0.24107	0.80531	-0.03
Mof_H 	H 	0.44023	0.19757	0.59557	0.039
Mof_H 	H 	0.47013	0.23957	0.60487	0.037
Mof_C 	C 	0.48763	0.25567	0.58636	0.083
Mof_H 	H 	0.30583	0.22167	0.57087	0.048
Mof_C 	C 	0.23913	0.17627	0.57367	-0.014
Mof_H 	H 	0.38113	0.34167	0.59637	0.052
Mof_C 	C 	0.34723	0.36037	0.60967	-0.037
Mof_H 	H 	0.18163	0.13517	0.57777	0.041
Mof_H 	H 	0.30663	0.35317	0.62637	0.036
Mof_H 	H 	0.24373	0.46407	0.79267	0.062
Mof_H 	H 	0.28653	0.50367	0.78497	0.052
Mof_C 	C 	0.29673	0.50847	0.80397	0.123
Mof_C 	C 	0.41773	0.37477	0.77787	-0.015
Mof_H 	H 	0.40673	0.41317	0.79107	0.06
Mof_C 	C 	0.23903	0.27987	0.81418	-0.027
Mof_H 	H 	0.28513	0.34567	0.81667	0.053
Mof_H 	H 	0.41873	0.33607	0.76297	0.043
Mof_H 	H 	0.20063	0.21057	0.80837	0.043
Mof_C 	C 	0.47613	0.27697	0.57709	-0.122
Mof_C 	C 	0.53123	0.25887	0.5852	-0.146
Mof_H 	H 	0.23253	0.16957	0.56497	0.029
Mof_H 	H 	0.36133	0.39257	0.60807	0.04
Mof_C 	C 	0.28603	0.54367	0.80787	-0.178
Mof_C 	C 	0.31853	0.49807	0.81247	-0.155
Mof_H 	H 	0.44993	0.38927	0.77947	0.034
Mof_H 	H 	0.22933	0.27477	0.82277	0.041
Mof_H 	H 	0.44733	0.27587	0.57767	0.087
Mof_C 	C 	0.50473	0.30017	0.56676	0.071
Mof_C 	C 	0.55813	0.28127	0.57505	0.098
Mof_H 	H 	0.54163	0.24567	0.59147	0.083
Mof_H 	H 	0.26913	0.55317	0.80267	0.088
Mof_C 	C 	0.30233	0.56267	0.81995	0.136
Mof_C 	C 	0.34063	0.52507	0.82446	0.095
Mof_H 	H 	0.32073	0.47117	0.81107	0.097
Mof_H 	H 	0.49513	0.31337	0.56037	0.026
Mof_C 	C 	0.54863	0.30327	0.56626	-0.16
Mof_H 	H 	0.58623	0.28097	0.57417	0.011
Mof_H 	H 	0.29313	0.58387	0.82267	0.005
Mof_C 	C 	0.32753	0.55637	0.82784	-0.213
Mof_H 	H 	0.36203	0.52067	0.82927	0.016
Mof_C 	C 	0.58063	0.33017	0.55587	0.424
Mof_C 	C 	0.34873	0.58507	0.83857	0.459
Mof_O 	O 	0.32673	0.60317	0.84246	-0.349
Mof_Zn	Zn	0.59879	0.37777	0.03962	1.227
Mof_O 	O 	0.6183	0.3405	0.03097	-0.674
Mof_O 	O 	0.5815	0.4072	0.02634	-0.47
Mof_O 	O 	0.5449	0.3413	0.04914	-0.484
Mof_O 	O 	0.6406	0.4246	0.05005	-0.515
Mof_Zn	Zn	0.5583	0.2974	0.0234	1.23
Mof_C 	C 	0.5587	0.381	0.01729	0.375
Mof_C 	C 	0.5135	0.2992	0.04567	0.332
Mof_O 	O 	0.5441	0.3399	0.01466	-0.49
Mof_O 	O 	0.5145	0.2742	0.03682	-0.485
Mof_O 	O 	0.5391	0.248	0.01148	-0.509
Mof_O 	O 	0.6121	0.2914	0.05389	-0.493
Mof_C 	C 	0.5492	0.4086	0.00707	-0.106
Mof_C 	C 	0.4719	0.2766	0.05462	-0.091
Mof_C 	C 	0.5251	0.3869	0.99556	0.05
Mof_C 	C 	0.5618	0.4533	0.00822	0.055
Mof_C 	C 	0.4664	0.2994	0.06569	0.029
Mof_C 	C 	0.4343	0.2355	0.05127	0.03
Mof_C 	C 	0.5164	0.4106	0.98717	-0.128
Mof_H 	H 	0.5155	0.3555	0.994	0.027
Mof_H 	H 	0.5781	0.4689	0.0157	0.033
Mof_C 	C 	0.553	0.4786	0.9994	-0.136
Mof_C 	C 	0.4269	0.2787	0.07317	-0.119
Mof_H 	H 	0.4906	0.3294	0.0679	0.029
Mof_H 	H 	0.434	0.2212	0.0435	0.036
Mof_C 	C 	0.395	0.2138	0.05963	-0.12
Mof_C 	C 	0.5309	0.4577	0.98817	0.09
Mof_H 	H 	0.4989	0.3946	0.9799	0.084
Mof_H 	H 	0.562	0.5099	0.001	0.074
Mof_C 	C 	0.3921	0.2356	0.07022	0.087
Mof_H 	H 	0.4242	0.2945	0.0803	0.08
Mof_H 	H 	0.3706	0.1837	0.0577	0.067
Mof_C 	C 	0.5249	0.4852	0.97818	-0.045
Mof_C 	C 	0.3502	0.209	0.07836	-0.036
Mof_H 	H 	0.5059	0.498	0.9814	0.047
Mof_H 	H 	0.5554	0.5113	0.9757	0.054
Mof_O 	O 	0.5035	0.4574	0.96774	-0.197
Mof_H 	H 	0.3219	0.1976	0.0732	0.042
Mof_H 	H 	0.3504	0.1821	0.0822	0.052
Mof_O 	O 	0.3511	0.2386	0.08787	-0.214
Mof_C 	C 	0.4823	0.4726	0.95921	0.101
Mof_C 	C 	0.3145	0.2222	0.09548	0.141
Mof_C 	C 	0.4945	0.519	0.95893	-0.07
Mof_C 	C 	0.4619	0.4437	0.94822	0.008
Mof_C 	C 	0.2804	0.1772	0.09558	-0.115
Mof_C 	C 	0.32	0.2512	0.10635	-0.022
Mof_H 	H 	0.5171	0.5406	0.9646	0.063
Mof_C 	C 	0.4728	0.5331	0.95016	-0.09
Mof_C 	C 	0.4418	0.4587	0.93991	-0.036
Mof_C 	C 	0.4531	0.3969	0.9458	-0.086
Mof_C 	C 	0.2446	0.163	0.105	-0.048
Mof_H 	H 	0.2802	0.1559	0.0896	0.076
Mof_C 	C 	0.2859	0.2385	0.11521	-0.006
Mof_C 	C 	0.3564	0.2998	0.10815	-0.06
Mof_H 	H 	0.4741	0.562	0.9511	0.066
Mof_C 	C 	0.4485	0.5029	0.93969	0.143
Mof_C 	C 	0.412	0.4206	0.93026	-0.052
Mof_H 	H 	0.4687	0.3869	0.9521	0.063
Mof_C 	C 	0.4662	0.3952	0.9335	0.042
Mof_C 	C 	0.4024	0.3689	0.9465	0.03
Mof_C 	C 	0.2502	0.1957	0.1154	0.091
Mof_H 	H 	0.2179	0.1333	0.1046	0.051
Mof_C 	C 	0.2888	0.2714	0.12437	-0.077
Mof_H 	H 	0.3816	0.3103	0.1017	0.059
Mof_C 	C 	0.3361	0.3282	0.10855	0.018
Mof_C 	C 	0.3732	0.2983	0.12191	0.024
Mof_O 	O 	0.4275	0.5141	0.93094	-0.227
Mof_H 	H 	0.3965	0.4303	0.9238	0.053
Mof_C 	C 	0.4468	0.4086	0.9245	0.005
Mof_C 	C 	0.3799	0.3801	0.9376	0.026
Mof_C 	C 	0.4963	0.3809	0.9294	-0.081
Mof_C 	C 	0.3767	0.3309	0.9545	-0.074
Mof_O 	O 	0.2131	0.1757	0.12418	-0.19
Mof_H 	H 	0.2612	0.26	0.13	0.061
Mof_C 	C 	0.3001	0.3138	0.11726	0.04
Mof_C 	C 	0.334	0.2817	0.13138	0.025
Mof_C 	C 	0.3478	0.3679	0.10137	-0.062
Mof_C 	C 	0.4177	0.3129	0.12564	-0.072
Mof_C 	C 	0.4355	0.5555	0.93005	0.015
Mof_C 	C 	0.4593	0.4086	0.9105	-0.07
Mof_C 	C 	0.3371	0.3608	0.93583	-0.068
Mof_C 	C 	0.5083	0.386	0.914	-0.044
Mof_H 	H 	0.5094	0.3687	0.9351	0.055
Mof_C 	C 	0.3314	0.3096	0.9536	-0.021
Mof_H 	H 	0.3915	0.321	0.9604	0.055
Mof_C 	C 	0.1843	0.1288	0.12557	-0.064
Mof_C 	C 	0.2783	0.3369	0.1186	-0.087
Mof_C 	C 	0.3445	0.2813	0.14378	-0.075
Mof_H 	H 	0.3735	0.379	0.0958	0.061
Mof_C 	C 	0.3247	0.3914	0.1019	-0.036
Mof_H 	H 	0.4421	0.3233	0.1197	0.06
Mof_C 	C 	0.4256	0.3117	0.13864	-0.03
Mof_H 	H 	0.4691	0.576	0.9289	0.039
Mof_H 	H 	0.4271	0.5639	0.9382	0.037
Mof_C 	C 	0.411	0.5653	0.91969	0.083
Mof_H 	H 	0.445	0.4175	0.9042	0.048
Mof_C 	C 	0.4904	0.3962	0.907	-0.014
Mof_H 	H 	0.325	0.3728	0.9297	0.052
Mof_C 	C 	0.3063	0.3202	0.943	-0.037
Mof_H 	H 	0.5315	0.3798	0.9111	0.041
Mof_H 	H 	0.3135	0.2868	0.9597	0.036
Mof_H 	H 	0.2026	0.113	0.126	0.061
Mof_H 	H 	0.163	0.1162	0.1183	0.051
Mof_C 	C 	0.1582	0.1216	0.1373	0.123
Mof_C 	C 	0.2919	0.3763	0.1112	-0.015
Mof_H 	H 	0.2535	0.3269	0.1244	0.059
Mof_C 	C 	0.3868	0.2925	0.14751	-0.027
Mof_H 	H 	0.321	0.2728	0.15	0.053
Mof_H 	H 	0.3306	0.416	0.0963	0.043
Mof_H 	H 	0.4561	0.3234	0.1417	0.043
Mof_C 	C 	0.3897	0.5325	0.91042	-0.122
Mof_C 	C 	0.4078	0.6057	0.91853	-0.146
Mof_H 	H 	0.4971	0.3963	0.8983	0.03
Mof_H 	H 	0.2741	0.3021	0.9414	0.04
Mof_C 	C 	0.123	0.0757	0.1412	-0.178
Mof_C 	C 	0.1686	0.1538	0.1458	-0.155
Mof_H 	H 	0.2774	0.394	0.1128	0.034
Mof_H 	H 	0.3919	0.2879	0.1561	0.041
Mof_H 	H 	0.3908	0.5048	0.911	0.087
Mof_C 	C 	0.3665	0.5379	0.90009	0.071
Mof_C 	C 	0.3854	0.6102	0.90838	0.098
Mof_H 	H 	0.421	0.6293	0.9248	0.083
Mof_H 	H 	0.1135	0.0493	0.136	0.087
Mof_C 	C 	0.104	0.073	0.15328	0.136
Mof_C 	C 	0.1416	0.1489	0.15779	0.095
Mof_H 	H 	0.1955	0.1829	0.1444	0.097
Mof_H 	H 	0.3533	0.5151	0.8937	0.027
Mof_C 	C 	0.3634	0.5787	0.89959	-0.16
Mof_H 	H 	0.3857	0.6386	0.9075	0.011
Mof_H 	H 	0.0828	0.0426	0.156	0.004
Mof_C 	C 	0.1103	0.1045	0.16117	-0.214
Mof_H 	H 	0.146	0.1747	0.1626	0.016
Mof_C 	C 	0.3365	0.5838	0.8892	0.424
Mof_C 	C 	0.0816	0.097	0.1719	0.459
Mof_O 	O 	0.0635	0.0569	0.17579	-0.351
Mof_Zn	Zn	0.26546	0.7111	0.37295	1.227
Mof_O 	O 	0.28497	0.67383	0.3643	-0.674
Mof_O 	O 	0.24817	0.74053	0.35967	-0.47
Mof_O 	O 	0.21157	0.67463	0.38247	-0.484
Mof_O 	O 	0.30727	0.75793	0.38338	-0.515
Mof_Zn	Zn	0.22497	0.63073	0.35673	1.23
Mof_C 	C 	0.22537	0.71433	0.35062	0.375
Mof_C 	C 	0.18017	0.63253	0.379	0.333
Mof_O 	O 	0.21077	0.67323	0.34799	-0.49
Mof_O 	O 	0.18117	0.60753	0.37015	-0.485
Mof_O 	O 	0.20577	0.58133	0.34481	-0.51
Mof_O 	O 	0.27877	0.62473	0.38722	-0.493
Mof_C 	C 	0.21587	0.74193	0.3404	-0.106
Mof_C 	C 	0.13857	0.60993	0.38795	-0.092
Mof_C 	C 	0.19177	0.72023	0.32889	0.05
Mof_C 	C 	0.22847	0.78663	0.34155	0.055
Mof_C 	C 	0.13307	0.63273	0.39902	0.03
Mof_C 	C 	0.10097	0.56883	0.3846	0.031
Mof_C 	C 	0.18307	0.74393	0.3205	-0.128
Mof_H 	H 	0.18217	0.68883	0.32733	0.027
Mof_H 	H 	0.24477	0.80223	0.34903	0.033
Mof_C 	C 	0.21967	0.81193	0.33273	-0.136
Mof_C 	C 	0.09357	0.61203	0.4065	-0.122
Mof_H 	H 	0.15727	0.66273	0.40123	0.028
Mof_H 	H 	0.10067	0.55453	0.37683	0.036
Mof_C 	C 	0.06167	0.54713	0.39296	-0.123
Mof_C 	C 	0.19757	0.79103	0.3215	0.09
Mof_H 	H 	0.16557	0.72793	0.31323	0.084
Mof_H 	H 	0.22867	0.84323	0.33433	0.074
Mof_C 	C 	0.05877	0.56893	0.40355	0.09
Mof_H 	H 	0.09087	0.62783	0.41363	0.081
Mof_H 	H 	0.03727	0.51703	0.39103	0.067
Mof_C 	C 	0.19157	0.81853	0.31151	-0.045
Mof_C 	C 	0.01687	0.54233	0.41169	-0.045
Mof_H 	H 	0.17257	0.83133	0.31473	0.047
Mof_H 	H 	0.22207	0.84463	0.30903	0.054
Mof_O 	O 	0.17017	0.79073	0.30107	-0.197
Mof_H 	H 	0.98857	0.53093	0.40653	0.048
Mof_H 	H 	0.01707	0.51543	0.41553	0.053
Mof_O 	O 	0.01777	0.57193	0.4212	-0.216
Mof_C 	C 	0.14897	0.80593	0.29254	0.102
Mof_C 	C 	0.98117	0.55553	0.42881	0.143
Mof_C 	C 	0.16117	0.85233	0.29226	-0.071
Mof_C 	C 	0.12857	0.77703	0.28155	0.006
Mof_C 	C 	0.94707	0.51053	0.42891	-0.116
Mof_C 	C 	0.98667	0.58453	0.43968	-0.017
Mof_H 	H 	0.18377	0.87393	0.29793	0.063
Mof_C 	C 	0.13947	0.86643	0.28349	-0.089
Mof_C 	C 	0.10847	0.79203	0.27324	-0.034
Mof_C 	C 	0.11977	0.73023	0.27913	-0.082
Mof_C 	C 	0.91127	0.49633	0.43833	-0.048
Mof_H 	H 	0.94687	0.48923	0.42293	0.077
Mof_C 	C 	0.95257	0.57183	0.44854	-0.007
Mof_C 	C 	0.02307	0.63313	0.44148	-0.065
Mof_H 	H 	0.14077	0.89533	0.28443	0.066
Mof_C 	C 	0.11517	0.83623	0.27302	0.142
Mof_C 	C 	0.07867	0.75393	0.26359	-0.058
Mof_H 	H 	0.13537	0.72023	0.28543	0.062
Mof_C 	C 	0.13287	0.72853	0.26683	0.039
Mof_C 	C 	0.06907	0.70223	0.27983	0.026
Mof_C 	C 	0.91687	0.52903	0.44873	0.091
Mof_H 	H 	0.88457	0.46663	0.43793	0.051
Mof_C 	C 	0.95547	0.60473	0.4577	-0.074
Mof_H 	H 	0.04827	0.64363	0.43503	0.06
Mof_C 	C 	0.00277	0.66153	0.44188	0.019
Mof_C 	C 	0.03987	0.63163	0.45524	0.024
Mof_O 	O 	0.09417	0.84743	0.26427	-0.227
Mof_H 	H 	0.06317	0.76363	0.25713	0.054
Mof_C 	C 	0.11347	0.74193	0.25783	0.008
Mof_C 	C 	0.04657	0.71343	0.27093	0.037
Mof_C 	C 	0.16297	0.71423	0.26273	-0.078
Mof_C 	C 	0.04337	0.66423	0.28783	-0.077
Mof_O 	O 	0.87977	0.50903	0.45751	-0.189
Mof_H 	H 	0.92787	0.59333	0.46333	0.061
Mof_C 	C 	0.96677	0.64713	0.45059	0.041
Mof_C 	C 	0.00067	0.61503	0.46471	0.024
Mof_C 	C 	0.01447	0.70123	0.4347	-0.072
Mof_C 	C 	0.08437	0.64623	0.45897	-0.071
Mof_C 	C 	0.10217	0.88883	0.26338	0.015
Mof_C 	C 	0.12597	0.74193	0.24383	-0.073
Mof_C 	C 	0.00377	0.69413	0.26916	-0.09
Mof_C 	C 	0.17497	0.71933	0.24733	-0.048
Mof_H 	H 	0.17607	0.70203	0.26843	0.054
Mof_C 	C 	0.99807	0.64293	0.28693	-0.019
Mof_H 	H 	0.05817	0.65433	0.29373	0.055
Mof_C 	C 	0.85097	0.46213	0.4589	-0.065
Mof_C 	C 	0.94497	0.67023	0.45193	-0.084
Mof_C 	C 	0.01117	0.61463	0.47711	-0.085
Mof_H 	H 	0.04017	0.71233	0.42913	0.064
Mof_C 	C 	0.99137	0.72473	0.43523	-0.025
Mof_H 	H 	0.10877	0.65663	0.45303	0.059
Mof_C 	C 	0.09227	0.64503	0.47197	-0.033
Mof_H 	H 	0.13577	0.90933	0.26223	0.039
Mof_H 	H 	0.09377	0.89723	0.27153	0.037
Mof_C 	C 	0.07767	0.89863	0.25302	0.082
Mof_H 	H 	0.11167	0.75083	0.23753	0.049
Mof_C 	C 	0.15707	0.72953	0.24033	-0.01
Mof_H 	H 	0.99167	0.70613	0.26303	0.063
Mof_C 	C 	0.97297	0.65353	0.27633	-0.025
Mof_H 	H 	0.19817	0.71313	0.24443	0.043
Mof_H 	H 	0.98017	0.62013	0.29303	0.037
Mof_H 	H 	0.86927	0.44633	0.45933	0.062
Mof_H 	H 	0.82967	0.44953	0.45163	0.052
Mof_C 	C 	0.82487	0.45493	0.47063	0.123
Mof_C 	C 	0.95857	0.70963	0.44453	-0.02
Mof_H 	H 	0.92017	0.66023	0.45773	0.059
Mof_C 	C 	0.05347	0.62583	0.48084	-0.021
Mof_H 	H 	0.98767	0.60613	0.48333	0.06
Mof_H 	H 	0.99727	0.74933	0.42963	0.041
Mof_H 	H 	0.12277	0.65673	0.47503	0.044
Mof_C 	C 	0.05637	0.86583	0.24375	-0.121
Mof_C 	C 	0.07447	0.93903	0.25186	-0.145
Mof_H 	H 	0.16377	0.72963	0.23163	0.028
Mof_H 	H 	0.94077	0.63543	0.27473	0.037
Mof_C 	C 	0.78967	0.40903	0.47453	-0.177
Mof_C 	C 	0.83527	0.48713	0.47913	-0.155
Mof_H 	H 	0.94407	0.72733	0.44613	0.036
Mof_H 	H 	0.05857	0.62123	0.48943	0.038
Mof_H 	H 	0.05747	0.83813	0.24433	0.086
Mof_C 	C 	0.03317	0.87123	0.23342	0.068
Mof_C 	C 	0.05207	0.94353	0.24171	0.096
Mof_H 	H 	0.08767	0.96263	0.25813	0.084
Mof_H 	H 	0.78017	0.38263	0.46933	0.088
Mof_C 	C 	0.77067	0.40633	0.48661	0.136
Mof_C 	C 	0.80827	0.48223	0.49112	0.095
Mof_H 	H 	0.86217	0.51623	0.47773	0.097
Mof_H 	H 	0.01997	0.84843	0.22703	0.026
Mof_C 	C 	0.03007	0.91203	0.23292	-0.158
Mof_H 	H 	0.05237	0.97193	0.24083	0.013
Mof_H 	H 	0.74947	0.37593	0.48933	0.005
Mof_C 	C 	0.77697	0.43783	0.4945	-0.213
Mof_H 	H 	0.81267	0.50803	0.49593	0.016
Mof_C 	C 	0.00317	0.91713	0.22253	0.417
Mof_C 	C 	0.74827	0.43033	0.50523	0.459
Mof_O 	O 	0.73017	0.39023	0.50912	-0.349
Mof_Zn	Zn	0.93212	0.04444	0.70629	1.227
Mof_O 	O 	0.95163	0.00717	0.69764	-0.674
Mof_O 	O 	0.91483	0.07387	0.69301	-0.47
Mof_O 	O 	0.87823	0.00797	0.71581	-0.488
Mof_O 	O 	0.97393	0.09127	0.71672	-0.51
Mof_Zn	Zn	0.89163	0.96407	0.69007	1.231
Mof_C 	C 	0.89203	0.04767	0.68396	0.375
Mof_C 	C 	0.84683	0.96587	0.71234	0.338
Mof_O 	O 	0.87743	0.00657	0.68133	-0.492
Mof_O 	O 	0.84783	0.94087	0.70349	-0.485
Mof_O 	O 	0.87243	0.91467	0.67815	-0.508
Mof_O 	O 	0.94543	0.95807	0.72056	-0.489
Mof_C 	C 	0.88253	0.07527	0.67374	-0.106
Mof_C 	C 	0.80523	0.94327	0.72129	-0.091
Mof_C 	C 	0.85843	0.05357	0.66223	0.05
Mof_C 	C 	0.89513	0.11997	0.67489	0.055
Mof_C 	C 	0.79973	0.96607	0.73236	0.031
Mof_C 	C 	0.76763	0.90217	0.71794	0.031
Mof_C 	C 	0.84973	0.07727	0.65384	-0.128
Mof_H 	H 	0.84883	0.02217	0.66067	0.026
Mof_H 	H 	0.91143	0.13557	0.68237	0.034
Mof_C 	C 	0.88633	0.14527	0.66607	-0.136
Mof_C 	C 	0.76023	0.94537	0.73984	-0.12
Mof_H 	H 	0.82393	0.99607	0.73457	0.03
Mof_H 	H 	0.76733	0.88787	0.71017	0.036
Mof_C 	C 	0.72833	0.88047	0.7263	-0.121
Mof_C 	C 	0.86423	0.12437	0.65484	0.09
Mof_H 	H 	0.83223	0.06127	0.64657	0.084
Mof_H 	H 	0.89533	0.17657	0.66767	0.074
Mof_C 	C 	0.72543	0.90227	0.73689	0.087
Mof_H 	H 	0.75753	0.96117	0.74697	0.081
Mof_H 	H 	0.70393	0.85037	0.72437	0.068
Mof_C 	C 	0.85823	0.15187	0.64485	-0.045
Mof_C 	C 	0.68353	0.87567	0.74503	-0.037
Mof_H 	H 	0.83923	0.16467	0.64807	0.047
Mof_H 	H 	0.88873	0.17797	0.64237	0.054
Mof_O 	O 	0.83683	0.12407	0.63441	-0.197
Mof_H 	H 	0.65523	0.86427	0.73987	0.042
Mof_H 	H 	0.68373	0.84877	0.74887	0.052
Mof_O 	O 	0.68443	0.90527	0.75454	-0.214
Mof_C 	C 	0.81563	0.13927	0.62588	0.103
Mof_C 	C 	0.64783	0.88887	0.76215	0.142
Mof_C 	C 	0.82783	0.18567	0.6256	-0.071
Mof_C 	C 	0.79523	0.11037	0.61489	0.003
Mof_C 	C 	0.61373	0.84387	0.76225	-0.116
Mof_C 	C 	0.65333	0.91787	0.77302	-0.024
Mof_H 	H 	0.85043	0.20727	0.63127	0.064
Mof_C 	C 	0.80613	0.19977	0.61683	-0.088
Mof_C 	C 	0.77513	0.12537	0.60658	-0.032
Mof_C 	C 	0.78643	0.06357	0.61247	-0.075
Mof_C 	C 	0.57793	0.82967	0.77167	-0.047
Mof_H 	H 	0.61353	0.82257	0.75627	0.076
Mof_C 	C 	0.61923	0.90517	0.78188	-0.002
Mof_C 	C 	0.68973	0.96647	0.77482	-0.058
Mof_H 	H 	0.80743	0.22867	0.61777	0.066
Mof_C 	C 	0.78183	0.16957	0.60636	0.141
Mof_C 	C 	0.74533	0.08727	0.59693	-0.06
Mof_H 	H 	0.80203	0.05357	0.61877	0.059
Mof_C 	C 	0.79953	0.06187	0.60017	0.035
Mof_C 	C 	0.73573	0.03557	0.61317	0.015
Mof_C 	C 	0.58353	0.86237	0.78207	0.089
Mof_H 	H 	0.55123	0.79997	0.77127	0.051
Mof_C 	C 	0.62213	0.93807	0.79104	-0.085
Mof_H 	H 	0.71493	0.97697	0.76837	0.06
Mof_C 	C 	0.66943	0.99487	0.77522	0.015
Mof_C 	C 	0.70653	0.96497	0.78858	0.023
Mof_O 	O 	0.76083	0.18077	0.59761	-0.226
Mof_H 	H 	0.72983	0.09697	0.59047	0.055
Mof_C 	C 	0.78013	0.07527	0.59117	0.011
Mof_C 	C 	0.71323	0.04677	0.60427	0.04
Mof_C 	C 	0.82963	0.04757	0.59607	-0.075
Mof_C 	C 	0.71003	0.99757	0.62117	-0.056
Mof_O 	O 	0.54643	0.84237	0.79085	-0.189
Mof_H 	H 	0.59453	0.92667	0.79667	0.064
Mof_C 	C 	0.63343	0.98047	0.78393	0.057
Mof_C 	C 	0.66733	0.94837	0.79805	0.028
Mof_C 	C 	0.68113	0.03457	0.76804	-0.061
Mof_C 	C 	0.75103	0.97957	0.79231	-0.071
Mof_C 	C 	0.76883	0.22217	0.59672	0.015
Mof_C 	C 	0.79263	0.07527	0.57717	-0.076
Mof_C 	C 	0.67043	0.02747	0.6025	-0.086
Mof_C 	C 	0.84163	0.05267	0.58067	-0.053
Mof_H 	H 	0.84273	0.03537	0.60177	0.053
Mof_C 	C 	0.66473	0.97627	0.62027	-0.033
Mof_H 	H 	0.72483	0.98767	0.62707	0.051
Mof_C 	C 	0.51763	0.79547	0.79224	-0.065
Mof_C 	C 	0.61163	0.00357	0.78527	-0.115
Mof_C 	C 	0.67783	0.94797	0.81045	-0.077
Mof_H 	H 	0.70683	0.04567	0.76247	0.059
Mof_C 	C 	0.65803	0.05807	0.76857	-0.046
Mof_H 	H 	0.77543	0.98997	0.78637	0.061
Mof_C 	C 	0.75893	0.97837	0.80531	-0.031
Mof_H 	H 	0.80243	0.24267	0.59557	0.039
Mof_H 	H 	0.76043	0.23057	0.60487	0.037
Mof_C 	C 	0.74433	0.23197	0.58636	0.083
Mof_H 	H 	0.77833	0.08417	0.57087	0.05
Mof_C 	C 	0.82373	0.06287	0.57367	-0.005
Mof_H 	H 	0.65833	0.03947	0.59637	0.057
Mof_C 	C 	0.63963	0.98687	0.60967	-0.022
Mof_H 	H 	0.86483	0.04647	0.57777	0.044
Mof_H 	H 	0.64683	0.95347	0.62637	0.041
Mof_H 	H 	0.53593	0.77967	0.79267	0.062
Mof_H 	H 	0.49633	0.78287	0.78497	0.052
Mof_C 	C 	0.49153	0.78827	0.80397	0.124
Mof_C 	C 	0.62523	0.04297	0.77787	-0
Mof_H 	H 	0.58683	0.99357	0.79107	0.072
Mof_C 	C 	0.72013	0.95917	0.81418	-0.025
Mof_H 	H 	0.65433	0.93947	0.81667	0.054
Mof_H 	H 	0.66393	0.08267	0.76297	0.046
Mof_H 	H 	0.78943	0.99007	0.80837	0.044
Mof_C 	C 	0.72303	0.19917	0.57709	-0.122
Mof_C 	C 	0.74113	0.27237	0.5852	-0.146
Mof_H 	H 	0.83043	0.06297	0.56497	0.026
Mof_H 	H 	0.60743	0.96877	0.60807	0.036
Mof_C 	C 	0.45633	0.74237	0.80787	-0.178
Mof_C 	C 	0.50193	0.82047	0.81247	-0.155
Mof_H 	H 	0.61073	0.06067	0.77947	0.028
Mof_H 	H 	0.72523	0.95457	0.82277	0.041
Mof_H 	H 	0.72413	0.17147	0.57767	0.087
Mof_C 	C 	0.69983	0.20457	0.56676	0.071
Mof_C 	C 	0.71873	0.27687	0.57505	0.098
Mof_H 	H 	0.75433	0.29597	0.59147	0.083
Mof_H 	H 	0.44683	0.71597	0.80267	0.088
Mof_C 	C 	0.43733	0.73967	0.81995	0.136
Mof_C 	C 	0.47493	0.81557	0.82446	0.095
Mof_H 	H 	0.52883	0.84957	0.81107	0.097
Mof_H 	H 	0.68663	0.18177	0.56037	0.026
Mof_C 	C 	0.69673	0.24537	0.56626	-0.16
Mof_H 	H 	0.71903	0.30527	0.57417	0.011
Mof_H 	H 	0.41613	0.70927	0.82267	0.005
Mof_C 	C 	0.44363	0.77117	0.82784	-0.214
Mof_H 	H 	0.47933	0.84137	0.82927	0.016
Mof_C 	C 	0.66983	0.25047	0.55587	0.424
Mof_C 	C 	0.41493	0.76367	0.83857	0.46
Mof_O 	O 	0.39683	0.72357	0.84246	-0.349
Mof_Zn	Zn	0.62223	0.22102	0.03962	1.227
Mof_O 	O 	0.6595	0.2778	0.03097	-0.674
Mof_O 	O 	0.5928	0.1743	0.02634	-0.47
Mof_O 	O 	0.6587	0.2036	0.04914	-0.484
Mof_O 	O 	0.5754	0.216	0.05005	-0.515
Mof_Zn	Zn	0.7026	0.2609	0.0234	1.23
Mof_C 	C 	0.619	0.1777	0.01729	0.375
Mof_C 	C 	0.7008	0.2143	0.04567	0.332
Mof_O 	O 	0.6601	0.2042	0.01466	-0.49
Mof_O 	O 	0.7258	0.2403	0.03682	-0.485
Mof_O 	O 	0.752	0.2911	0.01148	-0.509
Mof_O 	O 	0.7086	0.3207	0.05389	-0.493
Mof_C 	C 	0.5914	0.1406	0.00707	-0.106
Mof_C 	C 	0.7234	0.1953	0.05462	-0.091
Mof_C 	C 	0.6131	0.1382	0.99556	0.05
Mof_C 	C 	0.5467	0.1085	0.00822	0.054
Mof_C 	C 	0.7006	0.167	0.06569	0.029
Mof_C 	C 	0.7645	0.1988	0.05127	0.03
Mof_C 	C 	0.5894	0.1058	0.98717	-0.127
Mof_H 	H 	0.6445	0.16	0.994	0.027
Mof_H 	H 	0.5311	0.1092	0.0157	0.033
Mof_C 	C 	0.5214	0.0744	0.9994	-0.136
Mof_C 	C 	0.7213	0.1482	0.07317	-0.119
Mof_H 	H 	0.6706	0.1612	0.0679	0.029
Mof_H 	H 	0.7788	0.2128	0.0435	0.036
Mof_C 	C 	0.7862	0.1812	0.05963	-0.12
Mof_C 	C 	0.5423	0.0732	0.98817	0.089
Mof_H 	H 	0.6054	0.1043	0.9799	0.084
Mof_H 	H 	0.4901	0.0521	0.001	0.072
Mof_C 	C 	0.7644	0.1565	0.07022	0.086
Mof_H 	H 	0.7055	0.1297	0.0803	0.08
Mof_H 	H 	0.8163	0.1869	0.0577	0.068
Mof_C 	C 	0.5148	0.0397	0.97818	-0.044
Mof_C 	C 	0.791	0.1412	0.07836	-0.036
Mof_H 	H 	0.502	0.0079	0.9814	0.045
Mof_H 	H 	0.4887	0.0441	0.9757	0.052
Mof_O 	O 	0.5426	0.0461	0.96774	-0.197
Mof_H 	H 	0.8024	0.1243	0.0732	0.042
Mof_H 	H 	0.8179	0.1683	0.0822	0.052
Mof_O 	O 	0.7614	0.1125	0.08787	-0.215
Mof_C 	C 	0.5274	0.0097	0.95921	0.098
Mof_C 	C 	0.7778	0.0923	0.09548	0.144
Mof_C 	C 	0.481	0.9755	0.95893	-0.064
Mof_C 	C 	0.5563	0.0182	0.94822	0
Mof_C 	C 	0.8228	0.1032	0.09558	-0.118
Mof_C 	C 	0.7488	0.0688	0.10635	-0.029
Mof_H 	H 	0.4594	0.9765	0.9646	0.063
Mof_C 	C 	0.4669	0.9397	0.95016	-0.09
Mof_C 	C 	0.5413	0.9831	0.93991	-0.028
Mof_C 	C 	0.6031	0.0562	0.9458	-0.077
Mof_C 	C 	0.837	0.0816	0.105	-0.046
Mof_H 	H 	0.8441	0.1243	0.0896	0.076
Mof_C 	C 	0.7615	0.0474	0.11521	0.002
Mof_C 	C 	0.7002	0.0566	0.10815	-0.046
Mof_H 	H 	0.438	0.9121	0.9511	0.067
Mof_C 	C 	0.4971	0.9456	0.93969	0.142
Mof_C 	C 	0.5794	0.9914	0.93026	-0.056
Mof_H 	H 	0.6131	0.0818	0.9521	0.06
Mof_C 	C 	0.6048	0.071	0.9335	0.039
Mof_C 	C 	0.6311	0.0335	0.9465	0.016
Mof_C 	C 	0.8043	0.0545	0.1154	0.086
Mof_H 	H 	0.8667	0.0846	0.1046	0.05
Mof_C 	C 	0.7286	0.0174	0.12437	-0.094
Mof_H 	H 	0.6897	0.0713	0.1017	0.055
Mof_C 	C 	0.6718	0.0079	0.10855	-0.007
Mof_C 	C 	0.7017	0.0749	0.12191	0.018
Mof_O 	O 	0.4859	0.9134	0.93094	-0.226
Mof_H 	H 	0.5697	0.9662	0.9238	0.055
Mof_C 	C 	0.5914	0.0382	0.9245	0.004
Mof_C 	C 	0.6199	0.9998	0.9376	0.042
Mof_C 	C 	0.6191	0.1154	0.9294	-0.078
Mof_C 	C 	0.6691	0.0458	0.9545	-0.061
Mof_O 	O 	0.8243	0.0374	0.12418	-0.187
Mof_H 	H 	0.74	0.0012	0.13	0.065
Mof_C 	C 	0.6862	0.9863	0.11726	0.066
Mof_C 	C 	0.7183	0.0523	0.13138	0.031
Mof_C 	C 	0.6321	0.9799	0.10137	-0.039
Mof_C 	C 	0.6871	0.1048	0.12564	-0.068
Mof_C 	C 	0.4445	0.88	0.93005	0.015
Mof_C 	C 	0.5914	0.0507	0.9105	-0.071
Mof_C 	C 	0.6392	0.9763	0.93583	-0.081
Mof_C 	C 	0.614	0.1223	0.914	-0.046
Mof_H 	H 	0.6313	0.1407	0.9351	0.054
Mof_C 	C 	0.6904	0.0218	0.9536	-0.037
Mof_H 	H 	0.679	0.0705	0.9604	0.05
Mof_C 	C 	0.8712	0.0555	0.12557	-0.073
Mof_C 	C 	0.6631	0.9414	0.1186	-0.108
Mof_C 	C 	0.7187	0.0632	0.14378	-0.08
Mof_H 	H 	0.621	0.9945	0.0958	0.055
Mof_C 	C 	0.6086	0.9333	0.1019	-0.056
Mof_H 	H 	0.6767	0.1188	0.1197	0.058
Mof_C 	C 	0.6883	0.1139	0.13864	-0.034
Mof_H 	H 	0.424	0.8931	0.9289	0.039
Mof_H 	H 	0.4361	0.8632	0.9382	0.037
Mof_C 	C 	0.4347	0.8457	0.91969	0.083
Mof_H 	H 	0.5825	0.0275	0.9042	0.047
Mof_C 	C 	0.6038	0.0942	0.907	-0.013
Mof_H 	H 	0.6272	0.9522	0.9297	0.056
Mof_C 	C 	0.6798	0.9861	0.943	-0.023
Mof_H 	H 	0.6202	0.1517	0.9111	0.042
Mof_H 	H 	0.7132	0.0267	0.9597	0.04
Mof_H 	H 	0.887	0.0896	0.126	0.064
Mof_H 	H 	0.8838	0.0468	0.1183	0.054
Mof_C 	C 	0.8784	0.0366	0.1373	0.136
Mof_C 	C 	0.6237	0.9156	0.1112	0.004
Mof_H 	H 	0.6731	0.9266	0.1244	0.068
Mof_C 	C 	0.7075	0.0943	0.14751	-0.023
Mof_H 	H 	0.7272	0.0482	0.15	0.054
Mof_H 	H 	0.584	0.9146	0.0963	0.05
Mof_H 	H 	0.6766	0.1327	0.1417	0.044
Mof_C 	C 	0.4675	0.8572	0.91042	-0.122
Mof_C 	C 	0.3943	0.8021	0.91853	-0.146
Mof_H 	H 	0.6037	0.1008	0.8983	0.029
Mof_H 	H 	0.6979	0.972	0.9414	0.036
Mof_C 	C 	0.9243	0.0473	0.1412	-0.192
Mof_C 	C 	0.8462	0.0148	0.1458	-0.173
Mof_H 	H 	0.606	0.8834	0.1128	0.028
Mof_H 	H 	0.7121	0.104	0.1561	0.039
Mof_H 	H 	0.4952	0.886	0.911	0.087
Mof_C 	C 	0.4621	0.8286	0.90009	0.071
Mof_C 	C 	0.3898	0.7752	0.90838	0.099
Mof_H 	H 	0.3707	0.7917	0.9248	0.083
Mof_H 	H 	0.9507	0.0642	0.136	0.093
Mof_C 	C 	0.927	0.031	0.15328	0.156
Mof_C 	C 	0.8511	0.9927	0.15779	0.121
Mof_H 	H 	0.8171	0.0126	0.1444	0.102
Mof_H 	H 	0.4849	0.8382	0.8937	0.027
Mof_C 	C 	0.4213	0.7847	0.89959	-0.16
Mof_H 	H 	0.3614	0.7471	0.9075	0.011
Mof_H 	H 	0.9574	0.0402	0.156	-0.001
Mof_C 	C 	0.8955	0.0058	0.16117	-0.241
Mof_H 	H 	0.8253	0.9713	0.1626	0.009
Mof_C 	C 	0.4162	0.7527	0.8892	0.424
Mof_C 	C 	0.903	0.9846	0.1719	0.478
Mof_O 	O 	0.9431	0.0066	0.17579	-0.356
Mof_Zn	Zn	0.2889	0.55435	0.37295	1.227
Mof_O 	O 	0.32617	0.61113	0.3643	-0.674
Mof_O 	O 	0.25947	0.50763	0.35967	-0.47
Mof_O 	O 	0.32537	0.53693	0.38247	-0.484
Mof_O 	O 	0.24207	0.54933	0.38338	-0.515
Mof_Zn	Zn	0.36927	0.59423	0.35673	1.23
Mof_C 	C 	0.28567	0.51103	0.35062	0.375
Mof_C 	C 	0.36747	0.54763	0.379	0.332
Mof_O 	O 	0.32677	0.53753	0.34799	-0.49
Mof_O 	O 	0.39247	0.57363	0.37015	-0.485
Mof_O 	O 	0.41867	0.62443	0.34481	-0.509
Mof_O 	O 	0.37527	0.65403	0.38722	-0.493
Mof_C 	C 	0.25807	0.47393	0.3404	-0.106
Mof_C 	C 	0.39007	0.52863	0.38795	-0.091
Mof_C 	C 	0.27977	0.47153	0.32889	0.05
Mof_C 	C 	0.21337	0.44183	0.34155	0.055
Mof_C 	C 	0.36727	0.50033	0.39902	0.029
Mof_C 	C 	0.43117	0.53213	0.3846	0.03
Mof_C 	C 	0.25607	0.43913	0.3205	-0.128
Mof_H 	H 	0.31117	0.49333	0.32733	0.027
Mof_H 	H 	0.19777	0.44253	0.34903	0.033
Mof_C 	C 	0.18807	0.40773	0.33273	-0.136
Mof_C 	C 	0.38797	0.48153	0.4065	-0.119
Mof_H 	H 	0.33727	0.49453	0.40123	0.029
Mof_H 	H 	0.44547	0.54613	0.37683	0.036
Mof_C 	C 	0.45287	0.51453	0.39296	-0.12
Mof_C 	C 	0.20897	0.40653	0.3215	0.09
Mof_H 	H 	0.27207	0.43763	0.31323	0.084
Mof_H 	H 	0.15677	0.38543	0.33433	0.074
Mof_C 	C 	0.43107	0.48983	0.40355	0.087
Mof_H 	H 	0.37217	0.46303	0.41363	0.08
Mof_H 	H 	0.48297	0.52023	0.39103	0.068
Mof_C 	C 	0.18147	0.37303	0.31151	-0.045
Mof_C 	C 	0.45767	0.47453	0.41169	-0.036
Mof_H 	H 	0.16867	0.34123	0.31473	0.047
Mof_H 	H 	0.15537	0.37743	0.30903	0.054
Mof_O 	O 	0.20927	0.37943	0.30107	-0.197
Mof_H 	H 	0.46907	0.45763	0.40653	0.042
Mof_H 	H 	0.48457	0.50163	0.41553	0.052
Mof_O 	O 	0.42807	0.44583	0.4212	-0.214
Mof_C 	C 	0.19407	0.34303	0.29254	0.101
Mof_C 	C 	0.44447	0.42563	0.42881	0.141
Mof_C 	C 	0.14767	0.30883	0.29226	-0.07
Mof_C 	C 	0.22297	0.35153	0.28155	0.008
Mof_C 	C 	0.48947	0.43653	0.42891	-0.115
Mof_C 	C 	0.41547	0.40213	0.43968	-0.022
Mof_H 	H 	0.12607	0.30983	0.29793	0.063
Mof_C 	C 	0.13357	0.27303	0.28349	-0.09
Mof_C 	C 	0.20797	0.31643	0.27324	-0.036
Mof_C 	C 	0.26977	0.38953	0.27913	-0.086
Mof_C 	C 	0.50367	0.41493	0.43833	-0.048
Mof_H 	H 	0.51077	0.45763	0.42293	0.076
Mof_C 	C 	0.42817	0.38073	0.44854	-0.006
Mof_C 	C 	0.36687	0.38993	0.44148	-0.06
Mof_H 	H 	0.10467	0.24543	0.28443	0.066
Mof_C 	C 	0.16377	0.27893	0.27302	0.143
Mof_C 	C 	0.24607	0.32473	0.26359	-0.052
Mof_H 	H 	0.27977	0.41513	0.28543	0.063
Mof_C 	C 	0.27147	0.40433	0.26683	0.042
Mof_C 	C 	0.29777	0.36683	0.27983	0.03
Mof_C 	C 	0.47097	0.38783	0.44873	0.091
Mof_H 	H 	0.53337	0.41793	0.43793	0.051
Mof_C 	C 	0.39527	0.35073	0.4577	-0.077
Mof_H 	H 	0.35637	0.40463	0.43503	0.059
Mof_C 	C 	0.33847	0.34123	0.44188	0.018
Mof_C 	C 	0.36837	0.40823	0.45524	0.024
Mof_O 	O 	0.15257	0.24673	0.26427	-0.227
Mof_H 	H 	0.23637	0.29953	0.25713	0.053
Mof_C 	C 	0.25807	0.37153	0.25783	0.005
Mof_C 	C 	0.28657	0.33313	0.27093	0.026
Mof_C 	C 	0.28577	0.44873	0.26273	-0.08
Mof_C 	C 	0.33577	0.37913	0.28783	-0.074
Mof_O 	O 	0.49097	0.37073	0.45751	-0.189
Mof_H 	H 	0.40667	0.33453	0.46333	0.061
Mof_C 	C 	0.35287	0.31963	0.45059	0.04
Mof_C 	C 	0.38497	0.38563	0.46471	0.025
Mof_C 	C 	0.29877	0.31323	0.4347	-0.062
Mof_C 	C 	0.35377	0.43813	0.45897	-0.072
Mof_C 	C 	0.11117	0.21333	0.26338	0.015
Mof_C 	C 	0.25807	0.38403	0.24383	-0.069
Mof_C 	C 	0.30587	0.30963	0.26916	-0.068
Mof_C 	C 	0.28067	0.45563	0.24733	-0.044
Mof_H 	H 	0.29797	0.47403	0.26843	0.055
Mof_C 	C 	0.35707	0.35513	0.28693	-0.021
Mof_H 	H 	0.34567	0.40383	0.29373	0.055
Mof_C 	C 	0.53787	0.38883	0.4589	-0.065
Mof_C 	C 	0.32977	0.27473	0.45193	-0.087
Mof_C 	C 	0.38537	0.39653	0.47711	-0.075
Mof_H 	H 	0.28767	0.32783	0.42913	0.061
Mof_C 	C 	0.27527	0.26663	0.43523	-0.037
Mof_H 	H 	0.34337	0.45213	0.45303	0.06
Mof_C 	C 	0.35497	0.44723	0.47197	-0.03
Mof_H 	H 	0.09067	0.22643	0.26223	0.038
Mof_H 	H 	0.10277	0.19653	0.27153	0.037
Mof_C 	C 	0.10137	0.17903	0.25302	0.083
Mof_H 	H 	0.24917	0.36083	0.23753	0.048
Mof_C 	C 	0.27047	0.42753	0.24033	-0.014
Mof_H 	H 	0.29387	0.28553	0.26303	0.052
Mof_C 	C 	0.34647	0.31943	0.27633	-0.037
Mof_H 	H 	0.28687	0.48503	0.24443	0.041
Mof_H 	H 	0.37987	0.36003	0.29303	0.036
Mof_H 	H 	0.55367	0.42293	0.45933	0.062
Mof_H 	H 	0.55047	0.38013	0.45163	0.052
Mof_C 	C 	0.54507	0.36993	0.47063	0.123
Mof_C 	C 	0.29037	0.24893	0.44453	-0.015
Mof_H 	H 	0.33977	0.25993	0.45773	0.059
Mof_C 	C 	0.37417	0.42763	0.48084	-0.027
Mof_H 	H 	0.39387	0.38153	0.48333	0.053
Mof_H 	H 	0.25067	0.24793	0.42963	0.042
Mof_H 	H 	0.34327	0.46603	0.47503	0.043
Mof_C 	C 	0.13417	0.19053	0.24375	-0.122
Mof_C 	C 	0.06097	0.13543	0.25186	-0.147
Mof_H 	H 	0.27037	0.43413	0.23163	0.03
Mof_H 	H 	0.36457	0.30533	0.27473	0.04
Mof_C 	C 	0.59097	0.38063	0.47453	-0.178
Mof_C 	C 	0.51287	0.34813	0.47913	-0.155
Mof_H 	H 	0.27267	0.21673	0.44613	0.033
Mof_H 	H 	0.37877	0.43733	0.48943	0.041
Mof_H 	H 	0.16187	0.21933	0.24433	0.087
Mof_C 	C 	0.12877	0.16193	0.23342	0.071
Mof_C 	C 	0.05647	0.10853	0.24171	0.099
Mof_H 	H 	0.03737	0.12503	0.25813	0.082
Mof_H 	H 	0.61737	0.39753	0.46933	0.088
Mof_C 	C 	0.59367	0.36433	0.48661	0.136
Mof_C 	C 	0.51777	0.32603	0.49112	0.095
Mof_H 	H 	0.48377	0.34593	0.47773	0.097
Mof_H 	H 	0.15157	0.17153	0.22703	0.026
Mof_C 	C 	0.08797	0.11803	0.23292	-0.161
Mof_H 	H 	0.02807	0.08043	0.24083	0.009
Mof_H 	H 	0.62407	0.37353	0.48933	0.005
Mof_C 	C 	0.56217	0.33913	0.4945	-0.213
Mof_H 	H 	0.49197	0.30463	0.49593	0.016
Mof_C 	C 	0.08287	0.08603	0.22253	0.425
Mof_C 	C 	0.56967	0.31793	0.50523	0.459
Mof_O 	O 	0.60977	0.33993	0.50912	-0.349
Mof_Zn	Zn	0.95556	0.88769	0.70629	1.227
Mof_O 	O 	0.99283	0.94447	0.69764	-0.669
Mof_O 	O 	0.92613	0.84097	0.69301	-0.47
Mof_O 	O 	0.99203	0.87027	0.71581	-0.48
Mof_O 	O 	0.90873	0.88267	0.71672	-0.515
Mof_Zn	Zn	0.03593	0.92757	0.69007	1.229
Mof_C 	C 	0.95233	0.84437	0.68396	0.375
Mof_C 	C 	0.03413	0.88097	0.71234	0.327
Mof_O 	O 	0.99343	0.87087	0.68133	-0.488
Mof_O 	O 	0.05913	0.90697	0.70349	-0.484
Mof_O 	O 	0.08533	0.95777	0.67815	-0.516
Mof_O 	O 	0.04193	0.98737	0.72056	-0.494
Mof_C 	C 	0.92473	0.80727	0.67374	-0.106
Mof_C 	C 	0.05673	0.86197	0.72129	-0.09
Mof_C 	C 	0.94643	0.80487	0.66223	0.05
Mof_C 	C 	0.88003	0.77517	0.67489	0.055
Mof_C 	C 	0.03393	0.83367	0.73236	0.028
Mof_C 	C 	0.09783	0.86547	0.71794	0.029
Mof_C 	C 	0.92273	0.77247	0.65384	-0.128
Mof_H 	H 	0.97783	0.82667	0.66067	0.028
Mof_H 	H 	0.86443	0.77587	0.68237	0.033
Mof_C 	C 	0.85473	0.74107	0.66607	-0.136
Mof_C 	C 	0.05463	0.81487	0.73984	-0.119
Mof_H 	H 	0.00393	0.82787	0.73457	0.027
Mof_H 	H 	0.11213	0.87947	0.71017	0.037
Mof_C 	C 	0.11953	0.84787	0.7263	-0.12
Mof_C 	C 	0.87563	0.73987	0.65484	0.09
Mof_H 	H 	0.93873	0.77097	0.64657	0.085
Mof_H 	H 	0.82343	0.71877	0.66767	0.074
Mof_C 	C 	0.09773	0.82317	0.73689	0.086
Mof_H 	H 	0.03883	0.79637	0.74697	0.079
Mof_H 	H 	0.14963	0.85357	0.72437	0.067
Mof_C 	C 	0.84813	0.70637	0.64485	-0.045
Mof_C 	C 	0.12433	0.80787	0.74503	-0.036
Mof_H 	H 	0.83533	0.67457	0.64807	0.047
Mof_H 	H 	0.82203	0.71077	0.64237	0.054
Mof_O 	O 	0.87593	0.71277	0.63441	-0.196
Mof_H 	H 	0.13573	0.79097	0.73987	0.042
Mof_H 	H 	0.15123	0.83497	0.74887	0.052
Mof_O 	O 	0.09473	0.77917	0.75454	-0.214
Mof_C 	C 	0.86073	0.67637	0.62588	0.099
Mof_C 	C 	0.11113	0.75897	0.76215	0.14
Mof_C 	C 	0.81433	0.64217	0.6256	-0.068
Mof_C 	C 	0.88963	0.68487	0.61489	0.012
Mof_C 	C 	0.15613	0.76987	0.76225	-0.114
Mof_C 	C 	0.08213	0.73547	0.77302	-0.02
Mof_H 	H 	0.79273	0.64317	0.63127	0.063
Mof_C 	C 	0.80023	0.60637	0.61683	-0.091
Mof_C 	C 	0.87463	0.64977	0.60658	-0.04
Mof_C 	C 	0.93643	0.72287	0.61247	-0.097
Mof_C 	C 	0.17033	0.74827	0.77167	-0.049
Mof_H 	H 	0.17743	0.79097	0.75627	0.075
Mof_C 	C 	0.09483	0.71407	0.78188	-0.009
Mof_C 	C 	0.03353	0.72327	0.77482	-0.062
Mof_H 	H 	0.77133	0.57877	0.61777	0.067
Mof_C 	C 	0.83043	0.61227	0.60636	0.145
Mof_C 	C 	0.91273	0.65807	0.59693	-0.043
Mof_H 	H 	0.94643	0.74847	0.61877	0.066
Mof_C 	C 	0.93813	0.73767	0.60017	0.05
Mof_C 	C 	0.96443	0.70017	0.61317	0.048
Mof_C 	C 	0.13763	0.72117	0.78207	0.092
Mof_H 	H 	0.20003	0.75127	0.77127	0.051
Mof_C 	C 	0.06193	0.68407	0.79104	-0.069
Mof_H 	H 	0.02303	0.73797	0.76837	0.058
Mof_C 	C 	0.00513	0.67457	0.77522	0.021
Mof_C 	C 	0.03503	0.74157	0.78858	0.025
Mof_O 	O 	0.81923	0.58007	0.59761	-0.227
Mof_H 	H 	0.90303	0.63287	0.59047	0.051
Mof_C 	C 	0.92473	0.70487	0.59117	-0.001
Mof_C 	C 	0.95323	0.66647	0.60427	0.011
Mof_C 	C 	0.95243	0.78207	0.59607	-0.086
Mof_C 	C 	0.00243	0.71247	0.62117	-0.093
Mof_O 	O 	0.15763	0.70407	0.79085	-0.19
Mof_H 	H 	0.07333	0.66787	0.79667	0.059
Mof_C 	C 	0.01953	0.65297	0.78393	0.024
Mof_C 	C 	0.05163	0.71897	0.79805	0.022
Mof_C 	C 	0.96543	0.64657	0.76804	-0.064
Mof_C 	C 	0.02043	0.77147	0.79231	-0.074
Mof_C 	C 	0.77783	0.54667	0.59672	0.015
Mof_C 	C 	0.92473	0.71737	0.57717	-0.062
Mof_C 	C 	0.97253	0.64297	0.6025	-0.048
Mof_C 	C 	0.94733	0.78897	0.58067	-0.034
Mof_H 	H 	0.96463	0.80737	0.60177	0.057
Mof_C 	C 	0.02373	0.68847	0.62027	-0.008
Mof_H 	H 	0.01233	0.73717	0.62707	0.059
Mof_C 	C 	0.20453	0.72217	0.79224	-0.065
Mof_C 	C 	0.99643	0.60807	0.78527	-0.06
Mof_C 	C 	0.05203	0.72987	0.81045	-0.073
Mof_H 	H 	0.95433	0.66117	0.76247	0.062
Mof_C 	C 	0.94193	0.59997	0.76857	-0.027
Mof_H 	H 	0.01003	0.78547	0.78637	0.059
Mof_C 	C 	0.02163	0.78057	0.80531	-0.03
Mof_H 	H 	0.75733	0.55977	0.59557	0.038
Mof_H 	H 	0.76943	0.52987	0.60487	0.037
Mof_C 	C 	0.76803	0.51237	0.58636	0.083
Mof_H 	H 	0.91583	0.69417	0.57087	0.046
Mof_C 	C 	0.93713	0.76087	0.57367	-0.025
Mof_H 	H 	0.96053	0.61887	0.59637	0.046
Mof_C 	C 	0.01313	0.65277	0.60967	-0.054
Mof_H 	H 	0.95353	0.81837	0.57777	0.039
Mof_H 	H 	0.04653	0.69337	0.62637	0.031
Mof_H 	H 	0.22033	0.75627	0.79267	0.062
Mof_H 	H 	0.21713	0.71347	0.78497	0.052
Mof_C 	C 	0.21173	0.70327	0.80397	0.123
Mof_C 	C 	0.95703	0.58227	0.77787	-0.029
Mof_H 	H 	0.00643	0.59327	0.79107	0.048
Mof_C 	C 	0.04083	0.76097	0.81418	-0.029
Mof_H 	H 	0.06053	0.71487	0.81667	0.052
Mof_H 	H 	0.91733	0.58127	0.76297	0.04
Mof_H 	H 	0.00993	0.79937	0.80837	0.042
Mof_C 	C 	0.80083	0.52387	0.57709	-0.122
Mof_C 	C 	0.72763	0.46877	0.5852	-0.146
Mof_H 	H 	0.93703	0.76747	0.56497	0.034
Mof_H 	H 	0.03123	0.63867	0.60807	0.045
Mof_C 	C 	0.25763	0.71397	0.80787	-0.178
Mof_C 	C 	0.17953	0.68147	0.81247	-0.155
Mof_H 	H 	0.93933	0.55007	0.77947	0.039
Mof_H 	H 	0.04543	0.77067	0.82277	0.041
Mof_H 	H 	0.82853	0.55267	0.57767	0.087
Mof_C 	C 	0.79543	0.49527	0.56676	0.071
Mof_C 	C 	0.72313	0.44187	0.57505	0.098
Mof_H 	H 	0.70403	0.45837	0.59147	0.083
Mof_H 	H 	0.28403	0.73087	0.80267	0.088
Mof_C 	C 	0.26033	0.69767	0.81995	0.136
Mof_C 	C 	0.18443	0.65937	0.82446	0.095
Mof_H 	H 	0.15043	0.67927	0.81107	0.097
Mof_H 	H 	0.81823	0.50487	0.56037	0.027
Mof_C 	C 	0.75463	0.45137	0.56626	-0.16
Mof_H 	H 	0.69473	0.41377	0.57417	0.011
Mof_H 	H 	0.29073	0.70687	0.82267	0.005
Mof_C 	C 	0.22883	0.67247	0.82784	-0.214
Mof_H 	H 	0.15863	0.63797	0.82927	0.016
Mof_C 	C 	0.74953	0.41937	0.55587	0.424
Mof_C 	C 	0.23633	0.65127	0.83857	0.46
Mof_O 	O 	0.27643	0.67327	0.84246	-0.349
Mof_Zn	Zn	0.59879	0.22102	0.53962	1.227
Mof_O 	O 	0.6183	0.2778	0.53097	-0.674
Mof_O 	O 	0.5815	0.1743	0.52634	-0.47
Mof_O 	O 	0.5449	0.2036	0.54914	-0.484
Mof_O 	O 	0.6406	0.216	0.55005	-0.515
Mof_Zn	Zn	0.5583	0.2609	0.5234	1.23
Mof_C 	C 	0.5587	0.1777	0.51729	0.375
Mof_C 	C 	0.5135	0.2143	0.54567	0.332
Mof_O 	O 	0.5441	0.2042	0.51466	-0.49
Mof_O 	O 	0.5145	0.2403	0.53682	-0.485
Mof_O 	O 	0.5391	0.2911	0.51148	-0.509
Mof_O 	O 	0.6121	0.3207	0.55389	-0.493
Mof_C 	C 	0.5492	0.1406	0.50707	-0.106
Mof_C 	C 	0.4719	0.1953	0.55462	-0.091
Mof_C 	C 	0.5251	0.1382	0.49556	0.05
Mof_C 	C 	0.5618	0.1085	0.50822	0.054
Mof_C 	C 	0.4664	0.167	0.56569	0.029
Mof_C 	C 	0.4343	0.1988	0.55127	0.03
Mof_C 	C 	0.5164	0.1058	0.48717	-0.127
Mof_H 	H 	0.5155	0.16	0.494	0.027
Mof_H 	H 	0.5781	0.1092	0.5157	0.033
Mof_C 	C 	0.553	0.0744	0.4994	-0.136
Mof_C 	C 	0.4269	0.1482	0.57317	-0.119
Mof_H 	H 	0.4906	0.1612	0.5679	0.029
Mof_H 	H 	0.434	0.2128	0.5435	0.036
Mof_C 	C 	0.395	0.1812	0.55963	-0.12
Mof_C 	C 	0.5309	0.0732	0.48817	0.089
Mof_H 	H 	0.4989	0.1043	0.4799	0.084
Mof_H 	H 	0.562	0.0521	0.501	0.073
Mof_C 	C 	0.3921	0.1565	0.57022	0.086
Mof_H 	H 	0.4242	0.1297	0.5803	0.08
Mof_H 	H 	0.3706	0.1869	0.5577	0.067
Mof_C 	C 	0.5249	0.0397	0.47818	-0.044
Mof_C 	C 	0.3502	0.1412	0.57836	-0.035
Mof_H 	H 	0.5059	0.0079	0.4814	0.045
Mof_H 	H 	0.5554	0.0441	0.4757	0.052
Mof_O 	O 	0.5035	0.0461	0.46774	-0.197
Mof_H 	H 	0.3219	0.1243	0.5732	0.041
Mof_H 	H 	0.3504	0.1683	0.5822	0.052
Mof_O 	O 	0.3511	0.1125	0.58787	-0.215
Mof_C 	C 	0.4823	0.0097	0.45921	0.098
Mof_C 	C 	0.3145	0.0923	0.59548	0.144
Mof_C 	C 	0.4945	0.9755	0.45893	-0.064
Mof_C 	C 	0.4619	0.0182	0.44822	0
Mof_C 	C 	0.2804	0.1032	0.59558	-0.118
Mof_C 	C 	0.32	0.0688	0.60635	-0.029
Mof_H 	H 	0.5171	0.9765	0.4646	0.063
Mof_C 	C 	0.4728	0.9397	0.45016	-0.09
Mof_C 	C 	0.4418	0.9831	0.43991	-0.028
Mof_C 	C 	0.4531	0.0562	0.4458	-0.077
Mof_C 	C 	0.2446	0.0816	0.605	-0.045
Mof_H 	H 	0.2802	0.1243	0.5896	0.076
Mof_C 	C 	0.2859	0.0474	0.61521	0.002
Mof_C 	C 	0.3564	0.0566	0.60815	-0.046
Mof_H 	H 	0.4741	0.9121	0.4511	0.067
Mof_C 	C 	0.4485	0.9456	0.43969	0.141
Mof_C 	C 	0.412	0.9914	0.43026	-0.056
Mof_H 	H 	0.4687	0.0818	0.4521	0.06
Mof_C 	C 	0.4662	0.071	0.4335	0.038
Mof_C 	C 	0.4024	0.0335	0.4465	0.015
Mof_C 	C 	0.2502	0.0545	0.6154	0.086
Mof_H 	H 	0.2179	0.0846	0.6046	0.05
Mof_C 	C 	0.2888	0.0174	0.62437	-0.094
Mof_H 	H 	0.3816	0.0713	0.6017	0.055
Mof_C 	C 	0.3361	0.0079	0.60855	-0.008
Mof_C 	C 	0.3732	0.0749	0.62191	0.018
Mof_O 	O 	0.4275	0.9134	0.43094	-0.226
Mof_H 	H 	0.3965	0.9662	0.4238	0.055
Mof_C 	C 	0.4468	0.0382	0.4245	0.004
Mof_C 	C 	0.3799	0.9998	0.4376	0.043
Mof_C 	C 	0.4963	0.1154	0.4294	-0.078
Mof_C 	C 	0.3767	0.0458	0.4545	-0.061
Mof_O 	O 	0.2131	0.0374	0.62418	-0.188
Mof_H 	H 	0.2612	0.0012	0.63	0.065
Mof_C 	C 	0.3001	0.9863	0.61726	0.067
Mof_C 	C 	0.334	0.0523	0.63138	0.031
Mof_C 	C 	0.3478	0.9799	0.60137	-0.038
Mof_C 	C 	0.4177	0.1048	0.62564	-0.068
Mof_C 	C 	0.4355	0.88	0.43005	0.014
Mof_C 	C 	0.4593	0.0507	0.4105	-0.071
Mof_C 	C 	0.3371	0.9763	0.43583	-0.081
Mof_C 	C 	0.5083	0.1223	0.414	-0.047
Mof_H 	H 	0.5094	0.1407	0.4351	0.054
Mof_C 	C 	0.3314	0.0218	0.4536	-0.037
Mof_H 	H 	0.3915	0.0705	0.4604	0.05
Mof_C 	C 	0.1843	0.0555	0.62557	-0.073
Mof_C 	C 	0.2783	0.9414	0.6186	-0.109
Mof_C 	C 	0.3445	0.0632	0.64378	-0.08
Mof_H 	H 	0.3735	0.9945	0.5958	0.055
Mof_C 	C 	0.3247	0.9333	0.6019	-0.057
Mof_H 	H 	0.4421	0.1188	0.6197	0.058
Mof_C 	C 	0.4256	0.1139	0.63864	-0.034
Mof_H 	H 	0.4691	0.8931	0.4289	0.039
Mof_H 	H 	0.4271	0.8632	0.4382	0.037
Mof_C 	C 	0.411	0.8457	0.41969	0.083
Mof_H 	H 	0.445	0.0275	0.4042	0.047
Mof_C 	C 	0.4904	0.0942	0.407	-0.012
Mof_H 	H 	0.325	0.9522	0.4297	0.057
Mof_C 	C 	0.3063	0.9861	0.443	-0.023
Mof_H 	H 	0.5315	0.1517	0.4111	0.042
Mof_H 	H 	0.3135	0.0267	0.4597	0.04
Mof_H 	H 	0.2026	0.0896	0.626	0.064
Mof_H 	H 	0.163	0.0468	0.6183	0.053
Mof_C 	C 	0.1582	0.0366	0.6373	0.137
Mof_C 	C 	0.2919	0.9156	0.6112	0.005
Mof_H 	H 	0.2535	0.9266	0.6244	0.068
Mof_C 	C 	0.3868	0.0943	0.64751	-0.023
Mof_H 	H 	0.321	0.0482	0.65	0.054
Mof_H 	H 	0.3306	0.9146	0.5963	0.05
Mof_H 	H 	0.4561	0.1327	0.6417	0.044
Mof_C 	C 	0.3897	0.8572	0.41042	-0.122
Mof_C 	C 	0.4078	0.8021	0.41853	-0.146
Mof_H 	H 	0.4971	0.1008	0.3983	0.028
Mof_H 	H 	0.2741	0.972	0.4414	0.036
Mof_C 	C 	0.123	0.0473	0.6412	-0.194
Mof_C 	C 	0.1686	0.0148	0.6458	-0.175
Mof_H 	H 	0.2774	0.8834	0.6128	0.027
Mof_H 	H 	0.3919	0.104	0.6561	0.039
Mof_H 	H 	0.3908	0.886	0.411	0.087
Mof_C 	C 	0.3665	0.8286	0.40009	0.071
Mof_C 	C 	0.3854	0.7752	0.40838	0.099
Mof_H 	H 	0.421	0.7917	0.4248	0.083
Mof_H 	H 	0.1135	0.0642	0.636	0.092
Mof_C 	C 	0.104	0.031	0.65328	0.158
Mof_C 	C 	0.1416	0.9927	0.65779	0.123
Mof_H 	H 	0.1955	0.0126	0.6444	0.102
Mof_H 	H 	0.3533	0.8382	0.3937	0.027
Mof_C 	C 	0.3634	0.7847	0.39959	-0.16
Mof_H 	H 	0.3857	0.7471	0.4075	0.011
Mof_H 	H 	0.0828	0.0402	0.656	-0.003
Mof_C 	C 	0.1103	0.0058	0.66117	-0.245
Mof_H 	H 	0.146	0.9713	0.6626	0.007
Mof_C 	C 	0.3365	0.7527	0.3892	0.424
Mof_C 	C 	0.0816	0.9846	0.6719	0.481
Mof_O 	O 	0.0635	0.0066	0.67579	-0.359
Mof_Zn	Zn	0.26546	0.55435	0.87295	1.227
Mof_O 	O 	0.28497	0.61113	0.8643	-0.674
Mof_O 	O 	0.24817	0.50763	0.85967	-0.47
Mof_O 	O 	0.21157	0.53693	0.88247	-0.484
Mof_O 	O 	0.30727	0.54933	0.88338	-0.515
Mof_Zn	Zn	0.22497	0.59423	0.85673	1.23
Mof_C 	C 	0.22537	0.51103	0.85062	0.375
Mof_C 	C 	0.18017	0.54763	0.879	0.333
Mof_O 	O 	0.21077	0.53753	0.84799	-0.49
Mof_O 	O 	0.18117	0.57363	0.87015	-0.485
Mof_O 	O 	0.20577	0.62443	0.84481	-0.51
Mof_O 	O 	0.27877	0.65403	0.88722	-0.493
Mof_C 	C 	0.21587	0.47393	0.8404	-0.106
Mof_C 	C 	0.13857	0.52863	0.88795	-0.092
Mof_C 	C 	0.19177	0.47153	0.82889	0.05
Mof_C 	C 	0.22847	0.44183	0.84155	0.055
Mof_C 	C 	0.13307	0.50033	0.89902	0.03
Mof_C 	C 	0.10097	0.53213	0.8846	0.031
Mof_C 	C 	0.18307	0.43913	0.8205	-0.128
Mof_H 	H 	0.18217	0.49333	0.82733	0.027
Mof_H 	H 	0.24477	0.44253	0.84903	0.033
Mof_C 	C 	0.21967	0.40773	0.83273	-0.136
Mof_C 	C 	0.09357	0.48153	0.9065	-0.122
Mof_H 	H 	0.15727	0.49453	0.90123	0.028
Mof_H 	H 	0.10067	0.54613	0.87683	0.036
Mof_C 	C 	0.06167	0.51453	0.89296	-0.123
Mof_C 	C 	0.19757	0.40653	0.8215	0.09
Mof_H 	H 	0.16557	0.43763	0.81323	0.084
Mof_H 	H 	0.22867	0.38543	0.83433	0.074
Mof_C 	C 	0.05877	0.48983	0.90355	0.09
Mof_H 	H 	0.09087	0.46303	0.91363	0.081
Mof_H 	H 	0.03727	0.52023	0.89103	0.067
Mof_C 	C 	0.19157	0.37303	0.81151	-0.045
Mof_C 	C 	0.01687	0.47453	0.91169	-0.045
Mof_H 	H 	0.17257	0.34123	0.81473	0.047
Mof_H 	H 	0.22207	0.37743	0.80903	0.054
Mof_O 	O 	0.17017	0.37943	0.80107	-0.197
Mof_H 	H 	0.98857	0.45763	0.90653	0.048
Mof_H 	H 	0.01707	0.50163	0.91553	0.053
Mof_O 	O 	0.01777	0.44583	0.9212	-0.216
Mof_C 	C 	0.14897	0.34303	0.79254	0.102
Mof_C 	C 	0.98117	0.42563	0.92881	0.143
Mof_C 	C 	0.16117	0.30883	0.79226	-0.071
Mof_C 	C 	0.12857	0.35153	0.78155	0.006
Mof_C 	C 	0.94707	0.43653	0.92891	-0.116
Mof_C 	C 	0.98667	0.40213	0.93968	-0.016
Mof_H 	H 	0.18377	0.30983	0.79793	0.063
Mof_C 	C 	0.13947	0.27303	0.78349	-0.089
Mof_C 	C 	0.10847	0.31643	0.77324	-0.034
Mof_C 	C 	0.11977	0.38953	0.77913	-0.082
Mof_C 	C 	0.91127	0.41493	0.93833	-0.048
Mof_H 	H 	0.94687	0.45763	0.92293	0.077
Mof_C 	C 	0.95257	0.38073	0.94854	-0.007
Mof_C 	C 	0.02307	0.38993	0.94148	-0.065
Mof_H 	H 	0.14077	0.24543	0.78443	0.066
Mof_C 	C 	0.11517	0.27893	0.77302	0.142
Mof_C 	C 	0.07867	0.32473	0.76359	-0.058
Mof_H 	H 	0.13537	0.41513	0.78543	0.062
Mof_C 	C 	0.13287	0.40433	0.76683	0.039
Mof_C 	C 	0.06907	0.36683	0.77983	0.026
Mof_C 	C 	0.91687	0.38783	0.94873	0.091
Mof_H 	H 	0.88457	0.41793	0.93793	0.051
Mof_C 	C 	0.95547	0.35073	0.9577	-0.073
Mof_H 	H 	0.04827	0.40463	0.93503	0.06
Mof_C 	C 	0.00277	0.34123	0.94188	0.019
Mof_C 	C 	0.03987	0.40823	0.95524	0.024
Mof_O 	O 	0.09417	0.24673	0.76427	-0.227
Mof_H 	H 	0.06317	0.29953	0.75713	0.054
Mof_C 	C 	0.11347	0.37153	0.75783	0.008
Mof_C 	C 	0.04657	0.33313	0.77093	0.038
Mof_C 	C 	0.16297	0.44873	0.76273	-0.078
Mof_C 	C 	0.04337	0.37913	0.78783	-0.077
Mof_O 	O 	0.87977	0.37073	0.95751	-0.189
Mof_H 	H 	0.92787	0.33453	0.96333	0.061
Mof_C 	C 	0.96677	0.31963	0.95059	0.041
Mof_C 	C 	0.00067	0.38563	0.96471	0.024
Mof_C 	C 	0.01447	0.31323	0.9347	-0.073
Mof_C 	C 	0.08437	0.43813	0.95897	-0.071
Mof_C 	C 	0.10217	0.21333	0.76338	0.015
Mof_C 	C 	0.12597	0.38403	0.74383	-0.073
Mof_C 	C 	0.00377	0.30963	0.76916	-0.091
Mof_C 	C 	0.17497	0.45563	0.74733	-0.048
Mof_H 	H 	0.17607	0.47403	0.76843	0.054
Mof_C 	C 	0.99807	0.35513	0.78693	-0.019
Mof_H 	H 	0.05817	0.40383	0.79373	0.055
Mof_C 	C 	0.85097	0.38883	0.9589	-0.065
Mof_C 	C 	0.94497	0.27473	0.95193	-0.083
Mof_C 	C 	0.01117	0.39653	0.97711	-0.085
Mof_H 	H 	0.04017	0.32783	0.92913	0.064
Mof_C 	C 	0.99137	0.26663	0.93523	-0.025
Mof_H 	H 	0.10877	0.45213	0.95303	0.059
Mof_C 	C 	0.09227	0.44723	0.97197	-0.033
Mof_H 	H 	0.13577	0.22643	0.76223	0.039
Mof_H 	H 	0.09377	0.19653	0.77153	0.036
Mof_C 	C 	0.07767	0.17903	0.75302	0.082
Mof_H 	H 	0.11167	0.36083	0.73753	0.049
Mof_C 	C 	0.15707	0.42753	0.74033	-0.01
Mof_H 	H 	0.99167	0.28553	0.76303	0.063
Mof_C 	C 	0.97297	0.31943	0.77633	-0.024
Mof_H 	H 	0.19817	0.48503	0.74443	0.043
Mof_H 	H 	0.98017	0.36003	0.79303	0.037
Mof_H 	H 	0.86927	0.42293	0.95933	0.062
Mof_H 	H 	0.82967	0.38013	0.95163	0.052
Mof_C 	C 	0.82487	0.36993	0.97063	0.123
Mof_C 	C 	0.95857	0.24893	0.94453	-0.02
Mof_H 	H 	0.92017	0.25993	0.95773	0.059
Mof_C 	C 	0.05347	0.42763	0.98084	-0.021
Mof_H 	H 	0.98767	0.38153	0.98333	0.06
Mof_H 	H 	0.99727	0.24793	0.92963	0.04
Mof_H 	H 	0.12277	0.46603	0.97503	0.044
Mof_C 	C 	0.05637	0.19053	0.74375	-0.121
Mof_C 	C 	0.07447	0.13543	0.75186	-0.145
Mof_H 	H 	0.16377	0.43413	0.73163	0.028
Mof_H 	H 	0.94077	0.30533	0.77473	0.036
Mof_C 	C 	0.78967	0.38063	0.97453	-0.178
Mof_C 	C 	0.83527	0.34813	0.97913	-0.155
Mof_H 	H 	0.94407	0.21673	0.94613	0.036
Mof_H 	H 	0.05857	0.43733	0.98943	0.038
Mof_H 	H 	0.05747	0.21933	0.74433	0.086
Mof_C 	C 	0.03317	0.16193	0.73342	0.069
Mof_C 	C 	0.05207	0.10853	0.74171	0.097
Mof_H 	H 	0.08767	0.12503	0.75813	0.083
Mof_H 	H 	0.78017	0.39753	0.96933	0.088
Mof_C 	C 	0.77067	0.36433	0.98661	0.136
Mof_C 	C 	0.80827	0.32603	0.99112	0.095
Mof_H 	H 	0.86217	0.34593	0.97773	0.097
Mof_H 	H 	0.01997	0.17153	0.72703	0.026
Mof_C 	C 	0.03007	0.11803	0.73292	-0.159
Mof_H 	H 	0.05237	0.08043	0.74083	0.011
Mof_H 	H 	0.74947	0.37353	0.98933	0.005
Mof_C 	C 	0.77697	0.33913	0.9945	-0.214
Mof_H 	H 	0.81267	0.30463	0.99593	0.016
Mof_C 	C 	0.00317	0.08603	0.72253	0.418
Mof_C 	C 	0.74827	0.31793	0.00523	0.459
Mof_O 	O 	0.73017	0.33993	0.00912	-0.349
Mof_Zn	Zn	0.93212	0.88769	0.20629	1.227
Mof_O 	O 	0.95163	0.94447	0.19764	-0.671
Mof_O 	O 	0.91483	0.84097	0.19301	-0.469
Mof_O 	O 	0.87823	0.87027	0.21581	-0.484
Mof_O 	O 	0.97393	0.88267	0.21672	-0.51
Mof_Zn	Zn	0.89163	0.92757	0.19007	1.23
Mof_C 	C 	0.89203	0.84437	0.18396	0.375
Mof_C 	C 	0.84683	0.88097	0.21234	0.332
Mof_O 	O 	0.87743	0.87087	0.18133	-0.49
Mof_O 	O 	0.84783	0.90697	0.20349	-0.484
Mof_O 	O 	0.87243	0.95777	0.17815	-0.514
Mof_O 	O 	0.94543	0.98737	0.22056	-0.491
Mof_C 	C 	0.88253	0.80727	0.17374	-0.106
Mof_C 	C 	0.80523	0.86197	0.22129	-0.09
Mof_C 	C 	0.85843	0.80487	0.16223	0.05
Mof_C 	C 	0.89513	0.77517	0.17489	0.055
Mof_C 	C 	0.79973	0.83367	0.23236	0.029
Mof_C 	C 	0.76763	0.86547	0.21794	0.03
Mof_C 	C 	0.84973	0.77247	0.15384	-0.128
Mof_H 	H 	0.84883	0.82667	0.16067	0.027
Mof_H 	H 	0.91143	0.77587	0.18237	0.034
Mof_C 	C 	0.88633	0.74107	0.16607	-0.136
Mof_C 	C 	0.76023	0.81487	0.23984	-0.119
Mof_H 	H 	0.82393	0.82787	0.23457	0.029
Mof_H 	H 	0.76733	0.87947	0.21017	0.037
Mof_C 	C 	0.72833	0.84787	0.2263	-0.12
Mof_C 	C 	0.86423	0.73987	0.15484	0.09
Mof_H 	H 	0.83223	0.77097	0.14657	0.084
Mof_H 	H 	0.89533	0.71877	0.16767	0.074
Mof_C 	C 	0.72543	0.82317	0.23689	0.087
Mof_H 	H 	0.75753	0.79637	0.24697	0.08
Mof_H 	H 	0.70393	0.85357	0.22437	0.068
Mof_C 	C 	0.85823	0.70637	0.14485	-0.045
Mof_C 	C 	0.68353	0.80787	0.24503	-0.036
Mof_H 	H 	0.83923	0.67457	0.14807	0.047
Mof_H 	H 	0.88873	0.71077	0.14237	0.054
Mof_O 	O 	0.83683	0.71277	0.13441	-0.197
Mof_H 	H 	0.65523	0.79097	0.23987	0.042
Mof_H 	H 	0.68373	0.83497	0.24887	0.052
Mof_O 	O 	0.68443	0.77917	0.25454	-0.214
Mof_C 	C 	0.81563	0.67637	0.12588	0.101
Mof_C 	C 	0.64783	0.75897	0.26215	0.141
Mof_C 	C 	0.82783	0.64217	0.1256	-0.07
Mof_C 	C 	0.79523	0.68487	0.11489	0.008
Mof_C 	C 	0.61373	0.76987	0.26225	-0.115
Mof_C 	C 	0.65333	0.73547	0.27302	-0.022
Mof_H 	H 	0.85043	0.64317	0.13127	0.063
Mof_C 	C 	0.80613	0.60637	0.11683	-0.09
Mof_C 	C 	0.77513	0.64977	0.10658	-0.036
Mof_C 	C 	0.78643	0.72287	0.11247	-0.086
Mof_C 	C 	0.57793	0.74827	0.27167	-0.048
Mof_H 	H 	0.61353	0.79097	0.25627	0.076
Mof_C 	C 	0.61923	0.71407	0.28188	-0.006
Mof_C 	C 	0.68973	0.72327	0.27482	-0.06
Mof_H 	H 	0.80743	0.57877	0.11777	0.066
Mof_C 	C 	0.78183	0.61227	0.10636	0.143
Mof_C 	C 	0.74533	0.65807	0.09693	-0.052
Mof_H 	H 	0.80203	0.74847	0.11877	0.063
Mof_C 	C 	0.79953	0.73767	0.10017	0.042
Mof_C 	C 	0.73573	0.70017	0.11317	0.031
Mof_C 	C 	0.58353	0.72117	0.28207	0.091
Mof_H 	H 	0.55123	0.75127	0.27127	0.051
Mof_C 	C 	0.62213	0.68407	0.29104	-0.077
Mof_H 	H 	0.71493	0.73797	0.26837	0.059
Mof_C 	C 	0.66943	0.67457	0.27522	0.018
Mof_C 	C 	0.70653	0.74157	0.28858	0.024
Mof_O 	O 	0.76083	0.58007	0.09761	-0.227
Mof_H 	H 	0.72983	0.63287	0.09047	0.053
Mof_C 	C 	0.78013	0.70487	0.09117	0.005
Mof_C 	C 	0.71323	0.66647	0.10427	0.026
Mof_C 	C 	0.82963	0.78207	0.09607	-0.081
Mof_C 	C 	0.71003	0.71247	0.12117	-0.074
Mof_O 	O 	0.54643	0.70407	0.29085	-0.189
Mof_H 	H 	0.59453	0.66787	0.29667	0.061
Mof_C 	C 	0.63343	0.65297	0.28393	0.04
Mof_C 	C 	0.66733	0.71897	0.29805	0.025
Mof_C 	C 	0.68113	0.64657	0.26804	-0.062
Mof_C 	C 	0.75103	0.77147	0.29231	-0.072
Mof_C 	C 	0.76883	0.54667	0.09672	0.015
Mof_C 	C 	0.79263	0.71737	0.07717	-0.069
Mof_C 	C 	0.67043	0.64297	0.1025	-0.068
Mof_C 	C 	0.84163	0.78897	0.08067	-0.044
Mof_H 	H 	0.84273	0.80737	0.10177	0.055
Mof_C 	C 	0.66473	0.68847	0.12027	-0.021
Mof_H 	H 	0.72483	0.73717	0.12707	0.055
Mof_C 	C 	0.51763	0.72217	0.29224	-0.065
Mof_C 	C 	0.61163	0.60807	0.28527	-0.087
Mof_C 	C 	0.67783	0.72987	0.31045	-0.075
Mof_H 	H 	0.70683	0.66117	0.26247	0.061
Mof_C 	C 	0.65803	0.59997	0.26857	-0.036
Mof_H 	H 	0.77543	0.78547	0.28637	0.06
Mof_C 	C 	0.75893	0.78057	0.30531	-0.03
Mof_H 	H 	0.80243	0.55977	0.09557	0.038
Mof_H 	H 	0.76043	0.52987	0.10487	0.037
Mof_C 	C 	0.74433	0.51237	0.08636	0.083
Mof_H 	H 	0.77833	0.69417	0.07087	0.048
Mof_C 	C 	0.82373	0.76087	0.07367	-0.015
Mof_H 	H 	0.65833	0.61887	0.09637	0.052
Mof_C 	C 	0.63963	0.65277	0.10967	-0.037
Mof_H 	H 	0.86483	0.81837	0.07777	0.042
Mof_H 	H 	0.64683	0.69337	0.12637	0.036
Mof_H 	H 	0.53593	0.75627	0.29267	0.062
Mof_H 	H 	0.49633	0.71347	0.28497	0.052
Mof_C 	C 	0.49153	0.70327	0.30397	0.123
Mof_C 	C 	0.62523	0.58227	0.27787	-0.015
Mof_H 	H 	0.58683	0.59327	0.29107	0.06
Mof_C 	C 	0.72013	0.76097	0.31418	-0.027
Mof_H 	H 	0.65433	0.71487	0.31667	0.053
Mof_H 	H 	0.66393	0.58127	0.26297	0.043
Mof_H 	H 	0.78943	0.79937	0.30837	0.043
Mof_C 	C 	0.72303	0.52387	0.07709	-0.122
Mof_C 	C 	0.74113	0.46877	0.0852	-0.146
Mof_H 	H 	0.83043	0.76747	0.06497	0.03
Mof_H 	H 	0.60743	0.63867	0.10807	0.04
Mof_C 	C 	0.45633	0.71397	0.30787	-0.178
Mof_C 	C 	0.50193	0.68147	0.31247	-0.155
Mof_H 	H 	0.61073	0.55007	0.27947	0.034
Mof_H 	H 	0.72523	0.77067	0.32277	0.041
Mof_H 	H 	0.72413	0.55267	0.07767	0.087
Mof_C 	C 	0.69983	0.49527	0.06676	0.071
Mof_C 	C 	0.71873	0.44187	0.07505	0.098
Mof_H 	H 	0.75433	0.45837	0.09147	0.083
Mof_H 	H 	0.44683	0.73087	0.30267	0.088
Mof_C 	C 	0.43733	0.69767	0.31995	0.136
Mof_C 	C 	0.47493	0.65937	0.32446	0.095
Mof_H 	H 	0.52883	0.67927	0.31107	0.097
Mof_H 	H 	0.68663	0.50487	0.06037	0.027
Mof_C 	C 	0.69673	0.45137	0.06626	-0.16
Mof_H 	H 	0.71903	0.41377	0.07417	0.011
Mof_H 	H 	0.41613	0.70687	0.32267	0.005
Mof_C 	C 	0.44363	0.67247	0.32784	-0.213
Mof_H 	H 	0.47933	0.63797	0.32927	0.016
Mof_C 	C 	0.66983	0.41937	0.05587	0.424
Mof_C 	C 	0.41493	0.65127	0.33857	0.459
Mof_O 	O 	0.39683	0.67327	0.34246	-0.349
Mof_Zn	Zn	0.62223	0.40121	0.53962	1.227
Mof_O 	O 	0.6595	0.3817	0.53097	-0.674
Mof_O 	O 	0.5928	0.4185	0.52634	-0.47
Mof_O 	O 	0.6587	0.4551	0.54914	-0.484
Mof_O 	O 	0.5754	0.3594	0.55005	-0.515
Mof_Zn	Zn	0.7026	0.4417	0.5234	1.23
Mof_C 	C 	0.619	0.4413	0.51729	0.375
Mof_C 	C 	0.7008	0.4865	0.54567	0.332
Mof_O 	O 	0.6601	0.4559	0.51466	-0.49
Mof_O 	O 	0.7258	0.4855	0.53682	-0.485
Mof_O 	O 	0.752	0.4609	0.51148	-0.509
Mof_O 	O 	0.7086	0.3879	0.55389	-0.493
Mof_C 	C 	0.5914	0.4508	0.50707	-0.106
Mof_C 	C 	0.7234	0.5281	0.55462	-0.091
Mof_C 	C 	0.6131	0.4749	0.49556	0.05
Mof_C 	C 	0.5467	0.4382	0.50822	0.055
Mof_C 	C 	0.7006	0.5336	0.56569	0.029
Mof_C 	C 	0.7645	0.5657	0.55127	0.03
Mof_C 	C 	0.5894	0.4836	0.48717	-0.128
Mof_H 	H 	0.6445	0.4845	0.494	0.027
Mof_H 	H 	0.5311	0.4219	0.5157	0.033
Mof_C 	C 	0.5214	0.447	0.4994	-0.136
Mof_C 	C 	0.7213	0.5731	0.57317	-0.119
Mof_H 	H 	0.6706	0.5094	0.5679	0.029
Mof_H 	H 	0.7788	0.566	0.5435	0.036
Mof_C 	C 	0.7862	0.605	0.55963	-0.12
Mof_C 	C 	0.5423	0.4691	0.48817	0.09
Mof_H 	H 	0.6054	0.5011	0.4799	0.084
Mof_H 	H 	0.4901	0.438	0.501	0.074
Mof_C 	C 	0.7644	0.6079	0.57022	0.087
Mof_H 	H 	0.7055	0.5758	0.5803	0.08
Mof_H 	H 	0.8163	0.6294	0.5577	0.068
Mof_C 	C 	0.5148	0.4751	0.47818	-0.045
Mof_C 	C 	0.791	0.6498	0.57836	-0.036
Mof_H 	H 	0.502	0.4941	0.4814	0.047
Mof_H 	H 	0.4887	0.4446	0.4757	0.054
Mof_O 	O 	0.5426	0.4965	0.46774	-0.197
Mof_H 	H 	0.8024	0.6781	0.5732	0.042
Mof_H 	H 	0.8179	0.6496	0.5822	0.052
Mof_O 	O 	0.7614	0.6489	0.58787	-0.214
Mof_C 	C 	0.5274	0.5177	0.45921	0.101
Mof_C 	C 	0.7778	0.6855	0.59548	0.141
Mof_C 	C 	0.481	0.5055	0.45893	-0.07
Mof_C 	C 	0.5563	0.5381	0.44822	0.008
Mof_C 	C 	0.8228	0.7196	0.59558	-0.115
Mof_C 	C 	0.7488	0.68	0.60635	-0.022
Mof_H 	H 	0.4594	0.4829	0.4646	0.063
Mof_C 	C 	0.4669	0.5272	0.45016	-0.09
Mof_C 	C 	0.5413	0.5582	0.43991	-0.036
Mof_C 	C 	0.6031	0.5469	0.4458	-0.086
Mof_C 	C 	0.837	0.7554	0.605	-0.048
Mof_H 	H 	0.8441	0.7198	0.5896	0.076
Mof_C 	C 	0.7615	0.7141	0.61521	-0.006
Mof_C 	C 	0.7002	0.6436	0.60815	-0.06
Mof_H 	H 	0.438	0.5259	0.4511	0.066
Mof_C 	C 	0.4971	0.5515	0.43969	0.143
Mof_C 	C 	0.5794	0.588	0.43026	-0.052
Mof_H 	H 	0.6131	0.5313	0.4521	0.063
Mof_C 	C 	0.6048	0.5338	0.4335	0.042
Mof_C 	C 	0.6311	0.5976	0.4465	0.031
Mof_C 	C 	0.8043	0.7498	0.6154	0.091
Mof_H 	H 	0.8667	0.7821	0.6046	0.052
Mof_C 	C 	0.7286	0.7112	0.62437	-0.077
Mof_H 	H 	0.6897	0.6184	0.6017	0.059
Mof_C 	C 	0.6718	0.6639	0.60855	0.018
Mof_C 	C 	0.7017	0.6268	0.62191	0.024
Mof_O 	O 	0.4859	0.5725	0.43094	-0.227
Mof_H 	H 	0.5697	0.6035	0.4238	0.053
Mof_C 	C 	0.5914	0.5532	0.4245	0.005
Mof_C 	C 	0.6199	0.6201	0.4376	0.026
Mof_C 	C 	0.6191	0.5037	0.4294	-0.081
Mof_C 	C 	0.6691	0.6233	0.4545	-0.074
Mof_O 	O 	0.8243	0.7869	0.62418	-0.189
Mof_H 	H 	0.74	0.7388	0.63	0.062
Mof_C 	C 	0.6862	0.6999	0.61726	0.04
Mof_C 	C 	0.7183	0.666	0.63138	0.025
Mof_C 	C 	0.6321	0.6522	0.60137	-0.062
Mof_C 	C 	0.6871	0.5823	0.62564	-0.072
Mof_C 	C 	0.4445	0.5645	0.43005	0.015
Mof_C 	C 	0.5914	0.5407	0.4105	-0.069
Mof_C 	C 	0.6392	0.6629	0.43583	-0.068
Mof_C 	C 	0.614	0.4917	0.414	-0.044
Mof_H 	H 	0.6313	0.4906	0.4351	0.055
Mof_C 	C 	0.6904	0.6686	0.4536	-0.021
Mof_H 	H 	0.679	0.6085	0.4604	0.055
Mof_C 	C 	0.8712	0.8157	0.62557	-0.065
Mof_C 	C 	0.6631	0.7217	0.6186	-0.087
Mof_C 	C 	0.7187	0.6555	0.64378	-0.075
Mof_H 	H 	0.621	0.6265	0.5958	0.061
Mof_C 	C 	0.6086	0.6753	0.6019	-0.036
Mof_H 	H 	0.6767	0.5579	0.6197	0.06
Mof_C 	C 	0.6883	0.5744	0.63864	-0.03
Mof_H 	H 	0.424	0.5309	0.4289	0.039
Mof_H 	H 	0.4361	0.5729	0.4382	0.037
Mof_C 	C 	0.4347	0.589	0.41969	0.083
Mof_H 	H 	0.5825	0.555	0.4042	0.048
Mof_C 	C 	0.6038	0.5096	0.407	-0.015
Mof_H 	H 	0.6272	0.675	0.4297	0.052
Mof_C 	C 	0.6798	0.6937	0.443	-0.037
Mof_H 	H 	0.6202	0.4685	0.4111	0.041
Mof_H 	H 	0.7132	0.6865	0.4597	0.036
Mof_H 	H 	0.887	0.7974	0.626	0.062
Mof_H 	H 	0.8838	0.837	0.6183	0.053
Mof_C 	C 	0.8784	0.8418	0.6373	0.124
Mof_C 	C 	0.6237	0.7081	0.6112	-0.015
Mof_H 	H 	0.6731	0.7465	0.6244	0.06
Mof_C 	C 	0.7075	0.6132	0.64751	-0.027
Mof_H 	H 	0.7272	0.679	0.65	0.053
Mof_H 	H 	0.584	0.6694	0.5963	0.043
Mof_H 	H 	0.6766	0.5439	0.6417	0.043
Mof_C 	C 	0.4675	0.6103	0.41042	-0.122
Mof_C 	C 	0.3943	0.5922	0.41853	-0.146
Mof_H 	H 	0.6037	0.5029	0.3983	0.03
Mof_H 	H 	0.6979	0.7259	0.4414	0.04
Mof_C 	C 	0.9243	0.877	0.6412	-0.177
Mof_C 	C 	0.8462	0.8314	0.6458	-0.154
Mof_H 	H 	0.606	0.7226	0.6128	0.034
Mof_H 	H 	0.7121	0.6081	0.6561	0.041
Mof_H 	H 	0.4952	0.6092	0.411	0.087
Mof_C 	C 	0.4621	0.6335	0.40009	0.071
Mof_C 	C 	0.3898	0.6146	0.40838	0.098
Mof_H 	H 	0.3707	0.579	0.4248	0.083
Mof_H 	H 	0.9507	0.8865	0.636	0.089
Mof_C 	C 	0.927	0.896	0.65328	0.136
Mof_C 	C 	0.8511	0.8584	0.65779	0.095
Mof_H 	H 	0.8171	0.8045	0.6444	0.097
Mof_H 	H 	0.4849	0.6467	0.3937	0.027
Mof_C 	C 	0.4213	0.6366	0.39959	-0.16
Mof_H 	H 	0.3614	0.6143	0.4075	0.011
Mof_H 	H 	0.9574	0.9172	0.656	0.007
Mof_C 	C 	0.8955	0.8897	0.66117	-0.212
Mof_H 	H 	0.8253	0.854	0.6626	0.016
Mof_C 	C 	0.4162	0.6635	0.3892	0.424
Mof_C 	C 	0.903	0.9184	0.6719	0.458
Mof_O 	O 	0.9431	0.9365	0.67579	-0.347
Mof_Zn	Zn	0.2889	0.73454	0.87295	1.227
Mof_O 	O 	0.32617	0.71503	0.8643	-0.674
Mof_O 	O 	0.25947	0.75183	0.85967	-0.47
Mof_O 	O 	0.32537	0.78843	0.88247	-0.484
Mof_O 	O 	0.24207	0.69273	0.88338	-0.515
Mof_Zn	Zn	0.36927	0.77503	0.85673	1.23
Mof_C 	C 	0.28567	0.77463	0.85062	0.375
Mof_C 	C 	0.36747	0.81983	0.879	0.332
Mof_O 	O 	0.32677	0.78923	0.84799	-0.49
Mof_O 	O 	0.39247	0.81883	0.87015	-0.484
Mof_O 	O 	0.41867	0.79423	0.84481	-0.509
Mof_O 	O 	0.37527	0.72123	0.88722	-0.493
Mof_C 	C 	0.25807	0.78413	0.8404	-0.106
Mof_C 	C 	0.39007	0.86143	0.88795	-0.09
Mof_C 	C 	0.27977	0.80823	0.82889	0.05
Mof_C 	C 	0.21337	0.77153	0.84155	0.055
Mof_C 	C 	0.36727	0.86693	0.89902	0.028
Mof_C 	C 	0.43117	0.89903	0.8846	0.029
Mof_C 	C 	0.25607	0.81693	0.8205	-0.128
Mof_H 	H 	0.31117	0.81783	0.82733	0.027
Mof_H 	H 	0.19777	0.75523	0.84903	0.033
Mof_C 	C 	0.18807	0.78033	0.83273	-0.136
Mof_C 	C 	0.38797	0.90643	0.9065	-0.117
Mof_H 	H 	0.33727	0.84273	0.90123	0.029
Mof_H 	H 	0.44547	0.89933	0.87683	0.037
Mof_C 	C 	0.45287	0.93833	0.89296	-0.118
Mof_C 	C 	0.20897	0.80243	0.8215	0.09
Mof_H 	H 	0.27207	0.83443	0.81323	0.084
Mof_H 	H 	0.15677	0.77133	0.83433	0.074
Mof_C 	C 	0.43107	0.94123	0.90355	0.084
Mof_H 	H 	0.37217	0.90913	0.91363	0.079
Mof_H 	H 	0.48297	0.96273	0.89103	0.068
Mof_C 	C 	0.18147	0.80843	0.81151	-0.045
Mof_C 	C 	0.45767	0.98313	0.91169	-0.027
Mof_H 	H 	0.16867	0.82743	0.81473	0.047
Mof_H 	H 	0.15537	0.77793	0.80903	0.054
Mof_O 	O 	0.20927	0.82983	0.80107	-0.196
Mof_H 	H 	0.46907	0.01143	0.90653	0.036
Mof_H 	H 	0.48457	0.98293	0.91553	0.051
Mof_O 	O 	0.42807	0.98223	0.9212	-0.212
Mof_C 	C 	0.19407	0.85103	0.79254	0.101
Mof_C 	C 	0.44447	0.01883	0.92881	0.138
Mof_C 	C 	0.14767	0.83883	0.79226	-0.069
Mof_C 	C 	0.22297	0.87143	0.78155	0.01
Mof_C 	C 	0.48947	0.05293	0.92891	-0.115
Mof_C 	C 	0.41547	0.01333	0.93968	-0.027
Mof_H 	H 	0.12607	0.81623	0.79793	0.063
Mof_C 	C 	0.13357	0.86053	0.78349	-0.09
Mof_C 	C 	0.20797	0.89153	0.77324	-0.038
Mof_C 	C 	0.26977	0.88023	0.77913	-0.089
Mof_C 	C 	0.50367	0.08873	0.93833	-0.048
Mof_H 	H 	0.51077	0.05313	0.92293	0.075
Mof_C 	C 	0.42817	0.04743	0.94854	-0.004
Mof_C 	C 	0.36687	0.97693	0.94148	-0.054
Mof_H 	H 	0.10467	0.85923	0.78443	0.067
Mof_C 	C 	0.16377	0.88483	0.77302	0.144
Mof_C 	C 	0.24607	0.92133	0.76359	-0.046
Mof_H 	H 	0.27977	0.86463	0.78543	0.064
Mof_C 	C 	0.27147	0.86713	0.76683	0.045
Mof_C 	C 	0.29777	0.93093	0.77983	0.035
Mof_C 	C 	0.47097	0.08313	0.94873	0.09
Mof_H 	H 	0.53337	0.11543	0.93793	0.051
Mof_C 	C 	0.39527	0.04453	0.9577	-0.081
Mof_H 	H 	0.35637	0.95173	0.93503	0.058
Mof_C 	C 	0.33847	0.99723	0.94188	0.018
Mof_C 	C 	0.36837	0.96013	0.95524	0.024
Mof_O 	O 	0.15257	0.90583	0.76427	-0.226
Mof_H 	H 	0.23637	0.93683	0.75713	0.052
Mof_C 	C 	0.25807	0.88653	0.75783	0.002
Mof_C 	C 	0.28657	0.95343	0.77093	0.015
Mof_C 	C 	0.28577	0.83703	0.76273	-0.083
Mof_C 	C 	0.33577	0.95663	0.78783	-0.071
Mof_O 	O 	0.49097	0.12023	0.95751	-0.189
Mof_H 	H 	0.40667	0.07213	0.96333	0.062
Mof_C 	C 	0.35287	0.03323	0.95059	0.039
Mof_C 	C 	0.38497	0.99933	0.96471	0.026
Mof_C 	C 	0.29877	0.98553	0.9347	-0.051
Mof_C 	C 	0.35377	0.91563	0.95897	-0.073
Mof_C 	C 	0.11117	0.89783	0.76338	0.015
Mof_C 	C 	0.25807	0.87403	0.74383	-0.066
Mof_C 	C 	0.30587	0.99623	0.76916	-0.044
Mof_C 	C 	0.28067	0.82503	0.74733	-0.04
Mof_H 	H 	0.29797	0.82393	0.76843	0.056
Mof_C 	C 	0.35707	0.00193	0.78693	-0.024
Mof_H 	H 	0.34567	0.94183	0.79373	0.055
Mof_C 	C 	0.53787	0.14903	0.9589	-0.065
Mof_C 	C 	0.32977	0.05503	0.95193	-0.09
Mof_C 	C 	0.38537	0.98883	0.97711	-0.064
Mof_H 	H 	0.28767	0.95983	0.92913	0.058
Mof_C 	C 	0.27527	0.00863	0.93523	-0.049
Mof_H 	H 	0.34337	0.89123	0.95303	0.06
Mof_C 	C 	0.35497	0.90773	0.97197	-0.027
Mof_H 	H 	0.09067	0.86423	0.76223	0.038
Mof_H 	H 	0.10277	0.90623	0.77153	0.037
Mof_C 	C 	0.10137	0.92233	0.75302	0.084
Mof_H 	H 	0.24917	0.88833	0.73753	0.048
Mof_C 	C 	0.27047	0.84293	0.74033	-0.019
Mof_H 	H 	0.29387	0.00833	0.76303	0.04
Mof_C 	C 	0.34647	0.02703	0.77633	-0.051
Mof_H 	H 	0.28687	0.80183	0.74443	0.04
Mof_H 	H 	0.37987	0.01983	0.79303	0.036
Mof_H 	H 	0.55367	0.13073	0.95933	0.062
Mof_H 	H 	0.55047	0.17033	0.95163	0.052
Mof_C 	C 	0.54507	0.17513	0.97063	0.123
Mof_C 	C 	0.29037	0.04143	0.94453	-0.01
Mof_H 	H 	0.33977	0.07983	0.95773	0.06
Mof_C 	C 	0.37417	0.94653	0.98084	-0.033
Mof_H 	H 	0.39387	0.01233	0.98333	0.046
Mof_H 	H 	0.25067	0.00273	0.92963	0.045
Mof_H 	H 	0.34327	0.87723	0.97503	0.042
Mof_C 	C 	0.13417	0.94363	0.74375	-0.122
Mof_C 	C 	0.06097	0.92553	0.75186	-0.147
Mof_H 	H 	0.27037	0.83623	0.73163	0.031
Mof_H 	H 	0.36457	0.05923	0.77473	0.044
Mof_C 	C 	0.59097	0.21033	0.97453	-0.178
Mof_C 	C 	0.51287	0.16473	0.97913	-0.155
Mof_H 	H 	0.27267	0.05593	0.94613	0.031
Mof_H 	H 	0.37877	0.94143	0.98943	0.044
Mof_H 	H 	0.16187	0.94253	0.74433	0.088
Mof_C 	C 	0.12877	0.96683	0.73342	0.073
Mof_C 	C 	0.05647	0.94793	0.74171	0.101
Mof_H 	H 	0.03737	0.91233	0.75813	0.083
Mof_H 	H 	0.61737	0.21983	0.96933	0.088
Mof_C 	C 	0.59367	0.22933	0.98661	0.136
Mof_C 	C 	0.51777	0.19173	0.99112	0.095
Mof_H 	H 	0.48377	0.13783	0.97773	0.097
Mof_H 	H 	0.15157	0.98003	0.72703	0.027
Mof_C 	C 	0.08797	0.96993	0.73292	-0.163
Mof_H 	H 	0.02807	0.94763	0.74083	0.009
Mof_H 	H 	0.62407	0.25053	0.98933	0.005
Mof_C 	C 	0.56217	0.22303	0.9945	-0.213
Mof_H 	H 	0.49197	0.18733	0.99593	0.016
Mof_C 	C 	0.08287	0.99683	0.72253	0.432
Mof_C 	C 	0.56967	0.25173	0.00523	0.459
Mof_O 	O 	0.60977	0.26983	0.00912	-0.349
Mof_Zn	Zn	0.95556	0.06788	0.20629	1.227
Mof_O 	O 	0.99283	0.04837	0.19764	-0.671
Mof_O 	O 	0.92613	0.08517	0.19301	-0.47
Mof_O 	O 	0.99203	0.12177	0.21581	-0.48
Mof_O 	O 	0.90873	0.02607	0.21672	-0.52
Mof_Zn	Zn	0.03593	0.10837	0.19007	1.229
Mof_C 	C 	0.95233	0.10797	0.18396	0.375
Mof_C 	C 	0.03413	0.15317	0.21234	0.326
Mof_O 	O 	0.99343	0.12257	0.18133	-0.488
Mof_O 	O 	0.05913	0.15217	0.20349	-0.485
Mof_O 	O 	0.08533	0.12757	0.17815	-0.51
Mof_O 	O 	0.04193	0.05457	0.22056	-0.496
Mof_C 	C 	0.92473	0.11747	0.17374	-0.106
Mof_C 	C 	0.05673	0.19477	0.22129	-0.09
Mof_C 	C 	0.94643	0.14157	0.16223	0.05
Mof_C 	C 	0.88003	0.10487	0.17489	0.055
Mof_C 	C 	0.03393	0.20027	0.23236	0.028
Mof_C 	C 	0.09783	0.23237	0.21794	0.029
Mof_C 	C 	0.92273	0.15027	0.15384	-0.128
Mof_H 	H 	0.97783	0.15117	0.16067	0.028
Mof_H 	H 	0.86443	0.08857	0.18237	0.033
Mof_C 	C 	0.85473	0.11367	0.16607	-0.136
Mof_C 	C 	0.05463	0.23977	0.23984	-0.119
Mof_H 	H 	0.00393	0.17607	0.23457	0.027
Mof_H 	H 	0.11213	0.23267	0.21017	0.036
Mof_C 	C 	0.11953	0.27167	0.2263	-0.12
Mof_C 	C 	0.87563	0.13577	0.15484	0.09
Mof_H 	H 	0.93873	0.16777	0.14657	0.085
Mof_H 	H 	0.82343	0.10467	0.16767	0.073
Mof_C 	C 	0.09773	0.27457	0.23689	0.086
Mof_H 	H 	0.03883	0.24247	0.24697	0.079
Mof_H 	H 	0.14963	0.29607	0.22437	0.067
Mof_C 	C 	0.84813	0.14177	0.14485	-0.045
Mof_C 	C 	0.12433	0.31647	0.24503	-0.036
Mof_H 	H 	0.83533	0.16077	0.14807	0.047
Mof_H 	H 	0.82203	0.11127	0.14237	0.054
Mof_O 	O 	0.87593	0.16317	0.13441	-0.196
Mof_H 	H 	0.13573	0.34477	0.23987	0.042
Mof_H 	H 	0.15123	0.31627	0.24887	0.052
Mof_O 	O 	0.09473	0.31557	0.25454	-0.214
Mof_C 	C 	0.86073	0.18437	0.12588	0.099
Mof_C 	C 	0.11113	0.35217	0.26215	0.14
Mof_C 	C 	0.81433	0.17217	0.1256	-0.068
Mof_C 	C 	0.88963	0.20477	0.11489	0.013
Mof_C 	C 	0.15613	0.38627	0.26225	-0.114
Mof_C 	C 	0.08213	0.34667	0.27302	-0.02
Mof_H 	H 	0.79273	0.14957	0.13127	0.063
Mof_C 	C 	0.80023	0.19387	0.11683	-0.091
Mof_C 	C 	0.87463	0.22487	0.10658	-0.04
Mof_C 	C 	0.93643	0.21357	0.11247	-0.097
Mof_C 	C 	0.17033	0.42207	0.27167	-0.049
Mof_H 	H 	0.17743	0.38647	0.25627	0.075
Mof_C 	C 	0.09483	0.38077	0.28188	-0.009
Mof_C 	C 	0.03353	0.31027	0.27482	-0.062
Mof_H 	H 	0.77133	0.19257	0.11777	0.067
Mof_C 	C 	0.83043	0.21817	0.10636	0.145
Mof_C 	C 	0.91273	0.25467	0.09693	-0.043
Mof_H 	H 	0.94643	0.19797	0.11877	0.066
Mof_C 	C 	0.93813	0.20047	0.10017	0.05
Mof_C 	C 	0.96443	0.26427	0.11317	0.048
Mof_C 	C 	0.13763	0.41647	0.28207	0.092
Mof_H 	H 	0.20003	0.44877	0.27127	0.051
Mof_C 	C 	0.06193	0.37787	0.29104	-0.069
Mof_H 	H 	0.02303	0.28507	0.26837	0.058
Mof_C 	C 	0.00513	0.33057	0.27522	0.021
Mof_C 	C 	0.03503	0.29347	0.28858	0.025
Mof_O 	O 	0.81923	0.23917	0.09761	-0.227
Mof_H 	H 	0.90303	0.27017	0.09047	0.051
Mof_C 	C 	0.92473	0.21987	0.09117	-0.001
Mof_C 	C 	0.95323	0.28677	0.10427	0.011
Mof_C 	C 	0.95243	0.17037	0.09607	-0.086
Mof_C 	C 	0.00243	0.28997	0.12117	-0.094
Mof_O 	O 	0.15763	0.45357	0.29085	-0.19
Mof_H 	H 	0.07333	0.40547	0.29667	0.059
Mof_C 	C 	0.01953	0.36657	0.28393	0.024
Mof_C 	C 	0.05163	0.33267	0.29805	0.022
Mof_C 	C 	0.96543	0.31887	0.26804	-0.063
Mof_C 	C 	0.02043	0.24897	0.29231	-0.074
Mof_C 	C 	0.77783	0.23117	0.09672	0.015
Mof_C 	C 	0.92473	0.20737	0.07717	-0.062
Mof_C 	C 	0.97253	0.32957	0.1025	-0.047
Mof_C 	C 	0.94733	0.15837	0.08067	-0.035
Mof_H 	H 	0.96463	0.15727	0.10177	0.057
Mof_C 	C 	0.02373	0.33527	0.12027	-0.008
Mof_H 	H 	0.01233	0.27517	0.12707	0.059
Mof_C 	C 	0.20453	0.48237	0.29224	-0.065
Mof_C 	C 	0.99643	0.38837	0.28527	-0.059
Mof_C 	C 	0.05203	0.32217	0.31045	-0.073
Mof_H 	H 	0.95433	0.29317	0.26247	0.062
Mof_C 	C 	0.94193	0.34197	0.26857	-0.027
Mof_H 	H 	0.01003	0.22457	0.28637	0.059
Mof_C 	C 	0.02163	0.24107	0.30531	-0.03
Mof_H 	H 	0.75733	0.19757	0.09557	0.038
Mof_H 	H 	0.76943	0.23957	0.10487	0.037
Mof_C 	C 	0.76803	0.25567	0.08636	0.083
Mof_H 	H 	0.91583	0.22167	0.07087	0.046
Mof_C 	C 	0.93713	0.17627	0.07367	-0.025
Mof_H 	H 	0.96053	0.34167	0.09637	0.046
Mof_C 	C 	0.01313	0.36037	0.10967	-0.055
Mof_H 	H 	0.95353	0.13517	0.07777	0.039
Mof_H 	H 	0.04653	0.35317	0.12637	0.031
Mof_H 	H 	0.22033	0.46407	0.29267	0.062
Mof_H 	H 	0.21713	0.50367	0.28497	0.052
Mof_C 	C 	0.21173	0.50847	0.30397	0.123
Mof_C 	C 	0.95703	0.37477	0.27787	-0.029
Mof_H 	H 	0.00643	0.41317	0.29107	0.047
Mof_C 	C 	0.04083	0.27987	0.31418	-0.029
Mof_H 	H 	0.06053	0.34567	0.31667	0.052
Mof_H 	H 	0.91733	0.33607	0.26297	0.04
Mof_H 	H 	0.00993	0.21057	0.30837	0.042
Mof_C 	C 	0.80083	0.27697	0.07709	-0.122
Mof_C 	C 	0.72763	0.25887	0.0852	-0.146
Mof_H 	H 	0.93703	0.16957	0.06497	0.034
Mof_H 	H 	0.03123	0.39257	0.10807	0.045
Mof_C 	C 	0.25763	0.54367	0.30787	-0.178
Mof_C 	C 	0.17953	0.49807	0.31247	-0.155
Mof_H 	H 	0.93933	0.38927	0.27947	0.04
Mof_H 	H 	0.04543	0.27477	0.32277	0.041
Mof_H 	H 	0.82853	0.27587	0.07767	0.087
Mof_C 	C 	0.79543	0.30017	0.06676	0.071
Mof_C 	C 	0.72313	0.28127	0.07505	0.098
Mof_H 	H 	0.70403	0.24567	0.09147	0.083
Mof_H 	H 	0.28403	0.55317	0.30267	0.088
Mof_C 	C 	0.26033	0.56267	0.31995	0.136
Mof_C 	C 	0.18443	0.52507	0.32446	0.095
Mof_H 	H 	0.15043	0.47117	0.31107	0.097
Mof_H 	H 	0.81823	0.31337	0.06037	0.027
Mof_C 	C 	0.75463	0.30327	0.06626	-0.16
Mof_H 	H 	0.69473	0.28097	0.07417	0.011
Mof_H 	H 	0.29073	0.58387	0.32267	0.005
Mof_C 	C 	0.22883	0.55637	0.32784	-0.214
Mof_H 	H 	0.15863	0.52067	0.32927	0.016
Mof_C 	C 	0.74953	0.33017	0.05587	0.424
Mof_C 	C 	0.23633	0.58507	0.33857	0.46
Mof_O 	O 	0.27643	0.60317	0.34246	-0.349
Mof_Zn	Zn	0.77898	0.37777	0.53962	1.227
Mof_O 	O 	0.7222	0.3405	0.53097	-0.674
Mof_O 	O 	0.8257	0.4072	0.52634	-0.47
Mof_O 	O 	0.7964	0.3413	0.54914	-0.484
Mof_O 	O 	0.784	0.4246	0.55005	-0.515
Mof_Zn	Zn	0.7391	0.2974	0.5234	1.23
Mof_C 	C 	0.8223	0.381	0.51729	0.375
Mof_C 	C 	0.7857	0.2992	0.54567	0.332
Mof_O 	O 	0.7958	0.3399	0.51466	-0.49
Mof_O 	O 	0.7597	0.2742	0.53682	-0.485
Mof_O 	O 	0.7089	0.248	0.51148	-0.509
Mof_O 	O 	0.6793	0.2914	0.55389	-0.493
Mof_C 	C 	0.8594	0.4086	0.50707	-0.106
Mof_C 	C 	0.8047	0.2766	0.55462	-0.091
Mof_C 	C 	0.8618	0.3869	0.49556	0.051
Mof_C 	C 	0.8915	0.4533	0.50822	0.056
Mof_C 	C 	0.833	0.2994	0.56569	0.029
Mof_C 	C 	0.8012	0.2355	0.55127	0.03
Mof_C 	C 	0.8942	0.4106	0.48717	-0.128
Mof_H 	H 	0.84	0.3555	0.494	0.027
Mof_H 	H 	0.8908	0.4689	0.5157	0.033
Mof_C 	C 	0.9256	0.4786	0.4994	-0.137
Mof_C 	C 	0.8518	0.2787	0.57317	-0.12
Mof_H 	H 	0.8388	0.3294	0.5679	0.029
Mof_H 	H 	0.7872	0.2212	0.5435	0.036
Mof_C 	C 	0.8188	0.2138	0.55963	-0.121
Mof_C 	C 	0.9268	0.4577	0.48817	0.091
Mof_H 	H 	0.8957	0.3946	0.4799	0.084
Mof_H 	H 	0.9479	0.5099	0.501	0.075
Mof_C 	C 	0.8435	0.2356	0.57022	0.087
Mof_H 	H 	0.8703	0.2945	0.5803	0.08
Mof_H 	H 	0.8131	0.1837	0.5577	0.068
Mof_C 	C 	0.9603	0.4852	0.47818	-0.046
Mof_C 	C 	0.8588	0.209	0.57836	-0.037
Mof_H 	H 	0.9921	0.498	0.4814	0.049
Mof_H 	H 	0.9559	0.5113	0.4757	0.055
Mof_O 	O 	0.9539	0.4574	0.46774	-0.197
Mof_H 	H 	0.8757	0.1976	0.5732	0.043
Mof_H 	H 	0.8317	0.1821	0.5822	0.052
Mof_O 	O 	0.8875	0.2386	0.58787	-0.213
Mof_C 	C 	0.9903	0.4726	0.45921	0.105
Mof_C 	C 	0.9077	0.2222	0.59548	0.137
Mof_C 	C 	0.0245	0.519	0.45893	-0.076
Mof_C 	C 	0.9818	0.4437	0.44822	0.015
Mof_C 	C 	0.8968	0.1772	0.59558	-0.112
Mof_C 	C 	0.9312	0.2512	0.60635	-0.013
Mof_H 	H 	0.0235	0.5406	0.4646	0.064
Mof_C 	C 	0.0603	0.5331	0.45016	-0.089
Mof_C 	C 	0.0169	0.4587	0.43991	-0.044
Mof_C 	C 	0.9438	0.3969	0.4458	-0.094
Mof_C 	C 	0.9184	0.163	0.605	-0.051
Mof_H 	H 	0.8757	0.1559	0.5896	0.075
Mof_C 	C 	0.9526	0.2385	0.61521	-0.014
Mof_C 	C 	0.9434	0.2998	0.60815	-0.075
Mof_H 	H 	0.0879	0.562	0.4511	0.066
Mof_C 	C 	0.0544	0.5029	0.43969	0.145
Mof_C 	C 	0.0086	0.4206	0.43026	-0.048
Mof_H 	H 	0.9182	0.3869	0.4521	0.065
Mof_C 	C 	0.929	0.3952	0.4335	0.046
Mof_C 	C 	0.9665	0.3689	0.4465	0.045
Mof_C 	C 	0.9455	0.1957	0.6154	0.096
Mof_H 	H 	0.9154	0.1333	0.6046	0.052
Mof_C 	C 	0.9826	0.2714	0.62437	-0.058
Mof_H 	H 	0.9287	0.3103	0.6017	0.064
Mof_C 	C 	0.9921	0.3282	0.60855	0.046
Mof_C 	C 	0.9251	0.2983	0.62191	0.031
Mof_O 	O 	0.0866	0.5141	0.43094	-0.227
Mof_H 	H 	0.0338	0.4303	0.4238	0.051
Mof_C 	C 	0.9618	0.4086	0.4245	0.006
Mof_C 	C 	0.0002	0.3801	0.4376	0.011
Mof_C 	C 	0.8846	0.3809	0.4294	-0.083
Mof_C 	C 	0.9542	0.3309	0.4545	-0.086
Mof_O 	O 	0.9626	0.1757	0.62418	-0.191
Mof_H 	H 	0.9988	0.26	0.63	0.058
Mof_C 	C 	0.0137	0.3138	0.61726	0.012
Mof_C 	C 	0.9477	0.2817	0.63138	0.019
Mof_C 	C 	0.0201	0.3679	0.60137	-0.089
Mof_C 	C 	0.8952	0.3129	0.62564	-0.077
Mof_C 	C 	0.12	0.5555	0.43005	0.015
Mof_C 	C 	0.9493	0.4086	0.4105	-0.068
Mof_C 	C 	0.0237	0.3608	0.43583	-0.055
Mof_C 	C 	0.8777	0.386	0.414	-0.042
Mof_H 	H 	0.8593	0.3687	0.4351	0.055
Mof_C 	C 	0.9782	0.3096	0.4536	-0.006
Mof_H 	H 	0.9295	0.321	0.4604	0.059
Mof_C 	C 	0.9445	0.1288	0.62557	-0.055
Mof_C 	C 	0.0586	0.3369	0.6186	-0.063
Mof_C 	C 	0.9368	0.2813	0.64378	-0.069
Mof_H 	H 	0.0055	0.379	0.5958	0.068
Mof_C 	C 	0.0667	0.3914	0.6019	-0.014
Mof_H 	H 	0.8812	0.3233	0.6197	0.062
Mof_C 	C 	0.8861	0.3117	0.63864	-0.026
Mof_H 	H 	0.1069	0.576	0.4289	0.038
Mof_H 	H 	0.1368	0.5639	0.4382	0.037
Mof_C 	C 	0.1543	0.5653	0.41969	0.083
Mof_H 	H 	0.9725	0.4175	0.4042	0.049
Mof_C 	C 	0.9058	0.3962	0.407	-0.017
Mof_H 	H 	0.0478	0.3728	0.4297	0.047
Mof_C 	C 	0.0139	0.3202	0.443	-0.052
Mof_H 	H 	0.8483	0.3798	0.4111	0.041
Mof_H 	H 	0.9733	0.2868	0.4597	0.032
Mof_H 	H 	0.9104	0.113	0.626	0.059
Mof_H 	H 	0.9532	0.1162	0.6183	0.05
Mof_C 	C 	0.9634	0.1216	0.6373	0.109
Mof_C 	C 	0.0844	0.3763	0.6112	-0.036
Mof_H 	H 	0.0734	0.3269	0.6244	0.051
Mof_C 	C 	0.9057	0.2925	0.64751	-0.031
Mof_H 	H 	0.9518	0.2728	0.65	0.052
Mof_H 	H 	0.0854	0.416	0.5963	0.035
Mof_H 	H 	0.8673	0.3234	0.6417	0.042
Mof_C 	C 	0.1428	0.5325	0.41042	-0.122
Mof_C 	C 	0.1979	0.6057	0.41853	-0.146
Mof_H 	H 	0.8992	0.3963	0.3983	0.031
Mof_H 	H 	0.028	0.3021	0.4414	0.044
Mof_C 	C 	0.9527	0.0757	0.6412	-0.16
Mof_C 	C 	0.9852	0.1538	0.6458	-0.133
Mof_H 	H 	0.1166	0.394	0.6128	0.04
Mof_H 	H 	0.896	0.2879	0.6561	0.043
Mof_H 	H 	0.114	0.5048	0.411	0.087
Mof_C 	C 	0.1714	0.5379	0.40009	0.071
Mof_C 	C 	0.2248	0.6102	0.40838	0.098
Mof_H 	H 	0.2083	0.6293	0.4248	0.083
Mof_H 	H 	0.9358	0.0493	0.636	0.082
Mof_C 	C 	0.969	0.073	0.65328	0.112
Mof_C 	C 	0.0073	0.1489	0.65779	0.065
Mof_H 	H 	0.9874	0.1829	0.6444	0.091
Mof_H 	H 	0.1618	0.5151	0.3937	0.026
Mof_C 	C 	0.2153	0.5787	0.39959	-0.16
Mof_H 	H 	0.2529	0.6386	0.4075	0.011
Mof_H 	H 	0.9598	0.0426	0.656	0.013
Mof_C 	C 	0.9942	0.1045	0.66117	-0.181
Mof_H 	H 	0.0287	0.1747	0.6626	0.025
Mof_C 	C 	0.2473	0.5838	0.3892	0.424
Mof_C 	C 	0.0154	0.097	0.6719	0.435
Mof_O 	O 	0.9934	0.0569	0.67579	-0.34
Mof_Zn	Zn	0.44565	0.7111	0.87295	1.227
Mof_O 	O 	0.38887	0.67383	0.8643	-0.674
Mof_O 	O 	0.49237	0.74053	0.85967	-0.47
Mof_O 	O 	0.46307	0.67463	0.88247	-0.484
Mof_O 	O 	0.45067	0.75793	0.88338	-0.515
Mof_Zn	Zn	0.40577	0.63073	0.85673	1.23
Mof_C 	C 	0.48897	0.71433	0.85062	0.375
Mof_C 	C 	0.45237	0.63253	0.879	0.332
Mof_O 	O 	0.46247	0.67323	0.84799	-0.49
Mof_O 	O 	0.42637	0.60753	0.87015	-0.485
Mof_O 	O 	0.37557	0.58133	0.84481	-0.509
Mof_O 	O 	0.34597	0.62473	0.88722	-0.493
Mof_C 	C 	0.52607	0.74193	0.8404	-0.106
Mof_C 	C 	0.47137	0.60993	0.88795	-0.091
Mof_C 	C 	0.52847	0.72023	0.82889	0.05
Mof_C 	C 	0.55817	0.78663	0.84155	0.055
Mof_C 	C 	0.49967	0.63273	0.89902	0.029
Mof_C 	C 	0.46787	0.56883	0.8846	0.03
Mof_C 	C 	0.56087	0.74393	0.8205	-0.128
Mof_H 	H 	0.50667	0.68883	0.82733	0.027
Mof_H 	H 	0.55747	0.80223	0.84903	0.033
Mof_C 	C 	0.59227	0.81193	0.83273	-0.136
Mof_C 	C 	0.51847	0.61203	0.9065	-0.119
Mof_H 	H 	0.50547	0.66273	0.90123	0.029
Mof_H 	H 	0.45387	0.55453	0.87683	0.036
Mof_C 	C 	0.48547	0.54713	0.89296	-0.12
Mof_C 	C 	0.59347	0.79103	0.8215	0.09
Mof_H 	H 	0.56237	0.72793	0.81323	0.084
Mof_H 	H 	0.61457	0.84323	0.83433	0.074
Mof_C 	C 	0.51017	0.56893	0.90355	0.087
Mof_H 	H 	0.53697	0.62783	0.91363	0.08
Mof_H 	H 	0.47977	0.51703	0.89103	0.068
Mof_C 	C 	0.62697	0.81853	0.81151	-0.045
Mof_C 	C 	0.52547	0.54233	0.91169	-0.036
Mof_H 	H 	0.65877	0.83133	0.81473	0.047
Mof_H 	H 	0.62257	0.84463	0.80903	0.054
Mof_O 	O 	0.62057	0.79073	0.80107	-0.197
Mof_H 	H 	0.54237	0.53093	0.90653	0.042
Mof_H 	H 	0.49837	0.51543	0.91553	0.052
Mof_O 	O 	0.55417	0.57193	0.9212	-0.214
Mof_C 	C 	0.65697	0.80593	0.79254	0.101
Mof_C 	C 	0.57437	0.55553	0.92881	0.141
Mof_C 	C 	0.69117	0.85233	0.79226	-0.07
Mof_C 	C 	0.64847	0.77703	0.78155	0.008
Mof_C 	C 	0.56347	0.51053	0.92891	-0.115
Mof_C 	C 	0.59787	0.58453	0.93968	-0.022
Mof_H 	H 	0.69017	0.87393	0.79793	0.063
Mof_C 	C 	0.72697	0.86643	0.78349	-0.09
Mof_C 	C 	0.68357	0.79203	0.77324	-0.036
Mof_C 	C 	0.61047	0.73023	0.77913	-0.086
Mof_C 	C 	0.58507	0.49633	0.93833	-0.048
Mof_H 	H 	0.54237	0.48923	0.92293	0.076
Mof_C 	C 	0.61927	0.57183	0.94854	-0.006
Mof_C 	C 	0.61007	0.63313	0.94148	-0.06
Mof_H 	H 	0.75457	0.89533	0.78443	0.067
Mof_C 	C 	0.72107	0.83623	0.77302	0.143
Mof_C 	C 	0.67527	0.75393	0.76359	-0.052
Mof_H 	H 	0.58487	0.72023	0.78543	0.063
Mof_C 	C 	0.59567	0.72853	0.76683	0.042
Mof_C 	C 	0.63317	0.70223	0.77983	0.031
Mof_C 	C 	0.61217	0.52903	0.94873	0.091
Mof_H 	H 	0.58207	0.46663	0.93793	0.051
Mof_C 	C 	0.64927	0.60473	0.9577	-0.077
Mof_H 	H 	0.59537	0.64363	0.93503	0.059
Mof_C 	C 	0.65877	0.66153	0.94188	0.018
Mof_C 	C 	0.59177	0.63163	0.95524	0.024
Mof_O 	O 	0.75327	0.84743	0.76427	-0.227
Mof_H 	H 	0.70047	0.76363	0.75713	0.053
Mof_C 	C 	0.62847	0.74193	0.75783	0.005
Mof_C 	C 	0.66687	0.71343	0.77093	0.026
Mof_C 	C 	0.55127	0.71423	0.76273	-0.081
Mof_C 	C 	0.62087	0.66423	0.78783	-0.074
Mof_O 	O 	0.62927	0.50903	0.95751	-0.189
Mof_H 	H 	0.66547	0.59333	0.96333	0.062
Mof_C 	C 	0.68037	0.64713	0.95059	0.04
Mof_C 	C 	0.61437	0.61503	0.96471	0.025
Mof_C 	C 	0.68677	0.70123	0.9347	-0.062
Mof_C 	C 	0.56187	0.64623	0.95897	-0.072
Mof_C 	C 	0.78667	0.88883	0.76338	0.015
Mof_C 	C 	0.61597	0.74193	0.74383	-0.069
Mof_C 	C 	0.69037	0.69413	0.76916	-0.068
Mof_C 	C 	0.54437	0.71933	0.74733	-0.044
Mof_H 	H 	0.52597	0.70203	0.76843	0.055
Mof_C 	C 	0.64487	0.64293	0.78693	-0.021
Mof_H 	H 	0.59617	0.65433	0.79373	0.055
Mof_C 	C 	0.61117	0.46213	0.9589	-0.065
Mof_C 	C 	0.72527	0.67023	0.95193	-0.087
Mof_C 	C 	0.60347	0.61463	0.97711	-0.075
Mof_H 	H 	0.67217	0.71233	0.92913	0.061
Mof_C 	C 	0.73337	0.72473	0.93523	-0.036
Mof_H 	H 	0.54787	0.65663	0.95303	0.06
Mof_C 	C 	0.55277	0.64503	0.97197	-0.03
Mof_H 	H 	0.77357	0.90933	0.76223	0.039
Mof_H 	H 	0.80347	0.89723	0.77153	0.037
Mof_C 	C 	0.82097	0.89863	0.75302	0.083
Mof_H 	H 	0.63917	0.75083	0.73753	0.048
Mof_C 	C 	0.57247	0.72953	0.74033	-0.015
Mof_H 	H 	0.71447	0.70613	0.76303	0.052
Mof_C 	C 	0.68057	0.65353	0.77633	-0.037
Mof_H 	H 	0.51497	0.71313	0.74443	0.042
Mof_H 	H 	0.63997	0.62013	0.79303	0.036
Mof_H 	H 	0.57707	0.44633	0.95933	0.062
Mof_H 	H 	0.61987	0.44953	0.95163	0.052
Mof_C 	C 	0.63007	0.45493	0.97063	0.123
Mof_C 	C 	0.75107	0.70963	0.94453	-0.015
Mof_H 	H 	0.74007	0.66023	0.95773	0.06
Mof_C 	C 	0.57237	0.62583	0.98084	-0.027
Mof_H 	H 	0.61847	0.60613	0.98333	0.053
Mof_H 	H 	0.75207	0.74933	0.92963	0.043
Mof_H 	H 	0.53397	0.65673	0.97503	0.043
Mof_C 	C 	0.80947	0.86583	0.74375	-0.121
Mof_C 	C 	0.86457	0.93903	0.75186	-0.145
Mof_H 	H 	0.56587	0.72963	0.73163	0.03
Mof_H 	H 	0.69467	0.63543	0.77473	0.04
Mof_C 	C 	0.61937	0.40903	0.97453	-0.178
Mof_C 	C 	0.65187	0.48713	0.97913	-0.155
Mof_H 	H 	0.78327	0.72733	0.94613	0.034
Mof_H 	H 	0.56267	0.62123	0.98943	0.041
Mof_H 	H 	0.78067	0.83813	0.74433	0.087
Mof_C 	C 	0.83807	0.87123	0.73342	0.07
Mof_C 	C 	0.89147	0.94353	0.74171	0.098
Mof_H 	H 	0.87497	0.96263	0.75813	0.084
Mof_H 	H 	0.60247	0.38263	0.96933	0.088
Mof_C 	C 	0.63567	0.40633	0.98661	0.136
Mof_C 	C 	0.67397	0.48223	0.99112	0.095
Mof_H 	H 	0.65407	0.51623	0.97773	0.097
Mof_H 	H 	0.82847	0.84843	0.72703	0.027
Mof_C 	C 	0.88197	0.91203	0.73292	-0.159
Mof_H 	H 	0.91957	0.97193	0.74083	0.013
Mof_H 	H 	0.62647	0.37593	0.98933	0.005
Mof_C 	C 	0.66087	0.43783	0.9945	-0.213
Mof_H 	H 	0.69537	0.50803	0.99593	0.016
Mof_C 	C 	0.91397	0.91713	0.72253	0.424
Mof_C 	C 	0.68207	0.43033	0.00523	0.459
Mof_O 	O 	0.66007	0.39023	0.00912	-0.349
Mof_Zn	Zn	0.11231	0.04444	0.20629	1.227
Mof_O 	O 	0.05553	0.00717	0.19764	-0.677
Mof_O 	O 	0.15903	0.07387	0.19301	-0.47
Mof_O 	O 	0.12973	0.00797	0.21581	-0.489
Mof_O 	O 	0.11733	0.09127	0.21672	-0.516
Mof_Zn	Zn	0.07243	0.96407	0.19007	1.231
Mof_C 	C 	0.15563	0.04767	0.18396	0.376
Mof_C 	C 	0.11903	0.96587	0.21234	0.338
Mof_O 	O 	0.12913	0.00657	0.18133	-0.492
Mof_O 	O 	0.09303	0.94087	0.20349	-0.486
Mof_O 	O 	0.04223	0.91467	0.17815	-0.503
Mof_O 	O 	0.01263	0.95807	0.22056	-0.491
Mof_C 	C 	0.19273	0.07527	0.17374	-0.107
Mof_C 	C 	0.13803	0.94327	0.22129	-0.092
Mof_C 	C 	0.19513	0.05357	0.16223	0.05
Mof_C 	C 	0.22483	0.11997	0.17489	0.055
Mof_C 	C 	0.16633	0.96607	0.23236	0.031
Mof_C 	C 	0.13453	0.90217	0.21794	0.031
Mof_C 	C 	0.22753	0.07727	0.15384	-0.128
Mof_H 	H 	0.17333	0.02217	0.16067	0.026
Mof_H 	H 	0.22413	0.13557	0.18237	0.033
Mof_C 	C 	0.25893	0.14527	0.16607	-0.136
Mof_C 	C 	0.18513	0.94537	0.23984	-0.12
Mof_H 	H 	0.17213	0.99607	0.23457	0.03
Mof_H 	H 	0.12053	0.88787	0.21017	0.036
Mof_C 	C 	0.15213	0.88047	0.2263	-0.121
Mof_C 	C 	0.26013	0.12437	0.15484	0.09
Mof_H 	H 	0.22903	0.06127	0.14657	0.084
Mof_H 	H 	0.28123	0.17657	0.16767	0.074
Mof_C 	C 	0.17683	0.90227	0.23689	0.088
Mof_H 	H 	0.20363	0.96117	0.24697	0.081
Mof_H 	H 	0.14643	0.85037	0.22437	0.068
Mof_C 	C 	0.29363	0.15187	0.14485	-0.045
Mof_C 	C 	0.19213	0.87567	0.24503	-0.037
Mof_H 	H 	0.32543	0.16467	0.14807	0.047
Mof_H 	H 	0.28923	0.17797	0.14237	0.054
Mof_O 	O 	0.28723	0.12407	0.13441	-0.197
Mof_H 	H 	0.20903	0.86427	0.23987	0.042
Mof_H 	H 	0.16503	0.84877	0.24887	0.052
Mof_O 	O 	0.22083	0.90527	0.25454	-0.214
Mof_C 	C 	0.32363	0.13927	0.12588	0.103
Mof_C 	C 	0.24103	0.88887	0.26215	0.142
Mof_C 	C 	0.35783	0.18567	0.1256	-0.072
Mof_C 	C 	0.31513	0.11037	0.11489	0.003
Mof_C 	C 	0.23013	0.84387	0.26225	-0.116
Mof_C 	C 	0.26453	0.91787	0.27302	-0.024
Mof_H 	H 	0.35683	0.20727	0.13127	0.064
Mof_C 	C 	0.39363	0.19977	0.11683	-0.088
Mof_C 	C 	0.35023	0.12537	0.10658	-0.032
Mof_C 	C 	0.27713	0.06357	0.11247	-0.075
Mof_C 	C 	0.25173	0.82967	0.27167	-0.047
Mof_H 	H 	0.20903	0.82257	0.25627	0.076
Mof_C 	C 	0.28593	0.90517	0.28188	-0.002
Mof_C 	C 	0.27673	0.96647	0.27482	-0.058
Mof_H 	H 	0.42123	0.22867	0.11777	0.066
Mof_C 	C 	0.38773	0.16957	0.10636	0.141
Mof_C 	C 	0.34193	0.08727	0.09693	-0.061
Mof_H 	H 	0.25153	0.05357	0.11877	0.059
Mof_C 	C 	0.26233	0.06187	0.10017	0.034
Mof_C 	C 	0.29983	0.03557	0.11317	0.014
Mof_C 	C 	0.27883	0.86237	0.28207	0.089
Mof_H 	H 	0.24873	0.79997	0.27127	0.051
Mof_C 	C 	0.31593	0.93807	0.29104	-0.085
Mof_H 	H 	0.26203	0.97697	0.26837	0.06
Mof_C 	C 	0.32543	0.99487	0.27522	0.016
Mof_C 	C 	0.25843	0.96497	0.28858	0.023
Mof_O 	O 	0.41993	0.18077	0.09761	-0.226
Mof_H 	H 	0.36713	0.09697	0.09047	0.056
Mof_C 	C 	0.29513	0.07527	0.09117	0.011
Mof_C 	C 	0.33353	0.04677	0.10427	0.041
Mof_C 	C 	0.21793	0.04757	0.09607	-0.075
Mof_C 	C 	0.28753	0.99757	0.12117	-0.055
Mof_O 	O 	0.29593	0.84237	0.29085	-0.189
Mof_H 	H 	0.33213	0.92667	0.29667	0.064
Mof_C 	C 	0.34703	0.98047	0.28393	0.057
Mof_C 	C 	0.28103	0.94837	0.29805	0.028
Mof_C 	C 	0.35343	0.03457	0.26804	-0.061
Mof_C 	C 	0.22853	0.97957	0.29231	-0.071
Mof_C 	C 	0.45333	0.22217	0.09672	0.015
Mof_C 	C 	0.28263	0.07527	0.07717	-0.077
Mof_C 	C 	0.35703	0.02747	0.1025	-0.087
Mof_C 	C 	0.21103	0.05267	0.08067	-0.054
Mof_H 	H 	0.19263	0.03537	0.10177	0.052
Mof_C 	C 	0.31153	0.97627	0.12027	-0.034
Mof_H 	H 	0.26283	0.98767	0.12707	0.05
Mof_C 	C 	0.27783	0.79547	0.29224	-0.065
Mof_C 	C 	0.39193	0.00357	0.28527	-0.115
Mof_C 	C 	0.27013	0.94797	0.31045	-0.077
Mof_H 	H 	0.33883	0.04567	0.26247	0.059
Mof_C 	C 	0.40003	0.05807	0.26857	-0.046
Mof_H 	H 	0.21453	0.98997	0.28637	0.061
Mof_C 	C 	0.21943	0.97837	0.30531	-0.031
Mof_H 	H 	0.44023	0.24267	0.09557	0.039
Mof_H 	H 	0.47013	0.23057	0.10487	0.037
Mof_C 	C 	0.48763	0.23197	0.08636	0.083
Mof_H 	H 	0.30583	0.08417	0.07087	0.05
Mof_C 	C 	0.23913	0.06287	0.07367	-0.004
Mof_H 	H 	0.38113	0.03947	0.09637	0.057
Mof_C 	C 	0.34723	0.98687	0.10967	-0.021
Mof_H 	H 	0.18163	0.04647	0.07777	0.043
Mof_H 	H 	0.30663	0.95347	0.12637	0.041
Mof_H 	H 	0.24373	0.77967	0.29267	0.062
Mof_H 	H 	0.28653	0.78287	0.28497	0.052
Mof_C 	C 	0.29673	0.78827	0.30397	0.124
Mof_C 	C 	0.41773	0.04297	0.27787	0
Mof_H 	H 	0.40673	0.99357	0.29107	0.072
Mof_C 	C 	0.23903	0.95917	0.31418	-0.025
Mof_H 	H 	0.28513	0.93947	0.31667	0.054
Mof_H 	H 	0.41873	0.08267	0.26297	0.046
Mof_H 	H 	0.20063	0.99007	0.30837	0.044
Mof_C 	C 	0.47613	0.19917	0.07709	-0.122
Mof_C 	C 	0.53123	0.27237	0.0852	-0.146
Mof_H 	H 	0.23253	0.06297	0.06497	0.025
Mof_H 	H 	0.36133	0.96877	0.10807	0.036
Mof_C 	C 	0.28603	0.74237	0.30787	-0.178
Mof_C 	C 	0.31853	0.82047	0.31247	-0.155
Mof_H 	H 	0.44993	0.06067	0.27947	0.028
Mof_H 	H 	0.22933	0.95457	0.32277	0.041
Mof_H 	H 	0.44733	0.17147	0.07767	0.087
Mof_C 	C 	0.50473	0.20457	0.06676	0.071
Mof_C 	C 	0.55813	0.27687	0.07505	0.099
Mof_H 	H 	0.54163	0.29597	0.09147	0.083
Mof_H 	H 	0.26913	0.71597	0.30267	0.088
Mof_C 	C 	0.30233	0.73967	0.31995	0.136
Mof_C 	C 	0.34063	0.81557	0.32446	0.095
Mof_H 	H 	0.32073	0.84957	0.31107	0.097
Mof_H 	H 	0.49513	0.18177	0.06037	0.026
Mof_C 	C 	0.54863	0.24537	0.06626	-0.16
Mof_H 	H 	0.58623	0.30527	0.07417	0.011
Mof_H 	H 	0.29313	0.70927	0.32267	0.005
Mof_C 	C 	0.32753	0.77117	0.32784	-0.214
Mof_H 	H 	0.36203	0.84137	0.32927	0.016
Mof_C 	C 	0.58063	0.25047	0.05587	0.424
Mof_C 	C 	0.34873	0.76367	0.33857	0.459
Mof_O 	O 	0.32673	0.72357	0.34246	-0.349
Mof_Zn	Zn	0.66667	0.33333	0.04219	1.236
Mof_Zn	Zn	0.33333	0.66667	0.37552	1.236
Mof_Zn	Zn	1.57618e-32	3.15236e-32	0.70886	1.233
Mof_Zn	Zn	0.66667	0.33333	0.54219	1.236
Mof_Zn	Zn	0.33333	0.66667	0.87552	1.236
Mof_Zn	Zn	1.57618e-32	1.57618e-32	0.20886	1.233
Mof_Zn	Zn	0.40121	0.77898	0.46038	1.227
Mof_O 	O 	0.3817	0.7222	0.46903	-0.674
Mof_O 	O 	0.4185	0.8257	0.47366	-0.47
Mof_O 	O 	0.4551	0.7964	0.45086	-0.484
Mof_O 	O 	0.3594	0.784	0.44995	-0.515
Mof_Zn	Zn	0.4417	0.7391	0.4766	1.23
Mof_C 	C 	0.4413	0.8223	0.48271	0.375
Mof_C 	C 	0.4865	0.7857	0.45433	0.332
Mof_O 	O 	0.4559	0.7958	0.48534	-0.49
Mof_O 	O 	0.4855	0.7597	0.46318	-0.485
Mof_O 	O 	0.4609	0.7089	0.48852	-0.509
Mof_O 	O 	0.3879	0.6793	0.44611	-0.493
Mof_C 	C 	0.4508	0.8594	0.49293	-0.106
Mof_C 	C 	0.5281	0.8047	0.44538	-0.091
Mof_C 	C 	0.4749	0.8618	0.50444	0.051
Mof_C 	C 	0.4382	0.8915	0.49178	0.056
Mof_C 	C 	0.5336	0.833	0.43431	0.029
Mof_C 	C 	0.5657	0.8012	0.44873	0.03
Mof_C 	C 	0.4836	0.8942	0.51283	-0.128
Mof_H 	H 	0.4845	0.84	0.506	0.027
Mof_H 	H 	0.4219	0.8908	0.4843	0.033
Mof_C 	C 	0.447	0.9256	0.5006	-0.137
Mof_C 	C 	0.5731	0.8518	0.42683	-0.12
Mof_H 	H 	0.5094	0.8388	0.4321	0.029
Mof_H 	H 	0.566	0.7872	0.4565	0.036
Mof_C 	C 	0.605	0.8188	0.44037	-0.121
Mof_C 	C 	0.4691	0.9268	0.51183	0.091
Mof_H 	H 	0.5011	0.8957	0.5201	0.085
Mof_H 	H 	0.438	0.9479	0.499	0.075
Mof_C 	C 	0.6079	0.8435	0.42978	0.087
Mof_H 	H 	0.5758	0.8703	0.4197	0.08
Mof_H 	H 	0.6294	0.8131	0.4423	0.068
Mof_C 	C 	0.4751	0.9603	0.52182	-0.046
Mof_C 	C 	0.6498	0.8588	0.42164	-0.037
Mof_H 	H 	0.4941	0.9921	0.5186	0.049
Mof_H 	H 	0.4446	0.9559	0.5243	0.055
Mof_O 	O 	0.4965	0.9539	0.53226	-0.197
Mof_H 	H 	0.6781	0.8757	0.4268	0.043
Mof_H 	H 	0.6496	0.8317	0.4178	0.052
Mof_O 	O 	0.6489	0.8875	0.41213	-0.213
Mof_C 	C 	0.5177	0.9903	0.54079	0.105
Mof_C 	C 	0.6855	0.9077	0.40452	0.137
Mof_C 	C 	0.5055	0.0245	0.54107	-0.076
Mof_C 	C 	0.5381	0.9818	0.55178	0.015
Mof_C 	C 	0.7196	0.8968	0.40442	-0.112
Mof_C 	C 	0.68	0.9312	0.39365	-0.014
Mof_H 	H 	0.4829	0.0235	0.5354	0.064
Mof_C 	C 	0.5272	0.0603	0.54984	-0.089
Mof_C 	C 	0.5582	0.0169	0.56009	-0.043
Mof_C 	C 	0.5469	0.9438	0.5542	-0.094
Mof_C 	C 	0.7554	0.9184	0.395	-0.051
Mof_H 	H 	0.7198	0.8757	0.4104	0.075
Mof_C 	C 	0.7141	0.9526	0.38479	-0.014
Mof_C 	C 	0.6436	0.9434	0.39185	-0.075
Mof_H 	H 	0.5259	0.0879	0.5489	0.066
Mof_C 	C 	0.5515	0.0544	0.56031	0.144
Mof_C 	C 	0.588	0.0086	0.56974	-0.048
Mof_H 	H 	0.5313	0.9182	0.5479	0.065
Mof_C 	C 	0.5338	0.929	0.5665	0.046
Mof_C 	C 	0.5976	0.9665	0.5535	0.044
Mof_C 	C 	0.7498	0.9455	0.3846	0.095
Mof_H 	H 	0.7821	0.9154	0.3954	0.053
Mof_C 	C 	0.7112	0.9826	0.37563	-0.059
Mof_H 	H 	0.6184	0.9287	0.3983	0.064
Mof_C 	C 	0.6639	0.9921	0.39145	0.045
Mof_C 	C 	0.6268	0.9251	0.37809	0.03
Mof_O 	O 	0.5725	0.0866	0.56906	-0.227
Mof_H 	H 	0.6035	0.0338	0.5762	0.052
Mof_C 	C 	0.5532	0.9618	0.5755	0.006
Mof_C 	C 	0.6201	0.0002	0.5624	0.012
Mof_C 	C 	0.5037	0.8846	0.5706	-0.083
Mof_C 	C 	0.6233	0.9542	0.5455	-0.086
Mof_O 	O 	0.7869	0.9626	0.37582	-0.191
Mof_H 	H 	0.7388	0.9988	0.37	0.058
Mof_C 	C 	0.6999	0.0137	0.38274	0.013
Mof_C 	C 	0.666	0.9477	0.36862	0.019
Mof_C 	C 	0.6522	0.0201	0.39863	-0.088
Mof_C 	C 	0.5823	0.8952	0.37436	-0.077
Mof_C 	C 	0.5645	0.12	0.56995	0.015
Mof_C 	C 	0.5407	0.9493	0.5895	-0.068
Mof_C 	C 	0.6629	0.0237	0.56417	-0.056
Mof_C 	C 	0.4917	0.8777	0.586	-0.042
Mof_H 	H 	0.4906	0.8593	0.5649	0.055
Mof_C 	C 	0.6686	0.9782	0.5464	-0.007
Mof_H 	H 	0.6085	0.9295	0.5396	0.059
Mof_C 	C 	0.8157	0.9445	0.37443	-0.057
Mof_C 	C 	0.7217	0.0586	0.3814	-0.064
Mof_C 	C 	0.6555	0.9368	0.35622	-0.069
Mof_H 	H 	0.6265	0.0055	0.4042	0.067
Mof_C 	C 	0.6753	0.0667	0.3981	-0.015
Mof_H 	H 	0.5579	0.8812	0.3803	0.062
Mof_C 	C 	0.5744	0.8861	0.36136	-0.026
Mof_H 	H 	0.5309	0.1069	0.5711	0.038
Mof_H 	H 	0.5729	0.1368	0.5618	0.037
Mof_C 	C 	0.589	0.1543	0.58031	0.083
Mof_H 	H 	0.555	0.9725	0.5958	0.049
Mof_C 	C 	0.5096	0.9058	0.593	-0.017
Mof_H 	H 	0.675	0.0478	0.5703	0.047
Mof_C 	C 	0.6937	0.0139	0.557	-0.051
Mof_H 	H 	0.4685	0.8483	0.5889	0.041
Mof_H 	H 	0.6865	0.9733	0.5403	0.033
Mof_H 	H 	0.7974	0.9104	0.374	0.059
Mof_H 	H 	0.837	0.9532	0.3817	0.051
Mof_C 	C 	0.8418	0.9634	0.3627	0.111
Mof_C 	C 	0.7081	0.0844	0.3888	-0.035
Mof_H 	H 	0.7465	0.0734	0.3756	0.051
Mof_C 	C 	0.6132	0.9057	0.35249	-0.031
Mof_H 	H 	0.679	0.9518	0.35	0.052
Mof_H 	H 	0.6694	0.0854	0.4037	0.035
Mof_H 	H 	0.5439	0.8673	0.3583	0.042
Mof_C 	C 	0.6103	0.1428	0.58958	-0.122
Mof_C 	C 	0.5922	0.1979	0.58147	-0.146
Mof_H 	H 	0.5029	0.8992	0.6017	0.031
Mof_H 	H 	0.7259	0.028	0.5586	0.044
Mof_C 	C 	0.877	0.9527	0.3588	-0.161
Mof_C 	C 	0.8314	0.9852	0.3542	-0.135
Mof_H 	H 	0.7226	0.1166	0.3872	0.04
Mof_H 	H 	0.6081	0.896	0.3439	0.042
Mof_H 	H 	0.6092	0.114	0.589	0.087
Mof_C 	C 	0.6335	0.1714	0.59991	0.071
Mof_C 	C 	0.6146	0.2248	0.59162	0.098
Mof_H 	H 	0.579	0.2083	0.5752	0.083
Mof_H 	H 	0.8865	0.9358	0.364	0.083
Mof_C 	C 	0.896	0.969	0.34672	0.114
Mof_C 	C 	0.8584	0.0073	0.34221	0.068
Mof_H 	H 	0.8045	0.9874	0.3556	0.092
Mof_H 	H 	0.6467	0.1618	0.6063	0.026
Mof_C 	C 	0.6366	0.2153	0.60041	-0.16
Mof_H 	H 	0.6143	0.2529	0.5925	0.011
Mof_H 	H 	0.9172	0.9598	0.344	0.013
Mof_C 	C 	0.8897	0.9942	0.33883	-0.183
Mof_H 	H 	0.854	0.0287	0.3374	0.024
Mof_C 	C 	0.6635	0.2473	0.6108	0.424
Mof_C 	C 	0.9184	0.0154	0.3281	0.437
Mof_O 	O 	0.9365	0.9934	0.32421	-0.339
Mof_Zn	Zn	0.06788	0.11231	0.79371	1.227
Mof_O 	O 	0.04837	0.05553	0.80236	-0.676
Mof_O 	O 	0.08517	0.15903	0.80699	-0.47
Mof_O 	O 	0.12177	0.12973	0.78419	-0.484
Mof_O 	O 	0.02607	0.11733	0.78328	-0.521
Mof_Zn	Zn	0.10837	0.07243	0.80993	1.23
Mof_C 	C 	0.10797	0.15563	0.81604	0.375
Mof_C 	C 	0.15317	0.11903	0.78766	0.333
Mof_O 	O 	0.12257	0.12913	0.81867	-0.49
Mof_O 	O 	0.15217	0.09303	0.79651	-0.486
Mof_O 	O 	0.12757	0.04223	0.82185	-0.503
Mof_O 	O 	0.05457	0.01263	0.77944	-0.494
Mof_C 	C 	0.11747	0.19273	0.82626	-0.106
Mof_C 	C 	0.19477	0.13803	0.77871	-0.091
Mof_C 	C 	0.14157	0.19513	0.83777	0.05
Mof_C 	C 	0.10487	0.22483	0.82511	0.055
Mof_C 	C 	0.20027	0.16633	0.76764	0.029
Mof_C 	C 	0.23237	0.13453	0.78206	0.03
Mof_C 	C 	0.15027	0.22753	0.84616	-0.128
Mof_H 	H 	0.15117	0.17333	0.83933	0.027
Mof_H 	H 	0.08857	0.22413	0.81763	0.033
Mof_C 	C 	0.11367	0.25893	0.83393	-0.136
Mof_C 	C 	0.23977	0.18513	0.76016	-0.119
Mof_H 	H 	0.17607	0.17213	0.76543	0.029
Mof_H 	H 	0.23267	0.12053	0.78983	0.036
Mof_C 	C 	0.27167	0.15213	0.7737	-0.121
Mof_C 	C 	0.13577	0.26013	0.84516	0.09
Mof_H 	H 	0.16777	0.22903	0.85343	0.084
Mof_H 	H 	0.10467	0.28123	0.83233	0.073
Mof_C 	C 	0.27457	0.17683	0.76311	0.087
Mof_H 	H 	0.24247	0.20363	0.75303	0.08
Mof_H 	H 	0.29607	0.14643	0.77563	0.067
Mof_C 	C 	0.14177	0.29363	0.85515	-0.045
Mof_C 	C 	0.31647	0.19213	0.75497	-0.036
Mof_H 	H 	0.16077	0.32543	0.85193	0.047
Mof_H 	H 	0.11127	0.28923	0.85763	0.054
Mof_O 	O 	0.16317	0.28723	0.86559	-0.197
Mof_H 	H 	0.34477	0.20903	0.76013	0.042
Mof_H 	H 	0.31627	0.16503	0.75113	0.052
Mof_O 	O 	0.31557	0.22083	0.74546	-0.214
Mof_C 	C 	0.18437	0.32363	0.87412	0.102
Mof_C 	C 	0.35217	0.24103	0.73785	0.141
Mof_C 	C 	0.17217	0.35783	0.8744	-0.07
Mof_C 	C 	0.20477	0.31513	0.88511	0.008
Mof_C 	C 	0.38627	0.23013	0.73775	-0.115
Mof_C 	C 	0.34667	0.26453	0.72698	-0.022
Mof_H 	H 	0.14957	0.35683	0.86873	0.063
Mof_C 	C 	0.19387	0.39363	0.88317	-0.09
Mof_C 	C 	0.22487	0.35023	0.89342	-0.036
Mof_C 	C 	0.21357	0.27713	0.88753	-0.085
Mof_C 	C 	0.42207	0.25173	0.72833	-0.048
Mof_H 	H 	0.38647	0.20903	0.74373	0.076
Mof_C 	C 	0.38077	0.28593	0.71812	-0.006
Mof_C 	C 	0.31027	0.27673	0.72518	-0.06
Mof_H 	H 	0.19257	0.42123	0.88223	0.066
Mof_C 	C 	0.21817	0.38773	0.89364	0.143
Mof_C 	C 	0.25467	0.34193	0.90307	-0.052
Mof_H 	H 	0.19797	0.25153	0.88123	0.062
Mof_C 	C 	0.20047	0.26233	0.89983	0.042
Mof_C 	C 	0.26427	0.29983	0.88683	0.03
Mof_C 	C 	0.41647	0.27883	0.71793	0.091
Mof_H 	H 	0.44877	0.24873	0.72873	0.051
Mof_C 	C 	0.37787	0.31593	0.70896	-0.077
Mof_H 	H 	0.28507	0.26203	0.73163	0.059
Mof_C 	C 	0.33057	0.32543	0.72478	0.018
Mof_C 	C 	0.29347	0.25843	0.71142	0.024
Mof_O 	O 	0.23917	0.41993	0.90239	-0.227
Mof_H 	H 	0.27017	0.36713	0.90953	0.053
Mof_C 	C 	0.21987	0.29513	0.90883	0.005
Mof_C 	C 	0.28677	0.33353	0.89573	0.027
Mof_C 	C 	0.17037	0.21793	0.90393	-0.08
Mof_C 	C 	0.28997	0.28753	0.87883	-0.074
Mof_O 	O 	0.45357	0.29593	0.70915	-0.189
Mof_H 	H 	0.40547	0.33213	0.70333	0.061
Mof_C 	C 	0.36657	0.34703	0.71607	0.04
Mof_C 	C 	0.33267	0.28103	0.70195	0.025
Mof_C 	C 	0.31887	0.35343	0.73196	-0.062
Mof_C 	C 	0.24897	0.22853	0.70769	-0.072
Mof_C 	C 	0.23117	0.45333	0.90328	0.015
Mof_C 	C 	0.20737	0.28263	0.92283	-0.07
Mof_C 	C 	0.32957	0.35703	0.8975	-0.068
Mof_C 	C 	0.15837	0.21103	0.91933	-0.045
Mof_H 	H 	0.15727	0.19263	0.89823	0.054
Mof_C 	C 	0.33527	0.31153	0.87973	-0.022
Mof_H 	H 	0.27517	0.26283	0.87293	0.054
Mof_C 	C 	0.48237	0.27783	0.70776	-0.065
Mof_C 	C 	0.38837	0.39193	0.71473	-0.087
Mof_C 	C 	0.32217	0.27013	0.68955	-0.075
Mof_H 	H 	0.29317	0.33883	0.73753	0.061
Mof_C 	C 	0.34197	0.40003	0.73143	-0.036
Mof_H 	H 	0.22457	0.21453	0.71363	0.06
Mof_C 	C 	0.24107	0.21943	0.69469	-0.03
Mof_H 	H 	0.19757	0.44023	0.90443	0.039
Mof_H 	H 	0.23957	0.47013	0.89513	0.037
Mof_C 	C 	0.25567	0.48763	0.91364	0.083
Mof_H 	H 	0.22167	0.30583	0.92913	0.048
Mof_C 	C 	0.17627	0.23913	0.92633	-0.014
Mof_H 	H 	0.34167	0.38113	0.90363	0.052
Mof_C 	C 	0.36037	0.34723	0.89033	-0.037
Mof_H 	H 	0.13517	0.18163	0.92223	0.041
Mof_H 	H 	0.35317	0.30663	0.87363	0.036
Mof_H 	H 	0.46407	0.24373	0.70733	0.062
Mof_H 	H 	0.50367	0.28653	0.71503	0.052
Mof_C 	C 	0.50847	0.29673	0.69603	0.123
Mof_C 	C 	0.37477	0.41773	0.72213	-0.015
Mof_H 	H 	0.41317	0.40673	0.70893	0.06
Mof_C 	C 	0.27987	0.23903	0.68582	-0.027
Mof_H 	H 	0.34567	0.28513	0.68333	0.053
Mof_H 	H 	0.33607	0.41873	0.73703	0.043
Mof_H 	H 	0.21057	0.20063	0.69163	0.043
Mof_C 	C 	0.27697	0.47613	0.92291	-0.122
Mof_C 	C 	0.25887	0.53123	0.9148	-0.146
Mof_H 	H 	0.16957	0.23253	0.93503	0.029
Mof_H 	H 	0.39257	0.36133	0.89193	0.04
Mof_C 	C 	0.54367	0.28603	0.69213	-0.178
Mof_C 	C 	0.49807	0.31853	0.68753	-0.155
Mof_H 	H 	0.38927	0.44993	0.72053	0.034
Mof_H 	H 	0.27477	0.22933	0.67723	0.041
Mof_H 	H 	0.27587	0.44733	0.92233	0.087
Mof_C 	C 	0.30017	0.50473	0.93324	0.071
Mof_C 	C 	0.28127	0.55813	0.92495	0.098
Mof_H 	H 	0.24567	0.54163	0.90853	0.083
Mof_H 	H 	0.55317	0.26913	0.69733	0.088
Mof_C 	C 	0.56267	0.30233	0.68005	0.136
Mof_C 	C 	0.52507	0.34063	0.67554	0.095
Mof_H 	H 	0.47117	0.32073	0.68893	0.097
Mof_H 	H 	0.31337	0.49513	0.93963	0.026
Mof_C 	C 	0.30327	0.54863	0.93374	-0.16
Mof_H 	H 	0.28097	0.58623	0.92583	0.011
Mof_H 	H 	0.58387	0.29313	0.67733	0.005
Mof_C 	C 	0.55637	0.32753	0.67216	-0.213
Mof_H 	H 	0.52067	0.36203	0.67073	0.016
Mof_C 	C 	0.33017	0.58063	0.94413	0.424
Mof_C 	C 	0.58507	0.34873	0.66143	0.459
Mof_O 	O 	0.60317	0.32673	0.65754	-0.349
Mof_Zn	Zn	0.73454	0.44565	0.12705	1.227
Mof_O 	O 	0.71503	0.38887	0.1357	-0.674
Mof_O 	O 	0.75183	0.49237	0.14033	-0.47
Mof_O 	O 	0.78843	0.46307	0.11753	-0.484
Mof_O 	O 	0.69273	0.45067	0.11662	-0.515
Mof_Zn	Zn	0.77503	0.40577	0.14327	1.23
Mof_C 	C 	0.77463	0.48897	0.14938	0.375
Mof_C 	C 	0.81983	0.45237	0.121	0.332
Mof_O 	O 	0.78923	0.46247	0.15201	-0.49
Mof_O 	O 	0.81883	0.42637	0.12985	-0.484
Mof_O 	O 	0.79423	0.37557	0.15519	-0.509
Mof_O 	O 	0.72123	0.34597	0.11278	-0.493
Mof_C 	C 	0.78413	0.52607	0.1596	-0.106
Mof_C 	C 	0.86143	0.47137	0.11205	-0.09
Mof_C 	C 	0.80823	0.52847	0.17111	0.05
Mof_C 	C 	0.77153	0.55817	0.15845	0.055
Mof_C 	C 	0.86693	0.49967	0.10098	0.028
Mof_C 	C 	0.89903	0.46787	0.1154	0.029
Mof_C 	C 	0.81693	0.56087	0.1795	-0.128
Mof_H 	H 	0.81783	0.50667	0.17267	0.027
Mof_H 	H 	0.75523	0.55747	0.15097	0.033
Mof_C 	C 	0.78033	0.59227	0.16727	-0.136
Mof_C 	C 	0.90643	0.51847	0.0935	-0.117
Mof_H 	H 	0.84273	0.50547	0.09877	0.029
Mof_H 	H 	0.89933	0.45387	0.12317	0.037
Mof_C 	C 	0.93833	0.48547	0.10704	-0.118
Mof_C 	C 	0.80243	0.59347	0.1785	0.09
Mof_H 	H 	0.83443	0.56237	0.18677	0.084
Mof_H 	H 	0.77133	0.61457	0.16567	0.074
Mof_C 	C 	0.94123	0.51017	0.09645	0.084
Mof_H 	H 	0.90913	0.53697	0.08637	0.079
Mof_H 	H 	0.96273	0.47977	0.10897	0.068
Mof_C 	C 	0.80843	0.62697	0.18849	-0.045
Mof_C 	C 	0.98313	0.52547	0.08831	-0.027
Mof_H 	H 	0.82743	0.65877	0.18527	0.047
Mof_H 	H 	0.77793	0.62257	0.19097	0.054
Mof_O 	O 	0.82983	0.62057	0.19893	-0.196
Mof_H 	H 	0.01143	0.54237	0.09347	0.036
Mof_H 	H 	0.98293	0.49837	0.08447	0.051
Mof_O 	O 	0.98223	0.55417	0.0788	-0.212
Mof_C 	C 	0.85103	0.65697	0.20746	0.101
Mof_C 	C 	0.01883	0.57437	0.07119	0.138
Mof_C 	C 	0.83883	0.69117	0.20774	-0.069
Mof_C 	C 	0.87143	0.64847	0.21845	0.009
Mof_C 	C 	0.05293	0.56347	0.07109	-0.115
Mof_C 	C 	0.01333	0.59787	0.06032	-0.027
Mof_H 	H 	0.81623	0.69017	0.20207	0.063
Mof_C 	C 	0.86053	0.72697	0.21651	-0.09
Mof_C 	C 	0.89153	0.68357	0.22676	-0.038
Mof_C 	C 	0.88023	0.61047	0.22087	-0.089
Mof_C 	C 	0.08873	0.58507	0.06167	-0.048
Mof_H 	H 	0.05313	0.54237	0.07707	0.075
Mof_C 	C 	0.04743	0.61927	0.05146	-0.004
Mof_C 	C 	0.97693	0.61007	0.05852	-0.054
Mof_H 	H 	0.85923	0.75457	0.21557	0.067
Mof_C 	C 	0.88483	0.72107	0.22698	0.144
Mof_C 	C 	0.92133	0.67527	0.23641	-0.046
Mof_H 	H 	0.86463	0.58487	0.21457	0.064
Mof_C 	C 	0.86713	0.59567	0.23317	0.045
Mof_C 	C 	0.93093	0.63317	0.22017	0.035
Mof_C 	C 	0.08313	0.61217	0.05127	0.09
Mof_H 	H 	0.11543	0.58207	0.06207	0.051
Mof_C 	C 	0.04453	0.64927	0.0423	-0.081
Mof_H 	H 	0.95173	0.59537	0.06497	0.058
Mof_C 	C 	0.99723	0.65877	0.05812	0.018
Mof_C 	C 	0.96013	0.59177	0.04476	0.024
Mof_O 	O 	0.90583	0.75327	0.23573	-0.226
Mof_H 	H 	0.93683	0.70047	0.24287	0.052
Mof_C 	C 	0.88653	0.62847	0.24217	0.002
Mof_C 	C 	0.95343	0.66687	0.22907	0.016
Mof_C 	C 	0.83703	0.55127	0.23727	-0.083
Mof_C 	C 	0.95663	0.62087	0.21217	-0.071
Mof_O 	O 	0.12023	0.62927	0.04249	-0.189
Mof_H 	H 	0.07213	0.66547	0.03667	0.062
Mof_C 	C 	0.03323	0.68037	0.04941	0.039
Mof_C 	C 	0.99933	0.61437	0.03529	0.026
Mof_C 	C 	0.98553	0.68677	0.0653	-0.051
Mof_C 	C 	0.91563	0.56187	0.04103	-0.073
Mof_C 	C 	0.89783	0.78667	0.23662	0.015
Mof_C 	C 	0.87403	0.61597	0.25617	-0.066
Mof_C 	C 	0.99623	0.69037	0.23084	-0.045
Mof_C 	C 	0.82503	0.54437	0.25267	-0.04
Mof_H 	H 	0.82393	0.52597	0.23157	0.056
Mof_C 	C 	0.00193	0.64487	0.21307	-0.024
Mof_H 	H 	0.94183	0.59617	0.20627	0.055
Mof_C 	C 	0.14903	0.61117	0.0411	-0.065
Mof_C 	C 	0.05503	0.72527	0.04807	-0.09
Mof_C 	C 	0.98883	0.60347	0.02289	-0.064
Mof_H 	H 	0.95983	0.67217	0.07087	0.058
Mof_C 	C 	0.00863	0.73337	0.06477	-0.048
Mof_H 	H 	0.89123	0.54787	0.04697	0.06
Mof_C 	C 	0.90773	0.55277	0.02803	-0.027
Mof_H 	H 	0.86423	0.77357	0.23777	0.039
Mof_H 	H 	0.90623	0.80347	0.22847	0.037
Mof_C 	C 	0.92233	0.82097	0.24698	0.084
Mof_H 	H 	0.88833	0.63917	0.26247	0.048
Mof_C 	C 	0.84293	0.57247	0.25967	-0.019
Mof_H 	H 	0.00833	0.71447	0.23697	0.041
Mof_C 	C 	0.02703	0.68057	0.22367	-0.05
Mof_H 	H 	0.80183	0.51497	0.25557	0.04
Mof_H 	H 	0.01983	0.63997	0.20697	0.036
Mof_H 	H 	0.13073	0.57707	0.04067	0.062
Mof_H 	H 	0.17033	0.61987	0.04837	0.052
Mof_C 	C 	0.17513	0.63007	0.02937	0.123
Mof_C 	C 	0.04143	0.75107	0.05547	-0.01
Mof_H 	H 	0.07983	0.74007	0.04227	0.061
Mof_C 	C 	0.94653	0.57237	0.01916	-0.032
Mof_H 	H 	0.01233	0.61847	0.01667	0.046
Mof_H 	H 	0.00273	0.75207	0.07037	0.045
Mof_H 	H 	0.87723	0.53397	0.02497	0.042
Mof_C 	C 	0.94363	0.80947	0.25625	-0.122
Mof_C 	C 	0.92553	0.86457	0.24814	-0.146
Mof_H 	H 	0.83623	0.56587	0.26837	0.031
Mof_H 	H 	0.05923	0.69467	0.22527	0.044
Mof_C 	C 	0.21033	0.61937	0.02547	-0.178
Mof_C 	C 	0.16473	0.65187	0.02087	-0.155
Mof_H 	H 	0.05593	0.78327	0.05387	0.032
Mof_H 	H 	0.94143	0.56267	0.01057	0.044
Mof_H 	H 	0.94253	0.78067	0.25567	0.088
Mof_C 	C 	0.96683	0.83807	0.26658	0.072
Mof_C 	C 	0.94793	0.89147	0.25829	0.1
Mof_H 	H 	0.91233	0.87497	0.24187	0.084
Mof_H 	H 	0.21983	0.60247	0.03067	0.088
Mof_C 	C 	0.22933	0.63567	0.01339	0.136
Mof_C 	C 	0.19173	0.67397	0.00888	0.095
Mof_H 	H 	0.13783	0.65407	0.02227	0.097
Mof_H 	H 	0.98003	0.82847	0.27297	0.027
Mof_C 	C 	0.96993	0.88197	0.26708	-0.161
Mof_H 	H 	0.94763	0.91957	0.25917	0.012
Mof_H 	H 	0.25053	0.62647	0.01067	0.005
Mof_C 	C 	0.22303	0.66087	0.0055	-0.214
Mof_H 	H 	0.18733	0.69537	0.00407	0.016
Mof_C 	C 	0.99683	0.91397	0.27747	0.43
Mof_C 	C 	0.25173	0.68207	0.99477	0.459
Mof_O 	O 	0.26983	0.66007	0.99088	-0.349
Mof_Zn	Zn	0.37777	0.59879	0.46038	1.227
Mof_O 	O 	0.3405	0.6183	0.46903	-0.674
Mof_O 	O 	0.4072	0.5815	0.47366	-0.47
Mof_O 	O 	0.3413	0.5449	0.45086	-0.484
Mof_O 	O 	0.4246	0.6406	0.44995	-0.515
Mof_Zn	Zn	0.2974	0.5583	0.4766	1.23
Mof_C 	C 	0.381	0.5587	0.48271	0.375
Mof_C 	C 	0.2992	0.5135	0.45433	0.332
Mof_O 	O 	0.3399	0.5441	0.48534	-0.49
Mof_O 	O 	0.2742	0.5145	0.46318	-0.485
Mof_O 	O 	0.248	0.5391	0.48852	-0.509
Mof_O 	O 	0.2914	0.6121	0.44611	-0.493
Mof_C 	C 	0.4086	0.5492	0.49293	-0.106
Mof_C 	C 	0.2766	0.4719	0.44538	-0.091
Mof_C 	C 	0.3869	0.5251	0.50444	0.05
Mof_C 	C 	0.4533	0.5618	0.49178	0.055
Mof_C 	C 	0.2994	0.4664	0.43431	0.029
Mof_C 	C 	0.2355	0.4343	0.44873	0.03
Mof_C 	C 	0.4106	0.5164	0.51283	-0.128
Mof_H 	H 	0.3555	0.5155	0.506	0.027
Mof_H 	H 	0.4689	0.5781	0.4843	0.033
Mof_C 	C 	0.4786	0.553	0.5006	-0.136
Mof_C 	C 	0.2787	0.4269	0.42683	-0.119
Mof_H 	H 	0.3294	0.4906	0.4321	0.029
Mof_H 	H 	0.2212	0.434	0.4565	0.036
Mof_C 	C 	0.2138	0.395	0.44037	-0.12
Mof_C 	C 	0.4577	0.5309	0.51183	0.09
Mof_H 	H 	0.3946	0.4989	0.5201	0.084
Mof_H 	H 	0.5099	0.562	0.499	0.074
Mof_C 	C 	0.2356	0.3921	0.42978	0.087
Mof_H 	H 	0.2945	0.4242	0.4197	0.08
Mof_H 	H 	0.1837	0.3706	0.4423	0.067
Mof_C 	C 	0.4852	0.5249	0.52182	-0.045
Mof_C 	C 	0.209	0.3502	0.42164	-0.036
Mof_H 	H 	0.498	0.5059	0.5186	0.047
Mof_H 	H 	0.5113	0.5554	0.5243	0.054
Mof_O 	O 	0.4574	0.5035	0.53226	-0.197
Mof_H 	H 	0.1976	0.3219	0.4268	0.042
Mof_H 	H 	0.1821	0.3504	0.4178	0.052
Mof_O 	O 	0.2386	0.3511	0.41213	-0.214
Mof_C 	C 	0.4726	0.4823	0.54079	0.101
Mof_C 	C 	0.2222	0.3145	0.40452	0.141
Mof_C 	C 	0.519	0.4945	0.54107	-0.07
Mof_C 	C 	0.4437	0.4619	0.55178	0.008
Mof_C 	C 	0.1772	0.2804	0.40442	-0.115
Mof_C 	C 	0.2512	0.32	0.39365	-0.022
Mof_H 	H 	0.5406	0.5171	0.5354	0.063
Mof_C 	C 	0.5331	0.4728	0.54984	-0.09
Mof_C 	C 	0.4587	0.4418	0.56009	-0.036
Mof_C 	C 	0.3969	0.4531	0.5542	-0.086
Mof_C 	C 	0.163	0.2446	0.395	-0.048
Mof_H 	H 	0.1559	0.2802	0.4104	0.076
Mof_C 	C 	0.2385	0.2859	0.38479	-0.006
Mof_C 	C 	0.2998	0.3564	0.39185	-0.06
Mof_H 	H 	0.562	0.4741	0.5489	0.066
Mof_C 	C 	0.5029	0.4485	0.56031	0.143
Mof_C 	C 	0.4206	0.412	0.56974	-0.052
Mof_H 	H 	0.3869	0.4687	0.5479	0.063
Mof_C 	C 	0.3952	0.4662	0.5665	0.042
Mof_C 	C 	0.3689	0.4024	0.5535	0.03
Mof_C 	C 	0.1957	0.2502	0.3846	0.091
Mof_H 	H 	0.1333	0.2179	0.3954	0.051
Mof_C 	C 	0.2714	0.2888	0.37563	-0.077
Mof_H 	H 	0.3103	0.3816	0.3983	0.059
Mof_C 	C 	0.3282	0.3361	0.39145	0.018
Mof_C 	C 	0.2983	0.3732	0.37809	0.024
Mof_O 	O 	0.5141	0.4275	0.56906	-0.227
Mof_H 	H 	0.4303	0.3965	0.5762	0.053
Mof_C 	C 	0.4086	0.4468	0.5755	0.005
Mof_C 	C 	0.3801	0.3799	0.5624	0.026
Mof_C 	C 	0.3809	0.4963	0.5706	-0.081
Mof_C 	C 	0.3309	0.3767	0.5455	-0.074
Mof_O 	O 	0.1757	0.2131	0.37582	-0.19
Mof_H 	H 	0.26	0.2612	0.37	0.061
Mof_C 	C 	0.3138	0.3001	0.38274	0.04
Mof_C 	C 	0.2817	0.334	0.36862	0.025
Mof_C 	C 	0.3679	0.3478	0.39863	-0.062
Mof_C 	C 	0.3129	0.4177	0.37436	-0.072
Mof_C 	C 	0.5555	0.4355	0.56995	0.015
Mof_C 	C 	0.4086	0.4593	0.5895	-0.07
Mof_C 	C 	0.3608	0.3371	0.56417	-0.068
Mof_C 	C 	0.386	0.5083	0.586	-0.044
Mof_H 	H 	0.3687	0.5094	0.5649	0.055
Mof_C 	C 	0.3096	0.3314	0.5464	-0.021
Mof_H 	H 	0.321	0.3915	0.5396	0.055
Mof_C 	C 	0.1288	0.1843	0.37443	-0.064
Mof_C 	C 	0.3369	0.2783	0.3814	-0.087
Mof_C 	C 	0.2813	0.3445	0.35622	-0.075
Mof_H 	H 	0.379	0.3735	0.4042	0.061
Mof_C 	C 	0.3914	0.3247	0.3981	-0.036
Mof_H 	H 	0.3233	0.4421	0.3803	0.06
Mof_C 	C 	0.3117	0.4256	0.36136	-0.03
Mof_H 	H 	0.576	0.4691	0.5711	0.039
Mof_H 	H 	0.5639	0.4271	0.5618	0.037
Mof_C 	C 	0.5653	0.411	0.58031	0.083
Mof_H 	H 	0.4175	0.445	0.5958	0.048
Mof_C 	C 	0.3962	0.4904	0.593	-0.014
Mof_H 	H 	0.3728	0.325	0.5703	0.052
Mof_C 	C 	0.3202	0.3063	0.557	-0.037
Mof_H 	H 	0.3798	0.5315	0.5889	0.041
Mof_H 	H 	0.2868	0.3135	0.5403	0.036
Mof_H 	H 	0.113	0.2026	0.374	0.061
Mof_H 	H 	0.1162	0.163	0.3817	0.051
Mof_C 	C 	0.1216	0.1582	0.3627	0.123
Mof_C 	C 	0.3763	0.2919	0.3888	-0.015
Mof_H 	H 	0.3269	0.2535	0.3756	0.059
Mof_C 	C 	0.2925	0.3868	0.35249	-0.027
Mof_H 	H 	0.2728	0.321	0.35	0.053
Mof_H 	H 	0.416	0.3306	0.4037	0.043
Mof_H 	H 	0.3234	0.4561	0.3583	0.043
Mof_C 	C 	0.5325	0.3897	0.58958	-0.122
Mof_C 	C 	0.6057	0.4078	0.58147	-0.146
Mof_H 	H 	0.3963	0.4971	0.6017	0.03
Mof_H 	H 	0.3021	0.2741	0.5586	0.04
Mof_C 	C 	0.0757	0.123	0.3588	-0.178
Mof_C 	C 	0.1538	0.1686	0.3542	-0.155
Mof_H 	H 	0.394	0.2774	0.3872	0.034
Mof_H 	H 	0.2879	0.3919	0.3439	0.041
Mof_H 	H 	0.5048	0.3908	0.589	0.087
Mof_C 	C 	0.5379	0.3665	0.59991	0.071
Mof_C 	C 	0.6102	0.3854	0.59162	0.098
Mof_H 	H 	0.6293	0.421	0.5752	0.083
Mof_H 	H 	0.0493	0.1135	0.364	0.087
Mof_C 	C 	0.073	0.104	0.34672	0.136
Mof_C 	C 	0.1489	0.1416	0.34221	0.095
Mof_H 	H 	0.1829	0.1955	0.3556	0.097
Mof_H 	H 	0.5151	0.3533	0.6063	0.027
Mof_C 	C 	0.5787	0.3634	0.60041	-0.16
Mof_H 	H 	0.6386	0.3857	0.5925	0.011
Mof_H 	H 	0.0426	0.0828	0.344	0.004
Mof_C 	C 	0.1045	0.1103	0.33883	-0.214
Mof_H 	H 	0.1747	0.146	0.3374	0.016
Mof_C 	C 	0.5838	0.3365	0.6108	0.424
Mof_C 	C 	0.097	0.0816	0.3281	0.459
Mof_O 	O 	0.0569	0.0635	0.32421	-0.351
Mof_Zn	Zn	0.04444	0.93212	0.79371	1.227
Mof_O 	O 	0.00717	0.95163	0.80236	-0.674
Mof_O 	O 	0.07387	0.91483	0.80699	-0.47
Mof_O 	O 	0.00797	0.87823	0.78419	-0.488
Mof_O 	O 	0.09127	0.97393	0.78328	-0.51
Mof_Zn	Zn	0.96407	0.89163	0.80993	1.231
Mof_C 	C 	0.04767	0.89203	0.81604	0.375
Mof_C 	C 	0.96587	0.84683	0.78766	0.338
Mof_O 	O 	0.00657	0.87743	0.81867	-0.492
Mof_O 	O 	0.94087	0.84783	0.79651	-0.485
Mof_O 	O 	0.91467	0.87243	0.82185	-0.508
Mof_O 	O 	0.95807	0.94543	0.77944	-0.489
Mof_C 	C 	0.07527	0.88253	0.82626	-0.106
Mof_C 	C 	0.94327	0.80523	0.77871	-0.091
Mof_C 	C 	0.05357	0.85843	0.83777	0.05
Mof_C 	C 	0.11997	0.89513	0.82511	0.055
Mof_C 	C 	0.96607	0.79973	0.76764	0.031
Mof_C 	C 	0.90217	0.76763	0.78206	0.031
Mof_C 	C 	0.07727	0.84973	0.84616	-0.128
Mof_H 	H 	0.02217	0.84883	0.83933	0.026
Mof_H 	H 	0.13557	0.91143	0.81763	0.034
Mof_C 	C 	0.14527	0.88633	0.83393	-0.136
Mof_C 	C 	0.94537	0.76023	0.76016	-0.12
Mof_H 	H 	0.99607	0.82393	0.76543	0.03
Mof_H 	H 	0.88787	0.76733	0.78983	0.036
Mof_C 	C 	0.88047	0.72833	0.7737	-0.121
Mof_C 	C 	0.12437	0.86423	0.84516	0.09
Mof_H 	H 	0.06127	0.83223	0.85343	0.084
Mof_H 	H 	0.17657	0.89533	0.83233	0.074
Mof_C 	C 	0.90227	0.72543	0.76311	0.087
Mof_H 	H 	0.96117	0.75753	0.75303	0.081
Mof_H 	H 	0.85037	0.70393	0.77563	0.068
Mof_C 	C 	0.15187	0.85823	0.85515	-0.045
Mof_C 	C 	0.87567	0.68353	0.75497	-0.037
Mof_H 	H 	0.16467	0.83923	0.85193	0.047
Mof_H 	H 	0.17797	0.88873	0.85763	0.054
Mof_O 	O 	0.12407	0.83683	0.86559	-0.197
Mof_H 	H 	0.86427	0.65523	0.76013	0.042
Mof_H 	H 	0.84877	0.68373	0.75113	0.052
Mof_O 	O 	0.90527	0.68443	0.74546	-0.214
Mof_C 	C 	0.13927	0.81563	0.87412	0.103
Mof_C 	C 	0.88887	0.64783	0.73785	0.142
Mof_C 	C 	0.18567	0.82783	0.8744	-0.071
Mof_C 	C 	0.11037	0.79523	0.88511	0.003
Mof_C 	C 	0.84387	0.61373	0.73775	-0.116
Mof_C 	C 	0.91787	0.65333	0.72698	-0.024
Mof_H 	H 	0.20727	0.85043	0.86873	0.064
Mof_C 	C 	0.19977	0.80613	0.88317	-0.088
Mof_C 	C 	0.12537	0.77513	0.89342	-0.032
Mof_C 	C 	0.06357	0.78643	0.88753	-0.075
Mof_C 	C 	0.82967	0.57793	0.72833	-0.047
Mof_H 	H 	0.82257	0.61353	0.74373	0.076
Mof_C 	C 	0.90517	0.61923	0.71812	-0.002
Mof_C 	C 	0.96647	0.68973	0.72518	-0.058
Mof_H 	H 	0.22867	0.80743	0.88223	0.066
Mof_C 	C 	0.16957	0.78183	0.89364	0.141
Mof_C 	C 	0.08727	0.74533	0.90307	-0.06
Mof_H 	H 	0.05357	0.80203	0.88123	0.059
Mof_C 	C 	0.06187	0.79953	0.89983	0.035
Mof_C 	C 	0.03557	0.73573	0.88683	0.015
Mof_C 	C 	0.86237	0.58353	0.71793	0.089
Mof_H 	H 	0.79997	0.55123	0.72873	0.051
Mof_C 	C 	0.93807	0.62213	0.70896	-0.085
Mof_H 	H 	0.97697	0.71493	0.73163	0.06
Mof_C 	C 	0.99487	0.66943	0.72478	0.015
Mof_C 	C 	0.96497	0.70653	0.71142	0.023
Mof_O 	O 	0.18077	0.76083	0.90239	-0.226
Mof_H 	H 	0.09697	0.72983	0.90953	0.055
Mof_C 	C 	0.07527	0.78013	0.90883	0.011
Mof_C 	C 	0.04677	0.71323	0.89573	0.04
Mof_C 	C 	0.04757	0.82963	0.90393	-0.075
Mof_C 	C 	0.99757	0.71003	0.87883	-0.056
Mof_O 	O 	0.84237	0.54643	0.70915	-0.189
Mof_H 	H 	0.92667	0.59453	0.70333	0.064
Mof_C 	C 	0.98047	0.63343	0.71607	0.057
Mof_C 	C 	0.94837	0.66733	0.70195	0.028
Mof_C 	C 	0.03457	0.68113	0.73196	-0.061
Mof_C 	C 	0.97957	0.75103	0.70769	-0.071
Mof_C 	C 	0.22217	0.76883	0.90328	0.015
Mof_C 	C 	0.07527	0.79263	0.92283	-0.076
Mof_C 	C 	0.02747	0.67043	0.8975	-0.086
Mof_C 	C 	0.05267	0.84163	0.91933	-0.053
Mof_H 	H 	0.03537	0.84273	0.89823	0.053
Mof_C 	C 	0.97627	0.66473	0.87973	-0.033
Mof_H 	H 	0.98767	0.72483	0.87293	0.051
Mof_C 	C 	0.79547	0.51763	0.70776	-0.065
Mof_C 	C 	0.00357	0.61163	0.71473	-0.115
Mof_C 	C 	0.94797	0.67783	0.68955	-0.077
Mof_H 	H 	0.04567	0.70683	0.73753	0.059
Mof_C 	C 	0.05807	0.65803	0.73143	-0.046
Mof_H 	H 	0.98997	0.77543	0.71363	0.061
Mof_C 	C 	0.97837	0.75893	0.69469	-0.031
Mof_H 	H 	0.24267	0.80243	0.90443	0.039
Mof_H 	H 	0.23057	0.76043	0.89513	0.037
Mof_C 	C 	0.23197	0.74433	0.91364	0.083
Mof_H 	H 	0.08417	0.77833	0.92913	0.05
Mof_C 	C 	0.06287	0.82373	0.92633	-0.005
Mof_H 	H 	0.03947	0.65833	0.90363	0.057
Mof_C 	C 	0.98687	0.63963	0.89033	-0.022
Mof_H 	H 	0.04647	0.86483	0.92223	0.044
Mof_H 	H 	0.95347	0.64683	0.87363	0.041
Mof_H 	H 	0.77967	0.53593	0.70733	0.062
Mof_H 	H 	0.78287	0.49633	0.71503	0.052
Mof_C 	C 	0.78827	0.49153	0.69603	0.124
Mof_C 	C 	0.04297	0.62523	0.72213	-0
Mof_H 	H 	0.99357	0.58683	0.70893	0.072
Mof_C 	C 	0.95917	0.72013	0.68582	-0.025
Mof_H 	H 	0.93947	0.65433	0.68333	0.054
Mof_H 	H 	0.08267	0.66393	0.73703	0.046
Mof_H 	H 	0.99007	0.78943	0.69163	0.044
Mof_C 	C 	0.19917	0.72303	0.92291	-0.122
Mof_C 	C 	0.27237	0.74113	0.9148	-0.146
Mof_H 	H 	0.06297	0.83043	0.93503	0.026
Mof_H 	H 	0.96877	0.60743	0.89193	0.036
Mof_C 	C 	0.74237	0.45633	0.69213	-0.178
Mof_C 	C 	0.82047	0.50193	0.68753	-0.155
Mof_H 	H 	0.06067	0.61073	0.72053	0.028
Mof_H 	H 	0.95457	0.72523	0.67723	0.041
Mof_H 	H 	0.17147	0.72413	0.92233	0.087
Mof_C 	C 	0.20457	0.69983	0.93324	0.071
Mof_C 	C 	0.27687	0.71873	0.92495	0.098
Mof_H 	H 	0.29597	0.75433	0.90853	0.083
Mof_H 	H 	0.71597	0.44683	0.69733	0.088
Mof_C 	C 	0.73967	0.43733	0.68005	0.136
Mof_C 	C 	0.81557	0.47493	0.67554	0.095
Mof_H 	H 	0.84957	0.52883	0.68893	0.097
Mof_H 	H 	0.18177	0.68663	0.93963	0.026
Mof_C 	C 	0.24537	0.69673	0.93374	-0.16
Mof_H 	H 	0.30527	0.71903	0.92583	0.011
Mof_H 	H 	0.70927	0.41613	0.67733	0.005
Mof_C 	C 	0.77117	0.44363	0.67216	-0.214
Mof_H 	H 	0.84137	0.47933	0.67073	0.016
Mof_C 	C 	0.25047	0.66983	0.94413	0.424
Mof_C 	C 	0.76367	0.41493	0.66143	0.46
Mof_O 	O 	0.72357	0.39683	0.65754	-0.349
Mof_Zn	Zn	0.7111	0.26546	0.12705	1.227
Mof_O 	O 	0.67383	0.28497	0.1357	-0.674
Mof_O 	O 	0.74053	0.24817	0.14033	-0.47
Mof_O 	O 	0.67463	0.21157	0.11753	-0.484
Mof_O 	O 	0.75793	0.30727	0.11662	-0.515
Mof_Zn	Zn	0.63073	0.22497	0.14327	1.23
Mof_C 	C 	0.71433	0.22537	0.14938	0.375
Mof_C 	C 	0.63253	0.18017	0.121	0.333
Mof_O 	O 	0.67323	0.21077	0.15201	-0.49
Mof_O 	O 	0.60753	0.18117	0.12985	-0.485
Mof_O 	O 	0.58133	0.20577	0.15519	-0.51
Mof_O 	O 	0.62473	0.27877	0.11278	-0.493
Mof_C 	C 	0.74193	0.21587	0.1596	-0.106
Mof_C 	C 	0.60993	0.13857	0.11205	-0.092
Mof_C 	C 	0.72023	0.19177	0.17111	0.05
Mof_C 	C 	0.78663	0.22847	0.15845	0.055
Mof_C 	C 	0.63273	0.13307	0.10098	0.03
Mof_C 	C 	0.56883	0.10097	0.1154	0.031
Mof_C 	C 	0.74393	0.18307	0.1795	-0.128
Mof_H 	H 	0.68883	0.18217	0.17267	0.027
Mof_H 	H 	0.80223	0.24477	0.15097	0.033
Mof_C 	C 	0.81193	0.21967	0.16727	-0.136
Mof_C 	C 	0.61203	0.09357	0.0935	-0.122
Mof_H 	H 	0.66273	0.15727	0.09877	0.028
Mof_H 	H 	0.55453	0.10067	0.12317	0.036
Mof_C 	C 	0.54713	0.06167	0.10704	-0.123
Mof_C 	C 	0.79103	0.19757	0.1785	0.09
Mof_H 	H 	0.72793	0.16557	0.18677	0.084
Mof_H 	H 	0.84323	0.22867	0.16567	0.074
Mof_C 	C 	0.56893	0.05877	0.09645	0.09
Mof_H 	H 	0.62783	0.09087	0.08637	0.081
Mof_H 	H 	0.51703	0.03727	0.10897	0.067
Mof_C 	C 	0.81853	0.19157	0.18849	-0.045
Mof_C 	C 	0.54233	0.01687	0.08831	-0.045
Mof_H 	H 	0.83133	0.17257	0.18527	0.047
Mof_H 	H 	0.84463	0.22207	0.19097	0.054
Mof_O 	O 	0.79073	0.17017	0.19893	-0.197
Mof_H 	H 	0.53093	0.98857	0.09347	0.048
Mof_H 	H 	0.51543	0.01707	0.08447	0.053
Mof_O 	O 	0.57193	0.01777	0.0788	-0.216
Mof_C 	C 	0.80593	0.14897	0.20746	0.102
Mof_C 	C 	0.55553	0.98117	0.07119	0.143
Mof_C 	C 	0.85233	0.16117	0.20774	-0.071
Mof_C 	C 	0.77703	0.12857	0.21845	0.006
Mof_C 	C 	0.51053	0.94707	0.07109	-0.116
Mof_C 	C 	0.58453	0.98667	0.06032	-0.017
Mof_H 	H 	0.87393	0.18377	0.20207	0.063
Mof_C 	C 	0.86643	0.13947	0.21651	-0.089
Mof_C 	C 	0.79203	0.10847	0.22676	-0.034
Mof_C 	C 	0.73023	0.11977	0.22087	-0.082
Mof_C 	C 	0.49633	0.91127	0.06167	-0.048
Mof_H 	H 	0.48923	0.94687	0.07707	0.077
Mof_C 	C 	0.57183	0.95257	0.05146	-0.007
Mof_C 	C 	0.63313	0.02307	0.05852	-0.065
Mof_H 	H 	0.89533	0.14077	0.21557	0.066
Mof_C 	C 	0.83623	0.11517	0.22698	0.142
Mof_C 	C 	0.75393	0.07867	0.23641	-0.058
Mof_H 	H 	0.72023	0.13537	0.21457	0.062
Mof_C 	C 	0.72853	0.13287	0.23317	0.039
Mof_C 	C 	0.70223	0.06907	0.22017	0.026
Mof_C 	C 	0.52903	0.91687	0.05127	0.091
Mof_H 	H 	0.46663	0.88457	0.06207	0.051
Mof_C 	C 	0.60473	0.95547	0.0423	-0.074
Mof_H 	H 	0.64363	0.04827	0.06497	0.06
Mof_C 	C 	0.66153	0.00277	0.05812	0.019
Mof_C 	C 	0.63163	0.03987	0.04476	0.024
Mof_O 	O 	0.84743	0.09417	0.23573	-0.227
Mof_H 	H 	0.76363	0.06317	0.24287	0.054
Mof_C 	C 	0.74193	0.11347	0.24217	0.008
Mof_C 	C 	0.71343	0.04657	0.22907	0.037
Mof_C 	C 	0.71423	0.16297	0.23727	-0.078
Mof_C 	C 	0.66423	0.04337	0.21217	-0.077
Mof_O 	O 	0.50903	0.87977	0.04249	-0.189
Mof_H 	H 	0.59333	0.92787	0.03667	0.061
Mof_C 	C 	0.64713	0.96677	0.04941	0.041
Mof_C 	C 	0.61503	0.00067	0.03529	0.024
Mof_C 	C 	0.70123	0.01447	0.0653	-0.072
Mof_C 	C 	0.64623	0.08437	0.04103	-0.071
Mof_C 	C 	0.88883	0.10217	0.23662	0.015
Mof_C 	C 	0.74193	0.12597	0.25617	-0.073
Mof_C 	C 	0.69413	0.00377	0.23084	-0.09
Mof_C 	C 	0.71933	0.17497	0.25267	-0.048
Mof_H 	H 	0.70203	0.17607	0.23157	0.054
Mof_C 	C 	0.64293	0.99807	0.21307	-0.019
Mof_H 	H 	0.65433	0.05817	0.20627	0.055
Mof_C 	C 	0.46213	0.85097	0.0411	-0.065
Mof_C 	C 	0.67023	0.94497	0.04807	-0.084
Mof_C 	C 	0.61463	0.01117	0.02289	-0.085
Mof_H 	H 	0.71233	0.04017	0.07087	0.064
Mof_C 	C 	0.72473	0.99137	0.06477	-0.025
Mof_H 	H 	0.65663	0.10877	0.04697	0.059
Mof_C 	C 	0.64503	0.09227	0.02803	-0.033
Mof_H 	H 	0.90933	0.13577	0.23777	0.039
Mof_H 	H 	0.89723	0.09377	0.22847	0.037
Mof_C 	C 	0.89863	0.07767	0.24698	0.082
Mof_H 	H 	0.75083	0.11167	0.26247	0.049
Mof_C 	C 	0.72953	0.15707	0.25967	-0.01
Mof_H 	H 	0.70613	0.99167	0.23697	0.063
Mof_C 	C 	0.65353	0.97297	0.22367	-0.025
Mof_H 	H 	0.71313	0.19817	0.25557	0.043
Mof_H 	H 	0.62013	0.98017	0.20697	0.037
Mof_H 	H 	0.44633	0.86927	0.04067	0.062
Mof_H 	H 	0.44953	0.82967	0.04837	0.052
Mof_C 	C 	0.45493	0.82487	0.02937	0.123
Mof_C 	C 	0.70963	0.95857	0.05547	-0.02
Mof_H 	H 	0.66023	0.92017	0.04227	0.059
Mof_C 	C 	0.62583	0.05347	0.01916	-0.021
Mof_H 	H 	0.60613	0.98767	0.01667	0.06
Mof_H 	H 	0.74933	0.99727	0.07037	0.041
Mof_H 	H 	0.65673	0.12277	0.02497	0.044
Mof_C 	C 	0.86583	0.05637	0.25625	-0.121
Mof_C 	C 	0.93903	0.07447	0.24814	-0.145
Mof_H 	H 	0.72963	0.16377	0.26837	0.028
Mof_H 	H 	0.63543	0.94077	0.22527	0.037
Mof_C 	C 	0.40903	0.78967	0.02547	-0.177
Mof_C 	C 	0.48713	0.83527	0.02087	-0.155
Mof_H 	H 	0.72733	0.94407	0.05387	0.036
Mof_H 	H 	0.62123	0.05857	0.01057	0.038
Mof_H 	H 	0.83813	0.05747	0.25567	0.086
Mof_C 	C 	0.87123	0.03317	0.26658	0.068
Mof_C 	C 	0.94353	0.05207	0.25829	0.096
Mof_H 	H 	0.96263	0.08767	0.24187	0.084
Mof_H 	H 	0.38263	0.78017	0.03067	0.088
Mof_C 	C 	0.40633	0.77067	0.01339	0.136
Mof_C 	C 	0.48223	0.80827	0.00888	0.095
Mof_H 	H 	0.51623	0.86217	0.02227	0.097
Mof_H 	H 	0.84843	0.01997	0.27297	0.026
Mof_C 	C 	0.91203	0.03007	0.26708	-0.158
Mof_H 	H 	0.97193	0.05237	0.25917	0.013
Mof_H 	H 	0.37593	0.74947	0.01067	0.005
Mof_C 	C 	0.43783	0.77697	0.0055	-0.213
Mof_H 	H 	0.50803	0.81267	0.00407	0.016
Mof_C 	C 	0.91713	0.00317	0.27747	0.417
Mof_C 	C 	0.43033	0.74827	0.99477	0.459
Mof_O 	O 	0.39023	0.73017	0.99088	-0.349
Mof_Zn	Zn	0.22102	0.62223	0.46038	1.227
Mof_O 	O 	0.2778	0.6595	0.46903	-0.674
Mof_O 	O 	0.1743	0.5928	0.47366	-0.47
Mof_O 	O 	0.2036	0.6587	0.45086	-0.484
Mof_O 	O 	0.216	0.5754	0.44995	-0.515
Mof_Zn	Zn	0.2609	0.7026	0.4766	1.23
Mof_C 	C 	0.1777	0.619	0.48271	0.375
Mof_C 	C 	0.2143	0.7008	0.45433	0.332
Mof_O 	O 	0.2042	0.6601	0.48534	-0.49
Mof_O 	O 	0.2403	0.7258	0.46318	-0.485
Mof_O 	O 	0.2911	0.752	0.48852	-0.509
Mof_O 	O 	0.3207	0.7086	0.44611	-0.493
Mof_C 	C 	0.1406	0.5914	0.49293	-0.106
Mof_C 	C 	0.1953	0.7234	0.44538	-0.091
Mof_C 	C 	0.1382	0.6131	0.50444	0.05
Mof_C 	C 	0.1085	0.5467	0.49178	0.054
Mof_C 	C 	0.167	0.7006	0.43431	0.029
Mof_C 	C 	0.1988	0.7645	0.44873	0.03
Mof_C 	C 	0.1058	0.5894	0.51283	-0.127
Mof_H 	H 	0.16	0.6445	0.506	0.027
Mof_H 	H 	0.1092	0.5311	0.4843	0.033
Mof_C 	C 	0.0744	0.5214	0.5006	-0.136
Mof_C 	C 	0.1482	0.7213	0.42683	-0.119
Mof_H 	H 	0.1612	0.6706	0.4321	0.029
Mof_H 	H 	0.2128	0.7788	0.4565	0.036
Mof_C 	C 	0.1812	0.7862	0.44037	-0.12
Mof_C 	C 	0.0732	0.5423	0.51183	0.089
Mof_H 	H 	0.1043	0.6054	0.5201	0.084
Mof_H 	H 	0.0521	0.4901	0.499	0.072
Mof_C 	C 	0.1565	0.7644	0.42978	0.086
Mof_H 	H 	0.1297	0.7055	0.4197	0.08
Mof_H 	H 	0.1869	0.8163	0.4423	0.068
Mof_C 	C 	0.0397	0.5148	0.52182	-0.044
Mof_C 	C 	0.1412	0.791	0.42164	-0.036
Mof_H 	H 	0.0079	0.502	0.5186	0.045
Mof_H 	H 	0.0441	0.4887	0.5243	0.052
Mof_O 	O 	0.0461	0.5426	0.53226	-0.197
Mof_H 	H 	0.1243	0.8024	0.4268	0.042
Mof_H 	H 	0.1683	0.8179	0.4178	0.052
Mof_O 	O 	0.1125	0.7614	0.41213	-0.215
Mof_C 	C 	0.0097	0.5274	0.54079	0.098
Mof_C 	C 	0.0923	0.7778	0.40452	0.144
Mof_C 	C 	0.9755	0.481	0.54107	-0.064
Mof_C 	C 	0.0182	0.5563	0.55178	0
Mof_C 	C 	0.1032	0.8228	0.40442	-0.118
Mof_C 	C 	0.0688	0.7488	0.39365	-0.029
Mof_H 	H 	0.9765	0.4594	0.5354	0.063
Mof_C 	C 	0.9397	0.4669	0.54984	-0.09
Mof_C 	C 	0.9831	0.5413	0.56009	-0.028
Mof_C 	C 	0.0562	0.6031	0.5542	-0.077
Mof_C 	C 	0.0816	0.837	0.395	-0.046
Mof_H 	H 	0.1243	0.8441	0.4104	0.076
Mof_C 	C 	0.0474	0.7615	0.38479	0.002
Mof_C 	C 	0.0566	0.7002	0.39185	-0.046
Mof_H 	H 	0.9121	0.438	0.5489	0.067
Mof_C 	C 	0.9456	0.4971	0.56031	0.142
Mof_C 	C 	0.9914	0.5794	0.56974	-0.056
Mof_H 	H 	0.0818	0.6131	0.5479	0.06
Mof_C 	C 	0.071	0.6048	0.5665	0.039
Mof_C 	C 	0.0335	0.6311	0.5535	0.016
Mof_C 	C 	0.0545	0.8043	0.3846	0.086
Mof_H 	H 	0.0846	0.8667	0.3954	0.05
Mof_C 	C 	0.0174	0.7286	0.37563	-0.094
Mof_H 	H 	0.0713	0.6897	0.3983	0.055
Mof_C 	C 	0.0079	0.6718	0.39145	-0.007
Mof_C 	C 	0.0749	0.7017	0.37809	0.018
Mof_O 	O 	0.9134	0.4859	0.56906	-0.226
Mof_H 	H 	0.9662	0.5697	0.5762	0.055
Mof_C 	C 	0.0382	0.5914	0.5755	0.004
Mof_C 	C 	0.9998	0.6199	0.5624	0.042
Mof_C 	C 	0.1154	0.6191	0.5706	-0.078
Mof_C 	C 	0.0458	0.6691	0.5455	-0.061
Mof_O 	O 	0.0374	0.8243	0.37582	-0.187
Mof_H 	H 	0.0012	0.74	0.37	0.065
Mof_C 	C 	0.9863	0.6862	0.38274	0.066
Mof_C 	C 	0.0523	0.7183	0.36862	0.031
Mof_C 	C 	0.9799	0.6321	0.39863	-0.039
Mof_C 	C 	0.1048	0.6871	0.37436	-0.068
Mof_C 	C 	0.88	0.4445	0.56995	0.015
Mof_C 	C 	0.0507	0.5914	0.5895	-0.071
Mof_C 	C 	0.9763	0.6392	0.56417	-0.081
Mof_C 	C 	0.1223	0.614	0.586	-0.046
Mof_H 	H 	0.1407	0.6313	0.5649	0.054
Mof_C 	C 	0.0218	0.6904	0.5464	-0.037
Mof_H 	H 	0.0705	0.679	0.5396	0.05
Mof_C 	C 	0.0555	0.8712	0.37443	-0.073
Mof_C 	C 	0.9414	0.6631	0.3814	-0.108
Mof_C 	C 	0.0632	0.7187	0.35622	-0.08
Mof_H 	H 	0.9945	0.621	0.4042	0.055
Mof_C 	C 	0.9333	0.6086	0.3981	-0.056
Mof_H 	H 	0.1188	0.6767	0.3803	0.058
Mof_C 	C 	0.1139	0.6883	0.36136	-0.034
Mof_H 	H 	0.8931	0.424	0.5711	0.039
Mof_H 	H 	0.8632	0.4361	0.5618	0.037
Mof_C 	C 	0.8457	0.4347	0.58031	0.083
Mof_H 	H 	0.0275	0.5825	0.5958	0.047
Mof_C 	C 	0.0942	0.6038	0.593	-0.013
Mof_H 	H 	0.9522	0.6272	0.5703	0.056
Mof_C 	C 	0.9861	0.6798	0.557	-0.023
Mof_H 	H 	0.1517	0.6202	0.5889	0.042
Mof_H 	H 	0.0267	0.7132	0.5403	0.04
Mof_H 	H 	0.0896	0.887	0.374	0.064
Mof_H 	H 	0.0468	0.8838	0.3817	0.054
Mof_C 	C 	0.0366	0.8784	0.3627	0.136
Mof_C 	C 	0.9156	0.6237	0.3888	0.004
Mof_H 	H 	0.9266	0.6731	0.3756	0.068
Mof_C 	C 	0.0943	0.7075	0.35249	-0.023
Mof_H 	H 	0.0482	0.7272	0.35	0.054
Mof_H 	H 	0.9146	0.584	0.4037	0.05
Mof_H 	H 	0.1327	0.6766	0.3583	0.044
Mof_C 	C 	0.8572	0.4675	0.58958	-0.122
Mof_C 	C 	0.8021	0.3943	0.58147	-0.146
Mof_H 	H 	0.1008	0.6037	0.6017	0.029
Mof_H 	H 	0.972	0.6979	0.5586	0.036
Mof_C 	C 	0.0473	0.9243	0.3588	-0.192
Mof_C 	C 	0.0148	0.8462	0.3542	-0.173
Mof_H 	H 	0.8834	0.606	0.3872	0.028
Mof_H 	H 	0.104	0.7121	0.3439	0.039
Mof_H 	H 	0.886	0.4952	0.589	0.087
Mof_C 	C 	0.8286	0.4621	0.59991	0.071
Mof_C 	C 	0.7752	0.3898	0.59162	0.099
Mof_H 	H 	0.7917	0.3707	0.5752	0.083
Mof_H 	H 	0.0642	0.9507	0.364	0.093
Mof_C 	C 	0.031	0.927	0.34672	0.156
Mof_C 	C 	0.9927	0.8511	0.34221	0.121
Mof_H 	H 	0.0126	0.8171	0.3556	0.102
Mof_H 	H 	0.8382	0.4849	0.6063	0.027
Mof_C 	C 	0.7847	0.4213	0.60041	-0.16
Mof_H 	H 	0.7471	0.3614	0.5925	0.011
Mof_H 	H 	0.0402	0.9574	0.344	-0.001
Mof_C 	C 	0.0058	0.8955	0.33883	-0.241
Mof_H 	H 	0.9713	0.8253	0.3374	0.009
Mof_C 	C 	0.7527	0.4162	0.6108	0.424
Mof_C 	C 	0.9846	0.903	0.3281	0.478
Mof_O 	O 	0.0066	0.9431	0.32421	-0.356
Mof_Zn	Zn	0.88769	0.95556	0.79371	1.227
Mof_O 	O 	0.94447	0.99283	0.80236	-0.669
Mof_O 	O 	0.84097	0.92613	0.80699	-0.47
Mof_O 	O 	0.87027	0.99203	0.78419	-0.48
Mof_O 	O 	0.88267	0.90873	0.78328	-0.515
Mof_Zn	Zn	0.92757	0.03593	0.80993	1.229
Mof_C 	C 	0.84437	0.95233	0.81604	0.375
Mof_C 	C 	0.88097	0.03413	0.78766	0.327
Mof_O 	O 	0.87087	0.99343	0.81867	-0.488
Mof_O 	O 	0.90697	0.05913	0.79651	-0.484
Mof_O 	O 	0.95777	0.08533	0.82185	-0.516
Mof_O 	O 	0.98737	0.04193	0.77944	-0.494
Mof_C 	C 	0.80727	0.92473	0.82626	-0.106
Mof_C 	C 	0.86197	0.05673	0.77871	-0.09
Mof_C 	C 	0.80487	0.94643	0.83777	0.05
Mof_C 	C 	0.77517	0.88003	0.82511	0.055
Mof_C 	C 	0.83367	0.03393	0.76764	0.028
Mof_C 	C 	0.86547	0.09783	0.78206	0.029
Mof_C 	C 	0.77247	0.92273	0.84616	-0.128
Mof_H 	H 	0.82667	0.97783	0.83933	0.028
Mof_H 	H 	0.77587	0.86443	0.81763	0.033
Mof_C 	C 	0.74107	0.85473	0.83393	-0.136
Mof_C 	C 	0.81487	0.05463	0.76016	-0.119
Mof_H 	H 	0.82787	0.00393	0.76543	0.027
Mof_H 	H 	0.87947	0.11213	0.78983	0.037
Mof_C 	C 	0.84787	0.11953	0.7737	-0.12
Mof_C 	C 	0.73987	0.87563	0.84516	0.09
Mof_H 	H 	0.77097	0.93873	0.85343	0.085
Mof_H 	H 	0.71877	0.82343	0.83233	0.074
Mof_C 	C 	0.82317	0.09773	0.76311	0.086
Mof_H 	H 	0.79637	0.03883	0.75303	0.079
Mof_H 	H 	0.85357	0.14963	0.77563	0.067
Mof_C 	C 	0.70637	0.84813	0.85515	-0.045
Mof_C 	C 	0.80787	0.12433	0.75497	-0.036
Mof_H 	H 	0.67457	0.83533	0.85193	0.047
Mof_H 	H 	0.71077	0.82203	0.85763	0.054
Mof_O 	O 	0.71277	0.87593	0.86559	-0.196
Mof_H 	H 	0.79097	0.13573	0.76013	0.042
Mof_H 	H 	0.83497	0.15123	0.75113	0.052
Mof_O 	O 	0.77917	0.09473	0.74546	-0.214
Mof_C 	C 	0.67637	0.86073	0.87412	0.099
Mof_C 	C 	0.75897	0.11113	0.73785	0.14
Mof_C 	C 	0.64217	0.81433	0.8744	-0.068
Mof_C 	C 	0.68487	0.88963	0.88511	0.012
Mof_C 	C 	0.76987	0.15613	0.73775	-0.114
Mof_C 	C 	0.73547	0.08213	0.72698	-0.02
Mof_H 	H 	0.64317	0.79273	0.86873	0.063
Mof_C 	C 	0.60637	0.80023	0.88317	-0.091
Mof_C 	C 	0.64977	0.87463	0.89342	-0.04
Mof_C 	C 	0.72287	0.93643	0.88753	-0.097
Mof_C 	C 	0.74827	0.17033	0.72833	-0.049
Mof_H 	H 	0.79097	0.17743	0.74373	0.075
Mof_C 	C 	0.71407	0.09483	0.71812	-0.009
Mof_C 	C 	0.72327	0.03353	0.72518	-0.062
Mof_H 	H 	0.57877	0.77133	0.88223	0.067
Mof_C 	C 	0.61227	0.83043	0.89364	0.145
Mof_C 	C 	0.65807	0.91273	0.90307	-0.043
Mof_H 	H 	0.74847	0.94643	0.88123	0.066
Mof_C 	C 	0.73767	0.93813	0.89983	0.05
Mof_C 	C 	0.70017	0.96443	0.88683	0.048
Mof_C 	C 	0.72117	0.13763	0.71793	0.092
Mof_H 	H 	0.75127	0.20003	0.72873	0.051
Mof_C 	C 	0.68407	0.06193	0.70896	-0.069
Mof_H 	H 	0.73797	0.02303	0.73163	0.058
Mof_C 	C 	0.67457	0.00513	0.72478	0.021
Mof_C 	C 	0.74157	0.03503	0.71142	0.025
Mof_O 	O 	0.58007	0.81923	0.90239	-0.227
Mof_H 	H 	0.63287	0.90303	0.90953	0.051
Mof_C 	C 	0.70487	0.92473	0.90883	-0.001
Mof_C 	C 	0.66647	0.95323	0.89573	0.011
Mof_C 	C 	0.78207	0.95243	0.90393	-0.086
Mof_C 	C 	0.71247	0.00243	0.87883	-0.093
Mof_O 	O 	0.70407	0.15763	0.70915	-0.19
Mof_H 	H 	0.66787	0.07333	0.70333	0.059
Mof_C 	C 	0.65297	0.01953	0.71607	0.024
Mof_C 	C 	0.71897	0.05163	0.70195	0.022
Mof_C 	C 	0.64657	0.96543	0.73196	-0.064
Mof_C 	C 	0.77147	0.02043	0.70769	-0.074
Mof_C 	C 	0.54667	0.77783	0.90328	0.015
Mof_C 	C 	0.71737	0.92473	0.92283	-0.062
Mof_C 	C 	0.64297	0.97253	0.8975	-0.048
Mof_C 	C 	0.78897	0.94733	0.91933	-0.034
Mof_H 	H 	0.80737	0.96463	0.89823	0.057
Mof_C 	C 	0.68847	0.02373	0.87973	-0.008
Mof_H 	H 	0.73717	0.01233	0.87293	0.059
Mof_C 	C 	0.72217	0.20453	0.70776	-0.065
Mof_C 	C 	0.60807	0.99643	0.71473	-0.06
Mof_C 	C 	0.72987	0.05203	0.68955	-0.073
Mof_H 	H 	0.66117	0.95433	0.73753	0.062
Mof_C 	C 	0.59997	0.94193	0.73143	-0.027
Mof_H 	H 	0.78547	0.01003	0.71363	0.059
Mof_C 	C 	0.78057	0.02163	0.69469	-0.03
Mof_H 	H 	0.55977	0.75733	0.90443	0.038
Mof_H 	H 	0.52987	0.76943	0.89513	0.037
Mof_C 	C 	0.51237	0.76803	0.91364	0.083
Mof_H 	H 	0.69417	0.91583	0.92913	0.046
Mof_C 	C 	0.76087	0.93713	0.92633	-0.025
Mof_H 	H 	0.61887	0.96053	0.90363	0.046
Mof_C 	C 	0.65277	0.01313	0.89033	-0.054
Mof_H 	H 	0.81837	0.95353	0.92223	0.039
Mof_H 	H 	0.69337	0.04653	0.87363	0.031
Mof_H 	H 	0.75627	0.22033	0.70733	0.062
Mof_H 	H 	0.71347	0.21713	0.71503	0.052
Mof_C 	C 	0.70327	0.21173	0.69603	0.123
Mof_C 	C 	0.58227	0.95703	0.72213	-0.029
Mof_H 	H 	0.59327	0.00643	0.70893	0.048
Mof_C 	C 	0.76097	0.04083	0.68582	-0.029
Mof_H 	H 	0.71487	0.06053	0.68333	0.052
Mof_H 	H 	0.58127	0.91733	0.73703	0.04
Mof_H 	H 	0.79937	0.00993	0.69163	0.042
Mof_C 	C 	0.52387	0.80083	0.92291	-0.122
Mof_C 	C 	0.46877	0.72763	0.9148	-0.146
Mof_H 	H 	0.76747	0.93703	0.93503	0.034
Mof_H 	H 	0.63867	0.03123	0.89193	0.045
Mof_C 	C 	0.71397	0.25763	0.69213	-0.178
Mof_C 	C 	0.68147	0.17953	0.68753	-0.155
Mof_H 	H 	0.55007	0.93933	0.72053	0.039
Mof_H 	H 	0.77067	0.04543	0.67723	0.041
Mof_H 	H 	0.55267	0.82853	0.92233	0.087
Mof_C 	C 	0.49527	0.79543	0.93324	0.071
Mof_C 	C 	0.44187	0.72313	0.92495	0.098
Mof_H 	H 	0.45837	0.70403	0.90853	0.083
Mof_H 	H 	0.73087	0.28403	0.69733	0.088
Mof_C 	C 	0.69767	0.26033	0.68005	0.136
Mof_C 	C 	0.65937	0.18443	0.67554	0.095
Mof_H 	H 	0.67927	0.15043	0.68893	0.097
Mof_H 	H 	0.50487	0.81823	0.93963	0.027
Mof_C 	C 	0.45137	0.75463	0.93374	-0.16
Mof_H 	H 	0.41377	0.69473	0.92583	0.011
Mof_H 	H 	0.70687	0.29073	0.67733	0.005
Mof_C 	C 	0.67247	0.22883	0.67216	-0.214
Mof_H 	H 	0.63797	0.15863	0.67073	0.016
Mof_C 	C 	0.41937	0.74953	0.94413	0.424
Mof_C 	C 	0.65127	0.23633	0.66143	0.46
Mof_O 	O 	0.67327	0.27643	0.65754	-0.349
Mof_Zn	Zn	0.55435	0.2889	0.12705	1.227
Mof_O 	O 	0.61113	0.32617	0.1357	-0.674
Mof_O 	O 	0.50763	0.25947	0.14033	-0.47
Mof_O 	O 	0.53693	0.32537	0.11753	-0.484
Mof_O 	O 	0.54933	0.24207	0.11662	-0.515
Mof_Zn	Zn	0.59423	0.36927	0.14327	1.23
Mof_C 	C 	0.51103	0.28567	0.14938	0.375
Mof_C 	C 	0.54763	0.36747	0.121	0.332
Mof_O 	O 	0.53753	0.32677	0.15201	-0.49
Mof_O 	O 	0.57363	0.39247	0.12985	-0.485
Mof_O 	O 	0.62443	0.41867	0.15519	-0.509
Mof_O 	O 	0.65403	0.37527	0.11278	-0.493
Mof_C 	C 	0.47393	0.25807	0.1596	-0.106
Mof_C 	C 	0.52863	0.39007	0.11205	-0.091
Mof_C 	C 	0.47153	0.27977	0.17111	0.05
Mof_C 	C 	0.44183	0.21337	0.15845	0.055
Mof_C 	C 	0.50033	0.36727	0.10098	0.029
Mof_C 	C 	0.53213	0.43117	0.1154	0.03
Mof_C 	C 	0.43913	0.25607	0.1795	-0.128
Mof_H 	H 	0.49333	0.31117	0.17267	0.027
Mof_H 	H 	0.44253	0.19777	0.15097	0.033
Mof_C 	C 	0.40773	0.18807	0.16727	-0.136
Mof_C 	C 	0.48153	0.38797	0.0935	-0.119
Mof_H 	H 	0.49453	0.33727	0.09877	0.029
Mof_H 	H 	0.54613	0.44547	0.12317	0.036
Mof_C 	C 	0.51453	0.45287	0.10704	-0.12
Mof_C 	C 	0.40653	0.20897	0.1785	0.09
Mof_H 	H 	0.43763	0.27207	0.18677	0.084
Mof_H 	H 	0.38543	0.15677	0.16567	0.074
Mof_C 	C 	0.48983	0.43107	0.09645	0.087
Mof_H 	H 	0.46303	0.37217	0.08637	0.08
Mof_H 	H 	0.52023	0.48297	0.10897	0.068
Mof_C 	C 	0.37303	0.18147	0.18849	-0.045
Mof_C 	C 	0.47453	0.45767	0.08831	-0.036
Mof_H 	H 	0.34123	0.16867	0.18527	0.047
Mof_H 	H 	0.37743	0.15537	0.19097	0.054
Mof_O 	O 	0.37943	0.20927	0.19893	-0.197
Mof_H 	H 	0.45763	0.46907	0.09347	0.042
Mof_H 	H 	0.50163	0.48457	0.08447	0.052
Mof_O 	O 	0.44583	0.42807	0.0788	-0.214
Mof_C 	C 	0.34303	0.19407	0.20746	0.101
Mof_C 	C 	0.42563	0.44447	0.07119	0.141
Mof_C 	C 	0.30883	0.14767	0.20774	-0.07
Mof_C 	C 	0.35153	0.22297	0.21845	0.008
Mof_C 	C 	0.43653	0.48947	0.07109	-0.115
Mof_C 	C 	0.40213	0.41547	0.06032	-0.022
Mof_H 	H 	0.30983	0.12607	0.20207	0.063
Mof_C 	C 	0.27303	0.13357	0.21651	-0.09
Mof_C 	C 	0.31643	0.20797	0.22676	-0.036
Mof_C 	C 	0.38953	0.26977	0.22087	-0.086
Mof_C 	C 	0.41493	0.50367	0.06167	-0.048
Mof_H 	H 	0.45763	0.51077	0.07707	0.076
Mof_C 	C 	0.38073	0.42817	0.05146	-0.006
Mof_C 	C 	0.38993	0.36687	0.05852	-0.06
Mof_H 	H 	0.24543	0.10467	0.21557	0.066
Mof_C 	C 	0.27893	0.16377	0.22698	0.143
Mof_C 	C 	0.32473	0.24607	0.23641	-0.052
Mof_H 	H 	0.41513	0.27977	0.21457	0.063
Mof_C 	C 	0.40433	0.27147	0.23317	0.042
Mof_C 	C 	0.36683	0.29777	0.22017	0.03
Mof_C 	C 	0.38783	0.47097	0.05127	0.091
Mof_H 	H 	0.41793	0.53337	0.06207	0.051
Mof_C 	C 	0.35073	0.39527	0.0423	-0.077
Mof_H 	H 	0.40463	0.35637	0.06497	0.059
Mof_C 	C 	0.34123	0.33847	0.05812	0.018
Mof_C 	C 	0.40823	0.36837	0.04476	0.024
Mof_O 	O 	0.24673	0.15257	0.23573	-0.227
Mof_H 	H 	0.29953	0.23637	0.24287	0.053
Mof_C 	C 	0.37153	0.25807	0.24217	0.005
Mof_C 	C 	0.33313	0.28657	0.22907	0.026
Mof_C 	C 	0.44873	0.28577	0.23727	-0.08
Mof_C 	C 	0.37913	0.33577	0.21217	-0.074
Mof_O 	O 	0.37073	0.49097	0.04249	-0.189
Mof_H 	H 	0.33453	0.40667	0.03667	0.061
Mof_C 	C 	0.31963	0.35287	0.04941	0.04
Mof_C 	C 	0.38563	0.38497	0.03529	0.025
Mof_C 	C 	0.31323	0.29877	0.0653	-0.062
Mof_C 	C 	0.43813	0.35377	0.04103	-0.072
Mof_C 	C 	0.21333	0.11117	0.23662	0.015
Mof_C 	C 	0.38403	0.25807	0.25617	-0.069
Mof_C 	C 	0.30963	0.30587	0.23084	-0.068
Mof_C 	C 	0.45563	0.28067	0.25267	-0.044
Mof_H 	H 	0.47403	0.29797	0.23157	0.055
Mof_C 	C 	0.35513	0.35707	0.21307	-0.021
Mof_H 	H 	0.40383	0.34567	0.20627	0.055
Mof_C 	C 	0.38883	0.53787	0.0411	-0.065
Mof_C 	C 	0.27473	0.32977	0.04807	-0.087
Mof_C 	C 	0.39653	0.38537	0.02289	-0.075
Mof_H 	H 	0.32783	0.28767	0.07087	0.061
Mof_C 	C 	0.26663	0.27527	0.06477	-0.037
Mof_H 	H 	0.45213	0.34337	0.04697	0.06
Mof_C 	C 	0.44723	0.35497	0.02803	-0.03
Mof_H 	H 	0.22643	0.09067	0.23777	0.038
Mof_H 	H 	0.19653	0.10277	0.22847	0.037
Mof_C 	C 	0.17903	0.10137	0.24698	0.083
Mof_H 	H 	0.36083	0.24917	0.26247	0.048
Mof_C 	C 	0.42753	0.27047	0.25967	-0.014
Mof_H 	H 	0.28553	0.29387	0.23697	0.052
Mof_C 	C 	0.31943	0.34647	0.22367	-0.037
Mof_H 	H 	0.48503	0.28687	0.25557	0.041
Mof_H 	H 	0.36003	0.37987	0.20697	0.036
Mof_H 	H 	0.42293	0.55367	0.04067	0.062
Mof_H 	H 	0.38013	0.55047	0.04837	0.052
Mof_C 	C 	0.36993	0.54507	0.02937	0.123
Mof_C 	C 	0.24893	0.29037	0.05547	-0.015
Mof_H 	H 	0.25993	0.33977	0.04227	0.059
Mof_C 	C 	0.42763	0.37417	0.01916	-0.027
Mof_H 	H 	0.38153	0.39387	0.01667	0.053
Mof_H 	H 	0.24793	0.25067	0.07037	0.042
Mof_H 	H 	0.46603	0.34327	0.02497	0.043
Mof_C 	C 	0.19053	0.13417	0.25625	-0.122
Mof_C 	C 	0.13543	0.06097	0.24814	-0.147
Mof_H 	H 	0.43413	0.27037	0.26837	0.03
Mof_H 	H 	0.30533	0.36457	0.22527	0.04
Mof_C 	C 	0.38063	0.59097	0.02547	-0.178
Mof_C 	C 	0.34813	0.51287	0.02087	-0.155
Mof_H 	H 	0.21673	0.27267	0.05387	0.033
Mof_H 	H 	0.43733	0.37877	0.01057	0.041
Mof_H 	H 	0.21933	0.16187	0.25567	0.087
Mof_C 	C 	0.16193	0.12877	0.26658	0.071
Mof_C 	C 	0.10853	0.05647	0.25829	0.099
Mof_H 	H 	0.12503	0.03737	0.24187	0.082
Mof_H 	H 	0.39753	0.61737	0.03067	0.088
Mof_C 	C 	0.36433	0.59367	0.01339	0.136
Mof_C 	C 	0.32603	0.51777	0.00888	0.095
Mof_H 	H 	0.34593	0.48377	0.02227	0.097
Mof_H 	H 	0.17153	0.15157	0.27297	0.026
Mof_C 	C 	0.11803	0.08797	0.26708	-0.161
Mof_H 	H 	0.08043	0.02807	0.25917	0.009
Mof_H 	H 	0.37353	0.62407	0.01067	0.005
Mof_C 	C 	0.33913	0.56217	0.0055	-0.213
Mof_H 	H 	0.30463	0.49197	0.00407	0.016
Mof_C 	C 	0.08603	0.08287	0.27747	0.425
Mof_C 	C 	0.31793	0.56967	0.99477	0.459
Mof_O 	O 	0.33993	0.60977	0.99088	-0.349
Mof_Zn	Zn	0.22102	0.59879	0.96038	1.227
Mof_O 	O 	0.2778	0.6183	0.96903	-0.674
Mof_O 	O 	0.1743	0.5815	0.97366	-0.47
Mof_O 	O 	0.2036	0.5449	0.95086	-0.484
Mof_O 	O 	0.216	0.6406	0.94995	-0.515
Mof_Zn	Zn	0.2609	0.5583	0.9766	1.23
Mof_C 	C 	0.1777	0.5587	0.98271	0.375
Mof_C 	C 	0.2143	0.5135	0.95433	0.332
Mof_O 	O 	0.2042	0.5441	0.98534	-0.49
Mof_O 	O 	0.2403	0.5145	0.96318	-0.485
Mof_O 	O 	0.2911	0.5391	0.98852	-0.509
Mof_O 	O 	0.3207	0.6121	0.94611	-0.493
Mof_C 	C 	0.1406	0.5492	0.99293	-0.106
Mof_C 	C 	0.1953	0.4719	0.94538	-0.091
Mof_C 	C 	0.1382	0.5251	0.00444	0.05
Mof_C 	C 	0.1085	0.5618	0.99178	0.054
Mof_C 	C 	0.167	0.4664	0.93431	0.029
Mof_C 	C 	0.1988	0.4343	0.94873	0.03
Mof_C 	C 	0.1058	0.5164	0.01283	-0.127
Mof_H 	H 	0.16	0.5155	0.006	0.027
Mof_H 	H 	0.1092	0.5781	0.9843	0.033
Mof_C 	C 	0.0744	0.553	0.0006	-0.136
Mof_C 	C 	0.1482	0.4269	0.92683	-0.119
Mof_H 	H 	0.1612	0.4906	0.9321	0.029
Mof_H 	H 	0.2128	0.434	0.9565	0.036
Mof_C 	C 	0.1812	0.395	0.94037	-0.12
Mof_C 	C 	0.0732	0.5309	0.01183	0.089
Mof_H 	H 	0.1043	0.4989	0.0201	0.084
Mof_H 	H 	0.0521	0.562	0.999	0.073
Mof_C 	C 	0.1565	0.3921	0.92978	0.086
Mof_H 	H 	0.1297	0.4242	0.9197	0.08
Mof_H 	H 	0.1869	0.3706	0.9423	0.067
Mof_C 	C 	0.0397	0.5249	0.02182	-0.044
Mof_C 	C 	0.1412	0.3502	0.92164	-0.035
Mof_H 	H 	0.0079	0.5059	0.0186	0.045
Mof_H 	H 	0.0441	0.5554	0.0243	0.052
Mof_O 	O 	0.0461	0.5035	0.03226	-0.197
Mof_H 	H 	0.1243	0.3219	0.9268	0.041
Mof_H 	H 	0.1683	0.3504	0.9178	0.052
Mof_O 	O 	0.1125	0.3511	0.91213	-0.215
Mof_C 	C 	0.0097	0.4823	0.04079	0.098
Mof_C 	C 	0.0923	0.3145	0.90452	0.144
Mof_C 	C 	0.9755	0.4945	0.04107	-0.064
Mof_C 	C 	0.0182	0.4619	0.05178	0
Mof_C 	C 	0.1032	0.2804	0.90442	-0.118
Mof_C 	C 	0.0688	0.32	0.89365	-0.029
Mof_H 	H 	0.9765	0.5171	0.0354	0.063
Mof_C 	C 	0.9397	0.4728	0.04984	-0.09
Mof_C 	C 	0.9831	0.4418	0.06009	-0.028
Mof_C 	C 	0.0562	0.4531	0.0542	-0.077
Mof_C 	C 	0.0816	0.2446	0.895	-0.045
Mof_H 	H 	0.1243	0.2802	0.9104	0.076
Mof_C 	C 	0.0474	0.2859	0.88479	0.002
Mof_C 	C 	0.0566	0.3564	0.89185	-0.046
Mof_H 	H 	0.9121	0.4741	0.0489	0.067
Mof_C 	C 	0.9456	0.4485	0.06031	0.141
Mof_C 	C 	0.9914	0.412	0.06974	-0.056
Mof_H 	H 	0.0818	0.4687	0.0479	0.06
Mof_C 	C 	0.071	0.4662	0.0665	0.038
Mof_C 	C 	0.0335	0.4024	0.0535	0.015
Mof_C 	C 	0.0545	0.2502	0.8846	0.086
Mof_H 	H 	0.0846	0.2179	0.8954	0.05
Mof_C 	C 	0.0174	0.2888	0.87563	-0.094
Mof_H 	H 	0.0713	0.3816	0.8983	0.055
Mof_C 	C 	0.0079	0.3361	0.89145	-0.008
Mof_C 	C 	0.0749	0.3732	0.87809	0.018
Mof_O 	O 	0.9134	0.4275	0.06906	-0.226
Mof_H 	H 	0.9662	0.3965	0.0762	0.055
Mof_C 	C 	0.0382	0.4468	0.0755	0.004
Mof_C 	C 	0.9998	0.3799	0.0624	0.043
Mof_C 	C 	0.1154	0.4963	0.0706	-0.078
Mof_C 	C 	0.0458	0.3767	0.0455	-0.061
Mof_O 	O 	0.0374	0.2131	0.87582	-0.188
Mof_H 	H 	0.0012	0.2612	0.87	0.065
Mof_C 	C 	0.9863	0.3001	0.88274	0.067
Mof_C 	C 	0.0523	0.334	0.86862	0.031
Mof_C 	C 	0.9799	0.3478	0.89863	-0.038
Mof_C 	C 	0.1048	0.4177	0.87436	-0.068
Mof_C 	C 	0.88	0.4355	0.06995	0.014
Mof_C 	C 	0.0507	0.4593	0.0895	-0.071
Mof_C 	C 	0.9763	0.3371	0.06417	-0.081
Mof_C 	C 	0.1223	0.5083	0.086	-0.047
Mof_H 	H 	0.1407	0.5094	0.0649	0.054
Mof_C 	C 	0.0218	0.3314	0.0464	-0.037
Mof_H 	H 	0.0705	0.3915	0.0396	0.05
Mof_C 	C 	0.0555	0.1843	0.87443	-0.073
Mof_C 	C 	0.9414	0.2783	0.8814	-0.109
Mof_C 	C 	0.0632	0.3445	0.85622	-0.08
Mof_H 	H 	0.9945	0.3735	0.9042	0.055
Mof_C 	C 	0.9333	0.3247	0.8981	-0.057
Mof_H 	H 	0.1188	0.4421	0.8803	0.058
Mof_C 	C 	0.1139	0.4256	0.86136	-0.034
Mof_H 	H 	0.8931	0.4691	0.0711	0.039
Mof_H 	H 	0.8632	0.4271	0.0618	0.037
Mof_C 	C 	0.8457	0.411	0.08031	0.083
Mof_H 	H 	0.0275	0.445	0.0958	0.047
Mof_C 	C 	0.0942	0.4904	0.093	-0.012
Mof_H 	H 	0.9522	0.325	0.0703	0.057
Mof_C 	C 	0.9861	0.3063	0.057	-0.023
Mof_H 	H 	0.1517	0.5315	0.0889	0.042
Mof_H 	H 	0.0267	0.3135	0.0403	0.04
Mof_H 	H 	0.0896	0.2026	0.874	0.064
Mof_H 	H 	0.0468	0.163	0.8817	0.053
Mof_C 	C 	0.0366	0.1582	0.8627	0.137
Mof_C 	C 	0.9156	0.2919	0.8888	0.005
Mof_H 	H 	0.9266	0.2535	0.8756	0.068
Mof_C 	C 	0.0943	0.3868	0.85249	-0.023
Mof_H 	H 	0.0482	0.321	0.85	0.054
Mof_H 	H 	0.9146	0.3306	0.9037	0.05
Mof_H 	H 	0.1327	0.4561	0.8583	0.044
Mof_C 	C 	0.8572	0.3897	0.08958	-0.122
Mof_C 	C 	0.8021	0.4078	0.08147	-0.146
Mof_H 	H 	0.1008	0.4971	0.1017	0.028
Mof_H 	H 	0.972	0.2741	0.0586	0.036
Mof_C 	C 	0.0473	0.123	0.8588	-0.194
Mof_C 	C 	0.0148	0.1686	0.8542	-0.175
Mof_H 	H 	0.8834	0.2774	0.8872	0.027
Mof_H 	H 	0.104	0.3919	0.8439	0.039
Mof_H 	H 	0.886	0.3908	0.089	0.087
Mof_C 	C 	0.8286	0.3665	0.09991	0.071
Mof_C 	C 	0.7752	0.3854	0.09162	0.099
Mof_H 	H 	0.7917	0.421	0.0752	0.083
Mof_H 	H 	0.0642	0.1135	0.864	0.092
Mof_C 	C 	0.031	0.104	0.84672	0.158
Mof_C 	C 	0.9927	0.1416	0.84221	0.123
Mof_H 	H 	0.0126	0.1955	0.8556	0.102
Mof_H 	H 	0.8382	0.3533	0.1063	0.027
Mof_C 	C 	0.7847	0.3634	0.10041	-0.16
Mof_H 	H 	0.7471	0.3857	0.0925	0.011
Mof_H 	H 	0.0402	0.0828	0.844	-0.003
Mof_C 	C 	0.0058	0.1103	0.83883	-0.245
Mof_H 	H 	0.9713	0.146	0.8374	0.007
Mof_C 	C 	0.7527	0.3365	0.1108	0.424
Mof_C 	C 	0.9846	0.0816	0.8281	0.481
Mof_O 	O 	0.0066	0.0635	0.82421	-0.359
Mof_Zn	Zn	0.88769	0.93212	0.29371	1.227
Mof_O 	O 	0.94447	0.95163	0.30236	-0.671
Mof_O 	O 	0.84097	0.91483	0.30699	-0.469
Mof_O 	O 	0.87027	0.87823	0.28419	-0.484
Mof_O 	O 	0.88267	0.97393	0.28328	-0.51
Mof_Zn	Zn	0.92757	0.89163	0.30993	1.23
Mof_C 	C 	0.84437	0.89203	0.31604	0.375
Mof_C 	C 	0.88097	0.84683	0.28766	0.332
Mof_O 	O 	0.87087	0.87743	0.31867	-0.49
Mof_O 	O 	0.90697	0.84783	0.29651	-0.484
Mof_O 	O 	0.95777	0.87243	0.32185	-0.514
Mof_O 	O 	0.98737	0.94543	0.27944	-0.491
Mof_C 	C 	0.80727	0.88253	0.32626	-0.106
Mof_C 	C 	0.86197	0.80523	0.27871	-0.09
Mof_C 	C 	0.80487	0.85843	0.33777	0.05
Mof_C 	C 	0.77517	0.89513	0.32511	0.055
Mof_C 	C 	0.83367	0.79973	0.26764	0.029
Mof_C 	C 	0.86547	0.76763	0.28206	0.03
Mof_C 	C 	0.77247	0.84973	0.34616	-0.128
Mof_H 	H 	0.82667	0.84883	0.33933	0.027
Mof_H 	H 	0.77587	0.91143	0.31763	0.034
Mof_C 	C 	0.74107	0.88633	0.33393	-0.136
Mof_C 	C 	0.81487	0.76023	0.26016	-0.119
Mof_H 	H 	0.82787	0.82393	0.26543	0.029
Mof_H 	H 	0.87947	0.76733	0.28983	0.037
Mof_C 	C 	0.84787	0.72833	0.2737	-0.12
Mof_C 	C 	0.73987	0.86423	0.34516	0.09
Mof_H 	H 	0.77097	0.83223	0.35343	0.084
Mof_H 	H 	0.71877	0.89533	0.33233	0.074
Mof_C 	C 	0.82317	0.72543	0.26311	0.087
Mof_H 	H 	0.79637	0.75753	0.25303	0.08
Mof_H 	H 	0.85357	0.70393	0.27563	0.068
Mof_C 	C 	0.70637	0.85823	0.35515	-0.045
Mof_C 	C 	0.80787	0.68353	0.25497	-0.036
Mof_H 	H 	0.67457	0.83923	0.35193	0.047
Mof_H 	H 	0.71077	0.88873	0.35763	0.054
Mof_O 	O 	0.71277	0.83683	0.36559	-0.197
Mof_H 	H 	0.79097	0.65523	0.26013	0.042
Mof_H 	H 	0.83497	0.68373	0.25113	0.052
Mof_O 	O 	0.77917	0.68443	0.24546	-0.214
Mof_C 	C 	0.67637	0.81563	0.37412	0.101
Mof_C 	C 	0.75897	0.64783	0.23785	0.141
Mof_C 	C 	0.64217	0.82783	0.3744	-0.07
Mof_C 	C 	0.68487	0.79523	0.38511	0.008
Mof_C 	C 	0.76987	0.61373	0.23775	-0.115
Mof_C 	C 	0.73547	0.65333	0.22698	-0.022
Mof_H 	H 	0.64317	0.85043	0.36873	0.063
Mof_C 	C 	0.60637	0.80613	0.38317	-0.09
Mof_C 	C 	0.64977	0.77513	0.39342	-0.036
Mof_C 	C 	0.72287	0.78643	0.38753	-0.086
Mof_C 	C 	0.74827	0.57793	0.22833	-0.048
Mof_H 	H 	0.79097	0.61353	0.24373	0.076
Mof_C 	C 	0.71407	0.61923	0.21812	-0.006
Mof_C 	C 	0.72327	0.68973	0.22518	-0.06
Mof_H 	H 	0.57877	0.80743	0.38223	0.066
Mof_C 	C 	0.61227	0.78183	0.39364	0.143
Mof_C 	C 	0.65807	0.74533	0.40307	-0.052
Mof_H 	H 	0.74847	0.80203	0.38123	0.063
Mof_C 	C 	0.73767	0.79953	0.39983	0.042
Mof_C 	C 	0.70017	0.73573	0.38683	0.031
Mof_C 	C 	0.72117	0.58353	0.21793	0.091
Mof_H 	H 	0.75127	0.55123	0.22873	0.051
Mof_C 	C 	0.68407	0.62213	0.20896	-0.077
Mof_H 	H 	0.73797	0.71493	0.23163	0.059
Mof_C 	C 	0.67457	0.66943	0.22478	0.018
Mof_C 	C 	0.74157	0.70653	0.21142	0.024
Mof_O 	O 	0.58007	0.76083	0.40239	-0.227
Mof_H 	H 	0.63287	0.72983	0.40953	0.053
Mof_C 	C 	0.70487	0.78013	0.40883	0.005
Mof_C 	C 	0.66647	0.71323	0.39573	0.026
Mof_C 	C 	0.78207	0.82963	0.40393	-0.081
Mof_C 	C 	0.71247	0.71003	0.37883	-0.074
Mof_O 	O 	0.70407	0.54643	0.20915	-0.189
Mof_H 	H 	0.66787	0.59453	0.20333	0.061
Mof_C 	C 	0.65297	0.63343	0.21607	0.04
Mof_C 	C 	0.71897	0.66733	0.20195	0.025
Mof_C 	C 	0.64657	0.68113	0.23196	-0.062
Mof_C 	C 	0.77147	0.75103	0.20769	-0.072
Mof_C 	C 	0.54667	0.76883	0.40328	0.015
Mof_C 	C 	0.71737	0.79263	0.42283	-0.069
Mof_C 	C 	0.64297	0.67043	0.3975	-0.068
Mof_C 	C 	0.78897	0.84163	0.41933	-0.044
Mof_H 	H 	0.80737	0.84273	0.39823	0.055
Mof_C 	C 	0.68847	0.66473	0.37973	-0.021
Mof_H 	H 	0.73717	0.72483	0.37293	0.055
Mof_C 	C 	0.72217	0.51763	0.20776	-0.065
Mof_C 	C 	0.60807	0.61163	0.21473	-0.087
Mof_C 	C 	0.72987	0.67783	0.18955	-0.075
Mof_H 	H 	0.66117	0.70683	0.23753	0.061
Mof_C 	C 	0.59997	0.65803	0.23143	-0.036
Mof_H 	H 	0.78547	0.77543	0.21363	0.06
Mof_C 	C 	0.78057	0.75893	0.19469	-0.03
Mof_H 	H 	0.55977	0.80243	0.40443	0.038
Mof_H 	H 	0.52987	0.76043	0.39513	0.037
Mof_C 	C 	0.51237	0.74433	0.41364	0.083
Mof_H 	H 	0.69417	0.77833	0.42913	0.048
Mof_C 	C 	0.76087	0.82373	0.42633	-0.015
Mof_H 	H 	0.61887	0.65833	0.40363	0.052
Mof_C 	C 	0.65277	0.63963	0.39033	-0.037
Mof_H 	H 	0.81837	0.86483	0.42223	0.042
Mof_H 	H 	0.69337	0.64683	0.37363	0.036
Mof_H 	H 	0.75627	0.53593	0.20733	0.062
Mof_H 	H 	0.71347	0.49633	0.21503	0.052
Mof_C 	C 	0.70327	0.49153	0.19603	0.123
Mof_C 	C 	0.58227	0.62523	0.22213	-0.015
Mof_H 	H 	0.59327	0.58683	0.20893	0.06
Mof_C 	C 	0.76097	0.72013	0.18582	-0.027
Mof_H 	H 	0.71487	0.65433	0.18333	0.053
Mof_H 	H 	0.58127	0.66393	0.23703	0.043
Mof_H 	H 	0.79937	0.78943	0.19163	0.043
Mof_C 	C 	0.52387	0.72303	0.42291	-0.122
Mof_C 	C 	0.46877	0.74113	0.4148	-0.146
Mof_H 	H 	0.76747	0.83043	0.43503	0.03
Mof_H 	H 	0.63867	0.60743	0.39193	0.04
Mof_C 	C 	0.71397	0.45633	0.19213	-0.178
Mof_C 	C 	0.68147	0.50193	0.18753	-0.155
Mof_H 	H 	0.55007	0.61073	0.22053	0.034
Mof_H 	H 	0.77067	0.72523	0.17723	0.041
Mof_H 	H 	0.55267	0.72413	0.42233	0.087
Mof_C 	C 	0.49527	0.69983	0.43324	0.071
Mof_C 	C 	0.44187	0.71873	0.42495	0.098
Mof_H 	H 	0.45837	0.75433	0.40853	0.083
Mof_H 	H 	0.73087	0.44683	0.19733	0.088
Mof_C 	C 	0.69767	0.43733	0.18005	0.136
Mof_C 	C 	0.65937	0.47493	0.17554	0.095
Mof_H 	H 	0.67927	0.52883	0.18893	0.097
Mof_H 	H 	0.50487	0.68663	0.43963	0.027
Mof_C 	C 	0.45137	0.69673	0.43374	-0.16
Mof_H 	H 	0.41377	0.71903	0.42583	0.011
Mof_H 	H 	0.70687	0.41613	0.17733	0.005
Mof_C 	C 	0.67247	0.44363	0.17216	-0.213
Mof_H 	H 	0.63797	0.47933	0.17073	0.016
Mof_C 	C 	0.41937	0.66983	0.44413	0.424
Mof_C 	C 	0.65127	0.41493	0.16143	0.459
Mof_O 	O 	0.67327	0.39683	0.15754	-0.349
Mof_Zn	Zn	0.55435	0.26546	0.62705	1.227
Mof_O 	O 	0.61113	0.28497	0.6357	-0.674
Mof_O 	O 	0.50763	0.24817	0.64033	-0.47
Mof_O 	O 	0.53693	0.21157	0.61753	-0.484
Mof_O 	O 	0.54933	0.30727	0.61662	-0.515
Mof_Zn	Zn	0.59423	0.22497	0.64327	1.23
Mof_C 	C 	0.51103	0.22537	0.64938	0.375
Mof_C 	C 	0.54763	0.18017	0.621	0.333
Mof_O 	O 	0.53753	0.21077	0.65201	-0.49
Mof_O 	O 	0.57363	0.18117	0.62985	-0.485
Mof_O 	O 	0.62443	0.20577	0.65519	-0.51
Mof_O 	O 	0.65403	0.27877	0.61278	-0.493
Mof_C 	C 	0.47393	0.21587	0.6596	-0.106
Mof_C 	C 	0.52863	0.13857	0.61205	-0.092
Mof_C 	C 	0.47153	0.19177	0.67111	0.05
Mof_C 	C 	0.44183	0.22847	0.65845	0.055
Mof_C 	C 	0.50033	0.13307	0.60098	0.03
Mof_C 	C 	0.53213	0.10097	0.6154	0.031
Mof_C 	C 	0.43913	0.18307	0.6795	-0.128
Mof_H 	H 	0.49333	0.18217	0.67267	0.027
Mof_H 	H 	0.44253	0.24477	0.65097	0.033
Mof_C 	C 	0.40773	0.21967	0.66727	-0.136
Mof_C 	C 	0.48153	0.09357	0.5935	-0.122
Mof_H 	H 	0.49453	0.15727	0.59877	0.028
Mof_H 	H 	0.54613	0.10067	0.62317	0.036
Mof_C 	C 	0.51453	0.06167	0.60704	-0.123
Mof_C 	C 	0.40653	0.19757	0.6785	0.09
Mof_H 	H 	0.43763	0.16557	0.68677	0.084
Mof_H 	H 	0.38543	0.22867	0.66567	0.074
Mof_C 	C 	0.48983	0.05877	0.59645	0.09
Mof_H 	H 	0.46303	0.09087	0.58637	0.081
Mof_H 	H 	0.52023	0.03727	0.60897	0.067
Mof_C 	C 	0.37303	0.19157	0.68849	-0.045
Mof_C 	C 	0.47453	0.01687	0.58831	-0.045
Mof_H 	H 	0.34123	0.17257	0.68527	0.047
Mof_H 	H 	0.37743	0.22207	0.69097	0.054
Mof_O 	O 	0.37943	0.17017	0.69893	-0.197
Mof_H 	H 	0.45763	0.98857	0.59347	0.048
Mof_H 	H 	0.50163	0.01707	0.58447	0.053
Mof_O 	O 	0.44583	0.01777	0.5788	-0.216
Mof_C 	C 	0.34303	0.14897	0.70746	0.102
Mof_C 	C 	0.42563	0.98117	0.57119	0.143
Mof_C 	C 	0.30883	0.16117	0.70774	-0.071
Mof_C 	C 	0.35153	0.12857	0.71845	0.006
Mof_C 	C 	0.43653	0.94707	0.57109	-0.116
Mof_C 	C 	0.40213	0.98667	0.56032	-0.016
Mof_H 	H 	0.30983	0.18377	0.70207	0.063
Mof_C 	C 	0.27303	0.13947	0.71651	-0.089
Mof_C 	C 	0.31643	0.10847	0.72676	-0.034
Mof_C 	C 	0.38953	0.11977	0.72087	-0.082
Mof_C 	C 	0.41493	0.91127	0.56167	-0.048
Mof_H 	H 	0.45763	0.94687	0.57707	0.077
Mof_C 	C 	0.38073	0.95257	0.55146	-0.007
Mof_C 	C 	0.38993	0.02307	0.55852	-0.065
Mof_H 	H 	0.24543	0.14077	0.71557	0.066
Mof_C 	C 	0.27893	0.11517	0.72698	0.142
Mof_C 	C 	0.32473	0.07867	0.73641	-0.058
Mof_H 	H 	0.41513	0.13537	0.71457	0.062
Mof_C 	C 	0.40433	0.13287	0.73317	0.039
Mof_C 	C 	0.36683	0.06907	0.72017	0.026
Mof_C 	C 	0.38783	0.91687	0.55127	0.091
Mof_H 	H 	0.41793	0.88457	0.56207	0.051
Mof_C 	C 	0.35073	0.95547	0.5423	-0.073
Mof_H 	H 	0.40463	0.04827	0.56497	0.06
Mof_C 	C 	0.34123	0.00277	0.55812	0.019
Mof_C 	C 	0.40823	0.03987	0.54476	0.024
Mof_O 	O 	0.24673	0.09417	0.73573	-0.227
Mof_H 	H 	0.29953	0.06317	0.74287	0.054
Mof_C 	C 	0.37153	0.11347	0.74217	0.008
Mof_C 	C 	0.33313	0.04657	0.72907	0.038
Mof_C 	C 	0.44873	0.16297	0.73727	-0.078
Mof_C 	C 	0.37913	0.04337	0.71217	-0.077
Mof_O 	O 	0.37073	0.87977	0.54249	-0.189
Mof_H 	H 	0.33453	0.92787	0.53667	0.061
Mof_C 	C 	0.31963	0.96677	0.54941	0.041
Mof_C 	C 	0.38563	0.00067	0.53529	0.024
Mof_C 	C 	0.31323	0.01447	0.5653	-0.073
Mof_C 	C 	0.43813	0.08437	0.54103	-0.071
Mof_C 	C 	0.21333	0.10217	0.73662	0.015
Mof_C 	C 	0.38403	0.12597	0.75617	-0.073
Mof_C 	C 	0.30963	0.00377	0.73084	-0.091
Mof_C 	C 	0.45563	0.17497	0.75267	-0.048
Mof_H 	H 	0.47403	0.17607	0.73157	0.054
Mof_C 	C 	0.35513	0.99807	0.71307	-0.019
Mof_H 	H 	0.40383	0.05817	0.70627	0.055
Mof_C 	C 	0.38883	0.85097	0.5411	-0.065
Mof_C 	C 	0.27473	0.94497	0.54807	-0.083
Mof_C 	C 	0.39653	0.01117	0.52289	-0.085
Mof_H 	H 	0.32783	0.04017	0.57087	0.064
Mof_C 	C 	0.26663	0.99137	0.56477	-0.025
Mof_H 	H 	0.45213	0.10877	0.54697	0.059
Mof_C 	C 	0.44723	0.09227	0.52803	-0.033
Mof_H 	H 	0.22643	0.13577	0.73777	0.039
Mof_H 	H 	0.19653	0.09377	0.72847	0.036
Mof_C 	C 	0.17903	0.07767	0.74698	0.082
Mof_H 	H 	0.36083	0.11167	0.76247	0.049
Mof_C 	C 	0.42753	0.15707	0.75967	-0.01
Mof_H 	H 	0.28553	0.99167	0.73697	0.063
Mof_C 	C 	0.31943	0.97297	0.72367	-0.024
Mof_H 	H 	0.48503	0.19817	0.75557	0.043
Mof_H 	H 	0.36003	0.98017	0.70697	0.037
Mof_H 	H 	0.42293	0.86927	0.54067	0.062
Mof_H 	H 	0.38013	0.82967	0.54837	0.052
Mof_C 	C 	0.36993	0.82487	0.52937	0.123
Mof_C 	C 	0.24893	0.95857	0.55547	-0.02
Mof_H 	H 	0.25993	0.92017	0.54227	0.059
Mof_C 	C 	0.42763	0.05347	0.51916	-0.021
Mof_H 	H 	0.38153	0.98767	0.51667	0.06
Mof_H 	H 	0.24793	0.99727	0.57037	0.04
Mof_H 	H 	0.46603	0.12277	0.52497	0.044
Mof_C 	C 	0.19053	0.05637	0.75625	-0.121
Mof_C 	C 	0.13543	0.07447	0.74814	-0.145
Mof_H 	H 	0.43413	0.16377	0.76837	0.028
Mof_H 	H 	0.30533	0.94077	0.72527	0.036
Mof_C 	C 	0.38063	0.78967	0.52547	-0.178
Mof_C 	C 	0.34813	0.83527	0.52087	-0.155
Mof_H 	H 	0.21673	0.94407	0.55387	0.036
Mof_H 	H 	0.43733	0.05857	0.51057	0.038
Mof_H 	H 	0.21933	0.05747	0.75567	0.086
Mof_C 	C 	0.16193	0.03317	0.76658	0.069
Mof_C 	C 	0.10853	0.05207	0.75829	0.097
Mof_H 	H 	0.12503	0.08767	0.74187	0.083
Mof_H 	H 	0.39753	0.78017	0.53067	0.088
Mof_C 	C 	0.36433	0.77067	0.51339	0.136
Mof_C 	C 	0.32603	0.80827	0.50888	0.095
Mof_H 	H 	0.34593	0.86217	0.52227	0.097
Mof_H 	H 	0.17153	0.01997	0.77297	0.026
Mof_C 	C 	0.11803	0.03007	0.76708	-0.159
Mof_H 	H 	0.08043	0.05237	0.75917	0.011
Mof_H 	H 	0.37353	0.74947	0.51067	0.005
Mof_C 	C 	0.33913	0.77697	0.5055	-0.214
Mof_H 	H 	0.30463	0.81267	0.50407	0.016
Mof_C 	C 	0.08603	0.00317	0.77747	0.418
Mof_C 	C 	0.31793	0.74827	0.49477	0.459
Mof_O 	O 	0.33993	0.73017	0.49088	-0.349
Mof_Zn	Zn	0.40121	0.62223	0.96038	1.227
Mof_O 	O 	0.3817	0.6595	0.96903	-0.674
Mof_O 	O 	0.4185	0.5928	0.97366	-0.47
Mof_O 	O 	0.4551	0.6587	0.95086	-0.484
Mof_O 	O 	0.3594	0.5754	0.94995	-0.515
Mof_Zn	Zn	0.4417	0.7026	0.9766	1.23
Mof_C 	C 	0.4413	0.619	0.98271	0.375
Mof_C 	C 	0.4865	0.7008	0.95433	0.332
Mof_O 	O 	0.4559	0.6601	0.98534	-0.49
Mof_O 	O 	0.4855	0.7258	0.96318	-0.485
Mof_O 	O 	0.4609	0.752	0.98852	-0.509
Mof_O 	O 	0.3879	0.7086	0.94611	-0.493
Mof_C 	C 	0.4508	0.5914	0.99293	-0.106
Mof_C 	C 	0.5281	0.7234	0.94538	-0.091
Mof_C 	C 	0.4749	0.6131	0.00444	0.05
Mof_C 	C 	0.4382	0.5467	0.99178	0.055
Mof_C 	C 	0.5336	0.7006	0.93431	0.029
Mof_C 	C 	0.5657	0.7645	0.94873	0.03
Mof_C 	C 	0.4836	0.5894	0.01283	-0.128
Mof_H 	H 	0.4845	0.6445	0.006	0.027
Mof_H 	H 	0.4219	0.5311	0.9843	0.033
Mof_C 	C 	0.447	0.5214	0.0006	-0.136
Mof_C 	C 	0.5731	0.7213	0.92683	-0.119
Mof_H 	H 	0.5094	0.6706	0.9321	0.029
Mof_H 	H 	0.566	0.7788	0.9565	0.036
Mof_C 	C 	0.605	0.7862	0.94037	-0.12
Mof_C 	C 	0.4691	0.5423	0.01183	0.09
Mof_H 	H 	0.5011	0.6054	0.0201	0.084
Mof_H 	H 	0.438	0.4901	0.999	0.074
Mof_C 	C 	0.6079	0.7644	0.92978	0.087
Mof_H 	H 	0.5758	0.7055	0.9197	0.08
Mof_H 	H 	0.6294	0.8163	0.9423	0.068
Mof_C 	C 	0.4751	0.5148	0.02182	-0.045
Mof_C 	C 	0.6498	0.791	0.92164	-0.036
Mof_H 	H 	0.4941	0.502	0.0186	0.047
Mof_H 	H 	0.4446	0.4887	0.0243	0.054
Mof_O 	O 	0.4965	0.5426	0.03226	-0.197
Mof_H 	H 	0.6781	0.8024	0.9268	0.042
Mof_H 	H 	0.6496	0.8179	0.9178	0.052
Mof_O 	O 	0.6489	0.7614	0.91213	-0.214
Mof_C 	C 	0.5177	0.5274	0.04079	0.101
Mof_C 	C 	0.6855	0.7778	0.90452	0.141
Mof_C 	C 	0.5055	0.481	0.04107	-0.07
Mof_C 	C 	0.5381	0.5563	0.05178	0.008
Mof_C 	C 	0.7196	0.8228	0.90442	-0.115
Mof_C 	C 	0.68	0.7488	0.89365	-0.022
Mof_H 	H 	0.4829	0.4594	0.0354	0.063
Mof_C 	C 	0.5272	0.4669	0.04984	-0.09
Mof_C 	C 	0.5582	0.5413	0.06009	-0.036
Mof_C 	C 	0.5469	0.6031	0.0542	-0.086
Mof_C 	C 	0.7554	0.837	0.895	-0.048
Mof_H 	H 	0.7198	0.8441	0.9104	0.076
Mof_C 	C 	0.7141	0.7615	0.88479	-0.006
Mof_C 	C 	0.6436	0.7002	0.89185	-0.06
Mof_H 	H 	0.5259	0.438	0.0489	0.066
Mof_C 	C 	0.5515	0.4971	0.06031	0.143
Mof_C 	C 	0.588	0.5794	0.06974	-0.052
Mof_H 	H 	0.5313	0.6131	0.0479	0.063
Mof_C 	C 	0.5338	0.6048	0.0665	0.042
Mof_C 	C 	0.5976	0.6311	0.0535	0.031
Mof_C 	C 	0.7498	0.8043	0.8846	0.091
Mof_H 	H 	0.7821	0.8667	0.8954	0.052
Mof_C 	C 	0.7112	0.7286	0.87563	-0.077
Mof_H 	H 	0.6184	0.6897	0.8983	0.059
Mof_C 	C 	0.6639	0.6718	0.89145	0.018
Mof_C 	C 	0.6268	0.7017	0.87809	0.024
Mof_O 	O 	0.5725	0.4859	0.06906	-0.227
Mof_H 	H 	0.6035	0.5697	0.0762	0.053
Mof_C 	C 	0.5532	0.5914	0.0755	0.005
Mof_C 	C 	0.6201	0.6199	0.0624	0.026
Mof_C 	C 	0.5037	0.6191	0.0706	-0.081
Mof_C 	C 	0.6233	0.6691	0.0455	-0.074
Mof_O 	O 	0.7869	0.8243	0.87582	-0.189
Mof_H 	H 	0.7388	0.74	0.87	0.062
Mof_C 	C 	0.6999	0.6862	0.88274	0.04
Mof_C 	C 	0.666	0.7183	0.86862	0.025
Mof_C 	C 	0.6522	0.6321	0.89863	-0.062
Mof_C 	C 	0.5823	0.6871	0.87436	-0.072
Mof_C 	C 	0.5645	0.4445	0.06995	0.015
Mof_C 	C 	0.5407	0.5914	0.0895	-0.069
Mof_C 	C 	0.6629	0.6392	0.06417	-0.068
Mof_C 	C 	0.4917	0.614	0.086	-0.044
Mof_H 	H 	0.4906	0.6313	0.0649	0.055
Mof_C 	C 	0.6686	0.6904	0.0464	-0.021
Mof_H 	H 	0.6085	0.679	0.0396	0.055
Mof_C 	C 	0.8157	0.8712	0.87443	-0.065
Mof_C 	C 	0.7217	0.6631	0.8814	-0.087
Mof_C 	C 	0.6555	0.7187	0.85622	-0.075
Mof_H 	H 	0.6265	0.621	0.9042	0.061
Mof_C 	C 	0.6753	0.6086	0.8981	-0.036
Mof_H 	H 	0.5579	0.6767	0.8803	0.06
Mof_C 	C 	0.5744	0.6883	0.86136	-0.03
Mof_H 	H 	0.5309	0.424	0.0711	0.039
Mof_H 	H 	0.5729	0.4361	0.0618	0.037
Mof_C 	C 	0.589	0.4347	0.08031	0.083
Mof_H 	H 	0.555	0.5825	0.0958	0.048
Mof_C 	C 	0.5096	0.6038	0.093	-0.015
Mof_H 	H 	0.675	0.6272	0.0703	0.052
Mof_C 	C 	0.6937	0.6798	0.057	-0.037
Mof_H 	H 	0.4685	0.6202	0.0889	0.041
Mof_H 	H 	0.6865	0.7132	0.0403	0.036
Mof_H 	H 	0.7974	0.887	0.874	0.062
Mof_H 	H 	0.837	0.8838	0.8817	0.053
Mof_C 	C 	0.8418	0.8784	0.8627	0.124
Mof_C 	C 	0.7081	0.6237	0.8888	-0.015
Mof_H 	H 	0.7465	0.6731	0.8756	0.06
Mof_C 	C 	0.6132	0.7075	0.85249	-0.027
Mof_H 	H 	0.679	0.7272	0.85	0.053
Mof_H 	H 	0.6694	0.584	0.9037	0.043
Mof_H 	H 	0.5439	0.6766	0.8583	0.043
Mof_C 	C 	0.6103	0.4675	0.08958	-0.122
Mof_C 	C 	0.5922	0.3943	0.08147	-0.146
Mof_H 	H 	0.5029	0.6037	0.1017	0.03
Mof_H 	H 	0.7259	0.6979	0.0586	0.04
Mof_C 	C 	0.877	0.9243	0.8588	-0.177
Mof_C 	C 	0.8314	0.8462	0.8542	-0.154
Mof_H 	H 	0.7226	0.606	0.8872	0.034
Mof_H 	H 	0.6081	0.7121	0.8439	0.041
Mof_H 	H 	0.6092	0.4952	0.089	0.087
Mof_C 	C 	0.6335	0.4621	0.09991	0.071
Mof_C 	C 	0.6146	0.3898	0.09162	0.098
Mof_H 	H 	0.579	0.3707	0.0752	0.083
Mof_H 	H 	0.8865	0.9507	0.864	0.089
Mof_C 	C 	0.896	0.927	0.84672	0.136
Mof_C 	C 	0.8584	0.8511	0.84221	0.095
Mof_H 	H 	0.8045	0.8171	0.8556	0.097
Mof_H 	H 	0.6467	0.4849	0.1063	0.027
Mof_C 	C 	0.6366	0.4213	0.10041	-0.16
Mof_H 	H 	0.6143	0.3614	0.0925	0.011
Mof_H 	H 	0.9172	0.9574	0.844	0.007
Mof_C 	C 	0.8897	0.8955	0.83883	-0.212
Mof_H 	H 	0.854	0.8253	0.8374	0.016
Mof_C 	C 	0.6635	0.4162	0.1108	0.424
Mof_C 	C 	0.9184	0.903	0.8281	0.458
Mof_O 	O 	0.9365	0.9431	0.82421	-0.347
Mof_Zn	Zn	0.06788	0.95556	0.29371	1.227
Mof_O 	O 	0.04837	0.99283	0.30236	-0.671
Mof_O 	O 	0.08517	0.92613	0.30699	-0.47
Mof_O 	O 	0.12177	0.99203	0.28419	-0.48
Mof_O 	O 	0.02607	0.90873	0.28328	-0.52
Mof_Zn	Zn	0.10837	0.03593	0.30993	1.229
Mof_C 	C 	0.10797	0.95233	0.31604	0.375
Mof_C 	C 	0.15317	0.03413	0.28766	0.326
Mof_O 	O 	0.12257	0.99343	0.31867	-0.488
Mof_O 	O 	0.15217	0.05913	0.29651	-0.485
Mof_O 	O 	0.12757	0.08533	0.32185	-0.51
Mof_O 	O 	0.05457	0.04193	0.27944	-0.496
Mof_C 	C 	0.11747	0.92473	0.32626	-0.106
Mof_C 	C 	0.19477	0.05673	0.27871	-0.09
Mof_C 	C 	0.14157	0.94643	0.33777	0.05
Mof_C 	C 	0.10487	0.88003	0.32511	0.055
Mof_C 	C 	0.20027	0.03393	0.26764	0.028
Mof_C 	C 	0.23237	0.09783	0.28206	0.029
Mof_C 	C 	0.15027	0.92273	0.34616	-0.128
Mof_H 	H 	0.15117	0.97783	0.33933	0.028
Mof_H 	H 	0.08857	0.86443	0.31763	0.033
Mof_C 	C 	0.11367	0.85473	0.33393	-0.136
Mof_C 	C 	0.23977	0.05463	0.26016	-0.119
Mof_H 	H 	0.17607	0.00393	0.26543	0.027
Mof_H 	H 	0.23267	0.11213	0.28983	0.036
Mof_C 	C 	0.27167	0.11953	0.2737	-0.12
Mof_C 	C 	0.13577	0.87563	0.34516	0.09
Mof_H 	H 	0.16777	0.93873	0.35343	0.085
Mof_H 	H 	0.10467	0.82343	0.33233	0.073
Mof_C 	C 	0.27457	0.09773	0.26311	0.086
Mof_H 	H 	0.24247	0.03883	0.25303	0.079
Mof_H 	H 	0.29607	0.14963	0.27563	0.067
Mof_C 	C 	0.14177	0.84813	0.35515	-0.045
Mof_C 	C 	0.31647	0.12433	0.25497	-0.036
Mof_H 	H 	0.16077	0.83533	0.35193	0.047
Mof_H 	H 	0.11127	0.82203	0.35763	0.054
Mof_O 	O 	0.16317	0.87593	0.36559	-0.196
Mof_H 	H 	0.34477	0.13573	0.26013	0.042
Mof_H 	H 	0.31627	0.15123	0.25113	0.052
Mof_O 	O 	0.31557	0.09473	0.24546	-0.214
Mof_C 	C 	0.18437	0.86073	0.37412	0.099
Mof_C 	C 	0.35217	0.11113	0.23785	0.14
Mof_C 	C 	0.17217	0.81433	0.3744	-0.068
Mof_C 	C 	0.20477	0.88963	0.38511	0.013
Mof_C 	C 	0.38627	0.15613	0.23775	-0.114
Mof_C 	C 	0.34667	0.08213	0.22698	-0.02
Mof_H 	H 	0.14957	0.79273	0.36873	0.063
Mof_C 	C 	0.19387	0.80023	0.38317	-0.091
Mof_C 	C 	0.22487	0.87463	0.39342	-0.04
Mof_C 	C 	0.21357	0.93643	0.38753	-0.097
Mof_C 	C 	0.42207	0.17033	0.22833	-0.049
Mof_H 	H 	0.38647	0.17743	0.24373	0.075
Mof_C 	C 	0.38077	0.09483	0.21812	-0.009
Mof_C 	C 	0.31027	0.03353	0.22518	-0.062
Mof_H 	H 	0.19257	0.77133	0.38223	0.067
Mof_C 	C 	0.21817	0.83043	0.39364	0.145
Mof_C 	C 	0.25467	0.91273	0.40307	-0.043
Mof_H 	H 	0.19797	0.94643	0.38123	0.066
Mof_C 	C 	0.20047	0.93813	0.39983	0.05
Mof_C 	C 	0.26427	0.96443	0.38683	0.048
Mof_C 	C 	0.41647	0.13763	0.21793	0.092
Mof_H 	H 	0.44877	0.20003	0.22873	0.051
Mof_C 	C 	0.37787	0.06193	0.20896	-0.069
Mof_H 	H 	0.28507	0.02303	0.23163	0.058
Mof_C 	C 	0.33057	0.00513	0.22478	0.021
Mof_C 	C 	0.29347	0.03503	0.21142	0.025
Mof_O 	O 	0.23917	0.81923	0.40239	-0.227
Mof_H 	H 	0.27017	0.90303	0.40953	0.051
Mof_C 	C 	0.21987	0.92473	0.40883	-0.001
Mof_C 	C 	0.28677	0.95323	0.39573	0.011
Mof_C 	C 	0.17037	0.95243	0.40393	-0.086
Mof_C 	C 	0.28997	0.00243	0.37883	-0.094
Mof_O 	O 	0.45357	0.15763	0.20915	-0.19
Mof_H 	H 	0.40547	0.07333	0.20333	0.059
Mof_C 	C 	0.36657	0.01953	0.21607	0.024
Mof_C 	C 	0.33267	0.05163	0.20195	0.022
Mof_C 	C 	0.31887	0.96543	0.23196	-0.063
Mof_C 	C 	0.24897	0.02043	0.20769	-0.074
Mof_C 	C 	0.23117	0.77783	0.40328	0.015
Mof_C 	C 	0.20737	0.92473	0.42283	-0.062
Mof_C 	C 	0.32957	0.97253	0.3975	-0.047
Mof_C 	C 	0.15837	0.94733	0.41933	-0.035
Mof_H 	H 	0.15727	0.96463	0.39823	0.057
Mof_C 	C 	0.33527	0.02373	0.37973	-0.008
Mof_H 	H 	0.27517	0.01233	0.37293	0.059
Mof_C 	C 	0.48237	0.20453	0.20776	-0.065
Mof_C 	C 	0.38837	0.99643	0.21473	-0.059
Mof_C 	C 	0.32217	0.05203	0.18955	-0.073
Mof_H 	H 	0.29317	0.95433	0.23753	0.062
Mof_C 	C 	0.34197	0.94193	0.23143	-0.027
Mof_H 	H 	0.22457	0.01003	0.21363	0.059
Mof_C 	C 	0.24107	0.02163	0.19469	-0.03
Mof_H 	H 	0.19757	0.75733	0.40443	0.038
Mof_H 	H 	0.23957	0.76943	0.39513	0.037
Mof_C 	C 	0.25567	0.76803	0.41364	0.083
Mof_H 	H 	0.22167	0.91583	0.42913	0.046
Mof_C 	C 	0.17627	0.93713	0.42633	-0.025
Mof_H 	H 	0.34167	0.96053	0.40363	0.046
Mof_C 	C 	0.36037	0.01313	0.39033	-0.055
Mof_H 	H 	0.13517	0.95353	0.42223	0.039
Mof_H 	H 	0.35317	0.04653	0.37363	0.031
Mof_H 	H 	0.46407	0.22033	0.20733	0.062
Mof_H 	H 	0.50367	0.21713	0.21503	0.052
Mof_C 	C 	0.50847	0.21173	0.19603	0.123
Mof_C 	C 	0.37477	0.95703	0.22213	-0.029
Mof_H 	H 	0.41317	0.00643	0.20893	0.047
Mof_C 	C 	0.27987	0.04083	0.18582	-0.029
Mof_H 	H 	0.34567	0.06053	0.18333	0.052
Mof_H 	H 	0.33607	0.91733	0.23703	0.04
Mof_H 	H 	0.21057	0.00993	0.19163	0.042
Mof_C 	C 	0.27697	0.80083	0.42291	-0.122
Mof_C 	C 	0.25887	0.72763	0.4148	-0.146
Mof_H 	H 	0.16957	0.93703	0.43503	0.034
Mof_H 	H 	0.39257	0.03123	0.39193	0.045
Mof_C 	C 	0.54367	0.25763	0.19213	-0.178
Mof_C 	C 	0.49807	0.17953	0.18753	-0.155
Mof_H 	H 	0.38927	0.93933	0.22053	0.04
Mof_H 	H 	0.27477	0.04543	0.17723	0.041
Mof_H 	H 	0.27587	0.82853	0.42233	0.087
Mof_C 	C 	0.30017	0.79543	0.43324	0.071
Mof_C 	C 	0.28127	0.72313	0.42495	0.098
Mof_H 	H 	0.24567	0.70403	0.40853	0.083
Mof_H 	H 	0.55317	0.28403	0.19733	0.088
Mof_C 	C 	0.56267	0.26033	0.18005	0.136
Mof_C 	C 	0.52507	0.18443	0.17554	0.095
Mof_H 	H 	0.47117	0.15043	0.18893	0.097
Mof_H 	H 	0.31337	0.81823	0.43963	0.027
Mof_C 	C 	0.30327	0.75463	0.43374	-0.16
Mof_H 	H 	0.28097	0.69473	0.42583	0.011
Mof_H 	H 	0.58387	0.29073	0.17733	0.005
Mof_C 	C 	0.55637	0.22883	0.17216	-0.214
Mof_H 	H 	0.52067	0.15863	0.17073	0.016
Mof_C 	C 	0.33017	0.74953	0.44413	0.424
Mof_C 	C 	0.58507	0.23633	0.16143	0.46
Mof_O 	O 	0.60317	0.27643	0.15754	-0.349
Mof_Zn	Zn	0.73454	0.2889	0.62705	1.227
Mof_O 	O 	0.71503	0.32617	0.6357	-0.674
Mof_O 	O 	0.75183	0.25947	0.64033	-0.47
Mof_O 	O 	0.78843	0.32537	0.61753	-0.484
Mof_O 	O 	0.69273	0.24207	0.61662	-0.515
Mof_Zn	Zn	0.77503	0.36927	0.64327	1.23
Mof_C 	C 	0.77463	0.28567	0.64938	0.375
Mof_C 	C 	0.81983	0.36747	0.621	0.332
Mof_O 	O 	0.78923	0.32677	0.65201	-0.49
Mof_O 	O 	0.81883	0.39247	0.62985	-0.484
Mof_O 	O 	0.79423	0.41867	0.65519	-0.509
Mof_O 	O 	0.72123	0.37527	0.61278	-0.493
Mof_C 	C 	0.78413	0.25807	0.6596	-0.106
Mof_C 	C 	0.86143	0.39007	0.61205	-0.09
Mof_C 	C 	0.80823	0.27977	0.67111	0.05
Mof_C 	C 	0.77153	0.21337	0.65845	0.055
Mof_C 	C 	0.86693	0.36727	0.60098	0.028
Mof_C 	C 	0.89903	0.43117	0.6154	0.029
Mof_C 	C 	0.81693	0.25607	0.6795	-0.128
Mof_H 	H 	0.81783	0.31117	0.67267	0.027
Mof_H 	H 	0.75523	0.19777	0.65097	0.033
Mof_C 	C 	0.78033	0.18807	0.66727	-0.136
Mof_C 	C 	0.90643	0.38797	0.5935	-0.117
Mof_H 	H 	0.84273	0.33727	0.59877	0.029
Mof_H 	H 	0.89933	0.44547	0.62317	0.037
Mof_C 	C 	0.93833	0.45287	0.60704	-0.118
Mof_C 	C 	0.80243	0.20897	0.6785	0.09
Mof_H 	H 	0.83443	0.27207	0.68677	0.084
Mof_H 	H 	0.77133	0.15677	0.66567	0.074
Mof_C 	C 	0.94123	0.43107	0.59645	0.084
Mof_H 	H 	0.90913	0.37217	0.58637	0.079
Mof_H 	H 	0.96273	0.48297	0.60897	0.068
Mof_C 	C 	0.80843	0.18147	0.68849	-0.045
Mof_C 	C 	0.98313	0.45767	0.58831	-0.027
Mof_H 	H 	0.82743	0.16867	0.68527	0.047
Mof_H 	H 	0.77793	0.15537	0.69097	0.054
Mof_O 	O 	0.82983	0.20927	0.69893	-0.196
Mof_H 	H 	0.01143	0.46907	0.59347	0.036
Mof_H 	H 	0.98293	0.48457	0.58447	0.051
Mof_O 	O 	0.98223	0.42807	0.5788	-0.212
Mof_C 	C 	0.85103	0.19407	0.70746	0.101
Mof_C 	C 	0.01883	0.44447	0.57119	0.138
Mof_C 	C 	0.83883	0.14767	0.70774	-0.069
Mof_C 	C 	0.87143	0.22297	0.71845	0.01
Mof_C 	C 	0.05293	0.48947	0.57109	-0.115
Mof_C 	C 	0.01333	0.41547	0.56032	-0.027
Mof_H 	H 	0.81623	0.12607	0.70207	0.063
Mof_C 	C 	0.86053	0.13357	0.71651	-0.09
Mof_C 	C 	0.89153	0.20797	0.72676	-0.038
Mof_C 	C 	0.88023	0.26977	0.72087	-0.089
Mof_C 	C 	0.08873	0.50367	0.56167	-0.048
Mof_H 	H 	0.05313	0.51077	0.57707	0.075
Mof_C 	C 	0.04743	0.42817	0.55146	-0.004
Mof_C 	C 	0.97693	0.36687	0.55852	-0.054
Mof_H 	H 	0.85923	0.10467	0.71557	0.067
Mof_C 	C 	0.88483	0.16377	0.72698	0.144
Mof_C 	C 	0.92133	0.24607	0.73641	-0.046
Mof_H 	H 	0.86463	0.27977	0.71457	0.064
Mof_C 	C 	0.86713	0.27147	0.73317	0.045
Mof_C 	C 	0.93093	0.29777	0.72017	0.035
Mof_C 	C 	0.08313	0.47097	0.55127	0.09
Mof_H 	H 	0.11543	0.53337	0.56207	0.051
Mof_C 	C 	0.04453	0.39527	0.5423	-0.081
Mof_H 	H 	0.95173	0.35637	0.56497	0.058
Mof_C 	C 	0.99723	0.33847	0.55812	0.018
Mof_C 	C 	0.96013	0.36837	0.54476	0.024
Mof_O 	O 	0.90583	0.15257	0.73573	-0.226
Mof_H 	H 	0.93683	0.23637	0.74287	0.052
Mof_C 	C 	0.88653	0.25807	0.74217	0.002
Mof_C 	C 	0.95343	0.28657	0.72907	0.015
Mof_C 	C 	0.83703	0.28577	0.73727	-0.083
Mof_C 	C 	0.95663	0.33577	0.71217	-0.071
Mof_O 	O 	0.12023	0.49097	0.54249	-0.189
Mof_H 	H 	0.07213	0.40667	0.53667	0.062
Mof_C 	C 	0.03323	0.35287	0.54941	0.039
Mof_C 	C 	0.99933	0.38497	0.53529	0.026
Mof_C 	C 	0.98553	0.29877	0.5653	-0.051
Mof_C 	C 	0.91563	0.35377	0.54103	-0.073
Mof_C 	C 	0.89783	0.11117	0.73662	0.015
Mof_C 	C 	0.87403	0.25807	0.75617	-0.066
Mof_C 	C 	0.99623	0.30587	0.73084	-0.044
Mof_C 	C 	0.82503	0.28067	0.75267	-0.04
Mof_H 	H 	0.82393	0.29797	0.73157	0.056
Mof_C 	C 	0.00193	0.35707	0.71307	-0.024
Mof_H 	H 	0.94183	0.34567	0.70627	0.055
Mof_C 	C 	0.14903	0.53787	0.5411	-0.065
Mof_C 	C 	0.05503	0.32977	0.54807	-0.09
Mof_C 	C 	0.98883	0.38537	0.52289	-0.064
Mof_H 	H 	0.95983	0.28767	0.57087	0.058
Mof_C 	C 	0.00863	0.27527	0.56477	-0.049
Mof_H 	H 	0.89123	0.34337	0.54697	0.06
Mof_C 	C 	0.90773	0.35497	0.52803	-0.027
Mof_H 	H 	0.86423	0.09067	0.73777	0.038
Mof_H 	H 	0.90623	0.10277	0.72847	0.037
Mof_C 	C 	0.92233	0.10137	0.74698	0.084
Mof_H 	H 	0.88833	0.24917	0.76247	0.048
Mof_C 	C 	0.84293	0.27047	0.75967	-0.019
Mof_H 	H 	0.00833	0.29387	0.73697	0.04
Mof_C 	C 	0.02703	0.34647	0.72367	-0.051
Mof_H 	H 	0.80183	0.28687	0.75557	0.04
Mof_H 	H 	0.01983	0.37987	0.70697	0.036
Mof_H 	H 	0.13073	0.55367	0.54067	0.062
Mof_H 	H 	0.17033	0.55047	0.54837	0.052
Mof_C 	C 	0.17513	0.54507	0.52937	0.123
Mof_C 	C 	0.04143	0.29037	0.55547	-0.01
Mof_H 	H 	0.07983	0.33977	0.54227	0.06
Mof_C 	C 	0.94653	0.37417	0.51916	-0.033
Mof_H 	H 	0.01233	0.39387	0.51667	0.046
Mof_H 	H 	0.00273	0.25067	0.57037	0.045
Mof_H 	H 	0.87723	0.34327	0.52497	0.042
Mof_C 	C 	0.94363	0.13417	0.75625	-0.122
Mof_C 	C 	0.92553	0.06097	0.74814	-0.147
Mof_H 	H 	0.83623	0.27037	0.76837	0.031
Mof_H 	H 	0.05923	0.36457	0.72527	0.044
Mof_C 	C 	0.21033	0.59097	0.52547	-0.178
Mof_C 	C 	0.16473	0.51287	0.52087	-0.155
Mof_H 	H 	0.05593	0.27267	0.55387	0.031
Mof_H 	H 	0.94143	0.37877	0.51057	0.044
Mof_H 	H 	0.94253	0.16187	0.75567	0.088
Mof_C 	C 	0.96683	0.12877	0.76658	0.073
Mof_C 	C 	0.94793	0.05647	0.75829	0.101
Mof_H 	H 	0.91233	0.03737	0.74187	0.083
Mof_H 	H 	0.21983	0.61737	0.53067	0.088
Mof_C 	C 	0.22933	0.59367	0.51339	0.136
Mof_C 	C 	0.19173	0.51777	0.50888	0.095
Mof_H 	H 	0.13783	0.48377	0.52227	0.097
Mof_H 	H 	0.98003	0.15157	0.77297	0.027
Mof_C 	C 	0.96993	0.08797	0.76708	-0.163
Mof_H 	H 	0.94763	0.02807	0.75917	0.009
Mof_H 	H 	0.25053	0.62407	0.51067	0.005
Mof_C 	C 	0.22303	0.56217	0.5055	-0.213
Mof_H 	H 	0.18733	0.49197	0.50407	0.016
Mof_C 	C 	0.99683	0.08287	0.77747	0.432
Mof_C 	C 	0.25173	0.56967	0.49477	0.459
Mof_O 	O 	0.26983	0.60977	0.49088	-0.349
Mof_Zn	Zn	0.37777	0.77898	0.96038	1.227
Mof_O 	O 	0.3405	0.7222	0.96903	-0.674
Mof_O 	O 	0.4072	0.8257	0.97366	-0.47
Mof_O 	O 	0.3413	0.7964	0.95086	-0.484
Mof_O 	O 	0.4246	0.784	0.94995	-0.515
Mof_Zn	Zn	0.2974	0.7391	0.9766	1.23
Mof_C 	C 	0.381	0.8223	0.98271	0.375
Mof_C 	C 	0.2992	0.7857	0.95433	0.332
Mof_O 	O 	0.3399	0.7958	0.98534	-0.49
Mof_O 	O 	0.2742	0.7597	0.96318	-0.485
Mof_O 	O 	0.248	0.7089	0.98852	-0.509
Mof_O 	O 	0.2914	0.6793	0.94611	-0.493
Mof_C 	C 	0.4086	0.8594	0.99293	-0.106
Mof_C 	C 	0.2766	0.8047	0.94538	-0.091
Mof_C 	C 	0.3869	0.8618	0.00444	0.051
Mof_C 	C 	0.4533	0.8915	0.99178	0.056
Mof_C 	C 	0.2994	0.833	0.93431	0.029
Mof_C 	C 	0.2355	0.8012	0.94873	0.03
Mof_C 	C 	0.4106	0.8942	0.01283	-0.128
Mof_H 	H 	0.3555	0.84	0.006	0.027
Mof_H 	H 	0.4689	0.8908	0.9843	0.033
Mof_C 	C 	0.4786	0.9256	0.0006	-0.137
Mof_C 	C 	0.2787	0.8518	0.92683	-0.12
Mof_H 	H 	0.3294	0.8388	0.9321	0.029
Mof_H 	H 	0.2212	0.7872	0.9565	0.036
Mof_C 	C 	0.2138	0.8188	0.94037	-0.121
Mof_C 	C 	0.4577	0.9268	0.01183	0.091
Mof_H 	H 	0.3946	0.8957	0.0201	0.084
Mof_H 	H 	0.5099	0.9479	0.999	0.075
Mof_C 	C 	0.2356	0.8435	0.92978	0.087
Mof_H 	H 	0.2945	0.8703	0.9197	0.08
Mof_H 	H 	0.1837	0.8131	0.9423	0.068
Mof_C 	C 	0.4852	0.9603	0.02182	-0.046
Mof_C 	C 	0.209	0.8588	0.92164	-0.037
Mof_H 	H 	0.498	0.9921	0.0186	0.049
Mof_H 	H 	0.5113	0.9559	0.0243	0.055
Mof_O 	O 	0.4574	0.9539	0.03226	-0.197
Mof_H 	H 	0.1976	0.8757	0.9268	0.043
Mof_H 	H 	0.1821	0.8317	0.9178	0.052
Mof_O 	O 	0.2386	0.8875	0.91213	-0.213
Mof_C 	C 	0.4726	0.9903	0.04079	0.105
Mof_C 	C 	0.2222	0.9077	0.90452	0.137
Mof_C 	C 	0.519	0.0245	0.04107	-0.076
Mof_C 	C 	0.4437	0.9818	0.05178	0.015
Mof_C 	C 	0.1772	0.8968	0.90442	-0.112
Mof_C 	C 	0.2512	0.9312	0.89365	-0.013
Mof_H 	H 	0.5406	0.0235	0.0354	0.064
Mof_C 	C 	0.5331	0.0603	0.04984	-0.089
Mof_C 	C 	0.4587	0.0169	0.06009	-0.044
Mof_C 	C 	0.3969	0.9438	0.0542	-0.094
Mof_C 	C 	0.163	0.9184	0.895	-0.051
Mof_H 	H 	0.1559	0.8757	0.9104	0.075
Mof_C 	C 	0.2385	0.9526	0.88479	-0.014
Mof_C 	C 	0.2998	0.9434	0.89185	-0.075
Mof_H 	H 	0.562	0.0879	0.0489	0.066
Mof_C 	C 	0.5029	0.0544	0.06031	0.145
Mof_C 	C 	0.4206	0.0086	0.06974	-0.048
Mof_H 	H 	0.3869	0.9182	0.0479	0.065
Mof_C 	C 	0.3952	0.929	0.0665	0.046
Mof_C 	C 	0.3689	0.9665	0.0535	0.045
Mof_C 	C 	0.1957	0.9455	0.8846	0.096
Mof_H 	H 	0.1333	0.9154	0.8954	0.052
Mof_C 	C 	0.2714	0.9826	0.87563	-0.058
Mof_H 	H 	0.3103	0.9287	0.8983	0.064
Mof_C 	C 	0.3282	0.9921	0.89145	0.046
Mof_C 	C 	0.2983	0.9251	0.87809	0.031
Mof_O 	O 	0.5141	0.0866	0.06906	-0.227
Mof_H 	H 	0.4303	0.0338	0.0762	0.051
Mof_C 	C 	0.4086	0.9618	0.0755	0.006
Mof_C 	C 	0.3801	0.0002	0.0624	0.011
Mof_C 	C 	0.3809	0.8846	0.0706	-0.083
Mof_C 	C 	0.3309	0.9542	0.0455	-0.086
Mof_O 	O 	0.1757	0.9626	0.87582	-0.191
Mof_H 	H 	0.26	0.9988	0.87	0.058
Mof_C 	C 	0.3138	0.0137	0.88274	0.012
Mof_C 	C 	0.2817	0.9477	0.86862	0.019
Mof_C 	C 	0.3679	0.0201	0.89863	-0.089
Mof_C 	C 	0.3129	0.8952	0.87436	-0.077
Mof_C 	C 	0.5555	0.12	0.06995	0.015
Mof_C 	C 	0.4086	0.9493	0.0895	-0.068
Mof_C 	C 	0.3608	0.0237	0.06417	-0.055
Mof_C 	C 	0.386	0.8777	0.086	-0.042
Mof_H 	H 	0.3687	0.8593	0.0649	0.055
Mof_C 	C 	0.3096	0.9782	0.0464	-0.006
Mof_H 	H 	0.321	0.9295	0.0396	0.059
Mof_C 	C 	0.1288	0.9445	0.87443	-0.055
Mof_C 	C 	0.3369	0.0586	0.8814	-0.063
Mof_C 	C 	0.2813	0.9368	0.85622	-0.069
Mof_H 	H 	0.379	0.0055	0.9042	0.068
Mof_C 	C 	0.3914	0.0667	0.8981	-0.014
Mof_H 	H 	0.3233	0.8812	0.8803	0.062
Mof_C 	C 	0.3117	0.8861	0.86136	-0.026
Mof_H 	H 	0.576	0.1069	0.0711	0.038
Mof_H 	H 	0.5639	0.1368	0.0618	0.037
Mof_C 	C 	0.5653	0.1543	0.08031	0.083
Mof_H 	H 	0.4175	0.9725	0.0958	0.049
Mof_C 	C 	0.3962	0.9058	0.093	-0.017
Mof_H 	H 	0.3728	0.0478	0.0703	0.047
Mof_C 	C 	0.3202	0.0139	0.057	-0.052
Mof_H 	H 	0.3798	0.8483	0.0889	0.041
Mof_H 	H 	0.2868	0.9733	0.0403	0.032
Mof_H 	H 	0.113	0.9104	0.874	0.059
Mof_H 	H 	0.1162	0.9532	0.8817	0.05
Mof_C 	C 	0.1216	0.9634	0.8627	0.109
Mof_C 	C 	0.3763	0.0844	0.8888	-0.036
Mof_H 	H 	0.3269	0.0734	0.8756	0.051
Mof_C 	C 	0.2925	0.9057	0.85249	-0.031
Mof_H 	H 	0.2728	0.9518	0.85	0.052
Mof_H 	H 	0.416	0.0854	0.9037	0.035
Mof_H 	H 	0.3234	0.8673	0.8583	0.042
Mof_C 	C 	0.5325	0.1428	0.08958	-0.122
Mof_C 	C 	0.6057	0.1979	0.08147	-0.146
Mof_H 	H 	0.3963	0.8992	0.1017	0.031
Mof_H 	H 	0.3021	0.028	0.0586	0.044
Mof_C 	C 	0.0757	0.9527	0.8588	-0.16
Mof_C 	C 	0.1538	0.9852	0.8542	-0.133
Mof_H 	H 	0.394	0.1166	0.8872	0.04
Mof_H 	H 	0.2879	0.896	0.8439	0.043
Mof_H 	H 	0.5048	0.114	0.089	0.087
Mof_C 	C 	0.5379	0.1714	0.09991	0.071
Mof_C 	C 	0.6102	0.2248	0.09162	0.098
Mof_H 	H 	0.6293	0.2083	0.0752	0.083
Mof_H 	H 	0.0493	0.9358	0.864	0.082
Mof_C 	C 	0.073	0.969	0.84672	0.112
Mof_C 	C 	0.1489	0.0073	0.84221	0.065
Mof_H 	H 	0.1829	0.9874	0.8556	0.091
Mof_H 	H 	0.5151	0.1618	0.1063	0.026
Mof_C 	C 	0.5787	0.2153	0.10041	-0.16
Mof_H 	H 	0.6386	0.2529	0.0925	0.011
Mof_H 	H 	0.0426	0.9598	0.844	0.013
Mof_C 	C 	0.1045	0.9942	0.83883	-0.181
Mof_H 	H 	0.1747	0.0287	0.8374	0.025
Mof_C 	C 	0.5838	0.2473	0.1108	0.424
Mof_C 	C 	0.097	0.0154	0.8281	0.435
Mof_O 	O 	0.0569	0.9934	0.82421	-0.34
Mof_Zn	Zn	0.04444	0.11231	0.29371	1.227
Mof_O 	O 	0.00717	0.05553	0.30236	-0.677
Mof_O 	O 	0.07387	0.15903	0.30699	-0.47
Mof_O 	O 	0.00797	0.12973	0.28419	-0.489
Mof_O 	O 	0.09127	0.11733	0.28328	-0.516
Mof_Zn	Zn	0.96407	0.07243	0.30993	1.231
Mof_C 	C 	0.04767	0.15563	0.31604	0.376
Mof_C 	C 	0.96587	0.11903	0.28766	0.338
Mof_O 	O 	0.00657	0.12913	0.31867	-0.492
Mof_O 	O 	0.94087	0.09303	0.29651	-0.486
Mof_O 	O 	0.91467	0.04223	0.32185	-0.503
Mof_O 	O 	0.95807	0.01263	0.27944	-0.491
Mof_C 	C 	0.07527	0.19273	0.32626	-0.107
Mof_C 	C 	0.94327	0.13803	0.27871	-0.092
Mof_C 	C 	0.05357	0.19513	0.33777	0.05
Mof_C 	C 	0.11997	0.22483	0.32511	0.055
Mof_C 	C 	0.96607	0.16633	0.26764	0.031
Mof_C 	C 	0.90217	0.13453	0.28206	0.031
Mof_C 	C 	0.07727	0.22753	0.34616	-0.128
Mof_H 	H 	0.02217	0.17333	0.33933	0.026
Mof_H 	H 	0.13557	0.22413	0.31763	0.033
Mof_C 	C 	0.14527	0.25893	0.33393	-0.136
Mof_C 	C 	0.94537	0.18513	0.26016	-0.12
Mof_H 	H 	0.99607	0.17213	0.26543	0.03
Mof_H 	H 	0.88787	0.12053	0.28983	0.036
Mof_C 	C 	0.88047	0.15213	0.2737	-0.121
Mof_C 	C 	0.12437	0.26013	0.34516	0.09
Mof_H 	H 	0.06127	0.22903	0.35343	0.084
Mof_H 	H 	0.17657	0.28123	0.33233	0.074
Mof_C 	C 	0.90227	0.17683	0.26311	0.088
Mof_H 	H 	0.96117	0.20363	0.25303	0.081
Mof_H 	H 	0.85037	0.14643	0.27563	0.068
Mof_C 	C 	0.15187	0.29363	0.35515	-0.045
Mof_C 	C 	0.87567	0.19213	0.25497	-0.037
Mof_H 	H 	0.16467	0.32543	0.35193	0.047
Mof_H 	H 	0.17797	0.28923	0.35763	0.054
Mof_O 	O 	0.12407	0.28723	0.36559	-0.197
Mof_H 	H 	0.86427	0.20903	0.26013	0.042
Mof_H 	H 	0.84877	0.16503	0.25113	0.052
Mof_O 	O 	0.90527	0.22083	0.24546	-0.214
Mof_C 	C 	0.13927	0.32363	0.37412	0.103
Mof_C 	C 	0.88887	0.24103	0.23785	0.142
Mof_C 	C 	0.18567	0.35783	0.3744	-0.072
Mof_C 	C 	0.11037	0.31513	0.38511	0.003
Mof_C 	C 	0.84387	0.23013	0.23775	-0.116
Mof_C 	C 	0.91787	0.26453	0.22698	-0.024
Mof_H 	H 	0.20727	0.35683	0.36873	0.064
Mof_C 	C 	0.19977	0.39363	0.38317	-0.088
Mof_C 	C 	0.12537	0.35023	0.39342	-0.032
Mof_C 	C 	0.06357	0.27713	0.38753	-0.075
Mof_C 	C 	0.82967	0.25173	0.22833	-0.047
Mof_H 	H 	0.82257	0.20903	0.24373	0.076
Mof_C 	C 	0.90517	0.28593	0.21812	-0.002
Mof_C 	C 	0.96647	0.27673	0.22518	-0.058
Mof_H 	H 	0.22867	0.42123	0.38223	0.066
Mof_C 	C 	0.16957	0.38773	0.39364	0.141
Mof_C 	C 	0.08727	0.34193	0.40307	-0.061
Mof_H 	H 	0.05357	0.25153	0.38123	0.059
Mof_C 	C 	0.06187	0.26233	0.39983	0.034
Mof_C 	C 	0.03557	0.29983	0.38683	0.014
Mof_C 	C 	0.86237	0.27883	0.21793	0.089
Mof_H 	H 	0.79997	0.24873	0.22873	0.051
Mof_C 	C 	0.93807	0.31593	0.20896	-0.085
Mof_H 	H 	0.97697	0.26203	0.23163	0.06
Mof_C 	C 	0.99487	0.32543	0.22478	0.016
Mof_C 	C 	0.96497	0.25843	0.21142	0.023
Mof_O 	O 	0.18077	0.41993	0.40239	-0.226
Mof_H 	H 	0.09697	0.36713	0.40953	0.056
Mof_C 	C 	0.07527	0.29513	0.40883	0.011
Mof_C 	C 	0.04677	0.33353	0.39573	0.041
Mof_C 	C 	0.04757	0.21793	0.40393	-0.075
Mof_C 	C 	0.99757	0.28753	0.37883	-0.055
Mof_O 	O 	0.84237	0.29593	0.20915	-0.189
Mof_H 	H 	0.92667	0.33213	0.20333	0.064
Mof_C 	C 	0.98047	0.34703	0.21607	0.057
Mof_C 	C 	0.94837	0.28103	0.20195	0.028
Mof_C 	C 	0.03457	0.35343	0.23196	-0.061
Mof_C 	C 	0.97957	0.22853	0.20769	-0.071
Mof_C 	C 	0.22217	0.45333	0.40328	0.015
Mof_C 	C 	0.07527	0.28263	0.42283	-0.077
Mof_C 	C 	0.02747	0.35703	0.3975	-0.087
Mof_C 	C 	0.05267	0.21103	0.41933	-0.054
Mof_H 	H 	0.03537	0.19263	0.39823	0.052
Mof_C 	C 	0.97627	0.31153	0.37973	-0.034
Mof_H 	H 	0.98767	0.26283	0.37293	0.05
Mof_C 	C 	0.79547	0.27783	0.20776	-0.065
Mof_C 	C 	0.00357	0.39193	0.21473	-0.115
Mof_C 	C 	0.94797	0.27013	0.18955	-0.077
Mof_H 	H 	0.04567	0.33883	0.23753	0.059
Mof_C 	C 	0.05807	0.40003	0.23143	-0.046
Mof_H 	H 	0.98997	0.21453	0.21363	0.061
Mof_C 	C 	0.97837	0.21943	0.19469	-0.031
Mof_H 	H 	0.24267	0.44023	0.40443	0.039
Mof_H 	H 	0.23057	0.47013	0.39513	0.037
Mof_C 	C 	0.23197	0.48763	0.41364	0.083
Mof_H 	H 	0.08417	0.30583	0.42913	0.05
Mof_C 	C 	0.06287	0.23913	0.42633	-0.004
Mof_H 	H 	0.03947	0.38113	0.40363	0.057
Mof_C 	C 	0.98687	0.34723	0.39033	-0.021
Mof_H 	H 	0.04647	0.18163	0.42223	0.043
Mof_H 	H 	0.95347	0.30663	0.37363	0.041
Mof_H 	H 	0.77967	0.24373	0.20733	0.062
Mof_H 	H 	0.78287	0.28653	0.21503	0.052
Mof_C 	C 	0.78827	0.29673	0.19603	0.124
Mof_C 	C 	0.04297	0.41773	0.22213	0
Mof_H 	H 	0.99357	0.40673	0.20893	0.072
Mof_C 	C 	0.95917	0.23903	0.18582	-0.025
Mof_H 	H 	0.93947	0.28513	0.18333	0.054
Mof_H 	H 	0.08267	0.41873	0.23703	0.046
Mof_H 	H 	0.99007	0.20063	0.19163	0.044
Mof_C 	C 	0.19917	0.47613	0.42291	-0.122
Mof_C 	C 	0.27237	0.53123	0.4148	-0.146
Mof_H 	H 	0.06297	0.23253	0.43503	0.025
Mof_H 	H 	0.96877	0.36133	0.39193	0.036
Mof_C 	C 	0.74237	0.28603	0.19213	-0.178
Mof_C 	C 	0.82047	0.31853	0.18753	-0.155
Mof_H 	H 	0.06067	0.44993	0.22053	0.028
Mof_H 	H 	0.95457	0.22933	0.17723	0.041
Mof_H 	H 	0.17147	0.44733	0.42233	0.087
Mof_C 	C 	0.20457	0.50473	0.43324	0.071
Mof_C 	C 	0.27687	0.55813	0.42495	0.099
Mof_H 	H 	0.29597	0.54163	0.40853	0.083
Mof_H 	H 	0.71597	0.26913	0.19733	0.088
Mof_C 	C 	0.73967	0.30233	0.18005	0.136
Mof_C 	C 	0.81557	0.34063	0.17554	0.095
Mof_H 	H 	0.84957	0.32073	0.18893	0.097
Mof_H 	H 	0.18177	0.49513	0.43963	0.026
Mof_C 	C 	0.24537	0.54863	0.43374	-0.16
Mof_H 	H 	0.30527	0.58623	0.42583	0.011
Mof_H 	H 	0.70927	0.29313	0.17733	0.005
Mof_C 	C 	0.77117	0.32753	0.17216	-0.214
Mof_H 	H 	0.84137	0.36203	0.17073	0.016
Mof_C 	C 	0.25047	0.58063	0.44413	0.424
Mof_C 	C 	0.76367	0.34873	0.16143	0.459
Mof_O 	O 	0.72357	0.32673	0.15754	-0.349
Mof_Zn	Zn	0.7111	0.44565	0.62705	1.227
Mof_O 	O 	0.67383	0.38887	0.6357	-0.674
Mof_O 	O 	0.74053	0.49237	0.64033	-0.47
Mof_O 	O 	0.67463	0.46307	0.61753	-0.484
Mof_O 	O 	0.75793	0.45067	0.61662	-0.515
Mof_Zn	Zn	0.63073	0.40577	0.64327	1.23
Mof_C 	C 	0.71433	0.48897	0.64938	0.375
Mof_C 	C 	0.63253	0.45237	0.621	0.332
Mof_O 	O 	0.67323	0.46247	0.65201	-0.49
Mof_O 	O 	0.60753	0.42637	0.62985	-0.485
Mof_O 	O 	0.58133	0.37557	0.65519	-0.509
Mof_O 	O 	0.62473	0.34597	0.61278	-0.493
Mof_C 	C 	0.74193	0.52607	0.6596	-0.106
Mof_C 	C 	0.60993	0.47137	0.61205	-0.091
Mof_C 	C 	0.72023	0.52847	0.67111	0.05
Mof_C 	C 	0.78663	0.55817	0.65845	0.055
Mof_C 	C 	0.63273	0.49967	0.60098	0.029
Mof_C 	C 	0.56883	0.46787	0.6154	0.03
Mof_C 	C 	0.74393	0.56087	0.6795	-0.128
Mof_H 	H 	0.68883	0.50667	0.67267	0.027
Mof_H 	H 	0.80223	0.55747	0.65097	0.033
Mof_C 	C 	0.81193	0.59227	0.66727	-0.136
Mof_C 	C 	0.61203	0.51847	0.5935	-0.119
Mof_H 	H 	0.66273	0.50547	0.59877	0.029
Mof_H 	H 	0.55453	0.45387	0.62317	0.036
Mof_C 	C 	0.54713	0.48547	0.60704	-0.12
Mof_C 	C 	0.79103	0.59347	0.6785	0.09
Mof_H 	H 	0.72793	0.56237	0.68677	0.084
Mof_H 	H 	0.84323	0.61457	0.66567	0.074
Mof_C 	C 	0.56893	0.51017	0.59645	0.087
Mof_H 	H 	0.62783	0.53697	0.58637	0.08
Mof_H 	H 	0.51703	0.47977	0.60897	0.068
Mof_C 	C 	0.81853	0.62697	0.68849	-0.045
Mof_C 	C 	0.54233	0.52547	0.58831	-0.036
Mof_H 	H 	0.83133	0.65877	0.68527	0.047
Mof_H 	H 	0.84463	0.62257	0.69097	0.054
Mof_O 	O 	0.79073	0.62057	0.69893	-0.197
Mof_H 	H 	0.53093	0.54237	0.59347	0.042
Mof_H 	H 	0.51543	0.49837	0.58447	0.052
Mof_O 	O 	0.57193	0.55417	0.5788	-0.214
Mof_C 	C 	0.80593	0.65697	0.70746	0.101
Mof_C 	C 	0.55553	0.57437	0.57119	0.141
Mof_C 	C 	0.85233	0.69117	0.70774	-0.07
Mof_C 	C 	0.77703	0.64847	0.71845	0.008
Mof_C 	C 	0.51053	0.56347	0.57109	-0.115
Mof_C 	C 	0.58453	0.59787	0.56032	-0.022
Mof_H 	H 	0.87393	0.69017	0.70207	0.063
Mof_C 	C 	0.86643	0.72697	0.71651	-0.09
Mof_C 	C 	0.79203	0.68357	0.72676	-0.036
Mof_C 	C 	0.73023	0.61047	0.72087	-0.086
Mof_C 	C 	0.49633	0.58507	0.56167	-0.048
Mof_H 	H 	0.48923	0.54237	0.57707	0.076
Mof_C 	C 	0.57183	0.61927	0.55146	-0.006
Mof_C 	C 	0.63313	0.61007	0.55852	-0.06
Mof_H 	H 	0.89533	0.75457	0.71557	0.067
Mof_C 	C 	0.83623	0.72107	0.72698	0.143
Mof_C 	C 	0.75393	0.67527	0.73641	-0.052
Mof_H 	H 	0.72023	0.58487	0.71457	0.063
Mof_C 	C 	0.72853	0.59567	0.73317	0.042
Mof_C 	C 	0.70223	0.63317	0.72017	0.031
Mof_C 	C 	0.52903	0.61217	0.55127	0.091
Mof_H 	H 	0.46663	0.58207	0.56207	0.051
Mof_C 	C 	0.60473	0.64927	0.5423	-0.077
Mof_H 	H 	0.64363	0.59537	0.56497	0.059
Mof_C 	C 	0.66153	0.65877	0.55812	0.018
Mof_C 	C 	0.63163	0.59177	0.54476	0.024
Mof_O 	O 	0.84743	0.75327	0.73573	-0.227
Mof_H 	H 	0.76363	0.70047	0.74287	0.053
Mof_C 	C 	0.74193	0.62847	0.74217	0.005
Mof_C 	C 	0.71343	0.66687	0.72907	0.026
Mof_C 	C 	0.71423	0.55127	0.73727	-0.081
Mof_C 	C 	0.66423	0.62087	0.71217	-0.074
Mof_O 	O 	0.50903	0.62927	0.54249	-0.189
Mof_H 	H 	0.59333	0.66547	0.53667	0.062
Mof_C 	C 	0.64713	0.68037	0.54941	0.04
Mof_C 	C 	0.61503	0.61437	0.53529	0.025
Mof_C 	C 	0.70123	0.68677	0.5653	-0.062
Mof_C 	C 	0.64623	0.56187	0.54103	-0.072
Mof_C 	C 	0.88883	0.78667	0.73662	0.015
Mof_C 	C 	0.74193	0.61597	0.75617	-0.069
Mof_C 	C 	0.69413	0.69037	0.73084	-0.068
Mof_C 	C 	0.71933	0.54437	0.75267	-0.044
Mof_H 	H 	0.70203	0.52597	0.73157	0.055
Mof_C 	C 	0.64293	0.64487	0.71307	-0.021
Mof_H 	H 	0.65433	0.59617	0.70627	0.055
Mof_C 	C 	0.46213	0.61117	0.5411	-0.065
Mof_C 	C 	0.67023	0.72527	0.54807	-0.087
Mof_C 	C 	0.61463	0.60347	0.52289	-0.075
Mof_H 	H 	0.71233	0.67217	0.57087	0.061
Mof_C 	C 	0.72473	0.73337	0.56477	-0.036
Mof_H 	H 	0.65663	0.54787	0.54697	0.06
Mof_C 	C 	0.64503	0.55277	0.52803	-0.03
Mof_H 	H 	0.90933	0.77357	0.73777	0.039
Mof_H 	H 	0.89723	0.80347	0.72847	0.037
Mof_C 	C 	0.89863	0.82097	0.74698	0.083
Mof_H 	H 	0.75083	0.63917	0.76247	0.048
Mof_C 	C 	0.72953	0.57247	0.75967	-0.015
Mof_H 	H 	0.70613	0.71447	0.73697	0.052
Mof_C 	C 	0.65353	0.68057	0.72367	-0.037
Mof_H 	H 	0.71313	0.51497	0.75557	0.042
Mof_H 	H 	0.62013	0.63997	0.70697	0.036
Mof_H 	H 	0.44633	0.57707	0.54067	0.062
Mof_H 	H 	0.44953	0.61987	0.54837	0.052
Mof_C 	C 	0.45493	0.63007	0.52937	0.123
Mof_C 	C 	0.70963	0.75107	0.55547	-0.015
Mof_H 	H 	0.66023	0.74007	0.54227	0.06
Mof_C 	C 	0.62583	0.57237	0.51916	-0.027
Mof_H 	H 	0.60613	0.61847	0.51667	0.053
Mof_H 	H 	0.74933	0.75207	0.57037	0.043
Mof_H 	H 	0.65673	0.53397	0.52497	0.043
Mof_C 	C 	0.86583	0.80947	0.75625	-0.121
Mof_C 	C 	0.93903	0.86457	0.74814	-0.145
Mof_H 	H 	0.72963	0.56587	0.76837	0.03
Mof_H 	H 	0.63543	0.69467	0.72527	0.04
Mof_C 	C 	0.40903	0.61937	0.52547	-0.178
Mof_C 	C 	0.48713	0.65187	0.52087	-0.155
Mof_H 	H 	0.72733	0.78327	0.55387	0.034
Mof_H 	H 	0.62123	0.56267	0.51057	0.041
Mof_H 	H 	0.83813	0.78067	0.75567	0.087
Mof_C 	C 	0.87123	0.83807	0.76658	0.07
Mof_C 	C 	0.94353	0.89147	0.75829	0.098
Mof_H 	H 	0.96263	0.87497	0.74187	0.084
Mof_H 	H 	0.38263	0.60247	0.53067	0.088
Mof_C 	C 	0.40633	0.63567	0.51339	0.136
Mof_C 	C 	0.48223	0.67397	0.50888	0.095
Mof_H 	H 	0.51623	0.65407	0.52227	0.097
Mof_H 	H 	0.84843	0.82847	0.77297	0.027
Mof_C 	C 	0.91203	0.88197	0.76708	-0.159
Mof_H 	H 	0.97193	0.91957	0.75917	0.013
Mof_H 	H 	0.37593	0.62647	0.51067	0.005
Mof_C 	C 	0.43783	0.66087	0.5055	-0.213
Mof_H 	H 	0.50803	0.69537	0.50407	0.016
Mof_C 	C 	0.91713	0.91397	0.77747	0.424
Mof_C 	C 	0.43033	0.68207	0.49477	0.459
Mof_O 	O 	0.39023	0.66007	0.49088	-0.349
Mof_Zn	Zn	0.33333	0.66667	0.45781	1.236
Mof_Zn	Zn	-0	0	0.79114	1.233
Mof_Zn	Zn	0.66667	0.33333	0.12448	1.236
Mof_Zn	Zn	0.33333	0.66667	0.95781	1.236
Mof_Zn	Zn	-0	0	0.29114	1.233
Mof_Zn	Zn	0.66667	0.33333	0.62448	1.236
_end
