data_functionalizedCrystal
_audit_creation_method	'EQeq! by Chris Wilmer'
_symmetry_space_group_name_H-M	'P1'
_symmetry_Int_Tables_number	1
_symmetry_cell_setting	triclinic
loop_
_symmetry_equiv_pos_as_xyz
  x,y,z
_cell_length_a	5.3992
_cell_length_b	11.1408
_cell_length_c	13.6811
_cell_angle_alpha	90.885
_cell_angle_beta	94.25
_cell_angle_gamma	91.825
loop_
_atom_site_label
_atom_site_type_symbol
_atom_site_fract_x
_atom_site_fract_y
_atom_site_fract_z
_atom_site_charge
Mof_O 	O 	0.4674	0.12653	0.43144	-1.449
Mof_C 	C 	0.4304	0.8268	0.3304	-0.034
Mof_H 	H 	0.5544	0.8395	0.3828	-0.186
Mof_C 	C 	0.0512	0.8697	0.2562	-0.022
Mof_H 	H 	0.9044	0.9146	0.2545	-0.1
Mof_C 	C 	0.0739	0.7853	0.1819	0.149
Mof_H 	H 	0.9434	0.7713	0.1321	-0.146
Mof_C 	C 	0.471	0.7427	0.2583	0.146
Mof_H 	H 	0.6205	0.6998	0.2612	-0.119
Mof_C 	C 	0.2905	0.7219	0.18169	-0.488
Mof_C 	C 	0.3351	0.633	0.09965	1.16
Mof_C 	C 	0.6813	0.1313	0.40281	1.063
Mof_C 	C 	0.7301	0.2226	0.32461	-0.453
Mof_C 	C 	0.9319	0.2178	0.2676	0.153
Mof_H 	H 	0.0504	0.1571	0.2774	-0.179
Mof_C 	C 	0.9574	0.3033	0.1962	-0.037
Mof_H 	H 	0.0943	0.2981	0.1567	-0.145
Mof_C 	C 	0.6101	0.3975	0.2367	-0.079
Mof_H 	H 	0.4987	0.4613	0.2275	-0.117
Mof_C 	C 	0.566	0.3149	0.3083	0.13
Mof_H 	H 	0.4256	0.3211	0.3458	-0.087
Mof_Li	Li	0.8152	0.5133	0.0643	3.846
Mof_Li	Li	0.1967	0.0162	0.4425	3.705
Mof_N 	N 	0.2242	0.8913	0.32999	-0.607
Mof_N 	N 	0.8007	0.3927	0.17936	-0.618
Mof_O 	O 	0.1476	0.58402	0.05404	-2.031
Mof_O 	O 	0.5555	0.6174	0.08421	-1.526
Mof_O 	O 	0.8573	0.06688	0.43295	-1.928
Mof_O 	O 	0.5326	0.87347	0.56856	-1.45
Mof_C 	C 	0.5696	0.1732	0.6696	-0.035
Mof_H 	H 	0.4456	0.1605	0.6172	-0.186
Mof_C 	C 	0.9488	0.1303	0.7438	-0.022
Mof_H 	H 	0.0956	0.0854	0.7455	-0.1
Mof_C 	C 	0.9261	0.2147	0.8181	0.149
Mof_H 	H 	0.0566	0.2287	0.8679	-0.146
Mof_C 	C 	0.529	0.2573	0.7417	0.146
Mof_H 	H 	0.3795	0.3002	0.7388	-0.119
Mof_C 	C 	0.7095	0.2781	0.81831	-0.488
Mof_C 	C 	0.6649	0.367	0.90035	1.16
Mof_C 	C 	0.3187	0.8687	0.59719	1.063
Mof_C 	C 	0.2699	0.7774	0.67539	-0.453
Mof_C 	C 	0.0681	0.7822	0.7324	0.153
Mof_H 	H 	0.9496	0.8429	0.7226	-0.179
Mof_C 	C 	0.0426	0.6967	0.8038	-0.037
Mof_H 	H 	0.9057	0.7019	0.8433	-0.145
Mof_C 	C 	0.3899	0.6025	0.7633	-0.079
Mof_H 	H 	0.5013	0.5387	0.7725	-0.117
Mof_C 	C 	0.434	0.6851	0.6917	0.13
Mof_H 	H 	0.5744	0.6789	0.6542	-0.087
Mof_Li	Li	0.1848	0.4867	0.9357	3.846
Mof_Li	Li	0.8033	0.9838	0.5575	3.705
Mof_N 	N 	0.7758	0.1087	0.67001	-0.607
Mof_N 	N 	0.1993	0.6073	0.82064	-0.618
Mof_O 	O 	0.8524	0.41598	0.94596	-2.031
Mof_O 	O 	0.4445	0.3826	0.91579	-1.526
Mof_O 	O 	0.1427	0.93312	0.56705	-1.928
_end
