data_functionalizedCrystal
_audit_creation_method	'EQeq! by Chris Wilmer'
_symmetry_space_group_name_H-M	'P1'
_symmetry_Int_Tables_number	1
_symmetry_cell_setting	triclinic
loop_
_symmetry_equiv_pos_as_xyz
  x,y,z
_cell_length_a	5.2352
_cell_length_b	15.437
_cell_length_c	17.975
_cell_angle_alpha	90
_cell_angle_beta	91.786
_cell_angle_gamma	90
loop_
_atom_site_label
_atom_site_type_symbol
_atom_site_fract_x
_atom_site_fract_y
_atom_site_fract_z
_atom_site_charge
Mof_Zn	Zn	0.0615	0.765	0.69878	1.214
Mof_Zn	Zn	0.5673	0.89155	0.74338	1.221
Mof_Zn	Zn	0.4248	0.59512	0.6963	1.223
Mof_Zn	Zn	0.8905	0.72522	0.93184	1.239
Mof_P 	P 	0.5393	0.7625	0.6056	0.56
Mof_P 	P 	0.0733	0.8857	0.8385	0.559
Mof_P 	P 	0.9393	0.5998	0.794	0.555
Mof_O 	O 	0.8248	0.7781	0.6167	-0.501
Mof_O 	O 	0.1025	0.6439	0.7327	-0.639
Mof_O 	O 	0.4012	0.8087	0.6711	-0.64
Mof_O 	O 	0.9171	0.8515	0.768	-0.658
Mof_O 	O 	0.0038	0.5039	0.791	-0.513
Mof_O 	O 	0.3522	0.8628	0.827	-0.475
Mof_O 	O 	0.028	0.9827	0.8451	-0.488
Mof_O 	O 	0.6591	0.6193	0.7784	-0.52
Mof_O 	O 	0.4678	0.6686	0.6078	-0.493
Mof_O 	O 	0.9841	0.8417	0.9082	-0.438
Mof_O 	O 	0.024	0.6358	0.8699	-0.465
Mof_O 	O 	0.4511	0.8058	0.5338	-0.459
Mof_O 	O 	0.5118	0.7254	0.9067	-0.539
Mof_H 	H 	0.4532	0.6769	0.9138	0.253
Mof_Zn	Zn	0.4385	0.265	0.80122	1.214
Mof_Zn	Zn	0.9327	0.39155	0.75662	1.219
Mof_Zn	Zn	0.0752	0.09512	0.8037	1.225
Mof_Zn	Zn	0.6095	0.22522	0.56816	1.241
Mof_P 	P 	0.9607	0.2625	0.8944	0.545
Mof_P 	P 	0.4267	0.3857	0.6615	0.557
Mof_P 	P 	0.5607	0.0998	0.706	0.567
Mof_O 	O 	0.6752	0.2781	0.8833	-0.5
Mof_O 	O 	0.3975	0.1439	0.7673	-0.643
Mof_O 	O 	0.0988	0.3087	0.8289	-0.633
Mof_O 	O 	0.5829	0.3515	0.732	-0.657
Mof_O 	O 	0.4962	0.0039	0.709	-0.521
Mof_O 	O 	0.1478	0.3628	0.673	-0.471
Mof_O 	O 	0.472	0.4827	0.6549	-0.488
Mof_O 	O 	0.8409	0.1193	0.7216	-0.523
Mof_O 	O 	0.0322	0.1686	0.8922	-0.486
Mof_O 	O 	0.5159	0.3417	0.5918	-0.436
Mof_O 	O 	0.476	0.1358	0.6301	-0.47
Mof_O 	O 	0.0489	0.3058	0.9662	-0.452
Mof_O 	O 	0.9882	0.2254	0.5933	-0.546
Mof_H 	H 	0.0468	0.1769	0.5862	0.259
Mof_Zn	Zn	0.9385	0.235	0.30122	1.215
Mof_Zn	Zn	0.4327	0.10845	0.25662	1.222
Mof_Zn	Zn	0.5752	0.40488	0.3037	1.224
Mof_Zn	Zn	0.1095	0.27478	0.06816	1.24
Mof_P 	P 	0.4607	0.2375	0.3944	0.561
Mof_P 	P 	0.9267	0.1143	0.1615	0.56
Mof_P 	P 	0.0607	0.4002	0.206	0.555
Mof_O 	O 	0.1752	0.2219	0.3833	-0.501
Mof_O 	O 	0.8975	0.3561	0.2673	-0.639
Mof_O 	O 	0.5988	0.1913	0.3289	-0.64
Mof_O 	O 	0.0829	0.1485	0.232	-0.658
Mof_O 	O 	0.9962	0.4961	0.209	-0.513
Mof_O 	O 	0.6478	0.1372	0.173	-0.475
Mof_O 	O 	0.972	0.0173	0.1549	-0.488
Mof_O 	O 	0.3409	0.3807	0.2216	-0.52
Mof_O 	O 	0.5322	0.3314	0.3922	-0.493
Mof_O 	O 	0.0159	0.1583	0.0918	-0.438
Mof_O 	O 	0.976	0.3642	0.1301	-0.465
Mof_O 	O 	0.5489	0.1942	0.4662	-0.459
Mof_O 	O 	0.4882	0.2746	0.0933	-0.539
Mof_H 	H 	0.5468	0.3231	0.0862	0.253
Mof_Zn	Zn	0.5615	0.735	0.19878	1.214
Mof_Zn	Zn	0.0673	0.60845	0.24338	1.219
Mof_Zn	Zn	0.9248	0.90488	0.1963	1.225
Mof_Zn	Zn	0.3905	0.77478	0.43184	1.241
Mof_P 	P 	0.0393	0.7375	0.1056	0.545
Mof_P 	P 	0.5733	0.6143	0.3385	0.557
Mof_P 	P 	0.4393	0.9002	0.294	0.567
Mof_O 	O 	0.3248	0.7219	0.1167	-0.5
Mof_O 	O 	0.6025	0.8561	0.2327	-0.643
Mof_O 	O 	0.9012	0.6913	0.1711	-0.633
Mof_O 	O 	0.4171	0.6485	0.268	-0.657
Mof_O 	O 	0.5038	0.9961	0.291	-0.521
Mof_O 	O 	0.8522	0.6372	0.327	-0.471
Mof_O 	O 	0.528	0.5173	0.3451	-0.488
Mof_O 	O 	0.1591	0.8807	0.2784	-0.523
Mof_O 	O 	0.9678	0.8314	0.1078	-0.486
Mof_O 	O 	0.4841	0.6583	0.4082	-0.436
Mof_O 	O 	0.524	0.8642	0.3699	-0.47
Mof_O 	O 	0.9511	0.6942	0.0338	-0.452
Mof_O 	O 	0.0118	0.7746	0.4067	-0.546
Mof_H 	H 	0.9532	0.8231	0.4138	0.259
_end
