data_functionalizedCrystal
_audit_creation_method	'EQeq! by Chris Wilmer'
_symmetry_space_group_name_H-M	'P1'
_symmetry_Int_Tables_number	1
_symmetry_cell_setting	triclinic
loop_
_symmetry_equiv_pos_as_xyz
  x,y,z
_cell_length_a	13.709
_cell_length_b	17.722
_cell_length_c	23.81
_cell_angle_alpha	70.746
_cell_angle_beta	77.493
_cell_angle_gamma	88.4
loop_
_atom_site_label
_atom_site_type_symbol
_atom_site_fract_x
_atom_site_fract_y
_atom_site_fract_z
_atom_site_charge
Mof_Ni	Ni	0.59279	0.84975	0.26776	1.092
Mof_O 	O 	0.99107	0.87673	0.02538	-0.431
Mof_O 	O 	0.6145	0.96033	0.20333	-0.4
Mof_O 	O 	0.4401	0.86885	0.26664	-0.376
Mof_O 	O 	0.593	0.79948	0.19992	-0.381
Mof_N 	N 	0.1561	0.99316	0.00161	-0.245
Mof_O 	O 	0.6451	0.30346	0.0083	-0.331
Mof_N 	N 	0.56	0.73634	0.33315	-0.249
Mof_O 	O 	0.4483	0.88568	0.16836	-0.235
Mof_O 	O 	0.9771	0.86205	0.93739	-0.298
Mof_O 	O 	0.9967	0.49919	0.08977	-0.304
Mof_O 	O 	0.7807	0.97453	0.17424	-0.306
Mof_O 	O 	0.6536	0.6638	0.97703	-0.315
Mof_N 	N 	0.5739	0.90253	0.33555	-0.248
Mof_O 	O 	0.1479	0.15049	0.2114	-0.291
Mof_C 	C 	0.223	0.0517	0.96901	0.123
Mof_H 	H 	0.2009	0.098	0.9437	-0.011
Mof_C 	C 	0.993	0.74563	0.0193	-0.244
Mof_O 	O 	0.7362	0.7433	0.2014	-0.292
Mof_C 	C 	0.1895	0.9268	0.0362	0.104
Mof_H 	H 	0.1442	0.8839	0.059	-0.015
Mof_C 	C 	0.9861	0.83522	0.99352	0.392
Mof_C 	C 	0.3598	0.9819	0.00585	0.141
Mof_C 	C 	0.998	0.6973	0.98363	0.253
Mof_H 	H 	0.9976	0.7205	0.9425	-0.044
Mof_C 	C 	0.6811	0.0796	0.12703	-0.245
Mof_C 	C 	0.6631	0.2301	0.0467	0.338
Mof_C 	C 	0.695	0.9991	0.17093	0.393
Mof_C 	C 	0.9959	0.7107	0.08111	0.175
Mof_H 	H 	0.9959	0.7423	0.1055	-0.013
Mof_C 	C 	0.4128	0.9028	0.21906	0.343
Mof_O 	O 	0.7048	0.2259	0.27632	-0.3
Mof_C 	C 	0.0005	0.581	0.06882	0.302
Mof_C 	C 	0.6077	0.7141	0.3781	0.117
Mof_H 	H 	0.6595	0.7471	0.3779	-0.025
Mof_C 	C 	0.6547	0.7368	0.1258	-0.205
Mof_C 	C 	0.7652	0.1309	0.09458	0.205
Mof_H 	H 	0.8288	0.1144	0.0994	-0.037
Mof_C 	C 	0.464	0.9719	0.01104	-0.077
Mof_H 	H 	0.481	0.9208	0.032	0.069
Mof_C 	C 	0.5889	0.1045	0.11853	0.193
Mof_H 	H 	0.5328	0.0707	0.14	-0.023
Mof_C 	C 	0.7534	0.2062	0.0553	-0.354
Mof_H 	H 	0.8092	0.2406	0.0345	0.161
Mof_C 	C 	0.3221	0.0496	0.96964	-0.199
Mof_H 	H 	0.3647	0.0937	0.9457	0.116
Mof_C 	C 	0.5774	0.1802	0.0779	-0.321
Mof_H 	H 	0.5145	0.1969	0.0719	0.146
Mof_C 	C 	0.9989	0.6276	0.10519	-0.287
Mof_H 	H 	0.9998	0.6035	0.1462	0.134
Mof_C 	C 	0.0436	0.3223	0.1583	0.44
Mof_C 	C 	0.6102	0.5599	0.9429	-0.391
Mof_C 	C 	0.5663	0.7302	0.11015	0.149
Mof_H 	H 	0.5082	0.7433	0.1328	-0.005
Mof_C 	C 	0.6621	0.7623	0.1784	0.374
Mof_C 	C 	0.7297	0.3581	0.9745	0.282
Mof_H 	H 	0.7731	0.337	0.9459	-0.053
Mof_H 	H 	0.768	0.3664	0.002	-0.073
Mof_C 	C 	0.288	0.9187	0.03994	-0.18
Mof_H 	H 	0.3076	0.8713	0.0651	0.095
Mof_C 	C 	0.9846	0.459	0.1539	0.271
Mof_H 	H 	0.9287	0.4797	0.1763	-0.052
Mof_H 	H 	0.0446	0.4671	0.167	-0.071
Mof_C 	C 	0.9652	0.3705	0.16532	-0.368
Mof_C 	C 	0.213	0.0905	0.208	0.283
Mof_C 	C 	0.5718	0.6147	0.9788	0.252
Mof_H 	H 	0.5211	0.6478	0.9613	-0.035
Mof_H 	H 	0.5419	0.5834	0.0207	-0.045
Mof_C 	C 	0.0035	0.6158	0.0077	-0.403
Mof_H 	H 	0.0093	0.5844	0.9827	0.186
Mof_C 	C 	0.6498	0.6886	0.0253	0.291
Mof_C 	C 	0.7422	0.2244	0.2157	0.254
Mof_H 	H 	0.7031	0.2574	0.1881	-0.061
Mof_H 	H 	0.7395	0.1702	0.2148	-0.055
Mof_C 	C 	0.6883	0.436	0.941	-0.401
Mof_C 	C 	0.3423	0.9673	0.21423	-0.15
Mof_C 	C 	0.5993	0.5747	0.8847	0.432
Mof_C 	C 	0.1095	0.1884	0.1569	0.221
Mof_H 	H 	0.0854	0.148	0.1433	-0.027
Mof_H 	H 	0.1622	0.2211	0.1244	-0.04
Mof_C 	C 	0.2404	0.053	0.2627	-0.286
Mof_H 	H 	0.2151	0.0682	0.2967	0.156
Mof_C 	C 	0.6262	0.5206	0.854	-0.387
Mof_C 	C 	0.0248	0.2401	0.17221	-0.396
Mof_C 	C 	0.8493	0.2573	0.1976	-0.393
Mof_C 	C 	0.3077	0.9909	0.26558	0.151
Mof_H 	H 	0.3291	0.9657	0.3014	0.004
Mof_C 	C 	0.4905	0.6864	0.3327	0.121
Mof_H 	H 	0.4598	0.7006	0.2997	-0.004
Mof_C 	C 	0.6581	0.4901	0.9719	0.489
Mof_C 	C 	0.4936	0.8852	0.3814	0.132
Mof_H 	H 	0.4453	0.8492	0.3817	-0.009
Mof_C 	C 	0.5816	0.6412	0.4267	-0.186
Mof_H 	H 	0.6128	0.6289	0.4593	0.111
Mof_C 	C 	0.5132	0.59	0.4264	0.157
Mof_C 	C 	0.5523	0.9676	0.429	0.176
Mof_C 	C 	0.6722	0.4495	0.8829	0.457
Mof_C 	C 	0.2465	0.0684	0.1579	-0.261
Mof_H 	H 	0.2256	0.0944	0.122	0.125
Mof_C 	C 	0.5546	0.6538	0.8518	-0.922
Mof_H 	H 	0.5626	0.6928	0.8707	0.31
Mof_H 	H 	0.4848	0.6445	0.8547	0.297
Mof_H 	H 	0.5888	0.6732	0.8097	0.307
Mof_C 	C 	0.482	0.5144	0.4755	-0.077
Mof_H 	H 	0.4316	0.4837	0.4716	0.068
Mof_C 	C 	0.7405	0.724	0.0894	0.163
Mof_H 	H 	0.8018	0.7328	0.0975	-0.009
Mof_C 	C 	0.7792	0.3941	0.1848	-0.945
Mof_H 	H 	0.778	0.4155	0.2171	0.321
Mof_H 	H 	0.7179	0.3638	0.1927	0.317
Mof_H 	H 	0.7865	0.4372	0.1468	0.307
Mof_C 	C 	0.3125	0.0061	0.1606	0.078
Mof_H 	H 	0.3361	0.991	0.1263	0.029
Mof_C 	C 	0.9279	0.2076	0.19505	0.515
Mof_C 	C 	0.5591	0.7042	0.0604	-0.273
Mof_H 	H 	0.4977	0.6978	0.0515	0.134
Mof_C 	C 	0.8678	0.3394	0.1814	0.451
Mof_C 	C 	0.7386	0.698	0.0403	-0.294
Mof_H 	H 	0.7981	0.6871	0.0176	0.139
Mof_C 	C 	0.4768	0.9158	0.4273	-0.203
Mof_H 	H 	0.4176	0.9033	0.457	0.11
Mof_C 	C 	0.6771	0.4778	0.0337	-1.049
Mof_H 	H 	0.7154	0.523	0.0325	0.344
Mof_H 	H 	0.7135	0.4302	0.0459	0.341
Mof_H 	H 	0.6144	0.4721	0.0625	0.341
Mof_C 	C 	0.6445	0.9516	0.3378	0.106
Mof_H 	H 	0.7029	0.9633	0.3075	-0.019
Mof_C 	C 	0.461	0.6135	0.379	-0.184
Mof_H 	H 	0.4087	0.5815	0.3786	0.1
Mof_C 	C 	0.5429	0.171	0.2774	-0.306
Mof_H 	H 	0.5627	0.1692	0.2379	0.135
Mof_C 	C 	0.1517	0.3557	0.1388	-0.965
Mof_H 	H 	0.1549	0.4099	0.1117	0.324
Mof_H 	H 	0.1927	0.3237	0.1181	0.333
Mof_H 	H 	0.1756	0.3543	0.1741	0.321
Mof_C 	C 	0.9097	0.1173	0.2159	-1.063
Mof_H 	H 	0.9202	0.1	0.181	0.37
Mof_H 	H 	0.8421	0.1032	0.2389	0.356
Mof_H 	H 	0.9552	0.0918	0.2411	0.365
Mof_C 	C 	0.5766	0.2114	0.3591	-0.259
Mof_H 	H 	0.6198	0.235	0.3744	0.124
Mof_C 	C 	0.6341	0.9858	0.3838	-0.176
Mof_H 	H 	0.6838	0.021	0.3829	0.086
Mof_C 	C 	0.7036	0.3868	0.8526	-0.991
Mof_H 	H 	0.7752	0.3861	0.8429	0.327
Mof_H 	H 	0.6789	0.3994	0.816	0.337
Mof_H 	H 	0.6764	0.3351	0.88	0.333
Mof_C 	C 	0.4507	0.1436	0.3113	0.158
Mof_H 	H 	0.4096	0.117	0.2968	-0.01
Mof_C 	C 	0.5419	0.0045	0.4774	-0.156
Mof_H 	H 	0.5957	0.0356	0.477	0.084
Mof_C 	C 	0.6067	0.2015	0.3023	0.292
Mof_C 	C 	0.4772	0.1842	0.3931	0.13
Mof_H 	H 	0.4559	0.1872	0.4321	-0.001
Mof_C 	C 	0.4151	0.1546	0.3687	-0.181
Mof_O 	O 	0.2677	0.0653	0.3935	-0.465
Mof_H 	H 	0.227	0.0376	0.4234	0.261
Mof_O 	O 	0.2944	0.1365	0.4585	-0.251
Mof_C 	C 	0.3216	0.1128	0.4101	0.332
Mof_O 	O 	0.5239	0.4964	0.7966	-0.294
Mof_C 	C 	0.6186	0.5341	0.7919	0.264
Mof_H 	H 	0.6732	0.5103	0.7712	-0.06
Mof_H 	H 	0.6202	0.5909	0.7696	-0.06
Mof_C 	C 	0.4004	0.4843	0.7459	-0.245
Mof_H 	H 	0.3676	0.4458	0.7819	0.127
Mof_C 	C 	0.3559	0.5096	0.696	0.102
Mof_H 	H 	0.2934	0.488	0.6985	0.009
Mof_C 	C 	0.4049	0.5672	0.6423	-0.13
Mof_C 	C 	0.4983	0.5994	0.6386	0.098
Mof_H 	H 	0.5311	0.6379	0.6026	0.006
Mof_C 	C 	0.5428	0.5741	0.6885	-0.245
Mof_H 	H 	0.6053	0.5957	0.6859	0.119
Mof_C 	C 	0.4938	0.5165	0.7422	0.26
Mof_O 	O 	0.2842	0.5583	0.5923	-0.221
Mof_O 	O 	0.4176	0.673	0.5422	-0.411
Mof_H 	H 	0.4226	0.7086	0.5564	0.239
Mof_C 	C 	0.3585	0.6081	0.5872	0.275
Mof_Ni	Ni	0.40721	0.15025	0.73224	1.092
Mof_O 	O 	0.00893	0.12327	0.97462	-0.419
Mof_O 	O 	0.3855	0.03967	0.79667	-0.398
Mof_O 	O 	0.5599	0.13115	0.73336	-0.382
Mof_O 	O 	0.407	0.20052	0.80008	-0.382
Mof_N 	N 	0.8439	0.00684	0.99839	-0.246
Mof_O 	O 	0.3549	0.69654	0.9917	-0.292
Mof_N 	N 	0.44	0.26366	0.66685	-0.249
Mof_O 	O 	0.5517	0.11432	0.83164	-0.242
Mof_O 	O 	0.0229	0.13795	0.06261	-0.301
Mof_O 	O 	0.0033	0.50081	0.91023	-0.317
Mof_O 	O 	0.2193	0.02547	0.82576	-0.312
Mof_O 	O 	0.3464	0.3362	0.02297	-0.322
Mof_N 	N 	0.4261	0.09747	0.66445	-0.247
Mof_O 	O 	0.8521	0.84951	0.7886	-0.284
Mof_C 	C 	0.777	0.9483	0.03099	0.132
Mof_H 	H 	0.7991	0.902	0.0563	-0.012
Mof_C 	C 	0.007	0.25437	0.9807	-0.131
Mof_O 	O 	0.2638	0.2567	0.7986	-0.298
Mof_C 	C 	0.8105	0.0732	0.9638	0.102
Mof_H 	H 	0.8558	0.1161	0.941	-0.004
Mof_C 	C 	0.0139	0.16478	0.00648	0.317
Mof_C 	C 	0.6402	0.0181	0.99415	0.134
Mof_C 	C 	0.002	0.3027	0.01637	0.042
Mof_H 	H 	0.0024	0.2795	0.0575	0.016
Mof_C 	C 	0.3189	0.9204	0.87297	-0.186
Mof_C 	C 	0.3369	0.7699	0.9533	0.307
Mof_C 	C 	0.305	0.0009	0.82907	0.353
Mof_C 	C 	0.0041	0.2893	0.91889	0.112
Mof_H 	H 	0.0041	0.2577	0.8945	0
Mof_C 	C 	0.5872	0.0972	0.78094	0.368
Mof_O 	O 	0.2952	0.7741	0.72368	-0.297
Mof_C 	C 	0.9995	0.419	0.93118	0.299
Mof_C 	C 	0.3923	0.2859	0.6219	0.117
Mof_H 	H 	0.3405	0.2529	0.6221	-0.029
Mof_C 	C 	0.3453	0.2632	0.8742	-0.215
Mof_C 	C 	0.2348	0.8691	0.90542	0.166
Mof_H 	H 	0.1712	0.8856	0.9006	-0.024
Mof_C 	C 	0.536	0.0281	0.98896	-0.094
Mof_H 	H 	0.519	0.0792	0.968	0.075
Mof_C 	C 	0.4111	0.8955	0.88147	0.154
Mof_H 	H 	0.4672	0.9293	0.86	0.001
Mof_C 	C 	0.2466	0.7938	0.9447	-0.315
Mof_H 	H 	0.1908	0.7594	0.9655	0.143
Mof_C 	C 	0.6779	0.9504	0.03036	-0.187
Mof_H 	H 	0.6353	0.9063	0.0543	0.113
Mof_C 	C 	0.4226	0.8198	0.9221	-0.284
Mof_H 	H 	0.4855	0.8031	0.9281	0.137
Mof_C 	C 	0.0011	0.3724	0.89481	-0.285
Mof_H 	H 	0.0002	0.3965	0.8538	0.122
Mof_C 	C 	0.9564	0.6777	0.8417	0.468
Mof_C 	C 	0.3898	0.4401	0.0571	-0.347
Mof_C 	C 	0.4337	0.2698	0.88985	0.161
Mof_H 	H 	0.4918	0.2567	0.8672	-0.008
Mof_C 	C 	0.3379	0.2377	0.8216	0.378
Mof_C 	C 	0.2703	0.6419	0.0255	0.188
Mof_H 	H 	0.2269	0.663	0.0541	-0.033
Mof_H 	H 	0.232	0.6336	0.998	-0.034
Mof_C 	C 	0.712	0.0813	0.96006	-0.176
Mof_H 	H 	0.6924	0.1287	0.9349	0.096
Mof_C 	C 	0.0154	0.541	0.8461	0.204
Mof_H 	H 	0.0713	0.5203	0.8237	-0.036
Mof_H 	H 	0.9554	0.5329	0.833	-0.024
Mof_C 	C 	0.0348	0.6295	0.83468	-0.388
Mof_C 	C 	0.787	0.9095	0.792	0.312
Mof_C 	C 	0.4282	0.3853	0.0212	0.193
Mof_H 	H 	0.4789	0.3522	0.0387	-0.021
Mof_H 	H 	0.4581	0.4166	0.9793	-0.016
Mof_C 	C 	0.9965	0.3842	0.9923	-0.211
Mof_H 	H 	0.9907	0.4156	0.0173	0.12
Mof_C 	C 	0.3502	0.3114	0.9747	0.317
Mof_C 	C 	0.2578	0.7756	0.7843	0.238
Mof_H 	H 	0.2969	0.7426	0.8119	-0.056
Mof_H 	H 	0.2605	0.8298	0.7852	-0.047
Mof_C 	C 	0.3117	0.564	0.059	-0.348
Mof_C 	C 	0.6577	0.0327	0.78577	-0.226
Mof_C 	C 	0.4007	0.4253	0.1153	0.399
Mof_C 	C 	0.8905	0.8116	0.8431	0.198
Mof_H 	H 	0.9146	0.852	0.8567	-0.009
Mof_H 	H 	0.8378	0.7789	0.8756	-0.032
Mof_C 	C 	0.7596	0.947	0.7373	-0.271
Mof_H 	H 	0.7849	0.9318	0.7033	0.161
Mof_C 	C 	0.3738	0.4794	0.146	-0.359
Mof_C 	C 	0.9752	0.7599	0.82779	-0.341
Mof_C 	C 	0.1507	0.7427	0.8024	-0.37
Mof_C 	C 	0.6923	0.0091	0.73442	0.148
Mof_H 	H 	0.6709	0.0343	0.6986	-0.002
Mof_C 	C 	0.5095	0.3136	0.6673	0.122
Mof_H 	H 	0.5402	0.2994	0.7003	-0.003
Mof_C 	C 	0.3419	0.5099	0.0281	0.417
Mof_C 	C 	0.5064	0.1148	0.6186	0.114
Mof_H 	H 	0.5547	0.1508	0.6183	-0.003
Mof_C 	C 	0.4184	0.3588	0.5733	-0.188
Mof_H 	H 	0.3872	0.3711	0.5407	0.11
Mof_C 	C 	0.4868	0.41	0.5736	0.159
Mof_C 	C 	0.4477	0.0324	0.571	0.117
Mof_C 	C 	0.3278	0.5505	0.1171	0.417
Mof_C 	C 	0.7535	0.9316	0.8421	-0.327
Mof_H 	H 	0.7744	0.9056	0.878	0.156
Mof_C 	C 	0.4454	0.3462	0.1482	-0.888
Mof_H 	H 	0.4374	0.3072	0.1293	0.299
Mof_H 	H 	0.5152	0.3555	0.1453	0.286
Mof_H 	H 	0.4112	0.3268	0.1903	0.296
Mof_C 	C 	0.518	0.4856	0.5245	-0.08
Mof_H 	H 	0.5684	0.5163	0.5284	0.07
Mof_C 	C 	0.2595	0.276	0.9106	0.176
Mof_H 	H 	0.1982	0.2672	0.9025	-0.014
Mof_C 	C 	0.2208	0.6059	0.8152	-0.933
Mof_H 	H 	0.222	0.5845	0.7829	0.316
Mof_H 	H 	0.2821	0.6362	0.8073	0.313
Mof_H 	H 	0.2135	0.5628	0.8532	0.304
Mof_C 	C 	0.6875	0.9939	0.8394	0.224
Mof_H 	H 	0.6639	0.009	0.8737	-0.039
Mof_C 	C 	0.0721	0.7924	0.80495	0.448
Mof_C 	C 	0.4409	0.2958	0.9396	-0.287
Mof_H 	H 	0.5023	0.3022	0.9485	0.143
Mof_C 	C 	0.1322	0.6606	0.8186	0.44
Mof_C 	C 	0.2614	0.302	0.9597	-0.31
Mof_H 	H 	0.2019	0.3129	0.9824	0.149
Mof_C 	C 	0.5232	0.0842	0.5727	-0.173
Mof_H 	H 	0.5824	0.0967	0.543	0.093
Mof_C 	C 	0.3229	0.5222	0.9663	-0.941
Mof_H 	H 	0.2846	0.477	0.9675	0.315
Mof_H 	H 	0.2865	0.5698	0.9541	0.309
Mof_H 	H 	0.3856	0.5279	0.9375	0.31
Mof_C 	C 	0.3555	0.0484	0.6622	0.114
Mof_H 	H 	0.2971	0.0367	0.6925	-0.032
Mof_C 	C 	0.539	0.3865	0.621	-0.185
Mof_H 	H 	0.5913	0.4185	0.6214	0.103
Mof_C 	C 	0.4571	0.829	0.7226	-0.301
Mof_H 	H 	0.4373	0.8308	0.7621	0.136
Mof_C 	C 	0.8483	0.6443	0.8612	-0.992
Mof_H 	H 	0.8451	0.5901	0.8883	0.339
Mof_H 	H 	0.8073	0.6763	0.8819	0.342
Mof_H 	H 	0.8244	0.6457	0.8259	0.332
Mof_C 	C 	0.0903	0.8827	0.7841	-0.998
Mof_H 	H 	0.0798	0.9	0.819	0.346
Mof_H 	H 	0.1579	0.8968	0.7611	0.34
Mof_H 	H 	0.0448	0.9082	0.7589	0.338
Mof_C 	C 	0.4234	0.7886	0.6409	-0.255
Mof_H 	H 	0.3802	0.765	0.6256	0.123
Mof_C 	C 	0.3659	0.0142	0.6162	-0.209
Mof_H 	H 	0.3162	0.979	0.6171	0.116
Mof_C 	C 	0.2964	0.6132	0.1474	-0.938
Mof_H 	H 	0.2248	0.6139	0.1571	0.304
Mof_H 	H 	0.3211	0.6006	0.184	0.319
Mof_H 	H 	0.3236	0.6649	0.12	0.315
Mof_C 	C 	0.5493	0.8564	0.6887	0.159
Mof_H 	H 	0.5904	0.883	0.7032	-0.004
Mof_C 	C 	0.4581	0.9955	0.5226	-0.022
Mof_H 	H 	0.4043	0.9644	0.523	0.045
Mof_C 	C 	0.3933	0.7985	0.6977	0.29
Mof_C 	C 	0.5228	0.8158	0.6069	0.129
Mof_H 	H 	0.5441	0.8128	0.5679	0.001
Mof_C 	C 	0.5849	0.8454	0.6313	-0.177
Mof_O 	O 	0.7323	0.9347	0.6065	-0.46
Mof_H 	H 	0.773	0.9624	0.5766	0.273
Mof_O 	O 	0.7056	0.8635	0.5415	-0.242
Mof_C 	C 	0.6784	0.8872	0.5899	0.337
Mof_O 	O 	0.4761	0.5036	0.2034	-0.291
Mof_C 	C 	0.3814	0.4659	0.2081	0.247
Mof_H 	H 	0.3268	0.4897	0.2288	-0.056
Mof_H 	H 	0.3798	0.4091	0.2304	-0.056
Mof_C 	C 	0.5996	0.5157	0.2541	-0.242
Mof_H 	H 	0.6324	0.5542	0.2181	0.126
Mof_C 	C 	0.6441	0.4904	0.304	0.1
Mof_H 	H 	0.7066	0.512	0.3015	0.012
Mof_C 	C 	0.5951	0.4328	0.3577	-0.128
Mof_C 	C 	0.5017	0.4006	0.3614	0.096
Mof_H 	H 	0.4689	0.3621	0.3974	0.006
Mof_C 	C 	0.4572	0.4259	0.3115	-0.242
Mof_H 	H 	0.3947	0.4043	0.3141	0.116
Mof_C 	C 	0.5062	0.4835	0.2578	0.257
Mof_O 	O 	0.7158	0.4417	0.4077	-0.215
Mof_O 	O 	0.5824	0.327	0.4578	-0.41
Mof_H 	H 	0.5774	0.2914	0.4436	0.238
Mof_C 	C 	0.6415	0.3919	0.4128	0.275
Mof_Ni	Ni	-0	0	-0	1.038
_end
