data_functionalizedCrystal
_audit_creation_method	'EQeq! by Chris Wilmer'
_symmetry_space_group_name_H-M	'P1'
_symmetry_Int_Tables_number	1
_symmetry_cell_setting	triclinic
loop_
_symmetry_equiv_pos_as_xyz
  x,y,z
_cell_length_a	12.8688
_cell_length_b	18.0925
_cell_length_c	14.519
_cell_angle_alpha	90
_cell_angle_beta	116.053
_cell_angle_gamma	90
loop_
_atom_site_label
_atom_site_type_symbol
_atom_site_fract_x
_atom_site_fract_y
_atom_site_fract_z
_atom_site_charge
Mof_Cd	Cd	0.1094	0.27123	0.55718	0.412
Mof_O 	O 	0.126	0.31981	0.4202	-0.261
Mof_O 	O 	0.37023	0.63544	0.46204	-0.247
Mof_N 	N 	0.7166	0.60564	0.3323	-0.047
Mof_N 	N 	0.6932	0.53577	0.3098	-0.07
Mof_N 	N 	0.8301	0.61623	0.3598	-0.114
Mof_O 	O 	0.3014	0.36171	0.4518	-0.22
Mof_N 	N 	0.7892	0.49871	0.322	-0.087
Mof_C 	C 	0.9938	0.5357	0.3751	0.028
Mof_C 	C 	0.8717	0.5496	0.3522	0.108
Mof_C 	C 	0.1519	0.4494	0.412	-0.027
Mof_C 	C 	0.1837	0.5809	0.4073	-0.035
Mof_C 	C 	0.0365	0.4633	0.3889	-0.077
Mof_H 	H 	0.9873	0.4239	0.3826	0.088
Mof_C 	C 	0.0671	0.5939	0.3824	-0.056
Mof_H 	H 	0.0386	0.642	0.3706	0.059
Mof_C 	C 	0.2613	0.6451	0.418	0.28
Mof_C 	C 	0.1962	0.371	0.4291	0.289
Mof_C 	C 	0.2252	0.5085	0.4222	-0.018
Mof_H 	H 	0.3027	0.4997	0.439	0.068
Mof_O 	O 	0.2184	0.7075	0.38553	-0.259
Mof_Cd	Cd	0.6094	0.77123	0.05718	0.418
Mof_O 	O 	0.626	0.81981	0.9202	-0.259
Mof_O 	O 	0.87023	0.13544	0.96204	-0.245
Mof_N 	N 	0.2166	0.10564	0.8323	-0.047
Mof_N 	N 	0.1932	0.03577	0.8098	-0.072
Mof_N 	N 	0.3301	0.11623	0.8598	-0.117
Mof_O 	O 	0.8014	0.86171	0.9518	-0.219
Mof_N 	N 	0.2892	0.99871	0.822	-0.089
Mof_C 	C 	0.4938	0.0357	0.8751	-0.018
Mof_C 	C 	0.3717	0.0496	0.8522	0.119
Mof_C 	C 	0.6519	0.9494	0.912	-0.049
Mof_C 	C 	0.6837	0.0809	0.9073	-0.052
Mof_C 	C 	0.5365	0.9633	0.8889	-0.02
Mof_H 	H 	0.4873	0.9239	0.8826	0.061
Mof_C 	C 	0.5671	0.0939	0.8824	-0.02
Mof_H 	H 	0.5386	0.142	0.8706	0.05
Mof_C 	C 	0.7613	0.1451	0.918	0.286
Mof_C 	C 	0.6962	0.871	0.9291	0.297
Mof_C 	C 	0.7252	0.0085	0.9222	-0.002
Mof_H 	H 	0.8027	0.9997	0.939	0.066
Mof_O 	O 	0.7184	0.2075	0.88553	-0.26
Mof_Cd	Cd	0.8906	0.27123	0.94282	0.42
Mof_O 	O 	0.874	0.31981	0.0798	-0.258
Mof_O 	O 	0.62977	0.63544	0.03796	-0.249
Mof_N 	N 	0.2834	0.60564	0.1677	-0.046
Mof_N 	N 	0.3068	0.53577	0.1902	-0.071
Mof_N 	N 	0.1699	0.61623	0.1402	-0.12
Mof_O 	O 	0.6986	0.36171	0.0482	-0.223
Mof_N 	N 	0.2108	0.49871	0.178	-0.092
Mof_C 	C 	0.0062	0.5357	0.1249	-0.065
Mof_C 	C 	0.1283	0.5496	0.1478	0.134
Mof_C 	C 	0.8481	0.4494	0.088	-0.078
Mof_C 	C 	0.8163	0.5809	0.0927	-0.075
Mof_C 	C 	0.9635	0.4633	0.1111	0.038
Mof_H 	H 	0.0127	0.4239	0.1174	0.035
Mof_C 	C 	0.9329	0.5939	0.1176	0.02
Mof_H 	H 	0.9614	0.642	0.1294	0.041
Mof_C 	C 	0.7387	0.6451	0.082	0.295
Mof_C 	C 	0.8038	0.371	0.0709	0.309
Mof_C 	C 	0.7748	0.5085	0.0778	0.027
Mof_H 	H 	0.6973	0.4997	0.061	0.054
Mof_O 	O 	0.7816	0.7075	0.11447	-0.26
Mof_Cd	Cd	0.3906	0.77123	0.44282	0.417
Mof_O 	O 	0.374	0.81981	0.5798	-0.26
Mof_O 	O 	0.12977	0.13544	0.53796	-0.25
Mof_N 	N 	0.7834	0.10564	0.6677	-0.045
Mof_N 	N 	0.8068	0.03577	0.6902	-0.068
Mof_N 	N 	0.6699	0.11623	0.6402	-0.116
Mof_O 	O 	0.1986	0.86171	0.5482	-0.224
Mof_N 	N 	0.7108	0.99871	0.678	-0.089
Mof_C 	C 	0.5062	0.0357	0.6249	-0.019
Mof_C 	C 	0.6283	0.0496	0.6478	0.121
Mof_C 	C 	0.3481	0.9494	0.588	-0.052
Mof_C 	C 	0.3163	0.0809	0.5927	-0.055
Mof_C 	C 	0.4635	0.9633	0.6111	-0.019
Mof_H 	H 	0.5127	0.9239	0.6174	0.061
Mof_C 	C 	0.4329	0.0939	0.6176	-0.019
Mof_H 	H 	0.4614	0.142	0.6294	0.049
Mof_C 	C 	0.2387	0.1451	0.582	0.288
Mof_C 	C 	0.3038	0.871	0.5709	0.299
Mof_C 	C 	0.2748	0.0085	0.5778	0.003
Mof_H 	H 	0.1973	0.9997	0.561	0.061
Mof_O 	O 	0.2816	0.2075	0.61447	-0.26
Mof_Cd	Cd	0.8906	0.72877	0.44282	0.422
Mof_O 	O 	0.874	0.68019	0.5798	-0.259
Mof_O 	O 	0.62977	0.36456	0.53796	-0.25
Mof_N 	N 	0.2834	0.39436	0.6677	-0.046
Mof_N 	N 	0.3068	0.46423	0.6902	-0.071
Mof_N 	N 	0.1699	0.38377	0.6402	-0.119
Mof_O 	O 	0.6986	0.63829	0.5482	-0.224
Mof_N 	N 	0.2108	0.50129	0.678	-0.092
Mof_C 	C 	0.0062	0.4643	0.6249	-0.063
Mof_C 	C 	0.1283	0.4504	0.6478	0.133
Mof_C 	C 	0.8481	0.5506	0.588	-0.077
Mof_C 	C 	0.8163	0.4191	0.5927	-0.074
Mof_C 	C 	0.9635	0.5367	0.6111	0.035
Mof_H 	H 	0.0127	0.5761	0.6174	0.036
Mof_C 	C 	0.9329	0.4061	0.6176	0.018
Mof_H 	H 	0.9614	0.358	0.6294	0.041
Mof_C 	C 	0.7387	0.3549	0.582	0.294
Mof_C 	C 	0.8038	0.629	0.5709	0.308
Mof_C 	C 	0.7748	0.4915	0.5778	0.026
Mof_H 	H 	0.6973	0.5003	0.561	0.054
Mof_O 	O 	0.7816	0.2925	0.61447	-0.26
Mof_Cd	Cd	0.3906	0.22877	0.94282	0.416
Mof_O 	O 	0.374	0.18019	0.0798	-0.258
Mof_O 	O 	0.12977	0.86456	0.03796	-0.25
Mof_N 	N 	0.7834	0.89436	0.1677	-0.045
Mof_N 	N 	0.8068	0.96423	0.1902	-0.068
Mof_N 	N 	0.6699	0.88377	0.1402	-0.116
Mof_O 	O 	0.1986	0.13829	0.0482	-0.223
Mof_N 	N 	0.7108	0.00129	0.178	-0.087
Mof_C 	C 	0.5062	0.9643	0.1249	-0.019
Mof_C 	C 	0.6283	0.9504	0.1478	0.12
Mof_C 	C 	0.3481	0.0506	0.088	-0.049
Mof_C 	C 	0.3163	0.9191	0.0927	-0.054
Mof_C 	C 	0.4635	0.0367	0.1111	-0.019
Mof_H 	H 	0.5127	0.0761	0.1174	0.062
Mof_C 	C 	0.4329	0.9061	0.1176	-0.019
Mof_H 	H 	0.4614	0.858	0.1294	0.05
Mof_C 	C 	0.2387	0.8549	0.082	0.287
Mof_C 	C 	0.3038	0.129	0.0709	0.298
Mof_C 	C 	0.2748	0.9915	0.0778	-0.001
Mof_H 	H 	0.1973	0.0003	0.061	0.063
Mof_O 	O 	0.2816	0.7925	0.11447	-0.26
Mof_Cd	Cd	0.1094	0.72877	0.05718	0.414
Mof_O 	O 	0.126	0.68019	0.9202	-0.26
Mof_O 	O 	0.37023	0.36456	0.96204	-0.247
Mof_N 	N 	0.7166	0.39436	0.8323	-0.047
Mof_N 	N 	0.6932	0.46423	0.8098	-0.071
Mof_N 	N 	0.8301	0.38377	0.8598	-0.114
Mof_O 	O 	0.3014	0.63829	0.9518	-0.22
Mof_N 	N 	0.7892	0.50129	0.822	-0.087
Mof_C 	C 	0.9938	0.4643	0.8751	0.024
Mof_C 	C 	0.8717	0.4504	0.8522	0.109
Mof_C 	C 	0.1519	0.5506	0.912	-0.029
Mof_C 	C 	0.1837	0.4191	0.9073	-0.037
Mof_C 	C 	0.0365	0.5367	0.8889	-0.072
Mof_H 	H 	0.9873	0.5761	0.8826	0.085
Mof_C 	C 	0.0671	0.4061	0.8824	-0.053
Mof_H 	H 	0.0386	0.358	0.8706	0.058
Mof_C 	C 	0.2613	0.3549	0.918	0.281
Mof_C 	C 	0.1962	0.629	0.9291	0.29
Mof_C 	C 	0.2252	0.4915	0.9222	-0.016
Mof_H 	H 	0.3027	0.5003	0.939	0.067
Mof_O 	O 	0.2184	0.2925	0.88553	-0.26
Mof_Cd	Cd	0.6094	0.22877	0.55718	0.418
Mof_O 	O 	0.626	0.18019	0.4202	-0.259
Mof_O 	O 	0.87023	0.86456	0.46204	-0.244
Mof_N 	N 	0.2166	0.89436	0.3323	-0.047
Mof_N 	N 	0.1932	0.96423	0.3098	-0.071
Mof_N 	N 	0.3301	0.88377	0.3598	-0.117
Mof_O 	O 	0.8014	0.13829	0.4518	-0.218
Mof_N 	N 	0.2892	0.00129	0.322	-0.089
Mof_C 	C 	0.4938	0.9643	0.3751	-0.018
Mof_C 	C 	0.3717	0.9504	0.3522	0.12
Mof_C 	C 	0.6519	0.0506	0.412	-0.05
Mof_C 	C 	0.6837	0.9191	0.4073	-0.053
Mof_C 	C 	0.5365	0.0367	0.3889	-0.02
Mof_H 	H 	0.4873	0.0761	0.3826	0.061
Mof_C 	C 	0.5671	0.9061	0.3824	-0.02
Mof_H 	H 	0.5386	0.858	0.3706	0.05
Mof_C 	C 	0.7613	0.8549	0.418	0.286
Mof_C 	C 	0.6962	0.129	0.4291	0.298
Mof_C 	C 	0.7252	0.9915	0.4222	0.001
Mof_H 	H 	0.8027	0.0003	0.439	0.065
Mof_O 	O 	0.7184	0.7925	0.38553	-0.259
Mof_Cd	Cd	0.5	0.50328	0.25	0.352
Mof_Cd	Cd	7.48691e-17	0.00328	0.75	0.343
Mof_Cd	Cd	0.5	0.49672	0.75	0.351
Mof_Cd	Cd	1.52203e-33	0.99672	0.25	0.344
_end
