data_functionalizedCrystal
_audit_creation_method	'EQeq! by Chris Wilmer'
_symmetry_space_group_name_H-M	'P1'
_symmetry_Int_Tables_number	1
_symmetry_cell_setting	triclinic
loop_
_symmetry_equiv_pos_as_xyz
  x,y,z
_cell_length_a	10.886
_cell_length_b	11.4737
_cell_length_c	13.4734
_cell_angle_alpha	69.544
_cell_angle_beta	80.149
_cell_angle_gamma	62.652
loop_
_atom_site_label
_atom_site_type_symbol
_atom_site_fract_x
_atom_site_fract_y
_atom_site_fract_z
_atom_site_charge
Mof_U 	U 	0.63171	0.70253	0.83336	-0.007
Mof_Pr	Pr	0.61975	0.21572	0.77469	1.765
Mof_O 	O 	0.8581	0.5295	0.9056	-0.205
Mof_O 	O 	0.7743	0.4842	0.7948	-0.223
Mof_O 	O 	0.8528	0.2075	0.7611	-0.503
Mof_O 	O 	0.8999	0.3557	0.6226	-0.239
Mof_O 	O 	0.427	0.9089	0.8274	-0.231
Mof_O 	O 	0.5151	0.0606	0.7748	-0.458
Mof_O 	O 	0.4756	0.175	0.9315	-0.478
Mof_O 	O 	0.3124	0.2133	0.0545	-0.233
Mof_O 	O 	0.508	0.691	0.7128	-0.21
Mof_O 	O 	0.4284	0.6962	0.5697	-0.291
Mof_O 	O 	0.7391	0.6317	0.535	-0.209
Mof_O 	O 	0.8583	0.7512	0.4772	-0.206
Mof_C 	C 	0.0093	0.337	0.8449	-0.031
Mof_C 	C 	0.1166	0.3116	0.9041	-0.024
Mof_H 	H 	0.0979	0.3616	0.9507	0.068
Mof_C 	C 	0.2511	0.2139	0.8961	-0.085
Mof_C 	C 	0.2774	0.1355	0.8271	-0.093
Mof_C 	C 	0.1674	0.1555	0.7744	0.02
Mof_H 	H 	0.1834	0.0991	0.7336	0.04
Mof_C 	C 	0.0323	0.2578	0.78	-0.075
Mof_C 	C 	0.6205	0.002	0.4515	-0.014
Mof_H 	H 	0.7025	0.0032	0.4187	0.052
Mof_C 	C 	0.6169	0.8755	0.5041	-0.042
Mof_C 	C 	0.4936	0.8739	0.5538	-0.041
Mof_C 	C 	0.8718	0.4546	0.8496	0.272
Mof_C 	C 	0.3561	0.1983	0.9632	0.356
Mof_C 	C 	0.4184	0.0292	0.8082	0.373
Mof_C 	C 	0.9186	0.2765	0.7172	0.383
Mof_C 	C 	0.4777	0.7443	0.6144	0.289
Mof_C 	C 	0.7441	0.7451	0.5063	0.278
Mof_U 	U 	0.36829	0.29747	0.16664	-0.006
Mof_Pr	Pr	0.38025	0.78428	0.22531	1.766
Mof_O 	O 	0.1419	0.4705	0.0944	-0.204
Mof_O 	O 	0.2257	0.5158	0.2052	-0.223
Mof_O 	O 	0.1472	0.7925	0.2389	-0.503
Mof_O 	O 	0.1001	0.6443	0.3774	-0.239
Mof_O 	O 	0.573	0.0911	0.1726	-0.231
Mof_O 	O 	0.4849	0.9394	0.2252	-0.458
Mof_O 	O 	0.5244	0.825	0.0685	-0.478
Mof_O 	O 	0.6876	0.7867	0.9455	-0.233
Mof_O 	O 	0.492	0.309	0.2872	-0.21
Mof_O 	O 	0.5716	0.3038	0.4303	-0.291
Mof_O 	O 	0.2609	0.3683	0.465	-0.209
Mof_O 	O 	0.1417	0.2488	0.5228	-0.206
Mof_C 	C 	0.9907	0.663	0.1551	-0.03
Mof_C 	C 	0.8834	0.6884	0.0959	-0.024
Mof_H 	H 	0.9021	0.6384	0.0493	0.068
Mof_C 	C 	0.7489	0.7861	0.1039	-0.085
Mof_C 	C 	0.7226	0.8645	0.1729	-0.093
Mof_C 	C 	0.8326	0.8445	0.2256	0.02
Mof_H 	H 	0.8166	0.9009	0.2664	0.04
Mof_C 	C 	0.9677	0.7422	0.22	-0.075
Mof_C 	C 	0.3795	0.998	0.5485	-0.014
Mof_H 	H 	0.2975	0.9968	0.5813	0.052
Mof_C 	C 	0.3831	0.1245	0.4959	-0.042
Mof_C 	C 	0.5064	0.1261	0.4462	-0.041
Mof_C 	C 	0.1282	0.5454	0.1504	0.271
Mof_C 	C 	0.6439	0.8017	0.0368	0.356
Mof_C 	C 	0.5816	0.9708	0.1918	0.373
Mof_C 	C 	0.0814	0.7235	0.2828	0.383
Mof_C 	C 	0.5223	0.2557	0.3856	0.289
Mof_C 	C 	0.2559	0.2549	0.4937	0.278
Mof_U 	U 	-4.05907e-17	0.5	0.5	0.001
_end
