data_functionalizedCrystal
_audit_creation_method	'EQeq! by Chris Wilmer'
_symmetry_space_group_name_H-M	'P1'
_symmetry_Int_Tables_number	1
_symmetry_cell_setting	triclinic
loop_
_symmetry_equiv_pos_as_xyz
  x,y,z
_cell_length_a	10.175
_cell_length_b	21.481
_cell_length_c	10.493
_cell_angle_alpha	90
_cell_angle_beta	93.144
_cell_angle_gamma	90
loop_
_atom_site_label
_atom_site_type_symbol
_atom_site_fract_x
_atom_site_fract_y
_atom_site_fract_z
_atom_site_charge
Mof_Zn	Zn	0.4893	0.42656	0.3209	1.189
Mof_Zn	Zn	0.5282	0.65311	0.485	1.189
Mof_Zn	Zn	0.976	0.47007	0.0156	1.181
Mof_Zn	Zn	0.0145	0.69784	0.1835	1.198
Mof_O 	O 	0.5273	0.553	0.4202	-0.477
Mof_O 	O 	0.4706	0.46	0.4956	-0.477
Mof_O 	O 	0.9822	0.5707	0.0855	-0.454
Mof_O 	O 	0.0348	0.6634	0.019	-0.491
Mof_N 	N 	0.8455	0.4518	0.1469	-0.279
Mof_N 	N 	0.8597	0.3999	0.2236	-0.089
Mof_N 	N 	0.7514	0.3885	0.2914	-0.087
Mof_N 	N 	0.6709	0.4335	0.2554	-0.271
Mof_N 	N 	0.4566	0.3369	0.3592	-0.304
Mof_N 	N 	0.3722	0.3051	0.2815	-0.081
Mof_N 	N 	0.3733	0.2482	0.327	-0.085
Mof_N 	N 	0.4547	0.2432	0.4328	-0.29
Mof_N 	N 	0.3557	0.4504	0.1875	-0.3
Mof_N 	N 	0.3681	0.4383	0.0639	-0.084
Mof_N 	N 	0.2548	0.4506	0.9975	-0.1
Mof_N 	N 	0.1653	0.4616	0.0869	-0.299
Mof_N 	N 	0.9523	0.2885	0.8507	-0.279
Mof_N 	N 	0.863	0.3227	0.7801	-0.081
Mof_N 	N 	0.8609	0.3793	0.8223	-0.085
Mof_N 	N 	0.9506	0.384	0.9224	-0.267
Mof_N 	N 	0.8407	0.686	0.2527	-0.334
Mof_N 	N 	0.7383	0.7299	0.2236	-0.085
Mof_N 	N 	0.6407	0.7199	0.282	-0.087
Mof_N 	N 	0.6682	0.671	0.3593	-0.321
Mof_N 	N 	0.1541	0.6699	0.3132	-0.31
Mof_N 	N 	0.1314	0.6803	0.4398	-0.089
Mof_N 	N 	0.2416	0.6793	0.5024	-0.085
Mof_N 	N 	0.3384	0.6582	0.4251	-0.286
Mof_N 	N 	0.554	0.606	0.6432	-0.386
Mof_H 	H 	0.6387	0.5969	0.6566	0.091
Mof_H 	H 	0.5296	0.6292	0.7081	0.099
Mof_N 	N 	0.949	0.5239	0.849	-0.356
Mof_H 	H 	0.9877	0.5047	0.7857	0.099
Mof_H 	H 	0.8638	0.5265	0.8277	0.086
Mof_C 	C 	0.723	0.4739	0.169	0.245
Mof_C 	C 	0.656	0.5313	0.114	-0.758
Mof_H 	H 	0.57	0.535	0.1465	0.221
Mof_H 	H 	0.7073	0.5674	0.1374	0.235
Mof_H 	H 	0.6479	0.5279	0.0225	0.219
Mof_C 	C 	0.503	0.2986	0.447	0.383
Mof_C 	C 	0.597	0.3178	0.5514	-0.965
Mof_H 	H 	0.6191	0.3609	0.5414	0.292
Mof_H 	H 	0.558	0.3119	0.6317	0.302
Mof_H 	H 	0.6757	0.2931	0.5493	0.306
Mof_C 	C 	0.2249	0.4667	0.1939	0.322
Mof_C 	C 	0.159	0.4837	0.312	-0.877
Mof_H 	H 	0.2233	0.4849	0.383	0.257
Mof_H 	H 	0.1188	0.5239	0.3019	0.265
Mof_H 	H 	0.0931	0.4533	0.3288	0.267
Mof_C 	C 	0.006	0.3273	0.941	0.297
Mof_C 	C 	0.109	0.3092	0.04	-0.872
Mof_H 	H 	0.1294	0.2659	0.0306	0.266
Mof_H 	H 	0.1863	0.3338	0.0298	0.283
Mof_H 	H 	0.0767	0.3164	0.1229	0.276
Mof_C 	C 	0.7849	0.6526	0.3376	0.431
Mof_C 	C 	0.852	0.6024	0.403	-1.056
Mof_H 	H 	0.9376	0.5973	0.3707	0.313
Mof_H 	H 	0.8606	0.6115	0.4928	0.311
Mof_H 	H 	0.8022	0.5647	0.3899	0.32
Mof_C 	C 	0.274	0.6592	0.304	0.313
Mof_C 	C 	0.337	0.6429	0.184	-0.863
Mof_H 	H 	0.4297	0.6369	0.201	0.255
Mof_H 	H 	0.2986	0.6052	0.1493	0.264
Mof_H 	H 	0.3229	0.676	0.1231	0.257
Mof_C 	C 	0.499	0.5185	0.505	0.291
Mof_C 	C 	0.473	0.5452	0.6383	0.007
Mof_H 	H 	0.3794	0.5563	0.639	0.002
Mof_C 	C 	0.503	0.5001	0.7466	-0.453
Mof_H 	H 	0.4487	0.4639	0.7356	0.162
Mof_H 	H 	0.5943	0.488	0.7467	0.141
Mof_H 	H 	0.4869	0.5198	0.8263	0.144
Mof_C 	C 	0.01	0.6077	0.996	0.282
Mof_C 	C 	0.002	0.5852	0.862	0.006
Mof_H 	H 	0.951	0.6143	0.8067	0.016
Mof_C 	C 	0.14	0.5767	0.814	-0.493
Mof_H 	H 	0.1856	0.6158	0.8186	0.165
Mof_H 	H 	0.187	0.5468	0.867	0.15
Mof_H 	H 	0.1336	0.5623	0.7277	0.159
Mof_Zn	Zn	0.5107	0.92656	0.6791	1.189
Mof_Zn	Zn	0.4718	0.15311	0.515	1.19
Mof_Zn	Zn	0.024	0.97007	0.9844	1.175
Mof_Zn	Zn	0.9855	0.19784	0.8165	1.198
Mof_O 	O 	0.4727	0.053	0.5798	-0.486
Mof_O 	O 	0.5294	0.96	0.5044	-0.501
Mof_O 	O 	0.0178	0.0707	0.9145	-0.445
Mof_O 	O 	0.9652	0.1634	0.981	-0.489
Mof_N 	N 	0.1545	0.9518	0.8531	-0.279
Mof_N 	N 	0.1403	0.8999	0.7764	-0.091
Mof_N 	N 	0.2486	0.8885	0.7086	-0.089
Mof_N 	N 	0.3291	0.9335	0.7446	-0.27
Mof_N 	N 	0.5434	0.8369	0.6408	-0.304
Mof_N 	N 	0.6278	0.8051	0.7185	-0.081
Mof_N 	N 	0.6267	0.7482	0.673	-0.086
Mof_N 	N 	0.5453	0.7432	0.5672	-0.29
Mof_N 	N 	0.6443	0.9504	0.8125	-0.306
Mof_N 	N 	0.6319	0.9383	0.9361	-0.086
Mof_N 	N 	0.7452	0.9506	0.0025	-0.101
Mof_N 	N 	0.8347	0.9616	0.9131	-0.307
Mof_N 	N 	0.0477	0.7885	0.1493	-0.28
Mof_N 	N 	0.137	0.8227	0.2199	-0.081
Mof_N 	N 	0.1391	0.8793	0.1777	-0.087
Mof_N 	N 	0.0494	0.884	0.0776	-0.27
Mof_N 	N 	0.1593	0.186	0.7473	-0.335
Mof_N 	N 	0.2617	0.2299	0.7764	-0.085
Mof_N 	N 	0.3593	0.2199	0.718	-0.087
Mof_N 	N 	0.3318	0.171	0.6407	-0.322
Mof_N 	N 	0.8459	0.1699	0.6868	-0.31
Mof_N 	N 	0.8686	0.1803	0.5602	-0.089
Mof_N 	N 	0.7584	0.1793	0.4976	-0.085
Mof_N 	N 	0.6616	0.1582	0.5749	-0.286
Mof_N 	N 	0.446	0.106	0.3568	-0.375
Mof_H 	H 	0.3613	0.0969	0.3434	0.091
Mof_H 	H 	0.4704	0.1292	0.2919	0.098
Mof_N 	N 	0.051	0.0239	0.151	-0.355
Mof_H 	H 	0.0123	0.0047	0.2143	0.106
Mof_H 	H 	0.1362	0.0265	0.1723	0.093
Mof_C 	C 	0.277	0.9739	0.831	0.214
Mof_C 	C 	0.344	0.0313	0.886	-0.706
Mof_H 	H 	0.43	0.035	0.8535	0.212
Mof_H 	H 	0.2927	0.0674	0.8626	0.222
Mof_H 	H 	0.3521	0.0279	0.9775	0.213
Mof_C 	C 	0.497	0.7986	0.553	0.383
Mof_C 	C 	0.403	0.8178	0.4486	-0.964
Mof_H 	H 	0.3809	0.8609	0.4586	0.291
Mof_H 	H 	0.442	0.8119	0.3683	0.303
Mof_H 	H 	0.3243	0.7931	0.4507	0.305
Mof_C 	C 	0.7751	0.9667	0.8061	0.339
Mof_C 	C 	0.841	0.9837	0.688	-0.961
Mof_H 	H 	0.7767	0.9849	0.617	0.276
Mof_H 	H 	0.8812	0.0239	0.6981	0.301
Mof_H 	H 	0.9069	0.9533	0.6712	0.289
Mof_C 	C 	0.994	0.8273	0.059	0.3
Mof_C 	C 	0.891	0.8092	0.96	-0.876
Mof_H 	H 	0.8706	0.7659	0.9694	0.267
Mof_H 	H 	0.8137	0.8338	0.9702	0.284
Mof_H 	H 	0.9233	0.8164	0.8771	0.277
Mof_C 	C 	0.2151	0.1526	0.6624	0.437
Mof_C 	C 	0.148	0.1024	0.597	-1.07
Mof_H 	H 	0.0624	0.0973	0.6293	0.319
Mof_H 	H 	0.1394	0.1115	0.5072	0.317
Mof_H 	H 	0.1978	0.0647	0.6101	0.33
Mof_C 	C 	0.726	0.1592	0.696	0.316
Mof_C 	C 	0.663	0.1429	0.816	-0.871
Mof_H 	H 	0.5703	0.1369	0.799	0.259
Mof_H 	H 	0.7014	0.1052	0.8507	0.269
Mof_H 	H 	0.6771	0.176	0.8769	0.26
Mof_C 	C 	0.501	0.0185	0.495	0.341
Mof_C 	C 	0.527	0.0452	0.3617	-0.072
Mof_H 	H 	0.6206	0.0563	0.361	0.028
Mof_C 	C 	0.497	0.0001	0.2534	-0.225
Mof_H 	H 	0.5513	0.9639	0.2644	0.082
Mof_H 	H 	0.4057	0.988	0.2533	0.06
Mof_H 	H 	0.5131	0.0198	0.1737	0.081
Mof_C 	C 	0.99	0.1077	0.004	0.277
Mof_C 	C 	0.998	0.0852	0.138	0.009
Mof_H 	H 	0.049	0.1143	0.1933	0.016
Mof_C 	C 	0.86	0.0767	0.186	-0.504
Mof_H 	H 	0.8144	0.1158	0.1814	0.169
Mof_H 	H 	0.813	0.0468	0.133	0.157
Mof_H 	H 	0.8664	0.0623	0.2723	0.163
_end
