data_functionalizedCrystal
_audit_creation_method	'EQeq! by Chris Wilmer'
_symmetry_space_group_name_H-M	'P1'
_symmetry_Int_Tables_number	1
_symmetry_cell_setting	triclinic
loop_
_symmetry_equiv_pos_as_xyz
  x,y,z
_cell_length_a	19.4256
_cell_length_b	21.1949
_cell_length_c	26.6468
_cell_angle_alpha	90
_cell_angle_beta	90
_cell_angle_gamma	90
loop_
_atom_site_label
_atom_site_type_symbol
_atom_site_fract_x
_atom_site_fract_y
_atom_site_fract_z
_atom_site_charge
Mof_C 	C 	0.6726	0.3784	0.6688	0.106
Mof_C 	C 	0.6538	0.333	0.5969	0.093
Mof_C 	C 	0.5819	0.3117	0.6627	0.087
Mof_C 	C 	0.7147	0.4183	0.7044	0.059
Mof_C 	C 	0.6968	0.4266	0.7532	-0.142
Mof_H 	H 	0.6599	0.4048	0.7672	0.091
Mof_C 	C 	0.7346	0.4679	0.7809	0.075
Mof_H 	H 	0.7198	0.4746	0.8137	-0.014
Mof_C 	C 	0.8087	0.4953	0.7172	0.024
Mof_H 	H 	0.8447	0.5197	0.7048	-0.025
Mof_C 	C 	0.7712	0.4507	0.6824	-0.109
Mof_H 	H 	0.7842	0.4449	0.6491	0.079
Mof_C 	C 	0.6623	0.3208	0.5426	0.052
Mof_C 	C 	0.7169	0.3583	0.5203	-0.1
Mof_H 	H 	0.7403	0.3883	0.5392	0.076
Mof_C 	C 	0.734	0.3482	0.4682	0.036
Mof_H 	H 	0.768	0.3726	0.453	0.003
Mof_C 	C 	0.6455	0.27	0.4644	0.055
Mof_H 	H 	0.6158	0.2454	0.4452	-0.005
Mof_C 	C 	0.6342	0.2737	0.5156	-0.119
Mof_H 	H 	0.6071	0.2435	0.5314	0.088
Mof_C 	C 	0.5232	0.278	0.6824	0.048
Mof_C 	C 	0.4931	0.2295	0.6571	-0.129
Mof_H 	H 	0.5107	0.217	0.6262	0.076
Mof_C 	C 	0.4356	0.1982	0.6774	0.041
Mof_H 	H 	0.4162	0.1645	0.6601	-0.005
Mof_C 	C 	0.4397	0.2586	0.7471	0.133
Mof_H 	H 	0.4237	0.2686	0.779	-0.032
Mof_C 	C 	0.4957	0.2903	0.7314	-0.164
Mof_H 	H 	0.5164	0.32	0.7522	0.096
Mof_C 	C 	0.9442	0.5598	0.0221	0.103
Mof_C 	C 	0.9449	0.5223	0.1022	0.104
Mof_C 	C 	0.0202	0.5958	0.0769	0.112
Mof_C 	C 	0.9222	0.5591	0.9683	0.054
Mof_C 	C 	0.9567	0.5935	0.9301	-0.12
Mof_H 	H 	0.997	0.6154	0.9373	0.081
Mof_C 	C 	0.9309	0.5938	0.8841	0.057
Mof_H 	H 	0.952	0.6198	0.8606	-0.007
Mof_C 	C 	0.8454	0.5227	0.9046	0.057
Mof_H 	H 	0.8079	0.498	0.8954	-0.007
Mof_C 	C 	0.8672	0.52	0.9547	-0.116
Mof_H 	H 	0.8461	0.4934	0.9779	0.081
Mof_C 	C 	0.9115	0.4829	0.1387	0.039
Mof_C 	C 	0.8529	0.4424	0.1247	-0.118
Mof_H 	H 	0.8329	0.4457	0.0931	0.083
Mof_C 	C 	0.8296	0.402	0.1574	0.056
Mof_H 	H 	0.7931	0.3762	0.148	-0.036
Mof_C 	C 	0.9126	0.4347	0.2194	0.045
Mof_H 	H 	0.9299	0.4323	0.2519	-0.001
Mof_C 	C 	0.9418	0.4757	0.1868	-0.107
Mof_H 	H 	0.9808	0.4985	0.1957	0.068
Mof_C 	C 	0.0812	0.6369	0.0892	0.068
Mof_C 	C 	0.1176	0.6345	0.1375	-0.158
Mof_H 	H 	0.1042	0.6061	0.1623	0.087
Mof_C 	C 	0.1675	0.6717	0.1447	0.108
Mof_H 	H 	0.1901	0.6684	0.1754	-0.03
Mof_C 	C 	0.1557	0.722	0.0712	0.076
Mof_H 	H 	0.1649	0.7567	0.0509	-0.011
Mof_C 	C 	0.1033	0.6783	0.0557	-0.138
Mof_H 	H 	0.0856	0.6791	0.0233	0.087
Mof_Cu	Cu	0.82951	0.57419	0.80198	0.834
Mof_Cu	Cu	0.72691	0.27774	0.37161	0.837
Mof_I 	I 	0.84871	0.63036	0.60063	-0.363
Mof_N 	N 	0.6933	0.3714	0.6235	-0.141
Mof_N 	N 	0.5962	0.3001	0.6158	-0.142
Mof_N 	N 	0.617	0.3496	0.6912	-0.14
Mof_N 	N 	0.7908	0.5003	0.7665	-0.248
Mof_N 	N 	0.6991	0.3012	0.4401	-0.233
Mof_N 	N 	0.4069	0.2176	0.724	-0.25
Mof_N 	N 	0.9175	0.5208	0.0544	-0.137
Mof_N 	N 	0.9969	0.5601	0.1149	-0.14
Mof_N 	N 	0.003	0.5965	0.0312	-0.142
Mof_N 	N 	0.8753	0.5591	0.8683	-0.239
Mof_Cu	Cu	0.31985	0.17349	0.74619	0.829
Mof_N 	N 	0.8565	0.3953	0.206	-0.234
Mof_N 	N 	0.1914	0.7152	0.1131	-0.241
Mof_Cu	Cu	0.83832	0.66535	0.68398	0.819
Mof_S 	S 	0.89719	0.63725	0.75254	-0.498
Mof_S 	S 	0.24317	0.23566	0.78789	-0.473
Mof_S 	S 	0.73795	0.63894	0.82376	-0.641
Mof_S 	S 	0.64801	0.2261	0.32447	-0.314
Mof_W 	W 	0.81294	0.69792	0.77736	0.278
Mof_C 	C 	0.8274	0.6216	0.1688	0.105
Mof_C 	C 	0.8462	0.667	0.0969	0.092
Mof_C 	C 	0.9181	0.6883	0.1627	0.086
Mof_C 	C 	0.7853	0.5817	0.2044	0.058
Mof_C 	C 	0.8032	0.5734	0.2532	-0.143
Mof_H 	H 	0.8401	0.5952	0.2672	0.09
Mof_C 	C 	0.7654	0.5321	0.2809	0.074
Mof_H 	H 	0.7802	0.5254	0.3137	-0.015
Mof_C 	C 	0.6913	0.5047	0.2172	0.023
Mof_H 	H 	0.6553	0.4803	0.2048	-0.026
Mof_C 	C 	0.7288	0.5493	0.1824	-0.11
Mof_H 	H 	0.7158	0.5551	0.1491	0.078
Mof_C 	C 	0.8377	0.6792	0.0426	0.051
Mof_C 	C 	0.7831	0.6417	0.0203	-0.1
Mof_H 	H 	0.7597	0.6117	0.0392	0.075
Mof_C 	C 	0.766	0.6518	0.9682	0.035
Mof_H 	H 	0.732	0.6274	0.953	0.003
Mof_C 	C 	0.8545	0.73	0.9644	0.055
Mof_H 	H 	0.8842	0.7546	0.9452	-0.005
Mof_C 	C 	0.8658	0.7263	0.0156	-0.118
Mof_H 	H 	0.8929	0.7565	0.0314	0.088
Mof_C 	C 	0.9768	0.722	0.1824	0.047
Mof_C 	C 	0.0069	0.7705	0.1571	-0.129
Mof_H 	H 	0.9893	0.783	0.1262	0.076
Mof_C 	C 	0.0644	0.8018	0.1774	0.041
Mof_H 	H 	0.0838	0.8355	0.1601	-0.004
Mof_C 	C 	0.0603	0.7414	0.2471	0.132
Mof_H 	H 	0.0763	0.7314	0.279	-0.032
Mof_C 	C 	0.0043	0.7097	0.2314	-0.164
Mof_H 	H 	0.9836	0.68	0.2522	0.095
Mof_C 	C 	0.5558	0.4402	0.5221	0.103
Mof_C 	C 	0.5551	0.4777	0.6022	0.104
Mof_C 	C 	0.4798	0.4042	0.5769	0.112
Mof_C 	C 	0.5778	0.4409	0.4683	0.054
Mof_C 	C 	0.5433	0.4065	0.4301	-0.12
Mof_H 	H 	0.503	0.3846	0.4373	0.081
Mof_C 	C 	0.5691	0.4062	0.3841	0.057
Mof_H 	H 	0.548	0.3802	0.3606	-0.007
Mof_C 	C 	0.6546	0.4773	0.4046	0.057
Mof_H 	H 	0.6921	0.502	0.3954	-0.007
Mof_C 	C 	0.6328	0.48	0.4547	-0.116
Mof_H 	H 	0.6539	0.5066	0.4779	0.081
Mof_C 	C 	0.5885	0.5171	0.6387	0.04
Mof_C 	C 	0.6471	0.5576	0.6247	-0.118
Mof_H 	H 	0.6671	0.5543	0.5931	0.083
Mof_C 	C 	0.6704	0.598	0.6574	0.056
Mof_H 	H 	0.7069	0.6238	0.648	-0.036
Mof_C 	C 	0.5874	0.5653	0.7194	0.045
Mof_H 	H 	0.5701	0.5677	0.7519	-0.001
Mof_C 	C 	0.5582	0.5243	0.6868	-0.107
Mof_H 	H 	0.5192	0.5015	0.6957	0.068
Mof_C 	C 	0.4188	0.3631	0.5892	0.068
Mof_C 	C 	0.3824	0.3655	0.6375	-0.158
Mof_H 	H 	0.3958	0.3939	0.6623	0.087
Mof_C 	C 	0.3325	0.3283	0.6447	0.108
Mof_H 	H 	0.3099	0.3316	0.6754	-0.03
Mof_C 	C 	0.3443	0.278	0.5712	0.076
Mof_H 	H 	0.3351	0.2433	0.5509	-0.011
Mof_C 	C 	0.3967	0.3217	0.5557	-0.138
Mof_H 	H 	0.4144	0.3209	0.5233	0.087
Mof_Cu	Cu	0.67049	0.42581	0.30198	0.834
Mof_Cu	Cu	0.77309	0.72226	0.87161	0.837
Mof_I 	I 	0.65129	0.36964	0.10063	-0.363
Mof_N 	N 	0.8067	0.6286	0.1235	-0.141
Mof_N 	N 	0.9038	0.6999	0.1158	-0.142
Mof_N 	N 	0.883	0.6504	0.1912	-0.14
Mof_N 	N 	0.7092	0.4997	0.2665	-0.248
Mof_N 	N 	0.8009	0.6988	0.9401	-0.233
Mof_N 	N 	0.0931	0.7824	0.224	-0.25
Mof_N 	N 	0.5825	0.4792	0.5544	-0.137
Mof_N 	N 	0.5031	0.4399	0.6149	-0.139
Mof_N 	N 	0.497	0.4035	0.5312	-0.142
Mof_N 	N 	0.6247	0.4409	0.3683	-0.239
Mof_Cu	Cu	0.18015	0.82651	0.24619	0.829
Mof_N 	N 	0.6435	0.6047	0.706	-0.234
Mof_N 	N 	0.3086	0.2848	0.6131	-0.241
Mof_Cu	Cu	0.66168	0.33465	0.18398	0.819
Mof_S 	S 	0.60281	0.36275	0.25254	-0.497
Mof_S 	S 	0.25683	0.76434	0.28789	-0.473
Mof_S 	S 	0.76205	0.36106	0.32376	-0.641
Mof_S 	S 	0.85199	0.7739	0.82447	-0.314
Mof_W 	W 	0.68706	0.30208	0.27736	0.278
Mof_C 	C 	0.3274	0.8784	0.8312	0.105
Mof_C 	C 	0.3462	0.833	0.9031	0.092
Mof_C 	C 	0.4181	0.8117	0.8373	0.086
Mof_C 	C 	0.2853	0.9183	0.7956	0.059
Mof_C 	C 	0.3032	0.9266	0.7468	-0.143
Mof_H 	H 	0.3401	0.9048	0.7328	0.09
Mof_C 	C 	0.2654	0.9679	0.7191	0.075
Mof_H 	H 	0.2802	0.9746	0.6863	-0.015
Mof_C 	C 	0.1913	0.9953	0.7828	0.024
Mof_H 	H 	0.1553	0.0197	0.7952	-0.026
Mof_C 	C 	0.2288	0.9507	0.8176	-0.11
Mof_H 	H 	0.2158	0.9449	0.8509	0.078
Mof_C 	C 	0.3377	0.8208	0.9574	0.051
Mof_C 	C 	0.2831	0.8583	0.9797	-0.101
Mof_H 	H 	0.2597	0.8883	0.9608	0.075
Mof_C 	C 	0.266	0.8482	0.0318	0.035
Mof_H 	H 	0.232	0.8726	0.047	0.003
Mof_C 	C 	0.3545	0.77	0.0356	0.055
Mof_H 	H 	0.3842	0.7454	0.0548	-0.005
Mof_C 	C 	0.3658	0.7737	0.9844	-0.119
Mof_H 	H 	0.3929	0.7435	0.9686	0.088
Mof_C 	C 	0.4768	0.778	0.8176	0.048
Mof_C 	C 	0.5069	0.7295	0.8429	-0.129
Mof_H 	H 	0.4893	0.717	0.8738	0.076
Mof_C 	C 	0.5644	0.6982	0.8226	0.041
Mof_H 	H 	0.5838	0.6645	0.8399	-0.005
Mof_C 	C 	0.5603	0.7586	0.7529	0.133
Mof_H 	H 	0.5763	0.7686	0.721	-0.032
Mof_C 	C 	0.5043	0.7903	0.7686	-0.164
Mof_H 	H 	0.4836	0.82	0.7478	0.096
Mof_C 	C 	0.0558	0.0598	0.4779	0.102
Mof_C 	C 	0.0551	0.0223	0.3978	0.104
Mof_C 	C 	0.9798	0.0958	0.4231	0.112
Mof_C 	C 	0.0778	0.0591	0.5317	0.055
Mof_C 	C 	0.0433	0.0935	0.5699	-0.121
Mof_H 	H 	0.003	0.1154	0.5627	0.081
Mof_C 	C 	0.0691	0.0938	0.6159	0.057
Mof_H 	H 	0.048	0.1198	0.6394	-0.008
Mof_C 	C 	0.1546	0.0227	0.5954	0.057
Mof_H 	H 	0.1921	0.998	0.6046	-0.007
Mof_C 	C 	0.1328	0.02	0.5453	-0.117
Mof_H 	H 	0.1539	0.9934	0.5221	0.081
Mof_C 	C 	0.0885	0.9829	0.3613	0.04
Mof_C 	C 	0.1471	0.9424	0.3753	-0.119
Mof_H 	H 	0.1671	0.9457	0.4069	0.083
Mof_C 	C 	0.1704	0.902	0.3426	0.057
Mof_H 	H 	0.2069	0.8762	0.352	-0.036
Mof_C 	C 	0.0874	0.9347	0.2806	0.046
Mof_H 	H 	0.0701	0.9323	0.2481	-0.001
Mof_C 	C 	0.0582	0.9757	0.3132	-0.107
Mof_H 	H 	0.0192	0.9985	0.3043	0.068
Mof_C 	C 	0.9188	0.1369	0.4108	0.068
Mof_C 	C 	0.8824	0.1345	0.3625	-0.158
Mof_H 	H 	0.8958	0.1061	0.3377	0.087
Mof_C 	C 	0.8325	0.1717	0.3553	0.108
Mof_H 	H 	0.8099	0.1684	0.3246	-0.03
Mof_C 	C 	0.8443	0.222	0.4288	0.076
Mof_H 	H 	0.8351	0.2567	0.4491	-0.011
Mof_C 	C 	0.8967	0.1783	0.4443	-0.138
Mof_H 	H 	0.9144	0.1791	0.4767	0.087
Mof_Cu	Cu	0.17049	0.07419	0.69802	0.834
Mof_Cu	Cu	0.27309	0.77774	0.12839	0.837
Mof_I 	I 	0.15129	0.13036	0.89937	-0.363
Mof_N 	N 	0.3067	0.8714	0.8765	-0.141
Mof_N 	N 	0.4038	0.8001	0.8842	-0.142
Mof_N 	N 	0.383	0.8496	0.8088	-0.14
Mof_N 	N 	0.2092	0.0003	0.7335	-0.248
Mof_N 	N 	0.3009	0.8012	0.0599	-0.233
Mof_N 	N 	0.5931	0.7176	0.776	-0.25
Mof_N 	N 	0.0825	0.0208	0.4456	-0.137
Mof_N 	N 	0.0031	0.0601	0.3851	-0.14
Mof_N 	N 	0.997	0.0965	0.4688	-0.142
Mof_N 	N 	0.1247	0.0591	0.6317	-0.239
Mof_Cu	Cu	0.68015	0.67349	0.75381	0.829
Mof_N 	N 	0.1435	0.8953	0.294	-0.234
Mof_N 	N 	0.8086	0.2152	0.3869	-0.241
Mof_Cu	Cu	0.16168	0.16535	0.81602	0.819
Mof_S 	S 	0.10281	0.13725	0.74746	-0.498
Mof_S 	S 	0.75683	0.73566	0.71211	-0.473
Mof_S 	S 	0.26205	0.13894	0.67624	-0.641
Mof_S 	S 	0.35199	0.7261	0.17553	-0.314
Mof_W 	W 	0.18706	0.19792	0.72264	0.278
Mof_C 	C 	0.1726	0.1216	0.3312	0.105
Mof_C 	C 	0.1538	0.167	0.4031	0.092
Mof_C 	C 	0.0819	0.1883	0.3373	0.087
Mof_C 	C 	0.2147	0.0817	0.2956	0.058
Mof_C 	C 	0.1968	0.0734	0.2468	-0.142
Mof_H 	H 	0.1599	0.0952	0.2328	0.09
Mof_C 	C 	0.2346	0.0321	0.2191	0.074
Mof_H 	H 	0.2198	0.0254	0.1863	-0.015
Mof_C 	C 	0.3087	0.0047	0.2828	0.022
Mof_H 	H 	0.3447	0.9803	0.2952	-0.026
Mof_C 	C 	0.2712	0.0493	0.3176	-0.109
Mof_H 	H 	0.2842	0.0551	0.3509	0.078
Mof_C 	C 	0.1623	0.1792	0.4574	0.051
Mof_C 	C 	0.2169	0.1417	0.4797	-0.101
Mof_H 	H 	0.2403	0.1117	0.4608	0.075
Mof_C 	C 	0.234	0.1518	0.5318	0.035
Mof_H 	H 	0.268	0.1274	0.547	0.003
Mof_C 	C 	0.1455	0.23	0.5356	0.055
Mof_H 	H 	0.1158	0.2546	0.5548	-0.005
Mof_C 	C 	0.1342	0.2263	0.4844	-0.119
Mof_H 	H 	0.1071	0.2565	0.4686	0.088
Mof_C 	C 	0.0232	0.222	0.3176	0.046
Mof_C 	C 	0.9931	0.2705	0.3429	-0.128
Mof_H 	H 	0.0107	0.283	0.3738	0.075
Mof_C 	C 	0.9356	0.3018	0.3226	0.04
Mof_H 	H 	0.9162	0.3355	0.3399	-0.004
Mof_C 	C 	0.9397	0.2414	0.2529	0.132
Mof_H 	H 	0.9237	0.2314	0.221	-0.031
Mof_C 	C 	0.9957	0.2097	0.2686	-0.162
Mof_H 	H 	0.0164	0.18	0.2478	0.095
Mof_C 	C 	0.4442	0.9402	0.9779	0.103
Mof_C 	C 	0.4449	0.9777	0.8978	0.104
Mof_C 	C 	0.5202	0.9042	0.9231	0.112
Mof_C 	C 	0.4222	0.9409	0.0317	0.054
Mof_C 	C 	0.4567	0.9065	0.0699	-0.12
Mof_H 	H 	0.497	0.8846	0.0627	0.081
Mof_C 	C 	0.4309	0.9062	0.1159	0.057
Mof_H 	H 	0.452	0.8802	0.1394	-0.007
Mof_C 	C 	0.3454	0.9773	0.0954	0.058
Mof_H 	H 	0.3079	0.002	0.1046	-0.007
Mof_C 	C 	0.3672	0.98	0.0453	-0.116
Mof_H 	H 	0.3461	0.0066	0.0221	0.081
Mof_C 	C 	0.4115	0.0171	0.8613	0.039
Mof_C 	C 	0.3529	0.0576	0.8753	-0.118
Mof_H 	H 	0.3329	0.0543	0.9069	0.083
Mof_C 	C 	0.3296	0.098	0.8426	0.056
Mof_H 	H 	0.2931	0.1238	0.852	-0.036
Mof_C 	C 	0.4126	0.0653	0.7806	0.045
Mof_H 	H 	0.4299	0.0677	0.7481	-0.001
Mof_C 	C 	0.4418	0.0243	0.8132	-0.107
Mof_H 	H 	0.4808	0.0015	0.8043	0.068
Mof_C 	C 	0.5812	0.8631	0.9108	0.068
Mof_C 	C 	0.6176	0.8655	0.8625	-0.158
Mof_H 	H 	0.6042	0.8939	0.8377	0.087
Mof_C 	C 	0.6675	0.8283	0.8553	0.108
Mof_H 	H 	0.6901	0.8316	0.8246	-0.03
Mof_C 	C 	0.6557	0.778	0.9288	0.076
Mof_H 	H 	0.6649	0.7433	0.9491	-0.011
Mof_C 	C 	0.6033	0.8217	0.9443	-0.138
Mof_H 	H 	0.5856	0.8209	0.9767	0.087
Mof_Cu	Cu	0.32951	0.92581	0.19802	0.834
Mof_Cu	Cu	0.22691	0.22226	0.62839	0.837
Mof_I 	I 	0.34871	0.86964	0.39937	-0.363
Mof_N 	N 	0.1933	0.1286	0.3765	-0.141
Mof_N 	N 	0.0962	0.1999	0.3842	-0.142
Mof_N 	N 	0.117	0.1504	0.3088	-0.14
Mof_N 	N 	0.2908	0.9997	0.2335	-0.248
Mof_N 	N 	0.1991	0.1988	0.5599	-0.233
Mof_N 	N 	0.9069	0.2824	0.276	-0.25
Mof_N 	N 	0.4175	0.9792	0.9456	-0.137
Mof_N 	N 	0.4969	0.9399	0.8851	-0.14
Mof_N 	N 	0.503	0.9035	0.9688	-0.142
Mof_N 	N 	0.3753	0.9409	0.1317	-0.239
Mof_Cu	Cu	0.81985	0.32651	0.25381	0.829
Mof_N 	N 	0.3565	0.1047	0.794	-0.234
Mof_N 	N 	0.6914	0.7848	0.8869	-0.241
Mof_Cu	Cu	0.33832	0.83465	0.31602	0.819
Mof_S 	S 	0.39719	0.86275	0.24746	-0.497
Mof_S 	S 	0.74317	0.26434	0.21211	-0.473
Mof_S 	S 	0.23795	0.86106	0.17624	-0.641
Mof_S 	S 	0.14801	0.2739	0.67553	-0.314
Mof_W 	W 	0.31294	0.80208	0.22264	0.278
Mof_C 	C 	0.3274	0.6216	0.3312	0.105
Mof_C 	C 	0.3462	0.667	0.4031	0.092
Mof_C 	C 	0.4181	0.6883	0.3373	0.086
Mof_C 	C 	0.2853	0.5817	0.2956	0.058
Mof_C 	C 	0.3032	0.5734	0.2468	-0.143
Mof_H 	H 	0.3401	0.5952	0.2328	0.09
Mof_C 	C 	0.2654	0.5321	0.2191	0.074
Mof_H 	H 	0.2802	0.5254	0.1863	-0.015
Mof_C 	C 	0.1913	0.5047	0.2828	0.023
Mof_H 	H 	0.1553	0.4803	0.2952	-0.026
Mof_C 	C 	0.2288	0.5493	0.3176	-0.11
Mof_H 	H 	0.2158	0.5551	0.3509	0.078
Mof_C 	C 	0.3377	0.6792	0.4574	0.051
Mof_C 	C 	0.2831	0.6417	0.4797	-0.101
Mof_H 	H 	0.2597	0.6117	0.4608	0.075
Mof_C 	C 	0.266	0.6518	0.5318	0.035
Mof_H 	H 	0.232	0.6274	0.547	0.003
Mof_C 	C 	0.3545	0.73	0.5356	0.055
Mof_H 	H 	0.3842	0.7546	0.5548	-0.005
Mof_C 	C 	0.3658	0.7263	0.4844	-0.119
Mof_H 	H 	0.3929	0.7565	0.4686	0.088
Mof_C 	C 	0.4768	0.722	0.3176	0.048
Mof_C 	C 	0.5069	0.7705	0.3429	-0.129
Mof_H 	H 	0.4893	0.783	0.3738	0.076
Mof_C 	C 	0.5644	0.8018	0.3226	0.041
Mof_H 	H 	0.5838	0.8355	0.3399	-0.005
Mof_C 	C 	0.5603	0.7414	0.2529	0.133
Mof_H 	H 	0.5763	0.7314	0.221	-0.032
Mof_C 	C 	0.5043	0.7097	0.2686	-0.164
Mof_H 	H 	0.4836	0.68	0.2478	0.096
Mof_C 	C 	0.0558	0.4402	0.9779	0.103
Mof_C 	C 	0.0551	0.4777	0.8978	0.104
Mof_C 	C 	0.9798	0.4042	0.9231	0.112
Mof_C 	C 	0.0778	0.4409	0.0317	0.054
Mof_C 	C 	0.0433	0.4065	0.0699	-0.12
Mof_H 	H 	0.003	0.3846	0.0627	0.081
Mof_C 	C 	0.0691	0.4062	0.1159	0.057
Mof_H 	H 	0.048	0.3802	0.1394	-0.007
Mof_C 	C 	0.1546	0.4773	0.0954	0.057
Mof_H 	H 	0.1921	0.502	0.1046	-0.007
Mof_C 	C 	0.1328	0.48	0.0453	-0.116
Mof_H 	H 	0.1539	0.5066	0.0221	0.081
Mof_C 	C 	0.0885	0.5171	0.8613	0.039
Mof_C 	C 	0.1471	0.5576	0.8753	-0.118
Mof_H 	H 	0.1671	0.5543	0.9069	0.083
Mof_C 	C 	0.1704	0.598	0.8426	0.056
Mof_H 	H 	0.2069	0.6238	0.852	-0.036
Mof_C 	C 	0.0874	0.5653	0.7806	0.045
Mof_H 	H 	0.0701	0.5677	0.7481	-0.001
Mof_C 	C 	0.0582	0.5243	0.8132	-0.107
Mof_H 	H 	0.0192	0.5015	0.8043	0.068
Mof_C 	C 	0.9188	0.3631	0.9108	0.068
Mof_C 	C 	0.8824	0.3655	0.8625	-0.158
Mof_H 	H 	0.8958	0.3939	0.8377	0.087
Mof_C 	C 	0.8325	0.3283	0.8553	0.108
Mof_H 	H 	0.8099	0.3316	0.8246	-0.03
Mof_C 	C 	0.8443	0.278	0.9288	0.076
Mof_H 	H 	0.8351	0.2433	0.9491	-0.011
Mof_C 	C 	0.8967	0.3217	0.9443	-0.138
Mof_H 	H 	0.9144	0.3209	0.9767	0.087
Mof_Cu	Cu	0.17049	0.42581	0.19802	0.834
Mof_Cu	Cu	0.27309	0.72226	0.62839	0.837
Mof_I 	I 	0.15129	0.36964	0.39937	-0.363
Mof_N 	N 	0.3067	0.6286	0.3765	-0.141
Mof_N 	N 	0.4038	0.6999	0.3842	-0.142
Mof_N 	N 	0.383	0.6504	0.3088	-0.14
Mof_N 	N 	0.2092	0.4997	0.2335	-0.248
Mof_N 	N 	0.3009	0.6988	0.5599	-0.233
Mof_N 	N 	0.5931	0.7824	0.276	-0.25
Mof_N 	N 	0.0825	0.4792	0.9456	-0.137
Mof_N 	N 	0.0031	0.4399	0.8851	-0.14
Mof_N 	N 	0.997	0.4035	0.9688	-0.142
Mof_N 	N 	0.1247	0.4409	0.1317	-0.239
Mof_Cu	Cu	0.68015	0.82651	0.25381	0.829
Mof_N 	N 	0.1435	0.6047	0.794	-0.234
Mof_N 	N 	0.8086	0.2848	0.8869	-0.241
Mof_Cu	Cu	0.16168	0.33465	0.31602	0.819
Mof_S 	S 	0.10281	0.36275	0.24746	-0.498
Mof_S 	S 	0.75683	0.76434	0.21211	-0.473
Mof_S 	S 	0.26205	0.36106	0.17624	-0.641
Mof_S 	S 	0.35199	0.7739	0.67553	-0.314
Mof_W 	W 	0.18706	0.30208	0.22264	0.278
Mof_C 	C 	0.1726	0.3784	0.8312	0.105
Mof_C 	C 	0.1538	0.333	0.9031	0.092
Mof_C 	C 	0.0819	0.3117	0.8373	0.086
Mof_C 	C 	0.2147	0.4183	0.7956	0.058
Mof_C 	C 	0.1968	0.4266	0.7468	-0.143
Mof_H 	H 	0.1599	0.4048	0.7328	0.09
Mof_C 	C 	0.2346	0.4679	0.7191	0.074
Mof_H 	H 	0.2198	0.4746	0.6863	-0.015
Mof_C 	C 	0.3087	0.4953	0.7828	0.023
Mof_H 	H 	0.3447	0.5197	0.7952	-0.026
Mof_C 	C 	0.2712	0.4507	0.8176	-0.11
Mof_H 	H 	0.2842	0.4449	0.8509	0.078
Mof_C 	C 	0.1623	0.3208	0.9574	0.051
Mof_C 	C 	0.2169	0.3583	0.9797	-0.1
Mof_H 	H 	0.2403	0.3883	0.9608	0.075
Mof_C 	C 	0.234	0.3482	0.0318	0.035
Mof_H 	H 	0.268	0.3726	0.047	0.003
Mof_C 	C 	0.1455	0.27	0.0356	0.055
Mof_H 	H 	0.1158	0.2454	0.0548	-0.005
Mof_C 	C 	0.1342	0.2737	0.9844	-0.118
Mof_H 	H 	0.1071	0.2435	0.9686	0.088
Mof_C 	C 	0.0232	0.278	0.8176	0.047
Mof_C 	C 	0.9931	0.2295	0.8429	-0.129
Mof_H 	H 	0.0107	0.217	0.8738	0.076
Mof_C 	C 	0.9356	0.1982	0.8226	0.041
Mof_H 	H 	0.9162	0.1645	0.8399	-0.004
Mof_C 	C 	0.9397	0.2586	0.7529	0.132
Mof_H 	H 	0.9237	0.2686	0.721	-0.032
Mof_C 	C 	0.9957	0.2903	0.7686	-0.164
Mof_H 	H 	0.0164	0.32	0.7478	0.095
Mof_C 	C 	0.4442	0.5598	0.4779	0.103
Mof_C 	C 	0.4449	0.5223	0.3978	0.104
Mof_C 	C 	0.5202	0.5958	0.4231	0.112
Mof_C 	C 	0.4222	0.5591	0.5317	0.054
Mof_C 	C 	0.4567	0.5935	0.5699	-0.12
Mof_H 	H 	0.497	0.6154	0.5627	0.081
Mof_C 	C 	0.4309	0.5938	0.6159	0.057
Mof_H 	H 	0.452	0.6198	0.6394	-0.007
Mof_C 	C 	0.3454	0.5227	0.5954	0.057
Mof_H 	H 	0.3079	0.498	0.6046	-0.007
Mof_C 	C 	0.3672	0.52	0.5453	-0.116
Mof_H 	H 	0.3461	0.4934	0.5221	0.081
Mof_C 	C 	0.4115	0.4829	0.3613	0.04
Mof_C 	C 	0.3529	0.4424	0.3753	-0.118
Mof_H 	H 	0.3329	0.4457	0.4069	0.083
Mof_C 	C 	0.3296	0.402	0.3426	0.056
Mof_H 	H 	0.2931	0.3762	0.352	-0.036
Mof_C 	C 	0.4126	0.4347	0.2806	0.045
Mof_H 	H 	0.4299	0.4323	0.2481	-0.001
Mof_C 	C 	0.4418	0.4757	0.3132	-0.107
Mof_H 	H 	0.4808	0.4985	0.3043	0.068
Mof_C 	C 	0.5812	0.6369	0.4108	0.068
Mof_C 	C 	0.6176	0.6345	0.3625	-0.158
Mof_H 	H 	0.6042	0.6061	0.3377	0.087
Mof_C 	C 	0.6675	0.6717	0.3553	0.108
Mof_H 	H 	0.6901	0.6684	0.3246	-0.03
Mof_C 	C 	0.6557	0.722	0.4288	0.076
Mof_H 	H 	0.6649	0.7567	0.4491	-0.011
Mof_C 	C 	0.6033	0.6783	0.4443	-0.138
Mof_H 	H 	0.5856	0.6791	0.4767	0.087
Mof_Cu	Cu	0.32951	0.57419	0.69802	0.834
Mof_Cu	Cu	0.22691	0.27774	0.12839	0.837
Mof_I 	I 	0.34871	0.63036	0.89937	-0.363
Mof_N 	N 	0.1933	0.3714	0.8765	-0.141
Mof_N 	N 	0.0962	0.3001	0.8842	-0.142
Mof_N 	N 	0.117	0.3496	0.8088	-0.14
Mof_N 	N 	0.2908	0.5003	0.7335	-0.248
Mof_N 	N 	0.1991	0.3012	0.0599	-0.233
Mof_N 	N 	0.9069	0.2176	0.776	-0.25
Mof_N 	N 	0.4175	0.5208	0.4456	-0.137
Mof_N 	N 	0.4969	0.5601	0.3851	-0.139
Mof_N 	N 	0.503	0.5965	0.4688	-0.142
Mof_N 	N 	0.3753	0.5591	0.6317	-0.239
Mof_Cu	Cu	0.81985	0.17349	0.75381	0.829
Mof_N 	N 	0.3565	0.3953	0.294	-0.234
Mof_N 	N 	0.6914	0.7152	0.3869	-0.241
Mof_Cu	Cu	0.33832	0.66535	0.81602	0.819
Mof_S 	S 	0.39719	0.63725	0.74746	-0.497
Mof_S 	S 	0.74317	0.23566	0.71211	-0.473
Mof_S 	S 	0.23795	0.63894	0.67624	-0.641
Mof_S 	S 	0.14801	0.2261	0.17553	-0.314
Mof_W 	W 	0.31294	0.69792	0.72264	0.278
Mof_C 	C 	0.6726	0.1216	0.1688	0.105
Mof_C 	C 	0.6538	0.167	0.0969	0.092
Mof_C 	C 	0.5819	0.1883	0.1627	0.086
Mof_C 	C 	0.7147	0.0817	0.2044	0.059
Mof_C 	C 	0.6968	0.0734	0.2532	-0.143
Mof_H 	H 	0.6599	0.0952	0.2672	0.09
Mof_C 	C 	0.7346	0.0321	0.2809	0.075
Mof_H 	H 	0.7198	0.0254	0.3137	-0.015
Mof_C 	C 	0.8087	0.0047	0.2172	0.024
Mof_H 	H 	0.8447	0.9803	0.2048	-0.026
Mof_C 	C 	0.7712	0.0493	0.1824	-0.11
Mof_H 	H 	0.7842	0.0551	0.1491	0.078
Mof_C 	C 	0.6623	0.1792	0.0426	0.051
Mof_C 	C 	0.7169	0.1417	0.0203	-0.101
Mof_H 	H 	0.7403	0.1117	0.0392	0.075
Mof_C 	C 	0.734	0.1518	0.9682	0.035
Mof_H 	H 	0.768	0.1274	0.953	0.003
Mof_C 	C 	0.6455	0.23	0.9644	0.055
Mof_H 	H 	0.6158	0.2546	0.9452	-0.005
Mof_C 	C 	0.6342	0.2263	0.0156	-0.119
Mof_H 	H 	0.6071	0.2565	0.0314	0.088
Mof_C 	C 	0.5232	0.222	0.1824	0.048
Mof_C 	C 	0.4931	0.2705	0.1571	-0.129
Mof_H 	H 	0.5107	0.283	0.1262	0.076
Mof_C 	C 	0.4356	0.3018	0.1774	0.041
Mof_H 	H 	0.4162	0.3355	0.1601	-0.005
Mof_C 	C 	0.4397	0.2414	0.2471	0.133
Mof_H 	H 	0.4237	0.2314	0.279	-0.032
Mof_C 	C 	0.4957	0.2097	0.2314	-0.164
Mof_H 	H 	0.5164	0.18	0.2522	0.096
Mof_C 	C 	0.9442	0.9402	0.5221	0.102
Mof_C 	C 	0.9449	0.9777	0.6022	0.104
Mof_C 	C 	0.0202	0.9042	0.5769	0.112
Mof_C 	C 	0.9222	0.9409	0.4683	0.055
Mof_C 	C 	0.9567	0.9065	0.4301	-0.121
Mof_H 	H 	0.997	0.8846	0.4373	0.081
Mof_C 	C 	0.9309	0.9062	0.3841	0.057
Mof_H 	H 	0.952	0.8802	0.3606	-0.008
Mof_C 	C 	0.8454	0.9773	0.4046	0.057
Mof_H 	H 	0.8079	0.002	0.3954	-0.007
Mof_C 	C 	0.8672	0.98	0.4547	-0.117
Mof_H 	H 	0.8461	0.0066	0.4779	0.081
Mof_C 	C 	0.9115	0.0171	0.6387	0.04
Mof_C 	C 	0.8529	0.0576	0.6247	-0.119
Mof_H 	H 	0.8329	0.0543	0.5931	0.083
Mof_C 	C 	0.8296	0.098	0.6574	0.057
Mof_H 	H 	0.7931	0.1238	0.648	-0.036
Mof_C 	C 	0.9126	0.0653	0.7194	0.046
Mof_H 	H 	0.9299	0.0677	0.7519	-0.001
Mof_C 	C 	0.9418	0.0243	0.6868	-0.107
Mof_H 	H 	0.9808	0.0015	0.6957	0.068
Mof_C 	C 	0.0812	0.8631	0.5892	0.068
Mof_C 	C 	0.1176	0.8655	0.6375	-0.158
Mof_H 	H 	0.1042	0.8939	0.6623	0.087
Mof_C 	C 	0.1675	0.8283	0.6447	0.108
Mof_H 	H 	0.1901	0.8316	0.6754	-0.03
Mof_C 	C 	0.1557	0.778	0.5712	0.076
Mof_H 	H 	0.1649	0.7433	0.5509	-0.011
Mof_C 	C 	0.1033	0.8217	0.5557	-0.138
Mof_H 	H 	0.0856	0.8209	0.5233	0.087
Mof_Cu	Cu	0.82951	0.92581	0.30198	0.834
Mof_Cu	Cu	0.72691	0.22226	0.87161	0.837
Mof_I 	I 	0.84871	0.86964	0.10063	-0.363
Mof_N 	N 	0.6933	0.1286	0.1235	-0.141
Mof_N 	N 	0.5962	0.1999	0.1158	-0.142
Mof_N 	N 	0.617	0.1504	0.1912	-0.14
Mof_N 	N 	0.7908	0.9997	0.2665	-0.248
Mof_N 	N 	0.6991	0.1988	0.9401	-0.233
Mof_N 	N 	0.4069	0.2824	0.224	-0.25
Mof_N 	N 	0.9175	0.9792	0.5544	-0.137
Mof_N 	N 	0.9969	0.9399	0.6149	-0.14
Mof_N 	N 	0.003	0.9035	0.5312	-0.142
Mof_N 	N 	0.8753	0.9409	0.3683	-0.239
Mof_Cu	Cu	0.31985	0.32651	0.24619	0.829
Mof_N 	N 	0.8565	0.1047	0.706	-0.234
Mof_N 	N 	0.1914	0.7848	0.6131	-0.241
Mof_Cu	Cu	0.83832	0.83465	0.18398	0.819
Mof_S 	S 	0.89719	0.86275	0.25254	-0.498
Mof_S 	S 	0.24317	0.26434	0.28789	-0.473
Mof_S 	S 	0.73795	0.86106	0.32376	-0.641
Mof_S 	S 	0.64801	0.2739	0.82447	-0.314
Mof_W 	W 	0.81294	0.80208	0.27736	0.278
Mof_C 	C 	0.8274	0.8784	0.6688	0.105
Mof_C 	C 	0.8462	0.833	0.5969	0.092
Mof_C 	C 	0.9181	0.8117	0.6627	0.087
Mof_C 	C 	0.7853	0.9183	0.7044	0.058
Mof_C 	C 	0.8032	0.9266	0.7532	-0.142
Mof_H 	H 	0.8401	0.9048	0.7672	0.09
Mof_C 	C 	0.7654	0.9679	0.7809	0.074
Mof_H 	H 	0.7802	0.9746	0.8137	-0.015
Mof_C 	C 	0.6913	0.9953	0.7172	0.022
Mof_H 	H 	0.6553	0.0197	0.7048	-0.026
Mof_C 	C 	0.7288	0.9507	0.6824	-0.109
Mof_H 	H 	0.7158	0.9449	0.6491	0.078
Mof_C 	C 	0.8377	0.8208	0.5426	0.051
Mof_C 	C 	0.7831	0.8583	0.5203	-0.101
Mof_H 	H 	0.7597	0.8883	0.5392	0.075
Mof_C 	C 	0.766	0.8482	0.4682	0.035
Mof_H 	H 	0.732	0.8726	0.453	0.003
Mof_C 	C 	0.8545	0.77	0.4644	0.055
Mof_H 	H 	0.8842	0.7454	0.4452	-0.005
Mof_C 	C 	0.8658	0.7737	0.5156	-0.119
Mof_H 	H 	0.8929	0.7435	0.5314	0.088
Mof_C 	C 	0.9768	0.778	0.6824	0.046
Mof_C 	C 	0.0069	0.7295	0.6571	-0.128
Mof_H 	H 	0.9893	0.717	0.6262	0.075
Mof_C 	C 	0.0644	0.6982	0.6774	0.04
Mof_H 	H 	0.0838	0.6645	0.6601	-0.004
Mof_C 	C 	0.0603	0.7586	0.7471	0.132
Mof_H 	H 	0.0763	0.7686	0.779	-0.031
Mof_C 	C 	0.0043	0.7903	0.7314	-0.162
Mof_H 	H 	0.9836	0.82	0.7522	0.095
Mof_C 	C 	0.5558	0.0598	0.0221	0.103
Mof_C 	C 	0.5551	0.0223	0.1022	0.104
Mof_C 	C 	0.4798	0.0958	0.0769	0.112
Mof_C 	C 	0.5778	0.0591	0.9683	0.054
Mof_C 	C 	0.5433	0.0935	0.9301	-0.12
Mof_H 	H 	0.503	0.1154	0.9373	0.081
Mof_C 	C 	0.5691	0.0938	0.8841	0.057
Mof_H 	H 	0.548	0.1198	0.8606	-0.007
Mof_C 	C 	0.6546	0.0227	0.9046	0.058
Mof_H 	H 	0.6921	0.998	0.8954	-0.007
Mof_C 	C 	0.6328	0.02	0.9547	-0.116
Mof_H 	H 	0.6539	0.9934	0.9779	0.081
Mof_C 	C 	0.5885	0.9829	0.1387	0.039
Mof_C 	C 	0.6471	0.9424	0.1247	-0.118
Mof_H 	H 	0.6671	0.9457	0.0931	0.083
Mof_C 	C 	0.6704	0.902	0.1574	0.056
Mof_H 	H 	0.7069	0.8762	0.148	-0.036
Mof_C 	C 	0.5874	0.9347	0.2194	0.045
Mof_H 	H 	0.5701	0.9323	0.2519	-0.001
Mof_C 	C 	0.5582	0.9757	0.1868	-0.107
Mof_H 	H 	0.5192	0.9985	0.1957	0.068
Mof_C 	C 	0.4188	0.1369	0.0892	0.068
Mof_C 	C 	0.3824	0.1345	0.1375	-0.158
Mof_H 	H 	0.3958	0.1061	0.1623	0.087
Mof_C 	C 	0.3325	0.1717	0.1447	0.108
Mof_H 	H 	0.3099	0.1684	0.1754	-0.03
Mof_C 	C 	0.3443	0.222	0.0712	0.076
Mof_H 	H 	0.3351	0.2567	0.0509	-0.011
Mof_C 	C 	0.3967	0.1783	0.0557	-0.138
Mof_H 	H 	0.4144	0.1791	0.0233	0.087
Mof_Cu	Cu	0.67049	0.07419	0.80198	0.834
Mof_Cu	Cu	0.77309	0.77774	0.37161	0.837
Mof_I 	I 	0.65129	0.13036	0.60063	-0.363
Mof_N 	N 	0.8067	0.8714	0.6235	-0.141
Mof_N 	N 	0.9038	0.8001	0.6158	-0.142
Mof_N 	N 	0.883	0.8496	0.6912	-0.14
Mof_N 	N 	0.7092	0.0003	0.7665	-0.248
Mof_N 	N 	0.8009	0.8012	0.4401	-0.233
Mof_N 	N 	0.0931	0.7176	0.724	-0.25
Mof_N 	N 	0.5825	0.0208	0.0544	-0.137
Mof_N 	N 	0.5031	0.0601	0.1149	-0.14
Mof_N 	N 	0.497	0.0965	0.0312	-0.142
Mof_N 	N 	0.6247	0.0591	0.8683	-0.239
Mof_Cu	Cu	0.18015	0.67349	0.74619	0.829
Mof_N 	N 	0.6435	0.8953	0.206	-0.234
Mof_N 	N 	0.3086	0.2152	0.1131	-0.241
Mof_Cu	Cu	0.66168	0.16535	0.68398	0.819
Mof_S 	S 	0.60281	0.13725	0.75254	-0.497
Mof_S 	S 	0.25683	0.73566	0.78789	-0.473
Mof_S 	S 	0.76205	0.13894	0.82376	-0.641
Mof_S 	S 	0.85199	0.7261	0.32447	-0.314
Mof_W 	W 	0.68706	0.19792	0.77736	0.278
_end
