data_functionalizedCrystal
_audit_creation_method	'EQeq! by Chris Wilmer'
_symmetry_space_group_name_H-M	'P1'
_symmetry_Int_Tables_number	1
_symmetry_cell_setting	triclinic
loop_
_symmetry_equiv_pos_as_xyz
  x,y,z
_cell_length_a	32.4771
_cell_length_b	32.4771
_cell_length_c	16.7559
_cell_angle_alpha	90
_cell_angle_beta	90
_cell_angle_gamma	120
loop_
_atom_site_label
_atom_site_type_symbol
_atom_site_fract_x
_atom_site_fract_y
_atom_site_fract_z
_atom_site_charge
Mof_O 	O 	0.75208	0.3418	0.5911	-0.399
Mof_C 	C 	0.8238	0.3745	0.7041	0.078
Mof_H 	H 	0.8128	0.3444	0.683	0.014
Mof_C 	C 	0.8585	0.3916	0.7642	-0.168
Mof_H 	H 	0.8696	0.3723	0.7846	0.092
Mof_O 	O 	0.6582	0.41028	0.5911	-0.399
Mof_C 	C 	0.6255	0.4493	0.7041	0.078
Mof_H 	H 	0.6556	0.4684	0.683	0.014
Mof_C 	C 	0.6084	0.4669	0.7642	-0.168
Mof_H 	H 	0.6277	0.4973	0.7846	0.092
Mof_O 	O 	0.58972	0.24792	0.5911	-0.399
Mof_C 	C 	0.5507	0.1762	0.7041	0.078
Mof_H 	H 	0.5316	0.1872	0.683	0.014
Mof_C 	C 	0.5331	0.1415	0.7642	-0.168
Mof_H 	H 	0.5027	0.1304	0.7846	0.092
Mof_O 	O 	0.24792	0.6582	0.5911	-0.399
Mof_C 	C 	0.1762	0.6255	0.7041	0.078
Mof_H 	H 	0.1872	0.6556	0.683	0.014
Mof_C 	C 	0.1415	0.6084	0.7642	-0.168
Mof_H 	H 	0.1304	0.6277	0.7846	0.092
Mof_O 	O 	0.3418	0.58972	0.5911	-0.399
Mof_C 	C 	0.3745	0.5507	0.7041	0.078
Mof_H 	H 	0.3444	0.5316	0.683	0.014
Mof_C 	C 	0.3916	0.5331	0.7642	-0.168
Mof_H 	H 	0.3723	0.5027	0.7846	0.092
Mof_O 	O 	0.41028	0.75208	0.5911	-0.399
Mof_C 	C 	0.4493	0.8238	0.7041	0.078
Mof_H 	H 	0.4684	0.8128	0.683	0.014
Mof_C 	C 	0.4669	0.8585	0.7642	-0.168
Mof_H 	H 	0.4973	0.8696	0.7846	0.092
Mof_O 	O 	0.3418	0.75208	0.4089	-0.399
Mof_C 	C 	0.3745	0.8238	0.2959	0.078
Mof_H 	H 	0.3444	0.8128	0.317	0.014
Mof_C 	C 	0.3916	0.8585	0.2358	-0.168
Mof_H 	H 	0.3723	0.8696	0.2154	0.092
Mof_O 	O 	0.41028	0.6582	0.4089	-0.399
Mof_C 	C 	0.4493	0.6255	0.2959	0.078
Mof_H 	H 	0.4684	0.6556	0.317	0.014
Mof_C 	C 	0.4669	0.6084	0.2358	-0.168
Mof_H 	H 	0.4973	0.6277	0.2154	0.092
Mof_O 	O 	0.24792	0.58972	0.4089	-0.398
Mof_C 	C 	0.1762	0.5507	0.2959	0.079
Mof_H 	H 	0.1872	0.5316	0.317	0.015
Mof_C 	C 	0.1415	0.5331	0.2358	-0.167
Mof_H 	H 	0.1304	0.5027	0.2154	0.093
Mof_O 	O 	0.6582	0.24792	0.4089	-0.398
Mof_C 	C 	0.6255	0.1762	0.2959	0.079
Mof_H 	H 	0.6556	0.1872	0.317	0.015
Mof_C 	C 	0.6084	0.1415	0.2358	-0.167
Mof_H 	H 	0.6277	0.1304	0.2154	0.093
Mof_O 	O 	0.58972	0.3418	0.4089	-0.398
Mof_C 	C 	0.5507	0.3745	0.2959	0.079
Mof_H 	H 	0.5316	0.3444	0.317	0.015
Mof_C 	C 	0.5331	0.3916	0.2358	-0.167
Mof_H 	H 	0.5027	0.3723	0.2154	0.093
Mof_O 	O 	0.75208	0.41028	0.4089	-0.398
Mof_C 	C 	0.8238	0.4493	0.2959	0.079
Mof_H 	H 	0.8128	0.4684	0.317	0.015
Mof_C 	C 	0.8585	0.4669	0.2358	-0.167
Mof_H 	H 	0.8696	0.4973	0.2154	0.093
Mof_O 	O 	0.24792	0.6582	0.4089	-0.398
Mof_C 	C 	0.1762	0.6255	0.2959	0.079
Mof_H 	H 	0.1872	0.6556	0.317	0.015
Mof_C 	C 	0.1415	0.6084	0.2358	-0.167
Mof_H 	H 	0.1304	0.6277	0.2154	0.093
Mof_O 	O 	0.3418	0.58972	0.4089	-0.398
Mof_C 	C 	0.3745	0.5507	0.2959	0.079
Mof_H 	H 	0.3444	0.5316	0.317	0.015
Mof_C 	C 	0.3916	0.5331	0.2358	-0.167
Mof_H 	H 	0.3723	0.5027	0.2154	0.093
Mof_O 	O 	0.41028	0.75208	0.4089	-0.398
Mof_C 	C 	0.4493	0.8238	0.2959	0.079
Mof_H 	H 	0.4684	0.8128	0.317	0.015
Mof_C 	C 	0.4669	0.8585	0.2358	-0.167
Mof_H 	H 	0.4973	0.8696	0.2154	0.093
Mof_O 	O 	0.75208	0.3418	0.4089	-0.398
Mof_C 	C 	0.8238	0.3745	0.2959	0.079
Mof_H 	H 	0.8128	0.3444	0.317	0.015
Mof_C 	C 	0.8585	0.3916	0.2358	-0.167
Mof_H 	H 	0.8696	0.3723	0.2154	0.093
Mof_O 	O 	0.6582	0.41028	0.4089	-0.398
Mof_C 	C 	0.6255	0.4493	0.2959	0.079
Mof_H 	H 	0.6556	0.4684	0.317	0.015
Mof_C 	C 	0.6084	0.4669	0.2358	-0.167
Mof_H 	H 	0.6277	0.4973	0.2154	0.093
Mof_O 	O 	0.58972	0.24792	0.4089	-0.398
Mof_C 	C 	0.5507	0.1762	0.2959	0.079
Mof_H 	H 	0.5316	0.1872	0.317	0.015
Mof_C 	C 	0.5331	0.1415	0.2358	-0.167
Mof_H 	H 	0.5027	0.1304	0.2154	0.093
Mof_O 	O 	0.6582	0.24792	0.5911	-0.398
Mof_C 	C 	0.6255	0.1762	0.7041	0.079
Mof_H 	H 	0.6556	0.1872	0.683	0.015
Mof_C 	C 	0.6084	0.1415	0.7642	-0.167
Mof_H 	H 	0.6277	0.1304	0.7846	0.093
Mof_O 	O 	0.58972	0.3418	0.5911	-0.398
Mof_C 	C 	0.5507	0.3745	0.7041	0.079
Mof_H 	H 	0.5316	0.3444	0.683	0.015
Mof_C 	C 	0.5331	0.3916	0.7642	-0.167
Mof_H 	H 	0.5027	0.3723	0.7846	0.093
Mof_O 	O 	0.75208	0.41028	0.5911	-0.398
Mof_C 	C 	0.8238	0.4493	0.7041	0.079
Mof_H 	H 	0.8128	0.4684	0.683	0.015
Mof_C 	C 	0.8585	0.4669	0.7642	-0.167
Mof_H 	H 	0.8696	0.4973	0.7846	0.093
Mof_O 	O 	0.3418	0.75208	0.5911	-0.398
Mof_C 	C 	0.3745	0.8238	0.7041	0.079
Mof_H 	H 	0.3444	0.8128	0.683	0.015
Mof_C 	C 	0.3916	0.8585	0.7642	-0.167
Mof_H 	H 	0.3723	0.8696	0.7846	0.093
Mof_O 	O 	0.41028	0.6582	0.5911	-0.398
Mof_C 	C 	0.4493	0.6255	0.7041	0.079
Mof_H 	H 	0.4684	0.6556	0.683	0.015
Mof_C 	C 	0.4669	0.6084	0.7642	-0.167
Mof_H 	H 	0.4973	0.6277	0.7846	0.093
Mof_O 	O 	0.24792	0.58972	0.5911	-0.398
Mof_C 	C 	0.1762	0.5507	0.7041	0.079
Mof_H 	H 	0.1872	0.5316	0.683	0.015
Mof_C 	C 	0.1415	0.5331	0.7642	-0.167
Mof_H 	H 	0.1304	0.5027	0.7846	0.093
Mof_N 	N 	0.9311	0.46555	-0	-0.219
Mof_N 	N 	0.53445	0.46555	-0	-0.219
Mof_N 	N 	0.53445	0.0689	-0	-0.219
Mof_N 	N 	0.0689	0.53445	-0	-0.219
Mof_N 	N 	0.46555	0.53445	-0	-0.219
Mof_N 	N 	0.46555	0.9311	-0	-0.219
Mof_Co	Co	-0	0.49051	-0	0.995
Mof_O 	O 	2.9711e-17	0.4607	-0	-1.127
Mof_O 	O 	2.9711e-17	0.4306	-0	0.355
Mof_Co	Co	0.50949	0.50949	-0	0.995
Mof_O 	O 	0.5393	0.5393	-0	-1.127
Mof_O 	O 	0.5694	0.5694	-0	0.355
Mof_Co	Co	0.49051	0	-0	0.995
Mof_O 	O 	0.4607	0	-0	-1.127
Mof_O 	O 	0.4306	0	-0	0.355
Mof_Co	Co	2.9711e-17	0.50949	-0	0.995
Mof_O 	O 	5.9422e-17	0.5393	-0	-1.127
Mof_O 	O 	5.9422e-17	0.5694	-0	0.355
Mof_Co	Co	0.49051	0.49051	-0	0.995
Mof_O 	O 	0.4607	0.4607	-0	-1.127
Mof_O 	O 	0.4306	0.4306	-0	0.355
Mof_Co	Co	0.50949	0	-0	0.995
Mof_O 	O 	0.5393	0	-0	-1.127
Mof_O 	O 	0.5694	0	-0	0.355
Mof_N 	N 	3.31717e-17	0.5	0.8857	-0.223
Mof_N 	N 	0.5	0.5	0.8857	-0.223
Mof_N 	N 	0.5	6.59717e-33	0.8857	-0.223
Mof_N 	N 	0.5	8.24646e-34	0.1143	-0.223
Mof_N 	N 	0.5	0.5	0.1143	-0.223
Mof_N 	N 	-7.22184e-18	0.5	0.1143	-0.223
Mof_C 	C 	0.7657	0.38285	0.6142	0.421
Mof_C 	C 	0.8055	0.40275	0.676	-0.151
Mof_C 	C 	0.8766	0.4383	0.7935	0.127
Mof_C 	C 	0.9141	0.45705	0.8556	-0.137
Mof_C 	C 	0.9612	0.4806	0.8323	0.121
Mof_C 	C 	0.9	0.45	0.9331	0.122
Mof_C 	C 	0.9768	0.4884	0.7524	-0.084
Mof_H 	H 	0.9574	0.4787	0.7075	0.065
Mof_C 	C 	0.8521	0.42605	0.9583	-0.086
Mof_H 	H 	0.8254	0.4127	0.9254	0.067
Mof_C 	C 	0.61715	0.38285	0.6142	0.421
Mof_C 	C 	0.59725	0.40275	0.676	-0.151
Mof_C 	C 	0.5617	0.4383	0.7935	0.127
Mof_C 	C 	0.54295	0.45705	0.8556	-0.137
Mof_C 	C 	0.5194	0.4806	0.8323	0.121
Mof_C 	C 	0.55	0.45	0.9331	0.122
Mof_C 	C 	0.5116	0.4884	0.7524	-0.084
Mof_H 	H 	0.5213	0.4787	0.7075	0.065
Mof_C 	C 	0.57395	0.42605	0.9583	-0.085
Mof_H 	H 	0.5873	0.4127	0.9254	0.067
Mof_C 	C 	0.61715	0.2343	0.6142	0.421
Mof_C 	C 	0.59725	0.1945	0.676	-0.151
Mof_C 	C 	0.5617	0.1234	0.7935	0.127
Mof_C 	C 	0.54295	0.0859	0.8556	-0.137
Mof_C 	C 	0.5194	0.0388	0.8323	0.121
Mof_C 	C 	0.55	0.1	0.9331	0.123
Mof_C 	C 	0.5116	0.0232	0.7524	-0.084
Mof_H 	H 	0.5213	0.0426	0.7075	0.065
Mof_C 	C 	0.57395	0.1479	0.9583	-0.085
Mof_H 	H 	0.5873	0.1746	0.9254	0.067
Mof_C 	C 	0.2343	0.61715	0.6142	0.421
Mof_C 	C 	0.1945	0.59725	0.676	-0.151
Mof_C 	C 	0.1234	0.5617	0.7935	0.127
Mof_C 	C 	0.0859	0.54295	0.8556	-0.137
Mof_C 	C 	0.0388	0.5194	0.8323	0.121
Mof_C 	C 	0.1	0.55	0.9331	0.123
Mof_C 	C 	0.0232	0.5116	0.7524	-0.084
Mof_H 	H 	0.0426	0.5213	0.7075	0.065
Mof_C 	C 	0.1479	0.57395	0.9583	-0.085
Mof_H 	H 	0.1746	0.5873	0.9254	0.067
Mof_C 	C 	0.38285	0.61715	0.6142	0.421
Mof_C 	C 	0.40275	0.59725	0.676	-0.151
Mof_C 	C 	0.4383	0.5617	0.7935	0.127
Mof_C 	C 	0.45705	0.54295	0.8556	-0.137
Mof_C 	C 	0.4806	0.5194	0.8323	0.121
Mof_C 	C 	0.45	0.55	0.9331	0.122
Mof_C 	C 	0.4884	0.5116	0.7524	-0.084
Mof_H 	H 	0.4787	0.5213	0.7075	0.065
Mof_C 	C 	0.42605	0.57395	0.9583	-0.085
Mof_H 	H 	0.4127	0.5873	0.9254	0.067
Mof_C 	C 	0.38285	0.7657	0.6142	0.421
Mof_C 	C 	0.40275	0.8055	0.676	-0.151
Mof_C 	C 	0.4383	0.8766	0.7935	0.127
Mof_C 	C 	0.45705	0.9141	0.8556	-0.137
Mof_C 	C 	0.4806	0.9612	0.8323	0.121
Mof_C 	C 	0.45	0.9	0.9331	0.122
Mof_C 	C 	0.4884	0.9768	0.7524	-0.084
Mof_H 	H 	0.4787	0.9574	0.7075	0.065
Mof_C 	C 	0.42605	0.8521	0.9583	-0.086
Mof_H 	H 	0.4127	0.8254	0.9254	0.067
Mof_C 	C 	0.38285	0.7657	0.3858	0.421
Mof_C 	C 	0.40275	0.8055	0.324	-0.151
Mof_C 	C 	0.4383	0.8766	0.2065	0.127
Mof_C 	C 	0.45705	0.9141	0.1444	-0.137
Mof_C 	C 	0.4806	0.9612	0.1677	0.121
Mof_C 	C 	0.45	0.9	0.0669	0.122
Mof_C 	C 	0.4884	0.9768	0.2476	-0.084
Mof_H 	H 	0.4787	0.9574	0.2925	0.065
Mof_C 	C 	0.42605	0.8521	0.0417	-0.086
Mof_H 	H 	0.4127	0.8254	0.0746	0.067
Mof_C 	C 	0.38285	0.61715	0.3858	0.421
Mof_C 	C 	0.40275	0.59725	0.324	-0.151
Mof_C 	C 	0.4383	0.5617	0.2065	0.127
Mof_C 	C 	0.45705	0.54295	0.1444	-0.137
Mof_C 	C 	0.4806	0.5194	0.1677	0.121
Mof_C 	C 	0.45	0.55	0.0669	0.122
Mof_C 	C 	0.4884	0.5116	0.2476	-0.084
Mof_H 	H 	0.4787	0.5213	0.2925	0.065
Mof_C 	C 	0.42605	0.57395	0.0417	-0.086
Mof_H 	H 	0.4127	0.5873	0.0746	0.067
Mof_C 	C 	0.2343	0.61715	0.3858	0.421
Mof_C 	C 	0.1945	0.59725	0.324	-0.151
Mof_C 	C 	0.1234	0.5617	0.2065	0.127
Mof_C 	C 	0.0859	0.54295	0.1444	-0.137
Mof_C 	C 	0.0388	0.5194	0.1677	0.121
Mof_C 	C 	0.1	0.55	0.0669	0.123
Mof_C 	C 	0.0232	0.5116	0.2476	-0.084
Mof_H 	H 	0.0426	0.5213	0.2925	0.065
Mof_C 	C 	0.1479	0.57395	0.0417	-0.087
Mof_H 	H 	0.1746	0.5873	0.0746	0.067
Mof_C 	C 	0.61715	0.2343	0.3858	0.421
Mof_C 	C 	0.59725	0.1945	0.324	-0.151
Mof_C 	C 	0.5617	0.1234	0.2065	0.127
Mof_C 	C 	0.54295	0.0859	0.1444	-0.137
Mof_C 	C 	0.5194	0.0388	0.1677	0.121
Mof_C 	C 	0.55	0.1	0.0669	0.123
Mof_C 	C 	0.5116	0.0232	0.2476	-0.084
Mof_H 	H 	0.5213	0.0426	0.2925	0.065
Mof_C 	C 	0.57395	0.1479	0.0417	-0.087
Mof_H 	H 	0.5873	0.1746	0.0746	0.067
Mof_C 	C 	0.61715	0.38285	0.3858	0.421
Mof_C 	C 	0.59725	0.40275	0.324	-0.151
Mof_C 	C 	0.5617	0.4383	0.2065	0.127
Mof_C 	C 	0.54295	0.45705	0.1444	-0.137
Mof_C 	C 	0.5194	0.4806	0.1677	0.121
Mof_C 	C 	0.55	0.45	0.0669	0.122
Mof_C 	C 	0.5116	0.4884	0.2476	-0.084
Mof_H 	H 	0.5213	0.4787	0.2925	0.065
Mof_C 	C 	0.57395	0.42605	0.0417	-0.086
Mof_H 	H 	0.5873	0.4127	0.0746	0.067
Mof_C 	C 	0.7657	0.38285	0.3858	0.421
Mof_C 	C 	0.8055	0.40275	0.324	-0.151
Mof_C 	C 	0.8766	0.4383	0.2065	0.127
Mof_C 	C 	0.9141	0.45705	0.1444	-0.137
Mof_C 	C 	0.9612	0.4806	0.1677	0.121
Mof_C 	C 	0.9	0.45	0.0669	0.122
Mof_C 	C 	0.9768	0.4884	0.2476	-0.084
Mof_H 	H 	0.9574	0.4787	0.2925	0.065
Mof_C 	C 	0.8521	0.42605	0.0417	-0.086
Mof_H 	H 	0.8254	0.4127	0.0746	0.067
Mof_Mn	Mn	0.70372	0.29628	0.5	0.963
Mof_Mn	Mn	0.70372	0.40744	0.5	0.963
Mof_Mn	Mn	0.59256	0.29628	0.5	0.963
Mof_Mn	Mn	0.29628	0.70372	0.5	0.963
Mof_Mn	Mn	0.29628	0.59256	0.5	0.963
Mof_Mn	Mn	0.40744	0.70372	0.5	0.963
Mof_O 	O 	0.66667	0.33333	0.5	-0.469
Mof_O 	O 	0.33333	0.66667	0.5	-0.469
_end
