data_functionalizedCrystal
_audit_creation_method	'EQeq! by Chris Wilmer'
_symmetry_space_group_name_H-M	'P1'
_symmetry_Int_Tables_number	1
_symmetry_cell_setting	triclinic
loop_
_symmetry_equiv_pos_as_xyz
  x,y,z
_cell_length_a	14.5275
_cell_length_b	14.5275
_cell_length_c	14.5275
_cell_angle_alpha	90
_cell_angle_beta	90
_cell_angle_gamma	90
loop_
_atom_site_label
_atom_site_type_symbol
_atom_site_fract_x
_atom_site_fract_y
_atom_site_fract_z
_atom_site_charge
Mof_Cu	Cu	1.10454e-32	0.5	0.75	0.928
Mof_Cu	Cu	-3.17934e-33	0.5	0.25	0.925
Mof_Cu	Cu	0.75	0	0.5	0.928
Mof_Cu	Cu	0.25	0	0.5	0.925
Mof_Cu	Cu	0.5	0.75	-0	0.928
Mof_Cu	Cu	0.5	0.25	-0	0.925
Mof_Cu	Cu	0.5	0	0.25	0.926
Mof_Cu	Cu	0.5	0	0.75	0.929
Mof_Cu	Cu	1.83414e-32	0.75	0.5	0.929
Mof_Cu	Cu	-6.35867e-33	0.25	0.5	0.926
Mof_Cu	Cu	0.75	0.5	-0	0.929
Mof_Cu	Cu	0.25	0.5	-0	0.926
Mof_C 	C 	0.8297	0.5	0.8297	0.469
Mof_O 	O 	0.8915	0.5	0.8915	-0.227
Mof_C 	C 	0.3297	0	0.3297	0.491
Mof_O 	O 	0.3915	0	0.3915	-0.334
Mof_C 	C 	0.1703	0.5	0.8297	0.481
Mof_O 	O 	0.1085	0.5	0.8915	-0.288
Mof_C 	C 	0.6703	0	0.3297	0.488
Mof_O 	O 	0.6085	0	0.3915	-0.332
Mof_C 	C 	0.1703	0.5	0.1703	0.492
Mof_O 	O 	0.1085	0.5	0.1085	-0.349
Mof_C 	C 	0.6703	0	0.6703	0.484
Mof_O 	O 	0.6085	0	0.6085	-0.33
Mof_C 	C 	0.8297	0.5	0.1703	0.481
Mof_O 	O 	0.8915	0.5	0.1085	-0.288
Mof_C 	C 	0.3297	0	0.6703	0.488
Mof_O 	O 	0.3915	0	0.6085	-0.332
Mof_C 	C 	0.8297	0.8297	0.5	0.469
Mof_O 	O 	0.8915	0.8915	0.5	-0.227
Mof_C 	C 	0.3297	0.3297	-0	0.491
Mof_O 	O 	0.3915	0.3915	-0	-0.334
Mof_C 	C 	0.8297	0.1703	0.5	0.481
Mof_O 	O 	0.8915	0.1085	0.5	-0.288
Mof_C 	C 	0.3297	0.6703	-0	0.488
Mof_O 	O 	0.3915	0.6085	-0	-0.332
Mof_C 	C 	0.1703	0.1703	0.5	0.492
Mof_O 	O 	0.1085	0.1085	0.5	-0.349
Mof_C 	C 	0.6703	0.6703	-0	0.484
Mof_O 	O 	0.6085	0.6085	-0	-0.33
Mof_C 	C 	0.1703	0.8297	0.5	0.481
Mof_O 	O 	0.1085	0.8915	0.5	-0.288
Mof_C 	C 	0.6703	0.3297	-0	0.488
Mof_O 	O 	0.6085	0.3915	-0	-0.332
Mof_C 	C 	0.5	0.8297	0.8297	0.469
Mof_O 	O 	0.5	0.8915	0.8915	-0.227
Mof_C 	C 	1.23618e-33	0.3297	0.3297	0.491
Mof_O 	O 	1.46789e-33	0.3915	0.3915	-0.334
Mof_C 	C 	0.5	0.8297	0.1703	0.481
Mof_O 	O 	0.5	0.8915	0.1085	-0.288
Mof_C 	C 	2.51322e-33	0.3297	0.6703	0.488
Mof_O 	O 	1.87483e-32	0.3915	0.6085	-0.332
Mof_C 	C 	0.5	0.1703	0.1703	0.492
Mof_O 	O 	0.5	0.1085	0.1085	-0.349
Mof_C 	C 	2.51322e-33	0.6703	0.6703	0.484
Mof_O 	O 	2.28151e-33	0.6085	0.6085	-0.33
Mof_C 	C 	0.5	0.1703	0.8297	0.481
Mof_O 	O 	0.5	0.1085	0.8915	-0.288
Mof_C 	C 	1.23618e-33	0.6703	0.3297	0.488
Mof_O 	O 	1.38179e-32	0.6085	0.3915	-0.332
Mof_O 	O 	0.8544	0.5	0.7467	-0.261
Mof_O 	O 	0.3544	0	0.2467	-0.362
Mof_O 	O 	0.1456	0.5	0.7467	-0.312
Mof_O 	O 	0.6456	0	0.2467	-0.349
Mof_O 	O 	0.1456	0.5	0.2533	-0.325
Mof_O 	O 	0.6456	0	0.7533	-0.328
Mof_O 	O 	0.8544	0.5	0.2533	-0.274
Mof_O 	O 	0.3544	0	0.7533	-0.34
Mof_O 	O 	0.7467	0.8544	0.5	-0.261
Mof_O 	O 	0.2467	0.3544	-0	-0.362
Mof_O 	O 	0.7467	0.1456	0.5	-0.312
Mof_O 	O 	0.2467	0.6456	-0	-0.349
Mof_O 	O 	0.2533	0.1456	0.5	-0.325
Mof_O 	O 	0.7533	0.6456	-0	-0.328
Mof_O 	O 	0.2533	0.8544	0.5	-0.274
Mof_O 	O 	0.7533	0.3544	-0	-0.34
Mof_O 	O 	0.5	0.7467	0.8544	-0.261
Mof_O 	O 	-2.7879e-33	0.2467	0.3544	-0.362
Mof_O 	O 	0.5	0.7467	0.1456	-0.312
Mof_O 	O 	2.42061e-33	0.2467	0.6456	-0.349
Mof_O 	O 	0.5	0.2533	0.1456	-0.325
Mof_O 	O 	1.0654e-32	0.7533	0.6456	-0.328
Mof_O 	O 	0.5	0.2533	0.8544	-0.274
Mof_O 	O 	1.32879e-33	0.7533	0.3544	-0.34
Mof_O 	O 	0.5	0.8544	0.2533	-0.274
Mof_O 	O 	-5.40895e-33	0.3544	0.7533	-0.34
Mof_O 	O 	0.5	0.1456	0.2533	-0.325
Mof_O 	O 	1.10578e-32	0.6456	0.7533	-0.328
Mof_O 	O 	0.5	0.1456	0.7467	-0.312
Mof_O 	O 	7.10001e-33	0.6456	0.2467	-0.349
Mof_O 	O 	0.5	0.8544	0.7467	-0.261
Mof_O 	O 	-1.13337e-33	0.3544	0.2467	-0.362
Mof_O 	O 	0.8544	0.7467	0.5	-0.261
Mof_O 	O 	0.3544	0.2467	-0	-0.362
Mof_O 	O 	0.1456	0.7467	0.5	-0.312
Mof_O 	O 	0.6456	0.2467	-0	-0.349
Mof_O 	O 	0.1456	0.2533	0.5	-0.325
Mof_O 	O 	0.6456	0.7533	-0	-0.328
Mof_O 	O 	0.8544	0.2533	0.5	-0.274
Mof_O 	O 	0.3544	0.7533	-0	-0.34
Mof_O 	O 	0.7467	0.5	0.1456	-0.312
Mof_O 	O 	0.2467	8.23337e-33	0.6456	-0.349
Mof_O 	O 	0.7467	0.5	0.8544	-0.261
Mof_O 	O 	0.2467	0	0.3544	-0.362
Mof_O 	O 	0.2533	0.5	0.8544	-0.274
Mof_O 	O 	0.7533	0	0.3544	-0.34
Mof_O 	O 	0.2533	0.5	0.1456	-0.325
Mof_O 	O 	0.7533	8.23337e-33	0.6456	-0.328
_end
