data_functionalizedCrystal
_audit_creation_method	'EQeq! by Chris Wilmer'
_symmetry_space_group_name_H-M	'P1'
_symmetry_Int_Tables_number	1
_symmetry_cell_setting	triclinic
loop_
_symmetry_equiv_pos_as_xyz
  x,y,z
_cell_length_a	7.3354
_cell_length_b	10.179
_cell_length_c	18.14
_cell_angle_alpha	90
_cell_angle_beta	90
_cell_angle_gamma	94.337
loop_
_atom_site_label
_atom_site_type_symbol
_atom_site_fract_x
_atom_site_fract_y
_atom_site_fract_z
_atom_site_charge
Mof_Cu	Cu	0.86541	0.21696	0.90551	0.917
Mof_Cu	Cu	0.04318	0.93154	0.9315	0.933
Mof_Cu	Cu	0.63459	0.28304	0.40551	0.918
Mof_Cu	Cu	0.45682	0.56846	0.4315	0.939
Mof_Cu	Cu	0.13459	0.78304	0.09449	0.918
Mof_Cu	Cu	0.95682	0.06846	0.0685	0.934
Mof_Cu	Cu	0.36541	0.71696	0.59449	0.918
Mof_Cu	Cu	0.54318	0.43154	0.5685	0.939
Mof_H 	H 	0.7817	0.1657	0.6923	0.049
Mof_H 	H 	0.9366	0.796	0.7067	0.035
Mof_H 	H 	0.7807	0.9384	0.5111	0.029
Mof_H 	H 	0.7183	0.3343	0.1923	0.046
Mof_H 	H 	0.5634	0.704	0.2067	0.033
Mof_H 	H 	0.7193	0.5616	0.0111	0.029
Mof_H 	H 	0.2183	0.8343	0.3077	0.049
Mof_H 	H 	0.0634	0.204	0.2933	0.035
Mof_H 	H 	0.2193	0.0616	0.4889	0.029
Mof_H 	H 	0.2817	0.6657	0.8077	0.046
Mof_H 	H 	0.4366	0.296	0.7933	0.033
Mof_H 	H 	0.2807	0.4384	0.9889	0.029
Mof_C 	C 	0.8614	0.8496	0.6041	-0.148
Mof_C 	C 	0.7709	0.0693	0.595	-0.128
Mof_C 	C 	0.8034	0.0861	0.6701	0.058
Mof_C 	C 	0.868	0.9849	0.7124	-0.117
Mof_C 	C 	0.9021	0.0091	0.7928	0.376
Mof_C 	C 	0.8957	0.865	0.6792	0.061
Mof_C 	C 	0.8009	0.9503	0.5614	0.066
Mof_C 	C 	0.699	0.1821	0.5535	0.389
Mof_C 	C 	0.6386	0.6504	0.1041	-0.149
Mof_C 	C 	0.7291	0.4307	0.095	-0.126
Mof_C 	C 	0.6966	0.4139	0.1701	0.065
Mof_C 	C 	0.632	0.5151	0.2124	-0.127
Mof_C 	C 	0.5979	0.4909	0.2928	0.387
Mof_C 	C 	0.6043	0.635	0.1792	0.065
Mof_C 	C 	0.6991	0.5497	0.0614	0.063
Mof_C 	C 	0.801	0.3179	0.0535	0.385
Mof_C 	C 	0.1386	0.1504	0.3959	-0.148
Mof_C 	C 	0.2291	0.9307	0.405	-0.128
Mof_C 	C 	0.1966	0.9139	0.3299	0.058
Mof_C 	C 	0.132	0.0151	0.2876	-0.117
Mof_C 	C 	0.0979	0.9909	0.2072	0.376
Mof_C 	C 	0.1043	0.135	0.3208	0.061
Mof_C 	C 	0.1991	0.0497	0.4386	0.066
Mof_C 	C 	0.301	0.8179	0.4465	0.389
Mof_C 	C 	0.3614	0.3496	0.8959	-0.149
Mof_C 	C 	0.2709	0.5693	0.905	-0.126
Mof_C 	C 	0.3034	0.5861	0.8299	0.065
Mof_C 	C 	0.368	0.4849	0.7876	-0.127
Mof_C 	C 	0.4021	0.5091	0.7072	0.387
Mof_C 	C 	0.3957	0.365	0.8208	0.065
Mof_C 	C 	0.3009	0.4503	0.9386	0.063
Mof_C 	C 	0.199	0.6821	0.9465	0.385
Mof_S 	S 	0.8794	0.69096	0.56538	0.544
Mof_S 	S 	0.6206	0.80904	0.06538	0.542
Mof_S 	S 	0.1206	0.30904	0.43462	0.544
Mof_S 	S 	0.3794	0.19096	0.93462	0.542
Mof_O 	O 	0.9476	0.9144	0.83197	-0.375
Mof_O 	O 	0.8706	0.0573	0.9652	-0.486
Mof_O 	O 	0.659	0.1634	0.48648	-0.429
Mof_O 	O 	0.8812	0.1253	0.81392	-0.411
Mof_O 	O 	0.8703	0.702	0.4872	-0.282
Mof_O 	O 	0.6855	0.2859	0.58974	-0.392
Mof_O 	O 	0.7261	0.6123	0.5972	-0.376
Mof_O 	O 	0.0491	0.645	0.5926	-0.315
Mof_O 	O 	0.5524	0.5856	0.33197	-0.382
Mof_O 	O 	0.6294	0.4427	0.4652	-0.487
Mof_O 	O 	0.841	0.3366	0.98648	-0.425
Mof_O 	O 	0.6188	0.3747	0.31392	-0.414
Mof_O 	O 	0.6297	0.798	0.9872	-0.282
Mof_O 	O 	0.8145	0.2141	0.08974	-0.393
Mof_O 	O 	0.7739	0.8877	0.0972	-0.374
Mof_O 	O 	0.4509	0.855	0.0926	-0.312
Mof_O 	O 	0.0524	0.0856	0.16803	-0.375
Mof_O 	O 	0.1294	0.9427	0.0348	-0.486
Mof_O 	O 	0.341	0.8366	0.51352	-0.429
Mof_O 	O 	0.1188	0.8747	0.18608	-0.411
Mof_O 	O 	0.1297	0.298	0.5128	-0.282
Mof_O 	O 	0.3145	0.7141	0.41026	-0.392
Mof_O 	O 	0.2739	0.3877	0.4028	-0.376
Mof_O 	O 	0.9509	0.355	0.4074	-0.315
Mof_O 	O 	0.4476	0.4144	0.66803	-0.382
Mof_O 	O 	0.3706	0.5573	0.5348	-0.487
Mof_O 	O 	0.159	0.6634	0.01352	-0.425
Mof_O 	O 	0.3812	0.6253	0.68608	-0.414
Mof_O 	O 	0.3703	0.202	0.0128	-0.282
Mof_O 	O 	0.1855	0.7859	0.91026	-0.393
Mof_O 	O 	0.2261	0.1123	0.9028	-0.374
Mof_O 	O 	0.5491	0.145	0.9074	-0.312
_end
