data_functionalizedCrystal
_audit_creation_method	'EQeq! by Chris Wilmer'
_symmetry_space_group_name_H-M	'P1'
_symmetry_Int_Tables_number	1
_symmetry_cell_setting	triclinic
loop_
_symmetry_equiv_pos_as_xyz
  x,y,z
_cell_length_a	15.4272
_cell_length_b	32.5891
_cell_length_c	32.5891
_cell_angle_alpha	107.08
_cell_angle_beta	99.9268
_cell_angle_gamma	80.0732
loop_
_atom_site_label
_atom_site_type_symbol
_atom_site_fract_x
_atom_site_fract_y
_atom_site_fract_z
_atom_site_charge
Mof_Cu	Cu	0.2038	0.94613	0.29977	0.73
Mof_Cu	Cu	0.32	0.95714	0.3701	0.731
Mof_Cu	Cu	0.37592	0.95397	0.29445	0.727
Mof_Cu	Cu	0.27776	0.8825	0.93404	0.72
Mof_Cu	Cu	0.62408	0.04603	0.70555	0.727
Mof_Cu	Cu	0.72224	0.1175	0.06596	0.72
Mof_Cu	Cu	0.2962	0.29977	0.94613	0.729
Mof_Cu	Cu	0.37911	0.50171	0.78365	0.714
Mof_Cu	Cu	0.87911	0.21635	0.49829	0.714
Mof_Cu	Cu	0.66729	0.51691	0.14897	0.731
Mof_Cu	Cu	0.7962	0.05387	0.70023	0.729
Mof_Cu	Cu	0.1707	0.85638	0.86236	0.707
Mof_Cu	Cu	0.3101	0.3504	0.3884	0.694
Mof_Cu	Cu	0.82	0.6299	0.04286	0.73
Mof_Cu	Cu	0.19553	0.30165	0.33453	0.718
Mof_Cu	Cu	0.66296	0.11955	0.69821	0.731
Mof_Cu	Cu	0.12408	0.29445	0.95397	0.727
Mof_Cu	Cu	0.1477	0.77536	0.42148	0.726
Mof_Cu	Cu	0.78397	0.51236	0.22442	0.726
Mof_Cu	Cu	0.87592	0.70555	0.04603	0.727
Mof_Cu	Cu	0.18	0.3701	0.95714	0.73
Mof_Cu	Cu	0.16729	0.85103	0.48309	0.731
Mof_Cu	Cu	0.6899	0.6496	0.6116	0.694
Mof_Cu	Cu	0.1899	0.3884	0.3504	0.694
Mof_Cu	Cu	0.22224	0.93404	0.8825	0.72
Mof_Cu	Cu	0.62089	0.49829	0.21635	0.714
Mof_Cu	Cu	0.83271	0.14897	0.51691	0.731
Mof_Cu	Cu	0.12089	0.78365	0.50171	0.714
Mof_Cu	Cu	0.33704	0.88045	0.30179	0.731
Mof_Cu	Cu	0.6477	0.57852	0.22464	0.726
Mof_Cu	Cu	0.69553	0.66547	0.69835	0.718
Mof_Cu	Cu	0.3523	0.42148	0.77536	0.726
Mof_Cu	Cu	0.80447	0.69835	0.66547	0.718
Mof_Cu	Cu	0.77776	0.06596	0.1175	0.72
Mof_Cu	Cu	0.71603	0.22442	0.51236	0.726
Mof_Cu	Cu	0.16296	0.30179	0.88045	0.731
Mof_Cu	Cu	0.8523	0.22464	0.57852	0.726
Mof_Cu	Cu	0.7038	0.70023	0.05387	0.729
Mof_Cu	Cu	0.28397	0.77558	0.48764	0.726
Mof_Cu	Cu	0.3293	0.86236	0.85638	0.707
Mof_Cu	Cu	0.30447	0.33453	0.30165	0.718
Mof_Cu	Cu	0.83704	0.69821	0.11955	0.731
Mof_Cu	Cu	0.8293	0.14362	0.13764	0.707
Mof_Cu	Cu	0.68	0.04286	0.6299	0.73
Mof_Cu	Cu	0.8101	0.6116	0.6496	0.694
Mof_Cu	Cu	0.33271	0.48309	0.85103	0.731
Mof_Cu	Cu	0.21603	0.48764	0.77558	0.726
Mof_Cu	Cu	0.6707	0.13764	0.14362	0.707
Mof_H 	H 	0.977	0.1022	0.442	0.039
Mof_H 	H 	0.5869	0.3926	0.5218	0.06
Mof_H 	H 	0.9457	0.7533	0.6485	-0.007
Mof_H 	H 	0.3139	0.7958	0.3256	0.004
Mof_H 	H 	0.8289	0.6227	0.3165	0.051
Mof_H 	H 	0.4636	0.8477	0.5469	0.05
Mof_H 	H 	0.5736	0.9768	0.3212	0.014
Mof_H 	H 	0.9122	0.3751	0.1397	0.072
Mof_H 	H 	0.5722	0.7297	0.4145	0.061
Mof_H 	H 	0.9692	0.1815	0.2241	0.026
Mof_H 	H 	0.9542	0.9952	0.3418	0.063
Mof_H 	H 	0.4362	0.2221	0.2365	0.031
Mof_H 	H 	0.3017	0.7893	0.1721	0.062
Mof_H 	H 	0.3585	0.3389	0.8059	0.003
Mof_H 	H 	0.6711	0.3165	0.6227	0.051
Mof_H 	H 	0.7698	0.0527	0.4617	0.018
Mof_H 	H 	0.4703	0.9945	0.5765	0.066
Mof_H 	H 	0.5458	0.3418	0.9952	0.063
Mof_H 	H 	0.4915	0.4074	0.6548	0.066
Mof_H 	H 	0.1534	0.8768	0.1302	0.074
Mof_H 	H 	0.9351	0.9855	0.7429	0.026
Mof_H 	H 	0.8225	0.9866	0.4858	0.037
Mof_H 	H 	0.9452	0.4347	0.2377	0.021
Mof_H 	H 	0.9117	0.9986	0.2226	0.034
Mof_H 	H 	0.9636	0.4531	0.1523	0.05
Mof_H 	H 	0.1711	0.3773	0.6835	0.051
Mof_H 	H 	0.3355	0.2105	0.7039	0.058
Mof_H 	H 	0.046	0.374	0.0424	0.041
Mof_H 	H 	0.523	0.442	0.1022	0.039
Mof_H 	H 	0.5429	0.8776	0.0646	0.061
Mof_H 	H 	0.059	0.2279	0.7239	0.035
Mof_H 	H 	0.6168	0.7349	0.3153	0.03
Mof_H 	H 	0.8843	0.4998	0.1132	0.065
Mof_H 	H 	0.8017	0.8279	0.2107	0.062
Mof_H 	H 	0.6258	0.0837	0.5555	-0.001
Mof_H 	H 	0.8095	0.5838	0.3952	0.073
Mof_H 	H 	0.5979	0.7335	0.5545	0.028
Mof_H 	H 	0.609	0.6582	0.311	0.027
Mof_H 	H 	0.5267	0.5624	0.831	-0.012
Mof_H 	H 	0.5276	0.7227	0.0935	-0.015
Mof_H 	H 	0.1236	0.2531	0.1505	0.058
Mof_H 	H 	0.1542	0.6346	0.9682	0.062
Mof_H 	H 	0.7711	0.9754	0.229	0.059
Mof_H 	H 	0.8482	0.2077	0.9431	0.06
Mof_H 	H 	0.6973	0.6779	0.5089	0.052
Mof_H 	H 	0.5308	0.2241	0.1815	0.026
Mof_H 	H 	0.0883	0.0014	0.7774	0.034
Mof_H 	H 	0.4166	0.6768	0.8022	0.054
Mof_H 	H 	0.3216	0.9465	0.7471	0.056
Mof_H 	H 	0.8852	0.7704	0.985	0.024
Mof_H 	H 	0.0458	0.0048	0.6582	0.063
Mof_H 	H 	0.567	0.1992	0.769	0.018
Mof_H 	H 	0.5517	0.5135	0.9419	0.066
Mof_H 	H 	0.1558	0.1457	0.2631	0.025
Mof_H 	H 	0.6342	0.5271	0.7207	0.046
Mof_H 	H 	0.3027	0.3221	0.4911	0.052
Mof_H 	H 	0.7277	0.7332	0.793	0.02
Mof_H 	H 	0.0149	0.7584	0.9426	0.032
Mof_H 	H 	0.3466	0.1302	0.8768	0.074
Mof_H 	H 	0.0517	0.0581	0.4865	0.066
Mof_H 	H 	0.9131	0.5218	0.3926	0.06
Mof_H 	H 	0.3386	0.6591	0.8499	0.079
Mof_H 	H 	0.607	0.7832	0.15	0.059
Mof_H 	H 	0.1415	0.8059	0.3389	0.003
Mof_H 	H 	0.4483	0.4865	0.0581	0.066
Mof_H 	H 	0.0746	0.1365	0.7675	0.057
Mof_H 	H 	0.933	0.769	0.1992	0.018
Mof_H 	H 	0.9862	0.2908	0.5012	0.02
Mof_H 	H 	0.5364	0.1523	0.4531	0.05
Mof_H 	H 	0.3818	0.6042	0.264	0.066
Mof_H 	H 	0.5649	0.7429	0.9855	0.026
Mof_H 	H 	0.6645	0.7895	0.2961	0.058
Mof_H 	H 	0.4636	0.8703	0.1915	0.057
Mof_H 	H 	0.6864	0.2833	0.0793	0.076
Mof_H 	H 	0.829	0.6893	0.8653	0.062
Mof_H 	H 	0.3259	0.0135	0.8893	0.039
Mof_H 	H 	0.844	0.6186	0.7976	0.073
Mof_H 	H 	0.1168	0.6847	0.2651	0.03
Mof_H 	H 	0.0555	0.9136	0.435	0.001
Mof_H 	H 	0.0276	0.9065	0.2773	-0.015
Mof_H 	H 	0.5545	0.2694	0.558	-0.017
Mof_H 	H 	0.2723	0.2668	0.207	0.02
Mof_H 	H 	0.0308	0.8185	0.7759	0.026
Mof_H 	H 	0.4117	0.7774	0.0014	0.034
Mof_H 	H 	0.0869	0.4782	0.6074	0.06
Mof_H 	H 	0.8658	0.7207	0.5271	0.046
Mof_H 	H 	0.4733	0.4376	0.169	-0.012
Mof_H 	H 	0.6841	0.5522	0.8626	0.06
Mof_H 	H 	0.3159	0.4478	0.1374	0.06
Mof_H 	H 	0.4692	0.7759	0.8185	0.026
Mof_H 	H 	0.8007	0.3776	0.7076	0.065
Mof_H 	H 	0.5258	0.6429	0.5323	0.001
Mof_H 	H 	0.2698	0.5383	0.9473	0.018
Mof_H 	H 	0.5297	0.0055	0.4235	0.066
Mof_H 	H 	0.3586	0.332	0.1172	0.071
Mof_H 	H 	0.319	0.5294	0.3484	0.07
Mof_H 	H 	0.156	0.3814	0.2024	0.073
Mof_H 	H 	0.6157	0.1132	0.4998	0.065
Mof_H 	H 	0.2277	0.207	0.2668	0.02
Mof_H 	H 	0.4254	0.7675	0.1365	0.057
Mof_H 	H 	0.0736	0.6788	0.0232	0.014
Mof_H 	H 	0.1227	0.685	0.843	0.066
Mof_H 	H 	0.4749	0.3838	0.951	0.066
Mof_H 	H 	0.0085	0.6548	0.4074	0.066
Mof_H 	H 	0.5548	0.2377	0.4347	0.021
Mof_H 	H 	0.3482	0.0569	0.7923	0.06
Mof_H 	H 	0.0364	0.5469	0.8477	0.05
Mof_H 	H 	0.1841	0.1374	0.4478	0.06
Mof_H 	H 	0.6861	0.2042	0.6744	0.004
Mof_H 	H 	0.0364	0.1915	0.8703	0.057
Mof_H 	H 	0.6784	0.0535	0.2529	0.056
Mof_H 	H 	0.6993	0.7076	0.3776	0.065
Mof_H 	H 	0.8226	0.5414	0.9598	0.015
Mof_H 	H 	0.2069	0.9507	0.6075	0.063
Mof_H 	H 	0.171	0.3107	0.1347	0.062
Mof_H 	H 	0.3095	0.6048	0.4162	0.073
Mof_H 	H 	0.7726	0.5718	0.5362	0.028
Mof_H 	H 	0.1097	0.2398	0.6642	0.062
Mof_H 	H 	0.1784	0.7471	0.9465	0.056
Mof_H 	H 	0.4445	0.435	0.9136	0.001
Mof_H 	H 	0.2828	0.4107	0.2415	0.044
Mof_H 	H 	0.3903	0.6642	0.2398	0.062
Mof_H 	H 	0.8458	0.3654	0.0318	0.062
Mof_H 	H 	0.6614	0.3409	0.1501	0.079
Mof_H 	H 	0.2394	0.0908	0.9076	0.022
Mof_H 	H 	0.5149	0.0574	0.2416	0.032
Mof_H 	H 	0.3777	0.8779	0.7729	-0.013
Mof_H 	H 	0.9377	0.9859	0.1225	-0.03
Mof_H 	H 	0.4264	0.0232	0.6788	0.014
Mof_H 	H 	0.1039	0.8283	0.2785	0.057
Mof_H 	H 	0.9353	0.9294	0.6488	0.073
Mof_H 	H 	0.656	0.7976	0.6186	0.073
Mof_H 	H 	0.6182	0.3958	0.736	0.066
Mof_H 	H 	0.5834	0.3232	0.1978	0.054
Mof_H 	H 	0.4122	0.8603	0.6249	0.071
Mof_H 	H 	0.6122	0.5952	0.4072	0.069
Mof_H 	H 	0.1905	0.4162	0.6048	0.073
Mof_H 	H 	0.4455	0.7306	0.442	-0.017
Mof_H 	H 	0.3832	0.2651	0.6847	0.03
Mof_H 	H 	0.9571	0.0646	0.8776	0.061
Mof_H 	H 	0.1645	0.7039	0.2105	0.058
Mof_H 	H 	0.023	0.8978	0.558	0.039
Mof_H 	H 	0.6148	0.985	0.7704	0.024
Mof_H 	H 	0.8442	0.8543	0.7369	0.025
Mof_H 	H 	0.5138	0.5012	0.2908	0.02
Mof_H 	H 	0.1559	0.7275	0.1497	0.073
Mof_H 	H 	0.3764	0.1505	0.2531	0.058
Mof_H 	H 	0.344	0.2024	0.3814	0.073
Mof_H 	H 	0.9278	0.4145	0.7297	0.061
Mof_H 	H 	0.5647	0.6488	0.9294	0.073
Mof_H 	H 	0.8139	0.6744	0.2042	0.004
Mof_H 	H 	0.8832	0.3153	0.7349	0.03
Mof_H 	H 	0.9254	0.8635	0.2325	0.057
Mof_H 	H 	0.8466	0.1232	0.8698	0.074
Mof_H 	H 	0.819	0.6516	0.4706	0.07
Mof_H 	H 	0.1182	0.264	0.6042	0.066
Mof_H 	H 	0.6518	0.9431	0.2077	0.06
Mof_H 	H 	0.8386	0.1501	0.3409	0.079
Mof_H 	H 	0.1342	0.2793	0.4729	0.046
Mof_H 	H 	0.2302	0.9473	0.5383	0.018
Mof_H 	H 	0.3773	0.843	0.685	0.066
Mof_H 	H 	0.6741	0.9865	0.1107	0.039
Mof_H 	H 	0.7274	0.5362	0.5718	0.028
Mof_H 	H 	0.4724	0.2773	0.9065	-0.015
Mof_H 	H 	0.1258	0.4445	0.9163	-0.001
Mof_H 	H 	0.7172	0.5893	0.7585	0.044
Mof_H 	H 	0.1518	0.7923	0.0569	0.06
Mof_H 	H 	0.067	0.231	0.8008	0.018
Mof_H 	H 	0.4862	0.4988	0.7092	0.02
Mof_H 	H 	0.0979	0.4455	0.2665	0.028
Mof_H 	H 	0.181	0.3484	0.5294	0.07
Mof_H 	H 	0.8594	0.8642	0.1194	0.073
Mof_H 	H 	0.8818	0.736	0.3958	0.066
Mof_H 	H 	0.2931	0.6075	0.9507	0.063
Mof_H 	H 	0.4131	0.6074	0.4782	0.06
Mof_H 	H 	0.4571	0.1224	0.9354	0.061
Mof_H 	H 	0.433	0.8008	0.231	0.018
Mof_H 	H 	0.1588	0.3568	0.7434	0.064
Mof_H 	H 	0.3961	0.2785	0.8283	0.057
Mof_H 	H 	0.891	0.311	0.6582	0.027
Mof_H 	H 	0.8585	0.1941	0.6611	0.003
Mof_H 	H 	0.3442	0.2631	0.1457	0.025
Mof_H 	H 	0.6414	0.668	0.8828	0.071
Mof_H 	H 	0.7931	0.0493	0.3925	0.063
Mof_H 	H 	0.109	0.689	0.3418	0.027
Mof_H 	H 	0.3136	0.7167	0.9207	0.076
Mof_H 	H 	0.6227	0.157	0.315	0.066
Mof_H 	H 	0.3007	0.2924	0.6224	0.065
Mof_H 	H 	0.6775	0.4858	0.9866	0.037
Mof_H 	H 	0.7289	0.229	0.9754	0.059
Mof_H 	H 	0.8831	0.4697	0.9685	0.043
Mof_H 	H 	0.4351	0.2571	0.0145	0.026
Mof_H 	H 	0.7394	0.0924	0.9092	0.022
Mof_H 	H 	0.1414	0.1172	0.332	0.071
Mof_H 	H 	0.1406	0.1358	0.8806	0.073
Mof_H 	H 	0.477	0.558	0.8978	0.039
Mof_H 	H 	0.9703	0.4235	0.0055	0.066
Mof_H 	H 	0.681	0.4706	0.6516	0.07
Mof_H 	H 	0.5543	0.6485	0.7533	-0.006
Mof_H 	H 	0.7828	0.7585	0.5893	0.044
Mof_H 	H 	0.1861	0.3256	0.7958	0.004
Mof_H 	H 	0.8777	0.2271	0.1221	-0.013
Mof_H 	H 	0.9264	0.3212	0.9768	0.014
Mof_H 	H 	0.4278	0.2703	0.5855	0.061
Mof_H 	H 	0.0545	0.442	0.7306	-0.017
Mof_H 	H 	0.0429	0.9354	0.1224	0.061
Mof_H 	H 	0.1223	0.7729	0.8779	-0.013
Mof_H 	H 	0.0267	0.169	0.4376	-0.012
Mof_H 	H 	0.7606	0.9092	0.0924	0.022
Mof_H 	H 	0.1973	0.4911	0.3221	0.052
Mof_H 	H 	0.0251	0.951	0.3838	0.066
Mof_H 	H 	0.1741	0.8893	0.0135	0.039
Mof_H 	H 	0.1983	0.1721	0.7893	0.062
Mof_H 	H 	0.6774	0.9598	0.5414	0.015
Mof_H 	H 	0.671	0.8653	0.6893	0.061
Mof_H 	H 	0.9455	0.558	0.2694	-0.017
Mof_H 	H 	0.3458	0.9682	0.6346	0.062
Mof_H 	H 	0.6983	0.2107	0.8279	0.062
Mof_H 	H 	0.8259	0.1107	0.9865	0.039
Mof_H 	H 	0.0138	0.7092	0.4988	0.02
Mof_H 	H 	0.954	0.626	0.9576	0.041
Mof_H 	H 	0.9724	0.0935	0.7227	-0.015
Mof_H 	H 	0.9483	0.9419	0.5135	0.066
Mof_H 	H 	0.8586	0.8828	0.668	0.071
Mof_H 	H 	0.6169	0.9685	0.4697	0.043
Mof_H 	H 	0.0297	0.5765	0.9945	0.066
Mof_H 	H 	0.6534	0.8698	0.1232	0.074
Mof_H 	H 	0.0623	0.0141	0.8775	-0.03
Mof_H 	H 	0.6905	0.3952	0.5838	0.073
Mof_H 	H 	0.1774	0.4586	0.0402	0.015
Mof_H 	H 	0.5638	0.7779	0.7635	0.031
Mof_H 	H 	0.8903	0.7602	0.3358	0.062
Mof_H 	H 	0.4851	0.9426	0.7584	0.032
Mof_H 	H 	0.9851	0.2416	0.0574	0.032
Mof_H 	H 	0.1775	0.0134	0.5142	0.037
Mof_H 	H 	0.1169	0.5303	0.0315	0.043
Mof_H 	H 	0.3843	0.8868	0.5002	0.065
Mof_H 	H 	0.4021	0.2665	0.4455	0.028
Mof_H 	H 	0.2711	0.771	0.0246	0.059
Mof_H 	H 	0.0649	0.0145	0.2571	0.026
Mof_H 	H 	0.1864	0.9207	0.7167	0.076
Mof_H 	H 	0.8355	0.2961	0.7895	0.058
Mof_H 	H 	0.1148	0.2296	0.015	0.024
Mof_H 	H 	0.6415	0.6611	0.1941	0.003
Mof_H 	H 	0.2606	0.9076	0.0908	0.022
Mof_H 	H 	0.8742	0.5555	0.0837	-0.001
Mof_H 	H 	0.9915	0.3452	0.5926	0.066
Mof_H 	H 	0.5883	0.2226	0.9986	0.034
Mof_H 	H 	0.1122	0.5928	0.4048	0.069
Mof_H 	H 	0.441	0.7239	0.2279	0.035
Mof_H 	H 	0.8961	0.1717	0.7215	0.057
Mof_H 	H 	0.3441	0.1497	0.7275	0.073
Mof_H 	H 	0.9166	0.1978	0.3232	0.054
Mof_H 	H 	0.4377	0.8775	0.0141	-0.03
Mof_H 	H 	0.8441	0.2725	0.8503	0.073
Mof_H 	H 	0.4742	0.3571	0.4677	0.001
Mof_H 	H 	0.1993	0.6224	0.2924	0.065
Mof_H 	H 	0.8773	0.315	0.157	0.066
Mof_H 	H 	0.5746	0.2325	0.8635	0.057
Mof_H 	H 	0.0878	0.6249	0.8603	0.072
Mof_H 	H 	0.7723	0.793	0.7332	0.02
Mof_H 	H 	0.6039	0.7215	0.1717	0.057
Mof_H 	H 	0.8136	0.0793	0.2833	0.076
Mof_H 	H 	0.3226	0.0402	0.4586	0.015
Mof_H 	H 	0.6559	0.8503	0.2725	0.073
Mof_H 	H 	0.5085	0.5926	0.3452	0.066
Mof_H 	H 	0.9733	0.831	0.5624	-0.012
Mof_H 	H 	0.8764	0.7469	0.8495	0.058
Mof_H 	H 	0.8143	0.5775	0.8987	0.07
Mof_H 	H 	0.0722	0.5855	0.2703	0.061
Mof_H 	H 	0.3412	0.7434	0.3568	0.064
Mof_H 	H 	0.5251	0.6162	0.049	0.066
Mof_H 	H 	0.454	0.0424	0.374	0.041
Mof_H 	H 	0.8159	0.8626	0.5522	0.06
Mof_H 	H 	0.3878	0.4048	0.5928	0.069
Mof_H 	H 	0.0647	0.0706	0.3512	0.073
Mof_H 	H 	0.3143	0.1013	0.4225	0.07
Mof_H 	H 	0.107	0.85	0.2168	0.059
Mof_H 	H 	0.9021	0.5545	0.7335	0.028
Mof_H 	H 	0.0258	0.4677	0.3571	0.001
Mof_H 	H 	0.3742	0.9163	0.4445	-0.001
Mof_H 	H 	0.0548	0.5653	0.7623	0.021
Mof_H 	H 	0.329	0.1347	0.3107	0.061
Mof_H 	H 	0.4542	0.6582	0.0048	0.063
Mof_H 	H 	0.6236	0.8495	0.7469	0.058
Mof_H 	H 	0.9362	0.7635	0.7779	0.031
Mof_H 	H 	0.393	0.2168	0.85	0.059
Mof_H 	H 	0.559	0.2761	0.7721	0.035
Mof_H 	H 	0.893	0.15	0.7832	0.059
Mof_H 	H 	0.0638	0.2365	0.2221	0.031
Mof_H 	H 	0.2726	0.4638	0.4282	0.028
Mof_H 	H 	0.6097	0.3358	0.7602	0.062
Mof_H 	H 	0.2289	0.0246	0.771	0.059
Mof_H 	H 	0.1614	0.8499	0.6591	0.079
Mof_H 	H 	0.6558	0.7369	0.8543	0.025
Mof_H 	H 	0.3658	0.4729	0.2793	0.046
Mof_H 	H 	0.6542	0.0318	0.3654	0.062
Mof_H 	H 	0.3225	0.5142	0.0134	0.037
Mof_H 	H 	0.9636	0.8085	0.1297	0.057
Mof_H 	H 	0.6588	0.2566	0.6432	0.064
Mof_H 	H 	0.5555	0.565	0.0864	0.001
Mof_H 	H 	0.9445	0.0864	0.565	0.001
Mof_H 	H 	0.546	0.9576	0.626	0.041
Mof_H 	H 	0.3831	0.0315	0.5303	0.043
Mof_H 	H 	0.4452	0.7623	0.5653	0.021
Mof_H 	H 	0.391	0.3418	0.689	0.027
Mof_H 	H 	0.0543	0.2467	0.3515	-0.007
Mof_H 	H 	0.8412	0.6432	0.2566	0.064
Mof_H 	H 	0.9749	0.049	0.6162	0.066
Mof_H 	H 	0.7302	0.4617	0.0527	0.018
Mof_H 	H 	0.6406	0.1194	0.8642	0.073
Mof_H 	H 	0.8878	0.4072	0.5952	0.069
Mof_H 	H 	0.3594	0.8806	0.1358	0.073
Mof_H 	H 	0.1157	0.5002	0.8868	0.065
Mof_H 	H 	0.5623	0.1225	0.9859	-0.03
Mof_H 	H 	0.6223	0.1221	0.2271	-0.013
Mof_H 	H 	0.2274	0.4282	0.4638	0.028
Mof_H 	H 	0.4353	0.3512	0.0706	0.073
Mof_H 	H 	0.0834	0.8022	0.6768	0.054
Mof_H 	H 	0.3852	0.015	0.2296	0.024
Mof_H 	H 	0.9742	0.5323	0.6429	0.001
Mof_H 	H 	0.8027	0.5089	0.6779	0.052
Mof_H 	H 	0.5878	0.1397	0.3751	0.071
Mof_H 	H 	0.8216	0.2529	0.0535	0.056
Mof_H 	H 	0.1857	0.4225	0.1013	0.07
Mof_H 	H 	0.4457	0.3515	0.2467	-0.006
Mof_H 	H 	0.6857	0.8987	0.5775	0.07
Mof_H 	H 	0.5364	0.1297	0.8085	0.057
Mof_H 	H 	0.941	0.7721	0.2761	0.035
Mof_H 	H 	0.3289	0.6835	0.3773	0.051
Mof_H 	H 	0.2172	0.2415	0.4107	0.044
Mof_H 	H 	0.7069	0.3925	0.0493	0.063
Mof_C 	C 	0.1313	0.4574	0.9466	0.082
Mof_C 	C 	0.6291	0.3972	0.5856	-0.085
Mof_C 	C 	0.3436	0.962	0.6948	0.091
Mof_C 	C 	0.8888	0.6882	0.861	-0.066
Mof_C 	C 	0.4807	0.1024	0.4108	0.078
Mof_C 	C 	0.4284	0.942	0.5322	0.113
Mof_C 	C 	0.366	0.3305	0.7761	0.082
Mof_C 	C 	0.9826	0.8341	0.1277	-0.076
Mof_C 	C 	0.1476	0.7482	0.1766	-0.099
Mof_C 	C 	0.8729	0.7171	0.3675	-0.091
Mof_C 	C 	0.0537	0.8924	0.6512	0.109
Mof_C 	C 	0.8803	0.2904	0.7108	0.012
Mof_C 	C 	0.8415	0.5354	0.987	0.026
Mof_C 	C 	0.202	0.7183	0.9469	-0.071
Mof_C 	C 	0.3006	0.2993	0.5961	-0.084
Mof_C 	C 	0.3687	0.7723	0.1207	-0.066
Mof_C 	C 	0.5796	0.6661	0.8757	-0.063
Mof_C 	C 	0.467	0.4568	0.0452	-0.086
Mof_C 	C 	0.1827	0.2073	0.2835	-0.027
Mof_C 	C 	0.2892	0.1176	0.7918	0.087
Mof_C 	C 	0.7776	0.9452	0.2256	-0.068
Mof_C 	C 	0.3552	0.2815	0.1741	0.021
Mof_C 	C 	0.5471	0.2384	0.9818	0.011
Mof_C 	C 	0.6845	0.5699	0.8083	0.083
Mof_C 	C 	0.9381	0.7509	0.9873	-0.007
Mof_C 	C 	0.9677	0.4471	0.1223	-0.058
Mof_C 	C 	0.3764	0.2936	0.5354	0.086
Mof_C 	C 	0.3687	0.9466	0.4574	0.083
Mof_C 	C 	0.7224	0.2256	0.9452	-0.068
Mof_C 	C 	0.1587	0.3994	0.147	0.095
Mof_C 	C 	0.4867	0.2022	0.2278	0.008
Mof_C 	C 	0.1112	0.3118	0.139	-0.066
Mof_C 	C 	0.7699	0.0515	0.3643	-0.07
Mof_C 	C 	0.1564	0.6948	0.962	0.091
Mof_C 	C 	0.5461	0.388	0.052	0.08
Mof_C 	C 	0.8173	0.7927	0.7165	-0.027
Mof_C 	C 	0.5127	0.5156	0.736	0.014
Mof_C 	C 	0.9892	0.6278	0.4044	-0.076
Mof_C 	C 	0.9152	0.2222	0.147	0.088
Mof_C 	C 	0.3118	0.5136	0.949	0.019
Mof_C 	C 	0.3428	0.6798	0.349	-0.07
Mof_C 	C 	0.298	0.9469	0.7183	-0.071
Mof_C 	C 	0.5224	0.6015	0.4485	0.095
Mof_C 	C 	0.0107	0.7442	0.9636	0.005
Mof_C 	C 	0.967	0.9548	0.5432	-0.085
Mof_C 	C 	0.8407	0.0144	0.499	0.001
Mof_C 	C 	0.6323	0.2901	0.7039	0.092
Mof_C 	C 	0.1845	0.1917	0.4301	0.083
Mof_C 	C 	0.9007	0.1436	0.3398	-0.097
Mof_C 	C 	0.5353	0.5497	0.8015	0.098
Mof_C 	C 	0.2709	0.5797	0.3223	0.1
Mof_C 	C 	0.7307	0.4592	0.6684	-0.086
Mof_C 	C 	0.6322	0.7497	0.2363	0.075
Mof_C 	C 	0.3407	0.501	0.9856	0.001
Mof_C 	C 	0.9807	0.5892	0.8976	0.078
Mof_C 	C 	0.2108	0.7918	0.1176	0.087
Mof_C 	C 	0.0785	0.5249	0.9009	-0.105
Mof_C 	C 	0.9652	0.1958	0.2022	0.004
Mof_C 	C 	0.3173	0.2835	0.2073	-0.027
Mof_C 	C 	0.5935	0.5425	0.0699	0.079
Mof_C 	C 	0.7169	0.2997	0.0681	-0.08
Mof_C 	C 	0.1572	0.349	0.6798	-0.07
Mof_C 	C 	0.9148	0.7515	0.2521	0.006
Mof_C 	C 	0.3787	0.6684	0.2686	-0.071
Mof_C 	C 	0.8613	0.925	0.234	0.084
Mof_C 	C 	0.9873	0.736	0.5156	0.014
Mof_C 	C 	0.5193	0.8976	0.5892	0.078
Mof_C 	C 	0.4658	0.3456	0.0968	-0.088
Mof_C 	C 	0.9741	0.0909	0.8765	-0.076
Mof_C 	C 	0.9715	0.4299	0.0359	-0.105
Mof_C 	C 	0.1887	0.3954	0.1896	-0.088
Mof_C 	C 	0.7937	0.581	0.8706	-0.078
Mof_C 	C 	0.6572	0.3202	0.651	-0.07
Mof_C 	C 	0.9044	0.7417	0.5307	-0.002
Mof_C 	C 	0.6197	0.7108	0.2904	0.012
Mof_C 	C 	0.033	0.0452	0.4568	-0.085
Mof_C 	C 	0.0578	0.0947	0.8793	0.092
Mof_C 	C 	0.7353	0.5883	0.7877	-0.056
Mof_C 	C 	0.4645	0.734	0.472	0.104
Mof_C 	C 	0.2831	0.7003	0.9319	-0.08
Mof_C 	C 	0.552	0.5598	0.9988	0.089
Mof_C 	C 	0.5507	0.5971	0.4091	-0.071
Mof_C 	C 	0.0353	0.1985	0.4503	0.098
Mof_C 	C 	0.204	0.1416	0.785	-0.069
Mof_C 	C 	0.3993	0.5985	0.3749	0.098
Mof_C 	C 	0.1322	0.7637	0.2503	0.075
Mof_C 	C 	0.5894	0.6702	0.7702	0.108
Mof_C 	C 	0.4833	0.0578	0.4008	-0.058
Mof_C 	C 	0.2353	0.2123	0.4117	-0.056
Mof_C 	C 	0.5435	0.99123	0.30037	0.043
Mof_C 	C 	0.8006	0.4039	0.7007	-0.084
Mof_C 	C 	0.3736	0.0088	0.5046	-0.013
Mof_C 	C 	0.8736	0.4954	0.9912	-0.013
Mof_C 	C 	0.0636	0.6847	0.8475	-0.067
Mof_C 	C 	0.0766	0.4761	0.3769	0.056
Mof_C 	C 	0.8687	0.8793	0.2277	-0.066
Mof_C 	C 	0.8662	0.2102	0.8224	0.1
Mof_C 	C 	0.0435	0.69963	0.00877	0.043
Mof_C 	C 	0.5619	0.9873	0.7509	-0.007
Mof_C 	C 	0.4652	0.7978	0.8042	0.005
Mof_C 	C 	0.9422	0.9053	0.1207	0.092
Mof_C 	C 	0.2307	0.3316	0.5408	-0.086
Mof_C 	C 	0.0174	0.1659	0.8723	-0.076
Mof_C 	C 	0.947	0.1715	0.3285	-0.053
Mof_C 	C 	0.704	0.215	0.8584	-0.069
Mof_C 	C 	0.9106	0.7702	0.6702	0.108
Mof_C 	C 	0.7301	0.3643	0.0515	-0.07
Mof_C 	C 	0.7108	0.8824	0.2082	0.087
Mof_C 	C 	0.3496	0.2121	0.7339	-0.055
Mof_C 	C 	0.4892	0.5956	0.3722	-0.076
Mof_C 	C 	0.6112	0.861	0.6882	-0.066
Mof_C 	C 	0.0193	0.4108	0.1024	0.078
Mof_C 	C 	0.0323	0.5529	0.8777	-0.058
Mof_C 	C 	0.3888	0.139	0.3118	-0.066
Mof_C 	C 	0.1271	0.2829	0.6325	-0.091
Mof_C 	C 	0.1504	0.7339	0.2121	-0.055
Mof_C 	C 	0.4893	0.9636	0.7442	0.006
Mof_C 	C 	0.6446	0.3624	0.678	0.09
Mof_C 	C 	0.6593	0.499	0.0144	0.001
Mof_C 	C 	0.4741	0.1235	0.9091	-0.076
Mof_C 	C 	0.116	0.8073	0.2521	-0.073
Mof_C 	C 	0.6882	0.4864	0.051	0.019
Mof_C 	C 	0.7291	0.4203	0.6777	0.1
Mof_C 	C 	0.3662	0.1776	0.7898	0.1
Mof_C 	C 	0.9986	0.2799	0.1567	0.091
Mof_C 	C 	0.9893	0.2558	0.0364	0.005
Mof_C 	C 	0.0127	0.264	0.4844	0.014
Mof_C 	C 	0.9658	0.9032	0.6544	-0.088
Mof_C 	C 	0.0461	0.948	0.612	0.08
Mof_C 	C 	0.6827	0.7165	0.7927	-0.027
Mof_C 	C 	0.4106	0.3298	0.2298	0.108
Mof_C 	C 	0.1387	0.075	0.766	0.084
Mof_C 	C 	0.0935	0.9301	0.4575	0.079
Mof_C 	C 	0.5716	0.058	0.4678	0.113
Mof_C 	C 	0.8807	0.977	0.1186	0.158
Mof_C 	C 	0.8034	0.4818	0.6834	-0.061
Mof_C 	C 	0.5174	0.1277	0.8341	-0.075
Mof_C 	C 	0.6448	0.7185	0.8259	0.021
Mof_C 	C 	0.284	0.8966	0.064	0.038
Mof_C 	C 	0.1887	0.6521	0.9607	-0.07
Mof_C 	C 	0.1593	0.9856	0.501	0.001
Mof_C 	C 	0.1446	0.322	0.6376	0.09
Mof_C 	C 	0.5167	0.9422	0.5992	-0.058
Mof_C 	C 	0.8113	0.6046	0.8104	-0.088
Mof_C 	C 	0.5578	0.1207	0.9053	0.092
Mof_C 	C 	0.0133	0.2278	0.2022	0.008
Mof_C 	C 	0.6785	0.343	0.067	0.097
Mof_C 	C 	0.0848	0.7778	0.853	0.088
Mof_C 	C 	0.6721	0.5717	0.4827	0.05
Mof_C 	C 	0.8554	0.678	0.3624	0.09
Mof_C 	C 	0.3677	0.7099	0.2961	0.092
Mof_C 	C 	0.9364	0.3153	0.1525	-0.067
Mof_C 	C 	0.5383	0.7429	0.0097	-0.004
Mof_C 	C 	0.5675	0.3956	0.5488	-0.069
Mof_C 	C 	0.1323	0.2961	0.7099	0.092
Mof_C 	C 	0.5108	0.4044	0.6278	-0.076
Mof_C 	C 	0.1966	0.5182	0.3166	-0.061
Mof_C 	C 	0.2291	0.3223	0.5797	0.099
Mof_C 	C 	0.4463	0.6512	0.8924	0.109
Mof_C 	C 	0.8787	0.7314	0.3316	-0.071
Mof_C 	C 	0.1994	0.5961	0.2993	-0.084
Mof_C 	C 	0.1193	0.023	0.8814	0.158
Mof_C 	C 	0.0828	0.2782	0.149	-0.075
Mof_C 	C 	0.0675	0.4512	0.6044	-0.068
Mof_C 	C 	0.9204	0.8757	0.6661	-0.063
Mof_C 	C 	0.9283	0.1645	0.8693	0.101
Mof_C 	C 	0.533	0.5432	0.9548	-0.086
Mof_C 	C 	0.6994	0.7007	0.4039	-0.084
Mof_C 	C 	0.9639	0.8392	0.6748	0.076
Mof_C 	C 	0.9647	0.8015	0.5497	0.098
Mof_C 	C 	0.4093	0.7903	0.2505	0.006
Mof_C 	C 	0.784	0.936	0.1034	0.038
Mof_C 	C 	0.134	0.7761	0.3305	0.082
Mof_C 	C 	0.8677	0.7039	0.2901	0.092
Mof_C 	C 	0.4617	0.2571	0.9903	-0.004
Mof_C 	C 	0.9072	0.1264	0.8716	-0.085
Mof_C 	C 	0.9862	0.0716	0.4306	-0.068
Mof_C 	C 	0.0285	0.5701	0.9641	-0.105
Mof_C 	C 	0.6173	0.6686	0.2878	-0.004
Mof_C 	C 	0.3415	0.013	0.4646	0.026
Mof_C 	C 	0.6313	0.2277	0.8793	-0.066
Mof_C 	C 	0.2647	0.4117	0.2123	-0.056
Mof_C 	C 	0.5259	0.8765	0.0909	-0.076
Mof_C 	C 	0.5636	0.1525	0.3153	-0.067
Mof_C 	C 	0.9867	0.7722	0.7978	0.008
Mof_C 	C 	0.447	0.6715	0.8285	-0.053
Mof_C 	C 	0.5463	0.8646	0.6518	0.088
Mof_C 	C 	0.3729	0.6325	0.2829	-0.09
Mof_C 	C 	0.473	0.6284	0.9922	-0.077
Mof_C 	C 	0.9215	0.4751	0.0991	-0.105
Mof_C 	C 	0.4537	0.1354	0.3482	0.088
Mof_C 	C 	0.5848	0.147	0.2222	0.088
Mof_C 	C 	0.5107	0.0364	0.2558	0.006
Mof_C 	C 	0.6313	0.0534	0.5426	0.083
Mof_C 	C 	0.5171	0.6043	0.0185	-0.081
Mof_C 	C 	0.0355	0.472	0.734	0.103
Mof_C 	C 	0.8827	0.2878	0.6686	-0.004
Mof_C 	C 	0.5323	0.1223	0.4471	-0.057
Mof_C 	C 	0.1264	0.5046	0.0088	-0.013
Mof_C 	C 	0.9829	0.0185	0.6043	-0.081
Mof_C 	C 	0.4364	0.8475	0.6847	-0.067
Mof_C 	C 	0.3803	0.2892	0.7096	0.012
Mof_C 	C 	0.027	0.9922	0.6284	-0.077
Mof_C 	C 	0.4422	0.8793	0.0947	0.092
Mof_C 	C 	0.2169	0.9319	0.7003	-0.08
Mof_C 	C 	0.796	0.8584	0.215	-0.069
Mof_C 	C 	0.3613	0.766	0.075	0.085
Mof_C 	C 	0.6887	0.0393	0.3479	-0.07
Mof_C 	C 	0.9172	0.7218	0.851	-0.075
Mof_C 	C 	0.0993	0.8564	0.6602	-0.097
Mof_C 	C 	0.8993	0.6251	0.4015	0.098
Mof_C 	C 	0.0167	0.4008	0.0578	-0.058
Mof_C 	C 	0.3413	0.147	0.3994	0.095
Mof_C 	C 	0.4529	0.7616	0.0182	0.011
Mof_C 	C 	0.8459	0.6986	0.2124	0.095
Mof_C 	C 	0.9617	0.0097	0.7429	-0.004
Mof_C 	C 	0.0907	0.2505	0.7903	0.006
Mof_C 	C 	0.6564	0.038	0.3052	0.091
Mof_C 	C 	0.4283	0.1307	0.8355	0.101
Mof_C 	C 	0.8113	0.3479	0.0393	-0.07
Mof_C 	C 	0.716	0.1034	0.936	0.038
Mof_C 	C 	0.9284	0.4678	0.058	0.113
Mof_C 	C 	0.6541	0.2124	0.6986	0.095
Mof_C 	C 	0.5797	0.1223	0.8675	-0.075
Mof_C 	C 	0.1585	0.4646	0.013	0.026
Mof_C 	C 	0.8496	0.2661	0.7879	-0.055
Mof_C 	C 	0.7063	0.8706	0.581	-0.078
Mof_C 	C 	0.9463	0.1076	0.3488	0.109
Mof_C 	C 	0.4152	0.853	0.7778	0.088
Mof_C 	C 	0.5717	0.8693	0.1645	0.101
Mof_C 	C 	0.2927	0.0735	0.7867	-0.072
Mof_C 	C 	0.6504	0.7879	0.2661	-0.055
Mof_C 	C 	0.3826	0.2155	0.8201	-0.093
Mof_C 	C 	0.5175	0.7317	0.0677	0.096
Mof_C 	C 	0.0108	0.3722	0.5956	-0.076
Mof_C 	C 	0.8709	0.5856	0.3972	-0.085
Mof_C 	C 	0.4656	0.751	0.5378	0.018
Mof_C 	C 	0.5956	0.5307	0.7417	-0.002
Mof_C 	C 	0.1213	0.2686	0.6684	-0.071
Mof_C 	C 	0.5928	0.8716	0.1264	-0.085
Mof_C 	C 	0.053	0.8285	0.6715	-0.053
Mof_C 	C 	0.8764	0.4646	0.7064	0.086
Mof_C 	C 	0.9093	0.7495	0.2097	0.006
Mof_C 	C 	0.3155	0.4301	0.1917	0.083
Mof_C 	C 	0.4715	0.9641	0.5701	-0.105
Mof_C 	C 	0.0447	0.6489	0.8579	-0.069
Mof_C 	C 	0.6338	0.8224	0.2102	0.1
Mof_C 	C 	0.616	0.7479	0.1927	-0.073
Mof_C 	C 	0.0463	0.3482	0.1354	0.088
Mof_C 	C 	0.4234	0.3769	0.4761	0.056
Mof_C 	C 	0.8155	0.8083	0.5699	0.083
Mof_C 	C 	0.5344	0.249	0.4622	0.018
Mof_C 	C 	0.3492	0.7153	0.3373	-0.083
Mof_C 	C 	0.8678	0.2363	0.7497	0.075
Mof_C 	C 	0.384	0.2521	0.8073	-0.073
Mof_C 	C 	0.5285	0.0359	0.4299	-0.105
Mof_C 	C 	0.216	0.064	0.8966	0.038
Mof_C 	C 	0.553	0.3285	0.1715	-0.053
Mof_C 	C 	0.4553	0.8579	0.6489	-0.068
Mof_C 	C 	0.4325	0.6044	0.4512	-0.069
Mof_C 	C 	0.0507	0.5909	0.4029	-0.071
Mof_C 	C 	0.2776	0.7744	0.0548	-0.068
Mof_C 	C 	0.3524	0.1766	0.7482	-0.099
Mof_C 	C 	0.6966	0.6834	0.4818	-0.061
Mof_C 	C 	0.1236	0.5354	0.2936	0.086
Mof_C 	C 	0.0717	0.8355	0.1307	0.101
Mof_C 	C 	0.4172	0.149	0.2782	-0.075
Mof_C 	C 	0.4072	0.1284	0.8736	-0.085
Mof_C 	C 	0.0797	0.1325	0.8777	-0.075
Mof_C 	C 	0.6887	0.8104	0.6046	-0.088
Mof_C 	C 	0.6007	0.4015	0.6251	0.098
Mof_C 	C 	0.9645	0.528	0.266	0.103
Mof_C 	C 	0.9776	0.4485	0.6015	0.095
Mof_C 	C 	0.1173	0.7122	0.3314	-0.004
Mof_C 	C 	0.4986	0.8433	0.7201	0.091
Mof_C 	C 	0.5014	0.1567	0.2799	0.091
Mof_C 	C 	0.6585	0.987	0.5354	0.026
Mof_C 	C 	0.1197	0.7096	0.2892	0.012
Mof_C 	C 	0.1237	0.5734	0.2854	-0.071
Mof_C 	C 	0.5355	0.266	0.528	0.104
Mof_C 	C 	0.6236	0.7064	0.4646	0.086
Mof_C 	C 	0.5348	0.2022	0.1958	0.005
Mof_C 	C 	0.7892	0.2082	0.8824	0.087
Mof_C 	C 	0.6271	0.3675	0.7171	-0.09
Mof_C 	C 	0.5133	0.7978	0.7722	0.008
Mof_C 	C 	0.8436	0.3052	0.038	0.091
Mof_C 	C 	0.9539	0.052	0.388	0.08
Mof_C 	C 	0.764	0.1103	0.9777	-0.038
Mof_C 	C 	0.0348	0.8042	0.7978	0.004
Mof_C 	C 	0.9493	0.4091	0.5971	-0.071
Mof_C 	C 	0.527	0.3716	0.0078	-0.077
Mof_C 	C 	0.1174	0.8201	0.2155	-0.093
Mof_C 	C 	0.4825	0.2683	0.9323	0.096
Mof_C 	C 	0.3827	0.3314	0.7122	-0.004
Mof_C 	C 	0.4065	0.4575	0.9301	0.079
Mof_C 	C 	0.5993	0.3398	0.1436	-0.097
Mof_C 	C 	0.1508	0.3373	0.7153	-0.083
Mof_C 	C 	0.8118	0.051	0.4864	0.019
Mof_C 	C 	0.5447	0.1421	0.3511	-0.068
Mof_C 	C 	0.4148	0.7479	0.2485	0.006
Mof_C 	C 	0.1785	0.933	0.657	0.097
Mof_C 	C 	0.798	0.2817	0.0531	-0.071
Mof_C 	C 	0.8413	0.6006	0.853	0.095
Mof_C 	C 	0.6237	0.7146	0.4266	-0.071
Mof_C 	C 	0.1882	0.949	0.5136	0.019
Mof_C 	C 	0.3113	0.1896	0.3954	-0.088
Mof_C 	C 	0.6476	0.8234	0.2518	-0.099
Mof_C 	C 	0.9529	0.9818	0.2384	0.011
Mof_C 	C 	0.3763	0.2854	0.5734	-0.071
Mof_C 	C 	0.0471	0.0182	0.7616	0.011
Mof_C 	C 	0.3215	0.657	0.933	0.097
Mof_C 	C 	0.7831	0.0681	0.2997	-0.08
Mof_C 	C 	0.2937	0.1294	0.419	-0.078
Mof_C 	C 	0.2063	0.419	0.1294	-0.078
Mof_C 	C 	0.0894	0.2298	0.3298	0.108
Mof_C 	C 	0.4381	0.0127	0.2491	-0.007
Mof_C 	C 	0.4204	0.3339	0.1243	-0.063
Mof_C 	C 	0.052	0.0012	0.4402	0.089
Mof_C 	C 	0.5342	0.6544	0.9032	-0.088
Mof_C 	C 	0.8524	0.2518	0.8234	-0.099
Mof_C 	C 	0.2301	0.9485	0.6357	-0.07
Mof_C 	C 	0.4826	0.8723	0.1659	-0.075
Mof_C 	C 	0.4215	0.9009	0.5249	-0.105
Mof_C 	C 	0.7073	0.9265	0.2133	-0.072
Mof_C 	C 	0.2699	0.6357	0.9485	-0.07
Mof_C 	C 	0.7163	0.5658	0.8492	-0.063
Mof_C 	C 	0.0175	0.9323	0.2683	0.096
Mof_C 	C 	0.9509	0.5326	0.7354	-0.006
Mof_C 	C 	0.4776	0.3985	0.5515	0.095
Mof_C 	C 	0.1338	0.7898	0.1776	0.1
Mof_C 	C 	0.4565	0.00877	0.69963	0.043
Mof_C 	C 	0.0491	0.4674	0.2646	-0.006
Mof_C 	C 	0.9537	0.6518	0.8646	0.088
Mof_C 	C 	0.448	0.4402	0.0012	0.089
Mof_C 	C 	0.2148	0.4741	0.4167	-0.038
Mof_C 	C 	0.8215	0.067	0.343	0.097
Mof_C 	C 	0.4539	0.612	0.948	0.08
Mof_C 	C 	0.3554	0.6376	0.322	0.09
Mof_C 	C 	0.7148	0.5833	0.5259	-0.038
Mof_C 	C 	0.4647	0.4503	0.1985	0.098
Mof_C 	C 	0.0716	0.5322	0.942	0.113
Mof_C 	C 	0.8763	0.4266	0.7146	-0.071
Mof_C 	C 	0.6387	0.234	0.925	0.085
Mof_C 	C 	0.9065	0.0699	0.5425	0.079
Mof_C 	C 	0.7837	0.8492	0.5658	-0.063
Mof_C 	C 	0.3113	0.9607	0.6521	-0.07
Mof_C 	C 	0.5491	0.7354	0.5326	-0.006
Mof_C 	C 	0.264	0.0223	0.8897	-0.038
Mof_C 	C 	0.0852	0.2485	0.7479	0.006
Mof_C 	C 	0.3678	0.2503	0.7637	0.075
Mof_C 	C 	0.5537	0.3488	0.1076	0.109
Mof_C 	C 	0.2693	0.5408	0.3316	-0.086
Mof_C 	C 	0.884	0.1927	0.7479	-0.073
Mof_C 	C 	0.0138	0.9284	0.5694	-0.068
Mof_C 	C 	0.8687	0.5426	0.0534	0.082
Mof_C 	C 	0.4829	0.3957	0.9815	-0.081
Mof_C 	C 	0.866	0.2239	0.6695	0.082
Mof_C 	C 	0.1448	0.1741	0.2815	0.021
Mof_C 	C 	0.9553	0.3511	0.1421	-0.069
Mof_C 	C 	0.5138	0.4306	0.0716	-0.068
Mof_C 	C 	0.8492	0.6627	0.2847	-0.083
Mof_C 	C 	0.4677	0.8777	0.5529	-0.057
Mof_C 	C 	0.1291	0.4144	0.6028	-0.085
Mof_C 	C 	0.0956	0.2583	0.4693	-0.002
Mof_C 	C 	0.1541	0.3014	0.7876	0.095
Mof_C 	C 	0.1313	0.1207	0.7723	-0.066
Mof_C 	C 	0.1721	0.5173	0.4283	0.05
Mof_C 	C 	0.5828	0.851	0.7218	-0.075
Mof_C 	C 	0.9325	0.5488	0.3956	-0.068
Mof_C 	C 	0.0361	0.1608	0.3252	0.076
Mof_C 	C 	0.9203	0.8675	0.1223	-0.075
Mof_C 	C 	0.3459	0.7876	0.3014	0.095
Mof_C 	C 	0.7709	0.6777	0.4203	0.099
Mof_C 	C 	0.3807	0.8814	0.023	0.158
Mof_C 	C 	0.8279	0.4827	0.5717	0.05
Mof_C 	C 	0.8428	0.651	0.3202	-0.07
Mof_C 	C 	0.702	0.0531	0.2817	-0.071
Mof_C 	C 	0.5907	0.2097	0.7495	0.006
Mof_C 	C 	0.5361	0.6748	0.8392	0.076
Mof_C 	C 	0.2163	0.1508	0.4342	-0.063
Mof_C 	C 	0.6174	0.7845	0.1799	-0.093
Mof_C 	C 	0.4862	0.5694	0.9284	-0.068
Mof_C 	C 	0.0344	0.5378	0.751	0.017
Mof_C 	C 	0.8826	0.1799	0.7845	-0.093
Mof_C 	C 	0.0259	0.9091	0.1235	-0.076
Mof_C 	C 	0.4873	0.4844	0.264	0.014
Mof_C 	C 	0.4639	0.3252	0.1608	0.076
Mof_C 	C 	0.2224	0.0548	0.7744	-0.068
Mof_C 	C 	0.9656	0.4622	0.249	0.017
Mof_C 	C 	0.6587	0.853	0.6006	0.095
Mof_C 	C 	0.2837	0.4342	0.1508	-0.063
Mof_C 	C 	0.4509	0.2646	0.4674	-0.006
Mof_C 	C 	0.1007	0.3749	0.5985	0.098
Mof_C 	C 	0.296	0.785	0.1416	-0.069
Mof_C 	C 	0.0342	0.0968	0.3456	-0.088
Mof_C 	C 	0.4203	0.8777	0.1325	-0.075
Mof_C 	C 	0.4493	0.4029	0.5909	-0.071
Mof_C 	C 	0.4044	0.4693	0.2583	-0.002
Mof_C 	C 	0.6213	0.3316	0.7314	-0.071
Mof_C 	C 	0.236	0.8897	0.0223	-0.038
Mof_C 	C 	0.3709	0.6028	0.4144	-0.085
Mof_C 	C 	0.0796	0.1243	0.3339	-0.063
Mof_C 	C 	0.5852	0.2521	0.7515	0.006
Mof_C 	C 	0.7927	0.2133	0.9265	-0.072
Mof_C 	C 	0.0928	0.8736	0.1284	-0.085
Mof_C 	C 	0.2852	0.4167	0.4741	-0.038
Mof_C 	C 	0.0383	0.9903	0.2571	-0.004
Mof_C 	C 	0.973	0.0078	0.3716	-0.077
Mof_C 	C 	0.736	0.9777	0.1103	-0.038
Mof_C 	C 	0.9565	0.30037	0.99123	0.043
Mof_C 	C 	0.5785	0.0991	0.4751	-0.105
Mof_C 	C 	0.2073	0.7867	0.0735	-0.072
Mof_C 	C 	0.3034	0.3166	0.5182	-0.061
Mof_C 	C 	0.6508	0.2847	0.6627	-0.083
Mof_C 	C 	0.0224	0.5515	0.3985	0.095
Mof_C 	C 	0.7647	0.7877	0.5883	-0.056
Mof_C 	C 	0.9833	0.5992	0.9422	-0.058
Mof_C 	C 	0.6193	0.1186	0.977	0.158
Mof_C 	C 	0.8552	0.8259	0.7185	0.021
Mof_C 	C 	0.9234	0.5239	0.6231	0.056
Mof_C 	C 	0.0171	0.9815	0.3957	-0.081
Mof_C 	C 	0.7852	0.5259	0.5833	-0.038
Mof_C 	C 	0.0014	0.7201	0.8433	0.091
Mof_C 	C 	0.3279	0.4283	0.5173	0.05
Mof_C 	C 	0.634	0.6695	0.2239	0.082
Mof_C 	C 	0.948	0.9988	0.5598	0.089
Mof_C 	C 	0.9825	0.0677	0.7317	0.096
Mof_C 	C 	0.5766	0.6231	0.5239	0.056
Mof_C 	C 	0.4007	0.6602	0.8564	-0.097
Mof_C 	C 	0.7693	0.6684	0.4592	-0.086
Mof_C 	C 	0.6264	0.9912	0.4954	-0.013
Mof_C 	C 	0.0619	0.2491	0.0127	-0.007
Mof_I 	I 	0.32017	0.80044	0.8918	-0.574
Mof_I 	I 	0.51637	0.08601	0.65119	-0.572
Mof_I 	I 	0.28441	0.90461	0.22827	-0.598
Mof_I 	I 	0.17983	0.8918	0.80044	-0.574
Mof_I 	I 	0.48363	0.91399	0.34881	-0.572
Mof_I 	I 	0.71559	0.09539	0.77173	-0.598
Mof_I 	I 	0.78441	0.77173	0.09539	-0.598
Mof_I 	I 	0.20572	0.4296	0.8178	-0.57
Mof_I 	I 	0.89396	0.08262	0.0728	-0.58
Mof_I 	I 	0.30944	0.45339	0.70741	-0.596
Mof_I 	I 	0.60604	0.0728	0.08262	-0.58
Mof_I 	I 	0.634	0.59211	0.65965	-0.509
Mof_I 	I 	0.01637	0.34881	0.91399	-0.572
Mof_I 	I 	0.79314	0.1036	0.64828	-0.587
Mof_I 	I 	0.98363	0.65119	0.08601	-0.572
Mof_I 	I 	0.134	0.34035	0.40789	-0.509
Mof_I 	I 	0.23008	0.83368	0.55814	-0.609
Mof_I 	I 	0.23977	0.33695	0.02219	-0.597
Mof_I 	I 	0.20686	0.8964	0.35172	-0.587
Mof_I 	I 	0.1231	0.34669	0.27589	-0.604
Mof_I 	I 	0.00466	0.829	0.44678	-0.559
Mof_I 	I 	0.3769	0.27589	0.34669	-0.603
Mof_I 	I 	0.26992	0.55814	0.83368	-0.609
Mof_I 	I 	0.50466	0.55322	0.171	-0.559
Mof_I 	I 	0.6231	0.72411	0.65331	-0.603
Mof_I 	I 	0.80944	0.29259	0.54661	-0.596
Mof_I 	I 	0.29428	0.8178	0.4296	-0.57
Mof_I 	I 	0.39396	0.9272	0.91738	-0.58
Mof_I 	I 	0.76992	0.16632	0.44186	-0.609
Mof_I 	I 	0.49534	0.44678	0.829	-0.559
Mof_I 	I 	0.76023	0.66305	0.97781	-0.597
Mof_I 	I 	0.73977	0.97781	0.66305	-0.597
Mof_I 	I 	0.21559	0.22827	0.90461	-0.598
Mof_I 	I 	0.99534	0.171	0.55322	-0.559
Mof_I 	I 	0.69056	0.54661	0.29259	-0.596
Mof_I 	I 	0.866	0.65965	0.59211	-0.509
Mof_I 	I 	0.29314	0.35172	0.8964	-0.587
Mof_I 	I 	0.70572	0.1822	0.5704	-0.57
Mof_I 	I 	0.73008	0.44186	0.16632	-0.609
Mof_I 	I 	0.8769	0.65331	0.72411	-0.604
Mof_I 	I 	0.70686	0.64828	0.1036	-0.587
Mof_I 	I 	0.26023	0.02219	0.33695	-0.597
Mof_I 	I 	0.79428	0.5704	0.1822	-0.57
Mof_I 	I 	0.82017	0.1082	0.19956	-0.574
Mof_I 	I 	0.366	0.40789	0.34035	-0.509
Mof_I 	I 	0.10604	0.91738	0.9272	-0.58
Mof_I 	I 	0.19056	0.70741	0.45339	-0.596
Mof_I 	I 	0.67983	0.19956	0.1082	-0.574
Mof_N 	N 	0.8501	0.0848	0.5134	-0.226
Mof_N 	N 	0.3063	0.8834	0.997	-0.237
Mof_N 	N 	0.3442	0.385	0.4486	-0.232
Mof_N 	N 	0.5248	0.1684	0.2448	-0.14
Mof_N 	N 	0.6558	0.615	0.5514	-0.232
Mof_N 	N 	0.4584	0.9847	0.2767	-0.22
Mof_N 	N 	0.0416	0.2767	0.9847	-0.22
Mof_N 	N 	0.439	0.7531	0.0547	-0.138
Mof_N 	N 	0.9125	0.1897	0.1651	-0.229
Mof_N 	N 	0.8714	0.2464	0.6428	-0.23
Mof_N 	N 	0.6342	0.1842	0.7164	-0.232
Mof_N 	N 	0.1525	0.337	0.6012	-0.157
Mof_N 	N 	0.9136	0.499	0.2506	-0.236
Mof_N 	N 	0.6937	0.1166	0.003	-0.237
Mof_N 	N 	0.3727	0.2891	0.7505	-0.13
Mof_N 	N 	0.9133	0.4814	0.5964	-0.135
Mof_N 	N 	0.4125	0.8349	0.8103	-0.229
Mof_N 	N 	0.8902	0.4994	0.0356	-0.135
Mof_N 	N 	0.0867	0.5186	0.4036	-0.135
Mof_N 	N 	0.5775	0.7245	0.0423	-0.236
Mof_N 	N 	0.9752	0.2448	0.1684	-0.14
Mof_N 	N 	0.1068	0.2144	0.4476	-0.134
Mof_N 	N 	0.5875	0.1651	0.1897	-0.229
Mof_N 	N 	0.0758	0.71255	0.97685	-0.126
Mof_N 	N 	0.1462	0.2446	0.3148	-0.233
Mof_N 	N 	0.125	0.2823	0.7467	-0.136
Mof_N 	N 	0.5416	0.0153	0.7233	-0.22
Mof_N 	N 	0.8658	0.7164	0.1842	-0.232
Mof_N 	N 	0.0496	0.5115	0.2773	-0.135
Mof_N 	N 	0.939	0.9453	0.2469	-0.138
Mof_N 	N 	0.3656	0.1392	0.8034	-0.157
Mof_N 	N 	0.4136	0.7494	0.501	-0.236
Mof_N 	N 	0.6286	0.6428	0.2464	-0.23
Mof_N 	N 	0.0775	0.9577	0.2755	-0.236
Mof_N 	N 	0.3501	0.4866	0.9152	-0.226
Mof_N 	N 	0.9242	0.28745	0.02315	-0.126
Mof_N 	N 	0.4767	0.5277	0.7723	-0.241
Mof_N 	N 	0.4049	0.6381	0.9215	-0.152
Mof_N 	N 	0.5951	0.3619	0.0785	-0.152
Mof_N 	N 	0.9584	0.7233	0.0153	-0.22
Mof_N 	N 	0.4258	0.1261	0.3835	-0.144
Mof_N 	N 	0.5758	0.02315	0.28745	-0.126
Mof_N 	N 	0.3932	0.4476	0.2144	-0.134
Mof_N 	N 	0.4225	0.2755	0.9577	-0.236
Mof_N 	N 	0.1273	0.7505	0.2891	-0.13
Mof_N 	N 	0.0248	0.7552	0.8316	-0.14
Mof_N 	N 	0.4136	0.3109	0.1883	-0.139
Mof_N 	N 	0.6068	0.5524	0.7856	-0.134
Mof_N 	N 	0.9136	0.8117	0.6891	-0.139
Mof_N 	N 	0.0864	0.501	0.7494	-0.236
Mof_N 	N 	0.1098	0.5006	0.9644	-0.135
Mof_N 	N 	0.6344	0.8608	0.1966	-0.157
Mof_N 	N 	0.6499	0.5134	0.0848	-0.226
Mof_N 	N 	0.8442	0.5514	0.615	-0.232
Mof_N 	N 	0.8392	0.5653	0.0247	-0.235
Mof_N 	N 	0.061	0.0547	0.7531	-0.138
Mof_N 	N 	0.5864	0.2506	0.499	-0.236
Mof_N 	N 	0.8063	0.003	0.1166	-0.237
Mof_N 	N 	0.1286	0.7536	0.3572	-0.23
Mof_N 	N 	0.8696	0.9417	0.1151	-0.166
Mof_N 	N 	0.1558	0.4486	0.385	-0.232
Mof_N 	N 	0.9049	0.0785	0.3619	-0.152
Mof_N 	N 	0.9018	0.026	0.5348	-0.13
Mof_N 	N 	0.1608	0.4347	0.9753	-0.235
Mof_N 	N 	0.8475	0.663	0.3988	-0.157
Mof_N 	N 	0.4242	0.97685	0.71255	-0.126
Mof_N 	N 	0.3475	0.6012	0.337	-0.157
Mof_N 	N 	0.0982	0.974	0.4652	-0.13
Mof_N 	N 	0.0951	0.9215	0.6381	-0.152
Mof_N 	N 	0.3696	0.8849	0.0583	-0.166
Mof_N 	N 	0.6525	0.3988	0.663	-0.157
Mof_N 	N 	0.3902	0.9644	0.5006	-0.135
Mof_N 	N 	0.1499	0.9152	0.4866	-0.226
Mof_N 	N 	0.3658	0.8158	0.2836	-0.232
Mof_N 	N 	0.3714	0.3572	0.7536	-0.23
Mof_N 	N 	0.1342	0.2836	0.8158	-0.232
Mof_N 	N 	0.6273	0.7109	0.2495	-0.13
Mof_N 	N 	0.9225	0.0423	0.7245	-0.236
Mof_N 	N 	0.8538	0.7554	0.6852	-0.233
Mof_N 	N 	0.9504	0.4885	0.7227	-0.135
Mof_N 	N 	0.4018	0.4652	0.974	-0.13
Mof_N 	N 	0.4752	0.8316	0.7552	-0.14
Mof_N 	N 	0.8932	0.7856	0.5524	-0.134
Mof_N 	N 	0.3392	0.9753	0.4347	-0.235
Mof_N 	N 	0.6608	0.0247	0.5653	-0.235
Mof_N 	N 	0.8656	0.1966	0.8608	-0.157
Mof_N 	N 	0.6304	0.1151	0.9417	-0.166
Mof_N 	N 	0.8727	0.2495	0.7109	-0.13
Mof_N 	N 	0.0233	0.7723	0.5277	-0.241
Mof_N 	N 	0.5233	0.4723	0.2277	-0.241
Mof_N 	N 	0.9258	0.6165	0.8739	-0.144
Mof_N 	N 	0.1304	0.0583	0.8849	-0.166
Mof_N 	N 	0.4504	0.2773	0.5115	-0.135
Mof_N 	N 	0.5867	0.5964	0.4814	-0.135
Mof_N 	N 	0.3538	0.3148	0.2446	-0.233
Mof_N 	N 	0.0875	0.8103	0.8349	-0.229
Mof_N 	N 	0.0864	0.1883	0.3109	-0.139
Mof_N 	N 	0.5864	0.6891	0.8117	-0.139
Mof_N 	N 	0.6462	0.6852	0.7554	-0.233
Mof_N 	N 	0.1344	0.8034	0.1392	-0.157
Mof_N 	N 	0.5742	0.8739	0.6165	-0.144
Mof_N 	N 	0.5496	0.7227	0.4885	-0.135
Mof_N 	N 	0.875	0.7177	0.2533	-0.136
Mof_N 	N 	0.625	0.2533	0.7177	-0.136
Mof_N 	N 	0.1937	0.997	0.8834	-0.237
Mof_N 	N 	0.5982	0.5348	0.026	-0.13
Mof_N 	N 	0.375	0.7467	0.2823	-0.136
Mof_N 	N 	0.9767	0.2277	0.4723	-0.241
Mof_N 	N 	0.4133	0.4036	0.5186	-0.135
Mof_N 	N 	0.561	0.2469	0.9453	-0.138
Mof_N 	N 	0.0742	0.3835	0.1261	-0.144
Mof_N 	N 	0.6098	0.0356	0.4994	-0.135
_end
