data_functionalizedCrystal
_audit_creation_method	'EQeq! by Chris Wilmer'
_symmetry_space_group_name_H-M	'P1'
_symmetry_Int_Tables_number	1
_symmetry_cell_setting	triclinic
loop_
_symmetry_equiv_pos_as_xyz
  x,y,z
_cell_length_a	6.6863
_cell_length_b	33.34
_cell_length_c	11.325
_cell_angle_alpha	90
_cell_angle_beta	107.156
_cell_angle_gamma	90
loop_
_atom_site_label
_atom_site_type_symbol
_atom_site_fract_x
_atom_site_fract_y
_atom_site_fract_z
_atom_site_charge
Mof_O 	O 	0.4516	0.95189	0.5847	-0.418
Mof_O 	O 	0.1056	0.94686	0.5558	-0.449
Mof_O 	O 	0.0917	0.53476	0.8873	-0.422
Mof_O 	O 	0.7813	0.56532	0.8101	-0.291
Mof_N 	N 	0.4338	0.77085	0.7374	-0.151
Mof_N 	N 	0.3852	0.70943	0.7818	-0.156
Mof_C 	C 	0.2963	0.74066	0.714	0.109
Mof_H 	H 	0.1585	0.7414	0.6585	-0.008
Mof_C 	C 	0.6157	0.75834	0.8216	0.018
Mof_H 	H 	0.7387	0.7739	0.8535	0.042
Mof_C 	C 	0.5889	0.72012	0.851	0.007
Mof_H 	H 	0.6883	0.7036	0.9074	0.051
Mof_C 	C 	0.3916	0.81093	0.691	0.165
Mof_C 	C 	0.5404	0.8313	0.6539	-0.184
Mof_H 	H 	0.6668	0.8185	0.6531	0.101
Mof_C 	C 	0.5037	0.87078	0.6177	0.102
Mof_H 	H 	0.606	0.8852	0.592	0.017
Mof_C 	C 	0.3195	0.88958	0.6183	-0.157
Mof_C 	C 	0.1677	0.86841	0.6515	0.098
Mof_H 	H 	0.0388	0.881	0.6486	0.01
Mof_C 	C 	0.2024	0.82882	0.6893	-0.178
Mof_H 	H 	0.0992	0.8142	0.7136	0.093
Mof_C 	C 	0.2883	0.93325	0.5823	0.407
Mof_C 	C 	0.2886	0.67201	0.7914	0.217
Mof_C 	C 	0.399	0.63732	0.8187	-0.23
Mof_H 	H 	0.5453	0.6374	0.8291	0.133
Mof_C 	C 	0.3006	0.60196	0.8314	0.164
Mof_H 	H 	0.3802	0.5781	0.8536	0.001
Mof_C 	C 	0.0856	0.60111	0.8118	-0.215
Mof_C 	C 	0.9707	0.63649	0.7761	0.19
Mof_H 	H 	0.8225	0.636	0.7572	-0.017
Mof_C 	C 	0.0713	0.67206	0.7682	-0.268
Mof_H 	H 	0.9939	0.6963	0.7472	0.136
Mof_C 	C 	0.977	0.56426	0.8377	0.41
Mof_O 	O 	0.0484	0.45189	0.9153	-0.407
Mof_O 	O 	0.3944	0.44686	0.9442	-0.413
Mof_O 	O 	0.4083	0.03476	0.6127	-0.439
Mof_O 	O 	0.7187	0.06532	0.6899	-0.288
Mof_N 	N 	0.0662	0.27085	0.7626	-0.156
Mof_N 	N 	0.1148	0.20943	0.7182	-0.164
Mof_C 	C 	0.2037	0.24066	0.786	0.106
Mof_H 	H 	0.3415	0.2414	0.8415	0.009
Mof_C 	C 	0.8843	0.25834	0.6784	0.027
Mof_H 	H 	0.7613	0.2739	0.6465	0.026
Mof_C 	C 	0.9111	0.22012	0.649	0.018
Mof_H 	H 	0.8117	0.2036	0.5926	0.031
Mof_C 	C 	0.1084	0.31093	0.809	0.144
Mof_C 	C 	0.9596	0.3313	0.8461	-0.154
Mof_H 	H 	0.8332	0.3185	0.8469	0.098
Mof_C 	C 	0.9963	0.37078	0.8823	0.116
Mof_H 	H 	0.894	0.3852	0.908	0.026
Mof_C 	C 	0.1805	0.38958	0.8817	-0.16
Mof_C 	C 	0.3323	0.36841	0.8485	0.098
Mof_H 	H 	0.4612	0.381	0.8514	0.019
Mof_C 	C 	0.2976	0.32882	0.8107	-0.166
Mof_H 	H 	0.4008	0.3142	0.7864	0.092
Mof_C 	C 	0.2117	0.43325	0.9177	0.408
Mof_C 	C 	0.2114	0.17201	0.7086	0.195
Mof_C 	C 	0.101	0.13732	0.6813	-0.255
Mof_H 	H 	0.9547	0.1374	0.6709	0.147
Mof_C 	C 	0.1994	0.10196	0.6686	0.145
Mof_H 	H 	0.1198	0.0781	0.6464	-0.015
Mof_C 	C 	0.4144	0.10111	0.6882	-0.169
Mof_C 	C 	0.5293	0.13649	0.7239	0.111
Mof_H 	H 	0.6775	0.136	0.7428	0.012
Mof_C 	C 	0.4287	0.17206	0.7318	-0.197
Mof_H 	H 	0.5061	0.1963	0.7528	0.105
Mof_C 	C 	0.523	0.06426	0.6623	0.367
Mof_O 	O 	0.5484	0.04811	0.4153	-0.442
Mof_O 	O 	0.8944	0.05314	0.4442	-0.443
Mof_O 	O 	0.9083	0.46524	0.1127	-0.413
Mof_O 	O 	0.2187	0.43468	0.1899	-0.292
Mof_N 	N 	0.5662	0.22915	0.2626	-0.151
Mof_N 	N 	0.6148	0.29057	0.2182	-0.136
Mof_C 	C 	0.7037	0.25934	0.286	0.094
Mof_H 	H 	0.8415	0.2586	0.3415	0.006
Mof_C 	C 	0.3843	0.24166	0.1784	0.007
Mof_H 	H 	0.2613	0.2261	0.1465	0.012
Mof_C 	C 	0.4111	0.27988	0.149	-0.011
Mof_H 	H 	0.3117	0.2964	0.0926	0.016
Mof_C 	C 	0.6084	0.18907	0.309	0.155
Mof_C 	C 	0.4596	0.1687	0.3461	-0.188
Mof_H 	H 	0.3332	0.1815	0.3469	0.089
Mof_C 	C 	0.4963	0.12922	0.3823	0.094
Mof_H 	H 	0.394	0.1148	0.408	0.007
Mof_C 	C 	0.6805	0.11042	0.3817	-0.162
Mof_C 	C 	0.8323	0.13159	0.3485	0.093
Mof_H 	H 	0.9612	0.119	0.3514	0.015
Mof_C 	C 	0.7976	0.17118	0.3107	-0.181
Mof_H 	H 	0.9008	0.1858	0.2864	0.093
Mof_C 	C 	0.7117	0.06675	0.4177	0.405
Mof_C 	C 	0.7114	0.32799	0.2086	0.079
Mof_C 	C 	0.601	0.36268	0.1813	-0.11
Mof_H 	H 	0.4547	0.3626	0.1709	0.07
Mof_C 	C 	0.6994	0.39804	0.1686	0.006
Mof_H 	H 	0.6198	0.4219	0.1464	0.024
Mof_C 	C 	0.9144	0.39889	0.1882	-0.034
Mof_C 	C 	0.0293	0.36351	0.2239	-0.081
Mof_H 	H 	0.1775	0.364	0.2428	0.063
Mof_C 	C 	0.9287	0.32794	0.2318	-0.021
Mof_H 	H 	0.0061	0.3037	0.2528	0.021
Mof_C 	C 	0.023	0.43574	0.1623	0.272
Mof_O 	O 	0.9516	0.54811	0.0847	-0.436
Mof_O 	O 	0.6056	0.55314	0.0558	-0.471
Mof_O 	O 	0.5917	0.96524	0.3873	-0.421
Mof_O 	O 	0.2813	0.93468	0.3101	-0.304
Mof_N 	N 	0.9338	0.72915	0.2374	-0.147
Mof_N 	N 	0.8852	0.79057	0.2818	-0.137
Mof_C 	C 	0.7963	0.75934	0.214	0.099
Mof_H 	H 	0.6585	0.7586	0.1585	-0.014
Mof_C 	C 	0.1157	0.74166	0.3216	-0.001
Mof_H 	H 	0.2387	0.7261	0.3535	0.029
Mof_C 	C 	0.0889	0.77988	0.351	-0.018
Mof_H 	H 	0.1883	0.7964	0.4074	0.037
Mof_C 	C 	0.8916	0.68907	0.191	0.173
Mof_C 	C 	0.0404	0.6687	0.1539	-0.214
Mof_H 	H 	0.1668	0.6815	0.1531	0.091
Mof_C 	C 	0.0037	0.62922	0.1177	0.076
Mof_H 	H 	0.106	0.6148	0.092	-0
Mof_C 	C 	0.8195	0.61042	0.1183	-0.154
Mof_C 	C 	0.6677	0.63159	0.1515	0.089
Mof_H 	H 	0.5388	0.619	0.1486	0.005
Mof_C 	C 	0.7024	0.67118	0.1893	-0.19
Mof_H 	H 	0.5992	0.6858	0.2136	0.09
Mof_C 	C 	0.7883	0.56675	0.0823	0.398
Mof_C 	C 	0.7886	0.82799	0.2914	0.134
Mof_C 	C 	0.899	0.86268	0.3187	-0.123
Mof_H 	H 	0.0453	0.8626	0.3291	0.071
Mof_C 	C 	0.8006	0.89804	0.3314	0.065
Mof_H 	H 	0.8802	0.9219	0.3536	0.026
Mof_C 	C 	0.5856	0.89889	0.3118	-0.133
Mof_C 	C 	0.4707	0.86351	0.2761	0.065
Mof_H 	H 	0.3225	0.864	0.2572	0.012
Mof_C 	C 	0.5713	0.82794	0.2682	-0.159
Mof_H 	H 	0.4939	0.8037	0.2472	0.08
Mof_C 	C 	0.477	0.93574	0.3377	0.349
Mof_Cu	Cu	0.5	2.61618e-33	0.5	0.901
Mof_Cu	Cu	-0	0.5	-0	0.869
Mof_Cu	Cu	-4.71289e-17	2.61618e-33	0.5	0.837
Mof_Cu	Cu	0.5	0.5	-0	0.826
_end
