data_functionalizedCrystal
_audit_creation_method	'EQeq! by Chris Wilmer'
_symmetry_space_group_name_H-M	'P1'
_symmetry_Int_Tables_number	1
_symmetry_cell_setting	triclinic
loop_
_symmetry_equiv_pos_as_xyz
  x,y,z
_cell_length_a	7.266
_cell_length_b	10.7768
_cell_length_c	11.5857
_cell_angle_alpha	90
_cell_angle_beta	90
_cell_angle_gamma	90
loop_
_atom_site_label
_atom_site_type_symbol
_atom_site_fract_x
_atom_site_fract_y
_atom_site_fract_z
_atom_site_charge
Mof_Cd	Cd	0.11049	0.06645	0.95915	0.427
Mof_Cd	Cd	0.38951	0.93355	0.45915	0.432
Mof_Cd	Cd	0.88951	0.56645	0.54085	0.432
Mof_Cd	Cd	0.61049	0.43355	0.04085	0.432
Mof_H 	H 	0.1493	0.2768	0.2333	0.074
Mof_H 	H 	0.8711	0.2322	0.3184	0.027
Mof_H 	H 	0.0055	0.1212	0.341	0.028
Mof_H 	H 	0.8604	0.007	0.1948	0.156
Mof_H 	H 	0.726	0.1179	0.1723	0.166
Mof_H 	H 	0.3063	0.147	0.1444	0.141
Mof_H 	H 	0.1831	0.052	0.1888	0.128
Mof_H 	H 	0.3507	0.7232	0.7333	0.074
Mof_H 	H 	0.6289	0.7678	0.8184	0.028
Mof_H 	H 	0.4945	0.8788	0.841	0.029
Mof_H 	H 	0.6396	0.993	0.6948	0.155
Mof_H 	H 	0.774	0.8821	0.6723	0.165
Mof_H 	H 	0.1937	0.853	0.6444	0.141
Mof_H 	H 	0.3169	0.948	0.6888	0.128
Mof_H 	H 	0.8507	0.7768	0.2667	0.076
Mof_H 	H 	0.1289	0.7322	0.1816	0.025
Mof_H 	H 	0.9945	0.6212	0.159	0.024
Mof_H 	H 	0.1396	0.507	0.3052	0.158
Mof_H 	H 	0.274	0.6179	0.3277	0.168
Mof_H 	H 	0.6937	0.647	0.3556	0.141
Mof_H 	H 	0.8169	0.552	0.3112	0.128
Mof_H 	H 	0.6493	0.2232	0.7667	0.075
Mof_H 	H 	0.3711	0.2678	0.6816	0.027
Mof_H 	H 	0.5055	0.3788	0.659	0.029
Mof_H 	H 	0.3604	0.493	0.8052	0.156
Mof_H 	H 	0.226	0.3821	0.8277	0.165
Mof_H 	H 	0.8063	0.353	0.8556	0.142
Mof_H 	H 	0.6831	0.448	0.8112	0.128
Mof_C 	C 	0.963	0.288	0.0995	0.317
Mof_C 	C 	0.07	0.2171	0.19334	-0.112
Mof_C 	C 	0.9359	0.1641	0.2817	0.058
Mof_C 	C 	0.7956	0.075	0.23157	-0.381
Mof_C 	C 	0.663	0.0224	0.3189	0.384
Mof_C 	C 	0.537	0.712	0.5995	0.321
Mof_C 	C 	0.43	0.7829	0.69334	-0.114
Mof_C 	C 	0.5641	0.8359	0.7817	0.057
Mof_C 	C 	0.7044	0.925	0.73157	-0.379
Mof_C 	C 	0.837	0.9776	0.8189	0.381
Mof_C 	C 	0.037	0.788	0.4005	0.325
Mof_C 	C 	0.93	0.7171	0.30666	-0.121
Mof_C 	C 	0.0641	0.6641	0.2183	0.07
Mof_C 	C 	0.2044	0.575	0.26843	-0.388
Mof_C 	C 	0.337	0.5224	0.1811	0.386
Mof_C 	C 	0.463	0.212	0.9005	0.321
Mof_C 	C 	0.57	0.2829	0.80666	-0.114
Mof_C 	C 	0.4359	0.3359	0.7183	0.058
Mof_C 	C 	0.2956	0.425	0.76843	-0.381
Mof_C 	C 	0.163	0.4776	0.6811	0.384
Mof_N 	N 	0.1891	0.11999	0.14387	-0.249
Mof_N 	N 	0.3109	0.88001	0.64387	-0.249
Mof_N 	N 	0.8109	0.61999	0.35613	-0.248
Mof_N 	N 	0.6891	0.38001	0.85613	-0.249
Mof_O 	O 	0.9713	0.25266	0.99656	-0.282
Mof_O 	O 	0.8685	0.37727	0.13511	-0.292
Mof_O 	O 	0.5261	0.96154	0.281	-0.298
Mof_O 	O 	0.6842	0.03756	0.42501	-0.295
Mof_O 	O 	0.5287	0.74734	0.49656	-0.286
Mof_O 	O 	0.6315	0.62273	0.63511	-0.293
Mof_O 	O 	0.9739	0.03846	0.781	-0.294
Mof_O 	O 	0.8158	0.96244	0.92501	-0.294
Mof_O 	O 	0.0287	0.75266	0.50344	-0.287
Mof_O 	O 	0.1315	0.87727	0.36489	-0.293
Mof_O 	O 	0.4739	0.46154	0.219	-0.299
Mof_O 	O 	0.3158	0.53756	0.07499	-0.295
Mof_O 	O 	0.4713	0.24734	0.00344	-0.286
Mof_O 	O 	0.3685	0.12273	0.86489	-0.293
Mof_O 	O 	0.0261	0.53846	0.719	-0.299
Mof_O 	O 	0.1842	0.46244	0.57499	-0.296
_end
