data_functionalizedCrystal
_audit_creation_method	'EQeq! by Chris Wilmer'
_symmetry_space_group_name_H-M	'P1'
_symmetry_Int_Tables_number	1
_symmetry_cell_setting	triclinic
loop_
_symmetry_equiv_pos_as_xyz
  x,y,z
_cell_length_a	14.8858
_cell_length_b	23.055
_cell_length_c	17.7834
_cell_angle_alpha	90
_cell_angle_beta	108.905
_cell_angle_gamma	90
loop_
_atom_site_label
_atom_site_type_symbol
_atom_site_fract_x
_atom_site_fract_y
_atom_site_fract_z
_atom_site_charge
Mof_C 	C 	0.6498	0.0816	0.7622	-0.043
Mof_H 	H 	0.6258	0.1192	0.7577	0.053
Mof_C 	C 	0.8571	0.0054	0.7319	0.305
Mof_C 	C 	0.7703	0.0151	0.7549	-0.08
Mof_C 	C 	0.7324	0.0709	0.746	-0.006
Mof_H 	H 	0.7631	0.1009	0.7292	0.047
Mof_C 	C 	0.7224	0.9706	0.7779	0.01
Mof_H 	H 	0.7475	0.9333	0.7839	0.049
Mof_C 	C 	0.6014	0.0369	0.7852	-0.032
Mof_Zn	Zn	0.55487	0.82018	0.84723	1.211
Mof_Zn	Zn	0.8105	0.79939	0.19252	1.172
Mof_Zn	Zn	0.63302	0.60235	0.68819	1.185
Mof_Zn	Zn	0.00145	0.96277	0.70098	1.21
Mof_O 	O 	0.4158	0.82035	0.8121	-0.444
Mof_O 	O 	0.9685	0.83853	0.6882	-0.329
Mof_O 	O 	0.9381	0.73971	0.7891	-0.376
Mof_O 	O 	0.9468	0.70281	0.678	-0.406
Mof_O 	O 	0.5348	0.94151	0.8558	-0.304
Mof_O 	O 	0.5102	0.0873	0.8503	-0.427
Mof_O 	O 	0.6038	0.88142	0.7931	-0.445
Mof_N 	N 	0.836	0.88788	0.2321	-0.238
Mof_N 	N 	0.7086	0.8241	0.0872	-0.258
Mof_N 	N 	0.6479	0.67503	0.7545	-0.26
Mof_N 	N 	0.7656	0.92924	0.2252	-0.263
Mof_O 	O 	0.9008	0.9572	0.7512	-0.439
Mof_N 	N 	0.6221	0.75494	0.8127	-0.28
Mof_O 	O 	0.0909	0.89791	0.7296	-0.46
Mof_N 	N 	0.6115	0.83082	0.9634	-0.29
Mof_O 	O 	0.8832	0.04309	0.6949	-0.355
Mof_N 	N 	0.717	0.71496	0.7542	-0.256
Mof_O 	O 	0.4409	0.73246	0.8633	-0.334
Mof_N 	N 	0.6396	0.86449	0.0844	-0.254
Mof_O 	O 	0.4326	0.03624	0.747	-0.378
Mof_N 	N 	0.9025	0.97404	0.2652	-0.285
Mof_N 	N 	0.9394	0.9581	0.5862	-0.365
Mof_C 	C 	0.6378	0.981	0.7921	-0.057
Mof_C 	C 	0.5943	0.7006	0.79	0.108
Mof_H 	H 	0.5423	0.6829	0.7985	-0.022
Mof_C 	C 	0.8079	0.9786	0.2444	0.119
Mof_H 	H 	0.7762	0.0135	0.2439	-0.029
Mof_C 	C 	0.9158	0.917	0.2571	0.103
Mof_H 	H 	0.9754	0.9	0.2679	-0.008
Mof_C 	C 	0.1207	0.7984	0.7541	-0.072
Mof_C 	C 	0.2177	0.8075	0.7744	0.022
Mof_H 	H 	0.2399	0.8434	0.7644	0.053
Mof_C 	C 	0.6988	0.7619	0.7888	0.096
Mof_H 	H 	0.7345	0.7957	0.796	-0.026
Mof_C 	C 	0.6884	0.8047	0.014	0.107
Mof_H 	H 	0.7234	0.7763	0.9989	-0.049
Mof_C 	C 	0.0531	0.8477	0.7206	0.342
Mof_C 	C 	0.5845	0.8669	0.0109	0.125
Mof_H 	H 	0.532	0.8912	0.9932	-0.02
Mof_C 	C 	0.587	0.9318	0.8162	0.318
Mof_C 	C 	0.1503	0.701	0.8036	-0.055
Mof_H 	H 	0.1278	0.6651	0.8132	0.063
Mof_C 	C 	0.2817	0.7644	0.8092	-0.084
Mof_C 	C 	0.0867	0.7442	0.7665	-0.015
Mof_C 	C 	0.2471	0.711	0.8264	0.003
Mof_H 	H 	0.2893	0.6823	0.8532	0.043
Mof_C 	C 	0.9834	0.7292	0.7429	0.298
Mof_C 	C 	0.3865	0.772	0.8303	0.321
Mof_C 	C 	0.5096	0.0525	0.7963	0.311
Mof_C 	C 	0.8103	0.936	0.4858	-1.308
Mof_H 	H 	0.7692	0.9691	0.4738	0.409
Mof_H 	H 	0.7731	0.9012	0.4715	0.395
Mof_H 	H 	0.854	0.9381	0.4563	0.411
Mof_C 	C 	0.8569	0.9351	0.5605	0.462
Mof_C 	C 	0.3502	0.5816	0.7378	-0.041
Mof_H 	H 	0.3742	0.6192	0.7423	0.054
Mof_C 	C 	0.1429	0.5054	0.7681	0.309
Mof_C 	C 	0.2297	0.5151	0.7451	-0.077
Mof_C 	C 	0.2676	0.5709	0.754	-0.007
Mof_H 	H 	0.2369	0.6009	0.7708	0.048
Mof_C 	C 	0.2776	0.4706	0.7221	0.008
Mof_H 	H 	0.2525	0.4333	0.7161	0.05
Mof_C 	C 	0.3986	0.5369	0.7148	-0.032
Mof_Zn	Zn	0.44513	0.32018	0.65277	1.211
Mof_Zn	Zn	0.1895	0.29939	0.30748	1.172
Mof_Zn	Zn	0.36698	0.10235	0.81181	1.185
Mof_Zn	Zn	0.99855	0.46277	0.79902	1.211
Mof_O 	O 	0.5842	0.32035	0.6879	-0.444
Mof_O 	O 	0.0315	0.33853	0.8118	-0.331
Mof_O 	O 	0.0619	0.23971	0.7109	-0.376
Mof_O 	O 	0.0532	0.20281	0.822	-0.406
Mof_O 	O 	0.4652	0.44151	0.6442	-0.304
Mof_O 	O 	0.4898	0.5873	0.6497	-0.427
Mof_O 	O 	0.3962	0.38142	0.7069	-0.445
Mof_N 	N 	0.164	0.38788	0.2679	-0.238
Mof_N 	N 	0.2914	0.3241	0.4128	-0.258
Mof_N 	N 	0.3521	0.17503	0.7455	-0.26
Mof_N 	N 	0.2344	0.42924	0.2748	-0.263
Mof_O 	O 	0.0992	0.4572	0.7488	-0.442
Mof_N 	N 	0.3779	0.25494	0.6873	-0.28
Mof_O 	O 	0.9091	0.39791	0.7704	-0.46
Mof_N 	N 	0.3885	0.33082	0.5366	-0.289
Mof_O 	O 	0.1168	0.54309	0.8051	-0.354
Mof_N 	N 	0.283	0.21496	0.7458	-0.256
Mof_O 	O 	0.5591	0.23246	0.6367	-0.334
Mof_N 	N 	0.3604	0.36449	0.4156	-0.254
Mof_O 	O 	0.5674	0.53624	0.753	-0.378
Mof_N 	N 	0.0975	0.47404	0.2348	-0.285
Mof_N 	N 	0.0606	0.4581	0.9138	-0.366
Mof_C 	C 	0.3622	0.481	0.7079	-0.057
Mof_C 	C 	0.4057	0.2006	0.71	0.108
Mof_H 	H 	0.4577	0.1829	0.7015	-0.022
Mof_C 	C 	0.1921	0.4786	0.2556	0.114
Mof_H 	H 	0.2238	0.5135	0.2561	-0.025
Mof_C 	C 	0.0842	0.417	0.2429	0.103
Mof_H 	H 	0.0246	0.4	0.2321	-0.009
Mof_C 	C 	0.8793	0.2984	0.7459	-0.073
Mof_C 	C 	0.7823	0.3075	0.7256	0.022
Mof_H 	H 	0.7601	0.3434	0.7356	0.053
Mof_C 	C 	0.3012	0.2619	0.7112	0.096
Mof_H 	H 	0.2655	0.2957	0.704	-0.026
Mof_C 	C 	0.3116	0.3047	0.486	0.107
Mof_H 	H 	0.2766	0.2763	0.5011	-0.049
Mof_C 	C 	0.9469	0.3477	0.7794	0.344
Mof_C 	C 	0.4155	0.3669	0.4891	0.124
Mof_H 	H 	0.468	0.3912	0.5068	-0.02
Mof_C 	C 	0.413	0.4318	0.6838	0.318
Mof_C 	C 	0.8497	0.201	0.6964	-0.055
Mof_H 	H 	0.8722	0.1651	0.6868	0.063
Mof_C 	C 	0.7183	0.2644	0.6908	-0.084
Mof_C 	C 	0.9133	0.2442	0.7335	-0.015
Mof_C 	C 	0.7529	0.211	0.6736	0.003
Mof_H 	H 	0.7107	0.1823	0.6468	0.043
Mof_C 	C 	0.0166	0.2292	0.7571	0.297
Mof_C 	C 	0.6135	0.272	0.6697	0.321
Mof_C 	C 	0.4904	0.5525	0.7037	0.311
Mof_C 	C 	0.1897	0.436	0.0142	-1.304
Mof_H 	H 	0.2308	0.4691	0.0262	0.407
Mof_H 	H 	0.2269	0.4012	0.0285	0.394
Mof_H 	H 	0.146	0.4381	0.0437	0.409
Mof_C 	C 	0.1431	0.4351	0.9395	0.46
Mof_C 	C 	0.3502	0.9184	0.2378	-0.042
Mof_H 	H 	0.3742	0.8808	0.2423	0.054
Mof_C 	C 	0.1429	0.9946	0.2681	0.306
Mof_C 	C 	0.2297	0.9849	0.2451	-0.079
Mof_C 	C 	0.2676	0.9291	0.254	-0.006
Mof_H 	H 	0.2369	0.8991	0.2708	0.047
Mof_C 	C 	0.2776	0.0294	0.2221	0.01
Mof_H 	H 	0.2525	0.0667	0.2161	0.049
Mof_C 	C 	0.3986	0.9631	0.2148	-0.032
Mof_Zn	Zn	0.44513	0.17982	0.15277	1.211
Mof_Zn	Zn	0.1895	0.20061	0.80748	1.172
Mof_Zn	Zn	0.36698	0.39765	0.31181	1.185
Mof_Zn	Zn	0.99855	0.03723	0.29902	1.21
Mof_O 	O 	0.5842	0.17965	0.1879	-0.444
Mof_O 	O 	0.0315	0.16147	0.3118	-0.329
Mof_O 	O 	0.0619	0.26029	0.2109	-0.376
Mof_O 	O 	0.0532	0.29719	0.322	-0.406
Mof_O 	O 	0.4652	0.05849	0.1442	-0.304
Mof_O 	O 	0.4898	0.9127	0.1497	-0.427
Mof_O 	O 	0.3962	0.11858	0.2069	-0.445
Mof_N 	N 	0.164	0.11212	0.7679	-0.238
Mof_N 	N 	0.2914	0.1759	0.9128	-0.258
Mof_N 	N 	0.3521	0.32497	0.2455	-0.26
Mof_N 	N 	0.2344	0.07076	0.7748	-0.263
Mof_O 	O 	0.0992	0.0428	0.2488	-0.439
Mof_N 	N 	0.3779	0.24506	0.1873	-0.28
Mof_O 	O 	0.9091	0.10209	0.2704	-0.46
Mof_N 	N 	0.3885	0.16918	0.0366	-0.29
Mof_O 	O 	0.1168	0.95691	0.3051	-0.355
Mof_N 	N 	0.283	0.28504	0.2458	-0.256
Mof_O 	O 	0.5591	0.26754	0.1367	-0.334
Mof_N 	N 	0.3604	0.13551	0.9156	-0.254
Mof_O 	O 	0.5674	0.96376	0.253	-0.378
Mof_N 	N 	0.0975	0.02596	0.7348	-0.285
Mof_N 	N 	0.0606	0.0419	0.4138	-0.365
Mof_C 	C 	0.3622	0.019	0.2079	-0.057
Mof_C 	C 	0.4057	0.2994	0.21	0.108
Mof_H 	H 	0.4577	0.3171	0.2015	-0.022
Mof_C 	C 	0.1921	0.0214	0.7556	0.119
Mof_H 	H 	0.2238	0.9865	0.7561	-0.029
Mof_C 	C 	0.0842	0.083	0.7429	0.103
Mof_H 	H 	0.0246	0.1	0.7321	-0.008
Mof_C 	C 	0.8793	0.2016	0.2459	-0.072
Mof_C 	C 	0.7823	0.1925	0.2256	0.022
Mof_H 	H 	0.7601	0.1566	0.2356	0.053
Mof_C 	C 	0.3012	0.2381	0.2112	0.096
Mof_H 	H 	0.2655	0.2043	0.204	-0.026
Mof_C 	C 	0.3116	0.1953	0.986	0.107
Mof_H 	H 	0.2766	0.2237	0.0011	-0.049
Mof_C 	C 	0.9469	0.1523	0.2794	0.342
Mof_C 	C 	0.4155	0.1331	0.9891	0.125
Mof_H 	H 	0.468	0.1088	0.0068	-0.02
Mof_C 	C 	0.413	0.0682	0.1838	0.318
Mof_C 	C 	0.8497	0.299	0.1964	-0.055
Mof_H 	H 	0.8722	0.3349	0.1868	0.063
Mof_C 	C 	0.7183	0.2356	0.1908	-0.084
Mof_C 	C 	0.9133	0.2558	0.2335	-0.015
Mof_C 	C 	0.7529	0.289	0.1736	0.003
Mof_H 	H 	0.7107	0.3177	0.1468	0.043
Mof_C 	C 	0.0166	0.2708	0.2571	0.298
Mof_C 	C 	0.6135	0.228	0.1697	0.321
Mof_C 	C 	0.4904	0.9475	0.2037	0.311
Mof_C 	C 	0.1897	0.064	0.5142	-1.308
Mof_H 	H 	0.2308	0.0309	0.5262	0.409
Mof_H 	H 	0.2269	0.0988	0.5285	0.395
Mof_H 	H 	0.146	0.0619	0.5437	0.411
Mof_C 	C 	0.1431	0.0649	0.4395	0.462
Mof_C 	C 	0.6498	0.4184	0.2622	-0.041
Mof_H 	H 	0.6258	0.3808	0.2577	0.054
Mof_C 	C 	0.8571	0.4946	0.2319	0.309
Mof_C 	C 	0.7703	0.4849	0.2549	-0.077
Mof_C 	C 	0.7324	0.4291	0.246	-0.007
Mof_H 	H 	0.7631	0.3991	0.2292	0.048
Mof_C 	C 	0.7224	0.5294	0.2779	0.008
Mof_H 	H 	0.7475	0.5667	0.2839	0.05
Mof_C 	C 	0.6014	0.4631	0.2852	-0.032
Mof_Zn	Zn	0.55487	0.67982	0.34723	1.211
Mof_Zn	Zn	0.8105	0.70061	0.69252	1.172
Mof_Zn	Zn	0.63302	0.89765	0.18819	1.185
Mof_Zn	Zn	0.00145	0.53723	0.20098	1.211
Mof_O 	O 	0.4158	0.67965	0.3121	-0.444
Mof_O 	O 	0.9685	0.66147	0.1882	-0.331
Mof_O 	O 	0.9381	0.76029	0.2891	-0.376
Mof_O 	O 	0.9468	0.79719	0.178	-0.406
Mof_O 	O 	0.5348	0.55849	0.3558	-0.304
Mof_O 	O 	0.5102	0.4127	0.3503	-0.427
Mof_O 	O 	0.6038	0.61858	0.2931	-0.445
Mof_N 	N 	0.836	0.61212	0.7321	-0.238
Mof_N 	N 	0.7086	0.6759	0.5872	-0.258
Mof_N 	N 	0.6479	0.82497	0.2545	-0.26
Mof_N 	N 	0.7656	0.57076	0.7252	-0.263
Mof_O 	O 	0.9008	0.5428	0.2512	-0.442
Mof_N 	N 	0.6221	0.74506	0.3127	-0.28
Mof_O 	O 	0.0909	0.60209	0.2296	-0.46
Mof_N 	N 	0.6115	0.66918	0.4634	-0.289
Mof_O 	O 	0.8832	0.45691	0.1949	-0.354
Mof_N 	N 	0.717	0.78504	0.2542	-0.256
Mof_O 	O 	0.4409	0.76754	0.3633	-0.334
Mof_N 	N 	0.6396	0.63551	0.5844	-0.254
Mof_O 	O 	0.4326	0.46376	0.247	-0.378
Mof_N 	N 	0.9025	0.52596	0.7652	-0.285
Mof_N 	N 	0.9394	0.5419	0.0862	-0.366
Mof_C 	C 	0.6378	0.519	0.2921	-0.057
Mof_C 	C 	0.5943	0.7994	0.29	0.108
Mof_H 	H 	0.5423	0.8171	0.2985	-0.022
Mof_C 	C 	0.8079	0.5214	0.7444	0.114
Mof_H 	H 	0.7762	0.4865	0.7439	-0.025
Mof_C 	C 	0.9158	0.583	0.7571	0.103
Mof_H 	H 	0.9754	0.6	0.7679	-0.009
Mof_C 	C 	0.1207	0.7016	0.2541	-0.073
Mof_C 	C 	0.2177	0.6925	0.2744	0.022
Mof_H 	H 	0.2399	0.6566	0.2644	0.053
Mof_C 	C 	0.6988	0.7381	0.2888	0.096
Mof_H 	H 	0.7345	0.7043	0.296	-0.026
Mof_C 	C 	0.6884	0.6953	0.514	0.107
Mof_H 	H 	0.7234	0.7237	0.4989	-0.049
Mof_C 	C 	0.0531	0.6523	0.2206	0.344
Mof_C 	C 	0.5845	0.6331	0.5109	0.124
Mof_H 	H 	0.532	0.6088	0.4932	-0.02
Mof_C 	C 	0.587	0.5682	0.3162	0.318
Mof_C 	C 	0.1503	0.799	0.3036	-0.055
Mof_H 	H 	0.1278	0.8349	0.3132	0.063
Mof_C 	C 	0.2817	0.7356	0.3092	-0.084
Mof_C 	C 	0.0867	0.7558	0.2665	-0.015
Mof_C 	C 	0.2471	0.789	0.3264	0.003
Mof_H 	H 	0.2893	0.8177	0.3532	0.043
Mof_C 	C 	0.9834	0.7708	0.2429	0.297
Mof_C 	C 	0.3865	0.728	0.3303	0.321
Mof_C 	C 	0.5096	0.4475	0.2963	0.311
Mof_C 	C 	0.8103	0.564	0.9858	-1.304
Mof_H 	H 	0.7692	0.5309	0.9738	0.407
Mof_H 	H 	0.7731	0.5988	0.9715	0.394
Mof_H 	H 	0.854	0.5619	0.9563	0.409
Mof_C 	C 	0.8569	0.5649	0.0605	0.46
_end
