data_functionalizedCrystal
_audit_creation_method	'EQeq! by Chris Wilmer'
_symmetry_space_group_name_H-M	'P1'
_symmetry_Int_Tables_number	1
_symmetry_cell_setting	triclinic
loop_
_symmetry_equiv_pos_as_xyz
  x,y,z
_cell_length_a	12.0682
_cell_length_b	12.0682
_cell_length_c	14.614
_cell_angle_alpha	86.1739
_cell_angle_beta	86.1739
_cell_angle_gamma	64.284
loop_
_atom_site_label
_atom_site_type_symbol
_atom_site_fract_x
_atom_site_fract_y
_atom_site_fract_z
_atom_site_charge
Mof_K 	K 	0.21232	0.21232	0.43504	3.661
Mof_K 	K 	0.06132	0.06132	0.59104	2.581
Mof_K 	K 	0.78768	0.78768	0.56496	3.661
Mof_K 	K 	0.93868	0.93868	0.40896	2.581
Mof_U 	U 	0.44362	0.9458	0.21096	0.032
Mof_U 	U 	0.0542	0.55638	0.78904	0.032
Mof_U 	U 	0.55638	0.0542	0.78904	0.032
Mof_U 	U 	0.9458	0.44362	0.21096	0.032
Mof_C 	C 	0.2227	0.8669	0.2761	0.187
Mof_C 	C 	0.2262	0.9456	0.3525	0.346
Mof_C 	C 	0.4353	0.1407	0.5905	0.16
Mof_C 	C 	0.3856	0.0476	0.6283	0.293
Mof_C 	C 	0.5159	0.0521	0.0139	0.23
Mof_C 	C 	0.1331	0.7773	0.7239	0.187
Mof_C 	C 	0.0544	0.7738	0.6475	0.346
Mof_C 	C 	0.8593	0.5647	0.4095	0.16
Mof_C 	C 	0.9524	0.6144	0.3717	0.293
Mof_C 	C 	0.9479	0.4841	0.9861	0.23
Mof_C 	C 	0.7773	0.1331	0.7239	0.187
Mof_C 	C 	0.7738	0.0544	0.6475	0.346
Mof_C 	C 	0.5647	0.8593	0.4095	0.16
Mof_C 	C 	0.6144	0.9524	0.3717	0.293
Mof_C 	C 	0.4841	0.9479	0.9861	0.23
Mof_C 	C 	0.8669	0.2227	0.2761	0.187
Mof_C 	C 	0.9456	0.2262	0.3525	0.346
Mof_C 	C 	0.1407	0.4353	0.5905	0.16
Mof_C 	C 	0.0476	0.3856	0.6283	0.293
Mof_C 	C 	0.0521	0.5159	0.0139	0.23
Mof_C 	C 	0.188	0.188	0.1488	0.236
Mof_C 	C 	0.242	0.242	0.2157	0.118
Mof_C 	C 	0.812	0.812	0.8512	0.236
Mof_C 	C 	0.758	0.758	0.7843	0.118
Mof_C 	C 	0.6542	0.6542	0.1863	0.21
Mof_C 	C 	0.7292	0.7292	0.174	0.222
Mof_C 	C 	0.3458	0.3458	0.8137	0.21
Mof_C 	C 	0.2708	0.2708	0.826	0.222
Mof_O 	O 	0.30125	0.85325	0.2104	-0.127
Mof_O 	O 	0.2862	0.0088	0.33	-0.585
Mof_O 	O 	0.1755	0.9425	0.4288	-0.795
Mof_O 	O 	0.1469	0.8235	0.2826	-0.414
Mof_O 	O 	0.43795	0.98755	0.7002	-0.235
Mof_O 	O 	0.4832	0.1744	0.6521	-0.182
Mof_O 	O 	0.3032	0.0368	0.5892	-0.782
Mof_O 	O 	0.4268	0.1756	0.5088	-0.591
Mof_O 	O 	0.255	0.081	0.1247	-0.167
Mof_O 	O 	0.34788	0.17428	0.2412	-0.314
Mof_O 	O 	0.53912	0.71392	0.1901	-0.131
Mof_O 	O 	0.66991	0.84351	0.1695	-0.176
Mof_O 	O 	0.51031	0.06951	0.0979	-0.133
Mof_O 	O 	0.54388	0.11088	0.9503	-0.13
Mof_O 	O 	0.14675	0.69875	0.7896	-0.127
Mof_O 	O 	0.9912	0.7138	0.67	-0.585
Mof_O 	O 	0.0575	0.8245	0.5712	-0.795
Mof_O 	O 	0.1765	0.8531	0.7174	-0.414
Mof_O 	O 	0.01245	0.56205	0.2998	-0.235
Mof_O 	O 	0.8256	0.5168	0.3479	-0.182
Mof_O 	O 	0.9632	0.6968	0.4108	-0.782
Mof_O 	O 	0.8244	0.5732	0.4912	-0.591
Mof_O 	O 	0.919	0.745	0.8753	-0.167
Mof_O 	O 	0.82572	0.65212	0.7588	-0.314
Mof_O 	O 	0.28608	0.46088	0.8099	-0.131
Mof_O 	O 	0.15649	0.33009	0.8305	-0.176
Mof_O 	O 	0.93049	0.48969	0.9021	-0.133
Mof_O 	O 	0.88912	0.45612	0.0497	-0.13
Mof_O 	O 	0.69875	0.14675	0.7896	-0.127
Mof_O 	O 	0.7138	0.9912	0.67	-0.585
Mof_O 	O 	0.8245	0.0575	0.5712	-0.795
Mof_O 	O 	0.8531	0.1765	0.7174	-0.414
Mof_O 	O 	0.56205	0.01245	0.2998	-0.235
Mof_O 	O 	0.5168	0.8256	0.3479	-0.182
Mof_O 	O 	0.6968	0.9632	0.4108	-0.782
Mof_O 	O 	0.5732	0.8244	0.4912	-0.591
Mof_O 	O 	0.745	0.919	0.8753	-0.167
Mof_O 	O 	0.65212	0.82572	0.7588	-0.314
Mof_O 	O 	0.46088	0.28608	0.8099	-0.131
Mof_O 	O 	0.33009	0.15649	0.8305	-0.176
Mof_O 	O 	0.48969	0.93049	0.9021	-0.133
Mof_O 	O 	0.45612	0.88912	0.0497	-0.13
Mof_O 	O 	0.85325	0.30125	0.2104	-0.127
Mof_O 	O 	0.0088	0.2862	0.33	-0.585
Mof_O 	O 	0.9425	0.1755	0.4288	-0.795
Mof_O 	O 	0.8235	0.1469	0.2826	-0.414
Mof_O 	O 	0.98755	0.43795	0.7002	-0.235
Mof_O 	O 	0.1744	0.4832	0.6521	-0.182
Mof_O 	O 	0.0368	0.3032	0.5892	-0.782
Mof_O 	O 	0.1756	0.4268	0.5088	-0.591
Mof_O 	O 	0.081	0.255	0.1247	-0.167
Mof_O 	O 	0.17428	0.34788	0.2412	-0.314
Mof_O 	O 	0.71392	0.53912	0.1901	-0.131
Mof_O 	O 	0.84351	0.66991	0.1695	-0.176
Mof_O 	O 	0.06951	0.51031	0.0979	-0.133
Mof_O 	O 	0.11088	0.54388	0.9503	-0.13
_end
