data_functionalizedCrystal
_audit_creation_method	'EQeq! by Chris Wilmer'
_symmetry_space_group_name_H-M	'P1'
_symmetry_Int_Tables_number	1
_symmetry_cell_setting	triclinic
loop_
_symmetry_equiv_pos_as_xyz
  x,y,z
_cell_length_a	8.7577
_cell_length_b	8.7577
_cell_length_c	11.958
_cell_angle_alpha	90
_cell_angle_beta	90
_cell_angle_gamma	101.79
loop_
_atom_site_label
_atom_site_type_symbol
_atom_site_fract_x
_atom_site_fract_y
_atom_site_fract_z
_atom_site_charge
Mof_Co	Co	0.11673	0.11673	-0	1.108
Mof_Co	Co	0.88327	0.88327	0.5	1.128
Mof_Co	Co	0.10513	0.89487	0.25	1.12
Mof_Co	Co	0.89487	0.10513	0.75	1.126
Mof_H 	H 	0.488	0.14	0.296	0.09
Mof_H 	H 	0.719	0.119	0.19	-0.008
Mof_H 	H 	0.4816	0.1404	0.905	-0.029
Mof_H 	H 	0.512	0.86	0.796	0.083
Mof_H 	H 	0.281	0.881	0.69	0.01
Mof_H 	H 	0.5184	0.8596	0.405	0.001
Mof_H 	H 	0.86	0.512	0.204	0.075
Mof_H 	H 	0.881	0.281	0.31	0.014
Mof_H 	H 	0.8596	0.5184	0.595	0.005
Mof_H 	H 	0.14	0.488	0.704	0.06
Mof_H 	H 	0.119	0.719	0.81	0.045
Mof_H 	H 	0.1404	0.4816	0.095	0.053
Mof_C 	C 	0.35713	0.14637	0.15276	0.102
Mof_C 	C 	0.49206	0.14014	0.2131	-0.182
Mof_C 	C 	0.62439	0.12781	0.1541	0.144
Mof_C 	C 	0.62348	0.13086	0.03705	-0.277
Mof_C 	C 	0.48519	0.13763	0.9837	0.228
Mof_C 	C 	0.76776	0.12528	0.97166	0.497
Mof_C 	C 	0.64287	0.85363	0.65276	0.089
Mof_C 	C 	0.50794	0.85986	0.7131	-0.146
Mof_C 	C 	0.37561	0.87219	0.6541	0.088
Mof_C 	C 	0.37652	0.86914	0.53705	-0.168
Mof_C 	C 	0.51481	0.86237	0.4837	0.113
Mof_C 	C 	0.23224	0.87472	0.47166	0.413
Mof_C 	C 	0.85363	0.64287	0.34724	0.087
Mof_C 	C 	0.85986	0.50794	0.2869	-0.144
Mof_C 	C 	0.87219	0.37561	0.3459	0.083
Mof_C 	C 	0.86914	0.37652	0.46295	-0.164
Mof_C 	C 	0.86237	0.51481	0.5163	0.111
Mof_C 	C 	0.87472	0.23224	0.52834	0.41
Mof_C 	C 	0.14637	0.35713	0.84724	0.066
Mof_C 	C 	0.14014	0.49206	0.7869	-0.085
Mof_C 	C 	0.12781	0.62439	0.8459	-0.009
Mof_C 	C 	0.13086	0.62348	0.96295	0.011
Mof_C 	C 	0.13763	0.48519	0.0163	-0.057
Mof_C 	C 	0.12528	0.76776	0.02834	0.259
Mof_S 	S 	0.17399	0.15643	0.21082	-0.398
Mof_S 	S 	0.82601	0.84357	0.71082	-0.39
Mof_S 	S 	0.84357	0.82601	0.28918	-0.394
Mof_S 	S 	0.15643	0.17399	0.78918	-0.373
Mof_N 	N 	0.35412	0.14152	0.03997	-0.294
Mof_N 	N 	0.64588	0.85848	0.53997	-0.255
Mof_N 	N 	0.85848	0.64588	0.46003	-0.253
Mof_N 	N 	0.14152	0.35412	0.96003	-0.195
Mof_O 	O 	0.88069	0.09235	0.02224	-0.525
Mof_O 	O 	0.23837	0.84279	0.36824	-0.48
Mof_O 	O 	0.11931	0.90765	0.52224	-0.489
Mof_O 	O 	0.76163	0.15721	0.86824	-0.492
Mof_O 	O 	0.90765	0.11931	0.47776	-0.483
Mof_O 	O 	0.15721	0.76163	0.13176	-0.448
Mof_O 	O 	0.09235	0.88069	0.97776	-0.407
Mof_O 	O 	0.84279	0.23837	0.63176	-0.474
_end
