data_functionalizedCrystal
_audit_creation_method	'EQeq! by Chris Wilmer'
_symmetry_space_group_name_H-M	'P1'
_symmetry_Int_Tables_number	1
_symmetry_cell_setting	triclinic
loop_
_symmetry_equiv_pos_as_xyz
  x,y,z
_cell_length_a	7.707
_cell_length_b	9.686
_cell_length_c	10.57
_cell_angle_alpha	106.65
_cell_angle_beta	105.252
_cell_angle_gamma	100.689
loop_
_atom_site_label
_atom_site_type_symbol
_atom_site_fract_x
_atom_site_fract_y
_atom_site_fract_z
_atom_site_charge
Mof_Gd	Gd	0.75327	0.96817	0.54917	1.771
Mof_Gd	Gd	0.24673	0.03183	0.45083	1.771
Mof_H 	H 	0.1871	0.5088	0.0359	0.175
Mof_H 	H 	0.4653	0.1978	0.9504	0.169
Mof_H 	H 	0.4522	0.3762	0.3444	0.181
Mof_H 	H 	0.1547	0.6011	0.2617	0.191
Mof_H 	H 	0.2246	0.5272	0.3761	0.179
Mof_H 	H 	0.3627	0.3194	0.784	0.195
Mof_H 	H 	0.2353	0.43	0.8104	0.185
Mof_H 	H 	0.6351	0.1252	0.1219	0.187
Mof_H 	H 	0.7354	0.2653	0.265	0.178
Mof_H 	H 	0.8129	0.4912	0.9641	0.175
Mof_H 	H 	0.5347	0.8022	0.0496	0.169
Mof_H 	H 	0.5478	0.6238	0.6556	0.181
Mof_H 	H 	0.8453	0.3989	0.7383	0.191
Mof_H 	H 	0.7754	0.4728	0.6239	0.179
Mof_H 	H 	0.6373	0.6806	0.216	0.195
Mof_H 	H 	0.7647	0.57	0.1896	0.185
Mof_H 	H 	0.3649	0.8748	0.8781	0.187
Mof_H 	H 	0.2646	0.7347	0.735	0.178
Mof_C 	C 	0.31	0.4589	0.2064	0.404
Mof_C 	C 	0.2599	0.4478	0.0661	-0.453
Mof_C 	C 	0.3137	0.3501	0.9699	0.408
Mof_C 	C 	0.4252	0.2633	0.0152	-0.444
Mof_C 	C 	0.4778	0.272	0.1542	0.394
Mof_C 	C 	0.418	0.3705	0.2495	-0.438
Mof_C 	C 	0.2625	0.5725	0.3112	-0.585
Mof_C 	C 	0.4271	0.7127	0.3952	0.519
Mof_C 	C 	0.2575	0.3349	0.8183	-0.58
Mof_C 	C 	0.0867	0.2093	0.7265	0.479
Mof_C 	C 	0.6141	0.1901	0.2044	-0.577
Mof_C 	C 	0.5556	0.0925	0.286	0.545
Mof_C 	C 	0.69	0.5411	0.7936	0.404
Mof_C 	C 	0.7401	0.5522	0.9339	-0.453
Mof_C 	C 	0.6863	0.6499	0.0301	0.408
Mof_C 	C 	0.5748	0.7367	0.9848	-0.444
Mof_C 	C 	0.5222	0.728	0.8458	0.394
Mof_C 	C 	0.582	0.6295	0.7505	-0.438
Mof_C 	C 	0.7375	0.4275	0.6888	-0.585
Mof_C 	C 	0.5729	0.2873	0.6048	0.519
Mof_C 	C 	0.7425	0.6651	0.1817	-0.58
Mof_C 	C 	0.9133	0.7907	0.2735	0.479
Mof_C 	C 	0.3859	0.8099	0.7956	-0.577
Mof_C 	C 	0.4444	0.9075	0.714	0.545
Mof_O 	O 	0.4033	0.843	0.4158	-0.579
Mof_O 	O 	0.5881	0.7012	0.4443	-0.489
Mof_O 	O 	0.0667	0.1394	0.5967	-0.577
Mof_O 	O 	0.9581	0.1713	0.7726	-0.439
Mof_O 	O 	0.3944	0.0667	0.289	-0.512
Mof_O 	O 	0.6854	0.0403	0.3428	-0.487
Mof_O 	O 	0.5967	0.157	0.5842	-0.579
Mof_O 	O 	0.4119	0.2988	0.5557	-0.489
Mof_O 	O 	0.9333	0.8606	0.4033	-0.577
Mof_O 	O 	0.0419	0.8287	0.2274	-0.439
Mof_O 	O 	0.6056	0.9333	0.711	-0.512
Mof_O 	O 	0.3146	0.9597	0.6572	-0.487
_end
