data_functionalizedCrystal
_audit_creation_method	'EQeq! by Chris Wilmer'
_symmetry_space_group_name_H-M	'P1'
_symmetry_Int_Tables_number	1
_symmetry_cell_setting	triclinic
loop_
_symmetry_equiv_pos_as_xyz
  x,y,z
_cell_length_a	31.7402
_cell_length_b	31.7402
_cell_length_c	16.7689
_cell_angle_alpha	90
_cell_angle_beta	90
_cell_angle_gamma	120
loop_
_atom_site_label
_atom_site_type_symbol
_atom_site_fract_x
_atom_site_fract_y
_atom_site_fract_z
_atom_site_charge
Mof_O 	O 	0.25027	0.6602	0.914	-0.397
Mof_C 	C 	0.1785	0.5515	0.7972	0.088
Mof_H 	H 	0.1886	0.5313	0.8197	0.018
Mof_C 	C 	0.1447	0.5344	0.7359	-0.18
Mof_H 	H 	0.1343	0.5038	0.7141	0.093
Mof_O 	O 	0.3398	0.59007	0.914	-0.397
Mof_C 	C 	0.4485	0.627	0.7972	0.087
Mof_H 	H 	0.4687	0.6573	0.8197	0.019
Mof_C 	C 	0.4656	0.6103	0.7359	-0.179
Mof_H 	H 	0.4962	0.6305	0.7141	0.094
Mof_O 	O 	0.40993	0.74973	0.914	-0.395
Mof_C 	C 	0.373	0.8215	0.7972	0.089
Mof_H 	H 	0.3427	0.8114	0.8197	0.02
Mof_C 	C 	0.3897	0.8553	0.7359	-0.178
Mof_H 	H 	0.3695	0.8657	0.7141	0.095
Mof_O 	O 	0.74973	0.3398	0.914	-0.396
Mof_C 	C 	0.8215	0.4485	0.7972	0.089
Mof_H 	H 	0.8114	0.4687	0.8197	0.02
Mof_C 	C 	0.8553	0.4656	0.7359	-0.178
Mof_H 	H 	0.8657	0.4962	0.7141	0.095
Mof_O 	O 	0.6602	0.40993	0.914	-0.395
Mof_C 	C 	0.5515	0.373	0.7972	0.088
Mof_H 	H 	0.5313	0.3427	0.8197	0.02
Mof_C 	C 	0.5344	0.3897	0.7359	-0.178
Mof_H 	H 	0.5038	0.3695	0.7141	0.094
Mof_O 	O 	0.59007	0.25027	0.914	-0.396
Mof_C 	C 	0.627	0.1785	0.7972	0.089
Mof_H 	H 	0.6573	0.1886	0.8197	0.02
Mof_C 	C 	0.6103	0.1447	0.7359	-0.179
Mof_H 	H 	0.6305	0.1343	0.7141	0.094
Mof_O 	O 	0.6602	0.25027	0.086	-0.458
Mof_C 	C 	0.5515	0.1785	0.2028	0.099
Mof_H 	H 	0.5313	0.1886	0.1803	-0.004
Mof_C 	C 	0.5344	0.1447	0.2641	-0.197
Mof_H 	H 	0.5038	0.1343	0.2859	0.09
Mof_O 	O 	0.59007	0.3398	0.086	-0.458
Mof_C 	C 	0.627	0.4485	0.2028	0.098
Mof_H 	H 	0.6573	0.4687	0.1803	-0.003
Mof_C 	C 	0.6103	0.4656	0.2641	-0.197
Mof_H 	H 	0.6305	0.4962	0.2859	0.091
Mof_O 	O 	0.74973	0.40993	0.086	-0.458
Mof_C 	C 	0.8215	0.373	0.2028	0.099
Mof_H 	H 	0.8114	0.3427	0.1803	-0.003
Mof_C 	C 	0.8553	0.3897	0.2641	-0.196
Mof_H 	H 	0.8657	0.3695	0.2859	0.091
Mof_O 	O 	0.3398	0.74973	0.086	-0.458
Mof_C 	C 	0.4485	0.8215	0.2028	0.099
Mof_H 	H 	0.4687	0.8114	0.1803	-0.003
Mof_C 	C 	0.4656	0.8553	0.2641	-0.196
Mof_H 	H 	0.4962	0.8657	0.2859	0.092
Mof_O 	O 	0.40993	0.6602	0.086	-0.458
Mof_C 	C 	0.373	0.5515	0.2028	0.098
Mof_H 	H 	0.3427	0.5313	0.1803	-0.004
Mof_C 	C 	0.3897	0.5344	0.2641	-0.197
Mof_H 	H 	0.3695	0.5038	0.2859	0.09
Mof_O 	O 	0.25027	0.59007	0.086	-0.458
Mof_C 	C 	0.1785	0.627	0.2028	0.099
Mof_H 	H 	0.1886	0.6573	0.1803	-0.004
Mof_C 	C 	0.1447	0.6103	0.2641	-0.197
Mof_H 	H 	0.1343	0.6305	0.2859	0.091
Mof_O 	O 	0.74973	0.3398	0.086	-0.458
Mof_C 	C 	0.8215	0.4485	0.2028	0.099
Mof_H 	H 	0.8114	0.4687	0.1803	-0.003
Mof_C 	C 	0.8553	0.4656	0.2641	-0.196
Mof_H 	H 	0.8657	0.4962	0.2859	0.092
Mof_O 	O 	0.6602	0.40993	0.086	-0.458
Mof_C 	C 	0.5515	0.373	0.2028	0.098
Mof_H 	H 	0.5313	0.3427	0.1803	-0.004
Mof_C 	C 	0.5344	0.3897	0.2641	-0.197
Mof_H 	H 	0.5038	0.3695	0.2859	0.09
Mof_O 	O 	0.59007	0.25027	0.086	-0.458
Mof_C 	C 	0.627	0.1785	0.2028	0.099
Mof_H 	H 	0.6573	0.1886	0.1803	-0.004
Mof_C 	C 	0.6103	0.1447	0.2641	-0.197
Mof_H 	H 	0.6305	0.1343	0.2859	0.091
Mof_O 	O 	0.25027	0.6602	0.086	-0.458
Mof_C 	C 	0.1785	0.5515	0.2028	0.099
Mof_H 	H 	0.1886	0.5313	0.1803	-0.004
Mof_C 	C 	0.1447	0.5344	0.2641	-0.197
Mof_H 	H 	0.1343	0.5038	0.2859	0.09
Mof_O 	O 	0.3398	0.59007	0.086	-0.458
Mof_C 	C 	0.4485	0.627	0.2028	0.098
Mof_H 	H 	0.4687	0.6573	0.1803	-0.003
Mof_C 	C 	0.4656	0.6103	0.2641	-0.197
Mof_H 	H 	0.4962	0.6305	0.2859	0.091
Mof_O 	O 	0.40993	0.74973	0.086	-0.458
Mof_C 	C 	0.373	0.8215	0.2028	0.099
Mof_H 	H 	0.3427	0.8114	0.1803	-0.003
Mof_C 	C 	0.3897	0.8553	0.2641	-0.196
Mof_H 	H 	0.3695	0.8657	0.2859	0.091
Mof_O 	O 	0.3398	0.74973	0.914	-0.396
Mof_C 	C 	0.4485	0.8215	0.7972	0.089
Mof_H 	H 	0.4687	0.8114	0.8197	0.02
Mof_C 	C 	0.4656	0.8553	0.7359	-0.178
Mof_H 	H 	0.4962	0.8657	0.7141	0.095
Mof_O 	O 	0.40993	0.6602	0.914	-0.395
Mof_C 	C 	0.373	0.5515	0.7972	0.088
Mof_H 	H 	0.3427	0.5313	0.8197	0.02
Mof_C 	C 	0.3897	0.5344	0.7359	-0.178
Mof_H 	H 	0.3695	0.5038	0.7141	0.094
Mof_O 	O 	0.25027	0.59007	0.914	-0.396
Mof_C 	C 	0.1785	0.627	0.7972	0.089
Mof_H 	H 	0.1886	0.6573	0.8197	0.02
Mof_C 	C 	0.1447	0.6103	0.7359	-0.179
Mof_H 	H 	0.1343	0.6305	0.7141	0.094
Mof_O 	O 	0.6602	0.25027	0.914	-0.396
Mof_C 	C 	0.5515	0.1785	0.7972	0.089
Mof_H 	H 	0.5313	0.1886	0.8197	0.019
Mof_C 	C 	0.5344	0.1447	0.7359	-0.179
Mof_H 	H 	0.5038	0.1343	0.7141	0.094
Mof_O 	O 	0.59007	0.3398	0.914	-0.396
Mof_C 	C 	0.627	0.4485	0.7972	0.088
Mof_H 	H 	0.6573	0.4687	0.8197	0.02
Mof_C 	C 	0.6103	0.4656	0.7359	-0.178
Mof_H 	H 	0.6305	0.4962	0.7141	0.095
Mof_O 	O 	0.74973	0.40993	0.914	-0.395
Mof_C 	C 	0.8215	0.373	0.7972	0.089
Mof_H 	H 	0.8114	0.3427	0.8197	0.02
Mof_C 	C 	0.8553	0.3897	0.7359	-0.178
Mof_H 	H 	0.8657	0.3695	0.7141	0.095
Mof_Ni	Ni	0.29701	0.70299	-0	1.093
Mof_Ni	Ni	0.29701	0.59402	-0	1.093
Mof_Ni	Ni	0.40598	0.70299	-0	1.093
Mof_Ni	Ni	0.70299	0.29701	-0	1.093
Mof_Ni	Ni	0.70299	0.40598	-0	1.093
Mof_Ni	Ni	0.59402	0.29701	-0	1.093
Mof_Co	Co	-1.26763e-18	0.5081	0.5	0.589
Mof_Co	Co	0.4919	0.4919	0.5	0.589
Mof_Co	Co	0.5081	-6.9017e-33	0.5	0.589
Mof_Co	Co	2.98148e-17	0.4919	0.5	0.589
Mof_Co	Co	0.5081	0.5081	0.5	0.59
Mof_Co	Co	0.4919	-6.9017e-33	0.5	0.589
Mof_C 	C 	0.1024	0.5512	0.5672	0.108
Mof_C 	C 	0.0404	0.5202	0.6674	0.105
Mof_C 	C 	0.0881	0.54405	0.6438	-0.168
Mof_C 	C 	0.1512	0.5756	0.544	-0.096
Mof_H 	H 	0.1782	0.5891	0.5773	0.068
Mof_C 	C 	0.0243	0.51215	0.7477	-0.097
Mof_H 	H 	0.0442	0.5221	0.7926	0.076
Mof_C 	C 	0.1261	0.56305	0.7068	0.143
Mof_C 	C 	0.1973	0.59865	0.8252	-0.141
Mof_C 	C 	0.2368	0.6184	0.8907	0.416
Mof_C 	C 	0.4488	0.5512	0.5672	0.108
Mof_C 	C 	0.4798	0.5202	0.6674	0.102
Mof_C 	C 	0.45595	0.54405	0.6438	-0.166
Mof_C 	C 	0.4244	0.5756	0.544	-0.095
Mof_H 	H 	0.4109	0.5891	0.5773	0.068
Mof_C 	C 	0.48785	0.51215	0.7477	-0.084
Mof_H 	H 	0.4779	0.5221	0.7926	0.072
Mof_C 	C 	0.43695	0.56305	0.7068	0.142
Mof_C 	C 	0.40135	0.59865	0.8252	-0.141
Mof_C 	C 	0.3816	0.6184	0.8907	0.416
Mof_C 	C 	0.4488	0.8976	0.5672	0.108
Mof_C 	C 	0.4798	0.9596	0.6674	0.103
Mof_C 	C 	0.45595	0.9119	0.6438	-0.165
Mof_C 	C 	0.4244	0.8488	0.544	-0.095
Mof_H 	H 	0.4109	0.8218	0.5773	0.068
Mof_C 	C 	0.48785	0.9757	0.7477	-0.072
Mof_H 	H 	0.4779	0.9558	0.7926	0.069
Mof_C 	C 	0.43695	0.8739	0.7068	0.143
Mof_C 	C 	0.40135	0.8027	0.8252	-0.14
Mof_C 	C 	0.3816	0.7632	0.8907	0.416
Mof_C 	C 	0.8976	0.4488	0.5672	0.108
Mof_C 	C 	0.9596	0.4798	0.6674	0.103
Mof_C 	C 	0.9119	0.45595	0.6438	-0.165
Mof_C 	C 	0.8488	0.4244	0.544	-0.095
Mof_H 	H 	0.8218	0.4109	0.5773	0.068
Mof_C 	C 	0.9757	0.48785	0.7477	-0.072
Mof_H 	H 	0.9558	0.4779	0.7926	0.069
Mof_C 	C 	0.8739	0.43695	0.7068	0.143
Mof_C 	C 	0.8027	0.40135	0.8252	-0.14
Mof_C 	C 	0.7632	0.3816	0.8907	0.416
Mof_C 	C 	0.5512	0.4488	0.5672	0.108
Mof_C 	C 	0.5202	0.4798	0.6674	0.102
Mof_C 	C 	0.54405	0.45595	0.6438	-0.166
Mof_C 	C 	0.5756	0.4244	0.544	-0.095
Mof_H 	H 	0.5891	0.4109	0.5773	0.068
Mof_C 	C 	0.51215	0.48785	0.7477	-0.084
Mof_H 	H 	0.5221	0.4779	0.7926	0.072
Mof_C 	C 	0.56305	0.43695	0.7068	0.142
Mof_C 	C 	0.59865	0.40135	0.8252	-0.141
Mof_C 	C 	0.6184	0.3816	0.8907	0.416
Mof_C 	C 	0.5512	0.1024	0.5672	0.108
Mof_C 	C 	0.5202	0.0404	0.6674	0.105
Mof_C 	C 	0.54405	0.0881	0.6438	-0.168
Mof_C 	C 	0.5756	0.1512	0.544	-0.096
Mof_H 	H 	0.5891	0.1782	0.5773	0.068
Mof_C 	C 	0.51215	0.0243	0.7477	-0.097
Mof_H 	H 	0.5221	0.0442	0.7926	0.076
Mof_C 	C 	0.56305	0.1261	0.7068	0.143
Mof_C 	C 	0.59865	0.1973	0.8252	-0.141
Mof_C 	C 	0.6184	0.2368	0.8907	0.416
Mof_C 	C 	0.5512	0.1024	0.4328	0.109
Mof_C 	C 	0.5202	0.0404	0.3326	0.1
Mof_C 	C 	0.54405	0.0881	0.3562	-0.173
Mof_C 	C 	0.5756	0.1512	0.456	-0.097
Mof_H 	H 	0.5891	0.1782	0.4227	0.068
Mof_C 	C 	0.51215	0.0243	0.2523	-0.104
Mof_H 	H 	0.5221	0.0442	0.2074	0.055
Mof_C 	C 	0.56305	0.1261	0.2932	0.148
Mof_C 	C 	0.59865	0.1973	0.1748	-0.171
Mof_C 	C 	0.6184	0.2368	0.1093	0.425
Mof_C 	C 	0.5512	0.4488	0.4328	0.108
Mof_C 	C 	0.5202	0.4798	0.3326	0.097
Mof_C 	C 	0.54405	0.45595	0.3562	-0.171
Mof_C 	C 	0.5756	0.4244	0.456	-0.097
Mof_H 	H 	0.5891	0.4109	0.4227	0.068
Mof_C 	C 	0.51215	0.48785	0.2523	-0.091
Mof_H 	H 	0.5221	0.4779	0.2074	0.052
Mof_C 	C 	0.56305	0.43695	0.2932	0.148
Mof_C 	C 	0.59865	0.40135	0.1748	-0.171
Mof_C 	C 	0.6184	0.3816	0.1093	0.425
Mof_C 	C 	0.8976	0.4488	0.4328	0.109
Mof_C 	C 	0.9596	0.4798	0.3326	0.099
Mof_C 	C 	0.9119	0.45595	0.3562	-0.171
Mof_C 	C 	0.8488	0.4244	0.456	-0.097
Mof_H 	H 	0.8218	0.4109	0.4227	0.068
Mof_C 	C 	0.9757	0.48785	0.2523	-0.079
Mof_H 	H 	0.9558	0.4779	0.2074	0.049
Mof_C 	C 	0.8739	0.43695	0.2932	0.148
Mof_C 	C 	0.8027	0.40135	0.1748	-0.171
Mof_C 	C 	0.7632	0.3816	0.1093	0.425
Mof_C 	C 	0.4488	0.8976	0.4328	0.109
Mof_C 	C 	0.4798	0.9596	0.3326	0.099
Mof_C 	C 	0.45595	0.9119	0.3562	-0.171
Mof_C 	C 	0.4244	0.8488	0.456	-0.097
Mof_H 	H 	0.4109	0.8218	0.4227	0.068
Mof_C 	C 	0.48785	0.9757	0.2523	-0.079
Mof_H 	H 	0.4779	0.9558	0.2074	0.049
Mof_C 	C 	0.43695	0.8739	0.2932	0.148
Mof_C 	C 	0.40135	0.8027	0.1748	-0.171
Mof_C 	C 	0.3816	0.7632	0.1093	0.425
Mof_C 	C 	0.4488	0.5512	0.4328	0.108
Mof_C 	C 	0.4798	0.5202	0.3326	0.097
Mof_C 	C 	0.45595	0.54405	0.3562	-0.171
Mof_C 	C 	0.4244	0.5756	0.456	-0.097
Mof_H 	H 	0.4109	0.5891	0.4227	0.068
Mof_C 	C 	0.48785	0.51215	0.2523	-0.091
Mof_H 	H 	0.4779	0.5221	0.2074	0.052
Mof_C 	C 	0.43695	0.56305	0.2932	0.148
Mof_C 	C 	0.40135	0.59865	0.1748	-0.171
Mof_C 	C 	0.3816	0.6184	0.1093	0.425
Mof_C 	C 	0.1024	0.5512	0.4328	0.109
Mof_C 	C 	0.0404	0.5202	0.3326	0.1
Mof_C 	C 	0.0881	0.54405	0.3562	-0.173
Mof_C 	C 	0.1512	0.5756	0.456	-0.097
Mof_H 	H 	0.1782	0.5891	0.4227	0.068
Mof_C 	C 	0.0243	0.51215	0.2523	-0.104
Mof_H 	H 	0.0442	0.5221	0.2074	0.055
Mof_C 	C 	0.1261	0.56305	0.2932	0.148
Mof_C 	C 	0.1973	0.59865	0.1748	-0.171
Mof_C 	C 	0.2368	0.6184	0.1093	0.425
Mof_N 	N 	0.0718	0.5359	0.5	-0.295
Mof_N 	N 	0.4641	0.5359	0.5	-0.295
Mof_N 	N 	0.4641	0.9282	0.5	-0.293
Mof_N 	N 	0.9282	0.4641	0.5	-0.293
Mof_N 	N 	0.5359	0.4641	0.5	-0.295
Mof_N 	N 	0.5359	0.0718	0.5	-0.295
Mof_O 	O 	0.33333	0.66667	-0	-0.596
Mof_O 	O 	0.66667	0.33333	-0	-0.596
Mof_N 	N 	2.23355e-17	0.5	0.6156	-0.302
Mof_N 	N 	0.5	0.5	0.6156	-0.298
Mof_N 	N 	0.5	-6.9017e-33	0.6156	-0.302
Mof_N 	N 	0.5	-3.45085e-33	0.3844	-0.303
Mof_N 	N 	0.5	0.5	0.3844	-0.299
Mof_N 	N 	-2.48708e-17	0.5	0.3844	-0.303
_end
