data_functionalizedCrystal
_audit_creation_method	'EQeq! by Chris Wilmer'
_symmetry_space_group_name_H-M	'P1'
_symmetry_Int_Tables_number	1
_symmetry_cell_setting	triclinic
loop_
_symmetry_equiv_pos_as_xyz
  x,y,z
_cell_length_a	14.3813
_cell_length_b	14.3813
_cell_length_c	15.7699
_cell_angle_alpha	90
_cell_angle_beta	90
_cell_angle_gamma	120
loop_
_atom_site_label
_atom_site_type_symbol
_atom_site_fract_x
_atom_site_fract_y
_atom_site_fract_z
_atom_site_charge
Mof_O 	O 	0.9458	0.3823	0.0889	-0.435
Mof_C 	C 	0.8685	0.3487	0.138	0.422
Mof_O 	O 	0.8054	0.3858	0.1459	-0.456
Mof_C 	C 	0.849	0.2564	0.1918	-0.196
Mof_H 	H 	0.8287	0.1927	0.1558	0.071
Mof_H 	H 	0.9155	0.2733	0.2229	0.109
Mof_O 	O 	0.6177	0.5635	0.0889	-0.474
Mof_C 	C 	0.6513	0.5198	0.138	0.431
Mof_O 	O 	0.6142	0.4196	0.1459	-0.471
Mof_C 	C 	0.7436	0.5926	0.1918	-0.214
Mof_H 	H 	0.8073	0.636	0.1558	0.1
Mof_H 	H 	0.7267	0.6422	0.2229	0.1
Mof_O 	O 	0.4365	0.0542	0.0889	-0.51
Mof_C 	C 	0.4802	0.1315	0.138	0.41
Mof_O 	O 	0.5804	0.1946	0.1459	-0.476
Mof_C 	C 	0.4074	0.151	0.1918	-0.175
Mof_H 	H 	0.364	0.1713	0.1558	0.055
Mof_H 	H 	0.3578	0.0845	0.2229	0.052
Mof_O 	O 	0.0542	0.6177	0.0889	-0.506
Mof_C 	C 	0.1315	0.6513	0.138	0.419
Mof_O 	O 	0.1946	0.6142	0.1459	-0.478
Mof_C 	C 	0.151	0.7436	0.1918	-0.193
Mof_H 	H 	0.1713	0.8073	0.1558	0.081
Mof_H 	H 	0.0845	0.7267	0.2229	0.065
Mof_O 	O 	0.3823	0.4365	0.0889	-0.483
Mof_C 	C 	0.3487	0.4802	0.138	0.413
Mof_O 	O 	0.3858	0.5804	0.1459	-0.467
Mof_C 	C 	0.2564	0.4074	0.1918	-0.178
Mof_H 	H 	0.1927	0.364	0.1558	0.05
Mof_H 	H 	0.2733	0.3578	0.2229	0.073
Mof_O 	O 	0.5635	0.9458	0.0889	-0.433
Mof_C 	C 	0.5198	0.8685	0.138	0.43
Mof_O 	O 	0.4196	0.8054	0.1459	-0.459
Mof_C 	C 	0.5926	0.849	0.1918	-0.214
Mof_H 	H 	0.636	0.8287	0.1558	0.094
Mof_H 	H 	0.6422	0.9155	0.2229	0.121
Mof_O 	O 	0.3823	0.9458	0.4111	-0.398
Mof_C 	C 	0.3487	0.8685	0.362	0.425
Mof_O 	O 	0.3858	0.8054	0.3541	-0.437
Mof_C 	C 	0.2564	0.849	0.3082	-0.198
Mof_H 	H 	0.1927	0.8287	0.3442	0.087
Mof_H 	H 	0.2733	0.9155	0.2771	0.109
Mof_O 	O 	0.5635	0.6177	0.4111	-0.436
Mof_C 	C 	0.5198	0.6513	0.362	0.434
Mof_O 	O 	0.4196	0.6142	0.3541	-0.451
Mof_C 	C 	0.5926	0.7436	0.3082	-0.215
Mof_H 	H 	0.636	0.8073	0.3442	0.118
Mof_H 	H 	0.6422	0.7267	0.2771	0.101
Mof_O 	O 	0.0542	0.4365	0.4111	-0.471
Mof_C 	C 	0.1315	0.4802	0.362	0.413
Mof_O 	O 	0.1946	0.5804	0.3541	-0.456
Mof_C 	C 	0.151	0.4074	0.3082	-0.177
Mof_H 	H 	0.1713	0.364	0.3442	0.073
Mof_H 	H 	0.0845	0.3578	0.2771	0.053
Mof_O 	O 	0.6177	0.0542	0.4111	-0.467
Mof_C 	C 	0.6513	0.1315	0.362	0.422
Mof_O 	O 	0.6142	0.1946	0.3541	-0.458
Mof_C 	C 	0.7436	0.151	0.3082	-0.195
Mof_H 	H 	0.8073	0.1713	0.3442	0.098
Mof_H 	H 	0.7267	0.0845	0.2771	0.067
Mof_O 	O 	0.4365	0.3823	0.4111	-0.444
Mof_C 	C 	0.4802	0.3487	0.362	0.416
Mof_O 	O 	0.5804	0.3858	0.3541	-0.448
Mof_C 	C 	0.4074	0.2564	0.3082	-0.18
Mof_H 	H 	0.364	0.1927	0.3442	0.068
Mof_H 	H 	0.3578	0.2733	0.2771	0.074
Mof_O 	O 	0.9458	0.5635	0.4111	-0.395
Mof_C 	C 	0.8685	0.5198	0.362	0.433
Mof_O 	O 	0.8054	0.4196	0.3541	-0.439
Mof_C 	C 	0.849	0.5926	0.3082	-0.216
Mof_H 	H 	0.8287	0.636	0.3442	0.111
Mof_H 	H 	0.9155	0.6422	0.2771	0.122
Mof_O 	O 	0.0542	0.6177	0.9111	-0.402
Mof_C 	C 	0.1315	0.6513	0.862	0.423
Mof_O 	O 	0.1946	0.6142	0.8541	-0.432
Mof_C 	C 	0.151	0.7436	0.8082	-0.199
Mof_H 	H 	0.1713	0.8073	0.8442	0.121
Mof_H 	H 	0.0845	0.7267	0.7771	0.076
Mof_O 	O 	0.3823	0.4365	0.9111	-0.378
Mof_C 	C 	0.3487	0.4802	0.862	0.417
Mof_O 	O 	0.3858	0.5804	0.8541	-0.422
Mof_C 	C 	0.2564	0.4074	0.8082	-0.185
Mof_H 	H 	0.1927	0.364	0.8442	0.092
Mof_H 	H 	0.2733	0.3578	0.7771	0.084
Mof_O 	O 	0.5635	0.9458	0.9111	-0.332
Mof_C 	C 	0.5198	0.8685	0.862	0.434
Mof_O 	O 	0.4196	0.8054	0.8541	-0.414
Mof_C 	C 	0.5926	0.849	0.8082	-0.22
Mof_H 	H 	0.636	0.8287	0.8442	0.134
Mof_H 	H 	0.6422	0.9155	0.7771	0.131
Mof_O 	O 	0.9458	0.3823	0.9111	-0.336
Mof_C 	C 	0.8685	0.3487	0.862	0.425
Mof_O 	O 	0.8054	0.3858	0.8541	-0.413
Mof_C 	C 	0.849	0.2564	0.8082	-0.203
Mof_H 	H 	0.8287	0.1927	0.8442	0.11
Mof_H 	H 	0.9155	0.2733	0.7771	0.118
Mof_O 	O 	0.6177	0.5635	0.9111	-0.371
Mof_C 	C 	0.6513	0.5198	0.862	0.434
Mof_O 	O 	0.6142	0.4196	0.8541	-0.426
Mof_C 	C 	0.7436	0.5926	0.8082	-0.219
Mof_H 	H 	0.8073	0.636	0.8442	0.14
Mof_H 	H 	0.7267	0.6422	0.7771	0.11
Mof_O 	O 	0.4365	0.0542	0.9111	-0.405
Mof_C 	C 	0.4802	0.1315	0.862	0.414
Mof_O 	O 	0.5804	0.1946	0.8541	-0.431
Mof_C 	C 	0.4074	0.151	0.8082	-0.182
Mof_H 	H 	0.364	0.1713	0.8442	0.097
Mof_H 	H 	0.3578	0.0845	0.7771	0.063
Mof_O 	O 	0.6177	0.0542	0.5889	-0.468
Mof_C 	C 	0.6513	0.1315	0.638	0.426
Mof_O 	O 	0.6142	0.1946	0.6459	-0.46
Mof_C 	C 	0.7436	0.151	0.6918	-0.201
Mof_H 	H 	0.8073	0.1713	0.6558	0.102
Mof_H 	H 	0.7267	0.0845	0.7229	0.075
Mof_O 	O 	0.4365	0.3823	0.5889	-0.445
Mof_C 	C 	0.4802	0.3487	0.638	0.42
Mof_O 	O 	0.5804	0.3858	0.6459	-0.45
Mof_C 	C 	0.4074	0.2564	0.6918	-0.187
Mof_H 	H 	0.364	0.1927	0.6558	0.073
Mof_H 	H 	0.3578	0.2733	0.7229	0.084
Mof_O 	O 	0.9458	0.5635	0.5889	-0.396
Mof_C 	C 	0.8685	0.5198	0.638	0.436
Mof_O 	O 	0.8054	0.4196	0.6459	-0.441
Mof_C 	C 	0.849	0.5926	0.6918	-0.222
Mof_H 	H 	0.8287	0.636	0.6558	0.115
Mof_H 	H 	0.9155	0.6422	0.7229	0.13
Mof_O 	O 	0.3823	0.9458	0.5889	-0.399
Mof_C 	C 	0.3487	0.8685	0.638	0.427
Mof_O 	O 	0.3858	0.8054	0.6459	-0.44
Mof_C 	C 	0.2564	0.849	0.6918	-0.205
Mof_H 	H 	0.1927	0.8287	0.6558	0.091
Mof_H 	H 	0.2733	0.9155	0.7229	0.117
Mof_O 	O 	0.5635	0.6177	0.5889	-0.437
Mof_C 	C 	0.5198	0.6513	0.638	0.437
Mof_O 	O 	0.4196	0.6142	0.6459	-0.454
Mof_C 	C 	0.5926	0.7436	0.6918	-0.222
Mof_H 	H 	0.636	0.8073	0.6558	0.122
Mof_H 	H 	0.6422	0.7267	0.7229	0.11
Mof_O 	O 	0.0542	0.4365	0.5889	-0.471
Mof_C 	C 	0.1315	0.4802	0.638	0.417
Mof_O 	O 	0.1946	0.5804	0.6459	-0.459
Mof_C 	C 	0.151	0.4074	0.6918	-0.184
Mof_H 	H 	0.1713	0.364	0.6558	0.078
Mof_H 	H 	0.0845	0.3578	0.7229	0.063
Mof_Gd	Gd	0.66667	0.33333	0.25	1.894
Mof_Gd	Gd	0.33333	0.66667	0.25	1.894
Mof_Gd	Gd	0.33333	0.66667	0.75	1.907
Mof_Gd	Gd	0.66667	0.33333	0.75	1.907
Mof_Ni	Ni	-4.02489e-17	0.5	-0	1.007
Mof_Ni	Ni	0.5	0.5	-0	1.044
Mof_Ni	Ni	0.5	0	-0	1.007
Mof_Ni	Ni	0.5	0	0.5	1.072
Mof_Ni	Ni	0.5	0.5	0.5	1.109
Mof_Ni	Ni	-2.68958e-17	0.5	0.5	1.072
Mof_O 	O 	0.7659	0.2341	0.25	-0.234
Mof_O 	O 	0.7659	0.5318	0.25	-0.221
Mof_O 	O 	0.4682	0.2341	0.25	-0.247
Mof_O 	O 	0.2341	0.7659	0.25	-0.234
Mof_O 	O 	0.2341	0.4682	0.25	-0.247
Mof_O 	O 	0.5318	0.7659	0.25	-0.221
Mof_O 	O 	0.2341	0.7659	0.75	-0.228
Mof_O 	O 	0.2341	0.4682	0.75	-0.24
Mof_O 	O 	0.5318	0.7659	0.75	-0.215
Mof_O 	O 	0.7659	0.2341	0.75	-0.227
Mof_O 	O 	0.7659	0.5318	0.75	-0.215
Mof_O 	O 	0.4682	0.2341	0.75	-0.24
_end
