data_functionalizedCrystal
_audit_creation_method	'EQeq! by Chris Wilmer'
_symmetry_space_group_name_H-M	'P1'
_symmetry_Int_Tables_number	1
_symmetry_cell_setting	triclinic
loop_
_symmetry_equiv_pos_as_xyz
  x,y,z
_cell_length_a	31.4206
_cell_length_b	31.4206
_cell_length_c	44.8239
_cell_angle_alpha	90
_cell_angle_beta	90
_cell_angle_gamma	90
loop_
_atom_site_label
_atom_site_type_symbol
_atom_site_fract_x
_atom_site_fract_y
_atom_site_fract_z
_atom_site_charge
Mof_Zn	Zn	0.64012	0.6941	0.33238	1.226
Mof_Zn	Zn	0.60506	0.64592	0.37391	1.228
Mof_O 	O 	0.69169	0.68691	0.35659	-0.464
Mof_O 	O 	0.66146	0.64857	0.39262	-0.451
Mof_O 	O 	0.7504	0.58274	0.46913	-0.48
Mof_O 	O 	0.82081	0.59269	0.4687	-0.482
Mof_O 	O 	0.57581	0.60782	0.40788	-0.457
Mof_H 	H 	0.5539	0.5971	0.4013	0.254
Mof_O 	O 	0.667	0.73413	0.29861	-0.457
Mof_H 	H 	0.6861	0.7213	0.29	0.257
Mof_C 	C 	0.77921	0.62783	0.43242	-0.05
Mof_C 	C 	0.78363	0.59873	0.45912	0.379
Mof_C 	C 	0.73899	0.63524	0.42038	-0.005
Mof_H 	H 	0.7149	0.6239	0.4294	0.072
Mof_C 	C 	0.73546	0.65987	0.39467	-0.045
Mof_C 	C 	0.69262	0.66594	0.38002	0.37
Mof_C 	C 	0.77134	0.67662	0.38117	-0.076
Mof_H 	H 	0.7688	0.6927	0.3638	0.094
Mof_C 	C 	0.81521	0.64481	0.41927	-0.076
Mof_H 	H 	0.8419	0.6398	0.4275	0.079
Mof_C 	C 	0.81113	0.66936	0.39365	0.106
Mof_N 	N 	0.84733	0.68514	0.37878	-0.093
Mof_N 	N 	0.84469	0.7097	0.35576	-0.038
Mof_N 	N 	0.88363	0.7194	0.34668	-0.071
Mof_C 	C 	0.88851	0.67289	0.38096	0.01
Mof_H 	H 	0.8992	0.6522	0.3938	0.035
Mof_C 	C 	0.91147	0.6961	0.36124	0.03
Mof_C 	C 	0.97132	0.71597	0.32942	-0.138
Mof_H 	H 	0.953	0.7332	0.3185	0.097
Mof_C 	C 	0.95624	0.69277	0.35361	0.085
Mof_C 	C 	0.98384	0.66765	0.37022	-0.138
Mof_H 	H 	0.9737	0.6525	0.3865	0.094
Mof_C 	C 	0.01397	0.71323	0.32169	0.085
Mof_C 	C 	0.04179	0.68934	0.33885	-0.137
Mof_H 	H 	0.0707	0.6895	0.3345	0.097
Mof_C 	C 	0.0542	0.63866	0.38012	0.036
Mof_C 	C 	0.02651	0.66518	0.36251	0.083
Mof_C 	C 	0.00969	0.75734	0.27428	0.01
Mof_H 	H 	0.9803	0.7595	0.2722	0.039
Mof_C 	C 	0.03067	0.7368	0.29655	0.035
Mof_N 	N 	0.03879	0.77382	0.25592	-0.092
Mof_N 	N 	0.07002	0.7401	0.29022	-0.073
Mof_N 	N 	0.07559	0.7614	0.26462	-0.038
Mof_C 	C 	0.09714	0.63338	0.37799	0.008
Mof_H 	H 	0.1151	0.647	0.3646	0.04
Mof_N 	N 	0.10877	0.60479	0.39884	-0.091
Mof_N 	N 	0.07649	0.5972	0.41507	-0.04
Mof_N 	N 	0.04251	0.6146	0.40156	-0.076
Mof_C 	C 	0.9897	0.8241	0.18948	-0.046
Mof_C 	C 	0.99344	0.80153	0.21617	-0.078
Mof_H 	H 	0.9696	0.7895	0.2251	0.087
Mof_C 	C 	0.06912	0.81517	0.21613	-0.076
Mof_H 	H 	0.0956	0.8121	0.2251	0.094
Mof_C 	C 	0.03336	0.79748	0.22906	0.107
Mof_C 	C 	0.19347	0.54412	0.43627	-0.05
Mof_C 	C 	0.15344	0.5588	0.42832	-0.072
Mof_H 	H 	0.1292	0.5487	0.4379	0.089
Mof_C 	C 	0.15011	0.5888	0.4058	0.105
Mof_C 	C 	0.2294	0.55858	0.42165	-0.005
Mof_H 	H 	0.2562	0.549	0.4274	0.072
Mof_C 	C 	0.02546	0.84244	0.17642	-0.005
Mof_H 	H 	0.0228	0.8579	0.1589	0.07
Mof_C 	C 	0.94743	0.82713	0.17433	0.363
Mof_C 	C 	0.22526	0.58749	0.39841	-0.04
Mof_C 	C 	0.06496	0.83762	0.18954	-0.045
Mof_C 	C 	0.10427	0.85463	0.17443	0.367
Mof_C 	C 	0.18556	0.60246	0.39017	-0.079
Mof_H 	H 	0.1827	0.6214	0.3744	0.088
Mof_C 	C 	0.19743	0.51089	0.46024	0.377
Mof_C 	C 	0.26429	0.6015	0.38166	0.358
Mof_O 	O 	0.13949	0.84703	0.18676	-0.462
Mof_O 	O 	0.9169	0.80669	0.18552	-0.449
Mof_O 	O 	0.94541	0.84979	0.15122	-0.465
Mof_O 	O 	0.16422	0.494	0.46958	-0.477
Mof_O 	O 	0.0985	0.8743	0.15062	-0.46
Mof_O 	O 	0.23481	0.50335	0.46921	-0.474
Mof_O 	O 	0.29957	0.59051	0.39209	-0.454
Mof_O 	O 	0.25844	0.62279	0.35816	-0.443
Mof_Zn	Zn	0.14012	0.1941	0.83238	1.227
Mof_Zn	Zn	0.10506	0.14592	0.87391	1.229
Mof_O 	O 	0.19169	0.18691	0.85659	-0.463
Mof_O 	O 	0.16146	0.14857	0.89262	-0.449
Mof_O 	O 	0.2504	0.08274	0.96913	-0.476
Mof_O 	O 	0.32081	0.09269	0.9687	-0.479
Mof_O 	O 	0.07581	0.10782	0.90788	-0.456
Mof_H 	H 	0.0539	0.0971	0.9013	0.255
Mof_O 	O 	0.167	0.23413	0.79861	-0.456
Mof_H 	H 	0.1861	0.2213	0.79	0.258
Mof_C 	C 	0.27921	0.12783	0.93242	-0.048
Mof_C 	C 	0.28363	0.09873	0.95912	0.379
Mof_C 	C 	0.23899	0.13524	0.92038	-0.005
Mof_H 	H 	0.2149	0.1239	0.9294	0.073
Mof_C 	C 	0.23546	0.15987	0.89467	-0.044
Mof_C 	C 	0.19262	0.16594	0.88002	0.371
Mof_C 	C 	0.27134	0.17662	0.88117	-0.075
Mof_H 	H 	0.2688	0.1927	0.8638	0.095
Mof_C 	C 	0.31521	0.14481	0.91927	-0.075
Mof_H 	H 	0.3419	0.1398	0.9275	0.081
Mof_C 	C 	0.31113	0.16936	0.89365	0.106
Mof_N 	N 	0.34733	0.18514	0.87878	-0.093
Mof_N 	N 	0.34469	0.2097	0.85576	-0.038
Mof_N 	N 	0.38363	0.2194	0.84668	-0.071
Mof_C 	C 	0.38851	0.17289	0.88096	0.011
Mof_H 	H 	0.3992	0.1522	0.8938	0.036
Mof_C 	C 	0.41147	0.1961	0.86124	0.031
Mof_C 	C 	0.47132	0.21597	0.82942	-0.138
Mof_H 	H 	0.453	0.2332	0.8185	0.097
Mof_C 	C 	0.45624	0.19277	0.85361	0.085
Mof_C 	C 	0.48384	0.16765	0.87022	-0.138
Mof_H 	H 	0.4737	0.1525	0.8865	0.094
Mof_C 	C 	0.51397	0.21323	0.82169	0.085
Mof_C 	C 	0.54179	0.18934	0.83885	-0.137
Mof_H 	H 	0.5707	0.1895	0.8345	0.097
Mof_C 	C 	0.5542	0.13866	0.88012	0.036
Mof_C 	C 	0.52651	0.16518	0.86251	0.083
Mof_C 	C 	0.50969	0.25734	0.77428	0.01
Mof_H 	H 	0.4803	0.2595	0.7722	0.039
Mof_C 	C 	0.53067	0.2368	0.79655	0.035
Mof_N 	N 	0.53879	0.27382	0.75592	-0.092
Mof_N 	N 	0.57002	0.2401	0.79022	-0.073
Mof_N 	N 	0.57559	0.2614	0.76462	-0.038
Mof_C 	C 	0.59714	0.13338	0.87799	0.008
Mof_H 	H 	0.6151	0.147	0.8646	0.04
Mof_N 	N 	0.60877	0.10479	0.89884	-0.091
Mof_N 	N 	0.57649	0.0972	0.91507	-0.04
Mof_N 	N 	0.54251	0.1146	0.90156	-0.076
Mof_C 	C 	0.4897	0.3241	0.68948	-0.046
Mof_C 	C 	0.49344	0.30153	0.71617	-0.078
Mof_H 	H 	0.4696	0.2895	0.7251	0.087
Mof_C 	C 	0.56912	0.31517	0.71613	-0.076
Mof_H 	H 	0.5956	0.3121	0.7251	0.094
Mof_C 	C 	0.53336	0.29748	0.72906	0.107
Mof_C 	C 	0.69347	0.04412	0.93627	-0.049
Mof_C 	C 	0.65344	0.0588	0.92832	-0.072
Mof_H 	H 	0.6292	0.0487	0.9379	0.09
Mof_C 	C 	0.65011	0.0888	0.9058	0.106
Mof_C 	C 	0.7294	0.05858	0.92165	-0.005
Mof_H 	H 	0.7562	0.049	0.9274	0.072
Mof_C 	C 	0.52546	0.34244	0.67642	-0.005
Mof_H 	H 	0.5228	0.3579	0.6589	0.07
Mof_C 	C 	0.44743	0.32713	0.67433	0.363
Mof_C 	C 	0.72526	0.08749	0.89841	-0.039
Mof_C 	C 	0.56496	0.33762	0.68954	-0.045
Mof_C 	C 	0.60427	0.35463	0.67443	0.367
Mof_C 	C 	0.68556	0.10246	0.89017	-0.08
Mof_H 	H 	0.6827	0.1214	0.8744	0.088
Mof_C 	C 	0.69743	0.01089	0.96024	0.376
Mof_C 	C 	0.76429	0.1015	0.88166	0.358
Mof_O 	O 	0.63949	0.34703	0.68676	-0.462
Mof_O 	O 	0.4169	0.30669	0.68552	-0.449
Mof_O 	O 	0.44541	0.34979	0.65122	-0.465
Mof_O 	O 	0.66422	0.994	0.96958	-0.474
Mof_O 	O 	0.5985	0.3743	0.65062	-0.46
Mof_O 	O 	0.73481	0.00335	0.96921	-0.471
Mof_O 	O 	0.79957	0.09051	0.89209	-0.454
Mof_O 	O 	0.75844	0.12279	0.85816	-0.443
Mof_Zn	Zn	0.35988	0.3059	0.33238	1.227
Mof_Zn	Zn	0.39494	0.35408	0.37391	1.229
Mof_O 	O 	0.30831	0.31309	0.35659	-0.463
Mof_O 	O 	0.33854	0.35143	0.39262	-0.45
Mof_O 	O 	0.2496	0.41726	0.46913	-0.479
Mof_O 	O 	0.17919	0.40731	0.4687	-0.481
Mof_O 	O 	0.42419	0.39218	0.40788	-0.456
Mof_H 	H 	0.4461	0.4029	0.4013	0.255
Mof_O 	O 	0.333	0.26587	0.29861	-0.456
Mof_H 	H 	0.3139	0.2787	0.29	0.258
Mof_C 	C 	0.22079	0.37217	0.43242	-0.049
Mof_C 	C 	0.21637	0.40127	0.45912	0.38
Mof_C 	C 	0.26101	0.36476	0.42038	-0.004
Mof_H 	H 	0.2851	0.3761	0.4294	0.073
Mof_C 	C 	0.26454	0.34013	0.39467	-0.044
Mof_C 	C 	0.30738	0.33406	0.38002	0.371
Mof_C 	C 	0.22866	0.32338	0.38117	-0.075
Mof_H 	H 	0.2312	0.3073	0.3638	0.095
Mof_C 	C 	0.18479	0.35519	0.41927	-0.075
Mof_H 	H 	0.1581	0.3602	0.4275	0.08
Mof_C 	C 	0.18887	0.33064	0.39365	0.106
Mof_N 	N 	0.15267	0.31486	0.37878	-0.093
Mof_N 	N 	0.15531	0.2903	0.35576	-0.038
Mof_N 	N 	0.11637	0.2806	0.34668	-0.071
Mof_C 	C 	0.11149	0.32711	0.38096	0.01
Mof_H 	H 	0.1008	0.3478	0.3938	0.035
Mof_C 	C 	0.08853	0.3039	0.36124	0.03
Mof_C 	C 	0.02868	0.28403	0.32942	-0.138
Mof_H 	H 	0.047	0.2668	0.3185	0.097
Mof_C 	C 	0.04376	0.30723	0.35361	0.085
Mof_C 	C 	0.01616	0.33235	0.37022	-0.138
Mof_H 	H 	0.0263	0.3475	0.3865	0.094
Mof_C 	C 	0.98603	0.28677	0.32169	0.085
Mof_C 	C 	0.95821	0.31066	0.33885	-0.137
Mof_H 	H 	0.9293	0.3105	0.3345	0.097
Mof_C 	C 	0.9458	0.36134	0.38012	0.036
Mof_C 	C 	0.97349	0.33482	0.36251	0.083
Mof_C 	C 	0.99031	0.24266	0.27428	0.01
Mof_H 	H 	0.0197	0.2405	0.2722	0.039
Mof_C 	C 	0.96933	0.2632	0.29655	0.035
Mof_N 	N 	0.96121	0.22618	0.25592	-0.092
Mof_N 	N 	0.92998	0.2599	0.29022	-0.073
Mof_N 	N 	0.92441	0.2386	0.26462	-0.038
Mof_C 	C 	0.90286	0.36662	0.37799	0.008
Mof_H 	H 	0.8849	0.353	0.3646	0.04
Mof_N 	N 	0.89123	0.39521	0.39884	-0.091
Mof_N 	N 	0.92351	0.4028	0.41507	-0.04
Mof_N 	N 	0.95749	0.3854	0.40156	-0.076
Mof_C 	C 	0.0103	0.1759	0.18948	-0.046
Mof_C 	C 	0.00656	0.19847	0.21617	-0.078
Mof_H 	H 	0.0304	0.2105	0.2251	0.087
Mof_C 	C 	0.93088	0.18483	0.21613	-0.076
Mof_H 	H 	0.9044	0.1879	0.2251	0.094
Mof_C 	C 	0.96664	0.20252	0.22906	0.107
Mof_C 	C 	0.80653	0.45588	0.43627	-0.05
Mof_C 	C 	0.84656	0.4412	0.42832	-0.072
Mof_H 	H 	0.8708	0.4513	0.4379	0.089
Mof_C 	C 	0.84989	0.4112	0.4058	0.105
Mof_C 	C 	0.7706	0.44142	0.42165	-0.005
Mof_H 	H 	0.7438	0.451	0.4274	0.072
Mof_C 	C 	0.97454	0.15756	0.17642	-0.005
Mof_H 	H 	0.9772	0.1421	0.1589	0.07
Mof_C 	C 	0.05257	0.17287	0.17433	0.363
Mof_C 	C 	0.77474	0.41251	0.39841	-0.04
Mof_C 	C 	0.93504	0.16238	0.18954	-0.045
Mof_C 	C 	0.89573	0.14537	0.17443	0.367
Mof_C 	C 	0.81444	0.39754	0.39017	-0.079
Mof_H 	H 	0.8173	0.3786	0.3744	0.088
Mof_C 	C 	0.80257	0.48911	0.46024	0.377
Mof_C 	C 	0.73571	0.3985	0.38166	0.358
Mof_O 	O 	0.86051	0.15297	0.18676	-0.462
Mof_O 	O 	0.0831	0.19331	0.18552	-0.449
Mof_O 	O 	0.05459	0.15021	0.15122	-0.465
Mof_O 	O 	0.83578	0.506	0.46958	-0.477
Mof_O 	O 	0.9015	0.1257	0.15062	-0.46
Mof_O 	O 	0.76519	0.49665	0.46921	-0.474
Mof_O 	O 	0.70043	0.40949	0.39209	-0.454
Mof_O 	O 	0.74156	0.37721	0.35816	-0.443
Mof_Zn	Zn	0.85988	0.8059	0.83238	1.227
Mof_Zn	Zn	0.89494	0.85408	0.87391	1.229
Mof_O 	O 	0.80831	0.81309	0.85659	-0.463
Mof_O 	O 	0.83854	0.85143	0.89262	-0.449
Mof_O 	O 	0.7496	0.91726	0.96913	-0.476
Mof_O 	O 	0.67919	0.90731	0.9687	-0.479
Mof_O 	O 	0.92419	0.89218	0.90788	-0.456
Mof_H 	H 	0.9461	0.9029	0.9013	0.255
Mof_O 	O 	0.833	0.76587	0.79861	-0.456
Mof_H 	H 	0.8139	0.7787	0.79	0.258
Mof_C 	C 	0.72079	0.87217	0.93242	-0.048
Mof_C 	C 	0.71637	0.90127	0.95912	0.379
Mof_C 	C 	0.76101	0.86476	0.92038	-0.005
Mof_H 	H 	0.7851	0.8761	0.9294	0.073
Mof_C 	C 	0.76454	0.84013	0.89467	-0.044
Mof_C 	C 	0.80738	0.83406	0.88002	0.371
Mof_C 	C 	0.72866	0.82338	0.88117	-0.075
Mof_H 	H 	0.7312	0.8073	0.8638	0.095
Mof_C 	C 	0.68479	0.85519	0.91927	-0.075
Mof_H 	H 	0.6581	0.8602	0.9275	0.081
Mof_C 	C 	0.68887	0.83064	0.89365	0.106
Mof_N 	N 	0.65267	0.81486	0.87878	-0.093
Mof_N 	N 	0.65531	0.7903	0.85576	-0.038
Mof_N 	N 	0.61637	0.7806	0.84668	-0.071
Mof_C 	C 	0.61149	0.82711	0.88096	0.011
Mof_H 	H 	0.6008	0.8478	0.8938	0.036
Mof_C 	C 	0.58853	0.8039	0.86124	0.031
Mof_C 	C 	0.52868	0.78403	0.82942	-0.138
Mof_H 	H 	0.547	0.7668	0.8185	0.097
Mof_C 	C 	0.54376	0.80723	0.85361	0.085
Mof_C 	C 	0.51616	0.83235	0.87022	-0.138
Mof_H 	H 	0.5263	0.8475	0.8865	0.094
Mof_C 	C 	0.48603	0.78677	0.82169	0.085
Mof_C 	C 	0.45821	0.81066	0.83885	-0.137
Mof_H 	H 	0.4293	0.8105	0.8345	0.097
Mof_C 	C 	0.4458	0.86134	0.88012	0.036
Mof_C 	C 	0.47349	0.83482	0.86251	0.083
Mof_C 	C 	0.49031	0.74266	0.77428	0.01
Mof_H 	H 	0.5197	0.7405	0.7722	0.039
Mof_C 	C 	0.46933	0.7632	0.79655	0.035
Mof_N 	N 	0.46121	0.72618	0.75592	-0.092
Mof_N 	N 	0.42998	0.7599	0.79022	-0.073
Mof_N 	N 	0.42441	0.7386	0.76462	-0.038
Mof_C 	C 	0.40286	0.86662	0.87799	0.008
Mof_H 	H 	0.3849	0.853	0.8646	0.04
Mof_N 	N 	0.39123	0.89521	0.89884	-0.091
Mof_N 	N 	0.42351	0.9028	0.91507	-0.04
Mof_N 	N 	0.45749	0.8854	0.90156	-0.076
Mof_C 	C 	0.5103	0.6759	0.68948	-0.046
Mof_C 	C 	0.50656	0.69847	0.71617	-0.078
Mof_H 	H 	0.5304	0.7105	0.7251	0.087
Mof_C 	C 	0.43088	0.68483	0.71613	-0.076
Mof_H 	H 	0.4044	0.6879	0.7251	0.094
Mof_C 	C 	0.46664	0.70252	0.72906	0.107
Mof_C 	C 	0.30653	0.95588	0.93627	-0.049
Mof_C 	C 	0.34656	0.9412	0.92832	-0.072
Mof_H 	H 	0.3708	0.9513	0.9379	0.09
Mof_C 	C 	0.34989	0.9112	0.9058	0.106
Mof_C 	C 	0.2706	0.94142	0.92165	-0.005
Mof_H 	H 	0.2438	0.951	0.9274	0.072
Mof_C 	C 	0.47454	0.65756	0.67642	-0.005
Mof_H 	H 	0.4772	0.6421	0.6589	0.07
Mof_C 	C 	0.55257	0.67287	0.67433	0.363
Mof_C 	C 	0.27474	0.91251	0.89841	-0.039
Mof_C 	C 	0.43504	0.66238	0.68954	-0.045
Mof_C 	C 	0.39573	0.64537	0.67443	0.367
Mof_C 	C 	0.31444	0.89754	0.89017	-0.08
Mof_H 	H 	0.3173	0.8786	0.8744	0.088
Mof_C 	C 	0.30257	0.98911	0.96024	0.376
Mof_C 	C 	0.23571	0.8985	0.88166	0.358
Mof_O 	O 	0.36051	0.65297	0.68676	-0.462
Mof_O 	O 	0.5831	0.69331	0.68552	-0.449
Mof_O 	O 	0.55459	0.65021	0.65122	-0.465
Mof_O 	O 	0.33578	0.006	0.96958	-0.474
Mof_O 	O 	0.4015	0.6257	0.65062	-0.46
Mof_O 	O 	0.26519	0.99665	0.96921	-0.471
Mof_O 	O 	0.20043	0.90949	0.89209	-0.454
Mof_O 	O 	0.24156	0.87721	0.85816	-0.443
Mof_Zn	Zn	0.3059	0.64012	0.33238	1.227
Mof_Zn	Zn	0.35408	0.60506	0.37391	1.229
Mof_O 	O 	0.31309	0.69169	0.35659	-0.463
Mof_O 	O 	0.35143	0.66146	0.39262	-0.45
Mof_O 	O 	0.41726	0.7504	0.46913	-0.479
Mof_O 	O 	0.40731	0.82081	0.4687	-0.481
Mof_O 	O 	0.39218	0.57581	0.40788	-0.456
Mof_H 	H 	0.4029	0.5539	0.4013	0.255
Mof_O 	O 	0.26587	0.667	0.29861	-0.456
Mof_H 	H 	0.2787	0.6861	0.29	0.258
Mof_C 	C 	0.37217	0.77921	0.43242	-0.049
Mof_C 	C 	0.40127	0.78363	0.45912	0.38
Mof_C 	C 	0.36476	0.73899	0.42038	-0.004
Mof_H 	H 	0.3761	0.7149	0.4294	0.073
Mof_C 	C 	0.34013	0.73546	0.39467	-0.044
Mof_C 	C 	0.33406	0.69262	0.38002	0.371
Mof_C 	C 	0.32338	0.77134	0.38117	-0.075
Mof_H 	H 	0.3073	0.7688	0.3638	0.095
Mof_C 	C 	0.35519	0.81521	0.41927	-0.075
Mof_H 	H 	0.3602	0.8419	0.4275	0.08
Mof_C 	C 	0.33064	0.81113	0.39365	0.106
Mof_N 	N 	0.31486	0.84733	0.37878	-0.093
Mof_N 	N 	0.2903	0.84469	0.35576	-0.038
Mof_N 	N 	0.2806	0.88363	0.34668	-0.071
Mof_C 	C 	0.32711	0.88851	0.38096	0.01
Mof_H 	H 	0.3478	0.8992	0.3938	0.035
Mof_C 	C 	0.3039	0.91147	0.36124	0.03
Mof_C 	C 	0.28403	0.97132	0.32942	-0.138
Mof_H 	H 	0.2668	0.953	0.3185	0.097
Mof_C 	C 	0.30723	0.95624	0.35361	0.085
Mof_C 	C 	0.33235	0.98384	0.37022	-0.138
Mof_H 	H 	0.3475	0.9737	0.3865	0.094
Mof_C 	C 	0.28677	0.01397	0.32169	0.085
Mof_C 	C 	0.31066	0.04179	0.33885	-0.137
Mof_H 	H 	0.3105	0.0707	0.3345	0.097
Mof_C 	C 	0.36134	0.0542	0.38012	0.036
Mof_C 	C 	0.33482	0.02651	0.36251	0.083
Mof_C 	C 	0.24266	0.00969	0.27428	0.01
Mof_H 	H 	0.2405	0.9803	0.2722	0.039
Mof_C 	C 	0.2632	0.03067	0.29655	0.035
Mof_N 	N 	0.22618	0.03879	0.25592	-0.092
Mof_N 	N 	0.2599	0.07002	0.29022	-0.073
Mof_N 	N 	0.2386	0.07559	0.26462	-0.038
Mof_C 	C 	0.36662	0.09714	0.37799	0.008
Mof_H 	H 	0.353	0.1151	0.3646	0.04
Mof_N 	N 	0.39521	0.10877	0.39884	-0.091
Mof_N 	N 	0.4028	0.07649	0.41507	-0.04
Mof_N 	N 	0.3854	0.04251	0.40156	-0.076
Mof_C 	C 	0.1759	0.9897	0.18948	-0.046
Mof_C 	C 	0.19847	0.99344	0.21617	-0.078
Mof_H 	H 	0.2105	0.9696	0.2251	0.087
Mof_C 	C 	0.18483	0.06912	0.21613	-0.076
Mof_H 	H 	0.1879	0.0956	0.2251	0.094
Mof_C 	C 	0.20252	0.03336	0.22906	0.107
Mof_C 	C 	0.45588	0.19347	0.43627	-0.05
Mof_C 	C 	0.4412	0.15344	0.42832	-0.072
Mof_H 	H 	0.4513	0.1292	0.4379	0.089
Mof_C 	C 	0.4112	0.15011	0.4058	0.105
Mof_C 	C 	0.44142	0.2294	0.42165	-0.005
Mof_H 	H 	0.451	0.2562	0.4274	0.072
Mof_C 	C 	0.15756	0.02546	0.17642	-0.005
Mof_H 	H 	0.1421	0.0228	0.1589	0.07
Mof_C 	C 	0.17287	0.94743	0.17433	0.363
Mof_C 	C 	0.41251	0.22526	0.39841	-0.04
Mof_C 	C 	0.16238	0.06496	0.18954	-0.045
Mof_C 	C 	0.14537	0.10427	0.17443	0.367
Mof_C 	C 	0.39754	0.18556	0.39017	-0.079
Mof_H 	H 	0.3786	0.1827	0.3744	0.088
Mof_C 	C 	0.48911	0.19743	0.46024	0.377
Mof_C 	C 	0.3985	0.26429	0.38166	0.358
Mof_O 	O 	0.15297	0.13949	0.18676	-0.462
Mof_O 	O 	0.19331	0.9169	0.18552	-0.449
Mof_O 	O 	0.15021	0.94541	0.15122	-0.465
Mof_O 	O 	0.506	0.16422	0.46958	-0.477
Mof_O 	O 	0.1257	0.0985	0.15062	-0.46
Mof_O 	O 	0.49665	0.23481	0.46921	-0.474
Mof_O 	O 	0.40949	0.29957	0.39209	-0.454
Mof_O 	O 	0.37721	0.25844	0.35816	-0.443
Mof_Zn	Zn	0.8059	0.14012	0.83238	1.227
Mof_Zn	Zn	0.85408	0.10506	0.87391	1.229
Mof_O 	O 	0.81309	0.19169	0.85659	-0.463
Mof_O 	O 	0.85143	0.16146	0.89262	-0.449
Mof_O 	O 	0.91726	0.2504	0.96913	-0.476
Mof_O 	O 	0.90731	0.32081	0.9687	-0.479
Mof_O 	O 	0.89218	0.07581	0.90788	-0.456
Mof_H 	H 	0.9029	0.0539	0.9013	0.255
Mof_O 	O 	0.76587	0.167	0.79861	-0.456
Mof_H 	H 	0.7787	0.1861	0.79	0.258
Mof_C 	C 	0.87217	0.27921	0.93242	-0.048
Mof_C 	C 	0.90127	0.28363	0.95912	0.379
Mof_C 	C 	0.86476	0.23899	0.92038	-0.005
Mof_H 	H 	0.8761	0.2149	0.9294	0.073
Mof_C 	C 	0.84013	0.23546	0.89467	-0.044
Mof_C 	C 	0.83406	0.19262	0.88002	0.371
Mof_C 	C 	0.82338	0.27134	0.88117	-0.075
Mof_H 	H 	0.8073	0.2688	0.8638	0.095
Mof_C 	C 	0.85519	0.31521	0.91927	-0.075
Mof_H 	H 	0.8602	0.3419	0.9275	0.081
Mof_C 	C 	0.83064	0.31113	0.89365	0.106
Mof_N 	N 	0.81486	0.34733	0.87878	-0.093
Mof_N 	N 	0.7903	0.34469	0.85576	-0.038
Mof_N 	N 	0.7806	0.38363	0.84668	-0.071
Mof_C 	C 	0.82711	0.38851	0.88096	0.011
Mof_H 	H 	0.8478	0.3992	0.8938	0.036
Mof_C 	C 	0.8039	0.41147	0.86124	0.031
Mof_C 	C 	0.78403	0.47132	0.82942	-0.138
Mof_H 	H 	0.7668	0.453	0.8185	0.097
Mof_C 	C 	0.80723	0.45624	0.85361	0.085
Mof_C 	C 	0.83235	0.48384	0.87022	-0.138
Mof_H 	H 	0.8475	0.4737	0.8865	0.094
Mof_C 	C 	0.78677	0.51397	0.82169	0.085
Mof_C 	C 	0.81066	0.54179	0.83885	-0.137
Mof_H 	H 	0.8105	0.5707	0.8345	0.097
Mof_C 	C 	0.86134	0.5542	0.88012	0.036
Mof_C 	C 	0.83482	0.52651	0.86251	0.083
Mof_C 	C 	0.74266	0.50969	0.77428	0.01
Mof_H 	H 	0.7405	0.4803	0.7722	0.039
Mof_C 	C 	0.7632	0.53067	0.79655	0.035
Mof_N 	N 	0.72618	0.53879	0.75592	-0.092
Mof_N 	N 	0.7599	0.57002	0.79022	-0.073
Mof_N 	N 	0.7386	0.57559	0.76462	-0.038
Mof_C 	C 	0.86662	0.59714	0.87799	0.008
Mof_H 	H 	0.853	0.6151	0.8646	0.04
Mof_N 	N 	0.89521	0.60877	0.89884	-0.091
Mof_N 	N 	0.9028	0.57649	0.91507	-0.04
Mof_N 	N 	0.8854	0.54251	0.90156	-0.076
Mof_C 	C 	0.6759	0.4897	0.68948	-0.046
Mof_C 	C 	0.69847	0.49344	0.71617	-0.078
Mof_H 	H 	0.7105	0.4696	0.7251	0.087
Mof_C 	C 	0.68483	0.56912	0.71613	-0.076
Mof_H 	H 	0.6879	0.5956	0.7251	0.094
Mof_C 	C 	0.70252	0.53336	0.72906	0.107
Mof_C 	C 	0.95588	0.69347	0.93627	-0.049
Mof_C 	C 	0.9412	0.65344	0.92832	-0.072
Mof_H 	H 	0.9513	0.6292	0.9379	0.09
Mof_C 	C 	0.9112	0.65011	0.9058	0.106
Mof_C 	C 	0.94142	0.7294	0.92165	-0.005
Mof_H 	H 	0.951	0.7562	0.9274	0.072
Mof_C 	C 	0.65756	0.52546	0.67642	-0.005
Mof_H 	H 	0.6421	0.5228	0.6589	0.07
Mof_C 	C 	0.67287	0.44743	0.67433	0.363
Mof_C 	C 	0.91251	0.72526	0.89841	-0.039
Mof_C 	C 	0.66238	0.56496	0.68954	-0.045
Mof_C 	C 	0.64537	0.60427	0.67443	0.367
Mof_C 	C 	0.89754	0.68556	0.89017	-0.08
Mof_H 	H 	0.8786	0.6827	0.8744	0.088
Mof_C 	C 	0.98911	0.69743	0.96024	0.376
Mof_C 	C 	0.8985	0.76429	0.88166	0.358
Mof_O 	O 	0.65297	0.63949	0.68676	-0.462
Mof_O 	O 	0.69331	0.4169	0.68552	-0.449
Mof_O 	O 	0.65021	0.44541	0.65122	-0.465
Mof_O 	O 	0.006	0.66422	0.96958	-0.474
Mof_O 	O 	0.6257	0.5985	0.65062	-0.46
Mof_O 	O 	0.99665	0.73481	0.96921	-0.471
Mof_O 	O 	0.90949	0.79957	0.89209	-0.454
Mof_O 	O 	0.87721	0.75844	0.85816	-0.443
Mof_Zn	Zn	0.6941	0.35988	0.33238	1.227
Mof_Zn	Zn	0.64592	0.39494	0.37391	1.229
Mof_O 	O 	0.68691	0.30831	0.35659	-0.463
Mof_O 	O 	0.64857	0.33854	0.39262	-0.45
Mof_O 	O 	0.58274	0.2496	0.46913	-0.479
Mof_O 	O 	0.59269	0.17919	0.4687	-0.481
Mof_O 	O 	0.60782	0.42419	0.40788	-0.456
Mof_H 	H 	0.5971	0.4461	0.4013	0.255
Mof_O 	O 	0.73413	0.333	0.29861	-0.456
Mof_H 	H 	0.7213	0.3139	0.29	0.258
Mof_C 	C 	0.62783	0.22079	0.43242	-0.049
Mof_C 	C 	0.59873	0.21637	0.45912	0.38
Mof_C 	C 	0.63524	0.26101	0.42038	-0.004
Mof_H 	H 	0.6239	0.2851	0.4294	0.073
Mof_C 	C 	0.65987	0.26454	0.39467	-0.044
Mof_C 	C 	0.66594	0.30738	0.38002	0.371
Mof_C 	C 	0.67662	0.22866	0.38117	-0.075
Mof_H 	H 	0.6927	0.2312	0.3638	0.095
Mof_C 	C 	0.64481	0.18479	0.41927	-0.075
Mof_H 	H 	0.6398	0.1581	0.4275	0.08
Mof_C 	C 	0.66936	0.18887	0.39365	0.106
Mof_N 	N 	0.68514	0.15267	0.37878	-0.093
Mof_N 	N 	0.7097	0.15531	0.35576	-0.038
Mof_N 	N 	0.7194	0.11637	0.34668	-0.071
Mof_C 	C 	0.67289	0.11149	0.38096	0.01
Mof_H 	H 	0.6522	0.1008	0.3938	0.035
Mof_C 	C 	0.6961	0.08853	0.36124	0.03
Mof_C 	C 	0.71597	0.02868	0.32942	-0.138
Mof_H 	H 	0.7332	0.047	0.3185	0.097
Mof_C 	C 	0.69277	0.04376	0.35361	0.085
Mof_C 	C 	0.66765	0.01616	0.37022	-0.138
Mof_H 	H 	0.6525	0.0263	0.3865	0.094
Mof_C 	C 	0.71323	0.98603	0.32169	0.085
Mof_C 	C 	0.68934	0.95821	0.33885	-0.137
Mof_H 	H 	0.6895	0.9293	0.3345	0.097
Mof_C 	C 	0.63866	0.9458	0.38012	0.036
Mof_C 	C 	0.66518	0.97349	0.36251	0.083
Mof_C 	C 	0.75734	0.99031	0.27428	0.01
Mof_H 	H 	0.7595	0.0197	0.2722	0.039
Mof_C 	C 	0.7368	0.96933	0.29655	0.035
Mof_N 	N 	0.77382	0.96121	0.25592	-0.092
Mof_N 	N 	0.7401	0.92998	0.29022	-0.073
Mof_N 	N 	0.7614	0.92441	0.26462	-0.038
Mof_C 	C 	0.63338	0.90286	0.37799	0.008
Mof_H 	H 	0.647	0.8849	0.3646	0.04
Mof_N 	N 	0.60479	0.89123	0.39884	-0.091
Mof_N 	N 	0.5972	0.92351	0.41507	-0.04
Mof_N 	N 	0.6146	0.95749	0.40156	-0.076
Mof_C 	C 	0.8241	0.0103	0.18948	-0.046
Mof_C 	C 	0.80153	0.00656	0.21617	-0.078
Mof_H 	H 	0.7895	0.0304	0.2251	0.087
Mof_C 	C 	0.81517	0.93088	0.21613	-0.076
Mof_H 	H 	0.8121	0.9044	0.2251	0.094
Mof_C 	C 	0.79748	0.96664	0.22906	0.107
Mof_C 	C 	0.54412	0.80653	0.43627	-0.05
Mof_C 	C 	0.5588	0.84656	0.42832	-0.072
Mof_H 	H 	0.5487	0.8708	0.4379	0.089
Mof_C 	C 	0.5888	0.84989	0.4058	0.105
Mof_C 	C 	0.55858	0.7706	0.42165	-0.005
Mof_H 	H 	0.549	0.7438	0.4274	0.072
Mof_C 	C 	0.84244	0.97454	0.17642	-0.005
Mof_H 	H 	0.8579	0.9772	0.1589	0.07
Mof_C 	C 	0.82713	0.05257	0.17433	0.363
Mof_C 	C 	0.58749	0.77474	0.39841	-0.04
Mof_C 	C 	0.83762	0.93504	0.18954	-0.045
Mof_C 	C 	0.85463	0.89573	0.17443	0.367
Mof_C 	C 	0.60246	0.81444	0.39017	-0.079
Mof_H 	H 	0.6214	0.8173	0.3744	0.088
Mof_C 	C 	0.51089	0.80257	0.46024	0.377
Mof_C 	C 	0.6015	0.73571	0.38166	0.358
Mof_O 	O 	0.84703	0.86051	0.18676	-0.462
Mof_O 	O 	0.80669	0.0831	0.18552	-0.449
Mof_O 	O 	0.84979	0.05459	0.15122	-0.465
Mof_O 	O 	0.494	0.83578	0.46958	-0.477
Mof_O 	O 	0.8743	0.9015	0.15062	-0.46
Mof_O 	O 	0.50335	0.76519	0.46921	-0.474
Mof_O 	O 	0.59051	0.70043	0.39209	-0.454
Mof_O 	O 	0.62279	0.74156	0.35816	-0.443
Mof_Zn	Zn	0.1941	0.85988	0.83238	1.227
Mof_Zn	Zn	0.14592	0.89494	0.87391	1.229
Mof_O 	O 	0.18691	0.80831	0.85659	-0.463
Mof_O 	O 	0.14857	0.83854	0.89262	-0.449
Mof_O 	O 	0.08274	0.7496	0.96913	-0.476
Mof_O 	O 	0.09269	0.67919	0.9687	-0.479
Mof_O 	O 	0.10782	0.92419	0.90788	-0.456
Mof_H 	H 	0.0971	0.9461	0.9013	0.255
Mof_O 	O 	0.23413	0.833	0.79861	-0.456
Mof_H 	H 	0.2213	0.8139	0.79	0.258
Mof_C 	C 	0.12783	0.72079	0.93242	-0.048
Mof_C 	C 	0.09873	0.71637	0.95912	0.379
Mof_C 	C 	0.13524	0.76101	0.92038	-0.005
Mof_H 	H 	0.1239	0.7851	0.9294	0.073
Mof_C 	C 	0.15987	0.76454	0.89467	-0.044
Mof_C 	C 	0.16594	0.80738	0.88002	0.371
Mof_C 	C 	0.17662	0.72866	0.88117	-0.075
Mof_H 	H 	0.1927	0.7312	0.8638	0.095
Mof_C 	C 	0.14481	0.68479	0.91927	-0.075
Mof_H 	H 	0.1398	0.6581	0.9275	0.081
Mof_C 	C 	0.16936	0.68887	0.89365	0.106
Mof_N 	N 	0.18514	0.65267	0.87878	-0.093
Mof_N 	N 	0.2097	0.65531	0.85576	-0.038
Mof_N 	N 	0.2194	0.61637	0.84668	-0.071
Mof_C 	C 	0.17289	0.61149	0.88096	0.011
Mof_H 	H 	0.1522	0.6008	0.8938	0.036
Mof_C 	C 	0.1961	0.58853	0.86124	0.031
Mof_C 	C 	0.21597	0.52868	0.82942	-0.138
Mof_H 	H 	0.2332	0.547	0.8185	0.097
Mof_C 	C 	0.19277	0.54376	0.85361	0.085
Mof_C 	C 	0.16765	0.51616	0.87022	-0.138
Mof_H 	H 	0.1525	0.5263	0.8865	0.094
Mof_C 	C 	0.21323	0.48603	0.82169	0.085
Mof_C 	C 	0.18934	0.45821	0.83885	-0.137
Mof_H 	H 	0.1895	0.4293	0.8345	0.097
Mof_C 	C 	0.13866	0.4458	0.88012	0.036
Mof_C 	C 	0.16518	0.47349	0.86251	0.083
Mof_C 	C 	0.25734	0.49031	0.77428	0.01
Mof_H 	H 	0.2595	0.5197	0.7722	0.039
Mof_C 	C 	0.2368	0.46933	0.79655	0.035
Mof_N 	N 	0.27382	0.46121	0.75592	-0.092
Mof_N 	N 	0.2401	0.42998	0.79022	-0.073
Mof_N 	N 	0.2614	0.42441	0.76462	-0.038
Mof_C 	C 	0.13338	0.40286	0.87799	0.008
Mof_H 	H 	0.147	0.3849	0.8646	0.04
Mof_N 	N 	0.10479	0.39123	0.89884	-0.091
Mof_N 	N 	0.0972	0.42351	0.91507	-0.04
Mof_N 	N 	0.1146	0.45749	0.90156	-0.076
Mof_C 	C 	0.3241	0.5103	0.68948	-0.046
Mof_C 	C 	0.30153	0.50656	0.71617	-0.078
Mof_H 	H 	0.2895	0.5304	0.7251	0.087
Mof_C 	C 	0.31517	0.43088	0.71613	-0.076
Mof_H 	H 	0.3121	0.4044	0.7251	0.094
Mof_C 	C 	0.29748	0.46664	0.72906	0.107
Mof_C 	C 	0.04412	0.30653	0.93627	-0.049
Mof_C 	C 	0.0588	0.34656	0.92832	-0.072
Mof_H 	H 	0.0487	0.3708	0.9379	0.09
Mof_C 	C 	0.0888	0.34989	0.9058	0.106
Mof_C 	C 	0.05858	0.2706	0.92165	-0.005
Mof_H 	H 	0.049	0.2438	0.9274	0.072
Mof_C 	C 	0.34244	0.47454	0.67642	-0.005
Mof_H 	H 	0.3579	0.4772	0.6589	0.07
Mof_C 	C 	0.32713	0.55257	0.67433	0.363
Mof_C 	C 	0.08749	0.27474	0.89841	-0.039
Mof_C 	C 	0.33762	0.43504	0.68954	-0.045
Mof_C 	C 	0.35463	0.39573	0.67443	0.367
Mof_C 	C 	0.10246	0.31444	0.89017	-0.08
Mof_H 	H 	0.1214	0.3173	0.8744	0.088
Mof_C 	C 	0.01089	0.30257	0.96024	0.376
Mof_C 	C 	0.1015	0.23571	0.88166	0.358
Mof_O 	O 	0.34703	0.36051	0.68676	-0.462
Mof_O 	O 	0.30669	0.5831	0.68552	-0.449
Mof_O 	O 	0.34979	0.55459	0.65122	-0.465
Mof_O 	O 	0.994	0.33578	0.96958	-0.474
Mof_O 	O 	0.3743	0.4015	0.65062	-0.46
Mof_O 	O 	0.00335	0.26519	0.96921	-0.471
Mof_O 	O 	0.09051	0.20043	0.89209	-0.454
Mof_O 	O 	0.12279	0.24156	0.85816	-0.443
Mof_Zn	Zn	0.35988	0.3059	0.66762	1.227
Mof_Zn	Zn	0.39494	0.35408	0.62609	1.229
Mof_O 	O 	0.30831	0.31309	0.64341	-0.463
Mof_O 	O 	0.33854	0.35143	0.60738	-0.45
Mof_O 	O 	0.2496	0.41726	0.53087	-0.479
Mof_O 	O 	0.17919	0.40731	0.5313	-0.481
Mof_O 	O 	0.42419	0.39218	0.59212	-0.456
Mof_H 	H 	0.4461	0.4029	0.5987	0.255
Mof_O 	O 	0.333	0.26587	0.70139	-0.456
Mof_H 	H 	0.3139	0.2787	0.71	0.258
Mof_C 	C 	0.22079	0.37217	0.56758	-0.049
Mof_C 	C 	0.21637	0.40127	0.54088	0.38
Mof_C 	C 	0.26101	0.36476	0.57962	-0.004
Mof_H 	H 	0.2851	0.3761	0.5706	0.073
Mof_C 	C 	0.26454	0.34013	0.60533	-0.044
Mof_C 	C 	0.30738	0.33406	0.61998	0.371
Mof_C 	C 	0.22866	0.32338	0.61883	-0.075
Mof_H 	H 	0.2312	0.3073	0.6362	0.095
Mof_C 	C 	0.18479	0.35519	0.58073	-0.075
Mof_H 	H 	0.1581	0.3602	0.5725	0.08
Mof_C 	C 	0.18887	0.33064	0.60635	0.106
Mof_N 	N 	0.15267	0.31486	0.62122	-0.093
Mof_N 	N 	0.15531	0.2903	0.64424	-0.038
Mof_N 	N 	0.11637	0.2806	0.65332	-0.071
Mof_C 	C 	0.11149	0.32711	0.61904	0.01
Mof_H 	H 	0.1008	0.3478	0.6062	0.035
Mof_C 	C 	0.08853	0.3039	0.63876	0.03
Mof_C 	C 	0.02868	0.28403	0.67058	-0.138
Mof_H 	H 	0.047	0.2668	0.6815	0.096
Mof_C 	C 	0.04376	0.30723	0.64639	0.085
Mof_C 	C 	0.01616	0.33235	0.62978	-0.138
Mof_H 	H 	0.0263	0.3475	0.6135	0.094
Mof_C 	C 	0.98603	0.28677	0.67831	0.085
Mof_C 	C 	0.95821	0.31066	0.66115	-0.137
Mof_H 	H 	0.9293	0.3105	0.6655	0.096
Mof_C 	C 	0.9458	0.36134	0.61988	0.036
Mof_C 	C 	0.97349	0.33482	0.63749	0.083
Mof_C 	C 	0.99031	0.24266	0.72572	0.01
Mof_H 	H 	0.0197	0.2405	0.7278	0.039
Mof_C 	C 	0.96933	0.2632	0.70345	0.035
Mof_N 	N 	0.96121	0.22618	0.74408	-0.092
Mof_N 	N 	0.92998	0.2599	0.70978	-0.074
Mof_N 	N 	0.92441	0.2386	0.73538	-0.038
Mof_C 	C 	0.90286	0.36662	0.62201	0.008
Mof_H 	H 	0.8849	0.353	0.6354	0.04
Mof_N 	N 	0.89123	0.39521	0.60116	-0.091
Mof_N 	N 	0.92351	0.4028	0.58493	-0.04
Mof_N 	N 	0.95749	0.3854	0.59844	-0.076
Mof_C 	C 	0.0103	0.1759	0.81052	-0.046
Mof_C 	C 	0.00656	0.19847	0.78383	-0.078
Mof_H 	H 	0.0304	0.2105	0.7749	0.087
Mof_C 	C 	0.93088	0.18483	0.78387	-0.076
Mof_H 	H 	0.9044	0.1879	0.7749	0.094
Mof_C 	C 	0.96664	0.20252	0.77094	0.107
Mof_C 	C 	0.80653	0.45588	0.56373	-0.05
Mof_C 	C 	0.84656	0.4412	0.57168	-0.072
Mof_H 	H 	0.8708	0.4513	0.5621	0.089
Mof_C 	C 	0.84989	0.4112	0.5942	0.105
Mof_C 	C 	0.7706	0.44142	0.57835	-0.005
Mof_H 	H 	0.7438	0.451	0.5726	0.072
Mof_C 	C 	0.97454	0.15756	0.82358	-0.005
Mof_H 	H 	0.9772	0.1421	0.8411	0.07
Mof_C 	C 	0.05257	0.17287	0.82567	0.363
Mof_C 	C 	0.77474	0.41251	0.60159	-0.04
Mof_C 	C 	0.93504	0.16238	0.81046	-0.045
Mof_C 	C 	0.89573	0.14537	0.82557	0.366
Mof_C 	C 	0.81444	0.39754	0.60983	-0.079
Mof_H 	H 	0.8173	0.3786	0.6256	0.088
Mof_C 	C 	0.80257	0.48911	0.53976	0.377
Mof_C 	C 	0.73571	0.3985	0.61834	0.358
Mof_O 	O 	0.86051	0.15297	0.81324	-0.462
Mof_O 	O 	0.0831	0.19331	0.81448	-0.449
Mof_O 	O 	0.05459	0.15021	0.84878	-0.465
Mof_O 	O 	0.83578	0.506	0.53042	-0.477
Mof_O 	O 	0.9015	0.1257	0.84938	-0.46
Mof_O 	O 	0.76519	0.49665	0.53079	-0.474
Mof_O 	O 	0.70043	0.40949	0.60791	-0.454
Mof_O 	O 	0.74156	0.37721	0.64184	-0.443
Mof_Zn	Zn	0.85988	0.8059	0.16762	1.227
Mof_Zn	Zn	0.89494	0.85408	0.12609	1.229
Mof_O 	O 	0.80831	0.81309	0.14341	-0.463
Mof_O 	O 	0.83854	0.85143	0.10738	-0.45
Mof_O 	O 	0.7496	0.91726	0.03087	-0.48
Mof_O 	O 	0.67919	0.90731	0.0313	-0.483
Mof_O 	O 	0.92419	0.89218	0.09212	-0.457
Mof_H 	H 	0.9461	0.9029	0.0987	0.255
Mof_O 	O 	0.833	0.76587	0.20139	-0.456
Mof_H 	H 	0.8139	0.7787	0.21	0.258
Mof_C 	C 	0.72079	0.87217	0.06758	-0.05
Mof_C 	C 	0.71637	0.90127	0.04088	0.38
Mof_C 	C 	0.76101	0.86476	0.07962	-0.004
Mof_H 	H 	0.7851	0.8761	0.0706	0.072
Mof_C 	C 	0.76454	0.84013	0.10533	-0.045
Mof_C 	C 	0.80738	0.83406	0.11998	0.371
Mof_C 	C 	0.72866	0.82338	0.11883	-0.074
Mof_H 	H 	0.7312	0.8073	0.1362	0.094
Mof_C 	C 	0.68479	0.85519	0.08073	-0.075
Mof_H 	H 	0.6581	0.8602	0.0725	0.079
Mof_C 	C 	0.68887	0.83064	0.10635	0.105
Mof_N 	N 	0.65267	0.81486	0.12122	-0.093
Mof_N 	N 	0.65531	0.7903	0.14424	-0.038
Mof_N 	N 	0.61637	0.7806	0.15332	-0.072
Mof_C 	C 	0.61149	0.82711	0.11904	0.01
Mof_H 	H 	0.6008	0.8478	0.1062	0.035
Mof_C 	C 	0.58853	0.8039	0.13876	0.03
Mof_C 	C 	0.52868	0.78403	0.17058	-0.138
Mof_H 	H 	0.547	0.7668	0.1815	0.096
Mof_C 	C 	0.54376	0.80723	0.14639	0.085
Mof_C 	C 	0.51616	0.83235	0.12978	-0.138
Mof_H 	H 	0.5263	0.8475	0.1135	0.093
Mof_C 	C 	0.48603	0.78677	0.17831	0.085
Mof_C 	C 	0.45821	0.81066	0.16115	-0.137
Mof_H 	H 	0.4293	0.8105	0.1655	0.096
Mof_C 	C 	0.4458	0.86134	0.11988	0.036
Mof_C 	C 	0.47349	0.83482	0.13749	0.083
Mof_C 	C 	0.49031	0.74266	0.22572	0.01
Mof_H 	H 	0.5197	0.7405	0.2278	0.039
Mof_C 	C 	0.46933	0.7632	0.20345	0.035
Mof_N 	N 	0.46121	0.72618	0.24408	-0.092
Mof_N 	N 	0.42998	0.7599	0.20978	-0.074
Mof_N 	N 	0.42441	0.7386	0.23538	-0.038
Mof_C 	C 	0.40286	0.86662	0.12201	0.008
Mof_H 	H 	0.3849	0.853	0.1354	0.04
Mof_N 	N 	0.39123	0.89521	0.10116	-0.091
Mof_N 	N 	0.42351	0.9028	0.08493	-0.041
Mof_N 	N 	0.45749	0.8854	0.09844	-0.077
Mof_C 	C 	0.5103	0.6759	0.31052	-0.046
Mof_C 	C 	0.50656	0.69847	0.28383	-0.078
Mof_H 	H 	0.5304	0.7105	0.2749	0.087
Mof_C 	C 	0.43088	0.68483	0.28387	-0.076
Mof_H 	H 	0.4044	0.6879	0.2749	0.094
Mof_C 	C 	0.46664	0.70252	0.27094	0.107
Mof_C 	C 	0.30653	0.95588	0.06373	-0.051
Mof_C 	C 	0.34656	0.9412	0.07168	-0.071
Mof_H 	H 	0.3708	0.9513	0.0621	0.089
Mof_C 	C 	0.34989	0.9112	0.0942	0.105
Mof_C 	C 	0.2706	0.94142	0.07835	-0.005
Mof_H 	H 	0.2438	0.951	0.0726	0.071
Mof_C 	C 	0.47454	0.65756	0.32358	-0.005
Mof_H 	H 	0.4772	0.6421	0.3411	0.07
Mof_C 	C 	0.55257	0.67287	0.32567	0.363
Mof_C 	C 	0.27474	0.91251	0.10159	-0.04
Mof_C 	C 	0.43504	0.66238	0.31046	-0.045
Mof_C 	C 	0.39573	0.64537	0.32557	0.367
Mof_C 	C 	0.31444	0.89754	0.10983	-0.079
Mof_H 	H 	0.3173	0.8786	0.1256	0.088
Mof_C 	C 	0.30257	0.98911	0.03976	0.377
Mof_C 	C 	0.23571	0.8985	0.11834	0.358
Mof_O 	O 	0.36051	0.65297	0.31324	-0.462
Mof_O 	O 	0.5831	0.69331	0.31448	-0.449
Mof_O 	O 	0.55459	0.65021	0.34878	-0.465
Mof_O 	O 	0.33578	0.006	0.03042	-0.478
Mof_O 	O 	0.4015	0.6257	0.34938	-0.46
Mof_O 	O 	0.26519	0.99665	0.03079	-0.475
Mof_O 	O 	0.20043	0.90949	0.10791	-0.454
Mof_O 	O 	0.24156	0.87721	0.14184	-0.443
Mof_Zn	Zn	0.64012	0.6941	0.66762	1.227
Mof_Zn	Zn	0.60506	0.64592	0.62609	1.229
Mof_O 	O 	0.69169	0.68691	0.64341	-0.463
Mof_O 	O 	0.66146	0.64857	0.60738	-0.45
Mof_O 	O 	0.7504	0.58274	0.53087	-0.479
Mof_O 	O 	0.82081	0.59269	0.5313	-0.481
Mof_O 	O 	0.57581	0.60782	0.59212	-0.456
Mof_H 	H 	0.5539	0.5971	0.5987	0.255
Mof_O 	O 	0.667	0.73413	0.70139	-0.456
Mof_H 	H 	0.6861	0.7213	0.71	0.258
Mof_C 	C 	0.77921	0.62783	0.56758	-0.049
Mof_C 	C 	0.78363	0.59873	0.54088	0.38
Mof_C 	C 	0.73899	0.63524	0.57962	-0.004
Mof_H 	H 	0.7149	0.6239	0.5706	0.073
Mof_C 	C 	0.73546	0.65987	0.60533	-0.044
Mof_C 	C 	0.69262	0.66594	0.61998	0.371
Mof_C 	C 	0.77134	0.67662	0.61883	-0.075
Mof_H 	H 	0.7688	0.6927	0.6362	0.095
Mof_C 	C 	0.81521	0.64481	0.58073	-0.075
Mof_H 	H 	0.8419	0.6398	0.5725	0.08
Mof_C 	C 	0.81113	0.66936	0.60635	0.106
Mof_N 	N 	0.84733	0.68514	0.62122	-0.093
Mof_N 	N 	0.84469	0.7097	0.64424	-0.038
Mof_N 	N 	0.88363	0.7194	0.65332	-0.071
Mof_C 	C 	0.88851	0.67289	0.61904	0.01
Mof_H 	H 	0.8992	0.6522	0.6062	0.035
Mof_C 	C 	0.91147	0.6961	0.63876	0.03
Mof_C 	C 	0.97132	0.71597	0.67058	-0.138
Mof_H 	H 	0.953	0.7332	0.6815	0.096
Mof_C 	C 	0.95624	0.69277	0.64639	0.085
Mof_C 	C 	0.98384	0.66765	0.62978	-0.138
Mof_H 	H 	0.9737	0.6525	0.6135	0.094
Mof_C 	C 	0.01397	0.71323	0.67831	0.085
Mof_C 	C 	0.04179	0.68934	0.66115	-0.137
Mof_H 	H 	0.0707	0.6895	0.6655	0.096
Mof_C 	C 	0.0542	0.63866	0.61988	0.036
Mof_C 	C 	0.02651	0.66518	0.63749	0.083
Mof_C 	C 	0.00969	0.75734	0.72572	0.01
Mof_H 	H 	0.9803	0.7595	0.7278	0.039
Mof_C 	C 	0.03067	0.7368	0.70345	0.035
Mof_N 	N 	0.03879	0.77382	0.74408	-0.092
Mof_N 	N 	0.07002	0.7401	0.70978	-0.074
Mof_N 	N 	0.07559	0.7614	0.73538	-0.038
Mof_C 	C 	0.09714	0.63338	0.62201	0.008
Mof_H 	H 	0.1151	0.647	0.6354	0.04
Mof_N 	N 	0.10877	0.60479	0.60116	-0.091
Mof_N 	N 	0.07649	0.5972	0.58493	-0.04
Mof_N 	N 	0.04251	0.6146	0.59844	-0.076
Mof_C 	C 	0.9897	0.8241	0.81052	-0.046
Mof_C 	C 	0.99344	0.80153	0.78383	-0.078
Mof_H 	H 	0.9696	0.7895	0.7749	0.087
Mof_C 	C 	0.06912	0.81517	0.78387	-0.076
Mof_H 	H 	0.0956	0.8121	0.7749	0.094
Mof_C 	C 	0.03336	0.79748	0.77094	0.107
Mof_C 	C 	0.19347	0.54412	0.56373	-0.05
Mof_C 	C 	0.15344	0.5588	0.57168	-0.072
Mof_H 	H 	0.1292	0.5487	0.5621	0.089
Mof_C 	C 	0.15011	0.5888	0.5942	0.105
Mof_C 	C 	0.2294	0.55858	0.57835	-0.005
Mof_H 	H 	0.2562	0.549	0.5726	0.072
Mof_C 	C 	0.02546	0.84244	0.82358	-0.005
Mof_H 	H 	0.0228	0.8579	0.8411	0.07
Mof_C 	C 	0.94743	0.82713	0.82567	0.363
Mof_C 	C 	0.22526	0.58749	0.60159	-0.04
Mof_C 	C 	0.06496	0.83762	0.81046	-0.045
Mof_C 	C 	0.10427	0.85463	0.82557	0.366
Mof_C 	C 	0.18556	0.60246	0.60983	-0.079
Mof_H 	H 	0.1827	0.6214	0.6256	0.088
Mof_C 	C 	0.19743	0.51089	0.53976	0.377
Mof_C 	C 	0.26429	0.6015	0.61834	0.358
Mof_O 	O 	0.13949	0.84703	0.81324	-0.462
Mof_O 	O 	0.9169	0.80669	0.81448	-0.449
Mof_O 	O 	0.94541	0.84979	0.84878	-0.465
Mof_O 	O 	0.16422	0.494	0.53042	-0.477
Mof_O 	O 	0.0985	0.8743	0.84938	-0.46
Mof_O 	O 	0.23481	0.50335	0.53079	-0.474
Mof_O 	O 	0.29957	0.59051	0.60791	-0.454
Mof_O 	O 	0.25844	0.62279	0.64184	-0.443
Mof_Zn	Zn	0.14012	0.1941	0.16762	1.227
Mof_Zn	Zn	0.10506	0.14592	0.12609	1.229
Mof_O 	O 	0.19169	0.18691	0.14341	-0.463
Mof_O 	O 	0.16146	0.14857	0.10738	-0.45
Mof_O 	O 	0.2504	0.08274	0.03087	-0.48
Mof_O 	O 	0.32081	0.09269	0.0313	-0.483
Mof_O 	O 	0.07581	0.10782	0.09212	-0.457
Mof_H 	H 	0.0539	0.0971	0.0987	0.255
Mof_O 	O 	0.167	0.23413	0.20139	-0.456
Mof_H 	H 	0.1861	0.2213	0.21	0.258
Mof_C 	C 	0.27921	0.12783	0.06758	-0.05
Mof_C 	C 	0.28363	0.09873	0.04088	0.38
Mof_C 	C 	0.23899	0.13524	0.07962	-0.004
Mof_H 	H 	0.2149	0.1239	0.0706	0.072
Mof_C 	C 	0.23546	0.15987	0.10533	-0.045
Mof_C 	C 	0.19262	0.16594	0.11998	0.371
Mof_C 	C 	0.27134	0.17662	0.11883	-0.074
Mof_H 	H 	0.2688	0.1927	0.1362	0.094
Mof_C 	C 	0.31521	0.14481	0.08073	-0.075
Mof_H 	H 	0.3419	0.1398	0.0725	0.079
Mof_C 	C 	0.31113	0.16936	0.10635	0.105
Mof_N 	N 	0.34733	0.18514	0.12122	-0.093
Mof_N 	N 	0.34469	0.2097	0.14424	-0.038
Mof_N 	N 	0.38363	0.2194	0.15332	-0.072
Mof_C 	C 	0.38851	0.17289	0.11904	0.01
Mof_H 	H 	0.3992	0.1522	0.1062	0.035
Mof_C 	C 	0.41147	0.1961	0.13876	0.03
Mof_C 	C 	0.47132	0.21597	0.17058	-0.138
Mof_H 	H 	0.453	0.2332	0.1815	0.096
Mof_C 	C 	0.45624	0.19277	0.14639	0.085
Mof_C 	C 	0.48384	0.16765	0.12978	-0.138
Mof_H 	H 	0.4737	0.1525	0.1135	0.093
Mof_C 	C 	0.51397	0.21323	0.17831	0.085
Mof_C 	C 	0.54179	0.18934	0.16115	-0.137
Mof_H 	H 	0.5707	0.1895	0.1655	0.096
Mof_C 	C 	0.5542	0.13866	0.11988	0.036
Mof_C 	C 	0.52651	0.16518	0.13749	0.083
Mof_C 	C 	0.50969	0.25734	0.22572	0.01
Mof_H 	H 	0.4803	0.2595	0.2278	0.039
Mof_C 	C 	0.53067	0.2368	0.20345	0.035
Mof_N 	N 	0.53879	0.27382	0.24408	-0.092
Mof_N 	N 	0.57002	0.2401	0.20978	-0.074
Mof_N 	N 	0.57559	0.2614	0.23538	-0.038
Mof_C 	C 	0.59714	0.13338	0.12201	0.008
Mof_H 	H 	0.6151	0.147	0.1354	0.04
Mof_N 	N 	0.60877	0.10479	0.10116	-0.091
Mof_N 	N 	0.57649	0.0972	0.08493	-0.041
Mof_N 	N 	0.54251	0.1146	0.09844	-0.077
Mof_C 	C 	0.4897	0.3241	0.31052	-0.046
Mof_C 	C 	0.49344	0.30153	0.28383	-0.078
Mof_H 	H 	0.4696	0.2895	0.2749	0.087
Mof_C 	C 	0.56912	0.31517	0.28387	-0.076
Mof_H 	H 	0.5956	0.3121	0.2749	0.094
Mof_C 	C 	0.53336	0.29748	0.27094	0.107
Mof_C 	C 	0.69347	0.04412	0.06373	-0.051
Mof_C 	C 	0.65344	0.0588	0.07168	-0.071
Mof_H 	H 	0.6292	0.0487	0.0621	0.089
Mof_C 	C 	0.65011	0.0888	0.0942	0.105
Mof_C 	C 	0.7294	0.05858	0.07835	-0.005
Mof_H 	H 	0.7562	0.049	0.0726	0.071
Mof_C 	C 	0.52546	0.34244	0.32358	-0.005
Mof_H 	H 	0.5228	0.3579	0.3411	0.07
Mof_C 	C 	0.44743	0.32713	0.32567	0.363
Mof_C 	C 	0.72526	0.08749	0.10159	-0.04
Mof_C 	C 	0.56496	0.33762	0.31046	-0.045
Mof_C 	C 	0.60427	0.35463	0.32557	0.367
Mof_C 	C 	0.68556	0.10246	0.10983	-0.079
Mof_H 	H 	0.6827	0.1214	0.1256	0.088
Mof_C 	C 	0.69743	0.01089	0.03976	0.377
Mof_C 	C 	0.76429	0.1015	0.11834	0.358
Mof_O 	O 	0.63949	0.34703	0.31324	-0.462
Mof_O 	O 	0.4169	0.30669	0.31448	-0.449
Mof_O 	O 	0.44541	0.34979	0.34878	-0.465
Mof_O 	O 	0.66422	0.994	0.03042	-0.478
Mof_O 	O 	0.5985	0.3743	0.34938	-0.46
Mof_O 	O 	0.73481	0.00335	0.03079	-0.475
Mof_O 	O 	0.79957	0.09051	0.10791	-0.454
Mof_O 	O 	0.75844	0.12279	0.14184	-0.443
Mof_Zn	Zn	0.6941	0.35988	0.66762	1.227
Mof_Zn	Zn	0.64592	0.39494	0.62609	1.229
Mof_O 	O 	0.68691	0.30831	0.64341	-0.463
Mof_O 	O 	0.64857	0.33854	0.60738	-0.45
Mof_O 	O 	0.58274	0.2496	0.53087	-0.479
Mof_O 	O 	0.59269	0.17919	0.5313	-0.481
Mof_O 	O 	0.60782	0.42419	0.59212	-0.456
Mof_H 	H 	0.5971	0.4461	0.5987	0.255
Mof_O 	O 	0.73413	0.333	0.70139	-0.456
Mof_H 	H 	0.7213	0.3139	0.71	0.258
Mof_C 	C 	0.62783	0.22079	0.56758	-0.049
Mof_C 	C 	0.59873	0.21637	0.54088	0.38
Mof_C 	C 	0.63524	0.26101	0.57962	-0.004
Mof_H 	H 	0.6239	0.2851	0.5706	0.073
Mof_C 	C 	0.65987	0.26454	0.60533	-0.044
Mof_C 	C 	0.66594	0.30738	0.61998	0.371
Mof_C 	C 	0.67662	0.22866	0.61883	-0.075
Mof_H 	H 	0.6927	0.2312	0.6362	0.095
Mof_C 	C 	0.64481	0.18479	0.58073	-0.075
Mof_H 	H 	0.6398	0.1581	0.5725	0.08
Mof_C 	C 	0.66936	0.18887	0.60635	0.106
Mof_N 	N 	0.68514	0.15267	0.62122	-0.093
Mof_N 	N 	0.7097	0.15531	0.64424	-0.038
Mof_N 	N 	0.7194	0.11637	0.65332	-0.071
Mof_C 	C 	0.67289	0.11149	0.61904	0.01
Mof_H 	H 	0.6522	0.1008	0.6062	0.035
Mof_C 	C 	0.6961	0.08853	0.63876	0.03
Mof_C 	C 	0.71597	0.02868	0.67058	-0.138
Mof_H 	H 	0.7332	0.047	0.6815	0.096
Mof_C 	C 	0.69277	0.04376	0.64639	0.085
Mof_C 	C 	0.66765	0.01616	0.62978	-0.138
Mof_H 	H 	0.6525	0.0263	0.6135	0.094
Mof_C 	C 	0.71323	0.98603	0.67831	0.085
Mof_C 	C 	0.68934	0.95821	0.66115	-0.137
Mof_H 	H 	0.6895	0.9293	0.6655	0.096
Mof_C 	C 	0.63866	0.9458	0.61988	0.036
Mof_C 	C 	0.66518	0.97349	0.63749	0.083
Mof_C 	C 	0.75734	0.99031	0.72572	0.01
Mof_H 	H 	0.7595	0.0197	0.7278	0.039
Mof_C 	C 	0.7368	0.96933	0.70345	0.035
Mof_N 	N 	0.77382	0.96121	0.74408	-0.092
Mof_N 	N 	0.7401	0.92998	0.70978	-0.074
Mof_N 	N 	0.7614	0.92441	0.73538	-0.038
Mof_C 	C 	0.63338	0.90286	0.62201	0.008
Mof_H 	H 	0.647	0.8849	0.6354	0.04
Mof_N 	N 	0.60479	0.89123	0.60116	-0.091
Mof_N 	N 	0.5972	0.92351	0.58493	-0.04
Mof_N 	N 	0.6146	0.95749	0.59844	-0.076
Mof_C 	C 	0.8241	0.0103	0.81052	-0.046
Mof_C 	C 	0.80153	0.00656	0.78383	-0.078
Mof_H 	H 	0.7895	0.0304	0.7749	0.087
Mof_C 	C 	0.81517	0.93088	0.78387	-0.076
Mof_H 	H 	0.8121	0.9044	0.7749	0.094
Mof_C 	C 	0.79748	0.96664	0.77094	0.107
Mof_C 	C 	0.54412	0.80653	0.56373	-0.05
Mof_C 	C 	0.5588	0.84656	0.57168	-0.072
Mof_H 	H 	0.5487	0.8708	0.5621	0.089
Mof_C 	C 	0.5888	0.84989	0.5942	0.105
Mof_C 	C 	0.55858	0.7706	0.57835	-0.005
Mof_H 	H 	0.549	0.7438	0.5726	0.072
Mof_C 	C 	0.84244	0.97454	0.82358	-0.005
Mof_H 	H 	0.8579	0.9772	0.8411	0.07
Mof_C 	C 	0.82713	0.05257	0.82567	0.363
Mof_C 	C 	0.58749	0.77474	0.60159	-0.04
Mof_C 	C 	0.83762	0.93504	0.81046	-0.045
Mof_C 	C 	0.85463	0.89573	0.82557	0.366
Mof_C 	C 	0.60246	0.81444	0.60983	-0.079
Mof_H 	H 	0.6214	0.8173	0.6256	0.088
Mof_C 	C 	0.51089	0.80257	0.53976	0.377
Mof_C 	C 	0.6015	0.73571	0.61834	0.358
Mof_O 	O 	0.84703	0.86051	0.81324	-0.462
Mof_O 	O 	0.80669	0.0831	0.81448	-0.449
Mof_O 	O 	0.84979	0.05459	0.84878	-0.465
Mof_O 	O 	0.494	0.83578	0.53042	-0.477
Mof_O 	O 	0.8743	0.9015	0.84938	-0.46
Mof_O 	O 	0.50335	0.76519	0.53079	-0.474
Mof_O 	O 	0.59051	0.70043	0.60791	-0.454
Mof_O 	O 	0.62279	0.74156	0.64184	-0.443
Mof_Zn	Zn	0.1941	0.85988	0.16762	1.227
Mof_Zn	Zn	0.14592	0.89494	0.12609	1.229
Mof_O 	O 	0.18691	0.80831	0.14341	-0.463
Mof_O 	O 	0.14857	0.83854	0.10738	-0.45
Mof_O 	O 	0.08274	0.7496	0.03087	-0.48
Mof_O 	O 	0.09269	0.67919	0.0313	-0.483
Mof_O 	O 	0.10782	0.92419	0.09212	-0.457
Mof_H 	H 	0.0971	0.9461	0.0987	0.255
Mof_O 	O 	0.23413	0.833	0.20139	-0.456
Mof_H 	H 	0.2213	0.8139	0.21	0.258
Mof_C 	C 	0.12783	0.72079	0.06758	-0.05
Mof_C 	C 	0.09873	0.71637	0.04088	0.38
Mof_C 	C 	0.13524	0.76101	0.07962	-0.004
Mof_H 	H 	0.1239	0.7851	0.0706	0.072
Mof_C 	C 	0.15987	0.76454	0.10533	-0.045
Mof_C 	C 	0.16594	0.80738	0.11998	0.371
Mof_C 	C 	0.17662	0.72866	0.11883	-0.074
Mof_H 	H 	0.1927	0.7312	0.1362	0.094
Mof_C 	C 	0.14481	0.68479	0.08073	-0.075
Mof_H 	H 	0.1398	0.6581	0.0725	0.079
Mof_C 	C 	0.16936	0.68887	0.10635	0.105
Mof_N 	N 	0.18514	0.65267	0.12122	-0.093
Mof_N 	N 	0.2097	0.65531	0.14424	-0.038
Mof_N 	N 	0.2194	0.61637	0.15332	-0.072
Mof_C 	C 	0.17289	0.61149	0.11904	0.01
Mof_H 	H 	0.1522	0.6008	0.1062	0.035
Mof_C 	C 	0.1961	0.58853	0.13876	0.03
Mof_C 	C 	0.21597	0.52868	0.17058	-0.138
Mof_H 	H 	0.2332	0.547	0.1815	0.096
Mof_C 	C 	0.19277	0.54376	0.14639	0.085
Mof_C 	C 	0.16765	0.51616	0.12978	-0.138
Mof_H 	H 	0.1525	0.5263	0.1135	0.093
Mof_C 	C 	0.21323	0.48603	0.17831	0.085
Mof_C 	C 	0.18934	0.45821	0.16115	-0.137
Mof_H 	H 	0.1895	0.4293	0.1655	0.096
Mof_C 	C 	0.13866	0.4458	0.11988	0.036
Mof_C 	C 	0.16518	0.47349	0.13749	0.083
Mof_C 	C 	0.25734	0.49031	0.22572	0.01
Mof_H 	H 	0.2595	0.5197	0.2278	0.039
Mof_C 	C 	0.2368	0.46933	0.20345	0.035
Mof_N 	N 	0.27382	0.46121	0.24408	-0.092
Mof_N 	N 	0.2401	0.42998	0.20978	-0.074
Mof_N 	N 	0.2614	0.42441	0.23538	-0.038
Mof_C 	C 	0.13338	0.40286	0.12201	0.008
Mof_H 	H 	0.147	0.3849	0.1354	0.04
Mof_N 	N 	0.10479	0.39123	0.10116	-0.091
Mof_N 	N 	0.0972	0.42351	0.08493	-0.041
Mof_N 	N 	0.1146	0.45749	0.09844	-0.077
Mof_C 	C 	0.3241	0.5103	0.31052	-0.046
Mof_C 	C 	0.30153	0.50656	0.28383	-0.078
Mof_H 	H 	0.2895	0.5304	0.2749	0.087
Mof_C 	C 	0.31517	0.43088	0.28387	-0.076
Mof_H 	H 	0.3121	0.4044	0.2749	0.094
Mof_C 	C 	0.29748	0.46664	0.27094	0.107
Mof_C 	C 	0.04412	0.30653	0.06373	-0.051
Mof_C 	C 	0.0588	0.34656	0.07168	-0.071
Mof_H 	H 	0.0487	0.3708	0.0621	0.089
Mof_C 	C 	0.0888	0.34989	0.0942	0.105
Mof_C 	C 	0.05858	0.2706	0.07835	-0.005
Mof_H 	H 	0.049	0.2438	0.0726	0.071
Mof_C 	C 	0.34244	0.47454	0.32358	-0.005
Mof_H 	H 	0.3579	0.4772	0.3411	0.07
Mof_C 	C 	0.32713	0.55257	0.32567	0.363
Mof_C 	C 	0.08749	0.27474	0.10159	-0.04
Mof_C 	C 	0.33762	0.43504	0.31046	-0.045
Mof_C 	C 	0.35463	0.39573	0.32557	0.367
Mof_C 	C 	0.10246	0.31444	0.10983	-0.079
Mof_H 	H 	0.1214	0.3173	0.1256	0.088
Mof_C 	C 	0.01089	0.30257	0.03976	0.377
Mof_C 	C 	0.1015	0.23571	0.11834	0.358
Mof_O 	O 	0.34703	0.36051	0.31324	-0.462
Mof_O 	O 	0.30669	0.5831	0.31448	-0.449
Mof_O 	O 	0.34979	0.55459	0.34878	-0.465
Mof_O 	O 	0.994	0.33578	0.03042	-0.478
Mof_O 	O 	0.3743	0.4015	0.34938	-0.46
Mof_O 	O 	0.00335	0.26519	0.03079	-0.475
Mof_O 	O 	0.09051	0.20043	0.10791	-0.454
Mof_O 	O 	0.12279	0.24156	0.14184	-0.443
Mof_Zn	Zn	0.3059	0.64012	0.66762	1.227
Mof_Zn	Zn	0.35408	0.60506	0.62609	1.229
Mof_O 	O 	0.31309	0.69169	0.64341	-0.463
Mof_O 	O 	0.35143	0.66146	0.60738	-0.45
Mof_O 	O 	0.41726	0.7504	0.53087	-0.479
Mof_O 	O 	0.40731	0.82081	0.5313	-0.481
Mof_O 	O 	0.39218	0.57581	0.59212	-0.456
Mof_H 	H 	0.4029	0.5539	0.5987	0.255
Mof_O 	O 	0.26587	0.667	0.70139	-0.456
Mof_H 	H 	0.2787	0.6861	0.71	0.258
Mof_C 	C 	0.37217	0.77921	0.56758	-0.049
Mof_C 	C 	0.40127	0.78363	0.54088	0.38
Mof_C 	C 	0.36476	0.73899	0.57962	-0.004
Mof_H 	H 	0.3761	0.7149	0.5706	0.073
Mof_C 	C 	0.34013	0.73546	0.60533	-0.044
Mof_C 	C 	0.33406	0.69262	0.61998	0.371
Mof_C 	C 	0.32338	0.77134	0.61883	-0.075
Mof_H 	H 	0.3073	0.7688	0.6362	0.095
Mof_C 	C 	0.35519	0.81521	0.58073	-0.075
Mof_H 	H 	0.3602	0.8419	0.5725	0.08
Mof_C 	C 	0.33064	0.81113	0.60635	0.106
Mof_N 	N 	0.31486	0.84733	0.62122	-0.093
Mof_N 	N 	0.2903	0.84469	0.64424	-0.038
Mof_N 	N 	0.2806	0.88363	0.65332	-0.071
Mof_C 	C 	0.32711	0.88851	0.61904	0.01
Mof_H 	H 	0.3478	0.8992	0.6062	0.035
Mof_C 	C 	0.3039	0.91147	0.63876	0.03
Mof_C 	C 	0.28403	0.97132	0.67058	-0.138
Mof_H 	H 	0.2668	0.953	0.6815	0.096
Mof_C 	C 	0.30723	0.95624	0.64639	0.085
Mof_C 	C 	0.33235	0.98384	0.62978	-0.138
Mof_H 	H 	0.3475	0.9737	0.6135	0.094
Mof_C 	C 	0.28677	0.01397	0.67831	0.085
Mof_C 	C 	0.31066	0.04179	0.66115	-0.137
Mof_H 	H 	0.3105	0.0707	0.6655	0.096
Mof_C 	C 	0.36134	0.0542	0.61988	0.036
Mof_C 	C 	0.33482	0.02651	0.63749	0.083
Mof_C 	C 	0.24266	0.00969	0.72572	0.01
Mof_H 	H 	0.2405	0.9803	0.7278	0.039
Mof_C 	C 	0.2632	0.03067	0.70345	0.035
Mof_N 	N 	0.22618	0.03879	0.74408	-0.092
Mof_N 	N 	0.2599	0.07002	0.70978	-0.074
Mof_N 	N 	0.2386	0.07559	0.73538	-0.038
Mof_C 	C 	0.36662	0.09714	0.62201	0.008
Mof_H 	H 	0.353	0.1151	0.6354	0.04
Mof_N 	N 	0.39521	0.10877	0.60116	-0.091
Mof_N 	N 	0.4028	0.07649	0.58493	-0.04
Mof_N 	N 	0.3854	0.04251	0.59844	-0.076
Mof_C 	C 	0.1759	0.9897	0.81052	-0.046
Mof_C 	C 	0.19847	0.99344	0.78383	-0.078
Mof_H 	H 	0.2105	0.9696	0.7749	0.087
Mof_C 	C 	0.18483	0.06912	0.78387	-0.076
Mof_H 	H 	0.1879	0.0956	0.7749	0.094
Mof_C 	C 	0.20252	0.03336	0.77094	0.107
Mof_C 	C 	0.45588	0.19347	0.56373	-0.05
Mof_C 	C 	0.4412	0.15344	0.57168	-0.072
Mof_H 	H 	0.4513	0.1292	0.5621	0.089
Mof_C 	C 	0.4112	0.15011	0.5942	0.105
Mof_C 	C 	0.44142	0.2294	0.57835	-0.005
Mof_H 	H 	0.451	0.2562	0.5726	0.072
Mof_C 	C 	0.15756	0.02546	0.82358	-0.005
Mof_H 	H 	0.1421	0.0228	0.8411	0.07
Mof_C 	C 	0.17287	0.94743	0.82567	0.363
Mof_C 	C 	0.41251	0.22526	0.60159	-0.04
Mof_C 	C 	0.16238	0.06496	0.81046	-0.045
Mof_C 	C 	0.14537	0.10427	0.82557	0.366
Mof_C 	C 	0.39754	0.18556	0.60983	-0.079
Mof_H 	H 	0.3786	0.1827	0.6256	0.088
Mof_C 	C 	0.48911	0.19743	0.53976	0.377
Mof_C 	C 	0.3985	0.26429	0.61834	0.358
Mof_O 	O 	0.15297	0.13949	0.81324	-0.462
Mof_O 	O 	0.19331	0.9169	0.81448	-0.449
Mof_O 	O 	0.15021	0.94541	0.84878	-0.465
Mof_O 	O 	0.506	0.16422	0.53042	-0.477
Mof_O 	O 	0.1257	0.0985	0.84938	-0.46
Mof_O 	O 	0.49665	0.23481	0.53079	-0.474
Mof_O 	O 	0.40949	0.29957	0.60791	-0.454
Mof_O 	O 	0.37721	0.25844	0.64184	-0.443
Mof_Zn	Zn	0.8059	0.14012	0.16762	1.227
Mof_Zn	Zn	0.85408	0.10506	0.12609	1.229
Mof_O 	O 	0.81309	0.19169	0.14341	-0.463
Mof_O 	O 	0.85143	0.16146	0.10738	-0.45
Mof_O 	O 	0.91726	0.2504	0.03087	-0.48
Mof_O 	O 	0.90731	0.32081	0.0313	-0.483
Mof_O 	O 	0.89218	0.07581	0.09212	-0.457
Mof_H 	H 	0.9029	0.0539	0.0987	0.255
Mof_O 	O 	0.76587	0.167	0.20139	-0.456
Mof_H 	H 	0.7787	0.1861	0.21	0.258
Mof_C 	C 	0.87217	0.27921	0.06758	-0.05
Mof_C 	C 	0.90127	0.28363	0.04088	0.38
Mof_C 	C 	0.86476	0.23899	0.07962	-0.004
Mof_H 	H 	0.8761	0.2149	0.0706	0.072
Mof_C 	C 	0.84013	0.23546	0.10533	-0.045
Mof_C 	C 	0.83406	0.19262	0.11998	0.371
Mof_C 	C 	0.82338	0.27134	0.11883	-0.074
Mof_H 	H 	0.8073	0.2688	0.1362	0.094
Mof_C 	C 	0.85519	0.31521	0.08073	-0.075
Mof_H 	H 	0.8602	0.3419	0.0725	0.079
Mof_C 	C 	0.83064	0.31113	0.10635	0.105
Mof_N 	N 	0.81486	0.34733	0.12122	-0.093
Mof_N 	N 	0.7903	0.34469	0.14424	-0.038
Mof_N 	N 	0.7806	0.38363	0.15332	-0.072
Mof_C 	C 	0.82711	0.38851	0.11904	0.01
Mof_H 	H 	0.8478	0.3992	0.1062	0.035
Mof_C 	C 	0.8039	0.41147	0.13876	0.03
Mof_C 	C 	0.78403	0.47132	0.17058	-0.138
Mof_H 	H 	0.7668	0.453	0.1815	0.096
Mof_C 	C 	0.80723	0.45624	0.14639	0.085
Mof_C 	C 	0.83235	0.48384	0.12978	-0.138
Mof_H 	H 	0.8475	0.4737	0.1135	0.093
Mof_C 	C 	0.78677	0.51397	0.17831	0.085
Mof_C 	C 	0.81066	0.54179	0.16115	-0.137
Mof_H 	H 	0.8105	0.5707	0.1655	0.096
Mof_C 	C 	0.86134	0.5542	0.11988	0.036
Mof_C 	C 	0.83482	0.52651	0.13749	0.083
Mof_C 	C 	0.74266	0.50969	0.22572	0.01
Mof_H 	H 	0.7405	0.4803	0.2278	0.039
Mof_C 	C 	0.7632	0.53067	0.20345	0.035
Mof_N 	N 	0.72618	0.53879	0.24408	-0.092
Mof_N 	N 	0.7599	0.57002	0.20978	-0.074
Mof_N 	N 	0.7386	0.57559	0.23538	-0.038
Mof_C 	C 	0.86662	0.59714	0.12201	0.008
Mof_H 	H 	0.853	0.6151	0.1354	0.04
Mof_N 	N 	0.89521	0.60877	0.10116	-0.091
Mof_N 	N 	0.9028	0.57649	0.08493	-0.041
Mof_N 	N 	0.8854	0.54251	0.09844	-0.077
Mof_C 	C 	0.6759	0.4897	0.31052	-0.046
Mof_C 	C 	0.69847	0.49344	0.28383	-0.078
Mof_H 	H 	0.7105	0.4696	0.2749	0.087
Mof_C 	C 	0.68483	0.56912	0.28387	-0.076
Mof_H 	H 	0.6879	0.5956	0.2749	0.094
Mof_C 	C 	0.70252	0.53336	0.27094	0.107
Mof_C 	C 	0.95588	0.69347	0.06373	-0.051
Mof_C 	C 	0.9412	0.65344	0.07168	-0.071
Mof_H 	H 	0.9513	0.6292	0.0621	0.089
Mof_C 	C 	0.9112	0.65011	0.0942	0.105
Mof_C 	C 	0.94142	0.7294	0.07835	-0.005
Mof_H 	H 	0.951	0.7562	0.0726	0.071
Mof_C 	C 	0.65756	0.52546	0.32358	-0.005
Mof_H 	H 	0.6421	0.5228	0.3411	0.07
Mof_C 	C 	0.67287	0.44743	0.32567	0.363
Mof_C 	C 	0.91251	0.72526	0.10159	-0.04
Mof_C 	C 	0.66238	0.56496	0.31046	-0.045
Mof_C 	C 	0.64537	0.60427	0.32557	0.367
Mof_C 	C 	0.89754	0.68556	0.10983	-0.079
Mof_H 	H 	0.8786	0.6827	0.1256	0.088
Mof_C 	C 	0.98911	0.69743	0.03976	0.377
Mof_C 	C 	0.8985	0.76429	0.11834	0.358
Mof_O 	O 	0.65297	0.63949	0.31324	-0.462
Mof_O 	O 	0.69331	0.4169	0.31448	-0.449
Mof_O 	O 	0.65021	0.44541	0.34878	-0.465
Mof_O 	O 	0.006	0.66422	0.03042	-0.478
Mof_O 	O 	0.6257	0.5985	0.34938	-0.46
Mof_O 	O 	0.99665	0.73481	0.03079	-0.475
Mof_O 	O 	0.90949	0.79957	0.10791	-0.454
Mof_O 	O 	0.87721	0.75844	0.14184	-0.443
Mof_Zn	Zn	0.75137	0.53888	0.5	1.207
Mof_Zn	Zn	0.83453	0.55112	0.5	1.204
Mof_Zn	Zn	0.25137	0.03888	-0	1.206
Mof_Zn	Zn	0.33453	0.05112	-0	1.202
Mof_Zn	Zn	0.24863	0.46112	0.5	1.207
Mof_Zn	Zn	0.16547	0.44888	0.5	1.204
Mof_Zn	Zn	0.74863	0.96112	-0	1.206
Mof_Zn	Zn	0.66547	0.94888	-0	1.202
Mof_Zn	Zn	0.46112	0.75137	0.5	1.207
Mof_Zn	Zn	0.44888	0.83453	0.5	1.204
Mof_Zn	Zn	0.96112	0.25137	-0	1.206
Mof_Zn	Zn	0.94888	0.33453	-0	1.202
Mof_Zn	Zn	0.53888	0.24863	0.5	1.207
Mof_Zn	Zn	0.55112	0.16547	0.5	1.204
Mof_Zn	Zn	0.03888	0.74863	-0	1.206
Mof_Zn	Zn	0.05112	0.66547	-0	1.202
_end
