data_functionalizedCrystal
_audit_creation_method	'EQeq! by Chris Wilmer'
_symmetry_space_group_name_H-M	'P1'
_symmetry_Int_Tables_number	1
_symmetry_cell_setting	triclinic
loop_
_symmetry_equiv_pos_as_xyz
  x,y,z
_cell_length_a	34.804
_cell_length_b	14.8607
_cell_length_c	31.624
_cell_angle_alpha	90
_cell_angle_beta	102.083
_cell_angle_gamma	90
loop_
_atom_site_label
_atom_site_type_symbol
_atom_site_fract_x
_atom_site_fract_y
_atom_site_fract_z
_atom_site_charge
Mof_I 	I 	0.02622	0.2982	0.37376	-0.356
Mof_Zn	Zn	0.08597	0.26969	0.33982	1.164
Mof_I 	I 	0.12109	0.38568	0.30457	-0.392
Mof_N 	N 	0.1264	0.2044	0.3865	-0.267
Mof_C 	C 	0.1218	0.1142	0.3936	0.054
Mof_H 	H 	0.102	0.0838	0.3735	-0.005
Mof_C 	C 	0.1426	0.0642	0.4262	-0.116
Mof_H 	H 	0.1389	0.001	0.4272	0.07
Mof_C 	C 	0.17	0.109	0.4588	0.045
Mof_C 	C 	0.174	0.2028	0.4537	-0.111
Mof_H 	H 	0.1911	0.2358	0.4756	0.07
Mof_C 	C 	0.1531	0.2489	0.4169	0.044
Mof_H 	H 	0.1577	0.3111	0.4133	-0.005
Mof_C 	C 	0.1926	0.059	0.4954	0.055
Mof_N 	N 	0.1834	0.9698	0.4968	-0.098
Mof_C 	C 	0.2058	0.9239	0.5281	0.116
Mof_N 	N 	0.2355	0.9605	0.5609	-0.098
Mof_C 	C 	0.2403	0.0466	0.5584	0.005
Mof_N 	N 	0.2213	0.0984	0.521	-0.128
Mof_N 	N 	0.1818	0.644	0.5175	-0.082
Mof_C 	C 	0.2092	0.678	0.549	-0.061
Mof_H 	H 	0.2241	0.6382	0.5694	-0.068
Mof_C 	C 	0.2176	0.769	0.554	-0.04
Mof_H 	H 	0.2378	0.7871	0.5775	-0.11
Mof_C 	C 	0.1982	0.834	0.5267	0.033
Mof_C 	C 	0.1701	0.797	0.4945	-0.007
Mof_H 	H 	0.1551	0.8358	0.4735	0.023
Mof_C 	C 	0.1627	0.706	0.4909	0.102
Mof_H 	H 	0.1425	0.6865	0.4677	-0.004
Mof_I 	I 	0.12204	0.48806	0.44531	-0.399
Mof_Zn	Zn	0.16946	0.50697	0.51862	1.163
Mof_I 	I 	0.22964	0.41019	0.54113	-0.392
Mof_N 	N 	0.3307	0.1807	0.6455	-0.295
Mof_C 	C 	0.3095	0.2263	0.6116	0.085
Mof_H 	H 	0.3157	0.2873	0.6071	-0.009
Mof_C 	C 	0.2788	0.1851	0.5835	-0.166
Mof_H 	H 	0.2615	0.2204	0.5627	0.105
Mof_C 	C 	0.2731	0.0933	0.585	0.11
Mof_C 	C 	0.2946	0.0457	0.6204	-0.266
Mof_H 	H 	0.2899	0.9839	0.625	0.171
Mof_C 	C 	0.3246	0.0972	0.6497	0.135
Mof_H 	H 	0.3406	0.0664	0.6733	-0.044
Mof_I 	I 	0.39003	0.38438	0.65579	-0.389
Mof_Zn	Zn	0.37338	0.24171	0.69104	1.164
Mof_I 	I 	0.35217	0.23458	0.76244	-0.384
Mof_N 	N 	0.4218	0.1543	0.695	-0.269
Mof_C 	C 	0.4369	0.1113	0.7283	0.068
Mof_H 	H 	0.4267	0.1178	0.7537	-0.011
Mof_C 	C 	0.4695	0.052	0.7283	-0.087
Mof_H 	H 	0.48	0.0178	0.7535	0.05
Mof_C 	C 	0.4854	0.0444	0.6936	-0.036
Mof_C 	C 	0.4664	0.0855	0.655	-0.085
Mof_H 	H 	0.4736	0.0751	0.628	0.062
Mof_C 	C 	0.4357	0.144	0.6601	0.056
Mof_H 	H 	0.4239	0.1791	0.6357	-0.017
Mof_C 	C 	0.5212	0.9893	0.6928	0.203
Mof_N 	N 	0.5255	0.9218	0.7215	-0.154
Mof_C 	C 	0.5547	0.8669	0.7159	0.107
Mof_N 	N 	0.5779	0.8741	0.687	-0.14
Mof_N 	N 	0.5398	0.0041	0.6607	-0.2
Mof_N 	N 	0.5737	0.6303	0.7959	-0.261
Mof_C 	C 	0.5625	0.7822	0.7448	0.024
Mof_C 	C 	0.5968	0.65	0.7686	0.013
Mof_H 	H 	0.6178	0.6102	0.7672	0.008
Mof_C 	C 	0.5926	0.7246	0.7422	-0.036
Mof_H 	H 	0.6098	0.7355	0.723	0.039
Mof_C 	C 	0.5378	0.763	0.7722	-0.039
Mof_H 	H 	0.5167	0.8022	0.7741	0.053
Mof_C 	C 	0.5441	0.686	0.797	0.023
Mof_H 	H 	0.5267	0.6728	0.8156	-0.003
Mof_I 	I 	0.52916	0.49326	0.87184	-0.369
Mof_Zn	Zn	0.58802	0.52573	0.83892	1.158
Mof_I 	I 	0.62651	0.41418	0.80338	-0.387
Mof_N 	N 	0.6212	0.5908	0.892	0.632
Mof_C 	C 	0.6528	0.551	0.9158	0.057
Mof_H 	H 	0.6592	0.4909	0.9094	0.319
Mof_C 	C 	0.6759	0.596	0.9494	-0.04
Mof_H 	H 	0.6983	0.5672	0.9662	0.035
Mof_C 	C 	0.6672	0.683	0.9592	-0.069
Mof_C 	C 	0.6345	0.7228	0.9344	-0.614
Mof_H 	H 	0.6273	0.7825	0.9403	0.236
Mof_C 	C 	0.6125	0.6747	0.9011	-0.036
Mof_H 	H 	0.59	0.7024	0.8838	0.023
Mof_C 	C 	0.6927	0.7378	0.9946	0.113
Mof_N 	N 	0.7211	0.6943	0.022	-0.145
Mof_C 	C 	0.7401	0.7472	0.0508	0.09
Mof_N 	N 	0.7325	0.8358	0.0578	-0.123
Mof_C 	C 	0.7043	0.8693	0.0309	0.042
Mof_N 	N 	0.6813	0.8217	0.9984	-0.124
Mof_N 	N 	0.8317	0.6175	0.1444	-0.278
Mof_C 	C 	0.8205	0.7052	0.1493	0.085
Mof_H 	H 	0.8343	0.7382	0.1735	-0.001
Mof_C 	C 	0.7927	0.7447	0.1233	-0.14
Mof_H 	H 	0.7866	0.805	0.1293	0.095
Mof_C 	C 	0.7713	0.7044	0.087	0.062
Mof_C 	C 	0.7833	0.6144	0.0798	-0.139
Mof_H 	H 	0.7717	0.5827	0.0542	0.096
Mof_C 	C 	0.8114	0.5758	0.1102	0.09
Mof_H 	H 	0.8169	0.514	0.1068	-0.012
Mof_N 	N 	0.6834	0.1522	0.0248	-0.325
Mof_C 	C 	0.6586	0.0944	0.0011	0.219
Mof_H 	H 	0.6357	0.1175	0.9826	-0.074
Mof_C 	C 	0.6646	0.003	0.0022	-0.44
Mof_H 	H 	0.6462	0.9641	0.9846	0.224
Mof_C 	C 	0.6977	0.9686	0.0294	0.326
Mof_C 	C 	0.7225	0.0284	0.0539	-0.345
Mof_H 	H 	0.7447	0.0069	0.0741	0.129
Mof_C 	C 	0.7157	0.1193	0.0496	0.187
Mof_H 	H 	0.7348	0.1597	0.065	-0.057
Mof_I 	I 	0.62558	0.30767	0.94421	-0.401
Mof_Zn	Zn	0.67038	0.28878	0.01843	1.163
Mof_I 	I 	0.73249	0.3817	0.0431	-0.384
Mof_I 	I 	0.85351	0.56453	0.26233	-0.364
Mof_Zn	Zn	0.87438	0.55461	0.19028	1.165
Mof_I 	I 	0.89083	0.41061	0.15597	-0.399
Mof_N 	N 	0.9192	0.646	0.1927	-0.156
Mof_C 	C 	0.9309	0.6531	0.1554	0.117
Mof_H 	H 	0.9176	0.6249	0.1295	-0.033
Mof_C 	C 	0.9638	0.7049	0.1575	0.067
Mof_H 	H 	0.9727	0.7109	0.1312	0.019
Mof_C 	C 	0.9859	0.749	0.1925	0.013
Mof_C 	C 	0.9717	0.738	0.2294	-0.038
Mof_H 	H 	0.9847	0.7654	0.2557	0.036
Mof_C 	C 	0.9387	0.6869	0.2283	0.05
Mof_H 	H 	0.9292	0.6804	0.2542	0.001
Mof_C 	C 	0.0199	0.8077	0.1923	0.114
Mof_N 	N 	0.04	0.7916	0.1626	-0.139
Mof_C 	C 	0.0695	0.8489	0.1593	0.105
Mof_N 	N 	0.0772	0.9207	0.1865	-0.139
Mof_C 	C 	0.0557	0.9341	0.2151	0.183
Mof_N 	N 	0.0281	0.8761	0.2207	-0.154
Mof_N 	N 	0.1393	0.809	0.0667	-0.277
Mof_C 	C 	0.1499	0.862	0.1008	0.091
Mof_H 	H 	0.1745	0.8916	0.1038	-0.004
Mof_C 	C 	0.129	0.8786	0.1323	-0.127
Mof_H 	H 	0.1385	0.9178	0.1559	0.101
Mof_C 	C 	0.0935	0.8351	0.1276	0.074
Mof_C 	C 	0.0817	0.7801	0.0923	-0.124
Mof_H 	H 	0.0571	0.7502	0.0884	0.085
Mof_C 	C 	0.1048	0.7679	0.0626	0.079
Mof_H 	H 	0.096	0.7293	0.0386	-0.022
Mof_N 	N 	0.0736	0.1648	0.2964	-0.258
Mof_C 	C 	0.041	0.1134	0.2928	0.024
Mof_H 	H 	0.0221	0.1297	0.3091	0
Mof_C 	C 	0.034	0.0391	0.2667	-0.053
Mof_H 	H 	0.0105	0.0056	0.2653	0.029
Mof_C 	C 	0.0612	0.0118	0.2421	-0.067
Mof_C 	C 	0.094	0.0655	0.2446	-0.054
Mof_H 	H 	0.1131	0.0505	0.2283	0.039
Mof_C 	C 	0.0989	0.1404	0.2705	0.023
Mof_H 	H 	0.1211	0.1775	0.2705	0.002
Mof_N 	N 	0.6388	0.9959	0.5675	-0.243
Mof_C 	C 	0.6038	0.0334	0.5651	0.05
Mof_H 	H 	0.5941	0.0723	0.5414	-0.02
Mof_C 	C 	0.5808	0.0192	0.5947	-0.2
Mof_H 	H 	0.556	0.0483	0.5908	0.099
Mof_C 	C 	0.6517	0.9427	0.6016	0.094
Mof_H 	H 	0.6769	0.9158	0.6055	-0.008
Mof_C 	C 	0.6285	0.9266	0.6309	-0.135
Mof_H 	H 	0.6383	0.886	0.6539	0.096
Mof_C 	C 	0.5695	0.9471	0.6622	0.136
Mof_C 	C 	0.5926	0.9645	0.6298	0.14
Mof_N 	N 	0.1887	0.641	0.5293	-0.145
Mof_C 	C 	0.2199	0.679	0.5549	0.135
Mof_H 	H 	0.2387	0.64	0.572	0.041
Mof_C 	C 	0.2268	0.77	0.5581	0.023
Mof_H 	H 	0.249	0.7956	0.5768	0.14
Mof_C 	C 	0.1983	0.82	0.5317	-0.018
Mof_C 	C 	0.1648	0.788	0.5052	-0.073
Mof_H 	H 	0.1453	0.8251	0.4883	0.058
Mof_C 	C 	0.1622	0.695	0.5054	-0.068
Mof_H 	H 	0.14	0.6683	0.4872	-0.009
Mof_C 	C 	0.6025	0.663	0.7788	0.02
Mof_H 	H 	0.6271	0.633	0.7844	-0.004
Mof_C 	C 	0.5983	0.739	0.7532	-0.038
Mof_H 	H 	0.6196	0.7609	0.7417	0.037
Mof_C 	C 	0.5321	0.751	0.7621	-0.033
Mof_H 	H 	0.5071	0.7797	0.7569	0.015
Mof_C 	C 	0.54	0.676	0.7875	0.01
Mof_H 	H 	0.5195	0.6539	0.8004	0.009
Mof_N 	N 	0.6313	0.5963	0.8852	-0.896
Mof_C 	C 	0.652	0.554	0.9199	0.047
Mof_H 	H 	0.6519	0.4903	0.9191	-0.349
Mof_C 	C 	0.6734	0.594	0.9564	-0.057
Mof_H 	H 	0.6877	0.5605	0.9803	0.042
Mof_C 	C 	0.6721	0.686	0.9552	0.094
Mof_C 	C 	0.6512	0.7317	0.9201	0.532
Mof_H 	H 	0.6511	0.7956	0.92	-0.119
Mof_C 	C 	0.6304	0.6857	0.885	0.044
Mof_H 	H 	0.6156	0.7173	0.8609	0.011
Mof_N 	N 	0.9216	0.628	0.1928	-0.085
Mof_C 	C 	0.946	0.6194	0.166	-0.122
Mof_H 	H 	0.9406	0.5722	0.1453	0.046
Mof_C 	C 	0.9783	0.6716	0.1653	-0.13
Mof_H 	H 	0.994	0.6599	0.1448	0.073
Mof_C 	C 	0.9878	0.741	0.1944	-0.008
Mof_C 	C 	0.9639	0.754	0.2234	-0.04
Mof_H 	H 	0.9692	0.7992	0.2449	0.041
Mof_C 	C 	0.9321	0.697	0.2198	-0.017
Mof_H 	H 	0.9152	0.7092	0.2392	0.011
Mof_I 	I 	0.52622	0.7982	0.37376	-0.33
Mof_Zn	Zn	0.58597	0.76969	0.33982	1.165
Mof_I 	I 	0.62109	0.88568	0.30457	-0.343
Mof_N 	N 	0.6264	0.7044	0.3865	-0.264
Mof_C 	C 	0.6218	0.6142	0.3936	0.056
Mof_H 	H 	0.602	0.5838	0.3735	0.005
Mof_C 	C 	0.6426	0.5642	0.4262	-0.103
Mof_H 	H 	0.6389	0.501	0.4272	0.089
Mof_C 	C 	0.67	0.609	0.4588	0.037
Mof_C 	C 	0.674	0.7028	0.4537	-0.102
Mof_H 	H 	0.6911	0.7358	0.4756	0.069
Mof_C 	C 	0.6531	0.7489	0.4169	0.044
Mof_H 	H 	0.6577	0.8111	0.4133	-0.002
Mof_C 	C 	0.6926	0.559	0.4954	0.109
Mof_N 	N 	0.6834	0.4698	0.4968	-0.136
Mof_C 	C 	0.7058	0.4239	0.5281	0.109
Mof_N 	N 	0.7355	0.4605	0.5609	-0.139
Mof_C 	C 	0.7403	0.5466	0.5584	0.086
Mof_N 	N 	0.7213	0.5984	0.521	-0.141
Mof_N 	N 	0.6818	0.144	0.5175	-0.09
Mof_C 	C 	0.7092	0.178	0.549	-0.06
Mof_H 	H 	0.7241	0.1382	0.5694	-0.073
Mof_C 	C 	0.7176	0.269	0.554	-0.04
Mof_H 	H 	0.7378	0.2871	0.5775	-0.112
Mof_C 	C 	0.6982	0.334	0.5267	0.03
Mof_C 	C 	0.6701	0.297	0.4945	-0.013
Mof_H 	H 	0.6551	0.3358	0.4735	0.021
Mof_C 	C 	0.6627	0.206	0.4909	0.098
Mof_H 	H 	0.6425	0.1865	0.4677	-0.008
Mof_I 	I 	0.62204	0.98806	0.44531	-0.333
Mof_Zn	Zn	0.66946	0.00697	0.51862	1.139
Mof_I 	I 	0.72964	0.91019	0.54113	-0.349
Mof_N 	N 	0.8307	0.6807	0.6455	-0.275
Mof_C 	C 	0.8095	0.7263	0.6116	0.06
Mof_H 	H 	0.8157	0.7873	0.6071	0.004
Mof_C 	C 	0.7788	0.6851	0.5835	-0.115
Mof_H 	H 	0.7615	0.7204	0.5627	0.09
Mof_C 	C 	0.7731	0.5933	0.585	0.039
Mof_C 	C 	0.7946	0.5457	0.6204	-0.112
Mof_H 	H 	0.7899	0.4839	0.625	0.082
Mof_C 	C 	0.8246	0.5972	0.6497	0.077
Mof_H 	H 	0.8406	0.5664	0.6733	-0.008
Mof_I 	I 	0.89003	0.88438	0.65579	-0.339
Mof_Zn	Zn	0.87338	0.74171	0.69104	1.165
Mof_I 	I 	0.85217	0.73458	0.76244	-0.361
Mof_N 	N 	0.9218	0.6543	0.695	-0.279
Mof_C 	C 	0.9369	0.6113	0.7283	0.104
Mof_H 	H 	0.9267	0.6178	0.7537	-0.017
Mof_C 	C 	0.9695	0.552	0.7283	-0.14
Mof_H 	H 	0.98	0.5178	0.7535	0.086
Mof_C 	C 	0.9854	0.5444	0.6936	0.067
Mof_C 	C 	0.9664	0.5855	0.655	-0.13
Mof_H 	H 	0.9736	0.5751	0.628	0.093
Mof_C 	C 	0.9357	0.644	0.6601	0.088
Mof_H 	H 	0.9239	0.6791	0.6357	-0.02
Mof_C 	C 	0.0212	0.4893	0.6928	0.089
Mof_N 	N 	0.0255	0.4218	0.7215	-0.147
Mof_C 	C 	0.0547	0.3669	0.7159	0.098
Mof_N 	N 	0.0779	0.3741	0.687	-0.137
Mof_N 	N 	0.0398	0.5041	0.6607	-0.133
Mof_N 	N 	0.0737	0.1303	0.7959	-0.27
Mof_C 	C 	0.0625	0.2822	0.7448	0.021
Mof_C 	C 	0.0968	0.15	0.7686	0.015
Mof_H 	H 	0.1178	0.1102	0.7672	-0.005
Mof_C 	C 	0.0926	0.2246	0.7422	-0.036
Mof_H 	H 	0.1098	0.2355	0.723	0.035
Mof_C 	C 	0.0378	0.263	0.7722	-0.04
Mof_H 	H 	0.0167	0.3022	0.7741	0.045
Mof_C 	C 	0.0441	0.186	0.797	0.021
Mof_H 	H 	0.0267	0.1728	0.8156	-0.011
Mof_I 	I 	0.02916	0.99326	0.87184	-0.321
Mof_Zn	Zn	0.08802	0.02573	0.83892	1.137
Mof_I 	I 	0.12651	0.91418	0.80338	-0.336
Mof_N 	N 	0.1212	0.0908	0.892	0.844
Mof_C 	C 	0.1528	0.051	0.9158	0.017
Mof_H 	H 	0.1592	0.9909	0.9094	0.343
Mof_C 	C 	0.1759	0.096	0.9494	-0.031
Mof_H 	H 	0.1983	0.0672	0.9662	0.026
Mof_C 	C 	0.1672	0.183	0.9592	-0.096
Mof_C 	C 	0.1345	0.2228	0.9344	-0.78
Mof_H 	H 	0.1273	0.2825	0.9403	0.284
Mof_C 	C 	0.1125	0.1747	0.9011	-0.067
Mof_H 	H 	0.09	0.2024	0.8838	0.024
Mof_C 	C 	0.1927	0.2378	0.9946	0.113
Mof_N 	N 	0.2211	0.1943	0.022	-0.15
Mof_C 	C 	0.2401	0.2472	0.0508	0.088
Mof_N 	N 	0.2325	0.3358	0.0578	-0.145
Mof_C 	C 	0.2043	0.3693	0.0309	0.111
Mof_N 	N 	0.1813	0.3217	0.9984	-0.14
Mof_N 	N 	0.3317	0.1175	0.1444	-0.282
Mof_C 	C 	0.3205	0.2052	0.1493	0.078
Mof_H 	H 	0.3343	0.2382	0.1735	-0.002
Mof_C 	C 	0.2927	0.2447	0.1233	-0.138
Mof_H 	H 	0.2866	0.305	0.1293	0.087
Mof_C 	C 	0.2713	0.2044	0.087	0.055
Mof_C 	C 	0.2833	0.1144	0.0798	-0.143
Mof_H 	H 	0.2717	0.0827	0.0542	0.085
Mof_C 	C 	0.3114	0.0758	0.1102	0.086
Mof_H 	H 	0.3169	0.014	0.1068	-0.031
Mof_N 	N 	0.1834	0.6522	0.0248	-0.274
Mof_C 	C 	0.1586	0.5944	0.0011	0.066
Mof_H 	H 	0.1357	0.6175	0.9826	-0.016
Mof_C 	C 	0.1646	0.503	0.0022	-0.119
Mof_H 	H 	0.1462	0.4641	0.9846	0.08
Mof_C 	C 	0.1977	0.4686	0.0294	0.058
Mof_C 	C 	0.2225	0.5284	0.0539	-0.126
Mof_H 	H 	0.2447	0.5069	0.0741	0.077
Mof_C 	C 	0.2157	0.6193	0.0496	0.078
Mof_H 	H 	0.2348	0.6597	0.065	-0.017
Mof_I 	I 	0.12558	0.80767	0.94421	-0.391
Mof_Zn	Zn	0.17038	0.78878	0.01843	1.164
Mof_I 	I 	0.23249	0.8817	0.0431	-0.347
Mof_I 	I 	0.35351	0.06453	0.26233	-0.419
Mof_Zn	Zn	0.37438	0.05461	0.19028	1.155
Mof_I 	I 	0.39083	0.91061	0.15597	-0.341
Mof_N 	N 	0.4192	0.146	0.1927	-0.16
Mof_C 	C 	0.4309	0.1531	0.1554	0.139
Mof_H 	H 	0.4176	0.1249	0.1295	-0.045
Mof_C 	C 	0.4638	0.2049	0.1575	0.093
Mof_H 	H 	0.4727	0.2109	0.1312	0.011
Mof_C 	C 	0.4859	0.249	0.1925	0.014
Mof_C 	C 	0.4717	0.238	0.2294	-0.039
Mof_H 	H 	0.4847	0.2654	0.2557	0.034
Mof_C 	C 	0.4387	0.1869	0.2283	0.049
Mof_H 	H 	0.4292	0.1804	0.2542	-0.005
Mof_C 	C 	0.5199	0.3077	0.1923	0.112
Mof_N 	N 	0.54	0.2916	0.1626	-0.138
Mof_C 	C 	0.5695	0.3489	0.1593	0.102
Mof_N 	N 	0.5772	0.4207	0.1865	-0.135
Mof_C 	C 	0.5557	0.4341	0.2151	0.108
Mof_N 	N 	0.5281	0.3761	0.2207	-0.15
Mof_N 	N 	0.6393	0.309	0.0667	-0.279
Mof_C 	C 	0.6499	0.362	0.1008	0.085
Mof_H 	H 	0.6745	0.3916	0.1038	-0.01
Mof_C 	C 	0.629	0.3786	0.1323	-0.127
Mof_H 	H 	0.6385	0.4178	0.1559	0.09
Mof_C 	C 	0.5935	0.3351	0.1276	0.068
Mof_C 	C 	0.5817	0.2801	0.0923	-0.125
Mof_H 	H 	0.5571	0.2502	0.0884	0.081
Mof_C 	C 	0.6048	0.2679	0.0626	0.074
Mof_H 	H 	0.596	0.2293	0.0386	-0.025
Mof_N 	N 	0.5736	0.6648	0.2964	-0.266
Mof_C 	C 	0.541	0.6134	0.2928	0.056
Mof_H 	H 	0.5221	0.6297	0.3091	-0.005
Mof_C 	C 	0.534	0.5391	0.2667	-0.098
Mof_H 	H 	0.5105	0.5056	0.2653	0.064
Mof_C 	C 	0.5612	0.5118	0.2421	0.035
Mof_C 	C 	0.594	0.5655	0.2446	-0.1
Mof_H 	H 	0.6131	0.5505	0.2283	0.076
Mof_C 	C 	0.5989	0.6404	0.2705	0.056
Mof_H 	H 	0.6211	0.6775	0.2705	-0.002
Mof_N 	N 	0.1388	0.4959	0.5675	-0.276
Mof_C 	C 	0.1038	0.5334	0.5651	0.083
Mof_H 	H 	0.0941	0.5723	0.5414	-0.015
Mof_C 	C 	0.0808	0.5192	0.5947	-0.123
Mof_H 	H 	0.056	0.5483	0.5908	0.087
Mof_C 	C 	0.1517	0.4427	0.6016	0.067
Mof_H 	H 	0.1769	0.4158	0.6055	-0.008
Mof_C 	C 	0.1285	0.4266	0.6309	-0.114
Mof_H 	H 	0.1383	0.386	0.6539	0.081
Mof_C 	C 	0.0695	0.4471	0.6622	0.104
Mof_C 	C 	0.0926	0.4645	0.6298	0.067
Mof_N 	N 	0.6887	0.141	0.5293	-0.149
Mof_C 	C 	0.7199	0.179	0.5549	0.131
Mof_H 	H 	0.7387	0.14	0.572	0.035
Mof_C 	C 	0.7268	0.27	0.5581	0.02
Mof_H 	H 	0.749	0.2956	0.5768	0.139
Mof_C 	C 	0.6983	0.32	0.5317	-0.018
Mof_C 	C 	0.6648	0.288	0.5052	-0.069
Mof_H 	H 	0.6453	0.3251	0.4883	0.05
Mof_C 	C 	0.6622	0.195	0.5054	-0.065
Mof_H 	H 	0.64	0.1683	0.4872	-0.018
Mof_C 	C 	0.1025	0.163	0.7788	0.018
Mof_H 	H 	0.1271	0.133	0.7844	-0.005
Mof_C 	C 	0.0983	0.239	0.7532	-0.041
Mof_H 	H 	0.1196	0.2609	0.7417	0.033
Mof_C 	C 	0.0321	0.251	0.7621	-0.034
Mof_H 	H 	0.0071	0.2797	0.7569	0.014
Mof_C 	C 	0.04	0.176	0.7875	0.011
Mof_H 	H 	0.0195	0.1539	0.8004	0.004
Mof_N 	N 	0.1313	0.0963	0.8852	-1.109
Mof_C 	C 	0.152	0.054	0.9199	0.011
Mof_H 	H 	0.1519	0.9903	0.9191	-0.314
Mof_C 	C 	0.1734	0.094	0.9564	-0.044
Mof_H 	H 	0.1877	0.0605	0.9803	0.025
Mof_C 	C 	0.1721	0.186	0.9552	0.108
Mof_C 	C 	0.1512	0.2317	0.9201	0.704
Mof_H 	H 	0.1511	0.2956	0.92	-0.175
Mof_C 	C 	0.1304	0.1857	0.885	0.064
Mof_H 	H 	0.1156	0.2173	0.8609	0.003
Mof_N 	N 	0.4216	0.128	0.1928	-0.087
Mof_C 	C 	0.446	0.1194	0.166	-0.147
Mof_H 	H 	0.4406	0.0722	0.1453	0.041
Mof_C 	C 	0.4783	0.1716	0.1653	-0.155
Mof_H 	H 	0.494	0.1599	0.1448	0.076
Mof_C 	C 	0.4878	0.241	0.1944	-0.012
Mof_C 	C 	0.4639	0.254	0.2234	-0.038
Mof_H 	H 	0.4692	0.2992	0.2449	0.035
Mof_C 	C 	0.4321	0.197	0.2198	-0.018
Mof_H 	H 	0.4152	0.2092	0.2392	0.012
Mof_I 	I 	0.97378	0.2982	0.62624	-0.355
Mof_Zn	Zn	0.91403	0.26969	0.66018	1.165
Mof_I 	I 	0.87891	0.38568	0.69543	-0.391
Mof_N 	N 	0.8736	0.2044	0.6135	-0.266
Mof_C 	C 	0.8782	0.1142	0.6064	0.054
Mof_H 	H 	0.898	0.0838	0.6265	-0.005
Mof_C 	C 	0.8574	0.0642	0.5738	-0.116
Mof_H 	H 	0.8611	0.001	0.5728	0.07
Mof_C 	C 	0.83	0.109	0.5412	0.045
Mof_C 	C 	0.826	0.2028	0.5463	-0.111
Mof_H 	H 	0.8089	0.2358	0.5244	0.07
Mof_C 	C 	0.8469	0.2489	0.5831	0.044
Mof_H 	H 	0.8423	0.3111	0.5867	-0.005
Mof_C 	C 	0.8074	0.059	0.5046	0.055
Mof_N 	N 	0.8166	0.9698	0.5032	-0.098
Mof_C 	C 	0.7942	0.9239	0.4719	0.116
Mof_N 	N 	0.7645	0.9605	0.4391	-0.098
Mof_C 	C 	0.7597	0.0466	0.4416	0.005
Mof_N 	N 	0.7787	0.0984	0.479	-0.128
Mof_N 	N 	0.8182	0.644	0.4825	-0.082
Mof_C 	C 	0.7908	0.678	0.451	-0.061
Mof_H 	H 	0.7759	0.6382	0.4306	-0.068
Mof_C 	C 	0.7824	0.769	0.446	-0.04
Mof_H 	H 	0.7622	0.7871	0.4225	-0.11
Mof_C 	C 	0.8018	0.834	0.4733	0.033
Mof_C 	C 	0.8299	0.797	0.5055	-0.007
Mof_H 	H 	0.8449	0.8358	0.5265	0.023
Mof_C 	C 	0.8373	0.706	0.5091	0.102
Mof_H 	H 	0.8575	0.6865	0.5323	-0.004
Mof_I 	I 	0.87796	0.48806	0.55469	-0.399
Mof_Zn	Zn	0.83054	0.50697	0.48138	1.163
Mof_I 	I 	0.77036	0.41019	0.45887	-0.392
Mof_N 	N 	0.6693	0.1807	0.3545	-0.295
Mof_C 	C 	0.6905	0.2263	0.3884	0.085
Mof_H 	H 	0.6843	0.2873	0.3929	-0.009
Mof_C 	C 	0.7212	0.1851	0.4165	-0.166
Mof_H 	H 	0.7385	0.2204	0.4373	0.105
Mof_C 	C 	0.7269	0.0933	0.415	0.11
Mof_C 	C 	0.7054	0.0457	0.3796	-0.266
Mof_H 	H 	0.7101	0.9839	0.375	0.171
Mof_C 	C 	0.6754	0.0972	0.3503	0.135
Mof_H 	H 	0.6594	0.0664	0.3267	-0.044
Mof_I 	I 	0.60997	0.38438	0.34421	-0.389
Mof_Zn	Zn	0.62662	0.24171	0.30896	1.164
Mof_I 	I 	0.64783	0.23458	0.23756	-0.384
Mof_N 	N 	0.5782	0.1543	0.305	-0.269
Mof_C 	C 	0.5631	0.1113	0.2717	0.068
Mof_H 	H 	0.5733	0.1178	0.2463	-0.011
Mof_C 	C 	0.5305	0.052	0.2717	-0.087
Mof_H 	H 	0.52	0.0178	0.2465	0.05
Mof_C 	C 	0.5146	0.0444	0.3064	-0.036
Mof_C 	C 	0.5336	0.0855	0.345	-0.085
Mof_H 	H 	0.5264	0.0751	0.372	0.062
Mof_C 	C 	0.5643	0.144	0.3399	0.056
Mof_H 	H 	0.5761	0.1791	0.3643	-0.017
Mof_C 	C 	0.4788	0.9893	0.3072	0.203
Mof_N 	N 	0.4745	0.9218	0.2785	-0.154
Mof_C 	C 	0.4453	0.8669	0.2841	0.107
Mof_N 	N 	0.4221	0.8741	0.313	-0.14
Mof_N 	N 	0.4602	0.0041	0.3393	-0.2
Mof_N 	N 	0.4263	0.6303	0.2041	-0.261
Mof_C 	C 	0.4375	0.7822	0.2552	0.024
Mof_C 	C 	0.4032	0.65	0.2314	0.013
Mof_H 	H 	0.3822	0.6102	0.2328	0.008
Mof_C 	C 	0.4074	0.7246	0.2578	-0.036
Mof_H 	H 	0.3902	0.7355	0.277	0.039
Mof_C 	C 	0.4622	0.763	0.2278	-0.039
Mof_H 	H 	0.4833	0.8022	0.2259	0.053
Mof_C 	C 	0.4559	0.686	0.203	0.023
Mof_H 	H 	0.4733	0.6728	0.1844	-0.003
Mof_I 	I 	0.47084	0.49326	0.12816	-0.369
Mof_Zn	Zn	0.41198	0.52573	0.16108	1.158
Mof_I 	I 	0.37349	0.41418	0.19662	-0.387
Mof_N 	N 	0.3788	0.5908	0.108	0.632
Mof_C 	C 	0.3472	0.551	0.0842	0.057
Mof_H 	H 	0.3408	0.4909	0.0906	0.319
Mof_C 	C 	0.3241	0.596	0.0506	-0.04
Mof_H 	H 	0.3017	0.5672	0.0338	0.035
Mof_C 	C 	0.3328	0.683	0.0408	-0.069
Mof_C 	C 	0.3655	0.7228	0.0656	-0.614
Mof_H 	H 	0.3727	0.7825	0.0597	0.236
Mof_C 	C 	0.3875	0.6747	0.0989	-0.036
Mof_H 	H 	0.41	0.7024	0.1162	0.023
Mof_C 	C 	0.3073	0.7378	0.0054	0.113
Mof_N 	N 	0.2789	0.6943	0.978	-0.145
Mof_C 	C 	0.2599	0.7472	0.9492	0.09
Mof_N 	N 	0.2675	0.8358	0.9422	-0.123
Mof_C 	C 	0.2957	0.8693	0.9691	0.042
Mof_N 	N 	0.3187	0.8217	0.0016	-0.124
Mof_N 	N 	0.1683	0.6175	0.8556	-0.278
Mof_C 	C 	0.1795	0.7052	0.8507	0.085
Mof_H 	H 	0.1657	0.7382	0.8265	-0.001
Mof_C 	C 	0.2073	0.7447	0.8767	-0.14
Mof_H 	H 	0.2134	0.805	0.8707	0.095
Mof_C 	C 	0.2287	0.7044	0.913	0.062
Mof_C 	C 	0.2167	0.6144	0.9202	-0.139
Mof_H 	H 	0.2283	0.5827	0.9458	0.096
Mof_C 	C 	0.1886	0.5758	0.8898	0.09
Mof_H 	H 	0.1831	0.514	0.8932	-0.012
Mof_N 	N 	0.3166	0.1522	0.9752	-0.325
Mof_C 	C 	0.3414	0.0944	0.9989	0.219
Mof_H 	H 	0.3643	0.1175	0.0174	-0.074
Mof_C 	C 	0.3354	0.003	0.9978	-0.44
Mof_H 	H 	0.3538	0.9641	0.0154	0.224
Mof_C 	C 	0.3023	0.9686	0.9706	0.326
Mof_C 	C 	0.2775	0.0284	0.9461	-0.345
Mof_H 	H 	0.2553	0.0069	0.9259	0.129
Mof_C 	C 	0.2843	0.1193	0.9504	0.187
Mof_H 	H 	0.2652	0.1597	0.935	-0.057
Mof_I 	I 	0.37442	0.30767	0.05579	-0.401
Mof_Zn	Zn	0.32962	0.28878	0.98157	1.163
Mof_I 	I 	0.26751	0.3817	0.9569	-0.384
Mof_I 	I 	0.14649	0.56453	0.73767	-0.364
Mof_Zn	Zn	0.12562	0.55461	0.80972	1.165
Mof_I 	I 	0.10917	0.41061	0.84403	-0.399
Mof_N 	N 	0.0808	0.646	0.8073	-0.156
Mof_C 	C 	0.0691	0.6531	0.8446	0.117
Mof_H 	H 	0.0824	0.6249	0.8705	-0.033
Mof_C 	C 	0.0362	0.7049	0.8425	0.067
Mof_H 	H 	0.0273	0.7109	0.8688	0.019
Mof_C 	C 	0.0141	0.749	0.8075	0.013
Mof_C 	C 	0.0283	0.738	0.7706	-0.038
Mof_H 	H 	0.0153	0.7654	0.7443	0.036
Mof_C 	C 	0.0613	0.6869	0.7717	0.05
Mof_H 	H 	0.0708	0.6804	0.7458	0.001
Mof_C 	C 	0.9801	0.8077	0.8077	0.114
Mof_N 	N 	0.96	0.7916	0.8374	-0.139
Mof_C 	C 	0.9305	0.8489	0.8407	0.105
Mof_N 	N 	0.9228	0.9207	0.8135	-0.139
Mof_C 	C 	0.9443	0.9341	0.7849	0.183
Mof_N 	N 	0.9719	0.8761	0.7793	-0.154
Mof_N 	N 	0.8607	0.809	0.9333	-0.277
Mof_C 	C 	0.8501	0.862	0.8992	0.091
Mof_H 	H 	0.8255	0.8916	0.8962	-0.004
Mof_C 	C 	0.871	0.8786	0.8677	-0.127
Mof_H 	H 	0.8615	0.9178	0.8441	0.101
Mof_C 	C 	0.9065	0.8351	0.8724	0.074
Mof_C 	C 	0.9183	0.7801	0.9077	-0.124
Mof_H 	H 	0.9429	0.7502	0.9116	0.085
Mof_C 	C 	0.8952	0.7679	0.9374	0.079
Mof_H 	H 	0.904	0.7293	0.9614	-0.022
Mof_N 	N 	0.9264	0.1648	0.7036	-0.258
Mof_C 	C 	0.959	0.1134	0.7072	0.024
Mof_H 	H 	0.9779	0.1297	0.6909	0
Mof_C 	C 	0.966	0.0391	0.7333	-0.053
Mof_H 	H 	0.9895	0.0056	0.7347	0.029
Mof_C 	C 	0.9388	0.0118	0.7579	-0.067
Mof_C 	C 	0.906	0.0655	0.7554	-0.054
Mof_H 	H 	0.8869	0.0505	0.7717	0.039
Mof_C 	C 	0.9011	0.1404	0.7295	0.023
Mof_H 	H 	0.8789	0.1775	0.7295	0.002
Mof_N 	N 	0.3612	0.9959	0.4325	-0.243
Mof_C 	C 	0.3962	0.0334	0.4349	0.05
Mof_H 	H 	0.4059	0.0723	0.4586	-0.02
Mof_C 	C 	0.4192	0.0192	0.4053	-0.2
Mof_H 	H 	0.444	0.0483	0.4092	0.099
Mof_C 	C 	0.3483	0.9427	0.3984	0.094
Mof_H 	H 	0.3231	0.9158	0.3945	-0.008
Mof_C 	C 	0.3715	0.9266	0.3691	-0.135
Mof_H 	H 	0.3617	0.886	0.3461	0.096
Mof_C 	C 	0.4305	0.9471	0.3378	0.136
Mof_C 	C 	0.4074	0.9645	0.3702	0.14
Mof_N 	N 	0.8113	0.641	0.4707	-0.145
Mof_C 	C 	0.7801	0.679	0.4451	0.135
Mof_H 	H 	0.7613	0.64	0.428	0.041
Mof_C 	C 	0.7732	0.77	0.4419	0.023
Mof_H 	H 	0.751	0.7956	0.4232	0.14
Mof_C 	C 	0.8017	0.82	0.4683	-0.018
Mof_C 	C 	0.8352	0.788	0.4948	-0.073
Mof_H 	H 	0.8547	0.8251	0.5117	0.058
Mof_C 	C 	0.8378	0.695	0.4946	-0.068
Mof_H 	H 	0.86	0.6683	0.5128	-0.009
Mof_C 	C 	0.3975	0.663	0.2212	0.02
Mof_H 	H 	0.3729	0.633	0.2156	-0.004
Mof_C 	C 	0.4017	0.739	0.2468	-0.038
Mof_H 	H 	0.3804	0.7609	0.2583	0.037
Mof_C 	C 	0.4679	0.751	0.2379	-0.033
Mof_H 	H 	0.4929	0.7797	0.2431	0.015
Mof_C 	C 	0.46	0.676	0.2125	0.01
Mof_H 	H 	0.4805	0.6539	0.1996	0.009
Mof_N 	N 	0.3687	0.5963	0.1148	-0.896
Mof_C 	C 	0.348	0.554	0.0801	0.047
Mof_H 	H 	0.3481	0.4903	0.0809	-0.349
Mof_C 	C 	0.3266	0.594	0.0436	-0.057
Mof_H 	H 	0.3123	0.5605	0.0197	0.042
Mof_C 	C 	0.3279	0.686	0.0448	0.094
Mof_C 	C 	0.3488	0.7317	0.0799	0.532
Mof_H 	H 	0.3489	0.7956	0.08	-0.119
Mof_C 	C 	0.3696	0.6857	0.115	0.044
Mof_H 	H 	0.3844	0.7173	0.1391	0.011
Mof_N 	N 	0.0784	0.628	0.8072	-0.085
Mof_C 	C 	0.054	0.6194	0.834	-0.122
Mof_H 	H 	0.0594	0.5722	0.8547	0.046
Mof_C 	C 	0.0217	0.6716	0.8347	-0.13
Mof_H 	H 	0.006	0.6599	0.8552	0.073
Mof_C 	C 	0.0122	0.741	0.8056	-0.008
Mof_C 	C 	0.0361	0.754	0.7766	-0.04
Mof_H 	H 	0.0308	0.7992	0.7551	0.041
Mof_C 	C 	0.0679	0.697	0.7802	-0.017
Mof_H 	H 	0.0848	0.7092	0.7608	0.011
Mof_I 	I 	0.47378	0.7982	0.62624	-0.33
Mof_Zn	Zn	0.41403	0.76969	0.66018	1.165
Mof_I 	I 	0.37891	0.88568	0.69543	-0.343
Mof_N 	N 	0.3736	0.7044	0.6135	-0.264
Mof_C 	C 	0.3782	0.6142	0.6064	0.056
Mof_H 	H 	0.398	0.5838	0.6265	0.005
Mof_C 	C 	0.3574	0.5642	0.5738	-0.103
Mof_H 	H 	0.3611	0.501	0.5728	0.089
Mof_C 	C 	0.33	0.609	0.5412	0.037
Mof_C 	C 	0.326	0.7028	0.5463	-0.102
Mof_H 	H 	0.3089	0.7358	0.5244	0.069
Mof_C 	C 	0.3469	0.7489	0.5831	0.044
Mof_H 	H 	0.3423	0.8111	0.5867	-0.002
Mof_C 	C 	0.3074	0.559	0.5046	0.109
Mof_N 	N 	0.3166	0.4698	0.5032	-0.136
Mof_C 	C 	0.2942	0.4239	0.4719	0.109
Mof_N 	N 	0.2645	0.4605	0.4391	-0.139
Mof_C 	C 	0.2597	0.5466	0.4416	0.086
Mof_N 	N 	0.2787	0.5984	0.479	-0.141
Mof_N 	N 	0.3182	0.144	0.4825	-0.09
Mof_C 	C 	0.2908	0.178	0.451	-0.06
Mof_H 	H 	0.2759	0.1382	0.4306	-0.073
Mof_C 	C 	0.2824	0.269	0.446	-0.04
Mof_H 	H 	0.2622	0.2871	0.4225	-0.112
Mof_C 	C 	0.3018	0.334	0.4733	0.03
Mof_C 	C 	0.3299	0.297	0.5055	-0.013
Mof_H 	H 	0.3449	0.3358	0.5265	0.021
Mof_C 	C 	0.3373	0.206	0.5091	0.098
Mof_H 	H 	0.3575	0.1865	0.5323	-0.008
Mof_I 	I 	0.37796	0.98806	0.55469	-0.333
Mof_Zn	Zn	0.33054	0.00697	0.48138	1.139
Mof_I 	I 	0.27036	0.91019	0.45887	-0.349
Mof_N 	N 	0.1693	0.6807	0.3545	-0.275
Mof_C 	C 	0.1905	0.7263	0.3884	0.06
Mof_H 	H 	0.1843	0.7873	0.3929	0.004
Mof_C 	C 	0.2212	0.6851	0.4165	-0.115
Mof_H 	H 	0.2385	0.7204	0.4373	0.09
Mof_C 	C 	0.2269	0.5933	0.415	0.039
Mof_C 	C 	0.2054	0.5457	0.3796	-0.112
Mof_H 	H 	0.2101	0.4839	0.375	0.082
Mof_C 	C 	0.1754	0.5972	0.3503	0.077
Mof_H 	H 	0.1594	0.5664	0.3267	-0.008
Mof_I 	I 	0.10997	0.88438	0.34421	-0.339
Mof_Zn	Zn	0.12662	0.74171	0.30896	1.165
Mof_I 	I 	0.14783	0.73458	0.23756	-0.361
Mof_N 	N 	0.0782	0.6543	0.305	-0.279
Mof_C 	C 	0.0631	0.6113	0.2717	0.104
Mof_H 	H 	0.0733	0.6178	0.2463	-0.017
Mof_C 	C 	0.0305	0.552	0.2717	-0.14
Mof_H 	H 	0.02	0.5178	0.2465	0.086
Mof_C 	C 	0.0146	0.5444	0.3064	0.067
Mof_C 	C 	0.0336	0.5855	0.345	-0.13
Mof_H 	H 	0.0264	0.5751	0.372	0.093
Mof_C 	C 	0.0643	0.644	0.3399	0.088
Mof_H 	H 	0.0761	0.6791	0.3643	-0.02
Mof_C 	C 	0.9788	0.4893	0.3072	0.089
Mof_N 	N 	0.9745	0.4218	0.2785	-0.147
Mof_C 	C 	0.9453	0.3669	0.2841	0.098
Mof_N 	N 	0.9221	0.3741	0.313	-0.137
Mof_N 	N 	0.9602	0.5041	0.3393	-0.133
Mof_N 	N 	0.9263	0.1303	0.2041	-0.27
Mof_C 	C 	0.9375	0.2822	0.2552	0.021
Mof_C 	C 	0.9032	0.15	0.2314	0.015
Mof_H 	H 	0.8822	0.1102	0.2328	-0.005
Mof_C 	C 	0.9074	0.2246	0.2578	-0.036
Mof_H 	H 	0.8902	0.2355	0.277	0.035
Mof_C 	C 	0.9622	0.263	0.2278	-0.04
Mof_H 	H 	0.9833	0.3022	0.2259	0.045
Mof_C 	C 	0.9559	0.186	0.203	0.021
Mof_H 	H 	0.9733	0.1728	0.1844	-0.011
Mof_I 	I 	0.97084	0.99326	0.12816	-0.321
Mof_Zn	Zn	0.91198	0.02573	0.16108	1.137
Mof_I 	I 	0.87349	0.91418	0.19662	-0.336
Mof_N 	N 	0.8788	0.0908	0.108	0.844
Mof_C 	C 	0.8472	0.051	0.0842	0.017
Mof_H 	H 	0.8408	0.9909	0.0906	0.343
Mof_C 	C 	0.8241	0.096	0.0506	-0.031
Mof_H 	H 	0.8017	0.0672	0.0338	0.026
Mof_C 	C 	0.8328	0.183	0.0408	-0.096
Mof_C 	C 	0.8655	0.2228	0.0656	-0.78
Mof_H 	H 	0.8727	0.2825	0.0597	0.284
Mof_C 	C 	0.8875	0.1747	0.0989	-0.067
Mof_H 	H 	0.91	0.2024	0.1162	0.024
Mof_C 	C 	0.8073	0.2378	0.0054	0.113
Mof_N 	N 	0.7789	0.1943	0.978	-0.15
Mof_C 	C 	0.7599	0.2472	0.9492	0.088
Mof_N 	N 	0.7675	0.3358	0.9422	-0.145
Mof_C 	C 	0.7957	0.3693	0.9691	0.111
Mof_N 	N 	0.8187	0.3217	0.0016	-0.14
Mof_N 	N 	0.6683	0.1175	0.8556	-0.282
Mof_C 	C 	0.6795	0.2052	0.8507	0.078
Mof_H 	H 	0.6657	0.2382	0.8265	-0.002
Mof_C 	C 	0.7073	0.2447	0.8767	-0.138
Mof_H 	H 	0.7134	0.305	0.8707	0.087
Mof_C 	C 	0.7287	0.2044	0.913	0.055
Mof_C 	C 	0.7167	0.1144	0.9202	-0.143
Mof_H 	H 	0.7283	0.0827	0.9458	0.085
Mof_C 	C 	0.6886	0.0758	0.8898	0.086
Mof_H 	H 	0.6831	0.014	0.8932	-0.031
Mof_N 	N 	0.8166	0.6522	0.9752	-0.274
Mof_C 	C 	0.8414	0.5944	0.9989	0.066
Mof_H 	H 	0.8643	0.6175	0.0174	-0.016
Mof_C 	C 	0.8354	0.503	0.9978	-0.119
Mof_H 	H 	0.8538	0.4641	0.0154	0.08
Mof_C 	C 	0.8023	0.4686	0.9706	0.058
Mof_C 	C 	0.7775	0.5284	0.9461	-0.126
Mof_H 	H 	0.7553	0.5069	0.9259	0.077
Mof_C 	C 	0.7843	0.6193	0.9504	0.078
Mof_H 	H 	0.7652	0.6597	0.935	-0.017
Mof_I 	I 	0.87442	0.80767	0.05579	-0.391
Mof_Zn	Zn	0.82962	0.78878	0.98157	1.164
Mof_I 	I 	0.76751	0.8817	0.9569	-0.347
Mof_I 	I 	0.64649	0.06453	0.73767	-0.419
Mof_Zn	Zn	0.62562	0.05461	0.80972	1.155
Mof_I 	I 	0.60917	0.91061	0.84403	-0.341
Mof_N 	N 	0.5808	0.146	0.8073	-0.16
Mof_C 	C 	0.5691	0.1531	0.8446	0.139
Mof_H 	H 	0.5824	0.1249	0.8705	-0.045
Mof_C 	C 	0.5362	0.2049	0.8425	0.093
Mof_H 	H 	0.5273	0.2109	0.8688	0.011
Mof_C 	C 	0.5141	0.249	0.8075	0.014
Mof_C 	C 	0.5283	0.238	0.7706	-0.039
Mof_H 	H 	0.5153	0.2654	0.7443	0.034
Mof_C 	C 	0.5613	0.1869	0.7717	0.049
Mof_H 	H 	0.5708	0.1804	0.7458	-0.005
Mof_C 	C 	0.4801	0.3077	0.8077	0.112
Mof_N 	N 	0.46	0.2916	0.8374	-0.138
Mof_C 	C 	0.4305	0.3489	0.8407	0.102
Mof_N 	N 	0.4228	0.4207	0.8135	-0.135
Mof_C 	C 	0.4443	0.4341	0.7849	0.108
Mof_N 	N 	0.4719	0.3761	0.7793	-0.15
Mof_N 	N 	0.3607	0.309	0.9333	-0.279
Mof_C 	C 	0.3501	0.362	0.8992	0.085
Mof_H 	H 	0.3255	0.3916	0.8962	-0.01
Mof_C 	C 	0.371	0.3786	0.8677	-0.127
Mof_H 	H 	0.3615	0.4178	0.8441	0.09
Mof_C 	C 	0.4065	0.3351	0.8724	0.068
Mof_C 	C 	0.4183	0.2801	0.9077	-0.125
Mof_H 	H 	0.4429	0.2502	0.9116	0.081
Mof_C 	C 	0.3952	0.2679	0.9374	0.074
Mof_H 	H 	0.404	0.2293	0.9614	-0.025
Mof_N 	N 	0.4264	0.6648	0.7036	-0.266
Mof_C 	C 	0.459	0.6134	0.7072	0.056
Mof_H 	H 	0.4779	0.6297	0.6909	-0.005
Mof_C 	C 	0.466	0.5391	0.7333	-0.098
Mof_H 	H 	0.4895	0.5056	0.7347	0.064
Mof_C 	C 	0.4388	0.5118	0.7579	0.035
Mof_C 	C 	0.406	0.5655	0.7554	-0.1
Mof_H 	H 	0.3869	0.5505	0.7717	0.076
Mof_C 	C 	0.4011	0.6404	0.7295	0.056
Mof_H 	H 	0.3789	0.6775	0.7295	-0.002
Mof_N 	N 	0.8612	0.4959	0.4325	-0.276
Mof_C 	C 	0.8962	0.5334	0.4349	0.083
Mof_H 	H 	0.9059	0.5723	0.4586	-0.015
Mof_C 	C 	0.9192	0.5192	0.4053	-0.123
Mof_H 	H 	0.944	0.5483	0.4092	0.087
Mof_C 	C 	0.8483	0.4427	0.3984	0.067
Mof_H 	H 	0.8231	0.4158	0.3945	-0.008
Mof_C 	C 	0.8715	0.4266	0.3691	-0.114
Mof_H 	H 	0.8617	0.386	0.3461	0.081
Mof_C 	C 	0.9305	0.4471	0.3378	0.104
Mof_C 	C 	0.9074	0.4645	0.3702	0.067
Mof_N 	N 	0.3113	0.141	0.4707	-0.149
Mof_C 	C 	0.2801	0.179	0.4451	0.131
Mof_H 	H 	0.2613	0.14	0.428	0.035
Mof_C 	C 	0.2732	0.27	0.4419	0.02
Mof_H 	H 	0.251	0.2956	0.4232	0.139
Mof_C 	C 	0.3017	0.32	0.4683	-0.018
Mof_C 	C 	0.3352	0.288	0.4948	-0.069
Mof_H 	H 	0.3547	0.3251	0.5117	0.05
Mof_C 	C 	0.3378	0.195	0.4946	-0.065
Mof_H 	H 	0.36	0.1683	0.5128	-0.018
Mof_C 	C 	0.8975	0.163	0.2212	0.018
Mof_H 	H 	0.8729	0.133	0.2156	-0.005
Mof_C 	C 	0.9017	0.239	0.2468	-0.041
Mof_H 	H 	0.8804	0.2609	0.2583	0.033
Mof_C 	C 	0.9679	0.251	0.2379	-0.034
Mof_H 	H 	0.9929	0.2797	0.2431	0.014
Mof_C 	C 	0.96	0.176	0.2125	0.011
Mof_H 	H 	0.9805	0.1539	0.1996	0.004
Mof_N 	N 	0.8687	0.0963	0.1148	-1.109
Mof_C 	C 	0.848	0.054	0.0801	0.011
Mof_H 	H 	0.8481	0.9903	0.0809	-0.314
Mof_C 	C 	0.8266	0.094	0.0436	-0.044
Mof_H 	H 	0.8123	0.0605	0.0197	0.025
Mof_C 	C 	0.8279	0.186	0.0448	0.108
Mof_C 	C 	0.8488	0.2317	0.0799	0.704
Mof_H 	H 	0.8489	0.2956	0.08	-0.175
Mof_C 	C 	0.8696	0.1857	0.115	0.064
Mof_H 	H 	0.8844	0.2173	0.1391	0.003
Mof_N 	N 	0.5784	0.128	0.8072	-0.087
Mof_C 	C 	0.554	0.1194	0.834	-0.147
Mof_H 	H 	0.5594	0.0722	0.8547	0.041
Mof_C 	C 	0.5217	0.1716	0.8347	-0.155
Mof_H 	H 	0.506	0.1599	0.8552	0.076
Mof_C 	C 	0.5122	0.241	0.8056	-0.012
Mof_C 	C 	0.5361	0.254	0.7766	-0.038
Mof_H 	H 	0.5308	0.2992	0.7551	0.035
Mof_C 	C 	0.5679	0.197	0.7802	-0.018
Mof_H 	H 	0.5848	0.2092	0.7608	0.012
_end
