data_functionalizedCrystal
_audit_creation_method	'EQeq! by Chris Wilmer'
_symmetry_space_group_name_H-M	'P1'
_symmetry_Int_Tables_number	1
_symmetry_cell_setting	triclinic
loop_
_symmetry_equiv_pos_as_xyz
  x,y,z
_cell_length_a	9.689
_cell_length_b	11.211
_cell_length_c	12.851
_cell_angle_alpha	90
_cell_angle_beta	90
_cell_angle_gamma	111.726
loop_
_atom_site_label
_atom_site_type_symbol
_atom_site_fract_x
_atom_site_fract_y
_atom_site_fract_z
_atom_site_charge
Mof_Tm	Tm	0.1447	0.3577	0.34758	1.602
Mof_Tm	Tm	0.3553	0.6423	0.84758	1.603
Mof_Tm	Tm	0.8553	0.6423	0.65242	1.603
Mof_Tm	Tm	0.6447	0.3577	0.15242	1.604
Mof_H 	H 	0.8476	0.999	0.4236	0.062
Mof_H 	H 	0.5158	0.9507	0.6862	0.075
Mof_H 	H 	0.5606	0.2621	0.5135	0.067
Mof_H 	H 	0.6524	0.001	0.9236	0.06
Mof_H 	H 	0.9842	0.0493	0.1862	0.078
Mof_H 	H 	0.9394	0.7379	0.0135	0.063
Mof_H 	H 	0.1524	0.001	0.5764	0.062
Mof_H 	H 	0.4842	0.0493	0.3138	0.075
Mof_H 	H 	0.4394	0.7379	0.4865	0.067
Mof_H 	H 	0.3476	0.999	0.0764	0.06
Mof_H 	H 	0.0158	0.9507	0.8138	0.078
Mof_H 	H 	0.0606	0.2621	0.9865	0.063
Mof_C 	C 	0.3448	0.144	0.5356	-0.054
Mof_C 	C 	0.2552	0.0288	0.5824	0.034
Mof_C 	C 	0.3184	0.9555	0.6378	-0.101
Mof_C 	C 	0.472	0.9979	0.6482	-0.028
Mof_C 	C 	0.5571	0.1106	0.6014	0.074
Mof_C 	C 	0.499	0.1861	0.5446	-0.057
Mof_C 	C 	0.2759	0.2221	0.4757	0.311
Mof_C 	C 	0.2228	0.8312	0.6879	0.484
Mof_C 	C 	0.9498	0.5056	0.4546	0.274
Mof_C 	C 	0.1552	0.856	0.0356	-0.057
Mof_C 	C 	0.2448	0.9712	0.0824	0.04
Mof_C 	C 	0.1816	0.0445	0.1378	-0.106
Mof_C 	C 	0.028	0.0021	0.1482	-0.031
Mof_C 	C 	0.9429	0.8894	0.1014	0.071
Mof_C 	C 	0.001	0.8139	0.0446	-0.049
Mof_C 	C 	0.2241	0.7779	0.9757	0.312
Mof_C 	C 	0.2772	0.1688	0.1879	0.485
Mof_C 	C 	0.5502	0.4944	0.9546	0.274
Mof_C 	C 	0.6552	0.856	0.4644	-0.054
Mof_C 	C 	0.7448	0.9712	0.4176	0.034
Mof_C 	C 	0.6816	0.0445	0.3622	-0.101
Mof_C 	C 	0.528	0.0021	0.3518	-0.028
Mof_C 	C 	0.4429	0.8894	0.3986	0.074
Mof_C 	C 	0.501	0.8139	0.4554	-0.057
Mof_C 	C 	0.7241	0.7779	0.5243	0.311
Mof_C 	C 	0.7772	0.1688	0.3121	0.484
Mof_C 	C 	0.0502	0.4944	0.5454	0.274
Mof_C 	C 	0.8448	0.144	0.9644	-0.057
Mof_C 	C 	0.7552	0.0288	0.9176	0.04
Mof_C 	C 	0.8184	0.9555	0.8622	-0.106
Mof_C 	C 	0.972	0.9979	0.8518	-0.031
Mof_C 	C 	0.0571	0.1106	0.8986	0.071
Mof_C 	C 	0.999	0.1861	0.9554	-0.049
Mof_C 	C 	0.7759	0.2221	0.0243	0.312
Mof_C 	C 	0.7228	0.8312	0.8121	0.485
Mof_C 	C 	0.4498	0.5056	0.0454	0.274
Mof_N 	N 	0.7211	0.1558	0.6111	-0.006
Mof_N 	N 	0.7789	0.8442	0.1111	-0.006
Mof_N 	N 	0.2789	0.8442	0.3889	-0.006
Mof_N 	N 	0.2211	0.1558	0.8889	-0.006
Mof_O 	O 	0.3602	0.3282	0.4353	-0.382
Mof_O 	O 	0.1381	0.1852	0.4677	-0.35
Mof_O 	O 	0.9141	0.1995	0.3159	-0.463
Mof_O 	O 	0.2874	0.7667	0.7314	-0.483
Mof_O 	O 	0.7724	0.0902	0.662	-0.118
Mof_O 	O 	0.7954	0.253	0.5669	-0.148
Mof_O 	O 	0.854	0.5517	0.4762	-0.377
Mof_O 	O 	0.9743	0.4683	0.3681	-0.413
Mof_O 	O 	0.1398	0.6718	0.9353	-0.383
Mof_O 	O 	0.3619	0.8148	0.9677	-0.35
Mof_O 	O 	0.5859	0.8005	0.8159	-0.465
Mof_O 	O 	0.2126	0.2333	0.2314	-0.484
Mof_O 	O 	0.7276	0.9098	0.162	-0.119
Mof_O 	O 	0.7046	0.747	0.0669	-0.149
Mof_O 	O 	0.646	0.4483	0.9762	-0.377
Mof_O 	O 	0.5257	0.5317	0.8681	-0.414
Mof_O 	O 	0.6398	0.6718	0.5647	-0.382
Mof_O 	O 	0.8619	0.8148	0.5323	-0.35
Mof_O 	O 	0.0859	0.8005	0.6841	-0.463
Mof_O 	O 	0.7126	0.2333	0.2686	-0.483
Mof_O 	O 	0.2276	0.9098	0.338	-0.118
Mof_O 	O 	0.2046	0.747	0.4331	-0.148
Mof_O 	O 	0.146	0.4483	0.5238	-0.377
Mof_O 	O 	0.0257	0.5317	0.6319	-0.413
Mof_O 	O 	0.8602	0.3282	0.0647	-0.383
Mof_O 	O 	0.6381	0.1852	0.0323	-0.35
Mof_O 	O 	0.4141	0.1995	0.1841	-0.465
Mof_O 	O 	0.7874	0.7667	0.7686	-0.484
Mof_O 	O 	0.2724	0.0902	0.838	-0.119
Mof_O 	O 	0.2954	0.253	0.9331	-0.149
Mof_O 	O 	0.354	0.5517	0.0238	-0.377
Mof_O 	O 	0.4743	0.4683	0.1319	-0.414
_end
