data_functionalizedCrystal
_audit_creation_method	'EQeq! by Chris Wilmer'
_symmetry_space_group_name_H-M	'P1'
_symmetry_Int_Tables_number	1
_symmetry_cell_setting	triclinic
loop_
_symmetry_equiv_pos_as_xyz
  x,y,z
_cell_length_a	21.6212
_cell_length_b	22.5502
_cell_length_c	26.2154
_cell_angle_alpha	115.474
_cell_angle_beta	114.354
_cell_angle_gamma	90
loop_
_atom_site_label
_atom_site_type_symbol
_atom_site_fract_x
_atom_site_fract_y
_atom_site_fract_z
_atom_site_charge
Mof_Zn	Zn	0.81288	0.75565	0.39018	1.223
Mof_Zn	Zn	0.86578	0.69057	0.60536	1.227
Mof_Zn	Zn	0.94823	0.64059	0.1004	1.222
Mof_Zn	Zn	0.5773	0.63453	0.39018	1.223
Mof_Zn	Zn	0.73958	0.91479	0.60536	1.227
Mof_Zn	Zn	0.15217	0.45981	0.1004	1.221
Mof_Zn	Zn	0.18712	0.36547	0.60982	1.222
Mof_Zn	Zn	0.13422	0.08521	0.39464	1.226
Mof_Zn	Zn	0.05177	0.54019	0.8996	1.221
Mof_Zn	Zn	0.4227	0.24435	0.60982	1.222
Mof_Zn	Zn	0.26042	0.30943	0.39464	1.226
Mof_Zn	Zn	0.84783	0.35941	0.8996	1.221
Mof_Mo	Mo	0.70238	0.60528	0.33466	1.222
Mof_Mo	Mo	0.72242	0.56724	0.45324	1.025
Mof_Mo	Mo	0.86866	0.64468	0.45442	0.972
Mof_Mo	Mo	0.93708	0.76687	0.54218	1.011
Mof_Mo	Mo	0.89528	0.86386	0.66072	1.194
Mof_Mo	Mo	0.68486	0.63526	0.54132	1.087
Mof_Mo	Mo	0.12695	0.625	0.16312	1.233
Mof_Mo	Mo	0.0674	0.67541	0.04628	1.051
Mof_Mo	Mo	0.86844	0.47618	0.0511	1.244
Mof_Mo	Mo	0.63228	0.72938	0.33466	1.222
Mof_Mo	Mo	0.73082	0.886	0.45324	1.025
Mof_Mo	Mo	0.58576	0.80974	0.45442	0.972
Mof_Mo	Mo	0.6051	0.77531	0.54218	1.011
Mof_Mo	Mo	0.76544	0.79686	0.66072	1.194
Mof_Mo	Mo	0.85646	0.90606	0.54132	1.087
Mof_Mo	Mo	0.03617	0.53812	0.16312	1.235
Mof_Mo	Mo	0.97888	0.37087	0.04628	1.045
Mof_Mo	Mo	0.18266	0.57492	0.0511	1.247
Mof_Mo	Mo	0.29762	0.27062	0.66534	1.222
Mof_Mo	Mo	0.27758	0.114	0.54676	1.025
Mof_Mo	Mo	0.13134	0.19026	0.54558	0.972
Mof_Mo	Mo	0.06292	0.22469	0.45782	1.011
Mof_Mo	Mo	0.10472	0.20314	0.33928	1.194
Mof_Mo	Mo	0.31514	0.09394	0.45868	1.087
Mof_Mo	Mo	0.87305	0.46188	0.83688	1.233
Mof_Mo	Mo	0.9326	0.62913	0.95372	1.05
Mof_Mo	Mo	0.13156	0.42508	0.9489	1.244
Mof_Mo	Mo	0.36772	0.39472	0.66534	1.222
Mof_Mo	Mo	0.26918	0.43276	0.54676	1.025
Mof_Mo	Mo	0.41424	0.35532	0.54558	0.972
Mof_Mo	Mo	0.3949	0.23313	0.45782	1.012
Mof_Mo	Mo	0.23456	0.13614	0.33928	1.194
Mof_Mo	Mo	0.14354	0.36474	0.45868	1.087
Mof_Mo	Mo	0.96383	0.375	0.83688	1.235
Mof_Mo	Mo	0.02112	0.32459	0.95372	1.044
Mof_Mo	Mo	0.81734	0.52382	0.9489	1.247
Mof_H 	H 	0.0106	0.9199	0.4236	-0.01
Mof_H 	H 	0.0372	0.8687	0.2742	-0.024
Mof_H 	H 	0.914	0.737	0.2662	-0.011
Mof_H 	H 	0.413	0.5037	0.4236	-0.012
Mof_H 	H 	0.237	0.4055	0.2742	-0.024
Mof_H 	H 	0.3522	0.5292	0.2662	-0.011
Mof_H 	H 	0.9894	0.4963	0.5764	-0.012
Mof_H 	H 	0.9628	0.5945	0.7258	-0.024
Mof_H 	H 	0.086	0.4708	0.7338	-0.011
Mof_H 	H 	0.587	0.0801	0.5764	-0.012
Mof_H 	H 	0.763	0.1313	0.7258	-0.024
Mof_H 	H 	0.6478	0.263	0.7338	-0.011
Mof_C 	C 	0.9505	0.8282	0.3472	-0.218
Mof_C 	C 	0.997	0.8911	0.3808	0.142
Mof_C 	C 	0.02021	0.90651	0.34722	-0.249
Mof_C 	C 	0.0098	0.8591	0.2904	0.167
Mof_C 	C 	0.9647	0.7985	0.2532	-0.231
Mof_C 	C 	0.9391	0.7806	0.285	0.13
Mof_C 	C 	0.91448	0.81138	0.37816	0.436
Mof_C 	C 	0.0654	0.9766	0.3822	0.467
Mof_C 	C 	0.9636	0.7517	0.1954	0.333
Mof_C 	C 	0.3967	0.519	0.3472	-0.219
Mof_C 	C 	0.3838	0.4897	0.3808	0.146
Mof_C 	C 	0.32701	0.44071	0.34722	-0.251
Mof_C 	C 	0.2806	0.4313	0.2904	0.166
Mof_C 	C 	0.2885	0.4547	0.2532	-0.231
Mof_C 	C 	0.3459	0.5044	0.285	0.131
Mof_C 	C 	0.46368	0.56678	0.37816	0.436
Mof_C 	C 	0.3168	0.4056	0.3822	0.467
Mof_C 	C 	0.2318	0.4437	0.1954	0.335
Mof_C 	C 	0.0495	0.481	0.6528	-0.218
Mof_C 	C 	0.003	0.5103	0.6192	0.145
Mof_C 	C 	0.97979	0.55929	0.65278	-0.251
Mof_C 	C 	0.9902	0.5687	0.7096	0.167
Mof_C 	C 	0.0353	0.5453	0.7468	-0.231
Mof_C 	C 	0.0609	0.4956	0.715	0.131
Mof_C 	C 	0.08552	0.43322	0.62184	0.436
Mof_C 	C 	0.9346	0.5944	0.6178	0.467
Mof_C 	C 	0.0364	0.5563	0.8046	0.334
Mof_C 	C 	0.6033	0.1718	0.6528	-0.219
Mof_C 	C 	0.6162	0.1089	0.6192	0.146
Mof_C 	C 	0.67299	0.09349	0.65278	-0.252
Mof_C 	C 	0.7194	0.1409	0.7096	0.167
Mof_C 	C 	0.7115	0.2015	0.7468	-0.231
Mof_C 	C 	0.6541	0.2194	0.715	0.131
Mof_C 	C 	0.53632	0.18862	0.62184	0.436
Mof_C 	C 	0.6832	0.0234	0.6178	0.468
Mof_C 	C 	0.7682	0.2483	0.8046	0.335
Mof_O 	O 	0.79696	0.60726	0.36312	-0.615
Mof_O 	O 	0.68344	0.54854	0.36228	-0.636
Mof_O 	O 	0.72485	0.69405	0.3425	-0.766
Mof_O 	O 	0.63851	0.60231	0.44942	-0.724
Mof_O 	O 	0.77304	0.62497	0.54388	-0.748
Mof_O 	O 	0.81977	0.56687	0.45694	-0.466
Mof_O 	O 	0.87951	0.72949	0.45102	-0.72
Mof_O 	O 	0.90147	0.69197	0.54854	-0.703
Mof_O 	O 	0.95653	0.81583	0.63226	-0.61
Mof_O 	O 	0.93689	0.85909	0.53778	-0.471
Mof_O 	O 	0.73614	0.70544	0.62988	-0.644
Mof_O 	O 	0.85504	0.77814	0.65248	-0.76
Mof_O 	O 	0.8567	0.7662	0.3406	-0.493
Mof_O 	O 	0.07339	0.99699	0.34738	-0.52
Mof_O 	O 	0.03427	0.61197	0.14654	-0.804
Mof_O 	O 	0.1114	0.6957	0.1358	-0.561
Mof_O 	O 	0.20167	0.60637	0.13614	-0.641
Mof_O 	O 	0.97915	0.65825	0.0461	-0.741
Mof_O 	O 	0.87253	0.55973	0.04166	-0.774
Mof_O 	O 	0.9155	0.6954	0.164	-0.453
Mof_O 	O 	0.008	0.7531	0.1774	-0.39
Mof_O 	O 	0.16193	0.65373	0.04946	-0.617
Mof_O 	O 	0.93524	0.84334	0.43028	-0.391
Mof_O 	O 	0.08855	0.00645	0.4357	-0.397
Mof_O 	O 	0.56616	0.75586	0.36312	-0.615
Mof_O 	O 	0.67884	0.81374	0.36228	-0.636
Mof_O 	O 	0.61765	0.64845	0.3425	-0.766
Mof_O 	O 	0.81091	0.84711	0.44942	-0.724
Mof_O 	O 	0.77084	0.91891	0.54388	-0.748
Mof_O 	O 	0.63717	0.89007	0.45694	-0.466
Mof_O 	O 	0.57151	0.72153	0.45102	-0.72
Mof_O 	O 	0.64707	0.85657	0.54854	-0.703
Mof_O 	O 	0.67573	0.81643	0.63226	-0.61
Mof_O 	O 	0.60089	0.67869	0.53778	-0.471
Mof_O 	O 	0.89374	0.92444	0.62988	-0.644
Mof_O 	O 	0.79744	0.87434	0.65248	-0.76
Mof_O 	O 	0.4839	0.5744	0.3406	-0.493
Mof_O 	O 	0.27399	0.35039	0.34738	-0.52
Mof_O 	O 	0.11227	0.53457	0.14654	-0.804
Mof_O 	O 	0.0244	0.4401	0.1358	-0.56
Mof_O 	O 	0.93447	0.52977	0.13614	-0.641
Mof_O 	O 	0.06695	0.38785	0.0461	-0.737
Mof_O 	O 	0.16913	0.48193	0.04166	-0.772
Mof_O 	O 	0.2485	0.4686	0.164	-0.453
Mof_O 	O 	0.1694	0.4243	0.1774	-0.391
Mof_O 	O 	0.88753	0.39573	0.04946	-0.616
Mof_O 	O 	0.49504	0.58694	0.43028	-0.391
Mof_O 	O 	0.34715	0.42925	0.4357	-0.397
Mof_O 	O 	0.20304	0.24414	0.63688	-0.615
Mof_O 	O 	0.31656	0.18626	0.63772	-0.636
Mof_O 	O 	0.27515	0.35155	0.6575	-0.766
Mof_O 	O 	0.36149	0.15289	0.55058	-0.724
Mof_O 	O 	0.22696	0.08109	0.45612	-0.748
Mof_O 	O 	0.18023	0.10993	0.54306	-0.466
Mof_O 	O 	0.12049	0.27847	0.54898	-0.72
Mof_O 	O 	0.09853	0.14343	0.45146	-0.703
Mof_O 	O 	0.04347	0.18357	0.36774	-0.61
Mof_O 	O 	0.06311	0.32131	0.46222	-0.471
Mof_O 	O 	0.26386	0.07556	0.37012	-0.644
Mof_O 	O 	0.14496	0.12566	0.34752	-0.76
Mof_O 	O 	0.1433	0.4256	0.6594	-0.493
Mof_O 	O 	0.92661	0.64961	0.65262	-0.52
Mof_O 	O 	0.96573	0.46543	0.85346	-0.804
Mof_O 	O 	0.8886	0.5599	0.8642	-0.561
Mof_O 	O 	0.79833	0.47023	0.86386	-0.641
Mof_O 	O 	0.02085	0.61215	0.9539	-0.741
Mof_O 	O 	0.12747	0.51807	0.95834	-0.774
Mof_O 	O 	0.0845	0.5314	0.836	-0.453
Mof_O 	O 	0.992	0.5757	0.8226	-0.39
Mof_O 	O 	0.83807	0.60427	0.95054	-0.617
Mof_O 	O 	0.06476	0.41306	0.56972	-0.391
Mof_O 	O 	0.91145	0.57075	0.5643	-0.396
Mof_O 	O 	0.43384	0.39274	0.63688	-0.615
Mof_O 	O 	0.32116	0.45146	0.63772	-0.636
Mof_O 	O 	0.38235	0.30595	0.6575	-0.766
Mof_O 	O 	0.18909	0.39769	0.55058	-0.724
Mof_O 	O 	0.22916	0.37503	0.45612	-0.748
Mof_O 	O 	0.36283	0.43313	0.54306	-0.466
Mof_O 	O 	0.42849	0.27051	0.54898	-0.72
Mof_O 	O 	0.35293	0.30803	0.45146	-0.703
Mof_O 	O 	0.32427	0.18417	0.36774	-0.61
Mof_O 	O 	0.39911	0.14091	0.46222	-0.471
Mof_O 	O 	0.10626	0.29456	0.37012	-0.644
Mof_O 	O 	0.20256	0.22186	0.34752	-0.76
Mof_O 	O 	0.5161	0.2338	0.6594	-0.493
Mof_O 	O 	0.72601	0.00301	0.65262	-0.52
Mof_O 	O 	0.88773	0.38803	0.85346	-0.804
Mof_O 	O 	0.9756	0.3043	0.8642	-0.56
Mof_O 	O 	0.06553	0.39363	0.86386	-0.641
Mof_O 	O 	0.93305	0.34175	0.9539	-0.737
Mof_O 	O 	0.83087	0.44027	0.95834	-0.772
Mof_O 	O 	0.7515	0.3046	0.836	-0.453
Mof_O 	O 	0.8306	0.2469	0.8226	-0.391
Mof_O 	O 	0.11247	0.34627	0.95054	-0.616
Mof_O 	O 	0.50496	0.15666	0.56972	-0.391
Mof_O 	O 	0.65285	0.99355	0.5643	-0.398
_end
