data_functionalizedCrystal
_audit_creation_method	'EQeq! by Chris Wilmer'
_symmetry_space_group_name_H-M	'P1'
_symmetry_Int_Tables_number	1
_symmetry_cell_setting	triclinic
loop_
_symmetry_equiv_pos_as_xyz
  x,y,z
_cell_length_a	28.012
_cell_length_b	13.7873
_cell_length_c	45.388
_cell_angle_alpha	90
_cell_angle_beta	90
_cell_angle_gamma	90
loop_
_atom_site_label
_atom_site_type_symbol
_atom_site_fract_x
_atom_site_fract_y
_atom_site_fract_z
_atom_site_charge
Mof_Zn	Zn	0.75855	0.14902	0.31193	1.158
Mof_Zn	Zn	0.94373	0.15501	0.57251	1.158
Mof_Zn	Zn	0.97287	0.35557	0.41418	1.167
Mof_I 	I 	0.00974	0.07314	0.60115	-0.48
Mof_I 	I 	0.99062	0.28193	0.46452	-0.393
Mof_I 	I 	0.80195	0.31041	0.3057	-0.047
Mof_I 	I 	0.93805	0.33633	0.56141	-0.405
Mof_I 	I 	0.92404	0.27347	0.37454	-0.265
Mof_I 	I 	0.67112	0.14545	0.32623	-0.433
Mof_C 	C 	0.9234	0.5382	0.39882	0.036
Mof_H 	H 	0.9206	0.5065	0.3803	0.122
Mof_C 	C 	0.9061	0.6313	0.40168	-0.071
Mof_H 	H 	0.8918	0.6631	0.3854	0.089
Mof_C 	C 	0.9463	0.5357	0.44718	0.065
Mof_H 	H 	0.9595	0.5015	0.4634	-0
Mof_C 	C 	0.9305	0.6296	0.45158	-0.107
Mof_H 	H 	0.9339	0.6599	0.4703	0.082
Mof_C 	C 	0.9099	0.6781	0.42839	0.03
Mof_C 	C 	0.8944	0.7805	0.43183	0.103
Mof_C 	C 	0.9468	0.9913	0.53044	0.07
Mof_H 	H 	0.9652	0.9634	0.5458	-0.012
Mof_C 	C 	0.9356	0.934	0.50612	-0.121
Mof_H 	H 	0.9461	0.8687	0.5048	0.088
Mof_C 	C 	0.9078	0.1234	0.51123	0.067
Mof_H 	H 	0.8983	0.1893	0.5131	-0.008
Mof_C 	C 	0.8954	0.0736	0.48659	-0.114
Mof_H 	H 	0.8779	0.1051	0.4714	0.075
Mof_C 	C 	0.9082	0.9762	0.48349	0.048
Mof_C 	C 	0.8946	0.9199	0.45743	0.1
Mof_C 	C 	0.818	0.1141	0.36374	0.054
Mof_H 	H 	0.8184	0.183	0.3637	-0.004
Mof_C 	C 	0.8398	0.0665	0.38663	-0.126
Mof_H 	H 	0.8546	0.1019	0.4021	0.083
Mof_C 	C 	0.7968	0.972	0.34201	0.069
Mof_H 	H 	0.7815	0.9379	0.3265	-0.024
Mof_C 	C 	0.8186	0.919	0.36413	-0.148
Mof_H 	H 	0.8186	0.8501	0.3635	0.08
Mof_C 	C 	0.8401	0.9667	0.38681	0.055
Mof_C 	C 	0.862	0.915	0.41178	0.099
Mof_C 	C 	0.7307	0.0339	0.25972	0.058
Mof_H 	H 	0.7008	0.0315	0.2696	-0.011
Mof_C 	C 	0.735	0.9947	0.23128	-0.111
Mof_H 	H 	0.7081	0.966	0.2219	0.072
Mof_C 	C 	0.8101	0.0765	0.25965	0.088
Mof_H 	H 	0.8366	0.1049	0.2695	0.053
Mof_C 	C 	0.8164	0.0383	0.23138	-0.097
Mof_H 	H 	0.8468	0.0399	0.2221	0.131
Mof_C 	C 	0.7775	0.998	0.21735	0.057
Mof_C 	C 	0.7822	0.9634	0.18634	0.116
Mof_C 	C 	0.9587	0.8985	0.13469	0.078
Mof_H 	H 	0.9871	0.8964	0.1461	-0.01
Mof_C 	C 	0.9158	0.9128	0.14938	-0.123
Mof_H 	H 	0.9149	0.9217	0.1701	0.093
Mof_C 	C 	0.9222	0.8904	0.08971	0.068
Mof_H 	H 	0.9243	0.8837	0.0689	-0.008
Mof_C 	C 	0.878	0.9027	0.10244	-0.117
Mof_H 	H 	0.8502	0.9036	0.0905	0.079
Mof_C 	C 	0.8742	0.9137	0.13266	0.059
Mof_C 	C 	0.8267	0.9267	0.14681	0.107
Mof_C 	C 	0.6612	0.8678	0.08218	0.067
Mof_H 	H 	0.6622	0.8481	0.0621	-0.02
Mof_C 	C 	0.7039	0.8827	0.09676	-0.12
Mof_H 	H 	0.7335	0.8744	0.0869	0.077
Mof_C 	C 	0.6176	0.9078	0.12322	0.066
Mof_H 	H 	0.5875	0.9174	0.1324	-0.061
Mof_C 	C 	0.6582	0.9231	0.13937	-0.129
Mof_H 	H 	0.6559	0.9424	0.1594	0.069
Mof_C 	C 	0.7024	0.9104	0.12642	0.053
Mof_C 	C 	0.7468	0.9246	0.14329	0.103
Mof_N 	N 	0.9438	0.4909	0.4211	-0.255
Mof_N 	N 	0.933	0.0826	0.53315	-0.272
Mof_N 	N 	0.7963	0.0687	0.34152	-0.282
Mof_N 	N 	0.9067	0.8261	0.45639	-0.144
Mof_N 	N 	0.8728	0.9684	0.43555	-0.136
Mof_N 	N 	0.8712	0.8202	0.4089	-0.14
Mof_N 	N 	0.7679	0.0742	0.27303	-0.274
Mof_N 	N 	0.9624	0.8875	0.10572	-0.27
Mof_N 	N 	0.6186	0.8797	0.09487	-0.282
Mof_N 	N 	0.826	0.9534	0.17522	-0.128
Mof_N 	N 	0.7884	0.9123	0.12991	-0.139
Mof_N 	N 	0.7416	0.9503	0.17186	-0.142
Mof_Zn	Zn	0.74145	0.85098	0.81193	1.159
Mof_Zn	Zn	0.55627	0.84499	0.07251	1.158
Mof_Zn	Zn	0.52713	0.64443	0.91418	1.168
Mof_I 	I 	0.49026	0.92686	0.10115	-0.484
Mof_I 	I 	0.50938	0.71807	0.96452	-0.392
Mof_I 	I 	0.69805	0.68959	0.8057	-0.029
Mof_I 	I 	0.56195	0.66367	0.06141	-0.405
Mof_I 	I 	0.57596	0.72653	0.87454	-0.258
Mof_I 	I 	0.82888	0.85455	0.82623	-0.442
Mof_C 	C 	0.5766	0.4618	0.89882	0.035
Mof_H 	H 	0.5794	0.4935	0.8803	0.129
Mof_C 	C 	0.5939	0.3687	0.90168	-0.068
Mof_H 	H 	0.6082	0.3369	0.8854	0.089
Mof_C 	C 	0.5537	0.4643	0.94718	0.064
Mof_H 	H 	0.5405	0.4985	0.9634	-0
Mof_C 	C 	0.5695	0.3704	0.95158	-0.106
Mof_H 	H 	0.5661	0.3401	0.9703	0.081
Mof_C 	C 	0.5901	0.3219	0.92839	0.029
Mof_C 	C 	0.6056	0.2195	0.93183	0.103
Mof_C 	C 	0.5532	0.0087	0.03044	0.07
Mof_H 	H 	0.5348	0.0366	0.0458	-0.012
Mof_C 	C 	0.5644	0.066	0.00612	-0.121
Mof_H 	H 	0.5539	0.1313	0.0048	0.088
Mof_C 	C 	0.5922	0.8766	0.01123	0.066
Mof_H 	H 	0.6017	0.8107	0.0131	-0.008
Mof_C 	C 	0.6046	0.9264	0.98659	-0.113
Mof_H 	H 	0.6221	0.8949	0.9714	0.075
Mof_C 	C 	0.5918	0.0238	0.98349	0.047
Mof_C 	C 	0.6054	0.0801	0.95743	0.1
Mof_C 	C 	0.682	0.8859	0.86374	0.054
Mof_H 	H 	0.6816	0.817	0.8637	-0.003
Mof_C 	C 	0.6602	0.9335	0.88663	-0.126
Mof_H 	H 	0.6454	0.8981	0.9021	0.083
Mof_C 	C 	0.7032	0.028	0.84201	0.069
Mof_H 	H 	0.7185	0.0621	0.8265	-0.024
Mof_C 	C 	0.6814	0.081	0.86413	-0.148
Mof_H 	H 	0.6814	0.1499	0.8635	0.08
Mof_C 	C 	0.6599	0.0333	0.88681	0.054
Mof_C 	C 	0.638	0.085	0.91178	0.099
Mof_C 	C 	0.7693	0.9661	0.75972	0.065
Mof_H 	H 	0.7992	0.9685	0.7696	-0.026
Mof_C 	C 	0.765	0.0053	0.73128	-0.123
Mof_H 	H 	0.7919	0.034	0.7219	0.08
Mof_C 	C 	0.6899	0.9235	0.75965	0.091
Mof_H 	H 	0.6634	0.8951	0.7695	0.057
Mof_C 	C 	0.6836	0.9617	0.73138	-0.099
Mof_H 	H 	0.6532	0.9601	0.7221	0.132
Mof_C 	C 	0.7225	0.002	0.71735	0.062
Mof_C 	C 	0.7178	0.0366	0.68634	0.115
Mof_C 	C 	0.5413	0.1015	0.63469	0.079
Mof_H 	H 	0.5129	0.1036	0.6461	-0.017
Mof_C 	C 	0.5842	0.0872	0.64938	-0.125
Mof_H 	H 	0.5851	0.0783	0.6701	0.089
Mof_C 	C 	0.5778	0.1096	0.58971	0.068
Mof_H 	H 	0.5757	0.1163	0.5689	-0.008
Mof_C 	C 	0.622	0.0973	0.60244	-0.117
Mof_H 	H 	0.6498	0.0964	0.5905	0.079
Mof_C 	C 	0.6258	0.0863	0.63266	0.059
Mof_C 	C 	0.6733	0.0733	0.64681	0.107
Mof_C 	C 	0.8388	0.1322	0.58218	0.068
Mof_H 	H 	0.8378	0.1519	0.5621	-0.02
Mof_C 	C 	0.7961	0.1173	0.59676	-0.122
Mof_H 	H 	0.7665	0.1256	0.5869	0.077
Mof_C 	C 	0.8824	0.0922	0.62322	0.07
Mof_H 	H 	0.9125	0.0826	0.6324	-0.058
Mof_C 	C 	0.8418	0.0769	0.63937	-0.134
Mof_H 	H 	0.8441	0.0576	0.6594	0.082
Mof_C 	C 	0.7976	0.0896	0.62642	0.057
Mof_C 	C 	0.7532	0.0754	0.64329	0.103
Mof_N 	N 	0.5562	0.5091	0.9211	-0.254
Mof_N 	N 	0.567	0.9174	0.03315	-0.272
Mof_N 	N 	0.7037	0.9313	0.84152	-0.282
Mof_N 	N 	0.5933	0.1739	0.95639	-0.144
Mof_N 	N 	0.6272	0.0316	0.93555	-0.136
Mof_N 	N 	0.6288	0.1798	0.9089	-0.14
Mof_N 	N 	0.7321	0.9258	0.77303	-0.276
Mof_N 	N 	0.5376	0.1125	0.60572	-0.271
Mof_N 	N 	0.8814	0.1203	0.59487	-0.282
Mof_N 	N 	0.674	0.0466	0.67522	-0.129
Mof_N 	N 	0.7116	0.0877	0.62991	-0.139
Mof_N 	N 	0.7584	0.0497	0.67186	-0.14
Mof_Zn	Zn	0.24145	0.64902	0.18807	1.164
Mof_Zn	Zn	0.05627	0.65501	0.92749	1.163
Mof_Zn	Zn	0.02713	0.85557	0.08582	1.164
Mof_I 	I 	0.99026	0.57314	0.89885	-0.37
Mof_I 	I 	0.00938	0.78193	0.03548	-0.391
Mof_I 	I 	0.19805	0.81041	0.1943	-0.409
Mof_I 	I 	0.06195	0.83633	0.93859	-0.393
Mof_I 	I 	0.07596	0.77347	0.12546	-0.375
Mof_I 	I 	0.32888	0.64545	0.17377	-0.661
Mof_C 	C 	0.0766	0.0382	0.10118	0.072
Mof_H 	H 	0.0794	0.0065	0.1197	-0.006
Mof_C 	C 	0.0939	0.1313	0.09832	-0.125
Mof_H 	H 	0.1082	0.1631	0.1146	0.091
Mof_C 	C 	0.0537	0.0357	0.05282	0.074
Mof_H 	H 	0.0405	0.0015	0.0366	-0.004
Mof_C 	C 	0.0695	0.1296	0.04842	-0.125
Mof_H 	H 	0.0661	0.1599	0.0297	0.087
Mof_C 	C 	0.0901	0.1781	0.07161	0.054
Mof_C 	C 	0.1056	0.2805	0.06817	0.096
Mof_C 	C 	0.0532	0.4913	0.96956	0.07
Mof_H 	H 	0.0348	0.4634	0.9542	-0.014
Mof_C 	C 	0.0644	0.434	0.99388	-0.122
Mof_H 	H 	0.0539	0.3687	0.9952	0.088
Mof_C 	C 	0.0922	0.6234	0.98877	0.067
Mof_H 	H 	0.1017	0.6893	0.9869	-0.008
Mof_C 	C 	0.1046	0.5736	0.01341	-0.114
Mof_H 	H 	0.1221	0.6051	0.0286	0.076
Mof_C 	C 	0.0918	0.4762	0.01651	0.047
Mof_C 	C 	0.1054	0.4199	0.04257	0.099
Mof_C 	C 	0.182	0.6141	0.13626	0.066
Mof_H 	H 	0.1816	0.683	0.1363	-0.007
Mof_C 	C 	0.1602	0.5665	0.11337	-0.117
Mof_H 	H 	0.1454	0.6019	0.0979	0.087
Mof_C 	C 	0.2032	0.472	0.15799	0.069
Mof_H 	H 	0.2185	0.4379	0.1735	-0.026
Mof_C 	C 	0.1814	0.419	0.13587	-0.144
Mof_H 	H 	0.1814	0.3501	0.1365	0.076
Mof_C 	C 	0.1599	0.4667	0.11319	0.061
Mof_C 	C 	0.138	0.415	0.08822	0.102
Mof_C 	C 	0.2693	0.5339	0.24028	0.236
Mof_H 	H 	0.2992	0.5315	0.2304	-0.378
Mof_C 	C 	0.265	0.4947	0.26872	-0.423
Mof_H 	H 	0.2919	0.466	0.2781	0.25
Mof_C 	C 	0.1899	0.5765	0.24035	0.138
Mof_H 	H 	0.1634	0.6049	0.2305	-0.057
Mof_C 	C 	0.1836	0.5383	0.26862	-0.252
Mof_H 	H 	0.1532	0.5399	0.2779	0.163
Mof_C 	C 	0.2225	0.498	0.28265	0.234
Mof_C 	C 	0.2178	0.4634	0.31366	0.062
Mof_C 	C 	0.0413	0.3985	0.36531	0.07
Mof_H 	H 	0.0129	0.3964	0.3539	0.128
Mof_C 	C 	0.0842	0.4128	0.35062	-0.092
Mof_H 	H 	0.0851	0.4217	0.3299	0.171
Mof_C 	C 	0.0778	0.3904	0.41029	0.066
Mof_H 	H 	0.0757	0.3837	0.4311	-0.006
Mof_C 	C 	0.122	0.4027	0.39756	-0.111
Mof_H 	H 	0.1498	0.4036	0.4095	0.077
Mof_C 	C 	0.1258	0.4137	0.36734	0.056
Mof_C 	C 	0.1733	0.4267	0.35319	0.111
Mof_C 	C 	0.3388	0.3678	0.41782	0.101
Mof_H 	H 	0.3378	0.3481	0.4379	-0.03
Mof_C 	C 	0.2961	0.3827	0.40324	-0.17
Mof_H 	H 	0.2665	0.3744	0.4131	0.093
Mof_C 	C 	0.3824	0.4078	0.37678	0.174
Mof_H 	H 	0.4125	0.4174	0.3676	0.017
Mof_C 	C 	0.3418	0.4231	0.36063	-0.248
Mof_H 	H 	0.3441	0.4424	0.3406	0.376
Mof_C 	C 	0.2976	0.4104	0.37358	0.142
Mof_C 	C 	0.2532	0.4246	0.35671	0.088
Mof_N 	N 	0.0562	0.9909	0.0789	-0.274
Mof_N 	N 	0.067	0.5826	0.96685	-0.273
Mof_N 	N 	0.2037	0.5687	0.15848	-0.28
Mof_N 	N 	0.0933	0.3261	0.04361	-0.143
Mof_N 	N 	0.1272	0.4684	0.06445	-0.135
Mof_N 	N 	0.1288	0.3202	0.0911	-0.137
Mof_N 	N 	0.2321	0.5742	0.22697	-0.333
Mof_N 	N 	0.0376	0.3875	0.39428	-0.258
Mof_N 	N 	0.3814	0.3797	0.40513	-0.295
Mof_N 	N 	0.174	0.4534	0.32478	-0.114
Mof_N 	N 	0.2116	0.4123	0.37009	-0.137
Mof_N 	N 	0.2584	0.4503	0.32814	-0.08
Mof_Zn	Zn	0.25855	0.35098	0.68807	1.164
Mof_Zn	Zn	0.44373	0.34499	0.42749	1.163
Mof_Zn	Zn	0.47287	0.14443	0.58582	1.164
Mof_I 	I 	0.50974	0.42686	0.39885	-0.365
Mof_I 	I 	0.49062	0.21807	0.53548	-0.391
Mof_I 	I 	0.30195	0.18959	0.6943	-0.425
Mof_I 	I 	0.43805	0.16367	0.43859	-0.392
Mof_I 	I 	0.42404	0.22653	0.62546	-0.38
Mof_I 	I 	0.17112	0.35455	0.67377	-0.651
Mof_C 	C 	0.4234	0.9618	0.60118	0.073
Mof_H 	H 	0.4206	0.9935	0.6197	-0.012
Mof_C 	C 	0.4061	0.8687	0.59832	-0.127
Mof_H 	H 	0.3918	0.8369	0.6146	0.09
Mof_C 	C 	0.4463	0.9643	0.55282	0.074
Mof_H 	H 	0.4595	0.9985	0.5366	-0.004
Mof_C 	C 	0.4305	0.8704	0.54842	-0.126
Mof_H 	H 	0.4339	0.8401	0.5297	0.087
Mof_C 	C 	0.4099	0.8219	0.57161	0.055
Mof_C 	C 	0.3944	0.7195	0.56817	0.096
Mof_C 	C 	0.4468	0.5087	0.46956	0.07
Mof_H 	H 	0.4652	0.5366	0.4542	-0.014
Mof_C 	C 	0.4356	0.566	0.49388	-0.122
Mof_H 	H 	0.4461	0.6313	0.4952	0.088
Mof_C 	C 	0.4078	0.3766	0.48877	0.067
Mof_H 	H 	0.3983	0.3107	0.4869	-0.008
Mof_C 	C 	0.3954	0.4264	0.51341	-0.114
Mof_H 	H 	0.3779	0.3949	0.5286	0.076
Mof_C 	C 	0.4082	0.5238	0.51651	0.047
Mof_C 	C 	0.3946	0.5801	0.54257	0.099
Mof_C 	C 	0.318	0.3859	0.63626	0.066
Mof_H 	H 	0.3184	0.317	0.6363	-0.007
Mof_C 	C 	0.3398	0.4335	0.61337	-0.116
Mof_H 	H 	0.3546	0.3981	0.5979	0.087
Mof_C 	C 	0.2968	0.528	0.65799	0.068
Mof_H 	H 	0.2815	0.5621	0.6735	-0.026
Mof_C 	C 	0.3186	0.581	0.63587	-0.143
Mof_H 	H 	0.3186	0.6499	0.6365	0.076
Mof_C 	C 	0.3401	0.5333	0.61319	0.061
Mof_C 	C 	0.362	0.585	0.58822	0.102
Mof_C 	C 	0.2307	0.4661	0.74028	0.229
Mof_H 	H 	0.2008	0.4685	0.7304	-0.362
Mof_C 	C 	0.235	0.5053	0.76872	-0.411
Mof_H 	H 	0.2081	0.534	0.7781	0.243
Mof_C 	C 	0.3101	0.4235	0.74035	0.136
Mof_H 	H 	0.3366	0.3951	0.7305	-0.06
Mof_C 	C 	0.3164	0.4617	0.76862	-0.25
Mof_H 	H 	0.3468	0.4601	0.7779	0.162
Mof_C 	C 	0.2775	0.502	0.78265	0.228
Mof_C 	C 	0.2822	0.5366	0.81366	0.063
Mof_C 	C 	0.4587	0.6015	0.86531	0.069
Mof_H 	H 	0.4871	0.6036	0.8539	0.135
Mof_C 	C 	0.4158	0.5872	0.85062	-0.091
Mof_H 	H 	0.4149	0.5783	0.8299	0.174
Mof_C 	C 	0.4222	0.6096	0.91029	0.066
Mof_H 	H 	0.4243	0.6163	0.9311	-0.006
Mof_C 	C 	0.378	0.5973	0.89756	-0.11
Mof_H 	H 	0.3502	0.5964	0.9095	0.077
Mof_C 	C 	0.3742	0.5863	0.86734	0.057
Mof_C 	C 	0.3267	0.5733	0.85319	0.112
Mof_C 	C 	0.1612	0.6322	0.91782	0.099
Mof_H 	H 	0.1622	0.6519	0.9379	-0.03
Mof_C 	C 	0.2039	0.6173	0.90324	-0.167
Mof_H 	H 	0.2335	0.6256	0.9131	0.092
Mof_C 	C 	0.1176	0.5922	0.87678	0.169
Mof_H 	H 	0.0875	0.5826	0.8676	0.014
Mof_C 	C 	0.1582	0.5769	0.86063	-0.243
Mof_H 	H 	0.1559	0.5576	0.8406	0.362
Mof_C 	C 	0.2024	0.5896	0.87358	0.138
Mof_C 	C 	0.2468	0.5754	0.85671	0.089
Mof_N 	N 	0.4438	0.0091	0.5789	-0.275
Mof_N 	N 	0.433	0.4174	0.46685	-0.273
Mof_N 	N 	0.2963	0.4313	0.65848	-0.28
Mof_N 	N 	0.4067	0.6739	0.54361	-0.143
Mof_N 	N 	0.3728	0.5316	0.56445	-0.135
Mof_N 	N 	0.3712	0.6798	0.5911	-0.136
Mof_N 	N 	0.2679	0.4258	0.72697	-0.332
Mof_N 	N 	0.4624	0.6125	0.89428	-0.258
Mof_N 	N 	0.1186	0.6203	0.90513	-0.294
Mof_N 	N 	0.326	0.5466	0.82478	-0.114
Mof_N 	N 	0.2884	0.5877	0.87009	-0.137
Mof_N 	N 	0.2416	0.5497	0.82814	-0.083
Mof_Zn	Zn	0.24145	0.85098	0.68807	1.159
Mof_Zn	Zn	0.05627	0.84499	0.42749	1.159
Mof_Zn	Zn	0.02713	0.64443	0.58582	1.168
Mof_I 	I 	0.99026	0.92686	0.39885	-0.479
Mof_I 	I 	0.00938	0.71807	0.53548	-0.392
Mof_I 	I 	0.19805	0.68959	0.6943	-0.046
Mof_I 	I 	0.06195	0.66367	0.43859	-0.404
Mof_I 	I 	0.07596	0.72653	0.62546	-0.264
Mof_I 	I 	0.32888	0.85455	0.67377	-0.432
Mof_C 	C 	0.0766	0.4618	0.60118	0.037
Mof_H 	H 	0.0794	0.4935	0.6197	0.123
Mof_C 	C 	0.0939	0.3687	0.59832	-0.07
Mof_H 	H 	0.1082	0.3369	0.6146	0.089
Mof_C 	C 	0.0537	0.4643	0.55282	0.065
Mof_H 	H 	0.0405	0.4985	0.5366	-0
Mof_C 	C 	0.0695	0.3704	0.54842	-0.107
Mof_H 	H 	0.0661	0.3401	0.5297	0.082
Mof_C 	C 	0.0901	0.3219	0.57161	0.03
Mof_C 	C 	0.1056	0.2195	0.56817	0.103
Mof_C 	C 	0.0532	0.0087	0.46956	0.07
Mof_H 	H 	0.0348	0.0366	0.4542	-0.012
Mof_C 	C 	0.0644	0.066	0.49388	-0.121
Mof_H 	H 	0.0539	0.1313	0.4952	0.088
Mof_C 	C 	0.0922	0.8766	0.48877	0.067
Mof_H 	H 	0.1017	0.8107	0.4869	-0.008
Mof_C 	C 	0.1046	0.9264	0.51341	-0.114
Mof_H 	H 	0.1221	0.8949	0.5286	0.075
Mof_C 	C 	0.0918	0.0238	0.51651	0.048
Mof_C 	C 	0.1054	0.0801	0.54257	0.1
Mof_C 	C 	0.182	0.8859	0.63626	0.054
Mof_H 	H 	0.1816	0.817	0.6363	-0.004
Mof_C 	C 	0.1602	0.9335	0.61337	-0.126
Mof_H 	H 	0.1454	0.8981	0.5979	0.083
Mof_C 	C 	0.2032	0.028	0.65799	0.069
Mof_H 	H 	0.2185	0.0621	0.6735	-0.024
Mof_C 	C 	0.1814	0.081	0.63587	-0.148
Mof_H 	H 	0.1814	0.1499	0.6365	0.08
Mof_C 	C 	0.1599	0.0333	0.61319	0.055
Mof_C 	C 	0.138	0.085	0.58822	0.099
Mof_C 	C 	0.2693	0.9661	0.74028	0.058
Mof_H 	H 	0.2992	0.9685	0.7304	-0.011
Mof_C 	C 	0.265	0.0053	0.76872	-0.111
Mof_H 	H 	0.2919	0.034	0.7781	0.072
Mof_C 	C 	0.1899	0.9235	0.74035	0.088
Mof_H 	H 	0.1634	0.8951	0.7305	0.053
Mof_C 	C 	0.1836	0.9617	0.76862	-0.097
Mof_H 	H 	0.1532	0.9601	0.7779	0.131
Mof_C 	C 	0.2225	0.002	0.78265	0.057
Mof_C 	C 	0.2178	0.0366	0.81366	0.116
Mof_C 	C 	0.0413	0.1015	0.86531	0.078
Mof_H 	H 	0.0129	0.1036	0.8539	-0.01
Mof_C 	C 	0.0842	0.0872	0.85062	-0.123
Mof_H 	H 	0.0851	0.0783	0.8299	0.093
Mof_C 	C 	0.0778	0.1096	0.91029	0.068
Mof_H 	H 	0.0757	0.1163	0.9311	-0.008
Mof_C 	C 	0.122	0.0973	0.89756	-0.117
Mof_H 	H 	0.1498	0.0964	0.9095	0.079
Mof_C 	C 	0.1258	0.0863	0.86734	0.059
Mof_C 	C 	0.1733	0.0733	0.85319	0.107
Mof_C 	C 	0.3388	0.1322	0.91782	0.067
Mof_H 	H 	0.3378	0.1519	0.9379	-0.02
Mof_C 	C 	0.2961	0.1173	0.90324	-0.12
Mof_H 	H 	0.2665	0.1256	0.9131	0.077
Mof_C 	C 	0.3824	0.0922	0.87678	0.066
Mof_H 	H 	0.4125	0.0826	0.8676	-0.061
Mof_C 	C 	0.3418	0.0769	0.86063	-0.129
Mof_H 	H 	0.3441	0.0576	0.8406	0.069
Mof_C 	C 	0.2976	0.0896	0.87358	0.053
Mof_C 	C 	0.2532	0.0754	0.85671	0.103
Mof_N 	N 	0.0562	0.5091	0.5789	-0.255
Mof_N 	N 	0.067	0.9174	0.46685	-0.272
Mof_N 	N 	0.2037	0.9313	0.65848	-0.282
Mof_N 	N 	0.0933	0.1739	0.54361	-0.144
Mof_N 	N 	0.1272	0.0316	0.56445	-0.136
Mof_N 	N 	0.1288	0.1798	0.5911	-0.14
Mof_N 	N 	0.2321	0.9258	0.72697	-0.274
Mof_N 	N 	0.0376	0.1125	0.89428	-0.27
Mof_N 	N 	0.3814	0.1203	0.90513	-0.282
Mof_N 	N 	0.174	0.0466	0.82478	-0.128
Mof_N 	N 	0.2116	0.0877	0.87009	-0.139
Mof_N 	N 	0.2584	0.0497	0.82814	-0.142
Mof_Zn	Zn	0.25855	0.14902	0.18807	1.159
Mof_Zn	Zn	0.44373	0.15501	0.92749	1.158
Mof_Zn	Zn	0.47287	0.35557	0.08582	1.168
Mof_I 	I 	0.50974	0.07314	0.89885	-0.484
Mof_I 	I 	0.49062	0.28193	0.03548	-0.392
Mof_I 	I 	0.30195	0.31041	0.1943	-0.029
Mof_I 	I 	0.43805	0.33633	0.93859	-0.405
Mof_I 	I 	0.42404	0.27347	0.12546	-0.258
Mof_I 	I 	0.17112	0.14545	0.17377	-0.442
Mof_C 	C 	0.4234	0.5382	0.10118	0.035
Mof_H 	H 	0.4206	0.5065	0.1197	0.129
Mof_C 	C 	0.4061	0.6313	0.09832	-0.068
Mof_H 	H 	0.3918	0.6631	0.1146	0.089
Mof_C 	C 	0.4463	0.5357	0.05282	0.064
Mof_H 	H 	0.4595	0.5015	0.0366	-0
Mof_C 	C 	0.4305	0.6296	0.04842	-0.106
Mof_H 	H 	0.4339	0.6599	0.0297	0.081
Mof_C 	C 	0.4099	0.6781	0.07161	0.029
Mof_C 	C 	0.3944	0.7805	0.06817	0.103
Mof_C 	C 	0.4468	0.9913	0.96956	0.07
Mof_H 	H 	0.4652	0.9634	0.9542	-0.012
Mof_C 	C 	0.4356	0.934	0.99388	-0.121
Mof_H 	H 	0.4461	0.8687	0.9952	0.088
Mof_C 	C 	0.4078	0.1234	0.98877	0.066
Mof_H 	H 	0.3983	0.1893	0.9869	-0.008
Mof_C 	C 	0.3954	0.0736	0.01341	-0.113
Mof_H 	H 	0.3779	0.1051	0.0286	0.075
Mof_C 	C 	0.4082	0.9762	0.01651	0.047
Mof_C 	C 	0.3946	0.9199	0.04257	0.1
Mof_C 	C 	0.318	0.1141	0.13626	0.054
Mof_H 	H 	0.3184	0.183	0.1363	-0.003
Mof_C 	C 	0.3398	0.0665	0.11337	-0.126
Mof_H 	H 	0.3546	0.1019	0.0979	0.083
Mof_C 	C 	0.2968	0.972	0.15799	0.069
Mof_H 	H 	0.2815	0.9379	0.1735	-0.024
Mof_C 	C 	0.3186	0.919	0.13587	-0.148
Mof_H 	H 	0.3186	0.8501	0.1365	0.08
Mof_C 	C 	0.3401	0.9667	0.11319	0.054
Mof_C 	C 	0.362	0.915	0.08822	0.099
Mof_C 	C 	0.2307	0.0339	0.24028	0.065
Mof_H 	H 	0.2008	0.0315	0.2304	-0.026
Mof_C 	C 	0.235	0.9947	0.26872	-0.123
Mof_H 	H 	0.2081	0.966	0.2781	0.08
Mof_C 	C 	0.3101	0.0765	0.24035	0.091
Mof_H 	H 	0.3366	0.1049	0.2305	0.057
Mof_C 	C 	0.3164	0.0383	0.26862	-0.099
Mof_H 	H 	0.3468	0.0399	0.2779	0.132
Mof_C 	C 	0.2775	0.998	0.28265	0.062
Mof_C 	C 	0.2822	0.9634	0.31366	0.115
Mof_C 	C 	0.4587	0.8985	0.36531	0.079
Mof_H 	H 	0.4871	0.8964	0.3539	-0.017
Mof_C 	C 	0.4158	0.9128	0.35062	-0.125
Mof_H 	H 	0.4149	0.9217	0.3299	0.089
Mof_C 	C 	0.4222	0.8904	0.41029	0.068
Mof_H 	H 	0.4243	0.8837	0.4311	-0.008
Mof_C 	C 	0.378	0.9027	0.39756	-0.117
Mof_H 	H 	0.3502	0.9036	0.4095	0.079
Mof_C 	C 	0.3742	0.9137	0.36734	0.059
Mof_C 	C 	0.3267	0.9267	0.35319	0.107
Mof_C 	C 	0.1612	0.8678	0.41782	0.068
Mof_H 	H 	0.1622	0.8481	0.4379	-0.02
Mof_C 	C 	0.2039	0.8827	0.40324	-0.122
Mof_H 	H 	0.2335	0.8744	0.4131	0.077
Mof_C 	C 	0.1176	0.9078	0.37678	0.07
Mof_H 	H 	0.0875	0.9174	0.3676	-0.058
Mof_C 	C 	0.1582	0.9231	0.36063	-0.134
Mof_H 	H 	0.1559	0.9424	0.3406	0.082
Mof_C 	C 	0.2024	0.9104	0.37358	0.057
Mof_C 	C 	0.2468	0.9246	0.35671	0.103
Mof_N 	N 	0.4438	0.4909	0.0789	-0.254
Mof_N 	N 	0.433	0.0826	0.96685	-0.272
Mof_N 	N 	0.2963	0.0687	0.15848	-0.282
Mof_N 	N 	0.4067	0.8261	0.04361	-0.144
Mof_N 	N 	0.3728	0.9684	0.06445	-0.136
Mof_N 	N 	0.3712	0.8202	0.0911	-0.14
Mof_N 	N 	0.2679	0.0742	0.22697	-0.276
Mof_N 	N 	0.4624	0.8875	0.39428	-0.271
Mof_N 	N 	0.1186	0.8797	0.40513	-0.282
Mof_N 	N 	0.326	0.9534	0.32478	-0.129
Mof_N 	N 	0.2884	0.9123	0.37009	-0.139
Mof_N 	N 	0.2416	0.9503	0.32814	-0.14
Mof_Zn	Zn	0.75855	0.35098	0.81193	1.164
Mof_Zn	Zn	0.94373	0.34499	0.07251	1.163
Mof_Zn	Zn	0.97287	0.14443	0.91418	1.164
Mof_I 	I 	0.00974	0.42686	0.10115	-0.37
Mof_I 	I 	0.99062	0.21807	0.96452	-0.391
Mof_I 	I 	0.80195	0.18959	0.8057	-0.409
Mof_I 	I 	0.93805	0.16367	0.06141	-0.393
Mof_I 	I 	0.92404	0.22653	0.87454	-0.375
Mof_I 	I 	0.67112	0.35455	0.82623	-0.661
Mof_C 	C 	0.9234	0.9618	0.89882	0.072
Mof_H 	H 	0.9206	0.9935	0.8803	-0.006
Mof_C 	C 	0.9061	0.8687	0.90168	-0.125
Mof_H 	H 	0.8918	0.8369	0.8854	0.091
Mof_C 	C 	0.9463	0.9643	0.94718	0.074
Mof_H 	H 	0.9595	0.9985	0.9634	-0.004
Mof_C 	C 	0.9305	0.8704	0.95158	-0.125
Mof_H 	H 	0.9339	0.8401	0.9703	0.087
Mof_C 	C 	0.9099	0.8219	0.92839	0.054
Mof_C 	C 	0.8944	0.7195	0.93183	0.096
Mof_C 	C 	0.9468	0.5087	0.03044	0.07
Mof_H 	H 	0.9652	0.5366	0.0458	-0.014
Mof_C 	C 	0.9356	0.566	0.00612	-0.122
Mof_H 	H 	0.9461	0.6313	0.0048	0.088
Mof_C 	C 	0.9078	0.3766	0.01123	0.067
Mof_H 	H 	0.8983	0.3107	0.0131	-0.008
Mof_C 	C 	0.8954	0.4264	0.98659	-0.114
Mof_H 	H 	0.8779	0.3949	0.9714	0.076
Mof_C 	C 	0.9082	0.5238	0.98349	0.047
Mof_C 	C 	0.8946	0.5801	0.95743	0.099
Mof_C 	C 	0.818	0.3859	0.86374	0.066
Mof_H 	H 	0.8184	0.317	0.8637	-0.007
Mof_C 	C 	0.8398	0.4335	0.88663	-0.117
Mof_H 	H 	0.8546	0.3981	0.9021	0.087
Mof_C 	C 	0.7968	0.528	0.84201	0.069
Mof_H 	H 	0.7815	0.5621	0.8265	-0.026
Mof_C 	C 	0.8186	0.581	0.86413	-0.144
Mof_H 	H 	0.8186	0.6499	0.8635	0.076
Mof_C 	C 	0.8401	0.5333	0.88681	0.061
Mof_C 	C 	0.862	0.585	0.91178	0.102
Mof_C 	C 	0.7307	0.4661	0.75972	0.236
Mof_H 	H 	0.7008	0.4685	0.7696	-0.378
Mof_C 	C 	0.735	0.5053	0.73128	-0.423
Mof_H 	H 	0.7081	0.534	0.7219	0.25
Mof_C 	C 	0.8101	0.4235	0.75965	0.138
Mof_H 	H 	0.8366	0.3951	0.7695	-0.057
Mof_C 	C 	0.8164	0.4617	0.73138	-0.252
Mof_H 	H 	0.8468	0.4601	0.7221	0.163
Mof_C 	C 	0.7775	0.502	0.71735	0.234
Mof_C 	C 	0.7822	0.5366	0.68634	0.062
Mof_C 	C 	0.9587	0.6015	0.63469	0.07
Mof_H 	H 	0.9871	0.6036	0.6461	0.128
Mof_C 	C 	0.9158	0.5872	0.64938	-0.092
Mof_H 	H 	0.9149	0.5783	0.6701	0.171
Mof_C 	C 	0.9222	0.6096	0.58971	0.066
Mof_H 	H 	0.9243	0.6163	0.5689	-0.006
Mof_C 	C 	0.878	0.5973	0.60244	-0.111
Mof_H 	H 	0.8502	0.5964	0.5905	0.077
Mof_C 	C 	0.8742	0.5863	0.63266	0.056
Mof_C 	C 	0.8267	0.5733	0.64681	0.111
Mof_C 	C 	0.6612	0.6322	0.58218	0.101
Mof_H 	H 	0.6622	0.6519	0.5621	-0.03
Mof_C 	C 	0.7039	0.6173	0.59676	-0.17
Mof_H 	H 	0.7335	0.6256	0.5869	0.093
Mof_C 	C 	0.6176	0.5922	0.62322	0.174
Mof_H 	H 	0.5875	0.5826	0.6324	0.017
Mof_C 	C 	0.6582	0.5769	0.63937	-0.248
Mof_H 	H 	0.6559	0.5576	0.6594	0.376
Mof_C 	C 	0.7024	0.5896	0.62642	0.142
Mof_C 	C 	0.7468	0.5754	0.64329	0.088
Mof_N 	N 	0.9438	0.0091	0.9211	-0.274
Mof_N 	N 	0.933	0.4174	0.03315	-0.273
Mof_N 	N 	0.7963	0.4313	0.84152	-0.28
Mof_N 	N 	0.9067	0.6739	0.95639	-0.143
Mof_N 	N 	0.8728	0.5316	0.93555	-0.135
Mof_N 	N 	0.8712	0.6798	0.9089	-0.137
Mof_N 	N 	0.7679	0.4258	0.77303	-0.333
Mof_N 	N 	0.9624	0.6125	0.60572	-0.258
Mof_N 	N 	0.6186	0.6203	0.59487	-0.295
Mof_N 	N 	0.826	0.5466	0.67522	-0.114
Mof_N 	N 	0.7884	0.5877	0.62991	-0.137
Mof_N 	N 	0.7416	0.5497	0.67186	-0.08
Mof_Zn	Zn	0.74145	0.64902	0.31193	1.164
Mof_Zn	Zn	0.55627	0.65501	0.57251	1.163
Mof_Zn	Zn	0.52713	0.85557	0.41418	1.164
Mof_I 	I 	0.49026	0.57314	0.60115	-0.365
Mof_I 	I 	0.50938	0.78193	0.46452	-0.391
Mof_I 	I 	0.69805	0.81041	0.3057	-0.425
Mof_I 	I 	0.56195	0.83633	0.56141	-0.392
Mof_I 	I 	0.57596	0.77347	0.37454	-0.38
Mof_I 	I 	0.82888	0.64545	0.32623	-0.651
Mof_C 	C 	0.5766	0.0382	0.39882	0.073
Mof_H 	H 	0.5794	0.0065	0.3803	-0.012
Mof_C 	C 	0.5939	0.1313	0.40168	-0.127
Mof_H 	H 	0.6082	0.1631	0.3854	0.09
Mof_C 	C 	0.5537	0.0357	0.44718	0.074
Mof_H 	H 	0.5405	0.0015	0.4634	-0.004
Mof_C 	C 	0.5695	0.1296	0.45158	-0.126
Mof_H 	H 	0.5661	0.1599	0.4703	0.087
Mof_C 	C 	0.5901	0.1781	0.42839	0.055
Mof_C 	C 	0.6056	0.2805	0.43183	0.096
Mof_C 	C 	0.5532	0.4913	0.53044	0.07
Mof_H 	H 	0.5348	0.4634	0.5458	-0.014
Mof_C 	C 	0.5644	0.434	0.50612	-0.122
Mof_H 	H 	0.5539	0.3687	0.5048	0.088
Mof_C 	C 	0.5922	0.6234	0.51123	0.067
Mof_H 	H 	0.6017	0.6893	0.5131	-0.008
Mof_C 	C 	0.6046	0.5736	0.48659	-0.114
Mof_H 	H 	0.6221	0.6051	0.4714	0.076
Mof_C 	C 	0.5918	0.4762	0.48349	0.047
Mof_C 	C 	0.6054	0.4199	0.45743	0.099
Mof_C 	C 	0.682	0.6141	0.36374	0.066
Mof_H 	H 	0.6816	0.683	0.3637	-0.007
Mof_C 	C 	0.6602	0.5665	0.38663	-0.116
Mof_H 	H 	0.6454	0.6019	0.4021	0.087
Mof_C 	C 	0.7032	0.472	0.34201	0.068
Mof_H 	H 	0.7185	0.4379	0.3265	-0.026
Mof_C 	C 	0.6814	0.419	0.36413	-0.143
Mof_H 	H 	0.6814	0.3501	0.3635	0.076
Mof_C 	C 	0.6599	0.4667	0.38681	0.061
Mof_C 	C 	0.638	0.415	0.41178	0.102
Mof_C 	C 	0.7693	0.5339	0.25972	0.229
Mof_H 	H 	0.7992	0.5315	0.2696	-0.362
Mof_C 	C 	0.765	0.4947	0.23128	-0.411
Mof_H 	H 	0.7919	0.466	0.2219	0.243
Mof_C 	C 	0.6899	0.5765	0.25965	0.136
Mof_H 	H 	0.6634	0.6049	0.2695	-0.06
Mof_C 	C 	0.6836	0.5383	0.23138	-0.25
Mof_H 	H 	0.6532	0.5399	0.2221	0.162
Mof_C 	C 	0.7225	0.498	0.21735	0.228
Mof_C 	C 	0.7178	0.4634	0.18634	0.063
Mof_C 	C 	0.5413	0.3985	0.13469	0.069
Mof_H 	H 	0.5129	0.3964	0.1461	0.135
Mof_C 	C 	0.5842	0.4128	0.14938	-0.091
Mof_H 	H 	0.5851	0.4217	0.1701	0.174
Mof_C 	C 	0.5778	0.3904	0.08971	0.066
Mof_H 	H 	0.5757	0.3837	0.0689	-0.006
Mof_C 	C 	0.622	0.4027	0.10244	-0.11
Mof_H 	H 	0.6498	0.4036	0.0905	0.077
Mof_C 	C 	0.6258	0.4137	0.13266	0.057
Mof_C 	C 	0.6733	0.4267	0.14681	0.112
Mof_C 	C 	0.8388	0.3678	0.08218	0.099
Mof_H 	H 	0.8378	0.3481	0.0621	-0.03
Mof_C 	C 	0.7961	0.3827	0.09676	-0.167
Mof_H 	H 	0.7665	0.3744	0.0869	0.092
Mof_C 	C 	0.8824	0.4078	0.12322	0.169
Mof_H 	H 	0.9125	0.4174	0.1324	0.014
Mof_C 	C 	0.8418	0.4231	0.13937	-0.243
Mof_H 	H 	0.8441	0.4424	0.1594	0.362
Mof_C 	C 	0.7976	0.4104	0.12642	0.138
Mof_C 	C 	0.7532	0.4246	0.14329	0.089
Mof_N 	N 	0.5562	0.9909	0.4211	-0.275
Mof_N 	N 	0.567	0.5826	0.53315	-0.273
Mof_N 	N 	0.7037	0.5687	0.34152	-0.28
Mof_N 	N 	0.5933	0.3261	0.45639	-0.143
Mof_N 	N 	0.6272	0.4684	0.43555	-0.135
Mof_N 	N 	0.6288	0.3202	0.4089	-0.136
Mof_N 	N 	0.7321	0.5742	0.27303	-0.332
Mof_N 	N 	0.5376	0.3875	0.10572	-0.258
Mof_N 	N 	0.8814	0.3797	0.09487	-0.294
Mof_N 	N 	0.674	0.4534	0.17522	-0.114
Mof_N 	N 	0.7116	0.4123	0.12991	-0.137
Mof_N 	N 	0.7584	0.4503	0.17186	-0.083
Mof_C 	C 	0.2539	0.1872	0.3453	0.224
Mof_C 	C 	0.3032	0.1882	0.3419	-0.04
Mof_H 	H 	0.3168	0.2074	0.3236	0.049
Mof_C 	C 	0.3327	0.1611	0.3651	0.178
Mof_C 	C 	0.3125	0.1409	0.3925	-0.191
Mof_H 	H 	0.3326	0.1263	0.4088	0.1
Mof_C 	C 	0.2634	0.1419	0.3962	0.061
Mof_H 	H 	0.25	0.1276	0.4149	-0.117
Mof_C 	C 	0.2337	0.164	0.3724	-0.056
Mof_C 	C 	0.1838	0.163	0.3755	0.001
Mof_C 	C 	0.1632	0.147	0.4031	-0.015
Mof_H 	H 	0.183	0.1418	0.42	-0.011
Mof_C 	C 	0.1142	0.138	0.4062	-0.013
Mof_H 	H 	0.1007	0.1213	0.4247	0.014
Mof_C 	C 	0.0848	0.154	0.3818	-0.042
Mof_H 	H 	0.0511	0.1554	0.3841	0.023
Mof_C 	C 	0.1051	0.167	0.3541	-0.024
Mof_H 	H 	0.0854	0.1673	0.3371	0.238
Mof_C 	C 	0.1548	0.179	0.3511	-0.017
Mof_C 	C 	0.1755	0.2	0.3235	-0.004
Mof_C 	C 	0.1471	0.218	0.2985	0.109
Mof_H 	H 	0.1134	0.2115	0.2998	0.069
Mof_C 	C 	0.168	0.2442	0.272	0.562
Mof_H 	H 	0.1486	0.2546	0.2552	-0.147
Mof_C 	C 	0.2174	0.2557	0.2699	-0.148
Mof_H 	H 	0.2316	0.2762	0.2519	0.062
Mof_C 	C 	0.2457	0.2367	0.2944	-0.244
Mof_H 	H 	0.2794	0.2424	0.293	0.213
Mof_C 	C 	0.2248	0.209	0.3211	-0.165
Mof_C 	C 	0.4152	0.1708	0.339	0.224
Mof_C 	C 	0.4668	0.1728	0.346	-0.1
Mof_N 	N 	0.383	0.1628	0.3626	-0.233
Mof_H 	H 	0.3974	0.1577	0.3797	0.13
Mof_O 	O 	0.3987	0.1722	0.3134	-0.038
Mof_C 	C 	0.5083	0.175	0.3243	-0.232
Mof_C 	C 	0.517	0.086	0.3086	0.176
Mof_H 	H 	0.4854	0.0599	0.3031	0.005
Mof_H 	H 	0.5312	0.0404	0.3228	-0.021
Mof_C 	C 	0.5464	0.083	0.2824	-0.34
Mof_H 	H 	0.5283	0.1172	0.2668	0.159
Mof_H 	H 	0.5748	0.1233	0.2866	0.131
Mof_C 	C 	0.5635	0.995	0.2696	0.126
Mof_H 	H 	0.5809	0.9608	0.2854	-0.019
Mof_H 	H 	0.5349	0.9558	0.2652	-0.04
Mof_C 	C 	0.5929	0.99	0.2443	-0.218
Mof_H 	H 	0.625	0.0112	0.2506	0.089
Mof_H 	H 	0.5809	0.0394	0.2304	0.087
Mof_C 	C 	0.6	0.904	0.2273	-0.095
Mof_H 	H 	0.6217	0.918	0.2109	0.033
Mof_H 	H 	0.5692	0.8817	0.2195	-0.034
Mof_H 	H 	0.6138	0.8533	0.2398	0.034
Mof_C 	C 	0.6895	0.195	0.1731	0.084
Mof_C 	C 	0.6691	0.223	0.1999	-0.15
Mof_H 	H 	0.6354	0.223	0.2019	-0.091
Mof_C 	C 	0.6976	0.25	0.224	-0.34
Mof_C 	C 	0.7471	0.251	0.2211	0.599
Mof_H 	H 	0.7665	0.2698	0.2372	-0.105
Mof_C 	C 	0.7683	0.224	0.195	-0.364
Mof_H 	H 	0.8021	0.2233	0.1932	0.178
Mof_C 	C 	0.7397	0.197	0.1711	0.246
Mof_C 	C 	0.7611	0.173	0.144	-0.249
Mof_C 	C 	0.811	0.173	0.1408	-0.127
Mof_H 	H 	0.8305	0.1905	0.1571	0.096
Mof_C 	C 	0.8322	0.148	0.1143	0.111
Mof_H 	H 	0.866	0.1439	0.1128	-0.029
Mof_C 	C 	0.804	0.1277	0.0898	-0.081
Mof_H 	H 	0.8185	0.1142	0.0713	0.034
Mof_C 	C 	0.7544	0.128	0.0925	0.097
Mof_H 	H 	0.7352	0.1095	0.0762	0.064
Mof_C 	C 	0.7326	0.154	0.1194	0.073
Mof_C 	C 	0.6814	0.154	0.1211	-0.008
Mof_C 	C 	0.6523	0.138	0.0961	-0.031
Mof_H 	H 	0.6671	0.1242	0.0778	0.049
Mof_C 	C 	0.6028	0.143	0.0975	-0.015
Mof_H 	H 	0.5842	0.1414	0.08	0.016
Mof_C 	C 	0.5807	0.149	0.1254	0.001
Mof_H 	H 	0.5473	0.1393	0.1275	0.014
Mof_C 	C 	0.6093	0.171	0.1499	-0.049
Mof_H 	H 	0.5942	0.1871	0.168	-0.182
Mof_C 	C 	0.66	0.169	0.1488	0.02
Mof_C 	C 	0.626	0.323	0.2531	0.447
Mof_C 	C 	0.6164	0.367	0.2805	-0.776
Mof_H 	H 	0.6103	0.3131	0.2945	0.241
Mof_H 	H 	0.6463	0.3985	0.2869	0.227
Mof_C 	C 	0.5809	0.432	0.2845	0.682
Mof_H 	H 	0.5517	0.4063	0.275	-0.039
Mof_H 	H 	0.5898	0.4921	0.2737	0.039
Mof_C 	C 	0.5681	0.46	0.3155	-1.469
Mof_H 	H 	0.5528	0.4042	0.3252	0.502
Mof_H 	H 	0.598	0.4747	0.3264	0.451
Mof_C 	C 	0.5362	0.544	0.3182	1.01
Mof_H 	H 	0.5372	0.5666	0.3389	-0.211
Mof_H 	H 	0.5033	0.522	0.3142	-0.194
Mof_C 	C 	0.5456	0.629	0.2992	-1.914
Mof_H 	H 	0.5487	0.6072	0.2785	0.48
Mof_H 	H 	0.5762	0.6591	0.3051	0.503
Mof_C 	C 	0.5067	0.704	0.3011	1.708
Mof_H 	H 	0.478	0.6796	0.2907	-0.819
Mof_H 	H 	0.4982	0.7144	0.322	-0.465
Mof_C 	C 	0.521	0.799	0.2877	-1.877
Mof_H 	H 	0.4943	0.8445	0.2884	0.567
Mof_H 	H 	0.5309	0.7892	0.2672	0.47
Mof_H 	H 	0.5481	0.8265	0.2988	0.568
Mof_N 	N 	0.6743	0.2821	0.2506	-0.275
Mof_H 	H 	0.6907	0.2764	0.2671	0.108
Mof_O 	O 	0.5966	0.334	0.233	-0.221
Mof_C 	C 	0.4843	0.246	0.3276	0.356
Mof_C 	C 	0.5393	0.246	0.3238	0.206
Mof_C 	C 	0.5615	0.311	0.3074	-0.558
Mof_H 	H 	0.5926	0.3133	0.3178	0.121
Mof_H 	H 	0.5678	0.2714	0.2897	0.22
Mof_C 	C 	0.562	0.397	0.2956	0.393
Mof_H 	H 	0.5267	0.4081	0.2937	0.213
Mof_H 	H 	0.572	0.3805	0.2754	-0.13
Mof_C 	C 	0.576	0.487	0.2972	-0.196
Mof_H 	H 	0.5788	0.5041	0.276	-0.158
Mof_H 	H 	0.61	0.4775	0.3034	0.033
Mof_C 	C 	0.567	0.572	0.3087	1.157
Mof_H 	H 	0.5788	0.6233	0.2955	-0.139
Mof_H 	H 	0.5835	0.5777	0.3278	-0.385
Mof_H 	H 	0.5328	0.5791	0.3115	-0.293
Mof_C 	C 	0.7539	0.1872	0.1547	0.221
Mof_C 	C 	0.8032	0.1882	0.1581	-0.038
Mof_H 	H 	0.8168	0.2074	0.1764	0.046
Mof_C 	C 	0.8327	0.1611	0.1349	0.173
Mof_C 	C 	0.8125	0.1409	0.1075	-0.189
Mof_H 	H 	0.8326	0.1263	0.0912	0.1
Mof_C 	C 	0.7634	0.1419	0.1038	0.061
Mof_H 	H 	0.75	0.1276	0.0851	-0.116
Mof_C 	C 	0.7337	0.164	0.1276	-0.056
Mof_C 	C 	0.6838	0.163	0.1245	0.001
Mof_C 	C 	0.6632	0.147	0.0969	-0.015
Mof_H 	H 	0.683	0.1418	0.08	-0.01
Mof_C 	C 	0.6142	0.138	0.0938	-0.014
Mof_H 	H 	0.6007	0.1213	0.0753	0.014
Mof_C 	C 	0.5848	0.154	0.1182	-0.042
Mof_H 	H 	0.5511	0.1554	0.1159	0.023
Mof_C 	C 	0.6051	0.167	0.1459	-0.025
Mof_H 	H 	0.5854	0.1673	0.1629	0.249
Mof_C 	C 	0.6548	0.179	0.1489	-0.016
Mof_C 	C 	0.6755	0.2	0.1765	-0.006
Mof_C 	C 	0.6471	0.218	0.2015	0.104
Mof_H 	H 	0.6134	0.2115	0.2002	0.082
Mof_C 	C 	0.668	0.2442	0.228	0.56
Mof_H 	H 	0.6486	0.2546	0.2448	-0.136
Mof_C 	C 	0.7174	0.2557	0.2301	-0.152
Mof_H 	H 	0.7316	0.2762	0.2481	0.064
Mof_C 	C 	0.7457	0.2367	0.2056	-0.238
Mof_H 	H 	0.7794	0.2424	0.207	0.212
Mof_C 	C 	0.7248	0.209	0.1789	-0.16
Mof_C 	C 	0.9152	0.1708	0.161	0.205
Mof_C 	C 	0.9668	0.1728	0.154	-0.062
Mof_N 	N 	0.883	0.1628	0.1374	-0.23
Mof_H 	H 	0.8974	0.1577	0.1203	0.127
Mof_O 	O 	0.8987	0.1722	0.1866	-0.041
Mof_C 	C 	0.0083	0.175	0.1757	-0.47
Mof_C 	C 	0.017	0.086	0.1914	0.764
Mof_H 	H 	0.9854	0.0599	0.1969	-0.159
Mof_H 	H 	0.0312	0.0404	0.1772	-0.179
Mof_C 	C 	0.0464	0.083	0.2176	-1.216
Mof_H 	H 	0.0283	0.1172	0.2332	0.397
Mof_H 	H 	0.0748	0.1233	0.2134	0.37
Mof_C 	C 	0.0635	0.995	0.2304	1.244
Mof_H 	H 	0.0809	0.9608	0.2146	-0.328
Mof_H 	H 	0.0349	0.9558	0.2348	-0.345
Mof_C 	C 	0.0929	0.99	0.2557	-1.435
Mof_H 	H 	0.125	0.0112	0.2494	0.434
Mof_H 	H 	0.0809	0.0394	0.2696	0.426
Mof_C 	C 	0.1	0.904	0.2727	1.108
Mof_H 	H 	0.1217	0.918	0.2891	-0.321
Mof_H 	H 	0.0692	0.8817	0.2805	-0.369
Mof_H 	H 	0.1138	0.8533	0.2602	-0.305
Mof_C 	C 	0.1895	0.195	0.3269	0.087
Mof_C 	C 	0.1691	0.223	0.3001	-0.163
Mof_H 	H 	0.1354	0.223	0.2981	-0.087
Mof_C 	C 	0.1976	0.25	0.276	-0.344
Mof_C 	C 	0.2471	0.251	0.2789	0.602
Mof_H 	H 	0.2665	0.2698	0.2628	-0.101
Mof_C 	C 	0.2683	0.224	0.305	-0.358
Mof_H 	H 	0.3021	0.2233	0.3068	0.179
Mof_C 	C 	0.2397	0.197	0.3289	0.249
Mof_C 	C 	0.2611	0.173	0.356	-0.251
Mof_C 	C 	0.311	0.173	0.3592	-0.128
Mof_H 	H 	0.3305	0.1905	0.3429	0.097
Mof_C 	C 	0.3322	0.148	0.3857	0.11
Mof_H 	H 	0.366	0.1439	0.3872	-0.029
Mof_C 	C 	0.304	0.1277	0.4102	-0.078
Mof_H 	H 	0.3185	0.1142	0.4287	0.033
Mof_C 	C 	0.2544	0.128	0.4075	0.097
Mof_H 	H 	0.2352	0.1095	0.4238	0.065
Mof_C 	C 	0.2326	0.154	0.3806	0.073
Mof_C 	C 	0.1814	0.154	0.3789	-0.008
Mof_C 	C 	0.1523	0.138	0.4039	-0.032
Mof_H 	H 	0.1671	0.1242	0.4222	0.049
Mof_C 	C 	0.1028	0.143	0.4025	-0.015
Mof_H 	H 	0.0842	0.1414	0.42	0.016
Mof_C 	C 	0.0807	0.149	0.3746	0
Mof_H 	H 	0.0473	0.1393	0.3725	0.015
Mof_C 	C 	0.1093	0.171	0.3501	-0.047
Mof_H 	H 	0.0942	0.1871	0.332	-0.175
Mof_C 	C 	0.16	0.169	0.3512	0.018
Mof_C 	C 	0.126	0.323	0.2469	0.457
Mof_C 	C 	0.1164	0.367	0.2195	-0.81
Mof_H 	H 	0.1103	0.3131	0.2055	0.251
Mof_H 	H 	0.1463	0.3985	0.2131	0.239
Mof_C 	C 	0.0809	0.432	0.2155	0.745
Mof_H 	H 	0.0517	0.4063	0.225	-0.052
Mof_H 	H 	0.0898	0.4921	0.2263	-0.007
Mof_C 	C 	0.0681	0.46	0.1845	-1.493
Mof_H 	H 	0.0528	0.4042	0.1748	0.515
Mof_H 	H 	0.098	0.4747	0.1736	0.458
Mof_C 	C 	0.0362	0.544	0.1818	0.98
Mof_H 	H 	0.0372	0.5666	0.1611	-0.206
Mof_H 	H 	0.0033	0.522	0.1858	-0.197
Mof_C 	C 	0.0456	0.629	0.2008	-1.907
Mof_H 	H 	0.0487	0.6072	0.2215	0.481
Mof_H 	H 	0.0762	0.6591	0.1949	0.494
Mof_C 	C 	0.0067	0.704	0.1989	1.712
Mof_H 	H 	0.978	0.6796	0.2093	-0.805
Mof_H 	H 	0.9982	0.7144	0.178	-0.466
Mof_C 	C 	0.021	0.799	0.2123	-1.91
Mof_H 	H 	0.9943	0.8445	0.2116	0.596
Mof_H 	H 	0.0309	0.7892	0.2328	0.505
Mof_H 	H 	0.0481	0.8265	0.2012	0.6
Mof_N 	N 	0.1743	0.2821	0.2494	-0.272
Mof_H 	H 	0.1907	0.2764	0.2329	0.105
Mof_O 	O 	0.0966	0.334	0.267	-0.233
Mof_C 	C 	0.9843	0.246	0.1724	0.42
Mof_C 	C 	0.0393	0.246	0.1762	0.255
Mof_C 	C 	0.0615	0.311	0.1926	-0.536
Mof_H 	H 	0.0926	0.3133	0.1822	0.111
Mof_H 	H 	0.0678	0.2714	0.2103	0.197
Mof_C 	C 	0.062	0.397	0.2044	0.288
Mof_H 	H 	0.0267	0.4081	0.2063	0.226
Mof_H 	H 	0.072	0.3805	0.2246	-0.114
Mof_C 	C 	0.076	0.487	0.2028	-0.101
Mof_H 	H 	0.0788	0.5041	0.224	-0.151
Mof_H 	H 	0.11	0.4775	0.1966	0.007
Mof_C 	C 	0.067	0.572	0.1913	1.046
Mof_H 	H 	0.0788	0.6233	0.2045	-0.099
Mof_H 	H 	0.0835	0.5777	0.1722	-0.35
Mof_H 	H 	0.0328	0.5791	0.1885	-0.242
Mof_C 	C 	0.2461	0.8128	0.8453	0.221
Mof_C 	C 	0.1968	0.8118	0.8419	-0.038
Mof_H 	H 	0.1832	0.7926	0.8236	0.046
Mof_C 	C 	0.1673	0.8389	0.8651	0.173
Mof_C 	C 	0.1875	0.8591	0.8925	-0.189
Mof_H 	H 	0.1674	0.8737	0.9088	0.1
Mof_C 	C 	0.2366	0.8581	0.8962	0.061
Mof_H 	H 	0.25	0.8724	0.9149	-0.116
Mof_C 	C 	0.2663	0.836	0.8724	-0.056
Mof_C 	C 	0.3162	0.837	0.8755	0.001
Mof_C 	C 	0.3368	0.853	0.9031	-0.015
Mof_H 	H 	0.317	0.8582	0.92	-0.01
Mof_C 	C 	0.3858	0.862	0.9062	-0.014
Mof_H 	H 	0.3993	0.8787	0.9247	0.014
Mof_C 	C 	0.4152	0.846	0.8818	-0.042
Mof_H 	H 	0.4489	0.8446	0.8841	0.023
Mof_C 	C 	0.3949	0.833	0.8541	-0.025
Mof_H 	H 	0.4146	0.8327	0.8371	0.249
Mof_C 	C 	0.3452	0.821	0.8511	-0.016
Mof_C 	C 	0.3245	0.8	0.8235	-0.006
Mof_C 	C 	0.3529	0.782	0.7985	0.104
Mof_H 	H 	0.3866	0.7885	0.7998	0.082
Mof_C 	C 	0.332	0.7558	0.772	0.56
Mof_H 	H 	0.3514	0.7454	0.7552	-0.136
Mof_C 	C 	0.2826	0.7443	0.7699	-0.152
Mof_H 	H 	0.2684	0.7238	0.7519	0.064
Mof_C 	C 	0.2543	0.7633	0.7944	-0.238
Mof_H 	H 	0.2206	0.7576	0.793	0.212
Mof_C 	C 	0.2752	0.791	0.8211	-0.16
Mof_C 	C 	0.0848	0.8292	0.839	0.205
Mof_C 	C 	0.0332	0.8272	0.846	-0.062
Mof_N 	N 	0.117	0.8372	0.8626	-0.23
Mof_H 	H 	0.1026	0.8423	0.8797	0.127
Mof_O 	O 	0.1013	0.8278	0.8134	-0.041
Mof_C 	C 	0.9917	0.825	0.8243	-0.47
Mof_C 	C 	0.983	0.914	0.8086	0.764
Mof_H 	H 	0.0146	0.9401	0.8031	-0.159
Mof_H 	H 	0.9688	0.9596	0.8228	-0.179
Mof_C 	C 	0.9536	0.917	0.7824	-1.216
Mof_H 	H 	0.9717	0.8828	0.7668	0.397
Mof_H 	H 	0.9252	0.8767	0.7866	0.37
Mof_C 	C 	0.9365	0.005	0.7696	1.244
Mof_H 	H 	0.9191	0.0392	0.7854	-0.328
Mof_H 	H 	0.9651	0.0442	0.7652	-0.345
Mof_C 	C 	0.9071	0.01	0.7443	-1.435
Mof_H 	H 	0.875	0.9888	0.7506	0.434
Mof_H 	H 	0.9191	0.9606	0.7304	0.426
Mof_C 	C 	0.9	0.096	0.7273	1.108
Mof_H 	H 	0.8783	0.082	0.7109	-0.321
Mof_H 	H 	0.9308	0.1183	0.7195	-0.369
Mof_H 	H 	0.8862	0.1467	0.7398	-0.305
Mof_C 	C 	0.8105	0.805	0.6731	0.087
Mof_C 	C 	0.8309	0.777	0.6999	-0.163
Mof_H 	H 	0.8646	0.777	0.7019	-0.087
Mof_C 	C 	0.8024	0.75	0.724	-0.344
Mof_C 	C 	0.7529	0.749	0.7211	0.602
Mof_H 	H 	0.7335	0.7302	0.7372	-0.101
Mof_C 	C 	0.7317	0.776	0.695	-0.358
Mof_H 	H 	0.6979	0.7767	0.6932	0.179
Mof_C 	C 	0.7603	0.803	0.6711	0.249
Mof_C 	C 	0.7389	0.827	0.644	-0.251
Mof_C 	C 	0.689	0.827	0.6408	-0.128
Mof_H 	H 	0.6695	0.8095	0.6571	0.097
Mof_C 	C 	0.6678	0.852	0.6143	0.11
Mof_H 	H 	0.634	0.8561	0.6128	-0.029
Mof_C 	C 	0.696	0.8723	0.5898	-0.078
Mof_H 	H 	0.6815	0.8858	0.5713	0.033
Mof_C 	C 	0.7456	0.872	0.5925	0.097
Mof_H 	H 	0.7648	0.8905	0.5762	0.065
Mof_C 	C 	0.7674	0.846	0.6194	0.073
Mof_C 	C 	0.8186	0.846	0.6211	-0.008
Mof_C 	C 	0.8477	0.862	0.5961	-0.032
Mof_H 	H 	0.8329	0.8758	0.5778	0.049
Mof_C 	C 	0.8972	0.857	0.5975	-0.015
Mof_H 	H 	0.9158	0.8586	0.58	0.016
Mof_C 	C 	0.9193	0.851	0.6254	0
Mof_H 	H 	0.9527	0.8607	0.6275	0.015
Mof_C 	C 	0.8907	0.829	0.6499	-0.047
Mof_H 	H 	0.9058	0.8129	0.668	-0.175
Mof_C 	C 	0.84	0.831	0.6488	0.018
Mof_C 	C 	0.874	0.677	0.7531	0.457
Mof_C 	C 	0.8836	0.633	0.7805	-0.81
Mof_H 	H 	0.8897	0.6869	0.7945	0.251
Mof_H 	H 	0.8537	0.6015	0.7869	0.239
Mof_C 	C 	0.9191	0.568	0.7845	0.745
Mof_H 	H 	0.9483	0.5937	0.775	-0.052
Mof_H 	H 	0.9102	0.5079	0.7737	-0.007
Mof_C 	C 	0.9319	0.54	0.8155	-1.493
Mof_H 	H 	0.9472	0.5958	0.8252	0.515
Mof_H 	H 	0.902	0.5253	0.8264	0.458
Mof_C 	C 	0.9638	0.456	0.8182	0.98
Mof_H 	H 	0.9628	0.4334	0.8389	-0.206
Mof_H 	H 	0.9967	0.478	0.8142	-0.197
Mof_C 	C 	0.9544	0.371	0.7992	-1.907
Mof_H 	H 	0.9513	0.3928	0.7785	0.481
Mof_H 	H 	0.9238	0.3409	0.8051	0.494
Mof_C 	C 	0.9933	0.296	0.8011	1.712
Mof_H 	H 	0.022	0.3204	0.7907	-0.805
Mof_H 	H 	0.0018	0.2856	0.822	-0.466
Mof_C 	C 	0.979	0.201	0.7877	-1.91
Mof_H 	H 	0.0057	0.1555	0.7884	0.596
Mof_H 	H 	0.9691	0.2108	0.7672	0.505
Mof_H 	H 	0.9519	0.1735	0.7988	0.6
Mof_N 	N 	0.8257	0.7179	0.7506	-0.272
Mof_H 	H 	0.8093	0.7236	0.7671	0.105
Mof_O 	O 	0.9034	0.666	0.733	-0.233
Mof_C 	C 	0.0157	0.754	0.8276	0.42
Mof_C 	C 	0.9607	0.754	0.8238	0.255
Mof_C 	C 	0.9385	0.689	0.8074	-0.536
Mof_H 	H 	0.9074	0.6867	0.8178	0.111
Mof_H 	H 	0.9322	0.7286	0.7897	0.197
Mof_C 	C 	0.938	0.603	0.7956	0.288
Mof_H 	H 	0.9733	0.5919	0.7937	0.226
Mof_H 	H 	0.928	0.6195	0.7754	-0.114
Mof_C 	C 	0.924	0.513	0.7972	-0.101
Mof_H 	H 	0.9212	0.4959	0.776	-0.151
Mof_H 	H 	0.89	0.5225	0.8034	0.007
Mof_C 	C 	0.933	0.428	0.8087	1.046
Mof_H 	H 	0.9212	0.3767	0.7955	-0.099
Mof_H 	H 	0.9165	0.4223	0.8278	-0.35
Mof_H 	H 	0.9672	0.4209	0.8115	-0.242
Mof_C 	C 	0.7461	0.8128	0.6547	0.224
Mof_C 	C 	0.6968	0.8118	0.6581	-0.04
Mof_H 	H 	0.6832	0.7926	0.6764	0.049
Mof_C 	C 	0.6673	0.8389	0.6349	0.178
Mof_C 	C 	0.6875	0.8591	0.6075	-0.191
Mof_H 	H 	0.6674	0.8737	0.5912	0.1
Mof_C 	C 	0.7366	0.8581	0.6038	0.061
Mof_H 	H 	0.75	0.8724	0.5851	-0.117
Mof_C 	C 	0.7663	0.836	0.6276	-0.056
Mof_C 	C 	0.8162	0.837	0.6245	0.001
Mof_C 	C 	0.8368	0.853	0.5969	-0.015
Mof_H 	H 	0.817	0.8582	0.58	-0.011
Mof_C 	C 	0.8858	0.862	0.5938	-0.013
Mof_H 	H 	0.8993	0.8787	0.5753	0.014
Mof_C 	C 	0.9152	0.846	0.6182	-0.042
Mof_H 	H 	0.9489	0.8446	0.6159	0.023
Mof_C 	C 	0.8949	0.833	0.6459	-0.024
Mof_H 	H 	0.9146	0.8327	0.6629	0.238
Mof_C 	C 	0.8452	0.821	0.6489	-0.017
Mof_C 	C 	0.8245	0.8	0.6765	-0.004
Mof_C 	C 	0.8529	0.782	0.7015	0.109
Mof_H 	H 	0.8866	0.7885	0.7002	0.069
Mof_C 	C 	0.832	0.7558	0.728	0.562
Mof_H 	H 	0.8514	0.7454	0.7448	-0.147
Mof_C 	C 	0.7826	0.7443	0.7301	-0.148
Mof_H 	H 	0.7684	0.7238	0.7481	0.062
Mof_C 	C 	0.7543	0.7633	0.7056	-0.244
Mof_H 	H 	0.7206	0.7576	0.707	0.213
Mof_C 	C 	0.7752	0.791	0.6789	-0.165
Mof_C 	C 	0.5848	0.8292	0.661	0.224
Mof_C 	C 	0.5332	0.8272	0.654	-0.1
Mof_N 	N 	0.617	0.8372	0.6374	-0.233
Mof_H 	H 	0.6026	0.8423	0.6203	0.13
Mof_O 	O 	0.6013	0.8278	0.6866	-0.038
Mof_C 	C 	0.4917	0.825	0.6757	-0.232
Mof_C 	C 	0.483	0.914	0.6914	0.176
Mof_H 	H 	0.5146	0.9401	0.6969	0.005
Mof_H 	H 	0.4688	0.9596	0.6772	-0.021
Mof_C 	C 	0.4536	0.917	0.7176	-0.34
Mof_H 	H 	0.4717	0.8828	0.7332	0.159
Mof_H 	H 	0.4252	0.8767	0.7134	0.131
Mof_C 	C 	0.4365	0.005	0.7304	0.126
Mof_H 	H 	0.4191	0.0392	0.7146	-0.019
Mof_H 	H 	0.4651	0.0442	0.7348	-0.04
Mof_C 	C 	0.4071	0.01	0.7557	-0.218
Mof_H 	H 	0.375	0.9888	0.7494	0.089
Mof_H 	H 	0.4191	0.9606	0.7696	0.087
Mof_C 	C 	0.4	0.096	0.7727	-0.095
Mof_H 	H 	0.3783	0.082	0.7891	0.033
Mof_H 	H 	0.4308	0.1183	0.7805	-0.034
Mof_H 	H 	0.3862	0.1467	0.7602	0.034
Mof_C 	C 	0.3105	0.805	0.8269	0.084
Mof_C 	C 	0.3309	0.777	0.8001	-0.15
Mof_H 	H 	0.3646	0.777	0.7981	-0.091
Mof_C 	C 	0.3024	0.75	0.776	-0.34
Mof_C 	C 	0.2529	0.749	0.7789	0.599
Mof_H 	H 	0.2335	0.7302	0.7628	-0.105
Mof_C 	C 	0.2317	0.776	0.805	-0.364
Mof_H 	H 	0.1979	0.7767	0.8068	0.178
Mof_C 	C 	0.2603	0.803	0.8289	0.246
Mof_C 	C 	0.2389	0.827	0.856	-0.249
Mof_C 	C 	0.189	0.827	0.8592	-0.127
Mof_H 	H 	0.1695	0.8095	0.8429	0.096
Mof_C 	C 	0.1678	0.852	0.8857	0.111
Mof_H 	H 	0.134	0.8561	0.8872	-0.029
Mof_C 	C 	0.196	0.8723	0.9102	-0.081
Mof_H 	H 	0.1815	0.8858	0.9287	0.034
Mof_C 	C 	0.2456	0.872	0.9075	0.097
Mof_H 	H 	0.2648	0.8905	0.9238	0.064
Mof_C 	C 	0.2674	0.846	0.8806	0.073
Mof_C 	C 	0.3186	0.846	0.8789	-0.008
Mof_C 	C 	0.3477	0.862	0.9039	-0.031
Mof_H 	H 	0.3329	0.8758	0.9222	0.049
Mof_C 	C 	0.3972	0.857	0.9025	-0.015
Mof_H 	H 	0.4158	0.8586	0.92	0.016
Mof_C 	C 	0.4193	0.851	0.8746	0.001
Mof_H 	H 	0.4527	0.8607	0.8725	0.014
Mof_C 	C 	0.3907	0.829	0.8501	-0.049
Mof_H 	H 	0.4058	0.8129	0.832	-0.182
Mof_C 	C 	0.34	0.831	0.8512	0.02
Mof_C 	C 	0.374	0.677	0.7469	0.447
Mof_C 	C 	0.3836	0.633	0.7195	-0.776
Mof_H 	H 	0.3897	0.6869	0.7055	0.241
Mof_H 	H 	0.3537	0.6015	0.7131	0.227
Mof_C 	C 	0.4191	0.568	0.7155	0.682
Mof_H 	H 	0.4483	0.5937	0.725	-0.039
Mof_H 	H 	0.4102	0.5079	0.7263	0.039
Mof_C 	C 	0.4319	0.54	0.6845	-1.469
Mof_H 	H 	0.4472	0.5958	0.6748	0.502
Mof_H 	H 	0.402	0.5253	0.6736	0.451
Mof_C 	C 	0.4638	0.456	0.6818	1.01
Mof_H 	H 	0.4628	0.4334	0.6611	-0.211
Mof_H 	H 	0.4967	0.478	0.6858	-0.194
Mof_C 	C 	0.4544	0.371	0.7008	-1.914
Mof_H 	H 	0.4513	0.3928	0.7215	0.48
Mof_H 	H 	0.4238	0.3409	0.6949	0.503
Mof_C 	C 	0.4933	0.296	0.6989	1.708
Mof_H 	H 	0.522	0.3204	0.7093	-0.819
Mof_H 	H 	0.5018	0.2856	0.678	-0.465
Mof_C 	C 	0.479	0.201	0.7123	-1.877
Mof_H 	H 	0.5057	0.1555	0.7116	0.567
Mof_H 	H 	0.4691	0.2108	0.7328	0.47
Mof_H 	H 	0.4519	0.1735	0.7012	0.568
Mof_N 	N 	0.3257	0.7179	0.7494	-0.275
Mof_H 	H 	0.3093	0.7236	0.7329	0.108
Mof_O 	O 	0.4034	0.666	0.767	-0.221
Mof_C 	C 	0.5157	0.754	0.6724	0.356
Mof_C 	C 	0.4607	0.754	0.6762	0.206
Mof_C 	C 	0.4385	0.689	0.6926	-0.558
Mof_H 	H 	0.4074	0.6867	0.6822	0.121
Mof_H 	H 	0.4322	0.7286	0.7103	0.22
Mof_C 	C 	0.438	0.603	0.7044	0.393
Mof_H 	H 	0.4733	0.5919	0.7063	0.213
Mof_H 	H 	0.428	0.6195	0.7246	-0.13
Mof_C 	C 	0.424	0.513	0.7028	-0.196
Mof_H 	H 	0.4212	0.4959	0.724	-0.158
Mof_H 	H 	0.39	0.5225	0.6966	0.033
Mof_C 	C 	0.433	0.428	0.6913	1.157
Mof_H 	H 	0.4212	0.3767	0.7045	-0.139
Mof_H 	H 	0.4165	0.4223	0.6722	-0.385
Mof_H 	H 	0.4672	0.4209	0.6885	-0.293
Mof_C 	C 	0.7461	0.6872	0.1547	0.278
Mof_C 	C 	0.6968	0.6882	0.1581	-0.167
Mof_H 	H 	0.6832	0.7074	0.1764	0.089
Mof_C 	C 	0.6673	0.6611	0.1349	0.361
Mof_C 	C 	0.6875	0.6409	0.1075	-0.291
Mof_H 	H 	0.6674	0.6263	0.0912	0.109
Mof_C 	C 	0.7366	0.6419	0.1038	0.109
Mof_H 	H 	0.75	0.6276	0.0851	-0.166
Mof_C 	C 	0.7663	0.664	0.1276	-0.075
Mof_C 	C 	0.8162	0.663	0.1245	0.022
Mof_C 	C 	0.8368	0.647	0.0969	-0.024
Mof_H 	H 	0.817	0.6418	0.08	-0.019
Mof_C 	C 	0.8858	0.638	0.0938	-0.007
Mof_H 	H 	0.8993	0.6213	0.0753	0.01
Mof_C 	C 	0.9152	0.654	0.1182	-0.045
Mof_H 	H 	0.9489	0.6554	0.1159	0.014
Mof_C 	C 	0.8949	0.667	0.1459	-0.006
Mof_H 	H 	0.9146	0.6673	0.1629	-0.052
Mof_C 	C 	0.8452	0.679	0.1489	-0.062
Mof_C 	C 	0.8245	0.7	0.1765	0.214
Mof_C 	C 	0.8529	0.718	0.2015	0.211
Mof_H 	H 	0.8866	0.7115	0.2002	-0.276
Mof_C 	C 	0.832	0.7442	0.228	0.127
Mof_H 	H 	0.8514	0.7546	0.2448	-0.207
Mof_C 	C 	0.7826	0.7557	0.2301	0.173
Mof_H 	H 	0.7684	0.7762	0.2481	-0.052
Mof_C 	C 	0.7543	0.7367	0.2056	-0.21
Mof_H 	H 	0.7206	0.7424	0.207	-0.106
Mof_C 	C 	0.7752	0.709	0.1789	-0.445
Mof_C 	C 	0.5848	0.6708	0.161	-0.208
Mof_C 	C 	0.5332	0.6728	0.154	0.802
Mof_N 	N 	0.617	0.6628	0.1374	-0.21
Mof_H 	H 	0.6026	0.6577	0.1203	0.094
Mof_O 	O 	0.6013	0.6722	0.1866	-0.109
Mof_C 	C 	0.4917	0.675	0.1757	-5.863
Mof_C 	C 	0.483	0.586	0.1914	14.021
Mof_H 	H 	0.5146	0.5599	0.1969	-3.836
Mof_H 	H 	0.4688	0.5404	0.1772	-3.742
Mof_C 	C 	0.4536	0.583	0.2176	-20.979
Mof_H 	H 	0.4717	0.6172	0.2332	5.76
Mof_H 	H 	0.4252	0.6233	0.2134	5.753
Mof_C 	C 	0.4365	0.495	0.2304	26.456
Mof_H 	H 	0.4191	0.4608	0.2146	-7.3
Mof_H 	H 	0.4651	0.4558	0.2348	-7.222
Mof_C 	C 	0.4071	0.49	0.2557	-28.853
Mof_H 	H 	0.375	0.5112	0.2494	8.212
Mof_H 	H 	0.4191	0.5394	0.2696	8.068
Mof_C 	C 	0.4	0.404	0.2727	28.226
Mof_H 	H 	0.3783	0.418	0.2891	-8.314
Mof_H 	H 	0.4308	0.3817	0.2805	-7.921
Mof_H 	H 	0.3862	0.3533	0.2602	-7.956
Mof_C 	C 	0.3105	0.695	0.3269	0.126
Mof_C 	C 	0.3309	0.723	0.3001	-0.526
Mof_H 	H 	0.3646	0.723	0.2981	0.127
Mof_C 	C 	0.3024	0.75	0.276	-0.09
Mof_C 	C 	0.2529	0.751	0.2789	-0.006
Mof_H 	H 	0.2335	0.7698	0.2628	0.036
Mof_C 	C 	0.2317	0.724	0.305	0.451
Mof_H 	H 	0.1979	0.7233	0.3068	-0.118
Mof_C 	C 	0.2603	0.697	0.3289	0.197
Mof_C 	C 	0.2389	0.673	0.356	-0.2
Mof_C 	C 	0.189	0.673	0.3592	-0.241
Mof_H 	H 	0.1695	0.6905	0.3429	0.101
Mof_C 	C 	0.1678	0.648	0.3857	0.065
Mof_H 	H 	0.134	0.6439	0.3872	-0.028
Mof_C 	C 	0.196	0.6277	0.4102	0.024
Mof_H 	H 	0.1815	0.6142	0.4287	-0.003
Mof_C 	C 	0.2456	0.628	0.4075	0.102
Mof_H 	H 	0.2648	0.6095	0.4238	0.091
Mof_C 	C 	0.2674	0.654	0.3806	0.035
Mof_C 	C 	0.3186	0.654	0.3789	0.028
Mof_C 	C 	0.3477	0.638	0.4039	-0.047
Mof_H 	H 	0.3329	0.6242	0.4222	0.064
Mof_C 	C 	0.3972	0.643	0.4025	-0.006
Mof_H 	H 	0.4158	0.6414	0.42	0.015
Mof_C 	C 	0.4193	0.649	0.3746	-0.01
Mof_H 	H 	0.4527	0.6393	0.3725	0.043
Mof_C 	C 	0.3907	0.671	0.3501	0.029
Mof_H 	H 	0.4058	0.6871	0.332	0.051
Mof_C 	C 	0.34	0.669	0.3512	-0.055
Mof_C 	C 	0.374	0.823	0.2469	0.593
Mof_C 	C 	0.3836	0.867	0.2195	-1.519
Mof_H 	H 	0.3897	0.8131	0.2055	0.474
Mof_H 	H 	0.3537	0.8985	0.2131	0.494
Mof_C 	C 	0.4191	0.932	0.2155	2.149
Mof_H 	H 	0.4483	0.9063	0.225	-0.313
Mof_H 	H 	0.4102	0.9921	0.2263	-1.032
Mof_C 	C 	0.4319	0.96	0.1845	-1.98
Mof_H 	H 	0.4472	0.9042	0.1748	0.782
Mof_H 	H 	0.402	0.9747	0.1736	0.609
Mof_C 	C 	0.4638	0.044	0.1818	0.319
Mof_H 	H 	0.4628	0.0666	0.1611	-0.097
Mof_H 	H 	0.4967	0.022	0.1858	-0.257
Mof_C 	C 	0.4544	0.129	0.2008	-1.752
Mof_H 	H 	0.4513	0.1072	0.2215	0.484
Mof_H 	H 	0.4238	0.1591	0.1949	0.283
Mof_C 	C 	0.4933	0.204	0.1989	1.797
Mof_H 	H 	0.522	0.1796	0.2093	-0.504
Mof_H 	H 	0.5018	0.2144	0.178	-0.493
Mof_C 	C 	0.479	0.299	0.2123	-2.653
Mof_H 	H 	0.5057	0.3445	0.2116	1.233
Mof_H 	H 	0.4691	0.2892	0.2328	1.284
Mof_H 	H 	0.4519	0.3265	0.2012	1.306
Mof_N 	N 	0.3257	0.7821	0.2494	-0.237
Mof_H 	H 	0.3093	0.7764	0.2329	0.024
Mof_O 	O 	0.4034	0.834	0.267	-0.466
Mof_C 	C 	0.5157	0.746	0.1724	1.875
Mof_C 	C 	0.4607	0.746	0.1762	1.336
Mof_C 	C 	0.4385	0.811	0.1926	-0.043
Mof_H 	H 	0.4074	0.8133	0.1822	-0.115
Mof_H 	H 	0.4322	0.7714	0.2103	-0.321
Mof_C 	C 	0.438	0.897	0.2044	-2.073
Mof_H 	H 	0.4733	0.9081	0.2063	0.536
Mof_H 	H 	0.428	0.8805	0.2246	0.229
Mof_C 	C 	0.424	0.987	0.2028	2.024
Mof_H 	H 	0.4212	0.0041	0.224	0.01
Mof_H 	H 	0.39	0.9775	0.1966	-0.59
Mof_C 	C 	0.433	0.072	0.1913	-1.456
Mof_H 	H 	0.4212	0.1233	0.2045	0.793
Mof_H 	H 	0.4165	0.0777	0.1722	0.441
Mof_H 	H 	0.4672	0.0791	0.1885	0.891
Mof_C 	C 	0.2461	0.6872	0.3453	0.281
Mof_C 	C 	0.1968	0.6882	0.3419	-0.17
Mof_H 	H 	0.1832	0.7074	0.3236	0.092
Mof_C 	C 	0.1673	0.6611	0.3651	0.366
Mof_C 	C 	0.1875	0.6409	0.3925	-0.293
Mof_H 	H 	0.1674	0.6263	0.4088	0.109
Mof_C 	C 	0.2366	0.6419	0.3962	0.109
Mof_H 	H 	0.25	0.6276	0.4149	-0.167
Mof_C 	C 	0.2663	0.664	0.3724	-0.075
Mof_C 	C 	0.3162	0.663	0.3755	0.022
Mof_C 	C 	0.3368	0.647	0.4031	-0.024
Mof_H 	H 	0.317	0.6418	0.42	-0.019
Mof_C 	C 	0.3858	0.638	0.4062	-0.007
Mof_H 	H 	0.3993	0.6213	0.4247	0.01
Mof_C 	C 	0.4152	0.654	0.3818	-0.045
Mof_H 	H 	0.4489	0.6554	0.3841	0.013
Mof_C 	C 	0.3949	0.667	0.3541	-0.005
Mof_H 	H 	0.4146	0.6673	0.3371	-0.063
Mof_C 	C 	0.3452	0.679	0.3511	-0.063
Mof_C 	C 	0.3245	0.7	0.3235	0.217
Mof_C 	C 	0.3529	0.718	0.2985	0.217
Mof_H 	H 	0.3866	0.7115	0.2998	-0.29
Mof_C 	C 	0.332	0.7442	0.272	0.128
Mof_H 	H 	0.3514	0.7546	0.2552	-0.219
Mof_C 	C 	0.2826	0.7557	0.2699	0.177
Mof_H 	H 	0.2684	0.7762	0.2519	-0.054
Mof_C 	C 	0.2543	0.7367	0.2944	-0.216
Mof_H 	H 	0.2206	0.7424	0.293	-0.105
Mof_C 	C 	0.2752	0.709	0.3211	-0.45
Mof_C 	C 	0.0848	0.6708	0.339	-0.189
Mof_C 	C 	0.0332	0.6728	0.346	0.762
Mof_N 	N 	0.117	0.6628	0.3626	-0.213
Mof_H 	H 	0.1026	0.6577	0.3797	0.096
Mof_O 	O 	0.1013	0.6722	0.3134	-0.106
Mof_C 	C 	0.9917	0.675	0.3243	-5.615
Mof_C 	C 	0.983	0.586	0.3086	13.412
Mof_H 	H 	0.0146	0.5599	0.3031	-3.667
Mof_H 	H 	0.9688	0.5404	0.3228	-3.578
Mof_C 	C 	0.9536	0.583	0.2824	-20.072
Mof_H 	H 	0.9717	0.6172	0.2668	5.513
Mof_H 	H 	0.9252	0.6233	0.2866	5.506
Mof_C 	C 	0.9365	0.495	0.2696	25.299
Mof_H 	H 	0.9191	0.4608	0.2854	-6.98
Mof_H 	H 	0.9651	0.4558	0.2652	-6.907
Mof_C 	C 	0.9071	0.49	0.2443	-27.595
Mof_H 	H 	0.875	0.5112	0.2506	7.856
Mof_H 	H 	0.9191	0.5394	0.2304	7.717
Mof_C 	C 	0.9	0.404	0.2273	26.981
Mof_H 	H 	0.8783	0.418	0.2109	-7.947
Mof_H 	H 	0.9308	0.3817	0.2195	-7.574
Mof_H 	H 	0.8862	0.3533	0.2398	-7.605
Mof_C 	C 	0.8105	0.695	0.1731	0.122
Mof_C 	C 	0.8309	0.723	0.1999	-0.513
Mof_H 	H 	0.8646	0.723	0.2019	0.123
Mof_C 	C 	0.8024	0.75	0.224	-0.087
Mof_C 	C 	0.7529	0.751	0.2211	-0.008
Mof_H 	H 	0.7335	0.7698	0.2372	0.032
Mof_C 	C 	0.7317	0.724	0.195	0.445
Mof_H 	H 	0.6979	0.7233	0.1932	-0.119
Mof_C 	C 	0.7603	0.697	0.1711	0.194
Mof_C 	C 	0.7389	0.673	0.144	-0.198
Mof_C 	C 	0.689	0.673	0.1408	-0.24
Mof_H 	H 	0.6695	0.6905	0.1571	0.1
Mof_C 	C 	0.6678	0.648	0.1143	0.066
Mof_H 	H 	0.634	0.6439	0.1128	-0.028
Mof_C 	C 	0.696	0.6277	0.0898	0.022
Mof_H 	H 	0.6815	0.6142	0.0713	-0.002
Mof_C 	C 	0.7456	0.628	0.0925	0.102
Mof_H 	H 	0.7648	0.6095	0.0762	0.091
Mof_C 	C 	0.7674	0.654	0.1194	0.035
Mof_C 	C 	0.8186	0.654	0.1211	0.027
Mof_C 	C 	0.8477	0.638	0.0961	-0.047
Mof_H 	H 	0.8329	0.6242	0.0778	0.063
Mof_C 	C 	0.8972	0.643	0.0975	-0.006
Mof_H 	H 	0.9158	0.6414	0.08	0.015
Mof_C 	C 	0.9193	0.649	0.1254	-0.01
Mof_H 	H 	0.9527	0.6393	0.1275	0.042
Mof_C 	C 	0.8907	0.671	0.1499	0.027
Mof_H 	H 	0.9058	0.6871	0.168	0.043
Mof_C 	C 	0.84	0.669	0.1488	-0.053
Mof_C 	C 	0.874	0.823	0.2531	0.583
Mof_C 	C 	0.8836	0.867	0.2805	-1.483
Mof_H 	H 	0.8897	0.8131	0.2945	0.462
Mof_H 	H 	0.8537	0.8985	0.2869	0.481
Mof_C 	C 	0.9191	0.932	0.2845	2.081
Mof_H 	H 	0.9483	0.9063	0.275	-0.3
Mof_H 	H 	0.9102	0.9921	0.2737	-0.985
Mof_C 	C 	0.9319	0.96	0.3155	-1.951
Mof_H 	H 	0.9472	0.9042	0.3252	0.767
Mof_H 	H 	0.902	0.9747	0.3264	0.6
Mof_C 	C 	0.9638	0.044	0.3182	0.348
Mof_H 	H 	0.9628	0.0666	0.3389	-0.102
Mof_H 	H 	0.9967	0.022	0.3142	-0.254
Mof_C 	C 	0.9544	0.129	0.2992	-1.752
Mof_H 	H 	0.9513	0.1072	0.2785	0.482
Mof_H 	H 	0.9238	0.1591	0.3051	0.291
Mof_C 	C 	0.9933	0.204	0.3011	1.787
Mof_H 	H 	0.022	0.1796	0.2907	-0.516
Mof_H 	H 	0.0018	0.2144	0.322	-0.489
Mof_C 	C 	0.979	0.299	0.2877	-2.614
Mof_H 	H 	0.0057	0.3445	0.2884	1.203
Mof_H 	H 	0.9691	0.2892	0.2672	1.247
Mof_H 	H 	0.9519	0.3265	0.2988	1.272
Mof_N 	N 	0.8257	0.7821	0.2506	-0.24
Mof_H 	H 	0.8093	0.7764	0.2671	0.028
Mof_O 	O 	0.9034	0.834	0.233	-0.454
Mof_C 	C 	0.0157	0.746	0.3276	1.807
Mof_C 	C 	0.9607	0.746	0.3238	1.287
Mof_C 	C 	0.9385	0.811	0.3074	-0.066
Mof_H 	H 	0.9074	0.8133	0.3178	-0.104
Mof_H 	H 	0.9322	0.7714	0.2897	-0.297
Mof_C 	C 	0.938	0.897	0.2956	-1.964
Mof_H 	H 	0.9733	0.9081	0.2937	0.521
Mof_H 	H 	0.928	0.8805	0.2754	0.213
Mof_C 	C 	0.924	0.987	0.2972	1.924
Mof_H 	H 	0.9212	0.0041	0.276	0.005
Mof_H 	H 	0.89	0.9775	0.3034	-0.562
Mof_C 	C 	0.933	0.072	0.3087	-1.345
Mof_H 	H 	0.9212	0.1233	0.2955	0.752
Mof_H 	H 	0.9165	0.0777	0.3278	0.406
Mof_H 	H 	0.9672	0.0791	0.3115	0.838
Mof_C 	C 	0.7539	0.3128	0.6547	0.281
Mof_C 	C 	0.8032	0.3118	0.6581	-0.17
Mof_H 	H 	0.8168	0.2926	0.6764	0.092
Mof_C 	C 	0.8327	0.3389	0.6349	0.366
Mof_C 	C 	0.8125	0.3591	0.6075	-0.293
Mof_H 	H 	0.8326	0.3737	0.5912	0.109
Mof_C 	C 	0.7634	0.3581	0.6038	0.109
Mof_H 	H 	0.75	0.3724	0.5851	-0.167
Mof_C 	C 	0.7337	0.336	0.6276	-0.075
Mof_C 	C 	0.6838	0.337	0.6245	0.022
Mof_C 	C 	0.6632	0.353	0.5969	-0.024
Mof_H 	H 	0.683	0.3582	0.58	-0.019
Mof_C 	C 	0.6142	0.362	0.5938	-0.007
Mof_H 	H 	0.6007	0.3787	0.5753	0.01
Mof_C 	C 	0.5848	0.346	0.6182	-0.045
Mof_H 	H 	0.5511	0.3446	0.6159	0.013
Mof_C 	C 	0.6051	0.333	0.6459	-0.005
Mof_H 	H 	0.5854	0.3327	0.6629	-0.063
Mof_C 	C 	0.6548	0.321	0.6489	-0.063
Mof_C 	C 	0.6755	0.3	0.6765	0.217
Mof_C 	C 	0.6471	0.282	0.7015	0.217
Mof_H 	H 	0.6134	0.2885	0.7002	-0.29
Mof_C 	C 	0.668	0.2558	0.728	0.128
Mof_H 	H 	0.6486	0.2454	0.7448	-0.219
Mof_C 	C 	0.7174	0.2443	0.7301	0.177
Mof_H 	H 	0.7316	0.2238	0.7481	-0.054
Mof_C 	C 	0.7457	0.2633	0.7056	-0.216
Mof_H 	H 	0.7794	0.2576	0.707	-0.105
Mof_C 	C 	0.7248	0.291	0.6789	-0.45
Mof_C 	C 	0.9152	0.3292	0.661	-0.189
Mof_C 	C 	0.9668	0.3272	0.654	0.762
Mof_N 	N 	0.883	0.3372	0.6374	-0.213
Mof_H 	H 	0.8974	0.3423	0.6203	0.096
Mof_O 	O 	0.8987	0.3278	0.6866	-0.106
Mof_C 	C 	0.0083	0.325	0.6757	-5.615
Mof_C 	C 	0.017	0.414	0.6914	13.412
Mof_H 	H 	0.9854	0.4401	0.6969	-3.667
Mof_H 	H 	0.0312	0.4596	0.6772	-3.578
Mof_C 	C 	0.0464	0.417	0.7176	-20.072
Mof_H 	H 	0.0283	0.3828	0.7332	5.513
Mof_H 	H 	0.0748	0.3767	0.7134	5.506
Mof_C 	C 	0.0635	0.505	0.7304	25.299
Mof_H 	H 	0.0809	0.5392	0.7146	-6.98
Mof_H 	H 	0.0349	0.5442	0.7348	-6.907
Mof_C 	C 	0.0929	0.51	0.7557	-27.595
Mof_H 	H 	0.125	0.4888	0.7494	7.856
Mof_H 	H 	0.0809	0.4606	0.7696	7.717
Mof_C 	C 	0.1	0.596	0.7727	26.981
Mof_H 	H 	0.1217	0.582	0.7891	-7.947
Mof_H 	H 	0.0692	0.6183	0.7805	-7.574
Mof_H 	H 	0.1138	0.6467	0.7602	-7.605
Mof_C 	C 	0.1895	0.305	0.8269	0.122
Mof_C 	C 	0.1691	0.277	0.8001	-0.513
Mof_H 	H 	0.1354	0.277	0.7981	0.123
Mof_C 	C 	0.1976	0.25	0.776	-0.087
Mof_C 	C 	0.2471	0.249	0.7789	-0.008
Mof_H 	H 	0.2665	0.2302	0.7628	0.032
Mof_C 	C 	0.2683	0.276	0.805	0.445
Mof_H 	H 	0.3021	0.2767	0.8068	-0.119
Mof_C 	C 	0.2397	0.303	0.8289	0.194
Mof_C 	C 	0.2611	0.327	0.856	-0.198
Mof_C 	C 	0.311	0.327	0.8592	-0.24
Mof_H 	H 	0.3305	0.3095	0.8429	0.1
Mof_C 	C 	0.3322	0.352	0.8857	0.066
Mof_H 	H 	0.366	0.3561	0.8872	-0.028
Mof_C 	C 	0.304	0.3723	0.9102	0.022
Mof_H 	H 	0.3185	0.3858	0.9287	-0.002
Mof_C 	C 	0.2544	0.372	0.9075	0.102
Mof_H 	H 	0.2352	0.3905	0.9238	0.091
Mof_C 	C 	0.2326	0.346	0.8806	0.035
Mof_C 	C 	0.1814	0.346	0.8789	0.027
Mof_C 	C 	0.1523	0.362	0.9039	-0.047
Mof_H 	H 	0.1671	0.3758	0.9222	0.063
Mof_C 	C 	0.1028	0.357	0.9025	-0.006
Mof_H 	H 	0.0842	0.3586	0.92	0.015
Mof_C 	C 	0.0807	0.351	0.8746	-0.01
Mof_H 	H 	0.0473	0.3607	0.8725	0.042
Mof_C 	C 	0.1093	0.329	0.8501	0.027
Mof_H 	H 	0.0942	0.3129	0.832	0.043
Mof_C 	C 	0.16	0.331	0.8512	-0.053
Mof_C 	C 	0.126	0.177	0.7469	0.583
Mof_C 	C 	0.1164	0.133	0.7195	-1.483
Mof_H 	H 	0.1103	0.1869	0.7055	0.462
Mof_H 	H 	0.1463	0.1015	0.7131	0.481
Mof_C 	C 	0.0809	0.068	0.7155	2.081
Mof_H 	H 	0.0517	0.0937	0.725	-0.3
Mof_H 	H 	0.0898	0.0079	0.7263	-0.985
Mof_C 	C 	0.0681	0.04	0.6845	-1.951
Mof_H 	H 	0.0528	0.0958	0.6748	0.767
Mof_H 	H 	0.098	0.0253	0.6736	0.6
Mof_C 	C 	0.0362	0.956	0.6818	0.348
Mof_H 	H 	0.0372	0.9334	0.6611	-0.102
Mof_H 	H 	0.0033	0.978	0.6858	-0.254
Mof_C 	C 	0.0456	0.871	0.7008	-1.752
Mof_H 	H 	0.0487	0.8928	0.7215	0.482
Mof_H 	H 	0.0762	0.8409	0.6949	0.291
Mof_C 	C 	0.0067	0.796	0.6989	1.787
Mof_H 	H 	0.978	0.8204	0.7093	-0.516
Mof_H 	H 	0.9982	0.7856	0.678	-0.489
Mof_C 	C 	0.021	0.701	0.7123	-2.614
Mof_H 	H 	0.9943	0.6555	0.7116	1.203
Mof_H 	H 	0.0309	0.7108	0.7328	1.247
Mof_H 	H 	0.0481	0.6735	0.7012	1.272
Mof_N 	N 	0.1743	0.2179	0.7494	-0.24
Mof_H 	H 	0.1907	0.2236	0.7329	0.028
Mof_O 	O 	0.0966	0.166	0.767	-0.454
Mof_C 	C 	0.9843	0.254	0.6724	1.807
Mof_C 	C 	0.0393	0.254	0.6762	1.287
Mof_C 	C 	0.0615	0.189	0.6926	-0.066
Mof_H 	H 	0.0926	0.1867	0.6822	-0.104
Mof_H 	H 	0.0678	0.2286	0.7103	-0.297
Mof_C 	C 	0.062	0.103	0.7044	-1.964
Mof_H 	H 	0.0267	0.0919	0.7063	0.521
Mof_H 	H 	0.072	0.1195	0.7246	0.213
Mof_C 	C 	0.076	0.013	0.7028	1.924
Mof_H 	H 	0.0788	0.9959	0.724	0.005
Mof_H 	H 	0.11	0.0225	0.6966	-0.562
Mof_C 	C 	0.067	0.928	0.6913	-1.345
Mof_H 	H 	0.0788	0.8767	0.7045	0.752
Mof_H 	H 	0.0835	0.9223	0.6722	0.406
Mof_H 	H 	0.0328	0.9209	0.6885	0.838
Mof_C 	C 	0.2539	0.3128	0.8453	0.278
Mof_C 	C 	0.3032	0.3118	0.8419	-0.167
Mof_H 	H 	0.3168	0.2926	0.8236	0.089
Mof_C 	C 	0.3327	0.3389	0.8651	0.361
Mof_C 	C 	0.3125	0.3591	0.8925	-0.291
Mof_H 	H 	0.3326	0.3737	0.9088	0.109
Mof_C 	C 	0.2634	0.3581	0.8962	0.109
Mof_H 	H 	0.25	0.3724	0.9149	-0.166
Mof_C 	C 	0.2337	0.336	0.8724	-0.075
Mof_C 	C 	0.1838	0.337	0.8755	0.022
Mof_C 	C 	0.1632	0.353	0.9031	-0.024
Mof_H 	H 	0.183	0.3582	0.92	-0.019
Mof_C 	C 	0.1142	0.362	0.9062	-0.007
Mof_H 	H 	0.1007	0.3787	0.9247	0.01
Mof_C 	C 	0.0848	0.346	0.8818	-0.045
Mof_H 	H 	0.0511	0.3446	0.8841	0.014
Mof_C 	C 	0.1051	0.333	0.8541	-0.006
Mof_H 	H 	0.0854	0.3327	0.8371	-0.052
Mof_C 	C 	0.1548	0.321	0.8511	-0.062
Mof_C 	C 	0.1755	0.3	0.8235	0.214
Mof_C 	C 	0.1471	0.282	0.7985	0.211
Mof_H 	H 	0.1134	0.2885	0.7998	-0.276
Mof_C 	C 	0.168	0.2558	0.772	0.127
Mof_H 	H 	0.1486	0.2454	0.7552	-0.207
Mof_C 	C 	0.2174	0.2443	0.7699	0.173
Mof_H 	H 	0.2316	0.2238	0.7519	-0.052
Mof_C 	C 	0.2457	0.2633	0.7944	-0.21
Mof_H 	H 	0.2794	0.2576	0.793	-0.106
Mof_C 	C 	0.2248	0.291	0.8211	-0.445
Mof_C 	C 	0.4152	0.3292	0.839	-0.208
Mof_C 	C 	0.4668	0.3272	0.846	0.802
Mof_N 	N 	0.383	0.3372	0.8626	-0.21
Mof_H 	H 	0.3974	0.3423	0.8797	0.094
Mof_O 	O 	0.3987	0.3278	0.8134	-0.109
Mof_C 	C 	0.5083	0.325	0.8243	-5.863
Mof_C 	C 	0.517	0.414	0.8086	14.021
Mof_H 	H 	0.4854	0.4401	0.8031	-3.836
Mof_H 	H 	0.5312	0.4596	0.8228	-3.742
Mof_C 	C 	0.5464	0.417	0.7824	-20.979
Mof_H 	H 	0.5283	0.3828	0.7668	5.76
Mof_H 	H 	0.5748	0.3767	0.7866	5.753
Mof_C 	C 	0.5635	0.505	0.7696	26.456
Mof_H 	H 	0.5809	0.5392	0.7854	-7.3
Mof_H 	H 	0.5349	0.5442	0.7652	-7.222
Mof_C 	C 	0.5929	0.51	0.7443	-28.853
Mof_H 	H 	0.625	0.4888	0.7506	8.212
Mof_H 	H 	0.5809	0.4606	0.7304	8.068
Mof_C 	C 	0.6	0.596	0.7273	28.226
Mof_H 	H 	0.6217	0.582	0.7109	-8.314
Mof_H 	H 	0.5692	0.6183	0.7195	-7.921
Mof_H 	H 	0.6138	0.6467	0.7398	-7.956
Mof_C 	C 	0.6895	0.305	0.6731	0.126
Mof_C 	C 	0.6691	0.277	0.6999	-0.526
Mof_H 	H 	0.6354	0.277	0.7019	0.127
Mof_C 	C 	0.6976	0.25	0.724	-0.09
Mof_C 	C 	0.7471	0.249	0.7211	-0.006
Mof_H 	H 	0.7665	0.2302	0.7372	0.036
Mof_C 	C 	0.7683	0.276	0.695	0.451
Mof_H 	H 	0.8021	0.2767	0.6932	-0.118
Mof_C 	C 	0.7397	0.303	0.6711	0.197
Mof_C 	C 	0.7611	0.327	0.644	-0.2
Mof_C 	C 	0.811	0.327	0.6408	-0.241
Mof_H 	H 	0.8305	0.3095	0.6571	0.101
Mof_C 	C 	0.8322	0.352	0.6143	0.065
Mof_H 	H 	0.866	0.3561	0.6128	-0.028
Mof_C 	C 	0.804	0.3723	0.5898	0.024
Mof_H 	H 	0.8185	0.3858	0.5713	-0.003
Mof_C 	C 	0.7544	0.372	0.5925	0.102
Mof_H 	H 	0.7352	0.3905	0.5762	0.091
Mof_C 	C 	0.7326	0.346	0.6194	0.035
Mof_C 	C 	0.6814	0.346	0.6211	0.028
Mof_C 	C 	0.6523	0.362	0.5961	-0.047
Mof_H 	H 	0.6671	0.3758	0.5778	0.064
Mof_C 	C 	0.6028	0.357	0.5975	-0.006
Mof_H 	H 	0.5842	0.3586	0.58	0.015
Mof_C 	C 	0.5807	0.351	0.6254	-0.01
Mof_H 	H 	0.5473	0.3607	0.6275	0.043
Mof_C 	C 	0.6093	0.329	0.6499	0.029
Mof_H 	H 	0.5942	0.3129	0.668	0.051
Mof_C 	C 	0.66	0.331	0.6488	-0.055
Mof_C 	C 	0.626	0.177	0.7531	0.593
Mof_C 	C 	0.6164	0.133	0.7805	-1.519
Mof_H 	H 	0.6103	0.1869	0.7945	0.474
Mof_H 	H 	0.6463	0.1015	0.7869	0.494
Mof_C 	C 	0.5809	0.068	0.7845	2.149
Mof_H 	H 	0.5517	0.0937	0.775	-0.313
Mof_H 	H 	0.5898	0.0079	0.7737	-1.032
Mof_C 	C 	0.5681	0.04	0.8155	-1.98
Mof_H 	H 	0.5528	0.0958	0.8252	0.782
Mof_H 	H 	0.598	0.0253	0.8264	0.609
Mof_C 	C 	0.5362	0.956	0.8182	0.319
Mof_H 	H 	0.5372	0.9334	0.8389	-0.097
Mof_H 	H 	0.5033	0.978	0.8142	-0.257
Mof_C 	C 	0.5456	0.871	0.7992	-1.752
Mof_H 	H 	0.5487	0.8928	0.7785	0.484
Mof_H 	H 	0.5762	0.8409	0.8051	0.283
Mof_C 	C 	0.5067	0.796	0.8011	1.797
Mof_H 	H 	0.478	0.8204	0.7907	-0.504
Mof_H 	H 	0.4982	0.7856	0.822	-0.493
Mof_C 	C 	0.521	0.701	0.7877	-2.653
Mof_H 	H 	0.4943	0.6555	0.7884	1.233
Mof_H 	H 	0.5309	0.7108	0.7672	1.284
Mof_H 	H 	0.5481	0.6735	0.7988	1.306
Mof_N 	N 	0.6743	0.2179	0.7506	-0.237
Mof_H 	H 	0.6907	0.2236	0.7671	0.024
Mof_O 	O 	0.5966	0.166	0.733	-0.466
Mof_C 	C 	0.4843	0.254	0.8276	1.875
Mof_C 	C 	0.5393	0.254	0.8238	1.336
Mof_C 	C 	0.5615	0.189	0.8074	-0.043
Mof_H 	H 	0.5926	0.1867	0.8178	-0.115
Mof_H 	H 	0.5678	0.2286	0.7897	-0.321
Mof_C 	C 	0.562	0.103	0.7956	-2.073
Mof_H 	H 	0.5267	0.0919	0.7937	0.536
Mof_H 	H 	0.572	0.1195	0.7754	0.229
Mof_C 	C 	0.576	0.013	0.7972	2.024
Mof_H 	H 	0.5788	0.9959	0.776	0.01
Mof_H 	H 	0.61	0.0225	0.8034	-0.59
Mof_C 	C 	0.567	0.928	0.8087	-1.456
Mof_H 	H 	0.5788	0.8767	0.7955	0.793
Mof_H 	H 	0.5835	0.9223	0.8278	0.441
Mof_H 	H 	0.5328	0.9209	0.8115	0.891
_end
