data_functionalizedCrystal
_audit_creation_method	'EQeq! by Chris Wilmer'
_symmetry_space_group_name_H-M	'P1'
_symmetry_Int_Tables_number	1
_symmetry_cell_setting	triclinic
loop_
_symmetry_equiv_pos_as_xyz
  x,y,z
_cell_length_a	20.373
_cell_length_b	23.7884
_cell_length_c	38.3447
_cell_angle_alpha	81.5391
_cell_angle_beta	74.594
_cell_angle_gamma	64.6457
loop_
_atom_site_label
_atom_site_type_symbol
_atom_site_fract_x
_atom_site_fract_y
_atom_site_fract_z
_atom_site_charge
Mof_Zn	Zn	0.81134	0.8441	0.86028	1.18
Mof_Zn	Zn	0.7188	0.75499	0.84265	1.133
Mof_Zn	Zn	0.51905	0.84221	0.86623	1.179
Mof_Zn	Zn	0.77003	0.72468	0.74778	1.182
Mof_Zn	Zn	0.76983	0.60932	0.89696	1.176
Mof_Zn	Zn	0.48428	0.3441	0.36028	1.18
Mof_Zn	Zn	0.68356	0.25499	0.34265	1.133
Mof_Zn	Zn	0.77251	0.34221	0.36623	1.179
Mof_Zn	Zn	0.75751	0.22468	0.24778	1.182
Mof_Zn	Zn	0.72389	0.10932	0.39696	1.176
Mof_H 	H 	0.7426	0.2155	0.1383	0.007
Mof_H 	H 	0.4209	0.8711	0.7979	0.092
Mof_H 	H 	0.9523	0.4246	0.9304	-0.009
Mof_H 	H 	0.9151	0.9884	0.848	-0.001
Mof_H 	H 	0.7636	0.4122	0.9262	-0.007
Mof_H 	H 	0.9974	0.7967	0.6499	0.196
Mof_H 	H 	0.0104	0.8537	0.6575	0.193
Mof_H 	H 	0.0654	0.786	0.6658	0.185
Mof_H 	H 	0.0036	0.3211	0.9473	0.113
Mof_H 	H 	0.4612	0.9914	0.8906	0.097
Mof_H 	H 	0.4541	0.1351	0.9143	0.186
Mof_H 	H 	0.4189	0.1198	0.8872	0.194
Mof_H 	H 	0.4072	0.0952	0.9276	0.195
Mof_H 	H 	0.8147	0.3072	0.9418	0.106
Mof_H 	H 	0.3243	0.7363	0.9675	0.211
Mof_H 	H 	0.3496	0.6643	0.9661	0.204
Mof_H 	H 	0.3568	0.6919	0.9989	0.205
Mof_H 	H 	0.7002	0.9902	0.8872	0.08
Mof_H 	H 	0.1731	0.0968	0.9084	0.112
Mof_H 	H 	0.8742	0.1077	0.9813	0.037
Mof_H 	H 	0.9524	0.051	0.979	0.05
Mof_H 	H 	0.9072	0.7711	0.6959	0.105
Mof_H 	H 	0.9602	0.1449	0.1345	-0.003
Mof_H 	H 	0.8718	0.0141	0.9715	0.123
Mof_H 	H 	0.9885	0.1298	0.0742	0.118
Mof_H 	H 	0.8642	0.2167	0.9727	0.037
Mof_H 	H 	0.9078	0.2	0.9324	0.038
Mof_H 	H 	0.0657	0.1414	0.9504	0.035
Mof_H 	H 	0.0419	0.1196	0.9208	0.042
Mof_H 	H 	0.4192	0.7714	0.9262	0.116
Mof_H 	H 	0.6137	0.5817	0.9507	0.068
Mof_H 	H 	0.0382	0.8878	0.7446	0.206
Mof_H 	H 	0.0838	0.8452	0.7114	0.188
Mof_H 	H 	0.0197	0.9104	0.7064	0.193
Mof_H 	H 	0.9466	0.0596	0.8676	0.11
Mof_H 	H 	0.6244	0.7782	0.701	0.089
Mof_H 	H 	0.9448	0.8668	0.7842	0.097
Mof_H 	H 	0.7686	0.2059	0.0741	0.099
Mof_H 	H 	0.8386	0.9438	0.9518	0.003
Mof_H 	H 	0.879	0.376	0.8278	0.206
Mof_H 	H 	0.8308	0.384	0.8002	0.197
Mof_H 	H 	0.9165	0.3671	0.7865	0.197
Mof_H 	H 	0.8583	0.4779	0.7043	0.17
Mof_H 	H 	0.9161	0.4181	0.7201	0.161
Mof_H 	H 	0.8312	0.431	0.7306	0.161
Mof_H 	H 	0.5352	0.5418	0.9834	0.164
Mof_H 	H 	0.4608	0.5877	0.0071	0.159
Mof_H 	H 	0.4593	0.561	0.9724	0.159
Mof_H 	H 	0.5476	0.1417	0.9049	0.159
Mof_H 	H 	0.6174	0.1004	0.921	0.174
Mof_H 	H 	0.6275	0.1165	0.8793	0.171
Mof_H 	H 	0.5446	0.805	0.661	0.188
Mof_H 	H 	0.4685	0.8006	0.68	0.18
Mof_H 	H 	0.4718	0.8658	0.67	0.188
Mof_H 	H 	0.3359	0.899	0.7618	0.201
Mof_H 	H 	0.3656	0.9176	0.7218	0.198
Mof_H 	H 	0.3583	0.8538	0.7306	0.187
Mof_H 	H 	0.0441	0.5954	0.9826	0.173
Mof_H 	H 	0.9859	0.5654	0.994	0.172
Mof_H 	H 	0.0501	0.5438	0.9592	0.172
Mof_H 	H 	0.9338	0.7725	0.9157	0.093
Mof_H 	H 	0.9048	0.5848	0.9418	0.082
Mof_H 	H 	0.2957	0.0385	0.8759	-0.006
Mof_H 	H 	0.1602	0.9393	0.9569	0.14
Mof_H 	H 	0.2835	0.8847	0.9271	-0.013
Mof_H 	H 	0.0311	0.7375	0.9515	0.211
Mof_H 	H 	0.0194	0.692	0.9842	0.205
Mof_H 	H 	0.0809	0.6657	0.9491	0.198
Mof_H 	H 	0.8328	0.5729	0.7261	0.07
Mof_H 	H 	0.8415	0.4831	0.8483	0.115
Mof_H 	H 	0.9961	0.0955	0.0177	0.043
Mof_H 	H 	0.9897	0.1645	0.0113	0.037
Mof_H 	H 	0.9036	0.7155	0.6383	0.007
Mof_H 	H 	0.9101	0.3711	0.2979	0.092
Mof_H 	H 	0.6927	0.9246	0.4304	-0.009
Mof_H 	H 	0.2485	0.4884	0.348	-0.002
Mof_H 	H 	0.898	0.9122	0.4262	-0.007
Mof_H 	H 	0.556	0.2967	0.1499	0.198
Mof_H 	H 	0.4784	0.3537	0.1575	0.195
Mof_H 	H 	0.4828	0.286	0.1658	0.187
Mof_H 	H 	0.728	0.8211	0.4473	0.114
Mof_H 	H 	0.6568	0.4914	0.3906	0.097
Mof_H 	H 	0.4965	0.6351	0.4143	0.186
Mof_H 	H 	0.5741	0.6198	0.3872	0.195
Mof_H 	H 	0.57	0.5952	0.4276	0.195
Mof_H 	H 	0.9363	0.8072	0.4418	0.106
Mof_H 	H 	0.9719	0.2363	0.4675	0.21
Mof_H 	H 	0.02	0.1643	0.4661	0.203
Mof_H 	H 	0.9524	0.1919	0.4989	0.204
Mof_H 	H 	0.4224	0.4902	0.3872	0.08
Mof_H 	H 	0.8217	0.5968	0.4084	0.113
Mof_H 	H 	0.0368	0.6077	0.4813	0.037
Mof_H 	H 	0.0176	0.551	0.479	0.049
Mof_H 	H 	0.6258	0.2711	0.1959	0.105
Mof_H 	H 	0.7604	0.6449	0.6345	-0.003
Mof_H 	H 	0.1426	0.5141	0.4715	0.124
Mof_H 	H 	0.8075	0.6298	0.5742	0.118
Mof_H 	H 	0.9464	0.7167	0.4727	0.037
Mof_H 	H 	0.9598	0.7	0.4324	0.037
Mof_H 	H 	0.8425	0.6414	0.4504	0.034
Mof_H 	H 	0.9177	0.6196	0.4208	0.042
Mof_H 	H 	0.8832	0.2714	0.4262	0.116
Mof_H 	H 	0.8539	0.0817	0.4507	0.068
Mof_H 	H 	0.3294	0.3878	0.2446	0.206
Mof_H 	H 	0.3596	0.3452	0.2114	0.188
Mof_H 	H 	0.3635	0.4104	0.2064	0.193
Mof_H 	H 	0.1262	0.5596	0.3676	0.111
Mof_H 	H 	0.8964	0.2782	0.201	0.09
Mof_H 	H 	0.4042	0.3668	0.2842	0.098
Mof_H 	H 	0.9514	0.7059	0.5741	0.099
Mof_H 	H 	0.2658	0.4438	0.4518	0.002
Mof_H 	H 	0.9172	0.876	0.3278	0.205
Mof_H 	H 	0.985	0.884	0.3002	0.196
Mof_H 	H 	0.9299	0.8671	0.2865	0.197
Mof_H 	H 	0.9595	0.9779	0.2043	0.171
Mof_H 	H 	0.9457	0.9181	0.2201	0.162
Mof_H 	H 	0.0072	0.931	0.2306	0.163
Mof_H 	H 	0.9396	0.0418	0.4834	0.163
Mof_H 	H 	0.9444	0.0877	0.5071	0.158
Mof_H 	H 	0.0073	0.061	0.4724	0.157
Mof_H 	H 	0.4058	0.6417	0.4049	0.159
Mof_H 	H 	0.3612	0.6004	0.421	0.174
Mof_H 	H 	0.3767	0.6165	0.3793	0.171
Mof_H 	H 	0.9894	0.305	0.161	0.19
Mof_H 	H 	0.0509	0.3006	0.18	0.181
Mof_H 	H 	0.9924	0.3658	0.17	0.19
Mof_H 	H 	0.0033	0.399	0.2618	0.201
Mof_H 	H 	0.995	0.4176	0.2218	0.198
Mof_H 	H 	0.0573	0.3538	0.2306	0.187
Mof_H 	H 	0.3779	0.0954	0.4826	0.173
Mof_H 	H 	0.4547	0.0654	0.494	0.172
Mof_H 	H 	0.4469	0.0438	0.4592	0.173
Mof_H 	H 	0.378	0.2725	0.4157	0.094
Mof_H 	H 	0.5686	0.0848	0.4418	0.082
Mof_H 	H 	0.7899	0.5385	0.3759	-0.007
Mof_H 	H 	0.9436	0.4393	0.4569	0.141
Mof_H 	H 	0.9047	0.3847	0.4271	-0.014
Mof_H 	H 	0.2799	0.2375	0.4515	0.211
Mof_H 	H 	0.3044	0.192	0.4842	0.205
Mof_H 	H 	0.3043	0.1657	0.4491	0.198
Mof_H 	H 	0.8682	0.0729	0.2261	0.07
Mof_H 	H 	0.8271	0.9831	0.3483	0.115
Mof_H 	H 	0.8907	0.5955	0.5177	0.042
Mof_H 	H 	0.8345	0.6645	0.5113	0.036
Mof_C 	C 	0.79176	0.19981	0.12507	0.086
Mof_C 	C 	0.46086	0.85305	0.77863	-0.198
Mof_C 	C 	0.92519	0.40063	0.93279	0.117
Mof_C 	C 	0.30238	0.95513	0.90031	-0.186
Mof_C 	C 	0.90562	0.99414	0.87262	0.102
Mof_C 	C 	0.8117	0.3934	0.93	0.107
Mof_C 	C 	0.01432	0.81258	0.66578	-0.584
Mof_C 	C 	0.95612	0.33938	0.94278	-0.254
Mof_C 	C 	0.4402	0.6892	0.9528	0.159
Mof_C 	C 	0.5068	0.99199	0.89001	-0.205
Mof_C 	C 	0.44154	0.10432	0.9076	-0.583
Mof_C 	C 	0.84143	0.33139	0.93955	-0.241
Mof_C 	C 	0.64502	0.93872	0.87964	0.066
Mof_C 	C 	0.36	0.69608	0.97332	-0.631
Mof_C 	C 	0.65403	0.99114	0.8872	-0.165
Mof_C 	C 	0.19559	0.05385	0.91217	-0.243
Mof_C 	C 	0.91057	0.04408	0.92198	0.251
Mof_C 	C 	0.15631	0.02224	0.93714	0.264
Mof_C 	C 	0.53394	0.72183	0.91389	0.094
Mof_C 	C 	0.92611	0.09134	0.9683	0
Mof_C 	C 	0.91405	0.79015	0.71335	-0.208
Mof_C 	C 	0.92165	0.15699	0.12271	0.121
Mof_C 	C 	0.9622	0.13686	0.96954	0.017
Mof_C 	C 	0.87208	0.96016	0.89808	-0.154
Mof_C 	C 	0.57721	0.93949	0.88129	0.077
Mof_C 	C 	0.87963	0.00943	0.94691	-0.248
Mof_C 	C 	0.93874	0.14792	0.0864	-0.245
Mof_C 	C 	0.91334	0.20152	0.9566	0.008
Mof_C 	C 	0.91417	0.30512	0.94594	0.234
Mof_C 	C 	0.04245	0.11569	0.94625	0.015
Mof_C 	C 	0.45718	0.73341	0.93063	-0.24
Mof_C 	C 	0.96544	0.81485	0.70487	0.125
Mof_C 	C 	0.88316	0.1653	0.06758	0.225
Mof_C 	C 	0.57636	0.61868	0.9446	-0.14
Mof_C 	C 	0.88406	0.82264	0.77504	0.066
Mof_C 	C 	0.03542	0.87493	0.72263	-0.584
Mof_C 	C 	0.92472	0.03647	0.88429	-0.226
Mof_C 	C 	0.58454	0.79666	0.72026	-0.186
Mof_C 	C 	0.87118	0.79393	0.74911	0.08
Mof_C 	C 	0.93753	0.84826	0.76668	-0.189
Mof_C 	C 	0.82628	0.19263	0.18281	0.34
Mof_C 	C 	0.80697	0.19285	0.08621	-0.202
Mof_C 	C 	0.85985	0.96728	0.93502	0.106
Mof_C 	C 	0.84843	0.18377	0.14257	-0.162
Mof_C 	C 	0.53427	0.82569	0.78297	0.074
Mof_C 	C 	0.59594	0.79724	0.75488	0.07
Mof_C 	C 	0.87213	0.39014	0.8038	-0.61
Mof_C 	C 	0.8662	0.44988	0.72512	-0.486
Mof_C 	C 	0.97849	0.84451	0.73151	0.118
Mof_C 	C 	0.85409	0.48942	0.7604	0.041
Mof_C 	C 	0.8552	0.4634	0.7984	0.16
Mof_C 	C 	0.85378	0.42869	0.92595	-0.164
Mof_C 	C 	0.4984	0.63279	0.95901	0.049
Mof_C 	C 	0.4874	0.5749	0.9829	-0.498
Mof_C 	C 	0.5149	0.0427	0.8973	0.13
Mof_C 	C 	0.5863	0.0452	0.8948	0.072
Mof_C 	C 	0.59569	0.10722	0.9006	-0.509
Mof_C 	C 	0.44993	0.85244	0.7447	0.134
Mof_C 	C 	0.51335	0.82403	0.71607	0.107
Mof_C 	C 	0.49803	0.82388	0.67806	-0.566
Mof_C 	C 	0.36997	0.88363	0.73923	-0.597
Mof_C 	C 	0.81715	0.5616	0.8161	0.108
Mof_C 	C 	0.81486	0.58881	0.78187	0.032
Mof_C 	C 	0.01631	0.57871	0.97387	-0.524
Mof_C 	C 	0.92948	0.73463	0.92061	-0.206
Mof_C 	C 	0.97308	0.68813	0.94191	0.127
Mof_C 	C 	0.96387	0.63173	0.94993	0.075
Mof_C 	C 	0.9115	0.62165	0.93615	-0.172
Mof_C 	C 	0.26959	0.019	0.89302	0.119
Mof_C 	C 	0.18702	0.96032	0.94184	-0.274
Mof_C 	C 	0.26155	0.92766	0.92324	0.148
Mof_C 	C 	0.81849	0.49728	0.91594	0.305
Mof_C 	C 	0.03188	0.69675	0.95829	-0.602
Mof_C 	C 	0.38439	0.915	0.88302	0.37
Mof_C 	C 	0.83357	0.55561	0.74945	-0.141
Mof_C 	C 	0.83876	0.49911	0.82477	-0.252
Mof_C 	C 	0.96666	0.13717	0.00939	0.008
Mof_C 	C 	0.59278	0.66555	0.92009	0.036
Mof_C 	C 	0.87009	0.66837	0.91385	0.062
Mof_C 	C 	0.87987	0.72332	0.90694	0.078
Mof_C 	C 	0.85176	0.91148	0.8856	0.335
Mof_C 	C 	0.88336	0.69981	0.62507	0.086
Mof_C 	C 	0.90746	0.35305	0.27863	-0.198
Mof_C 	C 	0.74139	0.90063	0.43279	0.118
Mof_C 	C 	0.84218	0.45513	0.40031	-0.188
Mof_C 	C 	0.22762	0.49414	0.37262	0.105
Mof_C 	C 	0.8649	0.8934	0.43	0.107
Mof_C 	C 	0.50732	0.31258	0.16578	-0.59
Mof_C 	C 	0.76172	0.83938	0.44278	-0.255
Mof_C 	C 	0.9178	0.1892	0.4528	0.159
Mof_C 	C 	0.6112	0.49199	0.39001	-0.205
Mof_C 	C 	0.54654	0.60432	0.4076	-0.584
Mof_C 	C 	0.88763	0.83139	0.43955	-0.242
Mof_C 	C 	0.53662	0.43872	0.37964	0.066
Mof_C 	C 	0.9706	0.19608	0.47332	-0.628
Mof_C 	C 	0.46763	0.49114	0.3872	-0.164
Mof_C 	C 	0.83839	0.55385	0.41217	-0.245
Mof_C 	C 	0.12337	0.54408	0.42198	0.253
Mof_C 	C 	0.88431	0.52224	0.43714	0.267
Mof_C 	C 	0.83034	0.22183	0.41389	0.094
Mof_C 	C 	0.01425	0.59134	0.4683	0.002
Mof_C 	C 	0.58245	0.29015	0.21335	-0.209
Mof_C 	C 	0.79865	0.65699	0.62271	0.121
Mof_C 	C 	0.9314	0.63686	0.46954	0.015
Mof_C 	C 	0.26968	0.46016	0.39808	-0.156
Mof_C 	C 	0.60201	0.43949	0.38129	0.077
Mof_C 	C 	0.16403	0.50943	0.44691	-0.252
Mof_C 	C 	0.82694	0.64792	0.5864	-0.245
Mof_C 	C 	0.92854	0.70152	0.4566	0.01
Mof_C 	C 	0.83477	0.80512	0.44594	0.235
Mof_C 	C 	0.89561	0.61569	0.44625	0.017
Mof_C 	C 	0.87878	0.23341	0.43063	-0.24
Mof_C 	C 	0.51484	0.31485	0.20487	0.128
Mof_C 	C 	0.88396	0.6653	0.56758	0.225
Mof_C 	C 	0.86036	0.11868	0.4446	-0.139
Mof_C 	C 	0.51826	0.32264	0.27504	0.066
Mof_C 	C 	0.36702	0.37493	0.22263	-0.585
Mof_C 	C 	0.15452	0.53647	0.38429	-0.23
Mof_C 	C 	0.89854	0.29666	0.22026	-0.187
Mof_C 	C 	0.58578	0.29393	0.24911	0.081
Mof_C 	C 	0.44753	0.34826	0.26668	-0.189
Mof_C 	C 	0.79828	0.69263	0.68281	0.34
Mof_C 	C 	0.91397	0.69285	0.58621	-0.202
Mof_C 	C 	0.23785	0.46728	0.43502	0.11
Mof_C 	C 	0.82523	0.68377	0.64257	-0.162
Mof_C 	C 	0.85707	0.32569	0.28297	0.073
Mof_C 	C 	0.85194	0.29724	0.25488	0.07
Mof_C 	C 	0.93393	0.89014	0.3038	-0.61
Mof_C 	C 	0.9588	0.94988	0.22512	-0.49
Mof_C 	C 	0.44549	0.34451	0.23151	0.118
Mof_C 	C 	0.89609	0.98942	0.2604	0.04
Mof_C 	C 	0.883	0.9634	0.2984	0.16
Mof_C 	C 	0.79158	0.92869	0.42595	-0.164
Mof_C 	C 	0.9098	0.13279	0.45901	0.049
Mof_C 	C 	0.9548	0.0749	0.4829	-0.493
Mof_C 	C 	0.5451	0.5427	0.3973	0.13
Mof_C 	C 	0.4737	0.5452	0.3948	0.072
Mof_C 	C 	0.39649	0.60722	0.4006	-0.509
Mof_C 	C 	0.95293	0.35244	0.2447	0.133
Mof_C 	C 	0.94655	0.32403	0.21607	0.108
Mof_C 	C 	3e-05	0.32388	0.17806	-0.571
Mof_C 	C 	0.00717	0.38363	0.23923	-0.598
Mof_C 	C 	0.80515	0.0616	0.3161	0.11
Mof_C 	C 	0.81446	0.08881	0.28187	0.032
Mof_C 	C 	0.43111	0.07871	0.47387	-0.525
Mof_C 	C 	0.41528	0.23463	0.42061	-0.206
Mof_C 	C 	0.39688	0.18813	0.44191	0.128
Mof_C 	C 	0.45447	0.13173	0.44993	0.075
Mof_C 	C 	0.5307	0.12165	0.43615	-0.172
Mof_C 	C 	0.81839	0.519	0.39302	0.122
Mof_C 	C 	0.91082	0.46032	0.44184	-0.277
Mof_C 	C 	0.88755	0.42766	0.42324	0.151
Mof_C 	C 	0.76829	0.99728	0.41594	0.303
Mof_C 	C 	0.31308	0.19675	0.45829	-0.602
Mof_C 	C 	0.81759	0.415	0.38302	0.371
Mof_C 	C 	0.86137	0.05561	0.24945	-0.139
Mof_C 	C 	0.83736	0.99911	0.32477	-0.254
Mof_C 	C 	0.88678	0.63717	0.50939	0.009
Mof_C 	C 	0.82158	0.16555	0.42009	0.036
Mof_C 	C 	0.54769	0.16837	0.41385	0.062
Mof_C 	C 	0.48987	0.22332	0.40694	0.079
Mof_C 	C 	0.35116	0.41148	0.3856	0.336
Mof_N 	N 	0.81747	0.77198	0.76596	-0.246
Mof_N 	N 	0.79558	0.78668	0.80146	-0.217
Mof_N 	N 	0.83547	0.81729	0.80733	-0.238
Mof_N 	N 	0.83291	0.75808	0.8849	-0.249
Mof_N 	N 	0.79672	0.72542	0.8791	-0.21
Mof_N 	N 	0.81821	0.67002	0.89696	-0.244
Mof_N 	N 	0.66021	0.66829	0.90049	-0.244
Mof_N 	N 	0.63999	0.72514	0.88248	-0.216
Mof_N 	N 	0.56403	0.75744	0.8903	-0.256
Mof_N 	N 	0.56294	0.81837	0.81335	-0.246
Mof_N 	N 	0.63899	0.78688	0.80396	-0.206
Mof_N 	N 	0.66071	0.77373	0.76795	-0.252
Mof_N 	N 	0.58641	0.88216	0.8724	-0.248
Mof_N 	N 	0.6615	0.84924	0.86496	-0.208
Mof_N 	N 	0.69843	0.88228	0.86958	-0.247
Mof_N 	N 	0.78918	0.65277	0.78309	-0.259
Mof_N 	N 	0.77617	0.66111	0.81957	-0.208
Mof_N 	N 	0.79071	0.6079	0.84036	-0.239
Mof_N 	N 	0.64459	0.27198	0.26596	-0.246
Mof_N 	N 	0.61628	0.28668	0.30146	-0.217
Mof_N 	N 	0.53991	0.31729	0.30733	-0.238
Mof_N 	N 	0.52411	0.25808	0.3849	-0.249
Mof_N 	N 	0.59876	0.22542	0.3791	-0.21
Mof_N 	N 	0.61481	0.17002	0.39696	-0.244
Mof_N 	N 	0.77101	0.16829	0.40049	-0.244
Mof_N 	N 	0.75239	0.22514	0.38248	-0.216
Mof_N 	N 	0.78823	0.25744	0.3903	-0.256
Mof_N 	N 	0.80534	0.31837	0.31335	-0.246
Mof_N 	N 	0.77017	0.28688	0.30396	-0.206
Mof_N 	N 	0.79761	0.27373	0.26795	-0.252
Mof_N 	N 	0.65903	0.38216	0.3724	-0.248
Mof_N 	N 	0.6243	0.34924	0.36496	-0.208
Mof_N 	N 	0.54971	0.38228	0.36958	-0.247
Mof_N 	N 	0.77496	0.15277	0.28309	-0.258
Mof_N 	N 	0.74315	0.16111	0.31957	-0.208
Mof_N 	N 	0.76103	0.1079	0.34036	-0.24
Mof_O 	O 	0.75906	0.21848	0.1975	-0.491
Mof_O 	O 	0.87882	0.17627	0.19889	-0.362
Mof_O 	O 	0.4125	0.86296	0.89164	-0.507
Mof_O 	O 	0.41418	0.94298	0.85586	-0.368
Mof_O 	O 	0.8605	0.90524	0.85378	-0.465
Mof_O 	O 	0.82127	0.88193	0.91013	-0.388
Mof_O 	O 	0.86044	0.52702	0.9093	-0.425
Mof_O 	O 	0.75345	0.52232	0.91138	-0.417
Mof_O 	O 	0.93233	0.08652	0.92984	-0.239
Mof_O 	O 	0.89207	0.15898	0.0307	-0.24
Mof_O 	O 	0.9492	0.24208	0.95644	-0.241
Mof_O 	O 	0.08307	0.0522	0.95622	-0.243
Mof_O 	O 	0.82496	0.71848	0.6975	-0.491
Mof_O 	O 	0.74602	0.67627	0.69889	-0.362
Mof_O 	O 	0.8329	0.36296	0.39164	-0.507
Mof_O 	O 	0.78698	0.44298	0.35586	-0.369
Mof_O 	O 	0.38048	0.40524	0.35378	-0.465
Mof_O 	O 	0.38667	0.38193	0.41013	-0.388
Mof_O 	O 	0.70324	0.02702	0.4093	-0.424
Mof_O 	O 	0.81285	0.02232	0.41138	-0.416
Mof_O 	O 	0.05131	0.58652	0.42984	-0.24
Mof_O 	O 	0.91825	0.65898	0.5307	-0.24
Mof_O 	O 	0.85228	0.74208	0.45644	-0.241
Mof_O 	O 	0.90851	0.5522	0.45622	-0.243
Mof_Zn	Zn	0.51572	0.6559	0.63972	1.18
Mof_Zn	Zn	0.31644	0.74501	0.65735	1.133
Mof_Zn	Zn	0.22749	0.65779	0.63377	1.179
Mof_Zn	Zn	0.24249	0.77532	0.75222	1.182
Mof_Zn	Zn	0.27611	0.89068	0.60304	1.176
Mof_Zn	Zn	0.18866	0.1559	0.13972	1.18
Mof_Zn	Zn	0.2812	0.24501	0.15735	1.133
Mof_Zn	Zn	0.48095	0.15779	0.13377	1.179
Mof_Zn	Zn	0.22997	0.27532	0.25222	1.182
Mof_Zn	Zn	0.23017	0.39068	0.10304	1.176
Mof_H 	H 	0.0964	0.2845	0.3617	0.007
Mof_H 	H 	0.0899	0.6289	0.7021	0.092
Mof_H 	H 	0.3073	0.0754	0.5696	-0.009
Mof_H 	H 	0.7515	0.5116	0.652	-0.002
Mof_H 	H 	0.102	0.0878	0.5738	-0.007
Mof_H 	H 	0.444	0.7033	0.8501	0.198
Mof_H 	H 	0.5216	0.6463	0.8425	0.195
Mof_H 	H 	0.5172	0.714	0.8342	0.187
Mof_H 	H 	0.272	0.1789	0.5527	0.114
Mof_H 	H 	0.3432	0.5086	0.6094	0.097
Mof_H 	H 	0.5035	0.3649	0.5857	0.186
Mof_H 	H 	0.4259	0.3802	0.6128	0.195
Mof_H 	H 	0.43	0.4048	0.5724	0.195
Mof_H 	H 	0.0637	0.1928	0.5582	0.106
Mof_H 	H 	0.0281	0.7637	0.5325	0.21
Mof_H 	H 	0.98	0.8357	0.5339	0.203
Mof_H 	H 	0.0476	0.8081	0.5011	0.204
Mof_H 	H 	0.5776	0.5098	0.6128	0.08
Mof_H 	H 	0.1783	0.4032	0.5916	0.113
Mof_H 	H 	0.9632	0.3923	0.5187	0.037
Mof_H 	H 	0.9824	0.449	0.521	0.049
Mof_H 	H 	0.3742	0.7289	0.8041	0.105
Mof_H 	H 	0.2396	0.3551	0.3655	-0.003
Mof_H 	H 	0.8574	0.4859	0.5285	0.124
Mof_H 	H 	0.1925	0.3702	0.4258	0.118
Mof_H 	H 	0.0536	0.2833	0.5273	0.037
Mof_H 	H 	0.0402	0.3	0.5676	0.037
Mof_H 	H 	0.1575	0.3586	0.5496	0.034
Mof_H 	H 	0.0823	0.3804	0.5792	0.042
Mof_H 	H 	0.1168	0.7286	0.5738	0.116
Mof_H 	H 	0.1461	0.9183	0.5493	0.068
Mof_H 	H 	0.6706	0.6122	0.7554	0.206
Mof_H 	H 	0.6404	0.6548	0.7886	0.188
Mof_H 	H 	0.6365	0.5896	0.7936	0.193
Mof_H 	H 	0.8738	0.4404	0.6324	0.111
Mof_H 	H 	0.1036	0.7218	0.799	0.09
Mof_H 	H 	0.5958	0.6332	0.7158	0.098
Mof_H 	H 	0.0486	0.2941	0.4259	0.099
Mof_H 	H 	0.7342	0.5562	0.5482	0.002
Mof_H 	H 	0.0828	0.124	0.6722	0.205
Mof_H 	H 	0.015	0.116	0.6998	0.196
Mof_H 	H 	0.0701	0.1329	0.7135	0.197
Mof_H 	H 	0.0405	0.0221	0.7957	0.171
Mof_H 	H 	0.0543	0.0819	0.7799	0.162
Mof_H 	H 	0.9928	0.069	0.7694	0.163
Mof_H 	H 	0.0604	0.9582	0.5166	0.163
Mof_H 	H 	0.0556	0.9123	0.4929	0.158
Mof_H 	H 	0.9927	0.939	0.5276	0.157
Mof_H 	H 	0.5942	0.3583	0.5951	0.159
Mof_H 	H 	0.6388	0.3996	0.579	0.174
Mof_H 	H 	0.6233	0.3835	0.6207	0.171
Mof_H 	H 	0.0106	0.695	0.839	0.19
Mof_H 	H 	0.9491	0.6994	0.82	0.181
Mof_H 	H 	0.0076	0.6342	0.83	0.19
Mof_H 	H 	0.9967	0.601	0.7382	0.201
Mof_H 	H 	0.005	0.5824	0.7782	0.198
Mof_H 	H 	0.9427	0.6462	0.7694	0.187
Mof_H 	H 	0.6221	0.9046	0.5174	0.173
Mof_H 	H 	0.5453	0.9346	0.506	0.172
Mof_H 	H 	0.5531	0.9562	0.5408	0.173
Mof_H 	H 	0.622	0.7275	0.5843	0.094
Mof_H 	H 	0.4314	0.9152	0.5582	0.082
Mof_H 	H 	0.2101	0.4615	0.6241	-0.007
Mof_H 	H 	0.0564	0.5607	0.5431	0.141
Mof_H 	H 	0.0953	0.6153	0.5729	-0.014
Mof_H 	H 	0.7201	0.7625	0.5485	0.211
Mof_H 	H 	0.6956	0.808	0.5158	0.205
Mof_H 	H 	0.6957	0.8343	0.5509	0.198
Mof_H 	H 	0.1318	0.9271	0.7739	0.07
Mof_H 	H 	0.1729	0.0169	0.6517	0.115
Mof_H 	H 	0.1093	0.4045	0.4823	0.042
Mof_H 	H 	0.1655	0.3355	0.4887	0.036
Mof_H 	H 	0.2574	0.7845	0.8617	0.007
Mof_H 	H 	0.5791	0.1289	0.2021	0.092
Mof_H 	H 	0.0477	0.5754	0.0696	-0.009
Mof_H 	H 	0.0849	0.0116	0.152	-0.001
Mof_H 	H 	0.2364	0.5878	0.0738	-0.007
Mof_H 	H 	0.0026	0.2033	0.3501	0.196
Mof_H 	H 	0.9896	0.1463	0.3425	0.193
Mof_H 	H 	0.9346	0.214	0.3342	0.185
Mof_H 	H 	0.9964	0.6789	0.0527	0.113
Mof_H 	H 	0.5388	0.0086	0.1094	0.097
Mof_H 	H 	0.5459	0.8649	0.0857	0.186
Mof_H 	H 	0.5811	0.8802	0.1128	0.194
Mof_H 	H 	0.5928	0.9048	0.0724	0.195
Mof_H 	H 	0.1853	0.6928	0.0582	0.106
Mof_H 	H 	0.6757	0.2637	0.0325	0.211
Mof_H 	H 	0.6504	0.3357	0.0339	0.204
Mof_H 	H 	0.6432	0.3081	0.0011	0.205
Mof_H 	H 	0.2998	0.0098	0.1128	0.08
Mof_H 	H 	0.8269	0.9032	0.0916	0.112
Mof_H 	H 	0.1258	0.8923	0.0187	0.037
Mof_H 	H 	0.0476	0.949	0.021	0.05
Mof_H 	H 	0.0928	0.2289	0.3041	0.105
Mof_H 	H 	0.0398	0.8551	0.8655	-0.003
Mof_H 	H 	0.1282	0.9859	0.0285	0.123
Mof_H 	H 	0.0115	0.8702	0.9258	0.118
Mof_H 	H 	0.1358	0.7833	0.0273	0.037
Mof_H 	H 	0.0922	0.8	0.0676	0.038
Mof_H 	H 	0.9343	0.8586	0.0496	0.035
Mof_H 	H 	0.9581	0.8804	0.0792	0.042
Mof_H 	H 	0.5808	0.2286	0.0738	0.116
Mof_H 	H 	0.3863	0.4183	0.0493	0.068
Mof_H 	H 	0.9618	0.1122	0.2554	0.206
Mof_H 	H 	0.9162	0.1548	0.2886	0.188
Mof_H 	H 	0.9803	0.0896	0.2936	0.193
Mof_H 	H 	0.0534	0.9404	0.1324	0.11
Mof_H 	H 	0.3756	0.2218	0.299	0.089
Mof_H 	H 	0.0552	0.1332	0.2158	0.097
Mof_H 	H 	0.2314	0.7941	0.9259	0.099
Mof_H 	H 	0.1614	0.0562	0.0482	0.003
Mof_H 	H 	0.121	0.624	0.1722	0.206
Mof_H 	H 	0.1692	0.616	0.1998	0.197
Mof_H 	H 	0.0835	0.6329	0.2135	0.197
Mof_H 	H 	0.1417	0.5221	0.2957	0.17
Mof_H 	H 	0.0839	0.5819	0.2799	0.161
Mof_H 	H 	0.1688	0.569	0.2694	0.161
Mof_H 	H 	0.4648	0.4582	0.0166	0.164
Mof_H 	H 	0.5392	0.4123	0.9929	0.159
Mof_H 	H 	0.5407	0.439	0.0276	0.159
Mof_H 	H 	0.4524	0.8583	0.0951	0.159
Mof_H 	H 	0.3826	0.8996	0.079	0.174
Mof_H 	H 	0.3725	0.8835	0.1207	0.171
Mof_H 	H 	0.4554	0.195	0.339	0.188
Mof_H 	H 	0.5315	0.1994	0.32	0.18
Mof_H 	H 	0.5282	0.1342	0.33	0.188
Mof_H 	H 	0.6641	0.101	0.2382	0.201
Mof_H 	H 	0.6344	0.0824	0.2782	0.198
Mof_H 	H 	0.6417	0.1462	0.2694	0.187
Mof_H 	H 	0.9559	0.4046	0.0174	0.173
Mof_H 	H 	0.0141	0.4346	0.006	0.172
Mof_H 	H 	0.9499	0.4562	0.0408	0.172
Mof_H 	H 	0.0662	0.2275	0.0843	0.093
Mof_H 	H 	0.0952	0.4152	0.0582	0.082
Mof_H 	H 	0.7043	0.9615	0.1241	-0.006
Mof_H 	H 	0.8398	0.0607	0.0431	0.14
Mof_H 	H 	0.7165	0.1153	0.0729	-0.013
Mof_H 	H 	0.9689	0.2625	0.0485	0.211
Mof_H 	H 	0.9806	0.308	0.0158	0.205
Mof_H 	H 	0.9191	0.3343	0.0509	0.198
Mof_H 	H 	0.1672	0.4271	0.2739	0.07
Mof_H 	H 	0.1585	0.5169	0.1517	0.115
Mof_H 	H 	0.0039	0.9045	0.9823	0.043
Mof_H 	H 	0.0103	0.8355	0.9887	0.037
Mof_C 	C 	0.11664	0.30019	0.37493	0.086
Mof_C 	C 	0.09254	0.64695	0.72137	-0.198
Mof_C 	C 	0.25861	0.09937	0.56721	0.118
Mof_C 	C 	0.15782	0.54487	0.59969	-0.188
Mof_C 	C 	0.77238	0.50586	0.62738	0.105
Mof_C 	C 	0.1351	0.1066	0.57	0.107
Mof_C 	C 	0.49268	0.68742	0.83422	-0.59
Mof_C 	C 	0.23828	0.16062	0.55722	-0.255
Mof_C 	C 	0.0822	0.8108	0.5472	0.159
Mof_C 	C 	0.3888	0.50801	0.60999	-0.205
Mof_C 	C 	0.45346	0.39568	0.5924	-0.584
Mof_C 	C 	0.11237	0.16861	0.56045	-0.242
Mof_C 	C 	0.46338	0.56128	0.62036	0.066
Mof_C 	C 	0.0294	0.80392	0.52668	-0.628
Mof_C 	C 	0.53237	0.50886	0.6128	-0.164
Mof_C 	C 	0.16161	0.44615	0.58783	-0.245
Mof_C 	C 	0.87663	0.45592	0.57802	0.253
Mof_C 	C 	0.11569	0.47776	0.56286	0.267
Mof_C 	C 	0.16966	0.77817	0.58611	0.094
Mof_C 	C 	0.98575	0.40866	0.5317	0.002
Mof_C 	C 	0.41755	0.70985	0.78665	-0.209
Mof_C 	C 	0.20135	0.34301	0.37729	0.121
Mof_C 	C 	0.0686	0.36314	0.53046	0.015
Mof_C 	C 	0.73032	0.53984	0.60192	-0.156
Mof_C 	C 	0.39799	0.56051	0.61871	0.077
Mof_C 	C 	0.83597	0.49057	0.55309	-0.252
Mof_C 	C 	0.17306	0.35208	0.4136	-0.245
Mof_C 	C 	0.07146	0.29848	0.5434	0.01
Mof_C 	C 	0.16523	0.19488	0.55406	0.235
Mof_C 	C 	0.10439	0.38431	0.55375	0.017
Mof_C 	C 	0.12122	0.76659	0.56937	-0.24
Mof_C 	C 	0.48516	0.68515	0.79513	0.128
Mof_C 	C 	0.11604	0.3347	0.43242	0.225
Mof_C 	C 	0.13964	0.88132	0.5554	-0.139
Mof_C 	C 	0.48174	0.67736	0.72496	0.066
Mof_C 	C 	0.63298	0.62507	0.77737	-0.585
Mof_C 	C 	0.84548	0.46353	0.61571	-0.23
Mof_C 	C 	0.10146	0.70334	0.77974	-0.187
Mof_C 	C 	0.41422	0.70607	0.75089	0.081
Mof_C 	C 	0.55247	0.65174	0.73332	-0.189
Mof_C 	C 	0.20172	0.30737	0.31719	0.34
Mof_C 	C 	0.08603	0.30715	0.41379	-0.202
Mof_C 	C 	0.76215	0.53272	0.56498	0.11
Mof_C 	C 	0.17477	0.31623	0.35743	-0.162
Mof_C 	C 	0.14293	0.67431	0.71703	0.073
Mof_C 	C 	0.14806	0.70276	0.74512	0.07
Mof_C 	C 	0.06607	0.10986	0.6962	-0.61
Mof_C 	C 	0.0412	0.05012	0.77488	-0.49
Mof_C 	C 	0.55451	0.65549	0.76849	0.118
Mof_C 	C 	0.10391	0.01058	0.7396	0.04
Mof_C 	C 	0.117	0.0366	0.7016	0.16
Mof_C 	C 	0.20842	0.07131	0.57405	-0.164
Mof_C 	C 	0.0902	0.86721	0.54099	0.049
Mof_C 	C 	0.0452	0.9251	0.5171	-0.493
Mof_C 	C 	0.4549	0.4573	0.6027	0.13
Mof_C 	C 	0.5263	0.4548	0.6052	0.072
Mof_C 	C 	0.60351	0.39278	0.5994	-0.509
Mof_C 	C 	0.04707	0.64756	0.7553	0.133
Mof_C 	C 	0.05345	0.67597	0.78393	0.108
Mof_C 	C 	0.99997	0.67612	0.82194	-0.571
Mof_C 	C 	0.99283	0.61637	0.76077	-0.598
Mof_C 	C 	0.19485	0.9384	0.6839	0.11
Mof_C 	C 	0.18554	0.91119	0.71813	0.032
Mof_C 	C 	0.56889	0.92129	0.52613	-0.525
Mof_C 	C 	0.58472	0.76537	0.57939	-0.206
Mof_C 	C 	0.60312	0.81187	0.55809	0.128
Mof_C 	C 	0.54553	0.86827	0.55007	0.075
Mof_C 	C 	0.4693	0.87835	0.56385	-0.172
Mof_C 	C 	0.18161	0.481	0.60698	0.122
Mof_C 	C 	0.08918	0.53968	0.55816	-0.277
Mof_C 	C 	0.11245	0.57234	0.57676	0.151
Mof_C 	C 	0.23171	0.00272	0.58406	0.303
Mof_C 	C 	0.68692	0.80325	0.54171	-0.602
Mof_C 	C 	0.18241	0.585	0.61698	0.371
Mof_C 	C 	0.13863	0.94439	0.75055	-0.139
Mof_C 	C 	0.16264	0.00089	0.67523	-0.254
Mof_C 	C 	0.11322	0.36283	0.49061	0.009
Mof_C 	C 	0.17842	0.83445	0.57991	0.036
Mof_C 	C 	0.45231	0.83163	0.58615	0.062
Mof_C 	C 	0.51013	0.77668	0.59306	0.079
Mof_C 	C 	0.64884	0.58852	0.6144	0.336
Mof_C 	C 	0.20824	0.80019	0.87493	0.086
Mof_C 	C 	0.53914	0.14695	0.22137	-0.198
Mof_C 	C 	0.07481	0.59937	0.06721	0.117
Mof_C 	C 	0.69762	0.04487	0.09969	-0.186
Mof_C 	C 	0.09438	0.00586	0.12738	0.102
Mof_C 	C 	0.1883	0.6066	0.07	0.107
Mof_C 	C 	0.98568	0.18742	0.33422	-0.584
Mof_C 	C 	0.04388	0.66062	0.05722	-0.254
Mof_C 	C 	0.5598	0.3108	0.0472	0.159
Mof_C 	C 	0.4932	0.00801	0.10999	-0.205
Mof_C 	C 	0.55846	0.89568	0.0924	-0.583
Mof_C 	C 	0.15857	0.66861	0.06045	-0.241
Mof_C 	C 	0.35498	0.06128	0.12036	0.066
Mof_C 	C 	0.64	0.30392	0.02668	-0.631
Mof_C 	C 	0.34597	0.00886	0.1128	-0.165
Mof_C 	C 	0.80441	0.94615	0.08783	-0.243
Mof_C 	C 	0.08943	0.95592	0.07802	0.251
Mof_C 	C 	0.84369	0.97776	0.06286	0.264
Mof_C 	C 	0.46606	0.27817	0.08611	0.094
Mof_C 	C 	0.07389	0.90866	0.0317	0
Mof_C 	C 	0.08595	0.20985	0.28665	-0.208
Mof_C 	C 	0.07835	0.84301	0.87729	0.121
Mof_C 	C 	0.0378	0.86314	0.03046	0.017
Mof_C 	C 	0.12792	0.03984	0.10192	-0.154
Mof_C 	C 	0.42279	0.06051	0.11871	0.077
Mof_C 	C 	0.12037	0.99057	0.05309	-0.248
Mof_C 	C 	0.06126	0.85208	0.9136	-0.245
Mof_C 	C 	0.08666	0.79848	0.0434	0.008
Mof_C 	C 	0.08583	0.69488	0.05406	0.234
Mof_C 	C 	0.95755	0.88431	0.05375	0.015
Mof_C 	C 	0.54282	0.26659	0.06937	-0.24
Mof_C 	C 	0.03456	0.18515	0.29513	0.125
Mof_C 	C 	0.11684	0.8347	0.93242	0.225
Mof_C 	C 	0.42364	0.38132	0.0554	-0.14
Mof_C 	C 	0.11594	0.17736	0.22496	0.066
Mof_C 	C 	0.96458	0.12507	0.27737	-0.584
Mof_C 	C 	0.07528	0.96353	0.11571	-0.226
Mof_C 	C 	0.41546	0.20334	0.27974	-0.186
Mof_C 	C 	0.12882	0.20607	0.25089	0.08
Mof_C 	C 	0.06247	0.15174	0.23332	-0.189
Mof_C 	C 	0.17372	0.80737	0.81719	0.34
Mof_C 	C 	0.19303	0.80715	0.91379	-0.202
Mof_C 	C 	0.14015	0.03272	0.06498	0.106
Mof_C 	C 	0.15157	0.81623	0.85743	-0.162
Mof_C 	C 	0.46573	0.17431	0.21703	0.074
Mof_C 	C 	0.40406	0.20276	0.24512	0.07
Mof_C 	C 	0.12787	0.60986	0.1962	-0.61
Mof_C 	C 	0.1338	0.55012	0.27488	-0.486
Mof_C 	C 	0.02151	0.15549	0.26849	0.118
Mof_C 	C 	0.14591	0.51058	0.2396	0.041
Mof_C 	C 	0.1448	0.5366	0.2016	0.16
Mof_C 	C 	0.14622	0.57131	0.07405	-0.164
Mof_C 	C 	0.5016	0.36721	0.04099	0.049
Mof_C 	C 	0.5126	0.4251	0.0171	-0.498
Mof_C 	C 	0.4851	0.9573	0.1027	0.13
Mof_C 	C 	0.4137	0.9548	0.1052	0.072
Mof_C 	C 	0.40431	0.89278	0.0994	-0.509
Mof_C 	C 	0.55007	0.14756	0.2553	0.134
Mof_C 	C 	0.48665	0.17597	0.28393	0.107
Mof_C 	C 	0.50197	0.17612	0.32194	-0.566
Mof_C 	C 	0.63003	0.11637	0.26077	-0.597
Mof_C 	C 	0.18285	0.4384	0.1839	0.108
Mof_C 	C 	0.18514	0.41119	0.21813	0.032
Mof_C 	C 	0.98369	0.42129	0.02613	-0.524
Mof_C 	C 	0.07052	0.26537	0.07939	-0.206
Mof_C 	C 	0.02692	0.31187	0.05809	0.127
Mof_C 	C 	0.03613	0.36827	0.05007	0.075
Mof_C 	C 	0.0885	0.37835	0.06385	-0.172
Mof_C 	C 	0.73041	0.981	0.10698	0.119
Mof_C 	C 	0.81298	0.03968	0.05816	-0.274
Mof_C 	C 	0.73845	0.07234	0.07676	0.148
Mof_C 	C 	0.18151	0.50272	0.08406	0.305
Mof_C 	C 	0.96812	0.30325	0.04171	-0.602
Mof_C 	C 	0.61561	0.085	0.11698	0.37
Mof_C 	C 	0.16643	0.44439	0.25055	-0.141
Mof_C 	C 	0.16124	0.50089	0.17523	-0.252
Mof_C 	C 	0.03334	0.86283	0.99061	0.008
Mof_C 	C 	0.40722	0.33445	0.07991	0.036
Mof_C 	C 	0.12991	0.33163	0.08615	0.062
Mof_C 	C 	0.12013	0.27668	0.09306	0.078
Mof_C 	C 	0.14824	0.08852	0.1144	0.335
Mof_N 	N 	0.35541	0.72802	0.73404	-0.246
Mof_N 	N 	0.38372	0.71332	0.69854	-0.217
Mof_N 	N 	0.46009	0.68271	0.69267	-0.238
Mof_N 	N 	0.47589	0.74192	0.6151	-0.249
Mof_N 	N 	0.40124	0.77458	0.6209	-0.21
Mof_N 	N 	0.38519	0.82998	0.60304	-0.244
Mof_N 	N 	0.22899	0.83171	0.59951	-0.244
Mof_N 	N 	0.24761	0.77486	0.61752	-0.216
Mof_N 	N 	0.21177	0.74256	0.6097	-0.256
Mof_N 	N 	0.19466	0.68163	0.68665	-0.246
Mof_N 	N 	0.22983	0.71312	0.69604	-0.206
Mof_N 	N 	0.20239	0.72627	0.73205	-0.252
Mof_N 	N 	0.34097	0.61784	0.6276	-0.248
Mof_N 	N 	0.3757	0.65076	0.63504	-0.208
Mof_N 	N 	0.45029	0.61772	0.63042	-0.247
Mof_N 	N 	0.22504	0.84723	0.71691	-0.258
Mof_N 	N 	0.25685	0.83889	0.68043	-0.208
Mof_N 	N 	0.23897	0.8921	0.65964	-0.24
Mof_N 	N 	0.18253	0.22802	0.23404	-0.246
Mof_N 	N 	0.20442	0.21332	0.19854	-0.217
Mof_N 	N 	0.16453	0.18271	0.19267	-0.238
Mof_N 	N 	0.16709	0.24192	0.1151	-0.249
Mof_N 	N 	0.20328	0.27458	0.1209	-0.21
Mof_N 	N 	0.18179	0.32998	0.10304	-0.244
Mof_N 	N 	0.33979	0.33171	0.09951	-0.244
Mof_N 	N 	0.36001	0.27486	0.11752	-0.216
Mof_N 	N 	0.43597	0.24256	0.1097	-0.256
Mof_N 	N 	0.43706	0.18163	0.18665	-0.246
Mof_N 	N 	0.36101	0.21312	0.19604	-0.206
Mof_N 	N 	0.33929	0.22627	0.23205	-0.252
Mof_N 	N 	0.41359	0.11784	0.1276	-0.248
Mof_N 	N 	0.3385	0.15076	0.13504	-0.208
Mof_N 	N 	0.30157	0.11772	0.13042	-0.247
Mof_N 	N 	0.21082	0.34723	0.21691	-0.259
Mof_N 	N 	0.22383	0.33889	0.18043	-0.208
Mof_N 	N 	0.20929	0.3921	0.15964	-0.239
Mof_O 	O 	0.17504	0.28152	0.3025	-0.491
Mof_O 	O 	0.25398	0.32373	0.30111	-0.362
Mof_O 	O 	0.1671	0.63704	0.60836	-0.507
Mof_O 	O 	0.21302	0.55702	0.64414	-0.369
Mof_O 	O 	0.61952	0.59476	0.64622	-0.465
Mof_O 	O 	0.61333	0.61807	0.58987	-0.388
Mof_O 	O 	0.29676	0.97298	0.5907	-0.424
Mof_O 	O 	0.18715	0.97768	0.58862	-0.416
Mof_O 	O 	0.94869	0.41348	0.57016	-0.24
Mof_O 	O 	0.08175	0.34102	0.4693	-0.24
Mof_O 	O 	0.14772	0.25792	0.54356	-0.241
Mof_O 	O 	0.09149	0.4478	0.54378	-0.243
Mof_O 	O 	0.24094	0.78152	0.8025	-0.491
Mof_O 	O 	0.12118	0.82373	0.80111	-0.362
Mof_O 	O 	0.5875	0.13704	0.10836	-0.507
Mof_O 	O 	0.58582	0.05702	0.14414	-0.368
Mof_O 	O 	0.1395	0.09476	0.14622	-0.465
Mof_O 	O 	0.17873	0.11807	0.08987	-0.388
Mof_O 	O 	0.13956	0.47298	0.0907	-0.425
Mof_O 	O 	0.24655	0.47768	0.08862	-0.417
Mof_O 	O 	0.06767	0.91348	0.07016	-0.239
Mof_O 	O 	0.10793	0.84102	0.9693	-0.24
Mof_O 	O 	0.0508	0.75792	0.04356	-0.241
Mof_O 	O 	0.91693	0.9478	0.04378	-0.243
_end
