data_functionalizedCrystal
_audit_creation_method	'EQeq! by Chris Wilmer'
_symmetry_space_group_name_H-M	'P1'
_symmetry_Int_Tables_number	1
_symmetry_cell_setting	triclinic
loop_
_symmetry_equiv_pos_as_xyz
  x,y,z
_cell_length_a	14.6534
_cell_length_b	17.7687
_cell_length_c	31.9462
_cell_angle_alpha	90
_cell_angle_beta	90.292
_cell_angle_gamma	90
loop_
_atom_site_label
_atom_site_type_symbol
_atom_site_fract_x
_atom_site_fract_y
_atom_site_fract_z
_atom_site_charge
Mof_C 	C 	0.548	0.5808	0.95251	0.069
Mof_C 	C 	0.4589	0.5942	0.93935	-0.113
Mof_H 	H 	0.4354	0.644	0.9398	0.069
Mof_C 	C 	0.4044	0.5357	0.92568	0.047
Mof_C 	C 	0.4417	0.4634	0.92654	-0.11
Mof_H 	H 	0.4073	0.4216	0.9168	0.07
Mof_C 	C 	0.5306	0.4533	0.942	0.063
Mof_C 	C 	0.5733	0.3782	0.94584	0.076
Mof_C 	C 	0.5235	0.3117	0.94462	-0.156
Mof_H 	H 	0.4595	0.3136	0.9399	0.083
Mof_C 	C 	0.566	0.2422	0.95016	0.114
Mof_H 	H 	0.5309	0.1972	0.9492	-0.006
Mof_C 	C 	0.6589	0.2386	0.95708	-0.23
Mof_C 	C 	0.7091	0.3041	0.9587	0.112
Mof_H 	H 	0.773	0.302	0.9638	-0.011
Mof_C 	C 	0.6664	0.3732	0.953	-0.151
Mof_H 	H 	0.7019	0.418	0.9541	0.087
Mof_C 	C 	0.7046	0.1643	0.96426	0.558
Mof_C 	C 	0.3098	0.5488	0.9101	0.049
Mof_C 	C 	0.2436	0.4925	0.9103	-0.119
Mof_H 	H 	0.2576	0.444	0.9211	0.071
Mof_C 	C 	0.1579	0.5075	0.8946	0.067
Mof_H 	H 	0.1143	0.468	0.8951	0.015
Mof_C 	C 	0.1959	0.6282	0.8792	0.06
Mof_H 	H 	0.1799	0.6762	0.8684	0.015
Mof_C 	C 	0.283	0.6182	0.8945	-0.118
Mof_H 	H 	0.325	0.6589	0.8943	0.068
Mof_C 	C 	0.0009	0.8657	0.11367	0.427
Mof_C 	C 	0.0768	0.8252	0.13611	-0.175
Mof_C 	C 	0.1663	0.8403	0.12515	0.085
Mof_H 	H 	0.1792	0.8763	0.104	-0.015
Mof_C 	C 	0.237	0.8026	0.14516	-0.137
Mof_H 	H 	0.2982	0.8137	0.1378	0.074
Mof_C 	C 	0.2199	0.7491	0.1757	0.055
Mof_C 	C 	0.1291	0.7358	0.1869	-0.123
Mof_H 	H 	0.1158	0.7006	0.2084	0.08
Mof_C 	C 	0.0584	0.7733	0.16694	0.069
Mof_H 	H 	0.997	0.7633	0.1746	0.019
Mof_C 	C 	0.2962	0.7079	0.19663	0.071
Mof_C 	C 	0.3812	0.703	0.17833	-0.113
Mof_H 	H 	0.3913	0.7244	0.1515	0.07
Mof_C 	C 	0.452	0.6668	0.19939	0.046
Mof_C 	C 	0.4324	0.6337	0.23748	-0.109
Mof_H 	H 	0.4785	0.6074	0.2525	0.067
Mof_C 	C 	0.3445	0.6391	0.25365	0.067
Mof_C 	C 	0.3201	0.6074	0.2955	0.067
Mof_C 	C 	0.3801	0.5607	0.31734	-0.147
Mof_H 	H 	0.4362	0.5462	0.305	0.08
Mof_C 	C 	0.358	0.5352	0.35731	0.106
Mof_H 	H 	0.3992	0.5029	0.3717	-0.012
Mof_C 	C 	0.2777	0.556	0.3762	-0.209
Mof_C 	C 	0.2166	0.6017	0.35391	0.09
Mof_H 	H 	0.1598	0.615	0.366	0.012
Mof_C 	C 	0.2384	0.6275	0.31469	-0.139
Mof_H 	H 	0.1969	0.6596	0.3003	0.086
Mof_C 	C 	0.2551	0.5316	0.41936	0.501
Mof_C 	C 	0.5457	0.6665	0.18207	0.06
Mof_C 	C 	0.6089	0.6119	0.1934	-0.126
Mof_H 	H 	0.5921	0.5725	0.2119	0.079
Mof_C 	C 	0.6966	0.6151	0.1775	0.071
Mof_H 	H 	0.739	0.5775	0.1859	0.018
Mof_C 	C 	0.665	0.7188	0.14	0.079
Mof_H 	H 	0.6832	0.7566	0.1207	0.01
Mof_C 	C 	0.5759	0.7203	0.15499	-0.133
Mof_H 	H 	0.5357	0.7593	0.1463	0.077
Mof_C 	C 	0.631	0.9338	0.09884	0.548
Mof_C 	C 	0.5712	0.9263	0.13679	-0.222
Mof_C 	C 	0.4776	0.9365	0.1339	0.116
Mof_H 	H 	0.4506	0.9506	0.108	-0.007
Mof_C 	C 	0.4235	0.926	0.16888	-0.157
Mof_H 	H 	0.3595	0.9338	0.1669	0.082
Mof_C 	C 	0.4621	0.9041	0.20698	0.074
Mof_C 	C 	0.5561	0.8956	0.20948	-0.151
Mof_H 	H 	0.5838	0.8815	0.2352	0.092
Mof_C 	C 	0.6092	0.9076	0.17473	0.111
Mof_H 	H 	0.6737	0.9029	0.177	0.005
Mof_C 	C 	0.405	0.8838	0.2438	0.066
Mof_C 	C 	0.3153	0.9052	0.24825	-0.112
Mof_H 	H 	0.287	0.9369	0.228	0.07
Mof_C 	C 	0.2664	0.8799	0.28271	0.047
Mof_C 	C 	0.3098	0.8339	0.3112	-0.112
Mof_H 	H 	0.2777	0.8154	0.3348	0.067
Mof_C 	C 	0.4011	0.8146	0.30515	0.069
Mof_C 	C 	0.4514	0.7625	0.33351	0.066
Mof_C 	C 	0.4206	0.7444	0.37316	-0.148
Mof_H 	H 	0.3703	0.7709	0.3847	0.075
Mof_C 	C 	0.4626	0.688	0.39607	0.099
Mof_H 	H 	0.4411	0.6762	0.4233	-0.041
Mof_C 	C 	0.5357	0.6486	0.37969	-0.197
Mof_C 	C 	0.5697	0.6689	0.34049	0.08
Mof_H 	H 	0.621	0.6433	0.3293	0.012
Mof_C 	C 	0.5295	0.7256	0.31812	-0.134
Mof_H 	H 	0.5543	0.7403	0.292	0.085
Mof_C 	C 	0.573	0.581	0.40067	0.424
Mof_C 	C 	0.1687	0.8985	0.287	0.058
Mof_C 	C 	0.112	0.905	0.2525	-0.128
Mof_H 	H 	0.136	0.8982	0.2252	0.078
Mof_C 	C 	0.021	0.9212	0.2575	0.075
Mof_H 	H 	0.9837	0.9234	0.2331	0.013
Mof_C 	C 	0.0363	0.9285	0.3264	0.075
Mof_H 	H 	0.0101	0.9371	0.3531	0.018
Mof_C 	C 	0.1299	0.9111	0.3257	-0.125
Mof_H 	H 	0.165	0.9081	0.3507	0.074
Mof_C 	C 	0.5312	0.1042	0.04912	0.593
Mof_H 	H 	0.4937	0.1326	0.0675	-0.163
Mof_N 	N 	0.1317	0.5733	0.8789	-0.127
Mof_N 	N 	0.5826	0.5116	0.95425	-0.129
Mof_N 	N 	0.7244	0.6683	0.1511	-0.133
Mof_N 	N 	0.2768	0.6758	0.23374	-0.128
Mof_N 	N 	0.9819	0.9339	0.2942	-0.137
Mof_N 	N 	0.4476	0.8395	0.27186	-0.127
Mof_O 	O 	0.6558	0.10669	0.96238	-0.627
Mof_O 	O 	0.7888	0.16432	0.97187	-0.606
Mof_O 	O 	0.018	0.89907	0.07915	-0.682
Mof_O 	O 	0.9218	0.8665	0.12837	-0.479
Mof_O 	O 	0.1769	0.54672	0.43344	-0.572
Mof_O 	O 	0.3158	0.49743	0.44055	-0.604
Mof_O 	O 	0.5918	0.9444	0.06423	-0.624
Mof_O 	O 	0.7154	0.9272	0.10423	-0.614
Mof_O 	O 	0.625	0.5377	0.381	-0.535
Mof_O 	O 	0.5484	0.56562	0.4381	-0.657
Mof_O 	O 	0.4937	0.06646	0.02047	-0.747
Mof_O 	O 	0.6143	0.1058	0.05431	-0.529
Mof_O 	O 	0.7797	0.03735	0.0322	-1.044
Mof_O 	O 	0.9318	0.94659	0.006	-1.094
Mof_H 	H 	0.779	0.061	0.0564	0.284
Mof_H 	H 	0.915	0.918	0.986	0.354
Mof_C 	C 	0.7623	0.821	0.02239	0.442
Mof_C 	C 	0.7132	0.7584	0.00142	-0.198
Mof_C 	C 	0.6486	0.7732	0.9711	0.1
Mof_H 	H 	0.6398	0.8234	0.9617	-0.014
Mof_C 	C 	0.5961	0.7157	0.9541	-0.147
Mof_H 	H 	0.5517	0.7269	0.9333	0.08
Mof_C 	C 	0.6078	0.6422	0.96725	0.061
Mof_C 	C 	0.6786	0.6267	0.9951	-0.133
Mof_H 	H 	0.6922	0.5759	0.0021	0.08
Mof_C 	C 	0.7296	0.6845	0.013	0.074
Mof_H 	H 	0.7755	0.6733	0.0332	0.01
Mof_O 	O 	0.7427	0.88857	0.01343	-0.691
Mof_O 	O 	0.8238	0.8073	0.04957	-0.519
Mof_Eu	Eu	0.85316	0.93813	0.06939	2.37
Mof_Eu	Eu	0.09423	0.92457	0.01238	2.255
Mof_Eu	Eu	0.64187	0.99742	0.00142	2.599
Mof_C 	C 	0.952	0.0808	0.54749	0.07
Mof_C 	C 	0.0411	0.0942	0.56065	-0.116
Mof_H 	H 	0.0646	0.144	0.5602	0.068
Mof_C 	C 	0.0956	0.0357	0.57432	0.042
Mof_C 	C 	0.0583	0.9634	0.57346	-0.1
Mof_H 	H 	0.0927	0.9216	0.5832	0.067
Mof_C 	C 	0.9694	0.9533	0.558	0.054
Mof_C 	C 	0.9267	0.8782	0.55416	0.082
Mof_C 	C 	0.9765	0.8117	0.55538	-0.165
Mof_H 	H 	0.0405	0.8136	0.5601	0.087
Mof_C 	C 	0.934	0.7422	0.54984	0.119
Mof_H 	H 	0.9691	0.6972	0.5508	-0.008
Mof_C 	C 	0.8411	0.7386	0.54292	-0.233
Mof_C 	C 	0.7909	0.8041	0.5413	0.116
Mof_H 	H 	0.727	0.802	0.5362	-0.013
Mof_C 	C 	0.8336	0.8732	0.547	-0.155
Mof_H 	H 	0.7981	0.918	0.5459	0.088
Mof_C 	C 	0.7954	0.6643	0.53574	0.559
Mof_C 	C 	0.1902	0.0488	0.5899	0.045
Mof_C 	C 	0.2564	0.9925	0.5897	-0.11
Mof_H 	H 	0.2424	0.944	0.5789	0.068
Mof_C 	C 	0.3421	0.0075	0.6054	0.059
Mof_H 	H 	0.3857	0.968	0.6049	0.019
Mof_C 	C 	0.3041	0.1282	0.6208	0.058
Mof_H 	H 	0.3201	0.1762	0.6316	0.015
Mof_C 	C 	0.217	0.1182	0.6055	-0.116
Mof_H 	H 	0.175	0.1589	0.6057	0.067
Mof_C 	C 	0.4991	0.3657	0.38633	0.426
Mof_C 	C 	0.4232	0.3252	0.36389	-0.174
Mof_C 	C 	0.3337	0.3403	0.37485	0.084
Mof_H 	H 	0.3208	0.3763	0.396	-0.015
Mof_C 	C 	0.263	0.3026	0.35484	-0.136
Mof_H 	H 	0.2018	0.3137	0.3622	0.074
Mof_C 	C 	0.2801	0.2491	0.3243	0.055
Mof_C 	C 	0.3709	0.2358	0.3131	-0.122
Mof_H 	H 	0.3842	0.2006	0.2916	0.08
Mof_C 	C 	0.4416	0.2733	0.33306	0.067
Mof_H 	H 	0.503	0.2633	0.3254	0.021
Mof_C 	C 	0.2038	0.2079	0.30337	0.071
Mof_C 	C 	0.1188	0.203	0.32167	-0.111
Mof_H 	H 	0.1087	0.2244	0.3485	0.069
Mof_C 	C 	0.048	0.1668	0.30061	0.041
Mof_C 	C 	0.0676	0.1337	0.26252	-0.107
Mof_H 	H 	0.0215	0.1074	0.2475	0.065
Mof_C 	C 	0.1555	0.1391	0.24635	0.066
Mof_C 	C 	0.1799	0.1074	0.2045	0.068
Mof_C 	C 	0.1199	0.0607	0.18266	-0.147
Mof_H 	H 	0.0638	0.0462	0.195	0.08
Mof_C 	C 	0.142	0.0352	0.14269	0.106
Mof_H 	H 	0.1008	0.0029	0.1283	-0.012
Mof_C 	C 	0.2223	0.056	0.1238	-0.209
Mof_C 	C 	0.2834	0.1017	0.14609	0.09
Mof_H 	H 	0.3402	0.115	0.134	0.012
Mof_C 	C 	0.2616	0.1275	0.18531	-0.139
Mof_H 	H 	0.3031	0.1596	0.1997	0.086
Mof_C 	C 	0.2449	0.0316	0.08064	0.502
Mof_C 	C 	0.9543	0.1665	0.31793	0.065
Mof_C 	C 	0.8911	0.1119	0.3066	-0.128
Mof_H 	H 	0.9079	0.0725	0.2881	0.081
Mof_C 	C 	0.8034	0.1151	0.3225	0.072
Mof_H 	H 	0.761	0.0775	0.3141	0.019
Mof_C 	C 	0.835	0.2188	0.36	0.081
Mof_H 	H 	0.8168	0.2566	0.3793	0.009
Mof_C 	C 	0.9241	0.2203	0.34501	-0.135
Mof_H 	H 	0.9643	0.2593	0.3537	0.079
Mof_C 	C 	0.869	0.4338	0.40116	0.547
Mof_C 	C 	0.9288	0.4263	0.36321	-0.219
Mof_C 	C 	0.0224	0.4365	0.3661	0.113
Mof_H 	H 	0.0494	0.4506	0.392	-0.006
Mof_C 	C 	0.0765	0.426	0.33112	-0.154
Mof_H 	H 	0.1405	0.4338	0.3331	0.081
Mof_C 	C 	0.0379	0.4041	0.29302	0.07
Mof_C 	C 	0.9439	0.3956	0.29052	-0.147
Mof_H 	H 	0.9162	0.3815	0.2648	0.091
Mof_C 	C 	0.8908	0.4076	0.32527	0.108
Mof_H 	H 	0.8263	0.4029	0.323	0.006
Mof_C 	C 	0.095	0.3838	0.2562	0.067
Mof_C 	C 	0.1847	0.4052	0.25175	-0.114
Mof_H 	H 	0.213	0.4369	0.272	0.07
Mof_C 	C 	0.2336	0.3799	0.21729	0.049
Mof_C 	C 	0.1902	0.3339	0.1888	-0.114
Mof_H 	H 	0.2223	0.3154	0.1652	0.068
Mof_C 	C 	0.0989	0.3146	0.19485	0.072
Mof_C 	C 	0.0486	0.2625	0.16649	0.058
Mof_C 	C 	0.0794	0.2444	0.12684	-0.14
Mof_H 	H 	0.1297	0.2709	0.1153	0.073
Mof_C 	C 	0.0374	0.188	0.10393	0.088
Mof_H 	H 	0.0589	0.1762	0.0767	-0.037
Mof_C 	C 	0.9643	0.1486	0.12031	-0.187
Mof_C 	C 	0.9303	0.1689	0.15951	0.072
Mof_H 	H 	0.879	0.1433	0.1707	0.016
Mof_C 	C 	0.9705	0.2256	0.18188	-0.124
Mof_H 	H 	0.9457	0.2403	0.208	0.082
Mof_C 	C 	0.927	0.081	0.09933	0.421
Mof_C 	C 	0.3313	0.3985	0.213	0.055
Mof_C 	C 	0.388	0.405	0.2475	-0.124
Mof_H 	H 	0.364	0.3982	0.2748	0.076
Mof_C 	C 	0.479	0.4212	0.2425	0.068
Mof_H 	H 	0.5163	0.4234	0.2669	0.017
Mof_C 	C 	0.4637	0.4285	0.1736	0.071
Mof_H 	H 	0.4899	0.4371	0.1469	0.019
Mof_C 	C 	0.3701	0.4111	0.1743	-0.122
Mof_H 	H 	0.335	0.4081	0.1493	0.073
Mof_C 	C 	0.9688	0.6042	0.45088	0.593
Mof_H 	H 	0.0063	0.6326	0.4325	-0.164
Mof_N 	N 	0.3683	0.0733	0.6211	-0.126
Mof_N 	N 	0.9174	0.0116	0.54575	-0.126
Mof_N 	N 	0.7756	0.1683	0.3489	-0.133
Mof_N 	N 	0.2232	0.1758	0.26626	-0.127
Mof_N 	N 	0.5181	0.4339	0.2058	-0.133
Mof_N 	N 	0.0524	0.3395	0.22814	-0.128
Mof_O 	O 	0.8442	0.60669	0.53762	-0.628
Mof_O 	O 	0.7112	0.66432	0.52813	-0.607
Mof_O 	O 	0.482	0.39907	0.42085	-0.683
Mof_O 	O 	0.5782	0.3665	0.37163	-0.479
Mof_O 	O 	0.3231	0.04672	0.06656	-0.57
Mof_O 	O 	0.1842	0.99743	0.05945	-0.605
Mof_O 	O 	0.9082	0.4444	0.43577	-0.624
Mof_O 	O 	0.7846	0.4272	0.39577	-0.615
Mof_O 	O 	0.875	0.0377	0.119	-0.531
Mof_O 	O 	0.9516	0.06562	0.0619	-0.652
Mof_O 	O 	0.0063	0.56646	0.47953	-0.751
Mof_O 	O 	0.8857	0.6058	0.44569	-0.531
Mof_O 	O 	0.7203	0.53735	0.4678	-1.05
Mof_O 	O 	0.5682	0.44659	0.494	-1.092
Mof_H 	H 	0.721	0.561	0.4436	0.284
Mof_H 	H 	0.585	0.418	0.514	0.352
Mof_C 	C 	0.7377	0.321	0.47761	0.442
Mof_C 	C 	0.7868	0.2584	0.49858	-0.196
Mof_C 	C 	0.8514	0.2732	0.5289	0.098
Mof_H 	H 	0.8602	0.3234	0.5383	-0.014
Mof_C 	C 	0.9039	0.2157	0.5459	-0.146
Mof_H 	H 	0.9483	0.2269	0.5667	0.08
Mof_C 	C 	0.8922	0.1422	0.53275	0.06
Mof_C 	C 	0.8214	0.1267	0.5049	-0.133
Mof_H 	H 	0.8078	0.0759	0.4979	0.08
Mof_C 	C 	0.7704	0.1845	0.487	0.074
Mof_H 	H 	0.7245	0.1733	0.4668	0.01
Mof_O 	O 	0.7573	0.38857	0.48657	-0.692
Mof_O 	O 	0.6762	0.3073	0.45043	-0.52
Mof_Eu	Eu	0.64684	0.43813	0.43061	2.379
Mof_Eu	Eu	0.40577	0.42457	0.48762	2.259
Mof_Eu	Eu	0.85813	0.49742	0.49858	2.61
Mof_C 	C 	0.452	0.4192	0.04749	0.068
Mof_C 	C 	0.5411	0.4058	0.06065	-0.114
Mof_H 	H 	0.5646	0.356	0.0602	0.068
Mof_C 	C 	0.5956	0.4643	0.07432	0.046
Mof_C 	C 	0.5583	0.5366	0.07346	-0.111
Mof_H 	H 	0.5927	0.5784	0.0832	0.069
Mof_C 	C 	0.4694	0.5467	0.058	0.063
Mof_C 	C 	0.4267	0.6218	0.05416	0.076
Mof_C 	C 	0.4765	0.6883	0.05538	-0.156
Mof_H 	H 	0.5405	0.6864	0.0601	0.083
Mof_C 	C 	0.434	0.7578	0.04984	0.114
Mof_H 	H 	0.4691	0.8028	0.0508	-0.006
Mof_C 	C 	0.3411	0.7614	0.04292	-0.23
Mof_C 	C 	0.2909	0.6959	0.0413	0.112
Mof_H 	H 	0.227	0.698	0.0362	-0.011
Mof_C 	C 	0.3336	0.6268	0.047	-0.151
Mof_H 	H 	0.2981	0.582	0.0459	0.087
Mof_C 	C 	0.2954	0.8357	0.03574	0.558
Mof_C 	C 	0.6902	0.4512	0.0899	0.049
Mof_C 	C 	0.7564	0.5075	0.0897	-0.119
Mof_H 	H 	0.7424	0.556	0.0789	0.071
Mof_C 	C 	0.8421	0.4925	0.1054	0.067
Mof_H 	H 	0.8857	0.532	0.1049	0.015
Mof_C 	C 	0.8041	0.3718	0.1208	0.06
Mof_H 	H 	0.8201	0.3238	0.1316	0.015
Mof_C 	C 	0.717	0.3818	0.1055	-0.118
Mof_H 	H 	0.675	0.3411	0.1057	0.068
Mof_C 	C 	0.9991	0.1343	0.88633	0.427
Mof_C 	C 	0.9232	0.1748	0.86389	-0.175
Mof_C 	C 	0.8337	0.1597	0.87485	0.085
Mof_H 	H 	0.8208	0.1237	0.896	-0.015
Mof_C 	C 	0.763	0.1974	0.85484	-0.137
Mof_H 	H 	0.7018	0.1863	0.8622	0.074
Mof_C 	C 	0.7801	0.2509	0.8243	0.055
Mof_C 	C 	0.8709	0.2642	0.8131	-0.123
Mof_H 	H 	0.8842	0.2994	0.7916	0.08
Mof_C 	C 	0.9416	0.2267	0.83306	0.069
Mof_H 	H 	0.003	0.2367	0.8254	0.019
Mof_C 	C 	0.7038	0.2921	0.80337	0.071
Mof_C 	C 	0.6188	0.297	0.82167	-0.113
Mof_H 	H 	0.6087	0.2756	0.8485	0.07
Mof_C 	C 	0.548	0.3332	0.80061	0.046
Mof_C 	C 	0.5676	0.3663	0.76252	-0.109
Mof_H 	H 	0.5215	0.3926	0.7475	0.067
Mof_C 	C 	0.6555	0.3609	0.74635	0.067
Mof_C 	C 	0.6799	0.3926	0.7045	0.067
Mof_C 	C 	0.6199	0.4393	0.68266	-0.147
Mof_H 	H 	0.5638	0.4538	0.695	0.08
Mof_C 	C 	0.642	0.4648	0.64269	0.106
Mof_H 	H 	0.6008	0.4971	0.6283	-0.012
Mof_C 	C 	0.7223	0.444	0.6238	-0.209
Mof_C 	C 	0.7834	0.3983	0.64609	0.09
Mof_H 	H 	0.8402	0.385	0.634	0.012
Mof_C 	C 	0.7616	0.3725	0.68531	-0.139
Mof_H 	H 	0.8031	0.3404	0.6997	0.086
Mof_C 	C 	0.7449	0.4684	0.58064	0.501
Mof_C 	C 	0.4543	0.3335	0.81793	0.06
Mof_C 	C 	0.3911	0.3881	0.8066	-0.126
Mof_H 	H 	0.4079	0.4275	0.7881	0.079
Mof_C 	C 	0.3034	0.3849	0.8225	0.071
Mof_H 	H 	0.261	0.4225	0.8141	0.018
Mof_C 	C 	0.335	0.2812	0.86	0.079
Mof_H 	H 	0.3168	0.2434	0.8793	0.01
Mof_C 	C 	0.4241	0.2797	0.84501	-0.133
Mof_H 	H 	0.4643	0.2407	0.8537	0.077
Mof_C 	C 	0.369	0.0662	0.90116	0.548
Mof_C 	C 	0.4288	0.0737	0.86321	-0.222
Mof_C 	C 	0.5224	0.0635	0.8661	0.116
Mof_H 	H 	0.5494	0.0494	0.892	-0.007
Mof_C 	C 	0.5765	0.074	0.83112	-0.157
Mof_H 	H 	0.6405	0.0662	0.8331	0.082
Mof_C 	C 	0.5379	0.0959	0.79302	0.074
Mof_C 	C 	0.4439	0.1044	0.79052	-0.151
Mof_H 	H 	0.4162	0.1185	0.7648	0.092
Mof_C 	C 	0.3908	0.0924	0.82527	0.111
Mof_H 	H 	0.3263	0.0971	0.823	0.005
Mof_C 	C 	0.595	0.1162	0.7562	0.066
Mof_C 	C 	0.6847	0.0948	0.75175	-0.112
Mof_H 	H 	0.713	0.0631	0.772	0.07
Mof_C 	C 	0.7336	0.1201	0.71729	0.047
Mof_C 	C 	0.6902	0.1661	0.6888	-0.112
Mof_H 	H 	0.7223	0.1846	0.6652	0.067
Mof_C 	C 	0.5989	0.1854	0.69485	0.069
Mof_C 	C 	0.5486	0.2375	0.66649	0.066
Mof_C 	C 	0.5794	0.2556	0.62684	-0.148
Mof_H 	H 	0.6297	0.2291	0.6153	0.075
Mof_C 	C 	0.5374	0.312	0.60393	0.099
Mof_H 	H 	0.5589	0.3238	0.5767	-0.041
Mof_C 	C 	0.4643	0.3514	0.62031	-0.197
Mof_C 	C 	0.4303	0.3311	0.65951	0.08
Mof_H 	H 	0.379	0.3567	0.6707	0.012
Mof_C 	C 	0.4705	0.2744	0.68188	-0.134
Mof_H 	H 	0.4457	0.2597	0.708	0.085
Mof_C 	C 	0.427	0.419	0.59933	0.424
Mof_C 	C 	0.8313	0.1015	0.713	0.058
Mof_C 	C 	0.888	0.095	0.7475	-0.128
Mof_H 	H 	0.864	0.1018	0.7748	0.078
Mof_C 	C 	0.979	0.0788	0.7425	0.075
Mof_H 	H 	0.0163	0.0766	0.7669	0.013
Mof_C 	C 	0.9637	0.0715	0.6736	0.075
Mof_H 	H 	0.9899	0.0629	0.6469	0.018
Mof_C 	C 	0.8701	0.0889	0.6743	-0.125
Mof_H 	H 	0.835	0.0919	0.6493	0.074
Mof_C 	C 	0.4688	0.8958	0.95088	0.593
Mof_H 	H 	0.5063	0.8674	0.9325	-0.163
Mof_N 	N 	0.8683	0.4267	0.1211	-0.127
Mof_N 	N 	0.4174	0.4884	0.04575	-0.129
Mof_N 	N 	0.2756	0.3317	0.8489	-0.133
Mof_N 	N 	0.7232	0.3242	0.76626	-0.128
Mof_N 	N 	0.0181	0.0661	0.7058	-0.137
Mof_N 	N 	0.5524	0.1605	0.72814	-0.127
Mof_O 	O 	0.3442	0.89331	0.03762	-0.627
Mof_O 	O 	0.2112	0.83568	0.02813	-0.606
Mof_O 	O 	0.982	0.10093	0.92085	-0.682
Mof_O 	O 	0.0782	0.1335	0.87163	-0.479
Mof_O 	O 	0.8231	0.45328	0.56656	-0.572
Mof_O 	O 	0.6842	0.50257	0.55945	-0.604
Mof_O 	O 	0.4082	0.0556	0.93577	-0.624
Mof_O 	O 	0.2846	0.0728	0.89577	-0.614
Mof_O 	O 	0.375	0.4623	0.619	-0.535
Mof_O 	O 	0.4516	0.43438	0.5619	-0.657
Mof_O 	O 	0.5063	0.93354	0.97953	-0.747
Mof_O 	O 	0.3857	0.8942	0.94569	-0.529
Mof_O 	O 	0.2203	0.96265	0.9678	-1.044
Mof_O 	O 	0.0682	0.05341	0.994	-1.094
Mof_H 	H 	0.221	0.939	0.9436	0.284
Mof_H 	H 	0.085	0.082	0.014	0.354
Mof_C 	C 	0.2377	0.179	0.97761	0.442
Mof_C 	C 	0.2868	0.2416	0.99858	-0.198
Mof_C 	C 	0.3514	0.2268	0.0289	0.1
Mof_H 	H 	0.3602	0.1766	0.0383	-0.014
Mof_C 	C 	0.4039	0.2843	0.0459	-0.147
Mof_H 	H 	0.4483	0.2731	0.0667	0.08
Mof_C 	C 	0.3922	0.3578	0.03275	0.061
Mof_C 	C 	0.3214	0.3733	0.0049	-0.133
Mof_H 	H 	0.3078	0.4241	0.9979	0.08
Mof_C 	C 	0.2704	0.3155	0.987	0.074
Mof_H 	H 	0.2245	0.3267	0.9668	0.01
Mof_O 	O 	0.2573	0.11143	0.98657	-0.691
Mof_O 	O 	0.1762	0.1927	0.95043	-0.519
Mof_Eu	Eu	0.14684	0.06187	0.93061	2.37
Mof_Eu	Eu	0.90577	0.07543	0.98762	2.255
Mof_Eu	Eu	0.35813	0.00258	0.99858	2.599
Mof_C 	C 	0.048	0.9192	0.45251	0.07
Mof_C 	C 	0.9589	0.9058	0.43935	-0.116
Mof_H 	H 	0.9354	0.856	0.4398	0.068
Mof_C 	C 	0.9044	0.9643	0.42568	0.042
Mof_C 	C 	0.9417	0.0366	0.42654	-0.1
Mof_H 	H 	0.9073	0.0784	0.4168	0.067
Mof_C 	C 	0.0306	0.0467	0.442	0.054
Mof_C 	C 	0.0733	0.1218	0.44584	0.082
Mof_C 	C 	0.0235	0.1883	0.44462	-0.165
Mof_H 	H 	0.9595	0.1864	0.4399	0.087
Mof_C 	C 	0.066	0.2578	0.45016	0.119
Mof_H 	H 	0.0309	0.3028	0.4492	-0.008
Mof_C 	C 	0.1589	0.2614	0.45708	-0.233
Mof_C 	C 	0.2091	0.1959	0.4587	0.116
Mof_H 	H 	0.273	0.198	0.4638	-0.013
Mof_C 	C 	0.1664	0.1268	0.453	-0.155
Mof_H 	H 	0.2019	0.082	0.4541	0.088
Mof_C 	C 	0.2046	0.3357	0.46426	0.559
Mof_C 	C 	0.8098	0.9512	0.4101	0.045
Mof_C 	C 	0.7436	0.0075	0.4103	-0.11
Mof_H 	H 	0.7576	0.056	0.4211	0.068
Mof_C 	C 	0.6579	0.9925	0.3946	0.059
Mof_H 	H 	0.6143	0.032	0.3951	0.019
Mof_C 	C 	0.6959	0.8718	0.3792	0.058
Mof_H 	H 	0.6799	0.8238	0.3684	0.015
Mof_C 	C 	0.783	0.8818	0.3945	-0.116
Mof_H 	H 	0.825	0.8411	0.3943	0.067
Mof_C 	C 	0.5009	0.6343	0.61367	0.426
Mof_C 	C 	0.5768	0.6748	0.63611	-0.174
Mof_C 	C 	0.6663	0.6597	0.62515	0.084
Mof_H 	H 	0.6792	0.6237	0.604	-0.015
Mof_C 	C 	0.737	0.6974	0.64516	-0.136
Mof_H 	H 	0.7982	0.6863	0.6378	0.074
Mof_C 	C 	0.7199	0.7509	0.6757	0.055
Mof_C 	C 	0.6291	0.7642	0.6869	-0.122
Mof_H 	H 	0.6158	0.7994	0.7084	0.08
Mof_C 	C 	0.5584	0.7267	0.66694	0.067
Mof_H 	H 	0.497	0.7367	0.6746	0.021
Mof_C 	C 	0.7962	0.7921	0.69663	0.071
Mof_C 	C 	0.8812	0.797	0.67833	-0.111
Mof_H 	H 	0.8913	0.7756	0.6515	0.069
Mof_C 	C 	0.952	0.8332	0.69939	0.041
Mof_C 	C 	0.9324	0.8663	0.73748	-0.107
Mof_H 	H 	0.9785	0.8926	0.7525	0.065
Mof_C 	C 	0.8445	0.8609	0.75365	0.066
Mof_C 	C 	0.8201	0.8926	0.7955	0.068
Mof_C 	C 	0.8801	0.9393	0.81734	-0.147
Mof_H 	H 	0.9362	0.9538	0.805	0.08
Mof_C 	C 	0.858	0.9648	0.85731	0.106
Mof_H 	H 	0.8992	0.9971	0.8717	-0.012
Mof_C 	C 	0.7777	0.944	0.8762	-0.209
Mof_C 	C 	0.7166	0.8983	0.85391	0.09
Mof_H 	H 	0.6598	0.885	0.866	0.012
Mof_C 	C 	0.7384	0.8725	0.81469	-0.139
Mof_H 	H 	0.6969	0.8404	0.8003	0.086
Mof_C 	C 	0.7551	0.9684	0.91936	0.502
Mof_C 	C 	0.0457	0.8335	0.68207	0.065
Mof_C 	C 	0.1089	0.8881	0.6934	-0.128
Mof_H 	H 	0.0921	0.9275	0.7119	0.081
Mof_C 	C 	0.1966	0.8849	0.6775	0.072
Mof_H 	H 	0.239	0.9225	0.6859	0.019
Mof_C 	C 	0.165	0.7812	0.64	0.081
Mof_H 	H 	0.1832	0.7434	0.6207	0.009
Mof_C 	C 	0.0759	0.7797	0.65499	-0.135
Mof_H 	H 	0.0357	0.7407	0.6463	0.079
Mof_C 	C 	0.131	0.5662	0.59884	0.547
Mof_C 	C 	0.0712	0.5737	0.63679	-0.219
Mof_C 	C 	0.9776	0.5635	0.6339	0.113
Mof_H 	H 	0.9506	0.5494	0.608	-0.006
Mof_C 	C 	0.9235	0.574	0.66888	-0.154
Mof_H 	H 	0.8595	0.5662	0.6669	0.081
Mof_C 	C 	0.9621	0.5959	0.70698	0.07
Mof_C 	C 	0.0561	0.6044	0.70948	-0.147
Mof_H 	H 	0.0838	0.6185	0.7352	0.091
Mof_C 	C 	0.1092	0.5924	0.67473	0.108
Mof_H 	H 	0.1737	0.5971	0.677	0.006
Mof_C 	C 	0.905	0.6162	0.7438	0.067
Mof_C 	C 	0.8153	0.5948	0.74825	-0.114
Mof_H 	H 	0.787	0.5631	0.728	0.07
Mof_C 	C 	0.7664	0.6201	0.78271	0.049
Mof_C 	C 	0.8098	0.6661	0.8112	-0.114
Mof_H 	H 	0.7777	0.6846	0.8348	0.068
Mof_C 	C 	0.9011	0.6854	0.80515	0.072
Mof_C 	C 	0.9514	0.7375	0.83351	0.058
Mof_C 	C 	0.9206	0.7556	0.87316	-0.14
Mof_H 	H 	0.8703	0.7291	0.8847	0.073
Mof_C 	C 	0.9626	0.812	0.89607	0.088
Mof_H 	H 	0.9411	0.8238	0.9233	-0.037
Mof_C 	C 	0.0357	0.8514	0.87969	-0.187
Mof_C 	C 	0.0697	0.8311	0.84049	0.072
Mof_H 	H 	0.121	0.8567	0.8293	0.016
Mof_C 	C 	0.0295	0.7744	0.81812	-0.124
Mof_H 	H 	0.0543	0.7597	0.792	0.082
Mof_C 	C 	0.073	0.919	0.90067	0.421
Mof_C 	C 	0.6687	0.6015	0.787	0.055
Mof_C 	C 	0.612	0.595	0.7525	-0.124
Mof_H 	H 	0.636	0.6018	0.7252	0.076
Mof_C 	C 	0.521	0.5788	0.7575	0.068
Mof_H 	H 	0.4837	0.5766	0.7331	0.017
Mof_C 	C 	0.5363	0.5715	0.8264	0.071
Mof_H 	H 	0.5101	0.5629	0.8531	0.019
Mof_C 	C 	0.6299	0.5889	0.8257	-0.122
Mof_H 	H 	0.665	0.5919	0.8507	0.073
Mof_C 	C 	0.0312	0.3958	0.54912	0.593
Mof_H 	H 	0.9937	0.3674	0.5675	-0.164
Mof_N 	N 	0.6317	0.9267	0.3789	-0.126
Mof_N 	N 	0.0826	0.9884	0.45425	-0.126
Mof_N 	N 	0.2244	0.8317	0.6511	-0.133
Mof_N 	N 	0.7768	0.8242	0.73374	-0.127
Mof_N 	N 	0.4819	0.5661	0.7942	-0.133
Mof_N 	N 	0.9476	0.6605	0.77186	-0.128
Mof_O 	O 	0.1558	0.39331	0.46238	-0.628
Mof_O 	O 	0.2888	0.33568	0.47187	-0.607
Mof_O 	O 	0.518	0.60093	0.57915	-0.683
Mof_O 	O 	0.4218	0.6335	0.62837	-0.479
Mof_O 	O 	0.6769	0.95328	0.93344	-0.57
Mof_O 	O 	0.8158	0.00257	0.94055	-0.605
Mof_O 	O 	0.0918	0.5556	0.56423	-0.624
Mof_O 	O 	0.2154	0.5728	0.60423	-0.615
Mof_O 	O 	0.125	0.9623	0.881	-0.531
Mof_O 	O 	0.0484	0.93438	0.9381	-0.652
Mof_O 	O 	0.9937	0.43354	0.52047	-0.751
Mof_O 	O 	0.1143	0.3942	0.55431	-0.531
Mof_O 	O 	0.2797	0.46265	0.5322	-1.05
Mof_O 	O 	0.4318	0.55341	0.506	-1.092
Mof_H 	H 	0.279	0.439	0.5564	0.284
Mof_H 	H 	0.415	0.582	0.486	0.352
Mof_C 	C 	0.2623	0.679	0.52239	0.442
Mof_C 	C 	0.2132	0.7416	0.50142	-0.196
Mof_C 	C 	0.1486	0.7268	0.4711	0.098
Mof_H 	H 	0.1398	0.6766	0.4617	-0.014
Mof_C 	C 	0.0961	0.7843	0.4541	-0.146
Mof_H 	H 	0.0517	0.7731	0.4333	0.08
Mof_C 	C 	0.1078	0.8578	0.46725	0.06
Mof_C 	C 	0.1786	0.8733	0.4951	-0.133
Mof_H 	H 	0.1922	0.9241	0.5021	0.08
Mof_C 	C 	0.2296	0.8155	0.513	0.074
Mof_H 	H 	0.2755	0.8267	0.5332	0.01
Mof_O 	O 	0.2427	0.61143	0.51343	-0.692
Mof_O 	O 	0.3238	0.6927	0.54957	-0.52
Mof_Eu	Eu	0.35316	0.56187	0.56939	2.379
Mof_Eu	Eu	0.59423	0.57543	0.51238	2.259
Mof_Eu	Eu	0.14187	0.50258	0.50142	2.61
_end
