data_functionalizedCrystal
_audit_creation_method	'EQeq! by Chris Wilmer'
_symmetry_space_group_name_H-M	'P1'
_symmetry_Int_Tables_number	1
_symmetry_cell_setting	triclinic
loop_
_symmetry_equiv_pos_as_xyz
  x,y,z
_cell_length_a	13.6823
_cell_length_b	12.6063
_cell_length_c	12.7535
_cell_angle_alpha	90
_cell_angle_beta	116.988
_cell_angle_gamma	90
loop_
_atom_site_label
_atom_site_type_symbol
_atom_site_fract_x
_atom_site_fract_y
_atom_site_fract_z
_atom_site_charge
Mof_F 	F 	0.1894	0.0912	0.1258	-0.545
Mof_F 	F 	0.167	0.402	0.1389	-0.575
Mof_Fe	Fe	0.18006	0.24542	0.12798	1.19
Mof_Fe	Fe	0.69238	0.25105	0.30898	1.223
Mof_Fe	Fe	0.26061	0.99931	0.04243	0.999
Mof_Co	Co	0.25234	0.49943	0.28919	1.192
Mof_O 	O 	0.203	0.2306	0.2937	-0.345
Mof_O 	O 	0.1593	0.2358	0.4649	-0.355
Mof_O 	O 	0.3417	0.2529	0.1869	-0.342
Mof_O 	O 	0.0195	0.2373	0.0731	-0.326
Mof_O 	O 	0.3125	0.7321	0.8478	-0.36
Mof_O 	O 	0.536	0.2264	0.2414	-0.354
Mof_O 	O 	0.294	0.7373	0.0308	-0.341
Mof_O 	O 	0.8548	0.2292	0.8778	-0.397
Mof_F 	F 	0.3249	0.9029	0.1906	-0.558
Mof_F 	F 	0.2757	0.5996	0.1816	-0.604
Mof_O 	O 	0.321	0.9094	0.9433	-0.487
Mof_O 	O 	0.882	0.0896	0.0355	-0.33
Mof_O 	O 	0.4057	0.0804	0.133	-0.32
Mof_O 	O 	0.2033	0.4061	0.3889	-0.511
Mof_P 	P 	0.15311	0.29538	0.35831	0.564
Mof_P 	P 	0.34674	0.79149	0.96213	0.561
Mof_P 	P 	0.93561	0.16221	0.98099	0.597
Mof_P 	P 	0.42255	0.19829	0.15185	0.499
Mof_H 	H 	0.048	0.308	0.285	-0.473
Mof_H 	H 	0.454	0.7817	0.025	-0.42
Mof_H 	H 	0.99	0.102	0.941	-1.291
Mof_H 	H 	0.408	0.233	0.049	-0.039
Mof_O 	O 	0.027	0.306	0.267	0.398
Mof_O 	O 	0.469	0.775	0.025	0.364
Mof_O 	O 	0.975	0.103	0.904	1.385
Mof_F 	F 	0.8106	0.5912	0.3742	-0.55
Mof_F 	F 	0.833	0.902	0.3611	-0.573
Mof_Fe	Fe	0.81994	0.74542	0.37202	1.189
Mof_Fe	Fe	0.30762	0.75105	0.19102	1.222
Mof_Fe	Fe	0.73939	0.49931	0.45757	1.021
Mof_Co	Co	0.74766	0.99943	0.21081	1.19
Mof_O 	O 	0.797	0.7306	0.2063	-0.344
Mof_O 	O 	0.8407	0.7358	0.0351	-0.354
Mof_O 	O 	0.6583	0.7529	0.3131	-0.343
Mof_O 	O 	0.9805	0.7373	0.4269	-0.33
Mof_O 	O 	0.6875	0.2321	0.6522	-0.361
Mof_O 	O 	0.464	0.7264	0.2586	-0.355
Mof_O 	O 	0.706	0.2373	0.4692	-0.334
Mof_O 	O 	0.1452	0.7292	0.6222	-0.397
Mof_F 	F 	0.6751	0.4029	0.3094	-0.557
Mof_F 	F 	0.7243	0.0996	0.3184	-0.602
Mof_O 	O 	0.679	0.4094	0.5567	-0.495
Mof_O 	O 	0.118	0.5896	0.4645	-0.347
Mof_O 	O 	0.5943	0.5804	0.367	-0.327
Mof_O 	O 	0.7967	0.9061	0.1111	-0.512
Mof_P 	P 	0.84689	0.79538	0.14169	0.564
Mof_P 	P 	0.65326	0.29149	0.53787	0.551
Mof_P 	P 	0.06439	0.66221	0.51901	0.612
Mof_P 	P 	0.57745	0.69829	0.34815	0.499
Mof_H 	H 	0.952	0.808	0.215	-0.472
Mof_H 	H 	0.546	0.2817	0.475	-0.416
Mof_H 	H 	0.01	0.602	0.559	-1.285
Mof_H 	H 	0.592	0.733	0.451	-0.041
Mof_O 	O 	0.973	0.806	0.233	0.398
Mof_O 	O 	0.531	0.275	0.475	0.366
Mof_O 	O 	0.025	0.603	0.596	1.38
Mof_F 	F 	0.8106	0.9088	0.8742	-0.544
Mof_F 	F 	0.833	0.598	0.8611	-0.574
Mof_Fe	Fe	0.81994	0.75458	0.87202	1.191
Mof_Fe	Fe	0.30762	0.74895	0.69102	1.224
Mof_Fe	Fe	0.73939	0.00069	0.95757	1
Mof_Co	Co	0.74766	0.50057	0.71081	1.193
Mof_O 	O 	0.797	0.7694	0.7063	-0.344
Mof_O 	O 	0.8407	0.7642	0.5351	-0.354
Mof_O 	O 	0.6583	0.7471	0.8131	-0.342
Mof_O 	O 	0.9805	0.7627	0.9269	-0.326
Mof_O 	O 	0.6875	0.2679	0.1522	-0.36
Mof_O 	O 	0.464	0.7736	0.7586	-0.354
Mof_O 	O 	0.706	0.2627	0.9692	-0.341
Mof_O 	O 	0.1452	0.7708	0.1222	-0.397
Mof_F 	F 	0.6751	0.0971	0.8094	-0.558
Mof_F 	F 	0.7243	0.4004	0.8184	-0.604
Mof_O 	O 	0.679	0.0906	0.0567	-0.487
Mof_O 	O 	0.118	0.9104	0.9645	-0.33
Mof_O 	O 	0.5943	0.9196	0.867	-0.32
Mof_O 	O 	0.7967	0.5939	0.6111	-0.511
Mof_P 	P 	0.84689	0.70462	0.64169	0.564
Mof_P 	P 	0.65326	0.20851	0.03787	0.561
Mof_P 	P 	0.06439	0.83779	0.01901	0.597
Mof_P 	P 	0.57745	0.80171	0.84815	0.499
Mof_H 	H 	0.952	0.692	0.715	-0.473
Mof_H 	H 	0.546	0.2183	0.975	-0.42
Mof_H 	H 	0.01	0.898	0.059	-1.291
Mof_H 	H 	0.592	0.767	0.951	-0.039
Mof_O 	O 	0.973	0.694	0.733	0.398
Mof_O 	O 	0.531	0.225	0.975	0.364
Mof_O 	O 	0.025	0.897	0.096	1.385
Mof_F 	F 	0.1894	0.4088	0.6258	-0.55
Mof_F 	F 	0.167	0.098	0.6389	-0.573
Mof_Fe	Fe	0.18006	0.25458	0.62798	1.189
Mof_Fe	Fe	0.69238	0.24895	0.80898	1.222
Mof_Fe	Fe	0.26061	0.50069	0.54243	1.021
Mof_Co	Co	0.25234	0.00057	0.78919	1.19
Mof_O 	O 	0.203	0.2694	0.7937	-0.344
Mof_O 	O 	0.1593	0.2642	0.9649	-0.354
Mof_O 	O 	0.3417	0.2471	0.6869	-0.343
Mof_O 	O 	0.0195	0.2627	0.5731	-0.33
Mof_O 	O 	0.3125	0.7679	0.3478	-0.361
Mof_O 	O 	0.536	0.2736	0.7414	-0.355
Mof_O 	O 	0.294	0.7627	0.5308	-0.334
Mof_O 	O 	0.8548	0.2708	0.3778	-0.397
Mof_F 	F 	0.3249	0.5971	0.6906	-0.557
Mof_F 	F 	0.2757	0.9004	0.6816	-0.602
Mof_O 	O 	0.321	0.5906	0.4433	-0.495
Mof_O 	O 	0.882	0.4104	0.5355	-0.347
Mof_O 	O 	0.4057	0.4196	0.633	-0.327
Mof_O 	O 	0.2033	0.0939	0.8889	-0.512
Mof_P 	P 	0.15311	0.20462	0.85831	0.564
Mof_P 	P 	0.34674	0.70851	0.46213	0.551
Mof_P 	P 	0.93561	0.33779	0.48099	0.612
Mof_P 	P 	0.42255	0.30171	0.65185	0.499
Mof_H 	H 	0.048	0.192	0.785	-0.472
Mof_H 	H 	0.454	0.7183	0.525	-0.416
Mof_H 	H 	0.99	0.398	0.441	-1.285
Mof_H 	H 	0.408	0.267	0.549	-0.041
Mof_O 	O 	0.027	0.194	0.767	0.398
Mof_O 	O 	0.469	0.725	0.525	0.366
Mof_O 	O 	0.975	0.397	0.404	1.38
_end
