data_functionalizedCrystal
_audit_creation_method	'EQeq! by Chris Wilmer'
_symmetry_space_group_name_H-M	'P1'
_symmetry_Int_Tables_number	1
_symmetry_cell_setting	triclinic
loop_
_symmetry_equiv_pos_as_xyz
  x,y,z
_cell_length_a	26.9007
_cell_length_b	26.9007
_cell_length_c	26.9007
_cell_angle_alpha	109.471
_cell_angle_beta	109.471
_cell_angle_gamma	109.471
loop_
_atom_site_label
_atom_site_type_symbol
_atom_site_fract_x
_atom_site_fract_y
_atom_site_fract_z
_atom_site_charge
Mof_In	In	0.35442	0.85442	0.70884	2.138
Mof_In	In	0.14558	0.64558	0.29116	2.136
Mof_In	In	0.85442	0.14558	0.5	2.137
Mof_In	In	0.64558	0.35442	0.5	2.137
Mof_In	In	0.5	0.85442	0.14558	2.137
Mof_In	In	0.5	0.64558	0.35442	2.137
Mof_In	In	0.70884	0.35442	0.85442	2.138
Mof_In	In	0.29116	0.14558	0.64558	2.136
Mof_In	In	0.64558	0.29116	0.14558	2.136
Mof_In	In	0.85442	0.70884	0.35442	2.138
Mof_In	In	0.35442	0.5	0.64558	2.137
Mof_In	In	0.14558	0.5	0.85442	2.137
Mof_In	In	0.64558	0.14558	0.29116	2.136
Mof_In	In	0.85442	0.35442	0.70884	2.138
Mof_In	In	0.14558	0.85442	0.5	2.137
Mof_In	In	0.35442	0.64558	0.5	2.137
Mof_In	In	0.5	0.14558	0.85442	2.137
Mof_In	In	0.5	0.35442	0.64558	2.137
Mof_In	In	0.29116	0.64558	0.14558	2.136
Mof_In	In	0.70884	0.85442	0.35442	2.138
Mof_In	In	0.35442	0.70884	0.85442	2.138
Mof_In	In	0.14558	0.29116	0.64558	2.136
Mof_In	In	0.64558	0.5	0.35442	2.137
Mof_In	In	0.85442	0.5	0.14558	2.137
Mof_H 	H 	0.3772	0	0.7816	-0.061
Mof_H 	H 	0.2184	0.5956	0.2184	-0.062
Mof_H 	H 	0.7816	-3.03457e-17	0.3772	-0.061
Mof_H 	H 	0.6228	0.4044	0.6228	-0.061
Mof_H 	H 	0.3772	0.7816	-0	-0.061
Mof_H 	H 	0.6228	0.6228	0.4044	-0.061
Mof_H 	H 	0.7816	0.3772	-0	-0.061
Mof_H 	H 	0.2184	0.2184	0.5956	-0.062
Mof_H 	H 	0.5956	0.2184	0.2184	-0.062
Mof_H 	H 	-9.86237e-17	0.7816	0.3772	-0.061
Mof_H 	H 	0.4044	0.6228	0.6228	-0.061
Mof_H 	H 	-3.03457e-17	0.3772	0.7816	-0.061
Mof_H 	H 	-3.03457e-17	0.6228	0.2184	-0.061
Mof_H 	H 	0.4044	0.7816	0.7816	-0.061
Mof_H 	H 	-0	0.2184	0.6228	-0.061
Mof_H 	H 	0.5956	0.3772	0.3772	-0.061
Mof_H 	H 	0.2184	0.6228	-0	-0.061
Mof_H 	H 	0.3772	0.3772	0.5956	-0.061
Mof_H 	H 	0.6228	0.2184	-0	-0.061
Mof_H 	H 	0.7816	0.7816	0.4044	-0.061
Mof_H 	H 	0.7816	0.4044	0.7816	-0.061
Mof_H 	H 	0.2184	0	0.6228	-0.061
Mof_H 	H 	0.3772	0.5956	0.3772	-0.061
Mof_H 	H 	0.6228	-1.51729e-17	0.2184	-0.061
Mof_H 	H 	0.1827	0.6264	0.5563	0.178
Mof_H 	H 	0.4108	0.781	0.6298	-0.025
Mof_H 	H 	0.0701	0.6264	0.4437	0.178
Mof_H 	H 	0.1512	0.781	0.3702	-0.025
Mof_H 	H 	0.9299	0.3736	0.5563	0.179
Mof_H 	H 	0.8488	0.219	0.6298	-0.025
Mof_H 	H 	0.8173	0.3736	0.4437	0.179
Mof_H 	H 	0.5892	0.219	0.3702	-0.025
Mof_H 	H 	0.5563	0.9299	0.3736	0.179
Mof_H 	H 	0.6298	0.8488	0.219	-0.025
Mof_H 	H 	0.4437	0.8173	0.3736	0.179
Mof_H 	H 	0.3702	0.5892	0.219	-0.025
Mof_H 	H 	0.5563	0.1827	0.6264	0.178
Mof_H 	H 	0.6298	0.4108	0.781	-0.025
Mof_H 	H 	0.4437	0.0701	0.6264	0.178
Mof_H 	H 	0.3702	0.1512	0.781	-0.025
Mof_H 	H 	0.6264	0.4437	0.0701	0.178
Mof_H 	H 	0.781	0.3702	0.1512	-0.025
Mof_H 	H 	0.6264	0.5563	0.1827	0.178
Mof_H 	H 	0.781	0.6298	0.4108	-0.025
Mof_H 	H 	0.3736	0.4437	0.8173	0.179
Mof_H 	H 	0.219	0.3702	0.5892	-0.025
Mof_H 	H 	0.3736	0.5563	0.9299	0.179
Mof_H 	H 	0.219	0.6298	0.8488	-0.025
Mof_H 	H 	0.3736	0.8173	0.4437	0.179
Mof_H 	H 	0.219	0.5892	0.3702	-0.025
Mof_H 	H 	0.3736	0.9299	0.5563	0.179
Mof_H 	H 	0.219	0.8488	0.6298	-0.025
Mof_H 	H 	0.6264	0.0701	0.4437	0.178
Mof_H 	H 	0.781	0.1512	0.3702	-0.025
Mof_H 	H 	0.6264	0.1827	0.5563	0.178
Mof_H 	H 	0.781	0.4108	0.6298	-0.025
Mof_H 	H 	0.0701	0.4437	0.6264	0.178
Mof_H 	H 	0.1512	0.3702	0.781	-0.025
Mof_H 	H 	0.1827	0.5563	0.6264	0.178
Mof_H 	H 	0.4108	0.6298	0.781	-0.025
Mof_H 	H 	0.8173	0.4437	0.3736	0.179
Mof_H 	H 	0.5892	0.3702	0.219	-0.025
Mof_H 	H 	0.9299	0.5563	0.3736	0.179
Mof_H 	H 	0.8488	0.6298	0.219	-0.025
Mof_H 	H 	0.5563	0.3736	0.9299	0.179
Mof_H 	H 	0.6298	0.219	0.8488	-0.025
Mof_H 	H 	0.4437	0.3736	0.8173	0.179
Mof_H 	H 	0.3702	0.219	0.5892	-0.025
Mof_H 	H 	0.5563	0.6264	0.1827	0.178
Mof_H 	H 	0.6298	0.781	0.4108	-0.025
Mof_H 	H 	0.4437	0.6264	0.0701	0.178
Mof_H 	H 	0.3702	0.781	0.1512	-0.025
Mof_C 	C 	0.4957	0.9189	0.7868	0.302
Mof_C 	C 	0.4755	0.9666	0.7989	-0.003
Mof_C 	C 	0.2351	0.7217	0.6238	0.3
Mof_C 	C 	0.283	0.7183	0.6075	-0.036
Mof_C 	C 	0.1321	0.7089	0.2132	0.303
Mof_C 	C 	0.1677	0.6766	0.2011	-0.013
Mof_C 	C 	0.0979	0.6113	0.3762	0.3
Mof_C 	C 	0.1108	0.6755	0.3925	-0.036
Mof_C 	C 	0.8679	0.0811	0.5768	0.305
Mof_C 	C 	0.8323	0.0334	0.5089	-0.021
Mof_C 	C 	0.9021	0.2783	0.5134	0.301
Mof_C 	C 	0.8892	0.2817	0.5647	-0.035
Mof_C 	C 	0.5043	0.2911	0.4232	0.304
Mof_C 	C 	0.5245	0.3234	0.4911	-0.013
Mof_C 	C 	0.7649	0.3887	0.4866	0.3
Mof_C 	C 	0.717	0.3245	0.4353	-0.035
Mof_C 	C 	0.5768	0.8679	0.0811	0.305
Mof_C 	C 	0.5089	0.8323	0.0334	-0.021
Mof_C 	C 	0.5134	0.9021	0.2783	0.301
Mof_C 	C 	0.5647	0.8892	0.2817	-0.035
Mof_C 	C 	0.4232	0.5043	0.2911	0.304
Mof_C 	C 	0.4911	0.5245	0.3234	-0.013
Mof_C 	C 	0.4866	0.7649	0.3887	0.3
Mof_C 	C 	0.4353	0.717	0.3245	-0.035
Mof_C 	C 	0.7868	0.4957	0.9189	0.302
Mof_C 	C 	0.7989	0.4755	0.9666	-0.003
Mof_C 	C 	0.6238	0.2351	0.7217	0.3
Mof_C 	C 	0.6075	0.283	0.7183	-0.036
Mof_C 	C 	0.2132	0.1321	0.7089	0.303
Mof_C 	C 	0.2011	0.1677	0.6766	-0.013
Mof_C 	C 	0.3762	0.0979	0.6113	0.3
Mof_C 	C 	0.3925	0.1108	0.6755	-0.036
Mof_C 	C 	0.7089	0.2132	0.1321	0.303
Mof_C 	C 	0.6766	0.2011	0.1677	-0.013
Mof_C 	C 	0.6113	0.3762	0.0979	0.3
Mof_C 	C 	0.6755	0.3925	0.1108	-0.036
Mof_C 	C 	0.9189	0.7868	0.4957	0.302
Mof_C 	C 	0.9666	0.7989	0.4755	-0.003
Mof_C 	C 	0.7217	0.6238	0.2351	0.3
Mof_C 	C 	0.7183	0.6075	0.283	-0.036
Mof_C 	C 	0.2911	0.4232	0.5043	0.304
Mof_C 	C 	0.3234	0.4911	0.5245	-0.013
Mof_C 	C 	0.3887	0.4866	0.7649	0.3
Mof_C 	C 	0.3245	0.4353	0.717	-0.035
Mof_C 	C 	0.0811	0.5768	0.8679	0.305
Mof_C 	C 	0.0334	0.5089	0.8323	-0.021
Mof_C 	C 	0.2783	0.5134	0.9021	0.301
Mof_C 	C 	0.2817	0.5647	0.8892	-0.035
Mof_C 	C 	0.0811	0.5043	0.2132	0.305
Mof_C 	C 	0.0334	0.5245	0.2011	-0.021
Mof_C 	C 	0.2783	0.7649	0.3762	0.3
Mof_C 	C 	0.2817	0.717	0.3925	-0.035
Mof_C 	C 	0.2911	0.8679	0.7868	0.304
Mof_C 	C 	0.3234	0.8323	0.7989	-0.012
Mof_C 	C 	0.3887	0.9021	0.6238	0.301
Mof_C 	C 	0.3245	0.8892	0.6075	-0.035
Mof_C 	C 	0.9189	0.1321	0.4232	0.302
Mof_C 	C 	0.9666	0.1677	0.4911	-0.005
Mof_C 	C 	0.7217	0.0979	0.4866	0.3
Mof_C 	C 	0.7183	0.1108	0.4353	-0.036
Mof_C 	C 	0.7089	0.4957	0.5768	0.303
Mof_C 	C 	0.6766	0.4755	0.5089	-0.012
Mof_C 	C 	0.6113	0.2351	0.5134	0.301
Mof_C 	C 	0.6755	0.283	0.5647	-0.036
Mof_C 	C 	0.1321	0.4232	0.9189	0.302
Mof_C 	C 	0.1677	0.4911	0.9666	-0.005
Mof_C 	C 	0.0979	0.4866	0.7217	0.3
Mof_C 	C 	0.1108	0.4353	0.7183	-0.036
Mof_C 	C 	0.4957	0.5768	0.7089	0.303
Mof_C 	C 	0.4755	0.5089	0.6766	-0.012
Mof_C 	C 	0.2351	0.5134	0.6113	0.301
Mof_C 	C 	0.283	0.5647	0.6755	-0.036
Mof_C 	C 	0.5043	0.2132	0.0811	0.305
Mof_C 	C 	0.5245	0.2011	0.0334	-0.021
Mof_C 	C 	0.7649	0.3762	0.2783	0.3
Mof_C 	C 	0.717	0.3925	0.2817	-0.035
Mof_C 	C 	0.8679	0.7868	0.2911	0.304
Mof_C 	C 	0.8323	0.7989	0.3234	-0.012
Mof_C 	C 	0.9021	0.6238	0.3887	0.301
Mof_C 	C 	0.8892	0.6075	0.3245	-0.035
Mof_C 	C 	0.7868	0.2911	0.8679	0.304
Mof_C 	C 	0.7989	0.3234	0.8323	-0.012
Mof_C 	C 	0.6238	0.3887	0.9021	0.301
Mof_C 	C 	0.6075	0.3245	0.8892	-0.035
Mof_C 	C 	0.2132	0.0811	0.5043	0.305
Mof_C 	C 	0.2011	0.0334	0.5245	-0.021
Mof_C 	C 	0.3762	0.2783	0.7649	0.3
Mof_C 	C 	0.3925	0.2817	0.717	-0.035
Mof_C 	C 	0.5768	0.7089	0.4957	0.303
Mof_C 	C 	0.5089	0.6766	0.4755	-0.012
Mof_C 	C 	0.5134	0.6113	0.2351	0.301
Mof_C 	C 	0.5647	0.6755	0.283	-0.036
Mof_C 	C 	0.4232	0.9189	0.1321	0.302
Mof_C 	C 	0.4911	0.9666	0.1677	-0.005
Mof_C 	C 	0.4866	0.7217	0.0979	0.3
Mof_C 	C 	0.4353	0.7183	0.1108	-0.036
Mof_C 	C 	0.5043	0.0811	0.2132	0.305
Mof_C 	C 	0.5245	0.0334	0.2011	-0.021
Mof_C 	C 	0.7649	0.2783	0.3762	0.3
Mof_C 	C 	0.717	0.2817	0.3925	-0.035
Mof_C 	C 	0.8679	0.2911	0.7868	0.304
Mof_C 	C 	0.8323	0.3234	0.7989	-0.012
Mof_C 	C 	0.9021	0.3887	0.6238	0.301
Mof_C 	C 	0.8892	0.3245	0.6075	-0.035
Mof_C 	C 	0.1321	0.9189	0.4232	0.302
Mof_C 	C 	0.1677	0.9666	0.4911	-0.005
Mof_C 	C 	0.0979	0.7217	0.4866	0.3
Mof_C 	C 	0.1108	0.7183	0.4353	-0.036
Mof_C 	C 	0.4957	0.7089	0.5768	0.303
Mof_C 	C 	0.4755	0.6766	0.5089	-0.012
Mof_C 	C 	0.2351	0.6113	0.5134	0.301
Mof_C 	C 	0.283	0.6755	0.5647	-0.036
Mof_C 	C 	0.4232	0.1321	0.9189	0.302
Mof_C 	C 	0.4911	0.1677	0.9666	-0.005
Mof_C 	C 	0.4866	0.0979	0.7217	0.3
Mof_C 	C 	0.4353	0.1108	0.7183	-0.036
Mof_C 	C 	0.5768	0.4957	0.7089	0.303
Mof_C 	C 	0.5089	0.4755	0.6766	-0.012
Mof_C 	C 	0.5134	0.2351	0.6113	0.301
Mof_C 	C 	0.5647	0.283	0.6755	-0.036
Mof_C 	C 	0.2132	0.5043	0.0811	0.305
Mof_C 	C 	0.2011	0.5245	0.0334	-0.021
Mof_C 	C 	0.3762	0.7649	0.2783	0.3
Mof_C 	C 	0.3925	0.717	0.2817	-0.035
Mof_C 	C 	0.7868	0.8679	0.2911	0.304
Mof_C 	C 	0.7989	0.8323	0.3234	-0.012
Mof_C 	C 	0.6238	0.9021	0.3887	0.301
Mof_C 	C 	0.6075	0.8892	0.3245	-0.035
Mof_C 	C 	0.2911	0.7868	0.8679	0.304
Mof_C 	C 	0.3234	0.7989	0.8323	-0.012
Mof_C 	C 	0.3887	0.6238	0.9021	0.301
Mof_C 	C 	0.3245	0.6075	0.8892	-0.035
Mof_C 	C 	0.0811	0.2132	0.5043	0.305
Mof_C 	C 	0.0334	0.2011	0.5245	-0.021
Mof_C 	C 	0.2783	0.3762	0.7649	0.3
Mof_C 	C 	0.2817	0.3925	0.717	-0.035
Mof_C 	C 	0.7089	0.5768	0.4957	0.303
Mof_C 	C 	0.6766	0.5089	0.4755	-0.012
Mof_C 	C 	0.6113	0.5134	0.2351	0.301
Mof_C 	C 	0.6755	0.5647	0.283	-0.036
Mof_C 	C 	0.9189	0.4232	0.1321	0.302
Mof_C 	C 	0.9666	0.4911	0.1677	-0.005
Mof_C 	C 	0.7217	0.4866	0.0979	0.3
Mof_C 	C 	0.7183	0.4353	0.1108	-0.036
Mof_C 	C 	0.9189	0.4957	0.7868	0.302
Mof_C 	C 	0.9666	0.4755	0.7989	-0.003
Mof_C 	C 	0.7217	0.2351	0.6238	0.3
Mof_C 	C 	0.7183	0.283	0.6075	-0.036
Mof_C 	C 	0.7089	0.1321	0.2132	0.303
Mof_C 	C 	0.6766	0.1677	0.2011	-0.013
Mof_C 	C 	0.6113	0.0979	0.3762	0.3
Mof_C 	C 	0.6755	0.1108	0.3925	-0.036
Mof_C 	C 	0.0811	0.8679	0.5768	0.305
Mof_C 	C 	0.0334	0.8323	0.5089	-0.021
Mof_C 	C 	0.2783	0.9021	0.5134	0.301
Mof_C 	C 	0.2817	0.8892	0.5647	-0.035
Mof_C 	C 	0.2911	0.5043	0.4232	0.304
Mof_C 	C 	0.3234	0.5245	0.4911	-0.013
Mof_C 	C 	0.3887	0.7649	0.4866	0.3
Mof_C 	C 	0.3245	0.717	0.4353	-0.035
Mof_C 	C 	0.8679	0.5768	0.0811	0.305
Mof_C 	C 	0.8323	0.5089	0.0334	-0.021
Mof_C 	C 	0.9021	0.5134	0.2783	0.301
Mof_C 	C 	0.8892	0.5647	0.2817	-0.035
Mof_C 	C 	0.5043	0.4232	0.2911	0.304
Mof_C 	C 	0.5245	0.4911	0.3234	-0.013
Mof_C 	C 	0.7649	0.4866	0.3887	0.3
Mof_C 	C 	0.717	0.4353	0.3245	-0.035
Mof_C 	C 	0.4957	0.7868	0.9189	0.302
Mof_C 	C 	0.4755	0.7989	0.9666	-0.003
Mof_C 	C 	0.2351	0.6238	0.7217	0.3
Mof_C 	C 	0.283	0.6075	0.7183	-0.036
Mof_C 	C 	0.1321	0.2132	0.7089	0.303
Mof_C 	C 	0.1677	0.2011	0.6766	-0.013
Mof_C 	C 	0.0979	0.3762	0.6113	0.3
Mof_C 	C 	0.1108	0.3925	0.6755	-0.036
Mof_C 	C 	0.2132	0.7089	0.1321	0.303
Mof_C 	C 	0.2011	0.6766	0.1677	-0.013
Mof_C 	C 	0.3762	0.6113	0.0979	0.3
Mof_C 	C 	0.3925	0.6755	0.1108	-0.036
Mof_C 	C 	0.7868	0.9189	0.4957	0.302
Mof_C 	C 	0.7989	0.9666	0.4755	-0.003
Mof_C 	C 	0.6238	0.7217	0.2351	0.3
Mof_C 	C 	0.6075	0.7183	0.283	-0.036
Mof_C 	C 	0.4232	0.2911	0.5043	0.304
Mof_C 	C 	0.4911	0.3234	0.5245	-0.013
Mof_C 	C 	0.4866	0.3887	0.7649	0.3
Mof_C 	C 	0.4353	0.3245	0.717	-0.035
Mof_C 	C 	0.5768	0.0811	0.8679	0.305
Mof_C 	C 	0.5089	0.0334	0.8323	-0.021
Mof_C 	C 	0.5134	0.2783	0.9021	0.301
Mof_C 	C 	0.5647	0.2817	0.8892	-0.035
Mof_C 	C 	0.4147	-6.06915e-17	0.7923	0.238
Mof_C 	C 	0.2077	0.6224	0.2077	0.247
Mof_C 	C 	0.7923	0	0.4147	0.238
Mof_C 	C 	0.5853	0.3776	0.5853	0.248
Mof_C 	C 	0.4147	0.7923	-0	0.238
Mof_C 	C 	0.5853	0.5853	0.3776	0.248
Mof_C 	C 	0.7923	0.4147	-0	0.238
Mof_C 	C 	0.2077	0.2077	0.6224	0.247
Mof_C 	C 	0.6224	0.2077	0.2077	0.247
Mof_C 	C 	-3.03457e-17	0.7923	0.4147	0.238
Mof_C 	C 	0.3776	0.5853	0.5853	0.248
Mof_C 	C 	-7.58644e-17	0.4147	0.7923	0.238
Mof_C 	C 	-3.79322e-17	0.5853	0.2077	0.238
Mof_C 	C 	0.3776	0.7923	0.7923	0.248
Mof_C 	C 	-4.55186e-17	0.2077	0.5853	0.238
Mof_C 	C 	0.6224	0.4147	0.4147	0.248
Mof_C 	C 	0.2077	0.5853	-0	0.238
Mof_C 	C 	0.4147	0.4147	0.6224	0.248
Mof_C 	C 	0.5853	0.2077	-0	0.238
Mof_C 	C 	0.7923	0.7923	0.3776	0.248
Mof_C 	C 	0.7923	0.3776	0.7923	0.248
Mof_C 	C 	0.2077	0	0.5853	0.238
Mof_C 	C 	0.4147	0.6224	0.4147	0.248
Mof_C 	C 	0.5853	-1.51729e-17	0.2077	0.238
Mof_C 	C 	0.3696	0.7539	0.6157	0.206
Mof_C 	C 	0.1382	0.7539	0.3843	0.205
Mof_C 	C 	0.8618	0.2461	0.6157	0.207
Mof_C 	C 	0.6304	0.2461	0.3843	0.206
Mof_C 	C 	0.6157	0.8618	0.2461	0.207
Mof_C 	C 	0.3843	0.6304	0.2461	0.206
Mof_C 	C 	0.6157	0.3696	0.7539	0.206
Mof_C 	C 	0.3843	0.1382	0.7539	0.205
Mof_C 	C 	0.7539	0.3843	0.1382	0.205
Mof_C 	C 	0.7539	0.6157	0.3696	0.206
Mof_C 	C 	0.2461	0.3843	0.6304	0.206
Mof_C 	C 	0.2461	0.6157	0.8618	0.207
Mof_C 	C 	0.2461	0.6304	0.3843	0.206
Mof_C 	C 	0.2461	0.8618	0.6157	0.207
Mof_C 	C 	0.7539	0.1382	0.3843	0.205
Mof_C 	C 	0.7539	0.3696	0.6157	0.206
Mof_C 	C 	0.1382	0.3843	0.7539	0.205
Mof_C 	C 	0.3696	0.6157	0.7539	0.206
Mof_C 	C 	0.6304	0.3843	0.2461	0.206
Mof_C 	C 	0.8618	0.6157	0.2461	0.207
Mof_C 	C 	0.6157	0.2461	0.8618	0.207
Mof_C 	C 	0.3843	0.2461	0.6304	0.206
Mof_C 	C 	0.6157	0.7539	0.3696	0.206
Mof_C 	C 	0.3843	0.7539	0.1382	0.205
Mof_N 	N 	0.415	0.9488	0.7742	-0.363
Mof_N 	N 	0.3394	0.7704	0.6418	-0.347
Mof_N 	N 	0.1746	0.6408	0.2258	-0.366
Mof_N 	N 	0.1286	0.6976	0.3582	-0.347
Mof_N 	N 	0.8254	0.0512	0.4662	-0.364
Mof_N 	N 	0.8714	0.2296	0.569	-0.346
Mof_N 	N 	0.585	0.3592	0.5338	-0.366
Mof_N 	N 	0.6606	0.3024	0.431	-0.347
Mof_N 	N 	0.4662	0.8254	0.0512	-0.364
Mof_N 	N 	0.569	0.8714	0.2296	-0.346
Mof_N 	N 	0.5338	0.585	0.3592	-0.366
Mof_N 	N 	0.431	0.6606	0.3024	-0.347
Mof_N 	N 	0.7742	0.415	0.9488	-0.363
Mof_N 	N 	0.6418	0.3394	0.7704	-0.347
Mof_N 	N 	0.2258	0.1746	0.6408	-0.366
Mof_N 	N 	0.3582	0.1286	0.6976	-0.347
Mof_N 	N 	0.6408	0.2258	0.1746	-0.366
Mof_N 	N 	0.6976	0.3582	0.1286	-0.347
Mof_N 	N 	0.9488	0.7742	0.415	-0.363
Mof_N 	N 	0.7704	0.6418	0.3394	-0.347
Mof_N 	N 	0.3592	0.5338	0.585	-0.366
Mof_N 	N 	0.3024	0.431	0.6606	-0.347
Mof_N 	N 	0.0512	0.4662	0.8254	-0.364
Mof_N 	N 	0.2296	0.569	0.8714	-0.346
Mof_N 	N 	0.0512	0.585	0.2258	-0.364
Mof_N 	N 	0.2296	0.6606	0.3582	-0.347
Mof_N 	N 	0.3592	0.8254	0.7742	-0.366
Mof_N 	N 	0.3024	0.8714	0.6418	-0.347
Mof_N 	N 	0.9488	0.1746	0.5338	-0.363
Mof_N 	N 	0.7704	0.1286	0.431	-0.347
Mof_N 	N 	0.6408	0.415	0.4662	-0.366
Mof_N 	N 	0.6976	0.3394	0.569	-0.347
Mof_N 	N 	0.1746	0.5338	0.9488	-0.363
Mof_N 	N 	0.1286	0.431	0.7704	-0.347
Mof_N 	N 	0.415	0.4662	0.6408	-0.366
Mof_N 	N 	0.3394	0.569	0.6976	-0.347
Mof_N 	N 	0.585	0.2258	0.0512	-0.364
Mof_N 	N 	0.6606	0.3582	0.2296	-0.347
Mof_N 	N 	0.8254	0.7742	0.3592	-0.366
Mof_N 	N 	0.8714	0.6418	0.3024	-0.347
Mof_N 	N 	0.7742	0.3592	0.8254	-0.366
Mof_N 	N 	0.6418	0.3024	0.8714	-0.347
Mof_N 	N 	0.2258	0.0512	0.585	-0.364
Mof_N 	N 	0.3582	0.2296	0.6606	-0.347
Mof_N 	N 	0.4662	0.6408	0.415	-0.366
Mof_N 	N 	0.569	0.6976	0.3394	-0.347
Mof_N 	N 	0.5338	0.9488	0.1746	-0.363
Mof_N 	N 	0.431	0.7704	0.1286	-0.347
Mof_N 	N 	0.585	0.0512	0.2258	-0.364
Mof_N 	N 	0.6606	0.2296	0.3582	-0.347
Mof_N 	N 	0.8254	0.3592	0.7742	-0.366
Mof_N 	N 	0.8714	0.3024	0.6418	-0.347
Mof_N 	N 	0.1746	0.9488	0.5338	-0.363
Mof_N 	N 	0.1286	0.7704	0.431	-0.347
Mof_N 	N 	0.415	0.6408	0.4662	-0.366
Mof_N 	N 	0.3394	0.6976	0.569	-0.347
Mof_N 	N 	0.5338	0.1746	0.9488	-0.363
Mof_N 	N 	0.431	0.1286	0.7704	-0.347
Mof_N 	N 	0.4662	0.415	0.6408	-0.366
Mof_N 	N 	0.569	0.3394	0.6976	-0.347
Mof_N 	N 	0.2258	0.585	0.0512	-0.364
Mof_N 	N 	0.3582	0.6606	0.2296	-0.347
Mof_N 	N 	0.7742	0.8254	0.3592	-0.366
Mof_N 	N 	0.6418	0.8714	0.3024	-0.347
Mof_N 	N 	0.3592	0.7742	0.8254	-0.366
Mof_N 	N 	0.3024	0.6418	0.8714	-0.347
Mof_N 	N 	0.0512	0.2258	0.585	-0.364
Mof_N 	N 	0.2296	0.3582	0.6606	-0.347
Mof_N 	N 	0.6408	0.4662	0.415	-0.366
Mof_N 	N 	0.6976	0.569	0.3394	-0.347
Mof_N 	N 	0.9488	0.5338	0.1746	-0.363
Mof_N 	N 	0.7704	0.431	0.1286	-0.347
Mof_N 	N 	0.9488	0.415	0.7742	-0.363
Mof_N 	N 	0.7704	0.3394	0.6418	-0.347
Mof_N 	N 	0.6408	0.1746	0.2258	-0.366
Mof_N 	N 	0.6976	0.1286	0.3582	-0.347
Mof_N 	N 	0.0512	0.8254	0.4662	-0.364
Mof_N 	N 	0.2296	0.8714	0.569	-0.346
Mof_N 	N 	0.3592	0.585	0.5338	-0.366
Mof_N 	N 	0.3024	0.6606	0.431	-0.347
Mof_N 	N 	0.8254	0.4662	0.0512	-0.364
Mof_N 	N 	0.8714	0.569	0.2296	-0.346
Mof_N 	N 	0.585	0.5338	0.3592	-0.366
Mof_N 	N 	0.6606	0.431	0.3024	-0.347
Mof_N 	N 	0.415	0.7742	0.9488	-0.363
Mof_N 	N 	0.3394	0.6418	0.7704	-0.347
Mof_N 	N 	0.1746	0.2258	0.6408	-0.366
Mof_N 	N 	0.1286	0.3582	0.6976	-0.347
Mof_N 	N 	0.2258	0.6408	0.1746	-0.366
Mof_N 	N 	0.3582	0.6976	0.1286	-0.347
Mof_N 	N 	0.7742	0.9488	0.415	-0.363
Mof_N 	N 	0.6418	0.7704	0.3394	-0.347
Mof_N 	N 	0.5338	0.3592	0.585	-0.366
Mof_N 	N 	0.431	0.3024	0.6606	-0.347
Mof_N 	N 	0.4662	0.0512	0.8254	-0.364
Mof_N 	N 	0.569	0.2296	0.8714	-0.346
Mof_O 	O 	0.4587	0.86699	0.75529	-0.4
Mof_O 	O 	0.5565	0.94222	0.81332	-0.151
Mof_O 	O 	0.24593	0.76918	0.66155	-0.387
Mof_O 	O 	0.18277	0.67067	0.5921	-0.24
Mof_O 	O 	0.1117	0.70341	0.24471	-0.402
Mof_O 	O 	0.1289	0.74318	0.18668	-0.157
Mof_O 	O 	0.10763	0.58438	0.33845	-0.388
Mof_O 	O 	0.07857	0.59067	0.4079	-0.241
Mof_O 	O 	0.8883	0.13301	0.59171	-0.401
Mof_O 	O 	0.8711	0.05778	0.61428	-0.157
Mof_O 	O 	0.89237	0.23082	0.47675	-0.386
Mof_O 	O 	0.92143	0.32933	0.5121	-0.238
Mof_O 	O 	0.5413	0.29659	0.40829	-0.402
Mof_O 	O 	0.4435	0.25682	0.38572	-0.157
Mof_O 	O 	0.75407	0.41562	0.52325	-0.387
Mof_O 	O 	0.81723	0.40933	0.4879	-0.239
Mof_O 	O 	0.59171	0.8883	0.13301	-0.401
Mof_O 	O 	0.61428	0.8711	0.05778	-0.157
Mof_O 	O 	0.47675	0.89237	0.23082	-0.386
Mof_O 	O 	0.5121	0.92143	0.32933	-0.238
Mof_O 	O 	0.40829	0.5413	0.29659	-0.402
Mof_O 	O 	0.38572	0.4435	0.25682	-0.157
Mof_O 	O 	0.52325	0.75407	0.41562	-0.387
Mof_O 	O 	0.4879	0.81723	0.40933	-0.239
Mof_O 	O 	0.75529	0.4587	0.86699	-0.4
Mof_O 	O 	0.81332	0.5565	0.94222	-0.151
Mof_O 	O 	0.66155	0.24593	0.76918	-0.387
Mof_O 	O 	0.5921	0.18277	0.67067	-0.24
Mof_O 	O 	0.24471	0.1117	0.70341	-0.402
Mof_O 	O 	0.18668	0.1289	0.74318	-0.157
Mof_O 	O 	0.33845	0.10763	0.58438	-0.388
Mof_O 	O 	0.4079	0.07857	0.59067	-0.241
Mof_O 	O 	0.70341	0.24471	0.1117	-0.402
Mof_O 	O 	0.74318	0.18668	0.1289	-0.157
Mof_O 	O 	0.58438	0.33845	0.10763	-0.388
Mof_O 	O 	0.59067	0.4079	0.07857	-0.241
Mof_O 	O 	0.86699	0.75529	0.4587	-0.4
Mof_O 	O 	0.94222	0.81332	0.5565	-0.151
Mof_O 	O 	0.76918	0.66155	0.24593	-0.387
Mof_O 	O 	0.67067	0.5921	0.18277	-0.24
Mof_O 	O 	0.29659	0.40829	0.5413	-0.402
Mof_O 	O 	0.25682	0.38572	0.4435	-0.157
Mof_O 	O 	0.41562	0.52325	0.75407	-0.387
Mof_O 	O 	0.40933	0.4879	0.81723	-0.239
Mof_O 	O 	0.13301	0.59171	0.8883	-0.401
Mof_O 	O 	0.05778	0.61428	0.8711	-0.157
Mof_O 	O 	0.23082	0.47675	0.89237	-0.386
Mof_O 	O 	0.32933	0.5121	0.92143	-0.238
Mof_O 	O 	0.13301	0.5413	0.24471	-0.403
Mof_O 	O 	0.05778	0.4435	0.18668	-0.16
Mof_O 	O 	0.23082	0.75407	0.33845	-0.387
Mof_O 	O 	0.32933	0.81723	0.4079	-0.239
Mof_O 	O 	0.29659	0.8883	0.75529	-0.4
Mof_O 	O 	0.25682	0.8711	0.81332	-0.154
Mof_O 	O 	0.41562	0.89237	0.66155	-0.386
Mof_O 	O 	0.40933	0.92143	0.5921	-0.238
Mof_O 	O 	0.86699	0.1117	0.40829	-0.402
Mof_O 	O 	0.94222	0.1289	0.38572	-0.154
Mof_O 	O 	0.76918	0.10763	0.52325	-0.388
Mof_O 	O 	0.67067	0.07857	0.4879	-0.241
Mof_O 	O 	0.70341	0.4587	0.59171	-0.401
Mof_O 	O 	0.74318	0.5565	0.61428	-0.154
Mof_O 	O 	0.58438	0.24593	0.47675	-0.387
Mof_O 	O 	0.59067	0.18277	0.5121	-0.24
Mof_O 	O 	0.1117	0.40829	0.86699	-0.402
Mof_O 	O 	0.1289	0.38572	0.94222	-0.154
Mof_O 	O 	0.10763	0.52325	0.76918	-0.388
Mof_O 	O 	0.07857	0.4879	0.67067	-0.241
Mof_O 	O 	0.4587	0.59171	0.70341	-0.401
Mof_O 	O 	0.5565	0.61428	0.74318	-0.154
Mof_O 	O 	0.24593	0.47675	0.58438	-0.387
Mof_O 	O 	0.18277	0.5121	0.59067	-0.24
Mof_O 	O 	0.5413	0.24471	0.13301	-0.403
Mof_O 	O 	0.4435	0.18668	0.05778	-0.16
Mof_O 	O 	0.75407	0.33845	0.23082	-0.387
Mof_O 	O 	0.81723	0.4079	0.32933	-0.239
Mof_O 	O 	0.8883	0.75529	0.29659	-0.4
Mof_O 	O 	0.8711	0.81332	0.25682	-0.154
Mof_O 	O 	0.89237	0.66155	0.41562	-0.386
Mof_O 	O 	0.92143	0.5921	0.40933	-0.238
Mof_O 	O 	0.75529	0.29659	0.8883	-0.4
Mof_O 	O 	0.81332	0.25682	0.8711	-0.154
Mof_O 	O 	0.66155	0.41562	0.89237	-0.386
Mof_O 	O 	0.5921	0.40933	0.92143	-0.238
Mof_O 	O 	0.24471	0.13301	0.5413	-0.403
Mof_O 	O 	0.18668	0.05778	0.4435	-0.16
Mof_O 	O 	0.33845	0.23082	0.75407	-0.387
Mof_O 	O 	0.4079	0.32933	0.81723	-0.239
Mof_O 	O 	0.59171	0.70341	0.4587	-0.401
Mof_O 	O 	0.61428	0.74318	0.5565	-0.154
Mof_O 	O 	0.47675	0.58438	0.24593	-0.387
Mof_O 	O 	0.5121	0.59067	0.18277	-0.24
Mof_O 	O 	0.40829	0.86699	0.1117	-0.402
Mof_O 	O 	0.38572	0.94222	0.1289	-0.154
Mof_O 	O 	0.52325	0.76918	0.10763	-0.388
Mof_O 	O 	0.4879	0.67067	0.07857	-0.241
Mof_O 	O 	0.5413	0.13301	0.24471	-0.403
Mof_O 	O 	0.4435	0.05778	0.18668	-0.16
Mof_O 	O 	0.75407	0.23082	0.33845	-0.387
Mof_O 	O 	0.81723	0.32933	0.4079	-0.239
Mof_O 	O 	0.8883	0.29659	0.75529	-0.4
Mof_O 	O 	0.8711	0.25682	0.81332	-0.154
Mof_O 	O 	0.89237	0.41562	0.66155	-0.386
Mof_O 	O 	0.92143	0.40933	0.5921	-0.238
Mof_O 	O 	0.1117	0.86699	0.40829	-0.402
Mof_O 	O 	0.1289	0.94222	0.38572	-0.154
Mof_O 	O 	0.10763	0.76918	0.52325	-0.388
Mof_O 	O 	0.07857	0.67067	0.4879	-0.241
Mof_O 	O 	0.4587	0.70341	0.59171	-0.401
Mof_O 	O 	0.5565	0.74318	0.61428	-0.154
Mof_O 	O 	0.24593	0.58438	0.47675	-0.387
Mof_O 	O 	0.18277	0.59067	0.5121	-0.24
Mof_O 	O 	0.40829	0.1117	0.86699	-0.402
Mof_O 	O 	0.38572	0.1289	0.94222	-0.154
Mof_O 	O 	0.52325	0.10763	0.76918	-0.388
Mof_O 	O 	0.4879	0.07857	0.67067	-0.241
Mof_O 	O 	0.59171	0.4587	0.70341	-0.401
Mof_O 	O 	0.61428	0.5565	0.74318	-0.154
Mof_O 	O 	0.47675	0.24593	0.58438	-0.387
Mof_O 	O 	0.5121	0.18277	0.59067	-0.24
Mof_O 	O 	0.24471	0.5413	0.13301	-0.403
Mof_O 	O 	0.18668	0.4435	0.05778	-0.16
Mof_O 	O 	0.33845	0.75407	0.23082	-0.387
Mof_O 	O 	0.4079	0.81723	0.32933	-0.239
Mof_O 	O 	0.75529	0.8883	0.29659	-0.4
Mof_O 	O 	0.81332	0.8711	0.25682	-0.154
Mof_O 	O 	0.66155	0.89237	0.41562	-0.386
Mof_O 	O 	0.5921	0.92143	0.40933	-0.238
Mof_O 	O 	0.29659	0.75529	0.8883	-0.4
Mof_O 	O 	0.25682	0.81332	0.8711	-0.154
Mof_O 	O 	0.41562	0.66155	0.89237	-0.386
Mof_O 	O 	0.40933	0.5921	0.92143	-0.238
Mof_O 	O 	0.13301	0.24471	0.5413	-0.403
Mof_O 	O 	0.05778	0.18668	0.4435	-0.16
Mof_O 	O 	0.23082	0.33845	0.75407	-0.387
Mof_O 	O 	0.32933	0.4079	0.81723	-0.239
Mof_O 	O 	0.70341	0.59171	0.4587	-0.401
Mof_O 	O 	0.74318	0.61428	0.5565	-0.154
Mof_O 	O 	0.58438	0.47675	0.24593	-0.387
Mof_O 	O 	0.59067	0.5121	0.18277	-0.24
Mof_O 	O 	0.86699	0.40829	0.1117	-0.402
Mof_O 	O 	0.94222	0.38572	0.1289	-0.154
Mof_O 	O 	0.76918	0.52325	0.10763	-0.388
Mof_O 	O 	0.67067	0.4879	0.07857	-0.241
Mof_O 	O 	0.86699	0.4587	0.75529	-0.4
Mof_O 	O 	0.94222	0.5565	0.81332	-0.151
Mof_O 	O 	0.76918	0.24593	0.66155	-0.387
Mof_O 	O 	0.67067	0.18277	0.5921	-0.24
Mof_O 	O 	0.70341	0.1117	0.24471	-0.402
Mof_O 	O 	0.74318	0.1289	0.18668	-0.157
Mof_O 	O 	0.58438	0.10763	0.33845	-0.388
Mof_O 	O 	0.59067	0.07857	0.4079	-0.241
Mof_O 	O 	0.13301	0.8883	0.59171	-0.401
Mof_O 	O 	0.05778	0.8711	0.61428	-0.157
Mof_O 	O 	0.23082	0.89237	0.47675	-0.386
Mof_O 	O 	0.32933	0.92143	0.5121	-0.238
Mof_O 	O 	0.29659	0.5413	0.40829	-0.402
Mof_O 	O 	0.25682	0.4435	0.38572	-0.157
Mof_O 	O 	0.41562	0.75407	0.52325	-0.387
Mof_O 	O 	0.40933	0.81723	0.4879	-0.239
Mof_O 	O 	0.8883	0.59171	0.13301	-0.401
Mof_O 	O 	0.8711	0.61428	0.05778	-0.157
Mof_O 	O 	0.89237	0.47675	0.23082	-0.386
Mof_O 	O 	0.92143	0.5121	0.32933	-0.238
Mof_O 	O 	0.5413	0.40829	0.29659	-0.402
Mof_O 	O 	0.4435	0.38572	0.25682	-0.157
Mof_O 	O 	0.75407	0.52325	0.41562	-0.387
Mof_O 	O 	0.81723	0.4879	0.40933	-0.239
Mof_O 	O 	0.4587	0.75529	0.86699	-0.4
Mof_O 	O 	0.5565	0.81332	0.94222	-0.151
Mof_O 	O 	0.24593	0.66155	0.76918	-0.387
Mof_O 	O 	0.18277	0.5921	0.67067	-0.24
Mof_O 	O 	0.1117	0.24471	0.70341	-0.402
Mof_O 	O 	0.1289	0.18668	0.74318	-0.157
Mof_O 	O 	0.10763	0.33845	0.58438	-0.388
Mof_O 	O 	0.07857	0.4079	0.59067	-0.241
Mof_O 	O 	0.24471	0.70341	0.1117	-0.402
Mof_O 	O 	0.18668	0.74318	0.1289	-0.157
Mof_O 	O 	0.33845	0.58438	0.10763	-0.388
Mof_O 	O 	0.4079	0.59067	0.07857	-0.241
Mof_O 	O 	0.75529	0.86699	0.4587	-0.4
Mof_O 	O 	0.81332	0.94222	0.5565	-0.151
Mof_O 	O 	0.66155	0.76918	0.24593	-0.387
Mof_O 	O 	0.5921	0.67067	0.18277	-0.24
Mof_O 	O 	0.40829	0.29659	0.5413	-0.402
Mof_O 	O 	0.38572	0.25682	0.4435	-0.157
Mof_O 	O 	0.52325	0.41562	0.75407	-0.387
Mof_O 	O 	0.4879	0.40933	0.81723	-0.239
Mof_O 	O 	0.59171	0.13301	0.8883	-0.401
Mof_O 	O 	0.61428	0.05778	0.8711	-0.157
Mof_O 	O 	0.47675	0.23082	0.89237	-0.386
Mof_O 	O 	0.5121	0.32933	0.92143	-0.238
_end
