data_functionalizedCrystal
_audit_creation_method	'EQeq! by Chris Wilmer'
_symmetry_space_group_name_H-M	'P1'
_symmetry_Int_Tables_number	1
_symmetry_cell_setting	triclinic
loop_
_symmetry_equiv_pos_as_xyz
  x,y,z
_cell_length_a	26.6
_cell_length_b	26.6
_cell_length_c	27.12
_cell_angle_alpha	90
_cell_angle_beta	90
_cell_angle_gamma	90
loop_
_atom_site_label
_atom_site_type_symbol
_atom_site_fract_x
_atom_site_fract_y
_atom_site_fract_z
_atom_site_charge
Mof_N 	N 	0.70966	0.89412	0.19624	-0.216
Mof_O 	O 	0.9306	0.97559	0.2374	-0.389
Mof_O 	O 	0.92903	0.9808	0.15457	-0.39
Mof_O 	O 	0.56533	0.01475	0.05078	-0.453
Mof_O 	O 	0.5279	0.93841	0.05037	-0.421
Mof_C 	C 	0.90942	0.97146	0.19614	0.375
Mof_C 	C 	0.85629	0.95332	0.1965	-0.158
Mof_C 	C 	0.83059	0.9467	0.15161	0.109
Mof_H 	H 	0.846	0.9548	0.1219	0.01
Mof_C 	C 	0.78197	0.92789	0.15229	-0.215
Mof_H 	H 	0.7647	0.9236	0.1228	0.109
Mof_C 	C 	0.7589	0.91553	0.19607	0.189
Mof_C 	C 	0.78441	0.92188	0.23943	-0.218
Mof_H 	H 	0.7691	0.9131	0.269	0.114
Mof_C 	C 	0.83263	0.94124	0.23978	0.118
Mof_H 	H 	0.8491	0.9461	0.2696	0.011
Mof_C 	C 	0.67233	0.91318	0.16489	0.231
Mof_C 	C 	0.66925	0.96364	0.15339	-0.302
Mof_H 	H 	0.6926	0.9856	0.1672	0.145
Mof_C 	C 	0.63409	0.98227	0.12323	0.236
Mof_H 	H 	0.6327	0.0167	0.1172	-0.058
Mof_C 	C 	0.59891	0.94966	0.1004	-0.229
Mof_C 	C 	0.60114	0.89965	0.11266	0.176
Mof_H 	H 	0.5771	0.8779	0.0997	-0.017
Mof_C 	C 	0.63714	0.8806	0.14298	-0.266
Mof_H 	H 	0.6385	0.8462	0.1492	0.125
Mof_C 	C 	0.56143	0.96984	0.06424	0.427
Mof_C 	C 	0.70221	0.84904	0.22408	0.248
Mof_C 	C 	0.73888	0.81188	0.2244	-0.305
Mof_H 	H 	0.7687	0.8166	0.207	0.142
Mof_N 	N 	0.29034	0.10588	0.19624	-0.204
Mof_O 	O 	0.0694	0.02441	0.2374	-0.425
Mof_O 	O 	0.07097	0.0192	0.15457	-0.426
Mof_O 	O 	0.43467	0.98525	0.05078	-0.388
Mof_O 	O 	0.4721	0.06159	0.05037	-0.405
Mof_C 	C 	0.09058	0.02854	0.19614	0.379
Mof_C 	C 	0.14371	0.04668	0.1965	-0.174
Mof_C 	C 	0.16941	0.0533	0.15161	0.111
Mof_H 	H 	0.154	0.0452	0.1219	-0.002
Mof_C 	C 	0.21803	0.07211	0.15229	-0.221
Mof_H 	H 	0.2353	0.0764	0.1228	0.106
Mof_C 	C 	0.2411	0.08447	0.19607	0.187
Mof_C 	C 	0.21559	0.07812	0.23943	-0.226
Mof_H 	H 	0.2309	0.0869	0.269	0.11
Mof_C 	C 	0.16737	0.05876	0.23978	0.121
Mof_H 	H 	0.1509	0.0539	0.2696	-0.002
Mof_C 	C 	0.32767	0.08682	0.16489	0.155
Mof_C 	C 	0.33075	0.03636	0.15339	-0.163
Mof_H 	H 	0.3074	0.0144	0.1672	0.085
Mof_C 	C 	0.36591	0.01773	0.12323	0.021
Mof_H 	H 	0.3673	0.9833	0.1172	0.054
Mof_C 	C 	0.40109	0.05034	0.1004	-0.119
Mof_C 	C 	0.39886	0.10035	0.11266	0.08
Mof_H 	H 	0.4229	0.1221	0.0997	0.013
Mof_C 	C 	0.36286	0.1194	0.14298	-0.186
Mof_H 	H 	0.3615	0.1538	0.1492	0.096
Mof_C 	C 	0.43857	0.03016	0.06424	0.322
Mof_C 	C 	0.29779	0.15096	0.22408	0.242
Mof_C 	C 	0.26112	0.18812	0.2244	-0.301
Mof_H 	H 	0.2313	0.1834	0.207	0.136
Mof_N 	N 	0.10588	0.70966	0.19624	-0.204
Mof_O 	O 	0.02441	0.9306	0.2374	-0.406
Mof_O 	O 	0.0192	0.92903	0.15457	-0.408
Mof_O 	O 	0.98525	0.56533	0.05078	-0.388
Mof_O 	O 	0.06159	0.5279	0.05037	-0.405
Mof_C 	C 	0.02854	0.90942	0.19614	0.377
Mof_C 	C 	0.04668	0.85629	0.1965	-0.165
Mof_C 	C 	0.0533	0.83059	0.15161	0.108
Mof_H 	H 	0.0452	0.846	0.1219	0.003
Mof_C 	C 	0.07211	0.78197	0.15229	-0.216
Mof_H 	H 	0.0764	0.7647	0.1228	0.106
Mof_C 	C 	0.08447	0.7589	0.19607	0.186
Mof_C 	C 	0.07812	0.78441	0.23943	-0.221
Mof_H 	H 	0.0869	0.7691	0.269	0.11
Mof_C 	C 	0.05876	0.83263	0.23978	0.118
Mof_H 	H 	0.0539	0.8491	0.2696	0.004
Mof_C 	C 	0.08682	0.67233	0.16489	0.157
Mof_C 	C 	0.03636	0.66925	0.15339	-0.165
Mof_H 	H 	0.0144	0.6926	0.1672	0.086
Mof_C 	C 	0.01773	0.63409	0.12323	0.024
Mof_H 	H 	0.9833	0.6327	0.1172	0.053
Mof_C 	C 	0.05034	0.59891	0.1004	-0.12
Mof_C 	C 	0.10035	0.60114	0.11266	0.081
Mof_H 	H 	0.1221	0.5771	0.0997	0.013
Mof_C 	C 	0.1194	0.63714	0.14298	-0.187
Mof_H 	H 	0.1538	0.6385	0.1492	0.097
Mof_C 	C 	0.03016	0.56143	0.06424	0.322
Mof_C 	C 	0.15096	0.70221	0.22408	0.243
Mof_C 	C 	0.18812	0.73888	0.2244	-0.301
Mof_H 	H 	0.1834	0.7687	0.207	0.14
Mof_N 	N 	0.89412	0.29034	0.19624	-0.216
Mof_O 	O 	0.97559	0.0694	0.2374	-0.406
Mof_O 	O 	0.9808	0.07097	0.15457	-0.406
Mof_O 	O 	0.01475	0.43467	0.05078	-0.453
Mof_O 	O 	0.93841	0.4721	0.05037	-0.422
Mof_C 	C 	0.97146	0.09058	0.19614	0.377
Mof_C 	C 	0.95332	0.14371	0.1965	-0.165
Mof_C 	C 	0.9467	0.16941	0.15161	0.111
Mof_H 	H 	0.9548	0.154	0.1219	0.005
Mof_C 	C 	0.92789	0.21803	0.15229	-0.219
Mof_H 	H 	0.9236	0.2353	0.1228	0.109
Mof_C 	C 	0.91553	0.2411	0.19607	0.19
Mof_C 	C 	0.92188	0.21559	0.23943	-0.223
Mof_H 	H 	0.9131	0.2309	0.269	0.113
Mof_C 	C 	0.94124	0.16737	0.23978	0.121
Mof_H 	H 	0.9461	0.1509	0.2696	0.005
Mof_C 	C 	0.91318	0.32767	0.16489	0.232
Mof_C 	C 	0.96364	0.33075	0.15339	-0.304
Mof_H 	H 	0.9856	0.3074	0.1672	0.145
Mof_C 	C 	0.98227	0.36591	0.12323	0.238
Mof_H 	H 	0.0167	0.3673	0.1172	-0.059
Mof_C 	C 	0.94966	0.40109	0.1004	-0.23
Mof_C 	C 	0.89965	0.39886	0.11266	0.177
Mof_H 	H 	0.8779	0.4229	0.0997	-0.017
Mof_C 	C 	0.8806	0.36286	0.14298	-0.267
Mof_H 	H 	0.8462	0.3615	0.1492	0.125
Mof_C 	C 	0.96984	0.43857	0.06424	0.428
Mof_C 	C 	0.84904	0.29779	0.22408	0.247
Mof_C 	C 	0.81188	0.26112	0.2244	-0.305
Mof_H 	H 	0.8166	0.2313	0.207	0.138
Mof_N 	N 	0.79034	0.39412	0.30376	-0.21
Mof_O 	O 	0.5694	0.47559	0.2626	-0.414
Mof_O 	O 	0.57097	0.4808	0.34543	-0.41
Mof_O 	O 	0.93467	0.51475	0.44922	-0.405
Mof_O 	O 	0.9721	0.43841	0.44963	-0.394
Mof_C 	C 	0.59058	0.47146	0.30386	0.379
Mof_C 	C 	0.64371	0.45332	0.3035	-0.166
Mof_C 	C 	0.66941	0.4467	0.34839	0.111
Mof_H 	H 	0.654	0.4548	0.3781	0.007
Mof_C 	C 	0.71803	0.42789	0.34771	-0.218
Mof_H 	H 	0.7353	0.4236	0.3772	0.111
Mof_C 	C 	0.7411	0.41553	0.30393	0.189
Mof_C 	C 	0.71559	0.42188	0.26057	-0.223
Mof_H 	H 	0.7309	0.4131	0.231	0.11
Mof_C 	C 	0.66737	0.44124	0.26022	0.12
Mof_H 	H 	0.6509	0.4461	0.2304	0.002
Mof_C 	C 	0.82767	0.41318	0.33511	0.192
Mof_C 	C 	0.83075	0.46364	0.34661	-0.228
Mof_H 	H 	0.8074	0.4856	0.3328	0.115
Mof_C 	C 	0.86591	0.48227	0.37677	0.126
Mof_H 	H 	0.8673	0.5167	0.3828	0.004
Mof_C 	C 	0.90109	0.44966	0.3996	-0.164
Mof_C 	C 	0.89886	0.39965	0.38734	0.125
Mof_H 	H 	0.9229	0.3779	0.4003	0.006
Mof_C 	C 	0.86286	0.3806	0.35702	-0.22
Mof_H 	H 	0.8615	0.3462	0.3508	0.112
Mof_C 	C 	0.93857	0.46984	0.43576	0.373
Mof_C 	C 	0.79779	0.34904	0.27592	0.247
Mof_C 	C 	0.76112	0.31188	0.2756	-0.305
Mof_H 	H 	0.7313	0.3166	0.293	0.14
Mof_N 	N 	0.20966	0.60588	0.30376	-0.21
Mof_O 	O 	0.4306	0.52441	0.2626	-0.414
Mof_O 	O 	0.42903	0.5192	0.34543	-0.41
Mof_O 	O 	0.06533	0.48525	0.44922	-0.42
Mof_O 	O 	0.0279	0.56159	0.44963	-0.417
Mof_C 	C 	0.40942	0.52854	0.30386	0.379
Mof_C 	C 	0.35629	0.54668	0.3035	-0.167
Mof_C 	C 	0.33059	0.5533	0.34839	0.111
Mof_H 	H 	0.346	0.5452	0.3781	0.007
Mof_C 	C 	0.28197	0.57211	0.34771	-0.218
Mof_H 	H 	0.2647	0.5764	0.3772	0.111
Mof_C 	C 	0.2589	0.58447	0.30393	0.189
Mof_C 	C 	0.28441	0.57812	0.26057	-0.223
Mof_H 	H 	0.2691	0.5869	0.231	0.11
Mof_C 	C 	0.33263	0.55876	0.26022	0.12
Mof_H 	H 	0.3491	0.5539	0.2304	0.002
Mof_C 	C 	0.17233	0.58682	0.33511	0.194
Mof_C 	C 	0.16925	0.53636	0.34661	-0.233
Mof_H 	H 	0.1926	0.5144	0.3328	0.115
Mof_C 	C 	0.13409	0.51773	0.37677	0.13
Mof_H 	H 	0.1327	0.4833	0.3828	-0.003
Mof_C 	C 	0.09891	0.55034	0.3996	-0.174
Mof_C 	C 	0.10114	0.60035	0.38734	0.129
Mof_H 	H 	0.0771	0.6221	0.4003	-0.001
Mof_C 	C 	0.13714	0.6194	0.35702	-0.226
Mof_H 	H 	0.1385	0.6538	0.3508	0.113
Mof_C 	C 	0.06143	0.53016	0.43576	0.376
Mof_C 	C 	0.20221	0.65096	0.27592	0.244
Mof_C 	C 	0.23888	0.68812	0.2756	-0.301
Mof_H 	H 	0.2687	0.6834	0.293	0.14
Mof_N 	N 	0.39412	0.20966	0.30376	-0.21
Mof_O 	O 	0.47559	0.4306	0.2626	-0.414
Mof_O 	O 	0.4808	0.42903	0.34543	-0.41
Mof_O 	O 	0.51475	0.06533	0.44922	-0.42
Mof_O 	O 	0.43841	0.0279	0.44963	-0.417
Mof_C 	C 	0.47146	0.40942	0.30386	0.379
Mof_C 	C 	0.45332	0.35629	0.3035	-0.167
Mof_C 	C 	0.4467	0.33059	0.34839	0.111
Mof_H 	H 	0.4548	0.346	0.3781	0.007
Mof_C 	C 	0.42789	0.28197	0.34771	-0.218
Mof_H 	H 	0.4236	0.2647	0.3772	0.111
Mof_C 	C 	0.41553	0.2589	0.30393	0.188
Mof_C 	C 	0.42188	0.28441	0.26057	-0.223
Mof_H 	H 	0.4131	0.2691	0.231	0.11
Mof_C 	C 	0.44124	0.33263	0.26022	0.12
Mof_H 	H 	0.4461	0.3491	0.2304	0.002
Mof_C 	C 	0.41318	0.17233	0.33511	0.194
Mof_C 	C 	0.46364	0.16925	0.34661	-0.233
Mof_H 	H 	0.4856	0.1926	0.3328	0.115
Mof_C 	C 	0.48227	0.13409	0.37677	0.13
Mof_H 	H 	0.5167	0.1327	0.3828	-0.002
Mof_C 	C 	0.44966	0.09891	0.3996	-0.174
Mof_C 	C 	0.39965	0.10114	0.38734	0.129
Mof_H 	H 	0.3779	0.0771	0.4003	-0.002
Mof_C 	C 	0.3806	0.13714	0.35702	-0.226
Mof_H 	H 	0.3462	0.1385	0.3508	0.111
Mof_C 	C 	0.46984	0.06143	0.43576	0.376
Mof_C 	C 	0.34904	0.20221	0.27592	0.243
Mof_C 	C 	0.31188	0.23888	0.2756	-0.301
Mof_H 	H 	0.3166	0.2687	0.293	0.138
Mof_N 	N 	0.60588	0.79034	0.30376	-0.21
Mof_O 	O 	0.52441	0.5694	0.2626	-0.413
Mof_O 	O 	0.5192	0.57097	0.34543	-0.41
Mof_O 	O 	0.48525	0.93467	0.44922	-0.406
Mof_O 	O 	0.56159	0.9721	0.44963	-0.393
Mof_C 	C 	0.52854	0.59058	0.30386	0.379
Mof_C 	C 	0.54668	0.64371	0.3035	-0.166
Mof_C 	C 	0.5533	0.66941	0.34839	0.112
Mof_H 	H 	0.5452	0.654	0.3781	0.007
Mof_C 	C 	0.57211	0.71803	0.34771	-0.218
Mof_H 	H 	0.5764	0.7353	0.3772	0.112
Mof_C 	C 	0.58447	0.7411	0.30393	0.189
Mof_C 	C 	0.57812	0.71559	0.26057	-0.223
Mof_H 	H 	0.5869	0.7309	0.231	0.111
Mof_C 	C 	0.55876	0.66737	0.26022	0.121
Mof_H 	H 	0.5539	0.6509	0.2304	0.002
Mof_C 	C 	0.58682	0.82767	0.33511	0.193
Mof_C 	C 	0.53636	0.83075	0.34661	-0.228
Mof_H 	H 	0.5144	0.8074	0.3328	0.115
Mof_C 	C 	0.51773	0.86591	0.37677	0.126
Mof_H 	H 	0.4833	0.8673	0.3828	0.004
Mof_C 	C 	0.55034	0.90109	0.3996	-0.164
Mof_C 	C 	0.60035	0.89886	0.38734	0.125
Mof_H 	H 	0.6221	0.9229	0.4003	0.007
Mof_C 	C 	0.6194	0.86286	0.35702	-0.22
Mof_H 	H 	0.6538	0.8615	0.3508	0.113
Mof_C 	C 	0.53016	0.93857	0.43576	0.373
Mof_C 	C 	0.65096	0.79779	0.27592	0.247
Mof_C 	C 	0.68812	0.76112	0.2756	-0.304
Mof_H 	H 	0.6834	0.7313	0.293	0.141
Mof_N 	N 	0.29034	0.10588	0.80376	-0.203
Mof_O 	O 	0.0694	0.02441	0.7626	-0.425
Mof_O 	O 	0.07097	0.0192	0.84543	-0.419
Mof_O 	O 	0.43467	0.98525	0.94922	-0.365
Mof_O 	O 	0.4721	0.06159	0.94963	-0.382
Mof_C 	C 	0.09058	0.02854	0.80386	0.378
Mof_C 	C 	0.14371	0.04668	0.8035	-0.171
Mof_C 	C 	0.16941	0.0533	0.84839	0.112
Mof_H 	H 	0.154	0.0452	0.8781	0.006
Mof_C 	C 	0.21803	0.07211	0.84771	-0.219
Mof_H 	H 	0.2353	0.0764	0.8772	0.113
Mof_C 	C 	0.2411	0.08447	0.80393	0.189
Mof_C 	C 	0.21559	0.07812	0.76057	-0.225
Mof_H 	H 	0.2309	0.0869	0.731	0.11
Mof_C 	C 	0.16737	0.05876	0.76022	0.121
Mof_H 	H 	0.1509	0.0539	0.7304	-0.002
Mof_C 	C 	0.32767	0.08682	0.83511	0.154
Mof_C 	C 	0.33075	0.03636	0.84661	-0.157
Mof_H 	H 	0.3074	0.0144	0.8328	0.085
Mof_C 	C 	0.36591	0.01773	0.87677	0.018
Mof_H 	H 	0.3673	0.9833	0.8828	0.062
Mof_C 	C 	0.40109	0.05034	0.8996	-0.107
Mof_C 	C 	0.39886	0.10035	0.88734	0.076
Mof_H 	H 	0.4229	0.1221	0.9003	0.023
Mof_C 	C 	0.36286	0.1194	0.85702	-0.179
Mof_H 	H 	0.3615	0.1538	0.8508	0.099
Mof_C 	C 	0.43857	0.03016	0.93576	0.319
Mof_C 	C 	0.29779	0.15096	0.77592	0.244
Mof_C 	C 	0.26112	0.18812	0.7756	-0.301
Mof_H 	H 	0.2313	0.1834	0.793	0.139
Mof_N 	N 	0.70966	0.89412	0.80376	-0.215
Mof_O 	O 	0.9306	0.97559	0.7626	-0.388
Mof_O 	O 	0.92903	0.9808	0.84543	-0.383
Mof_O 	O 	0.56533	0.01475	0.94922	-0.43
Mof_O 	O 	0.5279	0.93841	0.94963	-0.398
Mof_C 	C 	0.90942	0.97146	0.80386	0.374
Mof_C 	C 	0.85629	0.95332	0.8035	-0.154
Mof_C 	C 	0.83059	0.9467	0.84839	0.11
Mof_H 	H 	0.846	0.9548	0.8781	0.018
Mof_C 	C 	0.78197	0.92789	0.84771	-0.212
Mof_H 	H 	0.7647	0.9236	0.8772	0.116
Mof_C 	C 	0.7589	0.91553	0.80393	0.19
Mof_C 	C 	0.78441	0.92188	0.76057	-0.217
Mof_H 	H 	0.7691	0.9131	0.731	0.113
Mof_C 	C 	0.83263	0.94124	0.76022	0.117
Mof_H 	H 	0.8491	0.9461	0.7304	0.011
Mof_C 	C 	0.67233	0.91318	0.83511	0.23
Mof_C 	C 	0.66925	0.96364	0.84661	-0.296
Mof_H 	H 	0.6926	0.9856	0.8328	0.146
Mof_C 	C 	0.63409	0.98227	0.87677	0.233
Mof_H 	H 	0.6327	0.0167	0.8828	-0.05
Mof_C 	C 	0.59891	0.94966	0.8996	-0.217
Mof_C 	C 	0.60114	0.89965	0.88734	0.173
Mof_H 	H 	0.5771	0.8779	0.9003	-0.007
Mof_C 	C 	0.63714	0.8806	0.85702	-0.259
Mof_H 	H 	0.6385	0.8462	0.8508	0.128
Mof_C 	C 	0.56143	0.96984	0.93576	0.425
Mof_C 	C 	0.70221	0.84904	0.77592	0.25
Mof_C 	C 	0.73888	0.81188	0.7756	-0.304
Mof_H 	H 	0.7687	0.8166	0.793	0.145
Mof_N 	N 	0.89412	0.29034	0.80376	-0.216
Mof_O 	O 	0.97559	0.0694	0.7626	-0.405
Mof_O 	O 	0.9808	0.07097	0.84543	-0.399
Mof_O 	O 	0.01475	0.43467	0.94922	-0.43
Mof_O 	O 	0.93841	0.4721	0.94963	-0.399
Mof_C 	C 	0.97146	0.09058	0.80386	0.376
Mof_C 	C 	0.95332	0.14371	0.8035	-0.162
Mof_C 	C 	0.9467	0.16941	0.84839	0.112
Mof_H 	H 	0.9548	0.154	0.8781	0.013
Mof_C 	C 	0.92789	0.21803	0.84771	-0.217
Mof_H 	H 	0.9236	0.2353	0.8772	0.116
Mof_C 	C 	0.91553	0.2411	0.80393	0.192
Mof_C 	C 	0.92188	0.21559	0.76057	-0.222
Mof_H 	H 	0.9131	0.2309	0.731	0.113
Mof_C 	C 	0.94124	0.16737	0.76022	0.12
Mof_H 	H 	0.9461	0.1509	0.7304	0.005
Mof_C 	C 	0.91318	0.32767	0.83511	0.231
Mof_C 	C 	0.96364	0.33075	0.84661	-0.297
Mof_H 	H 	0.9856	0.3074	0.8328	0.146
Mof_C 	C 	0.98227	0.36591	0.87677	0.234
Mof_H 	H 	0.0167	0.3673	0.8828	-0.052
Mof_C 	C 	0.94966	0.40109	0.8996	-0.218
Mof_C 	C 	0.89965	0.39886	0.88734	0.173
Mof_H 	H 	0.8779	0.4229	0.9003	-0.008
Mof_C 	C 	0.8806	0.36286	0.85702	-0.26
Mof_H 	H 	0.8462	0.3615	0.8508	0.127
Mof_C 	C 	0.96984	0.43857	0.93576	0.425
Mof_C 	C 	0.84904	0.29779	0.77592	0.249
Mof_C 	C 	0.81188	0.26112	0.7756	-0.305
Mof_H 	H 	0.8166	0.2313	0.793	0.141
Mof_N 	N 	0.10588	0.70966	0.80376	-0.203
Mof_O 	O 	0.02441	0.9306	0.7626	-0.405
Mof_O 	O 	0.0192	0.92903	0.84543	-0.401
Mof_O 	O 	0.98525	0.56533	0.94922	-0.365
Mof_O 	O 	0.06159	0.5279	0.94963	-0.382
Mof_C 	C 	0.02854	0.90942	0.80386	0.376
Mof_C 	C 	0.04668	0.85629	0.8035	-0.162
Mof_C 	C 	0.0533	0.83059	0.84839	0.109
Mof_H 	H 	0.0452	0.846	0.8781	0.012
Mof_C 	C 	0.07211	0.78197	0.84771	-0.214
Mof_H 	H 	0.0764	0.7647	0.8772	0.113
Mof_C 	C 	0.08447	0.7589	0.80393	0.187
Mof_C 	C 	0.07812	0.78441	0.76057	-0.22
Mof_H 	H 	0.0869	0.7691	0.731	0.11
Mof_C 	C 	0.05876	0.83263	0.76022	0.118
Mof_H 	H 	0.0539	0.8491	0.7304	0.005
Mof_C 	C 	0.08682	0.67233	0.83511	0.156
Mof_C 	C 	0.03636	0.66925	0.84661	-0.158
Mof_H 	H 	0.0144	0.6926	0.8328	0.086
Mof_C 	C 	0.01773	0.63409	0.87677	0.02
Mof_H 	H 	0.9833	0.6327	0.8828	0.061
Mof_C 	C 	0.05034	0.59891	0.8996	-0.108
Mof_C 	C 	0.10035	0.60114	0.88734	0.077
Mof_H 	H 	0.1221	0.5771	0.9003	0.023
Mof_C 	C 	0.1194	0.63714	0.85702	-0.179
Mof_H 	H 	0.1538	0.6385	0.8508	0.1
Mof_C 	C 	0.03016	0.56143	0.93576	0.32
Mof_C 	C 	0.15096	0.70221	0.77592	0.245
Mof_C 	C 	0.18812	0.73888	0.7756	-0.3
Mof_H 	H 	0.1834	0.7687	0.793	0.143
Mof_N 	N 	0.20966	0.60588	0.69624	-0.21
Mof_O 	O 	0.4306	0.52441	0.7374	-0.41
Mof_O 	O 	0.42903	0.5192	0.65457	-0.41
Mof_O 	O 	0.06533	0.48525	0.55078	-0.42
Mof_O 	O 	0.0279	0.56159	0.55037	-0.416
Mof_C 	C 	0.40942	0.52854	0.69614	0.378
Mof_C 	C 	0.35629	0.54668	0.6965	-0.165
Mof_C 	C 	0.33059	0.5533	0.65161	0.111
Mof_H 	H 	0.346	0.5452	0.6219	0.007
Mof_C 	C 	0.28197	0.57211	0.65229	-0.217
Mof_H 	H 	0.2647	0.5764	0.6228	0.111
Mof_C 	C 	0.2589	0.58447	0.69607	0.189
Mof_C 	C 	0.28441	0.57812	0.73943	-0.222
Mof_H 	H 	0.2691	0.5869	0.769	0.113
Mof_C 	C 	0.33263	0.55876	0.73978	0.12
Mof_H 	H 	0.3491	0.5539	0.7696	0.006
Mof_C 	C 	0.17233	0.58682	0.66489	0.195
Mof_C 	C 	0.16925	0.53636	0.65339	-0.234
Mof_H 	H 	0.1926	0.5144	0.6672	0.116
Mof_C 	C 	0.13409	0.51773	0.62323	0.13
Mof_H 	H 	0.1327	0.4833	0.6172	-0.002
Mof_C 	C 	0.09891	0.55034	0.6004	-0.174
Mof_C 	C 	0.10114	0.60035	0.61266	0.13
Mof_H 	H 	0.0771	0.6221	0.5997	-0.001
Mof_C 	C 	0.13714	0.6194	0.64298	-0.226
Mof_H 	H 	0.1385	0.6538	0.6492	0.113
Mof_C 	C 	0.06143	0.53016	0.56424	0.376
Mof_C 	C 	0.20221	0.65096	0.72408	0.245
Mof_C 	C 	0.23888	0.68812	0.7244	-0.301
Mof_H 	H 	0.2687	0.6834	0.707	0.141
Mof_N 	N 	0.79034	0.39412	0.69624	-0.21
Mof_O 	O 	0.5694	0.47559	0.7374	-0.41
Mof_O 	O 	0.57097	0.4808	0.65457	-0.41
Mof_O 	O 	0.93467	0.51475	0.55078	-0.405
Mof_O 	O 	0.9721	0.43841	0.55037	-0.394
Mof_C 	C 	0.59058	0.47146	0.69614	0.378
Mof_C 	C 	0.64371	0.45332	0.6965	-0.164
Mof_C 	C 	0.66941	0.4467	0.65161	0.111
Mof_H 	H 	0.654	0.4548	0.6219	0.007
Mof_C 	C 	0.71803	0.42789	0.65229	-0.217
Mof_H 	H 	0.7353	0.4236	0.6228	0.111
Mof_C 	C 	0.7411	0.41553	0.69607	0.189
Mof_C 	C 	0.71559	0.42188	0.73943	-0.221
Mof_H 	H 	0.7309	0.4131	0.769	0.113
Mof_C 	C 	0.66737	0.44124	0.73978	0.12
Mof_H 	H 	0.6509	0.4461	0.7696	0.006
Mof_C 	C 	0.82767	0.41318	0.66489	0.193
Mof_C 	C 	0.83075	0.46364	0.65339	-0.228
Mof_H 	H 	0.8074	0.4856	0.6672	0.116
Mof_C 	C 	0.86591	0.48227	0.62323	0.127
Mof_H 	H 	0.8673	0.5167	0.6172	0.005
Mof_C 	C 	0.90109	0.44966	0.6004	-0.164
Mof_C 	C 	0.89886	0.39965	0.61266	0.125
Mof_H 	H 	0.9229	0.3779	0.5997	0.006
Mof_C 	C 	0.86286	0.3806	0.64298	-0.221
Mof_H 	H 	0.8615	0.3462	0.6492	0.112
Mof_C 	C 	0.93857	0.46984	0.56424	0.373
Mof_C 	C 	0.79779	0.34904	0.72408	0.248
Mof_C 	C 	0.76112	0.31188	0.7244	-0.305
Mof_H 	H 	0.7313	0.3166	0.707	0.141
Mof_N 	N 	0.60588	0.79034	0.69624	-0.21
Mof_O 	O 	0.52441	0.5694	0.7374	-0.41
Mof_O 	O 	0.5192	0.57097	0.65457	-0.409
Mof_O 	O 	0.48525	0.93467	0.55078	-0.406
Mof_O 	O 	0.56159	0.9721	0.55037	-0.393
Mof_C 	C 	0.52854	0.59058	0.69614	0.378
Mof_C 	C 	0.54668	0.64371	0.6965	-0.164
Mof_C 	C 	0.5533	0.66941	0.65161	0.111
Mof_H 	H 	0.5452	0.654	0.6219	0.008
Mof_C 	C 	0.57211	0.71803	0.65229	-0.217
Mof_H 	H 	0.5764	0.7353	0.6228	0.111
Mof_C 	C 	0.58447	0.7411	0.69607	0.19
Mof_C 	C 	0.57812	0.71559	0.73943	-0.221
Mof_H 	H 	0.5869	0.7309	0.769	0.114
Mof_C 	C 	0.55876	0.66737	0.73978	0.121
Mof_H 	H 	0.5539	0.6509	0.7696	0.007
Mof_C 	C 	0.58682	0.82767	0.66489	0.193
Mof_C 	C 	0.53636	0.83075	0.65339	-0.228
Mof_H 	H 	0.5144	0.8074	0.6672	0.116
Mof_C 	C 	0.51773	0.86591	0.62323	0.127
Mof_H 	H 	0.4833	0.8673	0.6172	0.004
Mof_C 	C 	0.55034	0.90109	0.6004	-0.164
Mof_C 	C 	0.60035	0.89886	0.61266	0.125
Mof_H 	H 	0.6221	0.9229	0.5997	0.007
Mof_C 	C 	0.6194	0.86286	0.64298	-0.221
Mof_H 	H 	0.6538	0.8615	0.6492	0.113
Mof_C 	C 	0.53016	0.93857	0.56424	0.373
Mof_C 	C 	0.65096	0.79779	0.72408	0.249
Mof_C 	C 	0.68812	0.76112	0.7244	-0.304
Mof_H 	H 	0.6834	0.7313	0.707	0.142
Mof_N 	N 	0.39412	0.20966	0.69624	-0.21
Mof_O 	O 	0.47559	0.4306	0.7374	-0.41
Mof_O 	O 	0.4808	0.42903	0.65457	-0.41
Mof_O 	O 	0.51475	0.06533	0.55078	-0.42
Mof_O 	O 	0.43841	0.0279	0.55037	-0.417
Mof_C 	C 	0.47146	0.40942	0.69614	0.378
Mof_C 	C 	0.45332	0.35629	0.6965	-0.165
Mof_C 	C 	0.4467	0.33059	0.65161	0.11
Mof_H 	H 	0.4548	0.346	0.6219	0.007
Mof_C 	C 	0.42789	0.28197	0.65229	-0.217
Mof_H 	H 	0.4236	0.2647	0.6228	0.11
Mof_C 	C 	0.41553	0.2589	0.69607	0.189
Mof_C 	C 	0.42188	0.28441	0.73943	-0.222
Mof_H 	H 	0.4131	0.2691	0.769	0.113
Mof_C 	C 	0.44124	0.33263	0.73978	0.12
Mof_H 	H 	0.4461	0.3491	0.7696	0.006
Mof_C 	C 	0.41318	0.17233	0.66489	0.194
Mof_C 	C 	0.46364	0.16925	0.65339	-0.233
Mof_H 	H 	0.4856	0.1926	0.6672	0.116
Mof_C 	C 	0.48227	0.13409	0.62323	0.13
Mof_H 	H 	0.5167	0.1327	0.6172	-0.002
Mof_C 	C 	0.44966	0.09891	0.6004	-0.174
Mof_C 	C 	0.39965	0.10114	0.61266	0.129
Mof_H 	H 	0.3779	0.0771	0.5997	-0.002
Mof_C 	C 	0.3806	0.13714	0.64298	-0.226
Mof_H 	H 	0.3462	0.1385	0.6492	0.111
Mof_C 	C 	0.46984	0.06143	0.56424	0.376
Mof_C 	C 	0.34904	0.20221	0.72408	0.244
Mof_C 	C 	0.31188	0.23888	0.7244	-0.301
Mof_H 	H 	0.3166	0.2687	0.707	0.139
Mof_Cu	Cu	5.64077e-34	0	0.14756	0.878
Mof_Cu	Cu	9.35758e-34	2.63104e-33	0.24479	0.88
Mof_Cu	Cu	0.5	0.5	0.35244	0.902
Mof_Cu	Cu	0.5	0.5	0.25521	0.901
Mof_Cu	Cu	3.25862e-33	0	0.85244	0.881
Mof_Cu	Cu	-7.63722e-33	5.26208e-33	0.75521	0.879
Mof_Cu	Cu	0.5	0.5	0.64756	0.902
Mof_Cu	Cu	0.5	0.5	0.74479	0.903
Mof_Cu	Cu	0.52209	0.04421	-0	0.885
Mof_Cu	Cu	0.47791	0.95579	-0	0.892
Mof_Cu	Cu	0.95579	0.52209	-0	0.892
Mof_Cu	Cu	0.04421	0.47791	-0	0.885
Mof_Cu	Cu	0.97791	0.54421	0.5	0.915
Mof_Cu	Cu	0.02209	0.45579	0.5	0.891
Mof_Cu	Cu	0.54421	0.02209	0.5	0.891
Mof_Cu	Cu	0.45579	0.97791	0.5	0.915
Mof_C 	C 	0.6587	0.8413	0.25	-0.32
Mof_H 	H 	0.634	0.866	0.25	0.15
Mof_C 	C 	0.73125	0.76875	0.25	0.226
Mof_H 	H 	0.756	0.744	0.25	-0.047
Mof_C 	C 	0.3413	0.1587	0.25	-0.315
Mof_H 	H 	0.366	0.134	0.25	0.146
Mof_C 	C 	0.26875	0.23125	0.25	0.22
Mof_H 	H 	0.244	0.256	0.25	-0.05
Mof_C 	C 	0.1587	0.6587	0.25	-0.315
Mof_H 	H 	0.134	0.634	0.25	0.146
Mof_C 	C 	0.23125	0.73125	0.25	0.222
Mof_H 	H 	0.256	0.756	0.25	-0.046
Mof_C 	C 	0.8413	0.3413	0.25	-0.32
Mof_H 	H 	0.866	0.366	0.25	0.15
Mof_C 	C 	0.76875	0.26875	0.25	0.224
Mof_H 	H 	0.744	0.244	0.25	-0.051
Mof_C 	C 	0.3413	0.1587	0.75	-0.315
Mof_H 	H 	0.366	0.134	0.75	0.146
Mof_C 	C 	0.26875	0.23125	0.75	0.222
Mof_H 	H 	0.244	0.256	0.75	-0.048
Mof_C 	C 	0.6587	0.8413	0.75	-0.32
Mof_H 	H 	0.634	0.866	0.75	0.151
Mof_C 	C 	0.73125	0.76875	0.75	0.228
Mof_H 	H 	0.756	0.744	0.75	-0.045
Mof_C 	C 	0.8413	0.3413	0.75	-0.32
Mof_H 	H 	0.866	0.366	0.75	0.151
Mof_C 	C 	0.76875	0.26875	0.75	0.227
Mof_H 	H 	0.744	0.244	0.75	-0.049
Mof_C 	C 	0.1587	0.6587	0.75	-0.315
Mof_H 	H 	0.134	0.634	0.75	0.147
Mof_C 	C 	0.23125	0.73125	0.75	0.224
Mof_H 	H 	0.256	0.756	0.75	-0.044
_end
