data_functionalizedCrystal
_audit_creation_method	'EQeq! by Chris Wilmer'
_symmetry_space_group_name_H-M	'P1'
_symmetry_Int_Tables_number	1
_symmetry_cell_setting	triclinic
loop_
_symmetry_equiv_pos_as_xyz
  x,y,z
_cell_length_a	9.491
_cell_length_b	10.052
_cell_length_c	11.344
_cell_angle_alpha	94.429
_cell_angle_beta	97.914
_cell_angle_gamma	111.386
loop_
_atom_site_label
_atom_site_type_symbol
_atom_site_fract_x
_atom_site_fract_y
_atom_site_fract_z
_atom_site_charge
Mof_La	La	0.21401	0.45409	0.01294	2.211
Mof_La	La	0.78599	0.54591	0.98706	2.211
Mof_H 	H 	0.8199	0.9967	0.0393	0.021
Mof_H 	H 	0.6888	0.2868	0.2112	0.036
Mof_H 	H 	0.4164	0.8638	0.1577	0.067
Mof_H 	H 	0.6542	0.0889	0.4254	0.138
Mof_H 	H 	0.7449	0.212	0.6147	-0.012
Mof_H 	H 	0.4379	0.3943	0.5725	-0.019
Mof_H 	H 	0.3522	0.285	0.3729	0.146
Mof_H 	H 	0.96	0.192	0.87	0.245
Mof_H 	H 	0.07	0.26	0.81	0.198
Mof_H 	H 	0.1801	0.0033	0.9607	0.021
Mof_H 	H 	0.3112	0.7132	0.7888	0.036
Mof_H 	H 	0.5836	0.1362	0.8423	0.067
Mof_H 	H 	0.3458	0.9111	0.5746	0.138
Mof_H 	H 	0.2551	0.788	0.3853	-0.012
Mof_H 	H 	0.5621	0.6057	0.4275	-0.019
Mof_H 	H 	0.6478	0.715	0.6271	0.146
Mof_H 	H 	0.04	0.808	0.13	0.245
Mof_H 	H 	0.93	0.74	0.19	0.198
Mof_C 	C 	0.5806	0.7586	0.032	0.516
Mof_C 	C 	0.6127	0.9078	0.0872	-0.148
Mof_C 	C 	0.748	0.0176	0.0772	0.057
Mof_C 	C 	0.7774	0.1597	0.1238	-0.112
Mof_C 	C 	0.923	0.2758	0.106	0.389
Mof_C 	C 	0.6721	0.192	0.1829	-0.067
Mof_C 	C 	0.5429	0.0797	0.1981	0.141
Mof_C 	C 	0.5073	0.937	0.1493	-0.06
Mof_C 	C 	0.4951	0.1758	0.3786	0.286
Mof_C 	C 	0.6125	0.1533	0.4533	-0.291
Mof_C 	C 	0.6654	0.2261	0.5665	0.173
Mof_C 	C 	0.6046	0.32	0.6119	-0.212
Mof_C 	C 	0.6657	0.4021	0.7339	0.365
Mof_C 	C 	0.4845	0.3363	0.5407	0.157
Mof_C 	C 	0.4297	0.2685	0.4215	-0.279
Mof_C 	C 	0.4194	0.2414	0.968	0.516
Mof_C 	C 	0.3873	0.0922	0.9128	-0.148
Mof_C 	C 	0.252	0.9824	0.9228	0.057
Mof_C 	C 	0.2226	0.8403	0.8762	-0.112
Mof_C 	C 	0.077	0.7242	0.894	0.389
Mof_C 	C 	0.3279	0.808	0.8171	-0.067
Mof_C 	C 	0.4571	0.9203	0.8019	0.141
Mof_C 	C 	0.4927	0.063	0.8507	-0.06
Mof_C 	C 	0.5049	0.8242	0.6214	0.286
Mof_C 	C 	0.3875	0.8467	0.5467	-0.291
Mof_C 	C 	0.3346	0.7739	0.4335	0.173
Mof_C 	C 	0.3954	0.68	0.3881	-0.212
Mof_C 	C 	0.3343	0.5979	0.2661	0.365
Mof_C 	C 	0.5155	0.6637	0.4593	0.157
Mof_C 	C 	0.5703	0.7315	0.5785	-0.279
Mof_O 	O 	0.447	0.6634	0.027	-0.58
Mof_O 	O 	0.6853	0.7389	0.9923	-0.561
Mof_O 	O 	0.0447	0.2519	0.1139	-0.455
Mof_O 	O 	0.9192	0.3966	0.0786	-0.562
Mof_O 	O 	0.4379	0.1077	0.2616	-0.272
Mof_O 	O 	0.7731	0.3794	0.7999	-0.42
Mof_O 	O 	0.6174	0.4945	0.7726	-0.431
Mof_O 	O 	0.0029	0.2784	0.8483	-0.665
Mof_O 	O 	0.553	0.3366	0.973	-0.58
Mof_O 	O 	0.3147	0.2611	0.0077	-0.561
Mof_O 	O 	0.9553	0.7481	0.8861	-0.455
Mof_O 	O 	0.0808	0.6034	0.9214	-0.562
Mof_O 	O 	0.5621	0.8923	0.7384	-0.272
Mof_O 	O 	0.2269	0.6206	0.2001	-0.42
Mof_O 	O 	0.3826	0.5055	0.2274	-0.431
Mof_O 	O 	0.9971	0.7216	0.1517	-0.665
_end
