data_functionalizedCrystal
_audit_creation_method	'EQeq! by Chris Wilmer'
_symmetry_space_group_name_H-M	'P1'
_symmetry_Int_Tables_number	1
_symmetry_cell_setting	triclinic
loop_
_symmetry_equiv_pos_as_xyz
  x,y,z
_cell_length_a	8.9978
_cell_length_b	9.4638
_cell_length_c	10.433
_cell_angle_alpha	90
_cell_angle_beta	90
_cell_angle_gamma	90
loop_
_atom_site_label
_atom_site_type_symbol
_atom_site_fract_x
_atom_site_fract_y
_atom_site_fract_z
_atom_site_charge
Mof_Co	Co	0.70432	0.05272	0.73099	1.185
Mof_O 	O 	0.5397	0.9155	0.6795	-0.46
Mof_O 	O 	0.4151	0.7165	0.6848	-0.448
Mof_O 	O 	0.1525	0.3472	0.4431	-0.387
Mof_O 	O 	0.2805	0.4795	0.5811	-0.413
Mof_N 	N 	0.1281	0.3856	0.777	-0.179
Mof_N 	N 	0.8987	0.1883	0.7477	-0.2
Mof_C 	C 	0.5057	0.8014	0.7259	0.549
Mof_H 	H 	0.5543	0.7763	0.8012	-0.146
Mof_C 	C 	0.1834	0.3905	0.5527	0.346
Mof_C 	C 	0.0962	0.3332	0.6638	-0.052
Mof_C 	C 	0.9777	0.2354	0.6469	0.051
Mof_H 	H 	0.9545	0.2035	0.565	0.032
Mof_C 	C 	0.9371	0.2415	0.8629	0.027
Mof_H 	H 	0.8834	0.2131	0.9346	0.035
Mof_C 	C 	0.0521	0.3359	0.8794	-0.001
Mof_H 	H 	0.0776	0.3657	0.9615	0.056
Mof_Co	Co	0.79568	0.94728	0.23099	1.187
Mof_O 	O 	0.9603	0.0845	0.1795	-0.458
Mof_O 	O 	0.0849	0.2835	0.1848	-0.447
Mof_O 	O 	0.3475	0.6528	0.9431	-0.386
Mof_O 	O 	0.2195	0.5205	0.0811	-0.412
Mof_N 	N 	0.3719	0.6144	0.277	-0.179
Mof_N 	N 	0.6013	0.8117	0.2477	-0.2
Mof_C 	C 	0.9943	0.1986	0.2259	0.549
Mof_H 	H 	0.9457	0.2237	0.3012	-0.147
Mof_C 	C 	0.3166	0.6095	0.0527	0.344
Mof_C 	C 	0.4038	0.6668	0.1638	-0.053
Mof_C 	C 	0.5223	0.7646	0.1469	0.051
Mof_H 	H 	0.5455	0.7965	0.065	0.031
Mof_C 	C 	0.5629	0.7585	0.3629	0.028
Mof_H 	H 	0.6166	0.7869	0.4346	0.036
Mof_C 	C 	0.4479	0.6641	0.3794	-0.002
Mof_H 	H 	0.4224	0.6343	0.4615	0.057
Mof_Co	Co	0.29568	0.55272	0.76901	1.188
Mof_O 	O 	0.4603	0.4155	0.8205	-0.461
Mof_O 	O 	0.5849	0.2165	0.8152	-0.449
Mof_O 	O 	0.8475	0.8472	0.0569	-0.39
Mof_O 	O 	0.7195	0.9795	0.9189	-0.411
Mof_N 	N 	0.8719	0.8856	0.723	-0.178
Mof_N 	N 	0.1013	0.6883	0.7523	-0.199
Mof_C 	C 	0.4943	0.3014	0.7741	0.55
Mof_H 	H 	0.4457	0.2763	0.6988	-0.147
Mof_C 	C 	0.8166	0.8905	0.9473	0.35
Mof_C 	C 	0.9038	0.8332	0.8362	-0.053
Mof_C 	C 	0.0223	0.7354	0.8531	0.051
Mof_H 	H 	0.0455	0.7035	0.935	0.032
Mof_C 	C 	0.0629	0.7415	0.6371	0.027
Mof_H 	H 	0.1166	0.7131	0.5654	0.036
Mof_C 	C 	0.9479	0.8359	0.6206	-0
Mof_H 	H 	0.9224	0.8657	0.5385	0.057
Mof_Co	Co	0.20432	0.44728	0.26901	1.188
Mof_O 	O 	0.0397	0.5845	0.3205	-0.46
Mof_O 	O 	0.9151	0.7835	0.3152	-0.447
Mof_O 	O 	0.6525	0.1528	0.5569	-0.387
Mof_O 	O 	0.7805	0.0205	0.4189	-0.412
Mof_N 	N 	0.6281	0.1144	0.223	-0.178
Mof_N 	N 	0.3987	0.3117	0.2523	-0.2
Mof_C 	C 	0.0057	0.6986	0.2741	0.548
Mof_H 	H 	0.0543	0.7237	0.1988	-0.147
Mof_C 	C 	0.6834	0.1095	0.4473	0.346
Mof_C 	C 	0.5962	0.1668	0.3362	-0.053
Mof_C 	C 	0.4777	0.2646	0.3531	0.052
Mof_H 	H 	0.4545	0.2965	0.435	0.032
Mof_C 	C 	0.4371	0.2585	0.1371	0.028
Mof_H 	H 	0.3834	0.2869	0.0654	0.036
Mof_C 	C 	0.5521	0.1641	0.1206	-0.001
Mof_H 	H 	0.5776	0.1343	0.0385	0.058
_end
