data_functionalizedCrystal
_audit_creation_method	'EQeq! by Chris Wilmer'
_symmetry_space_group_name_H-M	'P1'
_symmetry_Int_Tables_number	1
_symmetry_cell_setting	triclinic
loop_
_symmetry_equiv_pos_as_xyz
  x,y,z
_cell_length_a	17.091
_cell_length_b	17.091
_cell_length_c	14.611
_cell_angle_alpha	90
_cell_angle_beta	90
_cell_angle_gamma	90
loop_
_atom_site_label
_atom_site_type_symbol
_atom_site_fract_x
_atom_site_fract_y
_atom_site_fract_z
_atom_site_charge
Mof_V 	V 	0.37871	0.38682	0.6281	1.788
Mof_V 	V 	0.68544	0.45266	0.58869	1.671
Mof_V 	V 	0.53321	0.31133	0.58704	1.672
Mof_V 	V 	0.56627	0.42894	0.73017	1.68
Mof_C 	C 	0.0786	0.2726	0.6841	0.005
Mof_H 	H 	0.0689	0.2615	0.7454	-0.036
Mof_C 	C 	0.0158	0.2758	0.6259	-0.042
Mof_H 	H 	0.9654	0.2674	0.6477	-0.062
Mof_C 	C 	0.0286	0.2921	0.5327	0.012
Mof_C 	C 	0.1644	0.3048	0.5731	0.038
Mof_H 	H 	0.2148	0.3185	0.5555	-0.039
Mof_C 	C 	0.828	0.3046	0.4266	0.032
Mof_H 	H 	0.7776	0.3184	0.4445	-0.044
Mof_C 	C 	0.8881	0.3117	0.4886	-0.149
Mof_H 	H 	0.8779	0.3305	0.5471	0.002
Mof_C 	C 	0.9635	0.291	0.465	0.021
Mof_C 	C 	0.9142	0.2633	0.3157	0.086
Mof_H 	H 	0.9239	0.2493	0.2553	-0.085
Mof_C 	C 	0.9767	0.2674	0.3747	-0.242
Mof_H 	H 	0.0269	0.2548	0.355	0.059
Mof_C 	C 	0.1057	0.3068	0.5079	-0.131
Mof_H 	H 	0.118	0.3181	0.4473	0.012
Mof_N 	N 	0.1524	0.2843	0.6591	-0.217
Mof_N 	N 	0.2783	0.1602	0.6598	-0.214
Mof_O 	O 	0.4809	0.3707	0.682	-1.03
Mof_O 	O 	0.6204	0.3692	0.6234	-1.075
Mof_O 	O 	0.3689	0.4908	0.6822	-1.037
Mof_O 	O 	0.3135	0.4405	0.5389	-1.021
Mof_O 	O 	0.4271	0.3203	0.537	-1.029
Mof_O 	O 	0.3188	0.3283	0.6818	-0.711
Mof_V 	V 	0.62129	0.61318	0.6281	1.787
Mof_V 	V 	0.31456	0.54734	0.58869	1.671
Mof_V 	V 	0.46679	0.68867	0.58704	1.67
Mof_V 	V 	0.43373	0.57106	0.73017	1.68
Mof_C 	C 	0.9214	0.7274	0.6841	0.092
Mof_H 	H 	0.9311	0.7385	0.7454	-0.082
Mof_C 	C 	0.9842	0.7242	0.6259	-0.243
Mof_H 	H 	0.0346	0.7326	0.6477	0.059
Mof_C 	C 	0.9714	0.7079	0.5327	0.023
Mof_C 	C 	0.8356	0.6952	0.5731	0.049
Mof_H 	H 	0.7852	0.6815	0.5555	-0.045
Mof_C 	C 	0.172	0.6954	0.4266	0.018
Mof_H 	H 	0.2224	0.6816	0.4445	-0.038
Mof_C 	C 	0.1119	0.6883	0.4886	-0.123
Mof_H 	H 	0.1221	0.6695	0.5471	0.003
Mof_C 	C 	0.0365	0.709	0.465	0.004
Mof_C 	C 	0.0858	0.7367	0.3157	-0.005
Mof_H 	H 	0.0761	0.7507	0.2553	-0.04
Mof_C 	C 	0.0233	0.7326	0.3747	-0.043
Mof_H 	H 	0.9731	0.7452	0.355	-0.066
Mof_C 	C 	0.8943	0.6932	0.5079	-0.157
Mof_H 	H 	0.882	0.6819	0.4473	0.009
Mof_N 	N 	0.8476	0.7157	0.6591	-0.238
Mof_N 	N 	0.7217	0.8398	0.6598	-0.234
Mof_O 	O 	0.5191	0.6293	0.682	-1.031
Mof_O 	O 	0.3796	0.6308	0.6234	-1.076
Mof_O 	O 	0.6311	0.5092	0.6822	-1.038
Mof_O 	O 	0.6865	0.5595	0.5389	-1.023
Mof_O 	O 	0.5729	0.6797	0.537	-1.03
Mof_O 	O 	0.6812	0.6717	0.6818	-0.712
Mof_V 	V 	0.38682	0.62129	0.3719	1.787
Mof_V 	V 	0.45266	0.31456	0.41131	1.671
Mof_V 	V 	0.31133	0.46679	0.41296	1.672
Mof_V 	V 	0.42894	0.43373	0.26983	1.68
Mof_C 	C 	0.2726	0.9214	0.3159	0.098
Mof_H 	H 	0.2615	0.9311	0.2546	-0.084
Mof_C 	C 	0.2758	0.9842	0.3741	-0.25
Mof_H 	H 	0.2674	0.0346	0.3523	0.066
Mof_C 	C 	0.2921	0.9714	0.4673	0.026
Mof_C 	C 	0.3048	0.8356	0.4269	0.051
Mof_H 	H 	0.3185	0.7852	0.4445	-0.046
Mof_C 	C 	0.3046	0.172	0.5734	0.019
Mof_H 	H 	0.3184	0.2224	0.5555	-0.037
Mof_C 	C 	0.3117	0.1119	0.5114	-0.122
Mof_H 	H 	0.3305	0.1221	0.4529	0.004
Mof_C 	C 	0.291	0.0365	0.535	0.005
Mof_C 	C 	0.2633	0.0858	0.6843	-0.006
Mof_H 	H 	0.2493	0.0761	0.7447	-0.038
Mof_C 	C 	0.2674	0.0233	0.6253	-0.035
Mof_H 	H 	0.2548	0.9731	0.645	-0.069
Mof_C 	C 	0.3068	0.8943	0.4921	-0.158
Mof_H 	H 	0.3181	0.882	0.5527	0.01
Mof_N 	N 	0.2843	0.8476	0.3409	-0.239
Mof_N 	N 	0.1602	0.7217	0.3402	-0.215
Mof_O 	O 	0.3707	0.5191	0.318	-1.03
Mof_O 	O 	0.3692	0.3796	0.3766	-1.074
Mof_O 	O 	0.4908	0.6311	0.3178	-1.038
Mof_O 	O 	0.4405	0.6865	0.4611	-1.023
Mof_O 	O 	0.3203	0.5729	0.463	-1.029
Mof_O 	O 	0.3283	0.6812	0.3182	-0.712
Mof_V 	V 	0.61318	0.37871	0.3719	1.787
Mof_V 	V 	0.54734	0.68544	0.41131	1.67
Mof_V 	V 	0.68867	0.53321	0.41296	1.67
Mof_V 	V 	0.57106	0.56627	0.26983	1.68
Mof_C 	C 	0.7274	0.0786	0.3159	0.006
Mof_H 	H 	0.7385	0.0689	0.2546	-0.038
Mof_C 	C 	0.7242	0.0158	0.3741	-0.051
Mof_H 	H 	0.7326	0.9654	0.3523	-0.059
Mof_C 	C 	0.7079	0.0286	0.4673	0.011
Mof_C 	C 	0.6952	0.1644	0.4269	0.037
Mof_H 	H 	0.6815	0.2148	0.4445	-0.039
Mof_C 	C 	0.6954	0.828	0.5734	0.03
Mof_H 	H 	0.6816	0.7776	0.5555	-0.043
Mof_C 	C 	0.6883	0.8881	0.5114	-0.148
Mof_H 	H 	0.6695	0.8779	0.4529	0.001
Mof_C 	C 	0.709	0.9635	0.535	0.018
Mof_C 	C 	0.7367	0.9142	0.6843	0.079
Mof_H 	H 	0.7507	0.9239	0.7447	-0.083
Mof_C 	C 	0.7326	0.9767	0.6253	-0.234
Mof_H 	H 	0.7452	0.0269	0.645	0.052
Mof_C 	C 	0.6932	0.1057	0.4921	-0.133
Mof_H 	H 	0.6819	0.118	0.5527	0.011
Mof_N 	N 	0.7157	0.1524	0.3409	-0.218
Mof_N 	N 	0.8398	0.2783	0.3402	-0.235
Mof_O 	O 	0.6293	0.4809	0.318	-1.031
Mof_O 	O 	0.6308	0.6204	0.3766	-1.077
Mof_O 	O 	0.5092	0.3689	0.3178	-1.037
Mof_O 	O 	0.5595	0.3135	0.4611	-1.021
Mof_O 	O 	0.6797	0.4271	0.463	-1.03
Mof_O 	O 	0.6717	0.3188	0.3182	-0.712
Mof_V 	V 	0.87871	0.11318	0.1281	1.787
Mof_V 	V 	0.18544	0.04734	0.08869	1.685
Mof_V 	V 	0.03321	0.18867	0.08704	1.686
Mof_V 	V 	0.06627	0.07106	0.23017	1.696
Mof_C 	C 	0.5786	0.2274	0.1841	0.054
Mof_H 	H 	0.5689	0.2385	0.2454	-0.059
Mof_C 	C 	0.5158	0.2242	0.1259	-0.146
Mof_H 	H 	0.4654	0.2326	0.1477	0.003
Mof_C 	C 	0.5286	0.2079	0.0327	0.021
Mof_C 	C 	0.6644	0.1952	0.0731	0.047
Mof_H 	H 	0.7148	0.1815	0.0555	-0.042
Mof_C 	C 	0.328	0.1954	0.9266	0.029
Mof_H 	H 	0.2776	0.1816	0.9445	-0.04
Mof_C 	C 	0.3881	0.1883	0.9886	-0.136
Mof_H 	H 	0.3779	0.1695	0.0471	0.007
Mof_C 	C 	0.4635	0.209	0.965	0.015
Mof_C 	C 	0.4142	0.2367	0.8157	0.042
Mof_H 	H 	0.4239	0.2507	0.7553	-0.061
Mof_C 	C 	0.4767	0.2326	0.8747	-0.138
Mof_H 	H 	0.5269	0.2452	0.855	-0.004
Mof_C 	C 	0.6057	0.1932	0.0079	-0.144
Mof_H 	H 	0.618	0.1819	0.9473	0.014
Mof_N 	N 	0.6524	0.2157	0.1591	-0.228
Mof_N 	N 	0.7783	0.3398	0.1598	-0.225
Mof_O 	O 	0.9809	0.1293	0.182	-1.055
Mof_O 	O 	0.1204	0.1308	0.1234	-1.062
Mof_O 	O 	0.8689	0.0092	0.1822	-1.024
Mof_O 	O 	0.8135	0.0595	0.0389	-1.01
Mof_O 	O 	0.9271	0.1797	0.037	-1.042
Mof_O 	O 	0.8188	0.1717	0.1818	-0.712
Mof_V 	V 	0.12129	0.88682	0.1281	1.787
Mof_V 	V 	0.81456	0.95266	0.08869	1.657
Mof_V 	V 	0.96679	0.81133	0.08704	1.657
Mof_V 	V 	0.93373	0.92894	0.23017	1.653
Mof_C 	C 	0.4214	0.7726	0.1841	0.049
Mof_H 	H 	0.4311	0.7615	0.2454	-0.061
Mof_C 	C 	0.4842	0.7758	0.1259	-0.147
Mof_H 	H 	0.5346	0.7674	0.1477	0
Mof_C 	C 	0.4714	0.7921	0.0327	0.016
Mof_C 	C 	0.3356	0.8048	0.0731	0.041
Mof_H 	H 	0.2852	0.8185	0.0555	-0.043
Mof_C 	C 	0.672	0.8046	0.9266	0.022
Mof_H 	H 	0.7224	0.8184	0.9445	-0.041
Mof_C 	C 	0.6119	0.8117	0.9886	-0.136
Mof_H 	H 	0.6221	0.8305	0.0471	-0.002
Mof_C 	C 	0.5365	0.791	0.965	0.01
Mof_C 	C 	0.5858	0.7633	0.8157	0.037
Mof_H 	H 	0.5761	0.7493	0.7553	-0.062
Mof_C 	C 	0.5233	0.7674	0.8747	-0.139
Mof_H 	H 	0.4731	0.7548	0.855	-0.006
Mof_C 	C 	0.3943	0.8068	0.0079	-0.146
Mof_H 	H 	0.382	0.8181	0.9473	0.008
Mof_N 	N 	0.3476	0.7843	0.1591	-0.228
Mof_N 	N 	0.2217	0.6602	0.1598	-0.224
Mof_O 	O 	0.0191	0.8707	0.182	-1.017
Mof_O 	O 	0.8796	0.8692	0.1234	-1.09
Mof_O 	O 	0.1311	0.9908	0.1822	-1.062
Mof_O 	O 	0.1865	0.9405	0.0389	-1.035
Mof_O 	O 	0.0729	0.8203	0.037	-1.018
Mof_O 	O 	0.1812	0.8283	0.1818	-0.712
Mof_V 	V 	0.88682	0.87871	0.8719	1.785
Mof_V 	V 	0.95266	0.18544	0.91131	1.657
Mof_V 	V 	0.81133	0.03321	0.91296	1.683
Mof_V 	V 	0.92894	0.06627	0.76983	1.672
Mof_C 	C 	0.7726	0.5786	0.8159	0.049
Mof_H 	H 	0.7615	0.5689	0.7546	-0.061
Mof_C 	C 	0.7758	0.5158	0.8741	-0.147
Mof_H 	H 	0.7674	0.4654	0.8523	0
Mof_C 	C 	0.7921	0.5286	0.9673	0.016
Mof_C 	C 	0.8048	0.6644	0.9269	0.041
Mof_H 	H 	0.8185	0.7148	0.9445	-0.043
Mof_C 	C 	0.8046	0.328	0.0734	0.022
Mof_H 	H 	0.8184	0.2776	0.0555	-0.041
Mof_C 	C 	0.8117	0.3881	0.0114	-0.136
Mof_H 	H 	0.8305	0.3779	0.9529	-0.002
Mof_C 	C 	0.791	0.4635	0.035	0.01
Mof_C 	C 	0.7633	0.4142	0.1843	0.037
Mof_H 	H 	0.7493	0.4239	0.2447	-0.062
Mof_C 	C 	0.7674	0.4767	0.1253	-0.139
Mof_H 	H 	0.7548	0.5269	0.145	-0.007
Mof_C 	C 	0.8068	0.6057	0.9921	-0.146
Mof_H 	H 	0.8181	0.618	0.0527	0.007
Mof_N 	N 	0.7843	0.6524	0.8409	-0.228
Mof_N 	N 	0.6602	0.7783	0.8402	-0.224
Mof_O 	O 	0.8707	0.9809	0.818	-1.062
Mof_O 	O 	0.8692	0.1204	0.8766	-1.077
Mof_O 	O 	0.9908	0.8689	0.8178	-1.07
Mof_O 	O 	0.9405	0.8135	0.9611	-1.037
Mof_O 	O 	0.8203	0.9271	0.963	-1.044
Mof_O 	O 	0.8283	0.8188	0.8182	-0.714
Mof_V 	V 	0.11318	0.12129	0.8719	1.789
Mof_V 	V 	0.04734	0.81456	0.91131	1.683
Mof_V 	V 	0.18867	0.96679	0.91296	1.656
Mof_V 	V 	0.07106	0.93373	0.76983	1.672
Mof_C 	C 	0.2274	0.4214	0.8159	0.054
Mof_H 	H 	0.2385	0.4311	0.7546	-0.059
Mof_C 	C 	0.2242	0.4842	0.8741	-0.146
Mof_H 	H 	0.2326	0.5346	0.8523	0.003
Mof_C 	C 	0.2079	0.4714	0.9673	0.021
Mof_C 	C 	0.1952	0.3356	0.9269	0.047
Mof_H 	H 	0.1815	0.2852	0.9445	-0.042
Mof_C 	C 	0.1954	0.672	0.0734	0.028
Mof_H 	H 	0.1816	0.7224	0.0555	-0.04
Mof_C 	C 	0.1883	0.6119	0.0114	-0.135
Mof_H 	H 	0.1695	0.6221	0.9529	0.006
Mof_C 	C 	0.209	0.5365	0.035	0.015
Mof_C 	C 	0.2367	0.5858	0.1843	0.042
Mof_H 	H 	0.2507	0.5761	0.2447	-0.061
Mof_C 	C 	0.2326	0.5233	0.1253	-0.138
Mof_H 	H 	0.2452	0.4731	0.145	-0.004
Mof_C 	C 	0.1932	0.3943	0.9921	-0.145
Mof_H 	H 	0.1819	0.382	0.0527	0.015
Mof_N 	N 	0.2157	0.3476	0.8409	-0.228
Mof_N 	N 	0.3398	0.2217	0.8402	-0.224
Mof_O 	O 	0.1293	0.0191	0.818	-1.005
Mof_O 	O 	0.1308	0.8796	0.8766	-1.077
Mof_O 	O 	0.0092	0.1311	0.8178	-1.011
Mof_O 	O 	0.0595	0.1865	0.9611	-1.006
Mof_O 	O 	0.1797	0.0729	0.963	-1.014
Mof_O 	O 	0.1717	0.1812	0.8182	-0.711
Mof_Ni	Ni	0.24639	0.25361	0.75	1.099
Mof_Ni	Ni	0.75361	0.74639	0.75	1.099
Mof_Ni	Ni	0.25361	0.75361	0.25	1.099
Mof_Ni	Ni	0.74639	0.24639	0.25	1.099
Mof_O 	O 	0.5	0.5	0.7824	-0.862
Mof_O 	O 	0.5	0.5	0.2176	-0.862
Mof_O 	O 	9.05188e-34	0	0.2824	-0.812
Mof_O 	O 	2.30015e-33	0	0.7176	-0.812
_end
