data_functionalizedCrystal
_audit_creation_method	'EQeq! by Chris Wilmer'
_symmetry_space_group_name_H-M	'P1'
_symmetry_Int_Tables_number	1
_symmetry_cell_setting	triclinic
loop_
_symmetry_equiv_pos_as_xyz
  x,y,z
_cell_length_a	12.262
_cell_length_b	13.572
_cell_length_c	24.934
_cell_angle_alpha	90
_cell_angle_beta	90
_cell_angle_gamma	90
loop_
_atom_site_label
_atom_site_type_symbol
_atom_site_fract_x
_atom_site_fract_y
_atom_site_fract_z
_atom_site_charge
Mof_O 	O 	0.6116	0.9175	0.7307	-0.352
Mof_O 	O 	0.6003	0.0065	0.8027	-0.907
Mof_O 	O 	0.8606	0.9582	0.9496	-0.407
Mof_O 	O 	0.0026	0.8753	0.93297	-0.384
Mof_O 	O 	0.0279	0.1491	0.55333	-0.459
Mof_O 	O 	0.8815	0.0711	0.5469	-0.68
Mof_O 	O 	0.5823	0.1242	0.6754	-0.492
Mof_O 	O 	0.6236	0.2123	0.757	-0.427
Mof_O 	O 	0.8766	0.6587	0.7737	-0.229
Mof_O 	O 	0.9507	0.4146	0.6871	-0.246
Mof_C 	C 	0.7751	0.9051	0.8492	-0.052
Mof_H 	H 	0.7479	0.961	0.8661	0.123
Mof_C 	C 	0.855	0.8554	0.8717	0.034
Mof_C 	C 	0.8935	0.7682	0.8489	-0.172
Mof_H 	H 	0.9503	0.7338	0.8651	0.121
Mof_C 	C 	0.8479	0.7337	0.8031	0.229
Mof_C 	C 	0.7649	0.7933	0.7786	-0.124
Mof_H 	H 	0.7342	0.7735	0.7463	0.115
Mof_C 	C 	0.7315	0.876	0.8016	-0.014
Mof_C 	C 	0.6429	0.9611	0.7794	0.682
Mof_C 	C 	0.9112	0.8937	0.9204	0.325
Mof_C 	C 	0.8927	0.3441	0.6728	0.234
Mof_C 	C 	0.9366	0.2834	0.6263	-0.108
Mof_H 	H 	0.0035	0.3002	0.6113	0.092
Mof_C 	C 	0.88	0.2041	0.6057	-0.046
Mof_C 	C 	0.7757	0.1784	0.6242	-0.079
Mof_H 	H 	0.7314	0.1347	0.6055	0.085
Mof_C 	C 	0.7426	0.2209	0.671	0.072
Mof_C 	C 	0.7972	0.3118	0.6935	-0.203
Mof_H 	H 	0.7649	0.3458	0.7218	0.124
Mof_C 	C 	0.9219	0.134	0.5621	0.475
Mof_C 	C 	0.6474	0.181	0.701	0.1
Mof_C 	C 	0.9648	0.6005	0.7958	-0.01
Mof_H 	H 	0.9406	0.5652	0.8274	0.065
Mof_H 	H 	0.0256	0.6425	0.8056	0.061
Mof_C 	C 	0.9059	0.4669	0.7307	-0.004
Mof_H 	H 	0.8795	0.4224	0.7582	0.055
Mof_H 	H 	0.8466	0.5093	0.7192	0.058
Mof_O 	O 	0.3884	0.0825	0.2307	-0.344
Mof_O 	O 	0.3997	0.9935	0.3027	-0.512
Mof_O 	O 	0.1394	0.0418	0.4496	-0.556
Mof_O 	O 	0.9974	0.1247	0.43297	-0.462
Mof_O 	O 	0.9721	0.8509	0.05333	-0.39
Mof_O 	O 	0.1185	0.9289	0.0469	-0.562
Mof_O 	O 	0.4177	0.8758	0.1754	-0.473
Mof_O 	O 	0.3764	0.7877	0.257	-0.427
Mof_O 	O 	0.1234	0.3413	0.2737	-0.243
Mof_O 	O 	0.0493	0.5854	0.1871	-0.257
Mof_C 	C 	0.2249	0.0949	0.3492	-0.13
Mof_H 	H 	0.2521	0.039	0.3661	0.083
Mof_C 	C 	0.145	0.1446	0.3717	0.034
Mof_C 	C 	0.1065	0.2318	0.3489	-0.206
Mof_H 	H 	0.0497	0.2662	0.3651	0.117
Mof_C 	C 	0.1521	0.2663	0.3031	0.256
Mof_C 	C 	0.2351	0.2067	0.2786	-0.215
Mof_H 	H 	0.2658	0.2265	0.2463	0.133
Mof_C 	C 	0.2685	0.124	0.3016	0.093
Mof_C 	C 	0.3571	0.0389	0.2794	0.186
Mof_C 	C 	0.0888	0.1063	0.4204	0.321
Mof_C 	C 	0.1073	0.6559	0.1728	0.254
Mof_C 	C 	0.0634	0.7166	0.1263	-0.142
Mof_H 	H 	0.9965	0.6998	0.1113	0.111
Mof_C 	C 	0.12	0.7959	0.1057	0.003
Mof_C 	C 	0.2243	0.8216	0.1242	-0.098
Mof_H 	H 	0.2686	0.8653	0.1055	0.117
Mof_C 	C 	0.2574	0.7791	0.171	0.102
Mof_C 	C 	0.2028	0.6882	0.1935	-0.215
Mof_H 	H 	0.2351	0.6542	0.2218	0.128
Mof_C 	C 	0.0781	0.866	0.0621	0.422
Mof_C 	C 	0.3526	0.819	0.201	0.107
Mof_C 	C 	0.0352	0.3995	0.2958	-0.019
Mof_H 	H 	0.0594	0.4348	0.3274	0.059
Mof_H 	H 	0.9744	0.3575	0.3056	0.062
Mof_C 	C 	0.0941	0.5331	0.2307	0.001
Mof_H 	H 	0.1205	0.5776	0.2582	0.054
Mof_H 	H 	0.1534	0.4907	0.2192	0.051
Mof_O 	O 	0.3884	0.9175	0.7693	-0.35
Mof_O 	O 	0.3997	0.0065	0.6973	-0.913
Mof_O 	O 	0.1394	0.9582	0.5504	-0.457
Mof_O 	O 	0.9974	0.8753	0.56703	-0.411
Mof_O 	O 	0.9721	0.1491	0.94667	-0.405
Mof_O 	O 	0.1185	0.0711	0.9531	-0.619
Mof_O 	O 	0.4177	0.1242	0.8246	-0.485
Mof_O 	O 	0.3764	0.2123	0.743	-0.429
Mof_O 	O 	0.1234	0.6587	0.7263	-0.224
Mof_O 	O 	0.0493	0.4146	0.8129	-0.252
Mof_C 	C 	0.2249	0.9051	0.6508	-0.045
Mof_H 	H 	0.2521	0.961	0.6339	0.117
Mof_C 	C 	0.145	0.8554	0.6283	0.022
Mof_C 	C 	0.1065	0.7682	0.6511	-0.166
Mof_H 	H 	0.0497	0.7338	0.6349	0.11
Mof_C 	C 	0.1521	0.7337	0.6969	0.219
Mof_C 	C 	0.2351	0.7933	0.7214	-0.12
Mof_H 	H 	0.2658	0.7735	0.7537	0.114
Mof_C 	C 	0.2685	0.876	0.6984	-0.022
Mof_C 	C 	0.3571	0.9611	0.7206	0.687
Mof_C 	C 	0.0888	0.8937	0.5796	0.323
Mof_C 	C 	0.1073	0.3441	0.8272	0.251
Mof_C 	C 	0.0634	0.2834	0.8737	-0.144
Mof_H 	H 	0.9965	0.3002	0.8887	0.119
Mof_C 	C 	0.12	0.2041	0.8943	-0.015
Mof_C 	C 	0.2243	0.1784	0.8758	-0.096
Mof_H 	H 	0.2686	0.1347	0.8945	0.098
Mof_C 	C 	0.2574	0.2209	0.829	0.085
Mof_C 	C 	0.2028	0.3118	0.8065	-0.213
Mof_H 	H 	0.2351	0.3458	0.7782	0.127
Mof_C 	C 	0.0781	0.134	0.9379	0.439
Mof_C 	C 	0.3526	0.181	0.799	0.097
Mof_C 	C 	0.0352	0.6005	0.7042	-0.034
Mof_H 	H 	0.0594	0.5652	0.6726	0.064
Mof_H 	H 	0.9744	0.6425	0.6944	0.073
Mof_C 	C 	0.0941	0.4669	0.7693	-0.006
Mof_H 	H 	0.1205	0.4224	0.7418	0.052
Mof_H 	H 	0.1534	0.5093	0.7808	0.06
Mof_O 	O 	0.6116	0.0825	0.2693	-0.342
Mof_O 	O 	0.6003	0.9935	0.1973	-0.516
Mof_O 	O 	0.8606	0.0418	0.0504	-0.554
Mof_O 	O 	0.0026	0.1247	0.06703	-0.472
Mof_O 	O 	0.0279	0.8509	0.44667	-0.396
Mof_O 	O 	0.8815	0.9289	0.4531	-0.573
Mof_O 	O 	0.5823	0.8758	0.3246	-0.469
Mof_O 	O 	0.6236	0.7877	0.243	-0.429
Mof_O 	O 	0.8766	0.3413	0.2263	-0.245
Mof_O 	O 	0.9507	0.5854	0.3129	-0.249
Mof_C 	C 	0.7751	0.0949	0.1508	-0.122
Mof_H 	H 	0.7479	0.039	0.1339	0.077
Mof_C 	C 	0.855	0.1446	0.1283	0.021
Mof_C 	C 	0.8935	0.2318	0.1511	-0.2
Mof_H 	H 	0.9503	0.2662	0.1349	0.113
Mof_C 	C 	0.8479	0.2663	0.1969	0.252
Mof_C 	C 	0.7649	0.2067	0.2214	-0.212
Mof_H 	H 	0.7342	0.2265	0.2537	0.133
Mof_C 	C 	0.7315	0.124	0.1984	0.087
Mof_C 	C 	0.6429	0.0389	0.2206	0.188
Mof_C 	C 	0.9112	0.1063	0.0796	0.332
Mof_C 	C 	0.8927	0.6559	0.3272	0.251
Mof_C 	C 	0.9366	0.7166	0.3737	-0.124
Mof_H 	H 	0.0035	0.6998	0.3887	0.107
Mof_C 	C 	0.88	0.7959	0.3943	0.002
Mof_C 	C 	0.7757	0.8216	0.3758	-0.094
Mof_H 	H 	0.7314	0.8653	0.3945	0.122
Mof_C 	C 	0.7426	0.7791	0.329	0.103
Mof_C 	C 	0.7972	0.6882	0.3065	-0.21
Mof_H 	H 	0.7649	0.6542	0.2782	0.127
Mof_C 	C 	0.9219	0.866	0.4379	0.437
Mof_C 	C 	0.6474	0.819	0.299	0.108
Mof_C 	C 	0.9648	0.3995	0.2042	0.001
Mof_H 	H 	0.9406	0.4348	0.1726	0.051
Mof_H 	H 	0.0256	0.3575	0.1944	0.05
Mof_C 	C 	0.9059	0.5331	0.2693	0.003
Mof_H 	H 	0.8795	0.5776	0.2418	0.053
Mof_H 	H 	0.8466	0.4907	0.2808	0.052
Mof_In	In	0.5	0.08757	0.75	2.556
Mof_In	In	0.5	0.91243	0.25	2.676
Mof_In	In	0.99413	0	-0	2.146
Mof_In	In	0.00587	0	0.5	2.327
Mof_C 	C 	5.71812e-33	0.5253	0.75	0.045
Mof_C 	C 	1.4073e-32	0.4747	0.25	0.038
_end
