data_functionalizedCrystal
_audit_creation_method	'EQeq! by Chris Wilmer'
_symmetry_space_group_name_H-M	'P1'
_symmetry_Int_Tables_number	1
_symmetry_cell_setting	triclinic
loop_
_symmetry_equiv_pos_as_xyz
  x,y,z
_cell_length_a	10.527
_cell_length_b	10.527
_cell_length_c	10.8872
_cell_angle_alpha	101.098
_cell_angle_beta	117.544
_cell_angle_gamma	108.824
loop_
_atom_site_label
_atom_site_type_symbol
_atom_site_fract_x
_atom_site_fract_y
_atom_site_fract_z
_atom_site_charge
Mof_Gd	Gd	0.05206	0.36557	0.12041	1.606
Mof_Gd	Gd	0.74516	0.93165	0.37959	1.636
Mof_Gd	Gd	0.94794	0.63443	0.87959	1.606
Mof_Gd	Gd	0.25484	0.06835	0.62041	1.636
Mof_H 	H 	0.617	0.489	0.352	0.173
Mof_H 	H 	0.438	0.378	0.176	0.196
Mof_H 	H 	0.234	0.373	0.803	0.156
Mof_H 	H 	0.637	0.265	0.148	0.173
Mof_H 	H 	0.702	0.262	0.324	0.196
Mof_H 	H 	0.07	0.431	0.697	0.158
Mof_H 	H 	0.383	0.511	0.648	0.172
Mof_H 	H 	0.562	0.622	0.824	0.195
Mof_H 	H 	0.766	0.627	0.197	0.156
Mof_H 	H 	0.363	0.735	0.852	0.173
Mof_H 	H 	0.298	0.738	0.676	0.196
Mof_H 	H 	0.93	0.569	0.303	0.158
Mof_C 	C 	0.4883	0.4481	0.2792	-0.592
Mof_C 	C 	0.4525	0.57288	0.25618	0.603
Mof_C 	C 	0.4025	0.35117	0.33147	0.516
Mof_C 	C 	0.9991	0.22328	0.62458	0.48
Mof_C 	C 	0.6689	0.2091	0.2208	-0.592
Mof_C 	C 	0.8167	0.19632	0.24382	0.602
Mof_C 	C 	0.5197	0.07103	0.16853	0.52
Mof_C 	C 	0.0987	0.37452	0.87542	0.482
Mof_C 	C 	0.5117	0.5519	0.7208	-0.592
Mof_C 	C 	0.5475	0.42712	0.74382	0.603
Mof_C 	C 	0.5975	0.64883	0.66853	0.516
Mof_C 	C 	0.0009	0.77672	0.37542	0.48
Mof_C 	C 	0.3311	0.7909	0.7792	-0.592
Mof_C 	C 	0.1833	0.80368	0.75618	0.602
Mof_C 	C 	0.4803	0.92897	0.83147	0.52
Mof_C 	C 	0.9013	0.62548	0.12458	0.482
Mof_C 	C 	0.1249	0.3749	0.75	-0.518
Mof_C 	C 	0.8751	0.6251	0.25	-0.518
Mof_O 	O 	0.31316	0.55812	0.20722	-0.501
Mof_O 	O 	0.25318	0.31023	0.27465	-0.494
Mof_O 	O 	0.85147	0.18965	0.55844	-0.459
Mof_O 	O 	0.48299	0.31207	0.42812	-0.346
Mof_O 	O 	0.56843	0.68537	0.28454	-0.555
Mof_O 	O 	0.04273	0.13041	0.5916	-0.559
Mof_O 	O 	0.8509	0.10594	0.29278	-0.495
Mof_O 	O 	0.53558	0.97853	0.22535	-0.496
Mof_O 	O 	0.13121	0.29303	0.94156	-0.449
Mof_O 	O 	0.38395	0.05487	0.07188	-0.349
Mof_O 	O 	0.90083	0.28389	0.21546	-0.544
Mof_O 	O 	0.03881	0.45113	0.9084	-0.547
Mof_O 	O 	0.68684	0.44188	0.79278	-0.501
Mof_O 	O 	0.74682	0.68977	0.72535	-0.494
Mof_O 	O 	0.14853	0.81035	0.44156	-0.459
Mof_O 	O 	0.51701	0.68793	0.57188	-0.346
Mof_O 	O 	0.43157	0.31463	0.71546	-0.555
Mof_O 	O 	0.95727	0.86959	0.4084	-0.559
Mof_O 	O 	0.1491	0.89406	0.70722	-0.495
Mof_O 	O 	0.46442	0.02147	0.77465	-0.496
Mof_O 	O 	0.86879	0.70697	0.05844	-0.449
Mof_O 	O 	0.61605	0.94513	0.92812	-0.349
Mof_O 	O 	0.09917	0.71611	0.78454	-0.544
Mof_O 	O 	0.96119	0.54887	0.0916	-0.547
_end
