data_functionalizedCrystal
_audit_creation_method	'EQeq! by Chris Wilmer'
_symmetry_space_group_name_H-M	'P1'
_symmetry_Int_Tables_number	1
_symmetry_cell_setting	triclinic
loop_
_symmetry_equiv_pos_as_xyz
  x,y,z
_cell_length_a	16.1094
_cell_length_b	11.8543
_cell_length_c	17.8232
_cell_angle_alpha	90
_cell_angle_beta	103.296
_cell_angle_gamma	90
loop_
_atom_site_label
_atom_site_type_symbol
_atom_site_fract_x
_atom_site_fract_y
_atom_site_fract_z
_atom_site_charge
Mof_P 	P 	0.67484	0.47726	0.88457	0.589
Mof_P 	P 	0.62263	0.16305	0.78734	0.558
Mof_P 	P 	0.56147	0.80358	0.737	0.547
Mof_P 	P 	0.88939	0.49022	0.05655	0.543
Mof_Mo	Mo	0.71545	0.35949	0.0667	1.055
Mof_Mo	Mo	0.48031	0.35736	0.80391	1.105
Mof_Mo	Mo	0.71605	0.65072	0.03756	1.047
Mof_Mo	Mo	0.61579	0.23521	0.96508	1.157
Mof_Mo	Mo	0.47785	0.57372	0.78708	1.105
Mof_Mo	Mo	0.61136	0.74521	0.92274	1.177
Mof_Co	Co	0.87832	0.49755	0.86571	1.19
Mof_O 	O 	0.7353	0.7274	0.94646	-0.492
Mof_O 	O 	0.5909	0.3689	0.02244	-0.65
Mof_O 	O 	0.5914	0.6364	0.00147	-0.641
Mof_O 	O 	0.7384	0.2543	0.9903	-0.491
Mof_O 	O 	0.6161	0.5789	0.85766	-0.422
Mof_O 	O 	0.8409	0.3981	0.09089	-0.409
Mof_O 	O 	0.7046	0.5187	0.11518	-0.467
Mof_O 	O 	0.4666	0.4787	0.87627	-0.615
Mof_O 	O 	0.5303	0.6805	0.7211	-0.377
Mof_O 	O 	0.7125	0.4908	0.97213	-0.423
Mof_O 	O 	0.632	0.1379	0.874	-0.406
Mof_O 	O 	0.7437	0.463	0.84093	-0.348
Mof_O 	O 	0.6221	0.808	0.81865	-0.372
Mof_O 	O 	0.6176	0.3703	0.87505	-0.415
Mof_O 	O 	0.4846	0.8817	0.7344	-0.254
Mof_O 	O 	0.4861	0.7113	0.86332	-0.483
Mof_O 	O 	0.8443	0.6047	0.0602	-0.396
Mof_O 	O 	0.5393	0.2282	0.7572	-0.397
Mof_O 	O 	0.9782	0.4992	0.11652	-0.308
Mof_O 	O 	0.5195	0.4535	0.7308	-0.492
Mof_O 	O 	0.4905	0.2484	0.89904	-0.488
Mof_O 	O 	0.9022	0.4572	0.9795	-0.368
Mof_O 	O 	0.6284	0.0558	0.74509	-0.389
Mof_O 	O 	0.7016	0.2371	0.7786	-0.189
Mof_O 	O 	0.6094	0.836	0.67643	-0.323
Mof_P 	P 	0.82516	0.97726	0.61543	0.604
Mof_P 	P 	0.87737	0.66305	0.71266	0.557
Mof_P 	P 	0.93853	0.30358	0.763	0.566
Mof_P 	P 	0.61061	0.99022	0.44345	0.595
Mof_Mo	Mo	0.78455	0.85949	0.4333	1.134
Mof_Mo	Mo	0.01969	0.85736	0.69609	1.082
Mof_Mo	Mo	0.78395	0.15072	0.46244	1.087
Mof_Mo	Mo	0.88421	0.73521	0.53492	1.133
Mof_Mo	Mo	0.02215	0.07372	0.71292	0.976
Mof_Mo	Mo	0.88864	0.24521	0.57726	1.148
Mof_Co	Co	0.62168	0.99755	0.63429	1.195
Mof_O 	O 	0.7647	0.2274	0.55354	-0.52
Mof_O 	O 	0.9091	0.8689	0.47756	-0.619
Mof_O 	O 	0.9086	0.1364	0.49853	-0.617
Mof_O 	O 	0.7616	0.7543	0.5097	-0.515
Mof_O 	O 	0.8839	0.0789	0.64234	-0.424
Mof_O 	O 	0.6591	0.8981	0.40911	-0.412
Mof_O 	O 	0.7954	0.0187	0.38482	-0.497
Mof_O 	O 	0.0334	0.9787	0.62373	-0.586
Mof_O 	O 	0.9697	0.1805	0.7789	-0.349
Mof_O 	O 	0.7875	0.9908	0.52787	-0.442
Mof_O 	O 	0.868	0.6379	0.626	-0.394
Mof_O 	O 	0.7563	0.963	0.65907	-0.342
Mof_O 	O 	0.8779	0.308	0.68135	-0.373
Mof_O 	O 	0.8824	0.8703	0.62495	-0.408
Mof_O 	O 	0.0154	0.3817	0.7656	-0.291
Mof_O 	O 	0.0139	0.2113	0.63668	-0.495
Mof_O 	O 	0.6557	0.1047	0.4398	-0.418
Mof_O 	O 	0.9607	0.7282	0.7428	-0.373
Mof_O 	O 	0.5218	0.9992	0.38348	-0.303
Mof_O 	O 	0.9805	0.9535	0.7692	-0.434
Mof_O 	O 	0.0095	0.7484	0.60096	-0.5
Mof_O 	O 	0.5978	0.9572	0.5205	-0.399
Mof_O 	O 	0.8716	0.5558	0.75491	-0.366
Mof_O 	O 	0.7984	0.7371	0.7214	-0.183
Mof_O 	O 	0.8906	0.336	0.82357	-0.324
Mof_P 	P 	0.32516	0.52274	0.11543	0.589
Mof_P 	P 	0.37737	0.83695	0.21266	0.555
Mof_P 	P 	0.43853	0.19642	0.263	0.542
Mof_P 	P 	0.11061	0.50978	0.94345	0.6
Mof_Mo	Mo	0.28455	0.64051	0.9333	1.168
Mof_Mo	Mo	0.51969	0.64264	0.19609	1.109
Mof_Mo	Mo	0.28395	0.34928	0.96244	1.152
Mof_Mo	Mo	0.38421	0.76479	0.03492	1.072
Mof_Mo	Mo	0.52215	0.42628	0.21292	1.104
Mof_Mo	Mo	0.38864	0.25479	0.07726	1.062
Mof_Co	Co	0.12168	0.50245	0.13429	1.177
Mof_O 	O 	0.2647	0.2726	0.05354	-0.532
Mof_O 	O 	0.4091	0.6311	0.97756	-0.611
Mof_O 	O 	0.4086	0.3636	0.99853	-0.6
Mof_O 	O 	0.2616	0.7457	0.0097	-0.523
Mof_O 	O 	0.3839	0.4211	0.14234	-0.421
Mof_O 	O 	0.1591	0.6019	0.90911	-0.417
Mof_O 	O 	0.2954	0.4813	0.88482	-0.489
Mof_O 	O 	0.5334	0.5213	0.12373	-0.622
Mof_O 	O 	0.4697	0.3195	0.2789	-0.376
Mof_O 	O 	0.2875	0.5092	0.02787	-0.48
Mof_O 	O 	0.368	0.8621	0.126	-0.387
Mof_O 	O 	0.2563	0.537	0.15907	-0.35
Mof_O 	O 	0.3779	0.192	0.18135	-0.373
Mof_O 	O 	0.3824	0.6297	0.12495	-0.416
Mof_O 	O 	0.5154	0.1183	0.2656	-0.28
Mof_O 	O 	0.5139	0.2887	0.13668	-0.485
Mof_O 	O 	0.1557	0.3953	0.9398	-0.405
Mof_O 	O 	0.4607	0.7718	0.2428	-0.391
Mof_O 	O 	0.0218	0.5008	0.88348	-0.336
Mof_O 	O 	0.4805	0.5465	0.2692	-0.491
Mof_O 	O 	0.5095	0.7516	0.10096	-0.484
Mof_O 	O 	0.0978	0.5428	0.0205	-0.434
Mof_O 	O 	0.3716	0.9442	0.25491	-0.356
Mof_O 	O 	0.2984	0.7629	0.2214	-0.183
Mof_O 	O 	0.3906	0.164	0.32357	-0.333
Mof_P 	P 	0.17484	0.02274	0.38457	0.568
Mof_P 	P 	0.12263	0.33695	0.28734	0.557
Mof_P 	P 	0.06147	0.69642	0.237	0.529
Mof_P 	P 	0.38939	0.00978	0.55655	0.553
Mof_Mo	Mo	0.21545	0.14051	0.5667	1.091
Mof_Mo	Mo	0.98031	0.14264	0.30391	1.144
Mof_Mo	Mo	0.21605	0.84928	0.53756	1.124
Mof_Mo	Mo	0.11579	0.26479	0.46508	1.089
Mof_Mo	Mo	0.97785	0.92628	0.28708	1.193
Mof_Mo	Mo	0.11136	0.75479	0.42274	1.093
Mof_Co	Co	0.37832	0.00245	0.36571	1.17
Mof_O 	O 	0.2353	0.7726	0.44646	-0.508
Mof_O 	O 	0.0909	0.1311	0.52244	-0.64
Mof_O 	O 	0.0914	0.8636	0.50147	-0.617
Mof_O 	O 	0.2384	0.2457	0.4903	-0.502
Mof_O 	O 	0.1161	0.9211	0.35766	-0.408
Mof_O 	O 	0.3409	0.1019	0.59089	-0.414
Mof_O 	O 	0.2046	0.9813	0.61518	-0.456
Mof_O 	O 	0.9666	0.0213	0.37627	-0.638
Mof_O 	O 	0.0303	0.8195	0.2211	-0.391
Mof_O 	O 	0.2125	0.0092	0.47213	-0.468
Mof_O 	O 	0.132	0.3621	0.374	-0.4
Mof_O 	O 	0.2437	0.037	0.34093	-0.357
Mof_O 	O 	0.1221	0.692	0.31865	-0.371
Mof_O 	O 	0.1176	0.1297	0.37505	-0.425
Mof_O 	O 	0.9846	0.6183	0.2344	-0.25
Mof_O 	O 	0.9861	0.7887	0.36332	-0.476
Mof_O 	O 	0.3443	0.8953	0.5602	-0.379
Mof_O 	O 	0.0393	0.2718	0.2572	-0.416
Mof_O 	O 	0.4782	0.0008	0.61652	-0.336
Mof_O 	O 	0.0195	0.0465	0.2308	-0.548
Mof_O 	O 	0.9905	0.2516	0.39904	-0.47
Mof_O 	O 	0.4022	0.0428	0.4795	-0.411
Mof_O 	O 	0.1284	0.4442	0.24509	-0.38
Mof_O 	O 	0.2016	0.2629	0.2786	-0.19
Mof_O 	O 	0.1094	0.664	0.17643	-0.33
Mof_Co	Co	0.5	0.5	-0	1.19
Mof_Co	Co	2.55115e-33	0	0.5	1.174
_end
