data_functionalizedCrystal
_audit_creation_method	'EQeq! by Chris Wilmer'
_symmetry_space_group_name_H-M	'P1'
_symmetry_Int_Tables_number	1
_symmetry_cell_setting	triclinic
loop_
_symmetry_equiv_pos_as_xyz
  x,y,z
_cell_length_a	12.108
_cell_length_b	13.115
_cell_length_c	14.53
_cell_angle_alpha	73.38
_cell_angle_beta	68.48
_cell_angle_gamma	79.95
loop_
_atom_site_label
_atom_site_type_symbol
_atom_site_fract_x
_atom_site_fract_y
_atom_site_fract_z
_atom_site_charge
Mof_Cu	Cu	0.21127	0.27021	0.28957	0.905
Mof_Cu	Cu	0.78873	0.72979	0.71043	0.907
Mof_Cu	Cu	0.5	0	-0	0.875
Mof_H 	H 	0.4866	0.0737	0.8338	0.282
Mof_H 	H 	0.6667	0.0999	0.0695	-0.019
Mof_H 	H 	0.8928	0.3934	0.2624	0.265
Mof_H 	H 	0.3925	0.1137	0.6021	0.073
Mof_H 	H 	0.139	0.3786	0.9246	0.034
Mof_H 	H 	0.9503	0.2607	0.297	-0.017
Mof_H 	H 	0.1654	0.0217	0.3735	0.009
Mof_H 	H 	0.2518	0.5118	0.2464	0.007
Mof_H 	H 	0.4928	0.2748	0.2255	0.018
Mof_H 	H 	0.8082	0.0199	0.3395	0.011
Mof_H 	H 	0.7519	0.1066	0.4027	0.016
Mof_H 	H 	0.9553	0.1478	0.9612	0.015
Mof_H 	H 	0.9068	0.2611	0.9118	0.04
Mof_H 	H 	0.6613	0.4962	0.114	0.016
Mof_H 	H 	0.6442	0.4704	0.2306	0.019
Mof_H 	H 	0.6897	0.3429	0.9582	0.278
Mof_H 	H 	0.6685	0.4417	0.0048	0.253
Mof_H 	H 	0.7955	0.4119	0.9326	0.284
Mof_H 	H 	0.7222	0.0772	0.7961	0.007
Mof_H 	H 	0.6539	0.3689	0.3517	0.335
Mof_H 	H 	0.587	0.2644	0.392	0.336
Mof_H 	H 	0.7118	0.2616	0.4026	0.331
Mof_H 	H 	0.9164	0.9985	0.2084	0.365
Mof_H 	H 	0.9	0.0085	0.1039	0.314
Mof_H 	H 	0.0057	0.0603	0.1067	0.315
Mof_H 	H 	0.5134	0.9263	0.1662	0.289
Mof_H 	H 	0.3333	0.9001	0.9305	0.042
Mof_H 	H 	0.1072	0.6066	0.7376	0.269
Mof_H 	H 	0.6075	0.8863	0.3979	0.042
Mof_H 	H 	0.861	0.6214	0.0754	0.064
Mof_H 	H 	0.0497	0.7393	0.703	-0.017
Mof_H 	H 	0.8346	0.9783	0.6265	0.026
Mof_H 	H 	0.7482	0.4882	0.7536	0.009
Mof_H 	H 	0.5072	0.7252	0.7745	0.019
Mof_H 	H 	0.1918	0.9801	0.6605	0.041
Mof_H 	H 	0.2481	0.8934	0.5973	0.031
Mof_H 	H 	0.0447	0.8522	0.0388	0.024
Mof_H 	H 	0.0932	0.7389	0.0882	0.047
Mof_H 	H 	0.3387	0.5038	0.886	0.013
Mof_H 	H 	0.3558	0.5296	0.7694	0.015
Mof_H 	H 	0.3103	0.6571	0.0418	0.363
Mof_H 	H 	0.3315	0.5583	0.9952	0.378
Mof_H 	H 	0.2045	0.5881	0.0674	0.37
Mof_H 	H 	0.2778	0.9228	0.2039	0.016
Mof_H 	H 	0.3461	0.6311	0.6483	0.339
Mof_H 	H 	0.413	0.7356	0.608	0.339
Mof_H 	H 	0.2882	0.7384	0.5974	0.335
Mof_H 	H 	0.0836	0.0015	0.7916	0.251
Mof_H 	H 	0.1	0.9915	0.8961	0.276
Mof_H 	H 	0.9943	0.9397	0.8933	0.274
Mof_C 	C 	0.69984	0.10413	0.99986	0.133
Mof_C 	C 	0.48466	0.02436	0.29882	0.282
Mof_C 	C 	0.9821	0.50169	0.10079	-0.054
Mof_C 	C 	0.42103	0.08227	0.46721	-0.029
Mof_C 	C 	0.48768	0.01346	0.40508	-0.084
Mof_C 	C 	0.43562	0.06758	0.56083	-0.084
Mof_C 	C 	0.08273	0.42775	0.95507	0.062
Mof_C 	C 	0.06689	0.42744	0.05592	-0.112
Mof_C 	C 	0.95682	0.51158	0.20881	0.373
Mof_C 	C 	0.9834	0.19231	0.31769	0.116
Mof_C 	C 	0.09905	0.06088	0.35961	0.094
Mof_C 	C 	0.32526	0.47261	0.23592	0.087
Mof_C 	C 	0.45468	0.34283	0.22503	0.089
Mof_C 	C 	0.14261	0.3502	0.11132	0.323
Mof_C 	C 	0.33315	0.16869	0.43702	0.3
Mof_C 	C 	0.81301	0.09229	0.34138	0.057
Mof_C 	C 	0.82798	0.21899	0.0667	-0.293
Mof_C 	C 	0.70681	0.33904	0.17108	-0.272
Mof_C 	C 	0.75479	0.31269	0.07607	0.33
Mof_C 	C 	0.79237	0.17052	0.24772	-0.294
Mof_C 	C 	0.84597	0.14669	0.15256	0.399
Mof_C 	C 	0.88387	0.19533	0.96307	0.072
Mof_C 	C 	0.72296	0.26755	0.25852	0.394
Mof_C 	C 	0.63394	0.44406	0.17847	0.052
Mof_C 	C 	0.72433	0.38386	0.98449	-0.766
Mof_C 	C 	0.7323	0.09283	0.85095	0.093
Mof_C 	C 	0.66361	0.29287	0.36028	-0.974
Mof_C 	C 	0.92418	0.04407	0.14192	-0.985
Mof_C 	C 	0.30016	0.89587	0.00014	0.053
Mof_C 	C 	0.51534	0.97564	0.70118	0.323
Mof_C 	C 	0.0179	0.49831	0.89921	-0.122
Mof_C 	C 	0.57897	0.91773	0.53279	-0.087
Mof_C 	C 	0.51232	0.98654	0.59492	0.013
Mof_C 	C 	0.56438	0.93242	0.43917	0.043
Mof_C 	C 	0.91727	0.57225	0.04493	-0.054
Mof_C 	C 	0.93311	0.57256	0.94408	-0.009
Mof_C 	C 	0.04318	0.48842	0.79119	0.398
Mof_C 	C 	0.0166	0.80769	0.68231	0.112
Mof_C 	C 	0.90095	0.93912	0.64039	0.104
Mof_C 	C 	0.67474	0.52739	0.76408	0.092
Mof_C 	C 	0.54532	0.65717	0.77497	0.094
Mof_C 	C 	0.85739	0.6498	0.88868	0.295
Mof_C 	C 	0.66685	0.83131	0.56298	0.325
Mof_C 	C 	0.18699	0.90771	0.65862	0.036
Mof_C 	C 	0.17202	0.78101	0.9333	-0.265
Mof_C 	C 	0.29319	0.66096	0.82892	-0.309
Mof_C 	C 	0.24521	0.68731	0.92393	0.433
Mof_C 	C 	0.20763	0.82948	0.75228	-0.265
Mof_C 	C 	0.15403	0.85331	0.84744	0.342
Mof_C 	C 	0.11613	0.80467	0.03693	0.02
Mof_C 	C 	0.27704	0.73245	0.74148	0.399
Mof_C 	C 	0.36606	0.55594	0.82153	0.073
Mof_C 	C 	0.27567	0.61614	0.01551	-1.085
Mof_C 	C 	0.2677	0.90717	0.14905	0.096
Mof_C 	C 	0.33639	0.70713	0.63972	-0.983
Mof_C 	C 	0.07582	0.95593	0.85808	-0.763
Mof_N 	N 	0.33865	0.36642	0.24547	-0.226
Mof_N 	N 	0.09075	0.16888	0.3264	-0.233
Mof_N 	N 	0.65277	0.06965	0.94706	-0.228
Mof_N 	N 	0.93098	0.10338	0.34303	-0.11
Mof_N 	N 	0.80133	0.14576	0.93929	-0.116
Mof_N 	N 	0.50806	0.43033	0.20388	-0.106
Mof_N 	N 	0.42556	0.51545	0.21043	-0.095
Mof_N 	N 	0.00509	0.01779	0.37004	-0.107
Mof_N 	N 	0.82416	0.13895	0.84208	-0.094
Mof_N 	N 	0.66135	0.63358	0.75453	-0.225
Mof_N 	N 	0.90925	0.83112	0.6736	-0.227
Mof_N 	N 	0.34723	0.93035	0.05294	-0.212
Mof_N 	N 	0.06902	0.89662	0.65697	-0.103
Mof_N 	N 	0.19867	0.85424	0.06071	-0.098
Mof_N 	N 	0.49194	0.56967	0.79612	-0.108
Mof_N 	N 	0.57444	0.48455	0.78957	-0.092
Mof_N 	N 	0.99491	0.98221	0.62996	-0.085
Mof_N 	N 	0.17584	0.86105	0.15792	-0.092
Mof_O 	O 	0.1417	0.36806	0.19215	-0.405
Mof_O 	O 	0.45206	0.09549	0.88558	-0.484
Mof_O 	O 	0.2966	0.15865	0.3683	-0.377
Mof_O 	O 	0.52998	0.10049	0.22951	-0.27
Mof_O 	O 	0.89478	0.446	0.28146	-0.481
Mof_O 	O 	0.29986	0.24242	0.48062	-0.268
Mof_O 	O 	0.43968	0.95042	0.28936	-0.247
Mof_O 	O 	0.99467	0.59089	0.21634	-0.258
Mof_O 	O 	0.20029	0.2731	0.07636	-0.296
Mof_O 	O 	0.8583	0.63194	0.80785	-0.39
Mof_O 	O 	0.54794	0.90451	0.11442	-0.483
Mof_O 	O 	0.7034	0.84135	0.6317	-0.376
Mof_O 	O 	0.47002	0.89951	0.77049	-0.268
Mof_O 	O 	0.10522	0.554	0.71854	-0.492
Mof_O 	O 	0.70014	0.75758	0.51938	-0.27
Mof_O 	O 	0.56032	0.04958	0.71064	-0.296
Mof_O 	O 	0.00533	0.40911	0.78366	-0.264
Mof_O 	O 	0.79971	0.7269	0.92364	-0.265
_end
