data_functionalizedCrystal
_audit_creation_method	'EQeq! by Chris Wilmer'
_symmetry_space_group_name_H-M	'P1'
_symmetry_Int_Tables_number	1
_symmetry_cell_setting	triclinic
loop_
_symmetry_equiv_pos_as_xyz
  x,y,z
_cell_length_a	10.31
_cell_length_b	20.002
_cell_length_c	22.95
_cell_angle_alpha	90
_cell_angle_beta	90
_cell_angle_gamma	90.49
loop_
_atom_site_label
_atom_site_type_symbol
_atom_site_fract_x
_atom_site_fract_y
_atom_site_fract_z
_atom_site_charge
Mof_Ag	Ag	0.47806	0.33983	0.33136	0.372
Mof_Ag	Ag	0.90383	0.88409	0.24219	0.379
Mof_Ag	Ag	0.90146	0.93443	0.51079	0.376
Mof_Ag	Ag	0.90807	0.42581	0.88205	0.384
Mof_Ag	Ag	0.5231	0.16854	0.56374	0.361
Mof_Ag	Ag	0.00548	0.33177	0.55334	0.361
Mof_Ag	Ag	0.40377	0.95257	0.37278	0.374
Mof_Ag	Ag	0.41091	0.87592	0.6486	0.402
Mof_Ag	Ag	0.08777	0.62151	0.65288	0.403
Mof_Ag	Ag	0.60366	0.55726	0.51496	0.392
Mof_Ag	Ag	0.39734	0.38329	0.7474	0.404
Mof_Ag	Ag	0.97656	0.17338	0.34909	0.368
Mof_Ag	Ag	0.52194	0.66017	0.83136	0.377
Mof_Ag	Ag	0.09617	0.11591	0.74219	0.381
Mof_Ag	Ag	0.09854	0.06557	0.01079	0.355
Mof_Ag	Ag	0.09193	0.57419	0.38205	0.379
Mof_Ag	Ag	0.4769	0.83146	0.06374	0.351
Mof_Ag	Ag	0.99452	0.66823	0.05334	0.35
Mof_Ag	Ag	0.59623	0.04743	0.87278	0.379
Mof_Ag	Ag	0.58909	0.12408	0.1486	0.401
Mof_Ag	Ag	0.91223	0.37849	0.15288	0.401
Mof_Ag	Ag	0.39634	0.44274	0.01496	0.37
Mof_Ag	Ag	0.60266	0.61671	0.2474	0.403
Mof_Ag	Ag	0.02344	0.82662	0.84909	0.375
Mof_H 	H 	0.4956	0.0652	0.4562	-0.022
Mof_H 	H 	0.3688	0.0469	0.4897	-0.009
Mof_H 	H 	0.3742	0.0182	0.5882	-0.022
Mof_H 	H 	0.5022	0.0199	0.624	-0.03
Mof_H 	H 	0.7081	0.046	0.57	-0.031
Mof_H 	H 	0.6983	0.0622	0.504	-0.027
Mof_H 	H 	0.6243	0.904	0.4555	-0.025
Mof_H 	H 	0.6499	0.9772	0.4354	-0.021
Mof_H 	H 	0.6692	0.9319	0.6022	-0.033
Mof_H 	H 	0.6348	0.8771	0.5567	-0.031
Mof_H 	H 	0.4206	0.8779	0.5098	-0.023
Mof_H 	H 	0.3263	0.9365	0.5224	-0.018
Mof_H 	H 	0.0568	0.6291	0.5176	-0.025
Mof_H 	H 	0.1676	0.5778	0.5266	-0.021
Mof_H 	H 	0.8536	0.5323	0.4379	-0.019
Mof_H 	H 	0.8739	0.6025	0.4655	-0.024
Mof_H 	H 	0.8042	0.4359	0.5029	-0.024
Mof_H 	H 	0.8011	0.4466	0.5701	-0.027
Mof_H 	H 	0.1421	0.4649	0.487	-0.011
Mof_H 	H 	0.0185	0.4472	0.451	-0.024
Mof_H 	H 	0.8258	0.5582	0.6089	-0.031
Mof_H 	H 	0.8534	0.6175	0.5668	-0.031
Mof_H 	H 	0.1283	0.4815	0.5903	-0.021
Mof_H 	H 	0.9967	0.4731	0.6227	-0.026
Mof_H 	H 	0.0624	0.6921	0.7725	-0.031
Mof_H 	H 	0.0275	0.7466	0.7268	-0.031
Mof_H 	H 	0.3134	0.7289	0.6438	-0.033
Mof_H 	H 	0.1876	0.7708	0.6469	-0.034
Mof_H 	H 	0.1556	0.8491	0.7222	-0.021
Mof_H 	H 	0.2636	0.8624	0.7679	-0.022
Mof_H 	H 	0.2569	0.6292	0.7652	-0.023
Mof_H 	H 	0.3555	0.6422	0.7149	-0.026
Mof_H 	H 	0.312	0.7778	0.8404	-0.027
Mof_H 	H 	0.2315	0.7118	0.8425	-0.027
Mof_H 	H 	0.467	0.7976	0.7629	-0.029
Mof_H 	H 	0.4847	0.7452	0.7135	-0.028
Mof_H 	H 	0.5692	0.6232	0.3867	-0.025
Mof_H 	H 	0.6644	0.5652	0.3741	-0.023
Mof_H 	H 	0.6043	0.4511	0.4083	-0.022
Mof_H 	H 	0.4728	0.4427	0.4404	-0.026
Mof_H 	H 	0.3235	0.5726	0.2913	-0.03
Mof_H 	H 	0.364	0.6287	0.3346	-0.028
Mof_H 	H 	0.3695	0.605	0.4369	-0.021
Mof_H 	H 	0.3321	0.5339	0.4586	-0.013
Mof_H 	H 	0.6007	0.4758	0.3028	-0.024
Mof_H 	H 	0.467	0.4807	0.2719	-0.027
Mof_H 	H 	0.2762	0.4493	0.3913	-0.022
Mof_H 	H 	0.2706	0.4653	0.3252	-0.029
Mof_H 	H 	0.3589	0.1519	0.6757	-0.029
Mof_H 	H 	0.2593	0.1376	0.6265	-0.025
Mof_H 	H 	0.4555	0.3078	0.6293	-0.032
Mof_H 	H 	0.4787	0.2544	0.6772	-0.033
Mof_H 	H 	0.313	0.2303	0.7497	-0.027
Mof_H 	H 	0.1832	0.2692	0.7484	-0.028
Mof_H 	H 	0.1527	0.3548	0.6724	-0.03
Mof_H 	H 	0.2606	0.3675	0.6263	-0.026
Mof_H 	H 	0.2237	0.2191	0.5523	-0.03
Mof_H 	H 	0.3023	0.2858	0.5528	-0.029
Mof_H 	H 	0.0538	0.1986	0.6257	-0.031
Mof_H 	H 	0.0317	0.2519	0.674	-0.028
Mof_H 	H 	0.88	0.036	0.406	0.01
Mof_H 	H 	0.024	0.062	0.445	-0.01
Mof_H 	H 	0.173	0.974	0.288	-0.007
Mof_H 	H 	0.135	0.9	0.329	-0.006
Mof_H 	H 	0.166	0.984	0.453	-0.008
Mof_H 	H 	0.157	0.909	0.427	-0.02
Mof_H 	H 	0.18	0.07	0.39	-0.02
Mof_H 	H 	0.213	0.06	0.322	-0.029
Mof_H 	H 	0.02	0.041	0.267	-0.021
Mof_H 	H 	0.88	0.036	0.306	-0.019
Mof_H 	H 	0.938	0.876	0.375	-0.03
Mof_H 	H 	0.843	0.925	0.366	-0.028
Mof_H 	H 	0.5044	0.9348	0.9562	-0.023
Mof_H 	H 	0.6312	0.9531	0.9897	-0.008
Mof_H 	H 	0.6258	0.9818	0.0882	-0.023
Mof_H 	H 	0.4978	0.9801	0.124	-0.03
Mof_H 	H 	0.2919	0.954	0.07	-0.031
Mof_H 	H 	0.3017	0.9378	0.004	-0.032
Mof_H 	H 	0.3757	0.096	0.9555	-0.025
Mof_H 	H 	0.3501	0.0228	0.9354	-0.023
Mof_H 	H 	0.3308	0.0681	0.1022	-0.032
Mof_H 	H 	0.3652	0.1229	0.0567	-0.033
Mof_H 	H 	0.5794	0.1221	0.0098	-0.024
Mof_H 	H 	0.6737	0.0635	0.0224	-0.02
Mof_H 	H 	0.9432	0.3709	0.0176	-0.026
Mof_H 	H 	0.8324	0.4222	0.0266	-0.022
Mof_H 	H 	0.1464	0.4677	0.9379	-0.021
Mof_H 	H 	0.1261	0.3975	0.9655	-0.023
Mof_H 	H 	0.1958	0.5641	0.0029	-0.029
Mof_H 	H 	0.1989	0.5534	0.0701	-0.027
Mof_H 	H 	0.8579	0.5351	0.987	-0.01
Mof_H 	H 	0.9815	0.5528	0.951	-0.026
Mof_H 	H 	0.1742	0.4418	0.1089	-0.03
Mof_H 	H 	0.1466	0.3825	0.0668	-0.032
Mof_H 	H 	0.8717	0.5185	0.0903	-0.022
Mof_H 	H 	0.0033	0.5269	0.1227	-0.024
Mof_H 	H 	0.9376	0.3079	0.2725	-0.031
Mof_H 	H 	0.9725	0.2534	0.2268	-0.032
Mof_H 	H 	0.6866	0.2711	0.1438	-0.034
Mof_H 	H 	0.8124	0.2292	0.1469	-0.035
Mof_H 	H 	0.8444	0.1509	0.2222	-0.021
Mof_H 	H 	0.7364	0.1376	0.2679	-0.022
Mof_H 	H 	0.7431	0.3708	0.2652	-0.023
Mof_H 	H 	0.6445	0.3578	0.2149	-0.026
Mof_H 	H 	0.688	0.2222	0.3404	-0.029
Mof_H 	H 	0.7685	0.2882	0.3425	-0.029
Mof_H 	H 	0.533	0.2024	0.2629	-0.029
Mof_H 	H 	0.5153	0.2548	0.2135	-0.028
Mof_H 	H 	0.4308	0.3768	0.8867	-0.021
Mof_H 	H 	0.3356	0.4348	0.8741	-0.021
Mof_H 	H 	0.3957	0.5489	0.9083	-0.018
Mof_H 	H 	0.5272	0.5573	0.9404	-0.021
Mof_H 	H 	0.6765	0.4274	0.7913	-0.03
Mof_H 	H 	0.636	0.3713	0.8346	-0.027
Mof_H 	H 	0.6305	0.395	0.9369	-0.016
Mof_H 	H 	0.6679	0.4661	0.9586	-0.007
Mof_H 	H 	0.3993	0.5242	0.8028	-0.024
Mof_H 	H 	0.533	0.5193	0.7719	-0.027
Mof_H 	H 	0.7238	0.5507	0.8913	-0.02
Mof_H 	H 	0.7294	0.5347	0.8252	-0.028
Mof_H 	H 	0.6411	0.8481	0.1757	-0.029
Mof_H 	H 	0.7407	0.8624	0.1265	-0.026
Mof_H 	H 	0.5445	0.6922	0.1293	-0.033
Mof_H 	H 	0.5213	0.7456	0.1772	-0.033
Mof_H 	H 	0.687	0.7697	0.2497	-0.027
Mof_H 	H 	0.8168	0.7308	0.2484	-0.029
Mof_H 	H 	0.8473	0.6452	0.1724	-0.03
Mof_H 	H 	0.7394	0.6325	0.1263	-0.027
Mof_H 	H 	0.7763	0.7809	0.0523	-0.033
Mof_H 	H 	0.6977	0.7142	0.0528	-0.033
Mof_H 	H 	0.9462	0.8014	0.1257	-0.032
Mof_H 	H 	0.9683	0.7481	0.174	-0.028
Mof_H 	H 	0.12	0.964	0.906	0.013
Mof_H 	H 	0.976	0.938	0.945	-0.005
Mof_H 	H 	0.827	0.026	0.788	-0.007
Mof_H 	H 	0.865	0.1	0.829	-0.005
Mof_H 	H 	0.834	0.016	0.953	-0.003
Mof_H 	H 	0.843	0.091	0.927	-0.015
Mof_H 	H 	0.82	0.93	0.89	-0.018
Mof_H 	H 	0.787	0.94	0.822	-0.028
Mof_H 	H 	0.98	0.959	0.767	-0.021
Mof_H 	H 	0.12	0.964	0.806	-0.018
Mof_H 	H 	0.062	0.124	0.875	-0.027
Mof_H 	H 	0.157	0.075	0.866	-0.026
Mof_C 	C 	0.4596	0.0374	0.4863	0.023
Mof_C 	C 	0.4655	0.0093	0.5866	0.043
Mof_C 	C 	0.6625	0.0353	0.5347	0.044
Mof_C 	C 	0.6132	0.9501	0.4658	0.039
Mof_C 	C 	0.6244	0.9235	0.5663	0.044
Mof_C 	C 	0.416	0.9247	0.5188	0.037
Mof_C 	C 	0.0753	0.5826	0.5239	0.039
Mof_C 	C 	0.8881	0.5555	0.4711	0.028
Mof_C 	C 	0.8412	0.4612	0.5345	0.033
Mof_C 	C 	0.0504	0.4721	0.4838	0.035
Mof_C 	C 	0.8691	0.5709	0.5735	0.037
Mof_C 	C 	0.0365	0.4884	0.5873	0.039
Mof_C 	C 	0.0976	0.7267	0.748	0.039
Mof_C 	C 	0.253	0.7495	0.6699	0.052
Mof_C 	C 	0.2226	0.8284	0.7447	0.031
Mof_C 	C 	0.2949	0.6631	0.7408	0.033
Mof_C 	C 	0.2678	0.745	0.817	0.035
Mof_C 	C 	0.4224	0.7653	0.7391	0.03
Mof_C 	C 	0.5743	0.5764	0.3774	0.039
Mof_C 	C 	0.5165	0.4667	0.4098	0.047
Mof_C 	C 	0.3696	0.5817	0.3269	0.039
Mof_C 	C 	0.3745	0.5583	0.4279	0.027
Mof_C 	C 	0.5124	0.4897	0.3077	0.035
Mof_C 	C 	0.3173	0.4742	0.3606	0.041
Mof_C 	C 	0.2952	0.172	0.6508	0.047
Mof_C 	C 	0.4142	0.2739	0.6525	0.047
Mof_C 	C 	0.2498	0.2502	0.7245	0.034
Mof_C 	C 	0.2192	0.3338	0.6497	0.05
Mof_C 	C 	0.2618	0.2526	0.577	0.047
Mof_C 	C 	0.0961	0.2314	0.6498	0.034
Mof_C 	C 	0.9651	0.0377	0.4134	-0.013
Mof_C 	C 	0.1222	0.9388	0.3185	-0.004
Mof_C 	C 	0.1284	0.9548	0.4224	0.019
Mof_C 	C 	0.1578	0.0485	0.3599	0.042
Mof_C 	C 	0.964	0.0229	0.3081	0.027
Mof_C 	C 	0.9267	0.9279	0.3713	0.045
Mof_C 	C 	0.5404	0.9626	0.9863	0.037
Mof_C 	C 	0.5345	0.9907	0.0866	0.042
Mof_C 	C 	0.3375	0.9647	0.0347	0.044
Mof_C 	C 	0.3868	0.0499	0.9658	0.055
Mof_C 	C 	0.3756	0.0765	0.0663	0.043
Mof_C 	C 	0.584	0.0753	0.0188	0.024
Mof_C 	C 	0.9247	0.4174	0.0239	0.026
Mof_C 	C 	0.1119	0.4445	0.9711	0.042
Mof_C 	C 	0.1588	0.5388	0.0345	0.033
Mof_C 	C 	0.9496	0.5279	0.9838	0.05
Mof_C 	C 	0.1309	0.4291	0.0735	0.037
Mof_C 	C 	0.9635	0.5116	0.0873	0.037
Mof_C 	C 	0.9024	0.2733	0.248	0.04
Mof_C 	C 	0.747	0.2505	0.1699	0.053
Mof_C 	C 	0.7774	0.1716	0.2447	0.031
Mof_C 	C 	0.7051	0.3369	0.2408	0.034
Mof_C 	C 	0.7322	0.255	0.317	0.036
Mof_C 	C 	0.5776	0.2347	0.2391	0.03
Mof_C 	C 	0.4257	0.4236	0.8774	0.037
Mof_C 	C 	0.4835	0.5333	0.9098	0.044
Mof_C 	C 	0.6304	0.4183	0.8269	0.039
Mof_C 	C 	0.6255	0.4417	0.9279	0.024
Mof_C 	C 	0.4876	0.5103	0.8077	0.035
Mof_C 	C 	0.6827	0.5258	0.8606	0.041
Mof_C 	C 	0.7048	0.828	0.1508	0.048
Mof_C 	C 	0.5858	0.7261	0.1525	0.048
Mof_C 	C 	0.7502	0.7498	0.2245	0.035
Mof_C 	C 	0.7808	0.6662	0.1497	0.05
Mof_C 	C 	0.7382	0.7474	0.077	0.049
Mof_C 	C 	0.9039	0.7686	0.1498	0.035
Mof_C 	C 	0.0349	0.9623	0.9134	-0.015
Mof_C 	C 	0.8778	0.0612	0.8185	-0.005
Mof_C 	C 	0.8716	0.0452	0.9224	0.016
Mof_C 	C 	0.8422	0.9515	0.8599	0.04
Mof_C 	C 	0.036	0.9771	0.8081	0.027
Mof_C 	C 	0.0733	0.0721	0.8713	0.044
Mof_N 	N 	0.5255	0.051	0.5421	-0.166
Mof_N 	N 	0.6815	0.9643	0.5208	-0.17
Mof_N 	N 	0.4775	0.9645	0.4712	-0.162
Mof_N 	N 	0.4849	0.9378	0.5737	-0.178
Mof_N 	N 	0.0258	0.5434	0.4755	-0.165
Mof_N 	N 	0.8173	0.5322	0.5255	-0.17
Mof_N 	N 	0.985	0.4495	0.5373	-0.164
Mof_N 	N 	0.0126	0.5598	0.5793	-0.178
Mof_N 	N 	0.3199	0.799	0.7041	-0.18
Mof_N 	N 	0.3616	0.7129	0.7769	-0.167
Mof_N 	N 	0.1919	0.6973	0.7067	-0.178
Mof_N 	N 	0.1628	0.7772	0.7839	-0.17
Mof_N 	N 	0.5095	0.563	0.3198	-0.18
Mof_N 	N 	0.4529	0.4507	0.3546	-0.174
Mof_N 	N 	0.5173	0.5373	0.4247	-0.172
Mof_N 	N 	0.3102	0.545	0.3742	-0.168
Mof_N 	N 	0.3603	0.2224	0.6141	-0.175
Mof_N 	N 	0.1604	0.2836	0.612	-0.172
Mof_N 	N 	0.1932	0.1989	0.6866	-0.174
Mof_N 	N 	0.3133	0.3045	0.6884	-0.18
Mof_N 	N 	0.0207	0.0611	0.3562	-0.164
Mof_N 	N 	0.9844	0.9497	0.3161	-0.168
Mof_N 	N 	0.1871	0.9774	0.3673	-0.163
Mof_N 	N 	0.9849	0.9649	0.4212	-0.161
Mof_N 	N 	0.4745	0.949	0.0421	-0.172
Mof_N 	N 	0.3185	0.0357	0.0208	-0.176
Mof_N 	N 	0.5225	0.0355	0.9712	-0.158
Mof_N 	N 	0.5151	0.0622	0.0737	-0.178
Mof_N 	N 	0.9742	0.4566	0.9755	-0.161
Mof_N 	N 	0.1827	0.4678	0.0255	-0.175
Mof_N 	N 	0.015	0.5505	0.0373	-0.17
Mof_N 	N 	0.9874	0.4402	0.0793	-0.177
Mof_N 	N 	0.6801	0.201	0.2041	-0.18
Mof_N 	N 	0.6384	0.2871	0.2769	-0.167
Mof_N 	N 	0.8081	0.3027	0.2067	-0.178
Mof_N 	N 	0.8372	0.2228	0.2839	-0.17
Mof_N 	N 	0.4905	0.437	0.8198	-0.18
Mof_N 	N 	0.5471	0.5493	0.8546	-0.173
Mof_N 	N 	0.4827	0.4627	0.9247	-0.166
Mof_N 	N 	0.6898	0.455	0.8742	-0.167
Mof_N 	N 	0.6397	0.7776	0.1141	-0.175
Mof_N 	N 	0.8396	0.7164	0.112	-0.173
Mof_N 	N 	0.8068	0.8011	0.1866	-0.174
Mof_N 	N 	0.6867	0.6955	0.1884	-0.18
Mof_N 	N 	0.9793	0.9389	0.8562	-0.164
Mof_N 	N 	0.0156	0.0503	0.8161	-0.168
Mof_N 	N 	0.8129	0.0226	0.8673	-0.162
Mof_N 	N 	0.0151	0.0351	0.9212	-0.156
_end
