data_functionalizedCrystal
_audit_creation_method	'EQeq! by Chris Wilmer'
_symmetry_space_group_name_H-M	'P1'
_symmetry_Int_Tables_number	1
_symmetry_cell_setting	triclinic
loop_
_symmetry_equiv_pos_as_xyz
  x,y,z
_cell_length_a	23.7851
_cell_length_b	23.7851
_cell_length_c	16.8399
_cell_angle_alpha	90
_cell_angle_beta	90
_cell_angle_gamma	90
loop_
_atom_site_label
_atom_site_type_symbol
_atom_site_fract_x
_atom_site_fract_y
_atom_site_fract_z
_atom_site_charge
Mof_O 	O 	0.44234	0.15082	0.0797	-0.675
Mof_O 	O 	0.39822	0.0836	0.1506	-0.737
Mof_C 	C 	0.407	0.1342	0.1295	0.751
Mof_C 	C 	0.3705	0.1773	0.1666	-0.686
Mof_C 	C 	0.3363	0.1629	0.2291	0.857
Mof_H 	H 	0.3366	0.1254	0.2488	-0.172
Mof_C 	C 	0.3009	0.203	0.2637	-1.042
Mof_H 	H 	0.2792	0.1933	0.3091	1.257
Mof_C 	C 	0.2974	0.2558	0.2331	0.653
Mof_C 	C 	0.3324	0.2698	0.1713	-1.073
Mof_C 	C 	0.3702	0.2315	0.1385	0.882
Mof_H 	H 	0.3952	0.2427	0.0974	-0.148
Mof_F 	F 	0.3412	0.3722	0.1731	-0.09
Mof_F 	F 	0.3661	0.3345	0.0636	-0.008
Mof_C 	C 	0.3306	0.3246	0.126	-1.048
Mof_F 	F 	0.2801	0.3434	0.0934	-0.034
Mof_H 	H 	0.3309	0.3068	0.1503	1.335
Mof_F 	F 	0.2755	0.1267	0.361	-0.09
Mof_F 	F 	0.2092	0.1788	0.3232	-0.114
Mof_F 	F 	0.2704	0.2095	0.4045	-0.095
Mof_C 	C 	0.2672	0.1796	0.3323	-0.949
Mof_O 	O 	0.55766	0.84918	0.0797	-0.661
Mof_O 	O 	0.60178	0.9164	0.1506	-0.619
Mof_C 	C 	0.593	0.8658	0.1295	0.731
Mof_C 	C 	0.6295	0.8227	0.1666	-0.637
Mof_C 	C 	0.6637	0.8371	0.2291	0.838
Mof_H 	H 	0.6634	0.8746	0.2488	-0.108
Mof_C 	C 	0.6991	0.797	0.2637	-1.004
Mof_H 	H 	0.7208	0.8067	0.3091	1.255
Mof_C 	C 	0.7026	0.7442	0.2331	0.646
Mof_C 	C 	0.6676	0.7302	0.1713	-1.064
Mof_C 	C 	0.6298	0.7685	0.1385	0.869
Mof_H 	H 	0.6048	0.7573	0.0974	-0.14
Mof_F 	F 	0.6588	0.6278	0.1731	-0.084
Mof_F 	F 	0.6339	0.6655	0.0636	-0.002
Mof_C 	C 	0.6694	0.6754	0.126	-1.071
Mof_F 	F 	0.7199	0.6566	0.0934	-0.02
Mof_H 	H 	0.6691	0.6932	0.1503	1.348
Mof_F 	F 	0.7245	0.8733	0.361	0.005
Mof_F 	F 	0.7908	0.8212	0.3232	-0.034
Mof_F 	F 	0.7296	0.7905	0.4045	-0.064
Mof_C 	C 	0.7328	0.8204	0.3323	-0.955
Mof_O 	O 	0.84918	0.44234	0.5797	-0.653
Mof_O 	O 	0.9164	0.39822	0.6506	-0.621
Mof_C 	C 	0.8658	0.407	0.6295	0.731
Mof_C 	C 	0.8227	0.3705	0.6666	-0.638
Mof_C 	C 	0.8371	0.3363	0.7291	0.839
Mof_H 	H 	0.8746	0.3366	0.7488	-0.113
Mof_C 	C 	0.797	0.3009	0.7637	-1.011
Mof_H 	H 	0.8067	0.2792	0.8091	1.261
Mof_C 	C 	0.7442	0.2974	0.7331	0.646
Mof_C 	C 	0.7302	0.3324	0.6713	-1.063
Mof_C 	C 	0.7685	0.3702	0.6385	0.87
Mof_H 	H 	0.7573	0.3952	0.5974	-0.135
Mof_F 	F 	0.6278	0.3412	0.6731	-0.083
Mof_F 	F 	0.6655	0.3661	0.5636	0.008
Mof_C 	C 	0.6754	0.3306	0.626	-1.072
Mof_F 	F 	0.6566	0.2801	0.5934	-0.022
Mof_H 	H 	0.6932	0.3309	0.6503	1.35
Mof_F 	F 	0.8733	0.2755	0.861	-0.008
Mof_F 	F 	0.8212	0.2092	0.8232	-0.066
Mof_F 	F 	0.7905	0.2704	0.9045	-0.067
Mof_C 	C 	0.8204	0.2672	0.8323	-0.962
Mof_O 	O 	0.15082	0.55766	0.5797	-0.664
Mof_O 	O 	0.0836	0.60178	0.6506	-0.728
Mof_C 	C 	0.1342	0.593	0.6295	0.75
Mof_C 	C 	0.1773	0.6295	0.6666	-0.673
Mof_C 	C 	0.1629	0.6637	0.7291	0.853
Mof_H 	H 	0.1254	0.6634	0.7488	-0.161
Mof_C 	C 	0.203	0.6991	0.7637	-1.028
Mof_H 	H 	0.1933	0.7208	0.8091	1.25
Mof_C 	C 	0.2558	0.7026	0.7331	0.651
Mof_C 	C 	0.2698	0.6676	0.6713	-1.066
Mof_C 	C 	0.2315	0.6298	0.6385	0.878
Mof_H 	H 	0.2427	0.6048	0.5974	-0.14
Mof_F 	F 	0.3722	0.6588	0.6731	-0.083
Mof_F 	F 	0.3345	0.6339	0.5636	0.005
Mof_C 	C 	0.3246	0.6694	0.626	-1.05
Mof_F 	F 	0.3434	0.7199	0.5934	-0.017
Mof_H 	H 	0.3068	0.6691	0.6503	1.335
Mof_F 	F 	0.1267	0.7245	0.861	-0.066
Mof_F 	F 	0.1788	0.7908	0.8232	-0.072
Mof_F 	F 	0.2095	0.7296	0.9045	-0.076
Mof_C 	C 	0.1796	0.7328	0.8323	-0.943
Mof_O 	O 	0.55766	0.15082	0.9203	-0.652
Mof_O 	O 	0.60178	0.0836	0.8494	-0.721
Mof_C 	C 	0.593	0.1342	0.8705	0.749
Mof_C 	C 	0.6295	0.1773	0.8334	-0.669
Mof_C 	C 	0.6637	0.1629	0.7709	0.853
Mof_H 	H 	0.6634	0.1254	0.7512	-0.161
Mof_C 	C 	0.6991	0.203	0.7363	-1.029
Mof_H 	H 	0.7208	0.1933	0.6909	1.254
Mof_C 	C 	0.7026	0.2558	0.7669	0.651
Mof_C 	C 	0.6676	0.2698	0.8287	-1.064
Mof_C 	C 	0.6298	0.2315	0.8615	0.877
Mof_H 	H 	0.6048	0.2427	0.9026	-0.134
Mof_F 	F 	0.6588	0.3722	0.8269	-0.081
Mof_F 	F 	0.6339	0.3345	0.9364	0.016
Mof_C 	C 	0.6694	0.3246	0.874	-1.051
Mof_F 	F 	0.7199	0.3434	0.9066	-0.01
Mof_H 	H 	0.6691	0.3068	0.8497	1.335
Mof_F 	F 	0.7245	0.1267	0.639	-0.069
Mof_F 	F 	0.7908	0.1788	0.6768	-0.074
Mof_F 	F 	0.7296	0.2095	0.5955	-0.083
Mof_C 	C 	0.7328	0.1796	0.6677	-0.948
Mof_O 	O 	0.44234	0.84918	0.9203	-0.641
Mof_O 	O 	0.39822	0.9164	0.8494	-0.616
Mof_C 	C 	0.407	0.8658	0.8705	0.73
Mof_C 	C 	0.3705	0.8227	0.8334	-0.635
Mof_C 	C 	0.3363	0.8371	0.7709	0.84
Mof_H 	H 	0.3366	0.8746	0.7512	-0.113
Mof_C 	C 	0.3009	0.797	0.7363	-1.012
Mof_H 	H 	0.2792	0.8067	0.6909	1.265
Mof_C 	C 	0.2974	0.7442	0.7669	0.646
Mof_C 	C 	0.3324	0.7302	0.8287	-1.061
Mof_C 	C 	0.3702	0.7685	0.8615	0.869
Mof_H 	H 	0.3952	0.7573	0.9026	-0.129
Mof_F 	F 	0.3412	0.6278	0.8269	-0.081
Mof_F 	F 	0.3661	0.6655	0.9364	0.019
Mof_C 	C 	0.3306	0.6754	0.874	-1.073
Mof_F 	F 	0.2801	0.6566	0.9066	-0.015
Mof_H 	H 	0.3309	0.6932	0.8497	1.35
Mof_F 	F 	0.2755	0.8733	0.639	-0.012
Mof_F 	F 	0.2092	0.8212	0.6768	-0.068
Mof_F 	F 	0.2704	0.7905	0.5955	-0.074
Mof_C 	C 	0.2672	0.8204	0.6677	-0.966
Mof_O 	O 	0.15082	0.44234	0.4203	-0.666
Mof_O 	O 	0.0836	0.39822	0.3494	-0.735
Mof_C 	C 	0.1342	0.407	0.3705	0.751
Mof_C 	C 	0.1773	0.3705	0.3334	-0.682
Mof_C 	C 	0.1629	0.3363	0.2709	0.858
Mof_H 	H 	0.1254	0.3366	0.2512	-0.172
Mof_C 	C 	0.203	0.3009	0.2363	-1.043
Mof_H 	H 	0.1933	0.2792	0.1909	1.26
Mof_C 	C 	0.2558	0.2974	0.2669	0.653
Mof_C 	C 	0.2698	0.3324	0.3287	-1.071
Mof_C 	C 	0.2315	0.3702	0.3615	0.881
Mof_H 	H 	0.2427	0.3952	0.4026	-0.142
Mof_F 	F 	0.3722	0.3412	0.3269	-0.088
Mof_F 	F 	0.3345	0.3661	0.4364	0.003
Mof_C 	C 	0.3246	0.3306	0.374	-1.049
Mof_F 	F 	0.3434	0.2801	0.4066	-0.027
Mof_H 	H 	0.3068	0.3309	0.3497	1.335
Mof_F 	F 	0.1267	0.2755	0.139	-0.094
Mof_F 	F 	0.1788	0.2092	0.1768	-0.116
Mof_F 	F 	0.2095	0.2704	0.0955	-0.101
Mof_C 	C 	0.1796	0.2672	0.1677	-0.953
Mof_O 	O 	0.84918	0.55766	0.4203	-0.653
Mof_O 	O 	0.9164	0.60178	0.3494	-0.616
Mof_C 	C 	0.8658	0.593	0.3705	0.73
Mof_C 	C 	0.8227	0.6295	0.3334	-0.634
Mof_C 	C 	0.8371	0.6637	0.2709	0.838
Mof_H 	H 	0.8746	0.6634	0.2512	-0.108
Mof_C 	C 	0.797	0.6991	0.2363	-1.006
Mof_H 	H 	0.8067	0.7208	0.1909	1.259
Mof_C 	C 	0.7442	0.7026	0.2669	0.646
Mof_C 	C 	0.7302	0.6676	0.3287	-1.061
Mof_C 	C 	0.7685	0.6298	0.3615	0.868
Mof_H 	H 	0.7573	0.6048	0.4026	-0.134
Mof_F 	F 	0.6278	0.6588	0.3269	-0.082
Mof_F 	F 	0.6655	0.6339	0.4364	0.01
Mof_C 	C 	0.6754	0.6694	0.374	-1.071
Mof_F 	F 	0.6566	0.7199	0.4066	-0.013
Mof_H 	H 	0.6932	0.6691	0.3497	1.348
Mof_F 	F 	0.8733	0.7245	0.139	-0
Mof_F 	F 	0.8212	0.7908	0.1768	-0.036
Mof_F 	F 	0.7905	0.7296	0.0955	-0.071
Mof_C 	C 	0.8204	0.7328	0.1677	-0.96
Mof_O 	O 	0.55766	0.84918	0.9203	-0.64
Mof_O 	O 	0.60178	0.9164	0.8494	-0.61
Mof_C 	C 	0.593	0.8658	0.8705	0.729
Mof_C 	C 	0.6295	0.8227	0.8334	-0.628
Mof_C 	C 	0.6637	0.8371	0.7709	0.836
Mof_H 	H 	0.6634	0.8746	0.7512	-0.106
Mof_C 	C 	0.6991	0.797	0.7363	-1.002
Mof_H 	H 	0.7208	0.8067	0.6909	1.258
Mof_C 	C 	0.7026	0.7442	0.7669	0.645
Mof_C 	C 	0.6676	0.7302	0.8287	-1.058
Mof_C 	C 	0.6298	0.7685	0.8615	0.867
Mof_H 	H 	0.6048	0.7573	0.9026	-0.128
Mof_F 	F 	0.6588	0.6278	0.8269	-0.078
Mof_F 	F 	0.6339	0.6655	0.9364	0.021
Mof_C 	C 	0.6694	0.6754	0.874	-1.073
Mof_F 	F 	0.7199	0.6566	0.9066	-0.005
Mof_H 	H 	0.6691	0.6932	0.8497	1.349
Mof_F 	F 	0.7245	0.8733	0.639	0.007
Mof_F 	F 	0.7908	0.8212	0.6768	-0.031
Mof_F 	F 	0.7296	0.7905	0.5955	-0.063
Mof_C 	C 	0.7328	0.8204	0.6677	-0.96
Mof_O 	O 	0.44234	0.15082	0.9203	-0.653
Mof_O 	O 	0.39822	0.0836	0.8494	-0.728
Mof_C 	C 	0.407	0.1342	0.8705	0.75
Mof_C 	C 	0.3705	0.1773	0.8334	-0.676
Mof_C 	C 	0.3363	0.1629	0.7709	0.856
Mof_H 	H 	0.3366	0.1254	0.7512	-0.169
Mof_C 	C 	0.3009	0.203	0.7363	-1.04
Mof_H 	H 	0.2792	0.1933	0.6909	1.26
Mof_C 	C 	0.2974	0.2558	0.7669	0.652
Mof_C 	C 	0.3324	0.2698	0.8287	-1.067
Mof_C 	C 	0.3702	0.2315	0.8615	0.879
Mof_H 	H 	0.3952	0.2427	0.9026	-0.136
Mof_F 	F 	0.3412	0.3722	0.8269	-0.084
Mof_F 	F 	0.3661	0.3345	0.9364	0.015
Mof_C 	C 	0.3306	0.3246	0.874	-1.051
Mof_F 	F 	0.2801	0.3434	0.9066	-0.019
Mof_H 	H 	0.3309	0.3068	0.8497	1.336
Mof_F 	F 	0.2755	0.1267	0.639	-0.088
Mof_F 	F 	0.2092	0.1788	0.6768	-0.111
Mof_F 	F 	0.2704	0.2095	0.5955	-0.094
Mof_C 	C 	0.2672	0.1796	0.6677	-0.954
Mof_O 	O 	0.15082	0.55766	0.4203	-0.665
Mof_O 	O 	0.0836	0.60178	0.3494	-0.729
Mof_C 	C 	0.1342	0.593	0.3705	0.75
Mof_C 	C 	0.1773	0.6295	0.3334	-0.675
Mof_C 	C 	0.1629	0.6637	0.2709	0.854
Mof_H 	H 	0.1254	0.6634	0.2512	-0.164
Mof_C 	C 	0.203	0.6991	0.2363	-1.033
Mof_H 	H 	0.1933	0.7208	0.1909	1.254
Mof_C 	C 	0.2558	0.7026	0.2669	0.652
Mof_C 	C 	0.2698	0.6676	0.3287	-1.067
Mof_C 	C 	0.2315	0.6298	0.3615	0.879
Mof_H 	H 	0.2427	0.6048	0.4026	-0.141
Mof_F 	F 	0.3722	0.6588	0.3269	-0.085
Mof_F 	F 	0.3345	0.6339	0.4364	0.005
Mof_C 	C 	0.3246	0.6694	0.374	-1.049
Mof_F 	F 	0.3434	0.7199	0.4066	-0.017
Mof_H 	H 	0.3068	0.6691	0.3497	1.334
Mof_F 	F 	0.1267	0.7245	0.139	-0.076
Mof_F 	F 	0.1788	0.7908	0.1768	-0.079
Mof_F 	F 	0.2095	0.7296	0.0955	-0.091
Mof_C 	C 	0.1796	0.7328	0.1677	-0.947
Mof_O 	O 	0.84918	0.44234	0.4203	-0.654
Mof_O 	O 	0.9164	0.39822	0.3494	-0.622
Mof_C 	C 	0.8658	0.407	0.3705	0.73
Mof_C 	C 	0.8227	0.3705	0.3334	-0.64
Mof_C 	C 	0.8371	0.3363	0.2709	0.841
Mof_H 	H 	0.8746	0.3366	0.2512	-0.116
Mof_C 	C 	0.797	0.3009	0.2363	-1.016
Mof_H 	H 	0.8067	0.2792	0.1909	1.265
Mof_C 	C 	0.7442	0.2974	0.2669	0.647
Mof_C 	C 	0.7302	0.3324	0.3287	-1.064
Mof_C 	C 	0.7685	0.3702	0.3615	0.87
Mof_H 	H 	0.7573	0.3952	0.4026	-0.135
Mof_F 	F 	0.6278	0.3412	0.3269	-0.085
Mof_F 	F 	0.6655	0.3661	0.4364	0.008
Mof_C 	C 	0.6754	0.3306	0.374	-1.071
Mof_F 	F 	0.6566	0.2801	0.4066	-0.023
Mof_H 	H 	0.6932	0.3309	0.3497	1.349
Mof_F 	F 	0.8733	0.2755	0.139	-0.018
Mof_F 	F 	0.8212	0.2092	0.1768	-0.073
Mof_F 	F 	0.7905	0.2704	0.0955	-0.082
Mof_C 	C 	0.8204	0.2672	0.1677	-0.966
Mof_O 	O 	0.44234	0.84918	0.0797	-0.662
Mof_O 	O 	0.39822	0.9164	0.1506	-0.625
Mof_C 	C 	0.407	0.8658	0.1295	0.732
Mof_C 	C 	0.3705	0.8227	0.1666	-0.644
Mof_C 	C 	0.3363	0.8371	0.2291	0.841
Mof_H 	H 	0.3366	0.8746	0.2488	-0.116
Mof_C 	C 	0.3009	0.797	0.2637	-1.014
Mof_H 	H 	0.2792	0.8067	0.3091	1.262
Mof_C 	C 	0.2974	0.7442	0.2331	0.647
Mof_C 	C 	0.3324	0.7302	0.1713	-1.067
Mof_C 	C 	0.3702	0.7685	0.1385	0.871
Mof_H 	H 	0.3952	0.7573	0.0974	-0.141
Mof_F 	F 	0.3412	0.6278	0.1731	-0.087
Mof_F 	F 	0.3661	0.6655	0.0636	-0.003
Mof_C 	C 	0.3306	0.6754	0.126	-1.07
Mof_F 	F 	0.2801	0.6566	0.0934	-0.03
Mof_H 	H 	0.3309	0.6932	0.1503	1.349
Mof_F 	F 	0.2755	0.8733	0.361	-0.014
Mof_F 	F 	0.2092	0.8212	0.3232	-0.071
Mof_F 	F 	0.2704	0.7905	0.4045	-0.075
Mof_C 	C 	0.2672	0.8204	0.3323	-0.961
Mof_O 	O 	0.55766	0.15082	0.0797	-0.673
Mof_O 	O 	0.60178	0.0836	0.1506	-0.73
Mof_C 	C 	0.593	0.1342	0.1295	0.751
Mof_C 	C 	0.6295	0.1773	0.1666	-0.678
Mof_C 	C 	0.6637	0.1629	0.2291	0.854
Mof_H 	H 	0.6634	0.1254	0.2488	-0.164
Mof_C 	C 	0.6991	0.203	0.2637	-1.031
Mof_H 	H 	0.7208	0.1933	0.3091	1.251
Mof_C 	C 	0.7026	0.2558	0.2331	0.652
Mof_C 	C 	0.6676	0.2698	0.1713	-1.07
Mof_C 	C 	0.6298	0.2315	0.1385	0.88
Mof_H 	H 	0.6048	0.2427	0.0974	-0.146
Mof_F 	F 	0.6588	0.3722	0.1731	-0.087
Mof_F 	F 	0.6339	0.3345	0.0636	-0.006
Mof_C 	C 	0.6694	0.3246	0.126	-1.049
Mof_F 	F 	0.7199	0.3434	0.0934	-0.025
Mof_H 	H 	0.6691	0.3068	0.1503	1.334
Mof_F 	F 	0.7245	0.1267	0.361	-0.072
Mof_F 	F 	0.7908	0.1788	0.3232	-0.077
Mof_F 	F 	0.7296	0.2095	0.4045	-0.084
Mof_C 	C 	0.7328	0.1796	0.3323	-0.943
Mof_O 	O 	0.84918	0.55766	0.5797	-0.652
Mof_O 	O 	0.9164	0.60178	0.6506	-0.615
Mof_C 	C 	0.8658	0.593	0.6295	0.73
Mof_C 	C 	0.8227	0.6295	0.6666	-0.632
Mof_C 	C 	0.8371	0.6637	0.7291	0.836
Mof_H 	H 	0.8746	0.6634	0.7488	-0.105
Mof_C 	C 	0.797	0.6991	0.7637	-1
Mof_H 	H 	0.8067	0.7208	0.8091	1.255
Mof_C 	C 	0.7442	0.7026	0.7331	0.645
Mof_C 	C 	0.7302	0.6676	0.6713	-1.06
Mof_C 	C 	0.7685	0.6298	0.6385	0.868
Mof_H 	H 	0.7573	0.6048	0.5974	-0.133
Mof_F 	F 	0.6278	0.6588	0.6731	-0.08
Mof_F 	F 	0.6655	0.6339	0.5636	0.01
Mof_C 	C 	0.6754	0.6694	0.626	-1.073
Mof_F 	F 	0.6566	0.7199	0.5934	-0.012
Mof_H 	H 	0.6932	0.6691	0.6503	1.349
Mof_F 	F 	0.8733	0.7245	0.861	0.01
Mof_F 	F 	0.8212	0.7908	0.8232	-0.029
Mof_F 	F 	0.7905	0.7296	0.9045	-0.057
Mof_C 	C 	0.8204	0.7328	0.8323	-0.956
Mof_O 	O 	0.15082	0.44234	0.5797	-0.666
Mof_O 	O 	0.0836	0.39822	0.6506	-0.734
Mof_C 	C 	0.1342	0.407	0.6295	0.751
Mof_C 	C 	0.1773	0.3705	0.6666	-0.679
Mof_C 	C 	0.1629	0.3363	0.7291	0.856
Mof_H 	H 	0.1254	0.3366	0.7488	-0.169
Mof_C 	C 	0.203	0.3009	0.7637	-1.038
Mof_H 	H 	0.1933	0.2792	0.8091	1.257
Mof_C 	C 	0.2558	0.2974	0.7331	0.652
Mof_C 	C 	0.2698	0.3324	0.6713	-1.069
Mof_C 	C 	0.2315	0.3702	0.6385	0.88
Mof_H 	H 	0.2427	0.3952	0.5974	-0.142
Mof_F 	F 	0.3722	0.3412	0.6731	-0.086
Mof_F 	F 	0.3345	0.3661	0.5636	0.003
Mof_C 	C 	0.3246	0.3306	0.626	-1.05
Mof_F 	F 	0.3434	0.2801	0.5934	-0.027
Mof_H 	H 	0.3068	0.3309	0.6503	1.336
Mof_F 	F 	0.1267	0.2755	0.861	-0.084
Mof_F 	F 	0.1788	0.2092	0.8232	-0.109
Mof_F 	F 	0.2095	0.2704	0.9045	-0.087
Mof_C 	C 	0.1796	0.2672	0.8323	-0.949
Mof_Zr	Zr	0.5	0.10411	-0	3.214
Mof_Zr	Zr	0.5	0.89589	-0	3.212
Mof_Zr	Zr	0.89589	0.5	0.5	3.216
Mof_Zr	Zr	0.10411	0.5	0.5	3.217
Mof_Zr	Zr	0.42687	0	0.10496	3.179
Mof_O 	O 	0.453	-1.32486e-33	0.2309	-0.727
Mof_C 	C 	0.443	-2.64973e-33	0.3754	0.192
Mof_H 	H 	0.4135	-2.64973e-33	0.3374	0.009
Mof_C 	C 	0.4293	-2.64973e-33	0.4567	-0.079
Mof_H 	H 	0.3906	-2.64973e-33	0.4707	0.078
Mof_C 	C 	0.47212	-2.64973e-33	0.5119	0.037
Mof_C 	C 	0.5416	0	0.4072	-0.043
Mof_H 	H 	0.5807	-2.64973e-33	0.3937	-0.027
Mof_Zr	Zr	0.57313	0	0.10496	3.18
Mof_O 	O 	0.547	-1.32486e-33	0.2309	-0.725
Mof_C 	C 	0.557	-2.64973e-33	0.3754	0.195
Mof_H 	H 	0.5865	-2.64973e-33	0.3374	0.012
Mof_C 	C 	0.5707	-2.64973e-33	0.4567	-0.08
Mof_H 	H 	0.6094	-2.64973e-33	0.4707	0.082
Mof_C 	C 	0.52788	-2.64973e-33	0.5119	0.039
Mof_C 	C 	0.4584	0	0.4072	-0.041
Mof_H 	H 	0.4193	-2.64973e-33	0.3937	-0.028
Mof_Zr	Zr	1.60592e-33	0.42687	0.60496	3.179
Mof_O 	O 	-8.65867e-33	0.453	0.7309	-0.725
Mof_C 	C 	2.32382e-33	0.443	0.8754	0.164
Mof_H 	H 	-3.0765e-33	0.4135	0.8374	0.023
Mof_C 	C 	-2.75981e-33	0.4293	0.9567	0.018
Mof_H 	H 	-2.39205e-32	0.3906	0.9707	0.059
Mof_C 	C 	4.33739e-33	0.47212	0.0119	0.115
Mof_C 	C 	-2.89121e-33	0.5416	0.9072	-0.046
Mof_H 	H 	-1.3526e-32	0.5807	0.8937	-0.035
Mof_Zr	Zr	1.60592e-33	0.57313	0.60496	3.179
Mof_O 	O 	-3.35922e-33	0.547	0.7309	-0.723
Mof_C 	C 	-8.27508e-33	0.557	0.8754	0.166
Mof_H 	H 	2.22295e-33	0.5865	0.8374	0.025
Mof_C 	C 	-8.05926e-33	0.5707	0.9567	0.017
Mof_H 	H 	-8.0221e-33	0.6094	0.9707	0.063
Mof_C 	C 	-9.62058e-34	0.52788	0.0119	0.116
Mof_C 	C 	2.40824e-33	0.4584	0.9072	-0.044
Mof_H 	H 	-2.92705e-33	0.4193	0.8937	-0.037
Mof_Zr	Zr	0.57313	-5.29945e-33	0.89504	3.182
Mof_O 	O 	0.547	-5.29945e-33	0.7691	-0.724
Mof_C 	C 	0.557	-5.29945e-33	0.6246	0.195
Mof_H 	H 	0.5865	-5.29945e-33	0.6626	0.012
Mof_C 	C 	0.5707	-2.64973e-33	0.5433	-0.079
Mof_H 	H 	0.6094	-2.64973e-33	0.5293	0.082
Mof_C 	C 	0.52788	-2.64973e-33	0.4881	0.039
Mof_C 	C 	0.4584	0	0.5928	-0.041
Mof_H 	H 	0.4193	0	0.6063	-0.028
Mof_Zr	Zr	0.42687	-5.29945e-33	0.89504	3.181
Mof_O 	O 	0.453	-5.29945e-33	0.7691	-0.726
Mof_C 	C 	0.443	-5.29945e-33	0.6246	0.192
Mof_H 	H 	0.4135	-5.29945e-33	0.6626	0.01
Mof_C 	C 	0.4293	-2.64973e-33	0.5433	-0.078
Mof_H 	H 	0.3906	-2.64973e-33	0.5293	0.077
Mof_C 	C 	0.47212	-2.64973e-33	0.4881	0.037
Mof_C 	C 	0.5416	0	0.5928	-0.044
Mof_H 	H 	0.5807	0	0.6063	-0.027
Mof_Zr	Zr	1.04867e-33	0.42687	0.39504	3.179
Mof_O 	O 	-5.90997e-33	0.453	0.2691	-0.731
Mof_C 	C 	3.30761e-34	0.443	0.1246	0.22
Mof_H 	H 	-2.21809e-33	0.4135	0.1626	-0.004
Mof_C 	C 	7.40169e-33	0.4293	0.0433	-0.176
Mof_H 	H 	-2.40634e-33	0.3906	0.0293	0.097
Mof_C 	C 	-7.97591e-33	0.47212	0.9881	-0.039
Mof_C 	C 	-7.0404e-33	0.5416	0.0928	-0.041
Mof_H 	H 	-3.02998e-33	0.5807	0.1063	-0.019
Mof_Zr	Zr	1.04867e-33	0.57313	0.39504	3.179
Mof_O 	O 	-6.10515e-34	0.547	0.2691	-0.729
Mof_C 	C 	3.30761e-34	0.557	0.1246	0.223
Mof_H 	H 	3.08136e-33	0.5865	0.1626	-0.002
Mof_C 	C 	2.10224e-33	0.5707	0.0433	-0.177
Mof_H 	H 	2.89311e-33	0.6094	0.0293	0.101
Mof_C 	C 	-1.85748e-32	0.52788	0.9881	-0.038
Mof_C 	C 	-1.74095e-33	0.4584	0.0928	-0.038
Mof_H 	H 	2.26948e-33	0.4193	0.1063	-0.02
Mof_O 	O 	0.4241	0.0507	-0	-1.345
Mof_O 	O 	0.5759	0.9493	-0	-1.189
Mof_O 	O 	0.9493	0.4241	0.5	-1.175
Mof_O 	O 	0.0507	0.5759	0.5	-1.327
Mof_O 	O 	0.5759	0.0507	-0	-1.341
Mof_O 	O 	0.4241	0.9493	-0	-1.194
Mof_O 	O 	0.0507	0.4241	0.5	-1.332
Mof_O 	O 	0.9493	0.5759	0.5	-1.17
Mof_O 	O 	0.5	0.0508	0.0998	-1.332
Mof_O 	O 	0.5	0.9492	0.0998	-1.182
Mof_O 	O 	0.9492	0.5	0.5998	-1.178
Mof_O 	O 	0.0508	0.5	0.5998	-1.332
Mof_O 	O 	0.5	0.0508	0.9002	-1.318
Mof_O 	O 	0.5	0.9492	0.9002	-1.167
Mof_O 	O 	0.0508	0.5	0.4002	-1.332
Mof_O 	O 	0.9492	0.5	0.4002	-1.178
Mof_C 	C 	0.5	0	0.2656	0.584
Mof_C 	C 	0.5	-2.64973e-33	0.3515	-0.237
Mof_C 	C 	-8.56655e-33	0.5	0.7656	0.574
Mof_C 	C 	2.26038e-33	0.5	0.8515	-0.207
Mof_C 	C 	0.5	0	0.7344	0.582
Mof_C 	C 	0.5	-5.29945e-33	0.6485	-0.236
Mof_C 	C 	1.9471e-33	0.5	0.2344	0.593
Mof_C 	C 	-9.30657e-34	0.5	0.1485	-0.266
_end
