data_functionalizedCrystal
_audit_creation_method	'EQeq! by Chris Wilmer'
_symmetry_space_group_name_H-M	'P1'
_symmetry_Int_Tables_number	1
_symmetry_cell_setting	triclinic
loop_
_symmetry_equiv_pos_as_xyz
  x,y,z
_cell_length_a	22.328
_cell_length_b	22.328
_cell_length_c	22.328
_cell_angle_alpha	90
_cell_angle_beta	90
_cell_angle_gamma	90
loop_
_atom_site_label
_atom_site_type_symbol
_atom_site_fract_x
_atom_site_fract_y
_atom_site_fract_z
_atom_site_charge
Mof_Zn	Zn	0.57819	0.03768	0.01585	1.131
Mof_C 	C 	0.5794	0.0683	0.1968	-0.301
Mof_C 	C 	0.5427	0.0874	0.242	0.251
Mof_H 	H 	0.5005	0.0831	0.2378	-0.028
Mof_C 	C 	0.5653	0.1124	0.2929	-0.319
Mof_H 	H 	0.5388	0.1249	0.3238	0.149
Mof_C 	C 	0.6251	0.1197	0.3	0.264
Mof_C 	C 	0.6626	0.0997	0.2577	-0.285
Mof_H 	H 	0.7046	0.104	0.263	0.134
Mof_C 	C 	0.6405	0.0727	0.2057	0.217
Mof_H 	H 	0.6675	0.0573	0.1766	-0.011
Mof_C 	C 	0.558	0.0422	0.1394	0.654
Mof_O 	O 	0.5828	0.003	0.1102	-0.426
Mof_O 	O 	0.5943	0.0399	0.0988	-0.412
Mof_O 	O 	0.5643	0.1221	0.995	-0.488
Mof_O 	O 	0.5028	0.0276	0.1418	-0.351
Mof_Zn	Zn	0.92181	0.96232	0.51585	1.06
Mof_C 	C 	0.9206	0.9317	0.6968	-0.384
Mof_C 	C 	0.9573	0.9126	0.742	0.28
Mof_H 	H 	0.9995	0.9169	0.7378	-0.08
Mof_C 	C 	0.9347	0.8876	0.7929	-0.371
Mof_H 	H 	0.9612	0.8751	0.8238	0.133
Mof_C 	C 	0.8749	0.8803	0.8	0.277
Mof_C 	C 	0.8374	0.9003	0.7577	-0.332
Mof_H 	H 	0.7954	0.896	0.763	0.134
Mof_C 	C 	0.8595	0.9273	0.7057	0.248
Mof_H 	H 	0.8325	0.9427	0.6766	-0.064
Mof_C 	C 	0.942	0.9578	0.6394	0.717
Mof_O 	O 	0.9172	0.997	0.6102	-0.539
Mof_O 	O 	0.9057	0.9601	0.5988	-0.44
Mof_O 	O 	0.9357	0.8779	0.495	-0.482
Mof_O 	O 	0.9972	0.9724	0.6418	-0.445
Mof_Zn	Zn	0.42181	0.53768	0.48415	1.093
Mof_C 	C 	0.4206	0.5683	0.3032	-0.341
Mof_C 	C 	0.4573	0.5874	0.258	0.269
Mof_H 	H 	0.4995	0.5831	0.2622	-0.045
Mof_C 	C 	0.4347	0.6124	0.2071	-0.345
Mof_H 	H 	0.4612	0.6249	0.1762	0.154
Mof_C 	C 	0.3749	0.6197	0.2	0.275
Mof_C 	C 	0.3374	0.5997	0.2423	-0.311
Mof_H 	H 	0.2954	0.604	0.237	0.138
Mof_C 	C 	0.3595	0.5727	0.2943	0.234
Mof_H 	H 	0.3325	0.5573	0.3234	-0.038
Mof_C 	C 	0.442	0.5422	0.3606	0.682
Mof_O 	O 	0.4172	0.503	0.3898	-0.476
Mof_O 	O 	0.4057	0.5399	0.4012	-0.431
Mof_O 	O 	0.4357	0.6221	0.505	-0.468
Mof_O 	O 	0.4972	0.5276	0.3582	-0.385
Mof_Zn	Zn	0.07819	0.46232	0.98415	1.063
Mof_C 	C 	0.0794	0.4317	0.8032	-0.339
Mof_C 	C 	0.0427	0.4126	0.758	0.273
Mof_H 	H 	0.0005	0.4169	0.7622	-0.028
Mof_C 	C 	0.0653	0.3876	0.7071	-0.347
Mof_H 	H 	0.0388	0.3751	0.6762	0.177
Mof_C 	C 	0.1251	0.3803	0.7	0.28
Mof_C 	C 	0.1626	0.4003	0.7423	-0.312
Mof_H 	H 	0.2046	0.396	0.737	0.136
Mof_C 	C 	0.1405	0.4273	0.7943	0.233
Mof_H 	H 	0.1675	0.4427	0.8234	-0.042
Mof_C 	C 	0.058	0.4578	0.8606	0.676
Mof_O 	O 	0.0828	0.497	0.8898	-0.47
Mof_O 	O 	0.0943	0.4601	0.9012	-0.448
Mof_O 	O 	0.0643	0.3779	0.005	-0.445
Mof_O 	O 	0.0028	0.4724	0.8582	-0.362
Mof_Zn	Zn	0.01585	0.57819	0.03768	1.132
Mof_C 	C 	0.1968	0.5794	0.0683	-0.3
Mof_C 	C 	0.242	0.5427	0.0874	0.252
Mof_H 	H 	0.2378	0.5005	0.0831	-0.027
Mof_C 	C 	0.2929	0.5653	0.1124	-0.318
Mof_H 	H 	0.3238	0.5388	0.1249	0.15
Mof_C 	C 	0.3	0.6251	0.1197	0.265
Mof_C 	C 	0.2577	0.6626	0.0997	-0.284
Mof_H 	H 	0.263	0.7046	0.104	0.135
Mof_C 	C 	0.2057	0.6405	0.0727	0.218
Mof_H 	H 	0.1766	0.6675	0.0573	-0.01
Mof_C 	C 	0.1394	0.558	0.0422	0.655
Mof_O 	O 	0.1102	0.5828	0.003	-0.425
Mof_O 	O 	0.0988	0.5943	0.0399	-0.411
Mof_O 	O 	0.995	0.5643	0.1221	-0.487
Mof_O 	O 	0.1418	0.5028	0.0276	-0.35
Mof_Zn	Zn	0.51585	0.92181	0.96232	1.061
Mof_C 	C 	0.6968	0.9206	0.9317	-0.383
Mof_C 	C 	0.742	0.9573	0.9126	0.281
Mof_H 	H 	0.7378	0.9995	0.9169	-0.079
Mof_C 	C 	0.7929	0.9347	0.8876	-0.37
Mof_H 	H 	0.8238	0.9612	0.8751	0.133
Mof_C 	C 	0.8	0.8749	0.8803	0.277
Mof_C 	C 	0.7577	0.8374	0.9003	-0.332
Mof_H 	H 	0.763	0.7954	0.896	0.134
Mof_C 	C 	0.7057	0.8595	0.9273	0.248
Mof_H 	H 	0.6766	0.8325	0.9427	-0.064
Mof_C 	C 	0.6394	0.942	0.9578	0.717
Mof_O 	O 	0.6102	0.9172	0.997	-0.539
Mof_O 	O 	0.5988	0.9057	0.9601	-0.44
Mof_O 	O 	0.495	0.9357	0.8779	-0.482
Mof_O 	O 	0.6418	0.9972	0.9724	-0.445
Mof_Zn	Zn	0.48415	0.42181	0.53768	1.093
Mof_C 	C 	0.3032	0.4206	0.5683	-0.341
Mof_C 	C 	0.258	0.4573	0.5874	0.269
Mof_H 	H 	0.2622	0.4995	0.5831	-0.045
Mof_C 	C 	0.2071	0.4347	0.6124	-0.345
Mof_H 	H 	0.1762	0.4612	0.6249	0.154
Mof_C 	C 	0.2	0.3749	0.6197	0.275
Mof_C 	C 	0.2423	0.3374	0.5997	-0.311
Mof_H 	H 	0.237	0.2954	0.604	0.138
Mof_C 	C 	0.2943	0.3595	0.5727	0.234
Mof_H 	H 	0.3234	0.3325	0.5573	-0.038
Mof_C 	C 	0.3606	0.442	0.5422	0.682
Mof_O 	O 	0.3898	0.4172	0.503	-0.476
Mof_O 	O 	0.4012	0.4057	0.5399	-0.431
Mof_O 	O 	0.505	0.4357	0.6221	-0.468
Mof_O 	O 	0.3582	0.4972	0.5276	-0.385
Mof_Zn	Zn	0.98415	0.07819	0.46232	1.063
Mof_C 	C 	0.8032	0.0794	0.4317	-0.339
Mof_C 	C 	0.758	0.0427	0.4126	0.273
Mof_H 	H 	0.7622	0.0005	0.4169	-0.028
Mof_C 	C 	0.7071	0.0653	0.3876	-0.347
Mof_H 	H 	0.6762	0.0388	0.3751	0.177
Mof_C 	C 	0.7	0.1251	0.3803	0.28
Mof_C 	C 	0.7423	0.1626	0.4003	-0.312
Mof_H 	H 	0.737	0.2046	0.396	0.136
Mof_C 	C 	0.7943	0.1405	0.4273	0.233
Mof_H 	H 	0.8234	0.1675	0.4427	-0.042
Mof_C 	C 	0.8606	0.058	0.4578	0.676
Mof_O 	O 	0.8898	0.0828	0.497	-0.47
Mof_O 	O 	0.9012	0.0943	0.4601	-0.448
Mof_O 	O 	0.005	0.0643	0.3779	-0.445
Mof_O 	O 	0.8582	0.0028	0.4724	-0.362
Mof_Zn	Zn	0.03768	0.01585	0.57819	1.132
Mof_C 	C 	0.0683	0.1968	0.5794	-0.3
Mof_C 	C 	0.0874	0.242	0.5427	0.252
Mof_H 	H 	0.0831	0.2378	0.5005	-0.027
Mof_C 	C 	0.1124	0.2929	0.5653	-0.318
Mof_H 	H 	0.1249	0.3238	0.5388	0.15
Mof_C 	C 	0.1197	0.3	0.6251	0.265
Mof_C 	C 	0.0997	0.2577	0.6626	-0.284
Mof_H 	H 	0.104	0.263	0.7046	0.135
Mof_C 	C 	0.0727	0.2057	0.6405	0.218
Mof_H 	H 	0.0573	0.1766	0.6675	-0.01
Mof_C 	C 	0.0422	0.1394	0.558	0.655
Mof_O 	O 	0.003	0.1102	0.5828	-0.425
Mof_O 	O 	0.0399	0.0988	0.5943	-0.411
Mof_O 	O 	0.1221	0.995	0.5643	-0.487
Mof_O 	O 	0.0276	0.1418	0.5028	-0.35
Mof_Zn	Zn	0.96232	0.51585	0.92181	1.061
Mof_C 	C 	0.9317	0.6968	0.9206	-0.383
Mof_C 	C 	0.9126	0.742	0.9573	0.281
Mof_H 	H 	0.9169	0.7378	0.9995	-0.079
Mof_C 	C 	0.8876	0.7929	0.9347	-0.37
Mof_H 	H 	0.8751	0.8238	0.9612	0.133
Mof_C 	C 	0.8803	0.8	0.8749	0.277
Mof_C 	C 	0.9003	0.7577	0.8374	-0.332
Mof_H 	H 	0.896	0.763	0.7954	0.134
Mof_C 	C 	0.9273	0.7057	0.8595	0.248
Mof_H 	H 	0.9427	0.6766	0.8325	-0.064
Mof_C 	C 	0.9578	0.6394	0.942	0.717
Mof_O 	O 	0.997	0.6102	0.9172	-0.539
Mof_O 	O 	0.9601	0.5988	0.9057	-0.44
Mof_O 	O 	0.8779	0.495	0.9357	-0.482
Mof_O 	O 	0.9724	0.6418	0.9972	-0.445
Mof_Zn	Zn	0.53768	0.48415	0.42181	1.093
Mof_C 	C 	0.5683	0.3032	0.4206	-0.341
Mof_C 	C 	0.5874	0.258	0.4573	0.269
Mof_H 	H 	0.5831	0.2622	0.4995	-0.045
Mof_C 	C 	0.6124	0.2071	0.4347	-0.345
Mof_H 	H 	0.6249	0.1762	0.4612	0.154
Mof_C 	C 	0.6197	0.2	0.3749	0.275
Mof_C 	C 	0.5997	0.2423	0.3374	-0.311
Mof_H 	H 	0.604	0.237	0.2954	0.138
Mof_C 	C 	0.5727	0.2943	0.3595	0.234
Mof_H 	H 	0.5573	0.3234	0.3325	-0.038
Mof_C 	C 	0.5422	0.3606	0.442	0.682
Mof_O 	O 	0.503	0.3898	0.4172	-0.476
Mof_O 	O 	0.5399	0.4012	0.4057	-0.431
Mof_O 	O 	0.6221	0.505	0.4357	-0.468
Mof_O 	O 	0.5276	0.3582	0.4972	-0.385
Mof_Zn	Zn	0.46232	0.98415	0.07819	1.063
Mof_C 	C 	0.4317	0.8032	0.0794	-0.339
Mof_C 	C 	0.4126	0.758	0.0427	0.273
Mof_H 	H 	0.4169	0.7622	0.0005	-0.028
Mof_C 	C 	0.3876	0.7071	0.0653	-0.347
Mof_H 	H 	0.3751	0.6762	0.0388	0.177
Mof_C 	C 	0.3803	0.7	0.1251	0.28
Mof_C 	C 	0.4003	0.7423	0.1626	-0.312
Mof_H 	H 	0.396	0.737	0.2046	0.136
Mof_C 	C 	0.4273	0.7943	0.1405	0.233
Mof_H 	H 	0.4427	0.8234	0.1675	-0.042
Mof_C 	C 	0.4578	0.8606	0.058	0.676
Mof_O 	O 	0.497	0.8898	0.0828	-0.47
Mof_O 	O 	0.4601	0.9012	0.0943	-0.448
Mof_O 	O 	0.3779	0.005	0.0643	-0.445
Mof_O 	O 	0.4724	0.8582	0.0028	-0.362
Mof_Zn	Zn	0.42181	0.96232	0.98415	1.039
Mof_C 	C 	0.4206	0.9317	0.8032	-0.381
Mof_C 	C 	0.4573	0.9126	0.758	0.285
Mof_H 	H 	0.4995	0.9169	0.7622	-0.063
Mof_C 	C 	0.4347	0.8876	0.7071	-0.372
Mof_H 	H 	0.4612	0.8751	0.6762	0.156
Mof_C 	C 	0.3749	0.8803	0.7	0.283
Mof_C 	C 	0.3374	0.9003	0.7423	-0.335
Mof_H 	H 	0.2954	0.896	0.737	0.136
Mof_C 	C 	0.3595	0.9273	0.7943	0.248
Mof_H 	H 	0.3325	0.9427	0.8234	-0.067
Mof_C 	C 	0.442	0.9578	0.8606	0.71
Mof_O 	O 	0.4172	0.997	0.8898	-0.531
Mof_O 	O 	0.4057	0.9601	0.9012	-0.455
Mof_O 	O 	0.4357	0.8779	0.005	-0.457
Mof_O 	O 	0.4972	0.9724	0.8582	-0.421
Mof_Zn	Zn	0.07819	0.03768	0.48415	1.11
Mof_C 	C 	0.0794	0.0683	0.3032	-0.297
Mof_C 	C 	0.0427	0.0874	0.258	0.257
Mof_H 	H 	0.0005	0.0831	0.2622	-0.009
Mof_C 	C 	0.0653	0.1124	0.2071	-0.32
Mof_H 	H 	0.0388	0.1249	0.1762	0.176
Mof_C 	C 	0.1251	0.1197	0.2	0.272
Mof_C 	C 	0.1626	0.0997	0.2423	-0.287
Mof_H 	H 	0.2046	0.104	0.237	0.138
Mof_C 	C 	0.1405	0.0727	0.2943	0.218
Mof_H 	H 	0.1675	0.0573	0.3234	-0.012
Mof_C 	C 	0.058	0.0422	0.3606	0.647
Mof_O 	O 	0.0828	0.003	0.3898	-0.415
Mof_O 	O 	0.0943	0.0399	0.4012	-0.425
Mof_O 	O 	0.0643	0.1221	0.505	-0.46
Mof_O 	O 	0.0028	0.0276	0.3582	-0.325
Mof_Zn	Zn	0.57819	0.46232	0.51585	1.093
Mof_C 	C 	0.5794	0.4317	0.6968	-0.341
Mof_C 	C 	0.5427	0.4126	0.742	0.268
Mof_H 	H 	0.5005	0.4169	0.7378	-0.045
Mof_C 	C 	0.5653	0.3876	0.7929	-0.345
Mof_H 	H 	0.5388	0.3751	0.8238	0.152
Mof_C 	C 	0.6251	0.3803	0.8	0.273
Mof_C 	C 	0.6626	0.4003	0.7577	-0.309
Mof_H 	H 	0.7046	0.396	0.763	0.133
Mof_C 	C 	0.6405	0.4273	0.7057	0.232
Mof_H 	H 	0.6675	0.4427	0.6766	-0.039
Mof_C 	C 	0.558	0.4578	0.6394	0.682
Mof_O 	O 	0.5828	0.497	0.6102	-0.476
Mof_O 	O 	0.5943	0.4601	0.5988	-0.431
Mof_O 	O 	0.5643	0.3779	0.495	-0.468
Mof_O 	O 	0.5028	0.4724	0.6418	-0.385
Mof_Zn	Zn	0.92181	0.53768	0.01585	1.106
Mof_C 	C 	0.9206	0.5683	0.1968	-0.345
Mof_C 	C 	0.9573	0.5874	0.242	0.265
Mof_H 	H 	0.9995	0.5831	0.2378	-0.062
Mof_C 	C 	0.9347	0.6124	0.2929	-0.343
Mof_H 	H 	0.9612	0.6249	0.3238	0.129
Mof_C 	C 	0.8749	0.6197	0.3	0.269
Mof_C 	C 	0.8374	0.5997	0.2577	-0.308
Mof_H 	H 	0.7954	0.604	0.263	0.136
Mof_C 	C 	0.8595	0.5727	0.2057	0.234
Mof_H 	H 	0.8325	0.5573	0.1766	-0.036
Mof_C 	C 	0.942	0.5422	0.1394	0.69
Mof_O 	O 	0.9172	0.503	0.1102	-0.488
Mof_O 	O 	0.9057	0.5399	0.0988	-0.419
Mof_O 	O 	0.9357	0.6221	0.995	-0.496
Mof_O 	O 	0.9972	0.5276	0.1418	-0.412
Mof_Zn	Zn	0.98415	0.42181	0.96232	1.039
Mof_C 	C 	0.8032	0.4206	0.9317	-0.381
Mof_C 	C 	0.758	0.4573	0.9126	0.285
Mof_H 	H 	0.7622	0.4995	0.9169	-0.063
Mof_C 	C 	0.7071	0.4347	0.8876	-0.372
Mof_H 	H 	0.6762	0.4612	0.8751	0.156
Mof_C 	C 	0.7	0.3749	0.8803	0.283
Mof_C 	C 	0.7423	0.3374	0.9003	-0.335
Mof_H 	H 	0.737	0.2954	0.896	0.136
Mof_C 	C 	0.7943	0.3595	0.9273	0.248
Mof_H 	H 	0.8234	0.3325	0.9427	-0.067
Mof_C 	C 	0.8606	0.442	0.9578	0.71
Mof_O 	O 	0.8898	0.4172	0.997	-0.531
Mof_O 	O 	0.9012	0.4057	0.9601	-0.455
Mof_O 	O 	0.005	0.4357	0.8779	-0.457
Mof_O 	O 	0.8582	0.4972	0.9724	-0.421
Mof_Zn	Zn	0.48415	0.07819	0.03768	1.11
Mof_C 	C 	0.3032	0.0794	0.0683	-0.297
Mof_C 	C 	0.258	0.0427	0.0874	0.257
Mof_H 	H 	0.2622	0.0005	0.0831	-0.009
Mof_C 	C 	0.2071	0.0653	0.1124	-0.32
Mof_H 	H 	0.1762	0.0388	0.1249	0.176
Mof_C 	C 	0.2	0.1251	0.1197	0.272
Mof_C 	C 	0.2423	0.1626	0.0997	-0.287
Mof_H 	H 	0.237	0.2046	0.104	0.138
Mof_C 	C 	0.2943	0.1405	0.0727	0.218
Mof_H 	H 	0.3234	0.1675	0.0573	-0.012
Mof_C 	C 	0.3606	0.058	0.0422	0.647
Mof_O 	O 	0.3898	0.0828	0.003	-0.415
Mof_O 	O 	0.4012	0.0943	0.0399	-0.425
Mof_O 	O 	0.505	0.0643	0.1221	-0.46
Mof_O 	O 	0.3582	0.0028	0.0276	-0.325
Mof_Zn	Zn	0.51585	0.57819	0.46232	1.093
Mof_C 	C 	0.6968	0.5794	0.4317	-0.341
Mof_C 	C 	0.742	0.5427	0.4126	0.268
Mof_H 	H 	0.7378	0.5005	0.4169	-0.045
Mof_C 	C 	0.7929	0.5653	0.3876	-0.345
Mof_H 	H 	0.8238	0.5388	0.3751	0.152
Mof_C 	C 	0.8	0.6251	0.3803	0.273
Mof_C 	C 	0.7577	0.6626	0.4003	-0.309
Mof_H 	H 	0.763	0.7046	0.396	0.133
Mof_C 	C 	0.7057	0.6405	0.4273	0.232
Mof_H 	H 	0.6766	0.6675	0.4427	-0.039
Mof_C 	C 	0.6394	0.558	0.4578	0.682
Mof_O 	O 	0.6102	0.5828	0.497	-0.476
Mof_O 	O 	0.5988	0.5943	0.4601	-0.431
Mof_O 	O 	0.495	0.5643	0.3779	-0.468
Mof_O 	O 	0.6418	0.5028	0.4724	-0.385
Mof_Zn	Zn	0.01585	0.92181	0.53768	1.106
Mof_C 	C 	0.1968	0.9206	0.5683	-0.345
Mof_C 	C 	0.242	0.9573	0.5874	0.265
Mof_H 	H 	0.2378	0.9995	0.5831	-0.062
Mof_C 	C 	0.2929	0.9347	0.6124	-0.343
Mof_H 	H 	0.3238	0.9612	0.6249	0.129
Mof_C 	C 	0.3	0.8749	0.6197	0.269
Mof_C 	C 	0.2577	0.8374	0.5997	-0.308
Mof_H 	H 	0.263	0.7954	0.604	0.136
Mof_C 	C 	0.2057	0.8595	0.5727	0.234
Mof_H 	H 	0.1766	0.8325	0.5573	-0.036
Mof_C 	C 	0.1394	0.942	0.5422	0.69
Mof_O 	O 	0.1102	0.9172	0.503	-0.488
Mof_O 	O 	0.0988	0.9057	0.5399	-0.419
Mof_O 	O 	0.995	0.9357	0.6221	-0.496
Mof_O 	O 	0.1418	0.9972	0.5276	-0.412
Mof_Zn	Zn	0.96232	0.98415	0.42181	1.039
Mof_C 	C 	0.9317	0.8032	0.4206	-0.381
Mof_C 	C 	0.9126	0.758	0.4573	0.285
Mof_H 	H 	0.9169	0.7622	0.4995	-0.063
Mof_C 	C 	0.8876	0.7071	0.4347	-0.372
Mof_H 	H 	0.8751	0.6762	0.4612	0.156
Mof_C 	C 	0.8803	0.7	0.3749	0.283
Mof_C 	C 	0.9003	0.7423	0.3374	-0.335
Mof_H 	H 	0.896	0.737	0.2954	0.136
Mof_C 	C 	0.9273	0.7943	0.3595	0.248
Mof_H 	H 	0.9427	0.8234	0.3325	-0.067
Mof_C 	C 	0.9578	0.8606	0.442	0.71
Mof_O 	O 	0.997	0.8898	0.4172	-0.531
Mof_O 	O 	0.9601	0.9012	0.4057	-0.455
Mof_O 	O 	0.8779	0.005	0.4357	-0.457
Mof_O 	O 	0.9724	0.8582	0.4972	-0.421
Mof_Zn	Zn	0.03768	0.48415	0.07819	1.11
Mof_C 	C 	0.0683	0.3032	0.0794	-0.297
Mof_C 	C 	0.0874	0.258	0.0427	0.257
Mof_H 	H 	0.0831	0.2622	0.0005	-0.009
Mof_C 	C 	0.1124	0.2071	0.0653	-0.32
Mof_H 	H 	0.1249	0.1762	0.0388	0.176
Mof_C 	C 	0.1197	0.2	0.1251	0.272
Mof_C 	C 	0.0997	0.2423	0.1626	-0.287
Mof_H 	H 	0.104	0.237	0.2046	0.138
Mof_C 	C 	0.0727	0.2943	0.1405	0.218
Mof_H 	H 	0.0573	0.3234	0.1675	-0.012
Mof_C 	C 	0.0422	0.3606	0.058	0.647
Mof_O 	O 	0.003	0.3898	0.0828	-0.415
Mof_O 	O 	0.0399	0.4012	0.0943	-0.425
Mof_O 	O 	0.1221	0.505	0.0643	-0.46
Mof_O 	O 	0.0276	0.3582	0.0028	-0.325
Mof_Zn	Zn	0.46232	0.51585	0.57819	1.093
Mof_C 	C 	0.4317	0.6968	0.5794	-0.341
Mof_C 	C 	0.4126	0.742	0.5427	0.268
Mof_H 	H 	0.4169	0.7378	0.5005	-0.045
Mof_C 	C 	0.3876	0.7929	0.5653	-0.345
Mof_H 	H 	0.3751	0.8238	0.5388	0.152
Mof_C 	C 	0.3803	0.8	0.6251	0.273
Mof_C 	C 	0.4003	0.7577	0.6626	-0.309
Mof_H 	H 	0.396	0.763	0.7046	0.133
Mof_C 	C 	0.4273	0.7057	0.6405	0.232
Mof_H 	H 	0.4427	0.6766	0.6675	-0.039
Mof_C 	C 	0.4578	0.6394	0.558	0.682
Mof_O 	O 	0.497	0.6102	0.5828	-0.476
Mof_O 	O 	0.4601	0.5988	0.5943	-0.431
Mof_O 	O 	0.3779	0.495	0.5643	-0.468
Mof_O 	O 	0.4724	0.6418	0.5028	-0.385
Mof_Zn	Zn	0.53768	0.01585	0.92181	1.106
Mof_C 	C 	0.5683	0.1968	0.9206	-0.345
Mof_C 	C 	0.5874	0.242	0.9573	0.265
Mof_H 	H 	0.5831	0.2378	0.9995	-0.062
Mof_C 	C 	0.6124	0.2929	0.9347	-0.343
Mof_H 	H 	0.6249	0.3238	0.9612	0.129
Mof_C 	C 	0.6197	0.3	0.8749	0.269
Mof_C 	C 	0.5997	0.2577	0.8374	-0.308
Mof_H 	H 	0.604	0.263	0.7954	0.136
Mof_C 	C 	0.5727	0.2057	0.8595	0.234
Mof_H 	H 	0.5573	0.1766	0.8325	-0.036
Mof_C 	C 	0.5422	0.1394	0.942	0.69
Mof_O 	O 	0.503	0.1102	0.9172	-0.488
Mof_O 	O 	0.5399	0.0988	0.9057	-0.419
Mof_O 	O 	0.6221	0.995	0.9357	-0.496
Mof_O 	O 	0.5276	0.1418	0.9972	-0.412
Mof_Zn	Zn	0.5465	0.9535	0.0465	1.06
Mof_Zn	Zn	0.9535	0.0465	0.5465	1.06
Mof_Zn	Zn	0.4535	0.4535	0.4535	1.07
Mof_Zn	Zn	0.0465	0.5465	0.9535	1.06
Mof_Zn	Zn	0.4535	0.0465	0.9535	1.06
Mof_Zn	Zn	0.0465	0.9535	0.4535	1.06
Mof_Zn	Zn	0.5465	0.5465	0.5465	1.07
Mof_Zn	Zn	0.9535	0.4535	0.0465	1.06
Mof_N 	N 	0.648	0.148	0.352	-0.246
Mof_N 	N 	0.852	0.852	0.852	-0.255
Mof_N 	N 	0.352	0.648	0.148	-0.246
Mof_N 	N 	0.148	0.352	0.648	-0.246
Mof_N 	N 	0.352	0.852	0.648	-0.251
Mof_N 	N 	0.148	0.148	0.148	-0.241
Mof_N 	N 	0.648	0.352	0.852	-0.251
Mof_N 	N 	0.852	0.648	0.352	-0.251
Mof_O 	O 	0.5	0	-0	-1.528
Mof_O 	O 	1.8747e-33	0	0.5	-1.528
Mof_O 	O 	0.5	0.5	0.5	-1.633
Mof_O 	O 	-0	0.5	-0	-1.528
Mof_Zn	Zn	0.07819	0.53768	0.51585	1.095
Mof_C 	C 	0.0794	0.5683	0.6968	-0.33
Mof_C 	C 	0.0427	0.5874	0.742	0.269
Mof_H 	H 	0.0005	0.5831	0.7378	-0.026
Mof_C 	C 	0.0653	0.6124	0.7929	-0.343
Mof_H 	H 	0.0388	0.6249	0.8238	0.175
Mof_C 	C 	0.1251	0.6197	0.8	0.277
Mof_C 	C 	0.1626	0.5997	0.7577	-0.308
Mof_H 	H 	0.2046	0.604	0.763	0.135
Mof_C 	C 	0.1405	0.5727	0.7057	0.229
Mof_H 	H 	0.1675	0.5573	0.6766	-0.037
Mof_C 	C 	0.058	0.5422	0.6394	0.668
Mof_O 	O 	0.0828	0.503	0.6102	-0.466
Mof_O 	O 	0.0943	0.5399	0.5988	-0.428
Mof_O 	O 	0.0643	0.6221	0.495	-0.472
Mof_O 	O 	0.0028	0.5276	0.6418	-0.362
Mof_Zn	Zn	0.42181	0.46232	0.01585	1.117
Mof_C 	C 	0.4206	0.4317	0.1968	-0.333
Mof_C 	C 	0.4573	0.4126	0.242	0.265
Mof_H 	H 	0.4995	0.4169	0.2378	-0.042
Mof_C 	C 	0.4347	0.3876	0.2929	-0.341
Mof_H 	H 	0.4612	0.3751	0.3238	0.152
Mof_C 	C 	0.3749	0.3803	0.3	0.273
Mof_C 	C 	0.3374	0.4003	0.2577	-0.306
Mof_H 	H 	0.2954	0.396	0.263	0.138
Mof_C 	C 	0.3595	0.4273	0.2057	0.231
Mof_H 	H 	0.3325	0.4427	0.1766	-0.033
Mof_C 	C 	0.442	0.4578	0.1394	0.676
Mof_O 	O 	0.4172	0.497	0.1102	-0.475
Mof_O 	O 	0.4057	0.4601	0.0988	-0.412
Mof_O 	O 	0.4357	0.3779	0.995	-0.498
Mof_O 	O 	0.4972	0.4724	0.1418	-0.387
Mof_Zn	Zn	0.92181	0.03768	0.98415	1.066
Mof_C 	C 	0.9206	0.0683	0.8032	-0.331
Mof_C 	C 	0.9573	0.0874	0.758	0.261
Mof_H 	H 	0.9995	0.0831	0.7622	-0.053
Mof_C 	C 	0.9347	0.1124	0.7071	-0.33
Mof_H 	H 	0.9612	0.1249	0.6762	0.13
Mof_C 	C 	0.8749	0.1197	0.7	0.267
Mof_C 	C 	0.8374	0.0997	0.7423	-0.297
Mof_H 	H 	0.7954	0.104	0.737	0.138
Mof_C 	C 	0.8595	0.0727	0.7943	0.229
Mof_H 	H 	0.8325	0.0573	0.8234	-0.022
Mof_C 	C 	0.942	0.0422	0.8606	0.682
Mof_O 	O 	0.9172	0.003	0.8898	-0.443
Mof_O 	O 	0.9057	0.0399	0.9012	-0.453
Mof_O 	O 	0.9357	0.1221	0.005	-0.43
Mof_O 	O 	0.9972	0.0276	0.8582	-0.372
Mof_Zn	Zn	0.57819	0.96232	0.48415	1.07
Mof_C 	C 	0.5794	0.9317	0.3032	-0.372
Mof_C 	C 	0.5427	0.9126	0.258	0.28
Mof_H 	H 	0.5005	0.9169	0.2622	-0.06
Mof_C 	C 	0.5653	0.8876	0.2071	-0.366
Mof_H 	H 	0.5388	0.8751	0.1762	0.155
Mof_C 	C 	0.6251	0.8803	0.2	0.279
Mof_C 	C 	0.6626	0.9003	0.2423	-0.329
Mof_H 	H 	0.7046	0.896	0.237	0.131
Mof_C 	C 	0.6405	0.9273	0.2943	0.243
Mof_H 	H 	0.6675	0.9427	0.3234	-0.063
Mof_C 	C 	0.558	0.9578	0.3606	0.703
Mof_O 	O 	0.5828	0.997	0.3898	-0.529
Mof_O 	O 	0.5943	0.9601	0.4012	-0.435
Mof_O 	O 	0.5643	0.8779	0.505	-0.483
Mof_O 	O 	0.5028	0.9724	0.3582	-0.424
Mof_Zn	Zn	0.51585	0.07819	0.53768	1.095
Mof_C 	C 	0.6968	0.0794	0.5683	-0.33
Mof_C 	C 	0.742	0.0427	0.5874	0.269
Mof_H 	H 	0.7378	0.0005	0.5831	-0.026
Mof_C 	C 	0.7929	0.0653	0.6124	-0.343
Mof_H 	H 	0.8238	0.0388	0.6249	0.175
Mof_C 	C 	0.8	0.1251	0.6197	0.277
Mof_C 	C 	0.7577	0.1626	0.5997	-0.308
Mof_H 	H 	0.763	0.2046	0.604	0.135
Mof_C 	C 	0.7057	0.1405	0.5727	0.229
Mof_H 	H 	0.6766	0.1675	0.5573	-0.037
Mof_C 	C 	0.6394	0.058	0.5422	0.668
Mof_O 	O 	0.6102	0.0828	0.503	-0.466
Mof_O 	O 	0.5988	0.0943	0.5399	-0.428
Mof_O 	O 	0.495	0.0643	0.6221	-0.472
Mof_O 	O 	0.6418	0.0028	0.5276	-0.362
Mof_Zn	Zn	0.01585	0.42181	0.46232	1.117
Mof_C 	C 	0.1968	0.4206	0.4317	-0.333
Mof_C 	C 	0.242	0.4573	0.4126	0.265
Mof_H 	H 	0.2378	0.4995	0.4169	-0.042
Mof_C 	C 	0.2929	0.4347	0.3876	-0.341
Mof_H 	H 	0.3238	0.4612	0.3751	0.152
Mof_C 	C 	0.3	0.3749	0.3803	0.273
Mof_C 	C 	0.2577	0.3374	0.4003	-0.306
Mof_H 	H 	0.263	0.2954	0.396	0.138
Mof_C 	C 	0.2057	0.3595	0.4273	0.231
Mof_H 	H 	0.1766	0.3325	0.4427	-0.033
Mof_C 	C 	0.1394	0.442	0.4578	0.676
Mof_O 	O 	0.1102	0.4172	0.497	-0.475
Mof_O 	O 	0.0988	0.4057	0.4601	-0.412
Mof_O 	O 	0.995	0.4357	0.3779	-0.498
Mof_O 	O 	0.1418	0.4972	0.4724	-0.387
Mof_Zn	Zn	0.98415	0.92181	0.03768	1.066
Mof_C 	C 	0.8032	0.9206	0.0683	-0.331
Mof_C 	C 	0.758	0.9573	0.0874	0.261
Mof_H 	H 	0.7622	0.9995	0.0831	-0.053
Mof_C 	C 	0.7071	0.9347	0.1124	-0.33
Mof_H 	H 	0.6762	0.9612	0.1249	0.13
Mof_C 	C 	0.7	0.8749	0.1197	0.267
Mof_C 	C 	0.7423	0.8374	0.0997	-0.297
Mof_H 	H 	0.737	0.7954	0.104	0.138
Mof_C 	C 	0.7943	0.8595	0.0727	0.229
Mof_H 	H 	0.8234	0.8325	0.0573	-0.022
Mof_C 	C 	0.8606	0.942	0.0422	0.682
Mof_O 	O 	0.8898	0.9172	0.003	-0.443
Mof_O 	O 	0.9012	0.9057	0.0399	-0.453
Mof_O 	O 	0.005	0.9357	0.1221	-0.43
Mof_O 	O 	0.8582	0.9972	0.0276	-0.372
Mof_Zn	Zn	0.48415	0.57819	0.96232	1.07
Mof_C 	C 	0.3032	0.5794	0.9317	-0.372
Mof_C 	C 	0.258	0.5427	0.9126	0.28
Mof_H 	H 	0.2622	0.5005	0.9169	-0.06
Mof_C 	C 	0.2071	0.5653	0.8876	-0.366
Mof_H 	H 	0.1762	0.5388	0.8751	0.155
Mof_C 	C 	0.2	0.6251	0.8803	0.279
Mof_C 	C 	0.2423	0.6626	0.9003	-0.329
Mof_H 	H 	0.237	0.7046	0.896	0.131
Mof_C 	C 	0.2943	0.6405	0.9273	0.243
Mof_H 	H 	0.3234	0.6675	0.9427	-0.063
Mof_C 	C 	0.3606	0.558	0.9578	0.703
Mof_O 	O 	0.3898	0.5828	0.997	-0.529
Mof_O 	O 	0.4012	0.5943	0.9601	-0.435
Mof_O 	O 	0.505	0.5643	0.8779	-0.483
Mof_O 	O 	0.3582	0.5028	0.9724	-0.424
Mof_Zn	Zn	0.53768	0.51585	0.07819	1.095
Mof_C 	C 	0.5683	0.6968	0.0794	-0.33
Mof_C 	C 	0.5874	0.742	0.0427	0.269
Mof_H 	H 	0.5831	0.7378	0.0005	-0.026
Mof_C 	C 	0.6124	0.7929	0.0653	-0.343
Mof_H 	H 	0.6249	0.8238	0.0388	0.175
Mof_C 	C 	0.6197	0.8	0.1251	0.277
Mof_C 	C 	0.5997	0.7577	0.1626	-0.308
Mof_H 	H 	0.604	0.763	0.2046	0.135
Mof_C 	C 	0.5727	0.7057	0.1405	0.229
Mof_H 	H 	0.5573	0.6766	0.1675	-0.037
Mof_C 	C 	0.5422	0.6394	0.058	0.668
Mof_O 	O 	0.503	0.6102	0.0828	-0.466
Mof_O 	O 	0.5399	0.5988	0.0943	-0.428
Mof_O 	O 	0.6221	0.495	0.0643	-0.472
Mof_O 	O 	0.5276	0.6418	0.0028	-0.362
Mof_Zn	Zn	0.46232	0.01585	0.42181	1.117
Mof_C 	C 	0.4317	0.1968	0.4206	-0.333
Mof_C 	C 	0.4126	0.242	0.4573	0.265
Mof_H 	H 	0.4169	0.2378	0.4995	-0.042
Mof_C 	C 	0.3876	0.2929	0.4347	-0.341
Mof_H 	H 	0.3751	0.3238	0.4612	0.152
Mof_C 	C 	0.3803	0.3	0.3749	0.273
Mof_C 	C 	0.4003	0.2577	0.3374	-0.306
Mof_H 	H 	0.396	0.263	0.2954	0.138
Mof_C 	C 	0.4273	0.2057	0.3595	0.231
Mof_H 	H 	0.4427	0.1766	0.3325	-0.033
Mof_C 	C 	0.4578	0.1394	0.442	0.676
Mof_O 	O 	0.497	0.1102	0.4172	-0.475
Mof_O 	O 	0.4601	0.0988	0.4057	-0.412
Mof_O 	O 	0.3779	0.995	0.4357	-0.498
Mof_O 	O 	0.4724	0.1418	0.4972	-0.387
Mof_Zn	Zn	0.03768	0.98415	0.92181	1.066
Mof_C 	C 	0.0683	0.8032	0.9206	-0.331
Mof_C 	C 	0.0874	0.758	0.9573	0.261
Mof_H 	H 	0.0831	0.7622	0.9995	-0.053
Mof_C 	C 	0.1124	0.7071	0.9347	-0.33
Mof_H 	H 	0.1249	0.6762	0.9612	0.13
Mof_C 	C 	0.1197	0.7	0.8749	0.267
Mof_C 	C 	0.0997	0.7423	0.8374	-0.297
Mof_H 	H 	0.104	0.737	0.7954	0.138
Mof_C 	C 	0.0727	0.7943	0.8595	0.229
Mof_H 	H 	0.0573	0.8234	0.8325	-0.022
Mof_C 	C 	0.0422	0.8606	0.942	0.682
Mof_O 	O 	0.003	0.8898	0.9172	-0.443
Mof_O 	O 	0.0399	0.9012	0.9057	-0.453
Mof_O 	O 	0.1221	0.005	0.9357	-0.43
Mof_O 	O 	0.0276	0.8582	0.9972	-0.372
Mof_Zn	Zn	0.96232	0.48415	0.57819	1.07
Mof_C 	C 	0.9317	0.3032	0.5794	-0.372
Mof_C 	C 	0.9126	0.258	0.5427	0.28
Mof_H 	H 	0.9169	0.2622	0.5005	-0.06
Mof_C 	C 	0.8876	0.2071	0.5653	-0.366
Mof_H 	H 	0.8751	0.1762	0.5388	0.155
Mof_C 	C 	0.8803	0.2	0.6251	0.279
Mof_C 	C 	0.9003	0.2423	0.6626	-0.329
Mof_H 	H 	0.896	0.237	0.7046	0.131
Mof_C 	C 	0.9273	0.2943	0.6405	0.243
Mof_H 	H 	0.9427	0.3234	0.6675	-0.063
Mof_C 	C 	0.9578	0.3606	0.558	0.703
Mof_O 	O 	0.997	0.3898	0.5828	-0.529
Mof_O 	O 	0.9601	0.4012	0.5943	-0.435
Mof_O 	O 	0.8779	0.505	0.5643	-0.483
Mof_O 	O 	0.9724	0.3582	0.5028	-0.424
Mof_Zn	Zn	0.92181	0.46232	0.48415	1.083
Mof_C 	C 	0.9206	0.4317	0.3032	-0.353
Mof_C 	C 	0.9573	0.4126	0.258	0.268
Mof_H 	H 	0.9995	0.4169	0.2622	-0.065
Mof_C 	C 	0.9347	0.3876	0.2071	-0.346
Mof_H 	H 	0.9612	0.3751	0.1762	0.13
Mof_C 	C 	0.8749	0.3803	0.2	0.271
Mof_C 	C 	0.8374	0.4003	0.2423	-0.312
Mof_H 	H 	0.7954	0.396	0.237	0.136
Mof_C 	C 	0.8595	0.4273	0.2943	0.236
Mof_H 	H 	0.8325	0.4427	0.3234	-0.04
Mof_C 	C 	0.942	0.4578	0.3606	0.696
Mof_O 	O 	0.9172	0.497	0.3898	-0.489
Mof_O 	O 	0.9057	0.4601	0.4012	-0.436
Mof_O 	O 	0.9357	0.3779	0.505	-0.468
Mof_O 	O 	0.9972	0.4724	0.3582	-0.41
Mof_Zn	Zn	0.57819	0.53768	0.98415	1.061
Mof_C 	C 	0.5794	0.5683	0.8032	-0.349
Mof_C 	C 	0.5427	0.5874	0.758	0.272
Mof_H 	H 	0.5005	0.5831	0.7622	-0.048
Mof_C 	C 	0.5653	0.6124	0.7071	-0.349
Mof_H 	H 	0.5388	0.6249	0.6762	0.154
Mof_C 	C 	0.6251	0.6197	0.7	0.275
Mof_C 	C 	0.6626	0.5997	0.7423	-0.314
Mof_H 	H 	0.7046	0.604	0.737	0.133
Mof_C 	C 	0.6405	0.5727	0.7943	0.235
Mof_H 	H 	0.6675	0.5573	0.8234	-0.044
Mof_C 	C 	0.558	0.5422	0.8606	0.688
Mof_O 	O 	0.5828	0.503	0.8898	-0.479
Mof_O 	O 	0.5943	0.5399	0.9012	-0.451
Mof_O 	O 	0.5643	0.6221	0.005	-0.442
Mof_O 	O 	0.5028	0.5276	0.8582	-0.384
Mof_Zn	Zn	0.07819	0.96232	0.01585	1.096
Mof_C 	C 	0.0794	0.9317	0.1968	-0.354
Mof_C 	C 	0.0427	0.9126	0.242	0.278
Mof_H 	H 	0.0005	0.9169	0.2378	-0.038
Mof_C 	C 	0.0653	0.8876	0.2929	-0.361
Mof_H 	H 	0.0388	0.8751	0.3238	0.176
Mof_C 	C 	0.1251	0.8803	0.3	0.281
Mof_C 	C 	0.1626	0.9003	0.2577	-0.324
Mof_H 	H 	0.2046	0.896	0.263	0.133
Mof_C 	C 	0.1405	0.9273	0.2057	0.238
Mof_H 	H 	0.1675	0.9427	0.1766	-0.057
Mof_C 	C 	0.058	0.9578	0.1394	0.685
Mof_O 	O 	0.0828	0.997	0.1102	-0.52
Mof_O 	O 	0.0943	0.9601	0.0988	-0.414
Mof_O 	O 	0.0643	0.8779	0.995	-0.514
Mof_O 	O 	0.0028	0.9724	0.1418	-0.403
Mof_Zn	Zn	0.42181	0.03768	0.51585	1.108
Mof_C 	C 	0.4206	0.0683	0.6968	-0.31
Mof_C 	C 	0.4573	0.0874	0.742	0.257
Mof_H 	H 	0.4995	0.0831	0.7378	-0.031
Mof_C 	C 	0.4347	0.1124	0.7929	-0.324
Mof_H 	H 	0.4612	0.1249	0.8238	0.151
Mof_C 	C 	0.3749	0.1197	0.8	0.269
Mof_C 	C 	0.3374	0.0997	0.7577	-0.29
Mof_H 	H 	0.2954	0.104	0.763	0.14
Mof_C 	C 	0.3595	0.0727	0.7057	0.223
Mof_H 	H 	0.3325	0.0573	0.6766	-0.014
Mof_C 	C 	0.442	0.0422	0.6394	0.661
Mof_O 	O 	0.4172	0.003	0.6102	-0.425
Mof_O 	O 	0.4057	0.0399	0.5988	-0.428
Mof_O 	O 	0.4357	0.1221	0.495	-0.457
Mof_O 	O 	0.4972	0.0276	0.6418	-0.348
Mof_Zn	Zn	0.48415	0.92181	0.46232	1.083
Mof_C 	C 	0.3032	0.9206	0.4317	-0.353
Mof_C 	C 	0.258	0.9573	0.4126	0.268
Mof_H 	H 	0.2622	0.9995	0.4169	-0.065
Mof_C 	C 	0.2071	0.9347	0.3876	-0.346
Mof_H 	H 	0.1762	0.9612	0.3751	0.13
Mof_C 	C 	0.2	0.8749	0.3803	0.271
Mof_C 	C 	0.2423	0.8374	0.4003	-0.312
Mof_H 	H 	0.237	0.7954	0.396	0.136
Mof_C 	C 	0.2943	0.8595	0.4273	0.236
Mof_H 	H 	0.3234	0.8325	0.4427	-0.04
Mof_C 	C 	0.3606	0.942	0.4578	0.696
Mof_O 	O 	0.3898	0.9172	0.497	-0.489
Mof_O 	O 	0.4012	0.9057	0.4601	-0.436
Mof_O 	O 	0.505	0.9357	0.3779	-0.468
Mof_O 	O 	0.3582	0.9972	0.4724	-0.41
Mof_Zn	Zn	0.98415	0.57819	0.53768	1.061
Mof_C 	C 	0.8032	0.5794	0.5683	-0.349
Mof_C 	C 	0.758	0.5427	0.5874	0.272
Mof_H 	H 	0.7622	0.5005	0.5831	-0.048
Mof_C 	C 	0.7071	0.5653	0.6124	-0.349
Mof_H 	H 	0.6762	0.5388	0.6249	0.154
Mof_C 	C 	0.7	0.6251	0.6197	0.275
Mof_C 	C 	0.7423	0.6626	0.5997	-0.314
Mof_H 	H 	0.737	0.7046	0.604	0.133
Mof_C 	C 	0.7943	0.6405	0.5727	0.235
Mof_H 	H 	0.8234	0.6675	0.5573	-0.044
Mof_C 	C 	0.8606	0.558	0.5422	0.688
Mof_O 	O 	0.8898	0.5828	0.503	-0.479
Mof_O 	O 	0.9012	0.5943	0.5399	-0.451
Mof_O 	O 	0.005	0.5643	0.6221	-0.442
Mof_O 	O 	0.8582	0.5028	0.5276	-0.384
Mof_Zn	Zn	0.01585	0.07819	0.96232	1.096
Mof_C 	C 	0.1968	0.0794	0.9317	-0.354
Mof_C 	C 	0.242	0.0427	0.9126	0.278
Mof_H 	H 	0.2378	0.0005	0.9169	-0.038
Mof_C 	C 	0.2929	0.0653	0.8876	-0.361
Mof_H 	H 	0.3238	0.0388	0.8751	0.176
Mof_C 	C 	0.3	0.1251	0.8803	0.281
Mof_C 	C 	0.2577	0.1626	0.9003	-0.324
Mof_H 	H 	0.263	0.2046	0.896	0.133
Mof_C 	C 	0.2057	0.1405	0.9273	0.238
Mof_H 	H 	0.1766	0.1675	0.9427	-0.057
Mof_C 	C 	0.1394	0.058	0.9578	0.685
Mof_O 	O 	0.1102	0.0828	0.997	-0.52
Mof_O 	O 	0.0988	0.0943	0.9601	-0.414
Mof_O 	O 	0.995	0.0643	0.8779	-0.514
Mof_O 	O 	0.1418	0.0028	0.9724	-0.403
Mof_Zn	Zn	0.51585	0.42181	0.03768	1.108
Mof_C 	C 	0.6968	0.4206	0.0683	-0.31
Mof_C 	C 	0.742	0.4573	0.0874	0.257
Mof_H 	H 	0.7378	0.4995	0.0831	-0.031
Mof_C 	C 	0.7929	0.4347	0.1124	-0.324
Mof_H 	H 	0.8238	0.4612	0.1249	0.151
Mof_C 	C 	0.8	0.3749	0.1197	0.269
Mof_C 	C 	0.7577	0.3374	0.0997	-0.29
Mof_H 	H 	0.763	0.2954	0.104	0.14
Mof_C 	C 	0.7057	0.3595	0.0727	0.223
Mof_H 	H 	0.6766	0.3325	0.0573	-0.014
Mof_C 	C 	0.6394	0.442	0.0422	0.661
Mof_O 	O 	0.6102	0.4172	0.003	-0.425
Mof_O 	O 	0.5988	0.4057	0.0399	-0.428
Mof_O 	O 	0.495	0.4357	0.1221	-0.457
Mof_O 	O 	0.6418	0.4972	0.0276	-0.348
Mof_Zn	Zn	0.46232	0.48415	0.92181	1.083
Mof_C 	C 	0.4317	0.3032	0.9206	-0.353
Mof_C 	C 	0.4126	0.258	0.9573	0.268
Mof_H 	H 	0.4169	0.2622	0.9995	-0.065
Mof_C 	C 	0.3876	0.2071	0.9347	-0.346
Mof_H 	H 	0.3751	0.1762	0.9612	0.13
Mof_C 	C 	0.3803	0.2	0.8749	0.271
Mof_C 	C 	0.4003	0.2423	0.8374	-0.312
Mof_H 	H 	0.396	0.237	0.7954	0.136
Mof_C 	C 	0.4273	0.2943	0.8595	0.236
Mof_H 	H 	0.4427	0.3234	0.8325	-0.04
Mof_C 	C 	0.4578	0.3606	0.942	0.696
Mof_O 	O 	0.497	0.3898	0.9172	-0.489
Mof_O 	O 	0.4601	0.4012	0.9057	-0.436
Mof_O 	O 	0.3779	0.505	0.9357	-0.468
Mof_O 	O 	0.4724	0.3582	0.9972	-0.41
Mof_Zn	Zn	0.53768	0.98415	0.57819	1.061
Mof_C 	C 	0.5683	0.8032	0.5794	-0.349
Mof_C 	C 	0.5874	0.758	0.5427	0.272
Mof_H 	H 	0.5831	0.7622	0.5005	-0.048
Mof_C 	C 	0.6124	0.7071	0.5653	-0.349
Mof_H 	H 	0.6249	0.6762	0.5388	0.154
Mof_C 	C 	0.6197	0.7	0.6251	0.275
Mof_C 	C 	0.5997	0.7423	0.6626	-0.314
Mof_H 	H 	0.604	0.737	0.7046	0.133
Mof_C 	C 	0.5727	0.7943	0.6405	0.235
Mof_H 	H 	0.5573	0.8234	0.6675	-0.044
Mof_C 	C 	0.5422	0.8606	0.558	0.688
Mof_O 	O 	0.503	0.8898	0.5828	-0.479
Mof_O 	O 	0.5399	0.9012	0.5943	-0.451
Mof_O 	O 	0.6221	0.005	0.5643	-0.442
Mof_O 	O 	0.5276	0.8582	0.5028	-0.384
Mof_Zn	Zn	0.96232	0.01585	0.07819	1.096
Mof_C 	C 	0.9317	0.1968	0.0794	-0.354
Mof_C 	C 	0.9126	0.242	0.0427	0.278
Mof_H 	H 	0.9169	0.2378	0.0005	-0.038
Mof_C 	C 	0.8876	0.2929	0.0653	-0.361
Mof_H 	H 	0.8751	0.3238	0.0388	0.176
Mof_C 	C 	0.8803	0.3	0.1251	0.281
Mof_C 	C 	0.9003	0.2577	0.1626	-0.324
Mof_H 	H 	0.896	0.263	0.2046	0.133
Mof_C 	C 	0.9273	0.2057	0.1405	0.238
Mof_H 	H 	0.9427	0.1766	0.1675	-0.057
Mof_C 	C 	0.9578	0.1394	0.058	0.685
Mof_O 	O 	0.997	0.1102	0.0828	-0.52
Mof_O 	O 	0.9601	0.0988	0.0943	-0.414
Mof_O 	O 	0.8779	0.995	0.0643	-0.514
Mof_O 	O 	0.9724	0.1418	0.0028	-0.403
Mof_Zn	Zn	0.03768	0.51585	0.42181	1.108
Mof_C 	C 	0.0683	0.6968	0.4206	-0.31
Mof_C 	C 	0.0874	0.742	0.4573	0.257
Mof_H 	H 	0.0831	0.7378	0.4995	-0.031
Mof_C 	C 	0.1124	0.7929	0.4347	-0.324
Mof_H 	H 	0.1249	0.8238	0.4612	0.151
Mof_C 	C 	0.1197	0.8	0.3749	0.269
Mof_C 	C 	0.0997	0.7577	0.3374	-0.29
Mof_H 	H 	0.104	0.763	0.2954	0.14
Mof_C 	C 	0.0727	0.7057	0.3595	0.223
Mof_H 	H 	0.0573	0.6766	0.3325	-0.014
Mof_C 	C 	0.0422	0.6394	0.442	0.661
Mof_O 	O 	0.003	0.6102	0.4172	-0.425
Mof_O 	O 	0.0399	0.5988	0.4057	-0.428
Mof_O 	O 	0.1221	0.495	0.4357	-0.457
Mof_O 	O 	0.0276	0.6418	0.4972	-0.348
Mof_Zn	Zn	0.0465	0.4535	0.5465	1.083
Mof_Zn	Zn	0.4535	0.5465	0.0465	1.083
Mof_Zn	Zn	0.9535	0.9535	0.9535	1.008
Mof_Zn	Zn	0.5465	0.0465	0.4535	1.083
Mof_Zn	Zn	0.9535	0.5465	0.4535	1.048
Mof_Zn	Zn	0.5465	0.4535	0.9535	1.048
Mof_Zn	Zn	0.0465	0.0465	0.0465	1.108
Mof_Zn	Zn	0.4535	0.9535	0.5465	1.048
Mof_N 	N 	0.148	0.648	0.852	-0.248
Mof_N 	N 	0.352	0.352	0.352	-0.247
Mof_N 	N 	0.852	0.148	0.648	-0.248
Mof_N 	N 	0.648	0.852	0.148	-0.248
Mof_N 	N 	0.852	0.352	0.148	-0.248
Mof_N 	N 	0.648	0.648	0.648	-0.249
Mof_N 	N 	0.148	0.852	0.352	-0.248
Mof_N 	N 	0.352	0.148	0.852	-0.248
Mof_O 	O 	1.8747e-33	0.5	0.5	-1.58
Mof_O 	O 	0.5	0.5	-0	-1.58
Mof_O 	O 	-0	0	-0	-1.475
Mof_O 	O 	0.5	0	0.5	-1.58
_end
