data_functionalizedCrystal
_audit_creation_method	'EQeq! by Chris Wilmer'
_symmetry_space_group_name_H-M	'P1'
_symmetry_Int_Tables_number	1
_symmetry_cell_setting	triclinic
loop_
_symmetry_equiv_pos_as_xyz
  x,y,z
_cell_length_a	23.74
_cell_length_b	23.74
_cell_length_c	13.4851
_cell_angle_alpha	90
_cell_angle_beta	90
_cell_angle_gamma	120
loop_
_atom_site_label
_atom_site_type_symbol
_atom_site_fract_x
_atom_site_fract_y
_atom_site_fract_z
_atom_site_charge
Mof_Co	Co	0.36039	0.09308	0.11998	1.207
Mof_Ga	Ga	0.34972	0.24283	0.91544	2.875
Mof_P 	P 	0.41876	0.23621	0.1195	0.681
Mof_P 	P 	0.3268	0.98697	0.27725	0.754
Mof_O 	O 	0.36713	0.21028	0.03778	-0.862
Mof_O 	O 	0.42224	0.17569	0.15628	-0.47
Mof_O 	O 	0.39144	0.25911	0.2068	-1.026
Mof_O 	O 	0.48401	0.28968	0.0892	-0.306
Mof_O 	O 	0.37523	0.04469	0.2121	-0.537
Mof_O 	O 	0.36709	0.95882	0.32526	-0.492
Mof_O 	O 	0.27161	0.93529	0.21766	-0.766
Mof_O 	O 	0.30032	0.01065	0.36039	-0.861
Mof_N 	N 	0.44436	0.27577	0.8693	-0.516
Mof_N 	N 	0.3324	0.15663	0.8513	-0.428
Mof_N 	N 	0.25099	0.18888	0.9412	-0.603
Mof_C 	C 	0.4473	0.2186	0.8311	-0.162
Mof_C 	C 	0.3849	0.173	0.7797	-0.057
Mof_C 	C 	0.265	0.123	0.8168	-0.128
Mof_C 	C 	0.2237	0.1214	0.9029	-0.011
Mof_H 	H 	0.4511	0.2986	0.8133	0.133
Mof_H 	H 	0.4734	0.2908	0.9217	0.126
Mof_H 	H 	0.3328	0.1273	0.8955	0.123
Mof_H 	H 	0.2461	0.191	0.0077	0.139
Mof_H 	H 	0.2299	0.2034	0.9083	0.168
Mof_H 	H 	0.4537	0.1933	0.8905	0.036
Mof_H 	H 	0.4732	0.2349	0.7858	0.085
Mof_H 	H 	0.3828	0.1986	0.7243	0.02
Mof_H 	H 	0.3775	0.1286	0.7563	0.052
Mof_H 	H 	0.2608	0.1478	0.7572	0.04
Mof_H 	H 	0.2473	0.0772	0.8045	0.06
Mof_H 	H 	0.2307	0.1001	0.957	0.006
Mof_H 	H 	0.1758	0.1001	0.8679	0.028
Mof_Ga	Ga	0.30628	0.24025	0.21335	3.644
Mof_Co	Co	0.02706	0.42641	0.45331	1.205
Mof_Ga	Ga	0.01639	0.57616	0.24877	2.983
Mof_P 	P 	0.08543	0.56954	0.45283	0.683
Mof_P 	P 	0.99347	0.3203	0.61058	0.703
Mof_O 	O 	0.0338	0.54361	0.37111	-0.895
Mof_O 	O 	0.08891	0.50902	0.48961	-0.474
Mof_O 	O 	0.05811	0.59244	0.54013	-1.009
Mof_O 	O 	0.15068	0.62301	0.42253	-0.325
Mof_O 	O 	0.0419	0.37802	0.54543	-0.512
Mof_O 	O 	0.03376	0.29215	0.65859	-0.478
Mof_O 	O 	0.93828	0.26862	0.55099	-0.757
Mof_O 	O 	0.96699	0.34398	0.69372	-0.838
Mof_N 	N 	0.11103	0.6091	0.20263	-0.525
Mof_N 	N 	0.99907	0.48996	0.18463	-0.444
Mof_N 	N 	0.91766	0.52221	0.27453	-0.582
Mof_C 	C 	0.11397	0.55193	0.16443	-0.171
Mof_C 	C 	0.05157	0.50633	0.11303	-0.048
Mof_C 	C 	0.93167	0.45633	0.15013	-0.133
Mof_C 	C 	0.89037	0.45473	0.23623	-0.018
Mof_H 	H 	0.11777	0.63193	0.14663	0.137
Mof_H 	H 	0.14007	0.62413	0.25503	0.139
Mof_H 	H 	0.99947	0.46063	0.22883	0.127
Mof_H 	H 	0.91277	0.52433	0.34103	0.101
Mof_H 	H 	0.89657	0.53673	0.24163	0.167
Mof_H 	H 	0.12037	0.52663	0.22383	0.047
Mof_H 	H 	0.13987	0.56823	0.11913	0.095
Mof_H 	H 	0.04947	0.53193	0.05763	0.031
Mof_H 	H 	0.04417	0.46193	0.08963	0.062
Mof_H 	H 	0.92747	0.48113	0.09053	0.051
Mof_H 	H 	0.91397	0.41053	0.13783	0.075
Mof_H 	H 	0.89737	0.43343	0.29033	0.024
Mof_H 	H 	0.84247	0.43343	0.20123	0.041
Mof_Ga	Ga	0.97294	0.57359	0.54669	3.584
Mof_Co	Co	0.69372	0.75975	0.78665	1.199
Mof_Ga	Ga	0.68305	0.9095	0.58211	2.943
Mof_P 	P 	0.75209	0.90288	0.78617	0.682
Mof_P 	P 	0.66013	0.65364	0.94392	0.704
Mof_O 	O 	0.70046	0.87695	0.70445	-0.895
Mof_O 	O 	0.75557	0.84236	0.82295	-0.48
Mof_O 	O 	0.72477	0.92578	0.87347	-1.017
Mof_O 	O 	0.81734	0.95635	0.75587	-0.321
Mof_O 	O 	0.70856	0.71136	0.87877	-0.53
Mof_O 	O 	0.70042	0.62549	0.99193	-0.515
Mof_O 	O 	0.60494	0.60196	0.88433	-0.761
Mof_O 	O 	0.63365	0.67732	0.02706	-0.824
Mof_N 	N 	0.77769	0.94244	0.53597	-0.523
Mof_N 	N 	0.66573	0.8233	0.51797	-0.434
Mof_N 	N 	0.58432	0.85555	0.60787	-0.575
Mof_C 	C 	0.78063	0.88527	0.49777	-0.165
Mof_C 	C 	0.71823	0.83967	0.44637	-0.056
Mof_C 	C 	0.59833	0.78967	0.48347	-0.124
Mof_C 	C 	0.55703	0.78807	0.56957	-0.021
Mof_H 	H 	0.78443	0.96527	0.47997	0.14
Mof_H 	H 	0.80673	0.95747	0.58837	0.142
Mof_H 	H 	0.66613	0.79397	0.56217	0.132
Mof_H 	H 	0.57943	0.85767	0.67437	0.104
Mof_H 	H 	0.56323	0.87007	0.57497	0.167
Mof_H 	H 	0.78703	0.85997	0.55717	0.044
Mof_H 	H 	0.80653	0.90157	0.45247	0.088
Mof_H 	H 	0.71613	0.86527	0.39097	0.019
Mof_H 	H 	0.71083	0.79527	0.42297	0.052
Mof_H 	H 	0.59413	0.81447	0.42387	0.039
Mof_H 	H 	0.58063	0.74387	0.47117	0.065
Mof_H 	H 	0.56403	0.76677	0.62367	0.026
Mof_H 	H 	0.50913	0.76677	0.53457	0.038
Mof_Ga	Ga	0.63961	0.90692	0.88002	3.57
Mof_Co	Co	0.90692	0.26731	0.11998	1.208
Mof_Ga	Ga	0.75717	0.10689	0.91544	2.865
Mof_P 	P 	0.76379	0.18255	0.1195	0.682
Mof_P 	P 	0.01303	0.33983	0.27725	0.755
Mof_O 	O 	0.78972	0.15685	0.03778	-0.857
Mof_O 	O 	0.82431	0.24655	0.15628	-0.469
Mof_O 	O 	0.74089	0.13233	0.2068	-1.026
Mof_O 	O 	0.71032	0.19433	0.0892	-0.305
Mof_O 	O 	0.95531	0.33054	0.2121	-0.537
Mof_O 	O 	0.04118	0.40827	0.32526	-0.492
Mof_O 	O 	0.06471	0.33632	0.21766	-0.767
Mof_O 	O 	0.98935	0.28967	0.36039	-0.861
Mof_N 	N 	0.72423	0.16859	0.8693	-0.515
Mof_N 	N 	0.84337	0.17577	0.8513	-0.427
Mof_N 	N 	0.81112	0.06211	0.9412	-0.605
Mof_C 	C 	0.7814	0.2287	0.8311	-0.162
Mof_C 	C 	0.827	0.2119	0.7797	-0.057
Mof_C 	C 	0.877	0.142	0.8168	-0.127
Mof_C 	C 	0.8786	0.1023	0.9029	-0.011
Mof_H 	H 	0.7014	0.1525	0.8133	0.133
Mof_H 	H 	0.7092	0.1826	0.9217	0.125
Mof_H 	H 	0.8727	0.2055	0.8955	0.123
Mof_H 	H 	0.809	0.0551	0.0077	0.141
Mof_H 	H 	0.7966	0.0265	0.9083	0.16
Mof_H 	H 	0.8067	0.2604	0.8905	0.036
Mof_H 	H 	0.7651	0.2383	0.7858	0.085
Mof_H 	H 	0.8014	0.1842	0.7243	0.02
Mof_H 	H 	0.8714	0.2489	0.7563	0.052
Mof_H 	H 	0.8522	0.113	0.7572	0.038
Mof_H 	H 	0.9228	0.1701	0.8045	0.059
Mof_H 	H 	0.8999	0.1306	0.957	0.003
Mof_H 	H 	0.8999	0.0757	0.8679	0.022
Mof_Ga	Ga	0.75975	0.06602	0.21335	3.64
Mof_Co	Co	0.57359	0.60064	0.45331	1.199
Mof_Ga	Ga	0.42384	0.44022	0.24877	2.944
Mof_P 	P 	0.43046	0.51588	0.45283	0.684
Mof_P 	P 	0.6797	0.67316	0.61058	0.731
Mof_O 	O 	0.45639	0.49018	0.37111	-0.898
Mof_O 	O 	0.49098	0.57988	0.48961	-0.477
Mof_O 	O 	0.40756	0.46566	0.54013	-1.026
Mof_O 	O 	0.37699	0.52766	0.42253	-0.324
Mof_O 	O 	0.62198	0.66387	0.54543	-0.528
Mof_O 	O 	0.70785	0.7416	0.65859	-0.494
Mof_O 	O 	0.73138	0.66965	0.55099	-0.758
Mof_O 	O 	0.65602	0.623	0.69372	-0.845
Mof_N 	N 	0.3909	0.50192	0.20263	-0.523
Mof_N 	N 	0.51004	0.5091	0.18463	-0.432
Mof_N 	N 	0.47779	0.39544	0.27453	-0.576
Mof_C 	C 	0.44807	0.56203	0.16443	-0.164
Mof_C 	C 	0.49367	0.54523	0.11303	-0.061
Mof_C 	C 	0.54367	0.47533	0.15013	-0.131
Mof_C 	C 	0.54527	0.43563	0.23623	-0.018
Mof_H 	H 	0.36807	0.48583	0.14663	0.138
Mof_H 	H 	0.37587	0.51593	0.25503	0.139
Mof_H 	H 	0.53937	0.53883	0.22883	0.131
Mof_H 	H 	0.47567	0.38843	0.34103	0.103
Mof_H 	H 	0.46327	0.35983	0.24163	0.167
Mof_H 	H 	0.47337	0.59373	0.22383	0.044
Mof_H 	H 	0.43177	0.57163	0.11913	0.093
Mof_H 	H 	0.46807	0.51753	0.05763	0.032
Mof_H 	H 	0.53807	0.58223	0.08963	0.061
Mof_H 	H 	0.51887	0.44633	0.09053	0.052
Mof_H 	H 	0.58947	0.50343	0.13783	0.074
Mof_H 	H 	0.56657	0.46393	0.29033	0.026
Mof_H 	H 	0.56657	0.40903	0.20123	0.041
Mof_Ga	Ga	0.42641	0.39936	0.54669	3.637
Mof_Co	Co	0.24025	0.93398	0.78665	1.2
Mof_Ga	Ga	0.0905	0.77356	0.58211	2.944
Mof_P 	P 	0.09712	0.84922	0.78617	0.682
Mof_P 	P 	0.34636	0.0065	0.94392	0.675
Mof_O 	O 	0.12305	0.82352	0.70445	-0.895
Mof_O 	O 	0.15764	0.91322	0.82295	-0.476
Mof_O 	O 	0.07422	0.799	0.87347	-1.016
Mof_O 	O 	0.04365	0.861	0.75587	-0.316
Mof_O 	O 	0.28864	0.99721	0.87877	-0.507
Mof_O 	O 	0.37451	0.07494	0.99193	-0.515
Mof_O 	O 	0.39804	0.00299	0.88433	-0.759
Mof_O 	O 	0.32268	0.95634	0.02706	-0.811
Mof_N 	N 	0.05756	0.83526	0.53597	-0.523
Mof_N 	N 	0.1767	0.84244	0.51797	-0.435
Mof_N 	N 	0.14445	0.72878	0.60787	-0.575
Mof_C 	C 	0.11473	0.89537	0.49777	-0.169
Mof_C 	C 	0.16033	0.87857	0.44637	-0.053
Mof_C 	C 	0.21033	0.80867	0.48347	-0.124
Mof_C 	C 	0.21193	0.76897	0.56957	-0.021
Mof_H 	H 	0.03473	0.81917	0.47997	0.141
Mof_H 	H 	0.04253	0.84927	0.58837	0.144
Mof_H 	H 	0.20603	0.87217	0.56217	0.132
Mof_H 	H 	0.14233	0.72177	0.67437	0.103
Mof_H 	H 	0.12993	0.69317	0.57497	0.167
Mof_H 	H 	0.14003	0.92707	0.55717	0.05
Mof_H 	H 	0.09843	0.90497	0.45247	0.095
Mof_H 	H 	0.13473	0.85087	0.39097	0.019
Mof_H 	H 	0.20473	0.91557	0.42297	0.056
Mof_H 	H 	0.18553	0.77967	0.42387	0.039
Mof_H 	H 	0.25613	0.83677	0.47117	0.065
Mof_H 	H 	0.23323	0.79727	0.62367	0.026
Mof_H 	H 	0.23323	0.74237	0.53457	0.038
Mof_Ga	Ga	0.09308	0.73269	0.88002	3.575
Mof_Co	Co	0.73269	0.63961	0.11998	1.208
Mof_Ga	Ga	0.89311	0.65028	0.91544	2.87
Mof_P 	P 	0.81745	0.58124	0.1195	0.682
Mof_P 	P 	0.66017	0.6732	0.27725	0.733
Mof_O 	O 	0.84315	0.63287	0.03778	-0.861
Mof_O 	O 	0.75345	0.57776	0.15628	-0.47
Mof_O 	O 	0.86767	0.60856	0.2068	-1.027
Mof_O 	O 	0.80567	0.51599	0.0892	-0.306
Mof_O 	O 	0.66946	0.62477	0.2121	-0.526
Mof_O 	O 	0.59173	0.63291	0.32526	-0.494
Mof_O 	O 	0.66368	0.72839	0.21766	-0.767
Mof_O 	O 	0.71033	0.69968	0.36039	-0.846
Mof_N 	N 	0.83141	0.55564	0.8693	-0.515
Mof_N 	N 	0.82423	0.6676	0.8513	-0.428
Mof_N 	N 	0.93789	0.74901	0.9412	-0.602
Mof_C 	C 	0.7713	0.5527	0.8311	-0.162
Mof_C 	C 	0.7881	0.6151	0.7797	-0.057
Mof_C 	C 	0.858	0.735	0.8168	-0.128
Mof_C 	C 	0.8977	0.7763	0.9029	-0.012
Mof_H 	H 	0.8475	0.5489	0.8133	0.133
Mof_H 	H 	0.8174	0.5266	0.9217	0.126
Mof_H 	H 	0.7945	0.6672	0.8955	0.125
Mof_H 	H 	0.9449	0.7539	0.0077	0.137
Mof_H 	H 	0.9735	0.7701	0.9083	0.16
Mof_H 	H 	0.7396	0.5463	0.8905	0.036
Mof_H 	H 	0.7617	0.5268	0.7858	0.085
Mof_H 	H 	0.8158	0.6172	0.7243	0.02
Mof_H 	H 	0.7511	0.6225	0.7563	0.053
Mof_H 	H 	0.887	0.7392	0.7572	0.039
Mof_H 	H 	0.8299	0.7527	0.8045	0.065
Mof_H 	H 	0.8694	0.7693	0.957	0.009
Mof_H 	H 	0.9243	0.8242	0.8679	0.028
Mof_Ga	Ga	0.93398	0.69372	0.21335	3.641
Mof_Co	Co	0.39936	0.97294	0.45331	1.205
Mof_Ga	Ga	0.55978	0.98361	0.24877	2.984
Mof_P 	P 	0.48412	0.91457	0.45283	0.683
Mof_P 	P 	0.32684	0.00653	0.61058	0.703
Mof_O 	O 	0.50982	0.9662	0.37111	-0.895
Mof_O 	O 	0.42012	0.91109	0.48961	-0.474
Mof_O 	O 	0.53434	0.94189	0.54013	-1.009
Mof_O 	O 	0.47234	0.84932	0.42253	-0.325
Mof_O 	O 	0.33613	0.9581	0.54543	-0.512
Mof_O 	O 	0.2584	0.96624	0.65859	-0.478
Mof_O 	O 	0.33035	0.06172	0.55099	-0.757
Mof_O 	O 	0.377	0.03301	0.69372	-0.838
Mof_N 	N 	0.49808	0.88897	0.20263	-0.526
Mof_N 	N 	0.4909	0.00093	0.18463	-0.444
Mof_N 	N 	0.60456	0.08234	0.27453	-0.582
Mof_C 	C 	0.43797	0.88603	0.16443	-0.172
Mof_C 	C 	0.45477	0.94843	0.11303	-0.048
Mof_C 	C 	0.52467	0.06833	0.15013	-0.133
Mof_C 	C 	0.56437	0.10963	0.23623	-0.018
Mof_H 	H 	0.51417	0.88223	0.14663	0.137
Mof_H 	H 	0.48407	0.85993	0.25503	0.139
Mof_H 	H 	0.46117	0.00053	0.22883	0.126
Mof_H 	H 	0.61157	0.08723	0.34103	0.101
Mof_H 	H 	0.64017	0.10343	0.24163	0.167
Mof_H 	H 	0.40627	0.87963	0.22383	0.047
Mof_H 	H 	0.42837	0.86013	0.11913	0.095
Mof_H 	H 	0.48247	0.95053	0.05763	0.031
Mof_H 	H 	0.41777	0.95583	0.08963	0.062
Mof_H 	H 	0.55367	0.07253	0.09053	0.051
Mof_H 	H 	0.49657	0.08603	0.13783	0.074
Mof_H 	H 	0.53607	0.10263	0.29033	0.024
Mof_H 	H 	0.59097	0.15753	0.20123	0.041
Mof_Ga	Ga	0.60064	0.02706	0.54669	3.584
Mof_Co	Co	0.06602	0.30628	0.78665	1.2
Mof_Ga	Ga	0.22644	0.31695	0.58211	2.941
Mof_P 	P 	0.15078	0.24791	0.78617	0.682
Mof_P 	P 	0.9935	0.33987	0.94392	0.674
Mof_O 	O 	0.17648	0.29954	0.70445	-0.894
Mof_O 	O 	0.08678	0.24443	0.82295	-0.478
Mof_O 	O 	0.201	0.27523	0.87347	-1.021
Mof_O 	O 	0.139	0.18266	0.75587	-0.326
Mof_O 	O 	0.00279	0.29144	0.87877	-0.508
Mof_O 	O 	0.92506	0.29958	0.99193	-0.516
Mof_O 	O 	0.99701	0.39506	0.88433	-0.758
Mof_O 	O 	0.04366	0.36635	0.02706	-0.81
Mof_N 	N 	0.16474	0.22231	0.53597	-0.522
Mof_N 	N 	0.15756	0.33427	0.51797	-0.434
Mof_N 	N 	0.27122	0.41568	0.60787	-0.575
Mof_C 	C 	0.10463	0.21937	0.49777	-0.167
Mof_C 	C 	0.12143	0.28177	0.44637	-0.054
Mof_C 	C 	0.19133	0.40167	0.48347	-0.124
Mof_C 	C 	0.23103	0.44297	0.56957	-0.021
Mof_H 	H 	0.18083	0.21557	0.47997	0.135
Mof_H 	H 	0.15073	0.19327	0.58837	0.139
Mof_H 	H 	0.12783	0.33387	0.56217	0.132
Mof_H 	H 	0.27823	0.42057	0.67437	0.103
Mof_H 	H 	0.30683	0.43677	0.57497	0.166
Mof_H 	H 	0.07293	0.21297	0.55717	0.048
Mof_H 	H 	0.09503	0.19347	0.45247	0.09
Mof_H 	H 	0.14913	0.28387	0.39097	0.019
Mof_H 	H 	0.08443	0.28917	0.42297	0.056
Mof_H 	H 	0.22033	0.40587	0.42387	0.039
Mof_H 	H 	0.16323	0.41937	0.47117	0.065
Mof_H 	H 	0.20273	0.43597	0.62367	0.026
Mof_H 	H 	0.25763	0.49087	0.53457	0.038
Mof_Ga	Ga	0.26731	0.36039	0.88002	3.556
Mof_Ga	Ga	0.65028	0.75717	0.08456	2.973
Mof_P 	P 	0.58124	0.76379	0.8805	0.68
Mof_P 	P 	0.6732	0.01303	0.72275	0.894
Mof_O 	O 	0.63287	0.78972	0.96222	-0.933
Mof_O 	O 	0.57776	0.82431	0.84372	-0.985
Mof_O 	O 	0.60856	0.74089	0.7932	-0.509
Mof_O 	O 	0.51599	0.71032	0.9108	-0.341
Mof_O 	O 	0.62477	0.95531	0.7879	-1.058
Mof_O 	O 	0.63291	0.04118	0.67474	-1.027
Mof_O 	O 	0.72839	0.06471	0.78234	-0.813
Mof_O 	O 	0.69968	0.98935	0.63961	-0.929
Mof_N 	N 	0.55564	0.72423	0.1307	-0.527
Mof_N 	N 	0.6676	0.84337	0.1487	-0.449
Mof_N 	N 	0.74901	0.81112	0.0588	-0.541
Mof_C 	C 	0.5527	0.7814	0.1689	-0.157
Mof_C 	C 	0.6151	0.827	0.2203	-0.043
Mof_C 	C 	0.735	0.877	0.1832	-0.071
Mof_C 	C 	0.7763	0.8786	0.0971	-0.044
Mof_H 	H 	0.5489	0.7014	0.1867	0.14
Mof_H 	H 	0.5266	0.7092	0.0783	0.149
Mof_H 	H 	0.6672	0.8727	0.1045	0.123
Mof_H 	H 	0.7539	0.809	0.9923	0.095
Mof_H 	H 	0.7701	0.7966	0.0917	0.178
Mof_H 	H 	0.5463	0.8067	0.1095	0.035
Mof_H 	H 	0.5268	0.7651	0.2142	0.086
Mof_H 	H 	0.6172	0.8014	0.2757	0.017
Mof_H 	H 	0.6225	0.8714	0.2437	0.035
Mof_H 	H 	0.7392	0.8522	0.2428	0.021
Mof_H 	H 	0.7527	0.9228	0.1955	0.016
Mof_H 	H 	0.7693	0.8999	0.043	0.039
Mof_H 	H 	0.8242	0.8999	0.1321	0.045
Mof_Ga	Ga	0.31695	0.0905	0.41789	2.911
Mof_P 	P 	0.24791	0.09712	0.21383	0.68
Mof_P 	P 	0.33987	0.34636	0.05608	0.952
Mof_O 	O 	0.29954	0.12305	0.29555	-0.903
Mof_O 	O 	0.24443	0.15764	0.17705	-0.989
Mof_O 	O 	0.27523	0.07422	0.12653	-0.501
Mof_O 	O 	0.18266	0.04365	0.24413	-0.326
Mof_O 	O 	0.29144	0.28864	0.12123	-1.084
Mof_O 	O 	0.29958	0.37451	0.00807	-1.001
Mof_O 	O 	0.39506	0.39804	0.11567	-0.823
Mof_O 	O 	0.36635	0.32268	0.97294	-0.97
Mof_N 	N 	0.22231	0.05756	0.46403	-0.52
Mof_N 	N 	0.33427	0.1767	0.48203	-0.443
Mof_N 	N 	0.41568	0.14445	0.39213	-0.569
Mof_C 	C 	0.21937	0.11473	0.50223	-0.154
Mof_C 	C 	0.28177	0.16033	0.55363	-0.045
Mof_C 	C 	0.40167	0.21033	0.51653	-0.075
Mof_C 	C 	0.44297	0.21193	0.43043	-0.034
Mof_H 	H 	0.21557	0.03473	0.52003	0.133
Mof_H 	H 	0.19327	0.04253	0.41163	0.135
Mof_H 	H 	0.33387	0.20603	0.43783	0.115
Mof_H 	H 	0.42057	0.14233	0.32563	0.13
Mof_H 	H 	0.43677	0.12993	0.42503	0.179
Mof_H 	H 	0.21297	0.14003	0.44283	0.028
Mof_H 	H 	0.19347	0.09843	0.54753	0.082
Mof_H 	H 	0.28387	0.13473	0.60903	0.017
Mof_H 	H 	0.28917	0.20473	0.57703	0.036
Mof_H 	H 	0.40587	0.18553	0.57613	0.023
Mof_H 	H 	0.41937	0.25613	0.52883	0.013
Mof_H 	H 	0.43597	0.23323	0.37633	0.02
Mof_H 	H 	0.49087	0.23323	0.46543	0.036
Mof_Ga	Ga	0.98361	0.42384	0.75123	2.859
Mof_P 	P 	0.91457	0.43046	0.54717	0.678
Mof_P 	P 	0.00653	0.6797	0.38942	0.951
Mof_O 	O 	0.9662	0.45639	0.62889	-0.899
Mof_O 	O 	0.91109	0.49098	0.51039	-0.984
Mof_O 	O 	0.94189	0.40756	0.45987	-0.514
Mof_O 	O 	0.84932	0.37699	0.57747	-0.323
Mof_O 	O 	0.9581	0.62198	0.45457	-1.089
Mof_O 	O 	0.96624	0.70785	0.34141	-1.049
Mof_O 	O 	0.06172	0.73138	0.44901	-0.826
Mof_O 	O 	0.03301	0.65602	0.30628	-0.956
Mof_N 	N 	0.88897	0.3909	0.79737	-0.517
Mof_N 	N 	0.00093	0.51004	0.81537	-0.428
Mof_N 	N 	0.08234	0.47779	0.72547	-0.56
Mof_C 	C 	0.88603	0.44807	0.83557	-0.144
Mof_C 	C 	0.94843	0.49367	0.88697	-0.059
Mof_C 	C 	0.06833	0.54367	0.84987	-0.068
Mof_C 	C 	0.10963	0.54527	0.76377	-0.036
Mof_H 	H 	0.88223	0.36807	0.85337	0.135
Mof_H 	H 	0.85993	0.37587	0.74497	0.137
Mof_H 	H 	0.00053	0.53937	0.77117	0.122
Mof_H 	H 	0.08723	0.47567	0.65897	0.132
Mof_H 	H 	0.10343	0.46327	0.75837	0.179
Mof_H 	H 	0.87963	0.47337	0.77617	0.024
Mof_H 	H 	0.86013	0.43177	0.88087	0.072
Mof_H 	H 	0.95053	0.46807	0.94237	0.005
Mof_H 	H 	0.95583	0.53807	0.91037	0.026
Mof_H 	H 	0.07253	0.51887	0.90947	0.015
Mof_H 	H 	0.08603	0.58947	0.86217	0.006
Mof_H 	H 	0.10263	0.56657	0.70967	0.022
Mof_H 	H 	0.15753	0.56657	0.79877	0.033
Mof_Ga	Ga	0.24283	0.89311	0.08456	2.967
Mof_P 	P 	0.23621	0.81745	0.8805	0.68
Mof_P 	P 	0.98697	0.66017	0.72275	0.894
Mof_O 	O 	0.21028	0.84315	0.96222	-0.929
Mof_O 	O 	0.17569	0.75345	0.84372	-0.986
Mof_O 	O 	0.25911	0.86767	0.7932	-0.506
Mof_O 	O 	0.28968	0.80567	0.9108	-0.339
Mof_O 	O 	0.04469	0.66946	0.7879	-1.059
Mof_O 	O 	0.95882	0.59173	0.67474	-1.027
Mof_O 	O 	0.93529	0.66368	0.78234	-0.814
Mof_O 	O 	0.01065	0.71033	0.63961	-0.929
Mof_N 	N 	0.27577	0.83141	0.1307	-0.527
Mof_N 	N 	0.15663	0.82423	0.1487	-0.448
Mof_N 	N 	0.18888	0.93789	0.0588	-0.548
Mof_C 	C 	0.2186	0.7713	0.1689	-0.157
Mof_C 	C 	0.173	0.7881	0.2203	-0.044
Mof_C 	C 	0.123	0.858	0.1832	-0.073
Mof_C 	C 	0.1214	0.8977	0.0971	-0.041
Mof_H 	H 	0.2986	0.8475	0.1867	0.14
Mof_H 	H 	0.2908	0.8174	0.0783	0.148
Mof_H 	H 	0.1273	0.7945	0.1045	0.122
Mof_H 	H 	0.191	0.9449	0.9923	0.105
Mof_H 	H 	0.2034	0.9735	0.0917	0.185
Mof_H 	H 	0.1933	0.7396	0.1095	0.034
Mof_H 	H 	0.2349	0.7617	0.2142	0.086
Mof_H 	H 	0.1986	0.8158	0.2757	0.017
Mof_H 	H 	0.1286	0.7511	0.2437	0.035
Mof_H 	H 	0.1478	0.887	0.2428	0.024
Mof_H 	H 	0.0772	0.8299	0.1955	0.017
Mof_H 	H 	0.1001	0.8694	0.043	0.037
Mof_H 	H 	0.1001	0.9243	0.1321	0.048
Mof_Ga	Ga	0.9095	0.22644	0.41789	2.91
Mof_P 	P 	0.90288	0.15078	0.21383	0.68
Mof_P 	P 	0.65364	0.9935	0.05608	0.976
Mof_O 	O 	0.87695	0.17648	0.29555	-0.903
Mof_O 	O 	0.84236	0.08678	0.17705	-0.991
Mof_O 	O 	0.92578	0.201	0.12653	-0.5
Mof_O 	O 	0.95635	0.139	0.24413	-0.329
Mof_O 	O 	0.71136	0.00279	0.12123	-1.098
Mof_O 	O 	0.62549	0.92506	0.00807	-1.005
Mof_O 	O 	0.60196	0.99701	0.11567	-0.825
Mof_O 	O 	0.67732	0.04366	0.97294	-0.985
Mof_N 	N 	0.94244	0.16474	0.46403	-0.52
Mof_N 	N 	0.8233	0.15756	0.48203	-0.442
Mof_N 	N 	0.85555	0.27122	0.39213	-0.569
Mof_C 	C 	0.88527	0.10463	0.50223	-0.15
Mof_C 	C 	0.83967	0.12143	0.55363	-0.048
Mof_C 	C 	0.78967	0.19133	0.51653	-0.076
Mof_C 	C 	0.78807	0.23103	0.43043	-0.033
Mof_H 	H 	0.96527	0.18083	0.52003	0.133
Mof_H 	H 	0.95747	0.15073	0.41163	0.133
Mof_H 	H 	0.79397	0.12783	0.43783	0.114
Mof_H 	H 	0.85767	0.27823	0.32563	0.13
Mof_H 	H 	0.87007	0.30683	0.42503	0.179
Mof_H 	H 	0.85997	0.07293	0.44283	0.022
Mof_H 	H 	0.90157	0.09503	0.54753	0.076
Mof_H 	H 	0.86527	0.14913	0.60903	0.017
Mof_H 	H 	0.79527	0.08443	0.57703	0.032
Mof_H 	H 	0.81447	0.22033	0.57613	0.023
Mof_H 	H 	0.74387	0.16323	0.52883	0.014
Mof_H 	H 	0.76677	0.20273	0.37633	0.02
Mof_H 	H 	0.76677	0.25763	0.46543	0.036
Mof_Ga	Ga	0.57616	0.55978	0.75123	2.91
Mof_P 	P 	0.56954	0.48412	0.54717	0.68
Mof_P 	P 	0.3203	0.32684	0.38942	0.928
Mof_O 	O 	0.54361	0.50982	0.62889	-0.902
Mof_O 	O 	0.50902	0.42012	0.51039	-0.992
Mof_O 	O 	0.59244	0.53434	0.45987	-0.508
Mof_O 	O 	0.62301	0.47234	0.57747	-0.324
Mof_O 	O 	0.37802	0.33613	0.45457	-1.085
Mof_O 	O 	0.29215	0.2584	0.34141	-1.036
Mof_O 	O 	0.26862	0.33035	0.44901	-0.826
Mof_O 	O 	0.34398	0.377	0.30628	-0.951
Mof_N 	N 	0.6091	0.49808	0.79737	-0.52
Mof_N 	N 	0.48996	0.4909	0.81537	-0.445
Mof_N 	N 	0.52221	0.60456	0.72547	-0.568
Mof_C 	C 	0.55193	0.43797	0.83557	-0.154
Mof_C 	C 	0.50633	0.45477	0.88697	-0.041
Mof_C 	C 	0.45633	0.52467	0.84987	-0.069
Mof_C 	C 	0.45473	0.56437	0.76377	-0.037
Mof_H 	H 	0.63193	0.51417	0.85337	0.135
Mof_H 	H 	0.62413	0.48407	0.74497	0.137
Mof_H 	H 	0.46063	0.46117	0.77117	0.115
Mof_H 	H 	0.52433	0.61157	0.65897	0.13
Mof_H 	H 	0.53673	0.64017	0.75837	0.178
Mof_H 	H 	0.52663	0.40627	0.77617	0.027
Mof_H 	H 	0.56823	0.42837	0.88087	0.076
Mof_H 	H 	0.53193	0.48247	0.94237	0.004
Mof_H 	H 	0.46193	0.41777	0.91037	0.027
Mof_H 	H 	0.48113	0.55367	0.90947	0.01
Mof_H 	H 	0.41053	0.49657	0.86217	0.005
Mof_H 	H 	0.43343	0.53607	0.70967	0.02
Mof_H 	H 	0.43343	0.59097	0.79877	0.033
Mof_Ga	Ga	0.10689	0.34972	0.08456	2.972
Mof_P 	P 	0.18255	0.41876	0.8805	0.68
Mof_P 	P 	0.33983	0.3268	0.72275	0.923
Mof_O 	O 	0.15685	0.36713	0.96222	-0.932
Mof_O 	O 	0.24655	0.42224	0.84372	-0.983
Mof_O 	O 	0.13233	0.39144	0.7932	-0.506
Mof_O 	O 	0.19433	0.48401	0.9108	-0.34
Mof_O 	O 	0.33054	0.37523	0.7879	-1.072
Mof_O 	O 	0.40827	0.36709	0.67474	-1.035
Mof_O 	O 	0.33632	0.27161	0.78234	-0.815
Mof_O 	O 	0.28967	0.30032	0.63961	-0.948
Mof_N 	N 	0.16859	0.44436	0.1307	-0.527
Mof_N 	N 	0.17577	0.3324	0.1487	-0.449
Mof_N 	N 	0.06211	0.25099	0.0588	-0.544
Mof_C 	C 	0.2287	0.4473	0.1689	-0.157
Mof_C 	C 	0.2119	0.3849	0.2203	-0.043
Mof_C 	C 	0.142	0.265	0.1832	-0.071
Mof_C 	C 	0.1023	0.2237	0.0971	-0.042
Mof_H 	H 	0.1525	0.4511	0.1867	0.14
Mof_H 	H 	0.1826	0.4734	0.0783	0.149
Mof_H 	H 	0.2055	0.3328	0.1045	0.122
Mof_H 	H 	0.0551	0.2461	0.9923	0.099
Mof_H 	H 	0.0265	0.2299	0.0917	0.184
Mof_H 	H 	0.2604	0.4537	0.1095	0.035
Mof_H 	H 	0.2383	0.4732	0.2142	0.086
Mof_H 	H 	0.1842	0.3828	0.2757	0.017
Mof_H 	H 	0.2489	0.3775	0.2437	0.035
Mof_H 	H 	0.113	0.2608	0.2428	0.022
Mof_H 	H 	0.1701	0.2473	0.1955	0.012
Mof_H 	H 	0.1306	0.2307	0.043	0.036
Mof_H 	H 	0.0757	0.1758	0.1321	0.045
Mof_Ga	Ga	0.77356	0.68305	0.41789	2.914
Mof_P 	P 	0.84922	0.75209	0.21383	0.68
Mof_P 	P 	0.0065	0.66013	0.05608	0.975
Mof_O 	O 	0.82352	0.70046	0.29555	-0.903
Mof_O 	O 	0.91322	0.75557	0.17705	-0.991
Mof_O 	O 	0.799	0.72477	0.12653	-0.497
Mof_O 	O 	0.861	0.81734	0.24413	-0.322
Mof_O 	O 	0.99721	0.70856	0.12123	-1.098
Mof_O 	O 	0.07494	0.70042	0.00807	-1.007
Mof_O 	O 	0.00299	0.60494	0.11567	-0.825
Mof_O 	O 	0.95634	0.63365	0.97294	-0.984
Mof_N 	N 	0.83526	0.77769	0.46403	-0.522
Mof_N 	N 	0.84244	0.66573	0.48203	-0.443
Mof_N 	N 	0.72878	0.58432	0.39213	-0.569
Mof_C 	C 	0.89537	0.78063	0.50223	-0.152
Mof_C 	C 	0.87857	0.71823	0.55363	-0.047
Mof_C 	C 	0.80867	0.59833	0.51653	-0.076
Mof_C 	C 	0.76897	0.55703	0.43043	-0.033
Mof_H 	H 	0.81917	0.78443	0.52003	0.139
Mof_H 	H 	0.84927	0.80673	0.41163	0.138
Mof_H 	H 	0.87217	0.66613	0.43783	0.114
Mof_H 	H 	0.72177	0.57943	0.32563	0.13
Mof_H 	H 	0.69317	0.56323	0.42503	0.179
Mof_H 	H 	0.92707	0.78703	0.44283	0.024
Mof_H 	H 	0.90497	0.80653	0.54753	0.08
Mof_H 	H 	0.85087	0.71613	0.60903	0.018
Mof_H 	H 	0.91557	0.71083	0.57703	0.032
Mof_H 	H 	0.77967	0.59413	0.57613	0.023
Mof_H 	H 	0.83677	0.58063	0.52883	0.014
Mof_H 	H 	0.79727	0.56403	0.37633	0.02
Mof_H 	H 	0.74237	0.50913	0.46543	0.036
Mof_Ga	Ga	0.44022	0.01639	0.75123	2.859
Mof_P 	P 	0.51588	0.08543	0.54717	0.678
Mof_P 	P 	0.67316	0.99347	0.38942	0.951
Mof_O 	O 	0.49018	0.0338	0.62889	-0.9
Mof_O 	O 	0.57988	0.08891	0.51039	-0.984
Mof_O 	O 	0.46566	0.05811	0.45987	-0.514
Mof_O 	O 	0.52766	0.15068	0.57747	-0.323
Mof_O 	O 	0.66387	0.0419	0.45457	-1.089
Mof_O 	O 	0.7416	0.03376	0.34141	-1.049
Mof_O 	O 	0.66965	0.93828	0.44901	-0.826
Mof_O 	O 	0.623	0.96699	0.30628	-0.956
Mof_N 	N 	0.50192	0.11103	0.79737	-0.517
Mof_N 	N 	0.5091	0.99907	0.81537	-0.428
Mof_N 	N 	0.39544	0.91766	0.72547	-0.56
Mof_C 	C 	0.56203	0.11397	0.83557	-0.143
Mof_C 	C 	0.54523	0.05157	0.88697	-0.059
Mof_C 	C 	0.47533	0.93167	0.84987	-0.068
Mof_C 	C 	0.43563	0.89037	0.76377	-0.036
Mof_H 	H 	0.48583	0.11777	0.85337	0.135
Mof_H 	H 	0.51593	0.14007	0.74497	0.137
Mof_H 	H 	0.53883	0.99947	0.77117	0.122
Mof_H 	H 	0.38843	0.91277	0.65897	0.132
Mof_H 	H 	0.35983	0.89657	0.75837	0.179
Mof_H 	H 	0.59373	0.12037	0.77617	0.024
Mof_H 	H 	0.57163	0.13987	0.88087	0.072
Mof_H 	H 	0.51753	0.04947	0.94237	0.005
Mof_H 	H 	0.58223	0.04417	0.91037	0.026
Mof_H 	H 	0.44633	0.92747	0.90947	0.015
Mof_H 	H 	0.50343	0.91397	0.86217	0.006
Mof_H 	H 	0.46393	0.89737	0.70967	0.022
Mof_H 	H 	0.40903	0.84247	0.79877	0.033
_end
