data_functionalizedCrystal
_audit_creation_method	'EQeq! by Chris Wilmer'
_symmetry_space_group_name_H-M	'P1'
_symmetry_Int_Tables_number	1
_symmetry_cell_setting	triclinic
loop_
_symmetry_equiv_pos_as_xyz
  x,y,z
_cell_length_a	9.0982
_cell_length_b	11.8549
_cell_length_c	12.0113
_cell_angle_alpha	103.128
_cell_angle_beta	90.775
_cell_angle_gamma	91.887
loop_
_atom_site_label
_atom_site_type_symbol
_atom_site_fract_x
_atom_site_fract_y
_atom_site_fract_z
_atom_site_charge
Mof_P 	P 	0.80197	0.65389	0.43883	0.481
Mof_P 	P 	0.40715	0.72522	0.47226	0.479
Mof_P 	P 	0.77133	0.95765	0.14093	0.586
Mof_P 	P 	0.37561	0.96021	0.23712	0.571
Mof_F 	F 	0.9346	0.52165	0.59946	-0.733
Mof_F 	F 	0.0417	0.89542	0.99232	-0.703
Mof_O 	O 	0.7722	0.522	0.407	-0.479
Mof_O 	O 	0.2609	0.6587	0.4683	-0.457
Mof_O 	O 	0.9622	0.6889	0.481	-0.446
Mof_O 	O 	0.7732	0.7063	0.3354	-0.448
Mof_O 	O 	0.4709	0.6923	0.3524	-0.455
Mof_O 	O 	0.585	0.6385	0.1415	-0.588
Mof_H 	H 	0.6377	0.5852	0.1531	0.268
Mof_O 	O 	0.7472	0.8441	0.1802	-0.443
Mof_O 	O 	0.4406	0.8398	0.2044	-0.442
Mof_O 	O 	0.3876	0.856	0.5132	-0.452
Mof_O 	O 	0.628	0.9082	0.398	-0.575
Mof_O 	O 	0.3719	0.0075	0.3663	-0.554
Mof_O 	O 	0.2199	0.9536	0.1843	-0.402
Mof_O 	O 	0.7509	0.9364	0.011	-0.456
Mof_O 	O 	0.9251	0.0076	0.1866	-0.534
Mof_C 	C 	0.6939	0.7169	0.5611	-0.19
Mof_H 	H 	0.7456	0.7041	0.6299	0.063
Mof_H 	H 	0.6953	0.8016	0.5674	0.081
Mof_C 	C 	0.532	0.6762	0.5667	-0.223
Mof_H 	H 	0.4987	0.7035	0.6461	0.072
Mof_H 	H 	0.5267	0.5904	0.5486	0.103
Mof_C 	C 	0.649	0.0682	0.2071	-0.246
Mof_H 	H 	0.6563	0.0752	0.2908	0.074
Mof_H 	H 	0.6871	0.1426	0.1925	0.077
Mof_C 	C 	0.4848	0.0559	0.1731	-0.284
Mof_H 	H 	0.4762	0.0282	0.089	0.09
Mof_H 	H 	0.4428	0.1337	0.1932	0.069
Mof_V 	V 	0.89297	0.39316	0.43911	1.756
Mof_V 	V 	0.60797	0.76668	0.26382	1.811
Mof_V 	V 	0.1012	0.05789	0.11035	1.728
Mof_P 	P 	0.19803	0.34611	0.56117	0.48
Mof_P 	P 	0.59285	0.27478	0.52774	0.483
Mof_P 	P 	0.22867	0.04235	0.85907	0.387
Mof_P 	P 	0.62439	0.03979	0.76288	0.371
Mof_F 	F 	0.0654	0.47835	0.40054	-0.736
Mof_F 	F 	0.9583	0.10458	0.00768	-0.742
Mof_O 	O 	0.2278	0.478	0.593	-0.479
Mof_O 	O 	0.7391	0.3413	0.5317	-0.463
Mof_O 	O 	0.0378	0.3111	0.519	-0.462
Mof_O 	O 	0.2268	0.2937	0.6646	-0.458
Mof_O 	O 	0.5291	0.3077	0.6476	-0.46
Mof_O 	O 	0.415	0.3615	0.8585	-0.596
Mof_H 	H 	0.3623	0.4148	0.8469	0.268
Mof_O 	O 	0.2528	0.1559	0.8198	-0.446
Mof_O 	O 	0.5594	0.1602	0.7956	-0.441
Mof_O 	O 	0.6124	0.144	0.4868	-0.499
Mof_O 	O 	0.372	0.0918	0.602	-0.64
Mof_O 	O 	0.6281	0.9925	0.6337	-0.402
Mof_O 	O 	0.7801	0.0464	0.8157	-0.468
Mof_O 	O 	0.2491	0.0636	0.989	-0.498
Mof_O 	O 	0.0749	0.9924	0.8134	-0.391
Mof_C 	C 	0.3061	0.2831	0.4389	-0.184
Mof_H 	H 	0.2544	0.2959	0.3701	0.056
Mof_H 	H 	0.3047	0.1984	0.4326	0.07
Mof_C 	C 	0.468	0.3238	0.4333	-0.227
Mof_H 	H 	0.5013	0.2965	0.3539	0.071
Mof_H 	H 	0.4733	0.4096	0.4514	0.105
Mof_C 	C 	0.351	0.9318	0.7929	-0.124
Mof_H 	H 	0.3437	0.9248	0.7092	0.077
Mof_H 	H 	0.3129	0.8574	0.8075	0.055
Mof_C 	C 	0.5152	0.9441	0.8269	-0.181
Mof_H 	H 	0.5238	0.9718	0.911	0.121
Mof_H 	H 	0.5572	0.8663	0.8068	0.053
Mof_V 	V 	0.10703	0.60684	0.56089	1.756
Mof_V 	V 	0.39203	0.23332	0.73618	1.806
Mof_V 	V 	0.8988	0.94211	0.88965	1.764
Mof_V 	V 	0.5	2.25447e-17	0.5	1.775
_end
