data_functionalizedCrystal
_audit_creation_method	'EQeq! by Chris Wilmer'
_symmetry_space_group_name_H-M	'P1'
_symmetry_Int_Tables_number	1
_symmetry_cell_setting	triclinic
loop_
_symmetry_equiv_pos_as_xyz
  x,y,z
_cell_length_a	18.368
_cell_length_b	18.368
_cell_length_c	17.964
_cell_angle_alpha	90
_cell_angle_beta	90
_cell_angle_gamma	120
loop_
_atom_site_label
_atom_site_type_symbol
_atom_site_fract_x
_atom_site_fract_y
_atom_site_fract_z
_atom_site_charge
Mof_O 	O 	0.3176	0.2243	0.8426	-0.523
Mof_Zn	Zn	0.24313	0.34157	0.67044	1.225
Mof_C 	C 	0.2792	0.1574	0.8065	0.426
Mof_O 	O 	0.2119	0.2819	0.5755	-0.505
Mof_O 	O 	0.2365	0.442	0.6548	-0.457
Mof_O 	O 	0.1516	0.2713	0.7373	-0.508
Mof_C 	C 	0.2417	0.0759	0.8496	-0.174
Mof_C 	C 	0.3086	0.499	0.633	0.309
Mof_C 	C 	0.2537	0.076	0.925	0.118
Mof_O 	O 	0.3681	0.486	0.6214	-0.328
Mof_C 	C 	0.3216	0.5859	0.6244	-0.107
Mof_H 	H 	0.283	0.1273	0.9507	0.003
Mof_C 	C 	0.2524	0.5987	0.6245	0.031
Mof_H 	H 	0.1976	0.5522	0.6247	0.036
Mof_O 	O 	0.7757	0.0933	0.8426	-0.526
Mof_Zn	Zn	0.65843	0.90156	0.67044	1.232
Mof_C 	C 	0.8426	0.1218	0.8065	0.422
Mof_O 	O 	0.7181	0.93	0.5755	-0.458
Mof_O 	O 	0.558	0.7945	0.6548	-0.45
Mof_O 	O 	0.7287	0.8803	0.7373	-0.49
Mof_C 	C 	0.9241	0.1658	0.8496	-0.145
Mof_C 	C 	0.501	0.8096	0.633	0.307
Mof_C 	C 	0.924	0.1777	0.925	0.156
Mof_O 	O 	0.514	0.8821	0.6214	-0.312
Mof_C 	C 	0.4141	0.7357	0.6244	-0.103
Mof_H 	H 	0.8727	0.1557	0.9507	-0.006
Mof_C 	C 	0.4013	0.6537	0.6245	0.03
Mof_H 	H 	0.4478	0.6454	0.6247	0.04
Mof_O 	O 	0.9067	0.6824	0.8426	-0.503
Mof_Zn	Zn	0.09844	0.75687	0.67044	1.224
Mof_C 	C 	0.8782	0.7208	0.8065	0.43
Mof_O 	O 	0.07	0.7881	0.5755	-0.49
Mof_O 	O 	0.2055	0.7635	0.6548	-0.45
Mof_O 	O 	0.1197	0.8484	0.7373	-0.496
Mof_C 	C 	0.8342	0.7583	0.8496	-0.17
Mof_C 	C 	0.1904	0.6914	0.633	0.31
Mof_C 	C 	0.8223	0.7463	0.925	0.119
Mof_O 	O 	0.1179	0.6319	0.6214	-0.336
Mof_C 	C 	0.2643	0.6784	0.6244	-0.107
Mof_H 	H 	0.8443	0.717	0.9507	0.012
Mof_C 	C 	0.3463	0.7476	0.6245	0.03
Mof_H 	H 	0.3546	0.8024	0.6247	0.044
Mof_O 	O 	0.6824	0.7757	0.3426	-0.512
Mof_Zn	Zn	0.75687	0.65843	0.17044	1.227
Mof_C 	C 	0.7208	0.8426	0.3065	0.419
Mof_O 	O 	0.7881	0.7181	0.0755	-0.493
Mof_O 	O 	0.7635	0.558	0.1548	-0.445
Mof_O 	O 	0.8484	0.7287	0.2373	-0.484
Mof_C 	C 	0.7583	0.9241	0.3496	-0.123
Mof_C 	C 	0.6914	0.501	0.133	0.308
Mof_C 	C 	0.7463	0.924	0.425	0.138
Mof_O 	O 	0.6319	0.514	0.1214	-0.324
Mof_C 	C 	0.6784	0.4141	0.1244	-0.1
Mof_H 	H 	0.717	0.8727	0.4507	0.012
Mof_C 	C 	0.7476	0.4013	0.1245	0.028
Mof_H 	H 	0.8024	0.4478	0.1247	0.047
Mof_O 	O 	0.2243	0.9067	0.3426	-0.499
Mof_Zn	Zn	0.34157	0.09844	0.17044	1.224
Mof_C 	C 	0.1574	0.8782	0.3065	0.421
Mof_O 	O 	0.2819	0.07	0.0755	-0.497
Mof_O 	O 	0.442	0.2055	0.1548	-0.452
Mof_O 	O 	0.2713	0.1197	0.2373	-0.508
Mof_C 	C 	0.0759	0.8342	0.3496	-0.151
Mof_C 	C 	0.499	0.1904	0.133	0.31
Mof_C 	C 	0.076	0.8223	0.425	0.099
Mof_O 	O 	0.486	0.1179	0.1214	-0.333
Mof_C 	C 	0.5859	0.2643	0.1244	-0.104
Mof_H 	H 	0.1273	0.8443	0.4507	0.022
Mof_C 	C 	0.5987	0.3463	0.1245	0.03
Mof_H 	H 	0.5522	0.3546	0.1247	0.042
Mof_O 	O 	0.0933	0.3176	0.3426	-0.527
Mof_Zn	Zn	0.90156	0.24313	0.17044	1.231
Mof_C 	C 	0.1218	0.2792	0.3065	0.428
Mof_O 	O 	0.93	0.2119	0.0755	-0.464
Mof_O 	O 	0.7945	0.2365	0.1548	-0.45
Mof_O 	O 	0.8803	0.1516	0.2373	-0.493
Mof_C 	C 	0.1658	0.2417	0.3496	-0.18
Mof_C 	C 	0.8096	0.3086	0.133	0.308
Mof_C 	C 	0.1777	0.2537	0.425	0.109
Mof_O 	O 	0.8821	0.3681	0.1214	-0.309
Mof_C 	C 	0.7357	0.3216	0.1244	-0.1
Mof_H 	H 	0.1557	0.283	0.4507	0.01
Mof_C 	C 	0.6537	0.2524	0.1245	0.03
Mof_H 	H 	0.6454	0.1976	0.1247	0.039
Mof_O 	O 	0.7757	0.6824	0.3426	-0.512
Mof_Zn	Zn	0.65843	0.75687	0.17044	1.227
Mof_C 	C 	0.8426	0.7208	0.3065	0.419
Mof_O 	O 	0.7181	0.7881	0.0755	-0.493
Mof_O 	O 	0.558	0.7635	0.1548	-0.445
Mof_O 	O 	0.7287	0.8484	0.2373	-0.484
Mof_C 	C 	0.9241	0.7583	0.3496	-0.123
Mof_C 	C 	0.501	0.6914	0.133	0.308
Mof_C 	C 	0.924	0.7463	0.425	0.138
Mof_O 	O 	0.514	0.6319	0.1214	-0.324
Mof_C 	C 	0.4141	0.6784	0.1244	-0.1
Mof_H 	H 	0.8727	0.717	0.4507	0.012
Mof_C 	C 	0.4013	0.7476	0.1245	0.028
Mof_H 	H 	0.4478	0.8024	0.1247	0.047
Mof_O 	O 	0.9067	0.2243	0.3426	-0.499
Mof_Zn	Zn	0.09844	0.34157	0.17044	1.224
Mof_C 	C 	0.8782	0.1574	0.3065	0.421
Mof_O 	O 	0.07	0.2819	0.0755	-0.497
Mof_O 	O 	0.2055	0.442	0.1548	-0.452
Mof_O 	O 	0.1197	0.2713	0.2373	-0.508
Mof_C 	C 	0.8342	0.0759	0.3496	-0.151
Mof_C 	C 	0.1904	0.499	0.133	0.31
Mof_C 	C 	0.8223	0.076	0.425	0.099
Mof_O 	O 	0.1179	0.486	0.1214	-0.333
Mof_C 	C 	0.2643	0.5859	0.1244	-0.104
Mof_H 	H 	0.8443	0.1273	0.4507	0.022
Mof_C 	C 	0.3463	0.5987	0.1245	0.03
Mof_H 	H 	0.3546	0.5522	0.1247	0.042
Mof_O 	O 	0.3176	0.0933	0.3426	-0.527
Mof_Zn	Zn	0.24313	0.90156	0.17044	1.231
Mof_C 	C 	0.2792	0.1218	0.3065	0.428
Mof_O 	O 	0.2119	0.93	0.0755	-0.464
Mof_O 	O 	0.2365	0.7945	0.1548	-0.45
Mof_O 	O 	0.1516	0.8803	0.2373	-0.493
Mof_C 	C 	0.2417	0.1658	0.3496	-0.18
Mof_C 	C 	0.3086	0.8096	0.133	0.308
Mof_C 	C 	0.2537	0.1777	0.425	0.109
Mof_O 	O 	0.3681	0.8821	0.1214	-0.309
Mof_C 	C 	0.3216	0.7357	0.1244	-0.1
Mof_H 	H 	0.283	0.1557	0.4507	0.01
Mof_C 	C 	0.2524	0.6537	0.1245	0.03
Mof_H 	H 	0.1976	0.6454	0.1247	0.039
Mof_O 	O 	0.2243	0.3176	0.8426	-0.522
Mof_Zn	Zn	0.34157	0.24313	0.67044	1.225
Mof_C 	C 	0.1574	0.2792	0.8065	0.426
Mof_O 	O 	0.2819	0.2119	0.5755	-0.505
Mof_O 	O 	0.442	0.2365	0.6548	-0.457
Mof_O 	O 	0.2713	0.1516	0.7373	-0.508
Mof_C 	C 	0.0759	0.2417	0.8496	-0.174
Mof_C 	C 	0.499	0.3086	0.633	0.309
Mof_C 	C 	0.076	0.2537	0.925	0.118
Mof_O 	O 	0.486	0.3681	0.6214	-0.328
Mof_C 	C 	0.5859	0.3216	0.6244	-0.107
Mof_H 	H 	0.1273	0.283	0.9507	0.003
Mof_C 	C 	0.5987	0.2524	0.6245	0.031
Mof_H 	H 	0.5522	0.1976	0.6247	0.036
Mof_O 	O 	0.0933	0.7757	0.8426	-0.526
Mof_Zn	Zn	0.90156	0.65843	0.67044	1.232
Mof_C 	C 	0.1218	0.8426	0.8065	0.422
Mof_O 	O 	0.93	0.7181	0.5755	-0.458
Mof_O 	O 	0.7945	0.558	0.6548	-0.45
Mof_O 	O 	0.8803	0.7287	0.7373	-0.49
Mof_C 	C 	0.1658	0.9241	0.8496	-0.145
Mof_C 	C 	0.8096	0.501	0.633	0.307
Mof_C 	C 	0.1777	0.924	0.925	0.156
Mof_O 	O 	0.8821	0.514	0.6214	-0.312
Mof_C 	C 	0.7357	0.4141	0.6244	-0.103
Mof_H 	H 	0.1557	0.8727	0.9507	-0.006
Mof_C 	C 	0.6537	0.4013	0.6245	0.03
Mof_H 	H 	0.6454	0.4478	0.6247	0.04
Mof_O 	O 	0.6824	0.9067	0.8426	-0.503
Mof_Zn	Zn	0.75687	0.09844	0.67044	1.224
Mof_C 	C 	0.7208	0.8782	0.8065	0.43
Mof_O 	O 	0.7881	0.07	0.5755	-0.49
Mof_O 	O 	0.7635	0.2055	0.6548	-0.45
Mof_O 	O 	0.8484	0.1197	0.7373	-0.496
Mof_C 	C 	0.7583	0.8342	0.8496	-0.17
Mof_C 	C 	0.6914	0.1904	0.633	0.31
Mof_C 	C 	0.7463	0.8223	0.925	0.119
Mof_O 	O 	0.6319	0.1179	0.6214	-0.336
Mof_C 	C 	0.6784	0.2643	0.6244	-0.107
Mof_H 	H 	0.717	0.8443	0.9507	0.012
Mof_C 	C 	0.7476	0.3463	0.6245	0.03
Mof_H 	H 	0.8024	0.3546	0.6247	0.044
Mof_Zn	Zn	0.3491	0.3491	0.82824	1.154
Mof_O 	O 	0.3435	0.3435	0.7127	-0.71
Mof_C 	C 	0.2391	0.2391	0.5452	0.437
Mof_C 	C 	0.2224	0.2224	0.4642	-0.182
Mof_Zn	Zn	0.6509	1.92377e-32	0.82824	1.145
Mof_O 	O 	0.6565	1.92377e-32	0.7127	-0.731
Mof_C 	C 	0.7609	9.61885e-33	0.5452	0.393
Mof_C 	C 	0.7776	0	0.4642	-0.198
Mof_Zn	Zn	-1.25603e-17	0.6509	0.82824	1.145
Mof_O 	O 	1.278e-18	0.6565	0.7127	-0.731
Mof_C 	C 	-2.19798e-17	0.7609	0.5452	0.393
Mof_C 	C 	-5.55977e-17	0.7776	0.4642	-0.198
Mof_Zn	Zn	0.6509	0.6509	0.32824	1.157
Mof_O 	O 	0.6565	0.6565	0.2127	-0.707
Mof_C 	C 	0.7609	0.7609	0.0452	0.462
Mof_C 	C 	0.7776	0.7776	0.9642	-0.196
Mof_Zn	Zn	0.3491	9.61885e-33	0.32824	1.146
Mof_O 	O 	0.3435	4.80942e-33	0.2127	-0.73
Mof_C 	C 	0.2391	0	0.0452	0.419
Mof_C 	C 	0.2224	0	0.9642	-0.238
Mof_Zn	Zn	2.56655e-17	0.3491	0.32824	1.146
Mof_O 	O 	-4.7135e-17	0.3435	0.2127	-0.73
Mof_C 	C 	-2.70734e-17	0.2391	0.0452	0.419
Mof_C 	C 	-7.18471e-18	0.2224	0.9642	-0.238
Mof_C 	C 	0.1977	1.92377e-32	0.8111	0.051
Mof_H 	H 	0.1896	0	0.7595	0.029
Mof_C 	C 	-1.05075e-17	0.1977	0.8111	0.051
Mof_H 	H 	6.50258e-18	0.1896	0.7595	0.029
Mof_C 	C 	0.8023	0.8023	0.8111	0.106
Mof_H 	H 	0.8104	0.8104	0.7595	0.034
Mof_C 	C 	0.8023	9.61885e-33	0.3111	0.038
Mof_H 	H 	0.8104	0	0.2595	0.041
Mof_C 	C 	-1.239e-16	0.8023	0.3111	0.038
Mof_H 	H 	-1.17719e-16	0.8104	0.2595	0.041
Mof_C 	C 	0.1977	0.1977	0.3111	0.102
Mof_H 	H 	0.1896	0.1896	0.2595	0.024
_end
