data_functionalizedCrystal
_audit_creation_method	'EQeq! by Chris Wilmer'
_symmetry_space_group_name_H-M	'P1'
_symmetry_Int_Tables_number	1
_symmetry_cell_setting	triclinic
loop_
_symmetry_equiv_pos_as_xyz
  x,y,z
_cell_length_a	27.3062
_cell_length_b	19.4347
_cell_length_c	31.177
_cell_angle_alpha	90
_cell_angle_beta	90
_cell_angle_gamma	90
loop_
_atom_site_label
_atom_site_type_symbol
_atom_site_fract_x
_atom_site_fract_y
_atom_site_fract_z
_atom_site_charge
Mof_Sr	Sr	0.21153	0.42002	0.17392	1.364
Mof_Sr	Sr	0.29088	0.26572	0.19869	1.492
Mof_Sr	Sr	0.22805	0.09955	0.14948	1.555
Mof_C 	C 	0.3247	0.2424	0.43481	-0.048
Mof_C 	C 	0.3716	0.2508	0.4191	0.205
Mof_C 	C 	0.3803	0.2555	0.37588	-0.132
Mof_H 	H 	0.413	0.2611	0.3661	0.104
Mof_C 	C 	0.3431	0.2524	0.34616	-0.041
Mof_C 	C 	0.2957	0.2465	0.3611	-0.031
Mof_H 	H 	0.2692	0.2456	0.3414	0.042
Mof_C 	C 	0.2866	0.2417	0.4043	-0.034
Mof_H 	H 	0.2537	0.2379	0.414	0.043
Mof_O 	O 	0.41126	0.2557	0.44587	-0.36
Mof_H 	H 	0.4147	0.2186	0.4594	0.22
Mof_C 	C 	0.3536	0.2578	0.29877	0.352
Mof_O 	O 	0.397	0.26758	0.28739	-0.333
Mof_O 	O 	0.31834	0.2517	0.2735	-0.437
Mof_C 	C 	0.3125	0.2352	0.48183	-0.018
Mof_C 	C 	0.3291	0.28	0.51323	0.166
Mof_C 	C 	0.3127	0.2753	0.55477	-0.103
Mof_H 	H 	0.3235	0.3077	0.5755	0.04
Mof_C 	C 	0.2803	0.2232	0.56669	-0.122
Mof_C 	C 	0.265	0.1764	0.536	0.001
Mof_H 	H 	0.2441	0.1396	0.544	0.024
Mof_C 	C 	0.2799	0.183	0.4943	-0.075
Mof_H 	H 	0.2679	0.1517	0.4734	0.051
Mof_O 	O 	0.36201	0.3301	0.50147	-0.368
Mof_H 	H 	0.3688	0.3546	0.5229	0.255
Mof_C 	C 	0.2603	0.2225	0.61111	0.397
Mof_O 	O 	0.25883	0.27764	0.63149	-0.565
Mof_O 	O 	0.24499	0.16679	0.62714	-0.512
Mof_C 	C 	0.42991	0.5049	0.30133	-0.026
Mof_C 	C 	0.4186	0.437	0.28904	0.18
Mof_C 	C 	0.37924	0.4225	0.26278	-0.104
Mof_H 	H 	0.3734	0.3764	0.2541	0.056
Mof_C 	C 	0.34786	0.4746	0.24884	-0.103
Mof_C 	C 	0.3576	0.5418	0.26182	0.006
Mof_H 	H 	0.3362	0.5778	0.2532	0.022
Mof_C 	C 	0.3976	0.5567	0.28706	-0.077
Mof_H 	H 	0.4036	0.6031	0.2951	0.059
Mof_O 	O 	0.44862	0.3857	0.30345	-0.39
Mof_H 	H 	0.4369	0.3474	0.2965	0.256
Mof_C 	C 	0.3049	0.458	0.22114	0.392
Mof_O 	O 	0.29504	0.39542	0.21309	-0.525
Mof_O 	O 	0.27961	0.50701	0.20633	-0.521
Mof_C 	C 	0.47403	0.5228	0.32733	-0.035
Mof_C 	C 	0.46947	0.564	0.36413	0.186
Mof_C 	C 	0.51179	0.5847	0.38653	-0.114
Mof_H 	H 	0.5083	0.6124	0.4115	0.099
Mof_C 	C 	0.55813	0.5659	0.37321	-0.049
Mof_C 	C 	0.56261	0.5255	0.33669	-0.024
Mof_H 	H 	0.5941	0.5126	0.3267	0.031
Mof_C 	C 	0.5208	0.5038	0.31467	-0.038
Mof_H 	H 	0.5245	0.4751	0.2902	0.061
Mof_O 	O 	0.4239	0.5836	0.37845	-0.38
Mof_H 	H 	0.4023	0.5677	0.362	0.228
Mof_C 	C 	0.60268	0.5909	0.39778	0.347
Mof_O 	O 	0.64323	0.59364	0.37868	-0.437
Mof_O 	O 	0.59515	0.6088	0.43598	-0.29
Mof_C 	C 	0.4753	0.0672	0.24	-0.013
Mof_C 	C 	0.4438	0.1206	0.2499	0.183
Mof_C 	C 	0.3984	0.1271	0.2291	-0.093
Mof_H 	H 	0.3774	0.1645	0.2359	0.044
Mof_C 	C 	0.38412	0.0793	0.1988	-0.124
Mof_C 	C 	0.415	0.0247	0.1879	0.009
Mof_H 	H 	0.4056	0.992	0.1668	-0.013
Mof_C 	C 	0.4605	0.0194	0.209	-0.075
Mof_H 	H 	0.4817	0.9824	0.2019	0.054
Mof_O 	O 	0.45815	0.1646	0.2815	-0.387
Mof_H 	H 	0.4405	0.2	0.281	0.26
Mof_C 	C 	0.33436	0.0869	0.17857	0.395
Mof_O 	O 	0.31038	0.14167	0.18598	-0.551
Mof_O 	O 	0.31708	0.03866	0.15683	-0.552
Mof_C 	C 	0.027	0.2517	0.2443	-0.023
Mof_C 	C 	0.0578	0.3067	0.2544	0.16
Mof_C 	C 	0.1066	0.3048	0.2434	-0.088
Mof_H 	H 	0.1264	0.3441	0.2488	0.039
Mof_C 	C 	0.1279	0.2469	0.22449	-0.111
Mof_C 	C 	0.09697	0.1918	0.2147	0.009
Mof_H 	H 	0.1101	0.1518	0.2014	0.017
Mof_C 	C 	0.047	0.1948	0.22423	-0.066
Mof_H 	H 	0.0264	0.1572	0.2168	0.06
Mof_O 	O 	0.04	0.3638	0.2756	-0.376
Mof_H 	H 	0.0247	0.3888	0.2583	0.2
Mof_C 	C 	0.1818	0.2445	0.21503	0.396
Mof_O 	O 	0.20282	0.30267	0.21204	-0.544
Mof_O 	O 	0.20287	0.18869	0.21161	-0.474
Mof_O 	O 	0.22521	0.97809	0.11496	-0.477
Mof_C 	C 	0.1873	0.9468	0.10627	0.298
Mof_H 	H 	0.1728	0.9199	0.1283	-0.097
Mof_N 	N 	0.16502	0.9478	0.06843	-0.113
Mof_C 	C 	0.1849	0.989	0.0337	-0.238
Mof_H 	H 	0.1588	0.0173	0.0213	0.111
Mof_H 	H 	0.1984	0.9587	0.0116	0.098
Mof_H 	H 	0.2108	0.0189	0.0448	0.08
Mof_C 	C 	0.1181	0.9104	0.0614	-0.272
Mof_H 	H 	0.1115	0.8804	0.0861	0.097
Mof_H 	H 	0.1206	0.8824	0.0354	0.112
Mof_H 	H 	0.0914	0.9436	0.0583	0.121
Mof_Sr	Sr	0.28847	0.07998	0.67392	1.365
Mof_Sr	Sr	0.20912	0.23428	0.69869	1.493
Mof_Sr	Sr	0.27195	0.40045	0.64948	1.556
Mof_C 	C 	0.1753	0.2576	0.93481	-0.047
Mof_C 	C 	0.1284	0.2492	0.9191	0.205
Mof_C 	C 	0.1197	0.2445	0.87588	-0.132
Mof_H 	H 	0.087	0.2389	0.8661	0.104
Mof_C 	C 	0.1569	0.2476	0.84616	-0.041
Mof_C 	C 	0.2043	0.2535	0.8611	-0.031
Mof_H 	H 	0.2308	0.2544	0.8414	0.042
Mof_C 	C 	0.2134	0.2583	0.9043	-0.034
Mof_H 	H 	0.2463	0.2621	0.914	0.043
Mof_O 	O 	0.08874	0.2443	0.94587	-0.36
Mof_H 	H 	0.0853	0.2814	0.9594	0.22
Mof_C 	C 	0.1464	0.2422	0.79877	0.352
Mof_O 	O 	0.103	0.23242	0.78739	-0.333
Mof_O 	O 	0.18166	0.2483	0.7735	-0.437
Mof_C 	C 	0.1875	0.2648	0.98183	-0.018
Mof_C 	C 	0.1709	0.22	0.01323	0.166
Mof_C 	C 	0.1873	0.2247	0.05477	-0.103
Mof_H 	H 	0.1765	0.1923	0.0755	0.04
Mof_C 	C 	0.2197	0.2768	0.06669	-0.122
Mof_C 	C 	0.235	0.3236	0.036	0.001
Mof_H 	H 	0.2559	0.3604	0.044	0.024
Mof_C 	C 	0.2201	0.317	0.9943	-0.075
Mof_H 	H 	0.2321	0.3483	0.9734	0.052
Mof_O 	O 	0.13799	0.1699	0.00147	-0.369
Mof_H 	H 	0.1312	0.1454	0.0229	0.255
Mof_C 	C 	0.2397	0.2775	0.11111	0.397
Mof_O 	O 	0.24117	0.22236	0.13149	-0.565
Mof_O 	O 	0.25501	0.33321	0.12714	-0.512
Mof_C 	C 	0.07009	0.9951	0.80133	-0.026
Mof_C 	C 	0.0814	0.063	0.78904	0.18
Mof_C 	C 	0.12076	0.0775	0.76278	-0.104
Mof_H 	H 	0.1266	0.1236	0.7541	0.056
Mof_C 	C 	0.15214	0.0254	0.74884	-0.103
Mof_C 	C 	0.1424	0.9582	0.76182	0.006
Mof_H 	H 	0.1638	0.9222	0.7532	0.021
Mof_C 	C 	0.1024	0.9433	0.78706	-0.077
Mof_H 	H 	0.0964	0.8969	0.7951	0.059
Mof_O 	O 	0.05138	0.1143	0.80345	-0.39
Mof_H 	H 	0.0631	0.1526	0.7965	0.256
Mof_C 	C 	0.1951	0.042	0.72114	0.392
Mof_O 	O 	0.20496	0.10458	0.71309	-0.525
Mof_O 	O 	0.22039	0.99299	0.70633	-0.521
Mof_C 	C 	0.02597	0.9772	0.82733	-0.036
Mof_C 	C 	0.03053	0.936	0.86413	0.186
Mof_C 	C 	0.98821	0.9153	0.88653	-0.114
Mof_H 	H 	0.9917	0.8876	0.9115	0.099
Mof_C 	C 	0.94187	0.9341	0.87321	-0.049
Mof_C 	C 	0.93739	0.9745	0.83669	-0.025
Mof_H 	H 	0.9059	0.9874	0.8267	0.031
Mof_C 	C 	0.9792	0.9962	0.81467	-0.037
Mof_H 	H 	0.9755	0.0249	0.7902	0.061
Mof_O 	O 	0.0761	0.9164	0.87845	-0.38
Mof_H 	H 	0.0977	0.9323	0.862	0.228
Mof_C 	C 	0.89732	0.9091	0.89778	0.347
Mof_O 	O 	0.85677	0.90636	0.87868	-0.437
Mof_O 	O 	0.90485	0.8912	0.93598	-0.29
Mof_C 	C 	0.0247	0.4328	0.74	-0.013
Mof_C 	C 	0.0562	0.3794	0.7499	0.183
Mof_C 	C 	0.1016	0.3729	0.7291	-0.093
Mof_H 	H 	0.1226	0.3355	0.7359	0.044
Mof_C 	C 	0.11588	0.4207	0.6988	-0.124
Mof_C 	C 	0.085	0.4753	0.6879	0.009
Mof_H 	H 	0.0944	0.508	0.6668	-0.013
Mof_C 	C 	0.0395	0.4806	0.709	-0.075
Mof_H 	H 	0.0183	0.5176	0.7019	0.054
Mof_O 	O 	0.04185	0.3354	0.7815	-0.387
Mof_H 	H 	0.0595	0.3	0.781	0.26
Mof_C 	C 	0.16564	0.4131	0.67857	0.395
Mof_O 	O 	0.18962	0.35833	0.68598	-0.551
Mof_O 	O 	0.18292	0.46134	0.65683	-0.552
Mof_C 	C 	0.473	0.2483	0.7443	-0.023
Mof_C 	C 	0.4422	0.1933	0.7544	0.16
Mof_C 	C 	0.3934	0.1952	0.7434	-0.088
Mof_H 	H 	0.3736	0.1559	0.7488	0.039
Mof_C 	C 	0.3721	0.2531	0.72449	-0.111
Mof_C 	C 	0.40303	0.3082	0.7147	0.009
Mof_H 	H 	0.3899	0.3482	0.7014	0.017
Mof_C 	C 	0.453	0.3052	0.72423	-0.067
Mof_H 	H 	0.4736	0.3428	0.7168	0.06
Mof_O 	O 	0.46	0.1362	0.7756	-0.376
Mof_H 	H 	0.4753	0.1112	0.7583	0.2
Mof_C 	C 	0.3182	0.2555	0.71503	0.396
Mof_O 	O 	0.29718	0.19733	0.71204	-0.544
Mof_O 	O 	0.29713	0.31131	0.71161	-0.474
Mof_O 	O 	0.27479	0.52191	0.61496	-0.476
Mof_C 	C 	0.3127	0.5532	0.60627	0.298
Mof_H 	H 	0.3272	0.5801	0.6283	-0.097
Mof_N 	N 	0.33498	0.5522	0.56843	-0.113
Mof_C 	C 	0.3151	0.511	0.5337	-0.236
Mof_H 	H 	0.3412	0.4827	0.5213	0.11
Mof_H 	H 	0.3016	0.5413	0.5116	0.097
Mof_H 	H 	0.2892	0.4811	0.5448	0.08
Mof_C 	C 	0.3819	0.5896	0.5614	-0.272
Mof_H 	H 	0.3885	0.6196	0.5861	0.097
Mof_H 	H 	0.3794	0.6176	0.5354	0.112
Mof_H 	H 	0.4086	0.5564	0.5583	0.122
Mof_Sr	Sr	0.78847	0.42002	0.32608	1.365
Mof_Sr	Sr	0.70912	0.26572	0.30131	1.493
Mof_Sr	Sr	0.77195	0.09955	0.35052	1.556
Mof_C 	C 	0.6753	0.2424	0.06519	-0.047
Mof_C 	C 	0.6284	0.2508	0.0809	0.205
Mof_C 	C 	0.6197	0.2555	0.12412	-0.132
Mof_H 	H 	0.587	0.2611	0.1339	0.104
Mof_C 	C 	0.6569	0.2524	0.15384	-0.041
Mof_C 	C 	0.7043	0.2465	0.1389	-0.031
Mof_H 	H 	0.7308	0.2456	0.1586	0.042
Mof_C 	C 	0.7134	0.2417	0.0957	-0.034
Mof_H 	H 	0.7463	0.2379	0.086	0.043
Mof_O 	O 	0.58874	0.2557	0.05413	-0.36
Mof_H 	H 	0.5853	0.2186	0.0406	0.22
Mof_C 	C 	0.6464	0.2578	0.20123	0.352
Mof_O 	O 	0.603	0.26758	0.21261	-0.333
Mof_O 	O 	0.68166	0.2517	0.2265	-0.437
Mof_C 	C 	0.6875	0.2352	0.01817	-0.018
Mof_C 	C 	0.6709	0.28	0.98677	0.166
Mof_C 	C 	0.6873	0.2753	0.94523	-0.103
Mof_H 	H 	0.6765	0.3077	0.9245	0.04
Mof_C 	C 	0.7197	0.2232	0.93331	-0.122
Mof_C 	C 	0.735	0.1764	0.964	0
Mof_H 	H 	0.7559	0.1396	0.956	0.024
Mof_C 	C 	0.7201	0.183	0.0057	-0.075
Mof_H 	H 	0.7321	0.1517	0.0266	0.051
Mof_O 	O 	0.63799	0.3301	0.99853	-0.369
Mof_H 	H 	0.6312	0.3546	0.9771	0.255
Mof_C 	C 	0.7397	0.2225	0.88889	0.397
Mof_O 	O 	0.74117	0.27764	0.86851	-0.565
Mof_O 	O 	0.75501	0.16679	0.87286	-0.512
Mof_C 	C 	0.57009	0.5049	0.19867	-0.026
Mof_C 	C 	0.5814	0.437	0.21096	0.18
Mof_C 	C 	0.62076	0.4225	0.23722	-0.104
Mof_H 	H 	0.6266	0.3764	0.2459	0.056
Mof_C 	C 	0.65214	0.4746	0.25116	-0.103
Mof_C 	C 	0.6424	0.5418	0.23818	0.006
Mof_H 	H 	0.6638	0.5778	0.2468	0.022
Mof_C 	C 	0.6024	0.5567	0.21294	-0.077
Mof_H 	H 	0.5964	0.6031	0.2049	0.059
Mof_O 	O 	0.55138	0.3857	0.19655	-0.39
Mof_H 	H 	0.5631	0.3474	0.2035	0.256
Mof_C 	C 	0.6951	0.458	0.27886	0.392
Mof_O 	O 	0.70496	0.39542	0.28691	-0.525
Mof_O 	O 	0.72039	0.50701	0.29367	-0.521
Mof_C 	C 	0.52597	0.5228	0.17267	-0.035
Mof_C 	C 	0.53053	0.564	0.13587	0.186
Mof_C 	C 	0.48821	0.5847	0.11347	-0.114
Mof_H 	H 	0.4917	0.6124	0.0885	0.099
Mof_C 	C 	0.44187	0.5659	0.12679	-0.05
Mof_C 	C 	0.43739	0.5255	0.16331	-0.024
Mof_H 	H 	0.4059	0.5126	0.1733	0.031
Mof_C 	C 	0.4792	0.5038	0.18533	-0.038
Mof_H 	H 	0.4755	0.4751	0.2098	0.061
Mof_O 	O 	0.5761	0.5836	0.12155	-0.38
Mof_H 	H 	0.5977	0.5677	0.138	0.228
Mof_C 	C 	0.39732	0.5909	0.10222	0.347
Mof_O 	O 	0.35677	0.59364	0.12132	-0.437
Mof_O 	O 	0.40485	0.6088	0.06402	-0.29
Mof_C 	C 	0.5247	0.0672	0.26	-0.013
Mof_C 	C 	0.5562	0.1206	0.2501	0.183
Mof_C 	C 	0.6016	0.1271	0.2709	-0.093
Mof_H 	H 	0.6226	0.1645	0.2641	0.044
Mof_C 	C 	0.61588	0.0793	0.3012	-0.124
Mof_C 	C 	0.585	0.0247	0.3121	0.009
Mof_H 	H 	0.5944	0.992	0.3332	-0.013
Mof_C 	C 	0.5395	0.0194	0.291	-0.075
Mof_H 	H 	0.5183	0.9824	0.2981	0.054
Mof_O 	O 	0.54185	0.1646	0.2185	-0.387
Mof_H 	H 	0.5595	0.2	0.219	0.26
Mof_C 	C 	0.66564	0.0869	0.32143	0.395
Mof_O 	O 	0.68962	0.14167	0.31402	-0.551
Mof_O 	O 	0.68292	0.03866	0.34317	-0.552
Mof_C 	C 	0.973	0.2517	0.2557	-0.023
Mof_C 	C 	0.9422	0.3067	0.2456	0.16
Mof_C 	C 	0.8934	0.3048	0.2566	-0.088
Mof_H 	H 	0.8736	0.3441	0.2512	0.039
Mof_C 	C 	0.8721	0.2469	0.27551	-0.111
Mof_C 	C 	0.90303	0.1918	0.2853	0.009
Mof_H 	H 	0.8899	0.1518	0.2986	0.017
Mof_C 	C 	0.953	0.1948	0.27577	-0.067
Mof_H 	H 	0.9736	0.1572	0.2832	0.06
Mof_O 	O 	0.96	0.3638	0.2244	-0.376
Mof_H 	H 	0.9753	0.3888	0.2417	0.2
Mof_C 	C 	0.8182	0.2445	0.28497	0.396
Mof_O 	O 	0.79718	0.30267	0.28796	-0.544
Mof_O 	O 	0.79713	0.18869	0.28839	-0.474
Mof_O 	O 	0.77479	0.97809	0.38504	-0.476
Mof_C 	C 	0.8127	0.9468	0.39373	0.298
Mof_H 	H 	0.8272	0.9199	0.3717	-0.097
Mof_N 	N 	0.83498	0.9478	0.43157	-0.113
Mof_C 	C 	0.8151	0.989	0.4663	-0.236
Mof_H 	H 	0.8412	0.0173	0.4787	0.11
Mof_H 	H 	0.8016	0.9587	0.4884	0.097
Mof_H 	H 	0.7892	0.0189	0.4552	0.08
Mof_C 	C 	0.8819	0.9104	0.4386	-0.272
Mof_H 	H 	0.8885	0.8804	0.4139	0.097
Mof_H 	H 	0.8794	0.8824	0.4646	0.112
Mof_H 	H 	0.9086	0.9436	0.4417	0.121
Mof_Sr	Sr	0.71153	0.07998	0.82608	1.365
Mof_Sr	Sr	0.79088	0.23428	0.80131	1.493
Mof_Sr	Sr	0.72805	0.40045	0.85052	1.556
Mof_C 	C 	0.8247	0.2576	0.56519	-0.047
Mof_C 	C 	0.8716	0.2492	0.5809	0.205
Mof_C 	C 	0.8803	0.2445	0.62412	-0.132
Mof_H 	H 	0.913	0.2389	0.6339	0.104
Mof_C 	C 	0.8431	0.2476	0.65384	-0.041
Mof_C 	C 	0.7957	0.2535	0.6389	-0.031
Mof_H 	H 	0.7692	0.2544	0.6586	0.042
Mof_C 	C 	0.7866	0.2583	0.5957	-0.034
Mof_H 	H 	0.7537	0.2621	0.586	0.043
Mof_O 	O 	0.91126	0.2443	0.55413	-0.36
Mof_H 	H 	0.9147	0.2814	0.5406	0.22
Mof_C 	C 	0.8536	0.2422	0.70123	0.352
Mof_O 	O 	0.897	0.23242	0.71261	-0.333
Mof_O 	O 	0.81834	0.2483	0.7265	-0.437
Mof_C 	C 	0.8125	0.2648	0.51817	-0.018
Mof_C 	C 	0.8291	0.22	0.48677	0.166
Mof_C 	C 	0.8127	0.2247	0.44523	-0.103
Mof_H 	H 	0.8235	0.1923	0.4245	0.04
Mof_C 	C 	0.7803	0.2768	0.43331	-0.122
Mof_C 	C 	0.765	0.3236	0.464	0.001
Mof_H 	H 	0.7441	0.3604	0.456	0.024
Mof_C 	C 	0.7799	0.317	0.5057	-0.075
Mof_H 	H 	0.7679	0.3483	0.5266	0.051
Mof_O 	O 	0.86201	0.1699	0.49853	-0.368
Mof_H 	H 	0.8688	0.1454	0.4771	0.255
Mof_C 	C 	0.7603	0.2775	0.38889	0.397
Mof_O 	O 	0.75883	0.22236	0.36851	-0.565
Mof_O 	O 	0.74499	0.33321	0.37286	-0.512
Mof_C 	C 	0.92991	0.9951	0.69867	-0.026
Mof_C 	C 	0.9186	0.063	0.71096	0.18
Mof_C 	C 	0.87924	0.0775	0.73722	-0.104
Mof_H 	H 	0.8734	0.1236	0.7459	0.056
Mof_C 	C 	0.84786	0.0254	0.75116	-0.103
Mof_C 	C 	0.8576	0.9582	0.73818	0.006
Mof_H 	H 	0.8362	0.9222	0.7468	0.021
Mof_C 	C 	0.8976	0.9433	0.71294	-0.077
Mof_H 	H 	0.9036	0.8969	0.7049	0.059
Mof_O 	O 	0.94862	0.1143	0.69655	-0.39
Mof_H 	H 	0.9369	0.1526	0.7035	0.256
Mof_C 	C 	0.8049	0.042	0.77886	0.392
Mof_O 	O 	0.79504	0.10458	0.78691	-0.525
Mof_O 	O 	0.77961	0.99299	0.79367	-0.521
Mof_C 	C 	0.97403	0.9772	0.67267	-0.036
Mof_C 	C 	0.96947	0.936	0.63587	0.186
Mof_C 	C 	0.01179	0.9153	0.61347	-0.114
Mof_H 	H 	0.0083	0.8876	0.5885	0.099
Mof_C 	C 	0.05813	0.9341	0.62679	-0.049
Mof_C 	C 	0.06261	0.9745	0.66331	-0.025
Mof_H 	H 	0.0941	0.9874	0.6733	0.031
Mof_C 	C 	0.0208	0.9962	0.68533	-0.037
Mof_H 	H 	0.0245	0.0249	0.7098	0.061
Mof_O 	O 	0.9239	0.9164	0.62155	-0.38
Mof_H 	H 	0.9023	0.9323	0.638	0.228
Mof_C 	C 	0.10268	0.9091	0.60222	0.347
Mof_O 	O 	0.14323	0.90636	0.62132	-0.437
Mof_O 	O 	0.09515	0.8912	0.56402	-0.29
Mof_C 	C 	0.9753	0.4328	0.76	-0.014
Mof_C 	C 	0.9438	0.3794	0.7501	0.183
Mof_C 	C 	0.8984	0.3729	0.7709	-0.094
Mof_H 	H 	0.8774	0.3355	0.7641	0.044
Mof_C 	C 	0.88412	0.4207	0.8012	-0.124
Mof_C 	C 	0.915	0.4753	0.8121	0.009
Mof_H 	H 	0.9056	0.508	0.8332	-0.013
Mof_C 	C 	0.9605	0.4806	0.791	-0.075
Mof_H 	H 	0.9817	0.5176	0.7981	0.054
Mof_O 	O 	0.95815	0.3354	0.7185	-0.387
Mof_H 	H 	0.9405	0.3	0.719	0.26
Mof_C 	C 	0.83436	0.4131	0.82143	0.395
Mof_O 	O 	0.81038	0.35833	0.81402	-0.551
Mof_O 	O 	0.81708	0.46134	0.84317	-0.552
Mof_C 	C 	0.527	0.2483	0.7557	-0.023
Mof_C 	C 	0.5578	0.1933	0.7456	0.16
Mof_C 	C 	0.6066	0.1952	0.7566	-0.088
Mof_H 	H 	0.6264	0.1559	0.7512	0.039
Mof_C 	C 	0.6279	0.2531	0.77551	-0.111
Mof_C 	C 	0.59697	0.3082	0.7853	0.009
Mof_H 	H 	0.6101	0.3482	0.7986	0.017
Mof_C 	C 	0.547	0.3052	0.77577	-0.067
Mof_H 	H 	0.5264	0.3428	0.7832	0.06
Mof_O 	O 	0.54	0.1362	0.7244	-0.375
Mof_H 	H 	0.5247	0.1112	0.7417	0.2
Mof_C 	C 	0.6818	0.2555	0.78497	0.396
Mof_O 	O 	0.70282	0.19733	0.78796	-0.544
Mof_O 	O 	0.70287	0.31131	0.78839	-0.474
Mof_O 	O 	0.72521	0.52191	0.88504	-0.476
Mof_C 	C 	0.6873	0.5532	0.89373	0.298
Mof_H 	H 	0.6728	0.5801	0.8717	-0.097
Mof_N 	N 	0.66502	0.5522	0.93157	-0.113
Mof_C 	C 	0.6849	0.511	0.9663	-0.236
Mof_H 	H 	0.6588	0.4827	0.9787	0.11
Mof_H 	H 	0.6984	0.5413	0.9884	0.097
Mof_H 	H 	0.7108	0.4811	0.9552	0.08
Mof_C 	C 	0.6181	0.5896	0.9386	-0.272
Mof_H 	H 	0.6115	0.6196	0.9139	0.097
Mof_H 	H 	0.6206	0.6176	0.9646	0.112
Mof_H 	H 	0.5914	0.5564	0.9417	0.122
Mof_Sr	Sr	0.78847	0.57998	0.82608	1.365
Mof_Sr	Sr	0.70912	0.73428	0.80131	1.493
Mof_Sr	Sr	0.77195	0.90045	0.85052	1.556
Mof_C 	C 	0.6753	0.7576	0.56519	-0.047
Mof_C 	C 	0.6284	0.7492	0.5809	0.205
Mof_C 	C 	0.6197	0.7445	0.62412	-0.132
Mof_H 	H 	0.587	0.7389	0.6339	0.104
Mof_C 	C 	0.6569	0.7476	0.65384	-0.041
Mof_C 	C 	0.7043	0.7535	0.6389	-0.031
Mof_H 	H 	0.7308	0.7544	0.6586	0.042
Mof_C 	C 	0.7134	0.7583	0.5957	-0.034
Mof_H 	H 	0.7463	0.7621	0.586	0.043
Mof_O 	O 	0.58874	0.7443	0.55413	-0.36
Mof_H 	H 	0.5853	0.7814	0.5406	0.22
Mof_C 	C 	0.6464	0.7422	0.70123	0.352
Mof_O 	O 	0.603	0.73242	0.71261	-0.333
Mof_O 	O 	0.68166	0.7483	0.7265	-0.437
Mof_C 	C 	0.6875	0.7648	0.51817	-0.018
Mof_C 	C 	0.6709	0.72	0.48677	0.166
Mof_C 	C 	0.6873	0.7247	0.44523	-0.103
Mof_H 	H 	0.6765	0.6923	0.4245	0.04
Mof_C 	C 	0.7197	0.7768	0.43331	-0.122
Mof_C 	C 	0.735	0.8236	0.464	0.001
Mof_H 	H 	0.7559	0.8604	0.456	0.024
Mof_C 	C 	0.7201	0.817	0.5057	-0.075
Mof_H 	H 	0.7321	0.8483	0.5266	0.051
Mof_O 	O 	0.63799	0.6699	0.49853	-0.368
Mof_H 	H 	0.6312	0.6454	0.4771	0.255
Mof_C 	C 	0.7397	0.7775	0.38889	0.397
Mof_O 	O 	0.74117	0.72236	0.36851	-0.565
Mof_O 	O 	0.75501	0.83321	0.37286	-0.512
Mof_C 	C 	0.57009	0.4951	0.69867	-0.026
Mof_C 	C 	0.5814	0.563	0.71096	0.18
Mof_C 	C 	0.62076	0.5775	0.73722	-0.104
Mof_H 	H 	0.6266	0.6236	0.7459	0.056
Mof_C 	C 	0.65214	0.5254	0.75116	-0.103
Mof_C 	C 	0.6424	0.4582	0.73818	0.006
Mof_H 	H 	0.6638	0.4222	0.7468	0.022
Mof_C 	C 	0.6024	0.4433	0.71294	-0.077
Mof_H 	H 	0.5964	0.3969	0.7049	0.059
Mof_O 	O 	0.55138	0.6143	0.69655	-0.39
Mof_H 	H 	0.5631	0.6526	0.7035	0.256
Mof_C 	C 	0.6951	0.542	0.77886	0.392
Mof_O 	O 	0.70496	0.60458	0.78691	-0.525
Mof_O 	O 	0.72039	0.49299	0.79367	-0.521
Mof_C 	C 	0.52597	0.4772	0.67267	-0.035
Mof_C 	C 	0.53053	0.436	0.63587	0.186
Mof_C 	C 	0.48821	0.4153	0.61347	-0.114
Mof_H 	H 	0.4917	0.3876	0.5885	0.099
Mof_C 	C 	0.44187	0.4341	0.62679	-0.049
Mof_C 	C 	0.43739	0.4745	0.66331	-0.024
Mof_H 	H 	0.4059	0.4874	0.6733	0.031
Mof_C 	C 	0.4792	0.4962	0.68533	-0.038
Mof_H 	H 	0.4755	0.5249	0.7098	0.061
Mof_O 	O 	0.5761	0.4164	0.62155	-0.38
Mof_H 	H 	0.5977	0.4323	0.638	0.228
Mof_C 	C 	0.39732	0.4091	0.60222	0.347
Mof_O 	O 	0.35677	0.40636	0.62132	-0.437
Mof_O 	O 	0.40485	0.3912	0.56402	-0.29
Mof_C 	C 	0.5247	0.9328	0.76	-0.013
Mof_C 	C 	0.5562	0.8794	0.7501	0.183
Mof_C 	C 	0.6016	0.8729	0.7709	-0.093
Mof_H 	H 	0.6226	0.8355	0.7641	0.044
Mof_C 	C 	0.61588	0.9207	0.8012	-0.124
Mof_C 	C 	0.585	0.9753	0.8121	0.009
Mof_H 	H 	0.5944	0.008	0.8332	-0.013
Mof_C 	C 	0.5395	0.9806	0.791	-0.075
Mof_H 	H 	0.5183	0.0176	0.7981	0.054
Mof_O 	O 	0.54185	0.8354	0.7185	-0.387
Mof_H 	H 	0.5595	0.8	0.719	0.26
Mof_C 	C 	0.66564	0.9131	0.82143	0.395
Mof_O 	O 	0.68962	0.85833	0.81402	-0.551
Mof_O 	O 	0.68292	0.96134	0.84317	-0.552
Mof_C 	C 	0.973	0.7483	0.7557	-0.023
Mof_C 	C 	0.9422	0.6933	0.7456	0.16
Mof_C 	C 	0.8934	0.6952	0.7566	-0.088
Mof_H 	H 	0.8736	0.6559	0.7512	0.039
Mof_C 	C 	0.8721	0.7531	0.77551	-0.111
Mof_C 	C 	0.90303	0.8082	0.7853	0.009
Mof_H 	H 	0.8899	0.8482	0.7986	0.017
Mof_C 	C 	0.953	0.8052	0.77577	-0.066
Mof_H 	H 	0.9736	0.8428	0.7832	0.06
Mof_O 	O 	0.96	0.6362	0.7244	-0.376
Mof_H 	H 	0.9753	0.6112	0.7417	0.2
Mof_C 	C 	0.8182	0.7555	0.78497	0.396
Mof_O 	O 	0.79718	0.69733	0.78796	-0.544
Mof_O 	O 	0.79713	0.81131	0.78839	-0.474
Mof_O 	O 	0.77479	0.02191	0.88504	-0.477
Mof_C 	C 	0.8127	0.0532	0.89373	0.298
Mof_H 	H 	0.8272	0.0801	0.8717	-0.097
Mof_N 	N 	0.83498	0.0522	0.93157	-0.113
Mof_C 	C 	0.8151	0.011	0.9663	-0.238
Mof_H 	H 	0.8412	0.9827	0.9787	0.111
Mof_H 	H 	0.8016	0.0413	0.9884	0.098
Mof_H 	H 	0.7892	0.9811	0.9552	0.08
Mof_C 	C 	0.8819	0.0896	0.9386	-0.272
Mof_H 	H 	0.8885	0.1196	0.9139	0.097
Mof_H 	H 	0.8794	0.1176	0.9646	0.112
Mof_H 	H 	0.9086	0.0564	0.9417	0.121
Mof_Sr	Sr	0.71153	0.92002	0.32608	1.365
Mof_Sr	Sr	0.79088	0.76572	0.30131	1.493
Mof_Sr	Sr	0.72805	0.59955	0.35052	1.556
Mof_C 	C 	0.8247	0.7424	0.06519	-0.047
Mof_C 	C 	0.8716	0.7508	0.0809	0.205
Mof_C 	C 	0.8803	0.7555	0.12412	-0.132
Mof_H 	H 	0.913	0.7611	0.1339	0.104
Mof_C 	C 	0.8431	0.7524	0.15384	-0.041
Mof_C 	C 	0.7957	0.7465	0.1389	-0.031
Mof_H 	H 	0.7692	0.7456	0.1586	0.042
Mof_C 	C 	0.7866	0.7417	0.0957	-0.034
Mof_H 	H 	0.7537	0.7379	0.086	0.043
Mof_O 	O 	0.91126	0.7557	0.05413	-0.36
Mof_H 	H 	0.9147	0.7186	0.0406	0.22
Mof_C 	C 	0.8536	0.7578	0.20123	0.352
Mof_O 	O 	0.897	0.76758	0.21261	-0.333
Mof_O 	O 	0.81834	0.7517	0.2265	-0.437
Mof_C 	C 	0.8125	0.7352	0.01817	-0.018
Mof_C 	C 	0.8291	0.78	0.98677	0.166
Mof_C 	C 	0.8127	0.7753	0.94523	-0.103
Mof_H 	H 	0.8235	0.8077	0.9245	0.04
Mof_C 	C 	0.7803	0.7232	0.93331	-0.122
Mof_C 	C 	0.765	0.6764	0.964	0.001
Mof_H 	H 	0.7441	0.6396	0.956	0.024
Mof_C 	C 	0.7799	0.683	0.0057	-0.075
Mof_H 	H 	0.7679	0.6517	0.0266	0.052
Mof_O 	O 	0.86201	0.8301	0.99853	-0.369
Mof_H 	H 	0.8688	0.8546	0.9771	0.255
Mof_C 	C 	0.7603	0.7225	0.88889	0.397
Mof_O 	O 	0.75883	0.77764	0.86851	-0.565
Mof_O 	O 	0.74499	0.66679	0.87286	-0.512
Mof_C 	C 	0.92991	0.0049	0.19867	-0.026
Mof_C 	C 	0.9186	0.937	0.21096	0.18
Mof_C 	C 	0.87924	0.9225	0.23722	-0.104
Mof_H 	H 	0.8734	0.8764	0.2459	0.056
Mof_C 	C 	0.84786	0.9746	0.25116	-0.103
Mof_C 	C 	0.8576	0.0418	0.23818	0.006
Mof_H 	H 	0.8362	0.0778	0.2468	0.021
Mof_C 	C 	0.8976	0.0567	0.21294	-0.077
Mof_H 	H 	0.9036	0.1031	0.2049	0.059
Mof_O 	O 	0.94862	0.8857	0.19655	-0.39
Mof_H 	H 	0.9369	0.8474	0.2035	0.256
Mof_C 	C 	0.8049	0.958	0.27886	0.392
Mof_O 	O 	0.79504	0.89542	0.28691	-0.525
Mof_O 	O 	0.77961	0.00701	0.29367	-0.521
Mof_C 	C 	0.97403	0.0228	0.17267	-0.036
Mof_C 	C 	0.96947	0.064	0.13587	0.186
Mof_C 	C 	0.01179	0.0847	0.11347	-0.114
Mof_H 	H 	0.0083	0.1124	0.0885	0.099
Mof_C 	C 	0.05813	0.0659	0.12679	-0.049
Mof_C 	C 	0.06261	0.0255	0.16331	-0.025
Mof_H 	H 	0.0941	0.0126	0.1733	0.031
Mof_C 	C 	0.0208	0.0038	0.18533	-0.037
Mof_H 	H 	0.0245	0.9751	0.2098	0.061
Mof_O 	O 	0.9239	0.0836	0.12155	-0.38
Mof_H 	H 	0.9023	0.0677	0.138	0.228
Mof_C 	C 	0.10268	0.0909	0.10222	0.347
Mof_O 	O 	0.14323	0.09364	0.12132	-0.437
Mof_O 	O 	0.09515	0.1088	0.06402	-0.29
Mof_C 	C 	0.9753	0.5672	0.26	-0.013
Mof_C 	C 	0.9438	0.6206	0.2501	0.183
Mof_C 	C 	0.8984	0.6271	0.2709	-0.093
Mof_H 	H 	0.8774	0.6645	0.2641	0.044
Mof_C 	C 	0.88412	0.5793	0.3012	-0.124
Mof_C 	C 	0.915	0.5247	0.3121	0.009
Mof_H 	H 	0.9056	0.492	0.3332	-0.013
Mof_C 	C 	0.9605	0.5194	0.291	-0.075
Mof_H 	H 	0.9817	0.4824	0.2981	0.054
Mof_O 	O 	0.95815	0.6646	0.2185	-0.387
Mof_H 	H 	0.9405	0.7	0.219	0.26
Mof_C 	C 	0.83436	0.5869	0.32143	0.395
Mof_O 	O 	0.81038	0.64167	0.31402	-0.551
Mof_O 	O 	0.81708	0.53866	0.34317	-0.552
Mof_C 	C 	0.527	0.7517	0.2557	-0.023
Mof_C 	C 	0.5578	0.8067	0.2456	0.16
Mof_C 	C 	0.6066	0.8048	0.2566	-0.088
Mof_H 	H 	0.6264	0.8441	0.2512	0.039
Mof_C 	C 	0.6279	0.7469	0.27551	-0.111
Mof_C 	C 	0.59697	0.6918	0.2853	0.009
Mof_H 	H 	0.6101	0.6518	0.2986	0.017
Mof_C 	C 	0.547	0.6948	0.27577	-0.067
Mof_H 	H 	0.5264	0.6572	0.2832	0.06
Mof_O 	O 	0.54	0.8638	0.2244	-0.376
Mof_H 	H 	0.5247	0.8888	0.2417	0.2
Mof_C 	C 	0.6818	0.7445	0.28497	0.396
Mof_O 	O 	0.70282	0.80267	0.28796	-0.544
Mof_O 	O 	0.70287	0.68869	0.28839	-0.474
Mof_O 	O 	0.72521	0.47809	0.38504	-0.476
Mof_C 	C 	0.6873	0.4468	0.39373	0.298
Mof_H 	H 	0.6728	0.4199	0.3717	-0.097
Mof_N 	N 	0.66502	0.4478	0.43157	-0.113
Mof_C 	C 	0.6849	0.489	0.4663	-0.236
Mof_H 	H 	0.6588	0.5173	0.4787	0.11
Mof_H 	H 	0.6984	0.4587	0.4884	0.097
Mof_H 	H 	0.7108	0.5189	0.4552	0.08
Mof_C 	C 	0.6181	0.4104	0.4386	-0.272
Mof_H 	H 	0.6115	0.3804	0.4139	0.097
Mof_H 	H 	0.6206	0.3824	0.4646	0.112
Mof_H 	H 	0.5914	0.4436	0.4417	0.122
Mof_Sr	Sr	0.21153	0.57998	0.67392	1.365
Mof_Sr	Sr	0.29088	0.73428	0.69869	1.493
Mof_Sr	Sr	0.22805	0.90045	0.64948	1.556
Mof_C 	C 	0.3247	0.7576	0.93481	-0.047
Mof_C 	C 	0.3716	0.7492	0.9191	0.205
Mof_C 	C 	0.3803	0.7445	0.87588	-0.132
Mof_H 	H 	0.413	0.7389	0.8661	0.104
Mof_C 	C 	0.3431	0.7476	0.84616	-0.041
Mof_C 	C 	0.2957	0.7535	0.8611	-0.031
Mof_H 	H 	0.2692	0.7544	0.8414	0.042
Mof_C 	C 	0.2866	0.7583	0.9043	-0.034
Mof_H 	H 	0.2537	0.7621	0.914	0.043
Mof_O 	O 	0.41126	0.7443	0.94587	-0.36
Mof_H 	H 	0.4147	0.7814	0.9594	0.22
Mof_C 	C 	0.3536	0.7422	0.79877	0.352
Mof_O 	O 	0.397	0.73242	0.78739	-0.333
Mof_O 	O 	0.31834	0.7483	0.7735	-0.437
Mof_C 	C 	0.3125	0.7648	0.98183	-0.018
Mof_C 	C 	0.3291	0.72	0.01323	0.166
Mof_C 	C 	0.3127	0.7247	0.05477	-0.103
Mof_H 	H 	0.3235	0.6923	0.0755	0.04
Mof_C 	C 	0.2803	0.7768	0.06669	-0.122
Mof_C 	C 	0.265	0.8236	0.036	0
Mof_H 	H 	0.2441	0.8604	0.044	0.024
Mof_C 	C 	0.2799	0.817	0.9943	-0.075
Mof_H 	H 	0.2679	0.8483	0.9734	0.051
Mof_O 	O 	0.36201	0.6699	0.00147	-0.369
Mof_H 	H 	0.3688	0.6454	0.0229	0.255
Mof_C 	C 	0.2603	0.7775	0.11111	0.397
Mof_O 	O 	0.25883	0.72236	0.13149	-0.565
Mof_O 	O 	0.24499	0.83321	0.12714	-0.512
Mof_C 	C 	0.42991	0.4951	0.80133	-0.026
Mof_C 	C 	0.4186	0.563	0.78904	0.18
Mof_C 	C 	0.37924	0.5775	0.76278	-0.104
Mof_H 	H 	0.3734	0.6236	0.7541	0.056
Mof_C 	C 	0.34786	0.5254	0.74884	-0.103
Mof_C 	C 	0.3576	0.4582	0.76182	0.006
Mof_H 	H 	0.3362	0.4222	0.7532	0.022
Mof_C 	C 	0.3976	0.4433	0.78706	-0.077
Mof_H 	H 	0.4036	0.3969	0.7951	0.059
Mof_O 	O 	0.44862	0.6143	0.80345	-0.39
Mof_H 	H 	0.4369	0.6526	0.7965	0.256
Mof_C 	C 	0.3049	0.542	0.72114	0.392
Mof_O 	O 	0.29504	0.60458	0.71309	-0.525
Mof_O 	O 	0.27961	0.49299	0.70633	-0.521
Mof_C 	C 	0.47403	0.4772	0.82733	-0.035
Mof_C 	C 	0.46947	0.436	0.86413	0.186
Mof_C 	C 	0.51179	0.4153	0.88653	-0.114
Mof_H 	H 	0.5083	0.3876	0.9115	0.099
Mof_C 	C 	0.55813	0.4341	0.87321	-0.05
Mof_C 	C 	0.56261	0.4745	0.83669	-0.024
Mof_H 	H 	0.5941	0.4874	0.8267	0.031
Mof_C 	C 	0.5208	0.4962	0.81467	-0.038
Mof_H 	H 	0.5245	0.5249	0.7902	0.061
Mof_O 	O 	0.4239	0.4164	0.87845	-0.38
Mof_H 	H 	0.4023	0.4323	0.862	0.228
Mof_C 	C 	0.60268	0.4091	0.89778	0.347
Mof_O 	O 	0.64323	0.40636	0.87868	-0.437
Mof_O 	O 	0.59515	0.3912	0.93598	-0.29
Mof_C 	C 	0.4753	0.9328	0.74	-0.013
Mof_C 	C 	0.4438	0.8794	0.7499	0.183
Mof_C 	C 	0.3984	0.8729	0.7291	-0.093
Mof_H 	H 	0.3774	0.8355	0.7359	0.044
Mof_C 	C 	0.38412	0.9207	0.6988	-0.124
Mof_C 	C 	0.415	0.9753	0.6879	0.009
Mof_H 	H 	0.4056	0.008	0.6668	-0.013
Mof_C 	C 	0.4605	0.9806	0.709	-0.075
Mof_H 	H 	0.4817	0.0176	0.7019	0.054
Mof_O 	O 	0.45815	0.8354	0.7815	-0.387
Mof_H 	H 	0.4405	0.8	0.781	0.26
Mof_C 	C 	0.33436	0.9131	0.67857	0.395
Mof_O 	O 	0.31038	0.85833	0.68598	-0.551
Mof_O 	O 	0.31708	0.96134	0.65683	-0.552
Mof_C 	C 	0.027	0.7483	0.7443	-0.023
Mof_C 	C 	0.0578	0.6933	0.7544	0.16
Mof_C 	C 	0.1066	0.6952	0.7434	-0.088
Mof_H 	H 	0.1264	0.6559	0.7488	0.039
Mof_C 	C 	0.1279	0.7531	0.72449	-0.111
Mof_C 	C 	0.09697	0.8082	0.7147	0.009
Mof_H 	H 	0.1101	0.8482	0.7014	0.017
Mof_C 	C 	0.047	0.8052	0.72423	-0.067
Mof_H 	H 	0.0264	0.8428	0.7168	0.06
Mof_O 	O 	0.04	0.6362	0.7756	-0.376
Mof_H 	H 	0.0247	0.6112	0.7583	0.2
Mof_C 	C 	0.1818	0.7555	0.71503	0.396
Mof_O 	O 	0.20282	0.69733	0.71204	-0.544
Mof_O 	O 	0.20287	0.81131	0.71161	-0.474
Mof_O 	O 	0.22521	0.02191	0.61496	-0.476
Mof_C 	C 	0.1873	0.0532	0.60627	0.298
Mof_H 	H 	0.1728	0.0801	0.6283	-0.097
Mof_N 	N 	0.16502	0.0522	0.56843	-0.113
Mof_C 	C 	0.1849	0.011	0.5337	-0.236
Mof_H 	H 	0.1588	0.9827	0.5213	0.11
Mof_H 	H 	0.1984	0.0413	0.5116	0.097
Mof_H 	H 	0.2108	0.9811	0.5448	0.08
Mof_C 	C 	0.1181	0.0896	0.5614	-0.272
Mof_H 	H 	0.1115	0.1196	0.5861	0.097
Mof_H 	H 	0.1206	0.1176	0.5354	0.112
Mof_H 	H 	0.0914	0.0564	0.5583	0.121
Mof_Sr	Sr	0.28847	0.92002	0.17392	1.365
Mof_Sr	Sr	0.20912	0.76572	0.19869	1.493
Mof_Sr	Sr	0.27195	0.59955	0.14948	1.556
Mof_C 	C 	0.1753	0.7424	0.43481	-0.047
Mof_C 	C 	0.1284	0.7508	0.4191	0.205
Mof_C 	C 	0.1197	0.7555	0.37588	-0.132
Mof_H 	H 	0.087	0.7611	0.3661	0.104
Mof_C 	C 	0.1569	0.7524	0.34616	-0.041
Mof_C 	C 	0.2043	0.7465	0.3611	-0.031
Mof_H 	H 	0.2308	0.7456	0.3414	0.042
Mof_C 	C 	0.2134	0.7417	0.4043	-0.034
Mof_H 	H 	0.2463	0.7379	0.414	0.043
Mof_O 	O 	0.08874	0.7557	0.44587	-0.36
Mof_H 	H 	0.0853	0.7186	0.4594	0.22
Mof_C 	C 	0.1464	0.7578	0.29877	0.352
Mof_O 	O 	0.103	0.76758	0.28739	-0.333
Mof_O 	O 	0.18166	0.7517	0.2735	-0.437
Mof_C 	C 	0.1875	0.7352	0.48183	-0.018
Mof_C 	C 	0.1709	0.78	0.51323	0.166
Mof_C 	C 	0.1873	0.7753	0.55477	-0.103
Mof_H 	H 	0.1765	0.8077	0.5755	0.04
Mof_C 	C 	0.2197	0.7232	0.56669	-0.122
Mof_C 	C 	0.235	0.6764	0.536	0.001
Mof_H 	H 	0.2559	0.6396	0.544	0.024
Mof_C 	C 	0.2201	0.683	0.4943	-0.075
Mof_H 	H 	0.2321	0.6517	0.4734	0.051
Mof_O 	O 	0.13799	0.8301	0.50147	-0.368
Mof_H 	H 	0.1312	0.8546	0.5229	0.255
Mof_C 	C 	0.2397	0.7225	0.61111	0.397
Mof_O 	O 	0.24117	0.77764	0.63149	-0.565
Mof_O 	O 	0.25501	0.66679	0.62714	-0.512
Mof_C 	C 	0.07009	0.0049	0.30133	-0.026
Mof_C 	C 	0.0814	0.937	0.28904	0.18
Mof_C 	C 	0.12076	0.9225	0.26278	-0.104
Mof_H 	H 	0.1266	0.8764	0.2541	0.056
Mof_C 	C 	0.15214	0.9746	0.24884	-0.103
Mof_C 	C 	0.1424	0.0418	0.26182	0.006
Mof_H 	H 	0.1638	0.0778	0.2532	0.021
Mof_C 	C 	0.1024	0.0567	0.28706	-0.077
Mof_H 	H 	0.0964	0.1031	0.2951	0.059
Mof_O 	O 	0.05138	0.8857	0.30345	-0.39
Mof_H 	H 	0.0631	0.8474	0.2965	0.256
Mof_C 	C 	0.1951	0.958	0.22114	0.392
Mof_O 	O 	0.20496	0.89542	0.21309	-0.525
Mof_O 	O 	0.22039	0.00701	0.20633	-0.521
Mof_C 	C 	0.02597	0.0228	0.32733	-0.036
Mof_C 	C 	0.03053	0.064	0.36413	0.186
Mof_C 	C 	0.98821	0.0847	0.38653	-0.114
Mof_H 	H 	0.9917	0.1124	0.4115	0.099
Mof_C 	C 	0.94187	0.0659	0.37321	-0.049
Mof_C 	C 	0.93739	0.0255	0.33669	-0.025
Mof_H 	H 	0.9059	0.0126	0.3267	0.031
Mof_C 	C 	0.9792	0.0038	0.31467	-0.037
Mof_H 	H 	0.9755	0.9751	0.2902	0.061
Mof_O 	O 	0.0761	0.0836	0.37845	-0.38
Mof_H 	H 	0.0977	0.0677	0.362	0.228
Mof_C 	C 	0.89732	0.0909	0.39778	0.347
Mof_O 	O 	0.85677	0.09364	0.37868	-0.437
Mof_O 	O 	0.90485	0.1088	0.43598	-0.29
Mof_C 	C 	0.0247	0.5672	0.24	-0.014
Mof_C 	C 	0.0562	0.6206	0.2499	0.183
Mof_C 	C 	0.1016	0.6271	0.2291	-0.094
Mof_H 	H 	0.1226	0.6645	0.2359	0.044
Mof_C 	C 	0.11588	0.5793	0.1988	-0.124
Mof_C 	C 	0.085	0.5247	0.1879	0.009
Mof_H 	H 	0.0944	0.492	0.1668	-0.013
Mof_C 	C 	0.0395	0.5194	0.209	-0.075
Mof_H 	H 	0.0183	0.4824	0.2019	0.054
Mof_O 	O 	0.04185	0.6646	0.2815	-0.387
Mof_H 	H 	0.0595	0.7	0.281	0.26
Mof_C 	C 	0.16564	0.5869	0.17857	0.395
Mof_O 	O 	0.18962	0.64167	0.18598	-0.551
Mof_O 	O 	0.18292	0.53866	0.15683	-0.552
Mof_C 	C 	0.473	0.7517	0.2443	-0.023
Mof_C 	C 	0.4422	0.8067	0.2544	0.16
Mof_C 	C 	0.3934	0.8048	0.2434	-0.088
Mof_H 	H 	0.3736	0.8441	0.2488	0.039
Mof_C 	C 	0.3721	0.7469	0.22449	-0.111
Mof_C 	C 	0.40303	0.6918	0.2147	0.009
Mof_H 	H 	0.3899	0.6518	0.2014	0.017
Mof_C 	C 	0.453	0.6948	0.22423	-0.067
Mof_H 	H 	0.4736	0.6572	0.2168	0.06
Mof_O 	O 	0.46	0.8638	0.2756	-0.375
Mof_H 	H 	0.4753	0.8888	0.2583	0.2
Mof_C 	C 	0.3182	0.7445	0.21503	0.396
Mof_O 	O 	0.29718	0.80267	0.21204	-0.544
Mof_O 	O 	0.29713	0.68869	0.21161	-0.474
Mof_O 	O 	0.27479	0.47809	0.11496	-0.476
Mof_C 	C 	0.3127	0.4468	0.10627	0.298
Mof_H 	H 	0.3272	0.4199	0.1283	-0.097
Mof_N 	N 	0.33498	0.4478	0.06843	-0.113
Mof_C 	C 	0.3151	0.489	0.0337	-0.236
Mof_H 	H 	0.3412	0.5173	0.0213	0.11
Mof_H 	H 	0.3016	0.4587	0.0116	0.097
Mof_H 	H 	0.2892	0.5189	0.0448	0.08
Mof_C 	C 	0.3819	0.4104	0.0614	-0.272
Mof_H 	H 	0.3885	0.3804	0.0861	0.097
Mof_H 	H 	0.3794	0.3824	0.0354	0.112
Mof_H 	H 	0.4086	0.4436	0.0583	0.122
_end
