data_functionalizedCrystal
_audit_creation_method	'EQeq! by Chris Wilmer'
_symmetry_space_group_name_H-M	'P1'
_symmetry_Int_Tables_number	1
_symmetry_cell_setting	triclinic
loop_
_symmetry_equiv_pos_as_xyz
  x,y,z
_cell_length_a	35.2938
_cell_length_b	35.2938
_cell_length_c	20.341
_cell_angle_alpha	90
_cell_angle_beta	90
_cell_angle_gamma	120
loop_
_atom_site_label
_atom_site_type_symbol
_atom_site_fract_x
_atom_site_fract_y
_atom_site_fract_z
_atom_site_charge
Mof_O 	O 	0.22023	0.36256	0.4094	-0.404
Mof_O 	O 	0.23324	0.38841	0.3053	-0.404
Mof_C 	C 	0.24437	0.3878	0.36436	0.356
Mof_C 	C 	0.29086	0.42014	0.38272	-0.114
Mof_C 	C 	0.31954	0.44845	0.33483	0.052
Mof_H 	H 	0.3096	0.4477	0.2912	0.031
Mof_C 	C 	0.36264	0.47769	0.35169	-0.127
Mof_H 	H 	0.382	0.4973	0.3195	0.088
Mof_C 	C 	0.37785	0.47869	0.41478	0.093
Mof_C 	C 	0.34839	0.45066	0.4626	-0.13
Mof_H 	H 	0.358	0.4518	0.5066	0.076
Mof_C 	C 	0.30533	0.42129	0.44586	0.054
Mof_H 	H 	0.2858	0.4019	0.4781	0.029
Mof_C 	C 	0.42497	0.50605	0.43153	-0.053
Mof_C 	C 	0.4451	0.4874	0.46572	-0.048
Mof_H 	H 	0.4282	0.4575	0.4779	0.048
Mof_H 	H 	0.434	0.6113	0.4516	0.087
Mof_O 	O 	0.8869	0.69589	0.74273	-0.405
Mof_O 	O 	0.89991	0.72174	0.63863	-0.405
Mof_C 	C 	0.91104	0.72113	0.69769	0.355
Mof_C 	C 	0.95753	0.75347	0.71605	-0.115
Mof_C 	C 	0.98621	0.78178	0.66816	0.051
Mof_H 	H 	0.97627	0.78103	0.62453	0.03
Mof_C 	C 	0.02931	0.81102	0.68502	-0.128
Mof_H 	H 	0.04867	0.83063	0.65283	0.086
Mof_C 	C 	0.04452	0.81202	0.74811	0.092
Mof_C 	C 	0.01506	0.78399	0.79593	-0.131
Mof_H 	H 	0.02467	0.78513	0.83993	0.075
Mof_C 	C 	0.972	0.75462	0.77919	0.052
Mof_H 	H 	0.95247	0.73523	0.81143	0.029
Mof_C 	C 	0.09164	0.83938	0.76486	-0.054
Mof_C 	C 	0.11177	0.82073	0.79905	-0.049
Mof_H 	H 	0.09487	0.79083	0.81123	0.047
Mof_H 	H 	0.10067	0.94463	0.78493	0.087
Mof_O 	O 	0.55356	0.02923	0.07607	-0.405
Mof_O 	O 	0.56657	0.05508	0.97197	-0.405
Mof_C 	C 	0.5777	0.05447	0.03103	0.356
Mof_C 	C 	0.62419	0.08681	0.04939	-0.115
Mof_C 	C 	0.65287	0.11512	0.0015	0.051
Mof_H 	H 	0.64293	0.11437	0.95787	0.03
Mof_C 	C 	0.69597	0.14436	0.01836	-0.128
Mof_H 	H 	0.71533	0.16397	0.98617	0.086
Mof_C 	C 	0.71118	0.14536	0.08145	0.092
Mof_C 	C 	0.68172	0.11733	0.12927	-0.131
Mof_H 	H 	0.69133	0.11847	0.17327	0.075
Mof_C 	C 	0.63866	0.08796	0.11253	0.053
Mof_H 	H 	0.61913	0.06857	0.14477	0.028
Mof_C 	C 	0.7583	0.17272	0.0982	-0.054
Mof_C 	C 	0.77843	0.15407	0.13239	-0.049
Mof_H 	H 	0.76153	0.12417	0.14457	0.047
Mof_H 	H 	0.76733	0.27797	0.11827	0.087
Mof_O 	O 	0.63744	0.85767	0.4094	-0.405
Mof_O 	O 	0.61159	0.84483	0.3053	-0.405
Mof_C 	C 	0.6122	0.85657	0.36436	0.355
Mof_C 	C 	0.57986	0.87072	0.38272	-0.115
Mof_C 	C 	0.55155	0.87109	0.33483	0.051
Mof_H 	H 	0.5523	0.8619	0.2912	0.03
Mof_C 	C 	0.52231	0.88495	0.35169	-0.128
Mof_H 	H 	0.5027	0.8847	0.3195	0.087
Mof_C 	C 	0.52131	0.89916	0.41478	0.092
Mof_C 	C 	0.54934	0.89773	0.4626	-0.131
Mof_H 	H 	0.5482	0.9062	0.5066	0.075
Mof_C 	C 	0.57871	0.88404	0.44586	0.053
Mof_H 	H 	0.5981	0.8839	0.4781	0.028
Mof_C 	C 	0.49395	0.91892	0.43153	-0.054
Mof_C 	C 	0.5126	0.9577	0.46572	-0.049
Mof_H 	H 	0.5425	0.9707	0.4779	0.047
Mof_H 	H 	0.3887	0.8227	0.4516	0.087
Mof_O 	O 	0.30411	0.191	0.74273	-0.405
Mof_O 	O 	0.27826	0.17816	0.63863	-0.405
Mof_C 	C 	0.27887	0.1899	0.69769	0.355
Mof_C 	C 	0.24653	0.20405	0.71605	-0.115
Mof_C 	C 	0.21822	0.20442	0.66816	0.051
Mof_H 	H 	0.21897	0.19523	0.62453	0.03
Mof_C 	C 	0.18898	0.21828	0.68502	-0.128
Mof_H 	H 	0.16937	0.21803	0.65283	0.087
Mof_C 	C 	0.18798	0.23249	0.74811	0.092
Mof_C 	C 	0.21601	0.23106	0.79593	-0.131
Mof_H 	H 	0.21487	0.23953	0.83993	0.075
Mof_C 	C 	0.24538	0.21737	0.77919	0.053
Mof_H 	H 	0.26477	0.21723	0.81143	0.028
Mof_C 	C 	0.16062	0.25225	0.76486	-0.054
Mof_C 	C 	0.17927	0.29103	0.79905	-0.049
Mof_H 	H 	0.20917	0.30403	0.81123	0.047
Mof_H 	H 	0.05537	0.15603	0.78493	0.087
Mof_O 	O 	0.97077	0.52434	0.07607	-0.405
Mof_O 	O 	0.94492	0.5115	0.97197	-0.405
Mof_C 	C 	0.94553	0.52324	0.03103	0.356
Mof_C 	C 	0.91319	0.53739	0.04939	-0.115
Mof_C 	C 	0.88488	0.53776	0.0015	0.051
Mof_H 	H 	0.88563	0.52857	0.95787	0.03
Mof_C 	C 	0.85564	0.55162	0.01836	-0.128
Mof_H 	H 	0.83603	0.55137	0.98617	0.086
Mof_C 	C 	0.85464	0.56583	0.08145	0.092
Mof_C 	C 	0.88267	0.5644	0.12927	-0.131
Mof_H 	H 	0.88153	0.57287	0.17327	0.075
Mof_C 	C 	0.91204	0.55071	0.11253	0.053
Mof_H 	H 	0.93143	0.55057	0.14477	0.028
Mof_C 	C 	0.82728	0.58559	0.0982	-0.054
Mof_C 	C 	0.84593	0.62437	0.13239	-0.049
Mof_H 	H 	0.87583	0.63737	0.14457	0.047
Mof_H 	H 	0.72203	0.48937	0.11827	0.087
Mof_O 	O 	0.14233	0.77977	0.4094	-0.405
Mof_O 	O 	0.15517	0.76676	0.3053	-0.405
Mof_C 	C 	0.14343	0.75563	0.36436	0.355
Mof_C 	C 	0.12928	0.70914	0.38272	-0.115
Mof_C 	C 	0.12891	0.68046	0.33483	0.051
Mof_H 	H 	0.1381	0.6904	0.2912	0.03
Mof_C 	C 	0.11505	0.63736	0.35169	-0.128
Mof_H 	H 	0.1153	0.618	0.3195	0.087
Mof_C 	C 	0.10084	0.62215	0.41478	0.092
Mof_C 	C 	0.10227	0.65161	0.4626	-0.131
Mof_H 	H 	0.0938	0.642	0.5066	0.075
Mof_C 	C 	0.11596	0.69467	0.44586	0.053
Mof_H 	H 	0.1161	0.7142	0.4781	0.028
Mof_C 	C 	0.08108	0.57503	0.43153	-0.054
Mof_C 	C 	0.0423	0.5549	0.46572	-0.049
Mof_H 	H 	0.0293	0.5718	0.4779	0.047
Mof_H 	H 	0.1773	0.566	0.4516	0.087
Mof_O 	O 	0.809	0.1131	0.74273	-0.405
Mof_O 	O 	0.82184	0.10009	0.63863	-0.405
Mof_C 	C 	0.8101	0.08896	0.69769	0.355
Mof_C 	C 	0.79595	0.04247	0.71605	-0.115
Mof_C 	C 	0.79558	0.01379	0.66816	0.051
Mof_H 	H 	0.80477	0.02373	0.62453	0.03
Mof_C 	C 	0.78172	0.97069	0.68502	-0.128
Mof_H 	H 	0.78197	0.95133	0.65283	0.086
Mof_C 	C 	0.76751	0.95548	0.74811	0.092
Mof_C 	C 	0.76894	0.98494	0.79593	-0.131
Mof_H 	H 	0.76047	0.97533	0.83993	0.075
Mof_C 	C 	0.78263	0.028	0.77919	0.052
Mof_H 	H 	0.78277	0.04753	0.81143	0.028
Mof_C 	C 	0.74775	0.90836	0.76486	-0.054
Mof_C 	C 	0.70897	0.88823	0.79905	-0.049
Mof_H 	H 	0.69597	0.90513	0.81123	0.047
Mof_H 	H 	0.84397	0.89933	0.78493	0.087
Mof_O 	O 	0.47566	0.44644	0.07607	-0.405
Mof_O 	O 	0.4885	0.43343	0.97197	-0.405
Mof_C 	C 	0.47676	0.4223	0.03103	0.355
Mof_C 	C 	0.46261	0.37581	0.04939	-0.115
Mof_C 	C 	0.46224	0.34713	0.0015	0.051
Mof_H 	H 	0.47143	0.35707	0.95787	0.03
Mof_C 	C 	0.44838	0.30403	0.01836	-0.128
Mof_H 	H 	0.44863	0.28467	0.98617	0.086
Mof_C 	C 	0.43417	0.28882	0.08145	0.092
Mof_C 	C 	0.4356	0.31828	0.12927	-0.131
Mof_H 	H 	0.42713	0.30867	0.17327	0.075
Mof_C 	C 	0.44929	0.36134	0.11253	0.053
Mof_H 	H 	0.44943	0.38087	0.14477	0.028
Mof_C 	C 	0.41441	0.2417	0.0982	-0.054
Mof_C 	C 	0.37563	0.22157	0.13239	-0.049
Mof_H 	H 	0.36263	0.23847	0.14457	0.047
Mof_H 	H 	0.51063	0.23267	0.11827	0.087
Mof_O 	O 	0.36256	0.22023	0.5906	-0.405
Mof_O 	O 	0.38841	0.23324	0.6947	-0.405
Mof_C 	C 	0.3878	0.24437	0.63564	0.355
Mof_C 	C 	0.42014	0.29086	0.61728	-0.115
Mof_C 	C 	0.44845	0.31954	0.66517	0.051
Mof_H 	H 	0.4477	0.3096	0.7088	0.03
Mof_C 	C 	0.47769	0.36264	0.64831	-0.128
Mof_H 	H 	0.4973	0.382	0.6805	0.087
Mof_C 	C 	0.47869	0.37785	0.58522	0.092
Mof_C 	C 	0.45066	0.34839	0.5374	-0.131
Mof_H 	H 	0.4518	0.358	0.4934	0.075
Mof_C 	C 	0.42129	0.30533	0.55414	0.053
Mof_H 	H 	0.4019	0.2858	0.5219	0.028
Mof_C 	C 	0.50605	0.42497	0.56847	-0.054
Mof_C 	C 	0.4874	0.4451	0.53428	-0.049
Mof_H 	H 	0.4575	0.4282	0.5221	0.047
Mof_H 	H 	0.6113	0.434	0.5484	0.087
Mof_O 	O 	0.02923	0.55356	0.92393	-0.405
Mof_O 	O 	0.05508	0.56657	0.02803	-0.405
Mof_C 	C 	0.05447	0.5777	0.96897	0.356
Mof_C 	C 	0.08681	0.62419	0.95061	-0.115
Mof_C 	C 	0.11512	0.65287	0.9985	0.051
Mof_H 	H 	0.11437	0.64293	0.04213	0.03
Mof_C 	C 	0.14436	0.69597	0.98164	-0.128
Mof_H 	H 	0.16397	0.71533	0.01383	0.086
Mof_C 	C 	0.14536	0.71118	0.91855	0.092
Mof_C 	C 	0.11733	0.68172	0.87073	-0.131
Mof_H 	H 	0.11847	0.69133	0.82673	0.075
Mof_C 	C 	0.08796	0.63866	0.88747	0.053
Mof_H 	H 	0.06857	0.61913	0.85523	0.028
Mof_C 	C 	0.17272	0.7583	0.9018	-0.054
Mof_C 	C 	0.15407	0.77843	0.86761	-0.049
Mof_H 	H 	0.12417	0.76153	0.85543	0.047
Mof_H 	H 	0.27797	0.76733	0.88173	0.087
Mof_O 	O 	0.69589	0.8869	0.25727	-0.405
Mof_O 	O 	0.72174	0.89991	0.36137	-0.405
Mof_C 	C 	0.72113	0.91104	0.30231	0.355
Mof_C 	C 	0.75347	0.95753	0.28395	-0.115
Mof_C 	C 	0.78178	0.98621	0.33184	0.051
Mof_H 	H 	0.78103	0.97627	0.37547	0.03
Mof_C 	C 	0.81102	0.02931	0.31498	-0.128
Mof_H 	H 	0.83063	0.04867	0.34717	0.086
Mof_C 	C 	0.81202	0.04452	0.25189	0.092
Mof_C 	C 	0.78399	0.01506	0.20407	-0.131
Mof_H 	H 	0.78513	0.02467	0.16007	0.075
Mof_C 	C 	0.75462	0.972	0.22081	0.052
Mof_H 	H 	0.73523	0.95247	0.18857	0.029
Mof_C 	C 	0.83938	0.09164	0.23514	-0.054
Mof_C 	C 	0.82073	0.11177	0.20095	-0.049
Mof_H 	H 	0.79083	0.09487	0.18877	0.047
Mof_H 	H 	0.94463	0.10067	0.21507	0.087
Mof_O 	O 	0.85767	0.63744	0.5906	-0.405
Mof_O 	O 	0.84483	0.61159	0.6947	-0.405
Mof_C 	C 	0.85657	0.6122	0.63564	0.355
Mof_C 	C 	0.87072	0.57986	0.61728	-0.115
Mof_C 	C 	0.87109	0.55155	0.66517	0.051
Mof_H 	H 	0.8619	0.5523	0.7088	0.03
Mof_C 	C 	0.88495	0.52231	0.64831	-0.128
Mof_H 	H 	0.8847	0.5027	0.6805	0.087
Mof_C 	C 	0.89916	0.52131	0.58522	0.092
Mof_C 	C 	0.89773	0.54934	0.5374	-0.131
Mof_H 	H 	0.9062	0.5482	0.4934	0.075
Mof_C 	C 	0.88404	0.57871	0.55414	0.053
Mof_H 	H 	0.8839	0.5981	0.5219	0.028
Mof_C 	C 	0.91892	0.49395	0.56847	-0.054
Mof_C 	C 	0.9577	0.5126	0.53428	-0.049
Mof_H 	H 	0.9707	0.5425	0.5221	0.047
Mof_H 	H 	0.8227	0.3887	0.5484	0.087
Mof_O 	O 	0.52434	0.97077	0.92393	-0.405
Mof_O 	O 	0.5115	0.94492	0.02803	-0.405
Mof_C 	C 	0.52324	0.94553	0.96897	0.356
Mof_C 	C 	0.53739	0.91319	0.95061	-0.115
Mof_C 	C 	0.53776	0.88488	0.9985	0.051
Mof_H 	H 	0.52857	0.88563	0.04213	0.03
Mof_C 	C 	0.55162	0.85564	0.98164	-0.128
Mof_H 	H 	0.55137	0.83603	0.01383	0.086
Mof_C 	C 	0.56583	0.85464	0.91855	0.092
Mof_C 	C 	0.5644	0.88267	0.87073	-0.131
Mof_H 	H 	0.57287	0.88153	0.82673	0.075
Mof_C 	C 	0.55071	0.91204	0.88747	0.053
Mof_H 	H 	0.55057	0.93143	0.85523	0.028
Mof_C 	C 	0.58559	0.82728	0.9018	-0.054
Mof_C 	C 	0.62437	0.84593	0.86761	-0.049
Mof_H 	H 	0.63737	0.87583	0.85543	0.047
Mof_H 	H 	0.48937	0.72203	0.88173	0.087
Mof_O 	O 	0.191	0.30411	0.25727	-0.405
Mof_O 	O 	0.17816	0.27826	0.36137	-0.405
Mof_C 	C 	0.1899	0.27887	0.30231	0.355
Mof_C 	C 	0.20405	0.24653	0.28395	-0.115
Mof_C 	C 	0.20442	0.21822	0.33184	0.051
Mof_H 	H 	0.19523	0.21897	0.37547	0.03
Mof_C 	C 	0.21828	0.18898	0.31498	-0.128
Mof_H 	H 	0.21803	0.16937	0.34717	0.087
Mof_C 	C 	0.23249	0.18798	0.25189	0.092
Mof_C 	C 	0.23106	0.21601	0.20407	-0.131
Mof_H 	H 	0.23953	0.21487	0.16007	0.075
Mof_C 	C 	0.21737	0.24538	0.22081	0.053
Mof_H 	H 	0.21723	0.26477	0.18857	0.028
Mof_C 	C 	0.25225	0.16062	0.23514	-0.054
Mof_C 	C 	0.29103	0.17927	0.20095	-0.049
Mof_H 	H 	0.30403	0.20917	0.18877	0.047
Mof_H 	H 	0.15603	0.05537	0.21507	0.087
Mof_O 	O 	0.77977	0.14233	0.5906	-0.405
Mof_O 	O 	0.76676	0.15517	0.6947	-0.405
Mof_C 	C 	0.75563	0.14343	0.63564	0.355
Mof_C 	C 	0.70914	0.12928	0.61728	-0.115
Mof_C 	C 	0.68046	0.12891	0.66517	0.051
Mof_H 	H 	0.6904	0.1381	0.7088	0.03
Mof_C 	C 	0.63736	0.11505	0.64831	-0.128
Mof_H 	H 	0.618	0.1153	0.6805	0.087
Mof_C 	C 	0.62215	0.10084	0.58522	0.092
Mof_C 	C 	0.65161	0.10227	0.5374	-0.131
Mof_H 	H 	0.642	0.0938	0.4934	0.075
Mof_C 	C 	0.69467	0.11596	0.55414	0.053
Mof_H 	H 	0.7142	0.1161	0.5219	0.028
Mof_C 	C 	0.57503	0.08108	0.56847	-0.054
Mof_C 	C 	0.5549	0.0423	0.53428	-0.049
Mof_H 	H 	0.5718	0.0293	0.5221	0.047
Mof_H 	H 	0.566	0.1773	0.5484	0.087
Mof_O 	O 	0.44644	0.47566	0.92393	-0.405
Mof_O 	O 	0.43343	0.4885	0.02803	-0.405
Mof_C 	C 	0.4223	0.47676	0.96897	0.355
Mof_C 	C 	0.37581	0.46261	0.95061	-0.115
Mof_C 	C 	0.34713	0.46224	0.9985	0.051
Mof_H 	H 	0.35707	0.47143	0.04213	0.03
Mof_C 	C 	0.30403	0.44838	0.98164	-0.128
Mof_H 	H 	0.28467	0.44863	0.01383	0.086
Mof_C 	C 	0.28882	0.43417	0.91855	0.092
Mof_C 	C 	0.31828	0.4356	0.87073	-0.131
Mof_H 	H 	0.30867	0.42713	0.82673	0.075
Mof_C 	C 	0.36134	0.44929	0.88747	0.053
Mof_H 	H 	0.38087	0.44943	0.85523	0.028
Mof_C 	C 	0.2417	0.41441	0.9018	-0.054
Mof_C 	C 	0.22157	0.37563	0.86761	-0.049
Mof_H 	H 	0.23847	0.36263	0.85543	0.047
Mof_H 	H 	0.23267	0.51063	0.88173	0.087
Mof_O 	O 	0.1131	0.809	0.25727	-0.405
Mof_O 	O 	0.10009	0.82184	0.36137	-0.405
Mof_C 	C 	0.08896	0.8101	0.30231	0.355
Mof_C 	C 	0.04247	0.79595	0.28395	-0.115
Mof_C 	C 	0.01379	0.79558	0.33184	0.051
Mof_H 	H 	0.02373	0.80477	0.37547	0.03
Mof_C 	C 	0.97069	0.78172	0.31498	-0.128
Mof_H 	H 	0.95133	0.78197	0.34717	0.086
Mof_C 	C 	0.95548	0.76751	0.25189	0.092
Mof_C 	C 	0.98494	0.76894	0.20407	-0.131
Mof_H 	H 	0.97533	0.76047	0.16007	0.075
Mof_C 	C 	0.028	0.78263	0.22081	0.052
Mof_H 	H 	0.04753	0.78277	0.18857	0.028
Mof_C 	C 	0.90836	0.74775	0.23514	-0.054
Mof_C 	C 	0.88823	0.70897	0.20095	-0.049
Mof_H 	H 	0.90513	0.69597	0.18877	0.047
Mof_H 	H 	0.89933	0.84397	0.21507	0.087
Mof_O 	O 	0.77977	0.63744	0.5906	-0.405
Mof_O 	O 	0.76676	0.61159	0.6947	-0.405
Mof_C 	C 	0.75563	0.6122	0.63564	0.355
Mof_C 	C 	0.70914	0.57986	0.61728	-0.115
Mof_C 	C 	0.68046	0.55155	0.66517	0.051
Mof_H 	H 	0.6904	0.5523	0.7088	0.03
Mof_C 	C 	0.63736	0.52231	0.64831	-0.128
Mof_H 	H 	0.618	0.5027	0.6805	0.087
Mof_C 	C 	0.62215	0.52131	0.58522	0.092
Mof_C 	C 	0.65161	0.54934	0.5374	-0.131
Mof_H 	H 	0.642	0.5482	0.4934	0.075
Mof_C 	C 	0.69467	0.57871	0.55414	0.053
Mof_H 	H 	0.7142	0.5981	0.5219	0.028
Mof_C 	C 	0.57503	0.49395	0.56847	-0.054
Mof_C 	C 	0.5549	0.5126	0.53428	-0.049
Mof_H 	H 	0.5718	0.5425	0.5221	0.047
Mof_H 	H 	0.566	0.3887	0.5484	0.087
Mof_O 	O 	0.44644	0.97077	0.92393	-0.405
Mof_O 	O 	0.43343	0.94492	0.02803	-0.405
Mof_C 	C 	0.4223	0.94553	0.96897	0.356
Mof_C 	C 	0.37581	0.91319	0.95061	-0.115
Mof_C 	C 	0.34713	0.88488	0.9985	0.051
Mof_H 	H 	0.35707	0.88563	0.04213	0.03
Mof_C 	C 	0.30403	0.85564	0.98164	-0.128
Mof_H 	H 	0.28467	0.83603	0.01383	0.086
Mof_C 	C 	0.28882	0.85464	0.91855	0.092
Mof_C 	C 	0.31828	0.88267	0.87073	-0.131
Mof_H 	H 	0.30867	0.88153	0.82673	0.075
Mof_C 	C 	0.36134	0.91204	0.88747	0.053
Mof_H 	H 	0.38087	0.93143	0.85523	0.028
Mof_C 	C 	0.2417	0.82728	0.9018	-0.054
Mof_C 	C 	0.22157	0.84593	0.86761	-0.049
Mof_H 	H 	0.23847	0.87583	0.85543	0.047
Mof_H 	H 	0.23267	0.72203	0.88173	0.087
Mof_O 	O 	0.1131	0.30411	0.25727	-0.405
Mof_O 	O 	0.10009	0.27826	0.36137	-0.405
Mof_C 	C 	0.08896	0.27887	0.30231	0.355
Mof_C 	C 	0.04247	0.24653	0.28395	-0.115
Mof_C 	C 	0.01379	0.21822	0.33184	0.051
Mof_H 	H 	0.02373	0.21897	0.37547	0.03
Mof_C 	C 	0.97069	0.18898	0.31498	-0.128
Mof_H 	H 	0.95133	0.16937	0.34717	0.086
Mof_C 	C 	0.95548	0.18798	0.25189	0.092
Mof_C 	C 	0.98494	0.21601	0.20407	-0.131
Mof_H 	H 	0.97533	0.21487	0.16007	0.075
Mof_C 	C 	0.028	0.24538	0.22081	0.052
Mof_H 	H 	0.04753	0.26477	0.18857	0.029
Mof_C 	C 	0.90836	0.16062	0.23514	-0.054
Mof_C 	C 	0.88823	0.17927	0.20095	-0.049
Mof_H 	H 	0.90513	0.20917	0.18877	0.047
Mof_H 	H 	0.89933	0.05537	0.21507	0.087
Mof_O 	O 	0.36256	0.14233	0.5906	-0.405
Mof_O 	O 	0.38841	0.15517	0.6947	-0.405
Mof_C 	C 	0.3878	0.14343	0.63564	0.355
Mof_C 	C 	0.42014	0.12928	0.61728	-0.115
Mof_C 	C 	0.44845	0.12891	0.66517	0.051
Mof_H 	H 	0.4477	0.1381	0.7088	0.03
Mof_C 	C 	0.47769	0.11505	0.64831	-0.128
Mof_H 	H 	0.4973	0.1153	0.6805	0.087
Mof_C 	C 	0.47869	0.10084	0.58522	0.092
Mof_C 	C 	0.45066	0.10227	0.5374	-0.131
Mof_H 	H 	0.4518	0.0938	0.4934	0.075
Mof_C 	C 	0.42129	0.11596	0.55414	0.053
Mof_H 	H 	0.4019	0.1161	0.5219	0.028
Mof_C 	C 	0.50605	0.08108	0.56847	-0.054
Mof_C 	C 	0.4874	0.0423	0.53428	-0.049
Mof_H 	H 	0.4575	0.0293	0.5221	0.047
Mof_H 	H 	0.6113	0.1773	0.5484	0.087
Mof_O 	O 	0.02923	0.47566	0.92393	-0.405
Mof_O 	O 	0.05508	0.4885	0.02803	-0.405
Mof_C 	C 	0.05447	0.47676	0.96897	0.356
Mof_C 	C 	0.08681	0.46261	0.95061	-0.115
Mof_C 	C 	0.11512	0.46224	0.9985	0.051
Mof_H 	H 	0.11437	0.47143	0.04213	0.03
Mof_C 	C 	0.14436	0.44838	0.98164	-0.128
Mof_H 	H 	0.16397	0.44863	0.01383	0.086
Mof_C 	C 	0.14536	0.43417	0.91855	0.092
Mof_C 	C 	0.11733	0.4356	0.87073	-0.131
Mof_H 	H 	0.11847	0.42713	0.82673	0.075
Mof_C 	C 	0.08796	0.44929	0.88747	0.053
Mof_H 	H 	0.06857	0.44943	0.85523	0.028
Mof_C 	C 	0.17272	0.41441	0.9018	-0.054
Mof_C 	C 	0.15407	0.37563	0.86761	-0.049
Mof_H 	H 	0.12417	0.36263	0.85543	0.047
Mof_H 	H 	0.27797	0.51063	0.88173	0.087
Mof_O 	O 	0.69589	0.809	0.25727	-0.405
Mof_O 	O 	0.72174	0.82184	0.36137	-0.405
Mof_C 	C 	0.72113	0.8101	0.30231	0.355
Mof_C 	C 	0.75347	0.79595	0.28395	-0.115
Mof_C 	C 	0.78178	0.79558	0.33184	0.051
Mof_H 	H 	0.78103	0.80477	0.37547	0.03
Mof_C 	C 	0.81102	0.78172	0.31498	-0.128
Mof_H 	H 	0.83063	0.78197	0.34717	0.087
Mof_C 	C 	0.81202	0.76751	0.25189	0.092
Mof_C 	C 	0.78399	0.76894	0.20407	-0.131
Mof_H 	H 	0.78513	0.76047	0.16007	0.075
Mof_C 	C 	0.75462	0.78263	0.22081	0.053
Mof_H 	H 	0.73523	0.78277	0.18857	0.028
Mof_C 	C 	0.83938	0.74775	0.23514	-0.054
Mof_C 	C 	0.82073	0.70897	0.20095	-0.049
Mof_H 	H 	0.79083	0.69597	0.18877	0.047
Mof_H 	H 	0.94463	0.84397	0.21507	0.087
Mof_O 	O 	0.85767	0.22023	0.5906	-0.405
Mof_O 	O 	0.84483	0.23324	0.6947	-0.405
Mof_C 	C 	0.85657	0.24437	0.63564	0.355
Mof_C 	C 	0.87072	0.29086	0.61728	-0.115
Mof_C 	C 	0.87109	0.31954	0.66517	0.051
Mof_H 	H 	0.8619	0.3096	0.7088	0.03
Mof_C 	C 	0.88495	0.36264	0.64831	-0.128
Mof_H 	H 	0.8847	0.382	0.6805	0.087
Mof_C 	C 	0.89916	0.37785	0.58522	0.092
Mof_C 	C 	0.89773	0.34839	0.5374	-0.131
Mof_H 	H 	0.9062	0.358	0.4934	0.075
Mof_C 	C 	0.88404	0.30533	0.55414	0.053
Mof_H 	H 	0.8839	0.2858	0.5219	0.028
Mof_C 	C 	0.91892	0.42497	0.56847	-0.054
Mof_C 	C 	0.9577	0.4451	0.53428	-0.049
Mof_H 	H 	0.9707	0.4282	0.5221	0.047
Mof_H 	H 	0.8227	0.434	0.5484	0.087
Mof_O 	O 	0.52434	0.55356	0.92393	-0.405
Mof_O 	O 	0.5115	0.56657	0.02803	-0.405
Mof_C 	C 	0.52324	0.5777	0.96897	0.355
Mof_C 	C 	0.53739	0.62419	0.95061	-0.115
Mof_C 	C 	0.53776	0.65287	0.9985	0.051
Mof_H 	H 	0.52857	0.64293	0.04213	0.03
Mof_C 	C 	0.55162	0.69597	0.98164	-0.128
Mof_H 	H 	0.55137	0.71533	0.01383	0.086
Mof_C 	C 	0.56583	0.71118	0.91855	0.092
Mof_C 	C 	0.5644	0.68172	0.87073	-0.131
Mof_H 	H 	0.57287	0.69133	0.82673	0.075
Mof_C 	C 	0.55071	0.63866	0.88747	0.053
Mof_H 	H 	0.55057	0.61913	0.85523	0.028
Mof_C 	C 	0.58559	0.7583	0.9018	-0.054
Mof_C 	C 	0.62437	0.77843	0.86761	-0.049
Mof_H 	H 	0.63737	0.76153	0.85543	0.047
Mof_H 	H 	0.48937	0.76733	0.88173	0.087
Mof_O 	O 	0.191	0.8869	0.25727	-0.405
Mof_O 	O 	0.17816	0.89991	0.36137	-0.405
Mof_C 	C 	0.1899	0.91104	0.30231	0.355
Mof_C 	C 	0.20405	0.95753	0.28395	-0.115
Mof_C 	C 	0.20442	0.98621	0.33184	0.051
Mof_H 	H 	0.19523	0.97627	0.37547	0.03
Mof_C 	C 	0.21828	0.02931	0.31498	-0.128
Mof_H 	H 	0.21803	0.04867	0.34717	0.086
Mof_C 	C 	0.23249	0.04452	0.25189	0.092
Mof_C 	C 	0.23106	0.01506	0.20407	-0.131
Mof_H 	H 	0.23953	0.02467	0.16007	0.075
Mof_C 	C 	0.21737	0.972	0.22081	0.052
Mof_H 	H 	0.21723	0.95247	0.18857	0.028
Mof_C 	C 	0.25225	0.09164	0.23514	-0.054
Mof_C 	C 	0.29103	0.11177	0.20095	-0.049
Mof_H 	H 	0.30403	0.09487	0.18877	0.047
Mof_H 	H 	0.15603	0.10067	0.21507	0.087
Mof_O 	O 	0.63744	0.77977	0.4094	-0.405
Mof_O 	O 	0.61159	0.76676	0.3053	-0.405
Mof_C 	C 	0.6122	0.75563	0.36436	0.355
Mof_C 	C 	0.57986	0.70914	0.38272	-0.115
Mof_C 	C 	0.55155	0.68046	0.33483	0.051
Mof_H 	H 	0.5523	0.6904	0.2912	0.03
Mof_C 	C 	0.52231	0.63736	0.35169	-0.128
Mof_H 	H 	0.5027	0.618	0.3195	0.087
Mof_C 	C 	0.52131	0.62215	0.41478	0.092
Mof_C 	C 	0.54934	0.65161	0.4626	-0.131
Mof_H 	H 	0.5482	0.642	0.5066	0.075
Mof_C 	C 	0.57871	0.69467	0.44586	0.053
Mof_H 	H 	0.5981	0.7142	0.4781	0.028
Mof_C 	C 	0.49395	0.57503	0.43153	-0.054
Mof_C 	C 	0.5126	0.5549	0.46572	-0.049
Mof_H 	H 	0.5425	0.5718	0.4779	0.047
Mof_H 	H 	0.3887	0.566	0.4516	0.087
Mof_O 	O 	0.30411	0.1131	0.74273	-0.405
Mof_O 	O 	0.27826	0.10009	0.63863	-0.405
Mof_C 	C 	0.27887	0.08896	0.69769	0.355
Mof_C 	C 	0.24653	0.04247	0.71605	-0.115
Mof_C 	C 	0.21822	0.01379	0.66816	0.051
Mof_H 	H 	0.21897	0.02373	0.62453	0.03
Mof_C 	C 	0.18898	0.97069	0.68502	-0.128
Mof_H 	H 	0.16937	0.95133	0.65283	0.086
Mof_C 	C 	0.18798	0.95548	0.74811	0.092
Mof_C 	C 	0.21601	0.98494	0.79593	-0.131
Mof_H 	H 	0.21487	0.97533	0.83993	0.075
Mof_C 	C 	0.24538	0.028	0.77919	0.052
Mof_H 	H 	0.26477	0.04753	0.81143	0.029
Mof_C 	C 	0.16062	0.90836	0.76486	-0.054
Mof_C 	C 	0.17927	0.88823	0.79905	-0.049
Mof_H 	H 	0.20917	0.90513	0.81123	0.047
Mof_H 	H 	0.05537	0.89933	0.78493	0.087
Mof_O 	O 	0.97077	0.44644	0.07607	-0.405
Mof_O 	O 	0.94492	0.43343	0.97197	-0.405
Mof_C 	C 	0.94553	0.4223	0.03103	0.356
Mof_C 	C 	0.91319	0.37581	0.04939	-0.115
Mof_C 	C 	0.88488	0.34713	0.0015	0.051
Mof_H 	H 	0.88563	0.35707	0.95787	0.03
Mof_C 	C 	0.85564	0.30403	0.01836	-0.128
Mof_H 	H 	0.83603	0.28467	0.98617	0.086
Mof_C 	C 	0.85464	0.28882	0.08145	0.092
Mof_C 	C 	0.88267	0.31828	0.12927	-0.131
Mof_H 	H 	0.88153	0.30867	0.17327	0.075
Mof_C 	C 	0.91204	0.36134	0.11253	0.053
Mof_H 	H 	0.93143	0.38087	0.14477	0.028
Mof_C 	C 	0.82728	0.2417	0.0982	-0.054
Mof_C 	C 	0.84593	0.22157	0.13239	-0.049
Mof_H 	H 	0.87583	0.23847	0.14457	0.047
Mof_H 	H 	0.72203	0.23267	0.11827	0.087
Mof_O 	O 	0.14233	0.36256	0.4094	-0.405
Mof_O 	O 	0.15517	0.38841	0.3053	-0.405
Mof_C 	C 	0.14343	0.3878	0.36436	0.355
Mof_C 	C 	0.12928	0.42014	0.38272	-0.115
Mof_C 	C 	0.12891	0.44845	0.33483	0.051
Mof_H 	H 	0.1381	0.4477	0.2912	0.03
Mof_C 	C 	0.11505	0.47769	0.35169	-0.128
Mof_H 	H 	0.1153	0.4973	0.3195	0.087
Mof_C 	C 	0.10084	0.47869	0.41478	0.092
Mof_C 	C 	0.10227	0.45066	0.4626	-0.131
Mof_H 	H 	0.0938	0.4518	0.5066	0.075
Mof_C 	C 	0.11596	0.42129	0.44586	0.053
Mof_H 	H 	0.1161	0.4019	0.4781	0.028
Mof_C 	C 	0.08108	0.50605	0.43153	-0.054
Mof_C 	C 	0.0423	0.4874	0.46572	-0.049
Mof_H 	H 	0.0293	0.4575	0.4779	0.047
Mof_H 	H 	0.1773	0.6113	0.4516	0.087
Mof_O 	O 	0.809	0.69589	0.74273	-0.405
Mof_O 	O 	0.82184	0.72174	0.63863	-0.405
Mof_C 	C 	0.8101	0.72113	0.69769	0.355
Mof_C 	C 	0.79595	0.75347	0.71605	-0.115
Mof_C 	C 	0.79558	0.78178	0.66816	0.051
Mof_H 	H 	0.80477	0.78103	0.62453	0.03
Mof_C 	C 	0.78172	0.81102	0.68502	-0.128
Mof_H 	H 	0.78197	0.83063	0.65283	0.087
Mof_C 	C 	0.76751	0.81202	0.74811	0.092
Mof_C 	C 	0.76894	0.78399	0.79593	-0.131
Mof_H 	H 	0.76047	0.78513	0.83993	0.075
Mof_C 	C 	0.78263	0.75462	0.77919	0.053
Mof_H 	H 	0.78277	0.73523	0.81143	0.028
Mof_C 	C 	0.74775	0.83938	0.76486	-0.054
Mof_C 	C 	0.70897	0.82073	0.79905	-0.049
Mof_H 	H 	0.69597	0.79083	0.81123	0.047
Mof_H 	H 	0.84397	0.94463	0.78493	0.087
Mof_O 	O 	0.47566	0.02923	0.07607	-0.405
Mof_O 	O 	0.4885	0.05508	0.97197	-0.405
Mof_C 	C 	0.47676	0.05447	0.03103	0.356
Mof_C 	C 	0.46261	0.08681	0.04939	-0.115
Mof_C 	C 	0.46224	0.11512	0.0015	0.051
Mof_H 	H 	0.47143	0.11437	0.95787	0.03
Mof_C 	C 	0.44838	0.14436	0.01836	-0.128
Mof_H 	H 	0.44863	0.16397	0.98617	0.086
Mof_C 	C 	0.43417	0.14536	0.08145	0.092
Mof_C 	C 	0.4356	0.11733	0.12927	-0.131
Mof_H 	H 	0.42713	0.11847	0.17327	0.075
Mof_C 	C 	0.44929	0.08796	0.11253	0.053
Mof_H 	H 	0.44943	0.06857	0.14477	0.028
Mof_C 	C 	0.41441	0.17272	0.0982	-0.054
Mof_C 	C 	0.37563	0.15407	0.13239	-0.049
Mof_H 	H 	0.36263	0.12417	0.14457	0.047
Mof_H 	H 	0.51063	0.27797	0.11827	0.087
Mof_O 	O 	0.22023	0.85767	0.4094	-0.405
Mof_O 	O 	0.23324	0.84483	0.3053	-0.405
Mof_C 	C 	0.24437	0.85657	0.36436	0.355
Mof_C 	C 	0.29086	0.87072	0.38272	-0.115
Mof_C 	C 	0.31954	0.87109	0.33483	0.051
Mof_H 	H 	0.3096	0.8619	0.2912	0.03
Mof_C 	C 	0.36264	0.88495	0.35169	-0.128
Mof_H 	H 	0.382	0.8847	0.3195	0.087
Mof_C 	C 	0.37785	0.89916	0.41478	0.092
Mof_C 	C 	0.34839	0.89773	0.4626	-0.131
Mof_H 	H 	0.358	0.9062	0.5066	0.075
Mof_C 	C 	0.30533	0.88404	0.44586	0.053
Mof_H 	H 	0.2858	0.8839	0.4781	0.028
Mof_C 	C 	0.42497	0.91892	0.43153	-0.054
Mof_C 	C 	0.4451	0.9577	0.46572	-0.049
Mof_H 	H 	0.4282	0.9707	0.4779	0.047
Mof_H 	H 	0.434	0.8227	0.4516	0.087
Mof_O 	O 	0.8869	0.191	0.74273	-0.405
Mof_O 	O 	0.89991	0.17816	0.63863	-0.405
Mof_C 	C 	0.91104	0.1899	0.69769	0.355
Mof_C 	C 	0.95753	0.20405	0.71605	-0.115
Mof_C 	C 	0.98621	0.20442	0.66816	0.051
Mof_H 	H 	0.97627	0.19523	0.62453	0.03
Mof_C 	C 	0.02931	0.21828	0.68502	-0.128
Mof_H 	H 	0.04867	0.21803	0.65283	0.086
Mof_C 	C 	0.04452	0.23249	0.74811	0.092
Mof_C 	C 	0.01506	0.23106	0.79593	-0.131
Mof_H 	H 	0.02467	0.23953	0.83993	0.075
Mof_C 	C 	0.972	0.21737	0.77919	0.052
Mof_H 	H 	0.95247	0.21723	0.81143	0.028
Mof_C 	C 	0.09164	0.25225	0.76486	-0.054
Mof_C 	C 	0.11177	0.29103	0.79905	-0.049
Mof_H 	H 	0.09487	0.30403	0.81123	0.047
Mof_H 	H 	0.10067	0.15603	0.78493	0.087
Mof_O 	O 	0.55356	0.52434	0.07607	-0.405
Mof_O 	O 	0.56657	0.5115	0.97197	-0.405
Mof_C 	C 	0.5777	0.52324	0.03103	0.355
Mof_C 	C 	0.62419	0.53739	0.04939	-0.115
Mof_C 	C 	0.65287	0.53776	0.0015	0.051
Mof_H 	H 	0.64293	0.52857	0.95787	0.03
Mof_C 	C 	0.69597	0.55162	0.01836	-0.128
Mof_H 	H 	0.71533	0.55137	0.98617	0.086
Mof_C 	C 	0.71118	0.56583	0.08145	0.092
Mof_C 	C 	0.68172	0.5644	0.12927	-0.131
Mof_H 	H 	0.69133	0.57287	0.17327	0.075
Mof_C 	C 	0.63866	0.55071	0.11253	0.053
Mof_H 	H 	0.61913	0.55057	0.14477	0.028
Mof_C 	C 	0.7583	0.58559	0.0982	-0.054
Mof_C 	C 	0.77843	0.62437	0.13239	-0.049
Mof_H 	H 	0.76153	0.63737	0.14457	0.047
Mof_H 	H 	0.76733	0.48937	0.11827	0.087
Mof_Cu	Cu	0.17426	0.34853	0.27257	0.904
Mof_Cu	Cu	0.84093	0.68186	0.6059	0.904
Mof_Cu	Cu	0.5076	0.0152	0.93924	0.904
Mof_Cu	Cu	0.65147	0.82574	0.27257	0.904
Mof_Cu	Cu	0.31814	0.15907	0.6059	0.904
Mof_Cu	Cu	0.9848	0.4924	0.93924	0.904
Mof_Cu	Cu	0.17427	0.82574	0.27257	0.904
Mof_Cu	Cu	0.84093	0.15907	0.6059	0.904
Mof_Cu	Cu	0.5076	0.4924	0.93924	0.904
Mof_Cu	Cu	0.34853	0.17426	0.72743	0.904
Mof_Cu	Cu	0.0152	0.5076	0.06076	0.904
Mof_Cu	Cu	0.68186	0.84093	0.3941	0.904
Mof_Cu	Cu	0.82574	0.65147	0.72743	0.904
Mof_Cu	Cu	0.4924	0.9848	0.06076	0.904
Mof_Cu	Cu	0.15907	0.31814	0.3941	0.904
Mof_Cu	Cu	0.82574	0.17427	0.72743	0.904
Mof_Cu	Cu	0.4924	0.5076	0.06076	0.904
Mof_Cu	Cu	0.15907	0.84093	0.3941	0.904
Mof_O 	O 	0.42994	0.57006	0.37983	-0.175
Mof_C 	C 	0.48946	0.51054	0.4834	0.009
Mof_C 	C 	0.44966	0.55034	0.41398	0.111
Mof_C 	C 	0.41095	0.58905	0.4239	-0.174
Mof_H 	H 	0.3975	0.6025	0.3977	0.089
Mof_O 	O 	0.09661	0.90339	0.71316	-0.175
Mof_C 	C 	0.15613	0.84387	0.81673	0.009
Mof_C 	C 	0.11633	0.88367	0.74731	0.111
Mof_C 	C 	0.07762	0.92238	0.75723	-0.174
Mof_H 	H 	0.06417	0.93583	0.73103	0.089
Mof_O 	O 	0.76327	0.23673	0.0465	-0.175
Mof_C 	C 	0.82279	0.17721	0.15007	0.009
Mof_C 	C 	0.78299	0.21701	0.08065	0.111
Mof_C 	C 	0.74428	0.25572	0.09057	-0.174
Mof_H 	H 	0.73083	0.26917	0.06437	0.089
Mof_O 	O 	0.42994	0.85988	0.37983	-0.175
Mof_C 	C 	0.48946	0.97892	0.4834	0.009
Mof_C 	C 	0.44966	0.89932	0.41398	0.111
Mof_C 	C 	0.41095	0.8219	0.4239	-0.174
Mof_H 	H 	0.3975	0.795	0.3977	0.089
Mof_O 	O 	0.09661	0.19321	0.71316	-0.175
Mof_C 	C 	0.15613	0.31225	0.81673	0.009
Mof_C 	C 	0.11633	0.23265	0.74731	0.111
Mof_C 	C 	0.07762	0.15523	0.75723	-0.174
Mof_H 	H 	0.06417	0.12833	0.73103	0.089
Mof_O 	O 	0.76327	0.52655	0.0465	-0.175
Mof_C 	C 	0.82279	0.64559	0.15007	0.009
Mof_C 	C 	0.78299	0.56599	0.08065	0.111
Mof_C 	C 	0.74428	0.48857	0.09057	-0.174
Mof_H 	H 	0.73083	0.46167	0.06437	0.089
Mof_O 	O 	0.14012	0.57006	0.37983	-0.175
Mof_C 	C 	0.02108	0.51054	0.4834	0.009
Mof_C 	C 	0.10068	0.55034	0.41398	0.111
Mof_C 	C 	0.1781	0.58905	0.4239	-0.174
Mof_H 	H 	0.205	0.6025	0.3977	0.089
Mof_O 	O 	0.80679	0.90339	0.71316	-0.175
Mof_C 	C 	0.68775	0.84387	0.81673	0.009
Mof_C 	C 	0.76735	0.88367	0.74731	0.111
Mof_C 	C 	0.84477	0.92238	0.75723	-0.174
Mof_H 	H 	0.87167	0.93583	0.73103	0.089
Mof_O 	O 	0.47345	0.23673	0.0465	-0.175
Mof_C 	C 	0.35441	0.17721	0.15007	0.009
Mof_C 	C 	0.43401	0.21701	0.08065	0.111
Mof_C 	C 	0.51143	0.25572	0.09057	-0.174
Mof_H 	H 	0.53833	0.26917	0.06437	0.089
Mof_O 	O 	0.57006	0.42994	0.62017	-0.175
Mof_C 	C 	0.51054	0.48946	0.5166	0.009
Mof_C 	C 	0.55034	0.44966	0.58602	0.111
Mof_C 	C 	0.58905	0.41095	0.5761	-0.174
Mof_H 	H 	0.6025	0.3975	0.6023	0.089
Mof_O 	O 	0.23673	0.76327	0.9535	-0.175
Mof_C 	C 	0.17721	0.82279	0.84993	0.009
Mof_C 	C 	0.21701	0.78299	0.91935	0.111
Mof_C 	C 	0.25572	0.74428	0.90943	-0.174
Mof_H 	H 	0.26917	0.73083	0.93563	0.089
Mof_O 	O 	0.90339	0.09661	0.28684	-0.175
Mof_C 	C 	0.84387	0.15613	0.18327	0.009
Mof_C 	C 	0.88367	0.11633	0.25269	0.111
Mof_C 	C 	0.92238	0.07762	0.24277	-0.174
Mof_H 	H 	0.93583	0.06417	0.26897	0.089
Mof_O 	O 	0.85988	0.42994	0.62017	-0.175
Mof_C 	C 	0.97892	0.48946	0.5166	0.009
Mof_C 	C 	0.89932	0.44966	0.58602	0.111
Mof_C 	C 	0.8219	0.41095	0.5761	-0.174
Mof_H 	H 	0.795	0.3975	0.6023	0.089
Mof_O 	O 	0.52655	0.76327	0.9535	-0.175
Mof_C 	C 	0.64559	0.82279	0.84993	0.009
Mof_C 	C 	0.56599	0.78299	0.91935	0.111
Mof_C 	C 	0.48857	0.74428	0.90943	-0.174
Mof_H 	H 	0.46167	0.73083	0.93563	0.089
Mof_O 	O 	0.19321	0.09661	0.28684	-0.175
Mof_C 	C 	0.31225	0.15613	0.18327	0.009
Mof_C 	C 	0.23265	0.11633	0.25269	0.111
Mof_C 	C 	0.15523	0.07762	0.24277	-0.174
Mof_H 	H 	0.12833	0.06417	0.26897	0.089
Mof_O 	O 	0.57006	0.14012	0.62017	-0.175
Mof_C 	C 	0.51054	0.02108	0.5166	0.009
Mof_C 	C 	0.55034	0.10068	0.58602	0.111
Mof_C 	C 	0.58905	0.1781	0.5761	-0.174
Mof_H 	H 	0.6025	0.205	0.6023	0.089
Mof_O 	O 	0.23673	0.47345	0.9535	-0.175
Mof_C 	C 	0.17721	0.35441	0.84993	0.009
Mof_C 	C 	0.21701	0.43401	0.91935	0.111
Mof_C 	C 	0.25572	0.51143	0.90943	-0.174
Mof_H 	H 	0.26917	0.53833	0.93563	0.089
Mof_O 	O 	0.90339	0.80679	0.28684	-0.175
Mof_C 	C 	0.84387	0.68775	0.18327	0.009
Mof_C 	C 	0.88367	0.76735	0.25269	0.111
Mof_C 	C 	0.92238	0.84477	0.24277	-0.174
Mof_H 	H 	0.93583	0.87167	0.26897	0.089
_end
