data_functionalizedCrystal
_audit_creation_method	'EQeq! by Chris Wilmer'
_symmetry_space_group_name_H-M	'P1'
_symmetry_Int_Tables_number	1
_symmetry_cell_setting	triclinic
loop_
_symmetry_equiv_pos_as_xyz
  x,y,z
_cell_length_a	16.6052
_cell_length_b	16.0739
_cell_length_c	10.2819
_cell_angle_alpha	90
_cell_angle_beta	94.4
_cell_angle_gamma	90
loop_
_atom_site_label
_atom_site_type_symbol
_atom_site_fract_x
_atom_site_fract_y
_atom_site_fract_z
_atom_site_charge
Mof_Tb	Tb	0.03811	0.62257	0.54304	2.545
Mof_O 	O 	0.35713	0.32015	0.44561	-1.451
Mof_H 	H 	0.348	0.343	0.401	1.022
Mof_C 	C 	0.30887	0.33277	0.5437	0.717
Mof_C 	C 	0.32135	0.28826	0.6613	-0.443
Mof_C 	C 	0.26866	0.30206	0.7585	0.243
Mof_H 	H 	0.2759	0.2711	0.8373	-0.02
Mof_C 	C 	0.20596	0.35938	0.7444	-0.217
Mof_C 	C 	0.19688	0.40606	0.6285	0.147
Mof_C 	C 	0.24726	0.39183	0.5299	-0.465
Mof_H 	H 	0.2398	0.4229	0.4513	0.165
Mof_C 	C 	0.38902	0.22786	0.6893	0.665
Mof_O 	O 	0.42014	0.19291	0.59651	-0.548
Mof_O 	O 	0.41002	0.21506	0.80829	-0.61
Mof_C 	C 	0.15015	0.36828	0.8501	0.375
Mof_O 	O 	0.15708	0.32078	0.94732	-0.461
Mof_O 	O 	0.09438	0.42327	0.84079	-0.533
Mof_C 	C 	0.13658	0.47433	0.6065	0.326
Mof_O 	O 	0.06771	0.46091	0.54841	-0.586
Mof_O 	O 	0.15686	0.54701	0.64085	-0.464
Mof_H 	H 	0.967	0.524	0.723	0.608
Mof_Tb	Tb	0.5381	0.12257	0.54304	2.364
Mof_O 	O 	0.85713	0.82015	0.44561	-1.476
Mof_H 	H 	0.848	0.843	0.401	1.026
Mof_C 	C 	0.80887	0.83277	0.5437	0.717
Mof_C 	C 	0.82135	0.78826	0.6613	-0.451
Mof_C 	C 	0.76866	0.80206	0.7585	0.241
Mof_H 	H 	0.7759	0.7711	0.8373	-0.022
Mof_C 	C 	0.70596	0.85938	0.7444	-0.225
Mof_C 	C 	0.69688	0.90606	0.6285	0.133
Mof_C 	C 	0.74726	0.89183	0.5299	-0.465
Mof_H 	H 	0.7398	0.9229	0.4513	0.16
Mof_C 	C 	0.88902	0.72786	0.6893	0.661
Mof_O 	O 	0.92014	0.69291	0.59651	-0.61
Mof_O 	O 	0.91002	0.71506	0.80829	-0.615
Mof_C 	C 	0.65015	0.86828	0.8501	0.376
Mof_O 	O 	0.65708	0.82078	0.94732	-0.458
Mof_O 	O 	0.59438	0.92327	0.84079	-0.562
Mof_C 	C 	0.63658	0.97433	0.6065	0.345
Mof_O 	O 	0.56771	0.96091	0.54841	-0.659
Mof_O 	O 	0.65686	0.04701	0.64085	-0.461
Mof_H 	H 	0.467	0.024	0.723	0.894
Mof_Tb	Tb	0.96189	0.62257	0.95696	2.088
Mof_O 	O 	0.64287	0.32015	0.05439	-1.459
Mof_H 	H 	0.652	0.343	0.099	1.028
Mof_C 	C 	0.69113	0.33277	0.9563	0.718
Mof_C 	C 	0.67865	0.28826	0.8387	-0.441
Mof_C 	C 	0.73134	0.30206	0.7415	0.239
Mof_H 	H 	0.7241	0.2711	0.6627	-0.024
Mof_C 	C 	0.79404	0.35938	0.7556	-0.221
Mof_C 	C 	0.80312	0.40606	0.8715	0.119
Mof_C 	C 	0.75274	0.39183	0.9701	-0.442
Mof_H 	H 	0.7602	0.4229	0.0487	0.154
Mof_C 	C 	0.61098	0.22786	0.8107	0.664
Mof_O 	O 	0.57986	0.19291	0.90349	-0.547
Mof_O 	O 	0.58998	0.21506	0.69171	-0.61
Mof_C 	C 	0.84985	0.36828	0.6499	0.367
Mof_O 	O 	0.84292	0.32078	0.55268	-0.449
Mof_O 	O 	0.90562	0.42327	0.65921	-0.548
Mof_C 	C 	0.86342	0.47433	0.8935	0.364
Mof_O 	O 	0.93229	0.46091	0.95159	-0.7
Mof_O 	O 	0.84314	0.54701	0.85915	-0.442
Mof_H 	H 	0.033	0.524	0.777	0.727
Mof_Tb	Tb	0.46189	0.12257	0.95696	2.376
Mof_O 	O 	0.14287	0.82015	0.05439	-1.446
Mof_H 	H 	0.152	0.843	0.099	1.032
Mof_C 	C 	0.19113	0.83277	0.9563	0.724
Mof_C 	C 	0.17865	0.78826	0.8387	-0.427
Mof_C 	C 	0.23134	0.80206	0.7415	0.239
Mof_H 	H 	0.2241	0.7711	0.6627	-0.02
Mof_C 	C 	0.29404	0.85938	0.7556	-0.215
Mof_C 	C 	0.30312	0.90606	0.8715	0.125
Mof_C 	C 	0.25274	0.89183	0.9701	-0.423
Mof_H 	H 	0.2602	0.9229	0.0487	0.145
Mof_C 	C 	0.11098	0.72786	0.8107	0.659
Mof_O 	O 	0.07986	0.69291	0.90349	-0.481
Mof_O 	O 	0.08998	0.71506	0.69171	-0.605
Mof_C 	C 	0.34985	0.86828	0.6499	0.377
Mof_O 	O 	0.34292	0.82078	0.55268	-0.464
Mof_O 	O 	0.40562	0.92327	0.65921	-0.567
Mof_C 	C 	0.36342	0.97433	0.8935	0.353
Mof_O 	O 	0.43229	0.96091	0.95159	-0.65
Mof_O 	O 	0.34314	0.04701	0.85915	-0.457
Mof_H 	H 	0.533	0.024	0.777	0.894
Mof_Tb	Tb	0.96189	0.37743	0.45696	2.07
Mof_O 	O 	0.64287	0.67985	0.55439	-1.447
Mof_H 	H 	0.652	0.657	0.599	1.023
Mof_C 	C 	0.69113	0.66723	0.4563	0.713
Mof_C 	C 	0.67865	0.71174	0.3387	-0.441
Mof_C 	C 	0.73134	0.69794	0.2415	0.239
Mof_H 	H 	0.7241	0.7289	0.1627	-0.026
Mof_C 	C 	0.79404	0.64062	0.2556	-0.223
Mof_C 	C 	0.80312	0.59394	0.3715	0.121
Mof_C 	C 	0.75274	0.60817	0.4701	-0.453
Mof_H 	H 	0.7602	0.5771	0.5487	0.162
Mof_C 	C 	0.61098	0.77214	0.3107	0.662
Mof_O 	O 	0.57986	0.80709	0.40349	-0.547
Mof_O 	O 	0.58998	0.78494	0.19171	-0.608
Mof_C 	C 	0.84985	0.63172	0.1499	0.367
Mof_O 	O 	0.84292	0.67922	0.05268	-0.455
Mof_O 	O 	0.90562	0.57673	0.15921	-0.552
Mof_C 	C 	0.86342	0.52567	0.3935	0.364
Mof_O 	O 	0.93229	0.53909	0.45159	-0.706
Mof_O 	O 	0.84314	0.45299	0.35915	-0.442
Mof_H 	H 	0.033	0.476	0.277	0.73
Mof_Tb	Tb	0.46189	0.87743	0.45696	2.364
Mof_O 	O 	0.14287	0.17985	0.55439	-1.413
Mof_H 	H 	0.152	0.157	0.599	1.016
Mof_C 	C 	0.19113	0.16723	0.4563	0.71
Mof_C 	C 	0.17865	0.21174	0.3387	-0.426
Mof_C 	C 	0.23134	0.19794	0.2415	0.24
Mof_H 	H 	0.2241	0.2289	0.1627	-0.022
Mof_C 	C 	0.29404	0.14062	0.2556	-0.22
Mof_C 	C 	0.30312	0.09394	0.3715	0.132
Mof_C 	C 	0.25274	0.10817	0.4701	-0.449
Mof_H 	H 	0.2602	0.0771	0.5487	0.165
Mof_C 	C 	0.11098	0.27214	0.3107	0.655
Mof_O 	O 	0.07986	0.30709	0.40349	-0.486
Mof_O 	O 	0.08998	0.28494	0.19171	-0.604
Mof_C 	C 	0.34985	0.13172	0.1499	0.378
Mof_O 	O 	0.34292	0.17922	0.05268	-0.47
Mof_O 	O 	0.40562	0.07673	0.15921	-0.57
Mof_C 	C 	0.36342	0.02567	0.3935	0.346
Mof_O 	O 	0.43229	0.03909	0.45159	-0.659
Mof_O 	O 	0.34314	0.95299	0.35915	-0.455
Mof_H 	H 	0.533	0.976	0.277	0.89
Mof_Tb	Tb	0.03811	0.37743	0.04304	2.514
Mof_O 	O 	0.35713	0.67985	0.94561	-1.424
Mof_H 	H 	0.348	0.657	0.901	1.01
Mof_C 	C 	0.30887	0.66723	0.0437	0.705
Mof_C 	C 	0.32135	0.71174	0.1613	-0.442
Mof_C 	C 	0.26866	0.69794	0.2585	0.243
Mof_H 	H 	0.2759	0.7289	0.3373	-0.021
Mof_C 	C 	0.20596	0.64062	0.2444	-0.221
Mof_C 	C 	0.19688	0.59394	0.1285	0.152
Mof_C 	C 	0.24726	0.60817	0.0299	-0.485
Mof_H 	H 	0.2398	0.5771	0.9513	0.18
Mof_C 	C 	0.38902	0.77214	0.1893	0.662
Mof_O 	O 	0.42014	0.80709	0.09651	-0.55
Mof_O 	O 	0.41002	0.78494	0.30829	-0.609
Mof_C 	C 	0.15015	0.63172	0.3501	0.376
Mof_O 	O 	0.15708	0.67922	0.44732	-0.47
Mof_O 	O 	0.09438	0.57673	0.34079	-0.541
Mof_C 	C 	0.13658	0.52567	0.1065	0.323
Mof_O 	O 	0.06771	0.53909	0.04841	-0.594
Mof_O 	O 	0.15686	0.45299	0.14085	-0.464
Mof_H 	H 	0.967	0.476	0.223	0.616
Mof_Tb	Tb	0.5381	0.87743	0.04304	2.33
Mof_O 	O 	0.85713	0.17985	0.94561	-1.468
Mof_H 	H 	0.848	0.157	0.901	1.022
Mof_C 	C 	0.80887	0.16723	0.0437	0.713
Mof_C 	C 	0.82135	0.21174	0.1613	-0.45
Mof_C 	C 	0.76866	0.19794	0.2585	0.241
Mof_H 	H 	0.7759	0.2289	0.3373	-0.024
Mof_C 	C 	0.70596	0.14062	0.2444	-0.226
Mof_C 	C 	0.69688	0.09394	0.1285	0.132
Mof_C 	C 	0.74726	0.10817	0.0299	-0.467
Mof_H 	H 	0.7398	0.0771	0.9513	0.163
Mof_C 	C 	0.88902	0.27214	0.1893	0.659
Mof_O 	O 	0.92014	0.30709	0.09651	-0.606
Mof_O 	O 	0.91002	0.28494	0.30829	-0.613
Mof_C 	C 	0.65015	0.13172	0.3501	0.377
Mof_O 	O 	0.65708	0.17922	0.44732	-0.468
Mof_O 	O 	0.59438	0.07673	0.34079	-0.569
Mof_C 	C 	0.63658	0.02567	0.1065	0.349
Mof_O 	O 	0.56771	0.03909	0.04841	-0.661
Mof_O 	O 	0.65686	0.95299	0.14085	-0.464
Mof_H 	H 	0.467	0.976	0.223	0.889
Mof_O 	O 	1.8748e-33	0.552	0.75	-1.554
Mof_O 	O 	0.5	0.052	0.75	-2.032
Mof_O 	O 	6.24933e-34	0.448	0.25	-1.564
Mof_O 	O 	0.5	0.948	0.25	-2.024
_end
