data_functionalizedCrystal
_audit_creation_method	'EQeq! by Chris Wilmer'
_symmetry_space_group_name_H-M	'P1'
_symmetry_Int_Tables_number	1
_symmetry_cell_setting	triclinic
loop_
_symmetry_equiv_pos_as_xyz
  x,y,z
_cell_length_a	4.941
_cell_length_b	10.96
_cell_length_c	12.756
_cell_angle_alpha	91.5127
_cell_angle_beta	101.167
_cell_angle_gamma	82.166
loop_
_atom_site_label
_atom_site_type_symbol
_atom_site_fract_x
_atom_site_fract_y
_atom_site_fract_z
_atom_site_charge
Mof_Cu	Cu	0.61059	0.44296	0.22642	0.921
Mof_Cu	Cu	0.38417	0.94296	0.77358	0.88
Mof_H 	H 	0.7476	0.6799	0.3352	0.018
Mof_H 	H 	0.6854	0.786	0.4896	0.062
Mof_H 	H 	0.1897	0.5428	0.5446	0.074
Mof_H 	H 	0.2705	0.4405	0.3914	0.021
Mof_H 	H 	0.0667	0.2504	0.1954	0.02
Mof_H 	H 	0.2015	0.1179	0.0678	0.094
Mof_H 	H 	0.4862	0.2368	0.8704	0.069
Mof_H 	H 	0.3772	0.3754	0.9988	0.022
Mof_H 	H 	0.4124	0.1799	0.6648	0.013
Mof_H 	H 	0.1958	0.286	0.5104	0.091
Mof_H 	H 	0.6451	0.0428	0.4554	0.139
Mof_H 	H 	0.8791	0.9405	0.6086	-0.107
Mof_H 	H 	0.8713	0.7504	0.8046	0.033
Mof_H 	H 	0.1337	0.6179	0.9322	0.064
Mof_H 	H 	0.6158	0.7368	0.1296	0.055
Mof_H 	H 	0.3784	0.8754	0.0012	0.008
Mof_C 	C 	0.3758	0.7465	0.6334	0.289
Mof_C 	C 	0.6363	0.6519	0.378	0.043
Mof_C 	C 	0.5989	0.7163	0.4706	-0.073
Mof_C 	C 	0.4322	0.6759	0.5344	-0.017
Mof_C 	C 	0.3048	0.5714	0.5038	-0.077
Mof_C 	C 	0.3534	0.511	0.4112	0.048
Mof_C 	C 	0.9392	0.0744	0.8674	0.317
Mof_C 	C 	0.9497	0.2488	0.129	0.071
Mof_C 	C 	0.031	0.168	0.0528	-0.091
Mof_C 	C 	0.8589	0.1613	0.9536	-0.008
Mof_C 	C 	0.609	0.2394	0.9354	-0.073
Mof_C 	C 	0.542	0.3212	0.0136	0.049
Mof_C 	C 	0.7424	0.2465	0.3666	0.267
Mof_C 	C 	0.2583	0.1519	0.622	0.084
Mof_C 	C 	0.1283	0.2163	0.5294	-0.125
Mof_C 	C 	0.8978	0.1759	0.4656	0.058
Mof_C 	C 	0.801	0.0714	0.4962	-0.197
Mof_C 	C 	0.9422	0.011	0.5888	0.266
Mof_C 	C 	0.0718	0.5744	0.1326	0.31
Mof_C 	C 	0.8207	0.7488	0.871	0.026
Mof_C 	C 	0.9782	0.668	0.9472	-0.052
Mof_C 	C 	0.9053	0.6613	0.0464	-0.035
Mof_C 	C 	0.6736	0.7394	0.0646	-0.057
Mof_C 	C 	0.5284	0.8212	0.9864	0.02
Mof_N 	N 	0.5155	0.5497	0.3482	-0.197
Mof_N 	N 	0.709	0.3253	0.1116	-0.204
Mof_N 	N 	0.1673	0.0497	0.6518	-0.217
Mof_N 	N 	0.5974	0.8253	0.8884	-0.207
Mof_O 	O 	0.5079	0.8375	0.6586	-0.387
Mof_O 	O 	0.20127	0.7145	0.68294	-0.282
Mof_O 	O 	0.1994	0.0369	0.8796	-0.346
Mof_O 	O 	0.75173	0.0483	0.79326	-0.322
Mof_O 	O 	0.8493	0.3375	0.3414	-0.358
Mof_O 	O 	0.51833	0.2145	0.31706	-0.262
Mof_O 	O 	0.3198	0.5369	0.1204	-0.385
Mof_O 	O 	0.95847	0.5483	0.20674	-0.353
_end
