data_functionalizedCrystal
_audit_creation_method	'EQeq! by Chris Wilmer'
_symmetry_space_group_name_H-M	'P1'
_symmetry_Int_Tables_number	1
_symmetry_cell_setting	triclinic
loop_
_symmetry_equiv_pos_as_xyz
  x,y,z
_cell_length_a	11.715
_cell_length_b	5.5679
_cell_length_c	22.8208
_cell_angle_alpha	90
_cell_angle_beta	100.532
_cell_angle_gamma	90
loop_
_atom_site_label
_atom_site_type_symbol
_atom_site_fract_x
_atom_site_fract_y
_atom_site_fract_z
_atom_site_charge
Mof_Ca	Ca	0.86255	0.24358	0.27793	1.554
Mof_S 	S 	0.10095	0.03536	0.39303	0.318
Mof_O 	O 	0.08355	0.7795	0.38907	-0.251
Mof_O 	O 	0.0049	0.1945	0.37009	-0.358
Mof_O 	O 	0.23571	0.4767	0.672	-0.513
Mof_O 	O 	0.23927	0.0851	0.69086	-0.579
Mof_O 	O 	0.51327	0.4766	0.25391	-0.477
Mof_O 	O 	0.54238	0.0808	0.24482	-0.49
Mof_C 	C 	0.2011	0.2085	0.58947	-0.154
Mof_C 	C 	0.1465	0.3807	0.55011	0.055
Mof_H 	H 	0.1286	0.5331	0.5648	0.019
Mof_C 	C 	0.1179	0.3325	0.48936	-0.091
Mof_H 	H 	0.0801	0.45	0.4624	0.083
Mof_C 	C 	0.14579	0.1087	0.46905	0.002
Mof_C 	C 	0.2053	0.9379	0.50746	-0.088
Mof_H 	H 	0.2274	0.7891	0.4925	0.066
Mof_C 	C 	0.2321	0.9883	0.56816	0.049
Mof_H 	H 	0.2716	0.8724	0.595	0.011
Mof_C 	C 	0.2256	0.2619	0.6552	0.441
Mof_C 	C 	0.39936	0.208	0.29898	-0.154
Mof_C 	C 	0.3116	0.3767	0.29973	0.04
Mof_H 	H 	0.3146	0.5266	0.2802	0.029
Mof_C 	C 	0.2196	0.3278	0.32884	-0.079
Mof_H 	H 	0.159	0.4412	0.3288	0.07
Mof_C 	C 	0.21875	0.1087	0.35791	-0.013
Mof_C 	C 	0.3071	0.94	0.35928	-0.083
Mof_H 	H 	0.3057	0.7935	0.3805	0.065
Mof_C 	C 	0.39738	0.9897	0.32908	0.048
Mof_H 	H 	0.4576	0.8755	0.3289	0.01
Mof_C 	C 	0.49374	0.2587	0.26326	0.464
Mof_Ca	Ca	0.63745	0.74358	0.22207	1.564
Mof_S 	S 	0.39905	0.53536	0.10697	0.319
Mof_O 	O 	0.41645	0.2795	0.11093	-0.25
Mof_O 	O 	0.4951	0.6945	0.12991	-0.358
Mof_O 	O 	0.26429	0.9767	0.828	-0.515
Mof_O 	O 	0.26073	0.5851	0.80914	-0.581
Mof_O 	O 	0.98673	0.9766	0.24609	-0.47
Mof_O 	O 	0.95762	0.5808	0.25518	-0.486
Mof_C 	C 	0.2989	0.7085	0.91053	-0.157
Mof_C 	C 	0.3535	0.8807	0.94989	0.054
Mof_H 	H 	0.3714	0.0331	0.9352	0.02
Mof_C 	C 	0.3821	0.8325	0.01064	-0.091
Mof_H 	H 	0.4199	0.95	0.0376	0.082
Mof_C 	C 	0.35421	0.6087	0.03095	0
Mof_C 	C 	0.2947	0.4379	0.99254	-0.086
Mof_H 	H 	0.2726	0.2891	0.0075	0.066
Mof_C 	C 	0.2679	0.4883	0.93184	0.051
Mof_H 	H 	0.2284	0.3724	0.905	0.011
Mof_C 	C 	0.2744	0.7619	0.8448	0.442
Mof_C 	C 	0.10064	0.708	0.20102	-0.15
Mof_C 	C 	0.1884	0.8767	0.20027	0.037
Mof_H 	H 	0.1854	0.0266	0.2198	0.03
Mof_C 	C 	0.2804	0.8278	0.17116	-0.077
Mof_H 	H 	0.341	0.9412	0.1712	0.07
Mof_C 	C 	0.28125	0.6087	0.14209	-0.014
Mof_C 	C 	0.1929	0.44	0.14072	-0.082
Mof_H 	H 	0.1943	0.2935	0.1195	0.064
Mof_C 	C 	0.10262	0.4897	0.17092	0.044
Mof_H 	H 	0.0424	0.3755	0.1711	0.011
Mof_C 	C 	0.00626	0.7587	0.23674	0.457
Mof_Ca	Ca	0.13745	0.75642	0.72207	1.555
Mof_S 	S 	0.89905	0.96464	0.60697	0.319
Mof_O 	O 	0.91645	0.2205	0.61093	-0.251
Mof_O 	O 	0.9951	0.8055	0.62991	-0.358
Mof_O 	O 	0.76429	0.5233	0.328	-0.513
Mof_O 	O 	0.76073	0.9149	0.30914	-0.579
Mof_O 	O 	0.48673	0.5234	0.74609	-0.477
Mof_O 	O 	0.45762	0.9192	0.75518	-0.49
Mof_C 	C 	0.7989	0.7915	0.41053	-0.154
Mof_C 	C 	0.8535	0.6193	0.44989	0.055
Mof_H 	H 	0.8714	0.4669	0.4352	0.019
Mof_C 	C 	0.8821	0.6675	0.51064	-0.091
Mof_H 	H 	0.9199	0.55	0.5376	0.083
Mof_C 	C 	0.85421	0.8913	0.53095	0.002
Mof_C 	C 	0.7947	0.0621	0.49254	-0.088
Mof_H 	H 	0.7726	0.2109	0.5075	0.066
Mof_C 	C 	0.7679	0.0117	0.43184	0.049
Mof_H 	H 	0.7284	0.1276	0.405	0.011
Mof_C 	C 	0.7744	0.7381	0.3448	0.441
Mof_C 	C 	0.60064	0.792	0.70102	-0.154
Mof_C 	C 	0.6884	0.6233	0.70027	0.04
Mof_H 	H 	0.6854	0.4734	0.7198	0.029
Mof_C 	C 	0.7804	0.6722	0.67116	-0.079
Mof_H 	H 	0.841	0.5588	0.6712	0.07
Mof_C 	C 	0.78125	0.8913	0.64209	-0.013
Mof_C 	C 	0.6929	0.06	0.64072	-0.083
Mof_H 	H 	0.6943	0.2065	0.6195	0.065
Mof_C 	C 	0.60262	0.0103	0.67092	0.048
Mof_H 	H 	0.5424	0.1245	0.6711	0.01
Mof_C 	C 	0.50626	0.7413	0.73674	0.464
Mof_Ca	Ca	0.36255	0.25642	0.77793	1.564
Mof_S 	S 	0.60095	0.46464	0.89303	0.319
Mof_O 	O 	0.58355	0.7205	0.88907	-0.25
Mof_O 	O 	0.5049	0.3055	0.87009	-0.358
Mof_O 	O 	0.73571	0.0233	0.172	-0.515
Mof_O 	O 	0.73927	0.4149	0.19086	-0.581
Mof_O 	O 	0.01327	0.0234	0.75391	-0.47
Mof_O 	O 	0.04238	0.4192	0.74482	-0.486
Mof_C 	C 	0.7011	0.2915	0.08947	-0.157
Mof_C 	C 	0.6465	0.1193	0.05011	0.054
Mof_H 	H 	0.6286	0.9669	0.0648	0.02
Mof_C 	C 	0.6179	0.1675	0.98936	-0.091
Mof_H 	H 	0.5801	0.05	0.9624	0.082
Mof_C 	C 	0.64579	0.3913	0.96905	0
Mof_C 	C 	0.7053	0.5621	0.00746	-0.086
Mof_H 	H 	0.7274	0.7109	0.9925	0.066
Mof_C 	C 	0.7321	0.5117	0.06816	0.051
Mof_H 	H 	0.7716	0.6276	0.095	0.011
Mof_C 	C 	0.7256	0.2381	0.1552	0.442
Mof_C 	C 	0.89936	0.292	0.79898	-0.15
Mof_C 	C 	0.8116	0.1233	0.79973	0.037
Mof_H 	H 	0.8146	0.9734	0.7802	0.03
Mof_C 	C 	0.7196	0.1722	0.82884	-0.077
Mof_H 	H 	0.659	0.0588	0.8288	0.07
Mof_C 	C 	0.71875	0.3913	0.85791	-0.014
Mof_C 	C 	0.8071	0.56	0.85928	-0.082
Mof_H 	H 	0.8057	0.7065	0.8805	0.064
Mof_C 	C 	0.89738	0.5103	0.82908	0.044
Mof_H 	H 	0.9576	0.6245	0.8289	0.011
Mof_C 	C 	0.99374	0.2413	0.76326	0.457
_end
