data_functionalizedCrystal
_audit_creation_method	'EQeq! by Chris Wilmer'
_symmetry_space_group_name_H-M	'P1'
_symmetry_Int_Tables_number	1
_symmetry_cell_setting	triclinic
loop_
_symmetry_equiv_pos_as_xyz
  x,y,z
_cell_length_a	9.6812
_cell_length_b	12.2892
_cell_length_c	15.7406
_cell_angle_alpha	88.977
_cell_angle_beta	77.463
_cell_angle_gamma	69.75
loop_
_atom_site_label
_atom_site_type_symbol
_atom_site_fract_x
_atom_site_fract_y
_atom_site_fract_z
_atom_site_charge
Mof_Nd	Nd	0.29837	0.97316	0.51569	2.757
Mof_O 	O 	0.1586	0.8666	0.60666	-0.593
Mof_O 	O 	0.0149	0.7628	0.59312	-0.522
Mof_H 	H 	0.9861	0.813	0.5577	0.297
Mof_O 	O 	0.2557	0.0531	0.66238	-0.566
Mof_O 	O 	0.4615	0.082	0.59129	-0.696
Mof_O 	O 	0.304	0.1368	0.4378	-0.642
Mof_O 	O 	0.5175	0.1745	0.42478	-0.622
Mof_O 	O 	0.1972	0.9047	0.40907	-0.611
Mof_O 	O 	0.9688	0.8899	0.45652	-0.564
Mof_C 	C 	0.2294	0.5437	0.9382	-0.018
Mof_C 	C 	0.2695	0.4226	0.9438	-0.022
Mof_C 	C 	0.2904	0.376	0.0231	-0.049
Mof_H 	H 	0.3203	0.294	0.0258	0.041
Mof_C 	C 	0.2702	0.4423	0.0991	-0.025
Mof_C 	C 	0.225	0.5634	0.0951	-0.019
Mof_C 	C 	0.208	0.6097	0.0142	-0.054
Mof_H 	H 	0.18	0.6916	0.0111	0.044
Mof_C 	C 	0.2005	0.6037	0.8575	0.087
Mof_C 	C 	0.1218	0.571	0.8039	-0.155
Mof_H 	H 	0.0883	0.5074	0.818	0.086
Mof_C 	C 	0.0924	0.63	0.7306	0.096
Mof_H 	H 	0.038	0.6074	0.695	0.017
Mof_C 	C 	0.1423	0.7231	0.7084	-0.21
Mof_C 	C 	0.2207	0.7572	0.7609	0.102
Mof_H 	H 	0.2551	0.8202	0.7462	-0.001
Mof_C 	C 	0.2482	0.6979	0.8352	-0.164
Mof_H 	H 	0.3003	0.7218	0.8715	0.087
Mof_C 	C 	0.1081	0.7898	0.6319	0.517
Mof_C 	C 	0.2956	0.3395	0.869	0.089
Mof_C 	C 	0.4041	0.3283	0.7932	-0.17
Mof_H 	H 	0.4627	0.3772	0.7865	0.087
Mof_C 	C 	0.4287	0.2468	0.7267	0.115
Mof_H 	H 	0.5078	0.2373	0.6766	-0.025
Mof_C 	C 	0.3394	0.1791	0.7327	-0.199
Mof_C 	C 	0.2277	0.1903	0.8084	0.098
Mof_H 	H 	0.1649	0.1448	0.813	0.012
Mof_C 	C 	0.2077	0.2681	0.8772	-0.16
Mof_H 	H 	0.1348	0.2729	0.9295	0.082
Mof_C 	C 	0.3534	0.0981	0.6585	0.485
Mof_C 	C 	0.3016	0.3786	0.1789	0.101
Mof_C 	C 	0.2585	0.283	0.1981	-0.185
Mof_H 	H 	0.2083	0.259	0.1605	0.09
Mof_C 	C 	0.2863	0.222	0.27	0.128
Mof_H 	H 	0.2525	0.1584	0.2827	-0.011
Mof_C 	C 	0.3636	0.2527	0.3245	-0.223
Mof_C 	C 	0.4134	0.3449	0.3043	0.118
Mof_H 	H 	0.4704	0.3646	0.3396	-0.004
Mof_C 	C 	0.3811	0.4087	0.233	-0.17
Mof_H 	H 	0.4131	0.4734	0.221	0.089
Mof_C 	C 	0.3974	0.1833	0.4023	0.564
Mof_C 	C 	0.1862	0.6453	0.1718	0.087
Mof_C 	C 	0.0875	0.6368	0.2484	-0.157
Mof_H 	H 	0.0454	0.5771	0.2517	0.085
Mof_C 	C 	0.0498	0.7148	0.3203	0.105
Mof_H 	H 	0.9781	0.7105	0.3709	-0.004
Mof_C 	C 	0.1166	0.799	0.3182	-0.215
Mof_C 	C 	0.2151	0.8083	0.2415	0.105
Mof_H 	H 	0.2609	0.8657	0.239	-0.008
Mof_C 	C 	0.2462	0.7342	0.169	-0.165
Mof_H 	H 	0.3095	0.7439	0.1163	0.084
Mof_C 	C 	0.0926	0.8712	0.3996	0.524
Mof_Nd	Nd	0.70163	0.02684	0.48431	2.756
Mof_O 	O 	0.8414	0.1334	0.39334	-0.594
Mof_O 	O 	0.9851	0.2372	0.40688	-0.522
Mof_H 	H 	0.0139	0.187	0.4423	0.297
Mof_O 	O 	0.7443	0.9469	0.33762	-0.566
Mof_O 	O 	0.5385	0.918	0.40871	-0.696
Mof_O 	O 	0.696	0.8632	0.5622	-0.642
Mof_O 	O 	0.4825	0.8255	0.57522	-0.622
Mof_O 	O 	0.8028	0.0953	0.59093	-0.611
Mof_O 	O 	0.0312	0.1101	0.54348	-0.564
Mof_C 	C 	0.7706	0.4563	0.0618	-0.018
Mof_C 	C 	0.7305	0.5774	0.0562	-0.022
Mof_C 	C 	0.7096	0.624	0.9769	-0.049
Mof_H 	H 	0.6797	0.706	0.9742	0.041
Mof_C 	C 	0.7298	0.5577	0.9009	-0.025
Mof_C 	C 	0.775	0.4366	0.9049	-0.019
Mof_C 	C 	0.792	0.3903	0.9858	-0.054
Mof_H 	H 	0.82	0.3084	0.9889	0.044
Mof_C 	C 	0.7995	0.3963	0.1425	0.087
Mof_C 	C 	0.8782	0.429	0.1961	-0.155
Mof_H 	H 	0.9117	0.4926	0.182	0.086
Mof_C 	C 	0.9076	0.37	0.2694	0.096
Mof_H 	H 	0.962	0.3926	0.305	0.017
Mof_C 	C 	0.8577	0.2769	0.2916	-0.21
Mof_C 	C 	0.7793	0.2428	0.2391	0.102
Mof_H 	H 	0.7449	0.1798	0.2538	-0.001
Mof_C 	C 	0.7518	0.3021	0.1648	-0.164
Mof_H 	H 	0.6997	0.2782	0.1285	0.087
Mof_C 	C 	0.8919	0.2102	0.3681	0.517
Mof_C 	C 	0.7044	0.6605	0.131	0.089
Mof_C 	C 	0.5959	0.6717	0.2068	-0.17
Mof_H 	H 	0.5373	0.6228	0.2135	0.087
Mof_C 	C 	0.5713	0.7532	0.2733	0.115
Mof_H 	H 	0.4922	0.7627	0.3234	-0.025
Mof_C 	C 	0.6606	0.8209	0.2673	-0.199
Mof_C 	C 	0.7723	0.8097	0.1916	0.098
Mof_H 	H 	0.8351	0.8552	0.187	0.012
Mof_C 	C 	0.7923	0.7319	0.1228	-0.16
Mof_H 	H 	0.8652	0.7271	0.0705	0.082
Mof_C 	C 	0.6466	0.9019	0.3415	0.485
Mof_C 	C 	0.6984	0.6214	0.8211	0.101
Mof_C 	C 	0.7415	0.717	0.8019	-0.185
Mof_H 	H 	0.7917	0.741	0.8395	0.09
Mof_C 	C 	0.7137	0.778	0.73	0.128
Mof_H 	H 	0.7475	0.8416	0.7173	-0.011
Mof_C 	C 	0.6364	0.7473	0.6755	-0.223
Mof_C 	C 	0.5866	0.6551	0.6957	0.118
Mof_H 	H 	0.5296	0.6354	0.6604	-0.004
Mof_C 	C 	0.6189	0.5913	0.767	-0.17
Mof_H 	H 	0.5869	0.5266	0.779	0.089
Mof_C 	C 	0.6026	0.8167	0.5977	0.564
Mof_C 	C 	0.8138	0.3547	0.8282	0.087
Mof_C 	C 	0.9125	0.3632	0.7516	-0.157
Mof_H 	H 	0.9546	0.4229	0.7483	0.085
Mof_C 	C 	0.9502	0.2852	0.6797	0.105
Mof_H 	H 	0.0219	0.2895	0.6291	-0.004
Mof_C 	C 	0.8834	0.201	0.6818	-0.215
Mof_C 	C 	0.7849	0.1917	0.7585	0.105
Mof_H 	H 	0.7391	0.1343	0.761	-0.008
Mof_C 	C 	0.7538	0.2658	0.831	-0.165
Mof_H 	H 	0.6905	0.2561	0.8837	0.084
Mof_C 	C 	0.9074	0.1288	0.6004	0.524
Mof_C 	C 	0.1887	0.9733	0.9328	0.07
Mof_C 	C 	0.2948	0.9817	0.9781	0.212
Mof_C 	C 	0.2481	0.0084	0.068	-0.443
Mof_C 	C 	0.099	0.0265	0.1113	-0.008
Mof_C 	C 	0.9953	0.018	0.0651	-0.118
Mof_C 	C 	0.0391	0.9912	0.9748	0.267
Mof_C 	C 	0.4551	0.9633	0.93	-0.12
Mof_C 	C 	0.9269	0.9816	0.9246	0.003
Mof_H 	H 	0.2189	0.9554	0.8729	0.043
Mof_H 	H 	0.3167	0.0141	0.0994	0.063
Mof_H 	H 	0.0689	0.0443	0.1711	0.021
Mof_H 	H 	0.8962	0.0303	0.0944	0.022
Mof_H 	H 	0.5008	0.8866	0.902	0.111
Mof_H 	H 	0.4544	0.0197	0.8869	0.37
Mof_H 	H 	0.5121	0.9721	0.9706	-0.332
Mof_H 	H 	0.917	0.0374	0.8808	0.009
Mof_H 	H 	0.9617	0.9047	0.8972	0.069
Mof_H 	H 	0.8304	0.9965	0.9638	0.107
Mof_C 	C 	0.2954	0.0213	0.0805	0.039
Mof_C 	C 	0.4466	0.0013	0.0392	0.768
Mof_C 	C 	0.495	0.9631	0.951	-0.271
Mof_C 	C 	0.2454	0.9653	0.9479	-0.292
Mof_C 	C 	0.3949	0.9451	0.9057	-0.595
Mof_C 	C 	0.1935	0.0039	0.0363	0.069
Mof_C 	C 	0.5539	0.0197	0.0896	0.172
Mof_C 	C 	0.0311	0.0261	0.0822	-0.089
Mof_H 	H 	0.262	0.0469	0.1391	0.04
Mof_H 	H 	0.5947	0.9496	0.9223	-0.198
Mof_H 	H 	0.1795	0.953	0.9173	0.027
Mof_H 	H 	0.4283	0.9196	0.8471	0.185
Mof_H 	H 	0.5168	0.0992	0.1121	0.105
Mof_H 	H 	0.561	0.9694	0.1371	-0.341
Mof_H 	H 	0.652	0.0022	0.0516	0.193
Mof_H 	H 	0.0282	0.9769	0.1301	0.06
Mof_H 	H 	0.9837	0.106	0.1038	-0
Mof_H 	H 	0.9782	0.0096	0.042	-0.167
Mof_C 	C 	0.8113	0.0267	0.0672	0.07
Mof_C 	C 	0.7052	0.0183	0.0219	0.212
Mof_C 	C 	0.7519	0.9916	0.932	-0.443
Mof_C 	C 	0.901	0.9735	0.8887	-0.008
Mof_C 	C 	0.0047	0.982	0.9349	-0.118
Mof_C 	C 	0.9609	0.0088	0.0252	0.267
Mof_C 	C 	0.5449	0.0367	0.07	-0.12
Mof_C 	C 	0.0731	0.0184	0.0754	0.003
Mof_H 	H 	0.7811	0.0446	0.1271	0.043
Mof_H 	H 	0.6833	0.9859	0.9006	0.063
Mof_H 	H 	0.9311	0.9557	0.8289	0.021
Mof_H 	H 	0.1038	0.9697	0.9056	0.022
Mof_H 	H 	0.4992	0.1134	0.098	0.111
Mof_H 	H 	0.5456	0.9803	0.1131	0.37
Mof_H 	H 	0.4879	0.0279	0.0294	-0.332
Mof_H 	H 	0.083	0.9626	0.1192	0.009
Mof_H 	H 	0.0383	0.0953	0.1028	0.069
Mof_H 	H 	0.1696	0.0035	0.0362	0.107
Mof_C 	C 	0.7046	0.9787	0.9195	0.039
Mof_C 	C 	0.5534	0.9987	0.9608	0.768
Mof_C 	C 	0.505	0.0369	0.049	-0.271
Mof_C 	C 	0.7546	0.0347	0.0521	-0.292
Mof_C 	C 	0.6051	0.0549	0.0943	-0.595
Mof_C 	C 	0.8065	0.9961	0.9637	0.069
Mof_C 	C 	0.4461	0.9803	0.9104	0.172
Mof_C 	C 	0.9689	0.9739	0.9178	-0.089
Mof_H 	H 	0.738	0.9531	0.8609	0.04
Mof_H 	H 	0.4053	0.0504	0.0777	-0.198
Mof_H 	H 	0.8205	0.047	0.0827	0.027
Mof_H 	H 	0.5717	0.0804	0.1529	0.185
Mof_H 	H 	0.4832	0.9008	0.8879	0.105
Mof_H 	H 	0.439	0.0306	0.8629	-0.341
Mof_H 	H 	0.348	0.9978	0.9484	0.193
Mof_H 	H 	0.9718	0.0231	0.8699	0.06
Mof_H 	H 	0.0163	0.894	0.8962	-0
Mof_H 	H 	0.0218	0.9904	0.958	-0.167
_end
