data_functionalizedCrystal
_audit_creation_method	'EQeq! by Chris Wilmer'
_symmetry_space_group_name_H-M	'P1'
_symmetry_Int_Tables_number	1
_symmetry_cell_setting	triclinic
loop_
_symmetry_equiv_pos_as_xyz
  x,y,z
_cell_length_a	15.0384
_cell_length_b	15.0384
_cell_length_c	15.0384
_cell_angle_alpha	71.9781
_cell_angle_beta	71.9781
_cell_angle_gamma	71.9781
loop_
_atom_site_label
_atom_site_type_symbol
_atom_site_fract_x
_atom_site_fract_y
_atom_site_fract_z
_atom_site_charge
Mof_In	In	0.25	0.59009	0.90991	2.407
Mof_In	In	0.90991	0.25	0.59009	2.407
Mof_In	In	0.59009	0.90991	0.25	2.407
Mof_In	In	0.75	0.40991	0.09009	2.407
Mof_In	In	0.09009	0.75	0.40991	2.407
Mof_In	In	0.40991	0.09009	0.75	2.407
Mof_H 	H 	0.6084	0.6117	0.8729	0.062
Mof_H 	H 	0.4908	0.5331	0.8984	0.02
Mof_H 	H 	0.8729	0.6084	0.6117	0.062
Mof_H 	H 	0.8984	0.4908	0.5331	0.02
Mof_H 	H 	0.6117	0.8729	0.6084	0.062
Mof_H 	H 	0.5331	0.8984	0.4908	0.02
Mof_H 	H 	0.8883	0.8916	0.6271	0.061
Mof_H 	H 	0.9669	0.0092	0.6016	0.021
Mof_H 	H 	0.8916	0.6271	0.8883	0.061
Mof_H 	H 	0.0092	0.6016	0.9669	0.021
Mof_H 	H 	0.6271	0.8883	0.8916	0.061
Mof_H 	H 	0.6016	0.9669	0.0092	0.021
Mof_H 	H 	0.3916	0.3883	0.1271	0.062
Mof_H 	H 	0.5092	0.4669	0.1016	0.02
Mof_H 	H 	0.1271	0.3916	0.3883	0.062
Mof_H 	H 	0.1016	0.5092	0.4669	0.02
Mof_H 	H 	0.3883	0.1271	0.3916	0.062
Mof_H 	H 	0.4669	0.1016	0.5092	0.02
Mof_H 	H 	0.1117	0.1084	0.3729	0.061
Mof_H 	H 	0.0331	0.9908	0.3984	0.021
Mof_H 	H 	0.1084	0.3729	0.1117	0.061
Mof_H 	H 	0.9908	0.3984	0.0331	0.021
Mof_H 	H 	0.3729	0.1117	0.1084	0.061
Mof_H 	H 	0.3984	0.0331	0.9908	0.021
Mof_C 	C 	0.36634	0.74578	0.86205	-0.044
Mof_C 	C 	0.43945	0.79201	0.84243	0.035
Mof_C 	C 	0.54675	0.64775	0.86775	-0.003
Mof_C 	C 	0.47561	0.60001	0.88481	0.069
Mof_C 	C 	0.42481	0.90021	0.81541	0.317
Mof_C 	C 	0.26351	0.79825	0.86126	0.376
Mof_C 	C 	0.86205	0.36634	0.74578	-0.044
Mof_C 	C 	0.84243	0.43945	0.79201	0.035
Mof_C 	C 	0.86775	0.54675	0.64775	-0.003
Mof_C 	C 	0.88481	0.47561	0.60001	0.069
Mof_C 	C 	0.81541	0.42481	0.90021	0.317
Mof_C 	C 	0.86126	0.26351	0.79825	0.376
Mof_C 	C 	0.74578	0.86205	0.36634	-0.044
Mof_C 	C 	0.79201	0.84243	0.43945	0.035
Mof_C 	C 	0.64775	0.86775	0.54675	-0.003
Mof_C 	C 	0.60001	0.88481	0.47561	0.069
Mof_C 	C 	0.90021	0.81541	0.42481	0.317
Mof_C 	C 	0.79825	0.86126	0.26351	0.376
Mof_C 	C 	0.75422	0.13366	0.63795	-0.044
Mof_C 	C 	0.70799	0.06055	0.65757	0.032
Mof_C 	C 	0.85225	0.95325	0.63225	0.004
Mof_C 	C 	0.89999	0.02439	0.61519	0.063
Mof_C 	C 	0.59979	0.07519	0.68459	0.317
Mof_C 	C 	0.70175	0.23649	0.63874	0.376
Mof_C 	C 	0.13366	0.63795	0.75422	-0.044
Mof_C 	C 	0.06055	0.65757	0.70799	0.032
Mof_C 	C 	0.95325	0.63225	0.85225	0.004
Mof_C 	C 	0.02439	0.61519	0.89999	0.063
Mof_C 	C 	0.07519	0.68459	0.59979	0.317
Mof_C 	C 	0.23649	0.63874	0.70175	0.376
Mof_C 	C 	0.63795	0.75422	0.13366	-0.044
Mof_C 	C 	0.65757	0.70799	0.06055	0.032
Mof_C 	C 	0.63225	0.85225	0.95325	0.004
Mof_C 	C 	0.61519	0.89999	0.02439	0.063
Mof_C 	C 	0.68459	0.59979	0.07519	0.317
Mof_C 	C 	0.63874	0.70175	0.23649	0.376
Mof_C 	C 	0.63366	0.25422	0.13795	-0.044
Mof_C 	C 	0.56055	0.20799	0.15757	0.035
Mof_C 	C 	0.45325	0.35225	0.13225	-0.003
Mof_C 	C 	0.52439	0.39999	0.11519	0.069
Mof_C 	C 	0.57519	0.09979	0.18459	0.317
Mof_C 	C 	0.73649	0.20175	0.13874	0.376
Mof_C 	C 	0.13795	0.63366	0.25422	-0.044
Mof_C 	C 	0.15757	0.56055	0.20799	0.035
Mof_C 	C 	0.13225	0.45325	0.35225	-0.003
Mof_C 	C 	0.11519	0.52439	0.39999	0.069
Mof_C 	C 	0.18459	0.57519	0.09979	0.317
Mof_C 	C 	0.13874	0.73649	0.20175	0.376
Mof_C 	C 	0.25422	0.13795	0.63366	-0.044
Mof_C 	C 	0.20799	0.15757	0.56055	0.035
Mof_C 	C 	0.35225	0.13225	0.45325	-0.003
Mof_C 	C 	0.39999	0.11519	0.52439	0.069
Mof_C 	C 	0.09979	0.18459	0.57519	0.317
Mof_C 	C 	0.20175	0.13874	0.73649	0.376
Mof_C 	C 	0.24578	0.86634	0.36205	-0.044
Mof_C 	C 	0.29201	0.93945	0.34243	0.032
Mof_C 	C 	0.14775	0.04675	0.36775	0.004
Mof_C 	C 	0.10001	0.97561	0.38481	0.063
Mof_C 	C 	0.40021	0.92481	0.31541	0.317
Mof_C 	C 	0.29825	0.76351	0.36126	0.376
Mof_C 	C 	0.86634	0.36205	0.24578	-0.044
Mof_C 	C 	0.93945	0.34243	0.29201	0.032
Mof_C 	C 	0.04675	0.36775	0.14775	0.004
Mof_C 	C 	0.97561	0.38481	0.10001	0.063
Mof_C 	C 	0.92481	0.31541	0.40021	0.317
Mof_C 	C 	0.76351	0.36126	0.29825	0.376
Mof_C 	C 	0.36205	0.24578	0.86634	-0.044
Mof_C 	C 	0.34243	0.29201	0.93945	0.032
Mof_C 	C 	0.36775	0.14775	0.04675	0.004
Mof_C 	C 	0.38481	0.10001	0.97561	0.063
Mof_C 	C 	0.31541	0.40021	0.92481	0.317
Mof_C 	C 	0.36126	0.29825	0.76351	0.376
Mof_N 	N 	0.38581	0.64888	0.88185	-0.255
Mof_N 	N 	0.53027	0.74375	0.84406	-0.091
Mof_N 	N 	0.88185	0.38581	0.64888	-0.255
Mof_N 	N 	0.84406	0.53027	0.74375	-0.091
Mof_N 	N 	0.64888	0.88185	0.38581	-0.255
Mof_N 	N 	0.74375	0.84406	0.53027	-0.091
Mof_N 	N 	0.85112	0.11419	0.61815	-0.254
Mof_N 	N 	0.75625	0.96973	0.65594	-0.091
Mof_N 	N 	0.11419	0.61815	0.85112	-0.254
Mof_N 	N 	0.96973	0.65594	0.75625	-0.091
Mof_N 	N 	0.61815	0.85112	0.11419	-0.254
Mof_N 	N 	0.65594	0.75625	0.96973	-0.091
Mof_N 	N 	0.61419	0.35112	0.11815	-0.255
Mof_N 	N 	0.46973	0.25625	0.15594	-0.091
Mof_N 	N 	0.11815	0.61419	0.35112	-0.255
Mof_N 	N 	0.15594	0.46973	0.25625	-0.091
Mof_N 	N 	0.35112	0.11815	0.61419	-0.255
Mof_N 	N 	0.25625	0.15594	0.46973	-0.091
Mof_N 	N 	0.14888	0.88581	0.38185	-0.254
Mof_N 	N 	0.24375	0.03027	0.34406	-0.091
Mof_N 	N 	0.88581	0.38185	0.14888	-0.254
Mof_N 	N 	0.03027	0.34406	0.24375	-0.091
Mof_N 	N 	0.38185	0.14888	0.88581	-0.254
Mof_N 	N 	0.34406	0.24375	0.03027	-0.091
Mof_O 	O 	0.20344	0.74645	0.88442	-0.534
Mof_O 	O 	0.27209	0.55829	0.05844	-0.505
Mof_O 	O 	0.12027	0.59857	0.05502	-0.414
Mof_O 	O 	0.24468	0.88628	0.83856	-0.235
Mof_O 	O 	0.88442	0.20344	0.74645	-0.534
Mof_O 	O 	0.05844	0.27209	0.55829	-0.505
Mof_O 	O 	0.05502	0.12027	0.59857	-0.414
Mof_O 	O 	0.83856	0.24468	0.88628	-0.235
Mof_O 	O 	0.74645	0.88442	0.20344	-0.534
Mof_O 	O 	0.55829	0.05844	0.27209	-0.505
Mof_O 	O 	0.59857	0.05502	0.12027	-0.414
Mof_O 	O 	0.88628	0.83856	0.24468	-0.235
Mof_O 	O 	0.75355	0.29656	0.61558	-0.533
Mof_O 	O 	0.94171	0.22791	0.44156	-0.506
Mof_O 	O 	0.90143	0.37973	0.44498	-0.416
Mof_O 	O 	0.61372	0.25532	0.66144	-0.235
Mof_O 	O 	0.29656	0.61558	0.75355	-0.533
Mof_O 	O 	0.22791	0.44156	0.94171	-0.506
Mof_O 	O 	0.37973	0.44498	0.90143	-0.416
Mof_O 	O 	0.25532	0.66144	0.61372	-0.235
Mof_O 	O 	0.61558	0.75355	0.29656	-0.533
Mof_O 	O 	0.44156	0.94171	0.22791	-0.506
Mof_O 	O 	0.44498	0.90143	0.37973	-0.416
Mof_O 	O 	0.66144	0.61372	0.25532	-0.235
Mof_O 	O 	0.79656	0.25355	0.11558	-0.534
Mof_O 	O 	0.72791	0.44171	0.94156	-0.505
Mof_O 	O 	0.87973	0.40143	0.94498	-0.414
Mof_O 	O 	0.75532	0.11372	0.16144	-0.235
Mof_O 	O 	0.11558	0.79656	0.25355	-0.534
Mof_O 	O 	0.94156	0.72791	0.44171	-0.505
Mof_O 	O 	0.94498	0.87973	0.40143	-0.414
Mof_O 	O 	0.16144	0.75532	0.11372	-0.235
Mof_O 	O 	0.25355	0.11558	0.79656	-0.534
Mof_O 	O 	0.44171	0.94156	0.72791	-0.505
Mof_O 	O 	0.40143	0.94498	0.87973	-0.414
Mof_O 	O 	0.11372	0.16144	0.75532	-0.235
Mof_O 	O 	0.24645	0.70344	0.38442	-0.533
Mof_O 	O 	0.05829	0.77209	0.55844	-0.506
Mof_O 	O 	0.09857	0.62027	0.55502	-0.416
Mof_O 	O 	0.38628	0.74468	0.33856	-0.235
Mof_O 	O 	0.70344	0.38442	0.24645	-0.533
Mof_O 	O 	0.77209	0.55844	0.05829	-0.506
Mof_O 	O 	0.62027	0.55502	0.09857	-0.416
Mof_O 	O 	0.74468	0.33856	0.38628	-0.235
Mof_O 	O 	0.38442	0.24645	0.70344	-0.533
Mof_O 	O 	0.55844	0.05829	0.77209	-0.506
Mof_O 	O 	0.55502	0.09857	0.62027	-0.416
Mof_O 	O 	0.33856	0.38628	0.74468	-0.235
_end
