data_functionalizedCrystal
_audit_creation_method	'EQeq! by Chris Wilmer'
_symmetry_space_group_name_H-M	'P1'
_symmetry_Int_Tables_number	1
_symmetry_cell_setting	triclinic
loop_
_symmetry_equiv_pos_as_xyz
  x,y,z
_cell_length_a	10.1881
_cell_length_b	14.2791
_cell_length_c	14.7733
_cell_angle_alpha	90
_cell_angle_beta	90
_cell_angle_gamma	90
loop_
_atom_site_label
_atom_site_type_symbol
_atom_site_fract_x
_atom_site_fract_y
_atom_site_fract_z
_atom_site_charge
Mof_O 	O 	0.9212	0.4756	0.7966	-1.431
Mof_O 	O 	0.9865	0.599	0.9046	-1.339
Mof_O 	O 	0.9212	0.9756	0.2966	-1.434
Mof_O 	O 	0.9865	0.099	0.4046	-1.366
Mof_O 	O 	0.4212	0.4756	0.2966	-1.433
Mof_O 	O 	0.4865	0.599	0.4046	-1.367
Mof_O 	O 	0.4212	0.9756	0.7966	-1.418
Mof_O 	O 	0.4865	0.099	0.9046	-1.359
Mof_O 	O 	0.8288	0.2744	0.7966	-1.431
Mof_O 	O 	0.7635	0.151	0.9046	-1.357
Mof_O 	O 	0.8288	0.7744	0.2966	-1.423
Mof_O 	O 	0.7635	0.651	0.4046	-1.367
Mof_O 	O 	0.3288	0.2744	0.2966	-1.431
Mof_O 	O 	0.2635	0.151	0.4046	-1.365
Mof_O 	O 	0.3288	0.7744	0.7966	-1.43
Mof_O 	O 	0.2635	0.651	0.9046	-1.351
Mof_O 	O 	0.8288	0.4756	0.9534	-1.406
Mof_O 	O 	0.7635	0.599	0.8454	-1.363
Mof_O 	O 	0.8288	0.9756	0.4534	-1.438
Mof_O 	O 	0.7635	0.099	0.3454	-1.366
Mof_O 	O 	0.3288	0.4756	0.4534	-1.432
Mof_O 	O 	0.2635	0.599	0.3454	-1.37
Mof_O 	O 	0.3288	0.9756	0.9534	-1.408
Mof_O 	O 	0.2635	0.099	0.8454	-1.358
Mof_O 	O 	0.9212	0.2744	0.9534	-1.405
Mof_O 	O 	0.9865	0.151	0.8454	-1.345
Mof_O 	O 	0.9212	0.7744	0.4534	-1.433
Mof_O 	O 	0.9865	0.651	0.3454	-1.377
Mof_O 	O 	0.4212	0.2744	0.4534	-1.432
Mof_O 	O 	0.4865	0.151	0.3454	-1.366
Mof_O 	O 	0.4212	0.7744	0.9534	-1.417
Mof_O 	O 	0.4865	0.651	0.8454	-1.365
Mof_O 	O 	0.0788	0.5244	0.2034	-1.43
Mof_O 	O 	0.0135	0.401	0.0954	-1.338
Mof_O 	O 	0.0788	0.0244	0.7034	-1.434
Mof_O 	O 	0.0135	0.901	0.5954	-1.366
Mof_O 	O 	0.5788	0.5244	0.7034	-1.433
Mof_O 	O 	0.5135	0.401	0.5954	-1.367
Mof_O 	O 	0.5788	0.0244	0.2034	-1.418
Mof_O 	O 	0.5135	0.901	0.0954	-1.359
Mof_O 	O 	0.1712	0.7256	0.2034	-1.431
Mof_O 	O 	0.2365	0.849	0.0954	-1.357
Mof_O 	O 	0.1712	0.2256	0.7034	-1.423
Mof_O 	O 	0.2365	0.349	0.5954	-1.367
Mof_O 	O 	0.6712	0.7256	0.7034	-1.431
Mof_O 	O 	0.7365	0.849	0.5954	-1.365
Mof_O 	O 	0.6712	0.2256	0.2034	-1.43
Mof_O 	O 	0.7365	0.349	0.0954	-1.351
Mof_O 	O 	0.1712	0.5244	0.0466	-1.406
Mof_O 	O 	0.2365	0.401	0.1546	-1.363
Mof_O 	O 	0.1712	0.0244	0.5466	-1.438
Mof_O 	O 	0.2365	0.901	0.6546	-1.366
Mof_O 	O 	0.6712	0.5244	0.5466	-1.432
Mof_O 	O 	0.7365	0.401	0.6546	-1.37
Mof_O 	O 	0.6712	0.0244	0.0466	-1.408
Mof_O 	O 	0.7365	0.901	0.1546	-1.358
Mof_O 	O 	0.0788	0.7256	0.0466	-1.405
Mof_O 	O 	0.0135	0.849	0.1546	-1.345
Mof_O 	O 	0.0788	0.2256	0.5466	-1.433
Mof_O 	O 	0.0135	0.349	0.6546	-1.377
Mof_O 	O 	0.5788	0.7256	0.5466	-1.432
Mof_O 	O 	0.5135	0.849	0.6546	-1.366
Mof_O 	O 	0.5788	0.2256	0.0466	-1.417
Mof_O 	O 	0.5135	0.349	0.1546	-1.365
Mof_Al	Al	0.125	0.125	0.47771	4.286
Mof_Al	Al	0.125	0.625	0.97771	4.2
Mof_Al	Al	0.625	0.625	0.47771	4.288
Mof_Al	Al	0.625	0.125	0.97771	4.25
Mof_Al	Al	0.625	0.125	0.27229	4.288
Mof_Al	Al	0.625	0.625	0.77229	4.288
Mof_Al	Al	0.125	0.625	0.27229	4.308
Mof_Al	Al	0.125	0.125	0.77229	4.228
Mof_Al	Al	0.875	0.875	0.52229	4.286
Mof_Al	Al	0.875	0.375	0.02229	4.2
Mof_Al	Al	0.375	0.375	0.52229	4.288
Mof_Al	Al	0.375	0.875	0.02229	4.25
Mof_Al	Al	0.375	0.875	0.72771	4.288
Mof_Al	Al	0.375	0.375	0.22771	4.288
Mof_Al	Al	0.875	0.375	0.72771	4.308
Mof_Al	Al	0.875	0.875	0.22771	4.228
Mof_P 	P 	0.875	0.53643	0.875	1.303
Mof_P 	P 	0.875	0.03643	0.375	1.322
Mof_P 	P 	0.375	0.53643	0.375	1.312
Mof_P 	P 	0.375	0.03643	0.875	1.283
Mof_P 	P 	0.875	0.21357	0.875	1.302
Mof_P 	P 	0.875	0.71357	0.375	1.309
Mof_P 	P 	0.375	0.21357	0.375	1.311
Mof_P 	P 	0.375	0.71357	0.875	1.304
Mof_P 	P 	0.125	0.46357	0.125	1.303
Mof_P 	P 	0.125	0.96357	0.625	1.322
Mof_P 	P 	0.625	0.46357	0.625	1.312
Mof_P 	P 	0.625	0.96357	0.125	1.283
Mof_P 	P 	0.125	0.78643	0.125	1.302
Mof_P 	P 	0.125	0.28643	0.625	1.309
Mof_P 	P 	0.625	0.78643	0.625	1.311
Mof_P 	P 	0.625	0.28643	0.125	1.304
_end
