data_functionalizedCrystal
_audit_creation_method	'EQeq! by Chris Wilmer'
_symmetry_space_group_name_H-M	'P1'
_symmetry_Int_Tables_number	1
_symmetry_cell_setting	triclinic
loop_
_symmetry_equiv_pos_as_xyz
  x,y,z
_cell_length_a	15.298
_cell_length_b	15.298
_cell_length_c	15.6131
_cell_angle_alpha	119.335
_cell_angle_beta	119.335
_cell_angle_gamma	90
loop_
_atom_site_label
_atom_site_type_symbol
_atom_site_fract_x
_atom_site_fract_y
_atom_site_fract_z
_atom_site_charge
Mof_Cu	Cu	0.42563	0.48407	0.88834	0.887
Mof_Cu	Cu	0.96271	0.40427	0.88834	0.887
Mof_Cu	Cu	0.98407	0.46271	0.38834	0.889
Mof_Cu	Cu	0.90427	0.92563	0.38834	0.887
Mof_Cu	Cu	0.57437	0.51593	0.11166	0.888
Mof_Cu	Cu	0.03729	0.59573	0.11166	0.888
Mof_Cu	Cu	0.01593	0.53729	0.61166	0.889
Mof_Cu	Cu	0.09573	0.07437	0.61166	0.887
Mof_H 	H 	0.457	0.6319	0.8154	-0.009
Mof_H 	H 	0.7948	0.9342	0.172	0.155
Mof_H 	H 	0.7286	0.921	0.0554	0.137
Mof_H 	H 	0.7735	0.7174	0.301	-0
Mof_H 	H 	0.6052	0.2858	0.7684	0.386
Mof_H 	H 	0.711	0.3474	0.895	0.397
Mof_H 	H 	0.6311	0.2486	0.8532	0.391
Mof_H 	H 	0.8584	0.1835	0.8154	-0.009
Mof_H 	H 	0.8772	0.2378	0.172	0.158
Mof_H 	H 	0.8268	0.1344	0.0554	0.14
Mof_H 	H 	0.0275	0.5836	0.301	-0.002
Mof_H 	H 	0.6632	0.4826	0.7684	0.386
Mof_H 	H 	0.684	0.5476	0.895	0.397
Mof_H 	H 	0.7221	0.6046	0.8532	0.391
Mof_H 	H 	0.1319	0.3584	0.3154	-0.01
Mof_H 	H 	0.4342	0.3772	0.672	0.157
Mof_H 	H 	0.421	0.3268	0.5554	0.138
Mof_H 	H 	0.2174	0.5275	0.801	-0
Mof_H 	H 	0.7858	0.1632	0.2684	0.388
Mof_H 	H 	0.8474	0.184	0.395	0.399
Mof_H 	H 	0.7486	0.2221	0.3532	0.394
Mof_H 	H 	0.6835	0.957	0.3154	-0.013
Mof_H 	H 	0.7378	0.2948	0.672	0.157
Mof_H 	H 	0.6344	0.2286	0.5554	0.139
Mof_H 	H 	0.0836	0.2735	0.801	0
Mof_H 	H 	0.9826	0.1052	0.2684	0.395
Mof_H 	H 	0.0476	0.211	0.395	0.403
Mof_H 	H 	0.1046	0.1311	0.3532	0.397
Mof_H 	H 	0.543	0.3681	0.1846	-0.009
Mof_H 	H 	0.2052	0.0658	0.828	0.155
Mof_H 	H 	0.2714	0.079	0.9446	0.137
Mof_H 	H 	0.2265	0.2826	0.699	-0
Mof_H 	H 	0.3948	0.7142	0.2316	0.386
Mof_H 	H 	0.289	0.6526	0.105	0.397
Mof_H 	H 	0.3689	0.7514	0.1468	0.391
Mof_H 	H 	0.1416	0.8165	0.1846	-0.009
Mof_H 	H 	0.1228	0.7622	0.828	0.158
Mof_H 	H 	0.1732	0.8656	0.9446	0.14
Mof_H 	H 	0.9725	0.4164	0.699	-0.002
Mof_H 	H 	0.3368	0.5174	0.2316	0.386
Mof_H 	H 	0.316	0.4524	0.105	0.397
Mof_H 	H 	0.2779	0.3954	0.1468	0.391
Mof_H 	H 	0.8681	0.6416	0.6846	-0.01
Mof_H 	H 	0.5658	0.6228	0.328	0.157
Mof_H 	H 	0.579	0.6732	0.4446	0.138
Mof_H 	H 	0.7826	0.4725	0.199	-0
Mof_H 	H 	0.2142	0.8368	0.7316	0.388
Mof_H 	H 	0.1526	0.816	0.605	0.399
Mof_H 	H 	0.2514	0.7779	0.6468	0.394
Mof_H 	H 	0.3165	0.043	0.6846	-0.013
Mof_H 	H 	0.2622	0.7052	0.328	0.157
Mof_H 	H 	0.3656	0.7714	0.4446	0.139
Mof_H 	H 	0.9164	0.7265	0.199	0
Mof_H 	H 	0.0174	0.8948	0.7316	0.395
Mof_H 	H 	0.9524	0.789	0.605	0.403
Mof_H 	H 	0.8954	0.8689	0.6468	0.397
Mof_C 	C 	0.5175	0.6626	0.8914	0.098
Mof_C 	C 	0.6156	0.6662	0.0562	0.099
Mof_C 	C 	0.6899	0.7642	0.116	-0.034
Mof_C 	C 	0.676	0.8046	0.0542	0.124
Mof_C 	C 	0.7359	0.7171	0.2326	0.089
Mof_C 	C 	0.583	0.3801	0.9002	0.693
Mof_C 	C 	0.6376	0.309	0.8496	-1.206
Mof_C 	C 	0.8739	0.2288	0.8914	0.097
Mof_C 	C 	0.9406	0.39	0.0562	0.103
Mof_C 	C 	0.9261	0.3518	0.116	-0.036
Mof_C 	C 	0.8782	0.2496	0.0542	0.13
Mof_C 	C 	0.9967	0.5155	0.2326	0.091
Mof_C 	C 	0.8172	0.5201	0.9002	0.691
Mof_C 	C 	0.712	0.5406	0.8496	-1.206
Mof_C 	C 	0.1626	0.3739	0.3914	0.097
Mof_C 	C 	0.1662	0.4406	0.5562	0.099
Mof_C 	C 	0.2642	0.4261	0.616	-0.034
Mof_C 	C 	0.3046	0.3782	0.5542	0.125
Mof_C 	C 	0.2171	0.4967	0.7326	0.089
Mof_C 	C 	0.8801	0.3172	0.4002	0.696
Mof_C 	C 	0.809	0.212	0.3496	-1.211
Mof_C 	C 	0.7288	0.0175	0.3914	0.102
Mof_C 	C 	0.89	0.1156	0.5562	0.1
Mof_C 	C 	0.8518	0.1899	0.616	-0.034
Mof_C 	C 	0.7496	0.176	0.5542	0.126
Mof_C 	C 	0.0155	0.2359	0.7326	0.087
Mof_C 	C 	0.0201	0.083	0.4002	0.694
Mof_C 	C 	0.0406	0.1376	0.3496	-1.226
Mof_C 	C 	0.4825	0.3374	0.1086	0.098
Mof_C 	C 	0.3844	0.3338	0.9438	0.099
Mof_C 	C 	0.3101	0.2358	0.884	-0.034
Mof_C 	C 	0.324	0.1954	0.9458	0.124
Mof_C 	C 	0.2641	0.2829	0.7674	0.089
Mof_C 	C 	0.417	0.6199	0.0998	0.693
Mof_C 	C 	0.3624	0.691	0.1504	-1.206
Mof_C 	C 	0.1261	0.7712	0.1086	0.097
Mof_C 	C 	0.0594	0.61	0.9438	0.103
Mof_C 	C 	0.0739	0.6482	0.884	-0.036
Mof_C 	C 	0.1218	0.7504	0.9458	0.13
Mof_C 	C 	0.0033	0.4845	0.7674	0.091
Mof_C 	C 	0.1828	0.4799	0.0998	0.691
Mof_C 	C 	0.288	0.4594	0.1504	-1.206
Mof_C 	C 	0.8374	0.6261	0.6086	0.097
Mof_C 	C 	0.8338	0.5594	0.4438	0.099
Mof_C 	C 	0.7358	0.5739	0.384	-0.034
Mof_C 	C 	0.6954	0.6218	0.4458	0.125
Mof_C 	C 	0.7829	0.5033	0.2674	0.089
Mof_C 	C 	0.1199	0.6828	0.5998	0.696
Mof_C 	C 	0.191	0.788	0.6504	-1.211
Mof_C 	C 	0.2712	0.9825	0.6086	0.102
Mof_C 	C 	0.11	0.8844	0.4438	0.1
Mof_C 	C 	0.1482	0.8101	0.384	-0.034
Mof_C 	C 	0.2504	0.824	0.4458	0.126
Mof_C 	C 	0.9845	0.7641	0.2674	0.087
Mof_C 	C 	0.9799	0.917	0.5998	0.694
Mof_C 	C 	0.9594	0.8624	0.6504	-1.226
Mof_N 	N 	0.584	0.7493	0.9342	-0.156
Mof_N 	N 	0.5268	0.6133	0.9444	-0.244
Mof_N 	N 	0.7411	0.8981	0.0994	-0.313
Mof_N 	N 	0.7664	0.7946	0.2268	-0.189
Mof_N 	N 	0.6474	0.6387	0.1332	-0.245
Mof_N 	N 	0.8502	0.1849	0.9342	-0.158
Mof_N 	N 	0.9176	0.3311	0.9444	-0.246
Mof_N 	N 	0.8583	0.2013	0.0994	-0.315
Mof_N 	N 	0.9604	0.4322	0.2268	-0.188
Mof_N 	N 	0.9858	0.4945	0.1332	-0.245
Mof_N 	N 	0.2493	0.3502	0.4342	-0.156
Mof_N 	N 	0.1133	0.4176	0.4444	-0.245
Mof_N 	N 	0.3981	0.3583	0.5994	-0.314
Mof_N 	N 	0.2946	0.4604	0.7268	-0.189
Mof_N 	N 	0.1387	0.4858	0.6332	-0.245
Mof_N 	N 	0.6849	0.084	0.4342	-0.157
Mof_N 	N 	0.8311	0.0268	0.4444	-0.244
Mof_N 	N 	0.7013	0.2411	0.5994	-0.314
Mof_N 	N 	0.9322	0.2664	0.7268	-0.188
Mof_N 	N 	0.9945	0.1474	0.6332	-0.243
Mof_N 	N 	0.416	0.2507	0.0658	-0.156
Mof_N 	N 	0.4732	0.3867	0.0556	-0.244
Mof_N 	N 	0.2589	0.1019	0.9006	-0.313
Mof_N 	N 	0.2336	0.2054	0.7732	-0.189
Mof_N 	N 	0.3526	0.3613	0.8668	-0.245
Mof_N 	N 	0.1498	0.8151	0.0658	-0.158
Mof_N 	N 	0.0824	0.6689	0.0556	-0.246
Mof_N 	N 	0.1417	0.7987	0.9006	-0.315
Mof_N 	N 	0.0396	0.5678	0.7732	-0.188
Mof_N 	N 	0.0142	0.5055	0.8668	-0.245
Mof_N 	N 	0.7507	0.6498	0.5658	-0.156
Mof_N 	N 	0.8867	0.5824	0.5556	-0.245
Mof_N 	N 	0.6019	0.6417	0.4006	-0.314
Mof_N 	N 	0.7054	0.5396	0.2732	-0.189
Mof_N 	N 	0.8613	0.5142	0.3668	-0.245
Mof_N 	N 	0.3151	0.916	0.5658	-0.157
Mof_N 	N 	0.1689	0.9732	0.5556	-0.244
Mof_N 	N 	0.2987	0.7589	0.4006	-0.314
Mof_N 	N 	0.0678	0.7336	0.2732	-0.188
Mof_N 	N 	0.0055	0.8526	0.3668	-0.243
Mof_O 	O 	0.5096	0.3997	0.8362	-0.547
Mof_O 	O 	0.6207	0.418	0.0068	-0.519
Mof_O 	O 	0.8266	0.4365	0.8362	-0.547
Mof_O 	O 	0.8861	0.5888	0.0068	-0.518
Mof_O 	O 	0.8997	0.3266	0.3362	-0.547
Mof_O 	O 	0.918	0.3861	0.5068	-0.521
Mof_O 	O 	0.9365	0.0096	0.3362	-0.542
Mof_O 	O 	0.0888	0.1207	0.5068	-0.521
Mof_O 	O 	0.4904	0.6003	0.1638	-0.547
Mof_O 	O 	0.3793	0.582	0.9932	-0.519
Mof_O 	O 	0.1734	0.5635	0.1638	-0.547
Mof_O 	O 	0.1139	0.4112	0.9932	-0.518
Mof_O 	O 	0.1003	0.6734	0.6638	-0.547
Mof_O 	O 	0.082	0.6139	0.4932	-0.521
Mof_O 	O 	0.0635	0.9904	0.6638	-0.542
Mof_O 	O 	0.9112	0.8793	0.4932	-0.521
_end
