data_functionalizedCrystal
_audit_creation_method	'EQeq! by Chris Wilmer'
_symmetry_space_group_name_H-M	'P1'
_symmetry_Int_Tables_number	1
_symmetry_cell_setting	triclinic
loop_
_symmetry_equiv_pos_as_xyz
  x,y,z
_cell_length_a	17.2931
_cell_length_b	10.0521
_cell_length_c	17.6583
_cell_angle_alpha	90
_cell_angle_beta	90
_cell_angle_gamma	90
loop_
_atom_site_label
_atom_site_type_symbol
_atom_site_fract_x
_atom_site_fract_y
_atom_site_fract_z
_atom_site_charge
Mof_Ho	Ho	0.47915	0.15931	0.88311	2.007
Mof_Ho	Ho	0.67815	0.38708	0.89844	2.068
Mof_S 	S 	0.5387	0.54065	0.13349	0.067
Mof_S 	S 	0.70145	0.09177	0.14625	0.048
Mof_S 	S 	0.61068	0.02148	0.64753	0.074
Mof_C 	C 	0.5127	0.4087	0.9982	0.563
Mof_O 	O 	0.5822	0.433	0.9865	-0.544
Mof_O 	O 	0.4228	0.605	0.3201	-0.603
Mof_O 	O 	0.749	0.9625	0.2937	-0.519
Mof_O 	O 	0.6983	0.2305	0.9954	-0.388
Mof_O 	O 	0.5772	0.1177	0.7969	-0.547
Mof_O 	O 	0.4663	0.3488	0.9538	-0.524
Mof_C 	C 	0.6755	0.0958	0.7079	-0.138
Mof_C 	C 	0.48	0.4534	0.0722	-0.228
Mof_O 	O 	0.695	0.1946	0.8272	-0.504
Mof_C 	C 	0.5734	0.9974	0.0955	-0.027
Mof_H 	H 	0.5313	0.9797	0.0643	0.013
Mof_C 	C 	0.68	0.0073	0.5786	-0.181
Mof_C 	C 	0.4086	0.4317	0.1015	0.046
Mof_H 	H 	0.3697	0.3859	0.0761	0.004
Mof_C 	C 	0.4659	0.5477	0.1991	-0.144
Mof_C 	C 	0.7501	0.0559	0.6021	0.04
Mof_H 	H 	0.7944	0.0552	0.5724	0
Mof_O 	O 	0.7149	0.9509	0.4563	-0.597
Mof_O 	O 	0.5843	0.1525	0.9587	-0.5
Mof_C 	C 	0.5841	0.94	0.1677	0.012
Mof_H 	H 	0.5497	0.8799	0.1895	0.018
Mof_O 	O 	0.5372	0.6794	0.2848	-0.481
Mof_C 	C 	0.6508	0.9827	0.2021	-0.163
Mof_C 	C 	0.6324	0.0824	0.0768	-0.112
Mof_C 	C 	0.6393	0.1598	0.0058	0.287
Mof_C 	C 	0.6468	0.1387	0.7829	0.477
Mof_C 	C 	0.7476	0.1071	0.6765	-0.018
Mof_H 	H 	0.7899	0.1442	0.7012	0.048
Mof_C 	C 	0.3997	0.4861	0.1746	-0.025
Mof_H 	H 	0.3544	0.4808	0.2028	0.039
Mof_C 	C 	0.6795	0.9397	0.2778	0.497
Mof_C 	C 	0.4775	0.6143	0.273	0.481
Mof_O 	O 	0.592	0.9182	0.4893	-0.526
Mof_O 	O 	0.632	0.8823	0.3206	-0.563
Mof_C 	C 	0.6606	0.952	0.5031	0.53
Mof_Ho	Ho	0.52085	0.84069	0.38311	2.014
Mof_Ho	Ho	0.32185	0.61292	0.39844	2.065
Mof_S 	S 	0.4613	0.45935	0.63349	0.074
Mof_S 	S 	0.29855	0.90823	0.64625	0.082
Mof_S 	S 	0.38932	0.97852	0.14753	0.047
Mof_C 	C 	0.4873	0.5913	0.4982	0.483
Mof_O 	O 	0.4178	0.567	0.4865	-0.552
Mof_O 	O 	0.5772	0.395	0.8201	-0.602
Mof_O 	O 	0.251	0.0375	0.7937	-0.519
Mof_O 	O 	0.3017	0.7695	0.4954	-0.49
Mof_O 	O 	0.4228	0.8823	0.2969	-0.549
Mof_O 	O 	0.5337	0.6512	0.4538	-0.523
Mof_C 	C 	0.3245	0.9042	0.2079	-0.141
Mof_C 	C 	0.52	0.5466	0.5722	-0.145
Mof_O 	O 	0.305	0.8054	0.3272	-0.508
Mof_C 	C 	0.4266	0.0026	0.5955	-0.007
Mof_H 	H 	0.4687	0.0203	0.5643	0.022
Mof_C 	C 	0.32	0.9927	0.0786	-0.13
Mof_C 	C 	0.5914	0.5683	0.6015	0.003
Mof_H 	H 	0.6303	0.6141	0.5761	0.038
Mof_C 	C 	0.5341	0.4523	0.6991	-0.153
Mof_C 	C 	0.2499	0.9441	0.1021	-0.001
Mof_H 	H 	0.2056	0.9448	0.0724	-0.002
Mof_O 	O 	0.2851	0.0491	0.9563	-0.502
Mof_O 	O 	0.4157	0.8475	0.4587	-0.587
Mof_C 	C 	0.4159	0.06	0.6677	0.011
Mof_H 	H 	0.4503	0.1201	0.6895	0.021
Mof_O 	O 	0.4628	0.3206	0.7848	-0.478
Mof_C 	C 	0.3492	0.0173	0.7021	-0.17
Mof_C 	C 	0.3676	0.9176	0.5768	-0.145
Mof_C 	C 	0.3607	0.8402	0.5058	0.466
Mof_C 	C 	0.3532	0.8613	0.2829	0.476
Mof_C 	C 	0.2524	0.8929	0.1765	-0.005
Mof_H 	H 	0.2101	0.8558	0.2012	0.041
Mof_C 	C 	0.6003	0.5139	0.6746	0.005
Mof_H 	H 	0.6456	0.5192	0.7028	0.031
Mof_C 	C 	0.3205	0.0603	0.7778	0.499
Mof_C 	C 	0.5225	0.3857	0.773	0.486
Mof_O 	O 	0.408	0.0818	0.9893	-0.42
Mof_O 	O 	0.368	0.1177	0.8206	-0.559
Mof_C 	C 	0.3394	0.048	0.0031	0.336
Mof_Ho	Ho	0.97915	0.34069	0.88311	2.013
Mof_Ho	Ho	0.17815	0.11292	0.89844	2.062
Mof_S 	S 	0.0387	0.95935	0.13349	0.064
Mof_S 	S 	0.20145	0.40823	0.14625	0.048
Mof_S 	S 	0.11068	0.47852	0.64753	0.073
Mof_C 	C 	0.0127	0.0913	0.9982	0.553
Mof_O 	O 	0.0822	0.067	0.9865	-0.543
Mof_O 	O 	0.9228	0.895	0.3201	-0.602
Mof_O 	O 	0.249	0.5375	0.2937	-0.52
Mof_O 	O 	0.1983	0.2695	0.9954	-0.386
Mof_O 	O 	0.0772	0.3823	0.7969	-0.548
Mof_O 	O 	0.9663	0.1512	0.9538	-0.521
Mof_C 	C 	0.1755	0.4042	0.7079	-0.138
Mof_C 	C 	0.98	0.0466	0.0722	-0.219
Mof_O 	O 	0.195	0.3054	0.8272	-0.504
Mof_C 	C 	0.0734	0.5026	0.0955	-0.036
Mof_H 	H 	0.0313	0.5203	0.0643	0.013
Mof_C 	C 	0.18	0.4927	0.5786	-0.179
Mof_C 	C 	0.9086	0.0683	0.1015	0.044
Mof_H 	H 	0.8697	0.1141	0.0761	0.006
Mof_C 	C 	0.9659	0.9523	0.1991	-0.139
Mof_C 	C 	0.2501	0.4441	0.6021	0.038
Mof_H 	H 	0.2944	0.4448	0.5724	0.001
Mof_O 	O 	0.2149	0.5491	0.4563	-0.596
Mof_O 	O 	0.0843	0.3475	0.9587	-0.5
Mof_C 	C 	0.0841	0.56	0.1677	0.016
Mof_H 	H 	0.0497	0.6201	0.1895	0.016
Mof_O 	O 	0.0372	0.8206	0.2848	-0.482
Mof_C 	C 	0.1508	0.5173	0.2021	-0.167
Mof_C 	C 	0.1324	0.4176	0.0768	-0.107
Mof_C 	C 	0.1393	0.3402	0.0058	0.284
Mof_C 	C 	0.1468	0.3613	0.7829	0.477
Mof_C 	C 	0.2476	0.3929	0.6765	-0.017
Mof_H 	H 	0.2899	0.3558	0.7012	0.048
Mof_C 	C 	0.8997	0.0139	0.1746	-0.026
Mof_H 	H 	0.8544	0.0192	0.2028	0.039
Mof_C 	C 	0.1795	0.5603	0.2778	0.497
Mof_C 	C 	0.9775	0.8857	0.273	0.484
Mof_O 	O 	0.092	0.5818	0.4893	-0.526
Mof_O 	O 	0.132	0.6177	0.3206	-0.563
Mof_C 	C 	0.1606	0.548	0.5031	0.528
Mof_Ho	Ho	0.02085	0.65931	0.38311	2.008
Mof_Ho	Ho	0.82185	0.88708	0.39844	2.068
Mof_S 	S 	0.9613	0.04065	0.63349	0.079
Mof_S 	S 	0.79855	0.59177	0.64625	0.079
Mof_S 	S 	0.88932	0.52148	0.14753	0.05
Mof_C 	C 	0.9873	0.9087	0.4982	0.488
Mof_O 	O 	0.9178	0.933	0.4865	-0.553
Mof_O 	O 	0.0772	0.105	0.8201	-0.602
Mof_O 	O 	0.751	0.4625	0.7937	-0.518
Mof_O 	O 	0.8017	0.7305	0.4954	-0.49
Mof_O 	O 	0.9228	0.6177	0.2969	-0.547
Mof_O 	O 	0.0337	0.8488	0.4538	-0.524
Mof_C 	C 	0.8245	0.5958	0.2079	-0.141
Mof_C 	C 	0.02	0.9534	0.5722	-0.147
Mof_O 	O 	0.805	0.6946	0.3272	-0.508
Mof_C 	C 	0.9266	0.4974	0.5955	-0.001
Mof_H 	H 	0.9687	0.4797	0.5643	0.022
Mof_C 	C 	0.82	0.5073	0.0786	-0.138
Mof_C 	C 	0.0914	0.9317	0.6015	0.002
Mof_H 	H 	0.1303	0.8859	0.5761	0.038
Mof_C 	C 	0.0341	0.0477	0.6991	-0.161
Mof_C 	C 	0.7499	0.5559	0.1021	0.003
Mof_H 	H 	0.7056	0.5552	0.0724	-0.005
Mof_O 	O 	0.7851	0.4509	0.9563	-0.506
Mof_O 	O 	0.9157	0.6525	0.4587	-0.586
Mof_C 	C 	0.9159	0.44	0.6677	0.008
Mof_H 	H 	0.9503	0.3799	0.6895	0.023
Mof_O 	O 	0.9628	0.1794	0.7848	-0.476
Mof_C 	C 	0.8492	0.4827	0.7021	-0.166
Mof_C 	C 	0.8676	0.5824	0.5768	-0.148
Mof_C 	C 	0.8607	0.6598	0.5058	0.466
Mof_C 	C 	0.8532	0.6387	0.2829	0.476
Mof_C 	C 	0.7524	0.6071	0.1765	-0.007
Mof_H 	H 	0.7101	0.6442	0.2012	0.041
Mof_C 	C 	0.1003	0.9861	0.6746	0.012
Mof_H 	H 	0.1456	0.9808	0.7028	0.029
Mof_C 	C 	0.8205	0.4397	0.7778	0.499
Mof_C 	C 	0.0225	0.1143	0.773	0.484
Mof_O 	O 	0.908	0.4182	0.9893	-0.424
Mof_O 	O 	0.868	0.3823	0.8206	-0.56
Mof_C 	C 	0.8394	0.452	0.0031	0.349
_end
