data_functionalizedCrystal
_audit_creation_method	'EQeq! by Chris Wilmer'
_symmetry_space_group_name_H-M	'P1'
_symmetry_Int_Tables_number	1
_symmetry_cell_setting	triclinic
loop_
_symmetry_equiv_pos_as_xyz
  x,y,z
_cell_length_a	7.497
_cell_length_b	13.154
_cell_length_c	18.206
_cell_angle_alpha	90
_cell_angle_beta	90
_cell_angle_gamma	90
loop_
_atom_site_label
_atom_site_type_symbol
_atom_site_fract_x
_atom_site_fract_y
_atom_site_fract_z
_atom_site_charge
Mof_Zn	Zn	0.04302	0.62424	0.03604	1.213
Mof_Zn	Zn	0.04317	0.37161	0.03836	1.216
Mof_Zn	Zn	0.60023	0.37188	0.05862	1.217
Mof_Zn	Zn	0.59798	0.6252	0.05609	1.217
Mof_Zn	Zn	0.65867	0.5033	0.83275	1.237
Mof_P 	P 	0.7917	0.3043	0.91424	0.56
Mof_P 	P 	0.33814	0.4956	0.95996	0.547
Mof_P 	P 	0.79	0.6998	0.91434	0.553
Mof_P 	P 	0.85512	0.4996	0.15719	0.523
Mof_O 	O 	0.8074	0.3867	0.8561	-0.439
Mof_O 	O 	0.8046	0.3516	0.9915	-0.658
Mof_O 	O 	0.9473	0.232	0.9054	-0.494
Mof_O 	O 	0.6075	0.2503	0.9091	-0.485
Mof_O 	O 	0.481	0.4965	0.0228	-0.657
Mof_O 	O 	0.2265	0.3988	0.9683	-0.504
Mof_O 	O 	0.2268	0.5913	0.9646	-0.501
Mof_O 	O 	0.4341	0.4942	0.88582	-0.438
Mof_O 	O 	0.8055	0.6436	0.9911	-0.658
Mof_O 	O 	0.8012	0.6233	0.8521	-0.44
Mof_O 	O 	0.6091	0.7528	0.9131	-0.498
Mof_O 	O 	0.9417	0.7756	0.9083	-0.503
Mof_O 	O 	0.0109	0.4974	0.09859	-0.615
Mof_O 	O 	0.9361	0.5031	0.23328	-0.42
Mof_O 	O 	0.7415	0.5932	0.1428	-0.489
Mof_O 	O 	0.7477	0.4016	0.1449	-0.484
Mof_Zn	Zn	0.45698	0.37576	0.53604	1.214
Mof_Zn	Zn	0.45683	0.62839	0.53836	1.217
Mof_Zn	Zn	0.89977	0.62812	0.55862	1.216
Mof_Zn	Zn	0.90202	0.3748	0.55609	1.217
Mof_Zn	Zn	0.84133	0.4967	0.33275	1.237
Mof_P 	P 	0.7083	0.6957	0.41424	0.56
Mof_P 	P 	0.16186	0.5044	0.45996	0.547
Mof_P 	P 	0.71	0.3002	0.41434	0.553
Mof_P 	P 	0.64488	0.5004	0.65719	0.523
Mof_O 	O 	0.6926	0.6133	0.3561	-0.44
Mof_O 	O 	0.6954	0.6484	0.4915	-0.66
Mof_O 	O 	0.5527	0.768	0.4054	-0.495
Mof_O 	O 	0.8925	0.7497	0.4091	-0.487
Mof_O 	O 	0.019	0.5035	0.5228	-0.653
Mof_O 	O 	0.2735	0.6012	0.4683	-0.502
Mof_O 	O 	0.2732	0.4087	0.4646	-0.5
Mof_O 	O 	0.0659	0.5058	0.38582	-0.435
Mof_O 	O 	0.6945	0.3564	0.4911	-0.661
Mof_O 	O 	0.6988	0.3767	0.3521	-0.441
Mof_O 	O 	0.8909	0.2472	0.4131	-0.501
Mof_O 	O 	0.5583	0.2244	0.4083	-0.506
Mof_O 	O 	0.4891	0.5026	0.59859	-0.615
Mof_O 	O 	0.5639	0.4969	0.73328	-0.419
Mof_O 	O 	0.7585	0.4068	0.6428	-0.49
Mof_O 	O 	0.7523	0.5984	0.6449	-0.485
Mof_Zn	Zn	0.95698	0.12424	0.46396	1.212
Mof_Zn	Zn	0.95683	0.87161	0.46164	1.216
Mof_Zn	Zn	0.39977	0.87188	0.44138	1.218
Mof_Zn	Zn	0.40202	0.1252	0.44391	1.219
Mof_Zn	Zn	0.34133	0.0033	0.66725	1.237
Mof_P 	P 	0.2083	0.8043	0.58576	0.56
Mof_P 	P 	0.66186	0.9956	0.54004	0.549
Mof_P 	P 	0.21	0.1998	0.58566	0.553
Mof_P 	P 	0.14488	0.9996	0.34281	0.525
Mof_O 	O 	0.1926	0.8867	0.6439	-0.439
Mof_O 	O 	0.1954	0.8516	0.5085	-0.657
Mof_O 	O 	0.0527	0.732	0.5946	-0.493
Mof_O 	O 	0.3925	0.7503	0.5909	-0.485
Mof_O 	O 	0.519	0.9965	0.4772	-0.657
Mof_O 	O 	0.7735	0.8988	0.5317	-0.504
Mof_O 	O 	0.7732	0.0913	0.5354	-0.504
Mof_O 	O 	0.5659	0.9942	0.61418	-0.438
Mof_O 	O 	0.1945	0.1436	0.5089	-0.658
Mof_O 	O 	0.1988	0.1233	0.6479	-0.44
Mof_O 	O 	0.3909	0.2528	0.5869	-0.498
Mof_O 	O 	0.0583	0.2756	0.5917	-0.503
Mof_O 	O 	0.9891	0.9974	0.40141	-0.617
Mof_O 	O 	0.0639	0.0031	0.26672	-0.416
Mof_O 	O 	0.2585	0.0932	0.3572	-0.488
Mof_O 	O 	0.2523	0.9016	0.3551	-0.483
Mof_Zn	Zn	0.54302	0.87576	0.96396	1.215
Mof_Zn	Zn	0.54317	0.12839	0.96164	1.216
Mof_Zn	Zn	0.10023	0.12812	0.94138	1.217
Mof_Zn	Zn	0.09798	0.8748	0.94391	1.218
Mof_Zn	Zn	0.15867	0.9967	0.16725	1.238
Mof_P 	P 	0.2917	0.1957	0.08576	0.56
Mof_P 	P 	0.83814	0.0044	0.04004	0.546
Mof_P 	P 	0.29	0.8002	0.08566	0.553
Mof_P 	P 	0.35512	0.0004	0.84281	0.52
Mof_O 	O 	0.3074	0.1133	0.1439	-0.439
Mof_O 	O 	0.3046	0.1484	0.0085	-0.658
Mof_O 	O 	0.4473	0.268	0.0946	-0.495
Mof_O 	O 	0.1075	0.2497	0.0909	-0.484
Mof_O 	O 	0.981	0.0035	0.9772	-0.656
Mof_O 	O 	0.7265	0.1012	0.0317	-0.503
Mof_O 	O 	0.7268	0.9087	0.0354	-0.501
Mof_O 	O 	0.9341	0.0058	0.11418	-0.439
Mof_O 	O 	0.3055	0.8564	0.0089	-0.661
Mof_O 	O 	0.3012	0.8767	0.1479	-0.441
Mof_O 	O 	0.1091	0.7472	0.0869	-0.499
Mof_O 	O 	0.4417	0.7244	0.0917	-0.506
Mof_O 	O 	0.5109	0.0026	0.90141	-0.616
Mof_O 	O 	0.4361	0.9969	0.76672	-0.416
Mof_O 	O 	0.2415	0.9068	0.8572	-0.488
Mof_O 	O 	0.2477	0.0984	0.8551	-0.484
_end
