data_functionalizedCrystal
_audit_creation_method	'EQeq! by Chris Wilmer'
_symmetry_space_group_name_H-M	'P1'
_symmetry_Int_Tables_number	1
_symmetry_cell_setting	triclinic
loop_
_symmetry_equiv_pos_as_xyz
  x,y,z
_cell_length_a	10.2056
_cell_length_b	10.8193
_cell_length_c	13.0947
_cell_angle_alpha	91.5103
_cell_angle_beta	112.935
_cell_angle_gamma	90
loop_
_atom_site_label
_atom_site_type_symbol
_atom_site_fract_x
_atom_site_fract_y
_atom_site_fract_z
_atom_site_charge
Mof_Cu	Cu	0.22548	0.73868	0.39506	0.878
Mof_Cu	Cu	0.83042	0.76132	0.60494	0.878
Mof_Cu	Cu	0.16958	0.23868	0.39506	0.877
Mof_Cu	Cu	0.77452	0.26132	0.60494	0.877
Mof_H 	H 	0.5861	0.5973	0.9858	0.048
Mof_H 	H 	0.702	0.0457	0.4558	0.017
Mof_H 	H 	0.4301	0.7802	0.1988	0.125
Mof_H 	H 	0.3798	0.1704	0.1534	0.124
Mof_H 	H 	0.5214	0.7937	0.518	-0.028
Mof_H 	H 	0.0309	0.9704	0.696	0.034
Mof_H 	H 	0.5618	0.999	0.9188	0.047
Mof_H 	H 	0.2264	0.3296	0.8466	0.124
Mof_H 	H 	0.0034	0.7063	0.482	-0.027
Mof_H 	H 	0.5553	0.939	0.3148	0.026
Mof_H 	H 	0.3648	0.3336	0.2664	0.014
Mof_H 	H 	0.7595	0.439	0.3148	0.025
Mof_H 	H 	0.4447	0.061	0.6852	0.026
Mof_H 	H 	0.9966	0.2937	0.518	-0.027
Mof_H 	H 	0.4382	0.001	0.0812	0.047
Mof_H 	H 	0.0984	0.1664	0.7336	0.014
Mof_H 	H 	0.3997	0.0973	0.9858	0.047
Mof_H 	H 	0.6651	0.4704	0.696	0.034
Mof_H 	H 	0.6003	0.9027	0.0142	0.047
Mof_H 	H 	0.2462	0.4543	0.5442	0.017
Mof_H 	H 	0.298	0.9543	0.5442	0.017
Mof_H 	H 	0.7538	0.5457	0.4558	0.017
Mof_H 	H 	0.643	0.501	0.0812	0.047
Mof_H 	H 	0.5699	0.2198	0.8012	0.125
Mof_H 	H 	0.2313	0.7198	0.8012	0.125
Mof_H 	H 	0.6352	0.6664	0.7336	0.014
Mof_H 	H 	0.7687	0.2802	0.1988	0.125
Mof_H 	H 	0.4139	0.4027	0.0142	0.048
Mof_H 	H 	0.3349	0.5296	0.304	0.034
Mof_H 	H 	0.9691	0.0296	0.304	0.034
Mof_H 	H 	0.4786	0.2063	0.482	-0.028
Mof_H 	H 	0.2405	0.561	0.6852	0.025
Mof_H 	H 	0.6202	0.8296	0.8466	0.124
Mof_H 	H 	0.357	0.499	0.9188	0.047
Mof_H 	H 	0.9016	0.8336	0.2664	0.014
Mof_H 	H 	0.7736	0.6704	0.1534	0.124
Mof_C 	C 	0.4738	0.2096	0.787	-0.214
Mof_C 	C 	0.7294	0.7254	0.1852	-0.217
Mof_C 	C 	0.5818	0.4324	0.6468	0.015
Mof_C 	C 	0.3358	0.422	0.558	0.013
Mof_C 	C 	0.1826	0.9831	0.6348	-0.009
Mof_C 	C 	0.4471	0.3238	0.2528	0.055
Mof_C 	C 	0.6868	0.2904	0.213	-0.214
Mof_C 	C 	0.6807	0.3873	0.2812	0.049
Mof_C 	C 	0.5781	0.2104	0.1662	0.251
Mof_C 	C 	0.7411	0.9081	0.3004	-0.051
Mof_C 	C 	0.5529	0.6762	0.7472	0.055
Mof_C 	C 	0.2222	0.922	0.558	0.013
Mof_C 	C 	0.4522	0.4831	0.6348	-0.009
Mof_C 	C 	0.5442	0.7746	0.8148	-0.218
Mof_C 	C 	0.8057	0.8238	0.2528	0.055
Mof_C 	C 	0.935	0.0676	0.3532	0.015
Mof_C 	C 	0.4407	0.5919	0.6996	-0.051
Mof_C 	C 	0.4403	0.4546	0.9658	0.016
Mof_C 	C 	0.9511	0.2222	0.4796	0.107
Mof_C 	C 	0.4715	0.2778	0.5204	0.107
Mof_C 	C 	0.8174	0.0169	0.3652	-0.009
Mof_C 	C 	0.4745	0.0454	0.0342	0.017
Mof_C 	C 	0.065	0.9324	0.6468	0.015
Mof_C 	C 	0.6005	0.8873	0.2812	0.049
Mof_C 	C 	0.4558	0.2254	0.1852	-0.218
Mof_C 	C 	0.4119	0.2896	0.8338	0.251
Mof_C 	C 	0.5593	0.4081	0.3004	-0.051
Mof_C 	C 	0.5597	0.5454	0.0342	0.016
Mof_C 	C 	0.5255	0.9546	0.9658	0.017
Mof_C 	C 	0.3193	0.6127	0.7188	0.049
Mof_C 	C 	0.7778	0.078	0.442	0.013
Mof_C 	C 	0.6642	0.578	0.442	0.013
Mof_C 	C 	0.0489	0.7778	0.5204	0.107
Mof_C 	C 	0.5478	0.5169	0.3652	-0.009
Mof_C 	C 	0.2706	0.2746	0.8148	-0.217
Mof_C 	C 	0.5881	0.7104	0.1662	0.251
Mof_C 	C 	0.2589	0.0919	0.6996	-0.051
Mof_C 	C 	0.5285	0.7222	0.4796	0.107
Mof_C 	C 	0.5262	0.7904	0.213	-0.214
Mof_C 	C 	0.3995	0.1127	0.7188	0.049
Mof_C 	C 	0.4219	0.7896	0.8338	0.251
Mof_C 	C 	0.4182	0.5676	0.3532	0.015
Mof_C 	C 	0.3132	0.7096	0.787	-0.214
Mof_C 	C 	0.1943	0.1762	0.7472	0.055
Mof_N 	N 	0.3435	0.319	0.5016	-0.235
Mof_N 	N 	0.0127	0.524	0.2874	0.048
Mof_N 	N 	0.1581	0.819	0.5016	-0.235
Mof_N 	N 	0.9989	0.83	0.5898	-0.234
Mof_N 	N 	0.7253	0.976	0.7126	0.048
Mof_N 	N 	0.4091	0.67	0.4102	-0.234
Mof_N 	N 	0.0011	0.17	0.4102	-0.234
Mof_N 	N 	0.6565	0.681	0.4984	-0.235
Mof_N 	N 	0.2747	0.024	0.2874	0.048
Mof_N 	N 	0.8419	0.181	0.4984	-0.235
Mof_N 	N 	0.9873	0.476	0.7126	0.048
Mof_N 	N 	0.5909	0.33	0.5898	-0.234
Mof_O 	O 	0.3504	0.011	0.3842	-0.182
Mof_O 	O 	0.8213	0.0998	0.7168	-0.223
Mof_O 	O 	0.406	0.8831	0.9016	-0.234
Mof_O 	O 	0.0828	0.6083	0.2754	-0.239
Mof_O 	O 	0.8955	0.5998	0.7168	-0.223
Mof_O 	O 	0.8074	0.8917	0.7246	-0.239
Mof_O 	O 	0.1787	0.9002	0.2832	-0.223
Mof_O 	O 	0.1926	0.1083	0.2754	-0.239
Mof_O 	O 	0.4956	0.3831	0.9016	-0.234
Mof_O 	O 	0.5044	0.6169	0.0984	-0.234
Mof_O 	O 	0.9662	0.489	0.6158	-0.182
Mof_O 	O 	0.0338	0.511	0.3842	-0.182
Mof_O 	O 	0.1045	0.4002	0.2832	-0.223
Mof_O 	O 	0.6496	0.989	0.6158	-0.182
Mof_O 	O 	0.594	0.1169	0.0984	-0.234
Mof_O 	O 	0.9172	0.3917	0.7246	-0.239
_end
