data_functionalizedCrystal
_audit_creation_method	'EQeq! by Chris Wilmer'
_symmetry_space_group_name_H-M	'P1'
_symmetry_Int_Tables_number	1
_symmetry_cell_setting	triclinic
loop_
_symmetry_equiv_pos_as_xyz
  x,y,z
_cell_length_a	8.7635
_cell_length_b	11.4678
_cell_length_c	11.4678
_cell_angle_alpha	106.056
_cell_angle_beta	103.826
_cell_angle_gamma	76.1737
loop_
_atom_site_label
_atom_site_type_symbol
_atom_site_fract_x
_atom_site_fract_y
_atom_site_fract_z
_atom_site_charge
Mof_Sr	Sr	0.75	0.46165	0.46165	1.835
Mof_Sr	Sr	0.25	0.53835	0.53835	1.788
Mof_Ni	Ni	2.68934e-17	0.5	-0	1.018
Mof_Ni	Ni	0.5	0	0.5	1.031
Mof_H 	H 	0.4757	0.3063	0.4599	0.364
Mof_H 	H 	0.4639	0.3473	0.3551	0.351
Mof_H 	H 	0.5703	0.2973	0.7417	0.069
Mof_H 	H 	0.462	0.2667	0.8959	-0.011
Mof_H 	H 	0.7735	0.4527	0.1479	-0.017
Mof_H 	H 	0.0243	0.4599	0.3063	0.357
Mof_H 	H 	0.0361	0.3551	0.3473	0.345
Mof_H 	H 	0.9297	0.7417	0.2973	0.104
Mof_H 	H 	0.038	0.8959	0.2667	-0.076
Mof_H 	H 	0.7265	0.1479	0.4527	-0.032
Mof_H 	H 	0.5243	0.6937	0.5401	0.371
Mof_H 	H 	0.5361	0.6527	0.6449	0.361
Mof_H 	H 	0.4297	0.7027	0.2583	0.035
Mof_H 	H 	0.538	0.7333	0.1041	0.048
Mof_H 	H 	0.2265	0.5473	0.8521	-0.04
Mof_H 	H 	0.9757	0.5401	0.6937	0.377
Mof_H 	H 	0.9639	0.6449	0.6527	0.368
Mof_H 	H 	0.0703	0.2583	0.7027	0.005
Mof_H 	H 	0.962	0.1041	0.7333	0.102
Mof_H 	H 	0.2735	0.8521	0.5473	-0.026
Mof_C 	C 	0.7351	0.39097	0.85919	-0.013
Mof_C 	C 	0.6103	0.32776	0.82464	-0.118
Mof_C 	C 	0.5453	0.31028	0.91672	0.152
Mof_C 	C 	0.6055	0.35824	0.03944	-0.243
Mof_C 	C 	0.732	0.42015	0.06571	0.072
Mof_C 	C 	0.8097	0.42019	0.76697	0.342
Mof_C 	C 	0.5401	0.34698	0.14482	0.443
Mof_C 	C 	0.7649	0.85919	0.39097	0.015
Mof_C 	C 	0.8897	0.82464	0.32776	-0.183
Mof_C 	C 	0.9547	0.91672	0.31028	0.277
Mof_C 	C 	0.8945	0.03944	0.35824	-0.301
Mof_C 	C 	0.768	0.06571	0.42015	0.102
Mof_C 	C 	0.6903	0.76697	0.42019	0.333
Mof_C 	C 	0.9599	0.14482	0.34698	0.506
Mof_C 	C 	0.2649	0.60903	0.14081	-0.07
Mof_C 	C 	0.3897	0.67224	0.17536	-0.014
Mof_C 	C 	0.4547	0.68972	0.08328	-0.07
Mof_C 	C 	0.3945	0.64176	0.96056	-0.076
Mof_C 	C 	0.268	0.57985	0.93429	0.139
Mof_C 	C 	0.1903	0.57981	0.23303	0.357
Mof_C 	C 	0.4599	0.65302	0.85518	0.396
Mof_C 	C 	0.2351	0.14081	0.60903	-0.094
Mof_C 	C 	0.1103	0.17536	0.67224	0.04
Mof_C 	C 	0.0453	0.08328	0.68972	-0.172
Mof_C 	C 	0.1055	0.96056	0.64176	-0.03
Mof_C 	C 	0.232	0.93429	0.57985	0.111
Mof_C 	C 	0.3097	0.23303	0.57981	0.366
Mof_C 	C 	0.0401	0.85518	0.65302	0.333
Mof_N 	N 	0.7967	0.43477	0.97765	-0.198
Mof_N 	N 	0.7033	0.97765	0.43477	-0.213
Mof_N 	N 	0.2033	0.56523	0.02235	-0.271
Mof_N 	N 	0.2967	0.02235	0.56523	-0.259
Mof_O 	O 	0.9307	0.4723	0.81268	-0.443
Mof_O 	O 	0.7516	0.39258	0.65652	-0.423
Mof_O 	O 	0.4264	0.29223	0.12217	-0.356
Mof_O 	O 	0.6039	0.39541	0.24965	-0.484
Mof_O 	O 	0.4672	0.36977	0.43269	-0.895
Mof_O 	O 	0.5693	0.81268	0.4723	-0.457
Mof_O 	O 	0.7484	0.65652	0.39258	-0.419
Mof_O 	O 	0.0736	0.12217	0.29223	-0.392
Mof_O 	O 	0.8961	0.24965	0.39541	-0.491
Mof_O 	O 	0.0328	0.43269	0.36977	-0.904
Mof_O 	O 	0.0693	0.5277	0.18732	-0.501
Mof_O 	O 	0.2484	0.60742	0.34348	-0.434
Mof_O 	O 	0.5736	0.70777	0.87783	-0.287
Mof_O 	O 	0.3961	0.60459	0.75035	-0.466
Mof_O 	O 	0.5328	0.63023	0.56731	-0.902
Mof_O 	O 	0.4307	0.18732	0.5277	-0.491
Mof_O 	O 	0.2516	0.34348	0.60742	-0.438
Mof_O 	O 	0.9264	0.87783	0.70777	-0.249
Mof_O 	O 	0.1039	0.75035	0.60459	-0.46
Mof_O 	O 	0.9672	0.56731	0.63023	-0.894
_end
