data_functionalizedCrystal
_audit_creation_method	'EQeq! by Chris Wilmer'
_symmetry_space_group_name_H-M	'P1'
_symmetry_Int_Tables_number	1
_symmetry_cell_setting	triclinic
loop_
_symmetry_equiv_pos_as_xyz
  x,y,z
_cell_length_a	19.6
_cell_length_b	19.6
_cell_length_c	20.76
_cell_angle_alpha	90
_cell_angle_beta	90
_cell_angle_gamma	120
loop_
_atom_site_label
_atom_site_type_symbol
_atom_site_fract_x
_atom_site_fract_y
_atom_site_fract_z
_atom_site_charge
Mof_Cd	Cd	0.65495	0.27308	0.90184	0.436
Mof_Cd	Cd	0.56918	0.25956	0.0779	0.479
Mof_Cd	Cd	0.61813	0.34505	0.23518	0.44
Mof_Cd	Cd	0.74044	0.30962	0.74456	0.477
Mof_Cd	Cd	0.30962	0.56918	0.91123	0.476
Mof_Cd	Cd	0.43082	0.74044	0.5779	0.478
Mof_Cd	Cd	0.25956	0.69038	0.24456	0.478
Mof_Cd	Cd	0.69038	0.43082	0.41123	0.478
Mof_Cd	Cd	0.34505	0.72692	0.40184	0.44
Mof_Cd	Cd	0.72692	0.38187	0.56851	0.44
Mof_Cd	Cd	0.38187	0.65495	0.73518	0.44
Mof_Cd	Cd	0.27308	0.61813	0.06851	0.444
Mof_H 	H 	0.1282	0.6605	0.85713	0.038
Mof_H 	H 	0.6682	0.9234	0.19307	0.07
Mof_H 	H 	0.3108	0.1386	0.11917	0.033
Mof_H 	H 	0.1881	0.7479	0.4745	0.032
Mof_H 	H 	0.8614	0.1722	0.78583	0.032
Mof_H 	H 	0.2552	0.3318	0.5264	0.069
Mof_H 	H 	0.7235	0.9732	0.93723	0.075
Mof_H 	H 	0.2334	0.875	0.99813	0.077
Mof_H 	H 	0.9732	0.2497	0.1039	0.076
Mof_H 	H 	0.7813	0.6223	0.34937	0.049
Mof_H 	H 	0.8948	0.1994	0.9814	0.072
Mof_H 	H 	0.9313	0.1737	0.6795	0.07
Mof_H 	H 	0.5733	0.6571	0.92833	0.036
Mof_H 	H 	0.7091	0.7417	0.93743	0.069
Mof_H 	H 	0.1052	0.8006	0.4814	0.079
Mof_H 	H 	0.3318	0.0766	0.69307	0.069
Mof_H 	H 	0.7247	0.0393	0.35983	0.074
Mof_H 	H 	0.0838	0.4267	0.26167	0.037
Mof_H 	H 	0.7899	0.5057	0.1631	0.038
Mof_H 	H 	0.7576	0.9313	0.51283	0.069
Mof_H 	H 	0.3429	0.9162	0.595	0.037
Mof_H 	H 	0.3046	0.1052	0.31473	0.079
Mof_H 	H 	0.4102	0.0509	0.86293	0.042
Mof_H 	H 	0.9379	0.6201	0.5794	0.04
Mof_H 	H 	0.6571	0.0838	0.095	0.037
Mof_H 	H 	0.8718	0.3395	0.35713	0.039
Mof_H 	H 	0.6201	0.6822	0.74607	0.04
Mof_H 	H 	0.3395	0.4677	0.5238	0.039
Mof_H 	H 	0.1386	0.8278	0.28583	0.032
Mof_H 	H 	0.4267	0.3429	0.42833	0.037
Mof_H 	H 	0.3584	0.2334	0.83147	0.078
Mof_H 	H 	0.0687	0.8263	0.1795	0.07
Mof_H 	H 	0.1737	0.2424	0.84617	0.069
Mof_H 	H 	0.2101	0.4943	0.6631	0.037
Mof_H 	H 	0.875	0.6416	0.1648	0.079
Mof_H 	H 	0.7417	0.0326	0.1041	0.071
Mof_H 	H 	0.3146	0.2753	0.69317	0.074
Mof_H 	H 	0.125	0.3584	0.6648	0.078
Mof_H 	H 	0.9034	0.0823	0.80993	0.072
Mof_H 	H 	0.8211	0.9034	0.64327	0.072
Mof_H 	H 	0.2583	0.9674	0.6041	0.071
Mof_H 	H 	0.7158	0.2101	0.49643	0.037
Mof_H 	H 	0.6854	0.7247	0.19317	0.075
Mof_H 	H 	0.0509	0.6407	0.0296	0.043
Mof_H 	H 	0.0393	0.3146	0.5265	0.074
Mof_H 	H 	0.7666	0.125	0.49813	0.079
Mof_H 	H 	0.2753	0.9607	0.85983	0.075
Mof_H 	H 	0.6223	0.841	0.51603	0.049
Mof_H 	H 	0.2842	0.7899	0.99643	0.036
Mof_H 	H 	0.8263	0.7576	0.34617	0.07
Mof_H 	H 	0.9177	0.8211	0.4766	0.072
Mof_H 	H 	0.0326	0.2909	0.27077	0.071
Mof_H 	H 	0.2765	0.0268	0.43723	0.077
Mof_H 	H 	0.0621	0.3799	0.0794	0.043
Mof_H 	H 	0.9234	0.2552	0.35973	0.069
Mof_H 	H 	0.0966	0.9177	0.30993	0.072
Mof_H 	H 	0.1722	0.3108	0.9525	0.036
Mof_H 	H 	0.2521	0.4402	0.14117	0.033
Mof_H 	H 	0.9162	0.5733	0.76167	0.037
Mof_H 	H 	0.7503	0.7235	0.77057	0.077
Mof_H 	H 	0.9607	0.6854	0.0265	0.076
Mof_H 	H 	0.8119	0.2521	0.9745	0.025
Mof_H 	H 	0.5057	0.7158	0.32977	0.037
Mof_H 	H 	0.4677	0.1282	0.69047	0.039
Mof_H 	H 	0.0766	0.7448	0.85973	0.069
Mof_H 	H 	0.8006	0.6954	0.64807	0.079
Mof_H 	H 	0.9674	0.7091	0.77077	0.071
Mof_H 	H 	0.6954	0.8948	0.81473	0.079
Mof_H 	H 	0.5323	0.8718	0.19047	0.039
Mof_H 	H 	0.5898	0.9491	0.36293	0.042
Mof_H 	H 	0.2187	0.3777	0.84937	0.048
Mof_H 	H 	0.2909	0.2583	0.43743	0.071
Mof_H 	H 	0.9491	0.3593	0.5296	0.042
Mof_H 	H 	0.6605	0.5323	0.0238	0.04
Mof_H 	H 	0.6822	0.0621	0.91273	0.039
Mof_H 	H 	0.2424	0.0687	0.01283	0.076
Mof_H 	H 	0.4402	0.1881	0.30783	0.032
Mof_H 	H 	0.3593	0.4102	0.69627	0.042
Mof_H 	H 	0.159	0.7813	0.1827	0.049
Mof_H 	H 	0.0268	0.7503	0.6039	0.077
Mof_H 	H 	0.6407	0.5898	0.19627	0.042
Mof_H 	H 	0.1994	0.3046	0.14807	0.08
Mof_H 	H 	0.5598	0.8119	0.80783	0.032
Mof_H 	H 	0.0823	0.1789	0.9766	0.071
Mof_H 	H 	0.6892	0.8614	0.61917	0.032
Mof_H 	H 	0.7479	0.5598	0.64117	0.032
Mof_H 	H 	0.8278	0.6892	0.4525	0.032
Mof_H 	H 	0.841	0.2187	0.6827	0.049
Mof_H 	H 	0.1789	0.0966	0.14327	0.072
Mof_H 	H 	0.6416	0.7666	0.33147	0.079
Mof_H 	H 	0.2497	0.2765	0.27057	0.077
Mof_H 	H 	0.3799	0.3178	0.24607	0.04
Mof_H 	H 	0.3178	0.9379	0.41273	0.04
Mof_H 	H 	0.7448	0.6682	0.0264	0.071
Mof_H 	H 	0.3777	0.159	0.01603	0.055
Mof_H 	H 	0.4943	0.2842	0.82977	0.037
Mof_C 	C 	0.8483	0.1797	0.42843	0.068
Mof_C 	C 	0.9223	0.6789	0.74467	-0.111
Mof_C 	C 	0.2983	0.1668	0.14967	0.033
Mof_C 	C 	0.2939	0.8917	0.5728	0.034
Mof_C 	C 	0.751	0.0128	0.90573	-0.113
Mof_C 	C 	0.5057	0.7878	0.25897	-0.093
Mof_C 	C 	0.112	0.2838	0.21227	0.07
Mof_C 	C 	0.8807	0.0793	0.0548	-0.022
Mof_C 	C 	0.7271	0.0661	0.89173	0.036
Mof_C 	C 	0.0548	0.6787	0.06	0.032
Mof_C 	C 	0.9041	0.9871	0.25437	-0.003
Mof_C 	C 	0.2063	0.1591	0.76597	-0.022
Mof_C 	C 	0.7566	0.0777	0.078	-0.11
Mof_C 	C 	0.3314	0.1517	0.76177	0.068
Mof_C 	C 	0.8808	0.1258	0.42853	-0.023
Mof_C 	C 	0.0129	0.917	0.92103	-0.004
Mof_C 	C 	0.249	0.9872	0.40573	-0.113
Mof_C 	C 	0.4099	0.2023	0.33453	0.042
Mof_C 	C 	0.1083	0.4022	0.23947	0.034
Mof_C 	C 	0.3293	0.1526	0.33893	-0.115
Mof_C 	C 	0.7073	0.593	0.27307	-0.087
Mof_C 	C 	0.4943	0.2122	0.75897	-0.094
Mof_C 	C 	0.2434	0.9223	0.578	-0.111
Mof_C 	C 	0.7802	0.8578	0.66357	-0.111
Mof_C 	C 	0.2729	0.9339	0.39173	0.037
Mof_C 	C 	0.1571	0.0398	0.38743	-0.023
Mof_C 	C 	0.2188	0.4614	0.6347	0.039
Mof_C 	C 	0.2122	0.8318	0.96903	-0.111
Mof_C 	C 	0.5901	0.7977	0.83453	0.042
Mof_C 	C 	0.3361	0.5814	0.5897	0.316
Mof_C 	C 	0.0013	0.7053	0.0581	-0.106
Mof_C 	C 	0.4022	0.2939	0.40613	0.034
Mof_C 	C 	0.2198	0.1422	0.16357	-0.111
Mof_C 	C 	0.083	0.0959	0.5877	-0.004
Mof_C 	C 	0.1848	0.9837	0.37423	0.068
Mof_C 	C 	0.1192	0.8742	0.92853	-0.023
Mof_C 	C 	0.762	0.643	0.31737	0.024
Mof_C 	C 	0.8685	0.7017	0.483	0.033
Mof_C 	C 	0.7989	0.8152	0.70757	0.068
Mof_C 	C 	0.1143	0.7073	0.1064	-0.087
Mof_C 	C 	0.7053	0.704	0.22477	-0.107
Mof_C 	C 	0.4614	0.2426	0.80137	0.039
Mof_C 	C 	0.8857	0.2927	0.6064	-0.087
Mof_C 	C 	0.7977	0.2076	0.0012	0.05
Mof_C 	C 	0.2321	0.8742	0.34693	-0.096
Mof_C 	C 	0.7547	0.3361	0.42303	0.316
Mof_C 	C 	0.15	0.7043	0.88553	0.032
Mof_C 	C 	0.2727	0.8257	0.5352	-0.099
Mof_C 	C 	0.258	0.8152	0.33083	0.323
Mof_C 	C 	0.8152	0.5572	0.4975	0.323
Mof_C 	C 	0.2099	0.5349	0.20117	0.32
Mof_C 	C 	0.7878	0.2821	0.42563	-0.093
Mof_C 	C 	0.2393	0.2462	0.76887	0.066
Mof_C 	C 	0.704	0.9987	0.39143	-0.107
Mof_C 	C 	0.7888	0.7235	0.31557	-0.104
Mof_C 	C 	0.0528	0.0816	0.41183	-0.003
Mof_C 	C 	0.2927	0.407	0.77307	-0.088
Mof_C 	C 	0.593	0.8857	0.43973	-0.087
Mof_C 	C 	0.7061	0.1083	0.0728	0.035
Mof_C 	C 	0.1767	0.3293	0.17227	-0.115
Mof_C 	C 	0.7235	0.9347	0.48223	-0.104
Mof_C 	C 	0.8282	0.112	0.0456	0.068
Mof_C 	C 	0.0069	0.7607	0.1022	0.066
Mof_C 	C 	0.7924	0.5901	0.66787	0.042
Mof_C 	C 	0.1422	0.9224	0.33023	-0.111
Mof_C 	C 	0.2453	0.6639	0.92303	0.316
Mof_C 	C 	0.447	0.2727	0.36853	-0.099
Mof_C 	C 	0.8429	0.9602	0.88743	-0.023
Mof_C 	C 	0.8742	0.6421	0.5136	-0.096
Mof_C 	C 	0.5572	0.742	0.66417	0.323
Mof_C 	C 	0.1517	0.8203	0.92843	0.067
Mof_C 	C 	0.357	0.119	0.98403	0.017
Mof_C 	C 	0.0398	0.8827	0.5541	-0.023
Mof_C 	C 	0.1258	0.3579	0.0136	-0.077
Mof_C 	C 	0.9528	0.7937	0.0993	-0.022
Mof_C 	C 	0.238	0.357	0.81737	0.024
Mof_C 	C 	0.9224	0.7802	0.4969	-0.111
Mof_C 	C 	0.755	0.8808	0.26187	-0.023
Mof_C 	C 	0.175	0.682	0.1071	0.312
Mof_C 	C 	0.8578	0.0776	0.83023	-0.111
Mof_C 	C 	0.3579	0.2321	0.18027	-0.095
Mof_C 	C 	0.3213	0.3761	0.72667	0.031
Mof_C 	C 	0.7538	0.9931	0.43553	0.066
Mof_C 	C 	0.7812	0.5386	0.1347	0.039
Mof_C 	C 	0.9712	0.0528	0.24517	-0.003
Mof_C 	C 	0.1526	0.8233	0.5056	-0.115
Mof_C 	C 	0.6239	0.9452	0.39333	0.031
Mof_C 	C 	0.2957	0.4457	0.5522	0.033
Mof_C 	C 	0.6787	0.6239	0.22667	0.031
Mof_C 	C 	0.825	0.318	0.6071	0.312
Mof_C 	C 	0.8409	0.0472	0.43263	-0.022
Mof_C 	C 	0.4457	0.15	0.71887	0.033
Mof_C 	C 	0.6351	0.8804	0.22027	-0.107
Mof_C 	C 	0.7607	0.7538	0.26887	0.066
Mof_C 	C 	0.0777	0.3211	0.24467	-0.111
Mof_C 	C 	0.1315	0.2983	0.983	0.019
Mof_C 	C 	0.1797	0.3314	0.5951	0.068
Mof_C 	C 	0.8257	0.553	0.70187	-0.099
Mof_C 	C 	0.5349	0.325	0.36783	0.32
Mof_C 	C 	0.1718	0.888	0.5456	0.07
Mof_C 	C 	0.6789	0.7566	0.91133	-0.111
Mof_C 	C 	0.318	0.493	0.77377	0.312
Mof_C 	C 	0.7547	0.6351	0.0536	-0.107
Mof_C 	C 	0.2618	0.249	0.23907	-0.113
Mof_C 	C 	0.325	0.7901	0.5345	0.32
Mof_C 	C 	0.2122	0.7179	0.92563	-0.095
Mof_C 	C 	0.1682	0.3804	0.6357	-0.111
Mof_C 	C 	0.4428	0.258	0.16417	0.323
Mof_C 	C 	0.0793	0.1986	0.22147	-0.024
Mof_C 	C 	0.742	0.1848	0.83083	0.323
Mof_C 	C 	0.3804	0.2122	0.80237	-0.111
Mof_C 	C 	0.7273	0.1743	0.0352	-0.1
Mof_C 	C 	0.7043	0.5543	0.0522	0.033
Mof_C 	C 	0.888	0.7162	0.71227	0.07
Mof_C 	C 	0.9872	0.7382	0.5724	-0.113
Mof_C 	C 	0.1591	0.9528	0.93263	-0.024
Mof_C 	C 	0.7574	0.2188	0.46803	0.039
Mof_C 	C 	0.0661	0.339	0.0584	0.028
Mof_C 	C 	0.661	0.7271	0.72507	0.037
Mof_C 	C 	0.6196	0.7878	0.30237	-0.111
Mof_C 	C 	0.8233	0.6707	0.67227	-0.115
Mof_C 	C 	0.4651	0.675	0.86783	0.32
Mof_C 	C 	0.7162	0.8282	0.87893	0.069
Mof_C 	C 	0.7901	0.4651	0.70117	0.32
Mof_C 	C 	0.8917	0.5978	0.73947	0.034
Mof_C 	C 	0.1743	0.447	0.20187	-0.098
Mof_C 	C 	0.0472	0.2063	0.5993	-0.023
Mof_C 	C 	0.5814	0.2453	0.75637	0.316
Mof_C 	C 	0.2838	0.1718	0.37893	0.07
Mof_C 	C 	0.1196	0.7547	0.88693	-0.108
Mof_C 	C 	0.9931	0.2393	0.6022	0.066
Mof_C 	C 	0.3649	0.1196	0.72027	-0.108
Mof_C 	C 	0.6639	0.4186	0.0897	0.316
Mof_C 	C 	0.4186	0.7547	0.25637	0.316
Mof_C 	C 	0.2112	0.2765	0.81557	-0.105
Mof_C 	C 	0.2462	0.0069	0.93553	0.068
Mof_C 	C 	0.9184	0.9712	0.0785	-0.002
Mof_C 	C 	0.6421	0.7679	0.68027	-0.096
Mof_C 	C 	0.5543	0.85	0.21887	0.033
Mof_C 	C 	0.9207	0.8014	0.72147	-0.023
Mof_C 	C 	0.1258	0.245	0.5952	-0.023
Mof_C 	C 	0.8318	0.6196	0.1357	-0.111
Mof_C 	C 	0.9472	0.9184	0.91183	-0.003
Mof_C 	C 	0.0653	0.7888	0.1489	-0.104
Mof_C 	C 	0.9339	0.661	0.5584	0.037
Mof_C 	C 	0.296	0.0013	0.89143	-0.108
Mof_C 	C 	0.8203	0.6686	0.0951	0.069
Mof_C 	C 	0.7679	0.1258	0.84693	-0.096
Mof_C 	C 	0.6686	0.8483	0.26177	0.068
Mof_C 	C 	0.8474	0.1767	0.0056	-0.107
Mof_C 	C 	0.3211	0.2434	0.41133	-0.111
Mof_C 	C 	0.1848	0.4428	0.9975	0.306
Mof_C 	C 	0.1193	0.9207	0.5548	-0.023
Mof_C 	C 	0.643	0.881	0.48403	0.024
Mof_C 	C 	0.2076	0.4099	0.16787	0.042
Mof_C 	C 	0.9347	0.2112	0.6489	-0.104
Mof_C 	C 	0.7017	0.8332	0.64967	0.033
Mof_C 	C 	0.8827	0.8429	0.72077	-0.023
Mof_C 	C 	0.8332	0.1315	0.81633	0.033
Mof_C 	C 	0.9452	0.3213	0.56	0.031
Mof_C 	C 	0.7179	0.5057	0.0923	-0.093
Mof_C 	C 	0.5386	0.7574	0.30137	0.039
Mof_C 	C 	0.8742	0.755	0.0952	-0.023
Mof_C 	C 	0.0288	0.9472	0.74517	-0.003
Mof_C 	C 	0.2765	0.0653	0.98223	-0.112
Mof_C 	C 	0.9987	0.2947	0.5581	-0.107
Mof_C 	C 	0.1986	0.1193	0.38813	-0.023
Mof_C 	C 	0.0816	0.0288	0.5785	-0.003
Mof_C 	C 	0.3761	0.0548	0.89333	0.031
Mof_C 	C 	0.682	0.507	0.27377	0.312
Mof_C 	C 	0.245	0.1192	0.76187	-0.023
Mof_C 	C 	0.493	0.175	0.94043	0.311
Mof_C 	C 	0.9602	0.1173	0.0541	-0.023
Mof_C 	C 	0.0163	0.2011	0.0409	0.071
Mof_C 	C 	0.407	0.1143	0.93973	-0.086
Mof_C 	C 	0.0128	0.2618	0.0724	-0.109
Mof_C 	C 	0.339	0.2729	0.22507	0.037
Mof_C 	C 	0.7382	0.751	0.73907	-0.113
Mof_C 	C 	0.917	0.9041	0.0877	-0.003
Mof_C 	C 	0.2023	0.7924	0.5012	0.042
Mof_C 	C 	0.8152	0.0163	0.87423	0.067
Mof_C 	C 	0.553	0.7273	0.86853	-0.099
Mof_C 	C 	0.2426	0.7812	0.96803	0.038
Mof_C 	C 	0.6707	0.8474	0.83893	-0.115
Mof_C 	C 	0.1668	0.8685	0.31633	0.033
Mof_C 	C 	0.0776	0.2198	0.9969	-0.113
Mof_C 	C 	0.7937	0.8409	0.26597	-0.022
Mof_C 	C 	0.9837	0.7989	0.5409	0.068
Mof_C 	C 	0.119	0.762	0.1507	0.024
Mof_C 	C 	0.507	0.825	0.44043	0.312
Mof_C 	C 	0.2011	0.1848	0.20757	0.068
Mof_C 	C 	0.2947	0.296	0.72477	-0.107
Mof_C 	C 	0.881	0.238	0.6507	0.024
Mof_C 	C 	0.7878	0.1682	0.46903	-0.111
Mof_C 	C 	0.8014	0.8807	0.88813	-0.023
Mof_C 	C 	0.2821	0.4943	0.5923	-0.093
Mof_C 	C 	0.9871	0.083	0.42103	-0.003
Mof_C 	C 	0.0959	0.0129	0.75437	-0.003
Mof_C 	C 	0.2453	0.3649	0.5536	-0.108
Mof_C 	C 	0.8804	0.2453	0.38693	-0.108
Mof_C 	C 	0.1173	0.1571	0.22077	-0.023
Mof_C 	C 	0.675	0.2099	0.0345	0.321
Mof_C 	C 	0.85	0.2957	0.38553	0.033
Mof_C 	C 	0.5978	0.7061	0.90613	0.034
Mof_S 	S 	0.14514	0.16712	0.40565	-0.005
Mof_S 	S 	0.93746	0.94312	0.74003	-0.002
Mof_S 	S 	0.06254	0.05688	0.24003	-0.002
Mof_S 	S 	0.18711	0.01588	0.75829	-0.003
Mof_S 	S 	0.81289	0.98412	0.25829	-0.004
Mof_S 	S 	0.97802	0.14514	0.23899	-0.005
Mof_S 	S 	0.16712	0.02198	0.57232	-0.005
Mof_S 	S 	0.17123	0.18711	0.59162	-0.004
Mof_S 	S 	0.99434	0.93746	0.57336	-0.002
Mof_S 	S 	0.82877	0.81289	0.09162	-0.002
Mof_S 	S 	0.99829	0.10314	0.59969	-0.003
Mof_S 	S 	0.05688	0.99434	0.40669	-0.002
Mof_S 	S 	0.85486	0.83288	0.90565	-0.007
Mof_S 	S 	0.01588	0.82877	0.92495	-0.007
Mof_S 	S 	0.89686	0.89515	0.26636	-0.003
Mof_S 	S 	0.94312	0.00566	0.90669	-0.004
Mof_S 	S 	0.10314	0.10485	0.76636	-0.003
Mof_S 	S 	0.83288	0.97802	0.07232	-0.002
Mof_S 	S 	0.98412	0.17123	0.42495	-0.004
Mof_S 	S 	0.00566	0.06254	0.07336	0
Mof_S 	S 	0.10485	0.00171	0.93302	-0.005
Mof_S 	S 	0.00171	0.89686	0.09969	-0.001
Mof_S 	S 	0.89515	0.99829	0.43302	-0.003
Mof_S 	S 	0.02198	0.85486	0.73899	-0.005
Mof_O 	O 	0.7777	0.388	0.38033	-0.264
Mof_O 	O 	0.2831	0.5161	0.81047	-0.278
Mof_O 	O 	0.5366	0.1655	0.90113	-0.269
Mof_O 	O 	0.375	0.7027	0.29697	-0.3
Mof_O 	O 	0.2223	0.612	0.88033	-0.265
Mof_O 	O 	0.3876	0.8235	0.567	-0.289
Mof_O 	O 	0.7267	0.4236	0.67067	-0.29
Mof_O 	O 	0.3031	0.7267	0.504	-0.29
Mof_O 	O 	0.8145	0.5053	0.5332	-0.281
Mof_O 	O 	0.388	0.6103	0.547	-0.264
Mof_O 	O 	0.4236	0.6969	0.83733	-0.29
Mof_O 	O 	0.5641	0.3876	0.40033	-0.289
Mof_O 	O 	0.4947	0.3092	0.19987	-0.281
Mof_O 	O 	0.5764	0.3031	0.33733	-0.29
Mof_O 	O 	0.5161	0.233	0.97713	-0.282
Mof_O 	O 	0.6723	0.375	0.1303	-0.3
Mof_O 	O 	0.3277	0.625	0.6303	-0.3
Mof_O 	O 	0.2973	0.6723	0.96363	-0.303
Mof_O 	O 	0.7722	0.5458	0.4492	-0.295
Mof_O 	O 	0.2278	0.4542	0.9492	-0.292
Mof_O 	O 	0.7736	0.2278	0.78253	-0.295
Mof_O 	O 	0.1765	0.5641	0.23367	-0.289
Mof_O 	O 	0.1855	0.4947	0.0332	-0.273
Mof_O 	O 	0.612	0.3897	0.047	-0.262
Mof_O 	O 	0.6289	0.4634	0.23447	-0.268
Mof_O 	O 	0.1655	0.6289	0.0678	-0.267
Mof_O 	O 	0.3897	0.7777	0.21367	-0.263
Mof_O 	O 	0.7169	0.4839	0.31047	-0.278
Mof_O 	O 	0.8345	0.3711	0.5678	-0.268
Mof_O 	O 	0.7027	0.3277	0.46363	-0.3
Mof_O 	O 	0.6969	0.2733	0.004	-0.287
Mof_O 	O 	0.5053	0.6908	0.69987	-0.281
Mof_O 	O 	0.6103	0.2223	0.71367	-0.264
Mof_O 	O 	0.625	0.2973	0.79697	-0.3
Mof_O 	O 	0.767	0.2831	0.6438	-0.278
Mof_O 	O 	0.8235	0.4359	0.73367	-0.289
Mof_O 	O 	0.6124	0.1765	0.067	-0.288
Mof_O 	O 	0.4839	0.767	0.47713	-0.278
Mof_O 	O 	0.5458	0.7736	0.61587	-0.295
Mof_O 	O 	0.2264	0.7722	0.28253	-0.295
Mof_O 	O 	0.3092	0.8145	0.36653	-0.281
Mof_O 	O 	0.4542	0.2264	0.11587	-0.294
Mof_O 	O 	0.4634	0.8345	0.40113	-0.268
Mof_O 	O 	0.2733	0.5764	0.17067	-0.289
Mof_O 	O 	0.233	0.7169	0.1438	-0.278
Mof_O 	O 	0.3711	0.5366	0.73447	-0.268
Mof_O 	O 	0.4359	0.6124	0.90033	-0.29
Mof_O 	O 	0.6908	0.1855	0.86653	-0.282
_end
