data_functionalizedCrystal
_audit_creation_method	'EQeq! by Chris Wilmer'
_symmetry_space_group_name_H-M	'P1'
_symmetry_Int_Tables_number	1
_symmetry_cell_setting	triclinic
loop_
_symmetry_equiv_pos_as_xyz
  x,y,z
_cell_length_a	12.798
_cell_length_b	20.613
_cell_length_c	18.8901
_cell_angle_alpha	104.45
_cell_angle_beta	90
_cell_angle_gamma	90
loop_
_atom_site_label
_atom_site_type_symbol
_atom_site_fract_x
_atom_site_fract_y
_atom_site_fract_z
_atom_site_charge
Mof_Cd	Cd	0.50343	0.70096	0.07787	0.445
Mof_Cd	Cd	0.99657	0.70096	0.57787	0.445
Mof_H 	H 	0.0633	0.3452	0.2452	0.041
Mof_H 	H 	0.1511	0.4412	0.3005	0.109
Mof_H 	H 	0.1032	0.5121	0.1246	0.091
Mof_H 	H 	0.0226	0.4147	0.0671	0.039
Mof_H 	H 	0.9002	0.0296	0.0746	0.034
Mof_H 	H 	0.8641	0.9182	0.0218	0.091
Mof_H 	H 	0.7784	0.9683	0.8414	0.088
Mof_H 	H 	0.8267	0.0779	0.8927	0.052
Mof_H 	H 	0.3355	0.724	0.2077	0.001
Mof_H 	H 	0.2242	0.6751	0.2735	0.128
Mof_H 	H 	0.316	0.4996	0.1505	0.129
Mof_H 	H 	0.4238	0.5527	0.0898	0.008
Mof_H 	H 	0.2151	0.669	0.4819	0.006
Mof_H 	H 	0.2832	0.6184	0.371	0.126
Mof_H 	H 	0.9967	0.5522	0.3096	0.123
Mof_H 	H 	0.9416	0.5986	0.4247	0
Mof_H 	H 	0.0371	0.8276	0.7222	0.013
Mof_H 	H 	0.9676	0.884	0.8307	0.115
Mof_H 	H 	0.7146	0.7696	0.7854	0.117
Mof_H 	H 	0.7887	0.7195	0.6771	0.01
Mof_H 	H 	0.5505	0.8443	0.0506	0.012
Mof_H 	H 	0.6388	0.9033	0.983	0.117
Mof_H 	H 	0.8036	0.7367	0.8971	0.117
Mof_H 	H 	0.7052	0.6848	0.9671	0.01
Mof_H 	H 	0.4367	0.3452	0.7452	0.042
Mof_H 	H 	0.3489	0.4412	0.8005	0.11
Mof_H 	H 	0.3968	0.5121	0.6246	0.092
Mof_H 	H 	0.4774	0.4147	0.5671	0.04
Mof_H 	H 	0.5998	0.0296	0.5746	0.034
Mof_H 	H 	0.6359	0.9182	0.5218	0.093
Mof_H 	H 	0.7216	0.9683	0.3414	0.09
Mof_H 	H 	0.6733	0.0779	0.3927	0.053
Mof_H 	H 	0.1645	0.724	0.7077	0.001
Mof_H 	H 	0.2758	0.6751	0.7735	0.128
Mof_H 	H 	0.184	0.4996	0.6505	0.129
Mof_H 	H 	0.0762	0.5527	0.5898	0.008
Mof_H 	H 	0.2849	0.669	0.9819	0.006
Mof_H 	H 	0.2168	0.6184	0.871	0.126
Mof_H 	H 	0.5033	0.5522	0.8096	0.123
Mof_H 	H 	0.5584	0.5986	0.9247	0.001
Mof_H 	H 	0.4629	0.8276	0.2222	0.012
Mof_H 	H 	0.5324	0.884	0.3307	0.115
Mof_H 	H 	0.7854	0.7696	0.2854	0.117
Mof_H 	H 	0.7113	0.7195	0.1771	0.01
Mof_H 	H 	0.9495	0.8443	0.5506	0.012
Mof_H 	H 	0.8612	0.9033	0.483	0.117
Mof_H 	H 	0.6964	0.7367	0.3971	0.117
Mof_H 	H 	0.7948	0.6848	0.4671	0.01
Mof_C 	C 	0.9858	0.3067	0.1148	-0.014
Mof_C 	C 	0.952	0.254	0.0879	-0.002
Mof_C 	C 	0.9172	0.1891	0.0556	-0.001
Mof_C 	C 	0.8912	0.1335	0.0258	-0.003
Mof_C 	C 	0.0341	0.3687	0.1501	-0.013
Mof_C 	C 	0.0725	0.3785	0.2203	0.005
Mof_C 	C 	0.1238	0.436	0.2538	-0.144
Mof_C 	C 	0.135	0.4871	0.2176	0.137
Mof_C 	C 	0.0962	0.4781	0.1486	-0.143
Mof_C 	C 	0.0474	0.4202	0.1145	0.005
Mof_C 	C 	0.863	0.0657	0.9924	-0.004
Mof_C 	C 	0.8757	0.0177	0.0268	0.003
Mof_C 	C 	0.8545	0.9501	0.9953	-0.152
Mof_C 	C 	0.8207	0.9325	0.9271	0.145
Mof_C 	C 	0.8056	0.9804	0.8885	-0.139
Mof_C 	C 	0.831	0.0463	0.9202	-0.001
Mof_C 	C 	0.3319	0.6775	0.1959	0.148
Mof_C 	C 	0.2638	0.6489	0.2358	-0.251
Mof_C 	C 	0.2563	0.581	0.2181	0.223
Mof_C 	C 	0.3184	0.5462	0.1633	-0.253
Mof_C 	C 	0.3831	0.5782	0.1274	0.151
Mof_C 	C 	0.1705	0.6442	0.4464	0.151
Mof_C 	C 	0.2122	0.6148	0.3798	-0.245
Mof_C 	C 	0.1475	0.5802	0.3264	0.214
Mof_C 	C 	0.0437	0.5752	0.3444	-0.24
Mof_C 	C 	0.0111	0.6042	0.413	0.15
Mof_C 	C 	0.9709	0.8157	0.7349	0.123
Mof_C 	C 	0.9299	0.8491	0.801	-0.222
Mof_C 	C 	0.8348	0.8323	0.8245	0.197
Mof_C 	C 	0.7811	0.7824	0.7744	-0.225
Mof_C 	C 	0.8266	0.7526	0.7093	0.127
Mof_C 	C 	0.6012	0.8222	0.0183	0.128
Mof_C 	C 	0.6557	0.8586	0.9788	-0.216
Mof_C 	C 	0.7368	0.8284	0.9322	0.194
Mof_C 	C 	0.7526	0.7607	0.9279	-0.222
Mof_C 	C 	0.6916	0.7297	0.9699	0.129
Mof_C 	C 	0.5142	0.3067	0.6148	-0.015
Mof_C 	C 	0.548	0.254	0.5879	-0.002
Mof_C 	C 	0.5828	0.1891	0.5556	-0.001
Mof_C 	C 	0.6088	0.1335	0.5258	-0.002
Mof_C 	C 	0.4659	0.3687	0.6501	-0.013
Mof_C 	C 	0.4275	0.3785	0.7203	0.005
Mof_C 	C 	0.3762	0.436	0.7538	-0.144
Mof_C 	C 	0.365	0.4871	0.7176	0.137
Mof_C 	C 	0.4038	0.4781	0.6486	-0.143
Mof_C 	C 	0.4526	0.4202	0.6145	0.005
Mof_C 	C 	0.637	0.0657	0.4924	-0.005
Mof_C 	C 	0.6243	0.0177	0.5268	0.005
Mof_C 	C 	0.6455	0.9501	0.4953	-0.154
Mof_C 	C 	0.6793	0.9325	0.4271	0.146
Mof_C 	C 	0.6944	0.9804	0.3885	-0.14
Mof_C 	C 	0.669	0.0463	0.4202	0
Mof_C 	C 	0.1681	0.6775	0.6959	0.148
Mof_C 	C 	0.2362	0.6489	0.7358	-0.251
Mof_C 	C 	0.2437	0.581	0.7181	0.223
Mof_C 	C 	0.1816	0.5462	0.6633	-0.253
Mof_C 	C 	0.1169	0.5782	0.6274	0.151
Mof_C 	C 	0.3295	0.6442	0.9464	0.151
Mof_C 	C 	0.2878	0.6148	0.8798	-0.245
Mof_C 	C 	0.3525	0.5802	0.8264	0.214
Mof_C 	C 	0.4563	0.5752	0.8444	-0.24
Mof_C 	C 	0.4889	0.6042	0.913	0.149
Mof_C 	C 	0.5291	0.8157	0.2349	0.124
Mof_C 	C 	0.5701	0.8491	0.301	-0.223
Mof_C 	C 	0.6652	0.8323	0.3245	0.197
Mof_C 	C 	0.7189	0.7824	0.2744	-0.226
Mof_C 	C 	0.6734	0.7526	0.2093	0.127
Mof_C 	C 	0.8988	0.8222	0.5183	0.129
Mof_C 	C 	0.8443	0.8586	0.4788	-0.217
Mof_C 	C 	0.7632	0.8284	0.4322	0.194
Mof_C 	C 	0.7474	0.7607	0.4279	-0.222
Mof_C 	C 	0.8084	0.7297	0.4699	0.128
Mof_N 	N 	0.1859	0.5484	0.2554	-0.198
Mof_N 	N 	0.392	0.6447	0.1428	-0.171
Mof_N 	N 	0.0721	0.64	0.4644	-0.168
Mof_N 	N 	0.7946	0.8641	0.8933	-0.198
Mof_N 	N 	0.9204	0.767	0.6882	-0.164
Mof_N 	N 	0.616	0.7583	0.0133	-0.165
Mof_N 	N 	0.3141	0.5484	0.7554	-0.198
Mof_N 	N 	0.108	0.6447	0.6428	-0.171
Mof_N 	N 	0.4279	0.64	0.9644	-0.168
Mof_N 	N 	0.7054	0.8641	0.3933	-0.198
Mof_N 	N 	0.5796	0.767	0.1882	-0.165
Mof_N 	N 	0.884	0.7583	0.5133	-0.165
Mof_Cl	Cl	0.3579	0.79267	0.0866	-0.347
Mof_Cl	Cl	0.6413	0.60614	0.06536	-0.356
Mof_Cl	Cl	0.1421	0.79267	0.5866	-0.347
Mof_Cl	Cl	0.8587	0.60614	0.56536	-0.356
Mof_Cd	Cd	0.00343	0.29904	0.42213	0.446
Mof_Cd	Cd	0.49657	0.29904	0.92213	0.446
Mof_H 	H 	0.5633	0.6548	0.2548	0.042
Mof_H 	H 	0.6511	0.5588	0.1995	0.11
Mof_H 	H 	0.6032	0.4879	0.3754	0.092
Mof_H 	H 	0.5226	0.5853	0.4329	0.04
Mof_H 	H 	0.4002	0.9704	0.4254	0.034
Mof_H 	H 	0.3641	0.0818	0.4782	0.093
Mof_H 	H 	0.2784	0.0317	0.6586	0.09
Mof_H 	H 	0.3267	0.9221	0.6073	0.053
Mof_H 	H 	0.8355	0.276	0.2923	0.001
Mof_H 	H 	0.7242	0.3249	0.2265	0.128
Mof_H 	H 	0.816	0.5004	0.3495	0.129
Mof_H 	H 	0.9238	0.4473	0.4102	0.008
Mof_H 	H 	0.7151	0.331	0.0181	0.006
Mof_H 	H 	0.7832	0.3816	0.129	0.126
Mof_H 	H 	0.4967	0.4478	0.1904	0.123
Mof_H 	H 	0.4416	0.4014	0.0753	0.001
Mof_H 	H 	0.5371	0.1724	0.7778	0.012
Mof_H 	H 	0.4676	0.116	0.6693	0.115
Mof_H 	H 	0.2146	0.2304	0.7146	0.117
Mof_H 	H 	0.2887	0.2805	0.8229	0.01
Mof_H 	H 	0.0505	0.1557	0.4494	0.012
Mof_H 	H 	0.1388	0.0967	0.517	0.117
Mof_H 	H 	0.3036	0.2633	0.6029	0.117
Mof_H 	H 	0.2052	0.3152	0.5329	0.01
Mof_H 	H 	0.9367	0.6548	0.7548	0.042
Mof_H 	H 	0.8489	0.5588	0.6995	0.11
Mof_H 	H 	0.8968	0.4879	0.8754	0.092
Mof_H 	H 	0.9774	0.5853	0.9329	0.04
Mof_H 	H 	0.0998	0.9704	0.9254	0.035
Mof_H 	H 	0.1359	0.0818	0.9782	0.092
Mof_H 	H 	0.2216	0.0317	0.1586	0.089
Mof_H 	H 	0.1733	0.9221	0.1073	0.053
Mof_H 	H 	0.6645	0.276	0.7923	0.001
Mof_H 	H 	0.7758	0.3249	0.7265	0.128
Mof_H 	H 	0.684	0.5004	0.8495	0.129
Mof_H 	H 	0.5762	0.4473	0.9102	0.008
Mof_H 	H 	0.7849	0.331	0.5181	0.006
Mof_H 	H 	0.7168	0.3816	0.629	0.126
Mof_H 	H 	0.0033	0.4478	0.6904	0.123
Mof_H 	H 	0.0584	0.4014	0.5753	0
Mof_H 	H 	0.9629	0.1724	0.2778	0.013
Mof_H 	H 	0.0324	0.116	0.1693	0.115
Mof_H 	H 	0.2854	0.2304	0.2146	0.117
Mof_H 	H 	0.2113	0.2805	0.3229	0.01
Mof_H 	H 	0.4495	0.1557	0.9494	0.012
Mof_H 	H 	0.3612	0.0967	0.017	0.117
Mof_H 	H 	0.1964	0.2633	0.1029	0.117
Mof_H 	H 	0.2948	0.3152	0.0329	0.01
Mof_C 	C 	0.4858	0.6933	0.3852	-0.015
Mof_C 	C 	0.452	0.746	0.4121	-0.002
Mof_C 	C 	0.4172	0.8109	0.4444	-0.001
Mof_C 	C 	0.3912	0.8665	0.4742	-0.002
Mof_C 	C 	0.5341	0.6313	0.3499	-0.013
Mof_C 	C 	0.5725	0.6215	0.2797	0.005
Mof_C 	C 	0.6238	0.564	0.2462	-0.144
Mof_C 	C 	0.635	0.5129	0.2824	0.137
Mof_C 	C 	0.5962	0.5219	0.3514	-0.143
Mof_C 	C 	0.5474	0.5798	0.3855	0.005
Mof_C 	C 	0.363	0.9343	0.5076	-0.005
Mof_C 	C 	0.3757	0.9823	0.4732	0.005
Mof_C 	C 	0.3545	0.0499	0.5047	-0.154
Mof_C 	C 	0.3207	0.0675	0.5729	0.146
Mof_C 	C 	0.3056	0.0196	0.6115	-0.14
Mof_C 	C 	0.331	0.9537	0.5798	0
Mof_C 	C 	0.8319	0.3225	0.3041	0.148
Mof_C 	C 	0.7638	0.3511	0.2642	-0.251
Mof_C 	C 	0.7563	0.419	0.2819	0.223
Mof_C 	C 	0.8184	0.4538	0.3367	-0.253
Mof_C 	C 	0.8831	0.4218	0.3726	0.151
Mof_C 	C 	0.6705	0.3558	0.0536	0.151
Mof_C 	C 	0.7122	0.3852	0.1202	-0.245
Mof_C 	C 	0.6475	0.4198	0.1736	0.214
Mof_C 	C 	0.5437	0.4248	0.1556	-0.24
Mof_C 	C 	0.5111	0.3958	0.087	0.149
Mof_C 	C 	0.4709	0.1843	0.7651	0.124
Mof_C 	C 	0.4299	0.1509	0.699	-0.223
Mof_C 	C 	0.3348	0.1677	0.6755	0.197
Mof_C 	C 	0.2811	0.2176	0.7256	-0.226
Mof_C 	C 	0.3266	0.2474	0.7907	0.127
Mof_C 	C 	0.1012	0.1778	0.4817	0.129
Mof_C 	C 	0.1557	0.1414	0.5212	-0.217
Mof_C 	C 	0.2368	0.1716	0.5678	0.194
Mof_C 	C 	0.2526	0.2393	0.5721	-0.222
Mof_C 	C 	0.1916	0.2703	0.5301	0.128
Mof_C 	C 	0.0142	0.6933	0.8852	-0.014
Mof_C 	C 	0.048	0.746	0.9121	-0.002
Mof_C 	C 	0.0828	0.8109	0.9444	-0.001
Mof_C 	C 	0.1088	0.8665	0.9742	-0.003
Mof_C 	C 	0.9659	0.6313	0.8499	-0.013
Mof_C 	C 	0.9275	0.6215	0.7797	0.005
Mof_C 	C 	0.8762	0.564	0.7462	-0.144
Mof_C 	C 	0.865	0.5129	0.7824	0.137
Mof_C 	C 	0.9038	0.5219	0.8514	-0.143
Mof_C 	C 	0.9526	0.5798	0.8855	0.005
Mof_C 	C 	0.137	0.9343	0.0076	-0.004
Mof_C 	C 	0.1243	0.9823	0.9732	0.003
Mof_C 	C 	0.1455	0.0499	0.0047	-0.152
Mof_C 	C 	0.1793	0.0675	0.0729	0.145
Mof_C 	C 	0.1944	0.0196	0.1115	-0.139
Mof_C 	C 	0.169	0.9537	0.0798	-0.001
Mof_C 	C 	0.6681	0.3225	0.8041	0.148
Mof_C 	C 	0.7362	0.3511	0.7642	-0.251
Mof_C 	C 	0.7437	0.419	0.7819	0.223
Mof_C 	C 	0.6816	0.4538	0.8367	-0.253
Mof_C 	C 	0.6169	0.4218	0.8726	0.151
Mof_C 	C 	0.8295	0.3558	0.5536	0.151
Mof_C 	C 	0.7878	0.3852	0.6202	-0.245
Mof_C 	C 	0.8525	0.4198	0.6736	0.214
Mof_C 	C 	0.9563	0.4248	0.6556	-0.24
Mof_C 	C 	0.9889	0.3958	0.587	0.15
Mof_C 	C 	0.0291	0.1843	0.2651	0.123
Mof_C 	C 	0.0701	0.1509	0.199	-0.222
Mof_C 	C 	0.1652	0.1677	0.1755	0.197
Mof_C 	C 	0.2189	0.2176	0.2256	-0.225
Mof_C 	C 	0.1734	0.2474	0.2907	0.127
Mof_C 	C 	0.3988	0.1778	0.9817	0.128
Mof_C 	C 	0.3443	0.1414	0.0212	-0.216
Mof_C 	C 	0.2632	0.1716	0.0678	0.194
Mof_C 	C 	0.2474	0.2393	0.0721	-0.222
Mof_C 	C 	0.3084	0.2703	0.0301	0.129
Mof_N 	N 	0.6859	0.4516	0.2446	-0.198
Mof_N 	N 	0.892	0.3553	0.3572	-0.171
Mof_N 	N 	0.5721	0.36	0.0356	-0.168
Mof_N 	N 	0.2946	0.1359	0.6067	-0.198
Mof_N 	N 	0.4204	0.233	0.8118	-0.165
Mof_N 	N 	0.116	0.2417	0.4867	-0.165
Mof_N 	N 	0.8141	0.4516	0.7446	-0.198
Mof_N 	N 	0.608	0.3553	0.8572	-0.171
Mof_N 	N 	0.9279	0.36	0.5356	-0.168
Mof_N 	N 	0.2054	0.1359	0.1067	-0.198
Mof_N 	N 	0.0796	0.233	0.3118	-0.164
Mof_N 	N 	0.384	0.2417	0.9867	-0.165
Mof_Cl	Cl	0.8579	0.20733	0.4134	-0.347
Mof_Cl	Cl	0.1413	0.39386	0.43464	-0.356
Mof_Cl	Cl	0.6421	0.20733	0.9134	-0.347
Mof_Cl	Cl	0.3587	0.39386	0.93464	-0.356
_end
