data_functionalizedCrystal
_audit_creation_method	'EQeq! by Chris Wilmer'
_symmetry_space_group_name_H-M	'P1'
_symmetry_Int_Tables_number	1
_symmetry_cell_setting	triclinic
loop_
_symmetry_equiv_pos_as_xyz
  x,y,z
_cell_length_a	32.614
_cell_length_b	18.976
_cell_length_c	17.57
_cell_angle_alpha	90
_cell_angle_beta	103.206
_cell_angle_gamma	90
loop_
_atom_site_label
_atom_site_type_symbol
_atom_site_fract_x
_atom_site_fract_y
_atom_site_fract_z
_atom_site_charge
Mof_Co	Co	0.901	0.35351	0.95937	1.153
Mof_O 	O 	0.93209	0.41033	0.06067	-0.386
Mof_O 	O 	0.94863	0.29915	0.05032	-0.362
Mof_O 	O 	0.85624	0.31929	0.01908	-0.406
Mof_O 	O 	0.81899	0.40483	0.0589	-0.286
Mof_N 	N 	0.86058	0.43039	0.89754	-0.237
Mof_N 	N 	0.82208	0.52525	0.86495	-0.145
Mof_N 	N 	0.84992	0.16669	0.8481	-0.142
Mof_N 	N 	0.88097	0.26878	0.8818	-0.23
Mof_N 	N 	0.51179	0.89904	0.87649	-0.145
Mof_N 	N 	0.44878	0.88412	0.90088	-0.229
Mof_C 	C 	0.95101	0.35538	0.0891	0.307
Mof_C 	C 	0.97641	0.35695	0.1721	-0.1
Mof_C 	C 	0.95553	0.35821	0.2334	0.044
Mof_C 	C 	0.91051	0.36066	0.2194	-0.08
Mof_H 	H 	0.8941	0.3619	0.1673	0.076
Mof_C 	C 	0.89124	0.3613	0.2802	-0.022
Mof_H 	H 	0.8614	0.3622	0.2702	0.043
Mof_C 	C 	0.91503	0.3606	0.3583	-0.028
Mof_H 	H 	0.901	0.3611	0.4001	0.041
Mof_C 	C 	0.04235	0.3591	0.1259	-0.07
Mof_H 	H 	0.0268	0.3592	0.0731	0.063
Mof_C 	C 	0.02053	0.35741	0.1876	0.04
Mof_C 	C 	0.8231	0.34531	0.03328	0.346
Mof_C 	C 	0.78511	0.29613	0.01647	-0.115
Mof_C 	C 	0.75689	0.29829	0.9437	0.039
Mof_C 	C 	0.76296	0.34486	0.8832	-0.073
Mof_H 	H 	0.7864	0.3759	0.8933	0.061
Mof_C 	C 	0.73626	0.3458	0.8124	-0.028
Mof_H 	H 	0.7414	0.3766	0.773	0.043
Mof_C 	C 	0.70044	0.3008	0.7961	-0.022
Mof_H 	H 	0.6817	0.3019	0.746	0.038
Mof_C 	C 	0.80705	0.2434	0.1485	-0.077
Mof_H 	H 	0.8315	0.2721	0.1597	0.067
Mof_C 	C 	0.77889	0.24788	0.0731	0.046
Mof_C 	C 	0.84434	0.43013	0.8181	-0.003
Mof_H 	H 	0.8491	0.3944	0.7831	0.023
Mof_C 	C 	0.82068	0.48817	0.7973	0.006
Mof_H 	H 	0.806	0.5009	0.746	0.032
Mof_C 	C 	0.84666	0.48842	0.92368	0.102
Mof_H 	H 	0.8531	0.5026	0.977	0.002
Mof_C 	C 	0.80275	0.59226	0.8698	0.129
Mof_C 	C 	0.76665	0.61034	0.8137	-0.134
Mof_H 	H 	0.7543	0.5779	0.7739	0.084
Mof_C 	C 	0.74925	0.67631	0.8171	0.02
Mof_H 	H 	0.7248	0.6891	0.7787	0.029
Mof_C 	C 	0.76644	0.72418	0.8749	-0.063
Mof_C 	C 	0.80239	0.70497	0.93067	0.022
Mof_H 	H 	0.8146	0.7371	0.9709	0.023
Mof_C 	C 	0.82037	0.63925	0.92767	-0.137
Mof_H 	H 	0.845	0.6266	0.9657	0.082
Mof_C 	C 	0.74733	0.79486	0.8776	0.112
Mof_C 	C 	0.70432	0.80153	0.87264	-0.17
Mof_H 	H 	0.6871	0.7606	0.8662	0.088
Mof_C 	C 	0.68621	0.8675	0.87694	0.114
Mof_C 	C 	0.71191	0.92673	0.88271	-0.174
Mof_H 	H 	0.7001	0.9719	0.8867	0.101
Mof_C 	C 	0.75463	0.92158	0.88285	0.111
Mof_C 	C 	0.77224	0.85462	0.8837	-0.171
Mof_H 	H 	0.8017	0.8499	0.8885	0.087
Mof_C 	C 	0.77979	0.98527	0.87561	-0.058
Mof_C 	C 	0.81448	0.98133	0.8412	0.013
Mof_H 	H 	0.8223	0.9368	0.8243	0.024
Mof_C 	C 	0.83774	0.04055	0.831	-0.13
Mof_H 	H 	0.8613	0.0366	0.808	0.079
Mof_C 	C 	0.82597	0.10529	0.855	0.123
Mof_C 	C 	0.79136	0.11104	0.888	-0.127
Mof_H 	H 	0.7832	0.1559	0.9033	0.084
Mof_C 	C 	0.76867	0.05166	0.8986	0.009
Mof_H 	H 	0.7452	0.0561	0.922	0.047
Mof_C 	C 	0.87354	0.18165	0.7938	0.001
Mof_H 	H 	0.8762	0.1535	0.7504	0.03
Mof_C 	C 	0.89203	0.24429	0.8152	0.006
Mof_H 	H 	0.9101	0.2682	0.7883	0.023
Mof_C 	C 	0.85567	0.22081	0.8991	0.093
Mof_H 	H 	0.8429	0.2238	0.9425	0.009
Mof_C 	C 	0.64051	0.87463	0.87468	-0.072
Mof_C 	C 	0.62034	0.93933	0.8622	0.03
Mof_H 	H 	0.636	0.9795	0.8532	0.029
Mof_C 	C 	0.57842	0.94719	0.8623	-0.146
Mof_H 	H 	0.5656	0.9923	0.8536	0.102
Mof_C 	C 	0.55502	0.88938	0.8751	0.137
Mof_C 	C 	0.57401	0.82395	0.8873	-0.146
Mof_H 	H 	0.5581	0.7839	0.8957	0.08
Mof_C 	C 	0.61604	0.8168	0.8873	0.024
Mof_H 	H 	0.6288	0.7716	0.896	0.017
Mof_C 	C 	0.48853	0.9584	0.8511	0.011
Mof_H 	H 	0.4976	0.9988	0.8275	0.035
Mof_C 	C 	0.45041	0.9481	0.866	0.002
Mof_H 	H 	0.4277	0.9807	0.8541	0.026
Mof_C 	C 	0.48629	0.85586	0.9051	0.101
Mof_H 	H 	0.4943	0.8104	0.9259	-0.008
Mof_Co	Co	0.401	0.85351	0.95937	1.153
Mof_O 	O 	0.43209	0.91033	0.06067	-0.384
Mof_O 	O 	0.44863	0.79915	0.05032	-0.36
Mof_O 	O 	0.35624	0.81929	0.01908	-0.405
Mof_O 	O 	0.31899	0.90483	0.0589	-0.284
Mof_N 	N 	0.36058	0.93039	0.89754	-0.236
Mof_N 	N 	0.32208	0.02525	0.86495	-0.142
Mof_N 	N 	0.34992	0.66669	0.8481	-0.141
Mof_N 	N 	0.38097	0.76878	0.8818	-0.231
Mof_N 	N 	0.01179	0.39904	0.87649	-0.145
Mof_N 	N 	0.94878	0.38412	0.90088	-0.229
Mof_C 	C 	0.45101	0.85538	0.0891	0.307
Mof_C 	C 	0.47641	0.85695	0.1721	-0.101
Mof_C 	C 	0.45553	0.85821	0.2334	0.045
Mof_C 	C 	0.41051	0.86066	0.2194	-0.08
Mof_H 	H 	0.3941	0.8619	0.1673	0.076
Mof_C 	C 	0.39124	0.8613	0.2802	-0.021
Mof_H 	H 	0.3614	0.8622	0.2702	0.043
Mof_C 	C 	0.41503	0.8606	0.3583	-0.028
Mof_H 	H 	0.401	0.8611	0.4001	0.041
Mof_C 	C 	0.54235	0.8591	0.1259	-0.071
Mof_H 	H 	0.5268	0.8592	0.0731	0.063
Mof_C 	C 	0.52053	0.85741	0.1876	0.041
Mof_C 	C 	0.3231	0.84531	0.03328	0.345
Mof_C 	C 	0.28511	0.79613	0.01647	-0.113
Mof_C 	C 	0.25689	0.79829	0.9437	0.037
Mof_C 	C 	0.26296	0.84486	0.8832	-0.072
Mof_H 	H 	0.2864	0.8759	0.8933	0.06
Mof_C 	C 	0.23626	0.8458	0.8124	-0.029
Mof_H 	H 	0.2414	0.8766	0.773	0.043
Mof_C 	C 	0.20044	0.8008	0.7961	-0.021
Mof_H 	H 	0.1817	0.8019	0.746	0.037
Mof_C 	C 	0.30705	0.7434	0.1485	-0.075
Mof_H 	H 	0.3315	0.7721	0.1597	0.066
Mof_C 	C 	0.27889	0.74788	0.0731	0.044
Mof_C 	C 	0.34434	0.93013	0.8181	-0.002
Mof_H 	H 	0.3491	0.8944	0.7831	0.022
Mof_C 	C 	0.32068	0.98817	0.7973	0.003
Mof_H 	H 	0.306	0.0009	0.746	0.034
Mof_C 	C 	0.34666	0.98842	0.92368	0.099
Mof_H 	H 	0.3531	0.0026	0.977	0.005
Mof_C 	C 	0.30275	0.09226	0.8698	0.128
Mof_C 	C 	0.26665	0.11034	0.8137	-0.133
Mof_H 	H 	0.2543	0.0779	0.7739	0.084
Mof_C 	C 	0.24925	0.17631	0.8171	0.02
Mof_H 	H 	0.2248	0.1891	0.7787	0.029
Mof_C 	C 	0.26644	0.22418	0.8749	-0.062
Mof_C 	C 	0.30239	0.20497	0.93067	0.022
Mof_H 	H 	0.3146	0.2371	0.9709	0.024
Mof_C 	C 	0.32037	0.13925	0.92767	-0.137
Mof_H 	H 	0.345	0.1266	0.9657	0.082
Mof_C 	C 	0.24733	0.29486	0.8776	0.113
Mof_C 	C 	0.20432	0.30153	0.87264	-0.17
Mof_H 	H 	0.1871	0.2606	0.8662	0.088
Mof_C 	C 	0.18621	0.3675	0.87694	0.114
Mof_C 	C 	0.21191	0.42673	0.88271	-0.174
Mof_H 	H 	0.2001	0.4719	0.8867	0.102
Mof_C 	C 	0.25463	0.42158	0.88285	0.111
Mof_C 	C 	0.27224	0.35462	0.8837	-0.171
Mof_H 	H 	0.3017	0.3499	0.8885	0.087
Mof_C 	C 	0.27979	0.48527	0.87561	-0.056
Mof_C 	C 	0.31448	0.48133	0.8412	0.014
Mof_H 	H 	0.3223	0.4368	0.8243	0.024
Mof_C 	C 	0.33774	0.54055	0.831	-0.131
Mof_H 	H 	0.3613	0.5366	0.808	0.079
Mof_C 	C 	0.32597	0.60529	0.855	0.123
Mof_C 	C 	0.29136	0.61104	0.888	-0.126
Mof_H 	H 	0.2832	0.6559	0.9033	0.084
Mof_C 	C 	0.26867	0.55166	0.8986	0.007
Mof_H 	H 	0.2452	0.5561	0.922	0.048
Mof_C 	C 	0.37354	0.68165	0.7938	0.001
Mof_H 	H 	0.3762	0.6535	0.7504	0.03
Mof_C 	C 	0.39203	0.74429	0.8152	0.006
Mof_H 	H 	0.4101	0.7682	0.7883	0.023
Mof_C 	C 	0.35567	0.72081	0.8991	0.093
Mof_H 	H 	0.3429	0.7238	0.9425	0.008
Mof_C 	C 	0.14051	0.37463	0.87468	-0.072
Mof_C 	C 	0.12034	0.43933	0.8622	0.03
Mof_H 	H 	0.136	0.4795	0.8532	0.03
Mof_C 	C 	0.07842	0.44719	0.8623	-0.146
Mof_H 	H 	0.0656	0.4923	0.8536	0.103
Mof_C 	C 	0.05502	0.38938	0.8751	0.137
Mof_C 	C 	0.07401	0.32395	0.8873	-0.146
Mof_H 	H 	0.0581	0.2839	0.8957	0.081
Mof_C 	C 	0.11604	0.3168	0.8873	0.025
Mof_H 	H 	0.1288	0.2716	0.896	0.017
Mof_C 	C 	0.98853	0.4584	0.8511	0.011
Mof_H 	H 	0.9976	0.4988	0.8275	0.035
Mof_C 	C 	0.95041	0.4481	0.866	0.003
Mof_H 	H 	0.9277	0.4807	0.8541	0.027
Mof_C 	C 	0.98629	0.35586	0.9051	0.101
Mof_H 	H 	0.9943	0.3104	0.9259	-0.008
Mof_Co	Co	0.099	0.35351	0.54063	1.154
Mof_O 	O 	0.06791	0.41033	0.43933	-0.385
Mof_O 	O 	0.05137	0.29915	0.44968	-0.361
Mof_O 	O 	0.14376	0.31929	0.48092	-0.405
Mof_O 	O 	0.18101	0.40483	0.4411	-0.285
Mof_N 	N 	0.13942	0.43039	0.60246	-0.236
Mof_N 	N 	0.17792	0.52525	0.63505	-0.144
Mof_N 	N 	0.15008	0.16669	0.6519	-0.141
Mof_N 	N 	0.11903	0.26878	0.6182	-0.23
Mof_N 	N 	0.48821	0.89904	0.62351	-0.145
Mof_N 	N 	0.55122	0.88412	0.59912	-0.229
Mof_C 	C 	0.04899	0.35538	0.4109	0.307
Mof_C 	C 	0.02359	0.35695	0.3279	-0.102
Mof_C 	C 	0.04447	0.35821	0.2666	0.045
Mof_C 	C 	0.08949	0.36066	0.2806	-0.08
Mof_H 	H 	0.1059	0.3619	0.3327	0.076
Mof_C 	C 	0.10876	0.3613	0.2198	-0.021
Mof_H 	H 	0.1386	0.3622	0.2298	0.042
Mof_C 	C 	0.08497	0.3606	0.1417	-0.029
Mof_H 	H 	0.099	0.3611	0.0999	0.041
Mof_C 	C 	0.95765	0.3591	0.3741	-0.071
Mof_H 	H 	0.9732	0.3592	0.4269	0.063
Mof_C 	C 	0.97947	0.35741	0.3124	0.042
Mof_C 	C 	0.1769	0.34531	0.46672	0.346
Mof_C 	C 	0.21489	0.29613	0.48353	-0.114
Mof_C 	C 	0.24311	0.29829	0.5563	0.038
Mof_C 	C 	0.23704	0.34486	0.6168	-0.073
Mof_H 	H 	0.2136	0.3759	0.6067	0.06
Mof_C 	C 	0.26374	0.3458	0.6876	-0.028
Mof_H 	H 	0.2586	0.3766	0.727	0.043
Mof_C 	C 	0.29956	0.3008	0.7039	-0.022
Mof_H 	H 	0.3183	0.3019	0.754	0.038
Mof_C 	C 	0.19295	0.2434	0.3515	-0.076
Mof_H 	H 	0.1685	0.2721	0.3403	0.067
Mof_C 	C 	0.22111	0.24788	0.4269	0.045
Mof_C 	C 	0.15566	0.43013	0.6819	-0.003
Mof_H 	H 	0.1509	0.3944	0.7169	0.023
Mof_C 	C 	0.17932	0.48817	0.7027	0.006
Mof_H 	H 	0.194	0.5009	0.754	0.032
Mof_C 	C 	0.15334	0.48842	0.57632	0.102
Mof_H 	H 	0.1469	0.5026	0.523	0.002
Mof_C 	C 	0.19725	0.59226	0.6302	0.129
Mof_C 	C 	0.23335	0.61034	0.6863	-0.134
Mof_H 	H 	0.2457	0.5779	0.7261	0.084
Mof_C 	C 	0.25075	0.67631	0.6829	0.02
Mof_H 	H 	0.2752	0.6891	0.7213	0.029
Mof_C 	C 	0.23356	0.72418	0.6251	-0.063
Mof_C 	C 	0.19761	0.70497	0.56933	0.022
Mof_H 	H 	0.1854	0.7371	0.5291	0.023
Mof_C 	C 	0.17963	0.63925	0.57233	-0.137
Mof_H 	H 	0.155	0.6266	0.5343	0.082
Mof_C 	C 	0.25267	0.79486	0.6224	0.112
Mof_C 	C 	0.29568	0.80153	0.62736	-0.17
Mof_H 	H 	0.3129	0.7606	0.6338	0.088
Mof_C 	C 	0.31379	0.8675	0.62306	0.114
Mof_C 	C 	0.28809	0.92673	0.61729	-0.174
Mof_H 	H 	0.2999	0.9719	0.6133	0.101
Mof_C 	C 	0.24537	0.92158	0.61715	0.11
Mof_C 	C 	0.22776	0.85462	0.6163	-0.171
Mof_H 	H 	0.1983	0.8499	0.6115	0.087
Mof_C 	C 	0.22021	0.98527	0.62439	-0.057
Mof_C 	C 	0.18552	0.98133	0.6588	0.013
Mof_H 	H 	0.1777	0.9368	0.6757	0.024
Mof_C 	C 	0.16226	0.04055	0.669	-0.13
Mof_H 	H 	0.1387	0.0366	0.692	0.079
Mof_C 	C 	0.17403	0.10529	0.645	0.123
Mof_C 	C 	0.20864	0.11104	0.612	-0.126
Mof_H 	H 	0.2168	0.1559	0.5967	0.084
Mof_C 	C 	0.23133	0.05166	0.6014	0.008
Mof_H 	H 	0.2548	0.0561	0.578	0.048
Mof_C 	C 	0.12646	0.18165	0.7062	0.001
Mof_H 	H 	0.1238	0.1535	0.7496	0.03
Mof_C 	C 	0.10797	0.24429	0.6848	0.006
Mof_H 	H 	0.0899	0.2682	0.7117	0.023
Mof_C 	C 	0.14433	0.22081	0.6009	0.093
Mof_H 	H 	0.1571	0.2238	0.5575	0.009
Mof_C 	C 	0.35949	0.87463	0.62532	-0.072
Mof_C 	C 	0.37966	0.93933	0.6378	0.03
Mof_H 	H 	0.364	0.9795	0.6468	0.029
Mof_C 	C 	0.42158	0.94719	0.6377	-0.146
Mof_H 	H 	0.4344	0.9923	0.6464	0.103
Mof_C 	C 	0.44498	0.88938	0.6249	0.137
Mof_C 	C 	0.42599	0.82395	0.6127	-0.146
Mof_H 	H 	0.4419	0.7839	0.6043	0.081
Mof_C 	C 	0.38396	0.8168	0.6127	0.024
Mof_H 	H 	0.3712	0.7716	0.604	0.017
Mof_C 	C 	0.51147	0.9584	0.6489	0.011
Mof_H 	H 	0.5024	0.9988	0.6725	0.035
Mof_C 	C 	0.54959	0.9481	0.634	0.002
Mof_H 	H 	0.5723	0.9807	0.6459	0.027
Mof_C 	C 	0.51371	0.85586	0.5949	0.102
Mof_H 	H 	0.5057	0.8104	0.5741	-0.008
Mof_Co	Co	0.599	0.85351	0.54063	1.154
Mof_O 	O 	0.56791	0.91033	0.43933	-0.385
Mof_O 	O 	0.55137	0.79915	0.44968	-0.361
Mof_O 	O 	0.64376	0.81929	0.48092	-0.405
Mof_O 	O 	0.68101	0.90483	0.4411	-0.285
Mof_N 	N 	0.63942	0.93039	0.60246	-0.236
Mof_N 	N 	0.67792	0.02525	0.63505	-0.143
Mof_N 	N 	0.65008	0.66669	0.6519	-0.141
Mof_N 	N 	0.61903	0.76878	0.6182	-0.23
Mof_N 	N 	0.98821	0.39904	0.62351	-0.145
Mof_N 	N 	0.05122	0.38412	0.59912	-0.229
Mof_C 	C 	0.54899	0.85538	0.4109	0.307
Mof_C 	C 	0.52359	0.85695	0.3279	-0.101
Mof_C 	C 	0.54447	0.85821	0.2666	0.045
Mof_C 	C 	0.58949	0.86066	0.2806	-0.08
Mof_H 	H 	0.6059	0.8619	0.3327	0.076
Mof_C 	C 	0.60876	0.8613	0.2198	-0.021
Mof_H 	H 	0.6386	0.8622	0.2298	0.043
Mof_C 	C 	0.58497	0.8606	0.1417	-0.028
Mof_H 	H 	0.599	0.8611	0.0999	0.041
Mof_C 	C 	0.45765	0.8591	0.3741	-0.071
Mof_H 	H 	0.4732	0.8592	0.4269	0.063
Mof_C 	C 	0.47947	0.85741	0.3124	0.041
Mof_C 	C 	0.6769	0.84531	0.46672	0.346
Mof_C 	C 	0.71489	0.79613	0.48353	-0.114
Mof_C 	C 	0.74311	0.79829	0.5563	0.038
Mof_C 	C 	0.73704	0.84486	0.6168	-0.073
Mof_H 	H 	0.7136	0.8759	0.6067	0.06
Mof_C 	C 	0.76374	0.8458	0.6876	-0.028
Mof_H 	H 	0.7586	0.8766	0.727	0.043
Mof_C 	C 	0.79956	0.8008	0.7039	-0.021
Mof_H 	H 	0.8183	0.8019	0.754	0.038
Mof_C 	C 	0.69295	0.7434	0.3515	-0.076
Mof_H 	H 	0.6685	0.7721	0.3403	0.067
Mof_C 	C 	0.72111	0.74788	0.4269	0.045
Mof_C 	C 	0.65566	0.93013	0.6819	-0.002
Mof_H 	H 	0.6509	0.8944	0.7169	0.022
Mof_C 	C 	0.67932	0.98817	0.7027	0.004
Mof_H 	H 	0.694	0.0009	0.754	0.033
Mof_C 	C 	0.65334	0.98842	0.57632	0.102
Mof_H 	H 	0.6469	0.0026	0.523	0.003
Mof_C 	C 	0.69725	0.09226	0.6302	0.129
Mof_C 	C 	0.73335	0.11034	0.6863	-0.134
Mof_H 	H 	0.7457	0.0779	0.7261	0.084
Mof_C 	C 	0.75075	0.17631	0.6829	0.02
Mof_H 	H 	0.7752	0.1891	0.7213	0.029
Mof_C 	C 	0.73356	0.22418	0.6251	-0.063
Mof_C 	C 	0.69761	0.20497	0.56933	0.022
Mof_H 	H 	0.6854	0.2371	0.5291	0.024
Mof_C 	C 	0.67963	0.13925	0.57233	-0.137
Mof_H 	H 	0.655	0.1266	0.5343	0.082
Mof_C 	C 	0.75267	0.29486	0.6224	0.112
Mof_C 	C 	0.79568	0.30153	0.62736	-0.17
Mof_H 	H 	0.8129	0.2606	0.6338	0.088
Mof_C 	C 	0.81379	0.3675	0.62306	0.114
Mof_C 	C 	0.78809	0.42673	0.61729	-0.174
Mof_H 	H 	0.7999	0.4719	0.6133	0.102
Mof_C 	C 	0.74537	0.42158	0.61715	0.111
Mof_C 	C 	0.72776	0.35462	0.6163	-0.171
Mof_H 	H 	0.6983	0.3499	0.6115	0.087
Mof_C 	C 	0.72021	0.48527	0.62439	-0.057
Mof_C 	C 	0.68552	0.48133	0.6588	0.014
Mof_H 	H 	0.6777	0.4368	0.6757	0.024
Mof_C 	C 	0.66226	0.54055	0.669	-0.131
Mof_H 	H 	0.6387	0.5366	0.692	0.079
Mof_C 	C 	0.67403	0.60529	0.645	0.123
Mof_C 	C 	0.70864	0.61104	0.612	-0.126
Mof_H 	H 	0.7168	0.6559	0.5967	0.084
Mof_C 	C 	0.73133	0.55166	0.6014	0.007
Mof_H 	H 	0.7548	0.5561	0.578	0.048
Mof_C 	C 	0.62646	0.68165	0.7062	0.001
Mof_H 	H 	0.6238	0.6535	0.7496	0.03
Mof_C 	C 	0.60797	0.74429	0.6848	0.006
Mof_H 	H 	0.5899	0.7682	0.7117	0.023
Mof_C 	C 	0.64433	0.72081	0.6009	0.093
Mof_H 	H 	0.6571	0.7238	0.5575	0.009
Mof_C 	C 	0.85949	0.37463	0.62532	-0.072
Mof_C 	C 	0.87966	0.43933	0.6378	0.03
Mof_H 	H 	0.864	0.4795	0.6468	0.03
Mof_C 	C 	0.92158	0.44719	0.6377	-0.146
Mof_H 	H 	0.9344	0.4923	0.6464	0.103
Mof_C 	C 	0.94498	0.38938	0.6249	0.137
Mof_C 	C 	0.92599	0.32395	0.6127	-0.146
Mof_H 	H 	0.9419	0.2839	0.6043	0.081
Mof_C 	C 	0.88396	0.3168	0.6127	0.024
Mof_H 	H 	0.8712	0.2716	0.604	0.017
Mof_C 	C 	0.01147	0.4584	0.6489	0.011
Mof_H 	H 	0.0024	0.4988	0.6725	0.035
Mof_C 	C 	0.04959	0.4481	0.634	0.002
Mof_H 	H 	0.0723	0.4807	0.6459	0.027
Mof_C 	C 	0.01371	0.35586	0.5949	0.102
Mof_H 	H 	0.0057	0.3104	0.5741	-0.008
Mof_Co	Co	0.099	0.64649	0.04063	1.154
Mof_O 	O 	0.06791	0.58967	0.93933	-0.385
Mof_O 	O 	0.05137	0.70085	0.94968	-0.361
Mof_O 	O 	0.14376	0.68071	0.98092	-0.405
Mof_O 	O 	0.18101	0.59517	0.9411	-0.285
Mof_N 	N 	0.13942	0.56961	0.10246	-0.236
Mof_N 	N 	0.17792	0.47475	0.13505	-0.144
Mof_N 	N 	0.15008	0.83331	0.1519	-0.141
Mof_N 	N 	0.11903	0.73122	0.1182	-0.23
Mof_N 	N 	0.48821	0.10096	0.12351	-0.145
Mof_N 	N 	0.55122	0.11588	0.09912	-0.229
Mof_C 	C 	0.04899	0.64462	0.9109	0.307
Mof_C 	C 	0.02359	0.64305	0.8279	-0.1
Mof_C 	C 	0.04447	0.64179	0.7666	0.044
Mof_C 	C 	0.08949	0.63934	0.7806	-0.08
Mof_H 	H 	0.1059	0.6381	0.8327	0.076
Mof_C 	C 	0.10876	0.6387	0.7198	-0.022
Mof_H 	H 	0.1386	0.6378	0.7298	0.043
Mof_C 	C 	0.08497	0.6394	0.6417	-0.028
Mof_H 	H 	0.099	0.6389	0.5999	0.041
Mof_C 	C 	0.95765	0.6409	0.8741	-0.07
Mof_H 	H 	0.9732	0.6408	0.9269	0.063
Mof_C 	C 	0.97947	0.64259	0.8124	0.04
Mof_C 	C 	0.1769	0.65469	0.96672	0.346
Mof_C 	C 	0.21489	0.70387	0.98353	-0.115
Mof_C 	C 	0.24311	0.70171	0.0563	0.039
Mof_C 	C 	0.23704	0.65514	0.1168	-0.073
Mof_H 	H 	0.2136	0.6241	0.1067	0.061
Mof_C 	C 	0.26374	0.6542	0.1876	-0.028
Mof_H 	H 	0.2586	0.6234	0.227	0.043
Mof_C 	C 	0.29956	0.6992	0.2039	-0.022
Mof_H 	H 	0.3183	0.6981	0.254	0.038
Mof_C 	C 	0.19295	0.7566	0.8515	-0.077
Mof_H 	H 	0.1685	0.7279	0.8403	0.067
Mof_C 	C 	0.22111	0.75212	0.9269	0.046
Mof_C 	C 	0.15566	0.56987	0.1819	-0.003
Mof_H 	H 	0.1509	0.6056	0.2169	0.023
Mof_C 	C 	0.17932	0.51183	0.2027	0.006
Mof_H 	H 	0.194	0.4991	0.254	0.032
Mof_C 	C 	0.15334	0.51158	0.07632	0.102
Mof_H 	H 	0.1469	0.4974	0.023	0.002
Mof_C 	C 	0.19725	0.40774	0.1302	0.129
Mof_C 	C 	0.23335	0.38966	0.1863	-0.134
Mof_H 	H 	0.2457	0.4221	0.2261	0.084
Mof_C 	C 	0.25075	0.32369	0.1829	0.02
Mof_H 	H 	0.2752	0.3109	0.2213	0.029
Mof_C 	C 	0.23356	0.27582	0.1251	-0.063
Mof_C 	C 	0.19761	0.29503	0.06933	0.022
Mof_H 	H 	0.1854	0.2629	0.0291	0.023
Mof_C 	C 	0.17963	0.36075	0.07233	-0.137
Mof_H 	H 	0.155	0.3734	0.0343	0.082
Mof_C 	C 	0.25267	0.20514	0.1224	0.112
Mof_C 	C 	0.29568	0.19847	0.12736	-0.17
Mof_H 	H 	0.3129	0.2394	0.1338	0.088
Mof_C 	C 	0.31379	0.1325	0.12306	0.114
Mof_C 	C 	0.28809	0.07327	0.11729	-0.174
Mof_H 	H 	0.2999	0.0281	0.1133	0.101
Mof_C 	C 	0.24537	0.07842	0.11715	0.111
Mof_C 	C 	0.22776	0.14538	0.1163	-0.171
Mof_H 	H 	0.1983	0.1501	0.1115	0.087
Mof_C 	C 	0.22021	0.01473	0.12439	-0.058
Mof_C 	C 	0.18552	0.01867	0.1588	0.013
Mof_H 	H 	0.1777	0.0632	0.1757	0.024
Mof_C 	C 	0.16226	0.95945	0.169	-0.13
Mof_H 	H 	0.1387	0.9634	0.192	0.079
Mof_C 	C 	0.17403	0.89471	0.145	0.123
Mof_C 	C 	0.20864	0.88896	0.112	-0.127
Mof_H 	H 	0.2168	0.8441	0.0967	0.084
Mof_C 	C 	0.23133	0.94834	0.1014	0.009
Mof_H 	H 	0.2548	0.9439	0.078	0.047
Mof_C 	C 	0.12646	0.81835	0.2062	0.001
Mof_H 	H 	0.1238	0.8465	0.2496	0.03
Mof_C 	C 	0.10797	0.75571	0.1848	0.006
Mof_H 	H 	0.0899	0.7318	0.2117	0.023
Mof_C 	C 	0.14433	0.77919	0.1009	0.093
Mof_H 	H 	0.1571	0.7762	0.0575	0.009
Mof_C 	C 	0.35949	0.12537	0.12532	-0.072
Mof_C 	C 	0.37966	0.06067	0.1378	0.03
Mof_H 	H 	0.364	0.0205	0.1468	0.029
Mof_C 	C 	0.42158	0.05281	0.1377	-0.146
Mof_H 	H 	0.4344	0.0077	0.1464	0.102
Mof_C 	C 	0.44498	0.11062	0.1249	0.137
Mof_C 	C 	0.42599	0.17605	0.1127	-0.146
Mof_H 	H 	0.4419	0.2161	0.1043	0.08
Mof_C 	C 	0.38396	0.1832	0.1127	0.024
Mof_H 	H 	0.3712	0.2284	0.104	0.017
Mof_C 	C 	0.51147	0.0416	0.1489	0.011
Mof_H 	H 	0.5024	0.0012	0.1725	0.035
Mof_C 	C 	0.54959	0.0519	0.134	0.002
Mof_H 	H 	0.5723	0.0193	0.1459	0.026
Mof_C 	C 	0.51371	0.14414	0.0949	0.101
Mof_H 	H 	0.5057	0.1896	0.0741	-0.008
Mof_Co	Co	0.599	0.14649	0.04063	1.153
Mof_O 	O 	0.56791	0.08967	0.93933	-0.384
Mof_O 	O 	0.55137	0.20085	0.94968	-0.36
Mof_O 	O 	0.64376	0.18071	0.98092	-0.405
Mof_O 	O 	0.68101	0.09517	0.9411	-0.284
Mof_N 	N 	0.63942	0.06961	0.10246	-0.236
Mof_N 	N 	0.67792	0.97475	0.13505	-0.142
Mof_N 	N 	0.65008	0.33331	0.1519	-0.141
Mof_N 	N 	0.61903	0.23122	0.1182	-0.231
Mof_N 	N 	0.98821	0.60096	0.12351	-0.145
Mof_N 	N 	0.05122	0.61588	0.09912	-0.229
Mof_C 	C 	0.54899	0.14462	0.9109	0.307
Mof_C 	C 	0.52359	0.14305	0.8279	-0.101
Mof_C 	C 	0.54447	0.14179	0.7666	0.045
Mof_C 	C 	0.58949	0.13934	0.7806	-0.08
Mof_H 	H 	0.6059	0.1381	0.8327	0.076
Mof_C 	C 	0.60876	0.1387	0.7198	-0.021
Mof_H 	H 	0.6386	0.1378	0.7298	0.043
Mof_C 	C 	0.58497	0.1394	0.6417	-0.028
Mof_H 	H 	0.599	0.1389	0.5999	0.041
Mof_C 	C 	0.45765	0.1409	0.8741	-0.071
Mof_H 	H 	0.4732	0.1408	0.9269	0.063
Mof_C 	C 	0.47947	0.14259	0.8124	0.041
Mof_C 	C 	0.6769	0.15469	0.96672	0.345
Mof_C 	C 	0.71489	0.20387	0.98353	-0.113
Mof_C 	C 	0.74311	0.20171	0.0563	0.037
Mof_C 	C 	0.73704	0.15514	0.1168	-0.072
Mof_H 	H 	0.7136	0.1241	0.1067	0.06
Mof_C 	C 	0.76374	0.1542	0.1876	-0.029
Mof_H 	H 	0.7586	0.1234	0.227	0.043
Mof_C 	C 	0.79956	0.1992	0.2039	-0.021
Mof_H 	H 	0.8183	0.1981	0.254	0.037
Mof_C 	C 	0.69295	0.2566	0.8515	-0.075
Mof_H 	H 	0.6685	0.2279	0.8403	0.066
Mof_C 	C 	0.72111	0.25212	0.9269	0.044
Mof_C 	C 	0.65566	0.06987	0.1819	-0.002
Mof_H 	H 	0.6509	0.1056	0.2169	0.022
Mof_C 	C 	0.67932	0.01183	0.2027	0.003
Mof_H 	H 	0.694	0.9991	0.254	0.034
Mof_C 	C 	0.65334	0.01158	0.07632	0.099
Mof_H 	H 	0.6469	0.9974	0.023	0.005
Mof_C 	C 	0.69725	0.90774	0.1302	0.128
Mof_C 	C 	0.73335	0.88966	0.1863	-0.133
Mof_H 	H 	0.7457	0.9221	0.2261	0.084
Mof_C 	C 	0.75075	0.82369	0.1829	0.02
Mof_H 	H 	0.7752	0.8109	0.2213	0.029
Mof_C 	C 	0.73356	0.77582	0.1251	-0.062
Mof_C 	C 	0.69761	0.79503	0.06933	0.022
Mof_H 	H 	0.6854	0.7629	0.0291	0.024
Mof_C 	C 	0.67963	0.86075	0.07233	-0.137
Mof_H 	H 	0.655	0.8734	0.0343	0.082
Mof_C 	C 	0.75267	0.70514	0.1224	0.113
Mof_C 	C 	0.79568	0.69847	0.12736	-0.17
Mof_H 	H 	0.8129	0.7394	0.1338	0.088
Mof_C 	C 	0.81379	0.6325	0.12306	0.114
Mof_C 	C 	0.78809	0.57327	0.11729	-0.174
Mof_H 	H 	0.7999	0.5281	0.1133	0.102
Mof_C 	C 	0.74537	0.57842	0.11715	0.111
Mof_C 	C 	0.72776	0.64538	0.1163	-0.171
Mof_H 	H 	0.6983	0.6501	0.1115	0.087
Mof_C 	C 	0.72021	0.51473	0.12439	-0.056
Mof_C 	C 	0.68552	0.51867	0.1588	0.014
Mof_H 	H 	0.6777	0.5632	0.1757	0.024
Mof_C 	C 	0.66226	0.45945	0.169	-0.131
Mof_H 	H 	0.6387	0.4634	0.192	0.079
Mof_C 	C 	0.67403	0.39471	0.145	0.123
Mof_C 	C 	0.70864	0.38896	0.112	-0.126
Mof_H 	H 	0.7168	0.3441	0.0967	0.084
Mof_C 	C 	0.73133	0.44834	0.1014	0.007
Mof_H 	H 	0.7548	0.4439	0.078	0.048
Mof_C 	C 	0.62646	0.31835	0.2062	0.001
Mof_H 	H 	0.6238	0.3465	0.2496	0.03
Mof_C 	C 	0.60797	0.25571	0.1848	0.006
Mof_H 	H 	0.5899	0.2318	0.2117	0.023
Mof_C 	C 	0.64433	0.27919	0.1009	0.093
Mof_H 	H 	0.6571	0.2762	0.0575	0.008
Mof_C 	C 	0.85949	0.62537	0.12532	-0.072
Mof_C 	C 	0.87966	0.56067	0.1378	0.03
Mof_H 	H 	0.864	0.5205	0.1468	0.03
Mof_C 	C 	0.92158	0.55281	0.1377	-0.146
Mof_H 	H 	0.9344	0.5077	0.1464	0.103
Mof_C 	C 	0.94498	0.61062	0.1249	0.137
Mof_C 	C 	0.92599	0.67605	0.1127	-0.146
Mof_H 	H 	0.9419	0.7161	0.1043	0.081
Mof_C 	C 	0.88396	0.6832	0.1127	0.025
Mof_H 	H 	0.8712	0.7284	0.104	0.017
Mof_C 	C 	0.01147	0.5416	0.1489	0.011
Mof_H 	H 	0.0024	0.5012	0.1725	0.035
Mof_C 	C 	0.04959	0.5519	0.134	0.003
Mof_H 	H 	0.0723	0.5193	0.1459	0.027
Mof_C 	C 	0.01371	0.64414	0.0949	0.101
Mof_H 	H 	0.0057	0.6896	0.0741	-0.008
Mof_Co	Co	0.901	0.64649	0.45937	1.154
Mof_O 	O 	0.93209	0.58967	0.56067	-0.385
Mof_O 	O 	0.94863	0.70085	0.55032	-0.361
Mof_O 	O 	0.85624	0.68071	0.51908	-0.405
Mof_O 	O 	0.81899	0.59517	0.5589	-0.285
Mof_N 	N 	0.86058	0.56961	0.39754	-0.236
Mof_N 	N 	0.82208	0.47475	0.36495	-0.144
Mof_N 	N 	0.84992	0.83331	0.3481	-0.141
Mof_N 	N 	0.88097	0.73122	0.3818	-0.23
Mof_N 	N 	0.51179	0.10096	0.37649	-0.145
Mof_N 	N 	0.44878	0.11588	0.40088	-0.229
Mof_C 	C 	0.95101	0.64462	0.5891	0.307
Mof_C 	C 	0.97641	0.64305	0.6721	-0.102
Mof_C 	C 	0.95553	0.64179	0.7334	0.045
Mof_C 	C 	0.91051	0.63934	0.7194	-0.08
Mof_H 	H 	0.8941	0.6381	0.6673	0.076
Mof_C 	C 	0.89124	0.6387	0.7802	-0.021
Mof_H 	H 	0.8614	0.6378	0.7702	0.042
Mof_C 	C 	0.91503	0.6394	0.8583	-0.029
Mof_H 	H 	0.901	0.6389	0.9001	0.041
Mof_C 	C 	0.04235	0.6409	0.6259	-0.071
Mof_H 	H 	0.0268	0.6408	0.5731	0.063
Mof_C 	C 	0.02053	0.64259	0.6876	0.042
Mof_C 	C 	0.8231	0.65469	0.53328	0.346
Mof_C 	C 	0.78511	0.70387	0.51647	-0.114
Mof_C 	C 	0.75689	0.70171	0.4437	0.038
Mof_C 	C 	0.76296	0.65514	0.3832	-0.073
Mof_H 	H 	0.7864	0.6241	0.3933	0.06
Mof_C 	C 	0.73626	0.6542	0.3124	-0.028
Mof_H 	H 	0.7414	0.6234	0.273	0.043
Mof_C 	C 	0.70044	0.6992	0.2961	-0.022
Mof_H 	H 	0.6817	0.6981	0.246	0.038
Mof_C 	C 	0.80705	0.7566	0.6485	-0.076
Mof_H 	H 	0.8315	0.7279	0.6597	0.067
Mof_C 	C 	0.77889	0.75212	0.5731	0.045
Mof_C 	C 	0.84434	0.56987	0.3181	-0.003
Mof_H 	H 	0.8491	0.6056	0.2831	0.023
Mof_C 	C 	0.82068	0.51183	0.2973	0.006
Mof_H 	H 	0.806	0.4991	0.246	0.032
Mof_C 	C 	0.84666	0.51158	0.42368	0.102
Mof_H 	H 	0.8531	0.4974	0.477	0.002
Mof_C 	C 	0.80275	0.40774	0.3698	0.129
Mof_C 	C 	0.76665	0.38966	0.3137	-0.134
Mof_H 	H 	0.7543	0.4221	0.2739	0.084
Mof_C 	C 	0.74925	0.32369	0.3171	0.02
Mof_H 	H 	0.7248	0.3109	0.2787	0.029
Mof_C 	C 	0.76644	0.27582	0.3749	-0.063
Mof_C 	C 	0.80239	0.29503	0.43067	0.022
Mof_H 	H 	0.8146	0.2629	0.4709	0.023
Mof_C 	C 	0.82037	0.36075	0.42767	-0.137
Mof_H 	H 	0.845	0.3734	0.4657	0.082
Mof_C 	C 	0.74733	0.20514	0.3776	0.112
Mof_C 	C 	0.70432	0.19847	0.37264	-0.17
Mof_H 	H 	0.6871	0.2394	0.3662	0.088
Mof_C 	C 	0.68621	0.1325	0.37694	0.114
Mof_C 	C 	0.71191	0.07327	0.38271	-0.174
Mof_H 	H 	0.7001	0.0281	0.3867	0.101
Mof_C 	C 	0.75463	0.07842	0.38285	0.11
Mof_C 	C 	0.77224	0.14538	0.3837	-0.171
Mof_H 	H 	0.8017	0.1501	0.3885	0.087
Mof_C 	C 	0.77979	0.01473	0.37561	-0.057
Mof_C 	C 	0.81448	0.01867	0.3412	0.013
Mof_H 	H 	0.8223	0.0632	0.3243	0.024
Mof_C 	C 	0.83774	0.95945	0.331	-0.13
Mof_H 	H 	0.8613	0.9634	0.308	0.079
Mof_C 	C 	0.82597	0.89471	0.355	0.123
Mof_C 	C 	0.79136	0.88896	0.388	-0.126
Mof_H 	H 	0.7832	0.8441	0.4033	0.084
Mof_C 	C 	0.76867	0.94834	0.3986	0.008
Mof_H 	H 	0.7452	0.9439	0.422	0.048
Mof_C 	C 	0.87354	0.81835	0.2938	0.001
Mof_H 	H 	0.8762	0.8465	0.2504	0.03
Mof_C 	C 	0.89203	0.75571	0.3152	0.006
Mof_H 	H 	0.9101	0.7318	0.2883	0.023
Mof_C 	C 	0.85567	0.77919	0.3991	0.093
Mof_H 	H 	0.8429	0.7762	0.4425	0.009
Mof_C 	C 	0.64051	0.12537	0.37468	-0.072
Mof_C 	C 	0.62034	0.06067	0.3622	0.03
Mof_H 	H 	0.636	0.0205	0.3532	0.029
Mof_C 	C 	0.57842	0.05281	0.3623	-0.146
Mof_H 	H 	0.5656	0.0077	0.3536	0.103
Mof_C 	C 	0.55502	0.11062	0.3751	0.137
Mof_C 	C 	0.57401	0.17605	0.3873	-0.146
Mof_H 	H 	0.5581	0.2161	0.3957	0.081
Mof_C 	C 	0.61604	0.1832	0.3873	0.024
Mof_H 	H 	0.6288	0.2284	0.396	0.017
Mof_C 	C 	0.48853	0.0416	0.3511	0.011
Mof_H 	H 	0.4976	0.0012	0.3275	0.035
Mof_C 	C 	0.45041	0.0519	0.366	0.002
Mof_H 	H 	0.4277	0.0193	0.3541	0.027
Mof_C 	C 	0.48629	0.14414	0.4051	0.102
Mof_H 	H 	0.4943	0.1896	0.4259	-0.008
Mof_Co	Co	0.401	0.14649	0.45937	1.154
Mof_O 	O 	0.43209	0.08967	0.56067	-0.385
Mof_O 	O 	0.44863	0.20085	0.55032	-0.361
Mof_O 	O 	0.35624	0.18071	0.51908	-0.405
Mof_O 	O 	0.31899	0.09517	0.5589	-0.285
Mof_N 	N 	0.36058	0.06961	0.39754	-0.236
Mof_N 	N 	0.32208	0.97475	0.36495	-0.143
Mof_N 	N 	0.34992	0.33331	0.3481	-0.141
Mof_N 	N 	0.38097	0.23122	0.3818	-0.23
Mof_N 	N 	0.01179	0.60096	0.37649	-0.145
Mof_N 	N 	0.94878	0.61588	0.40088	-0.229
Mof_C 	C 	0.45101	0.14462	0.5891	0.307
Mof_C 	C 	0.47641	0.14305	0.6721	-0.101
Mof_C 	C 	0.45553	0.14179	0.7334	0.045
Mof_C 	C 	0.41051	0.13934	0.7194	-0.08
Mof_H 	H 	0.3941	0.1381	0.6673	0.076
Mof_C 	C 	0.39124	0.1387	0.7802	-0.021
Mof_H 	H 	0.3614	0.1378	0.7702	0.043
Mof_C 	C 	0.41503	0.1394	0.8583	-0.028
Mof_H 	H 	0.401	0.1389	0.9001	0.041
Mof_C 	C 	0.54235	0.1409	0.6259	-0.071
Mof_H 	H 	0.5268	0.1408	0.5731	0.063
Mof_C 	C 	0.52053	0.14259	0.6876	0.041
Mof_C 	C 	0.3231	0.15469	0.53328	0.346
Mof_C 	C 	0.28511	0.20387	0.51647	-0.114
Mof_C 	C 	0.25689	0.20171	0.4437	0.038
Mof_C 	C 	0.26296	0.15514	0.3832	-0.073
Mof_H 	H 	0.2864	0.1241	0.3933	0.06
Mof_C 	C 	0.23626	0.1542	0.3124	-0.028
Mof_H 	H 	0.2414	0.1234	0.273	0.043
Mof_C 	C 	0.20044	0.1992	0.2961	-0.021
Mof_H 	H 	0.1817	0.1981	0.246	0.038
Mof_C 	C 	0.30705	0.2566	0.6485	-0.076
Mof_H 	H 	0.3315	0.2279	0.6597	0.067
Mof_C 	C 	0.27889	0.25212	0.5731	0.045
Mof_C 	C 	0.34434	0.06987	0.3181	-0.002
Mof_H 	H 	0.3491	0.1056	0.2831	0.022
Mof_C 	C 	0.32068	0.01183	0.2973	0.004
Mof_H 	H 	0.306	0.9991	0.246	0.033
Mof_C 	C 	0.34666	0.01158	0.42368	0.102
Mof_H 	H 	0.3531	0.9974	0.477	0.003
Mof_C 	C 	0.30275	0.90774	0.3698	0.129
Mof_C 	C 	0.26665	0.88966	0.3137	-0.134
Mof_H 	H 	0.2543	0.9221	0.2739	0.084
Mof_C 	C 	0.24925	0.82369	0.3171	0.02
Mof_H 	H 	0.2248	0.8109	0.2787	0.029
Mof_C 	C 	0.26644	0.77582	0.3749	-0.063
Mof_C 	C 	0.30239	0.79503	0.43067	0.022
Mof_H 	H 	0.3146	0.7629	0.4709	0.024
Mof_C 	C 	0.32037	0.86075	0.42767	-0.137
Mof_H 	H 	0.345	0.8734	0.4657	0.082
Mof_C 	C 	0.24733	0.70514	0.3776	0.112
Mof_C 	C 	0.20432	0.69847	0.37264	-0.17
Mof_H 	H 	0.1871	0.7394	0.3662	0.088
Mof_C 	C 	0.18621	0.6325	0.37694	0.114
Mof_C 	C 	0.21191	0.57327	0.38271	-0.174
Mof_H 	H 	0.2001	0.5281	0.3867	0.102
Mof_C 	C 	0.25463	0.57842	0.38285	0.111
Mof_C 	C 	0.27224	0.64538	0.3837	-0.171
Mof_H 	H 	0.3017	0.6501	0.3885	0.087
Mof_C 	C 	0.27979	0.51473	0.37561	-0.057
Mof_C 	C 	0.31448	0.51867	0.3412	0.014
Mof_H 	H 	0.3223	0.5632	0.3243	0.024
Mof_C 	C 	0.33774	0.45945	0.331	-0.131
Mof_H 	H 	0.3613	0.4634	0.308	0.079
Mof_C 	C 	0.32597	0.39471	0.355	0.123
Mof_C 	C 	0.29136	0.38896	0.388	-0.126
Mof_H 	H 	0.2832	0.3441	0.4033	0.084
Mof_C 	C 	0.26867	0.44834	0.3986	0.007
Mof_H 	H 	0.2452	0.4439	0.422	0.048
Mof_C 	C 	0.37354	0.31835	0.2938	0.001
Mof_H 	H 	0.3762	0.3465	0.2504	0.03
Mof_C 	C 	0.39203	0.25571	0.3152	0.006
Mof_H 	H 	0.4101	0.2318	0.2883	0.023
Mof_C 	C 	0.35567	0.27919	0.3991	0.093
Mof_H 	H 	0.3429	0.2762	0.4425	0.009
Mof_C 	C 	0.14051	0.62537	0.37468	-0.072
Mof_C 	C 	0.12034	0.56067	0.3622	0.03
Mof_H 	H 	0.136	0.5205	0.3532	0.03
Mof_C 	C 	0.07842	0.55281	0.3623	-0.146
Mof_H 	H 	0.0656	0.5077	0.3536	0.103
Mof_C 	C 	0.05502	0.61062	0.3751	0.137
Mof_C 	C 	0.07401	0.67605	0.3873	-0.146
Mof_H 	H 	0.0581	0.7161	0.3957	0.081
Mof_C 	C 	0.11604	0.6832	0.3873	0.024
Mof_H 	H 	0.1288	0.7284	0.396	0.017
Mof_C 	C 	0.98853	0.5416	0.3511	0.011
Mof_H 	H 	0.9976	0.5012	0.3275	0.035
Mof_C 	C 	0.95041	0.5519	0.366	0.002
Mof_H 	H 	0.9277	0.5193	0.3541	0.027
Mof_C 	C 	0.98629	0.64414	0.4051	0.102
Mof_H 	H 	0.9943	0.6896	0.4259	-0.008
_end
