data_functionalizedCrystal
_audit_creation_method	'EQeq! by Chris Wilmer'
_symmetry_space_group_name_H-M	'P1'
_symmetry_Int_Tables_number	1
_symmetry_cell_setting	triclinic
loop_
_symmetry_equiv_pos_as_xyz
  x,y,z
_cell_length_a	10.274
_cell_length_b	10.274
_cell_length_c	11.5943
_cell_angle_alpha	80.5546
_cell_angle_beta	80.5546
_cell_angle_gamma	85.0381
loop_
_atom_site_label
_atom_site_type_symbol
_atom_site_fract_x
_atom_site_fract_y
_atom_site_fract_z
_atom_site_charge
Mof_Cd	Cd	0.85937	0.47968	0.42132	0.531
Mof_Cd	Cd	0.52032	0.14063	0.07868	0.53
Mof_Cd	Cd	0.14063	0.52032	0.57868	0.531
Mof_Cd	Cd	0.47968	0.85937	0.92132	0.53
Mof_Cd	Cd	0.77411	0.22589	0.25	0.52
Mof_Cd	Cd	0.22589	0.77411	0.75	0.52
Mof_H 	H 	0.5855	0.6521	0.3449	0.094
Mof_H 	H 	0.5017	0.6835	0.4642	0.105
Mof_H 	H 	0.471	0.466	0.3543	0.081
Mof_H 	H 	0.3699	0.5891	0.3613	0.084
Mof_H 	H 	0.3479	0.4145	0.1551	0.093
Mof_H 	H 	0.3165	0.4983	0.0358	0.105
Mof_H 	H 	0.534	0.529	0.1457	0.081
Mof_H 	H 	0.4109	0.6301	0.1387	0.084
Mof_H 	H 	0.4145	0.3479	0.6551	0.094
Mof_H 	H 	0.4983	0.3165	0.5358	0.105
Mof_H 	H 	0.529	0.534	0.6457	0.081
Mof_H 	H 	0.6301	0.4109	0.6387	0.084
Mof_H 	H 	0.6521	0.5855	0.8449	0.093
Mof_H 	H 	0.6835	0.5017	0.9642	0.105
Mof_H 	H 	0.466	0.471	0.8543	0.081
Mof_H 	H 	0.5891	0.3699	0.8613	0.084
Mof_C 	C 	0.5401	0.6127	0.421	-0.041
Mof_C 	C 	0.4333	0.5325	0.4028	-0.014
Mof_C 	C 	0.3873	0.4599	0.079	-0.041
Mof_C 	C 	0.4675	0.5667	0.0972	-0.013
Mof_C 	C 	0.4599	0.3873	0.579	-0.041
Mof_C 	C 	0.5667	0.4675	0.5972	-0.014
Mof_C 	C 	0.6127	0.5401	0.921	-0.041
Mof_C 	C 	0.5325	0.4333	0.9028	-0.013
Mof_Cl	Cl	0.80316	0.47706	0.20972	-0.323
Mof_Cl	Cl	0.76786	0.1857	0.03346	-0.305
Mof_Cl	Cl	0.88945	0.51041	0.63572	-0.316
Mof_Cl	Cl	0.52294	0.19684	0.29028	-0.323
Mof_Cl	Cl	0.8143	0.23214	0.46654	-0.304
Mof_Cl	Cl	0.48959	0.11055	0.86428	-0.314
Mof_Cl	Cl	0.19684	0.52294	0.79028	-0.323
Mof_Cl	Cl	0.23214	0.8143	0.96654	-0.305
Mof_Cl	Cl	0.11055	0.48959	0.36428	-0.316
Mof_Cl	Cl	0.47706	0.80316	0.70972	-0.323
Mof_Cl	Cl	0.1857	0.76786	0.53346	-0.304
Mof_Cl	Cl	0.51041	0.88945	0.13572	-0.314
Mof_O 	O 	0.63313	0.53129	0.4859	-0.157
Mof_O 	O 	0.46871	0.36687	0.0141	-0.157
Mof_O 	O 	0.36687	0.46871	0.5141	-0.157
Mof_O 	O 	0.53129	0.63313	0.9859	-0.157
_end
